# Generated by pormake.
# Topology nia, (6,6)-cn, num edge types: 1
# Building blocks:
#     Node 0, Type 0, BuildingBlock: HISSIN_clean_sbu_0, # of connection points: 6
#     Node 1, Type 0, BuildingBlock: HISSIN_clean_sbu_0, # of connection points: 6
#     Node 2, Type 1, BuildingBlock: MIDCAF_clean_sbu_0, # of connection points: 6
#     Node 3, Type 1, BuildingBlock: MIDCAF_clean_sbu_0, # of connection points: 6
#     Edge 4, Type (0, 1), BuildingBlock: CIFDUS_clean_linker_0, # of connection points: 2
#     Edge 5, Type (0, 1), BuildingBlock: CIFDUS_clean_linker_0, # of connection points: 2
#     Edge 6, Type (0, 1), BuildingBlock: CIFDUS_clean_linker_0, # of connection points: 2
#     Edge 7, Type (0, 1), BuildingBlock: CIFDUS_clean_linker_0, # of connection points: 2
#     Edge 8, Type (0, 1), BuildingBlock: CIFDUS_clean_linker_0, # of connection points: 2
#     Edge 9, Type (0, 1), BuildingBlock: CIFDUS_clean_linker_0, # of connection points: 2
#     Edge 10, Type (0, 1), BuildingBlock: CIFDUS_clean_linker_0, # of connection points: 2
#     Edge 11, Type (0, 1), BuildingBlock: CIFDUS_clean_linker_0, # of connection points: 2
#     Edge 12, Type (0, 1), BuildingBlock: CIFDUS_clean_linker_0, # of connection points: 2
#     Edge 13, Type (0, 1), BuildingBlock: CIFDUS_clean_linker_0, # of connection points: 2
#     Edge 14, Type (0, 1), BuildingBlock: CIFDUS_clean_linker_0, # of connection points: 2
#     Edge 15, Type (0, 1), BuildingBlock: CIFDUS_clean_linker_0, # of connection points: 2
# Relax obj value: 0.381
# Max RMSD: 0.270
# Mean RMSD: 0.261
data_MOF--net-nia--node1-HISSIN_clean_sbu_0--node2-MIDCAF_clean_sbu_0--edge1-CIFDUS_clean_linker_0
_symmetry_space_group_name_H-M    P1
_symmetry_Int_Tables_number       1
_symmetry_cell_setting            triclinic
loop_
_symmetry_equiv_pos_as_xyz
'x, y, z'
_cell_length_a     22.976187
_cell_length_b     22.899153
_cell_length_c     29.283578
_cell_angle_alpha  76.8456
_cell_angle_beta   77.539828
_cell_angle_gamma 115.5533
loop_
_atom_site_label
_atom_site_type_symbol
_atom_site_fract_x
_atom_site_fract_y
_atom_site_fract_z
_atom_type_partial_charge
Eu0 Eu 0.00895 0.04774 0.07686 0.0
Eu1 Eu 0.97771 0.93842 1.01608 0.0
C2 C 0.13455 0.05433 0.9952 0.0
C3 C 0.02227 0.17631 0.14833 0.0
C4 C 0.0129 0.22634 0.11842 0.0
C5 C 0.03744 0.23671 0.20662 0.0
C6 C 0.01871 0.28305 0.13161 0.0
C7 C 0.03107 0.17996 0.19362 0.0
C8 C 0.03493 0.29073 0.17442 0.0
C9 C 0.03354 0.12612 0.13034 0.0
O10 O 0.02566 0.90449 0.06791 0.0
O11 O 0.00176 0.95156 0.12573 0.0
C12 C 0.0221 0.91098 0.11161 0.0
O13 O 0.89532 -0.00239 0.09128 0.0
O14 O -0.00901 0.91998 0.94545 0.0
O15 O 0.92194 0.83413 1.01631 0.0
O16 O 0.87869 0.89601 0.08105 0.0
C17 C 0.85468 0.93285 0.09758 0.0
O18 O -0.00069 0.1036 1.00669 0.0
O19 O 0.94142 0.00999 0.98501 0.0
O20 O 0.0914 0.017 0.97658 0.0
O21 O -0.01689 0.06179 0.14841 0.0
O22 O 0.0699 0.14713 0.0829 0.0
O23 O 0.11322 0.06474 1.03628 0.0
C24 C 0.97547 0.8083 0.95105 0.0
C25 C 0.95395 0.74228 0.98461 0.0
C26 C 0.02191 0.77936 0.8823 0.0
C27 C 0.96307 0.69419 0.96701 0.0
C28 C 0.01188 0.82741 0.89998 0.0
C29 C -0.00567 0.71086 0.91531 0.0
C30 C 0.95163 0.85274 0.96804 0.0
C31 C 0.96228 0.07463 0.98108 0.0
H32 H 0.00534 0.22381 0.0835 0.0
H33 H 0.05034 0.2409 0.23963 0.0
H34 H 0.01503 0.32311 0.1066 0.0
H35 H 0.03819 0.14148 0.21718 0.0
H36 H 0.92581 0.72576 1.02424 0.0
H37 H 0.04771 0.79478 0.84243 0.0
H38 H 0.94005 0.64213 0.99392 0.0
H39 H 0.02926 0.87816 0.87327 0.0
Eu40 Eu 0.96691 0.00341 0.50882 0.0
Eu41 Eu 0.03043 0.00888 0.60096 0.0
C42 C 0.92081 0.86206 0.6007 0.0
C43 C 0.87082 0.00696 0.41605 0.0
C44 C 0.82646 0.02416 0.44316 0.0
C45 C 0.80172 -0.01902 0.36379 0.0
C46 C 0.76808 0.0167 0.432 0.0
C47 C 0.86016 -0.0112 0.37483 0.0
C48 C 0.75308 -0.0089 0.39406 0.0
C49 C 0.91981 -0.00501 0.43546 0.0
O50 O 0.06875 0.95354 0.56003 0.0
O51 O 0.06628 0.00196 0.48348 0.0
C52 C 0.08317 0.96353 0.51208 0.0
O53 O 0.02501 0.11667 0.49641 0.0
O54 O 0.01608 -0.01188 0.68083 0.0
O55 O 0.11937 0.0478 0.62342 0.0
O56 O 0.09846 0.11427 0.53804 0.0
C57 C 0.08045 0.14831 0.50682 0.0
O58 O 0.89117 0.00989 0.56867 0.0
O59 O 0.96209 0.05404 0.6115 0.0
O60 O 0.94219 0.89742 0.62918 0.0
O61 O 0.97595 0.04903 0.43141 0.0
O62 O 0.89206 0.9451 0.47905 0.0
O63 O 0.93295 0.89304 0.55327 0.0
C64 C 0.11103 -0.00258 0.70672 0.0
C65 C 0.16321 -0.01779 0.69087 0.0
C66 C 0.13867 0.00439 0.78145 0.0
C67 C 0.20558 -0.01761 0.71867 0.0
C68 C 0.09638 0.00428 0.75359 0.0
C69 C 0.19641 -0.00201 0.76257 0.0
C70 C 0.08252 0.02163 0.67125 0.0
C71 C 0.90593 0.04004 0.60123 0.0
H72 H 0.83422 0.0384 0.47512 0.0
H73 H 0.79168 0.96084 0.33454 0.0
H74 H 0.73214 0.02609 0.45538 0.0
H75 H 0.89403 0.97523 0.35364 0.0
H76 H 0.17521 0.97632 0.65492 0.0
H77 H 0.12958 0.01517 0.81564 0.0
H78 H 0.24962 0.97733 0.70298 0.0
H79 H 0.05607 0.01574 0.76659 0.0
Zn80 Zn 0.32844 0.75942 0.21014 0.0
Zn81 Zn 0.26813 0.67849 0.39115 0.0
Zn82 Zn 0.29431 0.71362 0.30201 0.0
C83 C 0.40483 0.78402 0.34916 0.0
C84 C 0.24014 0.5575 0.37791 0.0
O85 O 0.2415 0.7712 0.27879 0.0
O86 O 0.30562 0.83401 0.19877 0.0
C87 C 0.44959 0.7825 0.21827 0.0
O88 O 0.3947 0.77114 0.31007 0.0
O89 O 0.35527 0.75172 0.39069 0.0
O90 O 0.25244 0.58369 0.4106 0.0
O91 O 0.24606 0.59618 0.33538 0.0
O92 O 0.42511 0.78283 0.18369 0.0
O93 O 0.40983 0.7641 0.26375 0.0
O94 O 0.23838 0.61788 0.28907 0.0
O95 O 0.25668 0.67097 0.21003 0.0
C96 C 0.22589 0.616 0.24846 0.0
O97 O 0.23619 0.76073 0.33331 0.0
O98 O 0.18999 0.69318 0.413 0.0
C99 C 0.25576 0.81748 0.23702 0.0
C100 C 0.19707 0.74313 0.37862 0.0
Zn101 Zn 0.67306 0.25983 0.89713 0.0
Zn102 Zn 0.69089 0.32145 0.71492 0.0
Zn103 Zn 0.68805 0.29252 0.80722 0.0
C104 C 0.74847 0.44903 0.72708 0.0
C105 C 0.55332 0.23803 0.77511 0.0
O106 O 0.74117 0.23272 0.82373 0.0
O107 O 0.68982 0.18096 0.90613 0.0
C108 C 0.78369 0.3974 0.84689 0.0
O109 O 0.73797 0.40891 0.77069 0.0
O110 O 0.73454 0.4237 0.69418 0.0
O111 O 0.59067 0.26787 0.72922 0.0
O112 O 0.5804 0.24307 0.80929 0.0
O113 O 0.75694 0.34617 0.88741 0.0
O114 O 0.75745 0.39156 0.81233 0.0
O115 O 0.57654 0.23913 0.85803 0.0
O116 O 0.5801 0.24363 0.93193 0.0
C117 C 0.54565 0.22948 0.90383 0.0
O118 O 0.73767 0.24129 0.77262 0.0
O119 O 0.74254 0.27595 0.69425 0.0
C120 C 0.73188 0.19029 0.86573 0.0
C121 C 0.75376 0.24109 0.72773 0.0
H122 H 0.10702 0.97011 0.15846 0.0
H123 H 9e-05 0.77926 0.13401 0.0
H124 H 0.05486 0.72892 0.18016 0.0
H125 H 0.14229 0.74401 0.21943 0.0
H126 H 0.26419 0.94198 0.22976 0.0
H127 H 0.19388 -0.01515 0.19833 0.0
C128 C 0.0948 0.91701 0.16422 0.0
C129 C 0.04911 0.87788 0.1436 0.0
C130 C 0.12919 0.88999 0.18841 0.0
C131 C 0.03491 0.80995 0.14988 0.0
C132 C 0.06623 0.78134 0.17616 0.0
C133 C 0.15175 0.79577 0.2162 0.0
C134 C 0.20605 0.83902 0.22879 0.0
C135 C 0.11453 0.8214 0.19465 0.0
C136 C 0.2208 0.90719 0.22204 0.0
C137 C 0.1812 0.93182 0.20351 0.0
H138 H 0.24754 0.11157 0.78791 0.0
H139 H 0.27705 0.94061 0.77739 0.0
H140 H 0.38925 -0.0021 0.78666 0.0
H141 H 0.48555 0.1045 0.7848 0.0
H142 H 0.45691 0.27631 0.79244 0.0
H143 H 0.33681 0.21039 0.798 0.0
C144 C 0.27729 0.08555 0.78936 0.0
C145 C 0.25425 0.02214 0.78149 0.0
C146 C 0.34233 0.11966 0.79322 0.0
C147 C 0.29407 -0.01022 0.78279 0.0
C148 C 0.35828 0.02265 0.78784 0.0
C149 C 0.45215 0.12648 0.78886 0.0
C150 C 0.47892 0.19453 0.78836 0.0
C151 C 0.38405 0.08883 0.79096 0.0
C152 C 0.43646 0.22364 0.79304 0.0
C153 C 0.36824 0.18616 0.79592 0.0
H154 H 0.01408 0.31743 0.26153 0.0
H155 H 0.11979 0.41801 0.10069 0.0
H156 H 0.18455 0.52778 0.11007 0.0
H157 H 0.22184 0.59176 0.16343 0.0
H158 H 0.11785 0.49592 0.32414 0.0
H159 H 0.04333 0.38681 0.31542 0.0
C160 C 0.05072 0.3636 0.22854 0.0
C161 C 0.06211 0.35909 0.1805 0.0
C162 C 0.08959 0.42674 0.23421 0.0
C163 C 0.10895 0.41972 0.13807 0.0
C164 C 0.14694 0.48255 0.14339 0.0
C165 C 0.18255 0.54727 0.1967 0.0
C166 C 0.17727 0.55085 0.24456 0.0
C167 C 0.1393 0.486 0.19124 0.0
C168 C 0.12484 0.49333 0.28703 0.0
C169 C 0.08181 0.43133 0.28198 0.0
H170 H 0.90863 0.07998 0.68136 0.0
H171 H 0.80635 0.05844 0.57348 0.0
H172 H 0.74767 0.11613 0.6055 0.0
H173 H 0.73281 0.18038 0.65949 0.0
H174 H 0.83819 0.20526 0.76509 0.0
H175 H 0.8883 0.13778 0.73877 0.0
C176 C 0.87311 0.08734 0.66496 0.0
C177 C 0.86247 0.06554 0.62461 0.0
C178 C 0.84057 0.12137 0.683 0.0
C179 C 0.81548 0.07464 0.60447 0.0
C180 C 0.78231 0.10803 0.62257 0.0
C181 C 0.76668 0.17089 0.67683 0.0
C182 C 0.78181 0.1976 0.71433 0.0
C183 C 0.79577 0.13296 0.66098 0.0
C184 C 0.82493 0.18422 0.7369 0.0
C185 C 0.85399 0.14622 0.72147 0.0
H186 H 0.75777 0.85588 0.19197 0.0
H187 H 0.78629 0.95252 1.03809 0.0
H188 H 0.66339 0.91478 0.06199 0.0
H189 H 0.54904 0.85647 0.12626 0.0
H190 H 0.51679 0.75635 0.2806 0.0
H191 H 0.63998 0.79394 0.2573 0.0
C192 C 0.7365 0.86801 0.16394 0.0
C193 C 0.78011 0.90632 0.11341 0.0
C194 C 0.6656 0.84621 0.1781 0.0
C195 C 0.75299 0.92263 0.07713 0.0
C196 C 0.68298 0.90126 0.09079 0.0
C197 C 0.56871 0.84255 0.15493 0.0
C198 C 0.52388 0.80452 0.20525 0.0
C199 C 0.63895 0.86332 0.14112 0.0
C200 C 0.55041 0.78667 0.24173 0.0
C201 C 0.62077 0.80783 0.22836 0.0
H202 H 0.84673 0.76542 0.69777 0.0
H203 H 0.93106 0.78675 0.54408 0.0
H204 H 0.88745 0.66286 0.57003 0.0
H205 H 0.82537 0.54807 0.63515 0.0
H206 H 0.73253 0.52031 0.78869 0.0
H207 H 0.77939 0.64637 0.76428 0.0
C208 C 0.85531 0.74271 0.67013 0.0
C209 C 0.89175 0.78561 0.61896 0.0
C210 C 0.82873 0.67015 0.68525 0.0
C211 C 0.90238 0.75525 0.58359 0.0
C212 C 0.87773 0.68419 0.59836 0.0
C213 C 0.81522 0.56945 0.66339 0.0
C214 C 0.77676 0.52504 0.7138 0.0
C215 C 0.84072 0.64117 0.64891 0.0
C216 C 0.76316 0.55363 0.74973 0.0
C217 C 0.78981 0.62565 0.73572 0.0
H218 H 0.13766 0.9777 0.41438 0.0
H219 H 0.07253 0.84515 0.56814 0.0
H220 H 0.09281 0.76166 0.53994 0.0
H221 H 0.13035 0.72641 0.47281 0.0
H222 H 0.20921 0.86231 0.31882 0.0
H223 H 0.18 0.94305 0.34562 0.0
C224 C 0.12871 0.9309 0.44158 0.0
C225 C 0.10431 0.91832 0.49327 0.0
C226 C 0.14144 0.8829 0.4251 0.0
C227 C 0.09255 0.85714 0.5281 0.0
C228 C 0.10337 0.80873 0.51208 0.0
C229 C 0.1405 0.77318 0.4448 0.0
C230 C 0.17061 0.78742 0.39343 0.0
C231 C 0.12771 0.82104 0.46078 0.0
C232 C 0.18411 0.84898 0.3582 0.0
C233 C 0.16851 0.89574 0.37373 0.0
H234 H 0.24009 0.1588 1.00606 0.0
H235 H 0.19784 0.01098 0.93143 0.0
H236 H 0.32085 0.04998 0.89816 0.0
H237 H 0.44125 0.12642 0.89034 0.0
H238 H 0.48258 0.2755 0.96344 0.0
H239 H 0.35944 0.23592 0.99711 0.0
C240 C 0.25781 0.13562 0.982 0.0
C241 C 0.20968 0.08214 0.97121 0.0
C242 C 0.32873 0.15909 0.96225 0.0
C243 C 0.23369 0.05272 0.93998 0.0
C244 C 0.30414 0.07501 0.92089 0.0
C245 C 0.42324 0.15127 0.91252 0.0
C246 C 0.47092 0.20492 0.92334 0.0
C247 C 0.35223 0.1284 0.93155 0.0
C248 C 0.44679 0.23442 0.95432 0.0
C249 C 0.37646 0.21197 0.97344 0.0
H250 H 0.11749 0.23718 0.41216 0.0
H251 H 0.1292 0.23103 0.55806 0.0
H252 H 0.17998 0.357 0.53065 0.0
H253 H 0.21386 0.46684 0.46761 0.0
H254 H 0.22043 0.47893 0.31743 0.0
H255 H 0.16868 0.35236 0.34404 0.0
C256 C 0.13202 0.26381 0.43759 0.0
C257 C 0.11932 0.22507 0.48717 0.0
C258 C 0.16298 0.33676 0.4211 0.0
C259 C 0.13891 0.25988 0.51971 0.0
C260 C 0.16751 0.33179 0.50414 0.0
C261 C 0.20433 0.44226 0.44034 0.0
C262 C 0.2167 0.48211 0.39114 0.0
C263 C 0.17869 0.37049 0.45525 0.0
C264 C 0.20653 0.44905 0.35629 0.0
C265 C 0.17827 0.37679 0.37135 0.0
H266 H 0.87785 0.0268 0.92935 0.0
H267 H -0.0133 0.20727 0.9655 0.0
H268 H 0.93166 0.26298 0.92521 0.0
H269 H 0.84283 0.25488 0.88862 0.0
H270 H 0.72816 0.07193 0.85783 0.0
H271 H 0.79619 0.0229 0.88627 0.0
C272 C 0.89049 0.07876 0.9279 0.0
C273 C 0.93619 0.11248 0.95096 0.0
C274 C 0.85753 0.10992 0.90554 0.0
C275 C 0.95171 0.17986 0.94839 0.0
C276 C 0.9201 0.21175 0.92539 0.0
C277 C 0.83434 0.20512 0.88684 0.0
C278 C 0.78169 0.16727 0.87049 0.0
C279 C 0.87172 0.17657 0.90501 0.0
C280 C 0.76937 0.1022 0.86946 0.0
C281 C 0.80779 0.0741 0.88618 0.0
H282 H 0.71448 -0.00157 0.31144 0.0
H283 H 0.63237 0.91522 0.47369 0.0
H284 H 0.51731 0.84713 0.47339 0.0
H285 H 0.44267 0.80096 0.42819 0.0
H286 H 0.51963 0.88495 0.26632 0.0
H287 H 0.63472 0.96124 0.26531 0.0
C288 C 0.67117 0.96605 0.34666 0.0
C289 C 0.68231 0.96194 0.39248 0.0
C290 C 0.60478 0.92555 0.34635 0.0
C291 C 0.62549 0.92043 0.43783 0.0
C292 C 0.55961 0.88056 0.43778 0.0
C293 C 0.48434 0.83615 0.39251 0.0
C294 C 0.47345 0.8347 0.34727 0.0
C295 C 0.54917 0.88115 0.39238 0.0
C296 C 0.52765 0.88225 0.30161 0.0
C297 C 0.59314 0.92667 0.30108 0.0
H298 H 0.97439 0.70022 0.82776 0.0
H299 H -0.00498 0.59139 0.95925 0.0
H300 H 0.93472 0.4824 0.94694 0.0
H301 H 0.85593 0.41692 0.90943 0.0
H302 H 0.85406 0.52488 0.76965 0.0
H303 H 0.92817 0.63687 0.77437 0.0
C304 C 0.96857 0.65359 0.85278 0.0
C305 C -0.01449 0.6536 0.89632 0.0
C306 C 0.935 0.59104 0.84504 0.0
C307 C 0.97889 0.59236 0.92709 0.0
C308 C 0.94453 0.52989 0.92008 0.0
C309 C 0.87202 0.46485 0.87965 0.0
C310 C 0.84284 0.4634 0.842 0.0
C311 C 0.91841 0.52824 0.88112 0.0
C312 C 0.86901 0.52548 0.80186 0.0
C313 C 0.91313 0.58924 0.80395 0.0
loop_
_geom_bond_atom_site_label_1
_geom_bond_atom_site_label_2
_geom_bond_distance
_geom_bond_site_symmetry_2
_ccdc_geom_bond_type
Eu0 C9 2.828 . S
Eu0 O11 2.392 1_545 S
Eu0 O13 2.418 1_455 S
Eu0 O18 2.373 1_455 S
Eu0 O21 2.488 . S
Eu0 O22 2.471 . S
Eu0 O23 2.349 1_554 S
Eu1 O10 2.373 1_656 S
Eu1 O14 2.488 1_655 S
Eu1 O15 2.471 . S
Eu1 O16 2.349 1_556 S
Eu1 O19 2.392 1_565 S
Eu1 O20 2.418 1_665 S
Eu1 C30 2.828 . S
C2 O20 1.244 . S
C2 O23 1.265 . S
C3 C4 1.379 . S
C3 C7 1.373 . S
C3 C9 1.505 . S
C4 C3 1.379 . S
C4 C6 1.369 . S
C4 H32 0.930 . S
C5 C7 1.383 . S
C5 C8 1.382 . S
C5 H33 0.930 . S
C6 C4 1.369 . S
C6 C8 1.392 . S
C6 H34 0.930 . S
C7 C3 1.373 . S
C7 C5 1.383 . S
C7 H35 0.931 . S
C8 C5 1.382 . S
C8 C6 1.392 . S
C9 Eu0 2.828 . S
C9 C3 1.505 . S
C9 O21 1.249 . S
C9 O22 1.244 . S
O10 Eu1 2.373 1_454 S
O10 C12 1.258 . S
O11 Eu0 2.392 1_565 S
O11 C12 1.242 . S
C12 O10 1.258 . S
C12 O11 1.242 . S
O13 Eu0 2.418 1_655 S
O13 C17 1.244 1_545 S
O14 Eu1 2.488 1_455 S
O14 C30 1.249 1_455 S
O15 Eu1 2.471 . S
O15 C30 1.244 . S
O16 Eu1 2.349 1_554 S
O16 C17 1.265 . S
C17 O13 1.244 1_565 S
C17 O16 1.265 . S
O18 Eu0 2.373 1_655 S
O18 C31 1.258 1_554 S
O19 Eu1 2.392 1_545 S
O19 C31 1.242 . S
O20 Eu1 2.418 1_445 S
O20 C2 1.244 . S
O21 Eu0 2.488 . S
O21 C9 1.249 . S
O22 Eu0 2.471 . S
O22 C9 1.244 . S
O23 Eu0 2.349 1_556 S
O23 C2 1.265 . S
C24 C25 1.379 . S
C24 C28 1.373 . S
C24 C30 1.505 . S
C25 C24 1.379 . S
C25 C27 1.369 . S
C25 H36 0.930 1_556 S
C26 C28 1.383 . S
C26 C29 1.382 . S
C26 H37 0.930 . S
C27 C25 1.369 . S
C27 C29 1.392 . S
C27 H38 0.930 1_556 S
C28 C24 1.373 . S
C28 C26 1.383 . S
C28 H39 0.931 1_655 S
C29 C26 1.382 . S
C29 C27 1.392 . S
C30 Eu1 2.828 . S
C30 O14 1.249 1_655 S
C30 O15 1.244 . S
C30 C24 1.505 . S
C31 O18 1.258 1_556 S
C31 O19 1.242 . S
H32 C4 0.930 . S
H33 C5 0.930 . S
H34 C6 0.930 . S
H35 C7 0.931 . S
H36 C25 0.930 1_554 S
H37 C26 0.930 . S
H38 C27 0.930 1_554 S
H39 C28 0.931 1_455 S
Eu40 C49 2.828 . S
Eu40 O51 2.392 1_655 S
Eu40 O53 2.418 1_665 S
Eu40 O58 2.373 1_565 S
Eu40 O61 2.488 1_565 S
Eu40 O62 2.471 . S
Eu40 O63 2.349 . S
Eu41 O50 2.373 1_545 S
Eu41 O54 2.488 . S
Eu41 O55 2.471 . S
Eu41 O56 2.349 . S
Eu41 O59 2.392 1_455 S
Eu41 O60 2.418 1_445 S
Eu41 C70 2.828 . S
C42 O60 1.244 . S
C42 O63 1.265 . S
C43 C44 1.379 . S
C43 C47 1.373 . S
C43 C49 1.505 . S
C44 C43 1.379 . S
C44 C46 1.369 . S
C44 H72 0.930 . S
C45 C47 1.383 . S
C45 C48 1.382 . S
C45 H73 0.930 . S
C46 C44 1.369 . S
C46 C48 1.392 . S
C46 H74 0.930 . S
C47 C43 1.373 . S
C47 C45 1.383 . S
C47 H75 0.931 1_565 S
C48 C45 1.382 . S
C48 C46 1.392 . S
C49 Eu40 2.828 . S
C49 C43 1.505 . S
C49 O61 1.249 1_565 S
C49 O62 1.244 . S
O50 Eu41 2.373 1_565 S
O50 C52 1.258 . S
O51 Eu40 2.392 1_455 S
O51 C52 1.242 . S
C52 O50 1.258 . S
C52 O51 1.242 . S
O53 Eu40 2.418 1_445 S
O53 C57 1.244 . S
O54 Eu41 2.488 . S
O54 C70 1.249 . S
O55 Eu41 2.471 . S
O55 C70 1.244 . S
O56 Eu41 2.349 . S
O56 C57 1.265 . S
C57 O53 1.244 . S
C57 O56 1.265 . S
O58 Eu40 2.373 1_545 S
O58 C71 1.258 . S
O59 Eu41 2.392 1_655 S
O59 C71 1.242 . S
O60 Eu41 2.418 1_665 S
O60 C42 1.244 . S
O61 Eu40 2.488 1_545 S
O61 C49 1.249 1_545 S
O62 Eu40 2.471 . S
O62 C49 1.244 . S
O63 Eu40 2.349 . S
O63 C42 1.265 . S
C64 C65 1.379 . S
C64 C68 1.373 . S
C64 C70 1.505 . S
C65 C64 1.379 . S
C65 C67 1.369 . S
C65 H76 0.930 . S
C66 C68 1.383 . S
C66 C69 1.382 . S
C66 H77 0.930 . S
C67 C65 1.369 . S
C67 C69 1.392 . S
C67 H78 0.930 . S
C68 C64 1.373 . S
C68 C66 1.383 . S
C68 H79 0.931 . S
C69 C66 1.382 . S
C69 C67 1.392 . S
C70 Eu41 2.828 . S
C70 O54 1.249 . S
C70 O55 1.244 . S
C70 C64 1.505 . S
C71 O58 1.258 . S
C71 O59 1.242 . S
H72 C44 0.930 . S
H73 C45 0.930 . S
H74 C46 0.930 . S
H75 C47 0.931 1_545 S
H76 C65 0.930 . S
H77 C66 0.930 . S
H78 C67 0.930 . S
H79 C68 0.931 . S
Zn80 O86 1.920 . S
Zn80 O92 1.898 . S
Zn80 O95 1.905 . S
Zn81 O89 1.905 . S
Zn81 O90 1.898 . S
Zn81 O98 1.920 . S
Zn82 O85 2.080 . S
Zn82 O88 2.114 . S
Zn82 O91 2.120 . S
Zn82 O93 2.120 . S
Zn82 O94 2.114 . S
Zn82 O97 2.080 . S
C83 O88 1.166 . S
C83 O89 1.182 . S
C84 O90 1.167 . S
C84 O91 1.299 . S
O85 Zn82 2.080 . S
O85 C99 1.305 . S
O86 Zn80 1.920 . S
O86 C99 1.234 . S
C87 O92 1.167 . S
C87 O93 1.299 . S
O88 Zn82 2.114 . S
O88 C83 1.166 . S
O89 Zn81 1.905 . S
O89 C83 1.182 . S
O90 Zn81 1.898 . S
O90 C84 1.167 . S
O91 Zn82 2.120 . S
O91 C84 1.299 . S
O92 Zn80 1.898 . S
O92 C87 1.167 . S
O93 Zn82 2.120 . S
O93 C87 1.299 . S
O94 Zn82 2.114 . S
O94 C96 1.166 . S
O95 Zn80 1.905 . S
O95 C96 1.182 . S
C96 O94 1.166 . S
C96 O95 1.182 . S
O97 Zn82 2.080 . S
O97 C100 1.305 . S
O98 Zn81 1.920 . S
O98 C100 1.234 . S
C99 O85 1.305 . S
C99 O86 1.234 . S
C100 O97 1.305 . S
C100 O98 1.234 . S
Zn101 O107 1.920 . S
Zn101 O113 1.898 . S
Zn101 O116 1.905 . S
Zn102 O110 1.905 . S
Zn102 O111 1.898 . S
Zn102 O119 1.920 . S
Zn103 O106 2.080 . S
Zn103 O109 2.114 . S
Zn103 O112 2.120 . S
Zn103 O114 2.120 . S
Zn103 O115 2.114 . S
Zn103 O118 2.080 . S
C104 O109 1.166 . S
C104 O110 1.182 . S
C105 O111 1.167 . S
C105 O112 1.299 . S
O106 Zn103 2.080 . S
O106 C120 1.305 . S
O107 Zn101 1.920 . S
O107 C120 1.234 . S
C108 O113 1.167 . S
C108 O114 1.299 . S
O109 Zn103 2.114 . S
O109 C104 1.166 . S
O110 Zn102 1.905 . S
O110 C104 1.182 . S
O111 Zn102 1.898 . S
O111 C105 1.167 . S
O112 Zn103 2.120 . S
O112 C105 1.299 . S
O113 Zn101 1.898 . S
O113 C108 1.167 . S
O114 Zn103 2.120 . S
O114 C108 1.299 . S
O115 Zn103 2.114 . S
O115 C117 1.166 . S
O116 Zn101 1.905 . S
O116 C117 1.182 . S
C117 O115 1.166 . S
C117 O116 1.182 . S
O118 Zn103 2.080 . S
O118 C121 1.305 . S
O119 Zn102 1.920 . S
O119 C121 1.234 . S
C120 O106 1.305 . S
C120 O107 1.234 . S
C121 O118 1.305 . S
C121 O119 1.234 . S
H122 C128 0.930 . S
H123 C131 0.930 . S
H124 C132 0.930 . S
H125 C133 0.930 . S
H126 C136 0.930 . S
H127 C137 0.930 . S
C128 H122 0.930 . S
C128 C129 1.355 . S
C128 C130 1.415 . S
C129 C128 1.355 . S
C129 C131 1.419 . S
C130 C128 1.415 . S
C130 C135 1.425 . S
C130 C137 1.409 . S
C131 H123 0.930 . S
C131 C129 1.419 . S
C131 C132 1.362 . S
C132 H124 0.930 . S
C132 C131 1.362 . S
C132 C135 1.409 . S
C133 H125 0.930 . S
C133 C134 1.355 . S
C133 C135 1.415 . S
C134 C133 1.355 . S
C134 C136 1.419 . S
C135 C130 1.425 . S
C135 C132 1.409 . S
C135 C133 1.415 . S
C136 H126 0.930 . S
C136 C134 1.419 . S
C136 C137 1.362 . S
C137 H127 0.930 . S
C137 C130 1.409 . S
C137 C136 1.362 . S
H138 C144 0.930 . S
H139 C147 0.930 . S
H140 C148 0.930 . S
H141 C149 0.930 . S
H142 C152 0.930 . S
H143 C153 0.930 . S
C144 H138 0.930 . S
C144 C145 1.355 . S
C144 C146 1.415 . S
C145 C144 1.355 . S
C145 C147 1.419 . S
C146 C144 1.415 . S
C146 C151 1.425 . S
C146 C153 1.409 . S
C147 H139 0.930 . S
C147 C145 1.419 . S
C147 C148 1.362 . S
C148 H140 0.930 . S
C148 C147 1.362 . S
C148 C151 1.409 . S
C149 H141 0.930 . S
C149 C150 1.355 . S
C149 C151 1.415 . S
C150 C149 1.355 . S
C150 C152 1.419 . S
C151 C146 1.425 . S
C151 C148 1.409 . S
C151 C149 1.415 . S
C152 H142 0.930 . S
C152 C150 1.419 . S
C152 C153 1.362 . S
C153 H143 0.930 . S
C153 C146 1.409 . S
C153 C152 1.362 . S
H154 C160 0.930 . S
H155 C163 0.930 . S
H156 C164 0.930 . S
H157 C165 0.930 . S
H158 C168 0.930 . S
H159 C169 0.930 . S
C160 H154 0.930 . S
C160 C161 1.355 . S
C160 C162 1.415 . S
C161 C160 1.355 . S
C161 C163 1.419 . S
C162 C160 1.415 . S
C162 C167 1.425 . S
C162 C169 1.409 . S
C163 H155 0.930 . S
C163 C161 1.419 . S
C163 C164 1.362 . S
C164 H156 0.930 . S
C164 C163 1.362 . S
C164 C167 1.409 . S
C165 H157 0.930 . S
C165 C166 1.355 . S
C165 C167 1.415 . S
C166 C165 1.355 . S
C166 C168 1.419 . S
C167 C162 1.425 . S
C167 C164 1.409 . S
C167 C165 1.415 . S
C168 H158 0.930 . S
C168 C166 1.419 . S
C168 C169 1.362 . S
C169 H159 0.930 . S
C169 C162 1.409 . S
C169 C168 1.362 . S
H170 C176 0.930 . S
H171 C179 0.930 . S
H172 C180 0.930 . S
H173 C181 0.930 . S
H174 C184 0.930 . S
H175 C185 0.930 . S
C176 H170 0.930 . S
C176 C177 1.355 . S
C176 C178 1.415 . S
C177 C176 1.355 . S
C177 C179 1.419 . S
C178 C176 1.415 . S
C178 C183 1.425 . S
C178 C185 1.409 . S
C179 H171 0.930 . S
C179 C177 1.419 . S
C179 C180 1.362 . S
C180 H172 0.930 . S
C180 C179 1.362 . S
C180 C183 1.409 . S
C181 H173 0.930 . S
C181 C182 1.355 . S
C181 C183 1.415 . S
C182 C181 1.355 . S
C182 C184 1.419 . S
C183 C178 1.425 . S
C183 C180 1.409 . S
C183 C181 1.415 . S
C184 H174 0.930 . S
C184 C182 1.419 . S
C184 C185 1.362 . S
C185 H175 0.930 . S
C185 C178 1.409 . S
C185 C184 1.362 . S
H186 C192 0.930 . S
H187 C195 0.930 . S
H188 C196 0.930 . S
H189 C197 0.930 . S
H190 C200 0.930 . S
H191 C201 0.930 . S
C192 H186 0.930 . S
C192 C193 1.355 . S
C192 C194 1.415 . S
C193 C192 1.355 . S
C193 C195 1.419 . S
C194 C192 1.415 . S
C194 C199 1.425 . S
C194 C201 1.409 . S
C195 H187 0.930 . S
C195 C193 1.419 . S
C195 C196 1.362 . S
C196 H188 0.930 . S
C196 C195 1.362 . S
C196 C199 1.409 . S
C197 H189 0.930 . S
C197 C198 1.355 . S
C197 C199 1.415 . S
C198 C197 1.355 . S
C198 C200 1.419 . S
C199 C194 1.425 . S
C199 C196 1.409 . S
C199 C197 1.415 . S
C200 H190 0.930 . S
C200 C198 1.419 . S
C200 C201 1.362 . S
C201 H191 0.930 . S
C201 C194 1.409 . S
C201 C200 1.362 . S
H202 C208 0.930 . S
H203 C211 0.930 . S
H204 C212 0.930 . S
H205 C213 0.930 . S
H206 C216 0.930 . S
H207 C217 0.930 . S
C208 H202 0.930 . S
C208 C209 1.355 . S
C208 C210 1.415 . S
C209 C208 1.355 . S
C209 C211 1.419 . S
C210 C208 1.415 . S
C210 C215 1.425 . S
C210 C217 1.409 . S
C211 H203 0.930 . S
C211 C209 1.419 . S
C211 C212 1.362 . S
C212 H204 0.930 . S
C212 C211 1.362 . S
C212 C215 1.409 . S
C213 H205 0.930 . S
C213 C214 1.355 . S
C213 C215 1.415 . S
C214 C213 1.355 . S
C214 C216 1.419 . S
C215 C210 1.425 . S
C215 C212 1.409 . S
C215 C213 1.415 . S
C216 H206 0.930 . S
C216 C214 1.419 . S
C216 C217 1.362 . S
C217 H207 0.930 . S
C217 C210 1.409 . S
C217 C216 1.362 . S
H218 C224 0.930 . S
H219 C227 0.930 . S
H220 C228 0.930 . S
H221 C229 0.930 . S
H222 C232 0.930 . S
H223 C233 0.930 . S
C224 H218 0.930 . S
C224 C225 1.355 . S
C224 C226 1.415 . S
C225 C224 1.355 . S
C225 C227 1.419 . S
C226 C224 1.415 . S
C226 C231 1.425 . S
C226 C233 1.409 . S
C227 H219 0.930 . S
C227 C225 1.419 . S
C227 C228 1.362 . S
C228 H220 0.930 . S
C228 C227 1.362 . S
C228 C231 1.409 . S
C229 H221 0.930 . S
C229 C230 1.355 . S
C229 C231 1.415 . S
C230 C229 1.355 . S
C230 C232 1.419 . S
C231 C226 1.425 . S
C231 C228 1.409 . S
C231 C229 1.415 . S
C232 H222 0.930 . S
C232 C230 1.419 . S
C232 C233 1.362 . S
C233 H223 0.930 . S
C233 C226 1.409 . S
C233 C232 1.362 . S
H234 C240 0.930 . S
H235 C243 0.930 . S
H236 C244 0.930 . S
H237 C245 0.930 . S
H238 C248 0.930 . S
H239 C249 0.930 . S
C240 H234 0.930 . S
C240 C241 1.355 . S
C240 C242 1.415 . S
C241 C240 1.355 . S
C241 C243 1.419 . S
C242 C240 1.415 . S
C242 C247 1.425 . S
C242 C249 1.409 . S
C243 H235 0.930 . S
C243 C241 1.419 . S
C243 C244 1.362 . S
C244 H236 0.930 . S
C244 C243 1.362 . S
C244 C247 1.409 . S
C245 H237 0.930 . S
C245 C246 1.355 . S
C245 C247 1.415 . S
C246 C245 1.355 . S
C246 C248 1.419 . S
C247 C242 1.425 . S
C247 C244 1.409 . S
C247 C245 1.415 . S
C248 H238 0.930 . S
C248 C246 1.419 . S
C248 C249 1.362 . S
C249 H239 0.930 . S
C249 C242 1.409 . S
C249 C248 1.362 . S
H250 C256 0.930 . S
H251 C259 0.930 . S
H252 C260 0.930 . S
H253 C261 0.930 . S
H254 C264 0.930 . S
H255 C265 0.930 . S
C256 H250 0.930 . S
C256 C257 1.355 . S
C256 C258 1.415 . S
C257 C256 1.355 . S
C257 C259 1.419 . S
C258 C256 1.415 . S
C258 C263 1.425 . S
C258 C265 1.409 . S
C259 H251 0.930 . S
C259 C257 1.419 . S
C259 C260 1.362 . S
C260 H252 0.930 . S
C260 C259 1.362 . S
C260 C263 1.409 . S
C261 H253 0.930 . S
C261 C262 1.355 . S
C261 C263 1.415 . S
C262 C261 1.355 . S
C262 C264 1.419 . S
C263 C258 1.425 . S
C263 C260 1.409 . S
C263 C261 1.415 . S
C264 H254 0.930 . S
C264 C262 1.419 . S
C264 C265 1.362 . S
C265 H255 0.930 . S
C265 C258 1.409 . S
C265 C264 1.362 . S
H266 C272 0.930 . S
H267 C275 0.930 1_455 S
H268 C276 0.930 . S
H269 C277 0.930 . S
H270 C280 0.930 . S
H271 C281 0.930 . S
C272 H266 0.930 . S
C272 C273 1.355 . S
C272 C274 1.415 . S
C273 C272 1.355 . S
C273 C275 1.419 . S
C274 C272 1.415 . S
C274 C279 1.425 . S
C274 C281 1.409 . S
C275 H267 0.930 1_655 S
C275 C273 1.419 . S
C275 C276 1.362 . S
C276 H268 0.930 . S
C276 C275 1.362 . S
C276 C279 1.409 . S
C277 H269 0.930 . S
C277 C278 1.355 . S
C277 C279 1.415 . S
C278 C277 1.355 . S
C278 C280 1.419 . S
C279 C274 1.425 . S
C279 C276 1.409 . S
C279 C277 1.415 . S
C280 H270 0.930 . S
C280 C278 1.419 . S
C280 C281 1.362 . S
C281 H271 0.930 . S
C281 C274 1.409 . S
C281 C280 1.362 . S
H282 C288 0.930 . S
H283 C291 0.930 . S
H284 C292 0.930 . S
H285 C293 0.930 . S
H286 C296 0.930 . S
H287 C297 0.930 . S
C288 H282 0.930 . S
C288 C289 1.355 . S
C288 C290 1.415 . S
C289 C288 1.355 . S
C289 C291 1.419 . S
C290 C288 1.415 . S
C290 C295 1.425 . S
C290 C297 1.409 . S
C291 H283 0.930 . S
C291 C289 1.419 . S
C291 C292 1.362 . S
C292 H284 0.930 . S
C292 C291 1.362 . S
C292 C295 1.409 . S
C293 H285 0.930 . S
C293 C294 1.355 . S
C293 C295 1.415 . S
C294 C293 1.355 . S
C294 C296 1.419 . S
C295 C290 1.425 . S
C295 C292 1.409 . S
C295 C293 1.415 . S
C296 H286 0.930 . S
C296 C294 1.419 . S
C296 C297 1.362 . S
C297 H287 0.930 . S
C297 C290 1.409 . S
C297 C296 1.362 . S
H298 C304 0.930 . S
H299 C307 0.930 . S
H300 C308 0.930 . S
H301 C309 0.930 . S
H302 C312 0.930 . S
H303 C313 0.930 . S
C304 H298 0.930 . S
C304 C305 1.355 . S
C304 C306 1.415 . S
C305 C304 1.355 . S
C305 C307 1.419 . S
C306 C304 1.415 . S
C306 C311 1.425 . S
C306 C313 1.409 . S
C307 H299 0.930 . S
C307 C305 1.419 . S
C307 C308 1.362 . S
C308 H300 0.930 . S
C308 C307 1.362 . S
C308 C311 1.409 . S
C309 H301 0.930 . S
C309 C310 1.355 . S
C309 C311 1.415 . S
C310 C309 1.355 . S
C310 C312 1.419 . S
C311 C306 1.425 . S
C311 C308 1.409 . S
C311 C309 1.415 . S
C312 H302 0.930 . S
C312 C310 1.419 . S
C312 C313 1.362 . S
C313 H303 0.930 . S
C313 C306 1.409 . S
C313 C312 1.362 . S
C129 C12 1.607 . S
C134 C99 1.549 . S
C145 C69 1.063 . S
C150 C105 0.945 . S
C161 C8 1.112 . S
C166 C96 1.022 . S
C177 C71 1.923 . S
C182 C121 1.768 . S
C193 C17 2.345 . S
C198 C87 2.293 . S
C214 C104 2.090 . S
C209 C42 2.104 . S
C225 C52 1.617 . S
C230 C100 1.463 . S
C246 C117 2.043 . S
C241 C2 2.090 . S
C262 C84 2.303 . S
C257 C57 2.356 . S
C278 C120 1.773 . S
C273 C31 1.958 . S
C294 C83 1.098 . S
C289 C48 1.162 . S
C310 C108 1.085 . S
C305 C29 1.118 . S
