# Generated by pormake.
# Topology ocu, (6,8)-cn, num edge types: 1
# Building blocks:
#     Node 0, Type 0, BuildingBlock: FUNLAD_clean_sbu_0, # of connection points: 6
#     Node 1, Type 0, BuildingBlock: FUNLAD_clean_sbu_0, # of connection points: 6
#     Node 2, Type 0, BuildingBlock: FUNLAD_clean_sbu_0, # of connection points: 6
#     Node 3, Type 0, BuildingBlock: FUNLAD_clean_sbu_0, # of connection points: 6
#     Node 4, Type 0, BuildingBlock: FUNLAD_clean_sbu_0, # of connection points: 6
#     Node 5, Type 0, BuildingBlock: FUNLAD_clean_sbu_0, # of connection points: 6
#     Node 6, Type 0, BuildingBlock: FUNLAD_clean_sbu_0, # of connection points: 6
#     Node 7, Type 0, BuildingBlock: FUNLAD_clean_sbu_0, # of connection points: 6
#     Node 8, Type 1, BuildingBlock: TAGTUT_clean_sbu_1, # of connection points: 8
#     Node 9, Type 1, BuildingBlock: TAGTUT_clean_sbu_1, # of connection points: 8
#     Node 10, Type 1, BuildingBlock: TAGTUT_clean_sbu_1, # of connection points: 8
#     Node 11, Type 1, BuildingBlock: TAGTUT_clean_sbu_1, # of connection points: 8
#     Node 12, Type 1, BuildingBlock: TAGTUT_clean_sbu_1, # of connection points: 8
#     Node 13, Type 1, BuildingBlock: TAGTUT_clean_sbu_1, # of connection points: 8
#     Edge 14, Type (0, 1), BuildingBlock: EZIPEK_clean_linker_0, # of connection points: 2
#     Edge 15, Type (0, 1), BuildingBlock: EZIPEK_clean_linker_0, # of connection points: 2
#     Edge 16, Type (0, 1), BuildingBlock: EZIPEK_clean_linker_0, # of connection points: 2
#     Edge 17, Type (0, 1), BuildingBlock: EZIPEK_clean_linker_0, # of connection points: 2
#     Edge 18, Type (0, 1), BuildingBlock: EZIPEK_clean_linker_0, # of connection points: 2
#     Edge 19, Type (0, 1), BuildingBlock: EZIPEK_clean_linker_0, # of connection points: 2
#     Edge 20, Type (0, 1), BuildingBlock: EZIPEK_clean_linker_0, # of connection points: 2
#     Edge 21, Type (0, 1), BuildingBlock: EZIPEK_clean_linker_0, # of connection points: 2
#     Edge 22, Type (0, 1), BuildingBlock: EZIPEK_clean_linker_0, # of connection points: 2
#     Edge 23, Type (0, 1), BuildingBlock: EZIPEK_clean_linker_0, # of connection points: 2
#     Edge 24, Type (0, 1), BuildingBlock: EZIPEK_clean_linker_0, # of connection points: 2
#     Edge 25, Type (0, 1), BuildingBlock: EZIPEK_clean_linker_0, # of connection points: 2
#     Edge 26, Type (0, 1), BuildingBlock: EZIPEK_clean_linker_0, # of connection points: 2
#     Edge 27, Type (0, 1), BuildingBlock: EZIPEK_clean_linker_0, # of connection points: 2
#     Edge 28, Type (0, 1), BuildingBlock: EZIPEK_clean_linker_0, # of connection points: 2
#     Edge 29, Type (0, 1), BuildingBlock: EZIPEK_clean_linker_0, # of connection points: 2
#     Edge 30, Type (0, 1), BuildingBlock: EZIPEK_clean_linker_0, # of connection points: 2
#     Edge 31, Type (0, 1), BuildingBlock: EZIPEK_clean_linker_0, # of connection points: 2
#     Edge 32, Type (0, 1), BuildingBlock: EZIPEK_clean_linker_0, # of connection points: 2
#     Edge 33, Type (0, 1), BuildingBlock: EZIPEK_clean_linker_0, # of connection points: 2
#     Edge 34, Type (0, 1), BuildingBlock: EZIPEK_clean_linker_0, # of connection points: 2
#     Edge 35, Type (0, 1), BuildingBlock: EZIPEK_clean_linker_0, # of connection points: 2
#     Edge 36, Type (0, 1), BuildingBlock: EZIPEK_clean_linker_0, # of connection points: 2
#     Edge 37, Type (0, 1), BuildingBlock: EZIPEK_clean_linker_0, # of connection points: 2
#     Edge 38, Type (0, 1), BuildingBlock: EZIPEK_clean_linker_0, # of connection points: 2
#     Edge 39, Type (0, 1), BuildingBlock: EZIPEK_clean_linker_0, # of connection points: 2
#     Edge 40, Type (0, 1), BuildingBlock: EZIPEK_clean_linker_0, # of connection points: 2
#     Edge 41, Type (0, 1), BuildingBlock: EZIPEK_clean_linker_0, # of connection points: 2
#     Edge 42, Type (0, 1), BuildingBlock: EZIPEK_clean_linker_0, # of connection points: 2
#     Edge 43, Type (0, 1), BuildingBlock: EZIPEK_clean_linker_0, # of connection points: 2
#     Edge 44, Type (0, 1), BuildingBlock: EZIPEK_clean_linker_0, # of connection points: 2
#     Edge 45, Type (0, 1), BuildingBlock: EZIPEK_clean_linker_0, # of connection points: 2
#     Edge 46, Type (0, 1), BuildingBlock: EZIPEK_clean_linker_0, # of connection points: 2
#     Edge 47, Type (0, 1), BuildingBlock: EZIPEK_clean_linker_0, # of connection points: 2
#     Edge 48, Type (0, 1), BuildingBlock: EZIPEK_clean_linker_0, # of connection points: 2
#     Edge 49, Type (0, 1), BuildingBlock: EZIPEK_clean_linker_0, # of connection points: 2
#     Edge 50, Type (0, 1), BuildingBlock: EZIPEK_clean_linker_0, # of connection points: 2
#     Edge 51, Type (0, 1), BuildingBlock: EZIPEK_clean_linker_0, # of connection points: 2
#     Edge 52, Type (0, 1), BuildingBlock: EZIPEK_clean_linker_0, # of connection points: 2
#     Edge 53, Type (0, 1), BuildingBlock: EZIPEK_clean_linker_0, # of connection points: 2
#     Edge 54, Type (0, 1), BuildingBlock: EZIPEK_clean_linker_0, # of connection points: 2
#     Edge 55, Type (0, 1), BuildingBlock: EZIPEK_clean_linker_0, # of connection points: 2
#     Edge 56, Type (0, 1), BuildingBlock: EZIPEK_clean_linker_0, # of connection points: 2
#     Edge 57, Type (0, 1), BuildingBlock: EZIPEK_clean_linker_0, # of connection points: 2
#     Edge 58, Type (0, 1), BuildingBlock: EZIPEK_clean_linker_0, # of connection points: 2
#     Edge 59, Type (0, 1), BuildingBlock: EZIPEK_clean_linker_0, # of connection points: 2
#     Edge 60, Type (0, 1), BuildingBlock: EZIPEK_clean_linker_0, # of connection points: 2
#     Edge 61, Type (0, 1), BuildingBlock: EZIPEK_clean_linker_0, # of connection points: 2
# Relax obj value: 0.234
# Max RMSD: 0.262
# Mean RMSD: 0.206
data_MOF--net-ocu--node1-FUNLAD_clean_sbu_0--node2-TAGTUT_clean_sbu_1--edge1-EZIPEK_clean_linker_0
_symmetry_space_group_name_H-M    P1
_symmetry_Int_Tables_number       1
_symmetry_cell_setting            triclinic
loop_
_symmetry_equiv_pos_as_xyz
'x, y, z'
_cell_length_a     29.935913
_cell_length_b     28.374325
_cell_length_c     31.367728
_cell_angle_alpha  82.212951
_cell_angle_beta   85.498285
_cell_angle_gamma 91.529591
loop_
_atom_site_label
_atom_site_type_symbol
_atom_site_fract_x
_atom_site_fract_y
_atom_site_fract_z
_atom_type_partial_charge
C0 C 0.21275 0.27102 0.32651 0.0
N1 N 0.18647 0.17057 0.24682 0.0
C2 C 0.1577 0.17482 0.21499 0.0
C3 C 0.11697 0.14872 0.22082 0.0
C4 C 0.10728 0.11739 0.25901 0.0
C5 C 0.14034 0.10935 0.28836 0.0
C6 C 0.17946 0.13707 0.28202 0.0
Zn7 Zn 0.234 0.22115 0.24968 0.0
C8 C 0.20608 0.3145 0.20608 0.0
N9 N 0.32917 0.33105 0.25945 0.0
C10 C 0.3592 0.32311 0.29004 0.0
C11 C 0.33708 0.36597 0.22538 0.0
C12 C 0.37884 0.38882 0.21741 0.0
C13 C 0.41332 0.37322 0.2432 0.0
C14 C 0.40266 0.34294 0.28176 0.0
Zn15 Zn 0.28077 0.28052 0.25517 0.0
O16 O 0.20322 0.23423 0.30966 0.0
C17 C 0.30921 0.18717 0.29814 0.0
O18 O 0.24514 0.29876 0.30957 0.0
H19 H 0.31327 0.37256 0.20144 0.0
H20 H 0.16447 0.20115 0.18675 0.0
H21 H 0.35152 0.29744 0.31855 0.0
O22 O 0.27566 0.17028 0.28228 0.0
O23 O 0.31675 0.23158 0.29315 0.0
H24 H 0.20207 0.13469 0.30732 0.0
O25 O 0.31732 0.26 0.19897 0.0
O26 O 0.26363 0.20845 0.19104 0.0
O27 O 0.24307 0.32938 0.21728 0.0
O28 O 0.19349 0.27139 0.21728 0.0
C29 C 0.3016 0.2283 0.17849 0.0
H30 H 0.09226 0.1554 0.19751 0.0
H31 H 0.13419 0.08556 0.3184 0.0
H32 H 0.3858 0.41288 0.18759 0.0
H33 H 0.42839 0.3311 0.30274 0.0
C34 C 0.68202 0.30453 0.20266 0.0
N35 N 0.74783 0.18107 0.18374 0.0
C36 C 0.7037 0.17009 0.18092 0.0
C37 C 0.69024 0.14241 0.15111 0.0
C38 C 0.72212 0.12455 0.12344 0.0
C39 C 0.76792 0.13454 0.12704 0.0
C40 C 0.7802 0.16367 0.15766 0.0
Zn41 Zn 0.75311 0.22902 0.2274 0.0
C42 C 0.81553 0.31209 0.20106 0.0
N43 N 0.73834 0.32599 0.31807 0.0
C44 C 0.74269 0.30577 0.35935 0.0
C45 C 0.74788 0.37317 0.30522 0.0
C46 C 0.76878 0.40023 0.33257 0.0
C47 C 0.78078 0.37753 0.37244 0.0
C48 C 0.76457 0.33097 0.38715 0.0
Zn49 Zn 0.7377 0.2802 0.27346 0.0
O50 O 0.70297 0.2684 0.19349 0.0
C51 C 0.67709 0.19681 0.30106 0.0
O52 O 0.68976 0.3209 0.23729 0.0
H53 H 0.74409 0.38842 0.27227 0.0
H54 H 0.67797 0.18402 0.20096 0.0
H55 H 0.73451 0.2683 0.36899 0.0
O56 O 0.70231 0.18455 0.27023 0.0
O57 O 0.68288 0.23839 0.31095 0.0
H58 H 0.81513 0.173 0.15993 0.0
O59 O 0.78511 0.23854 0.30918 0.0
O60 O 0.80444 0.19151 0.26154 0.0
O61 O 0.79428 0.32163 0.23563 0.0
O62 O 0.80432 0.27367 0.18691 0.0
C63 C 0.80894 0.20501 0.29822 0.0
H64 H 0.65466 0.13566 0.14919 0.0
H65 H 0.79345 0.12101 0.106 0.0
H66 H 0.78058 0.43638 0.3206 0.0
H67 H 0.77289 0.31268 0.41797 0.0
C68 C 0.81263 0.69921 0.29469 0.0
N69 N 0.80671 0.84528 0.26215 0.0
C70 C 0.78052 0.87542 0.28258 0.0
C71 C 0.79641 0.89692 0.31639 0.0
C72 C 0.83961 0.8874 0.32875 0.0
C73 C 0.8676 0.861 0.30373 0.0
C74 C 0.85052 0.84055 0.27005 0.0
Zn75 Zn 0.77521 0.7876 0.24218 0.0
C76 C 0.81557 0.74383 0.17318 0.0
N77 N 0.70505 0.66197 0.21979 0.0
C78 C 0.6897 0.61799 0.23936 0.0
C79 C 0.70139 0.67487 0.1767 0.0
C80 C 0.68069 0.64546 0.15215 0.0
C81 C 0.66332 0.60109 0.17115 0.0
C82 C 0.66867 0.58639 0.21523 0.0
Zn83 Zn 0.73738 0.71808 0.24351 0.0
O84 O 0.81475 0.74399 0.28406 0.0
C85 C 0.69673 0.7593 0.31243 0.0
O86 O 0.78179 0.67472 0.28081 0.0
H87 H 0.71447 0.70864 0.16037 0.0
H88 H 0.74573 0.87878 0.276 0.0
H89 H 0.69333 0.60758 0.27335 0.0
O90 O 0.72678 0.78943 0.29451 0.0
O91 O 0.69147 0.71964 0.29828 0.0
H92 H 0.87083 0.81667 0.25349 0.0
O93 O 0.69422 0.76409 0.20759 0.0
O94 O 0.73377 0.83121 0.20118 0.0
O95 O 0.78355 0.71677 0.19107 0.0
O96 O 0.82432 0.78247 0.188 0.0
C97 C 0.69896 0.80808 0.19349 0.0
H98 H 0.77447 0.91838 0.33427 0.0
H99 H 0.90163 0.85422 0.31166 0.0
H100 H 0.67741 0.65795 0.11833 0.0
H101 H 0.6556 0.55186 0.23086 0.0
C102 C 0.19377 0.81858 0.28203 0.0
N103 N 0.30681 0.75815 0.3249 0.0
C104 C 0.30968 0.80552 0.32766 0.0
C105 C 0.32443 0.82147 0.36353 0.0
C106 C 0.33861 0.78877 0.39635 0.0
C107 C 0.3358 0.73983 0.39366 0.0
C108 C 0.31881 0.72497 0.35711 0.0
Zn109 Zn 0.27377 0.74696 0.27428 0.0
C110 C 0.19457 0.68301 0.30135 0.0
N111 N 0.19266 0.74969 0.1749 0.0
C112 C 0.1815 0.78036 0.14039 0.0
C113 C 0.18868 0.70176 0.1756 0.0
C114 C 0.17509 0.68259 0.14095 0.0
C115 C 0.16181 0.71254 0.10584 0.0
C116 C 0.16464 0.76215 0.10513 0.0
Zn117 Zn 0.22677 0.76275 0.22502 0.0
O118 O 0.22596 0.79542 0.29714 0.0
C119 C 0.30734 0.82575 0.19882 0.0
O120 O 0.18301 0.81417 0.2444 0.0
H121 H 0.19842 0.67749 0.20225 0.0
H122 H 0.29918 0.8316 0.30249 0.0
H123 H 0.18602 0.81836 0.14009 0.0
O124 O 0.31585 0.80345 0.23497 0.0
O125 O 0.26956 0.81737 0.18463 0.0
H126 H 0.31505 0.68747 0.3545 0.0
O127 O 0.27123 0.7121 0.20427 0.0
O128 O 0.32061 0.69881 0.25146 0.0
O129 O 0.18331 0.70828 0.26747 0.0
O130 O 0.23379 0.68959 0.3129 0.0
C131 C 0.3064 0.69212 0.21553 0.0
H132 H 0.3269 0.85949 0.36474 0.0
H133 H 0.34749 0.71409 0.41866 0.0
H134 H 0.17276 0.64415 0.14248 0.0
H135 H 0.15369 0.7859 0.07828 0.0
C136 C 0.19819 0.81217 0.70428 0.0
N137 N 0.24554 0.67873 0.68435 0.0
C138 C 0.20152 0.67713 0.67649 0.0
C139 C 0.18635 0.65016 0.64674 0.0
C140 C 0.21645 0.62387 0.62439 0.0
C141 C 0.26196 0.62522 0.63257 0.0
C142 C 0.27602 0.65345 0.66308 0.0
Zn143 Zn 0.25647 0.72344 0.72932 0.0
C144 C 0.32673 0.79967 0.70263 0.0
N145 N 0.25918 0.82007 0.82094 0.0
C146 C 0.22799 0.84466 0.84208 0.0
C147 C 0.30298 0.82187 0.82965 0.0
C148 C 0.31715 0.84863 0.86007 0.0
C149 C 0.2863 0.87453 0.88206 0.0
C150 C 0.24103 0.87265 0.87315 0.0
Zn151 Zn 0.24913 0.77648 0.77488 0.0
O152 O 0.21204 0.7721 0.69633 0.0
C153 C 0.17872 0.70033 0.80214 0.0
O154 O 0.20907 0.82733 0.73858 0.0
H155 H 0.32759 0.80246 0.81291 0.0
H156 H 0.17755 0.6972 0.69315 0.0
H157 H 0.1933 0.84271 0.83484 0.0
O158 O 0.20146 0.68492 0.7712 0.0
O159 O 0.18926 0.74188 0.81026 0.0
H160 H 0.31093 0.65522 0.66962 0.0
O161 O 0.28881 0.72497 0.81081 0.0
O162 O 0.30146 0.67642 0.7628 0.0
O163 O 0.30839 0.8104 0.73783 0.0
O164 O 0.31195 0.76233 0.68892 0.0
C165 C 0.30694 0.68788 0.8 0.0
H166 H 0.15105 0.64981 0.6412 0.0
H167 H 0.28598 0.60498 0.61569 0.0
H168 H 0.3523 0.84945 0.86615 0.0
H169 H 0.21647 0.8926 0.88969 0.0
C170 C 0.31398 0.20326 0.80129 0.0
N171 N 0.3159 0.34482 0.74556 0.0
C172 C 0.2924 0.38139 0.75894 0.0
C173 C 0.30702 0.40435 0.79225 0.0
C174 C 0.3461 0.38942 0.81094 0.0
C175 C 0.37348 0.35783 0.79134 0.0
C176 C 0.35803 0.33655 0.75746 0.0
Zn177 Zn 0.27739 0.28575 0.73988 0.0
C178 C 0.30815 0.22501 0.67812 0.0
N179 N 0.19675 0.1589 0.74682 0.0
C180 C 0.21794 0.11952 0.73641 0.0
C181 C 0.15512 0.16835 0.73418 0.0
C182 C 0.1378 0.14426 0.70288 0.0
C183 C 0.16206 0.10792 0.68663 0.0
C184 C 0.20028 0.09245 0.70695 0.0
Zn185 Zn 0.23552 0.21821 0.7538 0.0
O186 O 0.31924 0.24527 0.78158 0.0
C187 C 0.20397 0.27692 0.81682 0.0
O188 O 0.2785 0.17892 0.79716 0.0
H189 H 0.13801 0.19883 0.7437 0.0
H190 H 0.25896 0.38749 0.74917 0.0
H191 H 0.25105 0.11236 0.74667 0.0
O192 O 0.23566 0.3019 0.79465 0.0
O193 O 0.19375 0.23598 0.80735 0.0
H194 H 0.37655 0.30798 0.74583 0.0
O195 O 0.19432 0.2605 0.70968 0.0
O196 O 0.23596 0.32634 0.69831 0.0
O197 O 0.27715 0.20075 0.70166 0.0
O198 O 0.31795 0.26714 0.68525 0.0
C199 C 0.20047 0.30362 0.69235 0.0
H200 H 0.28592 0.42974 0.80612 0.0
H201 H 0.40464 0.34691 0.80436 0.0
H202 H 0.10701 0.15594 0.68951 0.0
H203 H 0.21838 0.0625 0.69744 0.0
C204 C 0.68966 0.31351 0.76723 0.0
N205 N 0.79982 0.26986 0.82812 0.0
C206 C 0.79759 0.31783 0.82696 0.0
C207 C 0.81027 0.33963 0.86083 0.0
C208 C 0.82877 0.31247 0.89491 0.0
C209 C 0.83073 0.26292 0.89633 0.0
C210 C 0.81499 0.24185 0.86228 0.0
Zn211 Zn 0.77399 0.24779 0.77714 0.0
C212 C 0.69759 0.18167 0.80251 0.0
N213 N 0.70556 0.22935 0.67179 0.0
C214 C 0.68603 0.25402 0.63835 0.0
C215 C 0.70891 0.18137 0.67531 0.0
C216 C 0.69558 0.15643 0.64388 0.0
C217 C 0.67362 0.17978 0.61022 0.0
C218 C 0.66855 0.22932 0.60715 0.0
Zn219 Zn 0.73374 0.25329 0.72137 0.0
O220 O 0.72122 0.29537 0.78768 0.0
C221 C 0.8108 0.31858 0.69625 0.0
O222 O 0.68395 0.30299 0.72995 0.0
H223 H 0.7217 0.16163 0.70299 0.0
H224 H 0.78639 0.33984 0.79933 0.0
H225 H 0.6833 0.29217 0.63639 0.0
O226 O 0.81625 0.30208 0.73522 0.0
O227 O 0.77608 0.3051 0.67942 0.0
H228 H 0.81591 0.20374 0.8625 0.0
O229 O 0.78518 0.20502 0.71207 0.0
O230 O 0.82534 0.19883 0.76758 0.0
O231 O 0.69026 0.20057 0.76469 0.0
O232 O 0.73371 0.19344 0.81782 0.0
C233 C 0.81774 0.18728 0.73107 0.0
H234 H 0.80942 0.37807 0.85864 0.0
H235 H 0.8459 0.2415 0.92219 0.0
H236 H 0.69935 0.11826 0.64766 0.0
H237 H 0.6512 0.24822 0.58142 0.0
C238 C 0.70923 0.77786 0.82156 0.0
N239 N 0.67738 0.66429 0.75608 0.0
C240 C 0.66684 0.6365 0.79441 0.0
C241 C 0.62712 0.6097 0.80112 0.0
C242 C 0.59686 0.61341 0.76889 0.0
C243 C 0.60961 0.63933 0.72853 0.0
C244 C 0.65109 0.66404 0.72244 0.0
Zn245 Zn 0.72736 0.71372 0.75438 0.0
C246 C 0.70417 0.80268 0.69982 0.0
N247 N 0.82708 0.82215 0.74895 0.0
C248 C 0.85481 0.82213 0.78151 0.0
C249 C 0.83563 0.85095 0.71091 0.0
C250 C 0.87436 0.87915 0.70337 0.0
C251 C 0.90567 0.87646 0.73463 0.0
C252 C 0.89526 0.84883 0.77468 0.0
Zn253 Zn 0.77708 0.77288 0.75113 0.0
O254 O 0.69295 0.74226 0.8066 0.0
C255 C 0.80126 0.68447 0.80506 0.0
O256 O 0.74664 0.79691 0.80551 0.0
H257 H 0.81395 0.85 0.68518 0.0
H258 H 0.68745 0.63766 0.82101 0.0
H259 H 0.84697 0.79941 0.81186 0.0
O260 O 0.76326 0.66805 0.79777 0.0
O261 O 0.8141 0.72623 0.78875 0.0
H262 H 0.66064 0.68554 0.69178 0.0
O263 O 0.80824 0.74852 0.69568 0.0
O264 O 0.76121 0.68653 0.70292 0.0
O265 O 0.7391 0.82007 0.7129 0.0
O266 O 0.69282 0.75934 0.7114 0.0
C267 C 0.79505 0.71009 0.68333 0.0
H268 H 0.61835 0.58967 0.83271 0.0
H269 H 0.58698 0.64247 0.70308 0.0
H270 H 0.88115 0.90032 0.67204 0.0
H271 H 0.91874 0.84639 0.79938 0.0
C272 C 0.89768 0.11765 0.58444 0.0
C273 C 0.91136 0.1227 0.43975 0.0
C274 C 0.93264 0.93416 0.47286 0.0
Mg275 Mg 0.97642 0.12547 0.51253 0.0
O276 O 0.96578 0.05935 0.52493 0.0
Mg277 Mg 0.90582 0.0289 0.5225 0.0
Mg278 Mg 0.00429 0.01285 0.5004 0.0
O279 O 0.04335 0.96608 0.47708 0.0
Mg280 Mg 0.03225 0.90128 0.49384 0.0
Mg281 Mg 0.10395 0.99563 0.48136 0.0
C282 C 0.07443 0.08842 0.5341 0.0
C283 C 0.04967 0.05794 0.40809 0.0
O284 O 0.88332 0.07924 0.57171 0.0
O285 O 0.93083 0.14289 0.56424 0.0
O286 O 0.89302 0.08477 0.46218 0.0
O287 O 0.94688 0.14261 0.45082 0.0
O288 O 0.04702 0.12281 0.53058 0.0
O289 O 0.0658 0.04917 0.51991 0.0
C290 C 0.9596 0.96258 0.59199 0.0
O291 O 0.99514 0.96955 0.56653 0.0
O292 O 0.92188 0.97818 0.58127 0.0
O293 O 0.13246 0.93907 0.43939 0.0
O294 O 0.07524 0.88606 0.44011 0.0
O295 O 0.11635 0.94599 0.54417 0.0
C296 C 0.1138 0.90393 0.4246 0.0
O297 O 0.06599 0.88483 0.55405 0.0
O298 O 0.96025 0.90049 0.48052 0.0
C299 C 0.09925 0.90759 0.56626 0.0
O300 O 0.94192 0.97687 0.47975 0.0
O301 O 0.01435 0.05492 0.43399 0.0
O302 O 0.08694 0.04109 0.41933 0.0
C303 C 0.4056 0.14218 0.04963 0.0
C304 C 0.4391 0.12691 0.9194 0.0
C305 C 0.42454 0.93878 0.96878 0.0
Mg306 Mg 0.49411 0.11992 7e-05 0.0
O307 O 0.46943 0.05794 0.02065 0.0
Mg308 Mg 0.40821 0.0414 0.00283 0.0
Mg309 Mg 0.50316 0.00448 0.00061 0.0
O310 O 0.53776 0.9517 0.97997 0.0
Mg311 Mg 0.51609 0.88864 0.99778 0.0
Mg312 Mg 0.59957 0.96962 0.99574 0.0
C313 C 0.5835 0.06877 0.03298 0.0
C314 C 0.57701 0.05307 0.91962 0.0
O315 O 0.3866 0.10435 0.0395 0.0
O316 O 0.44687 0.1545 0.03899 0.0
O317 O 0.41439 0.09333 0.94074 0.0
O318 O 0.47527 0.14138 0.93357 0.0
O319 O 0.56308 0.1076 0.02217 0.0
O320 O 0.56568 0.02782 0.03029 0.0
C321 C 0.42667 0.95763 0.08037 0.0
O322 O 0.46796 0.9563 0.06472 0.0
O323 O 0.40035 0.98793 0.06307 0.0
O324 O 0.62386 0.90867 0.95833 0.0
O325 O 0.56405 0.85937 0.95472 0.0
O326 O 0.59519 0.91754 0.05728 0.0
C327 C 0.60542 0.87234 0.94518 0.0
O328 O 0.53671 0.86624 0.06333 0.0
O329 O 0.44639 0.90072 0.97887 0.0
C330 C 0.57166 0.88277 0.07813 0.0
O331 O 0.44137 0.98058 0.97051 0.0
O332 O 0.53644 0.05301 0.93705 0.0
O333 O 0.60506 0.02357 0.935 0.0
C334 C 0.89195 0.63141 0.04945 0.0
C335 C 0.92091 0.59879 0.92229 0.0
C336 C 0.93529 0.42233 0.98642 0.0
Mg337 Mg 0.97684 0.61016 0.9942 0.0
O338 O 0.96361 0.55064 0.02739 0.0
Mg339 Mg 0.90377 0.52425 0.01454 0.0
Mg340 Mg 0.00446 0.503 0.00564 0.0
O341 O 0.04499 0.45592 0.98243 0.0
Mg342 Mg 0.03466 0.39191 0.00702 0.0
Mg343 Mg 0.10536 0.48412 0.9904 0.0
C344 C 0.07427 0.58389 0.02164 0.0
C345 C 0.06753 0.56143 0.9182 0.0
O346 O 0.87598 0.58876 0.04831 0.0
O347 O 0.92955 0.64726 0.02993 0.0
O348 O 0.89821 0.56965 0.95047 0.0
O349 O 0.95926 0.61473 0.92894 0.0
O350 O 0.04536 0.61342 0.00808 0.0
O351 O 0.06605 0.53868 0.02858 0.0
C352 C 0.93686 0.44854 0.09114 0.0
O353 O 0.97742 0.45123 0.07239 0.0
O354 O 0.90675 0.47565 0.07622 0.0
O355 O 0.13368 0.42326 0.95084 0.0
O356 O 0.08102 0.36333 0.96246 0.0
O357 O 0.11268 0.43669 0.05288 0.0
C358 C 0.11859 0.38171 0.9447 0.0
O359 O 0.06088 0.37826 0.0696 0.0
O360 O 0.96375 0.39054 0.99696 0.0
C361 C 0.09554 0.40098 0.07824 0.0
O362 O 0.94472 0.46725 0.98222 0.0
O363 O 0.02857 0.55582 0.93964 0.0
O364 O 0.09983 0.53553 0.9296 0.0
C365 C 0.39157 0.59333 0.08334 0.0
C366 C 0.39757 0.58933 0.94376 0.0
C367 C 0.42322 0.41549 0.96548 0.0
Mg368 Mg 0.46936 0.59405 0.0097 0.0
O369 O 0.45962 0.52976 0.03187 0.0
Mg370 Mg 0.39842 0.50049 0.02929 0.0
Mg371 Mg 0.49642 0.48567 0.00149 0.0
O372 O 0.53245 0.44233 0.97038 0.0
Mg373 Mg 0.5201 0.37701 0.98193 0.0
Mg374 Mg 0.59318 0.46961 0.97565 0.0
C375 C 0.56776 0.56141 0.02901 0.0
C376 C 0.53756 0.54081 0.91138 0.0
O377 O 0.37561 0.55306 0.07584 0.0
O378 O 0.42558 0.61557 0.0613 0.0
O379 O 0.37862 0.55523 0.97067 0.0
O380 O 0.43662 0.60557 0.94949 0.0
O381 O 0.54302 0.5963 0.0162 0.0
O382 O 0.55859 0.5188 0.02215 0.0
C383 C 0.45932 0.42977 0.09175 0.0
O384 O 0.49171 0.4361 0.06278 0.0
O385 O 0.42157 0.44939 0.08685 0.0
O386 O 0.61931 0.41843 0.92684 0.0
O387 O 0.56264 0.36522 0.92681 0.0
O388 O 0.60421 0.41415 0.03497 0.0
C389 C 0.60027 0.38459 0.91049 0.0
O390 O 0.54831 0.35874 0.04469 0.0
O391 O 0.45 0.38087 0.9654 0.0
C392 C 0.58363 0.3776 0.05721 0.0
O393 O 0.4328 0.45189 0.98348 0.0
O394 O 0.50381 0.5354 0.93913 0.0
O395 O 0.57496 0.52155 0.91845 0.0
C396 C 0.89819 0.62224 0.55596 0.0
C397 C 0.92692 0.61467 0.42432 0.0
C398 C 0.92901 0.42679 0.46581 0.0
Mg399 Mg 0.98701 0.61083 0.50157 0.0
O400 O 0.96806 0.54663 0.51963 0.0
Mg401 Mg 0.90729 0.52517 0.5049 0.0
Mg402 Mg 0.00458 0.49612 0.49781 0.0
O403 O 0.04112 0.44566 0.47592 0.0
Mg404 Mg 0.02014 0.38313 0.49822 0.0
Mg405 Mg 0.10153 0.46596 0.49283 0.0
C406 C 0.08027 0.56469 0.53059 0.0
C407 C 0.07697 0.54853 0.41685 0.0
O408 O 0.88102 0.58465 0.54383 0.0
O409 O 0.9388 0.63737 0.5455 0.0
O410 O 0.90849 0.57636 0.44432 0.0
O411 O 0.96082 0.63461 0.43824 0.0
O412 O 0.05754 0.60223 0.5208 0.0
O413 O 0.06504 0.52282 0.52727 0.0
C414 C 0.93326 0.44391 0.57977 0.0
O415 O 0.97366 0.44485 0.56161 0.0
O416 O 0.90453 0.47267 0.56501 0.0
O417 O 0.12767 0.40521 0.45602 0.0
O418 O 0.07012 0.35076 0.46111 0.0
O419 O 0.09757 0.41375 0.55435 0.0
C420 C 0.11027 0.36567 0.448 0.0
O421 O 0.03727 0.36468 0.5647 0.0
O422 O 0.95231 0.38993 0.47538 0.0
C423 C 0.07365 0.38057 0.57722 0.0
O424 O 0.94364 0.46912 0.46848 0.0
O425 O 0.03619 0.54713 0.4343 0.0
O426 O 0.1058 0.51995 0.43224 0.0
C427 C 0.39577 0.11499 0.5553 0.0
C428 C 0.41905 0.09191 0.42159 0.0
C429 C 0.43163 0.90935 0.48585 0.0
Mg430 Mg 0.47842 0.10071 0.49337 0.0
O431 O 0.4667 0.0379 0.52036 0.0
Mg432 Mg 0.40543 0.01183 0.51158 0.0
Mg433 Mg 0.50463 0.98928 0.49662 0.0
O434 O 0.54154 0.93916 0.47384 0.0
Mg435 Mg 0.53042 0.87807 0.50454 0.0
Mg436 Mg 0.60308 0.96466 0.4774 0.0
C437 C 0.57771 0.07002 0.51059 0.0
C438 C 0.5689 0.04119 0.4074 0.0
O439 O 0.37949 0.07372 0.54999 0.0
O440 O 0.43324 0.13242 0.53648 0.0
O441 O 0.39852 0.05941 0.44839 0.0
O442 O 0.45541 0.11178 0.42971 0.0
O443 O 0.54862 0.10176 0.50262 0.0
O444 O 0.56798 0.02502 0.51376 0.0
C445 C 0.44125 0.93489 0.58538 0.0
O446 O 0.4808 0.93811 0.56469 0.0
O447 O 0.41031 0.9617 0.57201 0.0
O448 O 0.6258 0.89832 0.44336 0.0
O449 O 0.56982 0.84233 0.4602 0.0
O450 O 0.61489 0.92448 0.54186 0.0
C451 C 0.60751 0.85726 0.44027 0.0
O452 O 0.56221 0.8682 0.56397 0.0
O453 O 0.45877 0.87884 0.50191 0.0
C454 C 0.59808 0.89067 0.56949 0.0
O455 O 0.44203 0.95409 0.47589 0.0
O456 O 0.53204 0.0435 0.43167 0.0
O457 O 0.5924 0.00465 0.41282 0.0
C458 C 0.05691 0.05178 0.28821 0.0
C459 C 0.06103 0.10073 0.2742 0.0
C460 C 0.03455 0.11844 0.34509 0.0
C461 C 0.04489 0.07128 0.36175 0.0
N462 N 0.05836 0.98995 0.34929 0.0
N463 N 0.0272 0.17485 0.28027 0.0
C464 C 0.05242 0.0364 0.3333 0.0
C465 C 0.03904 0.13164 0.29964 0.0
N466 N 0.06295 0.02146 0.25831 0.0
N467 N 0.0249 0.15117 0.37229 0.0
H468 H 0.03249 0.18412 0.24683 0.0
H469 H 0.00938 0.19906 0.29641 0.0
H470 H 0.02366 0.14285 0.40576 0.0
H471 H 0.02065 0.18704 0.36177 0.0
H472 H 0.05917 0.98459 0.26535 0.0
H473 H 0.06888 0.03471 0.22552 0.0
H474 H 0.06754 0.96399 0.33019 0.0
H475 H 0.05456 0.97719 0.38217 0.0
C476 C 0.84455 0.13301 0.33941 0.0
C477 C 0.84113 0.18317 0.32923 0.0
C478 C 0.88333 0.19408 0.39184 0.0
C479 C 0.88986 0.14429 0.40008 0.0
N480 N 0.88736 0.06893 0.37282 0.0
N481 N 0.87105 0.2609 0.33797 0.0
C482 C 0.87372 0.11457 0.37112 0.0
C483 C 0.86496 0.21347 0.35298 0.0
N484 N 0.81859 0.10252 0.32076 0.0
N485 N 0.89172 0.22288 0.42209 0.0
H486 H 0.86043 0.27608 0.30846 0.0
H487 H 0.89137 0.2837 0.35217 0.0
H488 H 0.90219 0.2103 0.4523 0.0
H489 H 0.88318 0.25849 0.41909 0.0
H490 H 0.81598 0.06599 0.33109 0.0
H491 H 0.79633 0.11365 0.29794 0.0
H492 H 0.87924 0.04701 0.35038 0.0
H493 H 0.91089 0.05504 0.39342 0.0
C494 C 0.84269 0.88367 0.40983 0.0
C495 C 0.85673 0.90555 0.3671 0.0
C496 C 0.91739 0.94892 0.39454 0.0
C497 C 0.9029 0.92842 0.43766 0.0
N498 N 0.84747 0.88297 0.48716 0.0
N499 N 0.90008 0.96659 0.31976 0.0
C500 C 0.86398 0.89798 0.44555 0.0
C501 C 0.8915 0.94098 0.35999 0.0
N502 N 0.81073 0.84755 0.41603 0.0
N503 N 0.95768 0.97333 0.38596 0.0
H504 H 0.88112 0.96202 0.29399 0.0
H505 H 0.92291 0.99542 0.31259 0.0
H506 H 0.97916 0.97863 0.40946 0.0
H507 H 0.97168 0.98487 0.35485 0.0
H508 H 0.80238 0.82662 0.44563 0.0
H509 H 0.79431 0.83641 0.39083 0.0
H510 H 0.81695 0.86423 0.49547 0.0
H511 H 0.86279 0.8928 0.51357 0.0
C512 C 0.18149 0.89195 0.31736 0.0
C513 C 0.16717 0.8455 0.3115 0.0
C514 C 0.12561 0.83568 0.38217 0.0
C515 C 0.13542 0.88412 0.38651 0.0
N516 N 0.16271 0.962 0.34962 0.0
N517 N 0.11472 0.77926 0.33221 0.0
C518 C 0.16059 0.91355 0.35174 0.0
C519 C 0.13518 0.81966 0.34174 0.0
N520 N 0.21547 0.9153 0.29054 0.0
N521 N 0.10981 0.80406 0.41723 0.0
H522 H 0.12133 0.76686 0.3026 0.0
H523 H 0.08819 0.76123 0.35181 0.0
H524 H 0.10916 0.81205 0.44876 0.0
H525 H 0.10264 0.76834 0.41564 0.0
H526 H 0.23076 0.94699 0.29635 0.0
H527 H 0.23007 0.90106 0.26414 0.0
H528 H 0.17725 0.98432 0.32269 0.0
H529 H 0.14554 0.98062 0.37166 0.0
C530 C 0.19091 0.84391 0.62643 0.0
C531 C 0.17403 0.84166 0.6704 0.0
C532 C 0.11131 0.89034 0.64617 0.0
C533 C 0.12422 0.88489 0.60262 0.0
N534 N 0.17393 0.85084 0.5517 0.0
N535 N 0.11409 0.85854 0.72171 0.0
C536 C 0.16327 0.85989 0.59293 0.0
C537 C 0.13319 0.86403 0.6803 0.0
N538 N 0.2344 0.83317 0.61648 0.0
N539 N 0.07928 0.9218 0.6549 0.0
H540 H 0.12842 0.83896 0.74736 0.0
H541 H 0.08216 0.87002 0.72988 0.0
H542 H 0.06365 0.94222 0.63054 0.0
H543 H 0.07138 0.93072 0.68568 0.0
H544 H 0.24952 0.83804 0.58508 0.0
H545 H 0.257 0.82513 0.63983 0.0
H546 H 0.19915 0.82812 0.54386 0.0
H547 H 0.15512 0.86257 0.52595 0.0
C548 C 0.10181 0.06923 0.65145 0.0
C549 C 0.14617 0.08819 0.64824 0.0
C550 C 0.1473 0.09834 0.56864 0.0
C551 C 0.10119 0.0849 0.57238 0.0
N552 N 0.03537 0.05317 0.61904 0.0
N553 N 0.2161 0.10355 0.60388 0.0
C554 C 0.07913 0.06838 0.61388 0.0
C555 C 0.17061 0.09741 0.60686 0.0
N556 N 0.08062 0.05246 0.691 0.0
N557 N 0.16815 0.11442 0.52881 0.0
H558 H 0.23456 0.10475 0.63041 0.0
H559 H 0.23604 0.10311 0.57525 0.0
H560 H 0.15212 0.11418 0.50046 0.0
H561 H 0.20017 0.13048 0.524 0.0
H562 H 0.04762 0.03871 0.69499 0.0
H563 H 0.09694 0.05049 0.71938 0.0
H564 H 0.01493 0.05236 0.59376 0.0
H565 H 0.01493 0.05236 0.59376 0.0
C566 C 0.82158 0.12208 0.68737 0.0
C567 C 0.84553 0.15543 0.70731 0.0
C568 C 0.90908 0.14945 0.65493 0.0
C569 C 0.87993 0.12912 0.62766 0.0
N570 N 0.8044 0.1011 0.61847 0.0
N571 N 0.91385 0.20179 0.70932 0.0
C572 C 0.83511 0.11596 0.64425 0.0
C573 C 0.8901 0.16902 0.6913 0.0
N574 N 0.78463 0.09841 0.70912 0.0
N575 N 0.95459 0.14765 0.64809 0.0
H576 H 0.90182 0.21542 0.73706 0.0
H577 H 0.94454 0.21692 0.69519 0.0
H578 H 0.97023 0.12844 0.62549 0.0
H579 H 0.97643 0.1593 0.66912 0.0
H580 H 0.76719 0.0714 0.6972 0.0
H581 H 0.77466 0.10309 0.74091 0.0
H582 H 0.77104 0.09272 0.62935 0.0
H583 H 0.81048 0.10272 0.58515 0.0
C584 C 0.94985 0.94842 0.71419 0.0
C585 C 0.9504 0.89878 0.72173 0.0
C586 C 0.97669 0.89475 0.64758 0.0
C587 C 0.9635 0.94244 0.6372 0.0
N588 N 0.94214 0.01735 0.66116 0.0
N589 N 0.99067 0.83156 0.70522 0.0
C590 C 0.95285 0.97082 0.67077 0.0
C591 C 0.97482 0.87507 0.69169 0.0
N592 N 0.94156 0.97238 0.74858 0.0
N593 N 0.98597 0.8671 0.61585 0.0
H594 H 0.98618 0.8169 0.73775 0.0
H595 H 0.01088 0.81276 0.68538 0.0
H596 H 0.98383 0.87943 0.58325 0.0
H597 H 0.99237 0.83104 0.62206 0.0
H598 H 0.94232 0.00932 0.74648 0.0
H599 H 0.93709 0.95395 0.77991 0.0
H600 H 0.93061 0.03832 0.68417 0.0
H601 H 0.94296 0.03486 0.62973 0.0
C602 C 0.34602 0.23672 0.10583 0.0
C603 C 0.32999 0.20826 0.1452 0.0
C604 C 0.3724 0.14181 0.12401 0.0
C605 C 0.38159 0.16688 0.08222 0.0
N606 N 0.37655 0.23776 0.03151 0.0
N607 N 0.32238 0.12963 0.18807 0.0
C608 C 0.36855 0.21448 0.07255 0.0
C609 C 0.34128 0.1596 0.15313 0.0
N610 N 0.33968 0.28456 0.10017 0.0
N611 N 0.3956 0.10232 0.13699 0.0
H612 H 0.30148 0.14029 0.21267 0.0
H613 H 0.32584 0.09286 0.19134 0.0
H614 H 0.42054 0.08934 0.11703 0.0
H615 H 0.39397 0.0863 0.16906 0.0
H616 H 0.35451 0.30781 0.07407 0.0
H617 H 0.3222 0.3016 0.1233 0.0
H618 H 0.364 0.27084 0.02129 0.0
H619 H 0.3934 0.22236 0.00682 0.0
C620 C 0.84984 0.39629 0.17703 0.0
C621 C 0.85259 0.34611 0.17753 0.0
C622 C 0.92159 0.3617 0.12757 0.0
C623 C 0.91935 0.41161 0.12886 0.0
N624 N 0.89083 0.47226 0.16897 0.0
N625 N 0.9014 0.28214 0.16422 0.0
C626 C 0.88699 0.42707 0.159 0.0
C627 C 0.89163 0.32907 0.15614 0.0
N628 N 0.8106 0.4156 0.19001 0.0
N629 N 0.95079 0.34508 0.09809 0.0
H630 H 0.88251 0.25785 0.18695 0.0
H631 H 0.93125 0.26874 0.15235 0.0
H632 H 0.97471 0.36695 0.07857 0.0
H633 H 0.94966 0.30994 0.09182 0.0
H634 H 0.80631 0.45221 0.18697 0.0
H635 H 0.78065 0.39576 0.1979 0.0
H636 H 0.87003 0.48461 0.19298 0.0
H637 H 0.91802 0.49515 0.15639 0.0
C638 C 0.66111 0.81112 0.12551 0.0
C639 C 0.66526 0.82928 0.16496 0.0
C640 C 0.59806 0.87577 0.15279 0.0
C641 C 0.59333 0.85565 0.11429 0.0
N642 N 0.61164 0.79302 0.07219 0.0
N643 N 0.63417 0.87329 0.22004 0.0
C644 C 0.62192 0.81943 0.10357 0.0
C645 C 0.63256 0.85998 0.17991 0.0
N646 N 0.69582 0.78798 0.10775 0.0
N647 N 0.56968 0.9102 0.16291 0.0
H648 H 0.65978 0.86344 0.2398 0.0
H649 H 0.60909 0.89176 0.23472 0.0
H650 H 0.54293 0.92009 0.14457 0.0
H651 H 0.57314 0.92955 0.18844 0.0
H652 H 0.69634 0.77761 0.0771 0.0
H653 H 0.72623 0.78402 0.12171 0.0
H654 H 0.6294 0.76347 0.06537 0.0
H655 H 0.58212 0.79723 0.05679 0.0
C656 C 0.09658 0.66635 0.09379 0.0
C657 C 0.13777 0.68846 0.07568 0.0
C658 C 0.14414 0.63115 0.02419 0.0
C659 C 0.10585 0.60606 0.04641 0.0
N660 N 0.05341 0.59218 0.10946 0.0
N661 N 0.2036 0.69063 0.02612 0.0
C662 C 0.08525 0.62088 0.08416 0.0
C663 C 0.16246 0.67063 0.04128 0.0
N664 N 0.06949 0.68828 0.12154 0.0
N665 N 0.16197 0.61775 0.9865 0.0
H666 H 0.21645 0.72096 0.03708 0.0
H667 H 0.22529 0.67621 0.00413 0.0
H668 H 0.15011 0.58729 0.97507 0.0
H669 H 0.18714 0.63739 0.96636 0.0
H670 H 0.03747 0.67508 0.13354 0.0
H671 H 0.07758 0.72213 0.12889 0.0
H672 H 0.03922 0.60017 0.13893 0.0
H673 H 0.04473 0.5582 0.10287 0.0
C674 C 0.32915 0.94582 0.89451 0.0
C675 C 0.30435 0.90405 0.91276 0.0
C676 C 0.34733 0.89975 0.97629 0.0
C677 C 0.37928 0.93351 0.95286 0.0
N678 N 0.40147 0.98659 0.88676 0.0
N679 N 0.2863 0.84261 0.97256 0.0
C680 C 0.36989 0.95722 0.91171 0.0
C681 C 0.31168 0.8821 0.95471 0.0
N682 N 0.31485 0.97281 0.85915 0.0
N683 N 0.35128 0.88466 0.01895 0.0
H684 H 0.25891 0.83053 0.95785 0.0
H685 H 0.29331 0.82117 0.00071 0.0
H686 H 0.37656 0.89809 0.03538 0.0
H687 H 0.32738 0.86279 0.03874 0.0
H688 H 0.3295 0.00591 0.84617 0.0
H689 H 0.28533 0.96393 0.8459 0.0
H690 H 0.39817 0.99878 0.85438 0.0
H691 H 0.43277 0.99509 0.89648 0.0
C692 C 0.18914 0.28915 0.8948 0.0
C693 C 0.17803 0.29808 0.85143 0.0
C694 C 0.13255 0.36467 0.86871 0.0
C695 C 0.14236 0.35513 0.9125 0.0
N696 N 0.17147 0.3015 0.96922 0.0
N697 N 0.12821 0.33338 0.80097 0.0
C698 C 0.16828 0.31536 0.92618 0.0
C699 C 0.14657 0.33276 0.83949 0.0
N700 N 0.21966 0.25568 0.9059 0.0
N701 N 0.10995 0.40437 0.85485 0.0
H702 H 0.13666 0.30908 0.77974 0.0
H703 H 0.10134 0.35422 0.79238 0.0
H704 H 0.09834 0.42822 0.87537 0.0
H705 H 0.10601 0.41568 0.8224 0.0
H706 H 0.23375 0.25156 0.93543 0.0
H707 H 0.23224 0.23315 0.88456 0.0
H708 H 0.18629 0.27035 0.98159 0.0
H709 H 0.15584 0.31918 0.99292 0.0
C710 C 0.64229 0.16487 0.86846 0.0
C711 C 0.662 0.15021 0.82987 0.0
C712 C 0.61403 0.07638 0.84441 0.0
C713 C 0.59559 0.09063 0.88352 0.0
N714 N 0.58258 0.15377 0.92618 0.0
N715 N 0.66375 0.09407 0.77859 0.0
C716 C 0.60652 0.1368 0.8931 0.0
C717 C 0.64643 0.10683 0.81678 0.0
N718 N 0.65841 0.2052 0.88234 0.0
N719 N 0.60115 0.03282 0.83458 0.0
H720 H 0.69082 0.1124 0.7603 0.0
H721 H 0.65119 0.066 0.76438 0.0
H722 H 0.57545 0.01179 0.85287 0.0
H723 H 0.61558 0.01713 0.80902 0.0
H724 H 0.65129 0.21325 0.9135 0.0
H725 H 0.68077 0.22987 0.86362 0.0
H726 H 0.58695 0.18767 0.93459 0.0
H727 H 0.55601 0.1343 0.94395 0.0
C728 C 0.8424 0.68303 0.86985 0.0
C729 C 0.82933 0.65882 0.83602 0.0
C730 C 0.88058 0.59545 0.85618 0.0
C731 C 0.89663 0.62242 0.88713 0.0
N732 N 0.89902 0.69643 0.91767 0.0
N733 N 0.83768 0.59406 0.79381 0.0
C734 C 0.87978 0.66781 0.89188 0.0
C735 C 0.84871 0.61538 0.82829 0.0
N736 N 0.81752 0.71933 0.88237 0.0
N737 N 0.8955 0.55067 0.85402 0.0
H738 H 0.81322 0.60673 0.77376 0.0
H739 H 0.85443 0.56539 0.78357 0.0
H740 H 0.92117 0.53668 0.87197 0.0
H741 H 0.88139 0.52682 0.83595 0.0
H742 H 0.82256 0.7349 0.90992 0.0
H743 H 0.7886 0.73035 0.86801 0.0
H744 H 0.89109 0.73193 0.91792 0.0
H745 H 0.92557 0.68668 0.93606 0.0
C746 C 0.19778 0.3588 0.13332 0.0
C747 C 0.17951 0.34479 0.17631 0.0
C748 C 0.10581 0.3726 0.15651 0.0
C749 C 0.12307 0.38046 0.11267 0.0
N750 N 0.18325 0.3712 0.05841 0.0
N751 N 0.11671 0.33794 0.22997 0.0
C752 C 0.1685 0.37117 0.10085 0.0
C753 C 0.13356 0.3516 0.18825 0.0
N754 N 0.24308 0.3601 0.12302 0.0
N755 N 0.06368 0.3866 0.16783 0.0
H756 H 0.13721 0.32684 0.25453 0.0
H757 H 0.08266 0.33631 0.24003 0.0
H758 H 0.04271 0.40204 0.14525 0.0
H759 H 0.05056 0.38601 0.19963 0.0
H760 H 0.25809 0.37548 0.0931 0.0
H761 H 0.26632 0.35053 0.1452 0.0
H762 H 0.21423 0.35869 0.04848 0.0
H763 H 0.16304 0.37881 0.03304 0.0
C764 C 0.12089 0.62994 0.81236 0.0
C765 C 0.14191 0.66873 0.82917 0.0
C766 C 0.09059 0.64749 0.89444 0.0
C767 C 0.07987 0.60231 0.88277 0.0
N768 N 0.0876 0.54982 0.82883 0.0
N769 N 0.15075 0.70518 0.89433 0.0
C770 C 0.09604 0.59327 0.84113 0.0
C771 C 0.12777 0.67528 0.87244 0.0
N772 N 0.12187 0.62933 0.76896 0.0
N773 N 0.06459 0.6648 0.92569 0.0
H774 H 0.18171 0.7215 0.88305 0.0
H775 H 0.142 0.70807 0.92671 0.0
H776 H 0.03395 0.64808 0.93725 0.0
H777 H 0.06982 0.69875 0.93407 0.0
H778 H 0.10514 0.60315 0.75528 0.0
H779 H 0.13296 0.65881 0.747 0.0
H780 H 0.10263 0.53958 0.80055 0.0
H781 H 0.06723 0.52355 0.84816 0.0
C782 C 0.36023 0.20989 0.86387 0.0
C783 C 0.34958 0.18492 0.82933 0.0
C784 C 0.41045 0.13024 0.84597 0.0
C785 C 0.41915 0.15379 0.88174 0.0
N786 N 0.41248 0.22417 0.91645 0.0
N787 N 0.36996 0.12775 0.78167 0.0
C788 C 0.39739 0.19638 0.88784 0.0
C789 C 0.37644 0.14693 0.81854 0.0
N790 N 0.33335 0.24511 0.87531 0.0
N791 N 0.43519 0.09198 0.83856 0.0
H792 H 0.3456 0.13936 0.76104 0.0
H793 H 0.3898 0.10207 0.76996 0.0
H794 H 0.46173 0.08137 0.85692 0.0
H795 H 0.43008 0.07096 0.81458 0.0
H796 H 0.33546 0.26001 0.90367 0.0
H797 H 0.30632 0.25698 0.85838 0.0
H798 H 0.40126 0.25812 0.91926 0.0
H799 H 0.43969 0.21554 0.93436 0.0
C800 C 0.83858 0.34625 0.96348 0.0
C801 C 0.85544 0.33873 0.92161 0.0
C802 C 0.91188 0.40226 0.9189 0.0
C803 C 0.89963 0.40525 0.96288 0.0
N804 N 0.85398 0.37858 0.02878 0.0
N805 N 0.91417 0.35128 0.86341 0.0
C806 C 0.86344 0.37698 0.98574 0.0
C807 C 0.894 0.36427 0.90053 0.0
N808 N 0.7989 0.32471 0.98145 0.0
N809 N 0.94159 0.43485 0.89503 0.0
H810 H 0.9026 0.32242 0.84943 0.0
H811 H 0.94493 0.36585 0.84907 0.0
H812 H 0.95607 0.46333 0.90738 0.0
H813 H 0.94823 0.4365 0.86174 0.0
H814 H 0.78281 0.33255 0.01016 0.0
H815 H 0.78087 0.30077 0.96623 0.0
H816 H 0.83143 0.35492 0.04845 0.0
H817 H 0.87039 0.40277 0.04498 0.0
C818 C 0.6693 0.7763 0.89503 0.0
C819 C 0.6823 0.80118 0.85346 0.0
C820 C 0.64696 0.87299 0.87301 0.0
C821 C 0.63183 0.84747 0.9139 0.0
N822 N 0.62272 0.77332 0.96214 0.0
N823 N 0.67626 0.86969 0.79958 0.0
C824 C 0.6411 0.79856 0.92436 0.0
C825 C 0.66944 0.84868 0.84161 0.0
N826 N 0.68542 0.73223 0.90703 0.0
N827 N 0.63948 0.92052 0.86382 0.0
H828 H 0.69216 0.85325 0.77519 0.0
H829 H 0.66256 0.90171 0.78777 0.0
H830 H 0.61859 0.93896 0.88337 0.0
H831 H 0.65592 0.94245 0.83767 0.0
H832 H 0.6815 0.71441 0.93843 0.0
H833 H 0.70584 0.7147 0.88625 0.0
H834 H 0.62384 0.73649 0.96944 0.0
H835 H 0.60353 0.7888 0.98521 0.0
C836 C 0.83841 0.73642 0.09576 0.0
C837 C 0.84453 0.72364 0.1401 0.0
C838 C 0.8779 0.64867 0.1249 0.0
C839 C 0.87155 0.6612 0.08053 0.0
N840 N 0.85064 0.71831 0.02216 0.0
N841 N 0.87584 0.672 0.19637 0.0
C842 C 0.85346 0.70571 0.06547 0.0
C843 C 0.86629 0.6811 0.15427 0.0
N844 N 0.81644 0.7769 0.08317 0.0
N845 N 0.89453 0.60533 0.13913 0.0
H846 H 0.86578 0.69414 0.21873 0.0
H847 H 0.89602 0.645 0.20866 0.0
H848 H 0.90625 0.58156 0.11866 0.0
H849 H 0.89464 0.5912 0.17149 0.0
H850 H 0.8058 0.78606 0.05246 0.0
H851 H 0.80774 0.8011 0.10441 0.0
H852 H 0.84231 0.75193 0.00814 0.0
H853 H 0.8581 0.69506 0.99976 0.0
C854 C 0.38181 0.84182 0.15285 0.0
C855 C 0.34235 0.85932 0.17283 0.0
C856 C 0.37224 0.94026 0.14631 0.0
C857 C 0.40524 0.9228 0.11782 0.0
N858 N 0.4355 0.85352 0.09037 0.0
N859 N 0.29879 0.92717 0.18493 0.0
C860 C 0.40901 0.87257 0.12049 0.0
C861 C 0.3372 0.90917 0.16843 0.0
N862 N 0.39364 0.79605 0.16448 0.0
N863 N 0.37518 0.98664 0.15301 0.0
H864 H 0.27245 0.9055 0.20108 0.0
H865 H 0.29168 0.96313 0.17915 0.0
H866 H 0.40252 0.00873 0.13968 0.0
H867 H 0.35417 0.00084 0.17572 0.0
H868 H 0.42402 0.78309 0.15334 0.0
H869 H 0.37541 0.77265 0.18845 0.0
H870 H 0.43563 0.8171 0.08855 0.0
H871 H 0.45337 0.87416 0.06442 0.0
C872 C 0.67844 0.05504 0.10809 0.0
C873 C 0.70437 0.09668 0.09128 0.0
C874 C 0.66246 0.10348 0.02717 0.0
C875 C 0.62868 0.0716 0.04992 0.0
N876 N 0.60471 0.01716 0.11469 0.0
N877 N 0.72334 0.1597 0.03262 0.0
C878 C 0.63717 0.04614 0.09062 0.0
C879 C 0.69777 0.12008 0.04962 0.0
N880 N 0.69203 0.02619 0.1427 0.0
N881 N 0.66138 0.11654 0.98395 0.0
H882 H 0.75053 0.17158 0.04765 0.0
H883 H 0.71631 0.18157 0.00467 0.0
H884 H 0.63821 0.10049 0.96698 0.0
H885 H 0.68655 0.13736 0.96482 0.0
H886 H 0.67635 0.99332 0.15477 0.0
H887 H 0.72187 0.03352 0.15614 0.0
H888 H 0.60782 0.00303 0.14668 0.0
H889 H 0.5731 0.01065 0.10462 0.0
C890 C 0.52775 0.62468 0.80893 0.0
C891 C 0.55037 0.5961 0.78159 0.0
C892 C 0.53427 0.52705 0.83535 0.0
C893 C 0.53005 0.55897 0.86664 0.0
N894 N 0.51654 0.63822 0.88357 0.0
N895 N 0.55829 0.51917 0.76061 0.0
C896 C 0.52291 0.60778 0.8537 0.0
C897 C 0.54554 0.54644 0.79167 0.0
N898 N 0.51765 0.66967 0.79261 0.0
N899 N 0.52915 0.47906 0.84787 0.0
H900 H 0.56764 0.53496 0.72897 0.0
H901 H 0.56035 0.48232 0.76606 0.0
H902 H 0.52054 0.4645 0.87993 0.0
H903 H 0.53028 0.45408 0.82643 0.0
H904 H 0.49972 0.69226 0.8106 0.0
H905 H 0.52453 0.68207 0.75976 0.0
H906 H 0.51472 0.6749 0.87544 0.0
H907 H 0.51596 0.62685 0.91664 0.0
C908 C 0.31903 0.61195 0.85016 0.0
C909 C 0.33335 0.65899 0.83208 0.0
C910 C 0.38218 0.66204 0.89093 0.0
C911 C 0.37329 0.61266 0.90606 0.0
N912 N 0.33522 0.53897 0.89424 0.0
N913 N 0.3875 0.72374 0.82928 0.0
C914 C 0.34235 0.58704 0.88401 0.0
C915 C 0.36799 0.68217 0.85047 0.0
N916 N 0.2816 0.59166 0.83675 0.0
N917 N 0.40058 0.69122 0.9167 0.0
H918 H 0.37877 0.7387 0.79894 0.0
H919 H 0.41556 0.74005 0.83963 0.0
H920 H 0.40556 0.68024 0.94899 0.0
H921 H 0.40441 0.728 0.9081 0.0
H922 H 0.26601 0.56013 0.8526 0.0
H923 H 0.26379 0.60821 0.81201 0.0
H924 H 0.31822 0.51846 0.87508 0.0
H925 H 0.34865 0.51842 0.91961 0.0
C926 C 0.33742 0.37962 0.89214 0.0
C927 C 0.35749 0.40421 0.8524 0.0
C928 C 0.40472 0.45115 0.89188 0.0
C929 C 0.39171 0.42008 0.93076 0.0
N930 N 0.34392 0.35641 0.96892 0.0
N931 N 0.4106 0.46306 0.81373 0.0
C932 C 0.35699 0.38516 0.93125 0.0
C933 C 0.39106 0.44009 0.8521 0.0
N934 N 0.30002 0.35088 0.89239 0.0
N935 N 0.42857 0.49244 0.89302 0.0
H936 H 0.3995 0.45809 0.78389 0.0
H937 H 0.43948 0.48488 0.8113 0.0
H938 H 0.4342 0.50465 0.92178 0.0
H939 H 0.43555 0.51843 0.86636 0.0
H940 H 0.28126 0.33579 0.9205 0.0
H941 H 0.28574 0.34468 0.86432 0.0
H942 H 0.32245 0.32658 0.97092 0.0
H943 H 0.35604 0.36194 0.99823 0.0
C944 C 0.62283 0.31072 0.81807 0.0
C945 C 0.65657 0.33897 0.79189 0.0
C946 C 0.64446 0.40232 0.83672 0.0
C947 C 0.61997 0.36928 0.86923 0.0
N948 N 0.59122 0.28799 0.89119 0.0
N949 N 0.70144 0.41166 0.77656 0.0
C950 C 0.60996 0.32246 0.85976 0.0
C951 C 0.66785 0.38493 0.8012 0.0
N952 N 0.60542 0.27111 0.80407 0.0
N953 N 0.64325 0.45025 0.8378 0.0
H954 H 0.71738 0.40069 0.74895 0.0
H955 H 0.71459 0.44323 0.78494 0.0
H956 H 0.62263 0.4654 0.86008 0.0
H957 H 0.65797 0.47523 0.81288 0.0
H958 H 0.57817 0.25078 0.82016 0.0
H959 H 0.61525 0.26182 0.77375 0.0
H960 H 0.58188 0.25407 0.8854 0.0
H961 H 0.59016 0.29096 0.92399 0.0
C962 C 0.62196 0.29327 0.15296 0.0
C963 C 0.64864 0.32515 0.1725 0.0
C964 C 0.61748 0.39098 0.12621 0.0
C965 C 0.60123 0.35856 0.09952 0.0
N966 N 0.59411 0.27651 0.08631 0.0
N967 N 0.67393 0.40676 0.17398 0.0
C968 C 0.60461 0.30894 0.11274 0.0
C969 C 0.64666 0.37483 0.15854 0.0
N970 N 0.61212 0.24823 0.17345 0.0
N971 N 0.604 0.43687 0.12172 0.0
H972 H 0.69643 0.39712 0.19697 0.0
H973 H 0.67674 0.44268 0.16108 0.0
H974 H 0.58055 0.44923 0.10034 0.0
H975 H 0.61169 0.46057 0.14297 0.0
H976 H 0.59022 0.22457 0.16202 0.0
H977 H 0.62112 0.23724 0.20461 0.0
H978 H 0.60025 0.24041 0.09346 0.0
H979 H 0.58399 0.28584 0.05539 0.0
C980 C 0.65994 0.55658 0.10785 0.0
C981 C 0.637 0.57426 0.14338 0.0
C982 C 0.56826 0.5795 0.10586 0.0
C983 C 0.59196 0.56531 0.06849 0.0
N984 N 0.65769 0.53183 0.03672 0.0
N985 N 0.56766 0.59023 0.18146 0.0
C986 C 0.63693 0.55069 0.07058 0.0
C987 C 0.59055 0.58164 0.14396 0.0
N988 N 0.70451 0.54785 0.10937 0.0
N989 N 0.52424 0.59108 0.10517 0.0
H990 H 0.5831 0.59166 0.20989 0.0
H991 H 0.53296 0.59169 0.18595 0.0
H992 H 0.50339 0.58099 0.0828 0.0
H993 H 0.50779 0.61022 0.12732 0.0
H994 H 0.72536 0.54006 0.08334 0.0
H995 H 0.72096 0.54943 0.13733 0.0
H996 H 0.68849 0.51577 0.03765 0.0
H997 H 0.64321 0.53051 0.00773 0.0
C998 C 0.33286 0.68649 0.13847 0.0
C999 C 0.33143 0.66669 0.18309 0.0
C1000 C 0.37248 0.59855 0.16205 0.0
C1001 C 0.36897 0.61638 0.11794 0.0
N1002 N 0.3365 0.67099 0.06447 0.0
N1003 N 0.34275 0.59883 0.23615 0.0
C1004 C 0.34626 0.65835 0.1063 0.0
C1005 C 0.34951 0.62136 0.19471 0.0
N1006 N 0.32347 0.73302 0.12637 0.0
N1007 N 0.3984 0.56048 0.17272 0.0
H1008 H 0.3249 0.61342 0.26073 0.0
H1009 H 0.35123 0.56374 0.24528 0.0
H1010 H 0.41493 0.54244 0.14965 0.0
H1011 H 0.4062 0.54914 0.20417 0.0
H1012 H 0.32902 0.75006 0.09472 0.0
H1013 H 0.31538 0.75649 0.14808 0.0
H1014 H 0.31521 0.69834 0.05524 0.0
H1015 H 0.34582 0.65116 0.03973 0.0
C1016 C 0.46691 0.34404 0.19356 0.0
C1017 C 0.45924 0.3777 0.22227 0.0
C1018 C 0.48102 0.44137 0.16454 0.0
C1019 C 0.46991 0.40969 0.13521 0.0
N1020 N 0.46198 0.32915 0.11955 0.0
N1021 N 0.47757 0.45415 0.24014 0.0
C1022 C 0.46721 0.36003 0.14871 0.0
C1023 C 0.47503 0.4248 0.20939 0.0
N1024 N 0.46836 0.29717 0.20976 0.0
N1025 N 0.49554 0.4869 0.14938 0.0
H1026 H 0.47151 0.44067 0.27286 0.0
H1027 H 0.48488 0.4906 0.23364 0.0
H1028 H 0.50051 0.49895 0.11642 0.0
H1029 H 0.50534 0.51132 0.16904 0.0
H1030 H 0.47514 0.27049 0.19066 0.0
H1031 H 0.46619 0.28632 0.24307 0.0
H1032 H 0.4558 0.29269 0.12828 0.0
H1033 H 0.46229 0.34068 0.08648 0.0
C1034 C 0.85739 0.65963 0.66271 0.0
C1035 C 0.8223 0.68965 0.65004 0.0
C1036 C 0.84133 0.68089 0.57453 0.0
C1037 C 0.87202 0.64579 0.58794 0.0
N1038 N 0.90564 0.59684 0.64503 0.0
N1039 N 0.77656 0.72477 0.59514 0.0
C1040 C 0.87903 0.6337 0.63215 0.0
C1041 C 0.81287 0.69907 0.60626 0.0
N1042 N 0.87091 0.657 0.70356 0.0
N1043 N 0.84083 0.69828 0.5318 0.0
H1044 H 0.7553 0.73889 0.61775 0.0
H1045 H 0.76559 0.72887 0.5642 0.0
H1046 H 0.86326 0.68757 0.50819 0.0
H1047 H 0.82177 0.72677 0.52042 0.0
H1048 H 0.89933 0.63948 0.71321 0.0
H1049 H 0.85616 0.67603 0.72676 0.0
H1050 H 0.90778 0.58303 0.67728 0.0
H1051 H 0.92285 0.57742 0.62345 0.0
C1052 C 0.35919 0.88339 0.67548 0.0
C1053 C 0.36244 0.83314 0.67682 0.0
C1054 C 0.42913 0.84838 0.62423 0.0
C1055 C 0.42624 0.89849 0.62434 0.0
N1056 N 0.39931 0.95991 0.66434 0.0
N1057 N 0.41003 0.76893 0.66207 0.0
C1058 C 0.39528 0.9143 0.65543 0.0
C1059 C 0.40036 0.81591 0.65413 0.0
N1060 N 0.32023 0.90252 0.68957 0.0
N1061 N 0.45802 0.83142 0.59483 0.0
H1062 H 0.39129 0.74473 0.68503 0.0
H1063 H 0.43938 0.75522 0.64946 0.0
H1064 H 0.48165 0.85335 0.57523 0.0
H1065 H 0.45727 0.7961 0.58907 0.0
H1066 H 0.31555 0.93908 0.68586 0.0
H1067 H 0.29063 0.8825 0.69925 0.0
H1068 H 0.37956 0.9725 0.68896 0.0
H1069 H 0.42571 0.98304 0.65014 0.0
C1070 C 0.13827 0.3608 0.67583 0.0
C1071 C 0.16729 0.32537 0.6633 0.0
C1072 C 0.12452 0.31738 0.60122 0.0
C1073 C 0.09616 0.35362 0.61258 0.0
N1074 N 0.07128 0.40612 0.66248 0.0
N1075 N 0.19844 0.28637 0.60544 0.0
C1076 C 0.10172 0.37431 0.65057 0.0
C1077 C 0.16294 0.30754 0.62389 0.0
N1078 N 0.14758 0.38349 0.70998 0.0
N1079 N 0.11539 0.29321 0.56788 0.0
H1080 H 0.22961 0.2867 0.61809 0.0
H1081 H 0.19919 0.27585 0.57484 0.0
H1082 H 0.08762 0.29982 0.55019 0.0
H1083 H 0.13284 0.2636 0.56068 0.0
H1084 H 0.13006 0.41201 0.71942 0.0
H1085 H 0.1752 0.37561 0.72759 0.0
H1086 H 0.07085 0.4209 0.69107 0.0
H1087 H 0.04411 0.41532 0.6445 0.0
C1088 C 0.6268 0.10908 0.60037 0.0
C1089 C 0.65317 0.14999 0.58152 0.0
C1090 C 0.6388 0.13167 0.51056 0.0
C1091 C 0.61699 0.08765 0.5298 0.0
N1092 N 0.6081 0.02794 0.59319 0.0
N1093 N 0.69572 0.19125 0.51795 0.0
C1094 C 0.61792 0.0737 0.57467 0.0
C1095 C 0.66338 0.15828 0.53633 0.0
N1096 N 0.60838 0.10491 0.64204 0.0
N1097 N 0.63257 0.15058 0.46923 0.0
H1098 H 0.71521 0.21068 0.53606 0.0
H1099 H 0.70594 0.19548 0.48504 0.0
H1100 H 0.61139 0.13451 0.45034 0.0
H1101 H 0.64474 0.18452 0.45561 0.0
H1102 H 0.58634 0.07679 0.65557 0.0
H1103 H 0.61078 0.13219 0.66106 0.0
H1104 H 0.61032 0.01687 0.62604 0.0
H1105 H 0.604 0.00027 0.57514 0.0
C1106 C 0.86167 0.4022 0.37441 0.0
C1107 C 0.81726 0.39771 0.39471 0.0
C1108 C 0.84595 0.41273 0.46285 0.0
C1109 C 0.88951 0.42087 0.4415 0.0
N1110 N 0.9371 0.43456 0.37489 0.0
N1111 N 0.76592 0.40816 0.4555 0.0
C1112 C 0.89665 0.41965 0.39651 0.0
C1113 C 0.809 0.4062 0.43812 0.0
N1114 N 0.87138 0.38631 0.33556 0.0
N1115 N 0.84014 0.40909 0.50677 0.0
H1116 H 0.73827 0.40388 0.43789 0.0
H1117 H 0.7578 0.41835 0.48575 0.0
H1118 H 0.86677 0.41274 0.52564 0.0
H1119 H 0.80986 0.39842 0.52455 0.0
H1120 H 0.90403 0.38398 0.32202 0.0
H1121 H 0.84771 0.37052 0.31883 0.0
H1122 H 0.9424 0.43912 0.34133 0.0
H1123 H 0.96414 0.44661 0.39007 0.0
C1124 C 0.62807 0.79639 0.33996 0.0
C1125 C 0.66823 0.77313 0.34887 0.0
C1126 C 0.66377 0.79787 0.42092 0.0
C1127 C 0.62802 0.82743 0.40932 0.0
N1128 N 0.5765 0.85688 0.35736 0.0
N1129 N 0.72675 0.7539 0.39619 0.0
C1130 C 0.60989 0.82688 0.36884 0.0
C1131 C 0.68663 0.7742 0.38906 0.0
N1132 N 0.60774 0.78962 0.30362 0.0
N1133 N 0.67483 0.79121 0.46266 0.0
H1134 H 0.74361 0.73493 0.37406 0.0
H1135 H 0.74449 0.75815 0.42276 0.0
H1136 H 0.65709 0.8063 0.48698 0.0
H1137 H 0.69813 0.76698 0.47401 0.0
H1138 H 0.57633 0.80212 0.2969 0.0
H1139 H 0.62074 0.76784 0.28177 0.0
H1140 H 0.56513 0.86202 0.32662 0.0
H1141 H 0.56207 0.87945 0.37777 0.0
C1142 C 0.14062 0.66139 0.36791 0.0
C1143 C 0.16079 0.64904 0.32865 0.0
C1144 C 0.11628 0.57291 0.34236 0.0
C1145 C 0.09502 0.58654 0.38078 0.0
N1146 N 0.07712 0.65042 0.42152 0.0
N1147 N 0.16427 0.59477 0.27583 0.0
C1148 C 0.1038 0.63309 0.39045 0.0
C1149 C 0.14704 0.60552 0.3148 0.0
N1150 N 0.1579 0.6989 0.38516 0.0
N1151 N 0.10803 0.52796 0.33311 0.0
H1152 H 0.18991 0.61527 0.25712 0.0
H1153 H 0.15215 0.56668 0.2613 0.0
H1154 H 0.08363 0.50484 0.35105 0.0
H1155 H 0.12604 0.51305 0.30887 0.0
H1156 H 0.1492 0.70448 0.41685 0.0
H1157 H 0.18378 0.72168 0.36949 0.0
H1158 H 0.07978 0.68545 0.42779 0.0
H1159 H 0.04952 0.63104 0.4379 0.0
C1160 C 0.32667 0.16159 0.37289 0.0
C1161 C 0.33501 0.15755 0.32865 0.0
C1162 C 0.39676 0.10539 0.34529 0.0
C1163 C 0.39267 0.11599 0.38818 0.0
N1164 N 0.35977 0.1633 0.44015 0.0
N1165 N 0.3842 0.1341 0.27116 0.0
C1166 C 0.35941 0.14684 0.40123 0.0
C1167 C 0.3718 0.13171 0.31418 0.0
N1168 N 0.28715 0.17871 0.388 0.0
N1169 N 0.42331 0.06976 0.33455 0.0
H1170 H 0.36812 0.15559 0.24794 0.0
H1171 H 0.41304 0.11886 0.25918 0.0
H1172 H 0.44042 0.04869 0.35732 0.0
H1173 H 0.42462 0.05837 0.30426 0.0
H1174 H 0.27799 0.17845 0.4208 0.0
H1175 H 0.26166 0.18842 0.36807 0.0
H1176 H 0.33887 0.18983 0.44886 0.0
H1177 H 0.3839 0.15409 0.46173 0.0
C1178 C 0.63318 0.84072 0.67958 0.0
C1179 C 0.67857 0.83098 0.66836 0.0
C1180 C 0.67046 0.85923 0.5927 0.0
C1181 C 0.62581 0.87183 0.60408 0.0
N1182 N 0.56735 0.8833 0.65862 0.0
N1183 N 0.74308 0.83846 0.61606 0.0
C1184 C 0.60785 0.86512 0.64768 0.0
C1185 C 0.69818 0.84325 0.62564 0.0
N1186 N 0.61416 0.82593 0.72044 0.0
N1187 N 0.68552 0.85884 0.55038 0.0
H1188 H 0.76429 0.82247 0.63799 0.0
H1189 H 0.76004 0.85321 0.58682 0.0
H1190 H 0.66647 0.86866 0.52452 0.0
H1191 H 0.71551 0.84406 0.54075 0.0
H1192 H 0.57996 0.82706 0.72918 0.0
H1193 H 0.63217 0.80979 0.74523 0.0
H1194 H 0.55444 0.88363 0.69037 0.0
H1195 H 0.54828 0.90192 0.63595 0.0
C1196 C 0.60008 0.15791 0.32828 0.0
C1197 C 0.64755 0.15976 0.32967 0.0
C1198 C 0.64095 0.09086 0.38658 0.0
C1199 C 0.59389 0.08472 0.3818 0.0
N1200 N 0.52998 0.11075 0.34436 0.0
N1201 N 0.71365 0.12417 0.35695 0.0
C1202 C 0.57369 0.11817 0.35186 0.0
C1203 C 0.66796 0.12479 0.35751 0.0
N1204 N 0.58027 0.19408 0.30428 0.0
N1205 N 0.65953 0.06756 0.42172 0.0
H1206 H 0.73491 0.15109 0.33998 0.0
H1207 H 0.73058 0.09533 0.37125 0.0
H1208 H 0.64095 0.04732 0.44751 0.0
H1209 H 0.6922 0.07429 0.42914 0.0
H1210 H 0.54572 0.19763 0.30484 0.0
H1211 H 0.59872 0.2226 0.28602 0.0
H1212 H 0.51403 0.1308 0.32015 0.0
H1213 H 0.51061 0.08186 0.36054 0.0
C1214 C 0.89095 0.68509 0.32003 0.0
C1215 C 0.84319 0.67759 0.32685 0.0
C1216 C 0.85261 0.64138 0.40072 0.0
C1217 C 0.89992 0.64037 0.39107 0.0
N1218 N 0.96349 0.65599 0.33862 0.0
N1219 N 0.7792 0.64355 0.37441 0.0
C1220 C 0.91902 0.66082 0.3499 0.0
C1221 C 0.82432 0.65364 0.36713 0.0
N1222 N 0.90993 0.7164 0.28616 0.0
N1223 N 0.83458 0.63356 0.44261 0.0
H1224 H 0.75568 0.65551 0.35315 0.0
H1225 H 0.76525 0.6205 0.40115 0.0
H1226 H 0.80113 0.63925 0.45172 0.0
H1227 H 0.85385 0.62717 0.46882 0.0
H1228 H 0.94394 0.72626 0.28268 0.0
H1229 H 0.8916 0.73648 0.26407 0.0
H1230 H 0.97807 0.66577 0.30728 0.0
H1231 H 0.98491 0.6384 0.3596 0.0
C1232 C 0.40675 0.82827 0.41105 0.0
C1233 C 0.36395 0.80928 0.42765 0.0
C1234 C 0.36097 0.86392 0.48149 0.0
C1235 C 0.40082 0.88697 0.4605 0.0
N1236 N 0.45618 0.89799 0.39928 0.0
N1237 N 0.29804 0.80969 0.47665 0.0
C1238 C 0.42156 0.87164 0.4229 0.0
C1239 C 0.34037 0.82709 0.46263 0.0
N1240 N 0.43241 0.80532 0.38294 0.0
N1241 N 0.34377 0.87657 0.51972 0.0
H1242 H 0.28343 0.78105 0.46443 0.0
H1243 H 0.27722 0.82468 0.49894 0.0
H1244 H 0.3571 0.90537 0.53264 0.0
H1245 H 0.31778 0.85744 0.5391 0.0
H1246 H 0.46553 0.81566 0.37235 0.0
H1247 H 0.4219 0.773 0.37391 0.0
H1248 H 0.47021 0.89001 0.36977 0.0
H1249 H 0.46777 0.93053 0.40694 0.0
C1250 C 0.13833 0.29291 0.35811 0.0
C1251 C 0.18431 0.28453 0.36313 0.0
C1252 C 0.17855 0.32076 0.4299 0.0
C1253 C 0.13601 0.33736 0.4195 0.0
N1254 N 0.07927 0.34722 0.36848 0.0
N1255 N 0.24902 0.29082 0.40384 0.0
C1256 C 0.11672 0.32533 0.38239 0.0
C1257 C 0.20467 0.2984 0.39921 0.0
N1258 N 0.11501 0.27071 0.33024 0.0
N1259 N 0.19333 0.32505 0.46939 0.0
H1260 H 0.26862 0.27195 0.38357 0.0
H1261 H 0.26688 0.30527 0.42648 0.0
H1262 H 0.17468 0.34071 0.49285 0.0
H1263 H 0.22205 0.30921 0.48038 0.0
H1264 H 0.08037 0.27274 0.32929 0.0
H1265 H 0.12845 0.24633 0.3114 0.0
H1266 H 0.06695 0.3433 0.33893 0.0
H1267 H 0.06349 0.37348 0.38374 0.0
C1268 C 0.37617 0.18566 0.64964 0.0
C1269 C 0.33234 0.20177 0.64382 0.0
C1270 C 0.33056 0.16262 0.57844 0.0
C1271 C 0.37257 0.14297 0.58659 0.0
N1272 N 0.43213 0.12883 0.63375 0.0
N1273 N 0.26471 0.19942 0.60689 0.0
C1274 C 0.39467 0.15289 0.62309 0.0
C1275 C 0.30875 0.18873 0.60921 0.0
N1276 N 0.39989 0.20108 0.68096 0.0
N1277 N 0.31146 0.15612 0.5414 0.0
H1278 H 0.24594 0.21241 0.63172 0.0
H1279 H 0.24528 0.19182 0.58246 0.0
H1280 H 0.32434 0.1336 0.52028 0.0
H1281 H 0.28422 0.17473 0.53031 0.0
H1282 H 0.43371 0.19484 0.68379 0.0
H1283 H 0.38678 0.22322 0.70238 0.0
H1284 H 0.44711 0.13039 0.66239 0.0
H1285 H 0.446 0.10356 0.61589 0.0
C1286 C 0.87386 0.3296 0.63684 0.0
C1287 C 0.84753 0.34882 0.66963 0.0
C1288 C 0.8942 0.42307 0.65367 0.0
C1289 C 0.91522 0.40689 0.61642 0.0
N1290 N 0.9259 0.34393 0.57286 0.0
N1291 N 0.83224 0.41411 0.70959 0.0
C1292 C 0.90588 0.35955 0.60863 0.0
C1293 C 0.85811 0.39543 0.67861 0.0
N1294 N 0.86908 0.28225 0.6333 0.0
N1295 N 0.9091 0.46527 0.66487 0.0
H1296 H 0.80563 0.39502 0.72822 0.0
H1297 H 0.83497 0.44942 0.71497 0.0
H1298 H 0.93586 0.48532 0.64727 0.0
H1299 H 0.89816 0.47816 0.69326 0.0
H1300 H 0.89067 0.26464 0.6137 0.0
H1301 H 0.84558 0.25939 0.65264 0.0
H1302 H 0.91582 0.31301 0.56123 0.0
H1303 H 0.95204 0.36311 0.55395 0.0
C1304 C 0.19326 0.6171 0.55073 0.0
C1305 C 0.19747 0.59534 0.59346 0.0
C1306 C 0.12978 0.54594 0.59187 0.0
C1307 C 0.12387 0.56956 0.54974 0.0
N1308 N 0.15845 0.61363 0.48406 0.0
N1309 N 0.18069 0.52829 0.64805 0.0
C1310 C 0.15847 0.60071 0.52747 0.0
C1311 C 0.16973 0.55541 0.61128 0.0
N1312 N 0.22085 0.65512 0.53344 0.0
N1313 N 0.09593 0.51801 0.61506 0.0
H1314 H 0.20969 0.53572 0.66278 0.0
H1315 H 0.16388 0.49628 0.66099 0.0
H1316 H 0.06516 0.51118 0.60336 0.0
H1317 H 0.09683 0.50498 0.64764 0.0
H1318 H 0.21595 0.67632 0.50449 0.0
H1319 H 0.24773 0.66642 0.54928 0.0
H1320 H 0.1845 0.63339 0.46527 0.0
H1321 H 0.13466 0.59933 0.46655 0.0
loop_
_geom_bond_atom_site_label_1
_geom_bond_atom_site_label_2
_geom_bond_distance
_geom_bond_site_symmetry_2
_ccdc_geom_bond_type
C0 O16 1.251 . S
C0 O18 1.254 . S
N1 C2 1.333 . S
N1 C6 1.307 . S
N1 Zn7 2.020 . S
C2 N1 1.333 . S
C2 C3 1.379 . S
C2 H20 0.952 . S
C3 C2 1.379 . S
C3 C4 1.390 . S
C3 H30 0.949 . S
C4 C3 1.390 . S
C4 C5 1.357 . S
C5 C4 1.357 . S
C5 C6 1.370 . S
C5 H31 0.950 . S
C6 N1 1.307 . S
C6 C5 1.370 . S
C6 H24 0.948 . S
Zn7 N1 2.020 . S
Zn7 O16 2.039 . S
Zn7 O22 2.034 . S
Zn7 O26 2.025 . S
Zn7 O28 2.024 . S
C8 O27 1.246 . S
C8 O28 1.249 . S
N9 C10 1.307 . S
N9 C11 1.333 . S
N9 Zn15 2.020 . S
C10 N9 1.307 . S
C10 C14 1.370 . S
C10 H21 0.948 . S
C11 N9 1.333 . S
C11 C12 1.379 . S
C11 H19 0.952 . S
C12 C11 1.379 . S
C12 C13 1.390 . S
C12 H32 0.949 . S
C13 C12 1.390 . S
C13 C14 1.357 . S
C14 C10 1.370 . S
C14 C13 1.357 . S
C14 H33 0.950 . S
Zn15 N9 2.020 . S
Zn15 O18 2.025 . S
Zn15 O23 2.024 . S
Zn15 O25 2.039 . S
Zn15 O27 2.034 . S
O16 C0 1.251 . S
O16 Zn7 2.039 . S
C17 O22 1.246 . S
C17 O23 1.249 . S
O18 C0 1.254 . S
O18 Zn15 2.025 . S
H19 C11 0.952 . S
H20 C2 0.952 . S
H21 C10 0.948 . S
O22 Zn7 2.034 . S
O22 C17 1.246 . S
O23 Zn15 2.024 . S
O23 C17 1.249 . S
H24 C6 0.948 . S
O25 Zn15 2.039 . S
O25 C29 1.251 . S
O26 Zn7 2.025 . S
O26 C29 1.254 . S
O27 C8 1.246 . S
O27 Zn15 2.034 . S
O28 Zn7 2.024 . S
O28 C8 1.249 . S
C29 O25 1.251 . S
C29 O26 1.254 . S
H30 C3 0.949 . S
H31 C5 0.950 . S
H32 C12 0.949 . S
H33 C14 0.950 . S
C34 O50 1.251 . S
C34 O52 1.254 . S
N35 C36 1.333 . S
N35 C40 1.307 . S
N35 Zn41 2.020 . S
C36 N35 1.333 . S
C36 C37 1.379 . S
C36 H54 0.952 . S
C37 C36 1.379 . S
C37 C38 1.390 . S
C37 H64 0.949 . S
C38 C37 1.390 . S
C38 C39 1.357 . S
C39 C38 1.357 . S
C39 C40 1.370 . S
C39 H65 0.950 . S
C40 N35 1.307 . S
C40 C39 1.370 . S
C40 H58 0.948 . S
Zn41 N35 2.020 . S
Zn41 O50 2.039 . S
Zn41 O56 2.034 . S
Zn41 O60 2.025 . S
Zn41 O62 2.024 . S
C42 O61 1.246 . S
C42 O62 1.249 . S
N43 C44 1.307 . S
N43 C45 1.333 . S
N43 Zn49 2.020 . S
C44 N43 1.307 . S
C44 C48 1.370 . S
C44 H55 0.948 . S
C45 N43 1.333 . S
C45 C46 1.379 . S
C45 H53 0.952 . S
C46 C45 1.379 . S
C46 C47 1.390 . S
C46 H66 0.949 . S
C47 C46 1.390 . S
C47 C48 1.357 . S
C48 C44 1.370 . S
C48 C47 1.357 . S
C48 H67 0.950 . S
Zn49 N43 2.020 . S
Zn49 O52 2.025 . S
Zn49 O57 2.024 . S
Zn49 O59 2.039 . S
Zn49 O61 2.034 . S
O50 C34 1.251 . S
O50 Zn41 2.039 . S
C51 O56 1.246 . S
C51 O57 1.249 . S
O52 C34 1.254 . S
O52 Zn49 2.025 . S
H53 C45 0.952 . S
H54 C36 0.952 . S
H55 C44 0.948 . S
O56 Zn41 2.034 . S
O56 C51 1.246 . S
O57 Zn49 2.024 . S
O57 C51 1.249 . S
H58 C40 0.948 . S
O59 Zn49 2.039 . S
O59 C63 1.251 . S
O60 Zn41 2.025 . S
O60 C63 1.254 . S
O61 C42 1.246 . S
O61 Zn49 2.034 . S
O62 Zn41 2.024 . S
O62 C42 1.249 . S
C63 O59 1.251 . S
C63 O60 1.254 . S
H64 C37 0.949 . S
H65 C39 0.950 . S
H66 C46 0.949 . S
H67 C48 0.950 . S
C68 O84 1.251 . S
C68 O86 1.254 . S
N69 C70 1.333 . S
N69 C74 1.307 . S
N69 Zn75 2.020 . S
C70 N69 1.333 . S
C70 C71 1.379 . S
C70 H88 0.952 . S
C71 C70 1.379 . S
C71 C72 1.390 . S
C71 H98 0.949 . S
C72 C71 1.390 . S
C72 C73 1.357 . S
C73 C72 1.357 . S
C73 C74 1.370 . S
C73 H99 0.950 . S
C74 N69 1.307 . S
C74 C73 1.370 . S
C74 H92 0.948 . S
Zn75 N69 2.020 . S
Zn75 O84 2.039 . S
Zn75 O90 2.034 . S
Zn75 O94 2.025 . S
Zn75 O96 2.024 . S
C76 O95 1.246 . S
C76 O96 1.249 . S
N77 C78 1.307 . S
N77 C79 1.333 . S
N77 Zn83 2.020 . S
C78 N77 1.307 . S
C78 C82 1.370 . S
C78 H89 0.948 . S
C79 N77 1.333 . S
C79 C80 1.379 . S
C79 H87 0.952 . S
C80 C79 1.379 . S
C80 C81 1.390 . S
C80 H100 0.949 . S
C81 C80 1.390 . S
C81 C82 1.357 . S
C82 C78 1.370 . S
C82 C81 1.357 . S
C82 H101 0.950 . S
Zn83 N77 2.020 . S
Zn83 O86 2.025 . S
Zn83 O91 2.024 . S
Zn83 O93 2.039 . S
Zn83 O95 2.034 . S
O84 C68 1.251 . S
O84 Zn75 2.039 . S
C85 O90 1.246 . S
C85 O91 1.249 . S
O86 C68 1.254 . S
O86 Zn83 2.025 . S
H87 C79 0.952 . S
H88 C70 0.952 . S
H89 C78 0.948 . S
O90 Zn75 2.034 . S
O90 C85 1.246 . S
O91 Zn83 2.024 . S
O91 C85 1.249 . S
H92 C74 0.948 . S
O93 Zn83 2.039 . S
O93 C97 1.251 . S
O94 Zn75 2.025 . S
O94 C97 1.254 . S
O95 C76 1.246 . S
O95 Zn83 2.034 . S
O96 Zn75 2.024 . S
O96 C76 1.249 . S
C97 O93 1.251 . S
C97 O94 1.254 . S
H98 C71 0.949 . S
H99 C73 0.950 . S
H100 C80 0.949 . S
H101 C82 0.950 . S
C102 O118 1.251 . S
C102 O120 1.254 . S
N103 C104 1.333 . S
N103 C108 1.307 . S
N103 Zn109 2.020 . S
C104 N103 1.333 . S
C104 C105 1.379 . S
C104 H122 0.952 . S
C105 C104 1.379 . S
C105 C106 1.390 . S
C105 H132 0.949 . S
C106 C105 1.390 . S
C106 C107 1.357 . S
C107 C106 1.357 . S
C107 C108 1.370 . S
C107 H133 0.950 . S
C108 N103 1.307 . S
C108 C107 1.370 . S
C108 H126 0.948 . S
Zn109 N103 2.020 . S
Zn109 O118 2.039 . S
Zn109 O124 2.034 . S
Zn109 O128 2.025 . S
Zn109 O130 2.024 . S
C110 O129 1.246 . S
C110 O130 1.249 . S
N111 C112 1.307 . S
N111 C113 1.333 . S
N111 Zn117 2.020 . S
C112 N111 1.307 . S
C112 C116 1.370 . S
C112 H123 0.948 . S
C113 N111 1.333 . S
C113 C114 1.379 . S
C113 H121 0.952 . S
C114 C113 1.379 . S
C114 C115 1.390 . S
C114 H134 0.949 . S
C115 C114 1.390 . S
C115 C116 1.357 . S
C116 C112 1.370 . S
C116 C115 1.357 . S
C116 H135 0.950 . S
Zn117 N111 2.020 . S
Zn117 O120 2.025 . S
Zn117 O125 2.024 . S
Zn117 O127 2.039 . S
Zn117 O129 2.034 . S
O118 C102 1.251 . S
O118 Zn109 2.039 . S
C119 O124 1.246 . S
C119 O125 1.249 . S
O120 C102 1.254 . S
O120 Zn117 2.025 . S
H121 C113 0.952 . S
H122 C104 0.952 . S
H123 C112 0.948 . S
O124 Zn109 2.034 . S
O124 C119 1.246 . S
O125 Zn117 2.024 . S
O125 C119 1.249 . S
H126 C108 0.948 . S
O127 Zn117 2.039 . S
O127 C131 1.251 . S
O128 Zn109 2.025 . S
O128 C131 1.254 . S
O129 C110 1.246 . S
O129 Zn117 2.034 . S
O130 Zn109 2.024 . S
O130 C110 1.249 . S
C131 O127 1.251 . S
C131 O128 1.254 . S
H132 C105 0.949 . S
H133 C107 0.950 . S
H134 C114 0.949 . S
H135 C116 0.950 . S
C136 O152 1.251 . S
C136 O154 1.254 . S
N137 C138 1.333 . S
N137 C142 1.307 . S
N137 Zn143 2.020 . S
C138 N137 1.333 . S
C138 C139 1.379 . S
C138 H156 0.952 . S
C139 C138 1.379 . S
C139 C140 1.390 . S
C139 H166 0.949 . S
C140 C139 1.390 . S
C140 C141 1.357 . S
C141 C140 1.357 . S
C141 C142 1.370 . S
C141 H167 0.950 . S
C142 N137 1.307 . S
C142 C141 1.370 . S
C142 H160 0.948 . S
Zn143 N137 2.020 . S
Zn143 O152 2.039 . S
Zn143 O158 2.034 . S
Zn143 O162 2.025 . S
Zn143 O164 2.024 . S
C144 O163 1.246 . S
C144 O164 1.249 . S
N145 C146 1.307 . S
N145 C147 1.333 . S
N145 Zn151 2.020 . S
C146 N145 1.307 . S
C146 C150 1.370 . S
C146 H157 0.948 . S
C147 N145 1.333 . S
C147 C148 1.379 . S
C147 H155 0.952 . S
C148 C147 1.379 . S
C148 C149 1.390 . S
C148 H168 0.949 . S
C149 C148 1.390 . S
C149 C150 1.357 . S
C150 C146 1.370 . S
C150 C149 1.357 . S
C150 H169 0.950 . S
Zn151 N145 2.020 . S
Zn151 O154 2.025 . S
Zn151 O159 2.024 . S
Zn151 O161 2.039 . S
Zn151 O163 2.034 . S
O152 C136 1.251 . S
O152 Zn143 2.039 . S
C153 O158 1.246 . S
C153 O159 1.249 . S
O154 C136 1.254 . S
O154 Zn151 2.025 . S
H155 C147 0.952 . S
H156 C138 0.952 . S
H157 C146 0.948 . S
O158 Zn143 2.034 . S
O158 C153 1.246 . S
O159 Zn151 2.024 . S
O159 C153 1.249 . S
H160 C142 0.948 . S
O161 Zn151 2.039 . S
O161 C165 1.251 . S
O162 Zn143 2.025 . S
O162 C165 1.254 . S
O163 C144 1.246 . S
O163 Zn151 2.034 . S
O164 Zn143 2.024 . S
O164 C144 1.249 . S
C165 O161 1.251 . S
C165 O162 1.254 . S
H166 C139 0.949 . S
H167 C141 0.950 . S
H168 C148 0.949 . S
H169 C150 0.950 . S
C170 O186 1.251 . S
C170 O188 1.254 . S
N171 C172 1.333 . S
N171 C176 1.307 . S
N171 Zn177 2.020 . S
C172 N171 1.333 . S
C172 C173 1.379 . S
C172 H190 0.952 . S
C173 C172 1.379 . S
C173 C174 1.390 . S
C173 H200 0.949 . S
C174 C173 1.390 . S
C174 C175 1.357 . S
C175 C174 1.357 . S
C175 C176 1.370 . S
C175 H201 0.950 . S
C176 N171 1.307 . S
C176 C175 1.370 . S
C176 H194 0.948 . S
Zn177 N171 2.020 . S
Zn177 O186 2.039 . S
Zn177 O192 2.034 . S
Zn177 O196 2.025 . S
Zn177 O198 2.024 . S
C178 O197 1.246 . S
C178 O198 1.249 . S
N179 C180 1.307 . S
N179 C181 1.333 . S
N179 Zn185 2.020 . S
C180 N179 1.307 . S
C180 C184 1.370 . S
C180 H191 0.948 . S
C181 N179 1.333 . S
C181 C182 1.379 . S
C181 H189 0.952 . S
C182 C181 1.379 . S
C182 C183 1.390 . S
C182 H202 0.949 . S
C183 C182 1.390 . S
C183 C184 1.357 . S
C184 C180 1.370 . S
C184 C183 1.357 . S
C184 H203 0.950 . S
Zn185 N179 2.020 . S
Zn185 O188 2.025 . S
Zn185 O193 2.024 . S
Zn185 O195 2.039 . S
Zn185 O197 2.034 . S
O186 C170 1.251 . S
O186 Zn177 2.039 . S
C187 O192 1.246 . S
C187 O193 1.249 . S
O188 C170 1.254 . S
O188 Zn185 2.025 . S
H189 C181 0.952 . S
H190 C172 0.952 . S
H191 C180 0.948 . S
O192 Zn177 2.034 . S
O192 C187 1.246 . S
O193 Zn185 2.024 . S
O193 C187 1.249 . S
H194 C176 0.948 . S
O195 Zn185 2.039 . S
O195 C199 1.251 . S
O196 Zn177 2.025 . S
O196 C199 1.254 . S
O197 C178 1.246 . S
O197 Zn185 2.034 . S
O198 Zn177 2.024 . S
O198 C178 1.249 . S
C199 O195 1.251 . S
C199 O196 1.254 . S
H200 C173 0.949 . S
H201 C175 0.950 . S
H202 C182 0.949 . S
H203 C184 0.950 . S
C204 O220 1.251 . S
C204 O222 1.254 . S
N205 C206 1.333 . S
N205 C210 1.307 . S
N205 Zn211 2.020 . S
C206 N205 1.333 . S
C206 C207 1.379 . S
C206 H224 0.952 . S
C207 C206 1.379 . S
C207 C208 1.390 . S
C207 H234 0.949 . S
C208 C207 1.390 . S
C208 C209 1.357 . S
C209 C208 1.357 . S
C209 C210 1.370 . S
C209 H235 0.950 . S
C210 N205 1.307 . S
C210 C209 1.370 . S
C210 H228 0.948 . S
Zn211 N205 2.020 . S
Zn211 O220 2.039 . S
Zn211 O226 2.034 . S
Zn211 O230 2.025 . S
Zn211 O232 2.024 . S
C212 O231 1.246 . S
C212 O232 1.249 . S
N213 C214 1.307 . S
N213 C215 1.333 . S
N213 Zn219 2.020 . S
C214 N213 1.307 . S
C214 C218 1.370 . S
C214 H225 0.948 . S
C215 N213 1.333 . S
C215 C216 1.379 . S
C215 H223 0.952 . S
C216 C215 1.379 . S
C216 C217 1.390 . S
C216 H236 0.949 . S
C217 C216 1.390 . S
C217 C218 1.357 . S
C218 C214 1.370 . S
C218 C217 1.357 . S
C218 H237 0.950 . S
Zn219 N213 2.020 . S
Zn219 O222 2.025 . S
Zn219 O227 2.024 . S
Zn219 O229 2.039 . S
Zn219 O231 2.034 . S
O220 C204 1.251 . S
O220 Zn211 2.039 . S
C221 O226 1.246 . S
C221 O227 1.249 . S
O222 C204 1.254 . S
O222 Zn219 2.025 . S
H223 C215 0.952 . S
H224 C206 0.952 . S
H225 C214 0.948 . S
O226 Zn211 2.034 . S
O226 C221 1.246 . S
O227 Zn219 2.024 . S
O227 C221 1.249 . S
H228 C210 0.948 . S
O229 Zn219 2.039 . S
O229 C233 1.251 . S
O230 Zn211 2.025 . S
O230 C233 1.254 . S
O231 C212 1.246 . S
O231 Zn219 2.034 . S
O232 Zn211 2.024 . S
O232 C212 1.249 . S
C233 O229 1.251 . S
C233 O230 1.254 . S
H234 C207 0.949 . S
H235 C209 0.950 . S
H236 C216 0.949 . S
H237 C218 0.950 . S
C238 O254 1.251 . S
C238 O256 1.254 . S
N239 C240 1.333 . S
N239 C244 1.307 . S
N239 Zn245 2.020 . S
C240 N239 1.333 . S
C240 C241 1.379 . S
C240 H258 0.952 . S
C241 C240 1.379 . S
C241 C242 1.390 . S
C241 H268 0.949 . S
C242 C241 1.390 . S
C242 C243 1.357 . S
C243 C242 1.357 . S
C243 C244 1.370 . S
C243 H269 0.950 . S
C244 N239 1.307 . S
C244 C243 1.370 . S
C244 H262 0.948 . S
Zn245 N239 2.020 . S
Zn245 O254 2.039 . S
Zn245 O260 2.034 . S
Zn245 O264 2.025 . S
Zn245 O266 2.024 . S
C246 O265 1.246 . S
C246 O266 1.249 . S
N247 C248 1.307 . S
N247 C249 1.333 . S
N247 Zn253 2.020 . S
C248 N247 1.307 . S
C248 C252 1.370 . S
C248 H259 0.948 . S
C249 N247 1.333 . S
C249 C250 1.379 . S
C249 H257 0.952 . S
C250 C249 1.379 . S
C250 C251 1.390 . S
C250 H270 0.949 . S
C251 C250 1.390 . S
C251 C252 1.357 . S
C252 C248 1.370 . S
C252 C251 1.357 . S
C252 H271 0.950 . S
Zn253 N247 2.020 . S
Zn253 O256 2.025 . S
Zn253 O261 2.024 . S
Zn253 O263 2.039 . S
Zn253 O265 2.034 . S
O254 C238 1.251 . S
O254 Zn245 2.039 . S
C255 O260 1.246 . S
C255 O261 1.249 . S
O256 C238 1.254 . S
O256 Zn253 2.025 . S
H257 C249 0.952 . S
H258 C240 0.952 . S
H259 C248 0.948 . S
O260 Zn245 2.034 . S
O260 C255 1.246 . S
O261 Zn253 2.024 . S
O261 C255 1.249 . S
H262 C244 0.948 . S
O263 Zn253 2.039 . S
O263 C267 1.251 . S
O264 Zn245 2.025 . S
O264 C267 1.254 . S
O265 C246 1.246 . S
O265 Zn253 2.034 . S
O266 Zn245 2.024 . S
O266 C246 1.249 . S
C267 O263 1.251 . S
C267 O264 1.254 . S
H268 C241 0.949 . S
H269 C243 0.950 . S
H270 C250 0.949 . S
H271 C252 0.950 . S
C272 O284 1.241 . S
C272 O285 1.280 . S
C273 O286 1.277 . S
C273 O287 1.245 . S
C274 O298 1.247 . S
C274 O300 1.289 . S
Mg275 O276 1.926 . S
Mg275 O285 1.984 . S
Mg275 O287 1.988 . S
Mg275 O288 2.061 1_655 S
O276 Mg275 1.926 . S
O276 Mg277 1.986 . S
O276 Mg278 1.917 1_655 S
Mg277 O276 1.986 . S
Mg277 O284 2.042 . S
Mg277 O286 2.041 . S
Mg277 O292 2.038 1_545 S
Mg277 O300 2.238 1_545 S
Mg278 O276 1.917 1_455 S
Mg278 O279 1.917 1_545 S
Mg278 O289 2.106 . S
Mg278 O291 2.079 1_445 S
Mg278 O300 2.106 1_445 S
Mg278 O301 2.079 . S
O279 Mg278 1.917 1_565 S
O279 Mg280 1.926 . S
O279 Mg281 1.986 . S
Mg280 O279 1.926 . S
Mg280 O294 1.984 . S
Mg280 O297 1.988 . S
Mg280 O298 2.061 1_455 S
Mg281 O279 1.986 . S
Mg281 O289 2.238 1_565 S
Mg281 O293 2.042 . S
Mg281 O295 2.041 . S
Mg281 O302 2.038 1_565 S
C282 O288 1.247 . S
C282 O289 1.289 . S
C283 O301 1.245 . S
C283 O302 1.274 . S
O284 C272 1.241 . S
O284 Mg277 2.042 . S
O285 C272 1.280 . S
O285 Mg275 1.984 . S
O286 C273 1.277 . S
O286 Mg277 2.041 . S
O287 C273 1.245 . S
O287 Mg275 1.988 . S
O288 Mg275 2.061 1_455 S
O288 C282 1.247 . S
O289 Mg278 2.106 . S
O289 Mg281 2.238 1_545 S
O289 C282 1.289 . S
C290 O291 1.245 . S
C290 O292 1.274 . S
O291 Mg278 2.079 1_665 S
O291 C290 1.245 . S
O292 Mg277 2.038 1_565 S
O292 C290 1.274 . S
O293 Mg281 2.042 . S
O293 C296 1.241 . S
O294 Mg280 1.984 . S
O294 C296 1.280 . S
O295 Mg281 2.041 . S
O295 C299 1.277 . S
C296 O293 1.241 . S
C296 O294 1.280 . S
O297 Mg280 1.988 . S
O297 C299 1.245 . S
O298 C274 1.247 . S
O298 Mg280 2.061 1_655 S
C299 O295 1.277 . S
C299 O297 1.245 . S
O300 C274 1.289 . S
O300 Mg277 2.238 1_565 S
O300 Mg278 2.106 1_665 S
O301 Mg278 2.079 . S
O301 C283 1.245 . S
O302 Mg281 2.038 1_545 S
O302 C283 1.274 . S
C303 O315 1.241 . S
C303 O316 1.280 . S
C304 O317 1.277 . S
C304 O318 1.245 . S
C305 O329 1.247 . S
C305 O331 1.289 . S
Mg306 O307 1.926 . S
Mg306 O316 1.984 . S
Mg306 O318 1.988 1_554 S
Mg306 O319 2.061 . S
O307 Mg306 1.926 . S
O307 Mg308 1.986 . S
O307 Mg309 1.917 . S
Mg308 O307 1.986 . S
Mg308 O315 2.042 . S
Mg308 O317 2.041 1_554 S
Mg308 O323 2.038 1_545 S
Mg308 O331 2.238 1_544 S
Mg309 O307 1.917 . S
Mg309 O310 1.916 1_544 S
Mg309 O320 2.107 . S
Mg309 O322 2.080 1_545 S
Mg309 O331 2.105 1_544 S
Mg309 O332 2.077 1_554 S
O310 Mg309 1.916 1_566 S
O310 Mg311 1.926 . S
O310 Mg312 1.986 . S
Mg311 O310 1.926 . S
Mg311 O325 1.984 . S
Mg311 O328 1.988 1_556 S
Mg311 O329 2.061 . S
Mg312 O310 1.986 . S
Mg312 O320 2.238 1_566 S
Mg312 O324 2.042 . S
Mg312 O326 2.041 1_556 S
Mg312 O333 2.038 1_565 S
C313 O319 1.247 . S
C313 O320 1.289 . S
C314 O332 1.245 . S
C314 O333 1.274 . S
O315 C303 1.241 . S
O315 Mg308 2.042 . S
O316 C303 1.280 . S
O316 Mg306 1.984 . S
O317 C304 1.277 . S
O317 Mg308 2.041 1_556 S
O318 C304 1.245 . S
O318 Mg306 1.988 1_556 S
O319 Mg306 2.061 . S
O319 C313 1.247 . S
O320 Mg309 2.107 . S
O320 Mg312 2.238 1_544 S
O320 C313 1.289 . S
C321 O322 1.245 . S
C321 O323 1.274 . S
O322 Mg309 2.080 1_565 S
O322 C321 1.245 . S
O323 Mg308 2.038 1_565 S
O323 C321 1.274 . S
O324 Mg312 2.042 . S
O324 C327 1.241 . S
O325 Mg311 1.984 . S
O325 C327 1.280 . S
O326 Mg312 2.041 1_554 S
O326 C330 1.277 . S
C327 O324 1.241 . S
C327 O325 1.280 . S
O328 Mg311 1.988 1_554 S
O328 C330 1.245 . S
O329 C305 1.247 . S
O329 Mg311 2.061 . S
C330 O326 1.277 . S
C330 O328 1.245 . S
O331 C305 1.289 . S
O331 Mg308 2.238 1_566 S
O331 Mg309 2.105 1_566 S
O332 Mg309 2.077 1_556 S
O332 C314 1.245 . S
O333 Mg312 2.038 1_545 S
O333 C314 1.274 . S
C334 O346 1.241 . S
C334 O347 1.280 . S
C335 O348 1.277 . S
C335 O349 1.245 . S
C336 O360 1.247 . S
C336 O362 1.289 . S
Mg337 O338 1.926 . S
Mg337 O347 1.984 . S
Mg337 O349 1.988 1_554 S
Mg337 O350 2.061 1_655 S
O338 Mg337 1.926 . S
O338 Mg339 1.986 . S
O338 Mg340 1.917 1_655 S
Mg339 O338 1.986 . S
Mg339 O346 2.042 . S
Mg339 O348 2.041 1_554 S
Mg339 O354 2.038 . S
Mg339 O362 2.238 1_554 S
Mg340 O338 1.917 1_455 S
Mg340 O341 1.916 1_554 S
Mg340 O351 2.107 . S
Mg340 O353 2.080 1_455 S
Mg340 O362 2.105 1_454 S
Mg340 O363 2.077 1_554 S
O341 Mg340 1.916 1_556 S
O341 Mg342 1.926 . S
O341 Mg343 1.986 . S
Mg342 O341 1.926 . S
Mg342 O356 1.984 . S
Mg342 O359 1.988 1_556 S
Mg342 O360 2.061 1_455 S
Mg343 O341 1.986 . S
Mg343 O351 2.238 1_556 S
Mg343 O355 2.042 . S
Mg343 O357 2.041 1_556 S
Mg343 O364 2.038 . S
C344 O350 1.247 . S
C344 O351 1.289 . S
C345 O363 1.245 . S
C345 O364 1.274 . S
O346 C334 1.241 . S
O346 Mg339 2.042 . S
O347 C334 1.280 . S
O347 Mg337 1.984 . S
O348 C335 1.277 . S
O348 Mg339 2.041 1_556 S
O349 C335 1.245 . S
O349 Mg337 1.988 1_556 S
O350 Mg337 2.061 1_455 S
O350 C344 1.247 . S
O351 Mg340 2.107 . S
O351 Mg343 2.238 1_554 S
O351 C344 1.289 . S
C352 O353 1.245 . S
C352 O354 1.274 . S
O353 Mg340 2.080 1_655 S
O353 C352 1.245 . S
O354 Mg339 2.038 . S
O354 C352 1.274 . S
O355 Mg343 2.042 . S
O355 C358 1.241 . S
O356 Mg342 1.984 . S
O356 C358 1.280 . S
O357 Mg343 2.041 1_554 S
O357 C361 1.277 . S
C358 O355 1.241 . S
C358 O356 1.280 . S
O359 Mg342 1.988 1_554 S
O359 C361 1.245 . S
O360 C336 1.247 . S
O360 Mg342 2.061 1_655 S
C361 O357 1.277 . S
C361 O359 1.245 . S
O362 C336 1.289 . S
O362 Mg339 2.238 1_556 S
O362 Mg340 2.105 1_656 S
O363 Mg340 2.077 1_556 S
O363 C345 1.245 . S
O364 Mg343 2.038 . S
O364 C345 1.274 . S
C365 O377 1.241 . S
C365 O378 1.280 . S
C366 O379 1.277 . S
C366 O380 1.245 . S
C367 O391 1.247 . S
C367 O393 1.289 . S
Mg368 O369 1.926 . S
Mg368 O378 1.984 . S
Mg368 O380 1.988 1_554 S
Mg368 O381 2.061 . S
O369 Mg368 1.926 . S
O369 Mg370 1.986 . S
O369 Mg371 1.917 . S
Mg370 O369 1.986 . S
Mg370 O377 2.042 . S
Mg370 O379 2.041 1_554 S
Mg370 O385 2.038 . S
Mg370 O393 2.238 1_554 S
Mg371 O369 1.917 . S
Mg371 O372 1.916 1_554 S
Mg371 O382 2.107 . S
Mg371 O384 2.080 . S
Mg371 O393 2.105 1_554 S
Mg371 O394 2.077 1_554 S
O372 Mg371 1.916 1_556 S
O372 Mg373 1.926 . S
O372 Mg374 1.986 . S
Mg373 O372 1.926 . S
Mg373 O387 1.984 . S
Mg373 O390 1.988 1_556 S
Mg373 O391 2.061 . S
Mg374 O372 1.986 . S
Mg374 O382 2.238 1_556 S
Mg374 O386 2.042 . S
Mg374 O388 2.041 1_556 S
Mg374 O395 2.038 . S
C375 O381 1.247 . S
C375 O382 1.289 . S
C376 O394 1.245 . S
C376 O395 1.274 . S
O377 C365 1.241 . S
O377 Mg370 2.042 . S
O378 C365 1.280 . S
O378 Mg368 1.984 . S
O379 C366 1.277 . S
O379 Mg370 2.041 1_556 S
O380 C366 1.245 . S
O380 Mg368 1.988 1_556 S
O381 Mg368 2.061 . S
O381 C375 1.247 . S
O382 Mg371 2.107 . S
O382 Mg374 2.238 1_554 S
O382 C375 1.289 . S
C383 O384 1.245 . S
C383 O385 1.274 . S
O384 Mg371 2.080 . S
O384 C383 1.245 . S
O385 Mg370 2.038 . S
O385 C383 1.274 . S
O386 Mg374 2.042 . S
O386 C389 1.241 . S
O387 Mg373 1.984 . S
O387 C389 1.280 . S
O388 Mg374 2.041 1_554 S
O388 C392 1.277 . S
C389 O386 1.241 . S
C389 O387 1.280 . S
O390 Mg373 1.988 1_554 S
O390 C392 1.245 . S
O391 C367 1.247 . S
O391 Mg373 2.061 . S
C392 O388 1.277 . S
C392 O390 1.245 . S
O393 C367 1.289 . S
O393 Mg370 2.238 1_556 S
O393 Mg371 2.105 1_556 S
O394 Mg371 2.077 1_556 S
O394 C376 1.245 . S
O395 Mg374 2.038 . S
O395 C376 1.274 . S
C396 O408 1.241 . S
C396 O409 1.280 . S
C397 O410 1.277 . S
C397 O411 1.245 . S
C398 O422 1.247 . S
C398 O424 1.289 . S
Mg399 O400 1.926 . S
Mg399 O409 1.984 . S
Mg399 O411 1.988 . S
Mg399 O412 2.061 1_655 S
O400 Mg399 1.926 . S
O400 Mg401 1.986 . S
O400 Mg402 1.917 1_655 S
Mg401 O400 1.986 . S
Mg401 O408 2.042 . S
Mg401 O410 2.041 . S
Mg401 O416 2.038 . S
Mg401 O424 2.238 . S
Mg402 O400 1.917 1_455 S
Mg402 O403 1.917 . S
Mg402 O413 2.106 . S
Mg402 O415 2.079 1_455 S
Mg402 O424 2.106 1_455 S
Mg402 O425 2.079 . S
O403 Mg402 1.917 . S
O403 Mg404 1.926 . S
O403 Mg405 1.986 . S
Mg404 O403 1.926 . S
Mg404 O418 1.984 . S
Mg404 O421 1.988 . S
Mg404 O422 2.061 1_455 S
Mg405 O403 1.986 . S
Mg405 O413 2.238 . S
Mg405 O417 2.042 . S
Mg405 O419 2.041 . S
Mg405 O426 2.038 . S
C406 O412 1.247 . S
C406 O413 1.289 . S
C407 O425 1.245 . S
C407 O426 1.274 . S
O408 C396 1.241 . S
O408 Mg401 2.042 . S
O409 C396 1.280 . S
O409 Mg399 1.984 . S
O410 C397 1.277 . S
O410 Mg401 2.041 . S
O411 C397 1.245 . S
O411 Mg399 1.988 . S
O412 Mg399 2.061 1_455 S
O412 C406 1.247 . S
O413 Mg402 2.106 . S
O413 Mg405 2.238 . S
O413 C406 1.289 . S
C414 O415 1.245 . S
C414 O416 1.274 . S
O415 Mg402 2.079 1_655 S
O415 C414 1.245 . S
O416 Mg401 2.038 . S
O416 C414 1.274 . S
O417 Mg405 2.042 . S
O417 C420 1.241 . S
O418 Mg404 1.984 . S
O418 C420 1.280 . S
O419 Mg405 2.041 . S
O419 C423 1.277 . S
C420 O417 1.241 . S
C420 O418 1.280 . S
O421 Mg404 1.988 . S
O421 C423 1.245 . S
O422 C398 1.247 . S
O422 Mg404 2.061 1_655 S
C423 O419 1.277 . S
C423 O421 1.245 . S
O424 C398 1.289 . S
O424 Mg401 2.238 . S
O424 Mg402 2.106 1_655 S
O425 Mg402 2.079 . S
O425 C407 1.245 . S
O426 Mg405 2.038 . S
O426 C407 1.274 . S
C427 O439 1.241 . S
C427 O440 1.280 . S
C428 O441 1.277 . S
C428 O442 1.245 . S
C429 O453 1.247 . S
C429 O455 1.289 . S
Mg430 O431 1.926 . S
Mg430 O440 1.984 . S
Mg430 O442 1.988 . S
Mg430 O443 2.061 . S
O431 Mg430 1.926 . S
O431 Mg432 1.986 . S
O431 Mg433 1.917 . S
Mg432 O431 1.986 . S
Mg432 O439 2.042 . S
Mg432 O441 2.041 . S
Mg432 O447 2.038 1_545 S
Mg432 O455 2.238 1_545 S
Mg433 O431 1.917 . S
Mg433 O434 1.917 1_545 S
Mg433 O444 2.106 . S
Mg433 O446 2.079 1_545 S
Mg433 O455 2.106 1_545 S
Mg433 O456 2.079 . S
O434 Mg433 1.917 1_565 S
O434 Mg435 1.926 . S
O434 Mg436 1.986 . S
Mg435 O434 1.926 . S
Mg435 O449 1.984 . S
Mg435 O452 1.988 . S
Mg435 O453 2.061 . S
Mg436 O434 1.986 . S
Mg436 O444 2.238 1_565 S
Mg436 O448 2.042 . S
Mg436 O450 2.041 . S
Mg436 O457 2.038 1_565 S
C437 O443 1.247 . S
C437 O444 1.289 . S
C438 O456 1.245 . S
C438 O457 1.274 . S
O439 C427 1.241 . S
O439 Mg432 2.042 . S
O440 C427 1.280 . S
O440 Mg430 1.984 . S
O441 C428 1.277 . S
O441 Mg432 2.041 . S
O442 C428 1.245 . S
O442 Mg430 1.988 . S
O443 Mg430 2.061 . S
O443 C437 1.247 . S
O444 Mg433 2.106 . S
O444 Mg436 2.238 1_545 S
O444 C437 1.289 . S
C445 O446 1.245 . S
C445 O447 1.274 . S
O446 Mg433 2.079 1_565 S
O446 C445 1.245 . S
O447 Mg432 2.038 1_565 S
O447 C445 1.274 . S
O448 Mg436 2.042 . S
O448 C451 1.241 . S
O449 Mg435 1.984 . S
O449 C451 1.280 . S
O450 Mg436 2.041 . S
O450 C454 1.277 . S
C451 O448 1.241 . S
C451 O449 1.280 . S
O452 Mg435 1.988 . S
O452 C454 1.245 . S
O453 C429 1.247 . S
O453 Mg435 2.061 . S
C454 O450 1.277 . S
C454 O452 1.245 . S
O455 C429 1.289 . S
O455 Mg432 2.238 1_565 S
O455 Mg433 2.106 1_565 S
O456 Mg433 2.079 . S
O456 C438 1.245 . S
O457 Mg436 2.038 1_545 S
O457 C438 1.274 . S
C458 C459 1.363 . S
C458 C464 1.379 . S
C458 N466 1.356 . S
C459 C458 1.363 . S
C459 C465 1.363 . S
C460 C461 1.363 . S
C460 C465 1.379 . S
C460 N467 1.356 . S
C461 C460 1.363 . S
C461 C464 1.363 . S
N462 C464 1.356 . S
N462 H474 0.984 1_545 S
N462 H475 0.985 . S
N463 C465 1.356 . S
N463 H468 0.984 . S
N463 H469 0.985 . S
C464 C458 1.379 . S
C464 C461 1.363 . S
C464 N462 1.356 . S
C465 C459 1.363 . S
C465 C460 1.379 . S
C465 N463 1.356 . S
N466 C458 1.356 . S
N466 H472 0.984 . S
N466 H473 0.984 . S
N467 C460 1.356 . S
N467 H470 0.984 . S
N467 H471 0.985 . S
H468 N463 0.984 . S
H469 N463 0.985 . S
H470 N467 0.984 . S
H471 N467 0.985 . S
H472 N466 0.984 . S
H473 N466 0.984 . S
H474 N462 0.984 1_565 S
H475 N462 0.985 . S
C476 C477 1.363 . S
C476 C482 1.379 . S
C476 N484 1.356 . S
C477 C476 1.363 . S
C477 C483 1.363 . S
C478 C479 1.363 . S
C478 C483 1.379 . S
C478 N485 1.356 . S
C479 C478 1.363 . S
C479 C482 1.363 . S
N480 C482 1.356 . S
N480 H492 0.984 . S
N480 H493 0.985 . S
N481 C483 1.356 . S
N481 H486 0.984 . S
N481 H487 0.985 . S
C482 C476 1.379 . S
C482 C479 1.363 . S
C482 N480 1.356 . S
C483 C477 1.363 . S
C483 C478 1.379 . S
C483 N481 1.356 . S
N484 C476 1.356 . S
N484 H490 0.984 . S
N484 H491 0.984 . S
N485 C478 1.356 . S
N485 H488 0.984 . S
N485 H489 0.985 . S
H486 N481 0.984 . S
H487 N481 0.985 . S
H488 N485 0.984 . S
H489 N485 0.985 . S
H490 N484 0.984 . S
H491 N484 0.984 . S
H492 N480 0.984 . S
H493 N480 0.985 . S
C494 C495 1.363 . S
C494 C500 1.379 . S
C494 N502 1.356 . S
C495 C494 1.363 . S
C495 C501 1.363 . S
C496 C497 1.363 . S
C496 C501 1.379 . S
C496 N503 1.354 1_565 S
C497 C496 1.363 . S
C497 C500 1.363 . S
N498 C500 1.356 . S
N498 H510 0.984 . S
N498 H511 0.985 . S
N499 C501 1.356 . S
N499 H504 0.984 . S
N499 H505 0.985 1_565 S
C500 C494 1.379 . S
C500 C497 1.363 . S
C500 N498 1.356 . S
C501 C495 1.363 . S
C501 C496 1.379 . S
C501 N499 1.356 . S
N502 C494 1.356 . S
N502 H508 0.984 . S
N502 H509 0.984 . S
N503 C496 1.354 1_545 S
N503 H506 0.985 1_545 S
N503 H507 0.987 . S
H504 N499 0.984 . S
H505 N499 0.985 1_545 S
H506 N503 0.985 1_565 S
H507 N503 0.987 . S
H508 N502 0.984 . S
H509 N502 0.984 . S
H510 N498 0.984 . S
H511 N498 0.985 . S
C512 C513 1.363 . S
C512 C518 1.379 . S
C512 N520 1.356 . S
C513 C512 1.363 . S
C513 C519 1.363 . S
C514 C515 1.363 . S
C514 C519 1.379 . S
C514 N521 1.356 . S
C515 C514 1.363 . S
C515 C518 1.363 . S
N516 C518 1.356 . S
N516 H528 0.984 . S
N516 H529 0.985 . S
N517 C519 1.356 . S
N517 H522 0.984 . S
N517 H523 0.985 . S
C518 C512 1.379 . S
C518 C515 1.363 . S
C518 N516 1.356 . S
C519 C513 1.363 . S
C519 C514 1.379 . S
C519 N517 1.356 . S
N520 C512 1.356 . S
N520 H526 0.984 . S
N520 H527 0.984 . S
N521 C514 1.356 . S
N521 H524 0.984 . S
N521 H525 0.985 . S
H522 N517 0.984 . S
H523 N517 0.985 . S
H524 N521 0.984 . S
H525 N521 0.985 . S
H526 N520 0.984 . S
H527 N520 0.984 . S
H528 N516 0.984 . S
H529 N516 0.985 . S
C530 C531 1.363 . S
C530 C536 1.379 . S
C530 N538 1.356 . S
C531 C530 1.363 . S
C531 C537 1.363 . S
C532 C533 1.363 . S
C532 C537 1.379 . S
C532 N539 1.356 . S
C533 C532 1.363 . S
C533 C536 1.363 . S
N534 C536 1.356 . S
N534 H546 0.984 . S
N534 H547 0.985 . S
N535 C537 1.356 . S
N535 H540 0.984 . S
N535 H541 0.985 . S
C536 C530 1.379 . S
C536 C533 1.363 . S
C536 N534 1.356 . S
C537 C531 1.363 . S
C537 C532 1.379 . S
C537 N535 1.356 . S
N538 C530 1.356 . S
N538 H544 0.984 . S
N538 H545 0.984 . S
N539 C532 1.356 . S
N539 H542 0.984 . S
N539 H543 0.985 . S
H540 N535 0.984 . S
H541 N535 0.985 . S
H542 N539 0.984 . S
H543 N539 0.985 . S
H544 N538 0.984 . S
H545 N538 0.984 . S
H546 N534 0.984 . S
H547 N534 0.985 . S
C548 C549 1.363 . S
C548 C554 1.379 . S
C548 N556 1.356 . S
C549 C548 1.363 . S
C549 C555 1.363 . S
C550 C551 1.363 . S
C550 C555 1.379 . S
C550 N557 1.356 . S
C551 C550 1.363 . S
C551 C554 1.363 . S
N552 C554 1.356 . S
N552 H564 0.984 1_455 S
N552 H565 0.985 . S
N553 C555 1.356 . S
N553 H558 0.984 . S
N553 H559 0.985 . S
C554 C548 1.379 . S
C554 C551 1.363 . S
C554 N552 1.356 . S
C555 C549 1.363 . S
C555 C550 1.379 . S
C555 N553 1.356 . S
N556 C548 1.356 . S
N556 H562 0.984 . S
N556 H563 0.984 . S
N557 C550 1.356 . S
N557 H560 0.984 . S
N557 H561 0.985 . S
H558 N553 0.984 . S
H559 N553 0.985 . S
H560 N557 0.984 . S
H561 N557 0.985 . S
H562 N556 0.984 . S
H563 N556 0.984 . S
H564 N552 0.984 1_655 S
H565 N552 0.985 . S
C566 C567 1.363 . S
C566 C572 1.379 . S
C566 N574 1.356 . S
C567 C566 1.363 . S
C567 C573 1.363 . S
C568 C569 1.363 . S
C568 C573 1.379 . S
C568 N575 1.356 . S
C569 C568 1.363 . S
C569 C572 1.363 . S
N570 C572 1.356 . S
N570 H582 0.984 . S
N570 H583 0.985 . S
N571 C573 1.356 . S
N571 H576 0.984 . S
N571 H577 0.985 . S
C572 C566 1.379 . S
C572 C569 1.363 . S
C572 N570 1.356 . S
C573 C567 1.363 . S
C573 C568 1.379 . S
C573 N571 1.356 . S
N574 C566 1.356 . S
N574 H580 0.984 . S
N574 H581 0.984 . S
N575 C568 1.356 . S
N575 H578 0.984 . S
N575 H579 0.985 . S
H576 N571 0.984 . S
H577 N571 0.985 . S
H578 N575 0.984 . S
H579 N575 0.985 . S
H580 N574 0.984 . S
H581 N574 0.984 . S
H582 N570 0.984 . S
H583 N570 0.985 . S
C584 C585 1.363 . S
C584 C590 1.379 . S
C584 N592 1.356 . S
C585 C584 1.363 . S
C585 C591 1.363 . S
C586 C587 1.363 . S
C586 C591 1.379 . S
C586 N593 1.356 . S
C587 C586 1.363 . S
C587 C590 1.363 . S
N588 C590 1.356 1_545 S
N588 H600 0.984 . S
N588 H601 0.985 . S
N589 C591 1.356 . S
N589 H594 0.984 . S
N589 H595 0.985 . S
C590 C584 1.379 . S
C590 C587 1.363 . S
C590 N588 1.356 1_565 S
C591 C585 1.363 . S
C591 C586 1.379 . S
C591 N589 1.356 . S
N592 C584 1.356 . S
N592 H598 0.984 1_565 S
N592 H599 0.984 . S
N593 C586 1.356 . S
N593 H596 0.984 . S
N593 H597 0.985 . S
H594 N589 0.984 . S
H595 N589 0.985 . S
H596 N593 0.984 . S
H597 N593 0.985 . S
H598 N592 0.984 1_545 S
H599 N592 0.984 . S
H600 N588 0.984 . S
H601 N588 0.985 . S
C602 C603 1.363 . S
C602 C608 1.379 . S
C602 N610 1.356 . S
C603 C602 1.363 . S
C603 C609 1.363 . S
C604 C605 1.363 . S
C604 C609 1.379 . S
C604 N611 1.356 . S
C605 C604 1.363 . S
C605 C608 1.363 . S
N606 C608 1.356 . S
N606 H618 0.984 . S
N606 H619 0.985 . S
N607 C609 1.356 . S
N607 H612 0.984 . S
N607 H613 0.985 . S
C608 C602 1.379 . S
C608 C605 1.363 . S
C608 N606 1.356 . S
C609 C603 1.363 . S
C609 C604 1.379 . S
C609 N607 1.356 . S
N610 C602 1.356 . S
N610 H616 0.984 . S
N610 H617 0.984 . S
N611 C604 1.356 . S
N611 H614 0.984 . S
N611 H615 0.985 . S
H612 N607 0.984 . S
H613 N607 0.985 . S
H614 N611 0.984 . S
H615 N611 0.985 . S
H616 N610 0.984 . S
H617 N610 0.984 . S
H618 N606 0.984 . S
H619 N606 0.985 . S
C620 C621 1.363 . S
C620 C626 1.379 . S
C620 N628 1.356 . S
C621 C620 1.363 . S
C621 C627 1.363 . S
C622 C623 1.363 . S
C622 C627 1.379 . S
C622 N629 1.356 . S
C623 C622 1.363 . S
C623 C626 1.363 . S
N624 C626 1.356 . S
N624 H636 0.984 . S
N624 H637 0.985 . S
N625 C627 1.356 . S
N625 H630 0.984 . S
N625 H631 0.985 . S
C626 C620 1.379 . S
C626 C623 1.363 . S
C626 N624 1.356 . S
C627 C621 1.363 . S
C627 C622 1.379 . S
C627 N625 1.356 . S
N628 C620 1.356 . S
N628 H634 0.984 . S
N628 H635 0.984 . S
N629 C622 1.356 . S
N629 H632 0.984 . S
N629 H633 0.985 . S
H630 N625 0.984 . S
H631 N625 0.985 . S
H632 N629 0.984 . S
H633 N629 0.985 . S
H634 N628 0.984 . S
H635 N628 0.984 . S
H636 N624 0.984 . S
H637 N624 0.985 . S
C638 C639 1.363 . S
C638 C644 1.379 . S
C638 N646 1.356 . S
C639 C638 1.363 . S
C639 C645 1.363 . S
C640 C641 1.363 . S
C640 C645 1.379 . S
C640 N647 1.356 . S
C641 C640 1.363 . S
C641 C644 1.363 . S
N642 C644 1.356 . S
N642 H654 0.984 . S
N642 H655 0.985 . S
N643 C645 1.356 . S
N643 H648 0.984 . S
N643 H649 0.985 . S
C644 C638 1.379 . S
C644 C641 1.363 . S
C644 N642 1.356 . S
C645 C639 1.363 . S
C645 C640 1.379 . S
C645 N643 1.356 . S
N646 C638 1.356 . S
N646 H652 0.984 . S
N646 H653 0.984 . S
N647 C640 1.356 . S
N647 H650 0.984 . S
N647 H651 0.985 . S
H648 N643 0.984 . S
H649 N643 0.985 . S
H650 N647 0.984 . S
H651 N647 0.985 . S
H652 N646 0.984 . S
H653 N646 0.984 . S
H654 N642 0.984 . S
H655 N642 0.985 . S
C656 C657 1.363 . S
C656 C662 1.379 . S
C656 N664 1.356 . S
C657 C656 1.363 . S
C657 C663 1.363 . S
C658 C659 1.363 . S
C658 C663 1.379 . S
C658 N665 1.356 . S
C659 C658 1.363 . S
C659 C662 1.363 . S
N660 C662 1.356 . S
N660 H672 0.984 1_455 S
N660 H673 0.985 . S
N661 C663 1.356 . S
N661 H666 0.984 . S
N661 H667 0.985 . S
C662 C656 1.379 . S
C662 C659 1.363 . S
C662 N660 1.356 . S
C663 C657 1.363 . S
C663 C658 1.379 . S
C663 N661 1.356 . S
N664 C656 1.356 . S
N664 H670 0.984 . S
N664 H671 0.984 . S
N665 C658 1.356 . S
N665 H668 0.984 . S
N665 H669 0.985 . S
H666 N661 0.984 . S
H667 N661 0.985 . S
H668 N665 0.984 . S
H669 N665 0.985 . S
H670 N664 0.984 . S
H671 N664 0.984 . S
H672 N660 0.984 1_655 S
H673 N660 0.985 . S
C674 C675 1.363 . S
C674 C680 1.379 . S
C674 N682 1.356 . S
C675 C674 1.363 . S
C675 C681 1.363 . S
C676 C677 1.363 . S
C676 C681 1.379 . S
C676 N683 1.356 . S
C677 C676 1.363 . S
C677 C680 1.363 . S
N678 C680 1.356 . S
N678 H690 0.984 . S
N678 H691 0.985 . S
N679 C681 1.356 . S
N679 H684 0.984 . S
N679 H685 0.985 . S
C680 C674 1.379 . S
C680 C677 1.363 . S
C680 N678 1.356 . S
C681 C675 1.363 . S
C681 C676 1.379 . S
C681 N679 1.356 . S
N682 C674 1.356 . S
N682 H688 0.984 . S
N682 H689 0.984 . S
N683 C676 1.356 . S
N683 H686 0.984 . S
N683 H687 0.985 1_556 S
H684 N679 0.984 . S
H685 N679 0.985 . S
H686 N683 0.984 . S
H687 N683 0.985 1_554 S
H688 N682 0.984 . S
H689 N682 0.984 . S
H690 N678 0.984 . S
H691 N678 0.985 . S
C692 C693 1.363 . S
C692 C698 1.379 . S
C692 N700 1.356 . S
C693 C692 1.363 . S
C693 C699 1.363 . S
C694 C695 1.363 . S
C694 C699 1.379 . S
C694 N701 1.356 . S
C695 C694 1.363 . S
C695 C698 1.363 . S
N696 C698 1.356 . S
N696 H708 0.984 . S
N696 H709 0.985 . S
N697 C699 1.356 . S
N697 H702 0.984 . S
N697 H703 0.985 . S
C698 C692 1.379 . S
C698 C695 1.363 . S
C698 N696 1.356 . S
C699 C693 1.363 . S
C699 C694 1.379 . S
C699 N697 1.356 . S
N700 C692 1.356 . S
N700 H706 0.984 . S
N700 H707 0.984 . S
N701 C694 1.356 . S
N701 H704 0.984 . S
N701 H705 0.985 . S
H702 N697 0.984 . S
H703 N697 0.985 . S
H704 N701 0.984 . S
H705 N701 0.985 . S
H706 N700 0.984 . S
H707 N700 0.984 . S
H708 N696 0.984 . S
H709 N696 0.985 . S
C710 C711 1.363 . S
C710 C716 1.379 . S
C710 N718 1.356 . S
C711 C710 1.363 . S
C711 C717 1.363 . S
C712 C713 1.363 . S
C712 C717 1.379 . S
C712 N719 1.356 . S
C713 C712 1.363 . S
C713 C716 1.363 . S
N714 C716 1.356 . S
N714 H726 0.984 . S
N714 H727 0.985 . S
N715 C717 1.356 . S
N715 H720 0.984 . S
N715 H721 0.985 . S
C716 C710 1.379 . S
C716 C713 1.363 . S
C716 N714 1.356 . S
C717 C711 1.363 . S
C717 C712 1.379 . S
C717 N715 1.356 . S
N718 C710 1.356 . S
N718 H724 0.984 . S
N718 H725 0.984 . S
N719 C712 1.356 . S
N719 H722 0.984 . S
N719 H723 0.985 . S
H720 N715 0.984 . S
H721 N715 0.985 . S
H722 N719 0.984 . S
H723 N719 0.985 . S
H724 N718 0.984 . S
H725 N718 0.984 . S
H726 N714 0.984 . S
H727 N714 0.985 . S
C728 C729 1.363 . S
C728 C734 1.379 . S
C728 N736 1.356 . S
C729 C728 1.363 . S
C729 C735 1.363 . S
C730 C731 1.363 . S
C730 C735 1.379 . S
C730 N737 1.356 . S
C731 C730 1.363 . S
C731 C734 1.363 . S
N732 C734 1.356 . S
N732 H744 0.984 . S
N732 H745 0.985 . S
N733 C735 1.356 . S
N733 H738 0.984 . S
N733 H739 0.985 . S
C734 C728 1.379 . S
C734 C731 1.363 . S
C734 N732 1.356 . S
C735 C729 1.363 . S
C735 C730 1.379 . S
C735 N733 1.356 . S
N736 C728 1.356 . S
N736 H742 0.984 . S
N736 H743 0.984 . S
N737 C730 1.356 . S
N737 H740 0.984 . S
N737 H741 0.985 . S
H738 N733 0.984 . S
H739 N733 0.985 . S
H740 N737 0.984 . S
H741 N737 0.985 . S
H742 N736 0.984 . S
H743 N736 0.984 . S
H744 N732 0.984 . S
H745 N732 0.985 . S
C746 C747 1.363 . S
C746 C752 1.379 . S
C746 N754 1.356 . S
C747 C746 1.363 . S
C747 C753 1.363 . S
C748 C749 1.363 . S
C748 C753 1.379 . S
C748 N755 1.356 . S
C749 C748 1.363 . S
C749 C752 1.363 . S
N750 C752 1.356 . S
N750 H762 0.984 . S
N750 H763 0.985 . S
N751 C753 1.356 . S
N751 H756 0.984 . S
N751 H757 0.985 . S
C752 C746 1.379 . S
C752 C749 1.363 . S
C752 N750 1.356 . S
C753 C747 1.363 . S
C753 C748 1.379 . S
C753 N751 1.356 . S
N754 C746 1.356 . S
N754 H760 0.984 . S
N754 H761 0.984 . S
N755 C748 1.356 . S
N755 H758 0.984 . S
N755 H759 0.985 . S
H756 N751 0.984 . S
H757 N751 0.985 . S
H758 N755 0.984 . S
H759 N755 0.985 . S
H760 N754 0.984 . S
H761 N754 0.984 . S
H762 N750 0.984 . S
H763 N750 0.985 . S
C764 C765 1.363 . S
C764 C770 1.379 . S
C764 N772 1.356 . S
C765 C764 1.363 . S
C765 C771 1.363 . S
C766 C767 1.363 . S
C766 C771 1.379 . S
C766 N773 1.356 . S
C767 C766 1.363 . S
C767 C770 1.363 . S
N768 C770 1.356 . S
N768 H780 0.984 . S
N768 H781 0.985 . S
N769 C771 1.356 . S
N769 H774 0.984 . S
N769 H775 0.985 . S
C770 C764 1.379 . S
C770 C767 1.363 . S
C770 N768 1.356 . S
C771 C765 1.363 . S
C771 C766 1.379 . S
C771 N769 1.356 . S
N772 C764 1.356 . S
N772 H778 0.984 . S
N772 H779 0.984 . S
N773 C766 1.356 . S
N773 H776 0.984 . S
N773 H777 0.985 . S
H774 N769 0.984 . S
H775 N769 0.985 . S
H776 N773 0.984 . S
H777 N773 0.985 . S
H778 N772 0.984 . S
H779 N772 0.984 . S
H780 N768 0.984 . S
H781 N768 0.985 . S
C782 C783 1.363 . S
C782 C788 1.379 . S
C782 N790 1.356 . S
C783 C782 1.363 . S
C783 C789 1.363 . S
C784 C785 1.363 . S
C784 C789 1.379 . S
C784 N791 1.356 . S
C785 C784 1.363 . S
C785 C788 1.363 . S
N786 C788 1.356 . S
N786 H798 0.984 . S
N786 H799 0.985 . S
N787 C789 1.356 . S
N787 H792 0.984 . S
N787 H793 0.985 . S
C788 C782 1.379 . S
C788 C785 1.363 . S
C788 N786 1.356 . S
C789 C783 1.363 . S
C789 C784 1.379 . S
C789 N787 1.356 . S
N790 C782 1.356 . S
N790 H796 0.984 . S
N790 H797 0.984 . S
N791 C784 1.356 . S
N791 H794 0.984 . S
N791 H795 0.985 . S
H792 N787 0.984 . S
H793 N787 0.985 . S
H794 N791 0.984 . S
H795 N791 0.985 . S
H796 N790 0.984 . S
H797 N790 0.984 . S
H798 N786 0.984 . S
H799 N786 0.985 . S
C800 C801 1.363 . S
C800 C806 1.379 . S
C800 N808 1.356 . S
C801 C800 1.363 . S
C801 C807 1.363 . S
C802 C803 1.363 . S
C802 C807 1.379 . S
C802 N809 1.356 . S
C803 C802 1.363 . S
C803 C806 1.363 . S
N804 C806 1.356 . S
N804 H816 0.984 1_556 S
N804 H817 0.985 . S
N805 C807 1.356 . S
N805 H810 0.984 . S
N805 H811 0.985 . S
C806 C800 1.379 . S
C806 C803 1.363 . S
C806 N804 1.356 . S
C807 C801 1.363 . S
C807 C802 1.379 . S
C807 N805 1.356 . S
N808 C800 1.356 . S
N808 H814 0.984 . S
N808 H815 0.984 . S
N809 C802 1.356 . S
N809 H812 0.984 . S
N809 H813 0.985 . S
H810 N805 0.984 . S
H811 N805 0.985 . S
H812 N809 0.984 . S
H813 N809 0.985 . S
H814 N808 0.984 . S
H815 N808 0.984 . S
H816 N804 0.984 1_554 S
H817 N804 0.985 . S
C818 C819 1.363 . S
C818 C824 1.379 . S
C818 N826 1.356 . S
C819 C818 1.363 . S
C819 C825 1.363 . S
C820 C821 1.363 . S
C820 C825 1.379 . S
C820 N827 1.356 . S
C821 C820 1.363 . S
C821 C824 1.363 . S
N822 C824 1.356 . S
N822 H834 0.984 . S
N822 H835 0.985 . S
N823 C825 1.356 . S
N823 H828 0.984 . S
N823 H829 0.985 . S
C824 C818 1.379 . S
C824 C821 1.363 . S
C824 N822 1.356 . S
C825 C819 1.363 . S
C825 C820 1.379 . S
C825 N823 1.356 . S
N826 C818 1.356 . S
N826 H832 0.984 . S
N826 H833 0.984 . S
N827 C820 1.356 . S
N827 H830 0.984 . S
N827 H831 0.985 . S
H828 N823 0.984 . S
H829 N823 0.985 . S
H830 N827 0.984 . S
H831 N827 0.985 . S
H832 N826 0.984 . S
H833 N826 0.984 . S
H834 N822 0.984 . S
H835 N822 0.985 . S
C836 C837 1.363 . S
C836 C842 1.379 . S
C836 N844 1.356 . S
C837 C836 1.363 . S
C837 C843 1.363 . S
C838 C839 1.363 . S
C838 C843 1.379 . S
C838 N845 1.356 . S
C839 C838 1.363 . S
C839 C842 1.363 . S
N840 C842 1.356 . S
N840 H852 0.984 . S
N840 H853 0.985 . S
N841 C843 1.356 . S
N841 H846 0.984 . S
N841 H847 0.985 . S
C842 C836 1.379 . S
C842 C839 1.363 . S
C842 N840 1.356 . S
C843 C837 1.363 . S
C843 C838 1.379 . S
C843 N841 1.356 . S
N844 C836 1.356 . S
N844 H850 0.984 . S
N844 H851 0.984 . S
N845 C838 1.356 . S
N845 H848 0.984 . S
N845 H849 0.985 . S
H846 N841 0.984 . S
H847 N841 0.985 . S
H848 N845 0.984 . S
H849 N845 0.985 . S
H850 N844 0.984 . S
H851 N844 0.984 . S
H852 N840 0.984 . S
H853 N840 0.985 . S
C854 C855 1.363 . S
C854 C860 1.379 . S
C854 N862 1.356 . S
C855 C854 1.363 . S
C855 C861 1.363 . S
C856 C857 1.363 . S
C856 C861 1.379 . S
C856 N863 1.356 . S
C857 C856 1.363 . S
C857 C860 1.363 . S
N858 C860 1.356 . S
N858 H870 0.984 . S
N858 H871 0.985 . S
N859 C861 1.356 . S
N859 H864 0.984 . S
N859 H865 0.985 . S
C860 C854 1.379 . S
C860 C857 1.363 . S
C860 N858 1.356 . S
C861 C855 1.363 . S
C861 C856 1.379 . S
C861 N859 1.356 . S
N862 C854 1.356 . S
N862 H868 0.984 . S
N862 H869 0.984 . S
N863 C856 1.356 . S
N863 H866 0.984 . S
N863 H867 0.985 1_565 S
H864 N859 0.984 . S
H865 N859 0.985 . S
H866 N863 0.984 . S
H867 N863 0.985 1_545 S
H868 N862 0.984 . S
H869 N862 0.984 . S
H870 N858 0.984 . S
H871 N858 0.985 . S
C872 C873 1.363 . S
C872 C878 1.379 . S
C872 N880 1.356 . S
C873 C872 1.363 . S
C873 C879 1.363 . S
C874 C875 1.363 . S
C874 C879 1.379 . S
C874 N881 1.356 . S
C875 C874 1.363 . S
C875 C878 1.363 . S
N876 C878 1.356 1_565 S
N876 H888 0.984 . S
N876 H889 0.985 . S
N877 C879 1.356 . S
N877 H882 0.984 . S
N877 H883 0.985 . S
C878 C872 1.379 . S
C878 C875 1.363 . S
C878 N876 1.356 1_545 S
C879 C873 1.363 . S
C879 C874 1.379 . S
C879 N877 1.356 . S
N880 C872 1.356 . S
N880 H886 0.984 1_545 S
N880 H887 0.984 . S
N881 C874 1.356 . S
N881 H884 0.984 . S
N881 H885 0.985 . S
H882 N877 0.984 . S
H883 N877 0.985 . S
H884 N881 0.984 . S
H885 N881 0.985 . S
H886 N880 0.984 1_565 S
H887 N880 0.984 . S
H888 N876 0.984 . S
H889 N876 0.985 . S
C890 C891 1.363 . S
C890 C896 1.379 . S
C890 N898 1.356 . S
C891 C890 1.363 . S
C891 C897 1.363 . S
C892 C893 1.363 . S
C892 C897 1.379 . S
C892 N899 1.356 . S
C893 C892 1.363 . S
C893 C896 1.363 . S
N894 C896 1.356 . S
N894 H906 0.984 . S
N894 H907 0.985 . S
N895 C897 1.356 . S
N895 H900 0.984 . S
N895 H901 0.985 . S
C896 C890 1.379 . S
C896 C893 1.363 . S
C896 N894 1.356 . S
C897 C891 1.363 . S
C897 C892 1.379 . S
C897 N895 1.356 . S
N898 C890 1.356 . S
N898 H904 0.984 . S
N898 H905 0.984 . S
N899 C892 1.356 . S
N899 H902 0.984 . S
N899 H903 0.985 . S
H900 N895 0.984 . S
H901 N895 0.985 . S
H902 N899 0.984 . S
H903 N899 0.985 . S
H904 N898 0.984 . S
H905 N898 0.984 . S
H906 N894 0.984 . S
H907 N894 0.985 . S
C908 C909 1.363 . S
C908 C914 1.379 . S
C908 N916 1.356 . S
C909 C908 1.363 . S
C909 C915 1.363 . S
C910 C911 1.363 . S
C910 C915 1.379 . S
C910 N917 1.356 . S
C911 C910 1.363 . S
C911 C914 1.363 . S
N912 C914 1.356 . S
N912 H924 0.984 . S
N912 H925 0.985 . S
N913 C915 1.356 . S
N913 H918 0.984 . S
N913 H919 0.985 . S
C914 C908 1.379 . S
C914 C911 1.363 . S
C914 N912 1.356 . S
C915 C909 1.363 . S
C915 C910 1.379 . S
C915 N913 1.356 . S
N916 C908 1.356 . S
N916 H922 0.984 . S
N916 H923 0.984 . S
N917 C910 1.356 . S
N917 H920 0.984 . S
N917 H921 0.985 . S
H918 N913 0.984 . S
H919 N913 0.985 . S
H920 N917 0.984 . S
H921 N917 0.985 . S
H922 N916 0.984 . S
H923 N916 0.984 . S
H924 N912 0.984 . S
H925 N912 0.985 . S
C926 C927 1.363 . S
C926 C932 1.379 . S
C926 N934 1.356 . S
C927 C926 1.363 . S
C927 C933 1.363 . S
C928 C929 1.363 . S
C928 C933 1.379 . S
C928 N935 1.356 . S
C929 C928 1.363 . S
C929 C932 1.363 . S
N930 C932 1.356 . S
N930 H942 0.984 . S
N930 H943 0.985 . S
N931 C933 1.356 . S
N931 H936 0.984 . S
N931 H937 0.985 . S
C932 C926 1.379 . S
C932 C929 1.363 . S
C932 N930 1.356 . S
C933 C927 1.363 . S
C933 C928 1.379 . S
C933 N931 1.356 . S
N934 C926 1.356 . S
N934 H940 0.984 . S
N934 H941 0.984 . S
N935 C928 1.356 . S
N935 H938 0.984 . S
N935 H939 0.985 . S
H936 N931 0.984 . S
H937 N931 0.985 . S
H938 N935 0.984 . S
H939 N935 0.985 . S
H940 N934 0.984 . S
H941 N934 0.984 . S
H942 N930 0.984 . S
H943 N930 0.985 . S
C944 C945 1.363 . S
C944 C950 1.379 . S
C944 N952 1.356 . S
C945 C944 1.363 . S
C945 C951 1.363 . S
C946 C947 1.363 . S
C946 C951 1.379 . S
C946 N953 1.356 . S
C947 C946 1.363 . S
C947 C950 1.363 . S
N948 C950 1.356 . S
N948 H960 0.984 . S
N948 H961 0.985 . S
N949 C951 1.356 . S
N949 H954 0.984 . S
N949 H955 0.985 . S
C950 C944 1.379 . S
C950 C947 1.363 . S
C950 N948 1.356 . S
C951 C945 1.363 . S
C951 C946 1.379 . S
C951 N949 1.356 . S
N952 C944 1.356 . S
N952 H958 0.984 . S
N952 H959 0.984 . S
N953 C946 1.356 . S
N953 H956 0.984 . S
N953 H957 0.985 . S
H954 N949 0.984 . S
H955 N949 0.985 . S
H956 N953 0.984 . S
H957 N953 0.985 . S
H958 N952 0.984 . S
H959 N952 0.984 . S
H960 N948 0.984 . S
H961 N948 0.985 . S
C962 C963 1.363 . S
C962 C968 1.379 . S
C962 N970 1.356 . S
C963 C962 1.363 . S
C963 C969 1.363 . S
C964 C965 1.363 . S
C964 C969 1.379 . S
C964 N971 1.356 . S
C965 C964 1.363 . S
C965 C968 1.363 . S
N966 C968 1.356 . S
N966 H978 0.984 . S
N966 H979 0.985 . S
N967 C969 1.356 . S
N967 H972 0.984 . S
N967 H973 0.985 . S
C968 C962 1.379 . S
C968 C965 1.363 . S
C968 N966 1.356 . S
C969 C963 1.363 . S
C969 C964 1.379 . S
C969 N967 1.356 . S
N970 C962 1.356 . S
N970 H976 0.984 . S
N970 H977 0.984 . S
N971 C964 1.356 . S
N971 H974 0.984 . S
N971 H975 0.985 . S
H972 N967 0.984 . S
H973 N967 0.985 . S
H974 N971 0.984 . S
H975 N971 0.985 . S
H976 N970 0.984 . S
H977 N970 0.984 . S
H978 N966 0.984 . S
H979 N966 0.985 . S
C980 C981 1.363 . S
C980 C986 1.379 . S
C980 N988 1.356 . S
C981 C980 1.363 . S
C981 C987 1.363 . S
C982 C983 1.363 . S
C982 C987 1.379 . S
C982 N989 1.356 . S
C983 C982 1.363 . S
C983 C986 1.363 . S
N984 C986 1.356 . S
N984 H996 0.984 . S
N984 H997 0.985 . S
N985 C987 1.356 . S
N985 H990 0.984 . S
N985 H991 0.985 . S
C986 C980 1.379 . S
C986 C983 1.363 . S
C986 N984 1.356 . S
C987 C981 1.363 . S
C987 C982 1.379 . S
C987 N985 1.356 . S
N988 C980 1.356 . S
N988 H994 0.984 . S
N988 H995 0.984 . S
N989 C982 1.356 . S
N989 H992 0.984 . S
N989 H993 0.985 . S
H990 N985 0.984 . S
H991 N985 0.985 . S
H992 N989 0.984 . S
H993 N989 0.985 . S
H994 N988 0.984 . S
H995 N988 0.984 . S
H996 N984 0.984 . S
H997 N984 0.985 . S
C998 C999 1.363 . S
C998 C1004 1.379 . S
C998 N1006 1.356 . S
C999 C998 1.363 . S
C999 C1005 1.363 . S
C1000 C1001 1.363 . S
C1000 C1005 1.379 . S
C1000 N1007 1.356 . S
C1001 C1000 1.363 . S
C1001 C1004 1.363 . S
N1002 C1004 1.356 . S
N1002 H1014 0.984 . S
N1002 H1015 0.985 . S
N1003 C1005 1.356 . S
N1003 H1008 0.984 . S
N1003 H1009 0.985 . S
C1004 C998 1.379 . S
C1004 C1001 1.363 . S
C1004 N1002 1.356 . S
C1005 C999 1.363 . S
C1005 C1000 1.379 . S
C1005 N1003 1.356 . S
N1006 C998 1.356 . S
N1006 H1012 0.984 . S
N1006 H1013 0.984 . S
N1007 C1000 1.356 . S
N1007 H1010 0.984 . S
N1007 H1011 0.985 . S
H1008 N1003 0.984 . S
H1009 N1003 0.985 . S
H1010 N1007 0.984 . S
H1011 N1007 0.985 . S
H1012 N1006 0.984 . S
H1013 N1006 0.984 . S
H1014 N1002 0.984 . S
H1015 N1002 0.985 . S
C1016 C1017 1.363 . S
C1016 C1022 1.379 . S
C1016 N1024 1.356 . S
C1017 C1016 1.363 . S
C1017 C1023 1.363 . S
C1018 C1019 1.363 . S
C1018 C1023 1.379 . S
C1018 N1025 1.356 . S
C1019 C1018 1.363 . S
C1019 C1022 1.363 . S
N1020 C1022 1.356 . S
N1020 H1032 0.984 . S
N1020 H1033 0.985 . S
N1021 C1023 1.356 . S
N1021 H1026 0.984 . S
N1021 H1027 0.985 . S
C1022 C1016 1.379 . S
C1022 C1019 1.363 . S
C1022 N1020 1.356 . S
C1023 C1017 1.363 . S
C1023 C1018 1.379 . S
C1023 N1021 1.356 . S
N1024 C1016 1.356 . S
N1024 H1030 0.984 . S
N1024 H1031 0.984 . S
N1025 C1018 1.356 . S
N1025 H1028 0.984 . S
N1025 H1029 0.985 . S
H1026 N1021 0.984 . S
H1027 N1021 0.985 . S
H1028 N1025 0.984 . S
H1029 N1025 0.985 . S
H1030 N1024 0.984 . S
H1031 N1024 0.984 . S
H1032 N1020 0.984 . S
H1033 N1020 0.985 . S
C1034 C1035 1.363 . S
C1034 C1040 1.379 . S
C1034 N1042 1.356 . S
C1035 C1034 1.363 . S
C1035 C1041 1.363 . S
C1036 C1037 1.363 . S
C1036 C1041 1.379 . S
C1036 N1043 1.356 . S
C1037 C1036 1.363 . S
C1037 C1040 1.363 . S
N1038 C1040 1.356 . S
N1038 H1050 0.984 . S
N1038 H1051 0.985 . S
N1039 C1041 1.356 . S
N1039 H1044 0.984 . S
N1039 H1045 0.985 . S
C1040 C1034 1.379 . S
C1040 C1037 1.363 . S
C1040 N1038 1.356 . S
C1041 C1035 1.363 . S
C1041 C1036 1.379 . S
C1041 N1039 1.356 . S
N1042 C1034 1.356 . S
N1042 H1048 0.984 . S
N1042 H1049 0.984 . S
N1043 C1036 1.356 . S
N1043 H1046 0.984 . S
N1043 H1047 0.985 . S
H1044 N1039 0.984 . S
H1045 N1039 0.985 . S
H1046 N1043 0.984 . S
H1047 N1043 0.985 . S
H1048 N1042 0.984 . S
H1049 N1042 0.984 . S
H1050 N1038 0.984 . S
H1051 N1038 0.985 . S
C1052 C1053 1.363 . S
C1052 C1058 1.379 . S
C1052 N1060 1.356 . S
C1053 C1052 1.363 . S
C1053 C1059 1.363 . S
C1054 C1055 1.363 . S
C1054 C1059 1.379 . S
C1054 N1061 1.356 . S
C1055 C1054 1.363 . S
C1055 C1058 1.363 . S
N1056 C1058 1.356 . S
N1056 H1068 0.984 . S
N1056 H1069 0.985 . S
N1057 C1059 1.356 . S
N1057 H1062 0.984 . S
N1057 H1063 0.985 . S
C1058 C1052 1.379 . S
C1058 C1055 1.363 . S
C1058 N1056 1.356 . S
C1059 C1053 1.363 . S
C1059 C1054 1.379 . S
C1059 N1057 1.356 . S
N1060 C1052 1.356 . S
N1060 H1066 0.984 . S
N1060 H1067 0.984 . S
N1061 C1054 1.356 . S
N1061 H1064 0.984 . S
N1061 H1065 0.985 . S
H1062 N1057 0.984 . S
H1063 N1057 0.985 . S
H1064 N1061 0.984 . S
H1065 N1061 0.985 . S
H1066 N1060 0.984 . S
H1067 N1060 0.984 . S
H1068 N1056 0.984 . S
H1069 N1056 0.985 . S
C1070 C1071 1.363 . S
C1070 C1076 1.379 . S
C1070 N1078 1.356 . S
C1071 C1070 1.363 . S
C1071 C1077 1.363 . S
C1072 C1073 1.363 . S
C1072 C1077 1.379 . S
C1072 N1079 1.356 . S
C1073 C1072 1.363 . S
C1073 C1076 1.363 . S
N1074 C1076 1.356 . S
N1074 H1086 0.984 . S
N1074 H1087 0.985 . S
N1075 C1077 1.356 . S
N1075 H1080 0.984 . S
N1075 H1081 0.985 . S
C1076 C1070 1.379 . S
C1076 C1073 1.363 . S
C1076 N1074 1.356 . S
C1077 C1071 1.363 . S
C1077 C1072 1.379 . S
C1077 N1075 1.356 . S
N1078 C1070 1.356 . S
N1078 H1084 0.984 . S
N1078 H1085 0.984 . S
N1079 C1072 1.356 . S
N1079 H1082 0.984 . S
N1079 H1083 0.985 . S
H1080 N1075 0.984 . S
H1081 N1075 0.985 . S
H1082 N1079 0.984 . S
H1083 N1079 0.985 . S
H1084 N1078 0.984 . S
H1085 N1078 0.984 . S
H1086 N1074 0.984 . S
H1087 N1074 0.985 . S
C1088 C1089 1.363 . S
C1088 C1094 1.379 . S
C1088 N1096 1.356 . S
C1089 C1088 1.363 . S
C1089 C1095 1.363 . S
C1090 C1091 1.363 . S
C1090 C1095 1.379 . S
C1090 N1097 1.356 . S
C1091 C1090 1.363 . S
C1091 C1094 1.363 . S
N1092 C1094 1.356 . S
N1092 H1104 0.984 . S
N1092 H1105 0.985 . S
N1093 C1095 1.356 . S
N1093 H1098 0.984 . S
N1093 H1099 0.985 . S
C1094 C1088 1.379 . S
C1094 C1091 1.363 . S
C1094 N1092 1.356 . S
C1095 C1089 1.363 . S
C1095 C1090 1.379 . S
C1095 N1093 1.356 . S
N1096 C1088 1.356 . S
N1096 H1102 0.984 . S
N1096 H1103 0.984 . S
N1097 C1090 1.356 . S
N1097 H1100 0.984 . S
N1097 H1101 0.985 . S
H1098 N1093 0.984 . S
H1099 N1093 0.985 . S
H1100 N1097 0.984 . S
H1101 N1097 0.985 . S
H1102 N1096 0.984 . S
H1103 N1096 0.984 . S
H1104 N1092 0.984 . S
H1105 N1092 0.985 . S
C1106 C1107 1.363 . S
C1106 C1112 1.379 . S
C1106 N1114 1.356 . S
C1107 C1106 1.363 . S
C1107 C1113 1.363 . S
C1108 C1109 1.363 . S
C1108 C1113 1.379 . S
C1108 N1115 1.356 . S
C1109 C1108 1.363 . S
C1109 C1112 1.363 . S
N1110 C1112 1.356 . S
N1110 H1122 0.984 . S
N1110 H1123 0.985 . S
N1111 C1113 1.356 . S
N1111 H1116 0.984 . S
N1111 H1117 0.985 . S
C1112 C1106 1.379 . S
C1112 C1109 1.363 . S
C1112 N1110 1.356 . S
C1113 C1107 1.363 . S
C1113 C1108 1.379 . S
C1113 N1111 1.356 . S
N1114 C1106 1.356 . S
N1114 H1120 0.984 . S
N1114 H1121 0.984 . S
N1115 C1108 1.356 . S
N1115 H1118 0.984 . S
N1115 H1119 0.985 . S
H1116 N1111 0.984 . S
H1117 N1111 0.985 . S
H1118 N1115 0.984 . S
H1119 N1115 0.985 . S
H1120 N1114 0.984 . S
H1121 N1114 0.984 . S
H1122 N1110 0.984 . S
H1123 N1110 0.985 . S
C1124 C1125 1.363 . S
C1124 C1130 1.379 . S
C1124 N1132 1.356 . S
C1125 C1124 1.363 . S
C1125 C1131 1.363 . S
C1126 C1127 1.363 . S
C1126 C1131 1.379 . S
C1126 N1133 1.356 . S
C1127 C1126 1.363 . S
C1127 C1130 1.363 . S
N1128 C1130 1.356 . S
N1128 H1140 0.984 . S
N1128 H1141 0.985 . S
N1129 C1131 1.356 . S
N1129 H1134 0.984 . S
N1129 H1135 0.985 . S
C1130 C1124 1.379 . S
C1130 C1127 1.363 . S
C1130 N1128 1.356 . S
C1131 C1125 1.363 . S
C1131 C1126 1.379 . S
C1131 N1129 1.356 . S
N1132 C1124 1.356 . S
N1132 H1138 0.984 . S
N1132 H1139 0.984 . S
N1133 C1126 1.356 . S
N1133 H1136 0.984 . S
N1133 H1137 0.985 . S
H1134 N1129 0.984 . S
H1135 N1129 0.985 . S
H1136 N1133 0.984 . S
H1137 N1133 0.985 . S
H1138 N1132 0.984 . S
H1139 N1132 0.984 . S
H1140 N1128 0.984 . S
H1141 N1128 0.985 . S
C1142 C1143 1.363 . S
C1142 C1148 1.379 . S
C1142 N1150 1.356 . S
C1143 C1142 1.363 . S
C1143 C1149 1.363 . S
C1144 C1145 1.363 . S
C1144 C1149 1.379 . S
C1144 N1151 1.356 . S
C1145 C1144 1.363 . S
C1145 C1148 1.363 . S
N1146 C1148 1.356 . S
N1146 H1158 0.984 . S
N1146 H1159 0.985 . S
N1147 C1149 1.356 . S
N1147 H1152 0.984 . S
N1147 H1153 0.985 . S
C1148 C1142 1.379 . S
C1148 C1145 1.363 . S
C1148 N1146 1.356 . S
C1149 C1143 1.363 . S
C1149 C1144 1.379 . S
C1149 N1147 1.356 . S
N1150 C1142 1.356 . S
N1150 H1156 0.984 . S
N1150 H1157 0.984 . S
N1151 C1144 1.356 . S
N1151 H1154 0.984 . S
N1151 H1155 0.985 . S
H1152 N1147 0.984 . S
H1153 N1147 0.985 . S
H1154 N1151 0.984 . S
H1155 N1151 0.985 . S
H1156 N1150 0.984 . S
H1157 N1150 0.984 . S
H1158 N1146 0.984 . S
H1159 N1146 0.985 . S
C1160 C1161 1.363 . S
C1160 C1166 1.379 . S
C1160 N1168 1.356 . S
C1161 C1160 1.363 . S
C1161 C1167 1.363 . S
C1162 C1163 1.363 . S
C1162 C1167 1.379 . S
C1162 N1169 1.356 . S
C1163 C1162 1.363 . S
C1163 C1166 1.363 . S
N1164 C1166 1.356 . S
N1164 H1176 0.984 . S
N1164 H1177 0.985 . S
N1165 C1167 1.356 . S
N1165 H1170 0.984 . S
N1165 H1171 0.985 . S
C1166 C1160 1.379 . S
C1166 C1163 1.363 . S
C1166 N1164 1.356 . S
C1167 C1161 1.363 . S
C1167 C1162 1.379 . S
C1167 N1165 1.356 . S
N1168 C1160 1.356 . S
N1168 H1174 0.984 . S
N1168 H1175 0.984 . S
N1169 C1162 1.356 . S
N1169 H1172 0.984 . S
N1169 H1173 0.985 . S
H1170 N1165 0.984 . S
H1171 N1165 0.985 . S
H1172 N1169 0.984 . S
H1173 N1169 0.985 . S
H1174 N1168 0.984 . S
H1175 N1168 0.984 . S
H1176 N1164 0.984 . S
H1177 N1164 0.985 . S
C1178 C1179 1.363 . S
C1178 C1184 1.379 . S
C1178 N1186 1.356 . S
C1179 C1178 1.363 . S
C1179 C1185 1.363 . S
C1180 C1181 1.363 . S
C1180 C1185 1.379 . S
C1180 N1187 1.356 . S
C1181 C1180 1.363 . S
C1181 C1184 1.363 . S
N1182 C1184 1.356 . S
N1182 H1194 0.984 . S
N1182 H1195 0.985 . S
N1183 C1185 1.356 . S
N1183 H1188 0.984 . S
N1183 H1189 0.985 . S
C1184 C1178 1.379 . S
C1184 C1181 1.363 . S
C1184 N1182 1.356 . S
C1185 C1179 1.363 . S
C1185 C1180 1.379 . S
C1185 N1183 1.356 . S
N1186 C1178 1.356 . S
N1186 H1192 0.984 . S
N1186 H1193 0.984 . S
N1187 C1180 1.356 . S
N1187 H1190 0.984 . S
N1187 H1191 0.985 . S
H1188 N1183 0.984 . S
H1189 N1183 0.985 . S
H1190 N1187 0.984 . S
H1191 N1187 0.985 . S
H1192 N1186 0.984 . S
H1193 N1186 0.984 . S
H1194 N1182 0.984 . S
H1195 N1182 0.985 . S
C1196 C1197 1.363 . S
C1196 C1202 1.379 . S
C1196 N1204 1.356 . S
C1197 C1196 1.363 . S
C1197 C1203 1.363 . S
C1198 C1199 1.363 . S
C1198 C1203 1.379 . S
C1198 N1205 1.356 . S
C1199 C1198 1.363 . S
C1199 C1202 1.363 . S
N1200 C1202 1.356 . S
N1200 H1212 0.984 . S
N1200 H1213 0.985 . S
N1201 C1203 1.356 . S
N1201 H1206 0.984 . S
N1201 H1207 0.985 . S
C1202 C1196 1.379 . S
C1202 C1199 1.363 . S
C1202 N1200 1.356 . S
C1203 C1197 1.363 . S
C1203 C1198 1.379 . S
C1203 N1201 1.356 . S
N1204 C1196 1.356 . S
N1204 H1210 0.984 . S
N1204 H1211 0.984 . S
N1205 C1198 1.356 . S
N1205 H1208 0.984 . S
N1205 H1209 0.985 . S
H1206 N1201 0.984 . S
H1207 N1201 0.985 . S
H1208 N1205 0.984 . S
H1209 N1205 0.985 . S
H1210 N1204 0.984 . S
H1211 N1204 0.984 . S
H1212 N1200 0.984 . S
H1213 N1200 0.985 . S
C1214 C1215 1.363 . S
C1214 C1220 1.379 . S
C1214 N1222 1.356 . S
C1215 C1214 1.363 . S
C1215 C1221 1.363 . S
C1216 C1217 1.363 . S
C1216 C1221 1.379 . S
C1216 N1223 1.356 . S
C1217 C1216 1.363 . S
C1217 C1220 1.363 . S
N1218 C1220 1.356 . S
N1218 H1230 0.984 . S
N1218 H1231 0.985 . S
N1219 C1221 1.356 . S
N1219 H1224 0.984 . S
N1219 H1225 0.985 . S
C1220 C1214 1.379 . S
C1220 C1217 1.363 . S
C1220 N1218 1.356 . S
C1221 C1215 1.363 . S
C1221 C1216 1.379 . S
C1221 N1219 1.356 . S
N1222 C1214 1.356 . S
N1222 H1228 0.984 . S
N1222 H1229 0.984 . S
N1223 C1216 1.356 . S
N1223 H1226 0.984 . S
N1223 H1227 0.985 . S
H1224 N1219 0.984 . S
H1225 N1219 0.985 . S
H1226 N1223 0.984 . S
H1227 N1223 0.985 . S
H1228 N1222 0.984 . S
H1229 N1222 0.984 . S
H1230 N1218 0.984 . S
H1231 N1218 0.985 . S
C1232 C1233 1.363 . S
C1232 C1238 1.379 . S
C1232 N1240 1.356 . S
C1233 C1232 1.363 . S
C1233 C1239 1.363 . S
C1234 C1235 1.363 . S
C1234 C1239 1.379 . S
C1234 N1241 1.356 . S
C1235 C1234 1.363 . S
C1235 C1238 1.363 . S
N1236 C1238 1.356 . S
N1236 H1248 0.984 . S
N1236 H1249 0.985 . S
N1237 C1239 1.356 . S
N1237 H1242 0.984 . S
N1237 H1243 0.985 . S
C1238 C1232 1.379 . S
C1238 C1235 1.363 . S
C1238 N1236 1.356 . S
C1239 C1233 1.363 . S
C1239 C1234 1.379 . S
C1239 N1237 1.356 . S
N1240 C1232 1.356 . S
N1240 H1246 0.984 . S
N1240 H1247 0.984 . S
N1241 C1234 1.356 . S
N1241 H1244 0.984 . S
N1241 H1245 0.985 . S
H1242 N1237 0.984 . S
H1243 N1237 0.985 . S
H1244 N1241 0.984 . S
H1245 N1241 0.985 . S
H1246 N1240 0.984 . S
H1247 N1240 0.984 . S
H1248 N1236 0.984 . S
H1249 N1236 0.985 . S
C1250 C1251 1.363 . S
C1250 C1256 1.379 . S
C1250 N1258 1.356 . S
C1251 C1250 1.363 . S
C1251 C1257 1.363 . S
C1252 C1253 1.363 . S
C1252 C1257 1.379 . S
C1252 N1259 1.356 . S
C1253 C1252 1.363 . S
C1253 C1256 1.363 . S
N1254 C1256 1.356 . S
N1254 H1266 0.984 . S
N1254 H1267 0.985 . S
N1255 C1257 1.356 . S
N1255 H1260 0.984 . S
N1255 H1261 0.985 . S
C1256 C1250 1.379 . S
C1256 C1253 1.363 . S
C1256 N1254 1.356 . S
C1257 C1251 1.363 . S
C1257 C1252 1.379 . S
C1257 N1255 1.356 . S
N1258 C1250 1.356 . S
N1258 H1264 0.984 . S
N1258 H1265 0.984 . S
N1259 C1252 1.356 . S
N1259 H1262 0.984 . S
N1259 H1263 0.985 . S
H1260 N1255 0.984 . S
H1261 N1255 0.985 . S
H1262 N1259 0.984 . S
H1263 N1259 0.985 . S
H1264 N1258 0.984 . S
H1265 N1258 0.984 . S
H1266 N1254 0.984 . S
H1267 N1254 0.985 . S
C1268 C1269 1.363 . S
C1268 C1274 1.379 . S
C1268 N1276 1.356 . S
C1269 C1268 1.363 . S
C1269 C1275 1.363 . S
C1270 C1271 1.363 . S
C1270 C1275 1.379 . S
C1270 N1277 1.356 . S
C1271 C1270 1.363 . S
C1271 C1274 1.363 . S
N1272 C1274 1.356 . S
N1272 H1284 0.984 . S
N1272 H1285 0.985 . S
N1273 C1275 1.356 . S
N1273 H1278 0.984 . S
N1273 H1279 0.985 . S
C1274 C1268 1.379 . S
C1274 C1271 1.363 . S
C1274 N1272 1.356 . S
C1275 C1269 1.363 . S
C1275 C1270 1.379 . S
C1275 N1273 1.356 . S
N1276 C1268 1.356 . S
N1276 H1282 0.984 . S
N1276 H1283 0.984 . S
N1277 C1270 1.356 . S
N1277 H1280 0.984 . S
N1277 H1281 0.985 . S
H1278 N1273 0.984 . S
H1279 N1273 0.985 . S
H1280 N1277 0.984 . S
H1281 N1277 0.985 . S
H1282 N1276 0.984 . S
H1283 N1276 0.984 . S
H1284 N1272 0.984 . S
H1285 N1272 0.985 . S
C1286 C1287 1.363 . S
C1286 C1292 1.379 . S
C1286 N1294 1.356 . S
C1287 C1286 1.363 . S
C1287 C1293 1.363 . S
C1288 C1289 1.363 . S
C1288 C1293 1.379 . S
C1288 N1295 1.356 . S
C1289 C1288 1.363 . S
C1289 C1292 1.363 . S
N1290 C1292 1.356 . S
N1290 H1302 0.984 . S
N1290 H1303 0.985 . S
N1291 C1293 1.356 . S
N1291 H1296 0.984 . S
N1291 H1297 0.985 . S
C1292 C1286 1.379 . S
C1292 C1289 1.363 . S
C1292 N1290 1.356 . S
C1293 C1287 1.363 . S
C1293 C1288 1.379 . S
C1293 N1291 1.356 . S
N1294 C1286 1.356 . S
N1294 H1300 0.984 . S
N1294 H1301 0.984 . S
N1295 C1288 1.356 . S
N1295 H1298 0.984 . S
N1295 H1299 0.985 . S
H1296 N1291 0.984 . S
H1297 N1291 0.985 . S
H1298 N1295 0.984 . S
H1299 N1295 0.985 . S
H1300 N1294 0.984 . S
H1301 N1294 0.984 . S
H1302 N1290 0.984 . S
H1303 N1290 0.985 . S
C1304 C1305 1.363 . S
C1304 C1310 1.379 . S
C1304 N1312 1.356 . S
C1305 C1304 1.363 . S
C1305 C1311 1.363 . S
C1306 C1307 1.363 . S
C1306 C1311 1.379 . S
C1306 N1313 1.356 . S
C1307 C1306 1.363 . S
C1307 C1310 1.363 . S
N1308 C1310 1.356 . S
N1308 H1320 0.984 . S
N1308 H1321 0.985 . S
N1309 C1311 1.356 . S
N1309 H1314 0.984 . S
N1309 H1315 0.985 . S
C1310 C1304 1.379 . S
C1310 C1307 1.363 . S
C1310 N1308 1.356 . S
C1311 C1305 1.363 . S
C1311 C1306 1.379 . S
C1311 N1309 1.356 . S
N1312 C1304 1.356 . S
N1312 H1318 0.984 . S
N1312 H1319 0.984 . S
N1313 C1306 1.356 . S
N1313 H1316 0.984 . S
N1313 H1317 0.985 . S
H1314 N1309 0.984 . S
H1315 N1309 0.985 . S
H1316 N1313 0.984 . S
H1317 N1313 0.985 . S
H1318 N1312 0.984 . S
H1319 N1312 0.984 . S
H1320 N1308 0.984 . S
H1321 N1308 0.985 . S
C461 C283 0.422 . S
C459 C4 0.471 . S
C479 C273 1.785 . S
C477 C63 1.747 . S
C497 C274 1.132 . S
C495 C72 1.082 . S
C513 C102 1.693 . S
C515 C296 1.728 . S
C531 C136 1.746 . S
C533 C299 1.784 . S
C551 C282 1.132 . S
C549 C183 1.080 . S
C567 C233 1.693 . S
C569 C272 1.729 . S
C585 C251 0.472 . S
C587 C290 0.422 . S
C605 C303 1.579 . S
C603 C29 1.605 . S
C621 C42 2.101 . S
C623 C352 1.990 . S
C641 C330 1.734 . S
C639 C97 1.740 . S
C659 C344 0.984 . S
C657 C115 1.059 . S
C675 C149 1.072 . S
C677 C305 1.081 . S
C695 C358 1.665 . S
C693 C187 1.697 . S
C711 C212 2.116 . S
C713 C314 1.972 . S
C729 C255 1.683 . S
C731 C335 1.658 . S
C747 C8 1.683 . S
C749 C361 1.657 . S
C765 C153 2.101 . S
C767 C345 1.988 . S
C785 C304 1.734 . S
C783 C170 1.740 . S
C803 C336 0.984 . S
C801 C208 1.061 . S
C819 C238 1.605 . S
C821 C327 1.579 . S
C837 C76 1.698 . S
C839 C334 1.665 . S
C857 C321 1.972 . S
C855 C119 2.116 . S
C873 C38 1.072 . S
C875 C313 1.081 . S
C891 C242 0.472 . S
C893 C376 0.422 . S
C909 C165 1.746 . S
C911 C366 1.785 . S
C929 C367 1.132 . S
C927 C174 1.081 . S
C947 C389 1.729 . S
C945 C204 1.693 . S
C963 C34 1.746 . S
C965 C392 1.785 . S
C983 C375 1.132 . S
C981 C81 1.081 . S
C999 C131 1.693 . S
C1001 C365 1.729 . S
C1017 C13 0.472 . S
C1019 C383 0.422 . S
C1035 C267 1.605 . S
C1037 C396 1.580 . S
C1055 C445 1.989 . S
C1053 C144 2.101 . S
C1071 C199 1.740 . S
C1073 C423 1.733 . S
C1089 C217 1.060 . S
C1091 C437 0.984 . S
C1109 C398 1.081 . S
C1107 C47 1.073 . S
C1125 C85 1.698 . S
C1127 C451 1.665 . S
C1145 C407 1.972 . S
C1143 C110 2.115 . S
C1163 C428 1.657 . S
C1161 C17 1.683 . S
C1181 C454 1.657 . S
C1179 C246 1.683 . S
C1197 C51 2.101 . S
C1199 C438 1.989 . S
C1215 C68 1.740 . S
C1217 C397 1.735 . S
C1235 C429 0.984 . S
C1233 C106 1.061 . S
C1251 C0 1.605 . S
C1253 C420 1.578 . S
C1269 C178 1.698 . S
C1271 C427 1.664 . S
C1289 C414 1.972 . S
C1287 C221 2.117 . S
C1307 C406 1.081 . S
C1305 C140 1.071 . S
