# Generated by pormake.
# Topology tsx, (6,3)-cn, num edge types: 1
# Building blocks:
#     Node 0, Type 0, BuildingBlock: JUFBIX_clean_sbu_0, # of connection points: 6
#     Node 1, Type 0, BuildingBlock: JUFBIX_clean_sbu_0, # of connection points: 6
#     Node 2, Type 1, BuildingBlock: WUSLED_clean_sbu_0, # of connection points: 3
#     Node 3, Type 1, BuildingBlock: WUSLED_clean_sbu_0, # of connection points: 3
#     Node 4, Type 1, BuildingBlock: WUSLED_clean_sbu_0, # of connection points: 3
#     Node 5, Type 1, BuildingBlock: WUSLED_clean_sbu_0, # of connection points: 3
#     Edge 6, Type (0, 1), BuildingBlock: KIFKEQ_clean_linker_1, # of connection points: 2
#     Edge 7, Type (0, 1), BuildingBlock: KIFKEQ_clean_linker_1, # of connection points: 2
#     Edge 8, Type (0, 1), BuildingBlock: KIFKEQ_clean_linker_1, # of connection points: 2
#     Edge 9, Type (0, 1), BuildingBlock: KIFKEQ_clean_linker_1, # of connection points: 2
#     Edge 10, Type (0, 1), BuildingBlock: KIFKEQ_clean_linker_1, # of connection points: 2
#     Edge 11, Type (0, 1), BuildingBlock: KIFKEQ_clean_linker_1, # of connection points: 2
#     Edge 12, Type (0, 1), BuildingBlock: KIFKEQ_clean_linker_1, # of connection points: 2
#     Edge 13, Type (0, 1), BuildingBlock: KIFKEQ_clean_linker_1, # of connection points: 2
#     Edge 14, Type (0, 1), BuildingBlock: KIFKEQ_clean_linker_1, # of connection points: 2
#     Edge 15, Type (0, 1), BuildingBlock: KIFKEQ_clean_linker_1, # of connection points: 2
#     Edge 16, Type (0, 1), BuildingBlock: KIFKEQ_clean_linker_1, # of connection points: 2
#     Edge 17, Type (0, 1), BuildingBlock: KIFKEQ_clean_linker_1, # of connection points: 2
# Relax obj value: 0.150
# Max RMSD: 0.162
# Mean RMSD: 0.128
data_MOF--net-tsx--node1-JUFBIX_clean_sbu_0--node2-WUSLED_clean_sbu_0--edge1-KIFKEQ_clean_linker_1
_symmetry_space_group_name_H-M    P1
_symmetry_Int_Tables_number       1
_symmetry_cell_setting            triclinic
loop_
_symmetry_equiv_pos_as_xyz
'x, y, z'
_cell_length_a     25.546523
_cell_length_b     30.065915
_cell_length_c     46.632641
_cell_angle_alpha  92.969016
_cell_angle_beta   89.410767
_cell_angle_gamma 97.418726
loop_
_atom_site_label
_atom_site_type_symbol
_atom_site_fract_x
_atom_site_fract_y
_atom_site_fract_z
_atom_type_partial_charge
Co0 Co 0.0651 1.00539 0.01512 0.0
C1 C 0.02483 0.02849 0.96253 0.0
Co2 Co 0.99797 0.04563 0.01858 0.0
C3 C 0.13576 0.93484 0.01764 0.0
C4 C 0.16668 0.99148 0.99387 0.0
N5 N 0.12437 0.97517 0.00944 0.0
N6 N 0.18386 0.92606 0.00804 0.0
C7 C 0.20308 0.96175 0.9931 0.0
H8 H 0.10942 0.91247 0.03033 0.0
H9 H 0.17054 0.02282 0.98318 0.0
C10 C 0.03753 0.02263 0.07118 0.0
N11 N 0.93912 0.07604 0.0239 0.0
C12 C 0.92747 0.1143 0.01279 0.0
C13 C 0.89775 0.06298 0.04101 0.0
N14 N 0.88039 0.12562 0.02237 0.0
C15 C 0.86177 0.09306 0.04006 0.0
C16 C 0.96979 0.95157 0.01554 0.0
O17 O 0.07016 1.00299 0.05588 0.0
O18 O 1.00393 0.04291 0.0589 0.0
O19 O 0.953 0.98967 0.01723 0.0
O20 O 0.01928 0.94996 0.01387 0.0
O21 O 0.99273 0.04791 0.97823 0.0
H22 H 0.89391 0.03331 0.05342 0.0
H23 H 0.95343 0.13361 0.99822 0.0
O24 O 0.05901 1.00822 0.97438 0.0
O25 O 0.10998 0.06164 0.01684 0.0
O26 O 0.04357 0.10105 0.02002 0.0
C27 C 0.09309 0.09965 0.01894 0.0
H28 H 0.24032 0.96555 0.98163 0.0
H29 H 0.82434 0.09049 0.0513 0.0
Co30 Co 0.56489 0.50542 0.51559 0.0
C31 C 0.52481 0.53045 0.4632 0.0
Co32 Co 0.49905 0.54697 0.51924 0.0
C33 C 0.6311 0.43162 0.51513 0.0
C34 C 0.66472 0.48911 0.49289 0.0
N35 N 0.62271 0.47376 0.50902 0.0
N36 N 0.67637 0.42032 0.50308 0.0
C37 C 0.69752 0.45661 0.48926 0.0
H38 H 0.6034 0.40894 0.52688 0.0
H39 H 0.67022 0.52136 0.48328 0.0
C40 C 0.53845 0.52184 0.57162 0.0
N41 N 0.44132 0.57844 0.52523 0.0
C42 C 0.42693 0.61393 0.51192 0.0
C43 C 0.40284 0.56826 0.5447 0.0
N44 N 0.38078 0.62603 0.5223 0.0
C45 C 0.36587 0.59731 0.54301 0.0
C46 C 0.46798 0.45344 0.51566 0.0
O47 O 0.57068 0.50199 0.55618 0.0
O48 O 0.50548 0.54297 0.5595 0.0
O49 O 0.45242 0.49201 0.51744 0.0
O50 O 0.51727 0.45071 0.51426 0.0
O51 O 0.49347 0.55043 0.47905 0.0
H52 H 0.40154 0.54113 0.55915 0.0
H53 H 0.44934 0.62988 0.49458 0.0
O54 O 0.55819 0.50915 0.47488 0.0
O55 O 0.61142 0.56098 0.51749 0.0
O56 O 0.54607 0.60161 0.52102 0.0
C57 C 0.59544 0.59939 0.51985 0.0
H58 H 0.7337 0.45909 0.47681 0.0
H59 H 0.33085 0.59734 0.55626 0.0
C60 C 0.94499 0.08824 0.47987 0.0
C61 C 0.93027 0.1129 0.45722 0.0
C62 C 0.87372 0.15227 0.48941 0.0
C63 C 0.89522 0.14459 0.46193 0.0
C64 C 0.88863 0.12741 0.5121 0.0
C65 C 0.9239 0.0956 0.50733 0.0
U66 U 0.02017 0.02352 0.42613 0.0
O67 O 0.10191 1.00716 0.42491 0.0
O68 O 0.03515 0.95311 0.42201 0.0
C69 C 0.08671 0.9636 0.42345 0.0
C70 C 0.98198 0.05486 0.47448 0.0
C71 C 0.11669 0.93536 0.44057 0.0
C72 C 0.12041 0.86896 0.46793 0.0
C73 C 0.09128 0.90008 0.45631 0.0
C74 C 0.20101 0.90891 0.44945 0.0
C75 C 0.17551 0.87237 0.46403 0.0
C76 C 0.1719 0.9399 0.43779 0.0
C77 C 0.9984 0.04632 0.34714 0.0
C78 C 0.04624 1.01575 0.30692 0.0
C79 C 0.97161 0.05542 0.29827 0.0
C80 C 0.96482 0.06259 0.32781 0.0
C81 C 1.01221 0.03174 0.28743 0.0
C82 C 0.03923 0.02283 0.3366 0.0
C83 C 0.98939 0.0538 0.37809 0.0
O84 O 0.96149 0.01712 0.46115 0.0
O85 O 0.02807 0.07093 0.46388 0.0
O86 O 0.02997 0.07355 0.39305 0.0
O87 O 0.96307 0.01985 0.39083 0.0
H88 H 0.94614 0.10774 0.43584 0.0
H89 H 0.8856 0.16358 0.44404 0.0
H90 H 0.87258 0.13213 0.53346 0.0
H91 H 0.9346 0.07672 0.52505 0.0
H92 H 0.09961 0.84163 0.47944 0.0
H93 H 0.04875 0.89551 0.4588 0.0
H94 H 0.24323 0.91238 0.44578 0.0
H95 H 0.19243 0.96638 0.42544 0.0
H96 H 0.07764 0.99717 0.29925 0.0
H97 H 0.94529 0.06885 0.28387 0.0
H98 H 0.93319 0.08087 0.33558 0.0
H99 H 0.06541 1.00985 0.35129 0.0
C100 C 0.94303 0.95333 0.55017 0.0
C101 C 0.95721 0.90957 0.54767 0.0
C102 C 0.86566 0.87807 0.5385 0.0
C103 C 0.91903 0.87246 0.54196 0.0
C104 C 0.85177 0.92193 0.54003 0.0
C105 C 0.88999 0.95908 0.54564 0.0
U106 U 0.01924 0.02813 0.60789 0.0
O107 O 0.10235 0.05804 0.61116 0.0
O108 O 0.03945 0.10159 0.61348 0.0
C109 C 0.09051 0.09939 0.61319 0.0
C110 C 0.98281 0.99256 0.55829 0.0
C111 C 0.12381 0.13338 0.59701 0.0
C112 C 0.18089 0.15629 0.55678 0.0
C113 C 0.14614 0.12348 0.57014 0.0
C114 C 0.17057 0.20906 0.59681 0.0
C115 C 0.19376 0.19949 0.57006 0.0
C116 C 0.13603 0.17645 0.61003 0.0
C117 C 0.98731 0.99779 0.68574 0.0
C118 C 0.03016 0.0381 0.72746 0.0
C119 C 0.95958 0.97731 0.73375 0.0
C120 C 0.95468 0.97077 0.70397 0.0
C121 C 0.99729 1.0111 0.7459 0.0
C122 C 0.02513 0.03155 0.69759 0.0
C123 C 0.98074 0.99036 0.65451 0.0
O124 O 0.96444 0.02699 0.57162 0.0
O125 O 0.02698 0.98344 0.56958 0.0
O126 O 0.02148 0.97776 0.64031 0.0
O127 O 0.95857 0.02104 0.64174 0.0
H128 H 0.99771 0.90377 0.55068 0.0
H129 H 0.93117 0.83921 0.54109 0.0
H130 H 0.81124 0.92757 0.53692 0.0
H131 H 0.87778 0.99232 0.54687 0.0
H132 H 0.1976 0.14785 0.53608 0.0
H133 H 0.13729 0.09037 0.55969 0.0
H134 H 0.18017 0.2415 0.60802 0.0
H135 H 0.11965 0.18467 0.63088 0.0
H136 H 0.05926 0.06467 0.73611 0.0
H137 H 0.93422 0.95545 0.74726 0.0
H138 H 0.92534 0.9445 0.69515 0.0
H139 H 0.05053 0.05285 0.68376 0.0
C140 C 0.44605 0.5882 0.97983 0.0
C141 C 0.42861 0.61062 0.9568 0.0
C142 C 0.38109 0.65699 0.98972 0.0
C143 C 0.39658 0.64463 0.96167 0.0
C144 C 0.39745 0.63354 0.01272 0.0
C145 C 0.42982 0.59952 0.0078 0.0
U146 U 0.51739 0.52015 0.92609 0.0
O147 O 0.59944 0.50477 0.92327 0.0
O148 O 0.53353 0.44991 0.92349 0.0
C149 C 0.58502 0.46116 0.92271 0.0
C150 C 0.48215 0.55406 0.97447 0.0
C151 C 0.6181 0.43409 0.93862 0.0
C152 C 0.63154 0.38334 0.97612 0.0
C153 C 0.60093 0.4129 0.9638 0.0
C154 C 0.69703 0.3967 0.9386 0.0
C155 C 0.6797 0.3743 0.9634 0.0
C156 C 0.66666 0.42622 0.92646 0.0
C157 C 0.49237 0.53937 0.84702 0.0
C158 C 0.54233 0.5105 0.80709 0.0
C159 C 0.46463 0.54604 0.79801 0.0
C160 C 0.45737 0.55337 0.82751 0.0
C161 C 0.50715 0.5245 0.7874 0.0
C162 C 0.53487 0.51774 0.83671 0.0
C163 C 0.4838 0.54793 0.87793 0.0
O164 O 0.46061 0.51587 0.96208 0.0
O165 O 0.52774 0.5692 0.96292 0.0
O166 O 0.52443 0.56893 0.89229 0.0
O167 O 0.45864 0.51423 0.89143 0.0
H168 H 0.44041 0.60218 0.93501 0.0
H169 H 0.38408 0.66142 0.94342 0.0
H170 H 0.38655 0.6424 0.03458 0.0
H171 H 0.44283 0.58256 0.02586 0.0
H172 H 0.61722 0.36724 0.99544 0.0
H173 H 0.56351 0.41844 0.97358 0.0
H174 H 0.73321 0.3902 0.92782 0.0
H175 H 0.6804 0.44187 0.90686 0.0
H176 H 0.57521 0.49355 0.79962 0.0
H177 H 0.43733 0.55793 0.78348 0.0
H178 H 0.42446 0.57023 0.83511 0.0
H179 H 0.5622 0.50654 0.85154 0.0
C180 C 0.44035 0.45179 0.05297 0.0
C181 C 0.41151 0.43156 0.07567 0.0
C182 C 0.36081 0.37853 0.04194 0.0
C183 C 0.37217 0.39535 0.07023 0.0
C184 C 0.38989 0.39903 0.01922 0.0
C185 C 0.42932 0.43538 0.02471 0.0
U186 U 0.52026 0.52683 0.10786 0.0
O187 O 0.60494 0.55204 0.11076 0.0
O188 O 0.54651 0.59956 0.11081 0.0
C189 C 0.59687 0.59433 0.11022 0.0
C190 C 0.48233 0.4894 0.05903 0.0
C191 C 0.63214 0.62379 0.09158 0.0
C192 C 0.71918 0.64414 0.07049 0.0
C193 C 0.6828 0.61325 0.08418 0.0
C194 C 0.6547 0.6964 0.0705 0.0
C195 C 0.70599 0.6865 0.06402 0.0
C196 C 0.61833 0.66553 0.0842 0.0
C197 C 0.48532 0.50266 0.18661 0.0
C198 C 0.53047 0.54165 0.2281 0.0
C199 C 0.4562 0.48426 0.23476 0.0
C200 C 0.45098 0.47751 0.20502 0.0
C201 C 0.49597 0.51642 0.24671 0.0
C202 C 0.52513 0.53486 0.19825 0.0
C203 C 0.47883 0.49439 0.15545 0.0
O204 O 0.46626 0.52565 0.07127 0.0
O205 O 0.5247 0.47831 0.07117 0.0
O206 O 0.51817 0.47844 0.14178 0.0
O207 O 0.45981 0.52595 0.14186 0.0
H208 H 0.41974 0.44361 0.09767 0.0
H209 H 0.35133 0.38 0.08828 0.0
H210 H 0.3819 0.38722 0.99717 0.0
H211 H 0.45126 0.45056 0.00694 0.0
H212 H 0.75809 0.63516 0.06551 0.0
H213 H 0.69508 0.58168 0.08982 0.0
H214 H 0.64334 0.72888 0.06622 0.0
H215 H 0.58005 0.67516 0.09 0.0
H216 H 0.56121 0.56694 0.23659 0.0
H217 H 0.42954 0.46371 0.24839 0.0
H218 H 0.42016 0.45238 0.19637 0.0
H219 H 0.55195 0.55466 0.18427 0.0
H220 H 0.20077 0.10724 0.0169 0.0
H221 H 0.07161 0.18685 0.02459 0.0
H222 H 0.2636 0.17531 0.02097 0.0
H223 H 0.13473 0.25525 0.02812 0.0
H224 H 0.26421 0.36108 0.06811 0.0
H225 H 0.19919 0.29464 0.06138 0.0
H226 H 0.29771 0.24116 0.99577 0.0
H227 H 0.36374 0.30683 1.00331 0.0
C228 C 0.18571 0.13931 0.01926 0.0
C229 C 0.13106 0.14151 0.02051 0.0
C230 C 0.22184 0.17844 0.0214 0.0
C231 C 0.20435 0.22088 0.02483 0.0
C232 C 0.14964 0.22312 0.02582 0.0
C233 C 0.11342 0.18391 0.02365 0.0
C234 C 0.27217 0.33507 0.05233 0.0
C235 C 0.31948 0.33926 0.0364 0.0
C236 C 0.23452 0.29716 0.04823 0.0
C237 C 0.24317 0.26238 0.02808 0.0
C238 C 0.29 0.26699 0.01173 0.0
C239 C 0.32764 0.30495 0.01582 0.0
H240 H 0.13862 0.83911 0.01057 0.0
H241 H 0.28849 0.92369 0.01247 0.0
H242 H 0.18497 0.77223 0.00856 0.0
H243 H 0.33447 0.85766 0.01053 0.0
H244 H 0.39582 0.73776 0.9648 0.0
H245 H 0.34594 0.80096 0.97228 0.0
H246 H 0.24667 0.72798 0.03417 0.0
H247 H 0.29636 0.66374 0.02616 0.0
C248 C 0.18133 0.84341 0.01112 0.0
C249 C 0.20989 0.88667 0.01118 0.0
C250 C 0.20791 0.80517 0.00992 0.0
C251 C 0.26348 0.80959 0.00878 0.0
C252 C 0.2917 0.85295 0.01059 0.0
C253 C 0.26533 0.89086 0.01175 0.0
C254 C 0.36311 0.73488 0.97984 0.0
C255 C 0.35007 0.69552 0.99479 0.0
C256 C 0.3348 0.77139 0.98439 0.0
C257 C 0.29249 0.76976 1.00401 0.0
C258 C 0.27893 0.73029 0.01884 0.0
C259 C 0.30767 0.69367 0.01443 0.0
H260 H 0.99107 0.86441 0.01695 0.0
H261 H 0.86238 0.94476 0.0193 0.0
H262 H 0.92847 0.79742 0.02469 0.0
H263 H 0.80034 0.87833 0.0276 0.0
H264 H 0.69368 0.7465 0.02287 0.0
H265 H 0.75812 0.80765 0.0072 0.0
H266 H 0.87418 0.76713 0.06377 0.0
H267 H 0.80996 0.70609 0.07932 0.0
C268 C 0.94945 0.86776 0.01886 0.0
C269 C 0.93184 0.91003 0.01758 0.0
C270 C 0.91358 0.82939 0.0235 0.0
C271 C 0.85928 0.8324 0.02691 0.0
C272 C 0.84166 0.87451 0.02471 0.0
C273 C 0.87742 0.91277 0.02011 0.0
C274 C 0.733 0.75057 0.03189 0.0
C275 C 0.74646 0.72139 0.05245 0.0
C276 C 0.76998 0.78566 0.02292 0.0
C277 C 0.82138 0.79255 0.03431 0.0
C278 C 0.83529 0.76251 0.05419 0.0
C279 C 0.79835 0.72742 0.06314 0.0
H280 H 0.89899 0.17782 0.97621 0.0
H281 H 0.80252 0.16112 0.05257 0.0
H282 H 0.85211 0.23984 0.96362 0.0
H283 H 0.75536 0.22216 0.03959 0.0
H284 H 0.6422 0.29389 0.98633 0.0
H285 H 0.69255 0.23584 1.00163 0.0
H286 H 0.83779 0.31794 0.98066 0.0
H287 H 0.78766 0.37666 0.966 0.0
C288 C 0.86824 0.18739 0.99046 0.0
C289 C 0.85445 0.16377 0.0153 0.0
C290 C 0.84129 0.22301 0.9832 0.0
C291 C 0.79967 0.23571 1.00048 0.0
C292 C 0.78654 0.21271 0.02553 0.0
C293 C 0.81367 0.17747 0.03291 0.0
C294 C 0.68488 0.30011 0.98548 0.0
C295 C 0.71065 0.34013 0.9748 0.0
C296 C 0.71378 0.26664 0.99415 0.0
C297 C 0.76921 0.27212 0.99219 0.0
C298 C 0.79511 0.31235 0.98199 0.0
C299 C 0.76626 0.34601 0.97356 0.0
H300 H 0.57574 0.68714 0.52206 0.0
H301 H 0.70311 0.60553 0.52142 0.0
H302 H 0.63981 0.75488 0.52498 0.0
H303 H 0.76692 0.67301 0.52513 0.0
H304 H 0.87134 0.80148 0.50453 0.0
H305 H 0.80563 0.73526 0.49893 0.0
H306 H 0.70147 0.79789 0.55738 0.0
H307 H 0.76702 0.86424 0.56272 0.0
C308 C 0.61738 0.68362 0.52264 0.0
C309 C 0.63419 0.64082 0.5215 0.0
C310 C 0.65417 0.72251 0.52448 0.0
C311 C 0.70873 0.71961 0.52529 0.0
C312 C 0.7254 0.67672 0.52408 0.0
C313 C 0.68868 0.6379 0.52215 0.0
C314 C 0.83447 0.80108 0.51625 0.0
C315 C 0.82461 0.83825 0.53412 0.0
C316 C 0.79674 0.76302 0.51308 0.0
C317 C 0.74814 0.76096 0.52779 0.0
C318 C 0.73802 0.79841 0.54536 0.0
C319 C 0.7757 0.83654 0.54845 0.0
H320 H 0.67721 0.36304 0.54628 0.0
H321 H 0.72173 0.38115 0.45781 0.0
H322 H 0.71915 0.2936 0.54517 0.0
H323 H 0.76339 0.3128 0.4566 0.0
H324 H 0.79476 0.16961 0.45395 0.0
H325 H 0.74059 0.23056 0.45876 0.0
H326 H 0.81312 0.27354 0.54044 0.0
H327 H 0.86819 0.21274 0.53548 0.0
C328 C 0.69536 0.35187 0.52658 0.0
C329 C 0.69655 0.3776 0.5022 0.0
C330 C 0.71967 0.31244 0.52596 0.0
C331 C 0.7446 0.29766 0.50078 0.0
C332 C 0.74415 0.32286 0.47626 0.0
C333 C 0.72067 0.3623 0.47701 0.0
C334 C 0.79934 0.19201 0.47296 0.0
C335 C 0.83663 0.18659 0.49408 0.0
C336 C 0.76805 0.22687 0.47576 0.0
C337 C 0.77289 0.25721 0.49984 0.0
C338 C 0.80816 0.25055 0.52172 0.0
C339 C 0.83976 0.21568 0.51885 0.0
H340 H 0.4843 0.36915 0.53048 0.0
H341 H 0.36247 0.44598 0.50513 0.0
H342 H 0.41727 0.30593 0.53986 0.0
H343 H 0.2958 0.38246 0.51319 0.0
H344 H 0.18853 0.28978 0.56918 0.0
H345 H 0.25488 0.348 0.55276 0.0
H346 H 0.35176 0.24715 0.52295 0.0
H347 H 0.28622 0.18873 0.54108 0.0
C348 C 0.44331 0.37216 0.52629 0.0
C349 C 0.42867 0.41275 0.51737 0.0
C350 C 0.40476 0.33582 0.53156 0.0
C351 C 0.35075 0.33908 0.52772 0.0
C352 C 0.3367 0.37895 0.5172 0.0
C353 C 0.37504 0.41536 0.51234 0.0
C354 C 0.22404 0.27988 0.55924 0.0
C355 C 0.23212 0.23445 0.55682 0.0
C356 C 0.26197 0.31338 0.54938 0.0
C357 C 0.30905 0.30256 0.53644 0.0
C358 C 0.31642 0.25694 0.53312 0.0
C359 C 0.27845 0.22331 0.54319 0.0
H360 H 0.27555 0.6296 0.5271 0.0
H361 H 0.42042 0.70267 0.49666 0.0
H362 H 0.22726 0.68974 0.51394 0.0
H363 H 0.37133 0.7625 0.48226 0.0
H364 H 0.27355 0.88176 0.48915 0.0
H365 H 0.32418 0.82242 0.5025 0.0
H366 H 0.19719 0.72241 0.47248 0.0
H367 H 0.1467 0.78151 0.45936 0.0
C368 C 0.29725 0.65853 0.51762 0.0
C369 C 0.35212 0.66127 0.51317 0.0
C370 C 0.2693 0.6929 0.5097 0.0
C371 C 0.29525 0.73106 0.49697 0.0
C372 C 0.35012 0.73382 0.4923 0.0
C373 C 0.37821 0.69927 0.50024 0.0
C374 C 0.25652 0.84708 0.48536 0.0
C375 C 0.20583 0.83647 0.47337 0.0
C376 C 0.28565 0.81304 0.49291 0.0
C377 C 0.26484 0.76754 0.48862 0.0
C378 C 0.21416 0.75703 0.4766 0.0
C379 C 0.18506 0.791 0.46913 0.0
H380 H 0.10398 0.98468 0.10628 0.0
H381 H 0.96945 0.05849 0.10812 0.0
H382 H 0.09987 0.98244 0.15881 0.0
H383 H 0.96588 0.05663 0.15998 0.0
H384 H 0.93475 1.00639 0.24789 0.0
H385 H 0.9432 1.00081 0.19584 0.0
H386 H 0.11227 0.03394 0.20316 0.0
H387 H 0.10378 0.03954 0.25556 0.0
C388 C 0.07372 1.00049 0.11783 0.0
C389 C 0.03697 0.02162 0.10296 0.0
C390 C 0.07148 0.99933 0.14788 0.0
C391 C 0.03219 0.01895 0.16353 0.0
C392 C 0.99598 0.04041 0.14858 0.0
C393 C 0.99832 0.04174 0.11876 0.0
C394 C 0.97376 1.0125 0.23844 0.0
C395 C 0.0185 0.02412 0.25586 0.0
C396 C 0.97862 1.00927 0.2086 0.0
C397 C 0.02834 0.01761 0.19534 0.0
C398 C 0.07345 0.02716 0.21274 0.0
C399 C 0.06857 0.03039 0.24273 0.0
H400 H 0.08694 0.98963 0.92298 0.0
H401 H 0.95702 0.06849 0.93018 0.0
H402 H 0.0811 0.98834 0.87083 0.0
H403 H 0.9519 0.06793 0.87795 0.0
H404 H 0.91795 1.0091 0.78589 0.0
H405 H 0.92579 1.01521 0.83799 0.0
H406 H 0.09573 0.03569 0.83009 0.0
H407 H 0.08787 0.02789 0.77788 0.0
C408 C 0.05733 1.00695 0.91345 0.0
C409 C 0.02227 0.02897 0.93079 0.0
C410 C 0.05424 1.00648 0.88351 0.0
C411 C 1.01601 0.028 0.87015 0.0
C412 C 0.98136 0.0505 0.88752 0.0
C413 C 0.98446 0.051 0.91748 0.0
C414 C 0.95701 1.01468 0.79525 0.0
C415 C 1.00228 0.01767 0.77768 0.0
C416 C 0.96151 0.01872 0.82515 0.0
C417 C 1.0114 0.02585 0.83828 0.0
C418 C 0.0567 0.02967 0.8207 0.0
C419 C 0.0522 0.0257 0.79076 0.0
H420 H 0.46817 0.55476 0.60849 0.0
H421 H 0.6055 0.48435 0.60663 0.0
H422 H 0.46324 0.55089 0.66023 0.0
H423 H 0.60016 0.48029 0.65907 0.0
H424 H 0.59948 0.53632 0.75633 0.0
H425 H 0.60959 0.53193 0.70402 0.0
H426 H 0.44174 0.49241 0.69511 0.0
H427 H 0.43164 0.49655 0.74711 0.0
C428 C 0.49742 0.53838 0.6191 0.0
C429 C 0.53723 0.51978 0.60333 0.0
C430 C 0.49429 0.53589 0.64883 0.0
C431 C 0.53094 0.51486 0.66373 0.0
C432 C 0.5714 0.49678 0.64814 0.0
C433 C 0.57436 0.499 0.61816 0.0
C434 C 0.56491 0.52593 0.74319 0.0
C435 C 0.51462 0.51746 0.75587 0.0
C436 C 0.57073 0.52342 0.71324 0.0
C437 C 0.52636 0.51246 0.69544 0.0
C438 C 0.47654 0.50191 0.70822 0.0
C439 C 0.47074 0.50436 0.73803 0.0
H440 H 0.45983 0.57399 0.43128 0.0
H441 H 0.58424 0.48937 0.4233 0.0
H442 H 0.45477 0.5745 0.37911 0.0
H443 H 0.57835 0.48908 0.37119 0.0
H444 H 0.58701 0.529 0.27844 0.0
H445 H 0.5955 0.53612 0.33062 0.0
H446 H 0.42571 0.52365 0.33897 0.0
H447 H 0.41737 0.51837 0.28692 0.0
C448 C 0.48606 0.55544 0.41841 0.0
C449 C 0.52231 0.5315 0.43149 0.0
C450 C 0.48299 0.55556 0.38848 0.0
C451 C 0.51606 0.53175 0.3709 0.0
C452 C 0.55276 0.50828 0.38403 0.0
C453 C 0.55586 0.50818 0.41395 0.0
C454 C 0.55155 0.52849 0.29141 0.0
C455 C 0.5015 0.52291 0.27846 0.0
C456 C 0.55638 0.53204 0.32134 0.0
C457 C 0.51128 0.53021 0.33904 0.0
C458 C 0.46132 0.5256 0.32605 0.0
C459 C 0.4565 0.52203 0.29616 0.0
loop_
_geom_bond_atom_site_label_1
_geom_bond_atom_site_label_2
_geom_bond_distance
_geom_bond_site_symmetry_2
_ccdc_geom_bond_type
Co0 N5 2.057 . S
Co0 O17 2.021 . S
Co0 O20 2.062 1_455 S
Co0 O24 2.117 1_554 S
Co0 O25 2.020 1_565 S
C1 O21 1.259 1_455 S
C1 O24 1.258 1_545 S
Co2 N11 2.057 . S
Co2 O18 2.117 . S
Co2 O19 2.020 1_545 S
Co2 O21 2.021 1_554 S
Co2 O26 2.062 1_655 S
C3 N5 1.316 . S
C3 N6 1.347 . S
C3 H8 0.931 . S
C4 N5 1.375 1_556 S
C4 C7 1.350 . S
C4 H9 0.930 . S
N5 Co0 2.057 . S
N5 C3 1.316 . S
N5 C4 1.375 1_554 S
N6 C3 1.347 . S
N6 C7 1.373 1_554 S
C7 C4 1.350 . S
C7 N6 1.373 1_556 S
C7 H28 0.931 . S
H8 C3 0.931 . S
H9 C4 0.930 . S
C10 O17 1.259 1_545 S
C10 O18 1.258 1_455 S
N11 Co2 2.057 . S
N11 C12 1.316 . S
N11 C13 1.375 . S
C12 N11 1.316 . S
C12 N14 1.347 . S
C12 H23 0.931 1_554 S
C13 N11 1.375 . S
C13 C15 1.350 . S
C13 H22 0.930 . S
N14 C12 1.347 . S
N14 C15 1.373 . S
C15 C13 1.350 . S
C15 N14 1.373 . S
C15 H29 0.931 . S
C16 O19 1.256 . S
C16 O20 1.255 . S
O17 Co0 2.021 . S
O17 C10 1.259 1_565 S
O18 Co2 2.117 . S
O18 C10 1.258 1_655 S
O19 Co2 2.020 1_565 S
O19 C16 1.256 . S
O20 Co0 2.062 1_655 S
O20 C16 1.255 . S
O21 C1 1.259 1_655 S
O21 Co2 2.021 1_556 S
H22 C13 0.930 . S
H23 C12 0.931 1_556 S
O24 Co0 2.117 1_556 S
O24 C1 1.258 1_565 S
O25 Co0 2.020 1_545 S
O25 C27 1.256 . S
O26 Co2 2.062 1_455 S
O26 C27 1.255 . S
C27 O25 1.256 . S
C27 O26 1.255 . S
H28 C7 0.931 . S
H29 C15 0.931 . S
Co30 N35 2.057 . S
Co30 O47 2.021 . S
Co30 O50 2.062 . S
Co30 O54 2.117 . S
Co30 O55 2.020 . S
C31 O51 1.259 . S
C31 O54 1.258 . S
Co32 N41 2.057 . S
Co32 O48 2.117 . S
Co32 O49 2.020 . S
Co32 O51 2.021 . S
Co32 O56 2.062 . S
C33 N35 1.316 . S
C33 N36 1.347 . S
C33 H38 0.931 . S
C34 N35 1.375 . S
C34 C37 1.350 . S
C34 H39 0.930 . S
N35 Co30 2.057 . S
N35 C33 1.316 . S
N35 C34 1.375 . S
N36 C33 1.347 . S
N36 C37 1.373 . S
C37 C34 1.350 . S
C37 N36 1.373 . S
C37 H58 0.931 . S
H38 C33 0.931 . S
H39 C34 0.930 . S
C40 O47 1.259 . S
C40 O48 1.258 . S
N41 Co32 2.057 . S
N41 C42 1.316 . S
N41 C43 1.375 . S
C42 N41 1.316 . S
C42 N44 1.347 . S
C42 H53 0.931 . S
C43 N41 1.375 . S
C43 C45 1.350 . S
C43 H52 0.930 . S
N44 C42 1.347 . S
N44 C45 1.373 . S
C45 C43 1.350 . S
C45 N44 1.373 . S
C45 H59 0.931 . S
C46 O49 1.256 . S
C46 O50 1.255 . S
O47 Co30 2.021 . S
O47 C40 1.259 . S
O48 Co32 2.117 . S
O48 C40 1.258 . S
O49 Co32 2.020 . S
O49 C46 1.256 . S
O50 Co30 2.062 . S
O50 C46 1.255 . S
O51 C31 1.259 . S
O51 Co32 2.021 . S
H52 C43 0.930 . S
H53 C42 0.931 . S
O54 Co30 2.117 . S
O54 C31 1.258 . S
O55 Co30 2.020 . S
O55 C57 1.256 . S
O56 Co32 2.062 . S
O56 C57 1.255 . S
C57 O55 1.256 . S
C57 O56 1.255 . S
H58 C37 0.931 . S
H59 C45 0.931 . S
C60 C61 1.264 . S
C60 C65 1.479 . S
C60 C70 1.465 . S
C61 C60 1.264 . S
C61 C63 1.339 . S
C61 H88 0.931 . S
C62 C63 1.395 . S
C62 C64 1.320 . S
C63 C61 1.339 . S
C63 C62 1.395 . S
C63 H89 0.929 . S
C64 C62 1.320 . S
C64 C65 1.405 . S
C64 H90 0.930 . S
C65 C60 1.479 . S
C65 C64 1.405 . S
C65 H91 0.931 . S
U66 O67 2.454 1_545 S
U66 O68 2.458 1_545 S
U66 C69 2.984 1_545 S
U66 C70 2.847 1_455 S
U66 C83 2.882 . S
U66 O84 2.441 1_455 S
U66 O85 2.420 1_455 S
U66 O86 2.455 1_545 S
U66 O87 2.449 . S
O67 U66 2.454 1_565 S
O67 C69 1.353 . S
O68 U66 2.458 1_565 S
O68 C69 1.286 . S
C69 U66 2.984 1_565 S
C69 O67 1.353 . S
C69 O68 1.286 . S
C69 C71 1.363 . S
C70 C60 1.465 . S
C70 U66 2.847 1_655 S
C70 O84 1.249 . S
C70 O85 1.202 . S
C71 C69 1.363 . S
C71 C73 1.408 . S
C71 C76 1.342 . S
C72 C73 1.310 . S
C72 C75 1.461 . S
C72 H92 0.932 . S
C73 C71 1.408 . S
C73 C72 1.310 . S
C73 H93 0.930 . S
C74 C75 1.474 . S
C74 C76 1.285 . S
C74 H94 0.929 . S
C75 C72 1.461 . S
C75 C74 1.474 . S
C76 C71 1.342 . S
C76 C74 1.285 . S
C76 H95 0.930 . S
C77 C80 1.424 1_455 S
C77 C82 1.245 1_545 S
C77 C83 1.428 . S
C78 C81 1.260 1_565 S
C78 C82 1.477 . S
C78 H96 0.932 . S
C79 C80 1.384 . S
C79 C81 1.479 1_655 S
C79 H97 0.929 . S
C80 C77 1.424 1_655 S
C80 C79 1.384 . S
C80 H98 0.928 . S
C81 C78 1.260 1_545 S
C81 C79 1.479 1_455 S
C82 C77 1.245 1_565 S
C82 C78 1.477 . S
C82 H99 0.932 . S
C83 U66 2.882 . S
C83 C77 1.428 . S
C83 O86 1.301 1_545 S
C83 O87 1.282 . S
O84 U66 2.441 1_655 S
O84 C70 1.249 . S
O85 U66 2.420 1_655 S
O85 C70 1.202 . S
O86 U66 2.455 1_565 S
O86 C83 1.301 1_565 S
O87 U66 2.449 . S
O87 C83 1.282 . S
H88 C61 0.931 . S
H89 C63 0.929 . S
H90 C64 0.930 . S
H91 C65 0.931 . S
H92 C72 0.932 . S
H93 C73 0.930 . S
H94 C74 0.929 . S
H95 C76 0.930 . S
H96 C78 0.932 . S
H97 C79 0.929 . S
H98 C80 0.928 . S
H99 C82 0.932 . S
C100 C101 1.264 . S
C100 C105 1.479 . S
C100 C110 1.465 . S
C101 C100 1.264 . S
C101 C103 1.339 . S
C101 H128 0.931 . S
C102 C103 1.395 . S
C102 C104 1.320 . S
C103 C101 1.339 . S
C103 C102 1.395 . S
C103 H129 0.929 . S
C104 C102 1.320 . S
C104 C105 1.405 . S
C104 H130 0.930 . S
C105 C100 1.479 . S
C105 C104 1.405 . S
C105 H131 0.931 . S
U106 O107 2.444 1_565 S
U106 O108 2.444 1_565 S
U106 C109 2.972 1_565 S
U106 C110 2.858 1_455 S
U106 C123 2.883 . S
U106 O124 2.447 1_455 S
U106 O125 2.434 1_455 S
U106 O126 2.450 1_565 S
U106 O127 2.456 . S
O107 U106 2.444 1_545 S
O107 C109 1.353 . S
O108 U106 2.444 1_545 S
O108 C109 1.286 . S
C109 U106 2.972 1_545 S
C109 O107 1.353 . S
C109 O108 1.286 . S
C109 C111 1.363 . S
C110 C100 1.465 . S
C110 U106 2.858 1_655 S
C110 O124 1.249 . S
C110 O125 1.202 . S
C111 C109 1.363 . S
C111 C113 1.408 . S
C111 C116 1.342 . S
C112 C113 1.310 . S
C112 C115 1.461 . S
C112 H132 0.932 . S
C113 C111 1.408 . S
C113 C112 1.310 . S
C113 H133 0.930 . S
C114 C115 1.474 . S
C114 C116 1.285 . S
C114 H134 0.929 . S
C115 C112 1.461 . S
C115 C114 1.474 . S
C116 C111 1.342 . S
C116 C114 1.285 . S
C116 H135 0.930 . S
C117 C120 1.424 1_445 S
C117 C122 1.245 . S
C117 C123 1.428 1_545 S
C118 C121 1.260 . S
C118 C122 1.477 . S
C118 H136 0.932 . S
C119 C120 1.384 . S
C119 C121 1.479 1_665 S
C119 H137 0.929 . S
C120 C117 1.424 1_665 S
C120 C119 1.384 . S
C120 H138 0.928 . S
C121 C118 1.260 . S
C121 C119 1.479 1_445 S
C122 C117 1.245 . S
C122 C118 1.477 . S
C122 H139 0.932 . S
C123 U106 2.883 . S
C123 C117 1.428 1_565 S
C123 O126 1.301 1_565 S
C123 O127 1.282 . S
O124 U106 2.447 1_655 S
O124 C110 1.249 . S
O125 U106 2.434 1_655 S
O125 C110 1.202 . S
O126 U106 2.450 1_545 S
O126 C123 1.301 1_545 S
O127 U106 2.456 . S
O127 C123 1.282 . S
H128 C101 0.931 . S
H129 C103 0.929 . S
H130 C104 0.930 . S
H131 C105 0.931 . S
H132 C112 0.932 . S
H133 C113 0.930 . S
H134 C114 0.929 . S
H135 C116 0.930 . S
H136 C118 0.932 . S
H137 C119 0.929 . S
H138 C120 0.928 . S
H139 C122 0.932 . S
C140 C141 1.264 . S
C140 C145 1.479 1_556 S
C140 C150 1.465 . S
C141 C140 1.264 . S
C141 C143 1.339 . S
C141 H168 0.931 . S
C142 C143 1.395 . S
C142 C144 1.320 1_556 S
C143 C141 1.339 . S
C143 C142 1.395 . S
C143 H169 0.929 . S
C144 C142 1.320 1_554 S
C144 C145 1.405 . S
C144 H170 0.930 . S
C145 C140 1.479 1_554 S
C145 C144 1.405 . S
C145 H171 0.931 . S
U146 O147 2.454 . S
U146 O148 2.458 . S
U146 C149 2.984 . S
U146 C150 2.847 . S
U146 C163 2.882 . S
U146 O164 2.441 . S
U146 O165 2.420 . S
U146 O166 2.455 . S
U146 O167 2.449 . S
O147 U146 2.454 . S
O147 C149 1.353 . S
O148 U146 2.458 . S
O148 C149 1.286 . S
C149 U146 2.984 . S
C149 O147 1.353 . S
C149 O148 1.286 . S
C149 C151 1.363 . S
C150 C140 1.465 . S
C150 U146 2.847 . S
C150 O164 1.249 . S
C150 O165 1.202 . S
C151 C149 1.363 . S
C151 C153 1.421 . S
C151 C156 1.342 . S
C152 C153 1.304 1_554 S
C152 C155 1.461 1_554 S
C152 H172 0.932 . S
C153 C151 1.421 . S
C153 C152 1.304 1_556 S
C153 H173 0.923 1_556 S
C154 C155 1.474 . S
C154 C156 1.285 . S
C154 H174 0.929 . S
C155 C152 1.461 1_556 S
C155 C154 1.474 . S
C156 C151 1.342 . S
C156 C154 1.285 . S
C156 H175 0.930 . S
C157 C160 1.424 . S
C157 C162 1.245 . S
C157 C163 1.428 . S
C158 C161 1.260 . S
C158 C162 1.477 . S
C158 H176 0.932 . S
C159 C160 1.384 . S
C159 C161 1.479 . S
C159 H177 0.929 . S
C160 C157 1.424 . S
C160 C159 1.384 . S
C160 H178 0.928 . S
C161 C158 1.260 . S
C161 C159 1.479 . S
C162 C157 1.245 . S
C162 C158 1.477 . S
C162 H179 0.932 . S
C163 U146 2.882 . S
C163 C157 1.428 . S
C163 O166 1.301 . S
C163 O167 1.282 . S
O164 U146 2.441 . S
O164 C150 1.249 . S
O165 U146 2.420 . S
O165 C150 1.202 . S
O166 U146 2.455 . S
O166 C163 1.301 . S
O167 U146 2.449 . S
O167 C163 1.282 . S
H168 C141 0.931 . S
H169 C143 0.929 . S
H170 C144 0.930 . S
H171 C145 0.931 . S
H172 C152 0.932 . S
H173 C153 0.923 1_554 S
H174 C154 0.929 . S
H175 C156 0.930 . S
H176 C158 0.932 . S
H177 C159 0.929 . S
H178 C160 0.928 . S
H179 C162 0.932 . S
C180 C181 1.264 . S
C180 C185 1.479 . S
C180 C190 1.465 . S
C181 C180 1.264 . S
C181 C183 1.339 . S
C181 H208 0.931 . S
C182 C183 1.395 . S
C182 C184 1.320 . S
C183 C181 1.339 . S
C183 C182 1.395 . S
C183 H209 0.929 . S
C184 C182 1.320 . S
C184 C185 1.405 . S
C184 H210 0.930 1_554 S
C185 C180 1.479 . S
C185 C184 1.405 . S
C185 H211 0.931 . S
U186 O187 2.454 . S
U186 O188 2.458 . S
U186 C189 2.984 . S
U186 C190 2.847 . S
U186 C203 2.882 . S
U186 O204 2.441 . S
U186 O205 2.420 . S
U186 O206 2.455 . S
U186 O207 2.449 . S
O187 U186 2.454 . S
O187 C189 1.353 . S
O188 U186 2.458 . S
O188 C189 1.286 . S
C189 U186 2.984 . S
C189 O187 1.353 . S
C189 O188 1.286 . S
C189 C191 1.363 . S
C190 C180 1.465 . S
C190 U186 2.847 . S
C190 O204 1.249 . S
C190 O205 1.202 . S
C191 C189 1.363 . S
C191 C193 1.408 . S
C191 C196 1.342 . S
C192 C193 1.310 . S
C192 C195 1.461 . S
C192 H212 0.932 1_554 S
C193 C191 1.408 . S
C193 C192 1.310 . S
C193 H213 0.930 . S
C194 C195 1.474 . S
C194 C196 1.285 . S
C194 H214 0.929 . S
C195 C192 1.461 . S
C195 C194 1.474 . S
C196 C191 1.342 . S
C196 C194 1.285 . S
C196 H215 0.930 . S
C197 C200 1.424 . S
C197 C202 1.245 . S
C197 C203 1.428 . S
C198 C201 1.260 . S
C198 C202 1.477 . S
C198 H216 0.932 . S
C199 C200 1.384 . S
C199 C201 1.479 . S
C199 H217 0.929 . S
C200 C197 1.424 . S
C200 C199 1.384 . S
C200 H218 0.928 . S
C201 C198 1.260 . S
C201 C199 1.479 . S
C202 C197 1.245 . S
C202 C198 1.477 . S
C202 H219 0.932 . S
C203 U186 2.882 . S
C203 C197 1.428 . S
C203 O206 1.301 . S
C203 O207 1.282 . S
O204 U186 2.441 . S
O204 C190 1.249 . S
O205 U186 2.420 . S
O205 C190 1.202 . S
O206 U186 2.455 . S
O206 C203 1.301 . S
O207 U186 2.449 . S
O207 C203 1.282 . S
H208 C181 0.931 . S
H209 C183 0.929 . S
H210 C184 0.930 1_556 S
H211 C185 0.931 . S
H212 C192 0.932 1_556 S
H213 C193 0.930 . S
H214 C194 0.929 . S
H215 C196 0.930 . S
H216 C198 0.932 . S
H217 C199 0.929 . S
H218 C200 0.928 . S
H219 C202 0.932 . S
H220 C228 0.950 . S
H221 C233 0.950 . S
H222 C230 0.950 . S
H223 C232 0.950 . S
H224 C234 0.950 . S
H225 C236 0.950 . S
H226 C238 0.950 . S
H227 C239 0.950 . S
C228 H220 0.950 . S
C228 C229 1.386 . S
C228 C230 1.391 . S
C229 C228 1.386 . S
C229 C233 1.393 . S
C230 H222 0.950 . S
C230 C228 1.391 . S
C230 C231 1.400 . S
C231 C230 1.400 . S
C231 C232 1.398 . S
C231 C237 1.491 . S
C232 H223 0.950 . S
C232 C231 1.398 . S
C232 C233 1.391 . S
C233 H221 0.950 . S
C233 C229 1.393 . S
C233 C232 1.391 . S
C234 H224 0.950 . S
C234 C235 1.386 . S
C234 C236 1.391 . S
C235 C234 1.386 . S
C235 C239 1.393 . S
C236 H225 0.950 . S
C236 C234 1.391 . S
C236 C237 1.400 . S
C237 C231 1.491 . S
C237 C236 1.400 . S
C237 C238 1.398 . S
C238 H226 0.950 . S
C238 C237 1.398 . S
C238 C239 1.391 . S
C239 H227 0.950 . S
C239 C235 1.393 . S
C239 C238 1.391 . S
H240 C248 0.950 . S
H241 C253 0.950 . S
H242 C250 0.950 . S
H243 C252 0.950 . S
H244 C254 0.950 . S
H245 C256 0.950 . S
H246 C258 0.950 . S
H247 C259 0.950 . S
C248 H240 0.950 . S
C248 C249 1.386 . S
C248 C250 1.391 . S
C249 C248 1.386 . S
C249 C253 1.393 1_554 S
C250 H242 0.950 . S
C250 C248 1.391 . S
C250 C251 1.400 . S
C251 C250 1.400 . S
C251 C252 1.398 1_554 S
C251 C257 1.491 . S
C252 H243 0.950 . S
C252 C251 1.398 1_556 S
C252 C253 1.391 . S
C253 H241 0.950 . S
C253 C249 1.393 1_556 S
C253 C252 1.391 . S
C254 H244 0.950 . S
C254 C255 1.386 1_556 S
C254 C256 1.391 . S
C255 C254 1.386 1_554 S
C255 C259 1.393 . S
C256 H245 0.950 . S
C256 C254 1.391 . S
C256 C257 1.400 1_556 S
C257 C251 1.491 . S
C257 C256 1.400 1_554 S
C257 C258 1.398 . S
C258 H246 0.950 . S
C258 C257 1.398 . S
C258 C259 1.391 . S
C259 H247 0.950 . S
C259 C255 1.393 . S
C259 C258 1.391 . S
H260 C268 0.950 . S
H261 C273 0.950 . S
H262 C270 0.950 . S
H263 C272 0.950 . S
H264 C274 0.950 . S
H265 C276 0.950 . S
H266 C278 0.950 . S
H267 C279 0.950 . S
C268 H260 0.950 . S
C268 C269 1.386 1_556 S
C268 C270 1.391 . S
C269 C268 1.386 1_554 S
C269 C273 1.393 . S
C270 H262 0.950 . S
C270 C268 1.391 . S
C270 C271 1.400 1_556 S
C271 C270 1.400 1_554 S
C271 C272 1.398 . S
C271 C277 1.491 . S
C272 H263 0.950 . S
C272 C271 1.398 . S
C272 C273 1.391 . S
C273 H261 0.950 . S
C273 C269 1.393 . S
C273 C272 1.391 . S
C274 H264 0.950 . S
C274 C275 1.386 . S
C274 C276 1.391 . S
C275 C274 1.386 . S
C275 C279 1.393 1_554 S
C276 H265 0.950 . S
C276 C274 1.391 . S
C276 C277 1.400 . S
C277 C271 1.491 . S
C277 C276 1.400 . S
C277 C278 1.398 1_554 S
C278 H266 0.950 . S
C278 C277 1.398 1_556 S
C278 C279 1.391 . S
C279 H267 0.950 . S
C279 C275 1.393 1_556 S
C279 C278 1.391 . S
H280 C288 0.950 . S
H281 C293 0.950 . S
H282 C290 0.950 . S
H283 C292 0.950 . S
H284 C294 0.950 . S
H285 C296 0.950 . S
H286 C298 0.950 . S
H287 C299 0.950 . S
C288 H280 0.950 . S
C288 C289 1.386 1_556 S
C288 C290 1.391 . S
C289 C288 1.386 1_554 S
C289 C293 1.393 . S
C290 H282 0.950 . S
C290 C288 1.391 . S
C290 C291 1.400 1_556 S
C291 C290 1.400 1_554 S
C291 C292 1.398 . S
C291 C297 1.491 . S
C292 H283 0.950 . S
C292 C291 1.398 . S
C292 C293 1.391 . S
C293 H281 0.950 . S
C293 C289 1.393 . S
C293 C292 1.391 . S
C294 H284 0.950 . S
C294 C295 1.386 . S
C294 C296 1.391 . S
C295 C294 1.386 . S
C295 C299 1.393 1_554 S
C296 H285 0.950 . S
C296 C294 1.391 . S
C296 C297 1.400 . S
C297 C291 1.491 . S
C297 C296 1.400 . S
C297 C298 1.398 1_554 S
C298 H286 0.950 . S
C298 C297 1.398 1_556 S
C298 C299 1.391 . S
C299 H287 0.950 . S
C299 C295 1.393 1_556 S
C299 C298 1.391 . S
H300 C308 0.950 . S
H301 C313 0.950 . S
H302 C310 0.950 . S
H303 C312 0.950 . S
H304 C314 0.950 . S
H305 C316 0.950 . S
H306 C318 0.950 . S
H307 C319 0.950 . S
C308 H300 0.950 . S
C308 C309 1.386 . S
C308 C310 1.391 . S
C309 C308 1.386 . S
C309 C313 1.393 . S
C310 H302 0.950 . S
C310 C308 1.391 . S
C310 C311 1.400 . S
C311 C310 1.400 . S
C311 C312 1.398 . S
C311 C317 1.491 . S
C312 H303 0.950 . S
C312 C311 1.398 . S
C312 C313 1.391 . S
C313 H301 0.950 . S
C313 C309 1.393 . S
C313 C312 1.391 . S
C314 H304 0.950 . S
C314 C315 1.386 . S
C314 C316 1.391 . S
C315 C314 1.386 . S
C315 C319 1.393 . S
C316 H305 0.950 . S
C316 C314 1.391 . S
C316 C317 1.400 . S
C317 C311 1.491 . S
C317 C316 1.400 . S
C317 C318 1.398 . S
C318 H306 0.950 . S
C318 C317 1.398 . S
C318 C319 1.391 . S
C319 H307 0.950 . S
C319 C315 1.393 . S
C319 C318 1.391 . S
H320 C328 0.950 . S
H321 C333 0.950 . S
H322 C330 0.950 . S
H323 C332 0.950 . S
H324 C334 0.950 . S
H325 C336 0.950 . S
H326 C338 0.950 . S
H327 C339 0.950 . S
C328 H320 0.950 . S
C328 C329 1.386 . S
C328 C330 1.391 . S
C329 C328 1.386 . S
C329 C333 1.393 . S
C330 H322 0.950 . S
C330 C328 1.391 . S
C330 C331 1.400 . S
C331 C330 1.400 . S
C331 C332 1.398 . S
C331 C337 1.491 . S
C332 H323 0.950 . S
C332 C331 1.398 . S
C332 C333 1.391 . S
C333 H321 0.950 . S
C333 C329 1.393 . S
C333 C332 1.391 . S
C334 H324 0.950 . S
C334 C335 1.386 . S
C334 C336 1.391 . S
C335 C334 1.386 . S
C335 C339 1.393 . S
C336 H325 0.950 . S
C336 C334 1.391 . S
C336 C337 1.400 . S
C337 C331 1.491 . S
C337 C336 1.400 . S
C337 C338 1.398 . S
C338 H326 0.950 . S
C338 C337 1.398 . S
C338 C339 1.391 . S
C339 H327 0.950 . S
C339 C335 1.393 . S
C339 C338 1.391 . S
H340 C348 0.950 . S
H341 C353 0.950 . S
H342 C350 0.950 . S
H343 C352 0.950 . S
H344 C354 0.950 . S
H345 C356 0.950 . S
H346 C358 0.950 . S
H347 C359 0.950 . S
C348 H340 0.950 . S
C348 C349 1.386 . S
C348 C350 1.391 . S
C349 C348 1.386 . S
C349 C353 1.393 . S
C350 H342 0.950 . S
C350 C348 1.391 . S
C350 C351 1.400 . S
C351 C350 1.400 . S
C351 C352 1.398 . S
C351 C357 1.491 . S
C352 H343 0.950 . S
C352 C351 1.398 . S
C352 C353 1.391 . S
C353 H341 0.950 . S
C353 C349 1.393 . S
C353 C352 1.391 . S
C354 H344 0.950 . S
C354 C355 1.386 . S
C354 C356 1.391 . S
C355 C354 1.386 . S
C355 C359 1.393 . S
C356 H345 0.950 . S
C356 C354 1.391 . S
C356 C357 1.400 . S
C357 C351 1.491 . S
C357 C356 1.400 . S
C357 C358 1.398 . S
C358 H346 0.950 . S
C358 C357 1.398 . S
C358 C359 1.391 . S
C359 H347 0.950 . S
C359 C355 1.393 . S
C359 C358 1.391 . S
H360 C368 0.950 . S
H361 C373 0.950 . S
H362 C370 0.950 . S
H363 C372 0.950 . S
H364 C374 0.950 . S
H365 C376 0.950 . S
H366 C378 0.950 . S
H367 C379 0.950 . S
C368 H360 0.950 . S
C368 C369 1.386 . S
C368 C370 1.391 . S
C369 C368 1.386 . S
C369 C373 1.393 . S
C370 H362 0.950 . S
C370 C368 1.391 . S
C370 C371 1.400 . S
C371 C370 1.400 . S
C371 C372 1.398 . S
C371 C377 1.491 . S
C372 H363 0.950 . S
C372 C371 1.398 . S
C372 C373 1.391 . S
C373 H361 0.950 . S
C373 C369 1.393 . S
C373 C372 1.391 . S
C374 H364 0.950 . S
C374 C375 1.386 . S
C374 C376 1.391 . S
C375 C374 1.386 . S
C375 C379 1.393 . S
C376 H365 0.950 . S
C376 C374 1.391 . S
C376 C377 1.400 . S
C377 C371 1.491 . S
C377 C376 1.400 . S
C377 C378 1.398 . S
C378 H366 0.950 . S
C378 C377 1.398 . S
C378 C379 1.391 . S
C379 H367 0.950 . S
C379 C375 1.393 . S
C379 C378 1.391 . S
H380 C388 0.950 . S
H381 C393 0.950 . S
H382 C390 0.950 . S
H383 C392 0.950 . S
H384 C394 0.950 . S
H385 C396 0.950 . S
H386 C398 0.950 . S
H387 C399 0.950 . S
C388 H380 0.950 . S
C388 C389 1.386 1_565 S
C388 C390 1.391 . S
C389 C388 1.386 1_545 S
C389 C393 1.393 1_455 S
C390 H382 0.950 . S
C390 C388 1.391 . S
C390 C391 1.400 1_565 S
C391 C390 1.400 1_545 S
C391 C392 1.398 1_455 S
C391 C397 1.491 . S
C392 H383 0.950 . S
C392 C391 1.398 1_655 S
C392 C393 1.391 . S
C393 H381 0.950 . S
C393 C389 1.393 1_655 S
C393 C392 1.391 . S
C394 H384 0.950 . S
C394 C395 1.372 1_645 S
C394 C396 1.391 . S
C395 C394 1.372 1_465 S
C395 C399 1.407 . S
C396 H385 0.950 . S
C396 C394 1.391 . S
C396 C397 1.400 1_655 S
C397 C391 1.491 . S
C397 C396 1.400 1_455 S
C397 C398 1.398 1_545 S
C398 H386 0.950 . S
C398 C397 1.398 1_565 S
C398 C399 1.391 . S
C399 H387 0.950 . S
C399 C395 1.407 . S
C399 C398 1.391 . S
H400 C408 0.950 . S
H401 C413 0.948 1_565 S
H402 C410 0.950 . S
H403 C412 0.950 1_565 S
H404 C414 0.950 . S
H405 C416 0.950 . S
H406 C418 0.950 . S
H407 C419 0.950 . S
C408 H400 0.950 . S
C408 C409 1.386 . S
C408 C410 1.391 . S
C409 C408 1.386 . S
C409 C413 1.394 1_455 S
C410 H402 0.950 . S
C410 C408 1.391 . S
C410 C411 1.400 . S
C411 C410 1.400 . S
C411 C412 1.398 1_455 S
C411 C417 1.491 . S
C412 H403 0.950 1_545 S
C412 C411 1.398 1_655 S
C412 C413 1.392 . S
C413 H401 0.948 1_545 S
C413 C409 1.394 1_655 S
C413 C412 1.392 . S
C414 H404 0.950 . S
C414 C415 1.386 1_655 S
C414 C416 1.391 . S
C415 C414 1.386 1_455 S
C415 C419 1.393 . S
C416 H405 0.950 . S
C416 C414 1.391 . S
C416 C417 1.400 1_655 S
C417 C411 1.491 . S
C417 C416 1.400 1_455 S
C417 C418 1.398 . S
C418 H406 0.950 . S
C418 C417 1.398 . S
C418 C419 1.391 . S
C419 H407 0.950 . S
C419 C415 1.393 . S
C419 C418 1.391 . S
H420 C428 0.950 . S
H421 C433 0.950 . S
H422 C430 0.950 . S
H423 C432 0.950 . S
H424 C434 0.950 . S
H425 C436 0.950 . S
H426 C438 0.950 . S
H427 C439 0.950 . S
C428 H420 0.950 . S
C428 C429 1.386 . S
C428 C430 1.391 . S
C429 C428 1.386 . S
C429 C433 1.393 . S
C430 H422 0.950 . S
C430 C428 1.391 . S
C430 C431 1.400 . S
C431 C430 1.400 . S
C431 C432 1.398 . S
C431 C437 1.491 . S
C432 H423 0.950 . S
C432 C431 1.398 . S
C432 C433 1.391 . S
C433 H421 0.950 . S
C433 C429 1.393 . S
C433 C432 1.391 . S
C434 H424 0.950 . S
C434 C435 1.386 . S
C434 C436 1.391 . S
C435 C434 1.386 . S
C435 C439 1.393 . S
C436 H425 0.950 . S
C436 C434 1.391 . S
C436 C437 1.400 . S
C437 C431 1.491 . S
C437 C436 1.400 . S
C437 C438 1.398 . S
C438 H426 0.950 . S
C438 C437 1.398 . S
C438 C439 1.391 . S
C439 H427 0.950 . S
C439 C435 1.393 . S
C439 C438 1.391 . S
H440 C448 0.950 . S
H441 C453 0.950 . S
H442 C450 0.950 . S
H443 C452 0.950 . S
H444 C454 0.950 . S
H445 C456 0.950 . S
H446 C458 0.950 . S
H447 C459 0.950 . S
C448 H440 0.950 . S
C448 C449 1.386 . S
C448 C450 1.391 . S
C449 C448 1.386 . S
C449 C453 1.393 . S
C450 H442 0.950 . S
C450 C448 1.391 . S
C450 C451 1.400 . S
C451 C450 1.400 . S
C451 C452 1.398 . S
C451 C457 1.491 . S
C452 H443 0.950 . S
C452 C451 1.398 . S
C452 C453 1.391 . S
C453 H441 0.950 . S
C453 C449 1.393 . S
C453 C452 1.391 . S
C454 H444 0.950 . S
C454 C455 1.386 . S
C454 C456 1.391 . S
C455 C454 1.386 . S
C455 C459 1.393 . S
C456 H445 0.950 . S
C456 C454 1.391 . S
C456 C457 1.400 . S
C457 C451 1.491 . S
C457 C456 1.400 . S
C457 C458 1.398 . S
C458 H446 0.950 . S
C458 C457 1.398 . S
C458 C459 1.391 . S
C459 H447 0.950 . S
C459 C455 1.393 . S
C459 C458 1.391 . S
C235 C182 1.492 . S
C229 C27 1.539 . S
C249 N6 1.437 . S
C255 C142 1.453 1_554 S
C269 C16 1.518 . S
C275 C195 1.486 . S
C289 N14 1.442 . S
C295 C155 1.440 1_554 S
C309 C57 1.540 . S
C315 C102 1.509 . S
C329 N36 1.447 . S
C335 C62 1.443 . S
C355 C115 1.482 . S
C349 C46 1.518 . S
C375 C75 1.421 . S
C369 N44 1.432 . S
C389 C10 1.390 . S
C395 C81 1.391 1_565 S
C409 C1 1.528 . S
C415 C121 1.523 . S
C435 C161 1.377 . S
C429 C40 1.389 . S
C449 C31 1.525 . S
C455 C201 1.512 . S
