# Generated by pormake.
# Topology zzz, (3,6)-cn, num edge types: 1
# Building blocks:
#     Node 0, Type 0, BuildingBlock: OLANEW_clean_sbu_2, # of connection points: 3
#     Node 1, Type 0, BuildingBlock: OLANEW_clean_sbu_2, # of connection points: 3
#     Node 2, Type 0, BuildingBlock: OLANEW_clean_sbu_2, # of connection points: 3
#     Node 3, Type 0, BuildingBlock: OLANEW_clean_sbu_2, # of connection points: 3
#     Node 4, Type 0, BuildingBlock: OLANEW_clean_sbu_2, # of connection points: 3
#     Node 5, Type 0, BuildingBlock: OLANEW_clean_sbu_2, # of connection points: 3
#     Node 6, Type 0, BuildingBlock: OLANEW_clean_sbu_2, # of connection points: 3
#     Node 7, Type 0, BuildingBlock: OLANEW_clean_sbu_2, # of connection points: 3
#     Node 8, Type 1, BuildingBlock: BETDAH_clean_sbu_0, # of connection points: 6
#     Node 9, Type 1, BuildingBlock: BETDAH_clean_sbu_0, # of connection points: 6
#     Node 10, Type 1, BuildingBlock: BETDAH_clean_sbu_0, # of connection points: 6
#     Node 11, Type 1, BuildingBlock: BETDAH_clean_sbu_0, # of connection points: 6
#     Edge 12, Type (0, 1), BuildingBlock: KIFKEQ_clean_linker_1, # of connection points: 2
#     Edge 13, Type (0, 1), BuildingBlock: KIFKEQ_clean_linker_1, # of connection points: 2
#     Edge 14, Type (0, 1), BuildingBlock: KIFKEQ_clean_linker_1, # of connection points: 2
#     Edge 15, Type (0, 1), BuildingBlock: KIFKEQ_clean_linker_1, # of connection points: 2
#     Edge 16, Type (0, 1), BuildingBlock: KIFKEQ_clean_linker_1, # of connection points: 2
#     Edge 17, Type (0, 1), BuildingBlock: KIFKEQ_clean_linker_1, # of connection points: 2
#     Edge 18, Type (0, 1), BuildingBlock: KIFKEQ_clean_linker_1, # of connection points: 2
#     Edge 19, Type (0, 1), BuildingBlock: KIFKEQ_clean_linker_1, # of connection points: 2
#     Edge 20, Type (0, 1), BuildingBlock: KIFKEQ_clean_linker_1, # of connection points: 2
#     Edge 21, Type (0, 1), BuildingBlock: KIFKEQ_clean_linker_1, # of connection points: 2
#     Edge 22, Type (0, 1), BuildingBlock: KIFKEQ_clean_linker_1, # of connection points: 2
#     Edge 23, Type (0, 1), BuildingBlock: KIFKEQ_clean_linker_1, # of connection points: 2
#     Edge 24, Type (0, 1), BuildingBlock: KIFKEQ_clean_linker_1, # of connection points: 2
#     Edge 25, Type (0, 1), BuildingBlock: KIFKEQ_clean_linker_1, # of connection points: 2
#     Edge 26, Type (0, 1), BuildingBlock: KIFKEQ_clean_linker_1, # of connection points: 2
#     Edge 27, Type (0, 1), BuildingBlock: KIFKEQ_clean_linker_1, # of connection points: 2
#     Edge 28, Type (0, 1), BuildingBlock: KIFKEQ_clean_linker_1, # of connection points: 2
#     Edge 29, Type (0, 1), BuildingBlock: KIFKEQ_clean_linker_1, # of connection points: 2
#     Edge 30, Type (0, 1), BuildingBlock: KIFKEQ_clean_linker_1, # of connection points: 2
#     Edge 31, Type (0, 1), BuildingBlock: KIFKEQ_clean_linker_1, # of connection points: 2
#     Edge 32, Type (0, 1), BuildingBlock: KIFKEQ_clean_linker_1, # of connection points: 2
#     Edge 33, Type (0, 1), BuildingBlock: KIFKEQ_clean_linker_1, # of connection points: 2
#     Edge 34, Type (0, 1), BuildingBlock: KIFKEQ_clean_linker_1, # of connection points: 2
#     Edge 35, Type (0, 1), BuildingBlock: KIFKEQ_clean_linker_1, # of connection points: 2
# Relax obj value: 0.247
# Max RMSD: 0.190
# Mean RMSD: 0.174
data_MOF--net-zzz--node1-OLANEW_clean_sbu_2--node2-BETDAH_clean_sbu_0--edge1-KIFKEQ_clean_linker_1
_symmetry_space_group_name_H-M    P1
_symmetry_Int_Tables_number       1
_symmetry_cell_setting            triclinic
loop_
_symmetry_equiv_pos_as_xyz
'x, y, z'
_cell_length_a     57.287392
_cell_length_b     57.170646
_cell_length_c     15.259082
_cell_angle_alpha  89.765998
_cell_angle_beta   89.819028
_cell_angle_gamma 89.979627
loop_
_atom_site_label
_atom_site_type_symbol
_atom_site_fract_x
_atom_site_fract_y
_atom_site_fract_z
_atom_type_partial_charge
O0 O 0.7272 0.53343 0.20882 0.0
Cd1 Cd 0.69094 0.5427 0.28652 0.0
O2 O 0.73161 0.51041 0.32186 0.0
Cd3 Cd 0.75084 0.48646 0.40506 0.0
O4 O 0.78223 0.48192 0.48071 0.0
C5 C 0.79963 0.47187 0.44571 0.0
O6 O 0.79711 0.46187 0.36892 0.0
C7 C 0.73977 0.5191 0.25131 0.0
C8 C 0.65151 0.53431 0.18646 0.0
O9 O 0.66139 0.55442 0.18643 0.0
O10 O 0.66032 0.51808 0.23423 0.0
O11 O 0.96687 0.73094 0.20949 0.0
Cd12 Cd 0.95468 0.69767 0.2995 0.0
O13 O 0.99502 0.73292 0.30478 0.0
Cd14 Cd 0.02 0.75176 0.38426 0.0
O15 O 0.02075 0.78428 0.45591 0.0
C16 C 0.0048 0.79827 0.43159 0.0
O17 O 0.9902 0.79183 0.37022 0.0
C18 C 0.98477 0.74147 0.23805 0.0
C19 C 0.96223 0.65606 0.21178 0.0
O20 O 0.94259 0.66673 0.2067 0.0
O21 O 0.97823 0.66498 0.25971 0.0
O22 O 0.77119 0.98329 0.23612 0.0
Cd23 Cd 0.80719 0.97702 0.3189 0.0
O24 O 0.76594 0.01227 0.32666 0.0
Cd25 Cd 0.74376 0.03603 0.39974 0.0
O26 O 0.70863 0.03217 0.44888 0.0
C27 C 0.7033 0.03321 0.5295 0.0
O28 O 0.71925 0.03905 0.58705 0.0
C29 C 0.75836 0.99978 0.26402 0.0
C30 C 0.84724 0.98108 0.21698 0.0
O31 O 0.83677 0.96139 0.22579 0.0
O32 O 0.83867 0.99891 0.25638 0.0
O33 O 0.51854 0.75934 0.29204 0.0
Cd34 Cd 0.52535 0.79582 0.37123 0.0
O35 O 0.50276 0.74863 0.4157 0.0
Cd36 Cd 0.48437 0.7283 0.51493 0.0
O37 O 0.47343 0.72843 0.65812 0.0
C38 C 0.48196 0.71363 0.71211 0.0
O39 O 0.47265 0.7292 0.66007 0.0
C40 C 0.50847 0.74364 0.33747 0.0
C41 C 0.5203 0.8351 0.26494 0.0
O42 O 0.54014 0.82501 0.27384 0.0
O43 O 0.50277 0.82657 0.30659 0.0
O44 O 0.27193 0.53347 0.06236 0.0
Cd45 Cd 0.31024 0.53302 0.99282 0.0
O46 O 0.27576 0.49545 0.0751 0.0
Cd47 Cd 0.25933 0.46133 0.09165 0.0
O48 O 0.22441 0.45283 0.04726 0.0
C49 C 0.21859 0.46521 0.98153 0.0
O50 O 0.23412 0.47952 0.94728 0.0
C51 C 0.26371 0.51389 0.08709 0.0
C52 C 0.34399 0.52458 0.11929 0.0
O53 O 0.33857 0.54551 0.09668 0.0
O54 O 0.3337 0.5076 0.08082 0.0
O55 O 0.9598 0.27509 0.09869 0.0
Cd56 Cd 0.9554 0.31558 0.05214 0.0
O57 O 0.99779 0.27857 0.08358 0.0
Cd58 Cd 0.03142 0.26086 0.07642 0.0
O59 O 0.04184 0.22542 0.04345 0.0
C60 C 0.04304 0.22016 0.96281 0.0
O61 O 0.0404 0.23675 0.90383 0.0
C62 C 0.9801 0.26634 0.10498 0.0
C63 C 0.97078 0.3441 0.18722 0.0
O64 O 0.94972 0.33658 0.18511 0.0
O65 O 0.98451 0.33855 0.12416 0.0
O66 O 0.23361 0.99553 0.08948 0.0
Cd67 Cd 0.19705 0.00427 0.01456 0.0
O68 O 0.24647 0.03114 0.06411 0.0
Cd69 Cd 0.22579 0.03604 0.94629 0.0
O70 O 0.2588 0.03171 0.87525 0.0
C71 C 0.2749 0.04613 0.89428 0.0
O72 O 0.2698 0.06396 0.94494 0.0
C73 C 0.24857 0.01152 0.10257 0.0
C74 C 0.16212 0.00765 0.14165 0.0
O75 O 0.16626 0.98826 0.10264 0.0
O76 O 0.1741 0.02561 0.11885 0.0
O77 O 0.5311 0.22583 0.13595 0.0
Cd78 Cd 0.52848 0.18612 0.07893 0.0
O79 O 0.49528 0.22926 0.08856 0.0
Cd80 Cd 0.46583 0.25047 0.04647 0.0
O81 O 0.45634 0.28125 0.97126 0.0
C82 C 0.47142 0.28712 0.91405 0.0
O83 O 0.49003 0.27395 0.90396 0.0
C84 C 0.51299 0.23831 0.12529 0.0
C85 C 0.51785 0.15394 0.21025 0.0
O86 O 0.53905 0.15814 0.18815 0.0
O87 O 0.5016 0.16499 0.17003 0.0
Ho88 Ho 0.02483 0.99856 0.7986 0.0
Ho89 Ho 1.0002 0.01649 0.6307 0.0
C90 C 0.00165 0.96192 0.66149 0.0
C91 C 0.03496 0.97609 0.94088 0.0
C92 C 0.03008 0.95223 0.97367 0.0
C93 C 0.00833 0.94153 0.9596 0.0
C94 C 0.00416 0.91873 0.98941 0.0
C95 C 0.02171 0.90605 0.03306 0.0
C96 C 0.04352 0.91675 0.04645 0.0
C97 C 0.04761 0.93965 0.01727 0.0
C98 C 0.05257 0.00733 0.65934 0.0
C99 C 0.02356 0.05323 0.7704 0.0
C100 C 0.98927 0.03609 0.48329 0.0
C101 C 0.9901 0.05943 0.44278 0.0
C102 C 0.00604 0.07642 0.47094 0.0
C103 C 0.00645 0.09852 0.43131 0.0
C104 C 0.99087 0.10402 0.363 0.0
C105 C 0.97493 0.08687 0.33533 0.0
C106 C 0.97458 0.06479 0.37487 0.0
C107 C 0.97196 0.00564 0.76524 0.0
O108 O 0.00783 0.96639 0.74313 0.0
O109 O 1.0001 0.97839 0.60084 0.0
O110 O 0.04911 0.97747 0.87363 0.0
O111 O 0.01706 0.99022 0.93388 0.0
O112 O 0.05895 0.01105 0.73976 0.0
O113 O 0.03269 0.9981 0.65806 0.0
O114 O 0.01591 0.04918 0.68979 0.0
O115 O 0.02627 0.03643 0.8292 0.0
O116 O 0.97457 0.0335 0.54833 0.0
O117 O 0.00938 0.02594 0.49787 0.0
O118 O 0.96643 0.00255 0.68371 0.0
O119 O 0.99143 0.01581 0.77104 0.0
H120 H 0.99458 0.95073 0.92511 0.0
H121 H 0.9873 0.91087 0.97698 0.0
H122 H 0.05733 0.90751 0.08036 0.0
H123 H 0.06454 0.94752 0.02844 0.0
H124 H 0.01819 0.07258 0.52332 0.0
H125 H 0.01911 0.11122 0.45365 0.0
H126 H 0.96244 0.09062 0.28404 0.0
H127 H 0.96209 0.0519 0.35264 0.0
Ho128 Ho 0.49866 0.01061 0.83861 0.0
Ho129 Ho 0.48585 0.98571 0.66628 0.0
C130 C 0.53939 0.99242 0.70476 0.0
C131 C 0.51853 0.02083 0.98532 0.0
C132 C 0.54278 0.01828 0.01697 0.0
C133 C 0.55561 0.99775 0.00133 0.0
C134 C 0.57893 0.99604 0.02756 0.0
C135 C 0.59007 0.01488 0.0694 0.0
C136 C 0.57709 0.03538 0.0852 0.0
C137 C 0.5537 0.03703 0.05936 0.0
C138 C 0.49089 0.03875 0.69939 0.0
C139 C 0.44507 0.0073 0.7943 0.0
C140 C 0.46877 0.97344 0.51684 0.0
C141 C 0.44575 0.97558 0.4758 0.0
C142 C 0.42986 0.99257 0.50466 0.0
C143 C 0.40768 0.99404 0.46769 0.0
C144 C 0.40119 0.97877 0.40017 0.0
C145 C 0.41724 0.96193 0.37057 0.0
C146 C 0.43934 0.96025 0.40866 0.0
C147 C 0.49614 0.95768 0.80207 0.0
O148 O 0.53321 0.99699 0.78666 0.0
O149 O 0.52385 0.98986 0.64189 0.0
O150 O 0.51548 0.03606 0.92223 0.0
O151 O 0.50678 0.00148 0.97278 0.0
O152 O 0.48556 0.04453 0.77932 0.0
O153 O 0.50119 0.01937 0.69932 0.0
O154 O 0.45169 1.00075 0.71474 0.0
O155 O 0.46009 0.00993 0.85922 0.0
O156 O 0.46978 0.95943 0.58465 0.0
O157 O 0.47997 0.99309 0.5293 0.0
O158 O 0.50172 0.953 0.72155 0.0
O159 O 0.48432 0.97625 0.80585 0.0
H160 H 0.54771 0.98304 0.96811 0.0
H161 H 0.58817 0.97985 0.01533 0.0
H162 H 0.5851 0.05039 0.11595 0.0
H163 H 0.54423 0.05312 0.0713 0.0
H164 H 0.43465 0.0048 0.55545 0.0
H165 H 0.39576 0.00741 0.49066 0.0
H166 H 0.41259 0.94997 0.31859 0.0
H167 H 0.45142 0.94701 0.38575 0.0
Ho168 Ho 0.4833 0.50533 0.76257 0.0
Ho169 Ho 0.50604 0.49341 0.58386 0.0
C170 C 0.50801 0.54598 0.64526 0.0
C171 C 0.47303 0.5216 0.9158 0.0
C172 C 0.47795 0.54312 0.96504 0.0
C173 C 0.4997 0.55435 0.95907 0.0
C174 C 0.50361 0.5753 0.00376 0.0
C175 C 0.48579 0.5855 0.05475 0.0
C176 C 0.4641 0.57403 0.06077 0.0
C177 C 0.46027 0.55305 0.01649 0.0
C178 C 0.45455 0.50308 0.6234 0.0
C179 C 0.48297 0.45231 0.70916 0.0
C180 C 0.51415 0.47667 0.42974 0.0
C181 C 0.51329 0.45293 0.392 0.0
C182 C 0.49422 0.43799 0.40776 0.0
C183 C 0.49415 0.41522 0.37454 0.0
C184 C 0.51324 0.40684 0.32575 0.0
C185 C 0.53228 0.42182 0.31001 0.0
C186 C 0.53224 0.44467 0.34255 0.0
C187 C 0.53568 0.49726 0.71833 0.0
O188 O 0.50313 0.53771 0.72437 0.0
O189 O 0.50696 0.53265 0.57446 0.0
O190 O 0.45956 0.52413 0.84742 0.0
O191 O 0.49066 0.50756 0.90112 0.0
O192 O 0.44864 0.49596 0.70121 0.0
O193 O 0.47462 0.5118 0.62484 0.0
O194 O 0.49016 0.45902 0.63015 0.0
O195 O 0.48126 0.46691 0.77547 0.0
O196 O 0.53055 0.48021 0.48766 0.0
O197 O 0.49418 0.48608 0.45247 0.0
O198 O 0.54091 0.50312 0.63834 0.0
O199 O 0.51567 0.48805 0.72165 0.0
H200 H 0.51361 0.54704 0.91944 0.0
H201 H 0.52062 0.58344 0.99845 0.0
H202 H 0.44985 0.58153 0.09803 0.0
H203 H 0.44332 0.54472 0.02138 0.0
H204 H 0.47946 0.44376 0.44664 0.0
H205 H 0.47938 0.40399 0.3887 0.0
H206 H 0.54715 0.41589 0.27213 0.0
H207 H 0.54716 0.45584 0.32986 0.0
Ho208 Ho 0.99798 0.48268 0.80855 0.0
Ho209 Ho 0.01675 0.506 0.63868 0.0
C210 C 0.96209 0.50193 0.66067 0.0
C211 C 0.97514 0.47408 0.95171 0.0
C212 C 0.95136 0.47919 0.98412 0.0
C213 C 0.94032 0.50059 0.96551 0.0
C214 C 0.91758 0.50488 0.99536 0.0
C215 C 0.90529 0.48781 0.04387 0.0
C216 C 0.91649 0.46639 0.06205 0.0
C217 C 0.93927 0.46218 0.03262 0.0
C218 C 0.00866 0.45289 0.67747 0.0
C219 C 0.05245 0.48308 0.78154 0.0
C220 C 0.03747 0.51939 0.49568 0.0
C221 C 0.06003 0.51637 0.45113 0.0
C222 C 0.07602 0.49928 0.47853 0.0
C223 C 0.09762 0.49711 0.43621 0.0
C224 C 0.10351 0.51194 0.36559 0.0
C225 C 0.08724 0.52885 0.33802 0.0
C226 C 0.06572 0.53105 0.38055 0.0
C227 C 0.00369 0.53499 0.76805 0.0
O228 O 0.9661 0.49831 0.74499 0.0
O229 O 0.97919 0.50289 0.6024 0.0
O230 O 0.97653 0.45932 0.88672 0.0
O231 O 0.98921 0.49194 0.94189 0.0
O232 O 0.01074 0.44771 0.7601 0.0
O233 O 0.99949 0.47279 0.6695 0.0
O234 O 0.0484 0.48853 0.69834 0.0
O235 O 0.03572 0.48248 0.8413 0.0
O236 O 0.03783 0.53135 0.56847 0.0
O237 O 0.02416 0.5009 0.50109 0.0
O238 O 1.00032 0.53943 0.68575 0.0
O239 O 0.01461 0.51607 0.77707 0.0
H240 H 0.94923 0.51399 0.92775 0.0
H241 H 0.90974 0.52169 0.981 0.0
H242 H 0.90753 0.45266 0.09778 0.0
H243 H 0.94739 0.44549 0.04711 0.0
H244 H 0.0718 0.4877 0.53261 0.0
H245 H 0.10965 0.48375 0.45846 0.0
H246 H 0.09134 0.54075 0.28476 0.0
H247 H 0.05357 0.54437 0.35874 0.0
H248 H 0.15251 0.04491 0.24788 0.0
H249 H 0.13249 0.97332 0.19821 0.0
H250 H 0.12524 0.0463 0.37115 0.0
H251 H 0.1055 0.97466 0.32174 0.0
H252 H 0.04356 0.99165 0.49527 0.0
H253 H 0.06892 0.99333 0.367 0.0
H254 H 0.12154 0.02867 0.51945 0.0
H255 H 0.0958 0.02737 0.64793 0.0
C256 C 0.14222 0.02951 0.26295 0.0
C257 C 0.14468 0.00899 0.21327 0.0
C258 C 0.12672 0.03028 0.33392 0.0
C259 C 0.11326 0.01058 0.35632 0.0
C260 C 0.11544 0.99021 0.3056 0.0
C261 C 0.131 0.98941 0.23502 0.0
C262 C 0.06043 1.00002 0.50118 0.0
C263 C 0.06774 0.00942 0.58145 0.0
C264 C 0.07503 1.00081 0.42787 0.0
C265 C 0.09728 0.01101 0.43316 0.0
C266 C 0.1044 0.02087 0.51312 0.0
C267 C 0.08977 0.02001 0.58674 0.0
H268 H 0.54765 0.1232 0.28842 0.0
H269 H 0.47571 0.14601 0.29024 0.0
H270 H 0.53892 0.09506 0.40419 0.0
H271 H 0.467 0.11769 0.40659 0.0
H272 H 0.51062 0.03093 0.54059 0.0
H273 H 0.51535 0.05846 0.41991 0.0
H274 H 0.47794 0.11095 0.56691 0.0
H275 H 0.47299 0.08311 0.68846 0.0
C276 C 0.52997 0.12219 0.31348 0.0
C277 C 0.51237 0.13682 0.28017 0.0
C278 C 0.52494 0.10598 0.37944 0.0
C279 C 0.50226 0.10414 0.4141 0.0
C280 C 0.48465 0.11885 0.38133 0.0
C281 C 0.48963 0.13494 0.31453 0.0
C282 C 0.5031 0.04823 0.54688 0.0
C283 C 0.49152 0.05495 0.62404 0.0
C284 C 0.50598 0.06403 0.47796 0.0
C285 C 0.49724 0.0869 0.48445 0.0
C286 C 0.48478 0.09339 0.56015 0.0
C287 C 0.48202 0.07753 0.62967 0.0
H288 H 0.354 0.48307 0.2006 0.0
H289 H 0.37271 0.55631 0.19688 0.0
H290 H 0.38142 0.47636 0.32057 0.0
H291 H 0.39995 0.54958 0.31663 0.0
H292 H 0.41114 0.48392 0.6054 0.0
H293 H 0.38491 0.48789 0.47951 0.0
H294 H 0.43728 0.52858 0.34317 0.0
H295 H 0.46321 0.52485 0.46864 0.0
C296 C 0.36403 0.4977 0.22507 0.0
C297 C 0.3612 0.52023 0.18937 0.0
C298 C 0.3796 0.49386 0.29403 0.0
C299 C 0.39279 0.51244 0.32785 0.0
C300 C 0.39018 0.53488 0.29125 0.0
C301 C 0.3745 0.53875 0.22297 0.0
C302 C 0.417 0.49357 0.5482 0.0
C303 C 0.4391 0.50414 0.54665 0.0
C304 C 0.4021 0.49574 0.47613 0.0
C305 C 0.40904 0.50866 0.40185 0.0
C306 C 0.43136 0.51878 0.39995 0.0
C307 C 0.44624 0.51651 0.47156 0.0
H308 H 0.01055 0.37042 0.19557 0.0
H309 H 0.94958 0.35034 0.34554 0.0
H310 H 0.02339 0.39519 0.31684 0.0
H311 H 0.96271 0.37475 0.46681 0.0
H312 H 0.0064 0.40528 0.69347 0.0
H313 H 0.9996 0.37706 0.57546 0.0
H314 H 0.00274 0.43299 0.38507 0.0
H315 H 0.00837 0.46108 0.50257 0.0
C316 C 1.00002 0.37114 0.25457 0.0
C317 C 0.97899 0.35857 0.26092 0.0
C318 C 0.00739 0.38525 0.32377 0.0
C319 C 0.9941 0.38664 0.40104 0.0
C320 C 0.97339 0.37368 0.40823 0.0
C321 C 0.9658 0.35991 0.33856 0.0
C322 C 0.00604 0.41143 0.62626 0.0
C323 C 0.00811 0.43539 0.60689 0.0
C324 C 0.00207 0.39534 0.55904 0.0
C325 C 0.00075 0.40294 0.4715 0.0
C326 C 0.00397 0.42669 0.45198 0.0
C327 C 0.00728 0.44278 0.51919 0.0
H328 H 0.8682 0.94697 0.11991 0.0
H329 H 0.87378 0.02011 0.18748 0.0
H330 H 0.90107 0.95118 0.01928 0.0
H331 H 0.90652 0.02432 0.08593 0.0
H332 H 0.93299 0.97916 0.75985 0.0
H333 H 0.90515 0.97178 0.8775 0.0
H334 H 0.94776 0.01193 0.05514 0.0
H335 H 0.97571 0.0195 0.93618 0.0
C336 C 0.87653 0.96391 0.11376 0.0
C337 C 0.86822 0.98327 0.16093 0.0
C338 C 0.89532 0.96631 0.056 0.0
C339 C 0.90625 0.9881 0.04437 0.0
C340 C 0.89856 0.00726 0.09411 0.0
C341 C 0.87969 0.00488 0.15173 0.0
C342 C 0.93651 0.98625 0.82421 0.0
C343 C 0.95637 0.99999 0.83906 0.0
C344 C 0.92066 0.98188 0.89175 0.0
C345 C 0.92429 0.99127 0.97553 0.0
C346 C 0.94447 0.00462 0.99098 0.0
C347 C 0.96049 0.00884 0.92326 0.0
H348 H 0.55424 0.85714 0.1699 0.0
H349 H 0.48035 0.85938 0.22747 0.0
H350 H 0.54954 0.88919 0.06577 0.0
H351 H 0.47562 0.89124 0.12203 0.0
H352 H 0.52451 0.91988 0.80243 0.0
H353 H 0.53118 0.89228 0.92159 0.0
H354 H 0.4857 0.93264 0.08951 0.0
H355 H 0.47874 0.9602 0.96891 0.0
C356 C 0.53701 0.86454 0.16065 0.0
C357 C 0.51763 0.85557 0.2063 0.0
C358 C 0.53432 0.88285 0.10079 0.0
C359 C 0.51219 0.8926 0.08523 0.0
C360 C 0.49293 0.88421 0.13317 0.0
C361 C 0.49562 0.86586 0.19309 0.0
C362 C 0.51606 0.92293 0.86496 0.0
C363 C 0.50107 0.94208 0.8766 0.0
C364 C 0.52001 0.90723 0.93343 0.0
C365 C 0.509 0.91031 0.01499 0.0
C366 C 0.49428 0.92974 0.02713 0.0
C367 C 0.49041 0.94556 0.95848 0.0
H368 H 0.62806 0.5656 0.08421 0.0
H369 H 0.62879 0.49276 0.16136 0.0
H370 H 0.597 0.55751 0.98012 0.0
H371 H 0.59793 0.48462 0.05575 0.0
H372 H 0.5728 0.52621 0.71897 0.0
H373 H 0.59789 0.53605 0.84134 0.0
H374 H 0.55643 0.49207 0.01226 0.0
H375 H 0.53132 0.48184 0.88797 0.0
C376 C 0.62148 0.54789 0.07943 0.0
C377 C 0.63111 0.52975 0.13005 0.0
C378 C 0.60372 0.54326 0.01969 0.0
C379 C 0.59526 0.52038 0.00906 0.0
C380 C 0.60402 0.50244 0.06287 0.0
C381 C 0.62181 0.50709 0.12287 0.0
C382 C 0.56898 0.51867 0.78267 0.0
C383 C 0.55018 0.50326 0.79425 0.0
C384 C 0.58321 0.5245 0.853 0.0
C385 C 0.57902 0.51498 0.93655 0.0
C386 C 0.56008 0.49962 0.94845 0.0
C387 C 0.54569 0.49386 0.87772 0.0
H388 H 0.93147 0.63251 0.10857 0.0
H389 H 0.0031 0.63171 0.1968 0.0
H390 H 0.9399 0.60026 0.00953 0.0
H391 H 0.01161 0.59973 0.0964 0.0
H392 H 0.01582 0.53215 0.94055 0.0
H393 H 0.00384 0.55847 0.05866 0.0
H394 H 0.96278 0.59846 0.87398 0.0
H395 H 0.97433 0.57194 0.75714 0.0
C396 C 0.94896 0.62532 0.10741 0.0
C397 C 0.9667 0.63484 0.15965 0.0
C398 C 0.9538 0.60691 0.05047 0.0
C399 C 0.97647 0.59768 0.04449 0.0
C400 C 0.99393 0.60639 0.09999 0.0
C401 C 0.98908 0.6248 0.15711 0.0
C402 C 0.00398 0.5464 0.92585 0.0
C403 C 0.99594 0.55009 0.84011 0.0
C404 C 0.99725 0.56151 0.99313 0.0
C405 C 0.98233 0.58048 0.97557 0.0
C406 C 0.974 0.5838 0.88988 0.0
C407 C 0.98077 0.56876 0.82281 0.0
H408 H 0.95303 0.22844 0.06822 0.0
H409 H 0.01313 0.25002 0.21715 0.0
H410 H 0.95697 0.18871 0.12715 0.0
H411 H 0.01745 0.21033 0.27445 0.0
H412 H 0.99609 0.1464 0.44351 0.0
H413 H 0.99482 0.18518 0.37694 0.0
H414 H 0.98406 0.15413 0.12277 0.0
H415 H 0.98561 0.11521 0.1891 0.0
C416 C 0.96723 0.22457 0.11273 0.0
C417 C 0.98304 0.24212 0.13692 0.0
C418 C 0.96959 0.20185 0.14597 0.0
C419 C 0.98757 0.1964 0.2052 0.0
C420 C 0.00337 0.21402 0.22921 0.0
C421 C 0.0011 0.23665 0.19553 0.0
C422 C 0.9938 0.14778 0.37326 0.0
C423 C 0.9909 0.12766 0.32176 0.0
C424 C 0.99304 0.17002 0.33513 0.0
C425 C 0.98927 0.17269 0.24467 0.0
C426 C 0.98664 0.15262 0.19287 0.0
C427 C 0.9875 0.13034 0.23095 0.0
H428 H 0.28975 0.03497 0.0947 0.0
H429 H 0.25567 0.97682 0.22427 0.0
H430 H 0.32614 0.0252 0.16814 0.0
H431 H 0.29234 0.96732 0.29928 0.0
H432 H 0.35876 0.98163 0.48119 0.0
H433 H 0.32074 0.98861 0.41237 0.0
H434 H 0.3537 0.98868 0.15755 0.0
H435 H 0.3916 0.98154 0.22604 0.0
C436 C 0.28992 0.0203 0.13985 0.0
C437 C 0.26982 0.00667 0.15395 0.0
C438 C 0.31082 0.01461 0.18121 0.0
C439 C 0.31198 0.99544 0.23863 0.0
C440 C 0.29178 0.9822 0.25517 0.0
C441 C 0.27089 0.98763 0.21236 0.0
C442 C 0.35777 0.98296 0.41045 0.0
C443 C 0.37803 0.98113 0.35874 0.0
C444 C 0.33608 0.98681 0.37126 0.0
C445 C 0.33443 0.98929 0.27996 0.0
C446 C 0.35461 0.98697 0.22821 0.0
C447 C 0.37621 0.98275 0.26722 0.0
H448 H 0.47691 0.2635 0.19383 0.0
H449 H 0.54935 0.26897 0.11863 0.0
H450 H 0.47705 0.30428 0.2394 0.0
H451 H 0.54952 0.31002 0.16204 0.0
H452 H 0.54866 0.37495 0.33575 0.0
H453 H 0.54862 0.33449 0.28606 0.0
H454 H 0.47832 0.34336 0.18907 0.0
H455 H 0.47822 0.3836 0.24158 0.0
C456 C 0.49274 0.27362 0.18531 0.0
C457 C 0.51301 0.26319 0.15144 0.0
C458 C 0.49286 0.29703 0.21152 0.0
C459 C 0.51327 0.31062 0.20415 0.0
C460 C 0.53356 0.30009 0.16999 0.0
C461 C 0.53347 0.27659 0.14463 0.0
C462 C 0.53327 0.36825 0.30329 0.0
C463 C 0.51343 0.38242 0.29273 0.0
C464 C 0.53325 0.34506 0.27444 0.0
C465 C 0.51346 0.33552 0.23342 0.0
C466 C 0.49372 0.34988 0.22184 0.0
C467 C 0.49367 0.37299 0.25161 0.0
H468 H 0.22573 0.54033 0.04478 0.0
H469 H 0.24841 0.48491 0.21739 0.0
H470 H 0.18668 0.5385 0.10958 0.0
H471 H 0.20925 0.48234 0.27973 0.0
H472 H 0.14602 0.50601 0.44344 0.0
H473 H 0.18434 0.50544 0.37387 0.0
H474 H 0.15204 0.51369 0.12012 0.0
H475 H 0.11363 0.51441 0.19 0.0
C476 C 0.22228 0.52762 0.09603 0.0
C477 C 0.23998 0.5125 0.12509 0.0
C478 C 0.19987 0.5264 0.13256 0.0
C479 C 0.19479 0.5102 0.19963 0.0
C480 C 0.21258 0.49511 0.2286 0.0
C481 C 0.23494 0.49634 0.19201 0.0
C482 C 0.14706 0.50738 0.37272 0.0
C483 C 0.12677 0.51032 0.32236 0.0
C484 C 0.16904 0.50706 0.33276 0.0
C485 C 0.17128 0.5096 0.24139 0.0
C486 C 0.15096 0.51211 0.19078 0.0
C487 C 0.12895 0.51248 0.23081 0.0
H488 H 0.95645 0.77298 0.15721 0.0
H489 H 0.02813 0.76211 0.23359 0.0
H490 H 0.96609 0.81225 0.10675 0.0
H491 H 0.03762 0.80196 0.18736 0.0
H492 H 0.05012 0.8677 0.01714 0.0
H493 H 0.04205 0.82753 0.06318 0.0
H494 H 0.97535 0.84951 0.16722 0.0
H495 H 0.98325 0.88945 0.11941 0.0
C496 C 0.9743 0.779 0.1633 0.0
C497 C 0.9914 0.76461 0.20141 0.0
C498 C 0.97978 0.80166 0.13536 0.0
C499 C 0.00255 0.81054 0.14447 0.0
C500 C 0.0199 0.79577 0.17936 0.0
C501 C 0.01441 0.77301 0.207 0.0
C502 C 0.0338 0.86393 0.05036 0.0
C503 C 0.01725 0.88173 0.06403 0.0
C504 C 0.02918 0.8409 0.07693 0.0
C505 C 0.00794 0.83515 0.11828 0.0
C506 C 0.99164 0.85312 0.13362 0.0
C507 C 0.99619 0.87606 0.10648 0.0
H508 H 0.73225 0.04001 0.25268 0.0
H509 H 0.73019 0.9662 0.19473 0.0
H510 H 0.69158 0.04382 0.20713 0.0
H511 H 0.68981 0.97021 0.14572 0.0
H512 H 0.62612 0.99352 0.98138 0.0
H513 H 0.66683 0.99007 0.02585 0.0
H514 H 0.65193 0.02951 0.26 0.0
H515 H 0.61103 0.03246 0.21717 0.0
C516 C 0.72302 0.02452 0.23177 0.0
C517 C 0.73423 0.00264 0.23031 0.0
C518 C 0.69979 0.02675 0.20476 0.0
C519 C 0.68741 0.00727 0.17366 0.0
C520 C 0.69889 0.98557 0.16913 0.0
C521 C 0.72202 0.98328 0.19721 0.0
C522 C 0.63138 1.00122 0.04296 0.0
C523 C 0.61512 0.01319 0.09577 0.0
C524 C 0.65477 0.9993 0.0682 0.0
C525 C 0.66259 0.00953 0.14637 0.0
C526 C 0.64648 0.02171 0.1988 0.0
C527 C 0.62303 0.02343 0.17403 0.0
H528 H 0.50601 0.70124 0.42185 0.0
H529 H 0.50111 0.73349 0.16629 0.0
H530 H 0.50073 0.66282 0.356 0.0
H531 H 0.49516 0.69529 0.10039 0.0
H532 H 0.51016 0.62357 0.99429 0.0
H533 H 0.51575 0.66101 0.06568 0.0
H534 H 0.4741 0.63735 0.28552 0.0
H535 H 0.46982 0.59928 0.21655 0.0
C536 C 0.50326 0.70017 0.35186 0.0
C537 C 0.50378 0.72039 0.2993 0.0
C538 C 0.5003 0.67811 0.31391 0.0
C539 C 0.49765 0.67584 0.22258 0.0
C540 C 0.49769 0.69623 0.17058 0.0
C541 C 0.50091 0.71818 0.20839 0.0
C542 C 0.50253 0.62615 0.05855 0.0
C543 C 0.48953 0.60832 0.09949 0.0
C544 C 0.50541 0.64783 0.09901 0.0
C545 C 0.49517 0.6524 0.18116 0.0
C546 C 0.48239 0.63447 0.22262 0.0
C547 C 0.47967 0.6127 0.18243 0.0
H548 H 0.77924 0.51677 0.34975 0.0
H549 H 0.75441 0.51029 0.08466 0.0
H550 H 0.81904 0.50923 0.30028 0.0
H551 H 0.79409 0.50192 0.03458 0.0
H552 H 0.87023 0.5114 0.9585 0.0
H553 H 0.83074 0.5191 0.00934 0.0
H554 H 0.84483 0.48052 0.24747 0.0
H555 H 0.88481 0.47417 0.19925 0.0
C556 C 0.78228 0.51315 0.28108 0.0
C557 C 0.76373 0.51364 0.22128 0.0
C558 C 0.80512 0.50888 0.25246 0.0
C559 C 0.80995 0.5048 0.16325 0.0
C560 C 0.79122 0.50529 0.10353 0.0
C561 C 0.76843 0.5099 0.13215 0.0
C562 C 0.86506 0.50484 0.02234 0.0
C563 C 0.88089 0.49221 0.07468 0.0
C564 C 0.8422 0.50895 0.05102 0.0
C565 C 0.83438 0.50038 0.1326 0.0
C566 C 0.85019 0.48766 0.18481 0.0
C567 C 0.87312 0.48372 0.15645 0.0
H568 H 0.03551 0.18145 0.0644 0.0
H569 H 0.05198 0.20299 0.79955 0.0
H570 H 0.03242 0.14107 0.01627 0.0
H571 H 0.04967 0.16243 0.75173 0.0
H572 H 0.01314 0.09356 0.68154 0.0
H573 H 0.02012 0.13359 0.7282 0.0
H574 H 0.05355 0.10797 0.96336 0.0
H575 H 0.04593 0.06796 0.91805 0.0
C576 C 0.03898 0.17749 0.99621 0.0
C577 C 0.04397 0.1954 0.93569 0.0
C578 C 0.03726 0.1543 0.96858 0.0
C579 C 0.04071 0.14848 0.87996 0.0
C580 C 0.04649 0.16634 0.82011 0.0
C581 C 0.048 0.18957 0.84762 0.0
C582 C 0.02208 0.09645 0.74299 0.0
C583 C 0.02884 0.07755 0.79632 0.0
C584 C 0.02622 0.11943 0.76955 0.0
C585 C 0.03737 0.12403 0.8497 0.0
C586 C 0.04457 0.10508 0.902 0.0
C587 C 0.04029 0.08212 0.87577 0.0
H588 H 0.31315 0.07258 0.93245 0.0
H589 H 0.29265 0.0081 0.80756 0.0
H590 H 0.35403 0.06293 0.90803 0.0
H591 H 0.33365 0.99823 0.78459 0.0
H592 H 0.40878 0.99978 0.68196 0.0
H593 H 0.36793 0.00972 0.70205 0.0
H594 H 0.38309 0.03548 0.9615 0.0
H595 H 0.42431 0.02621 0.94024 0.0
C596 C 0.31734 0.05639 0.89928 0.0
C597 C 0.29959 0.04113 0.8718 0.0
C598 C 0.34082 0.05075 0.8861 0.0
C599 C 0.34716 0.02971 0.84507 0.0
C600 C 0.32939 0.01468 0.81578 0.0
C601 C 0.30587 0.02032 0.829 0.0
C602 C 0.40352 0.00768 0.74319 0.0
C603 C 0.41997 0.01239 0.80914 0.0
C604 C 0.37998 0.01319 0.75499 0.0
C605 C 0.3722 0.02349 0.83323 0.0
C606 C 0.38856 0.0279 0.89982 0.0
C607 C 0.41217 0.02241 0.88793 0.0
H608 H 0.50276 0.30624 0.7995 0.0
H609 H 0.43573 0.31886 0.92132 0.0
H610 H 0.50217 0.34542 0.73682 0.0
H611 H 0.4349 0.35792 0.85668 0.0
H612 H 0.46307 0.43362 0.85554 0.0
H613 H 0.45716 0.39272 0.89052 0.0
H614 H 0.48387 0.37337 0.63573 0.0
H615 H 0.49031 0.41468 0.60082 0.0
C616 C 0.48768 0.31721 0.81153 0.0
C617 C 0.46945 0.30958 0.86648 0.0
C618 C 0.48727 0.33962 0.77496 0.0
C619 C 0.46859 0.35485 0.79243 0.0
C620 C 0.44972 0.34671 0.84323 0.0
C621 C 0.45016 0.32431 0.88003 0.0
C622 C 0.46755 0.42074 0.80641 0.0
C623 C 0.47743 0.42743 0.72571 0.0
C624 C 0.46391 0.39723 0.82624 0.0
C625 C 0.47002 0.37979 0.7659 0.0
C626 C 0.47917 0.38645 0.68383 0.0
C627 C 0.48278 0.41009 0.66375 0.0
H628 H 0.18132 0.4396 0.04138 0.0
H629 H 0.20119 0.49111 0.84685 0.0
H630 H 0.14102 0.44152 0.98999 0.0
H631 H 0.16104 0.49342 0.79727 0.0
H632 H 0.09104 0.47858 0.67693 0.0
H633 H 0.13112 0.47161 0.72235 0.0
H634 H 0.10886 0.46928 0.99311 0.0
H635 H 0.06867 0.47565 0.9477 0.0
C636 C 0.17712 0.45122 0.98745 0.0
C637 C 0.19444 0.46516 0.94809 0.0
C638 C 0.15403 0.45243 0.95841 0.0
C639 C 0.14784 0.46762 0.88954 0.0
C640 C 0.16527 0.48126 0.84948 0.0
C641 C 0.1883 0.48003 0.87834 0.0
C642 C 0.09464 0.47644 0.7461 0.0
C643 C 0.07664 0.4778 0.80867 0.0
C644 C 0.11765 0.47253 0.77216 0.0
C645 C 0.12319 0.46999 0.86137 0.0
C646 C 0.10513 0.47085 0.92379 0.0
C647 C 0.0821 0.47467 0.89772 0.0
H648 H 0.01019 0.81057 0.60198 0.0
H649 H 0.99477 0.83825 0.34521 0.0
H650 H 0.00555 0.84943 0.66469 0.0
H651 H 0.99213 0.87743 0.40528 0.0
H652 H 0.97336 0.94428 0.53469 0.0
H653 H 0.97127 0.90381 0.48568 0.0
H654 H 0.02353 0.88467 0.67773 0.0
H655 H 0.02395 0.92452 0.73057 0.0
C656 C 0.00615 0.82515 0.55905 0.0
C657 C 0.00286 0.82166 0.46922 0.0
C658 C 0.00359 0.84745 0.59459 0.0
C659 C 0.99851 0.86679 0.54028 0.0
C660 C 0.99543 0.86305 0.44988 0.0
C661 C 0.99722 0.84065 0.41502 0.0
C662 C 0.98406 0.93121 0.56691 0.0
C663 C 0.99884 0.9374 0.63596 0.0
C664 C 0.98309 0.90807 0.53845 0.0
C665 C 0.99749 0.89085 0.57669 0.0
C666 C 0.01185 0.89716 0.6474 0.0
C667 C 0.01225 0.92011 0.67747 0.0
H668 H 0.6811 0.04238 0.68469 0.0
H669 H 0.67308 0.00605 0.43889 0.0
H670 H 0.64213 0.02968 0.72923 0.0
H671 H 0.63499 0.99223 0.48489 0.0
H672 H 0.55754 0.998 0.54153 0.0
H673 H 0.59753 0.00658 0.50246 0.0
H674 H 0.61799 0.99825 0.77358 0.0
H675 H 0.57737 0.99079 0.81341 0.0
C676 C 0.67108 0.03151 0.64067 0.0
C677 C 0.67994 0.02548 0.55799 0.0
C678 C 0.64885 0.024 0.66644 0.0
C679 C 0.6353 0.00998 0.61052 0.0
C680 C 0.64461 0.00346 0.52886 0.0
C681 C 0.66653 0.01133 0.50252 0.0
C682 C 0.57059 0.9976 0.59277 0.0
C683 C 0.56428 0.99377 0.68061 0.0
C684 C 0.59364 0.00246 0.57027 0.0
C685 C 0.61109 0.00318 0.63482 0.0
C686 C 0.60495 0.99829 0.72238 0.0
C687 C 0.58172 0.99378 0.74514 0.0
H688 H 0.51878 0.69169 0.7829 0.0
H689 H 0.46963 0.68695 0.57027 0.0
H690 H 0.53363 0.65293 0.74776 0.0
H691 H 0.48294 0.64743 0.53899 0.0
H692 H 0.50713 0.57447 0.49873 0.0
H693 H 0.50806 0.61732 0.4972 0.0
H694 H 0.51897 0.61689 0.77788 0.0
H695 H 0.51953 0.57497 0.77787 0.0
C696 C 0.51136 0.68236 0.72793 0.0
C697 C 0.49308 0.69214 0.67968 0.0
C698 C 0.51967 0.66004 0.70811 0.0
C699 C 0.50904 0.64655 0.64219 0.0
C700 C 0.49173 0.65714 0.58991 0.0
C701 C 0.48395 0.67981 0.60809 0.0
C702 C 0.51043 0.58368 0.55933 0.0
C703 C 0.51284 0.57134 0.63857 0.0
C704 C 0.51072 0.60824 0.55877 0.0
C705 C 0.51329 0.62081 0.63755 0.0
C706 C 0.51729 0.60819 0.71538 0.0
C707 C 0.51727 0.58388 0.71567 0.0
H708 H 0.81115 0.49753 0.58941 0.0
H709 H 0.84111 0.45465 0.38512 0.0
H710 H 0.85004 0.50746 0.64017 0.0
H711 H 0.88012 0.46419 0.43739 0.0
H712 H 0.94614 0.50441 0.49207 0.0
H713 H 0.90636 0.49758 0.4421 0.0
H714 H 0.88337 0.49053 0.71099 0.0
H715 H 0.92279 0.49803 0.76106 0.0
C716 C 0.82604 0.48993 0.55609 0.0
C717 C 0.82307 0.47536 0.48298 0.0
C718 C 0.84833 0.49564 0.58526 0.0
C719 C 0.86814 0.48681 0.54226 0.0
C720 C 0.86518 0.47168 0.47072 0.0
C721 C 0.84284 0.46601 0.44137 0.0
C722 C 0.93252 0.50182 0.54054 0.0
C723 C 0.93767 0.50158 0.63046 0.0
C724 C 0.90979 0.49764 0.51187 0.0
C725 C 0.89183 0.49312 0.57257 0.0
C726 C 0.89679 0.49403 0.66256 0.0
C727 C 0.91945 0.49829 0.69122 0.0
loop_
_geom_bond_atom_site_label_1
_geom_bond_atom_site_label_2
_geom_bond_distance
_geom_bond_site_symmetry_2
_ccdc_geom_bond_type
O0 Cd1 2.300 . S
O0 C7 1.275 . S
Cd1 O0 2.300 . S
Cd1 O9 2.381 . S
Cd1 O10 2.378 . S
O2 Cd3 2.385 . S
O2 C7 1.255 . S
Cd3 O2 2.385 . S
Cd3 O4 2.317 . S
O4 Cd3 2.317 . S
O4 C5 1.232 . S
C5 O4 1.232 . S
C5 O6 1.218 . S
O6 C5 1.218 . S
C7 O0 1.275 . S
C7 O2 1.255 . S
C8 O9 1.258 . S
C8 O10 1.256 . S
O9 Cd1 2.381 . S
O9 C8 1.258 . S
O10 Cd1 2.378 . S
O10 C8 1.256 . S
O11 Cd12 2.300 1_655 S
O11 C18 1.275 1_655 S
Cd12 O11 2.300 1_455 S
Cd12 O20 2.381 1_455 S
Cd12 O21 2.378 . S
O13 Cd14 2.385 . S
O13 C18 1.255 . S
Cd14 O13 2.385 . S
Cd14 O15 2.317 . S
O15 Cd14 2.317 . S
O15 C16 1.232 . S
C16 O15 1.232 . S
C16 O17 1.218 . S
O17 C16 1.218 . S
C18 O11 1.275 1_455 S
C18 O13 1.255 . S
C19 O20 1.258 1_455 S
C19 O21 1.256 . S
O20 Cd12 2.381 1_655 S
O20 C19 1.258 1_655 S
O21 Cd12 2.378 . S
O21 C19 1.256 . S
O22 Cd23 2.300 1_565 S
O22 C29 1.275 1_565 S
Cd23 O22 2.300 1_545 S
Cd23 O31 2.381 1_545 S
Cd23 O32 2.378 . S
O24 Cd25 2.385 . S
O24 C29 1.255 . S
Cd25 O24 2.385 . S
Cd25 O26 2.317 . S
O26 Cd25 2.317 . S
O26 C27 1.232 . S
C27 O26 1.232 . S
C27 O28 1.218 . S
O28 C27 1.218 . S
C29 O22 1.275 1_545 S
C29 O24 1.255 . S
C30 O31 1.258 1_545 S
C30 O32 1.256 . S
O31 Cd23 2.381 1_565 S
O31 C30 1.258 1_565 S
O32 Cd23 2.378 . S
O32 C30 1.256 . S
O33 Cd34 2.300 . S
O33 C40 1.275 . S
Cd34 O33 2.300 . S
Cd34 O42 2.381 . S
Cd34 O43 2.378 . S
O35 Cd36 2.385 . S
O35 C40 1.255 . S
Cd36 O35 2.385 . S
Cd36 O37 2.317 . S
O37 Cd36 2.317 . S
O37 C38 1.232 . S
C38 O37 1.232 . S
C38 O39 1.218 . S
O39 C38 1.218 . S
C40 O33 1.275 . S
C40 O35 1.255 . S
C41 O42 1.258 . S
C41 O43 1.256 . S
O42 Cd34 2.381 . S
O42 C41 1.258 . S
O43 Cd34 2.378 . S
O43 C41 1.256 . S
O44 Cd45 2.300 . S
O44 C51 1.275 . S
Cd45 O44 2.300 . S
Cd45 O53 2.381 . S
Cd45 O54 2.378 . S
O46 Cd47 2.385 1_554 S
O46 C51 1.255 . S
Cd47 O46 2.385 1_556 S
Cd47 O48 2.317 . S
O48 Cd47 2.317 . S
O48 C49 1.232 . S
C49 O48 1.232 . S
C49 O50 1.218 . S
O50 C49 1.218 . S
C51 O44 1.275 . S
C51 O46 1.255 . S
C52 O53 1.258 . S
C52 O54 1.256 . S
O53 Cd45 2.381 . S
O53 C52 1.258 . S
O54 Cd45 2.378 . S
O54 C52 1.256 . S
O55 Cd56 2.300 1_655 S
O55 C62 1.275 1_655 S
Cd56 O55 2.300 1_455 S
Cd56 O64 2.381 1_455 S
Cd56 O65 2.378 . S
O57 Cd58 2.385 1_554 S
O57 C62 1.255 . S
Cd58 O57 2.385 1_556 S
Cd58 O59 2.317 . S
O59 Cd58 2.317 . S
O59 C60 1.232 . S
C60 O59 1.232 . S
C60 O61 1.218 . S
O61 C60 1.218 . S
C62 O55 1.275 1_455 S
C62 O57 1.255 . S
C63 O64 1.258 1_455 S
C63 O65 1.256 . S
O64 Cd56 2.381 1_655 S
O64 C63 1.258 1_655 S
O65 Cd56 2.378 . S
O65 C63 1.256 . S
O66 Cd67 2.300 1_565 S
O66 C73 1.275 1_565 S
Cd67 O66 2.300 1_545 S
Cd67 O75 2.381 1_545 S
Cd67 O76 2.378 . S
O68 Cd69 2.385 1_554 S
O68 C73 1.255 . S
Cd69 O68 2.385 1_556 S
Cd69 O70 2.317 . S
O70 Cd69 2.317 . S
O70 C71 1.232 . S
C71 O70 1.232 . S
C71 O72 1.218 . S
O72 C71 1.218 . S
C73 O66 1.275 1_545 S
C73 O68 1.255 . S
C74 O75 1.258 1_545 S
C74 O76 1.256 . S
O75 Cd67 2.381 1_565 S
O75 C74 1.258 1_565 S
O76 Cd67 2.378 . S
O76 C74 1.256 . S
O77 Cd78 2.300 . S
O77 C84 1.275 . S
Cd78 O77 2.300 . S
Cd78 O86 2.381 . S
Cd78 O87 2.378 . S
O79 Cd80 2.385 1_554 S
O79 C84 1.255 . S
Cd80 O79 2.385 1_556 S
Cd80 O81 2.317 . S
O81 Cd80 2.317 . S
O81 C82 1.232 . S
C82 O81 1.232 . S
C82 O83 1.218 . S
O83 C82 1.218 . S
C84 O77 1.275 . S
C84 O79 1.255 . S
C85 O86 1.258 . S
C85 O87 1.256 . S
O86 Cd78 2.381 . S
O86 C85 1.258 . S
O87 Cd78 2.378 . S
O87 C85 1.256 . S
Ho88 C91 2.811 . S
Ho88 O108 2.322 . S
Ho88 O110 2.378 . S
Ho88 O111 2.524 1_455 S
Ho88 O112 2.381 . S
Ho88 O113 2.669 1_565 S
Ho88 O115 2.346 1_565 S
Ho88 O119 2.305 1_455 S
Ho89 C100 2.811 . S
Ho89 O109 2.346 1_545 S
Ho89 O113 2.305 1_655 S
Ho89 O114 2.322 . S
Ho89 O116 2.378 . S
Ho89 O117 2.519 1_655 S
Ho89 O118 2.381 . S
Ho89 O119 2.669 1_545 S
C90 O108 1.259 1_655 S
C90 O109 1.268 . S
C91 Ho88 2.811 . S
C91 C92 1.488 . S
C91 O110 1.215 . S
C91 O111 1.290 1_455 S
C92 C91 1.488 . S
C92 C93 1.348 . S
C92 C97 1.413 . S
C93 C92 1.348 . S
C93 C94 1.442 . S
C93 H120 0.930 1_455 S
C94 C93 1.442 . S
C94 C95 1.381 1_556 S
C94 H121 0.931 1_456 S
C95 C94 1.381 1_554 S
C95 C96 1.321 1_554 S
C96 C95 1.321 1_556 S
C96 C97 1.403 . S
C96 H122 0.934 1_556 S
C97 C92 1.413 . S
C97 C96 1.403 . S
C97 H123 0.930 . S
C98 O112 1.294 . S
C98 O113 1.245 1_565 S
C99 O114 1.259 1_455 S
C99 O115 1.268 . S
C100 Ho89 2.811 . S
C100 C101 1.488 . S
C100 O116 1.215 . S
C100 O117 1.278 1_655 S
C101 C100 1.488 . S
C101 C102 1.348 . S
C101 C106 1.413 . S
C102 C101 1.348 . S
C102 C103 1.442 . S
C102 H124 0.930 1_655 S
C103 C102 1.442 . S
C103 C104 1.381 . S
C103 H125 0.931 1_655 S
C104 C103 1.381 . S
C104 C105 1.321 . S
C105 C104 1.321 . S
C105 C106 1.403 . S
C105 H126 0.934 . S
C106 C101 1.413 . S
C106 C105 1.403 . S
C106 H127 0.930 . S
C107 O118 1.300 . S
C107 O119 1.242 1_545 S
O108 Ho88 2.322 . S
O108 C90 1.259 1_455 S
O109 Ho89 2.346 1_565 S
O109 C90 1.268 . S
O110 Ho88 2.378 . S
O110 C91 1.215 . S
O111 Ho88 2.524 1_655 S
O111 C91 1.290 1_655 S
O112 Ho88 2.381 . S
O112 C98 1.294 . S
O113 Ho88 2.669 1_545 S
O113 Ho89 2.305 1_455 S
O113 C98 1.245 1_545 S
O114 Ho89 2.322 . S
O114 C99 1.259 1_655 S
O115 Ho88 2.346 1_545 S
O115 C99 1.268 . S
O116 Ho89 2.378 . S
O116 C100 1.215 . S
O117 Ho89 2.519 1_455 S
O117 C100 1.278 1_455 S
O118 Ho89 2.381 . S
O118 C107 1.300 . S
O119 Ho88 2.305 1_655 S
O119 Ho89 2.669 1_565 S
O119 C107 1.242 1_565 S
H120 C93 0.930 1_655 S
H121 C94 0.931 1_654 S
H122 C96 0.934 1_554 S
H123 C97 0.930 . S
H124 C102 0.930 1_455 S
H125 C103 0.931 1_455 S
H126 C105 0.934 . S
H127 C106 0.930 . S
Ho128 C131 2.811 . S
Ho128 O148 2.322 . S
Ho128 O150 2.378 . S
Ho128 O151 2.523 1_545 S
Ho128 O152 2.381 . S
Ho128 O153 2.669 . S
Ho128 O155 2.346 . S
Ho128 O159 2.305 1_545 S
Ho129 C140 2.811 . S
Ho129 O149 2.346 . S
Ho129 O153 2.305 1_565 S
Ho129 O154 2.322 . S
Ho129 O156 2.378 . S
Ho129 O157 2.519 1_565 S
Ho129 O158 2.381 . S
Ho129 O159 2.669 . S
C130 O148 1.259 1_565 S
C130 O149 1.268 . S
C131 Ho128 2.811 . S
C131 C132 1.488 . S
C131 O150 1.215 . S
C131 O151 1.289 1_545 S
C132 C131 1.488 . S
C132 C133 1.348 . S
C132 C137 1.413 . S
C133 C132 1.348 . S
C133 C134 1.442 . S
C133 H160 0.930 1_545 S
C134 C133 1.442 . S
C134 C135 1.381 1_556 S
C134 H161 0.931 1_546 S
C135 C134 1.381 1_554 S
C135 C136 1.321 1_554 S
C136 C135 1.321 1_556 S
C136 C137 1.403 . S
C136 H162 0.934 1_556 S
C137 C132 1.413 . S
C137 C136 1.403 . S
C137 H163 0.930 . S
C138 O152 1.275 . S
C138 O153 1.256 . S
C139 O154 1.259 1_545 S
C139 O155 1.268 . S
C140 Ho129 2.811 . S
C140 C141 1.488 . S
C140 O156 1.215 . S
C140 O157 1.278 1_565 S
C141 C140 1.488 . S
C141 C142 1.348 . S
C141 C146 1.413 . S
C142 C141 1.348 . S
C142 C143 1.442 . S
C142 H164 0.930 1_565 S
C143 C142 1.442 . S
C143 C144 1.381 . S
C143 H165 0.931 1_565 S
C144 C143 1.381 . S
C144 C145 1.321 . S
C145 C144 1.321 . S
C145 C146 1.403 . S
C145 H166 0.934 . S
C146 C141 1.413 . S
C146 C145 1.403 . S
C146 H167 0.930 . S
C147 O158 1.275 . S
C147 O159 1.256 . S
O148 Ho128 2.322 . S
O148 C130 1.259 1_545 S
O149 Ho129 2.346 . S
O149 C130 1.268 . S
O150 Ho128 2.378 . S
O150 C131 1.215 . S
O151 Ho128 2.523 1_565 S
O151 C131 1.289 1_565 S
O152 Ho128 2.381 . S
O152 C138 1.275 . S
O153 Ho128 2.669 . S
O153 Ho129 2.305 1_545 S
O153 C138 1.256 . S
O154 Ho129 2.322 . S
O154 C139 1.259 1_565 S
O155 Ho128 2.346 . S
O155 C139 1.268 . S
O156 Ho129 2.378 . S
O156 C140 1.215 . S
O157 Ho129 2.519 1_545 S
O157 C140 1.278 1_545 S
O158 Ho129 2.381 . S
O158 C147 1.275 . S
O159 Ho128 2.305 1_565 S
O159 Ho129 2.669 . S
O159 C147 1.256 . S
H160 C133 0.930 1_565 S
H161 C134 0.931 1_564 S
H162 C136 0.934 1_554 S
H163 C137 0.930 . S
H164 C142 0.930 1_545 S
H165 C143 0.931 1_545 S
H166 C145 0.934 . S
H167 C146 0.930 . S
Ho168 C171 2.811 . S
Ho168 O188 2.322 . S
Ho168 O190 2.378 . S
Ho168 O191 2.524 . S
Ho168 O192 2.381 . S
Ho168 O193 2.669 . S
Ho168 O195 2.346 . S
Ho168 O199 2.305 . S
Ho169 C180 2.811 . S
Ho169 O189 2.346 . S
Ho169 O193 2.305 . S
Ho169 O194 2.322 . S
Ho169 O196 2.378 . S
Ho169 O197 2.524 . S
Ho169 O198 2.381 . S
Ho169 O199 2.669 . S
C170 O188 1.259 . S
C170 O189 1.268 . S
C171 Ho168 2.811 . S
C171 C172 1.488 . S
C171 O190 1.215 . S
C171 O191 1.289 . S
C172 C171 1.488 . S
C172 C173 1.348 . S
C172 C177 1.413 . S
C173 C172 1.348 . S
C173 C174 1.442 . S
C173 H200 0.930 . S
C174 C173 1.442 . S
C174 C175 1.381 1_556 S
C174 H201 0.931 1_556 S
C175 C174 1.381 1_554 S
C175 C176 1.321 1_554 S
C176 C175 1.321 1_556 S
C176 C177 1.403 . S
C176 H202 0.934 1_556 S
C177 C172 1.413 . S
C177 C176 1.403 . S
C177 H203 0.930 . S
C178 O192 1.275 . S
C178 O193 1.256 . S
C179 O194 1.259 . S
C179 O195 1.268 . S
C180 Ho169 2.811 . S
C180 C181 1.488 . S
C180 O196 1.215 . S
C180 O197 1.289 . S
C181 C180 1.488 . S
C181 C182 1.348 . S
C181 C186 1.413 . S
C182 C181 1.348 . S
C182 C183 1.442 . S
C182 H204 0.930 . S
C183 C182 1.442 . S
C183 C184 1.381 . S
C183 H205 0.931 . S
C184 C183 1.381 . S
C184 C185 1.321 . S
C185 C184 1.321 . S
C185 C186 1.403 . S
C185 H206 0.934 . S
C186 C181 1.413 . S
C186 C185 1.403 . S
C186 H207 0.930 . S
C187 O198 1.275 . S
C187 O199 1.256 . S
O188 Ho168 2.322 . S
O188 C170 1.259 . S
O189 Ho169 2.346 . S
O189 C170 1.268 . S
O190 Ho168 2.378 . S
O190 C171 1.215 . S
O191 Ho168 2.524 . S
O191 C171 1.289 . S
O192 Ho168 2.381 . S
O192 C178 1.275 . S
O193 Ho168 2.669 . S
O193 Ho169 2.305 . S
O193 C178 1.256 . S
O194 Ho169 2.322 . S
O194 C179 1.259 . S
O195 Ho168 2.346 . S
O195 C179 1.268 . S
O196 Ho169 2.378 . S
O196 C180 1.215 . S
O197 Ho169 2.524 . S
O197 C180 1.289 . S
O198 Ho169 2.381 . S
O198 C187 1.275 . S
O199 Ho168 2.305 . S
O199 Ho169 2.669 . S
O199 C187 1.256 . S
H200 C173 0.930 . S
H201 C174 0.931 1_554 S
H202 C176 0.934 1_554 S
H203 C177 0.930 . S
H204 C182 0.930 . S
H205 C183 0.931 . S
H206 C185 0.934 . S
H207 C186 0.930 . S
Ho208 C211 2.811 . S
Ho208 O228 2.322 . S
Ho208 O230 2.378 . S
Ho208 O231 2.524 . S
Ho208 O232 2.381 . S
Ho208 O233 2.669 1_655 S
Ho208 O235 2.346 1_655 S
Ho208 O239 2.305 . S
Ho209 C220 2.811 . S
Ho209 O229 2.346 1_455 S
Ho209 O233 2.305 . S
Ho209 O234 2.322 . S
Ho209 O236 2.378 . S
Ho209 O237 2.524 . S
Ho209 O238 2.381 . S
Ho209 O239 2.669 1_455 S
C210 O228 1.259 . S
C210 O229 1.268 . S
C211 Ho208 2.811 . S
C211 C212 1.488 . S
C211 O230 1.215 . S
C211 O231 1.289 . S
C212 C211 1.488 . S
C212 C213 1.348 . S
C212 C217 1.413 . S
C213 C212 1.348 . S
C213 C214 1.442 . S
C213 H240 0.930 . S
C214 C213 1.442 . S
C214 C215 1.381 1_556 S
C214 H241 0.931 1_556 S
C215 C214 1.381 1_554 S
C215 C216 1.321 1_554 S
C216 C215 1.321 1_556 S
C216 C217 1.403 . S
C216 H242 0.934 1_556 S
C217 C212 1.413 . S
C217 C216 1.403 . S
C217 H243 0.930 . S
C218 O232 1.293 . S
C218 O233 1.246 1_655 S
C219 O234 1.259 . S
C219 O235 1.268 . S
C220 Ho209 2.811 . S
C220 C221 1.488 . S
C220 O236 1.215 . S
C220 O237 1.289 . S
C221 C220 1.488 . S
C221 C222 1.348 . S
C221 C226 1.413 . S
C222 C221 1.348 . S
C222 C223 1.442 . S
C222 H244 0.930 . S
C223 C222 1.442 . S
C223 C224 1.381 . S
C223 H245 0.931 . S
C224 C223 1.381 . S
C224 C225 1.321 . S
C225 C224 1.321 . S
C225 C226 1.403 . S
C225 H246 0.934 . S
C226 C221 1.413 . S
C226 C225 1.403 . S
C226 H247 0.930 . S
C227 O238 1.275 . S
C227 O239 1.256 1_455 S
O228 Ho208 2.322 . S
O228 C210 1.259 . S
O229 Ho209 2.346 1_655 S
O229 C210 1.268 . S
O230 Ho208 2.378 . S
O230 C211 1.215 . S
O231 Ho208 2.524 . S
O231 C211 1.289 . S
O232 Ho208 2.381 . S
O232 C218 1.293 . S
O233 Ho208 2.669 1_455 S
O233 Ho209 2.305 . S
O233 C218 1.246 1_455 S
O234 Ho209 2.322 . S
O234 C219 1.259 . S
O235 Ho208 2.346 1_455 S
O235 C219 1.268 . S
O236 Ho209 2.378 . S
O236 C220 1.215 . S
O237 Ho209 2.524 . S
O237 C220 1.289 . S
O238 Ho209 2.381 . S
O238 C227 1.275 . S
O239 Ho208 2.305 . S
O239 Ho209 2.669 1_655 S
O239 C227 1.256 1_655 S
H240 C213 0.930 . S
H241 C214 0.931 1_554 S
H242 C216 0.934 1_554 S
H243 C217 0.930 . S
H244 C222 0.930 . S
H245 C223 0.931 . S
H246 C225 0.934 . S
H247 C226 0.930 . S
H248 C256 0.950 . S
H249 C261 0.950 . S
H250 C258 0.950 . S
H251 C260 0.950 . S
H252 C262 0.950 . S
H253 C264 0.950 . S
H254 C266 0.950 . S
H255 C267 0.950 . S
C256 H248 0.950 . S
C256 C257 1.423 . S
C256 C258 1.391 . S
C257 C256 1.423 . S
C257 C261 1.357 1_545 S
C258 H250 0.950 . S
C258 C256 1.391 . S
C258 C259 1.400 . S
C259 C258 1.400 . S
C259 C260 1.398 1_545 S
C259 C265 1.491 . S
C260 H251 0.950 . S
C260 C259 1.398 1_565 S
C260 C261 1.391 . S
C261 H249 0.950 . S
C261 C257 1.357 1_565 S
C261 C260 1.391 . S
C262 H252 0.950 . S
C262 C263 1.386 1_565 S
C262 C264 1.391 . S
C263 C262 1.386 1_545 S
C263 C267 1.393 . S
C264 H253 0.950 . S
C264 C262 1.391 . S
C264 C265 1.400 1_565 S
C265 C259 1.491 . S
C265 C264 1.400 1_545 S
C265 C266 1.398 . S
C266 H254 0.950 . S
C266 C265 1.398 . S
C266 C267 1.391 . S
C267 H255 0.950 . S
C267 C263 1.393 . S
C267 C266 1.391 . S
H268 C276 0.950 . S
H269 C281 0.950 . S
H270 C278 0.950 . S
H271 C280 0.950 . S
H272 C282 0.950 . S
H273 C284 0.950 . S
H274 C286 0.950 . S
H275 C287 0.950 . S
C276 H268 0.950 . S
C276 C277 1.386 . S
C276 C278 1.391 . S
C277 C276 1.386 . S
C277 C281 1.393 . S
C278 H270 0.950 . S
C278 C276 1.391 . S
C278 C279 1.400 . S
C279 C278 1.400 . S
C279 C280 1.398 . S
C279 C285 1.491 . S
C280 H271 0.950 . S
C280 C279 1.398 . S
C280 C281 1.391 . S
C281 H269 0.950 . S
C281 C277 1.393 . S
C281 C280 1.391 . S
C282 H272 0.950 . S
C282 C283 1.386 . S
C282 C284 1.391 . S
C283 C282 1.386 . S
C283 C287 1.393 . S
C284 H273 0.950 . S
C284 C282 1.391 . S
C284 C285 1.400 . S
C285 C279 1.491 . S
C285 C284 1.400 . S
C285 C286 1.398 . S
C286 H274 0.950 . S
C286 C285 1.398 . S
C286 C287 1.391 . S
C287 H275 0.950 . S
C287 C283 1.393 . S
C287 C286 1.391 . S
H288 C296 0.950 . S
H289 C301 0.950 . S
H290 C298 0.950 . S
H291 C300 0.950 . S
H292 C302 0.950 . S
H293 C304 0.950 . S
H294 C306 0.950 . S
H295 C307 0.950 . S
C296 H288 0.950 . S
C296 C297 1.386 . S
C296 C298 1.391 . S
C297 C296 1.386 . S
C297 C301 1.393 . S
C298 H290 0.950 . S
C298 C296 1.391 . S
C298 C299 1.400 . S
C299 C298 1.400 . S
C299 C300 1.398 . S
C299 C305 1.491 . S
C300 H291 0.950 . S
C300 C299 1.398 . S
C300 C301 1.391 . S
C301 H289 0.950 . S
C301 C297 1.393 . S
C301 C300 1.391 . S
C302 H292 0.950 . S
C302 C303 1.386 . S
C302 C304 1.391 . S
C303 C302 1.386 . S
C303 C307 1.393 . S
C304 H293 0.950 . S
C304 C302 1.391 . S
C304 C305 1.400 . S
C305 C299 1.491 . S
C305 C304 1.400 . S
C305 C306 1.398 . S
C306 H294 0.950 . S
C306 C305 1.398 . S
C306 C307 1.391 . S
C307 H295 0.950 . S
C307 C303 1.393 . S
C307 C306 1.391 . S
H308 C316 0.950 . S
H309 C321 0.950 . S
H310 C318 0.950 . S
H311 C320 0.950 . S
H312 C322 0.950 . S
H313 C324 0.950 . S
H314 C326 0.950 . S
H315 C327 0.950 . S
C316 H308 0.950 . S
C316 C317 1.412 . S
C316 C318 1.391 . S
C317 C316 1.412 . S
C317 C321 1.366 1_455 S
C318 H310 0.950 . S
C318 C316 1.391 . S
C318 C319 1.400 . S
C319 C318 1.400 . S
C319 C320 1.398 1_455 S
C319 C325 1.491 . S
C320 H311 0.950 . S
C320 C319 1.398 1_655 S
C320 C321 1.391 . S
C321 H309 0.950 . S
C321 C317 1.366 1_655 S
C321 C320 1.391 . S
C322 H312 0.950 . S
C322 C323 1.386 1_655 S
C322 C324 1.391 . S
C323 C322 1.386 1_455 S
C323 C327 1.393 . S
C324 H313 0.950 . S
C324 C322 1.391 . S
C324 C325 1.400 1_655 S
C325 C319 1.491 . S
C325 C324 1.400 1_455 S
C325 C326 1.398 . S
C326 H314 0.950 . S
C326 C325 1.398 . S
C326 C327 1.391 . S
C327 H315 0.950 . S
C327 C323 1.393 . S
C327 C326 1.391 . S
H328 C336 0.950 . S
H329 C341 0.950 . S
H330 C338 0.950 . S
H331 C340 0.950 . S
H332 C342 0.950 . S
H333 C344 0.950 . S
H334 C346 0.950 . S
H335 C347 0.950 . S
C336 H328 0.950 . S
C336 C337 1.386 . S
C336 C338 1.391 . S
C337 C336 1.386 . S
C337 C341 1.393 1_565 S
C338 H330 0.950 . S
C338 C336 1.391 . S
C338 C339 1.400 . S
C339 C338 1.400 . S
C339 C340 1.398 1_565 S
C339 C345 1.491 . S
C340 H331 0.950 . S
C340 C339 1.398 1_545 S
C340 C341 1.391 . S
C341 H329 0.950 . S
C341 C337 1.393 1_545 S
C341 C340 1.391 . S
C342 H332 0.950 . S
C342 C343 1.386 1_545 S
C342 C344 1.391 . S
C343 C342 1.386 1_565 S
C343 C347 1.393 . S
C344 H333 0.950 . S
C344 C342 1.391 . S
C344 C345 1.400 1_546 S
C345 C339 1.491 . S
C345 C344 1.400 1_564 S
C345 C346 1.398 . S
C346 H334 0.950 . S
C346 C345 1.398 . S
C346 C347 1.390 1_554 S
C347 H335 0.950 . S
C347 C343 1.393 . S
C347 C346 1.390 1_556 S
H348 C356 0.950 . S
H349 C361 0.950 . S
H350 C358 0.950 . S
H351 C360 0.950 . S
H352 C362 0.950 . S
H353 C364 0.950 . S
H354 C366 0.950 . S
H355 C367 0.950 . S
C356 H348 0.950 . S
C356 C357 1.386 . S
C356 C358 1.391 . S
C357 C356 1.386 . S
C357 C361 1.393 . S
C358 H350 0.950 . S
C358 C356 1.391 . S
C358 C359 1.400 . S
C359 C358 1.400 . S
C359 C360 1.398 . S
C359 C365 1.491 . S
C360 H351 0.950 . S
C360 C359 1.398 . S
C360 C361 1.391 . S
C361 H349 0.950 . S
C361 C357 1.393 . S
C361 C360 1.391 . S
C362 H352 0.950 . S
C362 C363 1.386 . S
C362 C364 1.391 . S
C363 C362 1.386 . S
C363 C367 1.393 . S
C364 H353 0.950 . S
C364 C362 1.391 . S
C364 C365 1.400 1_556 S
C365 C359 1.491 . S
C365 C364 1.400 1_554 S
C365 C366 1.398 . S
C366 H354 0.950 . S
C366 C365 1.398 . S
C366 C367 1.391 1_554 S
C367 H355 0.950 . S
C367 C363 1.393 . S
C367 C366 1.391 1_556 S
H368 C376 0.950 . S
H369 C381 0.950 . S
H370 C378 0.950 . S
H371 C380 0.950 . S
H372 C382 0.950 . S
H373 C384 0.950 . S
H374 C386 0.950 . S
H375 C387 0.950 . S
C376 H368 0.950 . S
C376 C377 1.386 . S
C376 C378 1.391 . S
C377 C376 1.386 . S
C377 C381 1.393 . S
C378 H370 0.950 . S
C378 C376 1.391 . S
C378 C379 1.400 . S
C379 C378 1.400 . S
C379 C380 1.398 . S
C379 C385 1.491 . S
C380 H371 0.950 . S
C380 C379 1.398 . S
C380 C381 1.391 . S
C381 H369 0.950 . S
C381 C377 1.393 . S
C381 C380 1.391 . S
C382 H372 0.950 . S
C382 C383 1.386 . S
C382 C384 1.391 . S
C383 C382 1.386 . S
C383 C387 1.393 . S
C384 H373 0.950 . S
C384 C382 1.391 . S
C384 C385 1.400 1_556 S
C385 C379 1.491 . S
C385 C384 1.400 1_554 S
C385 C386 1.398 . S
C386 H374 0.950 . S
C386 C385 1.398 . S
C386 C387 1.391 1_554 S
C387 H375 0.950 . S
C387 C383 1.393 . S
C387 C386 1.391 1_556 S
H388 C396 0.950 . S
H389 C401 0.950 . S
H390 C398 0.950 . S
H391 C400 0.950 . S
H392 C402 0.950 . S
H393 C404 0.950 1_554 S
H394 C406 0.950 . S
H395 C407 0.950 . S
C396 H388 0.950 . S
C396 C397 1.405 . S
C396 C398 1.391 . S
C397 C396 1.405 . S
C397 C401 1.373 1_655 S
C398 H390 0.950 . S
C398 C396 1.391 . S
C398 C399 1.440 . S
C399 C398 1.440 . S
C399 C400 1.359 1_655 S
C399 C405 1.492 . S
C400 H391 0.950 . S
C400 C399 1.359 1_455 S
C400 C401 1.391 . S
C401 H389 0.950 . S
C401 C397 1.373 1_455 S
C401 C400 1.391 . S
C402 H392 0.950 . S
C402 C403 1.386 1_455 S
C402 C404 1.391 . S
C403 C402 1.386 1_655 S
C403 C407 1.393 . S
C404 H393 0.950 1_556 S
C404 C402 1.391 . S
C404 C405 1.400 1_456 S
C405 C399 1.492 . S
C405 C404 1.400 1_654 S
C405 C406 1.398 1_554 S
C406 H394 0.950 . S
C406 C405 1.398 1_556 S
C406 C407 1.391 . S
C407 H395 0.950 . S
C407 C403 1.393 . S
C407 C406 1.391 . S
H408 C416 0.950 . S
H409 C421 0.950 . S
H410 C418 0.950 . S
H411 C420 0.950 . S
H412 C422 0.950 . S
H413 C424 0.950 1_455 S
H414 C426 0.950 . S
H415 C427 0.950 . S
C416 H408 0.950 . S
C416 C417 1.386 1_655 S
C416 C418 1.391 . S
C417 C416 1.386 1_455 S
C417 C421 1.393 . S
C418 H410 0.950 . S
C418 C416 1.391 . S
C418 C419 1.400 . S
C419 C418 1.400 . S
C419 C420 1.398 1_655 S
C419 C425 1.491 . S
C420 H411 0.950 . S
C420 C419 1.398 1_455 S
C420 C421 1.391 . S
C421 H409 0.950 . S
C421 C417 1.393 . S
C421 C420 1.391 . S
C422 H412 0.950 . S
C422 C423 1.386 . S
C422 C424 1.391 . S
C423 C422 1.386 . S
C423 C427 1.393 . S
C424 H413 0.950 1_655 S
C424 C422 1.391 . S
C424 C425 1.400 . S
C425 C419 1.491 . S
C425 C424 1.400 . S
C425 C426 1.398 . S
C426 H414 0.950 . S
C426 C425 1.398 . S
C426 C427 1.391 . S
C427 H415 0.950 . S
C427 C423 1.393 . S
C427 C426 1.391 . S
H428 C436 0.950 . S
H429 C441 0.950 . S
H430 C438 0.950 . S
H431 C440 0.950 . S
H432 C442 0.950 . S
H433 C444 0.950 . S
H434 C446 0.950 . S
H435 C447 0.950 . S
C436 H428 0.950 . S
C436 C437 1.386 . S
C436 C438 1.391 1_545 S
C437 C436 1.386 . S
C437 C441 1.393 1_545 S
C438 H430 0.950 . S
C438 C436 1.391 1_565 S
C438 C439 1.400 . S
C439 C438 1.400 . S
C439 C440 1.398 . S
C439 C445 1.491 . S
C440 H431 0.950 . S
C440 C439 1.398 . S
C440 C441 1.391 . S
C441 H429 0.950 . S
C441 C437 1.393 1_565 S
C441 C440 1.391 . S
C442 H432 0.950 . S
C442 C443 1.386 . S
C442 C444 1.391 . S
C443 C442 1.386 . S
C443 C447 1.393 . S
C444 H433 0.950 . S
C444 C442 1.391 . S
C444 C445 1.400 . S
C445 C439 1.491 . S
C445 C444 1.400 . S
C445 C446 1.398 . S
C446 H434 0.950 . S
C446 C445 1.398 . S
C446 C447 1.391 . S
C447 H435 0.950 . S
C447 C443 1.393 . S
C447 C446 1.391 . S
H448 C456 0.950 . S
H449 C461 0.950 . S
H450 C458 0.950 . S
H451 C460 0.950 . S
H452 C462 0.950 . S
H453 C464 0.950 . S
H454 C466 0.950 . S
H455 C467 0.950 . S
C456 H448 0.950 . S
C456 C457 1.386 . S
C456 C458 1.391 . S
C457 C456 1.386 . S
C457 C461 1.393 . S
C458 H450 0.950 . S
C458 C456 1.391 . S
C458 C459 1.400 . S
C459 C458 1.400 . S
C459 C460 1.398 . S
C459 C465 1.491 . S
C460 H451 0.950 . S
C460 C459 1.398 . S
C460 C461 1.391 . S
C461 H449 0.950 . S
C461 C457 1.393 . S
C461 C460 1.391 . S
C462 H452 0.950 . S
C462 C463 1.386 . S
C462 C464 1.391 . S
C463 C462 1.386 . S
C463 C467 1.393 . S
C464 H453 0.950 . S
C464 C462 1.391 . S
C464 C465 1.400 . S
C465 C459 1.491 . S
C465 C464 1.400 . S
C465 C466 1.398 . S
C466 H454 0.950 . S
C466 C465 1.398 . S
C466 C467 1.391 . S
C467 H455 0.950 . S
C467 C463 1.393 . S
C467 C466 1.391 . S
H468 C476 0.950 . S
H469 C481 0.950 . S
H470 C478 0.950 . S
H471 C480 0.950 . S
H472 C482 0.950 . S
H473 C484 0.950 . S
H474 C486 0.950 . S
H475 C487 0.950 . S
C476 H468 0.950 . S
C476 C477 1.386 . S
C476 C478 1.391 . S
C477 C476 1.386 . S
C477 C481 1.393 . S
C478 H470 0.950 . S
C478 C476 1.391 . S
C478 C479 1.400 . S
C479 C478 1.400 . S
C479 C480 1.398 . S
C479 C485 1.491 . S
C480 H471 0.950 . S
C480 C479 1.398 . S
C480 C481 1.391 . S
C481 H469 0.950 . S
C481 C477 1.393 . S
C481 C480 1.391 . S
C482 H472 0.950 . S
C482 C483 1.386 . S
C482 C484 1.391 . S
C483 C482 1.386 . S
C483 C487 1.393 . S
C484 H473 0.950 . S
C484 C482 1.391 . S
C484 C485 1.400 . S
C485 C479 1.491 . S
C485 C484 1.400 . S
C485 C486 1.398 . S
C486 H474 0.950 . S
C486 C485 1.398 . S
C486 C487 1.391 . S
C487 H475 0.950 . S
C487 C483 1.393 . S
C487 C486 1.391 . S
H488 C496 0.950 . S
H489 C501 0.950 . S
H490 C498 0.950 . S
H491 C500 0.950 . S
H492 C502 0.950 . S
H493 C504 0.950 . S
H494 C506 0.950 1_655 S
H495 C507 0.950 1_655 S
C496 H488 0.950 . S
C496 C497 1.386 . S
C496 C498 1.391 . S
C497 C496 1.386 . S
C497 C501 1.393 1_655 S
C498 H490 0.950 . S
C498 C496 1.391 . S
C498 C499 1.400 1_655 S
C499 C498 1.400 1_455 S
C499 C500 1.398 . S
C499 C505 1.491 . S
C500 H491 0.950 . S
C500 C499 1.398 . S
C500 C501 1.391 . S
C501 H489 0.950 . S
C501 C497 1.393 1_455 S
C501 C500 1.391 . S
C502 H492 0.950 . S
C502 C503 1.386 . S
C502 C504 1.391 . S
C503 C502 1.386 . S
C503 C507 1.393 . S
C504 H493 0.950 . S
C504 C502 1.391 . S
C504 C505 1.400 . S
C505 C499 1.491 . S
C505 C504 1.400 . S
C505 C506 1.398 . S
C506 H494 0.950 1_455 S
C506 C505 1.398 . S
C506 C507 1.391 . S
C507 H495 0.950 1_455 S
C507 C503 1.393 . S
C507 C506 1.391 . S
H508 C516 0.950 . S
H509 C521 0.950 1_565 S
H510 C518 0.950 . S
H511 C520 0.950 . S
H512 C522 0.950 . S
H513 C524 0.950 1_556 S
H514 C526 0.950 . S
H515 C527 0.950 . S
C516 H508 0.950 . S
C516 C517 1.376 1_545 S
C516 C518 1.391 . S
C517 C516 1.376 1_565 S
C517 C521 1.392 1_565 S
C518 H510 0.950 . S
C518 C516 1.391 . S
C518 C519 1.400 . S
C519 C518 1.400 . S
C519 C520 1.398 . S
C519 C525 1.491 . S
C520 H511 0.950 . S
C520 C519 1.398 . S
C520 C521 1.390 . S
C521 H509 0.950 1_545 S
C521 C517 1.392 1_545 S
C521 C520 1.390 . S
C522 H512 0.950 . S
C522 C523 1.386 1_556 S
C522 C524 1.391 1_556 S
C523 C522 1.386 1_554 S
C523 C527 1.393 . S
C524 H513 0.950 1_554 S
C524 C522 1.391 1_554 S
C524 C525 1.400 . S
C525 C519 1.491 . S
C525 C524 1.400 . S
C525 C526 1.398 . S
C526 H514 0.950 . S
C526 C525 1.398 . S
C526 C527 1.391 . S
C527 H515 0.950 . S
C527 C523 1.393 . S
C527 C526 1.391 . S
H528 C536 0.950 . S
H529 C541 0.950 . S
H530 C538 0.950 . S
H531 C540 0.950 . S
H532 C542 0.950 . S
H533 C544 0.950 . S
H534 C546 0.950 . S
H535 C547 0.950 . S
C536 H528 0.950 . S
C536 C537 1.386 . S
C536 C538 1.391 . S
C537 C536 1.386 . S
C537 C541 1.393 . S
C538 H530 0.950 . S
C538 C536 1.391 . S
C538 C539 1.400 . S
C539 C538 1.400 . S
C539 C540 1.398 . S
C539 C545 1.491 . S
C540 H531 0.950 . S
C540 C539 1.398 . S
C540 C541 1.391 . S
C541 H529 0.950 . S
C541 C537 1.393 . S
C541 C540 1.391 . S
C542 H532 0.950 . S
C542 C543 1.386 1_556 S
C542 C544 1.391 1_556 S
C543 C542 1.386 1_554 S
C543 C547 1.393 . S
C544 H533 0.950 . S
C544 C542 1.391 1_554 S
C544 C545 1.400 . S
C545 C539 1.491 . S
C545 C544 1.400 . S
C545 C546 1.398 . S
C546 H534 0.950 . S
C546 C545 1.398 . S
C546 C547 1.391 . S
C547 H535 0.950 . S
C547 C543 1.393 . S
C547 C546 1.391 . S
H548 C556 0.950 . S
H549 C561 0.950 . S
H550 C558 0.950 . S
H551 C560 0.950 . S
H552 C562 0.950 . S
H553 C564 0.950 1_556 S
H554 C566 0.950 . S
H555 C567 0.950 . S
C556 H548 0.950 . S
C556 C557 1.386 . S
C556 C558 1.391 . S
C557 C556 1.386 . S
C557 C561 1.393 . S
C558 H550 0.950 . S
C558 C556 1.391 . S
C558 C559 1.400 . S
C559 C558 1.400 . S
C559 C560 1.398 . S
C559 C565 1.491 . S
C560 H551 0.950 . S
C560 C559 1.398 . S
C560 C561 1.391 . S
C561 H549 0.950 . S
C561 C557 1.393 . S
C561 C560 1.391 . S
C562 H552 0.950 . S
C562 C563 1.386 1_556 S
C562 C564 1.391 1_556 S
C563 C562 1.386 1_554 S
C563 C567 1.393 . S
C564 H553 0.950 1_554 S
C564 C562 1.391 1_554 S
C564 C565 1.400 . S
C565 C559 1.491 . S
C565 C564 1.400 . S
C565 C566 1.398 . S
C566 H554 0.950 . S
C566 C565 1.398 . S
C566 C567 1.391 . S
C567 H555 0.950 . S
C567 C563 1.393 . S
C567 C566 1.391 . S
H568 C576 0.950 . S
H569 C581 0.959 . S
H570 C578 0.950 . S
H571 C580 0.948 1_655 S
H572 C582 0.950 . S
H573 C584 0.950 . S
H574 C586 0.950 . S
H575 C587 0.950 . S
C576 H568 0.950 . S
C576 C577 1.386 . S
C576 C578 1.391 . S
C577 C576 1.386 . S
C577 C581 1.388 1_455 S
C578 H570 0.950 . S
C578 C576 1.391 . S
C578 C579 1.400 . S
C579 C578 1.400 . S
C579 C580 1.402 . S
C579 C585 1.491 . S
C580 H571 0.948 1_455 S
C580 C579 1.402 . S
C580 C581 1.389 1_455 S
C581 H569 0.959 . S
C581 C577 1.388 1_655 S
C581 C580 1.389 1_655 S
C582 H572 0.950 . S
C582 C583 1.386 . S
C582 C584 1.391 . S
C583 C582 1.386 . S
C583 C587 1.393 . S
C584 H573 0.950 . S
C584 C582 1.391 . S
C584 C585 1.400 . S
C585 C579 1.491 . S
C585 C584 1.400 . S
C585 C586 1.398 . S
C586 H574 0.950 . S
C586 C585 1.398 . S
C586 C587 1.391 . S
C587 H575 0.950 . S
C587 C583 1.393 . S
C587 C586 1.391 . S
H588 C596 0.950 . S
H589 C601 0.950 . S
H590 C598 0.950 . S
H591 C600 0.950 . S
H592 C602 0.950 . S
H593 C604 0.950 . S
H594 C606 0.950 . S
H595 C607 0.950 . S
C596 H588 0.950 . S
C596 C597 1.386 1_565 S
C596 C598 1.391 . S
C597 C596 1.386 1_545 S
C597 C601 1.393 . S
C598 H590 0.950 . S
C598 C596 1.391 . S
C598 C599 1.400 1_565 S
C599 C598 1.400 1_545 S
C599 C600 1.398 . S
C599 C605 1.491 . S
C600 H591 0.950 . S
C600 C599 1.398 . S
C600 C601 1.391 . S
C601 H589 0.950 . S
C601 C597 1.393 . S
C601 C600 1.391 . S
C602 H592 0.950 . S
C602 C603 1.386 . S
C602 C604 1.391 . S
C603 C602 1.386 . S
C603 C607 1.393 1_545 S
C604 H593 0.950 . S
C604 C602 1.391 . S
C604 C605 1.400 . S
C605 C599 1.491 . S
C605 C604 1.400 . S
C605 C606 1.398 1_545 S
C606 H594 0.950 . S
C606 C605 1.398 1_565 S
C606 C607 1.391 . S
C607 H595 0.950 . S
C607 C603 1.393 1_565 S
C607 C606 1.391 . S
H608 C616 0.950 . S
H609 C621 0.950 . S
H610 C618 0.950 . S
H611 C620 0.950 . S
H612 C622 0.950 . S
H613 C624 0.950 . S
H614 C626 0.950 . S
H615 C627 0.950 . S
C616 H608 0.950 . S
C616 C617 1.386 . S
C616 C618 1.391 . S
C617 C616 1.386 . S
C617 C621 1.393 . S
C618 H610 0.950 . S
C618 C616 1.391 . S
C618 C619 1.400 . S
C619 C618 1.400 . S
C619 C620 1.398 . S
C619 C625 1.491 . S
C620 H611 0.950 . S
C620 C619 1.398 . S
C620 C621 1.391 . S
C621 H609 0.950 . S
C621 C617 1.393 . S
C621 C620 1.391 . S
C622 H612 0.950 . S
C622 C623 1.386 . S
C622 C624 1.391 . S
C623 C622 1.386 . S
C623 C627 1.393 . S
C624 H613 0.950 . S
C624 C622 1.391 . S
C624 C625 1.400 . S
C625 C619 1.491 . S
C625 C624 1.400 . S
C625 C626 1.398 . S
C626 H614 0.950 . S
C626 C625 1.398 . S
C626 C627 1.391 . S
C627 H615 0.950 . S
C627 C623 1.393 . S
C627 C626 1.391 . S
H628 C636 0.950 . S
H629 C641 0.950 . S
H630 C638 0.950 . S
H631 C640 0.950 . S
H632 C642 0.950 . S
H633 C644 0.950 . S
H634 C646 0.950 . S
H635 C647 0.950 . S
C636 H628 0.950 . S
C636 C637 1.386 . S
C636 C638 1.391 . S
C637 C636 1.386 . S
C637 C641 1.393 . S
C638 H630 0.950 . S
C638 C636 1.391 . S
C638 C639 1.400 . S
C639 C638 1.400 . S
C639 C640 1.398 . S
C639 C645 1.491 . S
C640 H631 0.950 . S
C640 C639 1.398 . S
C640 C641 1.391 . S
C641 H629 0.950 . S
C641 C637 1.393 . S
C641 C640 1.391 . S
C642 H632 0.950 . S
C642 C643 1.386 . S
C642 C644 1.391 . S
C643 C642 1.386 . S
C643 C647 1.393 . S
C644 H633 0.950 . S
C644 C642 1.391 . S
C644 C645 1.400 . S
C645 C639 1.491 . S
C645 C644 1.400 . S
C645 C646 1.398 . S
C646 H634 0.950 . S
C646 C645 1.398 . S
C646 C647 1.391 . S
C647 H635 0.950 . S
C647 C643 1.393 . S
C647 C646 1.391 . S
H648 C656 0.950 . S
H649 C661 0.950 . S
H650 C658 0.950 . S
H651 C660 0.950 . S
H652 C662 0.950 . S
H653 C664 0.950 . S
H654 C666 0.950 . S
H655 C667 0.950 . S
C656 H648 0.950 . S
C656 C657 1.386 1_455 S
C656 C658 1.391 . S
C657 C656 1.386 1_655 S
C657 C661 1.393 . S
C658 H650 0.950 . S
C658 C656 1.391 . S
C658 C659 1.400 1_455 S
C659 C658 1.400 1_655 S
C659 C660 1.398 . S
C659 C665 1.491 . S
C660 H651 0.950 . S
C660 C659 1.398 . S
C660 C661 1.391 . S
C661 H649 0.950 . S
C661 C657 1.393 . S
C661 C660 1.391 . S
C662 H652 0.950 . S
C662 C663 1.386 . S
C662 C664 1.391 . S
C663 C662 1.386 . S
C663 C667 1.393 1_655 S
C664 H653 0.950 . S
C664 C662 1.391 . S
C664 C665 1.400 . S
C665 C659 1.491 . S
C665 C664 1.400 . S
C665 C666 1.398 1_655 S
C666 H654 0.950 . S
C666 C665 1.398 1_455 S
C666 C667 1.391 . S
C667 H655 0.950 . S
C667 C663 1.393 1_455 S
C667 C666 1.391 . S
H668 C676 0.950 . S
H669 C681 0.950 . S
H670 C678 0.950 . S
H671 C680 0.950 . S
H672 C682 0.950 . S
H673 C684 0.950 . S
H674 C686 0.950 . S
H675 C687 0.950 . S
C676 H668 0.950 . S
C676 C677 1.386 . S
C676 C678 1.391 . S
C677 C676 1.386 . S
C677 C681 1.393 1_565 S
C678 H670 0.950 . S
C678 C676 1.391 . S
C678 C679 1.400 . S
C679 C678 1.400 . S
C679 C680 1.398 1_565 S
C679 C685 1.491 . S
C680 H671 0.950 . S
C680 C679 1.398 1_545 S
C680 C681 1.391 . S
C681 H669 0.950 . S
C681 C677 1.393 1_545 S
C681 C680 1.391 . S
C682 H672 0.950 . S
C682 C683 1.385 1_545 S
C682 C684 1.391 . S
C683 C682 1.385 1_565 S
C683 C687 1.393 . S
C684 H673 0.950 . S
C684 C682 1.391 . S
C684 C685 1.400 1_545 S
C685 C679 1.491 . S
C685 C684 1.400 1_565 S
C685 C686 1.398 . S
C686 H674 0.950 . S
C686 C685 1.398 . S
C686 C687 1.391 . S
C687 H675 0.950 . S
C687 C683 1.393 . S
C687 C686 1.391 . S
H688 C696 0.950 . S
H689 C701 0.950 . S
H690 C698 0.950 . S
H691 C700 0.950 . S
H692 C702 0.950 . S
H693 C704 0.950 . S
H694 C706 0.950 . S
H695 C707 0.950 . S
C696 H688 0.950 . S
C696 C697 1.386 . S
C696 C698 1.391 . S
C697 C696 1.386 . S
C697 C701 1.393 . S
C698 H690 0.950 . S
C698 C696 1.391 . S
C698 C699 1.400 . S
C699 C698 1.400 . S
C699 C700 1.398 . S
C699 C705 1.491 . S
C700 H691 0.950 . S
C700 C699 1.398 . S
C700 C701 1.391 . S
C701 H689 0.950 . S
C701 C697 1.393 . S
C701 C700 1.391 . S
C702 H692 0.950 . S
C702 C703 1.386 . S
C702 C704 1.391 . S
C703 C702 1.386 . S
C703 C707 1.393 . S
C704 H693 0.950 . S
C704 C702 1.391 . S
C704 C705 1.400 . S
C705 C699 1.491 . S
C705 C704 1.400 . S
C705 C706 1.398 . S
C706 H694 0.950 . S
C706 C705 1.398 . S
C706 C707 1.391 . S
C707 H695 0.950 . S
C707 C703 1.393 . S
C707 C706 1.391 . S
H708 C716 0.950 . S
H709 C721 0.950 . S
H710 C718 0.950 . S
H711 C720 0.950 . S
H712 C722 0.950 . S
H713 C724 0.950 . S
H714 C726 0.950 . S
H715 C727 0.950 . S
C716 H708 0.950 . S
C716 C717 1.386 . S
C716 C718 1.391 . S
C717 C716 1.386 . S
C717 C721 1.393 . S
C718 H710 0.950 . S
C718 C716 1.391 . S
C718 C719 1.400 . S
C719 C718 1.400 . S
C719 C720 1.398 . S
C719 C725 1.491 . S
C720 H711 0.950 . S
C720 C719 1.398 . S
C720 C721 1.391 . S
C721 H709 0.950 . S
C721 C717 1.393 . S
C721 C720 1.391 . S
C722 H712 0.950 . S
C722 C723 1.386 . S
C722 C724 1.391 . S
C723 C722 1.386 . S
C723 C727 1.393 . S
C724 H713 0.950 . S
C724 C722 1.391 . S
C724 C725 1.400 . S
C725 C719 1.491 . S
C725 C724 1.400 . S
C725 C726 1.398 . S
C726 H714 0.950 . S
C726 C725 1.398 . S
C726 C727 1.391 . S
C727 H715 0.950 . S
C727 C723 1.393 . S
C727 C726 1.391 . S
C257 C74 1.789 . S
C263 C98 1.864 1_545 S
C283 C138 1.864 . S
C277 C85 1.764 . S
C303 C178 1.872 . S
C297 C52 1.780 . S
C323 C218 1.865 1_455 S
C317 C63 1.788 . S
C343 C107 1.864 1_565 S
C337 C30 1.763 1_565 S
C357 C41 1.764 . S
C363 C147 1.866 . S
C377 C8 1.772 . S
C383 C187 1.863 . S
C397 C19 1.758 1_655 S
C403 C227 1.869 1_655 S
C423 C104 0.616 . S
C417 C62 0.588 . S
C443 C144 0.623 . S
C437 C73 0.577 . S
C463 C184 0.599 . S
C457 C84 0.575 . S
C477 C51 0.594 . S
C483 C224 0.604 . S
C497 C18 0.617 1_655 S
C503 C95 0.594 . S
C523 C135 0.576 . S
C517 C29 0.571 1_565 S
C543 C175 0.581 . S
C537 C40 0.591 . S
C557 C7 0.587 . S
C563 C215 0.577 . S
C577 C60 1.720 . S
C583 C99 2.232 . S
C597 C71 1.723 . S
C603 C139 2.232 . S
C623 C179 2.230 . S
C617 C82 1.717 . S
C643 C219 2.228 . S
C637 C49 1.689 . S
C657 C16 1.753 1_655 S
C663 C90 2.234 . S
C683 C130 2.236 . S
C677 C27 1.759 1_565 S
C703 C170 2.232 . S
C697 C38 1.770 . S
C717 C5 1.783 . S
C723 C210 2.228 . S
