# Generated by pormake.
# Topology iac, (4,6)-cn, num edge types: 1
# Building blocks:
#     Node 0, Type 0, BuildingBlock: TATPOV_clean_sbu_0, # of connection points: 4
#     Node 1, Type 0, BuildingBlock: TATPOV_clean_sbu_0, # of connection points: 4
#     Node 2, Type 0, BuildingBlock: TATPOV_clean_sbu_0, # of connection points: 4
#     Node 3, Type 0, BuildingBlock: TATPOV_clean_sbu_0, # of connection points: 4
#     Node 4, Type 0, BuildingBlock: TATPOV_clean_sbu_0, # of connection points: 4
#     Node 5, Type 0, BuildingBlock: TATPOV_clean_sbu_0, # of connection points: 4
#     Node 6, Type 0, BuildingBlock: TATPOV_clean_sbu_0, # of connection points: 4
#     Node 7, Type 0, BuildingBlock: TATPOV_clean_sbu_0, # of connection points: 4
#     Node 8, Type 0, BuildingBlock: TATPOV_clean_sbu_0, # of connection points: 4
#     Node 9, Type 0, BuildingBlock: TATPOV_clean_sbu_0, # of connection points: 4
#     Node 10, Type 0, BuildingBlock: TATPOV_clean_sbu_0, # of connection points: 4
#     Node 11, Type 0, BuildingBlock: TATPOV_clean_sbu_0, # of connection points: 4
#     Node 12, Type 0, BuildingBlock: TATPOV_clean_sbu_0, # of connection points: 4
#     Node 13, Type 0, BuildingBlock: TATPOV_clean_sbu_0, # of connection points: 4
#     Node 14, Type 0, BuildingBlock: TATPOV_clean_sbu_0, # of connection points: 4
#     Node 15, Type 0, BuildingBlock: TATPOV_clean_sbu_0, # of connection points: 4
#     Node 16, Type 0, BuildingBlock: TATPOV_clean_sbu_0, # of connection points: 4
#     Node 17, Type 0, BuildingBlock: TATPOV_clean_sbu_0, # of connection points: 4
#     Node 18, Type 0, BuildingBlock: TATPOV_clean_sbu_0, # of connection points: 4
#     Node 19, Type 0, BuildingBlock: TATPOV_clean_sbu_0, # of connection points: 4
#     Node 20, Type 0, BuildingBlock: TATPOV_clean_sbu_0, # of connection points: 4
#     Node 21, Type 0, BuildingBlock: TATPOV_clean_sbu_0, # of connection points: 4
#     Node 22, Type 0, BuildingBlock: TATPOV_clean_sbu_0, # of connection points: 4
#     Node 23, Type 0, BuildingBlock: TATPOV_clean_sbu_0, # of connection points: 4
#     Node 24, Type 1, BuildingBlock: VOLQOD_clean_sbu_1, # of connection points: 6
#     Node 25, Type 1, BuildingBlock: VOLQOD_clean_sbu_1, # of connection points: 6
#     Node 26, Type 1, BuildingBlock: VOLQOD_clean_sbu_1, # of connection points: 6
#     Node 27, Type 1, BuildingBlock: VOLQOD_clean_sbu_1, # of connection points: 6
#     Node 28, Type 1, BuildingBlock: VOLQOD_clean_sbu_1, # of connection points: 6
#     Node 29, Type 1, BuildingBlock: VOLQOD_clean_sbu_1, # of connection points: 6
#     Node 30, Type 1, BuildingBlock: VOLQOD_clean_sbu_1, # of connection points: 6
#     Node 31, Type 1, BuildingBlock: VOLQOD_clean_sbu_1, # of connection points: 6
#     Node 32, Type 1, BuildingBlock: VOLQOD_clean_sbu_1, # of connection points: 6
#     Node 33, Type 1, BuildingBlock: VOLQOD_clean_sbu_1, # of connection points: 6
#     Node 34, Type 1, BuildingBlock: VOLQOD_clean_sbu_1, # of connection points: 6
#     Node 35, Type 1, BuildingBlock: VOLQOD_clean_sbu_1, # of connection points: 6
#     Node 36, Type 1, BuildingBlock: VOLQOD_clean_sbu_1, # of connection points: 6
#     Node 37, Type 1, BuildingBlock: VOLQOD_clean_sbu_1, # of connection points: 6
#     Node 38, Type 1, BuildingBlock: VOLQOD_clean_sbu_1, # of connection points: 6
#     Node 39, Type 1, BuildingBlock: VOLQOD_clean_sbu_1, # of connection points: 6
#     Edge 40, Type (0, 1), BuildingBlock: AJUNOK_clean_linker_0, # of connection points: 2
#     Edge 41, Type (0, 1), BuildingBlock: AJUNOK_clean_linker_0, # of connection points: 2
#     Edge 42, Type (0, 1), BuildingBlock: AJUNOK_clean_linker_0, # of connection points: 2
#     Edge 43, Type (0, 1), BuildingBlock: AJUNOK_clean_linker_0, # of connection points: 2
#     Edge 44, Type (0, 1), BuildingBlock: AJUNOK_clean_linker_0, # of connection points: 2
#     Edge 45, Type (0, 1), BuildingBlock: AJUNOK_clean_linker_0, # of connection points: 2
#     Edge 46, Type (0, 1), BuildingBlock: AJUNOK_clean_linker_0, # of connection points: 2
#     Edge 47, Type (0, 1), BuildingBlock: AJUNOK_clean_linker_0, # of connection points: 2
#     Edge 48, Type (0, 1), BuildingBlock: AJUNOK_clean_linker_0, # of connection points: 2
#     Edge 49, Type (0, 1), BuildingBlock: AJUNOK_clean_linker_0, # of connection points: 2
#     Edge 50, Type (0, 1), BuildingBlock: AJUNOK_clean_linker_0, # of connection points: 2
#     Edge 51, Type (0, 1), BuildingBlock: AJUNOK_clean_linker_0, # of connection points: 2
#     Edge 52, Type (0, 1), BuildingBlock: AJUNOK_clean_linker_0, # of connection points: 2
#     Edge 53, Type (0, 1), BuildingBlock: AJUNOK_clean_linker_0, # of connection points: 2
#     Edge 54, Type (0, 1), BuildingBlock: AJUNOK_clean_linker_0, # of connection points: 2
#     Edge 55, Type (0, 1), BuildingBlock: AJUNOK_clean_linker_0, # of connection points: 2
#     Edge 56, Type (0, 1), BuildingBlock: AJUNOK_clean_linker_0, # of connection points: 2
#     Edge 57, Type (0, 1), BuildingBlock: AJUNOK_clean_linker_0, # of connection points: 2
#     Edge 58, Type (0, 1), BuildingBlock: AJUNOK_clean_linker_0, # of connection points: 2
#     Edge 59, Type (0, 1), BuildingBlock: AJUNOK_clean_linker_0, # of connection points: 2
#     Edge 60, Type (0, 1), BuildingBlock: AJUNOK_clean_linker_0, # of connection points: 2
#     Edge 61, Type (0, 1), BuildingBlock: AJUNOK_clean_linker_0, # of connection points: 2
#     Edge 62, Type (0, 1), BuildingBlock: AJUNOK_clean_linker_0, # of connection points: 2
#     Edge 63, Type (0, 1), BuildingBlock: AJUNOK_clean_linker_0, # of connection points: 2
#     Edge 64, Type (0, 1), BuildingBlock: AJUNOK_clean_linker_0, # of connection points: 2
#     Edge 65, Type (0, 1), BuildingBlock: AJUNOK_clean_linker_0, # of connection points: 2
#     Edge 66, Type (0, 1), BuildingBlock: AJUNOK_clean_linker_0, # of connection points: 2
#     Edge 67, Type (0, 1), BuildingBlock: AJUNOK_clean_linker_0, # of connection points: 2
#     Edge 68, Type (0, 1), BuildingBlock: AJUNOK_clean_linker_0, # of connection points: 2
#     Edge 69, Type (0, 1), BuildingBlock: AJUNOK_clean_linker_0, # of connection points: 2
#     Edge 70, Type (0, 1), BuildingBlock: AJUNOK_clean_linker_0, # of connection points: 2
#     Edge 71, Type (0, 1), BuildingBlock: AJUNOK_clean_linker_0, # of connection points: 2
#     Edge 72, Type (0, 1), BuildingBlock: AJUNOK_clean_linker_0, # of connection points: 2
#     Edge 73, Type (0, 1), BuildingBlock: AJUNOK_clean_linker_0, # of connection points: 2
#     Edge 74, Type (0, 1), BuildingBlock: AJUNOK_clean_linker_0, # of connection points: 2
#     Edge 75, Type (0, 1), BuildingBlock: AJUNOK_clean_linker_0, # of connection points: 2
#     Edge 76, Type (0, 1), BuildingBlock: AJUNOK_clean_linker_0, # of connection points: 2
#     Edge 77, Type (0, 1), BuildingBlock: AJUNOK_clean_linker_0, # of connection points: 2
#     Edge 78, Type (0, 1), BuildingBlock: AJUNOK_clean_linker_0, # of connection points: 2
#     Edge 79, Type (0, 1), BuildingBlock: AJUNOK_clean_linker_0, # of connection points: 2
#     Edge 80, Type (0, 1), BuildingBlock: AJUNOK_clean_linker_0, # of connection points: 2
#     Edge 81, Type (0, 1), BuildingBlock: AJUNOK_clean_linker_0, # of connection points: 2
#     Edge 82, Type (0, 1), BuildingBlock: AJUNOK_clean_linker_0, # of connection points: 2
#     Edge 83, Type (0, 1), BuildingBlock: AJUNOK_clean_linker_0, # of connection points: 2
#     Edge 84, Type (0, 1), BuildingBlock: AJUNOK_clean_linker_0, # of connection points: 2
#     Edge 85, Type (0, 1), BuildingBlock: AJUNOK_clean_linker_0, # of connection points: 2
#     Edge 86, Type (0, 1), BuildingBlock: AJUNOK_clean_linker_0, # of connection points: 2
#     Edge 87, Type (0, 1), BuildingBlock: AJUNOK_clean_linker_0, # of connection points: 2
#     Edge 88, Type (0, 1), BuildingBlock: AJUNOK_clean_linker_0, # of connection points: 2
#     Edge 89, Type (0, 1), BuildingBlock: AJUNOK_clean_linker_0, # of connection points: 2
#     Edge 90, Type (0, 1), BuildingBlock: AJUNOK_clean_linker_0, # of connection points: 2
#     Edge 91, Type (0, 1), BuildingBlock: AJUNOK_clean_linker_0, # of connection points: 2
#     Edge 92, Type (0, 1), BuildingBlock: AJUNOK_clean_linker_0, # of connection points: 2
#     Edge 93, Type (0, 1), BuildingBlock: AJUNOK_clean_linker_0, # of connection points: 2
#     Edge 94, Type (0, 1), BuildingBlock: AJUNOK_clean_linker_0, # of connection points: 2
#     Edge 95, Type (0, 1), BuildingBlock: AJUNOK_clean_linker_0, # of connection points: 2
#     Edge 96, Type (0, 1), BuildingBlock: AJUNOK_clean_linker_0, # of connection points: 2
#     Edge 97, Type (0, 1), BuildingBlock: AJUNOK_clean_linker_0, # of connection points: 2
#     Edge 98, Type (0, 1), BuildingBlock: AJUNOK_clean_linker_0, # of connection points: 2
#     Edge 99, Type (0, 1), BuildingBlock: AJUNOK_clean_linker_0, # of connection points: 2
#     Edge 100, Type (0, 1), BuildingBlock: AJUNOK_clean_linker_0, # of connection points: 2
#     Edge 101, Type (0, 1), BuildingBlock: AJUNOK_clean_linker_0, # of connection points: 2
#     Edge 102, Type (0, 1), BuildingBlock: AJUNOK_clean_linker_0, # of connection points: 2
#     Edge 103, Type (0, 1), BuildingBlock: AJUNOK_clean_linker_0, # of connection points: 2
#     Edge 104, Type (0, 1), BuildingBlock: AJUNOK_clean_linker_0, # of connection points: 2
#     Edge 105, Type (0, 1), BuildingBlock: AJUNOK_clean_linker_0, # of connection points: 2
#     Edge 106, Type (0, 1), BuildingBlock: AJUNOK_clean_linker_0, # of connection points: 2
#     Edge 107, Type (0, 1), BuildingBlock: AJUNOK_clean_linker_0, # of connection points: 2
#     Edge 108, Type (0, 1), BuildingBlock: AJUNOK_clean_linker_0, # of connection points: 2
#     Edge 109, Type (0, 1), BuildingBlock: AJUNOK_clean_linker_0, # of connection points: 2
#     Edge 110, Type (0, 1), BuildingBlock: AJUNOK_clean_linker_0, # of connection points: 2
#     Edge 111, Type (0, 1), BuildingBlock: AJUNOK_clean_linker_0, # of connection points: 2
#     Edge 112, Type (0, 1), BuildingBlock: AJUNOK_clean_linker_0, # of connection points: 2
#     Edge 113, Type (0, 1), BuildingBlock: AJUNOK_clean_linker_0, # of connection points: 2
#     Edge 114, Type (0, 1), BuildingBlock: AJUNOK_clean_linker_0, # of connection points: 2
#     Edge 115, Type (0, 1), BuildingBlock: AJUNOK_clean_linker_0, # of connection points: 2
#     Edge 116, Type (0, 1), BuildingBlock: AJUNOK_clean_linker_0, # of connection points: 2
#     Edge 117, Type (0, 1), BuildingBlock: AJUNOK_clean_linker_0, # of connection points: 2
#     Edge 118, Type (0, 1), BuildingBlock: AJUNOK_clean_linker_0, # of connection points: 2
#     Edge 119, Type (0, 1), BuildingBlock: AJUNOK_clean_linker_0, # of connection points: 2
#     Edge 120, Type (0, 1), BuildingBlock: AJUNOK_clean_linker_0, # of connection points: 2
#     Edge 121, Type (0, 1), BuildingBlock: AJUNOK_clean_linker_0, # of connection points: 2
#     Edge 122, Type (0, 1), BuildingBlock: AJUNOK_clean_linker_0, # of connection points: 2
#     Edge 123, Type (0, 1), BuildingBlock: AJUNOK_clean_linker_0, # of connection points: 2
#     Edge 124, Type (0, 1), BuildingBlock: AJUNOK_clean_linker_0, # of connection points: 2
#     Edge 125, Type (0, 1), BuildingBlock: AJUNOK_clean_linker_0, # of connection points: 2
#     Edge 126, Type (0, 1), BuildingBlock: AJUNOK_clean_linker_0, # of connection points: 2
#     Edge 127, Type (0, 1), BuildingBlock: AJUNOK_clean_linker_0, # of connection points: 2
#     Edge 128, Type (0, 1), BuildingBlock: AJUNOK_clean_linker_0, # of connection points: 2
#     Edge 129, Type (0, 1), BuildingBlock: AJUNOK_clean_linker_0, # of connection points: 2
#     Edge 130, Type (0, 1), BuildingBlock: AJUNOK_clean_linker_0, # of connection points: 2
#     Edge 131, Type (0, 1), BuildingBlock: AJUNOK_clean_linker_0, # of connection points: 2
#     Edge 132, Type (0, 1), BuildingBlock: AJUNOK_clean_linker_0, # of connection points: 2
#     Edge 133, Type (0, 1), BuildingBlock: AJUNOK_clean_linker_0, # of connection points: 2
#     Edge 134, Type (0, 1), BuildingBlock: AJUNOK_clean_linker_0, # of connection points: 2
#     Edge 135, Type (0, 1), BuildingBlock: AJUNOK_clean_linker_0, # of connection points: 2
# Relax obj value: 0.318
# Max RMSD: 0.295
# Mean RMSD: 0.179
data_MOF--net-iac--node1-TATPOV_clean_sbu_0--node2-VOLQOD_clean_sbu_1--edge1-AJUNOK_clean_linker_0
_symmetry_space_group_name_H-M    P1
_symmetry_Int_Tables_number       1
_symmetry_cell_setting            triclinic
loop_
_symmetry_equiv_pos_as_xyz
'x, y, z'
_cell_length_a     40.7844
_cell_length_b     40.919471
_cell_length_c     41.491
_cell_angle_alpha  90.532682
_cell_angle_beta   90.664841
_cell_angle_gamma 92.205038
loop_
_atom_site_label
_atom_site_type_symbol
_atom_site_fract_x
_atom_site_fract_y
_atom_site_fract_z
_atom_type_partial_charge
Zn0 Zn 0.06506 0.21848 0.10702 0.0
Zn1 Zn 0.02022 0.24735 0.14423 0.0
O2 O 0.03773 0.28531 0.1176 0.0
O3 O 0.07559 0.26269 0.08786 0.0
O4 O 0.98305 0.26401 0.16992 0.0
O5 O 0.02967 0.18998 0.08589 0.0
O6 O 0.99442 0.21127 0.11906 0.0
C7 C 0.06057 0.2876 0.09694 0.0
C8 C 0.08205 0.22109 0.1744 0.0
O9 O 0.05592 0.23689 0.17637 0.0
O10 O 0.08959 0.20742 0.14811 0.0
C11 C 0.97657 0.25393 0.1981 0.0
O12 O -0.00239 0.23587 0.21328 0.0
C13 C 0.00071 0.19185 0.09612 0.0
Zn14 Zn 0.97554 0.75883 0.4515 0.0
Zn15 Zn 0.0225 0.76475 0.40471 0.0
O16 O 0.03123 0.80737 0.42985 0.0
O17 O 0.99269 0.80325 0.46686 0.0
O18 O 0.05546 0.7624 0.36956 0.0
O19 O -0.00387 0.71684 0.46676 0.0
O20 O 0.03228 0.72327 0.42835 0.0
C21 C 0.01615 0.81918 0.45377 0.0
C22 C 0.94964 0.76431 0.38692 0.0
O23 O 0.97975 0.76561 0.37972 0.0
O24 O 0.94086 0.76025 0.41586 0.0
C25 C 0.0495 0.76834 0.3401 0.0
O26 O 0.02134 0.78034 0.33155 0.0
C27 C 0.02096 0.70705 0.45192 0.0
Zn28 Zn 0.47979 0.73603 0.68974 0.0
Zn29 Zn 0.4671 0.76809 0.63373 0.0
O30 O 0.42173 0.76941 0.65332 0.0
O31 O 0.43122 0.73989 0.69657 0.0
O32 O 0.46703 0.78972 0.59082 0.0
O33 O 0.51215 0.77288 0.70254 0.0
O34 O 0.50343 0.79575 0.65568 0.0
C35 C 0.41158 0.75473 0.67847 0.0
C36 C 0.4876 0.6965 0.63435 0.0
O37 O 0.47718 0.72209 0.62137 0.0
O38 O 0.49336 0.69603 0.6644 0.0
C39 C 0.49349 0.78561 0.57555 0.0
O40 O 0.51505 0.76586 0.58756 0.0
C41 C 0.51828 0.79558 0.6827 0.0
Zn42 Zn 0.47347 0.25516 0.95205 0.0
Zn43 Zn 0.51344 0.25478 0.9018 0.0
O44 O 0.52226 0.29903 0.9255 0.0
O45 O 0.49248 0.29748 0.96939 0.0
O46 O 0.5498 0.25319 0.86961 0.0
O47 O 0.48827 0.21204 0.96848 0.0
O48 O 0.51767 0.21064 0.92443 0.0
C49 C 0.51269 0.31249 0.95141 0.0
C50 C 0.44217 0.25736 0.88736 0.0
O51 O 0.47099 0.25601 0.87615 0.0
O52 O 0.43766 0.25709 0.91758 0.0
C53 C 0.5572 0.27739 0.85185 0.0
O54 O 0.53944 0.30345 0.85352 0.0
C55 C 0.50732 0.19715 0.9501 0.0
Zn56 Zn 0.09656 0.08307 0.21055 0.0
Zn57 Zn 0.12126 0.02334 0.21095 0.0
O58 O 0.10822 0.02735 0.25782 0.0
O59 O 0.09436 0.079 0.25912 0.0
O60 O 0.14458 0.98119 0.20672 0.0
O61 O 0.05789 0.06492 0.18489 0.0
O62 O 0.08024 0.01689 0.18282 0.0
C63 C 0.09872 0.05218 0.27332 0.0
C64 C 0.16168 0.08606 0.19174 0.0
O65 O 0.15808 0.05624 0.19966 0.0
O66 O 0.13703 0.10388 0.19064 0.0
C67 C 0.17061 0.97845 0.22341 0.0
O68 O 0.17927 0.00181 0.24407 0.0
C69 C 0.05655 0.03516 0.17625 0.0
Zn70 Zn 0.31618 0.82182 0.52545 0.0
Zn71 Zn 0.27239 0.87012 0.51893 0.0
O72 O 0.27635 0.8559 0.47263 0.0
O73 O 0.31332 0.81819 0.47652 0.0
O74 O 0.24173 0.90681 0.5196 0.0
O75 O 0.28198 0.79564 0.55075 0.0
O76 O 0.24812 0.83578 0.54534 0.0
C77 C 0.29418 0.83484 0.45948 0.0
C78 C 0.34181 0.88456 0.54633 0.0
O79 O 0.31377 0.89261 0.53632 0.0
O80 O 0.34916 0.85474 0.5462 0.0
C81 C 0.24769 0.93448 0.50687 0.0
O82 O 0.27416 0.93921 0.48953 0.0
C83 C 0.25408 0.80735 0.55536 0.0
Zn84 Zn 0.37299 0.90508 0.71851 0.0
Zn85 Zn 0.3563 0.96912 0.71962 0.0
O86 O 0.36853 0.95986 0.76595 0.0
O87 O 0.37988 0.90769 0.76711 0.0
O88 O 0.34085 0.01558 0.72134 0.0
O89 O 0.41194 0.91835 0.69174 0.0
O90 O 0.39787 0.9698 0.6919 0.0
C91 C 0.37717 0.93489 0.78151 0.0
C92 C 0.30713 0.9142 0.69678 0.0
O93 O 0.3146 0.94375 0.70433 0.0
O94 O 0.32846 0.8926 0.6989 0.0
C95 C 0.31524 0.01998 0.73785 0.0
O96 O 0.30193 -0.00506 0.75314 0.0
C97 C 0.41789 0.94787 0.68421 0.0
Zn98 Zn 0.16747 0.16525 0.04535 0.0
Zn99 Zn 0.21515 0.1228 0.03895 0.0
O100 O 0.20491 0.13416 -0.00778 0.0
O101 O 0.163 0.16617 -0.00288 0.0
O102 O 0.25272 0.09231 0.03685 0.0
O103 O 0.19833 0.19873 0.06547 0.0
O104 O 0.23657 0.16246 0.06242 0.0
C105 C 0.18313 0.15163 0.97955 0.0
C106 C 0.15079 0.10331 0.07285 0.0
O107 O 0.17812 0.09594 0.06071 0.0
O108 O 0.14153 0.13243 0.07131 0.0
C109 C 0.25586 0.07215 0.01374 0.0
O110 O 0.23308 0.06988 -0.00889 0.0
C111 C 0.22777 0.19108 0.0698 0.0
Zn112 Zn 0.83183 0.3337 0.0402 0.0
Zn113 Zn 0.78879 0.38041 0.03486 0.0
O114 O 0.79754 0.36772 0.98812 0.0
O115 O 0.83681 0.33256 -0.00785 0.0
O116 O 0.75388 0.41329 0.03242 0.0
O117 O 0.79794 0.30359 0.05979 0.0
O118 O 0.76491 0.34471 0.06033 0.0
C119 C 0.81785 0.349 0.97489 0.0
C120 C 0.85408 0.3947 0.0694 0.0
O121 O 0.82762 0.40466 0.05704 0.0
O122 O 0.86042 0.36467 0.06741 0.0
C123 C 0.75729 0.44305 0.02427 0.0
O124 O 0.78633 0.45477 0.01578 0.0
C125 C 0.77064 0.3152 0.06694 0.0
Zn126 Zn 0.90319 0.43715 0.20278 0.0
Zn127 Zn 0.88013 0.49665 0.20826 0.0
O128 O 0.90113 0.49171 0.252 0.0
O129 O 0.91731 0.44102 0.2498 0.0
O130 O 0.8612 0.54161 0.20959 0.0
O131 O 0.93596 0.45116 0.17014 0.0
O132 O 0.91666 0.50044 0.17421 0.0
C133 C 0.91445 0.46758 0.26529 0.0
C134 C 0.83489 0.43488 0.19763 0.0
O135 O 0.83978 0.46495 0.20499 0.0
O136 O 0.85889 0.41739 0.19117 0.0
C137 C 0.83629 0.54774 0.22649 0.0
O138 O 0.82233 0.52401 0.24319 0.0
C139 C 0.93739 0.48106 0.16268 0.0
Zn140 Zn 0.68754 0.66656 0.5256 0.0
Zn141 Zn 0.74513 0.6409 0.52613 0.0
O142 O 0.74419 0.66624 0.48446 0.0
O143 O 0.69206 0.67724 0.47857 0.0
O144 O 0.78894 0.61923 0.5248 0.0
O145 O 0.70409 0.70046 0.55682 0.0
O146 O 0.74967 0.67413 0.56378 0.0
C147 C 0.72101 0.67774 0.4679 0.0
C148 C 0.68045 0.59971 0.53349 0.0
O149 O 0.71068 0.60207 0.52605 0.0
O150 O 0.66482 0.62511 0.5393 0.0
C151 C 0.79994 0.6103 0.49766 0.0
O152 O 0.78188 0.61406 0.47165 0.0
C153 C 0.73178 0.69812 0.5704 0.0
Zn154 Zn 0.59831 0.57401 0.71001 0.0
Zn155 Zn 0.64577 0.53353 0.71016 0.0
O156 O 0.63434 0.53626 0.75801 0.0
O157 O 0.6017 0.57797 0.75825 0.0
O158 O 0.68062 0.50073 0.70733 0.0
O159 O 0.56689 0.53993 0.69115 0.0
O160 O 0.6096 0.50985 0.68374 0.0
C161 C 0.61737 0.55667 0.77327 0.0
C162 C 0.65517 0.60157 0.68118 0.0
O163 O 0.66728 0.57583 0.69261 0.0
O164 O 0.62453 0.60524 0.68238 0.0
C165 C 0.7056 0.50002 0.72573 0.0
O166 O 0.71007 0.52271 0.74814 0.0
C167 C 0.57904 0.51407 0.68046 0.0
Zn168 Zn 0.9184 0.7419 0.94277 0.0
Zn169 Zn 0.95891 0.74423 0.89116 0.0
O170 O 0.97502 0.78379 0.9174 0.0
O171 O 0.94545 0.78028 0.96139 0.0
O172 O 0.98791 0.74498 0.85303 0.0
O173 O 0.93278 0.69602 0.95087 0.0
O174 O 0.96771 0.70033 0.91105 0.0
C175 C 0.96783 0.79453 0.94517 0.0
C176 C 0.88547 0.75163 0.88213 0.0
O177 O 0.91412 0.74862 0.87112 0.0
O178 O 0.88048 0.75037 0.91218 0.0
C179 C 0.99115 0.76885 0.83383 0.0
O180 O 0.97522 0.79563 0.83922 0.0
C181 C 0.95526 0.68408 0.93414 0.0
Zn182 Zn 0.06819 0.30963 0.60156 0.0
Zn183 Zn 0.01709 0.26619 0.61185 0.0
O184 O -0.00072 0.30637 0.59279 0.0
O185 O 0.03754 0.34506 0.58787 0.0
O186 O 0.97531 0.24965 0.63206 0.0
O187 O 0.07921 0.2734 0.56878 0.0
O188 O 0.03515 0.24052 0.57561 0.0
C189 C 0.0079 0.33513 0.58503 0.0
C190 C 0.07223 0.28049 0.66196 0.0
O191 O 0.04841 0.26397 0.64953 0.0
O192 O 0.08421 0.30532 0.64766 0.0
C193 C 0.97055 0.26935 0.65544 0.0
O194 O 0.99269 0.29273 0.6619 0.0
C195 C 0.06198 0.24781 0.56136 0.0
Zn196 Zn 0.44036 0.22712 0.42769 0.0
Zn197 Zn 0.50357 0.22993 0.40582 0.0
O198 O 0.49516 0.27669 0.41644 0.0
O199 O 0.44362 0.27708 0.4313 0.0
O200 O 0.54884 0.23271 0.38847 0.0
O201 O 0.45612 0.1994 0.46474 0.0
O202 O 0.50589 0.2007 0.44459 0.0
C203 C 0.47058 0.29227 0.42554 0.0
C204 C 0.44817 0.20308 0.36237 0.0
O205 O 0.47787 0.21234 0.36718 0.0
O206 O 0.42742 0.20554 0.38469 0.0
C207 C 0.55266 0.2515 0.3645 0.0
O208 O 0.52749 0.26769 0.35414 0.0
C209 C 0.4858 0.19135 0.46615 0.0
Zn210 Zn 0.51269 0.69635 0.17058 0.0
Zn211 Zn 0.51725 0.75687 0.14395 0.0
O212 O 0.47166 0.74553 0.15749 0.0
O213 O 0.46305 0.69518 0.17353 0.0
O214 O 0.50712 0.79726 0.12012 0.0
O215 O 0.5387 0.71859 0.20665 0.0
O216 O 0.54656 0.76608 0.1825 0.0
C217 C 0.45233 0.72308 0.16745 0.0
C218 C 0.54827 0.7002 0.11042 0.0
O219 O 0.54027 0.72982 0.1109 0.0
O220 O 0.53886 0.68074 0.13235 0.0
C221 C 0.48803 0.79024 0.09633 0.0
O222 O 0.48071 0.75938 0.08951 0.0
C223 C 0.55166 0.74726 0.2062 0.0
Zn224 Zn 0.94008 0.98426 0.75604 0.0
Zn225 Zn 0.91012 0.04098 0.74752 0.0
O226 O 0.93552 0.04696 0.79023 0.0
O227 O 0.96276 0.00198 0.79566 0.0
O228 O 0.88322 0.08133 0.74635 0.0
O229 O 0.96226 0.99242 0.71404 0.0
O230 O 0.94093 0.0408 0.70867 0.0
C231 C 0.956 0.03019 0.80567 0.0
C232 C 0.87076 0.97564 0.75172 0.0
O233 O 0.87295 0.00603 0.74576 0.0
O234 O 0.89614 0.96021 0.75868 0.0
C235 C 0.86673 0.0863 0.77171 0.0
O236 O 0.86953 0.06646 0.79621 0.0
C237 C 0.96017 0.01897 0.6989 0.0
Zn238 Zn 0.71627 0.15042 0.50482 0.0
Zn239 Zn 0.77801 0.13753 0.51671 0.0
O240 O 0.77848 0.16418 0.47526 0.0
O241 O 0.72821 0.18053 0.46856 0.0
O242 O 0.82476 0.12408 0.51794 0.0
O243 O 0.71518 0.16971 0.54962 0.0
O244 O 0.76889 0.1664 0.55566 0.0
C245 C 0.75796 0.18131 0.46032 0.0
C246 C 0.72561 0.08269 0.50963 0.0
O247 O 0.7536 0.09303 0.5198 0.0
O248 O 0.7055 0.10238 0.49807 0.0
C249 C 0.83262 0.10586 0.4944 0.0
O250 O 0.8101 0.09751 0.47264 0.0
C251 C 0.74129 0.1757 0.56577 0.0
Zn252 Zn 0.57569 0.05416 0.24724 0.0
Zn253 Zn 0.60517 -0.00304 0.2502 0.0
O254 O 0.58202 -5e-05 0.2936 0.0
O255 O 0.56383 0.04995 0.29379 0.0
O256 O 0.63101 0.95603 0.25271 0.0
O257 O 0.54488 0.03573 0.21371 0.0
O258 O 0.57425 0.99164 0.21067 0.0
C259 C 0.56779 0.02308 0.30788 0.0
C260 C 0.64422 0.06003 0.23582 0.0
O261 O 0.64288 0.03023 0.24409 0.0
O262 O 0.61833 0.07594 0.23351 0.0
C263 C 0.65194 0.95336 0.27547 0.0
O264 O 0.65368 0.97571 0.29843 0.0
C265 C 0.55073 0.00866 0.20049 0.0
Zn266 Zn 0.7695 0.80262 0.97642 0.0
Zn267 Zn 0.71594 0.83369 -0.0026 0.0
O268 O 0.70438 0.81003 0.95566 0.0
O269 O 0.74373 0.77844 0.941 0.0
O270 O 0.67288 0.85539 0.00399 0.0
O271 O 0.77395 0.78442 0.02122 0.0
O272 O 0.72789 0.80637 0.03649 0.0
C273 C 0.71537 0.78906 0.93631 0.0
C274 C 0.77681 0.87367 0.98071 0.0
O275 O 0.74883 0.87166 -0.00624 0.0
O276 O 0.78953 0.84836 0.96912 0.0
C277 C 0.66708 0.87681 0.98276 0.0
O278 O 0.68972 0.88432 0.96153 0.0
C279 C 0.75288 0.78949 0.04269 0.0
Zn280 Zn 0.23205 0.66885 0.97301 0.0
Zn281 Zn 0.28776 0.6559 0.97695 0.0
O282 O 0.28348 0.68487 0.93616 0.0
O283 O 0.23833 0.70926 0.94824 0.0
O284 O 0.33463 0.64135 0.97476 0.0
O285 O 0.22747 0.67398 0.02016 0.0
O286 O 0.2811 0.68143 0.0198 0.0
C287 C 0.26341 0.70747 0.93098 0.0
C288 C 0.23418 0.60458 0.96353 0.0
O289 O 0.26095 0.61216 0.97822 0.0
O290 O 0.21775 0.62689 0.95118 0.0
C291 C 0.3416 0.61801 0.95574 0.0
O292 O 0.31801 0.60331 0.93858 0.0
C293 C 0.25375 0.68353 0.03433 0.0
Zn294 Zn 0.04401 0.50472 0.75743 0.0
Zn295 Zn 0.09319 0.46287 0.75346 0.0
O296 O 0.06455 0.45192 0.79274 0.0
O297 O 0.02251 0.48368 0.795 0.0
O298 O 0.12642 0.42771 0.75908 0.0
O299 O 0.03044 0.49011 0.71321 0.0
O300 O 0.07135 0.45656 0.70877 0.0
C301 C 0.03817 0.46022 0.80619 0.0
C302 C 0.10924 0.53566 0.7598 0.0
O303 O 0.11907 0.50689 0.75504 0.0
O304 O 0.07903 0.54074 0.76322 0.0
C305 C 0.1547 0.43258 0.77196 0.0
O306 O 0.16548 0.46252 0.77879 0.0
C307 C 0.04604 0.46966 0.69697 0.0
Zn308 Zn 0.30028 0.31963 0.51832 0.0
Zn309 Zn 0.24106 0.33705 0.50804 0.0
O310 O 0.25176 0.30842 0.46813 0.0
O311 O 0.30412 0.29955 0.47531 0.0
O312 O 0.19548 0.35423 0.49826 0.0
O313 O 0.28766 0.29101 0.55385 0.0
O314 O 0.23802 0.31024 0.55071 0.0
C315 C 0.27818 0.29582 0.45859 0.0
C316 C 0.29766 0.38725 0.52305 0.0
O317 O 0.26848 0.38061 0.51322 0.0
O318 O 0.31712 0.36464 0.52846 0.0
C319 C 0.19376 0.37832 0.47907 0.0
O320 O 0.2208 0.38977 0.46563 0.0
C321 C 0.25893 0.29231 0.56457 0.0
Zn322 Zn 0.4417 0.49298 0.25613 0.0
Zn323 Zn 0.39649 0.53259 0.2396 0.0
O324 O 0.41737 0.55069 0.28212 0.0
O325 O 0.46148 0.5226 0.28995 0.0
O326 O 0.36088 0.56473 0.23252 0.0
O327 O 0.4598 0.49423 0.21197 0.0
O328 O 0.42639 0.53329 0.19945 0.0
C329 C 0.44347 0.5456 0.29816 0.0
C330 C 0.37755 0.46303 0.25776 0.0
O331 O 0.36993 0.48936 0.24404 0.0
O332 O 0.40666 0.45929 0.26754 0.0
C333 C 0.3412 0.56752 0.25592 0.0
O334 O 0.34501 0.54922 0.28144 0.0
C335 C 0.44982 0.51487 0.19201 0.0
O336 O 0.9642 0.08068 0.0224 0.0
Zn337 Zn 0.98659 0.04192 0.00772 0.0
O338 O 0.95957 0.00443 0.01806 0.0
Zn339 Zn 0.98428 0.97418 0.04418 0.0
Zn340 Zn 0.92021 0.01683 0.0419 0.0
Zn341 Zn 0.94703 0.98386 0.97868 0.0
O342 O 0.99416 0.93321 0.01981 0.0
O343 O 0.97013 0.94228 0.97263 0.0
O344 O 0.02781 0.04198 0.03356 0.0
O345 O 0.02633 -0.004 0.06197 0.0
O346 O 0.95505 0.9618 0.08051 0.0
O347 O 0.93003 0.00734 0.08824 0.0
O348 O 0.87956 0.99164 0.02452 0.0
O349 O 0.99481 0.04816 0.96036 0.0
O350 O 0.89967 0.97211 0.97903 0.0
O351 O 0.9571 0.01199 0.94153 0.0
C352 C 0.93732 0.08807 0.03517 0.0
C353 C 0.98721 0.92466 -0.0091 0.0
C354 C 0.94716 0.98466 0.09942 0.0
C355 C 0.03999 0.02336 0.05455 0.0
C356 C 0.87588 0.97542 -0.00183 0.0
C357 C 0.97793 0.03534 0.93729 0.0
O358 O 0.91584 0.06623 0.04309 0.0
O359 O 0.22109 0.72974 0.17918 0.0
Zn360 Zn 0.22032 0.73137 0.22758 0.0
O361 O 0.24789 0.76822 0.24372 0.0
Zn362 Zn 0.28175 0.75094 0.27103 0.0
Zn363 Zn 0.26688 0.79366 0.20833 0.0
Zn364 Zn 0.22365 0.79716 0.26968 0.0
O365 O 0.28746 0.77443 0.31346 0.0
O366 O 0.24356 0.8046 0.31316 0.0
O367 O 0.24064 0.68882 0.23927 0.0
O368 O 0.27646 0.70271 0.27806 0.0
O369 O 0.32283 0.75401 0.2468 0.0
O370 O 0.31576 0.78981 0.20776 0.0
O371 O 0.25205 0.84085 0.20682 0.0
O372 O 0.17397 0.73324 0.24518 0.0
O373 O 0.22129 0.84086 0.25062 0.0
O374 O 0.17843 0.77969 0.27377 0.0
C375 C 0.23774 0.74619 0.15872 0.0
C376 C 0.2694 0.79507 0.32693 0.0
C377 C 0.33351 0.76979 0.22266 0.0
C378 C 0.26188 0.68111 0.26028 0.0
C379 C 0.23337 0.85527 0.22635 0.0
C380 C 0.16172 0.75502 0.26312 0.0
O381 O 0.25506 0.7714 0.16694 0.0
O382 O 0.51485 0.92088 0.50072 0.0
Zn383 Zn 0.50834 0.96863 0.49802 0.0
O384 O 0.53796 0.99085 0.52817 0.0
Zn385 Zn 0.51205 0.01302 0.55898 0.0
Zn386 Zn 0.56521 0.96137 0.55243 0.0
Zn387 Zn 0.56334 0.02335 0.50732 0.0
O388 O 0.50504 0.05934 0.54635 0.0
O389 O 0.55146 0.06839 0.52009 0.0
O390 O 0.46155 0.97241 0.51202 0.0
O391 O 0.46947 0.98757 0.56324 0.0
O392 O 0.53547 0.01221 0.60096 0.0
O393 O 0.54729 0.96061 0.59785 0.0
O394 O 0.61416 0.97419 0.54917 0.0
O395 O 0.51574 0.98294 0.45219 0.0
O396 O 0.60986 0.01603 0.5155 0.0
O397 O 0.55585 0.02057 0.4602 0.0
C398 C 0.53391 0.90312 0.51674 0.0
C399 C 0.52552 0.07879 0.53272 0.0
C400 C 0.53549 0.98416 0.61368 0.0
C401 C 0.45142 0.97502 0.54084 0.0
C402 C 0.62706 -0.00341 0.53162 0.0
C403 C 0.53632 0.00429 0.44156 0.0
O404 O 0.5557 0.91558 0.536 0.0
O405 O 0.22686 0.22508 0.8539 0.0
Zn406 Zn 0.24807 0.25368 0.82055 0.0
O407 O 0.24352 0.23122 0.78033 0.0
Zn408 Zn 0.28165 0.22317 0.75633 0.0
Zn409 Zn 0.21261 0.19479 0.77992 0.0
Zn410 Zn 0.22272 0.26428 0.7592 0.0
O411 O 0.2763 0.24071 0.71051 0.0
O412 O 0.22587 0.25913 0.71259 0.0
O413 O 0.29655 0.25885 0.82788 0.0
O414 O 0.32038 0.24164 0.78281 0.0
O415 O 0.2852 0.17434 0.75204 0.0
O416 O 0.23438 0.15505 0.76108 0.0
O417 O 0.17097 0.2086 0.75643 0.0
O418 O 0.22626 0.29838 0.82047 0.0
O419 O 0.17661 0.26025 0.77171 0.0
O420 O 0.23987 0.30884 0.77068 0.0
C421 C 0.20968 0.19839 0.85239 0.0
C422 C 0.25081 0.25159 0.69659 0.0
C423 C 0.26412 0.15052 0.75328 0.0
C424 C 0.32218 0.25377 0.81138 0.0
C425 C 0.1591 0.23694 0.75957 0.0
C426 C 0.22958 0.3187 0.79754 0.0
O427 O 0.20221 0.18401 0.8258 0.0
O428 O 0.04174 0.03405 0.41867 0.0
Zn429 Zn 0.02367 0.0253 0.46288 0.0
O430 O 0.05494 0.04367 0.49519 0.0
Zn431 Zn 0.06789 0.01009 0.52467 0.0
Zn432 Zn 0.09432 0.06413 0.47594 0.0
Zn433 Zn 0.0333 0.07585 0.51984 0.0
O434 O 0.0474 0.01498 0.5682 0.0
O435 O 0.02938 0.06521 0.56613 0.0
O436 O 0.02023 0.97626 0.4666 0.0
O437 O 0.05461 0.96609 0.50697 0.0
O438 O 0.11639 0.00893 0.52877 0.0
O439 O 0.13507 0.04097 0.48969 0.0
O440 O 0.09974 0.11283 0.48605 0.0
O441 O 0.97775 0.04366 0.46689 0.0
O442 O 0.0547 0.1188 0.51484 0.0
O443 O 0.98762 0.08011 0.50575 0.0
C444 C 0.06852 0.04738 0.40884 0.0
C445 C 0.03381 0.03905 0.58147 0.0
C446 C 0.13995 0.02045 0.512 0.0
C447 C 0.03524 0.95637 0.48439 0.0
C448 C 0.08016 0.13062 0.50135 0.0
C449 C 0.96803 0.06611 0.48563 0.0
O450 O 0.09021 0.05967 0.42815 0.0
O451 O 0.26079 0.7745 0.71592 0.0
Zn452 Zn 0.22256 0.77996 0.74434 0.0
O453 O 0.1883 0.74913 0.73177 0.0
Zn454 Zn 0.15742 0.77329 0.70622 0.0
Zn455 Zn 0.20764 0.7147 0.70761 0.0
Zn456 Zn 0.16986 0.73138 0.76954 0.0
O457 O 0.11357 0.77489 0.72937 0.0
O458 O 0.12522 0.74754 0.77422 0.0
O459 O 0.20852 0.82587 0.74098 0.0
O460 O 0.17747 0.81855 0.69741 0.0
O461 O 0.15337 0.75375 0.66166 0.0
O462 O 0.19745 0.72366 0.66171 0.0
O463 O 0.19143 0.66916 0.72149 0.0
O464 O 0.23954 0.77183 0.78859 0.0
O465 O 0.16523 0.68306 0.76575 0.0
O466 O 0.19859 0.74085 0.80806 0.0
C467 C 0.27344 0.74756 0.70854 0.0
C468 C 0.10552 0.76326 0.75677 0.0
C469 C 0.17593 0.73948 0.6466 0.0
C470 C 0.19589 0.83691 0.71539 0.0
C471 C 0.17478 0.66132 0.74631 0.0
C472 C 0.22618 0.75612 0.81143 0.0
O473 O 0.257 0.72044 0.70994 0.0
O474 O 0.51127 0.99442 0.05151 0.0
Zn475 Zn 0.50654 -0.0048 0.00382 0.0
O476 O 0.46348 0.97716 -0.00859 0.0
Zn477 Zn 0.46825 0.93554 0.9689 0.0
Zn478 Zn 0.43655 0.97139 0.02992 0.0
Zn479 Zn 0.44259 0.00712 0.96309 0.0
O480 O 0.44426 0.9341 0.92574 0.0
O481 O 0.43214 0.98625 0.92079 0.0
O482 O 0.54266 0.9677 0.98777 0.0
O483 O 0.51607 0.92541 0.96409 0.0
O484 O 0.45231 0.89914 -0.00315 0.0
O485 O 0.43141 0.92365 0.03944 0.0
O486 O 0.39238 0.99235 0.02596 0.0
O487 O 0.51328 0.04189 0.98962 0.0
O488 O 0.39872 0.01883 0.97984 0.0
O489 O 0.46999 0.04838 0.95751 0.0
C490 C 0.49112 0.99292 0.07462 0.0
C491 C 0.43185 0.95717 0.90976 0.0
C492 C 0.43962 0.89788 0.02468 0.0
C493 C 0.54265 0.94008 0.97346 0.0
C494 C 0.38149 0.01089 0.0041 0.0
C495 C 0.49681 0.05913 0.97039 0.0
O496 O 0.46044 0.98819 0.06969 0.0
O497 O 0.21935 0.22615 0.25302 0.0
Zn498 Zn 0.26531 0.21939 0.26606 0.0
O499 O 0.29265 0.25143 0.24452 0.0
Zn500 Zn 0.31593 0.22692 0.21348 0.0
Zn501 Zn 0.26817 0.28443 0.22333 0.0
Zn502 Zn 0.32395 0.27041 0.27305 0.0
O503 O 0.35677 0.20957 0.23366 0.0
O504 O 0.36708 0.2499 0.26896 0.0
O505 O 0.27316 0.17381 0.24938 0.0
O506 O 0.28632 0.18936 0.2001 0.0
O507 O 0.32383 0.25353 0.17411 0.0
O508 O 0.27647 0.27805 0.17635 0.0
O509 O 0.2839 0.33043 0.23726 0.0
O510 O 0.26814 0.22505 0.31436 0.0
O511 O 0.32704 0.31822 0.2676 0.0
O512 O 0.30909 0.26257 0.31754 0.0
C513 C 0.20411 0.24868 0.23919 0.0
C514 C 0.37525 0.22381 0.25479 0.0
C515 C 0.29976 0.26657 0.16001 0.0
C516 C 0.27365 0.16835 0.21906 0.0
C517 C 0.30891 0.3391 0.25456 0.0
C518 C 0.28734 0.24426 0.33069 0.0
O519 O 0.21912 0.27433 0.22858 0.0
O520 O 0.55487 0.53106 0.91217 0.0
Zn521 Zn 0.52806 0.52142 0.95158 0.0
O522 O 0.55345 0.53851 0.98896 0.0
Zn523 Zn 0.56268 0.50422 0.01935 0.0
Zn524 Zn 0.59515 0.56052 0.97691 0.0
Zn525 Zn 0.52713 0.56936 0.01042 0.0
O526 O 0.5388 0.50927 0.06116 0.0
O527 O 0.51073 0.55361 0.05271 0.0
O528 O 0.52292 0.47184 0.954 0.0
O529 O 0.54759 0.46135 0.00063 0.0
O530 O 0.61106 0.50018 0.02697 0.0
O531 O 0.63338 0.53477 -0.00802 0.0
O532 O 0.60147 0.60577 -0.00291 0.0
O533 O 0.48293 0.54308 0.94657 0.0
O534 O 0.55218 0.61006 0.01849 0.0
O535 O 0.48847 0.58046 0.98537 0.0
C536 C 0.58106 0.54796 0.90653 0.0
C537 C 0.51795 0.52966 0.0703 0.0
C538 C 0.63617 0.51247 0.0129 0.0
C539 C 0.53251 0.4517 0.97511 0.0
C540 C 0.58057 0.6219 0.01246 0.0
C541 C 0.47258 0.56803 0.96162 0.0
O542 O 0.59789 0.56254 0.92877 0.0
O543 O 0.83118 0.26437 0.26205 0.0
Zn544 Zn 0.78598 0.27372 0.2784 0.0
O545 O 0.75432 0.24514 0.25588 0.0
Zn546 Zn 0.71837 0.26976 0.23961 0.0
Zn547 Zn 0.7727 0.22121 0.22106 0.0
Zn548 Zn 0.73913 0.21484 0.2868 0.0
O549 O 0.6801 0.26633 0.26945 0.0
O550 O 0.69582 0.22841 0.30366 0.0
O551 O 0.77816 0.32061 0.26662 0.0
O552 O 0.73372 0.31645 0.23501 0.0
O553 O 0.70577 0.25673 0.19428 0.0
O554 O 0.75397 0.23778 0.18047 0.0
O555 O 0.75935 0.1732 0.22155 0.0
O556 O 0.78485 0.26591 0.32683 0.0
O557 O 0.73352 0.17043 0.26828 0.0
O558 O 0.7702 0.21322 0.32331 0.0
C559 C 0.84117 0.24715 0.23861 0.0
C560 C 0.67503 0.24886 0.29429 0.0
C561 C 0.7261 0.24861 0.17288 0.0
C562 C 0.75739 0.33329 0.24771 0.0
C563 C 0.7432 0.15707 0.24254 0.0
C564 C 0.78213 0.23755 0.33922 0.0
O565 O 0.82147 0.2297 0.2209 0.0
O566 O 0.03699 0.49512 0.5447 0.0
Zn567 Zn 0.0389 0.50593 0.49765 0.0
O568 O -0.00308 0.49374 0.47754 0.0
Zn569 Zn 0.00054 0.45326 0.45356 0.0
Zn570 Zn 0.96298 0.48835 0.50995 0.0
Zn571 Zn 0.9838 0.52767 0.44959 0.0
O572 O 0.98113 0.4566 0.40861 0.0
O573 O 0.97392 0.51007 0.40608 0.0
O574 O 0.0752 0.47808 0.48078 0.0
O575 O 0.04751 0.43862 0.45358 0.0
O576 O 0.97669 0.41908 0.4786 0.0
O577 O 0.93877 0.44543 0.50483 0.0
O578 O 0.9294 0.52304 0.5095 0.0
O579 O 0.04873 0.55465 0.49193 0.0
O580 O 0.94211 0.54794 0.46402 0.0
O581 O 0.01768 0.56361 0.44861 0.0
C582 C 0.01356 0.48713 0.56342 0.0
C583 C 0.97205 0.4817 0.39337 0.0
C584 C 0.95237 0.41903 0.4975 0.0
C585 C 0.07429 0.45092 0.46538 0.0
C586 C 0.92355 0.5443 0.48825 0.0
C587 C 0.03965 0.57295 0.46902 0.0
O588 O 0.98398 0.48539 0.55336 0.0
O589 O 0.75881 0.76379 0.34142 0.0
Zn590 Zn 0.77347 0.78951 0.303 0.0
O591 O 0.76772 0.76274 0.26514 0.0
Zn592 Zn 0.80638 0.75288 0.24138 0.0
Zn593 Zn 0.7406 0.72429 0.27266 0.0
Zn594 Zn 0.74407 0.79134 0.2402 0.0
O595 O 0.80152 0.76593 0.19348 0.0
O596 O 0.75009 0.7815 0.19515 0.0
O597 O 0.82142 0.79649 0.30856 0.0
O598 O 0.84567 0.77098 0.26794 0.0
O599 O 0.80956 0.7039 0.23935 0.0
O600 O 0.76018 0.6839 0.25287 0.0
O601 O 0.69374 0.73223 0.26022 0.0
O602 O 0.7481 0.83198 0.30031 0.0
O603 O 0.69734 0.78519 0.24942 0.0
O604 O 0.75552 0.83793 0.24846 0.0
C605 C 0.7463 0.73497 0.34405 0.0
C606 C 0.7748 0.77326 0.17923 0.0
C607 C 0.78918 0.67978 0.24261 0.0
C608 C 0.84716 0.78712 0.2946 0.0
C609 C 0.6803 0.7594 0.25512 0.0
C610 C 0.74552 0.84914 0.27497 0.0
O611 O 0.73895 0.71702 0.31969 0.0
O612 O 0.73139 0.23869 0.70744 0.0
Zn613 Zn 0.73977 0.24696 0.75454 0.0
O614 O 0.76911 0.28574 0.76006 0.0
Zn615 Zn 0.80979 0.27422 0.78173 0.0
Zn616 Zn 0.77883 0.30573 0.71856 0.0
Zn617 Zn 0.74811 0.31752 0.78611 0.0
O618 O 0.81676 0.29744 0.82444 0.0
O619 O 0.77067 0.32405 0.82835 0.0
O620 O 0.76289 0.20627 0.76804 0.0
O621 O 0.81012 0.22606 0.78886 0.0
O622 O 0.84846 0.28145 0.75289 0.0
O623 O 0.8257 0.2995 0.70788 0.0
O624 O 0.76839 0.35384 0.71656 0.0
O625 O 0.69585 0.25238 0.7769 0.0
O626 O 0.74876 0.36108 0.76564 0.0
O627 O 0.70157 0.30396 0.79393 0.0
C628 C 0.73952 0.25387 0.68197 0.0
C629 C 0.79803 0.31588 0.84009 0.0
C630 C 0.85033 0.28948 0.7234 0.0
C631 C 0.79089 0.20207 0.781 0.0
C632 C 0.75694 0.37224 0.73832 0.0
C633 C 0.68418 0.27775 0.78998 0.0
O634 O 0.75604 0.28084 0.68306 0.0
O635 O 0.64938 0.80876 0.72443 0.0
Zn636 Zn 0.68632 0.78238 0.73709 0.0
O637 O 0.72428 0.80865 0.73201 0.0
Zn638 Zn 0.75917 0.7806 0.72097 0.0
Zn639 Zn 0.7188 0.84187 0.7005 0.0
Zn640 Zn 0.72979 0.82881 0.77263 0.0
O641 O 0.7891 0.77534 0.75934 0.0
O642 O 0.76491 0.80597 0.79587 0.0
O643 O 0.6878 0.74259 0.70921 0.0
O644 O 0.74147 0.73622 0.70548 0.0
O645 O 0.78078 0.80078 0.68274 0.0
O646 O 0.73635 0.8208 0.66076 0.0
O647 O 0.7466 0.88161 0.7146 0.0
O648 O 0.68233 0.77099 0.78378 0.0
O649 O 0.74669 0.87479 0.76776 0.0
O650 O 0.68921 0.82259 0.79908 0.0
C651 C 0.64558 0.83471 0.70843 0.0
C652 C 0.78695 0.78631 0.78811 0.0
C653 C 0.76242 0.80464 0.65813 0.0
C654 C 0.71198 0.72643 0.69971 0.0
C655 C 0.75475 0.89134 0.74302 0.0
C656 C 0.68022 0.79319 0.80525 0.0
O657 O 0.66972 0.85061 0.69579 0.0
O658 O 0.49418 0.58246 0.52502 0.0
Zn659 Zn 0.50259 0.54742 0.4924 0.0
O660 O 0.48063 0.50641 0.50512 0.0
Zn661 Zn 0.51352 0.47333 0.51086 0.0
Zn662 Zn 0.45698 0.51161 0.54501 0.0
Zn663 Zn 0.44873 0.49289 0.47244 0.0
O664 O 0.50485 0.43572 0.48081 0.0
O665 O 0.45917 0.44861 0.4548 0.0
O666 O 0.55144 0.54366 0.49414 0.0
O667 O 0.55962 0.49203 0.50692 0.0
O668 O 0.51443 0.45677 0.55594 0.0
O669 O 0.47742 0.48632 0.57977 0.0
O670 O 0.40943 0.49748 0.54188 0.0
O671 O 0.48855 0.56172 0.44799 0.0
O672 O 0.40339 0.48724 0.4897 0.0
O673 O 0.4481 0.52515 0.43691 0.0
C674 C 0.47872 0.58236 0.5515 0.0
C675 C 0.48206 0.42903 0.46032 0.0
C676 C 0.49998 0.46583 0.58126 0.0
C677 C 0.57054 0.52072 0.50063 0.0
C678 C 0.39148 0.48874 0.51782 0.0
C679 C 0.46517 0.55071 0.42987 0.0
O680 O 0.46253 0.55725 0.56114 0.0
O681 O 0.05053 0.41557 0.02481 0.0
Zn682 Zn 0.02374 0.45129 0.00898 0.0
O683 O 0.04675 0.49237 0.01677 0.0
Zn684 Zn 0.01772 0.52217 0.03741 0.0
Zn685 Zn 0.08547 0.48742 0.04531 0.0
Zn686 Zn 0.05938 0.51035 0.97648 0.0
O687 O 0.00172 0.55521 0.00733 0.0
O688 O 0.03508 0.55107 0.96588 0.0
O689 O 0.98363 0.44915 0.03572 0.0
O690 O 0.979 0.49848 0.05783 0.0
O691 O 0.04651 0.54463 0.06985 0.0
O692 O 0.07475 0.50557 0.08963 0.0
O693 O 0.12669 0.5073 0.02505 0.0
O694 O 0.01375 0.44184 0.962 0.0
O695 O 0.10721 0.51984 0.97663 0.0
O696 O 0.04915 0.47848 0.94142 0.0
C697 C 0.0759 0.41403 0.04264 0.0
C698 C 0.01177 0.56495 0.98005 0.0
C699 C 0.05319 0.52688 0.09365 0.0
C700 C 0.96925 0.46875 0.05434 0.0
C701 C 0.13104 0.51772 -0.00358 0.0
C702 C 0.02945 0.45383 0.93832 0.0
O703 O 0.09166 0.43953 0.05302 0.0
C704 C 0.95488 0.14977 0.09816 0.0
C705 C 0.97427 0.17204 0.08035 0.0
C706 C 0.9363 0.12465 0.08241 0.0
C707 C 0.93695 0.12135 0.0486 0.0
H708 H 0.95669 0.14971 0.12424 0.0
H709 H 0.92525 0.10536 0.09686 0.0
S710 S 0.97627 0.17929 -0.00847 0.0
N711 N 0.9874 0.19359 0.02754 0.0
N712 N 0.95223 0.14666 -0.00198 0.0
C713 C 0.95193 0.14666 0.03078 0.0
C714 C 0.97111 0.17179 0.04668 0.0
C715 C 0.09555 0.73533 0.32112 0.0
C716 C 0.07418 0.76101 0.31577 0.0
C717 C 0.12211 0.7305 0.30081 0.0
C718 C 0.12822 0.75143 0.27484 0.0
H719 H 0.09256 0.71975 0.34195 0.0
H720 H 0.13952 0.71218 0.30713 0.0
S721 S 0.07808 0.82011 0.24868 0.0
N722 N 0.05917 0.80553 0.2808 0.0
N723 N 0.10991 0.797 0.24323 0.0
C724 C 0.10587 0.77568 0.26793 0.0
C725 C 0.07854 0.78033 0.28827 0.0
C726 C 0.53762 0.81834 0.54882 0.0
C727 C 0.50405 0.80943 0.55102 0.0
C728 C 0.54789 0.84732 0.53379 0.0
C729 C 0.52498 0.86803 0.52008 0.0
H730 H 0.55592 0.80465 0.56144 0.0
H731 H 0.5736 0.85495 0.53549 0.0
S732 S 0.43514 0.8505 0.51152 0.0
N733 N 0.44867 0.81974 0.53274 0.0
N734 N 0.46785 0.87398 0.50368 0.0
C735 C 0.49183 0.85686 0.51803 0.0
C736 C 0.48135 0.82761 0.53386 0.0
C737 C 0.38438 0.27187 0.87788 0.0
C738 C 0.41342 0.25951 0.86562 0.0
C739 C 0.35567 0.27171 0.85932 0.0
C740 C 0.35455 0.25884 0.82772 0.0
H741 H 0.38355 0.28123 0.90236 0.0
H742 H 0.33386 0.28075 0.87046 0.0
S743 S 0.42502 0.22636 0.78318 0.0
N744 N 0.44031 0.23646 0.81909 0.0
N745 N 0.38601 0.23573 0.78402 0.0
C746 C 0.38394 0.24799 0.81445 0.0
C747 C 0.41343 0.24841 0.83344 0.0
C748 C 0.99511 0.87358 0.46664 0.0
C749 C 0.02215 0.85354 0.46322 0.0
C750 C -0.00046 0.907 0.47337 0.0
C751 C 0.03112 0.92117 0.47788 0.0
H752 H 0.97033 0.86352 0.46317 0.0
H753 H 0.97817 0.92181 0.47524 0.0
S754 S 0.10984 0.87915 0.47224 0.0
N755 N 0.08144 0.85009 0.46468 0.0
N756 N 0.08987 0.9129 0.47891 0.0
C757 C 0.05836 0.90131 0.47523 0.0
C758 C 0.05385 0.86744 0.46742 0.0
C759 C 0.35607 0.77835 0.67828 0.0
C760 C 0.37632 0.75239 0.68552 0.0
C761 C 0.32262 0.77642 0.68554 0.0
C762 C 0.30826 0.74817 0.69954 0.0
H763 H 0.36625 0.8005 0.66758 0.0
H764 H 0.30791 0.79723 0.68013 0.0
S765 S 0.35054 0.67269 0.72121 0.0
N766 N 0.37959 0.69712 0.70627 0.0
N767 N 0.31663 0.69337 0.71941 0.0
C768 C 0.3281 0.7217 0.70601 0.0
C769 C 0.3622 0.72387 0.69917 0.0
C770 C 0.5088 0.14027 0.92915 0.0
C771 C 0.51235 0.16217 0.9554 0.0
C772 C 0.50552 0.1065 0.93405 0.0
C773 C 0.50681 0.09355 0.96524 0.0
H774 H 0.5061 0.14936 0.90485 0.0
H775 H 0.50065 0.09051 0.91345 0.0
S776 S 0.51968 0.14027 0.04157 0.0
N777 N 0.51939 0.16851 0.01337 0.0
N778 N 0.5147 0.10478 0.02248 0.0
C779 C 0.51292 0.11497 -0.00855 0.0
C780 C 0.5153 0.14941 0.98655 0.0
C781 C 0.12976 0.20186 0.2057 0.0
C782 C 0.10807 0.22671 0.19889 0.0
C783 C 0.15976 0.20903 0.22138 0.0
C784 C 0.16957 0.24148 0.22977 0.0
H785 H 0.12434 0.17708 0.19723 0.0
H786 H 0.17642 0.18929 0.22465 0.0
S787 S 0.12029 0.31488 0.2196 0.0
N788 N 0.09698 0.28457 0.20426 0.0
N789 N 0.15412 0.29811 0.2326 0.0
C790 C 0.1473 0.26622 0.2248 0.0
C791 C 0.1163 0.25879 0.20967 0.0
C792 C 0.02671 0.98951 0.14659 0.0
C793 C 0.02662 0.0211 0.16015 0.0
C794 C -0.0007 0.97626 0.12983 0.0
C795 C 0.97085 0.9943 0.12554 0.0
H796 H 0.0485 0.97523 0.14788 0.0
H797 H 0.0014 0.95257 0.11832 0.0
S798 S 0.95576 0.07549 0.16216 0.0
N799 N 0.99389 0.06808 0.17257 0.0
N800 N 0.94247 0.04331 0.14086 0.0
C801 C 0.96939 0.02471 0.14157 0.0
C802 C -0.00268 0.03818 0.15869 0.0
C803 C 0.30505 0.79987 0.41147 0.0
C804 C 0.29055 0.82761 0.42462 0.0
C805 C 0.29889 0.79008 0.37954 0.0
C806 C 0.27793 0.8076 0.35955 0.0
H807 H 0.32045 0.78486 0.42621 0.0
H808 H 0.30978 0.76798 0.37085 0.0
S809 S 0.23755 0.88462 0.38077 0.0
N810 N 0.25695 0.87438 0.41408 0.0
N811 N 0.24536 0.85594 0.35403 0.0
C812 C 0.26464 0.83636 0.37181 0.0
C813 C 0.27098 0.84639 0.40433 0.0
C814 C 0.45521 0.98928 0.65783 0.0
C815 C 0.4494 0.95712 0.66853 0.0
C816 C 0.4845 -0.00141 0.6426 0.0
C817 C 0.50918 0.97602 0.63707 0.0
H818 H 0.4367 0.00736 0.66055 0.0
H819 H 0.48691 0.02332 0.63361 0.0
S820 S 0.50822 0.88999 0.66457 0.0
N821 N 0.4725 0.90356 0.67584 0.0
N822 N 0.52726 0.92101 0.64666 0.0
C823 C 0.50456 0.94431 0.64939 0.0
C824 C 0.47475 0.93485 0.6651 0.0
C825 C 0.17471 0.19084 0.93533 0.0
C826 C 0.18497 0.15996 0.94514 0.0
C827 C 0.18191 0.20267 0.90468 0.0
C828 C 0.1987 0.18367 0.88254 0.0
H829 H 0.16278 0.2069 0.95204 0.0
H830 H 0.17508 0.22721 0.89854 0.0
S831 S 0.22789 0.10005 0.89477 0.0
N832 N 0.21096 0.10978 0.92938 0.0
N833 N 0.22341 0.13183 0.87105 0.0
C834 C 0.20723 0.15199 0.89106 0.0
C835 C 0.20062 0.14016 0.92261 0.0
C836 C 0.09839 0.07702 0.32813 0.0
C837 C 0.09156 0.04985 0.30786 0.0
C838 C 0.09083 0.07596 0.36088 0.0
C839 C 0.0753 0.04806 0.37418 0.0
H840 H 0.10995 0.09915 0.31867 0.0
H841 H 0.09682 0.09726 0.37583 0.0
S842 S 0.05191 0.97067 0.33124 0.0
N843 N 0.06866 0.99422 0.30329 0.0
N844 N 0.05347 0.99262 0.36487 0.0
C845 C 0.06804 0.02084 0.35415 0.0
C846 C 0.07649 0.02161 0.32095 0.0
C847 C 0.23281 0.75462 0.57845 0.0
C848 C 0.2285 0.78799 0.57266 0.0
C849 C 0.21174 0.73691 0.5988 0.0
C850 C 0.18593 0.75207 0.61465 0.0
H851 H 0.25363 0.74243 0.56861 0.0
H852 H 0.21778 0.71209 0.60469 0.0
S853 S 0.15956 0.8369 0.60139 0.0
N854 N 0.19284 0.83389 0.5795 0.0
N855 N 0.15341 0.80072 0.61798 0.0
C856 C 0.17881 0.78421 0.60567 0.0
C857 C 0.20026 0.80226 0.58485 0.0
C858 C 0.40863 0.91631 0.8297 0.0
C859 C 0.38748 0.93873 0.81565 0.0
C860 C 0.42243 0.92201 0.86045 0.0
C861 C 0.41562 0.95036 0.87818 0.0
H862 H 0.41562 0.89482 0.8164 0.0
H863 H 0.43931 0.90459 0.86992 0.0
S864 S 0.358 0.01428 0.85398 0.0
N865 N 0.35774 0.98857 0.82313 0.0
N866 N 0.38351 -0.00063 0.88074 0.0
C867 C 0.39312 0.97208 0.86504 0.0
C868 C 0.37909 0.96624 0.83384 0.0
C869 C 0.28172 0.20426 0.09668 0.0
C870 C 0.25152 0.21487 0.08491 0.0
C871 C 0.30131 0.2242 0.11725 0.0
C872 C 0.29094 0.25514 0.12711 0.0
H873 H 0.28909 0.17949 0.09221 0.0
H874 H 0.32245 0.21354 0.12847 0.0
S875 S 0.21999 0.29836 0.09404 0.0
N876 N 0.21675 0.26146 0.07759 0.0
N877 N 0.25351 0.29871 0.11676 0.0
C878 C 0.26378 0.26797 0.1112 0.0
C879 C 0.24382 0.24773 0.09022 0.0
C880 C 0.12847 0.04595 0.06696 0.0
C881 C 0.12623 0.07724 0.08116 0.0
C882 C 0.10033 0.02561 0.06206 0.0
C883 C 0.06951 0.03592 0.07161 0.0
H884 H 0.15115 0.03871 0.05613 0.0
H885 H 0.10218 0.00356 0.04763 0.0
S886 S 0.05194 0.11113 0.1175 0.0
N887 N 0.09186 0.11391 0.11116 0.0
N888 N 0.03902 0.07602 0.10098 0.0
C889 C 0.06776 0.06476 0.08989 0.0
C890 C 0.09627 0.08531 0.09512 0.0
C891 C 0.69907 0.45182 0.03841 0.0
C892 C 0.72805 0.46346 0.0236 0.0
C893 C 0.67002 0.46871 0.03607 0.0
C894 C 0.66852 0.49793 0.01859 0.0
H895 H 0.6985 0.42902 0.05149 0.0
H896 H 0.6483 0.45799 0.04718 0.0
S897 S 0.73841 0.54063 0.97787 0.0
N898 N 0.75417 0.50736 -0.00716 0.0
N899 N 0.69943 0.5392 0.98825 0.0
C900 C 0.69772 0.51073 0.00488 0.0
C901 C 0.72749 0.49351 0.00744 0.0
C902 C 0.79058 0.39273 0.18748 0.0
C903 C 0.80443 0.41763 0.20741 0.0
C904 C 0.77116 0.36723 0.2005 0.0
C905 C 0.76616 0.36537 0.23397 0.0
H906 H 0.79721 0.39136 0.16229 0.0
H907 H 0.76323 0.34706 0.1848 0.0
S908 S 0.79311 0.4269 0.29554 0.0
N909 N 0.80782 0.44138 0.26137 0.0
N910 N 0.77289 0.39234 0.28601 0.0
C911 C 0.77723 0.39161 0.25359 0.0
C912 C 0.79596 0.41815 0.2402 0.0
C913 C 0.84638 0.58035 0.52219 0.0
C914 C 0.8324 0.59541 0.49526 0.0
C915 C 0.87617 0.56448 0.51988 0.0
C916 C 0.89342 0.56346 0.49068 0.0
H917 H 0.83382 0.58006 0.54505 0.0
H918 H 0.88554 0.55261 0.54113 0.0
S919 S 0.86836 0.60136 0.41359 0.0
N920 N 0.83882 0.60977 0.43885 0.0
N921 N 0.89479 0.5803 0.43453 0.0
C922 C 0.8802 0.57943 0.46383 0.0
C923 C 0.8497 0.59526 0.4661 0.0
C924 C 0.20014 0.13147 0.17521 0.0
C925 C 0.19488 0.10176 0.19141 0.0
C926 C 0.228 0.15155 0.18189 0.0
C927 C 0.25097 0.1429 0.20561 0.0
H928 H 0.1816 0.14026 0.15886 0.0
H929 H 0.22996 0.17529 0.17054 0.0
S930 S 0.25129 0.06566 0.25115 0.0
N931 N 0.2175 0.06268 0.22884 0.0
N932 N 0.26903 0.10135 0.2423 0.0
C933 C 0.24748 0.11219 0.21995 0.0
C934 C 0.21963 0.0913 0.21254 0.0
C935 C 0.36509 0.94026 0.5352 0.0
C936 C 0.36745 0.91053 0.55187 0.0
C937 C 0.3919 0.96249 0.53342 0.0
C938 C 0.42149 0.95628 0.5492 0.0
H939 H 0.34323 0.94536 0.52134 0.0
H940 H 0.39001 0.98385 0.51837 0.0
S941 S 0.43936 0.88427 0.59905 0.0
N942 N 0.40106 0.8775 0.58659 0.0
N943 N 0.45126 0.91996 0.584 0.0
C944 C 0.42347 0.92806 0.56806 0.0
C945 C 0.39642 0.905 0.56927 0.0
C946 C 0.79538 0.58732 0.24628 0.0
C947 C 0.82376 0.5814 0.22841 0.0
C948 C 0.78378 0.61899 0.24988 0.0
C949 C 0.80021 0.64615 0.23599 0.0
H950 H 0.78212 0.56741 0.25802 0.0
H951 H 0.76226 0.62224 0.26445 0.0
S952 S 0.87431 0.64382 0.18483 0.0
N953 N 0.867 0.60539 0.19514 0.0
N954 N 0.84534 0.66475 0.20201 0.0
C955 C 0.8281 0.6405 0.21729 0.0
C956 C 0.83982 0.60822 0.21346 0.0
C957 C 0.74023 0.46074 0.75475 0.0
C958 C 0.72515 0.47035 0.72593 0.0
C959 C 0.75249 0.42945 0.75779 0.0
C960 C 0.75068 0.40687 0.73198 0.0
H961 H 0.7406 0.47658 0.77583 0.0
H962 H 0.76211 0.42236 0.78105 0.0
S963 S 0.71834 0.42194 0.64985 0.0
N964 N 0.71254 0.45626 0.66988 0.0
N965 N 0.73611 0.39747 0.67562 0.0
C966 C 0.73835 0.41714 0.70219 0.0
C967 C 0.7254 0.44889 0.69918 0.0
C968 C 0.98191 0.83323 -0.00975 0.0
C969 C 0.98227 0.82602 0.95705 0.0
C970 C 0.98754 0.86526 0.00163 0.0
C971 C 0.99304 0.89111 0.98006 0.0
H972 H 0.9752 0.81439 0.0074 0.0
H973 H 0.98449 0.87012 0.02711 0.0
S974 S 0.00264 0.8843 0.89158 0.0
N975 N 0.99382 0.84654 0.90327 0.0
N976 N 0.00353 0.90696 0.92475 0.0
C977 C -0.00325 0.88377 0.94722 0.0
C978 C 0.9916 0.85108 0.93566 0.0
C979 C 0.94017 0.28081 0.7053 0.0
C980 C 0.93954 0.26972 0.67307 0.0
C981 C 0.91118 0.28702 0.72155 0.0
C982 C 0.88063 0.28318 0.70582 0.0
H983 H 0.96335 0.28535 0.71789 0.0
H984 H 0.91276 0.29565 0.74631 0.0
S985 S 0.86555 0.25275 0.62213 0.0
N986 N 0.90588 0.25348 0.62653 0.0
N987 N 0.85118 0.26564 0.65686 0.0
C988 C 0.87957 0.27127 0.67383 0.0
C989 C 0.90911 0.26432 0.65751 0.0
C990 C 0.47309 0.14673 0.50509 0.0
C991 C 0.49641 0.16798 0.49065 0.0
C992 C 0.48288 0.11931 0.52208 0.0
C993 C 0.51627 0.11235 0.5251 0.0
H994 H 0.44708 0.14976 0.50114 0.0
H995 H 0.46404 0.10208 0.53034 0.0
S996 S 0.58691 0.16536 0.49952 0.0
N997 N 0.55428 0.18397 0.4862 0.0
N998 N 0.57267 0.13241 0.51819 0.0
C999 C 0.5398 0.13562 0.5143 0.0
C1000 C 0.52986 0.16346 0.49697 0.0
C1001 C 0.59269 0.72932 0.24602 0.0
C1002 C 0.57881 0.75512 0.22899 0.0
C1003 C 0.62508 0.73184 0.25704 0.0
C1004 C 0.64435 0.76042 0.25195 0.0
H1005 H 0.57981 0.70578 0.24797 0.0
H1006 H 0.63569 0.71037 0.26736 0.0
S1007 S 0.61516 0.83889 0.21992 0.0
N1008 N 0.58354 0.81277 0.21538 0.0
N1009 N 0.64442 0.81804 0.23699 0.0
C1010 C 0.62894 0.78821 0.24002 0.0
C1011 C 0.59601 0.78545 0.22838 0.0
C1012 C 0.0528 0.21381 0.51262 0.0
C1013 C 0.07401 0.22485 0.53752 0.0
C1014 C 0.05873 0.18496 0.4959 0.0
C1015 C 0.08547 0.16598 0.50436 0.0
H1016 H 0.03009 0.22596 0.50799 0.0
H1017 H 0.04 0.17528 0.47927 0.0
S1018 S 0.15126 0.18792 0.56362 0.0
N1019 N 0.12561 0.21813 0.56612 0.0
N1020 N 0.136 0.16273 0.53539 0.0
C1021 C 0.10902 0.17893 0.52627 0.0
C1022 C 0.10332 0.20874 0.54293 0.0
C1023 C 0.61017 0.23416 0.35777 0.0
C1024 C 0.58421 0.25317 0.34722 0.0
C1025 C 0.63952 0.23343 0.3408 0.0
C1026 C 0.6442 0.25169 0.31251 0.0
H1027 H 0.60772 0.21921 0.37909 0.0
H1028 H 0.65853 0.21804 0.34985 0.0
S1029 S 0.58451 0.30714 0.27569 0.0
N1030 N 0.56558 0.292 0.30748 0.0
N1031 N 0.62077 0.29059 0.27547 0.0
C1032 C 0.61878 0.27159 0.30215 0.0
C1033 C 0.58881 0.27234 0.31951 0.0
C1034 C 0.46525 0.84563 0.09366 0.0
C1035 C 0.47203 0.81605 0.07821 0.0
C1036 C 0.45108 0.87098 0.07671 0.0
C1037 C 0.44389 0.86788 0.0435 0.0
H1038 H 0.47143 0.84947 0.11892 0.0
H1039 H 0.44799 0.89394 0.08933 0.0
S1040 S 0.45383 0.79387 -0.0072 0.0
N1041 N 0.46771 0.78372 0.02874 0.0
N1042 N 0.44185 0.8318 -0.00344 0.0
C1043 C 0.44877 0.83766 0.02826 0.0
C1044 C 0.46273 0.81165 0.04569 0.0
C1045 C 0.85996 0.74747 0.82748 0.0
C1046 C 0.85858 0.75856 0.85957 0.0
C1047 C 0.83634 0.75603 0.80471 0.0
C1048 C 0.81067 0.77636 0.81309 0.0
H1049 H 0.87965 0.73227 0.81978 0.0
H1050 H 0.83865 0.74705 0.78023 0.0
S1051 S 0.79679 0.81253 0.89415 0.0
N1052 N 0.82983 0.79096 0.89878 0.0
N1053 N 0.78539 0.80735 0.85612 0.0
C1054 C 0.80884 0.78731 0.84536 0.0
C1055 C 0.83278 0.77831 0.86858 0.0
C1056 C 0.9953 0.02477 0.85127 0.0
C1057 C 0.96913 0.04136 0.83734 0.0
C1058 C 0.00182 0.027 0.88434 0.0
C1059 C 0.98253 0.04604 0.90426 0.0
H1060 H 0.00896 0.00766 0.83713 0.0
H1061 H 0.01955 0.01097 0.8948 0.0
S1062 S 0.91649 0.10006 0.87897 0.0
N1063 N 0.928 0.08227 0.84526 0.0
N1064 N 0.94024 0.08589 0.90775 0.0
C1065 C 0.95933 0.06603 0.89021 0.0
C1066 C 0.95266 0.06391 0.85649 0.0
C1067 C 0.76406 0.21996 0.60156 0.0
C1068 C 0.73964 0.19564 0.59523 0.0
C1069 C 0.76242 0.24023 0.62871 0.0
C1070 C 0.73672 0.2363 0.6509 0.0
H1071 H 0.78447 0.22354 0.5853 0.0
H1072 H 0.78224 0.25819 0.63298 0.0
S1073 S 0.66655 0.1762 0.64486 0.0
N1074 N 0.6885 0.16914 0.61249 0.0
N1075 N 0.68611 0.20655 0.66447 0.0
C1076 C 0.71198 0.21221 0.64467 0.0
C1077 C 0.71326 0.19204 0.61657 0.0
C1078 C 0.54968 0.98739 0.35335 0.0
C1079 C 0.5566 0.01893 0.34131 0.0
C1080 C 0.54087 0.98281 0.38558 0.0
C1081 C 0.53939 0.0096 0.40682 0.0
H1082 H 0.55154 0.96606 0.33791 0.0
H1083 H 0.53682 0.95812 0.3943 0.0
S1084 S 0.55316 0.09716 0.38707 0.0
N1085 N 0.55943 0.07748 0.35291 0.0
N1086 N 0.54358 0.06863 0.41358 0.0
C1087 C 0.54513 0.04125 0.39491 0.0
C1088 C 0.55356 0.046 0.36209 0.0
C1089 C 0.73315 0.77746 0.09773 0.0
C1090 C 0.75932 0.77949 0.07622 0.0
C1091 C 0.73872 0.77388 0.13066 0.0
C1092 C 0.77078 0.77256 0.1437 0.0
H1093 H 0.70812 0.77973 0.08923 0.0
H1094 H 0.71747 0.77319 0.14611 0.0
S1095 S 0.84777 0.77341 0.09714 0.0
N1096 N 0.81854 0.7771 0.06967 0.0
N1097 N 0.82893 0.77068 0.1321 0.0
C1098 C 0.79716 0.77252 0.1223 0.0
C1099 C 0.79145 0.77593 0.08844 0.0
C1100 C 0.97681 0.05245 0.65131 0.0
C1101 C 0.98088 0.02459 0.67023 0.0
C1102 C 0.99527 0.05769 0.62353 0.0
C1103 C 0.01853 0.03524 0.61346 0.0
H1104 H 0.95873 0.07009 0.65756 0.0
H1105 H 0.99033 0.07903 0.60927 0.0
S1106 S 0.04138 0.96021 0.65648 0.0
N1107 N 0.01206 0.97552 0.67839 0.0
N1108 N 0.04656 0.98548 0.62606 0.0
C1109 C 0.02393 0.00801 0.6329 0.0
C1110 C 0.00515 0.00264 0.66126 0.0
C1111 C 0.796 0.19236 0.41479 0.0
C1112 C 0.76876 0.20144 0.43283 0.0
C1113 C 0.80335 0.20759 0.38556 0.0
C1114 C 0.78428 0.23291 0.37399 0.0
H1115 H 0.81021 0.17175 0.42199 0.0
H1116 H 0.82231 0.19771 0.37064 0.0
S1117 S 0.71392 0.26937 0.41462 0.0
N1118 N 0.72524 0.24007 0.439 0.0
N1119 N 0.73959 0.2689 0.38414 0.0
C1120 C 0.75918 0.24443 0.39332 0.0
C1121 C 0.75121 0.22855 0.42275 0.0
C1122 C 0.5501 0.98596 0.14486 0.0
C1123 C 0.53301 -0.00024 0.17044 0.0
C1124 C 0.53608 0.98364 0.114 0.0
C1125 C 0.50428 0.99448 0.10781 0.0
H1126 H 0.57513 0.97857 0.14826 0.0
H1127 H 0.55048 0.97365 0.09474 0.0
S1128 S 0.44804 0.029 0.16765 0.0
N1129 N 0.48185 0.02214 0.1884 0.0
N1130 N 0.45514 0.01702 0.13034 0.0
C1131 C 0.48619 0.00649 0.13362 0.0
C1132 C 0.50067 0.00934 0.16497 0.0
C1133 C 0.71118 0.76066 0.88289 0.0
C1134 C 0.69796 0.78239 0.90531 0.0
C1135 C 0.7019 0.76133 0.85035 0.0
C1136 C 0.67944 0.78399 0.83926 0.0
H1137 H 0.73079 0.74497 0.8899 0.0
H1138 H 0.71497 0.74646 0.8334 0.0
S1139 S 0.63199 0.8405 0.88891 0.0
N1140 N 0.65623 0.82252 0.91489 0.0
N1141 N 0.64014 0.82454 0.85332 0.0
C1142 C 0.6633 0.80308 0.86177 0.0
C1143 C 0.67216 0.80199 0.89501 0.0
C1144 C 0.82021 0.91084 0.95868 0.0
C1145 C 0.79649 0.9046 0.98222 0.0
C1146 C 0.84394 0.93604 0.96282 0.0
C1147 C 0.84541 0.95555 -0.00892 0.0
H1148 H 0.82142 0.89514 0.93757 0.0
H1149 H 0.86253 0.93871 0.94449 0.0
S1150 S 0.78535 0.95226 0.05758 0.0
N1151 N 0.77284 0.9225 0.03268 0.0
N1152 N 0.81814 0.96961 0.04093 0.0
C1153 C 0.82001 0.95142 0.01349 0.0
C1154 C 0.7954 0.92594 0.00897 0.0
C1155 C 0.38158 0.57448 0.94326 0.0
C1156 C 0.37566 0.60668 0.95356 0.0
C1157 C 0.41345 0.5624 0.94366 0.0
C1158 C 0.44045 0.58223 0.95416 0.0
H1159 H 0.36131 0.55801 0.93613 0.0
H1160 H 0.41664 0.53698 0.93738 0.0
S1161 S 0.43884 0.66998 0.97804 0.0
N1162 N 0.40003 0.65916 0.97081 0.0
N1163 N 0.45967 0.63691 0.97105 0.0
C1164 C 0.43505 0.61515 0.96226 0.0
C1165 C 0.40274 0.62725 0.96216 0.0
C1166 C 0.1481 0.57258 0.73027 0.0
C1167 C 0.13229 0.56406 0.75908 0.0
C1168 C 0.16368 0.60355 0.72675 0.0
C1169 C 0.16393 0.62681 0.75202 0.0
H1170 H 0.14654 0.55609 0.70968 0.0
H1171 H 0.17389 0.60989 0.70355 0.0
S1172 S 0.1308 0.61327 0.83423 0.0
N1173 N 0.12095 0.57914 0.81428 0.0
N1174 N 0.15095 0.63685 0.80848 0.0
C1175 C 0.15048 0.6172 0.78185 0.0
C1176 C 0.13439 0.58595 0.78515 0.0
C1177 C 0.16387 0.4287 0.46508 0.0
C1178 C 0.16262 0.39543 0.47376 0.0
C1179 C 0.1352 0.44634 0.46153 0.0
C1180 C 0.10405 0.43117 0.46552 0.0
H1181 H 0.18729 0.44162 0.46195 0.0
H1182 H 0.13744 0.47213 0.45594 0.0
S1183 S 0.08695 0.34448 0.48763 0.0
N1184 N 0.12739 0.34801 0.48605 0.0
N1185 N 0.0735 0.38084 0.4784 0.0
C1186 C 0.10232 0.3977 0.47334 0.0
C1187 C 0.13157 0.37993 0.47774 0.0
C1188 C 0.83153 0.9349 0.77481 0.0
C1189 C 0.83861 0.95813 0.75103 0.0
C1190 C 0.80276 0.91535 0.77327 0.0
C1191 C 0.78036 0.91762 0.74732 0.0
H1192 H 0.84876 0.93129 0.79443 0.0
H1193 H 0.7992 0.8969 0.79159 0.0
S1194 S 0.78649 0.97674 0.68027 0.0
N1195 N 0.81996 0.98455 0.70227 0.0
N1196 N 0.76616 0.94664 0.69853 0.0
C1197 C 0.78646 0.94183 0.72409 0.0
C1198 C 0.81552 0.9624 0.72617 0.0
C1199 C 0.69991 0.02991 0.49215 0.0
C1200 C 0.71328 0.04959 0.51717 0.0
C1201 C 0.67529 0.00618 0.49841 0.0
C1202 C 0.66262 0.00251 0.52965 0.0
H1203 H 0.70575 0.03539 0.46731 0.0
H1204 H 0.66268 0.99436 0.47804 0.0
S1205 S 0.69493 0.04299 0.60409 0.0
N1206 N 0.71722 0.05936 0.57494 0.0
N1207 N 0.66964 0.01562 0.58647 0.0
C1208 C 0.6793 0.01841 0.55536 0.0
C1209 C 0.70493 0.0421 0.54909 0.0
C1210 C 0.20826 0.40505 0.77659 0.0
C1211 C 0.17421 0.40452 0.78163 0.0
C1212 C 0.22674 0.37772 0.7838 0.0
C1213 C 0.21203 0.34956 0.79754 0.0
H1214 H 0.2204 0.42612 0.76566 0.0
H1215 H 0.25249 0.37819 0.77763 0.0
S1216 S 0.12422 0.33723 0.81817 0.0
N1217 N 0.12682 0.37425 0.80264 0.0
N1218 N 0.16177 0.32351 0.81742 0.0
C1219 C 0.17837 0.34952 0.80437 0.0
C1220 C 0.15938 0.37685 0.79608 0.0
C1221 C 0.30762 0.60705 0.2861 0.0
C1222 C 0.3169 0.59347 0.25639 0.0
C1223 C 0.28785 0.6343 0.28738 0.0
C1224 C 0.27581 0.64834 0.25905 0.0
H1225 H 0.31711 0.59768 0.30855 0.0
H1226 H 0.28297 0.64522 0.31064 0.0
S1227 S 0.2906 0.62026 0.17529 0.0
N1228 N 0.31101 0.59493 0.19808 0.0
N1229 N 0.2731 0.64557 0.20045 0.0
C1230 C 0.28327 0.63378 0.22926 0.0
C1231 C 0.30405 0.60651 0.22794 0.0
C1232 C 0.48911 0.66986 0.58036 0.0
C1233 C 0.48941 0.6668 0.61418 0.0
C1234 C 0.48588 0.6424 0.56018 0.0
C1235 C 0.48236 0.61095 0.57309 0.0
H1236 H 0.49068 0.69375 0.5693 0.0
H1237 H 0.48534 0.64588 0.53432 0.0
S1238 S 0.48546 0.58916 0.65972 0.0
N1239 N 0.4887 0.62951 0.65956 0.0
N1240 N 0.48247 0.57776 0.6215 0.0
C1241 C 0.48399 0.60732 0.60677 0.0
C1242 C 0.48768 0.6353 0.62736 0.0
C1243 C 0.6049 0.24825 0.82911 0.0
C1244 C 0.58757 0.27726 0.83244 0.0
C1245 C 0.63549 0.24814 0.81396 0.0
C1246 C 0.65008 0.27711 0.80193 0.0
H1247 H 0.59518 0.22552 0.83901 0.0
H1248 H 0.64838 0.2255 0.81291 0.0
S1249 S 0.61357 0.35889 0.8012 0.0
N1250 N 0.58631 0.3352 0.81983 0.0
N1251 N 0.64375 0.335 0.79169 0.0
C1252 C 0.63239 0.30595 0.8037 0.0
C1253 C 0.60115 0.30602 0.81882 0.0
C1254 C 0.07532 0.32312 0.05073 0.0
C1255 C 0.07011 0.31964 0.08393 0.0
C1256 C 0.08042 0.35415 0.0374 0.0
C1257 C 0.08162 0.3823 0.05709 0.0
H1258 H 0.07338 0.302 0.03478 0.0
H1259 H 0.0816 0.35633 0.01142 0.0
S1260 S 0.07384 0.38545 0.14595 0.0
N1261 N 0.06942 0.3462 0.13654 0.0
N1262 N 0.08008 0.40457 0.11155 0.0
C1263 C 0.07918 0.3788 0.09059 0.0
C1264 C 0.07306 0.34737 0.10404 0.0
C1265 C 0.92585 0.75793 0.33134 0.0
C1266 C 0.92536 0.77245 0.36214 0.0
C1267 C 0.90211 0.76512 0.30794 0.0
C1268 C 0.87765 0.78763 0.31445 0.0
H1269 H 0.94377 0.73989 0.32581 0.0
H1270 H 0.90183 0.7515 0.28542 0.0
S1271 S 0.87142 0.83785 0.38916 0.0
N1272 N 0.90208 0.81369 0.39641 0.0
N1273 N 0.85843 0.8285 0.35227 0.0
C1274 C 0.87929 0.80468 0.34419 0.0
C1275 C 0.9028 0.79666 0.36815 0.0
C1276 C 0.52526 0.36927 0.93252 0.0
C1277 C 0.52104 0.34732 0.95821 0.0
C1278 C 0.52822 0.40312 0.93808 0.0
C1279 C 0.52771 0.41612 0.96955 0.0
H1280 H 0.5251 0.36035 0.90785 0.0
H1281 H 0.53123 0.41917 0.91762 0.0
S1282 S 0.51869 0.36893 0.04516 0.0
N1283 N 0.5173 0.3409 0.01625 0.0
N1284 N 0.52353 0.40438 0.02679 0.0
C1285 C 0.52435 0.39436 -0.00452 0.0
C1286 C 0.52085 0.36 -0.01021 0.0
C1287 C 0.91663 0.25348 0.18696 0.0
C1288 C 0.94256 0.25518 0.20963 0.0
C1289 C 0.884 0.25051 0.19674 0.0
C1290 C 0.87599 0.24987 0.22957 0.0
H1291 H 0.92154 0.25329 0.16135 0.0
H1292 H 0.86487 0.24888 0.17838 0.0
S1293 S 0.93459 0.25518 0.29855 0.0
N1294 N 0.9581 0.25665 0.26638 0.0
N1295 N 0.89637 0.25232 0.28486 0.0
C1296 C 0.90153 0.25258 0.25257 0.0
C1297 C 0.93493 0.25485 0.24257 0.0
C1298 C 0.02712 0.65986 0.48913 0.0
C1299 C 0.0347 0.67504 0.4597 0.0
C1300 C 0.03375 0.62693 0.49418 0.0
C1301 C 0.04765 0.60812 0.46977 0.0
H1302 H 0.01412 0.67284 0.50759 0.0
H1303 H 0.02471 0.61532 0.51588 0.0
S1304 S 0.07715 0.63728 0.39072 0.0
N1305 N 0.06157 0.66974 0.40776 0.0
N1306 N 0.07261 0.60754 0.4171 0.0
C1307 C 0.05824 0.62369 0.44164 0.0
C1308 C 0.0521 0.6573 0.43662 0.0
C1309 C 0.56766 0.82683 0.66329 0.0
C1310 C 0.5465 0.81844 0.68879 0.0
C1311 C 0.59988 0.83862 0.66959 0.0
C1312 C 0.61144 0.84237 0.70146 0.0
H1313 H 0.56065 0.82083 0.6386 0.0
H1314 H 0.61684 0.84046 0.64971 0.0
S1315 S 0.56256 0.83366 0.77574 0.0
N1316 N 0.5369 0.82202 0.74636 0.0
N1317 N 0.59736 0.84446 0.75809 0.0
C1318 C 0.58883 0.83937 0.72662 0.0
C1319 C 0.55631 0.82704 0.72032 0.0
C1320 C 0.52373 0.49247 0.66344 0.0
C1321 C 0.55799 0.49059 0.66167 0.0
C1322 C 0.5033 0.47802 0.63968 0.0
C1323 C 0.51667 0.46227 0.61282 0.0
H1324 H 0.51273 0.50749 0.68171 0.0
H1325 H 0.47744 0.48313 0.6402 0.0
S1326 S 0.60362 0.44033 0.60385 0.0
N1327 N 0.60348 0.46365 0.63652 0.0
N1328 N 0.56507 0.43701 0.59128 0.0
C1329 C 0.55014 0.45494 0.6142 0.0
C1330 C 0.57096 0.46938 0.63867 0.0
C1331 C 0.79193 0.35785 0.92122 0.0
C1332 C 0.81686 0.34388 0.93954 0.0
C1333 C 0.78704 0.3496 0.88877 0.0
C1334 C 0.80691 0.32706 0.87319 0.0
H1335 H 0.77511 0.37436 0.93225 0.0
H1336 H 0.76676 0.36033 0.87614 0.0
S1337 S 0.87865 0.28704 0.90915 0.0
N1338 N 0.86402 0.30904 0.93886 0.0
N1339 N 0.85467 0.29343 0.8777 0.0
C1340 C 0.83333 0.31451 0.8906 0.0
C1341 C 0.83833 0.32293 0.9238 0.0
C1342 C 0.99342 0.47385 0.14112 0.0
C1343 C 0.96639 0.4939 0.14492 0.0
C1344 C 0.02228 0.48542 0.12665 0.0
C1345 C 0.02535 0.51752 0.11483 0.0
H1346 H 0.99248 0.44883 0.14946 0.0
H1347 H 0.04179 0.46847 0.12364 0.0
S1348 S 0.96231 0.58046 0.11979 0.0
N1349 N 0.94493 0.54787 0.13664 0.0
N1350 N -0.00073 0.5697 0.1091 0.0
C1351 C -0.00115 0.53819 0.11922 0.0
C1352 C 0.96936 0.52635 0.13415 0.0
C1353 C 0.70449 0.68993 0.41171 0.0
C1354 C 0.72804 0.69262 0.43663 0.0
C1355 C 0.71067 0.70384 0.38168 0.0
C1356 C 0.74014 0.72163 0.37605 0.0
H1357 H 0.68139 0.67655 0.41527 0.0
H1358 H 0.69217 0.70089 0.3628 0.0
S1359 S 0.80936 0.73632 0.43358 0.0
N1360 N 0.78192 0.71434 0.45387 0.0
N1361 N 0.79301 0.74142 0.39745 0.0
C1362 C 0.76367 0.72498 0.40085 0.0
C1363 C 0.75776 0.71015 0.43119 0.0
C1364 C 0.61038 0.58202 0.8273 0.0
C1365 C 0.61259 0.55367 0.80814 0.0
C1366 C 0.60122 0.57997 0.85965 0.0
C1367 C 0.59291 0.54959 0.87336 0.0
H1368 H 0.61521 0.60595 0.81703 0.0
H1369 H 0.59939 0.6023 0.87364 0.0
S1370 S 0.59602 0.46818 0.8339 0.0
N1371 N 0.60736 0.4943 0.80564 0.0
N1372 N 0.58887 0.49057 0.86621 0.0
C1373 C 0.5957 0.52105 0.85474 0.0
C1374 C 0.60593 0.52306 0.82212 0.0
C1375 C 0.75205 0.26173 0.08931 0.0
C1376 C 0.74767 0.29552 0.08673 0.0
C1377 C 0.73943 0.2443 0.11541 0.0
C1378 C 0.72231 0.26026 0.13974 0.0
H1379 H 0.768 0.24933 0.07288 0.0
H1380 H 0.74667 0.21932 0.11864 0.0
S1381 S 0.69553 0.3458 0.13869 0.0
N1382 N 0.71821 0.34232 0.10623 0.0
N1383 N 0.69466 0.30942 0.15561 0.0
C1384 C 0.71286 0.29246 0.13443 0.0
C1385 C 0.72573 0.31029 0.10779 0.0
C1386 C 0.94872 0.44733 0.31075 0.0
C1387 C 0.92779 0.47095 0.29845 0.0
C1388 C 0.96292 0.4508 0.34155 0.0
C1389 C 0.95681 0.47808 0.36104 0.0
H1390 H 0.95463 0.42619 0.29634 0.0
H1391 H 0.97914 0.43223 0.34991 0.0
S1392 S 0.90126 0.54528 0.34141 0.0
N1393 N 0.89996 0.52145 0.30911 0.0
N1394 N 0.92657 0.52803 0.36681 0.0
C1395 C 0.93526 0.50147 0.34936 0.0
C1396 C 0.92076 0.49789 0.31812 0.0
C1397 C 0.73158 0.75673 0.58586 0.0
C1398 C 0.74414 0.72562 0.59096 0.0
C1399 C 0.74067 0.78328 0.60573 0.0
C1400 C 0.76237 0.77981 0.6319 0.0
H1401 H 0.71388 0.76057 0.56673 0.0
H1402 H 0.72894 0.80623 0.60168 0.0
S1403 S 0.80585 0.70442 0.65274 0.0
N1404 N 0.78219 0.69351 0.62161 0.0
N1405 N 0.79949 0.74351 0.65938 0.0
C1406 C 0.77731 0.74944 0.63566 0.0
C1407 C 0.768 0.72228 0.6152 0.0
C1408 C 0.65454 0.56062 0.49465 0.0
C1409 C 0.66089 0.56949 0.52705 0.0
C1410 C 0.62636 0.5417 0.48591 0.0
C1411 C 0.60451 0.53024 0.50948 0.0
H1412 H 0.66937 0.57138 0.47569 0.0
H1413 H 0.62035 0.53815 0.46058 0.0
S1414 S 0.61254 0.54317 0.59778 0.0
N1415 N 0.64472 0.56327 0.58278 0.0
N1416 N 0.59272 0.52609 0.56661 0.0
C1417 C 0.61247 0.53608 0.54213 0.0
C1418 C 0.64053 0.55614 0.5509 0.0
C1419 C 0.21913 0.9833 0.4865 0.0
C1420 C 0.2242 0.96063 0.51111 0.0
C1421 C 0.19331 0.00492 0.48816 0.0
C1422 C 0.17193 0.00465 0.51461 0.0
H1423 H 0.23388 0.983 0.46496 0.0
H1424 H 0.18883 0.02032 0.4676 0.0
S1425 S 0.17987 0.95491 0.58854 0.0
N1426 N 0.20933 0.94267 0.56487 0.0
N1427 N 0.16122 0.98353 0.56833 0.0
C1428 C 0.17894 0.98426 0.54076 0.0
C1429 C 0.20493 0.96212 0.53889 0.0
C1430 C 0.26415 0.87701 0.67174 0.0
C1431 C 0.27241 0.90338 0.69261 0.0
C1432 C 0.2349 0.85843 0.67564 0.0
C1433 C 0.21379 0.86499 0.7013 0.0
H1434 H 0.28171 0.8689 0.65426 0.0
H1435 H 0.23116 0.83628 0.6613 0.0
S1436 S 0.22114 0.93498 0.75831 0.0
N1437 N 0.25419 0.93869 0.73582 0.0
N1438 N 0.20025 0.90238 0.74432 0.0
C1439 C 0.21981 0.8935 0.7197 0.0
C1440 C 0.24902 0.91307 0.71508 0.0
C1441 C 0.30559 0.04817 0.03876 0.0
C1442 C 0.28633 0.05378 0.01108 0.0
C1443 C 0.33582 0.03306 0.03656 0.0
C1444 C 0.3482 0.02374 0.00651 0.0
H1445 H 0.29742 0.05584 0.06231 0.0
H1446 H 0.35012 0.02976 0.05837 0.0
S1447 S 0.3067 0.03132 0.92699 0.0
N1448 N 0.28122 0.04725 0.95288 0.0
N1449 N 0.33823 0.01956 0.94869 0.0
C1450 C 0.32886 0.02847 0.97876 0.0
C1451 C 0.29786 0.04327 0.98106 0.0
C1452 C 0.70638 0.63517 0.69177 0.0
C1453 C 0.67661 0.63056 0.67444 0.0
C1454 C 0.72038 0.66666 0.69693 0.0
C1455 C 0.70491 0.69415 0.68489 0.0
H1456 H 0.71695 0.615 0.70444 0.0
H1457 H 0.74129 0.66967 0.71318 0.0
S1458 S 0.63343 0.69395 0.62905 0.0
N1459 N 0.63721 0.65513 0.63847 0.0
N1460 N 0.66341 0.71432 0.64854 0.0
C1461 C 0.67823 0.68934 0.66353 0.0
C1462 C 0.66413 0.65741 0.6581 0.0
C1463 C 0.91139 0.40606 0.08817 0.0
C1464 C 0.88093 0.41835 0.07897 0.0
C1465 C 0.94045 0.42447 0.08368 0.0
C1466 C 0.93988 0.456 0.07076 0.0
H1467 H 0.91327 0.38081 0.09536 0.0
H1468 H 0.96361 0.41286 0.08751 0.0
S1469 S 0.86638 0.50355 0.05404 0.0
N1470 N 0.85163 0.46706 0.06451 0.0
N1471 N 0.90673 0.50185 0.05667 0.0
C1472 C 0.90963 0.4707 0.06707 0.0
C1473 C 0.87987 0.45178 0.0712 0.0
C1474 C 0.31885 0.0808 0.73042 0.0
C1475 C 0.30084 0.05275 0.74035 0.0
C1476 C 0.30642 0.11211 0.73398 0.0
C1477 C 0.27529 0.11675 0.74737 0.0
H1478 H 0.34309 0.0787 0.72039 0.0
H1479 H 0.32162 0.1329 0.72648 0.0
S1480 S 0.21735 0.05103 0.77546 0.0
N1481 N 0.24953 0.03149 0.7629 0.0
N1482 N 0.22621 0.09018 0.76951 0.0
C1483 C 0.25659 0.08878 0.75653 0.0
C1484 C 0.26935 0.05688 0.7531 0.0
C1485 C 0.21091 0.94085 0.24691 0.0
C1486 C 0.19012 0.94877 0.22109 0.0
C1487 C 0.22707 0.91132 0.24716 0.0
C1488 C 0.22377 0.88906 0.22126 0.0
H1489 H 0.21346 0.95674 0.26788 0.0
H1490 H 0.24109 0.90516 0.26846 0.0
S1491 S 0.1753 0.89952 0.14635 0.0
N1492 N 0.16917 0.93295 0.16775 0.0
N1493 N 0.20024 0.87755 0.16822 0.0
C1494 C 0.20487 0.89747 0.19438 0.0
C1495 C 0.18783 0.92733 0.19431 0.0
C1496 C 0.44603 0.34663 0.43425 0.0
C1497 C 0.47407 0.32805 0.43054 0.0
C1498 C 0.44884 0.38006 0.4417 0.0
C1499 C 0.47979 0.3959 0.44618 0.0
H1500 H 0.4217 0.33517 0.43213 0.0
H1501 H 0.42661 0.39312 0.44568 0.0
S1502 S 0.5608 0.35939 0.43585 0.0
N1503 N 0.5339 0.32885 0.42916 0.0
N1504 N 0.53892 0.39154 0.44373 0.0
C1505 C 0.50798 0.3781 0.441 0.0
C1506 C 0.5052 0.34419 0.43302 0.0
C1507 C 0.40607 0.7179 0.20535 0.0
C1508 C 0.41973 0.73249 0.17794 0.0
C1509 C 0.37905 0.73112 0.22027 0.0
C1510 C 0.36435 0.75924 0.20816 0.0
H1511 H 0.41715 0.69698 0.21624 0.0
H1512 H 0.36958 0.71887 0.24145 0.0
S1513 S 0.39001 0.8053 0.13539 0.0
N1514 N 0.4161 0.77558 0.13816 0.0
N1515 N 0.36495 0.8004 0.16608 0.0
C1516 C 0.37732 0.77355 0.18014 0.0
C1517 C 0.40499 0.76011 0.16501 0.0
C1518 C 0.95601 0.63595 0.97027 0.0
C1519 C 0.96838 0.65212 0.94298 0.0
C1520 C 0.96974 0.6074 0.98134 0.0
C1521 C -0.00358 0.59367 0.96567 0.0
H1522 H 0.93604 0.64574 0.98378 0.0
H1523 H 0.95954 0.59643 0.00291 0.0
S1524 S 0.03612 0.62479 0.89127 0.0
N1525 N 0.00752 0.65111 0.89905 0.0
N1526 N 0.03339 0.59724 0.92004 0.0
C1527 C 0.00824 0.60876 0.93749 0.0
C1528 C 0.9942 0.63801 0.92616 0.0
C1529 C 0.10395 0.29072 0.71253 0.0
C1530 C 0.0881 0.26847 0.69122 0.0
C1531 C 0.12407 0.27977 0.73723 0.0
C1532 C 0.12994 0.24617 0.7408 0.0
H1533 H 0.10194 0.31682 0.70926 0.0
H1534 H 0.13708 0.29818 0.75191 0.0
S1535 S 0.08942 0.17786 0.6943 0.0
N1536 N 0.0754 0.21124 0.67786 0.0
N1537 N 0.11431 0.19063 0.72386 0.0
C1538 C 0.11177 0.22354 0.72148 0.0
C1539 C 0.09066 0.23473 0.69666 0.0
C1540 C 0.55928 0.69675 0.05176 0.0
C1541 C 0.56737 0.68795 0.08342 0.0
C1542 C 0.57043 0.67859 0.02559 0.0
C1543 C 0.58995 0.65148 0.03063 0.0
H1544 H 0.54148 0.71523 0.04735 0.0
H1545 H 0.55978 0.68269 0.00198 0.0
S1546 S 0.62613 0.62585 0.10807 0.0
N1547 N 0.6021 0.65589 0.11789 0.0
N1548 N 0.62352 0.62221 0.06842 0.0
C1549 C 0.60294 0.64662 0.06155 0.0
C1550 C 0.59105 0.66447 0.08824 0.0
C1551 C 0.031 0.79636 0.7963 0.0
C1552 C 0.01573 0.76743 0.80806 0.0
C1553 C 0.05887 0.79516 0.77678 0.0
C1554 C 0.07191 0.76503 0.7685 0.0
H1555 H 0.0228 0.82004 0.80395 0.0
H1556 H 0.07159 0.81781 0.77019 0.0
S1557 S 0.03772 0.68248 0.788 0.0
N1558 N 0.01313 0.70787 0.80598 0.0
N1559 N 0.0655 0.70585 0.76971 0.0
C1560 C 0.05522 0.73607 0.7777 0.0
C1561 C 0.02705 0.73721 0.7974 0.0
C1562 C 0.97394 0.38326 0.57546 0.0
C1563 C 0.98523 0.35311 0.5652 0.0
C1564 C 0.95669 0.40266 0.55406 0.0
C1565 C 0.95196 0.39303 0.52152 0.0
H1566 H 0.97993 0.39258 0.59944 0.0
H1567 H 0.95075 0.42697 0.56203 0.0
S1568 S 0.97233 0.31357 0.48517 0.0
N1569 N 0.98605 0.31188 0.52271 0.0
N1570 N 0.95543 0.34945 0.4818 0.0
C1571 C 0.9601 0.36139 0.51226 0.0
C1572 C 0.97672 0.34126 0.53426 0.0
C1573 C 0.44961 0.2161 0.30424 0.0
C1574 C 0.43638 0.19674 0.32916 0.0
C1575 C 0.43156 0.22094 0.2759 0.0
C1576 C 0.40044 0.20569 0.27141 0.0
H1577 H 0.47194 0.23089 0.30821 0.0
H1578 H 0.44014 0.23967 0.25937 0.0
S1579 S 0.35932 0.14594 0.32553 0.0
N1580 N 0.3935 0.15747 0.34491 0.0
N1581 N 0.36023 0.1655 0.29089 0.0
C1582 C 0.38965 0.18213 0.29369 0.0
C1583 C 0.40746 0.17798 0.32296 0.0
C1584 C 0.48163 0.56225 0.34287 0.0
C1585 C 0.44951 0.56106 0.32999 0.0
C1586 C 0.48715 0.5639 0.37622 0.0
C1587 C 0.46063 0.56384 0.39745 0.0
H1588 H 0.50237 0.55862 0.32733 0.0
H1589 H 0.5119 0.5612 0.38534 0.0
S1590 S 0.37271 0.56934 0.37581 0.0
N1591 N 0.3915 0.56692 0.34086 0.0
N1592 N 0.40195 0.56887 0.40366 0.0
C1593 C 0.4289 0.56716 0.38483 0.0
C1594 C 0.42329 0.56616 0.35091 0.0
C1595 C 0.22176 0.69503 0.08358 0.0
C1596 C 0.25124 0.69917 0.0664 0.0
C1597 C 0.21717 0.71113 0.11292 0.0
C1598 C 0.24169 0.73236 0.12609 0.0
H1599 H 0.20192 0.6791 0.07436 0.0
H1600 H 0.19426 0.70678 0.12544 0.0
S1601 S 0.32392 0.75092 0.09138 0.0
N1602 N 0.30564 0.72554 0.06509 0.0
N1603 N 0.29712 0.756 0.12034 0.0
C1604 C 0.2714 0.73675 0.10927 0.0
C1605 C 0.2762 0.72002 0.07947 0.0
C1606 C 0.05338 0.43104 0.85612 0.0
C1607 C 0.02936 0.44681 0.838 0.0
C1608 C 0.05086 0.42867 0.88958 0.0
C1609 C 0.02397 0.44126 0.90565 0.0
H1610 H 0.07595 0.42375 0.84509 0.0
H1611 H 0.07168 0.42024 0.90321 0.0
S1612 S 0.95045 0.4762 0.86861 0.0
N1613 N 0.97459 0.46868 0.83792 0.0
N1614 N 0.97016 0.46399 0.90107 0.0
C1615 C -0.00237 0.45244 0.8875 0.0
C1616 C 0.00023 0.45521 0.85345 0.0
C1617 C 0.22909 0.28941 0.61658 0.0
C1618 C 0.25223 0.2765 0.59574 0.0
C1619 C 0.22808 0.28018 0.64894 0.0
C1620 C 0.25027 0.25783 0.66161 0.0
H1621 H 0.21303 0.30821 0.60844 0.0
H1622 H 0.21077 0.29192 0.66444 0.0
S1623 S 0.311 0.21212 0.61531 0.0
N1624 N 0.2944 0.23647 0.5887 0.0
N1625 N 0.29271 0.2196 0.64974 0.0
C1626 C 0.27174 0.24286 0.64044 0.0
C1627 C 0.27259 0.25201 0.60742 0.0
C1628 C 0.46388 0.54616 0.14217 0.0
C1629 C 0.46637 0.51769 0.16054 0.0
C1630 C 0.48085 0.54986 0.11319 0.0
C1631 C 0.50088 0.52519 0.10139 0.0
H1632 H 0.44917 0.56599 0.15045 0.0
H1633 H 0.47832 0.5724 0.10007 0.0
S1634 S 0.51378 0.44481 0.1394 0.0
N1635 N 0.48919 0.46363 0.16414 0.0
N1636 N 0.52099 0.47064 0.1098 0.0
C1637 C 0.50313 0.49634 0.1193 0.0
C1638 C 0.48588 0.49258 0.14879 0.0
C1639 C 0.27522 0.71255 0.87272 0.0
C1640 C 0.26456 0.72696 0.90142 0.0
C1641 C 0.26521 0.72449 0.84282 0.0
C1642 C 0.24469 0.75121 0.84108 0.0
H1643 H 0.28835 0.69004 0.87326 0.0
H1644 H 0.27113 0.71106 0.82116 0.0
S1645 S 0.21681 0.80199 0.90874 0.0
N1646 N 0.23769 0.77296 0.92602 0.0
N1647 N 0.21855 0.79491 0.86954 0.0
C1648 C 0.23717 0.76807 0.86925 0.0
C1649 C 0.24742 0.75612 0.89963 0.0
C1650 C 0.0619 0.46906 0.6395 0.0
C1651 C 0.03729 0.46588 0.66271 0.0
C1652 C 0.05393 0.47534 0.60728 0.0
C1653 C 0.02106 0.47839 0.5972 0.0
H1654 H 0.08755 0.46899 0.64662 0.0
H1655 H 0.07382 0.47878 0.59042 0.0
S1656 S 0.94748 0.46663 0.64847 0.0
N1657 N 0.97888 0.46238 0.67332 0.0
N1658 N 0.96359 0.47379 0.6128 0.0
C1659 C -0.00386 0.47273 0.61995 0.0
C1660 C 0.00435 0.46654 0.6527 0.0
C1661 C 0.25132 0.27468 0.40742 0.0
C1662 C 0.27919 0.27729 0.42779 0.0
C1663 C 0.25309 0.26056 0.37659 0.0
C1664 C 0.28278 0.24881 0.36529 0.0
H1665 H 0.22841 0.28491 0.41467 0.0
H1666 H 0.23185 0.26105 0.3607 0.0
S1667 S 0.3613 0.24504 0.41032 0.0
N1668 N 0.33636 0.26287 0.43546 0.0
N1669 N 0.33939 0.23725 0.37727 0.0
C1670 C 0.31003 0.24906 0.38604 0.0
C1671 C 0.30832 0.26308 0.4174 0.0
C1672 C 0.31471 0.43927 0.49736 0.0
C1673 C 0.31073 0.421 0.52554 0.0
C1674 C 0.3385 0.46484 0.4961 0.0
C1675 C 0.3588 0.47277 0.52303 0.0
H1676 H 0.30212 0.4315 0.47529 0.0
H1677 H 0.34319 0.47618 0.47302 0.0
S1678 S 0.35088 0.43735 0.60477 0.0
N1679 N 0.32375 0.41617 0.58238 0.0
N1680 N 0.36791 0.46478 0.58057 0.0
C1681 C 0.35129 0.45779 0.55261 0.0
C1682 C 0.32743 0.43153 0.55367 0.0
C1683 C 0.8912 0.10765 0.51225 0.0
C1684 C 0.86673 0.09503 0.49106 0.0
C1685 C 0.92365 0.09834 0.50979 0.0
C1686 C 0.93326 0.07578 0.48609 0.0
H1687 H 0.88538 0.12504 0.53098 0.0
H1688 H 0.94127 0.10894 0.52701 0.0
S1689 S 0.87857 0.03537 0.42442 0.0
N1690 N 0.85421 0.05872 0.44526 0.0
N1691 N 0.91545 0.04109 0.44081 0.0
C1692 C 0.90908 0.06291 0.4646 0.0
C1693 C 0.87582 0.07256 0.46703 0.0
C1694 C 0.68003 0.10014 0.20714 0.0
C1695 C 0.67601 0.07741 0.23207 0.0
C1696 C 0.70607 0.12339 0.20795 0.0
C1697 C 0.72805 0.12509 0.23427 0.0
H1698 H 0.66163 0.10146 0.18819 0.0
H1699 H 0.70659 0.14245 0.18997 0.0
S1700 S 0.73105 0.06779 0.30266 0.0
N1701 N 0.69885 0.0547 0.28098 0.0
N1702 N 0.74696 0.09966 0.28335 0.0
C1703 C 0.72623 0.10044 0.25751 0.0
C1704 C 0.70027 0.07621 0.25623 0.0
C1705 C 0.63352 0.92479 0.97027 0.0
C1706 C 0.63497 0.89213 0.98033 0.0
C1707 C 0.60343 0.93997 0.96711 0.0
C1708 C 0.57367 0.92265 0.97275 0.0
H1709 H 0.65588 0.93898 0.96548 0.0
H1710 H 0.60344 0.96551 0.96043 0.0
S1711 S 0.56403 0.83611 -0.00179 0.0
N1712 N 0.6041 0.84271 -0.00472 0.0
N1713 N 0.54741 0.87088 0.98839 0.0
C1714 C 0.57472 0.88967 0.98193 0.0
C1715 C 0.60542 0.87449 0.98601 0.0
C1716 C 0.33324 0.42631 0.2338 0.0
C1717 C 0.35359 0.43543 0.26025 0.0
C1718 C 0.31621 0.3958 0.23297 0.0
C1719 C 0.31909 0.37386 0.25864 0.0
H1720 H 0.33243 0.44167 0.2127 0.0
H1721 H 0.30283 0.38845 0.21122 0.0
S1722 S 0.3631 0.38993 0.33633 0.0
N1723 N 0.37132 0.42278 0.31462 0.0
N1724 N 0.339 0.36585 0.31344 0.0
C1725 C 0.33659 0.38436 0.28651 0.0
C1726 C 0.354 0.41509 0.28721 0.0
C1727 C 0.2136 0.5623 0.00102 0.0
C1728 C 0.2171 0.57306 0.96911 0.0
C1729 C 0.18705 0.54154 0.00956 0.0
C1730 C 0.16354 0.5309 0.98632 0.0
H1731 H 0.22918 0.57281 0.02007 0.0
H1732 H 0.1834 0.53633 0.03485 0.0
S1733 S 0.16786 0.54491 0.89803 0.0
N1734 N 0.19927 0.5667 0.91342 0.0
N1735 N 0.15004 0.52662 0.92891 0.0
C1736 C 0.16973 0.53778 0.95364 0.0
C1737 C 0.19643 0.55919 0.94515 0.0
C1738 C 0.69213 0.9179 0.30337 0.0
C1739 C 0.67604 0.92711 0.27481 0.0
C1740 C 0.71531 0.89334 0.30323 0.0
C1741 C 0.72384 0.87758 0.27441 0.0
H1742 H 0.68638 0.92936 0.32615 0.0
H1743 H 0.72637 0.88647 0.32591 0.0
S1744 S 0.68977 0.89393 0.19272 0.0
N1745 N 0.67089 0.91917 0.21684 0.0
N1746 N 0.7146 0.8737 0.21625 0.0
C1747 C 0.70843 0.88722 0.24553 0.0
C1748 C 0.68447 0.91174 0.24582 0.0
C1749 C 0.84306 0.13138 0.80366 0.0
C1750 C 0.84495 0.11415 0.77427 0.0
C1751 C 0.82388 0.15898 0.8064 0.0
C1752 C 0.80494 0.16944 0.78022 0.0
H1753 H 0.85757 0.12431 0.82431 0.0
H1754 H 0.82455 0.17276 0.82884 0.0
S1755 S 0.7996 0.1313 0.69876 0.0
N1756 N 0.82536 0.10866 0.7189 0.0
N1757 N 0.78831 0.15978 0.72436 0.0
C1758 C 0.8054 0.15145 0.75118 0.0
C1759 C 0.8257 0.12399 0.74811 0.0
loop_
_geom_bond_atom_site_label_1
_geom_bond_atom_site_label_2
_geom_bond_distance
_geom_bond_site_symmetry_2
_ccdc_geom_bond_type
Zn0 O3 2.031 . S
Zn0 O5 2.049 . S
Zn0 O10 2.067 . S
Zn1 O2 1.962 . S
Zn1 O4 1.986 . S
Zn1 O6 1.996 1_655 S
Zn1 O9 1.943 1_655 S
O2 Zn1 1.962 . S
O2 C7 1.254 1_655 S
O3 Zn0 2.031 . S
O3 C7 1.269 . S
O4 Zn1 1.986 . S
O4 C11 1.262 . S
O5 Zn0 2.049 . S
O5 C13 1.260 . S
O6 Zn1 1.996 1_455 S
O6 C13 1.257 . S
C7 O2 1.254 1_455 S
C7 O3 1.269 . S
C8 O9 1.249 . S
C8 O10 1.270 . S
O9 Zn1 1.943 1_455 S
O9 C8 1.249 . S
O10 Zn0 2.067 . S
O10 C8 1.270 . S
C11 O4 1.262 . S
C11 O12 1.232 . S
O12 C11 1.232 . S
C13 O5 1.260 . S
C13 O6 1.257 . S
Zn14 O17 2.031 . S
Zn14 O19 2.049 . S
Zn14 O24 2.067 . S
Zn15 O16 1.962 . S
Zn15 O18 1.986 . S
Zn15 O20 1.996 . S
Zn15 O23 1.943 1_455 S
O16 Zn15 1.962 . S
O16 C21 1.254 . S
O17 Zn14 2.031 . S
O17 C21 1.269 1_655 S
O18 Zn15 1.986 . S
O18 C25 1.262 . S
O19 Zn14 2.049 . S
O19 C27 1.260 . S
O20 Zn15 1.996 . S
O20 C27 1.257 1_455 S
C21 O16 1.254 . S
C21 O17 1.269 1_455 S
C22 O23 1.249 . S
C22 O24 1.270 . S
O23 Zn15 1.943 1_655 S
O23 C22 1.249 . S
O24 Zn14 2.067 . S
O24 C22 1.270 . S
C25 O18 1.262 . S
C25 O26 1.232 . S
O26 C25 1.232 . S
C27 O19 1.260 . S
C27 O20 1.257 1_655 S
Zn28 O31 2.031 . S
Zn28 O33 2.049 . S
Zn28 O38 2.067 . S
Zn29 O30 1.962 . S
Zn29 O32 1.986 . S
Zn29 O34 1.996 . S
Zn29 O37 1.943 . S
O30 Zn29 1.962 . S
O30 C35 1.254 . S
O31 Zn28 2.031 . S
O31 C35 1.269 . S
O32 Zn29 1.986 . S
O32 C39 1.262 . S
O33 Zn28 2.049 . S
O33 C41 1.260 . S
O34 Zn29 1.996 . S
O34 C41 1.257 . S
C35 O30 1.254 . S
C35 O31 1.269 . S
C36 O37 1.249 . S
C36 O38 1.270 . S
O37 Zn29 1.943 . S
O37 C36 1.249 . S
O38 Zn28 2.067 . S
O38 C36 1.270 . S
C39 O32 1.262 . S
C39 O40 1.232 . S
O40 C39 1.232 . S
C41 O33 1.260 . S
C41 O34 1.257 . S
Zn42 O45 2.031 . S
Zn42 O47 2.049 . S
Zn42 O52 2.067 . S
Zn43 O44 1.962 . S
Zn43 O46 1.986 . S
Zn43 O48 1.996 . S
Zn43 O51 1.943 . S
O44 Zn43 1.962 . S
O44 C49 1.254 . S
O45 Zn42 2.031 . S
O45 C49 1.269 . S
O46 Zn43 1.986 . S
O46 C53 1.262 . S
O47 Zn42 2.049 . S
O47 C55 1.260 . S
O48 Zn43 1.996 . S
O48 C55 1.257 . S
C49 O44 1.254 . S
C49 O45 1.269 . S
C50 O51 1.249 . S
C50 O52 1.270 . S
O51 Zn43 1.943 . S
O51 C50 1.249 . S
O52 Zn42 2.067 . S
O52 C50 1.270 . S
C53 O46 1.262 . S
C53 O54 1.232 . S
O54 C53 1.232 . S
C55 O47 1.260 . S
C55 O48 1.257 . S
Zn56 O59 2.031 . S
Zn56 O61 2.049 . S
Zn56 O66 2.067 . S
Zn57 O58 1.962 . S
Zn57 O60 1.986 1_545 S
Zn57 O62 1.996 . S
Zn57 O65 1.943 . S
O58 Zn57 1.962 . S
O58 C63 1.254 . S
O59 Zn56 2.031 . S
O59 C63 1.269 . S
O60 Zn57 1.986 1_565 S
O60 C67 1.262 . S
O61 Zn56 2.049 . S
O61 C69 1.260 . S
O62 Zn57 1.996 . S
O62 C69 1.257 . S
C63 O58 1.254 . S
C63 O59 1.269 . S
C64 O65 1.249 . S
C64 O66 1.270 . S
O65 Zn57 1.943 . S
O65 C64 1.249 . S
O66 Zn56 2.067 . S
O66 C64 1.270 . S
C67 O60 1.262 . S
C67 O68 1.232 . S
O68 C67 1.232 . S
C69 O61 1.260 . S
C69 O62 1.257 . S
Zn70 O73 2.031 . S
Zn70 O75 2.049 . S
Zn70 O80 2.067 . S
Zn71 O72 1.962 . S
Zn71 O74 1.986 . S
Zn71 O76 1.996 . S
Zn71 O79 1.943 . S
O72 Zn71 1.962 . S
O72 C77 1.254 . S
O73 Zn70 2.031 . S
O73 C77 1.269 . S
O74 Zn71 1.986 . S
O74 C81 1.262 . S
O75 Zn70 2.049 . S
O75 C83 1.260 . S
O76 Zn71 1.996 . S
O76 C83 1.257 . S
C77 O72 1.254 . S
C77 O73 1.269 . S
C78 O79 1.249 . S
C78 O80 1.270 . S
O79 Zn71 1.943 . S
O79 C78 1.249 . S
O80 Zn70 2.067 . S
O80 C78 1.270 . S
C81 O74 1.262 . S
C81 O82 1.232 . S
O82 C81 1.232 . S
C83 O75 1.260 . S
C83 O76 1.257 . S
Zn84 O87 2.031 . S
Zn84 O89 2.049 . S
Zn84 O94 2.067 . S
Zn85 O86 1.962 . S
Zn85 O88 1.986 . S
Zn85 O90 1.996 . S
Zn85 O93 1.943 1_545 S
O86 Zn85 1.962 . S
O86 C91 1.254 1_545 S
O87 Zn84 2.031 . S
O87 C91 1.269 . S
O88 Zn85 1.986 . S
O88 C95 1.262 . S
O89 Zn84 2.049 . S
O89 C97 1.260 . S
O90 Zn85 1.996 . S
O90 C97 1.257 1_545 S
C91 O86 1.254 1_565 S
C91 O87 1.269 . S
C92 O93 1.249 . S
C92 O94 1.270 . S
O93 Zn85 1.943 1_565 S
O93 C92 1.249 . S
O94 Zn84 2.067 . S
O94 C92 1.270 . S
C95 O88 1.262 . S
C95 O96 1.232 . S
O96 C95 1.232 . S
C97 O89 1.260 . S
C97 O90 1.257 1_565 S
Zn98 O101 2.031 1_554 S
Zn98 O103 2.049 . S
Zn98 O108 2.067 . S
Zn99 O100 1.962 1_554 S
Zn99 O102 1.986 . S
Zn99 O104 1.996 . S
Zn99 O107 1.943 . S
O100 Zn99 1.962 1_556 S
O100 C105 1.254 . S
O101 Zn98 2.031 1_556 S
O101 C105 1.269 . S
O102 Zn99 1.986 . S
O102 C109 1.262 . S
O103 Zn98 2.049 . S
O103 C111 1.260 . S
O104 Zn99 1.996 . S
O104 C111 1.257 . S
C105 O100 1.254 . S
C105 O101 1.269 . S
C106 O107 1.249 . S
C106 O108 1.270 . S
O107 Zn99 1.943 . S
O107 C106 1.249 . S
O108 Zn98 2.067 . S
O108 C106 1.270 . S
C109 O102 1.262 . S
C109 O110 1.232 1_554 S
O110 C109 1.232 1_556 S
C111 O103 1.260 . S
C111 O104 1.257 . S
Zn112 O115 2.031 1_554 S
Zn112 O117 2.049 . S
Zn112 O122 2.067 . S
Zn113 O114 1.962 1_554 S
Zn113 O116 1.986 . S
Zn113 O118 1.996 . S
Zn113 O121 1.943 . S
O114 Zn113 1.962 1_556 S
O114 C119 1.254 . S
O115 Zn112 2.031 1_556 S
O115 C119 1.269 . S
O116 Zn113 1.986 . S
O116 C123 1.262 . S
O117 Zn112 2.049 . S
O117 C125 1.260 . S
O118 Zn113 1.996 . S
O118 C125 1.257 . S
C119 O114 1.254 . S
C119 O115 1.269 . S
C120 O121 1.249 . S
C120 O122 1.270 . S
O121 Zn113 1.943 . S
O121 C120 1.249 . S
O122 Zn112 2.067 . S
O122 C120 1.270 . S
C123 O116 1.262 . S
C123 O124 1.232 1_554 S
O124 C123 1.232 1_556 S
C125 O117 1.260 . S
C125 O118 1.257 . S
Zn126 O129 2.031 . S
Zn126 O131 2.049 . S
Zn126 O136 2.067 . S
Zn127 O128 1.962 . S
Zn127 O130 1.986 . S
Zn127 O132 1.996 . S
Zn127 O135 1.943 . S
O128 Zn127 1.962 . S
O128 C133 1.254 . S
O129 Zn126 2.031 . S
O129 C133 1.269 . S
O130 Zn127 1.986 . S
O130 C137 1.262 . S
O131 Zn126 2.049 . S
O131 C139 1.260 . S
O132 Zn127 1.996 . S
O132 C139 1.257 . S
C133 O128 1.254 . S
C133 O129 1.269 . S
C134 O135 1.249 . S
C134 O136 1.270 . S
O135 Zn127 1.943 . S
O135 C134 1.249 . S
O136 Zn126 2.067 . S
O136 C134 1.270 . S
C137 O130 1.262 . S
C137 O138 1.232 . S
O138 C137 1.232 . S
C139 O131 1.260 . S
C139 O132 1.257 . S
Zn140 O143 2.031 . S
Zn140 O145 2.049 . S
Zn140 O150 2.067 . S
Zn141 O142 1.962 . S
Zn141 O144 1.986 . S
Zn141 O146 1.996 . S
Zn141 O149 1.943 . S
O142 Zn141 1.962 . S
O142 C147 1.254 . S
O143 Zn140 2.031 . S
O143 C147 1.269 . S
O144 Zn141 1.986 . S
O144 C151 1.262 . S
O145 Zn140 2.049 . S
O145 C153 1.260 . S
O146 Zn141 1.996 . S
O146 C153 1.257 . S
C147 O142 1.254 . S
C147 O143 1.269 . S
C148 O149 1.249 . S
C148 O150 1.270 . S
O149 Zn141 1.943 . S
O149 C148 1.249 . S
O150 Zn140 2.067 . S
O150 C148 1.270 . S
C151 O144 1.262 . S
C151 O152 1.232 . S
O152 C151 1.232 . S
C153 O145 1.260 . S
C153 O146 1.257 . S
Zn154 O157 2.031 . S
Zn154 O159 2.049 . S
Zn154 O164 2.067 . S
Zn155 O156 1.962 . S
Zn155 O158 1.986 . S
Zn155 O160 1.996 . S
Zn155 O163 1.943 . S
O156 Zn155 1.962 . S
O156 C161 1.254 . S
O157 Zn154 2.031 . S
O157 C161 1.269 . S
O158 Zn155 1.986 . S
O158 C165 1.262 . S
O159 Zn154 2.049 . S
O159 C167 1.260 . S
O160 Zn155 1.996 . S
O160 C167 1.257 . S
C161 O156 1.254 . S
C161 O157 1.269 . S
C162 O163 1.249 . S
C162 O164 1.270 . S
O163 Zn155 1.943 . S
O163 C162 1.249 . S
O164 Zn154 2.067 . S
O164 C162 1.270 . S
C165 O158 1.262 . S
C165 O166 1.232 . S
O166 C165 1.232 . S
C167 O159 1.260 . S
C167 O160 1.257 . S
Zn168 O171 2.031 . S
Zn168 O173 2.049 . S
Zn168 O178 2.067 . S
Zn169 O170 1.962 . S
Zn169 O172 1.986 . S
Zn169 O174 1.996 . S
Zn169 O177 1.943 1_455 S
O170 Zn169 1.962 . S
O170 C175 1.254 . S
O171 Zn168 2.031 . S
O171 C175 1.269 1_655 S
O172 Zn169 1.986 . S
O172 C179 1.262 . S
O173 Zn168 2.049 . S
O173 C181 1.260 . S
O174 Zn169 1.996 . S
O174 C181 1.257 1_455 S
C175 O170 1.254 . S
C175 O171 1.269 1_455 S
C176 O177 1.249 . S
C176 O178 1.270 . S
O177 Zn169 1.943 1_655 S
O177 C176 1.249 . S
O178 Zn168 2.067 . S
O178 C176 1.270 . S
C179 O172 1.262 . S
C179 O180 1.232 . S
O180 C179 1.232 . S
C181 O173 1.260 . S
C181 O174 1.257 1_655 S
Zn182 O185 2.031 . S
Zn182 O187 2.049 . S
Zn182 O192 2.067 . S
Zn183 O184 1.962 . S
Zn183 O186 1.986 . S
Zn183 O188 1.996 1_655 S
Zn183 O191 1.943 1_655 S
O184 Zn183 1.962 . S
O184 C189 1.254 1_655 S
O185 Zn182 2.031 . S
O185 C189 1.269 . S
O186 Zn183 1.986 . S
O186 C193 1.262 . S
O187 Zn182 2.049 . S
O187 C195 1.260 . S
O188 Zn183 1.996 1_455 S
O188 C195 1.257 . S
C189 O184 1.254 1_455 S
C189 O185 1.269 . S
C190 O191 1.249 . S
C190 O192 1.270 . S
O191 Zn183 1.943 1_455 S
O191 C190 1.249 . S
O192 Zn182 2.067 . S
O192 C190 1.270 . S
C193 O186 1.262 . S
C193 O194 1.232 . S
O194 C193 1.232 . S
C195 O187 1.260 . S
C195 O188 1.257 . S
Zn196 O199 2.031 . S
Zn196 O201 2.049 . S
Zn196 O206 2.067 . S
Zn197 O198 1.962 . S
Zn197 O200 1.986 . S
Zn197 O202 1.996 . S
Zn197 O205 1.943 . S
O198 Zn197 1.962 . S
O198 C203 1.254 . S
O199 Zn196 2.031 . S
O199 C203 1.269 . S
O200 Zn197 1.986 . S
O200 C207 1.262 . S
O201 Zn196 2.049 . S
O201 C209 1.260 . S
O202 Zn197 1.996 . S
O202 C209 1.257 . S
C203 O198 1.254 . S
C203 O199 1.269 . S
C204 O205 1.249 . S
C204 O206 1.270 . S
O205 Zn197 1.943 . S
O205 C204 1.249 . S
O206 Zn196 2.067 . S
O206 C204 1.270 . S
C207 O200 1.262 . S
C207 O208 1.232 . S
O208 C207 1.232 . S
C209 O201 1.260 . S
C209 O202 1.257 . S
Zn210 O213 2.031 . S
Zn210 O215 2.049 . S
Zn210 O220 2.067 . S
Zn211 O212 1.962 . S
Zn211 O214 1.986 . S
Zn211 O216 1.996 . S
Zn211 O219 1.943 . S
O212 Zn211 1.962 . S
O212 C217 1.254 . S
O213 Zn210 2.031 . S
O213 C217 1.269 . S
O214 Zn211 1.986 . S
O214 C221 1.262 . S
O215 Zn210 2.049 . S
O215 C223 1.260 . S
O216 Zn211 1.996 . S
O216 C223 1.257 . S
C217 O212 1.254 . S
C217 O213 1.269 . S
C218 O219 1.249 . S
C218 O220 1.270 . S
O219 Zn211 1.943 . S
O219 C218 1.249 . S
O220 Zn210 2.067 . S
O220 C218 1.270 . S
C221 O214 1.262 . S
C221 O222 1.232 . S
O222 C221 1.232 . S
C223 O215 1.260 . S
C223 O216 1.257 . S
Zn224 O227 2.031 . S
Zn224 O229 2.049 . S
Zn224 O234 2.067 . S
Zn225 O226 1.962 . S
Zn225 O228 1.986 . S
Zn225 O230 1.996 . S
Zn225 O233 1.943 1_545 S
O226 Zn225 1.962 . S
O226 C231 1.254 . S
O227 Zn224 2.031 . S
O227 C231 1.269 1_565 S
O228 Zn225 1.986 . S
O228 C235 1.262 . S
O229 Zn224 2.049 . S
O229 C237 1.260 1_565 S
O230 Zn225 1.996 . S
O230 C237 1.257 . S
C231 O226 1.254 . S
C231 O227 1.269 1_545 S
C232 O233 1.249 . S
C232 O234 1.270 . S
O233 Zn225 1.943 1_565 S
O233 C232 1.249 . S
O234 Zn224 2.067 . S
O234 C232 1.270 . S
C235 O228 1.262 . S
C235 O236 1.232 . S
O236 C235 1.232 . S
C237 O229 1.260 1_545 S
C237 O230 1.257 . S
Zn238 O241 2.031 . S
Zn238 O243 2.049 . S
Zn238 O248 2.067 . S
Zn239 O240 1.962 . S
Zn239 O242 1.986 . S
Zn239 O244 1.996 . S
Zn239 O247 1.943 . S
O240 Zn239 1.962 . S
O240 C245 1.254 . S
O241 Zn238 2.031 . S
O241 C245 1.269 . S
O242 Zn239 1.986 . S
O242 C249 1.262 . S
O243 Zn238 2.049 . S
O243 C251 1.260 . S
O244 Zn239 1.996 . S
O244 C251 1.257 . S
C245 O240 1.254 . S
C245 O241 1.269 . S
C246 O247 1.249 . S
C246 O248 1.270 . S
O247 Zn239 1.943 . S
O247 C246 1.249 . S
O248 Zn238 2.067 . S
O248 C246 1.270 . S
C249 O242 1.262 . S
C249 O250 1.232 . S
O250 C249 1.232 . S
C251 O243 1.260 . S
C251 O244 1.257 . S
Zn252 O255 2.031 . S
Zn252 O257 2.049 . S
Zn252 O262 2.067 . S
Zn253 O254 1.962 . S
Zn253 O256 1.986 . S
Zn253 O258 1.996 . S
Zn253 O261 1.943 1_565 S
O254 Zn253 1.962 . S
O254 C259 1.254 1_565 S
O255 Zn252 2.031 . S
O255 C259 1.269 . S
O256 Zn253 1.986 . S
O256 C263 1.262 . S
O257 Zn252 2.049 . S
O257 C265 1.260 . S
O258 Zn253 1.996 . S
O258 C265 1.257 1_565 S
C259 O254 1.254 1_545 S
C259 O255 1.269 . S
C260 O261 1.249 . S
C260 O262 1.270 . S
O261 Zn253 1.943 1_545 S
O261 C260 1.249 . S
O262 Zn252 2.067 . S
O262 C260 1.270 . S
C263 O256 1.262 . S
C263 O264 1.232 . S
O264 C263 1.232 . S
C265 O257 1.260 . S
C265 O258 1.257 1_545 S
Zn266 O269 2.031 1_554 S
Zn266 O271 2.049 . S
Zn266 O276 2.067 . S
Zn267 O268 1.962 1_554 S
Zn267 O270 1.986 . S
Zn267 O272 1.996 . S
Zn267 O275 1.943 . S
O268 Zn267 1.962 1_556 S
O268 C273 1.254 . S
O269 Zn266 2.031 1_556 S
O269 C273 1.269 . S
O270 Zn267 1.986 . S
O270 C277 1.262 . S
O271 Zn266 2.049 . S
O271 C279 1.260 . S
O272 Zn267 1.996 . S
O272 C279 1.257 . S
C273 O268 1.254 . S
C273 O269 1.269 . S
C274 O275 1.249 . S
C274 O276 1.270 . S
O275 Zn267 1.943 . S
O275 C274 1.249 . S
O276 Zn266 2.067 . S
O276 C274 1.270 . S
C277 O270 1.262 . S
C277 O278 1.232 1_554 S
O278 C277 1.232 1_556 S
C279 O271 1.260 . S
C279 O272 1.257 . S
Zn280 O283 2.031 1_554 S
Zn280 O285 2.049 . S
Zn280 O290 2.067 . S
Zn281 O282 1.962 . S
Zn281 O284 1.986 1_556 S
Zn281 O286 1.996 1_556 S
Zn281 O289 1.943 1_556 S
O282 Zn281 1.962 . S
O282 C287 1.254 . S
O283 Zn280 2.031 1_556 S
O283 C287 1.269 . S
O284 Zn281 1.986 1_554 S
O284 C291 1.260 1_554 S
O285 Zn280 2.049 . S
O285 C293 1.260 . S
O286 Zn281 1.996 1_554 S
O286 C293 1.257 . S
C287 O282 1.254 . S
C287 O283 1.269 . S
C288 O289 1.249 . S
C288 O290 1.270 . S
O289 Zn281 1.943 1_554 S
O289 C288 1.249 . S
O290 Zn280 2.067 . S
O290 C288 1.270 . S
C291 O284 1.260 1_556 S
C291 O292 1.234 . S
O292 C291 1.234 . S
C293 O285 1.260 . S
C293 O286 1.257 . S
Zn294 O297 2.031 . S
Zn294 O299 2.049 . S
Zn294 O304 2.067 . S
Zn295 O296 1.962 . S
Zn295 O298 1.986 . S
Zn295 O300 1.996 . S
Zn295 O303 1.943 . S
O296 Zn295 1.962 . S
O296 C301 1.254 . S
O297 Zn294 2.031 . S
O297 C301 1.269 . S
O298 Zn295 1.986 . S
O298 C305 1.262 . S
O299 Zn294 2.049 . S
O299 C307 1.260 . S
O300 Zn295 1.996 . S
O300 C307 1.257 . S
C301 O296 1.254 . S
C301 O297 1.269 . S
C302 O303 1.249 . S
C302 O304 1.270 . S
O303 Zn295 1.943 . S
O303 C302 1.249 . S
O304 Zn294 2.067 . S
O304 C302 1.270 . S
C305 O298 1.262 . S
C305 O306 1.232 . S
O306 C305 1.232 . S
C307 O299 1.260 . S
C307 O300 1.257 . S
Zn308 O311 2.031 . S
Zn308 O313 2.049 . S
Zn308 O318 2.067 . S
Zn309 O310 1.962 . S
Zn309 O312 1.986 . S
Zn309 O314 1.996 . S
Zn309 O317 1.943 . S
O310 Zn309 1.962 . S
O310 C315 1.254 . S
O311 Zn308 2.031 . S
O311 C315 1.269 . S
O312 Zn309 1.986 . S
O312 C319 1.262 . S
O313 Zn308 2.049 . S
O313 C321 1.260 . S
O314 Zn309 1.996 . S
O314 C321 1.257 . S
C315 O310 1.254 . S
C315 O311 1.269 . S
C316 O317 1.249 . S
C316 O318 1.270 . S
O317 Zn309 1.943 . S
O317 C316 1.249 . S
O318 Zn308 2.067 . S
O318 C316 1.270 . S
C319 O312 1.262 . S
C319 O320 1.232 . S
O320 C319 1.232 . S
C321 O313 1.260 . S
C321 O314 1.257 . S
Zn322 O325 2.031 . S
Zn322 O327 2.049 . S
Zn322 O332 2.067 . S
Zn323 O324 1.962 . S
Zn323 O326 1.986 . S
Zn323 O328 1.996 . S
Zn323 O331 1.943 . S
O324 Zn323 1.962 . S
O324 C329 1.254 . S
O325 Zn322 2.031 . S
O325 C329 1.269 . S
O326 Zn323 1.986 . S
O326 C333 1.262 . S
O327 Zn322 2.049 . S
O327 C335 1.260 . S
O328 Zn323 1.996 . S
O328 C335 1.257 . S
C329 O324 1.254 . S
C329 O325 1.269 . S
C330 O331 1.249 . S
C330 O332 1.270 . S
O331 Zn323 1.943 . S
O331 C330 1.249 . S
O332 Zn322 2.067 . S
O332 C330 1.270 . S
C333 O326 1.262 . S
C333 O334 1.232 . S
O334 C333 1.232 . S
C335 O327 1.260 . S
C335 O328 1.257 . S
O336 Zn337 1.953 1_554 S
O336 C352 1.225 1_455 S
Zn337 O336 1.953 1_556 S
Zn337 O338 1.949 1_556 S
Zn337 O344 1.919 . S
Zn337 O349 1.924 1_455 S
O338 Zn337 1.949 1_554 S
O338 Zn339 1.923 1_545 S
O338 Zn340 1.950 1_455 S
O338 Zn341 1.945 1_444 S
Zn339 O338 1.923 1_565 S
Zn339 O342 1.933 . S
Zn339 O345 1.941 1_565 S
Zn339 O346 1.965 . S
Zn340 O338 1.950 1_655 S
Zn340 O347 1.938 . S
Zn340 O348 1.906 1_545 S
Zn340 O358 1.953 . S
Zn341 O338 1.945 1_666 S
Zn341 O343 1.932 . S
Zn341 O350 1.978 . S
Zn341 O351 1.910 1_565 S
O342 Zn339 1.933 . S
O342 C353 1.226 1_554 S
O343 Zn341 1.932 . S
O343 C353 1.307 1_655 S
O344 Zn337 1.919 . S
O344 C355 1.253 . S
O345 Zn339 1.941 1_545 S
O345 C355 1.283 1_554 S
O346 Zn339 1.965 . S
O346 C354 1.303 . S
O347 Zn340 1.938 . S
O347 C354 1.247 1_645 S
O348 Zn340 1.906 1_565 S
O348 C356 1.304 . S
O349 Zn337 1.924 1_655 S
O349 C357 1.311 . S
O350 Zn341 1.978 . S
O350 C356 1.267 1_556 S
O351 Zn341 1.910 1_545 S
O351 C357 1.231 . S
C352 O336 1.225 1_655 S
C352 O358 1.298 . S
C353 O342 1.226 1_556 S
C353 O343 1.307 1_455 S
C354 O346 1.303 . S
C354 O347 1.247 1_465 S
C355 O344 1.253 . S
C355 O345 1.283 1_556 S
C356 O348 1.304 . S
C356 O350 1.267 1_554 S
C357 O349 1.311 . S
C357 O351 1.231 . S
O358 Zn340 1.953 . S
O358 C352 1.298 . S
O359 Zn360 1.953 . S
O359 C375 1.225 . S
Zn360 O359 1.953 . S
Zn360 O361 1.949 . S
Zn360 O367 1.919 . S
Zn360 O372 1.924 . S
O361 Zn360 1.949 . S
O361 Zn362 1.923 . S
O361 Zn363 1.950 . S
O361 Zn364 1.945 . S
Zn362 O361 1.923 . S
Zn362 O365 1.933 . S
Zn362 O368 1.941 . S
Zn362 O369 1.965 . S
Zn363 O361 1.950 . S
Zn363 O370 1.938 . S
Zn363 O371 1.906 . S
Zn363 O381 1.953 . S
Zn364 O361 1.945 . S
Zn364 O366 1.932 . S
Zn364 O373 1.977 . S
Zn364 O374 1.910 . S
O365 Zn362 1.933 . S
O365 C376 1.226 . S
O366 Zn364 1.932 . S
O366 C376 1.307 . S
O367 Zn360 1.919 . S
O367 C378 1.253 . S
O368 Zn362 1.941 . S
O368 C378 1.283 . S
O369 Zn362 1.965 . S
O369 C377 1.303 . S
O370 Zn363 1.938 . S
O370 C377 1.247 . S
O371 Zn363 1.906 . S
O371 C379 1.304 . S
O372 Zn360 1.924 . S
O372 C380 1.311 . S
O373 Zn364 1.977 . S
O373 C379 1.272 . S
O374 Zn364 1.910 . S
O374 C380 1.231 . S
C375 O359 1.225 . S
C375 O381 1.298 . S
C376 O365 1.226 . S
C376 O366 1.307 . S
C377 O369 1.303 . S
C377 O370 1.247 . S
C378 O367 1.253 . S
C378 O368 1.283 . S
C379 O371 1.304 . S
C379 O373 1.272 . S
C380 O372 1.311 . S
C380 O374 1.231 . S
O381 Zn363 1.953 . S
O381 C375 1.298 . S
O382 Zn383 1.953 . S
O382 C398 1.225 . S
Zn383 O382 1.953 . S
Zn383 O384 1.949 1_565 S
Zn383 O390 1.919 . S
Zn383 O395 1.924 . S
O384 Zn383 1.949 1_545 S
O384 Zn385 1.923 . S
O384 Zn386 1.950 . S
O384 Zn387 1.945 . S
Zn385 O384 1.923 . S
Zn385 O388 1.933 . S
Zn385 O391 1.941 . S
Zn385 O392 1.965 . S
Zn386 O384 1.950 . S
Zn386 O393 1.938 . S
Zn386 O394 1.906 . S
Zn386 O404 1.953 1_545 S
Zn387 O384 1.945 . S
Zn387 O389 1.932 . S
Zn387 O396 1.977 . S
Zn387 O397 1.910 . S
O388 Zn385 1.933 . S
O388 C399 1.226 . S
O389 Zn387 1.932 . S
O389 C399 1.307 . S
O390 Zn383 1.919 . S
O390 C401 1.253 . S
O391 Zn385 1.941 . S
O391 C401 1.283 1_545 S
O392 Zn385 1.965 . S
O392 C400 1.303 . S
O393 Zn386 1.938 . S
O393 C400 1.247 . S
O394 Zn386 1.906 . S
O394 C402 1.304 . S
O395 Zn383 1.924 . S
O395 C403 1.311 . S
O396 Zn387 1.977 . S
O396 C402 1.272 . S
O397 Zn387 1.910 . S
O397 C403 1.231 1_545 S
C398 O382 1.225 . S
C398 O404 1.298 . S
C399 O388 1.226 . S
C399 O389 1.307 . S
C400 O392 1.303 . S
C400 O393 1.247 . S
C401 O390 1.253 . S
C401 O391 1.283 1_565 S
C402 O394 1.304 . S
C402 O396 1.272 . S
C403 O395 1.311 . S
C403 O397 1.231 1_565 S
O404 Zn386 1.953 1_565 S
O404 C398 1.298 . S
O405 Zn406 1.953 . S
O405 C421 1.225 . S
Zn406 O405 1.953 . S
Zn406 O407 1.949 . S
Zn406 O413 1.919 . S
Zn406 O418 1.924 . S
O407 Zn406 1.949 . S
O407 Zn408 1.923 . S
O407 Zn409 1.950 . S
O407 Zn410 1.945 . S
Zn408 O407 1.923 . S
Zn408 O411 1.933 . S
Zn408 O414 1.941 . S
Zn408 O415 1.965 . S
Zn409 O407 1.950 . S
Zn409 O416 1.938 . S
Zn409 O417 1.906 . S
Zn409 O427 1.953 . S
Zn410 O407 1.945 . S
Zn410 O412 1.932 . S
Zn410 O419 1.977 . S
Zn410 O420 1.910 . S
O411 Zn408 1.933 . S
O411 C422 1.226 . S
O412 Zn410 1.932 . S
O412 C422 1.307 . S
O413 Zn406 1.919 . S
O413 C424 1.253 . S
O414 Zn408 1.941 . S
O414 C424 1.283 . S
O415 Zn408 1.965 . S
O415 C423 1.303 . S
O416 Zn409 1.938 . S
O416 C423 1.247 . S
O417 Zn409 1.906 . S
O417 C425 1.304 . S
O418 Zn406 1.924 . S
O418 C426 1.311 . S
O419 Zn410 1.977 . S
O419 C425 1.272 . S
O420 Zn410 1.910 . S
O420 C426 1.231 . S
C421 O405 1.225 . S
C421 O427 1.298 . S
C422 O411 1.226 . S
C422 O412 1.307 . S
C423 O415 1.303 . S
C423 O416 1.247 . S
C424 O413 1.253 . S
C424 O414 1.283 . S
C425 O417 1.304 . S
C425 O419 1.272 . S
C426 O418 1.311 . S
C426 O420 1.231 . S
O427 Zn409 1.953 . S
O427 C421 1.298 . S
O428 Zn429 1.953 1_445 S
O428 C444 1.225 . S
Zn429 O428 1.953 1_665 S
Zn429 O430 1.949 1_665 S
Zn429 O436 1.919 . S
Zn429 O441 1.924 1_565 S
O430 Zn429 1.949 1_445 S
O430 Zn431 1.923 1_545 S
O430 Zn432 1.950 . S
O430 Zn433 1.945 1_455 S
Zn431 O430 1.923 1_565 S
Zn431 O434 1.933 . S
Zn431 O437 1.941 . S
Zn431 O438 1.965 . S
Zn432 O430 1.950 . S
Zn432 O439 1.938 . S
Zn432 O440 1.906 . S
Zn432 O450 1.953 . S
Zn433 O430 1.945 1_655 S
Zn433 O435 1.932 . S
Zn433 O442 1.977 . S
Zn433 O443 1.910 . S
O434 Zn431 1.933 . S
O434 C445 1.226 1_455 S
O435 Zn433 1.932 . S
O435 C445 1.307 1_545 S
O436 Zn429 1.919 . S
O436 C447 1.253 . S
O437 Zn431 1.941 . S
O437 C447 1.283 1_455 S
O438 Zn431 1.965 . S
O438 C446 1.303 . S
O439 Zn432 1.938 . S
O439 C446 1.247 1_545 S
O440 Zn432 1.906 . S
O440 C448 1.304 . S
O441 Zn429 1.924 1_545 S
O441 C449 1.311 . S
O442 Zn433 1.977 . S
O442 C448 1.272 1_655 S
O443 Zn433 1.910 . S
O443 C449 1.231 . S
C444 O428 1.225 . S
C444 O450 1.298 . S
C445 O434 1.226 1_655 S
C445 O435 1.307 1_565 S
C446 O438 1.303 . S
C446 O439 1.247 1_565 S
C447 O436 1.253 . S
C447 O437 1.283 1_655 S
C448 O440 1.304 . S
C448 O442 1.272 1_455 S
C449 O441 1.311 . S
C449 O443 1.231 . S
O450 Zn432 1.953 . S
O450 C444 1.298 . S
O451 Zn452 1.953 . S
O451 C467 1.225 . S
Zn452 O451 1.953 . S
Zn452 O453 1.949 . S
Zn452 O459 1.919 . S
Zn452 O464 1.924 . S
O453 Zn452 1.949 . S
O453 Zn454 1.923 . S
O453 Zn455 1.950 . S
O453 Zn456 1.945 . S
Zn454 O453 1.923 . S
Zn454 O457 1.933 . S
Zn454 O460 1.941 . S
Zn454 O461 1.965 . S
Zn455 O453 1.950 . S
Zn455 O462 1.938 . S
Zn455 O463 1.906 . S
Zn455 O473 1.953 . S
Zn456 O453 1.945 . S
Zn456 O458 1.932 . S
Zn456 O465 1.977 . S
Zn456 O466 1.910 . S
O457 Zn454 1.933 . S
O457 C468 1.226 . S
O458 Zn456 1.932 . S
O458 C468 1.307 . S
O459 Zn452 1.919 . S
O459 C470 1.253 . S
O460 Zn454 1.941 . S
O460 C470 1.283 . S
O461 Zn454 1.965 . S
O461 C469 1.303 . S
O462 Zn455 1.938 . S
O462 C469 1.247 . S
O463 Zn455 1.906 . S
O463 C471 1.304 . S
O464 Zn452 1.924 . S
O464 C472 1.311 . S
O465 Zn456 1.977 . S
O465 C471 1.272 . S
O466 Zn456 1.910 . S
O466 C472 1.231 . S
C467 O451 1.225 . S
C467 O473 1.298 . S
C468 O457 1.226 . S
C468 O458 1.307 . S
C469 O461 1.303 . S
C469 O462 1.247 . S
C470 O459 1.253 . S
C470 O460 1.283 . S
C471 O463 1.304 . S
C471 O465 1.272 . S
C472 O464 1.311 . S
C472 O466 1.231 . S
O473 Zn455 1.953 . S
O473 C467 1.298 . S
O474 Zn475 1.953 . S
O474 C490 1.225 . S
Zn475 O474 1.953 . S
Zn475 O476 1.949 . S
Zn475 O482 1.919 1_545 S
Zn475 O487 1.924 . S
O476 Zn475 1.949 . S
O476 Zn477 1.923 1_544 S
O476 Zn478 1.950 . S
O476 Zn479 1.945 1_554 S
Zn477 O476 1.923 1_566 S
Zn477 O480 1.933 . S
Zn477 O483 1.941 . S
Zn477 O484 1.965 1_556 S
Zn478 O476 1.950 . S
Zn478 O485 1.938 1_545 S
Zn478 O486 1.906 . S
Zn478 O496 1.953 . S
Zn479 O476 1.945 1_556 S
Zn479 O481 1.932 . S
Zn479 O488 1.977 1_556 S
Zn479 O489 1.910 . S
O480 Zn477 1.933 . S
O480 C491 1.226 . S
O481 Zn479 1.932 . S
O481 C491 1.307 1_545 S
O482 Zn475 1.919 1_565 S
O482 C493 1.253 1_554 S
O483 Zn477 1.941 . S
O483 C493 1.283 . S
O484 Zn477 1.965 1_554 S
O484 C492 1.303 . S
O485 Zn478 1.938 1_565 S
O485 C492 1.247 . S
O486 Zn478 1.906 . S
O486 C494 1.304 . S
O487 Zn475 1.924 . S
O487 C495 1.311 1_554 S
O488 Zn479 1.977 1_554 S
O488 C494 1.272 . S
O489 Zn479 1.910 . S
O489 C495 1.231 . S
C490 O474 1.225 . S
C490 O496 1.298 . S
C491 O480 1.226 . S
C491 O481 1.307 1_565 S
C492 O484 1.303 . S
C492 O485 1.247 . S
C493 O482 1.253 1_556 S
C493 O483 1.283 . S
C494 O486 1.304 . S
C494 O488 1.272 . S
C495 O487 1.311 1_556 S
C495 O489 1.231 . S
O496 Zn478 1.953 . S
O496 C490 1.298 . S
O497 Zn498 1.953 . S
O497 C513 1.225 . S
Zn498 O497 1.953 . S
Zn498 O499 1.949 . S
Zn498 O505 1.919 . S
Zn498 O510 1.924 . S
O499 Zn498 1.949 . S
O499 Zn500 1.923 . S
O499 Zn501 1.950 . S
O499 Zn502 1.945 . S
Zn500 O499 1.923 . S
Zn500 O503 1.933 . S
Zn500 O506 1.941 . S
Zn500 O507 1.965 . S
Zn501 O499 1.950 . S
Zn501 O508 1.938 . S
Zn501 O509 1.906 . S
Zn501 O519 1.953 . S
Zn502 O499 1.945 . S
Zn502 O504 1.932 . S
Zn502 O511 1.977 . S
Zn502 O512 1.910 . S
O503 Zn500 1.933 . S
O503 C514 1.226 . S
O504 Zn502 1.932 . S
O504 C514 1.307 . S
O505 Zn498 1.919 . S
O505 C516 1.253 . S
O506 Zn500 1.941 . S
O506 C516 1.283 . S
O507 Zn500 1.965 . S
O507 C515 1.303 . S
O508 Zn501 1.938 . S
O508 C515 1.247 . S
O509 Zn501 1.906 . S
O509 C517 1.304 . S
O510 Zn498 1.924 . S
O510 C518 1.311 . S
O511 Zn502 1.977 . S
O511 C517 1.272 . S
O512 Zn502 1.910 . S
O512 C518 1.231 . S
C513 O497 1.225 . S
C513 O519 1.298 . S
C514 O503 1.226 . S
C514 O504 1.307 . S
C515 O507 1.303 . S
C515 O508 1.247 . S
C516 O505 1.253 . S
C516 O506 1.283 . S
C517 O509 1.304 . S
C517 O511 1.272 . S
C518 O510 1.311 . S
C518 O512 1.231 . S
O519 Zn501 1.953 . S
O519 C513 1.298 . S
O520 Zn521 1.953 . S
O520 C536 1.225 . S
Zn521 O520 1.953 . S
Zn521 O522 1.949 1_556 S
Zn521 O528 1.919 . S
Zn521 O533 1.924 . S
O522 Zn521 1.949 1_554 S
O522 Zn523 1.923 . S
O522 Zn524 1.950 . S
O522 Zn525 1.945 . S
Zn523 O522 1.923 . S
Zn523 O526 1.933 . S
Zn523 O529 1.941 . S
Zn523 O530 1.965 . S
Zn524 O522 1.950 . S
Zn524 O531 1.938 . S
Zn524 O532 1.906 . S
Zn524 O542 1.953 1_554 S
Zn525 O522 1.945 . S
Zn525 O527 1.932 . S
Zn525 O534 1.977 . S
Zn525 O535 1.910 . S
O526 Zn523 1.933 . S
O526 C537 1.226 . S
O527 Zn525 1.932 . S
O527 C537 1.307 . S
O528 Zn521 1.919 . S
O528 C539 1.253 . S
O529 Zn523 1.941 . S
O529 C539 1.283 1_554 S
O530 Zn523 1.965 . S
O530 C538 1.303 . S
O531 Zn524 1.938 . S
O531 C538 1.247 . S
O532 Zn524 1.906 . S
O532 C540 1.304 . S
O533 Zn521 1.924 . S
O533 C541 1.311 . S
O534 Zn525 1.977 . S
O534 C540 1.272 . S
O535 Zn525 1.910 . S
O535 C541 1.231 1_554 S
C536 O520 1.225 . S
C536 O542 1.298 . S
C537 O526 1.226 . S
C537 O527 1.307 . S
C538 O530 1.303 . S
C538 O531 1.247 . S
C539 O528 1.253 . S
C539 O529 1.283 1_556 S
C540 O532 1.304 . S
C540 O534 1.272 . S
C541 O533 1.311 . S
C541 O535 1.231 1_556 S
O542 Zn524 1.953 1_556 S
O542 C536 1.298 . S
O543 Zn544 1.953 . S
O543 C559 1.225 . S
Zn544 O543 1.953 . S
Zn544 O545 1.949 . S
Zn544 O551 1.919 . S
Zn544 O556 1.924 . S
O545 Zn544 1.949 . S
O545 Zn546 1.923 . S
O545 Zn547 1.950 . S
O545 Zn548 1.945 . S
Zn546 O545 1.923 . S
Zn546 O549 1.933 . S
Zn546 O552 1.941 . S
Zn546 O553 1.965 . S
Zn547 O545 1.950 . S
Zn547 O554 1.938 . S
Zn547 O555 1.906 . S
Zn547 O565 1.953 . S
Zn548 O545 1.945 . S
Zn548 O550 1.932 . S
Zn548 O557 1.977 . S
Zn548 O558 1.910 . S
O549 Zn546 1.933 . S
O549 C560 1.226 . S
O550 Zn548 1.932 . S
O550 C560 1.307 . S
O551 Zn544 1.919 . S
O551 C562 1.253 . S
O552 Zn546 1.941 . S
O552 C562 1.283 . S
O553 Zn546 1.965 . S
O553 C561 1.303 . S
O554 Zn547 1.938 . S
O554 C561 1.247 . S
O555 Zn547 1.906 . S
O555 C563 1.304 . S
O556 Zn544 1.924 . S
O556 C564 1.311 . S
O557 Zn548 1.977 . S
O557 C563 1.272 . S
O558 Zn548 1.910 . S
O558 C564 1.231 . S
C559 O543 1.225 . S
C559 O565 1.298 . S
C560 O549 1.226 . S
C560 O550 1.307 . S
C561 O553 1.303 . S
C561 O554 1.247 . S
C562 O551 1.253 . S
C562 O552 1.283 . S
C563 O555 1.304 . S
C563 O557 1.272 . S
C564 O556 1.311 . S
C564 O558 1.231 . S
O565 Zn547 1.953 . S
O565 C559 1.298 . S
O566 Zn567 1.953 . S
O566 C582 1.225 . S
Zn567 O566 1.953 . S
Zn567 O568 1.955 . S
Zn567 O574 1.919 . S
Zn567 O579 1.924 . S
O568 Zn567 1.955 . S
O568 Zn569 1.922 . S
O568 Zn570 1.946 1_455 S
O568 Zn571 1.941 1_455 S
Zn569 O568 1.922 . S
Zn569 O572 1.923 1_455 S
Zn569 O575 1.965 . S
Zn569 O576 1.957 1_455 S
Zn570 O568 1.946 1_655 S
Zn570 O577 1.938 . S
Zn570 O578 1.906 . S
Zn570 O588 1.953 1_655 S
Zn571 O568 1.941 1_655 S
Zn571 O573 1.932 . S
Zn571 O580 1.977 . S
Zn571 O581 1.910 1_655 S
O572 Zn569 1.923 1_655 S
O572 C583 1.226 . S
O573 Zn571 1.932 . S
O573 C583 1.307 . S
O574 Zn567 1.919 . S
O574 C585 1.253 . S
O575 Zn569 1.965 . S
O575 C585 1.283 . S
O576 Zn569 1.957 1_655 S
O576 C584 1.303 . S
O577 Zn570 1.938 . S
O577 C584 1.247 . S
O578 Zn570 1.906 . S
O578 C586 1.304 . S
O579 Zn567 1.924 . S
O579 C587 1.311 . S
O580 Zn571 1.977 . S
O580 C586 1.272 . S
O581 Zn571 1.910 1_455 S
O581 C587 1.231 . S
C582 O566 1.225 . S
C582 O588 1.298 . S
C583 O572 1.226 . S
C583 O573 1.307 . S
C584 O576 1.303 . S
C584 O577 1.247 . S
C585 O574 1.253 . S
C585 O575 1.283 . S
C586 O578 1.304 . S
C586 O580 1.272 . S
C587 O579 1.311 . S
C587 O581 1.231 . S
O588 Zn570 1.953 1_455 S
O588 C582 1.298 . S
O589 Zn590 1.953 . S
O589 C605 1.225 . S
Zn590 O589 1.953 . S
Zn590 O591 1.949 . S
Zn590 O597 1.919 . S
Zn590 O602 1.924 . S
O591 Zn590 1.949 . S
O591 Zn592 1.923 . S
O591 Zn593 1.950 . S
O591 Zn594 1.945 . S
Zn592 O591 1.923 . S
Zn592 O595 1.933 . S
Zn592 O598 1.941 . S
Zn592 O599 1.965 . S
Zn593 O591 1.950 . S
Zn593 O600 1.938 . S
Zn593 O601 1.906 . S
Zn593 O611 1.953 . S
Zn594 O591 1.945 . S
Zn594 O596 1.932 . S
Zn594 O603 1.977 . S
Zn594 O604 1.910 . S
O595 Zn592 1.933 . S
O595 C606 1.226 . S
O596 Zn594 1.932 . S
O596 C606 1.307 . S
O597 Zn590 1.919 . S
O597 C608 1.253 . S
O598 Zn592 1.941 . S
O598 C608 1.283 . S
O599 Zn592 1.965 . S
O599 C607 1.303 . S
O600 Zn593 1.938 . S
O600 C607 1.247 . S
O601 Zn593 1.906 . S
O601 C609 1.304 . S
O602 Zn590 1.924 . S
O602 C610 1.311 . S
O603 Zn594 1.977 . S
O603 C609 1.272 . S
O604 Zn594 1.910 . S
O604 C610 1.231 . S
C605 O589 1.225 . S
C605 O611 1.298 . S
C606 O595 1.226 . S
C606 O596 1.307 . S
C607 O599 1.303 . S
C607 O600 1.247 . S
C608 O597 1.253 . S
C608 O598 1.283 . S
C609 O601 1.304 . S
C609 O603 1.272 . S
C610 O602 1.311 . S
C610 O604 1.231 . S
O611 Zn593 1.953 . S
O611 C605 1.298 . S
O612 Zn613 1.953 . S
O612 C628 1.225 . S
Zn613 O612 1.953 . S
Zn613 O614 1.949 . S
Zn613 O620 1.919 . S
Zn613 O625 1.924 . S
O614 Zn613 1.949 . S
O614 Zn615 1.923 . S
O614 Zn616 1.950 . S
O614 Zn617 1.945 . S
Zn615 O614 1.923 . S
Zn615 O618 1.933 . S
Zn615 O621 1.941 . S
Zn615 O622 1.965 . S
Zn616 O614 1.950 . S
Zn616 O623 1.938 . S
Zn616 O624 1.906 . S
Zn616 O634 1.953 . S
Zn617 O614 1.945 . S
Zn617 O619 1.932 . S
Zn617 O626 1.977 . S
Zn617 O627 1.910 . S
O618 Zn615 1.933 . S
O618 C629 1.226 . S
O619 Zn617 1.932 . S
O619 C629 1.307 . S
O620 Zn613 1.919 . S
O620 C631 1.253 . S
O621 Zn615 1.941 . S
O621 C631 1.283 . S
O622 Zn615 1.965 . S
O622 C630 1.303 . S
O623 Zn616 1.938 . S
O623 C630 1.247 . S
O624 Zn616 1.906 . S
O624 C632 1.304 . S
O625 Zn613 1.924 . S
O625 C633 1.311 . S
O626 Zn617 1.977 . S
O626 C632 1.272 . S
O627 Zn617 1.910 . S
O627 C633 1.231 . S
C628 O612 1.225 . S
C628 O634 1.298 . S
C629 O618 1.226 . S
C629 O619 1.307 . S
C630 O622 1.303 . S
C630 O623 1.247 . S
C631 O620 1.253 . S
C631 O621 1.283 . S
C632 O624 1.304 . S
C632 O626 1.272 . S
C633 O625 1.311 . S
C633 O627 1.231 . S
O634 Zn616 1.953 . S
O634 C628 1.298 . S
O635 Zn636 1.953 . S
O635 C651 1.225 . S
Zn636 O635 1.953 . S
Zn636 O637 1.949 . S
Zn636 O643 1.919 . S
Zn636 O648 1.924 . S
O637 Zn636 1.949 . S
O637 Zn638 1.923 . S
O637 Zn639 1.950 . S
O637 Zn640 1.945 . S
Zn638 O637 1.923 . S
Zn638 O641 1.933 . S
Zn638 O644 1.941 . S
Zn638 O645 1.965 . S
Zn639 O637 1.950 . S
Zn639 O646 1.938 . S
Zn639 O647 1.906 . S
Zn639 O657 1.953 . S
Zn640 O637 1.945 . S
Zn640 O642 1.932 . S
Zn640 O649 1.977 . S
Zn640 O650 1.910 . S
O641 Zn638 1.933 . S
O641 C652 1.226 . S
O642 Zn640 1.932 . S
O642 C652 1.307 . S
O643 Zn636 1.919 . S
O643 C654 1.253 . S
O644 Zn638 1.941 . S
O644 C654 1.283 . S
O645 Zn638 1.965 . S
O645 C653 1.303 . S
O646 Zn639 1.938 . S
O646 C653 1.247 . S
O647 Zn639 1.906 . S
O647 C655 1.304 . S
O648 Zn636 1.924 . S
O648 C656 1.311 . S
O649 Zn640 1.977 . S
O649 C655 1.272 . S
O650 Zn640 1.910 . S
O650 C656 1.231 . S
C651 O635 1.225 . S
C651 O657 1.298 . S
C652 O641 1.226 . S
C652 O642 1.307 . S
C653 O645 1.303 . S
C653 O646 1.247 . S
C654 O643 1.253 . S
C654 O644 1.283 . S
C655 O647 1.304 . S
C655 O649 1.272 . S
C656 O648 1.311 . S
C656 O650 1.231 . S
O657 Zn639 1.953 . S
O657 C651 1.298 . S
O658 Zn659 1.953 . S
O658 C674 1.225 . S
Zn659 O658 1.953 . S
Zn659 O660 1.949 . S
Zn659 O666 1.919 . S
Zn659 O671 1.924 . S
O660 Zn659 1.949 . S
O660 Zn661 1.923 . S
O660 Zn662 1.950 . S
O660 Zn663 1.945 . S
Zn661 O660 1.923 . S
Zn661 O664 1.933 . S
Zn661 O667 1.941 . S
Zn661 O668 1.965 . S
Zn662 O660 1.950 . S
Zn662 O669 1.938 . S
Zn662 O670 1.906 . S
Zn662 O680 1.953 . S
Zn663 O660 1.945 . S
Zn663 O665 1.932 . S
Zn663 O672 1.977 . S
Zn663 O673 1.910 . S
O664 Zn661 1.933 . S
O664 C675 1.226 . S
O665 Zn663 1.932 . S
O665 C675 1.307 . S
O666 Zn659 1.919 . S
O666 C677 1.253 . S
O667 Zn661 1.941 . S
O667 C677 1.283 . S
O668 Zn661 1.965 . S
O668 C676 1.303 . S
O669 Zn662 1.938 . S
O669 C676 1.247 . S
O670 Zn662 1.906 . S
O670 C678 1.304 . S
O671 Zn659 1.924 . S
O671 C679 1.311 . S
O672 Zn663 1.977 . S
O672 C678 1.272 . S
O673 Zn663 1.910 . S
O673 C679 1.231 . S
C674 O658 1.225 . S
C674 O680 1.298 . S
C675 O664 1.226 . S
C675 O665 1.307 . S
C676 O668 1.303 . S
C676 O669 1.247 . S
C677 O666 1.253 . S
C677 O667 1.283 . S
C678 O670 1.304 . S
C678 O672 1.272 . S
C679 O671 1.311 . S
C679 O673 1.231 . S
O680 Zn662 1.953 . S
O680 C674 1.298 . S
O681 Zn682 1.953 1_454 S
O681 C697 1.225 . S
Zn682 O681 1.953 1_656 S
Zn682 O683 1.949 1_656 S
Zn682 O689 1.919 . S
Zn682 O694 1.924 1_655 S
O683 Zn682 1.949 1_454 S
O683 Zn684 1.923 1_455 S
O683 Zn685 1.950 . S
O683 Zn686 1.945 1_554 S
Zn684 O683 1.923 1_655 S
Zn684 O687 1.933 . S
Zn684 O690 1.941 . S
Zn684 O691 1.965 . S
Zn685 O683 1.950 . S
Zn685 O692 1.938 . S
Zn685 O693 1.906 . S
Zn685 O703 1.953 . S
Zn686 O683 1.945 1_556 S
Zn686 O688 1.932 . S
Zn686 O695 1.977 1_556 S
Zn686 O696 1.910 . S
O687 Zn684 1.933 . S
O687 C698 1.226 1_554 S
O688 Zn686 1.932 . S
O688 C698 1.307 1_455 S
O689 Zn682 1.919 . S
O689 C700 1.256 . S
O690 Zn684 1.941 . S
O690 C700 1.276 1_554 S
O691 Zn684 1.965 . S
O691 C699 1.303 . S
O692 Zn685 1.938 . S
O692 C699 1.247 1_455 S
O693 Zn685 1.906 . S
O693 C701 1.304 . S
O694 Zn682 1.924 1_455 S
O694 C702 1.311 . S
O695 Zn686 1.977 1_554 S
O695 C701 1.272 . S
O696 Zn686 1.910 . S
O696 C702 1.231 . S
C697 O681 1.225 . S
C697 O703 1.298 . S
C698 O687 1.226 1_556 S
C698 O688 1.307 1_655 S
C699 O691 1.303 . S
C699 O692 1.247 1_655 S
C700 O689 1.256 . S
C700 O690 1.276 1_556 S
C701 O693 1.304 . S
C701 O695 1.272 . S
C702 O694 1.311 . S
C702 O696 1.231 . S
O703 Zn685 1.953 . S
O703 C697 1.298 . S
C704 C705 1.369 1_655 S
C704 C706 1.419 . S
C704 H708 0.930 . S
C705 C704 1.369 1_455 S
C705 C714 1.429 . S
C706 C704 1.419 . S
C706 C707 1.363 . S
C706 H709 0.929 . S
C707 C706 1.363 . S
C707 C713 1.428 1_655 S
H708 C704 0.930 . S
H709 C706 0.929 . S
S710 N711 1.613 . S
S710 N712 1.610 . S
N711 S710 1.613 . S
N711 C714 1.350 . S
N712 S710 1.610 . S
N712 C713 1.351 . S
C713 C707 1.428 1_455 S
C713 N712 1.351 . S
C713 C714 1.434 . S
C714 C705 1.429 . S
C714 N711 1.350 . S
C714 C713 1.434 . S
C715 C716 1.369 . S
C715 C717 1.419 . S
C715 H719 0.930 . S
C716 C715 1.369 . S
C716 C725 1.429 . S
C717 C715 1.419 . S
C717 C718 1.363 . S
C717 H720 0.929 . S
C718 C717 1.363 . S
C718 C724 1.428 . S
H719 C715 0.930 . S
H720 C717 0.929 . S
S721 N722 1.613 . S
S721 N723 1.610 . S
N722 S721 1.613 . S
N722 C725 1.350 . S
N723 S721 1.610 . S
N723 C724 1.351 . S
C724 C718 1.428 . S
C724 N723 1.351 . S
C724 C725 1.434 . S
C725 C716 1.429 . S
C725 N722 1.350 . S
C725 C724 1.434 . S
C726 C727 1.369 . S
C726 C728 1.419 . S
C726 H730 0.930 . S
C727 C726 1.369 . S
C727 C736 1.429 . S
C728 C726 1.419 . S
C728 C729 1.363 . S
C728 H731 0.929 . S
C729 C728 1.363 . S
C729 C735 1.428 . S
H730 C726 0.930 . S
H731 C728 0.929 . S
S732 N733 1.613 . S
S732 N734 1.610 . S
N733 S732 1.613 . S
N733 C736 1.350 . S
N734 S732 1.610 . S
N734 C735 1.351 . S
C735 C729 1.428 . S
C735 N734 1.351 . S
C735 C736 1.434 . S
C736 C727 1.429 . S
C736 N733 1.350 . S
C736 C735 1.434 . S
C737 C738 1.369 . S
C737 C739 1.419 . S
C737 H741 0.930 . S
C738 C737 1.369 . S
C738 C747 1.429 . S
C739 C737 1.419 . S
C739 C740 1.363 . S
C739 H742 0.929 . S
C740 C739 1.363 . S
C740 C746 1.428 . S
H741 C737 0.930 . S
H742 C739 0.929 . S
S743 N744 1.613 . S
S743 N745 1.610 . S
N744 S743 1.613 . S
N744 C747 1.350 . S
N745 S743 1.610 . S
N745 C746 1.351 . S
C746 C740 1.428 . S
C746 N745 1.351 . S
C746 C747 1.434 . S
C747 C738 1.429 . S
C747 N744 1.350 . S
C747 C746 1.434 . S
C748 C749 1.393 . S
C748 C750 1.419 . S
C748 H752 0.930 . S
C749 C748 1.393 . S
C749 C758 1.412 1_655 S
C750 C748 1.419 . S
C750 C751 1.363 . S
C750 H753 0.929 . S
C751 C750 1.363 . S
C751 C757 1.428 1_655 S
H752 C748 0.930 . S
H753 C750 0.929 . S
S754 N755 1.613 . S
S754 N756 1.610 . S
N755 S754 1.613 . S
N755 C758 1.350 . S
N756 S754 1.610 . S
N756 C757 1.351 . S
C757 C751 1.428 1_455 S
C757 N756 1.351 . S
C757 C758 1.434 . S
C758 C749 1.412 1_455 S
C758 N755 1.350 . S
C758 C757 1.434 . S
C759 C760 1.369 . S
C759 C761 1.419 . S
C759 H763 0.930 . S
C760 C759 1.369 . S
C760 C769 1.429 . S
C761 C759 1.419 . S
C761 C762 1.363 . S
C761 H764 0.929 . S
C762 C761 1.363 . S
C762 C768 1.428 . S
H763 C759 0.930 . S
H764 C761 0.929 . S
S765 N766 1.613 . S
S765 N767 1.610 . S
N766 S765 1.613 . S
N766 C769 1.350 . S
N767 S765 1.610 . S
N767 C768 1.351 . S
C768 C762 1.428 . S
C768 N767 1.351 . S
C768 C769 1.434 . S
C769 C760 1.429 . S
C769 N766 1.350 . S
C769 C768 1.434 . S
C770 C771 1.369 . S
C770 C772 1.419 . S
C770 H774 0.930 . S
C771 C770 1.369 . S
C771 C780 1.429 . S
C772 C770 1.419 . S
C772 C773 1.363 . S
C772 H775 0.929 . S
C773 C772 1.363 . S
C773 C779 1.417 1_556 S
H774 C770 0.930 . S
H775 C772 0.929 . S
S776 N777 1.613 1_554 S
S776 N778 1.610 . S
N777 S776 1.613 1_556 S
N777 C780 1.350 . S
N778 S776 1.610 . S
N778 C779 1.379 . S
C779 C773 1.417 1_554 S
C779 N778 1.379 . S
C779 C780 1.418 1_554 S
C780 C771 1.429 . S
C780 N777 1.350 . S
C780 C779 1.418 1_556 S
C781 C782 1.369 . S
C781 C783 1.419 . S
C781 H785 0.930 . S
C782 C781 1.369 . S
C782 C791 1.429 . S
C783 C781 1.419 . S
C783 C784 1.363 . S
C783 H786 0.929 . S
C784 C783 1.363 . S
C784 C790 1.428 . S
H785 C781 0.930 . S
H786 C783 0.929 . S
S787 N788 1.613 . S
S787 N789 1.610 . S
N788 S787 1.613 . S
N788 C791 1.350 . S
N789 S787 1.610 . S
N789 C790 1.351 . S
C790 C784 1.428 . S
C790 N789 1.351 . S
C790 C791 1.434 . S
C791 C782 1.429 . S
C791 N788 1.350 . S
C791 C790 1.434 . S
C792 C793 1.381 . S
C792 C794 1.415 1_545 S
C792 H796 0.922 1_545 S
C793 C792 1.381 . S
C793 C802 1.429 . S
C794 C792 1.415 1_565 S
C794 C795 1.363 1_565 S
C794 H797 0.929 . S
C795 C794 1.363 1_545 S
C795 C801 1.428 . S
H796 C792 0.922 1_565 S
H797 C794 0.929 . S
S798 N799 1.613 . S
S798 N800 1.610 . S
N799 S798 1.613 . S
N799 C802 1.350 . S
N800 S798 1.610 . S
N800 C801 1.351 . S
C801 C795 1.428 . S
C801 N800 1.351 . S
C801 C802 1.434 . S
C802 C793 1.429 . S
C802 N799 1.350 . S
C802 C801 1.434 . S
C803 C804 1.369 . S
C803 C805 1.419 . S
C803 H807 0.930 . S
C804 C803 1.369 . S
C804 C813 1.429 . S
C805 C803 1.419 . S
C805 C806 1.363 . S
C805 H808 0.929 . S
C806 C805 1.363 . S
C806 C812 1.428 . S
H807 C803 0.930 . S
H808 C805 0.929 . S
S809 N810 1.613 . S
S809 N811 1.610 . S
N810 S809 1.613 . S
N810 C813 1.350 . S
N811 S809 1.610 . S
N811 C812 1.351 . S
C812 C806 1.428 . S
C812 N811 1.351 . S
C812 C813 1.434 . S
C813 C804 1.429 . S
C813 N810 1.350 . S
C813 C812 1.434 . S
C814 C815 1.369 . S
C814 C816 1.419 . S
C814 H818 0.930 . S
C815 C814 1.369 . S
C815 C824 1.429 1_545 S
C816 C814 1.419 . S
C816 C817 1.363 . S
C816 H819 0.929 . S
C817 C816 1.363 . S
C817 C823 1.428 1_545 S
H818 C814 0.930 . S
H819 C816 0.929 . S
S820 N821 1.613 . S
S820 N822 1.610 . S
N821 S820 1.613 . S
N821 C824 1.350 . S
N822 S820 1.610 . S
N822 C823 1.351 . S
C823 C817 1.428 1_565 S
C823 N822 1.351 . S
C823 C824 1.434 . S
C824 C815 1.429 1_565 S
C824 N821 1.350 . S
C824 C823 1.434 . S
C825 C826 1.369 . S
C825 C827 1.419 . S
C825 H829 0.930 . S
C826 C825 1.369 . S
C826 C835 1.429 . S
C827 C825 1.419 . S
C827 C828 1.363 . S
C827 H830 0.929 . S
C828 C827 1.363 . S
C828 C834 1.428 . S
H829 C825 0.930 . S
H830 C827 0.929 . S
S831 N832 1.613 . S
S831 N833 1.610 . S
N832 S831 1.613 . S
N832 C835 1.350 . S
N833 S831 1.610 . S
N833 C834 1.351 . S
C834 C828 1.428 . S
C834 N833 1.351 . S
C834 C835 1.434 . S
C835 C826 1.429 . S
C835 N832 1.350 . S
C835 C834 1.434 . S
C836 C837 1.369 . S
C836 C838 1.419 . S
C836 H840 0.930 . S
C837 C836 1.369 . S
C837 C846 1.429 . S
C838 C836 1.419 . S
C838 C839 1.363 . S
C838 H841 0.929 . S
C839 C838 1.363 . S
C839 C845 1.428 . S
H840 C836 0.930 . S
H841 C838 0.929 . S
S842 N843 1.613 1_565 S
S842 N844 1.610 1_565 S
N843 S842 1.613 1_545 S
N843 C846 1.350 . S
N844 S842 1.610 1_545 S
N844 C845 1.351 . S
C845 C839 1.428 . S
C845 N844 1.351 . S
C845 C846 1.434 . S
C846 C837 1.429 . S
C846 N843 1.350 . S
C846 C845 1.434 . S
C847 C848 1.369 . S
C847 C849 1.419 . S
C847 H851 0.930 . S
C848 C847 1.369 . S
C848 C857 1.429 . S
C849 C847 1.419 . S
C849 C850 1.363 . S
C849 H852 0.929 . S
C850 C849 1.363 . S
C850 C856 1.428 . S
H851 C847 0.930 . S
H852 C849 0.929 . S
S853 N854 1.613 . S
S853 N855 1.610 . S
N854 S853 1.613 . S
N854 C857 1.350 . S
N855 S853 1.610 . S
N855 C856 1.351 . S
C856 C850 1.428 . S
C856 N855 1.351 . S
C856 C857 1.434 . S
C857 C848 1.429 . S
C857 N854 1.350 . S
C857 C856 1.434 . S
C858 C859 1.369 . S
C858 C860 1.419 . S
C858 H862 0.930 . S
C859 C858 1.369 . S
C859 C868 1.429 . S
C860 C858 1.419 . S
C860 C861 1.363 . S
C860 H863 0.929 . S
C861 C860 1.363 . S
C861 C867 1.428 . S
H862 C858 0.930 . S
H863 C860 0.929 . S
S864 N865 1.613 . S
S864 N866 1.610 1_545 S
N865 S864 1.613 . S
N865 C868 1.350 1_545 S
N866 S864 1.610 1_565 S
N866 C867 1.351 . S
C867 C861 1.428 . S
C867 N866 1.351 . S
C867 C868 1.434 . S
C868 C859 1.429 . S
C868 N865 1.350 1_565 S
C868 C867 1.434 . S
C869 C870 1.369 . S
C869 C871 1.419 . S
C869 H873 0.930 . S
C870 C869 1.369 . S
C870 C879 1.429 . S
C871 C869 1.419 . S
C871 C872 1.363 . S
C871 H874 0.929 . S
C872 C871 1.363 . S
C872 C878 1.428 . S
H873 C869 0.930 . S
H874 C871 0.929 . S
S875 N876 1.613 . S
S875 N877 1.610 . S
N876 S875 1.613 . S
N876 C879 1.350 . S
N877 S875 1.610 . S
N877 C878 1.351 . S
C878 C872 1.428 . S
C878 N877 1.351 . S
C878 C879 1.434 . S
C879 C870 1.429 . S
C879 N876 1.350 . S
C879 C878 1.434 . S
C880 C881 1.369 1_556 S
C880 C882 1.419 . S
C880 H884 0.930 . S
C881 C880 1.369 1_554 S
C881 C890 1.429 . S
C882 C880 1.419 . S
C882 C883 1.363 . S
C882 H885 0.929 . S
C883 C882 1.363 . S
C883 C889 1.428 1_556 S
H884 C880 0.930 . S
H885 C882 0.929 . S
S886 N887 1.613 . S
S886 N888 1.610 . S
N887 S886 1.613 . S
N887 C890 1.350 . S
N888 S886 1.610 . S
N888 C889 1.351 . S
C889 C883 1.428 1_554 S
C889 N888 1.351 . S
C889 C890 1.434 . S
C890 C881 1.429 . S
C890 N887 1.350 . S
C890 C889 1.434 . S
C891 C892 1.369 . S
C891 C893 1.419 . S
C891 H895 0.930 . S
C892 C891 1.369 . S
C892 C901 1.429 1_554 S
C893 C891 1.419 . S
C893 C894 1.363 . S
C893 H896 0.929 . S
C894 C893 1.363 . S
C894 C900 1.428 1_554 S
H895 C891 0.930 . S
H896 C893 0.929 . S
S897 N898 1.613 . S
S897 N899 1.610 . S
N898 S897 1.613 . S
N898 C901 1.350 . S
N899 S897 1.610 . S
N899 C900 1.351 . S
C900 C894 1.428 1_556 S
C900 N899 1.351 . S
C900 C901 1.434 . S
C901 C892 1.429 1_556 S
C901 N898 1.350 . S
C901 C900 1.434 . S
C902 C903 1.369 . S
C902 C904 1.419 . S
C902 H906 0.930 . S
C903 C902 1.369 . S
C903 C912 1.429 . S
C904 C902 1.419 . S
C904 C905 1.363 . S
C904 H907 0.929 . S
C905 C904 1.363 . S
C905 C911 1.428 . S
H906 C902 0.930 . S
H907 C904 0.929 . S
S908 N909 1.613 . S
S908 N910 1.610 . S
N909 S908 1.613 . S
N909 C912 1.350 . S
N910 S908 1.610 . S
N910 C911 1.351 . S
C911 C905 1.428 . S
C911 N910 1.351 . S
C911 C912 1.434 . S
C912 C903 1.429 . S
C912 N909 1.350 . S
C912 C911 1.434 . S
C913 C914 1.369 . S
C913 C915 1.419 . S
C913 H917 0.930 . S
C914 C913 1.369 . S
C914 C923 1.429 . S
C915 C913 1.419 . S
C915 C916 1.363 . S
C915 H918 0.929 . S
C916 C915 1.363 . S
C916 C922 1.428 . S
H917 C913 0.930 . S
H918 C915 0.929 . S
S919 N920 1.613 . S
S919 N921 1.610 . S
N920 S919 1.613 . S
N920 C923 1.350 . S
N921 S919 1.610 . S
N921 C922 1.351 . S
C922 C916 1.428 . S
C922 N921 1.351 . S
C922 C923 1.434 . S
C923 C914 1.429 . S
C923 N920 1.350 . S
C923 C922 1.434 . S
C924 C925 1.369 . S
C924 C926 1.419 . S
C924 H928 0.930 . S
C925 C924 1.369 . S
C925 C934 1.429 . S
C926 C924 1.419 . S
C926 C927 1.363 . S
C926 H929 0.929 . S
C927 C926 1.363 . S
C927 C933 1.428 . S
H928 C924 0.930 . S
H929 C926 0.929 . S
S930 N931 1.613 . S
S930 N932 1.610 . S
N931 S930 1.613 . S
N931 C934 1.350 . S
N932 S930 1.610 . S
N932 C933 1.351 . S
C933 C927 1.428 . S
C933 N932 1.351 . S
C933 C934 1.434 . S
C934 C925 1.429 . S
C934 N931 1.350 . S
C934 C933 1.434 . S
C935 C936 1.369 . S
C935 C937 1.419 . S
C935 H939 0.930 . S
C936 C935 1.369 . S
C936 C945 1.429 . S
C937 C935 1.419 . S
C937 C938 1.363 . S
C937 H940 0.929 1_565 S
C938 C937 1.363 . S
C938 C944 1.428 . S
H939 C935 0.930 . S
H940 C937 0.929 1_545 S
S941 N942 1.613 . S
S941 N943 1.610 . S
N942 S941 1.613 . S
N942 C945 1.350 . S
N943 S941 1.610 . S
N943 C944 1.351 . S
C944 C938 1.428 . S
C944 N943 1.351 . S
C944 C945 1.434 . S
C945 C936 1.429 . S
C945 N942 1.350 . S
C945 C944 1.434 . S
C946 C947 1.369 . S
C946 C948 1.419 . S
C946 H950 0.930 . S
C947 C946 1.369 . S
C947 C956 1.429 . S
C948 C946 1.419 . S
C948 C949 1.363 . S
C948 H951 0.929 . S
C949 C948 1.363 . S
C949 C955 1.428 . S
H950 C946 0.930 . S
H951 C948 0.929 . S
S952 N953 1.613 . S
S952 N954 1.610 . S
N953 S952 1.613 . S
N953 C956 1.350 . S
N954 S952 1.610 . S
N954 C955 1.351 . S
C955 C949 1.428 . S
C955 N954 1.351 . S
C955 C956 1.434 . S
C956 C947 1.429 . S
C956 N953 1.350 . S
C956 C955 1.434 . S
C957 C958 1.369 . S
C957 C959 1.419 . S
C957 H961 0.930 . S
C958 C957 1.369 . S
C958 C967 1.429 . S
C959 C957 1.419 . S
C959 C960 1.363 . S
C959 H962 0.929 . S
C960 C959 1.363 . S
C960 C966 1.428 . S
H961 C957 0.930 . S
H962 C959 0.929 . S
S963 N964 1.613 . S
S963 N965 1.610 . S
N964 S963 1.613 . S
N964 C967 1.350 . S
N965 S963 1.610 . S
N965 C966 1.351 . S
C966 C960 1.428 . S
C966 N965 1.351 . S
C966 C967 1.434 . S
C967 C958 1.429 . S
C967 N964 1.350 . S
C967 C966 1.434 . S
C968 C969 1.369 . S
C968 C970 1.419 . S
C968 H972 0.930 . S
C969 C968 1.369 . S
C969 C978 1.429 1_455 S
C970 C968 1.419 . S
C970 C971 1.363 . S
C970 H973 0.929 . S
C971 C970 1.363 . S
C971 C977 1.428 1_455 S
H972 C968 0.930 . S
H973 C970 0.929 . S
S974 N975 1.613 . S
S974 N976 1.610 . S
N975 S974 1.613 . S
N975 C978 1.350 . S
N976 S974 1.610 . S
N976 C977 1.351 . S
C977 C971 1.428 1_655 S
C977 N976 1.351 . S
C977 C978 1.434 . S
C978 C969 1.429 1_655 S
C978 N975 1.350 . S
C978 C977 1.434 . S
C979 C980 1.369 . S
C979 C981 1.419 . S
C979 H983 0.930 . S
C980 C979 1.369 . S
C980 C989 1.429 . S
C981 C979 1.419 . S
C981 C982 1.363 . S
C981 H984 0.929 . S
C982 C981 1.363 . S
C982 C988 1.428 . S
H983 C979 0.930 . S
H984 C981 0.929 . S
S985 N986 1.613 . S
S985 N987 1.610 . S
N986 S985 1.613 . S
N986 C989 1.350 . S
N987 S985 1.610 . S
N987 C988 1.351 . S
C988 C982 1.428 . S
C988 N987 1.351 . S
C988 C989 1.434 . S
C989 C980 1.429 . S
C989 N986 1.350 . S
C989 C988 1.434 . S
C990 C991 1.369 . S
C990 C992 1.419 . S
C990 H994 0.930 . S
C991 C990 1.369 . S
C991 C1000 1.429 . S
C992 C990 1.419 . S
C992 C993 1.363 . S
C992 H995 0.929 . S
C993 C992 1.363 . S
C993 C999 1.428 . S
H994 C990 0.930 . S
H995 C992 0.929 . S
S996 N997 1.613 . S
S996 N998 1.610 . S
N997 S996 1.613 . S
N997 C1000 1.350 . S
N998 S996 1.610 . S
N998 C999 1.351 . S
C999 C993 1.428 . S
C999 N998 1.351 . S
C999 C1000 1.434 . S
C1000 C991 1.429 . S
C1000 N997 1.350 . S
C1000 C999 1.434 . S
C1001 C1002 1.369 . S
C1001 C1003 1.419 . S
C1001 H1005 0.930 . S
C1002 C1001 1.369 . S
C1002 C1011 1.429 . S
C1003 C1001 1.419 . S
C1003 C1004 1.363 . S
C1003 H1006 0.929 . S
C1004 C1003 1.363 . S
C1004 C1010 1.428 . S
H1005 C1001 0.930 . S
H1006 C1003 0.929 . S
S1007 N1008 1.613 . S
S1007 N1009 1.610 . S
N1008 S1007 1.613 . S
N1008 C1011 1.350 . S
N1009 S1007 1.610 . S
N1009 C1010 1.351 . S
C1010 C1004 1.428 . S
C1010 N1009 1.351 . S
C1010 C1011 1.434 . S
C1011 C1002 1.429 . S
C1011 N1008 1.350 . S
C1011 C1010 1.434 . S
C1012 C1013 1.369 . S
C1012 C1014 1.419 . S
C1012 H1016 0.930 . S
C1013 C1012 1.369 . S
C1013 C1022 1.429 . S
C1014 C1012 1.419 . S
C1014 C1015 1.363 . S
C1014 H1017 0.929 . S
C1015 C1014 1.363 . S
C1015 C1021 1.428 . S
H1016 C1012 0.930 . S
H1017 C1014 0.929 . S
S1018 N1019 1.613 . S
S1018 N1020 1.610 . S
N1019 S1018 1.613 . S
N1019 C1022 1.350 . S
N1020 S1018 1.610 . S
N1020 C1021 1.351 . S
C1021 C1015 1.428 . S
C1021 N1020 1.351 . S
C1021 C1022 1.434 . S
C1022 C1013 1.429 . S
C1022 N1019 1.350 . S
C1022 C1021 1.434 . S
C1023 C1024 1.369 . S
C1023 C1025 1.419 . S
C1023 H1027 0.930 . S
C1024 C1023 1.369 . S
C1024 C1033 1.429 . S
C1025 C1023 1.419 . S
C1025 C1026 1.363 . S
C1025 H1028 0.929 . S
C1026 C1025 1.363 . S
C1026 C1032 1.428 . S
H1027 C1023 0.930 . S
H1028 C1025 0.929 . S
S1029 N1030 1.613 . S
S1029 N1031 1.610 . S
N1030 S1029 1.613 . S
N1030 C1033 1.350 . S
N1031 S1029 1.610 . S
N1031 C1032 1.351 . S
C1032 C1026 1.428 . S
C1032 N1031 1.351 . S
C1032 C1033 1.434 . S
C1033 C1024 1.429 . S
C1033 N1030 1.350 . S
C1033 C1032 1.434 . S
C1034 C1035 1.369 . S
C1034 C1036 1.419 . S
C1034 H1038 0.930 . S
C1035 C1034 1.369 . S
C1035 C1044 1.429 . S
C1036 C1034 1.419 . S
C1036 C1037 1.363 . S
C1036 H1039 0.929 . S
C1037 C1036 1.363 . S
C1037 C1043 1.428 . S
H1038 C1034 0.930 . S
H1039 C1036 0.929 . S
S1040 N1041 1.611 . S
S1040 N1042 1.609 . S
N1041 S1040 1.611 . S
N1041 C1044 1.350 . S
N1042 S1040 1.609 . S
N1042 C1043 1.351 . S
C1043 C1037 1.428 . S
C1043 N1042 1.351 . S
C1043 C1044 1.434 . S
C1044 C1035 1.429 . S
C1044 N1041 1.350 . S
C1044 C1043 1.434 . S
C1045 C1046 1.369 . S
C1045 C1047 1.419 . S
C1045 H1049 0.930 . S
C1046 C1045 1.369 . S
C1046 C1055 1.429 . S
C1047 C1045 1.419 . S
C1047 C1048 1.363 . S
C1047 H1050 0.929 . S
C1048 C1047 1.363 . S
C1048 C1054 1.428 . S
H1049 C1045 0.930 . S
H1050 C1047 0.929 . S
S1051 N1052 1.613 . S
S1051 N1053 1.610 . S
N1052 S1051 1.613 . S
N1052 C1055 1.350 . S
N1053 S1051 1.610 . S
N1053 C1054 1.351 . S
C1054 C1048 1.428 . S
C1054 N1053 1.351 . S
C1054 C1055 1.434 . S
C1055 C1046 1.429 . S
C1055 N1052 1.350 . S
C1055 C1054 1.434 . S
C1056 C1057 1.369 . S
C1056 C1058 1.419 . S
C1056 H1060 0.930 . S
C1057 C1056 1.369 . S
C1057 C1066 1.429 1_545 S
C1058 C1056 1.419 . S
C1058 C1059 1.363 . S
C1058 H1061 0.929 . S
C1059 C1058 1.363 . S
C1059 C1065 1.428 . S
H1060 C1056 0.930 . S
H1061 C1058 0.929 . S
S1062 N1063 1.613 . S
S1062 N1064 1.610 . S
N1063 S1062 1.613 . S
N1063 C1066 1.350 . S
N1064 S1062 1.610 . S
N1064 C1065 1.351 1_565 S
C1065 C1059 1.428 . S
C1065 N1064 1.351 1_545 S
C1065 C1066 1.434 1_545 S
C1066 C1057 1.429 1_565 S
C1066 N1063 1.350 . S
C1066 C1065 1.434 1_565 S
C1067 C1068 1.369 . S
C1067 C1069 1.419 . S
C1067 H1071 0.930 . S
C1068 C1067 1.369 . S
C1068 C1077 1.429 . S
C1069 C1067 1.419 . S
C1069 C1070 1.363 . S
C1069 H1072 0.929 . S
C1070 C1069 1.363 . S
C1070 C1076 1.428 . S
H1071 C1067 0.930 . S
H1072 C1069 0.929 . S
S1073 N1074 1.613 . S
S1073 N1075 1.610 . S
N1074 S1073 1.613 . S
N1074 C1077 1.350 . S
N1075 S1073 1.610 . S
N1075 C1076 1.351 . S
C1076 C1070 1.428 . S
C1076 N1075 1.351 . S
C1076 C1077 1.434 . S
C1077 C1068 1.429 . S
C1077 N1074 1.350 . S
C1077 C1076 1.434 . S
C1078 C1079 1.369 1_565 S
C1078 C1080 1.419 . S
C1078 H1082 0.930 . S
C1079 C1078 1.369 1_545 S
C1079 C1088 1.429 . S
C1080 C1078 1.419 . S
C1080 C1081 1.363 . S
C1080 H1083 0.929 . S
C1081 C1080 1.363 . S
C1081 C1087 1.428 1_565 S
H1082 C1078 0.930 . S
H1083 C1080 0.929 . S
S1084 N1085 1.613 . S
S1084 N1086 1.610 . S
N1085 S1084 1.613 . S
N1085 C1088 1.350 . S
N1086 S1084 1.610 . S
N1086 C1087 1.351 . S
C1087 C1081 1.428 1_545 S
C1087 N1086 1.351 . S
C1087 C1088 1.434 . S
C1088 C1079 1.429 . S
C1088 N1085 1.350 . S
C1088 C1087 1.434 . S
C1089 C1090 1.369 . S
C1089 C1091 1.419 . S
C1089 H1093 0.930 . S
C1090 C1089 1.369 . S
C1090 C1099 1.429 . S
C1091 C1089 1.419 . S
C1091 C1092 1.363 . S
C1091 H1094 0.929 . S
C1092 C1091 1.363 . S
C1092 C1098 1.428 . S
H1093 C1089 0.930 . S
H1094 C1091 0.929 . S
S1095 N1096 1.613 . S
S1095 N1097 1.610 . S
N1096 S1095 1.613 . S
N1096 C1099 1.350 . S
N1097 S1095 1.610 . S
N1097 C1098 1.351 . S
C1098 C1092 1.428 . S
C1098 N1097 1.351 . S
C1098 C1099 1.434 . S
C1099 C1090 1.429 . S
C1099 N1096 1.350 . S
C1099 C1098 1.434 . S
C1100 C1101 1.369 . S
C1100 C1102 1.419 . S
C1100 H1104 0.930 . S
C1101 C1100 1.369 . S
C1101 C1110 1.429 1_545 S
C1102 C1100 1.419 . S
C1102 C1103 1.363 1_545 S
C1102 H1105 0.929 . S
C1103 C1102 1.363 1_565 S
C1103 C1109 1.428 . S
H1104 C1100 0.930 . S
H1105 C1102 0.929 . S
S1106 N1107 1.613 . S
S1106 N1108 1.610 . S
N1107 S1106 1.613 . S
N1107 C1110 1.350 . S
N1108 S1106 1.610 . S
N1108 C1109 1.351 . S
C1109 C1103 1.428 . S
C1109 N1108 1.351 . S
C1109 C1110 1.434 . S
C1110 C1101 1.429 1_565 S
C1110 N1107 1.350 . S
C1110 C1109 1.434 . S
C1111 C1112 1.369 . S
C1111 C1113 1.419 . S
C1111 H1115 0.930 . S
C1112 C1111 1.369 . S
C1112 C1121 1.429 . S
C1113 C1111 1.419 . S
C1113 C1114 1.363 . S
C1113 H1116 0.929 . S
C1114 C1113 1.363 . S
C1114 C1120 1.428 . S
H1115 C1111 0.930 . S
H1116 C1113 0.929 . S
S1117 N1118 1.613 . S
S1117 N1119 1.610 . S
N1118 S1117 1.613 . S
N1118 C1121 1.350 . S
N1119 S1117 1.610 . S
N1119 C1120 1.351 . S
C1120 C1114 1.428 . S
C1120 N1119 1.351 . S
C1120 C1121 1.434 . S
C1121 C1112 1.429 . S
C1121 N1118 1.350 . S
C1121 C1120 1.434 . S
C1122 C1123 1.369 . S
C1122 C1124 1.419 . S
C1122 H1126 0.930 . S
C1123 C1122 1.369 . S
C1123 C1132 1.429 . S
C1124 C1122 1.419 . S
C1124 C1125 1.363 . S
C1124 H1127 0.929 . S
C1125 C1124 1.363 . S
C1125 C1131 1.428 . S
H1126 C1122 0.930 . S
H1127 C1124 0.929 . S
S1128 N1129 1.613 . S
S1128 N1130 1.610 . S
N1129 S1128 1.613 . S
N1129 C1132 1.350 . S
N1130 S1128 1.610 . S
N1130 C1131 1.351 . S
C1131 C1125 1.428 . S
C1131 N1130 1.351 . S
C1131 C1132 1.434 . S
C1132 C1123 1.429 . S
C1132 N1129 1.350 . S
C1132 C1131 1.434 . S
C1133 C1134 1.369 . S
C1133 C1135 1.419 . S
C1133 H1137 0.930 . S
C1134 C1133 1.369 . S
C1134 C1143 1.429 . S
C1135 C1133 1.419 . S
C1135 C1136 1.363 . S
C1135 H1138 0.929 . S
C1136 C1135 1.363 . S
C1136 C1142 1.428 . S
H1137 C1133 0.930 . S
H1138 C1135 0.929 . S
S1139 N1140 1.613 . S
S1139 N1141 1.610 . S
N1140 S1139 1.613 . S
N1140 C1143 1.350 . S
N1141 S1139 1.610 . S
N1141 C1142 1.351 . S
C1142 C1136 1.428 . S
C1142 N1141 1.351 . S
C1142 C1143 1.434 . S
C1143 C1134 1.429 . S
C1143 N1140 1.350 . S
C1143 C1142 1.434 . S
C1144 C1145 1.369 1_556 S
C1144 C1146 1.419 . S
C1144 H1148 0.930 . S
C1145 C1144 1.369 1_554 S
C1145 C1154 1.429 . S
C1146 C1144 1.419 . S
C1146 C1147 1.363 1_556 S
C1146 H1149 0.929 . S
C1147 C1146 1.363 1_554 S
C1147 C1153 1.428 . S
H1148 C1144 0.930 . S
H1149 C1146 0.929 . S
S1150 N1151 1.613 . S
S1150 N1152 1.610 . S
N1151 S1150 1.613 . S
N1151 C1154 1.350 . S
N1152 S1150 1.610 . S
N1152 C1153 1.351 . S
C1153 C1147 1.428 . S
C1153 N1152 1.351 . S
C1153 C1154 1.434 . S
C1154 C1145 1.429 . S
C1154 N1151 1.350 . S
C1154 C1153 1.434 . S
C1155 C1156 1.375 . S
C1155 C1157 1.419 . S
C1155 H1159 0.930 . S
C1156 C1155 1.375 . S
C1156 C1165 1.427 1_556 S
C1157 C1155 1.419 . S
C1157 C1158 1.363 . S
C1157 H1160 0.929 . S
C1158 C1157 1.363 . S
C1158 C1164 1.428 . S
H1159 C1155 0.930 . S
H1160 C1157 0.929 . S
S1161 N1162 1.613 . S
S1161 N1163 1.613 . S
N1162 S1161 1.613 . S
N1162 C1165 1.350 . S
N1163 S1161 1.613 . S
N1163 C1164 1.350 1_554 S
C1164 C1158 1.428 . S
C1164 N1163 1.350 1_556 S
C1164 C1165 1.434 1_556 S
C1165 C1156 1.427 1_554 S
C1165 N1162 1.350 . S
C1165 C1164 1.434 1_554 S
C1166 C1167 1.369 . S
C1166 C1168 1.419 . S
C1166 H1170 0.930 . S
C1167 C1166 1.369 . S
C1167 C1176 1.429 . S
C1168 C1166 1.419 . S
C1168 C1169 1.363 . S
C1168 H1171 0.929 . S
C1169 C1168 1.363 . S
C1169 C1175 1.428 . S
H1170 C1166 0.930 . S
H1171 C1168 0.929 . S
S1172 N1173 1.613 . S
S1172 N1174 1.610 . S
N1173 S1172 1.613 . S
N1173 C1176 1.350 . S
N1174 S1172 1.610 . S
N1174 C1175 1.351 . S
C1175 C1169 1.428 . S
C1175 N1174 1.351 . S
C1175 C1176 1.434 . S
C1176 C1167 1.429 . S
C1176 N1173 1.350 . S
C1176 C1175 1.434 . S
C1177 C1178 1.369 . S
C1177 C1179 1.419 . S
C1177 H1181 0.930 . S
C1178 C1177 1.369 . S
C1178 C1187 1.429 . S
C1179 C1177 1.419 . S
C1179 C1180 1.363 . S
C1179 H1182 0.929 . S
C1180 C1179 1.363 . S
C1180 C1186 1.428 . S
H1181 C1177 0.930 . S
H1182 C1179 0.929 . S
S1183 N1184 1.613 . S
S1183 N1185 1.610 . S
N1184 S1183 1.613 . S
N1184 C1187 1.350 . S
N1185 S1183 1.610 . S
N1185 C1186 1.351 . S
C1186 C1180 1.428 . S
C1186 N1185 1.351 . S
C1186 C1187 1.434 . S
C1187 C1178 1.429 . S
C1187 N1184 1.350 . S
C1187 C1186 1.434 . S
C1188 C1189 1.369 . S
C1188 C1190 1.419 . S
C1188 H1192 0.930 . S
C1189 C1188 1.369 . S
C1189 C1198 1.429 . S
C1190 C1188 1.419 . S
C1190 C1191 1.363 . S
C1190 H1193 0.929 . S
C1191 C1190 1.363 . S
C1191 C1197 1.428 . S
H1192 C1188 0.930 . S
H1193 C1190 0.929 . S
S1194 N1195 1.613 . S
S1194 N1196 1.610 . S
N1195 S1194 1.613 . S
N1195 C1198 1.350 . S
N1196 S1194 1.610 . S
N1196 C1197 1.351 . S
C1197 C1191 1.428 . S
C1197 N1196 1.351 . S
C1197 C1198 1.434 . S
C1198 C1189 1.429 . S
C1198 N1195 1.350 . S
C1198 C1197 1.434 . S
C1199 C1200 1.369 . S
C1199 C1201 1.419 . S
C1199 H1203 0.930 . S
C1200 C1199 1.369 . S
C1200 C1209 1.429 . S
C1201 C1199 1.419 . S
C1201 C1202 1.363 . S
C1201 H1204 0.929 . S
C1202 C1201 1.363 . S
C1202 C1208 1.428 . S
H1203 C1199 0.930 . S
H1204 C1201 0.929 . S
S1205 N1206 1.613 . S
S1205 N1207 1.610 . S
N1206 S1205 1.613 . S
N1206 C1209 1.350 . S
N1207 S1205 1.610 . S
N1207 C1208 1.351 . S
C1208 C1202 1.428 . S
C1208 N1207 1.351 . S
C1208 C1209 1.434 . S
C1209 C1200 1.429 . S
C1209 N1206 1.350 . S
C1209 C1208 1.434 . S
C1210 C1211 1.369 . S
C1210 C1212 1.419 . S
C1210 H1214 0.930 . S
C1211 C1210 1.369 . S
C1211 C1220 1.429 . S
C1212 C1210 1.419 . S
C1212 C1213 1.363 . S
C1212 H1215 0.929 . S
C1213 C1212 1.363 . S
C1213 C1219 1.428 . S
H1214 C1210 0.930 . S
H1215 C1212 0.929 . S
S1216 N1217 1.613 . S
S1216 N1218 1.610 . S
N1217 S1216 1.613 . S
N1217 C1220 1.350 . S
N1218 S1216 1.610 . S
N1218 C1219 1.351 . S
C1219 C1213 1.428 . S
C1219 N1218 1.351 . S
C1219 C1220 1.434 . S
C1220 C1211 1.429 . S
C1220 N1217 1.350 . S
C1220 C1219 1.434 . S
C1221 C1222 1.369 . S
C1221 C1223 1.419 . S
C1221 H1225 0.930 . S
C1222 C1221 1.369 . S
C1222 C1231 1.429 . S
C1223 C1221 1.419 . S
C1223 C1224 1.363 . S
C1223 H1226 0.929 . S
C1224 C1223 1.363 . S
C1224 C1230 1.428 . S
H1225 C1221 0.930 . S
H1226 C1223 0.929 . S
S1227 N1228 1.613 . S
S1227 N1229 1.610 . S
N1228 S1227 1.613 . S
N1228 C1231 1.350 . S
N1229 S1227 1.610 . S
N1229 C1230 1.351 . S
C1230 C1224 1.428 . S
C1230 N1229 1.351 . S
C1230 C1231 1.434 . S
C1231 C1222 1.429 . S
C1231 N1228 1.350 . S
C1231 C1230 1.434 . S
C1232 C1233 1.369 . S
C1232 C1234 1.419 . S
C1232 H1236 0.930 . S
C1233 C1232 1.369 . S
C1233 C1242 1.429 . S
C1234 C1232 1.419 . S
C1234 C1235 1.363 . S
C1234 H1237 0.929 . S
C1235 C1234 1.363 . S
C1235 C1241 1.428 . S
H1236 C1232 0.930 . S
H1237 C1234 0.929 . S
S1238 N1239 1.613 . S
S1238 N1240 1.610 . S
N1239 S1238 1.613 . S
N1239 C1242 1.350 . S
N1240 S1238 1.610 . S
N1240 C1241 1.351 . S
C1241 C1235 1.428 . S
C1241 N1240 1.351 . S
C1241 C1242 1.434 . S
C1242 C1233 1.429 . S
C1242 N1239 1.350 . S
C1242 C1241 1.434 . S
C1243 C1244 1.369 . S
C1243 C1245 1.419 . S
C1243 H1247 0.930 . S
C1244 C1243 1.369 . S
C1244 C1253 1.429 . S
C1245 C1243 1.419 . S
C1245 C1246 1.363 . S
C1245 H1248 0.929 . S
C1246 C1245 1.363 . S
C1246 C1252 1.428 . S
H1247 C1243 0.930 . S
H1248 C1245 0.929 . S
S1249 N1250 1.613 . S
S1249 N1251 1.610 . S
N1250 S1249 1.613 . S
N1250 C1253 1.350 . S
N1251 S1249 1.610 . S
N1251 C1252 1.351 . S
C1252 C1246 1.428 . S
C1252 N1251 1.351 . S
C1252 C1253 1.434 . S
C1253 C1244 1.429 . S
C1253 N1250 1.350 . S
C1253 C1252 1.434 . S
C1254 C1255 1.369 . S
C1254 C1256 1.419 . S
C1254 H1258 0.930 . S
C1255 C1254 1.369 . S
C1255 C1264 1.429 . S
C1256 C1254 1.419 . S
C1256 C1257 1.363 . S
C1256 H1259 0.929 . S
C1257 C1256 1.363 . S
C1257 C1263 1.428 . S
H1258 C1254 0.930 . S
H1259 C1256 0.929 . S
S1260 N1261 1.613 . S
S1260 N1262 1.610 . S
N1261 S1260 1.613 . S
N1261 C1264 1.350 . S
N1262 S1260 1.610 . S
N1262 C1263 1.351 . S
C1263 C1257 1.428 . S
C1263 N1262 1.351 . S
C1263 C1264 1.434 . S
C1264 C1255 1.429 . S
C1264 N1261 1.350 . S
C1264 C1263 1.434 . S
C1265 C1266 1.369 . S
C1265 C1267 1.419 . S
C1265 H1269 0.930 . S
C1266 C1265 1.369 . S
C1266 C1275 1.429 . S
C1267 C1265 1.419 . S
C1267 C1268 1.363 . S
C1267 H1270 0.929 . S
C1268 C1267 1.363 . S
C1268 C1274 1.428 . S
H1269 C1265 0.930 . S
H1270 C1267 0.929 . S
S1271 N1272 1.613 . S
S1271 N1273 1.610 . S
N1272 S1271 1.613 . S
N1272 C1275 1.350 . S
N1273 S1271 1.610 . S
N1273 C1274 1.351 . S
C1274 C1268 1.428 . S
C1274 N1273 1.351 . S
C1274 C1275 1.434 . S
C1275 C1266 1.429 . S
C1275 N1272 1.350 . S
C1275 C1274 1.434 . S
C1276 C1277 1.369 . S
C1276 C1278 1.419 . S
C1276 H1280 0.930 . S
C1277 C1276 1.369 . S
C1277 C1286 1.429 . S
C1278 C1276 1.419 . S
C1278 C1279 1.363 . S
C1278 H1281 0.929 . S
C1279 C1278 1.363 . S
C1279 C1285 1.428 . S
H1280 C1276 0.930 . S
H1281 C1278 0.929 . S
S1282 N1283 1.613 1_554 S
S1282 N1284 1.610 . S
N1283 S1282 1.613 1_556 S
N1283 C1286 1.350 . S
N1284 S1282 1.610 . S
N1284 C1285 1.351 1_554 S
C1285 C1279 1.428 . S
C1285 N1284 1.351 1_556 S
C1285 C1286 1.434 . S
C1286 C1277 1.429 . S
C1286 N1283 1.350 . S
C1286 C1285 1.434 . S
C1287 C1288 1.369 . S
C1287 C1289 1.419 . S
C1287 H1291 0.930 . S
C1288 C1287 1.369 . S
C1288 C1297 1.429 . S
C1289 C1287 1.419 . S
C1289 C1290 1.363 . S
C1289 H1292 0.929 . S
C1290 C1289 1.363 . S
C1290 C1296 1.428 . S
H1291 C1287 0.930 . S
H1292 C1289 0.929 . S
S1293 N1294 1.613 . S
S1293 N1295 1.610 . S
N1294 S1293 1.613 . S
N1294 C1297 1.350 . S
N1295 S1293 1.610 . S
N1295 C1296 1.351 . S
C1296 C1290 1.428 . S
C1296 N1295 1.351 . S
C1296 C1297 1.434 . S
C1297 C1288 1.429 . S
C1297 N1294 1.350 . S
C1297 C1296 1.434 . S
C1298 C1299 1.369 . S
C1298 C1300 1.419 . S
C1298 H1302 0.930 . S
C1299 C1298 1.369 . S
C1299 C1308 1.429 . S
C1300 C1298 1.419 . S
C1300 C1301 1.363 . S
C1300 H1303 0.929 . S
C1301 C1300 1.363 . S
C1301 C1307 1.428 . S
H1302 C1298 0.930 . S
H1303 C1300 0.929 . S
S1304 N1305 1.613 . S
S1304 N1306 1.610 . S
N1305 S1304 1.613 . S
N1305 C1308 1.350 . S
N1306 S1304 1.610 . S
N1306 C1307 1.351 . S
C1307 C1301 1.428 . S
C1307 N1306 1.351 . S
C1307 C1308 1.434 . S
C1308 C1299 1.429 . S
C1308 N1305 1.350 . S
C1308 C1307 1.434 . S
C1309 C1310 1.369 . S
C1309 C1311 1.419 . S
C1309 H1313 0.930 . S
C1310 C1309 1.369 . S
C1310 C1319 1.429 . S
C1311 C1309 1.419 . S
C1311 C1312 1.363 . S
C1311 H1314 0.929 . S
C1312 C1311 1.363 . S
C1312 C1318 1.428 . S
H1313 C1309 0.930 . S
H1314 C1311 0.929 . S
S1315 N1316 1.613 . S
S1315 N1317 1.610 . S
N1316 S1315 1.613 . S
N1316 C1319 1.350 . S
N1317 S1315 1.610 . S
N1317 C1318 1.351 . S
C1318 C1312 1.428 . S
C1318 N1317 1.351 . S
C1318 C1319 1.434 . S
C1319 C1310 1.429 . S
C1319 N1316 1.350 . S
C1319 C1318 1.434 . S
C1320 C1321 1.369 . S
C1320 C1322 1.419 . S
C1320 H1324 0.930 . S
C1321 C1320 1.369 . S
C1321 C1330 1.429 . S
C1322 C1320 1.419 . S
C1322 C1323 1.363 . S
C1322 H1325 0.929 . S
C1323 C1322 1.363 . S
C1323 C1329 1.428 . S
H1324 C1320 0.930 . S
H1325 C1322 0.929 . S
S1326 N1327 1.613 . S
S1326 N1328 1.610 . S
N1327 S1326 1.613 . S
N1327 C1330 1.350 . S
N1328 S1326 1.610 . S
N1328 C1329 1.351 . S
C1329 C1323 1.428 . S
C1329 N1328 1.351 . S
C1329 C1330 1.434 . S
C1330 C1321 1.429 . S
C1330 N1327 1.350 . S
C1330 C1329 1.434 . S
C1331 C1332 1.369 . S
C1331 C1333 1.419 . S
C1331 H1335 0.930 . S
C1332 C1331 1.369 . S
C1332 C1341 1.429 . S
C1333 C1331 1.419 . S
C1333 C1334 1.363 . S
C1333 H1336 0.929 . S
C1334 C1333 1.363 . S
C1334 C1340 1.428 . S
H1335 C1331 0.930 . S
H1336 C1333 0.929 . S
S1337 N1338 1.613 . S
S1337 N1339 1.610 . S
N1338 S1337 1.613 . S
N1338 C1341 1.350 . S
N1339 S1337 1.610 . S
N1339 C1340 1.351 . S
C1340 C1334 1.428 . S
C1340 N1339 1.351 . S
C1340 C1341 1.434 . S
C1341 C1332 1.429 . S
C1341 N1338 1.350 . S
C1341 C1340 1.434 . S
C1342 C1343 1.369 . S
C1342 C1344 1.419 . S
C1342 H1346 0.930 . S
C1343 C1342 1.369 . S
C1343 C1352 1.429 . S
C1344 C1342 1.419 . S
C1344 C1345 1.363 . S
C1344 H1347 0.929 . S
C1345 C1344 1.363 . S
C1345 C1351 1.428 . S
H1346 C1342 0.930 . S
H1347 C1344 0.929 . S
S1348 N1349 1.613 . S
S1348 N1350 1.610 . S
N1349 S1348 1.613 . S
N1349 C1352 1.350 . S
N1350 S1348 1.610 . S
N1350 C1351 1.351 . S
C1351 C1345 1.428 . S
C1351 N1350 1.351 . S
C1351 C1352 1.434 . S
C1352 C1343 1.429 . S
C1352 N1349 1.350 . S
C1352 C1351 1.434 . S
C1353 C1354 1.369 . S
C1353 C1355 1.419 . S
C1353 H1357 0.930 . S
C1354 C1353 1.369 . S
C1354 C1363 1.429 . S
C1355 C1353 1.419 . S
C1355 C1356 1.363 . S
C1355 H1358 0.929 . S
C1356 C1355 1.363 . S
C1356 C1362 1.428 . S
H1357 C1353 0.930 . S
H1358 C1355 0.929 . S
S1359 N1360 1.613 . S
S1359 N1361 1.610 . S
N1360 S1359 1.613 . S
N1360 C1363 1.350 . S
N1361 S1359 1.610 . S
N1361 C1362 1.351 . S
C1362 C1356 1.428 . S
C1362 N1361 1.351 . S
C1362 C1363 1.434 . S
C1363 C1354 1.429 . S
C1363 N1360 1.350 . S
C1363 C1362 1.434 . S
C1364 C1365 1.369 . S
C1364 C1366 1.419 . S
C1364 H1368 0.930 . S
C1365 C1364 1.369 . S
C1365 C1374 1.429 . S
C1366 C1364 1.419 . S
C1366 C1367 1.363 . S
C1366 H1369 0.929 . S
C1367 C1366 1.363 . S
C1367 C1373 1.428 . S
H1368 C1364 0.930 . S
H1369 C1366 0.929 . S
S1370 N1371 1.613 . S
S1370 N1372 1.610 . S
N1371 S1370 1.613 . S
N1371 C1374 1.350 . S
N1372 S1370 1.610 . S
N1372 C1373 1.351 . S
C1373 C1367 1.428 . S
C1373 N1372 1.351 . S
C1373 C1374 1.434 . S
C1374 C1365 1.429 . S
C1374 N1371 1.350 . S
C1374 C1373 1.434 . S
C1375 C1376 1.369 . S
C1375 C1377 1.419 . S
C1375 H1379 0.930 . S
C1376 C1375 1.369 . S
C1376 C1385 1.429 . S
C1377 C1375 1.419 . S
C1377 C1378 1.363 . S
C1377 H1380 0.929 . S
C1378 C1377 1.363 . S
C1378 C1384 1.428 . S
H1379 C1375 0.930 . S
H1380 C1377 0.929 . S
S1381 N1382 1.613 . S
S1381 N1383 1.610 . S
N1382 S1381 1.613 . S
N1382 C1385 1.350 . S
N1383 S1381 1.610 . S
N1383 C1384 1.351 . S
C1384 C1378 1.428 . S
C1384 N1383 1.351 . S
C1384 C1385 1.434 . S
C1385 C1376 1.429 . S
C1385 N1382 1.350 . S
C1385 C1384 1.434 . S
C1386 C1387 1.369 . S
C1386 C1388 1.419 . S
C1386 H1390 0.930 . S
C1387 C1386 1.369 . S
C1387 C1396 1.429 . S
C1388 C1386 1.419 . S
C1388 C1389 1.363 . S
C1388 H1391 0.929 . S
C1389 C1388 1.363 . S
C1389 C1395 1.428 . S
H1390 C1386 0.930 . S
H1391 C1388 0.929 . S
S1392 N1393 1.613 . S
S1392 N1394 1.610 . S
N1393 S1392 1.613 . S
N1393 C1396 1.350 . S
N1394 S1392 1.610 . S
N1394 C1395 1.351 . S
C1395 C1389 1.428 . S
C1395 N1394 1.351 . S
C1395 C1396 1.434 . S
C1396 C1387 1.429 . S
C1396 N1393 1.350 . S
C1396 C1395 1.434 . S
C1397 C1398 1.369 . S
C1397 C1399 1.419 . S
C1397 H1401 0.930 . S
C1398 C1397 1.369 . S
C1398 C1407 1.429 . S
C1399 C1397 1.419 . S
C1399 C1400 1.363 . S
C1399 H1402 0.929 . S
C1400 C1399 1.363 . S
C1400 C1406 1.428 . S
H1401 C1397 0.930 . S
H1402 C1399 0.929 . S
S1403 N1404 1.613 . S
S1403 N1405 1.610 . S
N1404 S1403 1.613 . S
N1404 C1407 1.350 . S
N1405 S1403 1.610 . S
N1405 C1406 1.351 . S
C1406 C1400 1.428 . S
C1406 N1405 1.351 . S
C1406 C1407 1.434 . S
C1407 C1398 1.429 . S
C1407 N1404 1.350 . S
C1407 C1406 1.434 . S
C1408 C1409 1.369 . S
C1408 C1410 1.419 . S
C1408 H1412 0.930 . S
C1409 C1408 1.369 . S
C1409 C1418 1.429 . S
C1410 C1408 1.419 . S
C1410 C1411 1.363 . S
C1410 H1413 0.929 . S
C1411 C1410 1.363 . S
C1411 C1417 1.428 . S
H1412 C1408 0.930 . S
H1413 C1410 0.929 . S
S1414 N1415 1.613 . S
S1414 N1416 1.610 . S
N1415 S1414 1.613 . S
N1415 C1418 1.350 . S
N1416 S1414 1.610 . S
N1416 C1417 1.351 . S
C1417 C1411 1.428 . S
C1417 N1416 1.351 . S
C1417 C1418 1.434 . S
C1418 C1409 1.429 . S
C1418 N1415 1.350 . S
C1418 C1417 1.434 . S
C1419 C1420 1.369 . S
C1419 C1421 1.419 . S
C1419 H1423 0.930 . S
C1420 C1419 1.369 . S
C1420 C1429 1.429 . S
C1421 C1419 1.419 . S
C1421 C1422 1.363 . S
C1421 H1424 0.929 . S
C1422 C1421 1.363 . S
C1422 C1428 1.428 . S
H1423 C1419 0.930 . S
H1424 C1421 0.929 . S
S1425 N1426 1.613 1_545 S
S1425 N1427 1.610 . S
N1426 S1425 1.613 1_565 S
N1426 C1429 1.350 . S
N1427 S1425 1.610 . S
N1427 C1428 1.351 1_545 S
C1428 C1422 1.428 . S
C1428 N1427 1.351 1_565 S
C1428 C1429 1.434 . S
C1429 C1420 1.429 . S
C1429 N1426 1.350 . S
C1429 C1428 1.434 . S
C1430 C1431 1.369 . S
C1430 C1432 1.419 . S
C1430 H1434 0.930 . S
C1431 C1430 1.369 . S
C1431 C1440 1.429 . S
C1432 C1430 1.419 . S
C1432 C1433 1.363 . S
C1432 H1435 0.929 . S
C1433 C1432 1.363 . S
C1433 C1439 1.428 . S
H1434 C1430 0.930 . S
H1435 C1432 0.929 . S
S1436 N1437 1.613 . S
S1436 N1438 1.610 . S
N1437 S1436 1.613 . S
N1437 C1440 1.350 . S
N1438 S1436 1.610 . S
N1438 C1439 1.351 . S
C1439 C1433 1.428 . S
C1439 N1438 1.351 . S
C1439 C1440 1.434 . S
C1440 C1431 1.429 . S
C1440 N1437 1.350 . S
C1440 C1439 1.434 . S
C1441 C1442 1.369 . S
C1441 C1443 1.419 . S
C1441 H1445 0.930 . S
C1442 C1441 1.369 . S
C1442 C1451 1.429 1_554 S
C1443 C1441 1.419 . S
C1443 C1444 1.363 . S
C1443 H1446 0.929 . S
C1444 C1443 1.363 . S
C1444 C1450 1.428 . S
H1445 C1441 0.930 . S
H1446 C1443 0.929 . S
S1447 N1448 1.613 1_565 S
S1447 N1449 1.610 . S
N1448 S1447 1.613 1_545 S
N1448 C1451 1.350 . S
N1449 S1447 1.610 . S
N1449 C1450 1.351 1_566 S
C1450 C1444 1.428 . S
C1450 N1449 1.351 1_544 S
C1450 C1451 1.434 1_554 S
C1451 C1442 1.429 1_556 S
C1451 N1448 1.350 . S
C1451 C1450 1.434 1_556 S
C1452 C1453 1.369 . S
C1452 C1454 1.419 . S
C1452 H1456 0.930 . S
C1453 C1452 1.369 . S
C1453 C1462 1.429 . S
C1454 C1452 1.419 . S
C1454 C1455 1.363 . S
C1454 H1457 0.929 . S
C1455 C1454 1.363 . S
C1455 C1461 1.428 . S
H1456 C1452 0.930 . S
H1457 C1454 0.929 . S
S1458 N1459 1.613 . S
S1458 N1460 1.610 . S
N1459 S1458 1.613 . S
N1459 C1462 1.350 . S
N1460 S1458 1.610 . S
N1460 C1461 1.351 . S
C1461 C1455 1.428 . S
C1461 N1460 1.351 . S
C1461 C1462 1.434 . S
C1462 C1453 1.429 . S
C1462 N1459 1.350 . S
C1462 C1461 1.434 . S
C1463 C1464 1.369 . S
C1463 C1465 1.419 . S
C1463 H1467 0.930 . S
C1464 C1463 1.369 . S
C1464 C1473 1.429 1_554 S
C1465 C1463 1.419 . S
C1465 C1466 1.363 1_554 S
C1465 H1468 0.929 . S
C1466 C1465 1.363 1_556 S
C1466 C1472 1.428 . S
H1467 C1463 0.930 . S
H1468 C1465 0.929 . S
S1469 N1470 1.613 . S
S1469 N1471 1.610 . S
N1470 S1469 1.613 . S
N1470 C1473 1.350 . S
N1471 S1469 1.610 . S
N1471 C1472 1.351 . S
C1472 C1466 1.428 . S
C1472 N1471 1.351 . S
C1472 C1473 1.434 . S
C1473 C1464 1.429 1_556 S
C1473 N1470 1.350 . S
C1473 C1472 1.434 . S
C1474 C1475 1.369 . S
C1474 C1476 1.419 . S
C1474 H1478 0.930 . S
C1475 C1474 1.369 . S
C1475 C1484 1.429 . S
C1476 C1474 1.419 . S
C1476 C1477 1.363 . S
C1476 H1479 0.929 . S
C1477 C1476 1.363 . S
C1477 C1483 1.428 . S
H1478 C1474 0.930 . S
H1479 C1476 0.929 . S
S1480 N1481 1.613 . S
S1480 N1482 1.610 . S
N1481 S1480 1.613 . S
N1481 C1484 1.350 . S
N1482 S1480 1.610 . S
N1482 C1483 1.351 . S
C1483 C1477 1.428 . S
C1483 N1482 1.351 . S
C1483 C1484 1.434 . S
C1484 C1475 1.429 . S
C1484 N1481 1.350 . S
C1484 C1483 1.434 . S
C1485 C1486 1.369 . S
C1485 C1487 1.419 . S
C1485 H1489 0.930 . S
C1486 C1485 1.369 . S
C1486 C1495 1.429 . S
C1487 C1485 1.419 . S
C1487 C1488 1.363 . S
C1487 H1490 0.929 . S
C1488 C1487 1.363 . S
C1488 C1494 1.428 . S
H1489 C1485 0.930 . S
H1490 C1487 0.929 . S
S1491 N1492 1.613 . S
S1491 N1493 1.610 . S
N1492 S1491 1.613 . S
N1492 C1495 1.350 . S
N1493 S1491 1.610 . S
N1493 C1494 1.351 . S
C1494 C1488 1.428 . S
C1494 N1493 1.351 . S
C1494 C1495 1.434 . S
C1495 C1486 1.429 . S
C1495 N1492 1.350 . S
C1495 C1494 1.434 . S
C1496 C1497 1.369 . S
C1496 C1498 1.419 . S
C1496 H1500 0.930 . S
C1497 C1496 1.369 . S
C1497 C1506 1.429 . S
C1498 C1496 1.419 . S
C1498 C1499 1.363 . S
C1498 H1501 0.929 . S
C1499 C1498 1.363 . S
C1499 C1505 1.428 . S
H1500 C1496 0.930 . S
H1501 C1498 0.929 . S
S1502 N1503 1.613 . S
S1502 N1504 1.610 . S
N1503 S1502 1.613 . S
N1503 C1506 1.350 . S
N1504 S1502 1.610 . S
N1504 C1505 1.351 . S
C1505 C1499 1.428 . S
C1505 N1504 1.351 . S
C1505 C1506 1.434 . S
C1506 C1497 1.429 . S
C1506 N1503 1.350 . S
C1506 C1505 1.434 . S
C1507 C1508 1.369 . S
C1507 C1509 1.419 . S
C1507 H1511 0.930 . S
C1508 C1507 1.369 . S
C1508 C1517 1.429 . S
C1509 C1507 1.419 . S
C1509 C1510 1.363 . S
C1509 H1512 0.929 . S
C1510 C1509 1.363 . S
C1510 C1516 1.428 . S
H1511 C1507 0.930 . S
H1512 C1509 0.929 . S
S1513 N1514 1.613 . S
S1513 N1515 1.610 . S
N1514 S1513 1.613 . S
N1514 C1517 1.350 . S
N1515 S1513 1.610 . S
N1515 C1516 1.351 . S
C1516 C1510 1.428 . S
C1516 N1515 1.351 . S
C1516 C1517 1.434 . S
C1517 C1508 1.429 . S
C1517 N1514 1.350 . S
C1517 C1516 1.434 . S
C1518 C1519 1.369 . S
C1518 C1520 1.419 . S
C1518 H1522 0.930 . S
C1519 C1518 1.369 . S
C1519 C1528 1.429 1_455 S
C1520 C1518 1.419 . S
C1520 C1521 1.363 1_455 S
C1520 H1523 0.929 1_556 S
C1521 C1520 1.363 1_655 S
C1521 C1527 1.428 . S
H1522 C1518 0.930 . S
H1523 C1520 0.929 1_554 S
S1524 N1525 1.613 . S
S1524 N1526 1.610 . S
N1525 S1524 1.613 . S
N1525 C1528 1.350 . S
N1526 S1524 1.610 . S
N1526 C1527 1.351 . S
C1527 C1521 1.428 . S
C1527 N1526 1.351 . S
C1527 C1528 1.434 . S
C1528 C1519 1.429 1_655 S
C1528 N1525 1.350 . S
C1528 C1527 1.434 . S
C1529 C1530 1.369 . S
C1529 C1531 1.419 . S
C1529 H1533 0.930 . S
C1530 C1529 1.369 . S
C1530 C1539 1.429 . S
C1531 C1529 1.419 . S
C1531 C1532 1.363 . S
C1531 H1534 0.929 . S
C1532 C1531 1.363 . S
C1532 C1538 1.428 . S
H1533 C1529 0.930 . S
H1534 C1531 0.929 . S
S1535 N1536 1.613 . S
S1535 N1537 1.610 . S
N1536 S1535 1.613 . S
N1536 C1539 1.350 . S
N1537 S1535 1.610 . S
N1537 C1538 1.351 . S
C1538 C1532 1.428 . S
C1538 N1537 1.351 . S
C1538 C1539 1.434 . S
C1539 C1530 1.429 . S
C1539 N1536 1.350 . S
C1539 C1538 1.434 . S
C1540 C1541 1.369 . S
C1540 C1542 1.419 . S
C1540 H1544 0.930 . S
C1541 C1540 1.369 . S
C1541 C1550 1.429 . S
C1542 C1540 1.419 . S
C1542 C1543 1.363 . S
C1542 H1545 0.929 . S
C1543 C1542 1.363 . S
C1543 C1549 1.428 . S
H1544 C1540 0.930 . S
H1545 C1542 0.929 . S
S1546 N1547 1.613 . S
S1546 N1548 1.610 . S
N1547 S1546 1.613 . S
N1547 C1550 1.350 . S
N1548 S1546 1.610 . S
N1548 C1549 1.351 . S
C1549 C1543 1.428 . S
C1549 N1548 1.351 . S
C1549 C1550 1.434 . S
C1550 C1541 1.429 . S
C1550 N1547 1.350 . S
C1550 C1549 1.434 . S
C1551 C1552 1.369 . S
C1551 C1553 1.419 . S
C1551 H1555 0.930 . S
C1552 C1551 1.369 . S
C1552 C1561 1.429 . S
C1553 C1551 1.419 . S
C1553 C1554 1.363 . S
C1553 H1556 0.929 . S
C1554 C1553 1.363 . S
C1554 C1560 1.428 . S
H1555 C1551 0.930 . S
H1556 C1553 0.929 . S
S1557 N1558 1.613 . S
S1557 N1559 1.610 . S
N1558 S1557 1.613 . S
N1558 C1561 1.350 . S
N1559 S1557 1.610 . S
N1559 C1560 1.351 . S
C1560 C1554 1.428 . S
C1560 N1559 1.351 . S
C1560 C1561 1.434 . S
C1561 C1552 1.429 . S
C1561 N1558 1.350 . S
C1561 C1560 1.434 . S
C1562 C1563 1.369 . S
C1562 C1564 1.419 . S
C1562 H1566 0.930 . S
C1563 C1562 1.369 . S
C1563 C1572 1.440 . S
C1564 C1562 1.419 . S
C1564 C1565 1.363 1_455 S
C1564 H1567 0.929 . S
C1565 C1564 1.363 1_655 S
C1565 C1571 1.428 . S
H1566 C1562 0.930 . S
H1567 C1564 0.929 . S
S1568 N1569 1.613 . S
S1568 N1570 1.610 . S
N1569 S1568 1.613 . S
N1569 C1572 1.351 1_655 S
N1570 S1568 1.610 . S
N1570 C1571 1.351 . S
C1571 C1565 1.428 . S
C1571 N1570 1.351 . S
C1571 C1572 1.422 1_655 S
C1572 C1563 1.440 . S
C1572 N1569 1.351 1_455 S
C1572 C1571 1.422 1_455 S
C1573 C1574 1.369 . S
C1573 C1575 1.419 . S
C1573 H1577 0.930 . S
C1574 C1573 1.369 . S
C1574 C1583 1.429 . S
C1575 C1573 1.419 . S
C1575 C1576 1.363 . S
C1575 H1578 0.929 . S
C1576 C1575 1.363 . S
C1576 C1582 1.428 . S
H1577 C1573 0.930 . S
H1578 C1575 0.929 . S
S1579 N1580 1.613 . S
S1579 N1581 1.610 . S
N1580 S1579 1.613 . S
N1580 C1583 1.350 . S
N1581 S1579 1.610 . S
N1581 C1582 1.351 . S
C1582 C1576 1.428 . S
C1582 N1581 1.351 . S
C1582 C1583 1.434 . S
C1583 C1574 1.429 . S
C1583 N1580 1.350 . S
C1583 C1582 1.434 . S
C1584 C1585 1.369 . S
C1584 C1586 1.419 . S
C1584 H1588 0.930 . S
C1585 C1584 1.369 . S
C1585 C1594 1.429 . S
C1586 C1584 1.419 . S
C1586 C1587 1.363 . S
C1586 H1589 0.929 . S
C1587 C1586 1.363 . S
C1587 C1593 1.428 . S
H1588 C1584 0.930 . S
H1589 C1586 0.929 . S
S1590 N1591 1.613 . S
S1590 N1592 1.610 . S
N1591 S1590 1.613 . S
N1591 C1594 1.350 . S
N1592 S1590 1.610 . S
N1592 C1593 1.351 . S
C1593 C1587 1.428 . S
C1593 N1592 1.351 . S
C1593 C1594 1.434 . S
C1594 C1585 1.429 . S
C1594 N1591 1.350 . S
C1594 C1593 1.434 . S
C1595 C1596 1.369 . S
C1595 C1597 1.419 . S
C1595 H1599 0.930 . S
C1596 C1595 1.369 . S
C1596 C1605 1.429 . S
C1597 C1595 1.419 . S
C1597 C1598 1.363 . S
C1597 H1600 0.929 . S
C1598 C1597 1.363 . S
C1598 C1604 1.428 . S
H1599 C1595 0.930 . S
H1600 C1597 0.929 . S
S1601 N1602 1.613 . S
S1601 N1603 1.610 . S
N1602 S1601 1.613 . S
N1602 C1605 1.350 . S
N1603 S1601 1.610 . S
N1603 C1604 1.351 . S
C1604 C1598 1.428 . S
C1604 N1603 1.351 . S
C1604 C1605 1.434 . S
C1605 C1596 1.429 . S
C1605 N1602 1.350 . S
C1605 C1604 1.434 . S
C1606 C1607 1.369 . S
C1606 C1608 1.419 . S
C1606 H1610 0.930 . S
C1607 C1606 1.369 . S
C1607 C1616 1.429 . S
C1608 C1606 1.419 . S
C1608 C1609 1.363 . S
C1608 H1611 0.929 . S
C1609 C1608 1.363 . S
C1609 C1615 1.428 . S
H1610 C1606 0.930 . S
H1611 C1608 0.929 . S
S1612 N1613 1.613 . S
S1612 N1614 1.610 . S
N1613 S1612 1.613 . S
N1613 C1616 1.350 . S
N1614 S1612 1.610 . S
N1614 C1615 1.351 . S
C1615 C1609 1.428 . S
C1615 N1614 1.351 . S
C1615 C1616 1.434 . S
C1616 C1607 1.429 . S
C1616 N1613 1.350 . S
C1616 C1615 1.434 . S
C1617 C1618 1.369 . S
C1617 C1619 1.419 . S
C1617 H1621 0.930 . S
C1618 C1617 1.369 . S
C1618 C1627 1.429 . S
C1619 C1617 1.419 . S
C1619 C1620 1.363 . S
C1619 H1622 0.929 . S
C1620 C1619 1.363 . S
C1620 C1626 1.428 . S
H1621 C1617 0.930 . S
H1622 C1619 0.929 . S
S1623 N1624 1.613 . S
S1623 N1625 1.610 . S
N1624 S1623 1.613 . S
N1624 C1627 1.350 . S
N1625 S1623 1.610 . S
N1625 C1626 1.351 . S
C1626 C1620 1.428 . S
C1626 N1625 1.351 . S
C1626 C1627 1.434 . S
C1627 C1618 1.429 . S
C1627 N1624 1.350 . S
C1627 C1626 1.434 . S
C1628 C1629 1.369 . S
C1628 C1630 1.419 . S
C1628 H1632 0.930 . S
C1629 C1628 1.369 . S
C1629 C1638 1.429 . S
C1630 C1628 1.419 . S
C1630 C1631 1.363 . S
C1630 H1633 0.929 . S
C1631 C1630 1.363 . S
C1631 C1637 1.428 . S
H1632 C1628 0.930 . S
H1633 C1630 0.929 . S
S1634 N1635 1.613 . S
S1634 N1636 1.610 . S
N1635 S1634 1.613 . S
N1635 C1638 1.350 . S
N1636 S1634 1.610 . S
N1636 C1637 1.351 . S
C1637 C1631 1.428 . S
C1637 N1636 1.351 . S
C1637 C1638 1.434 . S
C1638 C1629 1.429 . S
C1638 N1635 1.350 . S
C1638 C1637 1.434 . S
C1639 C1640 1.369 . S
C1639 C1641 1.419 . S
C1639 H1643 0.930 . S
C1640 C1639 1.369 . S
C1640 C1649 1.429 . S
C1641 C1639 1.419 . S
C1641 C1642 1.363 . S
C1641 H1644 0.929 . S
C1642 C1641 1.363 . S
C1642 C1648 1.428 . S
H1643 C1639 0.930 . S
H1644 C1641 0.929 . S
S1645 N1646 1.613 . S
S1645 N1647 1.610 . S
N1646 S1645 1.613 . S
N1646 C1649 1.350 . S
N1647 S1645 1.610 . S
N1647 C1648 1.351 . S
C1648 C1642 1.428 . S
C1648 N1647 1.351 . S
C1648 C1649 1.434 . S
C1649 C1640 1.429 . S
C1649 N1646 1.350 . S
C1649 C1648 1.434 . S
C1650 C1651 1.369 . S
C1650 C1652 1.419 . S
C1650 H1654 0.930 . S
C1651 C1650 1.369 . S
C1651 C1660 1.429 . S
C1652 C1650 1.419 . S
C1652 C1653 1.363 . S
C1652 H1655 0.929 . S
C1653 C1652 1.363 . S
C1653 C1659 1.428 . S
H1654 C1650 0.930 . S
H1655 C1652 0.929 . S
S1656 N1657 1.613 . S
S1656 N1658 1.610 . S
N1657 S1656 1.613 . S
N1657 C1660 1.350 . S
N1658 S1656 1.610 . S
N1658 C1659 1.351 . S
C1659 C1653 1.428 . S
C1659 N1658 1.351 . S
C1659 C1660 1.434 . S
C1660 C1651 1.429 . S
C1660 N1657 1.350 . S
C1660 C1659 1.434 . S
C1661 C1662 1.369 . S
C1661 C1663 1.419 . S
C1661 H1665 0.930 . S
C1662 C1661 1.369 . S
C1662 C1671 1.429 . S
C1663 C1661 1.419 . S
C1663 C1664 1.363 . S
C1663 H1666 0.929 . S
C1664 C1663 1.363 . S
C1664 C1670 1.428 . S
H1665 C1661 0.930 . S
H1666 C1663 0.929 . S
S1667 N1668 1.613 . S
S1667 N1669 1.610 . S
N1668 S1667 1.613 . S
N1668 C1671 1.350 . S
N1669 S1667 1.610 . S
N1669 C1670 1.351 . S
C1670 C1664 1.428 . S
C1670 N1669 1.351 . S
C1670 C1671 1.434 . S
C1671 C1662 1.429 . S
C1671 N1668 1.350 . S
C1671 C1670 1.434 . S
C1672 C1673 1.369 . S
C1672 C1674 1.419 . S
C1672 H1676 0.930 . S
C1673 C1672 1.369 . S
C1673 C1682 1.429 . S
C1674 C1672 1.419 . S
C1674 C1675 1.363 . S
C1674 H1677 0.929 . S
C1675 C1674 1.363 . S
C1675 C1681 1.428 . S
H1676 C1672 0.930 . S
H1677 C1674 0.929 . S
S1678 N1679 1.613 . S
S1678 N1680 1.610 . S
N1679 S1678 1.613 . S
N1679 C1682 1.350 . S
N1680 S1678 1.610 . S
N1680 C1681 1.351 . S
C1681 C1675 1.428 . S
C1681 N1680 1.351 . S
C1681 C1682 1.434 . S
C1682 C1673 1.429 . S
C1682 N1679 1.350 . S
C1682 C1681 1.434 . S
C1683 C1684 1.369 . S
C1683 C1685 1.419 . S
C1683 H1687 0.930 . S
C1684 C1683 1.369 . S
C1684 C1693 1.429 . S
C1685 C1683 1.419 . S
C1685 C1686 1.363 . S
C1685 H1688 0.929 . S
C1686 C1685 1.363 . S
C1686 C1692 1.428 . S
H1687 C1683 0.930 . S
H1688 C1685 0.929 . S
S1689 N1690 1.613 . S
S1689 N1691 1.610 . S
N1690 S1689 1.613 . S
N1690 C1693 1.350 . S
N1691 S1689 1.610 . S
N1691 C1692 1.351 . S
C1692 C1686 1.428 . S
C1692 N1691 1.351 . S
C1692 C1693 1.434 . S
C1693 C1684 1.429 . S
C1693 N1690 1.350 . S
C1693 C1692 1.434 . S
C1694 C1695 1.369 . S
C1694 C1696 1.419 . S
C1694 H1698 0.930 . S
C1695 C1694 1.369 . S
C1695 C1704 1.429 . S
C1696 C1694 1.419 . S
C1696 C1697 1.363 . S
C1696 H1699 0.929 . S
C1697 C1696 1.363 . S
C1697 C1703 1.428 . S
H1698 C1694 0.930 . S
H1699 C1696 0.929 . S
S1700 N1701 1.613 . S
S1700 N1702 1.610 . S
N1701 S1700 1.613 . S
N1701 C1704 1.350 . S
N1702 S1700 1.610 . S
N1702 C1703 1.351 . S
C1703 C1697 1.428 . S
C1703 N1702 1.351 . S
C1703 C1704 1.434 . S
C1704 C1695 1.429 . S
C1704 N1701 1.350 . S
C1704 C1703 1.434 . S
C1705 C1706 1.352 1_556 S
C1705 C1707 1.419 . S
C1705 H1709 0.930 . S
C1706 C1705 1.352 1_554 S
C1706 C1715 1.437 . S
C1707 C1705 1.419 . S
C1707 C1708 1.363 . S
C1707 H1710 0.929 . S
C1708 C1707 1.363 . S
C1708 C1714 1.428 . S
H1709 C1705 0.930 . S
H1710 C1707 0.929 . S
S1711 N1712 1.613 . S
S1711 N1713 1.610 . S
N1712 S1711 1.613 . S
N1712 C1715 1.350 . S
N1713 S1711 1.610 . S
N1713 C1714 1.351 1_554 S
C1714 C1708 1.428 . S
C1714 N1713 1.351 1_556 S
C1714 C1715 1.434 1_556 S
C1715 C1706 1.437 . S
C1715 N1712 1.350 . S
C1715 C1714 1.434 1_554 S
C1716 C1717 1.369 . S
C1716 C1718 1.419 . S
C1716 H1720 0.930 . S
C1717 C1716 1.369 . S
C1717 C1726 1.429 . S
C1718 C1716 1.419 . S
C1718 C1719 1.363 . S
C1718 H1721 0.929 . S
C1719 C1718 1.363 . S
C1719 C1725 1.428 . S
H1720 C1716 0.930 . S
H1721 C1718 0.929 . S
S1722 N1723 1.613 . S
S1722 N1724 1.610 . S
N1723 S1722 1.613 . S
N1723 C1726 1.350 . S
N1724 S1722 1.610 . S
N1724 C1725 1.351 . S
C1725 C1719 1.428 . S
C1725 N1724 1.351 . S
C1725 C1726 1.434 . S
C1726 C1717 1.429 . S
C1726 N1723 1.350 . S
C1726 C1725 1.434 . S
C1727 C1728 1.369 . S
C1727 C1729 1.419 . S
C1727 H1731 0.930 . S
C1728 C1727 1.369 . S
C1728 C1737 1.429 1_554 S
C1729 C1727 1.419 . S
C1729 C1730 1.363 . S
C1729 H1732 0.929 . S
C1730 C1729 1.363 . S
C1730 C1736 1.428 . S
H1731 C1727 0.930 . S
H1732 C1729 0.929 . S
S1733 N1734 1.613 . S
S1733 N1735 1.610 . S
N1734 S1733 1.613 . S
N1734 C1737 1.350 . S
N1735 S1733 1.610 . S
N1735 C1736 1.351 1_556 S
C1736 C1730 1.428 . S
C1736 N1735 1.351 1_554 S
C1736 C1737 1.434 1_554 S
C1737 C1728 1.429 1_556 S
C1737 N1734 1.350 . S
C1737 C1736 1.434 1_556 S
C1738 C1739 1.369 . S
C1738 C1740 1.419 . S
C1738 H1742 0.930 . S
C1739 C1738 1.369 . S
C1739 C1748 1.429 . S
C1740 C1738 1.419 . S
C1740 C1741 1.363 . S
C1740 H1743 0.929 . S
C1741 C1740 1.363 . S
C1741 C1747 1.428 . S
H1742 C1738 0.930 . S
H1743 C1740 0.929 . S
S1744 N1745 1.613 . S
S1744 N1746 1.610 . S
N1745 S1744 1.613 . S
N1745 C1748 1.350 . S
N1746 S1744 1.610 . S
N1746 C1747 1.351 . S
C1747 C1741 1.428 . S
C1747 N1746 1.351 . S
C1747 C1748 1.434 . S
C1748 C1739 1.429 . S
C1748 N1745 1.350 . S
C1748 C1747 1.434 . S
C1749 C1750 1.369 . S
C1749 C1751 1.419 . S
C1749 H1753 0.930 . S
C1750 C1749 1.369 . S
C1750 C1759 1.429 . S
C1751 C1749 1.419 . S
C1751 C1752 1.363 . S
C1751 H1754 0.929 . S
C1752 C1751 1.363 . S
C1752 C1758 1.428 . S
H1753 C1749 0.930 . S
H1754 C1751 0.929 . S
S1755 N1756 1.613 . S
S1755 N1757 1.610 . S
N1756 S1755 1.613 . S
N1756 C1759 1.350 . S
N1757 S1755 1.610 . S
N1757 C1758 1.351 . S
C1758 C1752 1.428 . S
C1758 N1757 1.351 . S
C1758 C1759 1.434 . S
C1759 C1750 1.429 . S
C1759 N1756 1.350 . S
C1759 C1758 1.434 . S
C707 C352 1.200 . S
C705 C13 1.212 . S
C716 C25 1.476 . S
C718 C380 1.334 . S
C727 C39 1.199 . S
C729 C398 1.170 . S
C740 C424 1.441 . S
C738 C50 1.634 . S
C749 C21 1.499 1_655 S
C751 C447 1.343 . S
C762 C467 1.214 . S
C760 C35 1.233 . S
C773 C495 1.377 . S
C771 C55 1.461 . S
C782 C8 1.301 . S
C784 C513 1.286 . S
C793 C69 1.312 . S
C795 C354 1.387 1_545 S
C804 C77 1.225 . S
C806 C376 1.200 . S
C817 C400 1.428 . S
C815 C97 1.355 1_545 S
C828 C421 1.237 . S
C826 C105 1.256 . S
C837 C63 1.286 . S
C839 C444 1.273 . S
C850 C469 1.441 . S
C848 C83 1.373 . S
C861 C491 1.185 . S
C859 C91 1.197 . S
C872 C515 1.424 . S
C870 C111 1.341 . S
C883 C355 1.098 . S
C881 C106 1.230 . S
C894 C538 1.267 . S
C892 C123 1.263 . S
C903 C134 1.262 . S
C905 C562 1.119 . S
C916 C586 1.192 . S
C914 C151 1.214 . S
C925 C64 1.249 . S
C927 C516 1.121 . S
C938 C401 1.111 . S
C936 C78 1.266 . S
C947 C137 1.205 . S
C949 C607 1.212 . S
C960 C632 1.193 . S
C958 C165 1.222 . S
C969 C175 1.203 . S
C971 C353 1.171 . S
C982 C630 1.121 . S
C980 C193 1.077 . S
C991 C209 1.081 . S
C993 C399 1.123 . S
C1002 C223 1.044 . S
C1004 C609 1.054 . S
C1015 C448 1.055 . S
C1013 C195 1.039 . S
C1026 C560 1.099 . S
C1024 C207 1.097 . S
C1037 C492 1.109 . S
C1035 C221 1.080 . S
C1048 C652 1.211 . S
C1046 C176 1.178 . S
C1059 C357 1.035 . S
C1057 C231 1.161 . S
C1068 C251 1.290 . S
C1070 C628 1.364 . S
C1081 C403 1.074 . S
C1079 C259 1.198 . S
C1090 C279 1.295 . S
C1092 C606 1.378 . S
C1101 C237 1.295 . S
C1103 C445 1.377 . S
C1112 C245 1.202 . S
C1114 C564 1.080 . S
C1125 C490 1.367 . S
C1123 C265 1.285 . S
C1134 C273 1.148 . S
C1136 C656 1.042 . S
C1145 C274 1.319 . S
C1147 C356 1.352 . S
C1156 C291 1.237 . S
C1158 C541 1.154 . S
C1167 C302 1.348 . S
C1169 C471 1.381 . S
C1178 C319 1.246 . S
C1180 C585 1.130 . S
C1191 C655 1.358 . S
C1189 C232 1.344 . S
C1202 C402 1.397 . S
C1200 C246 1.384 . S
C1213 C426 1.160 . S
C1211 C305 1.252 . S
C1224 C378 1.132 . S
C1222 C333 1.235 . S
C1233 C36 1.284 . S
C1235 C674 1.265 . S
C1246 C633 1.315 . S
C1244 C53 1.454 . S
C1257 C697 1.223 . S
C1255 C7 1.249 . S
C1266 C22 1.599 . S
C1268 C608 1.407 . S
C1277 C49 1.536 . S
C1279 C539 1.383 . S
C1290 C559 1.159 . S
C1288 C11 1.189 . S
C1301 C587 1.382 . S
C1299 C27 1.480 1_455 S
C1312 C651 1.218 . S
C1310 C41 1.220 . S
C1323 C676 1.414 . S
C1321 C167 1.344 . S
C1332 C119 1.228 . S
C1334 C629 1.208 . S
C1343 C139 1.382 . S
C1345 C699 1.451 . S
C1356 C605 1.246 . S
C1354 C147 1.262 . S
C1367 C536 1.260 . S
C1365 C161 1.284 . S
C1376 C125 1.355 . S
C1378 C561 1.416 . S
C1389 C583 1.174 . S
C1387 C133 1.198 . S
C1398 C153 1.333 . S
C1400 C653 1.395 . S
C1411 C677 1.126 . S
C1409 C148 1.243 . S
C1422 C446 1.237 . S
C1420 C81 1.235 . S
C1433 C470 1.149 . S
C1431 C92 1.278 . S
C1442 C109 1.190 . S
C1444 C494 1.167 . S
C1455 C654 1.106 . S
C1453 C162 1.242 . S
C1464 C120 1.281 . S
C1466 C700 1.155 . S
C1477 C423 1.239 . S
C1475 C95 1.234 . S
C1488 C379 1.219 . S
C1486 C67 1.246 . S
C1497 C203 1.213 . S
C1499 C675 1.192 . S
C1510 C377 1.239 . S
C1508 C217 1.231 . S
C1521 C698 1.130 . S
C1519 C181 1.065 1_455 S
C1530 C190 1.150 . S
C1532 C425 1.177 . S
C1541 C218 1.148 . S
C1543 C540 1.181 . S
C1552 C179 1.108 . S
C1554 C468 1.093 . S
C1563 C189 1.227 . S
C1565 C584 1.229 . S
C1574 C204 1.200 . S
C1576 C514 1.225 . S
C1587 C679 1.082 . S
C1585 C329 1.210 . S
C1596 C293 1.237 . S
C1598 C375 1.320 . S
C1609 C702 1.103 . S
C1607 C301 1.245 . S
C1618 C321 1.263 . S
C1620 C422 1.326 . S
C1629 C335 1.264 . S
C1631 C537 1.323 . S
C1642 C472 1.104 . S
C1640 C287 1.256 . S
C1651 C307 1.237 . S
C1653 C582 1.324 . S
C1664 C518 1.070 . S
C1662 C315 1.198 . S
C1675 C678 1.331 . S
C1673 C316 1.313 . S
C1686 C449 1.219 . S
C1684 C249 1.309 . S
C1695 C260 1.377 . S
C1697 C563 1.391 . S
C1708 C493 1.186 . S
C1706 C277 1.321 . S
C1719 C517 1.340 . S
C1717 C330 1.326 . S
C1728 C288 1.355 . S
C1730 C701 1.383 . S
C1741 C610 1.219 . S
C1739 C263 1.328 . S
C1752 C631 1.177 . S
C1750 C235 1.315 . S
