# Generated by pormake.
# Topology pth, (4,4)-cn, num edge types: 1
# Building blocks:
#     Node 0, Type 0, BuildingBlock: TATPOV_clean_sbu_0, # of connection points: 4
#     Node 1, Type 0, BuildingBlock: TATPOV_clean_sbu_0, # of connection points: 4
#     Node 2, Type 0, BuildingBlock: TATPOV_clean_sbu_0, # of connection points: 4
#     Node 3, Type 1, BuildingBlock: NAWXER_clean_sbu_0, # of connection points: 4
#     Node 4, Type 1, BuildingBlock: NAWXER_clean_sbu_0, # of connection points: 4
#     Node 5, Type 1, BuildingBlock: NAWXER_clean_sbu_0, # of connection points: 4
#     Edge 6, Type (0, 1), BuildingBlock: MIFKUJ_clean_linker_0, # of connection points: 2
#     Edge 7, Type (0, 1), BuildingBlock: MIFKUJ_clean_linker_0, # of connection points: 2
#     Edge 8, Type (0, 1), BuildingBlock: MIFKUJ_clean_linker_0, # of connection points: 2
#     Edge 9, Type (0, 1), BuildingBlock: MIFKUJ_clean_linker_0, # of connection points: 2
#     Edge 10, Type (0, 1), BuildingBlock: MIFKUJ_clean_linker_0, # of connection points: 2
#     Edge 11, Type (0, 1), BuildingBlock: MIFKUJ_clean_linker_0, # of connection points: 2
#     Edge 12, Type (0, 1), BuildingBlock: MIFKUJ_clean_linker_0, # of connection points: 2
#     Edge 13, Type (0, 1), BuildingBlock: MIFKUJ_clean_linker_0, # of connection points: 2
#     Edge 14, Type (0, 1), BuildingBlock: MIFKUJ_clean_linker_0, # of connection points: 2
#     Edge 15, Type (0, 1), BuildingBlock: MIFKUJ_clean_linker_0, # of connection points: 2
#     Edge 16, Type (0, 1), BuildingBlock: MIFKUJ_clean_linker_0, # of connection points: 2
#     Edge 17, Type (0, 1), BuildingBlock: MIFKUJ_clean_linker_0, # of connection points: 2
# Relax obj value: 0.048
# Max RMSD: 0.171
# Mean RMSD: 0.098
data_MOF--net-pth--node1-TATPOV_clean_sbu_0--node2-NAWXER_clean_sbu_0--edge1-MIFKUJ_clean_linker_0
_symmetry_space_group_name_H-M    P1
_symmetry_Int_Tables_number       1
_symmetry_cell_setting            triclinic
loop_
_symmetry_equiv_pos_as_xyz
'x, y, z'
_cell_length_a     30.12341
_cell_length_b     29.801442
_cell_length_c     73.253628
_cell_angle_alpha  92.325881
_cell_angle_beta   92.198596
_cell_angle_gamma 121.13478
loop_
_atom_site_label
_atom_site_type_symbol
_atom_site_fract_x
_atom_site_fract_y
_atom_site_fract_z
_atom_type_partial_charge
Zn0 Zn 0.1736 0.0498 0.06367 0.0
Zn1 Zn 0.11271 0.08205 0.07712 0.0
O2 O 0.12085 0.03895 0.09686 0.0
O3 O 0.17639 0.01786 0.08725 0.0
O4 O 0.08351 0.12046 0.09062 0.0
O5 O 0.22965 0.12253 0.05752 0.0
O6 O 0.17545 0.1455 0.0669 0.0
C7 C 0.14634 0.01608 0.09921 0.0
C8 C 0.06783 0.00331 0.04503 0.0
O9 O 0.06068 0.03185 0.05657 0.0
O10 O 0.11097 0.00519 0.04545 0.0
C11 C 0.05523 0.10499 0.10415 0.0
O12 O 0.037 0.05695 0.10907 0.0
C13 C 0.2178 0.15727 0.05985 0.0
Zn14 Zn 0.13887 0.15115 0.38827 0.0
Zn15 Zn 0.05724 0.10446 0.40807 0.0
O16 O 0.1201 0.12467 0.42631 0.0
O17 O 0.18809 0.16332 0.40986 0.0
O18 O 0.99698 0.08504 0.424 0.0
O19 O 0.12534 0.20643 0.37975 0.0
O20 O 0.05294 0.16022 0.39334 0.0
C21 C 0.16895 0.14616 0.42494 0.0
C22 C 0.06605 0.03907 0.37791 0.0
O23 O 0.04161 0.03953 0.3917 0.0
O24 O 0.10561 0.08108 0.37355 0.0
C25 C 0.99574 0.07537 0.4408 0.0
O26 O 0.03357 0.07154 0.44856 0.0
C27 C 0.08084 0.19746 0.38332 0.0
Zn28 Zn 0.06011 0.92385 0.75065 0.0
Zn29 Zn 0.02918 0.98379 0.73553 0.0
O30 O 0.07503 0.97458 0.71739 0.0
O31 O 0.0938 0.91802 0.72799 0.0
O32 O 0.99141 0.00919 0.71959 0.0
O33 O 0.98784 0.86781 0.75687 0.0
O34 O 0.96611 0.92209 0.74626 0.0
C35 C 0.09745 0.9484 0.71578 0.0
C36 C 0.10451 0.03311 0.76779 0.0
O37 O 0.07659 0.03922 0.75577 0.0
O38 O 0.10291 0.98967 0.76804 0.0
C39 C 0.96557 0.97579 0.70617 0.0
O40 O 0.9694 0.93392 0.70415 0.0
C41 C 0.95385 0.88002 0.75393 0.0
C42 C 0.05048 0.62795 0.26637 0.0
C43 C 0.04783 0.49263 0.22536 0.0
O44 O 0.08938 0.62356 0.26315 0.0
Zn45 Zn 0.05242 0.5631 0.24551 0.0
O46 O 0.0059 0.59562 0.25821 0.0
Zn47 Zn 0.97024 0.52886 0.23885 0.0
O48 O 0.91976 0.4741 0.25343 0.0
O49 O 0.00187 0.50515 0.2629 0.0
O50 O 0.00347 0.48855 0.22609 0.0
O51 O 0.08758 0.53094 0.23413 0.0
O52 O 0.03384 0.59546 0.22327 0.0
O53 O 0.94856 0.55566 0.21866 0.0
C54 C 0.95323 0.47457 0.26472 0.0
C55 C 0.99376 0.5902 0.21441 0.0
C56 C 0.58814 0.01037 0.59262 0.0
C57 C 0.48778 0.04877 0.54833 0.0
O58 O 0.55301 0.97705 0.58084 0.0
Zn59 Zn 0.53825 0.02642 0.56944 0.0
O60 O 0.60113 0.05871 0.59301 0.0
Zn61 Zn 0.58234 0.10873 0.57894 0.0
O62 O 0.55783 0.13465 0.5986 0.0
O63 O 0.50798 0.04902 0.59163 0.0
O64 O 0.52295 0.08874 0.55827 0.0
O65 O 0.48363 0.00432 0.54967 0.0
O66 O 0.6084 0.07194 0.5565 0.0
O67 O 0.64683 0.15473 0.56741 0.0
C68 C 0.5181 0.09034 0.60139 0.0
C69 C 0.64618 0.11953 0.55678 0.0
C70 C 0.49132 0.53024 0.93419 0.0
C71 C 0.57823 0.61419 0.87919 0.0
O72 O 0.4845 0.56278 0.92561 0.0
Zn73 Zn 0.53282 0.57402 0.90665 0.0
O74 O 0.52234 0.51651 0.92829 0.0
Zn75 Zn 0.57233 0.53062 0.90682 0.0
O76 O 0.63971 0.56093 0.92017 0.0
O77 O 0.60571 0.61104 0.92237 0.0
O78 O 0.58948 0.58137 0.8853 0.0
O79 O 0.5469 0.62309 0.88751 0.0
O80 O 0.49339 0.49994 0.89116 0.0
O81 O 0.53969 0.46207 0.89358 0.0
C82 C 0.64252 0.6028 0.9265 0.0
C83 C 0.49932 0.46116 0.88718 0.0
H84 H 0.98793 0.0857 0.13108 0.0
H85 H 0.98578 0.15064 0.15217 0.0
H86 H 0.11071 0.27611 0.12546 0.0
H87 H 0.11245 0.21193 0.10414 0.0
H88 H 0.12381 0.27958 0.16592 0.0
H89 H 0.00147 0.2607 0.11657 0.0
H90 H 0.92329 0.20962 0.09544 0.0
H91 H 0.82823 0.15318 0.14112 0.0
H92 H 0.906 0.20338 0.16253 0.0
H93 H 0.12908 0.50354 0.20633 0.0
H94 H 0.12996 0.43624 0.18622 0.0
H95 H 0.97562 0.3218 0.20074 0.0
H96 H 0.97371 0.38952 0.21993 0.0
H97 H 0.97669 0.30979 0.16674 0.0
H98 H 0.09108 0.32452 0.21644 0.0
H99 H 0.16558 0.36927 0.2394 0.0
H100 H 0.27094 0.42405 0.19649 0.0
H101 H 0.19696 0.38027 0.17325 0.0
C102 C 0.01451 0.12713 0.12957 0.0
C103 C 0.05023 0.14361 0.1159 0.0
C104 C 0.01331 0.16411 0.14164 0.0
C105 C 0.04829 0.21807 0.14039 0.0
C106 C 0.08357 0.23462 0.12667 0.0
C107 C 0.0842 0.19782 0.11442 0.0
C108 C 0.0487 0.25744 0.15352 0.0
C109 C 0.09197 0.28673 0.16604 0.0
C110 C 0.00634 0.26524 0.15402 0.0
C111 C 0.95961 0.23532 0.14114 0.0
C112 C 0.96396 0.23701 0.12211 0.0
C113 C 0.91971 0.20831 0.11008 0.0
C114 C 0.87084 0.17805 0.11693 0.0
C115 C 0.86611 0.17656 0.13583 0.0
C116 C 0.91025 0.20516 0.14792 0.0
C117 C 0.09564 0.46387 0.2053 0.0
C118 C 0.05124 0.45174 0.21456 0.0
C119 C 0.09617 0.4253 0.19388 0.0
C120 C 0.05295 0.37355 0.19201 0.0
C121 C 0.00927 0.36134 0.20175 0.0
C122 C 0.00826 0.40007 0.21277 0.0
C123 C 0.05206 0.33258 0.17935 0.0
C124 C 0.00865 0.30282 0.16683 0.0
C125 C 0.09379 0.32343 0.17919 0.0
C126 C 0.13844 0.34955 0.19311 0.0
C127 C 0.13011 0.34644 0.2119 0.0
C128 C 0.17225 0.37158 0.22496 0.0
C129 C 0.22296 0.39959 0.21941 0.0
C130 C 0.23163 0.40239 0.20077 0.0
C131 C 0.18961 0.37739 0.18765 0.0
H132 H 0.25555 0.41904 0.22954 0.0
H133 H 0.83663 0.15586 0.1076 0.0
H134 H 0.92438 0.10216 0.43071 0.0
H135 H 0.866 0.11284 0.45024 0.0
H136 H 0.91949 0.06228 0.49596 0.0
H137 H 0.97816 0.05152 0.47653 0.0
H138 H 0.81251 0.0185 0.49359 0.0
H139 H 0.96711 0.18987 0.49239 0.0
H140 H 0.03456 0.26597 0.47743 0.0
H141 H 0.91787 0.29008 0.45248 0.0
H142 H 0.84961 0.21355 0.46706 0.0
H143 H 0.72078 0.09935 0.56623 0.0
H144 H 0.78277 0.09653 0.54623 0.0
H145 H 0.73001 0.15541 0.50293 0.0
H146 H 0.66845 0.15912 0.52319 0.0
H147 H 0.83484 0.19514 0.50303 0.0
H148 H 0.68046 0.02712 0.5049 0.0
H149 H 0.61196 0.95122 0.51959 0.0
H150 H 0.72537 0.91883 0.54212 0.0
H151 H 0.79473 0.99502 0.52777 0.0
C152 C 0.92336 0.09268 0.44486 0.0
C153 C 0.95619 0.07617 0.45207 0.0
C154 C 0.89014 0.09914 0.45604 0.0
C155 C 0.88892 0.08908 0.47462 0.0
C156 C 0.91998 0.0705 0.48168 0.0
C157 C 0.95353 0.0644 0.47055 0.0
C158 C 0.85622 0.09913 0.48683 0.0
C159 C 0.81778 0.05722 0.49584 0.0
C160 C 0.86215 0.14939 0.48933 0.0
C161 C 0.9032 0.19563 0.48066 0.0
C162 C 0.95579 0.21112 0.48359 0.0
C163 C 0.99417 0.25438 0.47519 0.0
C164 C 0.9805 0.28273 0.46394 0.0
C165 C 0.92841 0.26799 0.46113 0.0
C166 C 0.88986 0.22471 0.46947 0.0
C167 C 0.72384 0.1134 0.55265 0.0
C168 C 0.69079 0.13032 0.54626 0.0
C169 C 0.75875 0.11122 0.54118 0.0
C170 C 0.76038 0.12484 0.52297 0.0
C171 C 0.72938 0.14466 0.51691 0.0
C172 C 0.6945 0.14707 0.52847 0.0
C173 C 0.79152 0.11462 0.51001 0.0
C174 C 0.8295 0.15638 0.50079 0.0
C175 C 0.78489 0.06406 0.5072 0.0
C176 C 0.743 0.01738 0.51549 0.0
C177 C 0.69091 0.00411 0.51311 0.0
C178 C 0.65188 0.96096 0.52135 0.0
C179 C 0.66433 0.93036 0.53185 0.0
C180 C 0.71579 0.94263 0.53402 0.0
C181 C 0.75497 0.98578 0.52582 0.0
H182 H 0.63407 0.89702 0.53825 0.0
H183 H 0.01026 0.3162 0.45745 0.0
H184 H 0.91068 0.78396 0.76835 0.0
H185 H 0.83056 0.73938 0.78426 0.0
H186 H 0.80008 0.86205 0.77267 0.0
H187 H 0.87994 0.90678 0.75656 0.0
H188 H 0.79686 0.84276 0.80957 0.0
H189 H 0.72108 0.74516 0.75254 0.0
H190 H 0.71402 0.69308 0.72437 0.0
H191 H 0.7072 0.57254 0.75648 0.0
H192 H 0.71501 0.62424 0.78486 0.0
H193 H 0.57763 0.6971 0.86364 0.0
H194 H 0.62497 0.74329 0.83725 0.0
H195 H 0.68248 0.63791 0.83143 0.0
H196 H 0.63522 0.59162 0.8571 0.0
H197 H 0.65726 0.65535 0.79885 0.0
H198 H 0.75313 0.76149 0.85502 0.0
H199 H 0.76357 0.81365 0.88363 0.0
H200 H 0.73574 0.91807 0.85332 0.0
H201 H 0.72417 0.86591 0.82455 0.0
C202 C 0.8865 0.801 0.76887 0.0
C203 C 0.9019 0.84905 0.76124 0.0
C204 C 0.84062 0.7754 0.77794 0.0
C205 C 0.80936 0.79741 0.77963 0.0
C206 C 0.82366 0.84443 0.77151 0.0
C207 C 0.86925 0.86979 0.76226 0.0
C208 C 0.76429 0.77326 0.79116 0.0
C209 C 0.76556 0.80213 0.80701 0.0
C210 C 0.72381 0.7202 0.78789 0.0
C211 C 0.71891 0.68877 0.77085 0.0
C212 C 0.71846 0.70773 0.75361 0.0
C213 C 0.71426 0.67823 0.7376 0.0
C214 C 0.71023 0.62956 0.73864 0.0
C215 C 0.71031 0.61024 0.75569 0.0
C216 C 0.71454 0.6396 0.77175 0.0
C217 C 0.59993 0.68358 0.85656 0.0
C218 C 0.60301 0.64101 0.86262 0.0
C219 C 0.62705 0.71003 0.84153 0.0
C220 C 0.65767 0.69431 0.83243 0.0
C221 C 0.65908 0.65074 0.83813 0.0
C222 C 0.63219 0.62449 0.85299 0.0
C223 C 0.69112 0.72416 0.81766 0.0
C224 C 0.68772 0.69639 0.80117 0.0
C225 C 0.72996 0.7781 0.82042 0.0
C226 C 0.73708 0.80944 0.83769 0.0
C227 C 0.74883 0.79534 0.85449 0.0
C228 C 0.75503 0.82492 0.87072 0.0
C229 C 0.75023 0.86907 0.8703 0.0
C230 C 0.73931 0.88378 0.85363 0.0
C231 C 0.73288 0.85421 0.83736 0.0
H232 H 0.75508 0.89194 0.88289 0.0
H233 H 0.70698 0.60679 0.72622 0.0
H234 H 0.06432 0.97928 0.12092 0.0
H235 H 0.03465 0.90682 0.14082 0.0
H236 H 0.1706 0.89827 0.13118 0.0
H237 H 0.19962 0.96964 0.11073 0.0
H238 H 0.08844 0.80518 0.12577 0.0
H239 H 0.14975 0.94292 0.17366 0.0
H240 H 0.15686 0.02029 0.19025 0.0
H241 H 0.99315 0.93267 0.19768 0.0
H242 H 0.98494 0.85493 0.18092 0.0
H243 H 0.07948 0.64477 0.19549 0.0
H244 H 0.09905 0.71538 0.17557 0.0
H245 H 0.94717 0.69272 0.18196 0.0
H246 H 0.92708 0.62127 0.20205 0.0
H247 H 0.02903 0.7981 0.18838 0.0
H248 H 0.97059 0.65824 0.1419 0.0
H249 H 0.96621 0.58138 0.12602 0.0
H250 H 0.12842 0.67447 0.11666 0.0
H251 H 0.13398 0.75175 0.13273 0.0
C252 C 0.08858 0.96286 0.12336 0.0
C253 C 0.13431 0.9802 0.11416 0.0
C254 C 0.07151 0.92131 0.13478 0.0
C255 C 0.10032 0.89691 0.13755 0.0
C256 C 0.14745 0.91614 0.12917 0.0
C257 C 0.16421 0.95723 0.11757 0.0
C258 C 0.07966 0.84902 0.14801 0.0
C259 C 0.07615 0.804 0.13956 0.0
C260 C 0.06178 0.84661 0.16576 0.0
C261 C 0.06665 0.89328 0.17587 0.0
C262 C 0.11519 0.94028 0.1787 0.0
C263 C 0.11943 0.98417 0.18816 0.0
C264 C 0.07546 0.98145 0.19497 0.0
C265 C 0.02717 0.93475 0.19237 0.0
C266 C 0.02271 0.89075 0.18291 0.0
C267 C 0.04984 0.65417 0.19246 0.0
C268 C 0.00169 0.62742 0.20033 0.0
C269 C 0.06109 0.69453 0.18103 0.0
C270 C 0.02456 0.70925 0.17725 0.0
C271 C 0.97587 0.68187 0.18471 0.0
C272 C 0.96429 0.64085 0.19604 0.0
C273 C 0.03889 0.75498 0.16623 0.0
C274 C 0.04108 0.79942 0.17454 0.0
C275 C 0.056 0.75709 0.1484 0.0
C276 C 0.05276 0.71072 0.13865 0.0
C277 C 0.00543 0.66224 0.13658 0.0
C278 C 0.00272 0.61861 0.12752 0.0
C279 C 0.04703 0.62301 0.12037 0.0
C280 C 0.09413 0.6711 0.12222 0.0
C281 C 0.09706 0.71486 0.13128 0.0
H282 H 0.04485 0.58918 0.11336 0.0
H283 H 0.07882 0.01548 0.20228 0.0
H284 H 0.1427 0.11179 0.45938 0.0
H285 H 0.19481 0.09692 0.48207 0.0
H286 H 0.32099 0.15672 0.44632 0.0
H287 H 0.27028 0.17335 0.42403 0.0
H288 H 0.23025 0.03356 0.48049 0.0
H289 H 0.43601 0.21063 0.46931 0.0
H290 H 0.47689 0.30333 0.46202 0.0
H291 H 0.35066 0.3111 0.48393 0.0
H292 H 0.30938 0.2187 0.49157 0.0
H293 H 0.4264 0.98746 0.51771 0.0
H294 H 0.36922 0.0039 0.49787 0.0
H295 H 0.40774 0.14042 0.53322 0.0
H296 H 0.46564 0.12549 0.55241 0.0
H297 H 0.41339 0.16606 0.50066 0.0
H298 H 0.28703 0.02106 0.53196 0.0
H299 H 0.2424 0.93162 0.54274 0.0
H300 H 0.20343 0.8658 0.48711 0.0
H301 H 0.24844 0.9549 0.47599 0.0
C302 C 0.18196 0.12281 0.45653 0.0
C303 C 0.20232 0.14404 0.4399 0.0
C304 C 0.21155 0.11385 0.46945 0.0
C305 C 0.26199 0.12588 0.46598 0.0
C306 C 0.28263 0.14799 0.44953 0.0
C307 C 0.25342 0.15747 0.43675 0.0
C308 C 0.29263 0.11382 0.47916 0.0
C309 C 0.27024 0.0626 0.48497 0.0
C310 C 0.3446 0.15177 0.48525 0.0
C311 C 0.36939 0.20757 0.48085 0.0
C312 C 0.41709 0.23219 0.47264 0.0
C313 C 0.44031 0.28467 0.46843 0.0
C314 C 0.4163 0.31303 0.47245 0.0
C315 C 0.36911 0.28903 0.48075 0.0
C316 C 0.34575 0.23658 0.485 0.0
C317 C 0.4224 0.02081 0.52119 0.0
C318 C 0.45096 0.05547 0.53648 0.0
C319 C 0.38957 0.03008 0.50993 0.0
C320 C 0.38402 0.07347 0.51404 0.0
C321 C 0.41165 0.10708 0.52958 0.0
C322 C 0.44483 0.0984 0.54058 0.0
C323 C 0.3512 0.08569 0.502 0.0
C324 C 0.37333 0.13696 0.49627 0.0
C325 C 0.29856 0.04825 0.49653 0.0
C326 C 0.27157 0.99464 0.50315 0.0
C327 C 0.2693 0.98751 0.52203 0.0
C328 C 0.24387 0.93688 0.5282 0.0
C329 C 0.22022 0.89305 0.51562 0.0
C330 C 0.22185 0.89978 0.49684 0.0
C331 C 0.24727 0.95033 0.49059 0.0
H332 H 0.20054 0.85389 0.52042 0.0
H333 H 0.43433 0.35365 0.46917 0.0
H334 H 0.17673 0.03492 0.7918 0.0
H335 H 0.24108 0.10755 0.81239 0.0
H336 H 0.18091 0.20361 0.79485 0.0
H337 H 0.11672 0.13091 0.77358 0.0
H338 H 0.28329 0.25762 0.79603 0.0
H339 H 0.15861 0.15174 0.8376 0.0
H340 H 0.09954 0.07079 0.85238 0.0
H341 H 0.22907 0.05761 0.87087 0.0
H342 H 0.28888 0.13812 0.85598 0.0
H343 H 0.41768 0.45597 0.86787 0.0
H344 H 0.35025 0.38307 0.84797 0.0
H345 H 0.42101 0.29191 0.85887 0.0
H346 H 0.48929 0.36524 0.879 0.0
H347 H 0.31227 0.23647 0.86147 0.0
H348 H 0.43635 0.34386 0.81916 0.0
H349 H 0.49377 0.42653 0.80498 0.0
H350 H 0.36207 0.43848 0.78859 0.0
H351 H 0.30392 0.35624 0.80292 0.0
C352 C 0.17667 0.07126 0.79236 0.0
C353 C 0.14131 0.07697 0.78105 0.0
C354 C 0.21349 0.11279 0.80426 0.0
C355 C 0.21538 0.16083 0.80542 0.0
C356 C 0.18003 0.16678 0.79423 0.0
C357 C 0.14327 0.12519 0.78213 0.0
C358 C 0.25573 0.20519 0.81783 0.0
C359 C 0.28901 0.25321 0.8104 0.0
C360 C 0.26404 0.19916 0.83652 0.0
C361 C 0.22819 0.15075 0.84554 0.0
C362 C 0.17447 0.13138 0.8447 0.0
C363 C 0.14086 0.0856 0.85312 0.0
C364 C 0.16053 0.05901 0.86253 0.0
C365 C 0.21388 0.07822 0.86357 0.0
C366 C 0.24767 0.12396 0.85516 0.0
C367 C 0.41913 0.42051 0.86608 0.0
C368 C 0.45899 0.41645 0.87502 0.0
C369 C 0.38057 0.37893 0.85462 0.0
C370 C 0.38092 0.33234 0.85183 0.0
C371 C 0.42024 0.32771 0.86084 0.0
C372 C 0.45925 0.36962 0.87226 0.0
C373 C 0.33971 0.28848 0.83961 0.0
C374 C 0.30633 0.24069 0.84708 0.0
C375 C 0.33098 0.29489 0.82103 0.0
C376 C 0.36584 0.34412 0.81226 0.0
C377 C 0.41967 0.36432 0.81266 0.0
C378 C 0.45235 0.41107 0.80457 0.0
C379 C 0.4316 0.43781 0.79593 0.0
C380 C 0.3781 0.41776 0.79531 0.0
C381 C 0.34526 0.37105 0.80339 0.0
H382 H 0.45696 0.474 0.78968 0.0
H383 H 0.13444 0.02357 0.86903 0.0
H384 H 0.93006 0.04388 0.71012 0.0
H385 H 0.86192 0.04448 0.69086 0.0
H386 H 0.84809 0.91811 0.6554 0.0
H387 H 0.91602 0.91749 0.67438 0.0
H388 H 0.84571 0.99253 0.63592 0.0
H389 H 0.76164 0.89235 0.68695 0.0
H390 H 0.74932 0.87682 0.71968 0.0
H391 H 0.72608 0.00674 0.72711 0.0
H392 H 0.73907 0.02356 0.69446 0.0
H393 H 0.60836 0.93069 0.5883 0.0
H394 H 0.66791 0.91741 0.60806 0.0
H395 H 0.69224 0.04482 0.64553 0.0
H396 H 0.63332 0.05819 0.62599 0.0
H397 H 0.68613 0.96374 0.66376 0.0
H398 H 0.77814 0.06996 0.61479 0.0
H399 H 0.79477 0.09126 0.58265 0.0
H400 H 0.80444 0.954 0.5718 0.0
H401 H 0.78761 0.93174 0.60392 0.0
C402 C 0.91289 0.01667 0.69811 0.0
C403 C 0.92824 0.98046 0.69385 0.0
C404 C 0.87375 0.0168 0.68718 0.0
C405 C 0.84943 0.98079 0.67184 0.0
C406 C 0.86615 0.94607 0.6672 0.0
C407 C 0.90495 0.94574 0.67812 0.0
C408 C 0.80579 0.97833 0.66077 0.0
C409 C 0.81049 0.98541 0.64196 0.0
C410 C 0.76017 0.96988 0.6687 0.0
C411 C 0.75181 0.95951 0.6883 0.0
C412 C 0.75428 0.91784 0.69559 0.0
C413 C 0.74712 0.90877 0.71412 0.0
C414 C 0.73704 0.94085 0.72548 0.0
C415 C 0.73395 0.98197 0.7183 0.0
C416 C 0.74117 0.99126 0.69978 0.0
C417 C 0.62557 0.95497 0.60096 0.0
C418 C 0.61655 0.99567 0.60556 0.0
C419 C 0.65977 0.94763 0.61216 0.0
C420 C 0.68492 0.98057 0.62816 0.0
C421 C 0.67335 0.01902 0.63327 0.0
C422 C 0.63981 0.02672 0.62203 0.0
C423 C 0.72619 0.9781 0.63896 0.0
C424 C 0.72111 0.97021 0.65771 0.0
C425 C 0.77162 0.98614 0.63102 0.0
C426 C 0.78114 0.99894 0.61168 0.0
C427 C 0.78337 0.04408 0.6055 0.0
C428 C 0.79291 0.05637 0.58731 0.0
C429 C 0.80055 0.02395 0.57519 0.0
C430 C 0.79851 0.97906 0.58122 0.0
C431 C 0.78906 0.96663 0.59942 0.0
H432 H 0.80844 0.03387 0.56118 0.0
H433 H 0.73153 0.93378 0.73982 0.0
H434 H 0.96933 0.9864 0.03954 0.0
H435 H 0.89808 0.91889 0.0188 0.0
H436 H 0.99844 0.86576 0.0001 0.0
H437 H 0.06984 0.93357 0.0203 0.0
H438 H 0.94145 0.86542 0.97216 0.0
H439 H 0.90913 0.801 0.03203 0.0
H440 H 0.8961 0.80357 0.065 0.0
H441 H 0.76239 0.81608 0.05303 0.0
H442 H 0.77506 0.81432 0.01999 0.0
H443 H 0.73783 0.61257 0.93305 0.0
H444 H 0.81183 0.6808 0.9529 0.0
H445 H 0.72158 0.74991 0.96743 0.0
H446 H 0.6481 0.68261 0.94776 0.0
H447 H 0.77403 0.74015 0.99745 0.0
H448 H 0.80865 0.80447 0.93698 0.0
H449 H 0.82245 0.79919 0.90419 0.0
H450 H 0.95317 0.78299 0.91774 0.0
H451 H 0.93966 0.78735 0.95063 0.0
C452 C 0.97632 0.96063 0.03089 0.0
C453 C 0.02524 0.96525 0.03168 0.0
C454 C 0.93549 0.92187 0.01912 0.0
C455 C 0.94268 0.88666 0.0081 0.0
C456 C 0.99189 0.89233 0.00847 0.0
C457 C 0.0327 0.93116 0.02011 0.0
C458 C 0.89885 0.84313 0.99646 0.0
C459 C 0.90508 0.83768 0.97775 0.0
C460 C 0.85118 0.80712 0.00369 0.0
C461 C 0.84338 0.80808 0.02355 0.0
C462 C 0.87719 0.80472 0.03644 0.0
C463 C 0.86983 0.80596 0.05514 0.0
C464 C 0.82853 0.81014 0.06111 0.0
C465 C 0.79442 0.81294 0.04839 0.0
C466 C 0.80165 0.81178 0.02967 0.0
C467 C 0.73381 0.64222 0.94054 0.0
C468 C 0.68723 0.64233 0.93876 0.0
C469 C 0.77608 0.68121 0.9518 0.0
C470 C 0.77215 0.72051 0.96153 0.0
C471 C 0.72539 0.71996 0.96004 0.0
C472 C 0.68351 0.68152 0.9487 0.0
C473 C 0.81666 0.76276 0.97321 0.0
C474 C 0.81051 0.76789 0.99192 0.0
C475 C 0.86454 0.79808 0.96601 0.0
C476 C 0.87278 0.79564 0.94625 0.0
C477 C 0.84005 0.79931 0.93296 0.0
C478 C 0.84787 0.79658 0.91436 0.0
C479 C 0.88855 0.79062 0.90888 0.0
C480 C 0.92161 0.78751 0.922 0.0
C481 C 0.9139 0.79013 0.94063 0.0
H482 H 0.89454 0.78853 0.89447 0.0
H483 H 0.82289 0.81108 0.07559 0.0
H484 H 0.02571 0.94125 0.3908 0.0
H485 H 0.02256 0.86504 0.37513 0.0
H486 H 0.07315 0.94966 0.32635 0.0
H487 H 0.07796 0.0259 0.34205 0.0
H488 H 0.97572 0.79982 0.34567 0.0
H489 H 0.1613 0.93241 0.30713 0.0
H490 H 0.24168 0.01942 0.31212 0.0
H491 H 0.22979 0.01244 0.37029 0.0
H492 H 0.14982 0.92506 0.36566 0.0
H493 H 0.98468 0.66413 0.26822 0.0
H494 H 0.9873 0.72796 0.29062 0.0
H495 H 0.1274 0.74809 0.31724 0.0
H496 H 0.12582 0.68472 0.29426 0.0
H497 H 0.136 0.83895 0.31578 0.0
H498 H 0.00833 0.67714 0.33635 0.0
H499 H 0.93137 0.58742 0.33431 0.0
H500 H 0.83416 0.647 0.318 0.0
H501 H 0.91064 0.73702 0.31965 0.0
C502 C 0.03501 0.94298 0.37661 0.0
C503 C 0.05259 0.98953 0.36767 0.0
C504 C 0.03347 0.89961 0.36771 0.0
C505 C 0.04916 0.9023 0.34976 0.0
C506 C 0.06245 0.94727 0.34039 0.0
C507 C 0.06476 0.99066 0.34932 0.0
C508 C 0.05409 0.85954 0.34089 0.0
C509 C 0.01078 0.80823 0.3392 0.0
C510 C 0.10064 0.87008 0.33312 0.0
C511 C 0.14933 0.92228 0.33602 0.0
C512 C 0.17601 0.94927 0.32098 0.0
C513 C 0.22147 0.99871 0.32375 0.0
C514 C 0.24077 0.02149 0.34151 0.0
C515 C 0.21473 0.99482 0.35654 0.0
C516 C 0.16931 0.94535 0.35385 0.0
C517 C 0.01615 0.68207 0.27882 0.0
C518 C 0.05489 0.66912 0.27956 0.0
C519 C 0.01735 0.71832 0.29173 0.0
C520 C 0.0567 0.74178 0.30594 0.0
C521 C 0.09634 0.73004 0.30649 0.0
C522 C 0.09552 0.69402 0.29335 0.0
C523 C 0.05672 0.77975 0.31972 0.0
C524 C 0.10109 0.83022 0.32242 0.0
C525 C 0.0117 0.76794 0.32891 0.0
C526 C 0.96535 0.71388 0.32804 0.0
C527 C 0.9706 0.67111 0.33222 0.0
C528 C 0.92704 0.62018 0.33114 0.0
C529 C 0.87792 0.61151 0.32601 0.0
C530 C 0.87224 0.65378 0.32198 0.0
C531 C 0.91568 0.70479 0.32301 0.0
H532 H 0.84425 0.57205 0.32518 0.0
H533 H 0.27592 0.0598 0.34362 0.0
H534 H 0.13101 0.02649 0.69208 0.0
H535 H 0.2033 0.05564 0.67246 0.0
H536 H 0.22026 0.92618 0.68705 0.0
H537 H 0.14891 0.89768 0.70717 0.0
H538 H 0.31052 0.01324 0.69099 0.0
H539 H 0.17267 0.93371 0.64339 0.0
H540 H 0.09378 0.91789 0.62584 0.0
H541 H 0.17232 0.07977 0.6133 0.0
H542 H 0.25151 0.09673 0.63099 0.0
H543 H 0.4637 0.00686 0.62141 0.0
H544 H 0.39493 0.9911 0.64148 0.0
H545 H 0.41918 0.144 0.63225 0.0
H546 H 0.48936 0.16053 0.61224 0.0
H547 H 0.31207 0.05542 0.62612 0.0
H548 H 0.45266 0.13155 0.67217 0.0
H549 H 0.53123 0.14399 0.68892 0.0
H550 H 0.44626 0.984 0.70354 0.0
H551 H 0.36732 0.97033 0.68664 0.0
C552 C 0.14937 0.00352 0.69085 0.0
C553 C 0.13423 0.95981 0.70128 0.0
C554 C 0.19079 0.02028 0.67958 0.0
C555 C 0.21736 0.99316 0.67824 0.0
C556 C 0.20063 0.94799 0.68794 0.0
C557 C 0.15955 0.93151 0.69936 0.0
C558 C 0.26464 0.01366 0.66774 0.0
C559 C 0.31055 0.02182 0.67674 0.0
C560 C 0.26541 0.02671 0.64932 0.0
C561 C 0.21783 0.01662 0.63869 0.0
C562 C 0.17298 0.96604 0.63703 0.0
C563 C 0.12824 0.95685 0.62702 0.0
C564 C 0.12799 0.99783 0.6185 0.0
C565 C 0.17254 0.04808 0.61993 0.0
C566 C 0.21737 0.0575 0.62993 0.0
C567 C 0.45501 0.03753 0.62388 0.0
C568 C 0.48185 0.08496 0.61532 0.0
C569 C 0.41575 0.02847 0.63535 0.0
C570 C 0.40201 0.06635 0.63832 0.0
C571 C 0.42937 0.11434 0.63011 0.0
C572 C 0.46959 0.12388 0.61884 0.0
C573 C 0.35721 0.05388 0.64931 0.0
C574 C 0.3119 0.04725 0.64042 0.0
C575 C 0.35677 0.04174 0.66778 0.0
C576 C 0.40414 0.04981 0.67801 0.0
C577 C 0.45081 0.09887 0.67882 0.0
C578 C 0.49541 0.10618 0.68837 0.0
C579 C 0.49377 0.06479 0.69725 0.0
C580 C 0.44748 0.01602 0.69664 0.0
C581 C 0.40278 0.00849 0.68709 0.0
H582 H 0.52833 0.07052 0.70464 0.0
H583 H 0.09331 0.99063 0.61076 0.0
H584 H 0.19313 0.23296 0.05595 0.0
H585 H 0.23952 0.31262 0.03945 0.0
H586 H 0.36047 0.27932 0.03024 0.0
H587 H 0.31427 0.19938 0.04661 0.0
H588 H 0.39805 0.38751 0.03872 0.0
H589 H 0.26599 0.24028 0.99833 0.0
H590 H 0.17606 0.16923 0.98919 0.0
H591 H 0.12741 0.28155 0.98827 0.0
H592 H 0.21702 0.35321 0.99766 0.0
H593 H 0.51359 0.47601 0.95786 0.0
H594 H 0.46678 0.43081 0.98376 0.0
H595 H 0.36084 0.4857 0.97484 0.0
H596 H 0.40774 0.53111 0.94824 0.0
H597 H 0.30939 0.38219 0.97942 0.0
H598 H 0.44578 0.53188 0.01303 0.0
H599 H 0.53575 0.60321 0.0218 0.0
H600 H 0.57649 0.48999 0.03595 0.0
H601 H 0.48698 0.41788 0.027 0.0
C602 C 0.23009 0.24302 0.05072 0.0
C603 C 0.24978 0.20948 0.05246 0.0
C604 C 0.25645 0.28854 0.04126 0.0
C605 C 0.30312 0.30154 0.03347 0.0
C606 C 0.32447 0.26994 0.03615 0.0
C607 C 0.29792 0.22416 0.04546 0.0
C608 C 0.32764 0.34528 0.02123 0.0
C609 C 0.37881 0.38653 0.02575 0.0
C610 C 0.30168 0.34494 0.00465 0.0
C611 C 0.24797 0.30194 0.99892 0.0
C612 C 0.236 0.24974 0.99633 0.0
C613 C 0.18513 0.20938 0.99108 0.0
C614 C 0.14601 0.22084 0.98822 0.0
C615 C 0.15773 0.27272 0.99054 0.0
C616 C 0.20854 0.31321 0.99582 0.0
C617 C 0.48063 0.47909 0.96139 0.0
C618 C 0.46427 0.50706 0.95087 0.0
C619 C 0.45413 0.45351 0.97641 0.0
C620 C 0.41075 0.45547 0.98149 0.0
C621 C 0.39452 0.48403 0.97124 0.0
C622 C 0.42134 0.51001 0.9561 0.0
C623 C 0.38072 0.42374 0.99657 0.0
C624 C 0.3284 0.38443 0.9926 0.0
C625 C 0.40558 0.42615 0.01373 0.0
C626 C 0.45956 0.46939 0.01927 0.0
C627 C 0.47397 0.52213 0.01791 0.0
C628 C 0.52491 0.56273 0.02292 0.0
C629 C 0.56182 0.55114 0.02942 0.0
C630 C 0.54784 0.49892 0.03093 0.0
C631 C 0.49695 0.45815 0.02592 0.0
H632 H 0.60124 0.58263 0.03329 0.0
H633 H 0.10664 0.18955 0.98414 0.0
H634 H 0.13172 0.28301 0.36318 0.0
H635 H 0.09415 0.32412 0.34528 0.0
H636 H 0.94318 0.2171 0.36418 0.0
H637 H 0.98074 0.17642 0.38249 0.0
H638 H 0.02457 0.28265 0.31735 0.0
H639 H 0.87089 0.27669 0.36359 0.0
H640 H 0.8561 0.27847 0.39645 0.0
H641 H 0.02085 0.36391 0.40991 0.0
H642 H 0.03661 0.36326 0.37713 0.0
H643 H 0.89096 0.36771 0.26265 0.0
H644 H 0.89231 0.31048 0.28565 0.0
H645 H 0.98708 0.44632 0.32311 0.0
H646 H 0.98607 0.50312 0.30022 0.0
H647 H 0.92328 0.35792 0.34146 0.0
H648 H 0.04495 0.41279 0.29379 0.0
H649 H 0.06798 0.42036 0.26163 0.0
H650 H 0.98304 0.25221 0.25267 0.0
H651 H 0.95858 0.24368 0.2847 0.0
C652 C 0.09066 0.26865 0.36376 0.0
C653 C 0.05926 0.22637 0.37427 0.0
C654 C 0.06915 0.292 0.35342 0.0
C655 C 0.0158 0.27364 0.35332 0.0
C656 C 0.98452 0.23231 0.36416 0.0
C657 C 0.00611 0.2091 0.37463 0.0
C658 C 0.99306 0.29683 0.34135 0.0
C659 C 0.00205 0.29866 0.32264 0.0
C660 C 0.96378 0.31794 0.34819 0.0
C661 C 0.95485 0.31933 0.36792 0.0
C662 C 0.90394 0.29599 0.37357 0.0
C663 C 0.8954 0.29679 0.39217 0.0
C664 C 0.93751 0.32111 0.40526 0.0
C665 C 0.98826 0.34489 0.39976 0.0
C666 C 0.99702 0.34426 0.38117 0.0
C667 C 0.90986 0.38483 0.27612 0.0
C668 C 0.93842 0.43955 0.27977 0.0
C669 C 0.91094 0.35227 0.28919 0.0
C670 C 0.94042 0.37432 0.30598 0.0
C671 C 0.96406 0.42848 0.31029 0.0
C672 C 0.96351 0.4609 0.29721 0.0
C673 C 0.95494 0.34366 0.31759 0.0
C674 C 0.94466 0.34062 0.33617 0.0
C675 C 0.9842 0.32255 0.31076 0.0
C676 C 0.99939 0.32759 0.29157 0.0
C677 C 0.03083 0.37744 0.28492 0.0
C678 C 0.04417 0.38191 0.26672 0.0
C679 C 0.0269 0.3368 0.25511 0.0
C680 C 0.99629 0.28712 0.26168 0.0
C681 C 0.98263 0.28243 0.27984 0.0
H682 H 0.03736 0.34033 0.24104 0.0
H683 H 0.93081 0.32166 0.41965 0.0
loop_
_geom_bond_atom_site_label_1
_geom_bond_atom_site_label_2
_geom_bond_distance
_geom_bond_site_symmetry_2
_ccdc_geom_bond_type
Zn0 O3 2.031 1_545 S
Zn0 O5 2.049 . S
Zn0 O10 2.067 . S
Zn1 O2 1.962 . S
Zn1 O4 1.986 . S
Zn1 O6 1.996 . S
Zn1 O9 1.943 . S
O2 Zn1 1.962 . S
O2 C7 1.254 . S
O3 Zn0 2.031 1_565 S
O3 C7 1.269 1_565 S
O4 Zn1 1.986 . S
O4 C11 1.262 . S
O5 Zn0 2.049 . S
O5 C13 1.260 . S
O6 Zn1 1.996 . S
O6 C13 1.257 . S
C7 O2 1.254 . S
C7 O3 1.269 1_545 S
C8 O9 1.249 . S
C8 O10 1.270 . S
O9 Zn1 1.943 . S
O9 C8 1.249 . S
O10 Zn0 2.067 . S
O10 C8 1.270 . S
C11 O4 1.262 . S
C11 O12 1.232 . S
O12 C11 1.232 . S
C13 O5 1.260 . S
C13 O6 1.257 . S
Zn14 O17 2.031 . S
Zn14 O19 2.049 . S
Zn14 O24 2.067 . S
Zn15 O16 1.962 . S
Zn15 O18 1.986 1_455 S
Zn15 O20 1.996 . S
Zn15 O23 1.943 . S
O16 Zn15 1.962 . S
O16 C21 1.254 . S
O17 Zn14 2.031 . S
O17 C21 1.269 . S
O18 Zn15 1.986 1_655 S
O18 C25 1.262 . S
O19 Zn14 2.049 . S
O19 C27 1.260 . S
O20 Zn15 1.996 . S
O20 C27 1.257 . S
C21 O16 1.254 . S
C21 O17 1.269 . S
C22 O23 1.249 . S
C22 O24 1.270 . S
O23 Zn15 1.943 . S
O23 C22 1.249 . S
O24 Zn14 2.067 . S
O24 C22 1.270 . S
C25 O18 1.262 . S
C25 O26 1.232 . S
O26 C25 1.232 . S
C27 O19 1.260 . S
C27 O20 1.257 . S
Zn28 O31 2.031 1_565 S
Zn28 O33 2.049 . S
Zn28 O38 2.067 1_565 S
Zn29 O30 1.962 1_545 S
Zn29 O32 1.986 1_455 S
Zn29 O34 1.996 1_445 S
Zn29 O37 1.943 . S
O30 Zn29 1.962 1_565 S
O30 C35 1.254 1_565 S
O31 Zn28 2.031 1_545 S
O31 C35 1.269 . S
O32 Zn29 1.986 1_655 S
O32 C39 1.262 . S
O33 Zn28 2.049 . S
O33 C41 1.260 1_455 S
O34 Zn29 1.996 1_665 S
O34 C41 1.257 . S
C35 O30 1.254 1_545 S
C35 O31 1.269 . S
C36 O37 1.249 . S
C36 O38 1.270 . S
O37 Zn29 1.943 . S
O37 C36 1.249 . S
O38 Zn28 2.067 1_545 S
O38 C36 1.270 . S
C39 O32 1.262 . S
C39 O40 1.232 1_655 S
O40 C39 1.232 1_455 S
C41 O33 1.260 1_655 S
C41 O34 1.257 . S
C42 O44 1.247 . S
C42 O46 1.258 . S
C43 O50 1.247 . S
C43 O51 1.258 . S
O44 C42 1.247 . S
O44 Zn45 2.028 . S
Zn45 O44 2.028 . S
Zn45 O49 2.035 . S
Zn45 O51 2.035 . S
Zn45 O52 2.028 . S
O46 C42 1.258 . S
O46 Zn47 2.035 1_455 S
Zn47 O46 2.035 1_655 S
Zn47 O48 2.028 1_655 S
Zn47 O50 2.028 1_655 S
Zn47 O53 2.035 1_655 S
O48 Zn47 2.028 1_455 S
O48 C54 1.247 . S
O49 Zn45 2.035 . S
O49 C54 1.258 . S
O50 C43 1.247 . S
O50 Zn47 2.028 1_455 S
O51 C43 1.258 . S
O51 Zn45 2.035 . S
O52 Zn45 2.028 . S
O52 C55 1.247 . S
O53 Zn47 2.035 1_455 S
O53 C55 1.258 . S
C54 O48 1.247 . S
C54 O49 1.258 . S
C55 O52 1.247 . S
C55 O53 1.258 . S
C56 O58 1.247 . S
C56 O60 1.258 . S
C57 O64 1.247 . S
C57 O65 1.258 . S
O58 C56 1.247 . S
O58 Zn59 2.028 1_545 S
Zn59 O58 2.028 1_565 S
Zn59 O63 2.035 1_565 S
Zn59 O65 2.035 1_565 S
Zn59 O66 2.028 1_565 S
O60 C56 1.258 . S
O60 Zn61 2.035 . S
Zn61 O60 2.035 . S
Zn61 O62 2.028 . S
Zn61 O64 2.028 . S
Zn61 O67 2.035 . S
O62 Zn61 2.028 . S
O62 C68 1.247 . S
O63 Zn59 2.035 1_545 S
O63 C68 1.258 . S
O64 C57 1.247 . S
O64 Zn61 2.028 . S
O65 C57 1.258 . S
O65 Zn59 2.035 1_545 S
O66 Zn59 2.028 1_545 S
O66 C69 1.247 . S
O67 Zn61 2.035 . S
O67 C69 1.258 . S
C68 O62 1.247 . S
C68 O63 1.258 . S
C69 O66 1.247 . S
C69 O67 1.258 . S
C70 O72 1.247 . S
C70 O74 1.258 . S
C71 O78 1.247 . S
C71 O79 1.258 . S
O72 C70 1.247 . S
O72 Zn73 2.028 . S
Zn73 O72 2.028 . S
Zn73 O77 2.035 . S
Zn73 O79 2.035 . S
Zn73 O80 2.028 . S
O74 C70 1.258 . S
O74 Zn75 2.035 . S
Zn75 O74 2.035 . S
Zn75 O76 2.028 . S
Zn75 O78 2.028 . S
Zn75 O81 2.035 . S
O76 Zn75 2.028 . S
O76 C82 1.247 . S
O77 Zn73 2.035 . S
O77 C82 1.258 . S
O78 C71 1.247 . S
O78 Zn75 2.028 . S
O79 C71 1.258 . S
O79 Zn73 2.035 . S
O80 Zn73 2.028 . S
O80 C83 1.247 . S
O81 Zn75 2.035 . S
O81 C83 1.258 . S
C82 O76 1.247 . S
C82 O77 1.258 . S
C83 O80 1.247 . S
C83 O81 1.258 . S
H84 C102 0.951 . S
H85 C104 0.951 . S
H86 C106 0.950 . S
H87 C107 0.950 . S
H88 C109 0.950 . S
H89 C112 0.950 . S
H90 C113 0.950 . S
H91 C115 0.950 . S
H92 C116 0.950 . S
H93 C117 0.951 . S
H94 C119 0.951 . S
H95 C121 0.950 . S
H96 C122 0.950 . S
H97 C124 0.950 1_655 S
H98 C127 0.950 . S
H99 C128 0.950 . S
H100 C130 0.950 . S
H101 C131 0.950 . S
C102 H84 0.951 . S
C102 C103 1.366 . S
C102 C104 1.388 . S
C103 C102 1.366 . S
C103 C107 1.385 . S
C104 H85 0.951 . S
C104 C102 1.388 . S
C104 C105 1.366 . S
C105 C104 1.366 . S
C105 C106 1.414 . S
C105 C108 1.499 . S
C106 H86 0.950 . S
C106 C105 1.414 . S
C106 C107 1.374 . S
C107 H87 0.950 . S
C107 C103 1.385 . S
C107 C106 1.374 . S
C108 C105 1.499 . S
C108 C109 1.373 . S
C108 C110 1.389 . S
C109 H88 0.950 . S
C109 C108 1.373 . S
C109 C125 1.377 . S
C110 C108 1.389 . S
C110 C111 1.524 1_455 S
C110 C124 1.377 . S
C111 C110 1.524 1_655 S
C111 C112 1.397 . S
C111 C116 1.363 . S
C112 H89 0.950 . S
C112 C111 1.397 . S
C112 C113 1.334 . S
C113 H90 0.950 . S
C113 C112 1.334 . S
C113 C114 1.287 . S
C114 C113 1.287 . S
C114 C115 1.524 . S
C114 H133 0.913 . S
C115 H91 0.950 . S
C115 C114 1.524 . S
C115 C116 1.415 . S
C116 H92 0.950 . S
C116 C111 1.363 . S
C116 C115 1.415 . S
C117 H93 0.951 . S
C117 C118 1.366 . S
C117 C119 1.388 . S
C118 C117 1.366 . S
C118 C122 1.385 . S
C119 H94 0.951 . S
C119 C117 1.388 . S
C119 C120 1.366 . S
C120 C119 1.366 . S
C120 C121 1.414 . S
C120 C123 1.499 . S
C121 H95 0.950 . S
C121 C120 1.414 . S
C121 C122 1.374 . S
C122 H96 0.950 . S
C122 C118 1.385 . S
C122 C121 1.374 . S
C123 C120 1.499 . S
C123 C124 1.373 . S
C123 C125 1.389 . S
C124 H97 0.950 1_455 S
C124 C110 1.377 . S
C124 C123 1.373 . S
C125 C109 1.377 . S
C125 C123 1.389 . S
C125 C126 1.524 . S
C126 C125 1.524 . S
C126 C127 1.397 . S
C126 C131 1.363 . S
C127 H98 0.950 . S
C127 C126 1.397 . S
C127 C128 1.334 . S
C128 H99 0.950 . S
C128 C127 1.334 . S
C128 C129 1.287 . S
C129 C128 1.287 . S
C129 C130 1.524 . S
C129 H132 0.999 . S
C130 H100 0.950 . S
C130 C129 1.524 . S
C130 C131 1.415 . S
C131 H101 0.950 . S
C131 C126 1.363 . S
C131 C130 1.415 . S
H132 C129 0.999 . S
H133 C114 0.913 . S
H134 C152 0.951 . S
H135 C154 0.951 . S
H136 C156 0.950 1_565 S
H137 C157 0.950 1_565 S
H138 C159 0.950 1_565 S
H139 C162 0.950 . S
H140 C163 0.950 . S
H141 C165 0.950 . S
H142 C166 0.950 . S
H143 C167 0.966 . S
H144 C169 0.951 1_565 S
H145 C171 0.950 . S
H146 C172 0.950 . S
H147 C174 0.950 . S
H148 C177 0.950 . S
H149 C178 0.950 . S
H150 C180 0.950 . S
H151 C181 0.950 . S
C152 H134 0.951 . S
C152 C153 1.366 . S
C152 C154 1.388 . S
C153 C152 1.366 . S
C153 C157 1.385 . S
C154 H135 0.951 . S
C154 C152 1.388 . S
C154 C155 1.366 . S
C155 C154 1.366 . S
C155 C156 1.414 . S
C155 C158 1.499 . S
C156 H136 0.950 1_545 S
C156 C155 1.414 . S
C156 C157 1.374 . S
C157 H137 0.950 1_545 S
C157 C153 1.385 . S
C157 C156 1.374 . S
C158 C155 1.499 . S
C158 C159 1.373 . S
C158 C160 1.389 . S
C159 H138 0.950 1_545 S
C159 C158 1.373 . S
C159 C175 1.377 . S
C160 C158 1.389 . S
C160 C161 1.524 . S
C160 C174 1.377 . S
C161 C160 1.524 . S
C161 C162 1.397 . S
C161 C166 1.363 . S
C162 H139 0.950 . S
C162 C161 1.397 . S
C162 C163 1.334 . S
C163 H140 0.950 . S
C163 C162 1.334 . S
C163 C164 1.287 . S
C164 C163 1.287 . S
C164 C165 1.524 . S
C164 H183 0.913 . S
C165 H141 0.950 . S
C165 C164 1.524 . S
C165 C166 1.415 . S
C166 H142 0.950 . S
C166 C161 1.363 . S
C166 C165 1.415 . S
C167 H143 0.966 . S
C167 C168 1.366 . S
C167 C169 1.388 . S
C168 C167 1.366 . S
C168 C172 1.385 . S
C169 H144 0.951 1_545 S
C169 C167 1.388 . S
C169 C170 1.366 . S
C170 C169 1.366 . S
C170 C171 1.414 . S
C170 C173 1.499 . S
C171 H145 0.950 . S
C171 C170 1.414 . S
C171 C172 1.374 . S
C172 H146 0.950 . S
C172 C168 1.385 . S
C172 C171 1.374 . S
C173 C170 1.499 . S
C173 C174 1.373 . S
C173 C175 1.389 . S
C174 H147 0.950 . S
C174 C160 1.377 . S
C174 C173 1.373 . S
C175 C159 1.377 . S
C175 C173 1.389 . S
C175 C176 1.524 1_545 S
C176 C175 1.524 1_565 S
C176 C177 1.397 . S
C176 C181 1.363 . S
C177 H148 0.950 . S
C177 C176 1.397 . S
C177 C178 1.334 . S
C178 H149 0.950 . S
C178 C177 1.334 . S
C178 C179 1.287 . S
C179 C178 1.287 . S
C179 C180 1.524 . S
C179 H182 0.999 . S
C180 H150 0.950 . S
C180 C179 1.524 . S
C180 C181 1.415 . S
C181 H151 0.950 . S
C181 C176 1.363 . S
C181 C180 1.415 . S
H182 C179 0.999 . S
H183 C164 0.913 . S
H184 C202 0.951 . S
H185 C204 0.951 . S
H186 C206 0.950 . S
H187 C207 0.950 . S
H188 C209 0.950 . S
H189 C212 0.950 . S
H190 C213 0.950 . S
H191 C215 0.950 . S
H192 C216 0.950 . S
H193 C217 0.951 . S
H194 C219 0.951 . S
H195 C221 0.950 . S
H196 C222 0.950 . S
H197 C224 0.950 . S
H198 C227 0.950 . S
H199 C228 0.950 . S
H200 C230 0.950 . S
H201 C231 0.950 . S
C202 H184 0.951 . S
C202 C203 1.366 . S
C202 C204 1.388 . S
C203 C202 1.366 . S
C203 C207 1.385 . S
C204 H185 0.951 . S
C204 C202 1.388 . S
C204 C205 1.366 . S
C205 C204 1.366 . S
C205 C206 1.414 . S
C205 C208 1.499 . S
C206 H186 0.950 . S
C206 C205 1.414 . S
C206 C207 1.374 . S
C207 H187 0.950 . S
C207 C203 1.385 . S
C207 C206 1.374 . S
C208 C205 1.499 . S
C208 C209 1.373 . S
C208 C210 1.389 . S
C209 H188 0.950 . S
C209 C208 1.373 . S
C209 C225 1.377 . S
C210 C208 1.389 . S
C210 C211 1.524 . S
C210 C224 1.377 . S
C211 C210 1.524 . S
C211 C212 1.397 . S
C211 C216 1.363 . S
C212 H189 0.950 . S
C212 C211 1.397 . S
C212 C213 1.334 . S
C213 H190 0.950 . S
C213 C212 1.334 . S
C213 C214 1.287 . S
C214 C213 1.287 . S
C214 C215 1.524 . S
C214 H233 0.913 . S
C215 H191 0.950 . S
C215 C214 1.524 . S
C215 C216 1.415 . S
C216 H192 0.950 . S
C216 C211 1.363 . S
C216 C215 1.415 . S
C217 H193 0.951 . S
C217 C218 1.366 . S
C217 C219 1.388 . S
C218 C217 1.366 . S
C218 C222 1.385 . S
C219 H194 0.951 . S
C219 C217 1.388 . S
C219 C220 1.366 . S
C220 C219 1.366 . S
C220 C221 1.414 . S
C220 C223 1.499 . S
C221 H195 0.950 . S
C221 C220 1.414 . S
C221 C222 1.374 . S
C222 H196 0.950 . S
C222 C218 1.385 . S
C222 C221 1.374 . S
C223 C220 1.499 . S
C223 C224 1.373 . S
C223 C225 1.389 . S
C224 H197 0.950 . S
C224 C210 1.377 . S
C224 C223 1.373 . S
C225 C209 1.377 . S
C225 C223 1.389 . S
C225 C226 1.524 . S
C226 C225 1.524 . S
C226 C227 1.397 . S
C226 C231 1.363 . S
C227 H198 0.950 . S
C227 C226 1.397 . S
C227 C228 1.334 . S
C228 H199 0.950 . S
C228 C227 1.334 . S
C228 C229 1.287 . S
C229 C228 1.287 . S
C229 C230 1.524 . S
C229 H232 0.999 . S
C230 H200 0.950 . S
C230 C229 1.524 . S
C230 C231 1.415 . S
C231 H201 0.950 . S
C231 C226 1.363 . S
C231 C230 1.415 . S
H232 C229 0.999 . S
H233 C214 0.913 . S
H234 C252 0.951 . S
H235 C254 0.951 . S
H236 C256 0.950 . S
H237 C257 0.950 1_545 S
H238 C259 0.950 . S
H239 C262 0.950 . S
H240 C263 0.950 . S
H241 C265 0.950 . S
H242 C266 0.950 . S
H243 C267 0.951 . S
H244 C269 0.951 . S
H245 C271 0.950 1_655 S
H246 C272 0.950 1_655 S
H247 C274 0.950 . S
H248 C277 0.950 . S
H249 C278 0.950 . S
H250 C280 0.950 . S
H251 C281 0.950 . S
C252 H234 0.951 . S
C252 C253 1.366 . S
C252 C254 1.388 . S
C253 C252 1.366 . S
C253 C257 1.385 . S
C254 H235 0.951 . S
C254 C252 1.388 . S
C254 C255 1.366 . S
C255 C254 1.366 . S
C255 C256 1.414 . S
C255 C258 1.499 . S
C256 H236 0.950 . S
C256 C255 1.414 . S
C256 C257 1.374 . S
C257 H237 0.950 1_565 S
C257 C253 1.385 . S
C257 C256 1.374 . S
C258 C255 1.499 . S
C258 C259 1.373 . S
C258 C260 1.389 . S
C259 H238 0.950 . S
C259 C258 1.373 . S
C259 C275 1.377 . S
C260 C258 1.389 . S
C260 C261 1.524 . S
C260 C274 1.377 . S
C261 C260 1.524 . S
C261 C262 1.397 . S
C261 C266 1.363 1_455 S
C262 H239 0.950 . S
C262 C261 1.397 . S
C262 C263 1.334 . S
C263 H240 0.950 . S
C263 C262 1.334 . S
C263 C264 1.287 1_455 S
C264 C263 1.287 1_655 S
C264 C265 1.524 . S
C264 H283 0.913 . S
C265 H241 0.950 . S
C265 C264 1.524 . S
C265 C266 1.415 . S
C266 H242 0.950 . S
C266 C261 1.363 1_655 S
C266 C265 1.415 . S
C267 H243 0.951 . S
C267 C268 1.366 . S
C267 C269 1.388 . S
C268 C267 1.366 . S
C268 C272 1.385 . S
C269 H244 0.951 . S
C269 C267 1.388 . S
C269 C270 1.366 . S
C270 C269 1.366 . S
C270 C271 1.414 . S
C270 C273 1.499 . S
C271 H245 0.950 1_455 S
C271 C270 1.414 . S
C271 C272 1.374 . S
C272 H246 0.950 1_455 S
C272 C268 1.385 . S
C272 C271 1.374 . S
C273 C270 1.499 . S
C273 C274 1.373 . S
C273 C275 1.389 . S
C274 H247 0.950 . S
C274 C260 1.377 . S
C274 C273 1.373 . S
C275 C259 1.377 . S
C275 C273 1.389 . S
C275 C276 1.524 . S
C276 C275 1.524 . S
C276 C277 1.397 . S
C276 C281 1.363 . S
C277 H248 0.950 . S
C277 C276 1.397 . S
C277 C278 1.334 . S
C278 H249 0.950 . S
C278 C277 1.334 . S
C278 C279 1.287 . S
C279 C278 1.287 . S
C279 C280 1.524 . S
C279 H282 0.999 . S
C280 H250 0.950 . S
C280 C279 1.524 . S
C280 C281 1.415 . S
C281 H251 0.950 . S
C281 C276 1.363 . S
C281 C280 1.415 . S
H282 C279 0.999 . S
H283 C264 0.913 . S
H284 C302 0.951 . S
H285 C304 0.951 . S
H286 C306 0.950 . S
H287 C307 0.950 . S
H288 C309 0.950 . S
H289 C312 0.950 . S
H290 C313 0.950 . S
H291 C315 0.950 . S
H292 C316 0.950 . S
H293 C317 0.951 1_565 S
H294 C319 0.951 1_565 S
H295 C321 0.950 . S
H296 C322 0.950 . S
H297 C324 0.950 . S
H298 C327 0.950 1_545 S
H299 C328 0.950 . S
H300 C330 0.950 . S
H301 C331 0.950 . S
C302 H284 0.951 . S
C302 C303 1.366 . S
C302 C304 1.388 . S
C303 C302 1.366 . S
C303 C307 1.385 . S
C304 H285 0.951 . S
C304 C302 1.388 . S
C304 C305 1.366 . S
C305 C304 1.366 . S
C305 C306 1.414 . S
C305 C308 1.499 . S
C306 H286 0.950 . S
C306 C305 1.414 . S
C306 C307 1.374 . S
C307 H287 0.950 . S
C307 C303 1.385 . S
C307 C306 1.374 . S
C308 C305 1.499 . S
C308 C309 1.373 . S
C308 C310 1.389 . S
C309 H288 0.950 . S
C309 C308 1.373 . S
C309 C325 1.377 . S
C310 C308 1.389 . S
C310 C311 1.524 . S
C310 C324 1.377 . S
C311 C310 1.524 . S
C311 C312 1.397 . S
C311 C316 1.363 . S
C312 H289 0.950 . S
C312 C311 1.397 . S
C312 C313 1.334 . S
C313 H290 0.950 . S
C313 C312 1.334 . S
C313 C314 1.287 . S
C314 C313 1.287 . S
C314 C315 1.524 . S
C314 H333 0.913 . S
C315 H291 0.950 . S
C315 C314 1.524 . S
C315 C316 1.415 . S
C316 H292 0.950 . S
C316 C311 1.363 . S
C316 C315 1.415 . S
C317 H293 0.951 1_545 S
C317 C318 1.366 . S
C317 C319 1.388 . S
C318 C317 1.366 . S
C318 C322 1.385 . S
C319 H294 0.951 1_545 S
C319 C317 1.388 . S
C319 C320 1.366 . S
C320 C319 1.366 . S
C320 C321 1.414 . S
C320 C323 1.499 . S
C321 H295 0.950 . S
C321 C320 1.414 . S
C321 C322 1.374 . S
C322 H296 0.950 . S
C322 C318 1.385 . S
C322 C321 1.374 . S
C323 C320 1.499 . S
C323 C324 1.373 . S
C323 C325 1.389 . S
C324 H297 0.950 . S
C324 C310 1.377 . S
C324 C323 1.373 . S
C325 C309 1.377 . S
C325 C323 1.389 . S
C325 C326 1.524 1_545 S
C326 C325 1.524 1_565 S
C326 C327 1.397 . S
C326 C331 1.363 . S
C327 H298 0.950 1_565 S
C327 C326 1.397 . S
C327 C328 1.334 . S
C328 H299 0.950 . S
C328 C327 1.334 . S
C328 C329 1.287 . S
C329 C328 1.287 . S
C329 C330 1.524 . S
C329 H332 0.999 . S
C330 H300 0.950 . S
C330 C329 1.524 . S
C330 C331 1.415 . S
C331 H301 0.950 . S
C331 C326 1.363 . S
C331 C330 1.415 . S
H332 C329 0.999 . S
H333 C314 0.913 . S
H334 C352 0.951 . S
H335 C354 0.951 . S
H336 C356 0.950 . S
H337 C357 0.950 . S
H338 C359 0.950 . S
H339 C362 0.950 . S
H340 C363 0.950 . S
H341 C365 0.950 . S
H342 C366 0.950 . S
H343 C367 0.951 . S
H344 C369 0.951 . S
H345 C371 0.950 . S
H346 C372 0.950 . S
H347 C374 0.950 . S
H348 C377 0.950 . S
H349 C378 0.950 . S
H350 C380 0.950 . S
H351 C381 0.950 . S
C352 H334 0.951 . S
C352 C353 1.366 . S
C352 C354 1.388 . S
C353 C352 1.366 . S
C353 C357 1.385 . S
C354 H335 0.951 . S
C354 C352 1.388 . S
C354 C355 1.366 . S
C355 C354 1.366 . S
C355 C356 1.414 . S
C355 C358 1.499 . S
C356 H336 0.950 . S
C356 C355 1.414 . S
C356 C357 1.374 . S
C357 H337 0.950 . S
C357 C353 1.385 . S
C357 C356 1.374 . S
C358 C355 1.499 . S
C358 C359 1.373 . S
C358 C360 1.389 . S
C359 H338 0.950 . S
C359 C358 1.373 . S
C359 C375 1.377 . S
C360 C358 1.389 . S
C360 C361 1.524 . S
C360 C374 1.377 . S
C361 C360 1.524 . S
C361 C362 1.397 . S
C361 C366 1.363 . S
C362 H339 0.950 . S
C362 C361 1.397 . S
C362 C363 1.334 . S
C363 H340 0.950 . S
C363 C362 1.334 . S
C363 C364 1.287 . S
C364 C363 1.287 . S
C364 C365 1.524 . S
C364 H383 0.913 . S
C365 H341 0.950 . S
C365 C364 1.524 . S
C365 C366 1.415 . S
C366 H342 0.950 . S
C366 C361 1.363 . S
C366 C365 1.415 . S
C367 H343 0.951 . S
C367 C368 1.366 . S
C367 C369 1.388 . S
C368 C367 1.366 . S
C368 C372 1.385 . S
C369 H344 0.951 . S
C369 C367 1.388 . S
C369 C370 1.366 . S
C370 C369 1.366 . S
C370 C371 1.414 . S
C370 C373 1.499 . S
C371 H345 0.950 . S
C371 C370 1.414 . S
C371 C372 1.374 . S
C372 H346 0.950 . S
C372 C368 1.385 . S
C372 C371 1.374 . S
C373 C370 1.499 . S
C373 C374 1.373 . S
C373 C375 1.389 . S
C374 H347 0.950 . S
C374 C360 1.377 . S
C374 C373 1.373 . S
C375 C359 1.377 . S
C375 C373 1.389 . S
C375 C376 1.524 . S
C376 C375 1.524 . S
C376 C377 1.397 . S
C376 C381 1.363 . S
C377 H348 0.950 . S
C377 C376 1.397 . S
C377 C378 1.334 . S
C378 H349 0.950 . S
C378 C377 1.334 . S
C378 C379 1.287 . S
C379 C378 1.287 . S
C379 C380 1.524 . S
C379 H382 0.999 . S
C380 H350 0.950 . S
C380 C379 1.524 . S
C380 C381 1.415 . S
C381 H351 0.950 . S
C381 C376 1.363 . S
C381 C380 1.415 . S
H382 C379 0.999 . S
H383 C364 0.913 . S
H384 C402 0.951 . S
H385 C404 0.951 . S
H386 C406 0.950 . S
H387 C407 0.950 . S
H388 C409 0.950 . S
H389 C412 0.950 . S
H390 C413 0.950 . S
H391 C415 0.950 . S
H392 C416 0.950 . S
H393 C417 0.951 . S
H394 C419 0.951 . S
H395 C421 0.950 . S
H396 C422 0.950 . S
H397 C424 0.950 1_565 S
H398 C427 0.950 . S
H399 C428 0.950 . S
H400 C430 0.950 . S
H401 C431 0.950 . S
C402 H384 0.951 . S
C402 C403 1.366 . S
C402 C404 1.388 . S
C403 C402 1.366 . S
C403 C407 1.385 . S
C404 H385 0.951 . S
C404 C402 1.388 . S
C404 C405 1.366 . S
C405 C404 1.366 . S
C405 C406 1.414 . S
C405 C408 1.499 . S
C406 H386 0.950 . S
C406 C405 1.414 . S
C406 C407 1.374 . S
C407 H387 0.950 . S
C407 C403 1.385 . S
C407 C406 1.374 . S
C408 C405 1.499 . S
C408 C409 1.373 . S
C408 C410 1.389 . S
C409 H388 0.950 . S
C409 C408 1.373 . S
C409 C425 1.377 . S
C410 C408 1.389 . S
C410 C411 1.524 1_545 S
C410 C424 1.377 . S
C411 C410 1.524 1_565 S
C411 C412 1.397 . S
C411 C416 1.363 . S
C412 H389 0.950 . S
C412 C411 1.397 . S
C412 C413 1.334 . S
C413 H390 0.950 . S
C413 C412 1.334 . S
C413 C414 1.287 . S
C414 C413 1.287 . S
C414 C415 1.524 . S
C414 H433 0.913 . S
C415 H391 0.950 . S
C415 C414 1.524 . S
C415 C416 1.415 . S
C416 H392 0.950 . S
C416 C411 1.363 . S
C416 C415 1.415 . S
C417 H393 0.951 . S
C417 C418 1.366 . S
C417 C419 1.388 . S
C418 C417 1.366 . S
C418 C422 1.385 . S
C419 H394 0.951 . S
C419 C417 1.388 . S
C419 C420 1.366 . S
C420 C419 1.366 . S
C420 C421 1.414 . S
C420 C423 1.499 . S
C421 H395 0.950 . S
C421 C420 1.414 . S
C421 C422 1.374 . S
C422 H396 0.950 . S
C422 C418 1.385 . S
C422 C421 1.374 . S
C423 C420 1.499 . S
C423 C424 1.373 . S
C423 C425 1.389 . S
C424 H397 0.950 1_545 S
C424 C410 1.377 . S
C424 C423 1.373 . S
C425 C409 1.377 . S
C425 C423 1.389 . S
C425 C426 1.524 . S
C426 C425 1.524 . S
C426 C427 1.397 . S
C426 C431 1.363 . S
C427 H398 0.950 . S
C427 C426 1.397 . S
C427 C428 1.334 . S
C428 H399 0.950 . S
C428 C427 1.334 . S
C428 C429 1.287 . S
C429 C428 1.287 . S
C429 C430 1.524 . S
C429 H432 0.999 . S
C430 H400 0.950 . S
C430 C429 1.524 . S
C430 C431 1.415 . S
C431 H401 0.950 . S
C431 C426 1.363 . S
C431 C430 1.415 . S
H432 C429 0.999 . S
H433 C414 0.913 . S
H434 C452 0.951 . S
H435 C454 0.951 . S
H436 C456 0.950 . S
H437 C457 0.950 1_455 S
H438 C459 0.950 . S
H439 C462 0.950 . S
H440 C463 0.950 . S
H441 C465 0.950 . S
H442 C466 0.950 . S
H443 C467 0.951 . S
H444 C469 0.951 . S
H445 C471 0.950 . S
H446 C472 0.950 . S
H447 C474 0.948 . S
H448 C477 0.950 . S
H449 C478 0.950 . S
H450 C480 0.950 . S
H451 C481 0.950 . S
C452 H434 0.951 . S
C452 C453 1.366 . S
C452 C454 1.388 . S
C453 C452 1.366 . S
C453 C457 1.385 . S
C454 H435 0.951 . S
C454 C452 1.388 . S
C454 C455 1.366 . S
C455 C454 1.366 . S
C455 C456 1.414 . S
C455 C458 1.499 . S
C456 H436 0.950 . S
C456 C455 1.414 . S
C456 C457 1.374 . S
C457 H437 0.950 1_655 S
C457 C453 1.385 . S
C457 C456 1.374 . S
C458 C455 1.499 . S
C458 C459 1.373 1_554 S
C458 C460 1.389 . S
C459 H438 0.950 . S
C459 C458 1.373 1_556 S
C459 C475 1.377 . S
C460 C458 1.389 . S
C460 C461 1.524 . S
C460 C474 1.373 . S
C461 C460 1.524 . S
C461 C462 1.397 . S
C461 C466 1.363 . S
C462 H439 0.950 . S
C462 C461 1.397 . S
C462 C463 1.334 . S
C463 H440 0.950 . S
C463 C462 1.334 . S
C463 C464 1.287 . S
C464 C463 1.287 . S
C464 C465 1.524 . S
C464 H483 0.913 . S
C465 H441 0.950 . S
C465 C464 1.524 . S
C465 C466 1.415 . S
C466 H442 0.950 . S
C466 C461 1.363 . S
C466 C465 1.415 . S
C467 H443 0.951 . S
C467 C468 1.366 . S
C467 C469 1.388 . S
C468 C467 1.366 . S
C468 C472 1.385 . S
C469 H444 0.951 . S
C469 C467 1.388 . S
C469 C470 1.366 . S
C470 C469 1.366 . S
C470 C471 1.414 . S
C470 C473 1.499 . S
C471 H445 0.950 . S
C471 C470 1.414 . S
C471 C472 1.374 . S
C472 H446 0.950 . S
C472 C468 1.385 . S
C472 C471 1.374 . S
C473 C470 1.499 . S
C473 C474 1.379 1_556 S
C473 C475 1.389 . S
C474 H447 0.948 . S
C474 C460 1.373 . S
C474 C473 1.379 1_554 S
C475 C459 1.377 . S
C475 C473 1.389 . S
C475 C476 1.524 . S
C476 C475 1.524 . S
C476 C477 1.397 . S
C476 C481 1.363 . S
C477 H448 0.950 . S
C477 C476 1.397 . S
C477 C478 1.334 . S
C478 H449 0.950 . S
C478 C477 1.334 . S
C478 C479 1.287 . S
C479 C478 1.287 . S
C479 C480 1.524 . S
C479 H482 0.999 . S
C480 H450 0.950 . S
C480 C479 1.524 . S
C480 C481 1.415 . S
C481 H451 0.950 . S
C481 C476 1.363 . S
C481 C480 1.415 . S
H482 C479 0.999 . S
H483 C464 0.913 . S
H484 C502 0.951 . S
H485 C504 0.951 . S
H486 C506 0.950 . S
H487 C507 0.950 . S
H488 C509 0.950 . S
H489 C512 0.950 . S
H490 C513 0.950 . S
H491 C515 0.950 . S
H492 C516 0.950 . S
H493 C517 0.951 1_655 S
H494 C519 0.951 1_655 S
H495 C521 0.950 . S
H496 C522 0.950 . S
H497 C524 0.950 . S
H498 C527 0.950 . S
H499 C528 0.950 . S
H500 C530 0.950 . S
H501 C531 0.950 . S
C502 H484 0.951 . S
C502 C503 1.366 . S
C502 C504 1.388 . S
C503 C502 1.366 . S
C503 C507 1.385 1_455 S
C504 H485 0.951 . S
C504 C502 1.388 . S
C504 C505 1.366 . S
C505 C504 1.366 . S
C505 C506 1.414 1_455 S
C505 C508 1.499 . S
C506 H486 0.950 . S
C506 C505 1.414 1_655 S
C506 C507 1.374 . S
C507 H487 0.950 . S
C507 C503 1.385 1_655 S
C507 C506 1.374 . S
C508 C505 1.499 . S
C508 C509 1.373 1_455 S
C508 C510 1.389 . S
C509 H488 0.950 . S
C509 C508 1.373 1_655 S
C509 C525 1.377 . S
C510 C508 1.389 . S
C510 C511 1.524 . S
C510 C524 1.377 . S
C511 C510 1.524 . S
C511 C512 1.397 . S
C511 C516 1.363 . S
C512 H489 0.950 . S
C512 C511 1.397 . S
C512 C513 1.334 1_565 S
C513 H490 0.950 . S
C513 C512 1.334 1_545 S
C513 C514 1.287 . S
C514 C513 1.287 . S
C514 C515 1.524 1_545 S
C514 H533 0.913 . S
C515 H491 0.950 . S
C515 C514 1.524 1_565 S
C515 C516 1.415 . S
C516 H492 0.950 . S
C516 C511 1.363 . S
C516 C515 1.415 . S
C517 H493 0.951 1_455 S
C517 C518 1.366 . S
C517 C519 1.388 . S
C518 C517 1.366 . S
C518 C522 1.385 . S
C519 H494 0.951 1_455 S
C519 C517 1.388 . S
C519 C520 1.366 . S
C520 C519 1.366 . S
C520 C521 1.414 . S
C520 C523 1.499 . S
C521 H495 0.950 . S
C521 C520 1.414 . S
C521 C522 1.374 . S
C522 H496 0.950 . S
C522 C518 1.385 . S
C522 C521 1.374 . S
C523 C520 1.499 . S
C523 C524 1.373 . S
C523 C525 1.389 1_455 S
C524 H497 0.950 . S
C524 C510 1.377 . S
C524 C523 1.373 . S
C525 C509 1.377 . S
C525 C523 1.389 1_655 S
C525 C526 1.524 . S
C526 C525 1.524 . S
C526 C527 1.397 . S
C526 C531 1.363 . S
C527 H498 0.950 . S
C527 C526 1.397 . S
C527 C528 1.334 . S
C528 H499 0.950 . S
C528 C527 1.334 . S
C528 C529 1.287 . S
C529 C528 1.287 . S
C529 C530 1.524 . S
C529 H532 0.999 . S
C530 H500 0.950 . S
C530 C529 1.524 . S
C530 C531 1.415 . S
C531 H501 0.950 . S
C531 C526 1.363 . S
C531 C530 1.415 . S
H532 C529 0.999 . S
H533 C514 0.913 . S
H534 C552 0.951 . S
H535 C554 0.951 . S
H536 C556 0.950 . S
H537 C557 0.950 . S
H538 C559 0.950 . S
H539 C562 0.950 . S
H540 C563 0.950 . S
H541 C565 0.940 1_545 S
H542 C566 0.950 . S
H543 C567 0.951 1_565 S
H544 C569 0.951 1_565 S
H545 C571 0.950 . S
H546 C572 0.950 . S
H547 C574 0.950 . S
H548 C577 0.950 . S
H549 C578 0.950 . S
H550 C580 0.950 . S
H551 C581 0.944 1_565 S
C552 H534 0.951 . S
C552 C553 1.366 . S
C552 C554 1.388 . S
C553 C552 1.366 . S
C553 C557 1.385 1_545 S
C554 H535 0.951 . S
C554 C552 1.388 . S
C554 C555 1.366 . S
C555 C554 1.366 . S
C555 C556 1.414 1_545 S
C555 C558 1.499 . S
C556 H536 0.950 . S
C556 C555 1.414 1_565 S
C556 C557 1.374 . S
C557 H537 0.950 . S
C557 C553 1.385 1_565 S
C557 C556 1.374 . S
C558 C555 1.499 . S
C558 C559 1.373 . S
C558 C560 1.389 . S
C559 H538 0.950 . S
C559 C558 1.373 . S
C559 C575 1.377 . S
C560 C558 1.389 . S
C560 C561 1.524 1_545 S
C560 C574 1.377 . S
C561 C560 1.524 1_565 S
C561 C562 1.397 . S
C561 C566 1.363 1_565 S
C562 H539 0.950 . S
C562 C561 1.397 . S
C562 C563 1.334 . S
C563 H540 0.950 . S
C563 C562 1.334 . S
C563 C564 1.287 . S
C564 C563 1.287 . S
C564 C565 1.533 . S
C564 H583 0.913 . S
C565 H541 0.940 1_565 S
C565 C564 1.533 . S
C565 C566 1.417 1_565 S
C566 H542 0.950 . S
C566 C561 1.363 1_545 S
C566 C565 1.417 1_545 S
C567 H543 0.951 1_545 S
C567 C568 1.366 . S
C567 C569 1.388 . S
C568 C567 1.366 . S
C568 C572 1.385 . S
C569 H544 0.951 1_545 S
C569 C567 1.388 . S
C569 C570 1.366 . S
C570 C569 1.366 . S
C570 C571 1.414 . S
C570 C573 1.499 . S
C571 H545 0.950 . S
C571 C570 1.414 . S
C571 C572 1.374 . S
C572 H546 0.950 . S
C572 C568 1.385 . S
C572 C571 1.374 . S
C573 C570 1.499 . S
C573 C574 1.373 . S
C573 C575 1.389 . S
C574 H547 0.950 . S
C574 C560 1.377 . S
C574 C573 1.373 . S
C575 C559 1.377 . S
C575 C573 1.389 . S
C575 C576 1.524 . S
C576 C575 1.524 . S
C576 C577 1.397 . S
C576 C581 1.363 . S
C577 H548 0.950 . S
C577 C576 1.397 . S
C577 C578 1.334 . S
C578 H549 0.950 . S
C578 C577 1.334 . S
C578 C579 1.287 . S
C579 C578 1.287 . S
C579 C580 1.524 . S
C579 H582 0.999 . S
C580 H550 0.950 . S
C580 C579 1.524 . S
C580 C581 1.415 . S
C581 H551 0.944 1_545 S
C581 C576 1.363 . S
C581 C580 1.415 . S
H582 C579 0.999 . S
H583 C564 0.913 . S
H584 C602 0.951 . S
H585 C604 0.951 . S
H586 C606 0.950 . S
H587 C607 0.950 . S
H588 C609 0.950 . S
H589 C612 0.950 . S
H590 C613 0.950 . S
H591 C615 0.950 . S
H592 C616 0.950 . S
H593 C617 0.951 . S
H594 C619 0.951 . S
H595 C621 0.950 . S
H596 C622 0.950 . S
H597 C624 0.950 . S
H598 C627 0.950 1_556 S
H599 C628 0.950 . S
H600 C630 0.950 . S
H601 C631 0.950 . S
C602 H584 0.951 . S
C602 C603 1.366 . S
C602 C604 1.388 . S
C603 C602 1.366 . S
C603 C607 1.385 . S
C604 H585 0.951 . S
C604 C602 1.388 . S
C604 C605 1.366 . S
C605 C604 1.366 . S
C605 C606 1.414 . S
C605 C608 1.499 . S
C606 H586 0.950 . S
C606 C605 1.414 . S
C606 C607 1.374 . S
C607 H587 0.950 . S
C607 C603 1.385 . S
C607 C606 1.374 . S
C608 C605 1.499 . S
C608 C609 1.373 . S
C608 C610 1.389 1_554 S
C609 H588 0.950 . S
C609 C608 1.373 . S
C609 C625 1.384 . S
C610 C608 1.389 1_556 S
C610 C611 1.524 . S
C610 C624 1.377 . S
C611 C610 1.524 . S
C611 C612 1.397 . S
C611 C616 1.363 . S
C612 H589 0.950 . S
C612 C611 1.397 . S
C612 C613 1.334 . S
C613 H590 0.950 . S
C613 C612 1.334 . S
C613 C614 1.287 . S
C614 C613 1.287 . S
C614 C615 1.524 . S
C614 H633 0.913 . S
C615 H591 0.950 . S
C615 C614 1.524 . S
C615 C616 1.415 . S
C616 H592 0.950 . S
C616 C611 1.363 . S
C616 C615 1.415 . S
C617 H593 0.951 . S
C617 C618 1.366 . S
C617 C619 1.388 . S
C618 C617 1.366 . S
C618 C622 1.385 . S
C619 H594 0.951 . S
C619 C617 1.388 . S
C619 C620 1.366 . S
C620 C619 1.366 . S
C620 C621 1.414 . S
C620 C623 1.499 . S
C621 H595 0.950 . S
C621 C620 1.414 . S
C621 C622 1.374 . S
C622 H596 0.950 . S
C622 C618 1.385 . S
C622 C621 1.374 . S
C623 C620 1.499 . S
C623 C624 1.373 . S
C623 C625 1.379 1_556 S
C624 H597 0.950 . S
C624 C610 1.377 . S
C624 C623 1.373 . S
C625 C609 1.384 . S
C625 C623 1.379 1_554 S
C625 C626 1.528 . S
C626 C625 1.528 . S
C626 C627 1.397 . S
C626 C631 1.363 . S
C627 H598 0.950 1_554 S
C627 C626 1.397 . S
C627 C628 1.334 . S
C628 H599 0.950 . S
C628 C627 1.334 . S
C628 C629 1.287 . S
C629 C628 1.287 . S
C629 C630 1.524 . S
C629 H632 0.999 . S
C630 H600 0.950 . S
C630 C629 1.524 . S
C630 C631 1.415 . S
C631 H601 0.950 . S
C631 C626 1.363 . S
C631 C630 1.415 . S
H632 C629 0.999 . S
H633 C614 0.913 . S
H634 C652 0.951 . S
H635 C654 0.951 . S
H636 C656 0.950 . S
H637 C657 0.950 . S
H638 C659 0.950 . S
H639 C662 0.950 . S
H640 C663 0.950 . S
H641 C665 0.950 . S
H642 C666 0.950 . S
H643 C667 0.951 . S
H644 C669 0.951 . S
H645 C671 0.950 . S
H646 C672 0.950 . S
H647 C674 0.950 . S
H648 C677 0.950 . S
H649 C678 0.950 . S
H650 C680 0.950 . S
H651 C681 0.950 . S
C652 H634 0.951 . S
C652 C653 1.366 . S
C652 C654 1.388 . S
C653 C652 1.366 . S
C653 C657 1.385 . S
C654 H635 0.951 . S
C654 C652 1.388 . S
C654 C655 1.366 . S
C655 C654 1.366 . S
C655 C656 1.414 . S
C655 C658 1.499 . S
C656 H636 0.950 . S
C656 C655 1.414 . S
C656 C657 1.374 . S
C657 H637 0.950 . S
C657 C653 1.385 . S
C657 C656 1.374 . S
C658 C655 1.499 . S
C658 C659 1.373 . S
C658 C660 1.389 . S
C659 H638 0.950 . S
C659 C658 1.373 . S
C659 C675 1.377 . S
C660 C658 1.389 . S
C660 C661 1.524 . S
C660 C674 1.377 . S
C661 C660 1.524 . S
C661 C662 1.397 1_455 S
C661 C666 1.363 . S
C662 H639 0.950 . S
C662 C661 1.397 1_655 S
C662 C663 1.334 . S
C663 H640 0.950 . S
C663 C662 1.334 . S
C663 C664 1.287 . S
C664 C663 1.287 . S
C664 C665 1.524 1_655 S
C664 H683 0.913 . S
C665 H641 0.950 . S
C665 C664 1.524 1_455 S
C665 C666 1.415 . S
C666 H642 0.950 . S
C666 C661 1.363 . S
C666 C665 1.415 . S
C667 H643 0.951 . S
C667 C668 1.366 . S
C667 C669 1.388 . S
C668 C667 1.366 . S
C668 C672 1.385 . S
C669 H644 0.951 . S
C669 C667 1.388 . S
C669 C670 1.366 . S
C670 C669 1.366 . S
C670 C671 1.414 . S
C670 C673 1.499 . S
C671 H645 0.950 . S
C671 C670 1.414 . S
C671 C672 1.374 . S
C672 H646 0.950 . S
C672 C668 1.385 . S
C672 C671 1.374 . S
C673 C670 1.499 . S
C673 C674 1.373 . S
C673 C675 1.389 . S
C674 H647 0.950 . S
C674 C660 1.377 . S
C674 C673 1.373 . S
C675 C659 1.377 . S
C675 C673 1.389 . S
C675 C676 1.524 . S
C676 C675 1.524 . S
C676 C677 1.397 . S
C676 C681 1.363 . S
C677 H648 0.950 . S
C677 C676 1.397 . S
C677 C678 1.334 . S
C678 H649 0.950 . S
C678 C677 1.334 . S
C678 C679 1.287 . S
C679 C678 1.287 . S
C679 C680 1.524 . S
C679 H682 0.999 . S
C680 H650 0.950 . S
C680 C679 1.524 . S
C680 C681 1.415 . S
C681 H651 0.950 . S
C681 C676 1.363 . S
C681 C680 1.415 . S
H682 C679 0.999 . S
H683 C664 0.913 . S
C118 C43 1.288 . S
C103 C11 1.273 . S
C153 C25 1.340 . S
C168 C69 1.358 . S
C203 C41 1.326 . S
C218 C71 1.387 . S
C253 C7 1.330 1_565 S
C268 C55 1.331 . S
C318 C57 1.395 . S
C303 C21 1.394 . S
C353 C36 1.355 . S
C368 C83 1.414 . S
C418 C56 1.351 . S
C403 C39 1.335 . S
C453 C8 1.351 1_665 S
C468 C82 1.410 . S
C518 C42 1.474 . S
C503 C22 1.412 1_565 S
C568 C68 1.389 . S
C553 C35 1.387 . S
C618 C70 1.383 . S
C603 C13 1.321 . S
C653 C27 1.370 . S
C668 C54 1.430 . S
