# Generated by pormake.
# Topology pyr, (3,6)-cn, num edge types: 1
# Building blocks:
#     Node 0, Type 0, BuildingBlock: OLANEW_clean_sbu_2, # of connection points: 3
#     Node 1, Type 0, BuildingBlock: OLANEW_clean_sbu_2, # of connection points: 3
#     Node 2, Type 0, BuildingBlock: OLANEW_clean_sbu_2, # of connection points: 3
#     Node 3, Type 0, BuildingBlock: OLANEW_clean_sbu_2, # of connection points: 3
#     Node 4, Type 0, BuildingBlock: OLANEW_clean_sbu_2, # of connection points: 3
#     Node 5, Type 0, BuildingBlock: OLANEW_clean_sbu_2, # of connection points: 3
#     Node 6, Type 0, BuildingBlock: OLANEW_clean_sbu_2, # of connection points: 3
#     Node 7, Type 0, BuildingBlock: OLANEW_clean_sbu_2, # of connection points: 3
#     Node 8, Type 1, BuildingBlock: FUNLAD_clean_sbu_0, # of connection points: 6
#     Node 9, Type 1, BuildingBlock: FUNLAD_clean_sbu_0, # of connection points: 6
#     Node 10, Type 1, BuildingBlock: FUNLAD_clean_sbu_0, # of connection points: 6
#     Node 11, Type 1, BuildingBlock: FUNLAD_clean_sbu_0, # of connection points: 6
#     Edge 12, Type (0, 1), BuildingBlock: ZUJKAS_clean_linker_0, # of connection points: 2
#     Edge 13, Type (0, 1), BuildingBlock: ZUJKAS_clean_linker_0, # of connection points: 2
#     Edge 14, Type (0, 1), BuildingBlock: ZUJKAS_clean_linker_0, # of connection points: 2
#     Edge 15, Type (0, 1), BuildingBlock: ZUJKAS_clean_linker_0, # of connection points: 2
#     Edge 16, Type (0, 1), BuildingBlock: ZUJKAS_clean_linker_0, # of connection points: 2
#     Edge 17, Type (0, 1), BuildingBlock: ZUJKAS_clean_linker_0, # of connection points: 2
#     Edge 18, Type (0, 1), BuildingBlock: ZUJKAS_clean_linker_0, # of connection points: 2
#     Edge 19, Type (0, 1), BuildingBlock: ZUJKAS_clean_linker_0, # of connection points: 2
#     Edge 20, Type (0, 1), BuildingBlock: ZUJKAS_clean_linker_0, # of connection points: 2
#     Edge 21, Type (0, 1), BuildingBlock: ZUJKAS_clean_linker_0, # of connection points: 2
#     Edge 22, Type (0, 1), BuildingBlock: ZUJKAS_clean_linker_0, # of connection points: 2
#     Edge 23, Type (0, 1), BuildingBlock: ZUJKAS_clean_linker_0, # of connection points: 2
#     Edge 24, Type (0, 1), BuildingBlock: ZUJKAS_clean_linker_0, # of connection points: 2
#     Edge 25, Type (0, 1), BuildingBlock: ZUJKAS_clean_linker_0, # of connection points: 2
#     Edge 26, Type (0, 1), BuildingBlock: ZUJKAS_clean_linker_0, # of connection points: 2
#     Edge 27, Type (0, 1), BuildingBlock: ZUJKAS_clean_linker_0, # of connection points: 2
#     Edge 28, Type (0, 1), BuildingBlock: ZUJKAS_clean_linker_0, # of connection points: 2
#     Edge 29, Type (0, 1), BuildingBlock: ZUJKAS_clean_linker_0, # of connection points: 2
#     Edge 30, Type (0, 1), BuildingBlock: ZUJKAS_clean_linker_0, # of connection points: 2
#     Edge 31, Type (0, 1), BuildingBlock: ZUJKAS_clean_linker_0, # of connection points: 2
#     Edge 32, Type (0, 1), BuildingBlock: ZUJKAS_clean_linker_0, # of connection points: 2
#     Edge 33, Type (0, 1), BuildingBlock: ZUJKAS_clean_linker_0, # of connection points: 2
#     Edge 34, Type (0, 1), BuildingBlock: ZUJKAS_clean_linker_0, # of connection points: 2
#     Edge 35, Type (0, 1), BuildingBlock: ZUJKAS_clean_linker_0, # of connection points: 2
# Relax obj value: 0.113
# Max RMSD: 0.168
# Mean RMSD: 0.115
data_MOF--net-pry--node1-OLANEW_clean_sbu_2--node2-FUNLAD_clean_sbu_0--edge1-ZUJKAS_clean_linker_0
_symmetry_space_group_name_H-M    P1
_symmetry_Int_Tables_number       1
_symmetry_cell_setting            triclinic
loop_
_symmetry_equiv_pos_as_xyz
'x, y, z'
_cell_length_a     48.875825
_cell_length_b     51.665707
_cell_length_c     51.658371
_cell_angle_alpha  93.729339
_cell_angle_beta   89.166598
_cell_angle_gamma 91.730595
loop_
_atom_site_label
_atom_site_type_symbol
_atom_site_fract_x
_atom_site_fract_y
_atom_site_fract_z
_atom_type_partial_charge
O0 O 0.20772 0.17563 0.17596 0.0
Cd1 Cd 0.16573 0.19843 0.19034 0.0
O2 O 0.21154 0.14887 0.20762 0.0
Cd3 Cd 0.17612 0.15481 0.23417 0.0
O4 O 0.15137 0.14331 0.26814 0.0
C5 C 0.16394 0.13855 0.28866 0.0
O6 O 0.19072 0.14168 0.289 0.0
C7 C 0.22042 0.1579 0.18655 0.0
C8 C 0.15035 0.2401 0.16114 0.0
O9 O 0.16667 0.24373 0.18033 0.0
O10 O 0.1418 0.21678 0.15528 0.0
O11 O 0.4143 0.88542 0.75 0.0
Cd12 Cd 0.40095 0.87014 0.70578 0.0
O13 O 0.38246 0.91481 0.75245 0.0
Cd14 Cd 0.36216 0.90495 0.71549 0.0
O15 O 0.32868 0.90968 0.6886 0.0
C16 C 0.31765 0.93172 0.69049 0.0
O17 O 0.32751 0.94962 0.70735 0.0
C18 C 0.40258 0.90418 0.76244 0.0
C19 C 0.4238 0.82354 0.68641 0.0
O20 O 0.43699 0.84526 0.68511 0.0
O21 O 0.40008 0.82376 0.69733 0.0
O22 O 0.6862 0.51 0.99049 0.0
Cd23 Cd 0.6372 0.51777 0.99086 0.0
O24 O 0.67495 0.47014 0.97752 0.0
Cd25 Cd 0.67747 0.42915 0.96451 0.0
O26 O 0.66679 0.38779 0.96207 0.0
C27 C 0.64196 0.38173 0.96704 0.0
O28 O 0.62467 0.40038 0.97243 0.0
C29 C 0.69353 0.48717 0.98357 0.0
C30 C 0.61814 0.51422 0.94017 0.0
O31 O 0.61874 0.49407 0.95335 0.0
O32 O 0.62615 0.53605 0.95114 0.0
O33 O 0.92111 0.62627 0.46238 0.0
Cd34 Cd 0.9016 0.58275 0.45331 0.0
O35 O 0.95612 0.61536 0.48521 0.0
Cd36 Cd 0.93596 0.57755 0.48891 0.0
O37 O 0.89612 0.56092 0.49945 0.0
C38 C 0.88271 0.57512 0.51581 0.0
O39 O 0.89449 0.59659 0.52585 0.0
C40 C 0.94331 0.63251 0.47407 0.0
C41 C 0.91092 0.5695 0.40096 0.0
O42 O 0.88899 0.58077 0.4087 0.0
O43 O 0.92804 0.56377 0.41811 0.0
O44 O 0.9069 0.85479 0.84602 0.0
Cd45 Cd 0.89272 0.83592 0.88733 0.0
O46 O 0.87514 0.88451 0.84826 0.0
Cd47 Cd 0.85136 0.87643 0.88354 0.0
O48 O 0.81667 0.88505 0.91036 0.0
C49 C 0.80818 0.90817 0.91132 0.0
O50 O 0.82091 0.92509 0.89711 0.0
C51 C 0.89566 0.87409 0.83669 0.0
C52 C 0.91626 0.78954 0.90143 0.0
O53 O 0.89347 0.78915 0.88939 0.0
O54 O 0.92849 0.81164 0.90598 0.0
O55 O 0.66867 0.1358 0.36326 0.0
Cd56 Cd 0.6865 0.15595 0.40427 0.0
O57 O 0.63808 0.16585 0.35977 0.0
Cd58 Cd 0.64765 0.19093 0.39453 0.0
O59 O 0.64299 0.22601 0.4204 0.0
C60 C 0.62204 0.22787 0.43523 0.0
O61 O 0.60456 0.20807 0.43567 0.0
C62 C 0.64914 0.14501 0.35101 0.0
C63 C 0.73018 0.13021 0.42489 0.0
O64 O 0.70528 0.12401 0.43042 0.0
O65 O 0.73444 0.14828 0.4093 0.0
O66 O 0.50043 0.63431 0.11587 0.0
Cd67 Cd 0.50359 0.58807 0.12175 0.0
O68 O 0.45613 0.62793 0.11339 0.0
Cd69 Cd 0.41316 0.63617 0.10723 0.0
O70 O 0.36944 0.63119 0.09955 0.0
C71 C 0.36117 0.60847 0.09188 0.0
O72 O 0.37911 0.59002 0.08898 0.0
C73 C 0.47683 0.64347 0.11354 0.0
C74 C 0.50478 0.58046 0.17459 0.0
O75 O 0.527 0.58288 0.16137 0.0
O76 O 0.48201 0.5812 0.1627 0.0
O77 O 0.11887 0.5174 0.63897 0.0
Cd78 Cd 0.13297 0.5273 0.59518 0.0
O79 O 0.12819 0.47669 0.62912 0.0
Cd80 Cd 0.12769 0.43568 0.63713 0.0
O81 O 0.11877 0.39492 0.64316 0.0
C82 C 0.0939 0.38786 0.64641 0.0
O83 O 0.07496 0.40538 0.64651 0.0
C84 C 0.12034 0.49428 0.64569 0.0
C85 C 0.18952 0.5234 0.59013 0.0
O86 O 0.17352 0.50399 0.58377 0.0
O87 O 0.17872 0.5447 0.59849 0.0
C88 C 0.03772 0.03051 0.51411 0.0
N89 N 0.02417 0.0661 0.58855 0.0
C90 C 0.04832 0.07898 0.58426 0.0
C91 C 0.05291 0.10415 0.59498 0.0
C92 C 0.03253 0.11629 0.61047 0.0
C93 C 0.00803 0.10227 0.61514 0.0
C94 C 0.00423 0.07709 0.60388 0.0
Zn95 Zn 0.018 0.03036 0.57 0.0
C96 C 0.96401 0.02572 0.54334 0.0
N97 N 0.00653 0.95639 0.52981 0.0
C98 C 0.02777 0.94495 0.51668 0.0
C99 C 0.98213 0.94353 0.53285 0.0
C100 C 0.97867 0.9178 0.52326 0.0
C101 C 1.00061 0.90515 0.5106 0.0
C102 C 0.02527 0.91915 0.50695 0.0
Zn103 Zn 0.01215 0.9922 0.54818 0.0
O104 O 0.03535 0.04469 0.53506 0.0
C105 C 0.06627 0.9972 0.57449 0.0
O106 O 0.02962 0.00686 0.51379 0.0
H107 H 0.9656 0.95293 0.54355 0.0
H108 H 0.06389 0.06991 0.57199 0.0
H109 H 0.04698 0.95557 0.51447 0.0
O110 O 0.05725 0.01939 0.58155 0.0
O111 O 0.05152 0.98162 0.56021 0.0
H112 H 0.98519 0.06648 0.60704 0.0
O113 O 0.99484 0.97778 0.58284 0.0
O114 O 1.00068 0.0153 0.60465 0.0
O115 O 0.97287 1.00342 0.53632 0.0
O116 O 0.97865 0.04106 0.55802 0.0
C117 C 0.99273 0.99157 0.60404 0.0
H118 H 0.07192 0.11428 0.59042 0.0
H119 H 0.99187 0.11071 0.62718 0.0
H120 H 0.95943 0.90759 0.52676 0.0
H121 H 0.04257 0.91012 0.49708 0.0
C122 C 0.56553 1.00304 0.04286 0.0
N123 N 0.53403 0.07705 0.03891 0.0
C124 C 0.55992 0.08643 0.04355 0.0
C125 C 0.56878 0.11004 0.03427 0.0
C126 C 0.55085 0.12422 0.02003 0.0
C127 C 0.52421 0.11408 0.01553 0.0
C128 C 0.51619 0.09033 0.02518 0.0
Zn129 Zn 0.52242 0.04231 0.05297 0.0
C130 C 0.49323 0.00731 0.01381 0.0
N131 N 0.49942 0.96959 0.08265 0.0
C132 C 0.51846 0.95693 0.09556 0.0
C133 C 0.47461 0.95822 0.07675 0.0
C134 C 0.46866 0.93268 0.08286 0.0
C135 C 0.48846 0.91875 0.0951 0.0
C136 C 0.51335 0.93145 0.10206 0.0
Zn137 Zn 0.51023 0.00474 0.06903 0.0
O138 O 0.55991 0.02638 0.03928 0.0
C139 C 0.54002 0.03929 0.10813 0.0
O140 O 0.54842 0.98925 0.05516 0.0
H141 H 0.45981 0.96863 0.06641 0.0
H142 H 0.57375 0.0756 0.05456 0.0
H143 H 0.53805 0.9663 0.10004 0.0
O144 O 0.5406 0.05404 0.08934 0.0
O145 O 0.52829 0.01702 0.10514 0.0
H146 H 0.49572 0.08247 0.02167 0.0
O147 O 0.47209 0.02079 0.08243 0.0
O148 O 0.48466 0.05786 0.06676 0.0
O149 O 0.49263 0.99283 0.03278 0.0
O150 O 0.50427 0.0299 0.01675 0.0
C151 C 0.46701 0.0443 0.07868 0.0
H152 H 0.58934 0.1173 0.03857 0.0
H153 H 0.50981 0.12426 0.00445 0.0
H154 H 0.44928 0.92359 0.07697 0.0
H155 H 0.52901 0.92159 0.11191 0.0
C156 C 0.54775 0.4797 0.54376 0.0
N157 N 0.5471 0.51956 0.61739 0.0
C158 C 0.53476 0.49919 0.62882 0.0
C159 C 0.53871 0.4959 0.65517 0.0
C160 C 0.55547 0.51378 0.6698 0.0
C161 C 0.56829 0.53429 0.65727 0.0
C162 C 0.56375 0.53687 0.63104 0.0
Zn163 Zn 0.54043 0.5261 0.57946 0.0
C164 C 0.59222 0.54264 0.55293 0.0
N165 N 0.52754 0.54254 0.50081 0.0
C166 C 0.51347 0.52439 0.48559 0.0
C167 C 0.53789 0.56469 0.49105 0.0
C168 C 0.53444 0.56912 0.46492 0.0
C169 C 0.52044 0.55047 0.44869 0.0
C170 C 0.50976 0.52793 0.45935 0.0
Zn171 Zn 0.5339 0.53559 0.53869 0.0
O172 O 0.54754 0.48661 0.56785 0.0
C173 C 0.48212 0.51894 0.56488 0.0
O174 O 0.54282 0.49635 0.52748 0.0
H175 H 0.54911 0.5788 0.50348 0.0
H176 H 0.52157 0.48569 0.61759 0.0
H177 H 0.50528 0.50699 0.49377 0.0
O178 O 0.49788 0.51764 0.5841 0.0
O179 O 0.49208 0.52541 0.5433 0.0
H180 H 0.57337 0.55293 0.62162 0.0
O181 O 0.52488 0.57479 0.55071 0.0
O182 O 0.53327 0.56562 0.59062 0.0
O183 O 0.57598 0.54556 0.53443 0.0
O184 O 0.58272 0.53469 0.57411 0.0
C185 C 0.5265 0.58194 0.57468 0.0
H186 H 0.52828 0.4799 0.66409 0.0
H187 H 0.5818 0.54824 0.66762 0.0
H188 H 0.54319 0.58665 0.45737 0.0
H189 H 0.49855 0.51323 0.44754 0.0
C190 C 0.01436 0.55777 0.0089 0.0
N191 N 0.01015 0.52683 0.08245 0.0
C192 C 0.01539 0.55073 0.0943 0.0
C193 C 0.00588 0.55666 0.1196 0.0
C194 C 0.99081 0.53782 0.13271 0.0
C195 C 0.98578 0.51337 0.11993 0.0
C196 C 0.99565 0.50828 0.09475 0.0
Zn197 Zn 0.02386 0.5173 0.04566 0.0
C198 C 0.97934 0.48968 0.0145 0.0
N199 N 0.05096 0.4943 0.96905 0.0
C200 C 0.06665 0.5123 0.95713 0.0
C201 C 0.04261 0.47172 0.95612 0.0
C202 C 0.04922 0.46701 0.92982 0.0
C203 C 0.0646 0.48572 0.91682 0.0
C204 C 0.07387 0.50831 0.93103 0.0
Zn205 Zn 0.03777 0.50377 0.00607 0.0
O206 O 0.01074 0.5535 0.03271 0.0
C207 C 0.082 0.53186 0.03756 0.0
O208 O 0.02539 0.54047 0.99387 0.0
H209 H 0.0301 0.4577 0.96597 0.0
H210 H 0.02694 0.56518 0.08412 0.0
H211 H 0.07297 0.53019 0.96767 0.0
O212 O 0.06289 0.534 0.05444 0.0
O213 O 0.07711 0.52 0.0157 0.0
H214 H 0.9918 0.48937 0.08505 0.0
O215 O 0.05018 0.4673 0.01875 0.0
O216 O 0.03723 0.48091 0.05798 0.0
O217 O 0.998 0.48776 0.99714 0.0
O218 O 0.98501 0.50077 0.0365 0.0
C219 C 0.04761 0.46337 0.04275 0.0
H220 H 0.01005 0.57583 0.12869 0.0
H221 H 0.97468 0.49811 0.12944 0.0
H222 H 0.04148 0.4494 0.9196 0.0
H223 H 0.08625 0.52303 0.92199 0.0
H224 H 0.18523 0.12908 0.3356 0.0
H225 H 0.16195 0.11069 0.37257 0.0
H226 H 0.08607 0.10611 0.33077 0.0
H227 H 0.10922 0.12499 0.29362 0.0
H228 H 0.07918 0.12446 0.38178 0.0
H229 H 0.13904 0.03494 0.37717 0.0
H230 H 0.16025 0.06393 0.37937 0.0
H231 H 0.13944 0.0567 0.35122 0.0
C232 C 0.16357 0.12421 0.33418 0.0
C233 C 0.14917 0.12838 0.31148 0.0
C234 C 0.15031 0.11351 0.35534 0.0
C235 C 0.12237 0.10645 0.35431 0.0
C236 C 0.1077 0.11119 0.33197 0.0
H237 H 0.04256 0.00666 0.46529 0.0
H238 H 0.06141 0.02512 0.42614 0.0
C239 C 0.12097 0.122 0.31073 0.0
C240 C 0.10858 0.0943 0.37665 0.0
H241 H 0.11229 0.04349 0.41558 0.0
C242 C 0.0863 0.10666 0.38907 0.0
C243 C 0.11754 0.07084 0.38598 0.0
C244 C 0.14019 0.05566 0.3726 0.0
C245 C 0.07331 0.09664 0.41094 0.0
C246 C 0.08315 0.07385 0.42102 0.0
C247 C 0.10491 0.06111 0.40813 0.0
C248 C 0.07123 0.06288 0.44487 0.0
C249 C 0.04891 0.1104 0.42281 0.0
C250 C 0.07075 0.07777 0.46861 0.0
C251 C 0.05987 0.0673 0.49104 0.0
C252 C 0.04948 0.04155 0.49032 0.0
C253 C 0.05033 0.02655 0.46659 0.0
C254 C 0.06111 0.03709 0.44415 0.0
H255 H 0.0391 0.12241 0.40869 0.0
H256 H 0.03335 0.09637 0.42996 0.0
H257 H 0.05574 0.12351 0.43949 0.0
H258 H 0.07906 0.09747 0.4699 0.0
H259 H 0.05976 0.07937 0.50898 0.0
H260 H 0.38318 0.94521 0.79246 0.0
H261 H 0.39905 0.96234 0.83485 0.0
H262 H 0.45924 0.90297 0.83434 0.0
H263 H 0.44375 0.88584 0.79147 0.0
H264 H 0.39984 0.9389 0.8807 0.0
H265 H 0.5051 0.96907 0.85113 0.0
H266 H 0.47857 0.96044 0.82792 0.0
H267 H 0.49635 0.93555 0.84297 0.0
C268 C 0.39986 0.93576 0.80124 0.0
C269 C 0.41226 0.91416 0.78844 0.0
C270 C 0.40889 0.9456 0.82554 0.0
C271 C 0.43057 0.93418 0.83764 0.0
C272 C 0.44284 0.91243 0.82513 0.0
H273 H 0.47045 0.9593 1.00104 0.0
H274 H 0.45492 0.94184 0.95855 0.0
C275 C 0.43385 0.90256 0.80069 0.0
C276 C 0.43976 0.94491 0.86356 0.0
H277 H 0.49475 0.97244 0.89619 0.0
C278 C 0.42059 0.94623 0.88409 0.0
C279 C 0.46673 0.95484 0.86787 0.0
C280 C 0.48785 0.95518 0.84628 0.0
C281 C 0.42769 0.95698 0.90884 0.0
C282 C 0.45486 0.96626 0.91333 0.0
C283 C 0.47398 0.96517 0.89276 0.0
C284 C 0.46387 0.97711 0.93926 0.0
C285 C 0.40587 0.9588 0.9298 0.0
C286 C 0.47454 1.00264 0.94249 0.0
C287 C 0.48363 0.0127 0.96679 0.0
C288 C 0.48234 0.99732 0.9883 0.0
C289 C 0.47156 0.97177 0.98497 0.0
C290 C 0.46255 0.96175 0.96068 0.0
H291 H 0.38498 0.95764 0.92153 0.0
H292 H 0.40773 0.9424 0.94244 0.0
H293 H 0.4082 0.97719 0.94204 0.0
H294 H 0.47584 0.01481 0.92618 0.0
H295 H 0.49191 0.0324 0.96865 0.0
H296 H 0.61146 0.5538 0.90852 0.0
H297 H 0.59858 0.55054 0.86289 0.0
H298 H 0.59257 0.46717 0.86409 0.0
H299 H 0.60494 0.47026 0.90994 0.0
H300 H 0.62658 0.52549 0.82258 0.0
H301 H 0.52084 0.48381 0.83039 0.0
H302 H 0.53921 0.49803 0.85813 0.0
H303 H 0.54663 0.46583 0.84519 0.0
C304 C 0.60714 0.53477 0.89917 0.0
C305 C 0.60916 0.51229 0.91287 0.0
C306 C 0.5998 0.53295 0.87309 0.0
C307 C 0.59429 0.50864 0.86019 0.0
C308 C 0.59615 0.48615 0.87381 0.0
H309 H 0.56273 0.46958 0.69545 0.0
H310 H 0.57177 0.46661 0.74177 0.0
C311 C 0.60338 0.48795 0.89998 0.0
C312 C 0.58801 0.50697 0.83215 0.0
H313 H 0.53892 0.48775 0.78794 0.0
C314 C 0.60741 0.51724 0.81503 0.0
C315 C 0.56305 0.49602 0.82234 0.0
C316 C 0.5411 0.48548 0.83995 0.0
C317 C 0.60245 0.51707 0.78837 0.0
C318 C 0.57734 0.50657 0.77864 0.0
C319 C 0.55815 0.49575 0.79558 0.0
C320 C 0.57024 0.50796 0.75108 0.0
C321 C 0.62408 0.52816 0.77075 0.0
C322 C 0.56576 0.53211 0.74129 0.0
C323 C 0.56041 0.53386 0.71503 0.0
C324 C 0.55949 0.51147 0.698 0.0
C325 C 0.56317 0.48716 0.70807 0.0
C326 C 0.56844 0.48543 0.73445 0.0
H327 H 0.6444 0.53008 0.78017 0.0
H328 H 0.626 0.51579 0.75245 0.0
H329 H 0.61809 0.54774 0.76568 0.0
H330 H 0.56664 0.54966 0.75396 0.0
H331 H 0.55704 0.55282 0.70806 0.0
H332 H 0.88027 0.58219 0.36005 0.0
H333 H 0.89182 0.57637 0.31383 0.0
H334 H 0.96686 0.54026 0.33234 0.0
H335 H 0.95544 0.5458 0.37858 0.0
H336 H 0.93926 0.59686 0.28932 0.0
H337 H 0.93189 0.48932 0.27653 0.0
H338 H 0.91697 0.50733 0.30408 0.0
H339 H 0.95309 0.50176 0.30289 0.0
C340 C 0.89909 0.57274 0.35429 0.0
C341 C 0.91692 0.56439 0.37298 0.0
C342 C 0.90567 0.5695 0.3279 0.0
C343 C 0.93005 0.55769 0.31972 0.0
C344 C 0.94773 0.54905 0.33827 0.0
H345 H 0.01775 0.56365 0.17322 0.0
H346 H 1.00198 0.5699 0.21833 0.0
C347 C 0.94121 0.55232 0.36468 0.0
C348 C 0.93756 0.5554 0.29185 0.0
H349 H 0.95163 0.51146 0.2416 0.0
C350 C 0.94185 0.57821 0.27881 0.0
C351 C 0.94066 0.53103 0.27822 0.0
C352 C 0.93519 0.50592 0.29103 0.0
C353 C 0.9497 0.57729 0.25254 0.0
C354 C 0.95361 0.55293 0.23913 0.0
C355 C 0.94881 0.53012 0.25204 0.0
C356 C 0.96257 0.55059 0.21163 0.0
C357 C 0.95347 0.60234 0.23927 0.0
C358 C 0.94568 0.53759 0.193 0.0
C359 C 0.95459 0.53404 0.16726 0.0
C360 C 0.98068 0.54325 0.15969 0.0
C361 C 0.99741 0.55665 0.17835 0.0
C362 C 0.98845 0.56021 0.20412 0.0
H363 H 0.94336 0.61868 0.25028 0.0
H364 H 0.97565 0.60733 0.23775 0.0
H365 H 0.9451 0.60035 0.21934 0.0
H366 H 0.92563 0.53005 0.19844 0.0
H367 H 0.94106 0.52396 0.15329 0.0
H368 H 0.25613 0.12527 0.20717 0.0
H369 H 0.29766 0.10726 0.1874 0.0
H370 H 0.28436 0.14781 0.1186 0.0
H371 H 0.24258 0.16615 0.13829 0.0
H372 H 0.29736 0.0921 0.11054 0.0
H373 H 0.37104 0.14891 0.1743 0.0
H374 H 0.34327 0.13295 0.19074 0.0
H375 H 0.33625 0.15863 0.17022 0.0
C376 C 0.26196 0.1305 0.18785 0.0
C377 C 0.24593 0.14729 0.17438 0.0
C378 C 0.28583 0.12021 0.17661 0.0
C379 C 0.29426 0.12636 0.15163 0.0
C380 C 0.27827 0.14289 0.13796 0.0
H381 H 0.45265 0.09508 0.07834 0.0
H382 H 0.41045 0.11472 0.09495 0.0
C383 C 0.25444 0.15341 0.14928 0.0
C384 C 0.31962 0.11521 0.13982 0.0
H385 H 0.38903 0.11468 0.14699 0.0
C386 C 0.31743 0.09711 0.11841 0.0
C387 C 0.3458 0.12188 0.15002 0.0
C388 C 0.34943 0.14181 0.17246 0.0
C389 C 0.34068 0.08509 0.1073 0.0
C390 C 0.36677 0.09125 0.11794 0.0
C391 C 0.369 0.10979 0.13898 0.0
C392 C 0.39209 0.07893 0.10736 0.0
C393 C 0.33721 0.06605 0.0841 0.0
C394 C 0.39594 0.05224 0.10897 0.0
C395 C 0.42018 0.04091 0.0996 0.0
C396 C 0.44105 0.05605 0.08838 0.0
C397 C 0.43703 0.08278 0.08677 0.0
C398 C 0.41291 0.09409 0.09629 0.0
H399 H 0.31699 0.06763 0.07486 0.0
H400 H 0.35358 0.06915 0.0694 0.0
H401 H 0.33874 0.04602 0.0904 0.0
H402 H 0.38033 0.04022 0.11778 0.0
H403 H 0.42258 0.02031 0.10122 0.0
H404 H 0.29016 0.97687 0.69056 0.0
H405 H 0.24881 0.98525 0.66697 0.0
H406 H 0.24864 0.9073 0.63163 0.0
H407 H 0.29002 0.89855 0.6555 0.0
H408 H 0.23929 0.98237 0.61333 0.0
H409 H 0.17163 0.91301 0.66427 0.0
H410 H 0.20505 0.92329 0.6761 0.0
H411 H 0.20188 0.89965 0.64917 0.0
C412 C 0.28142 0.96146 0.67776 0.0
C413 C 0.29332 0.93696 0.67506 0.0
C414 C 0.25777 0.96632 0.66425 0.0
C415 C 0.24544 0.9468 0.64784 0.0
C416 C 0.25757 0.92249 0.64458 0.0
H417 H 0.09077 0.9505 0.56469 0.0
H418 H 0.13515 0.93753 0.58015 0.0
C419 C 0.28129 0.91758 0.65812 0.0
C420 C 0.21979 0.95212 0.6344 0.0
H421 H 0.15157 0.93589 0.63178 0.0
C422 C 0.22013 0.97213 0.61726 0.0
C423 C 0.19484 0.93868 0.63952 0.0
C424 C 0.1931 0.91758 0.65841 0.0
C425 C 0.19613 0.97923 0.60526 0.0
C426 C 0.17106 0.96627 0.61091 0.0
C427 C 0.17083 0.9458 0.62751 0.0
C428 C 0.14465 0.97442 0.60076 0.0
C429 C 0.19784 1.00051 0.58659 0.0
C430 C 0.1352 0.99938 0.60742 0.0
C431 C 0.10988 0.00686 0.59867 0.0
C432 C 0.09342 0.98944 0.58318 0.0
C433 C 0.10296 0.96442 0.57653 0.0
C434 C 0.1283 0.95695 0.58535 0.0
H435 H 0.21894 1.00317 0.57872 0.0
H436 H 0.18365 0.99634 0.57015 0.0
H437 H 0.19199 0.01907 0.59692 0.0
H438 H 0.14723 0.01299 0.61975 0.0
H439 H 0.10312 0.02623 0.60425 0.0
H440 H 0.73636 0.52158 0.98061 0.0
H441 H 0.78505 0.513 0.98057 0.0
H442 H 0.76665 0.43109 0.98382 0.0
H443 H 0.71784 0.43977 0.98568 0.0
H444 H 0.80462 0.44531 0.01689 0.0
H445 H 0.83481 0.48556 0.92422 0.0
H446 H 0.81719 0.5095 0.94418 0.0
H447 H 0.79941 0.4798 0.93312 0.0
C448 C 0.7426 0.50168 0.98113 0.0
C449 C 0.72304 0.48127 0.98243 0.0
C450 C 0.77052 0.49676 0.98075 0.0
C451 C 0.7796 0.47129 0.98129 0.0
C452 C 0.76015 0.45085 0.98281 0.0
H453 H 0.95921 0.46376 0.9703 0.0
H454 H 0.91112 0.4527 0.96054 0.0
C455 C 0.73214 0.45581 0.98348 0.0
C456 C 0.80936 0.46651 0.98243 0.0
H457 H 0.8709 0.48454 0.95611 0.0
C458 C 0.81908 0.45343 1.00328 0.0
C459 C 0.82834 0.47638 0.96431 0.0
C460 C 0.81933 0.48831 0.94005 0.0
C461 C 0.84723 0.45172 0.00758 0.0
C462 C 0.86613 0.46414 0.99108 0.0
C463 C 0.85647 0.47544 0.9691 0.0
C464 C 0.8955 0.46804 0.99768 0.0
C465 C 0.85634 0.43697 0.03005 0.0
C466 C 0.90273 0.48028 0.02176 0.0
C467 C 0.93004 0.48636 0.02745 0.0
C468 C 0.95082 0.48081 0.00898 0.0
C469 C 0.94369 0.46824 0.98495 0.0
C470 C 0.91623 0.46193 0.97935 0.0
H471 H 0.84163 0.42077 0.03379 0.0
H472 H 0.87696 0.4289 0.02648 0.0
H473 H 0.85698 0.4502 0.04784 0.0
H474 H 0.88713 0.486 0.03592 0.0
H475 H 0.93473 0.49621 0.04608 0.0
H476 H 0.84948 0.537 0.49254 0.0
H477 H 0.79998 0.53082 0.49878 0.0
H478 H 0.80041 0.59388 0.55773 0.0
H479 H 0.84967 0.60045 0.55141 0.0
H480 H 0.76813 0.52039 0.54239 0.0
H481 H 0.74411 0.61573 0.50609 0.0
H482 H 0.77734 0.60164 0.50173 0.0
H483 H 0.768 0.61791 0.53227 0.0
C484 C 0.83907 0.54941 0.50697 0.0
C485 C 0.85345 0.56938 0.5213 0.0
C486 C 0.81081 0.54588 0.51048 0.0
C487 C 0.7965 0.56227 0.52831 0.0
C488 C 0.81099 0.58144 0.54343 0.0
H489 H 0.63203 0.54029 0.58924 0.0
H490 H 0.68152 0.54493 0.5828 0.0
C491 C 0.83917 0.58505 0.53989 0.0
C492 C 0.76636 0.5596 0.5309 0.0
H493 H 0.70745 0.59271 0.52599 0.0
C494 C 0.75482 0.53613 0.53872 0.0
C495 C 0.74906 0.58006 0.52566 0.0
C496 C 0.76018 0.60517 0.51572 0.0
C497 C 0.72641 0.53278 0.54204 0.0
C498 C 0.70922 0.55364 0.53789 0.0
C499 C 0.72072 0.57688 0.52947 0.0
C500 C 0.6792 0.55168 0.54199 0.0
C501 C 0.71505 0.50682 0.54962 0.0
C502 C 0.66146 0.55496 0.52142 0.0
C503 C 0.63313 0.55262 0.52509 0.0
C504 C 0.62206 0.547 0.54944 0.0
C505 C 0.63989 0.54443 0.57019 0.0
C506 C 0.6682 0.54687 0.56651 0.0
H507 H 0.72974 0.49112 0.54508 0.0
H508 H 0.71091 0.5078 0.57084 0.0
H509 H 0.69555 0.50161 0.53953 0.0
H510 H 0.66956 0.5589 0.5024 0.0
H511 H 0.61995 0.55474 0.50873 0.0
H512 H 0.11438 0.23879 0.12074 0.0
H513 H 0.0976 0.27543 0.09835 0.0
H514 H 0.14752 0.32825 0.14692 0.0
H515 H 0.16462 0.29174 0.16921 0.0
H516 H 0.06894 0.31736 0.11862 0.0
H517 H 0.16668 0.35107 0.07462 0.0
H518 H 0.16253 0.31975 0.08802 0.0
H519 H 0.16835 0.34847 0.10904 0.0
C520 C 0.12201 0.25818 0.12652 0.0
C521 C 0.14098 0.26225 0.14674 0.0
C522 C 0.11233 0.27914 0.11371 0.0
C523 C 0.12153 0.30464 0.12065 0.0
C524 C 0.14051 0.30876 0.14079 0.0
H525 H 0.04369 0.44887 0.09276 0.0
H526 H 0.06095 0.4099 0.11048 0.0
C527 C 0.15018 0.28782 0.15364 0.0
C528 C 0.11046 0.32698 0.10756 0.0
H529 H 0.12921 0.37944 0.07348 0.0
C530 C 0.08212 0.33084 0.10864 0.0
C531 C 0.12755 0.34445 0.0942 0.0
C532 C 0.15793 0.34065 0.09113 0.0
C533 C 0.07053 0.35198 0.09735 0.0
C534 C 0.08775 0.37003 0.0849 0.0
C535 C 0.116 0.36579 0.08321 0.0
C536 C 0.07689 0.39362 0.07387 0.0
C537 C 0.03988 0.35463 0.09865 0.0
C538 C 0.08051 0.39784 0.04741 0.0
C539 C 0.07069 0.42025 0.03716 0.0
C540 C 0.05726 0.43907 0.05322 0.0
C541 C 0.05378 0.43479 0.07974 0.0
C542 C 0.06353 0.41239 0.08992 0.0
H543 H 0.0292 0.33585 0.10213 0.0
H544 H 0.03457 0.36872 0.11494 0.0
H545 H 0.03209 0.36187 0.08046 0.0
H546 H 0.09087 0.38372 0.03464 0.0
H547 H 0.07387 0.42292 0.0167 0.0
H548 H 0.591 0.36296 0.97952 0.0
H549 H 0.57666 0.31786 0.98456 0.0
H550 H 0.6576 0.29312 0.96224 0.0
H551 H 0.67233 0.3383 0.95754 0.0
H552 H 0.57668 0.27419 0.94937 0.0
H553 H 0.64486 0.26251 0.03279 0.0
H554 H 0.63796 0.29381 0.02115 0.0
H555 H 0.66187 0.27295 0.00406 0.0
C556 C 0.60577 0.34795 0.97559 0.0
C557 C 0.6329 0.35425 0.96837 0.0
C558 C 0.5975 0.32218 0.97844 0.0
C559 C 0.61618 0.30223 0.97418 0.0
C560 C 0.64303 0.30831 0.96612 0.0
H561 H 0.60045 0.13721 0.99841 0.0
H562 H 0.61623 0.17975 0.98503 0.0
C563 C 0.65136 0.33412 0.96332 0.0
C564 C 0.60757 0.27517 0.97875 0.0
H565 H 0.61919 0.22548 0.01724 0.0
C566 C 0.58599 0.26348 0.96416 0.0
C567 C 0.61975 0.26132 0.9981 0.0
C568 C 0.64224 0.27329 0.01511 0.0
C569 C 0.5763 0.23822 0.96835 0.0
C570 C 0.58828 0.22452 0.9879 0.0
C571 C 0.61011 0.23606 1.00222 0.0
C572 C 0.57803 0.19846 0.99443 0.0
C573 C 0.5535 0.22633 0.95171 0.0
C574 C 0.55133 0.19494 0.00419 0.0
C575 C 0.54229 0.17071 0.01201 0.0
C576 C 0.55988 0.1496 0.01037 0.0
C577 C 0.58651 0.15316 1.00025 0.0
C578 C 0.59552 0.17739 0.99245 0.0
H579 H 0.55166 0.2363 0.93342 0.0
H580 H 0.55679 0.2054 0.94681 0.0
H581 H 0.53381 0.22813 0.96256 0.0
H582 H 0.53771 0.21111 0.00642 0.0
H583 H 0.52182 0.16873 0.0201 0.0
H584 H 0.91914 0.67346 0.45397 0.0
H585 H 0.93356 0.71909 0.45837 0.0
H586 H 0.00417 0.69963 0.50139 0.0
H587 H 0.98989 0.65361 0.49717 0.0
H588 H 0.94264 0.74636 0.51046 0.0
H589 H 0.03259 0.74921 0.44303 0.0
H590 H 0.00588 0.72431 0.43951 0.0
H591 H 0.03007 0.72367 0.46519 0.0
C592 C 0.9379 0.67873 0.46418 0.0
C593 C 0.95332 0.65987 0.47532 0.0
C594 C 0.94609 0.70484 0.46662 0.0
C595 C 0.96995 0.71259 0.48004 0.0
C596 C 0.98582 0.69388 0.49071 0.0
H597 H 0.0377 0.86798 0.51815 0.0
H598 H 0.0315 0.82096 0.51008 0.0
C599 C 0.97757 0.66766 0.48837 0.0
C600 C 0.9769 0.74051 0.48433 0.0
H601 H 0.02076 0.78859 0.46552 0.0
C602 C 0.95975 0.75563 0.50071 0.0
C603 C 0.99935 0.75232 0.4717 0.0
C604 C 0.01808 0.7367 0.45374 0.0
C605 C 0.96434 0.78247 0.50473 0.0
C606 C 0.98626 0.79452 0.49143 0.0
C607 C 0.00383 0.77928 0.47547 0.0
C608 C 0.99109 0.82297 0.49393 0.0
C609 C 0.94586 0.7976 0.52344 0.0
C610 C 0.97079 0.83963 0.48668 0.0
C611 C 0.97424 0.86643 0.4913 0.0
C612 C 0.99821 0.87704 0.50296 0.0
C613 C 0.0191 0.86037 0.50897 0.0
C614 C 0.01556 0.83353 0.50447 0.0
H615 H 0.9353 0.78483 0.53718 0.0
H616 H 0.95755 0.81311 0.53478 0.0
H617 H 0.92993 0.80684 0.51238 0.0
H618 H 0.95203 0.83184 0.47793 0.0
H619 H 0.958 0.87885 0.48611 0.0
H620 H 0.47664 0.81476 0.67071 0.0
H621 H 0.49521 0.77453 0.65109 0.0
H622 H 0.41533 0.7371 0.65563 0.0
H623 H 0.39691 0.77693 0.67621 0.0
H624 H 0.45245 0.70598 0.67008 0.0
H625 H 0.48812 0.74539 0.57797 0.0
H626 H 0.50328 0.76256 0.6057 0.0
H627 H 0.46687 0.76347 0.60107 0.0
C628 C 0.46303 0.79795 0.66752 0.0
C629 C 0.43527 0.79907 0.67495 0.0
C630 C 0.47363 0.77501 0.65606 0.0
C631 C 0.45657 0.75288 0.65126 0.0
C632 C 0.42891 0.75391 0.65897 0.0
H633 H 0.49651 0.61688 0.55024 0.0
H634 H 0.47983 0.65847 0.56867 0.0
C635 C 0.41839 0.77671 0.67076 0.0
C636 C 0.46759 0.72842 0.63892 0.0
H637 H 0.50318 0.70322 0.58614 0.0
C638 C 0.46343 0.70539 0.65166 0.0
C639 C 0.48153 0.72746 0.61464 0.0
C640 C 0.48497 0.75099 0.59892 0.0
C641 C 0.47305 0.6816 0.64104 0.0
C642 C 0.48816 0.68088 0.6174 0.0
C643 C 0.49198 0.70381 0.60444 0.0
C644 C 0.49972 0.65643 0.60564 0.0
C645 C 0.46622 0.65741 0.65501 0.0
C646 C 0.51718 0.6418 0.61991 0.0
C647 C 0.5264 0.6179 0.60956 0.0
C648 C 0.5189 0.60838 0.58446 0.0
C649 C 0.50265 0.62368 0.56963 0.0
C650 C 0.49307 0.64744 0.58017 0.0
H651 H 0.44786 0.65991 0.66777 0.0
H652 H 0.46241 0.64041 0.64112 0.0
H653 H 0.48363 0.65318 0.66746 0.0
H654 H 0.52338 0.64868 0.63925 0.0
H655 H 0.53919 0.60674 0.62137 0.0
H656 H 0.93989 0.85877 0.80606 0.0
H657 H 0.95705 0.87788 0.76644 0.0
H658 H 0.89305 0.93363 0.7729 0.0
H659 H 0.87563 0.91462 0.81203 0.0
H660 H 0.89841 0.91184 0.72341 0.0
H661 H 0.99975 0.94667 0.76101 0.0
H662 H 0.99246 0.91265 0.7637 0.0
H663 H 0.9723 0.93613 0.78197 0.0
C664 C 0.92948 0.87511 0.79906 0.0
C665 C 0.90638 0.88513 0.8124 0.0
C666 C 0.93944 0.88615 0.77647 0.0
C667 C 0.9266 0.90748 0.76682 0.0
C668 C 0.90341 0.91727 0.77995 0.0
H669 H 0.98753 0.01427 0.65349 0.0
H670 H 0.97122 0.9938 0.69262 0.0
C671 C 0.89348 0.90632 0.80243 0.0
C672 C 0.93676 0.9195 0.74283 0.0
H673 H 0.99172 0.95145 0.71647 0.0
C674 C 0.91884 0.92045 0.7219 0.0
C675 C 0.96327 0.93112 0.74093 0.0
C676 C 0.98303 0.93187 0.76315 0.0
C677 C 0.92671 0.93247 0.69916 0.0
C678 C 0.95344 0.94356 0.69701 0.0
C679 C 0.9713 0.94282 0.71801 0.0
C680 C 0.96318 0.95604 0.67315 0.0
C681 C 0.90608 0.93369 0.67786 0.0
C682 C 0.9643 0.94165 0.64917 0.0
C683 C 0.97352 0.9533 0.62678 0.0
C684 C 0.98204 0.97964 0.62782 0.0
C685 C 0.98101 0.99401 0.65191 0.0
C686 C 0.97178 0.9823 0.67433 0.0
H687 H 0.88479 0.93071 0.68515 0.0
H688 H 0.90764 0.95263 0.66887 0.0
H689 H 0.91011 0.91814 0.66255 0.0
H690 H 0.9583 0.92126 0.64778 0.0
H691 H 0.97419 0.94153 0.60866 0.0
H692 H 0.60747 0.15954 0.32093 0.0
H693 H 0.59062 0.13818 0.28058 0.0
H694 H 0.65051 0.07907 0.28471 0.0
H695 H 0.66785 0.10054 0.32523 0.0
H696 H 0.64717 0.09872 0.23543 0.0
H697 H 0.54425 0.0709 0.27259 0.0
H698 H 0.55277 0.10476 0.27878 0.0
H699 H 0.57221 0.08092 0.29377 0.0
C700 C 0.61709 0.14194 0.3134 0.0
C701 C 0.63899 0.13171 0.32647 0.0
C702 C 0.60727 0.12967 0.29035 0.0
C703 C 0.61897 0.10679 0.27985 0.0
C704 C 0.64105 0.09662 0.29259 0.0
H705 H 0.54281 0.01249 0.15204 0.0
H706 H 0.56359 0.02714 0.19347 0.0
C707 C 0.65091 0.1089 0.31575 0.0
C708 C 0.60845 0.09402 0.25523 0.0
H709 H 0.55016 0.06872 0.22651 0.0
C710 C 0.62603 0.09193 0.23351 0.0
C711 C 0.58097 0.08483 0.25284 0.0
C712 C 0.56151 0.0852 0.2758 0.0
C713 C 0.61659 0.08177 0.20924 0.0
C714 C 0.58874 0.07387 0.20655 0.0
C715 C 0.57143 0.07507 0.2285 0.0
C716 C 0.57696 0.06473 0.18108 0.0
C717 C 0.63657 0.07953 0.18672 0.0
C718 C 0.57731 0.08108 0.1604 0.0
C719 C 0.56547 0.07278 0.13668 0.0
C720 C 0.55282 0.04799 0.13321 0.0
C721 C 0.5524 0.03169 0.15401 0.0
C722 C 0.56427 0.04002 0.17772 0.0
H723 H 0.65804 0.07915 0.19344 0.0
H724 H 0.63219 0.06174 0.17405 0.0
H725 H 0.6348 0.0966 0.17494 0.0
H726 H 0.58642 0.10045 0.16271 0.0
H727 H 0.56606 0.08589 0.12114 0.0
H728 H 0.46169 0.58183 0.20892 0.0
H729 H 0.46302 0.57841 0.25588 0.0
H730 H 0.55026 0.56818 0.25101 0.0
H731 H 0.54923 0.57229 0.20417 0.0
H732 H 0.47816 0.53942 0.28394 0.0
H733 H 0.54509 0.62597 0.30712 0.0
H734 H 0.52966 0.61949 0.27576 0.0
H735 H 0.56034 0.60345 0.28369 0.0
C736 C 0.48118 0.57891 0.21785 0.0
C737 C 0.50539 0.57749 0.20285 0.0
C738 C 0.4819 0.57697 0.24468 0.0
C739 C 0.50681 0.57356 0.25702 0.0
C740 C 0.53092 0.57154 0.24201 0.0
H741 H 0.52869 0.51505 0.40805 0.0
H742 H 0.52413 0.52113 0.36181 0.0
C743 C 0.53026 0.57369 0.2152 0.0
C744 C 0.50746 0.57145 0.28549 0.0
H745 H 0.53801 0.59691 0.34085 0.0
C746 C 0.4911 0.5521 0.29642 0.0
C747 C 0.52397 0.58832 0.30182 0.0
C748 C 0.54053 0.61065 0.29155 0.0
C749 C 0.49134 0.5487 0.32314 0.0
C750 C 0.50897 0.56466 0.33925 0.0
C751 C 0.52476 0.58447 0.32843 0.0
C752 C 0.51157 0.56097 0.36732 0.0
C753 C 0.47243 0.52826 0.33386 0.0
C754 C 0.5069 0.58159 0.38577 0.0
C755 C 0.50982 0.57825 0.41222 0.0
C756 C 0.51741 0.55419 0.42067 0.0
C757 C 0.5223 0.53365 0.40214 0.0
C758 C 0.51962 0.53708 0.37572 0.0
H759 H 0.45472 0.52363 0.32095 0.0
H760 H 0.4838 0.51016 0.33536 0.0
H761 H 0.46457 0.53458 0.35346 0.0
H762 H 0.50082 0.60023 0.3797 0.0
H763 H 0.5058 0.59437 0.42608 0.0
H764 H 0.08096 0.51616 0.67696 0.0
H765 H 0.0714 0.50863 0.72265 0.0
H766 H 0.13455 0.45202 0.72082 0.0
H767 H 0.14459 0.45984 0.67536 0.0
H768 H 0.0585 0.45812 0.74755 0.0
H769 H 0.15492 0.51029 0.77948 0.0
H770 H 0.13995 0.51444 0.74832 0.0
H771 H 0.15746 0.48529 0.75368 0.0
C772 C 0.09258 0.50192 0.68626 0.0
C773 C 0.11316 0.48823 0.67252 0.0
C774 C 0.08704 0.49757 0.71225 0.0
C775 C 0.10227 0.47977 0.72498 0.0
C776 C 0.12254 0.46576 0.71123 0.0
H777 H 0.07752 0.44126 0.88746 0.0
H778 H 0.08653 0.43677 0.8405 0.0
C779 C 0.128 0.47001 0.68519 0.0
C780 C 0.09798 0.47712 0.75305 0.0
H781 H 0.12608 0.49435 0.812 0.0
C782 C 0.07336 0.46574 0.76169 0.0
C783 C 0.11742 0.48726 0.77131 0.0
C784 C 0.1439 0.50018 0.76291 0.0
C785 C 0.0675 0.46459 0.78829 0.0
C786 C 0.08673 0.47517 0.8065 0.0
C787 C 0.11154 0.48611 0.79786 0.0
C788 C 0.08047 0.47723 0.83457 0.0
C789 C 0.04047 0.45299 0.79691 0.0
C790 C 0.07407 0.50142 0.84654 0.0
C791 C 0.06871 0.50402 0.87314 0.0
C792 C 0.06994 0.4825 0.8884 0.0
C793 C 0.0762 0.45816 0.87625 0.0
C794 C 0.08143 0.45556 0.8495 0.0
H795 H 0.02703 0.44698 0.78028 0.0
H796 H 0.04413 0.43575 0.80799 0.0
H797 H 0.02961 0.46725 0.81005 0.0
H798 H 0.07315 0.51831 0.83523 0.0
H799 H 0.06336 0.52292 0.88169 0.0
H800 H 0.78618 0.95613 0.91701 0.0
H801 H 0.74526 0.96914 0.94147 0.0
H802 H 0.73335 0.89126 0.96569 0.0
H803 H 0.77468 0.87802 0.94135 0.0
H804 H 0.69219 0.94927 0.93394 0.0
H805 H 0.7264 0.93577 0.03423 0.0
H806 H 0.75003 0.93704 0.00712 0.0
H807 H 0.72961 0.90814 0.01151 0.0
C808 C 0.77505 0.94172 0.92768 0.0
C809 C 0.78381 0.91599 0.92721 0.0
C810 C 0.75159 0.94923 0.94166 0.0
C811 C 0.73634 0.93128 0.95565 0.0
C812 C 0.74505 0.90558 0.95543 0.0
H813 H 0.5833 0.95323 0.04486 0.0
H814 H 0.62428 0.93452 0.02404 0.0
C815 C 0.76861 0.89801 0.94139 0.0
C816 C 0.71075 0.9395 0.96942 0.0
H817 H 0.6808 0.94853 0.02947 0.0
C818 C 0.68971 0.94906 0.95482 0.0
C819 C 0.7074 0.93906 0.99666 0.0
C820 C 0.72959 0.92965 0.01342 0.0
C821 C 0.66556 0.95836 0.96667 0.0
C822 C 0.66251 0.9586 0.99397 0.0
C823 C 0.68322 0.94844 0.00856 0.0
C824 C 0.63832 0.97012 0.00766 0.0
C825 C 0.64343 0.96771 0.94979 0.0
C826 C 0.63295 0.99648 0.00591 0.0
C827 C 0.60962 0.00722 0.01775 0.0
C828 C 0.59115 0.99185 0.03176 0.0
C829 C 0.59701 0.9656 0.03416 0.0
C830 C 0.62043 0.95487 0.02228 0.0
H831 H 0.64547 0.95965 0.92941 0.0
H832 H 0.62277 0.96228 0.95728 0.0
H833 H 0.64504 0.98918 0.94974 0.0
H834 H 0.64676 0.00876 0.99519 0.0
H835 H 0.60591 0.02753 0.01563 0.0
H836 H 0.78501 0.1411 0.41915 0.0
H837 H 0.82298 0.12092 0.43969 0.0
H838 H 0.76595 0.07001 0.47759 0.0
H839 H 0.72775 0.09042 0.45749 0.0
H840 H 0.80434 0.09167 0.51094 0.0
H841 H 0.85505 0.05042 0.4216 0.0
H842 H 0.84994 0.08464 0.42112 0.0
H843 H 0.8208 0.06254 0.42174 0.0
C844 C 0.78051 0.12548 0.43171 0.0
C845 C 0.75331 0.11731 0.43658 0.0
C846 C 0.80229 0.11386 0.44333 0.0
C847 C 0.79738 0.09365 0.45986 0.0
C848 C 0.77025 0.08547 0.4648 0.0
H849 H 0.9272 0.99765 0.51245 0.0
H850 H 0.88541 0.01289 0.49365 0.0
C851 C 0.74844 0.09714 0.45324 0.0
C852 C 0.82047 0.08168 0.47269 0.0
H853 H 0.88081 0.05119 0.46054 0.0
C854 C 0.82097 0.08265 0.49992 0.0
C855 C 0.84198 0.06955 0.45833 0.0
C856 C 0.84185 0.06645 0.42909 0.0
C857 C 0.84273 0.07249 0.51316 0.0
C858 C 0.86487 0.06147 0.4988 0.0
C859 C 0.86399 0.05986 0.47157 0.0
C860 C 0.88935 0.05185 0.51154 0.0
C861 C 0.84163 0.07342 0.54241 0.0
C862 C 0.90549 0.06865 0.5279 0.0
C863 C 0.92931 0.05995 0.5388 0.0
C864 C 0.93768 0.03433 0.53334 0.0
C865 C 0.92135 0.01748 0.51712 0.0
C866 C 0.89747 0.02618 0.5063 0.0
H867 H 0.82029 0.07502 0.54992 0.0
H868 H 0.85059 0.05589 0.54983 0.0
H869 H 0.85354 0.09072 0.55028 0.0
H870 H 0.90004 0.0887 0.53177 0.0
H871 H 0.94149 0.07352 0.55103 0.0
H872 H 0.33769 0.56194 0.07508 0.0
H873 H 0.28942 0.55195 0.06646 0.0
H874 H 0.26988 0.63129 0.08834 0.0
H875 H 0.31832 0.64162 0.09675 0.0
H876 H 0.24509 0.55688 0.10106 0.0
H877 H 0.23388 0.61753 0.01702 0.0
H878 H 0.26685 0.60935 0.02897 0.0
H879 H 0.2474 0.63427 0.04585 0.0
C880 C 0.32319 0.57735 0.07797 0.0
C881 C 0.33188 0.60262 0.08652 0.0
C882 C 0.2956 0.57157 0.07306 0.0
C883 C 0.27615 0.59094 0.07649 0.0
C884 C 0.28466 0.61618 0.08515 0.0
H885 H 0.09974 0.55752 0.08255 0.0
H886 H 0.14628 0.57344 0.09268 0.0
C887 C 0.31232 0.622 0.09006 0.0
C888 C 0.24692 0.58438 0.07147 0.0
H889 H 0.19379 0.59629 0.03216 0.0
C890 C 0.23381 0.56555 0.08607 0.0
C891 C 0.23241 0.59558 0.05173 0.0
C892 C 0.24583 0.61515 0.0348 0.0
C893 C 0.20656 0.5575 0.08139 0.0
C894 C 0.19195 0.56889 0.06183 0.0
C895 C 0.20502 0.58778 0.04728 0.0
C896 C 0.16348 0.56052 0.0554 0.0
C897 C 0.1939 0.53633 0.09688 0.0
C898 C 0.15763 0.54868 0.03082 0.0
C899 C 0.13108 0.53967 0.02491 0.0
C900 C 0.10985 0.54244 0.04347 0.0
C901 C 0.11566 0.55492 0.06788 0.0
C902 C 0.14225 0.56394 0.07375 0.0
H903 H 0.2096 0.5257 0.10694 0.0
H904 H 0.17981 0.54507 0.11181 0.0
H905 H 0.18185 0.52219 0.08418 0.0
H906 H 0.17375 0.54596 0.01636 0.0
H907 H 0.12729 0.53026 0.0059 0.0
H908 H 0.21861 0.48313 0.5679 0.0
H909 H 0.26839 0.47998 0.5645 0.0
H910 H 0.27815 0.55529 0.60503 0.0
H911 H 0.22847 0.5589 0.60789 0.0
H912 H 0.31041 0.55103 0.56269 0.0
H913 H 0.3221 0.46508 0.62004 0.0
H914 H 0.29894 0.4593 0.59351 0.0
H915 H 0.29064 0.48247 0.61975 0.0
C916 C 0.23136 0.49898 0.57617 0.0
C917 C 0.2196 0.52126 0.58818 0.0
C918 C 0.25981 0.49705 0.5744 0.0
C919 C 0.27699 0.51719 0.58494 0.0
C920 C 0.26528 0.53946 0.59688 0.0
H921 H 0.45236 0.51515 0.60987 0.0
H922 H 0.40242 0.51361 0.61469 0.0
C923 C 0.23687 0.5415 0.59848 0.0
C924 C 0.30718 0.51566 0.58255 0.0
H925 H 0.36155 0.47922 0.5966 0.0
C926 C 0.32159 0.53537 0.57018 0.0
C927 C 0.32177 0.4954 0.59265 0.0
C928 C 0.30762 0.4745 0.60746 0.0
C929 C 0.35015 0.53525 0.56736 0.0
C930 C 0.36465 0.51446 0.57655 0.0
C931 C 0.35033 0.49493 0.58926 0.0
C932 C 0.39476 0.51302 0.57349 0.0
C933 C 0.36456 0.5577 0.55504 0.0
C934 C 0.40694 0.51231 0.54871 0.0
C935 C 0.43539 0.5134 0.54591 0.0
C936 C 0.4522 0.51484 0.56785 0.0
C937 C 0.43996 0.51411 0.5926 0.0
C938 C 0.41145 0.51324 0.59539 0.0
H939 H 0.35167 0.57509 0.55572 0.0
H940 H 0.38419 0.56306 0.56483 0.0
H941 H 0.36908 0.55206 0.53436 0.0
H942 H 0.39442 0.51146 0.53153 0.0
H943 H 0.44418 0.51361 0.52655 0.0
H944 H 0.96748 0.78239 0.92029 0.0
H945 H 0.98516 0.74314 0.93733 0.0
H946 H 0.90756 0.70333 0.92254 0.0
H947 H 0.8902 0.74214 0.90455 0.0
H948 H 0.97068 0.71764 0.97759 0.0
H949 H 0.95717 0.65028 0.89082 0.0
H950 H 0.95337 0.68479 0.88979 0.0
H951 H 0.92555 0.6646 0.90109 0.0
C952 C 0.95429 0.76517 0.92035 0.0
C953 C 0.92748 0.76539 0.9108 0.0
C954 C 0.9644 0.74271 0.9302 0.0
C955 C 0.94794 0.71995 0.93088 0.0
C956 C 0.92106 0.72025 0.92156 0.0
H957 H 0.97954 0.59379 0.03129 0.0
H958 H 0.96363 0.63305 0.01286 0.0
C959 C 0.91106 0.74258 0.91139 0.0
C960 C 0.95855 0.69631 0.94219 0.0
H961 H 0.96601 0.63096 0.93046 0.0
C962 C 0.9698 0.69872 0.96717 0.0
C963 C 0.95789 0.67156 0.9286 0.0
C964 C 0.94812 0.66767 0.901 0.0
C965 C 0.97997 0.67722 0.979 0.0
C966 C 0.9781 0.65227 0.96589 0.0
C967 C 0.9672 0.64992 0.94076 0.0
C968 C 0.98784 0.62842 0.97748 0.0
C969 C 0.99328 0.68171 0.00515 0.0
C970 C 0.00611 0.61207 0.96355 0.0
C971 C 0.01476 0.5893 0.97382 0.0
C972 C 0.00553 0.58233 0.99843 0.0
C973 C 0.98732 0.59871 0.01244 0.0
C974 C 0.97834 0.62132 1.00196 0.0
H975 H 1.00087 0.70212 0.00855 0.0
H976 H 0.97795 0.67783 0.02058 0.0
H977 H 0.01071 0.6687 0.00702 0.0
H978 H 0.01374 0.61693 0.94463 0.0
H979 H 0.0288 0.57717 0.96247 0.0
H980 H 0.51483 0.6771 0.09487 0.0
H981 H 0.51222 0.72421 0.09389 0.0
H982 H 0.43062 0.72094 0.12654 0.0
H983 H 0.43332 0.67383 0.12824 0.0
H984 H 0.43978 0.75386 0.08151 0.0
H985 H 0.51341 0.77376 0.16172 0.0
H986 H 0.52466 0.75098 0.13628 0.0
H987 H 0.49551 0.74284 0.15606 0.0
C988 C 0.49625 0.68636 0.1017 0.0
C989 C 0.47408 0.67165 0.11121 0.0
C990 C 0.49482 0.71325 0.10116 0.0
C991 C 0.4713 0.72597 0.11028 0.0
C992 C 0.44888 0.71138 0.11929 0.0
H993 H 0.44166 0.89357 0.11164 0.0
H994 H 0.43473 0.84694 0.11679 0.0
C995 C 0.45033 0.68442 0.11993 0.0
C996 C 0.4706 0.75458 0.11087 0.0
H997 H 0.50269 0.80943 0.13721 0.0
C998 C 0.45323 0.76612 0.09388 0.0
C999 C 0.48812 0.77037 0.12717 0.0
C1000 C 0.50634 0.75894 0.14653 0.0
C1001 C 0.45395 0.79312 0.09181 0.0
C1002 C 0.47218 0.80884 0.10751 0.0
C1003 C 0.4888 0.7973 0.12516 0.0
C1004 C 0.47589 0.83707 0.10465 0.0
C1005 C 0.43616 0.80448 0.07206 0.0
C1006 C 0.50143 0.84697 0.09665 0.0
C1007 C 0.50547 0.87346 0.09379 0.0
C1008 C 0.48405 0.89069 0.09901 0.0
C1009 C 0.45847 0.88076 0.10722 0.0
C1010 C 0.45446 0.85415 0.11012 0.0
H1011 H 0.42732 0.78932 0.05812 0.0
H1012 H 0.41901 0.81466 0.08221 0.0
H1013 H 0.44803 0.81887 0.06104 0.0
H1014 H 0.51822 0.83409 0.0923 0.0
H1015 H 0.52527 0.88037 0.08699 0.0
H1016 H 0.0424 0.36584 0.64714 0.0
H1017 H 0.02976 0.31965 0.64683 0.0
H1018 H 0.115 0.30093 0.6493 0.0
H1019 H 0.12793 0.34708 0.64959 0.0
H1020 H 0.04914 0.28229 0.60684 0.0
H1021 H 0.07679 0.2577 0.70613 0.0
H1022 H 0.07061 0.29051 0.69803 0.0
H1023 H 0.10238 0.27574 0.68885 0.0
C1024 C 0.05848 0.35195 0.64795 0.0
C1025 C 0.08619 0.36012 0.64829 0.0
C1026 C 0.05119 0.32558 0.64779 0.0
C1027 C 0.07143 0.30698 0.64831 0.0
C1028 C 0.09907 0.31506 0.64931 0.0
H1029 H 0.07947 0.14081 0.62913 0.0
H1030 H 0.08718 0.18719 0.63976 0.0
C1031 C 0.10641 0.34142 0.64931 0.0
C1032 C 0.06379 0.27905 0.64553 0.0
H1033 H 0.06555 0.22245 0.67596 0.0
C1034 C 0.05245 0.26919 0.62201 0.0
C1035 C 0.06842 0.26213 0.66532 0.0
C1036 C 0.08003 0.27198 0.69112 0.0
C1037 C 0.04626 0.24264 0.61742 0.0
C1038 C 0.05083 0.22562 0.63722 0.0
C1039 C 0.06193 0.23556 0.66089 0.0
C1040 C 0.04532 0.19729 0.63319 0.0
C1041 C 0.03591 0.23297 0.59103 0.0
C1042 C 0.01902 0.18748 0.62679 0.0
C1043 C 0.01463 0.16103 0.62025 0.0
C1044 C 0.03642 0.14383 0.62033 0.0
C1045 C 0.06238 0.15357 0.62827 0.0
C1046 C 0.06678 0.18005 0.63459 0.0
H1047 H 0.04035 0.24721 0.57619 0.0
H1048 H 0.04524 0.2143 0.58445 0.0
H1049 H 0.01338 0.22978 0.59212 0.0
H1050 H 1.00203 0.20039 0.62617 0.0
H1051 H 0.99441 0.15428 0.61414 0.0
H1052 H 0.65024 0.2745 0.43408 0.0
H1053 H 0.63786 0.31609 0.45575 0.0
H1054 H 0.56803 0.2791 0.49154 0.0
H1055 H 0.57995 0.23755 0.46959 0.0
H1056 H 0.55434 0.32261 0.46883 0.0
H1057 H 0.64498 0.3438 0.53068 0.0
H1058 H 0.65369 0.33722 0.49708 0.0
H1059 H 0.63773 0.31209 0.51511 0.0
C1060 C 0.63244 0.27513 0.44683 0.0
C1061 C 0.61608 0.25267 0.45008 0.0
C1062 C 0.62547 0.29892 0.45933 0.0
C1063 C 0.6022 0.30068 0.47555 0.0
C1064 C 0.58613 0.2782 0.47919 0.0
H1065 H 0.55954 0.439 0.57291 0.0
H1066 H 0.57162 0.39497 0.55723 0.0
C1067 C 0.59301 0.25444 0.46663 0.0
C1068 C 0.59358 0.32619 0.48737 0.0
H1069 H 0.61517 0.37895 0.52585 0.0
C1070 C 0.56757 0.33484 0.48146 0.0
C1071 C 0.6107 0.34202 0.5041 0.0
C1072 C 0.63822 0.33324 0.51236 0.0
C1073 C 0.55848 0.35911 0.49126 0.0
C1074 C 0.57608 0.37543 0.50704 0.0
C1075 C 0.6018 0.36653 0.51354 0.0
C1076 C 0.56834 0.40199 0.51657 0.0
C1077 C 0.53 0.36694 0.4848 0.0
C1078 C 0.56272 0.42062 0.49892 0.0
C1079 C 0.55571 0.44571 0.50779 0.0
C1080 C 0.55442 0.45281 0.53454 0.0
C1081 C 0.56024 0.43416 0.55219 0.0
C1082 C 0.56721 0.40901 0.54327 0.0
H1083 H 0.51661 0.34978 0.4792 0.0
H1084 H 0.52034 0.37802 0.50147 0.0
H1085 H 0.53116 0.37946 0.46815 0.0
H1086 H 0.56405 0.41583 0.47822 0.0
H1087 H 0.55157 0.45961 0.49363 0.0
loop_
_geom_bond_atom_site_label_1
_geom_bond_atom_site_label_2
_geom_bond_distance
_geom_bond_site_symmetry_2
_ccdc_geom_bond_type
O0 Cd1 2.300 . S
O0 C7 1.275 . S
Cd1 O0 2.300 . S
Cd1 O9 2.381 . S
Cd1 O10 2.378 . S
O2 Cd3 2.385 . S
O2 C7 1.255 . S
Cd3 O2 2.385 . S
Cd3 O4 2.317 . S
O4 Cd3 2.317 . S
O4 C5 1.232 . S
C5 O4 1.232 . S
C5 O6 1.218 . S
O6 C5 1.218 . S
C7 O0 1.275 . S
C7 O2 1.255 . S
C8 O9 1.258 . S
C8 O10 1.256 . S
O9 Cd1 2.381 . S
O9 C8 1.258 . S
O10 Cd1 2.378 . S
O10 C8 1.256 . S
O11 Cd12 2.300 . S
O11 C18 1.275 . S
Cd12 O11 2.300 . S
Cd12 O20 2.381 . S
Cd12 O21 2.378 . S
O13 Cd14 2.385 . S
O13 C18 1.255 . S
Cd14 O13 2.385 . S
Cd14 O15 2.317 . S
O15 Cd14 2.317 . S
O15 C16 1.232 . S
C16 O15 1.232 . S
C16 O17 1.218 . S
O17 C16 1.218 . S
C18 O11 1.275 . S
C18 O13 1.255 . S
C19 O20 1.258 . S
C19 O21 1.256 . S
O20 Cd12 2.381 . S
O20 C19 1.258 . S
O21 Cd12 2.378 . S
O21 C19 1.256 . S
O22 Cd23 2.300 . S
O22 C29 1.275 . S
Cd23 O22 2.300 . S
Cd23 O31 2.381 . S
Cd23 O32 2.378 . S
O24 Cd25 2.385 . S
O24 C29 1.255 . S
Cd25 O24 2.385 . S
Cd25 O26 2.317 . S
O26 Cd25 2.317 . S
O26 C27 1.232 . S
C27 O26 1.232 . S
C27 O28 1.218 . S
O28 C27 1.218 . S
C29 O22 1.275 . S
C29 O24 1.255 . S
C30 O31 1.258 . S
C30 O32 1.256 . S
O31 Cd23 2.381 . S
O31 C30 1.258 . S
O32 Cd23 2.378 . S
O32 C30 1.256 . S
O33 Cd34 2.300 . S
O33 C40 1.275 . S
Cd34 O33 2.300 . S
Cd34 O42 2.381 . S
Cd34 O43 2.378 . S
O35 Cd36 2.385 . S
O35 C40 1.255 . S
Cd36 O35 2.385 . S
Cd36 O37 2.317 . S
O37 Cd36 2.317 . S
O37 C38 1.232 . S
C38 O37 1.232 . S
C38 O39 1.218 . S
O39 C38 1.218 . S
C40 O33 1.275 . S
C40 O35 1.255 . S
C41 O42 1.258 . S
C41 O43 1.256 . S
O42 Cd34 2.381 . S
O42 C41 1.258 . S
O43 Cd34 2.378 . S
O43 C41 1.256 . S
O44 Cd45 2.300 . S
O44 C51 1.275 . S
Cd45 O44 2.300 . S
Cd45 O53 2.381 . S
Cd45 O54 2.378 . S
O46 Cd47 2.385 . S
O46 C51 1.255 . S
Cd47 O46 2.385 . S
Cd47 O48 2.317 . S
O48 Cd47 2.317 . S
O48 C49 1.232 . S
C49 O48 1.232 . S
C49 O50 1.218 . S
O50 C49 1.218 . S
C51 O44 1.275 . S
C51 O46 1.255 . S
C52 O53 1.258 . S
C52 O54 1.256 . S
O53 Cd45 2.381 . S
O53 C52 1.258 . S
O54 Cd45 2.378 . S
O54 C52 1.256 . S
O55 Cd56 2.300 . S
O55 C62 1.275 . S
Cd56 O55 2.300 . S
Cd56 O64 2.381 . S
Cd56 O65 2.378 . S
O57 Cd58 2.385 . S
O57 C62 1.255 . S
Cd58 O57 2.385 . S
Cd58 O59 2.317 . S
O59 Cd58 2.317 . S
O59 C60 1.232 . S
C60 O59 1.232 . S
C60 O61 1.218 . S
O61 C60 1.218 . S
C62 O55 1.275 . S
C62 O57 1.255 . S
C63 O64 1.258 . S
C63 O65 1.256 . S
O64 Cd56 2.381 . S
O64 C63 1.258 . S
O65 Cd56 2.378 . S
O65 C63 1.256 . S
O66 Cd67 2.300 . S
O66 C73 1.275 . S
Cd67 O66 2.300 . S
Cd67 O75 2.381 . S
Cd67 O76 2.378 . S
O68 Cd69 2.385 . S
O68 C73 1.255 . S
Cd69 O68 2.385 . S
Cd69 O70 2.317 . S
O70 Cd69 2.317 . S
O70 C71 1.232 . S
C71 O70 1.232 . S
C71 O72 1.218 . S
O72 C71 1.218 . S
C73 O66 1.275 . S
C73 O68 1.255 . S
C74 O75 1.258 . S
C74 O76 1.256 . S
O75 Cd67 2.381 . S
O75 C74 1.258 . S
O76 Cd67 2.378 . S
O76 C74 1.256 . S
O77 Cd78 2.300 . S
O77 C84 1.275 . S
Cd78 O77 2.300 . S
Cd78 O86 2.381 . S
Cd78 O87 2.378 . S
O79 Cd80 2.385 . S
O79 C84 1.255 . S
Cd80 O79 2.385 . S
Cd80 O81 2.317 . S
O81 Cd80 2.317 . S
O81 C82 1.232 . S
C82 O81 1.232 . S
C82 O83 1.218 . S
O83 C82 1.218 . S
C84 O77 1.275 . S
C84 O79 1.255 . S
C85 O86 1.258 . S
C85 O87 1.256 . S
O86 Cd78 2.381 . S
O86 C85 1.258 . S
O87 Cd78 2.378 . S
O87 C85 1.256 . S
C88 O104 1.251 . S
C88 O106 1.254 1_545 S
N89 C90 1.333 . S
N89 C94 1.307 . S
N89 Zn95 2.020 . S
C90 N89 1.333 . S
C90 C91 1.379 . S
C90 H108 0.952 . S
C91 C90 1.379 . S
C91 C92 1.390 . S
C91 H118 0.949 . S
C92 C91 1.390 . S
C92 C93 1.357 . S
C93 C92 1.357 . S
C93 C94 1.370 . S
C93 H119 0.950 . S
C94 N89 1.307 . S
C94 C93 1.370 . S
C94 H112 0.948 . S
Zn95 N89 2.020 . S
Zn95 O104 2.039 . S
Zn95 O110 2.034 . S
Zn95 O114 2.025 . S
Zn95 O116 2.024 1_455 S
C96 O115 1.246 . S
C96 O116 1.249 . S
N97 C98 1.307 1_655 S
N97 C99 1.333 . S
N97 Zn103 2.020 1_655 S
C98 N97 1.307 1_455 S
C98 C102 1.370 1_455 S
C98 H109 0.948 . S
C99 N97 1.333 . S
C99 C100 1.379 . S
C99 H107 0.952 . S
C100 C99 1.379 . S
C100 C101 1.390 . S
C100 H120 0.949 . S
C101 C100 1.390 . S
C101 C102 1.357 . S
C102 C98 1.370 1_655 S
C102 C101 1.357 . S
C102 H121 0.950 1_655 S
Zn103 N97 2.020 1_455 S
Zn103 O106 2.025 . S
Zn103 O111 2.024 . S
Zn103 O113 2.039 1_455 S
Zn103 O115 2.034 1_465 S
O104 C88 1.251 . S
O104 Zn95 2.039 . S
C105 O110 1.246 1_565 S
C105 O111 1.249 . S
O106 C88 1.254 1_565 S
O106 Zn103 2.025 . S
H107 C99 0.952 . S
H108 C90 0.952 . S
H109 C98 0.948 . S
O110 Zn95 2.034 . S
O110 C105 1.246 1_545 S
O111 Zn103 2.024 . S
O111 C105 1.249 . S
H112 C94 0.948 . S
O113 Zn103 2.039 1_655 S
O113 C117 1.251 . S
O114 Zn95 2.025 . S
O114 C117 1.254 1_445 S
O115 C96 1.246 . S
O115 Zn103 2.034 1_645 S
O116 Zn95 2.024 1_655 S
O116 C96 1.249 . S
C117 O113 1.251 . S
C117 O114 1.254 1_665 S
H118 C91 0.949 . S
H119 C93 0.950 . S
H120 C100 0.949 . S
H121 C102 0.950 1_455 S
C122 O138 1.251 . S
C122 O140 1.254 1_545 S
N123 C124 1.333 . S
N123 C128 1.307 . S
N123 Zn129 2.020 . S
C124 N123 1.333 . S
C124 C125 1.379 . S
C124 H142 0.952 . S
C125 C124 1.379 . S
C125 C126 1.390 . S
C125 H152 0.949 . S
C126 C125 1.390 . S
C126 C127 1.357 . S
C127 C126 1.357 . S
C127 C128 1.370 . S
C127 H153 0.950 . S
C128 N123 1.307 . S
C128 C127 1.370 . S
C128 H146 0.948 . S
Zn129 N123 2.020 . S
Zn129 O138 2.039 . S
Zn129 O144 2.034 . S
Zn129 O148 2.025 . S
Zn129 O150 2.024 . S
C130 O149 1.246 1_545 S
C130 O150 1.249 . S
N131 C132 1.307 . S
N131 C133 1.333 . S
N131 Zn137 2.020 . S
C132 N131 1.307 . S
C132 C136 1.370 . S
C132 H143 0.948 . S
C133 N131 1.333 . S
C133 C134 1.379 . S
C133 H141 0.952 . S
C134 C133 1.379 . S
C134 C135 1.390 . S
C134 H154 0.949 . S
C135 C134 1.390 . S
C135 C136 1.357 . S
C136 C132 1.370 . S
C136 C135 1.357 . S
C136 H155 0.950 . S
Zn137 N131 2.020 . S
Zn137 O140 2.025 . S
Zn137 O145 2.024 1_565 S
Zn137 O147 2.039 1_565 S
Zn137 O149 2.034 . S
O138 C122 1.251 . S
O138 Zn129 2.039 . S
C139 O144 1.246 . S
C139 O145 1.249 . S
O140 C122 1.254 1_565 S
O140 Zn137 2.025 . S
H141 C133 0.952 . S
H142 C124 0.952 . S
H143 C132 0.948 . S
O144 Zn129 2.034 . S
O144 C139 1.246 . S
O145 Zn137 2.024 1_545 S
O145 C139 1.249 . S
H146 C128 0.948 . S
O147 Zn137 2.039 1_545 S
O147 C151 1.251 . S
O148 Zn129 2.025 . S
O148 C151 1.254 . S
O149 C130 1.246 1_565 S
O149 Zn137 2.034 . S
O150 Zn129 2.024 . S
O150 C130 1.249 . S
C151 O147 1.251 . S
C151 O148 1.254 . S
H152 C125 0.949 . S
H153 C127 0.950 . S
H154 C134 0.949 . S
H155 C136 0.950 . S
C156 O172 1.251 . S
C156 O174 1.254 . S
N157 C158 1.333 . S
N157 C162 1.307 . S
N157 Zn163 2.020 . S
C158 N157 1.333 . S
C158 C159 1.379 . S
C158 H176 0.952 . S
C159 C158 1.379 . S
C159 C160 1.390 . S
C159 H186 0.949 . S
C160 C159 1.390 . S
C160 C161 1.357 . S
C161 C160 1.357 . S
C161 C162 1.370 . S
C161 H187 0.950 . S
C162 N157 1.307 . S
C162 C161 1.370 . S
C162 H180 0.948 . S
Zn163 N157 2.020 . S
Zn163 O172 2.039 . S
Zn163 O178 2.034 . S
Zn163 O182 2.025 . S
Zn163 O184 2.024 . S
C164 O183 1.246 . S
C164 O184 1.249 . S
N165 C166 1.307 . S
N165 C167 1.333 . S
N165 Zn171 2.020 . S
C166 N165 1.307 . S
C166 C170 1.370 . S
C166 H177 0.948 . S
C167 N165 1.333 . S
C167 C168 1.379 . S
C167 H175 0.952 . S
C168 C167 1.379 . S
C168 C169 1.390 . S
C168 H188 0.949 . S
C169 C168 1.390 . S
C169 C170 1.357 . S
C170 C166 1.370 . S
C170 C169 1.357 . S
C170 H189 0.950 . S
Zn171 N165 2.020 . S
Zn171 O174 2.025 . S
Zn171 O179 2.024 . S
Zn171 O181 2.039 . S
Zn171 O183 2.034 . S
O172 C156 1.251 . S
O172 Zn163 2.039 . S
C173 O178 1.246 . S
C173 O179 1.249 . S
O174 C156 1.254 . S
O174 Zn171 2.025 . S
H175 C167 0.952 . S
H176 C158 0.952 . S
H177 C166 0.948 . S
O178 Zn163 2.034 . S
O178 C173 1.246 . S
O179 Zn171 2.024 . S
O179 C173 1.249 . S
H180 C162 0.948 . S
O181 Zn171 2.039 . S
O181 C185 1.251 . S
O182 Zn163 2.025 . S
O182 C185 1.254 . S
O183 C164 1.246 . S
O183 Zn171 2.034 . S
O184 Zn163 2.024 . S
O184 C164 1.249 . S
C185 O181 1.251 . S
C185 O182 1.254 . S
H186 C159 0.949 . S
H187 C161 0.950 . S
H188 C168 0.949 . S
H189 C170 0.950 . S
C190 O206 1.251 . S
C190 O208 1.254 1_554 S
N191 C192 1.333 . S
N191 C196 1.307 1_455 S
N191 Zn197 2.020 . S
C192 N191 1.333 . S
C192 C193 1.379 1_455 S
C192 H210 0.952 . S
C193 C192 1.379 1_655 S
C193 C194 1.390 . S
C193 H220 0.950 . S
C194 C193 1.390 . S
C194 C195 1.357 . S
C195 C194 1.357 . S
C195 C196 1.370 . S
C195 H221 0.950 . S
C196 N191 1.307 1_655 S
C196 C195 1.370 . S
C196 H214 0.948 . S
Zn197 N191 2.020 . S
Zn197 O206 2.039 . S
Zn197 O212 2.034 . S
Zn197 O216 2.025 . S
Zn197 O218 2.024 1_455 S
C198 O217 1.243 1_554 S
C198 O218 1.249 . S
N199 C200 1.307 . S
N199 C201 1.333 . S
N199 Zn205 2.020 . S
C200 N199 1.307 . S
C200 C204 1.370 . S
C200 H211 0.948 . S
C201 N199 1.333 . S
C201 C202 1.379 . S
C201 H209 0.952 . S
C202 C201 1.379 . S
C202 C203 1.390 . S
C202 H222 0.949 . S
C203 C202 1.390 . S
C203 C204 1.357 . S
C204 C200 1.370 . S
C204 C203 1.357 . S
C204 H223 0.950 . S
Zn205 N199 2.020 . S
Zn205 O208 2.025 . S
Zn205 O213 2.024 1_556 S
Zn205 O215 2.039 1_556 S
Zn205 O217 2.037 1_455 S
O206 C190 1.251 . S
O206 Zn197 2.039 . S
C207 O212 1.246 . S
C207 O213 1.249 . S
O208 C190 1.254 1_556 S
O208 Zn205 2.025 . S
H209 C201 0.952 . S
H210 C192 0.952 . S
H211 C200 0.948 . S
O212 Zn197 2.034 . S
O212 C207 1.246 . S
O213 Zn205 2.024 1_554 S
O213 C207 1.249 . S
H214 C196 0.948 . S
O215 Zn205 2.039 1_554 S
O215 C219 1.251 . S
O216 Zn197 2.025 . S
O216 C219 1.254 . S
O217 C198 1.243 1_556 S
O217 Zn205 2.037 1_655 S
O218 Zn197 2.024 1_655 S
O218 C198 1.249 . S
C219 O215 1.251 . S
C219 O216 1.254 . S
H220 C193 0.950 . S
H221 C195 0.950 . S
H222 C202 0.949 . S
H223 C204 0.950 . S
H224 C232 0.929 . S
H225 C234 0.930 . S
H226 C236 0.930 . S
H227 C239 0.929 . S
H228 C242 0.930 . S
H229 C244 0.960 . S
H230 C244 0.960 . S
H231 C244 0.960 . S
C232 H224 0.929 . S
C232 C233 1.377 . S
C232 C234 1.384 . S
C233 C232 1.377 . S
C233 C239 1.390 . S
C234 H225 0.930 . S
C234 C232 1.384 . S
C234 C235 1.372 . S
C235 C234 1.372 . S
C235 C236 1.400 . S
C235 C240 1.490 . S
C236 H226 0.930 . S
C236 C235 1.400 . S
C236 C239 1.386 . S
H237 C253 0.930 . S
H238 C254 0.931 . S
C239 H227 0.929 . S
C239 C233 1.390 . S
C239 C236 1.386 . S
C240 C235 1.490 . S
C240 C242 1.395 . S
C240 C243 1.403 . S
H241 C247 0.930 . S
C242 H228 0.930 . S
C242 C240 1.395 . S
C242 C245 1.403 . S
C243 C240 1.403 . S
C243 C244 1.524 . S
C243 C247 1.400 . S
C244 H229 0.960 . S
C244 H230 0.960 . S
C244 H231 0.960 . S
C244 C243 1.524 . S
C245 C242 1.403 . S
C245 C246 1.392 . S
C245 C249 1.495 . S
C246 C245 1.392 . S
C246 C247 1.385 . S
C246 C248 1.478 . S
C247 H241 0.930 . S
C247 C243 1.400 . S
C247 C246 1.385 . S
C248 C246 1.478 . S
C248 C250 1.381 . S
C248 C254 1.383 . S
C249 C245 1.495 . S
C249 H255 0.959 . S
C249 H256 0.961 . S
C249 H257 0.960 . S
C250 C248 1.381 . S
C250 C251 1.394 . S
C250 H258 0.930 . S
C251 C250 1.394 . S
C251 C252 1.383 . S
C251 H259 0.929 . S
C252 C251 1.383 . S
C252 C253 1.377 . S
C253 H237 0.930 . S
C253 C252 1.377 . S
C253 C254 1.379 . S
C254 H238 0.931 . S
C254 C248 1.383 . S
C254 C253 1.379 . S
H255 C249 0.959 . S
H256 C249 0.961 . S
H257 C249 0.960 . S
H258 C250 0.930 . S
H259 C251 0.929 . S
H260 C268 0.929 . S
H261 C270 0.930 . S
H262 C272 0.930 . S
H263 C275 0.929 . S
H264 C278 0.930 . S
H265 C280 0.960 . S
H266 C280 0.960 . S
H267 C280 0.960 . S
C268 H260 0.929 . S
C268 C269 1.377 . S
C268 C270 1.384 . S
C269 C268 1.377 . S
C269 C275 1.390 . S
C270 H261 0.930 . S
C270 C268 1.384 . S
C270 C271 1.372 . S
C271 C270 1.372 . S
C271 C272 1.400 . S
C271 C276 1.490 . S
C272 H262 0.930 . S
C272 C271 1.400 . S
C272 C275 1.386 . S
H273 C289 0.930 . S
H274 C290 0.931 . S
C275 H263 0.929 . S
C275 C269 1.390 . S
C275 C272 1.386 . S
C276 C271 1.490 . S
C276 C278 1.395 . S
C276 C279 1.403 . S
H277 C283 0.930 . S
C278 H264 0.930 . S
C278 C276 1.395 . S
C278 C281 1.403 . S
C279 C276 1.403 . S
C279 C280 1.524 . S
C279 C283 1.400 . S
C280 H265 0.960 . S
C280 H266 0.960 . S
C280 H267 0.960 . S
C280 C279 1.524 . S
C281 C278 1.403 . S
C281 C282 1.392 . S
C281 C285 1.495 1_565 S
C282 C281 1.392 . S
C282 C283 1.385 . S
C282 C284 1.478 . S
C283 H277 0.930 . S
C283 C279 1.400 . S
C283 C282 1.385 . S
C284 C282 1.478 . S
C284 C286 1.381 1_565 S
C284 C290 1.383 . S
C285 C281 1.495 1_545 S
C285 H291 0.959 . S
C285 H292 0.974 . S
C285 H293 0.960 . S
C286 C284 1.381 1_545 S
C286 C287 1.394 . S
C286 H294 0.930 . S
C287 C286 1.394 . S
C287 C288 1.383 1_545 S
C287 H295 0.929 . S
C288 C287 1.383 1_565 S
C288 C289 1.377 . S
C289 H273 0.930 . S
C289 C288 1.377 . S
C289 C290 1.379 . S
C290 H274 0.931 . S
C290 C284 1.383 . S
C290 C289 1.379 . S
H291 C285 0.959 . S
H292 C285 0.974 . S
H293 C285 0.960 . S
H294 C286 0.930 . S
H295 C287 0.929 . S
H296 C304 0.929 . S
H297 C306 0.930 . S
H298 C308 0.930 . S
H299 C311 0.929 . S
H300 C314 0.930 . S
H301 C316 0.960 . S
H302 C316 0.960 . S
H303 C316 0.960 . S
C304 H296 0.929 . S
C304 C305 1.377 . S
C304 C306 1.384 . S
C305 C304 1.377 . S
C305 C311 1.390 . S
C306 H297 0.930 . S
C306 C304 1.384 . S
C306 C307 1.372 . S
C307 C306 1.372 . S
C307 C308 1.400 . S
C307 C312 1.490 . S
C308 H298 0.930 . S
C308 C307 1.400 . S
C308 C311 1.386 . S
H309 C325 0.930 . S
H310 C326 0.931 . S
C311 H299 0.929 . S
C311 C305 1.390 . S
C311 C308 1.386 . S
C312 C307 1.490 . S
C312 C314 1.395 . S
C312 C315 1.403 . S
H313 C319 0.930 . S
C314 H300 0.930 . S
C314 C312 1.395 . S
C314 C317 1.403 . S
C315 C312 1.403 . S
C315 C316 1.524 . S
C315 C319 1.400 . S
C316 H301 0.960 . S
C316 H302 0.960 . S
C316 H303 0.960 . S
C316 C315 1.524 . S
C317 C314 1.403 . S
C317 C318 1.392 . S
C317 C321 1.495 . S
C318 C317 1.392 . S
C318 C319 1.385 . S
C318 C320 1.478 . S
C319 H313 0.930 . S
C319 C315 1.400 . S
C319 C318 1.385 . S
C320 C318 1.478 . S
C320 C322 1.381 . S
C320 C326 1.383 . S
C321 C317 1.495 . S
C321 H327 0.959 . S
C321 H328 0.961 . S
C321 H329 0.960 . S
C322 C320 1.381 . S
C322 C323 1.394 . S
C322 H330 0.930 . S
C323 C322 1.394 . S
C323 C324 1.383 . S
C323 H331 0.929 . S
C324 C323 1.383 . S
C324 C325 1.377 . S
C325 H309 0.930 . S
C325 C324 1.377 . S
C325 C326 1.379 . S
C326 H310 0.931 . S
C326 C320 1.383 . S
C326 C325 1.379 . S
H327 C321 0.959 . S
H328 C321 0.961 . S
H329 C321 0.960 . S
H330 C322 0.930 . S
H331 C323 0.929 . S
H332 C340 0.929 . S
H333 C342 0.930 . S
H334 C344 0.930 . S
H335 C347 0.929 . S
H336 C350 0.930 . S
H337 C352 0.960 . S
H338 C352 0.960 . S
H339 C352 0.960 . S
C340 H332 0.929 . S
C340 C341 1.377 . S
C340 C342 1.384 . S
C341 C340 1.377 . S
C341 C347 1.390 . S
C342 H333 0.930 . S
C342 C340 1.384 . S
C342 C343 1.372 . S
C343 C342 1.372 . S
C343 C344 1.400 . S
C343 C348 1.490 . S
C344 H334 0.930 . S
C344 C343 1.400 . S
C344 C347 1.386 . S
H345 C361 0.930 . S
H346 C362 0.931 1_455 S
C347 H335 0.929 . S
C347 C341 1.390 . S
C347 C344 1.386 . S
C348 C343 1.490 . S
C348 C350 1.395 . S
C348 C351 1.403 . S
H349 C355 0.930 . S
C350 H336 0.930 . S
C350 C348 1.395 . S
C350 C353 1.403 . S
C351 C348 1.403 . S
C351 C352 1.524 . S
C351 C355 1.400 . S
C352 H337 0.960 . S
C352 H338 0.960 . S
C352 H339 0.960 . S
C352 C351 1.524 . S
C353 C350 1.403 . S
C353 C354 1.392 . S
C353 C357 1.495 . S
C354 C353 1.392 . S
C354 C355 1.385 . S
C354 C356 1.478 . S
C355 H349 0.930 . S
C355 C351 1.400 . S
C355 C354 1.385 . S
C356 C354 1.478 . S
C356 C358 1.381 . S
C356 C362 1.383 . S
C357 C353 1.495 . S
C357 H363 0.959 . S
C357 H364 0.961 . S
C357 H365 0.960 . S
C358 C356 1.381 . S
C358 C359 1.394 . S
C358 H366 0.930 . S
C359 C358 1.394 . S
C359 C360 1.383 . S
C359 H367 0.929 . S
C360 C359 1.383 . S
C360 C361 1.377 1_655 S
C361 H345 0.930 . S
C361 C360 1.377 1_455 S
C361 C362 1.379 1_455 S
C362 H346 0.931 1_655 S
C362 C356 1.383 . S
C362 C361 1.379 1_655 S
H363 C357 0.959 . S
H364 C357 0.961 . S
H365 C357 0.960 . S
H366 C358 0.930 . S
H367 C359 0.929 . S
H368 C376 0.929 . S
H369 C378 0.930 . S
H370 C380 0.930 . S
H371 C383 0.929 . S
H372 C386 0.930 . S
H373 C388 0.960 . S
H374 C388 0.960 . S
H375 C388 0.960 . S
C376 H368 0.929 . S
C376 C377 1.377 . S
C376 C378 1.384 . S
C377 C376 1.377 . S
C377 C383 1.390 . S
C378 H369 0.930 . S
C378 C376 1.384 . S
C378 C379 1.372 . S
C379 C378 1.372 . S
C379 C380 1.400 . S
C379 C384 1.490 . S
C380 H370 0.930 . S
C380 C379 1.400 . S
C380 C383 1.386 . S
H381 C397 0.930 . S
H382 C398 0.931 . S
C383 H371 0.929 . S
C383 C377 1.390 . S
C383 C380 1.386 . S
C384 C379 1.490 . S
C384 C386 1.395 . S
C384 C387 1.403 . S
H385 C391 0.930 . S
C386 H372 0.930 . S
C386 C384 1.395 . S
C386 C389 1.403 . S
C387 C384 1.403 . S
C387 C388 1.524 . S
C387 C391 1.400 . S
C388 H373 0.960 . S
C388 H374 0.960 . S
C388 H375 0.960 . S
C388 C387 1.524 . S
C389 C386 1.403 . S
C389 C390 1.392 . S
C389 C393 1.495 . S
C390 C389 1.392 . S
C390 C391 1.385 . S
C390 C392 1.478 . S
C391 H385 0.930 . S
C391 C387 1.400 . S
C391 C390 1.385 . S
C392 C390 1.478 . S
C392 C394 1.381 . S
C392 C398 1.383 . S
C393 C389 1.495 . S
C393 H399 0.959 . S
C393 H400 0.961 . S
C393 H401 0.960 . S
C394 C392 1.381 . S
C394 C395 1.394 . S
C394 H402 0.930 . S
C395 C394 1.394 . S
C395 C396 1.383 . S
C395 H403 0.929 . S
C396 C395 1.383 . S
C396 C397 1.377 . S
C397 H381 0.930 . S
C397 C396 1.377 . S
C397 C398 1.379 . S
C398 H382 0.931 . S
C398 C392 1.383 . S
C398 C397 1.379 . S
H399 C393 0.959 . S
H400 C393 0.961 . S
H401 C393 0.960 . S
H402 C394 0.930 . S
H403 C395 0.929 . S
H404 C412 0.929 . S
H405 C414 0.930 . S
H406 C416 0.930 . S
H407 C419 0.929 . S
H408 C422 0.930 . S
H409 C424 0.960 . S
H410 C424 0.960 . S
H411 C424 0.960 . S
C412 H404 0.929 . S
C412 C413 1.377 . S
C412 C414 1.384 . S
C413 C412 1.377 . S
C413 C419 1.390 . S
C414 H405 0.930 . S
C414 C412 1.384 . S
C414 C415 1.372 . S
C415 C414 1.372 . S
C415 C416 1.400 . S
C415 C420 1.490 . S
C416 H406 0.930 . S
C416 C415 1.400 . S
C416 C419 1.386 . S
H417 C433 0.930 . S
H418 C434 0.931 . S
C419 H407 0.929 . S
C419 C413 1.390 . S
C419 C416 1.386 . S
C420 C415 1.490 . S
C420 C422 1.395 . S
C420 C423 1.403 . S
H421 C427 0.930 . S
C422 H408 0.930 . S
C422 C420 1.395 . S
C422 C425 1.403 . S
C423 C420 1.403 . S
C423 C424 1.524 . S
C423 C427 1.400 . S
C424 H409 0.960 . S
C424 H410 0.960 . S
C424 H411 0.960 . S
C424 C423 1.524 . S
C425 C422 1.403 . S
C425 C426 1.392 . S
C425 C429 1.495 . S
C426 C425 1.392 . S
C426 C427 1.385 . S
C426 C428 1.478 . S
C427 H421 0.930 . S
C427 C423 1.400 . S
C427 C426 1.385 . S
C428 C426 1.478 . S
C428 C430 1.381 1_565 S
C428 C434 1.383 . S
C429 C425 1.495 . S
C429 H435 0.959 1_565 S
C429 H436 0.961 . S
C429 H437 0.960 1_565 S
C430 C428 1.381 1_545 S
C430 C431 1.394 . S
C430 H438 0.930 . S
C431 C430 1.394 . S
C431 C432 1.383 1_545 S
C431 H439 0.929 . S
C432 C431 1.383 1_565 S
C432 C433 1.377 . S
C433 H417 0.930 . S
C433 C432 1.377 . S
C433 C434 1.379 . S
C434 H418 0.931 . S
C434 C428 1.383 . S
C434 C433 1.379 . S
H435 C429 0.959 1_545 S
H436 C429 0.961 . S
H437 C429 0.960 1_545 S
H438 C430 0.930 . S
H439 C431 0.929 . S
H440 C448 0.929 . S
H441 C450 0.930 . S
H442 C452 0.930 . S
H443 C455 0.929 . S
H444 C458 0.930 . S
H445 C460 0.960 . S
H446 C460 0.960 . S
H447 C460 0.960 . S
C448 H440 0.929 . S
C448 C449 1.377 . S
C448 C450 1.384 . S
C449 C448 1.377 . S
C449 C455 1.390 . S
C450 H441 0.930 . S
C450 C448 1.384 . S
C450 C451 1.372 . S
C451 C450 1.372 . S
C451 C452 1.400 . S
C451 C456 1.490 . S
C452 H442 0.930 . S
C452 C451 1.400 . S
C452 C455 1.386 . S
H453 C469 0.930 . S
H454 C470 0.931 1_554 S
C455 H443 0.929 . S
C455 C449 1.390 . S
C455 C452 1.386 . S
C456 C451 1.490 . S
C456 C458 1.395 1_556 S
C456 C459 1.403 . S
H457 C463 0.930 . S
C458 H444 0.930 . S
C458 C456 1.395 1_554 S
C458 C461 1.403 . S
C459 C456 1.403 . S
C459 C460 1.524 . S
C459 C463 1.400 . S
C460 H445 0.960 . S
C460 H446 0.960 . S
C460 H447 0.960 . S
C460 C459 1.524 . S
C461 C458 1.403 . S
C461 C462 1.392 1_554 S
C461 C465 1.495 . S
C462 C461 1.392 1_556 S
C462 C463 1.385 . S
C462 C464 1.478 . S
C463 H457 0.930 . S
C463 C459 1.400 . S
C463 C462 1.385 . S
C464 C462 1.478 . S
C464 C466 1.381 . S
C464 C470 1.382 . S
C465 C461 1.495 . S
C465 H471 0.959 . S
C465 H472 0.961 . S
C465 H473 0.960 . S
C466 C464 1.381 . S
C466 C467 1.394 . S
C466 H474 0.930 . S
C467 C466 1.394 . S
C467 C468 1.374 1_556 S
C467 H475 0.929 . S
C468 C467 1.374 1_554 S
C468 C469 1.383 . S
C469 H453 0.930 . S
C469 C468 1.383 . S
C469 C470 1.380 1_554 S
C470 H454 0.931 1_556 S
C470 C464 1.382 . S
C470 C469 1.380 1_556 S
H471 C465 0.959 . S
H472 C465 0.961 . S
H473 C465 0.960 . S
H474 C466 0.930 . S
H475 C467 0.929 . S
H476 C484 0.929 . S
H477 C486 0.930 . S
H478 C488 0.930 . S
H479 C491 0.929 . S
H480 C494 0.930 . S
H481 C496 0.960 . S
H482 C496 0.960 . S
H483 C496 0.960 . S
C484 H476 0.929 . S
C484 C485 1.377 . S
C484 C486 1.384 . S
C485 C484 1.377 . S
C485 C491 1.390 . S
C486 H477 0.930 . S
C486 C484 1.384 . S
C486 C487 1.372 . S
C487 C486 1.372 . S
C487 C488 1.400 . S
C487 C492 1.490 . S
C488 H478 0.930 . S
C488 C487 1.400 . S
C488 C491 1.386 . S
H489 C505 0.930 . S
H490 C506 0.931 . S
C491 H479 0.929 . S
C491 C485 1.390 . S
C491 C488 1.386 . S
C492 C487 1.490 . S
C492 C494 1.395 . S
C492 C495 1.403 . S
H493 C499 0.930 . S
C494 H480 0.930 . S
C494 C492 1.395 . S
C494 C497 1.403 . S
C495 C492 1.403 . S
C495 C496 1.524 . S
C495 C499 1.400 . S
C496 H481 0.960 . S
C496 H482 0.960 . S
C496 H483 0.960 . S
C496 C495 1.524 . S
C497 C494 1.403 . S
C497 C498 1.392 . S
C497 C501 1.495 . S
C498 C497 1.392 . S
C498 C499 1.385 . S
C498 C500 1.478 . S
C499 H493 0.930 . S
C499 C495 1.400 . S
C499 C498 1.385 . S
C500 C498 1.478 . S
C500 C502 1.381 . S
C500 C506 1.383 . S
C501 C497 1.495 . S
C501 H507 0.959 . S
C501 H508 0.961 . S
C501 H509 0.960 . S
C502 C500 1.381 . S
C502 C503 1.394 . S
C502 H510 0.930 . S
C503 C502 1.394 . S
C503 C504 1.383 . S
C503 H511 0.929 . S
C504 C503 1.383 . S
C504 C505 1.377 . S
C505 H489 0.930 . S
C505 C504 1.377 . S
C505 C506 1.379 . S
C506 H490 0.931 . S
C506 C500 1.383 . S
C506 C505 1.379 . S
H507 C501 0.959 . S
H508 C501 0.961 . S
H509 C501 0.960 . S
H510 C502 0.930 . S
H511 C503 0.929 . S
H512 C520 0.929 . S
H513 C522 0.930 . S
H514 C524 0.930 . S
H515 C527 0.929 . S
H516 C530 0.930 . S
H517 C532 0.960 . S
H518 C532 0.960 . S
H519 C532 0.960 . S
C520 H512 0.929 . S
C520 C521 1.377 . S
C520 C522 1.384 . S
C521 C520 1.377 . S
C521 C527 1.390 . S
C522 H513 0.930 . S
C522 C520 1.384 . S
C522 C523 1.372 . S
C523 C522 1.372 . S
C523 C524 1.400 . S
C523 C528 1.490 . S
C524 H514 0.930 . S
C524 C523 1.400 . S
C524 C527 1.386 . S
H525 C541 0.930 . S
H526 C542 0.931 . S
C527 H515 0.929 . S
C527 C521 1.390 . S
C527 C524 1.386 . S
C528 C523 1.490 . S
C528 C530 1.395 . S
C528 C531 1.403 . S
H529 C535 0.930 . S
C530 H516 0.930 . S
C530 C528 1.395 . S
C530 C533 1.403 . S
C531 C528 1.403 . S
C531 C532 1.524 . S
C531 C535 1.400 . S
C532 H517 0.960 . S
C532 H518 0.960 . S
C532 H519 0.960 . S
C532 C531 1.524 . S
C533 C530 1.403 . S
C533 C534 1.392 . S
C533 C537 1.495 . S
C534 C533 1.392 . S
C534 C535 1.385 . S
C534 C536 1.478 . S
C535 H529 0.930 . S
C535 C531 1.400 . S
C535 C534 1.385 . S
C536 C534 1.478 . S
C536 C538 1.381 . S
C536 C542 1.383 . S
C537 C533 1.495 . S
C537 H543 0.959 . S
C537 H544 0.961 . S
C537 H545 0.960 . S
C538 C536 1.381 . S
C538 C539 1.394 . S
C538 H546 0.930 . S
C539 C538 1.394 . S
C539 C540 1.383 . S
C539 H547 0.929 . S
C540 C539 1.383 . S
C540 C541 1.377 . S
C541 H525 0.930 . S
C541 C540 1.377 . S
C541 C542 1.379 . S
C542 H526 0.931 . S
C542 C536 1.383 . S
C542 C541 1.379 . S
H543 C537 0.959 . S
H544 C537 0.961 . S
H545 C537 0.960 . S
H546 C538 0.930 . S
H547 C539 0.929 . S
H548 C556 0.929 . S
H549 C558 0.930 . S
H550 C560 0.930 . S
H551 C563 0.929 . S
H552 C566 0.930 . S
H553 C568 0.960 . S
H554 C568 0.960 . S
H555 C568 0.960 . S
C556 H548 0.929 . S
C556 C557 1.377 . S
C556 C558 1.384 . S
C557 C556 1.377 . S
C557 C563 1.390 . S
C558 H549 0.930 . S
C558 C556 1.384 . S
C558 C559 1.372 . S
C559 C558 1.372 . S
C559 C560 1.400 . S
C559 C564 1.490 . S
C560 H550 0.930 . S
C560 C559 1.400 . S
C560 C563 1.386 . S
H561 C577 0.930 . S
H562 C578 0.931 . S
C563 H551 0.929 . S
C563 C557 1.390 . S
C563 C560 1.386 . S
C564 C559 1.490 . S
C564 C566 1.395 . S
C564 C567 1.403 1_556 S
H565 C571 0.930 . S
C566 H552 0.930 . S
C566 C564 1.395 . S
C566 C569 1.403 . S
C567 C564 1.403 1_554 S
C567 C568 1.524 . S
C567 C571 1.400 . S
C568 H553 0.960 . S
C568 H554 0.960 . S
C568 H555 0.960 . S
C568 C567 1.524 . S
C569 C566 1.403 . S
C569 C570 1.392 1_556 S
C569 C573 1.495 . S
C570 C569 1.392 1_554 S
C570 C571 1.385 . S
C570 C572 1.478 . S
C571 H565 0.930 . S
C571 C567 1.400 . S
C571 C570 1.385 . S
C572 C570 1.478 . S
C572 C574 1.381 . S
C572 C578 1.383 . S
C573 C569 1.495 . S
C573 H579 0.959 . S
C573 H580 0.961 . S
C573 H581 0.960 . S
C574 C572 1.381 . S
C574 C575 1.394 . S
C574 H582 0.930 . S
C575 C574 1.394 . S
C575 C576 1.383 . S
C575 H583 0.929 . S
C576 C575 1.383 . S
C576 C577 1.377 . S
C577 H561 0.930 . S
C577 C576 1.377 . S
C577 C578 1.379 . S
C578 H562 0.931 . S
C578 C572 1.383 . S
C578 C577 1.379 . S
H579 C573 0.959 . S
H580 C573 0.961 . S
H581 C573 0.960 . S
H582 C574 0.930 . S
H583 C575 0.929 . S
H584 C592 0.929 . S
H585 C594 0.930 . S
H586 C596 0.930 . S
H587 C599 0.929 . S
H588 C602 0.930 . S
H589 C604 0.960 . S
H590 C604 0.960 . S
H591 C604 0.960 . S
C592 H584 0.929 . S
C592 C593 1.377 . S
C592 C594 1.384 . S
C593 C592 1.377 . S
C593 C599 1.390 . S
C594 H585 0.930 . S
C594 C592 1.384 . S
C594 C595 1.372 . S
C595 C594 1.372 . S
C595 C596 1.400 . S
C595 C600 1.490 . S
C596 H586 0.930 . S
C596 C595 1.400 . S
C596 C599 1.386 . S
H597 C613 0.936 . S
H598 C614 0.931 . S
C599 H587 0.929 . S
C599 C593 1.390 . S
C599 C596 1.386 . S
C600 C595 1.490 . S
C600 C602 1.395 . S
C600 C603 1.403 . S
H601 C607 0.930 . S
C602 H588 0.930 . S
C602 C600 1.395 . S
C602 C605 1.403 . S
C603 C600 1.403 . S
C603 C604 1.524 . S
C603 C607 1.400 . S
C604 H589 0.960 . S
C604 H590 0.960 . S
C604 H591 0.960 . S
C604 C603 1.524 . S
C605 C602 1.403 . S
C605 C606 1.392 . S
C605 C609 1.495 . S
C606 C605 1.392 . S
C606 C607 1.385 . S
C606 C608 1.478 . S
C607 H601 0.930 . S
C607 C603 1.400 . S
C607 C606 1.385 . S
C608 C606 1.478 . S
C608 C610 1.381 . S
C608 C614 1.383 . S
C609 C605 1.495 . S
C609 H615 0.959 . S
C609 H616 0.961 . S
C609 H617 0.960 . S
C610 C608 1.381 . S
C610 C611 1.394 . S
C610 H618 0.930 . S
C611 C610 1.394 . S
C611 C612 1.383 . S
C611 H619 0.929 . S
C612 C611 1.383 . S
C612 C613 1.377 . S
C613 H597 0.936 . S
C613 C612 1.377 . S
C613 C614 1.379 . S
C614 H598 0.931 . S
C614 C608 1.383 . S
C614 C613 1.379 . S
H615 C609 0.959 . S
H616 C609 0.961 . S
H617 C609 0.960 . S
H618 C610 0.930 . S
H619 C611 0.929 . S
H620 C628 0.929 . S
H621 C630 0.930 . S
H622 C632 0.930 . S
H623 C635 0.929 . S
H624 C638 0.930 . S
H625 C640 0.960 . S
H626 C640 0.960 . S
H627 C640 0.960 . S
C628 H620 0.929 . S
C628 C629 1.377 . S
C628 C630 1.384 . S
C629 C628 1.377 . S
C629 C635 1.390 . S
C630 H621 0.930 . S
C630 C628 1.384 . S
C630 C631 1.372 . S
C631 C630 1.372 . S
C631 C632 1.400 . S
C631 C636 1.490 . S
C632 H622 0.930 . S
C632 C631 1.400 . S
C632 C635 1.386 . S
H633 C649 0.930 . S
H634 C650 0.931 . S
C635 H623 0.929 . S
C635 C629 1.390 . S
C635 C632 1.386 . S
C636 C631 1.490 . S
C636 C638 1.395 . S
C636 C639 1.403 . S
H637 C643 0.930 . S
C638 H624 0.930 . S
C638 C636 1.395 . S
C638 C641 1.403 . S
C639 C636 1.403 . S
C639 C640 1.524 . S
C639 C643 1.400 . S
C640 H625 0.960 . S
C640 H626 0.960 . S
C640 H627 0.960 . S
C640 C639 1.524 . S
C641 C638 1.403 . S
C641 C642 1.392 . S
C641 C645 1.495 . S
C642 C641 1.392 . S
C642 C643 1.385 . S
C642 C644 1.478 . S
C643 H637 0.930 . S
C643 C639 1.400 . S
C643 C642 1.385 . S
C644 C642 1.478 . S
C644 C646 1.381 . S
C644 C650 1.383 . S
C645 C641 1.495 . S
C645 H651 0.959 . S
C645 H652 0.961 . S
C645 H653 0.960 . S
C646 C644 1.381 . S
C646 C647 1.394 . S
C646 H654 0.930 . S
C647 C646 1.394 . S
C647 C648 1.383 . S
C647 H655 0.929 . S
C648 C647 1.383 . S
C648 C649 1.377 . S
C649 H633 0.930 . S
C649 C648 1.377 . S
C649 C650 1.379 . S
C650 H634 0.931 . S
C650 C644 1.383 . S
C650 C649 1.379 . S
H651 C645 0.959 . S
H652 C645 0.961 . S
H653 C645 0.960 . S
H654 C646 0.930 . S
H655 C647 0.929 . S
H656 C664 0.929 . S
H657 C666 0.930 . S
H658 C668 0.930 . S
H659 C671 0.929 . S
H660 C674 0.930 . S
H661 C676 0.960 1_455 S
H662 C676 0.960 . S
H663 C676 0.960 . S
C664 H656 0.929 . S
C664 C665 1.377 . S
C664 C666 1.384 . S
C665 C664 1.377 . S
C665 C671 1.390 . S
C666 H657 0.930 . S
C666 C664 1.384 . S
C666 C667 1.372 . S
C667 C666 1.372 . S
C667 C668 1.400 . S
C667 C672 1.490 . S
C668 H658 0.930 . S
C668 C667 1.400 . S
C668 C671 1.386 . S
H669 C685 0.930 . S
H670 C686 0.931 1_545 S
C671 H659 0.929 . S
C671 C665 1.390 . S
C671 C668 1.386 . S
C672 C667 1.490 . S
C672 C674 1.395 . S
C672 C675 1.403 . S
H673 C679 0.930 . S
C674 H660 0.930 . S
C674 C672 1.395 . S
C674 C677 1.403 . S
C675 C672 1.403 . S
C675 C676 1.524 . S
C675 C679 1.400 . S
C676 H661 0.960 1_655 S
C676 H662 0.960 . S
C676 H663 0.960 . S
C676 C675 1.524 . S
C677 C674 1.403 . S
C677 C678 1.392 . S
C677 C681 1.495 . S
C678 C677 1.392 . S
C678 C679 1.385 . S
C678 C680 1.478 . S
C679 H673 0.930 . S
C679 C675 1.400 . S
C679 C678 1.385 . S
C680 C678 1.478 . S
C680 C682 1.381 . S
C680 C686 1.383 . S
C681 C677 1.495 . S
C681 H687 0.959 . S
C681 H688 0.961 . S
C681 H689 0.960 . S
C682 C680 1.381 . S
C682 C683 1.394 . S
C682 H690 0.930 . S
C683 C682 1.394 . S
C683 C684 1.383 . S
C683 H691 0.929 . S
C684 C683 1.383 . S
C684 C685 1.377 1_565 S
C685 H669 0.930 . S
C685 C684 1.377 1_545 S
C685 C686 1.379 1_545 S
C686 H670 0.931 1_565 S
C686 C680 1.383 . S
C686 C685 1.379 1_565 S
H687 C681 0.959 . S
H688 C681 0.961 . S
H689 C681 0.960 . S
H690 C682 0.930 . S
H691 C683 0.929 . S
H692 C700 0.929 . S
H693 C702 0.930 . S
H694 C704 0.930 . S
H695 C707 0.929 . S
H696 C710 0.930 . S
H697 C712 0.960 . S
H698 C712 0.960 . S
H699 C712 0.960 . S
C700 H692 0.929 . S
C700 C701 1.377 . S
C700 C702 1.384 . S
C701 C700 1.377 . S
C701 C707 1.390 . S
C702 H693 0.930 . S
C702 C700 1.384 . S
C702 C703 1.372 . S
C703 C702 1.372 . S
C703 C704 1.400 . S
C703 C708 1.490 . S
C704 H694 0.930 . S
C704 C703 1.400 . S
C704 C707 1.386 . S
H705 C721 0.930 . S
H706 C722 0.931 . S
C707 H695 0.929 . S
C707 C701 1.390 . S
C707 C704 1.386 . S
C708 C703 1.490 . S
C708 C710 1.395 . S
C708 C711 1.403 . S
H709 C715 0.930 . S
C710 H696 0.930 . S
C710 C708 1.395 . S
C710 C713 1.403 . S
C711 C708 1.403 . S
C711 C712 1.524 . S
C711 C715 1.400 . S
C712 H697 0.960 . S
C712 H698 0.960 . S
C712 H699 0.960 . S
C712 C711 1.524 . S
C713 C710 1.403 . S
C713 C714 1.392 . S
C713 C717 1.495 . S
C714 C713 1.392 . S
C714 C715 1.385 . S
C714 C716 1.478 . S
C715 H709 0.930 . S
C715 C711 1.400 . S
C715 C714 1.385 . S
C716 C714 1.478 . S
C716 C718 1.381 . S
C716 C722 1.383 . S
C717 C713 1.495 . S
C717 H723 0.959 . S
C717 H724 0.961 . S
C717 H725 0.960 . S
C718 C716 1.381 . S
C718 C719 1.394 . S
C718 H726 0.930 . S
C719 C718 1.394 . S
C719 C720 1.383 . S
C719 H727 0.929 . S
C720 C719 1.383 . S
C720 C721 1.377 . S
C721 H705 0.930 . S
C721 C720 1.377 . S
C721 C722 1.379 . S
C722 H706 0.931 . S
C722 C716 1.383 . S
C722 C721 1.379 . S
H723 C717 0.959 . S
H724 C717 0.961 . S
H725 C717 0.960 . S
H726 C718 0.930 . S
H727 C719 0.929 . S
H728 C736 0.929 . S
H729 C738 0.930 . S
H730 C740 0.930 . S
H731 C743 0.929 . S
H732 C746 0.930 . S
H733 C748 0.960 . S
H734 C748 0.960 . S
H735 C748 0.960 . S
C736 H728 0.929 . S
C736 C737 1.377 . S
C736 C738 1.384 . S
C737 C736 1.377 . S
C737 C743 1.390 . S
C738 H729 0.930 . S
C738 C736 1.384 . S
C738 C739 1.372 . S
C739 C738 1.372 . S
C739 C740 1.400 . S
C739 C744 1.490 . S
C740 H730 0.930 . S
C740 C739 1.400 . S
C740 C743 1.386 . S
H741 C757 0.930 . S
H742 C758 0.931 . S
C743 H731 0.929 . S
C743 C737 1.390 . S
C743 C740 1.386 . S
C744 C739 1.490 . S
C744 C746 1.395 . S
C744 C747 1.403 . S
H745 C751 0.930 . S
C746 H732 0.930 . S
C746 C744 1.395 . S
C746 C749 1.403 . S
C747 C744 1.403 . S
C747 C748 1.524 . S
C747 C751 1.400 . S
C748 H733 0.960 . S
C748 H734 0.960 . S
C748 H735 0.960 . S
C748 C747 1.524 . S
C749 C746 1.403 . S
C749 C750 1.392 . S
C749 C753 1.495 . S
C750 C749 1.392 . S
C750 C751 1.385 . S
C750 C752 1.478 . S
C751 H745 0.930 . S
C751 C747 1.400 . S
C751 C750 1.385 . S
C752 C750 1.478 . S
C752 C754 1.381 . S
C752 C758 1.383 . S
C753 C749 1.495 . S
C753 H759 0.959 . S
C753 H760 0.961 . S
C753 H761 0.960 . S
C754 C752 1.381 . S
C754 C755 1.394 . S
C754 H762 0.930 . S
C755 C754 1.394 . S
C755 C756 1.383 . S
C755 H763 0.929 . S
C756 C755 1.383 . S
C756 C757 1.377 . S
C757 H741 0.930 . S
C757 C756 1.377 . S
C757 C758 1.379 . S
C758 H742 0.931 . S
C758 C752 1.383 . S
C758 C757 1.379 . S
H759 C753 0.959 . S
H760 C753 0.961 . S
H761 C753 0.960 . S
H762 C754 0.930 . S
H763 C755 0.929 . S
H764 C772 0.929 . S
H765 C774 0.930 . S
H766 C776 0.930 . S
H767 C779 0.929 . S
H768 C782 0.930 . S
H769 C784 0.960 . S
H770 C784 0.960 . S
H771 C784 0.960 . S
C772 H764 0.929 . S
C772 C773 1.377 . S
C772 C774 1.384 . S
C773 C772 1.377 . S
C773 C779 1.390 . S
C774 H765 0.930 . S
C774 C772 1.384 . S
C774 C775 1.372 . S
C775 C774 1.372 . S
C775 C776 1.400 . S
C775 C780 1.490 . S
C776 H766 0.930 . S
C776 C775 1.400 . S
C776 C779 1.386 . S
H777 C793 0.930 . S
H778 C794 0.931 . S
C779 H767 0.929 . S
C779 C773 1.390 . S
C779 C776 1.386 . S
C780 C775 1.490 . S
C780 C782 1.395 . S
C780 C783 1.403 . S
H781 C787 0.930 . S
C782 H768 0.930 . S
C782 C780 1.395 . S
C782 C785 1.403 . S
C783 C780 1.403 . S
C783 C784 1.524 . S
C783 C787 1.400 . S
C784 H769 0.960 . S
C784 H770 0.960 . S
C784 H771 0.960 . S
C784 C783 1.524 . S
C785 C782 1.403 . S
C785 C786 1.392 . S
C785 C789 1.495 . S
C786 C785 1.392 . S
C786 C787 1.385 . S
C786 C788 1.478 . S
C787 H781 0.930 . S
C787 C783 1.400 . S
C787 C786 1.385 . S
C788 C786 1.478 . S
C788 C790 1.381 . S
C788 C794 1.383 . S
C789 C785 1.495 . S
C789 H795 0.959 . S
C789 H796 0.961 . S
C789 H797 0.960 . S
C790 C788 1.381 . S
C790 C791 1.394 . S
C790 H798 0.930 . S
C791 C790 1.394 . S
C791 C792 1.383 . S
C791 H799 0.929 . S
C792 C791 1.383 . S
C792 C793 1.377 . S
C793 H777 0.930 . S
C793 C792 1.377 . S
C793 C794 1.379 . S
C794 H778 0.931 . S
C794 C788 1.383 . S
C794 C793 1.379 . S
H795 C789 0.959 . S
H796 C789 0.961 . S
H797 C789 0.960 . S
H798 C790 0.930 . S
H799 C791 0.929 . S
H800 C808 0.929 . S
H801 C810 0.930 . S
H802 C812 0.930 1_554 S
H803 C815 0.929 . S
H804 C818 0.930 . S
H805 C820 0.960 . S
H806 C820 0.960 . S
H807 C820 0.960 . S
C808 H800 0.929 . S
C808 C809 1.377 . S
C808 C810 1.384 . S
C809 C808 1.377 . S
C809 C815 1.390 . S
C810 H801 0.930 . S
C810 C808 1.384 . S
C810 C811 1.372 . S
C811 C810 1.372 . S
C811 C812 1.400 . S
C811 C816 1.490 . S
C812 H802 0.930 1_556 S
C812 C811 1.400 . S
C812 C815 1.386 . S
H813 C829 0.930 . S
H814 C830 0.931 . S
C815 H803 0.929 . S
C815 C809 1.390 . S
C815 C812 1.386 . S
C816 C811 1.490 . S
C816 C818 1.395 . S
C816 C819 1.403 1_556 S
H817 C823 0.930 . S
C818 H804 0.930 . S
C818 C816 1.395 . S
C818 C821 1.403 . S
C819 C816 1.403 1_554 S
C819 C820 1.524 . S
C819 C823 1.400 . S
C820 H805 0.960 . S
C820 H806 0.960 . S
C820 H807 0.960 . S
C820 C819 1.524 . S
C821 C818 1.403 . S
C821 C822 1.392 . S
C821 C825 1.495 . S
C822 C821 1.392 . S
C822 C823 1.385 1_556 S
C822 C824 1.478 1_556 S
C823 H817 0.930 . S
C823 C819 1.400 . S
C823 C822 1.385 1_554 S
C824 C822 1.478 1_554 S
C824 C826 1.380 1_564 S
C824 C830 1.383 . S
C825 C821 1.495 . S
C825 H831 0.959 . S
C825 H832 0.961 . S
C825 H833 0.960 . S
C826 C824 1.380 1_546 S
C826 C827 1.395 1_556 S
C826 H834 0.931 . S
C827 C826 1.395 1_554 S
C827 C828 1.383 1_545 S
C827 H835 0.947 . S
C828 C827 1.383 1_565 S
C828 C829 1.377 . S
C829 H813 0.930 . S
C829 C828 1.377 . S
C829 C830 1.379 . S
C830 H814 0.931 . S
C830 C824 1.383 . S
C830 C829 1.379 . S
H831 C825 0.959 . S
H832 C825 0.961 . S
H833 C825 0.960 . S
H834 C826 0.931 . S
H835 C827 0.947 . S
H836 C844 0.929 . S
H837 C846 0.930 . S
H838 C848 0.930 . S
H839 C851 0.929 . S
H840 C854 0.930 . S
H841 C856 0.960 . S
H842 C856 0.960 . S
H843 C856 0.960 . S
C844 H836 0.929 . S
C844 C845 1.377 . S
C844 C846 1.384 . S
C845 C844 1.377 . S
C845 C851 1.390 . S
C846 H837 0.930 . S
C846 C844 1.384 . S
C846 C847 1.372 . S
C847 C846 1.372 . S
C847 C848 1.400 . S
C847 C852 1.490 . S
C848 H838 0.930 . S
C848 C847 1.400 . S
C848 C851 1.386 . S
H849 C865 0.966 . S
H850 C866 0.931 . S
C851 H839 0.929 . S
C851 C845 1.390 . S
C851 C848 1.386 . S
C852 C847 1.490 . S
C852 C854 1.395 . S
C852 C855 1.403 . S
H853 C859 0.930 . S
C854 H840 0.930 . S
C854 C852 1.395 . S
C854 C857 1.403 . S
C855 C852 1.403 . S
C855 C856 1.524 . S
C855 C859 1.400 . S
C856 H841 0.960 . S
C856 H842 0.960 . S
C856 H843 0.960 . S
C856 C855 1.524 . S
C857 C854 1.403 . S
C857 C858 1.392 . S
C857 C861 1.495 . S
C858 C857 1.392 . S
C858 C859 1.385 . S
C858 C860 1.478 . S
C859 H853 0.930 . S
C859 C855 1.400 . S
C859 C858 1.385 . S
C860 C858 1.478 . S
C860 C862 1.381 . S
C860 C866 1.383 . S
C861 C857 1.495 . S
C861 H867 0.959 . S
C861 H868 0.961 . S
C861 H869 0.960 . S
C862 C860 1.381 . S
C862 C863 1.394 . S
C862 H870 0.930 . S
C863 C862 1.394 . S
C863 C864 1.383 . S
C863 H871 0.929 . S
C864 C863 1.383 . S
C864 C865 1.377 . S
C865 H849 0.966 . S
C865 C864 1.377 . S
C865 C866 1.379 . S
C866 H850 0.931 . S
C866 C860 1.383 . S
C866 C865 1.379 . S
H867 C861 0.959 . S
H868 C861 0.961 . S
H869 C861 0.960 . S
H870 C862 0.930 . S
H871 C863 0.929 . S
H872 C880 0.929 . S
H873 C882 0.930 . S
H874 C884 0.930 . S
H875 C887 0.929 . S
H876 C890 0.930 . S
H877 C892 0.960 . S
H878 C892 0.960 . S
H879 C892 0.960 . S
C880 H872 0.929 . S
C880 C881 1.377 . S
C880 C882 1.384 . S
C881 C880 1.377 . S
C881 C887 1.390 . S
C882 H873 0.930 . S
C882 C880 1.384 . S
C882 C883 1.372 . S
C883 C882 1.372 . S
C883 C884 1.400 . S
C883 C888 1.490 . S
C884 H874 0.930 . S
C884 C883 1.400 . S
C884 C887 1.386 . S
H885 C901 0.930 . S
H886 C902 0.931 . S
C887 H875 0.929 . S
C887 C881 1.390 . S
C887 C884 1.386 . S
C888 C883 1.490 . S
C888 C890 1.395 . S
C888 C891 1.403 . S
H889 C895 0.930 . S
C890 H876 0.930 . S
C890 C888 1.395 . S
C890 C893 1.403 . S
C891 C888 1.403 . S
C891 C892 1.524 . S
C891 C895 1.400 . S
C892 H877 0.960 . S
C892 H878 0.960 . S
C892 H879 0.960 . S
C892 C891 1.524 . S
C893 C890 1.403 . S
C893 C894 1.392 . S
C893 C897 1.495 . S
C894 C893 1.392 . S
C894 C895 1.385 . S
C894 C896 1.478 . S
C895 H889 0.930 . S
C895 C891 1.400 . S
C895 C894 1.385 . S
C896 C894 1.478 . S
C896 C898 1.381 . S
C896 C902 1.383 . S
C897 C893 1.495 . S
C897 H903 0.959 . S
C897 H904 0.961 . S
C897 H905 0.960 . S
C898 C896 1.381 . S
C898 C899 1.394 . S
C898 H906 0.930 . S
C899 C898 1.394 . S
C899 C900 1.383 . S
C899 H907 0.929 . S
C900 C899 1.383 . S
C900 C901 1.377 . S
C901 H885 0.930 . S
C901 C900 1.377 . S
C901 C902 1.379 . S
C902 H886 0.931 . S
C902 C896 1.383 . S
C902 C901 1.379 . S
H903 C897 0.959 . S
H904 C897 0.961 . S
H905 C897 0.960 . S
H906 C898 0.930 . S
H907 C899 0.929 . S
H908 C916 0.929 . S
H909 C918 0.930 . S
H910 C920 0.930 . S
H911 C923 0.929 . S
H912 C926 0.930 . S
H913 C928 0.960 . S
H914 C928 0.960 . S
H915 C928 0.960 . S
C916 H908 0.929 . S
C916 C917 1.377 . S
C916 C918 1.384 . S
C917 C916 1.377 . S
C917 C923 1.390 . S
C918 H909 0.930 . S
C918 C916 1.384 . S
C918 C919 1.372 . S
C919 C918 1.372 . S
C919 C920 1.400 . S
C919 C924 1.490 . S
C920 H910 0.930 . S
C920 C919 1.400 . S
C920 C923 1.386 . S
H921 C937 0.930 . S
H922 C938 0.931 . S
C923 H911 0.929 . S
C923 C917 1.390 . S
C923 C920 1.386 . S
C924 C919 1.490 . S
C924 C926 1.395 . S
C924 C927 1.403 . S
H925 C931 0.930 . S
C926 H912 0.930 . S
C926 C924 1.395 . S
C926 C929 1.403 . S
C927 C924 1.403 . S
C927 C928 1.524 . S
C927 C931 1.400 . S
C928 H913 0.960 . S
C928 H914 0.960 . S
C928 H915 0.960 . S
C928 C927 1.524 . S
C929 C926 1.403 . S
C929 C930 1.392 . S
C929 C933 1.495 . S
C930 C929 1.392 . S
C930 C931 1.385 . S
C930 C932 1.478 . S
C931 H925 0.930 . S
C931 C927 1.400 . S
C931 C930 1.385 . S
C932 C930 1.478 . S
C932 C934 1.381 . S
C932 C938 1.383 . S
C933 C929 1.495 . S
C933 H939 0.959 . S
C933 H940 0.961 . S
C933 H941 0.960 . S
C934 C932 1.381 . S
C934 C935 1.394 . S
C934 H942 0.930 . S
C935 C934 1.394 . S
C935 C936 1.383 . S
C935 H943 0.929 . S
C936 C935 1.383 . S
C936 C937 1.377 . S
C937 H921 0.930 . S
C937 C936 1.377 . S
C937 C938 1.379 . S
C938 H922 0.931 . S
C938 C932 1.383 . S
C938 C937 1.379 . S
H939 C933 0.959 . S
H940 C933 0.961 . S
H941 C933 0.960 . S
H942 C934 0.930 . S
H943 C935 0.929 . S
H944 C952 0.929 . S
H945 C954 0.930 . S
H946 C956 0.930 . S
H947 C959 0.929 . S
H948 C962 0.930 1_554 S
H949 C964 0.960 . S
H950 C964 0.960 . S
H951 C964 0.960 . S
C952 H944 0.929 . S
C952 C953 1.377 . S
C952 C954 1.384 . S
C953 C952 1.377 . S
C953 C959 1.390 . S
C954 H945 0.930 . S
C954 C952 1.384 . S
C954 C955 1.372 . S
C955 C954 1.372 . S
C955 C956 1.400 . S
C955 C960 1.490 . S
C956 H946 0.930 . S
C956 C955 1.400 . S
C956 C959 1.386 . S
H957 C973 0.930 . S
H958 C974 0.931 . S
C959 H947 0.929 . S
C959 C953 1.390 . S
C959 C956 1.386 . S
C960 C955 1.490 . S
C960 C962 1.395 . S
C960 C963 1.403 . S
H961 C967 0.930 . S
C962 H948 0.930 1_556 S
C962 C960 1.395 . S
C962 C965 1.403 1_556 S
C963 C960 1.403 . S
C963 C964 1.524 . S
C963 C967 1.400 . S
C964 H949 0.960 . S
C964 H950 0.960 . S
C964 H951 0.960 . S
C964 C963 1.524 . S
C965 C962 1.403 1_554 S
C965 C966 1.392 1_554 S
C965 C969 1.495 . S
C966 C965 1.392 1_556 S
C966 C967 1.385 . S
C966 C968 1.478 . S
C967 H961 0.930 . S
C967 C963 1.400 . S
C967 C966 1.385 . S
C968 C966 1.478 . S
C968 C970 1.381 1_655 S
C968 C974 1.383 . S
C969 C965 1.495 . S
C969 H975 0.959 . S
C969 H976 0.961 . S
C969 H977 0.960 1_655 S
C970 C968 1.381 1_455 S
C970 C971 1.395 . S
C970 H978 0.930 . S
C971 C970 1.395 . S
C971 C972 1.384 . S
C971 H979 0.928 1_556 S
C972 C971 1.384 . S
C972 C973 1.382 1_455 S
C973 H957 0.930 . S
C973 C972 1.382 1_655 S
C973 C974 1.379 . S
C974 H958 0.931 . S
C974 C968 1.383 . S
C974 C973 1.379 . S
H975 C969 0.959 . S
H976 C969 0.961 . S
H977 C969 0.960 1_455 S
H978 C970 0.930 . S
H979 C971 0.928 1_554 S
H980 C988 0.929 . S
H981 C990 0.930 . S
H982 C992 0.930 . S
H983 C995 0.929 . S
H984 C998 0.930 . S
H985 C1000 0.960 . S
H986 C1000 0.960 . S
H987 C1000 0.960 . S
C988 H980 0.929 . S
C988 C989 1.377 . S
C988 C990 1.384 . S
C989 C988 1.377 . S
C989 C995 1.390 . S
C990 H981 0.930 . S
C990 C988 1.384 . S
C990 C991 1.372 . S
C991 C990 1.372 . S
C991 C992 1.400 . S
C991 C996 1.490 . S
C992 H982 0.930 . S
C992 C991 1.400 . S
C992 C995 1.386 . S
H993 C1009 0.930 . S
H994 C1010 0.931 . S
C995 H983 0.929 . S
C995 C989 1.390 . S
C995 C992 1.386 . S
C996 C991 1.490 . S
C996 C998 1.395 . S
C996 C999 1.403 . S
H997 C1003 0.930 . S
C998 H984 0.930 . S
C998 C996 1.395 . S
C998 C1001 1.403 . S
C999 C996 1.403 . S
C999 C1000 1.524 . S
C999 C1003 1.400 . S
C1000 H985 0.960 . S
C1000 H986 0.960 . S
C1000 H987 0.960 . S
C1000 C999 1.524 . S
C1001 C998 1.403 . S
C1001 C1002 1.392 . S
C1001 C1005 1.495 . S
C1002 C1001 1.392 . S
C1002 C1003 1.385 . S
C1002 C1004 1.478 . S
C1003 H997 0.930 . S
C1003 C999 1.400 . S
C1003 C1002 1.385 . S
C1004 C1002 1.478 . S
C1004 C1006 1.381 . S
C1004 C1010 1.383 . S
C1005 C1001 1.495 . S
C1005 H1011 0.959 . S
C1005 H1012 0.961 . S
C1005 H1013 0.960 . S
C1006 C1004 1.381 . S
C1006 C1007 1.394 . S
C1006 H1014 0.930 . S
C1007 C1006 1.394 . S
C1007 C1008 1.383 . S
C1007 H1015 0.929 . S
C1008 C1007 1.383 . S
C1008 C1009 1.377 . S
C1009 H993 0.930 . S
C1009 C1008 1.377 . S
C1009 C1010 1.379 . S
C1010 H994 0.931 . S
C1010 C1004 1.383 . S
C1010 C1009 1.379 . S
H1011 C1005 0.959 . S
H1012 C1005 0.961 . S
H1013 C1005 0.960 . S
H1014 C1006 0.930 . S
H1015 C1007 0.929 . S
H1016 C1024 0.929 . S
H1017 C1026 0.930 . S
H1018 C1028 0.930 . S
H1019 C1031 0.929 . S
H1020 C1034 0.930 . S
H1021 C1036 0.960 . S
H1022 C1036 0.960 . S
H1023 C1036 0.960 . S
C1024 H1016 0.929 . S
C1024 C1025 1.377 . S
C1024 C1026 1.384 . S
C1025 C1024 1.377 . S
C1025 C1031 1.390 . S
C1026 H1017 0.930 . S
C1026 C1024 1.384 . S
C1026 C1027 1.372 . S
C1027 C1026 1.372 . S
C1027 C1028 1.400 . S
C1027 C1032 1.490 . S
C1028 H1018 0.930 . S
C1028 C1027 1.400 . S
C1028 C1031 1.386 . S
H1029 C1045 0.930 . S
H1030 C1046 0.931 . S
C1031 H1019 0.929 . S
C1031 C1025 1.390 . S
C1031 C1028 1.386 . S
C1032 C1027 1.490 . S
C1032 C1034 1.395 . S
C1032 C1035 1.403 . S
H1033 C1039 0.930 . S
C1034 H1020 0.930 . S
C1034 C1032 1.395 . S
C1034 C1037 1.403 . S
C1035 C1032 1.403 . S
C1035 C1036 1.524 . S
C1035 C1039 1.400 . S
C1036 H1021 0.960 . S
C1036 H1022 0.960 . S
C1036 H1023 0.960 . S
C1036 C1035 1.524 . S
C1037 C1034 1.403 . S
C1037 C1038 1.392 . S
C1037 C1041 1.495 . S
C1038 C1037 1.392 . S
C1038 C1039 1.385 . S
C1038 C1040 1.478 . S
C1039 H1033 0.930 . S
C1039 C1035 1.400 . S
C1039 C1038 1.385 . S
C1040 C1038 1.478 . S
C1040 C1042 1.381 . S
C1040 C1046 1.383 . S
C1041 C1037 1.495 . S
C1041 H1047 0.959 . S
C1041 H1048 0.961 . S
C1041 H1049 0.960 . S
C1042 C1040 1.381 . S
C1042 C1043 1.394 . S
C1042 H1050 0.930 . S
C1043 C1042 1.394 . S
C1043 C1044 1.383 . S
C1043 H1051 0.929 . S
C1044 C1043 1.383 . S
C1044 C1045 1.377 . S
C1045 H1029 0.930 . S
C1045 C1044 1.377 . S
C1045 C1046 1.379 . S
C1046 H1030 0.931 . S
C1046 C1040 1.383 . S
C1046 C1045 1.379 . S
H1047 C1041 0.959 . S
H1048 C1041 0.961 . S
H1049 C1041 0.960 . S
H1050 C1042 0.930 . S
H1051 C1043 0.929 . S
H1052 C1060 0.929 . S
H1053 C1062 0.930 . S
H1054 C1064 0.930 . S
H1055 C1067 0.929 . S
H1056 C1070 0.930 . S
H1057 C1072 0.960 . S
H1058 C1072 0.960 . S
H1059 C1072 0.960 . S
C1060 H1052 0.929 . S
C1060 C1061 1.377 . S
C1060 C1062 1.384 . S
C1061 C1060 1.377 . S
C1061 C1067 1.390 . S
C1062 H1053 0.930 . S
C1062 C1060 1.384 . S
C1062 C1063 1.372 . S
C1063 C1062 1.372 . S
C1063 C1064 1.400 . S
C1063 C1068 1.490 . S
C1064 H1054 0.930 . S
C1064 C1063 1.400 . S
C1064 C1067 1.386 . S
H1065 C1081 0.930 . S
H1066 C1082 0.931 . S
C1067 H1055 0.929 . S
C1067 C1061 1.390 . S
C1067 C1064 1.386 . S
C1068 C1063 1.490 . S
C1068 C1070 1.395 . S
C1068 C1071 1.403 . S
H1069 C1075 0.930 . S
C1070 H1056 0.930 . S
C1070 C1068 1.395 . S
C1070 C1073 1.403 . S
C1071 C1068 1.403 . S
C1071 C1072 1.524 . S
C1071 C1075 1.400 . S
C1072 H1057 0.960 . S
C1072 H1058 0.960 . S
C1072 H1059 0.960 . S
C1072 C1071 1.524 . S
C1073 C1070 1.403 . S
C1073 C1074 1.392 . S
C1073 C1077 1.495 . S
C1074 C1073 1.392 . S
C1074 C1075 1.385 . S
C1074 C1076 1.478 . S
C1075 H1069 0.930 . S
C1075 C1071 1.400 . S
C1075 C1074 1.385 . S
C1076 C1074 1.478 . S
C1076 C1078 1.381 . S
C1076 C1082 1.383 . S
C1077 C1073 1.495 . S
C1077 H1083 0.959 . S
C1077 H1084 0.961 . S
C1077 H1085 0.960 . S
C1078 C1076 1.381 . S
C1078 C1079 1.394 . S
C1078 H1086 0.930 . S
C1079 C1078 1.394 . S
C1079 C1080 1.383 . S
C1079 H1087 0.929 . S
C1080 C1079 1.383 . S
C1080 C1081 1.377 . S
C1081 H1065 0.930 . S
C1081 C1080 1.377 . S
C1081 C1082 1.379 . S
C1082 H1066 0.931 . S
C1082 C1076 1.383 . S
C1082 C1081 1.379 . S
H1083 C1077 0.959 . S
H1084 C1077 0.961 . S
H1085 C1077 0.960 . S
H1086 C1078 0.930 . S
H1087 C1079 0.929 . S
C233 C5 2.544 . S
C252 C88 2.706 . S
C269 C18 2.276 . S
C288 C130 2.398 1_566 S
C324 C160 0.745 . S
C305 C30 0.752 . S
C341 C41 0.729 . S
C360 C194 0.752 . S
C396 C151 2.164 . S
C377 C7 2.113 . S
C432 C105 2.167 . S
C413 C16 1.842 . S
C468 C198 1.353 . S
C449 C29 1.242 . S
C504 C164 0.805 . S
C485 C38 0.810 . S
C521 C8 2.313 . S
C540 C219 2.303 . S
C576 C126 1.257 . S
C557 C27 1.055 . S
C593 C40 1.035 . S
C612 C101 1.063 . S
C629 C19 1.708 . S
C648 C185 1.738 . S
C684 C117 2.425 . S
C665 C51 2.371 . S
C701 C62 2.364 . S
C720 C139 2.478 . S
C737 C74 0.825 . S
C756 C169 0.839 . S
C773 C84 0.851 . S
C792 C203 0.873 . S
C809 C49 2.144 . S
C828 C122 2.292 1_565 S
C864 C96 1.837 . S
C845 C63 1.797 . S
C900 C207 1.280 . S
C881 C71 1.050 . S
C936 C173 0.937 . S
C917 C85 0.915 . S
C953 C52 2.283 . S
C972 C190 2.270 1_556 S
C1008 C135 1.337 . S
C989 C73 1.243 . S
C1044 C92 0.899 . S
C1025 C82 0.808 . S
C1061 C60 1.973 . S
C1080 C156 2.319 . S
