# Generated by pormake.
# Topology bcu-b, (8,8)-cn, num edge types: 1
# Building blocks:
#     Node 0, Type 0, BuildingBlock: VETTIZ_charged_sbu_0, # of connection points: 8
#     Node 1, Type 1, BuildingBlock: VETTIZ_charged_sbu_0, # of connection points: 8
#     Edge 2, Type (0, 1), BuildingBlock: ZUJKAS_clean_linker_0, # of connection points: 2
#     Edge 3, Type (0, 1), BuildingBlock: ZUJKAS_clean_linker_0, # of connection points: 2
#     Edge 4, Type (0, 1), BuildingBlock: ZUJKAS_clean_linker_0, # of connection points: 2
#     Edge 5, Type (0, 1), BuildingBlock: ZUJKAS_clean_linker_0, # of connection points: 2
#     Edge 6, Type (0, 1), BuildingBlock: ZUJKAS_clean_linker_0, # of connection points: 2
#     Edge 7, Type (0, 1), BuildingBlock: ZUJKAS_clean_linker_0, # of connection points: 2
#     Edge 8, Type (0, 1), BuildingBlock: ZUJKAS_clean_linker_0, # of connection points: 2
#     Edge 9, Type (0, 1), BuildingBlock: ZUJKAS_clean_linker_0, # of connection points: 2
# Relax obj value: 0.000
# Max RMSD: 0.009
# Mean RMSD: 0.009
data_MOF--net-bcu-b--node1-VETTIZ_charged_sbu_0--node2-VETTIZ_charged_sbu_0--edge1-ZUJKAS_clean_linker_0
_symmetry_space_group_name_H-M    P1
_symmetry_Int_Tables_number       1
_symmetry_cell_setting            triclinic
loop_
_symmetry_equiv_pos_as_xyz
'x, y, z'
_cell_length_a     25.031056
_cell_length_b     23.725048
_cell_length_c     25.264786
_cell_angle_alpha  88.466354
_cell_angle_beta   90.942732
_cell_angle_gamma 88.387222
loop_
_atom_site_label
_atom_site_type_symbol
_atom_site_fract_x
_atom_site_fract_y
_atom_site_fract_z
_atom_type_partial_charge
Fe0 Fe 0.96075 0.91577 0.00435 0.0
O1 O 0.96563 0.9985 0.00132 0.0
Fe2 Fe 0.01163 1.03369 0.94004 0.0
Fe3 Fe 0.99361 0.04253 0.06172 0.0
O4 O 0.9674 0.99752 0.99598 0.0
O5 O 0.03962 0.0775 0.00045 0.0
O6 O 0.03803 0.07836 0.00576 0.0
Fe7 Fe 0.04562 0.15986 0.99734 0.0
C8 C 0.90412 0.96266 0.1 0.0
O9 O 0.01042 0.90417 0.07046 0.0
O10 O 0.05437 0.98404 0.07643 0.0
O11 O 0.10486 0.13955 0.9454 0.0
O12 O 0.06334 0.07836 0.88947 0.0
O13 O 0.07268 0.97435 0.95071 0.0
O14 O 0.02482 0.89681 0.95734 0.0
O15 O 0.03099 0.09379 0.11743 0.0
O16 O 0.08842 0.14732 0.06736 0.0
C17 C 0.06781 0.92146 0.94604 0.0
O18 O 0.9954 0.17188 0.9315 0.0
O19 O 0.95095 0.09222 0.92538 0.0
O20 O 0.90114 0.93563 0.05609 0.0
O21 O 0.94166 0.99761 0.11211 0.0
C22 C 0.05012 0.93171 0.08691 0.0
C23 C 0.07127 0.12723 0.11221 0.0
C24 C 0.93888 0.15565 0.05624 0.0
O25 O 0.93277 0.10284 0.0513 0.0
O26 O 0.9824 0.17908 0.0447 0.0
C27 C 0.10134 0.11272 0.90146 0.0
O28 O 0.97465 0.98222 0.88422 0.0
O29 O 0.91806 0.9277 0.93424 0.0
C30 C 0.9555 0.14456 0.91502 0.0
C31 C 0.93481 0.94823 0.88943 0.0
Fe32 Fe 0.49903 0.65847 0.54709 0.0
O33 O 0.50181 0.57616 0.53923 0.0
Fe34 Fe 0.56342 0.54239 0.49244 0.0
Fe35 Fe 0.44077 0.53376 0.50961 0.0
O36 O 0.50713 0.57717 0.53749 0.0
O37 O 0.50236 0.49965 0.46327 0.0
O38 O 0.49718 0.49852 0.46515 0.0
Fe39 Fe 0.50492 0.41727 0.45572 0.0
C40 C 0.40145 0.61062 0.59996 0.0
O41 O 0.43277 0.67232 0.4973 0.0
O42 O 0.42731 0.59411 0.45098 0.0
O43 O 0.55745 0.43869 0.39767 0.0
O44 O 0.61424 0.49892 0.43977 0.0
O45 O 0.55307 0.60437 0.43389 0.0
O46 O 0.54729 0.67927 0.48495 0.0
O47 O 0.38427 0.48439 0.47092 0.0
O48 O 0.4344 0.43131 0.41327 0.0
C49 C 0.55871 0.65684 0.44122 0.0
O50 O 0.57132 0.4034 0.5053 0.0
O51 O 0.57781 0.48201 0.55088 0.0
O52 O 0.44598 0.63682 0.60513 0.0
O53 O 0.38959 0.57757 0.56123 0.0
C54 C 0.41671 0.64625 0.45676 0.0
C55 C 0.3893 0.45174 0.43042 0.0
C56 C 0.44508 0.41944 0.56141 0.0
O57 O 0.45022 0.47202 0.5685 0.0
O58 O 0.45683 0.39683 0.51789 0.0
C59 C 0.60183 0.46535 0.40149 0.0
O60 O 0.61982 0.59209 0.53104 0.0
O61 O 0.56966 0.64434 0.5894 0.0
C62 C 0.5881 0.42978 0.54536 0.0
C63 C 0.6148 0.62438 0.57185 0.0
H64 H 0.02512 0.14639 0.20806 0.0
H65 H 0.06164 0.20341 0.27936 0.0
H66 H 0.209 0.21786 0.19484 0.0
H67 H 0.17319 0.16145 0.12385 0.0
H68 H 0.18698 0.19335 0.33514 0.0
H69 H 0.11918 0.38358 0.21612 0.0
H70 H 0.08457 0.31775 0.21441 0.0
H71 H 0.14655 0.32493 0.18056 0.0
C72 C 0.06586 0.16031 0.20555 0.0
C73 C 0.09622 0.1499 0.16024 0.0
C74 C 0.08647 0.19303 0.24609 0.0
C75 C 0.13767 0.21507 0.2418 0.0
C76 C 0.16928 0.20131 0.19853 0.0
H77 H 0.37705 0.42145 0.32821 0.0
H78 H 0.30338 0.37 0.29 0.0
C79 C 0.14875 0.16912 0.15806 0.0
C80 C 0.15728 0.25689 0.27908 0.0
H81 H 0.18594 0.39647 0.28244 0.0
C82 C 0.1855 0.23803 0.32481 0.0
C83 C 0.15519 0.31495 0.26502 0.0
C84 C 0.12449 0.33692 0.21652 0.0
C85 C 0.21501 0.2756 0.35495 0.0
C86 C 0.21595 0.33311 0.33867 0.0
C87 C 0.18484 0.35241 0.29489 0.0
C88 C 0.25586 0.37118 0.36072 0.0
C89 C 0.24827 0.253 0.40157 0.0
C90 C 0.25244 0.39069 0.41253 0.0
C91 C 0.29446 0.42072 0.43442 0.0
C92 C 0.34051 0.43089 0.40483 0.0
C93 C 0.34223 0.41392 0.35203 0.0
C94 C 0.30018 0.38459 0.33014 0.0
H95 H 0.24545 0.20658 0.40716 0.0
H96 H 0.29085 0.26334 0.39609 0.0
H97 H 0.23465 0.27336 0.43821 0.0
H98 H 0.21826 0.38099 0.43653 0.0
H99 H 0.29225 0.43299 0.47534 0.0
H100 H 0.84897 0.12215 0.10941 0.0
H101 H 0.79002 0.18156 0.16289 0.0
H102 H 0.88039 0.32731 0.11937 0.0
H103 H 0.9373 0.26964 0.06473 0.0
H104 H 0.81686 0.2401 0.24825 0.0
H105 H 0.73257 0.39008 0.09581 0.0
H106 H 0.76811 0.32604 0.07898 0.0
H107 H 0.80415 0.38817 0.09517 0.0
C108 C 0.85528 0.1671 0.11014 0.0
C109 C 0.89786 0.19099 0.0826 0.0
C110 C 0.82186 0.20095 0.14104 0.0
C111 C 0.83034 0.25914 0.14467 0.0
C112 C 0.87204 0.28297 0.11625 0.0
H113 H 0.71187 0.45816 0.41045 0.0
H114 H 0.77268 0.41382 0.34715 0.0
C115 C 0.90493 0.24956 0.08521 0.0
C116 C 0.79824 0.29472 0.18064 0.0
H117 H 0.72567 0.41846 0.1857 0.0
C118 C 0.79652 0.27888 0.23453 0.0
C119 C 0.7716 0.3453 0.16274 0.0
C120 C 0.76871 0.36307 0.10492 0.0
C121 C 0.76908 0.31223 0.271 0.0
C122 C 0.74408 0.36386 0.2534 0.0
C123 C 0.74576 0.37955 0.19946 0.0
C124 C 0.71061 0.39875 0.28881 0.0
C125 C 0.76573 0.29081 0.32762 0.0
C126 C 0.65658 0.40879 0.2754 0.0
C127 C 0.62241 0.43496 0.31068 0.0
C128 C 0.64128 0.45158 0.36048 0.0
C129 C 0.69622 0.44576 0.3724 0.0
C130 C 0.73075 0.41961 0.33663 0.0
H131 H 0.77605 0.24502 0.33162 0.0
H132 H 0.79436 0.31364 0.35261 0.0
H133 H 0.72497 0.29815 0.34319 0.0
H134 H 0.64009 0.39377 0.23862 0.0
H135 H 0.58037 0.4395 0.30001 0.0
H136 H 0.91258 0.96004 0.2091 0.0
H137 H 0.84968 0.91666 0.27088 0.0
H138 H 0.74196 0.88619 0.14038 0.0
H139 H 0.80319 0.93041 0.07939 0.0
H140 H 0.68785 0.9171 0.22592 0.0
H141 H 0.83676 0.7462 0.28016 0.0
H142 H 0.8575 0.81615 0.29434 0.0
H143 H 0.84699 0.79656 0.2268 0.0
C144 C 0.87484 0.94537 0.19396 0.0
C145 C 0.86316 0.94798 0.13933 0.0
C146 C 0.83928 0.9199 0.22913 0.0
C147 C 0.79174 0.89673 0.21002 0.0
C148 C 0.77854 0.90315 0.15606 0.0
H149 H 0.61083 0.62409 0.35115 0.0
H150 H 0.66471 0.68331 0.29276 0.0
C151 C 0.81374 0.92843 0.12118 0.0
C152 C 0.7565 0.86313 0.24478 0.0
H153 H 0.75263 0.74177 0.32048 0.0
C154 C 0.70209 0.87892 0.24684 0.0
C155 C 0.7748 0.81252 0.27099 0.0
C156 C 0.83206 0.79137 0.26774 0.0
C157 C 0.66553 0.84565 0.27427 0.0
C158 C 0.68406 0.79582 0.3016 0.0
C159 C 0.73845 0.77997 0.29957 0.0
C160 C 0.6481 0.76054 0.334 0.0
C161 C 0.60715 0.86349 0.2724 0.0
C162 C 0.62049 0.78428 0.37614 0.0
C163 C 0.58936 0.75088 0.40898 0.0
C164 C 0.58564 0.69253 0.40111 0.0
C165 C 0.6124 0.66887 0.35812 0.0
C166 C 0.64351 0.7026 0.32497 0.0
H167 H 0.59734 0.89096 0.23706 0.0
H168 H 0.58108 0.82641 0.27176 0.0
H169 H 0.59778 0.88796 0.30805 0.0
H170 H 0.62426 0.82848 0.38472 0.0
H171 H 0.56953 0.77072 0.44172 0.0
H172 H 0.12773 0.97938 0.14742 0.0
H173 H 0.19276 0.93158 0.20749 0.0
H174 H 0.13178 0.77048 0.16472 0.0
H175 H 0.06557 0.81803 0.10549 0.0
H176 H 0.1432 0.77756 0.26998 0.0
H177 H 0.32944 0.84708 0.17579 0.0
H178 H 0.28579 0.9049 0.19255 0.0
H179 H 0.26478 0.85605 0.14357 0.0
C180 C 0.1284 0.93372 0.15034 0.0
C181 C 0.09137 0.90256 0.1215 0.0
C182 C 0.16593 0.90641 0.18453 0.0
C183 C 0.1679 0.84732 0.19 0.0
C184 C 0.13122 0.81609 0.16101 0.0
H185 H 0.3605 0.60109 0.37504 0.0
H186 H 0.30108 0.65038 0.31034 0.0
C187 C 0.09335 0.84337 0.12715 0.0
C188 C 0.20631 0.81818 0.22789 0.0
H189 H 0.33897 0.80302 0.26159 0.0
C190 C 0.18601 0.78287 0.26784 0.0
C191 C 0.26227 0.8251 0.22523 0.0
C192 C 0.28696 0.85989 0.18167 0.0
C193 C 0.21994 0.75504 0.30554 0.0
C194 C 0.27567 0.76248 0.30316 0.0
C195 C 0.29613 0.79772 0.26339 0.0
C196 C 0.31326 0.73317 0.34136 0.0
C197 C 0.19596 0.71845 0.34822 0.0
C198 C 0.34055 0.76361 0.37967 0.0
C199 C 0.37449 0.73557 0.417 0.0
C200 C 0.38218 0.67658 0.41628 0.0
C201 C 0.35559 0.6465 0.37692 0.0
C202 C 0.32142 0.67453 0.33995 0.0
H203 H 0.15199 0.72533 0.35053 0.0
H204 H 0.20417 0.67343 0.33963 0.0
H205 H 0.21436 0.72684 0.38742 0.0
H206 H 0.33488 0.80898 0.38121 0.0
H207 H 0.39452 0.7601 0.4465 0.0
H208 H 0.08992 0.809 0.95847 0.0
H209 H 0.14831 0.75057 0.9045 0.0
H210 H 0.19527 0.89898 0.81652 0.0
H211 H 0.13832 0.95789 0.87178 0.0
H212 H 0.13867 0.73453 0.80201 0.0
H213 H 0.33768 0.82202 0.84166 0.0
H214 H 0.28036 0.83909 0.88112 0.0
H215 H 0.28982 0.87502 0.81841 0.0
C216 C 0.11371 0.82931 0.92843 0.0
C217 C 0.10983 0.88805 0.91956 0.0
C218 C 0.14683 0.79583 0.89741 0.0
C219 C 0.17651 0.82025 0.85655 0.0
C220 C 0.17382 0.87917 0.84854 0.0
H221 H 0.29802 0.64594 0.58172 0.0
H222 H 0.23962 0.69254 0.64526 0.0
C223 C 0.14123 0.91287 0.88017 0.0
C224 C 0.20742 0.78356 0.82049 0.0
H225 H 0.33076 0.76178 0.76804 0.0
C226 C 0.18083 0.74018 0.79493 0.0
C227 C 0.2625 0.7905 0.81151 0.0
C228 C 0.29439 0.8338 0.84004 0.0
C229 C 0.20762 0.70393 0.76042 0.0
C230 C 0.26223 0.71224 0.74996 0.0
C231 C 0.28884 0.7554 0.7758 0.0
C232 C 0.29313 0.67689 0.71273 0.0
C233 C 0.17732 0.65651 0.73648 0.0
C234 C 0.34234 0.65195 0.72934 0.0
C235 C 0.37594 0.62639 0.69294 0.0
C236 C 0.36069 0.62438 0.63933 0.0
C237 C 0.31006 0.64589 0.62311 0.0
C238 C 0.27674 0.67256 0.65946 0.0
H239 H 0.14251 0.64502 0.76086 0.0
H240 H 0.16186 0.67024 0.69665 0.0
H241 H 0.20341 0.61833 0.73221 0.0
H242 H 0.35587 0.6545 0.77014 0.0
H243 H 0.41502 0.61044 0.70624 0.0
H244 H 0.09206 0.11518 0.7926 0.0
H245 H 0.15527 0.15686 0.73014 0.0
H246 H 0.26412 0.1868 0.85986 0.0
H247 H 0.20253 0.14446 0.92151 0.0
H248 H 0.18625 0.26607 0.73142 0.0
H249 H 0.36545 0.12568 0.75259 0.0
H250 H 0.30081 0.10521 0.77582 0.0
H251 H 0.34295 0.148 0.81587 0.0
C252 C 0.13025 0.12901 0.80737 0.0
C253 C 0.14225 0.1267 0.86194 0.0
C254 C 0.16612 0.15321 0.7718 0.0
C255 C 0.21468 0.17459 0.79027 0.0
C256 C 0.22756 0.16966 0.8444 0.0
H257 H 0.39088 0.45211 0.6504 0.0
H258 H 0.33606 0.39249 0.70748 0.0
C259 C 0.19198 0.14575 0.87972 0.0
C260 C 0.24985 0.20705 0.75463 0.0
H261 H 0.38012 0.22006 0.71948 0.0
C262 C 0.22852 0.25562 0.72818 0.0
C263 C 0.30494 0.1933 0.75019 0.0
C264 C 0.32972 0.13986 0.77471 0.0
C265 C 0.26104 0.29162 0.69863 0.0
C266 C 0.3167 0.27954 0.69669 0.0
C267 C 0.33769 0.23007 0.7219 0.0
C268 C 0.35335 0.31557 0.66589 0.0
C269 C 0.23524 0.34173 0.66916 0.0
C270 C 0.38364 0.29167 0.62565 0.0
C271 C 0.41564 0.3252 0.59389 0.0
C272 C 0.41804 0.38371 0.60133 0.0
C273 C 0.38983 0.4073 0.64345 0.0
C274 C 0.35792 0.37339 0.67564 0.0
H275 H 0.19162 0.33647 0.66308 0.0
H276 H 0.24072 0.38013 0.69254 0.0
H277 H 0.2537 0.34851 0.62991 0.0
H278 H 0.38125 0.24716 0.61763 0.0
H279 H 0.43715 0.30531 0.5622 0.0
H280 H 0.94103 0.25832 0.8957 0.0
H281 H 0.87492 0.30611 0.83649 0.0
H282 H 0.81231 0.14533 0.79503 0.0
H283 H 0.8772 0.09733 0.85506 0.0
H284 H 0.86259 0.29859 0.73134 0.0
H285 H 0.67651 0.23112 0.82712 0.0
H286 H 0.74133 0.2218 0.85895 0.0
H287 H 0.71958 0.1728 0.81043 0.0
C288 C 0.91291 0.23311 0.87434 0.0
C289 C 0.91438 0.17395 0.88038 0.0
C290 C 0.8751 0.26052 0.84048 0.0
C291 C 0.83797 0.22946 0.81187 0.0
C292 C 0.83948 0.1704 0.81769 0.0
H293 H 0.60983 0.31586 0.55642 0.0
H294 H 0.66983 0.26728 0.62159 0.0
C295 C 0.87694 0.14297 0.85187 0.0
C296 C 0.79951 0.25868 0.77406 0.0
H297 H 0.66672 0.27436 0.74097 0.0
C298 C 0.81976 0.29356 0.73375 0.0
C299 C 0.74351 0.25215 0.77707 0.0
C300 C 0.71886 0.21789 0.82103 0.0
C301 C 0.78577 0.32127 0.69602 0.0
C302 C 0.73 0.31417 0.69873 0.0
C303 C 0.70958 0.2794 0.73889 0.0
C304 C 0.69231 0.34336 0.6605 0.0
C305 C 0.8097 0.35736 0.65295 0.0
C306 C 0.68452 0.40207 0.66141 0.0
C307 C 0.65015 0.42993 0.62452 0.0
C308 C 0.62296 0.39962 0.58572 0.0
C309 C 0.63031 0.34057 0.58548 0.0
C310 C 0.66446 0.3127 0.62274 0.0
H311 H 0.85363 0.35015 0.65042 0.0
H312 H 0.79102 0.34879 0.61392 0.0
H313 H 0.80183 0.40251 0.66128 0.0
H314 H 0.70527 0.4264 0.6906 0.0
H315 H 0.64551 0.4754 0.62603 0.0
H316 H 0.83277 0.91448 0.87804 0.0
H317 H 0.79651 0.85822 0.80718 0.0
H318 H 0.9437 0.87194 0.72224 0.0
H319 H 0.98067 0.92885 0.79345 0.0
H320 H 0.81828 0.88258 0.66673 0.0
H321 H 0.88527 0.69206 0.78575 0.0
H322 H 0.85828 0.75086 0.82135 0.0
H323 H 0.92023 0.75768 0.78738 0.0
C324 C 0.85708 0.90669 0.84376 0.0
C325 C 0.90968 0.92568 0.84143 0.0
C326 C 0.83629 0.87458 0.80336 0.0
C327 C 0.86771 0.86066 0.76001 0.0
C328 C 0.919 0.88246 0.75557 0.0
H329 H 0.71179 0.64326 0.52678 0.0
H330 H 0.78586 0.69523 0.56549 0.0
C331 C 0.93987 0.91512 0.79605 0.0
C332 C 0.84776 0.81892 0.72278 0.0
H333 H 0.81823 0.67954 0.71962 0.0
C334 C 0.81952 0.8379 0.6771 0.0
C335 C 0.84952 0.76086 0.7369 0.0
C336 C 0.8802 0.73874 0.78534 0.0
C337 C 0.78969 0.8005 0.64707 0.0
C338 C 0.78845 0.74301 0.66339 0.0
C339 C 0.81955 0.72357 0.70714 0.0
C340 C 0.74837 0.70511 0.64134 0.0
C341 C 0.75646 0.82326 0.6005 0.0
C342 C 0.70406 0.69175 0.67196 0.0
C343 C 0.66197 0.66243 0.65013 0.0
C344 C 0.6636 0.6454 0.59733 0.0
C345 C 0.70962 0.65558 0.56769 0.0
C346 C 0.7517 0.68558 0.58952 0.0
H347 H 0.75945 0.86967 0.59494 0.0
H348 H 0.76997 0.80287 0.56384 0.0
H349 H 0.71384 0.81309 0.60602 0.0
H350 H 0.70093 0.70633 0.71211 0.0
H351 H 0.6272 0.6549 0.67402 0.0
loop_
_geom_bond_atom_site_label_1
_geom_bond_atom_site_label_2
_geom_bond_distance
_geom_bond_site_symmetry_2
_ccdc_geom_bond_type
Fe0 O1 1.886 . S
Fe0 O4 1.715 1_554 S
Fe0 O9 2.077 . S
Fe0 O14 1.935 1_554 S
Fe0 O20 2.077 1_455 S
Fe0 O29 1.935 1_454 S
O1 Fe0 1.886 . S
O1 Fe3 1.715 1_565 S
Fe2 O4 1.886 . S
Fe2 O5 1.715 1_565 S
Fe2 O12 1.935 1_565 S
Fe2 O13 2.077 . S
Fe2 O19 1.935 1_465 S
Fe2 O28 2.077 1_455 S
Fe3 O1 1.715 1_545 S
Fe3 O6 1.886 . S
Fe3 O10 1.935 1_545 S
Fe3 O15 2.077 . S
Fe3 O21 1.935 1_445 S
Fe3 O25 2.077 1_455 S
O4 Fe0 1.715 1_556 S
O4 Fe2 1.886 . S
O5 Fe2 1.715 1_545 S
O5 Fe7 1.886 . S
O6 Fe3 1.886 . S
O6 Fe7 1.715 1_554 S
Fe7 O5 1.886 . S
Fe7 O6 1.715 1_556 S
Fe7 O11 2.077 . S
Fe7 O16 1.935 1_556 S
Fe7 O18 2.077 1_455 S
Fe7 O26 1.935 1_456 S
C8 O20 1.381 . S
C8 O21 1.421 . S
O9 Fe0 2.077 . S
O9 C22 1.381 . S
O10 Fe3 1.935 1_565 S
O10 C22 1.421 . S
O11 Fe7 2.077 . S
O11 C27 1.381 . S
O12 Fe2 1.935 1_545 S
O12 C27 1.421 . S
O13 Fe2 2.077 . S
O13 C17 1.381 . S
O14 Fe0 1.935 1_556 S
O14 C17 1.421 . S
O15 Fe3 2.077 . S
O15 C23 1.381 . S
O16 Fe7 1.935 1_554 S
O16 C23 1.421 . S
C17 O13 1.381 . S
C17 O14 1.421 . S
O18 Fe7 2.077 1_655 S
O18 C30 1.381 . S
O19 Fe2 1.935 1_645 S
O19 C30 1.421 . S
O20 Fe0 2.077 1_655 S
O20 C8 1.381 . S
O21 Fe3 1.935 1_665 S
O21 C8 1.421 . S
C22 O9 1.381 . S
C22 O10 1.421 . S
C23 O15 1.381 . S
C23 O16 1.421 . S
C24 O25 1.381 . S
C24 O26 1.421 . S
O25 Fe3 2.077 1_655 S
O25 C24 1.381 . S
O26 Fe7 1.935 1_654 S
O26 C24 1.421 . S
C27 O11 1.381 . S
C27 O12 1.421 . S
O28 Fe2 2.077 1_655 S
O28 C31 1.381 . S
O29 Fe0 1.935 1_656 S
O29 C31 1.421 . S
C30 O18 1.381 . S
C30 O19 1.421 . S
C31 O28 1.381 . S
C31 O29 1.421 . S
Fe32 O33 1.886 . S
Fe32 O36 1.715 . S
Fe32 O41 2.077 . S
Fe32 O46 1.935 . S
Fe32 O52 2.077 . S
Fe32 O61 1.935 . S
O33 Fe32 1.886 . S
O33 Fe35 1.715 . S
Fe34 O36 1.886 . S
Fe34 O37 1.715 . S
Fe34 O44 1.935 . S
Fe34 O45 2.077 . S
Fe34 O51 1.935 . S
Fe34 O60 2.077 . S
Fe35 O33 1.715 . S
Fe35 O38 1.886 . S
Fe35 O42 1.935 . S
Fe35 O47 2.077 . S
Fe35 O53 1.935 . S
Fe35 O57 2.077 . S
O36 Fe32 1.715 . S
O36 Fe34 1.886 . S
O37 Fe34 1.715 . S
O37 Fe39 1.886 . S
O38 Fe35 1.886 . S
O38 Fe39 1.715 . S
Fe39 O37 1.886 . S
Fe39 O38 1.715 . S
Fe39 O43 2.077 . S
Fe39 O48 1.935 . S
Fe39 O50 2.077 . S
Fe39 O58 1.935 . S
C40 O52 1.381 . S
C40 O53 1.421 . S
O41 Fe32 2.077 . S
O41 C54 1.381 . S
O42 Fe35 1.935 . S
O42 C54 1.421 . S
O43 Fe39 2.077 . S
O43 C59 1.381 . S
O44 Fe34 1.935 . S
O44 C59 1.421 . S
O45 Fe34 2.077 . S
O45 C49 1.381 . S
O46 Fe32 1.935 . S
O46 C49 1.421 . S
O47 Fe35 2.077 . S
O47 C55 1.381 . S
O48 Fe39 1.935 . S
O48 C55 1.421 . S
C49 O45 1.381 . S
C49 O46 1.421 . S
O50 Fe39 2.077 . S
O50 C62 1.381 . S
O51 Fe34 1.935 . S
O51 C62 1.421 . S
O52 Fe32 2.077 . S
O52 C40 1.381 . S
O53 Fe35 1.935 . S
O53 C40 1.421 . S
C54 O41 1.381 . S
C54 O42 1.421 . S
C55 O47 1.381 . S
C55 O48 1.421 . S
C56 O57 1.381 . S
C56 O58 1.421 . S
O57 Fe35 2.077 . S
O57 C56 1.381 . S
O58 Fe39 1.935 . S
O58 C56 1.421 . S
C59 O43 1.381 . S
C59 O44 1.421 . S
O60 Fe34 2.077 . S
O60 C63 1.381 . S
O61 Fe32 1.935 . S
O61 C63 1.421 . S
C62 O50 1.381 . S
C62 O51 1.421 . S
C63 O60 1.381 . S
C63 O61 1.421 . S
H64 C72 0.929 . S
H65 C74 0.930 . S
H66 C76 0.930 . S
H67 C79 0.929 . S
H68 C82 0.930 . S
H69 C84 0.960 . S
H70 C84 0.960 . S
H71 C84 0.960 . S
C72 H64 0.929 . S
C72 C73 1.377 . S
C72 C74 1.384 . S
C73 C72 1.377 . S
C73 C79 1.390 . S
C74 H65 0.930 . S
C74 C72 1.384 . S
C74 C75 1.372 . S
C75 C74 1.372 . S
C75 C76 1.400 . S
C75 C80 1.490 . S
C76 H66 0.930 . S
C76 C75 1.400 . S
C76 C79 1.386 . S
H77 C93 0.930 . S
H78 C94 0.931 . S
C79 H67 0.929 . S
C79 C73 1.390 . S
C79 C76 1.386 . S
C80 C75 1.490 . S
C80 C82 1.395 . S
C80 C83 1.403 . S
H81 C87 0.930 . S
C82 H68 0.930 . S
C82 C80 1.395 . S
C82 C85 1.403 . S
C83 C80 1.403 . S
C83 C84 1.524 . S
C83 C87 1.400 . S
C84 H69 0.960 . S
C84 H70 0.960 . S
C84 H71 0.960 . S
C84 C83 1.524 . S
C85 C82 1.403 . S
C85 C86 1.392 . S
C85 C89 1.495 . S
C86 C85 1.392 . S
C86 C87 1.385 . S
C86 C88 1.478 . S
C87 H81 0.930 . S
C87 C83 1.400 . S
C87 C86 1.385 . S
C88 C86 1.478 . S
C88 C90 1.381 . S
C88 C94 1.383 . S
C89 C85 1.495 . S
C89 H95 0.959 . S
C89 H96 0.961 . S
C89 H97 0.960 . S
C90 C88 1.381 . S
C90 C91 1.394 . S
C90 H98 0.930 . S
C91 C90 1.394 . S
C91 C92 1.383 . S
C91 H99 0.929 . S
C92 C91 1.383 . S
C92 C93 1.377 . S
C93 H77 0.930 . S
C93 C92 1.377 . S
C93 C94 1.379 . S
C94 H78 0.931 . S
C94 C88 1.383 . S
C94 C93 1.379 . S
H95 C89 0.959 . S
H96 C89 0.961 . S
H97 C89 0.960 . S
H98 C90 0.930 . S
H99 C91 0.929 . S
H100 C108 0.929 . S
H101 C110 0.930 . S
H102 C112 0.930 . S
H103 C115 0.929 . S
H104 C118 0.930 . S
H105 C120 0.960 . S
H106 C120 0.960 . S
H107 C120 0.960 . S
C108 H100 0.929 . S
C108 C109 1.377 . S
C108 C110 1.384 . S
C109 C108 1.377 . S
C109 C115 1.390 . S
C110 H101 0.930 . S
C110 C108 1.384 . S
C110 C111 1.372 . S
C111 C110 1.372 . S
C111 C112 1.400 . S
C111 C116 1.490 . S
C112 H102 0.930 . S
C112 C111 1.400 . S
C112 C115 1.386 . S
H113 C129 0.930 . S
H114 C130 0.931 . S
C115 H103 0.929 . S
C115 C109 1.390 . S
C115 C112 1.386 . S
C116 C111 1.490 . S
C116 C118 1.395 . S
C116 C119 1.403 . S
H117 C123 0.930 . S
C118 H104 0.930 . S
C118 C116 1.395 . S
C118 C121 1.403 . S
C119 C116 1.403 . S
C119 C120 1.524 . S
C119 C123 1.400 . S
C120 H105 0.960 . S
C120 H106 0.960 . S
C120 H107 0.960 . S
C120 C119 1.524 . S
C121 C118 1.403 . S
C121 C122 1.392 . S
C121 C125 1.495 . S
C122 C121 1.392 . S
C122 C123 1.385 . S
C122 C124 1.478 . S
C123 H117 0.930 . S
C123 C119 1.400 . S
C123 C122 1.385 . S
C124 C122 1.478 . S
C124 C126 1.381 . S
C124 C130 1.383 . S
C125 C121 1.495 . S
C125 H131 0.959 . S
C125 H132 0.961 . S
C125 H133 0.960 . S
C126 C124 1.381 . S
C126 C127 1.394 . S
C126 H134 0.930 . S
C127 C126 1.394 . S
C127 C128 1.383 . S
C127 H135 0.929 . S
C128 C127 1.383 . S
C128 C129 1.377 . S
C129 H113 0.930 . S
C129 C128 1.377 . S
C129 C130 1.379 . S
C130 H114 0.931 . S
C130 C124 1.383 . S
C130 C129 1.379 . S
H131 C125 0.959 . S
H132 C125 0.961 . S
H133 C125 0.960 . S
H134 C126 0.930 . S
H135 C127 0.929 . S
H136 C144 0.929 . S
H137 C146 0.930 . S
H138 C148 0.930 . S
H139 C151 0.929 . S
H140 C154 0.930 . S
H141 C156 0.960 . S
H142 C156 0.960 . S
H143 C156 0.960 . S
C144 H136 0.929 . S
C144 C145 1.377 . S
C144 C146 1.384 . S
C145 C144 1.377 . S
C145 C151 1.390 . S
C146 H137 0.930 . S
C146 C144 1.384 . S
C146 C147 1.372 . S
C147 C146 1.372 . S
C147 C148 1.400 . S
C147 C152 1.490 . S
C148 H138 0.930 . S
C148 C147 1.400 . S
C148 C151 1.386 . S
H149 C165 0.930 . S
H150 C166 0.931 . S
C151 H139 0.929 . S
C151 C145 1.390 . S
C151 C148 1.386 . S
C152 C147 1.490 . S
C152 C154 1.395 . S
C152 C155 1.403 . S
H153 C159 0.930 . S
C154 H140 0.930 . S
C154 C152 1.395 . S
C154 C157 1.403 . S
C155 C152 1.403 . S
C155 C156 1.524 . S
C155 C159 1.400 . S
C156 H141 0.960 . S
C156 H142 0.960 . S
C156 H143 0.960 . S
C156 C155 1.524 . S
C157 C154 1.403 . S
C157 C158 1.392 . S
C157 C161 1.495 . S
C158 C157 1.392 . S
C158 C159 1.385 . S
C158 C160 1.478 . S
C159 H153 0.930 . S
C159 C155 1.400 . S
C159 C158 1.385 . S
C160 C158 1.478 . S
C160 C162 1.381 . S
C160 C166 1.383 . S
C161 C157 1.495 . S
C161 H167 0.959 . S
C161 H168 0.961 . S
C161 H169 0.960 . S
C162 C160 1.381 . S
C162 C163 1.394 . S
C162 H170 0.930 . S
C163 C162 1.394 . S
C163 C164 1.383 . S
C163 H171 0.929 . S
C164 C163 1.383 . S
C164 C165 1.377 . S
C165 H149 0.930 . S
C165 C164 1.377 . S
C165 C166 1.379 . S
C166 H150 0.931 . S
C166 C160 1.383 . S
C166 C165 1.379 . S
H167 C161 0.959 . S
H168 C161 0.961 . S
H169 C161 0.960 . S
H170 C162 0.930 . S
H171 C163 0.929 . S
H172 C180 0.929 . S
H173 C182 0.930 . S
H174 C184 0.930 . S
H175 C187 0.929 . S
H176 C190 0.930 . S
H177 C192 0.960 . S
H178 C192 0.960 . S
H179 C192 0.960 . S
C180 H172 0.929 . S
C180 C181 1.377 . S
C180 C182 1.384 . S
C181 C180 1.377 . S
C181 C187 1.390 . S
C182 H173 0.930 . S
C182 C180 1.384 . S
C182 C183 1.372 . S
C183 C182 1.372 . S
C183 C184 1.400 . S
C183 C188 1.490 . S
C184 H174 0.930 . S
C184 C183 1.400 . S
C184 C187 1.386 . S
H185 C201 0.930 . S
H186 C202 0.931 . S
C187 H175 0.929 . S
C187 C181 1.390 . S
C187 C184 1.386 . S
C188 C183 1.490 . S
C188 C190 1.395 . S
C188 C191 1.403 . S
H189 C195 0.930 . S
C190 H176 0.930 . S
C190 C188 1.395 . S
C190 C193 1.403 . S
C191 C188 1.403 . S
C191 C192 1.524 . S
C191 C195 1.400 . S
C192 H177 0.960 . S
C192 H178 0.960 . S
C192 H179 0.960 . S
C192 C191 1.524 . S
C193 C190 1.403 . S
C193 C194 1.392 . S
C193 C197 1.495 . S
C194 C193 1.392 . S
C194 C195 1.385 . S
C194 C196 1.478 . S
C195 H189 0.930 . S
C195 C191 1.400 . S
C195 C194 1.385 . S
C196 C194 1.478 . S
C196 C198 1.381 . S
C196 C202 1.383 . S
C197 C193 1.495 . S
C197 H203 0.959 . S
C197 H204 0.961 . S
C197 H205 0.960 . S
C198 C196 1.381 . S
C198 C199 1.394 . S
C198 H206 0.930 . S
C199 C198 1.394 . S
C199 C200 1.383 . S
C199 H207 0.929 . S
C200 C199 1.383 . S
C200 C201 1.377 . S
C201 H185 0.930 . S
C201 C200 1.377 . S
C201 C202 1.379 . S
C202 H186 0.931 . S
C202 C196 1.383 . S
C202 C201 1.379 . S
H203 C197 0.959 . S
H204 C197 0.961 . S
H205 C197 0.960 . S
H206 C198 0.930 . S
H207 C199 0.929 . S
H208 C216 0.929 . S
H209 C218 0.930 . S
H210 C220 0.930 . S
H211 C223 0.929 . S
H212 C226 0.930 . S
H213 C228 0.960 . S
H214 C228 0.960 . S
H215 C228 0.960 . S
C216 H208 0.929 . S
C216 C217 1.377 . S
C216 C218 1.384 . S
C217 C216 1.377 . S
C217 C223 1.390 . S
C218 H209 0.930 . S
C218 C216 1.384 . S
C218 C219 1.372 . S
C219 C218 1.372 . S
C219 C220 1.400 . S
C219 C224 1.490 . S
C220 H210 0.930 . S
C220 C219 1.400 . S
C220 C223 1.386 . S
H221 C237 0.930 . S
H222 C238 0.931 . S
C223 H211 0.929 . S
C223 C217 1.390 . S
C223 C220 1.386 . S
C224 C219 1.490 . S
C224 C226 1.395 . S
C224 C227 1.403 . S
H225 C231 0.930 . S
C226 H212 0.930 . S
C226 C224 1.395 . S
C226 C229 1.403 . S
C227 C224 1.403 . S
C227 C228 1.524 . S
C227 C231 1.400 . S
C228 H213 0.960 . S
C228 H214 0.960 . S
C228 H215 0.960 . S
C228 C227 1.524 . S
C229 C226 1.403 . S
C229 C230 1.392 . S
C229 C233 1.495 . S
C230 C229 1.392 . S
C230 C231 1.385 . S
C230 C232 1.478 . S
C231 H225 0.930 . S
C231 C227 1.400 . S
C231 C230 1.385 . S
C232 C230 1.478 . S
C232 C234 1.381 . S
C232 C238 1.383 . S
C233 C229 1.495 . S
C233 H239 0.959 . S
C233 H240 0.961 . S
C233 H241 0.960 . S
C234 C232 1.381 . S
C234 C235 1.394 . S
C234 H242 0.930 . S
C235 C234 1.394 . S
C235 C236 1.383 . S
C235 H243 0.929 . S
C236 C235 1.383 . S
C236 C237 1.377 . S
C237 H221 0.930 . S
C237 C236 1.377 . S
C237 C238 1.379 . S
C238 H222 0.931 . S
C238 C232 1.383 . S
C238 C237 1.379 . S
H239 C233 0.959 . S
H240 C233 0.961 . S
H241 C233 0.960 . S
H242 C234 0.930 . S
H243 C235 0.929 . S
H244 C252 0.929 . S
H245 C254 0.930 . S
H246 C256 0.930 . S
H247 C259 0.929 . S
H248 C262 0.930 . S
H249 C264 0.960 . S
H250 C264 0.960 . S
H251 C264 0.960 . S
C252 H244 0.929 . S
C252 C253 1.377 . S
C252 C254 1.384 . S
C253 C252 1.377 . S
C253 C259 1.390 . S
C254 H245 0.930 . S
C254 C252 1.384 . S
C254 C255 1.372 . S
C255 C254 1.372 . S
C255 C256 1.400 . S
C255 C260 1.490 . S
C256 H246 0.930 . S
C256 C255 1.400 . S
C256 C259 1.386 . S
H257 C273 0.930 . S
H258 C274 0.931 . S
C259 H247 0.929 . S
C259 C253 1.390 . S
C259 C256 1.386 . S
C260 C255 1.490 . S
C260 C262 1.395 . S
C260 C263 1.403 . S
H261 C267 0.930 . S
C262 H248 0.930 . S
C262 C260 1.395 . S
C262 C265 1.403 . S
C263 C260 1.403 . S
C263 C264 1.524 . S
C263 C267 1.400 . S
C264 H249 0.960 . S
C264 H250 0.960 . S
C264 H251 0.960 . S
C264 C263 1.524 . S
C265 C262 1.403 . S
C265 C266 1.392 . S
C265 C269 1.495 . S
C266 C265 1.392 . S
C266 C267 1.385 . S
C266 C268 1.478 . S
C267 H261 0.930 . S
C267 C263 1.400 . S
C267 C266 1.385 . S
C268 C266 1.478 . S
C268 C270 1.381 . S
C268 C274 1.383 . S
C269 C265 1.495 . S
C269 H275 0.959 . S
C269 H276 0.961 . S
C269 H277 0.960 . S
C270 C268 1.381 . S
C270 C271 1.394 . S
C270 H278 0.930 . S
C271 C270 1.394 . S
C271 C272 1.383 . S
C271 H279 0.929 . S
C272 C271 1.383 . S
C272 C273 1.377 . S
C273 H257 0.930 . S
C273 C272 1.377 . S
C273 C274 1.379 . S
C274 H258 0.931 . S
C274 C268 1.383 . S
C274 C273 1.379 . S
H275 C269 0.959 . S
H276 C269 0.961 . S
H277 C269 0.960 . S
H278 C270 0.930 . S
H279 C271 0.929 . S
H280 C288 0.929 . S
H281 C290 0.930 . S
H282 C292 0.930 . S
H283 C295 0.929 . S
H284 C298 0.930 . S
H285 C300 0.960 . S
H286 C300 0.960 . S
H287 C300 0.960 . S
C288 H280 0.929 . S
C288 C289 1.377 . S
C288 C290 1.384 . S
C289 C288 1.377 . S
C289 C295 1.390 . S
C290 H281 0.930 . S
C290 C288 1.384 . S
C290 C291 1.372 . S
C291 C290 1.372 . S
C291 C292 1.400 . S
C291 C296 1.490 . S
C292 H282 0.930 . S
C292 C291 1.400 . S
C292 C295 1.386 . S
H293 C309 0.930 . S
H294 C310 0.931 . S
C295 H283 0.929 . S
C295 C289 1.390 . S
C295 C292 1.386 . S
C296 C291 1.490 . S
C296 C298 1.395 . S
C296 C299 1.403 . S
H297 C303 0.930 . S
C298 H284 0.930 . S
C298 C296 1.395 . S
C298 C301 1.403 . S
C299 C296 1.403 . S
C299 C300 1.524 . S
C299 C303 1.400 . S
C300 H285 0.960 . S
C300 H286 0.960 . S
C300 H287 0.960 . S
C300 C299 1.524 . S
C301 C298 1.403 . S
C301 C302 1.392 . S
C301 C305 1.495 . S
C302 C301 1.392 . S
C302 C303 1.385 . S
C302 C304 1.478 . S
C303 H297 0.930 . S
C303 C299 1.400 . S
C303 C302 1.385 . S
C304 C302 1.478 . S
C304 C306 1.381 . S
C304 C310 1.383 . S
C305 C301 1.495 . S
C305 H311 0.959 . S
C305 H312 0.961 . S
C305 H313 0.960 . S
C306 C304 1.381 . S
C306 C307 1.394 . S
C306 H314 0.930 . S
C307 C306 1.394 . S
C307 C308 1.383 . S
C307 H315 0.929 . S
C308 C307 1.383 . S
C308 C309 1.377 . S
C309 H293 0.930 . S
C309 C308 1.377 . S
C309 C310 1.379 . S
C310 H294 0.931 . S
C310 C304 1.383 . S
C310 C309 1.379 . S
H311 C305 0.959 . S
H312 C305 0.961 . S
H313 C305 0.960 . S
H314 C306 0.930 . S
H315 C307 0.929 . S
H316 C324 0.929 . S
H317 C326 0.930 . S
H318 C328 0.930 . S
H319 C331 0.929 . S
H320 C334 0.930 . S
H321 C336 0.960 . S
H322 C336 0.960 . S
H323 C336 0.960 . S
C324 H316 0.929 . S
C324 C325 1.377 . S
C324 C326 1.384 . S
C325 C324 1.377 . S
C325 C331 1.390 . S
C326 H317 0.930 . S
C326 C324 1.384 . S
C326 C327 1.372 . S
C327 C326 1.372 . S
C327 C328 1.400 . S
C327 C332 1.490 . S
C328 H318 0.930 . S
C328 C327 1.400 . S
C328 C331 1.386 . S
H329 C345 0.930 . S
H330 C346 0.931 . S
C331 H319 0.929 . S
C331 C325 1.390 . S
C331 C328 1.386 . S
C332 C327 1.490 . S
C332 C334 1.395 . S
C332 C335 1.403 . S
H333 C339 0.930 . S
C334 H320 0.930 . S
C334 C332 1.395 . S
C334 C337 1.403 . S
C335 C332 1.403 . S
C335 C336 1.524 . S
C335 C339 1.400 . S
C336 H321 0.960 . S
C336 H322 0.960 . S
C336 H323 0.960 . S
C336 C335 1.524 . S
C337 C334 1.403 . S
C337 C338 1.392 . S
C337 C341 1.495 . S
C338 C337 1.392 . S
C338 C339 1.385 . S
C338 C340 1.478 . S
C339 H333 0.930 . S
C339 C335 1.400 . S
C339 C338 1.385 . S
C340 C338 1.478 . S
C340 C342 1.381 . S
C340 C346 1.383 . S
C341 C337 1.495 . S
C341 H347 0.959 . S
C341 H348 0.961 . S
C341 H349 0.960 . S
C342 C340 1.381 . S
C342 C343 1.394 . S
C342 H350 0.930 . S
C343 C342 1.394 . S
C343 C344 1.383 . S
C343 H351 0.929 . S
C344 C343 1.383 . S
C344 C345 1.377 . S
C345 H329 0.930 . S
C345 C344 1.377 . S
C345 C346 1.379 . S
C346 H330 0.931 . S
C346 C340 1.383 . S
C346 C345 1.379 . S
H347 C341 0.959 . S
H348 C341 0.961 . S
H349 C341 0.960 . S
H350 C342 0.930 . S
H351 C343 0.929 . S
C73 C23 1.446 . S
C92 C55 1.428 . S
C109 C24 1.455 . S
C128 C59 1.429 . S
C145 C8 1.447 . S
C164 C49 1.439 . S
C181 C22 1.452 . S
C200 C54 1.435 . S
C217 C17 1.457 . S
C236 C40 1.463 . S
C272 C56 1.445 . S
C253 C27 1.450 . S
C289 C30 1.451 . S
C308 C62 1.425 . S
C344 C63 1.425 . S
C325 C31 1.459 . S
