# Generated by pormake.
# Topology ocu, (6,8)-cn, num edge types: 1
# Building blocks:
#     Node 0, Type 0, BuildingBlock: HISSIN_clean_sbu_0, # of connection points: 6
#     Node 1, Type 0, BuildingBlock: HISSIN_clean_sbu_0, # of connection points: 6
#     Node 2, Type 0, BuildingBlock: HISSIN_clean_sbu_0, # of connection points: 6
#     Node 3, Type 0, BuildingBlock: HISSIN_clean_sbu_0, # of connection points: 6
#     Node 4, Type 0, BuildingBlock: HISSIN_clean_sbu_0, # of connection points: 6
#     Node 5, Type 0, BuildingBlock: HISSIN_clean_sbu_0, # of connection points: 6
#     Node 6, Type 0, BuildingBlock: HISSIN_clean_sbu_0, # of connection points: 6
#     Node 7, Type 0, BuildingBlock: HISSIN_clean_sbu_0, # of connection points: 6
#     Node 8, Type 1, BuildingBlock: AJUNOK_clean_sbu_0, # of connection points: 8
#     Node 9, Type 1, BuildingBlock: AJUNOK_clean_sbu_0, # of connection points: 8
#     Node 10, Type 1, BuildingBlock: AJUNOK_clean_sbu_0, # of connection points: 8
#     Node 11, Type 1, BuildingBlock: AJUNOK_clean_sbu_0, # of connection points: 8
#     Node 12, Type 1, BuildingBlock: AJUNOK_clean_sbu_0, # of connection points: 8
#     Node 13, Type 1, BuildingBlock: AJUNOK_clean_sbu_0, # of connection points: 8
#     Edge 14, Type (0, 1), BuildingBlock: CIFDUS_clean_linker_0, # of connection points: 2
#     Edge 15, Type (0, 1), BuildingBlock: CIFDUS_clean_linker_0, # of connection points: 2
#     Edge 16, Type (0, 1), BuildingBlock: CIFDUS_clean_linker_0, # of connection points: 2
#     Edge 17, Type (0, 1), BuildingBlock: CIFDUS_clean_linker_0, # of connection points: 2
#     Edge 18, Type (0, 1), BuildingBlock: CIFDUS_clean_linker_0, # of connection points: 2
#     Edge 19, Type (0, 1), BuildingBlock: CIFDUS_clean_linker_0, # of connection points: 2
#     Edge 20, Type (0, 1), BuildingBlock: CIFDUS_clean_linker_0, # of connection points: 2
#     Edge 21, Type (0, 1), BuildingBlock: CIFDUS_clean_linker_0, # of connection points: 2
#     Edge 22, Type (0, 1), BuildingBlock: CIFDUS_clean_linker_0, # of connection points: 2
#     Edge 23, Type (0, 1), BuildingBlock: CIFDUS_clean_linker_0, # of connection points: 2
#     Edge 24, Type (0, 1), BuildingBlock: CIFDUS_clean_linker_0, # of connection points: 2
#     Edge 25, Type (0, 1), BuildingBlock: CIFDUS_clean_linker_0, # of connection points: 2
#     Edge 26, Type (0, 1), BuildingBlock: CIFDUS_clean_linker_0, # of connection points: 2
#     Edge 27, Type (0, 1), BuildingBlock: CIFDUS_clean_linker_0, # of connection points: 2
#     Edge 28, Type (0, 1), BuildingBlock: CIFDUS_clean_linker_0, # of connection points: 2
#     Edge 29, Type (0, 1), BuildingBlock: CIFDUS_clean_linker_0, # of connection points: 2
#     Edge 30, Type (0, 1), BuildingBlock: CIFDUS_clean_linker_0, # of connection points: 2
#     Edge 31, Type (0, 1), BuildingBlock: CIFDUS_clean_linker_0, # of connection points: 2
#     Edge 32, Type (0, 1), BuildingBlock: CIFDUS_clean_linker_0, # of connection points: 2
#     Edge 33, Type (0, 1), BuildingBlock: CIFDUS_clean_linker_0, # of connection points: 2
#     Edge 34, Type (0, 1), BuildingBlock: CIFDUS_clean_linker_0, # of connection points: 2
#     Edge 35, Type (0, 1), BuildingBlock: CIFDUS_clean_linker_0, # of connection points: 2
#     Edge 36, Type (0, 1), BuildingBlock: CIFDUS_clean_linker_0, # of connection points: 2
#     Edge 37, Type (0, 1), BuildingBlock: CIFDUS_clean_linker_0, # of connection points: 2
#     Edge 38, Type (0, 1), BuildingBlock: CIFDUS_clean_linker_0, # of connection points: 2
#     Edge 39, Type (0, 1), BuildingBlock: CIFDUS_clean_linker_0, # of connection points: 2
#     Edge 40, Type (0, 1), BuildingBlock: CIFDUS_clean_linker_0, # of connection points: 2
#     Edge 41, Type (0, 1), BuildingBlock: CIFDUS_clean_linker_0, # of connection points: 2
#     Edge 42, Type (0, 1), BuildingBlock: CIFDUS_clean_linker_0, # of connection points: 2
#     Edge 43, Type (0, 1), BuildingBlock: CIFDUS_clean_linker_0, # of connection points: 2
#     Edge 44, Type (0, 1), BuildingBlock: CIFDUS_clean_linker_0, # of connection points: 2
#     Edge 45, Type (0, 1), BuildingBlock: CIFDUS_clean_linker_0, # of connection points: 2
#     Edge 46, Type (0, 1), BuildingBlock: CIFDUS_clean_linker_0, # of connection points: 2
#     Edge 47, Type (0, 1), BuildingBlock: CIFDUS_clean_linker_0, # of connection points: 2
#     Edge 48, Type (0, 1), BuildingBlock: CIFDUS_clean_linker_0, # of connection points: 2
#     Edge 49, Type (0, 1), BuildingBlock: CIFDUS_clean_linker_0, # of connection points: 2
#     Edge 50, Type (0, 1), BuildingBlock: CIFDUS_clean_linker_0, # of connection points: 2
#     Edge 51, Type (0, 1), BuildingBlock: CIFDUS_clean_linker_0, # of connection points: 2
#     Edge 52, Type (0, 1), BuildingBlock: CIFDUS_clean_linker_0, # of connection points: 2
#     Edge 53, Type (0, 1), BuildingBlock: CIFDUS_clean_linker_0, # of connection points: 2
#     Edge 54, Type (0, 1), BuildingBlock: CIFDUS_clean_linker_0, # of connection points: 2
#     Edge 55, Type (0, 1), BuildingBlock: CIFDUS_clean_linker_0, # of connection points: 2
#     Edge 56, Type (0, 1), BuildingBlock: CIFDUS_clean_linker_0, # of connection points: 2
#     Edge 57, Type (0, 1), BuildingBlock: CIFDUS_clean_linker_0, # of connection points: 2
#     Edge 58, Type (0, 1), BuildingBlock: CIFDUS_clean_linker_0, # of connection points: 2
#     Edge 59, Type (0, 1), BuildingBlock: CIFDUS_clean_linker_0, # of connection points: 2
#     Edge 60, Type (0, 1), BuildingBlock: CIFDUS_clean_linker_0, # of connection points: 2
#     Edge 61, Type (0, 1), BuildingBlock: CIFDUS_clean_linker_0, # of connection points: 2
# Relax obj value: 0.150
# Max RMSD: 0.205
# Mean RMSD: 0.158
data_MOF--net-ocu--node1-HISSIN_clean_sbu_0--node2-AJUNOK_clean_sbu_0--edge1-CIFDUS_clean_linker_0
_symmetry_space_group_name_H-M    P1
_symmetry_Int_Tables_number       1
_symmetry_cell_setting            triclinic
loop_
_symmetry_equiv_pos_as_xyz
'x, y, z'
_cell_length_a     40.717712
_cell_length_b     41.551098
_cell_length_c     34.014037
_cell_angle_alpha  107.30625
_cell_angle_beta   87.52364
_cell_angle_gamma 113.85542
loop_
_atom_site_label
_atom_site_type_symbol
_atom_site_fract_x
_atom_site_fract_y
_atom_site_fract_z
_atom_type_partial_charge
Eu0 Eu 0.29559 0.24869 0.28691 0.0
Eu1 Eu 0.24422 0.2323 0.20413 0.0
C2 C 0.21559 0.18918 0.26877 0.0
C3 C 0.35462 0.23019 0.35407 0.0
C4 C 0.33741 0.19741 0.36489 0.0
C5 C 0.41075 0.22194 0.35288 0.0
C6 C 0.35651 0.1771 0.36937 0.0
C7 C 0.39164 0.24238 0.34853 0.0
C8 C 0.39339 0.189 0.36326 0.0
C9 C 0.33385 0.25122 0.34862 0.0
O10 O 0.22642 0.26714 0.25851 0.0
O11 O 0.27611 0.29516 0.30611 0.0
C12 C 0.24489 0.29281 0.29273 0.0
O13 O 0.33142 0.27534 0.24345 0.0
O14 O 0.1911 0.21064 0.17127 0.0
O15 O 0.23843 0.24089 0.14469 0.0
O16 O 0.28921 0.28884 0.21854 0.0
C17 C 0.32282 0.2949 0.22543 0.0
O18 O 0.29337 0.19561 0.24103 0.0
O19 O 0.28163 0.20278 0.17956 0.0
O20 O 0.2175 0.18378 0.2289 0.0
O21 O 0.3465 0.27339 0.32602 0.0
O22 O 0.299 0.23284 0.34159 0.0
O23 O 0.23747 0.22014 0.29503 0.0
C24 C 0.18455 0.24936 0.13552 0.0
C25 C 0.20339 0.28276 0.12627 0.0
C26 C 0.12904 0.25814 0.13225 0.0
C27 C 0.18516 0.30352 0.12009 0.0
C28 C 0.14707 0.23715 0.1378 0.0
C29 C 0.14785 0.29159 0.12349 0.0
C30 C 0.20325 0.22708 0.1431 0.0
C31 C 0.29443 0.18757 0.20065 0.0
H32 H 0.30899 0.1872 0.36967 0.0
H33 H 0.43924 0.23213 0.34849 0.0
H34 H 0.34221 0.15168 0.37696 0.0
H35 H 0.40586 0.26767 0.34066 0.0
H36 H 0.23224 0.29306 0.12415 0.0
H37 H 0.10023 0.24816 0.13473 0.0
H38 H 0.20034 0.32932 0.11359 0.0
H39 H 0.13164 0.21142 0.14434 0.0
Eu40 Eu 0.78596 0.21699 0.23563 0.0
Eu41 Eu 0.73957 0.26692 0.2568 0.0
C42 C 0.79804 0.28026 0.32417 0.0
C43 C 0.83538 0.16415 0.25333 0.0
C44 C 0.84001 0.18359 0.29572 0.0
C45 C 0.85482 0.1208 0.26804 0.0
C46 C 0.85302 0.17229 0.32398 0.0
C47 C 0.84203 0.13227 0.23966 0.0
C48 C 0.8609 0.14118 0.31012 0.0
C49 C 0.82223 0.17648 0.22383 0.0
O50 O 0.7952 0.30156 0.24417 0.0
O51 O 0.80601 0.25596 0.19698 0.0
C52 C 0.81203 0.29097 0.21276 0.0
O53 O 0.7374 0.18695 0.18971 0.0
O54 O 0.73843 0.3215 0.27668 0.0
O55 O 0.68909 0.27267 0.25213 0.0
O56 O 0.73248 0.23894 0.18819 0.0
C57 C 0.72403 0.20356 0.1722 0.0
O58 O 0.75086 0.20024 0.28519 0.0
O59 O 0.70461 0.21324 0.26891 0.0
O60 O 0.76539 0.27826 0.31936 0.0
O61 O 0.78726 0.16269 0.21732 0.0
O62 O 0.83725 0.21199 0.22912 0.0
O63 O 0.81262 0.26414 0.29367 0.0
C64 C 0.70166 0.32304 0.22696 0.0
C65 C 0.69957 0.30217 0.18544 0.0
C66 C 0.69888 0.37192 0.20408 0.0
C67 C 0.69582 0.31533 0.15358 0.0
C68 C 0.70241 0.35851 0.23613 0.0
C69 C 0.69452 0.34988 0.16266 0.0
C70 C 0.7056 0.30848 0.2601 0.0
C71 C 0.71689 0.19499 0.28538 0.0
H72 H 0.83421 0.20786 0.30683 0.0
H73 H 0.86113 0.09684 0.25706 0.0
H74 H 0.8579 0.18833 0.3564 0.0
H75 H 0.8379 0.11668 0.20713 0.0
H76 H 0.69997 0.27524 0.17741 0.0
H77 H 0.69746 0.39854 0.21167 0.0
H78 H 0.69233 0.29786 0.12186 0.0
H79 H 0.70494 0.37543 0.26792 0.0
Eu80 Eu 0.76258 0.75498 0.20045 0.0
Eu81 Eu 0.775 0.72493 0.2793 0.0
C82 C 0.70383 0.68592 0.2184 0.0
C83 C 0.72667 0.79452 0.13195 0.0
C84 C 0.68884 0.77953 0.13212 0.0
C85 C 0.72403 0.84625 0.11439 0.0
C86 C 0.66888 0.79767 0.12334 0.0
C87 C 0.74396 0.82814 0.12316 0.0
C88 C 0.68621 0.83115 0.11404 0.0
C89 C 0.7484 0.77521 0.13966 0.0
O90 O 0.80535 0.70175 0.2304 0.0
O91 O 0.78839 0.71349 0.17367 0.0
C92 C 0.8045 0.69811 0.19066 0.0
O93 O 0.8061 0.80252 0.24597 0.0
O94 O 0.76448 0.68278 0.31015 0.0
O95 O 0.80298 0.73911 0.33936 0.0
O96 O 0.82578 0.76516 0.26447 0.0
C97 C 0.82895 0.79827 0.26754 0.0
O98 O 0.73561 0.78129 0.25118 0.0
O99 O 0.74808 0.76504 0.30679 0.0
O100 O 0.72792 0.67976 0.23561 0.0
O101 O 0.77705 0.79495 0.16586 0.0
O102 O 0.73093 0.74226 0.14343 0.0
O103 O 0.71019 0.71893 0.21745 0.0
C104 C 0.81539 0.69074 0.34994 0.0
C105 C 0.85234 0.70698 0.34456 0.0
C106 C 0.82633 0.64664 0.37533 0.0
C107 C 0.87606 0.69325 0.35472 0.0
C108 C 0.8027 0.66046 0.36535 0.0
C109 C 0.86335 0.66288 0.37027 0.0
C110 C 0.78969 0.70494 0.34009 0.0
C111 C 0.73461 0.78291 0.29045 0.0
H112 H 0.67455 0.7536 0.13866 0.0
H113 H 0.73834 0.87224 0.10798 0.0
H114 H 0.63979 0.78505 0.12294 0.0
H115 H 0.77301 0.84037 0.12281 0.0
H116 H 0.86295 0.73024 0.33247 0.0
H117 H 0.81563 0.62355 0.38768 0.0
H118 H 0.90429 0.70616 0.34992 0.0
H119 H 0.7744 0.64753 0.36987 0.0
Eu120 Eu 0.29339 0.72172 0.23989 0.0
Eu121 Eu 0.25466 0.77725 0.26128 0.0
C122 C 0.22192 0.70165 0.19034 0.0
C123 C 0.34981 0.68395 0.17777 0.0
C124 C 0.34079 0.69747 0.14843 0.0
C125 C 0.39746 0.67543 0.13817 0.0
C126 C 0.35917 0.69854 0.11306 0.0
C127 C 0.3789 0.67416 0.17327 0.0
C128 C 0.38696 0.68636 0.10682 0.0
C129 C 0.33033 0.68316 0.21442 0.0
O130 O 0.23235 0.74214 0.30428 0.0
O131 O 0.24629 0.69268 0.27172 0.0
C132 C 0.22899 0.70819 0.29884 0.0
O133 O 0.30545 0.74813 0.30815 0.0
O134 O 0.20992 0.79056 0.2505 0.0
O135 O 0.25467 0.83085 0.29544 0.0
O136 O 0.30347 0.80151 0.30592 0.0
C137 C 0.31259 0.78306 0.32541 0.0
O138 O 0.32936 0.77387 0.22517 0.0
O139 O 0.28486 0.78729 0.20649 0.0
O140 O 0.2151 0.72312 0.22305 0.0
O141 O 0.34292 0.71448 0.24407 0.0
O142 O 0.29528 0.66891 0.20742 0.0
O143 O 0.25505 0.70544 0.18457 0.0
C144 C 0.19648 0.81199 0.31719 0.0
C145 C 0.20711 0.80228 0.34924 0.0
C146 C 0.13617 0.79318 0.33881 0.0
C147 C 0.1825 0.78799 0.37574 0.0
C148 C 0.16069 0.80662 0.31163 0.0
C149 C 0.14703 0.78454 0.37193 0.0
C150 C 0.22033 0.81834 0.28444 0.0
C151 C 0.31792 0.78998 0.20466 0.0
H152 H 0.31891 0.70634 0.15239 0.0
H153 H 0.41836 0.66521 0.13453 0.0
H154 H 0.35038 0.70684 0.08957 0.0
H155 H 0.38665 0.66467 0.19631 0.0
H156 H 0.23448 0.8052 0.35362 0.0
H157 H 0.10928 0.79174 0.33517 0.0
H158 H 0.19182 0.78212 0.40107 0.0
H159 H 0.15169 0.81259 0.28617 0.0
Eu160 Eu 0.29966 0.73015 0.74265 0.0
Eu161 Eu 0.2308 0.76297 0.75426 0.0
C162 C 0.28579 0.79609 0.81983 0.0
C163 C 0.34837 0.69105 0.7904 0.0
C164 C 0.3561 0.70356 0.83356 0.0
C165 C 0.33413 0.62854 0.79043 0.0
C166 C 0.35326 0.67883 0.85485 0.0
C167 C 0.3365 0.65316 0.76912 0.0
C168 C 0.34323 0.64144 0.83319 0.0
C169 C 0.35041 0.71745 0.76875 0.0
O170 O 0.27589 0.79564 0.72131 0.0
O171 O 0.32025 0.77244 0.70949 0.0
C172 C 0.30616 0.79508 0.70592 0.0
O173 O 0.26588 0.6932 0.684 0.0
O174 O 0.20875 0.80441 0.76892 0.0
O175 O 0.17561 0.74834 0.73172 0.0
O176 O 0.22303 0.71826 0.69261 0.0
C177 C 0.2365 0.69465 0.67142 0.0
O178 O 0.25089 0.68696 0.7584 0.0
O179 O 0.21551 0.7191 0.78689 0.0
O180 O 0.25752 0.80221 0.81811 0.0
O181 O 0.33754 0.70401 0.72985 0.0
O182 O 0.34088 0.74356 0.78997 0.0
O183 O 0.28413 0.76927 0.78771 0.0
C184 C 0.17921 0.79783 0.70809 0.0
C185 C 0.17639 0.77653 0.66658 0.0
C186 C 0.18936 0.85106 0.68566 0.0
C187 C 0.17938 0.79219 0.63491 0.0
C188 C 0.18621 0.83535 0.71731 0.0
C189 C 0.18524 0.82942 0.64418 0.0
C190 C 0.18106 0.78314 0.74192 0.0
C191 C 0.22376 0.69021 0.77928 0.0
H192 H 0.36504 0.73261 0.85077 0.0
H193 H 0.32737 0.59982 0.77326 0.0
H194 H 0.36148 0.68931 0.88771 0.0
H195 H 0.32992 0.64264 0.73597 0.0
H196 H 0.17187 0.74778 0.65848 0.0
H197 H 0.19318 0.87968 0.69362 0.0
H198 H 0.17586 0.77494 0.60309 0.0
H199 H 0.18944 0.85259 0.74909 0.0
Eu200 Eu 0.2686 0.25702 0.70941 0.0
Eu201 Eu 0.27156 0.22046 0.78685 0.0
C202 C 0.21144 0.18298 0.71501 0.0
C203 C 0.22797 0.29288 0.64195 0.0
C204 C 0.19113 0.27641 0.64778 0.0
C205 C 0.21751 0.34102 0.62476 0.0
C206 C 0.16776 0.29225 0.64224 0.0
C207 C 0.24078 0.32517 0.6302 0.0
C208 C 0.18071 0.3249 0.63083 0.0
C209 C 0.25383 0.27805 0.64965 0.0
O210 O 0.30428 0.19935 0.73874 0.0
O211 O 0.29654 0.21807 0.68304 0.0
C212 C 0.30877 0.19986 0.70026 0.0
O213 O 0.32324 0.29521 0.74266 0.0
O214 O 0.25372 0.17575 0.81492 0.0
O215 O 0.29582 0.22886 0.84713 0.0
O216 O 0.32492 0.26566 0.7902 0.0
C217 C 0.33921 0.29197 0.77309 0.0
O218 O 0.24887 0.28924 0.76319 0.0
O219 O 0.23899 0.25579 0.80961 0.0
O220 O 0.23301 0.17605 0.73501 0.0
O221 O 0.27915 0.29969 0.67956 0.0
O222 O 0.24083 0.24356 0.64926 0.0
O223 O 0.21601 0.21705 0.72159 0.0
C224 C 0.30207 0.1758 0.85286 0.0
C225 C 0.33515 0.19646 0.87746 0.0
C226 C 0.31198 0.12003 0.84375 0.0
C227 C 0.35625 0.17905 0.8853 0.0
C228 C 0.29087 0.13738 0.83605 0.0
C229 C 0.34479 0.14047 0.86887 0.0
C230 C 0.27924 0.19416 0.84523 0.0
C231 C 0.23609 0.28212 0.79733 0.0
H232 H 0.18042 0.25154 0.65701 0.0
H233 H 0.2286 0.36645 0.61665 0.0
H234 H 0.13952 0.27886 0.64676 0.0
H235 H 0.26906 0.33855 0.62583 0.0
H236 H 0.34463 0.22613 0.89105 0.0
H237 H 0.3025 0.09043 0.82977 0.0
H238 H 0.38113 0.19578 0.90508 0.0
H239 H 0.26566 0.12053 0.81692 0.0
Eu240 Eu 0.79396 0.21873 0.73355 0.0
Eu241 Eu 0.73574 0.25441 0.74516 0.0
C242 C 0.73602 0.19476 0.66153 0.0
C243 C 0.86385 0.20258 0.67927 0.0
C244 C 0.84526 0.19237 0.6405 0.0
C245 C 0.92022 0.22345 0.64843 0.0
C246 C 0.86437 0.19505 0.60586 0.0
C247 C 0.90147 0.22198 0.68379 0.0
C248 C 0.90101 0.20229 0.60947 0.0
C249 C 0.8438 0.19616 0.71499 0.0
O250 O 0.72223 0.21776 0.786 0.0
O251 O 0.7449 0.17645 0.75036 0.0
C252 C 0.72289 0.18514 0.77626 0.0
O253 O 0.79695 0.24683 0.80122 0.0
O254 O 0.67891 0.24336 0.73862 0.0
O255 O 0.71857 0.29963 0.76487 0.0
O256 O 0.78244 0.29192 0.79361 0.0
C257 C 0.80041 0.28105 0.81402 0.0
O258 O 0.82125 0.27405 0.72249 0.0
O259 O 0.77237 0.28125 0.7021 0.0
O260 O 0.71613 0.20457 0.68954 0.0
O261 O 0.84912 0.22606 0.74536 0.0
O262 O 0.80979 0.17317 0.70663 0.0
O263 O 0.7705 0.20652 0.66991 0.0
C264 C 0.66867 0.27829 0.80059 0.0
C265 C 0.68568 0.27367 0.83227 0.0
C266 C 0.62906 0.29543 0.84828 0.0
C267 C 0.67552 0.28141 0.87215 0.0
C268 C 0.63869 0.28663 0.80794 0.0
C269 C 0.64987 0.29627 0.88115 0.0
C270 C 0.68472 0.27671 0.76152 0.0
C271 C 0.80717 0.29009 0.70482 0.0
H272 H 0.81611 0.17996 0.63621 0.0
H273 H 0.94922 0.23278 0.65177 0.0
H274 H 0.84917 0.18197 0.57579 0.0
H275 H 0.9163 0.23312 0.71389 0.0
H276 H 0.7093 0.26789 0.82731 0.0
H277 H 0.60868 0.30639 0.85414 0.0
H278 H 0.69155 0.2814 0.89677 0.0
H279 H 0.62485 0.28944 0.78349 0.0
Eu280 Eu 0.79777 0.74636 0.78049 0.0
Eu281 Eu 0.73914 0.72748 0.6999 0.0
C282 C 0.72089 0.6809 0.76301 0.0
C283 C 0.85863 0.73245 0.85203 0.0
C284 C 0.8407 0.70015 0.86353 0.0
C285 C 0.91554 0.7279 0.86124 0.0
C286 C 0.86 0.68199 0.87378 0.0
C287 C 0.89629 0.7461 0.85115 0.0
C288 C 0.89773 0.69565 0.87289 0.0
C289 C 0.83878 0.75282 0.84233 0.0
O290 O 0.72569 0.76747 0.751 0.0
O291 O 0.76384 0.77944 0.80723 0.0
C292 C 0.73754 0.78335 0.79023 0.0
O293 O 0.82947 0.7881 0.74935 0.0
O294 O 0.68514 0.70441 0.66811 0.0
O295 O 0.73162 0.73287 0.63926 0.0
O296 O 0.78509 0.78213 0.70405 0.0
C297 C 0.81803 0.79848 0.72199 0.0
O298 O 0.81535 0.71235 0.72565 0.0
O299 O 0.76582 0.6867 0.67778 0.0
O300 O 0.70765 0.69586 0.74265 0.0
O301 O 0.85082 0.76921 0.81416 0.0
O302 O 0.80363 0.73739 0.83951 0.0
O303 O 0.75532 0.6885 0.76447 0.0
C304 C 0.67836 0.74217 0.63111 0.0
C305 C 0.698 0.77844 0.62936 0.0
C306 C 0.62271 0.74867 0.62064 0.0
C307 C 0.68013 0.79952 0.62335 0.0
C308 C 0.64054 0.72752 0.62628 0.0
C309 C 0.64222 0.78503 0.61933 0.0
C310 C 0.69657 0.71961 0.63886 0.0
C311 C 0.7971 0.6887 0.69048 0.0
H312 H 0.81176 0.68899 0.86498 0.0
H313 H 0.94445 0.73902 0.85956 0.0
H314 H 0.84534 0.65758 0.88314 0.0
H315 H 0.91098 0.77102 0.8427 0.0
H316 H 0.72719 0.79078 0.63311 0.0
H317 H 0.59352 0.73645 0.61715 0.0
H318 H 0.696 0.82752 0.62287 0.0
H319 H 0.62468 0.69967 0.62727 0.0
Cd320 Cd 0.99327 0.96069 0.54568 0.0
Cd321 Cd 0.04592 0.01843 0.44341 0.0
C322 C 0.06767 0.95691 0.56233 0.0
N323 N 0.03725 0.93959 0.53608 0.0
C324 C 0.04844 0.88567 0.50996 0.0
C325 C 0.07958 0.90216 0.53761 0.0
C326 C 0.08956 0.93872 0.56336 0.0
C327 C 0.02779 0.90514 0.50945 0.0
H328 H 0.07369 0.98369 0.58452 0.0
H329 H 1.00273 0.89186 0.49009 0.0
C330 C 0.98037 0.9436 0.43548 0.0
C331 C 0.97911 0.02018 0.40366 0.0
C332 C 0.95105 0.02957 0.39803 0.0
C333 C 0.94356 0.05457 0.4308 0.0
C334 C 0.96346 0.06863 0.46927 0.0
C335 C 0.99093 0.05766 0.47387 0.0
N336 N 0.99824 0.0341 0.44108 0.0
H337 H 0.98654 0.00278 0.37768 0.0
H338 H 1.00741 0.06909 0.50287 0.0
C339 C 0.0658 0.94927 0.40526 0.0
N340 N 0.0741 0.98018 0.43813 0.0
C341 C 0.11129 0.96328 0.47238 0.0
C342 C 0.1009 0.92966 0.44049 0.0
C343 C 0.07896 0.92335 0.40583 0.0
C344 C 0.09742 -0.01166 0.4705 0.0
H345 H 0.04806 0.94416 0.37926 0.0
H346 H 0.10417 0.01373 0.49552 0.0
C347 C 0.05562 0.03796 0.55404 0.0
C348 C 0.95335 0.91366 0.59127 0.0
N349 N 0.95114 0.98196 0.54062 0.0
C350 C 0.96396 0.01918 0.55093 0.0
C351 C 0.94065 0.03593 0.55402 0.0
C352 C 0.90359 0.01421 0.54707 0.0
C353 C 0.89041 0.97571 0.53622 0.0
C354 C 0.91525 0.95982 0.53279 0.0
C355 C 0.09495 0.06666 0.40445 0.0
O356 O 0.99265 0.95659 0.47306 0.0
O357 O 0.99694 0.96057 0.41037 0.0
O358 O 0.04435 0.02316 0.51618 0.0
O359 O 0.03993 0.02104 0.57964 0.0
O360 O 0.95475 0.90105 0.55257 0.0
O361 O 0.97018 0.94825 0.60851 0.0
O362 O 0.09538 0.0753 0.4437 0.0
O363 O 0.07148 0.03538 0.38354 0.0
H364 H 0.99213 0.03629 0.55846 0.0
H365 H 0.90601 0.93021 0.52562 0.0
H366 H 0.03919 0.85753 0.48982 0.0
H367 H 0.11249 0.95236 0.58623 0.0
H368 H 0.93702 0.01953 0.36757 0.0
H369 H 0.95895 0.08905 0.4946 0.0
H370 H 0.12843 0.96943 0.49945 0.0
H371 H 0.07141 0.89834 0.37988 0.0
H372 H 0.95143 0.06589 0.56373 0.0
H373 H 0.86173 0.95858 0.5318 0.0
Cd374 Cd 0.47378 0.97996 0.04318 0.0
Cd375 Cd 0.56306 -0.00426 0.93619 0.0
C376 C 0.532 0.97251 0.10062 0.0
N377 N 0.51426 0.95816 0.06219 0.0
C378 C 0.53855 0.91241 0.04345 0.0
C379 C 0.55662 0.92622 0.08298 0.0
C380 C 0.55329 0.95671 0.11179 0.0
C381 C 0.5171 0.92859 0.03383 0.0
H382 H 0.52899 -0.00431 0.12289 0.0
H383 H 0.50204 0.9169 0.00393 0.0
C384 C 0.47965 0.93443 0.9311 0.0
C385 C 0.49775 0.00575 0.89234 0.0
C386 C 0.47652 0.02371 0.88671 0.0
C387 C 0.48409 0.05981 0.91221 0.0
C388 C 0.51261 0.07675 0.94339 0.0
C389 C 0.53263 0.05752 0.9485 0.0
N390 N 0.52499 0.02267 0.92321 0.0
H391 H 0.4926 0.97851 0.87166 0.0
H392 H 0.55468 0.07059 0.97244 0.0
C393 C 0.58188 0.92295 0.89019 0.0
N394 N 0.59359 0.95461 0.92282 0.0
C395 C 0.64751 0.94667 0.93397 0.0
C396 C 0.63675 0.91443 0.89967 0.0
C397 C 0.60293 0.90237 0.87824 0.0
C398 C 0.62565 0.96634 0.94487 0.0
H399 H 0.55683 0.91434 0.87225 0.0
H400 H 0.63505 -0.00814 0.97013 0.0
C401 C 0.55485 0.03667 0.04166 0.0
C402 C 0.42283 0.92802 0.07752 0.0
N403 N 0.44521 0.02339 0.05908 0.0
C404 C 0.44635 0.042 0.0998 0.0
C405 C 0.42721 0.0644 0.1128 0.0
C406 C 0.40619 0.06806 0.08391 0.0
C407 C 0.40627 0.04921 0.04183 0.0
C408 C 0.42579 0.02691 0.03012 0.0
C409 C 0.61465 0.04693 0.90198 0.0
O410 O 0.48263 0.95352 0.96895 0.0
O411 O 0.50704 0.94199 0.91019 0.0
O412 O 0.54644 0.01186 0.00683 0.0
O413 O 0.53097 0.03463 0.06732 0.0
O414 O 0.41817 0.92567 0.03981 0.0
O415 O 0.44988 0.9555 0.09921 0.0
O416 O 0.61921 0.04948 0.93985 0.0
O417 O 0.5869 0.02015 0.88053 0.0
H418 H 0.46159 0.03881 0.12255 0.0
H419 H 0.42461 0.01165 -0.00209 0.0
H420 H 0.5401 0.88861 0.02065 0.0
H421 H 0.5669 0.96805 0.14261 0.0
H422 H 0.45506 0.00992 0.86194 0.0
H423 H 0.51928 0.10455 0.9637 0.0
H424 H 0.67297 0.95708 0.95199 0.0
H425 H 0.59341 0.87813 0.85126 0.0
H426 H 0.42891 0.07869 0.14545 0.0
H427 H 0.39047 0.05066 0.01815 0.0
Cd428 Cd 0.97264 0.47635 0.04795 0.0
Cd429 Cd 0.06308 0.49959 0.93767 0.0
C430 C 0.02583 0.45412 0.09547 0.0
N431 N 1.00831 0.44574 0.05817 0.0
C432 C 0.02848 0.39753 0.02897 0.0
C433 C 0.04735 0.4058 0.0669 0.0
C434 C 0.04574 0.43462 0.10045 0.0
C435 C 1.00912 0.41785 0.02531 0.0
H436 H 0.02443 0.47602 0.12142 0.0
H437 H 0.9943 0.41103 -0.00377 0.0
C438 C 0.97756 0.44834 0.93746 0.0
C439 C 1.01058 0.51761 0.88497 0.0
C440 C 0.99018 0.53552 0.87698 0.0
C441 C 0.98722 0.56479 0.90857 0.0
C442 C 1.00506 0.57525 0.94771 0.0
C443 C 0.02474 0.55619 0.95452 0.0
N444 N 0.02693 0.5278 0.92343 0.0
H445 H 1.01341 0.49557 0.86046 0.0
H446 H 0.03856 0.56425 0.98462 0.0
C447 C 0.07134 0.42297 0.88555 0.0
N448 N 0.08751 0.45313 0.91911 0.0
C449 C 0.13632 0.43483 0.92255 0.0
C450 C 0.12112 0.40446 0.88661 0.0
C451 C 0.08757 0.39833 0.86895 0.0
C452 C 0.11916 0.45898 0.93814 0.0
H453 H 0.04645 0.41879 0.87047 0.0
H454 H 0.13201 0.48333 0.96443 0.0
C455 C 0.05927 0.52784 0.05043 0.0
C456 C 0.92065 0.42417 0.08101 0.0
N457 N 0.94927 0.52394 0.068 0.0
C458 C 0.96 0.54825 0.10679 0.0
C459 C 0.94518 0.57426 0.12269 0.0
C460 C 0.91886 0.5761 0.0987 0.0
C461 C 0.90842 0.55061 0.05852 0.0
C462 C 0.92386 0.52474 0.04386 0.0
C463 C 0.11607 0.55278 0.90643 0.0
O464 O 0.9863 0.46636 0.97546 0.0
O465 O 1.002 0.45352 0.91241 0.0
O466 O 0.05268 0.51276 0.01159 0.0
O467 O 0.03329 0.52102 0.07342 0.0
O468 O 0.92042 0.41855 0.04203 0.0
O469 O 0.94346 0.45497 0.10398 0.0
O470 O 0.11326 0.55886 0.94512 0.0
O471 O 0.0958 0.521 0.88274 0.0
H472 H 0.97958 0.54688 0.12602 0.0
H473 H 0.91505 0.50492 0.01332 0.0
H474 H 0.02814 0.37514 0.00242 0.0
H475 H 0.06003 0.44236 0.1302 0.0
H476 H 0.97732 0.52695 0.84618 0.0
H477 H 1.00345 0.5976 0.97293 0.0
H478 H 0.16216 0.44104 0.93723 0.0
H479 H 0.07433 0.37513 0.84164 0.0
H480 H 0.95384 0.59214 0.15416 0.0
H481 H 0.88858 0.5506 0.03834 0.0
Cd482 Cd 0.47919 0.44812 0.03183 0.0
Cd483 Cd 0.55066 0.52888 0.95239 0.0
C484 C 0.55305 0.44804 0.05795 0.0
N485 N 0.52237 0.42684 0.03246 0.0
C486 C 0.53468 0.37347 0.0189 0.0
C487 C 0.56644 0.39438 0.04566 0.0
C488 C 0.57567 0.43229 0.065 0.0
C489 C 0.51302 0.39044 0.01257 0.0
H490 H 0.55909 0.47668 0.07432 0.0
H491 H 0.48794 0.37432 -0.00686 0.0
C492 C 0.50192 0.44464 0.92907 0.0
C493 C 0.47117 0.51192 0.9252 0.0
C494 C 0.44566 0.52207 0.91299 0.0
C495 C 0.44876 0.55818 0.93092 0.0
C496 C 0.47583 0.5828 0.96262 0.0
C497 C 0.50065 0.57138 0.97424 0.0
N498 N 0.4985 0.53694 0.95433 0.0
H499 H 0.47105 0.48544 0.90838 0.0
H500 H 0.52377 0.59108 -0.00428 0.0
C501 C 0.60956 0.49903 0.92851 0.0
N502 N 0.5974 0.51483 0.96349 0.0
C503 C 0.62699 0.49552 0.00459 0.0
C504 C 0.63496 0.47443 0.9684 0.0
C505 C 0.62888 0.47849 0.93029 0.0
C506 C 0.60751 0.51545 0.00135 0.0
H507 H 0.60077 0.49891 0.89888 0.0
H508 H 0.59739 0.52767 0.02866 0.0
C509 C 0.53671 0.53773 0.06486 0.0
C510 C 0.43761 0.39855 0.07318 0.0
N511 N 0.43878 0.47254 0.03199 0.0
C512 C 0.43885 0.49496 0.07029 0.0
C513 C 0.4307 0.52498 0.07438 0.0
C514 C 0.42122 0.53049 0.03866 0.0
C515 C 0.41414 0.50267 0.00067 0.0
C516 C 0.42453 0.47399 -0.00241 0.0
C517 C 0.58287 0.57304 0.90027 0.0
O518 O 0.50347 0.45775 0.96798 0.0
O519 O 0.52221 0.46569 0.90962 0.0
O520 O 0.54148 0.53481 0.02683 0.0
O521 O 0.5159 0.50981 0.0754 0.0
O522 O 0.43289 0.3891 0.03379 0.0
O523 O 0.46105 0.43068 0.09203 0.0
O524 O 0.59287 0.58525 0.93884 0.0
O525 O 0.55771 0.54104 0.88674 0.0
H526 H 0.44996 0.49252 0.09702 0.0
H527 H 0.42474 0.45549 0.96761 0.0
H528 H 0.52654 0.34431 0.00299 0.0
H529 H 0.5992 0.44936 0.08684 0.0
H530 H 0.42573 0.50308 0.88738 0.0
H531 H 0.47961 0.61137 0.97546 0.0
H532 H 0.63102 0.4923 0.03424 0.0
H533 H 0.63423 0.46176 0.90176 0.0
H534 H 0.4352 0.54548 0.10441 0.0
H535 H 0.40469 0.50537 0.97316 0.0
Cd536 Cd 0.98013 0.48184 0.55227 0.0
Cd537 Cd 0.06482 0.5023 0.43896 0.0
C538 C 0.04086 0.47225 0.60324 0.0
N539 N 0.02303 0.46096 0.56535 0.0
C540 C 0.05071 0.41889 0.53826 0.0
C541 C 0.0694 0.42981 0.57693 0.0
C542 C 0.0643 0.45686 0.60977 0.0
C543 C 0.02738 0.43465 0.53324 0.0
H544 H 0.03657 0.49285 0.62845 0.0
H545 H 1.01225 0.42535 0.50375 0.0
C546 C 0.97842 0.44417 0.43716 0.0
C547 C 1.00609 0.51263 0.38712 0.0
C548 C 0.98153 0.526 0.37893 0.0
C549 C 0.97536 0.55328 0.41025 0.0
C550 C 0.99415 0.56635 0.44936 0.0
C551 C 0.01794 0.55162 0.45644 0.0
N552 N 0.02318 0.52495 0.42561 0.0
H553 H 1.01139 0.49216 0.36276 0.0
H554 H 0.03248 0.56173 0.48649 0.0
C555 C 0.08331 0.43557 0.3802 0.0
N556 N 0.09285 0.45904 0.41946 0.0
C557 C 0.13662 0.43559 0.42822 0.0
C558 C 0.12718 0.41087 0.38762 0.0
C559 C 0.10006 0.41147 0.36374 0.0
C560 C 0.11912 0.4595 0.44354 0.0
H561 H 0.06304 0.43609 0.36116 0.0
H562 H 0.12693 0.47875 0.47448 0.0
C563 C 0.0612 0.53927 0.54693 0.0
C564 C 0.93194 0.42747 0.58607 0.0
N565 N 0.95004 0.52358 0.56775 0.0
C566 C 0.96706 0.55752 0.59597 0.0
C567 C 0.94979 0.58161 0.60902 0.0
C568 C 0.91427 0.57123 0.59316 0.0
C569 C 0.89728 0.53588 0.564 0.0
C570 C 0.91565 0.51251 0.55176 0.0
C571 C 0.10897 0.55467 0.40038 0.0
O572 O 0.98301 0.45922 0.47621 0.0
O573 O 1.00516 0.45199 0.41531 0.0
O574 O 0.052 0.51557 0.51137 0.0
O575 O 0.03866 0.53559 0.57414 0.0
O576 O 0.93213 0.42214 0.54726 0.0
O577 O 0.9529 0.45914 0.60941 0.0
O578 O 0.11441 0.56172 0.43933 0.0
O579 O 0.08571 0.52286 0.38049 0.0
H580 H 0.99395 0.56574 0.60927 0.0
H581 H 0.90213 0.48522 0.52987 0.0
H582 H 0.05349 0.39772 0.51235 0.0
H583 H 0.07837 0.46607 0.64002 0.0
H584 H 0.96798 0.51557 0.34818 0.0
H585 H 0.99021 0.58744 0.4743 0.0
H586 H 0.1571 0.43631 0.44814 0.0
H587 H 0.09216 0.39393 0.33202 0.0
H588 H 0.96409 0.60792 0.63229 0.0
H589 H 0.87012 0.52634 0.55051 0.0
Cd590 Cd 0.48313 0.98605 0.55495 0.0
Cd591 Cd 0.55813 -0.00506 0.43386 0.0
C592 C 0.53557 0.96266 0.60025 0.0
N593 N 0.5196 0.95554 0.56243 0.0
C594 C 0.54175 0.90899 0.53259 0.0
C595 C 0.55789 0.9153 0.57134 0.0
C596 C 0.55465 0.94251 0.60549 0.0
C597 C 0.52227 0.92917 0.52892 0.0
H598 H 0.533 0.98359 0.62654 0.0
H599 H 0.50883 0.92327 0.49934 0.0
C600 C 0.47641 0.94658 0.44569 0.0
C601 C 0.50658 0.01743 0.38463 0.0
C602 C 0.48737 0.0375 0.37939 0.0
C603 C 0.48272 0.06367 0.41386 0.0
C604 C 0.49743 0.06861 0.45291 0.0
C605 C 0.51645 0.04816 0.45667 0.0
N606 N 0.52087 0.02326 0.42288 0.0
H607 H 0.51058 -0.00236 0.35812 0.0
H608 H 0.52824 0.05274 0.48668 0.0
C609 C 0.57407 0.92634 0.37309 0.0
N610 N 0.58255 0.9487 0.41291 0.0
C611 C 0.6236 0.92253 0.42297 0.0
C612 C 0.61544 0.89905 0.38175 0.0
C613 C 0.59017 0.90155 0.35693 0.0
C614 C 0.60691 0.94721 0.43788 0.0
H615 H 0.55536 0.92842 0.35335 0.0
H616 H 0.61393 0.96562 0.46928 0.0
C617 C 0.56534 0.03497 0.54445 0.0
C618 C 0.43517 0.93636 0.59339 0.0
N619 N 0.45391 0.02854 0.57025 0.0
C620 C 0.46424 0.05821 0.60515 0.0
C621 C 0.44361 0.07926 0.61717 0.0
C622 C 0.41161 0.06972 0.59343 0.0
C623 C 0.40229 0.03953 0.55693 0.0
C624 C 0.4237 0.01933 0.54602 0.0
C625 C 0.6104 0.04769 0.4017 0.0
O626 O 0.4899 0.96969 0.48068 0.0
O627 O 0.49625 0.94656 0.41564 0.0
O628 O 0.55231 0.01279 0.50879 0.0
O629 O 0.54509 0.03394 0.57417 0.0
O630 O 0.42984 0.93051 0.55473 0.0
O631 O 0.46115 0.96597 0.61375 0.0
O632 O 0.61304 0.0502 0.43982 0.0
O633 O 0.58463 0.01954 0.37859 0.0
H634 H 0.4878 0.06479 0.62465 0.0
H635 H 0.41539 -0.00465 0.51887 0.0
H636 H 0.54343 0.888 0.50562 0.0
H637 H 0.5669 0.94824 0.63583 0.0
H638 H 0.4762 0.03251 0.34874 0.0
H639 H 0.49503 0.08877 0.48029 0.0
H640 H 0.64257 0.92184 0.4437 0.0
H641 H 0.58335 0.88515 0.32473 0.0
H642 H 0.45189 0.10183 0.64583 0.0
H643 H 0.37825 0.0311 0.53715 0.0
H644 H 0.21473 0.19163 0.34827 0.0
H645 H 0.15862 0.12356 0.22801 0.0
H646 H 0.1162 0.07856 0.25954 0.0
H647 H 0.095 0.05988 0.32213 0.0
H648 H 0.15257 0.13023 0.44125 0.0
H649 H 0.19485 0.17338 0.40885 0.0
C650 C 0.19318 0.16709 0.32865 0.0
C651 C 0.18959 0.16109 0.28587 0.0
C652 C 0.16928 0.14186 0.34681 0.0
C653 C 0.1618 0.12883 0.26108 0.0
C654 C 0.13762 0.1032 0.2791 0.0
C655 C 0.11687 0.08464 0.34091 0.0
C656 C 0.12061 0.09201 0.38408 0.0
C657 C 0.14108 0.10959 0.32205 0.0
C658 C 0.149 0.12409 0.40806 0.0
C659 C 0.17319 0.14874 0.38958 0.0
H660 H 0.8326 0.092 0.35292 0.0
H661 H 0.93211 0.17193 0.32889 0.0
H662 H 0.96654 0.15595 0.37121 0.0
H663 H 0.96844 0.11552 0.40931 0.0
H664 H 0.87019 0.02979 0.42619 0.0
H665 H 0.83458 0.0527 0.39443 0.0
C666 C 0.86177 0.10609 0.3577 0.0
C667 C 0.88019 0.13305 0.3384 0.0
C668 C 0.88129 0.09617 0.38135 0.0
C669 C 0.91782 0.15125 0.34402 0.0
C670 C 0.93736 0.14216 0.36809 0.0
C671 C 0.93917 0.10269 0.40702 0.0
C672 C 0.92162 0.07197 0.42086 0.0
C673 C 0.91941 0.11431 0.3863 0.0
C674 C 0.88389 0.05423 0.41658 0.0
C675 C 0.86372 0.06699 0.39797 0.0
H676 H 0.87402 0.79594 0.32137 0.0
H677 H 0.83377 0.86904 0.29352 0.0
H678 H 0.87156 0.91963 0.35264 0.0
H679 H 0.92207 0.94456 0.40522 0.0
H680 H 0.96485 0.87238 0.42949 0.0
H681 H 0.91838 0.81901 0.38007 0.0
C682 C 0.87346 0.82291 0.32813 0.0
C683 C 0.85216 0.82916 0.30231 0.0
C684 C 0.89503 0.85162 0.362 0.0
C685 C 0.85096 0.86396 0.31215 0.0
C686 C 0.87215 0.89271 0.34618 0.0
C687 C 0.92018 0.91684 0.4006 0.0
C688 C 0.94634 0.91186 0.42051 0.0
C689 C 0.89503 0.88705 0.37045 0.0
C690 C 0.94434 0.87635 0.41481 0.0
C691 C 0.91834 0.84611 0.38595 0.0
H692 H 0.17176 0.82485 0.45158 0.0
H693 H 0.07327 0.74555 0.37927 0.0
H694 H 0.04596 0.78997 0.40188 0.0
H695 H 0.05951 0.85605 0.41744 0.0
H696 H 0.16513 0.93797 0.47307 0.0
H697 H 0.18255 0.88936 0.47698 0.0
C698 C 0.14383 0.81693 0.44175 0.0
C699 C 0.12617 0.78478 0.40865 0.0
C700 C 0.13147 0.84472 0.44837 0.0
C701 C 0.08863 0.77213 0.40166 0.0
C702 C 0.07352 0.79804 0.41313 0.0
C703 C 0.08634 0.86334 0.43049 0.0
C704 C 0.11122 0.90051 0.44429 0.0
C705 C 0.09632 0.83537 0.43204 0.0
C706 C 0.14551 0.90956 0.46217 0.0
C707 C 0.15543 0.88183 0.46467 0.0
H708 H 0.12913 0.79549 0.58749 0.0
H709 H 0.22608 0.89543 0.62989 0.0
H710 H 0.20365 0.9255 0.59221 0.0
H711 H 0.15147 0.92646 0.55983 0.0
H712 H 0.05158 0.82796 0.52816 0.0
H713 H 0.08067 0.79397 0.54761 0.0
C714 C 0.14601 0.82337 0.58714 0.0
C715 C 0.17886 0.84347 0.61165 0.0
C716 C 0.13204 0.84095 0.56786 0.0
C717 C 0.20043 0.87969 0.61141 0.0
C718 C 0.18747 0.89689 0.59024 0.0
C719 C 0.13596 0.89759 0.55726 0.0
C720 C 0.0991 0.88023 0.54312 0.0
C721 C 0.15233 0.87843 0.57064 0.0
C722 C 0.08001 0.84231 0.53835 0.0
C723 C 0.09655 0.82272 0.54988 0.0
H724 H 0.15803 0.18543 0.67332 0.0
H725 H 0.21496 0.11766 0.67466 0.0
H726 H 0.17613 0.06945 0.61501 0.0
H727 H 0.12045 0.04297 0.57076 0.0
H728 H 0.05991 0.10761 0.57293 0.0
H729 H 0.10653 0.16159 0.62204 0.0
C730 C 0.16196 0.16015 0.66035 0.0
C731 C 0.18834 0.1544 0.67894 0.0
C732 C 0.13927 0.1324 0.62651 0.0
C733 C 0.19386 0.12201 0.66161 0.0
C734 C 0.17202 0.09467 0.62728 0.0
C735 C 0.11842 0.06942 0.58077 0.0
C736 C 0.08753 0.07203 0.56865 0.0
C737 C 0.14393 0.09909 0.61051 0.0
C738 C 0.08415 0.10574 0.58185 0.0
C739 C 0.11037 0.13619 0.61032 0.0
H740 H 0.90327 0.15491 0.64607 0.0
H741 H 0.90608 0.17246 0.52685 0.0
H742 H 0.89433 0.1073 0.49321 0.0
H743 H 0.88524 0.04628 0.49945 0.0
H744 H 0.87576 0.03008 0.61929 0.0
H745 H 0.88422 0.09394 0.65146 0.0
C746 C 0.90221 0.14498 0.61266 0.0
C747 C 0.9068 0.16879 0.58889 0.0
C748 C 0.89182 0.10745 0.5939 0.0
C749 C 0.90409 0.15491 0.54566 0.0
C750 C 0.89629 0.11753 0.52655 0.0
C751 C 0.88263 0.05626 0.53216 0.0
C752 C 0.88079 0.03432 0.55725 0.0
C753 C 0.88951 0.0935 0.55045 0.0
C754 C 0.87713 0.04678 0.59959 0.0
C755 C 0.88346 0.08362 0.61809 0.0
H756 H 0.86683 0.78872 0.67091 0.0
H757 H 0.82666 0.86943 0.73604 0.0
H758 H 0.86799 0.91407 0.70342 0.0
H759 H 0.91286 0.92824 0.65311 0.0
H760 H 0.94736 0.84447 0.58208 0.0
H761 H 0.91112 0.8026 0.62028 0.0
C762 C 0.86767 0.81634 0.67822 0.0
C763 C 0.84455 0.82643 0.70596 0.0
C764 C 0.8902 0.84092 0.65811 0.0
C765 C 0.8448 0.86167 0.71494 0.0
C766 C 0.86821 0.88694 0.69623 0.0
C767 C 0.91254 0.90089 0.64637 0.0
C768 C 0.93254 0.88919 0.61511 0.0
C769 C 0.89065 0.87664 0.66732 0.0
C770 C 0.93182 0.8537 0.60598 0.0
C771 C 0.91125 0.8299 0.62781 0.0
H772 H 0.32344 0.17578 0.12398 0.0
H773 H 0.30317 0.13834 0.23183 0.0
H774 H 0.33456 0.09868 0.20554 0.0
H775 H 0.36976 0.07544 0.15377 0.0
H776 H 0.39192 0.11203 0.04562 0.0
H777 H 0.35774 0.15 0.06964 0.0
C778 C 0.32548 0.15859 0.14145 0.0
C779 C 0.31074 0.16057 0.1802 0.0
C780 C 0.34425 0.13548 0.12615 0.0
C781 C 0.31417 0.13801 0.20221 0.0
C782 C 0.33228 0.1151 0.18717 0.0
C783 C 0.36754 0.09189 0.13542 0.0
C784 C 0.3841 0.09077 0.09792 0.0
C785 C 0.34792 0.11394 0.14955 0.0
C786 C 0.37961 0.11184 0.07446 0.0
C787 C 0.36008 0.13386 0.08835 0.0
H788 H 0.82679 0.28192 0.13247 0.0
H789 H 0.8505 0.36383 0.25252 0.0
H790 H 0.88587 0.4124 0.22245 0.0
H791 H 0.90864 0.43195 0.16171 0.0
H792 H 0.88242 0.35087 0.04084 0.0
H793 H 0.84911 0.3018 0.07138 0.0
C794 C 0.84015 0.31034 0.152 0.0
C795 C 0.83632 0.31923 0.19461 0.0
C796 C 0.85949 0.33839 0.13426 0.0
C797 C 0.85317 0.35626 0.21959 0.0
C798 C 0.87327 0.38411 0.20241 0.0
C799 C 0.89544 0.40357 0.142 0.0
C800 C 0.89782 0.39508 0.09904 0.0
C801 C 0.87623 0.37556 0.15971 0.0
C802 C 0.88062 0.35818 0.07395 0.0
C803 C 0.86181 0.33007 0.09142 0.0
H804 H 0.62836 0.84127 0.15064 0.0
H805 H 0.69648 0.86338 0.05259 0.0
H806 H 0.6627 0.89465 0.03445 0.0
H807 H 0.61338 0.91557 0.04598 0.0
H808 H 0.5464 0.89535 0.14512 0.0
H809 H 0.57959 0.86305 0.16287 0.0
C810 C 0.63566 0.85269 0.12512 0.0
C811 C 0.66505 0.84994 0.1031 0.0
C812 C 0.6162 0.87094 0.11497 0.0
C813 C 0.67434 0.86541 0.07045 0.0
C814 C 0.65489 0.88317 0.05987 0.0
C815 C 0.60623 0.90413 0.07152 0.0
C816 C 0.57768 0.90787 0.09437 0.0
C817 C 0.62581 0.88614 0.0819 0.0
C818 C 0.56859 0.89309 0.12745 0.0
C819 C 0.58746 0.87453 0.13746 0.0
H820 H 0.214 0.65769 0.10941 0.0
H821 H 0.16133 0.66912 0.2227 0.0
H822 H 0.10914 0.61365 0.19041 0.0
H823 H 0.07615 0.56549 0.13027 0.0
H824 H 0.12299 0.55209 0.01373 0.0
H825 H 0.17968 0.60486 0.04667 0.0
C826 C 0.19101 0.64777 0.12669 0.0
C827 C 0.1914 0.66756 0.16826 0.0
C828 C 0.15992 0.616 0.10731 0.0
C829 C 0.16165 0.65456 0.19062 0.0
C830 C 0.13168 0.62277 0.17224 0.0
C831 C 0.09863 0.57388 0.11176 0.0
C832 C 0.09502 0.55606 0.06931 0.0
C833 C 0.13024 0.60387 0.13059 0.0
C834 C 0.12484 0.56662 0.04623 0.0
C835 C 0.15722 0.59652 0.06514 0.0
H836 H 0.35418 0.80776 0.80608 0.0
H837 H 0.28905 0.84252 0.89737 0.0
H838 H 0.34368 0.88729 0.94294 0.0
H839 H 0.4107 0.91881 0.9539 0.0
H840 H 0.4734 0.87808 0.8628 0.0
H841 H 0.41869 0.83104 0.82138 0.0
C842 C 0.3517 0.82323 0.83696 0.0
C843 C 0.31777 0.82069 0.84911 0.0
C844 C 0.38283 0.84783 0.86304 0.0
C845 C 0.31512 0.84374 0.88769 0.0
C846 C 0.34627 0.86922 0.91371 0.0
C847 C 0.41225 0.89908 0.92548 0.0
C848 C 0.44605 0.90239 0.91109 0.0
C849 C 0.38042 0.87183 0.90141 0.0
C850 C 0.44773 0.87664 0.87419 0.0
C851 C 0.41648 0.84971 0.85037 0.0
H852 H 0.197 0.3106 0.76697 0.0
H853 H 0.22991 0.30329 0.88156 0.0
H854 H 0.19854 0.34111 0.91972 0.0
H855 H 0.16104 0.37649 0.9203 0.0
H856 H 0.12713 0.3805 0.80397 0.0
H857 H 0.15901 0.34374 0.76719 0.0
C858 C 0.19739 0.31722 0.80035 0.0
C859 C 0.21602 0.30402 0.82124 0.0
C860 C 0.17874 0.33839 0.82194 0.0
C861 C 0.2157 0.31272 0.8645 0.0
C862 C 0.1978 0.33453 0.88637 0.0
C863 C 0.16068 0.36938 0.88693 0.0
C864 C 0.14116 0.38132 0.86518 0.0
C865 C 0.17912 0.34758 0.86544 0.0
C866 C 0.14111 0.37143 0.82179 0.0
C867 C 0.15965 0.35049 0.80056 0.0
H868 H 0.7404 0.1623 0.83557 0.0
H869 H 0.65069 0.14969 0.76084 0.0
H870 H 0.60886 0.10524 0.79309 0.0
H871 H 0.59824 0.0695 0.84194 0.0
H872 H 0.68713 0.086 0.92125 0.0
H873 H 0.72908 0.12961 0.88814 0.0
C874 C 0.7117 0.14947 0.82632 0.0
C875 C 0.69841 0.1582 0.79541 0.0
C876 C 0.68786 0.12487 0.84587 0.0
C877 C 0.66125 0.14259 0.78419 0.0
C878 C 0.63745 0.11737 0.80266 0.0
C879 C 0.62684 0.08262 0.85184 0.0
C880 C 0.63983 0.07431 0.88347 0.0
C881 C 0.6505 0.10816 0.83336 0.0
C882 C 0.6767 0.092 0.89681 0.0
C883 C 0.70062 0.11679 0.87783 0.0
H884 H 0.87853 0.62123 0.85489 0.0
H885 H 0.96401 0.72713 0.91666 0.0
H886 H 0.99884 0.69635 0.93359 0.0
H887 H 1.00561 0.63916 0.93012 0.0
H888 H 0.91984 0.53348 0.86895 0.0
H889 H 0.88443 0.56432 0.85331 0.0
C890 C 0.90456 0.63767 0.87251 0.0
C891 C 0.91851 0.67657 0.88421 0.0
C892 C 0.92449 0.61977 0.88238 0.0
C893 C 0.95268 0.6972 0.90652 0.0
C894 C 0.97259 0.67961 0.91652 0.0
C895 C 0.97904 0.62293 0.91366 0.0
C896 C 0.96548 0.58404 0.90053 0.0
C897 C 0.95887 0.64089 0.90446 0.0
C898 C 0.93113 0.56342 0.87891 0.0
C899 C 0.9108 0.58105 0.87007 0.0
H900 H 0.1431 0.31519 0.05783 0.0
H901 H 0.10887 0.31855 0.18008 0.0
H902 H 0.07537 0.35448 0.17391 0.0
H903 H 0.0545 0.38366 0.1332 0.0
H904 H 0.08785 0.3796 0.01025 0.0
H905 H 0.12198 0.34459 0.01682 0.0
C906 C 0.12843 0.32401 0.08312 0.0
C907 C 0.1285 0.31431 0.11941 0.0
C908 C 0.10863 0.34416 0.07903 0.0
C909 C 0.10907 0.32555 0.1518 0.0
C910 C 0.08993 0.3461 0.14828 0.0
C911 C 0.06956 0.37556 0.10797 0.0
C912 C 0.06848 0.38453 0.0713 0.0
C913 C 0.08934 0.35543 0.11197 0.0
C914 C 0.08767 0.37289 0.0387 0.0
C915 C 0.1075 0.35302 0.04252 0.0
H916 H 0.2 0.69689 0.85534 0.0
H917 H 0.20141 0.61641 0.7417 0.0
H918 H 0.16861 0.56627 0.77115 0.0
H919 H 0.13958 0.54557 0.82956 0.0
H920 H 0.14253 0.62677 0.94488 0.0
H921 H 0.17403 0.67642 0.91474 0.0
C922 C 0.1928 0.66832 0.83704 0.0
C923 C 0.20255 0.66014 0.79642 0.0
C924 C 0.17517 0.63987 0.85465 0.0
C925 C 0.19392 0.62318 0.77309 0.0
C926 C 0.17529 0.59459 0.78992 0.0
C927 C 0.14745 0.57417 0.84815 0.0
C928 C 0.13881 0.58253 0.88938 0.0
C929 C 0.16593 0.60263 0.83076 0.0
C930 C 0.14921 0.61966 0.91319 0.0
C931 C 0.16695 0.64806 0.89589 0.0
H932 H 0.41856 0.1643 0.87733 0.0
H933 H 0.31937 0.07333 0.88299 0.0
H934 H 0.3533 0.04042 0.89611 0.0
H935 H 0.4112 0.03676 0.90548 0.0
H936 H 0.51045 0.12876 0.90374 0.0
H937 H 0.4766 0.16207 0.89041 0.0
C938 C 0.40428 0.13747 0.88188 0.0
C939 C 0.36623 0.12128 0.87848 0.0
C940 C 0.42405 0.11876 0.89021 0.0
C941 C 0.34849 0.08626 0.88425 0.0
C942 C 0.36791 0.06742 0.89212 0.0
C943 C 0.42533 0.06408 0.90209 0.0
C944 C 0.46323 0.08022 0.90537 0.0
C945 C 0.40567 0.08323 0.89487 0.0
C946 C 0.48127 0.11585 0.90153 0.0
C947 C 0.46191 0.13484 0.89376 0.0
H948 H 0.81466 0.33377 0.88991 0.0
H949 H 0.86397 0.29128 0.78403 0.0
H950 H 0.9225 0.33962 0.8124 0.0
H951 H 0.95979 0.39386 0.86611 0.0
H952 H 0.9144 0.43782 0.97499 0.0
H953 H 0.85432 0.38874 0.94735 0.0
C954 C 0.83846 0.33507 0.87366 0.0
C955 C 0.83527 0.30882 0.83521 0.0
C956 C 0.87262 0.36303 0.89073 0.0
C957 C 0.86593 0.3107 0.81394 0.0
C958 C 0.89945 0.33854 0.83003 0.0
C959 C 0.93684 0.39279 0.88398 0.0
C960 C 0.94138 0.41909 0.92254 0.0
C961 C 0.90305 0.36479 0.86822 0.0
C962 C 0.91143 0.41734 0.94535 0.0
C963 C 0.87716 0.38949 0.92947 0.0
H964 H 0.75965 0.85713 0.83602 0.0
H965 H 0.66704 0.75267 0.80046 0.0
H966 H 0.6279 0.78299 0.83235 0.0
H967 H 0.61888 0.83964 0.86635 0.0
H968 H 0.71078 0.94498 0.89961 0.0
H969 H 0.75072 0.91419 0.87342 0.0
C970 C 0.73104 0.84103 0.83612 0.0
C971 C 0.71637 0.80254 0.81618 0.0
C972 C 0.70825 0.85895 0.85382 0.0
C973 C 0.67906 0.78223 0.81582 0.0
C974 C 0.65657 0.79961 0.83388 0.0
C975 C 0.64761 0.85601 0.86787 0.0
C976 C 0.66138 0.89485 0.88513 0.0
C977 C 0.67066 0.83808 0.8522 0.0
C978 C 0.69902 0.91513 0.88717 0.0
C979 C 0.72207 0.89748 0.87186 0.0
H980 H 0.87359 0.70596 0.2001 0.0
H981 H 0.77403 0.63622 0.12367 0.0
H982 H 0.79995 0.59228 0.08798 0.0
H983 H 0.85024 0.57179 0.08166 0.0
H984 H 0.95149 0.64579 0.15454 0.0
H985 H 0.92567 0.68931 0.18798 0.0
C986 C 0.85778 0.68144 0.17511 0.0
C987 C 0.82193 0.67455 0.16449 0.0
C988 C 0.87311 0.65659 0.1543 0.0
C989 C 0.80181 0.64254 0.13211 0.0
C990 C 0.81661 0.61722 0.11191 0.0
C991 C 0.86701 0.59759 0.10437 0.0
C992 C 0.90287 0.6043 0.11602 0.0
C993 C 0.85219 0.62365 0.1231 0.0
C994 C 0.92357 0.63843 0.14568 0.0
C995 C 0.90889 0.66386 0.16474 0.0
H996 H 0.3014 0.80585 0.1387 0.0
H997 H 0.39081 0.82793 0.2211 0.0
H998 H 0.43142 0.87286 0.1888 0.0
H999 H 0.44057 0.90818 0.13952 0.0
H1000 H 0.3519 0.88308 0.05418 0.0
H1001 H 0.31175 0.83685 0.08523 0.0
C1002 C 0.32981 0.82043 0.14942 0.0
C1003 C 0.34306 0.81413 0.18255 0.0
C1004 C 0.35296 0.84578 0.13042 0.0
C1005 C 0.38002 0.83249 0.19568 0.0
C1006 C 0.40318 0.85828 0.17738 0.0
C1007 C 0.4124 0.89262 0.12786 0.0
C1008 C 0.39886 0.89942 0.09526 0.0
C1009 C 0.38978 0.86559 0.14522 0.0
C1010 C 0.36269 0.87847 0.07956 0.0
C1011 C 0.3398 0.8521 0.09728 0.0
H1012 H 0.71478 0.14227 0.10784 0.0
H1013 H 0.6628 0.21339 0.16949 0.0
H1014 H 0.60601 0.16962 0.12947 0.0
H1015 H 0.5692 0.10713 0.08532 0.0
H1016 H 0.61982 0.0353 0.02247 0.0
H1017 H 0.6792 0.08341 0.05367 0.0
C1018 C 0.69117 0.14847 0.1115 0.0
C1019 C 0.69291 0.18101 0.1413 0.0
C1020 C 0.65834 0.12289 0.0885 0.0
C1021 C 0.66232 0.18895 0.14605 0.0
C1022 C 0.62966 0.16367 0.12357 0.0
C1023 C 0.59339 0.10242 0.07778 0.0
C1024 C 0.59045 0.06783 0.05222 0.0
C1025 C 0.62709 0.13002 0.09591 0.0
C1026 C 0.62175 0.06193 0.04208 0.0
C1027 C 0.65555 0.08926 0.06021 0.0
H1028 H 0.64751 0.64121 0.7564 0.0
H1029 H 0.7453 0.6761 0.83254 0.0
H1030 H 0.71083 0.64913 0.88318 0.0
H1031 H 0.65343 0.61557 0.90644 0.0
H1032 H 0.55537 0.57312 0.82831 0.0
H1033 H 0.5891 0.60298 0.778 0.0
C1034 C 0.66112 0.64261 0.78397 0.0
C1035 C 0.69891 0.66084 0.79074 0.0
C1036 C 0.64106 0.62595 0.81281 0.0
C1037 C 0.7163 0.6622 0.8264 0.0
C1038 C 0.6966 0.64694 0.85563 0.0
C1039 C 0.63942 0.61336 0.87868 0.0
C1040 C 0.6021 0.59309 0.87142 0.0
C1041 C 0.65906 0.62897 0.84931 0.0
C1042 C 0.58422 0.5892 0.83471 0.0
C1043 C 0.60348 0.60607 0.80591 0.0
H1044 H 0.40094 0.62842 0.81899 0.0
H1045 H 0.3095 0.60807 0.89128 0.0
H1046 H 0.33306 0.57722 0.92708 0.0
H1047 H 0.38233 0.55931 0.93938 0.0
H1048 H 0.47635 0.58777 0.87159 0.0
H1049 H 0.44927 0.61227 0.83177 0.0
C1050 C 0.38605 0.6167 0.84227 0.0
C1051 C 0.35352 0.61945 0.85228 0.0
C1052 C 0.40059 0.6012 0.86372 0.0
C1053 C 0.33448 0.6054 0.88302 0.0
C1054 C 0.34812 0.58826 0.90361 0.0
C1055 C 0.39687 0.57156 0.91647 0.0
C1056 C 0.43131 0.57273 0.90863 0.0
C1057 C 0.38156 0.58663 0.89467 0.0
C1058 C 0.44987 0.58728 0.87802 0.0
C1059 C 0.43445 0.60111 0.85534 0.0
H1060 H 0.35348 0.31833 0.85387 0.0
H1061 H 0.40057 0.32948 0.73996 0.0
H1062 H 0.45851 0.37446 0.77945 0.0
H1063 H 0.49367 0.41178 0.84655 0.0
H1064 H 0.44441 0.40021 0.95951 0.0
H1065 H 0.38903 0.35201 0.91958 0.0
C1066 C 0.37653 0.3305 0.8376 0.0
C1067 C 0.37322 0.32111 0.79437 0.0
C1068 C 0.40907 0.35533 0.86016 0.0
C1069 C 0.40275 0.33709 0.7734 0.0
C1070 C 0.43572 0.36224 0.79588 0.0
C1071 C 0.47103 0.3982 0.86241 0.0
C1072 C 0.47284 0.40966 0.9059 0.0
C1073 C 0.43899 0.3716 0.83929 0.0
C1074 C 0.4436 0.3917 0.92613 0.0
C1075 C 0.41186 0.36458 0.90335 0.0
H1076 H 0.59803 0.30836 0.92708 0.0
H1077 H 0.71329 0.34957 0.92289 0.0
H1078 H 0.7199 0.41198 0.95852 0.0
H1079 H 0.69145 0.45606 0.97136 0.0
H1080 H 0.57568 0.4143 0.9619 0.0
H1081 H 0.5704 0.35136 0.94852 0.0
C1082 C 0.62462 0.33088 0.9359 0.0
C1083 C 0.6547 0.32471 0.92109 0.0
C1084 C 0.62793 0.36713 0.95209 0.0
C1085 C 0.68936 0.35361 0.93348 0.0
C1086 C 0.69321 0.38965 0.953 0.0
C1087 C 0.66533 0.43315 0.96799 0.0
C1088 C 0.63398 0.43905 0.96803 0.0
C1089 C 0.66248 0.39697 0.95932 0.0
C1090 C 0.59999 0.40967 0.96245 0.0
C1091 C 0.59695 0.37391 0.95501 0.0
H1092 H 0.63264 0.30886 0.11566 0.0
H1093 H 0.72576 0.41242 0.13873 0.0
H1094 H 0.6958 0.43241 0.09553 0.0
H1095 H 0.63963 0.42398 0.0616 0.0
H1096 H 0.54364 0.32424 0.05102 0.0
H1097 H 0.57857 0.29845 0.07712 0.0
C1098 C 0.6467 0.33539 0.11022 0.0
C1099 C 0.68106 0.35932 0.13019 0.0
C1100 C 0.62858 0.34738 0.08782 0.0
C1101 C 0.6991 0.3938 0.12361 0.0
C1102 C 0.68194 0.40518 0.09917 0.0
C1103 C 0.62627 0.39667 0.06517 0.0
C1104 C 0.58882 0.37657 0.05522 0.0
C1105 C 0.64601 0.38289 0.08292 0.0
C1106 C 0.57236 0.34049 0.05821 0.0
C1107 C 0.59226 0.32576 0.0736 0.0
H1108 H 0.63429 0.64609 0.22737 0.0
H1109 H 0.71355 0.66283 0.13888 0.0
H1110 H 0.66671 0.62412 0.08188 0.0
H1111 H 0.60351 0.5863 0.05762 0.0
H1112 H 0.52494 0.56122 0.1456 0.0
H1113 H 0.57059 0.60451 0.20261 0.0
C1114 C 0.6411 0.64022 0.19559 0.0
C1115 C 0.67692 0.65612 0.18683 0.0
C1116 C 0.61409 0.61776 0.16311 0.0
C1117 C 0.68593 0.64972 0.14582 0.0
C1118 C 0.65921 0.62821 0.11338 0.0
C1119 C 0.59635 0.59007 0.08921 0.0
C1120 C 0.56124 0.57 0.09751 0.0
C1121 C 0.62319 0.61235 0.12168 0.0
C1122 C 0.55205 0.57626 0.13859 0.0
C1123 C 0.57817 0.60056 0.17115 0.0
H1124 H 0.45468 0.69681 0.08321 0.0
H1125 H 0.3447 0.64973 0.03306 0.0
H1126 H 0.34778 0.59087 -0.00058 0.0
H1127 H 0.37364 0.54879 0.00774 0.0
H1128 H 0.47942 0.59449 0.07135 0.0
H1129 H 0.48582 0.657 0.07879 0.0
C1130 C 0.4322 0.6741 0.06273 0.0
C1131 C 0.39833 0.67543 0.06482 0.0
C1132 C 0.43284 0.63915 0.04875 0.0
C1133 C 0.37042 0.64808 0.03505 0.0
C1134 C 0.37176 0.6139 0.01665 0.0
C1135 C 0.39829 0.57252 0.02232 0.0
C1136 C 0.42548 0.56752 0.04002 0.0
C1137 C 0.40138 0.60828 0.02742 0.0
C1138 C 0.45756 0.59814 0.05888 0.0
C1139 C 0.46156 0.63375 0.06241 0.0
H1140 H 0.34588 0.27401 0.15173 0.0
H1141 H 0.35731 0.36938 0.25445 0.0
H1142 H 0.39573 0.4104 0.21626 0.0
H1143 H 0.42254 0.41855 0.15213 0.0
H1144 H 0.407 0.32317 0.0471 0.0
H1145 H 0.37345 0.28225 0.0876 0.0
C1146 C 0.3575 0.30381 0.16577 0.0
C1147 C 0.34977 0.3191 0.2057 0.0
C1148 C 0.37821 0.32689 0.14308 0.0
C1149 C 0.3638 0.35747 0.22384 0.0
C1150 C 0.38539 0.38073 0.20195 0.0
C1151 C 0.41189 0.38878 0.13819 0.0
C1152 C 0.41694 0.3737 0.09679 0.0
C1153 C 0.39221 0.36569 0.16131 0.0
C1154 C 0.40293 0.33521 0.07884 0.0
C1155 C 0.38401 0.31192 0.102 0.0
H1156 H 0.86603 0.70349 0.6704 0.0
H1157 H 0.7617 0.6135 0.65661 0.0
H1158 H 0.78782 0.56894 0.62458 0.0
H1159 H 0.84165 0.55545 0.60425 0.0
H1160 H 0.94474 0.6469 0.61335 0.0
H1161 H 0.91786 0.6904 0.6429 0.0
C1162 C 0.84892 0.67412 0.6599 0.0
C1163 C 0.81192 0.66192 0.66604 0.0
C1164 C 0.86407 0.64869 0.64086 0.0
C1165 C 0.79015 0.62374 0.65199 0.0
C1166 C 0.8052 0.5982 0.63387 0.0
C1167 C 0.85827 0.58485 0.61212 0.0
C1168 C 0.89578 0.5974 0.6074 0.0
C1169 C 0.84233 0.61028 0.62859 0.0
C1170 C 0.9163 0.6359 0.61785 0.0
C1171 C 0.90083 0.66107 0.63455 0.0
H1172 H 0.37656 0.81937 0.68961 0.0
H1173 H 0.27785 0.83018 0.67041 0.0
H1174 H 0.30841 0.87343 0.63184 0.0
H1175 H 0.36371 0.90907 0.60401 0.0
H1176 H 0.46299 0.90148 0.62766 0.0
H1177 H 0.43176 0.85575 0.6634 0.0
C1178 C 0.3617 0.83105 0.67684 0.0
C1179 C 0.32499 0.82146 0.68282 0.0
C1180 C 0.37955 0.85639 0.65526 0.0
C1181 C 0.30621 0.83722 0.66645 0.0
C1182 C 0.32361 0.86187 0.64423 0.0
C1183 C 0.37822 0.8971 0.61687 0.0
C1184 C 0.4153 0.90813 0.61328 0.0
C1185 C 0.36029 0.87173 0.63848 0.0
C1186 C 0.43429 0.89312 0.63032 0.0
C1187 C 0.4165 0.86708 0.6507 0.0
H1188 H 0.17903 0.35632 0.57142 0.0
H1189 H 0.12742 0.3335 0.67949 0.0
H1190 H 0.08908 0.36455 0.67304 0.0
H1191 H 0.0706 0.39906 0.63705 0.0
H1192 H 0.12209 0.42113 0.52874 0.0
H1193 H 0.16052 0.39023 0.53541 0.0
C1194 C 0.15961 0.35836 0.5938 0.0
C1195 C 0.15633 0.34265 0.62599 0.0
C1196 C 0.13777 0.37644 0.59005 0.0
C1197 C 0.13038 0.34495 0.65414 0.0
C1198 C 0.1086 0.36299 0.65068 0.0
C1199 C 0.0905 0.39735 0.61521 0.0
C1200 C 0.09366 0.41248 0.58258 0.0
C1201 C 0.11218 0.37903 0.61889 0.0
C1202 C 0.11911 0.40958 0.55404 0.0
C1203 C 0.14108 0.39193 0.55784 0.0
H1204 H 0.69855 0.18469 0.59225 0.0
H1205 H 0.73042 0.12866 0.66115 0.0
H1206 H 0.68045 0.07033 0.62584 0.0
H1207 H 0.62119 0.03939 0.58667 0.0
H1208 H 0.58956 0.09423 0.51597 0.0
H1209 H 0.64659 0.1489 0.53942 0.0
C1210 C 0.69546 0.15921 0.59771 0.0
C1211 C 0.71762 0.16038 0.62883 0.0
C1212 C 0.66649 0.12596 0.57759 0.0
C1213 C 0.71361 0.12778 0.63663 0.0
C1214 C 0.68482 0.09464 0.61696 0.0
C1215 C 0.62743 0.06308 0.57572 0.0
C1216 C 0.60158 0.06378 0.55076 0.0
C1217 C 0.66004 0.09399 0.58917 0.0
C1218 C 0.60937 0.09385 0.53585 0.0
C1219 C 0.64181 0.12496 0.54925 0.0
H1220 H 0.84123 0.3432 0.31418 0.0
H1221 H 0.81269 0.28565 0.40511 0.0
H1222 H 0.86528 0.33473 0.45184 0.0
H1223 H 0.92368 0.39057 0.46198 0.0
H1224 H 0.95314 0.44071 0.36406 0.0
H1225 H 0.89615 0.39812 0.32466 0.0
C1226 C 0.84617 0.34191 0.34465 0.0
C1227 C 0.82346 0.31152 0.35664 0.0
C1228 C 0.877 0.36869 0.36966 0.0
C1229 C 0.82993 0.30937 0.39576 0.0
C1230 C 0.8601 0.33715 0.42209 0.0
C1231 C 0.91717 0.39231 0.43233 0.0
C1232 C 0.94249 0.41884 0.41597 0.0
C1233 C 0.88453 0.36642 0.40874 0.0
C1234 C 0.93417 0.42061 0.37727 0.0
C1235 C 0.90153 0.39627 0.35468 0.0
H1236 H 0.66575 0.77385 0.27922 0.0
H1237 H 0.76352 0.84406 0.3587 0.0
H1238 H 0.73581 0.88633 0.39469 0.0
H1239 H 0.68424 0.90502 0.40059 0.0
H1240 H 0.58523 0.8307 0.32352 0.0
H1241 H 0.61288 0.78892 0.28992 0.0
C1242 C 0.68075 0.79811 0.30492 0.0
C1243 C 0.71652 0.80562 0.31648 0.0
C1244 C 0.66448 0.82197 0.32568 0.0
C1245 C 0.73575 0.83729 0.34964 0.0
C1246 C 0.71994 0.86163 0.36999 0.0
C1247 C 0.6684 0.87949 0.3769 0.0
C1248 C 0.6326 0.87206 0.36421 0.0
C1249 C 0.68433 0.85452 0.35796 0.0
C1250 C 0.61305 0.83844 0.33327 0.0
C1251 C 0.62877 0.81406 0.31411 0.0
H1252 H 0.16212 0.65365 0.28217 0.0
H1253 H 0.25105 0.71569 0.37602 0.0
H1254 H 0.22148 0.67413 0.41739 0.0
H1255 H 0.17176 0.61736 0.42426 0.0
H1256 H 0.08386 0.55516 0.3284 0.0
H1257 H 0.1111 0.59971 0.29076 0.0
C1258 C 0.17454 0.65845 0.31206 0.0
C1259 C 0.20829 0.68769 0.32649 0.0
C1260 C 0.15766 0.63418 0.33511 0.0
C1261 C 0.22463 0.69353 0.36491 0.0
C1262 C 0.2079 0.66963 0.3883 0.0
C1263 C 0.15864 0.61371 0.3952 0.0
C1264 C 0.12624 0.58265 0.37881 0.0
C1265 C 0.17467 0.63939 0.37333 0.0
C1266 C 0.1093 0.57837 0.34125 0.0
C1267 C 0.1247 0.60395 0.31976 0.0
H1268 H 0.39029 0.15663 0.42312 0.0
H1269 H 0.4416 0.1715 0.31234 0.0
H1270 H 0.47349 0.134 0.31786 0.0
H1271 H 0.48659 0.09654 0.35402 0.0
H1272 H 0.43463 0.08144 0.46449 0.0
H1273 H 0.40342 0.11943 0.45925 0.0
C1274 C 0.40829 0.15148 0.40003 0.0
C1275 C 0.41345 0.16684 0.36731 0.0
C1276 C 0.4265 0.12982 0.40335 0.0
C1277 C 0.43737 0.16036 0.33808 0.0
C1278 C 0.45547 0.13871 0.34107 0.0
C1279 C 0.46812 0.10121 0.37667 0.0
C1280 C 0.46296 0.08599 0.40953 0.0
C1281 C 0.45015 0.12317 0.3735 0.0
C1282 C 0.43943 0.09301 0.43907 0.0
C1283 C 0.4214 0.11464 0.43602 0.0
H1284 H 0.65634 0.82965 0.56979 0.0
H1285 H 0.58452 0.79178 0.6591 0.0
H1286 H 0.55259 0.82891 0.65272 0.0
H1287 H 0.54505 0.87267 0.62207 0.0
H1288 H 0.61477 0.90836 0.53043 0.0
H1289 H 0.64772 0.87213 0.53767 0.0
C1290 C 0.63385 0.82972 0.58804 0.0
C1291 C 0.62296 0.80791 0.61496 0.0
C1292 C 0.61529 0.85094 0.58391 0.0
C1293 C 0.59335 0.80797 0.63788 0.0
C1294 C 0.57515 0.82937 0.63442 0.0
C1295 C 0.56759 0.87256 0.6039 0.0
C1296 C 0.57774 0.89333 0.57603 0.0
C1297 C 0.58588 0.85102 0.60761 0.0
C1298 C 0.60656 0.89257 0.5521 0.0
C1299 C 0.62538 0.87188 0.55627 0.0
H1300 H 0.72728 0.18481 0.35771 0.0
H1301 H 0.6515 0.14131 0.25078 0.0
H1302 H 0.61253 0.09033 0.27627 0.0
H1303 H 0.60051 0.05817 0.32888 0.0
H1304 H 0.67416 0.10447 0.43852 0.0
H1305 H 0.71344 0.1546 0.41231 0.0
C1306 C 0.70206 0.16424 0.3403 0.0
C1307 C 0.69203 0.16657 0.30263 0.0
C1308 C 0.67959 0.1356 0.35556 0.0
C1309 C 0.65935 0.14011 0.28017 0.0
C1310 C 0.63727 0.11091 0.29458 0.0
C1311 C 0.62531 0.07907 0.3469 0.0
C1312 C 0.63476 0.0773 0.38529 0.0
C1313 C 0.64723 0.10831 0.33216 0.0
C1314 C 0.66654 0.10501 0.40867 0.0
C1315 C 0.68894 0.13372 0.39377 0.0
H1316 H 0.852 0.59071 0.35547 0.0
H1317 H 0.93146 0.70207 0.40999 0.0
H1318 H 0.97257 0.67818 0.42821 0.0
H1319 H 0.98631 0.62548 0.42815 0.0
H1320 H 0.90699 0.5143 0.37297 0.0
H1321 H 0.86531 0.53824 0.35621 0.0
C1322 C 0.87816 0.60981 0.37171 0.0
C1323 C 0.88849 0.64819 0.3813 0.0
C1324 C 0.90171 0.59587 0.38212 0.0
C1325 C 0.92285 0.67242 0.40172 0.0
C1326 C 0.94634 0.65878 0.41242 0.0
C1327 C 0.95976 0.60656 0.41278 0.0
C1328 C 0.94974 0.56818 0.40175 0.0
C1329 C 0.93609 0.62055 0.40273 0.0
C1330 C 0.91544 0.54395 0.38142 0.0
C1331 C 0.89158 0.55763 0.3719 0.0
H1332 H 0.31905 0.84783 0.37921 0.0
H1333 H 0.36083 0.76423 0.35583 0.0
H1334 H 0.41506 0.80828 0.40121 0.0
H1335 H 0.45636 0.87386 0.43017 0.0
H1336 H 0.41587 0.95784 0.44917 0.0
H1337 H 0.35515 0.91056 0.42309 0.0
C1338 C 0.33963 0.83908 0.38509 0.0
C1339 C 0.33712 0.80373 0.363 0.0
C1340 C 0.37118 0.86485 0.40965 0.0
C1341 C 0.36287 0.79183 0.37185 0.0
C1342 C 0.39399 0.81705 0.39745 0.0
C1343 C 0.43382 0.8814 0.42967 0.0
C1344 C 0.43988 0.91865 0.44057 0.0
C1345 C 0.39948 0.85421 0.41375 0.0
C1346 C 0.41113 0.92895 0.44068 0.0
C1347 C 0.37666 0.90203 0.42559 0.0
H1348 H 0.17498 0.28364 0.28693 0.0
H1349 H 0.27806 0.36041 0.3532 0.0
H1350 H 0.25121 0.40328 0.3894 0.0
H1351 H 0.19826 0.42013 0.40002 0.0
H1352 H 0.09521 0.34023 0.33516 0.0
H1353 H 0.12232 0.2981 0.30083 0.0
C1354 C 0.19177 0.30974 0.30928 0.0
C1355 C 0.22876 0.31873 0.31679 0.0
C1356 C 0.17607 0.33408 0.33023 0.0
C1357 C 0.24961 0.35258 0.34651 0.0
C1358 C 0.2342 0.37721 0.36723 0.0
C1359 C 0.18158 0.39337 0.37876 0.0
C1360 C 0.14456 0.3842 0.36978 0.0
C1361 C 0.1974 0.36844 0.35912 0.0
C1362 C 0.1238 0.34906 0.34201 0.0
C1363 C 0.13928 0.32457 0.32243 0.0
H1364 H 0.28834 0.12719 0.65366 0.0
H1365 H 0.38083 0.23115 0.69638 0.0
H1366 H 0.4208 0.20089 0.66667 0.0
H1367 H 0.43001 0.14424 0.63143 0.0
H1368 H 0.33743 0.04002 0.58816 0.0
H1369 H 0.29741 0.07078 0.6142 0.0
C1370 C 0.31722 0.14322 0.65579 0.0
C1371 C 0.33162 0.18151 0.67693 0.0
C1372 C 0.34019 0.12545 0.6386 0.0
C1373 C 0.36909 0.20181 0.67989 0.0
C1374 C 0.39198 0.18441 0.66308 0.0
C1375 C 0.4011 0.12814 0.62768 0.0
C1376 C 0.38715 0.08956 0.60778 0.0
C1377 C 0.37796 0.14613 0.64289 0.0
C1378 C 0.34934 0.06965 0.60283 0.0
C1379 C 0.32625 0.08726 0.61804 0.0
H1380 H 0.83026 0.28313 0.62889 0.0
H1381 H 0.8403 0.36266 0.74769 0.0
H1382 H 0.88201 0.4127 0.72235 0.0
H1383 H 0.91301 0.43382 0.66491 0.0
H1384 H 0.90121 0.35384 0.54546 0.0
H1385 H 0.86316 0.3039 0.57242 0.0
C1386 C 0.84144 0.31154 0.64888 0.0
C1387 C 0.8317 0.3198 0.68942 0.0
C1388 C 0.86502 0.33994 0.63397 0.0
C1389 C 0.84696 0.35623 0.71591 0.0
C1390 C 0.87083 0.38466 0.7015 0.0
C1391 C 0.90202 0.40546 0.64482 0.0
C1392 C 0.90931 0.39759 0.60307 0.0
C1393 C 0.87958 0.37691 0.66034 0.0
C1394 C 0.89532 0.36068 0.57749 0.0
C1395 C 0.87367 0.33209 0.59289 0.0
H1396 H 0.18136 0.69427 0.62967 0.0
H1397 H 0.24008 0.62827 0.63059 0.0
H1398 H 0.19232 0.57419 0.58356 0.0
H1399 H 0.12859 0.54346 0.55414 0.0
H1400 H 0.068 0.60914 0.56215 0.0
H1401 H 0.12157 0.66564 0.59365 0.0
C1402 C 0.18409 0.66827 0.61912 0.0
C1403 C 0.21379 0.66518 0.63457 0.0
C1404 C 0.15579 0.63707 0.59401 0.0
C1405 C 0.21734 0.63143 0.61957 0.0
C1406 C 0.18985 0.60038 0.59294 0.0
C1407 C 0.1277 0.57036 0.56166 0.0
C1408 C 0.09485 0.57261 0.55589 0.0
C1409 C 0.15815 0.60248 0.58172 0.0
C1410 C 0.0933 0.60718 0.56627 0.0
C1411 C 0.12379 0.63932 0.58443 0.0
loop_
_geom_bond_atom_site_label_1
_geom_bond_atom_site_label_2
_geom_bond_distance
_geom_bond_site_symmetry_2
_ccdc_geom_bond_type
Eu0 C9 2.828 . S
Eu0 O11 2.392 . S
Eu0 O13 2.418 . S
Eu0 O18 2.373 . S
Eu0 O21 2.488 . S
Eu0 O22 2.471 . S
Eu0 O23 2.349 . S
Eu1 O10 2.373 . S
Eu1 O14 2.488 . S
Eu1 O15 2.471 . S
Eu1 O16 2.349 . S
Eu1 O19 2.392 . S
Eu1 O20 2.418 . S
Eu1 C30 2.828 . S
C2 O20 1.244 . S
C2 O23 1.265 . S
C3 C4 1.379 . S
C3 C7 1.373 . S
C3 C9 1.505 . S
C4 C3 1.379 . S
C4 C6 1.369 . S
C4 H32 0.930 . S
C5 C7 1.383 . S
C5 C8 1.382 . S
C5 H33 0.930 . S
C6 C4 1.369 . S
C6 C8 1.392 . S
C6 H34 0.930 . S
C7 C3 1.373 . S
C7 C5 1.383 . S
C7 H35 0.931 . S
C8 C5 1.382 . S
C8 C6 1.392 . S
C9 Eu0 2.828 . S
C9 C3 1.505 . S
C9 O21 1.249 . S
C9 O22 1.244 . S
O10 Eu1 2.373 . S
O10 C12 1.258 . S
O11 Eu0 2.392 . S
O11 C12 1.242 . S
C12 O10 1.258 . S
C12 O11 1.242 . S
O13 Eu0 2.418 . S
O13 C17 1.244 . S
O14 Eu1 2.488 . S
O14 C30 1.249 . S
O15 Eu1 2.471 . S
O15 C30 1.244 . S
O16 Eu1 2.349 . S
O16 C17 1.265 . S
C17 O13 1.244 . S
C17 O16 1.265 . S
O18 Eu0 2.373 . S
O18 C31 1.258 . S
O19 Eu1 2.392 . S
O19 C31 1.242 . S
O20 Eu1 2.418 . S
O20 C2 1.244 . S
O21 Eu0 2.488 . S
O21 C9 1.249 . S
O22 Eu0 2.471 . S
O22 C9 1.244 . S
O23 Eu0 2.349 . S
O23 C2 1.265 . S
C24 C25 1.379 . S
C24 C28 1.373 . S
C24 C30 1.505 . S
C25 C24 1.379 . S
C25 C27 1.369 . S
C25 H36 0.930 . S
C26 C28 1.383 . S
C26 C29 1.382 . S
C26 H37 0.930 . S
C27 C25 1.369 . S
C27 C29 1.392 . S
C27 H38 0.930 . S
C28 C24 1.373 . S
C28 C26 1.383 . S
C28 H39 0.931 . S
C29 C26 1.382 . S
C29 C27 1.392 . S
C30 Eu1 2.828 . S
C30 O14 1.249 . S
C30 O15 1.244 . S
C30 C24 1.505 . S
C31 O18 1.258 . S
C31 O19 1.242 . S
H32 C4 0.930 . S
H33 C5 0.930 . S
H34 C6 0.930 . S
H35 C7 0.931 . S
H36 C25 0.930 . S
H37 C26 0.930 . S
H38 C27 0.930 . S
H39 C28 0.931 . S
Eu40 C49 2.828 . S
Eu40 O51 2.392 . S
Eu40 O53 2.418 . S
Eu40 O58 2.373 . S
Eu40 O61 2.488 . S
Eu40 O62 2.471 . S
Eu40 O63 2.349 . S
Eu41 O50 2.373 . S
Eu41 O54 2.488 . S
Eu41 O55 2.471 . S
Eu41 O56 2.349 . S
Eu41 O59 2.392 . S
Eu41 O60 2.418 . S
Eu41 C70 2.828 . S
C42 O60 1.244 . S
C42 O63 1.265 . S
C43 C44 1.379 . S
C43 C47 1.373 . S
C43 C49 1.505 . S
C44 C43 1.379 . S
C44 C46 1.369 . S
C44 H72 0.930 . S
C45 C47 1.383 . S
C45 C48 1.382 . S
C45 H73 0.930 . S
C46 C44 1.369 . S
C46 C48 1.392 . S
C46 H74 0.930 . S
C47 C43 1.373 . S
C47 C45 1.383 . S
C47 H75 0.931 . S
C48 C45 1.382 . S
C48 C46 1.392 . S
C49 Eu40 2.828 . S
C49 C43 1.505 . S
C49 O61 1.249 . S
C49 O62 1.244 . S
O50 Eu41 2.373 . S
O50 C52 1.258 . S
O51 Eu40 2.392 . S
O51 C52 1.242 . S
C52 O50 1.258 . S
C52 O51 1.242 . S
O53 Eu40 2.418 . S
O53 C57 1.244 . S
O54 Eu41 2.488 . S
O54 C70 1.249 . S
O55 Eu41 2.471 . S
O55 C70 1.244 . S
O56 Eu41 2.349 . S
O56 C57 1.265 . S
C57 O53 1.244 . S
C57 O56 1.265 . S
O58 Eu40 2.373 . S
O58 C71 1.258 . S
O59 Eu41 2.392 . S
O59 C71 1.242 . S
O60 Eu41 2.418 . S
O60 C42 1.244 . S
O61 Eu40 2.488 . S
O61 C49 1.249 . S
O62 Eu40 2.471 . S
O62 C49 1.244 . S
O63 Eu40 2.349 . S
O63 C42 1.265 . S
C64 C65 1.379 . S
C64 C68 1.373 . S
C64 C70 1.505 . S
C65 C64 1.379 . S
C65 C67 1.369 . S
C65 H76 0.930 . S
C66 C68 1.383 . S
C66 C69 1.382 . S
C66 H77 0.930 . S
C67 C65 1.369 . S
C67 C69 1.392 . S
C67 H78 0.930 . S
C68 C64 1.373 . S
C68 C66 1.383 . S
C68 H79 0.931 . S
C69 C66 1.382 . S
C69 C67 1.392 . S
C70 Eu41 2.828 . S
C70 O54 1.249 . S
C70 O55 1.244 . S
C70 C64 1.505 . S
C71 O58 1.258 . S
C71 O59 1.242 . S
H72 C44 0.930 . S
H73 C45 0.930 . S
H74 C46 0.930 . S
H75 C47 0.931 . S
H76 C65 0.930 . S
H77 C66 0.930 . S
H78 C67 0.930 . S
H79 C68 0.931 . S
Eu80 C89 2.828 . S
Eu80 O91 2.392 . S
Eu80 O93 2.418 . S
Eu80 O98 2.373 . S
Eu80 O101 2.488 . S
Eu80 O102 2.471 . S
Eu80 O103 2.349 . S
Eu81 O90 2.373 . S
Eu81 O94 2.488 . S
Eu81 O95 2.471 . S
Eu81 O96 2.349 . S
Eu81 O99 2.392 . S
Eu81 O100 2.418 . S
Eu81 C110 2.828 . S
C82 O100 1.244 . S
C82 O103 1.265 . S
C83 C84 1.379 . S
C83 C87 1.373 . S
C83 C89 1.505 . S
C84 C83 1.379 . S
C84 C86 1.369 . S
C84 H112 0.930 . S
C85 C87 1.383 . S
C85 C88 1.382 . S
C85 H113 0.930 . S
C86 C84 1.369 . S
C86 C88 1.392 . S
C86 H114 0.930 . S
C87 C83 1.373 . S
C87 C85 1.383 . S
C87 H115 0.931 . S
C88 C85 1.382 . S
C88 C86 1.392 . S
C89 Eu80 2.828 . S
C89 C83 1.505 . S
C89 O101 1.249 . S
C89 O102 1.244 . S
O90 Eu81 2.373 . S
O90 C92 1.258 . S
O91 Eu80 2.392 . S
O91 C92 1.242 . S
C92 O90 1.258 . S
C92 O91 1.242 . S
O93 Eu80 2.418 . S
O93 C97 1.244 . S
O94 Eu81 2.488 . S
O94 C110 1.249 . S
O95 Eu81 2.471 . S
O95 C110 1.244 . S
O96 Eu81 2.349 . S
O96 C97 1.265 . S
C97 O93 1.244 . S
C97 O96 1.265 . S
O98 Eu80 2.373 . S
O98 C111 1.258 . S
O99 Eu81 2.392 . S
O99 C111 1.242 . S
O100 Eu81 2.418 . S
O100 C82 1.244 . S
O101 Eu80 2.488 . S
O101 C89 1.249 . S
O102 Eu80 2.471 . S
O102 C89 1.244 . S
O103 Eu80 2.349 . S
O103 C82 1.265 . S
C104 C105 1.379 . S
C104 C108 1.373 . S
C104 C110 1.505 . S
C105 C104 1.379 . S
C105 C107 1.369 . S
C105 H116 0.930 . S
C106 C108 1.383 . S
C106 C109 1.382 . S
C106 H117 0.930 . S
C107 C105 1.369 . S
C107 C109 1.392 . S
C107 H118 0.930 . S
C108 C104 1.373 . S
C108 C106 1.383 . S
C108 H119 0.931 . S
C109 C106 1.382 . S
C109 C107 1.392 . S
C110 Eu81 2.828 . S
C110 O94 1.249 . S
C110 O95 1.244 . S
C110 C104 1.505 . S
C111 O98 1.258 . S
C111 O99 1.242 . S
H112 C84 0.930 . S
H113 C85 0.930 . S
H114 C86 0.930 . S
H115 C87 0.931 . S
H116 C105 0.930 . S
H117 C106 0.930 . S
H118 C107 0.930 . S
H119 C108 0.931 . S
Eu120 C129 2.828 . S
Eu120 O131 2.392 . S
Eu120 O133 2.418 . S
Eu120 O138 2.373 . S
Eu120 O141 2.488 . S
Eu120 O142 2.471 . S
Eu120 O143 2.349 . S
Eu121 O130 2.373 . S
Eu121 O134 2.488 . S
Eu121 O135 2.471 . S
Eu121 O136 2.349 . S
Eu121 O139 2.392 . S
Eu121 O140 2.418 . S
Eu121 C150 2.828 . S
C122 O140 1.244 . S
C122 O143 1.265 . S
C123 C124 1.379 . S
C123 C127 1.373 . S
C123 C129 1.505 . S
C124 C123 1.379 . S
C124 C126 1.369 . S
C124 H152 0.930 . S
C125 C127 1.383 . S
C125 C128 1.382 . S
C125 H153 0.930 . S
C126 C124 1.369 . S
C126 C128 1.392 . S
C126 H154 0.930 . S
C127 C123 1.373 . S
C127 C125 1.383 . S
C127 H155 0.931 . S
C128 C125 1.382 . S
C128 C126 1.392 . S
C129 Eu120 2.828 . S
C129 C123 1.505 . S
C129 O141 1.249 . S
C129 O142 1.244 . S
O130 Eu121 2.373 . S
O130 C132 1.258 . S
O131 Eu120 2.392 . S
O131 C132 1.242 . S
C132 O130 1.258 . S
C132 O131 1.242 . S
O133 Eu120 2.418 . S
O133 C137 1.244 . S
O134 Eu121 2.488 . S
O134 C150 1.249 . S
O135 Eu121 2.471 . S
O135 C150 1.244 . S
O136 Eu121 2.349 . S
O136 C137 1.265 . S
C137 O133 1.244 . S
C137 O136 1.265 . S
O138 Eu120 2.373 . S
O138 C151 1.258 . S
O139 Eu121 2.392 . S
O139 C151 1.242 . S
O140 Eu121 2.418 . S
O140 C122 1.244 . S
O141 Eu120 2.488 . S
O141 C129 1.249 . S
O142 Eu120 2.471 . S
O142 C129 1.244 . S
O143 Eu120 2.349 . S
O143 C122 1.265 . S
C144 C145 1.379 . S
C144 C148 1.373 . S
C144 C150 1.505 . S
C145 C144 1.379 . S
C145 C147 1.369 . S
C145 H156 0.930 . S
C146 C148 1.383 . S
C146 C149 1.382 . S
C146 H157 0.930 . S
C147 C145 1.369 . S
C147 C149 1.392 . S
C147 H158 0.930 . S
C148 C144 1.373 . S
C148 C146 1.383 . S
C148 H159 0.931 . S
C149 C146 1.382 . S
C149 C147 1.392 . S
C150 Eu121 2.828 . S
C150 O134 1.249 . S
C150 O135 1.244 . S
C150 C144 1.505 . S
C151 O138 1.258 . S
C151 O139 1.242 . S
H152 C124 0.930 . S
H153 C125 0.930 . S
H154 C126 0.930 . S
H155 C127 0.931 . S
H156 C145 0.930 . S
H157 C146 0.930 . S
H158 C147 0.930 . S
H159 C148 0.931 . S
Eu160 C169 2.828 . S
Eu160 O171 2.392 . S
Eu160 O173 2.418 . S
Eu160 O178 2.373 . S
Eu160 O181 2.488 . S
Eu160 O182 2.471 . S
Eu160 O183 2.349 . S
Eu161 O170 2.373 . S
Eu161 O174 2.488 . S
Eu161 O175 2.471 . S
Eu161 O176 2.349 . S
Eu161 O179 2.392 . S
Eu161 O180 2.418 . S
Eu161 C190 2.828 . S
C162 O180 1.244 . S
C162 O183 1.265 . S
C163 C164 1.379 . S
C163 C167 1.373 . S
C163 C169 1.505 . S
C164 C163 1.379 . S
C164 C166 1.369 . S
C164 H192 0.930 . S
C165 C167 1.383 . S
C165 C168 1.382 . S
C165 H193 0.930 . S
C166 C164 1.369 . S
C166 C168 1.392 . S
C166 H194 0.930 . S
C167 C163 1.373 . S
C167 C165 1.383 . S
C167 H195 0.931 . S
C168 C165 1.382 . S
C168 C166 1.392 . S
C169 Eu160 2.828 . S
C169 C163 1.505 . S
C169 O181 1.249 . S
C169 O182 1.244 . S
O170 Eu161 2.373 . S
O170 C172 1.258 . S
O171 Eu160 2.392 . S
O171 C172 1.242 . S
C172 O170 1.258 . S
C172 O171 1.242 . S
O173 Eu160 2.418 . S
O173 C177 1.244 . S
O174 Eu161 2.488 . S
O174 C190 1.249 . S
O175 Eu161 2.471 . S
O175 C190 1.244 . S
O176 Eu161 2.349 . S
O176 C177 1.265 . S
C177 O173 1.244 . S
C177 O176 1.265 . S
O178 Eu160 2.373 . S
O178 C191 1.258 . S
O179 Eu161 2.392 . S
O179 C191 1.242 . S
O180 Eu161 2.418 . S
O180 C162 1.244 . S
O181 Eu160 2.488 . S
O181 C169 1.249 . S
O182 Eu160 2.471 . S
O182 C169 1.244 . S
O183 Eu160 2.349 . S
O183 C162 1.265 . S
C184 C185 1.379 . S
C184 C188 1.373 . S
C184 C190 1.505 . S
C185 C184 1.379 . S
C185 C187 1.369 . S
C185 H196 0.930 . S
C186 C188 1.383 . S
C186 C189 1.382 . S
C186 H197 0.930 . S
C187 C185 1.369 . S
C187 C189 1.392 . S
C187 H198 0.930 . S
C188 C184 1.373 . S
C188 C186 1.383 . S
C188 H199 0.931 . S
C189 C186 1.382 . S
C189 C187 1.392 . S
C190 Eu161 2.828 . S
C190 O174 1.249 . S
C190 O175 1.244 . S
C190 C184 1.505 . S
C191 O178 1.258 . S
C191 O179 1.242 . S
H192 C164 0.930 . S
H193 C165 0.930 . S
H194 C166 0.930 . S
H195 C167 0.931 . S
H196 C185 0.930 . S
H197 C186 0.930 . S
H198 C187 0.930 . S
H199 C188 0.931 . S
Eu200 C209 2.828 . S
Eu200 O211 2.392 . S
Eu200 O213 2.418 . S
Eu200 O218 2.373 . S
Eu200 O221 2.488 . S
Eu200 O222 2.471 . S
Eu200 O223 2.349 . S
Eu201 O210 2.373 . S
Eu201 O214 2.488 . S
Eu201 O215 2.471 . S
Eu201 O216 2.349 . S
Eu201 O219 2.392 . S
Eu201 O220 2.418 . S
Eu201 C230 2.828 . S
C202 O220 1.244 . S
C202 O223 1.265 . S
C203 C204 1.379 . S
C203 C207 1.373 . S
C203 C209 1.505 . S
C204 C203 1.379 . S
C204 C206 1.369 . S
C204 H232 0.930 . S
C205 C207 1.383 . S
C205 C208 1.382 . S
C205 H233 0.930 . S
C206 C204 1.369 . S
C206 C208 1.392 . S
C206 H234 0.930 . S
C207 C203 1.373 . S
C207 C205 1.383 . S
C207 H235 0.931 . S
C208 C205 1.382 . S
C208 C206 1.392 . S
C209 Eu200 2.828 . S
C209 C203 1.505 . S
C209 O221 1.249 . S
C209 O222 1.244 . S
O210 Eu201 2.373 . S
O210 C212 1.258 . S
O211 Eu200 2.392 . S
O211 C212 1.242 . S
C212 O210 1.258 . S
C212 O211 1.242 . S
O213 Eu200 2.418 . S
O213 C217 1.244 . S
O214 Eu201 2.488 . S
O214 C230 1.249 . S
O215 Eu201 2.471 . S
O215 C230 1.244 . S
O216 Eu201 2.349 . S
O216 C217 1.265 . S
C217 O213 1.244 . S
C217 O216 1.265 . S
O218 Eu200 2.373 . S
O218 C231 1.258 . S
O219 Eu201 2.392 . S
O219 C231 1.242 . S
O220 Eu201 2.418 . S
O220 C202 1.244 . S
O221 Eu200 2.488 . S
O221 C209 1.249 . S
O222 Eu200 2.471 . S
O222 C209 1.244 . S
O223 Eu200 2.349 . S
O223 C202 1.265 . S
C224 C225 1.379 . S
C224 C228 1.373 . S
C224 C230 1.505 . S
C225 C224 1.379 . S
C225 C227 1.369 . S
C225 H236 0.930 . S
C226 C228 1.383 . S
C226 C229 1.382 . S
C226 H237 0.930 . S
C227 C225 1.369 . S
C227 C229 1.392 . S
C227 H238 0.930 . S
C228 C224 1.373 . S
C228 C226 1.383 . S
C228 H239 0.931 . S
C229 C226 1.382 . S
C229 C227 1.392 . S
C230 Eu201 2.828 . S
C230 O214 1.249 . S
C230 O215 1.244 . S
C230 C224 1.505 . S
C231 O218 1.258 . S
C231 O219 1.242 . S
H232 C204 0.930 . S
H233 C205 0.930 . S
H234 C206 0.930 . S
H235 C207 0.931 . S
H236 C225 0.930 . S
H237 C226 0.930 . S
H238 C227 0.930 . S
H239 C228 0.931 . S
Eu240 C249 2.828 . S
Eu240 O251 2.392 . S
Eu240 O253 2.418 . S
Eu240 O258 2.373 . S
Eu240 O261 2.488 . S
Eu240 O262 2.471 . S
Eu240 O263 2.349 . S
Eu241 O250 2.373 . S
Eu241 O254 2.488 . S
Eu241 O255 2.471 . S
Eu241 O256 2.349 . S
Eu241 O259 2.392 . S
Eu241 O260 2.418 . S
Eu241 C270 2.828 . S
C242 O260 1.244 . S
C242 O263 1.265 . S
C243 C244 1.379 . S
C243 C247 1.373 . S
C243 C249 1.505 . S
C244 C243 1.379 . S
C244 C246 1.369 . S
C244 H272 0.930 . S
C245 C247 1.383 . S
C245 C248 1.382 . S
C245 H273 0.930 . S
C246 C244 1.369 . S
C246 C248 1.392 . S
C246 H274 0.930 . S
C247 C243 1.373 . S
C247 C245 1.383 . S
C247 H275 0.931 . S
C248 C245 1.382 . S
C248 C246 1.392 . S
C249 Eu240 2.828 . S
C249 C243 1.505 . S
C249 O261 1.249 . S
C249 O262 1.244 . S
O250 Eu241 2.373 . S
O250 C252 1.258 . S
O251 Eu240 2.392 . S
O251 C252 1.242 . S
C252 O250 1.258 . S
C252 O251 1.242 . S
O253 Eu240 2.418 . S
O253 C257 1.244 . S
O254 Eu241 2.488 . S
O254 C270 1.249 . S
O255 Eu241 2.471 . S
O255 C270 1.244 . S
O256 Eu241 2.349 . S
O256 C257 1.265 . S
C257 O253 1.244 . S
C257 O256 1.265 . S
O258 Eu240 2.373 . S
O258 C271 1.258 . S
O259 Eu241 2.392 . S
O259 C271 1.242 . S
O260 Eu241 2.418 . S
O260 C242 1.244 . S
O261 Eu240 2.488 . S
O261 C249 1.249 . S
O262 Eu240 2.471 . S
O262 C249 1.244 . S
O263 Eu240 2.349 . S
O263 C242 1.265 . S
C264 C265 1.379 . S
C264 C268 1.373 . S
C264 C270 1.505 . S
C265 C264 1.379 . S
C265 C267 1.369 . S
C265 H276 0.930 . S
C266 C268 1.383 . S
C266 C269 1.382 . S
C266 H277 0.930 . S
C267 C265 1.369 . S
C267 C269 1.392 . S
C267 H278 0.930 . S
C268 C264 1.373 . S
C268 C266 1.383 . S
C268 H279 0.931 . S
C269 C266 1.382 . S
C269 C267 1.392 . S
C270 Eu241 2.828 . S
C270 O254 1.249 . S
C270 O255 1.244 . S
C270 C264 1.505 . S
C271 O258 1.258 . S
C271 O259 1.242 . S
H272 C244 0.930 . S
H273 C245 0.930 . S
H274 C246 0.930 . S
H275 C247 0.931 . S
H276 C265 0.930 . S
H277 C266 0.930 . S
H278 C267 0.930 . S
H279 C268 0.931 . S
Eu280 C289 2.828 . S
Eu280 O291 2.392 . S
Eu280 O293 2.418 . S
Eu280 O298 2.373 . S
Eu280 O301 2.488 . S
Eu280 O302 2.471 . S
Eu280 O303 2.349 . S
Eu281 O290 2.373 . S
Eu281 O294 2.488 . S
Eu281 O295 2.471 . S
Eu281 O296 2.349 . S
Eu281 O299 2.392 . S
Eu281 O300 2.418 . S
Eu281 C310 2.828 . S
C282 O300 1.244 . S
C282 O303 1.265 . S
C283 C284 1.379 . S
C283 C287 1.373 . S
C283 C289 1.505 . S
C284 C283 1.379 . S
C284 C286 1.369 . S
C284 H312 0.930 . S
C285 C287 1.383 . S
C285 C288 1.382 . S
C285 H313 0.930 . S
C286 C284 1.369 . S
C286 C288 1.392 . S
C286 H314 0.930 . S
C287 C283 1.373 . S
C287 C285 1.383 . S
C287 H315 0.931 . S
C288 C285 1.382 . S
C288 C286 1.392 . S
C289 Eu280 2.828 . S
C289 C283 1.505 . S
C289 O301 1.249 . S
C289 O302 1.244 . S
O290 Eu281 2.373 . S
O290 C292 1.258 . S
O291 Eu280 2.392 . S
O291 C292 1.242 . S
C292 O290 1.258 . S
C292 O291 1.242 . S
O293 Eu280 2.418 . S
O293 C297 1.244 . S
O294 Eu281 2.488 . S
O294 C310 1.249 . S
O295 Eu281 2.471 . S
O295 C310 1.244 . S
O296 Eu281 2.349 . S
O296 C297 1.265 . S
C297 O293 1.244 . S
C297 O296 1.265 . S
O298 Eu280 2.373 . S
O298 C311 1.258 . S
O299 Eu281 2.392 . S
O299 C311 1.242 . S
O300 Eu281 2.418 . S
O300 C282 1.244 . S
O301 Eu280 2.488 . S
O301 C289 1.249 . S
O302 Eu280 2.471 . S
O302 C289 1.244 . S
O303 Eu280 2.349 . S
O303 C282 1.265 . S
C304 C305 1.379 . S
C304 C308 1.373 . S
C304 C310 1.505 . S
C305 C304 1.379 . S
C305 C307 1.369 . S
C305 H316 0.930 . S
C306 C308 1.383 . S
C306 C309 1.382 . S
C306 H317 0.930 . S
C307 C305 1.369 . S
C307 C309 1.392 . S
C307 H318 0.930 . S
C308 C304 1.373 . S
C308 C306 1.383 . S
C308 H319 0.931 . S
C309 C306 1.382 . S
C309 C307 1.392 . S
C310 Eu281 2.828 . S
C310 O294 1.249 . S
C310 O295 1.244 . S
C310 C304 1.505 . S
C311 O298 1.258 . S
C311 O299 1.242 . S
H312 C284 0.930 . S
H313 C285 0.930 . S
H314 C286 0.930 . S
H315 C287 0.931 . S
H316 C305 0.930 . S
H317 C306 0.930 . S
H318 C307 0.930 . S
H319 C308 0.931 . S
Cd320 N323 2.334 1_655 S
Cd320 N349 2.304 1_565 S
Cd320 O356 2.268 . S
Cd320 O359 2.273 1_665 S
Cd320 O360 2.417 . S
Cd320 O361 2.330 . S
Cd321 N336 2.304 1_455 S
Cd321 N340 2.334 1_545 S
Cd321 O357 2.273 1_445 S
Cd321 O358 2.268 . S
Cd321 O362 2.417 . S
Cd321 O363 2.330 . S
C322 N323 1.332 . S
C322 C326 1.381 . S
C322 H328 0.931 . S
N323 Cd320 2.334 1_455 S
N323 C322 1.332 . S
N323 C327 1.328 . S
C324 C325 1.396 . S
C324 C327 1.378 . S
C324 H366 0.931 . S
C325 C324 1.396 . S
C325 C326 1.382 . S
C326 C322 1.381 . S
C326 C325 1.382 . S
C326 H367 0.930 . S
C327 N323 1.328 . S
C327 C324 1.378 . S
C327 H329 0.930 1_455 S
H328 C322 0.931 . S
H329 C327 0.930 1_655 S
C330 O356 1.238 . S
C330 O357 1.253 . S
C331 C332 1.379 . S
C331 N336 1.337 . S
C331 H337 0.929 . S
C332 C331 1.379 . S
C332 C333 1.380 . S
C332 H368 0.929 . S
C333 C332 1.380 . S
C333 C334 1.399 . S
C334 C333 1.399 . S
C334 C335 1.376 1_655 S
C334 H369 0.931 . S
C335 C334 1.376 1_455 S
C335 N336 1.338 1_455 S
C335 H338 0.930 . S
N336 Cd321 2.304 1_655 S
N336 C331 1.337 . S
N336 C335 1.338 1_655 S
H337 C331 0.929 . S
H338 C335 0.930 . S
C339 N340 1.332 . S
C339 C343 1.381 . S
C339 H345 0.931 . S
N340 Cd321 2.334 1_565 S
N340 C339 1.332 . S
N340 C344 1.328 . S
C341 C342 1.396 . S
C341 C344 1.378 . S
C341 H370 0.931 . S
C342 C341 1.396 . S
C342 C343 1.382 . S
C343 C339 1.381 . S
C343 C342 1.382 . S
C343 H371 0.930 . S
C344 N340 1.328 . S
C344 C341 1.378 . S
C344 H346 0.930 1_565 S
H345 C339 0.931 . S
H346 C344 0.930 1_545 S
C347 O358 1.238 . S
C347 O359 1.253 . S
C348 O360 1.239 . S
C348 O361 1.230 . S
N349 Cd320 2.304 1_545 S
N349 C350 1.337 . S
N349 C354 1.338 . S
C350 N349 1.337 . S
C350 C351 1.379 . S
C350 H364 0.929 . S
C351 C350 1.379 . S
C351 C352 1.380 . S
C351 H372 0.929 . S
C352 C351 1.380 . S
C352 C353 1.399 . S
C353 C352 1.399 . S
C353 C354 1.376 . S
C353 H373 0.931 . S
C354 N349 1.338 . S
C354 C353 1.376 . S
C354 H365 0.930 1_545 S
C355 O362 1.239 . S
C355 O363 1.230 . S
O356 Cd320 2.268 . S
O356 C330 1.238 . S
O357 Cd321 2.273 1_665 S
O357 C330 1.253 . S
O358 Cd321 2.268 . S
O358 C347 1.238 . S
O359 Cd320 2.273 1_445 S
O359 C347 1.253 . S
O360 Cd320 2.417 . S
O360 C348 1.239 . S
O361 Cd320 2.330 . S
O361 C348 1.230 . S
O362 Cd321 2.417 . S
O362 C355 1.239 . S
O363 Cd321 2.330 . S
O363 C355 1.230 . S
H364 C350 0.929 . S
H365 C354 0.930 1_565 S
H366 C324 0.931 . S
H367 C326 0.930 . S
H368 C332 0.929 . S
H369 C334 0.931 . S
H370 C341 0.931 . S
H371 C343 0.930 . S
H372 C351 0.929 . S
H373 C353 0.931 . S
Cd374 N377 2.334 . S
Cd374 N403 2.304 1_565 S
Cd374 O410 2.268 1_554 S
Cd374 O413 2.273 1_565 S
Cd374 O414 2.417 . S
Cd374 O415 2.330 . S
Cd375 N390 2.304 . S
Cd375 N394 2.334 1_545 S
Cd375 O411 2.273 1_545 S
Cd375 O412 2.268 1_556 S
Cd375 O416 2.417 . S
Cd375 O417 2.330 . S
C376 N377 1.332 . S
C376 C380 1.381 . S
C376 H382 0.931 . S
N377 Cd374 2.334 . S
N377 C376 1.332 . S
N377 C381 1.328 . S
C378 C379 1.396 . S
C378 C381 1.378 . S
C378 H420 0.931 1_554 S
C379 C378 1.396 . S
C379 C380 1.382 . S
C380 C376 1.381 . S
C380 C379 1.382 . S
C380 H421 0.930 . S
C381 N377 1.328 . S
C381 C378 1.378 . S
C381 H383 0.930 1_554 S
H382 C376 0.931 . S
H383 C381 0.930 1_556 S
C384 O410 1.238 . S
C384 O411 1.253 . S
C385 C386 1.379 . S
C385 N390 1.337 . S
C385 H391 0.929 . S
C386 C385 1.379 . S
C386 C387 1.380 . S
C386 H422 0.929 . S
C387 C386 1.380 . S
C387 C388 1.399 1_556 S
C388 C387 1.399 1_554 S
C388 C389 1.376 1_554 S
C388 H423 0.931 . S
C389 C388 1.376 1_556 S
C389 N390 1.338 . S
C389 H392 0.930 1_556 S
N390 Cd375 2.304 . S
N390 C385 1.337 . S
N390 C389 1.338 . S
H391 C385 0.929 . S
H392 C389 0.930 1_554 S
C393 N394 1.332 . S
C393 C397 1.381 . S
C393 H399 0.931 . S
N394 Cd375 2.334 1_565 S
N394 C393 1.332 . S
N394 C398 1.328 . S
C395 C396 1.396 . S
C395 C398 1.378 . S
C395 H424 0.921 1_556 S
C396 C395 1.396 . S
C396 C397 1.382 . S
C397 C393 1.381 . S
C397 C396 1.382 . S
C397 H425 0.930 . S
C398 N394 1.328 . S
C398 C395 1.378 . S
C398 H400 0.930 1_566 S
H399 C393 0.931 . S
H400 C398 0.930 1_544 S
C401 O412 1.238 . S
C401 O413 1.253 . S
C402 O414 1.239 . S
C402 O415 1.230 . S
N403 Cd374 2.304 1_545 S
N403 C404 1.337 . S
N403 C408 1.338 . S
C404 N403 1.337 . S
C404 C405 1.379 . S
C404 H418 0.929 . S
C405 C404 1.379 . S
C405 C406 1.380 . S
C405 H426 0.929 . S
C406 C405 1.380 . S
C406 C407 1.399 . S
C407 C406 1.399 . S
C407 C408 1.376 . S
C407 H427 0.922 1_554 S
C408 N403 1.338 . S
C408 C407 1.376 . S
C408 H419 0.930 1_544 S
C409 O416 1.239 . S
C409 O417 1.230 . S
O410 Cd374 2.268 1_556 S
O410 C384 1.238 . S
O411 Cd375 2.273 1_565 S
O411 C384 1.253 . S
O412 Cd375 2.268 1_554 S
O412 C401 1.238 . S
O413 Cd374 2.273 1_545 S
O413 C401 1.253 . S
O414 Cd374 2.417 . S
O414 C402 1.239 . S
O415 Cd374 2.330 . S
O415 C402 1.230 . S
O416 Cd375 2.417 . S
O416 C409 1.239 . S
O417 Cd375 2.330 . S
O417 C409 1.230 . S
H418 C404 0.929 . S
H419 C408 0.930 1_566 S
H420 C378 0.931 1_556 S
H421 C380 0.930 . S
H422 C386 0.929 . S
H423 C388 0.931 . S
H424 C395 0.921 1_554 S
H425 C397 0.930 . S
H426 C405 0.929 . S
H427 C407 0.922 1_556 S
Cd428 N431 2.334 1_655 S
Cd428 N457 2.304 . S
Cd428 O464 2.268 1_554 S
Cd428 O467 2.273 1_655 S
Cd428 O468 2.417 . S
Cd428 O469 2.330 . S
Cd429 N444 2.304 1_455 S
Cd429 N448 2.334 . S
Cd429 O465 2.273 1_455 S
Cd429 O466 2.268 1_556 S
Cd429 O470 2.417 . S
Cd429 O471 2.330 . S
C430 N431 1.332 . S
C430 C434 1.381 . S
C430 H436 0.931 . S
N431 Cd428 2.334 1_455 S
N431 C430 1.332 . S
N431 C435 1.328 . S
C432 C433 1.396 . S
C432 C435 1.378 . S
C432 H474 0.931 1_554 S
C433 C432 1.396 . S
C433 C434 1.382 . S
C434 C430 1.381 . S
C434 C433 1.382 . S
C434 H475 0.930 . S
C435 N431 1.328 . S
C435 C432 1.378 . S
C435 H437 0.930 1_454 S
H436 C430 0.931 . S
H437 C435 0.930 1_656 S
C438 O464 1.238 . S
C438 O465 1.253 . S
C439 C440 1.379 . S
C439 N444 1.337 . S
C439 H445 0.929 . S
C440 C439 1.379 . S
C440 C441 1.380 . S
C440 H476 0.929 . S
C441 C440 1.380 . S
C441 C442 1.399 1_556 S
C442 C441 1.399 1_554 S
C442 C443 1.376 1_654 S
C442 H477 0.931 . S
C443 C442 1.376 1_456 S
C443 N444 1.338 1_455 S
C443 H446 0.930 1_556 S
N444 Cd429 2.304 1_655 S
N444 C439 1.337 . S
N444 C443 1.338 1_655 S
H445 C439 0.929 . S
H446 C443 0.930 1_554 S
C447 N448 1.332 . S
C447 C451 1.381 . S
C447 H453 0.931 . S
N448 Cd429 2.334 . S
N448 C447 1.332 . S
N448 C452 1.328 . S
C449 C450 1.396 . S
C449 C452 1.378 . S
C449 H478 0.921 1_556 S
C450 C449 1.396 . S
C450 C451 1.382 . S
C451 C447 1.381 . S
C451 C450 1.382 . S
C451 H479 0.930 . S
C452 N448 1.328 . S
C452 C449 1.378 . S
C452 H454 0.930 1_556 S
H453 C447 0.931 . S
H454 C452 0.930 1_554 S
C455 O466 1.238 . S
C455 O467 1.253 . S
C456 O468 1.239 . S
C456 O469 1.230 . S
N457 Cd428 2.304 . S
N457 C458 1.337 . S
N457 C462 1.338 . S
C458 N457 1.337 . S
C458 C459 1.379 . S
C458 H472 0.929 . S
C459 C458 1.379 . S
C459 C460 1.380 . S
C459 H480 0.929 . S
C460 C459 1.380 . S
C460 C461 1.399 . S
C461 C460 1.399 . S
C461 C462 1.376 . S
C461 H481 0.921 1_554 S
C462 N457 1.338 . S
C462 C461 1.376 . S
C462 H473 0.930 1_554 S
C463 O470 1.239 . S
C463 O471 1.230 . S
O464 Cd428 2.268 1_556 S
O464 C438 1.238 . S
O465 Cd429 2.273 1_655 S
O465 C438 1.253 . S
O466 Cd429 2.268 1_554 S
O466 C455 1.238 . S
O467 Cd428 2.273 1_455 S
O467 C455 1.253 . S
O468 Cd428 2.417 . S
O468 C456 1.239 . S
O469 Cd428 2.330 . S
O469 C456 1.230 . S
O470 Cd429 2.417 . S
O470 C463 1.239 . S
O471 Cd429 2.330 . S
O471 C463 1.230 . S
H472 C458 0.929 . S
H473 C462 0.930 1_556 S
H474 C432 0.931 1_556 S
H475 C434 0.930 . S
H476 C440 0.929 . S
H477 C442 0.931 . S
H478 C449 0.921 1_554 S
H479 C451 0.930 . S
H480 C459 0.929 . S
H481 C461 0.921 1_556 S
Cd482 N485 2.334 . S
Cd482 N511 2.304 . S
Cd482 O518 2.268 1_554 S
Cd482 O521 2.273 . S
Cd482 O522 2.417 . S
Cd482 O523 2.330 . S
Cd483 N498 2.304 . S
Cd483 N502 2.334 . S
Cd483 O519 2.273 . S
Cd483 O520 2.268 1_556 S
Cd483 O524 2.417 . S
Cd483 O525 2.330 . S
C484 N485 1.332 . S
C484 C488 1.381 . S
C484 H490 0.931 . S
N485 Cd482 2.334 . S
N485 C484 1.332 . S
N485 C489 1.328 . S
C486 C487 1.396 . S
C486 C489 1.378 . S
C486 H528 0.931 1_554 S
C487 C486 1.396 . S
C487 C488 1.382 . S
C488 C484 1.381 . S
C488 C487 1.382 . S
C488 H529 0.930 . S
C489 N485 1.328 . S
C489 C486 1.378 . S
C489 H491 0.930 1_554 S
H490 C484 0.931 . S
H491 C489 0.930 1_556 S
C492 O518 1.238 . S
C492 O519 1.253 . S
C493 C494 1.379 . S
C493 N498 1.337 . S
C493 H499 0.929 . S
C494 C493 1.379 . S
C494 C495 1.380 . S
C494 H530 0.929 . S
C495 C494 1.380 . S
C495 C496 1.399 1_556 S
C496 C495 1.399 1_554 S
C496 C497 1.376 1_554 S
C496 H531 0.931 . S
C497 C496 1.376 1_556 S
C497 N498 1.338 . S
C497 H500 0.930 1_556 S
N498 Cd483 2.304 . S
N498 C493 1.337 . S
N498 C497 1.338 . S
H499 C493 0.929 . S
H500 C497 0.930 1_554 S
C501 N502 1.332 . S
C501 C505 1.381 . S
C501 H507 0.931 . S
N502 Cd483 2.334 . S
N502 C501 1.332 . S
N502 C506 1.328 . S
C503 C504 1.396 . S
C503 C506 1.378 . S
C503 H532 0.920 1_556 S
C504 C503 1.396 . S
C504 C505 1.382 . S
C505 C501 1.381 . S
C505 C504 1.382 . S
C505 H533 0.930 . S
C506 N502 1.328 . S
C506 C503 1.378 . S
C506 H508 0.930 1_556 S
H507 C501 0.931 . S
H508 C506 0.930 1_554 S
C509 O520 1.238 . S
C509 O521 1.253 . S
C510 O522 1.239 . S
C510 O523 1.230 . S
N511 Cd482 2.304 . S
N511 C512 1.337 . S
N511 C516 1.338 . S
C512 N511 1.337 . S
C512 C513 1.379 . S
C512 H526 0.929 . S
C513 C512 1.379 . S
C513 C514 1.380 . S
C513 H534 0.929 . S
C514 C513 1.380 . S
C514 C515 1.399 . S
C515 C514 1.399 . S
C515 C516 1.376 . S
C515 H535 0.923 1_554 S
C516 N511 1.338 . S
C516 C515 1.376 . S
C516 H527 0.930 1_554 S
C517 O524 1.239 . S
C517 O525 1.230 . S
O518 Cd482 2.268 1_556 S
O518 C492 1.238 . S
O519 Cd483 2.273 . S
O519 C492 1.253 . S
O520 Cd483 2.268 1_554 S
O520 C509 1.238 . S
O521 Cd482 2.273 . S
O521 C509 1.253 . S
O522 Cd482 2.417 . S
O522 C510 1.239 . S
O523 Cd482 2.330 . S
O523 C510 1.230 . S
O524 Cd483 2.417 . S
O524 C517 1.239 . S
O525 Cd483 2.330 . S
O525 C517 1.230 . S
H526 C512 0.929 . S
H527 C516 0.930 1_556 S
H528 C486 0.931 1_556 S
H529 C488 0.930 . S
H530 C494 0.929 . S
H531 C496 0.931 . S
H532 C503 0.920 1_554 S
H533 C505 0.930 . S
H534 C513 0.929 . S
H535 C515 0.923 1_556 S
Cd536 N539 2.334 1_655 S
Cd536 N565 2.304 . S
Cd536 O572 2.268 . S
Cd536 O575 2.273 1_655 S
Cd536 O576 2.417 . S
Cd536 O577 2.330 . S
Cd537 N552 2.304 1_455 S
Cd537 N556 2.334 . S
Cd537 O573 2.273 1_455 S
Cd537 O574 2.268 . S
Cd537 O578 2.417 . S
Cd537 O579 2.330 . S
C538 N539 1.332 . S
C538 C542 1.381 . S
C538 H544 0.931 . S
N539 Cd536 2.334 1_455 S
N539 C538 1.332 . S
N539 C543 1.328 . S
C540 C541 1.396 . S
C540 C543 1.378 . S
C540 H582 0.931 . S
C541 C540 1.396 . S
C541 C542 1.382 . S
C542 C538 1.381 . S
C542 C541 1.382 . S
C542 H583 0.930 . S
C543 N539 1.328 . S
C543 C540 1.378 . S
C543 H545 0.930 1_455 S
H544 C538 0.931 . S
H545 C543 0.930 1_655 S
C546 O572 1.238 . S
C546 O573 1.253 . S
C547 C548 1.379 . S
C547 N552 1.337 . S
C547 H553 0.929 . S
C548 C547 1.379 . S
C548 C549 1.380 . S
C548 H584 0.929 . S
C549 C548 1.380 . S
C549 C550 1.399 . S
C550 C549 1.399 . S
C550 C551 1.376 1_655 S
C550 H585 0.931 . S
C551 C550 1.376 1_455 S
C551 N552 1.338 1_455 S
C551 H554 0.930 . S
N552 Cd537 2.304 1_655 S
N552 C547 1.337 . S
N552 C551 1.338 1_655 S
H553 C547 0.929 . S
H554 C551 0.930 . S
C555 N556 1.332 . S
C555 C559 1.381 . S
C555 H561 0.931 . S
N556 Cd537 2.334 . S
N556 C555 1.332 . S
N556 C560 1.328 . S
C557 C558 1.396 . S
C557 C560 1.378 . S
C557 H586 0.931 . S
C558 C557 1.396 . S
C558 C559 1.382 . S
C559 C555 1.381 . S
C559 C558 1.382 . S
C559 H587 0.930 . S
C560 N556 1.328 . S
C560 C557 1.378 . S
C560 H562 0.930 . S
H561 C555 0.931 . S
H562 C560 0.930 . S
C563 O574 1.238 . S
C563 O575 1.253 . S
C564 O576 1.239 . S
C564 O577 1.230 . S
N565 Cd536 2.304 . S
N565 C566 1.337 . S
N565 C570 1.338 . S
C566 N565 1.337 . S
C566 C567 1.379 . S
C566 H580 0.929 . S
C567 C566 1.379 . S
C567 C568 1.380 . S
C567 H588 0.929 . S
C568 C567 1.380 . S
C568 C569 1.399 . S
C569 C568 1.399 . S
C569 C570 1.376 . S
C569 H589 0.931 . S
C570 N565 1.338 . S
C570 C569 1.376 . S
C570 H581 0.930 . S
C571 O578 1.239 . S
C571 O579 1.230 . S
O572 Cd536 2.268 . S
O572 C546 1.238 . S
O573 Cd537 2.273 1_655 S
O573 C546 1.253 . S
O574 Cd537 2.268 . S
O574 C563 1.238 . S
O575 Cd536 2.273 1_455 S
O575 C563 1.253 . S
O576 Cd536 2.417 . S
O576 C564 1.239 . S
O577 Cd536 2.330 . S
O577 C564 1.230 . S
O578 Cd537 2.417 . S
O578 C571 1.239 . S
O579 Cd537 2.330 . S
O579 C571 1.230 . S
H580 C566 0.929 . S
H581 C570 0.930 . S
H582 C540 0.931 . S
H583 C542 0.930 . S
H584 C548 0.929 . S
H585 C550 0.931 . S
H586 C557 0.931 . S
H587 C559 0.930 . S
H588 C567 0.929 . S
H589 C569 0.931 . S
Cd590 N593 2.334 . S
Cd590 N619 2.304 1_565 S
Cd590 O626 2.268 . S
Cd590 O629 2.273 1_565 S
Cd590 O630 2.417 . S
Cd590 O631 2.330 . S
Cd591 N606 2.304 . S
Cd591 N610 2.334 1_545 S
Cd591 O627 2.273 1_545 S
Cd591 O628 2.268 . S
Cd591 O632 2.417 . S
Cd591 O633 2.330 . S
C592 N593 1.332 . S
C592 C596 1.381 . S
C592 H598 0.931 . S
N593 Cd590 2.334 . S
N593 C592 1.332 . S
N593 C597 1.328 . S
C594 C595 1.396 . S
C594 C597 1.378 . S
C594 H636 0.931 . S
C595 C594 1.396 . S
C595 C596 1.382 . S
C596 C592 1.381 . S
C596 C595 1.382 . S
C596 H637 0.930 . S
C597 N593 1.328 . S
C597 C594 1.378 . S
C597 H599 0.930 . S
H598 C592 0.931 . S
H599 C597 0.930 . S
C600 O626 1.238 . S
C600 O627 1.253 . S
C601 C602 1.379 . S
C601 N606 1.337 . S
C601 H607 0.929 . S
C602 C601 1.379 . S
C602 C603 1.380 . S
C602 H638 0.929 . S
C603 C602 1.380 . S
C603 C604 1.399 . S
C604 C603 1.399 . S
C604 C605 1.376 . S
C604 H639 0.931 . S
C605 C604 1.376 . S
C605 N606 1.338 . S
C605 H608 0.930 . S
N606 Cd591 2.304 . S
N606 C601 1.337 . S
N606 C605 1.338 . S
H607 C601 0.929 . S
H608 C605 0.930 . S
C609 N610 1.332 . S
C609 C613 1.381 . S
C609 H615 0.931 . S
N610 Cd591 2.334 1_565 S
N610 C609 1.332 . S
N610 C614 1.328 . S
C611 C612 1.396 . S
C611 C614 1.378 . S
C611 H640 0.931 . S
C612 C611 1.396 . S
C612 C613 1.382 . S
C613 C609 1.381 . S
C613 C612 1.382 . S
C613 H641 0.930 . S
C614 N610 1.328 . S
C614 C611 1.378 . S
C614 H616 0.930 1_565 S
H615 C609 0.931 . S
H616 C614 0.930 1_545 S
C617 O628 1.238 . S
C617 O629 1.253 . S
C618 O630 1.239 . S
C618 O631 1.230 . S
N619 Cd590 2.304 1_545 S
N619 C620 1.337 . S
N619 C624 1.338 . S
C620 N619 1.337 . S
C620 C621 1.379 . S
C620 H634 0.929 . S
C621 C620 1.379 . S
C621 C622 1.380 . S
C621 H642 0.929 . S
C622 C621 1.380 . S
C622 C623 1.399 . S
C623 C622 1.399 . S
C623 C624 1.376 . S
C623 H643 0.931 . S
C624 N619 1.338 . S
C624 C623 1.376 . S
C624 H635 0.930 1_545 S
C625 O632 1.239 . S
C625 O633 1.230 . S
O626 Cd590 2.268 . S
O626 C600 1.238 . S
O627 Cd591 2.273 1_565 S
O627 C600 1.253 . S
O628 Cd591 2.268 . S
O628 C617 1.238 . S
O629 Cd590 2.273 1_545 S
O629 C617 1.253 . S
O630 Cd590 2.417 . S
O630 C618 1.239 . S
O631 Cd590 2.330 . S
O631 C618 1.230 . S
O632 Cd591 2.417 . S
O632 C625 1.239 . S
O633 Cd591 2.330 . S
O633 C625 1.230 . S
H634 C620 0.929 . S
H635 C624 0.930 1_565 S
H636 C594 0.931 . S
H637 C596 0.930 . S
H638 C602 0.929 . S
H639 C604 0.931 . S
H640 C611 0.931 . S
H641 C613 0.930 . S
H642 C621 0.929 . S
H643 C623 0.931 . S
H644 C650 0.930 . S
H645 C653 0.930 . S
H646 C654 0.930 . S
H647 C655 0.930 . S
H648 C658 0.930 . S
H649 C659 0.930 . S
C650 H644 0.930 . S
C650 C651 1.355 . S
C650 C652 1.415 . S
C651 C650 1.355 . S
C651 C653 1.419 . S
C652 C650 1.415 . S
C652 C657 1.425 . S
C652 C659 1.409 . S
C653 H645 0.930 . S
C653 C651 1.419 . S
C653 C654 1.362 . S
C654 H646 0.930 . S
C654 C653 1.362 . S
C654 C657 1.409 . S
C655 H647 0.930 . S
C655 C656 1.355 . S
C655 C657 1.415 . S
C656 C655 1.355 . S
C656 C658 1.419 . S
C657 C652 1.425 . S
C657 C654 1.409 . S
C657 C655 1.415 . S
C658 H648 0.930 . S
C658 C656 1.419 . S
C658 C659 1.362 . S
C659 H649 0.930 . S
C659 C652 1.409 . S
C659 C658 1.362 . S
H660 C666 0.930 . S
H661 C669 0.930 . S
H662 C670 0.930 . S
H663 C671 0.930 . S
H664 C674 0.930 . S
H665 C675 0.930 . S
C666 H660 0.930 . S
C666 C667 1.355 . S
C666 C668 1.415 . S
C667 C666 1.355 . S
C667 C669 1.419 . S
C668 C666 1.415 . S
C668 C673 1.425 . S
C668 C675 1.409 . S
C669 H661 0.930 . S
C669 C667 1.419 . S
C669 C670 1.362 . S
C670 H662 0.930 . S
C670 C669 1.362 . S
C670 C673 1.409 . S
C671 H663 0.930 . S
C671 C672 1.355 . S
C671 C673 1.415 . S
C672 C671 1.355 . S
C672 C674 1.419 . S
C673 C668 1.425 . S
C673 C670 1.409 . S
C673 C671 1.415 . S
C674 H664 0.930 . S
C674 C672 1.419 . S
C674 C675 1.362 . S
C675 H665 0.930 . S
C675 C668 1.409 . S
C675 C674 1.362 . S
H676 C682 0.930 . S
H677 C685 0.930 . S
H678 C686 0.930 . S
H679 C687 0.930 . S
H680 C690 0.930 . S
H681 C691 0.930 . S
C682 H676 0.930 . S
C682 C683 1.355 . S
C682 C684 1.415 . S
C683 C682 1.355 . S
C683 C685 1.419 . S
C684 C682 1.415 . S
C684 C689 1.425 . S
C684 C691 1.409 . S
C685 H677 0.930 . S
C685 C683 1.419 . S
C685 C686 1.362 . S
C686 H678 0.930 . S
C686 C685 1.362 . S
C686 C689 1.409 . S
C687 H679 0.930 . S
C687 C688 1.355 . S
C687 C689 1.415 . S
C688 C687 1.355 . S
C688 C690 1.419 . S
C689 C684 1.425 . S
C689 C686 1.409 . S
C689 C687 1.415 . S
C690 H680 0.930 . S
C690 C688 1.419 . S
C690 C691 1.362 . S
C691 H681 0.930 . S
C691 C684 1.409 . S
C691 C690 1.362 . S
H692 C698 0.930 . S
H693 C701 0.930 . S
H694 C702 0.930 . S
H695 C703 0.930 . S
H696 C706 0.930 . S
H697 C707 0.930 . S
C698 H692 0.930 . S
C698 C699 1.355 . S
C698 C700 1.415 . S
C699 C698 1.355 . S
C699 C701 1.419 . S
C700 C698 1.415 . S
C700 C705 1.425 . S
C700 C707 1.409 . S
C701 H693 0.930 . S
C701 C699 1.419 . S
C701 C702 1.362 . S
C702 H694 0.930 . S
C702 C701 1.362 . S
C702 C705 1.409 . S
C703 H695 0.930 . S
C703 C704 1.355 . S
C703 C705 1.415 . S
C704 C703 1.355 . S
C704 C706 1.419 . S
C705 C700 1.425 . S
C705 C702 1.409 . S
C705 C703 1.415 . S
C706 H696 0.930 . S
C706 C704 1.419 . S
C706 C707 1.362 . S
C707 H697 0.930 . S
C707 C700 1.409 . S
C707 C706 1.362 . S
H708 C714 0.930 . S
H709 C717 0.930 . S
H710 C718 0.930 . S
H711 C719 0.930 . S
H712 C722 0.930 . S
H713 C723 0.930 . S
C714 H708 0.930 . S
C714 C715 1.355 . S
C714 C716 1.415 . S
C715 C714 1.355 . S
C715 C717 1.419 . S
C716 C714 1.415 . S
C716 C721 1.425 . S
C716 C723 1.409 . S
C717 H709 0.930 . S
C717 C715 1.419 . S
C717 C718 1.362 . S
C718 H710 0.930 . S
C718 C717 1.362 . S
C718 C721 1.409 . S
C719 H711 0.930 . S
C719 C720 1.355 . S
C719 C721 1.415 . S
C720 C719 1.355 . S
C720 C722 1.419 . S
C721 C716 1.425 . S
C721 C718 1.409 . S
C721 C719 1.415 . S
C722 H712 0.930 . S
C722 C720 1.419 . S
C722 C723 1.362 . S
C723 H713 0.930 . S
C723 C716 1.409 . S
C723 C722 1.362 . S
H724 C730 0.930 . S
H725 C733 0.930 . S
H726 C734 0.930 . S
H727 C735 0.930 . S
H728 C738 0.930 . S
H729 C739 0.930 . S
C730 H724 0.930 . S
C730 C731 1.355 . S
C730 C732 1.415 . S
C731 C730 1.355 . S
C731 C733 1.419 . S
C732 C730 1.415 . S
C732 C737 1.425 . S
C732 C739 1.409 . S
C733 H725 0.930 . S
C733 C731 1.419 . S
C733 C734 1.362 . S
C734 H726 0.930 . S
C734 C733 1.362 . S
C734 C737 1.409 . S
C735 H727 0.930 . S
C735 C736 1.355 . S
C735 C737 1.415 . S
C736 C735 1.355 . S
C736 C738 1.419 . S
C737 C732 1.425 . S
C737 C734 1.409 . S
C737 C735 1.415 . S
C738 H728 0.930 . S
C738 C736 1.419 . S
C738 C739 1.362 . S
C739 H729 0.930 . S
C739 C732 1.409 . S
C739 C738 1.362 . S
H740 C746 0.930 . S
H741 C749 0.930 . S
H742 C750 0.930 . S
H743 C751 0.930 . S
H744 C754 0.930 . S
H745 C755 0.930 . S
C746 H740 0.930 . S
C746 C747 1.355 . S
C746 C748 1.415 . S
C747 C746 1.355 . S
C747 C749 1.419 . S
C748 C746 1.415 . S
C748 C753 1.425 . S
C748 C755 1.409 . S
C749 H741 0.930 . S
C749 C747 1.419 . S
C749 C750 1.362 . S
C750 H742 0.930 . S
C750 C749 1.362 . S
C750 C753 1.409 . S
C751 H743 0.930 . S
C751 C752 1.355 . S
C751 C753 1.415 . S
C752 C751 1.355 . S
C752 C754 1.419 . S
C753 C748 1.425 . S
C753 C750 1.409 . S
C753 C751 1.415 . S
C754 H744 0.930 . S
C754 C752 1.419 . S
C754 C755 1.362 . S
C755 H745 0.930 . S
C755 C748 1.409 . S
C755 C754 1.362 . S
H756 C762 0.930 . S
H757 C765 0.930 . S
H758 C766 0.930 . S
H759 C767 0.930 . S
H760 C770 0.930 . S
H761 C771 0.930 . S
C762 H756 0.930 . S
C762 C763 1.355 . S
C762 C764 1.415 . S
C763 C762 1.355 . S
C763 C765 1.419 . S
C764 C762 1.415 . S
C764 C769 1.425 . S
C764 C771 1.409 . S
C765 H757 0.930 . S
C765 C763 1.419 . S
C765 C766 1.362 . S
C766 H758 0.930 . S
C766 C765 1.362 . S
C766 C769 1.409 . S
C767 H759 0.930 . S
C767 C768 1.355 . S
C767 C769 1.415 . S
C768 C767 1.355 . S
C768 C770 1.419 . S
C769 C764 1.425 . S
C769 C766 1.409 . S
C769 C767 1.415 . S
C770 H760 0.930 . S
C770 C768 1.419 . S
C770 C771 1.362 . S
C771 H761 0.930 . S
C771 C764 1.409 . S
C771 C770 1.362 . S
H772 C778 0.930 . S
H773 C781 0.930 . S
H774 C782 0.930 . S
H775 C783 0.930 . S
H776 C786 0.930 . S
H777 C787 0.930 . S
C778 H772 0.930 . S
C778 C779 1.355 . S
C778 C780 1.415 . S
C779 C778 1.355 . S
C779 C781 1.419 . S
C780 C778 1.415 . S
C780 C785 1.425 . S
C780 C787 1.409 . S
C781 H773 0.930 . S
C781 C779 1.419 . S
C781 C782 1.362 . S
C782 H774 0.930 . S
C782 C781 1.362 . S
C782 C785 1.409 . S
C783 H775 0.930 . S
C783 C784 1.355 . S
C783 C785 1.415 . S
C784 C783 1.355 . S
C784 C786 1.419 . S
C785 C780 1.425 . S
C785 C782 1.409 . S
C785 C783 1.415 . S
C786 H776 0.930 . S
C786 C784 1.419 . S
C786 C787 1.362 . S
C787 H777 0.930 . S
C787 C780 1.409 . S
C787 C786 1.362 . S
H788 C794 0.930 . S
H789 C797 0.930 . S
H790 C798 0.930 . S
H791 C799 0.930 . S
H792 C802 0.930 . S
H793 C803 0.930 . S
C794 H788 0.930 . S
C794 C795 1.355 . S
C794 C796 1.415 . S
C795 C794 1.355 . S
C795 C797 1.419 . S
C796 C794 1.415 . S
C796 C801 1.425 . S
C796 C803 1.409 . S
C797 H789 0.930 . S
C797 C795 1.419 . S
C797 C798 1.362 . S
C798 H790 0.930 . S
C798 C797 1.362 . S
C798 C801 1.409 . S
C799 H791 0.930 . S
C799 C800 1.355 . S
C799 C801 1.415 . S
C800 C799 1.355 . S
C800 C802 1.419 . S
C801 C796 1.425 . S
C801 C798 1.409 . S
C801 C799 1.415 . S
C802 H792 0.930 . S
C802 C800 1.419 . S
C802 C803 1.362 . S
C803 H793 0.930 . S
C803 C796 1.409 . S
C803 C802 1.362 . S
H804 C810 0.930 . S
H805 C813 0.930 . S
H806 C814 0.930 . S
H807 C815 0.930 . S
H808 C818 0.930 . S
H809 C819 0.930 . S
C810 H804 0.930 . S
C810 C811 1.355 . S
C810 C812 1.415 . S
C811 C810 1.355 . S
C811 C813 1.419 . S
C812 C810 1.415 . S
C812 C817 1.425 . S
C812 C819 1.409 . S
C813 H805 0.930 . S
C813 C811 1.419 . S
C813 C814 1.362 . S
C814 H806 0.930 . S
C814 C813 1.362 . S
C814 C817 1.409 . S
C815 H807 0.930 . S
C815 C816 1.355 . S
C815 C817 1.415 . S
C816 C815 1.355 . S
C816 C818 1.419 . S
C817 C812 1.425 . S
C817 C814 1.409 . S
C817 C815 1.415 . S
C818 H808 0.930 . S
C818 C816 1.419 . S
C818 C819 1.362 . S
C819 H809 0.930 . S
C819 C812 1.409 . S
C819 C818 1.362 . S
H820 C826 0.930 . S
H821 C829 0.930 . S
H822 C830 0.930 . S
H823 C831 0.930 . S
H824 C834 0.930 . S
H825 C835 0.930 . S
C826 H820 0.930 . S
C826 C827 1.355 . S
C826 C828 1.415 . S
C827 C826 1.355 . S
C827 C829 1.419 . S
C828 C826 1.415 . S
C828 C833 1.425 . S
C828 C835 1.409 . S
C829 H821 0.930 . S
C829 C827 1.419 . S
C829 C830 1.362 . S
C830 H822 0.930 . S
C830 C829 1.362 . S
C830 C833 1.409 . S
C831 H823 0.930 . S
C831 C832 1.355 . S
C831 C833 1.415 . S
C832 C831 1.355 . S
C832 C834 1.419 . S
C833 C828 1.425 . S
C833 C830 1.409 . S
C833 C831 1.415 . S
C834 H824 0.930 . S
C834 C832 1.419 . S
C834 C835 1.362 . S
C835 H825 0.930 . S
C835 C828 1.409 . S
C835 C834 1.362 . S
H836 C842 0.930 . S
H837 C845 0.930 . S
H838 C846 0.930 . S
H839 C847 0.930 . S
H840 C850 0.930 . S
H841 C851 0.930 . S
C842 H836 0.930 . S
C842 C843 1.355 . S
C842 C844 1.415 . S
C843 C842 1.355 . S
C843 C845 1.419 . S
C844 C842 1.415 . S
C844 C849 1.425 . S
C844 C851 1.409 . S
C845 H837 0.930 . S
C845 C843 1.419 . S
C845 C846 1.362 . S
C846 H838 0.930 . S
C846 C845 1.362 . S
C846 C849 1.409 . S
C847 H839 0.930 . S
C847 C848 1.355 . S
C847 C849 1.415 . S
C848 C847 1.355 . S
C848 C850 1.419 . S
C849 C844 1.425 . S
C849 C846 1.409 . S
C849 C847 1.415 . S
C850 H840 0.930 . S
C850 C848 1.419 . S
C850 C851 1.362 . S
C851 H841 0.930 . S
C851 C844 1.409 . S
C851 C850 1.362 . S
H852 C858 0.930 . S
H853 C861 0.930 . S
H854 C862 0.930 . S
H855 C863 0.930 . S
H856 C866 0.930 . S
H857 C867 0.930 . S
C858 H852 0.930 . S
C858 C859 1.355 . S
C858 C860 1.415 . S
C859 C858 1.355 . S
C859 C861 1.419 . S
C860 C858 1.415 . S
C860 C865 1.425 . S
C860 C867 1.409 . S
C861 H853 0.930 . S
C861 C859 1.419 . S
C861 C862 1.362 . S
C862 H854 0.930 . S
C862 C861 1.362 . S
C862 C865 1.409 . S
C863 H855 0.930 . S
C863 C864 1.355 . S
C863 C865 1.415 . S
C864 C863 1.355 . S
C864 C866 1.419 . S
C865 C860 1.425 . S
C865 C862 1.409 . S
C865 C863 1.415 . S
C866 H856 0.930 . S
C866 C864 1.419 . S
C866 C867 1.362 . S
C867 H857 0.930 . S
C867 C860 1.409 . S
C867 C866 1.362 . S
H868 C874 0.930 . S
H869 C877 0.930 . S
H870 C878 0.930 . S
H871 C879 0.930 . S
H872 C882 0.930 . S
H873 C883 0.930 . S
C874 H868 0.930 . S
C874 C875 1.355 . S
C874 C876 1.415 . S
C875 C874 1.355 . S
C875 C877 1.419 . S
C876 C874 1.415 . S
C876 C881 1.425 . S
C876 C883 1.409 . S
C877 H869 0.930 . S
C877 C875 1.419 . S
C877 C878 1.362 . S
C878 H870 0.930 . S
C878 C877 1.362 . S
C878 C881 1.409 . S
C879 H871 0.930 . S
C879 C880 1.355 . S
C879 C881 1.415 . S
C880 C879 1.355 . S
C880 C882 1.419 . S
C881 C876 1.425 . S
C881 C878 1.409 . S
C881 C879 1.415 . S
C882 H872 0.930 . S
C882 C880 1.419 . S
C882 C883 1.362 . S
C883 H873 0.930 . S
C883 C876 1.409 . S
C883 C882 1.362 . S
H884 C890 0.930 . S
H885 C893 0.930 . S
H886 C894 0.930 . S
H887 C895 0.930 . S
H888 C898 0.930 . S
H889 C899 0.930 . S
C890 H884 0.930 . S
C890 C891 1.355 . S
C890 C892 1.415 . S
C891 C890 1.355 . S
C891 C893 1.419 . S
C892 C890 1.415 . S
C892 C897 1.425 . S
C892 C899 1.409 . S
C893 H885 0.930 . S
C893 C891 1.419 . S
C893 C894 1.362 . S
C894 H886 0.930 . S
C894 C893 1.362 . S
C894 C897 1.409 . S
C895 H887 0.930 . S
C895 C896 1.355 . S
C895 C897 1.415 . S
C896 C895 1.355 . S
C896 C898 1.419 . S
C897 C892 1.425 . S
C897 C894 1.409 . S
C897 C895 1.415 . S
C898 H888 0.930 . S
C898 C896 1.419 . S
C898 C899 1.362 . S
C899 H889 0.930 . S
C899 C892 1.409 . S
C899 C898 1.362 . S
H900 C906 0.930 . S
H901 C909 0.930 . S
H902 C910 0.930 . S
H903 C911 0.930 . S
H904 C914 0.930 1_556 S
H905 C915 0.930 . S
C906 H900 0.930 . S
C906 C907 1.355 . S
C906 C908 1.415 . S
C907 C906 1.355 . S
C907 C909 1.419 . S
C908 C906 1.415 . S
C908 C913 1.425 . S
C908 C915 1.409 . S
C909 H901 0.930 . S
C909 C907 1.419 . S
C909 C910 1.362 . S
C910 H902 0.930 . S
C910 C909 1.362 . S
C910 C913 1.409 . S
C911 H903 0.930 . S
C911 C912 1.355 . S
C911 C913 1.415 . S
C912 C911 1.355 . S
C912 C914 1.419 . S
C913 C908 1.425 . S
C913 C910 1.409 . S
C913 C911 1.415 . S
C914 H904 0.930 1_554 S
C914 C912 1.419 . S
C914 C915 1.362 . S
C915 H905 0.930 . S
C915 C908 1.409 . S
C915 C914 1.362 . S
H916 C922 0.930 . S
H917 C925 0.930 . S
H918 C926 0.930 . S
H919 C927 0.930 . S
H920 C930 0.930 . S
H921 C931 0.930 . S
C922 H916 0.930 . S
C922 C923 1.355 . S
C922 C924 1.415 . S
C923 C922 1.355 . S
C923 C925 1.419 . S
C924 C922 1.415 . S
C924 C929 1.425 . S
C924 C931 1.409 . S
C925 H917 0.930 . S
C925 C923 1.419 . S
C925 C926 1.362 . S
C926 H918 0.930 . S
C926 C925 1.362 . S
C926 C929 1.409 . S
C927 H919 0.930 . S
C927 C928 1.355 . S
C927 C929 1.415 . S
C928 C927 1.355 . S
C928 C930 1.419 . S
C929 C924 1.425 . S
C929 C926 1.409 . S
C929 C927 1.415 . S
C930 H920 0.930 . S
C930 C928 1.419 . S
C930 C931 1.362 . S
C931 H921 0.930 . S
C931 C924 1.409 . S
C931 C930 1.362 . S
H932 C938 0.930 . S
H933 C941 0.930 . S
H934 C942 0.930 . S
H935 C943 0.930 . S
H936 C946 0.930 . S
H937 C947 0.930 . S
C938 H932 0.930 . S
C938 C939 1.355 . S
C938 C940 1.415 . S
C939 C938 1.355 . S
C939 C941 1.419 . S
C940 C938 1.415 . S
C940 C945 1.425 . S
C940 C947 1.409 . S
C941 H933 0.930 . S
C941 C939 1.419 . S
C941 C942 1.362 . S
C942 H934 0.930 . S
C942 C941 1.362 . S
C942 C945 1.409 . S
C943 H935 0.930 . S
C943 C944 1.355 . S
C943 C945 1.415 . S
C944 C943 1.355 . S
C944 C946 1.419 . S
C945 C940 1.425 . S
C945 C942 1.409 . S
C945 C943 1.415 . S
C946 H936 0.930 . S
C946 C944 1.419 . S
C946 C947 1.362 . S
C947 H937 0.930 . S
C947 C940 1.409 . S
C947 C946 1.362 . S
H948 C954 0.930 . S
H949 C957 0.930 . S
H950 C958 0.930 . S
H951 C959 0.930 . S
H952 C962 0.930 . S
H953 C963 0.930 . S
C954 H948 0.930 . S
C954 C955 1.355 . S
C954 C956 1.415 . S
C955 C954 1.355 . S
C955 C957 1.419 . S
C956 C954 1.415 . S
C956 C961 1.425 . S
C956 C963 1.409 . S
C957 H949 0.930 . S
C957 C955 1.419 . S
C957 C958 1.362 . S
C958 H950 0.930 . S
C958 C957 1.362 . S
C958 C961 1.409 . S
C959 H951 0.930 . S
C959 C960 1.355 . S
C959 C961 1.415 . S
C960 C959 1.355 . S
C960 C962 1.419 . S
C961 C956 1.425 . S
C961 C958 1.409 . S
C961 C959 1.415 . S
C962 H952 0.930 . S
C962 C960 1.419 . S
C962 C963 1.362 . S
C963 H953 0.930 . S
C963 C956 1.409 . S
C963 C962 1.362 . S
H964 C970 0.930 . S
H965 C973 0.930 . S
H966 C974 0.930 . S
H967 C975 0.930 . S
H968 C978 0.930 . S
H969 C979 0.930 . S
C970 H964 0.930 . S
C970 C971 1.355 . S
C970 C972 1.415 . S
C971 C970 1.355 . S
C971 C973 1.419 . S
C972 C970 1.415 . S
C972 C977 1.425 . S
C972 C979 1.409 . S
C973 H965 0.930 . S
C973 C971 1.419 . S
C973 C974 1.362 . S
C974 H966 0.930 . S
C974 C973 1.362 . S
C974 C977 1.409 . S
C975 H967 0.930 . S
C975 C976 1.355 . S
C975 C977 1.415 . S
C976 C975 1.355 . S
C976 C978 1.419 . S
C977 C972 1.425 . S
C977 C974 1.409 . S
C977 C975 1.415 . S
C978 H968 0.930 . S
C978 C976 1.419 . S
C978 C979 1.362 . S
C979 H969 0.930 . S
C979 C972 1.409 . S
C979 C978 1.362 . S
H980 C986 0.930 . S
H981 C989 0.930 . S
H982 C990 0.930 . S
H983 C991 0.930 . S
H984 C994 0.930 . S
H985 C995 0.930 . S
C986 H980 0.930 . S
C986 C987 1.355 . S
C986 C988 1.415 . S
C987 C986 1.355 . S
C987 C989 1.419 . S
C988 C986 1.415 . S
C988 C993 1.425 . S
C988 C995 1.409 . S
C989 H981 0.930 . S
C989 C987 1.419 . S
C989 C990 1.362 . S
C990 H982 0.930 . S
C990 C989 1.362 . S
C990 C993 1.409 . S
C991 H983 0.930 . S
C991 C992 1.355 . S
C991 C993 1.415 . S
C992 C991 1.355 . S
C992 C994 1.419 . S
C993 C988 1.425 . S
C993 C990 1.409 . S
C993 C991 1.415 . S
C994 H984 0.930 . S
C994 C992 1.419 . S
C994 C995 1.362 . S
C995 H985 0.930 . S
C995 C988 1.409 . S
C995 C994 1.362 . S
H996 C1002 0.930 . S
H997 C1005 0.930 . S
H998 C1006 0.930 . S
H999 C1007 0.930 . S
H1000 C1010 0.930 . S
H1001 C1011 0.930 . S
C1002 H996 0.930 . S
C1002 C1003 1.355 . S
C1002 C1004 1.415 . S
C1003 C1002 1.355 . S
C1003 C1005 1.419 . S
C1004 C1002 1.415 . S
C1004 C1009 1.425 . S
C1004 C1011 1.409 . S
C1005 H997 0.930 . S
C1005 C1003 1.419 . S
C1005 C1006 1.362 . S
C1006 H998 0.930 . S
C1006 C1005 1.362 . S
C1006 C1009 1.409 . S
C1007 H999 0.930 . S
C1007 C1008 1.355 . S
C1007 C1009 1.415 . S
C1008 C1007 1.355 . S
C1008 C1010 1.419 . S
C1009 C1004 1.425 . S
C1009 C1006 1.409 . S
C1009 C1007 1.415 . S
C1010 H1000 0.930 . S
C1010 C1008 1.419 . S
C1010 C1011 1.362 . S
C1011 H1001 0.930 . S
C1011 C1004 1.409 . S
C1011 C1010 1.362 . S
H1012 C1018 0.930 . S
H1013 C1021 0.930 . S
H1014 C1022 0.930 . S
H1015 C1023 0.930 . S
H1016 C1026 0.930 . S
H1017 C1027 0.930 . S
C1018 H1012 0.930 . S
C1018 C1019 1.355 . S
C1018 C1020 1.415 . S
C1019 C1018 1.355 . S
C1019 C1021 1.419 . S
C1020 C1018 1.415 . S
C1020 C1025 1.425 . S
C1020 C1027 1.409 . S
C1021 H1013 0.930 . S
C1021 C1019 1.419 . S
C1021 C1022 1.362 . S
C1022 H1014 0.930 . S
C1022 C1021 1.362 . S
C1022 C1025 1.409 . S
C1023 H1015 0.930 . S
C1023 C1024 1.355 . S
C1023 C1025 1.415 . S
C1024 C1023 1.355 . S
C1024 C1026 1.419 . S
C1025 C1020 1.425 . S
C1025 C1022 1.409 . S
C1025 C1023 1.415 . S
C1026 H1016 0.930 . S
C1026 C1024 1.419 . S
C1026 C1027 1.362 . S
C1027 H1017 0.930 . S
C1027 C1020 1.409 . S
C1027 C1026 1.362 . S
H1028 C1034 0.930 . S
H1029 C1037 0.930 . S
H1030 C1038 0.930 . S
H1031 C1039 0.930 . S
H1032 C1042 0.930 . S
H1033 C1043 0.930 . S
C1034 H1028 0.930 . S
C1034 C1035 1.355 . S
C1034 C1036 1.415 . S
C1035 C1034 1.355 . S
C1035 C1037 1.419 . S
C1036 C1034 1.415 . S
C1036 C1041 1.425 . S
C1036 C1043 1.409 . S
C1037 H1029 0.930 . S
C1037 C1035 1.419 . S
C1037 C1038 1.362 . S
C1038 H1030 0.930 . S
C1038 C1037 1.362 . S
C1038 C1041 1.409 . S
C1039 H1031 0.930 . S
C1039 C1040 1.355 . S
C1039 C1041 1.415 . S
C1040 C1039 1.355 . S
C1040 C1042 1.419 . S
C1041 C1036 1.425 . S
C1041 C1038 1.409 . S
C1041 C1039 1.415 . S
C1042 H1032 0.930 . S
C1042 C1040 1.419 . S
C1042 C1043 1.362 . S
C1043 H1033 0.930 . S
C1043 C1036 1.409 . S
C1043 C1042 1.362 . S
H1044 C1050 0.930 . S
H1045 C1053 0.930 . S
H1046 C1054 0.930 . S
H1047 C1055 0.930 . S
H1048 C1058 0.930 . S
H1049 C1059 0.930 . S
C1050 H1044 0.930 . S
C1050 C1051 1.355 . S
C1050 C1052 1.415 . S
C1051 C1050 1.355 . S
C1051 C1053 1.419 . S
C1052 C1050 1.415 . S
C1052 C1057 1.425 . S
C1052 C1059 1.409 . S
C1053 H1045 0.930 . S
C1053 C1051 1.419 . S
C1053 C1054 1.362 . S
C1054 H1046 0.930 . S
C1054 C1053 1.362 . S
C1054 C1057 1.409 . S
C1055 H1047 0.930 . S
C1055 C1056 1.355 . S
C1055 C1057 1.415 . S
C1056 C1055 1.355 . S
C1056 C1058 1.419 . S
C1057 C1052 1.425 . S
C1057 C1054 1.409 . S
C1057 C1055 1.415 . S
C1058 H1048 0.930 . S
C1058 C1056 1.419 . S
C1058 C1059 1.362 . S
C1059 H1049 0.930 . S
C1059 C1052 1.409 . S
C1059 C1058 1.362 . S
H1060 C1066 0.930 . S
H1061 C1069 0.930 . S
H1062 C1070 0.930 . S
H1063 C1071 0.930 . S
H1064 C1074 0.930 . S
H1065 C1075 0.930 . S
C1066 H1060 0.930 . S
C1066 C1067 1.355 . S
C1066 C1068 1.415 . S
C1067 C1066 1.355 . S
C1067 C1069 1.419 . S
C1068 C1066 1.415 . S
C1068 C1073 1.425 . S
C1068 C1075 1.409 . S
C1069 H1061 0.930 . S
C1069 C1067 1.419 . S
C1069 C1070 1.362 . S
C1070 H1062 0.930 . S
C1070 C1069 1.362 . S
C1070 C1073 1.409 . S
C1071 H1063 0.930 . S
C1071 C1072 1.355 . S
C1071 C1073 1.415 . S
C1072 C1071 1.355 . S
C1072 C1074 1.419 . S
C1073 C1068 1.425 . S
C1073 C1070 1.409 . S
C1073 C1071 1.415 . S
C1074 H1064 0.930 . S
C1074 C1072 1.419 . S
C1074 C1075 1.362 . S
C1075 H1065 0.930 . S
C1075 C1068 1.409 . S
C1075 C1074 1.362 . S
H1076 C1082 0.930 . S
H1077 C1085 0.930 . S
H1078 C1086 0.930 . S
H1079 C1087 0.930 . S
H1080 C1090 0.930 . S
H1081 C1091 0.930 . S
C1082 H1076 0.930 . S
C1082 C1083 1.355 . S
C1082 C1084 1.415 . S
C1083 C1082 1.355 . S
C1083 C1085 1.419 . S
C1084 C1082 1.415 . S
C1084 C1089 1.425 . S
C1084 C1091 1.409 . S
C1085 H1077 0.930 . S
C1085 C1083 1.419 . S
C1085 C1086 1.362 . S
C1086 H1078 0.930 . S
C1086 C1085 1.362 . S
C1086 C1089 1.409 . S
C1087 H1079 0.930 . S
C1087 C1088 1.355 . S
C1087 C1089 1.415 . S
C1088 C1087 1.355 . S
C1088 C1090 1.419 . S
C1089 C1084 1.425 . S
C1089 C1086 1.409 . S
C1089 C1087 1.415 . S
C1090 H1080 0.930 . S
C1090 C1088 1.419 . S
C1090 C1091 1.362 . S
C1091 H1081 0.930 . S
C1091 C1084 1.409 . S
C1091 C1090 1.362 . S
H1092 C1098 0.930 . S
H1093 C1101 0.930 . S
H1094 C1102 0.930 . S
H1095 C1103 0.930 . S
H1096 C1106 0.930 . S
H1097 C1107 0.930 . S
C1098 H1092 0.930 . S
C1098 C1099 1.355 . S
C1098 C1100 1.415 . S
C1099 C1098 1.355 . S
C1099 C1101 1.419 . S
C1100 C1098 1.415 . S
C1100 C1105 1.425 . S
C1100 C1107 1.409 . S
C1101 H1093 0.930 . S
C1101 C1099 1.419 . S
C1101 C1102 1.362 . S
C1102 H1094 0.930 . S
C1102 C1101 1.362 . S
C1102 C1105 1.409 . S
C1103 H1095 0.930 . S
C1103 C1104 1.355 . S
C1103 C1105 1.415 . S
C1104 C1103 1.355 . S
C1104 C1106 1.419 . S
C1105 C1100 1.425 . S
C1105 C1102 1.409 . S
C1105 C1103 1.415 . S
C1106 H1096 0.930 . S
C1106 C1104 1.419 . S
C1106 C1107 1.362 . S
C1107 H1097 0.930 . S
C1107 C1100 1.409 . S
C1107 C1106 1.362 . S
H1108 C1114 0.930 . S
H1109 C1117 0.930 . S
H1110 C1118 0.930 . S
H1111 C1119 0.930 . S
H1112 C1122 0.930 . S
H1113 C1123 0.930 . S
C1114 H1108 0.930 . S
C1114 C1115 1.355 . S
C1114 C1116 1.415 . S
C1115 C1114 1.355 . S
C1115 C1117 1.419 . S
C1116 C1114 1.415 . S
C1116 C1121 1.425 . S
C1116 C1123 1.409 . S
C1117 H1109 0.930 . S
C1117 C1115 1.419 . S
C1117 C1118 1.362 . S
C1118 H1110 0.930 . S
C1118 C1117 1.362 . S
C1118 C1121 1.409 . S
C1119 H1111 0.930 . S
C1119 C1120 1.355 . S
C1119 C1121 1.415 . S
C1120 C1119 1.355 . S
C1120 C1122 1.419 . S
C1121 C1116 1.425 . S
C1121 C1118 1.409 . S
C1121 C1119 1.415 . S
C1122 H1112 0.930 . S
C1122 C1120 1.419 . S
C1122 C1123 1.362 . S
C1123 H1113 0.930 . S
C1123 C1116 1.409 . S
C1123 C1122 1.362 . S
H1124 C1130 0.930 . S
H1125 C1133 0.930 . S
H1126 C1134 0.930 . S
H1127 C1135 0.930 . S
H1128 C1138 0.930 . S
H1129 C1139 0.930 . S
C1130 H1124 0.930 . S
C1130 C1131 1.355 . S
C1130 C1132 1.415 . S
C1131 C1130 1.355 . S
C1131 C1133 1.419 . S
C1132 C1130 1.415 . S
C1132 C1137 1.425 . S
C1132 C1139 1.409 . S
C1133 H1125 0.930 . S
C1133 C1131 1.419 . S
C1133 C1134 1.362 . S
C1134 H1126 0.930 . S
C1134 C1133 1.362 . S
C1134 C1137 1.409 . S
C1135 H1127 0.930 . S
C1135 C1136 1.355 . S
C1135 C1137 1.415 . S
C1136 C1135 1.355 . S
C1136 C1138 1.419 . S
C1137 C1132 1.425 . S
C1137 C1134 1.409 . S
C1137 C1135 1.415 . S
C1138 H1128 0.930 . S
C1138 C1136 1.419 . S
C1138 C1139 1.362 . S
C1139 H1129 0.930 . S
C1139 C1132 1.409 . S
C1139 C1138 1.362 . S
H1140 C1146 0.930 . S
H1141 C1149 0.930 . S
H1142 C1150 0.930 . S
H1143 C1151 0.930 . S
H1144 C1154 0.930 . S
H1145 C1155 0.930 . S
C1146 H1140 0.930 . S
C1146 C1147 1.355 . S
C1146 C1148 1.415 . S
C1147 C1146 1.355 . S
C1147 C1149 1.419 . S
C1148 C1146 1.415 . S
C1148 C1153 1.425 . S
C1148 C1155 1.409 . S
C1149 H1141 0.930 . S
C1149 C1147 1.419 . S
C1149 C1150 1.362 . S
C1150 H1142 0.930 . S
C1150 C1149 1.362 . S
C1150 C1153 1.409 . S
C1151 H1143 0.930 . S
C1151 C1152 1.355 . S
C1151 C1153 1.415 . S
C1152 C1151 1.355 . S
C1152 C1154 1.419 . S
C1153 C1148 1.425 . S
C1153 C1150 1.409 . S
C1153 C1151 1.415 . S
C1154 H1144 0.930 . S
C1154 C1152 1.419 . S
C1154 C1155 1.362 . S
C1155 H1145 0.930 . S
C1155 C1148 1.409 . S
C1155 C1154 1.362 . S
H1156 C1162 0.930 . S
H1157 C1165 0.930 . S
H1158 C1166 0.930 . S
H1159 C1167 0.930 . S
H1160 C1170 0.930 . S
H1161 C1171 0.930 . S
C1162 H1156 0.930 . S
C1162 C1163 1.355 . S
C1162 C1164 1.415 . S
C1163 C1162 1.355 . S
C1163 C1165 1.419 . S
C1164 C1162 1.415 . S
C1164 C1169 1.425 . S
C1164 C1171 1.409 . S
C1165 H1157 0.930 . S
C1165 C1163 1.419 . S
C1165 C1166 1.362 . S
C1166 H1158 0.930 . S
C1166 C1165 1.362 . S
C1166 C1169 1.409 . S
C1167 H1159 0.930 . S
C1167 C1168 1.355 . S
C1167 C1169 1.415 . S
C1168 C1167 1.355 . S
C1168 C1170 1.419 . S
C1169 C1164 1.425 . S
C1169 C1166 1.409 . S
C1169 C1167 1.415 . S
C1170 H1160 0.930 . S
C1170 C1168 1.419 . S
C1170 C1171 1.362 . S
C1171 H1161 0.930 . S
C1171 C1164 1.409 . S
C1171 C1170 1.362 . S
H1172 C1178 0.930 . S
H1173 C1181 0.930 . S
H1174 C1182 0.930 . S
H1175 C1183 0.930 . S
H1176 C1186 0.930 . S
H1177 C1187 0.930 . S
C1178 H1172 0.930 . S
C1178 C1179 1.355 . S
C1178 C1180 1.415 . S
C1179 C1178 1.355 . S
C1179 C1181 1.419 . S
C1180 C1178 1.415 . S
C1180 C1185 1.425 . S
C1180 C1187 1.409 . S
C1181 H1173 0.930 . S
C1181 C1179 1.419 . S
C1181 C1182 1.362 . S
C1182 H1174 0.930 . S
C1182 C1181 1.362 . S
C1182 C1185 1.409 . S
C1183 H1175 0.930 . S
C1183 C1184 1.355 . S
C1183 C1185 1.415 . S
C1184 C1183 1.355 . S
C1184 C1186 1.419 . S
C1185 C1180 1.425 . S
C1185 C1182 1.409 . S
C1185 C1183 1.415 . S
C1186 H1176 0.930 . S
C1186 C1184 1.419 . S
C1186 C1187 1.362 . S
C1187 H1177 0.930 . S
C1187 C1180 1.409 . S
C1187 C1186 1.362 . S
H1188 C1194 0.930 . S
H1189 C1197 0.930 . S
H1190 C1198 0.930 . S
H1191 C1199 0.930 . S
H1192 C1202 0.930 . S
H1193 C1203 0.930 . S
C1194 H1188 0.930 . S
C1194 C1195 1.355 . S
C1194 C1196 1.415 . S
C1195 C1194 1.355 . S
C1195 C1197 1.419 . S
C1196 C1194 1.415 . S
C1196 C1201 1.425 . S
C1196 C1203 1.409 . S
C1197 H1189 0.930 . S
C1197 C1195 1.419 . S
C1197 C1198 1.362 . S
C1198 H1190 0.930 . S
C1198 C1197 1.362 . S
C1198 C1201 1.409 . S
C1199 H1191 0.930 . S
C1199 C1200 1.355 . S
C1199 C1201 1.415 . S
C1200 C1199 1.355 . S
C1200 C1202 1.419 . S
C1201 C1196 1.425 . S
C1201 C1198 1.409 . S
C1201 C1199 1.415 . S
C1202 H1192 0.930 . S
C1202 C1200 1.419 . S
C1202 C1203 1.362 . S
C1203 H1193 0.930 . S
C1203 C1196 1.409 . S
C1203 C1202 1.362 . S
H1204 C1210 0.930 . S
H1205 C1213 0.930 . S
H1206 C1214 0.930 . S
H1207 C1215 0.930 . S
H1208 C1218 0.930 . S
H1209 C1219 0.930 . S
C1210 H1204 0.930 . S
C1210 C1211 1.355 . S
C1210 C1212 1.415 . S
C1211 C1210 1.355 . S
C1211 C1213 1.419 . S
C1212 C1210 1.415 . S
C1212 C1217 1.425 . S
C1212 C1219 1.409 . S
C1213 H1205 0.930 . S
C1213 C1211 1.419 . S
C1213 C1214 1.362 . S
C1214 H1206 0.930 . S
C1214 C1213 1.362 . S
C1214 C1217 1.409 . S
C1215 H1207 0.930 . S
C1215 C1216 1.355 . S
C1215 C1217 1.415 . S
C1216 C1215 1.355 . S
C1216 C1218 1.419 . S
C1217 C1212 1.425 . S
C1217 C1214 1.409 . S
C1217 C1215 1.415 . S
C1218 H1208 0.930 . S
C1218 C1216 1.419 . S
C1218 C1219 1.362 . S
C1219 H1209 0.930 . S
C1219 C1212 1.409 . S
C1219 C1218 1.362 . S
H1220 C1226 0.930 . S
H1221 C1229 0.930 . S
H1222 C1230 0.930 . S
H1223 C1231 0.930 . S
H1224 C1234 0.930 . S
H1225 C1235 0.930 . S
C1226 H1220 0.930 . S
C1226 C1227 1.355 . S
C1226 C1228 1.415 . S
C1227 C1226 1.355 . S
C1227 C1229 1.419 . S
C1228 C1226 1.415 . S
C1228 C1233 1.425 . S
C1228 C1235 1.409 . S
C1229 H1221 0.930 . S
C1229 C1227 1.419 . S
C1229 C1230 1.362 . S
C1230 H1222 0.930 . S
C1230 C1229 1.362 . S
C1230 C1233 1.409 . S
C1231 H1223 0.930 . S
C1231 C1232 1.355 . S
C1231 C1233 1.415 . S
C1232 C1231 1.355 . S
C1232 C1234 1.419 . S
C1233 C1228 1.425 . S
C1233 C1230 1.409 . S
C1233 C1231 1.415 . S
C1234 H1224 0.930 . S
C1234 C1232 1.419 . S
C1234 C1235 1.362 . S
C1235 H1225 0.930 . S
C1235 C1228 1.409 . S
C1235 C1234 1.362 . S
H1236 C1242 0.930 . S
H1237 C1245 0.930 . S
H1238 C1246 0.930 . S
H1239 C1247 0.930 . S
H1240 C1250 0.930 . S
H1241 C1251 0.930 . S
C1242 H1236 0.930 . S
C1242 C1243 1.355 . S
C1242 C1244 1.415 . S
C1243 C1242 1.355 . S
C1243 C1245 1.419 . S
C1244 C1242 1.415 . S
C1244 C1249 1.425 . S
C1244 C1251 1.409 . S
C1245 H1237 0.930 . S
C1245 C1243 1.419 . S
C1245 C1246 1.362 . S
C1246 H1238 0.930 . S
C1246 C1245 1.362 . S
C1246 C1249 1.409 . S
C1247 H1239 0.930 . S
C1247 C1248 1.355 . S
C1247 C1249 1.415 . S
C1248 C1247 1.355 . S
C1248 C1250 1.419 . S
C1249 C1244 1.425 . S
C1249 C1246 1.409 . S
C1249 C1247 1.415 . S
C1250 H1240 0.930 . S
C1250 C1248 1.419 . S
C1250 C1251 1.362 . S
C1251 H1241 0.930 . S
C1251 C1244 1.409 . S
C1251 C1250 1.362 . S
H1252 C1258 0.930 . S
H1253 C1261 0.930 . S
H1254 C1262 0.930 . S
H1255 C1263 0.930 . S
H1256 C1266 0.930 . S
H1257 C1267 0.930 . S
C1258 H1252 0.930 . S
C1258 C1259 1.355 . S
C1258 C1260 1.415 . S
C1259 C1258 1.355 . S
C1259 C1261 1.419 . S
C1260 C1258 1.415 . S
C1260 C1265 1.425 . S
C1260 C1267 1.409 . S
C1261 H1253 0.930 . S
C1261 C1259 1.419 . S
C1261 C1262 1.362 . S
C1262 H1254 0.930 . S
C1262 C1261 1.362 . S
C1262 C1265 1.409 . S
C1263 H1255 0.930 . S
C1263 C1264 1.355 . S
C1263 C1265 1.415 . S
C1264 C1263 1.355 . S
C1264 C1266 1.419 . S
C1265 C1260 1.425 . S
C1265 C1262 1.409 . S
C1265 C1263 1.415 . S
C1266 H1256 0.930 . S
C1266 C1264 1.419 . S
C1266 C1267 1.362 . S
C1267 H1257 0.930 . S
C1267 C1260 1.409 . S
C1267 C1266 1.362 . S
H1268 C1274 0.930 . S
H1269 C1277 0.930 . S
H1270 C1278 0.930 . S
H1271 C1279 0.930 . S
H1272 C1282 0.930 . S
H1273 C1283 0.930 . S
C1274 H1268 0.930 . S
C1274 C1275 1.355 . S
C1274 C1276 1.415 . S
C1275 C1274 1.355 . S
C1275 C1277 1.419 . S
C1276 C1274 1.415 . S
C1276 C1281 1.425 . S
C1276 C1283 1.409 . S
C1277 H1269 0.930 . S
C1277 C1275 1.419 . S
C1277 C1278 1.362 . S
C1278 H1270 0.930 . S
C1278 C1277 1.362 . S
C1278 C1281 1.409 . S
C1279 H1271 0.930 . S
C1279 C1280 1.355 . S
C1279 C1281 1.415 . S
C1280 C1279 1.355 . S
C1280 C1282 1.419 . S
C1281 C1276 1.425 . S
C1281 C1278 1.409 . S
C1281 C1279 1.415 . S
C1282 H1272 0.930 . S
C1282 C1280 1.419 . S
C1282 C1283 1.362 . S
C1283 H1273 0.930 . S
C1283 C1276 1.409 . S
C1283 C1282 1.362 . S
H1284 C1290 0.930 . S
H1285 C1293 0.930 . S
H1286 C1294 0.930 . S
H1287 C1295 0.930 . S
H1288 C1298 0.930 . S
H1289 C1299 0.930 . S
C1290 H1284 0.930 . S
C1290 C1291 1.355 . S
C1290 C1292 1.415 . S
C1291 C1290 1.355 . S
C1291 C1293 1.419 . S
C1292 C1290 1.415 . S
C1292 C1297 1.425 . S
C1292 C1299 1.409 . S
C1293 H1285 0.930 . S
C1293 C1291 1.419 . S
C1293 C1294 1.362 . S
C1294 H1286 0.930 . S
C1294 C1293 1.362 . S
C1294 C1297 1.409 . S
C1295 H1287 0.930 . S
C1295 C1296 1.355 . S
C1295 C1297 1.415 . S
C1296 C1295 1.355 . S
C1296 C1298 1.419 . S
C1297 C1292 1.425 . S
C1297 C1294 1.409 . S
C1297 C1295 1.415 . S
C1298 H1288 0.930 . S
C1298 C1296 1.419 . S
C1298 C1299 1.362 . S
C1299 H1289 0.930 . S
C1299 C1292 1.409 . S
C1299 C1298 1.362 . S
H1300 C1306 0.930 . S
H1301 C1309 0.930 . S
H1302 C1310 0.930 . S
H1303 C1311 0.930 . S
H1304 C1314 0.930 . S
H1305 C1315 0.930 . S
C1306 H1300 0.930 . S
C1306 C1307 1.355 . S
C1306 C1308 1.415 . S
C1307 C1306 1.355 . S
C1307 C1309 1.419 . S
C1308 C1306 1.415 . S
C1308 C1313 1.425 . S
C1308 C1315 1.409 . S
C1309 H1301 0.930 . S
C1309 C1307 1.419 . S
C1309 C1310 1.362 . S
C1310 H1302 0.930 . S
C1310 C1309 1.362 . S
C1310 C1313 1.409 . S
C1311 H1303 0.930 . S
C1311 C1312 1.355 . S
C1311 C1313 1.415 . S
C1312 C1311 1.355 . S
C1312 C1314 1.419 . S
C1313 C1308 1.425 . S
C1313 C1310 1.409 . S
C1313 C1311 1.415 . S
C1314 H1304 0.930 . S
C1314 C1312 1.419 . S
C1314 C1315 1.362 . S
C1315 H1305 0.930 . S
C1315 C1308 1.409 . S
C1315 C1314 1.362 . S
H1316 C1322 0.930 . S
H1317 C1325 0.930 . S
H1318 C1326 0.930 . S
H1319 C1327 0.930 . S
H1320 C1330 0.930 . S
H1321 C1331 0.930 . S
C1322 H1316 0.930 . S
C1322 C1323 1.355 . S
C1322 C1324 1.415 . S
C1323 C1322 1.355 . S
C1323 C1325 1.419 . S
C1324 C1322 1.415 . S
C1324 C1329 1.425 . S
C1324 C1331 1.409 . S
C1325 H1317 0.930 . S
C1325 C1323 1.419 . S
C1325 C1326 1.362 . S
C1326 H1318 0.930 . S
C1326 C1325 1.362 . S
C1326 C1329 1.409 . S
C1327 H1319 0.930 . S
C1327 C1328 1.355 . S
C1327 C1329 1.415 . S
C1328 C1327 1.355 . S
C1328 C1330 1.419 . S
C1329 C1324 1.425 . S
C1329 C1326 1.409 . S
C1329 C1327 1.415 . S
C1330 H1320 0.930 . S
C1330 C1328 1.419 . S
C1330 C1331 1.362 . S
C1331 H1321 0.930 . S
C1331 C1324 1.409 . S
C1331 C1330 1.362 . S
H1332 C1338 0.930 . S
H1333 C1341 0.930 . S
H1334 C1342 0.930 . S
H1335 C1343 0.930 . S
H1336 C1346 0.930 . S
H1337 C1347 0.930 . S
C1338 H1332 0.930 . S
C1338 C1339 1.355 . S
C1338 C1340 1.415 . S
C1339 C1338 1.355 . S
C1339 C1341 1.419 . S
C1340 C1338 1.415 . S
C1340 C1345 1.425 . S
C1340 C1347 1.409 . S
C1341 H1333 0.930 . S
C1341 C1339 1.419 . S
C1341 C1342 1.362 . S
C1342 H1334 0.930 . S
C1342 C1341 1.362 . S
C1342 C1345 1.409 . S
C1343 H1335 0.930 . S
C1343 C1344 1.355 . S
C1343 C1345 1.415 . S
C1344 C1343 1.355 . S
C1344 C1346 1.419 . S
C1345 C1340 1.425 . S
C1345 C1342 1.409 . S
C1345 C1343 1.415 . S
C1346 H1336 0.930 . S
C1346 C1344 1.419 . S
C1346 C1347 1.362 . S
C1347 H1337 0.930 . S
C1347 C1340 1.409 . S
C1347 C1346 1.362 . S
H1348 C1354 0.930 . S
H1349 C1357 0.930 . S
H1350 C1358 0.930 . S
H1351 C1359 0.930 . S
H1352 C1362 0.930 . S
H1353 C1363 0.930 . S
C1354 H1348 0.930 . S
C1354 C1355 1.355 . S
C1354 C1356 1.415 . S
C1355 C1354 1.355 . S
C1355 C1357 1.419 . S
C1356 C1354 1.415 . S
C1356 C1361 1.425 . S
C1356 C1363 1.409 . S
C1357 H1349 0.930 . S
C1357 C1355 1.419 . S
C1357 C1358 1.362 . S
C1358 H1350 0.930 . S
C1358 C1357 1.362 . S
C1358 C1361 1.409 . S
C1359 H1351 0.930 . S
C1359 C1360 1.355 . S
C1359 C1361 1.415 . S
C1360 C1359 1.355 . S
C1360 C1362 1.419 . S
C1361 C1356 1.425 . S
C1361 C1358 1.409 . S
C1361 C1359 1.415 . S
C1362 H1352 0.930 . S
C1362 C1360 1.419 . S
C1362 C1363 1.362 . S
C1363 H1353 0.930 . S
C1363 C1356 1.409 . S
C1363 C1362 1.362 . S
H1364 C1370 0.930 . S
H1365 C1373 0.930 . S
H1366 C1374 0.930 . S
H1367 C1375 0.930 . S
H1368 C1378 0.930 . S
H1369 C1379 0.930 . S
C1370 H1364 0.930 . S
C1370 C1371 1.355 . S
C1370 C1372 1.415 . S
C1371 C1370 1.355 . S
C1371 C1373 1.419 . S
C1372 C1370 1.415 . S
C1372 C1377 1.425 . S
C1372 C1379 1.409 . S
C1373 H1365 0.930 . S
C1373 C1371 1.419 . S
C1373 C1374 1.362 . S
C1374 H1366 0.930 . S
C1374 C1373 1.362 . S
C1374 C1377 1.409 . S
C1375 H1367 0.930 . S
C1375 C1376 1.355 . S
C1375 C1377 1.415 . S
C1376 C1375 1.355 . S
C1376 C1378 1.419 . S
C1377 C1372 1.425 . S
C1377 C1374 1.409 . S
C1377 C1375 1.415 . S
C1378 H1368 0.930 . S
C1378 C1376 1.419 . S
C1378 C1379 1.362 . S
C1379 H1369 0.930 . S
C1379 C1372 1.409 . S
C1379 C1378 1.362 . S
H1380 C1386 0.930 . S
H1381 C1389 0.930 . S
H1382 C1390 0.930 . S
H1383 C1391 0.930 . S
H1384 C1394 0.930 . S
H1385 C1395 0.930 . S
C1386 H1380 0.930 . S
C1386 C1387 1.355 . S
C1386 C1388 1.415 . S
C1387 C1386 1.355 . S
C1387 C1389 1.419 . S
C1388 C1386 1.415 . S
C1388 C1393 1.425 . S
C1388 C1395 1.409 . S
C1389 H1381 0.930 . S
C1389 C1387 1.419 . S
C1389 C1390 1.362 . S
C1390 H1382 0.930 . S
C1390 C1389 1.362 . S
C1390 C1393 1.409 . S
C1391 H1383 0.930 . S
C1391 C1392 1.355 . S
C1391 C1393 1.415 . S
C1392 C1391 1.355 . S
C1392 C1394 1.419 . S
C1393 C1388 1.425 . S
C1393 C1390 1.409 . S
C1393 C1391 1.415 . S
C1394 H1384 0.930 . S
C1394 C1392 1.419 . S
C1394 C1395 1.362 . S
C1395 H1385 0.930 . S
C1395 C1388 1.409 . S
C1395 C1394 1.362 . S
H1396 C1402 0.930 . S
H1397 C1405 0.930 . S
H1398 C1406 0.930 . S
H1399 C1407 0.930 . S
H1400 C1410 0.930 . S
H1401 C1411 0.930 . S
C1402 H1396 0.930 . S
C1402 C1403 1.355 . S
C1402 C1404 1.415 . S
C1403 C1402 1.355 . S
C1403 C1405 1.419 . S
C1404 C1402 1.415 . S
C1404 C1409 1.425 . S
C1404 C1411 1.409 . S
C1405 H1397 0.930 . S
C1405 C1403 1.419 . S
C1405 C1406 1.362 . S
C1406 H1398 0.930 . S
C1406 C1405 1.362 . S
C1406 C1409 1.409 . S
C1407 H1399 0.930 . S
C1407 C1408 1.355 . S
C1407 C1409 1.415 . S
C1408 C1407 1.355 . S
C1408 C1410 1.419 . S
C1409 C1404 1.425 . S
C1409 C1406 1.409 . S
C1409 C1407 1.415 . S
C1410 H1400 0.930 . S
C1410 C1408 1.419 . S
C1410 C1411 1.362 . S
C1411 H1401 0.930 . S
C1411 C1404 1.409 . S
C1411 C1410 1.362 . S
C656 C355 1.593 . S
C651 C2 1.584 . S
C672 C333 1.543 . S
C667 C48 1.545 . S
C688 C330 0.808 . S
C683 C97 0.776 . S
C699 C149 0.564 . S
C704 C342 0.496 . S
C715 C189 1.584 . S
C720 C325 1.494 . S
C736 C347 0.801 . S
C731 C202 0.787 . S
C747 C248 0.616 . S
C752 C352 0.335 . S
C763 C297 1.589 . S
C768 C348 1.588 . S
C784 C406 2.951 . S
C779 C31 2.988 . S
C795 C52 1.495 . S
C800 C456 1.509 . S
C816 C379 1.433 . S
C811 C88 1.512 . S
C832 C455 0.800 . S
C827 C122 0.732 . S
C843 C162 0.787 . S
C848 C384 0.805 . S
C864 C450 2.915 . S
C859 C231 2.968 . S
C875 C252 1.540 . S
C880 C409 1.561 . S
C891 C288 1.565 . S
C896 C441 1.498 . S
C907 C29 1.571 . S
C912 C433 1.539 . S
C923 C191 1.523 . S
C928 C463 1.525 . S
C944 C387 1.503 . S
C939 C229 1.558 . S
C960 C438 0.829 . S
C955 C257 0.768 . S
C971 C292 2.978 . S
C976 C396 2.934 . S
C987 C92 2.978 . S
C992 C460 2.932 . S
C1008 C402 1.574 . S
C1003 C151 1.557 . S
C1019 C57 0.841 . S
C1024 C401 0.813 . S
C1035 C282 1.607 . S
C1040 C517 1.609 . S
C1051 C168 1.584 . S
C1056 C495 1.497 . S
C1072 C492 0.826 . S
C1067 C217 0.768 . S
C1088 C504 0.404 . S
C1083 C269 0.393 . S
C1099 C69 1.592 . S
C1104 C487 1.514 . S
C1120 C509 0.768 . S
C1115 C82 0.817 . S
C1131 C128 0.526 . S
C1136 C514 0.283 . S
C1147 C17 1.582 . S
C1152 C510 1.588 . S
C1163 C311 2.989 . S
C1168 C568 2.945 . S
C1184 C618 1.519 . S
C1179 C172 1.523 . S
C1195 C208 1.532 . S
C1200 C541 1.500 . S
C1211 C242 0.802 . S
C1216 C617 0.829 . S
C1232 C546 0.775 . S
C1227 C42 0.838 . S
C1243 C111 2.968 . S
C1248 C612 2.925 . S
C1264 C571 1.580 . S
C1259 C132 1.554 . S
C1280 C603 1.543 . S
C1275 C8 1.578 . S
C1296 C595 1.548 . S
C1291 C309 1.584 . S
C1307 C71 1.507 . S
C1312 C625 1.518 . S
C1323 C109 1.517 . S
C1328 C549 1.458 . S
C1344 C600 0.795 . S
C1339 C137 0.750 . S
C1355 C12 2.992 . S
C1360 C558 2.942 . S
C1371 C212 2.990 . S
C1376 C622 2.951 . S
C1392 C564 1.550 . S
C1387 C271 1.520 . S
C1408 C563 0.846 . S
C1403 C177 0.781 . S
