# Generated by pormake.
# Topology iac, (4,6)-cn, num edge types: 1
# Building blocks:
#     Node 0, Type 0, BuildingBlock: GALJAG_clean_sbu_0, # of connection points: 4
#     Node 1, Type 0, BuildingBlock: GALJAG_clean_sbu_0, # of connection points: 4
#     Node 2, Type 0, BuildingBlock: GALJAG_clean_sbu_0, # of connection points: 4
#     Node 3, Type 0, BuildingBlock: GALJAG_clean_sbu_0, # of connection points: 4
#     Node 4, Type 0, BuildingBlock: GALJAG_clean_sbu_0, # of connection points: 4
#     Node 5, Type 0, BuildingBlock: GALJAG_clean_sbu_0, # of connection points: 4
#     Node 6, Type 0, BuildingBlock: GALJAG_clean_sbu_0, # of connection points: 4
#     Node 7, Type 0, BuildingBlock: GALJAG_clean_sbu_0, # of connection points: 4
#     Node 8, Type 0, BuildingBlock: GALJAG_clean_sbu_0, # of connection points: 4
#     Node 9, Type 0, BuildingBlock: GALJAG_clean_sbu_0, # of connection points: 4
#     Node 10, Type 0, BuildingBlock: GALJAG_clean_sbu_0, # of connection points: 4
#     Node 11, Type 0, BuildingBlock: GALJAG_clean_sbu_0, # of connection points: 4
#     Node 12, Type 0, BuildingBlock: GALJAG_clean_sbu_0, # of connection points: 4
#     Node 13, Type 0, BuildingBlock: GALJAG_clean_sbu_0, # of connection points: 4
#     Node 14, Type 0, BuildingBlock: GALJAG_clean_sbu_0, # of connection points: 4
#     Node 15, Type 0, BuildingBlock: GALJAG_clean_sbu_0, # of connection points: 4
#     Node 16, Type 0, BuildingBlock: GALJAG_clean_sbu_0, # of connection points: 4
#     Node 17, Type 0, BuildingBlock: GALJAG_clean_sbu_0, # of connection points: 4
#     Node 18, Type 0, BuildingBlock: GALJAG_clean_sbu_0, # of connection points: 4
#     Node 19, Type 0, BuildingBlock: GALJAG_clean_sbu_0, # of connection points: 4
#     Node 20, Type 0, BuildingBlock: GALJAG_clean_sbu_0, # of connection points: 4
#     Node 21, Type 0, BuildingBlock: GALJAG_clean_sbu_0, # of connection points: 4
#     Node 22, Type 0, BuildingBlock: GALJAG_clean_sbu_0, # of connection points: 4
#     Node 23, Type 0, BuildingBlock: GALJAG_clean_sbu_0, # of connection points: 4
#     Node 24, Type 1, BuildingBlock: FUNLAD_clean_sbu_0, # of connection points: 6
#     Node 25, Type 1, BuildingBlock: FUNLAD_clean_sbu_0, # of connection points: 6
#     Node 26, Type 1, BuildingBlock: FUNLAD_clean_sbu_0, # of connection points: 6
#     Node 27, Type 1, BuildingBlock: FUNLAD_clean_sbu_0, # of connection points: 6
#     Node 28, Type 1, BuildingBlock: FUNLAD_clean_sbu_0, # of connection points: 6
#     Node 29, Type 1, BuildingBlock: FUNLAD_clean_sbu_0, # of connection points: 6
#     Node 30, Type 1, BuildingBlock: FUNLAD_clean_sbu_0, # of connection points: 6
#     Node 31, Type 1, BuildingBlock: FUNLAD_clean_sbu_0, # of connection points: 6
#     Node 32, Type 1, BuildingBlock: FUNLAD_clean_sbu_0, # of connection points: 6
#     Node 33, Type 1, BuildingBlock: FUNLAD_clean_sbu_0, # of connection points: 6
#     Node 34, Type 1, BuildingBlock: FUNLAD_clean_sbu_0, # of connection points: 6
#     Node 35, Type 1, BuildingBlock: FUNLAD_clean_sbu_0, # of connection points: 6
#     Node 36, Type 1, BuildingBlock: FUNLAD_clean_sbu_0, # of connection points: 6
#     Node 37, Type 1, BuildingBlock: FUNLAD_clean_sbu_0, # of connection points: 6
#     Node 38, Type 1, BuildingBlock: FUNLAD_clean_sbu_0, # of connection points: 6
#     Node 39, Type 1, BuildingBlock: FUNLAD_clean_sbu_0, # of connection points: 6
#     Edge 40, Type (0, 1), BuildingBlock: XUDNAN_clean_linker_2, # of connection points: 2
#     Edge 41, Type (0, 1), BuildingBlock: XUDNAN_clean_linker_2, # of connection points: 2
#     Edge 42, Type (0, 1), BuildingBlock: XUDNAN_clean_linker_2, # of connection points: 2
#     Edge 43, Type (0, 1), BuildingBlock: XUDNAN_clean_linker_2, # of connection points: 2
#     Edge 44, Type (0, 1), BuildingBlock: XUDNAN_clean_linker_2, # of connection points: 2
#     Edge 45, Type (0, 1), BuildingBlock: XUDNAN_clean_linker_2, # of connection points: 2
#     Edge 46, Type (0, 1), BuildingBlock: XUDNAN_clean_linker_2, # of connection points: 2
#     Edge 47, Type (0, 1), BuildingBlock: XUDNAN_clean_linker_2, # of connection points: 2
#     Edge 48, Type (0, 1), BuildingBlock: XUDNAN_clean_linker_2, # of connection points: 2
#     Edge 49, Type (0, 1), BuildingBlock: XUDNAN_clean_linker_2, # of connection points: 2
#     Edge 50, Type (0, 1), BuildingBlock: XUDNAN_clean_linker_2, # of connection points: 2
#     Edge 51, Type (0, 1), BuildingBlock: XUDNAN_clean_linker_2, # of connection points: 2
#     Edge 52, Type (0, 1), BuildingBlock: XUDNAN_clean_linker_2, # of connection points: 2
#     Edge 53, Type (0, 1), BuildingBlock: XUDNAN_clean_linker_2, # of connection points: 2
#     Edge 54, Type (0, 1), BuildingBlock: XUDNAN_clean_linker_2, # of connection points: 2
#     Edge 55, Type (0, 1), BuildingBlock: XUDNAN_clean_linker_2, # of connection points: 2
#     Edge 56, Type (0, 1), BuildingBlock: XUDNAN_clean_linker_2, # of connection points: 2
#     Edge 57, Type (0, 1), BuildingBlock: XUDNAN_clean_linker_2, # of connection points: 2
#     Edge 58, Type (0, 1), BuildingBlock: XUDNAN_clean_linker_2, # of connection points: 2
#     Edge 59, Type (0, 1), BuildingBlock: XUDNAN_clean_linker_2, # of connection points: 2
#     Edge 60, Type (0, 1), BuildingBlock: XUDNAN_clean_linker_2, # of connection points: 2
#     Edge 61, Type (0, 1), BuildingBlock: XUDNAN_clean_linker_2, # of connection points: 2
#     Edge 62, Type (0, 1), BuildingBlock: XUDNAN_clean_linker_2, # of connection points: 2
#     Edge 63, Type (0, 1), BuildingBlock: XUDNAN_clean_linker_2, # of connection points: 2
#     Edge 64, Type (0, 1), BuildingBlock: XUDNAN_clean_linker_2, # of connection points: 2
#     Edge 65, Type (0, 1), BuildingBlock: XUDNAN_clean_linker_2, # of connection points: 2
#     Edge 66, Type (0, 1), BuildingBlock: XUDNAN_clean_linker_2, # of connection points: 2
#     Edge 67, Type (0, 1), BuildingBlock: XUDNAN_clean_linker_2, # of connection points: 2
#     Edge 68, Type (0, 1), BuildingBlock: XUDNAN_clean_linker_2, # of connection points: 2
#     Edge 69, Type (0, 1), BuildingBlock: XUDNAN_clean_linker_2, # of connection points: 2
#     Edge 70, Type (0, 1), BuildingBlock: XUDNAN_clean_linker_2, # of connection points: 2
#     Edge 71, Type (0, 1), BuildingBlock: XUDNAN_clean_linker_2, # of connection points: 2
#     Edge 72, Type (0, 1), BuildingBlock: XUDNAN_clean_linker_2, # of connection points: 2
#     Edge 73, Type (0, 1), BuildingBlock: XUDNAN_clean_linker_2, # of connection points: 2
#     Edge 74, Type (0, 1), BuildingBlock: XUDNAN_clean_linker_2, # of connection points: 2
#     Edge 75, Type (0, 1), BuildingBlock: XUDNAN_clean_linker_2, # of connection points: 2
#     Edge 76, Type (0, 1), BuildingBlock: XUDNAN_clean_linker_2, # of connection points: 2
#     Edge 77, Type (0, 1), BuildingBlock: XUDNAN_clean_linker_2, # of connection points: 2
#     Edge 78, Type (0, 1), BuildingBlock: XUDNAN_clean_linker_2, # of connection points: 2
#     Edge 79, Type (0, 1), BuildingBlock: XUDNAN_clean_linker_2, # of connection points: 2
#     Edge 80, Type (0, 1), BuildingBlock: XUDNAN_clean_linker_2, # of connection points: 2
#     Edge 81, Type (0, 1), BuildingBlock: XUDNAN_clean_linker_2, # of connection points: 2
#     Edge 82, Type (0, 1), BuildingBlock: XUDNAN_clean_linker_2, # of connection points: 2
#     Edge 83, Type (0, 1), BuildingBlock: XUDNAN_clean_linker_2, # of connection points: 2
#     Edge 84, Type (0, 1), BuildingBlock: XUDNAN_clean_linker_2, # of connection points: 2
#     Edge 85, Type (0, 1), BuildingBlock: XUDNAN_clean_linker_2, # of connection points: 2
#     Edge 86, Type (0, 1), BuildingBlock: XUDNAN_clean_linker_2, # of connection points: 2
#     Edge 87, Type (0, 1), BuildingBlock: XUDNAN_clean_linker_2, # of connection points: 2
#     Edge 88, Type (0, 1), BuildingBlock: XUDNAN_clean_linker_2, # of connection points: 2
#     Edge 89, Type (0, 1), BuildingBlock: XUDNAN_clean_linker_2, # of connection points: 2
#     Edge 90, Type (0, 1), BuildingBlock: XUDNAN_clean_linker_2, # of connection points: 2
#     Edge 91, Type (0, 1), BuildingBlock: XUDNAN_clean_linker_2, # of connection points: 2
#     Edge 92, Type (0, 1), BuildingBlock: XUDNAN_clean_linker_2, # of connection points: 2
#     Edge 93, Type (0, 1), BuildingBlock: XUDNAN_clean_linker_2, # of connection points: 2
#     Edge 94, Type (0, 1), BuildingBlock: XUDNAN_clean_linker_2, # of connection points: 2
#     Edge 95, Type (0, 1), BuildingBlock: XUDNAN_clean_linker_2, # of connection points: 2
#     Edge 96, Type (0, 1), BuildingBlock: XUDNAN_clean_linker_2, # of connection points: 2
#     Edge 97, Type (0, 1), BuildingBlock: XUDNAN_clean_linker_2, # of connection points: 2
#     Edge 98, Type (0, 1), BuildingBlock: XUDNAN_clean_linker_2, # of connection points: 2
#     Edge 99, Type (0, 1), BuildingBlock: XUDNAN_clean_linker_2, # of connection points: 2
#     Edge 100, Type (0, 1), BuildingBlock: XUDNAN_clean_linker_2, # of connection points: 2
#     Edge 101, Type (0, 1), BuildingBlock: XUDNAN_clean_linker_2, # of connection points: 2
#     Edge 102, Type (0, 1), BuildingBlock: XUDNAN_clean_linker_2, # of connection points: 2
#     Edge 103, Type (0, 1), BuildingBlock: XUDNAN_clean_linker_2, # of connection points: 2
#     Edge 104, Type (0, 1), BuildingBlock: XUDNAN_clean_linker_2, # of connection points: 2
#     Edge 105, Type (0, 1), BuildingBlock: XUDNAN_clean_linker_2, # of connection points: 2
#     Edge 106, Type (0, 1), BuildingBlock: XUDNAN_clean_linker_2, # of connection points: 2
#     Edge 107, Type (0, 1), BuildingBlock: XUDNAN_clean_linker_2, # of connection points: 2
#     Edge 108, Type (0, 1), BuildingBlock: XUDNAN_clean_linker_2, # of connection points: 2
#     Edge 109, Type (0, 1), BuildingBlock: XUDNAN_clean_linker_2, # of connection points: 2
#     Edge 110, Type (0, 1), BuildingBlock: XUDNAN_clean_linker_2, # of connection points: 2
#     Edge 111, Type (0, 1), BuildingBlock: XUDNAN_clean_linker_2, # of connection points: 2
#     Edge 112, Type (0, 1), BuildingBlock: XUDNAN_clean_linker_2, # of connection points: 2
#     Edge 113, Type (0, 1), BuildingBlock: XUDNAN_clean_linker_2, # of connection points: 2
#     Edge 114, Type (0, 1), BuildingBlock: XUDNAN_clean_linker_2, # of connection points: 2
#     Edge 115, Type (0, 1), BuildingBlock: XUDNAN_clean_linker_2, # of connection points: 2
#     Edge 116, Type (0, 1), BuildingBlock: XUDNAN_clean_linker_2, # of connection points: 2
#     Edge 117, Type (0, 1), BuildingBlock: XUDNAN_clean_linker_2, # of connection points: 2
#     Edge 118, Type (0, 1), BuildingBlock: XUDNAN_clean_linker_2, # of connection points: 2
#     Edge 119, Type (0, 1), BuildingBlock: XUDNAN_clean_linker_2, # of connection points: 2
#     Edge 120, Type (0, 1), BuildingBlock: XUDNAN_clean_linker_2, # of connection points: 2
#     Edge 121, Type (0, 1), BuildingBlock: XUDNAN_clean_linker_2, # of connection points: 2
#     Edge 122, Type (0, 1), BuildingBlock: XUDNAN_clean_linker_2, # of connection points: 2
#     Edge 123, Type (0, 1), BuildingBlock: XUDNAN_clean_linker_2, # of connection points: 2
#     Edge 124, Type (0, 1), BuildingBlock: XUDNAN_clean_linker_2, # of connection points: 2
#     Edge 125, Type (0, 1), BuildingBlock: XUDNAN_clean_linker_2, # of connection points: 2
#     Edge 126, Type (0, 1), BuildingBlock: XUDNAN_clean_linker_2, # of connection points: 2
#     Edge 127, Type (0, 1), BuildingBlock: XUDNAN_clean_linker_2, # of connection points: 2
#     Edge 128, Type (0, 1), BuildingBlock: XUDNAN_clean_linker_2, # of connection points: 2
#     Edge 129, Type (0, 1), BuildingBlock: XUDNAN_clean_linker_2, # of connection points: 2
#     Edge 130, Type (0, 1), BuildingBlock: XUDNAN_clean_linker_2, # of connection points: 2
#     Edge 131, Type (0, 1), BuildingBlock: XUDNAN_clean_linker_2, # of connection points: 2
#     Edge 132, Type (0, 1), BuildingBlock: XUDNAN_clean_linker_2, # of connection points: 2
#     Edge 133, Type (0, 1), BuildingBlock: XUDNAN_clean_linker_2, # of connection points: 2
#     Edge 134, Type (0, 1), BuildingBlock: XUDNAN_clean_linker_2, # of connection points: 2
#     Edge 135, Type (0, 1), BuildingBlock: XUDNAN_clean_linker_2, # of connection points: 2
# Relax obj value: 0.351
# Max RMSD: 0.285
# Mean RMSD: 0.170
data_MOF--net-iac--node1-GALJAG_clean_sbu_0--node2-FUNLAD_clean_sbu_0--edge1-XUDNAN_clean_linker_2
_symmetry_space_group_name_H-M    P1
_symmetry_Int_Tables_number       1
_symmetry_cell_setting            triclinic
loop_
_symmetry_equiv_pos_as_xyz
'x, y, z'
_cell_length_a     55.000454
_cell_length_b     52.902591
_cell_length_c     59.238973
_cell_angle_alpha  89.997237
_cell_angle_beta   92.052905
_cell_angle_gamma 90.106486
loop_
_atom_site_label
_atom_site_type_symbol
_atom_site_fract_x
_atom_site_fract_y
_atom_site_fract_z
_atom_type_partial_charge
In0 In 0.05682 0.22061 0.14555 0.0
O1 O 0.04688 0.20701 0.11001 0.0
O2 O 0.08263 0.19962 0.12318 0.0
C3 C 0.06483 0.26847 0.13244 0.0
C4 C 0.01335 0.2079 0.16174 0.0
C5 C 0.08533 0.21013 0.18184 0.0
O6 O 0.08059 0.25578 0.14338 0.0
O7 O 0.04494 0.2572 0.12852 0.0
O8 O 0.06936 0.2272 0.18187 0.0
O9 O 0.08646 0.19783 0.16366 0.0
C10 C 0.0677 0.19804 0.10662 0.0
O11 O 0.02693 0.19161 0.15303 0.0
O12 O 0.02159 0.23013 0.16178 0.0
In13 In 0.03751 0.75819 0.39426 0.0
O14 O 0.06512 0.755 0.36549 0.0
O15 O 0.07918 0.76079 0.39876 0.0
C16 C 0.99516 0.75843 0.36837 0.0
C17 C 0.03758 0.71183 0.4147 0.0
C18 C 0.03417 0.80493 0.41381 0.0
O19 O 0.01598 0.76119 0.36039 0.0
O20 O 0.99554 0.75518 0.38948 0.0
O21 O 0.03278 0.78479 0.42516 0.0
O22 O 0.03749 0.80134 0.3931 0.0
C23 C 0.08384 0.75763 0.37823 0.0
O24 O 0.03633 0.73213 0.42584 0.0
O25 O 0.03839 0.71505 0.39365 0.0
In26 In 0.57533 0.69929 0.64879 0.0
O27 O 0.56858 0.72962 0.62177 0.0
O28 O 0.57647 0.7415 0.65545 0.0
C29 C 0.58915 0.66817 0.61578 0.0
C30 C 0.6142 0.69644 0.67718 0.0
C31 C 0.53167 0.68845 0.66637 0.0
O32 O 0.59626 0.66541 0.63611 0.0
O33 O 0.57435 0.68608 0.61221 0.0
O34 O 0.54535 0.70606 0.67326 0.0
O35 O 0.54013 0.67547 0.65064 0.0
C36 C 0.57143 0.74781 0.63535 0.0
O37 O 0.59436 0.68559 0.68133 0.0
O38 O 0.61434 0.70836 0.65873 0.0
In39 In 0.53396 0.26149 0.8932 0.0
O40 O 0.57598 0.26385 0.88847 0.0
O41 O 0.5539 0.25154 0.8608 0.0
C42 C 0.49101 0.27113 0.86958 0.0
C43 C 0.53219 0.21475 0.91273 0.0
C44 C 0.53254 0.301 0.92307 0.0
O45 O 0.49268 0.2555 0.88561 0.0
O46 O 0.51087 0.28191 0.86546 0.0
O47 O 0.52628 0.27871 0.9277 0.0
O48 O 0.54011 0.30357 0.90333 0.0
C49 C 0.57519 0.25613 0.8683 0.0
O50 O 0.54248 0.23331 0.92253 0.0
O51 O 0.52338 0.21978 0.89329 0.0
In52 In 0.16908 0.01754 0.2532 0.0
O53 O 0.18866 0.98337 0.26937 0.0
O54 O 0.189 0.98736 0.23376 0.0
C55 C 0.20567 0.05178 0.25745 0.0
C56 C 0.13642 0.02642 0.2185 0.0
C57 C 0.13964 0.0158 0.2887 0.0
O58 O 0.19348 0.04443 0.27376 0.0
O59 O 0.19948 0.04195 0.23871 0.0
O60 O 0.14239 0.9971 0.27578 0.0
O61 O 0.1512 0.03536 0.28335 0.0
C62 C 0.19532 0.97445 0.25083 0.0
O63 O 0.14318 0.0434 0.23229 0.0
O64 O 0.14595 0.00516 0.22225 0.0
In65 In 0.27633 0.89679 0.55222 0.0
O66 O 0.23657 0.90241 0.54011 0.0
O67 O 0.25136 0.92703 0.56546 0.0
C68 C 0.31542 0.92617 0.54461 0.0
C69 C 0.27437 0.87454 0.59309 0.0
C70 C 0.283 0.86577 0.51695 0.0
O71 O 0.29413 0.93218 0.5382 0.0
O72 O 0.31688 0.90589 0.55572 0.0
O73 O 0.29025 0.86034 0.53683 0.0
O74 O 0.27121 0.88617 0.51511 0.0
C75 C 0.23315 0.9208 0.5532 0.0
O76 O 0.26871 0.86279 0.57509 0.0
O77 O 0.2814 0.89699 0.59038 0.0
In78 In 0.40311 0.01404 0.7389 0.0
O79 O 0.36897 0.03926 0.73821 0.0
O80 O 0.40397 0.05678 0.73822 0.0
C81 C 0.38731 0.96553 0.73983 0.0
C82 C 0.424 0.01848 0.69855 0.0
C83 C 0.42166 0.01429 0.78165 0.0
O84 O 0.37261 0.98389 0.74021 0.0
O85 O 0.40917 0.97183 0.73744 0.0
O86 O 0.43529 0.01386 0.7649 0.0
O87 O 0.39926 0.01571 0.77662 0.0
C88 C 0.38116 0.05959 0.73779 0.0
O89 O 0.43643 0.01554 0.71674 0.0
O90 O 0.40121 0.01834 0.70065 0.0
In91 In 0.27441 0.09428 0.01995 0.0
O92 O 0.30102 0.07021 0.00084 0.0
O93 O 0.31206 0.08297 0.03354 0.0
C94 C 0.24592 0.05465 0.0299 0.0
C95 C 0.28222 0.13279 0.04869 0.0
C96 C 0.25418 0.11972 0.98492 0.0
O97 O 0.25019 0.06111 0.01 0.0
O98 O 0.25511 0.06889 0.04498 0.0
O99 O 0.2437 0.11773 0.00348 0.0
O100 O 0.27459 0.10897 0.98422 0.0
C101 C 0.31715 0.07022 0.01643 0.0
O102 O 0.29057 0.13272 0.0291 0.0
O103 O 0.26973 0.11362 0.05362 0.0
In104 In 0.78589 0.39452 0.05906 0.0
O105 O 0.79425 0.38026 0.09501 0.0
O106 O 0.76265 0.36611 0.07738 0.0
C107 C 0.79129 0.36386 0.02303 0.0
C108 C 0.74629 0.42416 0.05246 0.0
C109 C 0.82612 0.42432 0.0621 0.0
O110 O 0.79849 0.35781 0.04271 0.0
O111 O 0.78079 0.38494 0.02166 0.0
O112 O 0.80509 0.43239 0.0657 0.0
O113 O 0.8271 0.40096 0.05829 0.0
C114 C 0.77581 0.36596 0.09527 0.0
O115 O 0.75094 0.41303 0.07095 0.0
O116 O 0.76169 0.42056 0.03751 0.0
In117 In 0.91314 0.51224 0.25006 0.0
O118 O 0.93653 0.54016 0.2307 0.0
O119 O 0.9262 0.50586 0.21433 0.0
C120 C 0.94228 0.50709 0.28757 0.0
C121 C 0.87892 0.54882 0.25071 0.0
C122 C 0.8944 0.46483 0.24923 0.0
O123 O 0.95047 0.50803 0.26799 0.0
O124 O 0.91957 0.50983 0.2883 0.0
O125 O 0.91572 0.46991 0.24357 0.0
O126 O 0.88203 0.48384 0.25454 0.0
C127 C 0.93751 0.52658 0.21325 0.0
O128 O 0.87916 0.53201 0.23558 0.0
O129 O 0.89583 0.54707 0.26561 0.0
In130 In 0.76486 0.58196 0.51363 0.0
O131 O 0.79878 0.55799 0.51647 0.0
O132 O 0.79688 0.58585 0.49056 0.0
C133 C 0.74221 0.53865 0.52355 0.0
C134 C 0.78186 0.61473 0.54508 0.0
C135 C 0.73395 0.60685 0.48535 0.0
O136 O 0.75404 0.54165 0.50591 0.0
O137 O 0.74079 0.55803 0.53592 0.0
O138 O 0.73396 0.60996 0.50646 0.0
O139 O 0.74831 0.59 0.47886 0.0
C140 C 0.80905 0.56862 0.50033 0.0
O141 O 0.78221 0.61904 0.52421 0.0
O142 O 0.77238 0.59387 0.55035 0.0
In143 In 0.66404 0.51047 0.76118 0.0
O144 O 0.67678 0.47227 0.77574 0.0
O145 O 0.67717 0.47736 0.74028 0.0
C146 C 0.70484 0.539 0.76574 0.0
C147 C 0.63194 0.51523 0.72571 0.0
C148 C 0.63813 0.52472 0.79693 0.0
O149 O 0.70099 0.5198 0.77766 0.0
O150 O 0.68807 0.54399 0.75133 0.0
O151 O 0.64043 0.50183 0.79128 0.0
O152 O 0.64858 0.54033 0.78437 0.0
C153 C 0.68173 0.46302 0.75683 0.0
O154 O 0.62555 0.50935 0.74527 0.0
O155 O 0.65445 0.51906 0.72405 0.0
In156 In 0.01585 0.83855 0.90514 0.0
O157 O 0.04261 0.86625 0.8895 0.0
O158 O 0.05656 0.8327 0.90486 0.0
C159 C 0.99048 0.83526 0.86578 0.0
C160 C 0.004 0.79112 0.91647 0.0
C161 C 0.003 0.8633 0.94265 0.0
O162 O 0.01163 0.82635 0.86846 0.0
O163 O 0.98289 0.84746 0.88246 0.0
O164 O 0.99706 0.87131 0.92313 0.0
O165 O 0.01666 0.84425 0.94296 0.0
C166 C 0.06098 0.85255 0.89397 0.0
O167 O 0.98838 0.80749 0.91081 0.0
O168 O 0.02582 0.79862 0.91644 0.0
In169 In 0.02509 0.25965 0.65915 0.0
O170 O 0.01825 0.28599 0.62806 0.0
O171 O 0.02294 0.30281 0.66032 0.0
C172 C 0.02368 0.21346 0.63801 0.0
C173 C 0.07316 0.26026 0.67378 0.0
C174 C 0.98581 0.2601 0.68666 0.0
O175 O 0.0221 0.23398 0.62717 0.0
O176 O 0.02531 0.21634 0.65916 0.0
O177 O 0.00753 0.26341 0.6937 0.0
O178 O 0.9837 0.25604 0.66565 0.0
C179 C 0.01915 0.3062 0.63943 0.0
O180 O 0.05608 0.256 0.68694 0.0
O181 O 0.06599 0.26429 0.65365 0.0
In182 In 0.50311 0.32431 0.39901 0.0
O183 O 0.54156 0.3383 0.40925 0.0
O184 O 0.53212 0.33559 0.37444 0.0
C185 C 0.47276 0.33342 0.36363 0.0
C186 C 0.49839 0.27414 0.40496 0.0
C187 C 0.48571 0.34386 0.43722 0.0
O188 O 0.48726 0.31495 0.36435 0.0
O189 O 0.47416 0.34793 0.38059 0.0
O190 O 0.48576 0.35618 0.41895 0.0
O191 O 0.49501 0.32218 0.43628 0.0
C192 C 0.54822 0.34091 0.38927 0.0
O193 O 0.48067 0.28849 0.40033 0.0
O194 O 0.51884 0.28503 0.40639 0.0
In195 In 0.52907 0.76067 0.15752 0.0
O196 O 0.52601 0.73238 0.12765 0.0
O197 O 0.53656 0.71798 0.15978 0.0
C198 C 0.53233 0.80123 0.12913 0.0
C199 C 0.48337 0.76316 0.17504 0.0
C200 C 0.57067 0.76157 0.18442 0.0
O201 O 0.53551 0.77862 0.12329 0.0
O202 O 0.5276 0.80384 0.14971 0.0
O203 O 0.54989 0.7566 0.19167 0.0
O204 O 0.57055 0.76675 0.16362 0.0
C205 C 0.53241 0.7133 0.13912 0.0
O206 O 0.50216 0.77087 0.18577 0.0
O207 O 0.48763 0.7545 0.15576 0.0
In208 In 0.90168 0.99453 0.7978 0.0
O209 O 0.93757 0.98377 0.78149 0.0
O210 O 0.90921 0.99907 0.76058 0.0
C211 C 0.91674 0.99339 0.84159 0.0
C212 C 0.8839 0.04208 0.79821 0.0
C213 C 0.87355 0.95305 0.79143 0.0
O214 O 0.93157 0.99331 0.82577 0.0
O215 O 0.89456 0.99341 0.83522 0.0
O216 O 0.86728 0.9746 0.78434 0.0
O217 O 0.89369 0.9525 0.80226 0.0
C218 C 0.93027 0.98981 0.76181 0.0
O219 O 0.87077 0.02315 0.79336 0.0
O220 O 0.90605 0.03715 0.80233 0.0
In221 In 0.77283 0.12199 0.49758 0.0
O222 O 0.80025 0.10001 0.47761 0.0
O223 O 0.80685 0.10284 0.51307 0.0
C224 C 0.73494 0.08951 0.49722 0.0
C225 C 0.7633 0.14702 0.53579 0.0
C226 C 0.77845 0.15739 0.46536 0.0
O227 O 0.75499 0.08487 0.50735 0.0
O228 O 0.7344 0.10999 0.4863 0.0
O229 O 0.78296 0.16175 0.48601 0.0
O230 O 0.7706 0.13545 0.46102 0.0
C231 C 0.81402 0.09475 0.4944 0.0
O232 O 0.78462 0.14029 0.5312 0.0
O233 O 0.74718 0.14178 0.52085 0.0
In234 In 0.65717 0.00938 0.30232 0.0
O235 O 0.68714 0.98257 0.31658 0.0
O236 O 0.67176 0.97496 0.28399 0.0
C237 C 0.67397 0.05695 0.31 0.0
C238 C 0.64005 0.01897 0.25988 0.0
C239 C 0.62611 0.99648 0.33489 0.0
O240 O 0.68794 0.03867 0.30618 0.0
O241 O 0.65186 0.05096 0.31106 0.0
O242 O 0.62036 0.99507 0.31409 0.0
O243 O 0.6475 0.00419 0.33919 0.0
C244 C 0.68689 0.9686 0.29935 0.0
O245 O 0.62632 0.01082 0.27498 0.0
O246 O 0.66203 0.02177 0.26623 0.0
In247 In 0.78604 0.9112 0.01617 0.0
O248 O 0.75204 0.9292 0.00077 0.0
O249 O 0.75479 0.92443 0.03663 0.0
C250 C 0.80735 0.95664 0.01611 0.0
C251 C 0.80496 0.88117 0.0487 0.0
C252 C 0.78146 0.87667 0.98331 0.0
O253 O 0.79796 0.94706 0.03318 0.0
O254 O 0.8077 0.94247 0.99889 0.0
O255 O 0.80037 0.89027 0.98555 0.0
O256 O 0.76505 0.88133 0.997 0.0
C257 C 0.74273 0.93277 0.0197 0.0
O258 O 0.78243 0.88387 0.04488 0.0
O259 O 0.81838 0.89407 0.03623 0.0
In260 In 0.28328 0.62468 0.00097 0.0
O261 O 0.28132 0.66202 0.02016 0.0
O262 O 0.28167 0.62827 0.03943 0.0
C263 C 0.29322 0.64374 0.95993 0.0
C264 C 0.32274 0.59513 0.00838 0.0
C265 C 0.23595 0.61033 0.99705 0.0
O266 O 0.29134 0.6574 0.97723 0.0
O267 O 0.29009 0.62037 0.96322 0.0
O268 O 0.25253 0.59494 0.00285 0.0
O269 O 0.24349 0.63206 0.99223 0.0
C270 C 0.28008 0.65202 0.03939 0.0
O271 O 0.30136 0.58634 0.00709 0.0
O272 O 0.32423 0.6188 0.00598 0.0
In273 In 0.14797 0.5162 0.80222 0.0
O274 O 0.16193 0.47854 0.78922 0.0
O275 O 0.17731 0.49197 0.82039 0.0
C276 C 0.17796 0.55584 0.79435 0.0
C277 C 0.11511 0.52411 0.76783 0.0
C278 C 0.12027 0.50939 0.83849 0.0
O279 O 0.17789 0.53563 0.78318 0.0
O280 O 0.16355 0.5559 0.81044 0.0
O281 O 0.12004 0.49425 0.822 0.0
O282 O 0.13466 0.52789 0.83684 0.0
C283 C 0.17689 0.47484 0.80551 0.0
O284 O 0.11401 0.53532 0.78652 0.0
O285 O 0.13221 0.50841 0.76676 0.0
In286 In 0.29144 0.44854 0.51918 0.0
O287 O 0.29193 0.41482 0.54235 0.0
O288 O 0.32372 0.43777 0.54298 0.0
C289 C 0.28943 0.42339 0.47983 0.0
C290 C 0.24558 0.45574 0.53163 0.0
C291 C 0.31187 0.49447 0.51467 0.0
O292 O 0.30004 0.4146 0.49735 0.0
O293 O 0.28071 0.44527 0.48197 0.0
O294 O 0.29521 0.49012 0.52814 0.0
O295 O 0.31872 0.47546 0.50371 0.0
C296 C 0.31296 0.41871 0.55075 0.0
O297 O 0.25069 0.44825 0.51218 0.0
O298 O 0.26363 0.4595 0.5449 0.0
In299 In 0.40071 0.4988 0.30542 0.0
O300 O 0.43119 0.51702 0.2856 0.0
O301 O 0.41208 0.48597 0.2707 0.0
C302 C 0.42819 0.48571 0.34276 0.0
C303 C 0.3807 0.54549 0.30625 0.0
C304 C 0.36526 0.46337 0.3009 0.0
O305 O 0.43515 0.48236 0.32296 0.0
O306 O 0.40714 0.49483 0.34375 0.0
O307 O 0.36236 0.48358 0.31172 0.0
O308 O 0.38611 0.46073 0.29313 0.0
C309 C 0.42877 0.50213 0.269 0.0
O310 O 0.3758 0.52999 0.29054 0.0
O311 O 0.39586 0.53758 0.32104 0.0
C312 C 0.99529 0.01762 0.99193 0.0
N313 N 0.97159 0.05781 0.04653 0.0
C314 C 0.96591 0.07505 0.03011 0.0
C315 C 0.94239 0.0846 0.02788 0.0
C316 C 0.92481 0.07609 0.04264 0.0
C317 C 0.93226 0.06178 0.06164 0.0
C318 C 0.95598 0.05254 0.06316 0.0
Zn319 Zn 0.9996 0.03398 0.04091 0.0
C320 C 0.98772 0.98071 0.0463 0.0
N321 N 0.05818 0.98666 0.02392 0.0
C322 C 0.0738 0.99244 0.00746 0.0
C323 C 0.06343 0.96823 0.03937 0.0
C324 C 0.08631 0.95694 0.04026 0.0
C325 C 0.10412 0.96533 0.02559 0.0
C326 C 0.09705 0.98203 0.00802 0.0
Zn327 Zn 0.03012 0.01039 0.02977 0.0
O328 O 0.98617 0.03001 0.00784 0.0
C329 C 0.04167 0.0634 0.02319 0.0
O330 O 0.01562 0.00655 0.99547 0.0
H331 H 0.05076 0.96389 0.05235 0.0
H332 H 0.9786 0.079 0.01703 0.0
H333 H 0.06913 0.00696 0.99521 0.0
O334 O 0.02078 0.06483 0.03152 0.0
O335 O 0.0513 0.04191 0.02049 0.0
H336 H 0.96097 0.03885 0.07607 0.0
O337 O 0.04391 0.01451 0.06403 0.0
O338 O 0.01329 0.03782 0.0744 0.0
O339 O 0.00904 0.97964 0.03893 0.0
O340 O 0.97791 0.00207 0.0494 0.0
C341 C 0.03349 0.02713 0.07921 0.0
H342 H 0.93721 0.09557 0.01303 0.0
H343 H 0.91913 0.0547 0.0733 0.0
H344 H 0.09071 0.94367 0.05371 0.0
H345 H 0.10998 0.9893 0.99628 0.0
C346 C 0.32855 0.76551 0.25641 0.0
N347 N 0.26092 0.73866 0.23331 0.0
C348 C 0.26564 0.75464 0.21599 0.0
C349 C 0.26107 0.7474 0.19372 0.0
C350 C 0.25173 0.72327 0.18886 0.0
C351 C 0.24642 0.70719 0.20696 0.0
C352 C 0.25111 0.71536 0.22925 0.0
Zn353 Zn 0.27465 0.75023 0.26436 0.0
C354 C 0.30028 0.71039 0.28982 0.0
N355 N 0.30937 0.77889 0.32458 0.0
C356 C 0.31789 0.80274 0.32853 0.0
C357 C 0.3059 0.76257 0.34196 0.0
C358 C 0.31038 0.77006 0.36421 0.0
C359 C 0.318 0.79484 0.36889 0.0
C360 C 0.32217 0.81123 0.35075 0.0
Zn361 Zn 0.29546 0.76736 0.29357 0.0
O362 O 0.30869 0.75595 0.24868 0.0
C363 C 0.27028 0.80733 0.2682 0.0
O364 O 0.32957 0.77341 0.27677 0.0
H365 H 0.29818 0.74407 0.3388 0.0
H366 H 0.27431 0.77266 0.21927 0.0
H367 H 0.32021 0.81559 0.31458 0.0
O368 O 0.26405 0.78802 0.25663 0.0
O369 O 0.28397 0.80465 0.28574 0.0
H370 H 0.24786 0.70274 0.24318 0.0
O371 O 0.2614 0.76103 0.30955 0.0
O372 O 0.24045 0.74492 0.28081 0.0
O373 O 0.30665 0.73007 0.30077 0.0
O374 O 0.28582 0.71251 0.27269 0.0
C375 C 0.24142 0.75216 0.30136 0.0
H376 H 0.26611 0.76019 0.18038 0.0
H377 H 0.23923 0.68837 0.20391 0.0
H378 H 0.3064 0.75702 0.37769 0.0
H379 H 0.32799 0.83055 0.35375 0.0
C380 C 0.51017 0.02551 0.55674 0.0
N381 N 0.53833 0.95624 0.53745 0.0
C382 C 0.553 0.95772 0.55638 0.0
C383 C 0.5581 0.93624 0.56919 0.0
C384 C 0.54763 0.913 0.56279 0.0
C385 C 0.53312 0.91181 0.54279 0.0
C386 C 0.52874 0.93381 0.53025 0.0
Zn387 Zn 0.5289 0.98932 0.52217 0.0
C388 C 0.47629 0.99116 0.50907 0.0
N389 N 0.50881 0.05968 0.49285 0.0
C390 C 0.51726 0.08176 0.5019 0.0
C391 C 0.49513 0.05923 0.47326 0.0
C392 C 0.48986 0.08159 0.46169 0.0
C393 C 0.49879 0.10462 0.47036 0.0
C394 C 0.51244 0.10459 0.49087 0.0
Zn395 Zn 0.51818 0.02636 0.50764 0.0
O396 O 0.51887 0.00351 0.55418 0.0
C397 C 0.57093 0.02441 0.52059 0.0
O398 O 0.50865 0.04031 0.53983 0.0
H399 H 0.48872 0.04142 0.46633 0.0
H400 H 0.56023 0.97575 0.56199 0.0
H401 H 0.52808 0.08161 0.51751 0.0
O402 O 0.56474 0.00255 0.52705 0.0
O403 O 0.55483 0.03915 0.51212 0.0
H404 H 0.51704 0.93312 0.51519 0.0
O405 O 0.52715 0.01196 0.47575 0.0
O406 O 0.53888 0.97538 0.48992 0.0
O407 O 0.48211 0.01334 0.50312 0.0
O408 O 0.49265 0.97641 0.51707 0.0
C409 C 0.53589 0.99004 0.47304 0.0
H410 H 0.56982 0.93798 0.5842 0.0
H411 H 0.52452 0.89433 0.53731 0.0
H412 H 0.4795 0.08076 0.44581 0.0
H413 H 0.51936 0.12201 0.49827 0.0
C414 C 0.30183 0.22452 0.75428 0.0
N415 N 0.26232 0.24348 0.811 0.0
C416 C 0.25069 0.22088 0.80847 0.0
C417 C 0.24177 0.20842 0.82722 0.0
C418 C 0.24449 0.21961 0.84862 0.0
C419 C 0.25591 0.24324 0.85068 0.0
C420 C 0.26494 0.25483 0.83156 0.0
Zn421 Zn 0.27634 0.26053 0.78359 0.0
C422 C 0.32812 0.27839 0.79248 0.0
N423 N 0.30504 0.29718 0.72673 0.0
C424 C 0.30348 0.28484 0.7066 0.0
C425 C 0.31563 0.32038 0.72865 0.0
C426 C 0.32446 0.33243 0.70963 0.0
C427 C 0.32252 0.32038 0.6885 0.0
C428 C 0.3123 0.29604 0.68725 0.0
Zn429 Zn 0.29095 0.28028 0.75419 0.0
O430 O 0.28875 0.22475 0.77153 0.0
C431 C 0.23968 0.26307 0.74424 0.0
O432 O 0.30573 0.24518 0.74408 0.0
H433 H 0.3168 0.32977 0.74487 0.0
H434 H 0.24864 0.21232 0.79193 0.0
H435 H 0.29505 0.26638 0.70546 0.0
O436 O 0.24139 0.25604 0.76484 0.0
O437 O 0.25821 0.27285 0.73544 0.0
H438 H 0.27439 0.27271 0.8332 0.0
O439 O 0.27593 0.31526 0.76466 0.0
O440 O 0.26436 0.29644 0.79547 0.0
O441 O 0.32367 0.28769 0.77299 0.0
O442 O 0.31158 0.26541 0.80167 0.0
C443 C 0.26586 0.31636 0.7836 0.0
H444 H 0.23307 0.19014 0.82508 0.0
H445 H 0.25866 0.2522 0.86703 0.0
H446 H 0.33189 0.35133 0.71135 0.0
H447 H 0.31076 0.28587 0.6714 0.0
C448 C 0.07169 0.99755 0.53562 0.0
N449 N 0.04381 0.03599 0.47783 0.0
C450 C 0.06756 0.042 0.47463 0.0
C451 C 0.07675 0.04171 0.45281 0.0
C452 C 0.06127 0.03514 0.43434 0.0
C453 C 0.03648 0.03164 0.43795 0.0
C454 C 0.02816 0.03191 0.45982 0.0
Zn455 Zn 0.03201 0.02231 0.5083 0.0
C456 C 0.02052 0.96552 0.49871 0.0
N457 N 0.00524 0.98501 0.56616 0.0
C458 C 0.01523 0.96438 0.5766 0.0
C459 C 0.98833 0.99933 0.5764 0.0
C460 C 0.98153 0.9938 0.59822 0.0
C461 C 0.9921 0.97324 0.60985 0.0
C462 C 0.00886 0.95811 0.59862 0.0
Zn463 Zn 0.01782 0.99955 0.53675 0.0
O464 O 0.06799 0.01088 0.51798 0.0
C465 C 0.02957 0.05633 0.54657 0.0
O466 O 0.05386 0.99068 0.5472 0.0
H467 H 0.98095 0.01597 0.56813 0.0
H468 H 0.07989 0.04488 0.48903 0.0
H469 H 0.02881 0.95339 0.56824 0.0
O470 O 0.03665 0.05798 0.52632 0.0
O471 O 0.02156 0.03521 0.55346 0.0
H472 H 0.0096 0.02628 0.46227 0.0
O473 O 0.98156 0.0089 0.52604 0.0
O474 O 0.99588 0.03291 0.49944 0.0
O475 O 0.01485 0.9637 0.51931 0.0
O476 O 0.02707 0.98694 0.49128 0.0
C477 C 0.97789 0.02404 0.50966 0.0
H478 H 0.09604 0.04453 0.45067 0.0
H479 H 0.02391 0.02682 0.42411 0.0
H480 H 0.969 0.00642 0.60626 0.0
H481 H 0.01736 0.94198 0.60691 0.0
C482 C 0.2758 0.78121 0.73604 0.0
N483 N 0.33271 0.7313 0.75316 0.0
C484 C 0.32995 0.72116 0.7321 0.0
C485 C 0.34982 0.71034 0.72165 0.0
C486 C 0.37268 0.70987 0.73305 0.0
C487 C 0.37468 0.71968 0.75508 0.0
C488 C 0.35447 0.7305 0.76476 0.0
Zn489 Zn 0.3046 0.74937 0.76791 0.0
C490 C 0.3197 0.80117 0.78298 0.0
N491 N 0.24746 0.78786 0.80057 0.0
C492 C 0.22555 0.78978 0.78928 0.0
C493 C 0.25129 0.79862 0.82128 0.0
C494 C 0.23261 0.81179 0.83147 0.0
C495 C 0.21002 0.81438 0.81998 0.0
C496 C 0.20657 0.80324 0.79862 0.0
Zn497 Zn 0.2753 0.76934 0.7856 0.0
O498 O 0.29403 0.76647 0.73657 0.0
C499 C 0.26072 0.71747 0.76924 0.0
O500 O 0.26413 0.78468 0.7539 0.0
H501 H 0.2689 0.7971 0.82988 0.0
H502 H 0.31245 0.72196 0.7232 0.0
H503 H 0.22278 0.78091 0.77294 0.0
O504 O 0.28172 0.71865 0.76107 0.0
O505 O 0.25288 0.73615 0.78045 0.0
H506 H 0.35631 0.73868 0.78146 0.0
O507 O 0.28709 0.75386 0.81726 0.0
O508 O 0.31445 0.7322 0.79952 0.0
O509 O 0.2981 0.80201 0.78997 0.0
O510 O 0.32743 0.78073 0.7746 0.0
C511 C 0.30384 0.73734 0.81768 0.0
H512 H 0.34746 0.70323 0.70457 0.0
H513 H 0.3918 0.71932 0.76469 0.0
H514 H 0.23585 0.82017 0.84799 0.0
H515 H 0.18923 0.8046 0.78943 0.0
C516 C 0.53379 0.95823 0.03812 0.0
N517 N 0.53874 0.0313 0.06742 0.0
C518 C 0.53102 0.01812 0.08557 0.0
C519 C 0.54127 0.02269 0.10712 0.0
C520 C 0.55932 0.04139 0.11014 0.0
C521 C 0.56476 0.0566 0.09147 0.0
C522 C 0.55453 0.05096 0.07015 0.0
Zn523 Zn 0.53285 0.01658 0.03557 0.0
C524 C 0.58151 0.00564 0.01588 0.0
N525 N 0.52562 0.98207 0.97066 0.0
C526 C 0.5075 0.96479 0.96737 0.0
C527 C 0.53525 0.99449 0.95292 0.0
C528 C 0.52449 0.99222 0.93129 0.0
C529 C 0.50379 0.9769 0.928 0.0
C530 C 0.49635 0.96179 0.94602 0.0
Zn531 Zn 0.5314 0.99646 0.00247 0.0
O532 O 0.53374 0.97833 0.05001 0.0
C533 C 0.48269 0.00727 0.02237 0.0
O534 O 0.53308 0.9602 0.01673 0.0
H535 H 0.54965 0.00816 0.9559 0.0
H536 H 0.51829 0.00268 0.08315 0.0
H537 H 0.50007 0.95515 0.98168 0.0
O538 O 0.49498 0.01768 0.03839 0.0
O539 O 0.49359 0.99717 0.00615 0.0
H540 H 0.56061 0.06114 0.05556 0.0
O541 O 0.52947 0.03276 0.98837 0.0
O542 O 0.53179 0.05431 0.01989 0.0
O543 O 0.56923 0.99606 0.99943 0.0
O544 O 0.57059 0.01518 0.03234 0.0
C545 C 0.52984 0.05394 0.99837 0.0
H546 H 0.53636 0.01037 0.12081 0.0
H547 H 0.5779 0.07182 0.09298 0.0
H548 H 0.53085 0.00422 0.91791 0.0
H549 H 0.48077 0.94933 0.94407 0.0
C550 C 0.29041 0.20841 0.28099 0.0
N551 N 0.29849 0.25531 0.22508 0.0
C552 C 0.31696 0.23929 0.22043 0.0
C553 C 0.32074 0.23199 0.19823 0.0
C554 C 0.3056 0.24162 0.18075 0.0
C555 C 0.28794 0.25963 0.18579 0.0
C556 C 0.28454 0.26613 0.2083 0.0
Zn557 Zn 0.28894 0.25918 0.25773 0.0
C558 C 0.23572 0.24729 0.26232 0.0
N559 N 0.2662 0.26512 0.32543 0.0
C560 C 0.28338 0.26408 0.34252 0.0
C561 C 0.2446 0.27703 0.32821 0.0
C562 C 0.24101 0.29136 0.34748 0.0
C563 C 0.2601 0.29409 0.36363 0.0
C564 C 0.28079 0.27877 0.36187 0.0
Zn565 Zn 0.27624 0.25972 0.29288 0.0
O566 O 0.29476 0.22026 0.26293 0.0
C567 C 0.32891 0.27321 0.2884 0.0
O568 O 0.28316 0.2206 0.29801 0.0
H569 H 0.23117 0.27801 0.3145 0.0
H570 H 0.32787 0.231 0.23404 0.0
H571 H 0.30032 0.25426 0.34014 0.0
O572 O 0.32526 0.26807 0.26765 0.0
O573 O 0.31197 0.27008 0.30209 0.0
H574 H 0.26984 0.27867 0.21244 0.0
O575 O 0.26935 0.29866 0.28743 0.0
O576 O 0.28332 0.29831 0.25326 0.0
O577 O 0.24098 0.25025 0.28311 0.0
O578 O 0.25205 0.2505 0.24792 0.0
C579 C 0.2752 0.31055 0.26982 0.0
H580 H 0.33453 0.21802 0.19485 0.0
H581 H 0.27578 0.26717 0.17268 0.0
H582 H 0.22443 0.30225 0.34854 0.0
H583 H 0.29593 0.2801 0.37401 0.0
C584 C 0.58239 0.49627 0.03723 0.0
N585 N 0.54257 0.53055 0.98473 0.0
C586 C 0.5616 0.54668 0.98224 0.0
C587 C 0.56954 0.55262 0.96072 0.0
C588 C 0.55796 0.54161 0.94161 0.0
C589 C 0.53768 0.52599 0.94462 0.0
C590 C 0.53018 0.52078 0.96643 0.0
Zn591 Zn 0.53576 0.51647 0.01613 0.0
C592 C 0.52654 0.45873 0.0129 0.0
N593 N 0.52456 0.48352 0.08082 0.0
C594 C 0.54178 0.48912 0.09714 0.0
C595 C 0.5021 0.47521 0.08635 0.0
C596 C 0.49548 0.47486 0.10894 0.0
C597 C 0.51226 0.48282 0.12599 0.0
C598 C 0.53609 0.48857 0.11988 0.0
Zn599 Zn 0.53058 0.49647 0.04874 0.0
O600 O 0.57325 0.50915 0.02097 0.0
C601 C 0.54019 0.55319 0.05352 0.0
O602 O 0.56851 0.48774 0.05217 0.0
H603 H 0.48862 0.47078 0.07322 0.0
H604 H 0.57141 0.55396 0.997 0.0
H605 H 0.55942 0.49607 0.09258 0.0
O606 O 0.54032 0.55366 0.032 0.0
O607 O 0.53701 0.5322 0.06335 0.0
H608 H 0.51512 0.50799 0.96875 0.0
O609 O 0.49277 0.50551 0.04413 0.0
O610 O 0.49824 0.52403 0.01152 0.0
O611 O 0.52436 0.46078 0.03413 0.0
O612 O 0.53116 0.47851 0.00144 0.0
C613 C 0.48412 0.51725 0.02692 0.0
H614 H 0.58538 0.56459 0.95914 0.0
H615 H 0.52811 0.51735 0.9303 0.0
H616 H 0.47688 0.47027 0.11272 0.0
H617 H 0.54988 0.49411 0.13242 0.0
C618 C 0.76699 0.2744 0.23812 0.0
N619 N 0.82269 0.22814 0.26474 0.0
C620 C 0.81915 0.21386 0.24578 0.0
C621 C 0.83899 0.20299 0.23533 0.0
C622 C 0.86255 0.20706 0.24451 0.0
C623 C 0.86541 0.22029 0.26497 0.0
C624 C 0.84515 0.23075 0.27483 0.0
Zn625 Zn 0.7954 0.25006 0.27631 0.0
C626 C 0.81235 0.304 0.28016 0.0
N627 N 0.74023 0.29859 0.29979 0.0
C628 C 0.71663 0.29385 0.2936 0.0
C629 C 0.74624 0.31647 0.31554 0.0
C630 C 0.72811 0.32968 0.32642 0.0
C631 C 0.70352 0.32418 0.32131 0.0
C632 C 0.69792 0.30636 0.30426 0.0
Zn633 Zn 0.7669 0.27617 0.28768 0.0
O634 O 0.78513 0.26022 0.24268 0.0
C635 C 0.75038 0.22184 0.28395 0.0
O636 O 0.75443 0.2829 0.25401 0.0
H637 H 0.76513 0.31987 0.32029 0.0
H638 H 0.80112 0.2121 0.23803 0.0
H639 H 0.71226 0.27956 0.28104 0.0
O640 O 0.77129 0.21884 0.27589 0.0
O641 O 0.7439 0.24382 0.29001 0.0
H642 H 0.84756 0.2422 0.28987 0.0
O643 O 0.77957 0.26933 0.3213 0.0
O644 O 0.80511 0.24051 0.31005 0.0
O645 O 0.79039 0.30785 0.28513 0.0
O646 O 0.81943 0.28149 0.27692 0.0
C647 C 0.79516 0.25227 0.32595 0.0
H648 H 0.8361 0.19303 0.21948 0.0
H649 H 0.8833 0.22359 0.27267 0.0
H650 H 0.73333 0.34354 0.33915 0.0
H651 H 0.6793 0.30111 0.29993 0.0
C652 C 0.01515 0.46642 0.5531 0.0
N653 N 0.02775 0.54149 0.57376 0.0
C654 C 0.01072 0.53634 0.58924 0.0
C655 C 0.01521 0.54222 0.612 0.0
C656 C 0.03754 0.55319 0.61875 0.0
C657 C 0.05383 0.56028 0.60218 0.0
C658 C 0.04847 0.55436 0.5796 0.0
Zn659 Zn 0.02585 0.523 0.54349 0.0
C660 C 0.07377 0.49916 0.53467 0.0
N661 N 0.0233 0.47919 0.48323 0.0
C662 C 0.00285 0.46634 0.4765 0.0
C663 C 0.04059 0.48531 0.4683 0.0
C664 C 0.03661 0.48071 0.44529 0.0
C665 C 0.0146 0.4697 0.43756 0.0
C666 C 0.99813 0.46134 0.45358 0.0
Zn667 Zn 0.02492 0.49725 0.51376 0.0
O668 O 0.01712 0.48867 0.56123 0.0
C669 C 0.97731 0.52168 0.52235 0.0
O670 O 0.01727 0.46331 0.53194 0.0
H671 H 0.05657 0.4958 0.47393 0.0
H672 H 0.99451 0.52583 0.58427 0.0
H673 H 0.9893 0.46171 0.48863 0.0
O674 O 0.98913 0.53216 0.53858 0.0
O675 O 0.98756 0.50568 0.50993 0.0
H676 H 0.06177 0.55823 0.56704 0.0
O677 O 0.03266 0.53153 0.49603 0.0
O678 O 0.03446 0.55685 0.52528 0.0
O679 O 0.06219 0.48938 0.51791 0.0
O680 O 0.06284 0.51387 0.5478 0.0
C681 C 0.0356 0.55368 0.50405 0.0
H682 H 0.00231 0.5363 0.62435 0.0
H683 H 0.07118 0.5689 0.60683 0.0
H684 H 0.04975 0.48769 0.43361 0.0
H685 H 0.98112 0.45239 0.44837 0.0
C686 C 0.79161 0.7078 0.26722 0.0
N687 N 0.76277 0.74217 0.32376 0.0
C688 C 0.7467 0.72265 0.32171 0.0
C689 C 0.7362 0.71246 0.34062 0.0
C690 C 0.74261 0.72192 0.36211 0.0
C691 C 0.75879 0.74253 0.36385 0.0
C692 C 0.76871 0.75249 0.34427 0.0
Zn693 Zn 0.77702 0.75365 0.29415 0.0
C694 C 0.8299 0.76156 0.29559 0.0
N695 N 0.80163 0.77226 0.22941 0.0
C696 C 0.79482 0.75872 0.21073 0.0
C697 C 0.81721 0.79218 0.22824 0.0
C698 C 0.82583 0.79982 0.20746 0.0
C699 C 0.81842 0.7867 0.18778 0.0
C700 C 0.80319 0.76553 0.18968 0.0
Zn701 Zn 0.78809 0.76244 0.25953 0.0
O702 O 0.78525 0.71465 0.28671 0.0
C703 C 0.73526 0.75477 0.25786 0.0
O704 O 0.79362 0.72425 0.25187 0.0
H705 H 0.82249 0.80255 0.24338 0.0
H706 H 0.74227 0.71453 0.30535 0.0
H707 H 0.78252 0.74287 0.21209 0.0
O708 O 0.74112 0.75049 0.27847 0.0
O709 O 0.75195 0.76063 0.24452 0.0
H710 H 0.78152 0.76802 0.34548 0.0
O711 O 0.78217 0.80067 0.2672 0.0
O712 O 0.76926 0.79272 0.3011 0.0
O713 O 0.82415 0.76429 0.2747 0.0
O714 O 0.81309 0.75725 0.30933 0.0
C715 C 0.77358 0.80856 0.28554 0.0
H716 H 0.72352 0.69688 0.33842 0.0
H717 H 0.76438 0.75024 0.38016 0.0
H718 H 0.83726 0.81646 0.20673 0.0
H719 H 0.79727 0.75471 0.17495 0.0
C720 C 0.82935 0.26161 0.76546 0.0
N721 N 0.76642 0.23238 0.73273 0.0
C722 C 0.77519 0.24518 0.71482 0.0
C723 C 0.77047 0.23658 0.69288 0.0
C724 C 0.75626 0.21485 0.68931 0.0
C725 C 0.74675 0.2024 0.70797 0.0
C726 C 0.75226 0.21145 0.72973 0.0
Zn727 Zn 0.77648 0.24468 0.76428 0.0
C728 C 0.79836 0.20471 0.79283 0.0
N729 N 0.79808 0.27229 0.82938 0.0
C730 C 0.80825 0.2954 0.83347 0.0
C731 C 0.79262 0.25648 0.8466 0.0
C732 C 0.79717 0.26368 0.86894 0.0
C733 C 0.80712 0.28756 0.87372 0.0
C734 C 0.8128 0.30354 0.8557 0.0
Zn735 Zn 0.78822 0.26043 0.79758 0.0
O736 O 0.81276 0.25151 0.75295 0.0
C737 C 0.76691 0.30043 0.76882 0.0
O738 O 0.82419 0.26827 0.78544 0.0
H739 H 0.78409 0.23842 0.84307 0.0
H740 H 0.78621 0.26192 0.71756 0.0
H741 H 0.81235 0.3077 0.81952 0.0
O742 O 0.76566 0.28194 0.75512 0.0
O743 O 0.77608 0.29707 0.78858 0.0
H744 H 0.74558 0.20153 0.74423 0.0
O745 O 0.75215 0.25269 0.80932 0.0
O746 O 0.74028 0.23813 0.77614 0.0
O747 O 0.80045 0.22362 0.80596 0.0
O748 O 0.78759 0.20744 0.77365 0.0
C749 C 0.73525 0.24388 0.79634 0.0
H750 H 0.77788 0.24679 0.67883 0.0
H751 H 0.7358 0.18548 0.70579 0.0
H752 H 0.7921 0.25102 0.88236 0.0
H753 H 0.82051 0.32213 0.85879 0.0
C754 C 0.81891 0.6776 0.77696 0.0
N755 N 0.83292 0.72467 0.72205 0.0
C756 C 0.84881 0.70606 0.71683 0.0
C757 C 0.85116 0.69871 0.69442 0.0
C758 C 0.8373 0.71094 0.67738 0.0
C759 C 0.82266 0.73149 0.68305 0.0
C760 C 0.82057 0.73796 0.70569 0.0
Zn761 Zn 0.8233 0.72883 0.75455 0.0
C762 C 0.76991 0.72262 0.75807 0.0
N763 N 0.80137 0.73433 0.82219 0.0
C764 C 0.81625 0.72742 0.83999 0.0
C765 C 0.78057 0.74757 0.82527 0.0
C766 C 0.77452 0.75527 0.84677 0.0
C767 C 0.79032 0.74983 0.86517 0.0
C768 C 0.81117 0.73533 0.86181 0.0
Zn769 Zn 0.81177 0.72964 0.78992 0.0
O770 O 0.82388 0.68885 0.75872 0.0
C771 C 0.86502 0.73688 0.78641 0.0
O772 O 0.81468 0.69049 0.79444 0.0
H773 H 0.7693 0.75347 0.81092 0.0
H774 H 0.85846 0.69582 0.73015 0.0
H775 H 0.8327 0.71689 0.83717 0.0
O776 O 0.8604 0.73314 0.76548 0.0
O777 O 0.84794 0.73529 0.80016 0.0
H778 H 0.80781 0.75245 0.71025 0.0
O779 O 0.80903 0.76925 0.78546 0.0
O780 O 0.82151 0.76842 0.75069 0.0
O781 O 0.77535 0.72389 0.77901 0.0
O782 O 0.78651 0.72517 0.74391 0.0
C783 C 0.81465 0.78083 0.76762 0.0
H784 H 0.86264 0.68278 0.69055 0.0
H785 H 0.81146 0.7411 0.67033 0.0
H786 H 0.75852 0.76687 0.84875 0.0
H787 H 0.82377 0.73097 0.87573 0.0
C788 C 0.51718 0.49118 0.48937 0.0
N789 N 0.49027 0.53936 0.53804 0.0
C790 C 0.48977 0.557 0.52129 0.0
C791 C 0.47024 0.57363 0.51888 0.0
C792 C 0.45111 0.57192 0.53381 0.0
C793 C 0.45346 0.55544 0.55239 0.0
C794 C 0.47328 0.5391 0.55411 0.0
Zn795 Zn 0.51513 0.51118 0.53674 0.0
C796 C 0.49568 0.46058 0.5435 0.0
N797 N 0.56988 0.45547 0.53154 0.0
C798 C 0.58452 0.45512 0.51356 0.0
C799 C 0.57511 0.44145 0.55036 0.0
C800 C 0.59764 0.42956 0.553 0.0
C801 C 0.61444 0.43189 0.53588 0.0
C802 C 0.60693 0.44298 0.51526 0.0
Zn803 Zn 0.54418 0.48289 0.53284 0.0
O804 O 0.5068 0.50716 0.50176 0.0
C805 C 0.56373 0.5333 0.52593 0.0
O806 O 0.53431 0.47773 0.4979 0.0
H807 H 0.56298 0.44169 0.56433 0.0
H808 H 0.50362 0.557 0.50879 0.0
H809 H 0.58008 0.46649 0.49883 0.0
O810 O 0.54185 0.53821 0.53038 0.0
O811 O 0.57054 0.51044 0.52497 0.0
H812 H 0.47418 0.52499 0.56734 0.0
O813 O 0.55374 0.48883 0.56737 0.0
O814 O 0.5234 0.51489 0.57204 0.0
O815 O 0.51805 0.4557 0.54109 0.0
O816 O 0.48841 0.48335 0.54257 0.0
C817 C 0.54197 0.50329 0.5801 0.0
H818 H 0.46897 0.58598 0.5043 0.0
H819 H 0.4389 0.55324 0.56408 0.0
H820 H 0.60294 0.42127 0.56916 0.0
H821 H 0.61952 0.44546 0.50177 0.0
C822 C 0.0158 0.542 0.06793 0.0
N823 N 0.04741 0.47857 0.03988 0.0
C824 C 0.06342 0.4789 0.05791 0.0
C825 C 0.0719 0.45631 0.06733 0.0
C826 C 0.06383 0.43327 0.05801 0.0
C827 C 0.04826 0.43356 0.03869 0.0
C828 C 0.04014 0.45656 0.02991 0.0
Zn829 Zn 0.03251 0.51134 0.02893 0.0
C830 C 0.97846 0.50783 0.02271 0.0
N831 N 0.00145 0.58044 0.00734 0.0
C832 C 0.00868 0.60219 0.01781 0.0
C833 C 0.98659 0.58067 0.98848 0.0
C834 C 0.97962 0.60357 0.97859 0.0
C835 C 0.9882 0.62624 0.98823 0.0
C836 C 0.00221 0.62545 0.00848 0.0
Zn837 Zn 0.01605 0.5475 0.0183 0.0
O838 O 0.02685 0.52186 0.06282 0.0
C839 C 0.06956 0.5523 0.02464 0.0
O840 O 0.00933 0.55738 0.05239 0.0
H841 H 0.98111 0.56308 0.98049 0.0
H842 H 0.06894 0.4967 0.06549 0.0
H843 H 0.02044 0.60149 0.03282 0.0
O844 O 0.06811 0.52888 0.02932 0.0
O845 O 0.05017 0.56458 0.02042 0.0
H846 H 0.02744 0.45683 0.01555 0.0
O847 O 0.02338 0.53742 0.98418 0.0
O848 O 0.03757 0.50054 0.99514 0.0
O849 O 0.98164 0.53047 0.01636 0.0
O850 O 0.9969 0.49451 0.02846 0.0
C851 C 0.03273 0.51622 0.97942 0.0
H852 H 0.08369 0.45691 0.08236 0.0
H853 H 0.04191 0.41617 0.03081 0.0
H854 H 0.96892 0.60349 0.96288 0.0
H855 H 0.0089 0.64263 0.01651 0.0
H856 H 0.03822 0.19188 0.06939 0.0
H857 H 0.11021 0.17448 0.09691 0.0
H858 H 0.1167 0.14554 0.0652 0.0
H859 H 0.02032 0.13627 0.06026 0.0
H860 H 0.00328 0.14041 0.03393 0.0
H861 H 0.00825 0.1668 0.05224 0.0
H862 H 0.02784 0.19146 0.01973 0.0
H863 H 0.02305 0.16466 0.00125 0.0
H864 H 0.05308 0.17796 0.00536 0.0
H865 H 0.11038 0.10952 0.0404 0.0
H866 H 0.09088 0.06976 0.02807 0.0
H867 H 0.02335 0.10952 0.01441 0.0
C868 C 0.05572 0.18278 0.06808 0.0
C869 C 0.07361 0.18514 0.08553 0.0
C870 C 0.09623 0.17284 0.08364 0.0
C871 C 0.10017 0.15658 0.06551 0.0
C872 C 0.08147 0.15314 0.04924 0.0
C873 C 0.05976 0.16634 0.05014 0.0
C874 C 0.04065 0.15548 0.0339 0.0
C875 C 0.01679 0.14935 0.04582 0.0
C876 C 0.03589 0.17346 0.01387 0.0
C877 C 0.05372 0.13194 0.02643 0.0
C878 C 0.07776 0.13169 0.03429 0.0
C879 C 0.09192 0.10982 0.03346 0.0
C880 C 0.08072 0.08722 0.02636 0.0
C881 C 0.05561 0.08684 0.02059 0.0
C882 C 0.04266 0.10969 0.01868 0.0
H883 H 0.09969 0.7511 0.33441 0.0
H884 H 0.12581 0.76205 0.40375 0.0
H885 H 0.1681 0.76033 0.3915 0.0
H886 H 0.14723 0.70745 0.31842 0.0
H887 H 0.14976 0.72014 0.29036 0.0
H888 H 0.12122 0.72192 0.3043 0.0
H889 H 0.12047 0.77042 0.29859 0.0
H890 H 0.14895 0.76877 0.28456 0.0
H891 H 0.14603 0.78914 0.3087 0.0
H892 H 0.20747 0.7581 0.37226 0.0
H893 H 0.24195 0.75632 0.34709 0.0
H894 H 0.19193 0.74652 0.28932 0.0
C895 C 0.11433 0.75311 0.347 0.0
C896 C 0.10928 0.75672 0.37014 0.0
C897 C 0.12904 0.75929 0.38599 0.0
C898 C 0.15321 0.7583 0.37919 0.0
C899 C 0.15757 0.75469 0.35638 0.0
C900 C 0.13877 0.75218 0.34045 0.0
C901 C 0.1488 0.74882 0.31695 0.0
C902 C 0.1413 0.72305 0.30692 0.0
C903 C 0.14057 0.77059 0.30128 0.0
C904 C 0.17612 0.74995 0.32221 0.0
C905 C 0.18061 0.75331 0.34513 0.0
C906 C 0.20418 0.75542 0.3543 0.0
C907 C 0.22371 0.75438 0.33976 0.0
C908 C 0.21986 0.75121 0.31611 0.0
C909 C 0.1956 0.74871 0.30729 0.0
H910 H 0.56698 0.76683 0.59238 0.0
H911 H 0.56909 0.78864 0.66308 0.0
H912 H 0.56298 0.83321 0.65208 0.0
H913 H 0.59968 0.82136 0.57254 0.0
H914 H 0.58188 0.82368 0.54647 0.0
H915 H 0.58625 0.7934 0.55989 0.0
H916 H 0.53952 0.7871 0.56033 0.0
H917 H 0.535 0.81741 0.547 0.0
H918 H 0.52103 0.81067 0.5734 0.0
H919 H 0.55534 0.87479 0.63372 0.0
H920 H 0.54873 0.91168 0.609 0.0
H921 H 0.5538 0.8634 0.55 0.0
C922 C 0.56617 0.78102 0.60551 0.0
C923 C 0.56843 0.77439 0.62856 0.0
C924 C 0.56743 0.7934 0.64531 0.0
C925 C 0.56391 0.81873 0.63925 0.0
C926 C 0.56164 0.82465 0.61638 0.0
C927 C 0.56291 0.80644 0.59975 0.0
C928 C 0.56028 0.81801 0.57642 0.0
C929 C 0.5834 0.81387 0.56305 0.0
C930 C 0.53761 0.80768 0.56353 0.0
C931 C 0.55719 0.84555 0.58258 0.0
C932 C 0.55793 0.8489 0.60572 0.0
C933 C 0.55503 0.87251 0.61556 0.0
C934 C 0.55147 0.89337 0.60134 0.0
C935 C 0.55109 0.89054 0.57752 0.0
C936 C 0.55389 0.86622 0.5681 0.0
H937 H 0.44607 0.24772 0.87305 0.0
H938 H 0.48334 0.30649 0.83656 0.0
H939 H 0.44546 0.31557 0.81452 0.0
H940 H 0.40971 0.22481 0.82556 0.0
H941 H 0.38309 0.21863 0.84159 0.0
H942 H 0.41288 0.21715 0.85518 0.0
H943 H 0.3997 0.24981 0.88487 0.0
H944 H 0.36988 0.25145 0.87132 0.0
H945 H 0.38759 0.27986 0.87559 0.0
H946 H 0.40418 0.31785 0.79572 0.0
H947 H 0.36226 0.31272 0.78059 0.0
H948 H 0.35035 0.25244 0.82873 0.0
C949 C 0.44621 0.26258 0.8605 0.0
C950 C 0.4678 0.27646 0.85661 0.0
C951 C 0.46716 0.29562 0.83991 0.0
C952 C 0.44566 0.30095 0.8273 0.0
C953 C 0.42478 0.28698 0.83149 0.0
C954 C 0.4248 0.26814 0.84764 0.0
C955 C 0.39986 0.25559 0.84826 0.0
C956 C 0.40149 0.22737 0.84229 0.0
C957 C 0.38859 0.25941 0.87139 0.0
C958 C 0.3859 0.27025 0.82987 0.0
C959 C 0.40072 0.28829 0.82053 0.0
C960 C 0.3924 0.30384 0.80296 0.0
C961 C 0.36845 0.30074 0.79446 0.0
C962 C 0.35278 0.28223 0.80343 0.0
C963 C 0.36168 0.26695 0.82162 0.0
H964 H 0.02843 0.81951 0.45861 0.0
H965 H 0.03417 0.84919 0.39065 0.0
H966 H 0.02974 0.89242 0.40513 0.0
H967 H 0.98367 0.865 0.47727 0.0
H968 H 0.9969 0.86801 0.50543 0.0
H969 H 1.00013 0.8389 0.49002 0.0
H970 H 0.04696 0.84177 0.49552 0.0
H971 H 0.04386 0.87081 0.51102 0.0
H972 H 0.06254 0.86989 0.48665 0.0
H973 H 0.02532 0.93227 0.42619 0.0
H974 H 0.02221 0.9673 0.45303 0.0
H975 H 0.01922 0.91372 0.50848 0.0
C976 C 0.02871 0.83514 0.44682 0.0
C977 C 0.03164 0.83083 0.4234 0.0
C978 C 0.03198 0.85185 0.40859 0.0
C979 C 0.02942 0.87656 0.41666 0.0
C980 C 0.02653 0.88019 0.43968 0.0
C981 C 0.02622 0.86018 0.45465 0.0
C982 C 0.0233 0.86979 0.47868 0.0
C983 C 0.99959 0.85983 0.48842 0.0
C984 C 0.04549 0.86264 0.49386 0.0
C985 C 0.0221 0.89825 0.47478 0.0
C986 C 0.02395 0.90362 0.45207 0.0
C987 C 0.0238 0.92831 0.44401 0.0
C988 C 0.02202 0.94814 0.4595 0.0
C989 C 0.02039 0.94344 0.48298 0.0
C990 C 0.02018 0.91801 0.49066 0.0
H991 H 0.51055 0.71677 0.69836 0.0
H992 H 0.49729 0.65259 0.654 0.0
H993 H 0.45515 0.64945 0.66741 0.0
H994 H 0.47461 0.69521 0.74494 0.0
H995 H 0.46399 0.72661 0.75099 0.0
H996 H 0.49334 0.72225 0.73903 0.0
H997 H 0.48081 0.75214 0.70592 0.0
H998 H 0.45144 0.75653 0.71773 0.0
H999 H 0.45359 0.7454 0.68912 0.0
H1000 H 0.4135 0.65523 0.68475 0.0
H1001 H 0.37677 0.66906 0.70433 0.0
H1002 H 0.41834 0.73029 0.7357 0.0
C1003 C 0.49894 0.70179 0.69165 0.0
C1004 C 0.50717 0.68482 0.67523 0.0
C1005 C 0.49132 0.66569 0.6667 0.0
C1006 C 0.4674 0.66379 0.67421 0.0
C1007 C 0.45977 0.68116 0.69022 0.0
C1008 C 0.47518 0.69973 0.69883 0.0
C1009 C 0.46251 0.71689 0.71503 0.0
C1010 C 0.47432 0.71512 0.73891 0.0
C1011 C 0.46206 0.74436 0.70642 0.0
C1012 C 0.43741 0.7053 0.71409 0.0
C1013 C 0.43609 0.68463 0.69983 0.0
C1014 C 0.41441 0.67134 0.69602 0.0
C1015 C 0.39361 0.67943 0.70709 0.0
C1016 C 0.39466 0.70067 0.72171 0.0
C1017 C 0.41695 0.71364 0.7251 0.0
H1018 H 0.54706 0.1983 0.95581 0.0
H1019 H 0.51182 0.17327 0.89291 0.0
H1020 H 0.50652 0.13088 0.90896 0.0
H1021 H 0.57939 0.13988 0.96792 0.0
H1022 H 0.57532 0.14102 0.99796 0.0
H1023 H 0.57634 0.16991 0.98191 0.0
H1024 H 0.53452 0.18287 0.99689 0.0
H1025 H 0.53333 0.15395 0.01291 0.0
H1026 H 0.50892 0.16179 0.99303 0.0
H1027 H 0.50512 0.09158 0.9306 0.0
H1028 H 0.50849 0.0559 0.95678 0.0
H1029 H 0.54435 0.10416 0.00721 0.0
C1030 C 0.53826 0.18384 0.94546 0.0
C1031 C 0.52985 0.18921 0.92301 0.0
C1032 C 0.51842 0.16976 0.91007 0.0
C1033 C 0.51526 0.14556 0.91906 0.0
C1034 C 0.52357 0.14091 0.94114 0.0
C1035 C 0.53488 0.15934 0.95427 0.0
C1036 C 0.54223 0.14875 0.97749 0.0
C1037 C 0.56997 0.14996 0.98155 0.0
C1038 C 0.52896 0.16267 0.99619 0.0
C1039 C 0.53341 0.12149 0.97518 0.0
C1040 C 0.52266 0.11768 0.95399 0.0
C1041 C 0.51346 0.09431 0.94725 0.0
C1042 C 0.51553 0.07409 0.96234 0.0
C1043 C 0.52672 0.07705 0.98415 0.0
C1044 C 0.53552 0.10129 0.99078 0.0
H1045 H 0.13243 0.19743 0.17718 0.0
H1046 H 0.08064 0.22111 0.22635 0.0
H1047 H 0.1143 0.22773 0.25452 0.0
H1048 H 0.17982 0.16905 0.21803 0.0
H1049 H 0.20412 0.18172 0.20179 0.0
H1050 H 0.1759 0.17225 0.18781 0.0
H1051 H 0.172 0.21689 0.17007 0.0
H1052 H 0.19978 0.22673 0.18437 0.0
H1053 H 0.17215 0.24423 0.18826 0.0
H1054 H 0.15315 0.23812 0.27489 0.0
H1055 H 0.19469 0.25167 0.28639 0.0
H1056 H 0.22121 0.22454 0.22265 0.0
C1057 C 0.12816 0.20279 0.19424 0.0
C1058 C 0.10408 0.20829 0.19991 0.0
C1059 C 0.09906 0.21645 0.22196 0.0
C1060 C 0.11802 0.22022 0.23801 0.0
C1061 C 0.14177 0.21591 0.23154 0.0
C1062 C 0.14692 0.20724 0.21021 0.0
C1063 C 0.17396 0.20798 0.2063 0.0
C1064 C 0.18404 0.18115 0.20331 0.0
C1065 C 0.17979 0.22497 0.18606 0.0
C1066 C 0.18307 0.21951 0.22834 0.0
C1067 C 0.16431 0.22332 0.24288 0.0
C1068 C 0.16805 0.23488 0.26382 0.0
C1069 C 0.19165 0.24264 0.27012 0.0
C1070 C 0.21103 0.23924 0.25531 0.0
C1071 C 0.20666 0.22746 0.23422 0.0
H1072 H 0.12999 0.99817 0.18006 0.0
H1073 H 0.1033 0.06475 0.2139 0.0
H1074 H 0.07317 0.0715 0.18242 0.0
H1075 H 0.12529 0.02442 0.12376 0.0
H1076 H 0.11647 0.99486 0.11071 0.0
H1077 H 0.13532 0.99495 0.1362 0.0
H1078 H 0.10412 0.96613 0.15558 0.0
H1079 H 0.08514 0.96608 0.13017 0.0
H1080 H 0.07281 0.97597 0.15653 0.0
H1081 H 0.04511 0.07008 0.14772 0.0
H1082 H 0.0237 0.06301 0.11087 0.0
H1083 H 0.07045 0.99879 0.09864 0.0
C1084 C 0.11774 0.01413 0.18086 0.0
C1085 C 0.11879 0.03086 0.19948 0.0
C1086 C 0.10275 0.05173 0.19979 0.0
C1087 C 0.08555 0.05564 0.18203 0.0
C1088 C 0.08491 0.03873 0.16395 0.0
C1089 C 0.10081 0.01858 0.16309 0.0
C1090 C 0.09698 0.00374 0.14134 0.0
C1091 C 0.11987 0.00455 0.12717 0.0
C1092 C 0.0893 0.97636 0.14621 0.0
C1093 C 0.07631 0.01856 0.13018 0.0
C1094 C 0.06944 0.03852 0.14359 0.0
C1095 C 0.05043 0.0546 0.13703 0.0
C1096 C 0.0383 0.05036 0.11611 0.0
C1097 C 0.04542 0.03039 0.10185 0.0
C1098 C 0.06465 0.01429 0.10911 0.0
H1099 H 0.27372 0.87676 0.4723 0.0
H1100 H 0.30883 0.82167 0.51684 0.0
H1101 H 0.32391 0.79897 0.48368 0.0
H1102 H 0.25485 0.83298 0.42837 0.0
H1103 H 0.26039 0.85497 0.40587 0.0
H1104 H 0.2523 0.8665 0.43319 0.0
H1105 H 0.2913 0.89414 0.4349 0.0
H1106 H 0.29972 0.88234 0.40775 0.0
H1107 H 0.32053 0.87942 0.43181 0.0
H1108 H 0.3352 0.7824 0.44575 0.0
H1109 H 0.3395 0.77137 0.40553 0.0
H1110 H 0.29749 0.83759 0.38581 0.0
C1111 C 0.28439 0.85979 0.47507 0.0
C1112 C 0.29005 0.8509 0.49713 0.0
C1113 C 0.3042 0.82873 0.50007 0.0
C1114 C 0.31295 0.81581 0.48136 0.0
C1115 C 0.30745 0.82536 0.45986 0.0
C1116 C 0.29333 0.84672 0.45661 0.0
C1117 C 0.28983 0.85289 0.43173 0.0
C1118 C 0.26274 0.85175 0.42436 0.0
C1119 C 0.30101 0.87873 0.42624 0.0
C1120 C 0.30403 0.83154 0.42148 0.0
C1121 C 0.31417 0.81596 0.438 0.0
C1122 C 0.32743 0.7945 0.43266 0.0
C1123 C 0.32982 0.78842 0.40982 0.0
C1124 C 0.319 0.80374 0.39262 0.0
C1125 C 0.30639 0.82585 0.39859 0.0
H1126 H 0.46532 0.99786 0.68129 0.0
H1127 H 0.40748 0.05163 0.66674 0.0
H1128 H 0.42612 0.06261 0.63065 0.0
H1129 H 0.51475 0.03192 0.65534 0.0
H1130 H 0.52788 0.00392 0.64347 0.0
H1131 H 0.51139 0.00181 0.66916 0.0
H1132 H 0.48287 0.96787 0.65093 0.0
H1133 H 0.49946 0.96969 0.62533 0.0
H1134 H 0.46703 0.97467 0.62445 0.0
H1135 H 0.451 0.06793 0.59631 0.0
H1136 H 0.4764 0.06235 0.56319 0.0
H1137 H 0.51626 0.00247 0.59821 0.0
C1138 C 0.45677 0.01208 0.67052 0.0
C1139 C 0.43512 0.02412 0.67679 0.0
C1140 C 0.42407 0.04222 0.66216 0.0
C1141 C 0.43463 0.04872 0.64175 0.0
C1142 C 0.45602 0.03659 0.63601 0.0
C1143 C 0.46671 0.01827 0.64972 0.0
C1144 C 0.48833 0.00644 0.63853 0.0
C1145 C 0.51199 0.01132 0.65246 0.0
C1146 C 0.48416 0.97798 0.63457 0.0
C1147 C 0.48804 0.02092 0.61641 0.0
C1148 C 0.46958 0.03861 0.61554 0.0
C1149 C 0.46551 0.05413 0.59678 0.0
C1150 C 0.48017 0.05094 0.57809 0.0
C1151 C 0.49837 0.03202 0.57809 0.0
C1152 C 0.50259 0.01719 0.59773 0.0
H1153 H 0.26508 0.11427 0.94098 0.0
H1154 H 0.22164 0.15879 0.98581 0.0
H1155 H 0.20992 0.18719 0.95398 0.0
H1156 H 0.28932 0.16299 0.9116 0.0
H1157 H 0.28838 0.14762 0.88442 0.0
H1158 H 0.29028 0.12898 0.90976 0.0
H1159 H 0.25133 0.10446 0.89693 0.0
H1160 H 0.24937 0.12298 0.87138 0.0
H1161 H 0.22389 0.12166 0.88965 0.0
H1162 H 0.20905 0.21444 0.91894 0.0
H1163 H 0.21639 0.23636 0.88281 0.0
H1164 H 0.25837 0.17231 0.86074 0.0
C1165 C 0.25263 0.12966 0.94395 0.0
C1166 C 0.24425 0.13448 0.96572 0.0
C1167 C 0.22807 0.15477 0.96912 0.0
C1168 C 0.22136 0.17095 0.95118 0.0
C1169 C 0.23055 0.16609 0.92996 0.0
C1170 C 0.24546 0.14561 0.92621 0.0
C1171 C 0.25421 0.14532 0.90232 0.0
C1172 C 0.28219 0.1463 0.90203 0.0
C1173 C 0.24408 0.12224 0.8893 0.0
C1174 C 0.2429 0.16952 0.89348 0.0
C1175 C 0.22918 0.1812 0.90957 0.0
C1176 C 0.21917 0.20515 0.906 0.0
C1177 C 0.2235 0.21748 0.88555 0.0
C1178 C 0.23754 0.20572 0.86899 0.0
C1179 C 0.24695 0.18131 0.8729 0.0
H1180 H 0.13782 0.05087 0.3226 0.0
H1181 H 0.10897 0.97797 0.30115 0.0
H1182 H 0.08577 0.97537 0.33606 0.0
H1183 H 0.14559 0.03533 0.38129 0.0
H1184 H 0.13705 0.06619 0.39115 0.0
H1185 H 0.15072 0.06284 0.36413 0.0
H1186 H 0.11394 0.08563 0.34471 0.0
H1187 H 0.10019 0.08914 0.37167 0.0
H1188 H 0.08364 0.07379 0.34869 0.0
H1189 H 0.06614 0.98046 0.37305 0.0
H1190 H 0.05123 0.99257 0.41023 0.0
H1191 H 0.0934 0.06193 0.40849 0.0
C1192 C 0.12646 0.03446 0.32517 0.0
C1193 C 0.12505 0.01465 0.30913 0.0
C1194 C 0.11024 0.99335 0.3132 0.0
C1195 C 0.09702 0.99172 0.33296 0.0
C1196 C 0.09896 0.01148 0.3485 0.0
C1197 C 0.11332 0.03243 0.34489 0.0
C1198 C 0.11261 0.05075 0.36457 0.0
C1199 C 0.138 0.05395 0.37596 0.0
C1200 C 0.10195 0.07634 0.35695 0.0
C1201 C 0.09555 0.03683 0.37981 0.0
C1202 C 0.08786 0.01427 0.37011 0.0
C1203 C 0.07194 0.99811 0.38077 0.0
C1204 C 0.06349 0.00523 0.40182 0.0
C1205 C 0.07095 0.02833 0.4121 0.0
C1206 C 0.08741 0.04419 0.40102 0.0
H1207 H 0.28241 0.82556 0.60705 0.0
H1208 H 0.26022 0.89951 0.63017 0.0
H1209 H 0.25493 0.88236 0.66845 0.0
H1210 H 0.24339 0.78743 0.64234 0.0
H1211 H 0.26631 0.7638 0.64826 0.0
H1212 H 0.26627 0.7811 0.62205 0.0
H1213 H 0.31077 0.79524 0.63067 0.0
H1214 H 0.31098 0.77787 0.65682 0.0
H1215 H 0.31833 0.81109 0.65695 0.0
H1216 H 0.25166 0.85757 0.70379 0.0
H1217 H 0.25604 0.82809 0.73584 0.0
H1218 H 0.28431 0.77083 0.69136 0.0
C1219 C 0.27619 0.83797 0.62019 0.0
C1220 C 0.27143 0.86375 0.61575 0.0
C1221 C 0.26388 0.87968 0.63333 0.0
C1222 C 0.26069 0.87009 0.65505 0.0
C1223 C 0.26555 0.84461 0.65897 0.0
C1224 C 0.27356 0.82882 0.6422 0.0
C1225 C 0.27948 0.80274 0.65154 0.0
C1226 C 0.26287 0.78258 0.64038 0.0
C1227 C 0.3065 0.79638 0.64884 0.0
C1228 C 0.27369 0.80646 0.67617 0.0
C1229 C 0.26514 0.8306 0.67989 0.0
C1230 C 0.25834 0.83861 0.70112 0.0
C1231 C 0.26075 0.82166 0.71919 0.0
C1232 C 0.27042 0.79716 0.71604 0.0
C1233 C 0.27681 0.78943 0.69419 0.0
H1234 H 0.46879 0.00625 0.79785 0.0
H1235 H 0.39428 0.01386 0.81883 0.0
H1236 H 0.40734 0.00372 0.85789 0.0
H1237 H 0.48489 0.95414 0.83366 0.0
H1238 H 0.51534 0.96504 0.84047 0.0
H1239 H 0.50063 0.97364 0.81392 0.0
H1240 H 0.50763 0.02108 0.82291 0.0
H1241 H 0.52264 0.01261 0.84936 0.0
H1242 H 0.49708 0.03391 0.84899 0.0
H1243 H 0.42745 0.99124 0.89401 0.0
H1244 H 0.45448 0.98104 0.92662 0.0
H1245 H 0.51661 0.98159 0.88334 0.0
C1246 C 0.45533 0.00609 0.81075 0.0
C1247 C 0.43051 0.01084 0.80529 0.0
C1248 C 0.41339 0.01032 0.82259 0.0
C1249 C 0.42059 0.00448 0.84484 0.0
C1250 C 0.44502 0.99933 0.8496 0.0
C1251 C 0.46225 0.00039 0.83321 0.0
C1252 C 0.48736 0.99416 0.84314 0.0
C1253 C 0.49765 0.97033 0.83214 0.0
C1254 C 0.5047 0.01679 0.84097 0.0
C1255 C 0.48142 0.98936 0.8676 0.0
C1256 C 0.45684 0.99228 0.8708 0.0
C1257 C 0.44675 0.98884 0.89177 0.0
C1258 C 0.46227 0.98274 0.91015 0.0
C1259 C 0.48767 0.98015 0.90754 0.0
C1260 C 0.49729 0.98336 0.88587 0.0
H1261 H 0.28301 0.12919 0.09439 0.0
H1262 H 0.29377 0.18201 0.03967 0.0
H1263 H 0.30244 0.21614 0.06754 0.0
H1264 H 0.25424 0.17096 0.13188 0.0
H1265 H 0.26934 0.15823 0.15687 0.0
H1266 H 0.26396 0.13843 0.1325 0.0
H1267 H 0.31004 0.12815 0.13197 0.0
H1268 H 0.31556 0.14805 0.1563 0.0
H1269 H 0.33176 0.15364 0.13085 0.0
H1270 H 0.30711 0.24495 0.10189 0.0
H1271 H 0.31023 0.26513 0.13978 0.0
H1272 H 0.29959 0.19213 0.17112 0.0
C1273 C 0.28711 0.14797 0.08829 0.0
C1274 C 0.2875 0.15318 0.065 0.0
C1275 C 0.29335 0.17779 0.05755 0.0
C1276 C 0.29828 0.19722 0.07321 0.0
C1277 C 0.29774 0.19146 0.09616 0.0
C1278 C 0.29259 0.16733 0.10363 0.0
C1279 C 0.29361 0.16578 0.1291 0.0
C1280 C 0.26881 0.15789 0.13811 0.0
C1281 C 0.31396 0.14785 0.13754 0.0
C1282 C 0.29961 0.19293 0.13486 0.0
C1283 C 0.30181 0.20756 0.11571 0.0
C1284 C 0.30584 0.23359 0.117 0.0
C1285 C 0.30757 0.24489 0.13847 0.0
C1286 C 0.30564 0.23001 0.15816 0.0
C1287 C 0.30179 0.20375 0.15626 0.0
H1288 H 0.22579 0.02146 0.9997 0.0
H1289 H 0.23224 0.03798 0.07131 0.0
H1290 H 0.20332 0.00358 0.07888 0.0
H1291 H 0.16673 0.01627 0.99604 0.0
H1292 H 0.16447 0.99081 0.97583 0.0
H1293 H 0.19092 0.01055 0.97691 0.0
H1294 H 0.21815 0.97095 0.98283 0.0
H1295 H 0.19147 0.95103 0.982 0.0
H1296 H 0.21269 0.94966 0.00587 0.0
H1297 H 0.16712 0.97698 0.07776 0.0
H1298 H 0.12539 0.96442 0.06814 0.0
H1299 H 0.14235 0.96154 0.99721 0.0
C1300 C 0.22171 0.01721 0.01704 0.0
C1301 C 0.23111 0.0323 0.03493 0.0
C1302 C 0.22521 0.02656 0.05737 0.0
C1303 C 0.20903 0.00685 0.06183 0.0
C1304 C 0.19928 0.99284 0.04369 0.0
C1305 C 0.2056 0.99763 0.0217 0.0
C1306 C 0.18941 0.98331 0.00491 0.0
C1307 C 0.17716 0.00132 0.98744 0.0
C1308 C 0.20379 0.9625 0.99322 0.0
C1309 C 0.17129 0.97201 0.0207 0.0
C1310 C 0.17796 0.97676 0.04307 0.0
C1311 C 0.16207 0.97235 0.06042 0.0
C1312 C 0.13822 0.96498 0.05471 0.0
C1313 C 0.13039 0.96224 0.03176 0.0
C1314 C 0.14778 0.96365 0.01485 0.0
H1315 H 0.7048 0.42493 0.07689 0.0
H1316 H 0.73783 0.45761 0.01816 0.0
H1317 H 0.70032 0.48187 0.00967 0.0
H1318 H 0.64637 0.41642 0.05107 0.0
H1319 H 0.62985 0.42386 0.07594 0.0
H1320 H 0.66002 0.41084 0.07874 0.0
H1321 H 0.67379 0.44899 0.10351 0.0
H1322 H 0.64361 0.46213 0.10079 0.0
H1323 H 0.66949 0.48063 0.09282 0.0
H1324 H 0.65907 0.5009 0.00642 0.0
H1325 H 0.61585 0.5125 0.00759 0.0
H1326 H 0.60857 0.4667 0.06787 0.0
C1327 C 0.70423 0.43752 0.06246 0.0
C1328 C 0.72425 0.43959 0.04825 0.0
C1329 C 0.72271 0.45583 0.02928 0.0
C1330 C 0.70153 0.46974 0.02437 0.0
C1331 C 0.68201 0.46708 0.03854 0.0
C1332 C 0.68308 0.45134 0.05716 0.0
C1333 C 0.65892 0.45074 0.06874 0.0
C1334 C 0.64816 0.42387 0.0686 0.0
C1335 C 0.66162 0.46125 0.0929 0.0
C1336 C 0.64404 0.46833 0.05353 0.0
C1337 C 0.65785 0.47773 0.03638 0.0
C1338 C 0.64809 0.49379 0.01983 0.0
C1339 C 0.62347 0.50025 0.02066 0.0
C1340 C 0.60876 0.49053 0.03783 0.0
C1341 C 0.61933 0.47456 0.05461 0.0
H1342 H 0.8495 0.44872 0.26238 0.0
H1343 H 0.91958 0.42161 0.24125 0.0
H1344 H 0.90644 0.37766 0.24769 0.0
H1345 H 0.84175 0.40406 0.30652 0.0
H1346 H 0.80951 0.40003 0.30117 0.0
H1347 H 0.82394 0.42947 0.29422 0.0
H1348 H 0.80743 0.42563 0.25281 0.0
H1349 H 0.79269 0.39634 0.25973 0.0
H1350 H 0.81357 0.39739 0.23698 0.0
H1351 H 0.88642 0.3369 0.25764 0.0
H1352 H 0.85976 0.30157 0.26797 0.0
H1353 H 0.80239 0.3549 0.28245 0.0
C1354 C 0.86197 0.43351 0.2589 0.0
C1355 C 0.88556 0.43856 0.2513 0.0
C1356 C 0.9014 0.41817 0.24702 0.0
C1357 C 0.89414 0.39315 0.25069 0.0
C1358 C 0.87094 0.38882 0.25856 0.0
C1359 C 0.85498 0.40838 0.26241 0.0
C1360 C 0.83106 0.39847 0.27083 0.0
C1361 C 0.8263 0.40861 0.2946 0.0
C1362 C 0.80994 0.40484 0.25409 0.0
C1363 C 0.83619 0.37034 0.27131 0.0
C1364 C 0.85932 0.36522 0.26421 0.0
C1365 C 0.86824 0.34065 0.26317 0.0
C1366 C 0.85296 0.32071 0.26918 0.0
C1367 C 0.82898 0.32543 0.27609 0.0
C1368 C 0.82066 0.35065 0.27736 0.0
H1369 H 0.83393 0.52528 0.50917 0.0
H1370 H 0.84133 0.60073 0.48163 0.0
H1371 H 0.8859 0.59518 0.48118 0.0
H1372 H 0.88198 0.52665 0.54598 0.0
H1373 H 0.89231 0.49468 0.54203 0.0
H1374 H 0.86085 0.50245 0.53651 0.0
H1375 H 0.86295 0.4852 0.49569 0.0
H1376 H 0.89435 0.47676 0.50122 0.0
H1377 H 0.88613 0.49677 0.47754 0.0
H1378 H 0.92899 0.58494 0.49111 0.0
H1379 H 0.96858 0.56776 0.50503 0.0
H1380 H 0.93346 0.49775 0.52349 0.0
C1381 C 0.84493 0.54025 0.50234 0.0
C1382 C 0.83445 0.5634 0.49544 0.0
C1383 C 0.84917 0.58277 0.48677 0.0
C1384 C 0.87444 0.57981 0.48652 0.0
C1385 C 0.88439 0.55714 0.49443 0.0
C1386 C 0.87008 0.53739 0.50155 0.0
C1387 C 0.88537 0.5156 0.51051 0.0
C1388 C 0.87979 0.50951 0.53522 0.0
C1389 C 0.882 0.4922 0.49533 0.0
C1390 C 0.91048 0.5268 0.50861 0.0
C1391 C 0.9095 0.55076 0.49922 0.0
C1392 C 0.93009 0.56596 0.49787 0.0
C1393 C 0.95233 0.55623 0.50602 0.0
C1394 C 0.95365 0.5316 0.51516 0.0
C1395 C 0.93265 0.51658 0.51631 0.0
H1396 H 0.21173 0.08583 0.29164 0.0
H1397 H 0.24269 0.06145 0.229 0.0
H1398 H 0.27393 0.09504 0.23293 0.0
H1399 H 0.21598 0.14975 0.28031 0.0
H1400 H 0.22251 0.15925 0.30912 0.0
H1401 H 0.2057 0.1307 0.30335 0.0
H1402 H 0.23731 0.10547 0.32781 0.0
H1403 H 0.25443 0.13404 0.33337 0.0
H1404 H 0.26905 0.107 0.32131 0.0
H1405 H 0.29864 0.13369 0.24139 0.0
H1406 H 0.31151 0.17717 0.25079 0.0
H1407 H 0.26375 0.17729 0.3075 0.0
C1408 C 0.22549 0.08719 0.27906 0.0
C1409 C 0.22508 0.07092 0.26016 0.0
C1410 C 0.24284 0.07369 0.24366 0.0
C1411 C 0.26075 0.09255 0.24587 0.0
C1412 C 0.26053 0.10848 0.26464 0.0
C1413 C 0.2432 0.10614 0.28084 0.0
C1414 C 0.24482 0.12769 0.29766 0.0
C1415 C 0.22084 0.14273 0.29758 0.0
C1416 C 0.25182 0.11796 0.32145 0.0
C1417 C 0.26525 0.14303 0.28799 0.0
C1418 C 0.27447 0.13128 0.26927 0.0
C1419 C 0.29186 0.14287 0.25622 0.0
C1420 C 0.29912 0.16757 0.26175 0.0
C1421 C 0.28878 0.18054 0.28 0.0
C1422 C 0.27247 0.16764 0.29385 0.0
H1423 H 0.36315 0.91365 0.55255 0.0
H1424 H 0.31639 0.97025 0.52061 0.0
H1425 H 0.35254 0.99202 0.50631 0.0
H1426 H 0.41199 0.95595 0.56964 0.0
H1427 H 0.43542 0.93323 0.56412 0.0
H1428 H 0.40581 0.92259 0.57203 0.0
H1429 H 0.40249 0.89514 0.53577 0.0
H1430 H 0.43195 0.90602 0.52759 0.0
H1431 H 0.40587 0.90984 0.5086 0.0
H1432 H 0.39375 0.00741 0.49539 0.0
H1433 H 0.43725 0.01675 0.4905 0.0
H1434 H 0.45679 0.94946 0.52897 0.0
C1435 C 0.36053 0.93076 0.54273 0.0
C1436 C 0.33702 0.94036 0.53774 0.0
C1437 C 0.33429 0.96267 0.52469 0.0
C1438 C 0.35468 0.97508 0.51642 0.0
C1439 C 0.37759 0.96486 0.5213 0.0
C1440 C 0.38064 0.94331 0.53428 0.0
C1441 C 0.40722 0.93626 0.53717 0.0
C1442 C 0.4156 0.93707 0.56222 0.0
C1443 C 0.41216 0.91027 0.52665 0.0
C1444 C 0.41867 0.95729 0.52388 0.0
C1445 C 0.40128 0.97354 0.51479 0.0
C1446 C 0.40754 0.99478 0.50236 0.0
C1447 C 0.43228 0.99987 0.49961 0.0
C1448 C 0.45041 0.98376 0.50925 0.0
C1449 C 0.44339 0.96196 0.52116 0.0
H1450 H 0.87083 0.58336 0.28419 0.0
H1451 H 0.8467 0.56141 0.21644 0.0
H1452 H 0.81872 0.59788 0.21469 0.0
H1453 H 0.81094 0.60598 0.3022 0.0
H1454 H 0.82413 0.63165 0.3185 0.0
H1455 H 0.84097 0.60278 0.31509 0.0
H1456 H 0.87678 0.62824 0.29909 0.0
H1457 H 0.86009 0.65713 0.30247 0.0
H1458 H 0.87122 0.64882 0.2752 0.0
H1459 H 0.79728 0.63926 0.2185 0.0
H1460 H 0.78199 0.68159 0.22851 0.0
H1461 H 0.81754 0.67539 0.29476 0.0
C1462 C 0.8594 0.58605 0.26911 0.0
C1463 C 0.86092 0.56958 0.25042 0.0
C1464 C 0.84575 0.57374 0.23097 0.0
C1465 C 0.8298 0.59439 0.22983 0.0
C1466 C 0.82894 0.61047 0.24843 0.0
C1467 C 0.84311 0.60638 0.26782 0.0
C1468 C 0.83933 0.62702 0.28511 0.0
C1469 C 0.82817 0.61621 0.30649 0.0
C1470 C 0.86328 0.64113 0.29079 0.0
C1471 C 0.82135 0.64374 0.27215 0.0
C1472 C 0.81562 0.63382 0.25102 0.0
C1473 C 0.80117 0.64694 0.23517 0.0
C1474 C 0.7926 0.67093 0.24098 0.0
C1475 C 0.79819 0.68138 0.26253 0.0
C1476 C 0.81239 0.66741 0.27843 0.0
H1477 H 0.70152 0.43247 0.79012 0.0
H1478 H 0.68864 0.43763 0.71755 0.0
H1479 H 0.71008 0.39714 0.71264 0.0
H1480 H 0.76174 0.40682 0.78819 0.0
H1481 H 0.75832 0.38621 0.81211 0.0
H1482 H 0.74134 0.41526 0.81012 0.0
H1483 H 0.70102 0.3904 0.81383 0.0
H1484 H 0.71791 0.36132 0.81605 0.0
H1485 H 0.69403 0.36474 0.79463 0.0
H1486 H 0.73261 0.3561 0.71558 0.0
H1487 H 0.75432 0.31682 0.72625 0.0
H1488 H 0.75388 0.33905 0.79678 0.0
C1489 C 0.70304 0.42495 0.77323 0.0
C1490 C 0.69333 0.43809 0.75421 0.0
C1491 C 0.6959 0.42781 0.73235 0.0
C1492 C 0.70808 0.40487 0.72939 0.0
C1493 C 0.71772 0.39254 0.74844 0.0
C1494 C 0.71534 0.40216 0.76994 0.0
C1495 C 0.72762 0.38524 0.78754 0.0
C1496 C 0.74849 0.39922 0.80023 0.0
C1497 C 0.70903 0.37481 0.80398 0.0
C1498 C 0.7372 0.36458 0.77257 0.0
C1499 C 0.73124 0.36914 0.75008 0.0
C1500 C 0.73748 0.35237 0.73312 0.0
C1501 C 0.74983 0.33014 0.73934 0.0
C1502 C 0.75595 0.32498 0.76231 0.0
C1503 C 0.74978 0.34264 0.77906 0.0
H1504 H 0.97089 0.90251 0.94706 0.0
H1505 H 0.01417 0.84817 0.98564 0.0
H1506 H 1.00036 0.86672 0.02097 0.0
H1507 H 0.98452 0.95345 0.97705 0.0
H1508 H 0.95469 0.96771 0.97569 0.0
H1509 H 0.96295 0.94587 0.95436 0.0
H1510 H 0.92442 0.91985 0.96323 0.0
H1511 H 0.9172 0.94166 0.98541 0.0
H1512 H 0.92032 0.90842 0.99151 0.0
H1513 H 0.99156 0.89641 0.0506 0.0
H1514 H 0.9939 0.93735 0.07005 0.0
H1515 H 0.95305 0.97214 0.01484 0.0
C1516 C 0.9769 0.8942 0.963 0.0
C1517 C 0.99366 0.87403 0.96365 0.0
C1518 C 0.00136 0.86369 0.98473 0.0
C1519 C 0.9933 0.87386 0.00493 0.0
C1520 C 0.97711 0.89409 0.00385 0.0
C1521 C 0.96884 0.90409 0.98339 0.0
C1522 C 0.95484 0.92831 0.98687 0.0
C1523 C 0.96495 0.95009 0.97268 0.0
C1524 C 0.92758 0.9243 0.98144 0.0
C1525 C 0.95952 0.9322 0.01205 0.0
C1526 C 0.97116 0.91144 0.02175 0.0
C1527 C 0.98168 0.9124 0.04353 0.0
C1528 C 0.98267 0.9357 0.05471 0.0
C1529 C 0.97328 0.95759 0.04399 0.0
C1530 C 0.95942 0.9553 0.02361 0.0
H1531 H 0.93692 0.24991 0.67686 0.0
H1532 H 0.98679 0.27422 0.73102 0.0
H1533 H 0.95245 0.2782 0.75647 0.0
H1534 H 0.88685 0.29071 0.69073 0.0
H1535 H 0.86365 0.26751 0.68403 0.0
H1536 H 0.89205 0.26676 0.66981 0.0
H1537 H 0.89873 0.22037 0.68249 0.0
H1538 H 0.8703 0.22098 0.69666 0.0
H1539 H 0.89795 0.21256 0.71209 0.0
H1540 H 0.91247 0.2801 0.77626 0.0
H1541 H 0.87033 0.27774 0.78921 0.0
H1542 H 0.84595 0.25128 0.72282 0.0
C1543 C 0.94061 0.25606 0.69408 0.0
C1544 C 0.9647 0.26178 0.70186 0.0
C1545 C 0.96862 0.26968 0.72458 0.0
C1546 C 0.94917 0.27207 0.7392 0.0
C1547 C 0.9257 0.26638 0.73104 0.0
C1548 C 0.92132 0.25838 0.70904 0.0
C1549 C 0.89434 0.25303 0.70472 0.0
C1550 C 0.8836 0.27055 0.68623 0.0
C1551 C 0.89009 0.22507 0.69863 0.0
C1552 C 0.8843 0.2593 0.72767 0.0
C1553 C 0.9027 0.2671 0.74256 0.0
C1554 C 0.89794 0.27398 0.76472 0.0
C1555 C 0.87386 0.27263 0.77194 0.0
C1556 C 0.85463 0.26435 0.75714 0.0
C1557 C 0.86011 0.25772 0.73463 0.0
H1558 H 0.53161 0.24141 0.42409 0.0
H1559 H 0.45705 0.24644 0.39792 0.0
H1560 H 0.44962 0.20257 0.41005 0.0
H1561 H 0.54113 0.17425 0.40996 0.0
H1562 H 0.55897 0.16852 0.43556 0.0
H1563 H 0.55909 0.19937 0.42265 0.0
H1564 H 0.54595 0.21923 0.4603 0.0
H1565 H 0.5455 0.18847 0.47324 0.0
H1566 H 0.5187 0.20803 0.4731 0.0
H1567 H 0.44931 0.15968 0.42763 0.0
H1568 H 0.45648 0.12002 0.44882 0.0
H1569 H 0.53121 0.14296 0.4635 0.0
C1570 C 0.51389 0.23307 0.42049 0.0
C1571 C 0.49493 0.24718 0.41001 0.0
C1572 C 0.47184 0.23586 0.40591 0.0
C1573 C 0.46745 0.21097 0.4127 0.0
C1574 C 0.48636 0.19774 0.42353 0.0
C1575 C 0.50917 0.2083 0.42728 0.0
C1576 C 0.52589 0.19053 0.44043 0.0
C1577 C 0.54755 0.1827 0.4263 0.0
C1578 C 0.5345 0.20227 0.46311 0.0
C1579 C 0.50876 0.16858 0.44387 0.0
C1580 C 0.48611 0.17303 0.43384 0.0
C1581 C 0.46705 0.15581 0.43533 0.0
C1582 C 0.4713 0.13335 0.44735 0.0
C1583 C 0.49439 0.12843 0.45777 0.0
C1584 C 0.51331 0.14631 0.4559 0.0
H1585 H 0.61837 0.77 0.17267 0.0
H1586 H 0.57424 0.74952 0.22917 0.0
H1587 H 0.61134 0.74521 0.25348 0.0
H1588 H 0.6679 0.72735 0.18582 0.0
H1589 H 0.69136 0.74897 0.17761 0.0
H1590 H 0.66137 0.75088 0.16445 0.0
H1591 H 0.65854 0.79796 0.176 0.0
H1592 H 0.68857 0.79622 0.18909 0.0
H1593 H 0.66332 0.80666 0.20525 0.0
H1594 H 0.65295 0.74233 0.27167 0.0
H1595 H 0.6964 0.74247 0.28309 0.0
H1596 H 0.71465 0.7651 0.21526 0.0
C1597 C 0.61653 0.76474 0.19019 0.0
C1598 C 0.59328 0.76013 0.199 0.0
C1599 C 0.59173 0.7532 0.222 0.0
C1600 C 0.61275 0.75066 0.23597 0.0
C1601 C 0.63533 0.75513 0.22677 0.0
C1602 C 0.63743 0.76214 0.20446 0.0
C1603 C 0.66403 0.76583 0.19895 0.0
C1604 C 0.6716 0.74714 0.18062 0.0
C1605 C 0.6689 0.7933 0.19191 0.0
C1606 C 0.6765 0.75975 0.22163 0.0
C1607 C 0.65952 0.75357 0.23738 0.0
C1608 C 0.6664 0.74719 0.2595 0.0
C1609 C 0.69123 0.74729 0.26581 0.0
C1610 C 0.70913 0.75379 0.25014 0.0
C1611 C 0.70152 0.75999 0.22768 0.0
H1612 H 0.02544 0.20085 0.59228 0.0
H1613 H 0.02375 0.16808 0.65942 0.0
H1614 H 0.02618 0.1255 0.64303 0.0
H1615 H 0.98901 0.15202 0.56384 0.0
H1616 H 0.00634 0.15209 0.53858 0.0
H1617 H 0.00437 0.18041 0.55531 0.0
H1618 H 0.05136 0.18266 0.55874 0.0
H1619 H 0.05347 0.15426 0.54212 0.0
H1620 H 0.06817 0.15588 0.56977 0.0
H1621 H 0.02852 0.08668 0.62027 0.0
H1622 H 0.02995 0.05286 0.5921 0.0
H1623 H 0.03085 0.10873 0.53836 0.0
C1624 C 0.02548 0.18468 0.60348 0.0
C1625 C 0.02435 0.18794 0.62725 0.0
C1626 C 0.02458 0.16623 0.64125 0.0
C1627 C 0.026 0.14189 0.63208 0.0
C1628 C 0.02726 0.1393 0.60876 0.0
C1629 C 0.02699 0.15998 0.59454 0.0
C1630 C 0.02855 0.15145 0.57 0.0
C1631 C 0.0057 0.15947 0.55611 0.0
C1632 C 0.05177 0.16167 0.55954 0.0
C1633 C 0.02965 0.12279 0.57276 0.0
C1634 C 0.02888 0.11643 0.59536 0.0
C1635 C 0.02918 0.09141 0.60253 0.0
C1636 C 0.02998 0.07228 0.58628 0.0
C1637 C 0.03057 0.07793 0.56288 0.0
C1638 C 0.03067 0.1037 0.55607 0.0
H1639 H 0.56578 0.34645 0.34718 0.0
H1640 H 0.58758 0.34787 0.41826 0.0
H1641 H 0.63067 0.35101 0.40806 0.0
H1642 H 0.60955 0.3067 0.33049 0.0
H1643 H 0.6148 0.32138 0.30363 0.0
H1644 H 0.58576 0.32465 0.31624 0.0
H1645 H 0.58944 0.37345 0.31435 0.0
H1646 H 0.61851 0.37034 0.3015 0.0
H1647 H 0.61592 0.38884 0.32684 0.0
H1648 H 0.67091 0.34601 0.39037 0.0
H1649 H 0.705 0.33407 0.36686 0.0
H1650 H 0.65718 0.33771 0.307 0.0
C1651 C 0.57957 0.34826 0.3606 0.0
C1652 C 0.57342 0.34701 0.3835 0.0
C1653 C 0.59195 0.34897 0.4006 0.0
C1654 C 0.61644 0.35083 0.39496 0.0
C1655 C 0.62199 0.35105 0.37217 0.0
C1656 C 0.60403 0.35016 0.35525 0.0
C1657 C 0.61476 0.34783 0.33217 0.0
C1658 C 0.60568 0.32371 0.31994 0.0
C1659 C 0.60934 0.37153 0.31788 0.0
C1660 C 0.64151 0.34612 0.33882 0.0
C1661 C 0.64535 0.34847 0.36191 0.0
C1662 C 0.66824 0.34487 0.37221 0.0
C1663 C 0.68757 0.33818 0.35864 0.0
C1664 C 0.68392 0.33507 0.33497 0.0
C1665 C 0.66066 0.33987 0.325 0.0
H1666 H 0.52827 0.85302 0.13671 0.0
H1667 H 0.53942 0.79743 0.08417 0.0
H1668 H 0.54127 0.83142 0.05598 0.0
H1669 H 0.49033 0.89519 0.10287 0.0
H1670 H 0.50316 0.92375 0.11489 0.0
H1671 H 0.50285 0.89517 0.13141 0.0
H1672 H 0.54949 0.89848 0.13833 0.0
H1673 H 0.54993 0.92708 0.12183 0.0
H1674 H 0.56889 0.90078 0.11452 0.0
H1675 H 0.54118 0.87057 0.03315 0.0
H1676 H 0.53996 0.91324 0.01678 0.0
H1677 H 0.52965 0.94509 0.08336 0.0
C1678 C 0.53115 0.84807 0.11928 0.0
C1679 C 0.53369 0.82245 0.1127 0.0
C1680 C 0.53744 0.81681 0.0897 0.0
C1681 C 0.53852 0.83602 0.0735 0.0
C1682 C 0.53592 0.86096 0.08045 0.0
C1683 C 0.5324 0.86717 0.10275 0.0
C1684 C 0.5302 0.89571 0.10542 0.0
C1685 C 0.50514 0.90287 0.11416 0.0
C1686 C 0.55086 0.90612 0.12095 0.0
C1687 C 0.53291 0.90441 0.08114 0.0
C1688 C 0.53615 0.88393 0.06711 0.0
C1689 C 0.53873 0.88678 0.04396 0.0
C1690 C 0.53798 0.91119 0.03481 0.0
C1691 C 0.53475 0.93267 0.0487 0.0
C1692 C 0.53226 0.92913 0.07226 0.0
H1693 H 0.94556 0.81782 0.8725 0.0
H1694 H 0.99889 0.82681 0.82104 0.0
H1695 H 0.97285 0.80134 0.79444 0.0
H1696 H 0.93522 0.75325 0.86025 0.0
H1697 H 0.90353 0.75399 0.86701 0.0
H1698 H 0.92469 0.77552 0.88073 0.0
H1699 H 0.89828 0.81302 0.86785 0.0
H1700 H 0.87678 0.79251 0.85331 0.0
H1701 H 0.89117 0.81778 0.83834 0.0
H1702 H 0.9408 0.77357 0.77416 0.0
H1703 H 0.90551 0.74718 0.76179 0.0
H1704 H 0.87668 0.7534 0.82886 0.0
C1705 C 0.9513 0.81524 0.85534 0.0
C1706 C 0.97366 0.82495 0.84838 0.0
C1707 C 0.98138 0.82003 0.8263 0.0
C1708 C 0.96685 0.80545 0.81124 0.0
C1709 C 0.94516 0.7954 0.81893 0.0
C1710 C 0.93757 0.80003 0.84055 0.0
C1711 C 0.91487 0.78534 0.84561 0.0
C1712 C 0.9199 0.76587 0.86451 0.0
C1713 C 0.89402 0.8032 0.8516 0.0
C1714 C 0.91022 0.77245 0.82313 0.0
C1715 C 0.92788 0.77827 0.80795 0.0
C1716 C 0.92693 0.76879 0.78595 0.0
C1717 C 0.90696 0.75364 0.77913 0.0
C1718 C 0.88841 0.74805 0.79437 0.0
C1719 C 0.8906 0.75706 0.8168 0.0
H1720 H 0.96255 0.98606 0.86127 0.0
H1721 H 0.8883 0.00615 0.8762 0.0
H1722 H 0.90085 0.01373 0.91589 0.0
H1723 H 0.97533 0.95327 0.91512 0.0
H1724 H 0.0064 0.96401 0.91797 0.0
H1725 H 0.99234 0.95949 0.89031 0.0
H1726 H 0.00212 0.00545 0.87933 0.0
H1727 H 0.01673 0.0104 0.90668 0.0
H1728 H 0.99248 0.03103 0.897 0.0
H1729 H 0.92132 0.02338 0.95212 0.0
H1730 H 0.94772 0.02927 0.98581 0.0
H1731 H 0.00921 0.99998 0.94984 0.0
C1732 C 0.94895 0.99179 0.873 0.0
C1733 C 0.92444 0.9956 0.86566 0.0
C1734 C 0.90712 0.00304 0.88145 0.0
C1735 C 0.91409 0.00747 0.90403 0.0
C1736 C 0.93838 0.00399 0.91065 0.0
C1737 C 0.95554 0.99588 0.89584 0.0
C1738 C 0.98041 0.99353 0.90776 0.0
C1739 C 0.98913 0.96594 0.90781 0.0
C1740 C 0.99903 0.01116 0.89705 0.0
C1741 C 0.97454 0.00226 0.93139 0.0
C1742 C 0.95017 0.00833 0.93242 0.0
C1743 C 0.94033 0.01825 0.95174 0.0
C1744 C 0.95563 0.02168 0.97077 0.0
C1745 C 0.98059 0.01488 0.97062 0.0
C1746 C 0.9902 0.0051 0.95056 0.0
H1747 H 0.79483 0.16577 0.56858 0.0
H1748 H 0.71812 0.154 0.55209 0.0
H1749 H 0.70779 0.17054 0.5895 0.0
H1750 H 0.79353 0.14787 0.62621 0.0
H1751 H 0.81488 0.17167 0.63605 0.0
H1752 H 0.81627 0.15964 0.60769 0.0
H1753 H 0.81239 0.20517 0.59181 0.0
H1754 H 0.81113 0.21735 0.62014 0.0
H1755 H 0.78715 0.2246 0.59964 0.0
H1756 H 0.70599 0.18569 0.6296 0.0
H1757 H 0.71282 0.20179 0.66861 0.0
H1758 H 0.79039 0.20529 0.65822 0.0
C1759 C 0.77586 0.16689 0.5728 0.0
C1760 C 0.75727 0.15861 0.55751 0.0
C1761 C 0.73264 0.16036 0.56356 0.0
C1762 C 0.72659 0.16965 0.58478 0.0
C1763 C 0.74537 0.17736 0.5996 0.0
C1764 C 0.76948 0.17639 0.5938 0.0
C1765 C 0.78616 0.18588 0.61284 0.0
C1766 C 0.80374 0.16502 0.62119 0.0
C1767 C 0.80002 0.20967 0.60567 0.0
C1768 C 0.76768 0.19201 0.63033 0.0
C1769 C 0.74425 0.18683 0.62244 0.0
C1770 C 0.72422 0.19007 0.63591 0.0
C1771 C 0.72824 0.19907 0.65801 0.0
C1772 C 0.75206 0.20491 0.66621 0.0
C1773 C 0.77196 0.20131 0.65217 0.0
H1774 H 0.63583 0.99452 0.38056 0.0
H1775 H 0.57757 0.98552 0.32984 0.0
H1776 H 0.54838 0.97839 0.36 0.0
H1777 H 0.61369 0.94678 0.42019 0.0
H1778 H 0.623 0.96507 0.44469 0.0
H1779 H 0.63958 0.96764 0.41908 0.0
H1780 H 0.6329 0.01614 0.41887 0.0
H1781 H 0.6164 0.01368 0.44446 0.0
H1782 H 0.60239 0.02841 0.41985 0.0
H1783 H 0.52487 0.97724 0.39573 0.0
H1784 H 0.50928 0.98062 0.4344 0.0
H1785 H 0.58301 0.98759 0.46173 0.0
C1786 C 0.61699 0.9907 0.37579 0.0
C1787 C 0.60895 0.99054 0.35285 0.0
C1788 C 0.58413 0.98563 0.3473 0.0
C1789 C 0.56743 0.98153 0.36431 0.0
C1790 C 0.5759 0.98208 0.38678 0.0
C1791 C 0.60014 0.98634 0.39254 0.0
C1792 C 0.60441 0.98702 0.41796 0.0
C1793 C 0.62116 0.96533 0.42594 0.0
C1794 C 0.61462 0.01285 0.42573 0.0
C1795 C 0.57869 0.98308 0.4256 0.0
C1796 C 0.56249 0.98024 0.40737 0.0
C1797 C 0.53743 0.97874 0.41015 0.0
C1798 C 0.52873 0.98057 0.43209 0.0
C1799 C 0.54507 0.9834 0.45087 0.0
C1800 C 0.57032 0.98433 0.44762 0.0
H1801 H 0.77966 0.84536 0.07032 0.0
H1802 H 0.85117 0.87968 0.06797 0.0
H1803 H 0.86481 0.85425 0.10124 0.0
H1804 H 0.7747 0.84715 0.12743 0.0
H1805 H 0.75891 0.81742 0.12971 0.0
H1806 H 0.75642 0.83517 0.10391 0.0
H1807 H 0.77165 0.7964 0.08163 0.0
H1808 H 0.7742 0.77848 0.10748 0.0
H1809 H 0.80017 0.78181 0.09 0.0
H1810 H 0.86829 0.82946 0.13792 0.0
H1811 H 0.86156 0.80735 0.17402 0.0
H1812 H 0.78759 0.79006 0.15112 0.0
C1813 C 0.79835 0.84717 0.07651 0.0
C1814 C 0.81439 0.86443 0.06674 0.0
C1815 C 0.83868 0.86639 0.07527 0.0
C1816 C 0.84656 0.852 0.09407 0.0
C1817 C 0.82998 0.83556 0.10371 0.0
C1818 C 0.80646 0.83292 0.09499 0.0
C1819 C 0.79143 0.81578 0.10934 0.0
C1820 C 0.76907 0.82972 0.11812 0.0
C1821 C 0.78393 0.79169 0.09633 0.0
C1822 C 0.80979 0.81004 0.12813 0.0
C1823 C 0.83206 0.82123 0.12453 0.0
C1824 C 0.85108 0.82023 0.1407 0.0
C1825 C 0.84705 0.8078 0.16118 0.0
C1826 C 0.82413 0.79676 0.16527 0.0
C1827 C 0.80555 0.79757 0.14828 0.0
H1828 H 0.91378 0.99277 0.7181 0.0
H1829 H 0.97801 0.97497 0.75965 0.0
H1830 H 0.00048 0.96533 0.72513 0.0
H1831 H 0.92177 0.94365 0.67656 0.0
H1832 H 0.91054 0.963 0.65342 0.0
H1833 H 0.89969 0.96801 0.6814 0.0
H1834 H 0.91275 0.01509 0.67971 0.0
H1835 H 0.92342 0.01027 0.65169 0.0
H1836 H 0.94372 0.02287 0.67346 0.0
H1837 H 0.01619 0.95972 0.68547 0.0
H1838 H 0.02403 0.95983 0.64464 0.0
H1839 H 0.94831 0.97862 0.62996 0.0
C1840 C 0.9326 0.9869 0.71998 0.0
C1841 C 0.94425 0.98476 0.74149 0.0
C1842 C 0.96881 0.9768 0.74326 0.0
C1843 C 0.98164 0.9712 0.72378 0.0
C1844 C 0.9695 0.97336 0.70278 0.0
C1845 C 0.94549 0.98097 0.70084 0.0
C1846 C 0.93657 0.98219 0.67644 0.0
C1847 C 0.91592 0.96307 0.67168 0.0
C1848 C 0.92866 0.00921 0.66995 0.0
C1849 C 0.95946 0.97461 0.66484 0.0
C1850 C 0.97826 0.96946 0.68023 0.0
C1851 C 0.0015 0.9634 0.67328 0.0
C1852 C 0.00573 0.9633 0.65002 0.0
C1853 C 0.9868 0.96922 0.63403 0.0
C1854 C 0.96325 0.97419 0.64169 0.0
H1855 H 0.78458 0.14816 0.42065 0.0
H1856 H 0.78286 0.20862 0.47003 0.0
H1857 H 0.7904 0.23989 0.43995 0.0
H1858 H 0.83334 0.17499 0.38814 0.0
H1859 H 0.82033 0.16413 0.3615 0.0
H1860 H 0.81516 0.14659 0.38697 0.0
H1861 H 0.76854 0.14988 0.37938 0.0
H1862 H 0.7736 0.16723 0.35385 0.0
H1863 H 0.75491 0.18057 0.37518 0.0
H1864 H 0.79415 0.26462 0.40377 0.0
H1865 H 0.79582 0.28064 0.36453 0.0
H1866 H 0.79909 0.20367 0.3398 0.0
C1867 C 0.78581 0.16799 0.42512 0.0
C1868 C 0.78297 0.17609 0.44756 0.0
C1869 C 0.78496 0.20211 0.45287 0.0
C1870 C 0.78927 0.21996 0.43594 0.0
C1871 C 0.79202 0.21134 0.41394 0.0
C1872 C 0.79059 0.18594 0.40855 0.0
C1873 C 0.79409 0.18157 0.38363 0.0
C1874 C 0.8171 0.16589 0.37985 0.0
C1875 C 0.77144 0.16909 0.37236 0.0
C1876 C 0.79718 0.20854 0.37574 0.0
C1877 C 0.79582 0.22548 0.39342 0.0
C1878 C 0.79584 0.25154 0.38987 0.0
C1879 C 0.79684 0.26048 0.36761 0.0
C1880 C 0.79828 0.24336 0.34937 0.0
C1881 C 0.79895 0.21714 0.35358 0.0
H1882 H 0.59328 0.01611 0.24123 0.0
H1883 H 0.66759 0.03563 0.22574 0.0
H1884 H 0.65435 0.04585 0.1867 0.0
H1885 H 0.57782 0.98666 0.1883 0.0
H1886 H 0.54711 0.99851 0.18657 0.0
H1887 H 0.56208 0.99358 0.21375 0.0
H1888 H 0.55391 0.04021 0.22441 0.0
H1889 H 0.53896 0.0453 0.19723 0.0
H1890 H 0.5641 0.06518 0.2063 0.0
H1891 H 0.63405 0.05181 0.14917 0.0
H1892 H 0.6079 0.0529 0.11486 0.0
H1893 H 0.5457 0.0318 0.15417 0.0
C1894 C 0.6067 0.02263 0.22961 0.0
C1895 C 0.63149 0.02506 0.23654 0.0
C1896 C 0.64852 0.03361 0.22085 0.0
C1897 C 0.64118 0.03954 0.19862 0.0
C1898 C 0.61669 0.03695 0.1923 0.0
C1899 C 0.59965 0.02875 0.20726 0.0
C1900 C 0.57458 0.02711 0.19575 0.0
C1901 C 0.56483 0.99985 0.19611 0.0
C1902 C 0.55684 0.04556 0.20657 0.0
C1903 C 0.58036 0.0353 0.17196 0.0
C1904 C 0.60475 0.04097 0.17047 0.0
C1905 C 0.6148 0.04785 0.15016 0.0
C1906 C 0.59961 0.04869 0.13072 0.0
C1907 C 0.57444 0.04288 0.1316 0.0
C1908 C 0.56477 0.03637 0.15271 0.0
H1909 H 0.81569 0.85842 0.95482 0.0
H1910 H 0.74152 0.84726 0.97564 0.0
H1911 H 0.73734 0.81042 0.95043 0.0
H1912 H 0.80443 0.84273 0.89678 0.0
H1913 H 0.83313 0.8269 0.89378 0.0
H1914 H 0.83053 0.85183 0.91421 0.0
H1915 H 0.84654 0.82141 0.94568 0.0
H1916 H 0.84878 0.79627 0.92532 0.0
H1917 H 0.83108 0.79182 0.95005 0.0
H1918 H 0.74018 0.77643 0.92191 0.0
H1919 H 0.74942 0.74863 0.88976 0.0
H1920 H 0.8219 0.78075 0.88807 0.0
C1921 C 0.79859 0.84821 0.95402 0.0
C1922 C 0.77894 0.85564 0.96715 0.0
C1923 C 0.75683 0.84186 0.96571 0.0
C1924 C 0.7543 0.82082 0.95155 0.0
C1925 C 0.77409 0.81375 0.93905 0.0
C1926 C 0.79576 0.82706 0.94 0.0
C1927 C 0.81381 0.816 0.92404 0.0
C1928 C 0.82088 0.83552 0.90614 0.0
C1929 C 0.83639 0.80576 0.93706 0.0
C1930 C 0.79868 0.79473 0.91373 0.0
C1931 C 0.77589 0.79365 0.92278 0.0
C1932 C 0.75807 0.77678 0.91488 0.0
C1933 C 0.76345 0.76106 0.89674 0.0
C1934 C 0.78645 0.76235 0.8869 0.0
C1935 C 0.80445 0.77893 0.89584 0.0
H1936 H 0.84116 0.97822 0.98929 0.0
H1937 H 0.79421 0.9935 0.04484 0.0
H1938 H 0.813 0.03534 0.05008 0.0
H1939 H 0.89123 0.99843 0.01495 0.0
H1940 H 0.90559 0.01249 0.99117 0.0
H1941 H 0.88359 0.98794 0.98659 0.0
H1942 H 0.85824 0.01707 0.95984 0.0
H1943 H 0.88011 0.04219 0.96429 0.0
H1944 H 0.84848 0.04757 0.96959 0.0
H1945 H 0.84321 0.06833 0.05663 0.0
H1946 H 0.8832 0.0884 0.06438 0.0
H1947 H 0.91012 0.05462 0.00365 0.0
C1948 C 0.83425 0.99091 0.00188 0.0
C1949 C 0.81636 0.98279 0.01665 0.0
C1950 C 0.80806 0.99942 0.03341 0.0
C1951 C 0.8184 0.02338 0.03632 0.0
C1952 C 0.83691 0.03055 0.02222 0.0
C1953 C 0.84465 0.01488 0.00514 0.0
C1954 C 0.86783 0.02474 0.99536 0.0
C1955 C 0.88823 0.00473 0.99716 0.0
C1956 C 0.86338 0.03341 0.97081 0.0
C1957 C 0.87294 0.04708 0.01083 0.0
C1958 C 0.8545 0.05062 0.02578 0.0
C1959 C 0.85734 0.0666 0.04448 0.0
C1960 C 0.88005 0.07803 0.04878 0.0
C1961 C 0.89938 0.07352 0.03429 0.0
C1962 C 0.89523 0.05924 0.0144 0.0
H1963 H 0.36972 0.60538 0.99772 0.0
H1964 H 0.3244 0.54852 0.02816 0.0
H1965 H 0.36075 0.52195 0.03595 0.0
H1966 H 0.40909 0.56097 0.97019 0.0
H1967 H 0.43592 0.58023 0.97451 0.0
H1968 H 0.40642 0.59488 0.97175 0.0
H1969 H 0.41404 0.61742 0.01021 0.0
H1970 H 0.44355 0.60285 0.01308 0.0
H1971 H 0.42191 0.5989 0.03495 0.0
H1972 H 0.40258 0.50295 0.04255 0.0
H1973 H 0.44617 0.49116 0.04432 0.0
H1974 H 0.46346 0.55872 0.00661 0.0
C1975 C 0.36749 0.58734 0.00604 0.0
C1976 C 0.34434 0.57902 0.01251 0.0
C1977 C 0.34202 0.55519 0.02309 0.0
C1978 C 0.36254 0.54002 0.02762 0.0
C1979 C 0.38515 0.54879 0.02108 0.0
C1980 C 0.38769 0.57174 0.01023 0.0
C1981 C 0.4139 0.57649 0.0044 0.0
C1982 C 0.41647 0.57824 0.97869 0.0
C1983 C 0.42394 0.60032 0.01638 0.0
C1984 C 0.42578 0.55279 0.0139 0.0
C1985 C 0.40895 0.53716 0.02368 0.0
C1986 C 0.41586 0.51485 0.03466 0.0
C1987 C 0.44061 0.50833 0.03563 0.0
C1988 C 0.45804 0.52384 0.02531 0.0
C1989 C 0.45043 0.54625 0.01422 0.0
H1990 H 0.17976 0.60329 0.81392 0.0
H1991 H 0.20819 0.55887 0.75918 0.0
H1992 H 0.22991 0.5963 0.74557 0.0
H1993 H 0.17087 0.66115 0.78244 0.0
H1994 H 0.1805 0.68154 0.80546 0.0
H1995 H 0.16686 0.65132 0.81121 0.0
H1996 H 0.20455 0.63874 0.83619 0.0
H1997 H 0.21813 0.66904 0.83076 0.0
H1998 H 0.23438 0.64044 0.82461 0.0
H1999 H 0.24858 0.63781 0.73773 0.0
H2000 H 0.26593 0.68075 0.73777 0.0
H2001 H 0.22576 0.69928 0.79731 0.0
C2002 C 0.19068 0.60146 0.79916 0.0
C2003 C 0.19228 0.57814 0.7876 0.0
C2004 C 0.20671 0.57649 0.76833 0.0
C2005 C 0.21903 0.59769 0.76038 0.0
C2006 C 0.2168 0.62045 0.77189 0.0
C2007 C 0.20321 0.62251 0.79098 0.0
C2008 C 0.20447 0.6492 0.80039 0.0
C2009 C 0.17916 0.66152 0.79984 0.0
C2010 C 0.21608 0.64936 0.82441 0.0
C2011 C 0.22094 0.6617 0.78364 0.0
C2012 C 0.22766 0.64471 0.76729 0.0
C2013 C 0.2434 0.65134 0.75038 0.0
C2014 C 0.25311 0.6758 0.75052 0.0
C2015 C 0.24706 0.69341 0.76742 0.0
C2016 C 0.23035 0.68638 0.78393 0.0
H2017 H 0.20429 0.44728 0.50609 0.0
H2018 H 0.23057 0.47662 0.57093 0.0
H2019 H 0.18865 0.48901 0.57974 0.0
H2020 H 0.16264 0.49525 0.49368 0.0
H2021 H 0.13984 0.47498 0.48059 0.0
H2022 H 0.17142 0.46622 0.48029 0.0
H2023 H 0.16163 0.4234 0.49925 0.0
H2024 H 0.12993 0.43192 0.49943 0.0
H2025 H 0.1458 0.42312 0.52538 0.0
H2026 H 0.14485 0.50153 0.57987 0.0
H2027 H 0.10154 0.51152 0.57223 0.0
H2028 H 0.10416 0.47338 0.50742 0.0
C2029 C 0.20117 0.45596 0.52229 0.0
C2030 C 0.22053 0.46104 0.53786 0.0
C2031 C 0.21586 0.47253 0.55883 0.0
C2032 C 0.19217 0.47961 0.56397 0.0
C2033 C 0.17352 0.47482 0.54801 0.0
C2034 C 0.17771 0.46303 0.5277 0.0
C2035 C 0.15473 0.46102 0.51305 0.0
C2036 C 0.15732 0.47522 0.49058 0.0
C2037 C 0.1476 0.43321 0.50905 0.0
C2038 C 0.13707 0.4741 0.52806 0.0
C2039 C 0.14821 0.48182 0.54819 0.0
C2040 C 0.13582 0.49532 0.56431 0.0
C2041 C 0.11129 0.501 0.55975 0.0
C2042 C 0.09954 0.49315 0.53925 0.0
C2043 C 0.11262 0.47945 0.5233 0.0
H2044 H 0.87917 0.90641 0.81057 0.0
H2045 H 0.83633 0.94766 0.75994 0.0
H2046 H 0.81505 0.90811 0.74874 0.0
H2047 H 0.88737 0.85232 0.77833 0.0
H2048 H 0.88447 0.82932 0.80037 0.0
H2049 H 0.89581 0.86051 0.8071 0.0
H2050 H 0.8629 0.8686 0.83563 0.0
H2051 H 0.85082 0.83727 0.83099 0.0
H2052 H 0.83126 0.86432 0.82747 0.0
H2053 H 0.80163 0.86284 0.74054 0.0
H2054 H 0.79421 0.81642 0.73911 0.0
H2055 H 0.84338 0.80636 0.79714 0.0
C2056 C 0.86508 0.90718 0.79734 0.0
C2057 C 0.85934 0.93002 0.78611 0.0
C2058 C 0.84088 0.93031 0.76882 0.0
C2059 C 0.82876 0.90796 0.7623 0.0
C2060 C 0.83511 0.88563 0.77349 0.0
C2061 C 0.85259 0.88519 0.79088 0.0
C2062 C 0.8564 0.85876 0.79998 0.0
C2063 C 0.88256 0.84972 0.79626 0.0
C2064 C 0.84997 0.85716 0.825 0.0
C2065 C 0.83828 0.84442 0.78512 0.0
C2066 C 0.82643 0.86006 0.76964 0.0
C2067 C 0.81038 0.8505 0.75292 0.0
C2068 C 0.80629 0.82425 0.75217 0.0
C2069 C 0.81779 0.80828 0.76838 0.0
C2070 C 0.83384 0.81848 0.78502 0.0
H2071 H 0.68836 0.09933 0.48181 0.0
H2072 H 0.73183 0.04559 0.52111 0.0
H2073 H 0.69442 0.02318 0.53146 0.0
H2074 H 0.64083 0.10466 0.51932 0.0
H2075 H 0.61676 0.10657 0.49793 0.0
H2076 H 0.64692 0.11723 0.4918 0.0
H2077 H 0.64778 0.08695 0.45747 0.0
H2078 H 0.61748 0.07635 0.46325 0.0
H2079 H 0.64181 0.05375 0.4614 0.0
H2080 H 0.65243 0.00833 0.53952 0.0
H2081 H 0.60853 0.99996 0.54251 0.0
H2082 H 0.59227 0.06374 0.49838 0.0
C2083 C 0.69003 0.08253 0.49221 0.0
C2084 C 0.71298 0.0741 0.5006 0.0
C2085 C 0.71442 0.05227 0.5144 0.0
C2086 C 0.69329 0.03948 0.52044 0.0
C2087 C 0.6709 0.04874 0.51245 0.0
C2088 C 0.66912 0.06956 0.49841 0.0
C2089 C 0.64278 0.07601 0.49268 0.0
C2090 C 0.63647 0.1027 0.50093 0.0
C2091 C 0.63713 0.07308 0.46719 0.0
C2092 C 0.63006 0.05589 0.50608 0.0
C2093 C 0.64662 0.0403 0.51728 0.0
C2094 C 0.63927 0.02033 0.53075 0.0
C2095 C 0.6143 0.01581 0.53242 0.0
C2096 C 0.59698 0.03128 0.52078 0.0
C2097 C 0.60504 0.05176 0.50768 0.0
H2098 H 0.19087 0.44485 0.77075 0.0
H2099 H 0.19793 0.45347 0.84348 0.0
H2100 H 0.22231 0.41415 0.8459 0.0
H2101 H 0.18556 0.37791 0.76895 0.0
H2102 H 0.20353 0.37422 0.74432 0.0
H2103 H 0.18682 0.40299 0.74841 0.0
H2104 H 0.22654 0.42901 0.74529 0.0
H2105 H 0.24337 0.4003 0.74115 0.0
H2106 H 0.25243 0.42167 0.76362 0.0
H2107 H 0.24315 0.37194 0.8404 0.0
H2108 H 0.26223 0.33251 0.82714 0.0
H2109 H 0.24462 0.35367 0.75777 0.0
C2110 C 0.19762 0.43848 0.78717 0.0
C2111 C 0.19241 0.45205 0.80697 0.0
C2112 C 0.20176 0.44332 0.82813 0.0
C2113 C 0.21555 0.421 0.82966 0.0
C2114 C 0.22022 0.40795 0.80981 0.0
C2115 C 0.21185 0.41659 0.78893 0.0
C2116 C 0.21976 0.39937 0.77013 0.0
C2117 C 0.1976 0.38795 0.7572 0.0
C2118 C 0.23653 0.41343 0.7541 0.0
C2119 C 0.23357 0.37942 0.78368 0.0
C2120 C 0.23342 0.38455 0.80656 0.0
C2121 C 0.24371 0.36797 0.8225 0.0
C2122 C 0.25444 0.34562 0.81485 0.0
C2123 C 0.2552 0.34029 0.79146 0.0
C2124 C 0.24476 0.35755 0.77573 0.0
H2125 H 0.35084 0.56959 0.27462 0.0
H2126 H 0.38453 0.57807 0.34163 0.0
H2127 H 0.36526 0.61977 0.34525 0.0
H2128 H 0.35835 0.63417 0.25791 0.0
H2129 H 0.32968 0.636 0.24228 0.0
H2130 H 0.34513 0.60614 0.24519 0.0
H2131 H 0.30666 0.58643 0.2621 0.0
H2132 H 0.29113 0.6163 0.25935 0.0
H2133 H 0.29366 0.60086 0.28645 0.0
H2134 H 0.3437 0.66045 0.34165 0.0
H2135 H 0.32241 0.69946 0.33031 0.0
H2136 H 0.30239 0.66592 0.26532 0.0
C2137 C 0.35404 0.58022 0.29007 0.0
C2138 C 0.36914 0.57058 0.30788 0.0
C2139 C 0.37306 0.58508 0.32777 0.0
C2140 C 0.36211 0.60874 0.33004 0.0
C2141 C 0.34732 0.6177 0.31225 0.0
C2142 C 0.34332 0.60405 0.29259 0.0
C2143 C 0.32736 0.61873 0.27575 0.0
C2144 C 0.34095 0.62408 0.254 0.0
C2145 C 0.30327 0.60474 0.27062 0.0
C2146 C 0.32327 0.64281 0.289 0.0
C2147 C 0.33484 0.64161 0.31007 0.0
C2148 C 0.33447 0.66163 0.32524 0.0
C2149 C 0.32233 0.68374 0.3186 0.0
C2150 C 0.31071 0.68576 0.29693 0.0
C2151 C 0.31087 0.66483 0.28207 0.0
H2152 H 0.56883 0.66354 0.57352 0.0
H2153 H 0.62609 0.63373 0.61793 0.0
H2154 H 0.63504 0.60117 0.58965 0.0
H2155 H 0.54397 0.60925 0.56061 0.0
H2156 H 0.53532 0.6159 0.53156 0.0
H2157 H 0.53935 0.64136 0.55117 0.0
H2158 H 0.57078 0.66178 0.52504 0.0
H2159 H 0.56704 0.63582 0.50547 0.0
H2160 H 0.5969 0.6439 0.51683 0.0
H2161 H 0.63094 0.56648 0.56241 0.0
H2162 H 0.61042 0.531 0.54283 0.0
H2163 H 0.55574 0.58215 0.51526 0.0
C2164 C 0.58389 0.65076 0.57681 0.0
C2165 C 0.59684 0.65112 0.59775 0.0
C2166 C 0.61599 0.63375 0.60189 0.0
C2167 C 0.62141 0.61541 0.58579 0.0
C2168 C 0.6076 0.61478 0.56557 0.0
C2169 C 0.58922 0.63212 0.56102 0.0
C2170 C 0.57364 0.62436 0.54063 0.0
C2171 C 0.54651 0.62258 0.54637 0.0
C2172 C 0.57733 0.64255 0.52082 0.0
C2173 C 0.58448 0.5987 0.53589 0.0
C2174 C 0.60489 0.59407 0.54965 0.0
C2175 C 0.61548 0.57012 0.55106 0.0
C2176 C 0.60379 0.55 0.53972 0.0
C2177 C 0.58151 0.55404 0.52765 0.0
C2178 C 0.57298 0.57888 0.52416 0.0
H2179 H 0.62386 0.26668 0.87929 0.0
H2180 H 0.57631 0.23644 0.82581 0.0
H2181 H 0.6118 0.22898 0.80244 0.0
H2182 H 0.66509 0.29892 0.84251 0.0
H2183 H 0.69194 0.29201 0.85973 0.0
H2184 H 0.66286 0.29469 0.87257 0.0
H2185 H 0.66834 0.24999 0.88978 0.0
H2186 H 0.6974 0.24716 0.8769 0.0
H2187 H 0.67419 0.22361 0.8715 0.0
H2188 H 0.65246 0.22477 0.78449 0.0
H2189 H 0.69511 0.22545 0.77288 0.0
H2190 H 0.71714 0.25862 0.83748 0.0
C2191 C 0.62094 0.25847 0.86267 0.0
C2192 C 0.59713 0.25213 0.85447 0.0
C2193 C 0.59422 0.2415 0.83256 0.0
C2194 C 0.61434 0.23712 0.81912 0.0
C2195 C 0.6375 0.2435 0.82767 0.0
C2196 C 0.64095 0.25404 0.8489 0.0
C2197 C 0.66783 0.25951 0.85378 0.0
C2198 C 0.67218 0.28798 0.85735 0.0
C2199 C 0.67751 0.24415 0.8742 0.0
C2200 C 0.67887 0.25041 0.83201 0.0
C2201 C 0.661 0.24118 0.81722 0.0
C2202 C 0.66659 0.23193 0.79596 0.0
C2203 C 0.69097 0.23235 0.78952 0.0
C2204 C 0.7097 0.24197 0.8042 0.0
C2205 C 0.7034 0.25096 0.82583 0.0
H2206 H 0.03305 0.29903 0.10931 0.0
H2207 H 0.10752 0.29511 0.13588 0.0
H2208 H 0.11591 0.33702 0.11927 0.0
H2209 H 0.04598 0.32788 0.05698 0.0
H2210 H 0.01921 0.3475 0.05626 0.0
H2211 H 0.01899 0.3176 0.07076 0.0
H2212 H 0.00646 0.33995 0.10754 0.0
H2213 H 0.00638 0.36988 0.09308 0.0
H2214 H 0.02468 0.36576 0.11866 0.0
H2215 H 0.11613 0.37899 0.09884 0.0
H2216 H 0.10768 0.41841 0.07745 0.0
H2217 H 0.03293 0.3941 0.06522 0.0
C2218 C 0.05109 0.30704 0.11177 0.0
C2219 C 0.06965 0.29395 0.12383 0.0
C2220 C 0.09304 0.30497 0.12669 0.0
C2221 C 0.09798 0.32868 0.11729 0.0
C2222 C 0.0793 0.34096 0.10521 0.0
C2223 C 0.05629 0.33057 0.10257 0.0
C2224 C 0.03937 0.34747 0.08883 0.0
C2225 C 0.03037 0.33432 0.06691 0.0
C2226 C 0.01796 0.35629 0.10287 0.0
C2227 C 0.05647 0.36898 0.08403 0.0
C2228 C 0.07943 0.36494 0.09356 0.0
C2229 C 0.0982 0.3824 0.09135 0.0
C2230 C 0.09324 0.4047 0.07925 0.0
C2231 C 0.06972 0.40919 0.06956 0.0
C2232 C 0.05123 0.39099 0.072 0.0
H2233 H 0.94742 0.75195 0.38108 0.0
H2234 H 0.99113 0.76769 0.32313 0.0
H2235 H 0.95385 0.77063 0.29891 0.0
H2236 H 0.90216 0.71332 0.35106 0.0
H2237 H 0.87701 0.72506 0.36666 0.0
H2238 H 0.9071 0.72422 0.3797 0.0
H2239 H 0.90439 0.77209 0.38836 0.0
H2240 H 0.87432 0.77308 0.37529 0.0
H2241 H 0.89772 0.79395 0.36564 0.0
H2242 H 0.9122 0.77228 0.28083 0.0
H2243 H 0.86874 0.77145 0.2696 0.0
H2244 H 0.85072 0.75424 0.33874 0.0
C2245 C 0.94912 0.75597 0.36328 0.0
C2246 C 0.97232 0.75959 0.35403 0.0
C2247 C 0.97368 0.76481 0.33065 0.0
C2248 C 0.95255 0.76656 0.31673 0.0
C2249 C 0.93003 0.763 0.32633 0.0
C2250 C 0.92809 0.75772 0.34903 0.0
C2251 C 0.9015 0.75454 0.35487 0.0
C2252 C 0.89666 0.72769 0.36359 0.0
C2253 C 0.89405 0.77461 0.37206 0.0
C2254 C 0.88888 0.75892 0.33192 0.0
C2255 C 0.90578 0.7638 0.31577 0.0
C2256 C 0.8988 0.76844 0.29333 0.0
C2257 C 0.87396 0.76794 0.28712 0.0
C2258 C 0.85609 0.76279 0.30321 0.0
C2259 C 0.8638 0.7583 0.32599 0.0
H2260 H 0.54249 0.35207 0.91706 0.0
H2261 H 0.51744 0.29796 0.96623 0.0
H2262 H 0.51249 0.33239 0.99366 0.0
H2263 H 0.57644 0.39181 0.95702 0.0
H2264 H 0.56826 0.42099 0.94301 0.0
H2265 H 0.56993 0.39214 0.92697 0.0
H2266 H 0.5256 0.39875 0.91198 0.0
H2267 H 0.52379 0.42755 0.92807 0.0
H2268 H 0.50175 0.40276 0.93176 0.0
H2269 H 0.51019 0.37213 0.01597 0.0
H2270 H 0.51146 0.41491 0.03225 0.0
H2271 H 0.53771 0.44458 0.96922 0.0
C2272 C 0.53603 0.3475 0.93363 0.0
C2273 C 0.53038 0.3222 0.93945 0.0
C2274 C 0.52192 0.31708 0.96131 0.0
C2275 C 0.519 0.33655 0.97704 0.0
C2276 C 0.52458 0.36122 0.97078 0.0
C2277 C 0.53297 0.36684 0.94965 0.0
C2278 C 0.53769 0.3951 0.94747 0.0
C2279 C 0.56469 0.40031 0.94338 0.0
C2280 C 0.52122 0.40672 0.92871 0.0
C2281 C 0.53067 0.40437 0.97068 0.0
C2282 C 0.52315 0.38441 0.98377 0.0
C2283 C 0.51602 0.38792 0.00587 0.0
C2284 C 0.51681 0.41238 0.01498 0.0
C2285 C 0.52463 0.43328 0.00209 0.0
C2286 C 0.53147 0.42912 0.97951 0.0
H2287 H 0.98659 0.23911 0.18713 0.0
H2288 H 0.98787 0.16293 0.16015 0.0
H2289 H 0.949 0.15358 0.17858 0.0
H2290 H 0.96399 0.2228 0.24083 0.0
H2291 H 0.9458 0.25097 0.24275 0.0
H2292 H 0.97314 0.25142 0.22693 0.0
H2293 H 0.94852 0.26699 0.19144 0.0
H2294 H 0.92114 0.26673 0.20719 0.0
H2295 H 0.92245 0.24911 0.18122 0.0
H2296 H 0.90899 0.15356 0.19988 0.0
H2297 H 0.873 0.16241 0.22282 0.0
H2298 H 0.90029 0.2381 0.23602 0.0
C2299 C 0.97869 0.22046 0.18495 0.0
C2300 C 0.99009 0.20176 0.17213 0.0
C2301 C 0.97931 0.17752 0.1699 0.0
C2302 C 0.95728 0.17208 0.18029 0.0
C2303 C 0.94655 0.19105 0.19293 0.0
C2304 C 0.95705 0.21471 0.19531 0.0
C2305 C 0.94242 0.23181 0.21 0.0
C2306 C 0.95723 0.2397 0.23139 0.0
C2307 C 0.93308 0.25502 0.19666 0.0
C2308 C 0.92192 0.21419 0.21555 0.0
C2309 C 0.92438 0.19078 0.20552 0.0
C2310 C 0.90702 0.17177 0.20793 0.0
C2311 C 0.88668 0.17693 0.22092 0.0
C2312 C 0.88416 0.20076 0.23146 0.0
C2313 C 0.90205 0.21949 0.22863 0.0
H2314 H 0.03295 0.69812 0.45975 0.0
H2315 H 0.04473 0.66731 0.3931 0.0
H2316 H 0.04717 0.62448 0.4092 0.0
H2317 H 0.07326 0.65495 0.49093 0.0
H2318 H 0.05373 0.65183 0.51457 0.0
H2319 H 0.05336 0.68052 0.49816 0.0
H2320 H 0.0069 0.67578 0.49071 0.0
H2321 H 0.00712 0.64715 0.50718 0.0
H2322 H 0.995 0.64688 0.47851 0.0
H2323 H 0.04795 0.58505 0.43178 0.0
H2324 H 0.0455 0.55066 0.45948 0.0
H2325 H 0.03285 0.60548 0.51237 0.0
C2326 C 0.0361 0.68234 0.44859 0.0
C2327 C 0.03869 0.68618 0.42509 0.0
C2328 C 0.04267 0.66497 0.41109 0.0
C2329 C 0.04415 0.64051 0.4201 0.0
C2330 C 0.04158 0.63734 0.44323 0.0
C2331 C 0.03752 0.65756 0.45735 0.0
C2332 C 0.03482 0.64851 0.48155 0.0
C2333 C 0.055 0.65962 0.49723 0.0
C2334 C 0.00945 0.65496 0.48998 0.0
C2335 C 0.03792 0.6201 0.47872 0.0
C2336 C 0.0419 0.61423 0.45643 0.0
C2337 C 0.04489 0.5894 0.4493 0.0
C2338 C 0.04346 0.56995 0.46524 0.0
C2339 C 0.03904 0.57522 0.48821 0.0
C2340 C 0.03649 0.60077 0.49503 0.0
H2341 H 0.66042 0.71001 0.66793 0.0
H2342 H 0.61593 0.68211 0.72162 0.0
H2343 H 0.65148 0.68473 0.74839 0.0
H2344 H 0.71623 0.67691 0.6863 0.0
H2345 H 0.73539 0.70269 0.67795 0.0
H2346 H 0.70678 0.69702 0.66304 0.0
H2347 H 0.69381 0.74323 0.67099 0.0
H2348 H 0.72224 0.74891 0.68612 0.0
H2349 H 0.69395 0.75447 0.69972 0.0
H2350 H 0.69114 0.69362 0.76965 0.0
H2351 H 0.73264 0.70529 0.78333 0.0
H2352 H 0.75083 0.72619 0.71508 0.0
C2353 C 0.65821 0.70421 0.68527 0.0
C2354 C 0.63553 0.69595 0.69282 0.0
C2355 C 0.63327 0.68843 0.71557 0.0
C2356 C 0.6533 0.68989 0.73086 0.0
C2357 C 0.67537 0.69858 0.72293 0.0
C2358 C 0.67799 0.70528 0.7006 0.0
C2359 C 0.70346 0.71441 0.69635 0.0
C2360 C 0.71621 0.6967 0.67994 0.0
C2361 C 0.70334 0.74188 0.6878 0.0
C2362 C 0.71462 0.71248 0.71993 0.0
C2363 C 0.6982 0.70326 0.73503 0.0
C2364 C 0.70423 0.70065 0.75795 0.0
C2365 C 0.72775 0.70748 0.76556 0.0
C2366 C 0.74487 0.71668 0.75024 0.0
C2367 C 0.73815 0.71915 0.72717 0.0
H2368 H 0.6417 0.50966 0.68102 0.0
H2369 H 0.58288 0.52268 0.72644 0.0
H2370 H 0.55341 0.52295 0.69387 0.0
H2371 H 0.61772 0.5472 0.63348 0.0
H2372 H 0.62771 0.52501 0.61267 0.0
H2373 H 0.64432 0.52808 0.6393 0.0
H2374 H 0.6393 0.48001 0.64631 0.0
H2375 H 0.62265 0.47694 0.61974 0.0
H2376 H 0.60924 0.4663 0.64541 0.0
H2377 H 0.53035 0.52182 0.65616 0.0
H2378 H 0.51518 0.51591 0.61658 0.0
H2379 H 0.58873 0.50025 0.59655 0.0
C2380 C 0.62265 0.51293 0.68404 0.0
C2381 C 0.61453 0.51645 0.70617 0.0
C2382 C 0.58943 0.52008 0.70957 0.0
C2383 C 0.5726 0.52033 0.69119 0.0
C2384 C 0.58114 0.51657 0.66957 0.0
C2385 C 0.60557 0.51273 0.66594 0.0
C2386 C 0.60983 0.50751 0.64123 0.0
C2387 C 0.62584 0.52819 0.63108 0.0
C2388 C 0.6209 0.48112 0.638 0.0
C2389 C 0.58398 0.50879 0.63162 0.0
C2390 C 0.56774 0.51449 0.64813 0.0
C2391 C 0.54289 0.51721 0.64311 0.0
C2392 C 0.53443 0.51385 0.62064 0.0
C2393 C 0.55074 0.50732 0.60366 0.0
C2394 C 0.5758 0.50484 0.60929 0.0
H2395 H 0.78079 0.37561 0.97887 0.0
H2396 H 0.81291 0.31736 0.02199 0.0
H2397 H 0.82249 0.29234 0.9882 0.0
H2398 H 0.75335 0.33408 0.93752 0.0
H2399 H 0.75939 0.35461 0.91408 0.0
H2400 H 0.75534 0.36779 0.9417 0.0
H2401 H 0.79728 0.39 0.93988 0.0
H2402 H 0.80158 0.37665 0.91234 0.0
H2403 H 0.82399 0.37144 0.93479 0.0
H2404 H 0.8278 0.27343 0.94976 0.0
H2405 H 0.82736 0.26135 0.90942 0.0
H2406 H 0.7924 0.33238 0.89159 0.0
C2407 C 0.78977 0.35755 0.98121 0.0
C2408 C 0.79607 0.34834 0.00301 0.0
C2409 C 0.80789 0.3247 0.00541 0.0
C2410 C 0.81347 0.31042 0.98633 0.0
C2411 C 0.80721 0.32016 0.96506 0.0
C2412 C 0.79556 0.34314 0.9624 0.0
C2413 C 0.79053 0.34922 0.93771 0.0
C2414 C 0.76302 0.35155 0.93245 0.0
C2415 C 0.80417 0.37325 0.93078 0.0
C2416 C 0.80097 0.32595 0.92687 0.0
C2417 C 0.81057 0.30945 0.94293 0.0
C2418 C 0.82046 0.28625 0.93703 0.0
C2419 C 0.82011 0.27955 0.91413 0.0
C2420 C 0.81 0.29603 0.89746 0.0
C2421 C 0.80068 0.31967 0.90395 0.0
H2422 H 0.95396 0.49604 0.17991 0.0
H2423 H 0.95112 0.57436 0.20124 0.0
H2424 H 0.97241 0.58722 0.16691 0.0
H2425 H 0.01437 0.49943 0.15744 0.0
H2426 H 0.00709 0.47812 0.13443 0.0
H2427 H 0.99158 0.47526 0.16058 0.0
H2428 H 0.94998 0.47942 0.13888 0.0
H2429 H 0.96537 0.48218 0.11268 0.0
H2430 H 0.94441 0.50639 0.12083 0.0
H2431 H 0.99122 0.59155 0.12843 0.0
H2432 H 0.00877 0.58651 0.09066 0.0
H2433 H 0.00245 0.50513 0.09678 0.0
C2434 C 0.95786 0.51589 0.17736 0.0
C2435 C 0.9508 0.53426 0.1931 0.0
C2436 C 0.95641 0.56001 0.18934 0.0
C2437 C 0.96845 0.56748 0.1699 0.0
C2438 C 0.97512 0.54888 0.15463 0.0
C2439 C 0.97027 0.52358 0.15832 0.0
C2440 C 0.9796 0.50726 0.13953 0.0
C2441 C 0.99933 0.48894 0.14854 0.0
C2442 C 0.95859 0.49298 0.12726 0.0
C2443 C 0.99021 0.52732 0.12455 0.0
C2444 C 0.98725 0.55126 0.13337 0.0
C2445 C 0.99405 0.57286 0.12158 0.0
C2446 C 0.00399 0.56987 0.1002 0.0
C2447 C 0.00747 0.54545 0.09113 0.0
C2448 C 0.00069 0.524 0.10363 0.0
H2449 H 0.73038 0.60256 0.43978 0.0
H2450 H 0.7148 0.65321 0.49488 0.0
H2451 H 0.70908 0.68833 0.46775 0.0
H2452 H 0.76701 0.641 0.41339 0.0
H2453 H 0.75807 0.63278 0.38474 0.0
H2454 H 0.75409 0.61035 0.40701 0.0
H2455 H 0.70808 0.60671 0.39651 0.0
H2456 H 0.71196 0.62878 0.37372 0.0
H2457 H 0.68972 0.63488 0.39465 0.0
H2458 H 0.71482 0.71943 0.43604 0.0
H2459 H 0.72704 0.74263 0.40188 0.0
H2460 H 0.73968 0.67117 0.36841 0.0
C2461 C 0.7246 0.62076 0.446 0.0
C2462 C 0.72295 0.6252 0.46934 0.0
C2463 C 0.71586 0.64936 0.47699 0.0
C2464 C 0.71267 0.66945 0.4617 0.0
C2465 C 0.71621 0.66487 0.43887 0.0
C2466 C 0.72142 0.6409 0.431 0.0
C2467 C 0.72753 0.64135 0.40634 0.0
C2468 C 0.75319 0.63076 0.40269 0.0
C2469 C 0.70816 0.62709 0.39196 0.0
C2470 C 0.72639 0.66942 0.4019 0.0
C2471 C 0.71946 0.68275 0.42066 0.0
C2472 C 0.7196 0.70914 0.42105 0.0
C2473 C 0.72683 0.72216 0.40171 0.0
C2474 C 0.73395 0.70871 0.38238 0.0
C2475 C 0.73355 0.68203 0.38262 0.0
H2476 H 0.61349 0.49471 0.82629 0.0
H2477 H 0.63328 0.57268 0.81328 0.0
H2478 H 0.61306 0.58592 0.84792 0.0
H2479 H 0.55397 0.50803 0.84912 0.0
H2480 H 0.55662 0.48333 0.87002 0.0
H2481 H 0.57162 0.48016 0.84362 0.0
H2482 H 0.61284 0.47338 0.86534 0.0
H2483 H 0.59796 0.47651 0.89176 0.0
H2484 H 0.62337 0.49665 0.88568 0.0
H2485 H 0.59292 0.59032 0.88526 0.0
H2486 H 0.57344 0.58553 0.92205 0.0
H2487 H 0.56621 0.5049 0.91027 0.0
C2488 C 0.61336 0.5146 0.83061 0.0
C2489 C 0.62493 0.53268 0.81708 0.0
C2490 C 0.62447 0.55851 0.82337 0.0
C2491 C 0.61303 0.56622 0.843 0.0
C2492 C 0.60197 0.5479 0.85609 0.0
C2493 C 0.60192 0.52264 0.8501 0.0
C2494 C 0.58933 0.50666 0.86742 0.0
C2495 C 0.56653 0.49379 0.85691 0.0
C2496 C 0.60693 0.48716 0.87818 0.0
C2497 C 0.58262 0.52682 0.88424 0.0
C2498 C 0.59004 0.55049 0.8774 0.0
C2499 C 0.58681 0.57191 0.89068 0.0
C2500 C 0.57583 0.56901 0.91156 0.0
C2501 C 0.56811 0.54491 0.9189 0.0
C2502 C 0.57143 0.52364 0.90489 0.0
H2503 H 0.80685 0.34799 0.12866 0.0
H2504 H 0.73092 0.34923 0.10628 0.0
H2505 H 0.72017 0.3242 0.13977 0.0
H2506 H 0.80625 0.28329 0.14932 0.0
H2507 H 0.827 0.28981 0.17285 0.0
H2508 H 0.82865 0.30803 0.14725 0.0
H2509 H 0.8237 0.34941 0.17008 0.0
H2510 H 0.82216 0.33133 0.19572 0.0
H2511 H 0.79797 0.35287 0.18784 0.0
H2512 H 0.71745 0.30224 0.17751 0.0
H2513 H 0.7236 0.28172 0.21497 0.0
H2514 H 0.80156 0.29092 0.21032 0.0
C2515 C 0.78799 0.34295 0.13085 0.0
C2516 C 0.76966 0.35062 0.11505 0.0
C2517 C 0.7452 0.34348 0.11825 0.0
C2518 C 0.73893 0.32931 0.1372 0.0
C2519 C 0.75742 0.32202 0.15251 0.0
C2520 C 0.7815 0.32831 0.14938 0.0
C2521 C 0.79793 0.31774 0.16811 0.0
C2522 C 0.81602 0.29858 0.15882 0.0
C2523 C 0.81121 0.33911 0.18121 0.0
C2524 C 0.77931 0.30488 0.18243 0.0
C2525 C 0.756 0.30779 0.17332 0.0
C2526 C 0.73565 0.29933 0.18457 0.0
C2527 C 0.73926 0.28772 0.20575 0.0
C2528 C 0.76303 0.2842 0.21506 0.0
C2529 C 0.78325 0.29264 0.20312 0.0
H2530 H 0.92871 0.50613 0.33152 0.0
H2531 H 0.99038 0.49387 0.28919 0.0
H2532 H 0.01516 0.48045 0.32273 0.0
H2533 H 0.96317 0.53134 0.37933 0.0
H2534 H 0.94414 0.5166 0.39972 0.0
H2535 H 0.93157 0.52507 0.37228 0.0
H2536 H 0.91721 0.47878 0.36618 0.0
H2537 H 0.9301 0.4701 0.39347 0.0
H2538 H 0.93908 0.45349 0.36855 0.0
H2539 H 0.03297 0.46779 0.361 0.0
H2540 H 0.0434 0.4603 0.40139 0.0
H2541 H 0.97015 0.48184 0.41837 0.0
C2542 C 0.94747 0.50076 0.32932 0.0
C2543 C 0.95765 0.50103 0.30778 0.0
C2544 C 0.98226 0.49388 0.30558 0.0
C2545 C 0.99642 0.4861 0.3245 0.0
C2546 C 0.9857 0.48566 0.34546 0.0
C2547 C 0.96186 0.49306 0.348 0.0
C2548 C 0.95481 0.49145 0.37241 0.0
C2549 C 0.94803 0.51767 0.38147 0.0
C2550 C 0.93408 0.47231 0.37531 0.0
C2551 C 0.97842 0.482 0.38324 0.0
C2552 C 0.99597 0.4786 0.36742 0.0
C2553 C 0.01937 0.47042 0.37354 0.0
C2554 C 0.02513 0.46624 0.39652 0.0
C2555 C 0.00759 0.47035 0.41309 0.0
C2556 C 0.98384 0.47795 0.40616 0.0
H2557 H 0.79018 0.60689 0.59037 0.0
H2558 H 0.79769 0.66266 0.53732 0.0
H2559 H 0.81609 0.69256 0.56501 0.0
H2560 H 0.77407 0.6496 0.6335 0.0
H2561 H 0.79087 0.63317 0.65566 0.0
H2562 H 0.77914 0.61603 0.63139 0.0
H2563 H 0.82255 0.59955 0.62408 0.0
H2564 H 0.83444 0.61692 0.64822 0.0
H2565 H 0.84702 0.62184 0.62088 0.0
H2566 H 0.831 0.71732 0.59886 0.0
H2567 H 0.84135 0.73503 0.63675 0.0
H2568 H 0.82587 0.66244 0.66704 0.0
C2569 C 0.79574 0.62538 0.5846 0.0
C2570 C 0.79248 0.63255 0.56178 0.0
C2571 C 0.80004 0.65684 0.55479 0.0
C2572 C 0.81057 0.67391 0.57035 0.0
C2573 C 0.81364 0.66624 0.59274 0.0
C2574 C 0.8065 0.64254 0.59986 0.0
C2575 C 0.81126 0.63922 0.62497 0.0
C2576 C 0.78742 0.63422 0.63709 0.0
C2577 C 0.82993 0.61813 0.62981 0.0
C2578 C 0.82172 0.66491 0.63091 0.0
C2579 C 0.82302 0.68023 0.6121 0.0
C2580 C 0.83047 0.70541 0.61368 0.0
C2581 C 0.83632 0.71529 0.63516 0.0
C2582 C 0.83485 0.6999 0.65459 0.0
C2583 C 0.82787 0.67434 0.65233 0.0
H2584 H 0.71134 0.52848 0.55751 0.0
H2585 H 0.74749 0.49398 0.50148 0.0
H2586 H 0.72535 0.45428 0.50769 0.0
H2587 H 0.70378 0.46709 0.59231 0.0
H2588 H 0.6742 0.47739 0.6007 0.0
H2589 H 0.69798 0.50026 0.5965 0.0
H2590 H 0.66986 0.52452 0.56782 0.0
H2591 H 0.6462 0.50208 0.57244 0.0
H2592 H 0.65614 0.50762 0.54417 0.0
H2593 H 0.69261 0.42394 0.51246 0.0
H2594 H 0.65066 0.40766 0.51381 0.0
H2595 H 0.63657 0.45894 0.56864 0.0
C2596 C 0.71516 0.51223 0.54712 0.0
C2597 C 0.73102 0.51421 0.52905 0.0
C2598 C 0.73533 0.49283 0.51543 0.0
C2599 C 0.72306 0.47008 0.51902 0.0
C2600 C 0.7068 0.46888 0.53649 0.0
C2601 C 0.70296 0.48937 0.55048 0.0
C2602 C 0.68151 0.48485 0.56526 0.0
C2603 C 0.68988 0.48223 0.59017 0.0
C2604 C 0.66231 0.50598 0.56219 0.0
C2605 C 0.67249 0.45977 0.55582 0.0
C2606 C 0.68784 0.45039 0.53981 0.0
C2607 C 0.68089 0.4304 0.52556 0.0
C2608 C 0.65709 0.4211 0.52648 0.0
C2609 C 0.64072 0.43176 0.54161 0.0
C2610 C 0.64914 0.44982 0.55758 0.0
H2611 H 0.19883 0.92892 0.51927 0.0
H2612 H 0.21484 0.94223 0.5905 0.0
H2613 H 0.1754 0.96403 0.59368 0.0
H2614 H 0.17085 0.99012 0.50886 0.0
H2615 H 0.14842 0.97807 0.48868 0.0
H2616 H 0.17754 0.96273 0.49209 0.0
H2617 H 0.15605 0.92021 0.50019 0.0
H2618 H 0.12688 0.93541 0.49673 0.0
H2619 H 0.13458 0.91857 0.52245 0.0
H2620 H 0.13324 0.98165 0.58967 0.0
H2621 H 0.09249 0.99778 0.57787 0.0
H2622 H 0.10569 0.97743 0.5085 0.0
C2623 C 0.1939 0.93637 0.53551 0.0
C2624 C 0.20962 0.93377 0.55471 0.0
C2625 C 0.20292 0.94407 0.57563 0.0
C2626 C 0.18059 0.95642 0.5776 0.0
C2627 C 0.16547 0.95877 0.55835 0.0
C2628 C 0.17194 0.94939 0.53763 0.0
C2629 C 0.15271 0.95533 0.51945 0.0
C2630 C 0.163 0.97259 0.50119 0.0
C2631 C 0.14192 0.93093 0.5091 0.0
C2632 C 0.13428 0.96915 0.53328 0.0
C2633 C 0.14188 0.97064 0.55574 0.0
C2634 C 0.12726 0.98102 0.57208 0.0
C2635 C 0.10421 0.99008 0.56527 0.0
C2636 C 0.09636 0.98921 0.5423 0.0
C2637 C 0.11165 0.97884 0.52609 0.0
H2638 H 0.34236 0.94614 0.7509 0.0
H2639 H 0.41739 0.92489 0.74061 0.0
H2640 H 0.40864 0.88167 0.75327 0.0
H2641 H 0.33403 0.90936 0.80074 0.0
H2642 H 0.30333 0.89972 0.79328 0.0
H2643 H 0.31491 0.92927 0.78295 0.0
H2644 H 0.30451 0.91555 0.74172 0.0
H2645 H 0.29248 0.88619 0.75197 0.0
H2646 H 0.31598 0.88591 0.73154 0.0
H2647 H 0.3926 0.84116 0.7677 0.0
H2648 H 0.36877 0.80408 0.77911 0.0
H2649 H 0.3038 0.85046 0.78028 0.0
C2650 C 0.35682 0.93228 0.75104 0.0
C2651 C 0.38058 0.93897 0.74475 0.0
C2652 C 0.39905 0.92029 0.74529 0.0
C2653 C 0.39431 0.89567 0.7526 0.0
C2654 C 0.37095 0.88984 0.75924 0.0
C2655 C 0.35237 0.9074 0.75822 0.0
C2656 C 0.32878 0.89577 0.76594 0.0
C2657 C 0.31974 0.90935 0.78698 0.0
C2658 C 0.30929 0.89586 0.74664 0.0
C2659 C 0.33714 0.86906 0.77155 0.0
C2660 C 0.36159 0.86619 0.76764 0.0
C2661 C 0.37344 0.84316 0.77087 0.0
C2662 C 0.35978 0.82223 0.77748 0.0
C2663 C 0.33451 0.8244 0.78086 0.0
C2664 C 0.3232 0.84832 0.77835 0.0
H2665 H 0.35672 0.07238 0.0454 0.0
H2666 H 0.32847 0.03562 0.98439 0.0
H2667 H 0.36653 0.0112 0.98222 0.0
H2668 H 0.41607 0.08036 0.02728 0.0
H2669 H 0.43061 0.07482 0.05458 0.0
H2670 H 0.40018 0.0872 0.05266 0.0
H2671 H 0.38532 0.05015 0.07734 0.0
H2672 H 0.41574 0.03752 0.07917 0.0
H2673 H 0.39087 0.01804 0.06875 0.0
H2674 H 0.40811 0.99317 0.98516 0.0
H2675 H 0.4519 0.985 0.99118 0.0
H2676 H 0.45335 0.03398 0.05009 0.0
C2677 C 0.35846 0.05895 0.03175 0.0
C2678 C 0.33975 0.05573 0.0151 0.0
C2679 C 0.34269 0.0383 0.9973 0.0
C2680 C 0.36412 0.02423 0.99603 0.0
C2681 C 0.38226 0.02787 0.01271 0.0
C2682 C 0.37974 0.04489 0.03016 0.0
C2683 C 0.40275 0.04679 0.04481 0.0
C2684 C 0.413 0.07389 0.04482 0.0
C2685 C 0.3984 0.03757 0.06895 0.0
C2686 C 0.41886 0.02871 0.03247 0.0
C2687 C 0.40653 0.01766 0.01426 0.0
C2688 C 0.41793 0.00145 0.9995 0.0
C2689 C 0.4428 0.99697 0.00307 0.0
C2690 C 0.45598 0.00888 0.02113 0.0
C2691 C 0.44368 0.02439 0.03632 0.0
H2692 H 0.72041 0.57768 0.73895 0.0
H2693 H 0.73875 0.53613 0.80036 0.0
H2694 H 0.77422 0.56401 0.80754 0.0
H2695 H 0.78375 0.58992 0.7228 0.0
H2696 H 0.77658 0.6211 0.71229 0.0
H2697 H 0.75379 0.59656 0.71094 0.0
H2698 H 0.72447 0.62499 0.73307 0.0
H2699 H 0.74706 0.64959 0.7342 0.0
H2700 H 0.73459 0.63798 0.75994 0.0
H2701 H 0.80372 0.60019 0.81098 0.0
H2702 H 0.82596 0.64092 0.80922 0.0
H2703 H 0.79118 0.6562 0.74389 0.0
C2704 C 0.73212 0.57423 0.75371 0.0
C2705 C 0.72687 0.55477 0.7691 0.0
C2706 C 0.74251 0.5509 0.7883 0.0
C2707 C 0.76273 0.56659 0.7925 0.0
C2708 C 0.76731 0.58579 0.77713 0.0
C2709 C 0.75259 0.58951 0.75799 0.0
C2710 C 0.76077 0.61228 0.74476 0.0
C2711 C 0.76923 0.60449 0.72131 0.0
C2712 C 0.74053 0.63238 0.7429 0.0
C2713 C 0.78195 0.62116 0.75977 0.0
C2714 C 0.78544 0.60568 0.77841 0.0
C2715 C 0.80177 0.612 0.79611 0.0
C2716 C 0.81439 0.63505 0.79498 0.0
C2717 C 0.81094 0.65108 0.77606 0.0
C2718 C 0.79505 0.64364 0.75802 0.0
H2719 H 0.87443 0.41156 0.05979 0.0
H2720 H 0.82489 0.47534 0.05645 0.0
H2721 H 0.85845 0.50307 0.04518 0.0
H2722 H 0.92728 0.44827 0.08267 0.0
H2723 H 0.9487 0.43014 0.06704 0.0
H2724 H 0.92098 0.41561 0.07595 0.0
H2725 H 0.91052 0.40294 0.03445 0.0
H2726 H 0.93795 0.4179 0.02538 0.0
H2727 H 0.90889 0.42707 0.01295 0.0
H2728 H 0.89586 0.52282 0.03075 0.0
H2729 H 0.9368 0.53557 0.01986 0.0
H2730 H 0.96343 0.45983 0.03457 0.0
C2731 C 0.8708 0.43146 0.05709 0.0
C2732 C 0.84706 0.44133 0.05897 0.0
C2733 C 0.84295 0.46743 0.05525 0.0
C2734 C 0.86186 0.48329 0.0487 0.0
C2735 C 0.88485 0.47285 0.04632 0.0
C2736 C 0.8896 0.44771 0.05092 0.0
C2737 C 0.9161 0.44146 0.04726 0.0
C2738 C 0.92903 0.4334 0.06956 0.0
C2739 C 0.91849 0.42114 0.02891 0.0
C2740 C 0.92531 0.46689 0.03935 0.0
C2741 C 0.90687 0.48461 0.03878 0.0
C2742 C 0.91055 0.50923 0.03141 0.0
C2743 C 0.93389 0.5162 0.02507 0.0
C2744 C 0.95342 0.49873 0.02637 0.0
C2745 C 0.94891 0.47363 0.03337 0.0
H2746 H 0.34083 0.07814 0.75873 0.0
H2747 H 0.39717 0.09824 0.71257 0.0
H2748 H 0.38071 0.14153 0.70961 0.0
H2749 H 0.29198 0.11801 0.73393 0.0
H2750 H 0.28079 0.12716 0.76096 0.0
H2751 H 0.2952 0.09687 0.75772 0.0
H2752 H 0.32591 0.10771 0.79048 0.0
H2753 H 0.31159 0.13799 0.79381 0.0
H2754 H 0.34373 0.13627 0.78907 0.0
H2755 H 0.35928 0.18253 0.71219 0.0
H2756 H 0.33633 0.22036 0.72263 0.0
H2757 H 0.29516 0.17551 0.76944 0.0
C2758 C 0.34934 0.09162 0.74772 0.0
C2759 C 0.37006 0.08489 0.73562 0.0
C2760 C 0.38122 0.10309 0.72187 0.0
C2761 C 0.37195 0.12766 0.72002 0.0
C2762 C 0.3517 0.13388 0.73231 0.0
C2763 C 0.34063 0.11655 0.74611 0.0
C2764 C 0.32041 0.12897 0.75895 0.0
C2765 C 0.29562 0.11704 0.7525 0.0
C2766 C 0.32574 0.12766 0.7846 0.0
C2767 C 0.32202 0.15595 0.7503 0.0
C2768 C 0.33995 0.15814 0.73467 0.0
C2769 C 0.34516 0.18108 0.72439 0.0
C2770 C 0.33196 0.20249 0.73043 0.0
C2771 C 0.31392 0.201 0.74689 0.0
C2772 C 0.30879 0.17729 0.75679 0.0
H2773 H 0.21582 0.9456 0.28512 0.0
H2774 H 0.20417 0.94857 0.2123 0.0
H2775 H 0.22392 0.90701 0.20883 0.0
H2776 H 0.2756 0.91482 0.2844 0.0
H2777 H 0.27011 0.89586 0.30899 0.0
H2778 H 0.25593 0.92639 0.30579 0.0
H2779 H 0.21358 0.90581 0.31019 0.0
H2780 H 0.22762 0.87525 0.31337 0.0
H2781 H 0.20424 0.88022 0.29172 0.0
H2782 H 0.24155 0.86393 0.21335 0.0
H2783 H 0.25851 0.82274 0.22545 0.0
H2784 H 0.26117 0.84824 0.29512 0.0
C2785 C 0.21766 0.93758 0.26845 0.0
C2786 C 0.20845 0.95026 0.24897 0.0
C2787 C 0.21115 0.9392 0.22744 0.0
C2788 C 0.22233 0.91561 0.22529 0.0
C2789 C 0.231 0.90346 0.24481 0.0
C2790 C 0.22907 0.91413 0.26597 0.0
C2791 C 0.23963 0.89683 0.28421 0.0
C2792 C 0.26163 0.90922 0.29657 0.0
C2793 C 0.2201 0.88907 0.30085 0.0
C2794 C 0.24734 0.8746 0.27002 0.0
C2795 C 0.2421 0.87884 0.24734 0.0
C2796 C 0.24609 0.86052 0.23101 0.0
C2797 C 0.25564 0.83718 0.23805 0.0
C2798 C 0.26135 0.83248 0.26116 0.0
C2799 C 0.25738 0.85155 0.2773 0.0
H2800 H 0.46095 0.38793 0.44274 0.0
H2801 H 0.49073 0.32357 0.47941 0.0
H2802 H 0.48178 0.34419 0.51539 0.0
H2803 H 0.48671 0.43221 0.47263 0.0
H2804 H 0.46179 0.45434 0.47252 0.0
H2805 H 0.46333 0.43147 0.45047 0.0
H2806 H 0.41994 0.4164 0.46002 0.0
H2807 H 0.41906 0.43935 0.4825 0.0
H2808 H 0.41379 0.40638 0.48835 0.0
H2809 H 0.48307 0.37567 0.54515 0.0
H2810 H 0.49556 0.4149 0.56462 0.0
H2811 H 0.46057 0.45889 0.5114 0.0
C2812 C 0.46467 0.37785 0.45839 0.0
C2813 C 0.47662 0.35432 0.45838 0.0
C2814 C 0.48153 0.34166 0.47906 0.0
C2815 C 0.47626 0.35313 0.49961 0.0
C2816 C 0.46551 0.377 0.49919 0.0
C2817 C 0.45926 0.38902 0.47904 0.0
C2818 C 0.45195 0.41616 0.48304 0.0
C2819 C 0.4669 0.43456 0.46883 0.0
C2820 C 0.42455 0.41977 0.4782 0.0
C2821 C 0.45815 0.4185 0.50811 0.0
C2822 C 0.46496 0.39537 0.51733 0.0
C2823 C 0.47676 0.39367 0.53855 0.0
C2824 C 0.48369 0.41605 0.54966 0.0
C2825 C 0.47847 0.43971 0.53963 0.0
C2826 C 0.46372 0.44091 0.51974 0.0
H2827 H 0.46882 0.77368 0.21874 0.0
H2828 H 0.44097 0.75439 0.15142 0.0
H2829 H 0.3992 0.75482 0.16497 0.0
H2830 H 0.42632 0.73498 0.24855 0.0
H2831 H 0.42274 0.75697 0.27143 0.0
H2832 H 0.45073 0.75633 0.25655 0.0
H2833 H 0.44622 0.80402 0.2477 0.0
H2834 H 0.41818 0.8048 0.26253 0.0
H2835 H 0.41874 0.81534 0.23362 0.0
H2836 H 0.36073 0.75646 0.18514 0.0
H2837 H 0.32712 0.75779 0.21113 0.0
H2838 H 0.37801 0.77539 0.26676 0.0
C2839 C 0.45388 0.76973 0.20686 0.0
C2840 C 0.45829 0.76409 0.1839 0.0
C2841 C 0.4382 0.75877 0.169 0.0
C2842 C 0.41433 0.75902 0.17655 0.0
C2843 C 0.41059 0.76453 0.19916 0.0
C2844 C 0.42971 0.76971 0.21421 0.0
C2845 C 0.4203 0.7742 0.23782 0.0
C2846 C 0.43064 0.75444 0.25458 0.0
C2847 C 0.42622 0.8012 0.24589 0.0
C2848 C 0.39297 0.77063 0.23361 0.0
C2849 C 0.38799 0.76519 0.21109 0.0
C2850 C 0.3644 0.76072 0.2028 0.0
C2851 C 0.34536 0.76151 0.21784 0.0
C2852 C 0.34969 0.76667 0.24116 0.0
C2853 C 0.37395 0.77155 0.24908 0.0
H2854 H 0.03316 0.75591 0.93712 0.0
H2855 H 0.95902 0.76937 0.9126 0.0
H2856 H 0.94667 0.72776 0.9274 0.0
H2857 H 0.03417 0.68809 0.92601 0.0
H2858 H 0.05219 0.68149 0.95134 0.0
H2859 H 0.05528 0.71142 0.93721 0.0
H2860 H 0.04585 0.73468 0.97443 0.0
H2861 H 0.04246 0.70486 0.98859 0.0
H2862 H 0.01807 0.72757 0.98842 0.0
H2863 H 0.9423 0.68532 0.94635 0.0
H2864 H 0.94643 0.64529 0.96794 0.0
H2865 H 0.02321 0.6609 0.98033 0.0
C2866 C 0.01442 0.74993 0.93457 0.0
C2867 C 0.99704 0.76567 0.92372 0.0
C2868 C 0.97259 0.75745 0.92091 0.0
C2869 C 0.96543 0.73389 0.92922 0.0
C2870 C 0.98295 0.71897 0.94028 0.0
C2871 C 0.00695 0.72664 0.94289 0.0
C2872 C 0.02203 0.70767 0.95625 0.0
C2873 C 0.0421 0.6965 0.94184 0.0
C2874 C 0.03272 0.71941 0.97822 0.0
C2875 C 0.00272 0.68829 0.961 0.0
C2876 C 0.98032 0.69496 0.95153 0.0
C2877 C 0.95975 0.67985 0.95381 0.0
C2878 C 0.96223 0.65725 0.96606 0.0
C2879 C 0.98504 0.6503 0.97597 0.0
C2880 C 0.00545 0.66604 0.97331 0.0
H2881 H 0.09457 0.25409 0.71686 0.0
H2882 H 0.11161 0.26672 0.64675 0.0
H2883 H 0.1553 0.2671 0.65728 0.0
H2884 H 0.14195 0.29448 0.74083 0.0
H2885 H 0.14889 0.2743 0.76471 0.0
H2886 H 0.11871 0.27435 0.75186 0.0
H2887 H 0.12126 0.22596 0.74592 0.0
H2888 H 0.1515 0.2258 0.75869 0.0
H2889 H 0.14619 0.21299 0.73075 0.0
H2890 H 0.19693 0.26699 0.67485 0.0
H2891 H 0.23447 0.26726 0.6986 0.0
H2892 H 0.19224 0.2546 0.75815 0.0
C2893 C 0.10753 0.25686 0.70374 0.0
C2894 C 0.09951 0.26035 0.68089 0.0
C2895 C 0.11713 0.26401 0.66431 0.0
C2896 C 0.14208 0.26422 0.67013 0.0
C2897 C 0.14938 0.26074 0.69268 0.0
C2898 C 0.13273 0.25717 0.7093 0.0
C2899 C 0.14578 0.25438 0.73233 0.0
C2900 C 0.13839 0.27565 0.74838 0.0
C2901 C 0.14089 0.22822 0.74252 0.0
C2902 C 0.17228 0.25706 0.72598 0.0
C2903 C 0.17377 0.26065 0.70297 0.0
C2904 C 0.196 0.26413 0.69288 0.0
C2905 C 0.2173 0.26425 0.70661 0.0
C2906 C 0.21652 0.26088 0.73033 0.0
C2907 C 0.19358 0.25697 0.74008 0.0
H2908 H 0.52276 0.69724 0.09503 0.0
H2909 H 0.5498 0.67139 0.1608 0.0
H2910 H 0.55666 0.62902 0.14506 0.0
H2911 H 0.49097 0.63949 0.07968 0.0
H2912 H 0.49829 0.64088 0.05029 0.0
H2913 H 0.49599 0.66962 0.06638 0.0
H2914 H 0.53956 0.68215 0.05551 0.0
H2915 H 0.54205 0.65335 0.0395 0.0
H2916 H 0.56439 0.6607 0.06154 0.0
H2917 H 0.56016 0.58964 0.12309 0.0
H2918 H 0.55837 0.55415 0.09642 0.0
H2919 H 0.52901 0.60377 0.04382 0.0
C2920 C 0.53014 0.68264 0.10608 0.0
C2921 C 0.53578 0.68772 0.12922 0.0
C2922 C 0.54532 0.66805 0.14309 0.0
C2923 C 0.54936 0.6439 0.13427 0.0
C2924 C 0.54377 0.63953 0.11147 0.0
C2925 C 0.53424 0.65821 0.09751 0.0
C2926 C 0.52926 0.64796 0.07373 0.0
C2927 C 0.50201 0.64958 0.06713 0.0
C2928 C 0.54474 0.66187 0.05655 0.0
C2929 C 0.53739 0.62061 0.07661 0.0
C2930 C 0.54579 0.61639 0.09857 0.0
C2931 C 0.5537 0.59272 0.10584 0.0
C2932 C 0.5526 0.57264 0.09049 0.0
C2933 C 0.54365 0.57608 0.06793 0.0
C2934 C 0.53629 0.60059 0.06081 0.0
H2935 H 0.10335 0.82818 0.90488 0.0
H2936 H 0.0723 0.88557 0.8603 0.0
H2937 H 0.11 0.88585 0.83878 0.0
H2938 H 0.16841 0.85096 0.90326 0.0
H2939 H 0.17963 0.81896 0.90381 0.0
H2940 H 0.15216 0.82676 0.91798 0.0
H2941 H 0.1291 0.79188 0.89513 0.0
H2942 H 0.15629 0.78423 0.88069 0.0
H2943 H 0.12901 0.79266 0.86469 0.0
H2944 H 0.14736 0.87383 0.81807 0.0
H2945 H 0.18332 0.85338 0.80195 0.0
H2946 H 0.19072 0.80514 0.86088 0.0
C2947 C 0.10482 0.84145 0.89108 0.0
C2948 C 0.08499 0.85693 0.88428 0.0
C2949 C 0.0874 0.87376 0.86593 0.0
C2950 C 0.10872 0.87399 0.85358 0.0
C2951 C 0.12756 0.85763 0.86011 0.0
C2952 C 0.12601 0.84205 0.87874 0.0
C2953 C 0.14783 0.82473 0.88114 0.0
C2954 C 0.1629 0.83072 0.90284 0.0
C2955 C 0.14008 0.79673 0.88035 0.0
C2956 C 0.16136 0.8321 0.86035 0.0
C2957 C 0.14948 0.85124 0.8485 0.0
C2958 C 0.15717 0.85934 0.82751 0.0
C2959 C 0.17746 0.84756 0.81843 0.0
C2960 C 0.18985 0.82802 0.83039 0.0
C2961 C 0.18188 0.8205 0.85173 0.0
H2962 H 0.02015 0.32101 0.59439 0.0
H2963 H 0.01137 0.34986 0.66219 0.0
H2964 H 0.0071 0.39304 0.64703 0.0
H2965 H 0.05636 0.37287 0.57546 0.0
H2966 H 0.04317 0.37334 0.54717 0.0
H2967 H 0.04412 0.34426 0.56298 0.0
H2968 H 0.99748 0.33943 0.557 0.0
H2969 H 0.99639 0.36855 0.5412 0.0
H2970 H 0.9778 0.36469 0.56542 0.0
H2971 H 0.00488 0.43319 0.62519 0.0
H2972 H 0.00649 0.46834 0.59811 0.0
H2973 H 0.0175 0.41488 0.54377 0.0
C2974 C 0.01709 0.33642 0.60598 0.0
C2975 C 0.01598 0.33195 0.62954 0.0
C2976 C 0.01228 0.3527 0.64413 0.0
C2977 C 0.00976 0.37735 0.63567 0.0
C2978 C 0.01107 0.38117 0.61248 0.0
C2979 C 0.01475 0.36137 0.59778 0.0
C2980 C 0.01649 0.37109 0.57368 0.0
C2981 C 0.04152 0.36503 0.56427 0.0
C2982 C 0.9958 0.36029 0.55842 0.0
C2983 C 0.0134 0.3994 0.57723 0.0
C2984 C 0.01011 0.40465 0.59977 0.0
C2985 C 0.00735 0.42931 0.60748 0.0
C2986 C 0.00829 0.4492 0.59189 0.0
C2987 C 0.01204 0.44455 0.56869 0.0
C2988 C 0.01437 0.41916 0.5613 0.0
H2989 H 0.46408 0.30151 0.3282 0.0
H2990 H 0.43586 0.36782 0.36139 0.0
H2991 H 0.39715 0.36311 0.33958 0.0
H2992 H 0.42772 0.3105 0.2716 0.0
H2993 H 0.42369 0.27678 0.2691 0.0
H2994 H 0.4512 0.28944 0.2822 0.0
H2995 H 0.44383 0.26232 0.31769 0.0
H2996 H 0.41606 0.2501 0.3051 0.0
H2997 H 0.4157 0.26576 0.33212 0.0
H2998 H 0.35954 0.34497 0.3235 0.0
H2999 H 0.32598 0.31802 0.30897 0.0
H3000 H 0.3778 0.26374 0.28456 0.0
C3001 C 0.45014 0.31572 0.33006 0.0
C3002 C 0.45285 0.335 0.34645 0.0
C3003 C 0.43415 0.35299 0.34882 0.0
C3004 C 0.41211 0.35046 0.33649 0.0
C3005 C 0.40936 0.33015 0.32162 0.0
C3006 C 0.42806 0.31345 0.31783 0.0
C3007 C 0.41939 0.29139 0.30327 0.0
C3008 C 0.4312 0.29208 0.28017 0.0
C3009 C 0.42402 0.26591 0.31528 0.0
C3010 C 0.3925 0.29725 0.30102 0.0
C3011 C 0.38725 0.31991 0.31149 0.0
C3012 C 0.36347 0.3277 0.31457 0.0
C3013 C 0.34458 0.31214 0.30653 0.0
C3014 C 0.34956 0.289 0.29568 0.0
C3015 C 0.37375 0.28164 0.29244 0.0
H3016 H 0.42107 0.50193 0.38586 0.0
H3017 H 0.47166 0.46052 0.3453 0.0
H3018 H 0.4998 0.45636 0.37864 0.0
H3019 H 0.46456 0.53791 0.41686 0.0
H3020 H 0.44884 0.53666 0.44304 0.0
H3021 H 0.43193 0.53443 0.41655 0.0
H3022 H 0.41307 0.49288 0.42993 0.0
H3023 H 0.43076 0.49323 0.45613 0.0
H3024 H 0.43232 0.46648 0.43749 0.0
H3025 H 0.5228 0.45754 0.41659 0.0
H3026 H 0.53911 0.46503 0.45554 0.0
H3027 H 0.47445 0.50817 0.47001 0.0
C3028 C 0.43791 0.49166 0.38407 0.0
C3029 C 0.44414 0.48138 0.36304 0.0
C3030 C 0.4665 0.46842 0.36129 0.0
C3031 C 0.48258 0.46597 0.38013 0.0
C3032 C 0.47609 0.47674 0.40053 0.0
C3033 C 0.45427 0.48934 0.40259 0.0
C3034 C 0.45198 0.50005 0.42612 0.0
C3035 C 0.44918 0.52898 0.4256 0.0
C3036 C 0.43078 0.48742 0.43812 0.0
C3037 C 0.47627 0.49229 0.43674 0.0
C3038 C 0.48972 0.47837 0.42193 0.0
C3039 C 0.51246 0.46852 0.42829 0.0
C3040 C 0.52161 0.47292 0.45041 0.0
C3041 C 0.50821 0.48741 0.46574 0.0
C3042 C 0.48536 0.49737 0.45861 0.0
H3043 H 0.28415 0.63674 0.08368 0.0
H3044 H 0.26283 0.70016 0.04097 0.0
H3045 H 0.24979 0.72358 0.07447 0.0
H3046 H 0.23607 0.64169 0.12325 0.0
H3047 H 0.25526 0.6341 0.1476 0.0
H3048 H 0.26229 0.62173 0.12026 0.0
H3049 H 0.30548 0.64136 0.12379 0.0
H3050 H 0.2987 0.65339 0.15128 0.0
H3051 H 0.30877 0.67464 0.12972 0.0
H3052 H 0.23828 0.73971 0.11214 0.0
H3053 H 0.23443 0.75029 0.15238 0.0
H3054 H 0.26526 0.67747 0.1712 0.0
C3055 C 0.27681 0.65559 0.08143 0.0
C3056 C 0.27442 0.66665 0.05975 0.0
C3057 C 0.2649 0.6914 0.05745 0.0
C3058 C 0.25726 0.70475 0.07634 0.0
C3059 C 0.25947 0.69317 0.09743 0.0
C3060 C 0.2694 0.66935 0.10018 0.0
C3061 C 0.27096 0.66188 0.1249 0.0
C3062 C 0.2552 0.63846 0.12925 0.0
C3063 C 0.29756 0.65757 0.13289 0.0
C3064 C 0.26044 0.68528 0.13561 0.0
C3065 C 0.25359 0.70289 0.11938 0.0
C3066 C 0.24371 0.72615 0.12503 0.0
C3067 C 0.24162 0.73198 0.14792 0.0
C3068 C 0.24969 0.71479 0.16495 0.0
C3069 C 0.25862 0.69086 0.15861 0.0
H3070 H 0.10788 0.54462 0.87002 0.0
H3071 H 0.09744 0.46603 0.85107 0.0
H3072 H 0.07175 0.45965 0.88402 0.0
H3073 H 0.11128 0.53555 0.92969 0.0
H3074 H 0.09474 0.56393 0.93597 0.0
H3075 H 0.11205 0.56224 0.91079 0.0
H3076 H 0.07344 0.57367 0.88657 0.0
H3077 H 0.05598 0.57523 0.91169 0.0
H3078 H 0.04637 0.5547 0.88877 0.0
H3079 H 0.04999 0.46108 0.92073 0.0
H3080 H 0.03185 0.47092 0.95739 0.0
H3081 H 0.05342 0.54931 0.95056 0.0
C3082 C 0.10015 0.52609 0.87281 0.0
C3083 C 0.10472 0.50576 0.85809 0.0
C3084 C 0.09414 0.48185 0.86216 0.0
C3085 C 0.07953 0.47805 0.88081 0.0
C3086 C 0.07535 0.49848 0.89501 0.0
C3087 C 0.08516 0.52209 0.89111 0.0
C3088 C 0.07783 0.54089 0.90892 0.0
C3089 C 0.10031 0.55125 0.92212 0.0
C3090 C 0.06249 0.56239 0.89835 0.0
C3091 C 0.06266 0.52408 0.92363 0.0
C3092 C 0.0616 0.49963 0.91541 0.0
C3093 C 0.05027 0.48026 0.92709 0.0
C3094 C 0.04001 0.48599 0.94784 0.0
C3095 C 0.04075 0.51094 0.95642 0.0
C3096 C 0.05191 0.53025 0.94397 0.0
H3097 H 0.29321 0.37588 0.56711 0.0
H3098 H 0.35446 0.42689 0.57712 0.0
H3099 H 0.36702 0.40357 0.61191 0.0
H3100 H 0.27705 0.37392 0.62205 0.0
H3101 H 0.26797 0.34116 0.622 0.0
H3102 H 0.26657 0.35892 0.59615 0.0
H3103 H 0.29409 0.32586 0.5773 0.0
H3104 H 0.29547 0.30785 0.60314 0.0
H3105 H 0.32316 0.31797 0.59045 0.0
H3106 H 0.36926 0.37798 0.64826 0.0
H3107 H 0.36144 0.35235 0.6822 0.0
H3108 H 0.29784 0.31973 0.64779 0.0
C3109 C 0.30965 0.38179 0.57627 0.0
C3110 C 0.32293 0.4031 0.56947 0.0
C3111 C 0.34415 0.41044 0.58202 0.0
C3112 C 0.3514 0.39731 0.60176 0.0
C3113 C 0.33734 0.37681 0.60843 0.0
C3114 C 0.31703 0.36899 0.59587 0.0
C3115 C 0.30355 0.34812 0.60753 0.0
C3116 C 0.27725 0.35602 0.61221 0.0
C3117 C 0.30412 0.32349 0.59379 0.0
C3118 C 0.31887 0.346 0.62907 0.0
C3119 C 0.3385 0.36236 0.62924 0.0
C3120 C 0.35416 0.36483 0.64815 0.0
C3121 C 0.34945 0.35037 0.6674 0.0
C3122 C 0.32912 0.33387 0.66762 0.0
C3123 C 0.31393 0.33156 0.64803 0.0
H3124 H 0.42866 0.46951 0.23315 0.0
H3125 H 0.46443 0.53662 0.26047 0.0
H3126 H 0.49086 0.53782 0.22758 0.0
H3127 H 0.48242 0.44083 0.21071 0.0
H3128 H 0.46647 0.42853 0.18596 0.0
H3129 H 0.45063 0.43273 0.21179 0.0
H3130 H 0.41857 0.46072 0.19071 0.0
H3131 H 0.43426 0.45657 0.16481 0.0
H3132 H 0.42845 0.48794 0.17516 0.0
H3133 H 0.51221 0.53257 0.19124 0.0
H3134 H 0.52704 0.52171 0.15386 0.0
H3135 H 0.47858 0.4567 0.15078 0.0
C3136 C 0.44207 0.48446 0.23223 0.0
C3137 C 0.44451 0.50303 0.24933 0.0
C3138 C 0.46228 0.52223 0.24754 0.0
C3139 C 0.47738 0.52303 0.22896 0.0
C3140 C 0.47453 0.5044 0.21242 0.0
C3141 C 0.45735 0.48546 0.21388 0.0
C3142 C 0.45782 0.46791 0.19367 0.0
C3143 C 0.46475 0.4409 0.20098 0.0
C3144 C 0.43332 0.46832 0.1803 0.0
C3145 C 0.47778 0.48012 0.18047 0.0
C3146 C 0.4872 0.50109 0.19163 0.0
C3147 C 0.50522 0.51598 0.18248 0.0
C3148 C 0.51371 0.50945 0.16126 0.0
C3149 C 0.50433 0.48804 0.14934 0.0
C3150 C 0.4862 0.47315 0.15931 0.0
H3151 H 0.28235 0.691 0.94382 0.0
H3152 H 0.31615 0.62023 0.92567 0.0
H3153 H 0.32584 0.6381 0.88841 0.0
H3154 H 0.25375 0.70152 0.88951 0.0
H3155 H 0.25735 0.73538 0.89051 0.0
H3156 H 0.25499 0.71771 0.91631 0.0
H3157 H 0.29588 0.7369 0.93122 0.0
H3158 H 0.29845 0.75447 0.90535 0.0
H3159 H 0.32263 0.7336 0.91474 0.0
H3160 H 0.33178 0.66371 0.85322 0.0
H3161 H 0.32899 0.6929 0.82078 0.0
H3162 H 0.28867 0.74607 0.8608 0.0
C3163 C 0.29201 0.6794 0.93205 0.0
C3164 C 0.29879 0.65435 0.93762 0.0
C3165 C 0.31089 0.63949 0.92167 0.0
C3166 C 0.31658 0.64953 0.90056 0.0
C3167 C 0.30969 0.67433 0.89557 0.0
C3168 C 0.29733 0.68894 0.91071 0.0
C3169 C 0.29027 0.71428 0.90049 0.0
C3170 C 0.26244 0.71739 0.89912 0.0
C3171 C 0.30255 0.7361 0.91374 0.0
C3172 C 0.30056 0.71165 0.87722 0.0
C3173 C 0.31206 0.68864 0.87488 0.0
C3174 C 0.32281 0.68178 0.85485 0.0
C3175 C 0.32123 0.69858 0.83654 0.0
C3176 C 0.30864 0.72183 0.83821 0.0
C3177 C 0.29851 0.72852 0.85899 0.0
H3178 H 0.12261 0.51325 0.72374 0.0
H3179 H 0.07177 0.54963 0.76758 0.0
H3180 H 0.04607 0.56181 0.73412 0.0
H3181 H 0.11945 0.5601 0.68046 0.0
H3182 H 0.12207 0.53773 0.65773 0.0
H3183 H 0.13562 0.53085 0.68516 0.0
H3184 H 0.11149 0.48875 0.68652 0.0
H3185 H 0.09806 0.49538 0.659 0.0
H3186 H 0.07885 0.4892 0.6824 0.0
H3187 H 0.02563 0.56916 0.69535 0.0
H3188 H 0.01312 0.5722 0.65473 0.0
H3189 H 0.07907 0.53328 0.63708 0.0
C3190 C 0.10592 0.52353 0.72633 0.0
C3191 C 0.09898 0.5303 0.7482 0.0
C3192 C 0.07728 0.54416 0.75091 0.0
C3193 C 0.06263 0.55116 0.73203 0.0
C3194 C 0.07015 0.54441 0.71062 0.0
C3195 C 0.09137 0.531 0.70773 0.0
C3196 C 0.09594 0.52673 0.68301 0.0
C3197 C 0.11967 0.53963 0.6762 0.0
C3198 C 0.09608 0.49833 0.67741 0.0
C3199 C 0.07392 0.53972 0.6724 0.0
C3200 C 0.05911 0.54967 0.68852 0.0
C3201 C 0.03722 0.56166 0.68258 0.0
C3202 C 0.03027 0.56334 0.65956 0.0
C3203 C 0.04538 0.55342 0.64289 0.0
C3204 C 0.06749 0.54163 0.64948 0.0
H3205 H 0.29892 0.37313 0.47406 0.0
H3206 H 0.26927 0.43928 0.43961 0.0
H3207 H 0.2577 0.4129 0.40656 0.0
H3208 H 0.32291 0.34261 0.42445 0.0
H3209 H 0.315 0.31131 0.43376 0.0
H3210 H 0.32203 0.33568 0.45421 0.0
H3211 H 0.28044 0.32803 0.47232 0.0
H3212 H 0.27313 0.30389 0.45173 0.0
H3213 H 0.25287 0.33027 0.45505 0.0
H3214 H 0.24846 0.37966 0.37803 0.0
H3215 H 0.24408 0.34183 0.35428 0.0
H3216 H 0.27828 0.2965 0.40771 0.0
C3217 C 0.29034 0.38212 0.45941 0.0
C3218 C 0.28506 0.40823 0.45927 0.0
C3219 C 0.27354 0.4193 0.43996 0.0
C3220 C 0.26684 0.40448 0.42118 0.0
C3221 C 0.27176 0.37869 0.42208 0.0
C3222 C 0.2834 0.36758 0.44058 0.0
C3223 C 0.28612 0.33934 0.43731 0.0
C3224 C 0.31312 0.3318 0.43743 0.0
C3225 C 0.27232 0.32452 0.45517 0.0
C3226 C 0.27415 0.33633 0.41406 0.0
C3227 C 0.26597 0.35928 0.40567 0.0
C3228 C 0.25461 0.36153 0.38445 0.0
C3229 C 0.25192 0.33978 0.37121 0.0
C3230 C 0.26043 0.316 0.37927 0.0
C3231 C 0.2715 0.31433 0.40111 0.0
H3232 H 0.34382 0.51002 0.48365 0.0
H3233 H 0.30772 0.53404 0.54371 0.0
H3234 H 0.33502 0.5708 0.54707 0.0
H3235 H 0.39797 0.51589 0.50108 0.0
H3236 H 0.41183 0.52853 0.47634 0.0
H3237 H 0.38421 0.51099 0.4733 0.0
H3238 H 0.36378 0.54872 0.45234 0.0
H3239 H 0.39173 0.56648 0.45546 0.0
H3240 H 0.36378 0.57953 0.46534 0.0
H3241 H 0.37338 0.59277 0.55256 0.0
H3242 H 0.41767 0.59695 0.55893 0.0
H3243 H 0.42897 0.56339 0.49363 0.0
C3244 C 0.34106 0.52377 0.49684 0.0
C3245 C 0.32399 0.51922 0.51351 0.0
C3246 C 0.32077 0.53725 0.53073 0.0
C3247 C 0.33608 0.55835 0.53264 0.0
C3248 C 0.35406 0.56148 0.51685 0.0
C3249 C 0.35615 0.54502 0.49881 0.0
C3250 C 0.37956 0.54947 0.48676 0.0
C3251 C 0.39423 0.52477 0.48431 0.0
C3252 C 0.37439 0.5618 0.46361 0.0
C3253 C 0.39196 0.56801 0.50292 0.0
C3254 C 0.37652 0.57572 0.51958 0.0
C3255 C 0.38538 0.58786 0.53916 0.0
C3256 C 0.4106 0.59022 0.54271 0.0
C3257 C 0.42654 0.58062 0.52666 0.0
C3258 C 0.41702 0.57156 0.50579 0.0
H3259 H 0.84367 0.07449 0.52801 0.0
H3260 H 0.83717 0.08548 0.45543 0.0
H3261 H 0.87758 0.06623 0.45128 0.0
H3262 H 0.90602 0.08883 0.53467 0.0
H3263 H 0.91264 0.06499 0.55574 0.0
H3264 H 0.88257 0.07826 0.55299 0.0
H3265 H 0.86429 0.03339 0.54757 0.0
H3266 H 0.89434 0.01997 0.55037 0.0
H3267 H 0.87534 0.01322 0.52567 0.0
H3268 H 0.92009 0.05019 0.45533 0.0
H3269 H 0.96107 0.03495 0.4671 0.0
H3270 H 0.93921 0.0314 0.53665 0.0
C3271 C 0.85066 0.07254 0.51124 0.0
C3272 C 0.83735 0.08148 0.49203 0.0
C3273 C 0.84704 0.07866 0.47036 0.0
C3274 C 0.86998 0.06778 0.46783 0.0
C3275 C 0.88279 0.05946 0.4871 0.0
C3276 C 0.87339 0.06135 0.50837 0.0
C3277 C 0.89117 0.05131 0.52632 0.0
C3278 C 0.89853 0.07209 0.54343 0.0
C3279 C 0.88066 0.02809 0.53818 0.0
C3280 C 0.91224 0.04408 0.51187 0.0
C3281 C 0.90703 0.04904 0.4893 0.0
C3282 C 0.92425 0.04575 0.47288 0.0
C3283 C 0.94745 0.03721 0.47971 0.0
C3284 C 0.95306 0.03173 0.50268 0.0
C3285 C 0.93514 0.03494 0.51891 0.0
H3286 H 0.71913 0.07548 0.30041 0.0
H3287 H 0.647 0.09869 0.31928 0.0
H3288 H 0.65882 0.14343 0.31499 0.0
H3289 H 0.75232 0.12842 0.32809 0.0
H3290 H 0.77378 0.13075 0.3059 0.0
H3291 H 0.76026 0.10067 0.31233 0.0
H3292 H 0.74516 0.09627 0.27056 0.0
H3293 H 0.75833 0.12646 0.26404 0.0
H3294 H 0.72645 0.12079 0.25791 0.0
H3295 H 0.67765 0.18552 0.30653 0.0
H3296 H 0.70288 0.22215 0.29629 0.0
H3297 H 0.76253 0.17155 0.28216 0.0
C3298 C 0.706 0.08999 0.30409 0.0
C3299 C 0.68218 0.08361 0.3103 0.0
C3300 C 0.66539 0.10314 0.31462 0.0
C3301 C 0.67191 0.12861 0.31217 0.0
C3302 C 0.69531 0.13426 0.30543 0.0
C3303 C 0.71219 0.11554 0.30166 0.0
C3304 C 0.73586 0.1267 0.29383 0.0
C3305 C 0.75679 0.12132 0.31106 0.0
C3306 C 0.74178 0.11697 0.27018 0.0
C3307 C 0.72945 0.15454 0.29332 0.0
C3308 C 0.70605 0.15851 0.30023 0.0
C3309 C 0.69604 0.18266 0.30117 0.0
C3310 C 0.71049 0.20333 0.29522 0.0
C3311 C 0.73462 0.19974 0.28826 0.0
C3312 C 0.74407 0.17494 0.28716 0.0
H3313 H 0.70548 0.93874 0.98857 0.0
H3314 H 0.73041 0.96017 0.05621 0.0
H3315 H 0.69392 0.98672 0.05999 0.0
H3316 H 0.67601 0.99876 0.97244 0.0
H3317 H 0.65075 0.98332 0.95791 0.0
H3318 H 0.68024 0.96845 0.95926 0.0
H3319 H 0.6615 0.92835 0.97696 0.0
H3320 H 0.632 0.94297 0.97536 0.0
H3321 H 0.64415 0.93139 0.00206 0.0
H3322 H 0.65462 0.0091 0.05722 0.0
H3323 H 0.6118 0.02104 0.05062 0.0
H3324 H 0.61109 0.9833 0.98543 0.0
C3325 C 0.70329 0.94928 0.00404 0.0
C3326 C 0.72061 0.94767 0.02207 0.0
C3327 C 0.71715 0.96121 0.04227 0.0
C3328 C 0.6967 0.97653 0.04446 0.0
C3329 C 0.67992 0.97784 0.02634 0.0
C3330 C 0.68275 0.96429 0.00666 0.0
C3331 C 0.66072 0.96679 0.99081 0.0
C3332 C 0.66734 0.98013 0.9688 0.0
C3333 C 0.6489 0.94084 0.98603 0.0
C3334 C 0.64482 0.98333 0.00493 0.0
C3335 C 0.65655 0.99002 0.02509 0.0
C3336 C 0.64524 0.00416 0.04145 0.0
C3337 C 0.62091 0.01085 0.03751 0.0
C3338 C 0.60811 0.00296 0.01754 0.0
C3339 C 0.62047 0.98974 0.00076 0.0
H3340 H 0.36385 0.42607 0.26925 0.0
H3341 H 0.32263 0.45851 0.32313 0.0
H3342 H 0.2907 0.42595 0.3167 0.0
H3343 H 0.31035 0.40816 0.23239 0.0
H3344 H 0.32491 0.37963 0.22321 0.0
H3345 H 0.34298 0.40709 0.23054 0.0
H3346 H 0.36842 0.38039 0.25907 0.0
H3347 H 0.35042 0.35277 0.25257 0.0
H3348 H 0.35346 0.36396 0.28126 0.0
H3349 H 0.26636 0.38661 0.30767 0.0
H3350 H 0.25213 0.34368 0.2973 0.0
H3351 H 0.30789 0.33886 0.24757 0.0
C3352 C 0.34795 0.42651 0.27952 0.0
C3353 C 0.34568 0.44466 0.29675 0.0
C3354 C 0.32465 0.44471 0.30982 0.0
C3355 C 0.30639 0.4264 0.3062 0.0
C3356 C 0.30925 0.40862 0.2891 0.0
C3357 C 0.32942 0.40873 0.27583 0.0
C3358 C 0.329 0.38671 0.25953 0.0
C3359 C 0.32666 0.39596 0.23496 0.0
C3360 C 0.35165 0.36995 0.26333 0.0
C3361 C 0.30603 0.37344 0.26642 0.0
C3362 C 0.29469 0.38652 0.2833 0.0
C3363 C 0.27468 0.37654 0.29405 0.0
C3364 C 0.26663 0.35219 0.28798 0.0
C3365 C 0.27854 0.33819 0.27127 0.0
C3366 C 0.29785 0.34944 0.2598 0.0
H3367 H 0.21367 0.56541 0.00875 0.0
H3368 H 0.19883 0.64304 0.98878 0.0
H3369 H 0.15533 0.63646 0.99494 0.0
H3370 H 0.15765 0.53893 0.98223 0.0
H3371 H 0.1536 0.51616 0.00442 0.0
H3372 H 0.18374 0.52658 0.99784 0.0
H3373 H 0.19142 0.53984 0.0396 0.0
H3374 H 0.16117 0.52982 0.04621 0.0
H3375 H 0.1709 0.56171 0.05237 0.0
H3376 H 0.11445 0.62307 0.00528 0.0
H3377 H 0.07652 0.60191 0.01492 0.0
H3378 H 0.11608 0.53184 0.02706 0.0
C3379 C 0.20117 0.58087 0.00538 0.0
C3380 C 0.20967 0.60477 0.9983 0.0
C3381 C 0.19279 0.62457 0.99417 0.0
C3382 C 0.16803 0.62107 0.99771 0.0
C3383 C 0.16031 0.59757 0.0052 0.0
C3384 C 0.17618 0.57762 0.00864 0.0
C3385 C 0.16272 0.55427 0.01648 0.0
C3386 C 0.16453 0.53271 0.99921 0.0
C3387 C 0.17212 0.54593 0.04007 0.0
C3388 C 0.13693 0.56442 0.01713 0.0
C3389 C 0.13617 0.58951 0.0107 0.0
C3390 C 0.11472 0.60336 0.01016 0.0
C3391 C 0.09325 0.59111 0.01578 0.0
C3392 C 0.09322 0.56513 0.02171 0.0
C3393 C 0.11549 0.55171 0.02269 0.0
H3394 H 0.69602 0.92721 0.32654 0.0
H3395 H 0.71626 0.96343 0.26432 0.0
H3396 H 0.74456 0.92845 0.25689 0.0
H3397 H 0.7556 0.89775 0.3416 0.0
H3398 H 0.74205 0.8688 0.35119 0.0
H3399 H 0.7259 0.89825 0.35352 0.0
H3400 H 0.68911 0.87919 0.33086 0.0
H3401 H 0.70511 0.84971 0.32854 0.0
H3402 H 0.69369 0.8656 0.30343 0.0
H3403 H 0.76876 0.88943 0.25501 0.0
H3404 H 0.78447 0.84606 0.25618 0.0
H3405 H 0.74682 0.8323 0.31827 0.0
C3406 C 0.70688 0.92788 0.31165 0.0
C3407 C 0.70444 0.94808 0.29613 0.0
C3408 C 0.71817 0.94814 0.27643 0.0
C3409 C 0.73433 0.92846 0.27216 0.0
C3410 C 0.73625 0.90864 0.2876 0.0
C3411 C 0.72271 0.90793 0.30681 0.0
C3412 C 0.72633 0.88297 0.31919 0.0
C3413 C 0.73818 0.8872 0.34278 0.0
C3414 C 0.70212 0.86852 0.32057 0.0
C3415 C 0.74366 0.86968 0.30371 0.0
C3416 C 0.74946 0.88516 0.28589 0.0
C3417 C 0.76445 0.87713 0.26891 0.0
C3418 C 0.77327 0.85237 0.26975 0.0
C3419 C 0.76688 0.83565 0.2873 0.0
C3420 C 0.75225 0.84466 0.30477 0.0
H3421 H 0.84427 0.06261 0.77555 0.0
H3422 H 0.90085 0.07911 0.82633 0.0
H3423 H 0.883 0.12132 0.83226 0.0
H3424 H 0.84396 0.12513 0.75106 0.0
H3425 H 0.81163 0.12528 0.74492 0.0
H3426 H 0.82801 0.09584 0.74561 0.0
H3427 H 0.79877 0.07854 0.7753 0.0
H3428 H 0.78245 0.10805 0.77487 0.0
H3429 H 0.795 0.0958 0.80118 0.0
H3430 H 0.85855 0.1608 0.8336 0.0
H3431 H 0.83281 0.1981 0.82642 0.0
H3432 H 0.79372 0.15788 0.77241 0.0
C3433 C 0.85281 0.07516 0.78793 0.0
C3434 C 0.87381 0.06768 0.80063 0.0
C3435 C 0.88478 0.08461 0.81643 0.0
C3436 C 0.87468 0.1085 0.82002 0.0
C3437 C 0.85386 0.11528 0.80738 0.0
C3438 C 0.8433 0.09937 0.79132 0.0
C3439 C 0.82198 0.11208 0.77897 0.0
C3440 C 0.82669 0.11475 0.75364 0.0
C3441 C 0.79814 0.09776 0.78282 0.0
C3442 C 0.82221 0.13759 0.79066 0.0
C3443 C 0.84048 0.13878 0.80726 0.0
C3444 C 0.84426 0.16018 0.82056 0.0
C3445 C 0.82942 0.18124 0.81641 0.0
C3446 C 0.81124 0.18097 0.79881 0.0
C3447 C 0.80743 0.15867 0.78598 0.0
loop_
_geom_bond_atom_site_label_1
_geom_bond_atom_site_label_2
_geom_bond_distance
_geom_bond_site_symmetry_2
_ccdc_geom_bond_type
In0 O1 2.294 . S
In0 O2 2.326 . S
In0 O6 2.266 . S
In0 O7 2.326 . S
In0 O8 2.266 . S
In0 O9 2.326 . S
In0 O11 2.294 . S
In0 O12 2.326 . S
O1 In0 2.294 . S
O1 C10 1.240 . S
O2 In0 2.326 . S
O2 C10 1.252 . S
C3 O6 1.252 . S
C3 O7 1.260 . S
C4 O11 1.240 . S
C4 O12 1.252 . S
C5 O8 1.252 . S
C5 O9 1.260 . S
O6 In0 2.266 . S
O6 C3 1.252 . S
O7 In0 2.326 . S
O7 C3 1.260 . S
O8 In0 2.266 . S
O8 C5 1.252 . S
O9 In0 2.326 . S
O9 C5 1.260 . S
C10 O1 1.240 . S
C10 O2 1.252 . S
O11 In0 2.294 . S
O11 C4 1.240 . S
O12 In0 2.326 . S
O12 C4 1.252 . S
In13 O14 2.294 . S
In13 O15 2.326 . S
In13 O19 2.266 . S
In13 O20 2.326 1_455 S
In13 O21 2.266 . S
In13 O22 2.326 . S
In13 O24 2.294 . S
In13 O25 2.326 . S
O14 In13 2.294 . S
O14 C23 1.240 . S
O15 In13 2.326 . S
O15 C23 1.252 . S
C16 O19 1.252 1_655 S
C16 O20 1.260 . S
C17 O24 1.240 . S
C17 O25 1.252 . S
C18 O21 1.252 . S
C18 O22 1.260 . S
O19 In13 2.266 . S
O19 C16 1.252 1_455 S
O20 In13 2.326 1_655 S
O20 C16 1.260 . S
O21 In13 2.266 . S
O21 C18 1.252 . S
O22 In13 2.326 . S
O22 C18 1.260 . S
C23 O14 1.240 . S
C23 O15 1.252 . S
O24 In13 2.294 . S
O24 C17 1.240 . S
O25 In13 2.326 . S
O25 C17 1.252 . S
In26 O27 2.294 . S
In26 O28 2.326 . S
In26 O32 2.266 . S
In26 O33 2.326 . S
In26 O34 2.266 . S
In26 O35 2.326 . S
In26 O37 2.294 . S
In26 O38 2.326 . S
O27 In26 2.294 . S
O27 C36 1.240 . S
O28 In26 2.326 . S
O28 C36 1.252 . S
C29 O32 1.252 . S
C29 O33 1.260 . S
C30 O37 1.240 . S
C30 O38 1.252 . S
C31 O34 1.252 . S
C31 O35 1.260 . S
O32 In26 2.266 . S
O32 C29 1.252 . S
O33 In26 2.326 . S
O33 C29 1.260 . S
O34 In26 2.266 . S
O34 C31 1.252 . S
O35 In26 2.326 . S
O35 C31 1.260 . S
C36 O27 1.240 . S
C36 O28 1.252 . S
O37 In26 2.294 . S
O37 C30 1.240 . S
O38 In26 2.326 . S
O38 C30 1.252 . S
In39 O40 2.294 . S
In39 O41 2.326 . S
In39 O45 2.266 . S
In39 O46 2.326 . S
In39 O47 2.266 . S
In39 O48 2.326 . S
In39 O50 2.294 . S
In39 O51 2.326 . S
O40 In39 2.294 . S
O40 C49 1.240 . S
O41 In39 2.326 . S
O41 C49 1.252 . S
C42 O45 1.252 . S
C42 O46 1.260 . S
C43 O50 1.240 . S
C43 O51 1.252 . S
C44 O47 1.252 . S
C44 O48 1.260 . S
O45 In39 2.266 . S
O45 C42 1.252 . S
O46 In39 2.326 . S
O46 C42 1.260 . S
O47 In39 2.266 . S
O47 C44 1.252 . S
O48 In39 2.326 . S
O48 C44 1.260 . S
C49 O40 1.240 . S
C49 O41 1.252 . S
O50 In39 2.294 . S
O50 C43 1.240 . S
O51 In39 2.326 . S
O51 C43 1.252 . S
In52 O53 2.294 1_545 S
In52 O54 2.326 1_545 S
In52 O58 2.266 . S
In52 O59 2.326 . S
In52 O60 2.266 . S
In52 O61 2.326 . S
In52 O63 2.294 . S
In52 O64 2.326 . S
O53 In52 2.294 1_565 S
O53 C62 1.240 . S
O54 In52 2.326 1_565 S
O54 C62 1.252 . S
C55 O58 1.252 . S
C55 O59 1.260 . S
C56 O63 1.240 . S
C56 O64 1.252 . S
C57 O60 1.252 . S
C57 O61 1.260 . S
O58 In52 2.266 . S
O58 C55 1.252 . S
O59 In52 2.326 . S
O59 C55 1.260 . S
O60 In52 2.266 . S
O60 C57 1.252 . S
O61 In52 2.326 . S
O61 C57 1.260 . S
C62 O53 1.240 . S
C62 O54 1.252 . S
O63 In52 2.294 . S
O63 C56 1.240 . S
O64 In52 2.326 . S
O64 C56 1.252 . S
In65 O66 2.294 . S
In65 O67 2.326 . S
In65 O71 2.266 . S
In65 O72 2.326 . S
In65 O73 2.266 . S
In65 O74 2.326 . S
In65 O76 2.294 . S
In65 O77 2.326 . S
O66 In65 2.294 . S
O66 C75 1.240 . S
O67 In65 2.326 . S
O67 C75 1.252 . S
C68 O71 1.252 . S
C68 O72 1.260 . S
C69 O76 1.240 . S
C69 O77 1.252 . S
C70 O73 1.252 . S
C70 O74 1.260 . S
O71 In65 2.266 . S
O71 C68 1.252 . S
O72 In65 2.326 . S
O72 C68 1.260 . S
O73 In65 2.266 . S
O73 C70 1.252 . S
O74 In65 2.326 . S
O74 C70 1.260 . S
C75 O66 1.240 . S
C75 O67 1.252 . S
O76 In65 2.294 . S
O76 C69 1.240 . S
O77 In65 2.326 . S
O77 C69 1.252 . S
In78 O79 2.294 . S
In78 O80 2.326 . S
In78 O84 2.266 1_545 S
In78 O85 2.326 1_545 S
In78 O86 2.266 . S
In78 O87 2.326 . S
In78 O89 2.294 . S
In78 O90 2.326 . S
O79 In78 2.294 . S
O79 C88 1.240 . S
O80 In78 2.326 . S
O80 C88 1.252 . S
C81 O84 1.252 . S
C81 O85 1.260 . S
C82 O89 1.240 . S
C82 O90 1.252 . S
C83 O86 1.252 . S
C83 O87 1.260 . S
O84 In78 2.266 1_565 S
O84 C81 1.252 . S
O85 In78 2.326 1_565 S
O85 C81 1.260 . S
O86 In78 2.266 . S
O86 C83 1.252 . S
O87 In78 2.326 . S
O87 C83 1.260 . S
C88 O79 1.240 . S
C88 O80 1.252 . S
O89 In78 2.294 . S
O89 C82 1.240 . S
O90 In78 2.326 . S
O90 C82 1.252 . S
In91 O92 2.294 . S
In91 O93 2.326 . S
In91 O97 2.266 . S
In91 O98 2.326 . S
In91 O99 2.266 . S
In91 O100 2.326 1_554 S
In91 O102 2.294 . S
In91 O103 2.326 . S
O92 In91 2.294 . S
O92 C101 1.240 . S
O93 In91 2.326 . S
O93 C101 1.252 . S
C94 O97 1.252 . S
C94 O98 1.260 . S
C95 O102 1.240 . S
C95 O103 1.252 . S
C96 O99 1.252 1_556 S
C96 O100 1.260 . S
O97 In91 2.266 . S
O97 C94 1.252 . S
O98 In91 2.326 . S
O98 C94 1.260 . S
O99 In91 2.266 . S
O99 C96 1.252 1_554 S
O100 In91 2.326 1_556 S
O100 C96 1.260 . S
C101 O92 1.240 . S
C101 O93 1.252 . S
O102 In91 2.294 . S
O102 C95 1.240 . S
O103 In91 2.326 . S
O103 C95 1.252 . S
In104 O105 2.294 . S
In104 O106 2.326 . S
In104 O110 2.266 . S
In104 O111 2.326 . S
In104 O112 2.266 . S
In104 O113 2.326 . S
In104 O115 2.294 . S
In104 O116 2.326 . S
O105 In104 2.294 . S
O105 C114 1.240 . S
O106 In104 2.326 . S
O106 C114 1.252 . S
C107 O110 1.252 . S
C107 O111 1.260 . S
C108 O115 1.240 . S
C108 O116 1.252 . S
C109 O112 1.252 . S
C109 O113 1.260 . S
O110 In104 2.266 . S
O110 C107 1.252 . S
O111 In104 2.326 . S
O111 C107 1.260 . S
O112 In104 2.266 . S
O112 C109 1.252 . S
O113 In104 2.326 . S
O113 C109 1.260 . S
C114 O105 1.240 . S
C114 O106 1.252 . S
O115 In104 2.294 . S
O115 C108 1.240 . S
O116 In104 2.326 . S
O116 C108 1.252 . S
In117 O118 2.294 . S
In117 O119 2.326 . S
In117 O123 2.266 . S
In117 O124 2.326 . S
In117 O125 2.266 . S
In117 O126 2.326 . S
In117 O128 2.294 . S
In117 O129 2.326 . S
O118 In117 2.294 . S
O118 C127 1.240 . S
O119 In117 2.326 . S
O119 C127 1.252 . S
C120 O123 1.252 . S
C120 O124 1.260 . S
C121 O128 1.240 . S
C121 O129 1.252 . S
C122 O125 1.252 . S
C122 O126 1.260 . S
O123 In117 2.266 . S
O123 C120 1.252 . S
O124 In117 2.326 . S
O124 C120 1.260 . S
O125 In117 2.266 . S
O125 C122 1.252 . S
O126 In117 2.326 . S
O126 C122 1.260 . S
C127 O118 1.240 . S
C127 O119 1.252 . S
O128 In117 2.294 . S
O128 C121 1.240 . S
O129 In117 2.326 . S
O129 C121 1.252 . S
In130 O131 2.294 . S
In130 O132 2.326 . S
In130 O136 2.266 . S
In130 O137 2.326 . S
In130 O138 2.266 . S
In130 O139 2.326 . S
In130 O141 2.294 . S
In130 O142 2.326 . S
O131 In130 2.294 . S
O131 C140 1.240 . S
O132 In130 2.326 . S
O132 C140 1.252 . S
C133 O136 1.252 . S
C133 O137 1.260 . S
C134 O141 1.240 . S
C134 O142 1.252 . S
C135 O138 1.252 . S
C135 O139 1.260 . S
O136 In130 2.266 . S
O136 C133 1.252 . S
O137 In130 2.326 . S
O137 C133 1.260 . S
O138 In130 2.266 . S
O138 C135 1.252 . S
O139 In130 2.326 . S
O139 C135 1.260 . S
C140 O131 1.240 . S
C140 O132 1.252 . S
O141 In130 2.294 . S
O141 C134 1.240 . S
O142 In130 2.326 . S
O142 C134 1.252 . S
In143 O144 2.294 . S
In143 O145 2.326 . S
In143 O149 2.266 . S
In143 O150 2.326 . S
In143 O151 2.266 . S
In143 O152 2.326 . S
In143 O154 2.294 . S
In143 O155 2.326 . S
O144 In143 2.294 . S
O144 C153 1.240 . S
O145 In143 2.326 . S
O145 C153 1.252 . S
C146 O149 1.252 . S
C146 O150 1.260 . S
C147 O154 1.240 . S
C147 O155 1.252 . S
C148 O151 1.252 . S
C148 O152 1.260 . S
O149 In143 2.266 . S
O149 C146 1.252 . S
O150 In143 2.326 . S
O150 C146 1.260 . S
O151 In143 2.266 . S
O151 C148 1.252 . S
O152 In143 2.326 . S
O152 C148 1.260 . S
C153 O144 1.240 . S
C153 O145 1.252 . S
O154 In143 2.294 . S
O154 C147 1.240 . S
O155 In143 2.326 . S
O155 C147 1.252 . S
In156 O157 2.296 . S
In156 O158 2.330 . S
In156 O162 2.264 1_455 S
In156 O163 2.322 1_455 S
In156 O164 2.266 1_455 S
In156 O165 2.325 1_455 S
In156 O167 2.294 . S
In156 O168 2.327 . S
O157 In156 2.296 . S
O157 C166 1.240 . S
O158 In156 2.330 . S
O158 C166 1.252 . S
C159 O162 1.252 . S
C159 O163 1.260 . S
C160 O167 1.240 . S
C160 O168 1.252 . S
C161 O164 1.252 . S
C161 O165 1.260 . S
O162 In156 2.264 1_655 S
O162 C159 1.252 . S
O163 In156 2.322 1_655 S
O163 C159 1.260 . S
O164 In156 2.266 1_655 S
O164 C161 1.252 . S
O165 In156 2.325 1_655 S
O165 C161 1.260 . S
C166 O157 1.240 . S
C166 O158 1.252 . S
O167 In156 2.294 . S
O167 C160 1.240 . S
O168 In156 2.327 . S
O168 C160 1.252 . S
In169 O170 2.294 . S
In169 O171 2.326 . S
In169 O175 2.266 . S
In169 O176 2.326 . S
In169 O177 2.266 . S
In169 O178 2.326 1_455 S
In169 O180 2.294 . S
In169 O181 2.326 . S
O170 In169 2.294 . S
O170 C179 1.240 . S
O171 In169 2.326 . S
O171 C179 1.252 . S
C172 O175 1.252 . S
C172 O176 1.260 . S
C173 O180 1.240 . S
C173 O181 1.252 . S
C174 O177 1.252 1_655 S
C174 O178 1.260 . S
O175 In169 2.266 . S
O175 C172 1.252 . S
O176 In169 2.326 . S
O176 C172 1.260 . S
O177 In169 2.266 . S
O177 C174 1.252 1_455 S
O178 In169 2.326 1_655 S
O178 C174 1.260 . S
C179 O170 1.240 . S
C179 O171 1.252 . S
O180 In169 2.294 . S
O180 C173 1.240 . S
O181 In169 2.326 . S
O181 C173 1.252 . S
In182 O183 2.294 . S
In182 O184 2.326 . S
In182 O188 2.266 . S
In182 O189 2.326 . S
In182 O190 2.266 . S
In182 O191 2.326 . S
In182 O193 2.294 . S
In182 O194 2.326 . S
O183 In182 2.294 . S
O183 C192 1.240 . S
O184 In182 2.326 . S
O184 C192 1.252 . S
C185 O188 1.252 . S
C185 O189 1.260 . S
C186 O193 1.240 . S
C186 O194 1.252 . S
C187 O190 1.252 . S
C187 O191 1.260 . S
O188 In182 2.266 . S
O188 C185 1.252 . S
O189 In182 2.326 . S
O189 C185 1.260 . S
O190 In182 2.266 . S
O190 C187 1.252 . S
O191 In182 2.326 . S
O191 C187 1.260 . S
C192 O183 1.240 . S
C192 O184 1.252 . S
O193 In182 2.294 . S
O193 C186 1.240 . S
O194 In182 2.326 . S
O194 C186 1.252 . S
In195 O196 2.294 . S
In195 O197 2.326 . S
In195 O201 2.266 . S
In195 O202 2.326 . S
In195 O203 2.266 . S
In195 O204 2.326 . S
In195 O206 2.294 . S
In195 O207 2.326 . S
O196 In195 2.294 . S
O196 C205 1.240 . S
O197 In195 2.326 . S
O197 C205 1.252 . S
C198 O201 1.252 . S
C198 O202 1.260 . S
C199 O206 1.240 . S
C199 O207 1.252 . S
C200 O203 1.252 . S
C200 O204 1.260 . S
O201 In195 2.266 . S
O201 C198 1.252 . S
O202 In195 2.326 . S
O202 C198 1.260 . S
O203 In195 2.266 . S
O203 C200 1.252 . S
O204 In195 2.326 . S
O204 C200 1.260 . S
C205 O196 1.240 . S
C205 O197 1.252 . S
O206 In195 2.294 . S
O206 C199 1.240 . S
O207 In195 2.326 . S
O207 C199 1.252 . S
In208 O209 2.294 . S
In208 O210 2.326 . S
In208 O214 2.266 1_545 S
In208 O215 2.326 . S
In208 O216 2.266 1_545 S
In208 O217 2.326 1_545 S
In208 O219 2.294 . S
In208 O220 2.326 . S
O209 In208 2.294 . S
O209 C218 1.240 . S
O210 In208 2.326 . S
O210 C218 1.252 . S
C211 O214 1.252 . S
C211 O215 1.260 1_565 S
C212 O219 1.240 . S
C212 O220 1.252 . S
C213 O216 1.252 . S
C213 O217 1.260 . S
O214 In208 2.266 1_565 S
O214 C211 1.252 . S
O215 In208 2.326 . S
O215 C211 1.260 1_545 S
O216 In208 2.266 1_565 S
O216 C213 1.252 . S
O217 In208 2.326 1_565 S
O217 C213 1.260 . S
C218 O209 1.240 . S
C218 O210 1.252 . S
O219 In208 2.294 . S
O219 C212 1.240 . S
O220 In208 2.326 . S
O220 C212 1.252 . S
In221 O222 2.294 . S
In221 O223 2.326 . S
In221 O227 2.266 . S
In221 O228 2.326 . S
In221 O229 2.266 . S
In221 O230 2.326 . S
In221 O232 2.294 . S
In221 O233 2.326 . S
O222 In221 2.294 . S
O222 C231 1.240 . S
O223 In221 2.326 . S
O223 C231 1.252 . S
C224 O227 1.252 . S
C224 O228 1.260 . S
C225 O232 1.240 . S
C225 O233 1.252 . S
C226 O229 1.252 . S
C226 O230 1.260 . S
O227 In221 2.266 . S
O227 C224 1.252 . S
O228 In221 2.326 . S
O228 C224 1.260 . S
O229 In221 2.266 . S
O229 C226 1.252 . S
O230 In221 2.326 . S
O230 C226 1.260 . S
C231 O222 1.240 . S
C231 O223 1.252 . S
O232 In221 2.294 . S
O232 C225 1.240 . S
O233 In221 2.326 . S
O233 C225 1.252 . S
In234 O235 2.294 1_545 S
In234 O236 2.326 1_545 S
In234 O240 2.266 . S
In234 O241 2.326 . S
In234 O242 2.266 . S
In234 O243 2.326 . S
In234 O245 2.294 . S
In234 O246 2.326 . S
O235 In234 2.294 1_565 S
O235 C244 1.240 . S
O236 In234 2.326 1_565 S
O236 C244 1.252 . S
C237 O240 1.252 . S
C237 O241 1.260 . S
C238 O245 1.240 . S
C238 O246 1.252 . S
C239 O242 1.252 . S
C239 O243 1.260 . S
O240 In234 2.266 . S
O240 C237 1.252 . S
O241 In234 2.326 . S
O241 C237 1.260 . S
O242 In234 2.266 . S
O242 C239 1.252 . S
O243 In234 2.326 . S
O243 C239 1.260 . S
C244 O235 1.240 . S
C244 O236 1.252 . S
O245 In234 2.294 . S
O245 C238 1.240 . S
O246 In234 2.326 . S
O246 C238 1.252 . S
In247 O248 2.294 . S
In247 O249 2.326 . S
In247 O253 2.266 . S
In247 O254 2.326 . S
In247 O255 2.266 . S
In247 O256 2.326 1_554 S
In247 O258 2.294 . S
In247 O259 2.326 . S
O248 In247 2.294 . S
O248 C257 1.240 . S
O249 In247 2.326 . S
O249 C257 1.252 . S
C250 O253 1.252 . S
C250 O254 1.260 . S
C251 O258 1.240 . S
C251 O259 1.252 . S
C252 O255 1.252 1_556 S
C252 O256 1.260 . S
O253 In247 2.266 . S
O253 C250 1.252 . S
O254 In247 2.326 . S
O254 C250 1.260 . S
O255 In247 2.266 . S
O255 C252 1.252 1_554 S
O256 In247 2.326 1_556 S
O256 C252 1.260 . S
C257 O248 1.240 . S
C257 O249 1.252 . S
O258 In247 2.294 . S
O258 C251 1.240 . S
O259 In247 2.326 . S
O259 C251 1.252 . S
In260 O261 2.296 . S
In260 O262 2.330 . S
In260 O266 2.264 1_554 S
In260 O267 2.322 1_554 S
In260 O268 2.266 1_554 S
In260 O269 2.325 1_554 S
In260 O271 2.294 . S
In260 O272 2.326 . S
O261 In260 2.296 . S
O261 C270 1.240 . S
O262 In260 2.330 . S
O262 C270 1.252 . S
C263 O266 1.252 . S
C263 O267 1.260 . S
C264 O271 1.240 . S
C264 O272 1.252 . S
C265 O268 1.252 . S
C265 O269 1.260 . S
O266 In260 2.264 1_556 S
O266 C263 1.252 . S
O267 In260 2.322 1_556 S
O267 C263 1.260 . S
O268 In260 2.266 1_556 S
O268 C265 1.252 . S
O269 In260 2.325 1_556 S
O269 C265 1.260 . S
C270 O261 1.240 . S
C270 O262 1.252 . S
O271 In260 2.294 . S
O271 C264 1.240 . S
O272 In260 2.326 . S
O272 C264 1.252 . S
In273 O274 2.294 . S
In273 O275 2.326 . S
In273 O279 2.266 . S
In273 O280 2.326 . S
In273 O281 2.266 . S
In273 O282 2.326 . S
In273 O284 2.294 . S
In273 O285 2.326 . S
O274 In273 2.294 . S
O274 C283 1.240 . S
O275 In273 2.326 . S
O275 C283 1.252 . S
C276 O279 1.252 . S
C276 O280 1.260 . S
C277 O284 1.240 . S
C277 O285 1.252 . S
C278 O281 1.252 . S
C278 O282 1.260 . S
O279 In273 2.266 . S
O279 C276 1.252 . S
O280 In273 2.326 . S
O280 C276 1.260 . S
O281 In273 2.266 . S
O281 C278 1.252 . S
O282 In273 2.326 . S
O282 C278 1.260 . S
C283 O274 1.240 . S
C283 O275 1.252 . S
O284 In273 2.294 . S
O284 C277 1.240 . S
O285 In273 2.326 . S
O285 C277 1.252 . S
In286 O287 2.294 . S
In286 O288 2.326 . S
In286 O292 2.266 . S
In286 O293 2.326 . S
In286 O294 2.266 . S
In286 O295 2.326 . S
In286 O297 2.294 . S
In286 O298 2.326 . S
O287 In286 2.294 . S
O287 C296 1.240 . S
O288 In286 2.326 . S
O288 C296 1.252 . S
C289 O292 1.252 . S
C289 O293 1.260 . S
C290 O297 1.240 . S
C290 O298 1.252 . S
C291 O294 1.252 . S
C291 O295 1.260 . S
O292 In286 2.266 . S
O292 C289 1.252 . S
O293 In286 2.326 . S
O293 C289 1.260 . S
O294 In286 2.266 . S
O294 C291 1.252 . S
O295 In286 2.326 . S
O295 C291 1.260 . S
C296 O287 1.240 . S
C296 O288 1.252 . S
O297 In286 2.294 . S
O297 C290 1.240 . S
O298 In286 2.326 . S
O298 C290 1.252 . S
In299 O300 2.294 . S
In299 O301 2.326 . S
In299 O305 2.266 . S
In299 O306 2.326 . S
In299 O307 2.266 . S
In299 O308 2.326 . S
In299 O310 2.294 . S
In299 O311 2.326 . S
O300 In299 2.294 . S
O300 C309 1.240 . S
O301 In299 2.326 . S
O301 C309 1.252 . S
C302 O305 1.252 . S
C302 O306 1.260 . S
C303 O310 1.240 . S
C303 O311 1.252 . S
C304 O307 1.252 . S
C304 O308 1.260 . S
O305 In299 2.266 . S
O305 C302 1.252 . S
O306 In299 2.326 . S
O306 C302 1.260 . S
O307 In299 2.266 . S
O307 C304 1.252 . S
O308 In299 2.326 . S
O308 C304 1.260 . S
C309 O300 1.240 . S
C309 O301 1.252 . S
O310 In299 2.294 . S
O310 C303 1.240 . S
O311 In299 2.326 . S
O311 C303 1.252 . S
C312 O328 1.251 1_455 S
C312 O330 1.254 . S
N313 C314 1.333 1_565 S
N313 C318 1.307 . S
N313 Zn319 2.020 1_655 S
C314 N313 1.333 1_545 S
C314 C315 1.379 1_545 S
C314 H332 0.952 . S
C315 C314 1.379 1_565 S
C315 C316 1.390 . S
C315 H342 0.949 1_565 S
C316 C315 1.390 . S
C316 C317 1.357 . S
C317 C316 1.357 . S
C317 C318 1.370 . S
C317 H343 0.950 . S
C318 N313 1.307 . S
C318 C317 1.370 . S
C318 H336 0.948 . S
Zn319 N313 2.020 1_455 S
Zn319 O328 2.039 1_464 S
Zn319 O334 2.034 1_565 S
Zn319 O338 2.025 . S
Zn319 O340 2.024 . S
C320 O339 1.246 . S
C320 O340 1.249 . S
N321 C322 1.307 1_554 S
N321 C323 1.333 . S
N321 Zn327 2.020 . S
C322 N321 1.307 1_556 S
C322 C326 1.370 . S
C322 H333 0.948 . S
C323 N321 1.333 . S
C323 C324 1.379 . S
C323 H331 0.952 . S
C324 C323 1.379 . S
C324 C325 1.390 1_554 S
C324 H344 0.949 . S
C325 C324 1.390 1_556 S
C325 C326 1.357 . S
C326 C322 1.370 . S
C326 C325 1.357 . S
C326 H345 0.950 . S
Zn327 N321 2.020 . S
Zn327 O330 2.025 1_554 S
Zn327 O335 2.024 . S
Zn327 O337 2.039 . S
Zn327 O339 2.034 1_545 S
O328 C312 1.251 1_655 S
O328 Zn319 2.039 1_646 S
C329 O334 1.246 . S
C329 O335 1.249 . S
O330 C312 1.254 . S
O330 Zn327 2.025 1_556 S
H331 C323 0.952 . S
H332 C314 0.952 . S
H333 C322 0.948 . S
O334 Zn319 2.034 1_545 S
O334 C329 1.246 . S
O335 Zn327 2.024 . S
O335 C329 1.249 . S
H336 C318 0.948 . S
O337 Zn327 2.039 . S
O337 C341 1.251 1_545 S
O338 Zn319 2.025 . S
O338 C341 1.254 . S
O339 C320 1.246 . S
O339 Zn327 2.034 1_565 S
O340 Zn319 2.024 . S
O340 C320 1.249 . S
C341 O337 1.251 1_565 S
C341 O338 1.254 . S
H342 C315 0.949 1_545 S
H343 C317 0.950 . S
H344 C324 0.949 . S
H345 C326 0.950 . S
C346 O362 1.251 . S
C346 O364 1.254 . S
N347 C348 1.333 . S
N347 C352 1.307 . S
N347 Zn353 2.020 . S
C348 N347 1.333 . S
C348 C349 1.379 . S
C348 H366 0.952 . S
C349 C348 1.379 . S
C349 C350 1.390 . S
C349 H376 0.949 . S
C350 C349 1.390 . S
C350 C351 1.357 . S
C351 C350 1.357 . S
C351 C352 1.370 . S
C351 H377 0.950 . S
C352 N347 1.307 . S
C352 C351 1.370 . S
C352 H370 0.948 . S
Zn353 N347 2.020 . S
Zn353 O362 2.039 . S
Zn353 O368 2.034 . S
Zn353 O372 2.025 . S
Zn353 O374 2.024 . S
C354 O373 1.246 . S
C354 O374 1.249 . S
N355 C356 1.307 . S
N355 C357 1.333 . S
N355 Zn361 2.020 . S
C356 N355 1.307 . S
C356 C360 1.370 . S
C356 H367 0.948 . S
C357 N355 1.333 . S
C357 C358 1.379 . S
C357 H365 0.952 . S
C358 C357 1.379 . S
C358 C359 1.390 . S
C358 H378 0.949 . S
C359 C358 1.390 . S
C359 C360 1.357 . S
C360 C356 1.370 . S
C360 C359 1.357 . S
C360 H379 0.950 . S
Zn361 N355 2.020 . S
Zn361 O364 2.025 . S
Zn361 O369 2.024 . S
Zn361 O371 2.039 . S
Zn361 O373 2.034 . S
O362 C346 1.251 . S
O362 Zn353 2.039 . S
C363 O368 1.246 . S
C363 O369 1.249 . S
O364 C346 1.254 . S
O364 Zn361 2.025 . S
H365 C357 0.952 . S
H366 C348 0.952 . S
H367 C356 0.948 . S
O368 Zn353 2.034 . S
O368 C363 1.246 . S
O369 Zn361 2.024 . S
O369 C363 1.249 . S
H370 C352 0.948 . S
O371 Zn361 2.039 . S
O371 C375 1.251 . S
O372 Zn353 2.025 . S
O372 C375 1.254 . S
O373 C354 1.246 . S
O373 Zn361 2.034 . S
O374 Zn353 2.024 . S
O374 C354 1.249 . S
C375 O371 1.251 . S
C375 O372 1.254 . S
H376 C349 0.949 . S
H377 C351 0.950 . S
H378 C358 0.949 . S
H379 C360 0.950 . S
C380 O396 1.251 . S
C380 O398 1.254 . S
N381 C382 1.333 . S
N381 C386 1.307 . S
N381 Zn387 2.020 . S
C382 N381 1.333 . S
C382 C383 1.379 . S
C382 H400 0.952 . S
C383 C382 1.379 . S
C383 C384 1.390 . S
C383 H410 0.949 . S
C384 C383 1.390 . S
C384 C385 1.357 . S
C385 C384 1.357 . S
C385 C386 1.370 . S
C385 H411 0.950 . S
C386 N381 1.307 . S
C386 C385 1.370 . S
C386 H404 0.948 . S
Zn387 N381 2.020 . S
Zn387 O396 2.039 1_565 S
Zn387 O402 2.034 1_565 S
Zn387 O406 2.025 . S
Zn387 O408 2.024 . S
C388 O407 1.246 1_565 S
C388 O408 1.249 . S
N389 C390 1.307 . S
N389 C391 1.333 . S
N389 Zn395 2.020 . S
C390 N389 1.307 . S
C390 C394 1.370 . S
C390 H401 0.948 . S
C391 N389 1.333 . S
C391 C392 1.379 . S
C391 H399 0.952 . S
C392 C391 1.379 . S
C392 C393 1.390 . S
C392 H412 0.949 . S
C393 C392 1.390 . S
C393 C394 1.357 . S
C394 C390 1.370 . S
C394 C393 1.357 . S
C394 H413 0.950 . S
Zn395 N389 2.020 . S
Zn395 O398 2.025 . S
Zn395 O403 2.024 . S
Zn395 O405 2.039 . S
Zn395 O407 2.034 . S
O396 C380 1.251 . S
O396 Zn387 2.039 1_545 S
C397 O402 1.246 . S
C397 O403 1.249 . S
O398 C380 1.254 . S
O398 Zn395 2.025 . S
H399 C391 0.952 . S
H400 C382 0.952 . S
H401 C390 0.948 . S
O402 Zn387 2.034 1_545 S
O402 C397 1.246 . S
O403 Zn395 2.024 . S
O403 C397 1.249 . S
H404 C386 0.948 . S
O405 Zn395 2.039 . S
O405 C409 1.251 . S
O406 Zn387 2.025 . S
O406 C409 1.254 1_565 S
O407 C388 1.246 1_545 S
O407 Zn395 2.034 . S
O408 Zn387 2.024 . S
O408 C388 1.249 . S
C409 O405 1.251 . S
C409 O406 1.254 1_545 S
H410 C383 0.949 . S
H411 C385 0.950 . S
H412 C392 0.949 . S
H413 C394 0.950 . S
C414 O430 1.251 . S
C414 O432 1.254 . S
N415 C416 1.333 . S
N415 C420 1.307 . S
N415 Zn421 2.020 . S
C416 N415 1.333 . S
C416 C417 1.379 . S
C416 H434 0.952 . S
C417 C416 1.379 . S
C417 C418 1.390 . S
C417 H444 0.949 . S
C418 C417 1.390 . S
C418 C419 1.357 . S
C419 C418 1.357 . S
C419 C420 1.370 . S
C419 H445 0.950 . S
C420 N415 1.307 . S
C420 C419 1.370 . S
C420 H438 0.948 . S
Zn421 N415 2.020 . S
Zn421 O430 2.039 . S
Zn421 O436 2.034 . S
Zn421 O440 2.025 . S
Zn421 O442 2.024 . S
C422 O441 1.246 . S
C422 O442 1.249 . S
N423 C424 1.307 . S
N423 C425 1.333 . S
N423 Zn429 2.020 . S
C424 N423 1.307 . S
C424 C428 1.370 . S
C424 H435 0.948 . S
C425 N423 1.333 . S
C425 C426 1.379 . S
C425 H433 0.952 . S
C426 C425 1.379 . S
C426 C427 1.390 . S
C426 H446 0.949 . S
C427 C426 1.390 . S
C427 C428 1.357 . S
C428 C424 1.370 . S
C428 C427 1.357 . S
C428 H447 0.950 . S
Zn429 N423 2.020 . S
Zn429 O432 2.025 . S
Zn429 O437 2.024 . S
Zn429 O439 2.039 . S
Zn429 O441 2.034 . S
O430 C414 1.251 . S
O430 Zn421 2.039 . S
C431 O436 1.246 . S
C431 O437 1.249 . S
O432 C414 1.254 . S
O432 Zn429 2.025 . S
H433 C425 0.952 . S
H434 C416 0.952 . S
H435 C424 0.948 . S
O436 Zn421 2.034 . S
O436 C431 1.246 . S
O437 Zn429 2.024 . S
O437 C431 1.249 . S
H438 C420 0.948 . S
O439 Zn429 2.039 . S
O439 C443 1.251 . S
O440 Zn421 2.025 . S
O440 C443 1.254 . S
O441 C422 1.246 . S
O441 Zn429 2.034 . S
O442 Zn421 2.024 . S
O442 C422 1.249 . S
C443 O439 1.251 . S
C443 O440 1.254 . S
H444 C417 0.949 . S
H445 C419 0.950 . S
H446 C426 0.949 . S
H447 C428 0.950 . S
C448 O464 1.250 . S
C448 O466 1.254 1_545 S
N449 C450 1.333 . S
N449 C454 1.307 . S
N449 Zn455 2.020 . S
C450 N449 1.333 . S
C450 C451 1.379 . S
C450 H468 0.952 . S
C451 C450 1.379 . S
C451 C452 1.390 . S
C451 H478 0.949 . S
C452 C451 1.390 . S
C452 C453 1.357 . S
C453 C452 1.357 . S
C453 C454 1.370 . S
C453 H479 0.950 . S
C454 N449 1.307 . S
C454 C453 1.370 . S
C454 H472 0.948 . S
Zn455 N449 2.020 . S
Zn455 O464 2.039 . S
Zn455 O470 2.034 . S
Zn455 O474 2.019 1_455 S
Zn455 O476 2.024 1_545 S
C456 O475 1.246 . S
C456 O476 1.249 . S
N457 C458 1.307 . S
N457 C459 1.333 1_455 S
N457 Zn463 2.020 1_565 S
C458 N457 1.307 . S
C458 C462 1.370 . S
C458 H469 0.948 1_565 S
C459 N457 1.333 1_655 S
C459 C460 1.379 . S
C459 H467 0.952 . S
C460 C459 1.379 . S
C460 C461 1.390 . S
C460 H480 0.949 . S
C461 C460 1.390 . S
C461 C462 1.357 1_655 S
C462 C458 1.370 . S
C462 C461 1.357 1_455 S
C462 H481 0.950 . S
Zn463 N457 2.020 1_545 S
Zn463 O466 2.025 1_545 S
Zn463 O471 2.024 . S
Zn463 O473 2.039 1_455 S
Zn463 O475 2.034 1_545 S
O464 C448 1.250 . S
O464 Zn455 2.039 . S
C465 O470 1.246 . S
C465 O471 1.249 . S
O466 C448 1.254 1_565 S
O466 Zn463 2.025 1_565 S
H467 C459 0.952 . S
H468 C450 0.952 . S
H469 C458 0.948 1_545 S
O470 Zn455 2.034 . S
O470 C465 1.246 . S
O471 Zn463 2.024 . S
O471 C465 1.249 . S
H472 C454 0.948 . S
O473 Zn463 2.039 1_655 S
O473 C477 1.251 . S
O474 Zn455 2.019 1_655 S
O474 C477 1.258 . S
O475 C456 1.246 . S
O475 Zn463 2.034 1_565 S
O476 Zn455 2.024 1_565 S
O476 C456 1.249 . S
C477 O473 1.251 . S
C477 O474 1.258 . S
H478 C451 0.949 . S
H479 C453 0.950 . S
H480 C460 0.949 . S
H481 C462 0.950 . S
C482 O498 1.251 . S
C482 O500 1.254 . S
N483 C484 1.333 . S
N483 C488 1.307 . S
N483 Zn489 2.020 . S
C484 N483 1.333 . S
C484 C485 1.379 . S
C484 H502 0.952 . S
C485 C484 1.379 . S
C485 C486 1.390 . S
C485 H512 0.949 . S
C486 C485 1.390 . S
C486 C487 1.357 . S
C487 C486 1.357 . S
C487 C488 1.370 . S
C487 H513 0.950 . S
C488 N483 1.307 . S
C488 C487 1.370 . S
C488 H506 0.948 . S
Zn489 N483 2.020 . S
Zn489 O498 2.039 . S
Zn489 O504 2.034 . S
Zn489 O508 2.025 . S
Zn489 O510 2.024 . S
C490 O509 1.246 . S
C490 O510 1.249 . S
N491 C492 1.307 . S
N491 C493 1.333 . S
N491 Zn497 2.020 . S
C492 N491 1.307 . S
C492 C496 1.370 . S
C492 H503 0.948 . S
C493 N491 1.333 . S
C493 C494 1.379 . S
C493 H501 0.952 . S
C494 C493 1.379 . S
C494 C495 1.390 . S
C494 H514 0.949 . S
C495 C494 1.390 . S
C495 C496 1.357 . S
C496 C492 1.370 . S
C496 C495 1.357 . S
C496 H515 0.950 . S
Zn497 N491 2.020 . S
Zn497 O500 2.025 . S
Zn497 O505 2.024 . S
Zn497 O507 2.039 . S
Zn497 O509 2.034 . S
O498 C482 1.251 . S
O498 Zn489 2.039 . S
C499 O504 1.246 . S
C499 O505 1.249 . S
O500 C482 1.254 . S
O500 Zn497 2.025 . S
H501 C493 0.952 . S
H502 C484 0.952 . S
H503 C492 0.948 . S
O504 Zn489 2.034 . S
O504 C499 1.246 . S
O505 Zn497 2.024 . S
O505 C499 1.249 . S
H506 C488 0.948 . S
O507 Zn497 2.039 . S
O507 C511 1.251 . S
O508 Zn489 2.025 . S
O508 C511 1.254 . S
O509 C490 1.246 . S
O509 Zn497 2.034 . S
O510 Zn489 2.024 . S
O510 C490 1.249 . S
C511 O507 1.251 . S
C511 O508 1.254 . S
H512 C485 0.949 . S
H513 C487 0.950 . S
H514 C494 0.949 . S
H515 C496 0.950 . S
C516 O532 1.251 . S
C516 O534 1.254 . S
N517 C518 1.333 . S
N517 C522 1.307 . S
N517 Zn523 2.020 . S
C518 N517 1.333 . S
C518 C519 1.379 . S
C518 H536 0.952 1_545 S
C519 C518 1.379 . S
C519 C520 1.390 . S
C519 H546 0.949 . S
C520 C519 1.390 . S
C520 C521 1.357 . S
C521 C520 1.357 . S
C521 C522 1.370 . S
C521 H547 0.950 . S
C522 N517 1.307 . S
C522 C521 1.370 . S
C522 H540 0.948 . S
Zn523 N517 2.020 . S
Zn523 O532 2.039 1_545 S
Zn523 O538 2.034 . S
Zn523 O542 2.025 . S
Zn523 O544 2.024 1_545 S
C524 O543 1.246 . S
C524 O544 1.249 . S
N525 C526 1.307 . S
N525 C527 1.333 . S
N525 Zn531 2.020 1_556 S
C526 N525 1.307 . S
C526 C530 1.370 . S
C526 H537 0.948 . S
C527 N525 1.333 . S
C527 C528 1.379 . S
C527 H535 0.952 1_565 S
C528 C527 1.379 . S
C528 C529 1.390 . S
C528 H548 0.949 1_565 S
C529 C528 1.390 . S
C529 C530 1.357 . S
C530 C526 1.370 . S
C530 C529 1.357 . S
C530 H549 0.950 . S
Zn531 N525 2.020 1_554 S
Zn531 O534 2.025 . S
Zn531 O539 2.024 1_565 S
Zn531 O541 2.040 1_565 S
Zn531 O543 2.034 . S
O532 C516 1.251 . S
O532 Zn523 2.039 1_565 S
C533 O538 1.246 . S
C533 O539 1.249 . S
O534 C516 1.254 . S
O534 Zn531 2.025 . S
H535 C527 0.952 1_545 S
H536 C518 0.952 1_565 S
H537 C526 0.948 . S
O538 Zn523 2.034 . S
O538 C533 1.246 . S
O539 Zn531 2.024 1_545 S
O539 C533 1.249 . S
H540 C522 0.948 . S
O541 Zn531 2.040 1_545 S
O541 C545 1.253 . S
O542 Zn523 2.025 . S
O542 C545 1.254 . S
O543 C524 1.246 . S
O543 Zn531 2.034 . S
O544 Zn523 2.024 1_565 S
O544 C524 1.249 . S
C545 O541 1.253 . S
C545 O542 1.254 . S
H546 C519 0.949 . S
H547 C521 0.950 . S
H548 C528 0.949 1_545 S
H549 C530 0.950 . S
C550 O566 1.251 . S
C550 O568 1.254 . S
N551 C552 1.333 . S
N551 C556 1.307 . S
N551 Zn557 2.020 . S
C552 N551 1.333 . S
C552 C553 1.379 . S
C552 H570 0.952 . S
C553 C552 1.379 . S
C553 C554 1.390 . S
C553 H580 0.949 . S
C554 C553 1.390 . S
C554 C555 1.357 . S
C555 C554 1.357 . S
C555 C556 1.370 . S
C555 H581 0.950 . S
C556 N551 1.307 . S
C556 C555 1.370 . S
C556 H574 0.948 . S
Zn557 N551 2.020 . S
Zn557 O566 2.039 . S
Zn557 O572 2.034 . S
Zn557 O576 2.025 . S
Zn557 O578 2.024 . S
C558 O577 1.246 . S
C558 O578 1.249 . S
N559 C560 1.307 . S
N559 C561 1.333 . S
N559 Zn565 2.020 . S
C560 N559 1.307 . S
C560 C564 1.370 . S
C560 H571 0.948 . S
C561 N559 1.333 . S
C561 C562 1.379 . S
C561 H569 0.952 . S
C562 C561 1.379 . S
C562 C563 1.390 . S
C562 H582 0.949 . S
C563 C562 1.390 . S
C563 C564 1.357 . S
C564 C560 1.370 . S
C564 C563 1.357 . S
C564 H583 0.950 . S
Zn565 N559 2.020 . S
Zn565 O568 2.025 . S
Zn565 O573 2.024 . S
Zn565 O575 2.039 . S
Zn565 O577 2.034 . S
O566 C550 1.251 . S
O566 Zn557 2.039 . S
C567 O572 1.246 . S
C567 O573 1.249 . S
O568 C550 1.254 . S
O568 Zn565 2.025 . S
H569 C561 0.952 . S
H570 C552 0.952 . S
H571 C560 0.948 . S
O572 Zn557 2.034 . S
O572 C567 1.246 . S
O573 Zn565 2.024 . S
O573 C567 1.249 . S
H574 C556 0.948 . S
O575 Zn565 2.039 . S
O575 C579 1.251 . S
O576 Zn557 2.025 . S
O576 C579 1.254 . S
O577 C558 1.246 . S
O577 Zn565 2.034 . S
O578 Zn557 2.024 . S
O578 C558 1.249 . S
C579 O575 1.251 . S
C579 O576 1.254 . S
H580 C553 0.949 . S
H581 C555 0.950 . S
H582 C562 0.949 . S
H583 C564 0.950 . S
C584 O600 1.251 . S
C584 O602 1.254 . S
N585 C586 1.333 . S
N585 C590 1.307 . S
N585 Zn591 2.020 1_556 S
C586 N585 1.333 . S
C586 C587 1.379 . S
C586 H604 0.952 . S
C587 C586 1.379 . S
C587 C588 1.390 . S
C587 H614 0.949 . S
C588 C587 1.390 . S
C588 C589 1.357 . S
C589 C588 1.357 . S
C589 C590 1.370 . S
C589 H615 0.950 . S
C590 N585 1.307 . S
C590 C589 1.370 . S
C590 H608 0.948 . S
Zn591 N585 2.020 1_554 S
Zn591 O600 2.039 . S
Zn591 O606 2.034 . S
Zn591 O610 2.025 . S
Zn591 O612 2.024 1_554 S
C592 O611 1.246 . S
C592 O612 1.249 1_554 S
N593 C594 1.307 . S
N593 C595 1.333 . S
N593 Zn599 2.020 . S
C594 N593 1.307 . S
C594 C598 1.370 . S
C594 H605 0.948 . S
C595 N593 1.333 . S
C595 C596 1.379 . S
C595 H603 0.952 . S
C596 C595 1.379 . S
C596 C597 1.390 . S
C596 H616 0.949 . S
C597 C596 1.390 . S
C597 C598 1.357 . S
C598 C594 1.370 . S
C598 C597 1.357 . S
C598 H617 0.950 . S
Zn599 N593 2.020 . S
Zn599 O602 2.025 . S
Zn599 O607 2.024 . S
Zn599 O609 2.039 . S
Zn599 O611 2.034 . S
O600 C584 1.251 . S
O600 Zn591 2.039 . S
C601 O606 1.246 . S
C601 O607 1.249 . S
O602 C584 1.254 . S
O602 Zn599 2.025 . S
H603 C595 0.952 . S
H604 C586 0.952 . S
H605 C594 0.948 . S
O606 Zn591 2.034 . S
O606 C601 1.246 . S
O607 Zn599 2.024 . S
O607 C601 1.249 . S
H608 C590 0.948 . S
O609 Zn599 2.039 . S
O609 C613 1.251 . S
O610 Zn591 2.025 . S
O610 C613 1.254 . S
O611 C592 1.246 . S
O611 Zn599 2.034 . S
O612 Zn591 2.024 1_556 S
O612 C592 1.249 1_556 S
C613 O609 1.251 . S
C613 O610 1.254 . S
H614 C587 0.949 . S
H615 C589 0.950 . S
H616 C596 0.949 . S
H617 C598 0.950 . S
C618 O634 1.251 . S
C618 O636 1.254 . S
N619 C620 1.333 . S
N619 C624 1.307 . S
N619 Zn625 2.020 . S
C620 N619 1.333 . S
C620 C621 1.379 . S
C620 H638 0.952 . S
C621 C620 1.379 . S
C621 C622 1.390 . S
C621 H648 0.949 . S
C622 C621 1.390 . S
C622 C623 1.357 . S
C623 C622 1.357 . S
C623 C624 1.370 . S
C623 H649 0.950 . S
C624 N619 1.307 . S
C624 C623 1.370 . S
C624 H642 0.948 . S
Zn625 N619 2.020 . S
Zn625 O634 2.039 . S
Zn625 O640 2.034 . S
Zn625 O644 2.025 . S
Zn625 O646 2.024 . S
C626 O645 1.246 . S
C626 O646 1.249 . S
N627 C628 1.307 . S
N627 C629 1.333 . S
N627 Zn633 2.020 . S
C628 N627 1.307 . S
C628 C632 1.370 . S
C628 H639 0.948 . S
C629 N627 1.333 . S
C629 C630 1.379 . S
C629 H637 0.952 . S
C630 C629 1.379 . S
C630 C631 1.390 . S
C630 H650 0.949 . S
C631 C630 1.390 . S
C631 C632 1.357 . S
C632 C628 1.370 . S
C632 C631 1.357 . S
C632 H651 0.950 . S
Zn633 N627 2.020 . S
Zn633 O636 2.025 . S
Zn633 O641 2.024 . S
Zn633 O643 2.039 . S
Zn633 O645 2.034 . S
O634 C618 1.251 . S
O634 Zn625 2.039 . S
C635 O640 1.246 . S
C635 O641 1.249 . S
O636 C618 1.254 . S
O636 Zn633 2.025 . S
H637 C629 0.952 . S
H638 C620 0.952 . S
H639 C628 0.948 . S
O640 Zn625 2.034 . S
O640 C635 1.246 . S
O641 Zn633 2.024 . S
O641 C635 1.249 . S
H642 C624 0.948 . S
O643 Zn633 2.039 . S
O643 C647 1.251 . S
O644 Zn625 2.025 . S
O644 C647 1.254 . S
O645 C626 1.246 . S
O645 Zn633 2.034 . S
O646 Zn625 2.024 . S
O646 C626 1.249 . S
C647 O643 1.251 . S
C647 O644 1.254 . S
H648 C621 0.949 . S
H649 C623 0.950 . S
H650 C630 0.949 . S
H651 C632 0.950 . S
C652 O668 1.251 . S
C652 O670 1.254 . S
N653 C654 1.333 . S
N653 C658 1.307 . S
N653 Zn659 2.020 . S
C654 N653 1.333 . S
C654 C655 1.379 . S
C654 H672 0.952 . S
C655 C654 1.379 . S
C655 C656 1.390 . S
C655 H682 0.949 . S
C656 C655 1.390 . S
C656 C657 1.357 . S
C657 C656 1.357 . S
C657 C658 1.370 . S
C657 H683 0.950 . S
C658 N653 1.307 . S
C658 C657 1.370 . S
C658 H676 0.948 . S
Zn659 N653 2.020 . S
Zn659 O668 2.039 . S
Zn659 O674 2.034 . S
Zn659 O678 2.025 . S
Zn659 O680 2.024 . S
C660 O679 1.246 . S
C660 O680 1.249 . S
N661 C662 1.307 1_455 S
N661 C663 1.333 . S
N661 Zn667 2.020 . S
C662 N661 1.307 1_655 S
C662 C666 1.370 . S
C662 H673 0.948 . S
C663 N661 1.333 . S
C663 C664 1.379 . S
C663 H671 0.952 . S
C664 C663 1.379 . S
C664 C665 1.390 1_455 S
C664 H684 0.949 . S
C665 C664 1.390 1_655 S
C665 C666 1.357 . S
C666 C662 1.370 . S
C666 C665 1.357 . S
C666 H685 0.950 . S
Zn667 N661 2.020 . S
Zn667 O670 2.025 . S
Zn667 O675 2.024 1_455 S
Zn667 O677 2.039 . S
Zn667 O679 2.034 . S
O668 C652 1.251 . S
O668 Zn659 2.039 . S
C669 O674 1.246 1_655 S
C669 O675 1.249 . S
O670 C652 1.254 . S
O670 Zn667 2.025 . S
H671 C663 0.952 . S
H672 C654 0.952 . S
H673 C662 0.948 . S
O674 Zn659 2.034 . S
O674 C669 1.246 1_455 S
O675 Zn667 2.024 1_655 S
O675 C669 1.249 . S
H676 C658 0.948 . S
O677 Zn667 2.039 . S
O677 C681 1.251 . S
O678 Zn659 2.025 . S
O678 C681 1.254 . S
O679 C660 1.246 . S
O679 Zn667 2.034 . S
O680 Zn659 2.024 . S
O680 C660 1.249 . S
C681 O677 1.251 . S
C681 O678 1.254 . S
H682 C655 0.949 . S
H683 C657 0.950 . S
H684 C664 0.949 . S
H685 C666 0.950 . S
C686 O702 1.251 . S
C686 O704 1.254 . S
N687 C688 1.333 . S
N687 C692 1.307 . S
N687 Zn693 2.020 . S
C688 N687 1.333 . S
C688 C689 1.379 . S
C688 H706 0.952 . S
C689 C688 1.379 . S
C689 C690 1.390 . S
C689 H716 0.949 . S
C690 C689 1.390 . S
C690 C691 1.357 . S
C691 C690 1.357 . S
C691 C692 1.370 . S
C691 H717 0.950 . S
C692 N687 1.307 . S
C692 C691 1.370 . S
C692 H710 0.948 . S
Zn693 N687 2.020 . S
Zn693 O702 2.039 . S
Zn693 O708 2.034 . S
Zn693 O712 2.025 . S
Zn693 O714 2.024 . S
C694 O713 1.246 . S
C694 O714 1.249 . S
N695 C696 1.307 . S
N695 C697 1.333 . S
N695 Zn701 2.020 . S
C696 N695 1.307 . S
C696 C700 1.370 . S
C696 H707 0.948 . S
C697 N695 1.333 . S
C697 C698 1.379 . S
C697 H705 0.952 . S
C698 C697 1.379 . S
C698 C699 1.390 . S
C698 H718 0.949 . S
C699 C698 1.390 . S
C699 C700 1.357 . S
C700 C696 1.370 . S
C700 C699 1.357 . S
C700 H719 0.950 . S
Zn701 N695 2.020 . S
Zn701 O704 2.025 . S
Zn701 O709 2.024 . S
Zn701 O711 2.039 . S
Zn701 O713 2.034 . S
O702 C686 1.251 . S
O702 Zn693 2.039 . S
C703 O708 1.246 . S
C703 O709 1.249 . S
O704 C686 1.254 . S
O704 Zn701 2.025 . S
H705 C697 0.952 . S
H706 C688 0.952 . S
H707 C696 0.948 . S
O708 Zn693 2.034 . S
O708 C703 1.246 . S
O709 Zn701 2.024 . S
O709 C703 1.249 . S
H710 C692 0.948 . S
O711 Zn701 2.039 . S
O711 C715 1.251 . S
O712 Zn693 2.025 . S
O712 C715 1.254 . S
O713 C694 1.246 . S
O713 Zn701 2.034 . S
O714 Zn693 2.024 . S
O714 C694 1.249 . S
C715 O711 1.251 . S
C715 O712 1.254 . S
H716 C689 0.949 . S
H717 C691 0.950 . S
H718 C698 0.949 . S
H719 C700 0.950 . S
C720 O736 1.251 . S
C720 O738 1.254 . S
N721 C722 1.333 . S
N721 C726 1.307 . S
N721 Zn727 2.020 . S
C722 N721 1.333 . S
C722 C723 1.379 . S
C722 H740 0.952 . S
C723 C722 1.379 . S
C723 C724 1.390 . S
C723 H750 0.949 . S
C724 C723 1.390 . S
C724 C725 1.357 . S
C725 C724 1.357 . S
C725 C726 1.370 . S
C725 H751 0.950 . S
C726 N721 1.307 . S
C726 C725 1.370 . S
C726 H744 0.948 . S
Zn727 N721 2.020 . S
Zn727 O736 2.039 . S
Zn727 O742 2.034 . S
Zn727 O746 2.025 . S
Zn727 O748 2.024 . S
C728 O747 1.246 . S
C728 O748 1.249 . S
N729 C730 1.307 . S
N729 C731 1.333 . S
N729 Zn735 2.020 . S
C730 N729 1.307 . S
C730 C734 1.370 . S
C730 H741 0.948 . S
C731 N729 1.333 . S
C731 C732 1.379 . S
C731 H739 0.952 . S
C732 C731 1.379 . S
C732 C733 1.390 . S
C732 H752 0.949 . S
C733 C732 1.390 . S
C733 C734 1.357 . S
C734 C730 1.370 . S
C734 C733 1.357 . S
C734 H753 0.950 . S
Zn735 N729 2.020 . S
Zn735 O738 2.025 . S
Zn735 O743 2.024 . S
Zn735 O745 2.039 . S
Zn735 O747 2.034 . S
O736 C720 1.251 . S
O736 Zn727 2.039 . S
C737 O742 1.246 . S
C737 O743 1.249 . S
O738 C720 1.254 . S
O738 Zn735 2.025 . S
H739 C731 0.952 . S
H740 C722 0.952 . S
H741 C730 0.948 . S
O742 Zn727 2.034 . S
O742 C737 1.246 . S
O743 Zn735 2.024 . S
O743 C737 1.249 . S
H744 C726 0.948 . S
O745 Zn735 2.039 . S
O745 C749 1.251 . S
O746 Zn727 2.025 . S
O746 C749 1.254 . S
O747 C728 1.246 . S
O747 Zn735 2.034 . S
O748 Zn727 2.024 . S
O748 C728 1.249 . S
C749 O745 1.251 . S
C749 O746 1.254 . S
H750 C723 0.949 . S
H751 C725 0.950 . S
H752 C732 0.949 . S
H753 C734 0.950 . S
C754 O770 1.251 . S
C754 O772 1.254 . S
N755 C756 1.333 . S
N755 C760 1.307 . S
N755 Zn761 2.020 . S
C756 N755 1.333 . S
C756 C757 1.379 . S
C756 H774 0.952 . S
C757 C756 1.379 . S
C757 C758 1.390 . S
C757 H784 0.949 . S
C758 C757 1.390 . S
C758 C759 1.357 . S
C759 C758 1.357 . S
C759 C760 1.370 . S
C759 H785 0.950 . S
C760 N755 1.307 . S
C760 C759 1.370 . S
C760 H778 0.948 . S
Zn761 N755 2.020 . S
Zn761 O770 2.039 . S
Zn761 O776 2.034 . S
Zn761 O780 2.025 . S
Zn761 O782 2.024 . S
C762 O781 1.246 . S
C762 O782 1.249 . S
N763 C764 1.307 . S
N763 C765 1.333 . S
N763 Zn769 2.020 . S
C764 N763 1.307 . S
C764 C768 1.370 . S
C764 H775 0.948 . S
C765 N763 1.333 . S
C765 C766 1.379 . S
C765 H773 0.952 . S
C766 C765 1.379 . S
C766 C767 1.390 . S
C766 H786 0.949 . S
C767 C766 1.390 . S
C767 C768 1.357 . S
C768 C764 1.370 . S
C768 C767 1.357 . S
C768 H787 0.950 . S
Zn769 N763 2.020 . S
Zn769 O772 2.025 . S
Zn769 O777 2.024 . S
Zn769 O779 2.039 . S
Zn769 O781 2.034 . S
O770 C754 1.251 . S
O770 Zn761 2.039 . S
C771 O776 1.246 . S
C771 O777 1.249 . S
O772 C754 1.254 . S
O772 Zn769 2.025 . S
H773 C765 0.952 . S
H774 C756 0.952 . S
H775 C764 0.948 . S
O776 Zn761 2.034 . S
O776 C771 1.246 . S
O777 Zn769 2.024 . S
O777 C771 1.249 . S
H778 C760 0.948 . S
O779 Zn769 2.039 . S
O779 C783 1.251 . S
O780 Zn761 2.025 . S
O780 C783 1.254 . S
O781 C762 1.246 . S
O781 Zn769 2.034 . S
O782 Zn761 2.024 . S
O782 C762 1.249 . S
C783 O779 1.251 . S
C783 O780 1.254 . S
H784 C757 0.949 . S
H785 C759 0.950 . S
H786 C766 0.949 . S
H787 C768 0.950 . S
C788 O804 1.251 . S
C788 O806 1.254 . S
N789 C790 1.333 . S
N789 C794 1.307 . S
N789 Zn795 2.020 . S
C790 N789 1.333 . S
C790 C791 1.379 . S
C790 H808 0.952 . S
C791 C790 1.379 . S
C791 C792 1.390 . S
C791 H818 0.949 . S
C792 C791 1.390 . S
C792 C793 1.357 . S
C793 C792 1.357 . S
C793 C794 1.370 . S
C793 H819 0.950 . S
C794 N789 1.307 . S
C794 C793 1.370 . S
C794 H812 0.948 . S
Zn795 N789 2.020 . S
Zn795 O804 2.039 . S
Zn795 O810 2.034 . S
Zn795 O814 2.025 . S
Zn795 O816 2.024 . S
C796 O815 1.246 . S
C796 O816 1.249 . S
N797 C798 1.307 . S
N797 C799 1.333 . S
N797 Zn803 2.020 . S
C798 N797 1.307 . S
C798 C802 1.370 . S
C798 H809 0.948 . S
C799 N797 1.333 . S
C799 C800 1.379 . S
C799 H807 0.952 . S
C800 C799 1.379 . S
C800 C801 1.390 . S
C800 H820 0.949 . S
C801 C800 1.390 . S
C801 C802 1.357 . S
C802 C798 1.370 . S
C802 C801 1.357 . S
C802 H821 0.950 . S
Zn803 N797 2.020 . S
Zn803 O806 2.025 . S
Zn803 O811 2.024 . S
Zn803 O813 2.039 . S
Zn803 O815 2.034 . S
O804 C788 1.251 . S
O804 Zn795 2.039 . S
C805 O810 1.246 . S
C805 O811 1.249 . S
O806 C788 1.254 . S
O806 Zn803 2.025 . S
H807 C799 0.952 . S
H808 C790 0.952 . S
H809 C798 0.948 . S
O810 Zn795 2.034 . S
O810 C805 1.246 . S
O811 Zn803 2.024 . S
O811 C805 1.249 . S
H812 C794 0.948 . S
O813 Zn803 2.039 . S
O813 C817 1.251 . S
O814 Zn795 2.025 . S
O814 C817 1.254 . S
O815 C796 1.246 . S
O815 Zn803 2.034 . S
O816 Zn795 2.024 . S
O816 C796 1.249 . S
C817 O813 1.251 . S
C817 O814 1.254 . S
H818 C791 0.949 . S
H819 C793 0.950 . S
H820 C800 0.949 . S
H821 C802 0.950 . S
C822 O838 1.251 . S
C822 O840 1.254 . S
N823 C824 1.333 . S
N823 C828 1.307 . S
N823 Zn829 2.020 . S
C824 N823 1.333 . S
C824 C825 1.379 . S
C824 H842 0.952 . S
C825 C824 1.379 . S
C825 C826 1.390 . S
C825 H852 0.949 . S
C826 C825 1.390 . S
C826 C827 1.357 . S
C827 C826 1.357 . S
C827 C828 1.370 . S
C827 H853 0.950 . S
C828 N823 1.307 . S
C828 C827 1.370 . S
C828 H846 0.948 . S
Zn829 N823 2.020 . S
Zn829 O838 2.039 . S
Zn829 O844 2.034 . S
Zn829 O848 2.025 1_554 S
Zn829 O850 2.024 . S
C830 O849 1.256 . S
C830 O850 1.249 1_655 S
N831 C832 1.307 . S
N831 C833 1.333 1_554 S
N831 Zn837 2.020 . S
C832 N831 1.307 . S
C832 C836 1.370 . S
C832 H843 0.948 . S
C833 N831 1.333 1_556 S
C833 C834 1.379 . S
C833 H841 0.952 . S
C834 C833 1.379 . S
C834 C835 1.390 . S
C834 H854 0.949 . S
C835 C834 1.390 . S
C835 C836 1.357 1_556 S
C836 C832 1.370 . S
C836 C835 1.357 1_554 S
C836 H855 0.950 . S
Zn837 N831 2.020 . S
Zn837 O840 2.025 . S
Zn837 O845 2.024 . S
Zn837 O847 2.039 1_554 S
Zn837 O849 2.000 1_455 S
O838 C822 1.251 . S
O838 Zn829 2.039 . S
C839 O844 1.246 . S
C839 O845 1.249 . S
O840 C822 1.254 . S
O840 Zn837 2.025 . S
H841 C833 0.952 . S
H842 C824 0.952 . S
H843 C832 0.948 . S
O844 Zn829 2.034 . S
O844 C839 1.246 . S
O845 Zn837 2.024 . S
O845 C839 1.249 . S
H846 C828 0.948 . S
O847 Zn837 2.039 1_556 S
O847 C851 1.251 . S
O848 Zn829 2.025 1_556 S
O848 C851 1.254 . S
O849 C830 1.256 . S
O849 Zn837 2.000 1_655 S
O850 Zn829 2.024 . S
O850 C830 1.249 1_455 S
C851 O847 1.251 . S
C851 O848 1.254 . S
H852 C825 0.949 . S
H853 C827 0.950 . S
H854 C834 0.949 . S
H855 C836 0.950 . S
H856 C868 0.930 . S
H857 C870 0.930 . S
H858 C871 0.930 . S
H859 C875 0.959 . S
H860 C875 0.959 . S
H861 C875 0.961 . S
H862 C876 0.960 . S
H863 C876 0.958 1_655 S
H864 C876 0.959 . S
H865 C879 0.929 . S
H866 C880 0.931 . S
H867 C882 0.930 1_655 S
C868 H856 0.930 . S
C868 C869 1.399 . S
C868 C873 1.399 . S
C869 C868 1.399 . S
C869 C870 1.376 . S
C870 H857 0.930 . S
C870 C869 1.376 . S
C870 C871 1.388 . S
C871 H858 0.930 . S
C871 C870 1.388 . S
C871 C872 1.390 . S
C872 C871 1.390 . S
C872 C873 1.394 . S
C872 C878 1.465 . S
C873 C868 1.399 . S
C873 C872 1.394 . S
C873 C874 1.516 . S
C874 C873 1.516 . S
C874 C875 1.502 1_455 S
C874 C876 1.561 . S
C874 C877 1.526 . S
C875 H859 0.959 . S
C875 H860 0.959 . S
C875 H861 0.961 . S
C875 C874 1.502 1_655 S
C876 H862 0.960 . S
C876 H863 0.958 1_455 S
C876 H864 0.959 . S
C876 C874 1.561 . S
C877 C874 1.526 . S
C877 C878 1.396 . S
C877 C882 1.390 . S
C878 C872 1.465 . S
C878 C877 1.396 . S
C878 C879 1.399 . S
C879 H865 0.929 . S
C879 C878 1.399 . S
C879 C880 1.385 . S
C880 H866 0.931 . S
C880 C879 1.385 . S
C880 C881 1.389 . S
C881 C880 1.389 . S
C881 C882 1.387 . S
C882 H867 0.930 1_455 S
C882 C877 1.390 . S
C882 C881 1.387 . S
H883 C895 0.930 . S
H884 C897 0.930 . S
H885 C898 0.930 . S
H886 C902 0.959 . S
H887 C902 0.959 . S
H888 C902 0.961 . S
H889 C903 0.960 . S
H890 C903 0.961 . S
H891 C903 0.959 . S
H892 C906 0.929 . S
H893 C907 0.931 . S
H894 C909 0.930 . S
C895 H883 0.930 . S
C895 C896 1.399 . S
C895 C900 1.399 . S
C896 C895 1.399 . S
C896 C897 1.376 . S
C897 H884 0.930 . S
C897 C896 1.376 . S
C897 C898 1.388 . S
C898 H885 0.930 . S
C898 C897 1.388 . S
C898 C899 1.390 . S
C899 C898 1.390 . S
C899 C900 1.394 . S
C899 C905 1.465 . S
C900 C895 1.399 . S
C900 C899 1.394 . S
C900 C901 1.516 . S
C901 C900 1.516 . S
C901 C902 1.502 . S
C901 C903 1.561 . S
C901 C904 1.526 . S
C902 H886 0.959 . S
C902 H887 0.959 . S
C902 H888 0.961 . S
C902 C901 1.502 . S
C903 H889 0.960 . S
C903 H890 0.961 . S
C903 H891 0.959 . S
C903 C901 1.561 . S
C904 C901 1.526 . S
C904 C905 1.396 . S
C904 C909 1.390 . S
C905 C899 1.465 . S
C905 C904 1.396 . S
C905 C906 1.399 . S
C906 H892 0.929 . S
C906 C905 1.399 . S
C906 C907 1.385 . S
C907 H893 0.931 . S
C907 C906 1.385 . S
C907 C908 1.389 . S
C908 C907 1.389 . S
C908 C909 1.387 . S
C909 H894 0.930 . S
C909 C904 1.390 . S
C909 C908 1.387 . S
H910 C922 0.930 . S
H911 C924 0.930 . S
H912 C925 0.930 . S
H913 C929 0.959 . S
H914 C929 0.959 . S
H915 C929 0.961 . S
H916 C930 0.960 . S
H917 C930 0.961 . S
H918 C930 0.959 . S
H919 C933 0.929 . S
H920 C934 0.931 . S
H921 C936 0.930 . S
C922 H910 0.930 . S
C922 C923 1.399 . S
C922 C927 1.399 . S
C923 C922 1.399 . S
C923 C924 1.376 . S
C924 H911 0.930 . S
C924 C923 1.376 . S
C924 C925 1.388 . S
C925 H912 0.930 . S
C925 C924 1.388 . S
C925 C926 1.390 . S
C926 C925 1.390 . S
C926 C927 1.394 . S
C926 C932 1.465 . S
C927 C922 1.399 . S
C927 C926 1.394 . S
C927 C928 1.516 . S
C928 C927 1.516 . S
C928 C929 1.502 . S
C928 C930 1.561 . S
C928 C931 1.526 . S
C929 H913 0.959 . S
C929 H914 0.959 . S
C929 H915 0.961 . S
C929 C928 1.502 . S
C930 H916 0.960 . S
C930 H917 0.961 . S
C930 H918 0.959 . S
C930 C928 1.561 . S
C931 C928 1.526 . S
C931 C932 1.396 . S
C931 C936 1.390 . S
C932 C926 1.465 . S
C932 C931 1.396 . S
C932 C933 1.399 . S
C933 H919 0.929 . S
C933 C932 1.399 . S
C933 C934 1.385 . S
C934 H920 0.931 . S
C934 C933 1.385 . S
C934 C935 1.389 . S
C935 C934 1.389 . S
C935 C936 1.387 . S
C936 H921 0.930 . S
C936 C931 1.390 . S
C936 C935 1.387 . S
H937 C949 0.930 . S
H938 C951 0.930 . S
H939 C952 0.930 . S
H940 C956 0.959 . S
H941 C956 0.959 . S
H942 C956 0.961 . S
H943 C957 0.960 . S
H944 C957 0.961 . S
H945 C957 0.959 . S
H946 C960 0.929 . S
H947 C961 0.931 . S
H948 C963 0.930 . S
C949 H937 0.930 . S
C949 C950 1.399 . S
C949 C954 1.399 . S
C950 C949 1.399 . S
C950 C951 1.376 . S
C951 H938 0.930 . S
C951 C950 1.376 . S
C951 C952 1.388 . S
C952 H939 0.930 . S
C952 C951 1.388 . S
C952 C953 1.390 . S
C953 C952 1.390 . S
C953 C954 1.394 . S
C953 C959 1.465 . S
C954 C949 1.399 . S
C954 C953 1.394 . S
C954 C955 1.516 . S
C955 C954 1.516 . S
C955 C956 1.502 . S
C955 C957 1.561 . S
C955 C958 1.526 . S
C956 H940 0.959 . S
C956 H941 0.959 . S
C956 H942 0.961 . S
C956 C955 1.502 . S
C957 H943 0.960 . S
C957 H944 0.961 . S
C957 H945 0.959 . S
C957 C955 1.561 . S
C958 C955 1.526 . S
C958 C959 1.396 . S
C958 C963 1.390 . S
C959 C953 1.465 . S
C959 C958 1.396 . S
C959 C960 1.399 . S
C960 H946 0.929 . S
C960 C959 1.399 . S
C960 C961 1.385 . S
C961 H947 0.931 . S
C961 C960 1.385 . S
C961 C962 1.389 . S
C962 C961 1.389 . S
C962 C963 1.387 . S
C963 H948 0.930 . S
C963 C958 1.390 . S
C963 C962 1.387 . S
H964 C976 0.930 1_655 S
H965 C978 0.930 . S
H966 C979 0.930 . S
H967 C983 0.959 . S
H968 C983 0.959 . S
H969 C983 0.961 . S
H970 C984 0.960 . S
H971 C984 0.961 . S
H972 C984 0.959 1_455 S
H973 C987 0.929 . S
H974 C988 0.931 . S
H975 C990 0.930 1_655 S
C976 H964 0.930 1_455 S
C976 C977 1.399 . S
C976 C981 1.399 . S
C977 C976 1.399 . S
C977 C978 1.376 . S
C978 H965 0.930 . S
C978 C977 1.376 . S
C978 C979 1.388 . S
C979 H966 0.930 . S
C979 C978 1.388 . S
C979 C980 1.390 . S
C980 C979 1.390 . S
C980 C981 1.394 . S
C980 C986 1.465 . S
C981 C976 1.399 . S
C981 C980 1.394 . S
C981 C982 1.516 1_455 S
C982 C981 1.516 1_655 S
C982 C983 1.502 . S
C982 C984 1.561 . S
C982 C985 1.526 1_655 S
C983 H967 0.959 . S
C983 H968 0.959 . S
C983 H969 0.961 . S
C983 C982 1.502 . S
C984 H970 0.960 . S
C984 H971 0.961 . S
C984 H972 0.959 1_655 S
C984 C982 1.561 . S
C985 C982 1.526 1_455 S
C985 C986 1.396 . S
C985 C990 1.390 . S
C986 C980 1.465 . S
C986 C985 1.396 . S
C986 C987 1.399 . S
C987 H973 0.929 . S
C987 C986 1.399 . S
C987 C988 1.385 . S
C988 H974 0.931 . S
C988 C987 1.385 . S
C988 C989 1.389 . S
C989 C988 1.389 . S
C989 C990 1.387 . S
C990 H975 0.930 1_455 S
C990 C985 1.390 . S
C990 C989 1.387 . S
H991 C1003 0.930 . S
H992 C1005 0.930 . S
H993 C1006 0.930 . S
H994 C1010 0.959 . S
H995 C1010 0.959 . S
H996 C1010 0.961 . S
H997 C1011 0.960 . S
H998 C1011 0.961 . S
H999 C1011 0.959 . S
H1000 C1014 0.929 . S
H1001 C1015 0.931 . S
H1002 C1017 0.930 . S
C1003 H991 0.930 . S
C1003 C1004 1.399 . S
C1003 C1008 1.399 . S
C1004 C1003 1.399 . S
C1004 C1005 1.376 . S
C1005 H992 0.930 . S
C1005 C1004 1.376 . S
C1005 C1006 1.388 . S
C1006 H993 0.930 . S
C1006 C1005 1.388 . S
C1006 C1007 1.390 . S
C1007 C1006 1.390 . S
C1007 C1008 1.394 . S
C1007 C1013 1.465 . S
C1008 C1003 1.399 . S
C1008 C1007 1.394 . S
C1008 C1009 1.516 . S
C1009 C1008 1.516 . S
C1009 C1010 1.502 . S
C1009 C1011 1.561 . S
C1009 C1012 1.526 . S
C1010 H994 0.959 . S
C1010 H995 0.959 . S
C1010 H996 0.961 . S
C1010 C1009 1.502 . S
C1011 H997 0.960 . S
C1011 H998 0.961 . S
C1011 H999 0.959 . S
C1011 C1009 1.561 . S
C1012 C1009 1.526 . S
C1012 C1013 1.396 . S
C1012 C1017 1.390 . S
C1013 C1007 1.465 . S
C1013 C1012 1.396 . S
C1013 C1014 1.399 . S
C1014 H1000 0.929 . S
C1014 C1013 1.399 . S
C1014 C1015 1.385 . S
C1015 H1001 0.931 . S
C1015 C1014 1.385 . S
C1015 C1016 1.389 . S
C1016 C1015 1.389 . S
C1016 C1017 1.387 . S
C1017 H1002 0.930 . S
C1017 C1012 1.390 . S
C1017 C1016 1.387 . S
H1018 C1030 0.930 . S
H1019 C1032 0.930 . S
H1020 C1033 0.930 . S
H1021 C1037 0.959 . S
H1022 C1037 0.959 1_554 S
H1023 C1037 0.961 . S
H1024 C1038 0.960 . S
H1025 C1038 0.961 . S
H1026 C1038 0.959 . S
H1027 C1041 0.929 . S
H1028 C1042 0.931 . S
H1029 C1044 0.933 . S
C1030 H1018 0.930 . S
C1030 C1031 1.399 . S
C1030 C1035 1.399 . S
C1031 C1030 1.399 . S
C1031 C1032 1.376 . S
C1032 H1019 0.930 . S
C1032 C1031 1.376 . S
C1032 C1033 1.388 . S
C1033 H1020 0.930 . S
C1033 C1032 1.388 . S
C1033 C1034 1.390 . S
C1034 C1033 1.390 . S
C1034 C1035 1.394 . S
C1034 C1040 1.465 . S
C1035 C1030 1.399 . S
C1035 C1034 1.394 . S
C1035 C1036 1.516 . S
C1036 C1035 1.516 . S
C1036 C1037 1.502 . S
C1036 C1038 1.561 1_556 S
C1036 C1039 1.526 . S
C1037 H1021 0.959 . S
C1037 H1022 0.959 1_556 S
C1037 H1023 0.961 . S
C1037 C1036 1.502 . S
C1038 H1024 0.960 . S
C1038 H1025 0.961 . S
C1038 H1026 0.959 . S
C1038 C1036 1.561 1_554 S
C1039 C1036 1.526 . S
C1039 C1040 1.396 . S
C1039 C1044 1.387 1_556 S
C1040 C1034 1.465 . S
C1040 C1039 1.396 . S
C1040 C1041 1.399 . S
C1041 H1027 0.929 . S
C1041 C1040 1.399 . S
C1041 C1042 1.385 . S
C1042 H1028 0.931 . S
C1042 C1041 1.385 . S
C1042 C1043 1.389 . S
C1043 C1042 1.389 . S
C1043 C1044 1.386 1_556 S
C1044 H1029 0.933 . S
C1044 C1039 1.387 1_554 S
C1044 C1043 1.386 1_554 S
H1045 C1057 0.930 . S
H1046 C1059 0.930 . S
H1047 C1060 0.930 . S
H1048 C1064 0.959 . S
H1049 C1064 0.959 . S
H1050 C1064 0.961 . S
H1051 C1065 0.960 . S
H1052 C1065 0.961 . S
H1053 C1065 0.959 . S
H1054 C1068 0.929 . S
H1055 C1069 0.931 . S
H1056 C1071 0.930 . S
C1057 H1045 0.930 . S
C1057 C1058 1.399 . S
C1057 C1062 1.399 . S
C1058 C1057 1.399 . S
C1058 C1059 1.376 . S
C1059 H1046 0.930 . S
C1059 C1058 1.376 . S
C1059 C1060 1.388 . S
C1060 H1047 0.930 . S
C1060 C1059 1.388 . S
C1060 C1061 1.390 . S
C1061 C1060 1.390 . S
C1061 C1062 1.394 . S
C1061 C1067 1.465 . S
C1062 C1057 1.399 . S
C1062 C1061 1.394 . S
C1062 C1063 1.516 . S
C1063 C1062 1.516 . S
C1063 C1064 1.502 . S
C1063 C1065 1.561 . S
C1063 C1066 1.526 . S
C1064 H1048 0.959 . S
C1064 H1049 0.959 . S
C1064 H1050 0.961 . S
C1064 C1063 1.502 . S
C1065 H1051 0.960 . S
C1065 H1052 0.961 . S
C1065 H1053 0.959 . S
C1065 C1063 1.561 . S
C1066 C1063 1.526 . S
C1066 C1067 1.396 . S
C1066 C1071 1.390 . S
C1067 C1061 1.465 . S
C1067 C1066 1.396 . S
C1067 C1068 1.399 . S
C1068 H1054 0.929 . S
C1068 C1067 1.399 . S
C1068 C1069 1.385 . S
C1069 H1055 0.931 . S
C1069 C1068 1.385 . S
C1069 C1070 1.389 . S
C1070 C1069 1.389 . S
C1070 C1071 1.387 . S
C1071 H1056 0.930 . S
C1071 C1066 1.390 . S
C1071 C1070 1.387 . S
H1072 C1084 0.930 . S
H1073 C1086 0.930 . S
H1074 C1087 0.930 . S
H1075 C1091 0.959 . S
H1076 C1091 0.959 . S
H1077 C1091 0.961 . S
H1078 C1092 0.960 . S
H1079 C1092 0.961 . S
H1080 C1092 0.959 . S
H1081 C1095 0.929 . S
H1082 C1096 0.931 . S
H1083 C1098 0.930 . S
C1084 H1072 0.930 . S
C1084 C1085 1.399 1_565 S
C1084 C1089 1.399 . S
C1085 C1084 1.399 1_545 S
C1085 C1086 1.376 . S
C1086 H1073 0.930 . S
C1086 C1085 1.376 . S
C1086 C1087 1.388 . S
C1087 H1074 0.930 . S
C1087 C1086 1.388 . S
C1087 C1088 1.390 . S
C1088 C1087 1.390 . S
C1088 C1089 1.394 1_545 S
C1088 C1094 1.465 . S
C1089 C1084 1.399 . S
C1089 C1088 1.394 1_565 S
C1089 C1090 1.516 . S
C1090 C1089 1.516 . S
C1090 C1091 1.502 . S
C1090 C1092 1.561 . S
C1090 C1093 1.526 . S
C1091 H1075 0.959 . S
C1091 H1076 0.959 . S
C1091 H1077 0.961 . S
C1091 C1090 1.502 . S
C1092 H1078 0.960 . S
C1092 H1079 0.961 . S
C1092 H1080 0.959 . S
C1092 C1090 1.561 . S
C1093 C1090 1.526 . S
C1093 C1094 1.396 1_565 S
C1093 C1098 1.390 . S
C1094 C1088 1.465 . S
C1094 C1093 1.396 1_545 S
C1094 C1095 1.399 . S
C1095 H1081 0.929 . S
C1095 C1094 1.399 . S
C1095 C1096 1.385 . S
C1096 H1082 0.931 . S
C1096 C1095 1.385 . S
C1096 C1097 1.389 1_545 S
C1097 C1096 1.389 1_565 S
C1097 C1098 1.387 . S
C1098 H1083 0.930 . S
C1098 C1093 1.390 . S
C1098 C1097 1.387 . S
H1099 C1111 0.930 . S
H1100 C1113 0.930 . S
H1101 C1114 0.930 . S
H1102 C1118 0.959 . S
H1103 C1118 0.959 . S
H1104 C1118 0.961 . S
H1105 C1119 0.960 . S
H1106 C1119 0.961 . S
H1107 C1119 0.959 . S
H1108 C1122 0.929 . S
H1109 C1123 0.931 . S
H1110 C1125 0.930 . S
C1111 H1099 0.930 . S
C1111 C1112 1.399 . S
C1111 C1116 1.399 . S
C1112 C1111 1.399 . S
C1112 C1113 1.376 . S
C1113 H1100 0.930 . S
C1113 C1112 1.376 . S
C1113 C1114 1.388 . S
C1114 H1101 0.930 . S
C1114 C1113 1.388 . S
C1114 C1115 1.390 . S
C1115 C1114 1.390 . S
C1115 C1116 1.394 . S
C1115 C1121 1.465 . S
C1116 C1111 1.399 . S
C1116 C1115 1.394 . S
C1116 C1117 1.516 . S
C1117 C1116 1.516 . S
C1117 C1118 1.502 . S
C1117 C1119 1.561 . S
C1117 C1120 1.526 . S
C1118 H1102 0.959 . S
C1118 H1103 0.959 . S
C1118 H1104 0.961 . S
C1118 C1117 1.502 . S
C1119 H1105 0.960 . S
C1119 H1106 0.961 . S
C1119 H1107 0.959 . S
C1119 C1117 1.561 . S
C1120 C1117 1.526 . S
C1120 C1121 1.396 . S
C1120 C1125 1.390 . S
C1121 C1115 1.465 . S
C1121 C1120 1.396 . S
C1121 C1122 1.399 . S
C1122 H1108 0.929 . S
C1122 C1121 1.399 . S
C1122 C1123 1.385 . S
C1123 H1109 0.931 . S
C1123 C1122 1.385 . S
C1123 C1124 1.389 . S
C1124 C1123 1.389 . S
C1124 C1125 1.387 . S
C1125 H1110 0.930 . S
C1125 C1120 1.390 . S
C1125 C1124 1.387 . S
H1126 C1138 0.930 1_565 S
H1127 C1140 0.930 . S
H1128 C1141 0.930 . S
H1129 C1145 0.959 . S
H1130 C1145 0.959 1_565 S
H1131 C1145 0.961 1_565 S
H1132 C1146 0.960 . S
H1133 C1146 0.961 . S
H1134 C1146 0.959 . S
H1135 C1149 0.929 . S
H1136 C1150 0.931 . S
H1137 C1152 0.930 . S
C1138 H1126 0.930 1_545 S
C1138 C1139 1.399 . S
C1138 C1143 1.399 . S
C1139 C1138 1.399 . S
C1139 C1140 1.376 . S
C1140 H1127 0.930 . S
C1140 C1139 1.376 . S
C1140 C1141 1.388 . S
C1141 H1128 0.930 . S
C1141 C1140 1.388 . S
C1141 C1142 1.390 . S
C1142 C1141 1.390 . S
C1142 C1143 1.394 . S
C1142 C1148 1.465 . S
C1143 C1138 1.399 . S
C1143 C1142 1.394 . S
C1143 C1144 1.516 1_545 S
C1144 C1143 1.516 1_565 S
C1144 C1145 1.502 1_565 S
C1144 C1146 1.561 . S
C1144 C1147 1.526 1_565 S
C1145 H1129 0.959 . S
C1145 H1130 0.959 1_545 S
C1145 H1131 0.961 1_545 S
C1145 C1144 1.502 1_545 S
C1146 H1132 0.960 . S
C1146 H1133 0.961 . S
C1146 H1134 0.959 . S
C1146 C1144 1.561 . S
C1147 C1144 1.526 1_545 S
C1147 C1148 1.396 . S
C1147 C1152 1.390 . S
C1148 C1142 1.465 . S
C1148 C1147 1.396 . S
C1148 C1149 1.399 . S
C1149 H1135 0.929 . S
C1149 C1148 1.399 . S
C1149 C1150 1.385 . S
C1150 H1136 0.931 . S
C1150 C1149 1.385 . S
C1150 C1151 1.389 . S
C1151 C1150 1.389 . S
C1151 C1152 1.387 . S
C1152 H1137 0.930 . S
C1152 C1147 1.390 . S
C1152 C1151 1.387 . S
H1153 C1165 0.930 . S
H1154 C1167 0.930 . S
H1155 C1168 0.930 . S
H1156 C1172 0.959 . S
H1157 C1172 0.959 . S
H1158 C1172 0.961 . S
H1159 C1173 0.960 . S
H1160 C1173 0.961 . S
H1161 C1173 0.959 . S
H1162 C1176 0.929 . S
H1163 C1177 0.931 . S
H1164 C1179 0.930 . S
C1165 H1153 0.930 . S
C1165 C1166 1.399 . S
C1165 C1170 1.399 . S
C1166 C1165 1.399 . S
C1166 C1167 1.376 . S
C1167 H1154 0.930 . S
C1167 C1166 1.376 . S
C1167 C1168 1.388 . S
C1168 H1155 0.930 . S
C1168 C1167 1.388 . S
C1168 C1169 1.390 . S
C1169 C1168 1.390 . S
C1169 C1170 1.394 . S
C1169 C1175 1.465 . S
C1170 C1165 1.399 . S
C1170 C1169 1.394 . S
C1170 C1171 1.516 . S
C1171 C1170 1.516 . S
C1171 C1172 1.502 . S
C1171 C1173 1.561 . S
C1171 C1174 1.526 . S
C1172 H1156 0.959 . S
C1172 H1157 0.959 . S
C1172 H1158 0.961 . S
C1172 C1171 1.502 . S
C1173 H1159 0.960 . S
C1173 H1160 0.961 . S
C1173 H1161 0.959 . S
C1173 C1171 1.561 . S
C1174 C1171 1.526 . S
C1174 C1175 1.396 . S
C1174 C1179 1.390 . S
C1175 C1169 1.465 . S
C1175 C1174 1.396 . S
C1175 C1176 1.399 . S
C1176 H1162 0.929 . S
C1176 C1175 1.399 . S
C1176 C1177 1.385 . S
C1177 H1163 0.931 . S
C1177 C1176 1.385 . S
C1177 C1178 1.389 . S
C1178 C1177 1.389 . S
C1178 C1179 1.387 . S
C1179 H1164 0.930 . S
C1179 C1174 1.390 . S
C1179 C1178 1.387 . S
H1180 C1192 0.930 . S
H1181 C1194 0.930 1_565 S
H1182 C1195 0.930 1_565 S
H1183 C1199 0.959 . S
H1184 C1199 0.959 . S
H1185 C1199 0.961 . S
H1186 C1200 0.960 . S
H1187 C1200 0.961 . S
H1188 C1200 0.959 . S
H1189 C1203 0.929 1_565 S
H1190 C1204 0.931 . S
H1191 C1206 0.930 . S
C1192 H1180 0.930 . S
C1192 C1193 1.399 . S
C1192 C1197 1.399 . S
C1193 C1192 1.399 . S
C1193 C1194 1.376 . S
C1194 H1181 0.930 1_545 S
C1194 C1193 1.376 . S
C1194 C1195 1.388 . S
C1195 H1182 0.930 1_545 S
C1195 C1194 1.388 . S
C1195 C1196 1.390 . S
C1196 C1195 1.390 . S
C1196 C1197 1.394 . S
C1196 C1202 1.465 . S
C1197 C1192 1.399 . S
C1197 C1196 1.394 . S
C1197 C1198 1.516 . S
C1198 C1197 1.516 . S
C1198 C1199 1.502 . S
C1198 C1200 1.561 . S
C1198 C1201 1.526 . S
C1199 H1183 0.959 . S
C1199 H1184 0.959 . S
C1199 H1185 0.961 . S
C1199 C1198 1.502 . S
C1200 H1186 0.960 . S
C1200 H1187 0.961 . S
C1200 H1188 0.959 . S
C1200 C1198 1.561 . S
C1201 C1198 1.526 . S
C1201 C1202 1.396 . S
C1201 C1206 1.390 . S
C1202 C1196 1.465 . S
C1202 C1201 1.396 . S
C1202 C1203 1.399 . S
C1203 H1189 0.929 1_545 S
C1203 C1202 1.399 . S
C1203 C1204 1.385 . S
C1204 H1190 0.931 . S
C1204 C1203 1.385 . S
C1204 C1205 1.389 . S
C1205 C1204 1.389 . S
C1205 C1206 1.387 . S
C1206 H1191 0.930 . S
C1206 C1201 1.390 . S
C1206 C1205 1.387 . S
H1207 C1219 0.930 . S
H1208 C1221 0.930 . S
H1209 C1222 0.930 . S
H1210 C1226 0.959 . S
H1211 C1226 0.959 . S
H1212 C1226 0.961 . S
H1213 C1227 0.960 . S
H1214 C1227 0.961 . S
H1215 C1227 0.959 . S
H1216 C1230 0.929 . S
H1217 C1231 0.931 . S
H1218 C1233 0.930 . S
C1219 H1207 0.930 . S
C1219 C1220 1.399 . S
C1219 C1224 1.399 . S
C1220 C1219 1.399 . S
C1220 C1221 1.376 . S
C1221 H1208 0.930 . S
C1221 C1220 1.376 . S
C1221 C1222 1.388 . S
C1222 H1209 0.930 . S
C1222 C1221 1.388 . S
C1222 C1223 1.390 . S
C1223 C1222 1.390 . S
C1223 C1224 1.394 . S
C1223 C1229 1.465 . S
C1224 C1219 1.399 . S
C1224 C1223 1.394 . S
C1224 C1225 1.516 . S
C1225 C1224 1.516 . S
C1225 C1226 1.502 . S
C1225 C1227 1.561 . S
C1225 C1228 1.526 . S
C1226 H1210 0.959 . S
C1226 H1211 0.959 . S
C1226 H1212 0.961 . S
C1226 C1225 1.502 . S
C1227 H1213 0.960 . S
C1227 H1214 0.961 . S
C1227 H1215 0.959 . S
C1227 C1225 1.561 . S
C1228 C1225 1.526 . S
C1228 C1229 1.396 . S
C1228 C1233 1.390 . S
C1229 C1223 1.465 . S
C1229 C1228 1.396 . S
C1229 C1230 1.399 . S
C1230 H1216 0.929 . S
C1230 C1229 1.399 . S
C1230 C1231 1.385 . S
C1231 H1217 0.931 . S
C1231 C1230 1.385 . S
C1231 C1232 1.389 . S
C1232 C1231 1.389 . S
C1232 C1233 1.387 . S
C1233 H1218 0.930 . S
C1233 C1228 1.390 . S
C1233 C1232 1.387 . S
H1234 C1246 0.930 . S
H1235 C1248 0.930 . S
H1236 C1249 0.930 . S
H1237 C1253 0.959 . S
H1238 C1253 0.959 . S
H1239 C1253 0.961 . S
H1240 C1254 0.960 . S
H1241 C1254 0.961 . S
H1242 C1254 0.959 . S
H1243 C1257 0.929 . S
H1244 C1258 0.931 . S
H1245 C1260 0.930 . S
C1246 H1234 0.930 . S
C1246 C1247 1.399 1_565 S
C1246 C1251 1.399 . S
C1247 C1246 1.399 1_545 S
C1247 C1248 1.376 . S
C1248 H1235 0.930 . S
C1248 C1247 1.376 . S
C1248 C1249 1.388 . S
C1249 H1236 0.930 . S
C1249 C1248 1.388 . S
C1249 C1250 1.390 . S
C1250 C1249 1.390 . S
C1250 C1251 1.394 1_545 S
C1250 C1256 1.465 1_545 S
C1251 C1246 1.399 . S
C1251 C1250 1.394 1_565 S
C1251 C1252 1.516 . S
C1252 C1251 1.516 . S
C1252 C1253 1.502 . S
C1252 C1254 1.561 . S
C1252 C1255 1.526 . S
C1253 H1237 0.959 . S
C1253 H1238 0.959 . S
C1253 H1239 0.961 . S
C1253 C1252 1.502 . S
C1254 H1240 0.960 . S
C1254 H1241 0.961 . S
C1254 H1242 0.959 . S
C1254 C1252 1.561 . S
C1255 C1252 1.526 . S
C1255 C1256 1.396 . S
C1255 C1260 1.390 . S
C1256 C1250 1.465 1_565 S
C1256 C1255 1.396 . S
C1256 C1257 1.399 1_565 S
C1257 H1243 0.929 . S
C1257 C1256 1.399 1_545 S
C1257 C1258 1.385 . S
C1258 H1244 0.931 . S
C1258 C1257 1.385 . S
C1258 C1259 1.389 1_545 S
C1259 C1258 1.389 1_565 S
C1259 C1260 1.387 . S
C1260 H1245 0.930 . S
C1260 C1255 1.390 . S
C1260 C1259 1.387 . S
H1261 C1273 0.930 . S
H1262 C1275 0.930 . S
H1263 C1276 0.930 . S
H1264 C1280 0.959 . S
H1265 C1280 0.959 . S
H1266 C1280 0.961 . S
H1267 C1281 0.960 . S
H1268 C1281 0.961 . S
H1269 C1281 0.959 . S
H1270 C1284 0.929 . S
H1271 C1285 0.931 . S
H1272 C1287 0.930 . S
C1273 H1261 0.930 . S
C1273 C1274 1.399 . S
C1273 C1278 1.399 . S
C1274 C1273 1.399 . S
C1274 C1275 1.376 . S
C1275 H1262 0.930 . S
C1275 C1274 1.376 . S
C1275 C1276 1.388 . S
C1276 H1263 0.930 . S
C1276 C1275 1.388 . S
C1276 C1277 1.390 . S
C1277 C1276 1.390 . S
C1277 C1278 1.394 . S
C1277 C1283 1.465 . S
C1278 C1273 1.399 . S
C1278 C1277 1.394 . S
C1278 C1279 1.516 . S
C1279 C1278 1.516 . S
C1279 C1280 1.502 . S
C1279 C1281 1.561 . S
C1279 C1282 1.526 . S
C1280 H1264 0.959 . S
C1280 H1265 0.959 . S
C1280 H1266 0.961 . S
C1280 C1279 1.502 . S
C1281 H1267 0.960 . S
C1281 H1268 0.961 . S
C1281 H1269 0.959 . S
C1281 C1279 1.561 . S
C1282 C1279 1.526 . S
C1282 C1283 1.396 . S
C1282 C1287 1.390 . S
C1283 C1277 1.465 . S
C1283 C1282 1.396 . S
C1283 C1284 1.399 . S
C1284 H1270 0.929 . S
C1284 C1283 1.399 . S
C1284 C1285 1.385 . S
C1285 H1271 0.931 . S
C1285 C1284 1.385 . S
C1285 C1286 1.389 . S
C1286 C1285 1.389 . S
C1286 C1287 1.387 . S
C1287 H1272 0.930 . S
C1287 C1282 1.390 . S
C1287 C1286 1.387 . S
H1288 C1300 0.930 . S
H1289 C1302 0.930 . S
H1290 C1303 0.930 1_556 S
H1291 C1307 0.959 1_556 S
H1292 C1307 0.959 . S
H1293 C1307 0.961 . S
H1294 C1308 0.960 . S
H1295 C1308 0.961 . S
H1296 C1308 0.959 . S
H1297 C1311 0.929 . S
H1298 C1312 0.931 . S
H1299 C1314 0.930 . S
C1300 H1288 0.930 . S
C1300 C1301 1.399 . S
C1300 C1305 1.399 . S
C1301 C1300 1.399 . S
C1301 C1302 1.376 . S
C1302 H1289 0.930 . S
C1302 C1301 1.376 . S
C1302 C1303 1.388 . S
C1303 H1290 0.930 1_554 S
C1303 C1302 1.388 . S
C1303 C1304 1.390 . S
C1304 C1303 1.390 . S
C1304 C1305 1.394 . S
C1304 C1310 1.473 . S
C1305 C1300 1.399 . S
C1305 C1304 1.394 . S
C1305 C1306 1.516 . S
C1306 C1305 1.516 . S
C1306 C1307 1.502 . S
C1306 C1308 1.561 . S
C1306 C1309 1.526 . S
C1307 H1291 0.959 1_554 S
C1307 H1292 0.959 . S
C1307 H1293 0.961 . S
C1307 C1306 1.502 . S
C1308 H1294 0.960 . S
C1308 H1295 0.961 . S
C1308 H1296 0.959 . S
C1308 C1306 1.561 . S
C1309 C1306 1.526 . S
C1309 C1310 1.407 . S
C1309 C1314 1.390 . S
C1310 C1304 1.473 . S
C1310 C1309 1.407 . S
C1310 C1311 1.384 1_554 S
C1311 H1297 0.929 . S
C1311 C1310 1.384 1_556 S
C1311 C1312 1.385 . S
C1312 H1298 0.931 . S
C1312 C1311 1.385 . S
C1312 C1313 1.389 . S
C1313 C1312 1.389 . S
C1313 C1314 1.387 1_556 S
C1314 H1299 0.930 . S
C1314 C1309 1.390 . S
C1314 C1313 1.387 1_554 S
H1315 C1327 0.930 . S
H1316 C1329 0.930 . S
H1317 C1330 0.930 . S
H1318 C1334 0.959 . S
H1319 C1334 0.959 . S
H1320 C1334 0.961 . S
H1321 C1335 0.960 . S
H1322 C1335 0.961 . S
H1323 C1335 0.959 . S
H1324 C1338 0.955 . S
H1325 C1339 0.931 . S
H1326 C1341 0.930 . S
C1327 H1315 0.930 . S
C1327 C1328 1.399 . S
C1327 C1332 1.399 . S
C1328 C1327 1.399 . S
C1328 C1329 1.376 . S
C1329 H1316 0.930 . S
C1329 C1328 1.376 . S
C1329 C1330 1.388 . S
C1330 H1317 0.930 . S
C1330 C1329 1.388 . S
C1330 C1331 1.390 . S
C1331 C1330 1.390 . S
C1331 C1332 1.394 . S
C1331 C1337 1.465 . S
C1332 C1327 1.399 . S
C1332 C1331 1.394 . S
C1332 C1333 1.516 . S
C1333 C1332 1.516 . S
C1333 C1334 1.502 . S
C1333 C1335 1.561 . S
C1333 C1336 1.526 . S
C1334 H1318 0.959 . S
C1334 H1319 0.959 . S
C1334 H1320 0.961 . S
C1334 C1333 1.502 . S
C1335 H1321 0.960 . S
C1335 H1322 0.961 . S
C1335 H1323 0.959 . S
C1335 C1333 1.561 . S
C1336 C1333 1.526 . S
C1336 C1337 1.396 . S
C1336 C1341 1.390 . S
C1337 C1331 1.465 . S
C1337 C1336 1.396 . S
C1337 C1338 1.399 . S
C1338 H1324 0.955 . S
C1338 C1337 1.399 . S
C1338 C1339 1.385 . S
C1339 H1325 0.931 . S
C1339 C1338 1.385 . S
C1339 C1340 1.389 . S
C1340 C1339 1.389 . S
C1340 C1341 1.387 . S
C1341 H1326 0.930 . S
C1341 C1336 1.390 . S
C1341 C1340 1.387 . S
H1342 C1354 0.930 . S
H1343 C1356 0.930 . S
H1344 C1357 0.930 . S
H1345 C1361 0.959 . S
H1346 C1361 0.959 . S
H1347 C1361 0.961 . S
H1348 C1362 0.960 . S
H1349 C1362 0.961 . S
H1350 C1362 0.959 . S
H1351 C1365 0.929 . S
H1352 C1366 0.931 . S
H1353 C1368 0.930 . S
C1354 H1342 0.930 . S
C1354 C1355 1.399 . S
C1354 C1359 1.399 . S
C1355 C1354 1.399 . S
C1355 C1356 1.376 . S
C1356 H1343 0.930 . S
C1356 C1355 1.376 . S
C1356 C1357 1.388 . S
C1357 H1344 0.930 . S
C1357 C1356 1.388 . S
C1357 C1358 1.390 . S
C1358 C1357 1.390 . S
C1358 C1359 1.394 . S
C1358 C1364 1.465 . S
C1359 C1354 1.399 . S
C1359 C1358 1.394 . S
C1359 C1360 1.516 . S
C1360 C1359 1.516 . S
C1360 C1361 1.502 . S
C1360 C1362 1.561 . S
C1360 C1363 1.526 . S
C1361 H1345 0.959 . S
C1361 H1346 0.959 . S
C1361 H1347 0.961 . S
C1361 C1360 1.502 . S
C1362 H1348 0.960 . S
C1362 H1349 0.961 . S
C1362 H1350 0.959 . S
C1362 C1360 1.561 . S
C1363 C1360 1.526 . S
C1363 C1364 1.396 . S
C1363 C1368 1.390 . S
C1364 C1358 1.465 . S
C1364 C1363 1.396 . S
C1364 C1365 1.399 . S
C1365 H1351 0.929 . S
C1365 C1364 1.399 . S
C1365 C1366 1.385 . S
C1366 H1352 0.931 . S
C1366 C1365 1.385 . S
C1366 C1367 1.389 . S
C1367 C1366 1.389 . S
C1367 C1368 1.387 . S
C1368 H1353 0.930 . S
C1368 C1363 1.390 . S
C1368 C1367 1.387 . S
H1369 C1381 0.930 . S
H1370 C1383 0.930 . S
H1371 C1384 0.930 . S
H1372 C1388 0.959 . S
H1373 C1388 0.959 . S
H1374 C1388 0.961 . S
H1375 C1389 0.960 . S
H1376 C1389 0.961 . S
H1377 C1389 0.959 . S
H1378 C1392 0.929 . S
H1379 C1393 0.931 . S
H1380 C1395 0.930 . S
C1381 H1369 0.930 . S
C1381 C1382 1.399 . S
C1381 C1386 1.399 . S
C1382 C1381 1.399 . S
C1382 C1383 1.376 . S
C1383 H1370 0.930 . S
C1383 C1382 1.376 . S
C1383 C1384 1.388 . S
C1384 H1371 0.930 . S
C1384 C1383 1.388 . S
C1384 C1385 1.390 . S
C1385 C1384 1.390 . S
C1385 C1386 1.394 . S
C1385 C1391 1.465 . S
C1386 C1381 1.399 . S
C1386 C1385 1.394 . S
C1386 C1387 1.516 . S
C1387 C1386 1.516 . S
C1387 C1388 1.502 . S
C1387 C1389 1.561 . S
C1387 C1390 1.526 . S
C1388 H1372 0.959 . S
C1388 H1373 0.959 . S
C1388 H1374 0.961 . S
C1388 C1387 1.502 . S
C1389 H1375 0.960 . S
C1389 H1376 0.961 . S
C1389 H1377 0.959 . S
C1389 C1387 1.561 . S
C1390 C1387 1.526 . S
C1390 C1391 1.396 . S
C1390 C1395 1.390 . S
C1391 C1385 1.465 . S
C1391 C1390 1.396 . S
C1391 C1392 1.399 . S
C1392 H1378 0.929 . S
C1392 C1391 1.399 . S
C1392 C1393 1.385 . S
C1393 H1379 0.931 . S
C1393 C1392 1.385 . S
C1393 C1394 1.389 . S
C1394 C1393 1.389 . S
C1394 C1395 1.387 . S
C1395 H1380 0.930 . S
C1395 C1390 1.390 . S
C1395 C1394 1.387 . S
H1396 C1408 0.930 . S
H1397 C1410 0.930 . S
H1398 C1411 0.930 . S
H1399 C1415 0.959 . S
H1400 C1415 0.959 . S
H1401 C1415 0.961 . S
H1402 C1416 0.960 . S
H1403 C1416 0.961 . S
H1404 C1416 0.959 . S
H1405 C1419 0.929 . S
H1406 C1420 0.931 . S
H1407 C1422 0.930 . S
C1408 H1396 0.930 . S
C1408 C1409 1.399 . S
C1408 C1413 1.399 . S
C1409 C1408 1.399 . S
C1409 C1410 1.376 . S
C1410 H1397 0.930 . S
C1410 C1409 1.376 . S
C1410 C1411 1.388 . S
C1411 H1398 0.930 . S
C1411 C1410 1.388 . S
C1411 C1412 1.390 . S
C1412 C1411 1.390 . S
C1412 C1413 1.394 . S
C1412 C1418 1.465 . S
C1413 C1408 1.399 . S
C1413 C1412 1.394 . S
C1413 C1414 1.516 . S
C1414 C1413 1.516 . S
C1414 C1415 1.502 . S
C1414 C1416 1.561 . S
C1414 C1417 1.526 . S
C1415 H1399 0.959 . S
C1415 H1400 0.959 . S
C1415 H1401 0.961 . S
C1415 C1414 1.502 . S
C1416 H1402 0.960 . S
C1416 H1403 0.961 . S
C1416 H1404 0.959 . S
C1416 C1414 1.561 . S
C1417 C1414 1.526 . S
C1417 C1418 1.396 . S
C1417 C1422 1.390 . S
C1418 C1412 1.465 . S
C1418 C1417 1.396 . S
C1418 C1419 1.399 . S
C1419 H1405 0.929 . S
C1419 C1418 1.399 . S
C1419 C1420 1.385 . S
C1420 H1406 0.931 . S
C1420 C1419 1.385 . S
C1420 C1421 1.389 . S
C1421 C1420 1.389 . S
C1421 C1422 1.387 . S
C1422 H1407 0.930 . S
C1422 C1417 1.390 . S
C1422 C1421 1.387 . S
H1423 C1435 0.930 . S
H1424 C1437 0.930 . S
H1425 C1438 0.930 . S
H1426 C1442 0.959 . S
H1427 C1442 0.959 . S
H1428 C1442 0.961 . S
H1429 C1443 0.960 . S
H1430 C1443 0.961 . S
H1431 C1443 0.959 . S
H1432 C1446 0.915 1_545 S
H1433 C1447 0.931 . S
H1434 C1449 0.930 . S
C1435 H1423 0.930 . S
C1435 C1436 1.399 . S
C1435 C1440 1.399 . S
C1436 C1435 1.399 . S
C1436 C1437 1.376 . S
C1437 H1424 0.930 . S
C1437 C1436 1.376 . S
C1437 C1438 1.388 . S
C1438 H1425 0.930 . S
C1438 C1437 1.388 . S
C1438 C1439 1.390 . S
C1439 C1438 1.390 . S
C1439 C1440 1.394 . S
C1439 C1445 1.465 . S
C1440 C1435 1.399 . S
C1440 C1439 1.394 . S
C1440 C1441 1.516 . S
C1441 C1440 1.516 . S
C1441 C1442 1.502 . S
C1441 C1443 1.561 . S
C1441 C1444 1.526 . S
C1442 H1426 0.959 . S
C1442 H1427 0.959 . S
C1442 H1428 0.961 . S
C1442 C1441 1.502 . S
C1443 H1429 0.960 . S
C1443 H1430 0.961 . S
C1443 H1431 0.959 . S
C1443 C1441 1.561 . S
C1444 C1441 1.526 . S
C1444 C1445 1.396 . S
C1444 C1449 1.390 . S
C1445 C1439 1.465 . S
C1445 C1444 1.396 . S
C1445 C1446 1.419 . S
C1446 H1432 0.915 1_565 S
C1446 C1445 1.419 . S
C1446 C1447 1.381 1_565 S
C1447 H1433 0.931 . S
C1447 C1446 1.381 1_545 S
C1447 C1448 1.389 1_545 S
C1448 C1447 1.389 1_565 S
C1448 C1449 1.387 . S
C1449 H1434 0.930 . S
C1449 C1444 1.390 . S
C1449 C1448 1.387 . S
H1450 C1462 0.930 . S
H1451 C1464 0.930 . S
H1452 C1465 0.930 . S
H1453 C1469 0.959 . S
H1454 C1469 0.959 . S
H1455 C1469 0.961 . S
H1456 C1470 0.960 . S
H1457 C1470 0.961 . S
H1458 C1470 0.959 . S
H1459 C1473 0.929 . S
H1460 C1474 0.931 . S
H1461 C1476 0.930 . S
C1462 H1450 0.930 . S
C1462 C1463 1.399 . S
C1462 C1467 1.399 . S
C1463 C1462 1.399 . S
C1463 C1464 1.376 . S
C1464 H1451 0.930 . S
C1464 C1463 1.376 . S
C1464 C1465 1.388 . S
C1465 H1452 0.930 . S
C1465 C1464 1.388 . S
C1465 C1466 1.390 . S
C1466 C1465 1.390 . S
C1466 C1467 1.394 . S
C1466 C1472 1.465 . S
C1467 C1462 1.399 . S
C1467 C1466 1.394 . S
C1467 C1468 1.516 . S
C1468 C1467 1.516 . S
C1468 C1469 1.502 . S
C1468 C1470 1.561 . S
C1468 C1471 1.526 . S
C1469 H1453 0.959 . S
C1469 H1454 0.959 . S
C1469 H1455 0.961 . S
C1469 C1468 1.502 . S
C1470 H1456 0.960 . S
C1470 H1457 0.961 . S
C1470 H1458 0.959 . S
C1470 C1468 1.561 . S
C1471 C1468 1.526 . S
C1471 C1472 1.396 . S
C1471 C1476 1.390 . S
C1472 C1466 1.465 . S
C1472 C1471 1.396 . S
C1472 C1473 1.399 . S
C1473 H1459 0.929 . S
C1473 C1472 1.399 . S
C1473 C1474 1.385 . S
C1474 H1460 0.931 . S
C1474 C1473 1.385 . S
C1474 C1475 1.389 . S
C1475 C1474 1.389 . S
C1475 C1476 1.387 . S
C1476 H1461 0.930 . S
C1476 C1471 1.390 . S
C1476 C1475 1.387 . S
H1477 C1489 0.930 . S
H1478 C1491 0.930 . S
H1479 C1492 0.930 . S
H1480 C1496 0.959 . S
H1481 C1496 0.959 . S
H1482 C1496 0.961 . S
H1483 C1497 0.960 . S
H1484 C1497 0.961 . S
H1485 C1497 0.959 . S
H1486 C1500 0.929 . S
H1487 C1501 0.931 . S
H1488 C1503 0.930 . S
C1489 H1477 0.930 . S
C1489 C1490 1.399 . S
C1489 C1494 1.399 . S
C1490 C1489 1.399 . S
C1490 C1491 1.376 . S
C1491 H1478 0.930 . S
C1491 C1490 1.376 . S
C1491 C1492 1.388 . S
C1492 H1479 0.930 . S
C1492 C1491 1.388 . S
C1492 C1493 1.390 . S
C1493 C1492 1.390 . S
C1493 C1494 1.394 . S
C1493 C1499 1.465 . S
C1494 C1489 1.399 . S
C1494 C1493 1.394 . S
C1494 C1495 1.516 . S
C1495 C1494 1.516 . S
C1495 C1496 1.502 . S
C1495 C1497 1.561 . S
C1495 C1498 1.526 . S
C1496 H1480 0.959 . S
C1496 H1481 0.959 . S
C1496 H1482 0.961 . S
C1496 C1495 1.502 . S
C1497 H1483 0.960 . S
C1497 H1484 0.961 . S
C1497 H1485 0.959 . S
C1497 C1495 1.561 . S
C1498 C1495 1.526 . S
C1498 C1499 1.396 . S
C1498 C1503 1.390 . S
C1499 C1493 1.465 . S
C1499 C1498 1.396 . S
C1499 C1500 1.399 . S
C1500 H1486 0.929 . S
C1500 C1499 1.399 . S
C1500 C1501 1.385 . S
C1501 H1487 0.931 . S
C1501 C1500 1.385 . S
C1501 C1502 1.389 . S
C1502 C1501 1.389 . S
C1502 C1503 1.387 . S
C1503 H1488 0.930 . S
C1503 C1498 1.390 . S
C1503 C1502 1.387 . S
H1504 C1516 0.930 . S
H1505 C1518 0.930 . S
H1506 C1519 0.930 . S
H1507 C1523 0.959 . S
H1508 C1523 0.959 . S
H1509 C1523 0.961 . S
H1510 C1524 0.960 . S
H1511 C1524 0.961 1_554 S
H1512 C1524 0.959 . S
H1513 C1527 0.929 . S
H1514 C1528 0.931 . S
H1515 C1530 0.930 1_554 S
C1516 H1504 0.930 . S
C1516 C1517 1.399 . S
C1516 C1521 1.399 1_655 S
C1517 C1516 1.399 . S
C1517 C1518 1.376 1_655 S
C1518 H1505 0.930 . S
C1518 C1517 1.376 1_455 S
C1518 C1519 1.388 . S
C1519 H1506 0.930 . S
C1519 C1518 1.388 . S
C1519 C1520 1.390 . S
C1520 C1519 1.390 . S
C1520 C1521 1.394 . S
C1520 C1526 1.465 . S
C1521 C1516 1.399 1_455 S
C1521 C1520 1.394 . S
C1521 C1522 1.519 . S
C1522 C1521 1.519 . S
C1522 C1523 1.484 1_455 S
C1522 C1524 1.568 . S
C1522 C1525 1.536 . S
C1523 H1507 0.959 . S
C1523 H1508 0.959 . S
C1523 H1509 0.961 . S
C1523 C1522 1.484 1_655 S
C1524 H1510 0.960 . S
C1524 H1511 0.961 1_556 S
C1524 H1512 0.959 . S
C1524 C1522 1.568 . S
C1525 C1522 1.536 . S
C1525 C1526 1.396 . S
C1525 C1530 1.390 . S
C1526 C1520 1.465 . S
C1526 C1525 1.396 . S
C1526 C1527 1.399 . S
C1527 H1513 0.929 . S
C1527 C1526 1.399 . S
C1527 C1528 1.385 . S
C1528 H1514 0.931 . S
C1528 C1527 1.385 . S
C1528 C1529 1.389 . S
C1529 C1528 1.389 . S
C1529 C1530 1.387 . S
C1530 H1515 0.930 1_556 S
C1530 C1525 1.390 . S
C1530 C1529 1.387 . S
H1531 C1543 0.930 . S
H1532 C1545 0.930 . S
H1533 C1546 0.930 . S
H1534 C1550 0.959 . S
H1535 C1550 0.959 . S
H1536 C1550 0.961 . S
H1537 C1551 0.960 . S
H1538 C1551 0.961 . S
H1539 C1551 0.959 . S
H1540 C1554 0.929 . S
H1541 C1555 0.931 . S
H1542 C1557 0.930 . S
C1543 H1531 0.930 . S
C1543 C1544 1.399 . S
C1543 C1548 1.399 . S
C1544 C1543 1.399 . S
C1544 C1545 1.376 . S
C1545 H1532 0.930 . S
C1545 C1544 1.376 . S
C1545 C1546 1.388 . S
C1546 H1533 0.930 . S
C1546 C1545 1.388 . S
C1546 C1547 1.390 . S
C1547 C1546 1.390 . S
C1547 C1548 1.394 . S
C1547 C1553 1.465 . S
C1548 C1543 1.399 . S
C1548 C1547 1.394 . S
C1548 C1549 1.516 . S
C1549 C1548 1.516 . S
C1549 C1550 1.502 . S
C1549 C1551 1.561 . S
C1549 C1552 1.526 . S
C1550 H1534 0.959 . S
C1550 H1535 0.959 . S
C1550 H1536 0.961 . S
C1550 C1549 1.502 . S
C1551 H1537 0.960 . S
C1551 H1538 0.961 . S
C1551 H1539 0.959 . S
C1551 C1549 1.561 . S
C1552 C1549 1.526 . S
C1552 C1553 1.396 . S
C1552 C1557 1.390 . S
C1553 C1547 1.465 . S
C1553 C1552 1.396 . S
C1553 C1554 1.399 . S
C1554 H1540 0.929 . S
C1554 C1553 1.399 . S
C1554 C1555 1.385 . S
C1555 H1541 0.931 . S
C1555 C1554 1.385 . S
C1555 C1556 1.389 . S
C1556 C1555 1.389 . S
C1556 C1557 1.387 . S
C1557 H1542 0.930 . S
C1557 C1552 1.390 . S
C1557 C1556 1.387 . S
H1558 C1570 0.930 . S
H1559 C1572 0.930 . S
H1560 C1573 0.930 . S
H1561 C1577 0.959 . S
H1562 C1577 0.959 . S
H1563 C1577 0.961 . S
H1564 C1578 0.960 . S
H1565 C1578 0.961 . S
H1566 C1578 0.959 . S
H1567 C1581 0.929 . S
H1568 C1582 0.931 . S
H1569 C1584 0.930 . S
C1570 H1558 0.930 . S
C1570 C1571 1.399 . S
C1570 C1575 1.399 . S
C1571 C1570 1.399 . S
C1571 C1572 1.376 . S
C1572 H1559 0.930 . S
C1572 C1571 1.376 . S
C1572 C1573 1.388 . S
C1573 H1560 0.930 . S
C1573 C1572 1.388 . S
C1573 C1574 1.390 . S
C1574 C1573 1.390 . S
C1574 C1575 1.394 . S
C1574 C1580 1.465 . S
C1575 C1570 1.399 . S
C1575 C1574 1.394 . S
C1575 C1576 1.516 . S
C1576 C1575 1.516 . S
C1576 C1577 1.502 . S
C1576 C1578 1.561 . S
C1576 C1579 1.526 . S
C1577 H1561 0.959 . S
C1577 H1562 0.959 . S
C1577 H1563 0.961 . S
C1577 C1576 1.502 . S
C1578 H1564 0.960 . S
C1578 H1565 0.961 . S
C1578 H1566 0.959 . S
C1578 C1576 1.561 . S
C1579 C1576 1.526 . S
C1579 C1580 1.396 . S
C1579 C1584 1.390 . S
C1580 C1574 1.465 . S
C1580 C1579 1.396 . S
C1580 C1581 1.399 . S
C1581 H1567 0.929 . S
C1581 C1580 1.399 . S
C1581 C1582 1.385 . S
C1582 H1568 0.931 . S
C1582 C1581 1.385 . S
C1582 C1583 1.389 . S
C1583 C1582 1.389 . S
C1583 C1584 1.387 . S
C1584 H1569 0.930 . S
C1584 C1579 1.390 . S
C1584 C1583 1.387 . S
H1585 C1597 0.930 . S
H1586 C1599 0.930 . S
H1587 C1600 0.930 . S
H1588 C1604 0.959 . S
H1589 C1604 0.959 . S
H1590 C1604 0.961 . S
H1591 C1605 0.960 . S
H1592 C1605 0.961 . S
H1593 C1605 0.959 . S
H1594 C1608 0.929 . S
H1595 C1609 0.931 . S
H1596 C1611 0.930 . S
C1597 H1585 0.930 . S
C1597 C1598 1.399 . S
C1597 C1602 1.399 . S
C1598 C1597 1.399 . S
C1598 C1599 1.376 . S
C1599 H1586 0.930 . S
C1599 C1598 1.376 . S
C1599 C1600 1.388 . S
C1600 H1587 0.930 . S
C1600 C1599 1.388 . S
C1600 C1601 1.390 . S
C1601 C1600 1.390 . S
C1601 C1602 1.394 . S
C1601 C1607 1.465 . S
C1602 C1597 1.399 . S
C1602 C1601 1.394 . S
C1602 C1603 1.516 . S
C1603 C1602 1.516 . S
C1603 C1604 1.502 . S
C1603 C1605 1.561 . S
C1603 C1606 1.526 . S
C1604 H1588 0.959 . S
C1604 H1589 0.959 . S
C1604 H1590 0.961 . S
C1604 C1603 1.502 . S
C1605 H1591 0.960 . S
C1605 H1592 0.961 . S
C1605 H1593 0.959 . S
C1605 C1603 1.561 . S
C1606 C1603 1.526 . S
C1606 C1607 1.396 . S
C1606 C1611 1.390 . S
C1607 C1601 1.465 . S
C1607 C1606 1.396 . S
C1607 C1608 1.399 . S
C1608 H1594 0.929 . S
C1608 C1607 1.399 . S
C1608 C1609 1.385 . S
C1609 H1595 0.931 . S
C1609 C1608 1.385 . S
C1609 C1610 1.389 . S
C1610 C1609 1.389 . S
C1610 C1611 1.387 . S
C1611 H1596 0.930 . S
C1611 C1606 1.390 . S
C1611 C1610 1.387 . S
H1612 C1624 0.930 . S
H1613 C1626 0.930 . S
H1614 C1627 0.930 . S
H1615 C1631 0.959 . S
H1616 C1631 0.959 . S
H1617 C1631 0.961 . S
H1618 C1632 0.960 . S
H1619 C1632 0.961 . S
H1620 C1632 0.959 . S
H1621 C1635 0.929 . S
H1622 C1636 0.931 . S
H1623 C1638 0.930 . S
C1624 H1612 0.930 . S
C1624 C1625 1.399 . S
C1624 C1629 1.399 . S
C1625 C1624 1.399 . S
C1625 C1626 1.376 . S
C1626 H1613 0.930 . S
C1626 C1625 1.376 . S
C1626 C1627 1.388 . S
C1627 H1614 0.930 . S
C1627 C1626 1.388 . S
C1627 C1628 1.390 . S
C1628 C1627 1.390 . S
C1628 C1629 1.394 . S
C1628 C1634 1.465 . S
C1629 C1624 1.399 . S
C1629 C1628 1.394 . S
C1629 C1630 1.516 . S
C1630 C1629 1.516 . S
C1630 C1631 1.502 . S
C1630 C1632 1.561 . S
C1630 C1633 1.526 . S
C1631 H1615 0.959 . S
C1631 H1616 0.959 . S
C1631 H1617 0.961 . S
C1631 C1630 1.502 . S
C1632 H1618 0.960 . S
C1632 H1619 0.961 . S
C1632 H1620 0.959 . S
C1632 C1630 1.561 . S
C1633 C1630 1.526 . S
C1633 C1634 1.396 . S
C1633 C1638 1.390 . S
C1634 C1628 1.465 . S
C1634 C1633 1.396 . S
C1634 C1635 1.399 . S
C1635 H1621 0.929 . S
C1635 C1634 1.399 . S
C1635 C1636 1.385 . S
C1636 H1622 0.931 . S
C1636 C1635 1.385 . S
C1636 C1637 1.389 . S
C1637 C1636 1.389 . S
C1637 C1638 1.387 . S
C1638 H1623 0.930 . S
C1638 C1633 1.390 . S
C1638 C1637 1.387 . S
H1639 C1651 0.930 . S
H1640 C1653 0.930 . S
H1641 C1654 0.930 . S
H1642 C1658 0.959 . S
H1643 C1658 0.959 . S
H1644 C1658 0.961 . S
H1645 C1659 0.960 . S
H1646 C1659 0.961 . S
H1647 C1659 0.959 . S
H1648 C1662 0.929 . S
H1649 C1663 0.931 . S
H1650 C1665 0.930 . S
C1651 H1639 0.930 . S
C1651 C1652 1.399 . S
C1651 C1656 1.399 . S
C1652 C1651 1.399 . S
C1652 C1653 1.376 . S
C1653 H1640 0.930 . S
C1653 C1652 1.376 . S
C1653 C1654 1.388 . S
C1654 H1641 0.930 . S
C1654 C1653 1.388 . S
C1654 C1655 1.390 . S
C1655 C1654 1.390 . S
C1655 C1656 1.394 . S
C1655 C1661 1.465 . S
C1656 C1651 1.399 . S
C1656 C1655 1.394 . S
C1656 C1657 1.516 . S
C1657 C1656 1.516 . S
C1657 C1658 1.502 . S
C1657 C1659 1.561 . S
C1657 C1660 1.526 . S
C1658 H1642 0.959 . S
C1658 H1643 0.959 . S
C1658 H1644 0.961 . S
C1658 C1657 1.502 . S
C1659 H1645 0.960 . S
C1659 H1646 0.961 . S
C1659 H1647 0.959 . S
C1659 C1657 1.561 . S
C1660 C1657 1.526 . S
C1660 C1661 1.396 . S
C1660 C1665 1.390 . S
C1661 C1655 1.465 . S
C1661 C1660 1.396 . S
C1661 C1662 1.399 . S
C1662 H1648 0.929 . S
C1662 C1661 1.399 . S
C1662 C1663 1.385 . S
C1663 H1649 0.931 . S
C1663 C1662 1.385 . S
C1663 C1664 1.389 . S
C1664 C1663 1.389 . S
C1664 C1665 1.387 . S
C1665 H1650 0.930 . S
C1665 C1660 1.390 . S
C1665 C1664 1.387 . S
H1666 C1678 0.930 . S
H1667 C1680 0.930 . S
H1668 C1681 0.930 . S
H1669 C1685 0.959 . S
H1670 C1685 0.959 . S
H1671 C1685 0.961 . S
H1672 C1686 0.960 . S
H1673 C1686 0.961 . S
H1674 C1686 0.959 . S
H1675 C1689 0.929 . S
H1676 C1690 0.931 . S
H1677 C1692 0.930 . S
C1678 H1666 0.930 . S
C1678 C1679 1.399 . S
C1678 C1683 1.399 . S
C1679 C1678 1.399 . S
C1679 C1680 1.376 . S
C1680 H1667 0.930 . S
C1680 C1679 1.376 . S
C1680 C1681 1.388 . S
C1681 H1668 0.930 . S
C1681 C1680 1.388 . S
C1681 C1682 1.390 . S
C1682 C1681 1.390 . S
C1682 C1683 1.394 . S
C1682 C1688 1.465 . S
C1683 C1678 1.399 . S
C1683 C1682 1.394 . S
C1683 C1684 1.516 . S
C1684 C1683 1.516 . S
C1684 C1685 1.502 . S
C1684 C1686 1.561 . S
C1684 C1687 1.526 . S
C1685 H1669 0.959 . S
C1685 H1670 0.959 . S
C1685 H1671 0.961 . S
C1685 C1684 1.502 . S
C1686 H1672 0.960 . S
C1686 H1673 0.961 . S
C1686 H1674 0.959 . S
C1686 C1684 1.561 . S
C1687 C1684 1.526 . S
C1687 C1688 1.396 . S
C1687 C1692 1.390 . S
C1688 C1682 1.465 . S
C1688 C1687 1.396 . S
C1688 C1689 1.399 . S
C1689 H1675 0.929 . S
C1689 C1688 1.399 . S
C1689 C1690 1.385 . S
C1690 H1676 0.931 . S
C1690 C1689 1.385 . S
C1690 C1691 1.389 . S
C1691 C1690 1.389 . S
C1691 C1692 1.387 . S
C1692 H1677 0.930 . S
C1692 C1687 1.390 . S
C1692 C1691 1.387 . S
H1693 C1705 0.930 . S
H1694 C1707 0.930 . S
H1695 C1708 0.930 . S
H1696 C1712 0.959 . S
H1697 C1712 0.959 . S
H1698 C1712 0.961 . S
H1699 C1713 0.960 . S
H1700 C1713 0.961 . S
H1701 C1713 0.959 . S
H1702 C1716 0.929 . S
H1703 C1717 0.931 . S
H1704 C1719 0.930 . S
C1705 H1693 0.930 . S
C1705 C1706 1.399 . S
C1705 C1710 1.399 . S
C1706 C1705 1.399 . S
C1706 C1707 1.376 . S
C1707 H1694 0.930 . S
C1707 C1706 1.376 . S
C1707 C1708 1.388 . S
C1708 H1695 0.930 . S
C1708 C1707 1.388 . S
C1708 C1709 1.390 . S
C1709 C1708 1.390 . S
C1709 C1710 1.394 . S
C1709 C1715 1.465 . S
C1710 C1705 1.399 . S
C1710 C1709 1.394 . S
C1710 C1711 1.516 . S
C1711 C1710 1.516 . S
C1711 C1712 1.502 . S
C1711 C1713 1.561 . S
C1711 C1714 1.526 . S
C1712 H1696 0.959 . S
C1712 H1697 0.959 . S
C1712 H1698 0.961 . S
C1712 C1711 1.502 . S
C1713 H1699 0.960 . S
C1713 H1700 0.961 . S
C1713 H1701 0.959 . S
C1713 C1711 1.561 . S
C1714 C1711 1.526 . S
C1714 C1715 1.396 . S
C1714 C1719 1.390 . S
C1715 C1709 1.465 . S
C1715 C1714 1.396 . S
C1715 C1716 1.399 . S
C1716 H1702 0.929 . S
C1716 C1715 1.399 . S
C1716 C1717 1.385 . S
C1717 H1703 0.931 . S
C1717 C1716 1.385 . S
C1717 C1718 1.389 . S
C1718 C1717 1.389 . S
C1718 C1719 1.387 . S
C1719 H1704 0.930 . S
C1719 C1714 1.390 . S
C1719 C1718 1.387 . S
H1720 C1732 0.930 . S
H1721 C1734 0.930 . S
H1722 C1735 0.930 . S
H1723 C1739 0.959 . S
H1724 C1739 0.959 . S
H1725 C1739 0.961 . S
H1726 C1740 0.960 . S
H1727 C1740 0.961 . S
H1728 C1740 0.959 . S
H1729 C1743 0.929 . S
H1730 C1744 0.931 1_565 S
H1731 C1746 0.958 . S
C1732 H1720 0.930 . S
C1732 C1733 1.399 1_545 S
C1732 C1737 1.399 . S
C1733 C1732 1.399 1_565 S
C1733 C1734 1.376 . S
C1734 H1721 0.930 . S
C1734 C1733 1.376 . S
C1734 C1735 1.388 . S
C1735 H1722 0.930 . S
C1735 C1734 1.388 . S
C1735 C1736 1.390 1_565 S
C1736 C1735 1.390 1_545 S
C1736 C1737 1.394 . S
C1736 C1742 1.465 . S
C1737 C1732 1.399 . S
C1737 C1736 1.394 . S
C1737 C1738 1.516 . S
C1738 C1737 1.516 . S
C1738 C1739 1.502 1_655 S
C1738 C1740 1.561 . S
C1738 C1741 1.526 . S
C1739 H1723 0.959 . S
C1739 H1724 0.959 . S
C1739 H1725 0.961 . S
C1739 C1738 1.502 1_455 S
C1740 H1726 0.960 . S
C1740 H1727 0.961 . S
C1740 H1728 0.959 . S
C1740 C1738 1.561 . S
C1741 C1738 1.526 . S
C1741 C1742 1.396 . S
C1741 C1746 1.367 1_655 S
C1742 C1736 1.465 . S
C1742 C1741 1.396 . S
C1742 C1743 1.399 1_545 S
C1743 H1729 0.929 . S
C1743 C1742 1.399 1_565 S
C1743 C1744 1.385 1_565 S
C1744 H1730 0.931 1_545 S
C1744 C1743 1.385 1_545 S
C1744 C1745 1.389 . S
C1745 C1744 1.389 . S
C1745 C1746 1.382 1_655 S
C1746 H1731 0.958 . S
C1746 C1741 1.367 1_455 S
C1746 C1745 1.382 1_455 S
H1747 C1759 0.930 . S
H1748 C1761 0.930 . S
H1749 C1762 0.930 . S
H1750 C1766 0.959 . S
H1751 C1766 0.959 . S
H1752 C1766 0.961 . S
H1753 C1767 0.960 . S
H1754 C1767 0.961 . S
H1755 C1767 0.959 . S
H1756 C1770 0.929 . S
H1757 C1771 0.931 . S
H1758 C1773 0.930 . S
C1759 H1747 0.930 . S
C1759 C1760 1.399 . S
C1759 C1764 1.399 . S
C1760 C1759 1.399 . S
C1760 C1761 1.376 . S
C1761 H1748 0.930 . S
C1761 C1760 1.376 . S
C1761 C1762 1.388 . S
C1762 H1749 0.930 . S
C1762 C1761 1.388 . S
C1762 C1763 1.390 . S
C1763 C1762 1.390 . S
C1763 C1764 1.394 . S
C1763 C1769 1.465 . S
C1764 C1759 1.399 . S
C1764 C1763 1.394 . S
C1764 C1765 1.516 . S
C1765 C1764 1.516 . S
C1765 C1766 1.502 . S
C1765 C1767 1.561 . S
C1765 C1768 1.526 . S
C1766 H1750 0.959 . S
C1766 H1751 0.959 . S
C1766 H1752 0.961 . S
C1766 C1765 1.502 . S
C1767 H1753 0.960 . S
C1767 H1754 0.961 . S
C1767 H1755 0.959 . S
C1767 C1765 1.561 . S
C1768 C1765 1.526 . S
C1768 C1769 1.396 . S
C1768 C1773 1.390 . S
C1769 C1763 1.465 . S
C1769 C1768 1.396 . S
C1769 C1770 1.399 . S
C1770 H1756 0.929 . S
C1770 C1769 1.399 . S
C1770 C1771 1.385 . S
C1771 H1757 0.931 . S
C1771 C1770 1.385 . S
C1771 C1772 1.389 . S
C1772 C1771 1.389 . S
C1772 C1773 1.387 . S
C1773 H1758 0.930 . S
C1773 C1768 1.390 . S
C1773 C1772 1.387 . S
H1774 C1786 0.930 . S
H1775 C1788 0.930 . S
H1776 C1789 0.930 . S
H1777 C1793 0.959 . S
H1778 C1793 0.959 . S
H1779 C1793 0.961 . S
H1780 C1794 0.960 . S
H1781 C1794 0.961 . S
H1782 C1794 0.959 . S
H1783 C1797 0.929 . S
H1784 C1798 0.931 . S
H1785 C1800 0.930 . S
C1786 H1774 0.930 . S
C1786 C1787 1.399 1_565 S
C1786 C1791 1.399 . S
C1787 C1786 1.399 1_545 S
C1787 C1788 1.376 . S
C1788 H1775 0.930 . S
C1788 C1787 1.376 . S
C1788 C1789 1.388 . S
C1789 H1776 0.930 . S
C1789 C1788 1.388 . S
C1789 C1790 1.390 . S
C1790 C1789 1.390 . S
C1790 C1791 1.388 1_545 S
C1790 C1796 1.465 . S
C1791 C1786 1.399 . S
C1791 C1790 1.388 1_565 S
C1791 C1792 1.521 . S
C1792 C1791 1.521 . S
C1792 C1793 1.502 . S
C1792 C1794 1.561 . S
C1792 C1795 1.526 . S
C1793 H1777 0.959 . S
C1793 H1778 0.959 . S
C1793 H1779 0.961 . S
C1793 C1792 1.502 . S
C1794 H1780 0.960 . S
C1794 H1781 0.961 . S
C1794 H1782 0.959 . S
C1794 C1792 1.561 . S
C1795 C1792 1.526 . S
C1795 C1796 1.396 1_565 S
C1795 C1800 1.390 . S
C1796 C1790 1.465 . S
C1796 C1795 1.396 1_545 S
C1796 C1797 1.399 . S
C1797 H1783 0.929 . S
C1797 C1796 1.399 . S
C1797 C1798 1.385 . S
C1798 H1784 0.931 . S
C1798 C1797 1.385 . S
C1798 C1799 1.389 . S
C1799 C1798 1.389 . S
C1799 C1800 1.387 1_545 S
C1800 H1785 0.930 . S
C1800 C1795 1.390 . S
C1800 C1799 1.387 1_565 S
H1801 C1813 0.930 . S
H1802 C1815 0.930 . S
H1803 C1816 0.930 . S
H1804 C1820 0.959 . S
H1805 C1820 0.959 . S
H1806 C1820 0.961 . S
H1807 C1821 0.960 . S
H1808 C1821 0.961 . S
H1809 C1821 0.959 . S
H1810 C1824 0.929 . S
H1811 C1825 0.931 . S
H1812 C1827 0.930 . S
C1813 H1801 0.930 . S
C1813 C1814 1.399 . S
C1813 C1818 1.399 . S
C1814 C1813 1.399 . S
C1814 C1815 1.376 . S
C1815 H1802 0.930 . S
C1815 C1814 1.376 . S
C1815 C1816 1.388 . S
C1816 H1803 0.930 . S
C1816 C1815 1.388 . S
C1816 C1817 1.390 . S
C1817 C1816 1.390 . S
C1817 C1818 1.394 . S
C1817 C1823 1.465 . S
C1818 C1813 1.399 . S
C1818 C1817 1.394 . S
C1818 C1819 1.516 . S
C1819 C1818 1.516 . S
C1819 C1820 1.502 . S
C1819 C1821 1.561 . S
C1819 C1822 1.526 . S
C1820 H1804 0.959 . S
C1820 H1805 0.959 . S
C1820 H1806 0.961 . S
C1820 C1819 1.502 . S
C1821 H1807 0.960 . S
C1821 H1808 0.961 . S
C1821 H1809 0.959 . S
C1821 C1819 1.561 . S
C1822 C1819 1.526 . S
C1822 C1823 1.396 . S
C1822 C1827 1.390 . S
C1823 C1817 1.465 . S
C1823 C1822 1.396 . S
C1823 C1824 1.399 . S
C1824 H1810 0.929 . S
C1824 C1823 1.399 . S
C1824 C1825 1.385 . S
C1825 H1811 0.931 . S
C1825 C1824 1.385 . S
C1825 C1826 1.389 . S
C1826 C1825 1.389 . S
C1826 C1827 1.387 . S
C1827 H1812 0.930 . S
C1827 C1822 1.390 . S
C1827 C1826 1.387 . S
H1828 C1840 0.930 . S
H1829 C1842 0.930 . S
H1830 C1843 0.930 . S
H1831 C1847 0.959 . S
H1832 C1847 0.959 . S
H1833 C1847 0.961 . S
H1834 C1848 0.960 . S
H1835 C1848 0.961 . S
H1836 C1848 0.959 1_545 S
H1837 C1851 0.929 1_455 S
H1838 C1852 0.939 1_455 S
H1839 C1854 0.930 . S
C1840 H1828 0.930 . S
C1840 C1841 1.399 1_565 S
C1840 C1845 1.399 . S
C1841 C1840 1.399 1_545 S
C1841 C1842 1.376 . S
C1842 H1829 0.930 . S
C1842 C1841 1.376 . S
C1842 C1843 1.388 . S
C1843 H1830 0.930 . S
C1843 C1842 1.388 . S
C1843 C1844 1.390 . S
C1844 C1843 1.390 . S
C1844 C1845 1.394 1_545 S
C1844 C1850 1.465 . S
C1845 C1840 1.399 . S
C1845 C1844 1.394 1_565 S
C1845 C1846 1.516 . S
C1846 C1845 1.516 . S
C1846 C1847 1.502 . S
C1846 C1848 1.561 . S
C1846 C1849 1.526 . S
C1847 H1831 0.959 . S
C1847 H1832 0.959 . S
C1847 H1833 0.961 . S
C1847 C1846 1.502 . S
C1848 H1834 0.960 . S
C1848 H1835 0.961 . S
C1848 H1836 0.959 1_565 S
C1848 C1846 1.561 . S
C1849 C1846 1.526 . S
C1849 C1850 1.396 1_565 S
C1849 C1854 1.390 . S
C1850 C1844 1.465 . S
C1850 C1849 1.396 1_545 S
C1850 C1851 1.399 . S
C1851 H1837 0.929 1_655 S
C1851 C1850 1.399 . S
C1851 C1852 1.395 . S
C1852 H1838 0.939 1_655 S
C1852 C1851 1.395 . S
C1852 C1853 1.372 1_545 S
C1853 C1852 1.372 1_565 S
C1853 C1854 1.387 . S
C1854 H1839 0.930 . S
C1854 C1849 1.390 . S
C1854 C1853 1.387 . S
H1855 C1867 0.930 . S
H1856 C1869 0.930 . S
H1857 C1870 0.930 . S
H1858 C1874 0.959 . S
H1859 C1874 0.959 . S
H1860 C1874 0.961 . S
H1861 C1875 0.960 . S
H1862 C1875 0.961 . S
H1863 C1875 0.959 . S
H1864 C1878 0.929 . S
H1865 C1879 0.931 . S
H1866 C1881 0.930 . S
C1867 H1855 0.930 . S
C1867 C1868 1.399 . S
C1867 C1872 1.399 . S
C1868 C1867 1.399 . S
C1868 C1869 1.376 . S
C1869 H1856 0.930 . S
C1869 C1868 1.376 . S
C1869 C1870 1.388 . S
C1870 H1857 0.930 . S
C1870 C1869 1.388 . S
C1870 C1871 1.390 . S
C1871 C1870 1.390 . S
C1871 C1872 1.394 . S
C1871 C1877 1.465 . S
C1872 C1867 1.399 . S
C1872 C1871 1.394 . S
C1872 C1873 1.516 . S
C1873 C1872 1.516 . S
C1873 C1874 1.502 . S
C1873 C1875 1.561 . S
C1873 C1876 1.526 . S
C1874 H1858 0.959 . S
C1874 H1859 0.959 . S
C1874 H1860 0.961 . S
C1874 C1873 1.502 . S
C1875 H1861 0.960 . S
C1875 H1862 0.961 . S
C1875 H1863 0.959 . S
C1875 C1873 1.561 . S
C1876 C1873 1.526 . S
C1876 C1877 1.396 . S
C1876 C1881 1.390 . S
C1877 C1871 1.465 . S
C1877 C1876 1.396 . S
C1877 C1878 1.399 . S
C1878 H1864 0.929 . S
C1878 C1877 1.399 . S
C1878 C1879 1.385 . S
C1879 H1865 0.931 . S
C1879 C1878 1.385 . S
C1879 C1880 1.389 . S
C1880 C1879 1.389 . S
C1880 C1881 1.387 . S
C1881 H1866 0.930 . S
C1881 C1876 1.390 . S
C1881 C1880 1.387 . S
H1882 C1894 0.930 . S
H1883 C1896 0.930 . S
H1884 C1897 0.930 . S
H1885 C1901 0.959 . S
H1886 C1901 0.959 . S
H1887 C1901 0.961 . S
H1888 C1902 0.960 . S
H1889 C1902 0.961 . S
H1890 C1902 0.959 . S
H1891 C1905 0.929 . S
H1892 C1906 0.931 1_565 S
H1893 C1908 0.930 . S
C1894 H1882 0.930 . S
C1894 C1895 1.399 . S
C1894 C1899 1.399 . S
C1895 C1894 1.399 . S
C1895 C1896 1.376 1_545 S
C1896 H1883 0.930 . S
C1896 C1895 1.376 1_565 S
C1896 C1897 1.388 . S
C1897 H1884 0.930 . S
C1897 C1896 1.388 . S
C1897 C1898 1.390 1_565 S
C1898 C1897 1.390 1_545 S
C1898 C1899 1.394 . S
C1898 C1904 1.465 . S
C1899 C1894 1.399 . S
C1899 C1898 1.394 . S
C1899 C1900 1.516 . S
C1900 C1899 1.516 . S
C1900 C1901 1.502 . S
C1900 C1902 1.561 . S
C1900 C1903 1.526 . S
C1901 H1885 0.959 . S
C1901 H1886 0.959 . S
C1901 H1887 0.961 . S
C1901 C1900 1.502 . S
C1902 H1888 0.960 . S
C1902 H1889 0.961 . S
C1902 H1890 0.959 . S
C1902 C1900 1.561 . S
C1903 C1900 1.526 . S
C1903 C1904 1.396 . S
C1903 C1908 1.390 . S
C1904 C1898 1.465 . S
C1904 C1903 1.396 . S
C1904 C1905 1.399 1_545 S
C1905 H1891 0.929 . S
C1905 C1904 1.399 1_565 S
C1905 C1906 1.385 1_565 S
C1906 H1892 0.931 1_545 S
C1906 C1905 1.385 1_545 S
C1906 C1907 1.389 . S
C1907 C1906 1.389 . S
C1907 C1908 1.387 . S
C1908 H1893 0.930 . S
C1908 C1903 1.390 . S
C1908 C1907 1.387 . S
H1909 C1921 0.930 . S
H1910 C1923 0.930 . S
H1911 C1924 0.930 . S
H1912 C1928 0.959 . S
H1913 C1928 0.959 . S
H1914 C1928 0.961 . S
H1915 C1929 0.960 . S
H1916 C1929 0.961 . S
H1917 C1929 0.959 . S
H1918 C1932 0.929 . S
H1919 C1933 0.931 . S
H1920 C1935 0.930 . S
C1921 H1909 0.930 . S
C1921 C1922 1.399 . S
C1921 C1926 1.399 . S
C1922 C1921 1.399 . S
C1922 C1923 1.376 . S
C1923 H1910 0.930 . S
C1923 C1922 1.376 . S
C1923 C1924 1.388 . S
C1924 H1911 0.930 . S
C1924 C1923 1.388 . S
C1924 C1925 1.390 . S
C1925 C1924 1.390 . S
C1925 C1926 1.394 . S
C1925 C1931 1.465 . S
C1926 C1921 1.399 . S
C1926 C1925 1.394 . S
C1926 C1927 1.516 . S
C1927 C1926 1.516 . S
C1927 C1928 1.502 . S
C1927 C1929 1.561 . S
C1927 C1930 1.526 . S
C1928 H1912 0.959 . S
C1928 H1913 0.959 . S
C1928 H1914 0.961 . S
C1928 C1927 1.502 . S
C1929 H1915 0.960 . S
C1929 H1916 0.961 . S
C1929 H1917 0.959 . S
C1929 C1927 1.561 . S
C1930 C1927 1.526 . S
C1930 C1931 1.396 . S
C1930 C1935 1.390 . S
C1931 C1925 1.465 . S
C1931 C1930 1.396 . S
C1931 C1932 1.399 . S
C1932 H1918 0.929 . S
C1932 C1931 1.399 . S
C1932 C1933 1.385 . S
C1933 H1919 0.931 . S
C1933 C1932 1.385 . S
C1933 C1934 1.389 . S
C1934 C1933 1.389 . S
C1934 C1935 1.387 . S
C1935 H1920 0.930 . S
C1935 C1930 1.390 . S
C1935 C1934 1.387 . S
H1936 C1948 0.930 1_556 S
H1937 C1950 0.930 . S
H1938 C1951 0.930 . S
H1939 C1955 0.959 . S
H1940 C1955 0.959 . S
H1941 C1955 0.961 . S
H1942 C1956 0.960 1_556 S
H1943 C1956 0.961 1_556 S
H1944 C1956 0.959 . S
H1945 C1959 0.929 . S
H1946 C1960 0.931 . S
H1947 C1962 0.930 . S
C1948 H1936 0.930 1_554 S
C1948 C1949 1.399 . S
C1948 C1953 1.399 . S
C1949 C1948 1.399 . S
C1949 C1950 1.376 . S
C1950 H1937 0.930 . S
C1950 C1949 1.376 . S
C1950 C1951 1.388 . S
C1951 H1938 0.930 . S
C1951 C1950 1.388 . S
C1951 C1952 1.390 . S
C1952 C1951 1.390 . S
C1952 C1953 1.394 . S
C1952 C1958 1.465 . S
C1953 C1948 1.399 . S
C1953 C1952 1.394 . S
C1953 C1954 1.516 . S
C1954 C1953 1.516 . S
C1954 C1955 1.502 1_554 S
C1954 C1956 1.561 . S
C1954 C1957 1.526 . S
C1955 H1939 0.959 . S
C1955 H1940 0.959 . S
C1955 H1941 0.961 . S
C1955 C1954 1.502 1_556 S
C1956 H1942 0.960 1_554 S
C1956 H1943 0.961 1_554 S
C1956 H1944 0.959 . S
C1956 C1954 1.561 . S
C1957 C1954 1.526 . S
C1957 C1958 1.396 . S
C1957 C1962 1.390 . S
C1958 C1952 1.465 . S
C1958 C1957 1.396 . S
C1958 C1959 1.399 . S
C1959 H1945 0.929 . S
C1959 C1958 1.399 . S
C1959 C1960 1.385 . S
C1960 H1946 0.931 . S
C1960 C1959 1.385 . S
C1960 C1961 1.389 . S
C1961 C1960 1.389 . S
C1961 C1962 1.387 . S
C1962 H1947 0.930 . S
C1962 C1957 1.390 . S
C1962 C1961 1.387 . S
H1963 C1975 0.930 . S
H1964 C1977 0.930 . S
H1965 C1978 0.930 . S
H1966 C1982 0.959 . S
H1967 C1982 0.959 . S
H1968 C1982 0.961 . S
H1969 C1983 0.960 . S
H1970 C1983 0.961 . S
H1971 C1983 0.959 . S
H1972 C1986 0.929 . S
H1973 C1987 0.931 . S
H1974 C1989 0.930 . S
C1975 H1963 0.930 . S
C1975 C1976 1.399 1_556 S
C1975 C1980 1.399 . S
C1976 C1975 1.399 1_554 S
C1976 C1977 1.376 . S
C1977 H1964 0.930 . S
C1977 C1976 1.376 . S
C1977 C1978 1.388 . S
C1978 H1965 0.930 . S
C1978 C1977 1.388 . S
C1978 C1979 1.390 . S
C1979 C1978 1.390 . S
C1979 C1980 1.394 1_554 S
C1979 C1985 1.465 . S
C1980 C1975 1.399 . S
C1980 C1979 1.394 1_556 S
C1980 C1981 1.516 . S
C1981 C1980 1.516 . S
C1981 C1982 1.502 . S
C1981 C1983 1.561 . S
C1981 C1984 1.526 1_556 S
C1982 H1966 0.959 . S
C1982 H1967 0.959 . S
C1982 H1968 0.961 . S
C1982 C1981 1.502 . S
C1983 H1969 0.960 . S
C1983 H1970 0.961 . S
C1983 H1971 0.959 . S
C1983 C1981 1.561 . S
C1984 C1981 1.526 1_554 S
C1984 C1985 1.396 . S
C1984 C1989 1.390 1_554 S
C1985 C1979 1.465 . S
C1985 C1984 1.396 . S
C1985 C1986 1.399 . S
C1986 H1972 0.929 . S
C1986 C1985 1.399 . S
C1986 C1987 1.385 . S
C1987 H1973 0.931 . S
C1987 C1986 1.385 . S
C1987 C1988 1.389 . S
C1988 C1987 1.389 . S
C1988 C1989 1.387 1_554 S
C1989 H1974 0.930 . S
C1989 C1984 1.390 1_556 S
C1989 C1988 1.387 1_556 S
H1990 C2002 0.930 . S
H1991 C2004 0.930 . S
H1992 C2005 0.930 . S
H1993 C2009 0.959 . S
H1994 C2009 0.959 . S
H1995 C2009 0.961 . S
H1996 C2010 0.960 . S
H1997 C2010 0.961 . S
H1998 C2010 0.959 . S
H1999 C2013 0.929 . S
H2000 C2014 0.931 . S
H2001 C2016 0.930 . S
C2002 H1990 0.930 . S
C2002 C2003 1.399 . S
C2002 C2007 1.399 . S
C2003 C2002 1.399 . S
C2003 C2004 1.376 . S
C2004 H1991 0.930 . S
C2004 C2003 1.376 . S
C2004 C2005 1.388 . S
C2005 H1992 0.930 . S
C2005 C2004 1.388 . S
C2005 C2006 1.390 . S
C2006 C2005 1.390 . S
C2006 C2007 1.394 . S
C2006 C2012 1.465 . S
C2007 C2002 1.399 . S
C2007 C2006 1.394 . S
C2007 C2008 1.516 . S
C2008 C2007 1.516 . S
C2008 C2009 1.502 . S
C2008 C2010 1.561 . S
C2008 C2011 1.526 . S
C2009 H1993 0.959 . S
C2009 H1994 0.959 . S
C2009 H1995 0.961 . S
C2009 C2008 1.502 . S
C2010 H1996 0.960 . S
C2010 H1997 0.961 . S
C2010 H1998 0.959 . S
C2010 C2008 1.561 . S
C2011 C2008 1.526 . S
C2011 C2012 1.396 . S
C2011 C2016 1.390 . S
C2012 C2006 1.465 . S
C2012 C2011 1.396 . S
C2012 C2013 1.399 . S
C2013 H1999 0.929 . S
C2013 C2012 1.399 . S
C2013 C2014 1.385 . S
C2014 H2000 0.931 . S
C2014 C2013 1.385 . S
C2014 C2015 1.389 . S
C2015 C2014 1.389 . S
C2015 C2016 1.387 . S
C2016 H2001 0.930 . S
C2016 C2011 1.390 . S
C2016 C2015 1.387 . S
H2017 C2029 0.930 . S
H2018 C2031 0.930 . S
H2019 C2032 0.930 . S
H2020 C2036 0.959 . S
H2021 C2036 0.959 . S
H2022 C2036 0.961 . S
H2023 C2037 0.960 . S
H2024 C2037 0.961 . S
H2025 C2037 0.959 . S
H2026 C2040 0.929 . S
H2027 C2041 0.931 . S
H2028 C2043 0.930 . S
C2029 H2017 0.930 . S
C2029 C2030 1.399 . S
C2029 C2034 1.399 . S
C2030 C2029 1.399 . S
C2030 C2031 1.376 . S
C2031 H2018 0.930 . S
C2031 C2030 1.376 . S
C2031 C2032 1.388 . S
C2032 H2019 0.930 . S
C2032 C2031 1.388 . S
C2032 C2033 1.390 . S
C2033 C2032 1.390 . S
C2033 C2034 1.394 . S
C2033 C2039 1.465 . S
C2034 C2029 1.399 . S
C2034 C2033 1.394 . S
C2034 C2035 1.516 . S
C2035 C2034 1.516 . S
C2035 C2036 1.502 . S
C2035 C2037 1.561 . S
C2035 C2038 1.526 . S
C2036 H2020 0.959 . S
C2036 H2021 0.959 . S
C2036 H2022 0.961 . S
C2036 C2035 1.502 . S
C2037 H2023 0.960 . S
C2037 H2024 0.961 . S
C2037 H2025 0.959 . S
C2037 C2035 1.561 . S
C2038 C2035 1.526 . S
C2038 C2039 1.396 . S
C2038 C2043 1.390 . S
C2039 C2033 1.465 . S
C2039 C2038 1.396 . S
C2039 C2040 1.399 . S
C2040 H2026 0.929 . S
C2040 C2039 1.399 . S
C2040 C2041 1.385 . S
C2041 H2027 0.931 . S
C2041 C2040 1.385 . S
C2041 C2042 1.389 . S
C2042 C2041 1.389 . S
C2042 C2043 1.387 . S
C2043 H2028 0.930 . S
C2043 C2038 1.390 . S
C2043 C2042 1.387 . S
H2044 C2056 0.930 . S
H2045 C2058 0.930 . S
H2046 C2059 0.930 . S
H2047 C2063 0.959 . S
H2048 C2063 0.959 . S
H2049 C2063 0.961 . S
H2050 C2064 0.960 . S
H2051 C2064 0.961 . S
H2052 C2064 0.959 . S
H2053 C2067 0.929 . S
H2054 C2068 0.931 . S
H2055 C2070 0.930 . S
C2056 H2044 0.930 . S
C2056 C2057 1.399 . S
C2056 C2061 1.399 . S
C2057 C2056 1.399 . S
C2057 C2058 1.376 . S
C2058 H2045 0.930 . S
C2058 C2057 1.376 . S
C2058 C2059 1.388 . S
C2059 H2046 0.930 . S
C2059 C2058 1.388 . S
C2059 C2060 1.390 . S
C2060 C2059 1.390 . S
C2060 C2061 1.394 . S
C2060 C2066 1.465 . S
C2061 C2056 1.399 . S
C2061 C2060 1.394 . S
C2061 C2062 1.516 . S
C2062 C2061 1.516 . S
C2062 C2063 1.502 . S
C2062 C2064 1.561 . S
C2062 C2065 1.526 . S
C2063 H2047 0.959 . S
C2063 H2048 0.959 . S
C2063 H2049 0.961 . S
C2063 C2062 1.502 . S
C2064 H2050 0.960 . S
C2064 H2051 0.961 . S
C2064 H2052 0.959 . S
C2064 C2062 1.561 . S
C2065 C2062 1.526 . S
C2065 C2066 1.396 . S
C2065 C2070 1.390 . S
C2066 C2060 1.465 . S
C2066 C2065 1.396 . S
C2066 C2067 1.399 . S
C2067 H2053 0.929 . S
C2067 C2066 1.399 . S
C2067 C2068 1.385 . S
C2068 H2054 0.931 . S
C2068 C2067 1.385 . S
C2068 C2069 1.389 . S
C2069 C2068 1.389 . S
C2069 C2070 1.387 . S
C2070 H2055 0.930 . S
C2070 C2065 1.390 . S
C2070 C2069 1.387 . S
H2071 C2083 0.930 . S
H2072 C2085 0.930 . S
H2073 C2086 0.930 . S
H2074 C2090 0.959 . S
H2075 C2090 0.959 . S
H2076 C2090 0.961 . S
H2077 C2091 0.960 . S
H2078 C2091 0.961 . S
H2079 C2091 0.959 . S
H2080 C2094 0.929 . S
H2081 C2095 0.931 . S
H2082 C2097 0.930 . S
C2083 H2071 0.930 . S
C2083 C2084 1.399 . S
C2083 C2088 1.399 . S
C2084 C2083 1.399 . S
C2084 C2085 1.376 . S
C2085 H2072 0.930 . S
C2085 C2084 1.376 . S
C2085 C2086 1.388 . S
C2086 H2073 0.930 . S
C2086 C2085 1.388 . S
C2086 C2087 1.390 . S
C2087 C2086 1.390 . S
C2087 C2088 1.394 . S
C2087 C2093 1.465 . S
C2088 C2083 1.399 . S
C2088 C2087 1.394 . S
C2088 C2089 1.516 . S
C2089 C2088 1.516 . S
C2089 C2090 1.502 . S
C2089 C2091 1.561 . S
C2089 C2092 1.526 . S
C2090 H2074 0.959 . S
C2090 H2075 0.959 . S
C2090 H2076 0.961 . S
C2090 C2089 1.502 . S
C2091 H2077 0.960 . S
C2091 H2078 0.961 . S
C2091 H2079 0.959 . S
C2091 C2089 1.561 . S
C2092 C2089 1.526 . S
C2092 C2093 1.396 . S
C2092 C2097 1.390 . S
C2093 C2087 1.465 . S
C2093 C2092 1.396 . S
C2093 C2094 1.399 . S
C2094 H2080 0.929 . S
C2094 C2093 1.399 . S
C2094 C2095 1.385 . S
C2095 H2081 0.931 . S
C2095 C2094 1.385 . S
C2095 C2096 1.389 . S
C2096 C2095 1.389 . S
C2096 C2097 1.387 . S
C2097 H2082 0.930 . S
C2097 C2092 1.390 . S
C2097 C2096 1.387 . S
H2098 C2110 0.930 . S
H2099 C2112 0.930 . S
H2100 C2113 0.930 . S
H2101 C2117 0.959 . S
H2102 C2117 0.959 . S
H2103 C2117 0.961 . S
H2104 C2118 0.960 . S
H2105 C2118 0.961 . S
H2106 C2118 0.959 . S
H2107 C2121 0.929 . S
H2108 C2122 0.931 . S
H2109 C2124 0.930 . S
C2110 H2098 0.930 . S
C2110 C2111 1.399 . S
C2110 C2115 1.399 . S
C2111 C2110 1.399 . S
C2111 C2112 1.376 . S
C2112 H2099 0.930 . S
C2112 C2111 1.376 . S
C2112 C2113 1.388 . S
C2113 H2100 0.930 . S
C2113 C2112 1.388 . S
C2113 C2114 1.390 . S
C2114 C2113 1.390 . S
C2114 C2115 1.394 . S
C2114 C2120 1.465 . S
C2115 C2110 1.399 . S
C2115 C2114 1.394 . S
C2115 C2116 1.516 . S
C2116 C2115 1.516 . S
C2116 C2117 1.502 . S
C2116 C2118 1.561 . S
C2116 C2119 1.526 . S
C2117 H2101 0.959 . S
C2117 H2102 0.959 . S
C2117 H2103 0.961 . S
C2117 C2116 1.502 . S
C2118 H2104 0.960 . S
C2118 H2105 0.961 . S
C2118 H2106 0.959 . S
C2118 C2116 1.561 . S
C2119 C2116 1.526 . S
C2119 C2120 1.396 . S
C2119 C2124 1.390 . S
C2120 C2114 1.465 . S
C2120 C2119 1.396 . S
C2120 C2121 1.399 . S
C2121 H2107 0.929 . S
C2121 C2120 1.399 . S
C2121 C2122 1.385 . S
C2122 H2108 0.931 . S
C2122 C2121 1.385 . S
C2122 C2123 1.389 . S
C2123 C2122 1.389 . S
C2123 C2124 1.387 . S
C2124 H2109 0.930 . S
C2124 C2119 1.390 . S
C2124 C2123 1.387 . S
H2125 C2137 0.930 . S
H2126 C2139 0.930 . S
H2127 C2140 0.930 . S
H2128 C2144 0.959 . S
H2129 C2144 0.959 . S
H2130 C2144 0.961 . S
H2131 C2145 0.960 . S
H2132 C2145 0.961 . S
H2133 C2145 0.959 . S
H2134 C2148 0.929 . S
H2135 C2149 0.931 . S
H2136 C2151 0.930 . S
C2137 H2125 0.930 . S
C2137 C2138 1.399 . S
C2137 C2142 1.399 . S
C2138 C2137 1.399 . S
C2138 C2139 1.376 . S
C2139 H2126 0.930 . S
C2139 C2138 1.376 . S
C2139 C2140 1.388 . S
C2140 H2127 0.930 . S
C2140 C2139 1.388 . S
C2140 C2141 1.390 . S
C2141 C2140 1.390 . S
C2141 C2142 1.394 . S
C2141 C2147 1.465 . S
C2142 C2137 1.399 . S
C2142 C2141 1.394 . S
C2142 C2143 1.516 . S
C2143 C2142 1.516 . S
C2143 C2144 1.502 . S
C2143 C2145 1.561 . S
C2143 C2146 1.526 . S
C2144 H2128 0.959 . S
C2144 H2129 0.959 . S
C2144 H2130 0.961 . S
C2144 C2143 1.502 . S
C2145 H2131 0.960 . S
C2145 H2132 0.961 . S
C2145 H2133 0.959 . S
C2145 C2143 1.561 . S
C2146 C2143 1.526 . S
C2146 C2147 1.396 . S
C2146 C2151 1.390 . S
C2147 C2141 1.465 . S
C2147 C2146 1.396 . S
C2147 C2148 1.399 . S
C2148 H2134 0.929 . S
C2148 C2147 1.399 . S
C2148 C2149 1.385 . S
C2149 H2135 0.931 . S
C2149 C2148 1.385 . S
C2149 C2150 1.389 . S
C2150 C2149 1.389 . S
C2150 C2151 1.387 . S
C2151 H2136 0.930 . S
C2151 C2146 1.390 . S
C2151 C2150 1.387 . S
H2152 C2164 0.930 . S
H2153 C2166 0.930 . S
H2154 C2167 0.930 . S
H2155 C2171 0.959 . S
H2156 C2171 0.959 . S
H2157 C2171 0.961 . S
H2158 C2172 0.960 . S
H2159 C2172 0.961 . S
H2160 C2172 0.959 . S
H2161 C2175 0.929 . S
H2162 C2176 0.931 . S
H2163 C2178 0.930 . S
C2164 H2152 0.930 . S
C2164 C2165 1.399 . S
C2164 C2169 1.399 . S
C2165 C2164 1.399 . S
C2165 C2166 1.376 . S
C2166 H2153 0.930 . S
C2166 C2165 1.376 . S
C2166 C2167 1.388 . S
C2167 H2154 0.930 . S
C2167 C2166 1.388 . S
C2167 C2168 1.390 . S
C2168 C2167 1.390 . S
C2168 C2169 1.394 . S
C2168 C2174 1.465 . S
C2169 C2164 1.399 . S
C2169 C2168 1.394 . S
C2169 C2170 1.516 . S
C2170 C2169 1.516 . S
C2170 C2171 1.502 . S
C2170 C2172 1.561 . S
C2170 C2173 1.526 . S
C2171 H2155 0.959 . S
C2171 H2156 0.959 . S
C2171 H2157 0.961 . S
C2171 C2170 1.502 . S
C2172 H2158 0.960 . S
C2172 H2159 0.961 . S
C2172 H2160 0.959 . S
C2172 C2170 1.561 . S
C2173 C2170 1.526 . S
C2173 C2174 1.396 . S
C2173 C2178 1.390 . S
C2174 C2168 1.465 . S
C2174 C2173 1.396 . S
C2174 C2175 1.399 . S
C2175 H2161 0.929 . S
C2175 C2174 1.399 . S
C2175 C2176 1.385 . S
C2176 H2162 0.931 . S
C2176 C2175 1.385 . S
C2176 C2177 1.389 . S
C2177 C2176 1.389 . S
C2177 C2178 1.387 . S
C2178 H2163 0.930 . S
C2178 C2173 1.390 . S
C2178 C2177 1.387 . S
H2179 C2191 0.930 . S
H2180 C2193 0.930 . S
H2181 C2194 0.930 . S
H2182 C2198 0.959 . S
H2183 C2198 0.959 . S
H2184 C2198 0.961 . S
H2185 C2199 0.960 . S
H2186 C2199 0.961 . S
H2187 C2199 0.959 . S
H2188 C2202 0.929 . S
H2189 C2203 0.931 . S
H2190 C2205 0.930 . S
C2191 H2179 0.930 . S
C2191 C2192 1.399 . S
C2191 C2196 1.399 . S
C2192 C2191 1.399 . S
C2192 C2193 1.376 . S
C2193 H2180 0.930 . S
C2193 C2192 1.376 . S
C2193 C2194 1.388 . S
C2194 H2181 0.930 . S
C2194 C2193 1.388 . S
C2194 C2195 1.390 . S
C2195 C2194 1.390 . S
C2195 C2196 1.394 . S
C2195 C2201 1.465 . S
C2196 C2191 1.399 . S
C2196 C2195 1.394 . S
C2196 C2197 1.516 . S
C2197 C2196 1.516 . S
C2197 C2198 1.502 . S
C2197 C2199 1.561 . S
C2197 C2200 1.526 . S
C2198 H2182 0.959 . S
C2198 H2183 0.959 . S
C2198 H2184 0.961 . S
C2198 C2197 1.502 . S
C2199 H2185 0.960 . S
C2199 H2186 0.961 . S
C2199 H2187 0.959 . S
C2199 C2197 1.561 . S
C2200 C2197 1.526 . S
C2200 C2201 1.396 . S
C2200 C2205 1.390 . S
C2201 C2195 1.465 . S
C2201 C2200 1.396 . S
C2201 C2202 1.399 . S
C2202 H2188 0.929 . S
C2202 C2201 1.399 . S
C2202 C2203 1.385 . S
C2203 H2189 0.931 . S
C2203 C2202 1.385 . S
C2203 C2204 1.389 . S
C2204 C2203 1.389 . S
C2204 C2205 1.387 . S
C2205 H2190 0.930 . S
C2205 C2200 1.390 . S
C2205 C2204 1.387 . S
H2206 C2218 0.930 . S
H2207 C2220 0.930 . S
H2208 C2221 0.930 . S
H2209 C2225 0.959 . S
H2210 C2225 0.959 . S
H2211 C2225 0.961 . S
H2212 C2226 0.960 . S
H2213 C2226 0.961 . S
H2214 C2226 0.959 . S
H2215 C2229 0.929 . S
H2216 C2230 0.931 . S
H2217 C2232 0.930 . S
C2218 H2206 0.930 . S
C2218 C2219 1.399 . S
C2218 C2223 1.399 . S
C2219 C2218 1.399 . S
C2219 C2220 1.376 . S
C2220 H2207 0.930 . S
C2220 C2219 1.376 . S
C2220 C2221 1.388 . S
C2221 H2208 0.930 . S
C2221 C2220 1.388 . S
C2221 C2222 1.390 . S
C2222 C2221 1.390 . S
C2222 C2223 1.394 . S
C2222 C2228 1.465 . S
C2223 C2218 1.399 . S
C2223 C2222 1.394 . S
C2223 C2224 1.516 . S
C2224 C2223 1.516 . S
C2224 C2225 1.502 . S
C2224 C2226 1.561 . S
C2224 C2227 1.526 . S
C2225 H2209 0.959 . S
C2225 H2210 0.959 . S
C2225 H2211 0.961 . S
C2225 C2224 1.502 . S
C2226 H2212 0.960 . S
C2226 H2213 0.961 . S
C2226 H2214 0.959 . S
C2226 C2224 1.561 . S
C2227 C2224 1.526 . S
C2227 C2228 1.396 . S
C2227 C2232 1.390 . S
C2228 C2222 1.465 . S
C2228 C2227 1.396 . S
C2228 C2229 1.399 . S
C2229 H2215 0.929 . S
C2229 C2228 1.399 . S
C2229 C2230 1.385 . S
C2230 H2216 0.931 . S
C2230 C2229 1.385 . S
C2230 C2231 1.389 . S
C2231 C2230 1.389 . S
C2231 C2232 1.387 . S
C2232 H2217 0.930 . S
C2232 C2227 1.390 . S
C2232 C2231 1.387 . S
H2233 C2245 0.930 . S
H2234 C2247 0.930 . S
H2235 C2248 0.930 . S
H2236 C2252 0.959 . S
H2237 C2252 0.959 . S
H2238 C2252 0.961 . S
H2239 C2253 0.960 . S
H2240 C2253 0.961 . S
H2241 C2253 0.959 . S
H2242 C2256 0.929 . S
H2243 C2257 0.931 . S
H2244 C2259 0.930 . S
C2245 H2233 0.930 . S
C2245 C2246 1.399 . S
C2245 C2250 1.399 . S
C2246 C2245 1.399 . S
C2246 C2247 1.376 . S
C2247 H2234 0.930 . S
C2247 C2246 1.376 . S
C2247 C2248 1.388 . S
C2248 H2235 0.930 . S
C2248 C2247 1.388 . S
C2248 C2249 1.390 . S
C2249 C2248 1.390 . S
C2249 C2250 1.394 . S
C2249 C2255 1.465 . S
C2250 C2245 1.399 . S
C2250 C2249 1.394 . S
C2250 C2251 1.516 . S
C2251 C2250 1.516 . S
C2251 C2252 1.502 . S
C2251 C2253 1.561 . S
C2251 C2254 1.526 . S
C2252 H2236 0.959 . S
C2252 H2237 0.959 . S
C2252 H2238 0.961 . S
C2252 C2251 1.502 . S
C2253 H2239 0.960 . S
C2253 H2240 0.961 . S
C2253 H2241 0.959 . S
C2253 C2251 1.561 . S
C2254 C2251 1.526 . S
C2254 C2255 1.396 . S
C2254 C2259 1.390 . S
C2255 C2249 1.465 . S
C2255 C2254 1.396 . S
C2255 C2256 1.399 . S
C2256 H2242 0.929 . S
C2256 C2255 1.399 . S
C2256 C2257 1.385 . S
C2257 H2243 0.931 . S
C2257 C2256 1.385 . S
C2257 C2258 1.389 . S
C2258 C2257 1.389 . S
C2258 C2259 1.387 . S
C2259 H2244 0.930 . S
C2259 C2254 1.390 . S
C2259 C2258 1.387 . S
H2260 C2272 0.930 . S
H2261 C2274 0.930 . S
H2262 C2275 0.930 . S
H2263 C2279 0.959 . S
H2264 C2279 0.959 . S
H2265 C2279 0.961 . S
H2266 C2280 0.960 . S
H2267 C2280 0.961 . S
H2268 C2280 0.959 . S
H2269 C2283 0.916 1_554 S
H2270 C2284 0.931 . S
H2271 C2286 0.930 . S
C2272 H2260 0.930 . S
C2272 C2273 1.399 . S
C2272 C2277 1.399 . S
C2273 C2272 1.399 . S
C2273 C2274 1.376 . S
C2274 H2261 0.930 . S
C2274 C2273 1.376 . S
C2274 C2275 1.388 . S
C2275 H2262 0.930 . S
C2275 C2274 1.388 . S
C2275 C2276 1.390 . S
C2276 C2275 1.390 . S
C2276 C2277 1.394 . S
C2276 C2282 1.465 . S
C2277 C2272 1.399 . S
C2277 C2276 1.394 . S
C2277 C2278 1.516 . S
C2278 C2277 1.516 . S
C2278 C2279 1.502 . S
C2278 C2280 1.561 . S
C2278 C2281 1.526 . S
C2279 H2263 0.959 . S
C2279 H2264 0.959 . S
C2279 H2265 0.961 . S
C2279 C2278 1.502 . S
C2280 H2266 0.960 . S
C2280 H2267 0.961 . S
C2280 H2268 0.959 . S
C2280 C2278 1.561 . S
C2281 C2278 1.526 . S
C2281 C2282 1.396 . S
C2281 C2286 1.390 . S
C2282 C2276 1.465 . S
C2282 C2281 1.396 . S
C2282 C2283 1.426 . S
C2283 H2269 0.916 1_556 S
C2283 C2282 1.426 . S
C2283 C2284 1.372 1_556 S
C2284 H2270 0.931 . S
C2284 C2283 1.372 1_554 S
C2284 C2285 1.388 1_554 S
C2285 C2284 1.388 1_556 S
C2285 C2286 1.390 . S
C2286 H2271 0.930 . S
C2286 C2281 1.390 . S
C2286 C2285 1.390 . S
H2287 C2299 0.932 1_455 S
H2288 C2301 0.930 . S
H2289 C2302 0.930 . S
H2290 C2306 0.959 . S
H2291 C2306 0.959 . S
H2292 C2306 0.961 . S
H2293 C2307 0.960 . S
H2294 C2307 0.961 . S
H2295 C2307 0.959 . S
H2296 C2310 0.929 . S
H2297 C2311 0.931 . S
H2298 C2313 0.930 . S
C2299 H2287 0.932 1_655 S
C2299 C2300 1.387 1_655 S
C2299 C2304 1.399 . S
C2300 C2299 1.387 1_455 S
C2300 C2301 1.361 1_455 S
C2301 H2288 0.930 . S
C2301 C2300 1.361 1_655 S
C2301 C2302 1.388 . S
C2302 H2289 0.930 . S
C2302 C2301 1.388 . S
C2302 C2303 1.390 . S
C2303 C2302 1.390 . S
C2303 C2304 1.394 . S
C2303 C2309 1.465 . S
C2304 C2299 1.399 . S
C2304 C2303 1.394 . S
C2304 C2305 1.516 . S
C2305 C2304 1.516 . S
C2305 C2306 1.502 . S
C2305 C2307 1.561 . S
C2305 C2308 1.526 . S
C2306 H2290 0.959 . S
C2306 H2291 0.959 . S
C2306 H2292 0.961 . S
C2306 C2305 1.502 . S
C2307 H2293 0.960 . S
C2307 H2294 0.961 . S
C2307 H2295 0.959 . S
C2307 C2305 1.561 . S
C2308 C2305 1.526 . S
C2308 C2309 1.396 . S
C2308 C2313 1.390 . S
C2309 C2303 1.465 . S
C2309 C2308 1.396 . S
C2309 C2310 1.399 . S
C2310 H2296 0.929 . S
C2310 C2309 1.399 . S
C2310 C2311 1.385 . S
C2311 H2297 0.931 . S
C2311 C2310 1.385 . S
C2311 C2312 1.389 . S
C2312 C2311 1.389 . S
C2312 C2313 1.387 . S
C2313 H2298 0.930 . S
C2313 C2308 1.390 . S
C2313 C2312 1.387 . S
H2314 C2326 0.930 . S
H2315 C2328 0.930 . S
H2316 C2329 0.930 . S
H2317 C2333 0.959 . S
H2318 C2333 0.959 . S
H2319 C2333 0.961 . S
H2320 C2334 0.960 . S
H2321 C2334 0.961 . S
H2322 C2334 0.990 . S
H2323 C2337 0.929 . S
H2324 C2338 0.931 . S
H2325 C2340 0.930 . S
C2326 H2314 0.930 . S
C2326 C2327 1.399 . S
C2326 C2331 1.399 . S
C2327 C2326 1.399 . S
C2327 C2328 1.376 . S
C2328 H2315 0.930 . S
C2328 C2327 1.376 . S
C2328 C2329 1.388 . S
C2329 H2316 0.930 . S
C2329 C2328 1.388 . S
C2329 C2330 1.390 . S
C2330 C2329 1.390 . S
C2330 C2331 1.394 . S
C2330 C2336 1.465 . S
C2331 C2326 1.399 . S
C2331 C2330 1.394 . S
C2331 C2332 1.516 . S
C2332 C2331 1.516 . S
C2332 C2333 1.502 . S
C2332 C2334 1.561 . S
C2332 C2335 1.526 . S
C2333 H2317 0.959 . S
C2333 H2318 0.959 . S
C2333 H2319 0.961 . S
C2333 C2332 1.502 . S
C2334 H2320 0.960 . S
C2334 H2321 0.961 . S
C2334 H2322 0.990 . S
C2334 C2332 1.561 . S
C2335 C2332 1.526 . S
C2335 C2336 1.396 . S
C2335 C2340 1.390 . S
C2336 C2330 1.465 . S
C2336 C2335 1.396 . S
C2336 C2337 1.399 . S
C2337 H2323 0.929 . S
C2337 C2336 1.399 . S
C2337 C2338 1.385 . S
C2338 H2324 0.931 . S
C2338 C2337 1.385 . S
C2338 C2339 1.389 . S
C2339 C2338 1.389 . S
C2339 C2340 1.387 . S
C2340 H2325 0.930 . S
C2340 C2335 1.390 . S
C2340 C2339 1.387 . S
H2341 C2353 0.930 . S
H2342 C2355 0.930 . S
H2343 C2356 0.930 . S
H2344 C2360 0.959 . S
H2345 C2360 0.959 . S
H2346 C2360 0.961 . S
H2347 C2361 0.960 . S
H2348 C2361 0.961 . S
H2349 C2361 0.959 . S
H2350 C2364 0.929 . S
H2351 C2365 0.931 . S
H2352 C2367 0.930 . S
C2353 H2341 0.930 . S
C2353 C2354 1.399 . S
C2353 C2358 1.399 . S
C2354 C2353 1.399 . S
C2354 C2355 1.376 . S
C2355 H2342 0.930 . S
C2355 C2354 1.376 . S
C2355 C2356 1.388 . S
C2356 H2343 0.930 . S
C2356 C2355 1.388 . S
C2356 C2357 1.390 . S
C2357 C2356 1.390 . S
C2357 C2358 1.394 . S
C2357 C2363 1.465 . S
C2358 C2353 1.399 . S
C2358 C2357 1.394 . S
C2358 C2359 1.516 . S
C2359 C2358 1.516 . S
C2359 C2360 1.502 . S
C2359 C2361 1.561 . S
C2359 C2362 1.526 . S
C2360 H2344 0.959 . S
C2360 H2345 0.959 . S
C2360 H2346 0.961 . S
C2360 C2359 1.502 . S
C2361 H2347 0.960 . S
C2361 H2348 0.961 . S
C2361 H2349 0.959 . S
C2361 C2359 1.561 . S
C2362 C2359 1.526 . S
C2362 C2363 1.396 . S
C2362 C2367 1.390 . S
C2363 C2357 1.465 . S
C2363 C2362 1.396 . S
C2363 C2364 1.399 . S
C2364 H2350 0.929 . S
C2364 C2363 1.399 . S
C2364 C2365 1.385 . S
C2365 H2351 0.931 . S
C2365 C2364 1.385 . S
C2365 C2366 1.389 . S
C2366 C2365 1.389 . S
C2366 C2367 1.387 . S
C2367 H2352 0.930 . S
C2367 C2362 1.390 . S
C2367 C2366 1.387 . S
H2368 C2380 0.930 . S
H2369 C2382 0.930 . S
H2370 C2383 0.930 . S
H2371 C2387 0.959 . S
H2372 C2387 0.959 . S
H2373 C2387 0.961 . S
H2374 C2388 0.960 . S
H2375 C2388 0.961 . S
H2376 C2388 0.959 . S
H2377 C2391 0.929 . S
H2378 C2392 0.931 . S
H2379 C2394 0.930 . S
C2380 H2368 0.930 . S
C2380 C2381 1.399 . S
C2380 C2385 1.399 . S
C2381 C2380 1.399 . S
C2381 C2382 1.376 . S
C2382 H2369 0.930 . S
C2382 C2381 1.376 . S
C2382 C2383 1.388 . S
C2383 H2370 0.930 . S
C2383 C2382 1.388 . S
C2383 C2384 1.390 . S
C2384 C2383 1.390 . S
C2384 C2385 1.394 . S
C2384 C2390 1.465 . S
C2385 C2380 1.399 . S
C2385 C2384 1.394 . S
C2385 C2386 1.516 . S
C2386 C2385 1.516 . S
C2386 C2387 1.502 . S
C2386 C2388 1.561 . S
C2386 C2389 1.526 . S
C2387 H2371 0.959 . S
C2387 H2372 0.959 . S
C2387 H2373 0.961 . S
C2387 C2386 1.502 . S
C2388 H2374 0.960 . S
C2388 H2375 0.961 . S
C2388 H2376 0.959 . S
C2388 C2386 1.561 . S
C2389 C2386 1.526 . S
C2389 C2390 1.396 . S
C2389 C2394 1.390 . S
C2390 C2384 1.465 . S
C2390 C2389 1.396 . S
C2390 C2391 1.399 . S
C2391 H2377 0.929 . S
C2391 C2390 1.399 . S
C2391 C2392 1.385 . S
C2392 H2378 0.931 . S
C2392 C2391 1.385 . S
C2392 C2393 1.389 . S
C2393 C2392 1.389 . S
C2393 C2394 1.387 . S
C2394 H2379 0.930 . S
C2394 C2389 1.390 . S
C2394 C2393 1.387 . S
H2395 C2407 0.930 . S
H2396 C2409 0.930 1_554 S
H2397 C2410 0.930 . S
H2398 C2414 0.959 . S
H2399 C2414 0.959 . S
H2400 C2414 0.961 . S
H2401 C2415 0.960 . S
H2402 C2415 0.961 . S
H2403 C2415 0.959 . S
H2404 C2418 0.929 . S
H2405 C2419 0.931 . S
H2406 C2421 0.930 . S
C2407 H2395 0.930 . S
C2407 C2408 1.399 . S
C2407 C2412 1.399 . S
C2408 C2407 1.399 . S
C2408 C2409 1.376 . S
C2409 H2396 0.930 1_556 S
C2409 C2408 1.376 . S
C2409 C2410 1.388 . S
C2410 H2397 0.930 . S
C2410 C2409 1.388 . S
C2410 C2411 1.390 . S
C2411 C2410 1.390 . S
C2411 C2412 1.394 . S
C2411 C2417 1.465 . S
C2412 C2407 1.399 . S
C2412 C2411 1.394 . S
C2412 C2413 1.516 . S
C2413 C2412 1.516 . S
C2413 C2414 1.502 . S
C2413 C2415 1.561 . S
C2413 C2416 1.526 . S
C2414 H2398 0.959 . S
C2414 H2399 0.959 . S
C2414 H2400 0.961 . S
C2414 C2413 1.502 . S
C2415 H2401 0.960 . S
C2415 H2402 0.961 . S
C2415 H2403 0.959 . S
C2415 C2413 1.561 . S
C2416 C2413 1.526 . S
C2416 C2417 1.396 . S
C2416 C2421 1.390 . S
C2417 C2411 1.465 . S
C2417 C2416 1.396 . S
C2417 C2418 1.399 . S
C2418 H2404 0.929 . S
C2418 C2417 1.399 . S
C2418 C2419 1.385 . S
C2419 H2405 0.931 . S
C2419 C2418 1.385 . S
C2419 C2420 1.389 . S
C2420 C2419 1.389 . S
C2420 C2421 1.387 . S
C2421 H2406 0.930 . S
C2421 C2416 1.390 . S
C2421 C2420 1.387 . S
H2422 C2434 0.930 . S
H2423 C2436 0.930 . S
H2424 C2437 0.930 . S
H2425 C2441 0.959 . S
H2426 C2441 0.959 . S
H2427 C2441 0.961 . S
H2428 C2442 0.960 . S
H2429 C2442 0.961 . S
H2430 C2442 0.959 . S
H2431 C2445 0.929 . S
H2432 C2446 0.929 . S
H2433 C2448 0.930 . S
C2434 H2422 0.930 . S
C2434 C2435 1.399 . S
C2434 C2439 1.399 . S
C2435 C2434 1.399 . S
C2435 C2436 1.376 . S
C2436 H2423 0.930 . S
C2436 C2435 1.376 . S
C2436 C2437 1.388 . S
C2437 H2424 0.930 . S
C2437 C2436 1.388 . S
C2437 C2438 1.390 . S
C2438 C2437 1.390 . S
C2438 C2439 1.394 . S
C2438 C2444 1.465 . S
C2439 C2434 1.399 . S
C2439 C2438 1.394 . S
C2439 C2440 1.516 . S
C2440 C2439 1.516 . S
C2440 C2441 1.502 . S
C2440 C2442 1.561 . S
C2440 C2443 1.526 . S
C2441 H2425 0.959 . S
C2441 H2426 0.959 . S
C2441 H2427 0.961 . S
C2441 C2440 1.502 . S
C2442 H2428 0.960 . S
C2442 H2429 0.961 . S
C2442 H2430 0.959 . S
C2442 C2440 1.561 . S
C2443 C2440 1.526 . S
C2443 C2444 1.396 . S
C2443 C2448 1.390 . S
C2444 C2438 1.465 . S
C2444 C2443 1.396 . S
C2444 C2445 1.399 . S
C2445 H2431 0.929 . S
C2445 C2444 1.399 . S
C2445 C2446 1.388 1_655 S
C2446 H2432 0.929 . S
C2446 C2445 1.388 1_455 S
C2446 C2447 1.389 . S
C2447 C2446 1.389 . S
C2447 C2448 1.387 1_455 S
C2448 H2433 0.930 . S
C2448 C2443 1.390 . S
C2448 C2447 1.387 1_655 S
H2449 C2461 0.930 . S
H2450 C2463 0.930 . S
H2451 C2464 0.930 . S
H2452 C2468 0.959 . S
H2453 C2468 0.959 . S
H2454 C2468 0.961 . S
H2455 C2469 0.960 . S
H2456 C2469 0.961 . S
H2457 C2469 0.959 . S
H2458 C2472 0.929 . S
H2459 C2473 0.931 . S
H2460 C2475 0.930 . S
C2461 H2449 0.930 . S
C2461 C2462 1.399 . S
C2461 C2466 1.399 . S
C2462 C2461 1.399 . S
C2462 C2463 1.376 . S
C2463 H2450 0.930 . S
C2463 C2462 1.376 . S
C2463 C2464 1.388 . S
C2464 H2451 0.930 . S
C2464 C2463 1.388 . S
C2464 C2465 1.390 . S
C2465 C2464 1.390 . S
C2465 C2466 1.394 . S
C2465 C2471 1.465 . S
C2466 C2461 1.399 . S
C2466 C2465 1.394 . S
C2466 C2467 1.516 . S
C2467 C2466 1.516 . S
C2467 C2468 1.502 . S
C2467 C2469 1.561 . S
C2467 C2470 1.526 . S
C2468 H2452 0.959 . S
C2468 H2453 0.959 . S
C2468 H2454 0.961 . S
C2468 C2467 1.502 . S
C2469 H2455 0.960 . S
C2469 H2456 0.961 . S
C2469 H2457 0.959 . S
C2469 C2467 1.561 . S
C2470 C2467 1.526 . S
C2470 C2471 1.396 . S
C2470 C2475 1.390 . S
C2471 C2465 1.465 . S
C2471 C2470 1.396 . S
C2471 C2472 1.399 . S
C2472 H2458 0.929 . S
C2472 C2471 1.399 . S
C2472 C2473 1.385 . S
C2473 H2459 0.931 . S
C2473 C2472 1.385 . S
C2473 C2474 1.389 . S
C2474 C2473 1.389 . S
C2474 C2475 1.387 . S
C2475 H2460 0.930 . S
C2475 C2470 1.390 . S
C2475 C2474 1.387 . S
H2476 C2488 0.930 . S
H2477 C2490 0.930 . S
H2478 C2491 0.930 . S
H2479 C2495 0.959 . S
H2480 C2495 0.959 . S
H2481 C2495 0.961 . S
H2482 C2496 0.960 . S
H2483 C2496 0.961 . S
H2484 C2496 0.959 . S
H2485 C2499 0.929 . S
H2486 C2500 0.931 . S
H2487 C2502 0.930 . S
C2488 H2476 0.930 . S
C2488 C2489 1.399 . S
C2488 C2493 1.399 . S
C2489 C2488 1.399 . S
C2489 C2490 1.376 . S
C2490 H2477 0.930 . S
C2490 C2489 1.376 . S
C2490 C2491 1.388 . S
C2491 H2478 0.930 . S
C2491 C2490 1.388 . S
C2491 C2492 1.390 . S
C2492 C2491 1.390 . S
C2492 C2493 1.394 . S
C2492 C2498 1.465 . S
C2493 C2488 1.399 . S
C2493 C2492 1.394 . S
C2493 C2494 1.516 . S
C2494 C2493 1.516 . S
C2494 C2495 1.502 . S
C2494 C2496 1.561 . S
C2494 C2497 1.526 . S
C2495 H2479 0.959 . S
C2495 H2480 0.959 . S
C2495 H2481 0.961 . S
C2495 C2494 1.502 . S
C2496 H2482 0.960 . S
C2496 H2483 0.961 . S
C2496 H2484 0.959 . S
C2496 C2494 1.561 . S
C2497 C2494 1.526 . S
C2497 C2498 1.396 . S
C2497 C2502 1.390 . S
C2498 C2492 1.465 . S
C2498 C2497 1.396 . S
C2498 C2499 1.399 . S
C2499 H2485 0.929 . S
C2499 C2498 1.399 . S
C2499 C2500 1.385 . S
C2500 H2486 0.931 . S
C2500 C2499 1.385 . S
C2500 C2501 1.389 . S
C2501 C2500 1.389 . S
C2501 C2502 1.387 . S
C2502 H2487 0.930 . S
C2502 C2497 1.390 . S
C2502 C2501 1.387 . S
H2503 C2515 0.930 . S
H2504 C2517 0.930 . S
H2505 C2518 0.930 . S
H2506 C2522 0.959 . S
H2507 C2522 0.959 . S
H2508 C2522 0.961 . S
H2509 C2523 0.960 . S
H2510 C2523 0.961 . S
H2511 C2523 0.959 . S
H2512 C2526 0.929 . S
H2513 C2527 0.931 . S
H2514 C2529 0.930 . S
C2515 H2503 0.930 . S
C2515 C2516 1.399 . S
C2515 C2520 1.399 . S
C2516 C2515 1.399 . S
C2516 C2517 1.376 . S
C2517 H2504 0.930 . S
C2517 C2516 1.376 . S
C2517 C2518 1.388 . S
C2518 H2505 0.930 . S
C2518 C2517 1.388 . S
C2518 C2519 1.390 . S
C2519 C2518 1.390 . S
C2519 C2520 1.394 . S
C2519 C2525 1.465 . S
C2520 C2515 1.399 . S
C2520 C2519 1.394 . S
C2520 C2521 1.516 . S
C2521 C2520 1.516 . S
C2521 C2522 1.502 . S
C2521 C2523 1.561 . S
C2521 C2524 1.526 . S
C2522 H2506 0.959 . S
C2522 H2507 0.959 . S
C2522 H2508 0.961 . S
C2522 C2521 1.502 . S
C2523 H2509 0.960 . S
C2523 H2510 0.961 . S
C2523 H2511 0.959 . S
C2523 C2521 1.561 . S
C2524 C2521 1.526 . S
C2524 C2525 1.396 . S
C2524 C2529 1.390 . S
C2525 C2519 1.465 . S
C2525 C2524 1.396 . S
C2525 C2526 1.399 . S
C2526 H2512 0.929 . S
C2526 C2525 1.399 . S
C2526 C2527 1.385 . S
C2527 H2513 0.931 . S
C2527 C2526 1.385 . S
C2527 C2528 1.389 . S
C2528 C2527 1.389 . S
C2528 C2529 1.387 . S
C2529 H2514 0.930 . S
C2529 C2524 1.390 . S
C2529 C2528 1.387 . S
H2530 C2542 0.930 . S
H2531 C2544 0.930 . S
H2532 C2545 0.930 . S
H2533 C2549 0.959 . S
H2534 C2549 0.959 . S
H2535 C2549 0.961 . S
H2536 C2550 0.960 . S
H2537 C2550 0.961 . S
H2538 C2550 0.959 . S
H2539 C2553 0.929 . S
H2540 C2554 0.931 . S
H2541 C2556 0.930 . S
C2542 H2530 0.930 . S
C2542 C2543 1.399 . S
C2542 C2547 1.399 . S
C2543 C2542 1.399 . S
C2543 C2544 1.376 . S
C2544 H2531 0.930 . S
C2544 C2543 1.376 . S
C2544 C2545 1.388 . S
C2545 H2532 0.930 . S
C2545 C2544 1.388 . S
C2545 C2546 1.390 . S
C2546 C2545 1.390 . S
C2546 C2547 1.394 . S
C2546 C2552 1.465 . S
C2547 C2542 1.399 . S
C2547 C2546 1.394 . S
C2547 C2548 1.516 . S
C2548 C2547 1.516 . S
C2548 C2549 1.502 . S
C2548 C2550 1.561 . S
C2548 C2551 1.526 . S
C2549 H2533 0.959 . S
C2549 H2534 0.959 . S
C2549 H2535 0.961 . S
C2549 C2548 1.502 . S
C2550 H2536 0.960 . S
C2550 H2537 0.961 . S
C2550 H2538 0.959 . S
C2550 C2548 1.561 . S
C2551 C2548 1.526 . S
C2551 C2552 1.396 . S
C2551 C2556 1.390 . S
C2552 C2546 1.465 . S
C2552 C2551 1.396 . S
C2552 C2553 1.399 . S
C2553 H2539 0.929 . S
C2553 C2552 1.399 . S
C2553 C2554 1.385 . S
C2554 H2540 0.931 . S
C2554 C2553 1.385 . S
C2554 C2555 1.389 . S
C2555 C2554 1.389 . S
C2555 C2556 1.387 . S
C2556 H2541 0.930 . S
C2556 C2551 1.390 . S
C2556 C2555 1.387 . S
H2557 C2569 0.930 . S
H2558 C2571 0.930 . S
H2559 C2572 0.930 . S
H2560 C2576 0.959 . S
H2561 C2576 0.959 . S
H2562 C2576 0.961 . S
H2563 C2577 0.960 . S
H2564 C2577 0.961 . S
H2565 C2577 0.959 . S
H2566 C2580 0.929 . S
H2567 C2581 0.931 . S
H2568 C2583 0.930 . S
C2569 H2557 0.930 . S
C2569 C2570 1.399 . S
C2569 C2574 1.399 . S
C2570 C2569 1.399 . S
C2570 C2571 1.376 . S
C2571 H2558 0.930 . S
C2571 C2570 1.376 . S
C2571 C2572 1.388 . S
C2572 H2559 0.930 . S
C2572 C2571 1.388 . S
C2572 C2573 1.390 . S
C2573 C2572 1.390 . S
C2573 C2574 1.394 . S
C2573 C2579 1.465 . S
C2574 C2569 1.399 . S
C2574 C2573 1.394 . S
C2574 C2575 1.516 . S
C2575 C2574 1.516 . S
C2575 C2576 1.502 . S
C2575 C2577 1.561 . S
C2575 C2578 1.526 . S
C2576 H2560 0.959 . S
C2576 H2561 0.959 . S
C2576 H2562 0.961 . S
C2576 C2575 1.502 . S
C2577 H2563 0.960 . S
C2577 H2564 0.961 . S
C2577 H2565 0.959 . S
C2577 C2575 1.561 . S
C2578 C2575 1.526 . S
C2578 C2579 1.396 . S
C2578 C2583 1.390 . S
C2579 C2573 1.465 . S
C2579 C2578 1.396 . S
C2579 C2580 1.399 . S
C2580 H2566 0.929 . S
C2580 C2579 1.399 . S
C2580 C2581 1.385 . S
C2581 H2567 0.931 . S
C2581 C2580 1.385 . S
C2581 C2582 1.389 . S
C2582 C2581 1.389 . S
C2582 C2583 1.387 . S
C2583 H2568 0.930 . S
C2583 C2578 1.390 . S
C2583 C2582 1.387 . S
H2584 C2596 0.930 . S
H2585 C2598 0.930 . S
H2586 C2599 0.930 . S
H2587 C2603 0.959 . S
H2588 C2603 0.959 . S
H2589 C2603 0.961 . S
H2590 C2604 0.960 . S
H2591 C2604 0.961 . S
H2592 C2604 0.959 . S
H2593 C2607 0.929 . S
H2594 C2608 0.931 . S
H2595 C2610 0.930 . S
C2596 H2584 0.930 . S
C2596 C2597 1.399 . S
C2596 C2601 1.399 . S
C2597 C2596 1.399 . S
C2597 C2598 1.376 . S
C2598 H2585 0.930 . S
C2598 C2597 1.376 . S
C2598 C2599 1.388 . S
C2599 H2586 0.930 . S
C2599 C2598 1.388 . S
C2599 C2600 1.390 . S
C2600 C2599 1.390 . S
C2600 C2601 1.394 . S
C2600 C2606 1.465 . S
C2601 C2596 1.399 . S
C2601 C2600 1.394 . S
C2601 C2602 1.516 . S
C2602 C2601 1.516 . S
C2602 C2603 1.502 . S
C2602 C2604 1.561 . S
C2602 C2605 1.526 . S
C2603 H2587 0.959 . S
C2603 H2588 0.959 . S
C2603 H2589 0.961 . S
C2603 C2602 1.502 . S
C2604 H2590 0.960 . S
C2604 H2591 0.961 . S
C2604 H2592 0.959 . S
C2604 C2602 1.561 . S
C2605 C2602 1.526 . S
C2605 C2606 1.396 . S
C2605 C2610 1.390 . S
C2606 C2600 1.465 . S
C2606 C2605 1.396 . S
C2606 C2607 1.399 . S
C2607 H2593 0.929 . S
C2607 C2606 1.399 . S
C2607 C2608 1.385 . S
C2608 H2594 0.931 . S
C2608 C2607 1.385 . S
C2608 C2609 1.389 . S
C2609 C2608 1.389 . S
C2609 C2610 1.387 . S
C2610 H2595 0.930 . S
C2610 C2605 1.390 . S
C2610 C2609 1.387 . S
H2611 C2623 0.930 . S
H2612 C2625 0.930 . S
H2613 C2626 0.930 . S
H2614 C2630 0.959 1_545 S
H2615 C2630 0.959 1_545 S
H2616 C2630 0.961 . S
H2617 C2631 0.960 . S
H2618 C2631 0.961 . S
H2619 C2631 0.959 . S
H2620 C2634 0.929 . S
H2621 C2635 0.931 . S
H2622 C2637 0.942 . S
C2623 H2611 0.930 . S
C2623 C2624 1.399 . S
C2623 C2628 1.399 . S
C2624 C2623 1.399 . S
C2624 C2625 1.376 . S
C2625 H2612 0.930 . S
C2625 C2624 1.376 . S
C2625 C2626 1.388 . S
C2626 H2613 0.930 . S
C2626 C2625 1.388 . S
C2626 C2627 1.390 . S
C2627 C2626 1.390 . S
C2627 C2628 1.394 . S
C2627 C2633 1.465 . S
C2628 C2623 1.399 . S
C2628 C2627 1.394 . S
C2628 C2629 1.516 . S
C2629 C2628 1.516 . S
C2629 C2630 1.502 . S
C2629 C2631 1.561 . S
C2629 C2632 1.526 . S
C2630 H2614 0.959 1_565 S
C2630 H2615 0.959 1_565 S
C2630 H2616 0.961 . S
C2630 C2629 1.502 . S
C2631 H2617 0.960 . S
C2631 H2618 0.961 . S
C2631 H2619 0.959 . S
C2631 C2629 1.561 . S
C2632 C2629 1.526 . S
C2632 C2633 1.396 . S
C2632 C2637 1.390 . S
C2633 C2627 1.465 . S
C2633 C2632 1.396 . S
C2633 C2634 1.399 . S
C2634 H2620 0.929 . S
C2634 C2633 1.399 . S
C2634 C2635 1.385 . S
C2635 H2621 0.931 . S
C2635 C2634 1.385 . S
C2635 C2636 1.389 . S
C2636 C2635 1.389 . S
C2636 C2637 1.387 . S
C2637 H2622 0.942 . S
C2637 C2632 1.390 . S
C2637 C2636 1.387 . S
H2638 C2650 0.930 . S
H2639 C2652 0.930 . S
H2640 C2653 0.930 . S
H2641 C2657 0.959 . S
H2642 C2657 0.959 . S
H2643 C2657 0.961 . S
H2644 C2658 0.960 . S
H2645 C2658 0.961 . S
H2646 C2658 0.959 . S
H2647 C2661 0.929 . S
H2648 C2662 0.931 . S
H2649 C2664 0.930 . S
C2650 H2638 0.930 . S
C2650 C2651 1.399 . S
C2650 C2655 1.399 . S
C2651 C2650 1.399 . S
C2651 C2652 1.376 . S
C2652 H2639 0.930 . S
C2652 C2651 1.376 . S
C2652 C2653 1.388 . S
C2653 H2640 0.930 . S
C2653 C2652 1.388 . S
C2653 C2654 1.390 . S
C2654 C2653 1.390 . S
C2654 C2655 1.394 . S
C2654 C2660 1.465 . S
C2655 C2650 1.399 . S
C2655 C2654 1.394 . S
C2655 C2656 1.516 . S
C2656 C2655 1.516 . S
C2656 C2657 1.502 . S
C2656 C2658 1.561 . S
C2656 C2659 1.526 . S
C2657 H2641 0.959 . S
C2657 H2642 0.959 . S
C2657 H2643 0.961 . S
C2657 C2656 1.502 . S
C2658 H2644 0.960 . S
C2658 H2645 0.961 . S
C2658 H2646 0.959 . S
C2658 C2656 1.561 . S
C2659 C2656 1.526 . S
C2659 C2660 1.396 . S
C2659 C2664 1.390 . S
C2660 C2654 1.465 . S
C2660 C2659 1.396 . S
C2660 C2661 1.399 . S
C2661 H2647 0.929 . S
C2661 C2660 1.399 . S
C2661 C2662 1.385 . S
C2662 H2648 0.931 . S
C2662 C2661 1.385 . S
C2662 C2663 1.389 . S
C2663 C2662 1.389 . S
C2663 C2664 1.387 . S
C2664 H2649 0.930 . S
C2664 C2659 1.390 . S
C2664 C2663 1.387 . S
H2665 C2677 0.930 . S
H2666 C2679 0.930 . S
H2667 C2680 0.930 . S
H2668 C2684 0.959 . S
H2669 C2684 0.959 . S
H2670 C2684 0.961 . S
H2671 C2685 0.960 . S
H2672 C2685 0.961 . S
H2673 C2685 0.959 . S
H2674 C2688 0.929 . S
H2675 C2689 0.931 1_565 S
H2676 C2691 0.930 . S
C2677 H2665 0.930 . S
C2677 C2678 1.399 . S
C2677 C2682 1.399 . S
C2678 C2677 1.399 . S
C2678 C2679 1.376 . S
C2679 H2666 0.930 . S
C2679 C2678 1.376 . S
C2679 C2680 1.388 . S
C2680 H2667 0.930 . S
C2680 C2679 1.388 . S
C2680 C2681 1.390 . S
C2681 C2680 1.390 . S
C2681 C2682 1.394 . S
C2681 C2687 1.465 . S
C2682 C2677 1.399 . S
C2682 C2681 1.394 . S
C2682 C2683 1.516 . S
C2683 C2682 1.516 . S
C2683 C2684 1.502 . S
C2683 C2685 1.561 . S
C2683 C2686 1.526 . S
C2684 H2668 0.959 . S
C2684 H2669 0.959 . S
C2684 H2670 0.961 . S
C2684 C2683 1.502 . S
C2685 H2671 0.960 . S
C2685 H2672 0.961 . S
C2685 H2673 0.959 . S
C2685 C2683 1.561 . S
C2686 C2683 1.526 . S
C2686 C2687 1.396 . S
C2686 C2691 1.390 . S
C2687 C2681 1.465 . S
C2687 C2686 1.396 . S
C2687 C2688 1.399 . S
C2688 H2674 0.929 . S
C2688 C2687 1.399 . S
C2688 C2689 1.385 . S
C2689 H2675 0.931 1_545 S
C2689 C2688 1.385 . S
C2689 C2690 1.389 . S
C2690 C2689 1.389 . S
C2690 C2691 1.387 . S
C2691 H2676 0.930 . S
C2691 C2686 1.390 . S
C2691 C2690 1.387 . S
H2692 C2704 0.930 . S
H2693 C2706 0.930 . S
H2694 C2707 0.930 . S
H2695 C2711 0.959 . S
H2696 C2711 0.959 . S
H2697 C2711 0.961 . S
H2698 C2712 0.960 . S
H2699 C2712 0.961 . S
H2700 C2712 0.959 . S
H2701 C2715 0.929 . S
H2702 C2716 0.931 . S
H2703 C2718 0.930 . S
C2704 H2692 0.930 . S
C2704 C2705 1.399 . S
C2704 C2709 1.399 . S
C2705 C2704 1.399 . S
C2705 C2706 1.376 . S
C2706 H2693 0.930 . S
C2706 C2705 1.376 . S
C2706 C2707 1.388 . S
C2707 H2694 0.930 . S
C2707 C2706 1.388 . S
C2707 C2708 1.390 . S
C2708 C2707 1.390 . S
C2708 C2709 1.394 . S
C2708 C2714 1.465 . S
C2709 C2704 1.399 . S
C2709 C2708 1.394 . S
C2709 C2710 1.516 . S
C2710 C2709 1.516 . S
C2710 C2711 1.502 . S
C2710 C2712 1.561 . S
C2710 C2713 1.526 . S
C2711 H2695 0.959 . S
C2711 H2696 0.959 . S
C2711 H2697 0.961 . S
C2711 C2710 1.502 . S
C2712 H2698 0.960 . S
C2712 H2699 0.961 . S
C2712 H2700 0.959 . S
C2712 C2710 1.561 . S
C2713 C2710 1.526 . S
C2713 C2714 1.396 . S
C2713 C2718 1.390 . S
C2714 C2708 1.465 . S
C2714 C2713 1.396 . S
C2714 C2715 1.399 . S
C2715 H2701 0.929 . S
C2715 C2714 1.399 . S
C2715 C2716 1.385 . S
C2716 H2702 0.931 . S
C2716 C2715 1.385 . S
C2716 C2717 1.389 . S
C2717 C2716 1.389 . S
C2717 C2718 1.387 . S
C2718 H2703 0.930 . S
C2718 C2713 1.390 . S
C2718 C2717 1.387 . S
H2719 C2731 0.930 . S
H2720 C2733 0.930 . S
H2721 C2734 0.930 . S
H2722 C2738 0.959 . S
H2723 C2738 0.959 . S
H2724 C2738 0.961 . S
H2725 C2739 0.960 . S
H2726 C2739 0.959 1_556 S
H2727 C2739 0.959 1_556 S
H2728 C2742 0.929 . S
H2729 C2743 0.931 . S
H2730 C2745 0.930 . S
C2731 H2719 0.930 . S
C2731 C2732 1.399 . S
C2731 C2736 1.399 . S
C2732 C2731 1.399 . S
C2732 C2733 1.376 . S
C2733 H2720 0.930 . S
C2733 C2732 1.376 . S
C2733 C2734 1.388 . S
C2734 H2721 0.930 . S
C2734 C2733 1.388 . S
C2734 C2735 1.390 . S
C2735 C2734 1.390 . S
C2735 C2736 1.394 . S
C2735 C2741 1.465 . S
C2736 C2731 1.399 . S
C2736 C2735 1.394 . S
C2736 C2737 1.516 . S
C2737 C2736 1.516 . S
C2737 C2738 1.502 . S
C2737 C2739 1.561 . S
C2737 C2740 1.526 . S
C2738 H2722 0.959 . S
C2738 H2723 0.959 . S
C2738 H2724 0.961 . S
C2738 C2737 1.502 . S
C2739 H2725 0.960 . S
C2739 H2726 0.959 1_554 S
C2739 H2727 0.959 1_554 S
C2739 C2737 1.561 . S
C2740 C2737 1.526 . S
C2740 C2741 1.396 . S
C2740 C2745 1.390 . S
C2741 C2735 1.465 . S
C2741 C2740 1.396 . S
C2741 C2742 1.399 . S
C2742 H2728 0.929 . S
C2742 C2741 1.399 . S
C2742 C2743 1.385 . S
C2743 H2729 0.931 . S
C2743 C2742 1.385 . S
C2743 C2744 1.389 . S
C2744 C2743 1.389 . S
C2744 C2745 1.387 . S
C2745 H2730 0.930 . S
C2745 C2740 1.390 . S
C2745 C2744 1.387 . S
H2746 C2758 0.930 . S
H2747 C2760 0.930 . S
H2748 C2761 0.930 . S
H2749 C2765 0.959 . S
H2750 C2765 0.959 . S
H2751 C2765 0.961 . S
H2752 C2766 0.960 . S
H2753 C2766 0.961 . S
H2754 C2766 0.959 . S
H2755 C2769 0.929 . S
H2756 C2770 0.931 . S
H2757 C2772 0.930 . S
C2758 H2746 0.930 . S
C2758 C2759 1.399 . S
C2758 C2763 1.399 . S
C2759 C2758 1.399 . S
C2759 C2760 1.376 . S
C2760 H2747 0.930 . S
C2760 C2759 1.376 . S
C2760 C2761 1.388 . S
C2761 H2748 0.930 . S
C2761 C2760 1.388 . S
C2761 C2762 1.390 . S
C2762 C2761 1.390 . S
C2762 C2763 1.394 . S
C2762 C2768 1.465 . S
C2763 C2758 1.399 . S
C2763 C2762 1.394 . S
C2763 C2764 1.516 . S
C2764 C2763 1.516 . S
C2764 C2765 1.502 . S
C2764 C2766 1.561 . S
C2764 C2767 1.526 . S
C2765 H2749 0.959 . S
C2765 H2750 0.959 . S
C2765 H2751 0.961 . S
C2765 C2764 1.502 . S
C2766 H2752 0.960 . S
C2766 H2753 0.961 . S
C2766 H2754 0.959 . S
C2766 C2764 1.561 . S
C2767 C2764 1.526 . S
C2767 C2768 1.396 . S
C2767 C2772 1.390 . S
C2768 C2762 1.465 . S
C2768 C2767 1.396 . S
C2768 C2769 1.399 . S
C2769 H2755 0.929 . S
C2769 C2768 1.399 . S
C2769 C2770 1.385 . S
C2770 H2756 0.931 . S
C2770 C2769 1.385 . S
C2770 C2771 1.389 . S
C2771 C2770 1.389 . S
C2771 C2772 1.387 . S
C2772 H2757 0.930 . S
C2772 C2767 1.390 . S
C2772 C2771 1.387 . S
H2773 C2785 0.930 . S
H2774 C2787 0.930 . S
H2775 C2788 0.930 . S
H2776 C2792 0.959 . S
H2777 C2792 0.959 . S
H2778 C2792 0.961 . S
H2779 C2793 0.960 . S
H2780 C2793 0.961 . S
H2781 C2793 0.959 . S
H2782 C2796 0.929 . S
H2783 C2797 0.931 . S
H2784 C2799 0.930 . S
C2785 H2773 0.930 . S
C2785 C2786 1.399 . S
C2785 C2790 1.399 . S
C2786 C2785 1.399 . S
C2786 C2787 1.376 . S
C2787 H2774 0.930 . S
C2787 C2786 1.376 . S
C2787 C2788 1.388 . S
C2788 H2775 0.930 . S
C2788 C2787 1.388 . S
C2788 C2789 1.390 . S
C2789 C2788 1.390 . S
C2789 C2790 1.394 . S
C2789 C2795 1.465 . S
C2790 C2785 1.399 . S
C2790 C2789 1.394 . S
C2790 C2791 1.516 . S
C2791 C2790 1.516 . S
C2791 C2792 1.502 . S
C2791 C2793 1.561 . S
C2791 C2794 1.526 . S
C2792 H2776 0.959 . S
C2792 H2777 0.959 . S
C2792 H2778 0.961 . S
C2792 C2791 1.502 . S
C2793 H2779 0.960 . S
C2793 H2780 0.961 . S
C2793 H2781 0.959 . S
C2793 C2791 1.561 . S
C2794 C2791 1.526 . S
C2794 C2795 1.396 . S
C2794 C2799 1.390 . S
C2795 C2789 1.465 . S
C2795 C2794 1.396 . S
C2795 C2796 1.399 . S
C2796 H2782 0.929 . S
C2796 C2795 1.399 . S
C2796 C2797 1.385 . S
C2797 H2783 0.931 . S
C2797 C2796 1.385 . S
C2797 C2798 1.389 . S
C2798 C2797 1.389 . S
C2798 C2799 1.387 . S
C2799 H2784 0.930 . S
C2799 C2794 1.390 . S
C2799 C2798 1.387 . S
H2800 C2812 0.930 . S
H2801 C2814 0.930 . S
H2802 C2815 0.930 . S
H2803 C2819 0.959 . S
H2804 C2819 0.959 . S
H2805 C2819 0.961 . S
H2806 C2820 0.960 . S
H2807 C2820 0.961 . S
H2808 C2820 0.959 . S
H2809 C2823 0.929 . S
H2810 C2824 0.931 . S
H2811 C2826 0.930 . S
C2812 H2800 0.930 . S
C2812 C2813 1.399 . S
C2812 C2817 1.399 . S
C2813 C2812 1.399 . S
C2813 C2814 1.376 . S
C2814 H2801 0.930 . S
C2814 C2813 1.376 . S
C2814 C2815 1.388 . S
C2815 H2802 0.930 . S
C2815 C2814 1.388 . S
C2815 C2816 1.390 . S
C2816 C2815 1.390 . S
C2816 C2817 1.394 . S
C2816 C2822 1.465 . S
C2817 C2812 1.399 . S
C2817 C2816 1.394 . S
C2817 C2818 1.516 . S
C2818 C2817 1.516 . S
C2818 C2819 1.502 . S
C2818 C2820 1.561 . S
C2818 C2821 1.526 . S
C2819 H2803 0.959 . S
C2819 H2804 0.959 . S
C2819 H2805 0.961 . S
C2819 C2818 1.502 . S
C2820 H2806 0.960 . S
C2820 H2807 0.961 . S
C2820 H2808 0.959 . S
C2820 C2818 1.561 . S
C2821 C2818 1.526 . S
C2821 C2822 1.396 . S
C2821 C2826 1.390 . S
C2822 C2816 1.465 . S
C2822 C2821 1.396 . S
C2822 C2823 1.399 . S
C2823 H2809 0.929 . S
C2823 C2822 1.399 . S
C2823 C2824 1.385 . S
C2824 H2810 0.931 . S
C2824 C2823 1.385 . S
C2824 C2825 1.389 . S
C2825 C2824 1.389 . S
C2825 C2826 1.387 . S
C2826 H2811 0.930 . S
C2826 C2821 1.390 . S
C2826 C2825 1.387 . S
H2827 C2839 0.930 . S
H2828 C2841 0.930 . S
H2829 C2842 0.930 . S
H2830 C2846 0.959 . S
H2831 C2846 0.959 . S
H2832 C2846 0.961 . S
H2833 C2847 0.960 . S
H2834 C2847 0.961 . S
H2835 C2847 0.959 . S
H2836 C2850 0.929 . S
H2837 C2851 0.931 . S
H2838 C2853 0.930 . S
C2839 H2827 0.930 . S
C2839 C2840 1.399 . S
C2839 C2844 1.399 . S
C2840 C2839 1.399 . S
C2840 C2841 1.376 . S
C2841 H2828 0.930 . S
C2841 C2840 1.376 . S
C2841 C2842 1.388 . S
C2842 H2829 0.930 . S
C2842 C2841 1.388 . S
C2842 C2843 1.390 . S
C2843 C2842 1.390 . S
C2843 C2844 1.394 . S
C2843 C2849 1.465 . S
C2844 C2839 1.399 . S
C2844 C2843 1.394 . S
C2844 C2845 1.516 . S
C2845 C2844 1.516 . S
C2845 C2846 1.502 . S
C2845 C2847 1.561 . S
C2845 C2848 1.526 . S
C2846 H2830 0.959 . S
C2846 H2831 0.959 . S
C2846 H2832 0.961 . S
C2846 C2845 1.502 . S
C2847 H2833 0.960 . S
C2847 H2834 0.961 . S
C2847 H2835 0.959 . S
C2847 C2845 1.561 . S
C2848 C2845 1.526 . S
C2848 C2849 1.396 . S
C2848 C2853 1.390 . S
C2849 C2843 1.465 . S
C2849 C2848 1.396 . S
C2849 C2850 1.399 . S
C2850 H2836 0.929 . S
C2850 C2849 1.399 . S
C2850 C2851 1.385 . S
C2851 H2837 0.931 . S
C2851 C2850 1.385 . S
C2851 C2852 1.389 . S
C2852 C2851 1.389 . S
C2852 C2853 1.387 . S
C2853 H2838 0.930 . S
C2853 C2848 1.390 . S
C2853 C2852 1.387 . S
H2854 C2866 0.930 1_655 S
H2855 C2868 0.930 . S
H2856 C2869 0.930 . S
H2857 C2873 0.959 . S
H2858 C2873 0.959 . S
H2859 C2873 0.961 . S
H2860 C2874 0.960 . S
H2861 C2874 0.961 . S
H2862 C2874 0.959 . S
H2863 C2877 0.929 . S
H2864 C2878 0.931 1_554 S
H2865 C2880 0.930 . S
C2866 H2854 0.930 1_455 S
C2866 C2867 1.399 . S
C2866 C2871 1.399 . S
C2867 C2866 1.399 . S
C2867 C2868 1.376 . S
C2868 H2855 0.930 . S
C2868 C2867 1.376 . S
C2868 C2869 1.388 . S
C2869 H2856 0.930 . S
C2869 C2868 1.388 . S
C2869 C2870 1.390 . S
C2870 C2869 1.390 . S
C2870 C2871 1.394 . S
C2870 C2876 1.465 . S
C2871 C2866 1.399 . S
C2871 C2870 1.394 . S
C2871 C2872 1.517 . S
C2872 C2871 1.517 . S
C2872 C2873 1.495 1_455 S
C2872 C2874 1.567 . S
C2872 C2875 1.526 . S
C2873 H2857 0.959 . S
C2873 H2858 0.959 . S
C2873 H2859 0.961 . S
C2873 C2872 1.495 1_655 S
C2874 H2860 0.960 . S
C2874 H2861 0.961 . S
C2874 H2862 0.959 . S
C2874 C2872 1.567 . S
C2875 C2872 1.526 . S
C2875 C2876 1.396 . S
C2875 C2880 1.390 1_455 S
C2876 C2870 1.465 . S
C2876 C2875 1.396 . S
C2876 C2877 1.399 . S
C2877 H2863 0.929 . S
C2877 C2876 1.399 . S
C2877 C2878 1.385 . S
C2878 H2864 0.931 1_556 S
C2878 C2877 1.385 . S
C2878 C2879 1.389 . S
C2879 C2878 1.389 . S
C2879 C2880 1.387 1_455 S
C2880 H2865 0.930 . S
C2880 C2875 1.390 1_655 S
C2880 C2879 1.387 1_655 S
H2881 C2893 0.930 . S
H2882 C2895 0.930 . S
H2883 C2896 0.930 . S
H2884 C2900 0.959 . S
H2885 C2900 0.959 . S
H2886 C2900 0.961 . S
H2887 C2901 0.960 . S
H2888 C2901 0.961 . S
H2889 C2901 0.959 . S
H2890 C2904 0.929 . S
H2891 C2905 0.931 . S
H2892 C2907 0.930 . S
C2893 H2881 0.930 . S
C2893 C2894 1.399 . S
C2893 C2898 1.399 . S
C2894 C2893 1.399 . S
C2894 C2895 1.376 . S
C2895 H2882 0.930 . S
C2895 C2894 1.376 . S
C2895 C2896 1.388 . S
C2896 H2883 0.930 . S
C2896 C2895 1.388 . S
C2896 C2897 1.390 . S
C2897 C2896 1.390 . S
C2897 C2898 1.394 . S
C2897 C2903 1.465 . S
C2898 C2893 1.399 . S
C2898 C2897 1.394 . S
C2898 C2899 1.516 . S
C2899 C2898 1.516 . S
C2899 C2900 1.502 . S
C2899 C2901 1.561 . S
C2899 C2902 1.526 . S
C2900 H2884 0.959 . S
C2900 H2885 0.959 . S
C2900 H2886 0.961 . S
C2900 C2899 1.502 . S
C2901 H2887 0.960 . S
C2901 H2888 0.961 . S
C2901 H2889 0.959 . S
C2901 C2899 1.561 . S
C2902 C2899 1.526 . S
C2902 C2903 1.396 . S
C2902 C2907 1.390 . S
C2903 C2897 1.465 . S
C2903 C2902 1.396 . S
C2903 C2904 1.399 . S
C2904 H2890 0.929 . S
C2904 C2903 1.399 . S
C2904 C2905 1.385 . S
C2905 H2891 0.931 . S
C2905 C2904 1.385 . S
C2905 C2906 1.389 . S
C2906 C2905 1.389 . S
C2906 C2907 1.387 . S
C2907 H2892 0.930 . S
C2907 C2902 1.390 . S
C2907 C2906 1.387 . S
H2908 C2920 0.930 . S
H2909 C2922 0.930 . S
H2910 C2923 0.930 . S
H2911 C2927 0.959 . S
H2912 C2927 0.959 . S
H2913 C2927 0.961 . S
H2914 C2928 0.960 . S
H2915 C2928 0.961 . S
H2916 C2928 0.959 . S
H2917 C2931 0.929 . S
H2918 C2932 0.931 . S
H2919 C2934 0.930 . S
C2920 H2908 0.930 . S
C2920 C2921 1.399 . S
C2920 C2925 1.399 . S
C2921 C2920 1.399 . S
C2921 C2922 1.376 . S
C2922 H2909 0.930 . S
C2922 C2921 1.376 . S
C2922 C2923 1.388 . S
C2923 H2910 0.930 . S
C2923 C2922 1.388 . S
C2923 C2924 1.390 . S
C2924 C2923 1.390 . S
C2924 C2925 1.394 . S
C2924 C2930 1.465 . S
C2925 C2920 1.399 . S
C2925 C2924 1.394 . S
C2925 C2926 1.516 . S
C2926 C2925 1.516 . S
C2926 C2927 1.502 . S
C2926 C2928 1.561 . S
C2926 C2929 1.526 . S
C2927 H2911 0.959 . S
C2927 H2912 0.959 . S
C2927 H2913 0.961 . S
C2927 C2926 1.502 . S
C2928 H2914 0.960 . S
C2928 H2915 0.961 . S
C2928 H2916 0.959 . S
C2928 C2926 1.561 . S
C2929 C2926 1.526 . S
C2929 C2930 1.396 . S
C2929 C2934 1.390 . S
C2930 C2924 1.465 . S
C2930 C2929 1.396 . S
C2930 C2931 1.399 . S
C2931 H2917 0.929 . S
C2931 C2930 1.399 . S
C2931 C2932 1.385 . S
C2932 H2918 0.931 . S
C2932 C2931 1.385 . S
C2932 C2933 1.389 . S
C2933 C2932 1.389 . S
C2933 C2934 1.387 . S
C2934 H2919 0.930 . S
C2934 C2929 1.390 . S
C2934 C2933 1.387 . S
H2935 C2947 0.930 . S
H2936 C2949 0.930 . S
H2937 C2950 0.930 . S
H2938 C2954 0.959 . S
H2939 C2954 0.959 . S
H2940 C2954 0.961 . S
H2941 C2955 0.960 . S
H2942 C2955 0.961 . S
H2943 C2955 0.959 . S
H2944 C2958 0.929 . S
H2945 C2959 0.931 . S
H2946 C2961 0.930 . S
C2947 H2935 0.930 . S
C2947 C2948 1.399 . S
C2947 C2952 1.399 . S
C2948 C2947 1.399 . S
C2948 C2949 1.376 . S
C2949 H2936 0.930 . S
C2949 C2948 1.376 . S
C2949 C2950 1.388 . S
C2950 H2937 0.930 . S
C2950 C2949 1.388 . S
C2950 C2951 1.390 . S
C2951 C2950 1.390 . S
C2951 C2952 1.394 . S
C2951 C2957 1.465 . S
C2952 C2947 1.399 . S
C2952 C2951 1.394 . S
C2952 C2953 1.516 . S
C2953 C2952 1.516 . S
C2953 C2954 1.502 . S
C2953 C2955 1.561 . S
C2953 C2956 1.526 . S
C2954 H2938 0.959 . S
C2954 H2939 0.959 . S
C2954 H2940 0.961 . S
C2954 C2953 1.502 . S
C2955 H2941 0.960 . S
C2955 H2942 0.961 . S
C2955 H2943 0.959 . S
C2955 C2953 1.561 . S
C2956 C2953 1.526 . S
C2956 C2957 1.396 . S
C2956 C2961 1.390 . S
C2957 C2951 1.465 . S
C2957 C2956 1.396 . S
C2957 C2958 1.399 . S
C2958 H2944 0.929 . S
C2958 C2957 1.399 . S
C2958 C2959 1.385 . S
C2959 H2945 0.931 . S
C2959 C2958 1.385 . S
C2959 C2960 1.389 . S
C2960 C2959 1.389 . S
C2960 C2961 1.387 . S
C2961 H2946 0.930 . S
C2961 C2956 1.390 . S
C2961 C2960 1.387 . S
H2962 C2974 0.930 . S
H2963 C2976 0.930 . S
H2964 C2977 0.930 . S
H2965 C2981 0.959 . S
H2966 C2981 0.959 . S
H2967 C2981 0.961 . S
H2968 C2982 0.960 . S
H2969 C2982 0.961 . S
H2970 C2982 0.959 1_655 S
H2971 C2985 0.929 . S
H2972 C2986 0.931 . S
H2973 C2988 0.930 . S
C2974 H2962 0.930 . S
C2974 C2975 1.399 . S
C2974 C2979 1.399 . S
C2975 C2974 1.399 . S
C2975 C2976 1.376 . S
C2976 H2963 0.930 . S
C2976 C2975 1.376 . S
C2976 C2977 1.388 . S
C2977 H2964 0.930 . S
C2977 C2976 1.388 . S
C2977 C2978 1.390 . S
C2978 C2977 1.390 . S
C2978 C2979 1.394 . S
C2978 C2984 1.465 . S
C2979 C2974 1.399 . S
C2979 C2978 1.394 . S
C2979 C2980 1.516 . S
C2980 C2979 1.516 . S
C2980 C2981 1.502 . S
C2980 C2982 1.561 . S
C2980 C2983 1.526 . S
C2981 H2965 0.959 . S
C2981 H2966 0.959 . S
C2981 H2967 0.961 . S
C2981 C2980 1.502 . S
C2982 H2968 0.960 . S
C2982 H2969 0.961 . S
C2982 H2970 0.959 1_455 S
C2982 C2980 1.561 . S
C2983 C2980 1.526 . S
C2983 C2984 1.396 . S
C2983 C2988 1.390 . S
C2984 C2978 1.465 . S
C2984 C2983 1.396 . S
C2984 C2985 1.399 . S
C2985 H2971 0.929 . S
C2985 C2984 1.399 . S
C2985 C2986 1.385 . S
C2986 H2972 0.931 . S
C2986 C2985 1.385 . S
C2986 C2987 1.389 . S
C2987 C2986 1.389 . S
C2987 C2988 1.387 . S
C2988 H2973 0.930 . S
C2988 C2983 1.390 . S
C2988 C2987 1.387 . S
H2989 C3001 0.930 . S
H2990 C3003 0.930 . S
H2991 C3004 0.930 . S
H2992 C3008 0.959 . S
H2993 C3008 0.959 . S
H2994 C3008 0.961 . S
H2995 C3009 0.960 . S
H2996 C3009 0.961 . S
H2997 C3009 0.959 . S
H2998 C3012 0.929 . S
H2999 C3013 0.931 . S
H3000 C3015 0.930 . S
C3001 H2989 0.930 . S
C3001 C3002 1.399 . S
C3001 C3006 1.399 . S
C3002 C3001 1.399 . S
C3002 C3003 1.376 . S
C3003 H2990 0.930 . S
C3003 C3002 1.376 . S
C3003 C3004 1.388 . S
C3004 H2991 0.930 . S
C3004 C3003 1.388 . S
C3004 C3005 1.390 . S
C3005 C3004 1.390 . S
C3005 C3006 1.394 . S
C3005 C3011 1.465 . S
C3006 C3001 1.399 . S
C3006 C3005 1.394 . S
C3006 C3007 1.516 . S
C3007 C3006 1.516 . S
C3007 C3008 1.502 . S
C3007 C3009 1.561 . S
C3007 C3010 1.526 . S
C3008 H2992 0.959 . S
C3008 H2993 0.959 . S
C3008 H2994 0.961 . S
C3008 C3007 1.502 . S
C3009 H2995 0.960 . S
C3009 H2996 0.961 . S
C3009 H2997 0.959 . S
C3009 C3007 1.561 . S
C3010 C3007 1.526 . S
C3010 C3011 1.396 . S
C3010 C3015 1.390 . S
C3011 C3005 1.465 . S
C3011 C3010 1.396 . S
C3011 C3012 1.399 . S
C3012 H2998 0.929 . S
C3012 C3011 1.399 . S
C3012 C3013 1.385 . S
C3013 H2999 0.931 . S
C3013 C3012 1.385 . S
C3013 C3014 1.389 . S
C3014 C3013 1.389 . S
C3014 C3015 1.387 . S
C3015 H3000 0.930 . S
C3015 C3010 1.390 . S
C3015 C3014 1.387 . S
H3016 C3028 0.930 . S
H3017 C3030 0.930 . S
H3018 C3031 0.930 . S
H3019 C3035 0.959 . S
H3020 C3035 0.959 . S
H3021 C3035 0.961 . S
H3022 C3036 0.960 . S
H3023 C3036 0.961 . S
H3024 C3036 0.959 . S
H3025 C3039 0.929 . S
H3026 C3040 0.931 . S
H3027 C3042 0.930 . S
C3028 H3016 0.930 . S
C3028 C3029 1.399 . S
C3028 C3033 1.399 . S
C3029 C3028 1.399 . S
C3029 C3030 1.376 . S
C3030 H3017 0.930 . S
C3030 C3029 1.376 . S
C3030 C3031 1.388 . S
C3031 H3018 0.930 . S
C3031 C3030 1.388 . S
C3031 C3032 1.390 . S
C3032 C3031 1.390 . S
C3032 C3033 1.394 . S
C3032 C3038 1.465 . S
C3033 C3028 1.399 . S
C3033 C3032 1.394 . S
C3033 C3034 1.516 . S
C3034 C3033 1.516 . S
C3034 C3035 1.502 . S
C3034 C3036 1.561 . S
C3034 C3037 1.526 . S
C3035 H3019 0.959 . S
C3035 H3020 0.959 . S
C3035 H3021 0.961 . S
C3035 C3034 1.502 . S
C3036 H3022 0.960 . S
C3036 H3023 0.961 . S
C3036 H3024 0.959 . S
C3036 C3034 1.561 . S
C3037 C3034 1.526 . S
C3037 C3038 1.396 . S
C3037 C3042 1.390 . S
C3038 C3032 1.465 . S
C3038 C3037 1.396 . S
C3038 C3039 1.399 . S
C3039 H3025 0.929 . S
C3039 C3038 1.399 . S
C3039 C3040 1.385 . S
C3040 H3026 0.931 . S
C3040 C3039 1.385 . S
C3040 C3041 1.389 . S
C3041 C3040 1.389 . S
C3041 C3042 1.387 . S
C3042 H3027 0.930 . S
C3042 C3037 1.390 . S
C3042 C3041 1.387 . S
H3043 C3055 0.930 . S
H3044 C3057 0.930 . S
H3045 C3058 0.930 . S
H3046 C3062 0.959 . S
H3047 C3062 0.959 . S
H3048 C3062 0.961 . S
H3049 C3063 0.960 . S
H3050 C3063 0.961 . S
H3051 C3063 0.959 . S
H3052 C3066 0.929 . S
H3053 C3067 0.931 . S
H3054 C3069 0.930 . S
C3055 H3043 0.930 . S
C3055 C3056 1.399 . S
C3055 C3060 1.399 . S
C3056 C3055 1.399 . S
C3056 C3057 1.376 . S
C3057 H3044 0.930 . S
C3057 C3056 1.376 . S
C3057 C3058 1.388 . S
C3058 H3045 0.930 . S
C3058 C3057 1.388 . S
C3058 C3059 1.390 . S
C3059 C3058 1.390 . S
C3059 C3060 1.394 . S
C3059 C3065 1.465 . S
C3060 C3055 1.399 . S
C3060 C3059 1.394 . S
C3060 C3061 1.516 . S
C3061 C3060 1.516 . S
C3061 C3062 1.502 . S
C3061 C3063 1.561 . S
C3061 C3064 1.526 . S
C3062 H3046 0.959 . S
C3062 H3047 0.959 . S
C3062 H3048 0.961 . S
C3062 C3061 1.502 . S
C3063 H3049 0.960 . S
C3063 H3050 0.961 . S
C3063 H3051 0.959 . S
C3063 C3061 1.561 . S
C3064 C3061 1.526 . S
C3064 C3065 1.396 . S
C3064 C3069 1.390 . S
C3065 C3059 1.465 . S
C3065 C3064 1.396 . S
C3065 C3066 1.399 . S
C3066 H3052 0.929 . S
C3066 C3065 1.399 . S
C3066 C3067 1.385 . S
C3067 H3053 0.931 . S
C3067 C3066 1.385 . S
C3067 C3068 1.389 . S
C3068 C3067 1.389 . S
C3068 C3069 1.387 . S
C3069 H3054 0.930 . S
C3069 C3064 1.390 . S
C3069 C3068 1.387 . S
H3070 C3082 0.930 . S
H3071 C3084 0.930 . S
H3072 C3085 0.930 . S
H3073 C3089 0.959 . S
H3074 C3089 0.959 . S
H3075 C3089 0.961 . S
H3076 C3090 0.960 . S
H3077 C3090 0.961 . S
H3078 C3090 0.959 . S
H3079 C3093 0.929 . S
H3080 C3094 0.931 . S
H3081 C3096 0.930 . S
C3082 H3070 0.930 . S
C3082 C3083 1.399 . S
C3082 C3087 1.399 . S
C3083 C3082 1.399 . S
C3083 C3084 1.376 . S
C3084 H3071 0.930 . S
C3084 C3083 1.376 . S
C3084 C3085 1.388 . S
C3085 H3072 0.930 . S
C3085 C3084 1.388 . S
C3085 C3086 1.390 . S
C3086 C3085 1.390 . S
C3086 C3087 1.394 . S
C3086 C3092 1.465 . S
C3087 C3082 1.399 . S
C3087 C3086 1.394 . S
C3087 C3088 1.516 . S
C3088 C3087 1.516 . S
C3088 C3089 1.502 . S
C3088 C3090 1.561 . S
C3088 C3091 1.526 . S
C3089 H3073 0.959 . S
C3089 H3074 0.959 . S
C3089 H3075 0.961 . S
C3089 C3088 1.502 . S
C3090 H3076 0.960 . S
C3090 H3077 0.961 . S
C3090 H3078 0.959 . S
C3090 C3088 1.561 . S
C3091 C3088 1.526 . S
C3091 C3092 1.396 . S
C3091 C3096 1.390 . S
C3092 C3086 1.465 . S
C3092 C3091 1.396 . S
C3092 C3093 1.399 . S
C3093 H3079 0.929 . S
C3093 C3092 1.399 . S
C3093 C3094 1.385 . S
C3094 H3080 0.931 . S
C3094 C3093 1.385 . S
C3094 C3095 1.389 . S
C3095 C3094 1.389 . S
C3095 C3096 1.387 . S
C3096 H3081 0.930 . S
C3096 C3091 1.390 . S
C3096 C3095 1.387 . S
H3097 C3109 0.930 . S
H3098 C3111 0.930 . S
H3099 C3112 0.930 . S
H3100 C3116 0.959 . S
H3101 C3116 0.959 . S
H3102 C3116 0.961 . S
H3103 C3117 0.960 . S
H3104 C3117 0.961 . S
H3105 C3117 0.959 . S
H3106 C3120 0.929 . S
H3107 C3121 0.931 . S
H3108 C3123 0.930 . S
C3109 H3097 0.930 . S
C3109 C3110 1.399 . S
C3109 C3114 1.399 . S
C3110 C3109 1.399 . S
C3110 C3111 1.376 . S
C3111 H3098 0.930 . S
C3111 C3110 1.376 . S
C3111 C3112 1.388 . S
C3112 H3099 0.930 . S
C3112 C3111 1.388 . S
C3112 C3113 1.390 . S
C3113 C3112 1.390 . S
C3113 C3114 1.394 . S
C3113 C3119 1.465 . S
C3114 C3109 1.399 . S
C3114 C3113 1.394 . S
C3114 C3115 1.516 . S
C3115 C3114 1.516 . S
C3115 C3116 1.502 . S
C3115 C3117 1.561 . S
C3115 C3118 1.526 . S
C3116 H3100 0.959 . S
C3116 H3101 0.959 . S
C3116 H3102 0.961 . S
C3116 C3115 1.502 . S
C3117 H3103 0.960 . S
C3117 H3104 0.961 . S
C3117 H3105 0.959 . S
C3117 C3115 1.561 . S
C3118 C3115 1.526 . S
C3118 C3119 1.396 . S
C3118 C3123 1.390 . S
C3119 C3113 1.465 . S
C3119 C3118 1.396 . S
C3119 C3120 1.399 . S
C3120 H3106 0.929 . S
C3120 C3119 1.399 . S
C3120 C3121 1.385 . S
C3121 H3107 0.931 . S
C3121 C3120 1.385 . S
C3121 C3122 1.389 . S
C3122 C3121 1.389 . S
C3122 C3123 1.387 . S
C3123 H3108 0.930 . S
C3123 C3118 1.390 . S
C3123 C3122 1.387 . S
H3124 C3136 0.930 . S
H3125 C3138 0.930 . S
H3126 C3139 0.930 . S
H3127 C3143 0.959 . S
H3128 C3143 0.959 . S
H3129 C3143 0.961 . S
H3130 C3144 0.960 . S
H3131 C3144 0.961 . S
H3132 C3144 0.959 . S
H3133 C3147 0.929 . S
H3134 C3148 0.931 . S
H3135 C3150 0.930 . S
C3136 H3124 0.930 . S
C3136 C3137 1.399 . S
C3136 C3141 1.399 . S
C3137 C3136 1.399 . S
C3137 C3138 1.376 . S
C3138 H3125 0.930 . S
C3138 C3137 1.376 . S
C3138 C3139 1.388 . S
C3139 H3126 0.930 . S
C3139 C3138 1.388 . S
C3139 C3140 1.390 . S
C3140 C3139 1.390 . S
C3140 C3141 1.394 . S
C3140 C3146 1.465 . S
C3141 C3136 1.399 . S
C3141 C3140 1.394 . S
C3141 C3142 1.516 . S
C3142 C3141 1.516 . S
C3142 C3143 1.502 . S
C3142 C3144 1.561 . S
C3142 C3145 1.526 . S
C3143 H3127 0.959 . S
C3143 H3128 0.959 . S
C3143 H3129 0.961 . S
C3143 C3142 1.502 . S
C3144 H3130 0.960 . S
C3144 H3131 0.961 . S
C3144 H3132 0.959 . S
C3144 C3142 1.561 . S
C3145 C3142 1.526 . S
C3145 C3146 1.396 . S
C3145 C3150 1.390 . S
C3146 C3140 1.465 . S
C3146 C3145 1.396 . S
C3146 C3147 1.399 . S
C3147 H3133 0.929 . S
C3147 C3146 1.399 . S
C3147 C3148 1.385 . S
C3148 H3134 0.931 . S
C3148 C3147 1.385 . S
C3148 C3149 1.389 . S
C3149 C3148 1.389 . S
C3149 C3150 1.387 . S
C3150 H3135 0.930 . S
C3150 C3145 1.390 . S
C3150 C3149 1.387 . S
H3151 C3163 0.930 . S
H3152 C3165 0.930 . S
H3153 C3166 0.930 . S
H3154 C3170 0.959 . S
H3155 C3170 0.959 . S
H3156 C3170 0.961 . S
H3157 C3171 0.960 . S
H3158 C3171 0.961 . S
H3159 C3171 0.959 . S
H3160 C3174 0.929 . S
H3161 C3175 0.931 . S
H3162 C3177 0.930 . S
C3163 H3151 0.930 . S
C3163 C3164 1.399 . S
C3163 C3168 1.399 . S
C3164 C3163 1.399 . S
C3164 C3165 1.376 . S
C3165 H3152 0.930 . S
C3165 C3164 1.376 . S
C3165 C3166 1.388 . S
C3166 H3153 0.930 . S
C3166 C3165 1.388 . S
C3166 C3167 1.390 . S
C3167 C3166 1.390 . S
C3167 C3168 1.394 . S
C3167 C3173 1.465 . S
C3168 C3163 1.399 . S
C3168 C3167 1.394 . S
C3168 C3169 1.516 . S
C3169 C3168 1.516 . S
C3169 C3170 1.502 . S
C3169 C3171 1.561 . S
C3169 C3172 1.526 . S
C3170 H3154 0.959 . S
C3170 H3155 0.959 . S
C3170 H3156 0.961 . S
C3170 C3169 1.502 . S
C3171 H3157 0.960 . S
C3171 H3158 0.961 . S
C3171 H3159 0.959 . S
C3171 C3169 1.561 . S
C3172 C3169 1.526 . S
C3172 C3173 1.396 . S
C3172 C3177 1.390 . S
C3173 C3167 1.465 . S
C3173 C3172 1.396 . S
C3173 C3174 1.399 . S
C3174 H3160 0.929 . S
C3174 C3173 1.399 . S
C3174 C3175 1.385 . S
C3175 H3161 0.931 . S
C3175 C3174 1.385 . S
C3175 C3176 1.389 . S
C3176 C3175 1.389 . S
C3176 C3177 1.387 . S
C3177 H3162 0.930 . S
C3177 C3172 1.390 . S
C3177 C3176 1.387 . S
H3178 C3190 0.930 . S
H3179 C3192 0.930 . S
H3180 C3193 0.930 . S
H3181 C3197 0.959 . S
H3182 C3197 0.959 . S
H3183 C3197 0.961 . S
H3184 C3198 0.960 . S
H3185 C3198 0.961 . S
H3186 C3198 0.959 . S
H3187 C3201 0.929 . S
H3188 C3202 0.931 . S
H3189 C3204 0.930 . S
C3190 H3178 0.930 . S
C3190 C3191 1.399 . S
C3190 C3195 1.399 . S
C3191 C3190 1.399 . S
C3191 C3192 1.376 . S
C3192 H3179 0.930 . S
C3192 C3191 1.376 . S
C3192 C3193 1.388 . S
C3193 H3180 0.930 . S
C3193 C3192 1.388 . S
C3193 C3194 1.390 . S
C3194 C3193 1.390 . S
C3194 C3195 1.394 . S
C3194 C3200 1.465 . S
C3195 C3190 1.399 . S
C3195 C3194 1.394 . S
C3195 C3196 1.516 . S
C3196 C3195 1.516 . S
C3196 C3197 1.502 . S
C3196 C3198 1.561 . S
C3196 C3199 1.526 . S
C3197 H3181 0.959 . S
C3197 H3182 0.959 . S
C3197 H3183 0.961 . S
C3197 C3196 1.502 . S
C3198 H3184 0.960 . S
C3198 H3185 0.961 . S
C3198 H3186 0.959 . S
C3198 C3196 1.561 . S
C3199 C3196 1.526 . S
C3199 C3200 1.396 . S
C3199 C3204 1.390 . S
C3200 C3194 1.465 . S
C3200 C3199 1.396 . S
C3200 C3201 1.399 . S
C3201 H3187 0.929 . S
C3201 C3200 1.399 . S
C3201 C3202 1.385 . S
C3202 H3188 0.931 . S
C3202 C3201 1.385 . S
C3202 C3203 1.389 . S
C3203 C3202 1.389 . S
C3203 C3204 1.387 . S
C3204 H3189 0.930 . S
C3204 C3199 1.390 . S
C3204 C3203 1.387 . S
H3205 C3217 0.930 . S
H3206 C3219 0.930 . S
H3207 C3220 0.930 . S
H3208 C3224 0.959 . S
H3209 C3224 0.959 . S
H3210 C3224 0.961 . S
H3211 C3225 0.960 . S
H3212 C3225 0.961 . S
H3213 C3225 0.959 . S
H3214 C3228 0.929 . S
H3215 C3229 0.931 . S
H3216 C3231 0.930 . S
C3217 H3205 0.930 . S
C3217 C3218 1.399 . S
C3217 C3222 1.399 . S
C3218 C3217 1.399 . S
C3218 C3219 1.376 . S
C3219 H3206 0.930 . S
C3219 C3218 1.376 . S
C3219 C3220 1.388 . S
C3220 H3207 0.930 . S
C3220 C3219 1.388 . S
C3220 C3221 1.390 . S
C3221 C3220 1.390 . S
C3221 C3222 1.394 . S
C3221 C3227 1.465 . S
C3222 C3217 1.399 . S
C3222 C3221 1.394 . S
C3222 C3223 1.516 . S
C3223 C3222 1.516 . S
C3223 C3224 1.502 . S
C3223 C3225 1.561 . S
C3223 C3226 1.526 . S
C3224 H3208 0.959 . S
C3224 H3209 0.959 . S
C3224 H3210 0.961 . S
C3224 C3223 1.502 . S
C3225 H3211 0.960 . S
C3225 H3212 0.961 . S
C3225 H3213 0.959 . S
C3225 C3223 1.561 . S
C3226 C3223 1.526 . S
C3226 C3227 1.396 . S
C3226 C3231 1.390 . S
C3227 C3221 1.465 . S
C3227 C3226 1.396 . S
C3227 C3228 1.399 . S
C3228 H3214 0.929 . S
C3228 C3227 1.399 . S
C3228 C3229 1.385 . S
C3229 H3215 0.931 . S
C3229 C3228 1.385 . S
C3229 C3230 1.389 . S
C3230 C3229 1.389 . S
C3230 C3231 1.387 . S
C3231 H3216 0.930 . S
C3231 C3226 1.390 . S
C3231 C3230 1.387 . S
H3232 C3244 0.930 . S
H3233 C3246 0.930 . S
H3234 C3247 0.930 . S
H3235 C3251 0.959 . S
H3236 C3251 0.959 . S
H3237 C3251 0.961 . S
H3238 C3252 0.960 . S
H3239 C3252 0.961 . S
H3240 C3252 0.959 . S
H3241 C3255 0.929 . S
H3242 C3256 0.931 . S
H3243 C3258 0.930 . S
C3244 H3232 0.930 . S
C3244 C3245 1.399 . S
C3244 C3249 1.399 . S
C3245 C3244 1.399 . S
C3245 C3246 1.376 . S
C3246 H3233 0.930 . S
C3246 C3245 1.376 . S
C3246 C3247 1.388 . S
C3247 H3234 0.930 . S
C3247 C3246 1.388 . S
C3247 C3248 1.390 . S
C3248 C3247 1.390 . S
C3248 C3249 1.394 . S
C3248 C3254 1.465 . S
C3249 C3244 1.399 . S
C3249 C3248 1.394 . S
C3249 C3250 1.516 . S
C3250 C3249 1.516 . S
C3250 C3251 1.502 . S
C3250 C3252 1.561 . S
C3250 C3253 1.526 . S
C3251 H3235 0.959 . S
C3251 H3236 0.959 . S
C3251 H3237 0.961 . S
C3251 C3250 1.502 . S
C3252 H3238 0.960 . S
C3252 H3239 0.961 . S
C3252 H3240 0.959 . S
C3252 C3250 1.561 . S
C3253 C3250 1.526 . S
C3253 C3254 1.396 . S
C3253 C3258 1.390 . S
C3254 C3248 1.465 . S
C3254 C3253 1.396 . S
C3254 C3255 1.399 . S
C3255 H3241 0.929 . S
C3255 C3254 1.399 . S
C3255 C3256 1.385 . S
C3256 H3242 0.931 . S
C3256 C3255 1.385 . S
C3256 C3257 1.389 . S
C3257 C3256 1.389 . S
C3257 C3258 1.387 . S
C3258 H3243 0.930 . S
C3258 C3253 1.390 . S
C3258 C3257 1.387 . S
H3259 C3271 0.930 . S
H3260 C3273 0.930 . S
H3261 C3274 0.930 . S
H3262 C3278 0.959 . S
H3263 C3278 0.959 . S
H3264 C3278 0.961 . S
H3265 C3279 0.960 . S
H3266 C3279 0.961 . S
H3267 C3279 0.959 . S
H3268 C3282 0.929 . S
H3269 C3283 0.931 . S
H3270 C3285 0.930 . S
C3271 H3259 0.930 . S
C3271 C3272 1.399 . S
C3271 C3276 1.399 . S
C3272 C3271 1.399 . S
C3272 C3273 1.376 . S
C3273 H3260 0.930 . S
C3273 C3272 1.376 . S
C3273 C3274 1.388 . S
C3274 H3261 0.930 . S
C3274 C3273 1.388 . S
C3274 C3275 1.390 . S
C3275 C3274 1.390 . S
C3275 C3276 1.394 . S
C3275 C3281 1.465 . S
C3276 C3271 1.399 . S
C3276 C3275 1.394 . S
C3276 C3277 1.516 . S
C3277 C3276 1.516 . S
C3277 C3278 1.502 . S
C3277 C3279 1.561 . S
C3277 C3280 1.526 . S
C3278 H3262 0.959 . S
C3278 H3263 0.959 . S
C3278 H3264 0.961 . S
C3278 C3277 1.502 . S
C3279 H3265 0.960 . S
C3279 H3266 0.961 . S
C3279 H3267 0.959 . S
C3279 C3277 1.561 . S
C3280 C3277 1.526 . S
C3280 C3281 1.396 . S
C3280 C3285 1.390 . S
C3281 C3275 1.465 . S
C3281 C3280 1.396 . S
C3281 C3282 1.399 . S
C3282 H3268 0.929 . S
C3282 C3281 1.399 . S
C3282 C3283 1.385 . S
C3283 H3269 0.931 . S
C3283 C3282 1.385 . S
C3283 C3284 1.389 . S
C3284 C3283 1.389 . S
C3284 C3285 1.387 . S
C3285 H3270 0.930 . S
C3285 C3280 1.390 . S
C3285 C3284 1.387 . S
H3286 C3298 0.930 . S
H3287 C3300 0.930 . S
H3288 C3301 0.930 . S
H3289 C3305 0.959 . S
H3290 C3305 0.959 . S
H3291 C3305 0.961 . S
H3292 C3306 0.960 . S
H3293 C3306 0.961 . S
H3294 C3306 0.959 . S
H3295 C3309 0.929 . S
H3296 C3310 0.931 . S
H3297 C3312 0.930 . S
C3298 H3286 0.930 . S
C3298 C3299 1.399 . S
C3298 C3303 1.399 . S
C3299 C3298 1.399 . S
C3299 C3300 1.376 . S
C3300 H3287 0.930 . S
C3300 C3299 1.376 . S
C3300 C3301 1.388 . S
C3301 H3288 0.930 . S
C3301 C3300 1.388 . S
C3301 C3302 1.390 . S
C3302 C3301 1.390 . S
C3302 C3303 1.394 . S
C3302 C3308 1.465 . S
C3303 C3298 1.399 . S
C3303 C3302 1.394 . S
C3303 C3304 1.516 . S
C3304 C3303 1.516 . S
C3304 C3305 1.502 . S
C3304 C3306 1.561 . S
C3304 C3307 1.526 . S
C3305 H3289 0.959 . S
C3305 H3290 0.959 . S
C3305 H3291 0.961 . S
C3305 C3304 1.502 . S
C3306 H3292 0.960 . S
C3306 H3293 0.961 . S
C3306 H3294 0.959 . S
C3306 C3304 1.561 . S
C3307 C3304 1.526 . S
C3307 C3308 1.396 . S
C3307 C3312 1.390 . S
C3308 C3302 1.465 . S
C3308 C3307 1.396 . S
C3308 C3309 1.399 . S
C3309 H3295 0.929 . S
C3309 C3308 1.399 . S
C3309 C3310 1.385 . S
C3310 H3296 0.931 . S
C3310 C3309 1.385 . S
C3310 C3311 1.389 . S
C3311 C3310 1.389 . S
C3311 C3312 1.387 . S
C3312 H3297 0.930 . S
C3312 C3307 1.390 . S
C3312 C3311 1.387 . S
H3313 C3325 0.915 1_556 S
H3314 C3327 0.930 . S
H3315 C3328 0.930 . S
H3316 C3332 0.959 . S
H3317 C3332 0.959 . S
H3318 C3332 0.961 . S
H3319 C3333 0.960 . S
H3320 C3333 0.961 . S
H3321 C3333 0.959 . S
H3322 C3336 0.929 . S
H3323 C3337 0.931 . S
H3324 C3339 0.930 1_556 S
C3325 H3313 0.915 1_554 S
C3325 C3326 1.399 . S
C3325 C3330 1.399 . S
C3326 C3325 1.399 . S
C3326 C3327 1.376 . S
C3327 H3314 0.930 . S
C3327 C3326 1.376 . S
C3327 C3328 1.388 . S
C3328 H3315 0.930 . S
C3328 C3327 1.388 . S
C3328 C3329 1.390 . S
C3329 C3328 1.390 . S
C3329 C3330 1.394 . S
C3329 C3335 1.465 . S
C3330 C3325 1.399 . S
C3330 C3329 1.394 . S
C3330 C3331 1.516 1_554 S
C3331 C3330 1.516 1_556 S
C3331 C3332 1.502 . S
C3331 C3333 1.561 . S
C3331 C3334 1.526 1_556 S
C3332 H3316 0.959 . S
C3332 H3317 0.959 . S
C3332 H3318 0.961 . S
C3332 C3331 1.502 . S
C3333 H3319 0.960 . S
C3333 H3320 0.961 . S
C3333 H3321 0.959 . S
C3333 C3331 1.561 . S
C3334 C3331 1.526 1_554 S
C3334 C3335 1.396 . S
C3334 C3339 1.390 . S
C3335 C3329 1.465 . S
C3335 C3334 1.396 . S
C3335 C3336 1.399 . S
C3336 H3322 0.929 . S
C3336 C3335 1.399 . S
C3336 C3337 1.385 . S
C3337 H3323 0.931 . S
C3337 C3336 1.385 . S
C3337 C3338 1.389 . S
C3338 C3337 1.389 . S
C3338 C3339 1.387 . S
C3339 H3324 0.930 1_554 S
C3339 C3334 1.390 . S
C3339 C3338 1.387 . S
H3340 C3352 0.930 . S
H3341 C3354 0.930 . S
H3342 C3355 0.930 . S
H3343 C3359 0.959 . S
H3344 C3359 0.959 . S
H3345 C3359 0.961 . S
H3346 C3360 0.960 . S
H3347 C3360 0.961 . S
H3348 C3360 0.959 . S
H3349 C3363 0.929 . S
H3350 C3364 0.931 . S
H3351 C3366 0.930 . S
C3352 H3340 0.930 . S
C3352 C3353 1.399 . S
C3352 C3357 1.399 . S
C3353 C3352 1.399 . S
C3353 C3354 1.376 . S
C3354 H3341 0.930 . S
C3354 C3353 1.376 . S
C3354 C3355 1.388 . S
C3355 H3342 0.930 . S
C3355 C3354 1.388 . S
C3355 C3356 1.390 . S
C3356 C3355 1.390 . S
C3356 C3357 1.394 . S
C3356 C3362 1.465 . S
C3357 C3352 1.399 . S
C3357 C3356 1.394 . S
C3357 C3358 1.516 . S
C3358 C3357 1.516 . S
C3358 C3359 1.502 . S
C3358 C3360 1.561 . S
C3358 C3361 1.526 . S
C3359 H3343 0.959 . S
C3359 H3344 0.959 . S
C3359 H3345 0.961 . S
C3359 C3358 1.502 . S
C3360 H3346 0.960 . S
C3360 H3347 0.961 . S
C3360 H3348 0.959 . S
C3360 C3358 1.561 . S
C3361 C3358 1.526 . S
C3361 C3362 1.396 . S
C3361 C3366 1.390 . S
C3362 C3356 1.465 . S
C3362 C3361 1.396 . S
C3362 C3363 1.399 . S
C3363 H3349 0.929 . S
C3363 C3362 1.399 . S
C3363 C3364 1.385 . S
C3364 H3350 0.931 . S
C3364 C3363 1.385 . S
C3364 C3365 1.389 . S
C3365 C3364 1.389 . S
C3365 C3366 1.387 . S
C3366 H3351 0.930 . S
C3366 C3361 1.390 . S
C3366 C3365 1.387 . S
H3367 C3379 0.930 . S
H3368 C3381 0.930 . S
H3369 C3382 0.930 . S
H3370 C3386 0.959 . S
H3371 C3386 0.959 . S
H3372 C3386 0.961 . S
H3373 C3387 0.960 . S
H3374 C3387 0.961 . S
H3375 C3387 0.959 . S
H3376 C3390 0.929 . S
H3377 C3391 0.931 . S
H3378 C3393 0.930 . S
C3379 H3367 0.930 . S
C3379 C3380 1.399 . S
C3379 C3384 1.399 1_556 S
C3380 C3379 1.399 . S
C3380 C3381 1.376 1_556 S
C3381 H3368 0.930 . S
C3381 C3380 1.376 1_554 S
C3381 C3382 1.388 . S
C3382 H3369 0.930 . S
C3382 C3381 1.388 . S
C3382 C3383 1.390 . S
C3383 C3382 1.390 . S
C3383 C3384 1.394 . S
C3383 C3389 1.465 . S
C3384 C3379 1.399 1_554 S
C3384 C3383 1.394 . S
C3384 C3385 1.516 . S
C3385 C3384 1.516 . S
C3385 C3386 1.502 1_554 S
C3385 C3387 1.561 . S
C3385 C3388 1.526 . S
C3386 H3370 0.959 . S
C3386 H3371 0.959 . S
C3386 H3372 0.961 . S
C3386 C3385 1.502 1_556 S
C3387 H3373 0.960 . S
C3387 H3374 0.961 . S
C3387 H3375 0.959 . S
C3387 C3385 1.561 . S
C3388 C3385 1.526 . S
C3388 C3389 1.396 . S
C3388 C3393 1.390 . S
C3389 C3383 1.465 . S
C3389 C3388 1.396 . S
C3389 C3390 1.399 . S
C3390 H3376 0.929 . S
C3390 C3389 1.399 . S
C3390 C3391 1.385 . S
C3391 H3377 0.931 . S
C3391 C3390 1.385 . S
C3391 C3392 1.389 . S
C3392 C3391 1.389 . S
C3392 C3393 1.387 . S
C3393 H3378 0.930 . S
C3393 C3388 1.390 . S
C3393 C3392 1.387 . S
H3394 C3406 0.930 . S
H3395 C3408 0.930 . S
H3396 C3409 0.930 . S
H3397 C3413 0.959 . S
H3398 C3413 0.959 . S
H3399 C3413 0.961 . S
H3400 C3414 0.960 . S
H3401 C3414 0.961 . S
H3402 C3414 0.959 . S
H3403 C3417 0.929 . S
H3404 C3418 0.931 . S
H3405 C3420 0.930 . S
C3406 H3394 0.930 . S
C3406 C3407 1.399 . S
C3406 C3411 1.399 . S
C3407 C3406 1.399 . S
C3407 C3408 1.376 . S
C3408 H3395 0.930 . S
C3408 C3407 1.376 . S
C3408 C3409 1.388 . S
C3409 H3396 0.930 . S
C3409 C3408 1.388 . S
C3409 C3410 1.390 . S
C3410 C3409 1.390 . S
C3410 C3411 1.394 . S
C3410 C3416 1.465 . S
C3411 C3406 1.399 . S
C3411 C3410 1.394 . S
C3411 C3412 1.516 . S
C3412 C3411 1.516 . S
C3412 C3413 1.502 . S
C3412 C3414 1.561 . S
C3412 C3415 1.526 . S
C3413 H3397 0.959 . S
C3413 H3398 0.959 . S
C3413 H3399 0.961 . S
C3413 C3412 1.502 . S
C3414 H3400 0.960 . S
C3414 H3401 0.961 . S
C3414 H3402 0.959 . S
C3414 C3412 1.561 . S
C3415 C3412 1.526 . S
C3415 C3416 1.396 . S
C3415 C3420 1.390 . S
C3416 C3410 1.465 . S
C3416 C3415 1.396 . S
C3416 C3417 1.399 . S
C3417 H3403 0.929 . S
C3417 C3416 1.399 . S
C3417 C3418 1.385 . S
C3418 H3404 0.931 . S
C3418 C3417 1.385 . S
C3418 C3419 1.389 . S
C3419 C3418 1.389 . S
C3419 C3420 1.387 . S
C3420 H3405 0.930 . S
C3420 C3415 1.390 . S
C3420 C3419 1.387 . S
H3421 C3433 0.930 . S
H3422 C3435 0.930 . S
H3423 C3436 0.930 . S
H3424 C3440 0.959 . S
H3425 C3440 0.959 . S
H3426 C3440 0.961 . S
H3427 C3441 0.960 . S
H3428 C3441 0.961 . S
H3429 C3441 0.959 . S
H3430 C3444 0.929 . S
H3431 C3445 0.931 . S
H3432 C3447 0.930 . S
C3433 H3421 0.930 . S
C3433 C3434 1.399 . S
C3433 C3438 1.399 . S
C3434 C3433 1.399 . S
C3434 C3435 1.376 . S
C3435 H3422 0.930 . S
C3435 C3434 1.376 . S
C3435 C3436 1.388 . S
C3436 H3423 0.930 . S
C3436 C3435 1.388 . S
C3436 C3437 1.390 . S
C3437 C3436 1.390 . S
C3437 C3438 1.394 . S
C3437 C3443 1.465 . S
C3438 C3433 1.399 . S
C3438 C3437 1.394 . S
C3438 C3439 1.516 . S
C3439 C3438 1.516 . S
C3439 C3440 1.502 . S
C3439 C3441 1.561 . S
C3439 C3442 1.526 . S
C3440 H3424 0.959 . S
C3440 H3425 0.959 . S
C3440 H3426 0.961 . S
C3440 C3439 1.502 . S
C3441 H3427 0.960 . S
C3441 H3428 0.961 . S
C3441 H3429 0.959 . S
C3441 C3439 1.561 . S
C3442 C3439 1.526 . S
C3442 C3443 1.396 . S
C3442 C3447 1.390 . S
C3443 C3437 1.465 . S
C3443 C3442 1.396 . S
C3443 C3444 1.399 . S
C3444 H3430 0.929 . S
C3444 C3443 1.399 . S
C3444 C3445 1.385 . S
C3445 H3431 0.931 . S
C3445 C3444 1.385 . S
C3445 C3446 1.389 . S
C3446 C3445 1.389 . S
C3446 C3447 1.387 . S
C3447 H3432 0.930 . S
C3447 C3442 1.390 . S
C3447 C3446 1.387 . S
C881 C329 1.199 . S
C869 C10 1.253 . S
C896 C23 2.081 . S
C908 C375 2.051 . S
C923 C36 1.049 . S
C935 C384 1.005 . S
C962 C422 1.865 . S
C950 C42 1.905 . S
C977 C18 1.825 . S
C989 C456 1.787 . S
C1016 C486 0.997 . S
C1004 C31 0.994 . S
C1043 C545 1.784 1_556 S
C1031 C43 1.819 . S
C1058 C5 1.204 . S
C1070 C558 1.193 . S
C1085 C56 1.615 . S
C1097 C341 1.577 . S
C1112 C70 1.313 . S
C1124 C359 1.320 . S
C1151 C380 1.867 . S
C1139 C82 1.903 . S
C1178 C418 0.955 . S
C1166 C96 0.891 . S
C1193 C57 1.434 . S
C1205 C452 1.372 . S
C1232 C482 1.784 . S
C1220 C69 1.832 . S
C1259 C529 1.337 . S
C1247 C83 1.396 . S
C1286 C554 0.859 . S
C1274 C95 0.803 . S
C1313 C325 0.774 . S
C1301 C94 0.791 . S
C1340 C584 1.743 . S
C1328 C108 1.741 . S
C1355 C122 1.590 . S
C1367 C626 1.560 . S
C1394 C669 0.762 . S
C1382 C140 0.747 . S
C1409 C55 1.569 . S
C1421 C550 1.520 . S
C1448 C388 1.641 . S
C1436 C68 1.655 . S
C1463 C121 1.559 . S
C1475 C686 1.558 . S
C1502 C737 1.759 . S
C1490 C153 1.762 . S
C1517 C161 0.904 . S
C1529 C320 0.944 1_556 S
C1556 C720 1.764 . S
C1544 C174 1.741 . S
C1571 C186 0.856 . S
C1583 C393 0.863 . S
C1598 C200 1.531 . S
C1610 C703 1.540 . S
C1637 C465 1.455 . S
C1625 C172 1.521 . S
C1664 C631 0.729 . S
C1652 C192 0.773 . S
C1691 C516 1.507 . S
C1679 C198 1.479 . S
C1718 C771 0.802 . S
C1706 C159 0.921 . S
C1745 C312 1.217 1_655 S
C1733 C211 1.278 . S
C1760 C225 1.085 . S
C1772 C724 1.116 . S
C1799 C409 1.520 . S
C1787 C239 1.580 . S
C1814 C251 0.732 . S
C1826 C699 0.779 . S
C1841 C218 1.214 . S
C1853 C461 1.148 . S
C1868 C226 1.510 . S
C1880 C647 1.477 . S
C1907 C520 1.102 . S
C1895 C238 1.177 . S
C1922 C252 0.602 . S
C1934 C767 0.686 . S
C1949 C250 0.557 . S
C1961 C316 0.666 . S
C1976 C264 1.470 . S
C1988 C613 1.456 . S
C2003 C276 1.257 . S
C2015 C499 1.319 . S
C2030 C290 0.451 . S
C2042 C660 0.352 . S
C2069 C783 1.265 . S
C2057 C213 1.210 . S
C2096 C397 1.363 . S
C2084 C224 1.308 . S
C2123 C443 1.275 . S
C2111 C283 1.267 . S
C2150 C354 1.498 . S
C2138 C303 1.486 . S
C2165 C29 1.214 . S
C2177 C805 1.251 . S
C2204 C749 2.069 . S
C2192 C49 2.082 . S
C2231 C826 1.059 . S
C2219 C3 1.028 . S
C2246 C16 1.902 . S
C2258 C694 1.872 . S
C2273 C44 1.821 . S
C2285 C592 1.823 1_556 S
C2312 C622 0.988 . S
C2300 C4 1.016 . S
C2339 C681 1.788 . S
C2327 C17 1.825 . S
C2366 C762 1.166 . S
C2354 C30 1.213 . S
C2393 C817 1.595 . S
C2381 C147 1.609 . S
C2408 C107 1.318 1_556 S
C2420 C733 1.313 . S
C2435 C127 1.895 . S
C2447 C822 1.887 . S
C2474 C690 0.981 . S
C2462 C135 0.895 . S
C2501 C588 1.427 . S
C2489 C148 1.421 . S
C2516 C114 1.834 . S
C2528 C618 1.789 . S
C2555 C665 1.384 . S
C2543 C120 1.382 . S
C2570 C134 0.805 . S
C2582 C758 0.860 . S
C2609 C801 0.804 . S
C2597 C133 0.781 . S
C2636 C448 1.752 1_565 S
C2624 C75 1.757 . S
C2663 C490 1.581 . S
C2651 C81 1.584 . S
C2678 C101 0.715 . S
C2690 C533 0.725 . S
C2717 C754 1.546 . S
C2705 C146 1.572 . S
C2732 C109 1.653 . S
C2744 C830 1.652 . S
C2771 C414 1.548 . S
C2759 C88 1.556 . S
C2798 C363 1.757 . S
C2786 C62 1.760 . S
C2813 C187 0.868 . S
C2825 C796 0.976 . S
C2852 C346 1.718 . S
C2840 C199 1.759 . S
C2879 C835 0.862 . S
C2867 C160 0.854 . S
C2894 C173 1.537 . S
C2906 C431 1.479 . S
C2921 C205 1.517 . S
C2933 C601 1.449 . S
C2948 C166 0.750 . S
C2960 C495 0.788 . S
C2975 C179 1.494 . S
C2987 C652 1.465 . S
C3002 C185 0.799 . S
C3014 C567 0.892 . S
C3041 C788 1.276 . S
C3029 C302 1.249 . S
C3056 C270 1.128 . S
C3068 C350 1.086 . S
C3095 C851 1.574 . S
C3083 C278 1.543 . S
C3110 C296 0.723 . S
C3122 C427 0.796 . S
C3137 C309 1.218 . S
C3149 C597 1.146 . S
C3176 C511 1.483 . S
C3164 C263 1.498 . S
C3191 C277 1.149 . S
C3203 C656 1.170 . S
C3230 C563 0.606 . S
C3218 C289 0.656 . S
C3257 C792 0.673 . S
C3245 C291 0.590 . S
C3284 C477 1.476 . S
C3272 C231 1.470 . S
C3299 C237 1.312 . S
C3311 C635 1.251 . S
C3338 C524 0.347 . S
C3326 C257 0.448 . S
C3365 C579 1.260 . S
C3353 C304 1.217 . S
C3380 C265 1.308 . S
C3392 C839 1.337 . S
C3419 C715 1.248 . S
C3407 C244 1.262 . S
C3446 C728 1.475 . S
C3434 C212 1.497 . S
