# Generated by pormake.
# Topology pyr, (3,6)-cn, num edge types: 1
# Building blocks:
#     Node 0, Type 0, BuildingBlock: WUSLED_clean_sbu_0, # of connection points: 3
#     Node 1, Type 0, BuildingBlock: WUSLED_clean_sbu_0, # of connection points: 3
#     Node 2, Type 0, BuildingBlock: WUSLED_clean_sbu_0, # of connection points: 3
#     Node 3, Type 0, BuildingBlock: WUSLED_clean_sbu_0, # of connection points: 3
#     Node 4, Type 0, BuildingBlock: WUSLED_clean_sbu_0, # of connection points: 3
#     Node 5, Type 0, BuildingBlock: WUSLED_clean_sbu_0, # of connection points: 3
#     Node 6, Type 0, BuildingBlock: WUSLED_clean_sbu_0, # of connection points: 3
#     Node 7, Type 0, BuildingBlock: WUSLED_clean_sbu_0, # of connection points: 3
#     Node 8, Type 1, BuildingBlock: BETDAH_clean_sbu_0, # of connection points: 6
#     Node 9, Type 1, BuildingBlock: BETDAH_clean_sbu_0, # of connection points: 6
#     Node 10, Type 1, BuildingBlock: BETDAH_clean_sbu_0, # of connection points: 6
#     Node 11, Type 1, BuildingBlock: BETDAH_clean_sbu_0, # of connection points: 6
#     Edge 12, Type (0, 1), BuildingBlock: TEMPAE_clean_linker_10, # of connection points: 2
#     Edge 13, Type (0, 1), BuildingBlock: TEMPAE_clean_linker_10, # of connection points: 2
#     Edge 14, Type (0, 1), BuildingBlock: TEMPAE_clean_linker_10, # of connection points: 2
#     Edge 15, Type (0, 1), BuildingBlock: TEMPAE_clean_linker_10, # of connection points: 2
#     Edge 16, Type (0, 1), BuildingBlock: TEMPAE_clean_linker_10, # of connection points: 2
#     Edge 17, Type (0, 1), BuildingBlock: TEMPAE_clean_linker_10, # of connection points: 2
#     Edge 18, Type (0, 1), BuildingBlock: TEMPAE_clean_linker_10, # of connection points: 2
#     Edge 19, Type (0, 1), BuildingBlock: TEMPAE_clean_linker_10, # of connection points: 2
#     Edge 20, Type (0, 1), BuildingBlock: TEMPAE_clean_linker_10, # of connection points: 2
#     Edge 21, Type (0, 1), BuildingBlock: TEMPAE_clean_linker_10, # of connection points: 2
#     Edge 22, Type (0, 1), BuildingBlock: TEMPAE_clean_linker_10, # of connection points: 2
#     Edge 23, Type (0, 1), BuildingBlock: TEMPAE_clean_linker_10, # of connection points: 2
#     Edge 24, Type (0, 1), BuildingBlock: TEMPAE_clean_linker_10, # of connection points: 2
#     Edge 25, Type (0, 1), BuildingBlock: TEMPAE_clean_linker_10, # of connection points: 2
#     Edge 26, Type (0, 1), BuildingBlock: TEMPAE_clean_linker_10, # of connection points: 2
#     Edge 27, Type (0, 1), BuildingBlock: TEMPAE_clean_linker_10, # of connection points: 2
#     Edge 28, Type (0, 1), BuildingBlock: TEMPAE_clean_linker_10, # of connection points: 2
#     Edge 29, Type (0, 1), BuildingBlock: TEMPAE_clean_linker_10, # of connection points: 2
#     Edge 30, Type (0, 1), BuildingBlock: TEMPAE_clean_linker_10, # of connection points: 2
#     Edge 31, Type (0, 1), BuildingBlock: TEMPAE_clean_linker_10, # of connection points: 2
#     Edge 32, Type (0, 1), BuildingBlock: TEMPAE_clean_linker_10, # of connection points: 2
#     Edge 33, Type (0, 1), BuildingBlock: TEMPAE_clean_linker_10, # of connection points: 2
#     Edge 34, Type (0, 1), BuildingBlock: TEMPAE_clean_linker_10, # of connection points: 2
#     Edge 35, Type (0, 1), BuildingBlock: TEMPAE_clean_linker_10, # of connection points: 2
# Relax obj value: 0.084
# Max RMSD: 0.124
# Mean RMSD: 0.056
data_MOF--net-pyr--node1-WUSLED_clean_sbu_0--node2-BETDAH_clean_sbu_0--edge1-TEMPAE_clean_linker_10
_symmetry_space_group_name_H-M    P1
_symmetry_Int_Tables_number       1
_symmetry_cell_setting            triclinic
loop_
_symmetry_equiv_pos_as_xyz
'x, y, z'
_cell_length_a     49.389798
_cell_length_b     52.861184
_cell_length_c     48.195459
_cell_angle_alpha  91.018257
_cell_angle_beta   88.92535
_cell_angle_gamma 99.800514
loop_
_atom_site_label
_atom_site_type_symbol
_atom_site_fract_x
_atom_site_fract_y
_atom_site_fract_z
_atom_type_partial_charge
C0 C 0.29751 0.33335 0.19317 0.0
C1 C 0.27158 0.31915 0.19974 0.0
C2 C 0.25045 0.35692 0.19235 0.0
C3 C 0.24821 0.33088 0.19939 0.0
C4 C 0.27678 0.37136 0.18771 0.0
C5 C 0.30005 0.35965 0.18811 0.0
U6 U 0.33672 0.27595 0.1925 0.0
O7 O 0.35789 0.26373 0.15546 0.0
O8 O 0.38131 0.27574 0.19312 0.0
C9 C 0.38159 0.26575 0.16792 0.0
C10 C 0.32118 0.32064 0.18691 0.0
C11 C 0.39605 0.24376 0.16346 0.0
C12 C 0.41689 0.21702 0.13078 0.0
C13 C 0.40349 0.23778 0.13624 0.0
C14 C 0.4161 0.20785 0.17987 0.0
C15 C 0.42354 0.20183 0.15248 0.0
C16 C 0.40241 0.22863 0.18532 0.0
C17 C 0.27922 0.23667 0.23758 0.0
C18 C 0.23392 0.21164 0.24632 0.0
C19 C 0.25429 0.24281 0.2806 0.0
C20 C 0.27737 0.2494 0.26327 0.0
C21 C 0.2326 0.22337 0.27263 0.0
C22 C 0.25703 0.21812 0.22908 0.0
C23 C 0.30498 0.24029 0.22085 0.0
O24 O 0.33603 0.31554 0.20781 0.0
O25 O 0.31648 0.30186 0.16851 0.0
O26 O 0.30272 0.243 0.19395 0.0
O27 O 0.32631 0.25544 0.23145 0.0
H28 H 0.26926 0.29876 0.20365 0.0
H29 H 0.22829 0.31931 0.20347 0.0
H30 H 0.27932 0.39133 0.1819 0.0
H31 H 0.31989 0.37083 0.18276 0.0
H32 H 0.42166 0.21266 0.10938 0.0
H33 H 0.39869 0.24912 0.11905 0.0
H34 H 0.42104 0.19668 0.1971 0.0
H35 H 0.39682 0.2328 0.20654 0.0
H36 H 0.21735 0.19692 0.2393 0.0
H37 H 0.25407 0.2521 0.30079 0.0
H38 H 0.29415 0.26378 0.2705 0.0
H39 H 0.25793 0.20797 0.20945 0.0
C40 C 0.21889 0.85705 0.59196 0.0
C41 C 0.2022 0.86664 0.61212 0.0
C42 C 0.17458 0.88021 0.57593 0.0
C43 C 0.18007 0.87797 0.60416 0.0
C44 C 0.19038 0.86937 0.55587 0.0
C45 C 0.21236 0.85781 0.56386 0.0
U46 U 0.28032 0.86867 0.63769 0.0
O47 O 0.30425 0.84292 0.65778 0.0
O48 O 0.32439 0.87153 0.62815 0.0
C49 C 0.32674 0.85181 0.64358 0.0
C50 C 0.24513 0.84983 0.59967 0.0
C51 C 0.34046 0.83236 0.63007 0.0
C52 C 0.34042 0.79668 0.59768 0.0
C53 C 0.32716 0.81557 0.6098 0.0
C54 C 0.38048 0.81169 0.62561 0.0
C55 C 0.3671 0.79438 0.60573 0.0
C56 C 0.36722 0.83051 0.63769 0.0
C57 C 0.28599 0.91957 0.69309 0.0
C58 C 0.32457 0.9229 0.72408 0.0
C59 C 0.29319 0.95348 0.72807 0.0
C60 C 0.27799 0.94111 0.70601 0.0
C61 C 0.31656 0.94438 0.73745 0.0
C62 C 0.30948 0.91069 0.70205 0.0
C63 C 0.26996 0.90602 0.67043 0.0
O64 O 0.26663 0.86756 0.59451 0.0
O65 O 0.24564 0.83949 0.62425 0.0
O66 O 0.26043 0.88169 0.67519 0.0
O67 O 0.2813 0.90992 0.64565 0.0
H68 H 0.20711 0.86661 0.63394 0.0
H69 H 0.16837 0.88643 0.61997 0.0
H70 H 0.18642 0.87079 0.53397 0.0
H71 H 0.22513 0.85068 0.54804 0.0
H72 H 0.32956 0.78349 0.58257 0.0
H73 H 0.30646 0.8169 0.60366 0.0
H74 H 0.40119 0.81062 0.6319 0.0
H75 H 0.3778 0.84351 0.65315 0.0
H76 H 0.34212 0.9151 0.73106 0.0
H77 H 0.28667 0.97012 0.73777 0.0
H78 H 0.25996 0.94825 0.69918 0.0
H79 H 0.31593 0.89404 0.69222 0.0
C80 C 0.63575 0.38003 0.78228 0.0
C81 C 0.64876 0.40548 0.77734 0.0
C82 C 0.61882 0.40913 0.73729 0.0
C83 C 0.6405 0.41974 0.75516 0.0
C84 C 0.60618 0.38357 0.74241 0.0
C85 C 0.61447 0.36942 0.76433 0.0
U86 U 0.67564 0.35593 0.84703 0.0
O87 O 0.65539 0.33404 0.88288 0.0
O88 O 0.6811 0.31556 0.85409 0.0
C89 C 0.6659 0.31331 0.8769 0.0
C90 C 0.64284 0.36377 0.80578 0.0
C91 C 0.65137 0.28722 0.8862 0.0
C92 C 0.61024 0.25588 0.89873 0.0
C93 C 0.62257 0.27987 0.88749 0.0
C94 C 0.65508 0.2462 0.90803 0.0
C95 C 0.62624 0.23847 0.90948 0.0
C96 C 0.66727 0.26988 0.89656 0.0
C97 C 0.74556 0.39867 0.8749 0.0
C98 C 0.77036 0.40703 0.91883 0.0
C99 C 0.79336 0.42124 0.87592 0.0
C100 C 0.76953 0.41091 0.86122 0.0
C101 C 0.79441 0.41967 0.9051 0.0
C102 C 0.74632 0.39682 0.90401 0.0
C103 C 0.71993 0.39064 0.85819 0.0
O104 O 0.66385 0.35164 0.80268 0.0
O105 O 0.63968 0.37141 0.83158 0.0
O106 O 0.69574 0.39052 0.87014 0.0
O107 O 0.71963 0.37209 0.83962 0.0
H108 H 0.66518 0.41441 0.79068 0.0
H109 H 0.65084 0.43931 0.75237 0.0
H110 H 0.5899 0.37416 0.7292 0.0
H111 H 0.60399 0.3499 0.76733 0.0
H112 H 0.58806 0.25104 0.89883 0.0
H113 H 0.60953 0.29272 0.87999 0.0
H114 H 0.66859 0.23428 0.91646 0.0
H115 H 0.68947 0.27497 0.89646 0.0
H116 H 0.77001 0.40492 0.94113 0.0
H117 H 0.81077 0.43115 0.86421 0.0
H118 H 0.76963 0.41313 0.83891 0.0
H119 H 0.72825 0.38774 0.91539 0.0
C120 C 0.79761 0.64758 0.37775 0.0
C121 C 0.78599 0.66355 0.39656 0.0
C122 C 0.74874 0.62798 0.40926 0.0
C123 C 0.76191 0.65388 0.4121 0.0
C124 C 0.76063 0.61229 0.39024 0.0
C125 C 0.78456 0.62191 0.3749 0.0
U126 U 0.86514 0.69286 0.34781 0.0
O127 O 0.90279 0.67934 0.33195 0.0
O128 O 0.877 0.69571 0.30321 0.0
C129 C 0.89874 0.68469 0.30596 0.0
C130 C 0.82253 0.65659 0.35994 0.0
C131 C 0.90574 0.66641 0.28346 0.0
C132 C 0.89685 0.64328 0.23882 0.0
C133 C 0.8881 0.65773 0.26131 0.0
C134 C 0.94106 0.64567 0.25992 0.0
C135 C 0.92368 0.63713 0.23746 0.0
C136 C 0.93227 0.65995 0.28235 0.0
C137 C 0.88777 0.76245 0.38587 0.0
C138 C 0.92862 0.7961 0.38976 0.0
C139 C 0.88601 0.80267 0.41161 0.0
C140 C 0.87323 0.77845 0.40171 0.0
C141 C 0.91401 0.8122 0.40589 0.0
C142 C 0.91574 0.77156 0.38001 0.0
C143 C 0.87304 0.73608 0.37785 0.0
O144 O 0.82158 0.67508 0.34229 0.0
O145 O 0.84696 0.65787 0.3708 0.0
O146 O 0.88406 0.71585 0.38355 0.0
O147 O 0.8582 0.73292 0.35529 0.0
H148 H 0.79546 0.68346 0.39922 0.0
H149 H 0.75381 0.6667 0.42659 0.0
H150 H 0.75118 0.59251 0.38669 0.0
H151 H 0.79279 0.60914 0.3604 0.0
H152 H 0.88244 0.63697 0.22246 0.0
H153 H 0.86761 0.66244 0.26106 0.0
H154 H 0.96198 0.64207 0.2599 0.0
H155 H 0.94672 0.66667 0.29861 0.0
H156 H 0.95005 0.80244 0.38444 0.0
H157 H 0.87384 0.81364 0.4244 0.0
H158 H 0.85178 0.77194 0.407 0.0
H159 H 0.92767 0.75972 0.36803 0.0
C160 C 0.74163 0.74395 0.89921 0.0
C161 C 0.74933 0.72668 0.87928 0.0
C162 C 0.77802 0.71037 0.91299 0.0
C163 C 0.76716 0.70993 0.88616 0.0
C164 C 0.76939 0.72705 0.93315 0.0
C165 C 0.75135 0.74363 0.92631 0.0
U166 U 0.73162 0.79234 0.84625 0.0
O167 O 0.69601 0.80802 0.83159 0.0
O168 O 0.731 0.83376 0.84993 0.0
C169 C 0.70619 0.83155 0.83979 0.0
C170 C 0.72683 0.7646 0.89106 0.0
C171 C 0.68745 0.84623 0.85457 0.0
C172 C 0.64854 0.84935 0.88537 0.0
C173 C 0.66616 0.83455 0.87218 0.0
C174 C 0.67354 0.88752 0.86367 0.0
C175 C 0.65199 0.87603 0.88117 0.0
C176 C 0.69099 0.87277 0.85049 0.0
C177 C 0.77729 0.79483 0.78178 0.0
C178 C 0.77828 0.82907 0.7487 0.0
C179 C 0.81474 0.80362 0.74823 0.0
C180 C 0.80169 0.78906 0.77006 0.0
C181 C 0.80356 0.82423 0.73776 0.0
C182 C 0.7653 0.81455 0.77065 0.0
C183 C 0.76655 0.78237 0.80759 0.0
O184 O 0.74245 0.7873 0.88959 0.0
O185 O 0.71007 0.75948 0.87 0.0
O186 O 0.74046 0.77172 0.80787 0.0
O187 O 0.77387 0.79603 0.83005 0.0
H188 H 0.7424 0.72673 0.85809 0.0
H189 H 0.77296 0.69708 0.87023 0.0
H190 H 0.77757 0.72824 0.95391 0.0
H191 H 0.74598 0.75704 0.94189 0.0
H192 H 0.63206 0.83987 0.89858 0.0
H193 H 0.6631 0.81406 0.87565 0.0
H194 H 0.6772 0.90805 0.86041 0.0
H195 H 0.70738 0.88214 0.83706 0.0
H196 H 0.76896 0.84459 0.74088 0.0
H197 H 0.83435 0.79958 0.74062 0.0
H198 H 0.81133 0.77406 0.77865 0.0
H199 H 0.74651 0.81935 0.77964 0.0
C200 C 0.6899 0.20078 0.37357 0.0
C201 C 0.70306 0.1821 0.36067 0.0
C202 C 0.67311 0.18063 0.32111 0.0
C203 C 0.6947 0.17206 0.33471 0.0
C204 C 0.66042 0.19987 0.33373 0.0
C205 C 0.66871 0.20983 0.35993 0.0
U206 U 0.73825 0.2003 0.43201 0.0
O207 O 0.75767 0.23047 0.46084 0.0
O208 O 0.73147 0.19592 0.47699 0.0
C209 C 0.74421 0.21938 0.48241 0.0
C210 C 0.69805 0.21004 0.4015 0.0
C211 C 0.72794 0.23578 0.49807 0.0
C212 C 0.68506 0.25186 0.50448 0.0
C213 C 0.69983 0.23399 0.49284 0.0
C214 C 0.7261 0.27325 0.52748 0.0
C215 C 0.69816 0.27206 0.52136 0.0
C216 C 0.74089 0.25518 0.51591 0.0
C217 C 0.79491 0.16025 0.42061 0.0
C218 C 0.81907 0.14316 0.45734 0.0
C219 C 0.83709 0.14405 0.41015 0.0
C220 C 0.81507 0.15521 0.40147 0.0
C221 C 0.83916 0.13761 0.43814 0.0
C222 C 0.79723 0.15452 0.44867 0.0
C223 C 0.77132 0.17092 0.41089 0.0
O224 O 0.69486 0.19202 0.42029 0.0
O225 O 0.72199 0.2253 0.40277 0.0
O226 O 0.77549 0.19594 0.40781 0.0
O227 O 0.74761 0.1619 0.42293 0.0
H228 H 0.7196 0.17504 0.37089 0.0
H229 H 0.70509 0.15753 0.32526 0.0
H230 H 0.64367 0.20672 0.32367 0.0
H231 H 0.65839 0.22427 0.36967 0.0
H232 H 0.66374 0.2507 0.49887 0.0
H233 H 0.68949 0.21943 0.47875 0.0
H234 H 0.73669 0.28861 0.54045 0.0
H235 H 0.76263 0.25696 0.51998 0.0
H236 H 0.81982 0.13815 0.47897 0.0
H237 H 0.85245 0.14044 0.39494 0.0
H238 H 0.81365 0.15971 0.37975 0.0
H239 H 0.7819 0.15842 0.4638 0.0
C240 C 0.30274 0.65724 0.17761 0.0
C241 C 0.27809 0.66698 0.18201 0.0
C242 C 0.25338 0.63638 0.14802 0.0
C243 C 0.25396 0.65685 0.16744 0.0
C244 C 0.27827 0.62707 0.14326 0.0
C245 C 0.30236 0.63722 0.1578 0.0
U246 U 0.37128 0.69897 0.20937 0.0
O247 O 0.38154 0.70346 0.25418 0.0
O248 O 0.4064 0.6833 0.22636 0.0
C249 C 0.40244 0.69107 0.25196 0.0
C250 C 0.3272 0.66462 0.19634 0.0
C251 C 0.40873 0.67493 0.27593 0.0
C252 C 0.41124 0.63382 0.2984 0.0
C253 C 0.40277 0.64785 0.27616 0.0
C254 C 0.43189 0.67343 0.32058 0.0
C255 C 0.42635 0.64634 0.32094 0.0
C256 C 0.42322 0.68734 0.29865 0.0
C257 C 0.39768 0.76747 0.17066 0.0
C258 C 0.43948 0.79823 0.15886 0.0
C259 C 0.39513 0.80896 0.14932 0.0
C260 C 0.38235 0.78531 0.1604 0.0
C261 C 0.42405 0.81613 0.14819 0.0
C262 C 0.42655 0.77428 0.1697 0.0
C263 C 0.38253 0.74144 0.17941 0.0
O264 O 0.352 0.66403 0.18617 0.0
O265 O 0.32696 0.68333 0.21464 0.0
O266 O 0.36643 0.73935 0.20157 0.0
O267 O 0.39309 0.72061 0.1741 0.0
H268 H 0.27714 0.68207 0.19731 0.0
H269 H 0.23563 0.66504 0.17164 0.0
H270 H 0.27901 0.61117 0.12897 0.0
H271 H 0.32057 0.62867 0.1542 0.0
H272 H 0.40655 0.61306 0.29753 0.0
H273 H 0.39189 0.63749 0.25901 0.0
H274 H 0.44297 0.68409 0.33743 0.0
H275 H 0.42835 0.7081 0.29925 0.0
H276 H 0.46168 0.80265 0.15897 0.0
H277 H 0.38204 0.82129 0.14093 0.0
H278 H 0.36012 0.78064 0.16025 0.0
H279 H 0.43917 0.76103 0.17712 0.0
C280 C 0.1388 0.30094 0.67586 0.0
C281 C 0.1215 0.29991 0.65274 0.0
C282 C 0.12267 0.25392 0.64438 0.0
C283 C 0.11369 0.27694 0.63728 0.0
C284 C 0.14042 0.25512 0.66721 0.0
C285 C 0.1482 0.2781 0.68268 0.0
U286 U 0.17764 0.36779 0.70648 0.0
O287 O 0.1593 0.40059 0.72318 0.0
O288 O 0.18218 0.37987 0.7508 0.0
C289 C 0.16781 0.39853 0.74863 0.0
C290 C 0.14357 0.32436 0.69488 0.0
C291 C 0.15038 0.40509 0.77314 0.0
C292 C 0.11381 0.4269 0.79277 0.0
C293 C 0.12696 0.41672 0.76978 0.0
C294 C 0.14679 0.41402 0.82337 0.0
C295 C 0.12374 0.42622 0.82005 0.0
C296 C 0.15981 0.40375 0.80046 0.0
C297 C 0.24943 0.39462 0.66583 0.0
C298 C 0.27975 0.43521 0.65492 0.0
C299 C 0.29416 0.39505 0.64267 0.0
C300 C 0.26956 0.38166 0.6541 0.0
C301 C 0.29992 0.42215 0.64273 0.0
C302 C 0.25482 0.42166 0.66614 0.0
C303 C 0.22252 0.37892 0.67482 0.0
O304 O 0.16338 0.32625 0.71306 0.0
O305 O 0.14115 0.3468 0.68473 0.0
O306 O 0.1994 0.38713 0.66997 0.0
O307 O 0.22133 0.36513 0.69737 0.0
H308 H 0.11333 0.31679 0.64693 0.0
H309 H 0.10037 0.27727 0.61975 0.0
H310 H 0.14762 0.23802 0.67388 0.0
H311 H 0.161 0.27769 0.70061 0.0
H312 H 0.09642 0.43627 0.78889 0.0
H313 H 0.11925 0.41879 0.74921 0.0
H314 H 0.15508 0.41257 0.8438 0.0
H315 H 0.17801 0.39547 0.8041 0.0
H316 H 0.28314 0.45597 0.65588 0.0
H317 H 0.30831 0.38389 0.63303 0.0
H318 H 0.26592 0.36086 0.65303 0.0
H319 H 0.2397 0.43233 0.67479 0.0
Ho320 Ho 0.03724 0.0436 0.49023 0.0
Ho321 Ho 1.01567 1.02334 0.54696 0.0
C322 C 0.05179 0.08112 0.54492 0.0
C323 C 0.05193 0.06666 0.44425 0.0
C324 C 0.06118 0.09183 0.43164 0.0
C325 C 0.07613 0.11239 0.4467 0.0
C326 C 0.08991 0.134 0.4328 0.0
C327 C 0.08905 0.13529 0.40365 0.0
C328 C 0.0724 0.11535 0.38905 0.0
C329 C 0.05861 0.09388 0.40294 0.0
C330 C 0.06377 1.00869 0.51266 0.0
C331 C 0.9999 0.98701 0.49281 0.0
C332 C 1.0061 1.00479 0.5959 0.0
C333 C 0.98406 0.98584 0.60844 0.0
C334 C 0.99061 0.96367 0.62035 0.0
C335 C 0.96999 0.94525 0.63183 0.0
C336 C 0.94236 0.94872 0.63183 0.0
C337 C 0.93586 0.97097 0.61988 0.0
C338 C 0.95645 0.98929 0.60822 0.0
C339 C 0.97917 0.04206 0.51563 0.0
O340 O 0.053 0.0787 0.5174 0.0
O341 O 0.03968 0.06188 0.56056 0.0
O342 O 0.06908 0.05887 0.46124 0.0
O343 O 0.02614 0.06072 0.4523 0.0
O344 O 0.05879 1.00958 0.48651 0.0
O345 O 0.05543 1.02686 0.52555 0.0
O346 O 1.00504 0.98758 0.5198 0.0
O347 O 1.00651 1.00809 0.47768 0.0
O348 O 0.99942 1.02662 0.58845 0.0
O349 O 0.02207 0.99565 0.57763 0.0
O350 O 0.97252 1.0228 0.5321 0.0
O351 O 1.00418 0.05122 0.51805 0.0
H352 H 0.07834 0.11115 0.46892 0.0
H353 H 0.10217 0.14918 0.44473 0.0
H354 H 0.07148 0.11541 0.36662 0.0
H355 H 0.04733 0.07812 0.39097 0.0
H356 H 1.01172 0.96052 0.62062 0.0
H357 H 0.97568 0.92817 0.64049 0.0
H358 H 0.91487 0.97445 0.61989 0.0
H359 H 0.95068 1.00613 0.59909 0.0
Ho360 Ho 0.55183 0.03088 0.04532 0.0
Ho361 Ho 0.50266 1.02296 1.01366 0.0
C362 C 0.50404 0.05583 0.07051 0.0
C363 C 0.59981 0.04374 0.06683 0.0
C364 C 0.60841 0.05824 0.09241 0.0
C365 C 0.63087 0.0784 0.09169 0.0
C366 C 0.63763 0.09383 0.11525 0.0
C367 C 0.62207 0.08927 0.13997 0.0
C368 C 0.59983 0.06876 0.14067 0.0
C369 C 0.59294 0.05354 0.11709 0.0
C370 C 0.51409 0.99067 0.06521 0.0
C371 C 0.55046 0.9968 0.989 0.0
C372 C 0.45352 1.0134 0.99383 0.0
C373 C 0.441 1.00778 0.96656 0.0
C374 C 0.4156 0.99143 0.96485 0.0
C375 C 0.40315 0.9859 0.93919 0.0
C376 C 0.41589 0.99676 0.91485 0.0
C377 C 0.44141 1.01314 0.91661 0.0
C378 C 0.45397 1.0185 0.94229 0.0
C379 C 0.54022 0.06324 0.9939 0.0
O380 O 0.53091 0.05861 0.06901 0.0
O381 O 0.48872 0.03933 0.05403 0.0
O382 O 0.58465 1.02117 0.06994 0.0
O383 O 0.59066 0.05696 0.04755 0.0
O384 O 0.52909 1.00794 0.08034 0.0
O385 O 0.51983 0.99563 0.03986 0.0
O386 O 0.52364 0.99562 0.98902 0.0
O387 O 0.56588 1.01194 1.00668 0.0
O388 O 0.46726 0.0365 0.99766 0.0
O389 O 0.46598 0.99577 1.0038 0.0
O390 O 0.5254 0.04587 0.97872 0.0
O391 O 0.53443 0.05827 1.01927 0.0
H392 H 0.64279 0.08256 0.07272 0.0
H393 H 0.65468 0.10965 0.11391 0.0
H394 H 0.5877 0.0644 0.15947 0.0
H395 H 0.57525 0.03831 0.11813 0.0
H396 H 0.40534 0.983 0.98339 0.0
H397 H 0.38337 0.97339 0.93842 0.0
H398 H 0.45178 1.02152 0.89811 0.0
H399 H 0.47374 0.03102 0.94318 0.0
Ho400 Ho 0.52558 0.50693 0.51095 0.0
Ho401 Ho 0.52335 0.55033 0.54625 0.0
C402 C 0.54846 0.50575 0.5748 0.0
C403 C 0.54168 0.46941 0.48387 0.0
C404 C 0.55686 0.44912 0.49195 0.0
C405 C 0.57914 0.45448 0.51007 0.0
C406 C 0.59339 0.43509 0.51761 0.0
C407 C 0.5856 0.40994 0.50724 0.0
C408 C 0.56295 0.40456 0.48949 0.0
C409 C 0.54875 0.42401 0.48189 0.0
C410 C 0.47614 0.5033 0.5382 0.0
C411 C 0.49996 0.55129 0.48257 0.0
C412 C 0.50853 0.58806 0.57409 0.0
C413 C 0.49494 0.60984 0.56761 0.0
C414 C 0.47282 0.60705 0.54923 0.0
C415 C 0.45922 0.62766 0.54459 0.0
C416 C 0.46763 0.65137 0.55815 0.0
C417 C 0.49037 0.65429 0.57577 0.0
C418 C 0.50387 0.63367 0.58047 0.0
C419 C 0.57261 0.55385 0.51863 0.0
O420 O 0.54874 0.49653 0.549 0.0
O421 O 0.53717 0.52632 0.57995 0.0
O422 O 0.51698 0.46799 0.49449 0.0
O423 O 0.55547 0.49279 0.48434 0.0
O424 O 0.47932 0.49737 0.51223 0.0
O425 O 0.49961 0.51101 0.54857 0.0
O426 O 0.4998 0.56059 0.50836 0.0
O427 O 0.51135 0.53078 0.47735 0.0
O428 O 0.53323 0.58878 0.56375 0.0
O429 O 0.49348 0.56528 0.57214 0.0
O430 O 0.56969 0.55938 0.54473 0.0
O431 O 0.54903 0.54637 0.50847 0.0
H432 H 0.58574 0.4737 0.51827 0.0
H433 H 0.61088 0.43995 0.53107 0.0
H434 H 0.55616 0.38529 0.48151 0.0
H435 H 0.53144 0.41945 0.46813 0.0
H436 H 0.46568 0.58884 0.53891 0.0
H437 H 0.44188 0.62495 0.53079 0.0
H438 H 0.49705 0.67223 0.58681 0.0
H439 H 0.52093 0.63617 0.59464 0.0
Ho440 Ho 0.02303 0.50343 0.04428 0.0
Ho441 Ho 1.01864 0.55498 1.01716 0.0
C442 C 0.07363 0.55268 0.0526 0.0
C443 C 0.03849 0.46184 0.06076 0.0
C444 C 0.06076 0.45425 0.07705 0.0
C445 C 0.07673 0.43731 0.06501 0.0
C446 C 0.0973 0.42897 0.08014 0.0
C447 C 0.10221 0.43727 0.10774 0.0
C448 C 0.08633 0.45439 0.11978 0.0
C449 C 0.06585 0.46292 0.10453 0.0
C450 C 0.99512 0.53499 0.07491 0.0
C451 C 0.97086 0.50461 1.00535 0.0
C452 C 1.00172 0.59829 1.01238 0.0
C453 C 0.98142 0.60975 0.99719 0.0
C454 C 0.97146 0.6306 1.00946 0.0
C455 C 0.9502 0.64054 0.99731 0.0
C456 C 0.93849 0.62994 0.97241 0.0
C457 C 0.94882 0.60913 0.95991 0.0
C458 C 0.97006 0.59902 0.97229 0.0
C459 C 0.03966 0.52449 0.97813 0.0
O460 O 0.06388 0.52793 0.0568 0.0
O461 O 0.05962 0.56725 0.03823 0.0
O462 O 0.02035 0.473 0.0741 0.0
O463 O 0.0456 0.47222 0.03671 0.0
O464 O 0.9881 0.51019 0.0731 0.0
O465 O 1.01688 0.54154 0.0605 0.0
O466 O 0.97767 0.53007 1.00598 0.0
O467 O 0.98684 0.48986 1.01651 0.0
O468 O 0.02305 0.59255 0.99854 0.0
O469 O 0.9912 0.58064 0.03004 0.0
O470 O 0.03566 0.54782 0.97397 0.0
O471 O 0.03248 0.51931 1.0031 0.0
H472 H 0.07309 0.43028 0.04392 0.0
H473 H 0.10899 0.41555 0.07041 0.0
H474 H 0.08984 0.46127 0.14093 0.0
H475 H 0.05393 0.4761 0.11434 0.0
H476 H 0.97966 0.6388 0.02896 0.0
H477 H 0.94242 0.6561 1.00796 0.0
H478 H 0.94046 0.6006 0.94064 0.0
H479 H 0.97726 0.58263 0.96274 0.0
C480 C 0.19811 0.23101 0.30975 0.0
C481 C 0.20974 0.21394 0.29243 0.0
C482 C 0.1774 0.22193 0.32934 0.0
C483 C 0.16813 0.19518 0.3316 0.0
C484 C 0.1796 0.17791 0.31399 0.0
C485 C 0.20028 0.18748 0.29476 0.0
C486 C 0.1657 0.24088 0.34782 0.0
C487 C 0.17036 0.14922 0.31575 0.0
C488 C 0.1354 0.1623 0.39606 0.0
C489 C 0.10793 0.1553 0.38803 0.0
C490 C 0.1549 0.17705 0.37875 0.0
C491 C 0.14683 0.1848 0.35263 0.0
C492 C 0.1188 0.17946 0.3453 0.0
C493 C 0.09966 0.16489 0.36315 0.0
C494 C 0.18454 0.18261 0.38753 0.0
C495 C 0.10932 0.18744 0.31768 0.0
H496 H 0.20516 0.25149 0.30796 0.0
H497 H 0.20952 0.1741 0.28194 0.0
H498 H 0.1431 0.23834 0.34549 0.0
H499 H 0.16964 0.23728 0.36987 0.0
H500 H 0.17471 0.26109 0.34307 0.0
H501 H 0.18081 0.13845 0.30003 0.0
H502 H 0.17465 0.14256 0.33666 0.0
H503 H 0.14785 0.14434 0.31271 0.0
H504 H 0.14215 0.15487 0.41508 0.0
H505 H 0.07838 0.16005 0.35702 0.0
H506 H 0.19365 0.20289 0.38344 0.0
H507 H 0.19657 0.17031 0.37523 0.0
H508 H 0.18677 0.1788 0.40989 0.0
H509 H 0.11805 0.20779 0.31353 0.0
H510 H 0.08656 0.18494 0.31668 0.0
H511 H 0.11678 0.17561 0.30088 0.0
C512 C 0.36072 0.95909 0.76225 0.0
C513 C 0.33196 0.95632 0.76186 0.0
C514 C 0.37532 0.96755 0.78628 0.0
C515 C 0.36082 0.97364 0.81039 0.0
C516 C 0.33195 0.97212 0.80974 0.0
C517 C 0.31783 0.96336 0.7855 0.0
C518 C 0.40612 0.96893 0.7862 0.0
C519 C 0.31583 0.97866 0.83502 0.0
C520 C 0.39148 0.96553 0.88046 0.0
C521 C 0.4025 0.99092 0.88773 0.0
C522 C 0.37813 0.95966 0.85519 0.0
C523 C 0.37556 0.97972 0.83686 0.0
C524 C 0.38681 1.0054 0.84398 0.0
C525 C 0.40029 1.0107 0.86934 0.0
C526 C 0.36667 0.93199 0.84816 0.0
C527 C 0.38425 1.02727 0.82502 0.0
H528 H 0.37181 0.95415 0.74387 0.0
H529 H 0.29561 0.96105 0.78546 0.0
H530 H 0.41635 0.98808 0.7937 0.0
H531 H 0.41153 0.9545 0.80062 0.0
H532 H 0.41449 0.96525 0.76524 0.0
H533 H 0.2939 0.97876 0.83036 0.0
H534 H 0.31678 0.9644 0.85143 0.0
H535 H 0.32495 0.99778 0.84356 0.0
H536 H 0.3935 0.95019 0.89453 0.0
H537 H 0.4086 0.03037 0.87506 0.0
H538 H 0.37572 0.92635 0.82822 0.0
H539 H 0.34412 0.92965 0.84545 0.0
H540 H 0.37087 0.91864 0.86447 0.0
H541 H 0.39334 1.024 0.80431 0.0
H542 H 0.39458 0.0461 0.83339 0.0
H543 H 0.36224 0.02818 0.82192 0.0
C544 C 0.62757 0.44195 0.69781 0.0
C545 C 0.60914 0.42426 0.71361 0.0
C546 C 0.61869 0.45538 0.67524 0.0
C547 C 0.59049 0.45151 0.66787 0.0
C548 C 0.57179 0.43386 0.68383 0.0
C549 C 0.5812 0.42065 0.70618 0.0
C550 C 0.63967 0.4736 0.65898 0.0
C551 C 0.54162 0.4287 0.67711 0.0
C552 C 0.56148 0.50253 0.62563 0.0
C553 C 0.56005 0.49223 0.5984 0.0
C554 C 0.57157 0.48981 0.64802 0.0
C555 C 0.58046 0.46579 0.64368 0.0
C556 C 0.57903 0.45528 0.61623 0.0
C557 C 0.56919 0.46858 0.59415 0.0
C558 C 0.57249 0.50209 0.67655 0.0
C559 C 0.58801 0.42989 0.60991 0.0
H560 H 0.64921 0.44497 0.70268 0.0
H561 H 0.56635 0.40755 0.7181 0.0
H562 H 0.64004 0.46698 0.63702 0.0
H563 H 0.63391 0.493 0.65911 0.0
H564 H 0.66067 0.47513 0.66743 0.0
H565 H 0.52953 0.41455 0.69129 0.0
H566 H 0.53315 0.44683 0.67849 0.0
H567 H 0.53883 0.42129 0.65547 0.0
H568 H 0.55462 0.52068 0.62958 0.0
H569 H 0.56835 0.46015 0.57346 0.0
H570 H 0.59374 0.50478 0.68452 0.0
H571 H 0.55922 0.48928 0.69113 0.0
H572 H 0.56555 0.52101 0.67665 0.0
H573 H 0.61079 0.43271 0.60904 0.0
H574 H 0.58007 0.42168 0.58969 0.0
H575 H 0.58088 0.41574 0.62633 0.0
C576 C 0.92439 0.62485 0.18564 0.0
C577 C 0.93374 0.62241 0.2128 0.0
C578 C 0.93397 0.61157 0.16256 0.0
C579 C 0.95373 0.59527 0.16615 0.0
C580 C 0.96331 0.59274 0.19341 0.0
C581 C 0.95323 0.60606 0.21613 0.0
C582 C 0.92286 0.61499 0.13418 0.0
C583 C 0.98426 0.57574 0.19867 0.0
C584 C 0.96051 0.54106 0.11288 0.0
C585 C 0.98394 0.55126 0.09705 0.0
C586 C 0.95033 0.5552 0.13484 0.0
C587 C 0.96384 0.5804 0.14171 0.0
C588 C 0.98734 0.59096 0.12553 0.0
C589 C 0.99699 0.57641 0.1035 0.0
C590 C 0.92517 0.54293 0.15097 0.0
C591 C 1.00267 0.61756 0.13182 0.0
H592 H 0.90977 0.63754 0.18218 0.0
H593 H 0.96052 0.6033 0.23672 0.0
H594 H 0.93995 0.62269 0.11977 0.0
H595 H 0.91296 0.59613 0.1256 0.0
H596 H 0.90761 0.6282 0.13459 0.0
H597 H 0.99042 0.57631 0.22075 0.0
H598 H 0.97579 0.5556 0.19279 0.0
H599 H 1.00289 0.58175 0.18557 0.0
H600 H 0.95012 0.52174 0.10824 0.0
H601 H 1.01511 0.58461 0.09161 0.0
H602 H 0.90917 0.55532 0.15057 0.0
H603 H 0.93046 0.54099 0.17301 0.0
H604 H 0.91635 0.52363 0.14258 0.0
H605 H 0.9885 0.6317 0.13099 0.0
H606 H 0.02007 0.62341 0.11708 0.0
H607 H 1.01079 0.61834 0.15319 0.0
C608 C 0.43002 0.15615 0.15977 0.0
C609 C 0.43767 0.17959 0.1461 0.0
C610 C 0.44134 0.1344 0.15176 0.0
C611 C 0.46037 0.13604 0.12925 0.0
C612 C 0.46904 0.15989 0.11619 0.0
C613 C 0.45784 0.18138 0.12498 0.0
C614 C 0.4321 0.10945 0.16662 0.0
C615 C 0.48922 0.1625 0.09203 0.0
C616 C 0.50559 0.08671 0.11067 0.0
C617 C 0.49103 0.07331 0.0887 0.0
C618 C 0.49498 0.10607 0.12548 0.0
C619 C 0.46959 0.1126 0.11759 0.0
C620 C 0.45426 0.09829 0.09628 0.0
C621 C 0.46503 0.07862 0.08232 0.0
C622 C 0.51157 0.12035 0.14862 0.0
C623 C 0.42731 0.10487 0.08691 0.0
H624 H 0.41441 0.15449 0.17605 0.0
H625 H 0.46449 0.19956 0.11481 0.0
H626 H 0.41882 0.09582 0.15281 0.0
H627 H 0.45006 0.10047 0.17184 0.0
H628 H 0.42032 0.11217 0.18599 0.0
H629 H 0.49457 0.18259 0.0848 0.0
H630 H 0.50839 0.1558 0.09789 0.0
H631 H 0.48033 0.15021 0.07442 0.0
H632 H 0.52562 0.0825 0.11585 0.0
H633 H 0.45374 0.06842 0.06528 0.0
H634 H 0.49822 0.12252 0.16698 0.0
H635 H 0.52063 0.13991 0.14169 0.0
H636 H 0.52854 0.11045 0.155 0.0
H637 H 0.4131 0.10557 0.10489 0.0
H638 H 0.41707 0.09084 0.07137 0.0
H639 H 0.43099 0.1242 0.07752 0.0
C640 C 0.16343 0.91626 0.54846 0.0
C641 C 0.15487 0.89662 0.56741 0.0
C642 C 0.14614 0.93349 0.54156 0.0
C643 C 0.11948 0.93079 0.55363 0.0
C644 C 0.11049 0.91074 0.57248 0.0
C645 C 0.12847 0.89397 0.57938 0.0
C646 C 0.1566 0.95482 0.52162 0.0
C647 C 0.082 0.90704 0.58528 0.0
C648 C 0.08848 0.99144 0.5507 0.0
C649 C 0.07489 0.98771 0.52539 0.0
C650 C 0.10199 0.97238 0.5611 0.0
C651 C 0.10119 0.94901 0.54602 0.0
C652 C 0.08565 0.94452 0.52153 0.0
C653 C 0.07296 0.96411 0.5113 0.0
C654 C 0.11859 0.97795 0.58714 0.0
C655 C 0.08367 0.91961 0.50526 0.0
H656 H 0.18404 0.91861 0.53962 0.0
H657 H 0.12191 0.87876 0.59407 0.0
H658 H 0.14341 0.9531 0.50307 0.0
H659 H 0.1556 0.97372 0.53162 0.0
H660 H 0.17813 0.95459 0.51463 0.0
H661 H 0.07802 0.8902 0.59915 0.0
H662 H 0.07913 0.92442 0.59745 0.0
H663 H 0.06641 0.90438 0.56873 0.0
H664 H 0.08974 1.00971 0.56161 0.0
H665 H 0.06192 0.9611 0.49195 0.0
H666 H 0.14081 0.98038 0.58169 0.0
H667 H 0.114 0.96166 0.60163 0.0
H668 H 0.11458 0.99568 0.59804 0.0
H669 H 0.10365 0.91873 0.49469 0.0
H670 H 0.06748 0.91766 0.48929 0.0
H671 H 0.0792 0.90297 0.51932 0.0
C672 C 0.84663 0.4331 0.9085 0.0
C673 C 0.82022 0.43155 0.92077 0.0
C674 C 0.87074 0.44499 0.92222 0.0
C675 C 0.86907 0.45554 0.94938 0.0
C676 C 0.84264 0.45372 0.96215 0.0
C677 C 0.81878 0.442 0.9478 0.0
C678 C 0.89816 0.44636 0.90746 0.0
C679 C 0.83952 0.46434 0.99107 0.0
C680 C 0.93464 0.46566 0.99365 0.0
C681 C 0.94452 0.49218 0.99143 0.0
C682 C 0.91017 0.4537 0.98056 0.0
C683 C 0.89491 0.46831 0.96431 0.0
C684 C 0.90476 0.49509 0.96198 0.0
C685 C 0.92914 0.50662 0.97556 0.0
C686 C 0.90065 0.42526 0.98413 0.0
C687 C 0.88968 0.51163 0.94478 0.0
H688 H 0.84865 0.42479 0.88804 0.0
H689 H 0.79886 0.44149 0.95774 0.0
H690 H 0.90846 0.46667 0.90594 0.0
H691 H 0.91175 0.43613 0.91953 0.0
H692 H 0.89617 0.43781 0.88622 0.0
H693 H 0.81782 0.46085 0.99859 0.0
H694 H 0.85212 0.45548 1.0057 0.0
H695 H 0.84719 0.48532 0.99149 0.0
H696 H 0.94601 0.4541 1.00581 0.0
H697 H 0.93632 0.52705 0.97342 0.0
H698 H 0.90016 0.4153 0.96364 0.0
H699 H 0.87941 0.42168 0.99284 0.0
H700 H 0.91417 0.41662 0.99802 0.0
H701 H 0.88872 0.50455 0.92295 0.0
H702 H 0.89968 0.53212 0.94511 0.0
H703 H 0.86822 0.51034 0.95256 0.0
C704 C 0.70248 0.63213 0.43223 0.0
C705 C 0.72283 0.61716 0.42566 0.0
C706 C 0.67795 0.62189 0.44683 0.0
C707 C 0.67318 0.59586 0.45529 0.0
C708 C 0.69362 0.58068 0.44885 0.0
C709 C 0.71797 0.59142 0.43438 0.0
C710 C 0.65703 0.63899 0.45316 0.0
C711 C 0.68983 0.55295 0.45737 0.0
C712 C 0.62238 0.57535 0.51573 0.0
C713 C 0.59841 0.56361 0.50214 0.0
C714 C 0.64656 0.58583 0.50086 0.0
C715 C 0.64724 0.58467 0.4714 0.0
C716 C 0.62316 0.57259 0.45754 0.0
C717 C 0.59917 0.56227 0.47297 0.0
C718 C 0.67144 0.59834 0.5168 0.0
C719 C 0.62267 0.57067 0.42629 0.0
H720 H 0.70544 0.65187 0.42552 0.0
H721 H 0.73344 0.57954 0.43017 0.0
H722 H 0.6371 0.63069 0.44372 0.0
H723 H 0.65345 0.64013 0.47591 0.0
H724 H 0.66359 0.65875 0.44529 0.0
H725 H 0.70719 0.54343 0.45032 0.0
H726 H 0.68791 0.55167 0.48029 0.0
H727 H 0.67053 0.54217 0.44864 0.0
H728 H 0.6222 0.57657 0.5382 0.0
H729 H 0.58089 0.55334 0.46214 0.0
H730 H 0.67734 0.61868 0.51062 0.0
H731 H 0.68914 0.58859 0.51172 0.0
H732 H 0.66777 0.59774 0.53961 0.0
H733 H 0.62708 0.59017 0.41735 0.0
H734 H 0.60255 0.5607 0.41852 0.0
H735 H 0.63898 0.56014 0.4186 0.0
C736 C 0.20414 0.35423 0.17108 0.0
C737 C 0.22562 0.36832 0.18645 0.0
C738 C 0.18271 0.36583 0.1613 0.0
C739 C 0.1828 0.39223 0.16685 0.0
C740 C 0.20354 0.40623 0.18366 0.0
C741 C 0.22467 0.39409 0.19331 0.0
C742 C 0.16088 0.35017 0.1436 0.0
C743 C 0.20426 0.43437 0.19017 0.0
C744 C 0.14935 0.42653 0.11188 0.0
C745 C 0.1235 0.42756 0.1239 0.0
C746 C 0.16908 0.41576 0.12602 0.0
C747 C 0.16277 0.40561 0.15283 0.0
C748 C 0.13696 0.4072 0.16541 0.0
C749 C 0.11764 0.41824 0.15081 0.0
C750 C 0.19647 0.41469 0.11198 0.0
C751 C 0.12943 0.39648 0.19388 0.0
H752 H 0.20481 0.33443 0.16534 0.0
H753 H 0.24095 0.40502 0.20553 0.0
H754 H 0.14011 0.35274 0.15102 0.0
H755 H 0.16331 0.35693 0.12188 0.0
H756 H 0.16207 0.32937 0.14363 0.0
H757 H 0.21992 0.44178 0.2059 0.0
H758 H 0.2091 0.44559 0.17094 0.0
H759 H 0.18387 0.43778 0.1979 0.0
H760 H 0.15409 0.43404 0.09124 0.0
H761 H 0.09758 0.41881 0.16009 0.0
H762 H 0.1989 0.39439 0.10848 0.0
H763 H 0.21346 0.42375 0.1255 0.0
H764 H 0.19864 0.42453 0.09168 0.0
H765 H 0.12825 0.37533 0.19322 0.0
H766 H 0.10938 0.40088 0.20157 0.0
H767 H 0.14553 0.40433 0.20895 0.0
C768 C 0.6274 0.19156 0.92216 0.0
C769 C 0.61333 0.21274 0.92236 0.0
C770 C 0.61623 0.16785 0.93468 0.0
C771 C 0.58979 0.16432 0.94759 0.0
C772 C 0.57527 0.18537 0.94768 0.0
C773 C 0.58713 0.20908 0.93541 0.0
C774 C 0.63287 0.14639 0.93395 0.0
C775 C 0.54694 0.18282 0.96069 0.0
C776 C 0.55052 0.09475 0.95441 0.0
C777 C 0.5534 0.08913 0.98257 0.0
C778 C 0.5618 0.11892 0.94307 0.0
C779 C 0.57704 0.13842 0.95993 0.0
C780 C 0.58029 0.13281 0.98838 0.0
C781 C 0.56835 0.10851 0.99933 0.0
C782 C 0.55719 0.12361 0.91286 0.0
C783 C 0.59661 0.15249 1.00731 0.0
H784 H 0.64724 0.19323 0.91182 0.0
H785 H 0.5758 0.22489 0.93643 0.0
H786 H 0.63512 0.13956 0.95528 0.0
H787 H 0.62201 0.12988 0.92173 0.0
H788 H 0.65366 0.15239 0.92463 0.0
H789 H 0.53805 0.20067 0.95902 0.0
H790 H 0.53296 0.16684 0.95049 0.0
H791 H 0.54773 0.17803 0.98294 0.0
H792 H 0.53903 0.0802 0.94107 0.0
H793 H 0.57086 0.10463 1.02105 0.0
H794 H 0.5772 0.12778 0.9016 0.0
H795 H 0.54705 0.14067 0.91089 0.0
H796 H 0.54428 0.10693 0.9026 0.0
H797 H 0.6178 0.15806 0.99887 0.0
H798 H 0.59774 0.14529 0.0287 0.0
H799 H 0.58718 0.1701 1.00831 0.0
C800 C 0.91222 0.85853 0.42137 0.0
C801 C 0.92752 0.83849 0.4171 0.0
C802 C 0.92389 0.8826 0.43312 0.0
C803 C 0.95197 0.88756 0.44061 0.0
C804 C 0.96779 0.86777 0.4358 0.0
C805 C 0.95548 0.84368 0.42437 0.0
C806 C 0.9059 0.90273 0.43786 0.0
C807 C 0.99783 0.87196 0.44303 0.0
C808 C 0.98705 0.9584 0.4502 0.0
C809 C 0.98728 0.96177 0.47925 0.0
C810 C 0.97608 0.93451 0.43746 0.0
C811 C 0.9645 0.91318 0.45392 0.0
C812 C 0.9645 0.91656 0.48324 0.0
C813 C 0.97597 0.94051 0.49543 0.0
C814 C 0.97707 0.93206 0.40625 0.0
C815 C 0.95215 0.89482 0.50189 0.0
H816 H 0.89088 0.85556 0.4154 0.0
H817 H 0.96781 0.82869 0.4217 0.0
H818 H 0.90556 0.90808 0.46021 0.0
H819 H 0.91445 0.92036 0.42635 0.0
H820 H 0.88444 0.89605 0.43115 0.0
H821 H 1.00779 0.85535 0.43684 0.0
H822 H 1.0089 0.88938 0.43265 0.0
H823 H 1.00014 0.87525 0.46572 0.0
H824 H 0.99584 0.9744 0.4373 0.0
H825 H 0.97586 0.94259 0.51784 0.0
H826 H 0.95593 0.92691 0.39817 0.0
H827 H 0.98832 0.91634 0.4 0.0
H828 H 0.98725 0.95007 0.39628 0.0
H829 H 0.93026 0.8883 0.49669 0.0
H830 H 0.9534 0.90042 0.52421 0.0
H831 H 0.96291 0.87822 0.49847 0.0
C832 C 0.39426 0.75941 0.6124 0.0
C833 C 0.38066 0.7734 0.59443 0.0
C834 C 0.40751 0.73965 0.60238 0.0
C835 C 0.40711 0.73366 0.57363 0.0
C836 C 0.39323 0.74753 0.55533 0.0
C837 C 0.38008 0.76727 0.56598 0.0
C838 C 0.42194 0.72517 0.62264 0.0
C839 C 0.39248 0.74163 0.52457 0.0
C840 C 0.46462 0.69785 0.55371 0.0
C841 C 0.45138 0.67234 0.55619 0.0
C842 C 0.44994 0.7182 0.55706 0.0
C843 C 0.42142 0.7128 0.5632 0.0
C844 C 0.40759 0.68706 0.56352 0.0
C845 C 0.42278 0.66708 0.55999 0.0
C846 C 0.46534 0.74542 0.55619 0.0
C847 C 0.37719 0.68052 0.56996 0.0
H848 H 0.39431 0.76377 0.63447 0.0
H849 H 0.36971 0.77818 0.55201 0.0
H850 H 0.41313 0.70442 0.62173 0.0
H851 H 0.44406 0.72711 0.61692 0.0
H852 H 0.42019 0.73219 0.64436 0.0
H853 H 0.38037 0.75389 0.5132 0.0
H854 H 0.41369 0.74455 0.51581 0.0
H855 H 0.3834 0.7212 0.52081 0.0
H856 H 0.48669 0.70192 0.5503 0.0
H857 H 0.41247 0.64738 0.56205 0.0
H858 H 0.46727 0.75352 0.5776 0.0
H859 H 0.45396 0.75769 0.54402 0.0
H860 H 0.4863 0.74645 0.54702 0.0
H861 H 0.3735 0.6842 0.59234 0.0
H862 H 0.36886 0.66007 0.56519 0.0
H863 H 0.36562 0.69281 0.55805 0.0
C864 C 0.82165 0.86867 0.72139 0.0
C865 C 0.81968 0.84204 0.71762 0.0
C866 C 0.83972 0.88589 0.70508 0.0
C867 C 0.85641 0.87625 0.68465 0.0
C868 C 0.85354 0.84946 0.67976 0.0
C869 C 0.83514 0.83266 0.69626 0.0
C870 C 0.84203 0.91436 0.71077 0.0
C871 C 0.87091 0.83847 0.65809 0.0
C872 C 0.89463 0.92296 0.63245 0.0
C873 C 0.92049 0.92949 0.64475 0.0
C874 C 0.87358 0.90546 0.64502 0.0
C875 C 0.8786 0.89409 0.67035 0.0
C876 C 0.90475 0.90028 0.68263 0.0
C877 C 0.92531 0.91798 0.66977 0.0
C878 C 0.8459 0.8994 0.6314 0.0
C879 C 0.91092 0.88849 0.70963 0.0
H880 H 0.81007 0.87614 0.73803 0.0
H881 H 0.83339 0.81212 0.69293 0.0
H882 H 0.86225 0.92183 0.72009 0.0
H883 H 0.84093 0.92477 0.69115 0.0
H884 H 0.82562 0.91882 0.72521 0.0
H885 H 0.86431 0.81746 0.65498 0.0
H886 H 0.87 0.84809 0.63795 0.0
H887 H 0.8927 0.84203 0.66455 0.0
H888 H 0.89084 0.93148 0.61292 0.0
H889 H 0.94504 0.92319 0.67966 0.0
H890 H 0.82987 0.90508 0.64547 0.0
H891 H 0.84032 0.87842 0.62753 0.0
H892 H 0.84551 0.90945 0.6114 0.0
H893 H 0.89728 0.89402 0.7264 0.0
H894 H 0.9326 0.89462 0.71591 0.0
H895 H 0.90674 0.86723 0.70774 0.0
C896 C 0.66011 0.18425 0.27154 0.0
C897 C 0.66366 0.1689 0.29414 0.0
C898 C 0.65269 0.17312 0.2455 0.0
C899 C 0.64849 0.14607 0.24224 0.0
C900 C 0.65136 0.1305 0.26523 0.0
C901 C 0.659 0.14212 0.29088 0.0
C902 C 0.65001 0.19029 0.22136 0.0
C903 C 0.6467 0.10156 0.26267 0.0
C904 C 0.60795 0.11245 0.18223 0.0
C905 C 0.62893 0.10566 0.16507 0.0
C906 C 0.61402 0.12628 0.20706 0.0
C907 C 0.64177 0.13383 0.21472 0.0
C908 C 0.66309 0.12801 0.19695 0.0
C909 C 0.65641 0.11385 0.17242 0.0
C910 C 0.59073 0.13201 0.22556 0.0
C911 C 0.69294 0.13596 0.20433 0.0
H912 H 0.66388 0.20497 0.27404 0.0
H913 H 0.66137 0.13023 0.30848 0.0
H914 H 0.66549 0.1877 0.20504 0.0
H915 H 0.62946 0.1849 0.21197 0.0
H916 H 0.65295 0.2109 0.22759 0.0
H917 H 0.64882 0.09224 0.28281 0.0
H918 H 0.62585 0.09439 0.25462 0.0
H919 H 0.6617 0.09553 0.24759 0.0
H920 H 0.58667 0.10671 0.17639 0.0
H921 H 0.67275 0.10851 0.15944 0.0
H922 H 0.59357 0.1528 0.23079 0.0
H923 H 0.59068 0.1216 0.24536 0.0
H924 H 0.57037 0.12624 0.21578 0.0
H925 H 0.69736 0.15677 0.20955 0.0
H926 H 0.70703 0.13194 0.18719 0.0
H927 H 0.69748 0.12547 0.22296 0.0
C928 C 0.4627 0.64004 0.35627 0.0
C929 C 0.4367 0.63162 0.3445 0.0
C930 C 0.47262 0.62698 0.37844 0.0
C931 C 0.45628 0.60475 0.38994 0.0
C932 C 0.43001 0.59611 0.37822 0.0
C933 C 0.42072 0.60938 0.35576 0.0
C934 C 0.50086 0.63698 0.3895 0.0
C935 C 0.41148 0.57286 0.38963 0.0
C936 C 0.49186 0.55742 0.43104 0.0
C937 C 0.48808 0.56458 0.45899 0.0
C938 C 0.48167 0.57009 0.4087 0.0
C939 C 0.46682 0.59056 0.41389 0.0
C940 C 0.46266 0.5977 0.44208 0.0
C941 C 0.47336 0.58487 0.46403 0.0
C942 C 0.48718 0.56173 0.37935 0.0
C943 C 0.44689 0.61906 0.44915 0.0
H944 H 0.47568 0.65682 0.34783 0.0
H945 H 0.40055 0.60256 0.34738 0.0
H946 H 0.49939 0.64192 0.41188 0.0
H947 H 0.51387 0.62184 0.38759 0.0
H948 H 0.51126 0.65426 0.37835 0.0
H949 H 0.39158 0.5686 0.37871 0.0
H950 H 0.42181 0.55583 0.38776 0.0
H951 H 0.40732 0.57591 0.41204 0.0
H952 H 0.50322 0.54197 0.42648 0.0
H953 H 0.47011 0.59082 0.48528 0.0
H954 H 0.49903 0.57808 0.36781 0.0
H955 H 0.4675 0.55576 0.36843 0.0
H956 H 0.49887 0.54553 0.37853 0.0
H957 H 0.45755 0.63729 0.44007 0.0
H958 H 0.44459 0.62195 0.47191 0.0
H959 H 0.42614 0.61479 0.43996 0.0
C960 C 0.08232 0.43878 0.84666 0.0
C961 C 0.11086 0.43883 0.84463 0.0
C962 C 0.0703 0.451 0.86911 0.0
C963 C 0.08695 0.46402 0.89048 0.0
C964 C 0.11569 0.46393 0.88873 0.0
C965 C 0.12715 0.45144 0.86616 0.0
C966 C 0.03962 0.45021 0.86978 0.0
C967 C 0.1346 0.47763 0.91049 0.0
C968 C 0.06101 0.51925 0.93083 0.0
C969 C 0.0518 0.5083 0.95649 0.0
C970 C 0.07234 0.5052 0.90958 0.0
C971 C 0.07465 0.4791 0.91348 0.0
C972 C 0.06534 0.46782 0.93936 0.0
C973 C 0.05413 0.48246 0.96044 0.0
C974 C 0.08193 0.51848 0.8828 0.0
C975 C 0.06709 0.44015 0.94475 0.0
H976 H 0.06917 0.42897 0.83068 0.0
H977 H 0.1492 0.45221 0.86506 0.0
H978 H 0.03079 0.44249 0.88987 0.0
H979 H 0.03505 0.46995 0.86811 0.0
H980 H 0.02919 0.43822 0.85266 0.0
H981 H 0.15622 0.47482 0.90718 0.0
H982 H 0.13398 0.49851 0.9102 0.0
H983 H 0.1276 0.4707 0.93145 0.0
H984 H 0.05941 0.53912 0.92726 0.0
H985 H 0.04701 0.47358 0.97991 0.0
H986 H 0.07052 0.50831 0.86512 0.0
H987 H 0.10404 0.51784 0.87909 0.0
H988 H 0.07898 0.53885 0.88291 0.0
H989 H 0.05511 0.42758 0.92903 0.0
H990 H 0.05919 0.43407 0.96575 0.0
H991 H 0.08874 0.43717 0.94268 0.0
C992 C 0.62515 0.91234 0.88116 0.0
C993 C 0.6337 0.89212 0.89528 0.0
C994 C 0.60993 0.92911 0.89479 0.0
C995 C 0.60285 0.9255 0.9232 0.0
C996 C 0.61044 0.90454 0.9373 0.0
C997 C 0.62583 0.88815 0.9232 0.0
C998 C 0.60222 0.9512 0.87902 0.0
C999 C 0.60313 0.89995 0.96756 0.0
C1000 C 0.59231 0.98304 0.96783 0.0
C1001 C 0.56358 0.97972 0.97026 0.0
C1002 C 0.60527 0.9658 0.95214 0.0
C1003 C 0.58913 0.94458 0.93866 0.0
C1004 C 0.56011 0.94141 0.94049 0.0
C1005 C 0.54766 0.95909 0.95619 0.0
C1006 C 0.63628 0.97003 0.95044 0.0
C1007 C 0.54223 0.91898 0.92648 0.0
H1008 H 0.63064 0.91525 0.85944 0.0
H1009 H 0.63252 0.87275 0.93435 0.0
H1010 H 0.57981 0.95119 0.88101 0.0
H1011 H 0.61283 0.96964 0.888 0.0
H1012 H 0.60784 0.95046 0.85663 0.0
H1013 H 0.60868 0.88173 0.97492 0.0
H1014 H 0.61407 0.91603 0.98034 0.0
H1015 H 0.58078 0.89938 0.97114 0.0
H1016 H 0.6048 0.99898 0.9785 0.0
H1017 H 0.52545 0.9563 0.95805 0.0
H1018 H 0.64329 0.97096 0.92842 0.0
H1019 H 0.64391 0.95362 0.95985 0.0
H1020 H 0.64581 0.98797 0.96129 0.0
H1021 H 0.54745 0.91839 0.90402 0.0
H1022 H 0.51999 0.91986 0.9289 0.0
H1023 H 0.54611 0.90076 0.93543 0.0
C1024 C 0.86999 0.10493 0.43071 0.0
C1025 C 0.86165 0.12444 0.44724 0.0
C1026 C 0.89014 0.09137 0.43977 0.0
C1027 C 0.90191 0.09722 0.46613 0.0
C1028 C 0.894 0.11718 0.48268 0.0
C1029 C 0.8741 0.13068 0.47295 0.0
C1030 C 0.89838 0.0704 0.42142 0.0
C1031 C 0.90609 0.12391 0.51097 0.0
C1032 C 0.93121 0.04624 0.50434 0.0
C1033 C 0.95946 0.05495 0.50123 0.0
C1034 C 0.91219 0.05959 0.49253 0.0
C1035 C 0.92179 0.08189 0.47695 0.0
C1036 C 0.95034 0.09019 0.47291 0.0
C1037 C 0.96888 0.07673 0.48537 0.0
C1038 C 0.88186 0.05033 0.49747 0.0
C1039 C 0.96133 0.11364 0.45606 0.0
H1040 H 0.86025 0.09977 0.41097 0.0
H1041 H 0.86816 0.14605 0.48559 0.0
H1042 H 0.92103 0.07354 0.41846 0.0
H1043 H 0.89231 0.05156 0.43154 0.0
H1044 H 0.88869 0.06945 0.40073 0.0
H1045 H 0.89802 0.14024 0.52104 0.0
H1046 H 0.90137 0.10702 0.52466 0.0
H1047 H 0.92878 0.12898 0.50921 0.0
H1048 H 0.92395 0.02939 0.51663 0.0
H1049 H 0.99076 0.08354 0.48308 0.0
H1050 H 0.87108 0.04722 0.4774 0.0
H1051 H 0.87285 0.06518 0.50927 0.0
H1052 H 0.87779 0.03216 0.50925 0.0
H1053 H 0.95143 0.11231 0.43549 0.0
H1054 H 0.98396 0.11615 0.45286 0.0
H1055 H 0.95631 0.13104 0.46679 0.0
C1056 C 0.2274 0.61444 0.10612 0.0
C1057 C 0.22698 0.62438 0.13346 0.0
C1058 C 0.20305 0.60276 0.09259 0.0
C1059 C 0.17711 0.60073 0.1064 0.0
C1060 C 0.17646 0.61078 0.1339 0.0
C1061 C 0.20112 0.62232 0.14697 0.0
C1062 C 0.20513 0.59254 0.06334 0.0
C1063 C 0.14958 0.6092 0.14972 0.0
C1064 C 0.1107 0.59128 0.06337 0.0
C1065 C 0.10053 0.56482 0.06572 0.0
C1066 C 0.13536 0.60305 0.07627 0.0
C1067 C 0.15075 0.58825 0.09212 0.0
C1068 C 0.14072 0.5615 0.09443 0.0
C1069 C 0.11596 0.55022 0.08135 0.0
C1070 C 0.14485 0.63154 0.07307 0.0
C1071 C 0.15612 0.54469 0.1109 0.0
H1072 H 0.24685 0.61604 0.09499 0.0
H1073 H 0.20008 0.62934 0.16815 0.0
H1074 H 0.19648 0.57175 0.0625 0.0
H1075 H 0.19281 0.60232 0.04929 0.0
H1076 H 0.22667 0.5953 0.05538 0.0
H1077 H 0.15227 0.61808 0.17076 0.0
H1078 H 0.13527 0.61899 0.13809 0.0
H1079 H 0.13973 0.58883 0.15183 0.0
H1080 H 0.09923 0.603 0.05154 0.0
H1081 H 0.10862 0.52983 0.08356 0.0
H1082 H 0.1658 0.6352 0.06367 0.0
H1083 H 0.14603 0.64117 0.09376 0.0
H1084 H 0.13092 0.64044 0.05991 0.0
H1085 H 0.17735 0.54591 0.10247 0.0
H1086 H 0.14597 0.52425 0.11058 0.0
H1087 H 0.15776 0.55158 0.13278 0.0
C1088 C 0.32769 0.4602 0.61668 0.0
C1089 C 0.32645 0.43627 0.62957 0.0
C1090 C 0.35195 0.47271 0.60314 0.0
C1091 C 0.37586 0.46109 0.60181 0.0
C1092 C 0.37496 0.43722 0.61513 0.0
C1093 C 0.35066 0.42539 0.62895 0.0
C1094 C 0.35179 0.49826 0.58976 0.0
C1095 C 0.39959 0.42378 0.61425 0.0
C1096 C 0.42805 0.47782 0.54173 0.0
C1097 C 0.45022 0.49369 0.55457 0.0
C1098 C 0.40395 0.46736 0.55671 0.0
C1099 C 0.40131 0.47309 0.58543 0.0
C1100 C 0.42339 0.48962 0.59841 0.0
C1101 C 0.44754 0.49948 0.58297 0.0
C1102 C 0.38147 0.44963 0.54182 0.0
C1103 C 0.42156 0.4968 0.62872 0.0
H1104 H 0.30945 0.46901 0.61647 0.0
H1105 H 0.35077 0.4074 0.6393 0.0
H1106 H 0.36957 0.51249 0.59687 0.0
H1107 H 0.35392 0.49623 0.56691 0.0
H1108 H 0.33259 0.50591 0.59452 0.0
H1109 H 0.3959 0.4055 0.62583 0.0
H1110 H 0.40493 0.41954 0.59239 0.0
H1111 H 0.41765 0.43644 0.62318 0.0
H1112 H 0.42971 0.47309 0.51986 0.0
H1113 H 0.46439 0.51174 0.59319 0.0
H1114 H 0.36191 0.45723 0.54358 0.0
H1115 H 0.37799 0.4305 0.55167 0.0
H1116 H 0.38645 0.44711 0.51947 0.0
H1117 H 0.40264 0.50503 0.63291 0.0
H1118 H 0.43961 0.51094 0.63546 0.0
H1119 H 0.42016 0.4794 0.64154 0.0
C1120 C 0.80065 0.68402 0.94564 0.0
C1121 C 0.79972 0.69497 0.91942 0.0
C1122 C 0.82255 0.67172 0.95282 0.0
C1123 C 0.84392 0.67003 0.93322 0.0
C1124 C 0.84251 0.67999 0.90633 0.0
C1125 C 0.82057 0.69248 0.89982 0.0
C1126 C 0.82334 0.66143 0.98176 0.0
C1127 C 0.86473 0.67835 0.88475 0.0
C1128 C 0.91431 0.66667 0.96179 0.0
C1129 C 0.91505 0.64024 0.96031 0.0
C1130 C 0.89138 0.67655 0.95287 0.0
C1131 C 0.86876 0.65971 0.94161 0.0
C1132 C 0.86973 0.63315 0.93901 0.0
C1133 C 0.89278 0.6237 0.94857 0.0
C1134 C 0.89115 0.70499 0.95611 0.0
C1135 C 0.8462 0.61466 0.92666 0.0
H1136 H 0.78444 0.68541 0.96076 0.0
H1137 H 0.82037 0.70115 0.87964 0.0
H1138 H 0.82599 0.64101 0.98085 0.0
H1139 H 0.84125 0.67228 0.99287 0.0
H1140 H 0.8044 0.66294 0.99403 0.0
H1141 H 0.85918 0.68456 0.86401 0.0
H1142 H 0.8841 0.69074 0.89119 0.0
H1143 H 0.86889 0.65841 0.88291 0.0
H1144 H 0.93162 0.67972 0.9702 0.0
H1145 H 0.89295 0.60323 0.94755 0.0
H1146 H 0.87365 0.70819 0.96974 0.0
H1147 H 0.88822 0.71335 0.93566 0.0
H1148 H 0.91045 0.71551 0.96516 0.0
H1149 H 0.82759 0.614 0.94005 0.0
H1150 H 0.8509 0.5949 0.9244 0.0
H1151 H 0.84118 0.62132 0.90597 0.0
C1152 C 0.42411 0.86336 0.13609 0.0
C1153 C 0.43761 0.84181 0.13568 0.0
C1154 C 0.43587 0.88703 0.12384 0.0
C1155 C 0.46234 0.89012 0.11104 0.0
C1156 C 0.47631 0.86869 0.11079 0.0
C1157 C 0.46386 0.84504 0.12277 0.0
C1158 C 0.41981 0.90892 0.12472 0.0
C1159 C 0.50464 0.87077 0.09789 0.0
C1160 C 0.4851 0.94587 0.05962 0.0
C1161 C 0.50039 0.96493 0.07648 0.0
C1162 C 0.47261 0.9217 0.07045 0.0
C1163 C 0.47566 0.9159 0.09886 0.0
C1164 C 0.49125 0.93509 0.11584 0.0
C1165 C 0.50308 0.95916 0.10461 0.0
C1166 C 0.45594 0.90235 0.05142 0.0
C1167 C 0.49566 0.93015 0.14603 0.0
H1168 H 0.40425 0.862 0.14634 0.0
H1169 H 0.47476 0.82893 0.12161 0.0
H1170 H 0.43101 0.9252 0.13702 0.0
H1171 H 0.41775 0.91593 0.10343 0.0
H1172 H 0.39895 0.90328 0.13402 0.0
H1173 H 0.5131 0.85269 0.09949 0.0
H1174 H 0.50405 0.8757 0.07566 0.0
H1175 H 0.51888 0.88649 0.1082 0.0
H1176 H 0.48272 0.9499 0.03791 0.0
H1177 H 0.51483 0.97348 0.11801 0.0
H1178 H 0.43465 0.89723 0.05978 0.0
H1179 H 0.46486 0.88446 0.05042 0.0
H1180 H 0.45509 0.90966 0.03004 0.0
H1181 H 0.4756 0.92631 0.15725 0.0
H1182 H 0.50886 0.9466 0.15639 0.0
H1183 H 0.50537 0.91283 0.14794 0.0
C1184 C 0.1303 0.21032 0.62453 0.0
C1185 C 0.11303 0.22878 0.62866 0.0
C1186 C 0.12132 0.18663 0.61048 0.0
C1187 C 0.09422 0.18073 0.60003 0.0
C1188 C 0.07674 0.1993 0.60392 0.0
C1189 C 0.08624 0.22283 0.61802 0.0
C1190 C 0.14092 0.16778 0.60693 0.0
C1191 C 0.04769 0.19415 0.59345 0.0
C1192 C 0.07636 0.12776 0.54354 0.0
C1193 C 0.0635 0.10648 0.5589 0.0
C1194 C 0.08655 0.15175 0.55651 0.0
C1195 C 0.08393 0.155 0.58575 0.0
C1196 C 0.07112 0.13355 0.60134 0.0
C1197 C 0.0612 0.10981 0.58788 0.0
C1198 C 0.10002 0.17375 0.5388 0.0
C1199 C 0.06763 0.13573 0.63242 0.0
H1200 H 0.15112 0.21445 0.63209 0.0
H1201 H 0.07229 0.23639 0.62123 0.0
H1202 H 0.13232 0.14954 0.61733 0.0
H1203 H 0.14352 0.16322 0.58459 0.0
H1204 H 0.16144 0.17522 0.61568 0.0
H1205 H 0.03681 0.21065 0.5973 0.0
H1206 H 0.04776 0.18986 0.57084 0.0
H1207 H 0.03594 0.17703 0.60379 0.0
H1208 H 0.07838 0.12577 0.52123 0.0
H1209 H 0.05135 0.0938 0.60023 0.0
H1210 H 0.12118 0.18086 0.54604 0.0
H1211 H 0.08844 0.18995 0.54089 0.0
H1212 H 0.10102 0.16821 0.5165 0.0
H1213 H 0.08796 0.14168 0.64213 0.0
H1214 H 0.05752 0.11738 0.64174 0.0
H1215 H 0.05511 0.15076 0.63762 0.0
C1216 C 0.69576 0.3188 0.52463 0.0
C1217 C 0.68335 0.29332 0.5293 0.0
C1218 C 0.68026 0.33869 0.52577 0.0
C1219 C 0.65171 0.33286 0.53163 0.0
C1220 C 0.6396 0.30756 0.5388 0.0
C1221 C 0.65561 0.28806 0.53757 0.0
C1222 C 0.69398 0.36549 0.51825 0.0
C1223 C 0.60928 0.30064 0.54546 0.0
C1224 C 0.61174 0.38789 0.54089 0.0
C1225 C 0.60169 0.38963 0.51405 0.0
C1226 C 0.62782 0.36932 0.54716 0.0
C1227 C 0.63399 0.35216 0.52606 0.0
C1228 C 0.62367 0.35365 0.49902 0.0
C1229 C 0.60772 0.37239 0.49335 0.0
C1230 C 0.63845 0.36827 0.57621 0.0
C1231 C 0.62983 0.33569 0.4759 0.0
H1232 H 0.71715 0.32299 0.51807 0.0
H1233 H 0.64606 0.26842 0.54165 0.0
H1234 H 0.68772 0.36992 0.49712 0.0
H1235 H 0.68744 0.37988 0.53279 0.0
H1236 H 0.71675 0.36764 0.51844 0.0
H1237 H 0.60399 0.28132 0.55479 0.0
H1238 H 0.60257 0.31499 0.55994 0.0
H1239 H 0.59747 0.30069 0.52611 0.0
H1240 H 0.60701 0.40102 0.55703 0.0
H1241 H 0.60049 0.37391 0.47245 0.0
H1242 H 0.66124 0.3723 0.57579 0.0
H1243 H 0.63214 0.34874 0.58468 0.0
H1244 H 0.63087 0.38234 0.59051 0.0
H1245 H 0.65234 0.33821 0.472 0.0
H1246 H 0.6197 0.33902 0.45622 0.0
H1247 H 0.62286 0.31546 0.48201 0.0
loop_
_geom_bond_atom_site_label_1
_geom_bond_atom_site_label_2
_geom_bond_distance
_geom_bond_site_symmetry_2
_ccdc_geom_bond_type
C0 C1 1.264 . S
C0 C5 1.479 . S
C0 C10 1.465 . S
C1 C0 1.264 . S
C1 C3 1.339 . S
C1 H28 0.931 . S
C2 C3 1.395 . S
C2 C4 1.320 . S
C3 C1 1.339 . S
C3 C2 1.395 . S
C3 H29 0.929 . S
C4 C2 1.320 . S
C4 C5 1.405 . S
C4 H30 0.930 . S
C5 C0 1.479 . S
C5 C4 1.405 . S
C5 H31 0.931 . S
U6 O7 2.454 . S
U6 O8 2.458 . S
U6 C9 2.984 . S
U6 C10 2.847 . S
U6 C23 2.882 . S
U6 O24 2.441 . S
U6 O25 2.420 . S
U6 O26 2.455 . S
U6 O27 2.449 . S
O7 U6 2.454 . S
O7 C9 1.353 . S
O8 U6 2.458 . S
O8 C9 1.286 . S
C9 U6 2.984 . S
C9 O7 1.353 . S
C9 O8 1.286 . S
C9 C11 1.363 . S
C10 C0 1.465 . S
C10 U6 2.847 . S
C10 O24 1.249 . S
C10 O25 1.202 . S
C11 C9 1.363 . S
C11 C13 1.408 . S
C11 C16 1.342 . S
C12 C13 1.310 . S
C12 C15 1.461 . S
C12 H32 0.932 . S
C13 C11 1.408 . S
C13 C12 1.310 . S
C13 H33 0.930 . S
C14 C15 1.474 . S
C14 C16 1.285 . S
C14 H34 0.929 . S
C15 C12 1.461 . S
C15 C14 1.474 . S
C16 C11 1.342 . S
C16 C14 1.285 . S
C16 H35 0.930 . S
C17 C20 1.424 . S
C17 C22 1.245 . S
C17 C23 1.428 . S
C18 C21 1.260 . S
C18 C22 1.477 . S
C18 H36 0.932 . S
C19 C20 1.384 . S
C19 C21 1.479 . S
C19 H37 0.929 . S
C20 C17 1.424 . S
C20 C19 1.384 . S
C20 H38 0.928 . S
C21 C18 1.260 . S
C21 C19 1.479 . S
C22 C17 1.245 . S
C22 C18 1.477 . S
C22 H39 0.932 . S
C23 U6 2.882 . S
C23 C17 1.428 . S
C23 O26 1.301 . S
C23 O27 1.282 . S
O24 U6 2.441 . S
O24 C10 1.249 . S
O25 U6 2.420 . S
O25 C10 1.202 . S
O26 U6 2.455 . S
O26 C23 1.301 . S
O27 U6 2.449 . S
O27 C23 1.282 . S
H28 C1 0.931 . S
H29 C3 0.929 . S
H30 C4 0.930 . S
H31 C5 0.931 . S
H32 C12 0.932 . S
H33 C13 0.930 . S
H34 C14 0.929 . S
H35 C16 0.930 . S
H36 C18 0.932 . S
H37 C19 0.929 . S
H38 C20 0.928 . S
H39 C22 0.932 . S
C40 C41 1.264 . S
C40 C45 1.479 . S
C40 C50 1.465 . S
C41 C40 1.264 . S
C41 C43 1.339 . S
C41 H68 0.931 . S
C42 C43 1.395 . S
C42 C44 1.320 . S
C43 C41 1.339 . S
C43 C42 1.395 . S
C43 H69 0.929 . S
C44 C42 1.320 . S
C44 C45 1.405 . S
C44 H70 0.930 . S
C45 C40 1.479 . S
C45 C44 1.405 . S
C45 H71 0.931 . S
U46 O47 2.454 . S
U46 O48 2.458 . S
U46 C49 2.984 . S
U46 C50 2.847 . S
U46 C63 2.882 . S
U46 O64 2.441 . S
U46 O65 2.420 . S
U46 O66 2.455 . S
U46 O67 2.449 . S
O47 U46 2.454 . S
O47 C49 1.353 . S
O48 U46 2.458 . S
O48 C49 1.286 . S
C49 U46 2.984 . S
C49 O47 1.353 . S
C49 O48 1.286 . S
C49 C51 1.363 . S
C50 C40 1.465 . S
C50 U46 2.847 . S
C50 O64 1.249 . S
C50 O65 1.202 . S
C51 C49 1.363 . S
C51 C53 1.408 . S
C51 C56 1.342 . S
C52 C53 1.310 . S
C52 C55 1.461 . S
C52 H72 0.932 . S
C53 C51 1.408 . S
C53 C52 1.310 . S
C53 H73 0.930 . S
C54 C55 1.474 . S
C54 C56 1.285 . S
C54 H74 0.929 . S
C55 C52 1.461 . S
C55 C54 1.474 . S
C56 C51 1.342 . S
C56 C54 1.285 . S
C56 H75 0.930 . S
C57 C60 1.424 . S
C57 C62 1.245 . S
C57 C63 1.428 . S
C58 C61 1.260 . S
C58 C62 1.477 . S
C58 H76 0.932 . S
C59 C60 1.384 . S
C59 C61 1.479 . S
C59 H77 0.929 . S
C60 C57 1.424 . S
C60 C59 1.384 . S
C60 H78 0.928 . S
C61 C58 1.260 . S
C61 C59 1.479 . S
C62 C57 1.245 . S
C62 C58 1.477 . S
C62 H79 0.932 . S
C63 U46 2.882 . S
C63 C57 1.428 . S
C63 O66 1.301 . S
C63 O67 1.282 . S
O64 U46 2.441 . S
O64 C50 1.249 . S
O65 U46 2.420 . S
O65 C50 1.202 . S
O66 U46 2.455 . S
O66 C63 1.301 . S
O67 U46 2.449 . S
O67 C63 1.282 . S
H68 C41 0.931 . S
H69 C43 0.929 . S
H70 C44 0.930 . S
H71 C45 0.931 . S
H72 C52 0.932 . S
H73 C53 0.930 . S
H74 C54 0.929 . S
H75 C56 0.930 . S
H76 C58 0.932 . S
H77 C59 0.929 . S
H78 C60 0.928 . S
H79 C62 0.932 . S
C80 C81 1.264 . S
C80 C85 1.479 . S
C80 C90 1.465 . S
C81 C80 1.264 . S
C81 C83 1.339 . S
C81 H108 0.931 . S
C82 C83 1.395 . S
C82 C84 1.320 . S
C83 C81 1.339 . S
C83 C82 1.395 . S
C83 H109 0.929 . S
C84 C82 1.320 . S
C84 C85 1.405 . S
C84 H110 0.930 . S
C85 C80 1.479 . S
C85 C84 1.405 . S
C85 H111 0.931 . S
U86 O87 2.454 . S
U86 O88 2.458 . S
U86 C89 2.984 . S
U86 C90 2.847 . S
U86 C103 2.882 . S
U86 O104 2.441 . S
U86 O105 2.420 . S
U86 O106 2.455 . S
U86 O107 2.449 . S
O87 U86 2.454 . S
O87 C89 1.353 . S
O88 U86 2.458 . S
O88 C89 1.286 . S
C89 U86 2.984 . S
C89 O87 1.353 . S
C89 O88 1.286 . S
C89 C91 1.363 . S
C90 C80 1.465 . S
C90 U86 2.847 . S
C90 O104 1.249 . S
C90 O105 1.202 . S
C91 C89 1.363 . S
C91 C93 1.408 . S
C91 C96 1.342 . S
C92 C93 1.310 . S
C92 C95 1.461 . S
C92 H112 0.932 . S
C93 C91 1.408 . S
C93 C92 1.310 . S
C93 H113 0.930 . S
C94 C95 1.474 . S
C94 C96 1.285 . S
C94 H114 0.929 . S
C95 C92 1.461 . S
C95 C94 1.474 . S
C96 C91 1.342 . S
C96 C94 1.285 . S
C96 H115 0.930 . S
C97 C100 1.424 . S
C97 C102 1.245 . S
C97 C103 1.428 . S
C98 C101 1.260 . S
C98 C102 1.477 . S
C98 H116 0.932 . S
C99 C100 1.384 . S
C99 C101 1.479 . S
C99 H117 0.929 . S
C100 C97 1.424 . S
C100 C99 1.384 . S
C100 H118 0.928 . S
C101 C98 1.260 . S
C101 C99 1.479 . S
C102 C97 1.245 . S
C102 C98 1.477 . S
C102 H119 0.932 . S
C103 U86 2.882 . S
C103 C97 1.428 . S
C103 O106 1.301 . S
C103 O107 1.282 . S
O104 U86 2.441 . S
O104 C90 1.249 . S
O105 U86 2.420 . S
O105 C90 1.202 . S
O106 U86 2.455 . S
O106 C103 1.301 . S
O107 U86 2.449 . S
O107 C103 1.282 . S
H108 C81 0.931 . S
H109 C83 0.929 . S
H110 C84 0.930 . S
H111 C85 0.931 . S
H112 C92 0.932 . S
H113 C93 0.930 . S
H114 C94 0.929 . S
H115 C96 0.930 . S
H116 C98 0.932 . S
H117 C99 0.929 . S
H118 C100 0.928 . S
H119 C102 0.932 . S
C120 C121 1.264 . S
C120 C125 1.479 . S
C120 C130 1.465 . S
C121 C120 1.264 . S
C121 C123 1.339 . S
C121 H148 0.931 . S
C122 C123 1.395 . S
C122 C124 1.320 . S
C123 C121 1.339 . S
C123 C122 1.395 . S
C123 H149 0.929 . S
C124 C122 1.320 . S
C124 C125 1.405 . S
C124 H150 0.930 . S
C125 C120 1.479 . S
C125 C124 1.405 . S
C125 H151 0.931 . S
U126 O127 2.454 . S
U126 O128 2.458 . S
U126 C129 2.984 . S
U126 C130 2.847 . S
U126 C143 2.882 . S
U126 O144 2.441 . S
U126 O145 2.420 . S
U126 O146 2.455 . S
U126 O147 2.449 . S
O127 U126 2.454 . S
O127 C129 1.353 . S
O128 U126 2.458 . S
O128 C129 1.286 . S
C129 U126 2.984 . S
C129 O127 1.353 . S
C129 O128 1.286 . S
C129 C131 1.363 . S
C130 C120 1.465 . S
C130 U126 2.847 . S
C130 O144 1.249 . S
C130 O145 1.202 . S
C131 C129 1.363 . S
C131 C133 1.408 . S
C131 C136 1.342 . S
C132 C133 1.310 . S
C132 C135 1.461 . S
C132 H152 0.932 . S
C133 C131 1.408 . S
C133 C132 1.310 . S
C133 H153 0.930 . S
C134 C135 1.474 . S
C134 C136 1.285 . S
C134 H154 0.929 . S
C135 C132 1.461 . S
C135 C134 1.474 . S
C136 C131 1.342 . S
C136 C134 1.285 . S
C136 H155 0.930 . S
C137 C140 1.424 . S
C137 C142 1.245 . S
C137 C143 1.428 . S
C138 C141 1.260 . S
C138 C142 1.477 . S
C138 H156 0.932 . S
C139 C140 1.384 . S
C139 C141 1.479 . S
C139 H157 0.929 . S
C140 C137 1.424 . S
C140 C139 1.384 . S
C140 H158 0.928 . S
C141 C138 1.260 . S
C141 C139 1.479 . S
C142 C137 1.245 . S
C142 C138 1.477 . S
C142 H159 0.932 . S
C143 U126 2.882 . S
C143 C137 1.428 . S
C143 O146 1.301 . S
C143 O147 1.282 . S
O144 U126 2.441 . S
O144 C130 1.249 . S
O145 U126 2.420 . S
O145 C130 1.202 . S
O146 U126 2.455 . S
O146 C143 1.301 . S
O147 U126 2.449 . S
O147 C143 1.282 . S
H148 C121 0.931 . S
H149 C123 0.929 . S
H150 C124 0.930 . S
H151 C125 0.931 . S
H152 C132 0.932 . S
H153 C133 0.930 . S
H154 C134 0.929 . S
H155 C136 0.930 . S
H156 C138 0.932 . S
H157 C139 0.929 . S
H158 C140 0.928 . S
H159 C142 0.932 . S
C160 C161 1.264 . S
C160 C165 1.479 . S
C160 C170 1.465 . S
C161 C160 1.264 . S
C161 C163 1.339 . S
C161 H188 0.931 . S
C162 C163 1.395 . S
C162 C164 1.320 . S
C163 C161 1.339 . S
C163 C162 1.395 . S
C163 H189 0.929 . S
C164 C162 1.320 . S
C164 C165 1.405 . S
C164 H190 0.930 . S
C165 C160 1.479 . S
C165 C164 1.405 . S
C165 H191 0.931 . S
U166 O167 2.454 . S
U166 O168 2.458 . S
U166 C169 2.984 . S
U166 C170 2.847 . S
U166 C183 2.882 . S
U166 O184 2.441 . S
U166 O185 2.420 . S
U166 O186 2.455 . S
U166 O187 2.449 . S
O167 U166 2.454 . S
O167 C169 1.353 . S
O168 U166 2.458 . S
O168 C169 1.286 . S
C169 U166 2.984 . S
C169 O167 1.353 . S
C169 O168 1.286 . S
C169 C171 1.363 . S
C170 C160 1.465 . S
C170 U166 2.847 . S
C170 O184 1.249 . S
C170 O185 1.202 . S
C171 C169 1.363 . S
C171 C173 1.408 . S
C171 C176 1.342 . S
C172 C173 1.310 . S
C172 C175 1.461 . S
C172 H192 0.932 . S
C173 C171 1.408 . S
C173 C172 1.310 . S
C173 H193 0.930 . S
C174 C175 1.474 . S
C174 C176 1.285 . S
C174 H194 0.929 . S
C175 C172 1.461 . S
C175 C174 1.474 . S
C176 C171 1.342 . S
C176 C174 1.285 . S
C176 H195 0.930 . S
C177 C180 1.424 . S
C177 C182 1.245 . S
C177 C183 1.428 . S
C178 C181 1.260 . S
C178 C182 1.477 . S
C178 H196 0.932 . S
C179 C180 1.384 . S
C179 C181 1.479 . S
C179 H197 0.929 . S
C180 C177 1.424 . S
C180 C179 1.384 . S
C180 H198 0.928 . S
C181 C178 1.260 . S
C181 C179 1.479 . S
C182 C177 1.245 . S
C182 C178 1.477 . S
C182 H199 0.932 . S
C183 U166 2.882 . S
C183 C177 1.428 . S
C183 O186 1.301 . S
C183 O187 1.282 . S
O184 U166 2.441 . S
O184 C170 1.249 . S
O185 U166 2.420 . S
O185 C170 1.202 . S
O186 U166 2.455 . S
O186 C183 1.301 . S
O187 U166 2.449 . S
O187 C183 1.282 . S
H188 C161 0.931 . S
H189 C163 0.929 . S
H190 C164 0.930 . S
H191 C165 0.931 . S
H192 C172 0.932 . S
H193 C173 0.930 . S
H194 C174 0.929 . S
H195 C176 0.930 . S
H196 C178 0.932 . S
H197 C179 0.929 . S
H198 C180 0.928 . S
H199 C182 0.932 . S
C200 C201 1.264 . S
C200 C205 1.479 . S
C200 C210 1.465 . S
C201 C200 1.264 . S
C201 C203 1.339 . S
C201 H228 0.931 . S
C202 C203 1.395 . S
C202 C204 1.320 . S
C203 C201 1.339 . S
C203 C202 1.395 . S
C203 H229 0.929 . S
C204 C202 1.320 . S
C204 C205 1.405 . S
C204 H230 0.930 . S
C205 C200 1.479 . S
C205 C204 1.405 . S
C205 H231 0.931 . S
U206 O207 2.454 . S
U206 O208 2.458 . S
U206 C209 2.984 . S
U206 C210 2.847 . S
U206 C223 2.882 . S
U206 O224 2.441 . S
U206 O225 2.420 . S
U206 O226 2.455 . S
U206 O227 2.449 . S
O207 U206 2.454 . S
O207 C209 1.353 . S
O208 U206 2.458 . S
O208 C209 1.286 . S
C209 U206 2.984 . S
C209 O207 1.353 . S
C209 O208 1.286 . S
C209 C211 1.363 . S
C210 C200 1.465 . S
C210 U206 2.847 . S
C210 O224 1.249 . S
C210 O225 1.202 . S
C211 C209 1.363 . S
C211 C213 1.408 . S
C211 C216 1.342 . S
C212 C213 1.310 . S
C212 C215 1.461 . S
C212 H232 0.932 . S
C213 C211 1.408 . S
C213 C212 1.310 . S
C213 H233 0.930 . S
C214 C215 1.474 . S
C214 C216 1.285 . S
C214 H234 0.929 . S
C215 C212 1.461 . S
C215 C214 1.474 . S
C216 C211 1.342 . S
C216 C214 1.285 . S
C216 H235 0.930 . S
C217 C220 1.424 . S
C217 C222 1.245 . S
C217 C223 1.428 . S
C218 C221 1.260 . S
C218 C222 1.477 . S
C218 H236 0.932 . S
C219 C220 1.384 . S
C219 C221 1.479 . S
C219 H237 0.929 . S
C220 C217 1.424 . S
C220 C219 1.384 . S
C220 H238 0.928 . S
C221 C218 1.260 . S
C221 C219 1.479 . S
C222 C217 1.245 . S
C222 C218 1.477 . S
C222 H239 0.932 . S
C223 U206 2.882 . S
C223 C217 1.428 . S
C223 O226 1.301 . S
C223 O227 1.282 . S
O224 U206 2.441 . S
O224 C210 1.249 . S
O225 U206 2.420 . S
O225 C210 1.202 . S
O226 U206 2.455 . S
O226 C223 1.301 . S
O227 U206 2.449 . S
O227 C223 1.282 . S
H228 C201 0.931 . S
H229 C203 0.929 . S
H230 C204 0.930 . S
H231 C205 0.931 . S
H232 C212 0.932 . S
H233 C213 0.930 . S
H234 C214 0.929 . S
H235 C216 0.930 . S
H236 C218 0.932 . S
H237 C219 0.929 . S
H238 C220 0.928 . S
H239 C222 0.932 . S
C240 C241 1.264 . S
C240 C245 1.479 . S
C240 C250 1.465 . S
C241 C240 1.264 . S
C241 C243 1.339 . S
C241 H268 0.931 . S
C242 C243 1.395 . S
C242 C244 1.320 . S
C243 C241 1.339 . S
C243 C242 1.395 . S
C243 H269 0.929 . S
C244 C242 1.320 . S
C244 C245 1.405 . S
C244 H270 0.930 . S
C245 C240 1.479 . S
C245 C244 1.405 . S
C245 H271 0.931 . S
U246 O247 2.454 . S
U246 O248 2.458 . S
U246 C249 2.984 . S
U246 C250 2.847 . S
U246 C263 2.882 . S
U246 O264 2.441 . S
U246 O265 2.420 . S
U246 O266 2.455 . S
U246 O267 2.449 . S
O247 U246 2.454 . S
O247 C249 1.353 . S
O248 U246 2.458 . S
O248 C249 1.286 . S
C249 U246 2.984 . S
C249 O247 1.353 . S
C249 O248 1.286 . S
C249 C251 1.363 . S
C250 C240 1.465 . S
C250 U246 2.847 . S
C250 O264 1.249 . S
C250 O265 1.202 . S
C251 C249 1.363 . S
C251 C253 1.408 . S
C251 C256 1.342 . S
C252 C253 1.310 . S
C252 C255 1.461 . S
C252 H272 0.932 . S
C253 C251 1.408 . S
C253 C252 1.310 . S
C253 H273 0.930 . S
C254 C255 1.474 . S
C254 C256 1.285 . S
C254 H274 0.929 . S
C255 C252 1.461 . S
C255 C254 1.474 . S
C256 C251 1.342 . S
C256 C254 1.285 . S
C256 H275 0.930 . S
C257 C260 1.424 . S
C257 C262 1.245 . S
C257 C263 1.428 . S
C258 C261 1.260 . S
C258 C262 1.477 . S
C258 H276 0.932 . S
C259 C260 1.384 . S
C259 C261 1.479 . S
C259 H277 0.929 . S
C260 C257 1.424 . S
C260 C259 1.384 . S
C260 H278 0.928 . S
C261 C258 1.260 . S
C261 C259 1.479 . S
C262 C257 1.245 . S
C262 C258 1.477 . S
C262 H279 0.932 . S
C263 U246 2.882 . S
C263 C257 1.428 . S
C263 O266 1.301 . S
C263 O267 1.282 . S
O264 U246 2.441 . S
O264 C250 1.249 . S
O265 U246 2.420 . S
O265 C250 1.202 . S
O266 U246 2.455 . S
O266 C263 1.301 . S
O267 U246 2.449 . S
O267 C263 1.282 . S
H268 C241 0.931 . S
H269 C243 0.929 . S
H270 C244 0.930 . S
H271 C245 0.931 . S
H272 C252 0.932 . S
H273 C253 0.930 . S
H274 C254 0.929 . S
H275 C256 0.930 . S
H276 C258 0.932 . S
H277 C259 0.929 . S
H278 C260 0.928 . S
H279 C262 0.932 . S
C280 C281 1.264 . S
C280 C285 1.479 . S
C280 C290 1.465 . S
C281 C280 1.264 . S
C281 C283 1.339 . S
C281 H308 0.931 . S
C282 C283 1.395 . S
C282 C284 1.320 . S
C283 C281 1.339 . S
C283 C282 1.395 . S
C283 H309 0.929 . S
C284 C282 1.320 . S
C284 C285 1.405 . S
C284 H310 0.930 . S
C285 C280 1.479 . S
C285 C284 1.405 . S
C285 H311 0.931 . S
U286 O287 2.454 . S
U286 O288 2.458 . S
U286 C289 2.984 . S
U286 C290 2.847 . S
U286 C303 2.882 . S
U286 O304 2.441 . S
U286 O305 2.420 . S
U286 O306 2.455 . S
U286 O307 2.449 . S
O287 U286 2.454 . S
O287 C289 1.353 . S
O288 U286 2.458 . S
O288 C289 1.286 . S
C289 U286 2.984 . S
C289 O287 1.353 . S
C289 O288 1.286 . S
C289 C291 1.363 . S
C290 C280 1.465 . S
C290 U286 2.847 . S
C290 O304 1.249 . S
C290 O305 1.202 . S
C291 C289 1.363 . S
C291 C293 1.408 . S
C291 C296 1.342 . S
C292 C293 1.310 . S
C292 C295 1.461 . S
C292 H312 0.932 . S
C293 C291 1.408 . S
C293 C292 1.310 . S
C293 H313 0.930 . S
C294 C295 1.474 . S
C294 C296 1.285 . S
C294 H314 0.929 . S
C295 C292 1.461 . S
C295 C294 1.474 . S
C296 C291 1.342 . S
C296 C294 1.285 . S
C296 H315 0.930 . S
C297 C300 1.424 . S
C297 C302 1.245 . S
C297 C303 1.428 . S
C298 C301 1.260 . S
C298 C302 1.477 . S
C298 H316 0.932 . S
C299 C300 1.384 . S
C299 C301 1.479 . S
C299 H317 0.929 . S
C300 C297 1.424 . S
C300 C299 1.384 . S
C300 H318 0.928 . S
C301 C298 1.260 . S
C301 C299 1.479 . S
C302 C297 1.245 . S
C302 C298 1.477 . S
C302 H319 0.932 . S
C303 U286 2.882 . S
C303 C297 1.428 . S
C303 O306 1.301 . S
C303 O307 1.282 . S
O304 U286 2.441 . S
O304 C290 1.249 . S
O305 U286 2.420 . S
O305 C290 1.202 . S
O306 U286 2.455 . S
O306 C303 1.301 . S
O307 U286 2.449 . S
O307 C303 1.282 . S
H308 C281 0.931 . S
H309 C283 0.929 . S
H310 C284 0.930 . S
H311 C285 0.931 . S
H312 C292 0.932 . S
H313 C293 0.930 . S
H314 C294 0.929 . S
H315 C296 0.930 . S
H316 C298 0.932 . S
H317 C299 0.929 . S
H318 C300 0.928 . S
H319 C302 0.932 . S
Ho320 C323 2.811 . S
Ho320 O340 2.322 . S
Ho320 O342 2.378 . S
Ho320 O343 2.524 . S
Ho320 O344 2.381 1_545 S
Ho320 O345 2.669 1_545 S
Ho320 O347 2.346 1_445 S
Ho320 O351 2.305 1_455 S
Ho321 C332 2.808 . S
Ho321 O341 2.349 1_665 S
Ho321 O345 2.303 1_655 S
Ho321 O346 2.319 . S
Ho321 O348 2.377 . S
Ho321 O349 2.520 . S
Ho321 O350 2.383 1_565 S
Ho321 O351 2.671 1_565 S
C322 O340 1.259 . S
C322 O341 1.268 . S
C323 Ho320 2.811 . S
C323 C324 1.488 . S
C323 O342 1.215 . S
C323 O343 1.289 . S
C324 C323 1.488 . S
C324 C325 1.348 . S
C324 C329 1.413 . S
C325 C324 1.348 . S
C325 C326 1.442 . S
C325 H352 0.930 . S
C326 C325 1.442 . S
C326 C327 1.381 . S
C326 H353 0.931 . S
C327 C326 1.381 . S
C327 C328 1.321 . S
C328 C327 1.321 . S
C328 C329 1.403 . S
C328 H354 0.934 . S
C329 C324 1.413 . S
C329 C328 1.403 . S
C329 H355 0.930 . S
C330 O344 1.275 . S
C330 O345 1.256 . S
C331 O346 1.259 . S
C331 O347 1.268 . S
C332 Ho321 2.808 . S
C332 C333 1.488 . S
C332 O348 1.215 . S
C332 O349 1.289 . S
C333 C332 1.488 . S
C333 C334 1.348 . S
C333 C338 1.413 . S
C334 C333 1.348 . S
C334 C335 1.442 . S
C334 H356 0.930 . S
C335 C334 1.442 . S
C335 C336 1.381 . S
C335 H357 0.931 . S
C336 C335 1.381 . S
C336 C337 1.321 . S
C337 C336 1.321 . S
C337 C338 1.403 . S
C337 H358 0.934 . S
C338 C333 1.413 . S
C338 C337 1.403 . S
C338 H359 0.930 . S
C339 O350 1.275 . S
C339 O351 1.256 . S
O340 Ho320 2.322 . S
O340 C322 1.259 . S
O341 Ho321 2.349 1_445 S
O341 C322 1.268 . S
O342 Ho320 2.378 . S
O342 C323 1.215 . S
O343 Ho320 2.524 . S
O343 C323 1.289 . S
O344 Ho320 2.381 1_565 S
O344 C330 1.275 . S
O345 Ho320 2.669 1_565 S
O345 Ho321 2.303 1_455 S
O345 C330 1.256 . S
O346 Ho321 2.319 . S
O346 C331 1.259 . S
O347 Ho320 2.346 1_665 S
O347 C331 1.268 . S
O348 Ho321 2.377 . S
O348 C332 1.215 . S
O349 Ho321 2.520 . S
O349 C332 1.289 . S
O350 Ho321 2.383 1_545 S
O350 C339 1.275 . S
O351 Ho320 2.305 1_655 S
O351 Ho321 2.671 1_545 S
O351 C339 1.256 . S
H352 C325 0.930 . S
H353 C326 0.931 . S
H354 C328 0.934 . S
H355 C329 0.930 . S
H356 C334 0.930 . S
H357 C335 0.931 . S
H358 C337 0.934 . S
H359 C338 0.930 . S
Ho360 C363 2.827 . S
Ho360 O380 2.338 . S
Ho360 O382 2.381 . S
Ho360 O383 2.550 . S
Ho360 O384 2.357 1_545 S
Ho360 O385 2.658 1_545 S
Ho360 O387 2.327 1_544 S
Ho360 O391 2.326 1_554 S
Ho361 C372 2.811 1_545 S
Ho361 O381 2.346 1_556 S
Ho361 O385 2.305 1_546 S
Ho361 O386 2.322 1_545 S
Ho361 O388 2.378 1_545 S
Ho361 O389 2.524 1_545 S
Ho361 O390 2.381 . S
Ho361 O391 2.669 . S
C362 O380 1.259 . S
C362 O381 1.268 . S
C363 Ho360 2.827 . S
C363 C364 1.488 . S
C363 O382 1.215 . S
C363 O383 1.289 . S
C364 C363 1.488 . S
C364 C365 1.348 . S
C364 C369 1.413 . S
C365 C364 1.348 . S
C365 C366 1.442 . S
C365 H392 0.930 . S
C366 C365 1.442 . S
C366 C367 1.381 . S
C366 H393 0.931 . S
C367 C366 1.381 . S
C367 C368 1.321 . S
C368 C367 1.321 . S
C368 C369 1.403 . S
C368 H394 0.934 . S
C369 C364 1.413 . S
C369 C368 1.403 . S
C369 H395 0.930 . S
C370 O384 1.275 . S
C370 O385 1.256 . S
C371 O386 1.259 . S
C371 O387 1.268 . S
C372 Ho361 2.811 1_565 S
C372 C373 1.488 . S
C372 O388 1.215 . S
C372 O389 1.289 . S
C373 C372 1.488 . S
C373 C374 1.348 . S
C373 C378 1.413 . S
C374 C373 1.348 . S
C374 C375 1.442 . S
C374 H396 0.930 . S
C375 C374 1.442 . S
C375 C376 1.381 . S
C375 H397 0.931 . S
C376 C375 1.381 . S
C376 C377 1.321 . S
C377 C376 1.321 . S
C377 C378 1.403 . S
C377 H398 0.934 . S
C378 C373 1.413 . S
C378 C377 1.403 . S
C378 H399 0.930 . S
C379 O390 1.275 . S
C379 O391 1.256 . S
O380 Ho360 2.338 . S
O380 C362 1.259 . S
O381 Ho361 2.346 1_554 S
O381 C362 1.268 . S
O382 Ho360 2.381 . S
O382 C363 1.215 . S
O383 Ho360 2.550 . S
O383 C363 1.289 . S
O384 Ho360 2.357 1_565 S
O384 C370 1.275 . S
O385 Ho360 2.658 1_565 S
O385 Ho361 2.305 1_564 S
O385 C370 1.256 . S
O386 Ho361 2.322 1_565 S
O386 C371 1.259 . S
O387 Ho360 2.327 1_566 S
O387 C371 1.268 . S
O388 Ho361 2.378 1_565 S
O388 C372 1.215 . S
O389 Ho361 2.524 1_565 S
O389 C372 1.289 . S
O390 Ho361 2.381 . S
O390 C379 1.275 . S
O391 Ho360 2.326 1_556 S
O391 Ho361 2.669 . S
O391 C379 1.256 . S
H392 C365 0.930 . S
H393 C366 0.931 . S
H394 C368 0.934 . S
H395 C369 0.930 . S
H396 C374 0.930 . S
H397 C375 0.931 . S
H398 C377 0.934 . S
H399 C378 0.930 . S
Ho400 C403 2.811 . S
Ho400 O420 2.322 . S
Ho400 O422 2.378 . S
Ho400 O423 2.524 . S
Ho400 O424 2.381 . S
Ho400 O425 2.669 . S
Ho400 O427 2.346 . S
Ho400 O431 2.305 . S
Ho401 C412 2.811 . S
Ho401 O421 2.346 . S
Ho401 O425 2.305 . S
Ho401 O426 2.322 . S
Ho401 O428 2.378 . S
Ho401 O429 2.524 . S
Ho401 O430 2.381 . S
Ho401 O431 2.669 . S
C402 O420 1.259 . S
C402 O421 1.268 . S
C403 Ho400 2.811 . S
C403 C404 1.488 . S
C403 O422 1.215 . S
C403 O423 1.289 . S
C404 C403 1.488 . S
C404 C405 1.348 . S
C404 C409 1.413 . S
C405 C404 1.348 . S
C405 C406 1.442 . S
C405 H432 0.930 . S
C406 C405 1.442 . S
C406 C407 1.381 . S
C406 H433 0.931 . S
C407 C406 1.381 . S
C407 C408 1.321 . S
C408 C407 1.321 . S
C408 C409 1.403 . S
C408 H434 0.934 . S
C409 C404 1.413 . S
C409 C408 1.403 . S
C409 H435 0.930 . S
C410 O424 1.275 . S
C410 O425 1.256 . S
C411 O426 1.259 . S
C411 O427 1.268 . S
C412 Ho401 2.811 . S
C412 C413 1.488 . S
C412 O428 1.215 . S
C412 O429 1.289 . S
C413 C412 1.488 . S
C413 C414 1.348 . S
C413 C418 1.413 . S
C414 C413 1.348 . S
C414 C415 1.442 . S
C414 H436 0.930 . S
C415 C414 1.442 . S
C415 C416 1.381 . S
C415 H437 0.931 . S
C416 C415 1.381 . S
C416 C417 1.321 . S
C417 C416 1.321 . S
C417 C418 1.403 . S
C417 H438 0.934 . S
C418 C413 1.413 . S
C418 C417 1.403 . S
C418 H439 0.930 . S
C419 O430 1.275 . S
C419 O431 1.256 . S
O420 Ho400 2.322 . S
O420 C402 1.259 . S
O421 Ho401 2.346 . S
O421 C402 1.268 . S
O422 Ho400 2.378 . S
O422 C403 1.215 . S
O423 Ho400 2.524 . S
O423 C403 1.289 . S
O424 Ho400 2.381 . S
O424 C410 1.275 . S
O425 Ho400 2.669 . S
O425 Ho401 2.305 . S
O425 C410 1.256 . S
O426 Ho401 2.322 . S
O426 C411 1.259 . S
O427 Ho400 2.346 . S
O427 C411 1.268 . S
O428 Ho401 2.378 . S
O428 C412 1.215 . S
O429 Ho401 2.524 . S
O429 C412 1.289 . S
O430 Ho401 2.381 . S
O430 C419 1.275 . S
O431 Ho400 2.305 . S
O431 Ho401 2.669 . S
O431 C419 1.256 . S
H432 C405 0.930 . S
H433 C406 0.931 . S
H434 C408 0.934 . S
H435 C409 0.930 . S
H436 C414 0.930 . S
H437 C415 0.931 . S
H438 C417 0.934 . S
H439 C418 0.930 . S
Ho440 C443 2.811 . S
Ho440 O460 2.322 . S
Ho440 O462 2.378 . S
Ho440 O463 2.524 . S
Ho440 O464 2.381 1_455 S
Ho440 O465 2.669 1_455 S
Ho440 O467 2.346 1_454 S
Ho440 O471 2.305 1_554 S
Ho441 C452 2.785 1_455 S
Ho441 O461 2.374 1_556 S
Ho441 O465 2.297 1_456 S
Ho441 O466 2.303 1_455 S
Ho441 O468 2.361 1_455 S
Ho441 O469 2.493 1_455 S
Ho441 O470 2.397 . S
Ho441 O471 2.686 . S
C442 O460 1.259 . S
C442 O461 1.268 . S
C443 Ho440 2.811 . S
C443 C444 1.488 . S
C443 O462 1.215 . S
C443 O463 1.289 . S
C444 C443 1.488 . S
C444 C445 1.348 . S
C444 C449 1.413 . S
C445 C444 1.348 . S
C445 C446 1.442 . S
C445 H472 0.930 . S
C446 C445 1.442 . S
C446 C447 1.381 . S
C446 H473 0.931 . S
C447 C446 1.381 . S
C447 C448 1.321 . S
C448 C447 1.321 . S
C448 C449 1.403 . S
C448 H474 0.934 . S
C449 C444 1.413 . S
C449 C448 1.403 . S
C449 H475 0.930 . S
C450 O464 1.275 . S
C450 O465 1.256 . S
C451 O466 1.259 . S
C451 O467 1.268 . S
C452 Ho441 2.785 1_655 S
C452 C453 1.488 . S
C452 O468 1.215 . S
C452 O469 1.289 . S
C453 C452 1.488 . S
C453 C454 1.348 . S
C453 C458 1.413 . S
C454 C453 1.348 . S
C454 C455 1.442 . S
C454 H476 0.930 . S
C455 C454 1.442 . S
C455 C456 1.381 . S
C455 H477 0.931 . S
C456 C455 1.381 . S
C456 C457 1.321 . S
C457 C456 1.321 . S
C457 C458 1.403 . S
C457 H478 0.934 . S
C458 C453 1.413 . S
C458 C457 1.403 . S
C458 H479 0.930 . S
C459 O470 1.275 . S
C459 O471 1.256 . S
O460 Ho440 2.322 . S
O460 C442 1.259 . S
O461 Ho441 2.374 1_554 S
O461 C442 1.268 . S
O462 Ho440 2.378 . S
O462 C443 1.215 . S
O463 Ho440 2.524 . S
O463 C443 1.289 . S
O464 Ho440 2.381 1_655 S
O464 C450 1.275 . S
O465 Ho440 2.669 1_655 S
O465 Ho441 2.297 1_654 S
O465 C450 1.256 . S
O466 Ho441 2.303 1_655 S
O466 C451 1.259 . S
O467 Ho440 2.346 1_656 S
O467 C451 1.268 . S
O468 Ho441 2.361 1_655 S
O468 C452 1.215 . S
O469 Ho441 2.493 1_655 S
O469 C452 1.289 . S
O470 Ho441 2.397 . S
O470 C459 1.275 . S
O471 Ho440 2.305 1_556 S
O471 Ho441 2.686 . S
O471 C459 1.256 . S
H472 C445 0.930 . S
H473 C446 0.931 . S
H474 C448 0.934 . S
H475 C449 0.930 . S
H476 C454 0.930 . S
H477 C455 0.931 . S
H478 C457 0.934 . S
H479 C458 0.930 . S
C480 C481 1.391 . S
C480 C482 1.394 . S
C480 H496 0.931 . S
C481 C480 1.391 . S
C481 C485 1.376 . S
C482 C480 1.394 . S
C482 C483 1.369 . S
C482 C486 1.531 . S
C483 C482 1.369 . S
C483 C484 1.410 . S
C483 C491 1.503 . S
C484 C483 1.410 . S
C484 C485 1.392 . S
C484 C487 1.511 . S
C485 C481 1.376 . S
C485 C484 1.392 . S
C485 H497 0.929 . S
C486 C482 1.531 . S
C486 H498 0.960 . S
C486 H499 0.962 . S
C486 H500 0.960 . S
C487 C484 1.511 . S
C487 H501 0.961 . S
C487 H502 0.961 . S
C487 H503 0.961 . S
C488 C489 1.370 . S
C488 C490 1.363 . S
C488 H504 0.931 . S
C489 C488 1.370 . S
C489 C493 1.408 . S
C490 C488 1.363 . S
C490 C491 1.370 . S
C490 C494 1.524 . S
C491 C483 1.503 . S
C491 C490 1.370 . S
C491 C492 1.403 . S
C492 C491 1.403 . S
C492 C493 1.404 . S
C492 C495 1.539 . S
C493 C489 1.408 . S
C493 C492 1.404 . S
C493 H505 0.930 . S
C494 C490 1.524 . S
C494 H506 0.956 . S
C494 H507 0.961 . S
C494 H508 0.961 . S
C495 C492 1.539 . S
C495 H509 0.958 . S
C495 H510 0.961 . S
C495 H511 0.960 . S
H496 C480 0.931 . S
H497 C485 0.929 . S
H498 C486 0.960 . S
H499 C486 0.962 . S
H500 C486 0.960 . S
H501 C487 0.961 . S
H502 C487 0.961 . S
H503 C487 0.961 . S
H504 C488 0.931 . S
H505 C493 0.930 . S
H506 C494 0.956 . S
H507 C494 0.961 . S
H508 C494 0.961 . S
H509 C495 0.958 . S
H510 C495 0.961 . S
H511 C495 0.960 . S
C512 C513 1.391 . S
C512 C514 1.394 . S
C512 H528 0.931 . S
C513 C512 1.391 . S
C513 C517 1.376 . S
C514 C512 1.394 . S
C514 C515 1.369 . S
C514 C518 1.531 . S
C515 C514 1.369 . S
C515 C516 1.410 . S
C515 C523 1.503 . S
C516 C515 1.410 . S
C516 C517 1.392 . S
C516 C519 1.511 . S
C517 C513 1.376 . S
C517 C516 1.392 . S
C517 H529 0.929 . S
C518 C514 1.531 . S
C518 H530 0.960 . S
C518 H531 0.962 . S
C518 H532 0.960 . S
C519 C516 1.511 . S
C519 H533 0.961 . S
C519 H534 0.961 . S
C519 H535 0.961 . S
C520 C521 1.370 . S
C520 C522 1.363 . S
C520 H536 0.931 . S
C521 C520 1.370 . S
C521 C525 1.408 . S
C522 C520 1.363 . S
C522 C523 1.370 . S
C522 C526 1.524 . S
C523 C515 1.503 . S
C523 C522 1.370 . S
C523 C524 1.403 . S
C524 C523 1.403 . S
C524 C525 1.404 . S
C524 C527 1.539 . S
C525 C521 1.408 . S
C525 C524 1.404 . S
C525 H537 0.930 . S
C526 C522 1.524 . S
C526 H538 0.956 . S
C526 H539 0.961 . S
C526 H540 0.961 . S
C527 C524 1.539 . S
C527 H541 0.958 . S
C527 H542 0.961 . S
C527 H543 0.960 . S
H528 C512 0.931 . S
H529 C517 0.929 . S
H530 C518 0.960 . S
H531 C518 0.962 . S
H532 C518 0.960 . S
H533 C519 0.961 . S
H534 C519 0.961 . S
H535 C519 0.961 . S
H536 C520 0.931 . S
H537 C525 0.930 . S
H538 C526 0.956 . S
H539 C526 0.961 . S
H540 C526 0.961 . S
H541 C527 0.958 . S
H542 C527 0.961 . S
H543 C527 0.960 . S
C544 C545 1.391 . S
C544 C546 1.394 . S
C544 H560 0.931 . S
C545 C544 1.391 . S
C545 C549 1.376 . S
C546 C544 1.394 . S
C546 C547 1.369 . S
C546 C550 1.531 . S
C547 C546 1.369 . S
C547 C548 1.410 . S
C547 C555 1.503 . S
C548 C547 1.410 . S
C548 C549 1.392 . S
C548 C551 1.511 . S
C549 C545 1.376 . S
C549 C548 1.392 . S
C549 H561 0.929 . S
C550 C546 1.531 . S
C550 H562 0.960 . S
C550 H563 0.962 . S
C550 H564 0.960 . S
C551 C548 1.511 . S
C551 H565 0.961 . S
C551 H566 0.961 . S
C551 H567 0.961 . S
C552 C553 1.370 . S
C552 C554 1.363 . S
C552 H568 0.931 . S
C553 C552 1.370 . S
C553 C557 1.408 . S
C554 C552 1.363 . S
C554 C555 1.370 . S
C554 C558 1.524 . S
C555 C547 1.503 . S
C555 C554 1.370 . S
C555 C556 1.403 . S
C556 C555 1.403 . S
C556 C557 1.404 . S
C556 C559 1.539 . S
C557 C553 1.408 . S
C557 C556 1.404 . S
C557 H569 0.930 . S
C558 C554 1.524 . S
C558 H570 0.956 . S
C558 H571 0.961 . S
C558 H572 0.961 . S
C559 C556 1.539 . S
C559 H573 0.958 . S
C559 H574 0.961 . S
C559 H575 0.960 . S
H560 C544 0.931 . S
H561 C549 0.929 . S
H562 C550 0.960 . S
H563 C550 0.962 . S
H564 C550 0.960 . S
H565 C551 0.961 . S
H566 C551 0.961 . S
H567 C551 0.961 . S
H568 C552 0.931 . S
H569 C557 0.930 . S
H570 C558 0.956 . S
H571 C558 0.961 . S
H572 C558 0.961 . S
H573 C559 0.958 . S
H574 C559 0.961 . S
H575 C559 0.960 . S
C576 C577 1.391 . S
C576 C578 1.394 . S
C576 H592 0.931 . S
C577 C576 1.391 . S
C577 C581 1.376 . S
C578 C576 1.394 . S
C578 C579 1.369 . S
C578 C582 1.531 . S
C579 C578 1.369 . S
C579 C580 1.410 . S
C579 C587 1.503 . S
C580 C579 1.410 . S
C580 C581 1.392 . S
C580 C583 1.511 . S
C581 C577 1.376 . S
C581 C580 1.392 . S
C581 H593 0.929 . S
C582 C578 1.531 . S
C582 H594 0.960 . S
C582 H595 0.962 . S
C582 H596 0.960 . S
C583 C580 1.511 . S
C583 H597 0.961 . S
C583 H598 0.961 . S
C583 H599 0.961 . S
C584 C585 1.370 . S
C584 C586 1.363 . S
C584 H600 0.931 . S
C585 C584 1.370 . S
C585 C589 1.408 . S
C586 C584 1.363 . S
C586 C587 1.370 . S
C586 C590 1.524 . S
C587 C579 1.503 . S
C587 C586 1.370 . S
C587 C588 1.403 . S
C588 C587 1.403 . S
C588 C589 1.404 . S
C588 C591 1.539 . S
C589 C585 1.408 . S
C589 C588 1.404 . S
C589 H601 0.930 . S
C590 C586 1.524 . S
C590 H602 0.956 . S
C590 H603 0.961 . S
C590 H604 0.961 . S
C591 C588 1.539 . S
C591 H605 0.958 . S
C591 H606 0.961 . S
C591 H607 0.960 . S
H592 C576 0.931 . S
H593 C581 0.929 . S
H594 C582 0.960 . S
H595 C582 0.962 . S
H596 C582 0.960 . S
H597 C583 0.961 . S
H598 C583 0.961 . S
H599 C583 0.961 . S
H600 C584 0.931 . S
H601 C589 0.930 . S
H602 C590 0.956 . S
H603 C590 0.961 . S
H604 C590 0.961 . S
H605 C591 0.958 . S
H606 C591 0.961 . S
H607 C591 0.960 . S
C608 C609 1.391 . S
C608 C610 1.394 . S
C608 H624 0.931 . S
C609 C608 1.391 . S
C609 C613 1.376 . S
C610 C608 1.394 . S
C610 C611 1.369 . S
C610 C614 1.531 . S
C611 C610 1.369 . S
C611 C612 1.410 . S
C611 C619 1.503 . S
C612 C611 1.410 . S
C612 C613 1.392 . S
C612 C615 1.511 . S
C613 C609 1.376 . S
C613 C612 1.392 . S
C613 H625 0.929 . S
C614 C610 1.531 . S
C614 H626 0.960 . S
C614 H627 0.962 . S
C614 H628 0.960 . S
C615 C612 1.511 . S
C615 H629 0.961 . S
C615 H630 0.961 . S
C615 H631 0.961 . S
C616 C617 1.370 . S
C616 C618 1.363 . S
C616 H632 0.931 . S
C617 C616 1.370 . S
C617 C621 1.408 . S
C618 C616 1.363 . S
C618 C619 1.370 . S
C618 C622 1.524 . S
C619 C611 1.503 . S
C619 C618 1.370 . S
C619 C620 1.403 . S
C620 C619 1.403 . S
C620 C621 1.404 . S
C620 C623 1.539 . S
C621 C617 1.408 . S
C621 C620 1.404 . S
C621 H633 0.930 . S
C622 C618 1.524 . S
C622 H634 0.956 . S
C622 H635 0.961 . S
C622 H636 0.961 . S
C623 C620 1.539 . S
C623 H637 0.958 . S
C623 H638 0.961 . S
C623 H639 0.960 . S
H624 C608 0.931 . S
H625 C613 0.929 . S
H626 C614 0.960 . S
H627 C614 0.962 . S
H628 C614 0.960 . S
H629 C615 0.961 . S
H630 C615 0.961 . S
H631 C615 0.961 . S
H632 C616 0.931 . S
H633 C621 0.930 . S
H634 C622 0.956 . S
H635 C622 0.961 . S
H636 C622 0.961 . S
H637 C623 0.958 . S
H638 C623 0.961 . S
H639 C623 0.960 . S
C640 C641 1.391 . S
C640 C642 1.394 . S
C640 H656 0.931 . S
C641 C640 1.391 . S
C641 C645 1.376 . S
C642 C640 1.394 . S
C642 C643 1.369 . S
C642 C646 1.531 . S
C643 C642 1.369 . S
C643 C644 1.410 . S
C643 C651 1.503 . S
C644 C643 1.410 . S
C644 C645 1.392 . S
C644 C647 1.511 . S
C645 C641 1.376 . S
C645 C644 1.392 . S
C645 H657 0.929 . S
C646 C642 1.531 . S
C646 H658 0.960 . S
C646 H659 0.962 . S
C646 H660 0.960 . S
C647 C644 1.511 . S
C647 H661 0.961 . S
C647 H662 0.961 . S
C647 H663 0.961 . S
C648 C649 1.370 . S
C648 C650 1.363 . S
C648 H664 0.965 . S
C649 C648 1.370 . S
C649 C653 1.408 . S
C650 C648 1.363 . S
C650 C651 1.370 . S
C650 C654 1.524 . S
C651 C643 1.503 . S
C651 C650 1.370 . S
C651 C652 1.403 . S
C652 C651 1.403 . S
C652 C653 1.404 . S
C652 C655 1.539 . S
C653 C649 1.408 . S
C653 C652 1.404 . S
C653 H665 0.930 . S
C654 C650 1.524 . S
C654 H666 0.956 . S
C654 H667 0.961 . S
C654 H668 0.961 . S
C655 C652 1.539 . S
C655 H669 0.958 . S
C655 H670 0.961 . S
C655 H671 0.960 . S
H656 C640 0.931 . S
H657 C645 0.929 . S
H658 C646 0.960 . S
H659 C646 0.962 . S
H660 C646 0.960 . S
H661 C647 0.961 . S
H662 C647 0.961 . S
H663 C647 0.961 . S
H664 C648 0.965 . S
H665 C653 0.930 . S
H666 C654 0.956 . S
H667 C654 0.961 . S
H668 C654 0.961 . S
H669 C655 0.958 . S
H670 C655 0.961 . S
H671 C655 0.960 . S
C672 C673 1.391 . S
C672 C674 1.394 . S
C672 H688 0.931 . S
C673 C672 1.391 . S
C673 C677 1.376 . S
C674 C672 1.394 . S
C674 C675 1.369 . S
C674 C678 1.531 . S
C675 C674 1.369 . S
C675 C676 1.410 . S
C675 C683 1.503 . S
C676 C675 1.410 . S
C676 C677 1.392 . S
C676 C679 1.511 . S
C677 C673 1.376 . S
C677 C676 1.392 . S
C677 H689 0.929 . S
C678 C674 1.531 . S
C678 H690 0.960 . S
C678 H691 0.962 . S
C678 H692 0.960 . S
C679 C676 1.511 . S
C679 H693 0.961 . S
C679 H694 0.961 . S
C679 H695 0.961 . S
C680 C681 1.370 . S
C680 C682 1.363 . S
C680 H696 0.931 . S
C681 C680 1.370 . S
C681 C685 1.408 . S
C682 C680 1.363 . S
C682 C683 1.370 . S
C682 C686 1.524 . S
C683 C675 1.503 . S
C683 C682 1.370 . S
C683 C684 1.403 . S
C684 C683 1.403 . S
C684 C685 1.404 . S
C684 C687 1.539 . S
C685 C681 1.408 . S
C685 C684 1.404 . S
C685 H697 0.930 . S
C686 C682 1.524 . S
C686 H698 0.956 . S
C686 H699 0.961 . S
C686 H700 0.961 . S
C687 C684 1.539 . S
C687 H701 0.958 . S
C687 H702 0.961 . S
C687 H703 0.960 . S
H688 C672 0.931 . S
H689 C677 0.929 . S
H690 C678 0.960 . S
H691 C678 0.962 . S
H692 C678 0.960 . S
H693 C679 0.961 . S
H694 C679 0.961 . S
H695 C679 0.961 . S
H696 C680 0.931 . S
H697 C685 0.930 . S
H698 C686 0.956 . S
H699 C686 0.961 . S
H700 C686 0.961 . S
H701 C687 0.958 . S
H702 C687 0.961 . S
H703 C687 0.960 . S
C704 C705 1.391 . S
C704 C706 1.394 . S
C704 H720 0.931 . S
C705 C704 1.391 . S
C705 C709 1.376 . S
C706 C704 1.394 . S
C706 C707 1.369 . S
C706 C710 1.531 . S
C707 C706 1.369 . S
C707 C708 1.410 . S
C707 C715 1.503 . S
C708 C707 1.410 . S
C708 C709 1.392 . S
C708 C711 1.511 . S
C709 C705 1.376 . S
C709 C708 1.392 . S
C709 H721 0.929 . S
C710 C706 1.531 . S
C710 H722 0.960 . S
C710 H723 0.962 . S
C710 H724 0.960 . S
C711 C708 1.511 . S
C711 H725 0.961 . S
C711 H726 0.961 . S
C711 H727 0.961 . S
C712 C713 1.370 . S
C712 C714 1.363 . S
C712 H728 0.931 . S
C713 C712 1.370 . S
C713 C717 1.408 . S
C714 C712 1.363 . S
C714 C715 1.370 . S
C714 C718 1.524 . S
C715 C707 1.503 . S
C715 C714 1.370 . S
C715 C716 1.403 . S
C716 C715 1.403 . S
C716 C717 1.404 . S
C716 C719 1.539 . S
C717 C713 1.408 . S
C717 C716 1.404 . S
C717 H729 0.930 . S
C718 C714 1.524 . S
C718 H730 0.956 . S
C718 H731 0.961 . S
C718 H732 0.961 . S
C719 C716 1.539 . S
C719 H733 0.958 . S
C719 H734 0.961 . S
C719 H735 0.960 . S
H720 C704 0.931 . S
H721 C709 0.929 . S
H722 C710 0.960 . S
H723 C710 0.962 . S
H724 C710 0.960 . S
H725 C711 0.961 . S
H726 C711 0.961 . S
H727 C711 0.961 . S
H728 C712 0.931 . S
H729 C717 0.930 . S
H730 C718 0.956 . S
H731 C718 0.961 . S
H732 C718 0.961 . S
H733 C719 0.958 . S
H734 C719 0.961 . S
H735 C719 0.960 . S
C736 C737 1.391 . S
C736 C738 1.394 . S
C736 H752 0.931 . S
C737 C736 1.391 . S
C737 C741 1.376 . S
C738 C736 1.394 . S
C738 C739 1.369 . S
C738 C742 1.531 . S
C739 C738 1.369 . S
C739 C740 1.410 . S
C739 C747 1.503 . S
C740 C739 1.410 . S
C740 C741 1.392 . S
C740 C743 1.511 . S
C741 C737 1.376 . S
C741 C740 1.392 . S
C741 H753 0.929 . S
C742 C738 1.531 . S
C742 H754 0.960 . S
C742 H755 0.962 . S
C742 H756 0.960 . S
C743 C740 1.511 . S
C743 H757 0.961 . S
C743 H758 0.961 . S
C743 H759 0.961 . S
C744 C745 1.370 . S
C744 C746 1.363 . S
C744 H760 0.931 . S
C745 C744 1.370 . S
C745 C749 1.408 . S
C746 C744 1.363 . S
C746 C747 1.370 . S
C746 C750 1.524 . S
C747 C739 1.503 . S
C747 C746 1.370 . S
C747 C748 1.403 . S
C748 C747 1.403 . S
C748 C749 1.404 . S
C748 C751 1.539 . S
C749 C745 1.408 . S
C749 C748 1.404 . S
C749 H761 0.930 . S
C750 C746 1.524 . S
C750 H762 0.956 . S
C750 H763 0.961 . S
C750 H764 0.961 . S
C751 C748 1.539 . S
C751 H765 0.958 . S
C751 H766 0.961 . S
C751 H767 0.960 . S
H752 C736 0.931 . S
H753 C741 0.929 . S
H754 C742 0.960 . S
H755 C742 0.962 . S
H756 C742 0.960 . S
H757 C743 0.961 . S
H758 C743 0.961 . S
H759 C743 0.961 . S
H760 C744 0.931 . S
H761 C749 0.930 . S
H762 C750 0.956 . S
H763 C750 0.961 . S
H764 C750 0.961 . S
H765 C751 0.958 . S
H766 C751 0.961 . S
H767 C751 0.960 . S
C768 C769 1.391 . S
C768 C770 1.394 . S
C768 H784 0.931 . S
C769 C768 1.391 . S
C769 C773 1.376 . S
C770 C768 1.394 . S
C770 C771 1.369 . S
C770 C774 1.531 . S
C771 C770 1.369 . S
C771 C772 1.410 . S
C771 C779 1.503 . S
C772 C771 1.410 . S
C772 C773 1.392 . S
C772 C775 1.511 . S
C773 C769 1.376 . S
C773 C772 1.392 . S
C773 H785 0.929 . S
C774 C770 1.531 . S
C774 H786 0.960 . S
C774 H787 0.962 . S
C774 H788 0.960 . S
C775 C772 1.511 . S
C775 H789 0.961 . S
C775 H790 0.961 . S
C775 H791 0.961 . S
C776 C777 1.370 . S
C776 C778 1.363 . S
C776 H792 0.931 . S
C777 C776 1.370 . S
C777 C781 1.408 . S
C778 C776 1.363 . S
C778 C779 1.370 . S
C778 C782 1.524 . S
C779 C771 1.503 . S
C779 C778 1.370 . S
C779 C780 1.403 . S
C780 C779 1.403 . S
C780 C781 1.404 . S
C780 C783 1.539 . S
C781 C777 1.408 . S
C781 C780 1.404 . S
C781 H793 0.930 . S
C782 C778 1.524 . S
C782 H794 0.956 . S
C782 H795 0.961 . S
C782 H796 0.961 . S
C783 C780 1.539 . S
C783 H797 0.958 . S
C783 H798 0.961 1_556 S
C783 H799 0.960 . S
H784 C768 0.931 . S
H785 C773 0.929 . S
H786 C774 0.960 . S
H787 C774 0.962 . S
H788 C774 0.960 . S
H789 C775 0.961 . S
H790 C775 0.961 . S
H791 C775 0.961 . S
H792 C776 0.931 . S
H793 C781 0.930 . S
H794 C782 0.956 . S
H795 C782 0.961 . S
H796 C782 0.961 . S
H797 C783 0.958 . S
H798 C783 0.961 1_554 S
H799 C783 0.960 . S
C800 C801 1.391 . S
C800 C802 1.394 . S
C800 H816 0.931 . S
C801 C800 1.391 . S
C801 C805 1.376 . S
C802 C800 1.394 . S
C802 C803 1.369 . S
C802 C806 1.531 . S
C803 C802 1.369 . S
C803 C804 1.410 . S
C803 C811 1.503 . S
C804 C803 1.410 . S
C804 C805 1.392 . S
C804 C807 1.511 . S
C805 C801 1.376 . S
C805 C804 1.392 . S
C805 H817 0.929 . S
C806 C802 1.531 . S
C806 H818 0.960 . S
C806 H819 0.962 . S
C806 H820 0.960 . S
C807 C804 1.511 . S
C807 H821 0.961 . S
C807 H822 0.961 . S
C807 H823 0.961 . S
C808 C809 1.370 . S
C808 C810 1.363 . S
C808 H824 0.931 . S
C809 C808 1.370 . S
C809 C813 1.408 . S
C810 C808 1.363 . S
C810 C811 1.370 . S
C810 C814 1.524 . S
C811 C803 1.503 . S
C811 C810 1.370 . S
C811 C812 1.403 . S
C812 C811 1.403 . S
C812 C813 1.404 . S
C812 C815 1.539 . S
C813 C809 1.408 . S
C813 C812 1.404 . S
C813 H825 0.930 . S
C814 C810 1.524 . S
C814 H826 0.956 . S
C814 H827 0.961 . S
C814 H828 0.961 . S
C815 C812 1.539 . S
C815 H829 0.958 . S
C815 H830 0.961 . S
C815 H831 0.960 . S
H816 C800 0.931 . S
H817 C805 0.929 . S
H818 C806 0.960 . S
H819 C806 0.962 . S
H820 C806 0.960 . S
H821 C807 0.961 . S
H822 C807 0.961 . S
H823 C807 0.961 . S
H824 C808 0.931 . S
H825 C813 0.930 . S
H826 C814 0.956 . S
H827 C814 0.961 . S
H828 C814 0.961 . S
H829 C815 0.958 . S
H830 C815 0.961 . S
H831 C815 0.960 . S
C832 C833 1.391 . S
C832 C834 1.394 . S
C832 H848 0.931 . S
C833 C832 1.391 . S
C833 C837 1.376 . S
C834 C832 1.394 . S
C834 C835 1.369 . S
C834 C838 1.531 . S
C835 C834 1.369 . S
C835 C836 1.410 . S
C835 C843 1.503 . S
C836 C835 1.410 . S
C836 C837 1.392 . S
C836 C839 1.511 . S
C837 C833 1.376 . S
C837 C836 1.392 . S
C837 H849 0.929 . S
C838 C834 1.531 . S
C838 H850 0.960 . S
C838 H851 0.962 . S
C838 H852 0.960 . S
C839 C836 1.511 . S
C839 H853 0.961 . S
C839 H854 0.961 . S
C839 H855 0.961 . S
C840 C841 1.370 . S
C840 C842 1.363 . S
C840 H856 0.931 . S
C841 C840 1.370 . S
C841 C845 1.408 . S
C842 C840 1.363 . S
C842 C843 1.370 . S
C842 C846 1.524 . S
C843 C835 1.503 . S
C843 C842 1.370 . S
C843 C844 1.403 . S
C844 C843 1.403 . S
C844 C845 1.404 . S
C844 C847 1.539 . S
C845 C841 1.408 . S
C845 C844 1.404 . S
C845 H857 0.930 . S
C846 C842 1.524 . S
C846 H858 0.956 . S
C846 H859 0.961 . S
C846 H860 0.961 . S
C847 C844 1.539 . S
C847 H861 0.958 . S
C847 H862 0.961 . S
C847 H863 0.960 . S
H848 C832 0.931 . S
H849 C837 0.929 . S
H850 C838 0.960 . S
H851 C838 0.962 . S
H852 C838 0.960 . S
H853 C839 0.961 . S
H854 C839 0.961 . S
H855 C839 0.961 . S
H856 C840 0.931 . S
H857 C845 0.930 . S
H858 C846 0.956 . S
H859 C846 0.961 . S
H860 C846 0.961 . S
H861 C847 0.958 . S
H862 C847 0.961 . S
H863 C847 0.960 . S
C864 C865 1.391 . S
C864 C866 1.394 . S
C864 H880 0.931 . S
C865 C864 1.391 . S
C865 C869 1.376 . S
C866 C864 1.394 . S
C866 C867 1.369 . S
C866 C870 1.531 . S
C867 C866 1.369 . S
C867 C868 1.410 . S
C867 C875 1.503 . S
C868 C867 1.410 . S
C868 C869 1.392 . S
C868 C871 1.511 . S
C869 C865 1.376 . S
C869 C868 1.392 . S
C869 H881 0.929 . S
C870 C866 1.531 . S
C870 H882 0.960 . S
C870 H883 0.962 . S
C870 H884 0.960 . S
C871 C868 1.511 . S
C871 H885 0.961 . S
C871 H886 0.961 . S
C871 H887 0.961 . S
C872 C873 1.370 . S
C872 C874 1.363 . S
C872 H888 0.931 . S
C873 C872 1.370 . S
C873 C877 1.408 . S
C874 C872 1.363 . S
C874 C875 1.370 . S
C874 C878 1.524 . S
C875 C867 1.503 . S
C875 C874 1.370 . S
C875 C876 1.403 . S
C876 C875 1.403 . S
C876 C877 1.404 . S
C876 C879 1.539 . S
C877 C873 1.408 . S
C877 C876 1.404 . S
C877 H889 0.930 . S
C878 C874 1.524 . S
C878 H890 0.956 . S
C878 H891 0.961 . S
C878 H892 0.961 . S
C879 C876 1.539 . S
C879 H893 0.958 . S
C879 H894 0.961 . S
C879 H895 0.960 . S
H880 C864 0.931 . S
H881 C869 0.929 . S
H882 C870 0.960 . S
H883 C870 0.962 . S
H884 C870 0.960 . S
H885 C871 0.961 . S
H886 C871 0.961 . S
H887 C871 0.961 . S
H888 C872 0.931 . S
H889 C877 0.930 . S
H890 C878 0.956 . S
H891 C878 0.961 . S
H892 C878 0.961 . S
H893 C879 0.958 . S
H894 C879 0.961 . S
H895 C879 0.960 . S
C896 C897 1.391 . S
C896 C898 1.394 . S
C896 H912 0.931 . S
C897 C896 1.391 . S
C897 C901 1.376 . S
C898 C896 1.394 . S
C898 C899 1.369 . S
C898 C902 1.531 . S
C899 C898 1.369 . S
C899 C900 1.410 . S
C899 C907 1.503 . S
C900 C899 1.410 . S
C900 C901 1.392 . S
C900 C903 1.511 . S
C901 C897 1.376 . S
C901 C900 1.392 . S
C901 H913 0.929 . S
C902 C898 1.531 . S
C902 H914 0.960 . S
C902 H915 0.962 . S
C902 H916 0.960 . S
C903 C900 1.511 . S
C903 H917 0.961 . S
C903 H918 0.961 . S
C903 H919 0.961 . S
C904 C905 1.370 . S
C904 C906 1.363 . S
C904 H920 0.931 . S
C905 C904 1.370 . S
C905 C909 1.408 . S
C906 C904 1.363 . S
C906 C907 1.370 . S
C906 C910 1.524 . S
C907 C899 1.503 . S
C907 C906 1.370 . S
C907 C908 1.403 . S
C908 C907 1.403 . S
C908 C909 1.404 . S
C908 C911 1.539 . S
C909 C905 1.408 . S
C909 C908 1.404 . S
C909 H921 0.930 . S
C910 C906 1.524 . S
C910 H922 0.956 . S
C910 H923 0.961 . S
C910 H924 0.961 . S
C911 C908 1.539 . S
C911 H925 0.958 . S
C911 H926 0.961 . S
C911 H927 0.960 . S
H912 C896 0.931 . S
H913 C901 0.929 . S
H914 C902 0.960 . S
H915 C902 0.962 . S
H916 C902 0.960 . S
H917 C903 0.961 . S
H918 C903 0.961 . S
H919 C903 0.961 . S
H920 C904 0.931 . S
H921 C909 0.930 . S
H922 C910 0.956 . S
H923 C910 0.961 . S
H924 C910 0.961 . S
H925 C911 0.958 . S
H926 C911 0.961 . S
H927 C911 0.960 . S
C928 C929 1.391 . S
C928 C930 1.394 . S
C928 H944 0.931 . S
C929 C928 1.391 . S
C929 C933 1.376 . S
C930 C928 1.394 . S
C930 C931 1.369 . S
C930 C934 1.531 . S
C931 C930 1.369 . S
C931 C932 1.410 . S
C931 C939 1.503 . S
C932 C931 1.410 . S
C932 C933 1.392 . S
C932 C935 1.511 . S
C933 C929 1.376 . S
C933 C932 1.392 . S
C933 H945 0.929 . S
C934 C930 1.531 . S
C934 H946 0.960 . S
C934 H947 0.962 . S
C934 H948 0.960 . S
C935 C932 1.511 . S
C935 H949 0.961 . S
C935 H950 0.961 . S
C935 H951 0.961 . S
C936 C937 1.370 . S
C936 C938 1.363 . S
C936 H952 0.931 . S
C937 C936 1.370 . S
C937 C941 1.408 . S
C938 C936 1.363 . S
C938 C939 1.370 . S
C938 C942 1.524 . S
C939 C931 1.503 . S
C939 C938 1.370 . S
C939 C940 1.403 . S
C940 C939 1.403 . S
C940 C941 1.404 . S
C940 C943 1.539 . S
C941 C937 1.408 . S
C941 C940 1.404 . S
C941 H953 0.930 . S
C942 C938 1.524 . S
C942 H954 0.956 . S
C942 H955 0.961 . S
C942 H956 0.961 . S
C943 C940 1.539 . S
C943 H957 0.958 . S
C943 H958 0.961 . S
C943 H959 0.960 . S
H944 C928 0.931 . S
H945 C933 0.929 . S
H946 C934 0.960 . S
H947 C934 0.962 . S
H948 C934 0.960 . S
H949 C935 0.961 . S
H950 C935 0.961 . S
H951 C935 0.961 . S
H952 C936 0.931 . S
H953 C941 0.930 . S
H954 C942 0.956 . S
H955 C942 0.961 . S
H956 C942 0.961 . S
H957 C943 0.958 . S
H958 C943 0.961 . S
H959 C943 0.960 . S
C960 C961 1.391 . S
C960 C962 1.394 . S
C960 H976 0.931 . S
C961 C960 1.391 . S
C961 C965 1.376 . S
C962 C960 1.394 . S
C962 C963 1.369 . S
C962 C966 1.531 . S
C963 C962 1.369 . S
C963 C964 1.410 . S
C963 C971 1.503 . S
C964 C963 1.410 . S
C964 C965 1.392 . S
C964 C967 1.511 . S
C965 C961 1.376 . S
C965 C964 1.392 . S
C965 H977 0.929 . S
C966 C962 1.531 . S
C966 H978 0.960 . S
C966 H979 0.962 . S
C966 H980 0.960 . S
C967 C964 1.511 . S
C967 H981 0.961 . S
C967 H982 0.961 . S
C967 H983 0.961 . S
C968 C969 1.370 . S
C968 C970 1.363 . S
C968 H984 0.931 . S
C969 C968 1.370 . S
C969 C973 1.408 . S
C970 C968 1.363 . S
C970 C971 1.370 . S
C970 C974 1.524 . S
C971 C963 1.503 . S
C971 C970 1.370 . S
C971 C972 1.403 . S
C972 C971 1.403 . S
C972 C973 1.404 . S
C972 C975 1.539 . S
C973 C969 1.408 . S
C973 C972 1.404 . S
C973 H985 0.930 . S
C974 C970 1.524 . S
C974 H986 0.956 . S
C974 H987 0.961 . S
C974 H988 0.961 . S
C975 C972 1.539 . S
C975 H989 0.958 . S
C975 H990 0.961 . S
C975 H991 0.960 . S
H976 C960 0.931 . S
H977 C965 0.929 . S
H978 C966 0.960 . S
H979 C966 0.962 . S
H980 C966 0.960 . S
H981 C967 0.961 . S
H982 C967 0.961 . S
H983 C967 0.961 . S
H984 C968 0.931 . S
H985 C973 0.930 . S
H986 C974 0.956 . S
H987 C974 0.961 . S
H988 C974 0.961 . S
H989 C975 0.958 . S
H990 C975 0.961 . S
H991 C975 0.960 . S
C992 C993 1.391 . S
C992 C994 1.394 . S
C992 H1008 0.931 . S
C993 C992 1.391 . S
C993 C997 1.376 . S
C994 C992 1.394 . S
C994 C995 1.369 . S
C994 C998 1.531 . S
C995 C994 1.369 . S
C995 C996 1.410 . S
C995 C1003 1.503 . S
C996 C995 1.410 . S
C996 C997 1.392 . S
C996 C999 1.511 . S
C997 C993 1.376 . S
C997 C996 1.392 . S
C997 H1009 0.929 . S
C998 C994 1.531 . S
C998 H1010 0.960 . S
C998 H1011 0.962 . S
C998 H1012 0.960 . S
C999 C996 1.511 . S
C999 H1013 0.961 . S
C999 H1014 0.961 . S
C999 H1015 0.961 . S
C1000 C1001 1.370 . S
C1000 C1002 1.363 . S
C1000 H1016 0.931 . S
C1001 C1000 1.370 . S
C1001 C1005 1.408 . S
C1002 C1000 1.363 . S
C1002 C1003 1.370 . S
C1002 C1006 1.524 . S
C1003 C995 1.503 . S
C1003 C1002 1.370 . S
C1003 C1004 1.403 . S
C1004 C1003 1.403 . S
C1004 C1005 1.404 . S
C1004 C1007 1.539 . S
C1005 C1001 1.408 . S
C1005 C1004 1.404 . S
C1005 H1017 0.930 . S
C1006 C1002 1.524 . S
C1006 H1018 0.956 . S
C1006 H1019 0.961 . S
C1006 H1020 0.961 . S
C1007 C1004 1.539 . S
C1007 H1021 0.958 . S
C1007 H1022 0.961 . S
C1007 H1023 0.960 . S
H1008 C992 0.931 . S
H1009 C997 0.929 . S
H1010 C998 0.960 . S
H1011 C998 0.962 . S
H1012 C998 0.960 . S
H1013 C999 0.961 . S
H1014 C999 0.961 . S
H1015 C999 0.961 . S
H1016 C1000 0.931 . S
H1017 C1005 0.930 . S
H1018 C1006 0.956 . S
H1019 C1006 0.961 . S
H1020 C1006 0.961 . S
H1021 C1007 0.958 . S
H1022 C1007 0.961 . S
H1023 C1007 0.960 . S
C1024 C1025 1.391 . S
C1024 C1026 1.394 . S
C1024 H1040 0.931 . S
C1025 C1024 1.391 . S
C1025 C1029 1.376 . S
C1026 C1024 1.394 . S
C1026 C1027 1.369 . S
C1026 C1030 1.531 . S
C1027 C1026 1.369 . S
C1027 C1028 1.410 . S
C1027 C1035 1.503 . S
C1028 C1027 1.410 . S
C1028 C1029 1.392 . S
C1028 C1031 1.511 . S
C1029 C1025 1.376 . S
C1029 C1028 1.392 . S
C1029 H1041 0.929 . S
C1030 C1026 1.531 . S
C1030 H1042 0.960 . S
C1030 H1043 0.962 . S
C1030 H1044 0.960 . S
C1031 C1028 1.511 . S
C1031 H1045 0.961 . S
C1031 H1046 0.961 . S
C1031 H1047 0.961 . S
C1032 C1033 1.370 . S
C1032 C1034 1.363 . S
C1032 H1048 0.931 . S
C1033 C1032 1.370 . S
C1033 C1037 1.408 . S
C1034 C1032 1.363 . S
C1034 C1035 1.370 . S
C1034 C1038 1.524 . S
C1035 C1027 1.503 . S
C1035 C1034 1.370 . S
C1035 C1036 1.403 . S
C1036 C1035 1.403 . S
C1036 C1037 1.404 . S
C1036 C1039 1.539 . S
C1037 C1033 1.408 . S
C1037 C1036 1.404 . S
C1037 H1049 0.930 . S
C1038 C1034 1.524 . S
C1038 H1050 0.956 . S
C1038 H1051 0.961 . S
C1038 H1052 0.961 . S
C1039 C1036 1.539 . S
C1039 H1053 0.958 . S
C1039 H1054 0.961 . S
C1039 H1055 0.960 . S
H1040 C1024 0.931 . S
H1041 C1029 0.929 . S
H1042 C1030 0.960 . S
H1043 C1030 0.962 . S
H1044 C1030 0.960 . S
H1045 C1031 0.961 . S
H1046 C1031 0.961 . S
H1047 C1031 0.961 . S
H1048 C1032 0.931 . S
H1049 C1037 0.930 . S
H1050 C1038 0.956 . S
H1051 C1038 0.961 . S
H1052 C1038 0.961 . S
H1053 C1039 0.958 . S
H1054 C1039 0.961 . S
H1055 C1039 0.960 . S
C1056 C1057 1.391 . S
C1056 C1058 1.394 . S
C1056 H1072 0.931 . S
C1057 C1056 1.391 . S
C1057 C1061 1.376 . S
C1058 C1056 1.394 . S
C1058 C1059 1.369 . S
C1058 C1062 1.531 . S
C1059 C1058 1.369 . S
C1059 C1060 1.410 . S
C1059 C1067 1.503 . S
C1060 C1059 1.410 . S
C1060 C1061 1.392 . S
C1060 C1063 1.511 . S
C1061 C1057 1.376 . S
C1061 C1060 1.392 . S
C1061 H1073 0.929 . S
C1062 C1058 1.531 . S
C1062 H1074 0.960 . S
C1062 H1075 0.962 . S
C1062 H1076 0.960 . S
C1063 C1060 1.511 . S
C1063 H1077 0.961 . S
C1063 H1078 0.961 . S
C1063 H1079 0.961 . S
C1064 C1065 1.370 . S
C1064 C1066 1.363 . S
C1064 H1080 0.931 . S
C1065 C1064 1.370 . S
C1065 C1069 1.408 . S
C1066 C1064 1.363 . S
C1066 C1067 1.370 . S
C1066 C1070 1.524 . S
C1067 C1059 1.503 . S
C1067 C1066 1.370 . S
C1067 C1068 1.403 . S
C1068 C1067 1.403 . S
C1068 C1069 1.404 . S
C1068 C1071 1.539 . S
C1069 C1065 1.408 . S
C1069 C1068 1.404 . S
C1069 H1081 0.930 . S
C1070 C1066 1.524 . S
C1070 H1082 0.956 . S
C1070 H1083 0.961 . S
C1070 H1084 0.961 . S
C1071 C1068 1.539 . S
C1071 H1085 0.958 . S
C1071 H1086 0.961 . S
C1071 H1087 0.960 . S
H1072 C1056 0.931 . S
H1073 C1061 0.929 . S
H1074 C1062 0.960 . S
H1075 C1062 0.962 . S
H1076 C1062 0.960 . S
H1077 C1063 0.961 . S
H1078 C1063 0.961 . S
H1079 C1063 0.961 . S
H1080 C1064 0.931 . S
H1081 C1069 0.930 . S
H1082 C1070 0.956 . S
H1083 C1070 0.961 . S
H1084 C1070 0.961 . S
H1085 C1071 0.958 . S
H1086 C1071 0.961 . S
H1087 C1071 0.960 . S
C1088 C1089 1.391 . S
C1088 C1090 1.394 . S
C1088 H1104 0.931 . S
C1089 C1088 1.391 . S
C1089 C1093 1.376 . S
C1090 C1088 1.394 . S
C1090 C1091 1.369 . S
C1090 C1094 1.531 . S
C1091 C1090 1.369 . S
C1091 C1092 1.410 . S
C1091 C1099 1.503 . S
C1092 C1091 1.410 . S
C1092 C1093 1.392 . S
C1092 C1095 1.511 . S
C1093 C1089 1.376 . S
C1093 C1092 1.392 . S
C1093 H1105 0.929 . S
C1094 C1090 1.531 . S
C1094 H1106 0.960 . S
C1094 H1107 0.962 . S
C1094 H1108 0.960 . S
C1095 C1092 1.511 . S
C1095 H1109 0.961 . S
C1095 H1110 0.961 . S
C1095 H1111 0.961 . S
C1096 C1097 1.370 . S
C1096 C1098 1.363 . S
C1096 H1112 0.931 . S
C1097 C1096 1.370 . S
C1097 C1101 1.408 . S
C1098 C1096 1.363 . S
C1098 C1099 1.370 . S
C1098 C1102 1.524 . S
C1099 C1091 1.503 . S
C1099 C1098 1.370 . S
C1099 C1100 1.403 . S
C1100 C1099 1.403 . S
C1100 C1101 1.404 . S
C1100 C1103 1.539 . S
C1101 C1097 1.408 . S
C1101 C1100 1.404 . S
C1101 H1113 0.930 . S
C1102 C1098 1.524 . S
C1102 H1114 0.956 . S
C1102 H1115 0.961 . S
C1102 H1116 0.961 . S
C1103 C1100 1.539 . S
C1103 H1117 0.958 . S
C1103 H1118 0.961 . S
C1103 H1119 0.960 . S
H1104 C1088 0.931 . S
H1105 C1093 0.929 . S
H1106 C1094 0.960 . S
H1107 C1094 0.962 . S
H1108 C1094 0.960 . S
H1109 C1095 0.961 . S
H1110 C1095 0.961 . S
H1111 C1095 0.961 . S
H1112 C1096 0.931 . S
H1113 C1101 0.930 . S
H1114 C1102 0.956 . S
H1115 C1102 0.961 . S
H1116 C1102 0.961 . S
H1117 C1103 0.958 . S
H1118 C1103 0.961 . S
H1119 C1103 0.960 . S
C1120 C1121 1.391 . S
C1120 C1122 1.394 . S
C1120 H1136 0.931 . S
C1121 C1120 1.391 . S
C1121 C1125 1.376 . S
C1122 C1120 1.394 . S
C1122 C1123 1.369 . S
C1122 C1126 1.531 . S
C1123 C1122 1.369 . S
C1123 C1124 1.410 . S
C1123 C1131 1.503 . S
C1124 C1123 1.410 . S
C1124 C1125 1.392 . S
C1124 C1127 1.511 . S
C1125 C1121 1.376 . S
C1125 C1124 1.392 . S
C1125 H1137 0.929 . S
C1126 C1122 1.531 . S
C1126 H1138 0.960 . S
C1126 H1139 0.962 . S
C1126 H1140 0.960 . S
C1127 C1124 1.511 . S
C1127 H1141 0.961 . S
C1127 H1142 0.961 . S
C1127 H1143 0.961 . S
C1128 C1129 1.370 . S
C1128 C1130 1.363 . S
C1128 H1144 0.931 . S
C1129 C1128 1.370 . S
C1129 C1133 1.408 . S
C1130 C1128 1.363 . S
C1130 C1131 1.370 . S
C1130 C1134 1.524 . S
C1131 C1123 1.503 . S
C1131 C1130 1.370 . S
C1131 C1132 1.403 . S
C1132 C1131 1.403 . S
C1132 C1133 1.404 . S
C1132 C1135 1.539 . S
C1133 C1129 1.408 . S
C1133 C1132 1.404 . S
C1133 H1145 0.930 . S
C1134 C1130 1.524 . S
C1134 H1146 0.956 . S
C1134 H1147 0.961 . S
C1134 H1148 0.961 . S
C1135 C1132 1.539 . S
C1135 H1149 0.958 . S
C1135 H1150 0.961 . S
C1135 H1151 0.960 . S
H1136 C1120 0.931 . S
H1137 C1125 0.929 . S
H1138 C1126 0.960 . S
H1139 C1126 0.962 . S
H1140 C1126 0.960 . S
H1141 C1127 0.961 . S
H1142 C1127 0.961 . S
H1143 C1127 0.961 . S
H1144 C1128 0.931 . S
H1145 C1133 0.930 . S
H1146 C1134 0.956 . S
H1147 C1134 0.961 . S
H1148 C1134 0.961 . S
H1149 C1135 0.958 . S
H1150 C1135 0.961 . S
H1151 C1135 0.960 . S
C1152 C1153 1.391 . S
C1152 C1154 1.394 . S
C1152 H1168 0.931 . S
C1153 C1152 1.391 . S
C1153 C1157 1.376 . S
C1154 C1152 1.394 . S
C1154 C1155 1.369 . S
C1154 C1158 1.531 . S
C1155 C1154 1.369 . S
C1155 C1156 1.410 . S
C1155 C1163 1.503 . S
C1156 C1155 1.410 . S
C1156 C1157 1.392 . S
C1156 C1159 1.511 . S
C1157 C1153 1.376 . S
C1157 C1156 1.392 . S
C1157 H1169 0.929 . S
C1158 C1154 1.531 . S
C1158 H1170 0.960 . S
C1158 H1171 0.962 . S
C1158 H1172 0.960 . S
C1159 C1156 1.511 . S
C1159 H1173 0.961 . S
C1159 H1174 0.961 . S
C1159 H1175 0.961 . S
C1160 C1161 1.370 . S
C1160 C1162 1.363 . S
C1160 H1176 0.931 . S
C1161 C1160 1.370 . S
C1161 C1165 1.408 . S
C1162 C1160 1.363 . S
C1162 C1163 1.370 . S
C1162 C1166 1.524 . S
C1163 C1155 1.503 . S
C1163 C1162 1.370 . S
C1163 C1164 1.403 . S
C1164 C1163 1.403 . S
C1164 C1165 1.404 . S
C1164 C1167 1.539 . S
C1165 C1161 1.408 . S
C1165 C1164 1.404 . S
C1165 H1177 0.930 . S
C1166 C1162 1.524 . S
C1166 H1178 0.956 . S
C1166 H1179 0.961 . S
C1166 H1180 0.961 . S
C1167 C1164 1.539 . S
C1167 H1181 0.958 . S
C1167 H1182 0.961 . S
C1167 H1183 0.960 . S
H1168 C1152 0.931 . S
H1169 C1157 0.929 . S
H1170 C1158 0.960 . S
H1171 C1158 0.962 . S
H1172 C1158 0.960 . S
H1173 C1159 0.961 . S
H1174 C1159 0.961 . S
H1175 C1159 0.961 . S
H1176 C1160 0.931 . S
H1177 C1165 0.930 . S
H1178 C1166 0.956 . S
H1179 C1166 0.961 . S
H1180 C1166 0.961 . S
H1181 C1167 0.958 . S
H1182 C1167 0.961 . S
H1183 C1167 0.960 . S
C1184 C1185 1.391 . S
C1184 C1186 1.394 . S
C1184 H1200 0.931 . S
C1185 C1184 1.391 . S
C1185 C1189 1.376 . S
C1186 C1184 1.394 . S
C1186 C1187 1.369 . S
C1186 C1190 1.531 . S
C1187 C1186 1.369 . S
C1187 C1188 1.410 . S
C1187 C1195 1.503 . S
C1188 C1187 1.410 . S
C1188 C1189 1.392 . S
C1188 C1191 1.511 . S
C1189 C1185 1.376 . S
C1189 C1188 1.392 . S
C1189 H1201 0.929 . S
C1190 C1186 1.531 . S
C1190 H1202 0.960 . S
C1190 H1203 0.962 . S
C1190 H1204 0.960 . S
C1191 C1188 1.511 . S
C1191 H1205 0.961 . S
C1191 H1206 0.961 . S
C1191 H1207 0.961 . S
C1192 C1193 1.370 . S
C1192 C1194 1.363 . S
C1192 H1208 0.931 . S
C1193 C1192 1.370 . S
C1193 C1197 1.408 . S
C1194 C1192 1.363 . S
C1194 C1195 1.370 . S
C1194 C1198 1.524 . S
C1195 C1187 1.503 . S
C1195 C1194 1.370 . S
C1195 C1196 1.403 . S
C1196 C1195 1.403 . S
C1196 C1197 1.404 . S
C1196 C1199 1.539 . S
C1197 C1193 1.408 . S
C1197 C1196 1.404 . S
C1197 H1209 0.930 . S
C1198 C1194 1.524 . S
C1198 H1210 0.956 . S
C1198 H1211 0.961 . S
C1198 H1212 0.961 . S
C1199 C1196 1.539 . S
C1199 H1213 0.958 . S
C1199 H1214 0.961 1_455 S
C1199 H1215 0.960 . S
H1200 C1184 0.931 . S
H1201 C1189 0.929 . S
H1202 C1190 0.960 . S
H1203 C1190 0.962 . S
H1204 C1190 0.960 . S
H1205 C1191 0.961 . S
H1206 C1191 0.961 . S
H1207 C1191 0.961 . S
H1208 C1192 0.931 . S
H1209 C1197 0.930 . S
H1210 C1198 0.956 . S
H1211 C1198 0.961 . S
H1212 C1198 0.961 . S
H1213 C1199 0.958 . S
H1214 C1199 0.961 1_655 S
H1215 C1199 0.960 . S
C1216 C1217 1.391 . S
C1216 C1218 1.394 . S
C1216 H1232 0.931 . S
C1217 C1216 1.391 . S
C1217 C1221 1.376 . S
C1218 C1216 1.394 . S
C1218 C1219 1.369 . S
C1218 C1222 1.531 . S
C1219 C1218 1.369 . S
C1219 C1220 1.410 . S
C1219 C1227 1.503 . S
C1220 C1219 1.410 . S
C1220 C1221 1.392 . S
C1220 C1223 1.511 . S
C1221 C1217 1.376 . S
C1221 C1220 1.392 . S
C1221 H1233 0.929 . S
C1222 C1218 1.531 . S
C1222 H1234 0.960 . S
C1222 H1235 0.962 . S
C1222 H1236 0.960 . S
C1223 C1220 1.511 . S
C1223 H1237 0.961 . S
C1223 H1238 0.961 . S
C1223 H1239 0.961 . S
C1224 C1225 1.370 . S
C1224 C1226 1.363 . S
C1224 H1240 0.931 . S
C1225 C1224 1.370 . S
C1225 C1229 1.408 . S
C1226 C1224 1.363 . S
C1226 C1227 1.370 . S
C1226 C1230 1.524 . S
C1227 C1219 1.503 . S
C1227 C1226 1.370 . S
C1227 C1228 1.403 . S
C1228 C1227 1.403 . S
C1228 C1229 1.404 . S
C1228 C1231 1.539 . S
C1229 C1225 1.408 . S
C1229 C1228 1.404 . S
C1229 H1241 0.930 . S
C1230 C1226 1.524 . S
C1230 H1242 0.956 . S
C1230 H1243 0.961 . S
C1230 H1244 0.961 . S
C1231 C1228 1.539 . S
C1231 H1245 0.958 . S
C1231 H1246 0.961 . S
C1231 H1247 0.960 . S
H1232 C1216 0.931 . S
H1233 C1221 0.929 . S
H1234 C1222 0.960 . S
H1235 C1222 0.962 . S
H1236 C1222 0.960 . S
H1237 C1223 0.961 . S
H1238 C1223 0.961 . S
H1239 C1223 0.961 . S
H1240 C1224 0.931 . S
H1241 C1229 0.930 . S
H1242 C1230 0.956 . S
H1243 C1230 0.961 . S
H1244 C1230 0.961 . S
H1245 C1231 0.958 . S
H1246 C1231 0.961 . S
H1247 C1231 0.960 . S
C481 C21 1.236 . S
C489 C327 1.412 . S
C513 C61 1.055 . S
C521 C376 1.008 . S
C553 C402 2.386 . S
C545 C82 2.410 . S
C577 C135 2.366 . S
C585 C450 2.322 . S
C617 C362 2.679 . S
C609 C15 2.535 . S
C649 C330 0.930 . S
C641 C42 0.936 . S
C681 C451 1.895 . S
C673 C101 1.903 . S
C713 C419 1.534 . S
C705 C122 1.557 . S
C737 C2 1.717 . S
C745 C447 1.876 . S
C777 C379 2.263 . S
C769 C95 2.319 . S
C801 C141 2.362 . S
C809 C331 2.373 . S
C833 C55 0.867 . S
C841 C416 0.857 . S
C873 C336 1.428 . S
C865 C181 1.374 . S
C897 C202 0.976 . S
C905 C367 0.993 . S
C929 C255 2.452 . S
C937 C411 2.419 . S
C961 C295 2.341 . S
C969 C459 2.299 . S
C993 C175 2.539 . S
C1001 C371 2.654 . S
C1033 C339 0.965 . S
C1025 C221 0.911 . S
C1065 C442 1.820 . S
C1057 C242 1.852 . S
C1097 C410 1.607 . S
C1089 C301 1.625 . S
C1121 C162 1.839 . S
C1129 C456 1.856 . S
C1161 C370 2.293 . S
C1153 C261 2.354 . S
C1193 C322 2.347 . S
C1185 C282 2.335 . S
C1217 C215 0.843 . S
C1225 C407 0.904 . S
