# Generated by pormake.
# Topology gar, (4,6)-cn, num edge types: 1
# Building blocks:
#     Node 0, Type 0, BuildingBlock: GALJAG_clean_sbu_0, # of connection points: 4
#     Node 1, Type 0, BuildingBlock: GALJAG_clean_sbu_0, # of connection points: 4
#     Node 2, Type 0, BuildingBlock: GALJAG_clean_sbu_0, # of connection points: 4
#     Node 3, Type 0, BuildingBlock: GALJAG_clean_sbu_0, # of connection points: 4
#     Node 4, Type 0, BuildingBlock: GALJAG_clean_sbu_0, # of connection points: 4
#     Node 5, Type 0, BuildingBlock: GALJAG_clean_sbu_0, # of connection points: 4
#     Node 6, Type 0, BuildingBlock: GALJAG_clean_sbu_0, # of connection points: 4
#     Node 7, Type 0, BuildingBlock: GALJAG_clean_sbu_0, # of connection points: 4
#     Node 8, Type 0, BuildingBlock: GALJAG_clean_sbu_0, # of connection points: 4
#     Node 9, Type 0, BuildingBlock: GALJAG_clean_sbu_0, # of connection points: 4
#     Node 10, Type 0, BuildingBlock: GALJAG_clean_sbu_0, # of connection points: 4
#     Node 11, Type 0, BuildingBlock: GALJAG_clean_sbu_0, # of connection points: 4
#     Node 12, Type 0, BuildingBlock: GALJAG_clean_sbu_0, # of connection points: 4
#     Node 13, Type 0, BuildingBlock: GALJAG_clean_sbu_0, # of connection points: 4
#     Node 14, Type 0, BuildingBlock: GALJAG_clean_sbu_0, # of connection points: 4
#     Node 15, Type 0, BuildingBlock: GALJAG_clean_sbu_0, # of connection points: 4
#     Node 16, Type 0, BuildingBlock: GALJAG_clean_sbu_0, # of connection points: 4
#     Node 17, Type 0, BuildingBlock: GALJAG_clean_sbu_0, # of connection points: 4
#     Node 18, Type 0, BuildingBlock: GALJAG_clean_sbu_0, # of connection points: 4
#     Node 19, Type 0, BuildingBlock: GALJAG_clean_sbu_0, # of connection points: 4
#     Node 20, Type 0, BuildingBlock: GALJAG_clean_sbu_0, # of connection points: 4
#     Node 21, Type 0, BuildingBlock: GALJAG_clean_sbu_0, # of connection points: 4
#     Node 22, Type 0, BuildingBlock: GALJAG_clean_sbu_0, # of connection points: 4
#     Node 23, Type 0, BuildingBlock: GALJAG_clean_sbu_0, # of connection points: 4
#     Node 24, Type 1, BuildingBlock: NUHQIS_clean_sbu_0, # of connection points: 6
#     Node 25, Type 1, BuildingBlock: NUHQIS_clean_sbu_0, # of connection points: 6
#     Node 26, Type 1, BuildingBlock: NUHQIS_clean_sbu_0, # of connection points: 6
#     Node 27, Type 1, BuildingBlock: NUHQIS_clean_sbu_0, # of connection points: 6
#     Node 28, Type 1, BuildingBlock: NUHQIS_clean_sbu_0, # of connection points: 6
#     Node 29, Type 1, BuildingBlock: NUHQIS_clean_sbu_0, # of connection points: 6
#     Node 30, Type 1, BuildingBlock: NUHQIS_clean_sbu_0, # of connection points: 6
#     Node 31, Type 1, BuildingBlock: NUHQIS_clean_sbu_0, # of connection points: 6
#     Node 32, Type 1, BuildingBlock: NUHQIS_clean_sbu_0, # of connection points: 6
#     Node 33, Type 1, BuildingBlock: NUHQIS_clean_sbu_0, # of connection points: 6
#     Node 34, Type 1, BuildingBlock: NUHQIS_clean_sbu_0, # of connection points: 6
#     Node 35, Type 1, BuildingBlock: NUHQIS_clean_sbu_0, # of connection points: 6
#     Node 36, Type 1, BuildingBlock: NUHQIS_clean_sbu_0, # of connection points: 6
#     Node 37, Type 1, BuildingBlock: NUHQIS_clean_sbu_0, # of connection points: 6
#     Node 38, Type 1, BuildingBlock: NUHQIS_clean_sbu_0, # of connection points: 6
#     Node 39, Type 1, BuildingBlock: NUHQIS_clean_sbu_0, # of connection points: 6
#     Edge 40, Type (0, 1), BuildingBlock: OJICUG_clean_linker_0, # of connection points: 2
#     Edge 41, Type (0, 1), BuildingBlock: OJICUG_clean_linker_0, # of connection points: 2
#     Edge 42, Type (0, 1), BuildingBlock: OJICUG_clean_linker_0, # of connection points: 2
#     Edge 43, Type (0, 1), BuildingBlock: OJICUG_clean_linker_0, # of connection points: 2
#     Edge 44, Type (0, 1), BuildingBlock: OJICUG_clean_linker_0, # of connection points: 2
#     Edge 45, Type (0, 1), BuildingBlock: OJICUG_clean_linker_0, # of connection points: 2
#     Edge 46, Type (0, 1), BuildingBlock: OJICUG_clean_linker_0, # of connection points: 2
#     Edge 47, Type (0, 1), BuildingBlock: OJICUG_clean_linker_0, # of connection points: 2
#     Edge 48, Type (0, 1), BuildingBlock: OJICUG_clean_linker_0, # of connection points: 2
#     Edge 49, Type (0, 1), BuildingBlock: OJICUG_clean_linker_0, # of connection points: 2
#     Edge 50, Type (0, 1), BuildingBlock: OJICUG_clean_linker_0, # of connection points: 2
#     Edge 51, Type (0, 1), BuildingBlock: OJICUG_clean_linker_0, # of connection points: 2
#     Edge 52, Type (0, 1), BuildingBlock: OJICUG_clean_linker_0, # of connection points: 2
#     Edge 53, Type (0, 1), BuildingBlock: OJICUG_clean_linker_0, # of connection points: 2
#     Edge 54, Type (0, 1), BuildingBlock: OJICUG_clean_linker_0, # of connection points: 2
#     Edge 55, Type (0, 1), BuildingBlock: OJICUG_clean_linker_0, # of connection points: 2
#     Edge 56, Type (0, 1), BuildingBlock: OJICUG_clean_linker_0, # of connection points: 2
#     Edge 57, Type (0, 1), BuildingBlock: OJICUG_clean_linker_0, # of connection points: 2
#     Edge 58, Type (0, 1), BuildingBlock: OJICUG_clean_linker_0, # of connection points: 2
#     Edge 59, Type (0, 1), BuildingBlock: OJICUG_clean_linker_0, # of connection points: 2
#     Edge 60, Type (0, 1), BuildingBlock: OJICUG_clean_linker_0, # of connection points: 2
#     Edge 61, Type (0, 1), BuildingBlock: OJICUG_clean_linker_0, # of connection points: 2
#     Edge 62, Type (0, 1), BuildingBlock: OJICUG_clean_linker_0, # of connection points: 2
#     Edge 63, Type (0, 1), BuildingBlock: OJICUG_clean_linker_0, # of connection points: 2
#     Edge 64, Type (0, 1), BuildingBlock: OJICUG_clean_linker_0, # of connection points: 2
#     Edge 65, Type (0, 1), BuildingBlock: OJICUG_clean_linker_0, # of connection points: 2
#     Edge 66, Type (0, 1), BuildingBlock: OJICUG_clean_linker_0, # of connection points: 2
#     Edge 67, Type (0, 1), BuildingBlock: OJICUG_clean_linker_0, # of connection points: 2
#     Edge 68, Type (0, 1), BuildingBlock: OJICUG_clean_linker_0, # of connection points: 2
#     Edge 69, Type (0, 1), BuildingBlock: OJICUG_clean_linker_0, # of connection points: 2
#     Edge 70, Type (0, 1), BuildingBlock: OJICUG_clean_linker_0, # of connection points: 2
#     Edge 71, Type (0, 1), BuildingBlock: OJICUG_clean_linker_0, # of connection points: 2
#     Edge 72, Type (0, 1), BuildingBlock: OJICUG_clean_linker_0, # of connection points: 2
#     Edge 73, Type (0, 1), BuildingBlock: OJICUG_clean_linker_0, # of connection points: 2
#     Edge 74, Type (0, 1), BuildingBlock: OJICUG_clean_linker_0, # of connection points: 2
#     Edge 75, Type (0, 1), BuildingBlock: OJICUG_clean_linker_0, # of connection points: 2
#     Edge 76, Type (0, 1), BuildingBlock: OJICUG_clean_linker_0, # of connection points: 2
#     Edge 77, Type (0, 1), BuildingBlock: OJICUG_clean_linker_0, # of connection points: 2
#     Edge 78, Type (0, 1), BuildingBlock: OJICUG_clean_linker_0, # of connection points: 2
#     Edge 79, Type (0, 1), BuildingBlock: OJICUG_clean_linker_0, # of connection points: 2
#     Edge 80, Type (0, 1), BuildingBlock: OJICUG_clean_linker_0, # of connection points: 2
#     Edge 81, Type (0, 1), BuildingBlock: OJICUG_clean_linker_0, # of connection points: 2
#     Edge 82, Type (0, 1), BuildingBlock: OJICUG_clean_linker_0, # of connection points: 2
#     Edge 83, Type (0, 1), BuildingBlock: OJICUG_clean_linker_0, # of connection points: 2
#     Edge 84, Type (0, 1), BuildingBlock: OJICUG_clean_linker_0, # of connection points: 2
#     Edge 85, Type (0, 1), BuildingBlock: OJICUG_clean_linker_0, # of connection points: 2
#     Edge 86, Type (0, 1), BuildingBlock: OJICUG_clean_linker_0, # of connection points: 2
#     Edge 87, Type (0, 1), BuildingBlock: OJICUG_clean_linker_0, # of connection points: 2
#     Edge 88, Type (0, 1), BuildingBlock: OJICUG_clean_linker_0, # of connection points: 2
#     Edge 89, Type (0, 1), BuildingBlock: OJICUG_clean_linker_0, # of connection points: 2
#     Edge 90, Type (0, 1), BuildingBlock: OJICUG_clean_linker_0, # of connection points: 2
#     Edge 91, Type (0, 1), BuildingBlock: OJICUG_clean_linker_0, # of connection points: 2
#     Edge 92, Type (0, 1), BuildingBlock: OJICUG_clean_linker_0, # of connection points: 2
#     Edge 93, Type (0, 1), BuildingBlock: OJICUG_clean_linker_0, # of connection points: 2
#     Edge 94, Type (0, 1), BuildingBlock: OJICUG_clean_linker_0, # of connection points: 2
#     Edge 95, Type (0, 1), BuildingBlock: OJICUG_clean_linker_0, # of connection points: 2
#     Edge 96, Type (0, 1), BuildingBlock: OJICUG_clean_linker_0, # of connection points: 2
#     Edge 97, Type (0, 1), BuildingBlock: OJICUG_clean_linker_0, # of connection points: 2
#     Edge 98, Type (0, 1), BuildingBlock: OJICUG_clean_linker_0, # of connection points: 2
#     Edge 99, Type (0, 1), BuildingBlock: OJICUG_clean_linker_0, # of connection points: 2
#     Edge 100, Type (0, 1), BuildingBlock: OJICUG_clean_linker_0, # of connection points: 2
#     Edge 101, Type (0, 1), BuildingBlock: OJICUG_clean_linker_0, # of connection points: 2
#     Edge 102, Type (0, 1), BuildingBlock: OJICUG_clean_linker_0, # of connection points: 2
#     Edge 103, Type (0, 1), BuildingBlock: OJICUG_clean_linker_0, # of connection points: 2
#     Edge 104, Type (0, 1), BuildingBlock: OJICUG_clean_linker_0, # of connection points: 2
#     Edge 105, Type (0, 1), BuildingBlock: OJICUG_clean_linker_0, # of connection points: 2
#     Edge 106, Type (0, 1), BuildingBlock: OJICUG_clean_linker_0, # of connection points: 2
#     Edge 107, Type (0, 1), BuildingBlock: OJICUG_clean_linker_0, # of connection points: 2
#     Edge 108, Type (0, 1), BuildingBlock: OJICUG_clean_linker_0, # of connection points: 2
#     Edge 109, Type (0, 1), BuildingBlock: OJICUG_clean_linker_0, # of connection points: 2
#     Edge 110, Type (0, 1), BuildingBlock: OJICUG_clean_linker_0, # of connection points: 2
#     Edge 111, Type (0, 1), BuildingBlock: OJICUG_clean_linker_0, # of connection points: 2
#     Edge 112, Type (0, 1), BuildingBlock: OJICUG_clean_linker_0, # of connection points: 2
#     Edge 113, Type (0, 1), BuildingBlock: OJICUG_clean_linker_0, # of connection points: 2
#     Edge 114, Type (0, 1), BuildingBlock: OJICUG_clean_linker_0, # of connection points: 2
#     Edge 115, Type (0, 1), BuildingBlock: OJICUG_clean_linker_0, # of connection points: 2
#     Edge 116, Type (0, 1), BuildingBlock: OJICUG_clean_linker_0, # of connection points: 2
#     Edge 117, Type (0, 1), BuildingBlock: OJICUG_clean_linker_0, # of connection points: 2
#     Edge 118, Type (0, 1), BuildingBlock: OJICUG_clean_linker_0, # of connection points: 2
#     Edge 119, Type (0, 1), BuildingBlock: OJICUG_clean_linker_0, # of connection points: 2
#     Edge 120, Type (0, 1), BuildingBlock: OJICUG_clean_linker_0, # of connection points: 2
#     Edge 121, Type (0, 1), BuildingBlock: OJICUG_clean_linker_0, # of connection points: 2
#     Edge 122, Type (0, 1), BuildingBlock: OJICUG_clean_linker_0, # of connection points: 2
#     Edge 123, Type (0, 1), BuildingBlock: OJICUG_clean_linker_0, # of connection points: 2
#     Edge 124, Type (0, 1), BuildingBlock: OJICUG_clean_linker_0, # of connection points: 2
#     Edge 125, Type (0, 1), BuildingBlock: OJICUG_clean_linker_0, # of connection points: 2
#     Edge 126, Type (0, 1), BuildingBlock: OJICUG_clean_linker_0, # of connection points: 2
#     Edge 127, Type (0, 1), BuildingBlock: OJICUG_clean_linker_0, # of connection points: 2
#     Edge 128, Type (0, 1), BuildingBlock: OJICUG_clean_linker_0, # of connection points: 2
#     Edge 129, Type (0, 1), BuildingBlock: OJICUG_clean_linker_0, # of connection points: 2
#     Edge 130, Type (0, 1), BuildingBlock: OJICUG_clean_linker_0, # of connection points: 2
#     Edge 131, Type (0, 1), BuildingBlock: OJICUG_clean_linker_0, # of connection points: 2
#     Edge 132, Type (0, 1), BuildingBlock: OJICUG_clean_linker_0, # of connection points: 2
#     Edge 133, Type (0, 1), BuildingBlock: OJICUG_clean_linker_0, # of connection points: 2
#     Edge 134, Type (0, 1), BuildingBlock: OJICUG_clean_linker_0, # of connection points: 2
#     Edge 135, Type (0, 1), BuildingBlock: OJICUG_clean_linker_0, # of connection points: 2
# Relax obj value: 0.312
# Max RMSD: 0.361
# Mean RMSD: 0.168
data_MOF--net-gar--node1-GALJAG_clean_sbu_0--node2-NUHQIS_clean_sbu_0--edge1-OJICUG_clean_linker_0
_symmetry_space_group_name_H-M    P1
_symmetry_Int_Tables_number       1
_symmetry_cell_setting            triclinic
loop_
_symmetry_equiv_pos_as_xyz
'x, y, z'
_cell_length_a     42.321396
_cell_length_b     45.064198
_cell_length_c     41.909856
_cell_angle_alpha  92.733409
_cell_angle_beta   96.591924
_cell_angle_gamma 100.08941
loop_
_atom_site_label
_atom_site_type_symbol
_atom_site_fract_x
_atom_site_fract_y
_atom_site_fract_z
_atom_type_partial_charge
In0 In 0.10769 0.3237 0.43624 0.0
O1 O 0.13583 0.317 0.3887 0.0
O2 O 0.16594 0.33596 0.42938 0.0
C3 C 1.04338 0.32072 0.40181 0.0
C4 C 0.10376 0.26391 0.46845 0.0
C5 C 0.10939 0.38652 0.46636 0.0
O6 O 0.06727 0.31418 0.38903 0.0
O7 O 0.05134 0.32769 0.4316 0.0
O8 O 0.11505 0.36375 0.48173 0.0
O9 O 0.10439 0.37815 0.43653 0.0
C10 C 0.1651 0.32689 0.40002 0.0
O11 O 0.11219 0.29024 0.48286 0.0
O12 O 0.09699 0.26763 0.4388 0.0
In13 In 0.08687 0.83003 0.67002 0.0
O14 O 0.08466 0.86457 0.6245 0.0
O15 O 0.09572 0.88602 0.66976 0.0
C16 C 0.08616 0.76769 0.63844 0.0
C17 C 0.15051 0.83542 0.70573 0.0
C18 C 1.02922 0.82758 0.70543 0.0
O19 O 0.07818 0.79012 0.62389 0.0
O20 O 0.09371 0.77635 0.668 0.0
O21 O 0.05844 0.83702 0.7172 0.0
O22 O 1.02855 0.81903 0.67595 0.0
C23 C 0.09144 0.8905 0.64001 0.0
O24 O 0.12422 0.82592 0.7168 0.0
O25 O 0.14503 0.84291 0.67713 0.0
In26 In 0.60854 0.82553 0.93655 0.0
O27 O 0.63739 0.81662 0.89018 0.0
O28 O 0.66667 0.83876 0.93001 0.0
C29 C 0.54501 0.82194 0.90073 0.0
C30 C 0.60455 0.76504 0.96693 0.0
C31 C 0.6089 0.88771 0.96792 0.0
O32 O 0.57152 0.83107 0.8899 0.0
O33 O 0.55017 0.81346 0.92896 0.0
O34 O 0.60098 0.87882 0.93847 0.0
O35 O 0.61758 0.86559 0.98256 0.0
C36 C 0.66634 0.82815 0.90127 0.0
O37 O 0.61003 0.79103 0.98229 0.0
O38 O 0.60109 0.76943 0.93711 0.0
In39 In 0.58659 0.33142 0.16984 0.0
O40 O 0.57949 0.29162 0.12416 0.0
O41 O 0.58983 0.27689 0.16926 0.0
C42 C 0.59134 0.39165 0.13906 0.0
C43 C 0.52886 0.3277 0.20522 0.0
C44 C 0.65072 0.33583 0.20441 0.0
O45 O 0.58286 0.36562 0.12399 0.0
O46 O 0.59765 0.38738 0.16861 0.0
O47 O 0.62676 0.34259 0.21686 0.0
O48 O 0.64283 0.32759 0.17487 0.0
C49 C 0.58492 0.2687 0.13938 0.0
O50 O 0.55817 0.3349 0.21764 0.0
O51 O 0.52816 0.32153 0.17519 0.0
In52 In 0.18029 0.91429 0.18447 0.0
O53 O 0.1734 0.87765 0.14387 0.0
O54 O 0.20864 0.87595 0.18381 0.0
C55 C 0.15454 0.94778 0.1403 0.0
C56 C 0.13612 0.89035 0.22156 0.0
C57 C 0.23153 0.94065 0.22671 0.0
O58 O 0.18426 0.94636 0.1434 0.0
O59 O 0.13879 0.93375 0.16027 0.0
O60 O 0.20275 0.93813 0.23271 0.0
O61 O 0.23418 0.93349 0.19775 0.0
C62 C 0.1942 0.86377 0.15719 0.0
O63 O 0.14738 0.91831 0.22301 0.0
O64 O 0.14685 0.87457 0.20113 0.0
In65 In 0.51029 0.74823 0.38813 0.0
O66 O 0.54305 0.74215 0.34963 0.0
O67 O 0.54617 0.78605 0.37247 0.0
C68 C 0.45404 0.72547 0.35074 0.0
C69 C 0.53221 0.70966 0.42876 0.0
C70 C 0.50408 0.80013 0.41951 0.0
O71 O 0.4804 0.73315 0.33953 0.0
O72 O 0.45667 0.72697 0.38107 0.0
O73 O 0.52357 0.78372 0.43029 0.0
O74 O 0.48704 0.78987 0.39334 0.0
C75 C 0.55633 0.76973 0.35213 0.0
O76 O 0.50548 0.71808 0.43002 0.0
O77 O 0.54721 0.71961 0.40615 0.0
In78 In 0.68287 0.41914 0.69501 0.0
O79 O 0.71027 0.38178 0.68238 0.0
O80 O 0.6627 0.37973 0.65855 0.0
C81 C 0.65344 0.45369 0.65455 0.0
C82 C 0.64412 0.39445 0.73695 0.0
C83 C 0.73881 0.44362 0.73215 0.0
O84 O 0.67889 0.44465 0.64872 0.0
O85 O 0.6447 0.44722 0.68139 0.0
O86 O 0.71153 0.4408 0.74194 0.0
O87 O 0.73752 0.43751 0.70226 0.0
C88 C 0.68733 0.36742 0.66256 0.0
O89 O 0.65144 0.42265 0.73517 0.0
O90 O 0.65645 0.37884 0.71778 0.0
In91 In 1.01482 0.24597 0.90086 0.0
O92 O 1.02009 0.2315 0.95229 0.0
O93 O 1.04228 0.20933 0.91756 0.0
C94 C 1.00703 0.30299 0.91434 0.0
C95 C 0.06755 0.26044 0.87159 0.0
C96 C 0.95742 0.22174 0.86652 0.0
O97 O 1.00825 0.28422 0.93562 0.0
O98 O 1.00905 0.29278 0.88629 0.0
O99 O 0.98401 0.22313 0.85552 0.0
O100 O 0.9601 0.22938 0.89618 0.0
C101 C 1.03845 0.21322 0.94671 0.0
O102 O 1.04346 0.24114 0.85903 0.0
O103 O 0.06502 0.27208 0.89898 0.0
In104 In 0.56538 0.15853 0.32986 0.0
O105 O 0.60989 0.14084 0.3206 0.0
O106 O 0.60497 0.18355 0.30273 0.0
C107 C 0.58442 0.17588 0.39266 0.0
C108 C 0.5216 0.18099 0.2903 0.0
C109 C 0.53826 0.09993 0.33186 0.0
O110 O 0.60329 0.17915 0.37151 0.0
O111 O 0.5551 0.16708 0.38163 0.0
O112 O 0.52951 0.12096 0.34761 0.0
O113 O 0.56065 0.10843 0.3151 0.0
C114 C 0.62189 0.16304 0.30589 0.0
O115 O 0.52953 0.15579 0.28489 0.0
O116 O 0.5369 0.19601 0.31533 0.0
In117 In 0.37051 0.20508 0.54918 0.0
O118 O 0.36549 0.24833 0.5839 0.0
O119 O 0.38065 0.21282 0.60757 0.0
C120 C 0.36891 0.23672 0.48874 0.0
C121 C 0.4272 0.17401 0.55127 0.0
C122 C 0.30591 0.17033 0.55114 0.0
O123 O 0.38539 0.2474 0.51532 0.0
O124 O 0.35352 0.21063 0.4924 0.0
O125 O 0.32859 0.15976 0.53993 0.0
O126 O 0.31556 0.19767 0.56109 0.0
C127 C 0.373 0.23867 0.61122 0.0
O128 O 0.39802 0.16179 0.54177 0.0
O129 O 0.4281 0.20155 0.56002 0.0
In130 In 0.28077 0.10298 0.88586 0.0
O131 O 0.22714 0.08899 0.86969 0.0
O132 O 0.25866 0.07941 0.83638 0.0
C133 C 0.25299 0.1051 0.93983 0.0
C134 C 0.33177 0.07425 0.89191 0.0
C135 C 0.29922 0.1588 0.86771 0.0
O136 O 0.25683 0.12688 0.92207 0.0
O137 O 0.26598 0.08312 0.932 0.0
O138 O 0.30623 0.15179 0.89619 0.0
O139 O 0.28386 0.13742 0.84836 0.0
C140 C 0.22983 0.07863 0.84199 0.0
O141 O 0.33493 0.10219 0.88861 0.0
O142 O 0.30303 0.06095 0.89232 0.0
In143 In 0.36426 0.92527 0.06534 0.0
O144 O 0.33486 0.89416 0.09789 0.0
O145 O 0.38582 0.90184 0.10844 0.0
C146 C 0.35312 0.90159 1.00185 0.0
C147 C 0.3255 0.9637 0.08273 0.0
C148 C 0.42311 0.96132 0.06892 0.0
O149 O 0.35463 0.88515 0.02539 0.0
O150 O 0.35672 0.92923 1.01033 0.0
O151 O 0.39666 0.97041 0.06331 0.0
O152 O 0.42031 0.93321 0.07207 0.0
C153 C 0.35895 0.89014 0.11684 0.0
O154 O 0.35462 0.96584 0.09441 0.0
O155 O 0.31529 0.9417 0.06206 0.0
In156 In 0.3282 0.45136 0.05333 0.0
O157 O 0.31837 0.40699 0.08571 0.0
O158 O 0.33998 0.44687 0.11144 0.0
C159 C 0.32938 0.42069 0.99016 0.0
C160 C 0.27146 0.48282 0.04944 0.0
C161 C 0.3933 0.48533 0.05483 0.0
O162 O 0.31431 0.40879 1.01231 0.0
O163 O 0.34257 0.44764 0.99923 0.0
O164 O 0.36867 0.49724 0.05816 0.0
O165 O 0.38547 0.4568 0.05177 0.0
C166 C 0.32947 0.41906 0.11366 0.0
O167 O 0.29988 0.49386 0.06258 0.0
O168 O 0.27134 0.45633 0.03766 0.0
In169 In 0.82702 0.23719 0.04362 0.0
O170 O 0.83855 0.19551 1.01788 0.0
O171 O 0.87833 0.22698 0.04193 0.0
C172 C 0.76941 0.1994 0.04172 0.0
C173 C 0.83965 0.26218 0.10642 0.0
C174 C 0.82736 0.27158 0.99139 0.0
O175 O 0.79634 0.19134 0.04828 0.0
O176 O 0.77123 0.22715 0.03709 0.0
O177 O 0.85261 0.26996 1.00994 0.0
O178 O 0.80176 0.25749 1.00027 0.0
C179 C 0.86876 0.20231 0.02512 0.0
O180 O 0.83212 0.27705 0.08281 0.0
O181 O 0.84103 0.23524 0.09838 0.0
In182 In 0.11451 0.5088 0.27205 0.0
O183 O 0.15819 0.48831 0.26347 0.0
O184 O 0.15632 0.5063 0.31102 0.0
C185 C 0.13309 0.56964 0.27469 0.0
C186 C 0.08813 0.49211 0.21105 0.0
C187 C 0.06563 0.48315 0.30331 0.0
O188 O 0.12577 0.55589 0.29906 0.0
O189 O 0.1309 0.55283 0.24943 0.0
O190 O 0.09081 0.47182 0.30254 0.0
O191 O 0.0658 0.50708 0.28906 0.0
C192 C 0.1722 0.4943 0.29191 0.0
O193 O 0.07569 0.50753 0.23035 0.0
O194 O 0.11356 0.48358 0.22307 0.0
In195 In 0.83074 0.95283 0.55768 0.0
O196 O 0.81685 0.90957 0.59063 0.0
O197 O 0.84443 0.94779 0.61534 0.0
C198 C 0.83064 0.91907 0.49606 0.0
C199 C 0.77402 0.98398 0.5536 0.0
C200 C 0.89509 0.98848 0.55675 0.0
O201 O 0.843 0.91252 0.52327 0.0
O202 O 0.8168 0.94164 0.49965 0.0
O203 O 0.87283 0.99781 0.57004 0.0
O204 O 0.88506 0.96206 0.54413 0.0
C205 C 0.83075 0.92088 0.61808 0.0
O206 O 0.80342 0.99667 0.56098 0.0
O207 O 0.77287 0.95584 0.54777 0.0
In208 In 0.97147 0.05394 0.24873 0.0
O209 O 0.96513 0.05205 0.1942 0.0
O210 O 0.99087 0.09242 0.22025 0.0
C211 C 1.03324 0.0555 0.27356 0.0
C212 C 0.93062 0.08398 0.27455 0.0
C213 C 0.94106 0.99788 0.25503 0.0
O214 O 1.01591 0.03216 0.25893 0.0
O215 O 1.01907 0.07765 0.27665 0.0
O216 O 0.94428 1.01891 0.27674 0.0
O217 O 0.95355 1.00489 0.22981 0.0
C218 C 0.98144 0.07825 0.19328 0.0
O219 O 0.92556 0.07329 0.24563 0.0
O220 O 0.95657 0.07977 0.29031 0.0
In221 In 0.32773 0.73414 0.54746 0.0
O222 O 0.33392 0.69 0.52278 0.0
O223 O 0.37704 0.71949 0.5427 0.0
C224 C 0.26921 0.69837 0.54742 0.0
C225 C 0.34037 0.76009 0.6101 0.0
C226 C 0.32881 0.76837 0.4949 0.0
O227 O 0.29564 0.69057 0.55715 0.0
O228 O 0.27191 0.72519 0.53901 0.0
O229 O 0.3538 0.76837 0.51461 0.0
O230 O 0.30355 0.75266 0.50272 0.0
C231 C 0.36428 0.6944 0.52779 0.0
O232 O 0.3302 0.77368 0.58644 0.0
O233 O 0.3451 0.73412 0.60215 0.0
In234 In 0.46769 0.55811 0.74118 0.0
O235 O 0.42331 0.57974 0.73873 0.0
O236 O 0.45299 0.58242 0.78397 0.0
C237 C 0.4361 0.5014 0.74383 0.0
C238 C 0.47993 0.58591 0.68782 0.0
C239 C 0.52789 0.55732 0.76891 0.0
O240 O 0.43496 0.52264 0.76408 0.0
O241 O 0.4533 0.50856 0.72165 0.0
O242 O 0.51103 0.53494 0.7521 0.0
O243 O 0.51399 0.57956 0.77263 0.0
C244 C 0.42799 0.58868 0.76821 0.0
O245 O 0.49293 0.59631 0.71549 0.0
O246 O 0.45975 0.56152 0.68696 0.0
In247 In 0.61911 0.99791 0.77309 0.0
O248 O 0.66151 0.99863 0.81163 0.0
O249 O 0.65351 0.96416 0.7735 0.0
C250 C 0.64096 0.05833 0.77504 0.0
C251 C 0.59633 0.98364 0.71068 0.0
C252 C 0.5674 0.97928 0.80364 0.0
O253 O 0.63026 0.04552 0.7987 0.0
O254 O 0.64064 0.04079 0.7507 0.0
O255 O 0.5705 1.00219 0.78744 0.0
O256 O 0.59083 0.96525 0.80486 0.0
C257 C 0.67106 0.97649 0.79877 0.0
O258 O 0.57873 0.98912 0.73168 0.0
O259 O 0.62525 0.98295 0.72167 0.0
In260 In 0.86864 0.70412 0.05182 0.0
O261 O 0.89621 0.66105 0.04337 0.0
O262 O 0.92624 0.70059 0.06242 0.0
C263 C 0.80368 0.66984 0.05275 0.0
C264 C 0.8709 0.7364 0.11479 0.0
C265 C 0.86752 0.73582 0.9914 0.0
O266 O 0.82693 0.65867 0.04355 0.0
O267 O 0.81294 0.69757 0.06118 0.0
O268 O 0.88357 0.74662 1.01816 0.0
O269 O 0.85226 0.70964 0.99492 0.0
C270 C 0.92538 0.67321 0.053 0.0
O271 O 0.86431 0.74697 0.08775 0.0
O272 O 0.8778 0.71032 0.11042 0.0
In273 In 0.05967 0.653 0.82957 0.0
O274 O 1.02225 0.6495 0.78561 0.0
O275 O 1.03102 0.69036 0.81507 0.0
C276 C 1.03458 0.59395 0.83244 0.0
C277 C 0.11646 0.65752 0.80601 0.0
C278 C 0.07897 0.67253 0.8917 0.0
O279 O 1.02785 0.61439 0.85074 0.0
O280 O 0.05373 0.60333 0.81267 0.0
O281 O 0.09741 0.67603 0.87017 0.0
O282 O 0.04976 0.6621 0.88131 0.0
C283 C 1.01497 0.67503 0.79061 0.0
O284 O 0.09889 0.67737 0.80161 0.0
O285 O 0.10499 0.63589 0.82175 0.0
In286 In 0.86227 0.42268 0.56126 0.0
O287 O 0.88482 0.40431 0.60685 0.0
O288 O 0.83523 0.38736 0.59195 0.0
C289 C 0.85154 0.39841 0.49844 0.0
C290 C 0.82091 0.45899 0.57726 0.0
C291 C 0.92075 0.4593 0.56355 0.0
O292 O 0.85847 0.38317 0.52195 0.0
O293 O 0.84977 0.42521 0.50667 0.0
O294 O 0.89414 0.46816 0.55811 0.0
O295 O 0.91822 0.43127 0.56695 0.0
C296 C 0.85926 0.38781 0.61296 0.0
O297 O 0.85063 0.46401 0.58748 0.0
O298 O 0.8115 0.4351 0.55912 0.0
In299 In 0.76342 0.60673 0.3853 0.0
O300 O 0.79226 0.58678 0.35074 0.0
O301 O 0.81042 0.58921 0.40042 0.0
C302 C 0.78146 0.66699 0.3886 0.0
C303 C 0.71623 0.59487 0.33569 0.0
C304 C 0.73067 0.58991 0.4342 0.0
O305 O 0.80049 0.65011 0.39954 0.0
O306 O 0.75332 0.65348 0.37817 0.0
O307 O 0.73932 0.61715 0.42858 0.0
O308 O 0.74141 0.57107 0.41714 0.0
C309 C 0.81423 0.58207 0.37178 0.0
O310 O 0.71684 0.57795 0.3588 0.0
O311 O 0.74047 0.61572 0.33668 0.0
Tb312 Tb 0.07436 0.07758 1.024 0.0
Eu313 Eu 0.13395 0.10449 0.08113 0.0
C314 C 0.14651 0.08458 1.01341 0.0
C315 C 0.10553 0.03369 0.06615 0.0
C316 C 0.99972 0.08522 0.97872 0.0
C317 C 0.98258 0.13397 0.97438 0.0
C318 C 1.00506 0.11532 0.9699 0.0
C319 C 0.97031 0.07373 0.99005 0.0
C320 C 0.94778 0.09243 0.99449 0.0
C321 C 0.95418 0.12302 0.98768 0.0
C322 C 1.02657 0.06782 0.98125 0.0
O323 O 0.05444 0.07569 0.0695 0.0
O324 O 0.08946 0.11351 0.10124 0.0
O325 O 0.12525 0.14217 0.04919 0.0
O326 O 0.07153 0.1233 0.03911 0.0
C327 C 0.06119 0.09542 0.09462 0.0
O328 O 0.15785 0.10798 0.13061 0.0
O329 O 0.1842 0.12749 0.09297 0.0
O330 O 0.15209 0.07819 0.04319 0.0
O331 O 0.11871 0.09173 1.00262 0.0
O332 O 0.09439 0.03767 0.03634 0.0
O333 O 0.1143 0.0561 0.08831 0.0
C334 C 0.09566 0.14563 0.0393 0.0
O335 O 0.05485 0.08269 0.97666 0.0
O336 O 1.02878 0.05161 1.00617 0.0
C337 C 0.20958 0.09581 0.12613 0.0
C338 C 0.24963 0.0526 0.11815 0.0
C339 C 0.21797 0.04365 0.12547 0.0
C340 C 0.19814 0.06493 0.1293 0.0
C341 C 0.24192 0.10502 0.12089 0.0
C342 C 0.26183 0.08362 0.11704 0.0
C343 C 0.18632 0.11673 0.12138 0.0
H344 H 0.98781 0.15722 0.96817 0.0
H345 H 1.02733 0.12506 0.96095 0.0
H346 H 0.96549 0.05072 0.99714 0.0
H347 H 0.92612 0.08331 1.00483 0.0
H348 H 0.20823 1.02001 0.12727 0.0
H349 H 0.17326 0.05686 0.13298 0.0
H350 H 0.2512 0.12856 0.11783 0.0
H351 H 0.28616 0.09119 0.1114 0.0
Tb352 Tb 0.37337 0.85354 0.31936 0.0
Eu353 Eu 0.29906 0.81629 0.2953 0.0
C354 C 0.31532 0.88727 0.30703 0.0
C355 C 0.33136 0.81674 0.36827 0.0
C356 C 0.44498 0.91527 0.33507 0.0
C357 C 0.44349 0.96699 0.32232 0.0
C358 C 0.42766 0.93729 0.3237 0.0
C359 C 0.4785 0.92297 0.34374 0.0
C360 C 0.49445 0.95267 0.34203 0.0
C361 C 0.47694 0.97505 0.33194 0.0
C362 C 0.42786 0.88502 0.34032 0.0
O363 O 0.37788 0.80654 0.31958 0.0
O364 O 0.33086 0.78182 0.28873 0.0
O365 O 0.31559 0.84056 0.25258 0.0
O366 O 0.37078 0.84945 0.26653 0.0
C367 C 0.36013 0.7825 0.30338 0.0
O368 O 0.26241 0.7927 0.25759 0.0
O369 O 0.24912 0.80222 0.30492 0.0
O370 O 0.29694 0.8631 0.31543 0.0
O371 O 0.3452 0.88668 0.30232 0.0
O372 O 0.35148 0.84145 0.36329 0.0
O373 O 0.31213 0.80069 0.34444 0.0
C374 C 0.3451 0.84799 0.24496 0.0
O375 O 0.40184 0.88458 0.3543 0.0
O376 O 0.42337 0.86473 0.3162 0.0
C377 C 0.22215 0.75632 0.27613 0.0
C378 C 0.18853 0.69627 0.27581 0.0
C379 C 0.18394 0.71857 0.29858 0.0
C380 C 0.2005 0.74831 0.29865 0.0
C381 C 0.22636 0.73411 0.25308 0.0
C382 C 0.20984 0.70446 0.253 0.0
C383 C 0.24008 0.78769 0.27672 0.0
H384 H 0.42954 0.98374 0.31401 0.0
H385 H 0.40175 0.93172 0.31674 0.0
H386 H 0.49216 0.90622 0.35268 0.0
H387 H 0.52024 0.95838 0.3497 0.0
H388 H 0.16737 0.71309 0.31618 0.0
H389 H 0.19645 0.76504 0.31643 0.0
H390 H 0.24263 0.73948 0.23518 0.0
H391 H 0.21428 0.6878 0.23537 0.0
Tb392 Tb 0.58282 0.05742 0.5235 0.0
Eu393 Eu 0.62117 0.10451 0.58036 0.0
C394 C 0.58567 0.03872 0.59504 0.0
C395 C 0.54584 0.11117 0.55382 0.0
C396 C 0.54069 0.9893 0.47235 0.0
C397 C 0.53378 0.93866 0.49089 0.0
C398 C 0.54266 0.96986 0.49738 0.0
C399 C 0.52999 0.97729 0.44078 0.0
C400 C 0.52138 0.94607 0.43423 0.0
C401 C 0.52311 0.92639 0.45921 0.0
C402 C 0.54878 1.02211 0.4791 0.0
O403 O 0.60979 0.09379 0.49987 0.0
O404 O 0.61302 0.13198 0.53818 0.0
O405 O 0.65877 0.07451 0.56732 0.0
O406 O 0.62804 0.03705 0.53245 0.0
C407 C 0.613 0.12254 0.50839 0.0
O408 O 0.66754 0.13314 0.5968 0.0
O409 O 0.62932 0.12933 0.62755 0.0
O410 O 0.59587 0.06683 0.60601 0.0
O411 O 0.58281 1.02991 0.56452 0.0
O412 O 0.54586 0.08692 0.53402 0.0
O413 O 0.57245 0.12206 0.5739 0.0
C414 C 0.65633 0.04849 0.54992 0.0
O415 O 0.53771 0.03242 0.50432 0.0
O416 O 0.57871 0.0347 0.47769 0.0
C417 C 0.6632 0.17654 0.62701 0.0
C418 C 0.67558 0.24001 0.63308 0.0
C419 C 0.68851 0.22338 0.65736 0.0
C420 C 0.68234 0.19182 0.65432 0.0
C421 C 0.65036 0.19294 0.60272 0.0
C422 C 0.65662 0.22438 0.60563 0.0
C423 C 0.65786 0.1436 0.62284 0.0
H424 H 0.53511 0.9242 0.51072 0.0
H425 H 0.55082 0.9788 0.52197 0.0
H426 H 0.52836 0.99203 0.4212 0.0
H427 H 0.51396 0.93733 0.40952 0.0
H428 H 0.70296 0.23471 0.67891 0.0
H429 H 0.69253 0.17939 0.6732 0.0
H430 H 0.63571 0.18139 0.58133 0.0
H431 H 0.64671 0.23643 0.58626 0.0
Tb432 Tb 0.32132 0.33354 0.7873 0.0
Eu433 Eu 0.39206 0.32858 0.81633 0.0
C434 C 0.37991 0.38268 0.77463 0.0
C435 C 0.36426 0.30277 0.74081 0.0
C436 C 0.23427 0.32299 0.78003 0.0
C437 C 0.17603 0.31288 0.77828 0.0
C438 C 0.20364 0.32465 0.76441 0.0
C439 C 0.23723 0.30905 0.80914 0.0
C440 C 0.20982 0.29748 0.82301 0.0
C441 C 0.17904 0.29959 0.8079 0.0
C442 C 0.2635 0.33532 0.76635 0.0
O443 O 0.31858 0.28737 0.8011 0.0
O444 O 0.35943 0.29645 0.84217 0.0
O445 O 0.37546 0.36098 0.85323 0.0
O446 O 0.3213 0.34464 0.84061 0.0
C447 C 0.33351 0.27918 0.82735 0.0
O448 O 0.42861 0.30117 0.82927 0.0
O449 O 0.43871 0.3494 0.84234 0.0
O450 O 0.39925 0.36336 0.78011 0.0
O451 O 0.35027 0.37734 0.78193 0.0
O452 O 0.3426 0.32063 0.74308 0.0
O453 O 0.38312 0.29909 0.76748 0.0
C454 C 0.34586 0.35968 0.8612 0.0
O455 O 0.28272 0.35729 0.78392 0.0
O456 O 0.27921 0.3151 0.75633 0.0
C457 C 0.48215 0.32747 0.8301 0.0
C458 C 0.54179 0.34266 0.80652 0.0
C459 C 0.53905 0.34996 0.83889 0.0
C460 C 0.50938 0.34229 0.85063 0.0
C461 C 0.48513 0.31897 0.79811 0.0
C462 C 0.51485 0.32634 0.78646 0.0
C463 C 0.45035 0.32448 0.84125 0.0
H464 H 0.15246 0.31483 0.76635 0.0
H465 H 0.20114 0.33521 0.7418 0.0
H466 H 0.2608 0.3073 0.82123 0.0
H467 H 0.21267 0.28696 0.84563 0.0
H468 H 0.55956 0.36247 0.85477 0.0
H469 H 0.50734 0.34915 0.87534 0.0
H470 H 0.46423 0.30788 0.78177 0.0
H471 H 0.51629 0.32085 0.76128 0.0
Tb472 Tb 0.10162 0.06333 0.52412 0.0
Eu473 Eu 0.10078 0.09411 0.59113 0.0
C474 C 0.16878 0.10501 0.55749 0.0
C475 C 0.10204 1.01843 0.58439 0.0
C476 C 0.11819 0.04882 0.43998 0.0
C477 C 0.13584 0.03293 0.39001 0.0
C478 C 0.13084 1.02788 0.42181 0.0
C479 C 0.11516 0.07674 0.42787 0.0
C480 C 0.11944 0.08153 0.39598 0.0
C481 C 0.12686 0.05841 0.37578 0.0
C482 C 0.1043 0.0397 0.46921 0.0
O483 O 0.05044 0.04583 0.53278 0.0
O484 O 1.04629 0.0756 0.57702 0.0
O485 O 0.09602 0.13553 0.55988 0.0
O486 O 0.09936 0.11233 0.51109 0.0
C487 C 1.03268 0.05423 0.55451 0.0
O488 O 0.07667 0.10845 0.63135 0.0
O489 O 0.12879 0.1153 0.63546 0.0
O490 O 0.15192 0.11431 0.57931 0.0
O491 O 0.15448 0.08236 0.53663 0.0
O492 O 0.10004 1.02153 0.5528 0.0
O493 O 0.10542 0.04382 0.60328 0.0
C494 C 0.09784 0.13783 0.52851 0.0
O495 O 0.12475 0.03749 0.4943 0.0
O496 O 0.0805 0.05265 0.47652 0.0
C497 C 0.10597 0.103 0.68176 0.0
C498 C 0.13098 0.08141 0.73919 0.0
C499 C 0.12592 0.11141 0.73852 0.0
C500 C 0.11373 0.12221 0.70984 0.0
C501 C 0.10766 0.07225 0.68327 0.0
C502 C 0.12041 0.06155 0.71176 0.0
C503 C 0.10371 0.11616 0.65049 0.0
H504 H 0.14324 1.01532 0.3757 0.0
H505 H 0.13436 1.00657 0.43127 0.0
H506 H 0.10649 0.09372 0.44198 0.0
H507 H 0.11286 0.10184 0.38658 0.0
H508 H 0.13414 0.12723 0.75933 0.0
H509 H 0.11284 0.14605 0.70902 0.0
H510 H 0.10162 0.05708 0.66185 0.0
H511 H 0.12394 0.03831 0.7118 0.0
Tb512 Tb 0.33421 0.80143 0.81556 0.0
Eu513 Eu 0.36276 0.86781 0.79438 0.0
C514 C 0.34171 0.85775 0.86633 0.0
C515 C 0.28414 0.83814 0.7761 0.0
C516 C 0.32636 0.72078 0.83028 0.0
C517 C 0.31997 0.66779 0.81292 0.0
C518 C 0.30647 0.69345 0.81816 0.0
C519 C 0.35961 0.72186 0.8388 0.0
C520 C 0.37304 0.69625 0.8338 0.0
C521 C 0.35351 0.66926 0.81989 0.0
C522 C 0.31303 0.7486 0.83039 0.0
O523 O 0.35078 0.79269 0.7682 0.0
O524 O 0.35552 0.83942 0.74806 0.0
O525 O 0.40872 0.8502 0.81435 0.0
O526 O 0.38643 0.80688 0.83616 0.0
C527 C 0.35298 0.81014 0.74375 0.0
O528 O 0.35691 0.91389 0.78666 0.0
O529 O 0.40204 0.89994 0.77871 0.0
O530 O 0.35803 0.8751 0.84729 0.0
O531 O 0.32649 0.83034 0.85634 0.0
O532 O 0.28892 0.8159 0.79458 0.0
O533 O 0.30886 0.85961 0.77209 0.0
C534 C 0.41222 0.82724 0.83217 0.0
O535 O 0.32798 0.7704 0.85107 0.0
O536 O 0.30643 0.75834 0.80212 0.0
C537 C 0.40375 0.94883 0.8026 0.0
C538 C 0.41064 0.99831 0.84746 0.0
C539 C 0.40701 1.00239 0.81421 0.0
C540 C 0.40342 0.97769 0.79191 0.0
C541 C 0.41232 0.94545 0.83542 0.0
C542 C 0.41588 0.97015 0.85779 0.0
C543 C 0.38689 0.92259 0.78166 0.0
H544 H 0.30443 0.64717 0.80227 0.0
H545 H 0.28077 0.69233 0.81135 0.0
H546 H 0.3755 0.74282 0.84788 0.0
H547 H 0.39902 0.69816 0.83889 0.0
H548 H 0.40285 1.02376 0.8054 0.0
H549 H 0.3968 0.98063 0.76665 0.0
H550 H 0.41275 0.92323 0.84406 0.0
H551 H 0.41918 0.9665 0.88323 0.0
Tb552 Tb 0.61696 0.07184 0.08283 0.0
Eu553 Eu 0.57545 0.08559 1.02054 0.0
C554 C 0.60224 1.01736 0.02525 0.0
C555 C 0.64974 0.11312 0.03435 0.0
C556 C 0.67264 0.09143 0.15733 0.0
C557 C 0.70349 0.10442 0.2099 0.0
C558 C 0.69248 0.08363 0.18341 0.0
C559 C 0.66778 0.12126 0.15594 0.0
C560 C 0.67759 0.1416 0.18272 0.0
C561 C 0.69296 0.1325 0.21135 0.0
C562 C 0.654 0.06815 0.13356 0.0
O563 O 0.60397 0.11862 0.09624 0.0
O564 O 0.57898 0.13199 0.0492 0.0
O565 O 0.54109 0.06932 0.05534 0.0
O566 O 0.57172 0.03963 0.08156 0.0
C567 C 0.59086 0.13954 0.07984 0.0
O568 O 0.56889 0.09147 0.96906 0.0
O569 O 0.5281 0.08953 0.99634 0.0
O570 O 0.58819 0.03693 1.00792 0.0
O571 O 0.61444 1.02651 0.05565 0.0
O572 O 0.65076 0.08883 0.04991 0.0
O573 O 0.62186 0.11919 1.0226 0.0
C574 C 0.54327 0.04575 0.07173 0.0
O575 O 0.62264 0.06547 0.13224 0.0
O576 O 0.6632 0.06849 0.10499 0.0
C577 C 0.5192 0.06429 0.94495 0.0
C578 C 0.50279 1.01608 0.89763 0.0
C579 C 0.50556 1.01038 0.93043 0.0
C580 C 0.51404 0.03436 0.95395 0.0
C581 C 0.51213 0.07009 0.91274 0.0
C582 C 0.50378 0.04618 0.88921 0.0
C583 C 0.53749 0.08853 0.96781 0.0
H584 H 0.71754 0.09717 0.23031 0.0
H585 H 0.69767 0.06095 0.18424 0.0
H586 H 0.65393 0.12816 0.13524 0.0
H587 H 0.66964 0.16308 0.1816 0.0
H588 H 0.50426 0.98752 0.93779 0.0
H589 H 0.5192 1.02948 0.97889 0.0
H590 H 0.51589 0.09307 0.90546 0.0
H591 H 0.50186 0.05171 0.8643 0.0
Tb592 Tb 0.36146 0.35603 0.31878 0.0
Eu593 Eu 0.3303 0.29501 0.28243 0.0
C594 C 0.36003 0.29841 0.36116 0.0
C595 C 0.40874 0.32592 0.27683 0.0
C596 C 0.3469 0.42794 0.3379 0.0
C597 C 0.32105 0.47081 0.34939 0.0
C598 C 0.34718 0.4554 0.35535 0.0
C599 C 0.32028 0.41611 0.31501 0.0
C600 C 0.29478 0.4313 0.30894 0.0
C601 C 0.29483 0.45887 0.32576 0.0
C602 C 0.37213 0.40937 0.34363 0.0
O603 O 0.34963 0.36918 0.26749 0.0
O604 O 0.32128 0.32584 0.24083 0.0
O605 O 0.28403 0.30529 0.30283 0.0
O606 O 0.31072 0.34679 0.33407 0.0
C607 C 0.33403 0.35476 0.24016 0.0
O608 O 0.30737 0.26291 0.24173 0.0
O609 O 0.32764 0.24669 0.28565 0.0
O610 O 0.33981 0.28424 0.33639 0.0
O611 O 0.37599 0.3259 0.35714 0.0
O612 O 0.40728 0.3453 0.30149 0.0
O613 O 0.38207 0.30614 0.26615 0.0
C614 C 0.28365 0.32647 0.32586 0.0
O615 O 0.36388 0.38593 0.35971 0.0
O616 O 0.38411 0.40157 0.31797 0.0
C617 C 0.34028 0.22527 0.23884 0.0
C618 C 0.40011 0.20716 0.23525 0.0
C619 C 0.3941 0.23398 0.22215 0.0
C620 C 0.36428 0.24291 0.22372 0.0
C621 C 0.34474 0.19656 0.24784 0.0
C622 C 0.37448 0.18751 0.24601 0.0
C623 C 0.31775 0.24029 0.25518 0.0
H624 H 0.3214 0.49198 0.36291 0.0
H625 H 0.36721 0.46467 0.37356 0.0
H626 H 0.31873 0.39461 0.30198 0.0
H627 H 0.27456 0.42104 0.29132 0.0
H628 H 0.41333 0.24909 0.21309 0.0
H629 H 0.36138 0.26507 0.21632 0.0
H630 H 0.32673 0.18269 0.25982 0.0
H631 H 0.37846 0.16663 0.25621 0.0
Tb632 Tb 0.59963 0.56311 1.02173 0.0
Eu633 Eu 0.59623 0.59441 0.08755 0.0
C634 C 0.66586 0.60512 0.05657 0.0
C635 C 0.59959 0.51908 0.08278 0.0
C636 C 0.61542 0.5478 0.93725 0.0
C637 C 0.62974 0.53113 0.88595 0.0
C638 C 0.6264 0.52635 0.91816 0.0
C639 C 0.61236 0.57581 0.92541 0.0
C640 C 0.615 0.58035 0.89315 0.0
C641 C 0.62089 0.55692 0.87234 0.0
C642 C 0.60272 0.53901 0.96711 0.0
O643 O 0.54902 0.54318 0.0307 0.0
O644 O 0.54227 0.57539 0.07164 0.0
O645 O 0.59421 0.6359 0.05621 0.0
O646 O 0.59728 0.61205 1.00781 0.0
C647 C 0.53002 0.55236 0.05072 0.0
O648 O 0.569 0.61277 0.12281 0.0
O649 O 0.62036 0.61317 0.13429 0.0
O650 O 0.64823 0.61451 0.07769 0.0
O651 O 0.65218 0.5824 0.03552 0.0
O652 O 0.59975 0.52206 0.05131 0.0
O653 O 0.60033 0.54433 0.10122 0.0
C654 C 0.59623 0.63788 0.02495 0.0
O655 O 0.62392 0.53829 0.99204 0.0
O656 O 0.57835 0.55111 0.97441 0.0
C657 C 0.58928 0.60656 0.17657 0.0
C658 C 0.60796 0.59415 0.23973 0.0
C659 C 0.59565 0.62063 0.23352 0.0
C660 C 0.58677 0.62702 0.20188 0.0
C661 C 0.59544 0.57772 0.18318 0.0
C662 C 0.60482 0.57151 0.21479 0.0
C663 C 0.59383 0.61792 0.14504 0.0
H664 H 0.63585 0.5132 0.87103 0.0
H665 H 0.6298 0.5049 0.92733 0.0
H666 H 0.60482 0.59306 0.94015 0.0
H667 H 0.60845 0.60083 0.88413 0.0
H668 H 0.59719 0.63814 0.25258 0.0
H669 H 0.5816 0.64922 0.19711 0.0
H670 H 0.59698 0.56148 0.16379 0.0
H671 H 0.61387 0.55079 0.21892 0.0
Tb672 Tb 0.83617 0.29859 0.31021 0.0
Eu673 Eu 0.86121 0.36687 0.2937 0.0
C674 C 0.84026 0.35482 0.36338 0.0
C675 C 0.78396 0.33679 0.27436 0.0
C676 C 0.82828 0.21829 0.32725 0.0
C677 C 0.8219 0.16443 0.31453 0.0
C678 C 0.80834 0.19034 0.31763 0.0
C679 C 0.86164 0.21993 0.33538 0.0
C680 C 0.87514 0.19408 0.33249 0.0
C681 C 0.85553 0.16629 0.32112 0.0
C682 C 0.81473 0.24591 0.32545 0.0
O683 O 0.85401 0.29121 0.264 0.0
O684 O 0.85698 0.33891 0.24671 0.0
O685 O 0.90338 0.35297 0.32691 0.0
O686 O 0.88969 0.30152 0.32146 0.0
C687 C 0.85594 0.30989 0.24082 0.0
O688 O 0.85669 0.41157 0.27887 0.0
O689 O 0.90402 0.39927 0.28533 0.0
O690 O 0.84635 0.37502 0.34242 0.0
O691 O 0.83655 0.32568 0.35544 0.0
O692 O 0.79125 0.3113 0.28515 0.0
O693 O 0.80636 0.36161 0.27734 0.0
C694 C 0.91129 0.32618 0.33155 0.0
O695 O 0.82853 0.26815 0.34608 0.0
O696 O 0.80966 0.255 0.29667 0.0
C697 C 0.89935 0.44926 0.30071 0.0
C698 C 0.89815 0.50497 0.33284 0.0
C699 C 0.90894 0.50385 0.30228 0.0
C700 C 0.90903 0.47605 0.28609 0.0
C701 C 0.89391 0.45053 0.33308 0.0
C702 C 0.89322 0.47821 0.34906 0.0
C703 C 0.88778 0.42106 0.28074 0.0
H704 H 0.80631 0.14321 0.30581 0.0
H705 H 0.78254 0.18881 0.31118 0.0
H706 H 0.8775 0.24138 0.34256 0.0
H707 H 0.90119 0.19629 0.33718 0.0
H708 H 0.91413 0.52417 0.28959 0.0
H709 H 0.91376 0.47542 0.26123 0.0
H710 H 0.88675 0.42996 0.34483 0.0
H711 H 0.88506 0.47799 0.37262 0.0
Tb712 Tb 0.11514 0.56975 0.58207 0.0
Eu713 Eu 0.0754 0.58433 0.51923 0.0
C714 C 0.10175 0.51588 0.52396 0.0
C715 C 0.14944 0.61166 0.53509 0.0
C716 C 0.16956 0.58805 0.65758 0.0
C717 C 0.19959 0.60002 0.71064 0.0
C718 C 0.18883 0.57967 0.68374 0.0
C719 C 0.16514 0.61803 0.65654 0.0
C720 C 0.17471 0.63794 0.68369 0.0
C721 C 0.18934 0.62822 0.71236 0.0
C722 C 0.15096 0.5652 0.63335 0.0
O723 O 0.10278 0.61685 0.59531 0.0
O724 O 0.07906 0.63076 0.54793 0.0
O725 O 1.03985 0.56783 0.55283 0.0
O726 O 0.06955 0.53774 0.57954 0.0
C727 C 0.09043 0.63809 0.57873 0.0
O728 O 0.06948 0.58956 0.46759 0.0
O729 O 1.02863 0.58933 0.49454 0.0
O730 O 0.08852 0.53584 0.50646 0.0
O731 O 0.11291 0.52457 0.5547 0.0
O732 O 0.14978 0.58696 0.55008 0.0
O733 O 0.12194 0.61789 0.52247 0.0
C734 C 1.04135 0.54401 0.56894 0.0
O735 O 0.11961 0.56306 0.63141 0.0
O736 O 0.16079 0.56557 0.60506 0.0
C737 C 1.01962 0.56207 0.4444 0.0
C738 C 1.00238 0.51237 0.39901 0.0
C739 C 1.00691 0.50779 0.43202 0.0
C740 C 1.01564 0.53252 0.45458 0.0
C741 C 1.01105 0.5667 0.41211 0.0
C742 C 1.00221 0.54201 0.38954 0.0
C743 C 1.03809 0.58708 0.46614 0.0
H744 H 0.21316 0.59233 0.73108 0.0
H745 H 0.1937 0.55687 0.68431 0.0
H746 H 0.15175 0.62536 0.6358 0.0
H747 H 0.16707 0.65956 0.68277 0.0
H748 H 1.00682 0.4853 0.4401 0.0
H749 H 1.02195 0.52857 0.47962 0.0
H750 H 1.01393 0.58936 0.40394 0.0
H751 H 0.99902 0.54659 0.36436 0.0
Tb752 Tb 0.82039 0.83226 0.29253 0.0
Eu753 Eu 0.89139 0.82363 0.32053 0.0
C754 C 0.8801 0.87973 0.28228 0.0
C755 C 0.86212 0.79792 0.2461 0.0
C756 C 0.73239 0.83144 0.27651 0.0
C757 C 0.67549 0.8097 0.26358 0.0
C758 C 0.7061 0.81809 0.25394 0.0
C759 C 0.72774 0.83695 0.3087 0.0
C760 C 0.69713 0.82889 0.31825 0.0
C761 C 0.67086 0.81485 0.29586 0.0
C762 C 0.76484 0.83718 0.26668 0.0
O763 O 0.81128 0.79058 0.31717 0.0
O764 O 0.8606 0.79058 0.34635 0.0
O765 O 0.87455 0.85157 0.36183 0.0
O766 O 0.82065 0.84898 0.34405 0.0
C767 C 0.82981 0.77978 0.33941 0.0
O768 O 0.92898 0.79688 0.3314 0.0
O769 O 0.93888 0.84521 0.34412 0.0
O770 O 0.89749 0.85859 0.28438 0.0
O771 O 0.85137 0.87565 0.29154 0.0
O772 O 0.84151 0.81679 0.24885 0.0
O773 O 0.88065 0.79329 0.2725 0.0
C774 C 0.84559 0.85707 0.3671 0.0
O775 O 0.78546 0.85941 0.28235 0.0
O776 O 0.77765 0.81325 0.26276 0.0
C777 C 0.98087 0.82418 0.3266 0.0
C778 C 1.03627 0.84035 0.29592 0.0
C779 C 1.03745 0.84693 0.32919 0.0
C780 C 1.0099 0.83882 0.34444 0.0
C781 C 0.97993 0.81656 0.29361 0.0
C782 C 1.00752 0.82442 0.27842 0.0
C783 C 0.95099 0.82062 0.34153 0.0
H784 H 0.65553 0.79897 0.24594 0.0
H785 H 0.70943 0.81349 0.22905 0.0
H786 H 0.74785 0.8468 0.32661 0.0
H787 H 0.69423 0.83266 0.34339 0.0
H788 H 0.05943 0.85906 0.34317 0.0
H789 H 1.01087 0.84509 0.36987 0.0
H790 H 0.95756 0.80571 0.27931 0.0
H791 H 1.00587 0.81945 0.25267 0.0
Tb792 Tb 0.8767 0.34557 0.8124 0.0
Eu793 Eu 0.80273 0.30686 0.78854 0.0
C794 C 0.81809 0.37981 0.79777 0.0
C795 C 0.83279 0.31508 0.86314 0.0
C796 C 0.94807 0.40654 0.83216 0.0
C797 C 0.9444 0.45976 0.83421 0.0
C798 C 0.92955 0.42947 0.83319 0.0
C799 C 0.98151 0.41427 0.83156 0.0
C800 C 0.99641 0.44462 0.83253 0.0
C801 C 0.978 0.46769 0.834 0.0
C802 C 0.93269 0.37466 0.8321 0.0
O803 O 0.8807 0.30058 0.79354 0.0
O804 O 0.83341 0.27383 0.80625 0.0
O805 O 0.82668 0.31753 0.74353 0.0
O806 O 0.86669 0.35773 0.76319 0.0
C807 C 0.86356 0.27535 0.80129 0.0
O808 O 0.77212 0.27306 0.75442 0.0
O809 O 0.75072 0.29554 0.79116 0.0
O810 O 0.79957 0.35535 0.78336 0.0
O811 O 0.8463 0.37986 0.81456 0.0
O812 O 0.86163 0.32148 0.85366 0.0
O813 O 0.8063 0.3137 0.84288 0.0
C814 C 0.84843 0.34119 0.73899 0.0
O815 O 0.9095 0.36921 0.85014 0.0
O816 O 0.92502 0.35979 0.80403 0.0
C817 C 0.72687 0.24512 0.77311 0.0
C818 C 0.69444 0.18555 0.77682 0.0
C819 C 0.72162 0.1978 0.79907 0.0
C820 C 0.73787 0.22736 0.79709 0.0
C821 C 0.699 0.23347 0.75183 0.0
C822 C 0.68297 0.20386 0.75354 0.0
C823 C 0.74599 0.27444 0.76774 0.0
H824 H 0.92948 0.47697 0.83471 0.0
H825 H 0.9036 0.42399 0.83327 0.0
H826 H 0.99611 0.39683 0.83058 0.0
H827 H 1.02238 0.45005 0.83255 0.0
H828 H 0.73115 0.18411 0.81706 0.0
H829 H 0.75959 0.236 0.81352 0.0
H830 H 0.6902 0.24699 0.73326 0.0
H831 H 0.66192 0.19509 0.73629 0.0
Tb832 Tb 0.86371 0.85586 0.82194 0.0
Eu833 Eu 0.83139 0.79518 0.78497 0.0
C834 C 0.8602 0.79726 0.86355 0.0
C835 C 0.90963 0.8251 0.77806 0.0
C836 C 0.85635 0.92964 0.84986 0.0
C837 C 0.80652 0.94002 0.86813 0.0
C838 C 0.83532 0.92884 0.87367 0.0
C839 C 0.84993 0.94533 0.8223 0.0
C840 C 0.82108 0.95626 0.81669 0.0
C841 C 0.7984 0.95224 0.83877 0.0
C842 C 0.87905 0.90804 0.84962 0.0
O843 O 0.84916 0.87094 0.77217 0.0
O844 O 0.82432 0.82699 0.7439 0.0
O845 O 0.78597 0.80667 0.80597 0.0
O846 O 0.81268 0.84882 0.83646 0.0
C847 C 0.83529 0.85638 0.74423 0.0
O848 O 0.80637 0.76412 0.7442 0.0
O849 O 0.82739 0.74667 0.78707 0.0
O850 O 0.83995 0.78345 0.83866 0.0
O851 O 0.87677 0.82448 0.85964 0.0
O852 O 0.90838 0.84508 0.80218 0.0
O853 O 0.88312 0.80474 0.76843 0.0
C854 C 0.78564 0.82833 0.82851 0.0
O855 O 0.87145 0.88388 0.86487 0.0
O856 O 0.8873 0.90105 0.82168 0.0
C857 C 0.83707 0.72494 0.7392 0.0
C858 C 0.89537 0.70437 0.73437 0.0
C859 C 0.89054 0.73174 0.7218 0.0
C860 C 0.86148 0.74195 0.72405 0.0
C861 C 0.8401 0.69563 0.74728 0.0
C862 C 0.86911 0.68537 0.74487 0.0
C863 C 0.81615 0.74084 0.75681 0.0
H864 H 0.78948 0.93691 0.88564 0.0
H865 H 0.83965 0.91714 0.89529 0.0
H866 H 0.86574 0.94679 0.80364 0.0
H867 H 0.81562 0.96627 0.79418 0.0
H868 H 0.91024 0.74635 0.71287 0.0
H869 H 0.85968 0.76457 0.71738 0.0
H870 H 0.82172 0.68222 0.75922 0.0
H871 H 0.87213 0.66407 0.75464 0.0
Tb872 Tb 0.55182 0.55592 0.51799 0.0
Eu873 Eu 0.61742 0.59221 0.56272 0.0
C874 C 0.62027 0.55599 0.49978 0.0
C875 C 0.58635 0.52434 0.57153 0.0
C876 C 0.47329 0.55714 0.48115 0.0
C877 C 0.4604 0.60715 0.47282 0.0
C878 C 0.47956 0.58546 0.4679 0.0
C879 C 0.44589 0.55038 0.49736 0.0
C880 C 0.4266 0.57212 0.50215 0.0
C881 C 0.43439 0.60112 0.49092 0.0
C882 C 0.49872 0.5381 0.48432 0.0
O883 O 0.53791 0.57075 0.56348 0.0
O884 O 0.57788 0.6113 0.58305 0.0
O885 O 0.60538 0.62272 0.52353 0.0
O886 O 0.55114 0.60359 0.51714 0.0
C887 C 0.54844 0.59562 0.58226 0.0
O888 O 0.64828 0.60414 0.60863 0.0
O889 O 0.66799 0.61378 0.56395 0.0
O890 O 0.62823 0.55535 0.53055 0.0
O891 O 0.59191 0.56205 0.48931 0.0
O892 O 0.5736 0.52058 0.54112 0.0
O893 O 0.5954 0.55131 0.58616 0.0
C894 C 0.57544 0.62467 0.5129 0.0
O895 O 0.52515 0.54811 0.4719 0.0
O896 O 0.50528 0.52895 0.51305 0.0
C897 C 0.69824 0.58956 0.60136 0.0
C898 C 0.73974 0.54682 0.60033 0.0
C899 C 0.70819 0.53848 0.60822 0.0
C900 C 0.68762 0.55954 0.60858 0.0
C901 C 0.73026 0.59835 0.59504 0.0
C902 C 0.75088 0.5772 0.59463 0.0
C903 C 0.67446 0.60954 0.59444 0.0
H904 H 0.46652 0.62903 0.46323 0.0
H905 H 0.50046 0.5917 0.45532 0.0
H906 H 0.44058 0.52897 0.50813 0.0
H907 H 0.40666 0.56677 0.51619 0.0
H908 H 0.69912 0.51543 0.61331 0.0
H909 H 0.6629 0.55187 0.61305 0.0
H910 H 0.73879 0.62117 0.58878 0.0
H911 H 0.775 0.58429 0.58822 0.0
Tb912 Tb 0.08088 0.55767 1.02098 0.0
Eu913 Eu 0.11931 0.60312 0.07892 0.0
C914 C 0.08185 0.5375 0.09192 0.0
C915 C 1.04416 0.61077 0.05299 0.0
C916 C 1.04022 0.49255 0.96476 0.0
C917 C 1.045 0.44121 0.97586 0.0
C918 C 0.05311 0.47213 0.98431 0.0
C919 C 1.01932 0.48193 0.93663 0.0
C920 C 1.01119 0.45097 0.92812 0.0
C921 C 1.02388 0.43032 0.94775 0.0
C922 C 0.04733 0.52481 0.97435 0.0
O923 O 0.1094 0.59446 0.99924 0.0
O924 O 0.11172 0.63196 0.0379 0.0
O925 O 0.15623 0.57276 0.06508 0.0
O926 O 0.12546 0.53627 0.0292 0.0
C927 C 0.11212 0.62308 1.00805 0.0
O928 O 0.16719 0.62783 0.09674 0.0
O929 O 0.12788 0.62937 0.12543 0.0
O930 O 0.09321 0.56527 0.10352 0.0
O931 O 0.07894 0.52907 0.06125 0.0
O932 O 1.04422 0.58725 0.03221 0.0
O933 O 0.07068 0.62094 0.07347 0.0
C934 C 0.15371 0.54715 0.047 0.0
O935 O 1.03621 0.53237 1.00067 0.0
O936 O 0.07706 0.53839 0.97372 0.0
C937 C 0.16687 0.6736 0.12479 0.0
C938 C 0.1847 0.73684 0.13054 0.0
C939 C 0.17443 0.72148 0.10015 0.0
C940 C 0.16528 0.69018 0.09734 0.0
C941 C 0.17787 0.6886 0.15504 0.0
C942 C 0.18653 0.72005 0.15799 0.0
C943 C 0.1577 0.64066 0.12158 0.0
H944 H 0.05559 0.42585 0.99112 0.0
H945 H 0.06928 0.48011 1.00616 0.0
H946 H 1.00906 0.49754 0.92145 0.0
H947 H 0.9947 0.44317 0.90645 0.0
H948 H 0.17323 0.73363 0.07849 0.0
H949 H 0.15703 0.67892 0.07367 0.0
H950 H 0.1795 0.67603 0.17634 0.0
H951 H 0.19379 0.73119 0.18182 0.0
C952 C 1.04681 0.19909 1.00343 0.0
C953 C 0.05635 0.19954 0.97248 0.0
H954 H 0.05296 0.18167 0.04994 0.0
C955 C 0.08365 0.18737 0.96644 0.0
H956 H 1.02616 0.20875 1.00879 0.0
C957 C 0.09988 0.1732 0.99044 0.0
C958 C 0.08863 0.17058 1.0205 0.0
H959 H 0.09186 0.18798 0.94289 0.0
H960 H 0.1193 0.16194 0.98455 0.0
C961 C 0.06255 0.18427 0.02714 0.0
C962 C 0.24981 0.93096 0.28305 0.0
C963 C 0.25791 0.93953 0.25271 0.0
H964 H 0.26186 0.90691 0.3243 0.0
C965 C 0.28904 0.93799 0.24507 0.0
H966 H 0.22607 0.93207 0.28982 0.0
C967 C 0.30984 0.92415 0.26529 0.0
C968 C 0.29946 0.91116 0.29305 0.0
H969 H 0.29601 0.94453 0.22196 0.0
H970 H 0.33239 0.92061 0.2572 0.0
C971 C 0.27021 0.91638 0.30282 0.0
C972 C 0.48485 0.84942 0.41879 0.0
C973 C 0.50526 0.83107 0.43319 0.0
H974 H 0.47407 0.89394 0.41616 0.0
C975 C 0.52949 0.84364 0.45826 0.0
H976 H 0.46587 0.84027 0.39947 0.0
C977 C 0.53454 0.87442 0.46746 0.0
C978 C 0.51528 0.8932 0.45192 0.0
H979 H 0.54565 0.83004 0.46971 0.0
H980 H 0.55458 0.88369 0.48566 0.0
C981 C 0.48977 0.8802 0.42813 0.0
C982 C 0.60935 0.34934 0.75459 0.0
C983 C 0.62108 0.38062 0.75801 0.0
H984 H 0.57492 0.31263 0.76769 0.0
C985 C 0.60897 0.39872 0.78008 0.0
H986 H 0.61842 0.33486 0.73781 0.0
C987 C 0.58434 0.38593 0.79733 0.0
C988 C 0.57133 0.35494 0.79253 0.0
H989 H 0.61773 0.42287 0.78324 0.0
H990 H 0.57432 0.40057 0.81312 0.0
C991 C 0.5845 0.33662 0.77159 0.0
C992 C 0.10054 0.95105 0.64505 0.0
C993 C 0.09429 0.92322 0.62542 0.0
H994 H 0.1077 1.0003 0.64938 0.0
C995 C 0.091 0.928 0.59177 0.0
H996 H 0.10343 0.95 0.67094 0.0
C997 C 0.09372 0.95775 0.57903 0.0
C998 C 0.09988 0.98559 0.59868 0.0
H999 H 0.08623 0.90842 0.57477 0.0
H1000 H 0.09073 0.95879 0.55313 0.0
C1001 C 0.1031 0.98077 0.63232 0.0
C1002 C 0.48221 0.80575 0.89182 0.0
C1003 C 0.51099 0.82237 0.88252 0.0
H1004 H 0.42993 0.79341 0.88375 0.0
C1005 C 0.50651 0.84011 0.85586 0.0
H1006 H 0.48385 0.79177 0.91204 0.0
C1007 C 0.47515 0.84157 0.83985 0.0
C1008 C 0.44633 0.82482 0.84899 0.0
H1009 H 0.52744 0.85351 0.84759 0.0
H1010 H 0.47355 0.85601 0.82002 0.0
C1011 C 0.45085 0.80666 0.87532 0.0
C1012 C 0.57744 0.22588 0.09082 0.0
C1013 C 0.58623 0.23546 0.12415 0.0
H1014 H 0.57146 0.19097 0.05168 0.0
C1015 C 0.59675 0.21217 0.14259 0.0
H1016 H 0.56921 0.24179 0.0747 0.0
C1017 C 0.59843 0.1822 0.12896 0.0
C1018 C 0.58937 0.17255 0.09562 0.0
H1019 H 0.6041 0.21714 0.16816 0.0
H1020 H 0.60691 0.16636 0.14503 0.0
C1021 C 0.57878 0.19585 0.07727 0.0
C1022 C 0.19381 0.31035 0.35066 0.0
C1023 C 0.1954 0.32724 0.38069 0.0
H1024 H 0.21801 0.29618 0.31095 0.0
C1025 C 0.22681 0.34419 0.3917 0.0
H1026 H 0.17089 0.29672 0.34045 0.0
C1027 C 0.25428 0.34439 0.37404 0.0
C1028 C 0.25283 0.32717 0.34422 0.0
H1029 H 0.23034 0.35772 0.4143 0.0
H1030 H 0.27719 0.358 0.38431 0.0
C1031 C 0.22145 0.31004 0.33332 0.0
C1032 C 1.02177 0.11255 0.16753 0.0
C1033 C 0.99555 0.08826 0.16447 0.0
H1034 H 0.06369 0.13371 0.14774 0.0
C1035 C 0.98784 0.06991 0.13574 0.0
H1036 H 1.02804 0.12725 0.1894 0.0
C1037 C 1.00825 0.07362 0.11193 0.0
C1038 C 1.0367 0.09559 0.1167 0.0
H1039 H 0.96754 0.05124 0.1327 0.0
H1040 H 1.00274 0.05793 0.0908 0.0
C1041 C 1.04239 0.11608 0.14385 0.0
C1042 C 0.35641 0.80298 0.45631 0.0
C1043 C 0.32914 0.78293 0.46357 0.0
H1044 H 0.37841 0.82983 0.42083 0.0
C1045 C 0.3023 0.77529 0.43966 0.0
H1046 H 0.37754 0.80928 0.47408 0.0
C1047 C 0.30299 0.78658 0.40909 0.0
C1048 C 0.33031 0.80636 0.40159 0.0
H1049 H 0.28091 0.75983 0.44424 0.0
H1050 H 0.28205 0.77961 0.3912 0.0
C1051 C 0.35687 0.8148 0.42578 0.0
C1052 C 0.60816 0.98424 0.65378 0.0
C1053 C 0.58685 0.98762 0.67647 0.0
H1054 H 0.62373 0.99776 0.60886 0.0
C1055 C 0.56049 1.0021 0.66812 0.0
H1056 H 0.62863 0.97316 0.6596 0.0
C1057 C 0.5583 1.0168 0.63967 0.0
C1058 C 0.58163 1.01611 0.61872 0.0
H1059 H 0.54359 1.00499 0.68508 0.0
H1060 H 0.53987 1.03057 0.63521 0.0
C1061 C 0.6054 0.99829 0.62484 0.0
C1062 C 0.31026 0.37945 0.94166 0.0
C1063 C 0.33279 0.40469 0.95699 0.0
H1064 H 0.29557 0.3465 0.90062 0.0
C1065 C 0.35928 0.41467 0.93977 0.0
H1066 H 0.28938 0.37055 0.95327 0.0
C1067 C 0.36337 0.40016 0.90968 0.0
C1068 C 0.34072 0.37523 0.89404 0.0
H1069 H 0.37751 0.43374 0.94991 0.0
H1070 H 0.3845 0.40893 0.89837 0.0
C1071 C 0.31383 0.36549 0.91092 0.0
C1072 C 0.07384 1.02842 0.30034 0.0
C1073 C 0.06565 0.05555 0.29023 0.0
H1074 H 0.10089 1.00776 0.33562 0.0
C1075 C 0.08622 0.08294 0.30102 0.0
H1076 H 0.05879 1.00691 0.29166 0.0
C1077 C 0.11159 0.08349 0.32557 0.0
C1078 C 0.11532 0.05686 0.34069 0.0
H1079 H 0.08102 0.10411 0.29253 0.0
H1080 H 0.12542 0.10518 0.33533 0.0
C1081 C 0.09849 1.02902 0.32553 0.0
C1082 C 0.34371 0.80336 0.65163 0.0
C1083 C 0.3451 0.7729 0.64439 0.0
H1084 H 0.34546 0.83879 0.68795 0.0
C1085 C 0.35008 0.75466 0.67033 0.0
H1086 H 0.33989 0.81811 0.63245 0.0
C1087 C 0.35296 0.76647 0.70257 0.0
C1088 C 0.35145 0.797 0.70977 0.0
H1089 H 0.35116 0.73103 0.66572 0.0
H1090 H 0.35622 0.75165 0.7218 0.0
C1091 C 0.34703 0.81523 0.68369 0.0
C1092 C 0.54939 0.96662 0.85626 0.0
C1093 C 0.54178 0.97418 0.82463 0.0
H1094 H 0.54211 0.97392 0.90518 0.0
C1095 C 0.51335 0.98559 0.81644 0.0
H1096 H 0.57102 0.95745 0.86306 0.0
C1097 C 0.49634 0.99476 0.84054 0.0
C1098 C 0.50803 0.99313 0.87306 0.0
H1099 H 0.50662 0.99093 0.79193 0.0
H1100 H 0.47692 1.00687 0.8339 0.0
C1101 C 0.53259 0.97612 0.88048 0.0
C1102 C 0.34389 0.41757 0.17647 0.0
C1103 C 0.33017 0.40248 0.14608 0.0
H1104 H 0.35593 0.4158 0.22808 0.0
C1105 C 0.31721 0.37128 0.14768 0.0
H1106 H 0.3543 0.44136 0.17745 0.0
C1107 C 0.31802 0.35631 0.17739 0.0
C1108 C 0.3319 0.37139 0.20778 0.0
H1109 H 0.30629 0.35808 0.12567 0.0
H1110 H 0.3078 0.33247 0.17636 0.0
C1111 C 0.3448 0.4026 0.20614 0.0
C1112 C 0.27308 0.98298 0.07939 0.0
C1113 C 0.30568 0.98589 0.09222 0.0
H1114 H 0.23005 1.00214 0.07718 0.0
C1115 C 0.31967 1.01075 0.11397 0.0
H1116 H 0.26168 0.9642 0.06246 0.0
C1117 C 0.30154 0.03236 0.12251 0.0
C1118 C 0.26894 1.02947 0.1097 0.0
H1119 H 0.34478 1.01368 0.12427 0.0
H1120 H 0.31296 0.05125 0.1393 0.0
C1121 C 0.25492 1.00456 0.08804 0.0
C1122 C 0.75628 0.62368 0.03789 0.0
C1123 C 0.76865 0.65255 0.05393 0.0
H1124 H 0.71566 0.58672 0.02548 0.0
C1125 C 0.74653 0.66507 0.07111 0.0
H1126 H 0.77181 0.61281 1.02421 0.0
C1127 C 0.71417 0.6497 0.07239 0.0
C1128 C 0.70158 0.62102 0.05605 0.0
H1129 H 0.7543 0.68704 0.08393 0.0
H1130 H 0.69873 0.66073 0.086 0.0
C1131 C 0.72362 0.60852 0.03863 0.0
C1132 C 0.86148 0.55634 0.38623 0.0
C1133 C 0.841 0.56769 0.36298 0.0
H1134 H 0.89718 0.52831 0.395 0.0
C1135 C 0.84444 0.56308 0.33034 0.0
H1136 H 0.85964 0.56001 0.41163 0.0
C1137 C 0.86562 0.54502 0.32083 0.0
C1138 C 0.88402 0.53111 0.34376 0.0
H1139 H 0.82935 0.57198 0.31186 0.0
H1140 H 0.8653 0.54002 0.29526 0.0
C1141 C 0.88292 0.5382 0.37668 0.0
C1142 C 0.95208 0.51125 0.56116 0.0
C1143 C 0.95201 0.4807 0.5665 0.0
H1144 H 0.9801 0.55508 0.55832 0.0
C1145 C 0.9817 0.47139 0.575 0.0
H1146 H 0.92965 0.51926 0.5548 0.0
C1147 C 1.01092 0.4922 0.57737 0.0
C1148 C 1.01088 0.52261 0.57111 0.0
H1149 H 0.98239 0.44802 0.57948 0.0
H1150 H 1.0335 0.48428 0.58306 0.0
C1151 C 0.98108 0.53187 0.56335 0.0
C1152 C 0.4716 0.16783 0.25088 0.0
C1153 C 0.49342 0.18975 0.27136 0.0
H1154 H 0.42472 0.15616 0.22326 0.0
C1155 C 0.48606 0.21869 0.27602 0.0
H1156 H 0.47662 0.14529 0.24678 0.0
C1157 C 0.45657 0.22502 0.26197 0.0
C1158 C 0.43373 0.20235 0.2435 0.0
H1159 H 0.50243 0.23601 0.2916 0.0
H1160 H 0.45075 0.24706 0.26733 0.0
C1161 C 0.44189 0.17397 0.23738 0.0
C1162 C 0.45623 0.12849 0.53663 0.0
C1163 C 0.45752 0.1577 0.55195 0.0
H1164 H 0.4809 0.09175 0.52449 0.0
C1165 C 0.48873 0.17101 0.56783 0.0
H1166 H 0.43344 0.11674 0.52389 0.0
C1167 C 0.51638 0.15619 0.56863 0.0
C1168 C 0.51521 0.12708 0.55313 0.0
H1169 H 0.49193 0.19322 0.58011 0.0
H1170 H 0.53913 0.16799 0.58142 0.0
C1171 C 0.48405 0.11387 0.53695 0.0
C1172 C 0.82511 0.71202 0.38946 0.0
C1173 C 0.79246 0.69865 0.38208 0.0
H1174 H 0.86253 0.74829 0.38182 0.0
C1175 C 0.77131 0.714 0.36374 0.0
H1176 H 0.84189 0.70071 0.40358 0.0
C1177 C 0.78313 0.74108 0.3508 0.0
C1178 C 0.81626 0.75337 0.35623 0.0
H1179 H 0.74591 0.70423 0.35777 0.0
H1180 H 0.76654 0.7517 0.33557 0.0
C1181 C 0.8369 0.7392 0.37674 0.0
C1182 C 1.03032 0.53978 0.81359 0.0
C1183 C 1.02091 0.56162 0.83371 0.0
H1184 H 1.02407 0.493 0.79784 0.0
C1185 C 0.99809 0.5523 0.85471 0.0
H1186 H 0.04792 0.5463 0.79719 0.0
C1187 C 0.98448 0.52176 0.85513 0.0
C1188 C 0.99354 0.49993 0.83465 0.0
H1189 H 0.9905 0.56862 0.87062 0.0
H1190 H 0.9669 0.51521 0.87153 0.0
C1191 C 1.01683 0.50924 0.8141 0.0
C1192 C 0.15581 0.97751 0.09136 0.0
C1193 C 0.13911 0.96505 0.11604 0.0
H1194 H 0.15709 1.00905 0.05457 0.0
C1195 C 0.10768 0.97033 0.11841 0.0
H1196 H 0.17975 0.97319 0.08866 0.0
C1197 C 0.09453 0.99019 0.09858 0.0
C1198 C 0.11236 1.00462 0.07579 0.0
H1199 H 0.09405 0.96069 0.13696 0.0
H1200 H 0.07161 0.99622 0.10289 0.0
C1201 C 0.14255 0.99735 0.0714 0.0
C1202 C 0.93027 0.23104 0.81332 0.0
C1203 C 0.92759 0.22305 0.84508 0.0
H1204 H 0.9118 0.25485 0.7744 0.0
C1205 C 0.89899 0.22526 0.85828 0.0
H1206 H 0.95193 0.22942 0.80236 0.0
C1207 C 0.8756 0.23919 0.84179 0.0
C1208 C 0.88096 0.25149 0.81227 0.0
H1209 H 0.89625 0.21919 0.88265 0.0
H1210 H 0.85532 0.24338 0.85384 0.0
C1211 C 0.9074 0.24575 0.79728 0.0
C1212 C 0.71294 0.32171 0.65845 0.0
C1213 C 0.6866 0.33616 0.65026 0.0
H1214 H 0.73034 0.27988 0.65896 0.0
C1215 C 0.6578 0.31934 0.63386 0.0
H1216 H 0.73548 0.3342 0.67107 0.0
C1217 C 0.65463 0.28829 0.62751 0.0
C1218 C 0.68035 0.27342 0.63708 0.0
H1219 H 0.63703 0.32986 0.6274 0.0
H1220 H 0.63144 0.27579 0.61644 0.0
C1221 C 0.70986 0.29058 0.65186 0.0
C1222 C 0.59861 0.81222 0.34098 0.0
C1223 C 0.58329 0.78191 0.33456 0.0
H1224 H 0.63834 0.84648 0.33337 0.0
C1225 C 0.59527 0.76321 0.31296 0.0
H1226 H 0.58975 0.82721 0.35739 0.0
C1227 C 0.62305 0.77436 0.29909 0.0
C1228 C 0.63925 0.80425 0.30686 0.0
H1229 H 0.58382 0.73979 0.30756 0.0
H1230 H 0.63267 0.75924 0.28349 0.0
C1231 C 0.62642 0.82326 0.32734 0.0
C1232 C 0.10498 0.22767 0.51791 0.0
C1233 C 0.1021 0.23162 0.48407 0.0
H1234 H 0.10564 0.19802 0.55758 0.0
C1235 C 0.09753 0.20335 0.46534 0.0
H1236 H 0.10851 0.24758 0.53434 0.0
C1237 C 0.09627 0.17408 0.47905 0.0
C1238 C 0.09887 0.1701 0.51289 0.0
H1239 H 0.09512 0.20373 0.43937 0.0
H1240 H 0.09304 0.15421 0.46261 0.0
C1241 C 0.10321 0.19836 0.53162 0.0
C1242 C 0.70293 0.31361 0.21647 0.0
C1243 C 0.68477 0.33636 0.22277 0.0
H1244 H 0.74654 0.29524 0.22779 0.0
C1245 C 0.69992 0.35939 0.2467 0.0
H1246 H 0.6927 0.29534 0.19851 0.0
C1247 C 0.73179 0.35997 0.26281 0.0
C1248 C 0.74964 0.33683 0.25693 0.0
H1249 H 0.68734 0.37748 0.25257 0.0
H1250 H 0.74229 0.37845 0.28043 0.0
C1251 C 0.73413 0.31351 0.23353 0.0
C1252 C 0.61846 0.93169 1.01577 0.0
C1253 C 0.60747 0.92094 0.98301 0.0
H1254 H 0.62598 0.96774 0.054 0.0
C1255 C 0.5947 0.94319 0.96468 0.0
H1256 H 0.62854 0.91661 0.03174 0.0
C1257 C 0.59298 0.97326 0.97781 0.0
C1258 C 0.60413 0.9841 1.01052 0.0
H1259 H 0.58562 0.93731 0.93955 0.0
H1260 H 0.58271 0.98824 0.96183 0.0
C1261 C 0.61695 0.96187 0.02886 0.0
C1262 C 1.0005 0.84071 0.75609 0.0
C1263 C 0.99874 0.82682 0.72441 0.0
H1264 H 0.97615 0.8517 0.79701 0.0
C1265 C 0.96691 0.81239 0.71133 0.0
H1266 H 1.02378 0.85231 0.76789 0.0
C1267 C 0.93916 0.81174 0.72853 0.0
C1268 C 0.9408 0.82562 0.76015 0.0
H1269 H 0.96322 0.80136 0.68733 0.0
H1270 H 0.91584 0.80064 0.71643 0.0
C1271 C 0.97259 0.84037 0.77317 0.0
C1272 C 0.22643 0.07991 0.98399 0.0
C1273 C 0.2281 0.10212 0.96163 0.0
H1274 H 0.19884 0.0569 1.01816 0.0
C1275 C 0.20281 0.11848 0.95648 0.0
H1276 H 0.24549 0.0668 0.98803 0.0
C1277 C 0.17572 0.11203 0.9726 0.0
C1278 C 0.17388 0.08966 0.99472 0.0
H1279 H 0.20326 0.13543 0.93896 0.0
H1280 H 0.15643 0.12479 0.96801 0.0
C1281 C 0.19966 0.07402 1.00081 0.0
C1282 C 0.88297 0.38041 0.66898 0.0
C1283 C 0.85716 0.37315 0.64397 0.0
H1284 H 0.90039 0.37625 0.71829 0.0
C1285 C 0.82888 0.35375 0.64995 0.0
H1286 H 0.90506 0.39537 0.66534 0.0
C1287 C 0.82633 0.34239 0.68043 0.0
C1288 C 0.85181 0.35062 0.70574 0.0
H1289 H 0.80849 0.3478 0.63127 0.0
H1290 H 0.804 0.32803 0.68446 0.0
C1291 C 0.88024 0.36952 0.69946 0.0
C1292 C 0.57571 0.17074 0.45015 0.0
C1293 C 0.59641 0.17161 0.4262 0.0
H1294 H 0.56569 0.15493 0.49605 0.0
C1295 C 0.62573 0.161 0.43242 0.0
H1296 H 0.55289 0.17852 0.44581 0.0
C1297 C 0.63234 0.14646 0.46041 0.0
C1298 C 0.61044 0.14359 0.48312 0.0
H1299 H 0.64202 0.16111 0.41426 0.0
H1300 H 0.65359 0.13602 0.46348 0.0
C1301 C 0.58297 0.15717 0.47872 0.0
C1302 C 0.85377 0.77779 0.15203 0.0
C1303 C 0.86937 0.75255 0.14848 0.0
H1304 H 0.83876 0.81091 0.18352 0.0
C1305 C 0.88274 0.74273 0.17799 0.0
H1306 H 0.84283 0.78654 0.13069 0.0
C1307 C 0.88088 0.75731 0.20885 0.0
C1308 C 0.86488 0.78232 0.21243 0.0
H1309 H 0.89498 0.72357 0.17732 0.0
H1310 H 0.89181 0.74855 0.23019 0.0
C1311 C 0.85133 0.79197 0.1829 0.0
C1312 C 0.17196 0.07894 0.82323 0.0
C1313 C 0.20177 0.07177 0.81682 0.0
H1314 H 0.12575 0.08755 0.8033 0.0
C1315 C 0.20553 0.06247 0.78528 0.0
H1316 H 0.16828 0.08603 0.84738 0.0
C1317 C 0.18089 0.06289 0.76017 0.0
C1318 C 0.15238 0.07296 0.76625 0.0
H1319 H 0.22819 0.05675 0.7797 0.0
H1320 H 0.18524 0.05771 0.73571 0.0
C1321 C 0.14758 0.07982 0.79809 0.0
C1322 C 0.84392 0.40637 0.4392 0.0
C1323 C 0.84682 0.38658 0.46395 0.0
H1324 H 0.83953 0.41211 0.38849 0.0
C1325 C 0.84581 0.35587 0.45523 0.0
H1326 H 0.84459 0.43019 0.44495 0.0
C1327 C 0.84246 0.34534 0.42263 0.0
C1328 C 0.84038 0.36532 0.39787 0.0
H1329 H 0.84793 0.33998 0.47361 0.0
H1330 H 0.8424 0.32164 0.41691 0.0
C1331 C 0.84094 0.39596 0.4067 0.0
C1332 C 0.66598 0.13699 0.29266 0.0
C1333 C 0.65084 0.16217 0.28975 0.0
H1334 H 0.69231 0.1079 0.27073 0.0
C1335 C 0.66018 0.18312 0.2674 0.0
H1336 H 0.66034 0.12107 0.31068 0.0
C1337 C 0.67997 0.17611 0.24465 0.0
C1338 C 0.68908 0.14742 0.24305 0.0
H1339 H 0.64995 0.20348 0.26559 0.0
H1340 H 0.68495 0.19182 0.22635 0.0
C1341 C 0.68489 0.12961 0.26954 0.0
C1342 C 0.88419 0.78122 0.95518 0.0
C1343 C 0.86637 0.75192 0.95878 0.0
H1344 H 0.89683 0.81798 0.92444 0.0
C1345 C 0.84708 0.73806 0.93013 0.0
H1346 H 0.8995 0.79335 0.97586 0.0
C1347 C 0.84553 0.75238 0.90018 0.0
C1348 C 0.86324 0.78167 0.89645 0.0
H1349 H 0.83274 0.71575 0.93075 0.0
H1350 H 0.83 0.7402 0.87966 0.0
C1351 C 0.88269 0.79559 0.92509 0.0
C1352 C 0.92449 0.1917 1.02095 0.0
C1353 C 0.89077 0.18255 1.01488 0.0
H1354 H 0.97091 0.18001 1.01717 0.0
C1355 C 0.87803 0.15401 0.99904 0.0
H1356 H 0.93501 0.21355 0.03309 0.0
C1357 C 0.89854 0.13482 0.98989 0.0
C1358 C 0.93227 0.14384 0.99613 0.0
H1359 H 0.85213 0.14631 0.99396 0.0
H1360 H 0.88798 0.11295 0.97783 0.0
C1361 C 0.94502 0.17258 1.01159 0.0
C1362 C 0.43866 0.53338 0.0657 0.0
C1363 C 0.42816 0.5029 0.05352 0.0
H1364 H 0.47755 0.57219 0.07506 0.0
C1365 C 0.45179 0.48934 0.0398 0.0
H1366 H 0.42189 0.54512 0.07652 0.0
C1367 C 0.48386 0.50531 0.03813 0.0
C1368 C 0.49458 0.53563 0.0508 0.0
H1369 H 0.4454 0.46612 0.02995 0.0
H1370 H 0.50059 0.49349 0.02735 0.0
C1371 C 0.47102 0.54912 0.0648 0.0
C1372 C 0.37916 0.61263 0.76418 0.0
C1373 C 0.40637 0.60595 0.78288 0.0
H1374 H 0.34083 0.63791 0.76151 0.0
C1375 C 0.4136 0.61714 0.81521 0.0
H1376 H 0.37292 0.60408 0.73923 0.0
C1377 C 0.39504 0.63628 0.82807 0.0
C1378 C 0.36897 0.64444 0.80878 0.0
H1379 H 0.43427 0.61201 0.83024 0.0
H1380 H 0.40178 0.64563 0.85271 0.0
C1381 C 0.36057 0.63172 0.77704 0.0
C1382 C 0.20914 0.68447 0.5302 0.0
C1383 C 0.23822 0.67663 0.54385 0.0
H1384 H 0.15812 0.6699 0.51619 0.0
C1385 C 0.23799 0.64698 0.55288 0.0
H1386 H 0.20864 0.70709 0.52276 0.0
C1387 C 0.20936 0.62573 0.54882 0.0
C1388 C 0.18012 0.6335 0.53559 0.0
H1389 H 0.26001 0.6401 0.56322 0.0
H1390 H 0.21016 0.60326 0.55659 0.0
C1391 C 0.18031 0.66308 0.52611 0.0
C1392 C 0.7168 0.94999 0.79052 0.0
C1393 C 0.70227 0.96805 0.81047 0.0
H1394 H 0.75885 0.93121 0.78387 0.0
C1395 C 0.71912 0.98012 0.84048 0.0
H1396 H 0.70444 0.94047 0.76724 0.0
C1397 C 0.75026 0.97471 0.85006 0.0
C1398 C 0.76521 0.95763 0.8295 0.0
H1399 H 0.70846 0.99415 0.85633 0.0
H1400 H 0.76295 0.98449 0.87311 0.0
C1401 C 0.74804 0.94499 0.79987 0.0
C1402 C 0.74592 1.0309 0.56457 0.0
C1403 C 0.74376 1.00048 0.55229 0.0
H1404 H 0.72231 0.06895 0.57405 0.0
C1405 C 0.71182 0.9863 0.539 0.0
H1406 H 0.76927 0.04341 0.5752 0.0
C1407 C 0.6843 1.00144 0.53785 0.0
C1408 C 0.68645 0.03181 0.55041 0.0
H1409 H 0.70791 0.96313 0.52911 0.0
H1410 H 0.66096 0.98894 0.52723 0.0
C1411 C 0.71836 0.04586 0.56391 0.0
C1412 C 0.39164 0.46598 0.76271 0.0
C1413 C 0.41974 0.47045 0.74747 0.0
H1414 H 0.35667 0.43456 0.78263 0.0
C1415 C 0.43346 0.44551 0.73883 0.0
H1416 H 0.38064 0.48493 0.76952 0.0
C1417 C 0.42016 0.41663 0.74702 0.0
C1418 C 0.39255 0.41233 0.7632 0.0
H1419 H 0.45529 0.44856 0.72723 0.0
H1420 H 0.43176 0.3978 0.74124 0.0
C1421 C 0.37793 0.43715 0.77015 0.0
C1422 C 0.14673 0.61671 0.24654 0.0
C1423 C 0.14465 0.60253 0.27551 0.0
H1424 H 0.16105 0.65758 0.22403 0.0
C1425 C 0.15511 0.61976 0.30482 0.0
H1426 H 0.13848 0.60407 0.22357 0.0
C1427 C 0.16866 0.65044 0.30505 0.0
C1428 C 0.17173 0.66443 0.27596 0.0
H1429 H 0.15381 0.60933 0.3275 0.0
H1430 H 0.17773 0.6629 0.32795 0.0
C1431 C 0.1599 0.64734 0.24678 0.0
C1432 C 0.52638 0.67864 0.47588 0.0
C1433 C 0.54508 0.69015 0.45223 0.0
H1434 H 0.52193 0.64924 0.51419 0.0
C1435 C 0.57594 0.68276 0.45125 0.0
H1436 H 0.50274 0.68428 0.4775 0.0
C1437 C 0.58723 0.66298 0.4727 0.0
C1438 C 0.56761 0.65021 0.49509 0.0
H1439 H 0.591 0.69167 0.43342 0.0
H1440 H 0.61038 0.65641 0.4706 0.0
C1441 C 0.53748 0.65877 0.497 0.0
C1442 C 0.76383 0.43534 0.78678 0.0
C1443 C 0.76778 0.44153 0.75468 0.0
H1444 H 0.77753 0.40991 0.82641 0.0
C1445 C 0.79577 0.43577 0.74237 0.0
H1446 H 0.7427 0.43982 0.79715 0.0
C1447 C 0.81612 0.41923 0.75961 0.0
C1448 C 0.80865 0.4084 0.78921 0.0
H1449 H 0.79964 0.44045 0.71786 0.0
H1450 H 0.83508 0.41155 0.74791 0.0
C1451 C 0.78383 0.41828 0.80372 0.0
C1452 C 1.00533 0.34572 0.95376 0.0
C1453 C 1.00711 0.33517 0.92209 0.0
H1454 H 1.00866 0.38429 0.98662 0.0
C1455 C 1.01193 0.35597 0.89842 0.0
H1456 H 1.00149 0.33013 0.97242 0.0
C1457 C 1.01653 0.3869 0.90665 0.0
C1458 C 1.01601 0.39755 0.93856 0.0
H1459 H 1.01354 0.34845 0.87381 0.0
H1460 H 1.02197 0.40251 0.88836 0.0
C1461 C 1.00966 0.37667 0.96191 0.0
C1462 C 0.0979 0.84637 0.23707 0.0
C1463 C 0.11201 0.87711 0.24189 0.0
H1464 H 0.06291 0.81047 0.25081 0.0
C1465 C 0.10249 0.89519 0.2659 0.0
H1466 H 0.10496 0.83191 0.2188 0.0
C1467 C 0.07865 0.88288 0.2843 0.0
C1468 C 0.06384 0.85235 0.27884 0.0
H1469 H 0.11309 0.91894 0.27016 0.0
H1470 H 0.07101 0.89751 0.30202 0.0
C1471 C 0.07389 0.83412 0.25532 0.0
C1472 C 0.5901 0.42886 0.09065 0.0
C1473 C 0.59359 0.42425 0.12431 0.0
H1474 H 0.58936 0.45947 0.05187 0.0
C1475 C 0.59936 0.45212 0.14384 0.0
H1476 H 0.58564 0.40924 0.07373 0.0
C1477 C 0.60123 0.48175 0.13098 0.0
C1478 C 0.59796 0.4864 0.09731 0.0
H1479 H 0.60232 0.45117 0.16974 0.0
H1480 H 0.60543 0.50134 0.14794 0.0
C1481 C 0.59236 0.45853 0.07778 0.0
C1482 C 0.99134 0.34381 0.39198 0.0
C1483 C 1.00946 0.32161 0.38357 0.0
H1484 H 0.94822 0.36331 0.38245 0.0
C1485 C 0.99444 0.30065 0.35755 0.0
H1486 H 1.00141 0.36057 0.41155 0.0
C1487 C 0.96286 0.30153 0.3414 0.0
C1488 C 0.94508 0.3242 0.34941 0.0
H1489 H 1.00694 0.28306 0.34993 0.0
H1490 H 0.95259 0.28462 0.32203 0.0
C1491 C 0.96044 0.34544 0.37501 0.0
C1492 C 0.09845 0.71132 0.64119 0.0
C1493 C 0.0871 0.73441 0.62303 0.0
H1494 H 0.10875 0.66555 0.64345 0.0
C1495 C 0.07694 0.72446 0.58995 0.0
H1496 H 0.10681 0.71654 0.66656 0.0
C1497 C 0.07792 0.69433 0.57638 0.0
C1498 C 0.0893 0.67123 0.59449 0.0
H1499 H 0.06795 0.74017 0.57404 0.0
H1500 H 0.06962 0.6892 0.55099 0.0
C1501 C 0.09961 0.68121 0.62758 0.0
C1502 C 0.69599 0.81082 0.85314 0.0
C1503 C 0.69686 0.82876 0.88233 0.0
H1504 H 0.72099 0.79602 0.81442 0.0
C1505 C 0.7277 0.84708 0.89278 0.0
H1506 H 0.67353 0.79616 0.84341 0.0
C1507 C 0.75539 0.84749 0.8754 0.0
C1508 C 0.75466 0.82918 0.84646 0.0
H1509 H 0.7306 0.86151 0.91471 0.0
H1510 H 0.77786 0.86211 0.8852 0.0
C1511 C 0.72383 0.81078 0.83611 0.0
C1512 C 0.52353 0.616 0.66188 0.0
C1513 C 0.49276 0.5975 0.65892 0.0
H1514 H 0.56595 0.63006 0.63918 0.0
C1515 C 0.4777 0.5854 0.62848 0.0
H1516 H 0.53548 0.62599 0.68514 0.0
C1517 C 0.49496 0.58814 0.60215 0.0
C1518 C 0.52761 0.60254 0.60621 0.0
H1519 H 0.45372 0.57162 0.62552 0.0
H1520 H 0.48368 0.57654 0.57935 0.0
C1521 C 0.54102 0.6184 0.63558 0.0
C1522 C 0.85777 0.29844 0.94983 0.0
C1523 C 0.82812 0.28574 0.95995 0.0
H1524 H 0.88247 0.31764 0.91183 0.0
C1525 C 0.79961 0.28443 0.93855 0.0
H1526 H 0.88021 0.29974 0.96556 0.0
C1527 C 0.80085 0.29471 0.90748 0.0
C1528 C 0.83066 0.30649 0.89698 0.0
H1529 H 0.77635 0.27468 0.94549 0.0
H1530 H 0.77851 0.29266 0.89142 0.0
C1531 C 0.85903 0.30863 0.91884 0.0
C1532 C 0.05256 0.5057 0.16505 0.0
C1533 C 0.07871 0.49191 0.1761 0.0
H1534 H 1.03315 0.53142 0.12848 0.0
C1535 C 0.1002 0.48565 0.15457 0.0
H1536 H 1.03538 0.51046 0.181 0.0
C1537 C 0.09846 0.49725 0.12419 0.0
C1538 C 0.07524 0.51503 0.11535 0.0
H1539 H 0.12049 0.47495 0.16242 0.0
H1540 H 0.11743 0.49533 0.10932 0.0
C1541 C 0.05114 0.51762 0.13498 0.0
C1542 C 0.81253 0.90394 0.43437 0.0
C1543 C 0.83375 0.90273 0.46298 0.0
H1544 H 0.79855 0.89077 0.38343 0.0
C1545 C 0.85872 0.88597 0.45914 0.0
H1546 H 0.7929 0.91634 0.43534 0.0
C1547 C 0.86258 0.87183 0.42873 0.0
C1548 C 0.84118 0.87269 0.40017 0.0
H1549 H 0.87596 0.88413 0.4798 0.0
H1550 H 0.88249 0.8598 0.42776 0.0
C1551 C 0.81581 0.88901 0.4041 0.0
C1552 C 0.58083 0.58307 0.79786 0.0
C1553 C 0.55952 0.55622 0.78666 0.0
H1554 H 0.62032 0.60411 0.8325 0.0
C1555 C 0.56622 0.52865 0.79698 0.0
H1556 H 0.57668 0.60454 0.78929 0.0
C1557 C 0.59042 0.52841 0.82242 0.0
C1558 C 0.6084 0.55582 0.83754 0.0
H1559 H 0.55044 0.50756 0.78812 0.0
H1560 H 0.59182 0.50697 0.83255 0.0
C1561 C 0.60575 0.58276 0.82263 0.0
C1562 C 0.84992 0.25578 0.16613 0.0
C1563 C 0.84559 0.27473 0.14077 0.0
H1564 H 0.85664 0.25171 0.21726 0.0
C1565 C 0.84638 0.30553 0.14871 0.0
H1566 H 0.84947 0.23192 0.16098 0.0
C1567 C 0.85086 0.31697 0.18103 0.0
C1568 C 0.85443 0.29792 0.2065 0.0
H1569 H 0.84322 0.32082 0.12991 0.0
H1570 H 0.85075 0.34075 0.18601 0.0
C1571 C 0.85412 0.26716 0.1985 0.0
C1572 C 0.05118 0.46722 0.35613 0.0
C1573 C 1.04112 0.47408 0.32477 0.0
H1574 H 1.04555 0.47375 0.40562 0.0
C1575 C 1.01053 0.48195 0.31777 0.0
H1576 H 0.0745 0.46067 0.362 0.0
C1577 C 0.99346 0.48899 0.34278 0.0
C1578 C 1.00746 0.48906 0.37484 0.0
H1579 H 1.00192 0.48662 0.29349 0.0
H1580 H 0.97209 0.49884 0.33716 0.0
C1581 C 1.03437 0.47474 0.38122 0.0
C1582 C 0.81723 0.87349 0.65222 0.0
C1583 C 0.83123 0.9044 0.6505 0.0
H1584 H 0.80723 0.83482 0.6809 0.0
C1585 C 0.84597 0.91923 0.68072 0.0
H1586 H 0.80554 0.86052 0.63032 0.0
C1587 C 0.84675 0.90428 0.71039 0.0
C1588 C 0.83296 0.87329 0.7121 0.0
H1589 H 0.85721 0.9428 0.68157 0.0
H1590 H 0.85867 0.91722 0.73222 0.0
C1591 C 0.81816 0.85849 0.68186 0.0
C1592 C 0.81278 0.50826 0.60203 0.0
C1593 C 0.79959 0.48048 0.58475 0.0
H1594 H 0.80427 0.55086 0.62069 0.0
C1595 C 0.76634 0.47415 0.57378 0.0
H1596 H 0.83833 0.51379 0.61086 0.0
C1597 C 0.74681 0.49542 0.57948 0.0
C1598 C 0.76017 0.52354 0.59611 0.0
H1599 H 0.7555 0.45297 0.56037 0.0
H1600 H 0.7214 0.49018 0.57004 0.0
C1601 C 0.79333 0.52958 0.60753 0.0
C1602 C 0.2582 0.12444 0.53592 0.0
C1603 C 0.27106 0.15283 0.55284 0.0
H1604 H 0.21732 0.08771 0.52345 0.0
C1605 C 0.24961 0.16471 0.57146 0.0
H1606 H 0.2732 0.11407 0.52114 0.0
C1607 C 0.21743 0.1492 0.57327 0.0
C1608 C 0.20432 0.121 0.55612 0.0
H1609 H 0.25777 0.1863 0.58501 0.0
H1610 H 0.20252 0.15976 0.58801 0.0
C1611 C 0.22569 0.10912 0.53727 0.0
C1612 C 0.386 0.06984 0.87624 0.0
C1613 C 0.35848 0.05748 0.89028 0.0
H1614 H 0.42556 0.06041 0.85214 0.0
C1615 C 0.35419 1.02719 0.89783 0.0
H1616 H 0.39008 0.0933 0.87057 0.0
C1617 C 0.37462 1.00855 0.88768 0.0
C1618 C 0.39939 1.01985 0.86941 0.0
H1619 H 0.33345 1.01727 0.90916 0.0
H1620 H 0.36851 0.98461 0.89096 0.0
C1621 C 0.40634 0.05107 0.86576 0.0
C1622 C 0.48418 0.97312 0.07899 0.0
C1623 C 0.45439 0.98262 0.07185 0.0
H1624 H 0.53602 0.98585 0.08513 0.0
C1625 C 0.45434 1.01332 0.06738 0.0
H1626 H 0.48494 0.94963 0.08275 0.0
C1627 C 0.48327 0.03389 0.0689 0.0
C1628 C 0.51313 1.02442 0.07506 0.0
H1629 H 0.43185 1.02151 0.06212 0.0
H1630 H 0.48216 0.0572 0.06449 0.0
C1631 C 0.51336 0.99389 0.08066 0.0
C1632 C 0.96484 0.66262 0.75124 0.0
C1633 C 0.98716 0.68426 0.77155 0.0
H1634 H 0.91806 0.65206 0.72327 0.0
C1635 C 0.9809 0.71366 0.77565 0.0
H1636 H 0.96905 0.63975 0.74755 0.0
C1637 C 0.95197 0.7208 0.76122 0.0
C1638 C 0.92858 0.69851 0.74286 0.0
H1639 H 0.99772 0.73079 0.79105 0.0
H1640 H 0.94699 0.74322 0.76622 0.0
C1641 C 0.93566 0.6696 0.73729 0.0
C1642 C 0.95453 0.62824 0.03679 0.0
C1643 C 0.95575 0.65703 0.05305 0.0
H1644 H 0.97928 0.59196 1.02334 0.0
C1645 C 0.98694 0.67004 0.06921 0.0
H1646 H 0.93176 0.61673 1.02379 0.0
C1647 C 1.01464 0.65532 0.0694 0.0
C1648 C 1.01353 0.62663 0.05295 0.0
H1649 H 0.99009 0.69192 0.08217 0.0
H1650 H 1.03736 0.66685 0.08247 0.0
C1651 C 0.98239 0.61374 0.0365 0.0
C1652 C 0.29374 0.19749 0.82794 0.0
C1653 C 0.30739 0.18981 0.85787 0.0
H1654 H 0.29085 0.23202 0.79504 0.0
C1655 C 0.32846 0.21206 0.87837 0.0
H1656 H 0.27716 0.18079 0.8118 0.0
C1657 C 0.33643 0.24136 0.86873 0.0
C1658 C 0.32315 0.24895 0.83857 0.0
H1659 H 0.33916 0.20674 0.90166 0.0
H1660 H 0.3532 0.25796 0.88479 0.0
C1661 C 0.30139 0.22686 0.81845 0.0
C1662 C 0.49458 0.06014 0.34669 0.0
C1663 C 0.52311 0.06794 0.33251 0.0
H1664 H 0.45762 1.02451 0.35752 0.0
C1665 C 0.53676 0.04497 0.31861 0.0
H1666 H 0.48357 0.07739 0.35763 0.0
C1667 C 0.52203 1.01469 0.31877 0.0
C1668 C 0.49317 1.00696 0.33241 0.0
H1669 H 0.55881 0.05037 0.3076 0.0
H1670 H 0.53285 0.99738 0.3077 0.0
C1671 C 0.47965 1.02994 0.34648 0.0
C1672 C 0.63988 0.47061 0.59922 0.0
C1673 C 0.63394 0.46897 0.63146 0.0
H1674 H 0.62792 0.48889 0.5539 0.0
C1675 C 0.60828 0.48142 0.64163 0.0
H1676 H 0.65928 0.46086 0.5907 0.0
C1677 C 0.59027 0.49694 0.62062 0.0
C1678 C 0.59716 0.49985 0.5889 0.0
H1679 H 0.60288 0.48021 0.66624 0.0
H1680 H 0.57215 0.5082 0.62968 0.0
C1681 C 0.62151 0.48595 0.578 0.0
C1682 C 0.42281 0.73608 0.30006 0.0
C1683 C 0.42278 0.72562 0.33115 0.0
H1684 H 0.40126 0.76295 0.26599 0.0
C1685 C 0.39485 0.72476 0.34652 0.0
H1686 H 0.44382 0.73668 0.2874 0.0
C1687 C 0.37024 0.73941 0.33387 0.0
C1688 C 0.37335 0.75475 0.30575 0.0
H1689 H 0.39396 0.7165 0.37033 0.0
H1690 H 0.35123 0.74236 0.34837 0.0
C1691 C 0.39834 0.751 0.2876 0.0
C1692 C 0.21804 0.81729 0.1634 0.0
C1693 C 0.19661 0.83296 0.14604 0.0
H1694 H 0.23158 0.77449 0.17165 0.0
C1695 C 0.17406 0.81752 0.12099 0.0
H1696 H 0.23575 0.82875 0.18278 0.0
C1697 C 0.17118 0.78645 0.11508 0.0
C1698 C 0.19111 0.77029 0.13384 0.0
H1699 H 0.15718 0.82904 0.10729 0.0
H1700 H 0.15201 0.77494 0.09705 0.0
C1701 C 0.21538 0.78619 0.15727 0.0
C1702 C 0.1237 0.28807 0.87212 0.0
C1703 C 0.09618 0.26954 0.85527 0.0
H1704 H 0.17148 0.31222 0.87005 0.0
C1705 C 0.09601 0.26062 0.82268 0.0
H1706 H 0.12441 0.29527 0.89727 0.0
C1707 C 0.12293 0.2705 0.80704 0.0
C1708 C 0.15041 0.28907 0.82396 0.0
H1709 H 0.07499 0.24636 0.8092 0.0
H1710 H 0.12242 0.26343 0.78188 0.0
C1711 C 0.15062 0.29767 0.85661 0.0
C1712 C 0.59938 0.7045 0.96272 0.0
C1713 C 0.60233 0.73238 0.98182 0.0
H1714 H 0.59554 0.65538 0.95928 0.0
C1715 C 0.60298 0.72775 1.01541 0.0
H1716 H 0.59869 0.7054 0.93689 0.0
C1717 C 0.60075 0.6982 0.02856 0.0
C1718 C 0.59794 0.6703 1.00953 0.0
H1719 H 0.60514 0.74731 0.03208 0.0
H1720 H 0.60147 0.69738 0.0544 0.0
C1721 C 0.59748 0.67492 0.97591 0.0
C1722 C 0.21288 0.85397 0.71432 0.0
C1723 C 0.1847 0.83687 0.72427 0.0
H1724 H 0.26491 0.86847 0.7223 0.0
C1725 C 0.18995 0.82071 0.75201 0.0
H1726 H 0.21058 0.86682 0.69326 0.0
C1727 C 0.22156 0.82118 0.7685 0.0
C1728 C 0.24976 0.83843 0.75872 0.0
H1729 H 0.16948 0.80709 0.76083 0.0
H1730 H 0.22384 0.8079 0.78923 0.0
C1731 C 0.24444 0.855 0.73126 0.0
C1732 C 0.11646 0.42973 0.5146 0.0
C1733 C 0.10779 0.41977 0.48132 0.0
H1734 H 0.12199 0.46504 0.55335 0.0
C1735 C 0.09702 0.44272 0.46255 0.0
H1736 H 0.12487 0.41407 0.53095 0.0
C1737 C 0.095 0.47269 0.47579 0.0
C1738 C 0.1039 0.48274 0.50905 0.0
H1739 H 0.08972 0.43746 0.43701 0.0
H1740 H 0.08634 0.48825 0.45947 0.0
C1741 C 0.11476 0.45982 0.52779 0.0
C1742 C 0.46623 0.31442 0.21004 0.0
C1743 C 0.4983 0.32708 0.22405 0.0
H1744 H 0.41489 0.30413 0.21425 0.0
C1745 C 0.50019 0.33948 0.25638 0.0
H1746 H 0.46244 0.30459 0.18552 0.0
C1747 C 0.47216 0.33944 0.27322 0.0
C1748 C 0.44011 0.32643 0.25925 0.0
H1749 H 0.52368 0.3497 0.26888 0.0
H1750 H 0.47581 0.34956 0.29762 0.0
C1751 C 0.43836 0.31398 0.22701 0.0
C1752 C 0.70049 0.55509 0.46958 0.0
C1753 C 0.70301 0.58071 0.45169 0.0
H1754 H 0.67164 0.52712 0.49951 0.0
C1755 C 0.67707 0.59634 0.44758 0.0
H1756 H 0.72011 0.54252 0.47253 0.0
C1757 C 0.64903 0.58671 0.46134 0.0
C1758 C 0.64685 0.5618 0.48022 0.0
H1759 H 0.67825 0.61578 0.43321 0.0
H1760 H 0.62967 0.59961 0.4584 0.0
C1761 C 0.67276 0.54608 0.48444 0.0
C1762 C 0.32508 0.86587 0.15754 0.0
C1763 C 0.35579 0.87635 0.14835 0.0
H1764 H 0.29764 0.8488 0.1947 0.0
C1765 C 0.3832 0.87604 0.17078 0.0
H1766 H 0.30341 0.86589 0.14105 0.0
C1767 C 0.37992 0.86629 0.20184 0.0
C1768 C 0.34912 0.85657 0.21133 0.0
H1769 H 0.40724 0.88413 0.16464 0.0
H1770 H 0.40154 0.86698 0.21861 0.0
C1771 C 0.3218 0.85612 0.1885 0.0
C1772 C 0.07145 0.66858 0.94956 0.0
C1773 C 0.09191 0.67003 0.92539 0.0
H1774 H 0.06284 0.65309 0.99591 0.0
C1775 C 0.12229 0.66139 0.93175 0.0
H1776 H 0.04787 0.6749 0.94514 0.0
C1777 C 0.13021 0.64786 0.9601 0.0
C1778 C 0.10853 0.64413 0.98299 0.0
H1779 H 0.13846 0.66203 0.91344 0.0
H1780 H 0.15226 0.63863 0.96324 0.0
C1781 C 0.07997 0.65606 0.97847 0.0
C1782 C 0.35537 0.28043 0.64732 0.0
C1783 C 0.37162 0.25556 0.64445 0.0
H1784 H 0.33987 0.31384 0.67799 0.0
C1785 C 0.38576 0.24683 0.67418 0.0
H1786 H 0.34384 0.28832 0.62575 0.0
C1787 C 0.38397 0.26209 0.70467 0.0
C1788 C 0.36731 0.2867 0.70756 0.0
H1789 H 0.39852 0.228 0.67397 0.0
H1790 H 0.39541 0.25413 0.72624 0.0
C1791 C 0.35301 0.29528 0.67783 0.0
C1792 C 0.66229 0.56868 0.30733 0.0
C1793 C 0.68766 0.59378 0.31196 0.0
H1794 H 0.61632 0.54903 0.28055 0.0
C1795 C 0.68499 0.6194 0.2949 0.0
H1796 H 0.66374 0.5488 0.32056 0.0
C1797 C 0.65789 0.61988 0.27315 0.0
C1798 C 0.63283 0.59461 0.26755 0.0
H1799 H 0.70393 0.63927 0.29831 0.0
H1800 H 0.65736 0.63969 0.25957 0.0
C1801 C 0.63514 0.56894 0.28485 0.0
C1802 C 0.35457 0.91034 0.94295 0.0
C1803 C 0.34863 0.8901 0.96711 0.0
H1804 H 0.35723 0.91628 0.89273 0.0
C1805 C 0.33891 0.85915 0.95757 0.0
H1806 H 0.36213 0.93434 0.94926 0.0
C1807 C 0.33546 0.84878 0.92484 0.0
C1808 C 0.34217 0.869 0.90076 0.0
H1809 H 0.33409 0.8429 0.97542 0.0
H1810 H 0.3284 0.82475 0.91852 0.0
C1811 C 0.3517 0.89996 0.91038 0.0
C1812 C 0.16052 0.63134 0.79294 0.0
C1813 C 0.14559 0.65665 0.79018 0.0
H1814 H 0.18718 0.60251 0.77109 0.0
C1815 C 0.15551 0.67797 0.76839 0.0
H1816 H 0.15441 0.6151 0.81053 0.0
C1817 C 0.17581 0.67132 0.746 0.0
C1818 C 0.18482 0.64259 0.74411 0.0
H1819 H 0.14547 0.69844 0.76677 0.0
H1820 H 0.18132 0.68737 0.72815 0.0
C1821 C 0.17991 0.62429 0.77012 0.0
C1822 C 0.38504 0.2823 0.45258 0.0
C1823 C 0.36742 0.25291 0.4562 0.0
H1824 H 0.39716 0.31921 0.42188 0.0
C1825 C 0.34793 0.23907 0.42766 0.0
H1826 H 0.40047 0.29442 0.47319 0.0
C1827 C 0.34603 0.25347 0.39779 0.0
C1828 C 0.36352 0.28286 0.39403 0.0
H1829 H 0.33372 0.21671 0.42831 0.0
H1830 H 0.33039 0.24128 0.37735 0.0
C1831 C 0.38316 0.29677 0.42256 0.0
C1832 C 0.36591 0.64223 0.50579 0.0
C1833 C 0.38265 0.67114 0.51771 0.0
H1834 H 0.36902 0.59759 0.488 0.0
C1835 C 0.41656 0.67708 0.52014 0.0
H1836 H 0.33974 0.63689 0.50361 0.0
C1837 C 0.43333 0.65449 0.51093 0.0
C1838 C 0.41653 0.62545 0.49942 0.0
H1839 H 0.43012 0.6991 0.52925 0.0
H1840 H 0.45951 0.65955 0.5135 0.0
C1841 C 0.38264 0.61962 0.49695 0.0
C1842 C 0.94303 0.03346 0.5748 0.0
C1843 C 0.92995 1.00622 0.55583 0.0
H1844 H 0.98416 0.06933 0.58974 0.0
C1845 C 0.95125 0.99564 0.536 0.0
H1846 H 0.92816 0.04279 0.59058 0.0
C1847 C 0.98357 1.01125 0.53511 0.0
C1848 C 0.99689 0.03827 0.55435 0.0
H1849 H 0.94289 0.97495 0.52088 0.0
H1850 H 0.99841 1.00168 0.51948 0.0
C1851 C 0.97561 0.04889 0.57428 0.0
C1852 C 0.88062 0.10618 0.26958 0.0
C1853 C 0.90861 0.10132 0.28843 0.0
H1854 H 0.8416 0.1306 0.26544 0.0
C1855 C 0.91637 0.11465 0.31996 0.0
H1856 H 0.87396 0.09594 0.24528 0.0
C1857 C 0.89766 0.13427 0.33163 0.0
C1858 C 0.87092 0.14077 0.31195 0.0
H1859 H 0.93763 0.11093 0.33513 0.0
H1860 H 0.90487 0.14537 0.35551 0.0
C1861 C 0.8619 0.12576 0.28125 0.0
C1862 C 0.73884 0.1473 0.04547 0.0
C1863 C 0.73855 0.17747 0.0386 0.0
H1864 H 0.71126 0.10338 0.04903 0.0
C1865 C 0.70883 0.18597 0.02821 0.0
H1866 H 0.76134 0.13995 0.05331 0.0
C1867 C 0.67992 0.16476 0.02538 0.0
C1868 C 0.68024 0.13474 0.03304 0.0
H1869 H 0.70788 0.20901 1.02251 0.0
H1870 H 0.65729 0.17211 1.01812 0.0
C1871 C 0.71009 0.12625 0.04283 0.0
C1872 C 0.21787 0.48891 0.33401 0.0
C1873 C 0.20516 0.48863 0.30144 0.0
H1874 H 0.25693 0.47984 0.36751 0.0
C1875 C 0.22425 0.48273 0.27751 0.0
H1876 H 0.20373 0.49375 0.35294 0.0
C1877 C 0.2547 0.47562 0.28581 0.0
C1878 C 0.26659 0.47375 0.31822 0.0
H1879 H 0.21541 0.48301 0.25223 0.0
H1880 H 0.2684 0.47015 0.26672 0.0
C1881 C 0.2484 0.48137 0.34237 0.0
C1882 C 0.2101 0.48661 0.03152 0.0
C1883 C 0.24116 0.49924 0.04839 0.0
H1884 H 0.15989 0.49039 1.01737 0.0
C1885 C 0.2424 0.52803 0.06457 0.0
H1886 H 0.20693 0.46473 1.01855 0.0
C1887 C 0.21483 0.54295 0.06407 0.0
C1888 C 0.18378 0.53043 0.04714 0.0
H1889 H 0.26502 0.53929 0.07806 0.0
H1890 H 0.21808 0.56475 0.07721 0.0
C1891 C 0.18253 0.50166 0.03081 0.0
C1892 C 0.93353 0.94186 0.24589 0.0
C1893 C 0.92402 0.96747 0.25941 0.0
H1894 H 0.92725 0.89347 0.24316 0.0
C1895 C 0.899 0.964 0.27887 0.0
H1896 H 0.95292 0.94418 0.2309 0.0
C1897 C 0.88394 0.9353 0.28522 0.0
C1898 C 0.89426 0.90963 0.2729 0.0
H1899 H 0.89124 0.98352 0.28941 0.0
H1900 H 0.865 0.93329 0.30074 0.0
C1901 C 0.91901 0.91303 0.253 0.0
C1902 C 0.65965 0.1091 0.80478 0.0
C1903 C 0.65343 0.09108 0.77567 0.0
H1904 H 0.67763 0.15328 0.828 0.0
C1905 C 0.65991 0.10449 0.74698 0.0
H1906 H 0.6549 0.09931 0.82724 0.0
C1907 C 0.6726 0.13527 0.74738 0.0
C1908 C 0.6794 0.15324 0.77653 0.0
H1909 H 0.65533 0.09116 0.72418 0.0
H1910 H 0.67783 0.14486 0.72493 0.0
C1911 C 0.67275 0.13989 0.80523 0.0
loop_
_geom_bond_atom_site_label_1
_geom_bond_atom_site_label_2
_geom_bond_distance
_geom_bond_site_symmetry_2
_ccdc_geom_bond_type
In0 O1 2.294 . S
In0 O2 2.326 . S
In0 O6 2.266 . S
In0 O7 2.326 . S
In0 O8 2.266 . S
In0 O9 2.326 . S
In0 O11 2.294 . S
In0 O12 2.326 . S
O1 In0 2.294 . S
O1 C10 1.240 . S
O2 In0 2.326 . S
O2 C10 1.252 . S
C3 O6 1.252 1_655 S
C3 O7 1.260 1_655 S
C4 O11 1.240 . S
C4 O12 1.252 . S
C5 O8 1.252 . S
C5 O9 1.260 . S
O6 In0 2.266 . S
O6 C3 1.252 1_455 S
O7 In0 2.326 . S
O7 C3 1.260 1_455 S
O8 In0 2.266 . S
O8 C5 1.252 . S
O9 In0 2.326 . S
O9 C5 1.260 . S
C10 O1 1.240 . S
C10 O2 1.252 . S
O11 In0 2.294 . S
O11 C4 1.240 . S
O12 In0 2.326 . S
O12 C4 1.252 . S
In13 O14 2.294 . S
In13 O15 2.326 . S
In13 O19 2.266 . S
In13 O20 2.326 . S
In13 O21 2.266 . S
In13 O22 2.326 1_455 S
In13 O24 2.294 . S
In13 O25 2.326 . S
O14 In13 2.294 . S
O14 C23 1.240 . S
O15 In13 2.326 . S
O15 C23 1.252 . S
C16 O19 1.252 . S
C16 O20 1.260 . S
C17 O24 1.240 . S
C17 O25 1.252 . S
C18 O21 1.252 1_655 S
C18 O22 1.260 . S
O19 In13 2.266 . S
O19 C16 1.252 . S
O20 In13 2.326 . S
O20 C16 1.260 . S
O21 In13 2.266 . S
O21 C18 1.252 1_455 S
O22 In13 2.326 1_655 S
O22 C18 1.260 . S
C23 O14 1.240 . S
C23 O15 1.252 . S
O24 In13 2.294 . S
O24 C17 1.240 . S
O25 In13 2.326 . S
O25 C17 1.252 . S
In26 O27 2.294 . S
In26 O28 2.326 . S
In26 O32 2.266 . S
In26 O33 2.326 . S
In26 O34 2.266 . S
In26 O35 2.326 . S
In26 O37 2.294 . S
In26 O38 2.326 . S
O27 In26 2.294 . S
O27 C36 1.240 . S
O28 In26 2.326 . S
O28 C36 1.252 . S
C29 O32 1.252 . S
C29 O33 1.260 . S
C30 O37 1.240 . S
C30 O38 1.252 . S
C31 O34 1.252 . S
C31 O35 1.260 . S
O32 In26 2.266 . S
O32 C29 1.252 . S
O33 In26 2.326 . S
O33 C29 1.260 . S
O34 In26 2.266 . S
O34 C31 1.252 . S
O35 In26 2.326 . S
O35 C31 1.260 . S
C36 O27 1.240 . S
C36 O28 1.252 . S
O37 In26 2.294 . S
O37 C30 1.240 . S
O38 In26 2.326 . S
O38 C30 1.252 . S
In39 O40 2.294 . S
In39 O41 2.326 . S
In39 O45 2.266 . S
In39 O46 2.326 . S
In39 O47 2.266 . S
In39 O48 2.326 . S
In39 O50 2.294 . S
In39 O51 2.326 . S
O40 In39 2.294 . S
O40 C49 1.240 . S
O41 In39 2.326 . S
O41 C49 1.252 . S
C42 O45 1.252 . S
C42 O46 1.260 . S
C43 O50 1.240 . S
C43 O51 1.252 . S
C44 O47 1.252 . S
C44 O48 1.260 . S
O45 In39 2.266 . S
O45 C42 1.252 . S
O46 In39 2.326 . S
O46 C42 1.260 . S
O47 In39 2.266 . S
O47 C44 1.252 . S
O48 In39 2.326 . S
O48 C44 1.260 . S
C49 O40 1.240 . S
C49 O41 1.252 . S
O50 In39 2.294 . S
O50 C43 1.240 . S
O51 In39 2.326 . S
O51 C43 1.252 . S
In52 O53 2.294 . S
In52 O54 2.326 . S
In52 O58 2.266 . S
In52 O59 2.326 . S
In52 O60 2.266 . S
In52 O61 2.326 . S
In52 O63 2.294 . S
In52 O64 2.326 . S
O53 In52 2.294 . S
O53 C62 1.240 . S
O54 In52 2.326 . S
O54 C62 1.252 . S
C55 O58 1.252 . S
C55 O59 1.260 . S
C56 O63 1.240 . S
C56 O64 1.252 . S
C57 O60 1.252 . S
C57 O61 1.260 . S
O58 In52 2.266 . S
O58 C55 1.252 . S
O59 In52 2.326 . S
O59 C55 1.260 . S
O60 In52 2.266 . S
O60 C57 1.252 . S
O61 In52 2.326 . S
O61 C57 1.260 . S
C62 O53 1.240 . S
C62 O54 1.252 . S
O63 In52 2.294 . S
O63 C56 1.240 . S
O64 In52 2.326 . S
O64 C56 1.252 . S
In65 O66 2.294 . S
In65 O67 2.326 . S
In65 O71 2.266 . S
In65 O72 2.326 . S
In65 O73 2.266 . S
In65 O74 2.326 . S
In65 O76 2.294 . S
In65 O77 2.326 . S
O66 In65 2.294 . S
O66 C75 1.240 . S
O67 In65 2.326 . S
O67 C75 1.252 . S
C68 O71 1.252 . S
C68 O72 1.260 . S
C69 O76 1.240 . S
C69 O77 1.252 . S
C70 O73 1.252 . S
C70 O74 1.260 . S
O71 In65 2.266 . S
O71 C68 1.252 . S
O72 In65 2.326 . S
O72 C68 1.260 . S
O73 In65 2.266 . S
O73 C70 1.252 . S
O74 In65 2.326 . S
O74 C70 1.260 . S
C75 O66 1.240 . S
C75 O67 1.252 . S
O76 In65 2.294 . S
O76 C69 1.240 . S
O77 In65 2.326 . S
O77 C69 1.252 . S
In78 O79 2.294 . S
In78 O80 2.326 . S
In78 O84 2.266 . S
In78 O85 2.326 . S
In78 O86 2.266 . S
In78 O87 2.326 . S
In78 O89 2.294 . S
In78 O90 2.326 . S
O79 In78 2.294 . S
O79 C88 1.240 . S
O80 In78 2.326 . S
O80 C88 1.252 . S
C81 O84 1.252 . S
C81 O85 1.260 . S
C82 O89 1.240 . S
C82 O90 1.252 . S
C83 O86 1.252 . S
C83 O87 1.260 . S
O84 In78 2.266 . S
O84 C81 1.252 . S
O85 In78 2.326 . S
O85 C81 1.260 . S
O86 In78 2.266 . S
O86 C83 1.252 . S
O87 In78 2.326 . S
O87 C83 1.260 . S
C88 O79 1.240 . S
C88 O80 1.252 . S
O89 In78 2.294 . S
O89 C82 1.240 . S
O90 In78 2.326 . S
O90 C82 1.252 . S
In91 O92 2.294 . S
In91 O93 2.333 1_455 S
In91 O97 2.265 . S
In91 O98 2.331 . S
In91 O99 2.264 1_455 S
In91 O100 2.323 1_455 S
In91 O102 2.296 . S
In91 O103 2.329 . S
O92 In91 2.294 . S
O92 C101 1.240 . S
O93 In91 2.333 1_655 S
O93 C101 1.251 1_655 S
C94 O97 1.252 . S
C94 O98 1.255 . S
C95 O102 1.240 . S
C95 O103 1.252 . S
C96 O99 1.252 . S
C96 O100 1.260 . S
O97 In91 2.265 . S
O97 C94 1.252 . S
O98 In91 2.331 . S
O98 C94 1.255 . S
O99 In91 2.264 1_655 S
O99 C96 1.252 . S
O100 In91 2.323 1_655 S
O100 C96 1.260 . S
C101 O92 1.240 . S
C101 O93 1.251 1_455 S
O102 In91 2.296 . S
O102 C95 1.240 . S
O103 In91 2.329 . S
O103 C95 1.252 . S
In104 O105 2.294 . S
In104 O106 2.326 . S
In104 O110 2.266 . S
In104 O111 2.326 . S
In104 O112 2.266 . S
In104 O113 2.326 . S
In104 O115 2.294 . S
In104 O116 2.326 . S
O105 In104 2.294 . S
O105 C114 1.240 . S
O106 In104 2.326 . S
O106 C114 1.252 . S
C107 O110 1.252 . S
C107 O111 1.260 . S
C108 O115 1.240 . S
C108 O116 1.252 . S
C109 O112 1.252 . S
C109 O113 1.260 . S
O110 In104 2.266 . S
O110 C107 1.252 . S
O111 In104 2.326 . S
O111 C107 1.260 . S
O112 In104 2.266 . S
O112 C109 1.252 . S
O113 In104 2.326 . S
O113 C109 1.260 . S
C114 O105 1.240 . S
C114 O106 1.252 . S
O115 In104 2.294 . S
O115 C108 1.240 . S
O116 In104 2.326 . S
O116 C108 1.252 . S
In117 O118 2.294 . S
In117 O119 2.326 . S
In117 O123 2.266 . S
In117 O124 2.326 . S
In117 O125 2.266 . S
In117 O126 2.326 . S
In117 O128 2.294 . S
In117 O129 2.326 . S
O118 In117 2.294 . S
O118 C127 1.240 . S
O119 In117 2.326 . S
O119 C127 1.252 . S
C120 O123 1.252 . S
C120 O124 1.260 . S
C121 O128 1.240 . S
C121 O129 1.252 . S
C122 O125 1.252 . S
C122 O126 1.260 . S
O123 In117 2.266 . S
O123 C120 1.252 . S
O124 In117 2.326 . S
O124 C120 1.260 . S
O125 In117 2.266 . S
O125 C122 1.252 . S
O126 In117 2.326 . S
O126 C122 1.260 . S
C127 O118 1.240 . S
C127 O119 1.252 . S
O128 In117 2.294 . S
O128 C121 1.240 . S
O129 In117 2.326 . S
O129 C121 1.252 . S
In130 O131 2.294 . S
In130 O132 2.326 . S
In130 O136 2.266 . S
In130 O137 2.326 . S
In130 O138 2.266 . S
In130 O139 2.326 . S
In130 O141 2.294 . S
In130 O142 2.326 . S
O131 In130 2.294 . S
O131 C140 1.240 . S
O132 In130 2.326 . S
O132 C140 1.252 . S
C133 O136 1.252 . S
C133 O137 1.260 . S
C134 O141 1.240 . S
C134 O142 1.252 . S
C135 O138 1.252 . S
C135 O139 1.260 . S
O136 In130 2.266 . S
O136 C133 1.252 . S
O137 In130 2.326 . S
O137 C133 1.260 . S
O138 In130 2.266 . S
O138 C135 1.252 . S
O139 In130 2.326 . S
O139 C135 1.260 . S
C140 O131 1.240 . S
C140 O132 1.252 . S
O141 In130 2.294 . S
O141 C134 1.240 . S
O142 In130 2.326 . S
O142 C134 1.252 . S
In143 O144 2.294 . S
In143 O145 2.326 . S
In143 O149 2.266 . S
In143 O150 2.326 . S
In143 O151 2.266 . S
In143 O152 2.326 . S
In143 O154 2.294 . S
In143 O155 2.326 . S
O144 In143 2.294 . S
O144 C153 1.240 . S
O145 In143 2.326 . S
O145 C153 1.252 . S
C146 O149 1.252 . S
C146 O150 1.260 . S
C147 O154 1.240 . S
C147 O155 1.252 . S
C148 O151 1.252 . S
C148 O152 1.260 . S
O149 In143 2.266 . S
O149 C146 1.252 . S
O150 In143 2.326 . S
O150 C146 1.260 . S
O151 In143 2.266 . S
O151 C148 1.252 . S
O152 In143 2.326 . S
O152 C148 1.260 . S
C153 O144 1.240 . S
C153 O145 1.252 . S
O154 In143 2.294 . S
O154 C147 1.240 . S
O155 In143 2.326 . S
O155 C147 1.252 . S
In156 O157 2.294 . S
In156 O158 2.326 . S
In156 O162 2.266 1_554 S
In156 O163 2.326 1_554 S
In156 O164 2.266 . S
In156 O165 2.326 . S
In156 O167 2.294 . S
In156 O168 2.326 . S
O157 In156 2.294 . S
O157 C166 1.240 . S
O158 In156 2.326 . S
O158 C166 1.252 . S
C159 O162 1.252 . S
C159 O163 1.260 . S
C160 O167 1.240 . S
C160 O168 1.252 . S
C161 O164 1.252 . S
C161 O165 1.260 . S
O162 In156 2.266 1_556 S
O162 C159 1.252 . S
O163 In156 2.326 1_556 S
O163 C159 1.260 . S
O164 In156 2.266 . S
O164 C161 1.252 . S
O165 In156 2.326 . S
O165 C161 1.260 . S
C166 O157 1.240 . S
C166 O158 1.252 . S
O167 In156 2.294 . S
O167 C160 1.240 . S
O168 In156 2.326 . S
O168 C160 1.252 . S
In169 O170 2.297 . S
In169 O171 2.327 . S
In169 O175 2.264 1_554 S
In169 O176 2.325 1_554 S
In169 O177 2.249 1_554 S
In169 O178 2.299 1_554 S
In169 O180 2.311 . S
In169 O181 2.353 . S
O170 In169 2.297 . S
O170 C179 1.240 . S
O171 In169 2.327 . S
O171 C179 1.252 . S
C172 O175 1.252 . S
C172 O176 1.260 . S
C173 O180 1.240 . S
C173 O181 1.252 . S
C174 O177 1.252 . S
C174 O178 1.260 . S
O175 In169 2.264 1_556 S
O175 C172 1.252 . S
O176 In169 2.325 1_556 S
O176 C172 1.260 . S
O177 In169 2.249 1_556 S
O177 C174 1.252 . S
O178 In169 2.299 1_556 S
O178 C174 1.260 . S
C179 O170 1.240 . S
C179 O171 1.252 . S
O180 In169 2.311 . S
O180 C173 1.240 . S
O181 In169 2.353 . S
O181 C173 1.252 . S
In182 O183 2.294 . S
In182 O184 2.326 . S
In182 O188 2.266 . S
In182 O189 2.326 . S
In182 O190 2.266 . S
In182 O191 2.326 . S
In182 O193 2.294 . S
In182 O194 2.326 . S
O183 In182 2.294 . S
O183 C192 1.240 . S
O184 In182 2.326 . S
O184 C192 1.252 . S
C185 O188 1.252 . S
C185 O189 1.260 . S
C186 O193 1.240 . S
C186 O194 1.252 . S
C187 O190 1.252 . S
C187 O191 1.260 . S
O188 In182 2.266 . S
O188 C185 1.252 . S
O189 In182 2.326 . S
O189 C185 1.260 . S
O190 In182 2.266 . S
O190 C187 1.252 . S
O191 In182 2.326 . S
O191 C187 1.260 . S
C192 O183 1.240 . S
C192 O184 1.252 . S
O193 In182 2.294 . S
O193 C186 1.240 . S
O194 In182 2.326 . S
O194 C186 1.252 . S
In195 O196 2.294 . S
In195 O197 2.326 . S
In195 O201 2.266 . S
In195 O202 2.326 . S
In195 O203 2.266 . S
In195 O204 2.326 . S
In195 O206 2.294 . S
In195 O207 2.326 . S
O196 In195 2.294 . S
O196 C205 1.240 . S
O197 In195 2.326 . S
O197 C205 1.252 . S
C198 O201 1.252 . S
C198 O202 1.260 . S
C199 O206 1.240 . S
C199 O207 1.252 . S
C200 O203 1.252 . S
C200 O204 1.260 . S
O201 In195 2.266 . S
O201 C198 1.252 . S
O202 In195 2.326 . S
O202 C198 1.260 . S
O203 In195 2.266 . S
O203 C200 1.252 . S
O204 In195 2.326 . S
O204 C200 1.260 . S
C205 O196 1.240 . S
C205 O197 1.252 . S
O206 In195 2.294 . S
O206 C199 1.240 . S
O207 In195 2.326 . S
O207 C199 1.252 . S
In208 O209 2.294 . S
In208 O210 2.327 . S
In208 O214 2.267 . S
In208 O215 2.325 1_545 S
In208 O216 2.264 1_545 S
In208 O217 2.322 1_545 S
In208 O219 2.296 . S
In208 O220 2.330 . S
O209 In208 2.294 . S
O209 C218 1.240 . S
O210 In208 2.327 . S
O210 C218 1.252 . S
C211 O214 1.252 1_565 S
C211 O215 1.260 . S
C212 O219 1.240 . S
C212 O220 1.252 . S
C213 O216 1.252 . S
C213 O217 1.260 . S
O214 In208 2.267 . S
O214 C211 1.252 1_545 S
O215 In208 2.325 1_565 S
O215 C211 1.260 . S
O216 In208 2.264 1_565 S
O216 C213 1.252 . S
O217 In208 2.322 1_565 S
O217 C213 1.260 . S
C218 O209 1.240 . S
C218 O210 1.252 . S
O219 In208 2.296 . S
O219 C212 1.240 . S
O220 In208 2.330 . S
O220 C212 1.252 . S
In221 O222 2.294 . S
In221 O223 2.326 . S
In221 O227 2.266 . S
In221 O228 2.326 . S
In221 O229 2.266 . S
In221 O230 2.326 . S
In221 O232 2.294 . S
In221 O233 2.326 . S
O222 In221 2.294 . S
O222 C231 1.240 . S
O223 In221 2.326 . S
O223 C231 1.252 . S
C224 O227 1.252 . S
C224 O228 1.260 . S
C225 O232 1.240 . S
C225 O233 1.252 . S
C226 O229 1.252 . S
C226 O230 1.260 . S
O227 In221 2.266 . S
O227 C224 1.252 . S
O228 In221 2.326 . S
O228 C224 1.260 . S
O229 In221 2.266 . S
O229 C226 1.252 . S
O230 In221 2.326 . S
O230 C226 1.260 . S
C231 O222 1.240 . S
C231 O223 1.252 . S
O232 In221 2.294 . S
O232 C225 1.240 . S
O233 In221 2.326 . S
O233 C225 1.252 . S
In234 O235 2.294 . S
In234 O236 2.326 . S
In234 O240 2.266 . S
In234 O241 2.326 . S
In234 O242 2.266 . S
In234 O243 2.326 . S
In234 O245 2.294 . S
In234 O246 2.326 . S
O235 In234 2.294 . S
O235 C244 1.240 . S
O236 In234 2.326 . S
O236 C244 1.252 . S
C237 O240 1.252 . S
C237 O241 1.260 . S
C238 O245 1.240 . S
C238 O246 1.252 . S
C239 O242 1.252 . S
C239 O243 1.260 . S
O240 In234 2.266 . S
O240 C237 1.252 . S
O241 In234 2.326 . S
O241 C237 1.260 . S
O242 In234 2.266 . S
O242 C239 1.252 . S
O243 In234 2.326 . S
O243 C239 1.260 . S
C244 O235 1.240 . S
C244 O236 1.252 . S
O245 In234 2.294 . S
O245 C238 1.240 . S
O246 In234 2.326 . S
O246 C238 1.252 . S
In247 O248 2.294 1_545 S
In247 O249 2.326 1_545 S
In247 O253 2.266 . S
In247 O254 2.326 . S
In247 O255 2.266 . S
In247 O256 2.326 . S
In247 O258 2.294 . S
In247 O259 2.326 . S
O248 In247 2.294 1_565 S
O248 C257 1.240 . S
O249 In247 2.326 1_565 S
O249 C257 1.252 . S
C250 O253 1.252 . S
C250 O254 1.260 . S
C251 O258 1.240 . S
C251 O259 1.252 . S
C252 O255 1.252 . S
C252 O256 1.260 . S
O253 In247 2.266 . S
O253 C250 1.252 . S
O254 In247 2.326 . S
O254 C250 1.260 . S
O255 In247 2.266 . S
O255 C252 1.252 . S
O256 In247 2.326 . S
O256 C252 1.260 . S
C257 O248 1.240 . S
C257 O249 1.252 . S
O258 In247 2.294 . S
O258 C251 1.240 . S
O259 In247 2.326 . S
O259 C251 1.252 . S
In260 O261 2.294 . S
In260 O262 2.326 . S
In260 O266 2.266 . S
In260 O267 2.326 . S
In260 O268 2.266 1_554 S
In260 O269 2.326 1_554 S
In260 O271 2.294 . S
In260 O272 2.326 . S
O261 In260 2.294 . S
O261 C270 1.240 . S
O262 In260 2.326 . S
O262 C270 1.252 . S
C263 O266 1.252 . S
C263 O267 1.260 . S
C264 O271 1.240 . S
C264 O272 1.252 . S
C265 O268 1.252 . S
C265 O269 1.260 . S
O266 In260 2.266 . S
O266 C263 1.252 . S
O267 In260 2.326 . S
O267 C263 1.260 . S
O268 In260 2.266 1_556 S
O268 C265 1.252 . S
O269 In260 2.326 1_556 S
O269 C265 1.260 . S
C270 O261 1.240 . S
C270 O262 1.252 . S
O271 In260 2.294 . S
O271 C264 1.240 . S
O272 In260 2.326 . S
O272 C264 1.252 . S
In273 O274 2.294 . S
In273 O275 2.326 1_655 S
In273 O279 2.266 . S
In273 O280 2.326 1_655 S
In273 O281 2.266 1_655 S
In273 O282 2.326 . S
In273 O284 2.294 1_655 S
In273 O285 2.326 . S
O274 In273 2.294 . S
O274 C283 1.240 . S
O275 In273 2.326 1_455 S
O275 C283 1.252 1_455 S
C276 O279 1.252 . S
C276 O280 1.260 1_655 S
C277 O284 1.240 . S
C277 O285 1.252 1_455 S
C278 O281 1.252 . S
C278 O282 1.260 1_455 S
O279 In273 2.266 . S
O279 C276 1.252 . S
O280 In273 2.326 1_455 S
O280 C276 1.260 1_455 S
O281 In273 2.266 1_455 S
O281 C278 1.252 . S
O282 In273 2.326 . S
O282 C278 1.260 1_655 S
C283 O274 1.240 . S
C283 O275 1.252 1_655 S
O284 In273 2.294 1_455 S
O284 C277 1.240 . S
O285 In273 2.326 . S
O285 C277 1.252 1_655 S
In286 O287 2.294 . S
In286 O288 2.326 . S
In286 O292 2.266 . S
In286 O293 2.326 . S
In286 O294 2.266 . S
In286 O295 2.326 . S
In286 O297 2.294 . S
In286 O298 2.326 . S
O287 In286 2.294 . S
O287 C296 1.240 . S
O288 In286 2.326 . S
O288 C296 1.252 . S
C289 O292 1.252 . S
C289 O293 1.260 . S
C290 O297 1.240 . S
C290 O298 1.252 . S
C291 O294 1.252 . S
C291 O295 1.260 . S
O292 In286 2.266 . S
O292 C289 1.252 . S
O293 In286 2.326 . S
O293 C289 1.260 . S
O294 In286 2.266 . S
O294 C291 1.252 . S
O295 In286 2.326 . S
O295 C291 1.260 . S
C296 O287 1.240 . S
C296 O288 1.252 . S
O297 In286 2.294 . S
O297 C290 1.240 . S
O298 In286 2.326 . S
O298 C290 1.252 . S
In299 O300 2.294 . S
In299 O301 2.326 . S
In299 O305 2.266 . S
In299 O306 2.326 . S
In299 O307 2.266 . S
In299 O308 2.326 . S
In299 O310 2.294 . S
In299 O311 2.326 . S
O300 In299 2.294 . S
O300 C309 1.240 . S
O301 In299 2.326 . S
O301 C309 1.252 . S
C302 O305 1.252 . S
C302 O306 1.260 . S
C303 O310 1.240 . S
C303 O311 1.252 . S
C304 O307 1.252 . S
C304 O308 1.260 . S
O305 In299 2.266 . S
O305 C302 1.252 . S
O306 In299 2.326 . S
O306 C302 1.260 . S
O307 In299 2.266 . S
O307 C304 1.252 . S
O308 In299 2.326 . S
O308 C304 1.260 . S
C309 O300 1.240 . S
C309 O301 1.252 . S
O310 In299 2.294 . S
O310 C303 1.240 . S
O311 In299 2.326 . S
O311 C303 1.252 . S
Tb312 C322 2.825 1_455 S
Tb312 O323 2.347 . S
Tb312 O326 2.366 . S
Tb312 O331 2.418 1_554 S
Tb312 O332 2.384 . S
Tb312 O335 2.479 1_454 S
Tb312 O336 2.471 1_455 S
Eu313 O324 2.418 . S
Eu313 O325 2.384 . S
Eu313 O328 2.479 . S
Eu313 O329 2.471 . S
Eu313 O330 2.347 . S
Eu313 O333 2.366 . S
Eu313 C343 2.825 . S
C314 O330 1.259 . S
C314 O331 1.265 1_554 S
C315 O332 1.255 . S
C315 O333 1.265 . S
C316 C318 1.380 . S
C316 C319 1.374 1_556 S
C316 C322 1.507 1_556 S
C317 C318 1.384 . S
C317 C321 1.387 . S
C317 H344 0.930 . S
C318 C316 1.380 . S
C318 C317 1.384 . S
C318 H345 0.931 . S
C319 C316 1.374 1_554 S
C319 C320 1.390 . S
C319 H346 0.930 . S
C320 C319 1.390 . S
C320 C321 1.391 1_554 S
C320 H347 0.930 . S
C321 C317 1.387 . S
C321 C320 1.391 1_556 S
C322 Tb312 2.825 1_655 S
C322 C316 1.507 1_554 S
C322 O335 1.238 1_554 S
C322 O336 1.247 . S
O323 Tb312 2.347 . S
O323 C327 1.259 . S
O324 Eu313 2.418 . S
O324 C327 1.265 . S
O325 Eu313 2.384 . S
O325 C334 1.255 . S
O326 Tb312 2.366 . S
O326 C334 1.265 . S
C327 O323 1.259 . S
C327 O324 1.265 . S
O328 Eu313 2.479 . S
O328 C343 1.238 . S
O329 Eu313 2.471 . S
O329 C343 1.247 . S
O330 Eu313 2.347 . S
O330 C314 1.259 . S
O331 Tb312 2.418 1_556 S
O331 C314 1.265 1_556 S
O332 Tb312 2.384 . S
O332 C315 1.255 . S
O333 Eu313 2.366 . S
O333 C315 1.265 . S
C334 O325 1.255 . S
C334 O326 1.265 . S
O335 Tb312 2.479 1_656 S
O335 C322 1.238 1_556 S
O336 Tb312 2.471 1_655 S
O336 C322 1.247 . S
C337 C340 1.380 . S
C337 C341 1.374 . S
C337 C343 1.507 . S
C338 C339 1.387 . S
C338 C342 1.391 . S
C339 C338 1.387 . S
C339 C340 1.384 . S
C339 H348 0.930 . S
C340 C337 1.380 . S
C340 C339 1.384 . S
C340 H349 0.931 . S
C341 C337 1.374 . S
C341 C342 1.390 . S
C341 H350 0.930 . S
C342 C338 1.391 . S
C342 C341 1.390 . S
C342 H351 0.930 . S
C343 Eu313 2.825 . S
C343 O328 1.238 . S
C343 O329 1.247 . S
C343 C337 1.507 . S
H344 C317 0.930 . S
H345 C318 0.931 . S
H346 C319 0.930 . S
H347 C320 0.930 . S
H348 C339 0.930 . S
H349 C340 0.931 . S
H350 C341 0.930 . S
H351 C342 0.930 . S
Tb352 C362 2.825 . S
Tb352 O363 2.347 . S
Tb352 O366 2.366 . S
Tb352 O371 2.418 . S
Tb352 O372 2.384 . S
Tb352 O375 2.479 . S
Tb352 O376 2.471 . S
Eu353 O364 2.418 . S
Eu353 O365 2.384 . S
Eu353 O368 2.479 . S
Eu353 O369 2.471 . S
Eu353 O370 2.347 . S
Eu353 O373 2.366 . S
Eu353 C383 2.825 . S
C354 O370 1.259 . S
C354 O371 1.265 . S
C355 O372 1.255 . S
C355 O373 1.265 . S
C356 C358 1.380 . S
C356 C359 1.374 . S
C356 C362 1.507 . S
C357 C358 1.384 . S
C357 C361 1.387 . S
C357 H384 0.930 . S
C358 C356 1.380 . S
C358 C357 1.384 . S
C358 H385 0.931 . S
C359 C356 1.374 . S
C359 C360 1.390 . S
C359 H386 0.930 . S
C360 C359 1.390 . S
C360 C361 1.391 . S
C360 H387 0.930 . S
C361 C357 1.387 . S
C361 C360 1.391 . S
C362 Tb352 2.825 . S
C362 C356 1.507 . S
C362 O375 1.238 . S
C362 O376 1.247 . S
O363 Tb352 2.347 . S
O363 C367 1.259 . S
O364 Eu353 2.418 . S
O364 C367 1.265 . S
O365 Eu353 2.384 . S
O365 C374 1.255 . S
O366 Tb352 2.366 . S
O366 C374 1.265 . S
C367 O363 1.259 . S
C367 O364 1.265 . S
O368 Eu353 2.479 . S
O368 C383 1.238 . S
O369 Eu353 2.471 . S
O369 C383 1.247 . S
O370 Eu353 2.347 . S
O370 C354 1.259 . S
O371 Tb352 2.418 . S
O371 C354 1.265 . S
O372 Tb352 2.384 . S
O372 C355 1.255 . S
O373 Eu353 2.366 . S
O373 C355 1.265 . S
C374 O365 1.255 . S
C374 O366 1.265 . S
O375 Tb352 2.479 . S
O375 C362 1.238 . S
O376 Tb352 2.471 . S
O376 C362 1.247 . S
C377 C380 1.380 . S
C377 C381 1.374 . S
C377 C383 1.507 . S
C378 C379 1.387 . S
C378 C382 1.391 . S
C379 C378 1.387 . S
C379 C380 1.384 . S
C379 H388 0.930 . S
C380 C377 1.380 . S
C380 C379 1.384 . S
C380 H389 0.931 . S
C381 C377 1.374 . S
C381 C382 1.390 . S
C381 H390 0.930 . S
C382 C378 1.391 . S
C382 C381 1.390 . S
C382 H391 0.930 . S
C383 Eu353 2.825 . S
C383 O368 1.238 . S
C383 O369 1.247 . S
C383 C377 1.507 . S
H384 C357 0.930 . S
H385 C358 0.931 . S
H386 C359 0.930 . S
H387 C360 0.930 . S
H388 C379 0.930 . S
H389 C380 0.931 . S
H390 C381 0.930 . S
H391 C382 0.930 . S
Tb392 C402 2.825 1_545 S
Tb392 O403 2.347 . S
Tb392 O406 2.366 1_545 S
Tb392 O411 2.422 . S
Tb392 O412 2.384 . S
Tb392 O415 2.479 1_545 S
Tb392 O416 2.471 1_545 S
Eu393 O404 2.418 . S
Eu393 O405 2.384 . S
Eu393 O408 2.479 . S
Eu393 O409 2.471 . S
Eu393 O410 2.347 . S
Eu393 O413 2.366 . S
Eu393 C423 2.825 . S
C394 O410 1.259 . S
C394 O411 1.288 . S
C395 O412 1.255 . S
C395 O413 1.265 . S
C396 C398 1.380 . S
C396 C399 1.374 . S
C396 C402 1.507 . S
C397 C398 1.384 . S
C397 C401 1.387 . S
C397 H424 0.930 . S
C398 C396 1.380 . S
C398 C397 1.384 . S
C398 H425 0.931 . S
C399 C396 1.374 . S
C399 C400 1.390 . S
C399 H426 0.930 . S
C400 C399 1.390 . S
C400 C401 1.391 . S
C400 H427 0.930 . S
C401 C397 1.387 . S
C401 C400 1.391 . S
C402 Tb392 2.825 1_565 S
C402 C396 1.507 . S
C402 O415 1.238 . S
C402 O416 1.247 . S
O403 Tb392 2.347 . S
O403 C407 1.259 . S
O404 Eu393 2.418 . S
O404 C407 1.265 . S
O405 Eu393 2.384 . S
O405 C414 1.255 . S
O406 Tb392 2.366 1_565 S
O406 C414 1.265 1_565 S
C407 O403 1.259 . S
C407 O404 1.265 . S
O408 Eu393 2.479 . S
O408 C423 1.238 . S
O409 Eu393 2.471 . S
O409 C423 1.247 . S
O410 Eu393 2.347 . S
O410 C394 1.259 . S
O411 Tb392 2.422 . S
O411 C394 1.288 . S
O412 Tb392 2.384 . S
O412 C395 1.255 . S
O413 Eu393 2.366 . S
O413 C395 1.265 . S
C414 O405 1.255 . S
C414 O406 1.265 1_545 S
O415 Tb392 2.479 1_565 S
O415 C402 1.238 . S
O416 Tb392 2.471 1_565 S
O416 C402 1.247 . S
C417 C420 1.380 . S
C417 C421 1.374 . S
C417 C423 1.507 . S
C418 C419 1.387 . S
C418 C422 1.391 . S
C419 C418 1.387 . S
C419 C420 1.384 . S
C419 H428 0.930 . S
C420 C417 1.380 . S
C420 C419 1.384 . S
C420 H429 0.931 . S
C421 C417 1.374 . S
C421 C422 1.390 . S
C421 H430 0.930 . S
C422 C418 1.391 . S
C422 C421 1.390 . S
C422 H431 0.930 . S
C423 Eu393 2.825 . S
C423 O408 1.238 . S
C423 O409 1.247 . S
C423 C417 1.507 . S
H424 C397 0.930 . S
H425 C398 0.931 . S
H426 C399 0.930 . S
H427 C400 0.930 . S
H428 C419 0.930 . S
H429 C420 0.931 . S
H430 C421 0.930 . S
H431 C422 0.930 . S
Tb432 C442 2.825 . S
Tb432 O443 2.347 . S
Tb432 O446 2.366 . S
Tb432 O451 2.418 . S
Tb432 O452 2.384 . S
Tb432 O455 2.479 . S
Tb432 O456 2.471 . S
Eu433 O444 2.418 . S
Eu433 O445 2.384 . S
Eu433 O448 2.479 . S
Eu433 O449 2.471 . S
Eu433 O450 2.347 . S
Eu433 O453 2.366 . S
Eu433 C463 2.825 . S
C434 O450 1.259 . S
C434 O451 1.265 . S
C435 O452 1.255 . S
C435 O453 1.265 . S
C436 C438 1.380 . S
C436 C439 1.374 . S
C436 C442 1.507 . S
C437 C438 1.384 . S
C437 C441 1.387 . S
C437 H464 0.930 . S
C438 C436 1.380 . S
C438 C437 1.384 . S
C438 H465 0.931 . S
C439 C436 1.374 . S
C439 C440 1.390 . S
C439 H466 0.930 . S
C440 C439 1.390 . S
C440 C441 1.391 . S
C440 H467 0.930 . S
C441 C437 1.387 . S
C441 C440 1.391 . S
C442 Tb432 2.825 . S
C442 C436 1.507 . S
C442 O455 1.238 . S
C442 O456 1.247 . S
O443 Tb432 2.347 . S
O443 C447 1.259 . S
O444 Eu433 2.418 . S
O444 C447 1.265 . S
O445 Eu433 2.384 . S
O445 C454 1.255 . S
O446 Tb432 2.366 . S
O446 C454 1.265 . S
C447 O443 1.259 . S
C447 O444 1.265 . S
O448 Eu433 2.479 . S
O448 C463 1.238 . S
O449 Eu433 2.471 . S
O449 C463 1.247 . S
O450 Eu433 2.347 . S
O450 C434 1.259 . S
O451 Tb432 2.418 . S
O451 C434 1.265 . S
O452 Tb432 2.384 . S
O452 C435 1.255 . S
O453 Eu433 2.366 . S
O453 C435 1.265 . S
C454 O445 1.255 . S
C454 O446 1.265 . S
O455 Tb432 2.479 . S
O455 C442 1.238 . S
O456 Tb432 2.471 . S
O456 C442 1.247 . S
C457 C460 1.380 . S
C457 C461 1.374 . S
C457 C463 1.507 . S
C458 C459 1.387 . S
C458 C462 1.391 . S
C459 C458 1.387 . S
C459 C460 1.384 . S
C459 H468 0.930 . S
C460 C457 1.380 . S
C460 C459 1.384 . S
C460 H469 0.931 . S
C461 C457 1.374 . S
C461 C462 1.390 . S
C461 H470 0.930 . S
C462 C458 1.391 . S
C462 C461 1.390 . S
C462 H471 0.930 . S
C463 Eu433 2.825 . S
C463 O448 1.238 . S
C463 O449 1.247 . S
C463 C457 1.507 . S
H464 C437 0.930 . S
H465 C438 0.931 . S
H466 C439 0.930 . S
H467 C440 0.930 . S
H468 C459 0.930 . S
H469 C460 0.931 . S
H470 C461 0.930 . S
H471 C462 0.930 . S
Tb472 C482 2.825 . S
Tb472 O483 2.347 . S
Tb472 O486 2.366 . S
Tb472 O491 2.418 . S
Tb472 O492 2.384 1_545 S
Tb472 O495 2.479 . S
Tb472 O496 2.471 . S
Eu473 O484 2.418 . S
Eu473 O485 2.384 . S
Eu473 O488 2.479 . S
Eu473 O489 2.471 . S
Eu473 O490 2.347 . S
Eu473 O493 2.366 . S
Eu473 C503 2.825 . S
C474 O490 1.259 . S
C474 O491 1.265 . S
C475 O492 1.255 . S
C475 O493 1.265 1_565 S
C476 C478 1.380 . S
C476 C479 1.374 1_455 S
C476 C482 1.507 . S
C477 C478 1.384 . S
C477 C481 1.387 1_455 S
C477 H504 0.930 . S
C478 C476 1.380 . S
C478 C477 1.384 . S
C478 H505 0.931 . S
C479 C476 1.374 1_655 S
C479 C480 1.390 . S
C479 H506 0.930 . S
C480 C479 1.390 . S
C480 C481 1.391 . S
C480 H507 0.930 . S
C481 C477 1.387 1_655 S
C481 C480 1.391 . S
C482 Tb472 2.825 . S
C482 C476 1.507 . S
C482 O495 1.238 . S
C482 O496 1.247 . S
O483 Tb472 2.347 . S
O483 C487 1.259 1_455 S
O484 Eu473 2.418 . S
O484 C487 1.265 1_455 S
O485 Eu473 2.384 . S
O485 C494 1.255 . S
O486 Tb472 2.366 . S
O486 C494 1.265 . S
C487 O483 1.259 1_655 S
C487 O484 1.265 1_655 S
O488 Eu473 2.479 . S
O488 C503 1.238 . S
O489 Eu473 2.471 . S
O489 C503 1.247 . S
O490 Eu473 2.347 . S
O490 C474 1.259 . S
O491 Tb472 2.418 . S
O491 C474 1.265 . S
O492 Tb472 2.384 1_565 S
O492 C475 1.255 . S
O493 Eu473 2.366 . S
O493 C475 1.265 1_545 S
C494 O485 1.255 . S
C494 O486 1.265 . S
O495 Tb472 2.479 . S
O495 C482 1.238 . S
O496 Tb472 2.471 . S
O496 C482 1.247 . S
C497 C500 1.380 . S
C497 C501 1.374 . S
C497 C503 1.507 . S
C498 C499 1.387 . S
C498 C502 1.391 . S
C499 C498 1.387 . S
C499 C500 1.384 . S
C499 H508 0.930 . S
C500 C497 1.380 . S
C500 C499 1.384 . S
C500 H509 0.931 . S
C501 C497 1.374 . S
C501 C502 1.390 . S
C501 H510 0.930 . S
C502 C498 1.391 . S
C502 C501 1.390 . S
C502 H511 0.930 . S
C503 Eu473 2.825 . S
C503 O488 1.238 . S
C503 O489 1.247 . S
C503 C497 1.507 . S
H504 C477 0.930 . S
H505 C478 0.931 . S
H506 C479 0.930 . S
H507 C480 0.930 . S
H508 C499 0.930 . S
H509 C500 0.931 . S
H510 C501 0.930 . S
H511 C502 0.930 . S
Tb512 C522 2.825 . S
Tb512 O523 2.347 . S
Tb512 O526 2.366 . S
Tb512 O531 2.418 . S
Tb512 O532 2.384 . S
Tb512 O535 2.479 . S
Tb512 O536 2.471 . S
Eu513 O524 2.418 . S
Eu513 O525 2.384 . S
Eu513 O528 2.479 . S
Eu513 O529 2.471 . S
Eu513 O530 2.347 . S
Eu513 O533 2.366 . S
Eu513 C543 2.825 . S
C514 O530 1.259 . S
C514 O531 1.265 . S
C515 O532 1.255 . S
C515 O533 1.265 . S
C516 C518 1.380 . S
C516 C519 1.374 . S
C516 C522 1.507 . S
C517 C518 1.384 . S
C517 C521 1.387 . S
C517 H544 0.930 . S
C518 C516 1.380 . S
C518 C517 1.384 . S
C518 H545 0.931 . S
C519 C516 1.374 . S
C519 C520 1.390 . S
C519 H546 0.930 . S
C520 C519 1.390 . S
C520 C521 1.391 . S
C520 H547 0.930 . S
C521 C517 1.387 . S
C521 C520 1.391 . S
C522 Tb512 2.825 . S
C522 C516 1.507 . S
C522 O535 1.238 . S
C522 O536 1.247 . S
O523 Tb512 2.347 . S
O523 C527 1.259 . S
O524 Eu513 2.418 . S
O524 C527 1.265 . S
O525 Eu513 2.384 . S
O525 C534 1.255 . S
O526 Tb512 2.366 . S
O526 C534 1.265 . S
C527 O523 1.259 . S
C527 O524 1.265 . S
O528 Eu513 2.479 . S
O528 C543 1.238 . S
O529 Eu513 2.471 . S
O529 C543 1.247 . S
O530 Eu513 2.347 . S
O530 C514 1.259 . S
O531 Tb512 2.418 . S
O531 C514 1.265 . S
O532 Tb512 2.384 . S
O532 C515 1.255 . S
O533 Eu513 2.366 . S
O533 C515 1.265 . S
C534 O525 1.255 . S
C534 O526 1.265 . S
O535 Tb512 2.479 . S
O535 C522 1.238 . S
O536 Tb512 2.471 . S
O536 C522 1.247 . S
C537 C540 1.380 . S
C537 C541 1.374 . S
C537 C543 1.507 . S
C538 C539 1.387 . S
C538 C542 1.391 . S
C539 C538 1.387 . S
C539 C540 1.384 . S
C539 H548 0.930 . S
C540 C537 1.380 . S
C540 C539 1.384 . S
C540 H549 0.931 . S
C541 C537 1.374 . S
C541 C542 1.390 . S
C541 H550 0.930 . S
C542 C538 1.391 . S
C542 C541 1.390 . S
C542 H551 0.930 . S
C543 Eu513 2.825 . S
C543 O528 1.238 . S
C543 O529 1.247 . S
C543 C537 1.507 . S
H544 C517 0.930 . S
H545 C518 0.931 . S
H546 C519 0.930 . S
H547 C520 0.930 . S
H548 C539 0.930 . S
H549 C540 0.931 . S
H550 C541 0.930 . S
H551 C542 0.930 . S
Tb552 C562 2.825 . S
Tb552 O563 2.347 . S
Tb552 O566 2.366 . S
Tb552 O571 2.418 . S
Tb552 O572 2.384 . S
Tb552 O575 2.479 . S
Tb552 O576 2.471 . S
Eu553 O564 2.418 . S
Eu553 O565 2.384 1_556 S
Eu553 O568 2.479 . S
Eu553 O569 2.471 . S
Eu553 O570 2.347 . S
Eu553 O573 2.366 . S
Eu553 C583 2.825 . S
C554 O570 1.259 1_554 S
C554 O571 1.265 . S
C555 O572 1.255 . S
C555 O573 1.265 1_554 S
C556 C558 1.380 . S
C556 C559 1.374 . S
C556 C562 1.507 . S
C557 C558 1.384 . S
C557 C561 1.387 . S
C557 H584 0.930 1_545 S
C558 C556 1.380 . S
C558 C557 1.384 . S
C558 H585 0.931 . S
C559 C556 1.374 . S
C559 C560 1.390 . S
C559 H586 0.930 . S
C560 C559 1.390 . S
C560 C561 1.391 . S
C560 H587 0.930 . S
C561 C557 1.387 . S
C561 C560 1.391 . S
C562 Tb552 2.825 . S
C562 C556 1.507 . S
C562 O575 1.238 . S
C562 O576 1.247 . S
O563 Tb552 2.347 . S
O563 C567 1.259 . S
O564 Eu553 2.418 . S
O564 C567 1.265 1_556 S
O565 Eu553 2.384 1_554 S
O565 C574 1.255 . S
O566 Tb552 2.366 . S
O566 C574 1.265 . S
C567 O563 1.259 . S
C567 O564 1.265 1_554 S
O568 Eu553 2.479 . S
O568 C583 1.238 . S
O569 Eu553 2.471 . S
O569 C583 1.247 . S
O570 Eu553 2.347 . S
O570 C554 1.259 1_556 S
O571 Tb552 2.418 . S
O571 C554 1.265 . S
O572 Tb552 2.384 . S
O572 C555 1.255 . S
O573 Eu553 2.366 . S
O573 C555 1.265 1_556 S
C574 O565 1.255 . S
C574 O566 1.265 . S
O575 Tb552 2.479 . S
O575 C562 1.238 . S
O576 Tb552 2.471 . S
O576 C562 1.247 . S
C577 C580 1.380 . S
C577 C581 1.374 . S
C577 C583 1.507 . S
C578 C579 1.387 . S
C578 C582 1.391 . S
C579 C578 1.387 . S
C579 C580 1.384 . S
C579 H588 0.930 . S
C580 C577 1.380 . S
C580 C579 1.384 . S
C580 H589 0.931 . S
C581 C577 1.374 . S
C581 C582 1.390 . S
C581 H590 0.930 . S
C582 C578 1.391 . S
C582 C581 1.390 . S
C582 H591 0.930 . S
C583 Eu553 2.825 . S
C583 O568 1.238 . S
C583 O569 1.247 . S
C583 C577 1.507 . S
H584 C557 0.930 1_565 S
H585 C558 0.931 . S
H586 C559 0.930 . S
H587 C560 0.930 . S
H588 C579 0.930 . S
H589 C580 0.931 . S
H590 C581 0.930 . S
H591 C582 0.930 . S
Tb592 C602 2.825 . S
Tb592 O603 2.347 . S
Tb592 O606 2.366 . S
Tb592 O611 2.418 . S
Tb592 O612 2.384 . S
Tb592 O615 2.479 . S
Tb592 O616 2.471 . S
Eu593 O604 2.418 . S
Eu593 O605 2.384 . S
Eu593 O608 2.479 . S
Eu593 O609 2.471 . S
Eu593 O610 2.347 . S
Eu593 O613 2.366 . S
Eu593 C623 2.825 . S
C594 O610 1.259 . S
C594 O611 1.265 . S
C595 O612 1.255 . S
C595 O613 1.265 . S
C596 C598 1.380 . S
C596 C599 1.374 . S
C596 C602 1.507 . S
C597 C598 1.384 . S
C597 C601 1.387 . S
C597 H624 0.930 . S
C598 C596 1.380 . S
C598 C597 1.384 . S
C598 H625 0.931 . S
C599 C596 1.374 . S
C599 C600 1.390 . S
C599 H626 0.930 . S
C600 C599 1.390 . S
C600 C601 1.391 . S
C600 H627 0.930 . S
C601 C597 1.387 . S
C601 C600 1.391 . S
C602 Tb592 2.825 . S
C602 C596 1.507 . S
C602 O615 1.238 . S
C602 O616 1.247 . S
O603 Tb592 2.347 . S
O603 C607 1.259 . S
O604 Eu593 2.418 . S
O604 C607 1.265 . S
O605 Eu593 2.384 . S
O605 C614 1.255 . S
O606 Tb592 2.366 . S
O606 C614 1.265 . S
C607 O603 1.259 . S
C607 O604 1.265 . S
O608 Eu593 2.479 . S
O608 C623 1.238 . S
O609 Eu593 2.471 . S
O609 C623 1.247 . S
O610 Eu593 2.347 . S
O610 C594 1.259 . S
O611 Tb592 2.418 . S
O611 C594 1.265 . S
O612 Tb592 2.384 . S
O612 C595 1.255 . S
O613 Eu593 2.366 . S
O613 C595 1.265 . S
C614 O605 1.255 . S
C614 O606 1.265 . S
O615 Tb592 2.479 . S
O615 C602 1.238 . S
O616 Tb592 2.471 . S
O616 C602 1.247 . S
C617 C620 1.380 . S
C617 C621 1.374 . S
C617 C623 1.507 . S
C618 C619 1.387 . S
C618 C622 1.391 . S
C619 C618 1.387 . S
C619 C620 1.384 . S
C619 H628 0.930 . S
C620 C617 1.380 . S
C620 C619 1.384 . S
C620 H629 0.931 . S
C621 C617 1.374 . S
C621 C622 1.390 . S
C621 H630 0.930 . S
C622 C618 1.391 . S
C622 C621 1.390 . S
C622 H631 0.930 . S
C623 Eu593 2.825 . S
C623 O608 1.238 . S
C623 O609 1.247 . S
C623 C617 1.507 . S
H624 C597 0.930 . S
H625 C598 0.931 . S
H626 C599 0.930 . S
H627 C600 0.930 . S
H628 C619 0.930 . S
H629 C620 0.931 . S
H630 C621 0.930 . S
H631 C622 0.930 . S
Tb632 C642 2.825 . S
Tb632 O643 2.347 1_556 S
Tb632 O646 2.366 . S
Tb632 O651 2.418 . S
Tb632 O652 2.384 1_556 S
Tb632 O655 2.479 . S
Tb632 O656 2.471 . S
Eu633 O644 2.418 . S
Eu633 O645 2.384 . S
Eu633 O648 2.479 . S
Eu633 O649 2.471 . S
Eu633 O650 2.347 . S
Eu633 O653 2.366 . S
Eu633 C663 2.825 . S
C634 O650 1.259 . S
C634 O651 1.265 1_554 S
C635 O652 1.255 . S
C635 O653 1.265 . S
C636 C638 1.380 . S
C636 C639 1.374 . S
C636 C642 1.507 . S
C637 C638 1.384 . S
C637 C641 1.387 . S
C637 H664 0.930 . S
C638 C636 1.380 . S
C638 C637 1.384 . S
C638 H665 0.931 . S
C639 C636 1.374 . S
C639 C640 1.390 . S
C639 H666 0.930 . S
C640 C639 1.390 . S
C640 C641 1.391 . S
C640 H667 0.930 . S
C641 C637 1.387 . S
C641 C640 1.391 . S
C642 Tb632 2.825 . S
C642 C636 1.507 . S
C642 O655 1.238 . S
C642 O656 1.247 . S
O643 Tb632 2.347 1_554 S
O643 C647 1.259 . S
O644 Eu633 2.418 . S
O644 C647 1.265 . S
O645 Eu633 2.384 . S
O645 C654 1.255 1_554 S
O646 Tb632 2.366 . S
O646 C654 1.265 . S
C647 O643 1.259 . S
C647 O644 1.265 . S
O648 Eu633 2.479 . S
O648 C663 1.238 . S
O649 Eu633 2.471 . S
O649 C663 1.247 . S
O650 Eu633 2.347 . S
O650 C634 1.259 . S
O651 Tb632 2.418 . S
O651 C634 1.265 1_556 S
O652 Tb632 2.384 1_554 S
O652 C635 1.255 . S
O653 Eu633 2.366 . S
O653 C635 1.265 . S
C654 O645 1.255 1_556 S
C654 O646 1.265 . S
O655 Tb632 2.479 . S
O655 C642 1.238 . S
O656 Tb632 2.471 . S
O656 C642 1.247 . S
C657 C660 1.380 . S
C657 C661 1.374 . S
C657 C663 1.507 . S
C658 C659 1.387 . S
C658 C662 1.391 . S
C659 C658 1.387 . S
C659 C660 1.384 . S
C659 H668 0.930 . S
C660 C657 1.380 . S
C660 C659 1.384 . S
C660 H669 0.931 . S
C661 C657 1.374 . S
C661 C662 1.390 . S
C661 H670 0.930 . S
C662 C658 1.391 . S
C662 C661 1.390 . S
C662 H671 0.930 . S
C663 Eu633 2.825 . S
C663 O648 1.238 . S
C663 O649 1.247 . S
C663 C657 1.507 . S
H664 C637 0.930 . S
H665 C638 0.931 . S
H666 C639 0.930 . S
H667 C640 0.930 . S
H668 C659 0.930 . S
H669 C660 0.931 . S
H670 C661 0.930 . S
H671 C662 0.930 . S
Tb672 C682 2.825 . S
Tb672 O683 2.347 . S
Tb672 O686 2.366 . S
Tb672 O691 2.418 . S
Tb672 O692 2.384 . S
Tb672 O695 2.479 . S
Tb672 O696 2.471 . S
Eu673 O684 2.418 . S
Eu673 O685 2.384 . S
Eu673 O688 2.479 . S
Eu673 O689 2.471 . S
Eu673 O690 2.347 . S
Eu673 O693 2.366 . S
Eu673 C703 2.825 . S
C674 O690 1.259 . S
C674 O691 1.265 . S
C675 O692 1.255 . S
C675 O693 1.265 . S
C676 C678 1.380 . S
C676 C679 1.374 . S
C676 C682 1.507 . S
C677 C678 1.384 . S
C677 C681 1.387 . S
C677 H704 0.930 . S
C678 C676 1.380 . S
C678 C677 1.384 . S
C678 H705 0.931 . S
C679 C676 1.374 . S
C679 C680 1.390 . S
C679 H706 0.930 . S
C680 C679 1.390 . S
C680 C681 1.391 . S
C680 H707 0.930 . S
C681 C677 1.387 . S
C681 C680 1.391 . S
C682 Tb672 2.825 . S
C682 C676 1.507 . S
C682 O695 1.238 . S
C682 O696 1.247 . S
O683 Tb672 2.347 . S
O683 C687 1.259 . S
O684 Eu673 2.418 . S
O684 C687 1.265 . S
O685 Eu673 2.384 . S
O685 C694 1.255 . S
O686 Tb672 2.366 . S
O686 C694 1.265 . S
C687 O683 1.259 . S
C687 O684 1.265 . S
O688 Eu673 2.479 . S
O688 C703 1.238 . S
O689 Eu673 2.471 . S
O689 C703 1.247 . S
O690 Eu673 2.347 . S
O690 C674 1.259 . S
O691 Tb672 2.418 . S
O691 C674 1.265 . S
O692 Tb672 2.384 . S
O692 C675 1.255 . S
O693 Eu673 2.366 . S
O693 C675 1.265 . S
C694 O685 1.255 . S
C694 O686 1.265 . S
O695 Tb672 2.479 . S
O695 C682 1.238 . S
O696 Tb672 2.471 . S
O696 C682 1.247 . S
C697 C700 1.380 . S
C697 C701 1.374 . S
C697 C703 1.507 . S
C698 C699 1.387 . S
C698 C702 1.391 . S
C699 C698 1.387 . S
C699 C700 1.384 . S
C699 H708 0.930 . S
C700 C697 1.380 . S
C700 C699 1.384 . S
C700 H709 0.931 . S
C701 C697 1.374 . S
C701 C702 1.390 . S
C701 H710 0.930 . S
C702 C698 1.391 . S
C702 C701 1.390 . S
C702 H711 0.930 . S
C703 Eu673 2.825 . S
C703 O688 1.238 . S
C703 O689 1.247 . S
C703 C697 1.507 . S
H704 C677 0.930 . S
H705 C678 0.931 . S
H706 C679 0.930 . S
H707 C680 0.930 . S
H708 C699 0.930 . S
H709 C700 0.931 . S
H710 C701 0.930 . S
H711 C702 0.930 . S
Tb712 C722 2.825 . S
Tb712 O723 2.347 . S
Tb712 O726 2.366 . S
Tb712 O731 2.418 . S
Tb712 O732 2.384 . S
Tb712 O735 2.479 . S
Tb712 O736 2.471 . S
Eu713 O724 2.418 . S
Eu713 O725 2.384 1_455 S
Eu713 O728 2.479 . S
Eu713 O729 2.471 . S
Eu713 O730 2.347 . S
Eu713 O733 2.366 . S
Eu713 C743 2.825 . S
C714 O730 1.259 . S
C714 O731 1.265 . S
C715 O732 1.255 . S
C715 O733 1.265 . S
C716 C718 1.380 . S
C716 C719 1.374 . S
C716 C722 1.507 . S
C717 C718 1.384 . S
C717 C721 1.387 . S
C717 H744 0.930 . S
C718 C716 1.380 . S
C718 C717 1.384 . S
C718 H745 0.931 . S
C719 C716 1.374 . S
C719 C720 1.390 . S
C719 H746 0.930 . S
C720 C719 1.390 . S
C720 C721 1.391 . S
C720 H747 0.930 1_455 S
C721 C717 1.387 . S
C721 C720 1.391 . S
C722 Tb712 2.825 . S
C722 C716 1.507 . S
C722 O735 1.238 . S
C722 O736 1.247 . S
O723 Tb712 2.347 . S
O723 C727 1.259 . S
O724 Eu713 2.418 . S
O724 C727 1.265 . S
O725 Eu713 2.384 1_655 S
O725 C734 1.255 . S
O726 Tb712 2.366 . S
O726 C734 1.265 1_455 S
C727 O723 1.259 . S
C727 O724 1.265 . S
O728 Eu713 2.479 . S
O728 C743 1.238 . S
O729 Eu713 2.471 . S
O729 C743 1.247 . S
O730 Eu713 2.347 . S
O730 C714 1.259 . S
O731 Tb712 2.418 . S
O731 C714 1.265 . S
O732 Tb712 2.384 . S
O732 C715 1.255 . S
O733 Eu713 2.366 . S
O733 C715 1.265 . S
C734 O725 1.255 . S
C734 O726 1.265 1_655 S
O735 Tb712 2.479 . S
O735 C722 1.238 . S
O736 Tb712 2.471 . S
O736 C722 1.247 . S
C737 C740 1.380 . S
C737 C741 1.374 . S
C737 C743 1.507 . S
C738 C739 1.387 . S
C738 C742 1.391 . S
C739 C738 1.387 . S
C739 C740 1.384 . S
C739 H748 0.930 . S
C740 C737 1.380 . S
C740 C739 1.384 . S
C740 H749 0.931 . S
C741 C737 1.374 . S
C741 C742 1.390 . S
C741 H750 0.930 . S
C742 C738 1.391 . S
C742 C741 1.390 . S
C742 H751 0.930 . S
C743 Eu713 2.825 . S
C743 O728 1.238 . S
C743 O729 1.247 . S
C743 C737 1.507 . S
H744 C717 0.930 . S
H745 C718 0.931 . S
H746 C719 0.930 . S
H747 C720 0.930 1_655 S
H748 C739 0.930 . S
H749 C740 0.931 . S
H750 C741 0.930 . S
H751 C742 0.930 . S
Tb752 C762 2.825 . S
Tb752 O763 2.347 . S
Tb752 O766 2.366 . S
Tb752 O771 2.418 . S
Tb752 O772 2.384 . S
Tb752 O775 2.479 . S
Tb752 O776 2.471 . S
Eu753 O764 2.418 . S
Eu753 O765 2.384 . S
Eu753 O768 2.479 . S
Eu753 O769 2.471 . S
Eu753 O770 2.347 . S
Eu753 O773 2.366 . S
Eu753 C783 2.825 . S
C754 O770 1.259 . S
C754 O771 1.265 . S
C755 O772 1.255 . S
C755 O773 1.265 . S
C756 C758 1.380 . S
C756 C759 1.374 . S
C756 C762 1.507 . S
C757 C758 1.384 . S
C757 C761 1.387 . S
C757 H784 0.930 . S
C758 C756 1.380 . S
C758 C757 1.384 . S
C758 H785 0.931 . S
C759 C756 1.374 . S
C759 C760 1.390 . S
C759 H786 0.930 . S
C760 C759 1.390 . S
C760 C761 1.391 . S
C760 H787 0.930 . S
C761 C757 1.387 . S
C761 C760 1.391 . S
C762 Tb752 2.825 . S
C762 C756 1.507 . S
C762 O775 1.238 . S
C762 O776 1.247 . S
O763 Tb752 2.347 . S
O763 C767 1.259 . S
O764 Eu753 2.418 . S
O764 C767 1.265 . S
O765 Eu753 2.384 . S
O765 C774 1.255 . S
O766 Tb752 2.366 . S
O766 C774 1.265 . S
C767 O763 1.259 . S
C767 O764 1.265 . S
O768 Eu753 2.479 . S
O768 C783 1.238 . S
O769 Eu753 2.471 . S
O769 C783 1.247 . S
O770 Eu753 2.347 . S
O770 C754 1.259 . S
O771 Tb752 2.418 . S
O771 C754 1.265 . S
O772 Tb752 2.384 . S
O772 C755 1.255 . S
O773 Eu753 2.366 . S
O773 C755 1.265 . S
C774 O765 1.255 . S
C774 O766 1.265 . S
O775 Tb752 2.479 . S
O775 C762 1.238 . S
O776 Tb752 2.471 . S
O776 C762 1.247 . S
C777 C780 1.380 . S
C777 C781 1.374 . S
C777 C783 1.507 . S
C778 C779 1.387 . S
C778 C782 1.391 . S
C779 C778 1.387 . S
C779 C780 1.384 . S
C779 H788 0.930 . S
C780 C777 1.380 . S
C780 C779 1.384 . S
C780 H789 0.931 . S
C781 C777 1.374 . S
C781 C782 1.390 . S
C781 H790 0.930 . S
C782 C778 1.391 . S
C782 C781 1.390 . S
C782 H791 0.930 . S
C783 Eu753 2.825 . S
C783 O768 1.238 . S
C783 O769 1.247 . S
C783 C777 1.507 . S
H784 C757 0.930 . S
H785 C758 0.931 . S
H786 C759 0.930 . S
H787 C760 0.930 . S
H788 C779 0.930 . S
H789 C780 0.931 . S
H790 C781 0.930 . S
H791 C782 0.930 . S
Tb792 C802 2.825 . S
Tb792 O803 2.347 . S
Tb792 O806 2.366 . S
Tb792 O811 2.418 . S
Tb792 O812 2.384 . S
Tb792 O815 2.479 . S
Tb792 O816 2.471 . S
Eu793 O804 2.418 . S
Eu793 O805 2.384 . S
Eu793 O808 2.479 . S
Eu793 O809 2.471 . S
Eu793 O810 2.347 . S
Eu793 O813 2.366 . S
Eu793 C823 2.825 . S
C794 O810 1.259 . S
C794 O811 1.265 . S
C795 O812 1.255 . S
C795 O813 1.265 . S
C796 C798 1.380 . S
C796 C799 1.374 . S
C796 C802 1.507 . S
C797 C798 1.384 . S
C797 C801 1.387 . S
C797 H824 0.930 . S
C798 C796 1.380 . S
C798 C797 1.384 . S
C798 H825 0.931 . S
C799 C796 1.374 . S
C799 C800 1.390 . S
C799 H826 0.930 . S
C800 C799 1.390 . S
C800 C801 1.391 . S
C800 H827 0.930 . S
C801 C797 1.387 . S
C801 C800 1.391 . S
C802 Tb792 2.825 . S
C802 C796 1.507 . S
C802 O815 1.238 . S
C802 O816 1.247 . S
O803 Tb792 2.347 . S
O803 C807 1.259 . S
O804 Eu793 2.418 . S
O804 C807 1.265 . S
O805 Eu793 2.384 . S
O805 C814 1.255 . S
O806 Tb792 2.366 . S
O806 C814 1.265 . S
C807 O803 1.259 . S
C807 O804 1.265 . S
O808 Eu793 2.479 . S
O808 C823 1.238 . S
O809 Eu793 2.471 . S
O809 C823 1.247 . S
O810 Eu793 2.347 . S
O810 C794 1.259 . S
O811 Tb792 2.418 . S
O811 C794 1.265 . S
O812 Tb792 2.384 . S
O812 C795 1.255 . S
O813 Eu793 2.366 . S
O813 C795 1.265 . S
C814 O805 1.255 . S
C814 O806 1.265 . S
O815 Tb792 2.479 . S
O815 C802 1.238 . S
O816 Tb792 2.471 . S
O816 C802 1.247 . S
C817 C820 1.380 . S
C817 C821 1.374 . S
C817 C823 1.507 . S
C818 C819 1.387 . S
C818 C822 1.391 . S
C819 C818 1.387 . S
C819 C820 1.384 . S
C819 H828 0.930 . S
C820 C817 1.380 . S
C820 C819 1.384 . S
C820 H829 0.931 . S
C821 C817 1.374 . S
C821 C822 1.390 . S
C821 H830 0.930 . S
C822 C818 1.391 . S
C822 C821 1.390 . S
C822 H831 0.930 . S
C823 Eu793 2.825 . S
C823 O808 1.238 . S
C823 O809 1.247 . S
C823 C817 1.507 . S
H824 C797 0.930 . S
H825 C798 0.931 . S
H826 C799 0.930 . S
H827 C800 0.930 . S
H828 C819 0.930 . S
H829 C820 0.931 . S
H830 C821 0.930 . S
H831 C822 0.930 . S
Tb832 C842 2.825 . S
Tb832 O843 2.347 . S
Tb832 O846 2.366 . S
Tb832 O851 2.418 . S
Tb832 O852 2.384 . S
Tb832 O855 2.479 . S
Tb832 O856 2.471 . S
Eu833 O844 2.418 . S
Eu833 O845 2.384 . S
Eu833 O848 2.479 . S
Eu833 O849 2.471 . S
Eu833 O850 2.347 . S
Eu833 O853 2.366 . S
Eu833 C863 2.825 . S
C834 O850 1.259 . S
C834 O851 1.265 . S
C835 O852 1.255 . S
C835 O853 1.265 . S
C836 C838 1.380 . S
C836 C839 1.374 . S
C836 C842 1.507 . S
C837 C838 1.384 . S
C837 C841 1.387 . S
C837 H864 0.930 . S
C838 C836 1.380 . S
C838 C837 1.384 . S
C838 H865 0.931 . S
C839 C836 1.374 . S
C839 C840 1.390 . S
C839 H866 0.930 . S
C840 C839 1.390 . S
C840 C841 1.391 . S
C840 H867 0.930 . S
C841 C837 1.387 . S
C841 C840 1.391 . S
C842 Tb832 2.825 . S
C842 C836 1.507 . S
C842 O855 1.238 . S
C842 O856 1.247 . S
O843 Tb832 2.347 . S
O843 C847 1.259 . S
O844 Eu833 2.418 . S
O844 C847 1.265 . S
O845 Eu833 2.384 . S
O845 C854 1.255 . S
O846 Tb832 2.366 . S
O846 C854 1.265 . S
C847 O843 1.259 . S
C847 O844 1.265 . S
O848 Eu833 2.479 . S
O848 C863 1.238 . S
O849 Eu833 2.471 . S
O849 C863 1.247 . S
O850 Eu833 2.347 . S
O850 C834 1.259 . S
O851 Tb832 2.418 . S
O851 C834 1.265 . S
O852 Tb832 2.384 . S
O852 C835 1.255 . S
O853 Eu833 2.366 . S
O853 C835 1.265 . S
C854 O845 1.255 . S
C854 O846 1.265 . S
O855 Tb832 2.479 . S
O855 C842 1.238 . S
O856 Tb832 2.471 . S
O856 C842 1.247 . S
C857 C860 1.380 . S
C857 C861 1.374 . S
C857 C863 1.507 . S
C858 C859 1.387 . S
C858 C862 1.391 . S
C859 C858 1.387 . S
C859 C860 1.384 . S
C859 H868 0.930 . S
C860 C857 1.380 . S
C860 C859 1.384 . S
C860 H869 0.931 . S
C861 C857 1.374 . S
C861 C862 1.390 . S
C861 H870 0.930 . S
C862 C858 1.391 . S
C862 C861 1.390 . S
C862 H871 0.930 . S
C863 Eu833 2.825 . S
C863 O848 1.238 . S
C863 O849 1.247 . S
C863 C857 1.507 . S
H864 C837 0.930 . S
H865 C838 0.931 . S
H866 C839 0.930 . S
H867 C840 0.930 . S
H868 C859 0.930 . S
H869 C860 0.931 . S
H870 C861 0.930 . S
H871 C862 0.930 . S
Tb872 C882 2.825 . S
Tb872 O883 2.347 . S
Tb872 O886 2.366 . S
Tb872 O891 2.418 . S
Tb872 O892 2.384 . S
Tb872 O895 2.479 . S
Tb872 O896 2.471 . S
Eu873 O884 2.418 . S
Eu873 O885 2.384 . S
Eu873 O888 2.479 . S
Eu873 O889 2.471 . S
Eu873 O890 2.347 . S
Eu873 O893 2.366 . S
Eu873 C903 2.825 . S
C874 O890 1.259 . S
C874 O891 1.265 . S
C875 O892 1.255 . S
C875 O893 1.265 . S
C876 C878 1.380 . S
C876 C879 1.374 . S
C876 C882 1.507 . S
C877 C878 1.384 . S
C877 C881 1.387 . S
C877 H904 0.930 . S
C878 C876 1.380 . S
C878 C877 1.384 . S
C878 H905 0.931 . S
C879 C876 1.374 . S
C879 C880 1.390 . S
C879 H906 0.930 . S
C880 C879 1.390 . S
C880 C881 1.391 . S
C880 H907 0.930 . S
C881 C877 1.387 . S
C881 C880 1.391 . S
C882 Tb872 2.825 . S
C882 C876 1.507 . S
C882 O895 1.238 . S
C882 O896 1.247 . S
O883 Tb872 2.347 . S
O883 C887 1.259 . S
O884 Eu873 2.418 . S
O884 C887 1.265 . S
O885 Eu873 2.384 . S
O885 C894 1.255 . S
O886 Tb872 2.366 . S
O886 C894 1.265 . S
C887 O883 1.259 . S
C887 O884 1.265 . S
O888 Eu873 2.479 . S
O888 C903 1.238 . S
O889 Eu873 2.471 . S
O889 C903 1.247 . S
O890 Eu873 2.347 . S
O890 C874 1.259 . S
O891 Tb872 2.418 . S
O891 C874 1.265 . S
O892 Tb872 2.384 . S
O892 C875 1.255 . S
O893 Eu873 2.366 . S
O893 C875 1.265 . S
C894 O885 1.255 . S
C894 O886 1.265 . S
O895 Tb872 2.479 . S
O895 C882 1.238 . S
O896 Tb872 2.471 . S
O896 C882 1.247 . S
C897 C900 1.380 . S
C897 C901 1.374 . S
C897 C903 1.507 . S
C898 C899 1.387 . S
C898 C902 1.391 . S
C899 C898 1.387 . S
C899 C900 1.384 . S
C899 H908 0.930 . S
C900 C897 1.380 . S
C900 C899 1.384 . S
C900 H909 0.931 . S
C901 C897 1.374 . S
C901 C902 1.390 . S
C901 H910 0.930 . S
C902 C898 1.391 . S
C902 C901 1.390 . S
C902 H911 0.930 . S
C903 Eu873 2.825 . S
C903 O888 1.238 . S
C903 O889 1.247 . S
C903 C897 1.507 . S
H904 C877 0.930 . S
H905 C878 0.931 . S
H906 C879 0.930 . S
H907 C880 0.930 . S
H908 C899 0.930 . S
H909 C900 0.931 . S
H910 C901 0.930 . S
H911 C902 0.930 . S
Tb912 C922 2.825 . S
Tb912 O923 2.347 1_554 S
Tb912 O926 2.366 . S
Tb912 O931 2.418 . S
Tb912 O932 2.384 1_455 S
Tb912 O935 2.479 . S
Tb912 O936 2.471 1_554 S
Eu913 O924 2.418 1_554 S
Eu913 O925 2.384 . S
Eu913 O928 2.479 . S
Eu913 O929 2.471 . S
Eu913 O930 2.347 . S
Eu913 O933 2.366 . S
Eu913 C943 2.825 . S
C914 O930 1.259 . S
C914 O931 1.265 . S
C915 O932 1.255 . S
C915 O933 1.265 1_655 S
C916 C918 1.380 1_556 S
C916 C919 1.374 . S
C916 C922 1.507 1_556 S
C917 C918 1.384 1_556 S
C917 C921 1.387 . S
C917 H944 0.926 1_456 S
C918 C916 1.380 1_554 S
C918 C917 1.384 1_554 S
C918 H945 0.931 1_455 S
C919 C916 1.374 . S
C919 C920 1.390 . S
C919 H946 0.930 . S
C920 C919 1.390 . S
C920 C921 1.391 . S
C920 H947 0.930 . S
C921 C917 1.387 . S
C921 C920 1.391 . S
C922 Tb912 2.825 . S
C922 C916 1.507 1_554 S
C922 O935 1.238 . S
C922 O936 1.247 1_554 S
O923 Tb912 2.347 1_556 S
O923 C927 1.259 . S
O924 Eu913 2.418 1_556 S
O924 C927 1.265 . S
O925 Eu913 2.384 . S
O925 C934 1.255 . S
O926 Tb912 2.366 . S
O926 C934 1.265 . S
C927 O923 1.259 . S
C927 O924 1.265 . S
O928 Eu913 2.479 . S
O928 C943 1.238 . S
O929 Eu913 2.471 . S
O929 C943 1.247 . S
O930 Eu913 2.347 . S
O930 C914 1.259 . S
O931 Tb912 2.418 . S
O931 C914 1.265 . S
O932 Tb912 2.384 1_655 S
O932 C915 1.255 . S
O933 Eu913 2.366 . S
O933 C915 1.265 1_455 S
C934 O925 1.255 . S
C934 O926 1.265 . S
O935 Tb912 2.479 . S
O935 C922 1.238 . S
O936 Tb912 2.471 1_556 S
O936 C922 1.247 1_556 S
C937 C940 1.380 . S
C937 C941 1.374 . S
C937 C943 1.507 . S
C938 C939 1.387 . S
C938 C942 1.391 . S
C939 C938 1.387 . S
C939 C940 1.384 . S
C939 H948 0.930 . S
C940 C937 1.380 . S
C940 C939 1.384 . S
C940 H949 0.931 . S
C941 C937 1.374 . S
C941 C942 1.390 . S
C941 H950 0.930 . S
C942 C938 1.391 . S
C942 C941 1.390 . S
C942 H951 0.930 . S
C943 Eu913 2.825 . S
C943 O928 1.238 . S
C943 O929 1.247 . S
C943 C937 1.507 . S
H944 C917 0.926 1_654 S
H945 C918 0.931 1_655 S
H946 C919 0.930 . S
H947 C920 0.930 . S
H948 C939 0.930 . S
H949 C940 0.931 . S
H950 C941 0.930 . S
H951 C942 0.930 . S
C952 C953 1.387 . S
C952 H956 0.950 . S
C952 C961 1.390 1_556 S
C953 C952 1.387 . S
C953 C955 1.387 . S
H954 C961 0.950 . S
C955 C953 1.387 . S
C955 C957 1.390 . S
C955 H959 0.950 . S
H956 C952 0.950 . S
C957 C955 1.390 . S
C957 C958 1.387 1_556 S
C957 H960 0.950 . S
C958 C957 1.387 1_554 S
C958 C961 1.387 . S
H959 C955 0.950 . S
H960 C957 0.950 . S
C961 C952 1.390 1_554 S
C961 H954 0.950 . S
C961 C958 1.387 . S
C962 C963 1.387 . S
C962 H966 0.950 . S
C962 C971 1.390 . S
C963 C962 1.387 . S
C963 C965 1.387 . S
H964 C971 0.950 . S
C965 C963 1.387 . S
C965 C967 1.390 . S
C965 H969 0.950 . S
H966 C962 0.950 . S
C967 C965 1.390 . S
C967 C968 1.387 . S
C967 H970 0.950 . S
C968 C967 1.387 . S
C968 C971 1.387 . S
H969 C965 0.950 . S
H970 C967 0.950 . S
C971 C962 1.390 . S
C971 H964 0.950 . S
C971 C968 1.387 . S
C972 C973 1.387 . S
C972 H976 0.950 . S
C972 C981 1.390 . S
C973 C972 1.387 . S
C973 C975 1.387 . S
H974 C981 0.950 . S
C975 C973 1.387 . S
C975 C977 1.390 . S
C975 H979 0.950 . S
H976 C972 0.950 . S
C977 C975 1.390 . S
C977 C978 1.387 . S
C977 H980 0.950 . S
C978 C977 1.387 . S
C978 C981 1.387 . S
H979 C975 0.950 . S
H980 C977 0.950 . S
C981 C972 1.390 . S
C981 H974 0.950 . S
C981 C978 1.387 . S
C982 C983 1.387 . S
C982 H986 0.950 . S
C982 C991 1.390 . S
C983 C982 1.387 . S
C983 C985 1.387 . S
H984 C991 0.950 . S
C985 C983 1.387 . S
C985 C987 1.390 . S
C985 H989 0.950 . S
H986 C982 0.950 . S
C987 C985 1.390 . S
C987 C988 1.387 . S
C987 H990 0.950 . S
C988 C987 1.387 . S
C988 C991 1.387 . S
H989 C985 0.950 . S
H990 C987 0.950 . S
C991 C982 1.390 . S
C991 H984 0.950 . S
C991 C988 1.387 . S
C992 C993 1.387 . S
C992 H996 0.950 . S
C992 C1001 1.390 . S
C993 C992 1.387 . S
C993 C995 1.387 . S
H994 C1001 0.950 . S
C995 C993 1.387 . S
C995 C997 1.390 . S
C995 H999 0.950 . S
H996 C992 0.950 . S
C997 C995 1.390 . S
C997 C998 1.387 . S
C997 H1000 0.950 . S
C998 C997 1.387 . S
C998 C1001 1.387 . S
H999 C995 0.950 . S
H1000 C997 0.950 . S
C1001 C992 1.390 . S
C1001 H994 0.950 . S
C1001 C998 1.387 . S
C1002 C1003 1.387 . S
C1002 H1006 0.950 . S
C1002 C1011 1.390 . S
C1003 C1002 1.387 . S
C1003 C1005 1.387 . S
H1004 C1011 0.950 . S
C1005 C1003 1.387 . S
C1005 C1007 1.390 . S
C1005 H1009 0.950 . S
H1006 C1002 0.950 . S
C1007 C1005 1.390 . S
C1007 C1008 1.387 . S
C1007 H1010 0.950 . S
C1008 C1007 1.387 . S
C1008 C1011 1.387 . S
H1009 C1005 0.950 . S
H1010 C1007 0.950 . S
C1011 C1002 1.390 . S
C1011 H1004 0.950 . S
C1011 C1008 1.387 . S
C1012 C1013 1.387 . S
C1012 H1016 0.950 . S
C1012 C1021 1.390 . S
C1013 C1012 1.387 . S
C1013 C1015 1.387 . S
H1014 C1021 0.950 . S
C1015 C1013 1.387 . S
C1015 C1017 1.390 . S
C1015 H1019 0.950 . S
H1016 C1012 0.950 . S
C1017 C1015 1.390 . S
C1017 C1018 1.387 . S
C1017 H1020 0.950 . S
C1018 C1017 1.387 . S
C1018 C1021 1.387 . S
H1019 C1015 0.950 . S
H1020 C1017 0.950 . S
C1021 C1012 1.390 . S
C1021 H1014 0.950 . S
C1021 C1018 1.387 . S
C1022 C1023 1.387 . S
C1022 H1026 0.950 . S
C1022 C1031 1.390 . S
C1023 C1022 1.387 . S
C1023 C1025 1.387 . S
H1024 C1031 0.950 . S
C1025 C1023 1.387 . S
C1025 C1027 1.390 . S
C1025 H1029 0.950 . S
H1026 C1022 0.950 . S
C1027 C1025 1.390 . S
C1027 C1028 1.387 . S
C1027 H1030 0.950 . S
C1028 C1027 1.387 . S
C1028 C1031 1.387 . S
H1029 C1025 0.950 . S
H1030 C1027 0.950 . S
C1031 C1022 1.390 . S
C1031 H1024 0.950 . S
C1031 C1028 1.387 . S
C1032 C1033 1.387 . S
C1032 H1036 0.950 . S
C1032 C1041 1.390 . S
C1033 C1032 1.387 . S
C1033 C1035 1.387 . S
H1034 C1041 0.950 1_455 S
C1035 C1033 1.387 . S
C1035 C1037 1.390 1_655 S
C1035 H1039 0.950 . S
H1036 C1032 0.950 . S
C1037 C1035 1.390 1_455 S
C1037 C1038 1.387 . S
C1037 H1040 0.950 . S
C1038 C1037 1.387 . S
C1038 C1041 1.387 1_455 S
H1039 C1035 0.950 . S
H1040 C1037 0.950 . S
C1041 C1032 1.390 . S
C1041 H1034 0.950 1_655 S
C1041 C1038 1.387 1_655 S
C1042 C1043 1.387 . S
C1042 H1046 0.950 . S
C1042 C1051 1.390 . S
C1043 C1042 1.387 . S
C1043 C1045 1.387 . S
H1044 C1051 0.950 . S
C1045 C1043 1.387 . S
C1045 C1047 1.390 . S
C1045 H1049 0.950 . S
H1046 C1042 0.950 . S
C1047 C1045 1.390 . S
C1047 C1048 1.387 . S
C1047 H1050 0.950 . S
C1048 C1047 1.387 . S
C1048 C1051 1.387 . S
H1049 C1045 0.950 . S
H1050 C1047 0.950 . S
C1051 C1042 1.390 . S
C1051 H1044 0.950 . S
C1051 C1048 1.387 . S
C1052 C1053 1.387 1_545 S
C1052 H1056 0.950 . S
C1052 C1061 1.390 . S
C1053 C1052 1.387 1_565 S
C1053 C1055 1.387 . S
H1054 C1061 0.950 . S
C1055 C1053 1.387 . S
C1055 C1057 1.390 1_565 S
C1055 H1059 0.950 . S
H1056 C1052 0.950 . S
C1057 C1055 1.390 1_545 S
C1057 C1058 1.387 . S
C1057 H1060 0.950 . S
C1058 C1057 1.387 . S
C1058 C1061 1.387 . S
H1059 C1055 0.950 . S
H1060 C1057 0.950 . S
C1061 C1052 1.390 . S
C1061 H1054 0.950 . S
C1061 C1058 1.387 . S
C1062 C1063 1.387 . S
C1062 H1066 0.950 . S
C1062 C1071 1.390 . S
C1063 C1062 1.387 . S
C1063 C1065 1.387 . S
H1064 C1071 0.950 . S
C1065 C1063 1.387 . S
C1065 C1067 1.390 . S
C1065 H1069 0.950 . S
H1066 C1062 0.950 . S
C1067 C1065 1.390 . S
C1067 C1068 1.387 . S
C1067 H1070 0.950 . S
C1068 C1067 1.387 . S
C1068 C1071 1.387 . S
H1069 C1065 0.950 . S
H1070 C1067 0.950 . S
C1071 C1062 1.390 . S
C1071 H1064 0.950 . S
C1071 C1068 1.387 . S
C1072 C1073 1.387 . S
C1072 H1076 0.950 . S
C1072 C1081 1.390 1_565 S
C1073 C1072 1.387 . S
C1073 C1075 1.387 1_565 S
H1074 C1081 0.950 1_565 S
C1075 C1073 1.387 1_545 S
C1075 C1077 1.390 . S
C1075 H1079 0.950 . S
H1076 C1072 0.950 . S
C1077 C1075 1.390 . S
C1077 C1078 1.387 . S
C1077 H1080 0.950 . S
C1078 C1077 1.387 . S
C1078 C1081 1.387 . S
H1079 C1075 0.950 . S
H1080 C1077 0.950 . S
C1081 C1072 1.390 1_545 S
C1081 H1074 0.950 1_545 S
C1081 C1078 1.387 . S
C1082 C1083 1.387 . S
C1082 H1086 0.950 . S
C1082 C1091 1.390 . S
C1083 C1082 1.387 . S
C1083 C1085 1.387 . S
H1084 C1091 0.950 . S
C1085 C1083 1.387 . S
C1085 C1087 1.390 . S
C1085 H1089 0.950 . S
H1086 C1082 0.950 . S
C1087 C1085 1.390 . S
C1087 C1088 1.387 . S
C1087 H1090 0.950 . S
C1088 C1087 1.387 . S
C1088 C1091 1.387 . S
H1089 C1085 0.950 . S
H1090 C1087 0.950 . S
C1091 C1082 1.390 . S
C1091 H1084 0.950 . S
C1091 C1088 1.387 . S
C1092 C1093 1.387 . S
C1092 H1096 0.950 . S
C1092 C1101 1.390 . S
C1093 C1092 1.387 . S
C1093 C1095 1.387 . S
H1094 C1101 0.950 . S
C1095 C1093 1.387 . S
C1095 C1097 1.390 . S
C1095 H1099 0.950 . S
H1096 C1092 0.950 . S
C1097 C1095 1.390 . S
C1097 C1098 1.387 . S
C1097 H1100 0.950 . S
C1098 C1097 1.387 . S
C1098 C1101 1.387 . S
H1099 C1095 0.950 . S
H1100 C1097 0.950 . S
C1101 C1092 1.390 . S
C1101 H1094 0.950 . S
C1101 C1098 1.387 . S
C1102 C1103 1.387 . S
C1102 H1106 0.950 . S
C1102 C1111 1.390 . S
C1103 C1102 1.387 . S
C1103 C1105 1.387 . S
H1104 C1111 0.950 . S
C1105 C1103 1.387 . S
C1105 C1107 1.390 . S
C1105 H1109 0.950 . S
H1106 C1102 0.950 . S
C1107 C1105 1.390 . S
C1107 C1108 1.387 . S
C1107 H1110 0.950 . S
C1108 C1107 1.387 . S
C1108 C1111 1.387 . S
H1109 C1105 0.950 . S
H1110 C1107 0.950 . S
C1111 C1102 1.390 . S
C1111 H1104 0.950 . S
C1111 C1108 1.387 . S
C1112 C1113 1.387 . S
C1112 H1116 0.950 . S
C1112 C1121 1.390 . S
C1113 C1112 1.387 . S
C1113 C1115 1.387 . S
H1114 C1121 0.950 . S
C1115 C1113 1.387 . S
C1115 C1117 1.390 1_565 S
C1115 H1119 0.950 . S
H1116 C1112 0.950 . S
C1117 C1115 1.390 1_545 S
C1117 C1118 1.387 1_545 S
C1117 H1120 0.950 . S
C1118 C1117 1.387 1_565 S
C1118 C1121 1.387 . S
H1119 C1115 0.950 . S
H1120 C1117 0.950 . S
C1121 C1112 1.390 . S
C1121 H1114 0.950 . S
C1121 C1118 1.387 . S
C1122 C1123 1.387 . S
C1122 H1126 0.950 1_554 S
C1122 C1131 1.390 . S
C1123 C1122 1.387 . S
C1123 C1125 1.387 . S
H1124 C1131 0.950 . S
C1125 C1123 1.387 . S
C1125 C1127 1.390 . S
C1125 H1129 0.950 . S
H1126 C1122 0.950 1_556 S
C1127 C1125 1.390 . S
C1127 C1128 1.387 . S
C1127 H1130 0.950 . S
C1128 C1127 1.387 . S
C1128 C1131 1.387 . S
H1129 C1125 0.950 . S
H1130 C1127 0.950 . S
C1131 C1122 1.390 . S
C1131 H1124 0.950 . S
C1131 C1128 1.387 . S
C1132 C1133 1.387 . S
C1132 H1136 0.950 . S
C1132 C1141 1.390 . S
C1133 C1132 1.387 . S
C1133 C1135 1.387 . S
H1134 C1141 0.950 . S
C1135 C1133 1.387 . S
C1135 C1137 1.390 . S
C1135 H1139 0.950 . S
H1136 C1132 0.950 . S
C1137 C1135 1.390 . S
C1137 C1138 1.387 . S
C1137 H1140 0.950 . S
C1138 C1137 1.387 . S
C1138 C1141 1.387 . S
H1139 C1135 0.950 . S
H1140 C1137 0.950 . S
C1141 C1132 1.390 . S
C1141 H1134 0.950 . S
C1141 C1138 1.387 . S
C1142 C1143 1.387 . S
C1142 H1146 0.950 . S
C1142 C1151 1.390 . S
C1143 C1142 1.387 . S
C1143 C1145 1.387 . S
H1144 C1151 0.950 . S
C1145 C1143 1.387 . S
C1145 C1147 1.390 . S
C1145 H1149 0.950 . S
H1146 C1142 0.950 . S
C1147 C1145 1.390 . S
C1147 C1148 1.387 . S
C1147 H1150 0.950 . S
C1148 C1147 1.387 . S
C1148 C1151 1.387 . S
H1149 C1145 0.950 . S
H1150 C1147 0.950 . S
C1151 C1142 1.390 . S
C1151 H1144 0.950 . S
C1151 C1148 1.387 . S
C1152 C1153 1.387 . S
C1152 H1156 0.950 . S
C1152 C1161 1.390 . S
C1153 C1152 1.387 . S
C1153 C1155 1.387 . S
H1154 C1161 0.950 . S
C1155 C1153 1.387 . S
C1155 C1157 1.390 . S
C1155 H1159 0.950 . S
H1156 C1152 0.950 . S
C1157 C1155 1.390 . S
C1157 C1158 1.387 . S
C1157 H1160 0.950 . S
C1158 C1157 1.387 . S
C1158 C1161 1.387 . S
H1159 C1155 0.950 . S
H1160 C1157 0.950 . S
C1161 C1152 1.390 . S
C1161 H1154 0.950 . S
C1161 C1158 1.387 . S
C1162 C1163 1.387 . S
C1162 H1166 0.950 . S
C1162 C1171 1.390 . S
C1163 C1162 1.387 . S
C1163 C1165 1.387 . S
H1164 C1171 0.950 . S
C1165 C1163 1.387 . S
C1165 C1167 1.390 . S
C1165 H1169 0.950 . S
H1166 C1162 0.950 . S
C1167 C1165 1.390 . S
C1167 C1168 1.387 . S
C1167 H1170 0.950 . S
C1168 C1167 1.387 . S
C1168 C1171 1.387 . S
H1169 C1165 0.950 . S
H1170 C1167 0.950 . S
C1171 C1162 1.390 . S
C1171 H1164 0.950 . S
C1171 C1168 1.387 . S
C1172 C1173 1.387 . S
C1172 H1176 0.950 . S
C1172 C1181 1.390 . S
C1173 C1172 1.387 . S
C1173 C1175 1.387 . S
H1174 C1181 0.950 . S
C1175 C1173 1.387 . S
C1175 C1177 1.390 . S
C1175 H1179 0.950 . S
H1176 C1172 0.950 . S
C1177 C1175 1.390 . S
C1177 C1178 1.387 . S
C1177 H1180 0.950 . S
C1178 C1177 1.387 . S
C1178 C1181 1.387 . S
H1179 C1175 0.950 . S
H1180 C1177 0.950 . S
C1181 C1172 1.390 . S
C1181 H1174 0.950 . S
C1181 C1178 1.387 . S
C1182 C1183 1.387 . S
C1182 H1186 0.950 . S
C1182 C1191 1.390 . S
C1183 C1182 1.387 . S
C1183 C1185 1.387 . S
H1184 C1191 0.950 . S
C1185 C1183 1.387 . S
C1185 C1187 1.390 . S
C1185 H1189 0.950 . S
H1186 C1182 0.950 . S
C1187 C1185 1.390 . S
C1187 C1188 1.387 . S
C1187 H1190 0.950 . S
C1188 C1187 1.387 . S
C1188 C1191 1.387 . S
H1189 C1185 0.950 . S
H1190 C1187 0.950 . S
C1191 C1182 1.390 . S
C1191 H1184 0.950 . S
C1191 C1188 1.387 . S
C1192 C1193 1.387 . S
C1192 H1196 0.950 . S
C1192 C1201 1.390 . S
C1193 C1192 1.387 . S
C1193 C1195 1.387 . S
H1194 C1201 0.950 . S
C1195 C1193 1.387 . S
C1195 C1197 1.398 . S
C1195 H1199 0.950 . S
H1196 C1192 0.950 . S
C1197 C1195 1.398 . S
C1197 C1198 1.390 . S
C1197 H1200 0.939 1_565 S
C1198 C1197 1.390 . S
C1198 C1201 1.387 . S
H1199 C1195 0.950 . S
H1200 C1197 0.939 1_545 S
C1201 C1192 1.390 . S
C1201 H1194 0.950 . S
C1201 C1198 1.387 . S
C1202 C1203 1.387 . S
C1202 H1206 0.950 . S
C1202 C1211 1.390 . S
C1203 C1202 1.387 . S
C1203 C1205 1.387 . S
H1204 C1211 0.950 . S
C1205 C1203 1.387 . S
C1205 C1207 1.390 . S
C1205 H1209 0.950 . S
H1206 C1202 0.950 . S
C1207 C1205 1.390 . S
C1207 C1208 1.387 . S
C1207 H1210 0.950 . S
C1208 C1207 1.387 . S
C1208 C1211 1.387 . S
H1209 C1205 0.950 . S
H1210 C1207 0.950 . S
C1211 C1202 1.390 . S
C1211 H1204 0.950 . S
C1211 C1208 1.387 . S
C1212 C1213 1.387 . S
C1212 H1216 0.950 . S
C1212 C1221 1.390 . S
C1213 C1212 1.387 . S
C1213 C1215 1.387 . S
H1214 C1221 0.950 . S
C1215 C1213 1.387 . S
C1215 C1217 1.390 . S
C1215 H1219 0.950 . S
H1216 C1212 0.950 . S
C1217 C1215 1.390 . S
C1217 C1218 1.387 . S
C1217 H1220 0.950 . S
C1218 C1217 1.387 . S
C1218 C1221 1.387 . S
H1219 C1215 0.950 . S
H1220 C1217 0.950 . S
C1221 C1212 1.390 . S
C1221 H1214 0.950 . S
C1221 C1218 1.387 . S
C1222 C1223 1.387 . S
C1222 H1226 0.950 . S
C1222 C1231 1.390 . S
C1223 C1222 1.387 . S
C1223 C1225 1.387 . S
H1224 C1231 0.950 . S
C1225 C1223 1.387 . S
C1225 C1227 1.390 . S
C1225 H1229 0.950 . S
H1226 C1222 0.950 . S
C1227 C1225 1.390 . S
C1227 C1228 1.387 . S
C1227 H1230 0.950 . S
C1228 C1227 1.387 . S
C1228 C1231 1.387 . S
H1229 C1225 0.950 . S
H1230 C1227 0.950 . S
C1231 C1222 1.390 . S
C1231 H1224 0.950 . S
C1231 C1228 1.387 . S
C1232 C1233 1.387 . S
C1232 H1236 0.950 . S
C1232 C1241 1.390 . S
C1233 C1232 1.387 . S
C1233 C1235 1.387 . S
H1234 C1241 0.950 . S
C1235 C1233 1.387 . S
C1235 C1237 1.390 . S
C1235 H1239 0.950 . S
H1236 C1232 0.950 . S
C1237 C1235 1.390 . S
C1237 C1238 1.387 . S
C1237 H1240 0.950 1_455 S
C1238 C1237 1.387 . S
C1238 C1241 1.387 . S
H1239 C1235 0.950 . S
H1240 C1237 0.950 1_655 S
C1241 C1232 1.390 . S
C1241 H1234 0.950 . S
C1241 C1238 1.387 . S
C1242 C1243 1.387 . S
C1242 H1246 0.950 . S
C1242 C1251 1.390 . S
C1243 C1242 1.387 . S
C1243 C1245 1.387 . S
H1244 C1251 0.950 . S
C1245 C1243 1.387 . S
C1245 C1247 1.390 . S
C1245 H1249 0.950 . S
H1246 C1242 0.950 . S
C1247 C1245 1.390 . S
C1247 C1248 1.387 . S
C1247 H1250 0.950 . S
C1248 C1247 1.387 . S
C1248 C1251 1.387 . S
H1249 C1245 0.950 . S
H1250 C1247 0.950 . S
C1251 C1242 1.390 . S
C1251 H1244 0.950 . S
C1251 C1248 1.387 . S
C1252 C1253 1.387 . S
C1252 H1256 0.950 . S
C1252 C1261 1.390 . S
C1253 C1252 1.387 . S
C1253 C1255 1.387 . S
H1254 C1261 0.950 . S
C1255 C1253 1.387 . S
C1255 C1257 1.390 . S
C1255 H1259 0.950 . S
H1256 C1252 0.950 . S
C1257 C1255 1.390 . S
C1257 C1258 1.387 . S
C1257 H1260 0.950 . S
C1258 C1257 1.387 . S
C1258 C1261 1.387 . S
H1259 C1255 0.950 . S
H1260 C1257 0.950 . S
C1261 C1252 1.390 . S
C1261 H1254 0.950 . S
C1261 C1258 1.387 . S
C1262 C1263 1.387 . S
C1262 H1266 0.950 . S
C1262 C1271 1.390 . S
C1263 C1262 1.387 . S
C1263 C1265 1.387 . S
H1264 C1271 0.950 . S
C1265 C1263 1.387 . S
C1265 C1267 1.390 . S
C1265 H1269 0.950 . S
H1266 C1262 0.950 . S
C1267 C1265 1.390 . S
C1267 C1268 1.387 . S
C1267 H1270 0.950 . S
C1268 C1267 1.387 . S
C1268 C1271 1.387 . S
H1269 C1265 0.950 . S
H1270 C1267 0.950 . S
C1271 C1262 1.390 . S
C1271 H1264 0.950 . S
C1271 C1268 1.387 . S
C1272 C1273 1.387 . S
C1272 H1276 0.950 . S
C1272 C1281 1.390 . S
C1273 C1272 1.387 . S
C1273 C1275 1.387 . S
H1274 C1281 0.950 1_554 S
C1275 C1273 1.387 . S
C1275 C1277 1.390 . S
C1275 H1279 0.950 . S
H1276 C1272 0.950 . S
C1277 C1275 1.390 . S
C1277 C1278 1.387 . S
C1277 H1280 0.950 . S
C1278 C1277 1.387 . S
C1278 C1281 1.387 . S
H1279 C1275 0.950 . S
H1280 C1277 0.950 . S
C1281 C1272 1.390 . S
C1281 H1274 0.950 1_556 S
C1281 C1278 1.387 . S
C1282 C1283 1.387 . S
C1282 H1286 0.950 . S
C1282 C1291 1.390 . S
C1283 C1282 1.387 . S
C1283 C1285 1.387 . S
H1284 C1291 0.950 . S
C1285 C1283 1.387 . S
C1285 C1287 1.390 . S
C1285 H1289 0.950 . S
H1286 C1282 0.950 . S
C1287 C1285 1.390 . S
C1287 C1288 1.387 . S
C1287 H1290 0.950 . S
C1288 C1287 1.387 . S
C1288 C1291 1.387 . S
H1289 C1285 0.950 . S
H1290 C1287 0.950 . S
C1291 C1282 1.390 . S
C1291 H1284 0.950 . S
C1291 C1288 1.387 . S
C1292 C1293 1.387 . S
C1292 H1296 0.950 . S
C1292 C1301 1.390 . S
C1293 C1292 1.387 . S
C1293 C1295 1.387 . S
H1294 C1301 0.950 . S
C1295 C1293 1.387 . S
C1295 C1297 1.390 . S
C1295 H1299 0.950 . S
H1296 C1292 0.950 . S
C1297 C1295 1.390 . S
C1297 C1298 1.387 . S
C1297 H1300 0.950 . S
C1298 C1297 1.387 . S
C1298 C1301 1.387 . S
H1299 C1295 0.950 . S
H1300 C1297 0.950 . S
C1301 C1292 1.390 . S
C1301 H1294 0.950 . S
C1301 C1298 1.387 . S
C1302 C1303 1.387 . S
C1302 H1306 0.950 . S
C1302 C1311 1.390 . S
C1303 C1302 1.387 . S
C1303 C1305 1.387 . S
H1304 C1311 0.950 . S
C1305 C1303 1.387 . S
C1305 C1307 1.390 . S
C1305 H1309 0.950 . S
H1306 C1302 0.950 . S
C1307 C1305 1.390 . S
C1307 C1308 1.387 . S
C1307 H1310 0.950 . S
C1308 C1307 1.387 . S
C1308 C1311 1.387 . S
H1309 C1305 0.950 . S
H1310 C1307 0.950 . S
C1311 C1302 1.390 . S
C1311 H1304 0.950 . S
C1311 C1308 1.387 . S
C1312 C1313 1.387 . S
C1312 H1316 0.950 . S
C1312 C1321 1.390 . S
C1313 C1312 1.387 . S
C1313 C1315 1.387 . S
H1314 C1321 0.950 . S
C1315 C1313 1.387 . S
C1315 C1317 1.390 . S
C1315 H1319 0.950 . S
H1316 C1312 0.950 . S
C1317 C1315 1.390 . S
C1317 C1318 1.387 . S
C1317 H1320 0.950 . S
C1318 C1317 1.387 . S
C1318 C1321 1.387 . S
H1319 C1315 0.950 . S
H1320 C1317 0.950 . S
C1321 C1312 1.390 . S
C1321 H1314 0.950 . S
C1321 C1318 1.387 . S
C1322 C1323 1.387 . S
C1322 H1326 0.950 . S
C1322 C1331 1.390 . S
C1323 C1322 1.387 . S
C1323 C1325 1.387 . S
H1324 C1331 0.950 . S
C1325 C1323 1.387 . S
C1325 C1327 1.390 . S
C1325 H1329 0.950 . S
H1326 C1322 0.950 . S
C1327 C1325 1.390 . S
C1327 C1328 1.387 . S
C1327 H1330 0.950 . S
C1328 C1327 1.387 . S
C1328 C1331 1.387 . S
H1329 C1325 0.950 . S
H1330 C1327 0.950 . S
C1331 C1322 1.390 . S
C1331 H1324 0.950 . S
C1331 C1328 1.387 . S
C1332 C1333 1.387 . S
C1332 H1336 0.950 . S
C1332 C1341 1.390 . S
C1333 C1332 1.387 . S
C1333 C1335 1.387 . S
H1334 C1341 0.950 . S
C1335 C1333 1.387 . S
C1335 C1337 1.390 . S
C1335 H1339 0.950 . S
H1336 C1332 0.950 . S
C1337 C1335 1.390 . S
C1337 C1338 1.387 . S
C1337 H1340 0.950 . S
C1338 C1337 1.387 . S
C1338 C1341 1.387 . S
H1339 C1335 0.950 . S
H1340 C1337 0.950 . S
C1341 C1332 1.390 . S
C1341 H1334 0.950 . S
C1341 C1338 1.387 . S
C1342 C1343 1.387 . S
C1342 H1346 0.950 . S
C1342 C1351 1.390 . S
C1343 C1342 1.387 . S
C1343 C1345 1.387 . S
H1344 C1351 0.950 . S
C1345 C1343 1.387 . S
C1345 C1347 1.390 . S
C1345 H1349 0.950 . S
H1346 C1342 0.950 . S
C1347 C1345 1.390 . S
C1347 C1348 1.387 . S
C1347 H1350 0.950 . S
C1348 C1347 1.387 . S
C1348 C1351 1.387 . S
H1349 C1345 0.950 . S
H1350 C1347 0.950 . S
C1351 C1342 1.390 . S
C1351 H1344 0.950 . S
C1351 C1348 1.387 . S
C1352 C1353 1.387 1_556 S
C1352 H1356 0.950 . S
C1352 C1361 1.390 . S
C1353 C1352 1.387 1_554 S
C1353 C1355 1.387 . S
H1354 C1361 0.950 . S
C1355 C1353 1.387 . S
C1355 C1357 1.390 . S
C1355 H1359 0.950 . S
H1356 C1352 0.950 . S
C1357 C1355 1.390 . S
C1357 C1358 1.387 1_554 S
C1357 H1360 0.950 . S
C1358 C1357 1.387 1_556 S
C1358 C1361 1.387 . S
H1359 C1355 0.950 . S
H1360 C1357 0.950 . S
C1361 C1352 1.390 . S
C1361 H1354 0.950 . S
C1361 C1358 1.387 . S
C1362 C1363 1.387 . S
C1362 H1366 0.950 . S
C1362 C1371 1.390 . S
C1363 C1362 1.387 . S
C1363 C1365 1.387 . S
H1364 C1371 0.950 . S
C1365 C1363 1.387 . S
C1365 C1367 1.390 . S
C1365 H1369 0.950 1_554 S
H1366 C1362 0.950 . S
C1367 C1365 1.390 . S
C1367 C1368 1.387 . S
C1367 H1370 0.950 1_554 S
C1368 C1367 1.387 . S
C1368 C1371 1.387 . S
H1369 C1365 0.950 1_556 S
H1370 C1367 0.950 1_556 S
C1371 C1362 1.390 . S
C1371 H1364 0.950 . S
C1371 C1368 1.387 . S
C1372 C1373 1.387 . S
C1372 H1376 0.950 . S
C1372 C1381 1.390 . S
C1373 C1372 1.387 . S
C1373 C1375 1.387 . S
H1374 C1381 0.950 . S
C1375 C1373 1.387 . S
C1375 C1377 1.390 . S
C1375 H1379 0.950 . S
H1376 C1372 0.950 . S
C1377 C1375 1.390 . S
C1377 C1378 1.387 . S
C1377 H1380 0.950 . S
C1378 C1377 1.387 . S
C1378 C1381 1.387 . S
H1379 C1375 0.950 . S
H1380 C1377 0.950 . S
C1381 C1372 1.390 . S
C1381 H1374 0.950 . S
C1381 C1378 1.387 . S
C1382 C1383 1.387 . S
C1382 H1386 0.950 . S
C1382 C1391 1.390 . S
C1383 C1382 1.387 . S
C1383 C1385 1.387 . S
H1384 C1391 0.950 . S
C1385 C1383 1.387 . S
C1385 C1387 1.390 . S
C1385 H1389 0.950 . S
H1386 C1382 0.950 . S
C1387 C1385 1.390 . S
C1387 C1388 1.387 . S
C1387 H1390 0.950 . S
C1388 C1387 1.387 . S
C1388 C1391 1.387 . S
H1389 C1385 0.950 . S
H1390 C1387 0.950 . S
C1391 C1382 1.390 . S
C1391 H1384 0.950 . S
C1391 C1388 1.387 . S
C1392 C1393 1.387 . S
C1392 H1396 0.950 . S
C1392 C1401 1.390 . S
C1393 C1392 1.387 . S
C1393 C1395 1.387 . S
H1394 C1401 0.950 . S
C1395 C1393 1.387 . S
C1395 C1397 1.390 . S
C1395 H1399 0.950 . S
H1396 C1392 0.950 . S
C1397 C1395 1.390 . S
C1397 C1398 1.387 . S
C1397 H1400 0.950 . S
C1398 C1397 1.387 . S
C1398 C1401 1.387 . S
H1399 C1395 0.950 . S
H1400 C1397 0.950 . S
C1401 C1392 1.390 . S
C1401 H1394 0.950 . S
C1401 C1398 1.387 . S
C1402 C1403 1.387 . S
C1402 H1406 0.950 . S
C1402 C1411 1.390 . S
C1403 C1402 1.387 . S
C1403 C1405 1.387 . S
H1404 C1411 0.950 . S
C1405 C1403 1.387 . S
C1405 C1407 1.390 . S
C1405 H1409 0.950 . S
H1406 C1402 0.950 . S
C1407 C1405 1.390 . S
C1407 C1408 1.387 . S
C1407 H1410 0.950 . S
C1408 C1407 1.387 . S
C1408 C1411 1.387 . S
H1409 C1405 0.950 . S
H1410 C1407 0.950 . S
C1411 C1402 1.390 . S
C1411 H1404 0.950 . S
C1411 C1408 1.387 . S
C1412 C1413 1.387 . S
C1412 H1416 0.950 . S
C1412 C1421 1.390 . S
C1413 C1412 1.387 . S
C1413 C1415 1.387 . S
H1414 C1421 0.950 . S
C1415 C1413 1.387 . S
C1415 C1417 1.390 . S
C1415 H1419 0.950 . S
H1416 C1412 0.950 . S
C1417 C1415 1.390 . S
C1417 C1418 1.387 . S
C1417 H1420 0.950 . S
C1418 C1417 1.387 . S
C1418 C1421 1.387 . S
H1419 C1415 0.950 . S
H1420 C1417 0.950 . S
C1421 C1412 1.390 . S
C1421 H1414 0.950 . S
C1421 C1418 1.387 . S
C1422 C1423 1.387 . S
C1422 H1426 0.950 . S
C1422 C1431 1.390 . S
C1423 C1422 1.387 . S
C1423 C1425 1.387 . S
H1424 C1431 0.950 . S
C1425 C1423 1.387 . S
C1425 C1427 1.390 . S
C1425 H1429 0.950 . S
H1426 C1422 0.950 . S
C1427 C1425 1.390 . S
C1427 C1428 1.387 . S
C1427 H1430 0.950 . S
C1428 C1427 1.387 . S
C1428 C1431 1.387 . S
H1429 C1425 0.950 . S
H1430 C1427 0.950 . S
C1431 C1422 1.390 . S
C1431 H1424 0.950 . S
C1431 C1428 1.387 . S
C1432 C1433 1.387 . S
C1432 H1436 0.950 . S
C1432 C1441 1.390 . S
C1433 C1432 1.387 . S
C1433 C1435 1.387 . S
H1434 C1441 0.950 . S
C1435 C1433 1.387 . S
C1435 C1437 1.390 . S
C1435 H1439 0.950 . S
H1436 C1432 0.950 . S
C1437 C1435 1.390 . S
C1437 C1438 1.387 . S
C1437 H1440 0.950 . S
C1438 C1437 1.387 . S
C1438 C1441 1.387 . S
H1439 C1435 0.950 . S
H1440 C1437 0.950 . S
C1441 C1432 1.390 . S
C1441 H1434 0.950 . S
C1441 C1438 1.387 . S
C1442 C1443 1.387 . S
C1442 H1446 0.950 . S
C1442 C1451 1.390 . S
C1443 C1442 1.387 . S
C1443 C1445 1.387 . S
H1444 C1451 0.950 . S
C1445 C1443 1.387 . S
C1445 C1447 1.390 . S
C1445 H1449 0.950 . S
H1446 C1442 0.950 . S
C1447 C1445 1.390 . S
C1447 C1448 1.387 . S
C1447 H1450 0.950 . S
C1448 C1447 1.387 . S
C1448 C1451 1.387 . S
H1449 C1445 0.950 . S
H1450 C1447 0.950 . S
C1451 C1442 1.390 . S
C1451 H1444 0.950 . S
C1451 C1448 1.387 . S
C1452 C1453 1.387 1_655 S
C1452 H1456 0.950 . S
C1452 C1461 1.390 . S
C1453 C1452 1.387 1_455 S
C1453 C1455 1.387 . S
H1454 C1461 0.950 . S
C1455 C1453 1.387 . S
C1455 C1457 1.390 . S
C1455 H1459 0.950 . S
H1456 C1452 0.950 . S
C1457 C1455 1.390 . S
C1457 C1458 1.387 . S
C1457 H1460 0.950 . S
C1458 C1457 1.387 . S
C1458 C1461 1.387 1_455 S
H1459 C1455 0.950 . S
H1460 C1457 0.950 . S
C1461 C1452 1.390 . S
C1461 H1454 0.950 . S
C1461 C1458 1.387 1_655 S
C1462 C1463 1.387 . S
C1462 H1466 0.950 . S
C1462 C1471 1.390 . S
C1463 C1462 1.387 . S
C1463 C1465 1.387 . S
H1464 C1471 0.950 . S
C1465 C1463 1.387 . S
C1465 C1467 1.390 . S
C1465 H1469 0.950 . S
H1466 C1462 0.950 . S
C1467 C1465 1.390 . S
C1467 C1468 1.387 . S
C1467 H1470 0.950 . S
C1468 C1467 1.387 . S
C1468 C1471 1.387 . S
H1469 C1465 0.950 . S
H1470 C1467 0.950 . S
C1471 C1462 1.390 . S
C1471 H1464 0.950 . S
C1471 C1468 1.387 . S
C1472 C1473 1.387 . S
C1472 H1476 0.950 . S
C1472 C1481 1.390 . S
C1473 C1472 1.387 . S
C1473 C1475 1.387 . S
H1474 C1481 0.950 . S
C1475 C1473 1.387 . S
C1475 C1477 1.390 . S
C1475 H1479 0.950 . S
H1476 C1472 0.950 . S
C1477 C1475 1.390 . S
C1477 C1478 1.387 . S
C1477 H1480 0.950 . S
C1478 C1477 1.387 . S
C1478 C1481 1.387 . S
H1479 C1475 0.950 . S
H1480 C1477 0.950 . S
C1481 C1472 1.390 . S
C1481 H1474 0.950 . S
C1481 C1478 1.387 . S
C1482 C1483 1.387 . S
C1482 H1486 0.950 . S
C1482 C1491 1.390 . S
C1483 C1482 1.387 . S
C1483 C1485 1.387 . S
H1484 C1491 0.950 . S
C1485 C1483 1.387 . S
C1485 C1487 1.390 . S
C1485 H1489 0.950 . S
H1486 C1482 0.950 . S
C1487 C1485 1.390 . S
C1487 C1488 1.387 . S
C1487 H1490 0.950 . S
C1488 C1487 1.387 . S
C1488 C1491 1.387 . S
H1489 C1485 0.950 . S
H1490 C1487 0.950 . S
C1491 C1482 1.390 . S
C1491 H1484 0.950 . S
C1491 C1488 1.387 . S
C1492 C1493 1.387 . S
C1492 H1496 0.950 . S
C1492 C1501 1.390 . S
C1493 C1492 1.387 . S
C1493 C1495 1.387 . S
H1494 C1501 0.950 . S
C1495 C1493 1.387 . S
C1495 C1497 1.390 . S
C1495 H1499 0.950 1_455 S
H1496 C1492 0.950 . S
C1497 C1495 1.390 . S
C1497 C1498 1.387 . S
C1497 H1500 0.950 1_455 S
C1498 C1497 1.387 . S
C1498 C1501 1.387 . S
H1499 C1495 0.950 1_655 S
H1500 C1497 0.950 1_655 S
C1501 C1492 1.390 . S
C1501 H1494 0.950 . S
C1501 C1498 1.387 . S
C1502 C1503 1.387 . S
C1502 H1506 0.950 . S
C1502 C1511 1.390 . S
C1503 C1502 1.387 . S
C1503 C1505 1.387 . S
H1504 C1511 0.950 . S
C1505 C1503 1.387 . S
C1505 C1507 1.390 . S
C1505 H1509 0.950 . S
H1506 C1502 0.950 . S
C1507 C1505 1.390 . S
C1507 C1508 1.387 . S
C1507 H1510 0.950 . S
C1508 C1507 1.387 . S
C1508 C1511 1.387 . S
H1509 C1505 0.950 . S
H1510 C1507 0.950 . S
C1511 C1502 1.390 . S
C1511 H1504 0.950 . S
C1511 C1508 1.387 . S
C1512 C1513 1.387 . S
C1512 H1516 0.950 . S
C1512 C1521 1.390 . S
C1513 C1512 1.387 . S
C1513 C1515 1.387 . S
H1514 C1521 0.950 . S
C1515 C1513 1.387 . S
C1515 C1517 1.390 . S
C1515 H1519 0.950 . S
H1516 C1512 0.950 . S
C1517 C1515 1.390 . S
C1517 C1518 1.387 . S
C1517 H1520 0.950 . S
C1518 C1517 1.387 . S
C1518 C1521 1.387 . S
H1519 C1515 0.950 . S
H1520 C1517 0.950 . S
C1521 C1512 1.390 . S
C1521 H1514 0.950 . S
C1521 C1518 1.387 . S
C1522 C1523 1.387 . S
C1522 H1526 0.950 . S
C1522 C1531 1.390 . S
C1523 C1522 1.387 . S
C1523 C1525 1.387 . S
H1524 C1531 0.950 . S
C1525 C1523 1.387 . S
C1525 C1527 1.390 . S
C1525 H1529 0.950 . S
H1526 C1522 0.950 . S
C1527 C1525 1.390 . S
C1527 C1528 1.387 . S
C1527 H1530 0.950 . S
C1528 C1527 1.387 . S
C1528 C1531 1.387 . S
H1529 C1525 0.950 . S
H1530 C1527 0.950 . S
C1531 C1522 1.390 . S
C1531 H1524 0.950 . S
C1531 C1528 1.387 . S
C1532 C1533 1.387 . S
C1532 H1536 0.950 . S
C1532 C1541 1.390 . S
C1533 C1532 1.387 . S
C1533 C1535 1.387 . S
H1534 C1541 0.950 . S
C1535 C1533 1.387 . S
C1535 C1537 1.390 . S
C1535 H1539 0.950 . S
H1536 C1532 0.950 . S
C1537 C1535 1.390 . S
C1537 C1538 1.387 . S
C1537 H1540 0.950 . S
C1538 C1537 1.387 . S
C1538 C1541 1.387 . S
H1539 C1535 0.950 . S
H1540 C1537 0.950 . S
C1541 C1532 1.390 . S
C1541 H1534 0.950 . S
C1541 C1538 1.387 . S
C1542 C1543 1.387 . S
C1542 H1546 0.950 . S
C1542 C1551 1.390 . S
C1543 C1542 1.387 . S
C1543 C1545 1.387 . S
H1544 C1551 0.950 . S
C1545 C1543 1.387 . S
C1545 C1547 1.390 . S
C1545 H1549 0.950 . S
H1546 C1542 0.950 . S
C1547 C1545 1.390 . S
C1547 C1548 1.387 . S
C1547 H1550 0.950 . S
C1548 C1547 1.387 . S
C1548 C1551 1.387 . S
H1549 C1545 0.950 . S
H1550 C1547 0.950 . S
C1551 C1542 1.390 . S
C1551 H1544 0.950 . S
C1551 C1548 1.387 . S
C1552 C1553 1.387 . S
C1552 H1556 0.950 . S
C1552 C1561 1.390 . S
C1553 C1552 1.387 . S
C1553 C1555 1.387 . S
H1554 C1561 0.950 . S
C1555 C1553 1.387 . S
C1555 C1557 1.390 . S
C1555 H1559 0.950 . S
H1556 C1552 0.950 . S
C1557 C1555 1.390 . S
C1557 C1558 1.387 . S
C1557 H1560 0.950 . S
C1558 C1557 1.387 . S
C1558 C1561 1.387 . S
H1559 C1555 0.950 . S
H1560 C1557 0.950 . S
C1561 C1552 1.390 . S
C1561 H1554 0.950 . S
C1561 C1558 1.387 . S
C1562 C1563 1.387 . S
C1562 H1566 0.950 . S
C1562 C1571 1.390 . S
C1563 C1562 1.387 . S
C1563 C1565 1.387 . S
H1564 C1571 0.950 . S
C1565 C1563 1.387 . S
C1565 C1567 1.390 . S
C1565 H1569 0.950 . S
H1566 C1562 0.950 . S
C1567 C1565 1.390 . S
C1567 C1568 1.387 . S
C1567 H1570 0.950 . S
C1568 C1567 1.387 . S
C1568 C1571 1.387 . S
H1569 C1565 0.950 . S
H1570 C1567 0.950 . S
C1571 C1562 1.390 . S
C1571 H1564 0.950 . S
C1571 C1568 1.387 . S
C1572 C1573 1.387 . S
C1572 H1576 0.950 . S
C1572 C1581 1.390 . S
C1573 C1572 1.387 . S
C1573 C1575 1.387 . S
H1574 C1581 0.950 . S
C1575 C1573 1.387 . S
C1575 C1577 1.390 . S
C1575 H1579 0.950 . S
H1576 C1572 0.950 . S
C1577 C1575 1.390 . S
C1577 C1578 1.387 . S
C1577 H1580 0.950 . S
C1578 C1577 1.387 . S
C1578 C1581 1.387 . S
H1579 C1575 0.950 . S
H1580 C1577 0.950 . S
C1581 C1572 1.390 . S
C1581 H1574 0.950 . S
C1581 C1578 1.387 . S
C1582 C1583 1.387 . S
C1582 H1586 0.950 . S
C1582 C1591 1.390 . S
C1583 C1582 1.387 . S
C1583 C1585 1.387 . S
H1584 C1591 0.950 . S
C1585 C1583 1.387 . S
C1585 C1587 1.390 . S
C1585 H1589 0.950 . S
H1586 C1582 0.950 . S
C1587 C1585 1.390 . S
C1587 C1588 1.387 . S
C1587 H1590 0.950 . S
C1588 C1587 1.387 . S
C1588 C1591 1.387 . S
H1589 C1585 0.950 . S
H1590 C1587 0.950 . S
C1591 C1582 1.390 . S
C1591 H1584 0.950 . S
C1591 C1588 1.387 . S
C1592 C1593 1.387 . S
C1592 H1596 0.950 . S
C1592 C1601 1.390 . S
C1593 C1592 1.387 . S
C1593 C1595 1.387 . S
H1594 C1601 0.950 . S
C1595 C1593 1.387 . S
C1595 C1597 1.390 . S
C1595 H1599 0.950 . S
H1596 C1592 0.950 . S
C1597 C1595 1.390 . S
C1597 C1598 1.387 . S
C1597 H1600 0.950 . S
C1598 C1597 1.387 . S
C1598 C1601 1.387 . S
H1599 C1595 0.950 . S
H1600 C1597 0.950 . S
C1601 C1592 1.390 . S
C1601 H1594 0.950 . S
C1601 C1598 1.387 . S
C1602 C1603 1.387 . S
C1602 H1606 0.950 . S
C1602 C1611 1.390 . S
C1603 C1602 1.387 . S
C1603 C1605 1.387 . S
H1604 C1611 0.950 . S
C1605 C1603 1.387 . S
C1605 C1607 1.390 . S
C1605 H1609 0.950 . S
H1606 C1602 0.950 . S
C1607 C1605 1.390 . S
C1607 C1608 1.387 . S
C1607 H1610 0.950 . S
C1608 C1607 1.387 . S
C1608 C1611 1.387 . S
H1609 C1605 0.950 . S
H1610 C1607 0.950 . S
C1611 C1602 1.390 . S
C1611 H1604 0.950 . S
C1611 C1608 1.387 . S
C1612 C1613 1.387 . S
C1612 H1616 0.950 . S
C1612 C1621 1.390 1_545 S
C1613 C1612 1.387 . S
C1613 C1615 1.387 . S
H1614 C1621 0.950 . S
C1615 C1613 1.387 . S
C1615 C1617 1.390 . S
C1615 H1619 0.950 . S
H1616 C1612 0.950 . S
C1617 C1615 1.390 . S
C1617 C1618 1.387 1_545 S
C1617 H1620 0.950 . S
C1618 C1617 1.387 1_565 S
C1618 C1621 1.387 . S
H1619 C1615 0.950 . S
H1620 C1617 0.950 . S
C1621 C1612 1.390 1_565 S
C1621 H1614 0.950 . S
C1621 C1618 1.387 . S
C1622 C1623 1.387 . S
C1622 H1626 0.950 . S
C1622 C1631 1.390 . S
C1623 C1622 1.387 . S
C1623 C1625 1.387 . S
H1624 C1631 0.935 1_545 S
C1625 C1623 1.387 . S
C1625 C1627 1.390 . S
C1625 H1629 0.950 . S
H1626 C1622 0.950 . S
C1627 C1625 1.390 . S
C1627 C1628 1.385 1_565 S
C1627 H1630 0.950 1_554 S
C1628 C1627 1.385 1_545 S
C1628 C1631 1.384 1_545 S
H1629 C1625 0.950 . S
H1630 C1627 0.950 1_556 S
C1631 C1622 1.390 . S
C1631 H1624 0.935 1_565 S
C1631 C1628 1.384 1_565 S
C1632 C1633 1.387 . S
C1632 H1636 0.950 . S
C1632 C1641 1.390 . S
C1633 C1632 1.387 . S
C1633 C1635 1.387 . S
H1634 C1641 0.950 . S
C1635 C1633 1.387 . S
C1635 C1637 1.390 . S
C1635 H1639 0.950 . S
H1636 C1632 0.950 . S
C1637 C1635 1.390 . S
C1637 C1638 1.387 . S
C1637 H1640 0.950 . S
C1638 C1637 1.387 . S
C1638 C1641 1.387 . S
H1639 C1635 0.950 . S
H1640 C1637 0.950 . S
C1641 C1632 1.390 . S
C1641 H1634 0.950 . S
C1641 C1638 1.387 . S
C1642 C1643 1.387 . S
C1642 H1646 0.950 1_554 S
C1642 C1651 1.390 . S
C1643 C1642 1.387 . S
C1643 C1645 1.387 . S
H1644 C1651 0.950 1_556 S
C1645 C1643 1.387 . S
C1645 C1647 1.390 . S
C1645 H1649 0.950 . S
H1646 C1642 0.950 1_556 S
C1647 C1645 1.390 . S
C1647 C1648 1.387 . S
C1647 H1650 0.950 . S
C1648 C1647 1.387 . S
C1648 C1651 1.387 . S
H1649 C1645 0.950 . S
H1650 C1647 0.950 . S
C1651 C1642 1.390 . S
C1651 H1644 0.950 1_554 S
C1651 C1648 1.387 . S
C1652 C1653 1.387 . S
C1652 H1656 0.950 . S
C1652 C1661 1.390 . S
C1653 C1652 1.387 . S
C1653 C1655 1.387 . S
H1654 C1661 0.950 . S
C1655 C1653 1.387 . S
C1655 C1657 1.390 . S
C1655 H1659 0.950 . S
H1656 C1652 0.950 . S
C1657 C1655 1.390 . S
C1657 C1658 1.387 . S
C1657 H1660 0.950 . S
C1658 C1657 1.387 . S
C1658 C1661 1.387 . S
H1659 C1655 0.950 . S
H1660 C1657 0.950 . S
C1661 C1652 1.390 . S
C1661 H1654 0.950 . S
C1661 C1658 1.387 . S
C1662 C1663 1.387 . S
C1662 H1666 0.950 . S
C1662 C1671 1.390 1_545 S
C1663 C1662 1.387 . S
C1663 C1665 1.387 . S
H1664 C1671 0.950 . S
C1665 C1663 1.387 . S
C1665 C1667 1.390 . S
C1665 H1669 0.950 . S
H1666 C1662 0.950 . S
C1667 C1665 1.390 . S
C1667 C1668 1.387 1_545 S
C1667 H1670 0.950 . S
C1668 C1667 1.387 1_565 S
C1668 C1671 1.387 . S
H1669 C1665 0.950 . S
H1670 C1667 0.950 . S
C1671 C1662 1.390 1_565 S
C1671 H1664 0.950 . S
C1671 C1668 1.387 . S
C1672 C1673 1.387 . S
C1672 H1676 0.950 . S
C1672 C1681 1.390 . S
C1673 C1672 1.387 . S
C1673 C1675 1.387 . S
H1674 C1681 0.950 . S
C1675 C1673 1.387 . S
C1675 C1677 1.390 . S
C1675 H1679 0.950 . S
H1676 C1672 0.950 . S
C1677 C1675 1.390 . S
C1677 C1678 1.387 . S
C1677 H1680 0.950 . S
C1678 C1677 1.387 . S
C1678 C1681 1.387 . S
H1679 C1675 0.950 . S
H1680 C1677 0.950 . S
C1681 C1672 1.390 . S
C1681 H1674 0.950 . S
C1681 C1678 1.387 . S
C1682 C1683 1.387 . S
C1682 H1686 0.950 . S
C1682 C1691 1.390 . S
C1683 C1682 1.387 . S
C1683 C1685 1.387 . S
H1684 C1691 0.950 . S
C1685 C1683 1.387 . S
C1685 C1687 1.390 . S
C1685 H1689 0.950 . S
H1686 C1682 0.950 . S
C1687 C1685 1.390 . S
C1687 C1688 1.387 . S
C1687 H1690 0.950 . S
C1688 C1687 1.387 . S
C1688 C1691 1.387 . S
H1689 C1685 0.950 . S
H1690 C1687 0.950 . S
C1691 C1682 1.390 . S
C1691 H1684 0.950 . S
C1691 C1688 1.387 . S
C1692 C1693 1.387 . S
C1692 H1696 0.950 . S
C1692 C1701 1.390 . S
C1693 C1692 1.387 . S
C1693 C1695 1.387 . S
H1694 C1701 0.950 . S
C1695 C1693 1.387 . S
C1695 C1697 1.390 . S
C1695 H1699 0.950 . S
H1696 C1692 0.950 . S
C1697 C1695 1.390 . S
C1697 C1698 1.387 . S
C1697 H1700 0.950 . S
C1698 C1697 1.387 . S
C1698 C1701 1.387 . S
H1699 C1695 0.950 . S
H1700 C1697 0.950 . S
C1701 C1692 1.390 . S
C1701 H1694 0.950 . S
C1701 C1698 1.387 . S
C1702 C1703 1.387 . S
C1702 H1706 0.950 . S
C1702 C1711 1.390 . S
C1703 C1702 1.387 . S
C1703 C1705 1.387 . S
H1704 C1711 0.950 . S
C1705 C1703 1.387 . S
C1705 C1707 1.390 . S
C1705 H1709 0.950 . S
H1706 C1702 0.950 . S
C1707 C1705 1.390 . S
C1707 C1708 1.387 . S
C1707 H1710 0.950 . S
C1708 C1707 1.387 . S
C1708 C1711 1.387 . S
H1709 C1705 0.950 . S
H1710 C1707 0.950 . S
C1711 C1702 1.390 . S
C1711 H1704 0.950 . S
C1711 C1708 1.387 . S
C1712 C1713 1.387 . S
C1712 H1716 0.950 . S
C1712 C1721 1.390 . S
C1713 C1712 1.387 . S
C1713 C1715 1.387 . S
H1714 C1721 0.950 . S
C1715 C1713 1.387 . S
C1715 C1717 1.390 . S
C1715 H1719 0.950 . S
H1716 C1712 0.950 . S
C1717 C1715 1.390 . S
C1717 C1718 1.387 . S
C1717 H1720 0.950 . S
C1718 C1717 1.387 . S
C1718 C1721 1.387 . S
H1719 C1715 0.950 . S
H1720 C1717 0.950 . S
C1721 C1712 1.390 . S
C1721 H1714 0.950 . S
C1721 C1718 1.387 . S
C1722 C1723 1.387 . S
C1722 H1726 0.950 . S
C1722 C1731 1.390 . S
C1723 C1722 1.387 . S
C1723 C1725 1.387 . S
H1724 C1731 0.950 . S
C1725 C1723 1.387 . S
C1725 C1727 1.390 . S
C1725 H1729 0.950 . S
H1726 C1722 0.950 . S
C1727 C1725 1.390 . S
C1727 C1728 1.387 . S
C1727 H1730 0.950 . S
C1728 C1727 1.387 . S
C1728 C1731 1.387 . S
H1729 C1725 0.950 . S
H1730 C1727 0.950 . S
C1731 C1722 1.390 . S
C1731 H1724 0.950 . S
C1731 C1728 1.387 . S
C1732 C1733 1.387 . S
C1732 H1736 0.950 . S
C1732 C1741 1.390 . S
C1733 C1732 1.387 . S
C1733 C1735 1.387 . S
H1734 C1741 0.950 . S
C1735 C1733 1.387 . S
C1735 C1737 1.390 . S
C1735 H1739 0.950 . S
H1736 C1732 0.950 . S
C1737 C1735 1.390 . S
C1737 C1738 1.387 . S
C1737 H1740 0.950 . S
C1738 C1737 1.387 . S
C1738 C1741 1.387 . S
H1739 C1735 0.950 . S
H1740 C1737 0.950 . S
C1741 C1732 1.390 . S
C1741 H1734 0.950 . S
C1741 C1738 1.387 . S
C1742 C1743 1.387 . S
C1742 H1746 0.950 . S
C1742 C1751 1.390 . S
C1743 C1742 1.387 . S
C1743 C1745 1.387 . S
H1744 C1751 0.950 . S
C1745 C1743 1.387 . S
C1745 C1747 1.390 . S
C1745 H1749 0.950 . S
H1746 C1742 0.950 . S
C1747 C1745 1.390 . S
C1747 C1748 1.387 . S
C1747 H1750 0.950 . S
C1748 C1747 1.387 . S
C1748 C1751 1.387 . S
H1749 C1745 0.950 . S
H1750 C1747 0.950 . S
C1751 C1742 1.390 . S
C1751 H1744 0.950 . S
C1751 C1748 1.387 . S
C1752 C1753 1.387 . S
C1752 H1756 0.950 . S
C1752 C1761 1.390 . S
C1753 C1752 1.387 . S
C1753 C1755 1.387 . S
H1754 C1761 0.950 . S
C1755 C1753 1.387 . S
C1755 C1757 1.390 . S
C1755 H1759 0.950 . S
H1756 C1752 0.950 . S
C1757 C1755 1.390 . S
C1757 C1758 1.387 . S
C1757 H1760 0.950 . S
C1758 C1757 1.387 . S
C1758 C1761 1.387 . S
H1759 C1755 0.950 . S
H1760 C1757 0.950 . S
C1761 C1752 1.390 . S
C1761 H1754 0.950 . S
C1761 C1758 1.387 . S
C1762 C1763 1.387 . S
C1762 H1766 0.950 . S
C1762 C1771 1.390 . S
C1763 C1762 1.387 . S
C1763 C1765 1.387 . S
H1764 C1771 0.950 . S
C1765 C1763 1.387 . S
C1765 C1767 1.390 . S
C1765 H1769 0.950 . S
H1766 C1762 0.950 . S
C1767 C1765 1.390 . S
C1767 C1768 1.387 . S
C1767 H1770 0.950 . S
C1768 C1767 1.387 . S
C1768 C1771 1.387 . S
H1769 C1765 0.950 . S
H1770 C1767 0.950 . S
C1771 C1762 1.390 . S
C1771 H1764 0.950 . S
C1771 C1768 1.387 . S
C1772 C1773 1.387 . S
C1772 H1776 0.950 . S
C1772 C1781 1.390 . S
C1773 C1772 1.387 . S
C1773 C1775 1.387 . S
H1774 C1781 0.950 . S
C1775 C1773 1.387 . S
C1775 C1777 1.390 . S
C1775 H1779 0.950 . S
H1776 C1772 0.950 . S
C1777 C1775 1.390 . S
C1777 C1778 1.387 . S
C1777 H1780 0.950 . S
C1778 C1777 1.387 . S
C1778 C1781 1.387 . S
H1779 C1775 0.950 . S
H1780 C1777 0.950 . S
C1781 C1772 1.390 . S
C1781 H1774 0.950 . S
C1781 C1778 1.387 . S
C1782 C1783 1.387 . S
C1782 H1786 0.950 . S
C1782 C1791 1.390 . S
C1783 C1782 1.387 . S
C1783 C1785 1.387 . S
H1784 C1791 0.950 . S
C1785 C1783 1.387 . S
C1785 C1787 1.390 . S
C1785 H1789 0.950 . S
H1786 C1782 0.950 . S
C1787 C1785 1.390 . S
C1787 C1788 1.387 . S
C1787 H1790 0.950 . S
C1788 C1787 1.387 . S
C1788 C1791 1.387 . S
H1789 C1785 0.950 . S
H1790 C1787 0.950 . S
C1791 C1782 1.390 . S
C1791 H1784 0.950 . S
C1791 C1788 1.387 . S
C1792 C1793 1.387 . S
C1792 H1796 0.950 . S
C1792 C1801 1.390 . S
C1793 C1792 1.387 . S
C1793 C1795 1.387 . S
H1794 C1801 0.950 . S
C1795 C1793 1.387 . S
C1795 C1797 1.390 . S
C1795 H1799 0.950 . S
H1796 C1792 0.950 . S
C1797 C1795 1.390 . S
C1797 C1798 1.387 . S
C1797 H1800 0.950 . S
C1798 C1797 1.387 . S
C1798 C1801 1.387 . S
H1799 C1795 0.950 . S
H1800 C1797 0.950 . S
C1801 C1792 1.390 . S
C1801 H1794 0.950 . S
C1801 C1798 1.387 . S
C1802 C1803 1.387 . S
C1802 H1806 0.950 . S
C1802 C1811 1.390 . S
C1803 C1802 1.387 . S
C1803 C1805 1.387 . S
H1804 C1811 0.950 . S
C1805 C1803 1.387 . S
C1805 C1807 1.390 . S
C1805 H1809 0.950 . S
H1806 C1802 0.950 . S
C1807 C1805 1.390 . S
C1807 C1808 1.387 . S
C1807 H1810 0.950 . S
C1808 C1807 1.387 . S
C1808 C1811 1.387 . S
H1809 C1805 0.950 . S
H1810 C1807 0.950 . S
C1811 C1802 1.390 . S
C1811 H1804 0.950 . S
C1811 C1808 1.387 . S
C1812 C1813 1.384 1_655 S
C1812 H1816 0.953 . S
C1812 C1821 1.390 . S
C1813 C1812 1.384 1_455 S
C1813 C1815 1.387 . S
H1814 C1821 0.950 . S
C1815 C1813 1.387 . S
C1815 C1817 1.390 . S
C1815 H1819 0.950 . S
H1816 C1812 0.953 . S
C1817 C1815 1.390 . S
C1817 C1818 1.387 . S
C1817 H1820 0.950 . S
C1818 C1817 1.387 . S
C1818 C1821 1.387 1_455 S
H1819 C1815 0.950 . S
H1820 C1817 0.950 . S
C1821 C1812 1.390 . S
C1821 H1814 0.950 . S
C1821 C1818 1.387 1_655 S
C1822 C1823 1.387 . S
C1822 H1826 0.950 . S
C1822 C1831 1.390 . S
C1823 C1822 1.387 . S
C1823 C1825 1.387 . S
H1824 C1831 0.950 . S
C1825 C1823 1.387 . S
C1825 C1827 1.390 . S
C1825 H1829 0.950 . S
H1826 C1822 0.950 . S
C1827 C1825 1.390 . S
C1827 C1828 1.387 . S
C1827 H1830 0.950 . S
C1828 C1827 1.387 . S
C1828 C1831 1.387 . S
H1829 C1825 0.950 . S
H1830 C1827 0.950 . S
C1831 C1822 1.390 . S
C1831 H1824 0.950 . S
C1831 C1828 1.387 . S
C1832 C1833 1.387 . S
C1832 H1836 0.950 . S
C1832 C1841 1.390 . S
C1833 C1832 1.387 . S
C1833 C1835 1.387 . S
H1834 C1841 0.950 . S
C1835 C1833 1.387 . S
C1835 C1837 1.390 . S
C1835 H1839 0.950 . S
H1836 C1832 0.950 . S
C1837 C1835 1.390 . S
C1837 C1838 1.387 . S
C1837 H1840 0.950 . S
C1838 C1837 1.387 . S
C1838 C1841 1.387 . S
H1839 C1835 0.950 . S
H1840 C1837 0.950 . S
C1841 C1832 1.390 . S
C1841 H1834 0.950 . S
C1841 C1838 1.387 . S
C1842 C1843 1.387 . S
C1842 H1846 0.950 . S
C1842 C1851 1.390 . S
C1843 C1842 1.387 . S
C1843 C1845 1.387 . S
H1844 C1851 0.950 1_545 S
C1845 C1843 1.387 . S
C1845 C1847 1.390 . S
C1845 H1849 0.950 . S
H1846 C1842 0.950 . S
C1847 C1845 1.390 . S
C1847 C1848 1.387 . S
C1847 H1850 0.950 . S
C1848 C1847 1.387 . S
C1848 C1851 1.387 . S
H1849 C1845 0.950 . S
H1850 C1847 0.950 . S
C1851 C1842 1.390 . S
C1851 H1844 0.950 1_565 S
C1851 C1848 1.387 . S
C1852 C1853 1.387 . S
C1852 H1856 0.950 . S
C1852 C1861 1.390 . S
C1853 C1852 1.387 . S
C1853 C1855 1.387 . S
H1854 C1861 0.950 . S
C1855 C1853 1.387 . S
C1855 C1857 1.390 . S
C1855 H1859 0.950 . S
H1856 C1852 0.950 . S
C1857 C1855 1.390 . S
C1857 C1858 1.387 . S
C1857 H1860 0.950 . S
C1858 C1857 1.387 . S
C1858 C1861 1.387 . S
H1859 C1855 0.950 . S
H1860 C1857 0.950 . S
C1861 C1852 1.390 . S
C1861 H1854 0.950 . S
C1861 C1858 1.387 . S
C1862 C1863 1.387 1_554 S
C1862 H1866 0.950 . S
C1862 C1871 1.390 . S
C1863 C1862 1.387 1_556 S
C1863 C1865 1.387 . S
H1864 C1871 0.950 . S
C1865 C1863 1.387 . S
C1865 C1867 1.390 . S
C1865 H1869 0.950 . S
H1866 C1862 0.950 . S
C1867 C1865 1.390 . S
C1867 C1868 1.387 . S
C1867 H1870 0.950 . S
C1868 C1867 1.387 . S
C1868 C1871 1.387 1_556 S
H1869 C1865 0.950 . S
H1870 C1867 0.950 . S
C1871 C1862 1.390 . S
C1871 H1864 0.950 . S
C1871 C1868 1.387 1_554 S
C1872 C1873 1.387 . S
C1872 H1876 0.950 . S
C1872 C1881 1.390 . S
C1873 C1872 1.387 . S
C1873 C1875 1.387 . S
H1874 C1881 0.950 . S
C1875 C1873 1.387 . S
C1875 C1877 1.390 . S
C1875 H1879 0.950 . S
H1876 C1872 0.950 . S
C1877 C1875 1.390 . S
C1877 C1878 1.387 . S
C1877 H1880 0.950 . S
C1878 C1877 1.387 . S
C1878 C1881 1.387 . S
H1879 C1875 0.950 . S
H1880 C1877 0.950 . S
C1881 C1872 1.390 . S
C1881 H1874 0.950 . S
C1881 C1878 1.387 . S
C1882 C1883 1.387 . S
C1882 H1886 0.950 1_554 S
C1882 C1891 1.390 . S
C1883 C1882 1.387 . S
C1883 C1885 1.387 . S
H1884 C1891 0.941 1_556 S
C1885 C1883 1.387 . S
C1885 C1887 1.390 . S
C1885 H1889 0.950 . S
H1886 C1882 0.950 1_556 S
C1887 C1885 1.390 . S
C1887 C1888 1.387 . S
C1887 H1890 0.950 . S
C1888 C1887 1.387 . S
C1888 C1891 1.396 . S
H1889 C1885 0.950 . S
H1890 C1887 0.950 . S
C1891 C1882 1.390 . S
C1891 H1884 0.941 1_554 S
C1891 C1888 1.396 . S
C1892 C1893 1.387 . S
C1892 H1896 0.950 . S
C1892 C1901 1.390 . S
C1893 C1892 1.387 . S
C1893 C1895 1.387 . S
H1894 C1901 0.950 . S
C1895 C1893 1.387 . S
C1895 C1897 1.390 . S
C1895 H1899 0.950 . S
H1896 C1892 0.950 . S
C1897 C1895 1.390 . S
C1897 C1898 1.387 . S
C1897 H1900 0.950 . S
C1898 C1897 1.387 . S
C1898 C1901 1.387 . S
H1899 C1895 0.950 . S
H1900 C1897 0.950 . S
C1901 C1892 1.390 . S
C1901 H1894 0.950 . S
C1901 C1898 1.387 . S
C1902 C1903 1.387 . S
C1902 H1906 0.950 . S
C1902 C1911 1.390 . S
C1903 C1902 1.387 . S
C1903 C1905 1.387 . S
H1904 C1911 0.950 . S
C1905 C1903 1.387 . S
C1905 C1907 1.390 . S
C1905 H1909 0.950 . S
H1906 C1902 0.950 . S
C1907 C1905 1.390 . S
C1907 C1908 1.387 . S
C1907 H1910 0.950 . S
C1908 C1907 1.387 . S
C1908 C1911 1.387 . S
H1909 C1905 0.950 . S
H1910 C1907 0.950 . S
C1911 C1902 1.390 . S
C1911 H1904 0.950 . S
C1911 C1908 1.387 . S
C953 C101 2.038 . S
C958 C334 1.986 . S
C963 C57 1.416 . S
C968 C354 1.447 . S
C973 C70 0.708 . S
C978 C401 0.709 . S
C988 C458 1.295 . S
C983 C82 1.340 . S
C993 C23 2.526 . S
C998 C475 2.508 . S
C1008 C534 1.852 . S
C1003 C29 1.884 . S
C1018 C567 2.652 . S
C1013 C49 2.635 . S
C1023 C10 2.640 . S
C1028 C614 2.574 . S
C1038 C327 2.093 . S
C1033 C218 1.970 . S
C1043 C226 1.424 . S
C1048 C355 1.415 . S
C1058 C394 0.596 . S
C1053 C251 0.555 1_565 S
C1068 C454 2.213 . S
C1063 C159 2.200 . S
C1073 C211 0.704 . S
C1078 C481 0.708 . S
C1088 C527 2.182 . S
C1083 C225 2.186 . S
C1098 C578 0.880 . S
C1093 C252 0.934 . S
C1108 C607 2.376 . S
C1103 C166 2.343 . S
C1118 C338 2.353 1_565 S
C1113 C147 2.453 . S
C1123 C263 2.209 . S
C1128 C634 2.183 . S
C1138 C698 1.604 . S
C1133 C309 1.608 . S
C1148 C734 1.655 . S
C1143 C291 1.630 . S
C1153 C108 2.061 . S
C1158 C618 2.100 . S
C1163 C121 2.545 . S
C1168 C395 2.551 . S
C1173 C302 1.487 . S
C1178 C767 1.584 . S
C1188 C801 0.588 . S
C1183 C276 0.643 . S
C1198 C315 2.030 1_565 S
C1193 C55 2.005 . S
C1208 C807 1.700 . S
C1203 C96 1.714 . S
C1213 C88 1.077 . S
C1218 C418 1.056 . S
C1223 C75 1.386 . S
C1228 C761 1.362 . S
C1238 C494 2.822 . S
C1233 C4 2.851 . S
C1243 C44 2.056 . S
C1248 C675 2.052 . S
C1258 C554 2.895 1_566 S
C1253 C31 2.901 . S
C1268 C835 2.582 . S
C1263 C18 2.607 . S
C1278 C314 1.849 1_556 S
C1273 C133 1.791 . S
C1288 C814 1.966 . S
C1283 C296 1.989 . S
C1293 C107 0.747 . S
C1298 C407 0.747 . S
C1303 C264 2.402 . S
C1308 C755 2.420 . S
C1313 C140 0.851 . S
C1318 C498 0.837 . S
C1328 C674 2.469 . S
C1323 C289 2.480 . S
C1333 C114 1.030 . S
C1338 C561 0.997 . S
C1343 C265 2.523 . S
C1348 C834 2.526 . S
C1353 C179 1.941 . S
C1358 C321 1.895 . S
C1363 C161 2.282 . S
C1368 C647 2.246 . S
C1373 C244 1.677 . S
C1378 C521 1.687 . S
C1383 C224 1.706 . S
C1388 C715 1.725 . S
C1398 C841 1.741 . S
C1393 C257 1.698 . S
C1403 C199 2.774 . S
C1408 C414 2.771 1_565 S
C1418 C434 1.789 . S
C1413 C237 1.736 . S
C1428 C378 0.881 . S
C1423 C185 0.905 . S
C1433 C69 2.140 . S
C1438 C894 2.100 . S
C1448 C794 1.450 . S
C1443 C83 1.420 . S
C1453 C94 0.651 . S
C1458 C921 0.654 . S
C1463 C56 1.373 . S
C1468 C778 1.326 1_455 S
C1473 C42 2.524 . S
C1478 C635 2.505 . S
C1488 C694 1.874 . S
C1483 C3 1.906 . S
C1498 C727 2.669 . S
C1493 C16 2.649 . S
C1508 C854 2.527 . S
C1503 C36 2.597 . S
C1518 C887 2.048 . S
C1513 C238 1.928 . S
C1523 C174 1.392 . S
C1528 C795 1.383 . S
C1538 C914 0.612 . S
C1533 C186 0.560 . S
C1548 C774 2.207 . S
C1543 C198 2.196 . S
C1558 C641 0.698 . S
C1553 C239 0.694 . S
C1563 C173 2.211 . S
C1568 C687 2.206 . S
C1578 C738 0.868 . S
C1573 C187 0.920 . S
C1583 C205 2.330 . S
C1588 C847 2.359 . S
C1598 C898 2.368 . S
C1593 C290 2.468 . S
C1603 C122 2.239 . S
C1608 C474 2.213 . S
C1618 C538 1.570 . S
C1613 C134 1.575 . S
C1628 C574 1.661 . S
C1623 C148 1.631 . S
C1638 C858 1.911 . S
C1633 C283 1.888 . S
C1643 C270 2.566 . S
C1648 C915 2.569 . S
C1658 C447 1.612 . S
C1653 C135 1.517 . S
C1668 C361 0.672 . S
C1663 C109 0.696 . S
C1673 C81 2.034 . S
C1678 C875 2.063 . S
C1688 C367 1.562 . S
C1683 C68 1.571 . S
C1693 C62 1.087 . S
C1698 C938 1.067 . S
C1703 C95 1.282 . S
C1708 C441 1.255 . S
C1713 C30 2.845 . S
C1718 C654 2.817 . S
C1728 C515 2.062 . S
C1723 C17 2.071 . S
C1733 C5 2.923 . S
C1738 C714 2.916 . S
C1743 C43 2.561 . S
C1748 C595 2.530 . S
C1758 C874 1.870 . S
C1753 C304 1.806 . S
C1763 C153 1.981 . S
C1768 C374 1.959 . S
C1778 C927 0.696 . S
C1773 C278 0.690 . S
C1783 C127 2.415 . S
C1788 C435 2.430 . S
C1793 C303 0.835 . S
C1798 C658 0.824 . S
C1808 C514 2.494 . S
C1803 C146 2.505 1_556 S
C1813 C277 0.982 . S
C1818 C721 0.950 . S
C1828 C594 2.517 . S
C1823 C120 2.514 . S
C1838 C881 1.939 . S
C1833 C231 1.988 . S
C1848 C487 2.280 1_565 S
C1843 C200 2.315 . S
C1853 C212 1.652 . S
C1858 C681 1.657 . S
C1868 C555 1.692 1_556 S
C1863 C172 1.675 . S
C1873 C192 1.705 . S
C1878 C601 1.744 . S
C1883 C160 2.800 . S
C1888 C934 2.797 . S
C1898 C754 1.809 . S
C1893 C213 1.759 . S
C1908 C818 0.881 . S
C1903 C250 0.901 . S
