# Generated by pormake.
# Topology ibd, (4,6)-cn, num edge types: 1
# Building blocks:
#     Node 0, Type 0, BuildingBlock: KUFVIS_clean_sbu_0, # of connection points: 4
#     Node 1, Type 0, BuildingBlock: KUFVIS_clean_sbu_0, # of connection points: 4
#     Node 2, Type 0, BuildingBlock: KUFVIS_clean_sbu_0, # of connection points: 4
#     Node 3, Type 0, BuildingBlock: KUFVIS_clean_sbu_0, # of connection points: 4
#     Node 4, Type 0, BuildingBlock: KUFVIS_clean_sbu_0, # of connection points: 4
#     Node 5, Type 0, BuildingBlock: KUFVIS_clean_sbu_0, # of connection points: 4
#     Node 6, Type 0, BuildingBlock: KUFVIS_clean_sbu_0, # of connection points: 4
#     Node 7, Type 0, BuildingBlock: KUFVIS_clean_sbu_0, # of connection points: 4
#     Node 8, Type 0, BuildingBlock: KUFVIS_clean_sbu_0, # of connection points: 4
#     Node 9, Type 0, BuildingBlock: KUFVIS_clean_sbu_0, # of connection points: 4
#     Node 10, Type 0, BuildingBlock: KUFVIS_clean_sbu_0, # of connection points: 4
#     Node 11, Type 0, BuildingBlock: KUFVIS_clean_sbu_0, # of connection points: 4
#     Node 12, Type 0, BuildingBlock: KUFVIS_clean_sbu_0, # of connection points: 4
#     Node 13, Type 0, BuildingBlock: KUFVIS_clean_sbu_0, # of connection points: 4
#     Node 14, Type 0, BuildingBlock: KUFVIS_clean_sbu_0, # of connection points: 4
#     Node 15, Type 0, BuildingBlock: KUFVIS_clean_sbu_0, # of connection points: 4
#     Node 16, Type 0, BuildingBlock: KUFVIS_clean_sbu_0, # of connection points: 4
#     Node 17, Type 0, BuildingBlock: KUFVIS_clean_sbu_0, # of connection points: 4
#     Node 18, Type 0, BuildingBlock: KUFVIS_clean_sbu_0, # of connection points: 4
#     Node 19, Type 0, BuildingBlock: KUFVIS_clean_sbu_0, # of connection points: 4
#     Node 20, Type 0, BuildingBlock: KUFVIS_clean_sbu_0, # of connection points: 4
#     Node 21, Type 0, BuildingBlock: KUFVIS_clean_sbu_0, # of connection points: 4
#     Node 22, Type 0, BuildingBlock: KUFVIS_clean_sbu_0, # of connection points: 4
#     Node 23, Type 0, BuildingBlock: KUFVIS_clean_sbu_0, # of connection points: 4
#     Node 24, Type 1, BuildingBlock: IZENUY_clean_sbu_0, # of connection points: 6
#     Node 25, Type 1, BuildingBlock: IZENUY_clean_sbu_0, # of connection points: 6
#     Node 26, Type 1, BuildingBlock: IZENUY_clean_sbu_0, # of connection points: 6
#     Node 27, Type 1, BuildingBlock: IZENUY_clean_sbu_0, # of connection points: 6
#     Node 28, Type 1, BuildingBlock: IZENUY_clean_sbu_0, # of connection points: 6
#     Node 29, Type 1, BuildingBlock: IZENUY_clean_sbu_0, # of connection points: 6
#     Node 30, Type 1, BuildingBlock: IZENUY_clean_sbu_0, # of connection points: 6
#     Node 31, Type 1, BuildingBlock: IZENUY_clean_sbu_0, # of connection points: 6
#     Node 32, Type 1, BuildingBlock: IZENUY_clean_sbu_0, # of connection points: 6
#     Node 33, Type 1, BuildingBlock: IZENUY_clean_sbu_0, # of connection points: 6
#     Node 34, Type 1, BuildingBlock: IZENUY_clean_sbu_0, # of connection points: 6
#     Node 35, Type 1, BuildingBlock: IZENUY_clean_sbu_0, # of connection points: 6
#     Node 36, Type 1, BuildingBlock: IZENUY_clean_sbu_0, # of connection points: 6
#     Node 37, Type 1, BuildingBlock: IZENUY_clean_sbu_0, # of connection points: 6
#     Node 38, Type 1, BuildingBlock: IZENUY_clean_sbu_0, # of connection points: 6
#     Node 39, Type 1, BuildingBlock: IZENUY_clean_sbu_0, # of connection points: 6
#     Edge 40, Type (0, 1), BuildingBlock: AJUNOK_clean_linker_0, # of connection points: 2
#     Edge 41, Type (0, 1), BuildingBlock: AJUNOK_clean_linker_0, # of connection points: 2
#     Edge 42, Type (0, 1), BuildingBlock: AJUNOK_clean_linker_0, # of connection points: 2
#     Edge 43, Type (0, 1), BuildingBlock: AJUNOK_clean_linker_0, # of connection points: 2
#     Edge 44, Type (0, 1), BuildingBlock: AJUNOK_clean_linker_0, # of connection points: 2
#     Edge 45, Type (0, 1), BuildingBlock: AJUNOK_clean_linker_0, # of connection points: 2
#     Edge 46, Type (0, 1), BuildingBlock: AJUNOK_clean_linker_0, # of connection points: 2
#     Edge 47, Type (0, 1), BuildingBlock: AJUNOK_clean_linker_0, # of connection points: 2
#     Edge 48, Type (0, 1), BuildingBlock: AJUNOK_clean_linker_0, # of connection points: 2
#     Edge 49, Type (0, 1), BuildingBlock: AJUNOK_clean_linker_0, # of connection points: 2
#     Edge 50, Type (0, 1), BuildingBlock: AJUNOK_clean_linker_0, # of connection points: 2
#     Edge 51, Type (0, 1), BuildingBlock: AJUNOK_clean_linker_0, # of connection points: 2
#     Edge 52, Type (0, 1), BuildingBlock: AJUNOK_clean_linker_0, # of connection points: 2
#     Edge 53, Type (0, 1), BuildingBlock: AJUNOK_clean_linker_0, # of connection points: 2
#     Edge 54, Type (0, 1), BuildingBlock: AJUNOK_clean_linker_0, # of connection points: 2
#     Edge 55, Type (0, 1), BuildingBlock: AJUNOK_clean_linker_0, # of connection points: 2
#     Edge 56, Type (0, 1), BuildingBlock: AJUNOK_clean_linker_0, # of connection points: 2
#     Edge 57, Type (0, 1), BuildingBlock: AJUNOK_clean_linker_0, # of connection points: 2
#     Edge 58, Type (0, 1), BuildingBlock: AJUNOK_clean_linker_0, # of connection points: 2
#     Edge 59, Type (0, 1), BuildingBlock: AJUNOK_clean_linker_0, # of connection points: 2
#     Edge 60, Type (0, 1), BuildingBlock: AJUNOK_clean_linker_0, # of connection points: 2
#     Edge 61, Type (0, 1), BuildingBlock: AJUNOK_clean_linker_0, # of connection points: 2
#     Edge 62, Type (0, 1), BuildingBlock: AJUNOK_clean_linker_0, # of connection points: 2
#     Edge 63, Type (0, 1), BuildingBlock: AJUNOK_clean_linker_0, # of connection points: 2
#     Edge 64, Type (0, 1), BuildingBlock: AJUNOK_clean_linker_0, # of connection points: 2
#     Edge 65, Type (0, 1), BuildingBlock: AJUNOK_clean_linker_0, # of connection points: 2
#     Edge 66, Type (0, 1), BuildingBlock: AJUNOK_clean_linker_0, # of connection points: 2
#     Edge 67, Type (0, 1), BuildingBlock: AJUNOK_clean_linker_0, # of connection points: 2
#     Edge 68, Type (0, 1), BuildingBlock: AJUNOK_clean_linker_0, # of connection points: 2
#     Edge 69, Type (0, 1), BuildingBlock: AJUNOK_clean_linker_0, # of connection points: 2
#     Edge 70, Type (0, 1), BuildingBlock: AJUNOK_clean_linker_0, # of connection points: 2
#     Edge 71, Type (0, 1), BuildingBlock: AJUNOK_clean_linker_0, # of connection points: 2
#     Edge 72, Type (0, 1), BuildingBlock: AJUNOK_clean_linker_0, # of connection points: 2
#     Edge 73, Type (0, 1), BuildingBlock: AJUNOK_clean_linker_0, # of connection points: 2
#     Edge 74, Type (0, 1), BuildingBlock: AJUNOK_clean_linker_0, # of connection points: 2
#     Edge 75, Type (0, 1), BuildingBlock: AJUNOK_clean_linker_0, # of connection points: 2
#     Edge 76, Type (0, 1), BuildingBlock: AJUNOK_clean_linker_0, # of connection points: 2
#     Edge 77, Type (0, 1), BuildingBlock: AJUNOK_clean_linker_0, # of connection points: 2
#     Edge 78, Type (0, 1), BuildingBlock: AJUNOK_clean_linker_0, # of connection points: 2
#     Edge 79, Type (0, 1), BuildingBlock: AJUNOK_clean_linker_0, # of connection points: 2
#     Edge 80, Type (0, 1), BuildingBlock: AJUNOK_clean_linker_0, # of connection points: 2
#     Edge 81, Type (0, 1), BuildingBlock: AJUNOK_clean_linker_0, # of connection points: 2
#     Edge 82, Type (0, 1), BuildingBlock: AJUNOK_clean_linker_0, # of connection points: 2
#     Edge 83, Type (0, 1), BuildingBlock: AJUNOK_clean_linker_0, # of connection points: 2
#     Edge 84, Type (0, 1), BuildingBlock: AJUNOK_clean_linker_0, # of connection points: 2
#     Edge 85, Type (0, 1), BuildingBlock: AJUNOK_clean_linker_0, # of connection points: 2
#     Edge 86, Type (0, 1), BuildingBlock: AJUNOK_clean_linker_0, # of connection points: 2
#     Edge 87, Type (0, 1), BuildingBlock: AJUNOK_clean_linker_0, # of connection points: 2
#     Edge 88, Type (0, 1), BuildingBlock: AJUNOK_clean_linker_0, # of connection points: 2
#     Edge 89, Type (0, 1), BuildingBlock: AJUNOK_clean_linker_0, # of connection points: 2
#     Edge 90, Type (0, 1), BuildingBlock: AJUNOK_clean_linker_0, # of connection points: 2
#     Edge 91, Type (0, 1), BuildingBlock: AJUNOK_clean_linker_0, # of connection points: 2
#     Edge 92, Type (0, 1), BuildingBlock: AJUNOK_clean_linker_0, # of connection points: 2
#     Edge 93, Type (0, 1), BuildingBlock: AJUNOK_clean_linker_0, # of connection points: 2
#     Edge 94, Type (0, 1), BuildingBlock: AJUNOK_clean_linker_0, # of connection points: 2
#     Edge 95, Type (0, 1), BuildingBlock: AJUNOK_clean_linker_0, # of connection points: 2
#     Edge 96, Type (0, 1), BuildingBlock: AJUNOK_clean_linker_0, # of connection points: 2
#     Edge 97, Type (0, 1), BuildingBlock: AJUNOK_clean_linker_0, # of connection points: 2
#     Edge 98, Type (0, 1), BuildingBlock: AJUNOK_clean_linker_0, # of connection points: 2
#     Edge 99, Type (0, 1), BuildingBlock: AJUNOK_clean_linker_0, # of connection points: 2
#     Edge 100, Type (0, 1), BuildingBlock: AJUNOK_clean_linker_0, # of connection points: 2
#     Edge 101, Type (0, 1), BuildingBlock: AJUNOK_clean_linker_0, # of connection points: 2
#     Edge 102, Type (0, 1), BuildingBlock: AJUNOK_clean_linker_0, # of connection points: 2
#     Edge 103, Type (0, 1), BuildingBlock: AJUNOK_clean_linker_0, # of connection points: 2
#     Edge 104, Type (0, 1), BuildingBlock: AJUNOK_clean_linker_0, # of connection points: 2
#     Edge 105, Type (0, 1), BuildingBlock: AJUNOK_clean_linker_0, # of connection points: 2
#     Edge 106, Type (0, 1), BuildingBlock: AJUNOK_clean_linker_0, # of connection points: 2
#     Edge 107, Type (0, 1), BuildingBlock: AJUNOK_clean_linker_0, # of connection points: 2
#     Edge 108, Type (0, 1), BuildingBlock: AJUNOK_clean_linker_0, # of connection points: 2
#     Edge 109, Type (0, 1), BuildingBlock: AJUNOK_clean_linker_0, # of connection points: 2
#     Edge 110, Type (0, 1), BuildingBlock: AJUNOK_clean_linker_0, # of connection points: 2
#     Edge 111, Type (0, 1), BuildingBlock: AJUNOK_clean_linker_0, # of connection points: 2
#     Edge 112, Type (0, 1), BuildingBlock: AJUNOK_clean_linker_0, # of connection points: 2
#     Edge 113, Type (0, 1), BuildingBlock: AJUNOK_clean_linker_0, # of connection points: 2
#     Edge 114, Type (0, 1), BuildingBlock: AJUNOK_clean_linker_0, # of connection points: 2
#     Edge 115, Type (0, 1), BuildingBlock: AJUNOK_clean_linker_0, # of connection points: 2
#     Edge 116, Type (0, 1), BuildingBlock: AJUNOK_clean_linker_0, # of connection points: 2
#     Edge 117, Type (0, 1), BuildingBlock: AJUNOK_clean_linker_0, # of connection points: 2
#     Edge 118, Type (0, 1), BuildingBlock: AJUNOK_clean_linker_0, # of connection points: 2
#     Edge 119, Type (0, 1), BuildingBlock: AJUNOK_clean_linker_0, # of connection points: 2
#     Edge 120, Type (0, 1), BuildingBlock: AJUNOK_clean_linker_0, # of connection points: 2
#     Edge 121, Type (0, 1), BuildingBlock: AJUNOK_clean_linker_0, # of connection points: 2
#     Edge 122, Type (0, 1), BuildingBlock: AJUNOK_clean_linker_0, # of connection points: 2
#     Edge 123, Type (0, 1), BuildingBlock: AJUNOK_clean_linker_0, # of connection points: 2
#     Edge 124, Type (0, 1), BuildingBlock: AJUNOK_clean_linker_0, # of connection points: 2
#     Edge 125, Type (0, 1), BuildingBlock: AJUNOK_clean_linker_0, # of connection points: 2
#     Edge 126, Type (0, 1), BuildingBlock: AJUNOK_clean_linker_0, # of connection points: 2
#     Edge 127, Type (0, 1), BuildingBlock: AJUNOK_clean_linker_0, # of connection points: 2
#     Edge 128, Type (0, 1), BuildingBlock: AJUNOK_clean_linker_0, # of connection points: 2
#     Edge 129, Type (0, 1), BuildingBlock: AJUNOK_clean_linker_0, # of connection points: 2
#     Edge 130, Type (0, 1), BuildingBlock: AJUNOK_clean_linker_0, # of connection points: 2
#     Edge 131, Type (0, 1), BuildingBlock: AJUNOK_clean_linker_0, # of connection points: 2
#     Edge 132, Type (0, 1), BuildingBlock: AJUNOK_clean_linker_0, # of connection points: 2
#     Edge 133, Type (0, 1), BuildingBlock: AJUNOK_clean_linker_0, # of connection points: 2
#     Edge 134, Type (0, 1), BuildingBlock: AJUNOK_clean_linker_0, # of connection points: 2
#     Edge 135, Type (0, 1), BuildingBlock: AJUNOK_clean_linker_0, # of connection points: 2
# Relax obj value: 0.306
# Max RMSD: 0.286
# Mean RMSD: 0.260
data_MOF--net-ibd--node1-KUFVIS_clean_sbu_0--node2-IZENUY_clean_sbu_0--edge1-AJUNOK_clean_linker_0
_symmetry_space_group_name_H-M    P1
_symmetry_Int_Tables_number       1
_symmetry_cell_setting            triclinic
loop_
_symmetry_equiv_pos_as_xyz
'x, y, z'
_cell_length_a     36.243306
_cell_length_b     36.257728
_cell_length_c     36.242054
_cell_angle_alpha  91.284988
_cell_angle_beta   91.195008
_cell_angle_gamma 91.25984
loop_
_atom_site_label
_atom_site_type_symbol
_atom_site_fract_x
_atom_site_fract_y
_atom_site_fract_z
_atom_type_partial_charge
Mn0 Mn 0.00383 0.24841 0.38796 0.0
Mn1 Mn 0.06068 0.31853 0.36533 0.0
C2 C 0.05133 0.26877 0.42725 0.0
C3 C 0.95515 0.22537 0.42169 0.0
C4 C 0.06396 0.24143 0.3308 0.0
O5 O 0.97378 0.27365 0.34739 0.0
O6 O 0.01316 0.32162 0.3377 0.0
C7 C 0.01794 0.37824 0.39998 0.0
N8 N 0.05044 0.36057 0.396 0.0
C9 C 0.08003 0.39943 0.44313 0.0
C10 C 0.04723 0.41886 0.44672 0.0
C11 C 0.01595 0.40792 0.42537 0.0
C12 C 0.08036 0.37006 0.41736 0.0
H13 H 0.99352 0.36919 0.38455 0.0
C14 C 0.98242 0.30403 0.33176 0.0
O15 O 0.96792 0.20639 0.39408 0.0
O16 O 0.96685 0.25927 0.42559 0.0
N17 N 0.10748 0.31852 0.39097 0.0
C18 C 0.13621 0.29541 0.38595 0.0
C19 C 0.16932 0.30177 0.40616 0.0
C20 C 0.17253 0.33171 0.43137 0.0
C21 C 0.14269 0.3552 0.43595 0.0
C22 C 0.11068 0.34799 0.41443 0.0
H23 H 0.13392 0.27235 0.36662 0.0
O24 O 0.03863 0.23524 0.42921 0.0
O25 O 0.03714 0.28813 0.40142 0.0
O26 O 0.03829 0.22709 0.34963 0.0
O27 O 0.0737 0.27555 0.33373 0.0
C28 C 0.14333 0.38523 0.46132 0.0
C29 C 0.11195 0.40722 0.46504 0.0
H30 H 0.04549 0.44161 0.46645 0.0
H31 H 0.99021 0.42204 0.42881 0.0
H32 H 0.19225 0.28349 0.40251 0.0
H33 H 0.19796 0.33633 0.44716 0.0
H34 H 0.16763 0.39134 0.47848 0.0
H35 H 0.1125 0.42976 0.4852 0.0
Mn36 Mn 0.99731 0.76329 0.61918 0.0
Mn37 Mn 0.94518 0.69249 0.64924 0.0
C38 C 0.98526 0.71086 0.58268 0.0
C39 C 0.00993 0.81472 0.58381 0.0
C40 C 0.02296 0.70817 0.67658 0.0
O41 O 0.96751 0.78893 0.6591 0.0
O42 O 0.93797 0.73793 0.67941 0.0
C43 C 0.87126 0.72157 0.63204 0.0
N44 N 0.89671 0.69482 0.62771 0.0
C45 C 0.85522 0.65892 0.5878 0.0
C46 C 0.8285 0.68593 0.59212 0.0
C47 C 0.83652 0.7173 0.61453 0.0
C48 C 0.88907 0.66422 0.60671 0.0
H49 H 0.87733 0.74607 0.64865 0.0
C50 C 0.94527 0.77272 0.68095 0.0
O51 O 0.03093 0.80635 0.61166 0.0
O52 O 0.97917 0.79589 0.57953 0.0
N53 N 0.9493 0.6476 0.62083 0.0
C54 C 0.97899 0.62554 0.61723 0.0
C55 C 0.97609 0.59371 0.59447 0.0
C56 C 0.94273 0.58497 0.57552 0.0
C57 C 0.91257 0.60816 0.57954 0.0
C58 C 0.91699 0.6393 0.6029 0.0
H59 H 0.00482 0.63259 0.6311 0.0
O60 O 0.0158 0.72966 0.57905 0.0
O61 O 0.96452 0.72162 0.60926 0.0
O62 O 0.02715 0.73801 0.65935 0.0
O63 O 0.9944 0.6871 0.67289 0.0
C64 C 0.8786 0.60216 0.56052 0.0
C65 C 0.84989 0.62739 0.56477 0.0
H66 H 0.80196 0.68299 0.57802 0.0
H67 H 0.81613 0.73827 0.61832 0.0
H68 H 0.99964 0.57617 0.59123 0.0
H69 H 0.94072 0.56064 0.55763 0.0
H70 H 0.87442 0.57855 0.54209 0.0
H71 H 0.82403 0.62259 0.54971 0.0
Mn72 Mn 0.51992 0.74203 0.89238 0.0
Mn73 Mn 0.57076 0.81562 0.86788 0.0
C74 C 0.56595 0.76667 0.93093 0.0
C75 C 0.4741 0.71533 0.92684 0.0
C76 C 0.57762 0.73918 0.83275 0.0
O77 O 0.48704 0.76505 0.85285 0.0
O78 O 0.5221 0.81606 0.84153 0.0
C79 C 0.52733 0.87636 0.89975 0.0
N80 N 0.55943 0.85759 0.89818 0.0
C81 C 0.58783 0.89728 0.94529 0.0
C82 C 0.55514 0.91714 0.94722 0.0
C83 C 0.52479 0.90664 0.92433 0.0
C84 C 0.58892 0.86764 0.91991 0.0
H85 H 0.50374 0.86807 0.88265 0.0
C86 C 0.49263 0.7959 0.83685 0.0
O87 O 0.48769 0.6974 0.89901 0.0
O88 O 0.4832 0.74992 0.93088 0.0
N89 N 0.61771 0.81717 0.89329 0.0
C90 C 0.64606 0.79327 0.89033 0.0
C91 C 0.67826 0.79932 0.91207 0.0
C92 C 0.68084 0.82965 0.93686 0.0
C93 C 0.65107 0.85351 0.93989 0.0
C94 C 0.61984 0.84633 0.91721 0.0
H95 H 0.64413 0.76976 0.87152 0.0
O96 O 0.55688 0.73201 0.93275 0.0
O97 O 0.54993 0.7843 0.9048 0.0
O98 O 0.5544 0.72306 0.85309 0.0
O99 O 0.58517 0.77373 0.83563 0.0
C100 C 0.65072 0.88345 0.96534 0.0
C101 C 0.61912 0.90531 0.96804 0.0
H102 H 0.55291 0.94026 0.96644 0.0
H103 H 0.49936 0.92163 0.9259 0.0
H104 H 0.70097 0.78056 0.90986 0.0
H105 H 0.70556 0.83399 0.95386 0.0
H106 H 0.67438 0.88955 0.98338 0.0
H107 H 0.61902 0.92796 0.98805 0.0
Mn108 Mn 0.5107 0.25599 0.12476 0.0
Mn109 Mn 0.45865 0.18574 0.15693 0.0
C110 C 0.49456 0.20454 0.08818 0.0
C111 C 0.52333 0.3081 0.08977 0.0
C112 C 0.53764 0.20035 0.18111 0.0
O113 O 0.48379 0.28152 0.16698 0.0
O114 O 0.45268 0.23118 0.18748 0.0
C115 C 0.38331 0.21333 0.14363 0.0
N116 N 0.40932 0.1875 0.13734 0.0
C117 C 0.36641 0.15011 0.10033 0.0
C118 C 0.33909 0.17608 0.10679 0.0
C119 C 0.34761 0.20792 0.12835 0.0
C120 C 0.4013 0.15665 0.11678 0.0
H121 H 0.38963 0.2377 0.16043 0.0
C122 C 0.46196 0.2656 0.18951 0.0
O123 O 0.5452 0.29818 0.11632 0.0
O124 O 0.49189 0.29026 0.08644 0.0
N125 N 0.46233 0.14107 0.12816 0.0
C126 C 0.49221 0.11946 0.12341 0.0
C127 C 0.48886 0.08749 0.10089 0.0
C128 C 0.45481 0.07805 0.08356 0.0
C129 C 0.42444 0.10074 0.08885 0.0
C130 C 0.42946 0.13225 0.11161 0.0
H131 H 0.51849 0.12685 0.13633 0.0
O132 O 0.52543 0.22232 0.08291 0.0
O133 O 0.47618 0.21538 0.11642 0.0
O134 O 0.54207 0.22956 0.16297 0.0
O135 O 0.50837 0.18029 0.1791 0.0
C136 C 0.38954 0.09362 0.072 0.0
C137 C 0.36047 0.11816 0.07794 0.0
H138 H 0.31148 0.17176 0.09539 0.0
H139 H 0.32664 0.22815 0.13333 0.0
H140 H 0.51251 0.07027 0.09675 0.0
H141 H 0.45238 0.05347 0.06605 0.0
H142 H 0.38481 0.06945 0.05427 0.0
H143 H 0.33378 0.11244 0.06478 0.0
Mn144 Mn 0.00014 0.75396 0.13844 0.0
Mn145 Mn 0.06656 0.81233 0.10931 0.0
C146 C 0.05077 0.77065 0.17568 0.0
C147 C 0.94892 0.737 0.17245 0.0
C148 C 0.05738 0.73413 0.08067 0.0
O149 O 0.97264 0.78124 0.09803 0.0
O150 O 0.02086 0.81635 0.07902 0.0
C151 C 0.03253 0.88407 0.12646 0.0
N152 N 0.06031 0.85991 0.13187 0.0
C153 C 0.09243 0.90265 0.17359 0.0
C154 C 0.06429 0.92802 0.16831 0.0
C155 C 0.03418 0.91868 0.14468 0.0
C156 C 0.08961 0.86883 0.15422 0.0
H157 H 0.00935 0.87711 0.10826 0.0
C158 C 0.98705 0.80509 0.07667 0.0
O159 O 0.95995 0.71679 0.14503 0.0
O160 O 0.96512 0.76912 0.17729 0.0
N161 N 0.11139 0.81087 0.13806 0.0
C162 C 0.13625 0.78332 0.14013 0.0
C163 C 0.16756 0.78797 0.16342 0.0
C164 C 0.17295 0.82086 0.18428 0.0
C165 C 0.14706 0.8489 0.18151 0.0
C166 C 0.11652 0.84278 0.15771 0.0
H167 H 0.13201 0.75788 0.12438 0.0
O168 O 0.03463 0.73866 0.17925 0.0
O169 O 0.03868 0.79007 0.14869 0.0
O170 O 0.02866 0.72679 0.09881 0.0
O171 O 0.07582 0.76443 0.08433 0.0
C172 C 0.15011 0.88251 0.20175 0.0
C173 C 0.12297 0.90946 0.19761 0.0
H174 H 0.06548 0.95467 0.18233 0.0
H175 H 0.01229 0.93809 0.14057 0.0
H176 H 0.18738 0.76618 0.16544 0.0
H177 H 0.19698 0.82423 0.20241 0.0
H178 H 0.17309 0.8879 0.22069 0.0
H179 H 0.1257 0.93521 0.21328 0.0
Mn180 Mn 0.50665 0.75406 0.37649 0.0
Mn181 Mn 0.4381 0.69604 0.40121 0.0
C182 C 0.48278 0.70962 0.33578 0.0
C183 C 0.52839 0.80542 0.34585 0.0
C184 C 0.51701 0.69216 0.43055 0.0
O185 O 0.48439 0.78123 0.42045 0.0
O186 O 0.436 0.74234 0.43146 0.0
C187 C 0.37302 0.73752 0.37622 0.0
N188 N 0.3936 0.70657 0.37452 0.0
C189 C 0.35201 0.67834 0.32899 0.0
C190 C 0.33018 0.70976 0.33058 0.0
C191 C 0.34075 0.73948 0.35429 0.0
C192 C 0.38365 0.67779 0.35182 0.0
H193 H 0.38135 0.76064 0.39392 0.0
C194 C 0.45498 0.77229 0.43762 0.0
O195 O 0.54859 0.78992 0.37088 0.0
O196 O 0.49436 0.79386 0.34243 0.0
N197 N 0.43775 0.65094 0.37256 0.0
C198 C 0.46312 0.62377 0.37237 0.0
C199 C 0.45727 0.59249 0.34924 0.0
C200 C 0.42533 0.5894 0.32667 0.0
C201 C 0.39968 0.6178 0.32719 0.0
C202 C 0.40692 0.64824 0.35092 0.0
H203 H 0.48772 0.62604 0.38957 0.0
O204 O 0.51634 0.72193 0.33217 0.0
O205 O 0.46563 0.72205 0.36416 0.0
O206 O 0.53025 0.71787 0.41124 0.0
O207 O 0.48294 0.68228 0.42981 0.0
C208 C 0.36776 0.61757 0.3043 0.0
C209 C 0.34397 0.64783 0.30518 0.0
H210 H 0.30547 0.71153 0.31344 0.0
H211 H 0.32422 0.76396 0.35544 0.0
H212 H 0.47738 0.57088 0.3487 0.0
H213 H 0.42105 0.56537 0.30867 0.0
H214 H 0.36155 0.5945 0.28551 0.0
H215 H 0.31977 0.64753 0.28711 0.0
Mn216 Mn 0.49581 0.25784 0.64717 0.0
Mn217 Mn 0.56172 0.31445 0.6145 0.0
C218 C 0.5492 0.27227 0.68211 0.0
C219 C 0.44486 0.24443 0.68299 0.0
C220 C 0.5461 0.23679 0.58404 0.0
O221 O 0.46765 0.28639 0.60773 0.0
O222 O 0.5137 0.32514 0.59073 0.0
C223 C 0.53625 0.38595 0.6444 0.0
N224 N 0.56302 0.36029 0.64167 0.0
C225 C 0.60341 0.39564 0.6832 0.0
C226 C 0.57639 0.42255 0.68625 0.0
C227 C 0.54259 0.41754 0.66698 0.0
C228 C 0.59562 0.36474 0.66022 0.0
H229 H 0.51007 0.38208 0.6299 0.0
C230 C 0.48005 0.31338 0.58888 0.0
O231 O 0.454 0.22308 0.65566 0.0
O232 O 0.46326 0.27545 0.68719 0.0
N233 N 0.609 0.3063 0.63691 0.0
C234 C 0.63052 0.27609 0.63396 0.0
C235 C 0.66443 0.27563 0.65336 0.0
C236 C 0.67577 0.30616 0.67566 0.0
C237 C 0.65314 0.33695 0.6782 0.0
C238 C 0.61989 0.33606 0.65784 0.0
H239 H 0.62172 0.25245 0.61714 0.0
O240 O 0.5314 0.24133 0.68685 0.0
O241 O 0.53649 0.29194 0.65554 0.0
O242 O 0.5214 0.22835 0.60686 0.0
O243 O 0.56313 0.26801 0.5844 0.0
C244 C 0.66181 0.36808 0.70091 0.0
C245 C 0.63706 0.39744 0.70337 0.0
H246 H 0.58097 0.44676 0.70396 0.0
H247 H 0.52129 0.43774 0.66997 0.0
H248 H 0.68166 0.25169 0.65137 0.0
H249 H 0.70173 0.30552 0.69098 0.0
H250 H 0.68711 0.36937 0.71717 0.0
H251 H 0.64377 0.42087 0.72154 0.0
Mn252 Mn 0.00445 0.26029 0.87482 0.0
Mn253 Mn 0.9328 0.20672 0.89946 0.0
C254 C 0.98255 0.21279 0.83651 0.0
C255 C 0.02857 0.30796 0.84082 0.0
C256 C 0.01001 0.20272 0.93382 0.0
O257 O 0.98089 0.29121 0.91572 0.0
O258 O 0.92939 0.256 0.92458 0.0
C259 C 0.87285 0.24689 0.86222 0.0
N260 N 0.89103 0.21498 0.86774 0.0
C261 C 0.85304 0.1828 0.82157 0.0
C262 C 0.83304 0.21502 0.81648 0.0
C263 C 0.84317 0.24727 0.83672 0.0
C264 C 0.88207 0.18399 0.84775 0.0
H265 H 0.88157 0.27201 0.87649 0.0
C266 C 0.9495 0.28529 0.93054 0.0
O267 O 0.04737 0.29472 0.86827 0.0
O268 O 0.99428 0.29736 0.83739 0.0
N269 N 0.93344 0.15868 0.87623 0.0
C270 C 0.95715 0.1307 0.88244 0.0
C271 C 0.95189 0.09689 0.86316 0.0
C272 C 0.9224 0.0922 0.83761 0.0
C273 C 0.89823 0.12128 0.83182 0.0
C274 C 0.90443 0.15411 0.85238 0.0
H275 H 0.97998 0.13411 0.90189 0.0
O276 O 0.01626 0.22481 0.83378 0.0
O277 O 0.96367 0.22806 0.86227 0.0
O278 O 0.02532 0.22576 0.91276 0.0
O279 O 0.97529 0.19526 0.93257 0.0
C280 C 0.86864 0.1192 0.80597 0.0
C281 C 0.84613 0.14997 0.80078 0.0
H282 H 0.81045 0.21554 0.79647 0.0
H283 H 0.82848 0.27252 0.83228 0.0
H284 H 0.9707 0.07459 0.86773 0.0
H285 H 0.91877 0.06627 0.82239 0.0
H286 H 0.86331 0.09426 0.78952 0.0
H287 H 0.82392 0.14828 0.78029 0.0
Mn288 Mn 0.38385 0.99862 0.2517 0.0
Mn289 Mn 0.35793 0.05235 0.32312 0.0
C290 C 0.42239 0.04534 0.27567 0.0
C291 C 0.41685 0.95126 0.22559 0.0
C292 C 0.32601 0.05803 0.2452 0.0
O293 O 0.3431 0.96697 0.27471 0.0
O294 O 0.33074 0.0042 0.3238 0.0
C295 C 0.38788 0.00919 0.38496 0.0
N296 N 0.38654 0.04135 0.36632 0.0
C297 C 0.43165 0.07029 0.40792 0.0
C298 C 0.43309 0.03763 0.42784 0.0
C299 C 0.41116 0.00694 0.41625 0.0
C300 C 0.40768 0.07102 0.37713 0.0
H301 H 0.37158 0.98534 0.37583 0.0
C302 C 0.32626 0.974 0.30483 0.0
O303 O 0.38933 0.96535 0.20779 0.0
O304 O 0.42164 0.96111 0.26005 0.0
N305 N 0.3835 0.09923 0.3252 0.0
C306 C 0.38021 0.12811 0.30201 0.0
C307 C 0.40077 0.16083 0.3094 0.0
C308 C 0.42469 0.16344 0.34038 0.0
C309 C 0.42762 0.13339 0.36387 0.0
C310 C 0.40593 0.10172 0.35547 0.0
H311 H 0.3622 0.12617 0.27793 0.0
O312 O 0.42525 0.03451 0.24153 0.0
O313 O 0.39596 0.03002 0.29358 0.0
O314 O 0.34591 0.03332 0.23097 0.0
O315 O 0.32754 0.06671 0.27961 0.0
C316 C 0.45159 0.13342 0.39497 0.0
C317 C 0.45366 0.10188 0.41694 0.0
H318 H 0.45123 0.03568 0.45181 0.0
H319 H 0.41238 0.98152 0.43127 0.0
H320 H 0.39847 0.18385 0.29105 0.0
H321 H 0.44088 0.18854 0.34569 0.0
H322 H 0.46887 0.15742 0.40202 0.0
H323 H 0.47255 0.10208 0.44052 0.0
Mn324 Mn 0.26244 0.10942 0.5159 0.0
Mn325 Mn 0.19897 0.14597 0.45904 0.0
C326 C 0.21074 0.0758 0.49507 0.0
C327 C 0.31153 0.07207 0.53144 0.0
C328 C 0.20534 0.16604 0.53943 0.0
O329 O 0.29254 0.15136 0.49351 0.0
O330 O 0.24505 0.17621 0.46157 0.0
C331 C 0.23882 0.13475 0.3894 0.0
N332 N 0.2082 0.12906 0.40985 0.0
C333 C 0.1782 0.09396 0.36025 0.0
C334 C 0.20926 0.09982 0.3385 0.0
C335 C 0.23984 0.11997 0.35335 0.0
C336 C 0.17881 0.1093 0.39608 0.0
H337 H 0.26244 0.15019 0.40056 0.0
C338 C 0.27859 0.17643 0.47349 0.0
O339 O 0.301 0.09828 0.55349 0.0
O340 O 0.29633 0.07042 0.49864 0.0
N341 N 0.15344 0.11838 0.45397 0.0
C342 C 0.12633 0.11401 0.47908 0.0
C343 C 0.09447 0.09298 0.46924 0.0
C344 C 0.09077 0.07686 0.43369 0.0
C345 C 0.11888 0.0821 0.40821 0.0
C346 C 0.14985 0.10354 0.41948 0.0
H347 H 0.12919 0.12624 0.50647 0.0
O348 O 0.22588 0.06886 0.52684 0.0
O349 O 0.22468 0.10358 0.47798 0.0
O350 O 0.23431 0.14779 0.54532 0.0
O351 O 0.18712 0.16471 0.50889 0.0
C352 C 0.11761 0.06654 0.37221 0.0
C353 C 0.14716 0.07257 0.3482 0.0
H354 H 0.21027 0.08828 0.31072 0.0
H355 H 0.26434 0.12383 0.33728 0.0
H356 H 0.07288 0.08908 0.48906 0.0
H357 H 0.06629 0.06043 0.42631 0.0
H358 H 0.09421 0.04963 0.36278 0.0
H359 H 0.14595 0.06021 0.3207 0.0
Mn360 Mn 0.14153 0.99752 0.75858 0.0
Mn361 Mn 0.10972 0.06702 0.81157 0.0
C362 C 0.17895 0.04748 0.77687 0.0
C363 C 0.17521 0.94467 0.74643 0.0
C364 C 0.0886 0.05643 0.7313 0.0
O365 O 0.09771 0.97233 0.78283 0.0
O366 O 0.077 0.02264 0.81357 0.0
C367 C 0.11772 0.03448 0.88547 0.0
N368 N 0.12677 0.0614 0.8614 0.0
C369 C 0.164 0.09392 0.90786 0.0
C370 C 0.15464 0.06681 0.93321 0.0
C371 C 0.1316 0.03685 0.92192 0.0
C372 C 0.14886 0.0904 0.87206 0.0
H373 H 0.09977 0.01154 0.87707 0.0
C374 C 0.07438 0.98849 0.80348 0.0
O375 O 0.15005 0.95576 0.72353 0.0
O376 O 0.17779 0.9619 0.77823 0.0
N377 N 0.14038 0.11076 0.81211 0.0
C378 C 0.14648 0.13473 0.78437 0.0
C379 C 0.1699 0.16567 0.79087 0.0
C380 C 0.18675 0.17166 0.82581 0.0
C381 C 0.17996 0.14667 0.85399 0.0
C382 C 0.15627 0.1164 0.84591 0.0
H383 H 0.13391 0.12999 0.7574 0.0
O384 O 0.18476 0.03013 0.74589 0.0
O385 O 0.15 0.03694 0.79437 0.0
O386 O 0.10536 0.0263 0.72693 0.0
O387 O 0.09054 0.07588 0.76108 0.0
C388 C 0.19598 0.15047 0.88968 0.0
C389 C 0.18783 0.12421 0.91666 0.0
H390 H 0.16486 0.06875 0.96143 0.0
H391 H 0.12443 0.01574 0.94133 0.0
H392 H 0.17509 0.18476 0.76894 0.0
H393 H 0.20496 0.19544 0.83066 0.0
H394 H 0.2145 0.17353 0.89671 0.0
H395 H 0.20013 0.12753 0.94407 0.0
Mn396 Mn 0.26258 0.8723 0.01154 0.0
Mn397 Mn 0.21876 0.89927 0.93454 0.0
C398 C 0.21772 0.83501 0.98326 0.0
C399 C 0.30831 0.83962 0.04086 0.0
C400 C 0.20772 0.93332 0.01096 0.0
O401 O 0.29634 0.91371 0.99215 0.0
O402 O 0.26948 0.92089 0.93565 0.0
C403 C 0.26142 0.86004 0.87757 0.0
N404 N 0.22856 0.8671 0.89347 0.0
C405 C 0.19649 0.82441 0.85152 0.0
C406 C 0.22987 0.81761 0.83399 0.0
C407 C 0.26251 0.83534 0.84723 0.0
C408 C 0.19708 0.84962 0.88141 0.0
H409 H 0.28663 0.87262 0.88844 0.0
C410 C 0.29568 0.92707 0.95955 0.0
O411 O 0.29137 0.86582 0.05812 0.0
O412 O 0.30145 0.83516 0.00576 0.0
N413 N 0.16939 0.87916 0.93094 0.0
C414 C 0.1398 0.88734 0.952 0.0
C415 C 0.10518 0.87092 0.94318 0.0
C416 C 0.10129 0.84626 0.91284 0.0
C417 C 0.13203 0.83846 0.89141 0.0
C418 C 0.16572 0.85612 0.90116 0.0
H419 H 0.1425 0.9063 0.97531 0.0
O420 O 0.22585 0.83091 0.0179 0.0
O421 O 0.23539 0.86109 0.96708 0.0
O422 O 0.22548 0.90968 0.02903 0.0
O423 O 0.20601 0.93369 0.97566 0.0
C424 C 0.13067 0.81348 0.86104 0.0
C425 C 0.16289 0.8064 0.84115 0.0
H426 H 0.23087 0.79828 0.81082 0.0
H427 H 0.28851 0.82968 0.83433 0.0
H428 H 0.08157 0.87709 0.95986 0.0
H429 H 0.07463 0.83335 0.90639 0.0
H430 H 0.10507 0.79922 0.85301 0.0
H431 H 0.16161 0.78671 0.81821 0.0
Mn432 Mn 0.24052 0.39079 0.00283 0.0
Mn433 Mn 0.31997 0.3632 0.0418 0.0
C434 C 0.27317 0.42885 0.04413 0.0
C435 C 0.20875 0.42314 0.95851 0.0
C436 C 0.24393 0.33143 0.05959 0.0
O437 O 0.25574 0.34763 0.96904 0.0
O438 O 0.31329 0.33846 0.99283 0.0
C439 C 0.37597 0.3942 0.9921 0.0
N440 N 0.36125 0.39228 0.02629 0.0
C441 C 0.40752 0.43477 0.05175 0.0
C442 C 0.42319 0.43714 0.01681 0.0
C443 C 0.40729 0.41681 0.98686 0.0
C444 C 0.3764 0.41164 0.05533 0.0
H445 H 0.36382 0.37865 0.96904 0.0
C446 C 0.28738 0.33232 0.96865 0.0
O447 O 0.19216 0.39798 0.97745 0.0
O448 O 0.24428 0.42664 0.96253 0.0
N449 N 0.3287 0.38636 0.08931 0.0
C450 C 0.30978 0.38166 0.12101 0.0
C451 C 0.32185 0.40046 0.15352 0.0
C452 C 0.35329 0.42379 0.1531 0.0
C453 C 0.37244 0.42803 0.12019 0.0
C454 C 0.35927 0.40839 0.08873 0.0
H455 H 0.28562 0.36374 0.12151 0.0
O456 O 0.23812 0.43341 0.03878 0.0
O457 O 0.28738 0.40176 0.02605 0.0
O458 O 0.22492 0.35454 0.04202 0.0
O459 O 0.27922 0.3316 0.06002 0.0
C460 C 0.40376 0.45139 0.11725 0.0
C461 C 0.42129 0.45477 0.08306 0.0
H462 H 0.44726 0.45466 0.01261 0.0
H463 H 0.41913 0.41864 0.9598 0.0
H464 H 0.30692 0.39705 0.17881 0.0
H465 H 0.36237 0.43845 0.17816 0.0
H466 H 0.41439 0.46709 0.14106 0.0
H467 H 0.44522 0.473 0.08111 0.0
Mn468 Mn 0.74769 0.14073 0.01644 0.0
Mn469 Mn 0.81087 0.1044 0.07327 0.0
C470 C 0.76847 0.17317 0.06895 0.0
C471 C 0.73061 0.17899 0.96915 0.0
C472 C 0.73188 0.07503 0.0629 0.0
O473 O 0.7715 0.10088 0.98459 0.0
O474 O 0.81882 0.08489 0.02276 0.0
C475 C 0.88181 0.13531 0.04755 0.0
N476 N 0.85664 0.13165 0.07469 0.0
C477 C 0.89502 0.16771 0.11751 0.0
C478 C 0.92136 0.17187 0.09002 0.0
C479 C 0.91469 0.15561 0.0549 0.0
C480 C 0.86296 0.14682 0.10872 0.0
H481 H 0.87674 0.12295 0.0205 0.0
C482 C 0.80101 0.08313 0.99174 0.0
O483 O 0.70897 0.15212 0.97891 0.0
O484 O 0.76369 0.18048 0.98365 0.0
N485 N 0.80491 0.12298 0.12259 0.0
C486 C 0.77516 0.11951 0.14466 0.0
C487 C 0.77657 0.13548 0.18033 0.0
C488 C 0.80836 0.15533 0.19271 0.0
C489 C 0.83831 0.15931 0.16913 0.0
C490 C 0.83543 0.14245 0.13402 0.0
H491 H 0.75038 0.10517 0.13483 0.0
O492 O 0.73616 0.17954 0.05463 0.0
O493 O 0.78621 0.14681 0.05307 0.0
O494 O 0.71986 0.10138 0.04408 0.0
O495 O 0.76532 0.07317 0.07437 0.0
C496 C 0.87056 0.18005 0.17877 0.0
C497 C 0.89895 0.18415 0.15302 0.0
H498 H 0.94664 0.18774 0.09547 0.0
H499 H 0.93478 0.15882 0.03351 0.0
H500 H 0.75309 0.13278 0.19812 0.0
H501 H 0.80922 0.16789 0.22012 0.0
H502 H 0.87362 0.19336 0.20575 0.0
H503 H 0.92343 0.2005 0.1606 0.0
Mn504 Mn 0.1187 0.50885 0.25357 0.0
Mn505 Mn 0.14317 0.44727 0.18782 0.0
C506 C 0.07907 0.49241 0.20465 0.0
C507 C 0.08771 0.52869 0.30571 0.0
C508 C 0.17533 0.52477 0.19403 0.0
O509 O 0.15913 0.4806 0.28025 0.0
O510 O 0.17424 0.44211 0.23299 0.0
C511 C 0.12111 0.37799 0.22401 0.0
N512 N 0.11824 0.401 0.19494 0.0
C513 C 0.07453 0.35967 0.16354 0.0
C514 C 0.0772 0.33545 0.19305 0.0
C515 C 0.10056 0.34469 0.22343 0.0
C516 C 0.0961 0.39224 0.1654 0.0
H517 H 0.13885 0.38501 0.24753 0.0
C518 C 0.17839 0.45468 0.26627 0.0
O519 O 0.11522 0.54752 0.29288 0.0
O520 O 0.08094 0.49628 0.29071 0.0
N521 N 0.11376 0.44969 0.14345 0.0
C522 C 0.11071 0.47811 0.11972 0.0
C523 C 0.08621 0.47457 0.08926 0.0
C524 C 0.06539 0.44178 0.0833 0.0
C525 C 0.06877 0.41301 0.10826 0.0
C526 C 0.09355 0.41813 0.13822 0.0
H527 H 0.12609 0.50363 0.12462 0.0
O528 O 0.07718 0.52485 0.22027 0.0
O529 O 0.10558 0.47208 0.21635 0.0
O530 O 0.15784 0.53391 0.22268 0.0
O531 O 0.17063 0.49361 0.17728 0.0
C532 C 0.04741 0.38009 0.10541 0.0
C533 C 0.05039 0.35337 0.13296 0.0
H534 H 0.06106 0.30994 0.19293 0.0
H535 H 0.10254 0.32629 0.24645 0.0
H536 H 0.08278 0.49734 0.07083 0.0
H537 H 0.04622 0.43936 0.06 0.0
H538 H 0.02799 0.37539 0.08256 0.0
H539 H 0.0333 0.3285 0.13082 0.0
Mn540 Mn 0.74732 0.885 0.50367 0.0
Mn541 Mn 0.82616 0.85795 0.54432 0.0
C542 C 0.7779 0.9223 0.54742 0.0
C543 C 0.71489 0.91897 0.46119 0.0
C544 C 0.75048 0.82366 0.55874 0.0
O545 O 0.76532 0.84442 0.4681 0.0
O546 O 0.82184 0.8348 0.49418 0.0
C547 C 0.88215 0.89362 0.49766 0.0
N548 N 0.8669 0.88921 0.5313 0.0
C549 C 0.91025 0.9331 0.55955 0.0
C550 C 0.92667 0.93773 0.52523 0.0
C551 C 0.91253 0.9179 0.49414 0.0
C552 C 0.88028 0.90819 0.56141 0.0
H553 H 0.87092 0.87903 0.4737 0.0
C554 C 0.79725 0.8296 0.46841 0.0
O555 O 0.69923 0.89132 0.4773 0.0
O556 O 0.75024 0.92368 0.46617 0.0
N557 N 0.83256 0.8797 0.59283 0.0
C558 C 0.81267 0.87328 0.62362 0.0
C559 C 0.82283 0.89151 0.65703 0.0
C560 C 0.85332 0.91612 0.65847 0.0
C561 C 0.87345 0.92222 0.62647 0.0
C562 C 0.86224 0.90299 0.59404 0.0
H563 H 0.78919 0.85442 0.62274 0.0
O564 O 0.74271 0.92567 0.54176 0.0
O565 O 0.7931 0.89622 0.52878 0.0
O566 O 0.73196 0.84639 0.54024 0.0
O567 O 0.78578 0.82433 0.56047 0.0
C568 C 0.90373 0.94718 0.6253 0.0
C569 C 0.92208 0.95266 0.59186 0.0
H570 H 0.94987 0.95671 0.52235 0.0
H571 H 0.9248 0.92157 0.46747 0.0
H572 H 0.80711 0.88671 0.6816 0.0
H573 H 0.86084 0.9304 0.6842 0.0
H574 H 0.91286 0.96263 0.64987 0.0
H575 H 0.94506 0.97223 0.59122 0.0
Mn576 Mn 0.86751 0.01895 0.26233 0.0
Mn577 Mn 0.89005 0.9481 0.20624 0.0
C578 C 0.82492 0.99452 0.22001 0.0
C579 C 0.83807 0.04381 0.31308 0.0
C580 C 0.92331 0.02564 0.20176 0.0
O581 O 0.91102 0.99589 0.2898 0.0
O582 O 0.91851 0.94464 0.25345 0.0
C583 C 0.8636 0.88129 0.24405 0.0
N584 N 0.86236 0.90362 0.21436 0.0
C585 C 0.81856 0.86269 0.18248 0.0
C586 C 0.81943 0.83925 0.21273 0.0
C587 C 0.84207 0.8486 0.24363 0.0
C588 C 0.84112 0.89458 0.18421 0.0
H589 H 0.88065 0.88854 0.26796 0.0
C590 C 0.926 0.96478 0.28249 0.0
O591 O 0.86339 0.06248 0.2963 0.0
O592 O 0.83335 0.00936 0.30335 0.0
N593 N 0.86252 0.95004 0.16063 0.0
C594 C 0.86234 0.97723 0.13528 0.0
C595 C 0.83927 0.9734 0.10374 0.0
C596 C 0.81664 0.94167 0.09859 0.0
C597 C 0.81714 0.91414 0.12515 0.0
C598 C 0.84073 0.91948 0.15602 0.0
H599 H 0.87941 0.00183 0.13929 0.0
O600 O 0.82343 0.02886 0.23061 0.0
O601 O 0.85316 0.97672 0.23211 0.0
O602 O 0.9026 0.0412 0.22491 0.0
O603 O 0.92145 0.9912 0.19413 0.0
C604 C 0.79452 0.88203 0.12263 0.0
C605 C 0.79537 0.85622 0.15118 0.0
H606 H 0.80251 0.81425 0.21271 0.0
H607 H 0.84276 0.83073 0.26714 0.0
H608 H 0.83878 0.99493 0.08354 0.0
H609 H 0.79868 0.93894 0.07436 0.0
H610 H 0.77604 0.87713 0.09906 0.0
H611 H 0.77751 0.83188 0.14912 0.0
Mn612 Mn 0.24602 0.63801 0.51103 0.0
Mn613 Mn 0.31553 0.60177 0.56013 0.0
C614 C 0.27058 0.66935 0.56272 0.0
C615 C 0.22319 0.67471 0.46424 0.0
C616 C 0.23691 0.57052 0.55633 0.0
O617 O 0.26725 0.59876 0.47635 0.0
O618 O 0.31994 0.58561 0.50803 0.0
C619 C 0.38197 0.63844 0.53028 0.0
N620 N 0.35989 0.63128 0.55933 0.0
C621 C 0.40001 0.66698 0.60087 0.0
C622 C 0.42324 0.67461 0.57139 0.0
C623 C 0.41414 0.66031 0.53594 0.0
C624 C 0.3685 0.64472 0.59362 0.0
H625 H 0.37489 0.62778 0.50298 0.0
C626 C 0.29861 0.58317 0.47935 0.0
O627 O 0.20374 0.6478 0.47736 0.0
O628 O 0.25707 0.67856 0.4765 0.0
N629 N 0.31327 0.61686 0.61101 0.0
C630 C 0.2868 0.60884 0.63593 0.0
C631 C 0.29088 0.62245 0.6724 0.0
C632 C 0.32213 0.64409 0.68289 0.0
C633 C 0.3491 0.65185 0.65681 0.0
C634 C 0.34366 0.63731 0.62093 0.0
H635 H 0.26276 0.59222 0.62804 0.0
O636 O 0.23738 0.67614 0.55093 0.0
O637 O 0.28749 0.6441 0.5443 0.0
O638 O 0.22234 0.59778 0.54095 0.0
O639 O 0.27145 0.56839 0.56333 0.0
C640 C 0.38087 0.6739 0.66486 0.0
C641 C 0.40633 0.68142 0.63693 0.0
H642 H 0.44789 0.69177 0.57558 0.0
H643 H 0.4318 0.66628 0.51299 0.0
H644 H 0.26994 0.61632 0.69238 0.0
H645 H 0.32506 0.65474 0.71099 0.0
H646 H 0.3858 0.68553 0.69234 0.0
H647 H 0.43041 0.6988 0.64335 0.0
Mn648 Mn 0.37367 0.51093 0.75699 0.0
Mn649 Mn 0.40627 0.43543 0.71391 0.0
C650 C 0.33877 0.47887 0.7128 0.0
C651 C 0.33665 0.53921 0.79973 0.0
C652 C 0.4332 0.51361 0.69871 0.0
O653 O 0.41468 0.49585 0.79252 0.0
O654 O 0.43221 0.44379 0.76214 0.0
C655 C 0.38142 0.37744 0.7647 0.0
N656 N 0.38081 0.39227 0.7305 0.0
C657 C 0.34008 0.34357 0.70682 0.0
C658 C 0.34031 0.3278 0.74179 0.0
C659 C 0.36108 0.34481 0.77084 0.0
C660 C 0.36098 0.37605 0.70232 0.0
H661 H 0.39738 0.39035 0.78706 0.0
C662 C 0.434 0.46683 0.78955 0.0
O663 O 0.36307 0.55768 0.78434 0.0
O664 O 0.33529 0.50378 0.79409 0.0
N665 N 0.38211 0.4248 0.6672 0.0
C666 C 0.38522 0.44317 0.63497 0.0
C667 C 0.36664 0.42933 0.60302 0.0
C668 C 0.34492 0.39687 0.60453 0.0
C669 C 0.34227 0.37834 0.63794 0.0
C670 C 0.36187 0.39313 0.66875 0.0
H671 H 0.40163 0.46827 0.63367 0.0
O672 O 0.33333 0.51367 0.71886 0.0
O673 O 0.36564 0.46471 0.73116 0.0
O674 O 0.41179 0.52966 0.721 0.0
O675 O 0.43365 0.47854 0.69422 0.0
C676 C 0.32098 0.34575 0.64185 0.0
C677 C 0.31985 0.32839 0.67627 0.0
H678 H 0.32466 0.30264 0.74666 0.0
H679 H 0.36145 0.33277 0.79789 0.0
H680 H 0.36886 0.44379 0.57733 0.0
H681 H 0.33042 0.38643 0.57989 0.0
H682 H 0.30535 0.33385 0.61856 0.0
H683 H 0.30336 0.30335 0.67894 0.0
Mn684 Mn 0.61712 0.01624 0.75036 0.0
Mn685 Mn 0.64662 0.94468 0.69983 0.0
C686 C 0.58076 0.99189 0.70186 0.0
C687 C 0.58398 0.0405 0.79946 0.0
C688 C 0.68317 0.02108 0.70282 0.0
O689 O 0.65736 0.99256 0.78242 0.0
O690 O 0.66346 0.93783 0.7513 0.0
C691 C 0.60663 0.87942 0.72815 0.0
N692 N 0.61384 0.90261 0.70002 0.0
C693 C 0.57166 0.86863 0.65913 0.0
C694 C 0.56388 0.84433 0.68766 0.0
C695 C 0.58148 0.84974 0.72231 0.0
C696 C 0.59755 0.89728 0.66637 0.0
H697 H 0.61967 0.88381 0.75492 0.0
C698 C 0.66953 0.95953 0.77938 0.0
O699 O 0.61053 0.05922 0.78467 0.0
O700 O 0.57868 0.0067 0.78759 0.0
N701 N 0.63011 0.9502 0.64976 0.0
C702 C 0.63935 0.97704 0.62567 0.0
C703 C 0.62314 0.97638 0.59014 0.0
C704 C 0.59746 0.9483 0.57982 0.0
C705 C 0.58845 0.92095 0.60506 0.0
C706 C 0.60591 0.92267 0.63987 0.0
H707 H 0.65881 0.9989 0.63348 0.0
O708 O 0.57635 0.02574 0.71313 0.0
O709 O 0.60721 0.97498 0.71824 0.0
O710 O 0.65644 0.03778 0.71724 0.0
O711 O 0.68313 0.98619 0.69722 0.0
C712 C 0.56209 0.89263 0.59732 0.0
C713 C 0.55381 0.86635 0.62423 0.0
H714 H 0.54403 0.82178 0.68343 0.0
H715 H 0.5754 0.83129 0.74457 0.0
H716 H 0.63021 0.99764 0.57084 0.0
H717 H 0.58462 0.94815 0.55255 0.0
H718 H 0.54768 0.89133 0.5709 0.0
H719 H 0.53323 0.84487 0.61807 0.0
Mn720 Mn 0.74553 0.62282 0.01361 0.0
Mn721 Mn 0.68904 0.66185 0.95182 0.0
C722 C 0.69327 0.59102 0.99111 0.0
C723 C 0.794 0.58501 0.03057 0.0
C724 C 0.69876 0.68788 0.03187 0.0
O725 O 0.77743 0.66408 0.99146 0.0
O726 O 0.73993 0.68031 0.94364 0.0
C727 C 0.71302 0.63181 0.87976 0.0
N728 N 0.68648 0.63532 0.90558 0.0
C729 C 0.64272 0.59997 0.86757 0.0
C730 C 0.66965 0.59591 0.84065 0.0
C731 C 0.70496 0.6119 0.84678 0.0
C732 C 0.65232 0.62027 0.89982 0.0
H733 H 0.74014 0.64399 0.88441 0.0
C734 C 0.77081 0.68166 0.9617 0.0
O735 O 0.78264 0.61107 0.0523 0.0
O736 O 0.77958 0.58331 0.99741 0.0
N737 N 0.6393 0.64443 0.95802 0.0
C738 C 0.61656 0.65051 0.98691 0.0
C739 C 0.58031 0.63597 0.98532 0.0
C740 C 0.5678 0.61536 0.95406 0.0
C741 C 0.59164 0.6096 0.9246 0.0
C742 C 0.62739 0.62496 0.92766 0.0
H743 H 0.62593 0.66644 0.01095 0.0
O744 O 0.7075 0.58329 0.02314 0.0
O745 O 0.70912 0.61823 0.9747 0.0
O746 O 0.71686 0.66056 0.0427 0.0
O747 O 0.68884 0.6922 0.99827 0.0
C748 C 0.58133 0.58918 0.89233 0.0
C749 C 0.60684 0.58438 0.86383 0.0
H750 H 0.66357 0.58048 0.81522 0.0
H751 H 0.72591 0.60887 0.82615 0.0
H752 H 0.56202 0.64069 0.0081 0.0
H753 H 0.53984 0.60415 0.95297 0.0
H754 H 0.55387 0.57695 0.88919 0.0
H755 H 0.59863 0.56852 0.83922 0.0
Mn756 Mn 0.89107 0.49468 0.75336 0.0
Mn757 Mn 0.86347 0.54832 0.82431 0.0
C758 C 0.9267 0.54402 0.77559 0.0
C759 C 0.92798 0.44952 0.72842 0.0
C760 C 0.83049 0.55152 0.74666 0.0
O761 O 0.85256 0.46108 0.77758 0.0
O762 O 0.83822 0.49953 0.82508 0.0
C763 C 0.89538 0.50613 0.88591 0.0
N764 N 0.89274 0.53825 0.86733 0.0
C765 C 0.93703 0.56867 0.90875 0.0
C766 C 0.93974 0.53609 0.92865 0.0
C767 C 0.91886 0.50467 0.91713 0.0
C768 C 0.91288 0.56859 0.87807 0.0
H769 H 0.87997 0.48171 0.8768 0.0
C770 C 0.83519 0.46858 0.8073 0.0
O771 O 0.8993 0.46087 0.7102 0.0
O772 O 0.93166 0.46032 0.76266 0.0
N773 N 0.88721 0.59609 0.82642 0.0
C774 C 0.88225 0.62505 0.80365 0.0
C775 C 0.90163 0.65845 0.81106 0.0
C776 C 0.92579 0.66178 0.84181 0.0
C777 C 0.9302 0.63172 0.86502 0.0
C778 C 0.9098 0.59927 0.85654 0.0
H779 H 0.86378 0.62265 0.77991 0.0
O780 O 0.92973 0.53278 0.74163 0.0
O781 O 0.90173 0.5275 0.79435 0.0
O782 O 0.85043 0.52667 0.73255 0.0
O783 O 0.8327 0.56129 0.7808 0.0
C784 C 0.95443 0.63252 0.89594 0.0
C785 C 0.95789 0.60099 0.91775 0.0
H786 H 0.95805 0.53476 0.95257 0.0
H787 H 0.92104 0.47931 0.93213 0.0
H788 H 0.89824 0.68147 0.79295 0.0
H789 H 0.94098 0.68747 0.84717 0.0
H790 H 0.9708 0.65713 0.90295 0.0
H791 H 0.97691 0.60177 0.94122 0.0
Mn792 Mn 0.76453 0.36837 0.50864 0.0
Mn793 Mn 0.71214 0.39321 0.43596 0.0
C794 C 0.71695 0.3309 0.48572 0.0
C795 C 0.80935 0.33237 0.53516 0.0
C796 C 0.70494 0.42661 0.51302 0.0
O797 O 0.7977 0.40775 0.4854 0.0
O798 O 0.75996 0.4209 0.43705 0.0
C799 C 0.75863 0.36242 0.37698 0.0
N800 N 0.72538 0.3642 0.39368 0.0
C801 C 0.69895 0.3178 0.35184 0.0
C802 C 0.73273 0.31602 0.33381 0.0
C803 C 0.76275 0.33825 0.3466 0.0
C804 C 0.69644 0.34252 0.38191 0.0
H805 H 0.78196 0.37902 0.387 0.0
C806 C 0.79028 0.42521 0.45579 0.0
O807 O 0.79705 0.36093 0.55298 0.0
O808 O 0.80037 0.32898 0.50046 0.0
N809 N 0.66551 0.36726 0.43201 0.0
C810 C 0.63545 0.37074 0.45368 0.0
C811 C 0.60327 0.34971 0.44515 0.0
C812 C 0.60241 0.32512 0.41463 0.0
C813 C 0.63363 0.3221 0.39265 0.0
C814 C 0.66466 0.34433 0.40206 0.0
H815 H 0.63611 0.38912 0.47751 0.0
O816 O 0.72727 0.32897 0.52 0.0
O817 O 0.73331 0.35589 0.46678 0.0
O818 O 0.73053 0.40812 0.52786 0.0
O819 O 0.6959 0.42345 0.47876 0.0
C820 C 0.63534 0.29749 0.36213 0.0
C821 C 0.668 0.29529 0.34178 0.0
H822 H 0.7361 0.29727 0.31049 0.0
H823 H 0.78907 0.33661 0.33317 0.0
H824 H 0.57934 0.3521 0.46234 0.0
H825 H 0.57774 0.30851 0.4085 0.0
H826 H 0.61185 0.2798 0.35433 0.0
H827 H 0.66916 0.27586 0.31871 0.0
Mn828 Mn 0.63748 0.49818 0.26453 0.0
Mn829 Mn 0.61148 0.56642 0.32246 0.0
C830 C 0.675 0.54983 0.27667 0.0
C831 C 0.67146 0.44679 0.2484 0.0
C832 C 0.57764 0.55324 0.24637 0.0
O833 O 0.59846 0.47194 0.29505 0.0
O834 O 0.58316 0.52034 0.33172 0.0
C835 C 0.63968 0.53574 0.3924 0.0
N836 N 0.63897 0.5637 0.36792 0.0
C837 C 0.68363 0.59945 0.40448 0.0
C838 C 0.68447 0.57124 0.43029 0.0
C839 C 0.66264 0.53915 0.42405 0.0
C840 C 0.66014 0.59459 0.37348 0.0
H841 H 0.62311 0.51091 0.38764 0.0
C842 C 0.57947 0.48649 0.32091 0.0
O843 O 0.64295 0.4563 0.22887 0.0
O844 O 0.67721 0.46442 0.27965 0.0
N845 N 0.63806 0.61193 0.31582 0.0
C846 C 0.63702 0.63467 0.28642 0.0
C847 C 0.65908 0.66701 0.28714 0.0
C848 C 0.68203 0.67557 0.31799 0.0
C849 C 0.68267 0.65171 0.34791 0.0
C850 C 0.65974 0.62009 0.34583 0.0
H851 H 0.61979 0.62794 0.26246 0.0
O852 O 0.67715 0.53202 0.24537 0.0
O853 O 0.64939 0.53837 0.29816 0.0
O854 O 0.59658 0.52532 0.23812 0.0
O855 O 0.58193 0.57203 0.27643 0.0
C856 C 0.70585 0.65759 0.37928 0.0
C857 C 0.70631 0.63149 0.40756 0.0
H858 H 0.70236 0.57358 0.45459 0.0
H859 H 0.66388 0.51695 0.4434 0.0
H860 H 0.65864 0.68515 0.26382 0.0
H861 H 0.69936 0.7003 0.31824 0.0
H862 H 0.72394 0.68176 0.38163 0.0
H863 H 0.72482 0.63595 0.43118 0.0
Fe864 Fe 0.12982 0.09369 0.16194 0.0
Fe865 Fe 0.0974 0.16436 0.13178 0.0
O866 O 0.12977 0.12889 0.12924 0.0
Fe867 Fe 0.16236 0.12877 0.09417 0.0
O868 O 0.14504 0.08507 0.07669 0.0
O869 O 0.1477 0.05748 0.12969 0.0
O870 O 0.0837 0.07907 0.14796 0.0
C871 C 0.05634 0.09961 0.15174 0.0
C872 C 0.20324 0.10806 0.15761 0.0
O873 O 0.06056 0.13461 0.15173 0.0
C874 C 0.1634 0.20165 0.10919 0.0
O875 O 0.11279 0.12356 0.19999 0.0
O876 O 0.11521 0.17888 0.17661 0.0
O877 O 0.19935 0.10787 0.12266 0.0
O878 O 0.17554 0.10712 0.17785 0.0
C879 C 0.09629 0.15102 0.05802 0.0
O880 O 0.1284 0.20056 0.11203 0.0
O881 O 0.1811 0.17241 0.11012 0.0
C882 C 0.11471 0.1585 0.20427 0.0
O883 O 0.07809 0.15138 0.08719 0.0
O884 O 0.13133 0.14975 0.0595 0.0
C885 C 0.1485 0.05615 0.09454 0.0
Fe886 Fe 0.08969 0.84073 0.38031 0.0
Fe887 Fe 0.12729 0.90942 0.34973 0.0
O888 O 0.12403 0.87592 0.38415 0.0
Fe889 Fe 0.15515 0.87777 0.42217 0.0
O890 O 0.17204 0.83261 0.41081 0.0
O891 O 0.11775 0.8054 0.40288 0.0
O892 O 0.10757 0.82412 0.33681 0.0
C893 C 0.10866 0.84379 0.30868 0.0
C894 C 0.08645 0.85825 0.45381 0.0
O895 O 0.10954 0.87866 0.31207 0.0
C896 C 0.14388 0.95075 0.41576 0.0
O897 O 0.05559 0.87014 0.35735 0.0
O898 O 0.08154 0.9255 0.35949 0.0
O899 O 0.12154 0.85944 0.45528 0.0
O900 O 0.06953 0.85512 0.42321 0.0
C901 C 0.19996 0.89618 0.36096 0.0
O902 O 0.14565 0.94643 0.38105 0.0
O903 O 0.14027 0.92323 0.43594 0.0
C904 C 0.05297 0.90506 0.35681 0.0
O905 O 0.17318 0.895 0.33817 0.0
O906 O 0.19414 0.89652 0.3955 0.0
C907 C 0.15246 0.80359 0.40761 0.0
Fe908 Fe 0.3789 0.91009 0.67346 0.0
Fe909 Fe 0.33918 0.86633 0.61086 0.0
O910 O 0.37661 0.87198 0.64241 0.0
Fe911 Fe 0.41193 0.83934 0.64299 0.0
O912 O 0.40163 0.82745 0.68976 0.0
O913 O 0.40254 0.88476 0.71068 0.0
O914 O 0.33598 0.89643 0.69418 0.0
C915 C 0.30572 0.89162 0.67685 0.0
C916 C 0.4507 0.90749 0.65482 0.0
O917 O 0.30512 0.88725 0.64192 0.0
C918 C 0.40168 0.84493 0.56922 0.0
O919 O 0.35602 0.94186 0.64157 0.0
O920 O 0.34993 0.90974 0.58968 0.0
O921 O 0.44865 0.87277 0.65836 0.0
O922 O 0.42193 0.92617 0.65451 0.0
C923 C 0.34711 0.79517 0.62964 0.0
O924 O 0.36699 0.84446 0.57431 0.0
O925 O 0.42387 0.84954 0.59621 0.0
C926 C 0.35313 0.94038 0.60657 0.0
O927 O 0.32623 0.8224 0.63012 0.0
O928 O 0.38176 0.80006 0.62755 0.0
C929 C 0.40427 0.85031 0.71639 0.0
Fe930 Fe 0.41507 0.17024 0.8851 0.0
Fe931 Fe 0.382 0.10161 0.8456 0.0
O932 O 0.38244 0.13348 0.88294 0.0
Fe933 Fe 0.35022 0.12831 0.91843 0.0
O934 O 0.33023 0.172 0.90849 0.0
O935 O 0.38328 0.20266 0.90781 0.0
O936 O 0.39826 0.1882 0.84223 0.0
C937 C 0.39663 0.17051 0.81205 0.0
C938 C 0.41576 0.1511 0.95703 0.0
O939 O 0.3978 0.13547 0.81144 0.0
C940 C 0.36787 0.05697 0.90796 0.0
O941 O 0.45213 0.14401 0.86239 0.0
O942 O 0.42826 0.08795 0.85671 0.0
O943 O 0.38079 0.14886 0.95514 0.0
O944 O 0.43409 0.15457 0.92826 0.0
C945 C 0.30858 0.10875 0.85337 0.0
O946 O 0.36614 0.06217 0.87333 0.0
O947 O 0.36847 0.08414 0.9302 0.0
C948 C 0.45605 0.1093 0.85924 0.0
O949 O 0.33549 0.1134 0.8325 0.0
O950 O 0.31373 0.10701 0.88804 0.0
C951 C 0.34811 0.2021 0.90866 0.0
Fe952 Fe 0.59554 0.34508 0.88603 0.0
Fe953 Fe 0.63483 0.41154 0.85204 0.0
O954 O 0.63034 0.37995 0.88811 0.0
Fe955 Fe 0.66117 0.38384 0.92616 0.0
O956 O 0.67827 0.33889 0.91642 0.0
O957 O 0.62441 0.31004 0.90907 0.0
O958 O 0.61193 0.32659 0.84249 0.0
C959 C 0.61339 0.34494 0.81349 0.0
C960 C 0.5934 0.36342 0.95958 0.0
O961 O 0.61605 0.37982 0.81546 0.0
C962 C 0.64781 0.45601 0.91604 0.0
O963 O 0.56139 0.37504 0.86309 0.0
O964 O 0.59017 0.42921 0.86086 0.0
O965 O 0.62837 0.36607 0.96026 0.0
O966 O 0.57611 0.36055 0.92918 0.0
C967 C 0.70669 0.39771 0.86479 0.0
O968 O 0.65339 0.44985 0.882 0.0
O969 O 0.64524 0.42948 0.93769 0.0
C970 C 0.56084 0.41009 0.86038 0.0
O971 O 0.6803 0.39515 0.84164 0.0
O972 O 0.70007 0.40173 0.89899 0.0
C973 C 0.65913 0.30958 0.91545 0.0
Fe974 Fe 0.83288 0.37909 0.10328 0.0
Fe975 Fe 0.87351 0.42161 0.16621 0.0
O976 O 0.87083 0.3841 0.13442 0.0
Fe977 Fe 0.9062 0.35141 0.13391 0.0
O978 O 0.91739 0.36241 0.08703 0.0
O979 O 0.86019 0.35827 0.06588 0.0
O980 O 0.84305 0.42325 0.08307 0.0
C981 C 0.84597 0.45354 0.10068 0.0
C982 C 0.84137 0.30741 0.1213 0.0
O983 O 0.85005 0.45407 0.13557 0.0
C984 C 0.89991 0.36129 0.20771 0.0
O985 O 0.79909 0.39895 0.13538 0.0
O986 O 0.83101 0.40725 0.18705 0.0
O987 O 0.87592 0.31236 0.11851 0.0
O988 O 0.82027 0.33451 0.12146 0.0
C989 C 0.94536 0.41937 0.14793 0.0
O990 O 0.89738 0.39567 0.20242 0.0
O991 O 0.89699 0.33859 0.1809 0.0
C992 C 0.80048 0.40221 0.17039 0.0
O993 O 0.91662 0.43822 0.14748 0.0
O994 O 0.943 0.38446 0.14926 0.0
C995 C 0.89474 0.35891 0.06025 0.0
Fe996 Fe 0.8515 0.62621 0.4094 0.0
Fe997 Fe 0.91917 0.66445 0.37696 0.0
O998 O 0.88491 0.62909 0.37479 0.0
Fe999 Fe 0.88401 0.59637 0.33801 0.0
O1000 O 0.83844 0.61015 0.32309 0.0
O1001 O 0.81501 0.60656 0.37829 0.0
O1002 O 0.83424 0.67114 0.3985 0.0
C1003 C 0.85371 0.70039 0.39915 0.0
C1004 C 0.86553 0.55349 0.4002 0.0
O1005 O 0.88872 0.69898 0.39807 0.0
C1006 C 0.95781 0.60091 0.35466 0.0
O1007 O 0.8819 0.64572 0.44654 0.0
O1008 O 0.93625 0.64954 0.42133 0.0
O1009 O 0.86514 0.55848 0.3656 0.0
O1010 O 0.86671 0.58083 0.42235 0.0
C1011 C 0.90255 0.66327 0.30314 0.0
O1012 O 0.95537 0.63583 0.35626 0.0
O1013 O 0.92919 0.58072 0.3511 0.0
C1014 C 0.91679 0.648 0.44958 0.0
O1015 O 0.90436 0.68186 0.33288 0.0
O1016 O 0.9027 0.62831 0.30373 0.0
C1017 C 0.81082 0.608 0.3435 0.0
Fe1018 Fe 0.90479 0.84915 0.87873 0.0
Fe1019 Fe 0.83855 0.88317 0.91685 0.0
O1020 O 0.87045 0.88285 0.88053 0.0
Fe1021 Fe 0.86843 0.91655 0.846 0.0
O1022 O 0.91437 0.93353 0.85814 0.0
O1023 O 0.93962 0.87914 0.8574 0.0
O1024 O 0.92378 0.86437 0.92303 0.0
C1025 C 0.90587 0.86379 0.95248 0.0
C1026 C 0.88663 0.85158 0.80607 0.0
O1027 O 0.87101 0.86561 0.95164 0.0
C1028 C 0.79546 0.90205 0.85366 0.0
O1029 O 0.87674 0.81284 0.89984 0.0
O1030 O 0.82188 0.83691 0.90504 0.0
O1031 O 0.88592 0.8864 0.80901 0.0
O1032 O 0.88753 0.83204 0.83437 0.0
C1033 C 0.85146 0.95691 0.911 0.0
O1034 O 0.80044 0.90073 0.88832 0.0
O1035 O 0.82229 0.90167 0.83208 0.0
C1036 C 0.84237 0.80926 0.90424 0.0
O1037 O 0.85313 0.9294 0.93153 0.0
O1038 O 0.85053 0.95295 0.87627 0.0
C1039 C 0.94259 0.91394 0.85598 0.0
Fe1040 Fe 0.89041 0.09082 0.66053 0.0
Fe1041 Fe 0.84841 0.12612 0.59582 0.0
O1042 O 0.88609 0.12663 0.62804 0.0
Fe1043 Fe 0.91975 0.16297 0.62803 0.0
O1044 O 0.91009 0.17625 0.67556 0.0
O1045 O 0.91198 0.12 0.6967 0.0
O1046 O 0.84595 0.10073 0.68028 0.0
C1047 C 0.81585 0.10041 0.66198 0.0
C1048 C 0.96295 0.10021 0.64426 0.0
O1049 O 0.81523 0.10602 0.62762 0.0
C1050 C 0.90906 0.15154 0.55366 0.0
O1051 O 0.86915 0.05486 0.63095 0.0
O1052 O 0.85972 0.08072 0.57756 0.0
O1053 O 0.95794 0.13453 0.64313 0.0
O1054 O 0.93547 0.07801 0.64332 0.0
C1055 C 0.85376 0.20037 0.61018 0.0
O1056 O 0.87489 0.14612 0.55829 0.0
O1057 O 0.93174 0.15234 0.58068 0.0
C1058 C 0.86094 0.05236 0.59704 0.0
O1059 O 0.83372 0.17148 0.61116 0.0
O1060 O 0.88841 0.19853 0.61264 0.0
C1061 C 0.91417 0.15446 0.70201 0.0
Fe1062 Fe 0.62886 0.09143 0.35191 0.0
Fe1063 Fe 0.65659 0.12344 0.42673 0.0
O1064 O 0.62637 0.12545 0.38767 0.0
Fe1065 Fe 0.59398 0.16151 0.38424 0.0
O1066 O 0.61273 0.17706 0.34065 0.0
O1067 O 0.61608 0.12205 0.31489 0.0
O1068 O 0.67714 0.10329 0.34354 0.0
C1069 C 0.70247 0.10175 0.36793 0.0
C1070 C 0.55422 0.09907 0.35381 0.0
O1071 O 0.6951 0.10351 0.4018 0.0
C1072 C 0.58974 0.14856 0.45827 0.0
O1073 O 0.64205 0.05412 0.3822 0.0
O1074 O 0.63918 0.0778 0.43828 0.0
O1075 O 0.55868 0.13336 0.35961 0.0
O1076 O 0.58077 0.07728 0.3574 0.0
C1077 C 0.65733 0.19769 0.41645 0.0
O1078 O 0.62406 0.14305 0.45921 0.0
O1079 O 0.57236 0.1494 0.42762 0.0
C1080 C 0.64068 0.05004 0.41666 0.0
O1081 O 0.67626 0.16891 0.41801 0.0
O1082 O 0.62335 0.19611 0.40818 0.0
C1083 C 0.61461 0.15659 0.31203 0.0
Fe1084 Fe 0.59217 0.84131 0.14218 0.0
Fe1085 Fe 0.66251 0.87668 0.11162 0.0
O1086 O 0.62392 0.87918 0.14063 0.0
Fe1087 Fe 0.61666 0.91939 0.16786 0.0
O1088 O 0.57218 0.92589 0.1456 0.0
O1089 O 0.5518 0.86935 0.15231 0.0
O1090 O 0.58089 0.845 0.09334 0.0
C1091 C 0.60474 0.8423 0.06848 0.0
C1092 C 0.59676 0.86079 0.21521 0.0
O1093 O 0.63862 0.84854 0.07563 0.0
C1094 C 0.6913 0.91513 0.17558 0.0
O1095 O 0.62626 0.80589 0.1319 0.0
O1096 O 0.67891 0.83624 0.13486 0.0
O1097 O 0.59581 0.89434 0.20618 0.0
O1098 O 0.60166 0.83556 0.19122 0.0
C1099 C 0.64449 0.94809 0.10096 0.0
O1100 O 0.69307 0.90487 0.14214 0.0
O1101 O 0.66089 0.91606 0.19183 0.0
C1102 C 0.66119 0.80597 0.13214 0.0
O1103 O 0.64886 0.91673 0.08626 0.0
O1104 O 0.63635 0.95136 0.13465 0.0
C1105 C 0.54561 0.90324 0.14846 0.0
Fe1106 Fe 0.41885 0.6633 0.13148 0.0
Fe1107 Fe 0.34938 0.63153 0.09162 0.0
O1108 O 0.38173 0.6306 0.12906 0.0
Fe1109 Fe 0.37721 0.59709 0.16388 0.0
O1110 O 0.42309 0.57911 0.15563 0.0
O1111 O 0.45132 0.63302 0.15368 0.0
O1112 O 0.43601 0.64735 0.08742 0.0
C1113 C 0.41749 0.64812 0.05757 0.0
C1114 C 0.40236 0.66138 0.20413 0.0
O1115 O 0.38262 0.64746 0.05779 0.0
C1116 C 0.30427 0.6108 0.15181 0.0
O1117 O 0.39373 0.70024 0.10959 0.0
O1118 O 0.33678 0.67884 0.10314 0.0
O1119 O 0.39568 0.62713 0.20102 0.0
O1120 O 0.40437 0.68125 0.176 0.0
C1121 C 0.35567 0.55708 0.0984 0.0
O1122 O 0.31026 0.6154 0.11804 0.0
O1123 O 0.33078 0.61177 0.17516 0.0
C1124 C 0.35981 0.70556 0.10433 0.0
O1125 O 0.35929 0.58432 0.07745 0.0
O1126 O 0.35826 0.56113 0.133 0.0
C1127 C 0.45236 0.5987 0.15825 0.0
Fe1128 Fe 0.13056 0.59919 0.83992 0.0
Fe1129 Fe 0.16585 0.63262 0.91107 0.0
O1130 O 0.13108 0.63309 0.87586 0.0
Fe1131 Fe 0.09673 0.66737 0.8765 0.0
O1132 O 0.10964 0.68414 0.83122 0.0
O1133 O 0.11207 0.62929 0.80495 0.0
O1134 O 0.17632 0.61305 0.82575 0.0
C1135 C 0.20461 0.61204 0.84653 0.0
C1136 C 0.05688 0.6036 0.85039 0.0
O1137 O 0.20196 0.61492 0.88119 0.0
C1138 C 0.10192 0.6535 0.95034 0.0
O1139 O 0.14911 0.56245 0.86799 0.0
O1140 O 0.1525 0.58609 0.92426 0.0
O1141 O 0.06046 0.63798 0.85551 0.0
O1142 O 0.08451 0.58301 0.85142 0.0
C1143 C 0.16078 0.70674 0.90287 0.0
O1144 O 0.13636 0.65004 0.94739 0.0
O1145 O 0.0811 0.6535 0.92182 0.0
C1146 C 0.15179 0.55842 0.90241 0.0
O1147 O 0.1816 0.67926 0.90087 0.0
O1148 O 0.12645 0.7031 0.89756 0.0
C1149 C 0.10923 0.66375 0.80239 0.0
Fe1150 Fe 0.16818 0.3672 0.60205 0.0
Fe1151 Fe 0.09687 0.33672 0.63557 0.0
O1152 O 0.13303 0.37064 0.63549 0.0
Fe1153 Fe 0.13447 0.40785 0.66841 0.0
O1154 O 0.18074 0.39653 0.68502 0.0
O1155 O 0.20432 0.3891 0.63038 0.0
O1156 O 0.18226 0.32268 0.61919 0.0
C1157 C 0.16065 0.29479 0.61994 0.0
C1158 C 0.15627 0.44144 0.60157 0.0
O1159 O 0.12611 0.2988 0.62135 0.0
C1160 C 0.05964 0.40273 0.65423 0.0
O1161 O 0.13948 0.3446 0.56648 0.0
O1162 O 0.0835 0.34549 0.58788 0.0
O1163 O 0.15321 0.44109 0.63629 0.0
O1164 O 0.15646 0.41157 0.58273 0.0
C1165 C 0.108 0.34753 0.71025 0.0
O1166 O 0.06127 0.36822 0.65005 0.0
O1167 O 0.08858 0.42287 0.65516 0.0
C1168 C 0.1052 0.34116 0.56144 0.0
O1169 O 0.10676 0.32497 0.68315 0.0
O1170 O 0.11532 0.38133 0.70605 0.0
C1171 C 0.20831 0.3964 0.66425 0.0
Fe1172 Fe 0.66709 0.62102 0.59416 0.0
Fe1173 Fe 0.63178 0.58984 0.66274 0.0
O1174 O 0.63345 0.62347 0.62842 0.0
Fe1175 Fe 0.60147 0.65938 0.62866 0.0
O1176 O 0.58354 0.64554 0.58373 0.0
O1177 O 0.63754 0.64102 0.55765 0.0
O1178 O 0.64955 0.57645 0.57818 0.0
C1179 C 0.64865 0.54857 0.59812 0.0
C1180 C 0.66867 0.69497 0.60814 0.0
O1181 O 0.64962 0.55227 0.63304 0.0
C1182 C 0.61747 0.65622 0.70191 0.0
O1183 O 0.70274 0.60084 0.62496 0.0
O1184 O 0.67724 0.60313 0.67937 0.0
O1185 O 0.63361 0.69406 0.60927 0.0
O1186 O 0.68632 0.66547 0.60807 0.0
C1187 C 0.55888 0.59593 0.64684 0.0
O1188 O 0.61403 0.62132 0.69897 0.0
O1189 O 0.61782 0.67542 0.67349 0.0
C1190 C 0.70563 0.60169 0.66007 0.0
O1191 O 0.58615 0.57507 0.6475 0.0
O1192 O 0.5636 0.63083 0.64801 0.0
C1193 C 0.60268 0.64368 0.55526 0.0
Fe1194 Fe 0.40898 0.34546 0.38962 0.0
Fe1195 Fe 0.37569 0.40999 0.3487 0.0
O1196 O 0.37399 0.37842 0.38511 0.0
Fe1197 Fe 0.33761 0.3798 0.41693 0.0
O1198 O 0.32382 0.33264 0.40566 0.0
O1199 O 0.37926 0.30986 0.40993 0.0
O1200 O 0.39762 0.32531 0.34456 0.0
C1201 C 0.4 0.34327 0.3152 0.0
C1202 C 0.40078 0.36533 0.46171 0.0
O1203 O 0.39757 0.37808 0.31607 0.0
C1204 C 0.34961 0.45333 0.40835 0.0
O1205 O 0.44569 0.37468 0.37057 0.0
O1206 O 0.41994 0.42857 0.36521 0.0
O1207 O 0.36609 0.36542 0.45659 0.0
O1208 O 0.42227 0.36399 0.43478 0.0
C1209 C 0.30193 0.39494 0.34814 0.0
O1210 O 0.35416 0.44777 0.37425 0.0
O1211 O 0.34872 0.42706 0.43049 0.0
C1212 C 0.44834 0.40937 0.36831 0.0
O1213 O 0.33144 0.39348 0.3303 0.0
O1214 O 0.30277 0.39466 0.3831 0.0
C1215 C 0.34458 0.30581 0.41124 0.0
C1216 C 0.10339 0.23484 0.27537 0.0
C1217 C 0.08181 0.21801 0.30236 0.0
C1218 C 0.11609 0.21463 0.2451 0.0
C1219 C 0.10801 0.17662 0.24051 0.0
H1220 H 0.10917 0.26427 0.27656 0.0
H1221 H 0.13104 0.22937 0.22422 0.0
S1222 S 0.05841 0.11778 0.30665 0.0
N1223 N 0.05727 0.15979 0.32512 0.0
N1224 N 0.08118 0.12188 0.26792 0.0
C1225 C 0.08923 0.15868 0.2688 0.0
C1226 C 0.07606 0.17936 0.29973 0.0
C1227 C 0.00885 0.83139 0.51744 0.0
C1228 C 0.02528 0.83591 0.55282 0.0
C1229 C 0.02819 0.84049 0.48571 0.0
C1230 C 0.06477 0.85455 0.48801 0.0
H1231 H 0.98188 0.81815 0.51388 0.0
H1232 H 0.01495 0.83441 0.45913 0.0
S1233 S 0.11636 0.88093 0.57427 0.0
N1234 N 0.07749 0.862 0.58854 0.0
N1235 N 0.11379 0.87924 0.52875 0.0
C1236 C 0.07997 0.8629 0.52328 0.0
C1237 C 0.06021 0.85367 0.55569 0.0
C1238 C 0.46453 0.8475 0.80235 0.0
C1239 C 0.4645 0.80962 0.81045 0.0
C1240 C 0.44248 0.86101 0.77377 0.0
C1241 C 0.41983 0.83713 0.75173 0.0
H1242 H 0.48283 0.86687 0.81725 0.0
H1243 H 0.44512 0.89001 0.7675 0.0
S1244 S 0.40551 0.73652 0.76457 0.0
N1245 N 0.43662 0.74912 0.79661 0.0
N1246 N 0.39532 0.77447 0.74254 0.0
C1247 C 0.41743 0.79965 0.76115 0.0
C1248 C 0.43971 0.7859 0.79059 0.0
C1249 C 0.43764 0.19605 0.04965 0.0
C1250 C 0.4745 0.18636 0.05671 0.0
C1251 C 0.41794 0.18219 0.01867 0.0
C1252 C 0.43486 0.15929 0.99268 0.0
H1253 H 0.42409 0.21551 0.06765 0.0
H1254 H 0.38997 0.19127 0.01403 0.0
S1255 S 0.53047 0.12496 0.99854 0.0
N1256 N 0.52677 0.15144 0.03594 0.0
N1257 N 0.49019 0.12628 0.97642 0.0
C1258 C 0.47159 0.14895 0.99949 0.0
C1259 C 0.49143 0.16253 0.03164 0.0
C1260 C 0.0965 0.77466 0.22881 0.0
C1261 C 0.06734 0.78979 0.20847 0.0
C1262 C 0.11092 0.79287 0.26082 0.0
C1263 C 0.09664 0.82671 0.27307 0.0
H1264 H 0.10808 0.74871 0.21998 0.0
H1265 H 0.13308 0.78033 0.27625 0.0
S1266 S 0.01642 0.87443 0.23269 0.0
N1267 N 0.02181 0.838 0.2054 0.0
N1268 N 0.04986 0.87284 0.26414 0.0
C1269 C 0.06713 0.84164 0.25318 0.0
C1270 C 0.05209 0.82289 0.2213 0.0
C1271 C 0.4046 0.80085 0.47348 0.0
C1272 C 0.44256 0.79636 0.46806 0.0
C1273 C 0.39174 0.81866 0.50524 0.0
C1274 C 0.41634 0.83205 0.53324 0.0
H1275 H 0.38452 0.78955 0.45355 0.0
H1276 H 0.36219 0.82033 0.50853 0.0
S1277 S 0.51877 0.82712 0.53162 0.0
N1278 N 0.50467 0.80728 0.49231 0.0
N1279 N 0.48104 0.84048 0.55242 0.0
C1280 C 0.45462 0.82887 0.52737 0.0
C1281 C 0.46758 0.81109 0.49471 0.0
C1282 C 0.42455 0.2472 0.74821 0.0
C1283 C 0.42216 0.22978 0.71316 0.0
C1284 C 0.414 0.22853 0.77984 0.0
C1285 C 0.40068 0.19167 0.77769 0.0
H1286 H 0.43729 0.27439 0.75174 0.0
H1287 H 0.41862 0.24245 0.80635 0.0
S1288 S 0.3787 0.13806 0.69161 0.0
N1289 N 0.39801 0.17672 0.67738 0.0
N1290 N 0.3783 0.14156 0.73707 0.0
C1291 C 0.39409 0.17561 0.7425 0.0
C1292 C 0.40468 0.19473 0.71018 0.0
C1293 C 0.01657 0.16703 0.99172 0.0
C1294 C 0.03338 0.18522 0.96241 0.0
C1295 C 0.03749 0.15434 0.0215 0.0
C1296 C 0.07619 0.15901 0.02318 0.0
H1297 H 0.98685 0.16378 0.99249 0.0
H1298 H 0.02294 0.14182 0.04403 0.0
S1299 S 0.13438 0.19991 0.95097 0.0
N1300 N 0.09168 0.20356 0.93495 0.0
N1301 N 0.13091 0.17965 0.99111 0.0
C1302 C 0.0937 0.17475 0.99289 0.0
C1303 C 0.07233 0.18793 0.96252 0.0
C1304 C 0.29043 0.06013 0.18508 0.0
C1305 C 0.29843 0.07564 0.22058 0.0
C1306 C 0.26135 0.07288 0.16299 0.0
C1307 C 0.23919 0.10152 0.17566 0.0
H1308 H 0.30554 0.03672 0.17484 0.0
H1309 H 0.25466 0.0586 0.13704 0.0
S1310 S 0.25274 0.15677 0.26227 0.0
N1311 N 0.28493 0.12529 0.26432 0.0
N1312 N 0.22993 0.14857 0.22296 0.0
C1313 C 0.24855 0.11921 0.20952 0.0
C1314 C 0.27824 0.10646 0.23196 0.0
C1315 C 0.1611 0.0267 0.48809 0.0
C1316 C 0.1914 0.04597 0.47377 0.0
C1317 C 0.14434 0.99688 0.46821 0.0
C1318 C 0.15739 0.98564 0.43345 0.0
H1319 H 0.1506 0.0345 0.51485 0.0
H1320 H 0.12158 0.98201 0.48041 0.0
S1321 S 0.23913 0.02425 0.38661 0.0
N1322 N 0.23618 0.04936 0.4249 0.0
N1323 N 0.2037 0.99492 0.38678 0.0
C1324 C 0.18769 0.00485 0.41901 0.0
C1325 C 0.20511 0.03448 0.4395 0.0
C1326 C 0.24052 0.92462 0.75085 0.0
C1327 C 0.20569 0.92149 0.73303 0.0
C1328 C 0.27247 0.91295 0.73327 0.0
C1329 C 0.27093 0.89757 0.69715 0.0
H1330 H 0.24367 0.93873 0.77744 0.0
H1331 H 0.29876 0.91806 0.74743 0.0
S1332 S 0.18547 0.8743 0.64279 0.0
N1333 N 0.17076 0.89561 0.68026 0.0
N1334 N 0.23083 0.87333 0.64734 0.0
C1335 C 0.23587 0.89063 0.68075 0.0
C1336 C 0.20328 0.90261 0.69867 0.0
C1337 C 0.33307 0.9844 0.97331 0.0
C1338 C 0.32396 0.95469 0.94912 0.0
C1339 C 0.35031 0.01649 0.96037 0.0
C1340 C 0.35893 0.01998 0.92272 0.0
H1341 H 0.32406 0.98417 0.00163 0.0
H1342 H 0.35443 0.0396 0.97959 0.0
S1343 S 0.3485 0.94624 0.85039 0.0
N1344 N 0.33059 0.92811 0.88754 0.0
N1345 N 0.36294 0.98818 0.86316 0.0
C1346 C 0.3536 0.98883 0.89931 0.0
C1347 C 0.33605 0.95627 0.91252 0.0
C1348 C 0.29122 0.94783 0.35708 0.0
C1349 C 0.29893 0.94702 0.3191 0.0
C1350 C 0.26102 0.92833 0.37098 0.0
C1351 C 0.23674 0.90776 0.34737 0.0
H1352 H 0.30756 0.96516 0.37618 0.0
H1353 H 0.2552 0.93182 0.40003 0.0
S1354 S 0.24945 0.88967 0.24721 0.0
N1355 N 0.28357 0.91868 0.25922 0.0
N1356 N 0.22615 0.8824 0.28518 0.0
C1357 C 0.24614 0.90374 0.30994 0.0
C1358 C 0.27738 0.92326 0.29585 0.0
C1359 C 0.32389 0.00477 0.53055 0.0
C1360 C 0.33104 0.04001 0.54651 0.0
C1361 C 0.33244 0.97273 0.54957 0.0
C1362 C 0.34859 0.97462 0.5853 0.0
H1363 H 0.30917 0.00174 0.50429 0.0
H1364 H 0.32459 0.94633 0.53682 0.0
S1365 S 0.38117 0.0599 0.63516 0.0
N1366 N 0.36082 0.07484 0.59731 0.0
N1367 N 0.37742 0.01448 0.63286 0.0
C1368 C 0.35906 0.00958 0.6 0.0
C1369 C 0.35022 0.04228 0.58065 0.0
C1370 C 0.23163 0.09325 0.78187 0.0
C1371 C 0.21018 0.06525 0.7975 0.0
C1372 C 0.26256 0.1086 0.80101 0.0
C1373 C 0.27308 0.09618 0.83621 0.0
H1374 H 0.22456 0.10316 0.7547 0.0
H1375 H 0.27882 0.12981 0.78786 0.0
S1376 S 0.22845 0.02001 0.88679 0.0
N1377 N 0.20328 0.02339 0.84857 0.0
N1378 N 0.26075 0.05265 0.88476 0.0
C1379 C 0.25183 0.06802 0.85196 0.0
C1380 C 0.22066 0.05227 0.83241 0.0
C1381 C 0.16814 0.95795 0.06158 0.0
C1382 C 0.19187 0.96417 0.03192 0.0
C1383 C 0.1542 0.98765 0.08241 0.0
C1384 C 0.16395 0.02427 0.07424 0.0
H1385 H 0.16008 0.93003 0.06846 0.0
H1386 H 0.13542 0.98198 0.10455 0.0
S1387 S 0.23135 0.05403 0.004 0.0
N1388 N 0.22787 0.00881 0.99832 0.0
N1389 N 0.20293 0.06443 0.0375 0.0
C1390 C 0.18915 0.03042 0.04564 0.0
C1391 C 0.20277 0.00041 0.02441 0.0
C1392 C 0.19095 0.30248 0.09355 0.0
C1393 C 0.22436 0.29911 0.07464 0.0
C1394 C 0.1711 0.27101 0.10503 0.0
C1395 C 0.18384 0.23528 0.09745 0.0
H1396 H 0.18015 0.32956 0.09945 0.0
H1397 H 0.14575 0.27467 0.11986 0.0
S1398 S 0.26663 0.2122 0.04288 0.0
N1399 N 0.26733 0.25761 0.04587 0.0
N1400 N 0.23017 0.19886 0.06599 0.0
C1401 C 0.21671 0.23187 0.07739 0.0
C1402 C 0.23693 0.26368 0.06638 0.0
C1403 C 0.68429 0.20878 0.92729 0.0
C1404 C 0.7151 0.21178 0.95164 0.0
C1405 C 0.66599 0.2404 0.91531 0.0
C1406 C 0.67771 0.27586 0.92778 0.0
H1407 H 0.67397 0.18184 0.91791 0.0
H1408 H 0.64257 0.23708 0.89638 0.0
S1409 S 0.75338 0.29792 0.99625 0.0
N1410 N 0.75444 0.25281 0.99003 0.0
N1411 N 0.71994 0.3116 0.96862 0.0
C1412 C 0.70804 0.27895 0.95278 0.0
C1413 C 0.7268 0.24709 0.96439 0.0
C1414 C 0.0345 0.4399 0.20021 0.0
C1415 C 0.04572 0.47467 0.1876 0.0
C1416 C 0.0031 0.42159 0.1856 0.0
C1417 C 0.98062 0.438 0.15886 0.0
H1418 H 0.05003 0.42667 0.22187 0.0
H1419 H 0.99569 0.39488 0.19644 0.0
S1420 S 0.99634 0.52992 0.1184 0.0
N1421 N 0.03145 0.52556 0.14772 0.0
N1422 N 0.97097 0.49165 0.12103 0.0
C1423 C 0.99081 0.4733 0.14667 0.0
C1424 C 0.02352 0.49169 0.1611 0.0
C1425 C 0.7856 0.76764 0.43956 0.0
C1426 C 0.80593 0.80105 0.44049 0.0
C1427 C 0.80021 0.73556 0.42375 0.0
C1428 C 0.83582 0.73578 0.40861 0.0
H1429 H 0.75971 0.76552 0.45387 0.0
H1430 H 0.78447 0.70996 0.42578 0.0
S1431 S 0.89621 0.81852 0.39712 0.0
N1432 N 0.86031 0.83401 0.41957 0.0
N1433 N 0.88806 0.77389 0.39015 0.0
C1434 C 0.85468 0.76991 0.40621 0.0
C1435 C 0.83967 0.8025 0.42213 0.0
C1436 C 0.95429 0.07549 0.16496 0.0
C1437 C 0.95631 0.04612 0.18962 0.0
C1438 C 0.98671 0.09348 0.15297 0.0
C1439 C 0.02184 0.08244 0.16535 0.0
H1440 H 0.9277 0.0841 0.15444 0.0
H1441 H 0.98435 0.11549 0.13339 0.0
S1442 S 0.04065 0.01155 0.2354 0.0
N1443 N 0.99541 0.00985 0.2292 0.0
N1444 N 0.0559 0.04344 0.20732 0.0
C1445 C 0.02369 0.05427 0.19143 0.0
C1446 C 0.99101 0.03616 0.20339 0.0
C1447 C 0.32433 0.71225 0.56908 0.0
C1448 C 0.29173 0.69792 0.58409 0.0
C1449 C 0.34379 0.74185 0.58608 0.0
C1450 C 0.33044 0.75935 0.61787 0.0
H1451 H 0.33432 0.70128 0.5432 0.0
H1452 H 0.36819 0.75256 0.57281 0.0
S1453 S 0.24595 0.73301 0.66775 0.0
N1454 N 0.24705 0.703 0.63279 0.0
N1455 N 0.28274 0.76034 0.66401 0.0
C1456 C 0.29785 0.7454 0.63329 0.0
C1457 C 0.2785 0.71446 0.61639 0.0
C1458 C 0.05682 0.58592 0.32702 0.0
C1459 C 0.05958 0.54722 0.32823 0.0
C1460 C 0.02465 0.60364 0.33793 0.0
C1461 C 0.99416 0.5833 0.3506 0.0
H1462 H 0.0784 0.60247 0.31482 0.0
H1463 H 0.02285 0.6331 0.33408 0.0
S1464 S 0.99142 0.48284 0.36846 0.0
N1465 N 0.03189 0.49015 0.34951 0.0
N1466 N 0.97171 0.52341 0.37073 0.0
C1467 C 0.99827 0.54519 0.35587 0.0
C1468 C 0.03092 0.52715 0.34454 0.0
C1469 C 0.49874 0.47441 0.809 0.0
C1470 C 0.46347 0.4604 0.8165 0.0
C1471 C 0.53005 0.459 0.82494 0.0
C1472 C 0.52704 0.42869 0.8485 0.0
H1473 H 0.50231 0.49547 0.78852 0.0
H1474 H 0.55683 0.46948 0.8168 0.0
S1475 S 0.44044 0.38736 0.8823 0.0
N1476 N 0.42667 0.41855 0.85277 0.0
N1477 N 0.48599 0.38921 0.88285 0.0
C1478 C 0.4918 0.41646 0.85844 0.0
C1479 C 0.45983 0.43245 0.84238 0.0
C1480 C 0.9378 0.83116 0.7185 0.0
C1481 C 0.92662 0.79444 0.71012 0.0
C1482 C 0.92281 0.85067 0.7483 0.0
C1483 C 0.89625 0.83404 0.77072 0.0
H1484 H 0.95926 0.84452 0.70289 0.0
H1485 H 0.9336 0.87816 0.75504 0.0
S1486 S 0.8529 0.74124 0.75742 0.0
N1487 N 0.88358 0.74407 0.72456 0.0
N1488 N 0.85624 0.78095 0.78048 0.0
C1489 C 0.88314 0.79843 0.76141 0.0
C1490 C 0.89809 0.77857 0.73113 0.0
C1491 C 0.9473 0.222 0.48921 0.0
C1492 C 0.93886 0.20693 0.45377 0.0
C1493 C 0.93865 0.203 0.52107 0.0
C1494 C 0.9204 0.1685 0.519 0.0
H1495 H 0.96211 0.24819 0.4926 0.0
H1496 H 0.94585 0.21578 0.54766 0.0
S1497 S 0.88971 0.11775 0.4335 0.0
N1498 N 0.91039 0.15554 0.4186 0.0
N1499 N 0.89211 0.12064 0.47909 0.0
C1500 C 0.9104 0.15354 0.48399 0.0
C1501 C 0.92021 0.1725 0.45124 0.0
C1502 C 0.57158 0.2172 0.23963 0.0
C1503 C 0.56524 0.19202 0.20996 0.0
C1504 C 0.59071 0.20682 0.27175 0.0
C1505 C 0.6044 0.17095 0.27505 0.0
H1506 H 0.55933 0.24419 0.23912 0.0
H1507 H 0.59248 0.22619 0.29495 0.0
S1508 S 0.60109 0.09759 0.20136 0.0
N1509 N 0.57793 0.13185 0.18355 0.0
N1510 N 0.61528 0.11241 0.24277 0.0
C1511 C 0.6014 0.14695 0.24372 0.0
C1512 C 0.58127 0.15738 0.21152 0.0
C1513 C 0.61028 0.78115 0.98289 0.0
C1514 C 0.57629 0.78676 0.96521 0.0
C1515 C 0.61964 0.8003 0.01583 0.0
C1516 C 0.59461 0.82427 0.03285 0.0
H1517 H 0.62986 0.76239 0.97097 0.0
H1518 H 0.64637 0.79569 0.02843 0.0
S1519 S 0.50058 0.8452 0.99887 0.0
N1520 N 0.51675 0.81644 0.96749 0.0
N1521 N 0.53393 0.85117 0.0303 0.0
C1522 C 0.5601 0.8291 0.0159 0.0
C1523 C 0.55098 0.8105 0.98189 0.0
C1524 C 0.93639 0.21578 0.78557 0.0
C1525 C 0.96396 0.19604 0.80396 0.0
C1526 C 0.92003 0.20217 0.75256 0.0
C1527 C 0.93048 0.16819 0.73734 0.0
H1528 H 0.92794 0.24229 0.79645 0.0
H1529 H 0.89908 0.21821 0.73897 0.0
S1530 S 0.00281 0.10706 0.77451 0.0
N1531 N 0.00249 0.14236 0.80406 0.0
N1532 N 0.97083 0.11544 0.74287 0.0
C1533 C 0.95814 0.14823 0.75567 0.0
C1534 C 0.97532 0.16263 0.78871 0.0
C1535 C 0.53395 0.2109 0.52042 0.0
C1536 C 0.55378 0.2099 0.55415 0.0
C1537 C 0.54343 0.18835 0.49011 0.0
C1538 C 0.57327 0.16414 0.49249 0.0
H1539 H 0.51199 0.23042 0.51697 0.0
H1540 H 0.52887 0.19176 0.46405 0.0
S1541 S 0.63008 0.14772 0.577 0.0
N1542 N 0.60153 0.1803 0.58971 0.0
N1543 N 0.61955 0.13771 0.5333 0.0
C1544 C 0.59141 0.16114 0.52719 0.0
C1545 C 0.58171 0.18415 0.55785 0.0
C1546 C 0.58414 0.83047 0.3139 0.0
C1547 C 0.54535 0.82716 0.31611 0.0
C1548 C 0.60102 0.84206 0.28136 0.0
C1549 C 0.57961 0.85064 0.25014 0.0
H1550 H 0.60166 0.82224 0.3367 0.0
H1551 H 0.63086 0.84331 0.28028 0.0
S1552 S 0.47748 0.84931 0.24212 0.0
N1553 N 0.48633 0.83639 0.28466 0.0
N1554 N 0.51813 0.85696 0.22377 0.0
C1555 C 0.54105 0.84922 0.25255 0.0
C1556 C 0.52387 0.83791 0.28554 0.0
C1557 C 0.98317 0.83419 0.01556 0.0
C1558 C 0.96478 0.8208 0.04654 0.0
C1559 C 0.96393 0.84971 0.98635 0.0
C1560 C 0.92533 0.85251 0.9866 0.0
H1561 H 0.01283 0.83211 0.01339 0.0
H1562 H 0.97959 0.85873 0.96292 0.0
S1563 S 0.86427 0.82479 0.0629 0.0
N1564 N 0.90607 0.81357 0.07709 0.0
N1565 N 0.86943 0.84285 0.02184 0.0
C1566 C 0.90654 0.84049 0.01804 0.0
C1567 C 0.92633 0.82442 0.04797 0.0
C1568 C 0.72833 0.96918 0.81429 0.0
C1569 C 0.69701 0.94678 0.80628 0.0
C1570 C 0.76001 0.95428 0.83018 0.0
C1571 C 0.76087 0.9169 0.83959 0.0
H1572 H 0.72941 0.99761 0.80567 0.0
H1573 H 0.78436 0.97189 0.83428 0.0
S1574 S 0.68534 0.8475 0.82667 0.0
N1575 N 0.66818 0.88586 0.81043 0.0
N1576 N 0.72761 0.85832 0.84177 0.0
C1577 C 0.72918 0.89475 0.83382 0.0
C1578 C 0.69716 0.90967 0.81688 0.0
C1579 C 0.79832 0.96763 0.59648 0.0
C1580 C 0.80007 0.95456 0.56002 0.0
C1581 C 0.81955 0.99847 0.60837 0.0
C1582 C 0.84204 0.01806 0.58379 0.0
H1583 H 0.78091 0.95367 0.61598 0.0
H1584 H 0.81748 0.00759 0.63687 0.0
S1585 S 0.85268 0.99666 0.48433 0.0
N1586 N 0.82417 0.96411 0.49873 0.0
N1587 N 0.86309 0.02312 0.52094 0.0
C1588 C 0.843 0.00583 0.54693 0.0
C1589 C 0.82211 0.97386 0.53504 0.0
C1590 C 0.79237 0.09371 0.31671 0.0
C1591 C 0.80848 0.06274 0.33284 0.0
C1592 C 0.75821 0.1067 0.32845 0.0
C1593 C 0.73965 0.08983 0.35743 0.0
H1594 H 0.80495 0.10646 0.29317 0.0
H1595 H 0.74594 0.12959 0.31433 0.0
S1596 S 0.77139 0.00944 0.41027 0.0
N1597 N 0.80393 0.01634 0.37978 0.0
N1598 N 0.74076 0.04176 0.40322 0.0
C1599 C 0.75649 0.06011 0.37508 0.0
C1600 C 0.79067 0.04629 0.36242 0.0
C1601 C 0.71979 0.00747 0.0626 0.0
C1602 C 0.70685 0.04328 0.06867 0.0
C1603 C 0.69761 0.97649 0.06961 0.0
C1604 C 0.66201 0.98027 0.08381 0.0
H1605 H 0.7476 0.00335 0.05311 0.0
H1606 H 0.70949 0.94946 0.06641 0.0
S1607 S 0.61427 0.06803 0.10155 0.0
N1608 N 0.65517 0.08094 0.0864 0.0
N1609 N 0.61397 0.02244 0.1015 0.0
C1610 C 0.64812 0.0159 0.08841 0.0
C1611 C 0.6704 0.04752 0.08026 0.0
C1612 C 0.71496 0.07569 0.67535 0.0
C1613 C 0.71695 0.04262 0.69472 0.0
C1614 C 0.74718 0.09551 0.66642 0.0
C1615 C 0.7823 0.08368 0.67782 0.0
H1616 H 0.68847 0.08552 0.66588 0.0
H1617 H 0.74469 0.11979 0.64974 0.0
S1618 S 0.80179 0.00021 0.73177 0.0
N1619 N 0.75643 0.99964 0.72634 0.0
N1620 N 0.81678 0.03762 0.71108 0.0
C1621 C 0.78437 0.05161 0.69885 0.0
C1622 C 0.75173 0.03086 0.70685 0.0
C1623 C 0.69648 0.98327 0.47137 0.0
C1624 C 0.69277 0.95045 0.45011 0.0
C1625 C 0.67668 0.01457 0.46232 0.0
C1626 C 0.65301 0.01443 0.4311 0.0
H1627 H 0.71537 0.98495 0.49497 0.0
H1628 H 0.68184 0.03966 0.47858 0.0
S1629 S 0.63112 0.93396 0.36857 0.0
N1630 N 0.66134 0.91821 0.39882 0.0
N1631 N 0.62494 0.97765 0.38044 0.0
C1632 C 0.64782 0.98112 0.41055 0.0
C1633 C 0.6675 0.94893 0.42039 0.0
C1634 C 0.78217 0.93972 0.22318 0.0
C1635 C 0.79032 0.97477 0.20892 0.0
C1636 C 0.74946 0.92034 0.21323 0.0
C1637 C 0.72278 0.93672 0.19096 0.0
H1638 H 0.80111 0.92714 0.24227 0.0
H1639 H 0.74517 0.89247 0.22271 0.0
S1640 S 0.72469 0.03266 0.15832 0.0
N1641 N 0.76573 0.02769 0.17782 0.0
N1642 N 0.70265 0.99266 0.162 0.0
C1643 C 0.7286 0.97329 0.18024 0.0
C1644 C 0.76259 0.99224 0.18888 0.0
C1645 C 0.85171 0.04801 0.96314 0.0
C1646 C 0.81373 0.05538 0.96493 0.0
C1647 C 0.86416 0.01658 0.94442 0.0
C1648 C 0.83894 0.99164 0.92716 0.0
H1649 H 0.87184 0.06588 0.97756 0.0
H1650 H 0.89344 0.01116 0.94446 0.0
S1651 S 0.73701 0.99791 0.92375 0.0
N1652 N 0.75129 0.03531 0.94717 0.0
N1653 N 0.77476 0.97595 0.91262 0.0
C1654 C 0.80114 0.99916 0.92771 0.0
C1655 C 0.78847 0.03126 0.94636 0.0
C1656 C 0.80418 0.74123 0.97154 0.0
C1657 C 0.79749 0.70952 0.94929 0.0
C1658 C 0.81892 0.77348 0.95655 0.0
C1659 C 0.82827 0.77459 0.91915 0.0
H1660 H 0.79572 0.74188 1.00002 0.0
H1661 H 0.82227 0.79795 0.97411 0.0
S1662 S 0.8211 0.69737 0.8508 0.0
N1663 N 0.8043 0.68015 0.88897 0.0
N1664 N 0.83368 0.74051 0.86124 0.0
C1665 C 0.82444 0.74234 0.89735 0.0
C1666 C 0.80862 0.70977 0.91237 0.0
C1667 C 0.30724 0.79364 0.09048 0.0
C1668 C 0.32613 0.80998 0.0612 0.0
C1669 C 0.31823 0.75977 0.10466 0.0
C1670 C 0.34906 0.74187 0.0907 0.0
H1671 H 0.28244 0.80592 0.10094 0.0
H1672 H 0.3023 0.74733 0.12628 0.0
S1673 S 0.40918 0.77454 0.01578 0.0
N1674 N 0.3775 0.8064 0.01954 0.0
N1675 N 0.39943 0.7438 0.04729 0.0
C1676 C 0.36923 0.75892 0.06269 0.0
C1677 C 0.35743 0.79275 0.04763 0.0
C1678 C 0.97644 0.54064 0.82278 0.0
C1679 C 0.95881 0.56061 0.79488 0.0
C1680 C 0.00812 0.5548 0.84114 0.0
C1681 C 0.02249 0.58965 0.8326 0.0
H1682 H 0.96591 0.51363 0.83009 0.0
H1683 H 0.02131 0.53854 0.86217 0.0
S1684 S 0.9866 0.652 0.76078 0.0
N1685 N 0.95857 0.6155 0.75814 0.0
N1686 N 0.01689 0.64371 0.79407 0.0
C1687 C 0.00486 0.60992 0.80474 0.0
C1688 C 0.97338 0.59486 0.78531 0.0
C1689 C 0.15805 0.19997 0.57457 0.0
C1690 C 0.19526 0.19402 0.56731 0.0
C1691 C 0.14751 0.23099 0.59507 0.0
C1692 C 0.17375 0.25797 0.60796 0.0
H1693 H 0.13681 0.18143 0.56289 0.0
H1694 H 0.11823 0.23507 0.59826 0.0
S1695 S 0.27535 0.25222 0.60018 0.0
N1696 N 0.25891 0.21483 0.57816 0.0
N1697 N 0.23903 0.27403 0.61558 0.0
C1698 C 0.21133 0.25079 0.60318 0.0
C1699 C 0.22209 0.21863 0.58304 0.0
C1700 C 0.01108 0.98784 0.82845 0.0
C1701 C 0.04181 0.96784 0.81686 0.0
C1702 C 0.97986 0.97015 0.84205 0.0
C1703 C 0.97774 0.93156 0.84466 0.0
H1704 H 0.01078 0.01764 0.82668 0.0
H1705 H 0.95696 0.98708 0.85008 0.0
S1706 S 0.05147 0.86632 0.81976 0.0
N1707 N 0.06892 0.90737 0.81021 0.0
N1708 N 0.00984 0.87371 0.83565 0.0
C1709 C 0.00854 0.91106 0.83382 0.0
C1710 C 0.04055 0.92926 0.81982 0.0
C1711 C 0.72017 0.27968 0.4397 0.0
C1712 C 0.70045 0.2982 0.46728 0.0
C1713 C 0.70628 0.24682 0.42321 0.0
C1714 C 0.67203 0.23214 0.43346 0.0
H1715 H 0.74676 0.29039 0.43126 0.0
H1716 H 0.72214 0.23308 0.40217 0.0
S1717 S 0.61107 0.26969 0.50559 0.0
N1718 N 0.64672 0.29876 0.50572 0.0
N1719 N 0.61918 0.23808 0.47343 0.0
C1720 C 0.65222 0.2505 0.46113 0.0
C1721 C 0.66693 0.28323 0.47857 0.0
C1722 C 0.99556 0.45027 0.71953 0.0
C1723 C 0.96048 0.43582 0.7088 0.0
C1724 C 0.02711 0.44154 0.69985 0.0
C1725 C 0.02504 0.41735 0.66904 0.0
H1726 H 0.9987 0.46913 0.74307 0.0
H1727 H 0.05355 0.45266 0.70986 0.0
S1728 S 0.93986 0.37198 0.62948 0.0
N1729 N 0.92528 0.39703 0.66473 0.0
N1730 N 0.98507 0.3789 0.62863 0.0
C1731 C 0.99013 0.40269 0.65789 0.0
C1732 C 0.95774 0.41239 0.67748 0.0
C1733 C 0.54414 0.59972 0.21014 0.0
C1734 C 0.54773 0.56308 0.22062 0.0
C1735 C 0.51451 0.61011 0.18771 0.0
C1736 C 0.48647 0.58449 0.17585 0.0
H1737 H 0.56416 0.62062 0.21966 0.0
H1738 H 0.51286 0.63903 0.18117 0.0
S1739 S 0.48427 0.48447 0.19538 0.0
N1740 N 0.52234 0.50048 0.21653 0.0
N1741 N 0.46553 0.52025 0.1754 0.0
C1742 C 0.49043 0.54739 0.18541 0.0
C1743 C 0.52127 0.53666 0.20761 0.0
C1744 C 0.5856 0.67899 0.79851 0.0
C1745 C 0.59408 0.71711 0.80238 0.0
C1746 C 0.59535 0.65866 0.76695 0.0
C1747 C 0.61386 0.67569 0.73799 0.0
H1748 H 0.56987 0.6649 0.81926 0.0
H1749 H 0.5865 0.62997 0.76441 0.0
S1750 S 0.64888 0.77276 0.73725 0.0
N1751 N 0.62687 0.7696 0.77649 0.0
N1752 N 0.64513 0.73141 0.7174 0.0
C1753 C 0.62527 0.71292 0.74282 0.0
C1754 C 0.61544 0.73361 0.77494 0.0
C1755 C 0.57566 0.34131 0.05989 0.0
C1756 C 0.53782 0.33135 0.05963 0.0
C1757 C 0.59292 0.35382 0.02804 0.0
C1758 C 0.57312 0.3571 0.99448 0.0
H1759 H 0.59281 0.33713 0.08421 0.0
H1760 H 0.62247 0.35901 0.02937 0.0
S1761 S 0.47177 0.34209 0.98115 0.0
N1762 N 0.47996 0.33105 0.02445 0.0
N1763 N 0.51211 0.35491 0.96474 0.0
C1764 C 0.53451 0.35074 0.99483 0.0
C1765 C 0.51696 0.33784 0.02734 0.0
C1766 C 0.93215 0.29716 0.28292 0.0
C1767 C 0.9569 0.31994 0.304 0.0
C1768 C 0.91227 0.31108 0.25274 0.0
C1769 C 0.91586 0.34841 0.24304 0.0
H1770 H 0.92955 0.26801 0.28851 0.0
H1771 H 0.89489 0.29219 0.23615 0.0
S1772 S 0.9747 0.4203 0.29111 0.0
N1773 N 0.9821 0.38236 0.3141 0.0
N1774 N 0.94428 0.40832 0.25838 0.0
C1775 C 0.93878 0.3719 0.26526 0.0
C1776 C 0.95943 0.35771 0.29544 0.0
C1777 C 0.93169 0.69886 0.54043 0.0
C1778 C 0.96831 0.69096 0.55048 0.0
C1779 C 0.91461 0.68277 0.50904 0.0
C1780 C 0.934 0.6593 0.48543 0.0
H1781 H 0.91619 0.71845 0.55653 0.0
H1782 H 0.88655 0.69035 0.50228 0.0
S1783 S 0.03086 0.63038 0.49868 0.0
N1784 N 0.02355 0.65804 0.53454 0.0
N1785 N 0.99189 0.62868 0.47409 0.0
C1786 C 0.97079 0.65123 0.49489 0.0
C1787 C 0.98797 0.6671 0.52757 0.0
C1788 C 0.55791 0.32578 0.72555 0.0
C1789 C 0.56913 0.29059 0.71383 0.0
C1790 C 0.57402 0.3438 0.75658 0.0
C1791 C 0.60104 0.32676 0.77821 0.0
H1792 H 0.53584 0.33937 0.71098 0.0
H1793 H 0.56398 0.3707 0.76459 0.0
S1794 S 0.63923 0.23412 0.76048 0.0
N1795 N 0.60878 0.23911 0.72644 0.0
N1796 N 0.63818 0.27237 0.78612 0.0
C1797 C 0.61223 0.29128 0.76728 0.0
C1798 C 0.59631 0.27322 0.73495 0.0
C1799 C 0.96061 0.32375 0.98782 0.0
C1800 C 0.93653 0.31154 0.95904 0.0
C1801 C 0.94712 0.34124 0.01958 0.0
C1802 C 0.90902 0.34732 0.02365 0.0
H1803 H 0.98969 0.31753 0.98695 0.0
H1804 H 0.96659 0.34825 0.04186 0.0
S1805 S 0.83599 0.32785 0.95207 0.0
N1806 N 0.87394 0.31173 0.93394 0.0
N1807 N 0.84851 0.34504 0.99311 0.0
C1808 C 0.88527 0.33832 0.99343 0.0
C1809 C 0.89902 0.32023 0.96131 0.0
C1810 C 0.92479 0.73949 0.23639 0.0
C1811 C 0.92699 0.72042 0.2023 0.0
C1812 C 0.91478 0.72116 0.26842 0.0
C1813 C 0.90657 0.68295 0.26776 0.0
H1814 H 0.93335 0.76826 0.23902 0.0
H1815 H 0.91554 0.73685 0.29423 0.0
S1816 S 0.89966 0.62224 0.1839 0.0
N1817 N 0.9138 0.66261 0.16862 0.0
N1818 N 0.89501 0.62817 0.22885 0.0
C1819 C 0.90491 0.66441 0.2332 0.0
C1820 C 0.91502 0.68315 0.20047 0.0
C1821 C 0.54893 0.70271 0.49053 0.0
C1822 C 0.54086 0.67878 0.46035 0.0
C1823 C 0.57035 0.69127 0.52046 0.0
C1824 C 0.58496 0.65572 0.52093 0.0
H1825 H 0.53782 0.73023 0.49139 0.0
H1826 H 0.57496 0.71016 0.54379 0.0
S1827 S 0.57392 0.58355 0.44746 0.0
N1828 N 0.55027 0.61859 0.43172 0.0
N1829 N 0.59133 0.59713 0.48818 0.0
C1830 C 0.57826 0.63189 0.49038 0.0
C1831 C 0.5559 0.64342 0.45997 0.0
C1832 C 0.77322 0.58802 0.73924 0.0
C1833 C 0.8019 0.5685 0.7228 0.0
C1834 C 0.74344 0.60046 0.7182 0.0
C1835 C 0.74093 0.59409 0.6797 0.0
H1836 H 0.77283 0.5925 0.76888 0.0
H1837 H 0.72146 0.61409 0.73261 0.0
S1838 S 0.81171 0.5498 0.62215 0.0
N1839 N 0.82822 0.54742 0.66483 0.0
N1840 N 0.77187 0.57075 0.62535 0.0
C1841 C 0.77066 0.57705 0.66241 0.0
C1842 C 0.80114 0.56419 0.68393 0.0
C1843 C 0.69011 0.55056 0.93512 0.0
C1844 C 0.67493 0.56098 0.96913 0.0
C1845 C 0.679 0.51782 0.9166 0.0
C1846 C 0.65327 0.49354 0.93215 0.0
H1847 H 0.71246 0.56664 0.92373 0.0
H1848 H 0.69264 0.51031 0.89128 0.0
S1849 S 0.60322 0.50934 0.01919 0.0
N1850 N 0.63097 0.54589 0.0163 0.0
N1851 N 0.61065 0.4834 0.98212 0.0
C1852 C 0.6367 0.5043 0.9654 0.0
C1853 C 0.64759 0.53811 0.98388 0.0
C1854 C 0.69983 0.41766 0.1929 0.0
C1855 C 0.7013 0.42525 0.23124 0.0
C1856 C 0.73158 0.40815 0.17361 0.0
C1857 C 0.76605 0.40575 0.1919 0.0
H1858 H 0.6746 0.42167 0.1771 0.0
H1859 H 0.72938 0.40471 0.14388 0.0
S1860 S 0.78312 0.41569 0.29329 0.0
N1861 N 0.73887 0.42423 0.28755 0.0
N1862 N 0.79836 0.40614 0.25165 0.0
C1863 C 0.76705 0.40964 0.23079 0.0
C1864 C 0.73473 0.41935 0.25037 0.0
C1865 C 0.81471 0.46182 0.40407 0.0
C1866 C 0.81658 0.4533 0.4418 0.0
C1867 C 0.83306 0.49276 0.39047 0.0
C1868 C 0.8538 0.51694 0.41408 0.0
H1869 H 0.79745 0.44542 0.38493 0.0
H1870 H 0.82886 0.49894 0.3616 0.0
S1871 S 0.87343 0.50329 0.51374 0.0
N1872 N 0.8452 0.46856 0.50157 0.0
N1873 N 0.87962 0.52736 0.47608 0.0
C1874 C 0.8585 0.50718 0.4513 0.0
C1875 C 0.84 0.47517 0.46512 0.0
C1876 C 0.80005 0.4447 0.86021 0.0
C1877 C 0.80822 0.44189 0.82239 0.0
C1878 C 0.76876 0.42746 0.87437 0.0
C1879 C 0.74402 0.40697 0.85122 0.0
H1880 H 0.81668 0.46229 0.87883 0.0
H1881 H 0.76265 0.43265 0.90314 0.0
S1882 S 0.75765 0.38357 0.75221 0.0
N1883 N 0.79279 0.41157 0.76353 0.0
N1884 N 0.73342 0.37903 0.79004 0.0
C1885 C 0.75392 0.40055 0.81421 0.0
C1886 C 0.78621 0.41798 0.79983 0.0
C1887 C 0.82301 0.55367 0.08416 0.0
C1888 C 0.81555 0.55422 0.04586 0.0
C1889 C 0.83453 0.52152 0.10135 0.0
C1890 C 0.83918 0.48849 0.081 0.0
H1891 H 0.81785 0.57763 0.10152 0.0
H1892 H 0.83811 0.52225 0.13111 0.0
S1893 S 0.83078 0.47738 0.97884 0.0
N1894 N 0.81897 0.52042 0.98734 0.0
N1895 N 0.84094 0.46005 0.01946 0.0
C1896 C 0.83507 0.48958 0.0422 0.0
C1897 C 0.82325 0.52241 0.02469 0.0
C1898 C 0.72102 0.55561 0.32761 0.0
C1899 C 0.70836 0.56783 0.29317 0.0
C1900 C 0.75325 0.57021 0.3443 0.0
C1901 C 0.77491 0.59672 0.32657 0.0
H1902 H 0.70615 0.53404 0.34171 0.0
H1903 H 0.76193 0.5595 0.3707 0.0
S1904 S 0.75466 0.63697 0.23536 0.0
N1905 N 0.71994 0.60756 0.24149 0.0
N1906 N 0.78181 0.63454 0.27242 0.0
C1907 C 0.76298 0.6089 0.29178 0.0
C1908 C 0.72953 0.59435 0.27503 0.0
C1909 C 0.70136 0.46402 0.57184 0.0
C1910 C 0.68619 0.45429 0.53665 0.0
C1911 C 0.68702 0.4928 0.59322 0.0
C1912 C 0.65708 0.51301 0.58018 0.0
H1913 H 0.72557 0.45046 0.58244 0.0
H1914 H 0.701 0.5008 0.61899 0.0
S1915 S 0.60258 0.49459 0.49387 0.0
N1916 N 0.63582 0.46417 0.49255 0.0
N1917 N 0.6096 0.51877 0.53263 0.0
C1918 C 0.63999 0.50213 0.54646 0.0
C1919 C 0.65433 0.47264 0.52473 0.0
C1920 C 0.74679 0.75875 0.57948 0.0
C1921 C 0.73 0.79301 0.57611 0.0
C1922 C 0.72705 0.72788 0.59151 0.0
C1923 C 0.68937 0.72969 0.60021 0.0
H1924 H 0.77497 0.75525 0.57097 0.0
H1925 H 0.74125 0.70198 0.59253 0.0
S1926 S 0.63336 0.81416 0.59965 0.0
N1927 N 0.67424 0.828 0.58535 0.0
N1928 N 0.63681 0.76965 0.60743 0.0
C1929 C 0.67254 0.76424 0.59849 0.0
C1930 C 0.69286 0.79589 0.58644 0.0
C1931 C 0.22616 0.73566 0.43377 0.0
C1932 C 0.20567 0.70364 0.44193 0.0
C1933 C 0.20883 0.76707 0.42072 0.0
C1934 C 0.1702 0.76786 0.41529 0.0
H1935 H 0.25564 0.73733 0.4394 0.0
H1936 H 0.22585 0.79147 0.41645 0.0
S1937 S 0.1047 0.68882 0.42612 0.0
N1938 N 0.14522 0.67283 0.4388 0.0
N1939 N 0.11263 0.73196 0.41436 0.0
C1940 C 0.14974 0.73497 0.42028 0.0
C1941 C 0.16747 0.70285 0.43356 0.0
C1942 C 0.53574 0.94044 0.70768 0.0
C1943 C 0.5488 0.97022 0.68702 0.0
C1944 C 0.50515 0.91903 0.69573 0.0
C1945 C 0.48569 0.92739 0.66329 0.0
H1946 H 0.54912 0.93379 0.73362 0.0
H1947 H 0.49589 0.89658 0.71275 0.0
S1948 S 0.50695 0.00393 0.6005 0.0
N1949 N 0.53939 0.00778 0.6332 0.0
N1950 N 0.48048 0.96818 0.61121 0.0
C1951 C 0.49772 0.95768 0.64277 0.0
C1952 C 0.5295 0.97914 0.65466 0.0
C1953 C 0.27836 0.26713 0.94927 0.0
C1954 C 0.29426 0.30189 0.9425 0.0
C1955 C 0.29485 0.2348 0.93639 0.0
C1956 C 0.3279 0.23631 0.91653 0.0
H1957 H 0.25502 0.26477 0.96735 0.0
H1958 H 0.28296 0.20852 0.94426 0.0
S1959 S 0.37448 0.32081 0.88389 0.0
N1960 N 0.34063 0.33624 0.9094 0.0
N1961 N 0.37156 0.27538 0.88484 0.0
C1962 C 0.34169 0.27096 0.90642 0.0
C1963 C 0.32484 0.30381 0.91948 0.0
C1964 C 0.46882 0.5733 0.69261 0.0
C1965 C 0.46106 0.53682 0.67971 0.0
C1966 C 0.49893 0.59383 0.67959 0.0
C1967 C 0.52239 0.57862 0.65325 0.0
H1968 H 0.45281 0.58549 0.71445 0.0
H1969 H 0.5053 0.62071 0.69209 0.0
S1970 S 0.50969 0.4882 0.60428 0.0
N1971 N 0.47606 0.48916 0.63433 0.0
N1972 N 0.53282 0.52767 0.61039 0.0
C1973 C 0.51316 0.54367 0.63775 0.0
C1974 C 0.48247 0.52278 0.65083 0.0
C1975 C 0.82335 0.21485 0.07471 0.0
C1976 C 0.78892 0.20365 0.08832 0.0
C1977 C 0.84142 0.24707 0.08781 0.0
C1978 C 0.82495 0.27032 0.11388 0.0
H1979 H 0.83568 0.19962 0.05228 0.0
H1980 H 0.86731 0.25502 0.07547 0.0
S1981 S 0.73547 0.25323 0.15899 0.0
N1982 N 0.73965 0.21747 0.13041 0.0
N1983 N 0.77289 0.2794 0.15411 0.0
C1984 C 0.79082 0.25925 0.12832 0.0
C1985 C 0.77283 0.22574 0.11556 0.0
C1986 C 0.55202 0.09729 0.82124 0.0
C1987 C 0.55647 0.05881 0.823 0.0
C1988 C 0.5206 0.1142 0.83541 0.0
C1989 C 0.49261 0.0932 0.8519 0.0
H1990 H 0.57157 0.11417 0.80651 0.0
H1991 H 0.51716 0.14341 0.8312 0.0
S1992 S 0.49509 0.99291 0.87068 0.0
N1993 N 0.53311 0.0013 0.84771 0.0
N1994 N 0.47447 0.03291 0.8747 0.0
C1995 C 0.49859 0.05533 0.85704 0.0
C1996 C 0.53041 0.03818 0.84251 0.0
C1997 C 0.9592 0.91262 0.31046 0.0
C1998 C 0.95488 0.95093 0.30769 0.0
C1999 C 0.98973 0.89813 0.32875 0.0
C2000 C 0.01773 0.92135 0.3444 0.0
H2001 H 0.93952 0.89348 0.2972 0.0
H2002 H 0.99231 0.86842 0.32863 0.0
S2003 S 0.01704 0.02385 0.34895 0.0
N2004 N 0.97899 0.01193 0.32544 0.0
N2005 N 0.03699 0.98484 0.35957 0.0
C2006 C 0.01254 0.95981 0.34402 0.0
C2007 C 0.98099 0.97456 0.32573 0.0
C2008 C 0.43491 0.26785 0.25199 0.0
C2009 C 0.44619 0.28687 0.22052 0.0
C2010 C 0.41894 0.28615 0.28171 0.0
C2011 C 0.41346 0.3244 0.28144 0.0
H2012 H 0.43882 0.23841 0.25403 0.0
H2013 H 0.41139 0.27006 0.30535 0.0
S2014 S 0.43611 0.38683 0.20457 0.0
N2015 N 0.44937 0.34582 0.19004 0.0
N2016 N 0.41932 0.38065 0.24605 0.0
C2017 C 0.42391 0.3438 0.24977 0.0
C2018 C 0.44041 0.325 0.21939 0.0
C2019 C 0.43057 0.67091 0.95693 0.0
C2020 C 0.46088 0.69558 0.95915 0.0
C2021 C 0.41773 0.65384 0.98882 0.0
C2022 C 0.43556 0.66009 0.0235 0.0
H2023 H 0.41597 0.6659 0.93086 0.0
H2024 H 0.39308 0.63642 0.98651 0.0
S2025 S 0.519 0.71942 0.04222 0.0
N2026 N 0.51007 0.7235 0.99772 0.0
N2027 N 0.48691 0.69074 0.05708 0.0
C2028 C 0.46737 0.68299 0.02529 0.0
C2029 C 0.47974 0.70096 0.99321 0.0
C2030 C 0.06057 0.7244 0.73335 0.0
C2031 C 0.05116 0.69898 0.70458 0.0
C2032 C 0.08201 0.71389 0.76398 0.0
C2033 C 0.09516 0.67774 0.76651 0.0
H2034 H 0.04929 0.75183 0.73334 0.0
H2035 H 0.08642 0.73357 0.78666 0.0
S2036 S 0.08281 0.60311 0.69469 0.0
N2037 N 0.05965 0.63797 0.67823 0.0
N2038 N 0.10107 0.61817 0.73443 0.0
C2039 C 0.08862 0.65328 0.73594 0.0
C2040 C 0.06619 0.66386 0.70538 0.0
C2041 C 0.04545 0.31464 0.47803 0.0
C2042 C 0.06631 0.28724 0.46062 0.0
C2043 C 0.05799 0.33211 0.51088 0.0
C2044 C 0.09207 0.32307 0.52677 0.0
H2045 H 0.01903 0.32233 0.46633 0.0
H2046 H 0.04122 0.35301 0.52362 0.0
S2047 S 0.15601 0.25183 0.49216 0.0
N2048 N 0.12105 0.25027 0.4622 0.0
N2049 N 0.14621 0.28427 0.5229 0.0
C2050 C 0.11311 0.2955 0.50946 0.0
C2051 C 0.0997 0.27708 0.47669 0.0
C2052 C 0.46943 0.66395 0.28503 0.0
C2053 C 0.46164 0.69734 0.30283 0.0
C2054 C 0.44887 0.65214 0.25378 0.0
C2055 C 0.42115 0.67422 0.23842 0.0
H2056 H 0.49095 0.6466 0.2957 0.0
H2057 H 0.45523 0.62576 0.24114 0.0
S2058 S 0.39361 0.76613 0.27268 0.0
N2059 N 0.42609 0.75353 0.30217 0.0
N2060 N 0.38868 0.73189 0.24198 0.0
C2061 C 0.41422 0.70838 0.25513 0.0
C2062 C 0.43432 0.71989 0.28767 0.0
C2063 C 0.10432 0.69978 0.04519 0.0
C2064 C 0.0673 0.70812 0.0508 0.0
C2065 C 0.11466 0.67934 0.01401 0.0
C2066 C 0.08851 0.66745 0.98649 0.0
H2067 H 0.12557 0.71006 0.06448 0.0
H2068 H 0.14385 0.67488 0.01052 0.0
S2069 S 0.98739 0.68052 0.98988 0.0
N2070 N 0.00389 0.70102 0.02808 0.0
N2071 N 0.02344 0.66362 0.9687 0.0
C2072 C 0.05109 0.67422 0.99279 0.0
C2073 C 0.04048 0.69437 0.02507 0.0
C2074 C 0.08572 0.33252 0.81083 0.0
C2075 C 0.04751 0.32416 0.80889 0.0
C2076 C 0.10566 0.33991 0.7788 0.0
C2077 C 0.08826 0.33771 0.74381 0.0
H2078 H 0.10052 0.33238 0.8371 0.0
H2079 H 0.13491 0.34653 0.7813 0.0
S2080 S 0.98855 0.32065 0.7235 0.0
N2081 N 0.99269 0.318 0.76876 0.0
N2082 N 0.03062 0.32939 0.70906 0.0
C2083 C 0.05008 0.33058 0.74156 0.0
C2084 C 0.02957 0.3245 0.77399 0.0
C2085 C 0.4719 0.35742 0.53763 0.0
C2086 C 0.45595 0.33108 0.56099 0.0
C2087 C 0.45272 0.37037 0.50699 0.0
C2088 C 0.41652 0.35817 0.49864 0.0
H2089 H 0.50027 0.36693 0.54169 0.0
H2090 H 0.46701 0.38884 0.48869 0.0
S2091 S 0.3594 0.29476 0.55406 0.0
N2092 N 0.39979 0.297 0.57608 0.0
N2093 N 0.36345 0.32195 0.51836 0.0
C2094 C 0.39882 0.33458 0.52341 0.0
C2095 C 0.41861 0.32087 0.5546 0.0
C2096 C 0.23854 0.42327 0.27017 0.0
C2097 C 0.20818 0.43814 0.28848 0.0
C2098 C 0.26766 0.4076 0.28963 0.0
C2099 C 0.26776 0.40594 0.32835 0.0
H2100 H 0.24039 0.42448 0.24041 0.0
H2101 H 0.29079 0.39766 0.27408 0.0
S2102 S 0.19256 0.43711 0.38923 0.0
N2103 N 0.17835 0.44762 0.34724 0.0
N2104 N 0.23307 0.41784 0.38423 0.0
C2105 C 0.23667 0.41914 0.34702 0.0
C2106 C 0.20702 0.43548 0.32703 0.0
C2107 C 0.29287 0.47262 0.09441 0.0
C2108 C 0.29626 0.45978 0.05808 0.0
C2109 C 0.31388 0.50305 0.10751 0.0
C2110 C 0.33783 0.52257 0.0842 0.0
H2111 H 0.27399 0.45902 0.1128 0.0
H2112 H 0.3101 0.51213 0.13584 0.0
S2113 S 0.35363 0.50111 0.98554 0.0
N2114 N 0.32375 0.46901 0.99828 0.0
N2115 N 0.36259 0.52727 0.02269 0.0
C2116 C 0.34083 0.51025 0.04751 0.0
C2117 C 0.32002 0.47867 0.03443 0.0
C2118 C 0.30564 0.58911 0.83607 0.0
C2119 C 0.30343 0.55802 0.81225 0.0
C2120 C 0.27351 0.60745 0.84641 0.0
C2121 C 0.23859 0.5962 0.83186 0.0
H2122 H 0.33215 0.59878 0.84729 0.0
H2123 H 0.27592 0.63041 0.86603 0.0
S2124 S 0.2188 0.51777 0.76629 0.0
N2125 N 0.26391 0.51756 0.77336 0.0
N2126 N 0.20407 0.55261 0.79163 0.0
C2127 C 0.2364 0.5659 0.80699 0.0
C2128 C 0.26872 0.54667 0.79746 0.0
C2129 C 0.21273 0.50659 0.54393 0.0
C2130 C 0.21258 0.53933 0.56541 0.0
C2131 C 0.19147 0.4756 0.55367 0.0
C2132 C 0.1698 0.47639 0.5855 0.0
H2133 H 0.23037 0.50455 0.52023 0.0
H2134 H 0.19408 0.45026 0.53763 0.0
S2135 S 0.1566 0.55793 0.64749 0.0
N2136 N 0.18635 0.5725 0.61688 0.0
N2137 N 0.14644 0.51457 0.63575 0.0
C2138 C 0.16754 0.51016 0.60546 0.0
C2139 C 0.18902 0.54156 0.59533 0.0
C2140 C 0.22581 0.57158 0.20829 0.0
C2141 C 0.20503 0.55024 0.18189 0.0
C2142 C 0.25705 0.59244 0.19835 0.0
C2143 C 0.26816 0.59354 0.16146 0.0
H2144 H 0.21894 0.57079 0.23722 0.0
H2145 H 0.27314 0.607 0.21983 0.0
S2146 S 0.22107 0.54473 0.08129 0.0
N2147 N 0.19669 0.53279 0.11722 0.0
N2148 N 0.25411 0.5728 0.09793 0.0
C2149 C 0.2463 0.57375 0.13449 0.0
C2150 C 0.21515 0.55186 0.14485 0.0
C2151 C 0.19412 0.46378 0.90596 0.0
C2152 C 0.1881 0.45343 0.94238 0.0
C2153 C 0.18046 0.49699 0.89277 0.0
C2154 C 0.16151 0.52161 0.91603 0.0
H2155 H 0.21045 0.44669 0.88796 0.0
H2156 H 0.18653 0.50427 0.86466 0.0
S2157 S 0.13972 0.50715 0.01409 0.0
N2158 N 0.16179 0.46971 0.00148 0.0
N2159 N 0.13724 0.53283 0.97711 0.0
C2160 C 0.15493 0.51116 0.95238 0.0
C2161 C 0.16797 0.47689 0.96546 0.0
C2162 C 0.29088 0.43031 0.72247 0.0
C2163 C 0.30797 0.45559 0.69891 0.0
C2164 C 0.25855 0.41081 0.71131 0.0
C2165 C 0.2431 0.41547 0.67598 0.0
H2166 H 0.30198 0.42647 0.75008 0.0
H2167 H 0.24563 0.39212 0.73032 0.0
S2168 S 0.27857 0.4784 0.60437 0.0
N2169 N 0.30729 0.48507 0.63986 0.0
N2170 N 0.24819 0.44691 0.61727 0.0
C2171 C 0.26077 0.44022 0.65201 0.0
C2172 C 0.29274 0.46082 0.66396 0.0
C2173 C 0.28533 0.52422 0.44616 0.0
C2174 C 0.30882 0.55524 0.45181 0.0
C2175 C 0.29875 0.4914 0.43112 0.0
C2176 C 0.33574 0.48898 0.42068 0.0
H2177 H 0.25738 0.52434 0.45621 0.0
H2178 H 0.28048 0.46736 0.42887 0.0
S2179 S 0.40684 0.56366 0.42561 0.0
N2180 N 0.36976 0.58248 0.44305 0.0
N2181 N 0.39458 0.52085 0.41347 0.0
C2182 C 0.35865 0.52051 0.42342 0.0
C2183 C 0.34522 0.55373 0.43934 0.0
C2184 C 0.33002 0.20626 0.43947 0.0
C2185 C 0.3005 0.2091 0.46379 0.0
C2186 C 0.34449 0.2378 0.42252 0.0
C2187 C 0.32923 0.27273 0.4289 0.0
H2188 H 0.34065 0.17944 0.43211 0.0
H2189 H 0.36687 0.23468 0.40343 0.0
S2190 S 0.25499 0.29463 0.49448 0.0
N2191 N 0.25903 0.24946 0.4963 0.0
N2192 N 0.28573 0.30854 0.46451 0.0
C2193 C 0.30088 0.27587 0.45462 0.0
C2194 C 0.28665 0.24406 0.47207 0.0
C2195 C 0.84618 0.30115 0.5848 0.0
C2196 C 0.82052 0.2992 0.55522 0.0
C2197 C 0.85562 0.2692 0.60392 0.0
C2198 C 0.83853 0.23464 0.5951 0.0
H2199 H 0.8597 0.32722 0.5925 0.0
H2200 H 0.87692 0.27138 0.62533 0.0
S2201 S 0.76677 0.21597 0.52209 0.0
N2202 N 0.77665 0.26043 0.51934 0.0
N2203 N 0.79333 0.20114 0.55592 0.0
C2204 C 0.81151 0.23291 0.56674 0.0
C2205 C 0.8028 0.265 0.54664 0.0
C2206 C 0.47116 0.03974 0.32407 0.0
C2207 C 0.45512 0.06041 0.29572 0.0
C2208 C 0.50332 0.05226 0.34295 0.0
C2209 C 0.52 0.08618 0.33445 0.0
H2210 H 0.45893 0.01344 0.33144 0.0
H2211 H 0.51497 0.03555 0.36449 0.0
S2212 S 0.48951 0.14959 0.26122 0.0
N2213 N 0.45916 0.11496 0.25857 0.0
N2214 N 0.51865 0.1398 0.29505 0.0
C2215 C 0.50421 0.107 0.30595 0.0
C2216 C 0.47209 0.09367 0.28615 0.0
C2217 C 0.67037 0.71039 0.09019 0.0
C2218 C 0.69185 0.71739 0.05921 0.0
C2219 C 0.66295 0.73874 0.11586 0.0
C2220 C 0.67792 0.77463 0.11211 0.0
H2221 H 0.65802 0.68325 0.09375 0.0
H2222 H 0.64409 0.73297 0.13793 0.0
S2223 S 0.7392 0.80548 0.03723 0.0
N2224 N 0.72959 0.76168 0.02695 0.0
N2225 N 0.71772 0.81448 0.07603 0.0
C2226 C 0.70169 0.78104 0.08248 0.0
C2227 C 0.70801 0.75255 0.05572 0.0
C2228 C 0.53952 0.42914 0.32338 0.0
C2229 C 0.54924 0.46456 0.33765 0.0
C2230 C 0.50772 0.41041 0.335 0.0
C2231 C 0.48437 0.42665 0.36093 0.0
H2232 H 0.55567 0.41633 0.30201 0.0
H2233 H 0.50034 0.38391 0.32216 0.0
S2234 S 0.49971 0.51568 0.41128 0.0
N2235 N 0.53477 0.51278 0.38311 0.0
N2236 N 0.47455 0.47772 0.40349 0.0
C2237 C 0.49462 0.46084 0.37698 0.0
C2238 C 0.52723 0.47973 0.36579 0.0
C2239 C 0.22376 0.78555 0.936 0.0
C2240 C 0.20177 0.80396 0.96177 0.0
C2241 C 0.21028 0.75425 0.9164 0.0
C2242 C 0.17422 0.74097 0.92163 0.0
H2243 H 0.25182 0.79507 0.93148 0.0
H2244 H 0.2281 0.74042 0.89712 0.0
S2245 S 0.10642 0.77933 0.98726 0.0
N2246 N 0.14351 0.80624 0.99303 0.0
N2247 N 0.11683 0.74862 0.95501 0.0
C2248 C 0.15193 0.75952 0.94736 0.0
C2249 C 0.16615 0.79064 0.96796 0.0
C2250 C 0.48336 0.95246 0.21356 0.0
C2251 C 0.44829 0.93685 0.20512 0.0
C2252 C 0.51401 0.94326 0.19299 0.0
C2253 C 0.51113 0.91725 0.16369 0.0
H2254 H 0.48714 0.97262 0.23595 0.0
H2255 H 0.54055 0.95548 0.20125 0.0
S2256 S 0.42555 0.86834 0.13027 0.0
N2257 N 0.4119 0.89525 0.1646 0.0
N2258 N 0.47056 0.87573 0.12721 0.0
C2259 C 0.47626 0.9013 0.15481 0.0
C2260 C 0.44454 0.91174 0.17513 0.0
C2261 C 0.03513 0.04038 0.68913 0.0
C2262 C 0.06154 0.06671 0.70248 0.0
C2263 C 0.00454 0.05077 0.66763 0.0
C2264 C 0.99957 0.08786 0.65826 0.0
H2265 H 0.03674 0.01193 0.69747 0.0
H2266 H 0.98365 0.02995 0.66019 0.0
S2267 S 0.06523 0.166 0.68104 0.0
N2268 N 0.08343 0.13023 0.70142 0.0
N2269 N 0.02724 0.15 0.65983 0.0
C2270 C 0.02795 0.11376 0.66864 0.0
C2271 C 0.05851 0.10318 0.69119 0.0
loop_
_geom_bond_atom_site_label_1
_geom_bond_atom_site_label_2
_geom_bond_distance
_geom_bond_site_symmetry_2
_ccdc_geom_bond_type
Mn0 O5 2.095 1_455 S
Mn0 O15 2.162 1_455 S
Mn0 O16 2.297 1_455 S
Mn0 O24 2.385 . S
Mn0 O25 2.209 . S
Mn0 O26 2.094 . S
Mn1 O6 2.121 1_455 S
Mn1 N8 2.257 . S
Mn1 N17 2.282 . S
Mn1 O25 2.215 . S
Mn1 O27 2.117 . S
C2 O24 1.234 . S
C2 O25 1.283 . S
C3 O15 1.281 . S
C3 O16 1.236 . S
C4 O26 1.240 . S
C4 O27 1.264 . S
O5 Mn0 2.095 1_655 S
O5 C14 1.250 . S
O6 Mn1 2.121 1_655 S
O6 C14 1.258 . S
C7 N8 1.326 . S
C7 C11 1.460 . S
C7 H13 0.929 . S
N8 Mn1 2.257 . S
N8 C7 1.326 . S
N8 C12 1.362 . S
C9 C10 1.258 . S
C9 C12 1.431 . S
C9 C29 1.449 . S
C10 C9 1.258 . S
C10 C11 1.477 . S
C10 H30 0.931 . S
C11 C7 1.460 . S
C11 C10 1.477 . S
C11 H31 0.930 . S
C12 N8 1.362 . S
C12 C9 1.431 . S
C12 C22 1.476 . S
H13 C7 0.929 . S
C14 O5 1.250 . S
C14 O6 1.258 . S
O15 Mn0 2.162 1_655 S
O15 C3 1.281 . S
O16 Mn0 2.297 1_655 S
O16 C3 1.236 . S
N17 Mn1 2.282 . S
N17 C18 1.328 . S
N17 C22 1.318 . S
C18 N17 1.328 . S
C18 C19 1.457 . S
C18 H23 0.929 . S
C19 C18 1.457 . S
C19 C20 1.291 . S
C19 H32 0.931 . S
C20 C19 1.291 . S
C20 C21 1.373 . S
C20 H33 0.929 . S
C21 C20 1.373 . S
C21 C22 1.396 . S
C21 C28 1.403 . S
C22 C12 1.476 . S
C22 N17 1.318 . S
C22 C21 1.396 . S
H23 C18 0.929 . S
O24 Mn0 2.385 . S
O24 C2 1.234 . S
O25 Mn0 2.209 . S
O25 Mn1 2.215 . S
O25 C2 1.283 . S
O26 Mn0 2.094 . S
O26 C4 1.240 . S
O27 Mn1 2.117 . S
O27 C4 1.264 . S
C28 C21 1.403 . S
C28 C29 1.399 . S
C28 H34 0.929 . S
C29 C9 1.449 . S
C29 C28 1.399 . S
C29 H35 0.930 . S
H30 C10 0.931 . S
H31 C11 0.930 . S
H32 C19 0.931 . S
H33 C20 0.929 . S
H34 C28 0.929 . S
H35 C29 0.930 . S
Mn36 O41 2.088 1_455 S
Mn36 O51 2.162 . S
Mn36 O52 2.297 . S
Mn36 O60 2.385 . S
Mn36 O61 2.209 1_455 S
Mn36 O62 2.094 . S
Mn37 O42 2.121 . S
Mn37 N44 2.257 . S
Mn37 N53 2.282 . S
Mn37 O61 2.215 . S
Mn37 O63 2.117 1_655 S
C38 O60 1.234 1_655 S
C38 O61 1.283 . S
C39 O51 1.281 . S
C39 O52 1.236 . S
C40 O62 1.240 . S
C40 O63 1.264 . S
O41 Mn36 2.088 1_655 S
O41 C50 1.268 . S
O42 Mn37 2.121 . S
O42 C50 1.258 . S
C43 N44 1.326 . S
C43 C47 1.460 . S
C43 H49 0.929 . S
N44 Mn37 2.257 . S
N44 C43 1.326 . S
N44 C48 1.362 . S
C45 C46 1.258 . S
C45 C48 1.431 . S
C45 C65 1.449 . S
C46 C45 1.258 . S
C46 C47 1.477 . S
C46 H66 0.931 . S
C47 C43 1.460 . S
C47 C46 1.477 . S
C47 H67 0.930 . S
C48 N44 1.362 . S
C48 C45 1.431 . S
C48 C58 1.476 . S
H49 C43 0.929 . S
C50 O41 1.268 . S
C50 O42 1.258 . S
O51 Mn36 2.162 . S
O51 C39 1.281 . S
O52 Mn36 2.297 . S
O52 C39 1.236 . S
N53 Mn37 2.282 . S
N53 C54 1.328 . S
N53 C58 1.318 . S
C54 N53 1.328 . S
C54 C55 1.457 . S
C54 H59 0.929 . S
C55 C54 1.457 . S
C55 C56 1.291 . S
C55 H68 0.931 . S
C56 C55 1.291 . S
C56 C57 1.373 . S
C56 H69 0.929 . S
C57 C56 1.373 . S
C57 C58 1.396 . S
C57 C64 1.403 . S
C58 C48 1.476 . S
C58 N53 1.318 . S
C58 C57 1.396 . S
H59 C54 0.929 . S
O60 Mn36 2.385 . S
O60 C38 1.234 1_455 S
O61 Mn36 2.209 1_655 S
O61 Mn37 2.215 . S
O61 C38 1.283 . S
O62 Mn36 2.094 . S
O62 C40 1.240 . S
O63 Mn37 2.117 1_455 S
O63 C40 1.264 . S
C64 C57 1.403 . S
C64 C65 1.399 . S
C64 H70 0.929 . S
C65 C45 1.449 . S
C65 C64 1.399 . S
C65 H71 0.930 . S
H66 C46 0.931 . S
H67 C47 0.930 . S
H68 C55 0.931 . S
H69 C56 0.929 . S
H70 C64 0.929 . S
H71 C65 0.930 . S
Mn72 O77 2.095 . S
Mn72 O87 2.162 . S
Mn72 O88 2.297 . S
Mn72 O96 2.385 . S
Mn72 O97 2.209 . S
Mn72 O98 2.094 . S
Mn73 O78 2.121 . S
Mn73 N80 2.257 . S
Mn73 N89 2.282 . S
Mn73 O97 2.215 . S
Mn73 O99 2.117 . S
C74 O96 1.234 . S
C74 O97 1.283 . S
C75 O87 1.281 . S
C75 O88 1.236 . S
C76 O98 1.240 . S
C76 O99 1.264 . S
O77 Mn72 2.095 . S
O77 C86 1.250 . S
O78 Mn73 2.121 . S
O78 C86 1.258 . S
C79 N80 1.326 . S
C79 C83 1.460 . S
C79 H85 0.929 . S
N80 Mn73 2.257 . S
N80 C79 1.326 . S
N80 C84 1.362 . S
C81 C82 1.258 . S
C81 C84 1.431 . S
C81 C101 1.449 . S
C82 C81 1.258 . S
C82 C83 1.477 . S
C82 H102 0.931 . S
C83 C79 1.460 . S
C83 C82 1.477 . S
C83 H103 0.930 . S
C84 N80 1.362 . S
C84 C81 1.431 . S
C84 C94 1.476 . S
H85 C79 0.929 . S
C86 O77 1.250 . S
C86 O78 1.258 . S
O87 Mn72 2.162 . S
O87 C75 1.281 . S
O88 Mn72 2.297 . S
O88 C75 1.236 . S
N89 Mn73 2.282 . S
N89 C90 1.328 . S
N89 C94 1.318 . S
C90 N89 1.328 . S
C90 C91 1.457 . S
C90 H95 0.929 . S
C91 C90 1.457 . S
C91 C92 1.291 . S
C91 H104 0.931 . S
C92 C91 1.291 . S
C92 C93 1.373 . S
C92 H105 0.929 . S
C93 C92 1.373 . S
C93 C94 1.396 . S
C93 C100 1.403 . S
C94 C84 1.476 . S
C94 N89 1.318 . S
C94 C93 1.396 . S
H95 C90 0.929 . S
O96 Mn72 2.385 . S
O96 C74 1.234 . S
O97 Mn72 2.209 . S
O97 Mn73 2.215 . S
O97 C74 1.283 . S
O98 Mn72 2.094 . S
O98 C76 1.240 . S
O99 Mn73 2.117 . S
O99 C76 1.264 . S
C100 C93 1.403 . S
C100 C101 1.399 . S
C100 H106 0.929 . S
C101 C81 1.449 . S
C101 C100 1.399 . S
C101 H107 0.930 . S
H102 C82 0.931 . S
H103 C83 0.930 . S
H104 C91 0.931 . S
H105 C92 0.929 . S
H106 C100 0.929 . S
H107 C101 0.930 . S
Mn108 O113 2.095 . S
Mn108 O123 2.162 . S
Mn108 O124 2.297 . S
Mn108 O132 2.385 . S
Mn108 O133 2.209 . S
Mn108 O134 2.094 . S
Mn109 O114 2.121 . S
Mn109 N116 2.257 . S
Mn109 N125 2.282 . S
Mn109 O133 2.215 . S
Mn109 O135 2.117 . S
C110 O132 1.234 . S
C110 O133 1.283 . S
C111 O123 1.281 . S
C111 O124 1.236 . S
C112 O134 1.240 . S
C112 O135 1.264 . S
O113 Mn108 2.095 . S
O113 C122 1.250 . S
O114 Mn109 2.121 . S
O114 C122 1.258 . S
C115 N116 1.326 . S
C115 C119 1.460 . S
C115 H121 0.929 . S
N116 Mn109 2.257 . S
N116 C115 1.326 . S
N116 C120 1.362 . S
C117 C118 1.258 . S
C117 C120 1.431 . S
C117 C137 1.449 . S
C118 C117 1.258 . S
C118 C119 1.477 . S
C118 H138 0.931 . S
C119 C115 1.460 . S
C119 C118 1.477 . S
C119 H139 0.930 . S
C120 N116 1.362 . S
C120 C117 1.431 . S
C120 C130 1.476 . S
H121 C115 0.929 . S
C122 O113 1.250 . S
C122 O114 1.258 . S
O123 Mn108 2.162 . S
O123 C111 1.281 . S
O124 Mn108 2.297 . S
O124 C111 1.236 . S
N125 Mn109 2.282 . S
N125 C126 1.328 . S
N125 C130 1.318 . S
C126 N125 1.328 . S
C126 C127 1.457 . S
C126 H131 0.929 . S
C127 C126 1.457 . S
C127 C128 1.291 . S
C127 H140 0.931 . S
C128 C127 1.291 . S
C128 C129 1.373 . S
C128 H141 0.929 . S
C129 C128 1.373 . S
C129 C130 1.396 . S
C129 C136 1.403 . S
C130 C120 1.476 . S
C130 N125 1.318 . S
C130 C129 1.396 . S
H131 C126 0.929 . S
O132 Mn108 2.385 . S
O132 C110 1.234 . S
O133 Mn108 2.209 . S
O133 Mn109 2.215 . S
O133 C110 1.283 . S
O134 Mn108 2.094 . S
O134 C112 1.240 . S
O135 Mn109 2.117 . S
O135 C112 1.264 . S
C136 C129 1.403 . S
C136 C137 1.399 . S
C136 H142 0.929 . S
C137 C117 1.449 . S
C137 C136 1.399 . S
C137 H143 0.930 . S
H138 C118 0.931 . S
H139 C119 0.930 . S
H140 C127 0.931 . S
H141 C128 0.929 . S
H142 C136 0.929 . S
H143 C137 0.930 . S
Mn144 O149 2.095 . S
Mn144 O159 2.162 . S
Mn144 O160 2.297 . S
Mn144 O168 2.385 1_655 S
Mn144 O169 2.209 1_655 S
Mn144 O170 2.094 1_655 S
Mn145 O150 2.121 1_455 S
Mn145 N152 2.257 . S
Mn145 N161 2.282 . S
Mn145 O169 2.215 . S
Mn145 O171 2.117 . S
C146 O168 1.234 . S
C146 O169 1.283 . S
C147 O159 1.281 . S
C147 O160 1.236 . S
C148 O170 1.240 . S
C148 O171 1.264 . S
O149 Mn144 2.095 . S
O149 C158 1.250 . S
O150 Mn145 2.121 1_655 S
O150 C158 1.258 . S
C151 N152 1.326 . S
C151 C155 1.460 . S
C151 H157 0.916 1_455 S
N152 Mn145 2.257 . S
N152 C151 1.326 . S
N152 C156 1.362 . S
C153 C154 1.258 . S
C153 C156 1.431 . S
C153 C173 1.449 . S
C154 C153 1.258 . S
C154 C155 1.477 . S
C154 H174 0.931 . S
C155 C151 1.460 . S
C155 C154 1.477 . S
C155 H175 0.930 . S
C156 N152 1.362 . S
C156 C153 1.431 . S
C156 C166 1.476 . S
H157 C151 0.916 1_655 S
C158 O149 1.250 . S
C158 O150 1.258 . S
O159 Mn144 2.162 . S
O159 C147 1.281 . S
O160 Mn144 2.297 . S
O160 C147 1.236 . S
N161 Mn145 2.282 . S
N161 C162 1.328 . S
N161 C166 1.318 . S
C162 N161 1.328 . S
C162 C163 1.457 . S
C162 H167 0.929 . S
C163 C162 1.457 . S
C163 C164 1.291 . S
C163 H176 0.931 . S
C164 C163 1.291 . S
C164 C165 1.373 . S
C164 H177 0.929 . S
C165 C164 1.373 . S
C165 C166 1.396 . S
C165 C172 1.403 . S
C166 C156 1.476 . S
C166 N161 1.318 . S
C166 C165 1.396 . S
H167 C162 0.929 . S
O168 Mn144 2.385 1_455 S
O168 C146 1.234 . S
O169 Mn144 2.209 1_455 S
O169 Mn145 2.215 . S
O169 C146 1.283 . S
O170 Mn144 2.094 1_455 S
O170 C148 1.240 . S
O171 Mn145 2.117 . S
O171 C148 1.264 . S
C172 C165 1.403 . S
C172 C173 1.399 . S
C172 H178 0.929 . S
C173 C153 1.449 . S
C173 C172 1.399 . S
C173 H179 0.930 . S
H174 C154 0.931 . S
H175 C155 0.930 . S
H176 C163 0.931 . S
H177 C164 0.929 . S
H178 C172 0.929 . S
H179 C173 0.930 . S
Mn180 O185 2.095 . S
Mn180 O195 2.162 . S
Mn180 O196 2.297 . S
Mn180 O204 2.385 . S
Mn180 O205 2.209 . S
Mn180 O206 2.094 . S
Mn181 O186 2.121 . S
Mn181 N188 2.257 . S
Mn181 N197 2.282 . S
Mn181 O205 2.215 . S
Mn181 O207 2.117 . S
C182 O204 1.234 . S
C182 O205 1.283 . S
C183 O195 1.281 . S
C183 O196 1.236 . S
C184 O206 1.240 . S
C184 O207 1.264 . S
O185 Mn180 2.095 . S
O185 C194 1.250 . S
O186 Mn181 2.121 . S
O186 C194 1.258 . S
C187 N188 1.326 . S
C187 C191 1.460 . S
C187 H193 0.929 . S
N188 Mn181 2.257 . S
N188 C187 1.326 . S
N188 C192 1.362 . S
C189 C190 1.258 . S
C189 C192 1.431 . S
C189 C209 1.449 . S
C190 C189 1.258 . S
C190 C191 1.477 . S
C190 H210 0.931 . S
C191 C187 1.460 . S
C191 C190 1.477 . S
C191 H211 0.930 . S
C192 N188 1.362 . S
C192 C189 1.431 . S
C192 C202 1.476 . S
H193 C187 0.929 . S
C194 O185 1.250 . S
C194 O186 1.258 . S
O195 Mn180 2.162 . S
O195 C183 1.281 . S
O196 Mn180 2.297 . S
O196 C183 1.236 . S
N197 Mn181 2.282 . S
N197 C198 1.328 . S
N197 C202 1.318 . S
C198 N197 1.328 . S
C198 C199 1.457 . S
C198 H203 0.929 . S
C199 C198 1.457 . S
C199 C200 1.291 . S
C199 H212 0.931 . S
C200 C199 1.291 . S
C200 C201 1.373 . S
C200 H213 0.929 . S
C201 C200 1.373 . S
C201 C202 1.396 . S
C201 C208 1.403 . S
C202 C192 1.476 . S
C202 N197 1.318 . S
C202 C201 1.396 . S
H203 C198 0.929 . S
O204 Mn180 2.385 . S
O204 C182 1.234 . S
O205 Mn180 2.209 . S
O205 Mn181 2.215 . S
O205 C182 1.283 . S
O206 Mn180 2.094 . S
O206 C184 1.240 . S
O207 Mn181 2.117 . S
O207 C184 1.264 . S
C208 C201 1.403 . S
C208 C209 1.399 . S
C208 H214 0.929 . S
C209 C189 1.449 . S
C209 C208 1.399 . S
C209 H215 0.930 . S
H210 C190 0.931 . S
H211 C191 0.930 . S
H212 C199 0.931 . S
H213 C200 0.929 . S
H214 C208 0.929 . S
H215 C209 0.930 . S
Mn216 O221 2.095 . S
Mn216 O231 2.162 . S
Mn216 O232 2.297 . S
Mn216 O240 2.385 . S
Mn216 O241 2.209 . S
Mn216 O242 2.094 . S
Mn217 O222 2.121 . S
Mn217 N224 2.257 . S
Mn217 N233 2.282 . S
Mn217 O241 2.215 . S
Mn217 O243 2.117 . S
C218 O240 1.234 . S
C218 O241 1.283 . S
C219 O231 1.281 . S
C219 O232 1.236 . S
C220 O242 1.240 . S
C220 O243 1.264 . S
O221 Mn216 2.095 . S
O221 C230 1.250 . S
O222 Mn217 2.121 . S
O222 C230 1.258 . S
C223 N224 1.326 . S
C223 C227 1.460 . S
C223 H229 0.929 . S
N224 Mn217 2.257 . S
N224 C223 1.326 . S
N224 C228 1.362 . S
C225 C226 1.258 . S
C225 C228 1.431 . S
C225 C245 1.449 . S
C226 C225 1.258 . S
C226 C227 1.477 . S
C226 H246 0.931 . S
C227 C223 1.460 . S
C227 C226 1.477 . S
C227 H247 0.930 . S
C228 N224 1.362 . S
C228 C225 1.431 . S
C228 C238 1.476 . S
H229 C223 0.929 . S
C230 O221 1.250 . S
C230 O222 1.258 . S
O231 Mn216 2.162 . S
O231 C219 1.281 . S
O232 Mn216 2.297 . S
O232 C219 1.236 . S
N233 Mn217 2.282 . S
N233 C234 1.328 . S
N233 C238 1.318 . S
C234 N233 1.328 . S
C234 C235 1.457 . S
C234 H239 0.929 . S
C235 C234 1.457 . S
C235 C236 1.291 . S
C235 H248 0.931 . S
C236 C235 1.291 . S
C236 C237 1.373 . S
C236 H249 0.929 . S
C237 C236 1.373 . S
C237 C238 1.396 . S
C237 C244 1.403 . S
C238 C228 1.476 . S
C238 N233 1.318 . S
C238 C237 1.396 . S
H239 C234 0.929 . S
O240 Mn216 2.385 . S
O240 C218 1.234 . S
O241 Mn216 2.209 . S
O241 Mn217 2.215 . S
O241 C218 1.283 . S
O242 Mn216 2.094 . S
O242 C220 1.240 . S
O243 Mn217 2.117 . S
O243 C220 1.264 . S
C244 C237 1.403 . S
C244 C245 1.399 . S
C244 H250 0.929 . S
C245 C225 1.449 . S
C245 C244 1.399 . S
C245 H251 0.930 . S
H246 C226 0.931 . S
H247 C227 0.930 . S
H248 C235 0.931 . S
H249 C236 0.929 . S
H250 C244 0.929 . S
H251 C245 0.930 . S
Mn252 O257 2.107 . S
Mn252 O267 2.162 . S
Mn252 O268 2.297 . S
Mn252 O276 2.385 . S
Mn252 O277 2.209 1_455 S
Mn252 O278 2.094 . S
Mn253 O258 2.121 . S
Mn253 N260 2.257 . S
Mn253 N269 2.282 . S
Mn253 O277 2.215 . S
Mn253 O279 2.117 1_655 S
C254 O276 1.234 1_655 S
C254 O277 1.283 . S
C255 O267 1.281 . S
C255 O268 1.236 . S
C256 O278 1.240 . S
C256 O279 1.264 . S
O257 Mn252 2.107 . S
O257 C266 1.220 1_455 S
O258 Mn253 2.121 . S
O258 C266 1.258 . S
C259 N260 1.326 . S
C259 C263 1.460 . S
C259 H265 0.929 . S
N260 Mn253 2.257 . S
N260 C259 1.326 . S
N260 C264 1.362 . S
C261 C262 1.258 . S
C261 C264 1.431 . S
C261 C281 1.449 . S
C262 C261 1.258 . S
C262 C263 1.477 . S
C262 H282 0.931 . S
C263 C259 1.460 . S
C263 C262 1.477 . S
C263 H283 0.930 . S
C264 N260 1.362 . S
C264 C261 1.431 . S
C264 C274 1.476 . S
H265 C259 0.929 . S
C266 O257 1.220 1_655 S
C266 O258 1.258 . S
O267 Mn252 2.162 . S
O267 C255 1.281 . S
O268 Mn252 2.297 . S
O268 C255 1.236 . S
N269 Mn253 2.282 . S
N269 C270 1.328 . S
N269 C274 1.318 . S
C270 N269 1.328 . S
C270 C271 1.457 . S
C270 H275 0.929 . S
C271 C270 1.457 . S
C271 C272 1.291 . S
C271 H284 0.931 . S
C272 C271 1.291 . S
C272 C273 1.373 . S
C272 H285 0.929 . S
C273 C272 1.373 . S
C273 C274 1.396 . S
C273 C280 1.403 . S
C274 C264 1.476 . S
C274 N269 1.318 . S
C274 C273 1.396 . S
H275 C270 0.929 . S
O276 Mn252 2.385 . S
O276 C254 1.234 1_455 S
O277 Mn252 2.209 1_655 S
O277 Mn253 2.215 . S
O277 C254 1.283 . S
O278 Mn252 2.094 . S
O278 C256 1.240 . S
O279 Mn253 2.117 1_455 S
O279 C256 1.264 . S
C280 C273 1.403 . S
C280 C281 1.399 . S
C280 H286 0.929 . S
C281 C261 1.449 . S
C281 C280 1.399 . S
C281 H287 0.930 . S
H282 C262 0.931 . S
H283 C263 0.930 . S
H284 C271 0.931 . S
H285 C272 0.929 . S
H286 C280 0.929 . S
H287 C281 0.930 . S
Mn288 O293 2.095 . S
Mn288 O303 2.162 . S
Mn288 O304 2.297 . S
Mn288 O312 2.385 1_565 S
Mn288 O313 2.209 1_565 S
Mn288 O314 2.094 1_565 S
Mn289 O294 2.121 1_545 S
Mn289 N296 2.257 . S
Mn289 N305 2.282 . S
Mn289 O313 2.215 . S
Mn289 O315 2.117 . S
C290 O312 1.234 . S
C290 O313 1.283 . S
C291 O303 1.281 . S
C291 O304 1.236 . S
C292 O314 1.240 . S
C292 O315 1.264 . S
O293 Mn288 2.095 . S
O293 C302 1.250 . S
O294 Mn289 2.121 1_565 S
O294 C302 1.258 . S
C295 N296 1.326 . S
C295 C299 1.460 . S
C295 H301 0.935 . S
N296 Mn289 2.257 . S
N296 C295 1.326 . S
N296 C300 1.362 . S
C297 C298 1.258 . S
C297 C300 1.431 . S
C297 C317 1.449 . S
C298 C297 1.258 . S
C298 C299 1.477 . S
C298 H318 0.931 . S
C299 C295 1.460 . S
C299 C298 1.477 . S
C299 H319 0.930 . S
C300 N296 1.362 . S
C300 C297 1.431 . S
C300 C310 1.476 . S
H301 C295 0.935 . S
C302 O293 1.250 . S
C302 O294 1.258 . S
O303 Mn288 2.162 . S
O303 C291 1.281 . S
O304 Mn288 2.297 . S
O304 C291 1.236 . S
N305 Mn289 2.282 . S
N305 C306 1.328 . S
N305 C310 1.318 . S
C306 N305 1.328 . S
C306 C307 1.457 . S
C306 H311 0.929 . S
C307 C306 1.457 . S
C307 C308 1.291 . S
C307 H320 0.931 . S
C308 C307 1.291 . S
C308 C309 1.373 . S
C308 H321 0.929 . S
C309 C308 1.373 . S
C309 C310 1.396 . S
C309 C316 1.403 . S
C310 C300 1.476 . S
C310 N305 1.318 . S
C310 C309 1.396 . S
H311 C306 0.929 . S
O312 Mn288 2.385 1_545 S
O312 C290 1.234 . S
O313 Mn288 2.209 1_545 S
O313 Mn289 2.215 . S
O313 C290 1.283 . S
O314 Mn288 2.094 1_545 S
O314 C292 1.240 . S
O315 Mn289 2.117 . S
O315 C292 1.264 . S
C316 C309 1.403 . S
C316 C317 1.399 . S
C316 H322 0.929 . S
C317 C297 1.449 . S
C317 C316 1.399 . S
C317 H323 0.930 . S
H318 C298 0.931 . S
H319 C299 0.930 . S
H320 C307 0.931 . S
H321 C308 0.929 . S
H322 C316 0.929 . S
H323 C317 0.930 . S
Mn324 O329 2.095 . S
Mn324 O339 2.162 . S
Mn324 O340 2.297 . S
Mn324 O348 2.385 . S
Mn324 O349 2.209 . S
Mn324 O350 2.094 . S
Mn325 O330 2.121 . S
Mn325 N332 2.257 . S
Mn325 N341 2.282 . S
Mn325 O349 2.215 . S
Mn325 O351 2.117 . S
C326 O348 1.234 . S
C326 O349 1.283 . S
C327 O339 1.281 . S
C327 O340 1.236 . S
C328 O350 1.240 . S
C328 O351 1.264 . S
O329 Mn324 2.095 . S
O329 C338 1.250 . S
O330 Mn325 2.121 . S
O330 C338 1.258 . S
C331 N332 1.326 . S
C331 C335 1.460 . S
C331 H337 0.929 . S
N332 Mn325 2.257 . S
N332 C331 1.326 . S
N332 C336 1.362 . S
C333 C334 1.258 . S
C333 C336 1.431 . S
C333 C353 1.449 . S
C334 C333 1.258 . S
C334 C335 1.477 . S
C334 H354 0.931 . S
C335 C331 1.460 . S
C335 C334 1.477 . S
C335 H355 0.930 . S
C336 N332 1.362 . S
C336 C333 1.431 . S
C336 C346 1.476 . S
H337 C331 0.929 . S
C338 O329 1.250 . S
C338 O330 1.258 . S
O339 Mn324 2.162 . S
O339 C327 1.281 . S
O340 Mn324 2.297 . S
O340 C327 1.236 . S
N341 Mn325 2.282 . S
N341 C342 1.328 . S
N341 C346 1.318 . S
C342 N341 1.328 . S
C342 C343 1.457 . S
C342 H347 0.929 . S
C343 C342 1.457 . S
C343 C344 1.291 . S
C343 H356 0.931 . S
C344 C343 1.291 . S
C344 C345 1.373 . S
C344 H357 0.929 . S
C345 C344 1.373 . S
C345 C346 1.396 . S
C345 C352 1.403 . S
C346 C336 1.476 . S
C346 N341 1.318 . S
C346 C345 1.396 . S
H347 C342 0.929 . S
O348 Mn324 2.385 . S
O348 C326 1.234 . S
O349 Mn324 2.209 . S
O349 Mn325 2.215 . S
O349 C326 1.283 . S
O350 Mn324 2.094 . S
O350 C328 1.240 . S
O351 Mn325 2.117 . S
O351 C328 1.264 . S
C352 C345 1.403 . S
C352 C353 1.399 . S
C352 H358 0.929 . S
C353 C333 1.449 . S
C353 C352 1.399 . S
C353 H359 0.930 . S
H354 C334 0.931 . S
H355 C335 0.930 . S
H356 C343 0.931 . S
H357 C344 0.929 . S
H358 C352 0.929 . S
H359 C353 0.930 . S
Mn360 O365 2.110 . S
Mn360 O375 2.176 . S
Mn360 O376 2.316 . S
Mn360 O384 2.367 1_565 S
Mn360 O385 2.197 1_565 S
Mn360 O386 2.078 1_565 S
Mn361 O366 2.121 1_545 S
Mn361 N368 2.257 . S
Mn361 N377 2.282 . S
Mn361 O385 2.215 . S
Mn361 O387 2.117 . S
C362 O384 1.234 . S
C362 O385 1.283 . S
C363 O375 1.281 . S
C363 O376 1.236 . S
C364 O386 1.240 . S
C364 O387 1.264 . S
O365 Mn360 2.110 . S
O365 C374 1.250 . S
O366 Mn361 2.121 1_565 S
O366 C374 1.258 . S
C367 N368 1.326 . S
C367 C371 1.460 . S
C367 H373 0.938 . S
N368 Mn361 2.257 . S
N368 C367 1.326 . S
N368 C372 1.362 . S
C369 C370 1.258 . S
C369 C372 1.431 . S
C369 C389 1.449 . S
C370 C369 1.258 . S
C370 C371 1.477 . S
C370 H390 0.931 . S
C371 C367 1.460 . S
C371 C370 1.477 . S
C371 H391 0.930 . S
C372 N368 1.362 . S
C372 C369 1.431 . S
C372 C382 1.476 . S
H373 C367 0.938 . S
C374 O365 1.250 . S
C374 O366 1.258 . S
O375 Mn360 2.176 . S
O375 C363 1.281 . S
O376 Mn360 2.316 . S
O376 C363 1.236 . S
N377 Mn361 2.282 . S
N377 C378 1.328 . S
N377 C382 1.318 . S
C378 N377 1.328 . S
C378 C379 1.457 . S
C378 H383 0.929 . S
C379 C378 1.457 . S
C379 C380 1.291 . S
C379 H392 0.931 . S
C380 C379 1.291 . S
C380 C381 1.373 . S
C380 H393 0.929 . S
C381 C380 1.373 . S
C381 C382 1.396 . S
C381 C388 1.403 . S
C382 C372 1.476 . S
C382 N377 1.318 . S
C382 C381 1.396 . S
H383 C378 0.929 . S
O384 Mn360 2.367 1_545 S
O384 C362 1.234 . S
O385 Mn360 2.197 1_545 S
O385 Mn361 2.215 . S
O385 C362 1.283 . S
O386 Mn360 2.078 1_545 S
O386 C364 1.240 . S
O387 Mn361 2.117 . S
O387 C364 1.264 . S
C388 C381 1.403 . S
C388 C389 1.399 . S
C388 H394 0.929 . S
C389 C369 1.449 . S
C389 C388 1.399 . S
C389 H395 0.930 . S
H390 C370 0.931 . S
H391 C371 0.930 . S
H392 C379 0.931 . S
H393 C380 0.929 . S
H394 C388 0.929 . S
H395 C389 0.930 . S
Mn396 O401 2.095 . S
Mn396 O411 2.162 . S
Mn396 O412 2.297 . S
Mn396 O420 2.385 . S
Mn396 O421 2.209 1_554 S
Mn396 O422 2.094 . S
Mn397 O402 2.121 . S
Mn397 N404 2.257 . S
Mn397 N413 2.282 . S
Mn397 O421 2.215 . S
Mn397 O423 2.117 1_556 S
C398 O420 1.234 1_556 S
C398 O421 1.283 . S
C399 O411 1.281 . S
C399 O412 1.236 . S
C400 O422 1.240 . S
C400 O423 1.264 . S
O401 Mn396 2.095 . S
O401 C410 1.250 1_554 S
O402 Mn397 2.121 . S
O402 C410 1.258 . S
C403 N404 1.326 . S
C403 C407 1.460 . S
C403 H409 0.929 . S
N404 Mn397 2.257 . S
N404 C403 1.326 . S
N404 C408 1.362 . S
C405 C406 1.258 . S
C405 C408 1.431 . S
C405 C425 1.449 . S
C406 C405 1.258 . S
C406 C407 1.477 . S
C406 H426 0.931 . S
C407 C403 1.460 . S
C407 C406 1.477 . S
C407 H427 0.930 . S
C408 N404 1.362 . S
C408 C405 1.431 . S
C408 C418 1.476 . S
H409 C403 0.929 . S
C410 O401 1.250 1_556 S
C410 O402 1.258 . S
O411 Mn396 2.162 . S
O411 C399 1.281 . S
O412 Mn396 2.297 . S
O412 C399 1.236 . S
N413 Mn397 2.282 . S
N413 C414 1.328 . S
N413 C418 1.318 . S
C414 N413 1.328 . S
C414 C415 1.457 . S
C414 H419 0.929 . S
C415 C414 1.457 . S
C415 C416 1.291 . S
C415 H428 0.931 . S
C416 C415 1.291 . S
C416 C417 1.373 . S
C416 H429 0.929 . S
C417 C416 1.373 . S
C417 C418 1.396 . S
C417 C424 1.403 . S
C418 C408 1.476 . S
C418 N413 1.318 . S
C418 C417 1.396 . S
H419 C414 0.929 . S
O420 Mn396 2.385 . S
O420 C398 1.234 1_554 S
O421 Mn396 2.209 1_556 S
O421 Mn397 2.215 . S
O421 C398 1.283 . S
O422 Mn396 2.094 . S
O422 C400 1.240 . S
O423 Mn397 2.117 1_554 S
O423 C400 1.264 . S
C424 C417 1.403 . S
C424 C425 1.399 . S
C424 H430 0.929 . S
C425 C405 1.449 . S
C425 C424 1.399 . S
C425 H431 0.930 . S
H426 C406 0.931 . S
H427 C407 0.930 . S
H428 C415 0.931 . S
H429 C416 0.929 . S
H430 C424 0.929 . S
H431 C425 0.930 . S
Mn432 O437 2.095 1_554 S
Mn432 O447 2.162 1_554 S
Mn432 O448 2.297 1_554 S
Mn432 O456 2.385 . S
Mn432 O457 2.209 . S
Mn432 O458 2.094 . S
Mn433 O438 2.121 1_554 S
Mn433 N440 2.257 . S
Mn433 N449 2.282 . S
Mn433 O457 2.215 . S
Mn433 O459 2.117 . S
C434 O456 1.234 . S
C434 O457 1.283 . S
C435 O447 1.281 . S
C435 O448 1.236 . S
C436 O458 1.240 . S
C436 O459 1.264 . S
O437 Mn432 2.095 1_556 S
O437 C446 1.250 . S
O438 Mn433 2.121 1_556 S
O438 C446 1.258 . S
C439 N440 1.326 . S
C439 C443 1.460 . S
C439 H445 0.929 . S
N440 Mn433 2.257 . S
N440 C439 1.326 . S
N440 C444 1.362 . S
C441 C442 1.258 . S
C441 C444 1.431 . S
C441 C461 1.449 . S
C442 C441 1.258 . S
C442 C443 1.477 . S
C442 H462 0.931 . S
C443 C439 1.460 . S
C443 C442 1.477 . S
C443 H463 0.930 . S
C444 N440 1.362 . S
C444 C441 1.431 . S
C444 C454 1.476 . S
H445 C439 0.929 . S
C446 O437 1.250 . S
C446 O438 1.258 . S
O447 Mn432 2.162 1_556 S
O447 C435 1.281 . S
O448 Mn432 2.297 1_556 S
O448 C435 1.236 . S
N449 Mn433 2.282 . S
N449 C450 1.328 . S
N449 C454 1.318 . S
C450 N449 1.328 . S
C450 C451 1.457 . S
C450 H455 0.929 . S
C451 C450 1.457 . S
C451 C452 1.291 . S
C451 H464 0.931 . S
C452 C451 1.291 . S
C452 C453 1.373 . S
C452 H465 0.929 . S
C453 C452 1.373 . S
C453 C454 1.396 . S
C453 C460 1.403 . S
C454 C444 1.476 . S
C454 N449 1.318 . S
C454 C453 1.396 . S
H455 C450 0.929 . S
O456 Mn432 2.385 . S
O456 C434 1.234 . S
O457 Mn432 2.209 . S
O457 Mn433 2.215 . S
O457 C434 1.283 . S
O458 Mn432 2.094 . S
O458 C436 1.240 . S
O459 Mn433 2.117 . S
O459 C436 1.264 . S
C460 C453 1.403 . S
C460 C461 1.399 . S
C460 H466 0.929 . S
C461 C441 1.449 . S
C461 C460 1.399 . S
C461 H467 0.930 . S
H462 C442 0.931 . S
H463 C443 0.930 . S
H464 C451 0.931 . S
H465 C452 0.929 . S
H466 C460 0.929 . S
H467 C461 0.930 . S
Mn468 O473 2.095 . S
Mn468 O483 2.162 . S
Mn468 O484 2.297 . S
Mn468 O492 2.385 1_556 S
Mn468 O493 2.209 1_556 S
Mn468 O494 2.094 1_556 S
Mn469 O474 2.121 1_554 S
Mn469 N476 2.257 . S
Mn469 N485 2.282 . S
Mn469 O493 2.215 . S
Mn469 O495 2.117 . S
C470 O492 1.234 . S
C470 O493 1.283 . S
C471 O483 1.281 . S
C471 O484 1.236 . S
C472 O494 1.240 . S
C472 O495 1.264 . S
O473 Mn468 2.095 . S
O473 C482 1.250 . S
O474 Mn469 2.121 1_556 S
O474 C482 1.258 . S
C475 N476 1.326 . S
C475 C479 1.460 . S
C475 H481 0.921 1_554 S
N476 Mn469 2.257 . S
N476 C475 1.326 . S
N476 C480 1.362 . S
C477 C478 1.258 . S
C477 C480 1.431 . S
C477 C497 1.449 . S
C478 C477 1.258 . S
C478 C479 1.477 . S
C478 H498 0.931 . S
C479 C475 1.460 . S
C479 C478 1.477 . S
C479 H499 0.930 . S
C480 N476 1.362 . S
C480 C477 1.431 . S
C480 C490 1.476 . S
H481 C475 0.921 1_556 S
C482 O473 1.250 . S
C482 O474 1.258 . S
O483 Mn468 2.162 . S
O483 C471 1.281 . S
O484 Mn468 2.297 . S
O484 C471 1.236 . S
N485 Mn469 2.282 . S
N485 C486 1.328 . S
N485 C490 1.318 . S
C486 N485 1.328 . S
C486 C487 1.457 . S
C486 H491 0.929 . S
C487 C486 1.457 . S
C487 C488 1.291 . S
C487 H500 0.931 . S
C488 C487 1.291 . S
C488 C489 1.373 . S
C488 H501 0.929 . S
C489 C488 1.373 . S
C489 C490 1.396 . S
C489 C496 1.403 . S
C490 C480 1.476 . S
C490 N485 1.318 . S
C490 C489 1.396 . S
H491 C486 0.929 . S
O492 Mn468 2.385 1_554 S
O492 C470 1.234 . S
O493 Mn468 2.209 1_554 S
O493 Mn469 2.215 . S
O493 C470 1.283 . S
O494 Mn468 2.094 1_554 S
O494 C472 1.240 . S
O495 Mn469 2.117 . S
O495 C472 1.264 . S
C496 C489 1.403 . S
C496 C497 1.399 . S
C496 H502 0.929 . S
C497 C477 1.449 . S
C497 C496 1.399 . S
C497 H503 0.930 . S
H498 C478 0.931 . S
H499 C479 0.930 . S
H500 C487 0.931 . S
H501 C488 0.929 . S
H502 C496 0.929 . S
H503 C497 0.930 . S
Mn504 O509 2.095 . S
Mn504 O519 2.162 . S
Mn504 O520 2.297 . S
Mn504 O528 2.385 . S
Mn504 O529 2.209 . S
Mn504 O530 2.094 . S
Mn505 O510 2.121 . S
Mn505 N512 2.257 . S
Mn505 N521 2.282 . S
Mn505 O529 2.215 . S
Mn505 O531 2.117 . S
C506 O528 1.234 . S
C506 O529 1.283 . S
C507 O519 1.281 . S
C507 O520 1.236 . S
C508 O530 1.240 . S
C508 O531 1.264 . S
O509 Mn504 2.095 . S
O509 C518 1.250 . S
O510 Mn505 2.121 . S
O510 C518 1.258 . S
C511 N512 1.326 . S
C511 C515 1.460 . S
C511 H517 0.929 . S
N512 Mn505 2.257 . S
N512 C511 1.326 . S
N512 C516 1.362 . S
C513 C514 1.258 . S
C513 C516 1.431 . S
C513 C533 1.449 . S
C514 C513 1.258 . S
C514 C515 1.477 . S
C514 H534 0.931 . S
C515 C511 1.460 . S
C515 C514 1.477 . S
C515 H535 0.930 . S
C516 N512 1.362 . S
C516 C513 1.431 . S
C516 C526 1.476 . S
H517 C511 0.929 . S
C518 O509 1.250 . S
C518 O510 1.258 . S
O519 Mn504 2.162 . S
O519 C507 1.281 . S
O520 Mn504 2.297 . S
O520 C507 1.236 . S
N521 Mn505 2.282 . S
N521 C522 1.328 . S
N521 C526 1.318 . S
C522 N521 1.328 . S
C522 C523 1.457 . S
C522 H527 0.929 . S
C523 C522 1.457 . S
C523 C524 1.291 . S
C523 H536 0.931 . S
C524 C523 1.291 . S
C524 C525 1.373 . S
C524 H537 0.929 . S
C525 C524 1.373 . S
C525 C526 1.396 . S
C525 C532 1.403 . S
C526 C516 1.476 . S
C526 N521 1.318 . S
C526 C525 1.396 . S
H527 C522 0.929 . S
O528 Mn504 2.385 . S
O528 C506 1.234 . S
O529 Mn504 2.209 . S
O529 Mn505 2.215 . S
O529 C506 1.283 . S
O530 Mn504 2.094 . S
O530 C508 1.240 . S
O531 Mn505 2.117 . S
O531 C508 1.264 . S
C532 C525 1.403 . S
C532 C533 1.399 . S
C532 H538 0.929 . S
C533 C513 1.449 . S
C533 C532 1.399 . S
C533 H539 0.930 . S
H534 C514 0.931 . S
H535 C515 0.930 . S
H536 C523 0.931 . S
H537 C524 0.929 . S
H538 C532 0.929 . S
H539 C533 0.930 . S
Mn540 O545 2.095 . S
Mn540 O555 2.162 . S
Mn540 O556 2.297 . S
Mn540 O564 2.385 . S
Mn540 O565 2.209 . S
Mn540 O566 2.094 . S
Mn541 O546 2.121 . S
Mn541 N548 2.257 . S
Mn541 N557 2.282 . S
Mn541 O565 2.215 . S
Mn541 O567 2.117 . S
C542 O564 1.234 . S
C542 O565 1.283 . S
C543 O555 1.281 . S
C543 O556 1.236 . S
C544 O566 1.240 . S
C544 O567 1.264 . S
O545 Mn540 2.095 . S
O545 C554 1.250 . S
O546 Mn541 2.121 . S
O546 C554 1.258 . S
C547 N548 1.326 . S
C547 C551 1.460 . S
C547 H553 0.929 . S
N548 Mn541 2.257 . S
N548 C547 1.326 . S
N548 C552 1.362 . S
C549 C550 1.258 . S
C549 C552 1.431 . S
C549 C569 1.449 . S
C550 C549 1.258 . S
C550 C551 1.477 . S
C550 H570 0.931 . S
C551 C547 1.460 . S
C551 C550 1.477 . S
C551 H571 0.930 . S
C552 N548 1.362 . S
C552 C549 1.431 . S
C552 C562 1.476 . S
H553 C547 0.929 . S
C554 O545 1.250 . S
C554 O546 1.258 . S
O555 Mn540 2.162 . S
O555 C543 1.281 . S
O556 Mn540 2.297 . S
O556 C543 1.236 . S
N557 Mn541 2.282 . S
N557 C558 1.328 . S
N557 C562 1.318 . S
C558 N557 1.328 . S
C558 C559 1.457 . S
C558 H563 0.929 . S
C559 C558 1.457 . S
C559 C560 1.291 . S
C559 H572 0.931 . S
C560 C559 1.291 . S
C560 C561 1.373 . S
C560 H573 0.929 . S
C561 C560 1.373 . S
C561 C562 1.396 . S
C561 C568 1.403 . S
C562 C552 1.476 . S
C562 N557 1.318 . S
C562 C561 1.396 . S
H563 C558 0.929 . S
O564 Mn540 2.385 . S
O564 C542 1.234 . S
O565 Mn540 2.209 . S
O565 Mn541 2.215 . S
O565 C542 1.283 . S
O566 Mn540 2.094 . S
O566 C544 1.240 . S
O567 Mn541 2.117 . S
O567 C544 1.264 . S
C568 C561 1.403 . S
C568 C569 1.399 . S
C568 H574 0.929 . S
C569 C549 1.449 . S
C569 C568 1.399 . S
C569 H575 0.930 . S
H570 C550 0.931 . S
H571 C551 0.930 . S
H572 C559 0.931 . S
H573 C560 0.929 . S
H574 C568 0.929 . S
H575 C569 0.930 . S
Mn576 O581 2.095 . S
Mn576 O591 2.162 . S
Mn576 O592 2.297 . S
Mn576 O600 2.385 . S
Mn576 O601 2.209 1_545 S
Mn576 O602 2.094 . S
Mn577 O582 2.121 . S
Mn577 N584 2.257 . S
Mn577 N593 2.282 . S
Mn577 O601 2.215 . S
Mn577 O603 2.117 1_565 S
C578 O600 1.234 1_565 S
C578 O601 1.283 . S
C579 O591 1.281 . S
C579 O592 1.236 . S
C580 O602 1.240 . S
C580 O603 1.264 . S
O581 Mn576 2.095 . S
O581 C590 1.250 1_545 S
O582 Mn577 2.121 . S
O582 C590 1.258 . S
C583 N584 1.326 . S
C583 C587 1.460 . S
C583 H589 0.929 . S
N584 Mn577 2.257 . S
N584 C583 1.326 . S
N584 C588 1.362 . S
C585 C586 1.258 . S
C585 C588 1.431 . S
C585 C605 1.449 . S
C586 C585 1.258 . S
C586 C587 1.477 . S
C586 H606 0.931 . S
C587 C583 1.460 . S
C587 C586 1.477 . S
C587 H607 0.930 . S
C588 N584 1.362 . S
C588 C585 1.431 . S
C588 C598 1.476 . S
H589 C583 0.929 . S
C590 O581 1.250 1_565 S
C590 O582 1.258 . S
O591 Mn576 2.162 . S
O591 C579 1.281 . S
O592 Mn576 2.297 . S
O592 C579 1.236 . S
N593 Mn577 2.282 . S
N593 C594 1.328 . S
N593 C598 1.318 . S
C594 N593 1.328 . S
C594 C595 1.457 . S
C594 H599 0.929 . S
C595 C594 1.457 . S
C595 C596 1.291 . S
C595 H608 0.931 . S
C596 C595 1.291 . S
C596 C597 1.373 . S
C596 H609 0.929 . S
C597 C596 1.373 . S
C597 C598 1.396 . S
C597 C604 1.403 . S
C598 C588 1.476 . S
C598 N593 1.318 . S
C598 C597 1.396 . S
H599 C594 0.929 . S
O600 Mn576 2.385 . S
O600 C578 1.234 1_545 S
O601 Mn576 2.209 1_565 S
O601 Mn577 2.215 . S
O601 C578 1.283 . S
O602 Mn576 2.094 . S
O602 C580 1.240 . S
O603 Mn577 2.117 1_545 S
O603 C580 1.264 . S
C604 C597 1.403 . S
C604 C605 1.399 . S
C604 H610 0.929 . S
C605 C585 1.449 . S
C605 C604 1.399 . S
C605 H611 0.930 . S
H606 C586 0.931 . S
H607 C587 0.930 . S
H608 C595 0.931 . S
H609 C596 0.929 . S
H610 C604 0.929 . S
H611 C605 0.930 . S
Mn612 O617 2.095 . S
Mn612 O627 2.162 . S
Mn612 O628 2.297 . S
Mn612 O636 2.385 . S
Mn612 O637 2.209 . S
Mn612 O638 2.094 . S
Mn613 O618 2.121 . S
Mn613 N620 2.257 . S
Mn613 N629 2.282 . S
Mn613 O637 2.215 . S
Mn613 O639 2.117 . S
C614 O636 1.234 . S
C614 O637 1.283 . S
C615 O627 1.281 . S
C615 O628 1.236 . S
C616 O638 1.240 . S
C616 O639 1.264 . S
O617 Mn612 2.095 . S
O617 C626 1.250 . S
O618 Mn613 2.121 . S
O618 C626 1.258 . S
C619 N620 1.326 . S
C619 C623 1.460 . S
C619 H625 0.929 . S
N620 Mn613 2.257 . S
N620 C619 1.326 . S
N620 C624 1.362 . S
C621 C622 1.258 . S
C621 C624 1.431 . S
C621 C641 1.449 . S
C622 C621 1.258 . S
C622 C623 1.477 . S
C622 H642 0.931 . S
C623 C619 1.460 . S
C623 C622 1.477 . S
C623 H643 0.930 . S
C624 N620 1.362 . S
C624 C621 1.431 . S
C624 C634 1.476 . S
H625 C619 0.929 . S
C626 O617 1.250 . S
C626 O618 1.258 . S
O627 Mn612 2.162 . S
O627 C615 1.281 . S
O628 Mn612 2.297 . S
O628 C615 1.236 . S
N629 Mn613 2.282 . S
N629 C630 1.328 . S
N629 C634 1.318 . S
C630 N629 1.328 . S
C630 C631 1.457 . S
C630 H635 0.929 . S
C631 C630 1.457 . S
C631 C632 1.291 . S
C631 H644 0.931 . S
C632 C631 1.291 . S
C632 C633 1.373 . S
C632 H645 0.929 . S
C633 C632 1.373 . S
C633 C634 1.396 . S
C633 C640 1.403 . S
C634 C624 1.476 . S
C634 N629 1.318 . S
C634 C633 1.396 . S
H635 C630 0.929 . S
O636 Mn612 2.385 . S
O636 C614 1.234 . S
O637 Mn612 2.209 . S
O637 Mn613 2.215 . S
O637 C614 1.283 . S
O638 Mn612 2.094 . S
O638 C616 1.240 . S
O639 Mn613 2.117 . S
O639 C616 1.264 . S
C640 C633 1.403 . S
C640 C641 1.399 . S
C640 H646 0.929 . S
C641 C621 1.449 . S
C641 C640 1.399 . S
C641 H647 0.930 . S
H642 C622 0.931 . S
H643 C623 0.930 . S
H644 C631 0.931 . S
H645 C632 0.929 . S
H646 C640 0.929 . S
H647 C641 0.930 . S
Mn648 O653 2.095 . S
Mn648 O663 2.162 . S
Mn648 O664 2.297 . S
Mn648 O672 2.385 . S
Mn648 O673 2.209 . S
Mn648 O674 2.094 . S
Mn649 O654 2.121 . S
Mn649 N656 2.257 . S
Mn649 N665 2.282 . S
Mn649 O673 2.215 . S
Mn649 O675 2.117 . S
C650 O672 1.234 . S
C650 O673 1.283 . S
C651 O663 1.281 . S
C651 O664 1.236 . S
C652 O674 1.240 . S
C652 O675 1.264 . S
O653 Mn648 2.095 . S
O653 C662 1.250 . S
O654 Mn649 2.121 . S
O654 C662 1.258 . S
C655 N656 1.326 . S
C655 C659 1.460 . S
C655 H661 0.929 . S
N656 Mn649 2.257 . S
N656 C655 1.326 . S
N656 C660 1.362 . S
C657 C658 1.258 . S
C657 C660 1.431 . S
C657 C677 1.449 . S
C658 C657 1.258 . S
C658 C659 1.477 . S
C658 H678 0.931 . S
C659 C655 1.460 . S
C659 C658 1.477 . S
C659 H679 0.930 . S
C660 N656 1.362 . S
C660 C657 1.431 . S
C660 C670 1.476 . S
H661 C655 0.929 . S
C662 O653 1.250 . S
C662 O654 1.258 . S
O663 Mn648 2.162 . S
O663 C651 1.281 . S
O664 Mn648 2.297 . S
O664 C651 1.236 . S
N665 Mn649 2.282 . S
N665 C666 1.328 . S
N665 C670 1.318 . S
C666 N665 1.328 . S
C666 C667 1.457 . S
C666 H671 0.929 . S
C667 C666 1.457 . S
C667 C668 1.291 . S
C667 H680 0.931 . S
C668 C667 1.291 . S
C668 C669 1.373 . S
C668 H681 0.929 . S
C669 C668 1.373 . S
C669 C670 1.396 . S
C669 C676 1.403 . S
C670 C660 1.476 . S
C670 N665 1.318 . S
C670 C669 1.396 . S
H671 C666 0.929 . S
O672 Mn648 2.385 . S
O672 C650 1.234 . S
O673 Mn648 2.209 . S
O673 Mn649 2.215 . S
O673 C650 1.283 . S
O674 Mn648 2.094 . S
O674 C652 1.240 . S
O675 Mn649 2.117 . S
O675 C652 1.264 . S
C676 C669 1.403 . S
C676 C677 1.399 . S
C676 H682 0.929 . S
C677 C657 1.449 . S
C677 C676 1.399 . S
C677 H683 0.930 . S
H678 C658 0.931 . S
H679 C659 0.930 . S
H680 C667 0.931 . S
H681 C668 0.929 . S
H682 C676 0.929 . S
H683 C677 0.930 . S
Mn684 O689 2.095 1_545 S
Mn684 O699 2.162 . S
Mn684 O700 2.297 . S
Mn684 O708 2.385 . S
Mn684 O709 2.209 1_545 S
Mn684 O710 2.094 . S
Mn685 O690 2.121 . S
Mn685 N692 2.257 . S
Mn685 N701 2.282 . S
Mn685 O709 2.215 . S
Mn685 O711 2.117 . S
C686 O708 1.234 1_565 S
C686 O709 1.283 . S
C687 O699 1.281 . S
C687 O700 1.236 . S
C688 O710 1.240 . S
C688 O711 1.264 1_545 S
O689 Mn684 2.095 1_565 S
O689 C698 1.250 . S
O690 Mn685 2.121 . S
O690 C698 1.258 . S
C691 N692 1.326 . S
C691 C695 1.460 . S
C691 H697 0.929 . S
N692 Mn685 2.257 . S
N692 C691 1.326 . S
N692 C696 1.362 . S
C693 C694 1.258 . S
C693 C696 1.431 . S
C693 C713 1.449 . S
C694 C693 1.258 . S
C694 C695 1.477 . S
C694 H714 0.931 . S
C695 C691 1.460 . S
C695 C694 1.477 . S
C695 H715 0.930 . S
C696 N692 1.362 . S
C696 C693 1.431 . S
C696 C706 1.476 . S
H697 C691 0.929 . S
C698 O689 1.250 . S
C698 O690 1.258 . S
O699 Mn684 2.162 . S
O699 C687 1.281 . S
O700 Mn684 2.297 . S
O700 C687 1.236 . S
N701 Mn685 2.282 . S
N701 C702 1.328 . S
N701 C706 1.318 . S
C702 N701 1.328 . S
C702 C703 1.457 . S
C702 H707 0.929 . S
C703 C702 1.457 . S
C703 C704 1.291 . S
C703 H716 0.931 . S
C704 C703 1.291 . S
C704 C705 1.373 . S
C704 H717 0.929 . S
C705 C704 1.373 . S
C705 C706 1.396 . S
C705 C712 1.403 . S
C706 C696 1.476 . S
C706 N701 1.318 . S
C706 C705 1.396 . S
H707 C702 0.929 . S
O708 Mn684 2.385 . S
O708 C686 1.234 1_545 S
O709 Mn684 2.209 1_565 S
O709 Mn685 2.215 . S
O709 C686 1.283 . S
O710 Mn684 2.094 . S
O710 C688 1.240 . S
O711 Mn685 2.117 . S
O711 C688 1.264 1_565 S
C712 C705 1.403 . S
C712 C713 1.399 . S
C712 H718 0.929 . S
C713 C693 1.449 . S
C713 C712 1.399 . S
C713 H719 0.930 . S
H714 C694 0.931 . S
H715 C695 0.930 . S
H716 C703 0.931 . S
H717 C704 0.929 . S
H718 C712 0.929 . S
H719 C713 0.930 . S
Mn720 O725 2.092 1_554 S
Mn720 O735 2.162 . S
Mn720 O736 2.297 . S
Mn720 O744 2.385 . S
Mn720 O745 2.209 1_554 S
Mn720 O746 2.094 . S
Mn721 O726 2.121 . S
Mn721 N728 2.257 . S
Mn721 N737 2.282 . S
Mn721 O745 2.215 . S
Mn721 O747 2.117 1_556 S
C722 O744 1.234 1_556 S
C722 O745 1.283 . S
C723 O735 1.281 . S
C723 O736 1.236 . S
C724 O746 1.240 . S
C724 O747 1.264 . S
O725 Mn720 2.092 1_556 S
O725 C734 1.257 . S
O726 Mn721 2.121 . S
O726 C734 1.258 . S
C727 N728 1.326 . S
C727 C731 1.460 . S
C727 H733 0.929 . S
N728 Mn721 2.257 . S
N728 C727 1.326 . S
N728 C732 1.362 . S
C729 C730 1.258 . S
C729 C732 1.431 . S
C729 C749 1.449 . S
C730 C729 1.258 . S
C730 C731 1.477 . S
C730 H750 0.931 . S
C731 C727 1.460 . S
C731 C730 1.477 . S
C731 H751 0.930 . S
C732 N728 1.362 . S
C732 C729 1.431 . S
C732 C742 1.476 . S
H733 C727 0.929 . S
C734 O725 1.257 . S
C734 O726 1.258 . S
O735 Mn720 2.162 . S
O735 C723 1.281 . S
O736 Mn720 2.297 . S
O736 C723 1.236 . S
N737 Mn721 2.282 . S
N737 C738 1.328 . S
N737 C742 1.318 . S
C738 N737 1.328 . S
C738 C739 1.457 . S
C738 H743 0.929 . S
C739 C738 1.457 . S
C739 C740 1.291 . S
C739 H752 0.931 . S
C740 C739 1.291 . S
C740 C741 1.373 . S
C740 H753 0.929 . S
C741 C740 1.373 . S
C741 C742 1.396 . S
C741 C748 1.403 . S
C742 C732 1.476 . S
C742 N737 1.318 . S
C742 C741 1.396 . S
H743 C738 0.929 . S
O744 Mn720 2.385 . S
O744 C722 1.234 1_554 S
O745 Mn720 2.209 1_556 S
O745 Mn721 2.215 . S
O745 C722 1.283 . S
O746 Mn720 2.094 . S
O746 C724 1.240 . S
O747 Mn721 2.117 1_554 S
O747 C724 1.264 . S
C748 C741 1.403 . S
C748 C749 1.399 . S
C748 H754 0.929 . S
C749 C729 1.449 . S
C749 C748 1.399 . S
C749 H755 0.930 . S
H750 C730 0.931 . S
H751 C731 0.930 . S
H752 C739 0.931 . S
H753 C740 0.929 . S
H754 C748 0.929 . S
H755 C749 0.930 . S
Mn756 O761 2.095 . S
Mn756 O771 2.162 . S
Mn756 O772 2.297 . S
Mn756 O780 2.385 . S
Mn756 O781 2.209 . S
Mn756 O782 2.094 . S
Mn757 O762 2.121 . S
Mn757 N764 2.257 . S
Mn757 N773 2.282 . S
Mn757 O781 2.215 . S
Mn757 O783 2.117 . S
C758 O780 1.234 . S
C758 O781 1.283 . S
C759 O771 1.281 . S
C759 O772 1.236 . S
C760 O782 1.240 . S
C760 O783 1.264 . S
O761 Mn756 2.095 . S
O761 C770 1.250 . S
O762 Mn757 2.121 . S
O762 C770 1.258 . S
C763 N764 1.326 . S
C763 C767 1.460 . S
C763 H769 0.929 . S
N764 Mn757 2.257 . S
N764 C763 1.326 . S
N764 C768 1.362 . S
C765 C766 1.258 . S
C765 C768 1.431 . S
C765 C785 1.449 . S
C766 C765 1.258 . S
C766 C767 1.477 . S
C766 H786 0.931 . S
C767 C763 1.460 . S
C767 C766 1.477 . S
C767 H787 0.930 . S
C768 N764 1.362 . S
C768 C765 1.431 . S
C768 C778 1.476 . S
H769 C763 0.929 . S
C770 O761 1.250 . S
C770 O762 1.258 . S
O771 Mn756 2.162 . S
O771 C759 1.281 . S
O772 Mn756 2.297 . S
O772 C759 1.236 . S
N773 Mn757 2.282 . S
N773 C774 1.328 . S
N773 C778 1.318 . S
C774 N773 1.328 . S
C774 C775 1.457 . S
C774 H779 0.929 . S
C775 C774 1.457 . S
C775 C776 1.291 . S
C775 H788 0.931 . S
C776 C775 1.291 . S
C776 C777 1.373 . S
C776 H789 0.929 . S
C777 C776 1.373 . S
C777 C778 1.396 . S
C777 C784 1.403 . S
C778 C768 1.476 . S
C778 N773 1.318 . S
C778 C777 1.396 . S
H779 C774 0.929 . S
O780 Mn756 2.385 . S
O780 C758 1.234 . S
O781 Mn756 2.209 . S
O781 Mn757 2.215 . S
O781 C758 1.283 . S
O782 Mn756 2.094 . S
O782 C760 1.240 . S
O783 Mn757 2.117 . S
O783 C760 1.264 . S
C784 C777 1.403 . S
C784 C785 1.399 . S
C784 H790 0.929 . S
C785 C765 1.449 . S
C785 C784 1.399 . S
C785 H791 0.930 . S
H786 C766 0.931 . S
H787 C767 0.930 . S
H788 C775 0.931 . S
H789 C776 0.929 . S
H790 C784 0.929 . S
H791 C785 0.930 . S
Mn792 O797 2.095 . S
Mn792 O807 2.162 . S
Mn792 O808 2.297 . S
Mn792 O816 2.385 . S
Mn792 O817 2.209 . S
Mn792 O818 2.094 . S
Mn793 O798 2.121 . S
Mn793 N800 2.257 . S
Mn793 N809 2.282 . S
Mn793 O817 2.215 . S
Mn793 O819 2.117 . S
C794 O816 1.234 . S
C794 O817 1.283 . S
C795 O807 1.281 . S
C795 O808 1.236 . S
C796 O818 1.240 . S
C796 O819 1.264 . S
O797 Mn792 2.095 . S
O797 C806 1.250 . S
O798 Mn793 2.121 . S
O798 C806 1.258 . S
C799 N800 1.326 . S
C799 C803 1.460 . S
C799 H805 0.929 . S
N800 Mn793 2.257 . S
N800 C799 1.326 . S
N800 C804 1.362 . S
C801 C802 1.258 . S
C801 C804 1.431 . S
C801 C821 1.449 . S
C802 C801 1.258 . S
C802 C803 1.477 . S
C802 H822 0.931 . S
C803 C799 1.460 . S
C803 C802 1.477 . S
C803 H823 0.930 . S
C804 N800 1.362 . S
C804 C801 1.431 . S
C804 C814 1.476 . S
H805 C799 0.929 . S
C806 O797 1.250 . S
C806 O798 1.258 . S
O807 Mn792 2.162 . S
O807 C795 1.281 . S
O808 Mn792 2.297 . S
O808 C795 1.236 . S
N809 Mn793 2.282 . S
N809 C810 1.328 . S
N809 C814 1.318 . S
C810 N809 1.328 . S
C810 C811 1.457 . S
C810 H815 0.929 . S
C811 C810 1.457 . S
C811 C812 1.291 . S
C811 H824 0.931 . S
C812 C811 1.291 . S
C812 C813 1.373 . S
C812 H825 0.929 . S
C813 C812 1.373 . S
C813 C814 1.396 . S
C813 C820 1.403 . S
C814 C804 1.476 . S
C814 N809 1.318 . S
C814 C813 1.396 . S
H815 C810 0.929 . S
O816 Mn792 2.385 . S
O816 C794 1.234 . S
O817 Mn792 2.209 . S
O817 Mn793 2.215 . S
O817 C794 1.283 . S
O818 Mn792 2.094 . S
O818 C796 1.240 . S
O819 Mn793 2.117 . S
O819 C796 1.264 . S
C820 C813 1.403 . S
C820 C821 1.399 . S
C820 H826 0.929 . S
C821 C801 1.449 . S
C821 C820 1.399 . S
C821 H827 0.930 . S
H822 C802 0.931 . S
H823 C803 0.930 . S
H824 C811 0.931 . S
H825 C812 0.929 . S
H826 C820 0.929 . S
H827 C821 0.930 . S
Mn828 O833 2.095 . S
Mn828 O843 2.162 . S
Mn828 O844 2.297 . S
Mn828 O852 2.385 . S
Mn828 O853 2.209 . S
Mn828 O854 2.094 . S
Mn829 O834 2.121 . S
Mn829 N836 2.257 . S
Mn829 N845 2.282 . S
Mn829 O853 2.215 . S
Mn829 O855 2.117 . S
C830 O852 1.234 . S
C830 O853 1.283 . S
C831 O843 1.281 . S
C831 O844 1.236 . S
C832 O854 1.240 . S
C832 O855 1.264 . S
O833 Mn828 2.095 . S
O833 C842 1.250 . S
O834 Mn829 2.121 . S
O834 C842 1.258 . S
C835 N836 1.326 . S
C835 C839 1.460 . S
C835 H841 0.929 . S
N836 Mn829 2.257 . S
N836 C835 1.326 . S
N836 C840 1.362 . S
C837 C838 1.258 . S
C837 C840 1.431 . S
C837 C857 1.449 . S
C838 C837 1.258 . S
C838 C839 1.477 . S
C838 H858 0.931 . S
C839 C835 1.460 . S
C839 C838 1.477 . S
C839 H859 0.930 . S
C840 N836 1.362 . S
C840 C837 1.431 . S
C840 C850 1.476 . S
H841 C835 0.929 . S
C842 O833 1.250 . S
C842 O834 1.258 . S
O843 Mn828 2.162 . S
O843 C831 1.281 . S
O844 Mn828 2.297 . S
O844 C831 1.236 . S
N845 Mn829 2.282 . S
N845 C846 1.328 . S
N845 C850 1.318 . S
C846 N845 1.328 . S
C846 C847 1.457 . S
C846 H851 0.929 . S
C847 C846 1.457 . S
C847 C848 1.291 . S
C847 H860 0.931 . S
C848 C847 1.291 . S
C848 C849 1.373 . S
C848 H861 0.929 . S
C849 C848 1.373 . S
C849 C850 1.396 . S
C849 C856 1.403 . S
C850 C840 1.476 . S
C850 N845 1.318 . S
C850 C849 1.396 . S
H851 C846 0.929 . S
O852 Mn828 2.385 . S
O852 C830 1.234 . S
O853 Mn828 2.209 . S
O853 Mn829 2.215 . S
O853 C830 1.283 . S
O854 Mn828 2.094 . S
O854 C832 1.240 . S
O855 Mn829 2.117 . S
O855 C832 1.264 . S
C856 C849 1.403 . S
C856 C857 1.399 . S
C856 H862 0.929 . S
C857 C837 1.449 . S
C857 C856 1.399 . S
C857 H863 0.930 . S
H858 C838 0.931 . S
H859 C839 0.930 . S
H860 C847 0.931 . S
H861 C848 0.929 . S
H862 C856 0.929 . S
H863 C857 0.930 . S
Fe864 O866 1.918 . S
Fe864 O869 1.997 . S
Fe864 O870 2.002 . S
Fe864 O875 1.976 . S
Fe864 O878 1.996 . S
Fe865 O866 1.918 . S
Fe865 O873 1.997 . S
Fe865 O876 1.996 . S
Fe865 O880 1.976 . S
Fe865 O883 2.002 . S
O866 Fe864 1.918 . S
O866 Fe865 1.918 . S
O866 Fe867 1.918 . S
Fe867 O866 1.918 . S
Fe867 O868 2.002 . S
Fe867 O877 1.976 . S
Fe867 O881 1.996 . S
Fe867 O884 1.997 . S
O868 Fe867 2.002 . S
O868 C885 1.295 . S
O869 Fe864 1.997 . S
O869 C885 1.235 . S
O870 Fe864 2.002 . S
O870 C871 1.295 . S
C871 O870 1.295 . S
C871 O873 1.235 . S
C872 O877 1.287 . S
C872 O878 1.255 . S
O873 Fe865 1.997 . S
O873 C871 1.235 . S
C874 O880 1.287 . S
C874 O881 1.255 . S
O875 Fe864 1.976 . S
O875 C882 1.287 . S
O876 Fe865 1.996 . S
O876 C882 1.255 . S
O877 Fe867 1.976 . S
O877 C872 1.287 . S
O878 Fe864 1.996 . S
O878 C872 1.255 . S
C879 O883 1.295 . S
C879 O884 1.235 . S
O880 Fe865 1.976 . S
O880 C874 1.287 . S
O881 Fe867 1.996 . S
O881 C874 1.255 . S
C882 O875 1.287 . S
C882 O876 1.255 . S
O883 Fe865 2.002 . S
O883 C879 1.295 . S
O884 Fe867 1.997 . S
O884 C879 1.235 . S
C885 O868 1.295 . S
C885 O869 1.235 . S
Fe886 O888 1.918 . S
Fe886 O891 1.997 . S
Fe886 O892 2.002 . S
Fe886 O897 1.976 . S
Fe886 O900 1.996 . S
Fe887 O888 1.918 . S
Fe887 O895 1.997 . S
Fe887 O898 1.996 . S
Fe887 O902 1.976 . S
Fe887 O905 2.002 . S
O888 Fe886 1.918 . S
O888 Fe887 1.918 . S
O888 Fe889 1.918 . S
Fe889 O888 1.918 . S
Fe889 O890 2.002 . S
Fe889 O899 1.976 . S
Fe889 O903 1.996 . S
Fe889 O906 1.997 . S
O890 Fe889 2.002 . S
O890 C907 1.295 . S
O891 Fe886 1.997 . S
O891 C907 1.235 . S
O892 Fe886 2.002 . S
O892 C893 1.295 . S
C893 O892 1.295 . S
C893 O895 1.235 . S
C894 O899 1.287 . S
C894 O900 1.255 . S
O895 Fe887 1.997 . S
O895 C893 1.235 . S
C896 O902 1.287 . S
C896 O903 1.255 . S
O897 Fe886 1.976 . S
O897 C904 1.287 . S
O898 Fe887 1.996 . S
O898 C904 1.255 . S
O899 Fe889 1.976 . S
O899 C894 1.287 . S
O900 Fe886 1.996 . S
O900 C894 1.255 . S
C901 O905 1.295 . S
C901 O906 1.235 . S
O902 Fe887 1.976 . S
O902 C896 1.287 . S
O903 Fe889 1.996 . S
O903 C896 1.255 . S
C904 O897 1.287 . S
C904 O898 1.255 . S
O905 Fe887 2.002 . S
O905 C901 1.295 . S
O906 Fe889 1.997 . S
O906 C901 1.235 . S
C907 O890 1.295 . S
C907 O891 1.235 . S
Fe908 O910 1.918 . S
Fe908 O913 1.997 . S
Fe908 O914 2.002 . S
Fe908 O919 1.976 . S
Fe908 O922 1.996 . S
Fe909 O910 1.918 . S
Fe909 O917 1.997 . S
Fe909 O920 1.996 . S
Fe909 O924 1.976 . S
Fe909 O927 2.002 . S
O910 Fe908 1.918 . S
O910 Fe909 1.918 . S
O910 Fe911 1.918 . S
Fe911 O910 1.918 . S
Fe911 O912 2.002 . S
Fe911 O921 1.976 . S
Fe911 O925 1.996 . S
Fe911 O928 1.997 . S
O912 Fe911 2.002 . S
O912 C929 1.295 . S
O913 Fe908 1.997 . S
O913 C929 1.235 . S
O914 Fe908 2.002 . S
O914 C915 1.295 . S
C915 O914 1.295 . S
C915 O917 1.235 . S
C916 O921 1.287 . S
C916 O922 1.255 . S
O917 Fe909 1.997 . S
O917 C915 1.235 . S
C918 O924 1.287 . S
C918 O925 1.255 . S
O919 Fe908 1.976 . S
O919 C926 1.287 . S
O920 Fe909 1.996 . S
O920 C926 1.255 . S
O921 Fe911 1.976 . S
O921 C916 1.287 . S
O922 Fe908 1.996 . S
O922 C916 1.255 . S
C923 O927 1.295 . S
C923 O928 1.235 . S
O924 Fe909 1.976 . S
O924 C918 1.287 . S
O925 Fe911 1.996 . S
O925 C918 1.255 . S
C926 O919 1.287 . S
C926 O920 1.255 . S
O927 Fe909 2.002 . S
O927 C923 1.295 . S
O928 Fe911 1.997 . S
O928 C923 1.235 . S
C929 O912 1.295 . S
C929 O913 1.235 . S
Fe930 O932 1.918 . S
Fe930 O935 1.997 . S
Fe930 O936 2.002 . S
Fe930 O941 1.976 . S
Fe930 O944 1.996 . S
Fe931 O932 1.918 . S
Fe931 O939 1.997 . S
Fe931 O942 1.996 . S
Fe931 O946 1.976 . S
Fe931 O949 2.002 . S
O932 Fe930 1.918 . S
O932 Fe931 1.918 . S
O932 Fe933 1.918 . S
Fe933 O932 1.918 . S
Fe933 O934 2.002 . S
Fe933 O943 1.976 . S
Fe933 O947 1.996 . S
Fe933 O950 1.997 . S
O934 Fe933 2.002 . S
O934 C951 1.295 . S
O935 Fe930 1.997 . S
O935 C951 1.235 . S
O936 Fe930 2.002 . S
O936 C937 1.295 . S
C937 O936 1.295 . S
C937 O939 1.235 . S
C938 O943 1.287 . S
C938 O944 1.255 . S
O939 Fe931 1.997 . S
O939 C937 1.235 . S
C940 O946 1.287 . S
C940 O947 1.255 . S
O941 Fe930 1.976 . S
O941 C948 1.287 . S
O942 Fe931 1.996 . S
O942 C948 1.255 . S
O943 Fe933 1.976 . S
O943 C938 1.287 . S
O944 Fe930 1.996 . S
O944 C938 1.255 . S
C945 O949 1.295 . S
C945 O950 1.235 . S
O946 Fe931 1.976 . S
O946 C940 1.287 . S
O947 Fe933 1.996 . S
O947 C940 1.255 . S
C948 O941 1.287 . S
C948 O942 1.255 . S
O949 Fe931 2.002 . S
O949 C945 1.295 . S
O950 Fe933 1.997 . S
O950 C945 1.235 . S
C951 O934 1.295 . S
C951 O935 1.235 . S
Fe952 O954 1.918 . S
Fe952 O957 1.997 . S
Fe952 O958 2.002 . S
Fe952 O963 1.976 . S
Fe952 O966 1.996 . S
Fe953 O954 1.918 . S
Fe953 O961 1.997 . S
Fe953 O964 1.996 . S
Fe953 O968 1.976 . S
Fe953 O971 2.002 . S
O954 Fe952 1.918 . S
O954 Fe953 1.918 . S
O954 Fe955 1.918 . S
Fe955 O954 1.918 . S
Fe955 O956 2.002 . S
Fe955 O965 1.976 . S
Fe955 O969 1.996 . S
Fe955 O972 1.997 . S
O956 Fe955 2.002 . S
O956 C973 1.295 . S
O957 Fe952 1.997 . S
O957 C973 1.235 . S
O958 Fe952 2.002 . S
O958 C959 1.295 . S
C959 O958 1.295 . S
C959 O961 1.235 . S
C960 O965 1.287 . S
C960 O966 1.255 . S
O961 Fe953 1.997 . S
O961 C959 1.235 . S
C962 O968 1.287 . S
C962 O969 1.255 . S
O963 Fe952 1.976 . S
O963 C970 1.287 . S
O964 Fe953 1.996 . S
O964 C970 1.255 . S
O965 Fe955 1.976 . S
O965 C960 1.287 . S
O966 Fe952 1.996 . S
O966 C960 1.255 . S
C967 O971 1.295 . S
C967 O972 1.235 . S
O968 Fe953 1.976 . S
O968 C962 1.287 . S
O969 Fe955 1.996 . S
O969 C962 1.255 . S
C970 O963 1.287 . S
C970 O964 1.255 . S
O971 Fe953 2.002 . S
O971 C967 1.295 . S
O972 Fe955 1.997 . S
O972 C967 1.235 . S
C973 O956 1.295 . S
C973 O957 1.235 . S
Fe974 O976 1.918 . S
Fe974 O979 1.997 . S
Fe974 O980 2.002 . S
Fe974 O985 1.976 . S
Fe974 O988 1.996 . S
Fe975 O976 1.918 . S
Fe975 O983 1.997 . S
Fe975 O986 1.996 . S
Fe975 O990 1.976 . S
Fe975 O993 2.002 . S
O976 Fe974 1.918 . S
O976 Fe975 1.918 . S
O976 Fe977 1.918 . S
Fe977 O976 1.918 . S
Fe977 O978 2.002 . S
Fe977 O987 1.976 . S
Fe977 O991 1.996 . S
Fe977 O994 1.997 . S
O978 Fe977 2.002 . S
O978 C995 1.295 . S
O979 Fe974 1.997 . S
O979 C995 1.235 . S
O980 Fe974 2.002 . S
O980 C981 1.295 . S
C981 O980 1.295 . S
C981 O983 1.235 . S
C982 O987 1.287 . S
C982 O988 1.255 . S
O983 Fe975 1.997 . S
O983 C981 1.235 . S
C984 O990 1.287 . S
C984 O991 1.255 . S
O985 Fe974 1.976 . S
O985 C992 1.287 . S
O986 Fe975 1.996 . S
O986 C992 1.255 . S
O987 Fe977 1.976 . S
O987 C982 1.287 . S
O988 Fe974 1.996 . S
O988 C982 1.255 . S
C989 O993 1.295 . S
C989 O994 1.235 . S
O990 Fe975 1.976 . S
O990 C984 1.287 . S
O991 Fe977 1.996 . S
O991 C984 1.255 . S
C992 O985 1.287 . S
C992 O986 1.255 . S
O993 Fe975 2.002 . S
O993 C989 1.295 . S
O994 Fe977 1.997 . S
O994 C989 1.235 . S
C995 O978 1.295 . S
C995 O979 1.235 . S
Fe996 O998 1.918 . S
Fe996 O1001 1.997 . S
Fe996 O1002 2.002 . S
Fe996 O1007 1.976 . S
Fe996 O1010 1.996 . S
Fe997 O998 1.918 . S
Fe997 O1005 1.997 . S
Fe997 O1008 1.996 . S
Fe997 O1012 1.976 . S
Fe997 O1015 2.002 . S
O998 Fe996 1.918 . S
O998 Fe997 1.918 . S
O998 Fe999 1.918 . S
Fe999 O998 1.918 . S
Fe999 O1000 2.002 . S
Fe999 O1009 1.976 . S
Fe999 O1013 1.996 . S
Fe999 O1016 1.997 . S
O1000 Fe999 2.002 . S
O1000 C1017 1.295 . S
O1001 Fe996 1.997 . S
O1001 C1017 1.235 . S
O1002 Fe996 2.002 . S
O1002 C1003 1.295 . S
C1003 O1002 1.295 . S
C1003 O1005 1.235 . S
C1004 O1009 1.287 . S
C1004 O1010 1.255 . S
O1005 Fe997 1.997 . S
O1005 C1003 1.235 . S
C1006 O1012 1.287 . S
C1006 O1013 1.255 . S
O1007 Fe996 1.976 . S
O1007 C1014 1.287 . S
O1008 Fe997 1.996 . S
O1008 C1014 1.255 . S
O1009 Fe999 1.976 . S
O1009 C1004 1.287 . S
O1010 Fe996 1.996 . S
O1010 C1004 1.255 . S
C1011 O1015 1.295 . S
C1011 O1016 1.235 . S
O1012 Fe997 1.976 . S
O1012 C1006 1.287 . S
O1013 Fe999 1.996 . S
O1013 C1006 1.255 . S
C1014 O1007 1.287 . S
C1014 O1008 1.255 . S
O1015 Fe997 2.002 . S
O1015 C1011 1.295 . S
O1016 Fe999 1.997 . S
O1016 C1011 1.235 . S
C1017 O1000 1.295 . S
C1017 O1001 1.235 . S
Fe1018 O1020 1.918 . S
Fe1018 O1023 1.997 . S
Fe1018 O1024 2.002 . S
Fe1018 O1029 1.976 . S
Fe1018 O1032 1.996 . S
Fe1019 O1020 1.918 . S
Fe1019 O1027 1.997 . S
Fe1019 O1030 1.996 . S
Fe1019 O1034 1.976 . S
Fe1019 O1037 2.002 . S
O1020 Fe1018 1.918 . S
O1020 Fe1019 1.918 . S
O1020 Fe1021 1.918 . S
Fe1021 O1020 1.918 . S
Fe1021 O1022 2.002 . S
Fe1021 O1031 1.976 . S
Fe1021 O1035 1.996 . S
Fe1021 O1038 1.997 . S
O1022 Fe1021 2.002 . S
O1022 C1039 1.295 . S
O1023 Fe1018 1.997 . S
O1023 C1039 1.235 . S
O1024 Fe1018 2.002 . S
O1024 C1025 1.295 . S
C1025 O1024 1.295 . S
C1025 O1027 1.235 . S
C1026 O1031 1.287 . S
C1026 O1032 1.255 . S
O1027 Fe1019 1.997 . S
O1027 C1025 1.235 . S
C1028 O1034 1.287 . S
C1028 O1035 1.255 . S
O1029 Fe1018 1.976 . S
O1029 C1036 1.287 . S
O1030 Fe1019 1.996 . S
O1030 C1036 1.255 . S
O1031 Fe1021 1.976 . S
O1031 C1026 1.287 . S
O1032 Fe1018 1.996 . S
O1032 C1026 1.255 . S
C1033 O1037 1.295 . S
C1033 O1038 1.235 . S
O1034 Fe1019 1.976 . S
O1034 C1028 1.287 . S
O1035 Fe1021 1.996 . S
O1035 C1028 1.255 . S
C1036 O1029 1.287 . S
C1036 O1030 1.255 . S
O1037 Fe1019 2.002 . S
O1037 C1033 1.295 . S
O1038 Fe1021 1.997 . S
O1038 C1033 1.235 . S
C1039 O1022 1.295 . S
C1039 O1023 1.235 . S
Fe1040 O1042 1.918 . S
Fe1040 O1045 1.997 . S
Fe1040 O1046 2.002 . S
Fe1040 O1051 1.976 . S
Fe1040 O1054 1.996 . S
Fe1041 O1042 1.918 . S
Fe1041 O1049 1.997 . S
Fe1041 O1052 1.996 . S
Fe1041 O1056 1.976 . S
Fe1041 O1059 2.002 . S
O1042 Fe1040 1.918 . S
O1042 Fe1041 1.918 . S
O1042 Fe1043 1.918 . S
Fe1043 O1042 1.918 . S
Fe1043 O1044 2.002 . S
Fe1043 O1053 1.976 . S
Fe1043 O1057 1.996 . S
Fe1043 O1060 1.997 . S
O1044 Fe1043 2.002 . S
O1044 C1061 1.295 . S
O1045 Fe1040 1.997 . S
O1045 C1061 1.235 . S
O1046 Fe1040 2.002 . S
O1046 C1047 1.295 . S
C1047 O1046 1.295 . S
C1047 O1049 1.235 . S
C1048 O1053 1.287 . S
C1048 O1054 1.255 . S
O1049 Fe1041 1.997 . S
O1049 C1047 1.235 . S
C1050 O1056 1.287 . S
C1050 O1057 1.255 . S
O1051 Fe1040 1.976 . S
O1051 C1058 1.287 . S
O1052 Fe1041 1.996 . S
O1052 C1058 1.255 . S
O1053 Fe1043 1.976 . S
O1053 C1048 1.287 . S
O1054 Fe1040 1.996 . S
O1054 C1048 1.255 . S
C1055 O1059 1.295 . S
C1055 O1060 1.235 . S
O1056 Fe1041 1.976 . S
O1056 C1050 1.287 . S
O1057 Fe1043 1.996 . S
O1057 C1050 1.255 . S
C1058 O1051 1.287 . S
C1058 O1052 1.255 . S
O1059 Fe1041 2.002 . S
O1059 C1055 1.295 . S
O1060 Fe1043 1.997 . S
O1060 C1055 1.235 . S
C1061 O1044 1.295 . S
C1061 O1045 1.235 . S
Fe1062 O1064 1.918 . S
Fe1062 O1067 1.997 . S
Fe1062 O1068 2.002 . S
Fe1062 O1073 1.976 . S
Fe1062 O1076 1.996 . S
Fe1063 O1064 1.918 . S
Fe1063 O1071 1.997 . S
Fe1063 O1074 1.996 . S
Fe1063 O1078 1.976 . S
Fe1063 O1081 2.002 . S
O1064 Fe1062 1.918 . S
O1064 Fe1063 1.918 . S
O1064 Fe1065 1.918 . S
Fe1065 O1064 1.918 . S
Fe1065 O1066 2.002 . S
Fe1065 O1075 1.976 . S
Fe1065 O1079 1.996 . S
Fe1065 O1082 1.997 . S
O1066 Fe1065 2.002 . S
O1066 C1083 1.295 . S
O1067 Fe1062 1.997 . S
O1067 C1083 1.235 . S
O1068 Fe1062 2.002 . S
O1068 C1069 1.295 . S
C1069 O1068 1.295 . S
C1069 O1071 1.235 . S
C1070 O1075 1.287 . S
C1070 O1076 1.255 . S
O1071 Fe1063 1.997 . S
O1071 C1069 1.235 . S
C1072 O1078 1.287 . S
C1072 O1079 1.255 . S
O1073 Fe1062 1.976 . S
O1073 C1080 1.287 . S
O1074 Fe1063 1.996 . S
O1074 C1080 1.255 . S
O1075 Fe1065 1.976 . S
O1075 C1070 1.287 . S
O1076 Fe1062 1.996 . S
O1076 C1070 1.255 . S
C1077 O1081 1.295 . S
C1077 O1082 1.235 . S
O1078 Fe1063 1.976 . S
O1078 C1072 1.287 . S
O1079 Fe1065 1.996 . S
O1079 C1072 1.255 . S
C1080 O1073 1.287 . S
C1080 O1074 1.255 . S
O1081 Fe1063 2.002 . S
O1081 C1077 1.295 . S
O1082 Fe1065 1.997 . S
O1082 C1077 1.235 . S
C1083 O1066 1.295 . S
C1083 O1067 1.235 . S
Fe1084 O1086 1.918 . S
Fe1084 O1089 1.997 . S
Fe1084 O1090 2.002 . S
Fe1084 O1095 1.976 . S
Fe1084 O1098 1.996 . S
Fe1085 O1086 1.918 . S
Fe1085 O1093 1.997 . S
Fe1085 O1096 1.996 . S
Fe1085 O1100 1.976 . S
Fe1085 O1103 2.002 . S
O1086 Fe1084 1.918 . S
O1086 Fe1085 1.918 . S
O1086 Fe1087 1.918 . S
Fe1087 O1086 1.918 . S
Fe1087 O1088 2.002 . S
Fe1087 O1097 1.976 . S
Fe1087 O1101 1.996 . S
Fe1087 O1104 1.997 . S
O1088 Fe1087 2.002 . S
O1088 C1105 1.295 . S
O1089 Fe1084 1.997 . S
O1089 C1105 1.235 . S
O1090 Fe1084 2.002 . S
O1090 C1091 1.295 . S
C1091 O1090 1.295 . S
C1091 O1093 1.235 . S
C1092 O1097 1.287 . S
C1092 O1098 1.255 . S
O1093 Fe1085 1.997 . S
O1093 C1091 1.235 . S
C1094 O1100 1.287 . S
C1094 O1101 1.255 . S
O1095 Fe1084 1.976 . S
O1095 C1102 1.287 . S
O1096 Fe1085 1.996 . S
O1096 C1102 1.255 . S
O1097 Fe1087 1.976 . S
O1097 C1092 1.287 . S
O1098 Fe1084 1.996 . S
O1098 C1092 1.255 . S
C1099 O1103 1.295 . S
C1099 O1104 1.235 . S
O1100 Fe1085 1.976 . S
O1100 C1094 1.287 . S
O1101 Fe1087 1.996 . S
O1101 C1094 1.255 . S
C1102 O1095 1.287 . S
C1102 O1096 1.255 . S
O1103 Fe1085 2.002 . S
O1103 C1099 1.295 . S
O1104 Fe1087 1.997 . S
O1104 C1099 1.235 . S
C1105 O1088 1.295 . S
C1105 O1089 1.235 . S
Fe1106 O1108 1.918 . S
Fe1106 O1111 1.997 . S
Fe1106 O1112 2.002 . S
Fe1106 O1117 1.976 . S
Fe1106 O1120 1.996 . S
Fe1107 O1108 1.918 . S
Fe1107 O1115 1.997 . S
Fe1107 O1118 1.996 . S
Fe1107 O1122 1.976 . S
Fe1107 O1125 2.002 . S
O1108 Fe1106 1.918 . S
O1108 Fe1107 1.918 . S
O1108 Fe1109 1.918 . S
Fe1109 O1108 1.918 . S
Fe1109 O1110 2.002 . S
Fe1109 O1119 1.976 . S
Fe1109 O1123 1.996 . S
Fe1109 O1126 1.997 . S
O1110 Fe1109 2.002 . S
O1110 C1127 1.295 . S
O1111 Fe1106 1.997 . S
O1111 C1127 1.235 . S
O1112 Fe1106 2.002 . S
O1112 C1113 1.295 . S
C1113 O1112 1.295 . S
C1113 O1115 1.235 . S
C1114 O1119 1.287 . S
C1114 O1120 1.255 . S
O1115 Fe1107 1.997 . S
O1115 C1113 1.235 . S
C1116 O1122 1.287 . S
C1116 O1123 1.255 . S
O1117 Fe1106 1.976 . S
O1117 C1124 1.287 . S
O1118 Fe1107 1.996 . S
O1118 C1124 1.255 . S
O1119 Fe1109 1.976 . S
O1119 C1114 1.287 . S
O1120 Fe1106 1.996 . S
O1120 C1114 1.255 . S
C1121 O1125 1.295 . S
C1121 O1126 1.235 . S
O1122 Fe1107 1.976 . S
O1122 C1116 1.287 . S
O1123 Fe1109 1.996 . S
O1123 C1116 1.255 . S
C1124 O1117 1.287 . S
C1124 O1118 1.255 . S
O1125 Fe1107 2.002 . S
O1125 C1121 1.295 . S
O1126 Fe1109 1.997 . S
O1126 C1121 1.235 . S
C1127 O1110 1.295 . S
C1127 O1111 1.235 . S
Fe1128 O1130 1.918 . S
Fe1128 O1133 1.997 . S
Fe1128 O1134 2.002 . S
Fe1128 O1139 1.976 . S
Fe1128 O1142 1.996 . S
Fe1129 O1130 1.918 . S
Fe1129 O1137 1.997 . S
Fe1129 O1140 1.996 . S
Fe1129 O1144 1.976 . S
Fe1129 O1147 2.002 . S
O1130 Fe1128 1.918 . S
O1130 Fe1129 1.918 . S
O1130 Fe1131 1.918 . S
Fe1131 O1130 1.918 . S
Fe1131 O1132 2.002 . S
Fe1131 O1141 1.976 . S
Fe1131 O1145 1.996 . S
Fe1131 O1148 1.997 . S
O1132 Fe1131 2.002 . S
O1132 C1149 1.295 . S
O1133 Fe1128 1.997 . S
O1133 C1149 1.235 . S
O1134 Fe1128 2.002 . S
O1134 C1135 1.295 . S
C1135 O1134 1.295 . S
C1135 O1137 1.235 . S
C1136 O1141 1.287 . S
C1136 O1142 1.255 . S
O1137 Fe1129 1.997 . S
O1137 C1135 1.235 . S
C1138 O1144 1.287 . S
C1138 O1145 1.255 . S
O1139 Fe1128 1.976 . S
O1139 C1146 1.287 . S
O1140 Fe1129 1.996 . S
O1140 C1146 1.255 . S
O1141 Fe1131 1.976 . S
O1141 C1136 1.287 . S
O1142 Fe1128 1.996 . S
O1142 C1136 1.255 . S
C1143 O1147 1.295 . S
C1143 O1148 1.235 . S
O1144 Fe1129 1.976 . S
O1144 C1138 1.287 . S
O1145 Fe1131 1.996 . S
O1145 C1138 1.255 . S
C1146 O1139 1.287 . S
C1146 O1140 1.255 . S
O1147 Fe1129 2.002 . S
O1147 C1143 1.295 . S
O1148 Fe1131 1.997 . S
O1148 C1143 1.235 . S
C1149 O1132 1.295 . S
C1149 O1133 1.235 . S
Fe1150 O1152 1.918 . S
Fe1150 O1155 1.997 . S
Fe1150 O1156 2.002 . S
Fe1150 O1161 1.976 . S
Fe1150 O1164 1.996 . S
Fe1151 O1152 1.918 . S
Fe1151 O1159 1.997 . S
Fe1151 O1162 1.996 . S
Fe1151 O1166 1.976 . S
Fe1151 O1169 2.002 . S
O1152 Fe1150 1.918 . S
O1152 Fe1151 1.918 . S
O1152 Fe1153 1.918 . S
Fe1153 O1152 1.918 . S
Fe1153 O1154 2.002 . S
Fe1153 O1163 1.976 . S
Fe1153 O1167 1.996 . S
Fe1153 O1170 1.997 . S
O1154 Fe1153 2.002 . S
O1154 C1171 1.295 . S
O1155 Fe1150 1.997 . S
O1155 C1171 1.235 . S
O1156 Fe1150 2.002 . S
O1156 C1157 1.295 . S
C1157 O1156 1.295 . S
C1157 O1159 1.235 . S
C1158 O1163 1.287 . S
C1158 O1164 1.255 . S
O1159 Fe1151 1.997 . S
O1159 C1157 1.235 . S
C1160 O1166 1.287 . S
C1160 O1167 1.255 . S
O1161 Fe1150 1.976 . S
O1161 C1168 1.287 . S
O1162 Fe1151 1.996 . S
O1162 C1168 1.255 . S
O1163 Fe1153 1.976 . S
O1163 C1158 1.287 . S
O1164 Fe1150 1.996 . S
O1164 C1158 1.255 . S
C1165 O1169 1.295 . S
C1165 O1170 1.235 . S
O1166 Fe1151 1.976 . S
O1166 C1160 1.287 . S
O1167 Fe1153 1.996 . S
O1167 C1160 1.255 . S
C1168 O1161 1.287 . S
C1168 O1162 1.255 . S
O1169 Fe1151 2.002 . S
O1169 C1165 1.295 . S
O1170 Fe1153 1.997 . S
O1170 C1165 1.235 . S
C1171 O1154 1.295 . S
C1171 O1155 1.235 . S
Fe1172 O1174 1.918 . S
Fe1172 O1177 1.997 . S
Fe1172 O1178 2.002 . S
Fe1172 O1183 1.976 . S
Fe1172 O1186 1.996 . S
Fe1173 O1174 1.918 . S
Fe1173 O1181 1.997 . S
Fe1173 O1184 1.996 . S
Fe1173 O1188 1.976 . S
Fe1173 O1191 2.002 . S
O1174 Fe1172 1.918 . S
O1174 Fe1173 1.918 . S
O1174 Fe1175 1.918 . S
Fe1175 O1174 1.918 . S
Fe1175 O1176 2.002 . S
Fe1175 O1185 1.976 . S
Fe1175 O1189 1.996 . S
Fe1175 O1192 1.997 . S
O1176 Fe1175 2.002 . S
O1176 C1193 1.295 . S
O1177 Fe1172 1.997 . S
O1177 C1193 1.235 . S
O1178 Fe1172 2.002 . S
O1178 C1179 1.295 . S
C1179 O1178 1.295 . S
C1179 O1181 1.235 . S
C1180 O1185 1.287 . S
C1180 O1186 1.255 . S
O1181 Fe1173 1.997 . S
O1181 C1179 1.235 . S
C1182 O1188 1.287 . S
C1182 O1189 1.255 . S
O1183 Fe1172 1.976 . S
O1183 C1190 1.287 . S
O1184 Fe1173 1.996 . S
O1184 C1190 1.255 . S
O1185 Fe1175 1.976 . S
O1185 C1180 1.287 . S
O1186 Fe1172 1.996 . S
O1186 C1180 1.255 . S
C1187 O1191 1.295 . S
C1187 O1192 1.235 . S
O1188 Fe1173 1.976 . S
O1188 C1182 1.287 . S
O1189 Fe1175 1.996 . S
O1189 C1182 1.255 . S
C1190 O1183 1.287 . S
C1190 O1184 1.255 . S
O1191 Fe1173 2.002 . S
O1191 C1187 1.295 . S
O1192 Fe1175 1.997 . S
O1192 C1187 1.235 . S
C1193 O1176 1.295 . S
C1193 O1177 1.235 . S
Fe1194 O1196 1.918 . S
Fe1194 O1199 1.997 . S
Fe1194 O1200 2.002 . S
Fe1194 O1205 1.976 . S
Fe1194 O1208 1.996 . S
Fe1195 O1196 1.918 . S
Fe1195 O1203 1.997 . S
Fe1195 O1206 1.996 . S
Fe1195 O1210 1.976 . S
Fe1195 O1213 2.002 . S
O1196 Fe1194 1.918 . S
O1196 Fe1195 1.918 . S
O1196 Fe1197 1.918 . S
Fe1197 O1196 1.918 . S
Fe1197 O1198 2.002 . S
Fe1197 O1207 1.976 . S
Fe1197 O1211 1.996 . S
Fe1197 O1214 1.997 . S
O1198 Fe1197 2.002 . S
O1198 C1215 1.295 . S
O1199 Fe1194 1.997 . S
O1199 C1215 1.235 . S
O1200 Fe1194 2.002 . S
O1200 C1201 1.295 . S
C1201 O1200 1.295 . S
C1201 O1203 1.235 . S
C1202 O1207 1.287 . S
C1202 O1208 1.255 . S
O1203 Fe1195 1.997 . S
O1203 C1201 1.235 . S
C1204 O1210 1.287 . S
C1204 O1211 1.255 . S
O1205 Fe1194 1.976 . S
O1205 C1212 1.287 . S
O1206 Fe1195 1.996 . S
O1206 C1212 1.255 . S
O1207 Fe1197 1.976 . S
O1207 C1202 1.287 . S
O1208 Fe1194 1.996 . S
O1208 C1202 1.255 . S
C1209 O1213 1.295 . S
C1209 O1214 1.235 . S
O1210 Fe1195 1.976 . S
O1210 C1204 1.287 . S
O1211 Fe1197 1.996 . S
O1211 C1204 1.255 . S
C1212 O1205 1.287 . S
C1212 O1206 1.255 . S
O1213 Fe1195 2.002 . S
O1213 C1209 1.295 . S
O1214 Fe1197 1.997 . S
O1214 C1209 1.235 . S
C1215 O1198 1.295 . S
C1215 O1199 1.235 . S
C1216 C1217 1.369 . S
C1216 C1218 1.419 . S
C1216 H1220 0.930 . S
C1217 C1216 1.369 . S
C1217 C1226 1.429 . S
C1218 C1216 1.419 . S
C1218 C1219 1.363 . S
C1218 H1221 0.929 . S
C1219 C1218 1.363 . S
C1219 C1225 1.428 . S
H1220 C1216 0.930 . S
H1221 C1218 0.929 . S
S1222 N1223 1.613 . S
S1222 N1224 1.610 . S
N1223 S1222 1.613 . S
N1223 C1226 1.350 . S
N1224 S1222 1.610 . S
N1224 C1225 1.351 . S
C1225 C1219 1.428 . S
C1225 N1224 1.351 . S
C1225 C1226 1.434 . S
C1226 C1217 1.429 . S
C1226 N1223 1.350 . S
C1226 C1225 1.434 . S
C1227 C1228 1.369 . S
C1227 C1229 1.419 . S
C1227 H1231 0.930 . S
C1228 C1227 1.369 . S
C1228 C1237 1.429 . S
C1229 C1227 1.419 . S
C1229 C1230 1.363 . S
C1229 H1232 0.929 . S
C1230 C1229 1.363 . S
C1230 C1236 1.428 . S
H1231 C1227 0.930 . S
H1232 C1229 0.929 . S
S1233 N1234 1.613 . S
S1233 N1235 1.610 . S
N1234 S1233 1.613 . S
N1234 C1237 1.350 . S
N1235 S1233 1.610 . S
N1235 C1236 1.351 . S
C1236 C1230 1.428 . S
C1236 N1235 1.351 . S
C1236 C1237 1.434 . S
C1237 C1228 1.429 . S
C1237 N1234 1.350 . S
C1237 C1236 1.434 . S
C1238 C1239 1.369 . S
C1238 C1240 1.419 . S
C1238 H1242 0.930 . S
C1239 C1238 1.369 . S
C1239 C1248 1.429 . S
C1240 C1238 1.419 . S
C1240 C1241 1.363 . S
C1240 H1243 0.929 . S
C1241 C1240 1.363 . S
C1241 C1247 1.428 . S
H1242 C1238 0.930 . S
H1243 C1240 0.929 . S
S1244 N1245 1.613 . S
S1244 N1246 1.610 . S
N1245 S1244 1.613 . S
N1245 C1248 1.350 . S
N1246 S1244 1.610 . S
N1246 C1247 1.351 . S
C1247 C1241 1.428 . S
C1247 N1246 1.351 . S
C1247 C1248 1.434 . S
C1248 C1239 1.429 . S
C1248 N1245 1.350 . S
C1248 C1247 1.434 . S
C1249 C1250 1.369 . S
C1249 C1251 1.441 . S
C1249 H1253 0.930 . S
C1250 C1249 1.369 . S
C1250 C1259 1.429 . S
C1251 C1249 1.441 . S
C1251 C1252 1.365 . S
C1251 H1254 0.904 1_554 S
C1252 C1251 1.365 . S
C1252 C1258 1.428 . S
H1253 C1249 0.930 . S
H1254 C1251 0.904 1_556 S
S1255 N1256 1.613 . S
S1255 N1257 1.610 . S
N1256 S1255 1.613 . S
N1256 C1259 1.350 . S
N1257 S1255 1.610 . S
N1257 C1258 1.351 . S
C1258 C1252 1.428 . S
C1258 N1257 1.351 . S
C1258 C1259 1.434 . S
C1259 C1250 1.429 . S
C1259 N1256 1.350 . S
C1259 C1258 1.434 . S
C1260 C1261 1.369 . S
C1260 C1262 1.419 . S
C1260 H1264 0.930 . S
C1261 C1260 1.369 . S
C1261 C1270 1.429 . S
C1262 C1260 1.419 . S
C1262 C1263 1.363 . S
C1262 H1265 0.929 . S
C1263 C1262 1.363 . S
C1263 C1269 1.428 . S
H1264 C1260 0.930 . S
H1265 C1262 0.929 . S
S1266 N1267 1.613 . S
S1266 N1268 1.610 . S
N1267 S1266 1.613 . S
N1267 C1270 1.350 . S
N1268 S1266 1.610 . S
N1268 C1269 1.351 . S
C1269 C1263 1.428 . S
C1269 N1268 1.351 . S
C1269 C1270 1.434 . S
C1270 C1261 1.429 . S
C1270 N1267 1.350 . S
C1270 C1269 1.434 . S
C1271 C1272 1.369 . S
C1271 C1273 1.419 . S
C1271 H1275 0.930 . S
C1272 C1271 1.369 . S
C1272 C1281 1.429 . S
C1273 C1271 1.419 . S
C1273 C1274 1.363 . S
C1273 H1276 0.929 . S
C1274 C1273 1.363 . S
C1274 C1280 1.428 . S
H1275 C1271 0.930 . S
H1276 C1273 0.929 . S
S1277 N1278 1.613 . S
S1277 N1279 1.610 . S
N1278 S1277 1.613 . S
N1278 C1281 1.350 . S
N1279 S1277 1.610 . S
N1279 C1280 1.351 . S
C1280 C1274 1.428 . S
C1280 N1279 1.351 . S
C1280 C1281 1.434 . S
C1281 C1272 1.429 . S
C1281 N1278 1.350 . S
C1281 C1280 1.434 . S
C1282 C1283 1.369 . S
C1282 C1284 1.419 . S
C1282 H1286 0.930 . S
C1283 C1282 1.369 . S
C1283 C1292 1.429 . S
C1284 C1282 1.419 . S
C1284 C1285 1.363 . S
C1284 H1287 0.929 . S
C1285 C1284 1.363 . S
C1285 C1291 1.428 . S
H1286 C1282 0.930 . S
H1287 C1284 0.929 . S
S1288 N1289 1.613 . S
S1288 N1290 1.610 . S
N1289 S1288 1.613 . S
N1289 C1292 1.350 . S
N1290 S1288 1.610 . S
N1290 C1291 1.351 . S
C1291 C1285 1.428 . S
C1291 N1290 1.351 . S
C1291 C1292 1.434 . S
C1292 C1283 1.429 . S
C1292 N1289 1.350 . S
C1292 C1291 1.434 . S
C1293 C1294 1.369 . S
C1293 C1295 1.419 1_556 S
C1293 H1297 0.930 . S
C1294 C1293 1.369 . S
C1294 C1303 1.429 . S
C1295 C1293 1.419 1_554 S
C1295 C1296 1.363 . S
C1295 H1298 0.929 . S
C1296 C1295 1.363 . S
C1296 C1302 1.428 . S
H1297 C1293 0.930 . S
H1298 C1295 0.929 . S
S1299 N1300 1.613 . S
S1299 N1301 1.610 1_556 S
N1300 S1299 1.613 . S
N1300 C1303 1.350 . S
N1301 S1299 1.610 1_554 S
N1301 C1302 1.351 . S
C1302 C1296 1.428 . S
C1302 N1301 1.351 . S
C1302 C1303 1.434 1_554 S
C1303 C1294 1.429 . S
C1303 N1300 1.350 . S
C1303 C1302 1.434 1_556 S
C1304 C1305 1.369 . S
C1304 C1306 1.419 . S
C1304 H1308 0.930 . S
C1305 C1304 1.369 . S
C1305 C1314 1.429 . S
C1306 C1304 1.419 . S
C1306 C1307 1.363 . S
C1306 H1309 0.929 . S
C1307 C1306 1.363 . S
C1307 C1313 1.428 . S
H1308 C1304 0.930 . S
H1309 C1306 0.929 . S
S1310 N1311 1.613 . S
S1310 N1312 1.610 . S
N1311 S1310 1.613 . S
N1311 C1314 1.350 . S
N1312 S1310 1.610 . S
N1312 C1313 1.351 . S
C1313 C1307 1.428 . S
C1313 N1312 1.351 . S
C1313 C1314 1.434 . S
C1314 C1305 1.429 . S
C1314 N1311 1.350 . S
C1314 C1313 1.434 . S
C1315 C1316 1.369 . S
C1315 C1317 1.419 . S
C1315 H1319 0.930 . S
C1316 C1315 1.369 . S
C1316 C1325 1.429 . S
C1317 C1315 1.419 . S
C1317 C1318 1.362 1_545 S
C1317 H1320 0.929 1_545 S
C1318 C1317 1.362 1_565 S
C1318 C1324 1.408 1_565 S
H1319 C1315 0.930 . S
H1320 C1317 0.929 1_565 S
S1321 N1322 1.613 . S
S1321 N1323 1.610 . S
N1322 S1321 1.613 . S
N1322 C1325 1.350 . S
N1323 S1321 1.610 . S
N1323 C1324 1.351 . S
C1324 C1318 1.408 1_545 S
C1324 N1323 1.351 . S
C1324 C1325 1.434 . S
C1325 C1316 1.429 . S
C1325 N1322 1.350 . S
C1325 C1324 1.434 . S
C1326 C1327 1.369 . S
C1326 C1328 1.419 . S
C1326 H1330 0.930 . S
C1327 C1326 1.369 . S
C1327 C1336 1.429 . S
C1328 C1326 1.419 . S
C1328 C1329 1.363 . S
C1328 H1331 0.929 . S
C1329 C1328 1.363 . S
C1329 C1335 1.428 . S
H1330 C1326 0.930 . S
H1331 C1328 0.929 . S
S1332 N1333 1.613 . S
S1332 N1334 1.610 . S
N1333 S1332 1.613 . S
N1333 C1336 1.350 . S
N1334 S1332 1.610 . S
N1334 C1335 1.351 . S
C1335 C1329 1.428 . S
C1335 N1334 1.351 . S
C1335 C1336 1.434 . S
C1336 C1327 1.429 . S
C1336 N1333 1.350 . S
C1336 C1335 1.434 . S
C1337 C1338 1.369 . S
C1337 C1339 1.419 1_565 S
C1337 H1341 0.930 . S
C1338 C1337 1.369 . S
C1338 C1347 1.429 . S
C1339 C1337 1.419 1_545 S
C1339 C1340 1.363 . S
C1339 H1342 0.929 . S
C1340 C1339 1.363 . S
C1340 C1346 1.428 1_545 S
H1341 C1337 0.930 . S
H1342 C1339 0.929 . S
S1343 N1344 1.613 . S
S1343 N1345 1.610 . S
N1344 S1343 1.613 . S
N1344 C1347 1.350 . S
N1345 S1343 1.610 . S
N1345 C1346 1.351 . S
C1346 C1340 1.428 1_565 S
C1346 N1345 1.351 . S
C1346 C1347 1.434 . S
C1347 C1338 1.429 . S
C1347 N1344 1.350 . S
C1347 C1346 1.434 . S
C1348 C1349 1.369 . S
C1348 C1350 1.419 . S
C1348 H1352 0.930 . S
C1349 C1348 1.369 . S
C1349 C1358 1.429 . S
C1350 C1348 1.419 . S
C1350 C1351 1.363 . S
C1350 H1353 0.929 . S
C1351 C1350 1.363 . S
C1351 C1357 1.428 . S
H1352 C1348 0.930 . S
H1353 C1350 0.929 . S
S1354 N1355 1.613 . S
S1354 N1356 1.610 . S
N1355 S1354 1.613 . S
N1355 C1358 1.350 . S
N1356 S1354 1.610 . S
N1356 C1357 1.351 . S
C1357 C1351 1.428 . S
C1357 N1356 1.351 . S
C1357 C1358 1.434 . S
C1358 C1349 1.429 . S
C1358 N1355 1.350 . S
C1358 C1357 1.434 . S
C1359 C1360 1.369 . S
C1359 C1361 1.419 1_545 S
C1359 H1363 0.930 . S
C1360 C1359 1.369 . S
C1360 C1369 1.429 . S
C1361 C1359 1.419 1_565 S
C1361 C1362 1.363 . S
C1361 H1364 0.929 . S
C1362 C1361 1.363 . S
C1362 C1368 1.428 1_565 S
H1363 C1359 0.930 . S
H1364 C1361 0.929 . S
S1365 N1366 1.613 . S
S1365 N1367 1.610 . S
N1366 S1365 1.613 . S
N1366 C1369 1.350 . S
N1367 S1365 1.610 . S
N1367 C1368 1.351 . S
C1368 C1362 1.428 1_545 S
C1368 N1367 1.351 . S
C1368 C1369 1.434 . S
C1369 C1360 1.429 . S
C1369 N1366 1.350 . S
C1369 C1368 1.434 . S
C1370 C1371 1.369 . S
C1370 C1372 1.419 . S
C1370 H1374 0.930 . S
C1371 C1370 1.369 . S
C1371 C1380 1.429 . S
C1372 C1370 1.419 . S
C1372 C1373 1.363 . S
C1372 H1375 0.929 . S
C1373 C1372 1.363 . S
C1373 C1379 1.428 . S
H1374 C1370 0.930 . S
H1375 C1372 0.929 . S
S1376 N1377 1.613 . S
S1376 N1378 1.610 . S
N1377 S1376 1.613 . S
N1377 C1380 1.350 . S
N1378 S1376 1.610 . S
N1378 C1379 1.351 . S
C1379 C1373 1.428 . S
C1379 N1378 1.351 . S
C1379 C1380 1.434 . S
C1380 C1371 1.429 . S
C1380 N1377 1.350 . S
C1380 C1379 1.434 . S
C1381 C1382 1.369 . S
C1381 C1383 1.419 . S
C1381 H1385 0.930 . S
C1382 C1381 1.369 . S
C1382 C1391 1.429 . S
C1383 C1381 1.419 . S
C1383 C1384 1.363 1_565 S
C1383 H1386 0.929 1_565 S
C1384 C1383 1.363 1_545 S
C1384 C1390 1.428 . S
H1385 C1381 0.930 . S
H1386 C1383 0.929 1_545 S
S1387 N1388 1.613 1_545 S
S1387 N1389 1.610 1_556 S
N1388 S1387 1.613 1_565 S
N1388 C1391 1.350 1_556 S
N1389 S1387 1.610 1_554 S
N1389 C1390 1.351 . S
C1390 C1384 1.428 . S
C1390 N1389 1.351 . S
C1390 C1391 1.434 1_545 S
C1391 C1382 1.429 . S
C1391 N1388 1.350 1_554 S
C1391 C1390 1.434 1_565 S
C1392 C1393 1.369 . S
C1392 C1394 1.419 . S
C1392 H1396 0.930 . S
C1393 C1392 1.369 . S
C1393 C1402 1.429 . S
C1394 C1392 1.419 . S
C1394 C1395 1.363 . S
C1394 H1397 0.929 . S
C1395 C1394 1.363 . S
C1395 C1401 1.428 . S
H1396 C1392 0.930 . S
H1397 C1394 0.929 . S
S1398 N1399 1.613 . S
S1398 N1400 1.610 . S
N1399 S1398 1.613 . S
N1399 C1402 1.350 . S
N1400 S1398 1.610 . S
N1400 C1401 1.351 . S
C1401 C1395 1.428 . S
C1401 N1400 1.351 . S
C1401 C1402 1.434 . S
C1402 C1393 1.429 . S
C1402 N1399 1.350 . S
C1402 C1401 1.434 . S
C1403 C1404 1.369 . S
C1403 C1405 1.419 . S
C1403 H1407 0.930 . S
C1404 C1403 1.369 . S
C1404 C1413 1.429 . S
C1405 C1403 1.419 . S
C1405 C1406 1.363 . S
C1405 H1408 0.929 . S
C1406 C1405 1.363 . S
C1406 C1412 1.428 . S
H1407 C1403 0.930 . S
H1408 C1405 0.929 . S
S1409 N1410 1.613 1_554 S
S1409 N1411 1.610 1_554 S
N1410 S1409 1.613 1_556 S
N1410 C1413 1.350 . S
N1411 S1409 1.610 1_556 S
N1411 C1412 1.351 . S
C1412 C1406 1.428 . S
C1412 N1411 1.351 . S
C1412 C1413 1.434 . S
C1413 C1404 1.429 . S
C1413 N1410 1.350 . S
C1413 C1412 1.434 . S
C1414 C1415 1.369 . S
C1414 C1416 1.419 . S
C1414 H1418 0.930 . S
C1415 C1414 1.369 . S
C1415 C1424 1.429 . S
C1416 C1414 1.419 . S
C1416 C1417 1.363 1_455 S
C1416 H1419 0.929 . S
C1417 C1416 1.363 1_655 S
C1417 C1423 1.428 . S
H1418 C1414 0.930 . S
H1419 C1416 0.929 . S
S1420 N1421 1.613 1_655 S
S1420 N1422 1.610 . S
N1421 S1420 1.613 1_455 S
N1421 C1424 1.350 . S
N1422 S1420 1.610 . S
N1422 C1423 1.351 . S
C1423 C1417 1.428 . S
C1423 N1422 1.351 . S
C1423 C1424 1.434 1_655 S
C1424 C1415 1.429 . S
C1424 N1421 1.350 . S
C1424 C1423 1.434 1_455 S
C1425 C1426 1.369 . S
C1425 C1427 1.419 . S
C1425 H1429 0.930 . S
C1426 C1425 1.369 . S
C1426 C1435 1.429 . S
C1427 C1425 1.419 . S
C1427 C1428 1.363 . S
C1427 H1430 0.929 . S
C1428 C1427 1.363 . S
C1428 C1434 1.428 . S
H1429 C1425 0.930 . S
H1430 C1427 0.929 . S
S1431 N1432 1.613 . S
S1431 N1433 1.610 . S
N1432 S1431 1.613 . S
N1432 C1435 1.350 . S
N1433 S1431 1.610 . S
N1433 C1434 1.351 . S
C1434 C1428 1.428 . S
C1434 N1433 1.351 . S
C1434 C1435 1.434 . S
C1435 C1426 1.429 . S
C1435 N1432 1.350 . S
C1435 C1434 1.434 . S
C1436 C1437 1.369 . S
C1436 C1438 1.419 . S
C1436 H1440 0.930 . S
C1437 C1436 1.369 . S
C1437 C1446 1.429 . S
C1438 C1436 1.419 . S
C1438 C1439 1.363 1_655 S
C1438 H1441 0.929 . S
C1439 C1438 1.363 1_455 S
C1439 C1445 1.428 . S
H1440 C1436 0.930 . S
H1441 C1438 0.929 . S
S1442 N1443 1.613 1_455 S
S1442 N1444 1.610 . S
N1443 S1442 1.613 1_655 S
N1443 C1446 1.350 . S
N1444 S1442 1.610 . S
N1444 C1445 1.351 . S
C1445 C1439 1.428 . S
C1445 N1444 1.351 . S
C1445 C1446 1.434 1_455 S
C1446 C1437 1.429 . S
C1446 N1443 1.350 . S
C1446 C1445 1.434 1_655 S
C1447 C1448 1.369 . S
C1447 C1449 1.419 . S
C1447 H1451 0.930 . S
C1448 C1447 1.369 . S
C1448 C1457 1.429 . S
C1449 C1447 1.419 . S
C1449 C1450 1.363 . S
C1449 H1452 0.929 . S
C1450 C1449 1.363 . S
C1450 C1456 1.428 . S
H1451 C1447 0.930 . S
H1452 C1449 0.929 . S
S1453 N1454 1.613 . S
S1453 N1455 1.610 . S
N1454 S1453 1.613 . S
N1454 C1457 1.350 . S
N1455 S1453 1.610 . S
N1455 C1456 1.351 . S
C1456 C1450 1.428 . S
C1456 N1455 1.351 . S
C1456 C1457 1.434 . S
C1457 C1448 1.429 . S
C1457 N1454 1.350 . S
C1457 C1456 1.434 . S
C1458 C1459 1.369 . S
C1458 C1460 1.419 . S
C1458 H1462 0.930 . S
C1459 C1458 1.369 . S
C1459 C1468 1.429 . S
C1460 C1458 1.419 . S
C1460 C1461 1.363 1_455 S
C1460 H1463 0.929 . S
C1461 C1460 1.363 1_655 S
C1461 C1467 1.428 . S
H1462 C1458 0.930 . S
H1463 C1460 0.929 . S
S1464 N1465 1.613 1_655 S
S1464 N1466 1.610 . S
N1465 S1464 1.613 1_455 S
N1465 C1468 1.350 . S
N1466 S1464 1.610 . S
N1466 C1467 1.351 . S
C1467 C1461 1.428 . S
C1467 N1466 1.351 . S
C1467 C1468 1.434 1_655 S
C1468 C1459 1.429 . S
C1468 N1465 1.350 . S
C1468 C1467 1.434 1_455 S
C1469 C1470 1.369 . S
C1469 C1471 1.419 . S
C1469 H1473 0.930 . S
C1470 C1469 1.369 . S
C1470 C1479 1.429 . S
C1471 C1469 1.419 . S
C1471 C1472 1.363 . S
C1471 H1474 0.929 . S
C1472 C1471 1.363 . S
C1472 C1478 1.428 . S
H1473 C1469 0.930 . S
H1474 C1471 0.929 . S
S1475 N1476 1.613 . S
S1475 N1477 1.610 . S
N1476 S1475 1.613 . S
N1476 C1479 1.350 . S
N1477 S1475 1.610 . S
N1477 C1478 1.351 . S
C1478 C1472 1.428 . S
C1478 N1477 1.351 . S
C1478 C1479 1.434 . S
C1479 C1470 1.429 . S
C1479 N1476 1.350 . S
C1479 C1478 1.434 . S
C1480 C1481 1.369 . S
C1480 C1482 1.419 . S
C1480 H1484 0.930 . S
C1481 C1480 1.369 . S
C1481 C1490 1.429 . S
C1482 C1480 1.419 . S
C1482 C1483 1.363 . S
C1482 H1485 0.929 . S
C1483 C1482 1.363 . S
C1483 C1489 1.428 . S
H1484 C1480 0.930 . S
H1485 C1482 0.929 . S
S1486 N1487 1.613 . S
S1486 N1488 1.610 . S
N1487 S1486 1.613 . S
N1487 C1490 1.350 . S
N1488 S1486 1.610 . S
N1488 C1489 1.351 . S
C1489 C1483 1.428 . S
C1489 N1488 1.351 . S
C1489 C1490 1.434 . S
C1490 C1481 1.429 . S
C1490 N1487 1.350 . S
C1490 C1489 1.434 . S
C1491 C1492 1.369 . S
C1491 C1493 1.419 . S
C1491 H1495 0.930 . S
C1492 C1491 1.369 . S
C1492 C1501 1.429 . S
C1493 C1491 1.419 . S
C1493 C1494 1.363 . S
C1493 H1496 0.929 . S
C1494 C1493 1.363 . S
C1494 C1500 1.428 . S
H1495 C1491 0.930 . S
H1496 C1493 0.929 . S
S1497 N1498 1.613 . S
S1497 N1499 1.610 . S
N1498 S1497 1.613 . S
N1498 C1501 1.350 . S
N1499 S1497 1.610 . S
N1499 C1500 1.351 . S
C1500 C1494 1.428 . S
C1500 N1499 1.351 . S
C1500 C1501 1.434 . S
C1501 C1492 1.429 . S
C1501 N1498 1.350 . S
C1501 C1500 1.434 . S
C1502 C1503 1.369 . S
C1502 C1504 1.419 . S
C1502 H1506 0.930 . S
C1503 C1502 1.369 . S
C1503 C1512 1.429 . S
C1504 C1502 1.419 . S
C1504 C1505 1.363 . S
C1504 H1507 0.929 . S
C1505 C1504 1.363 . S
C1505 C1511 1.428 . S
H1506 C1502 0.930 . S
H1507 C1504 0.929 . S
S1508 N1509 1.613 . S
S1508 N1510 1.610 . S
N1509 S1508 1.613 . S
N1509 C1512 1.350 . S
N1510 S1508 1.610 . S
N1510 C1511 1.351 . S
C1511 C1505 1.428 . S
C1511 N1510 1.351 . S
C1511 C1512 1.434 . S
C1512 C1503 1.429 . S
C1512 N1509 1.350 . S
C1512 C1511 1.434 . S
C1513 C1514 1.369 . S
C1513 C1515 1.419 1_556 S
C1513 H1517 0.930 . S
C1514 C1513 1.369 . S
C1514 C1523 1.429 . S
C1515 C1513 1.419 1_554 S
C1515 C1516 1.363 . S
C1515 H1518 0.929 . S
C1516 C1515 1.363 . S
C1516 C1522 1.428 1_554 S
H1517 C1513 0.930 . S
H1518 C1515 0.929 . S
S1519 N1520 1.613 . S
S1519 N1521 1.610 . S
N1520 S1519 1.613 . S
N1520 C1523 1.350 . S
N1521 S1519 1.610 . S
N1521 C1522 1.351 . S
C1522 C1516 1.428 1_556 S
C1522 N1521 1.351 . S
C1522 C1523 1.434 . S
C1523 C1514 1.429 . S
C1523 N1520 1.350 . S
C1523 C1522 1.434 . S
C1524 C1525 1.369 . S
C1524 C1526 1.419 . S
C1524 H1528 0.930 . S
C1525 C1524 1.369 . S
C1525 C1534 1.429 . S
C1526 C1524 1.419 . S
C1526 C1527 1.363 . S
C1526 H1529 0.929 . S
C1527 C1526 1.363 . S
C1527 C1533 1.428 . S
H1528 C1524 0.930 . S
H1529 C1526 0.929 . S
S1530 N1531 1.613 . S
S1530 N1532 1.610 1_455 S
N1531 S1530 1.613 . S
N1531 C1534 1.350 1_455 S
N1532 S1530 1.610 1_655 S
N1532 C1533 1.351 . S
C1533 C1527 1.428 . S
C1533 N1532 1.351 . S
C1533 C1534 1.434 . S
C1534 C1525 1.429 . S
C1534 N1531 1.350 1_655 S
C1534 C1533 1.434 . S
C1535 C1536 1.369 . S
C1535 C1537 1.419 . S
C1535 H1539 0.930 . S
C1536 C1535 1.369 . S
C1536 C1545 1.429 . S
C1537 C1535 1.419 . S
C1537 C1538 1.363 . S
C1537 H1540 0.929 . S
C1538 C1537 1.363 . S
C1538 C1544 1.428 . S
H1539 C1535 0.930 . S
H1540 C1537 0.929 . S
S1541 N1542 1.613 . S
S1541 N1543 1.610 . S
N1542 S1541 1.613 . S
N1542 C1545 1.350 . S
N1543 S1541 1.610 . S
N1543 C1544 1.351 . S
C1544 C1538 1.428 . S
C1544 N1543 1.351 . S
C1544 C1545 1.434 . S
C1545 C1536 1.429 . S
C1545 N1542 1.350 . S
C1545 C1544 1.434 . S
C1546 C1547 1.369 . S
C1546 C1548 1.419 . S
C1546 H1550 0.930 . S
C1547 C1546 1.369 . S
C1547 C1556 1.429 . S
C1548 C1546 1.419 . S
C1548 C1549 1.363 . S
C1548 H1551 0.929 . S
C1549 C1548 1.363 . S
C1549 C1555 1.428 . S
H1550 C1546 0.930 . S
H1551 C1548 0.929 . S
S1552 N1553 1.613 . S
S1552 N1554 1.610 . S
N1553 S1552 1.613 . S
N1553 C1556 1.350 . S
N1554 S1552 1.610 . S
N1554 C1555 1.351 . S
C1555 C1549 1.428 . S
C1555 N1554 1.351 . S
C1555 C1556 1.434 . S
C1556 C1547 1.429 . S
C1556 N1553 1.350 . S
C1556 C1555 1.434 . S
C1557 C1558 1.369 . S
C1557 C1559 1.419 . S
C1557 H1561 0.930 . S
C1558 C1557 1.369 . S
C1558 C1567 1.429 . S
C1559 C1557 1.419 . S
C1559 C1560 1.363 1_554 S
C1559 H1562 0.929 . S
C1560 C1559 1.363 1_556 S
C1560 C1566 1.428 1_556 S
H1561 C1557 0.930 . S
H1562 C1559 0.929 . S
S1563 N1564 1.613 . S
S1563 N1565 1.610 1_554 S
N1564 S1563 1.613 . S
N1564 C1567 1.350 . S
N1565 S1563 1.610 1_556 S
N1565 C1566 1.351 1_556 S
C1566 C1560 1.428 1_554 S
C1566 N1565 1.351 1_554 S
C1566 C1567 1.434 . S
C1567 C1558 1.429 . S
C1567 N1564 1.350 . S
C1567 C1566 1.434 . S
C1568 C1569 1.369 . S
C1568 C1570 1.419 . S
C1568 H1572 0.930 . S
C1569 C1568 1.369 . S
C1569 C1578 1.429 . S
C1570 C1568 1.419 . S
C1570 C1571 1.363 . S
C1570 H1573 0.929 . S
C1571 C1570 1.363 . S
C1571 C1577 1.428 . S
H1572 C1568 0.930 . S
H1573 C1570 0.929 . S
S1574 N1575 1.613 . S
S1574 N1576 1.610 . S
N1575 S1574 1.613 . S
N1575 C1578 1.350 . S
N1576 S1574 1.610 . S
N1576 C1577 1.351 . S
C1577 C1571 1.428 . S
C1577 N1576 1.351 . S
C1577 C1578 1.434 . S
C1578 C1569 1.429 . S
C1578 N1575 1.350 . S
C1578 C1577 1.434 . S
C1579 C1580 1.369 . S
C1579 C1581 1.419 . S
C1579 H1583 0.930 . S
C1580 C1579 1.369 . S
C1580 C1589 1.429 . S
C1581 C1579 1.419 . S
C1581 C1582 1.363 1_565 S
C1581 H1584 0.929 . S
C1582 C1581 1.363 1_545 S
C1582 C1588 1.428 . S
H1583 C1579 0.930 . S
H1584 C1581 0.929 . S
S1585 N1586 1.613 1_545 S
S1585 N1587 1.610 . S
N1586 S1585 1.613 1_565 S
N1586 C1589 1.350 . S
N1587 S1585 1.610 . S
N1587 C1588 1.351 . S
C1588 C1582 1.428 . S
C1588 N1587 1.351 . S
C1588 C1589 1.434 1_545 S
C1589 C1580 1.429 . S
C1589 N1586 1.350 . S
C1589 C1588 1.434 1_565 S
C1590 C1591 1.369 . S
C1590 C1592 1.419 . S
C1590 H1594 0.930 . S
C1591 C1590 1.369 . S
C1591 C1600 1.429 . S
C1592 C1590 1.419 . S
C1592 C1593 1.363 . S
C1592 H1595 0.929 . S
C1593 C1592 1.363 . S
C1593 C1599 1.428 . S
H1594 C1590 0.930 . S
H1595 C1592 0.929 . S
S1596 N1597 1.613 . S
S1596 N1598 1.610 . S
N1597 S1596 1.613 . S
N1597 C1600 1.350 . S
N1598 S1596 1.610 . S
N1598 C1599 1.351 . S
C1599 C1593 1.428 . S
C1599 N1598 1.351 . S
C1599 C1600 1.434 . S
C1600 C1591 1.429 . S
C1600 N1597 1.350 . S
C1600 C1599 1.434 . S
C1601 C1602 1.369 . S
C1601 C1603 1.419 1_545 S
C1601 H1605 0.930 . S
C1602 C1601 1.369 . S
C1602 C1611 1.429 . S
C1603 C1601 1.419 1_565 S
C1603 C1604 1.363 . S
C1603 H1606 0.929 . S
C1604 C1603 1.363 . S
C1604 C1610 1.428 1_565 S
H1605 C1601 0.930 . S
H1606 C1603 0.929 . S
S1607 N1608 1.613 . S
S1607 N1609 1.610 . S
N1608 S1607 1.613 . S
N1608 C1611 1.350 . S
N1609 S1607 1.610 . S
N1609 C1610 1.351 . S
C1610 C1604 1.428 1_545 S
C1610 N1609 1.351 . S
C1610 C1611 1.434 . S
C1611 C1602 1.429 . S
C1611 N1608 1.350 . S
C1611 C1610 1.434 . S
C1612 C1613 1.369 . S
C1612 C1614 1.419 . S
C1612 H1616 0.930 . S
C1613 C1612 1.369 . S
C1613 C1622 1.429 . S
C1614 C1612 1.419 . S
C1614 C1615 1.363 . S
C1614 H1617 0.929 . S
C1615 C1614 1.363 . S
C1615 C1621 1.428 . S
H1616 C1612 0.930 . S
H1617 C1614 0.929 . S
S1618 N1619 1.616 . S
S1618 N1620 1.610 1_565 S
N1619 S1618 1.616 . S
N1619 C1622 1.329 1_565 S
N1620 S1618 1.610 1_545 S
N1620 C1621 1.351 . S
C1621 C1615 1.428 . S
C1621 N1620 1.351 . S
C1621 C1622 1.434 . S
C1622 C1613 1.429 . S
C1622 N1619 1.329 1_545 S
C1622 C1621 1.434 . S
C1623 C1624 1.369 . S
C1623 C1625 1.419 1_565 S
C1623 H1627 0.930 . S
C1624 C1623 1.369 . S
C1624 C1633 1.429 . S
C1625 C1623 1.419 1_545 S
C1625 C1626 1.363 . S
C1625 H1628 0.929 . S
C1626 C1625 1.363 . S
C1626 C1632 1.428 1_545 S
H1627 C1623 0.930 . S
H1628 C1625 0.929 . S
S1629 N1630 1.613 . S
S1629 N1631 1.610 . S
N1630 S1629 1.613 . S
N1630 C1633 1.350 . S
N1631 S1629 1.610 . S
N1631 C1632 1.351 . S
C1632 C1626 1.428 1_565 S
C1632 N1631 1.351 . S
C1632 C1633 1.434 . S
C1633 C1624 1.429 . S
C1633 N1630 1.350 . S
C1633 C1632 1.434 . S
C1634 C1635 1.369 . S
C1634 C1636 1.419 . S
C1634 H1638 0.930 . S
C1635 C1634 1.369 . S
C1635 C1644 1.429 . S
C1636 C1634 1.419 . S
C1636 C1637 1.363 . S
C1636 H1639 0.929 . S
C1637 C1636 1.363 . S
C1637 C1643 1.428 . S
H1638 C1634 0.930 . S
H1639 C1636 0.929 . S
S1640 N1641 1.613 . S
S1640 N1642 1.610 1_545 S
N1641 S1640 1.613 . S
N1641 C1644 1.350 1_545 S
N1642 S1640 1.610 1_565 S
N1642 C1643 1.351 . S
C1643 C1637 1.428 . S
C1643 N1642 1.351 . S
C1643 C1644 1.434 . S
C1644 C1635 1.429 . S
C1644 N1641 1.350 1_565 S
C1644 C1643 1.434 . S
C1645 C1646 1.369 . S
C1645 C1647 1.419 . S
C1645 H1649 0.930 . S
C1646 C1645 1.369 . S
C1646 C1655 1.429 . S
C1647 C1645 1.419 . S
C1647 C1648 1.363 1_545 S
C1647 H1650 0.929 . S
C1648 C1647 1.363 1_565 S
C1648 C1654 1.428 . S
H1649 C1645 0.930 . S
H1650 C1647 0.929 . S
S1651 N1652 1.613 1_565 S
S1651 N1653 1.610 . S
N1652 S1651 1.613 1_545 S
N1652 C1655 1.350 . S
N1653 S1651 1.610 . S
N1653 C1654 1.351 . S
C1654 C1648 1.428 . S
C1654 N1653 1.351 . S
C1654 C1655 1.434 1_565 S
C1655 C1646 1.429 . S
C1655 N1652 1.350 . S
C1655 C1654 1.434 1_545 S
C1656 C1657 1.369 . S
C1656 C1658 1.419 . S
C1656 H1660 0.930 . S
C1657 C1656 1.369 . S
C1657 C1666 1.429 . S
C1658 C1656 1.419 . S
C1658 C1659 1.363 . S
C1658 H1661 0.929 . S
C1659 C1658 1.363 . S
C1659 C1665 1.428 . S
H1660 C1656 0.930 . S
H1661 C1658 0.929 . S
S1662 N1663 1.613 . S
S1662 N1664 1.610 . S
N1663 S1662 1.613 . S
N1663 C1666 1.350 . S
N1664 S1662 1.610 . S
N1664 C1665 1.351 . S
C1665 C1659 1.428 . S
C1665 N1664 1.351 . S
C1665 C1666 1.434 . S
C1666 C1657 1.429 . S
C1666 N1663 1.350 . S
C1666 C1665 1.434 . S
C1667 C1668 1.369 . S
C1667 C1669 1.419 . S
C1667 H1671 0.930 . S
C1668 C1667 1.369 . S
C1668 C1677 1.429 . S
C1669 C1667 1.419 . S
C1669 C1670 1.363 . S
C1669 H1672 0.929 . S
C1670 C1669 1.363 . S
C1670 C1676 1.428 . S
H1671 C1667 0.930 . S
H1672 C1669 0.929 . S
S1673 N1674 1.613 . S
S1673 N1675 1.610 . S
N1674 S1673 1.613 . S
N1674 C1677 1.350 . S
N1675 S1673 1.610 . S
N1675 C1676 1.351 . S
C1676 C1670 1.428 . S
C1676 N1675 1.351 . S
C1676 C1677 1.434 . S
C1677 C1668 1.429 . S
C1677 N1674 1.350 . S
C1677 C1676 1.434 . S
C1678 C1679 1.369 . S
C1678 C1680 1.419 1_655 S
C1678 H1682 0.930 . S
C1679 C1678 1.369 . S
C1679 C1688 1.429 . S
C1680 C1678 1.419 1_455 S
C1680 C1681 1.363 . S
C1680 H1683 0.929 . S
C1681 C1680 1.363 . S
C1681 C1687 1.428 1_455 S
H1682 C1678 0.930 . S
H1683 C1680 0.929 . S
S1684 N1685 1.613 . S
S1684 N1686 1.610 . S
N1685 S1684 1.613 . S
N1685 C1688 1.350 . S
N1686 S1684 1.610 . S
N1686 C1687 1.351 . S
C1687 C1681 1.428 1_655 S
C1687 N1686 1.351 . S
C1687 C1688 1.434 . S
C1688 C1679 1.429 . S
C1688 N1685 1.350 . S
C1688 C1687 1.434 . S
C1689 C1690 1.369 . S
C1689 C1691 1.419 . S
C1689 H1693 0.930 . S
C1690 C1689 1.369 . S
C1690 C1699 1.429 . S
C1691 C1689 1.419 . S
C1691 C1692 1.363 . S
C1691 H1694 0.929 . S
C1692 C1691 1.363 . S
C1692 C1698 1.428 . S
H1693 C1689 0.930 . S
H1694 C1691 0.929 . S
S1695 N1696 1.613 . S
S1695 N1697 1.610 . S
N1696 S1695 1.613 . S
N1696 C1699 1.350 . S
N1697 S1695 1.610 . S
N1697 C1698 1.351 . S
C1698 C1692 1.428 . S
C1698 N1697 1.351 . S
C1698 C1699 1.434 . S
C1699 C1690 1.429 . S
C1699 N1696 1.350 . S
C1699 C1698 1.434 . S
C1700 C1701 1.369 . S
C1700 C1702 1.419 . S
C1700 H1704 0.930 . S
C1701 C1700 1.369 . S
C1701 C1710 1.429 . S
C1702 C1700 1.419 . S
C1702 C1703 1.363 1_455 S
C1702 H1705 0.929 1_455 S
C1703 C1702 1.363 1_655 S
C1703 C1709 1.428 1_655 S
H1704 C1700 0.930 . S
H1705 C1702 0.929 1_655 S
S1706 N1707 1.613 . S
S1706 N1708 1.610 . S
N1707 S1706 1.613 . S
N1707 C1710 1.350 . S
N1708 S1706 1.610 . S
N1708 C1709 1.351 . S
C1709 C1703 1.428 1_455 S
C1709 N1708 1.351 . S
C1709 C1710 1.434 . S
C1710 C1701 1.429 . S
C1710 N1707 1.350 . S
C1710 C1709 1.434 . S
C1711 C1712 1.369 . S
C1711 C1713 1.419 . S
C1711 H1715 0.930 . S
C1712 C1711 1.369 . S
C1712 C1721 1.429 . S
C1713 C1711 1.419 . S
C1713 C1714 1.363 . S
C1713 H1716 0.929 . S
C1714 C1713 1.363 . S
C1714 C1720 1.428 . S
H1715 C1711 0.930 . S
H1716 C1713 0.929 . S
S1717 N1718 1.613 . S
S1717 N1719 1.610 . S
N1718 S1717 1.613 . S
N1718 C1721 1.350 . S
N1719 S1717 1.610 . S
N1719 C1720 1.351 . S
C1720 C1714 1.428 . S
C1720 N1719 1.351 . S
C1720 C1721 1.434 . S
C1721 C1712 1.429 . S
C1721 N1718 1.350 . S
C1721 C1720 1.434 . S
C1722 C1723 1.369 . S
C1722 C1724 1.419 1_655 S
C1722 H1726 0.930 . S
C1723 C1722 1.369 . S
C1723 C1732 1.429 . S
C1724 C1722 1.419 1_455 S
C1724 C1725 1.363 . S
C1724 H1727 0.929 . S
C1725 C1724 1.363 . S
C1725 C1731 1.428 1_455 S
H1726 C1722 0.930 . S
H1727 C1724 0.929 . S
S1728 N1729 1.613 . S
S1728 N1730 1.610 . S
N1729 S1728 1.613 . S
N1729 C1732 1.350 . S
N1730 S1728 1.610 . S
N1730 C1731 1.351 . S
C1731 C1725 1.428 1_655 S
C1731 N1730 1.351 . S
C1731 C1732 1.434 . S
C1732 C1723 1.429 . S
C1732 N1729 1.350 . S
C1732 C1731 1.434 . S
C1733 C1734 1.369 . S
C1733 C1735 1.419 . S
C1733 H1737 0.930 . S
C1734 C1733 1.369 . S
C1734 C1743 1.429 . S
C1735 C1733 1.419 . S
C1735 C1736 1.363 . S
C1735 H1738 0.929 . S
C1736 C1735 1.363 . S
C1736 C1742 1.428 . S
H1737 C1733 0.930 . S
H1738 C1735 0.929 . S
S1739 N1740 1.613 . S
S1739 N1741 1.610 . S
N1740 S1739 1.613 . S
N1740 C1743 1.350 . S
N1741 S1739 1.610 . S
N1741 C1742 1.351 . S
C1742 C1736 1.428 . S
C1742 N1741 1.351 . S
C1742 C1743 1.434 . S
C1743 C1734 1.429 . S
C1743 N1740 1.350 . S
C1743 C1742 1.434 . S
C1744 C1745 1.369 . S
C1744 C1746 1.419 . S
C1744 H1748 0.930 . S
C1745 C1744 1.369 . S
C1745 C1754 1.429 . S
C1746 C1744 1.419 . S
C1746 C1747 1.363 . S
C1746 H1749 0.929 . S
C1747 C1746 1.363 . S
C1747 C1753 1.428 . S
H1748 C1744 0.930 . S
H1749 C1746 0.929 . S
S1750 N1751 1.613 . S
S1750 N1752 1.610 . S
N1751 S1750 1.613 . S
N1751 C1754 1.350 . S
N1752 S1750 1.610 . S
N1752 C1753 1.351 . S
C1753 C1747 1.428 . S
C1753 N1752 1.351 . S
C1753 C1754 1.434 . S
C1754 C1745 1.429 . S
C1754 N1751 1.350 . S
C1754 C1753 1.434 . S
C1755 C1756 1.369 . S
C1755 C1757 1.419 . S
C1755 H1759 0.930 . S
C1756 C1755 1.369 . S
C1756 C1765 1.429 . S
C1757 C1755 1.419 . S
C1757 C1758 1.363 1_554 S
C1757 H1760 0.929 . S
C1758 C1757 1.363 1_556 S
C1758 C1764 1.428 . S
H1759 C1755 0.930 . S
H1760 C1757 0.929 . S
S1761 N1762 1.613 1_556 S
S1761 N1763 1.610 . S
N1762 S1761 1.613 1_554 S
N1762 C1765 1.350 . S
N1763 S1761 1.610 . S
N1763 C1764 1.351 . S
C1764 C1758 1.428 . S
C1764 N1763 1.351 . S
C1764 C1765 1.434 1_556 S
C1765 C1756 1.429 . S
C1765 N1762 1.350 . S
C1765 C1764 1.434 1_554 S
C1766 C1767 1.369 . S
C1766 C1768 1.419 . S
C1766 H1770 0.930 . S
C1767 C1766 1.369 . S
C1767 C1776 1.429 . S
C1768 C1766 1.419 . S
C1768 C1769 1.363 . S
C1768 H1771 0.929 . S
C1769 C1768 1.363 . S
C1769 C1775 1.428 . S
H1770 C1766 0.930 . S
H1771 C1768 0.929 . S
S1772 N1773 1.614 . S
S1772 N1774 1.616 . S
N1773 S1772 1.614 . S
N1773 C1776 1.350 . S
N1774 S1772 1.616 . S
N1774 C1775 1.351 . S
C1775 C1769 1.428 . S
C1775 N1774 1.351 . S
C1775 C1776 1.434 . S
C1776 C1767 1.429 . S
C1776 N1773 1.350 . S
C1776 C1775 1.434 . S
C1777 C1778 1.369 . S
C1777 C1779 1.419 . S
C1777 H1781 0.930 . S
C1778 C1777 1.369 . S
C1778 C1787 1.429 . S
C1779 C1777 1.419 . S
C1779 C1780 1.363 . S
C1779 H1782 0.929 . S
C1780 C1779 1.363 . S
C1780 C1786 1.428 . S
H1781 C1777 0.930 . S
H1782 C1779 0.929 . S
S1783 N1784 1.613 . S
S1783 N1785 1.610 1_455 S
N1784 S1783 1.613 . S
N1784 C1787 1.350 1_455 S
N1785 S1783 1.610 1_655 S
N1785 C1786 1.351 . S
C1786 C1780 1.428 . S
C1786 N1785 1.351 . S
C1786 C1787 1.434 . S
C1787 C1778 1.429 . S
C1787 N1784 1.350 1_655 S
C1787 C1786 1.434 . S
C1788 C1789 1.369 . S
C1788 C1790 1.419 . S
C1788 H1792 0.930 . S
C1789 C1788 1.369 . S
C1789 C1798 1.429 . S
C1790 C1788 1.419 . S
C1790 C1791 1.363 . S
C1790 H1793 0.929 . S
C1791 C1790 1.363 . S
C1791 C1797 1.428 . S
H1792 C1788 0.930 . S
H1793 C1790 0.929 . S
S1794 N1795 1.613 . S
S1794 N1796 1.610 . S
N1795 S1794 1.613 . S
N1795 C1798 1.350 . S
N1796 S1794 1.610 . S
N1796 C1797 1.351 . S
C1797 C1791 1.428 . S
C1797 N1796 1.351 . S
C1797 C1798 1.434 . S
C1798 C1789 1.429 . S
C1798 N1795 1.350 . S
C1798 C1797 1.434 . S
C1799 C1800 1.369 . S
C1799 C1801 1.446 . S
C1799 H1803 0.930 . S
C1800 C1799 1.369 . S
C1800 C1809 1.429 . S
C1801 C1799 1.446 . S
C1801 C1802 1.345 1_556 S
C1801 H1804 0.921 1_556 S
C1802 C1801 1.345 1_554 S
C1802 C1808 1.428 . S
H1803 C1799 0.930 . S
H1804 C1801 0.921 1_554 S
S1805 N1806 1.613 . S
S1805 N1807 1.610 1_556 S
N1806 S1805 1.613 . S
N1806 C1809 1.350 . S
N1807 S1805 1.610 1_554 S
N1807 C1808 1.351 . S
C1808 C1802 1.428 . S
C1808 N1807 1.351 . S
C1808 C1809 1.434 1_554 S
C1809 C1800 1.429 . S
C1809 N1806 1.350 . S
C1809 C1808 1.434 1_556 S
C1810 C1811 1.369 . S
C1810 C1812 1.419 . S
C1810 H1814 0.930 . S
C1811 C1810 1.369 . S
C1811 C1820 1.429 . S
C1812 C1810 1.419 . S
C1812 C1813 1.363 . S
C1812 H1815 0.929 . S
C1813 C1812 1.363 . S
C1813 C1819 1.428 . S
H1814 C1810 0.930 . S
H1815 C1812 0.929 . S
S1816 N1817 1.613 . S
S1816 N1818 1.610 . S
N1817 S1816 1.613 . S
N1817 C1820 1.350 . S
N1818 S1816 1.610 . S
N1818 C1819 1.351 . S
C1819 C1813 1.428 . S
C1819 N1818 1.351 . S
C1819 C1820 1.434 . S
C1820 C1811 1.429 . S
C1820 N1817 1.350 . S
C1820 C1819 1.434 . S
C1821 C1822 1.369 . S
C1821 C1823 1.419 . S
C1821 H1825 0.930 . S
C1822 C1821 1.369 . S
C1822 C1831 1.429 . S
C1823 C1821 1.419 . S
C1823 C1824 1.363 . S
C1823 H1826 0.929 . S
C1824 C1823 1.363 . S
C1824 C1830 1.428 . S
H1825 C1821 0.930 . S
H1826 C1823 0.929 . S
S1827 N1828 1.613 . S
S1827 N1829 1.610 . S
N1828 S1827 1.613 . S
N1828 C1831 1.350 . S
N1829 S1827 1.610 . S
N1829 C1830 1.351 . S
C1830 C1824 1.428 . S
C1830 N1829 1.351 . S
C1830 C1831 1.434 . S
C1831 C1822 1.429 . S
C1831 N1828 1.350 . S
C1831 C1830 1.434 . S
C1832 C1833 1.369 . S
C1832 C1834 1.419 . S
C1832 H1836 0.930 . S
C1833 C1832 1.369 . S
C1833 C1842 1.429 . S
C1834 C1832 1.419 . S
C1834 C1835 1.363 . S
C1834 H1837 0.929 . S
C1835 C1834 1.363 . S
C1835 C1841 1.428 . S
H1836 C1832 0.930 . S
H1837 C1834 0.929 . S
S1838 N1839 1.613 . S
S1838 N1840 1.610 . S
N1839 S1838 1.613 . S
N1839 C1842 1.350 . S
N1840 S1838 1.610 . S
N1840 C1841 1.351 . S
C1841 C1835 1.428 . S
C1841 N1840 1.351 . S
C1841 C1842 1.434 . S
C1842 C1833 1.429 . S
C1842 N1839 1.350 . S
C1842 C1841 1.434 . S
C1843 C1844 1.369 . S
C1843 C1845 1.419 . S
C1843 H1847 0.930 . S
C1844 C1843 1.369 . S
C1844 C1853 1.429 . S
C1845 C1843 1.419 . S
C1845 C1846 1.363 . S
C1845 H1848 0.929 . S
C1846 C1845 1.363 . S
C1846 C1852 1.428 . S
H1847 C1843 0.930 . S
H1848 C1845 0.929 . S
S1849 N1850 1.613 . S
S1849 N1851 1.610 . S
N1850 S1849 1.613 . S
N1850 C1853 1.350 . S
N1851 S1849 1.610 . S
N1851 C1852 1.351 . S
C1852 C1846 1.428 . S
C1852 N1851 1.351 . S
C1852 C1853 1.434 . S
C1853 C1844 1.429 . S
C1853 N1850 1.350 . S
C1853 C1852 1.434 . S
C1854 C1855 1.369 . S
C1854 C1856 1.419 . S
C1854 H1858 0.930 . S
C1855 C1854 1.369 . S
C1855 C1864 1.429 . S
C1856 C1854 1.419 . S
C1856 C1857 1.363 . S
C1856 H1859 0.929 . S
C1857 C1856 1.363 . S
C1857 C1863 1.428 . S
H1858 C1854 0.930 . S
H1859 C1856 0.929 . S
S1860 N1861 1.613 . S
S1860 N1862 1.610 . S
N1861 S1860 1.613 . S
N1861 C1864 1.350 . S
N1862 S1860 1.610 . S
N1862 C1863 1.351 . S
C1863 C1857 1.428 . S
C1863 N1862 1.351 . S
C1863 C1864 1.434 . S
C1864 C1855 1.429 . S
C1864 N1861 1.350 . S
C1864 C1863 1.434 . S
C1865 C1866 1.369 . S
C1865 C1867 1.419 . S
C1865 H1869 0.930 . S
C1866 C1865 1.369 . S
C1866 C1875 1.429 . S
C1867 C1865 1.419 . S
C1867 C1868 1.363 . S
C1867 H1870 0.929 . S
C1868 C1867 1.363 . S
C1868 C1874 1.428 . S
H1869 C1865 0.930 . S
H1870 C1867 0.929 . S
S1871 N1872 1.613 . S
S1871 N1873 1.610 . S
N1872 S1871 1.613 . S
N1872 C1875 1.350 . S
N1873 S1871 1.610 . S
N1873 C1874 1.351 . S
C1874 C1868 1.428 . S
C1874 N1873 1.351 . S
C1874 C1875 1.434 . S
C1875 C1866 1.429 . S
C1875 N1872 1.350 . S
C1875 C1874 1.434 . S
C1876 C1877 1.369 . S
C1876 C1878 1.419 . S
C1876 H1880 0.930 . S
C1877 C1876 1.369 . S
C1877 C1886 1.429 . S
C1878 C1876 1.419 . S
C1878 C1879 1.363 . S
C1878 H1881 0.929 . S
C1879 C1878 1.363 . S
C1879 C1885 1.428 . S
H1880 C1876 0.930 . S
H1881 C1878 0.929 . S
S1882 N1883 1.613 . S
S1882 N1884 1.610 . S
N1883 S1882 1.613 . S
N1883 C1886 1.350 . S
N1884 S1882 1.610 . S
N1884 C1885 1.351 . S
C1885 C1879 1.428 . S
C1885 N1884 1.351 . S
C1885 C1886 1.434 . S
C1886 C1877 1.429 . S
C1886 N1883 1.350 . S
C1886 C1885 1.434 . S
C1887 C1888 1.369 . S
C1887 C1889 1.419 . S
C1887 H1891 0.930 . S
C1888 C1887 1.369 . S
C1888 C1897 1.429 . S
C1889 C1887 1.419 . S
C1889 C1890 1.363 . S
C1889 H1892 0.929 . S
C1890 C1889 1.363 . S
C1890 C1896 1.428 . S
H1891 C1887 0.930 . S
H1892 C1889 0.929 . S
S1893 N1894 1.613 . S
S1893 N1895 1.610 1_556 S
N1894 S1893 1.613 . S
N1894 C1897 1.350 1_556 S
N1895 S1893 1.610 1_554 S
N1895 C1896 1.351 . S
C1896 C1890 1.428 . S
C1896 N1895 1.351 . S
C1896 C1897 1.434 . S
C1897 C1888 1.429 . S
C1897 N1894 1.350 1_554 S
C1897 C1896 1.434 . S
C1898 C1899 1.369 . S
C1898 C1900 1.419 . S
C1898 H1902 0.930 . S
C1899 C1898 1.369 . S
C1899 C1908 1.429 . S
C1900 C1898 1.419 . S
C1900 C1901 1.363 . S
C1900 H1903 0.929 . S
C1901 C1900 1.363 . S
C1901 C1907 1.428 . S
H1902 C1898 0.930 . S
H1903 C1900 0.929 . S
S1904 N1905 1.613 . S
S1904 N1906 1.610 . S
N1905 S1904 1.613 . S
N1905 C1908 1.350 . S
N1906 S1904 1.610 . S
N1906 C1907 1.351 . S
C1907 C1901 1.428 . S
C1907 N1906 1.351 . S
C1907 C1908 1.434 . S
C1908 C1899 1.429 . S
C1908 N1905 1.350 . S
C1908 C1907 1.434 . S
C1909 C1910 1.369 . S
C1909 C1911 1.419 . S
C1909 H1913 0.930 . S
C1910 C1909 1.369 . S
C1910 C1919 1.429 . S
C1911 C1909 1.419 . S
C1911 C1912 1.363 . S
C1911 H1914 0.929 . S
C1912 C1911 1.363 . S
C1912 C1918 1.428 . S
H1913 C1909 0.930 . S
H1914 C1911 0.929 . S
S1915 N1916 1.613 . S
S1915 N1917 1.610 . S
N1916 S1915 1.613 . S
N1916 C1919 1.350 . S
N1917 S1915 1.610 . S
N1917 C1918 1.351 . S
C1918 C1912 1.428 . S
C1918 N1917 1.351 . S
C1918 C1919 1.434 . S
C1919 C1910 1.429 . S
C1919 N1916 1.350 . S
C1919 C1918 1.434 . S
C1920 C1921 1.369 . S
C1920 C1922 1.419 . S
C1920 H1924 0.930 . S
C1921 C1920 1.369 . S
C1921 C1930 1.429 . S
C1922 C1920 1.419 . S
C1922 C1923 1.363 . S
C1922 H1925 0.929 . S
C1923 C1922 1.363 . S
C1923 C1929 1.428 . S
H1924 C1920 0.930 . S
H1925 C1922 0.929 . S
S1926 N1927 1.613 . S
S1926 N1928 1.610 . S
N1927 S1926 1.613 . S
N1927 C1930 1.350 . S
N1928 S1926 1.610 . S
N1928 C1929 1.351 . S
C1929 C1923 1.428 . S
C1929 N1928 1.351 . S
C1929 C1930 1.434 . S
C1930 C1921 1.429 . S
C1930 N1927 1.350 . S
C1930 C1929 1.434 . S
C1931 C1932 1.369 . S
C1931 C1933 1.419 . S
C1931 H1935 0.930 . S
C1932 C1931 1.369 . S
C1932 C1941 1.429 . S
C1933 C1931 1.419 . S
C1933 C1934 1.363 . S
C1933 H1936 0.929 . S
C1934 C1933 1.363 . S
C1934 C1940 1.428 . S
H1935 C1931 0.930 . S
H1936 C1933 0.929 . S
S1937 N1938 1.613 . S
S1937 N1939 1.610 . S
N1938 S1937 1.613 . S
N1938 C1941 1.350 . S
N1939 S1937 1.610 . S
N1939 C1940 1.351 . S
C1940 C1934 1.428 . S
C1940 N1939 1.351 . S
C1940 C1941 1.434 . S
C1941 C1932 1.429 . S
C1941 N1938 1.350 . S
C1941 C1940 1.434 . S
C1942 C1943 1.369 . S
C1942 C1944 1.419 . S
C1942 H1946 0.930 . S
C1943 C1942 1.369 . S
C1943 C1952 1.429 . S
C1944 C1942 1.419 . S
C1944 C1945 1.363 . S
C1944 H1947 0.929 . S
C1945 C1944 1.363 . S
C1945 C1951 1.428 . S
H1946 C1942 0.930 . S
H1947 C1944 0.929 . S
S1948 N1949 1.613 . S
S1948 N1950 1.610 1_545 S
N1949 S1948 1.613 . S
N1949 C1952 1.350 1_545 S
N1950 S1948 1.610 1_565 S
N1950 C1951 1.351 . S
C1951 C1945 1.428 . S
C1951 N1950 1.351 . S
C1951 C1952 1.434 . S
C1952 C1943 1.429 . S
C1952 N1949 1.350 1_565 S
C1952 C1951 1.434 . S
C1953 C1954 1.369 . S
C1953 C1955 1.419 . S
C1953 H1957 0.930 . S
C1954 C1953 1.369 . S
C1954 C1963 1.429 . S
C1955 C1953 1.419 . S
C1955 C1956 1.363 . S
C1955 H1958 0.929 . S
C1956 C1955 1.363 . S
C1956 C1962 1.428 . S
H1957 C1953 0.930 . S
H1958 C1955 0.929 . S
S1959 N1960 1.613 . S
S1959 N1961 1.610 . S
N1960 S1959 1.613 . S
N1960 C1963 1.350 . S
N1961 S1959 1.610 . S
N1961 C1962 1.351 . S
C1962 C1956 1.428 . S
C1962 N1961 1.351 . S
C1962 C1963 1.434 . S
C1963 C1954 1.429 . S
C1963 N1960 1.350 . S
C1963 C1962 1.434 . S
C1964 C1965 1.369 . S
C1964 C1966 1.419 . S
C1964 H1968 0.930 . S
C1965 C1964 1.369 . S
C1965 C1974 1.429 . S
C1966 C1964 1.419 . S
C1966 C1967 1.363 . S
C1966 H1969 0.929 . S
C1967 C1966 1.363 . S
C1967 C1973 1.428 . S
H1968 C1964 0.930 . S
H1969 C1966 0.929 . S
S1970 N1971 1.613 . S
S1970 N1972 1.610 . S
N1971 S1970 1.613 . S
N1971 C1974 1.350 . S
N1972 S1970 1.610 . S
N1972 C1973 1.351 . S
C1973 C1967 1.428 . S
C1973 N1972 1.351 . S
C1973 C1974 1.434 . S
C1974 C1965 1.429 . S
C1974 N1971 1.350 . S
C1974 C1973 1.434 . S
C1975 C1976 1.369 . S
C1975 C1977 1.419 . S
C1975 H1979 0.930 . S
C1976 C1975 1.369 . S
C1976 C1985 1.429 . S
C1977 C1975 1.419 . S
C1977 C1978 1.363 . S
C1977 H1980 0.929 . S
C1978 C1977 1.363 . S
C1978 C1984 1.428 . S
H1979 C1975 0.930 . S
H1980 C1977 0.929 . S
S1981 N1982 1.613 . S
S1981 N1983 1.610 . S
N1982 S1981 1.613 . S
N1982 C1985 1.350 . S
N1983 S1981 1.610 . S
N1983 C1984 1.351 . S
C1984 C1978 1.428 . S
C1984 N1983 1.351 . S
C1984 C1985 1.434 . S
C1985 C1976 1.429 . S
C1985 N1982 1.350 . S
C1985 C1984 1.434 . S
C1986 C1987 1.369 . S
C1986 C1988 1.419 . S
C1986 H1990 0.930 . S
C1987 C1986 1.369 . S
C1987 C1996 1.429 . S
C1988 C1986 1.419 . S
C1988 C1989 1.363 . S
C1988 H1991 0.929 . S
C1989 C1988 1.363 . S
C1989 C1995 1.428 . S
H1990 C1986 0.930 . S
H1991 C1988 0.929 . S
S1992 N1993 1.613 . S
S1992 N1994 1.610 1_565 S
N1993 S1992 1.613 . S
N1993 C1996 1.350 1_565 S
N1994 S1992 1.610 1_545 S
N1994 C1995 1.351 . S
C1995 C1989 1.428 . S
C1995 N1994 1.351 . S
C1995 C1996 1.434 . S
C1996 C1987 1.429 . S
C1996 N1993 1.350 1_545 S
C1996 C1995 1.434 . S
C1997 C1998 1.369 . S
C1997 C1999 1.419 1_655 S
C1997 H2001 0.930 . S
C1998 C1997 1.369 . S
C1998 C2007 1.429 . S
C1999 C1997 1.419 1_455 S
C1999 C2000 1.363 . S
C1999 H2002 0.929 . S
C2000 C1999 1.363 . S
C2000 C2006 1.428 1_455 S
H2001 C1997 0.930 . S
H2002 C1999 0.929 . S
S2003 N2004 1.613 . S
S2003 N2005 1.610 1_645 S
N2004 S2003 1.613 . S
N2004 C2007 1.350 1_545 S
N2005 S2003 1.610 1_465 S
N2005 C2006 1.351 1_455 S
C2006 C2000 1.428 1_655 S
C2006 N2005 1.351 1_655 S
C2006 C2007 1.434 . S
C2007 C1998 1.429 . S
C2007 N2004 1.350 1_565 S
C2007 C2006 1.434 . S
C2008 C2009 1.369 . S
C2008 C2010 1.419 . S
C2008 H2012 0.930 . S
C2009 C2008 1.369 . S
C2009 C2018 1.429 . S
C2010 C2008 1.419 . S
C2010 C2011 1.363 . S
C2010 H2013 0.929 . S
C2011 C2010 1.363 . S
C2011 C2017 1.428 . S
H2012 C2008 0.930 . S
H2013 C2010 0.929 . S
S2014 N2015 1.613 . S
S2014 N2016 1.610 . S
N2015 S2014 1.613 . S
N2015 C2018 1.350 . S
N2016 S2014 1.610 . S
N2016 C2017 1.351 . S
C2017 C2011 1.428 . S
C2017 N2016 1.351 . S
C2017 C2018 1.434 . S
C2018 C2009 1.429 . S
C2018 N2015 1.350 . S
C2018 C2017 1.434 . S
C2019 C2020 1.369 . S
C2019 C2021 1.419 . S
C2019 H2023 0.930 . S
C2020 C2019 1.369 . S
C2020 C2029 1.429 . S
C2021 C2019 1.419 . S
C2021 C2022 1.363 1_556 S
C2021 H2024 0.929 . S
C2022 C2021 1.363 1_554 S
C2022 C2028 1.428 . S
H2023 C2019 0.930 . S
H2024 C2021 0.929 . S
S2025 N2026 1.613 . S
S2025 N2027 1.610 . S
N2026 S2025 1.613 . S
N2026 C2029 1.350 1_554 S
N2027 S2025 1.610 . S
N2027 C2028 1.351 . S
C2028 C2022 1.428 . S
C2028 N2027 1.351 . S
C2028 C2029 1.434 1_554 S
C2029 C2020 1.429 . S
C2029 N2026 1.350 1_556 S
C2029 C2028 1.434 1_556 S
C2030 C2031 1.369 . S
C2030 C2032 1.419 . S
C2030 H2034 0.930 . S
C2031 C2030 1.369 . S
C2031 C2040 1.429 . S
C2032 C2030 1.419 . S
C2032 C2033 1.363 . S
C2032 H2035 0.929 . S
C2033 C2032 1.363 . S
C2033 C2039 1.428 . S
H2034 C2030 0.930 . S
H2035 C2032 0.929 . S
S2036 N2037 1.613 . S
S2036 N2038 1.610 . S
N2037 S2036 1.613 . S
N2037 C2040 1.350 . S
N2038 S2036 1.610 . S
N2038 C2039 1.351 . S
C2039 C2033 1.428 . S
C2039 N2038 1.351 . S
C2039 C2040 1.434 . S
C2040 C2031 1.429 . S
C2040 N2037 1.350 . S
C2040 C2039 1.434 . S
C2041 C2042 1.369 . S
C2041 C2043 1.419 . S
C2041 H2045 0.930 . S
C2042 C2041 1.369 . S
C2042 C2051 1.429 . S
C2043 C2041 1.419 . S
C2043 C2044 1.363 . S
C2043 H2046 0.929 . S
C2044 C2043 1.363 . S
C2044 C2050 1.428 . S
H2045 C2041 0.930 . S
H2046 C2043 0.929 . S
S2047 N2048 1.613 . S
S2047 N2049 1.610 . S
N2048 S2047 1.613 . S
N2048 C2051 1.350 . S
N2049 S2047 1.610 . S
N2049 C2050 1.351 . S
C2050 C2044 1.428 . S
C2050 N2049 1.351 . S
C2050 C2051 1.434 . S
C2051 C2042 1.429 . S
C2051 N2048 1.350 . S
C2051 C2050 1.434 . S
C2052 C2053 1.369 . S
C2052 C2054 1.419 . S
C2052 H2056 0.930 . S
C2053 C2052 1.369 . S
C2053 C2062 1.429 . S
C2054 C2052 1.419 . S
C2054 C2055 1.363 . S
C2054 H2057 0.929 . S
C2055 C2054 1.363 . S
C2055 C2061 1.428 . S
H2056 C2052 0.930 . S
H2057 C2054 0.929 . S
S2058 N2059 1.613 . S
S2058 N2060 1.610 . S
N2059 S2058 1.613 . S
N2059 C2062 1.350 . S
N2060 S2058 1.610 . S
N2060 C2061 1.351 . S
C2061 C2055 1.428 . S
C2061 N2060 1.351 . S
C2061 C2062 1.434 . S
C2062 C2053 1.429 . S
C2062 N2059 1.350 . S
C2062 C2061 1.434 . S
C2063 C2064 1.369 . S
C2063 C2065 1.419 . S
C2063 H2067 0.930 . S
C2064 C2063 1.369 . S
C2064 C2073 1.429 . S
C2065 C2063 1.419 . S
C2065 C2066 1.363 1_554 S
C2065 H2068 0.929 . S
C2066 C2065 1.363 1_556 S
C2066 C2072 1.428 . S
H2067 C2063 0.930 . S
H2068 C2065 0.929 . S
S2069 N2070 1.613 1_656 S
S2069 N2071 1.610 1_655 S
N2070 S2069 1.613 1_454 S
N2070 C2073 1.350 . S
N2071 S2069 1.610 1_455 S
N2071 C2072 1.351 . S
C2072 C2066 1.428 . S
C2072 N2071 1.351 . S
C2072 C2073 1.434 1_556 S
C2073 C2064 1.429 . S
C2073 N2070 1.350 . S
C2073 C2072 1.434 1_554 S
C2074 C2075 1.369 . S
C2074 C2076 1.419 . S
C2074 H2078 0.930 . S
C2075 C2074 1.369 . S
C2075 C2084 1.429 . S
C2076 C2074 1.419 . S
C2076 C2077 1.363 . S
C2076 H2079 0.929 . S
C2077 C2076 1.363 . S
C2077 C2083 1.428 . S
H2078 C2074 0.930 . S
H2079 C2076 0.929 . S
S2080 N2081 1.613 . S
S2080 N2082 1.611 . S
N2081 S2080 1.613 . S
N2081 C2084 1.350 . S
N2082 S2080 1.611 . S
N2082 C2083 1.351 . S
C2083 C2077 1.428 . S
C2083 N2082 1.351 . S
C2083 C2084 1.434 . S
C2084 C2075 1.429 . S
C2084 N2081 1.350 . S
C2084 C2083 1.434 . S
C2085 C2086 1.369 . S
C2085 C2087 1.419 . S
C2085 H2089 0.930 . S
C2086 C2085 1.369 . S
C2086 C2095 1.429 . S
C2087 C2085 1.419 . S
C2087 C2088 1.363 . S
C2087 H2090 0.929 . S
C2088 C2087 1.363 . S
C2088 C2094 1.428 . S
H2089 C2085 0.930 . S
H2090 C2087 0.929 . S
S2091 N2092 1.613 . S
S2091 N2093 1.610 . S
N2092 S2091 1.613 . S
N2092 C2095 1.350 . S
N2093 S2091 1.610 . S
N2093 C2094 1.351 . S
C2094 C2088 1.428 . S
C2094 N2093 1.351 . S
C2094 C2095 1.434 . S
C2095 C2086 1.429 . S
C2095 N2092 1.350 . S
C2095 C2094 1.434 . S
C2096 C2097 1.369 . S
C2096 C2098 1.419 . S
C2096 H2100 0.930 . S
C2097 C2096 1.369 . S
C2097 C2106 1.429 . S
C2098 C2096 1.419 . S
C2098 C2099 1.363 . S
C2098 H2101 0.929 . S
C2099 C2098 1.363 . S
C2099 C2105 1.428 . S
H2100 C2096 0.930 . S
H2101 C2098 0.929 . S
S2102 N2103 1.613 . S
S2102 N2104 1.610 . S
N2103 S2102 1.613 . S
N2103 C2106 1.350 . S
N2104 S2102 1.610 . S
N2104 C2105 1.351 . S
C2105 C2099 1.428 . S
C2105 N2104 1.351 . S
C2105 C2106 1.434 . S
C2106 C2097 1.429 . S
C2106 N2103 1.350 . S
C2106 C2105 1.434 . S
C2107 C2108 1.369 . S
C2107 C2109 1.419 . S
C2107 H2111 0.930 . S
C2108 C2107 1.369 . S
C2108 C2117 1.429 . S
C2109 C2107 1.419 . S
C2109 C2110 1.363 . S
C2109 H2112 0.929 . S
C2110 C2109 1.363 . S
C2110 C2116 1.428 . S
H2111 C2107 0.930 . S
H2112 C2109 0.929 . S
S2113 N2114 1.613 . S
S2113 N2115 1.610 . S
N2114 S2113 1.613 . S
N2114 C2117 1.350 . S
N2115 S2113 1.610 . S
N2115 C2116 1.351 . S
C2116 C2110 1.428 . S
C2116 N2115 1.351 . S
C2116 C2117 1.434 . S
C2117 C2108 1.429 . S
C2117 N2114 1.350 . S
C2117 C2116 1.434 . S
C2118 C2119 1.369 . S
C2118 C2120 1.419 . S
C2118 H2122 0.930 . S
C2119 C2118 1.369 . S
C2119 C2128 1.429 . S
C2120 C2118 1.419 . S
C2120 C2121 1.363 . S
C2120 H2123 0.929 . S
C2121 C2120 1.363 . S
C2121 C2127 1.428 . S
H2122 C2118 0.930 . S
H2123 C2120 0.929 . S
S2124 N2125 1.613 . S
S2124 N2126 1.610 . S
N2125 S2124 1.613 . S
N2125 C2128 1.350 . S
N2126 S2124 1.610 . S
N2126 C2127 1.351 . S
C2127 C2121 1.428 . S
C2127 N2126 1.351 . S
C2127 C2128 1.434 . S
C2128 C2119 1.429 . S
C2128 N2125 1.350 . S
C2128 C2127 1.434 . S
C2129 C2130 1.369 . S
C2129 C2131 1.419 . S
C2129 H2133 0.930 . S
C2130 C2129 1.369 . S
C2130 C2139 1.429 . S
C2131 C2129 1.419 . S
C2131 C2132 1.363 . S
C2131 H2134 0.929 . S
C2132 C2131 1.363 . S
C2132 C2138 1.428 . S
H2133 C2129 0.930 . S
H2134 C2131 0.929 . S
S2135 N2136 1.613 . S
S2135 N2137 1.610 . S
N2136 S2135 1.613 . S
N2136 C2139 1.350 . S
N2137 S2135 1.610 . S
N2137 C2138 1.351 . S
C2138 C2132 1.428 . S
C2138 N2137 1.351 . S
C2138 C2139 1.434 . S
C2139 C2130 1.429 . S
C2139 N2136 1.350 . S
C2139 C2138 1.434 . S
C2140 C2141 1.369 . S
C2140 C2142 1.419 . S
C2140 H2144 0.930 . S
C2141 C2140 1.369 . S
C2141 C2150 1.429 . S
C2142 C2140 1.419 . S
C2142 C2143 1.363 . S
C2142 H2145 0.929 . S
C2143 C2142 1.363 . S
C2143 C2149 1.428 . S
H2144 C2140 0.930 . S
H2145 C2142 0.929 . S
S2146 N2147 1.613 . S
S2146 N2148 1.610 . S
N2147 S2146 1.613 . S
N2147 C2150 1.350 . S
N2148 S2146 1.610 . S
N2148 C2149 1.351 . S
C2149 C2143 1.428 . S
C2149 N2148 1.351 . S
C2149 C2150 1.434 . S
C2150 C2141 1.429 . S
C2150 N2147 1.350 . S
C2150 C2149 1.434 . S
C2151 C2152 1.369 . S
C2151 C2153 1.419 . S
C2151 H2155 0.930 . S
C2152 C2151 1.369 . S
C2152 C2161 1.429 . S
C2153 C2151 1.419 . S
C2153 C2154 1.363 . S
C2153 H2156 0.929 . S
C2154 C2153 1.363 . S
C2154 C2160 1.428 . S
H2155 C2151 0.930 . S
H2156 C2153 0.929 . S
S2157 N2158 1.613 . S
S2157 N2159 1.610 1_554 S
N2158 S2157 1.613 . S
N2158 C2161 1.350 1_554 S
N2159 S2157 1.610 1_556 S
N2159 C2160 1.351 . S
C2160 C2154 1.428 . S
C2160 N2159 1.351 . S
C2160 C2161 1.434 . S
C2161 C2152 1.429 . S
C2161 N2158 1.350 1_556 S
C2161 C2160 1.434 . S
C2162 C2163 1.369 . S
C2162 C2164 1.419 . S
C2162 H2166 0.930 . S
C2163 C2162 1.369 . S
C2163 C2172 1.429 . S
C2164 C2162 1.419 . S
C2164 C2165 1.363 . S
C2164 H2167 0.929 . S
C2165 C2164 1.363 . S
C2165 C2171 1.428 . S
H2166 C2162 0.930 . S
H2167 C2164 0.929 . S
S2168 N2169 1.613 . S
S2168 N2170 1.610 . S
N2169 S2168 1.613 . S
N2169 C2172 1.350 . S
N2170 S2168 1.610 . S
N2170 C2171 1.351 . S
C2171 C2165 1.428 . S
C2171 N2170 1.351 . S
C2171 C2172 1.434 . S
C2172 C2163 1.429 . S
C2172 N2169 1.350 . S
C2172 C2171 1.434 . S
C2173 C2174 1.369 . S
C2173 C2175 1.419 . S
C2173 H2177 0.930 . S
C2174 C2173 1.369 . S
C2174 C2183 1.429 . S
C2175 C2173 1.419 . S
C2175 C2176 1.363 . S
C2175 H2178 0.929 . S
C2176 C2175 1.363 . S
C2176 C2182 1.428 . S
H2177 C2173 0.930 . S
H2178 C2175 0.929 . S
S2179 N2180 1.613 . S
S2179 N2181 1.610 . S
N2180 S2179 1.613 . S
N2180 C2183 1.350 . S
N2181 S2179 1.610 . S
N2181 C2182 1.351 . S
C2182 C2176 1.428 . S
C2182 N2181 1.351 . S
C2182 C2183 1.434 . S
C2183 C2174 1.429 . S
C2183 N2180 1.350 . S
C2183 C2182 1.434 . S
C2184 C2185 1.369 . S
C2184 C2186 1.419 . S
C2184 H2188 0.930 . S
C2185 C2184 1.369 . S
C2185 C2194 1.429 . S
C2186 C2184 1.419 . S
C2186 C2187 1.363 . S
C2186 H2189 0.929 . S
C2187 C2186 1.363 . S
C2187 C2193 1.428 . S
H2188 C2184 0.930 . S
H2189 C2186 0.929 . S
S2190 N2191 1.613 . S
S2190 N2192 1.610 . S
N2191 S2190 1.613 . S
N2191 C2194 1.350 . S
N2192 S2190 1.610 . S
N2192 C2193 1.351 . S
C2193 C2187 1.428 . S
C2193 N2192 1.351 . S
C2193 C2194 1.434 . S
C2194 C2185 1.429 . S
C2194 N2191 1.350 . S
C2194 C2193 1.434 . S
C2195 C2196 1.369 . S
C2195 C2197 1.419 . S
C2195 H2199 0.930 . S
C2196 C2195 1.369 . S
C2196 C2205 1.429 . S
C2197 C2195 1.419 . S
C2197 C2198 1.363 . S
C2197 H2200 0.929 . S
C2198 C2197 1.363 . S
C2198 C2204 1.428 . S
H2199 C2195 0.930 . S
H2200 C2197 0.929 . S
S2201 N2202 1.613 . S
S2201 N2203 1.610 . S
N2202 S2201 1.613 . S
N2202 C2205 1.350 . S
N2203 S2201 1.610 . S
N2203 C2204 1.351 . S
C2204 C2198 1.428 . S
C2204 N2203 1.351 . S
C2204 C2205 1.434 . S
C2205 C2196 1.429 . S
C2205 N2202 1.350 . S
C2205 C2204 1.434 . S
C2206 C2207 1.369 . S
C2206 C2208 1.419 . S
C2206 H2210 0.930 . S
C2207 C2206 1.369 . S
C2207 C2216 1.429 . S
C2208 C2206 1.419 . S
C2208 C2209 1.363 . S
C2208 H2211 0.929 . S
C2209 C2208 1.363 . S
C2209 C2215 1.428 . S
H2210 C2206 0.930 . S
H2211 C2208 0.929 . S
S2212 N2213 1.613 . S
S2212 N2214 1.610 . S
N2213 S2212 1.613 . S
N2213 C2216 1.350 . S
N2214 S2212 1.610 . S
N2214 C2215 1.351 . S
C2215 C2209 1.428 . S
C2215 N2214 1.351 . S
C2215 C2216 1.434 . S
C2216 C2207 1.429 . S
C2216 N2213 1.350 . S
C2216 C2215 1.434 . S
C2217 C2218 1.369 . S
C2217 C2219 1.419 . S
C2217 H2221 0.930 . S
C2218 C2217 1.369 . S
C2218 C2227 1.429 . S
C2219 C2217 1.419 . S
C2219 C2220 1.363 . S
C2219 H2222 0.929 . S
C2220 C2219 1.363 . S
C2220 C2226 1.428 . S
H2221 C2217 0.930 . S
H2222 C2219 0.929 . S
S2223 N2224 1.613 . S
S2223 N2225 1.610 . S
N2224 S2223 1.613 . S
N2224 C2227 1.350 . S
N2225 S2223 1.610 . S
N2225 C2226 1.351 . S
C2226 C2220 1.428 . S
C2226 N2225 1.351 . S
C2226 C2227 1.434 . S
C2227 C2218 1.429 . S
C2227 N2224 1.350 . S
C2227 C2226 1.434 . S
C2228 C2229 1.369 . S
C2228 C2230 1.419 . S
C2228 H2232 0.930 . S
C2229 C2228 1.369 . S
C2229 C2238 1.429 . S
C2230 C2228 1.419 . S
C2230 C2231 1.363 . S
C2230 H2233 0.929 . S
C2231 C2230 1.363 . S
C2231 C2237 1.428 . S
H2232 C2228 0.930 . S
H2233 C2230 0.929 . S
S2234 N2235 1.613 . S
S2234 N2236 1.610 . S
N2235 S2234 1.613 . S
N2235 C2238 1.350 . S
N2236 S2234 1.610 . S
N2236 C2237 1.351 . S
C2237 C2231 1.428 . S
C2237 N2236 1.351 . S
C2237 C2238 1.434 . S
C2238 C2229 1.429 . S
C2238 N2235 1.350 . S
C2238 C2237 1.434 . S
C2239 C2240 1.369 . S
C2239 C2241 1.419 . S
C2239 H2243 0.930 . S
C2240 C2239 1.369 . S
C2240 C2249 1.429 . S
C2241 C2239 1.419 . S
C2241 C2242 1.363 . S
C2241 H2244 0.929 . S
C2242 C2241 1.363 . S
C2242 C2248 1.428 . S
H2243 C2239 0.930 . S
H2244 C2241 0.929 . S
S2245 N2246 1.613 . S
S2245 N2247 1.610 1_554 S
N2246 S2245 1.613 . S
N2246 C2249 1.350 1_554 S
N2247 S2245 1.610 1_556 S
N2247 C2248 1.351 . S
C2248 C2242 1.428 . S
C2248 N2247 1.351 . S
C2248 C2249 1.434 . S
C2249 C2240 1.429 . S
C2249 N2246 1.350 1_556 S
C2249 C2248 1.434 . S
C2250 C2251 1.369 . S
C2250 C2252 1.419 . S
C2250 H2254 0.930 . S
C2251 C2250 1.369 . S
C2251 C2260 1.429 . S
C2252 C2250 1.419 . S
C2252 C2253 1.363 . S
C2252 H2255 0.929 . S
C2253 C2252 1.363 . S
C2253 C2259 1.428 . S
H2254 C2250 0.930 . S
H2255 C2252 0.929 . S
S2256 N2257 1.613 . S
S2256 N2258 1.610 . S
N2257 S2256 1.613 . S
N2257 C2260 1.350 . S
N2258 S2256 1.610 . S
N2258 C2259 1.351 . S
C2259 C2253 1.428 . S
C2259 N2258 1.351 . S
C2259 C2260 1.434 . S
C2260 C2251 1.429 . S
C2260 N2257 1.350 . S
C2260 C2259 1.434 . S
C2261 C2262 1.369 . S
C2261 C2263 1.419 . S
C2261 H2265 0.930 . S
C2262 C2261 1.369 . S
C2262 C2271 1.429 . S
C2263 C2261 1.419 . S
C2263 C2264 1.363 1_455 S
C2263 H2266 0.929 . S
C2264 C2263 1.363 1_655 S
C2264 C2270 1.428 1_655 S
H2265 C2261 0.930 . S
H2266 C2263 0.929 . S
S2267 N2268 1.613 . S
S2267 N2269 1.610 1_455 S
N2268 S2267 1.613 . S
N2268 C2271 1.350 . S
N2269 S2267 1.610 1_655 S
N2269 C2270 1.351 1_655 S
C2270 C2264 1.428 1_455 S
C2270 N2269 1.351 1_455 S
C2270 C2271 1.434 . S
C2271 C2262 1.429 . S
C2271 N2268 1.350 . S
C2271 C2270 1.434 . S
C1219 C882 1.148 . S
C1217 C4 1.147 . S
C1228 C39 1.287 . S
C1230 C894 1.279 . S
C1241 C929 1.302 . S
C1239 C86 1.228 . S
C1252 C938 1.223 1_554 S
C1250 C110 1.218 . S
C1263 C893 1.240 . S
C1261 C146 1.254 . S
C1272 C194 1.194 . S
C1274 C918 1.279 . S
C1285 C937 1.297 . S
C1283 C219 1.313 . S
C1294 C256 1.196 . S
C1296 C879 1.181 . S
C1305 C292 1.159 . S
C1307 C872 1.164 . S
C1318 C896 1.258 . S
C1316 C326 1.234 . S
C1329 C915 1.311 . S
C1327 C363 1.329 . S
C1340 C940 1.280 . S
C1338 C410 1.209 . S
C1351 C901 1.290 . S
C1349 C302 1.206 . S
C1362 C926 1.290 . S
C1360 C327 1.292 . S
C1371 C362 1.240 . S
C1373 C945 1.222 . S
C1384 C885 1.171 . S
C1382 C400 1.177 . S
C1393 C436 1.165 . S
C1395 C874 1.169 . S
C1404 C471 1.311 . S
C1406 C973 1.296 . S
C1417 C989 1.217 . S
C1415 C506 1.228 . S
C1428 C1003 1.277 . S
C1426 C554 1.209 . S
C1437 C580 1.176 . S
C1439 C871 1.163 . S
C1448 C614 1.263 . S
C1450 C923 1.249 . S
C1461 C1006 1.298 . S
C1459 C507 1.305 . S
C1472 C970 1.306 . S
C1470 C662 1.226 . S
C1483 C1026 1.305 . S
C1481 C50 1.187 . S
C1494 C1050 1.253 . S
C1492 C3 1.262 . S
C1503 C112 1.249 . S
C1505 C1083 1.202 . S
C1514 C74 1.288 . S
C1516 C1091 1.259 . S
C1525 C254 1.294 . S
C1527 C1061 1.256 . S
C1536 C220 1.240 . S
C1538 C1072 1.223 . S
C1549 C1092 1.262 . S
C1547 C183 1.274 . S
C1558 C158 1.231 . S
C1560 C1025 1.317 . S
C1569 C698 1.198 . S
C1571 C1028 1.300 . S
C1582 C1058 1.247 . S
C1580 C542 1.248 . S
C1593 C1069 1.252 . S
C1591 C579 1.290 . S
C1604 C1099 1.215 . S
C1602 C472 1.253 . S
C1615 C1047 1.205 . S
C1613 C688 1.245 . S
C1626 C1080 1.269 . S
C1624 C543 1.277 . S
C1637 C1094 1.262 . S
C1635 C578 1.274 . S
C1646 C482 1.234 . S
C1648 C1033 1.325 . S
C1659 C1036 1.306 . S
C1657 C734 1.185 . S
C1668 C399 1.286 . S
C1670 C1124 1.266 . S
C1681 C1136 1.258 . S
C1679 C758 1.266 . S
C1690 C328 1.258 . S
C1692 C1157 1.218 . S
C1703 C1039 1.327 . S
C1701 C374 1.248 . S
C1714 C1077 1.243 . S
C1712 C794 1.275 . S
C1725 C1160 1.252 . S
C1723 C759 1.257 . S
C1734 C832 1.243 . S
C1736 C1127 1.209 . S
C1745 C76 1.166 . S
C1747 C1182 1.167 . S
C1756 C111 1.285 . S
C1758 C960 1.283 . S
C1769 C984 1.263 . S
C1767 C14 1.178 . S
C1778 C38 1.226 . S
C1780 C1014 1.228 . S
C1789 C218 1.236 . S
C1791 C959 1.224 . S
C1800 C266 1.218 . S
C1802 C995 1.296 . S
C1813 C1011 1.311 . S
C1811 C147 1.332 . S
C1824 C1193 1.171 . S
C1822 C184 1.181 . S
C1835 C1190 1.152 . S
C1833 C760 1.155 . S
C1846 C962 1.228 . S
C1844 C722 1.228 . S
C1857 C992 1.292 . S
C1855 C831 1.301 . S
C1866 C806 1.218 . S
C1868 C1004 1.300 . S
C1879 C967 1.278 . S
C1877 C770 1.201 . S
C1888 C723 1.294 . S
C1890 C981 1.277 . S
C1901 C1017 1.237 . S
C1899 C830 1.246 . S
C1910 C796 1.188 . S
C1912 C1179 1.181 . S
C1923 C1180 1.168 . S
C1921 C544 1.171 . S
C1932 C615 1.304 . S
C1934 C907 1.281 . S
C1945 C916 1.209 . S
C1943 C686 1.202 . S
C1954 C446 1.204 . S
C1956 C951 1.274 . S
C1967 C1187 1.166 . S
C1965 C652 1.175 . S
C1978 C982 1.239 . S
C1976 C470 1.235 . S
C1989 C948 1.286 . S
C1987 C687 1.291 . S
C2000 C904 1.293 . S
C1998 C590 1.212 . S
C2009 C122 1.225 . S
C2011 C1201 1.305 . S
C2020 C75 1.299 . S
C2022 C1113 1.259 . S
C2031 C40 1.239 . S
C2033 C1149 1.200 . S
C2044 C1168 1.237 . S
C2042 C2 1.246 . S
C2055 C1114 1.251 . S
C2053 C182 1.260 . S
C2064 C148 1.242 . S
C2066 C1138 1.227 . S
C2077 C1165 1.271 . S
C2075 C255 1.316 . S
C2086 C230 1.215 . S
C2088 C1202 1.325 . S
C2099 C1209 1.300 . S
C2097 C518 1.223 . S
C2108 C434 1.269 . S
C2110 C1121 1.241 . S
C2119 C651 1.299 . S
C2121 C1135 1.255 . S
C2132 C1158 1.213 . S
C2130 C616 1.229 . S
C2143 C1116 1.224 . S
C2141 C508 1.241 . S
C2152 C435 1.282 . S
C2154 C1146 1.277 . S
C2165 C1171 1.254 . S
C2163 C650 1.289 . S
C2176 C1204 1.331 . S
C2174 C626 1.222 . S
C2187 C1215 1.298 . S
C2185 C338 1.205 . S
C2198 C1055 1.276 . S
C2196 C795 1.318 . S
C2207 C290 1.275 . S
C2209 C1070 1.260 . S
C2218 C724 1.225 . S
C2220 C1102 1.210 . S
C2231 C1212 1.331 . S
C2229 C842 1.216 . S
C2242 C1143 1.239 . S
C2240 C398 1.266 . S
C2253 C1105 1.261 . S
C2251 C291 1.294 . S
C2264 C1048 1.214 . S
C2262 C364 1.236 . S
