# Generated by pormake.
# Topology wbl, (4,4)-cn, num edge types: 1
# Building blocks:
#     Node 0, Type 0, BuildingBlock: MUDLON_clean_sbu_0, # of connection points: 4
#     Node 1, Type 0, BuildingBlock: MUDLON_clean_sbu_0, # of connection points: 4
#     Node 2, Type 0, BuildingBlock: MUDLON_clean_sbu_0, # of connection points: 4
#     Node 3, Type 0, BuildingBlock: MUDLON_clean_sbu_0, # of connection points: 4
#     Node 4, Type 0, BuildingBlock: MUDLON_clean_sbu_0, # of connection points: 4
#     Node 5, Type 0, BuildingBlock: MUDLON_clean_sbu_0, # of connection points: 4
#     Node 6, Type 0, BuildingBlock: MUDLON_clean_sbu_0, # of connection points: 4
#     Node 7, Type 0, BuildingBlock: MUDLON_clean_sbu_0, # of connection points: 4
#     Node 8, Type 1, BuildingBlock: NAHDIM_clean_sbu_0, # of connection points: 4
#     Node 9, Type 1, BuildingBlock: NAHDIM_clean_sbu_0, # of connection points: 4
#     Node 10, Type 1, BuildingBlock: NAHDIM_clean_sbu_0, # of connection points: 4
#     Node 11, Type 1, BuildingBlock: NAHDIM_clean_sbu_0, # of connection points: 4
#     Node 12, Type 1, BuildingBlock: NAHDIM_clean_sbu_0, # of connection points: 4
#     Node 13, Type 1, BuildingBlock: NAHDIM_clean_sbu_0, # of connection points: 4
#     Node 14, Type 1, BuildingBlock: NAHDIM_clean_sbu_0, # of connection points: 4
#     Node 15, Type 1, BuildingBlock: NAHDIM_clean_sbu_0, # of connection points: 4
#     Edge 16, Type (0, 1), BuildingBlock: KIFKEQ_clean_linker_1, # of connection points: 2
#     Edge 17, Type (0, 1), BuildingBlock: KIFKEQ_clean_linker_1, # of connection points: 2
#     Edge 18, Type (0, 1), BuildingBlock: KIFKEQ_clean_linker_1, # of connection points: 2
#     Edge 19, Type (0, 1), BuildingBlock: KIFKEQ_clean_linker_1, # of connection points: 2
#     Edge 20, Type (0, 1), BuildingBlock: KIFKEQ_clean_linker_1, # of connection points: 2
#     Edge 21, Type (0, 1), BuildingBlock: KIFKEQ_clean_linker_1, # of connection points: 2
#     Edge 22, Type (0, 1), BuildingBlock: KIFKEQ_clean_linker_1, # of connection points: 2
#     Edge 23, Type (0, 1), BuildingBlock: KIFKEQ_clean_linker_1, # of connection points: 2
#     Edge 24, Type (0, 1), BuildingBlock: KIFKEQ_clean_linker_1, # of connection points: 2
#     Edge 25, Type (0, 1), BuildingBlock: KIFKEQ_clean_linker_1, # of connection points: 2
#     Edge 26, Type (0, 1), BuildingBlock: KIFKEQ_clean_linker_1, # of connection points: 2
#     Edge 27, Type (0, 1), BuildingBlock: KIFKEQ_clean_linker_1, # of connection points: 2
#     Edge 28, Type (0, 1), BuildingBlock: KIFKEQ_clean_linker_1, # of connection points: 2
#     Edge 29, Type (0, 1), BuildingBlock: KIFKEQ_clean_linker_1, # of connection points: 2
#     Edge 30, Type (0, 1), BuildingBlock: KIFKEQ_clean_linker_1, # of connection points: 2
#     Edge 31, Type (0, 1), BuildingBlock: KIFKEQ_clean_linker_1, # of connection points: 2
#     Edge 32, Type (0, 1), BuildingBlock: KIFKEQ_clean_linker_1, # of connection points: 2
#     Edge 33, Type (0, 1), BuildingBlock: KIFKEQ_clean_linker_1, # of connection points: 2
#     Edge 34, Type (0, 1), BuildingBlock: KIFKEQ_clean_linker_1, # of connection points: 2
#     Edge 35, Type (0, 1), BuildingBlock: KIFKEQ_clean_linker_1, # of connection points: 2
#     Edge 36, Type (0, 1), BuildingBlock: KIFKEQ_clean_linker_1, # of connection points: 2
#     Edge 37, Type (0, 1), BuildingBlock: KIFKEQ_clean_linker_1, # of connection points: 2
#     Edge 38, Type (0, 1), BuildingBlock: KIFKEQ_clean_linker_1, # of connection points: 2
#     Edge 39, Type (0, 1), BuildingBlock: KIFKEQ_clean_linker_1, # of connection points: 2
#     Edge 40, Type (0, 1), BuildingBlock: KIFKEQ_clean_linker_1, # of connection points: 2
#     Edge 41, Type (0, 1), BuildingBlock: KIFKEQ_clean_linker_1, # of connection points: 2
#     Edge 42, Type (0, 1), BuildingBlock: KIFKEQ_clean_linker_1, # of connection points: 2
#     Edge 43, Type (0, 1), BuildingBlock: KIFKEQ_clean_linker_1, # of connection points: 2
#     Edge 44, Type (0, 1), BuildingBlock: KIFKEQ_clean_linker_1, # of connection points: 2
#     Edge 45, Type (0, 1), BuildingBlock: KIFKEQ_clean_linker_1, # of connection points: 2
#     Edge 46, Type (0, 1), BuildingBlock: KIFKEQ_clean_linker_1, # of connection points: 2
#     Edge 47, Type (0, 1), BuildingBlock: KIFKEQ_clean_linker_1, # of connection points: 2
# Relax obj value: 0.234
# Max RMSD: 0.229
# Mean RMSD: 0.181
data_MOF--net-wbl--node1-MUDLON_clean_sbu_0--node2-NAHDIM_clean_sbu_0--edge1-KIFKEQ_clean_linker_1
_symmetry_space_group_name_H-M    P1
_symmetry_Int_Tables_number       1
_symmetry_cell_setting            triclinic
loop_
_symmetry_equiv_pos_as_xyz
'x, y, z'
_cell_length_a     36.83286
_cell_length_b     35.51805
_cell_length_c     76.067022
_cell_angle_alpha  89.995189
_cell_angle_beta   89.85796
_cell_angle_gamma 90.214785
loop_
_atom_site_label
_atom_site_type_symbol
_atom_site_fract_x
_atom_site_fract_y
_atom_site_fract_z
_atom_type_partial_charge
Mg0 Mg 0.00515 0.98853 0.33941 0.0
C1 C 0.02106 0.91671 0.35858 0.0
O2 O 0.04923 0.91765 0.34796 0.0
C3 C 0.96218 0.03131 0.31341 0.0
O4 O 0.99187 0.05178 0.31458 0.0
C5 C 0.05175 0.96091 0.31014 0.0
O6 O 0.01966 0.94856 0.30524 0.0
O7 O 0.05421 0.98025 0.32415 0.0
O8 O 0.99585 0.94056 0.3564 0.0
O9 O 0.00919 0.03295 0.35883 0.0
C10 C 0.97852 0.04361 0.36465 0.0
O11 O 0.94903 0.03068 0.35703 0.0
O12 O 0.95997 0.00104 0.32227 0.0
Mg13 Mg 0.00642 0.51135 0.59771 0.0
C14 C 0.07658 0.51596 0.61886 0.0
O15 O 0.08663 0.53822 0.60593 0.0
C16 C 0.0051 0.43123 0.58532 0.0
O17 O 0.01919 0.42683 0.60104 0.0
C18 C 0.04522 0.5608 0.57137 0.0
O19 O 0.05587 0.52775 0.56561 0.0
O20 O 0.02317 0.56229 0.58424 0.0
O21 O 0.04609 0.49922 0.61796 0.0
O22 O 0.95753 0.51938 0.61323 0.0
C23 C 0.9335 0.4936 0.61369 0.0
O24 O 0.93602 0.46536 0.60262 0.0
O25 O 0.99826 0.46432 0.57995 0.0
Mg26 Mg 0.49382 0.48454 0.84587 0.0
C27 C 0.41888 0.47674 0.8617 0.0
O28 O 0.40914 0.49518 0.84752 0.0
C29 C 0.54371 0.42168 0.83513 0.0
O30 O 0.55136 0.42321 0.85198 0.0
C31 C 0.45803 0.55895 0.83577 0.0
O32 O 0.45726 0.56386 0.85288 0.0
O33 O 0.47323 0.52978 0.82951 0.0
O34 O 0.45048 0.46258 0.86229 0.0
O35 O 0.53309 0.50246 0.86544 0.0
C36 C 0.52062 0.5152 0.87987 0.0
O37 O 0.4857 0.52198 0.88113 0.0
O38 O 0.519 0.44291 0.82909 0.0
Mg39 Mg 0.48737 0.0045 0.07854 0.0
C40 C 0.54387 0.034 0.10112 0.0
O41 O 0.52342 0.06294 0.09708 0.0
C42 C 0.49585 0.92871 0.05911 0.0
O43 O 0.52257 0.923 0.0702 0.0
C44 C 0.51768 0.06289 0.05591 0.0
O45 O 0.54171 0.03564 0.05556 0.0
O46 O 0.48846 0.05785 0.06457 0.0
O47 O 0.53715 0.00247 0.09387 0.0
O48 O 0.44765 0.99787 0.09953 0.0
C49 C 0.45445 0.96748 0.10773 0.0
O50 O 0.48042 0.94579 0.10164 0.0
O51 O 0.47858 0.95958 0.05966 0.0
Mg52 Mg 0.98233 0.51859 0.92419 0.0
C53 C 0.05298 0.50033 0.90648 0.0
O54 O 0.06552 0.52224 0.919 0.0
C55 C 0.95528 0.47134 0.95643 0.0
O56 O 0.9874 0.47762 0.96332 0.0
C57 C 0.0091 0.57092 0.95422 0.0
O58 O 0.98117 0.5578 0.9631 0.0
O59 O 0.01342 0.56122 0.93826 0.0
O60 O 0.0204 0.48857 0.90753 0.0
O61 O 0.94904 0.53985 0.90294 0.0
C62 C 0.91967 0.52233 0.89963 0.0
O63 O 0.90602 0.50004 0.91175 0.0
O64 O 0.9482 0.4837 0.94113 0.0
Mg65 Mg 0.48794 0.47277 0.16639 0.0
C66 C 0.47376 0.53173 0.13922 0.0
O67 O 0.46162 0.54866 0.15339 0.0
C68 C 0.53558 0.43385 0.1912 0.0
O69 O 0.50584 0.43993 0.20033 0.0
C70 C 0.4355 0.51699 0.18913 0.0
O71 O 0.41178 0.49677 0.18032 0.0
O72 O 0.46918 0.51235 0.18616 0.0
O73 O 0.48998 0.5004 0.14087 0.0
O74 O 0.44767 0.42833 0.16329 0.0
C75 C 0.44407 0.40944 0.14916 0.0
O76 O 0.41665 0.38593 0.14766 0.0
O77 O 0.53763 0.447 0.17569 0.0
Mg78 Mg 0.50672 0.00868 0.4165 0.0
C79 C 0.48373 0.04987 0.38407 0.0
O80 O 0.4642 0.01904 0.38248 0.0
C81 C 0.42855 0.00693 0.43082 0.0
O82 O 0.42118 0.02494 0.41618 0.0
C83 C 0.56522 0.05226 0.43477 0.0
O84 O 0.54537 0.07982 0.42851 0.0
O85 O 0.55556 0.01843 0.43179 0.0
O86 O 0.50097 0.05543 0.39832 0.0
O87 O 0.51283 0.96195 0.39834 0.0
C88 C 0.48698 0.93865 0.39609 0.0
O89 O 0.45934 0.93925 0.40704 0.0
O90 O 0.46124 0.99821 0.43417 0.0
Mg91 Mg 0.00737 0.00602 0.68192 0.0
C92 C 0.06629 0.98134 0.65812 0.0
O93 O 0.05618 0.94963 0.66558 0.0
C94 C 0.00647 0.08852 0.69277 0.0
O95 O 0.02319 0.09215 0.67758 0.0
C96 C 0.04481 0.95204 0.70635 0.0
O97 O 0.06951 0.97874 0.70527 0.0
O98 O 0.01503 0.95615 0.69814 0.0
O99 O 0.05246 0.01194 0.6636 0.0
O100 O 0.96322 0.99864 0.6633 0.0
C101 C 0.94393 0.02691 0.65921 0.0
O102 O 0.94719 0.05791 0.66849 0.0
O103 O 0.99783 0.05573 0.69808 0.0
C104 C 0.24913 0.63297 0.0056 0.0
O105 O 0.26379 0.60426 0.01379 0.0
O106 O 0.34379 0.63069 0.02158 0.0
Zn107 Zn 0.3244 0.65314 0.99915 0.0
O108 O 0.33659 0.62112 0.97797 0.0
C109 C 0.38232 0.70624 0.99966 0.0
O110 O 0.4008 0.67471 1.00008 0.0
O111 O 0.26975 0.65832 0.99921 0.0
C112 C 0.36466 0.60095 0.97573 0.0
O113 O 0.39012 0.6007 0.98779 0.0
C114 C 0.34981 0.59649 0.02548 0.0
O115 O 0.34037 0.56974 0.01446 0.0
O116 O 0.34798 0.70459 0.99802 0.0
C117 C 0.27728 0.85803 0.2524 0.0
O118 O 0.28108 0.85558 0.23526 0.0
O119 O 0.36605 0.85741 0.23144 0.0
Zn120 Zn 0.35199 0.83034 0.25377 0.0
O121 O 0.38736 0.83861 0.27367 0.0
C122 C 0.36875 0.75037 0.2558 0.0
O123 O 0.38699 0.76038 0.26987 0.0
O124 O 0.30328 0.84813 0.2623 0.0
C125 C 0.40793 0.86699 0.27588 0.0
O126 O 0.40845 0.89381 0.26399 0.0
C127 C 0.36182 0.89187 0.22741 0.0
O128 O 0.34832 0.91536 0.23903 0.0
O129 O 0.35065 0.77506 0.24751 0.0
C130 C 0.22425 0.89869 0.50423 0.0
O131 O 0.22533 0.89717 0.52148 0.0
O132 O 0.13459 0.89881 0.52878 0.0
Zn133 Zn 0.14836 0.87027 0.5068 0.0
O134 O 0.11062 0.87571 0.48775 0.0
C135 C 0.15461 0.80505 0.52942 0.0
O136 O 0.1638 0.83042 0.54117 0.0
O137 O 0.19568 0.88818 0.49625 0.0
C138 C 0.10827 0.84895 0.47668 0.0
O139 O 0.1291 0.81932 0.47866 0.0
C140 C 0.14334 0.93156 0.53408 0.0
O141 O 0.16302 0.95358 0.52393 0.0
O142 O 0.14935 0.81533 0.51363 0.0
C143 C 0.24564 0.63079 0.7648 0.0
O144 O 0.23743 0.60848 0.75163 0.0
O145 O 0.16329 0.61647 0.74227 0.0
Zn146 Zn 0.16766 0.64262 0.76578 0.0
O147 O 0.14289 0.61249 0.78514 0.0
C148 C 0.11729 0.69775 0.75316 0.0
O149 O 0.10321 0.66762 0.7458 0.0
O150 O 0.22048 0.6491 0.77239 0.0
C151 C 0.1607 0.58716 0.79321 0.0
O152 O 0.19432 0.58037 0.7884 0.0
C153 C 0.15862 0.58143 0.73968 0.0
O154 O 0.15682 0.55848 0.7532 0.0
O155 O 0.1448 0.69408 0.76309 0.0
C156 C 0.80202 0.10919 0.49614 0.0
O157 O 0.82786 0.08382 0.49539 0.0
O158 O 0.86653 0.11157 0.53269 0.0
Zn159 Zn 0.86091 0.14521 0.51146 0.0
O160 O 0.89188 0.13305 0.49025 0.0
C161 C 0.907 0.19942 0.52526 0.0
O162 O 0.92666 0.16864 0.5254 0.0
O163 O 0.80902 0.14083 0.50324 0.0
C164 C 0.92297 0.11833 0.48805 0.0
O165 O 0.94153 0.10629 0.50163 0.0
C166 C 0.87947 0.07876 0.53478 0.0
O167 O 0.89287 0.06035 0.5213 0.0
O168 O 0.87471 0.19756 0.51941 0.0
C169 C 0.75275 0.37103 0.75855 0.0
O170 O 0.76078 0.40105 0.7492 0.0
O171 O 0.83074 0.3926 0.73415 0.0
Zn172 Zn 0.82963 0.36326 0.75693 0.0
O173 O 0.84537 0.39623 0.77727 0.0
C174 C 0.89088 0.31887 0.74577 0.0
O175 O 0.90265 0.35208 0.74066 0.0
O176 O 0.77808 0.34859 0.76275 0.0
C177 C 0.87692 0.40088 0.78366 0.0
O178 O 0.90452 0.38274 0.77679 0.0
C179 C 0.84899 0.42281 0.73233 0.0
O180 O 0.86739 0.43605 0.74576 0.0
O181 O 0.86053 0.31658 0.75375 0.0
C182 C 0.72805 0.40406 0.02173 0.0
O183 O 0.71611 0.42908 0.03306 0.0
O184 O 0.63567 0.4018 0.04253 0.0
Zn185 Zn 0.6512 0.382 0.01865 0.0
O186 O 0.62863 0.41203 0.99892 0.0
C187 C 0.59858 0.32387 0.02242 0.0
O188 O 0.57906 0.35312 0.02704 0.0
O189 O 0.70567 0.38095 0.01493 0.0
C190 C 0.64659 0.4352 0.98952 0.0
O191 O 0.68115 0.44084 0.99284 0.0
C192 C 0.60996 0.42546 0.04399 0.0
O193 O 0.59707 0.44134 0.02973 0.0
O194 O 0.63128 0.32898 0.0175 0.0
C195 C 0.73383 0.13776 0.26159 0.0
O196 O 0.72347 0.17118 0.26701 0.0
O197 O 0.63964 0.10836 0.22737 0.0
Zn198 Zn 0.6609 0.13522 0.24832 0.0
O199 O 0.63118 0.12565 0.27015 0.0
C200 C 0.66535 0.20233 0.2274 0.0
O201 O 0.67419 0.17783 0.2152 0.0
O202 O 0.71175 0.11757 0.25288 0.0
C203 C 0.59748 0.1329 0.27132 0.0
O204 O 0.58041 0.1464 0.25756 0.0
C205 C 0.65545 0.08263 0.21862 0.0
O206 O 0.68703 0.06999 0.22395 0.0
O207 O 0.65976 0.1908 0.243 0.0
H208 H 0.12248 0.97775 0.31787 0.0
H209 H 0.0557 0.91752 0.28055 0.0
H210 H 0.17686 0.95459 0.30315 0.0
H211 H 0.11008 0.89381 0.26607 0.0
H212 H 0.21716 0.88475 0.23535 0.0
H213 H 0.16287 0.91242 0.24847 0.0
H214 H 0.20738 0.89422 0.30026 0.0
H215 H 0.26171 0.86727 0.28722 0.0
C216 C 0.11938 0.95974 0.30648 0.0
C217 C 0.08474 0.94933 0.30044 0.0
C218 C 0.15055 0.94625 0.29812 0.0
C219 C 0.14779 0.92209 0.28353 0.0
C220 C 0.11315 0.91261 0.27718 0.0
C221 C 0.08197 0.92607 0.28554 0.0
C222 C 0.21532 0.88663 0.24953 0.0
C223 C 0.24378 0.87381 0.26022 0.0
C224 C 0.18417 0.90239 0.25705 0.0
C225 C 0.18089 0.90572 0.27541 0.0
C226 C 0.20931 0.89269 0.28607 0.0
C227 C 0.24035 0.87694 0.27858 0.0
H228 H 0.03621 0.63259 0.58343 0.0
H229 H 0.09181 0.56813 0.54346 0.0
H230 H 0.06597 0.6897 0.57297 0.0
H231 H 0.12184 0.62548 0.53308 0.0
H232 H 0.13193 0.74636 0.50877 0.0
H233 H 0.10664 0.68624 0.5185 0.0
H234 H 0.12815 0.7166 0.57247 0.0
H235 H 0.15313 0.77679 0.56281 0.0
C236 C 0.05467 0.63059 0.57237 0.0
C237 C 0.06164 0.59577 0.56429 0.0
C238 C 0.07199 0.66329 0.56648 0.0
C239 C 0.09654 0.66201 0.55232 0.0
C240 C 0.10298 0.62735 0.54399 0.0
C241 C 0.08581 0.59453 0.54996 0.0
C242 C 0.13175 0.74 0.5227 0.0
C243 C 0.1443 0.76652 0.53502 0.0
C244 C 0.11732 0.70551 0.52826 0.0
C245 C 0.11497 0.69693 0.54626 0.0
C246 C 0.12899 0.72274 0.55852 0.0
C247 C 0.14358 0.7571 0.55297 0.0
H248 H 0.46125 0.56578 0.80004 0.0
H249 H 0.40063 0.60242 0.84555 0.0
H250 H 0.41524 0.59281 0.78087 0.0
H251 H 0.35387 0.62772 0.82656 0.0
H252 H 0.27407 0.67733 0.79001 0.0
H253 H 0.33152 0.67001 0.8055 0.0
H254 H 0.35661 0.57344 0.77309 0.0
H255 H 0.3003 0.58189 0.75721 0.0
C256 C 0.43834 0.58011 0.80593 0.0
C257 C 0.43433 0.58162 0.82428 0.0
C258 C 0.41179 0.59534 0.79496 0.0
C259 C 0.38035 0.61182 0.80212 0.0
C260 C 0.37774 0.61561 0.8205 0.0
C261 C 0.40457 0.60091 0.83145 0.0
C262 C 0.29226 0.65501 0.786 0.0
C263 C 0.28245 0.62993 0.77252 0.0
C264 C 0.32511 0.65066 0.79494 0.0
C265 C 0.34865 0.62084 0.79075 0.0
C266 C 0.33958 0.59707 0.7766 0.0
C267 C 0.30701 0.60172 0.76754 0.0
H268 H 0.51748 0.8551 0.05862 0.0
H269 H 0.44529 0.93328 0.03296 0.0
H270 H 0.49173 0.80373 0.04146 0.0
H271 H 0.42023 0.88207 0.01542 0.0
H272 H 0.35107 0.77367 0.00823 0.0
H273 H 0.38117 0.82907 0.02026 0.0
H274 H 0.48539 0.77565 0.01305 0.0
H275 H 0.45516 0.71981 1.00151 0.0
C276 C 0.49657 0.86145 0.04909 0.0
C277 C 0.48324 0.89824 0.04729 0.0
C278 C 0.4819 0.832 0.03915 0.0
C279 C 0.4537 0.83868 0.02709 0.0
C280 C 0.44144 0.87578 0.0248 0.0
C281 C 0.45597 0.90518 0.0348 0.0
C282 C 0.38044 0.77399 0.00893 0.0
C283 C 0.40068 0.74217 0.00409 0.0
C284 C 0.39777 0.80585 0.01578 0.0
C285 C 0.43575 0.80671 0.01783 0.0
C286 C 0.45607 0.77565 0.01203 0.0
C287 C 0.43873 0.74373 0.00528 0.0
H288 H 0.06742 0.60649 0.93941 0.0
H289 H 0.01907 0.57957 0.9897 0.0
H290 H 0.1219 0.62878 0.95416 0.0
H291 H 0.07373 0.60231 0.00451 0.0
H292 H 0.19759 0.58284 0.01686 0.0
H293 H 0.13565 0.57605 0.00616 0.0
H294 H 0.14953 0.67532 0.97402 0.0
H295 H 0.21174 0.68196 0.98457 0.0
C296 C 0.06808 0.60609 0.95364 0.0
C297 C 0.03902 0.59087 0.96336 0.0
C298 C 0.0993 0.6191 0.96212 0.0
C299 C 0.10229 0.61704 0.98052 0.0
C300 C 0.0724 0.60384 0.99031 0.0
C301 C 0.041 0.59105 0.98182 0.0
C302 C 0.18727 0.60364 0.00775 0.0
C303 C 0.20982 0.63264 1.0014 0.0
C304 C 0.15163 0.59988 0.0017 0.0
C305 C 0.13775 0.62496 0.98911 0.0
C306 C 0.1596 0.65525 0.98353 0.0
C307 C 0.19521 0.65912 0.98965 0.0
H308 H 0.47738 0.56268 0.20975 0.0
H309 H 0.36586 0.53992 0.19559 0.0
H310 H 0.45774 0.61578 0.22758 0.0
H311 H 0.34619 0.59287 0.21367 0.0
H312 H 0.33753 0.72135 0.22611 0.0
H313 H 0.35131 0.66175 0.21177 0.0
H314 H 0.424 0.63316 0.25416 0.0
H315 H 0.41065 0.69304 0.26842 0.0
C316 C 0.44862 0.56872 0.2106 0.0
C317 C 0.42322 0.54719 0.20115 0.0
C318 C 0.43733 0.59903 0.22093 0.0
C319 C 0.40039 0.60859 0.22202 0.0
C320 C 0.37487 0.58645 0.21295 0.0
C321 C 0.38616 0.55601 0.20266 0.0
C322 C 0.35607 0.70216 0.23251 0.0
C323 C 0.37326 0.71215 0.24833 0.0
C324 C 0.36384 0.66788 0.22432 0.0
C325 C 0.389 0.64286 0.23175 0.0
C326 C 0.40493 0.65211 0.24797 0.0
C327 C 0.3971 0.68635 0.25618 0.0
H328 H 0.43446 0.96655 0.46132 0.0
H329 H 0.35545 0.01748 0.42689 0.0
H330 H 0.38558 0.94103 0.47944 0.0
H331 H 0.30659 0.99257 0.44523 0.0
H332 H 0.23054 0.90401 0.46856 0.0
H333 H 0.27991 0.93163 0.45161 0.0
H334 H 0.33689 0.95794 0.49966 0.0
H335 H 0.2876 0.92952 0.51671 0.0
C336 C 0.40667 0.97266 0.45771 0.0
C337 C 0.39889 0.99392 0.44258 0.0
C338 C 0.37864 0.95816 0.46817 0.0
C339 C 0.34214 0.96452 0.46374 0.0
C340 C 0.3344 0.98658 0.44885 0.0
C341 C 0.36243 0.0011 0.4384 0.0
C342 C 0.2536 0.91558 0.47556 0.0
C343 C 0.25507 0.91454 0.49402 0.0
C344 C 0.28182 0.93172 0.46581 0.0
C345 C 0.31226 0.94731 0.47426 0.0
C346 C 0.31396 0.94593 0.49273 0.0
C347 C 0.28566 0.92973 0.50251 0.0
H348 H 0.10945 0.93025 0.72053 0.0
H349 H 0.99886 0.89282 0.71296 0.0
H350 H 0.12458 0.86969 0.73342 0.0
H351 H 0.01367 0.83253 0.72644 0.0
H352 H 0.06575 0.71522 0.72881 0.0
H353 H 0.04661 0.77728 0.71925 0.0
H354 H 0.11731 0.82838 0.75782 0.0
H355 H 0.13745 0.76603 0.76698 0.0
C356 C 0.08819 0.90929 0.72186 0.0
C357 C 0.05299 0.91632 0.71559 0.0
C358 C 0.09682 0.87455 0.72938 0.0
C359 C 0.07042 0.84601 0.73095 0.0
C360 C 0.03489 0.85354 0.72518 0.0
C361 C 0.02631 0.88822 0.71753 0.0
C362 C 0.07703 0.73965 0.73538 0.0
C363 C 0.10332 0.73562 0.7486 0.0
C364 C 0.06584 0.77536 0.72995 0.0
C365 C 0.08044 0.80802 0.7377 0.0
C366 C 0.10592 0.80392 0.75133 0.0
C367 C 0.11731 0.76815 0.75668 0.0
H368 H 0.60651 0.38459 0.84287 0.0
H369 H 0.53585 0.41282 0.79959 0.0
H370 H 0.65222 0.36275 0.82222 0.0
H371 H 0.58131 0.38993 0.77889 0.0
H372 H 0.6937 0.41536 0.75291 0.0
H373 H 0.6382 0.41739 0.77009 0.0
H374 H 0.67314 0.32018 0.79965 0.0
H375 H 0.72942 0.31871 0.78264 0.0
C376 C 0.6003 0.38519 0.82896 0.0
C377 C 0.56785 0.40118 0.82287 0.0
C378 C 0.62649 0.3724 0.81708 0.0
C379 C 0.62068 0.37511 0.79886 0.0
C380 C 0.58694 0.38819 0.79283 0.0
C381 C 0.56082 0.40116 0.80471 0.0
C382 C 0.68932 0.39394 0.76284 0.0
C383 C 0.71629 0.3673 0.7666 0.0
C384 C 0.65726 0.39491 0.77263 0.0
C385 C 0.65133 0.36917 0.7864 0.0
C386 C 0.67716 0.34079 0.78933 0.0
C387 C 0.70932 0.33984 0.77951 0.0
H388 H 0.47234 0.12246 0.0495 0.0
H389 H 0.58412 0.08729 0.04516 0.0
H390 H 0.48916 0.18479 0.03858 0.0
H391 H 0.6013 0.14962 0.03524 0.0
H392 H 0.62344 0.25831 0.00789 0.0
H393 H 0.60078 0.19469 0.01313 0.0
H394 H 0.51865 0.2393 0.04806 0.0
H395 H 0.54007 0.30268 0.04201 0.0
C396 C 0.50047 0.12805 0.0462 0.0
C397 C 0.52687 0.09999 0.04823 0.0
C398 C 0.51022 0.16386 0.04005 0.0
C399 C 0.54671 0.17255 0.03608 0.0
C400 C 0.57286 0.14404 0.03779 0.0
C401 C 0.56302 0.10819 0.04365 0.0
C402 C 0.60029 0.25442 0.01652 0.0
C403 C 0.58365 0.28544 0.02459 0.0
C404 C 0.58739 0.21793 0.01964 0.0
C405 C 0.558 0.21157 0.03118 0.0
C406 C 0.54089 0.24288 0.03888 0.0
C407 C 0.55338 0.27935 0.03551 0.0
H408 H 0.89617 0.99705 0.30895 0.0
H409 H 0.95683 0.09724 0.29516 0.0
H410 H 0.84264 0.02278 0.29454 0.0
H411 H 0.90342 0.12268 0.28058 0.0
H412 H 0.78756 0.1735 0.2799 0.0
H413 H 0.84426 0.1468 0.29053 0.0
H414 H 0.8178 0.0409 0.26566 0.0
H415 H 0.76081 0.06742 0.25517 0.0
C416 C 0.89822 0.02434 0.30266 0.0
C417 C 0.93068 0.0452 0.30331 0.0
C418 C 0.8676 0.039 0.29433 0.0
C419 C 0.86877 0.07486 0.28651 0.0
C420 C 0.90155 0.0952 0.2867 0.0
C421 C 0.93219 0.08051 0.29498 0.0
C422 C 0.79395 0.14462 0.27657 0.0
C423 C 0.76956 0.12254 0.26678 0.0
C424 C 0.82655 0.12938 0.28258 0.0
C425 C 0.83543 0.0917 0.27898 0.0
C426 C 0.81148 0.06989 0.26882 0.0
C427 C 0.77894 0.08517 0.26274 0.0
H428 H 0.96714 0.43012 0.55437 0.0
H429 H 0.01596 0.35718 0.59309 0.0
H430 H 0.94424 0.37504 0.5386 0.0
H431 H 0.99267 0.30241 0.57753 0.0
H432 H 0.97567 0.21121 0.53717 0.0
H433 H 1.00089 0.26796 0.5502 0.0
H434 H 0.89849 0.32467 0.54289 0.0
H435 H 0.87321 0.26772 0.52949 0.0
C436 C 0.9732 0.40237 0.55946 0.0
C437 C 0.99341 0.39803 0.57499 0.0
C438 C 0.95982 0.37085 0.5505 0.0
C439 C 0.96657 0.33437 0.55683 0.0
C440 C 0.98735 0.3301 0.57217 0.0
C441 C 1.0006 0.36154 0.58115 0.0
C442 C 0.95848 0.23577 0.53825 0.0
C443 C 0.92231 0.23484 0.53239 0.0
C444 C 0.97295 0.26829 0.5458 0.0
C445 C 0.95163 0.30073 0.54772 0.0
C446 C 0.9157 0.3002 0.54147 0.0
C447 C 0.90116 0.26754 0.53388 0.0
H448 H 0.5977 0.12073 0.43958 0.0
H449 H 0.60824 0.00298 0.45281 0.0
H450 H 0.65379 0.13453 0.45521 0.0
H451 H 0.66374 0.01694 0.46895 0.0
H452 H 0.78276 0.04751 0.47706 0.0
H453 H 0.725 0.03419 0.46309 0.0
H454 H 0.68165 0.13827 0.48361 0.0
H455 H 0.74023 0.15225 0.4972 0.0
C456 C 0.61181 0.09781 0.44597 0.0
C457 C 0.59862 0.0607 0.44485 0.0
C458 C 0.64387 0.10579 0.45505 0.0
C459 C 0.66342 0.07687 0.46333 0.0
C460 C 0.64977 0.03984 0.46248 0.0
C461 C 0.61784 0.03182 0.45329 0.0
C462 C 0.76092 0.06757 0.47867 0.0
C463 C 0.76615 0.101 0.48824 0.0
C464 C 0.72763 0.05976 0.47074 0.0
C465 C 0.69852 0.08504 0.47225 0.0
C466 C 0.70361 0.11838 0.48198 0.0
C467 C 0.73711 0.12632 0.48986 0.0
H468 H 0.01145 0.16211 0.68257 0.0
H469 H 0.97273 0.0914 0.72491 0.0
H470 H 0.98592 0.21696 0.69706 0.0
H471 H 0.94809 0.14661 0.73975 0.0
H472 H 0.86819 0.24543 0.74791 0.0
H473 H 0.89898 0.18983 0.73659 0.0
H474 H 0.99064 0.25885 0.72128 0.0
H475 H 0.95931 0.31452 0.73207 0.0
C476 C 0.99799 0.15832 0.69512 0.0
C477 C 0.994 0.12228 0.70252 0.0
C478 C 0.98348 0.1899 0.70352 0.0
C479 C 0.96479 0.18634 0.7196 0.0
C480 C 0.96176 0.15038 0.72725 0.0
C481 C 0.97613 0.11873 0.7188 0.0
C482 C 0.89506 0.24867 0.74229 0.0
C483 C 0.91113 0.28448 0.74075 0.0
C484 C 0.91285 0.21672 0.73587 0.0
C485 C 0.94725 0.21978 0.72786 0.0
C486 C 0.96388 0.25547 0.72701 0.0
C487 C 0.94599 0.28741 0.73331 0.0
H488 H 0.95312 0.45938 0.99207 0.0
H489 H 0.89032 0.44455 0.94466 0.0
H490 H 0.90135 0.43729 0.00956 0.0
H491 H 0.83888 0.4228 0.96205 0.0
H492 H 0.75891 0.36137 0.9958 0.0
H493 H 0.81715 0.37158 0.98127 0.0
H494 H 0.84024 0.46348 0.01672 0.0
H495 H 0.78206 0.45312 0.03142 0.0
C496 C 0.92851 0.45089 0.98536 0.0
C497 C 0.92579 0.45389 0.96698 0.0
C498 C 0.89881 0.43849 0.99539 0.0
C499 C 0.86599 0.42837 0.98721 0.0
C500 C 0.86387 0.42995 0.96877 0.0
C501 C 0.89333 0.44266 0.9588 0.0
C502 C 0.7766 0.38339 1.00071 0.0
C503 C 0.76558 0.40671 0.01467 0.0
C504 C 0.80993 0.38933 0.99231 0.0
C505 C 0.83314 0.4186 0.99771 0.0
C506 C 0.82308 0.44054 0.01231 0.0
C507 C 0.78963 0.43471 0.02068 0.0
H508 H 0.59781 0.40963 0.17483 0.0
H509 H 0.53535 0.39737 0.22266 0.0
H510 H 0.63792 0.35902 0.18438 0.0
H511 H 0.57419 0.34622 0.23183 0.0
H512 H 0.65379 0.26209 0.24937 0.0
H513 H 0.631 0.32417 0.24149 0.0
H514 H 0.63268 0.29256 0.1866 0.0
H515 H 0.65685 0.23131 0.19445 0.0
C516 C 0.5929 0.39648 0.18747 0.0
C517 C 0.56315 0.40727 0.19789 0.0
C518 C 0.61573 0.36728 0.19289 0.0
C519 C 0.60915 0.34816 0.20881 0.0
C520 C 0.58052 0.36046 0.21961 0.0
C521 C 0.55794 0.38972 0.21426 0.0
C522 C 0.64991 0.26871 0.2356 0.0
C523 C 0.65666 0.24162 0.22256 0.0
C524 C 0.63666 0.30423 0.23108 0.0
C525 C 0.6294 0.3133 0.21342 0.0
C526 C 0.63822 0.28687 0.20032 0.0
C527 C 0.65188 0.25153 0.20483 0.0
H528 H 0.0712 0.86403 0.36779 0.0
H529 H 0.97733 0.92323 0.38762 0.0
H530 H 0.08459 0.84194 0.3973 0.0
H531 H 0.99054 0.90061 0.4172 0.0
H532 H 0.06881 0.90995 0.46587 0.0
H533 H 0.03949 0.91867 0.43748 0.0
H534 H 0.06722 0.80476 0.42292 0.0
H535 H 0.09704 0.7962 0.45118 0.0
C536 C 0.05282 0.87146 0.37836 0.0
C537 C 0.02355 0.89586 0.37538 0.0
C538 C 0.06041 0.85866 0.3953 0.0
C539 C 0.03891 0.87 0.40965 0.0
C540 C 0.00795 0.89194 0.40645 0.0
C541 C 1.00024 0.90462 0.38947 0.0
C542 C 0.06812 0.88656 0.45674 0.0
C543 C 0.08577 0.85261 0.46068 0.0
C544 C 0.05108 0.89145 0.4405 0.0
C545 C 0.0513 0.86248 0.42788 0.0
C546 C 0.06707 0.82779 0.43226 0.0
C547 C 0.08409 0.8229 0.44848 0.0
H548 H 0.05765 0.48172 0.64978 0.0
H549 H 0.14051 0.55207 0.62623 0.0
H550 H 0.08348 0.49325 0.67866 0.0
H551 H 0.16697 0.56279 0.65516 0.0
H552 H 0.15994 0.62194 0.70923 0.0
H553 H 0.14662 0.60009 0.67971 0.0
H554 H 0.13299 0.48667 0.69928 0.0
H555 H 0.1456 0.50881 0.72907 0.0
C556 C 0.08194 0.49888 0.6507 0.0
C557 C 0.09663 0.51651 0.63571 0.0
C558 C 0.09688 0.50535 0.66729 0.0
C559 C 0.12697 0.52945 0.66927 0.0
C560 C 0.14329 0.54476 0.65412 0.0
C561 C 0.12826 0.5384 0.63752 0.0
C562 C 0.15444 0.59225 0.70727 0.0
C563 C 0.15351 0.56719 0.72156 0.0
C564 C 0.14712 0.57963 0.69027 0.0
C565 C 0.13875 0.54158 0.68709 0.0
C566 C 0.13897 0.51623 0.7013 0.0
C567 C 0.1463 0.5289 0.71836 0.0
H568 H 0.43184 0.44462 0.89375 0.0
H569 H 0.36526 0.52798 0.86806 0.0
H570 H 0.41398 0.46962 0.92229 0.0
H571 H 0.34833 0.55362 0.89648 0.0
H572 H 0.31285 0.5862 0.95097 0.0
H573 H 0.31898 0.5486 0.92434 0.0
H574 H 0.43091 0.52595 0.93749 0.0
H575 H 0.42437 0.56243 0.96438 0.0
C576 C 0.41271 0.46769 0.89419 0.0
C577 C 0.40036 0.48459 0.8786 0.0
C578 C 0.40281 0.48232 0.91056 0.0
C579 C 0.38043 0.51422 0.9117 0.0
C580 C 0.36555 0.52899 0.89615 0.0
C581 C 0.37527 0.51422 0.87978 0.0
C582 C 0.33871 0.57301 0.94821 0.0
C583 C 0.36821 0.57751 0.95974 0.0
C584 C 0.34223 0.55149 0.93292 0.0
C585 C 0.3754 0.53416 0.92874 0.0
C586 C 0.40472 0.53822 0.94044 0.0
C587 C 0.40111 0.55949 0.95579 0.0
H588 H 0.40222 0.00674 0.1263 0.0
H589 H 0.46678 0.9054 0.12744 0.0
H590 H 0.37581 0.98966 0.1549 0.0
H591 H 0.44173 0.88928 0.15579 0.0
H592 H 0.37029 0.84826 0.1984 0.0
H593 H 0.38737 0.86768 0.16895 0.0
H594 H 0.39201 0.98365 0.18604 0.0
H595 H 0.3733 0.96412 0.21562 0.0
C596 C 0.41063 0.98085 0.13258 0.0
C597 C 0.43645 0.95737 0.12453 0.0
C598 C 0.39575 0.97121 0.149 0.0
C599 C 0.40643 0.93793 0.15761 0.0
C600 C 0.43217 0.91464 0.14943 0.0
C601 C 0.44678 0.9241 0.13313 0.0
C602 C 0.37484 0.87794 0.19591 0.0
C603 C 0.37099 0.9046 0.20941 0.0
C604 C 0.38474 0.88911 0.179 0.0
C605 C 0.39169 0.92719 0.17516 0.0
C606 C 0.38667 0.95411 0.18852 0.0
C607 C 0.37623 0.94292 0.20548 0.0
H608 H 0.02427 0.48331 0.87422 0.0
H609 H 0.12357 0.51876 0.89956 0.0
H610 H 0.05079 0.498 0.8456 0.0
H611 H 0.14995 0.53348 0.87094 0.0
H612 H 0.19484 0.53874 0.81558 0.0
H613 H 0.17019 0.50894 0.84194 0.0
H614 H 0.06614 0.56017 0.83191 0.0
H615 H 0.0907 0.58994 0.80548 0.0
C616 C 0.05211 0.4932 0.87369 0.0
C617 C 0.07175 0.50011 0.88922 0.0
C618 C 0.06713 0.502 0.85727 0.0
C619 C 0.10225 0.5174 0.85603 0.0
C620 C 0.12286 0.52155 0.87145 0.0
C621 C 0.10773 0.51313 0.88786 0.0
C622 C 0.16659 0.54339 0.81887 0.0
C623 C 0.14479 0.56697 0.80847 0.0
C624 C 0.15253 0.52636 0.83402 0.0
C625 C 0.11626 0.53221 0.83902 0.0
C626 C 0.0941 0.55474 0.82829 0.0
C627 C 0.10824 0.57204 0.81322 0.0
H628 H 0.43052 0.59172 0.1319 0.0
H629 H 0.48967 0.50152 0.10692 0.0
H630 H 0.40266 0.60751 0.10401 0.0
H631 H 0.4618 0.51759 0.07876 0.0
H632 H 0.36718 0.52699 0.03875 0.0
H633 H 0.40137 0.51322 0.06547 0.0
H634 H 0.41379 0.63242 0.07518 0.0
H635 H 0.37907 0.64615 0.04887 0.0
C636 C 0.4381 0.57561 0.12038 0.0
C637 C 0.46196 0.54496 0.12169 0.0
C638 C 0.42213 0.58474 0.10433 0.0
C639 C 0.4297 0.56357 0.08916 0.0
C640 C 0.45487 0.53397 0.09028 0.0
C641 C 0.47097 0.52488 0.10638 0.0
C642 C 0.37714 0.55022 0.04663 0.0
C643 C 0.37006 0.58764 0.04176 0.0
C644 C 0.39704 0.54234 0.06184 0.0
C645 C 0.41031 0.57173 0.07248 0.0
C646 C 0.40354 0.60911 0.06745 0.0
C647 C 0.38362 0.61696 0.05232 0.0
H648 H 0.43409 0.88894 0.38627 0.0
H649 H 0.53156 0.9437 0.36728 0.0
H650 H 0.42122 0.86664 0.35671 0.0
H651 H 0.51894 0.92075 0.33769 0.0
H652 H 0.44788 0.92767 0.2869 0.0
H653 H 0.47333 0.93833 0.31601 0.0
H654 H 0.43852 0.8272 0.33204 0.0
H655 H 0.41243 0.81676 0.30303 0.0
C656 C 0.45328 0.89543 0.37588 0.0
C657 C 0.48362 0.91846 0.37913 0.0
C658 C 0.44597 0.88249 0.3589 0.0
C659 C 0.46883 0.8923 0.34478 0.0
C660 C 0.50048 0.91325 0.34824 0.0
C661 C 0.50786 0.92611 0.36524 0.0
C662 C 0.44611 0.90528 0.29654 0.0
C663 C 0.4277 0.87157 0.2927 0.0
C664 C 0.46093 0.91129 0.31322 0.0
C665 C 0.45773 0.88369 0.32641 0.0
C666 C 0.44094 0.84924 0.32227 0.0
C667 C 0.42611 0.84324 0.3056 0.0
H668 H 0.07053 0.03521 0.63225 0.0
H669 H 0.10744 0.92369 0.6459 0.0
H670 H 0.0926 0.02612 0.60217 0.0
H671 H 0.12992 0.91494 0.61608 0.0
H672 H 0.1075 0.88974 0.55861 0.0
H673 H 0.09484 0.9056 0.58898 0.0
H674 H 0.14564 0.01431 0.58178 0.0
H675 H 0.15828 0.99848 0.55097 0.0
C676 C 0.08428 0.00922 0.62899 0.0
C677 C 0.08677 0.97992 0.64137 0.0
C678 C 0.09689 0.00402 0.61175 0.0
C679 C 0.11224 0.96949 0.60667 0.0
C680 C 0.11736 0.9415 0.61948 0.0
C681 C 0.1047 0.94662 0.6366 0.0
C682 C 0.11597 0.91712 0.56339 0.0
C683 C 0.13405 0.94279 0.55232 0.0
C684 C 0.10898 0.92608 0.5809 0.0
C685 C 0.11979 0.96097 0.58788 0.0
C686 C 0.13707 0.98716 0.57677 0.0
C687 C 0.14431 0.97808 0.55915 0.0
H688 H 0.59132 0.49252 0.88332 0.0
H689 H 0.50002 0.53492 0.91306 0.0
H690 H 0.62324 0.47926 0.91068 0.0
H691 H 0.53213 0.52204 0.94033 0.0
H692 H 0.57478 0.43481 0.9807 0.0
H693 H 0.54687 0.46173 0.95461 0.0
H694 H 0.65111 0.50498 0.93785 0.0
H695 H 0.67925 0.47771 0.96394 0.0
C696 C 0.57843 0.49988 0.89566 0.0
C697 C 0.54296 0.51434 0.89601 0.0
C698 C 0.59676 0.49235 0.91134 0.0
C699 C 0.57995 0.4991 0.92766 0.0
C700 C 0.54549 0.5159 0.92796 0.0
C701 C 0.52722 0.52351 0.91231 0.0
C702 C 0.59174 0.45031 0.97154 0.0
C703 C 0.62926 0.45392 0.97434 0.0
C704 C 0.57568 0.46601 0.95665 0.0
C705 C 0.5968 0.48553 0.94418 0.0
C706 C 0.63421 0.48986 0.94717 0.0
C707 C 0.65026 0.47436 0.96214 0.0
H708 H 0.57075 0.97786 0.12232 0.0
H709 H 0.57268 0.09825 0.11422 0.0
H710 H 0.60065 0.98655 0.15086 0.0
H711 H 0.60233 0.10674 0.14246 0.0
H712 H 0.59618 0.11094 0.20195 0.0
H713 H 0.5745 0.09619 0.17261 0.0
H714 H 0.65866 0.01286 0.16671 0.0
H715 H 0.68074 0.02765 0.19634 0.0
C716 C 0.57844 0.00599 0.12639 0.0
C717 C 0.56895 0.03743 0.11617 0.0
C718 C 0.59542 0.01095 0.14273 0.0
C719 C 0.603 0.04738 0.149 0.0
C720 C 0.59601 0.07841 0.13812 0.0
C721 C 0.57921 0.07351 0.1219 0.0
C722 C 0.61 0.08924 0.19453 0.0
C723 C 0.64038 0.07068 0.20146 0.0
C724 C 0.59771 0.08099 0.17765 0.0
C725 C 0.6153 0.05382 0.1673 0.0
C726 C 0.64472 0.03401 0.17442 0.0
C727 C 0.65732 0.04254 0.19134 0.0
H728 H 0.91764 0.07437 0.37861 0.0
H729 H 0.03174 0.05801 0.38906 0.0
H730 H 0.90887 0.09748 0.40826 0.0
H731 H 0.02312 0.08234 0.41889 0.0
H732 H 0.97642 0.07094 0.47625 0.0
H733 H 0.9943 0.05967 0.44573 0.0
H734 H 0.92043 0.14655 0.42869 0.0
H735 H 0.90173 0.15671 0.45897 0.0
C736 C 0.94107 0.07651 0.38714 0.0
C737 C 0.97532 0.06407 0.38152 0.0
C738 C 0.93609 0.09002 0.40417 0.0
C739 C 0.96527 0.09163 0.41603 0.0
C740 C 0.99999 0.08098 0.41014 0.0
C741 C 0.005 0.06741 0.39301 0.0
C742 C 0.96435 0.08785 0.46597 0.0
C743 C 0.93721 0.1142 0.46996 0.0
C744 C 0.97476 0.08161 0.44849 0.0
C745 C 0.95845 0.10189 0.43471 0.0
C746 C 0.93291 0.1298 0.43891 0.0
C747 C 0.92224 0.13568 0.45629 0.0
H748 H 0.92142 0.54599 0.63949 0.0
H749 H 0.89093 0.43386 0.62301 0.0
H750 H 0.89203 0.53525 0.66782 0.0
H751 H 0.86309 0.42253 0.65141 0.0
H752 H 0.80854 0.40896 0.7029 0.0
H753 H 0.81901 0.43313 0.6733 0.0
H754 H 0.90917 0.49948 0.6926 0.0
H755 H 0.89768 0.47658 0.72215 0.0
C756 C 0.90791 0.51929 0.64179 0.0
C757 C 0.90906 0.49056 0.6291 0.0
C758 C 0.89133 0.513 0.65809 0.0
C759 C 0.87585 0.47772 0.6621 0.0
C760 C 0.87449 0.45014 0.64884 0.0
C761 C 0.8907 0.45657 0.63251 0.0
C762 C 0.83022 0.42917 0.70082 0.0
C763 C 0.85257 0.44051 0.71482 0.0
C764 C 0.83632 0.44294 0.68385 0.0
C765 C 0.86518 0.468 0.68045 0.0
C766 C 0.88636 0.48067 0.69467 0.0
C767 C 0.87999 0.46725 0.71165 0.0
H768 H 0.4558 0.04218 0.35101 0.0
H769 H 0.53372 0.10682 0.38096 0.0
H770 H 0.48074 0.06794 0.32384 0.0
H771 H 0.55836 0.13285 0.35374 0.0
H772 H 0.62659 0.11437 0.30309 0.0
H773 H 0.59478 0.10181 0.33055 0.0
H774 H 0.49231 0.12437 0.30524 0.0
H775 H 0.52422 0.13681 0.27757 0.0
C776 C 0.47762 0.06262 0.35184 0.0
C777 C 0.49309 0.07201 0.36816 0.0
C778 C 0.49186 0.07747 0.33625 0.0
C779 C 0.52191 0.10194 0.33664 0.0
C780 C 0.53562 0.11349 0.35302 0.0
C781 C 0.52129 0.09878 0.36862 0.0
C782 C 0.59729 0.11685 0.30336 0.0
C783 C 0.57794 0.12639 0.2881 0.0
C784 C 0.57907 0.11001 0.31916 0.0
C785 C 0.54103 0.11232 0.3201 0.0
C786 C 0.52163 0.12224 0.3049 0.0
C787 C 0.53992 0.12942 0.28908 0.0
H788 H 0.93872 0.97104 0.63434 0.0
H789 H 0.90651 0.08558 0.64518 0.0
H790 H 0.91643 0.97733 0.60428 0.0
H791 H 0.88569 0.09235 0.61521 0.0
H792 H 0.83651 0.0961 0.56269 0.0
H793 H 0.84403 0.07692 0.59315 0.0
H794 H 0.93598 0.00858 0.57818 0.0
H795 H 0.92716 0.02651 0.54751 0.0
C796 C 0.92638 0.99735 0.63041 0.0
C797 C 0.92467 0.02792 0.64214 0.0
C798 C 0.91392 0.00108 0.61312 0.0
C799 C 0.89959 0.03547 0.60718 0.0
C800 C 0.89609 0.06525 0.61927 0.0
C801 C 0.90828 0.06145 0.63652 0.0
C802 C 0.85799 0.07652 0.56588 0.0
C803 C 0.88156 0.06316 0.55276 0.0
C804 C 0.86244 0.06565 0.58337 0.0
C805 C 0.89104 0.04172 0.58825 0.0
C806 C 0.91345 0.02679 0.57495 0.0
C807 C 0.90858 0.03721 0.55735 0.0
H808 H 0.85752 0.48912 0.88783 0.0
H809 H 0.95652 0.54203 0.86961 0.0
H810 H 0.84594 0.46579 0.8583 0.0
H811 H 0.94462 0.51905 0.83995 0.0
H812 H 0.94013 0.41748 0.80096 0.0
H813 H 0.94751 0.45532 0.82747 0.0
H814 H 0.83264 0.47937 0.82759 0.0
H815 H 0.8251 0.4411 0.80125 0.0
C816 C 0.87628 0.49671 0.87742 0.0
C817 C 0.9081 0.51711 0.88114 0.0
C818 C 0.8696 0.48338 0.86045 0.0
C819 C 0.89467 0.49006 0.84681 0.0
C820 C 0.92513 0.51287 0.85024 0.0
C821 C 0.93171 0.52641 0.86722 0.0
C822 C 0.91649 0.43107 0.80655 0.0
C823 C 0.88199 0.42591 0.79907 0.0
C824 C 0.92077 0.45306 0.82167 0.0
C825 C 0.89064 0.47036 0.82966 0.0
C826 C 0.85632 0.46611 0.82187 0.0
C827 C 0.85205 0.4442 0.80674 0.0
H828 H 0.42752 0.4176 0.11455 0.0
H829 H 0.51771 0.4097 0.15021 0.0
H830 H 0.4697 0.42438 0.08985 0.0
H831 H 0.56017 0.41873 0.12583 0.0
H832 H 0.62167 0.38716 0.07473 0.0
H833 H 0.58236 0.38502 0.10051 0.0
H834 H 0.51268 0.46863 0.07708 0.0
H835 H 0.5516 0.4703 0.05116 0.0
C836 C 0.45645 0.4179 0.11711 0.0
C837 C 0.46951 0.41441 0.13433 0.0
C838 C 0.48062 0.42205 0.10301 0.0
C839 C 0.51839 0.42264 0.10586 0.0
C840 C 0.53132 0.41856 0.12314 0.0
C841 C 0.50709 0.41422 0.13718 0.0
C842 C 0.59831 0.40557 0.07518 0.0
C843 C 0.5897 0.42872 0.0608 0.0
C844 C 0.57575 0.40437 0.09 0.0
C845 C 0.54408 0.42634 0.0908 0.0
C846 C 0.53644 0.4508 0.07676 0.0
C847 C 0.55898 0.45199 0.06195 0.0
loop_
_geom_bond_atom_site_label_1
_geom_bond_atom_site_label_2
_geom_bond_distance
_geom_bond_site_symmetry_2
_ccdc_geom_bond_type
Mg0 O7 2.141 1_545 S
Mg0 O8 2.048 1_545 S
Mg0 O9 2.048 1_455 S
Mg0 O12 2.141 1_455 S
C1 O2 1.313 . S
C1 O8 1.195 . S
O2 C1 1.313 . S
C3 O4 1.245 . S
C3 O12 1.289 . S
O4 C3 1.245 . S
C5 O6 1.245 . S
C5 O7 1.289 . S
O6 C5 1.245 . S
O7 Mg0 2.141 1_565 S
O7 C5 1.289 . S
O8 Mg0 2.048 1_565 S
O8 C1 1.195 . S
O9 Mg0 2.048 1_655 S
O9 C10 1.195 . S
C10 O9 1.195 . S
C10 O11 1.313 1_545 S
O11 C10 1.313 1_565 S
O12 Mg0 2.141 1_655 S
O12 C3 1.289 . S
Mg13 O20 2.141 1_655 S
Mg13 O21 2.048 1_655 S
Mg13 O22 2.048 . S
Mg13 O25 2.141 . S
C14 O15 1.313 . S
C14 O21 1.195 . S
O15 C14 1.313 . S
C16 O17 1.245 . S
C16 O25 1.289 . S
O17 C16 1.245 . S
C18 O19 1.245 . S
C18 O20 1.289 . S
O19 C18 1.245 . S
O20 Mg13 2.141 1_455 S
O20 C18 1.289 . S
O21 Mg13 2.048 1_455 S
O21 C14 1.195 . S
O22 Mg13 2.048 . S
O22 C23 1.195 . S
C23 O22 1.195 . S
C23 O24 1.313 1_655 S
O24 C23 1.313 1_455 S
O25 Mg13 2.141 . S
O25 C16 1.289 . S
Mg26 O33 2.141 . S
Mg26 O34 2.048 . S
Mg26 O35 2.048 . S
Mg26 O38 2.141 . S
C27 O28 1.313 . S
C27 O34 1.195 . S
O28 C27 1.313 . S
C29 O30 1.245 . S
C29 O38 1.289 . S
O30 C29 1.245 . S
C31 O32 1.245 . S
C31 O33 1.289 . S
O32 C31 1.245 . S
O33 Mg26 2.141 . S
O33 C31 1.289 . S
O34 Mg26 2.048 . S
O34 C27 1.195 . S
O35 Mg26 2.048 . S
O35 C36 1.195 . S
C36 O35 1.195 . S
C36 O37 1.313 . S
O37 C36 1.313 . S
O38 Mg26 2.141 . S
O38 C29 1.289 . S
Mg39 O46 2.141 . S
Mg39 O47 2.048 . S
Mg39 O48 2.048 1_545 S
Mg39 O51 2.141 1_545 S
C40 O41 1.313 . S
C40 O47 1.195 . S
O41 C40 1.313 . S
C42 O43 1.245 . S
C42 O51 1.289 . S
O43 C42 1.245 . S
C44 O45 1.245 . S
C44 O46 1.289 . S
O45 C44 1.245 . S
O46 Mg39 2.141 . S
O46 C44 1.289 . S
O47 Mg39 2.048 . S
O47 C40 1.195 . S
O48 Mg39 2.048 1_565 S
O48 C49 1.195 . S
C49 O48 1.195 . S
C49 O50 1.313 . S
O50 C49 1.313 . S
O51 Mg39 2.141 1_565 S
O51 C42 1.289 . S
Mg52 O59 2.141 . S
Mg52 O60 2.048 . S
Mg52 O61 2.048 1_455 S
Mg52 O64 2.141 1_455 S
C53 O54 1.313 . S
C53 O60 1.195 . S
O54 C53 1.313 . S
C55 O56 1.245 . S
C55 O64 1.289 . S
O56 C55 1.245 . S
C57 O58 1.245 . S
C57 O59 1.289 . S
O58 C57 1.245 . S
O59 Mg52 2.141 . S
O59 C57 1.289 . S
O60 Mg52 2.048 . S
O60 C53 1.195 . S
O61 Mg52 2.048 1_655 S
O61 C62 1.195 . S
C62 O61 1.195 . S
C62 O63 1.313 . S
O63 C62 1.313 . S
O64 Mg52 2.141 1_655 S
O64 C55 1.289 . S
Mg65 O72 2.141 . S
Mg65 O73 2.048 . S
Mg65 O74 2.048 . S
Mg65 O77 2.141 . S
C66 O67 1.313 . S
C66 O73 1.195 . S
O67 C66 1.313 . S
C68 O69 1.245 . S
C68 O77 1.289 . S
O69 C68 1.245 . S
C70 O71 1.245 . S
C70 O72 1.289 . S
O71 C70 1.245 . S
O72 Mg65 2.141 . S
O72 C70 1.289 . S
O73 Mg65 2.048 . S
O73 C66 1.195 . S
O74 Mg65 2.048 . S
O74 C75 1.195 . S
C75 O74 1.195 . S
C75 O76 1.313 . S
O76 C75 1.313 . S
O77 Mg65 2.141 . S
O77 C68 1.289 . S
Mg78 O85 2.141 1_565 S
Mg78 O86 2.048 1_565 S
Mg78 O87 2.048 . S
Mg78 O90 2.141 . S
C79 O80 1.313 . S
C79 O86 1.195 . S
O80 C79 1.313 . S
C81 O82 1.245 . S
C81 O90 1.289 . S
O82 C81 1.245 . S
C83 O84 1.245 . S
C83 O85 1.289 . S
O84 C83 1.245 . S
O85 Mg78 2.141 1_545 S
O85 C83 1.289 . S
O86 Mg78 2.048 1_545 S
O86 C79 1.195 . S
O87 Mg78 2.048 . S
O87 C88 1.195 . S
C88 O87 1.195 . S
C88 O89 1.313 1_565 S
O89 C88 1.313 1_545 S
O90 Mg78 2.141 . S
O90 C81 1.289 . S
Mg91 O98 2.141 1_655 S
Mg91 O99 2.048 1_655 S
Mg91 O100 2.048 1_565 S
Mg91 O103 2.141 1_565 S
C92 O93 1.313 . S
C92 O99 1.195 . S
O93 C92 1.313 . S
C94 O95 1.245 . S
C94 O103 1.289 . S
O95 C94 1.245 . S
C96 O97 1.245 . S
C96 O98 1.289 . S
O97 C96 1.245 . S
O98 Mg91 2.141 1_455 S
O98 C96 1.289 . S
O99 Mg91 2.048 1_455 S
O99 C92 1.195 . S
O100 Mg91 2.048 1_545 S
O100 C101 1.195 . S
C101 O100 1.195 . S
C101 O102 1.313 1_655 S
O102 C101 1.313 1_455 S
O103 Mg91 2.141 1_545 S
O103 C94 1.289 . S
C104 O105 1.160 1_556 S
C104 O111 1.185 . S
O105 C104 1.160 1_554 S
O106 Zn107 1.899 . S
O106 C114 1.284 . S
Zn107 O106 1.899 . S
Zn107 O108 2.032 1_554 S
Zn107 O111 2.086 1_554 S
Zn107 O116 1.977 . S
O108 Zn107 2.032 1_556 S
O108 C112 1.278 . S
C109 O110 1.203 . S
C109 O116 1.267 . S
O110 C109 1.203 . S
O111 C104 1.185 . S
O111 Zn107 2.086 1_556 S
C112 O108 1.278 . S
C112 O113 1.211 . S
O113 C112 1.211 . S
C114 O106 1.284 . S
C114 O115 1.273 . S
O115 C114 1.273 . S
O116 Zn107 1.977 . S
O116 C109 1.267 . S
C117 O118 1.160 . S
C117 O124 1.185 . S
O118 C117 1.160 . S
O119 Zn120 1.899 . S
O119 C127 1.284 . S
Zn120 O119 1.899 . S
Zn120 O121 2.032 . S
Zn120 O124 2.086 . S
Zn120 O129 1.977 . S
O121 Zn120 2.032 . S
O121 C125 1.278 . S
C122 O123 1.203 . S
C122 O129 1.267 . S
O123 C122 1.203 . S
O124 C117 1.185 . S
O124 Zn120 2.086 . S
C125 O121 1.278 . S
C125 O126 1.211 . S
O126 C125 1.211 . S
C127 O119 1.284 . S
C127 O128 1.273 . S
O128 C127 1.273 . S
O129 Zn120 1.977 . S
O129 C122 1.267 . S
C130 O131 1.160 . S
C130 O137 1.185 . S
O131 C130 1.160 . S
O132 Zn133 1.899 . S
O132 C140 1.284 . S
Zn133 O132 1.899 . S
Zn133 O134 2.032 . S
Zn133 O137 2.086 . S
Zn133 O142 1.977 . S
O134 Zn133 2.032 . S
O134 C138 1.278 . S
C135 O136 1.203 . S
C135 O142 1.267 . S
O136 C135 1.203 . S
O137 C130 1.185 . S
O137 Zn133 2.086 . S
C138 O134 1.278 . S
C138 O139 1.211 . S
O139 C138 1.211 . S
C140 O132 1.284 . S
C140 O141 1.273 . S
O141 C140 1.273 . S
O142 Zn133 1.977 . S
O142 C135 1.267 . S
C143 O144 1.160 . S
C143 O150 1.185 . S
O144 C143 1.160 . S
O145 Zn146 1.899 . S
O145 C153 1.284 . S
Zn146 O145 1.899 . S
Zn146 O147 2.032 . S
Zn146 O150 2.086 . S
Zn146 O155 1.977 . S
O147 Zn146 2.032 . S
O147 C151 1.278 . S
C148 O149 1.203 . S
C148 O155 1.267 . S
O149 C148 1.203 . S
O150 C143 1.185 . S
O150 Zn146 2.086 . S
C151 O147 1.278 . S
C151 O152 1.211 . S
O152 C151 1.211 . S
C153 O145 1.284 . S
C153 O154 1.273 . S
O154 C153 1.273 . S
O155 Zn146 1.977 . S
O155 C148 1.267 . S
C156 O157 1.160 . S
C156 O163 1.185 . S
O157 C156 1.160 . S
O158 Zn159 1.899 . S
O158 C166 1.284 . S
Zn159 O158 1.899 . S
Zn159 O160 2.032 . S
Zn159 O163 2.086 . S
Zn159 O168 1.977 . S
O160 Zn159 2.032 . S
O160 C164 1.278 . S
C161 O162 1.203 . S
C161 O168 1.267 . S
O162 C161 1.203 . S
O163 C156 1.185 . S
O163 Zn159 2.086 . S
C164 O160 1.278 . S
C164 O165 1.211 . S
O165 C164 1.211 . S
C166 O158 1.284 . S
C166 O167 1.273 . S
O167 C166 1.273 . S
O168 Zn159 1.977 . S
O168 C161 1.267 . S
C169 O170 1.160 . S
C169 O176 1.185 . S
O170 C169 1.160 . S
O171 Zn172 1.899 . S
O171 C179 1.284 . S
Zn172 O171 1.899 . S
Zn172 O173 2.032 . S
Zn172 O176 2.086 . S
Zn172 O181 1.977 . S
O173 Zn172 2.032 . S
O173 C177 1.278 . S
C174 O175 1.203 . S
C174 O181 1.267 . S
O175 C174 1.203 . S
O176 C169 1.185 . S
O176 Zn172 2.086 . S
C177 O173 1.278 . S
C177 O178 1.211 . S
O178 C177 1.211 . S
C179 O171 1.284 . S
C179 O180 1.273 . S
O180 C179 1.273 . S
O181 Zn172 1.977 . S
O181 C174 1.267 . S
C182 O183 1.160 1_556 S
C182 O189 1.185 . S
O183 C182 1.160 1_554 S
O184 Zn185 1.899 . S
O184 C192 1.284 . S
Zn185 O184 1.899 . S
Zn185 O186 2.032 1_554 S
Zn185 O189 2.086 1_554 S
Zn185 O194 1.977 . S
O186 Zn185 2.032 1_556 S
O186 C190 1.278 . S
C187 O188 1.203 . S
C187 O194 1.267 . S
O188 C187 1.203 . S
O189 C182 1.185 . S
O189 Zn185 2.086 1_556 S
C190 O186 1.278 . S
C190 O191 1.211 . S
O191 C190 1.211 . S
C192 O184 1.284 . S
C192 O193 1.273 . S
O193 C192 1.273 . S
O194 Zn185 1.977 . S
O194 C187 1.267 . S
C195 O196 1.160 . S
C195 O202 1.185 . S
O196 C195 1.160 . S
O197 Zn198 1.899 . S
O197 C205 1.284 . S
Zn198 O197 1.899 . S
Zn198 O199 2.032 . S
Zn198 O202 2.086 . S
Zn198 O207 1.977 . S
O199 Zn198 2.032 . S
O199 C203 1.278 . S
C200 O201 1.203 . S
C200 O207 1.267 . S
O201 C200 1.203 . S
O202 C195 1.185 . S
O202 Zn198 2.086 . S
C203 O199 1.278 . S
C203 O204 1.211 . S
O204 C203 1.211 . S
C205 O197 1.284 . S
C205 O206 1.273 . S
O206 C205 1.273 . S
O207 Zn198 1.977 . S
O207 C200 1.267 . S
H208 C216 0.950 . S
H209 C221 0.950 . S
H210 C218 0.950 . S
H211 C220 0.950 . S
H212 C222 0.950 . S
H213 C224 0.950 . S
H214 C226 0.950 . S
H215 C227 0.950 . S
C216 H208 0.950 . S
C216 C217 1.386 . S
C216 C218 1.391 . S
C217 C216 1.386 . S
C217 C221 1.393 . S
C218 H210 0.950 . S
C218 C216 1.391 . S
C218 C219 1.400 . S
C219 C218 1.400 . S
C219 C220 1.398 . S
C219 C225 1.491 . S
C220 H211 0.950 . S
C220 C219 1.398 . S
C220 C221 1.391 . S
C221 H209 0.950 . S
C221 C217 1.393 . S
C221 C220 1.391 . S
C222 H212 0.950 . S
C222 C223 1.386 . S
C222 C224 1.391 . S
C223 C222 1.386 . S
C223 C227 1.393 . S
C224 H213 0.950 . S
C224 C222 1.391 . S
C224 C225 1.400 . S
C225 C219 1.491 . S
C225 C224 1.400 . S
C225 C226 1.398 . S
C226 H214 0.950 . S
C226 C225 1.398 . S
C226 C227 1.391 . S
C227 H215 0.950 . S
C227 C223 1.393 . S
C227 C226 1.391 . S
H228 C236 0.950 . S
H229 C241 0.950 . S
H230 C238 0.950 . S
H231 C240 0.950 . S
H232 C242 0.950 . S
H233 C244 0.950 . S
H234 C246 0.950 . S
H235 C247 0.950 . S
C236 H228 0.950 . S
C236 C237 1.386 . S
C236 C238 1.391 . S
C237 C236 1.386 . S
C237 C241 1.393 . S
C238 H230 0.950 . S
C238 C236 1.391 . S
C238 C239 1.400 . S
C239 C238 1.400 . S
C239 C240 1.398 . S
C239 C245 1.491 . S
C240 H231 0.950 . S
C240 C239 1.398 . S
C240 C241 1.391 . S
C241 H229 0.950 . S
C241 C237 1.393 . S
C241 C240 1.391 . S
C242 H232 0.950 . S
C242 C243 1.386 . S
C242 C244 1.391 . S
C243 C242 1.386 . S
C243 C247 1.393 . S
C244 H233 0.950 . S
C244 C242 1.391 . S
C244 C245 1.400 . S
C245 C239 1.491 . S
C245 C244 1.400 . S
C245 C246 1.398 . S
C246 H234 0.950 . S
C246 C245 1.398 . S
C246 C247 1.391 . S
C247 H235 0.950 . S
C247 C243 1.393 . S
C247 C246 1.391 . S
H248 C256 0.950 . S
H249 C261 0.950 . S
H250 C258 0.950 . S
H251 C260 0.950 . S
H252 C262 0.950 . S
H253 C264 0.950 . S
H254 C266 0.950 . S
H255 C267 0.950 . S
C256 H248 0.950 . S
C256 C257 1.386 . S
C256 C258 1.391 . S
C257 C256 1.386 . S
C257 C261 1.393 . S
C258 H250 0.950 . S
C258 C256 1.391 . S
C258 C259 1.400 . S
C259 C258 1.400 . S
C259 C260 1.398 . S
C259 C265 1.491 . S
C260 H251 0.950 . S
C260 C259 1.398 . S
C260 C261 1.391 . S
C261 H249 0.950 . S
C261 C257 1.393 . S
C261 C260 1.391 . S
C262 H252 0.950 . S
C262 C263 1.386 . S
C262 C264 1.391 . S
C263 C262 1.386 . S
C263 C267 1.393 . S
C264 H253 0.950 . S
C264 C262 1.391 . S
C264 C265 1.400 . S
C265 C259 1.491 . S
C265 C264 1.400 . S
C265 C266 1.398 . S
C266 H254 0.950 . S
C266 C265 1.398 . S
C266 C267 1.391 . S
C267 H255 0.950 . S
C267 C263 1.393 . S
C267 C266 1.391 . S
H268 C276 0.950 . S
H269 C281 0.950 . S
H270 C278 0.950 . S
H271 C280 0.950 . S
H272 C282 0.950 . S
H273 C284 0.950 . S
H274 C286 0.950 . S
H275 C287 0.950 . S
C276 H268 0.950 . S
C276 C277 1.386 . S
C276 C278 1.391 . S
C277 C276 1.386 . S
C277 C281 1.393 . S
C278 H270 0.950 . S
C278 C276 1.391 . S
C278 C279 1.400 . S
C279 C278 1.400 . S
C279 C280 1.398 . S
C279 C285 1.491 . S
C280 H271 0.950 . S
C280 C279 1.398 . S
C280 C281 1.391 . S
C281 H269 0.950 . S
C281 C277 1.393 . S
C281 C280 1.391 . S
C282 H272 0.950 . S
C282 C283 1.386 . S
C282 C284 1.391 . S
C283 C282 1.386 . S
C283 C287 1.393 . S
C284 H273 0.950 . S
C284 C282 1.391 . S
C284 C285 1.400 . S
C285 C279 1.491 . S
C285 C284 1.400 . S
C285 C286 1.398 . S
C286 H274 0.950 . S
C286 C285 1.398 . S
C286 C287 1.391 . S
C287 H275 0.950 . S
C287 C283 1.393 . S
C287 C286 1.391 . S
H288 C296 0.950 . S
H289 C301 0.950 . S
H290 C298 0.950 . S
H291 C300 0.950 . S
H292 C302 0.950 1_554 S
H293 C304 0.950 . S
H294 C306 0.950 . S
H295 C307 0.950 . S
C296 H288 0.950 . S
C296 C297 1.386 . S
C296 C298 1.391 . S
C297 C296 1.386 . S
C297 C301 1.393 . S
C298 H290 0.950 . S
C298 C296 1.391 . S
C298 C299 1.400 . S
C299 C298 1.400 . S
C299 C300 1.398 . S
C299 C305 1.491 . S
C300 H291 0.950 . S
C300 C299 1.398 . S
C300 C301 1.391 . S
C301 H289 0.950 . S
C301 C297 1.393 . S
C301 C300 1.391 . S
C302 H292 0.950 1_556 S
C302 C303 1.386 . S
C302 C304 1.391 . S
C303 C302 1.386 . S
C303 C307 1.393 . S
C304 H293 0.950 . S
C304 C302 1.391 . S
C304 C305 1.400 . S
C305 C299 1.491 . S
C305 C304 1.400 . S
C305 C306 1.398 . S
C306 H294 0.950 . S
C306 C305 1.398 . S
C306 C307 1.391 . S
C307 H295 0.950 . S
C307 C303 1.393 . S
C307 C306 1.391 . S
H308 C316 0.950 . S
H309 C321 0.950 . S
H310 C318 0.950 . S
H311 C320 0.950 . S
H312 C322 0.950 . S
H313 C324 0.950 . S
H314 C326 0.950 . S
H315 C327 0.950 . S
C316 H308 0.950 . S
C316 C317 1.386 . S
C316 C318 1.391 . S
C317 C316 1.386 . S
C317 C321 1.393 . S
C318 H310 0.950 . S
C318 C316 1.391 . S
C318 C319 1.400 . S
C319 C318 1.400 . S
C319 C320 1.398 . S
C319 C325 1.491 . S
C320 H311 0.950 . S
C320 C319 1.398 . S
C320 C321 1.391 . S
C321 H309 0.950 . S
C321 C317 1.393 . S
C321 C320 1.391 . S
C322 H312 0.950 . S
C322 C323 1.386 . S
C322 C324 1.391 . S
C323 C322 1.386 . S
C323 C327 1.393 . S
C324 H313 0.950 . S
C324 C322 1.391 . S
C324 C325 1.400 . S
C325 C319 1.491 . S
C325 C324 1.400 . S
C325 C326 1.398 . S
C326 H314 0.950 . S
C326 C325 1.398 . S
C326 C327 1.391 . S
C327 H315 0.950 . S
C327 C323 1.393 . S
C327 C326 1.391 . S
H328 C336 0.950 . S
H329 C341 0.950 . S
H330 C338 0.950 . S
H331 C340 0.950 . S
H332 C342 0.950 . S
H333 C344 0.950 . S
H334 C346 0.950 . S
H335 C347 0.950 . S
C336 H328 0.950 . S
C336 C337 1.386 . S
C336 C338 1.391 . S
C337 C336 1.386 . S
C337 C341 1.393 . S
C338 H330 0.950 . S
C338 C336 1.391 . S
C338 C339 1.400 . S
C339 C338 1.400 . S
C339 C340 1.398 . S
C339 C345 1.491 . S
C340 H331 0.950 . S
C340 C339 1.398 . S
C340 C341 1.391 . S
C341 H329 0.950 . S
C341 C337 1.393 . S
C341 C340 1.391 . S
C342 H332 0.950 . S
C342 C343 1.386 . S
C342 C344 1.391 . S
C343 C342 1.386 . S
C343 C347 1.393 . S
C344 H333 0.950 . S
C344 C342 1.391 . S
C344 C345 1.400 . S
C345 C339 1.491 . S
C345 C344 1.400 . S
C345 C346 1.398 . S
C346 H334 0.950 . S
C346 C345 1.398 . S
C346 C347 1.391 . S
C347 H335 0.950 . S
C347 C343 1.393 . S
C347 C346 1.391 . S
H348 C356 0.950 . S
H349 C361 0.950 . S
H350 C358 0.950 . S
H351 C360 0.950 . S
H352 C362 0.950 . S
H353 C364 0.950 . S
H354 C366 0.950 . S
H355 C367 0.950 . S
C356 H348 0.950 . S
C356 C357 1.386 . S
C356 C358 1.391 . S
C357 C356 1.386 . S
C357 C361 1.393 . S
C358 H350 0.950 . S
C358 C356 1.391 . S
C358 C359 1.400 . S
C359 C358 1.400 . S
C359 C360 1.398 . S
C359 C365 1.491 . S
C360 H351 0.950 . S
C360 C359 1.398 . S
C360 C361 1.391 . S
C361 H349 0.950 . S
C361 C357 1.393 . S
C361 C360 1.391 . S
C362 H352 0.950 . S
C362 C363 1.386 . S
C362 C364 1.391 . S
C363 C362 1.386 . S
C363 C367 1.393 . S
C364 H353 0.950 . S
C364 C362 1.391 . S
C364 C365 1.400 . S
C365 C359 1.491 . S
C365 C364 1.400 . S
C365 C366 1.398 . S
C366 H354 0.950 . S
C366 C365 1.398 . S
C366 C367 1.391 . S
C367 H355 0.950 . S
C367 C363 1.393 . S
C367 C366 1.391 . S
H368 C376 0.950 . S
H369 C381 0.950 . S
H370 C378 0.950 . S
H371 C380 0.950 . S
H372 C382 0.950 . S
H373 C384 0.950 . S
H374 C386 0.950 . S
H375 C387 0.950 . S
C376 H368 0.950 . S
C376 C377 1.386 . S
C376 C378 1.391 . S
C377 C376 1.386 . S
C377 C381 1.393 . S
C378 H370 0.950 . S
C378 C376 1.391 . S
C378 C379 1.400 . S
C379 C378 1.400 . S
C379 C380 1.398 . S
C379 C385 1.491 . S
C380 H371 0.950 . S
C380 C379 1.398 . S
C380 C381 1.391 . S
C381 H369 0.950 . S
C381 C377 1.393 . S
C381 C380 1.391 . S
C382 H372 0.950 . S
C382 C383 1.386 . S
C382 C384 1.391 . S
C383 C382 1.386 . S
C383 C387 1.393 . S
C384 H373 0.950 . S
C384 C382 1.391 . S
C384 C385 1.400 . S
C385 C379 1.491 . S
C385 C384 1.400 . S
C385 C386 1.398 . S
C386 H374 0.950 . S
C386 C385 1.398 . S
C386 C387 1.391 . S
C387 H375 0.950 . S
C387 C383 1.393 . S
C387 C386 1.391 . S
H388 C396 0.950 . S
H389 C401 0.950 . S
H390 C398 0.950 . S
H391 C400 0.950 . S
H392 C402 0.950 . S
H393 C404 0.950 . S
H394 C406 0.950 . S
H395 C407 0.950 . S
C396 H388 0.950 . S
C396 C397 1.386 . S
C396 C398 1.391 . S
C397 C396 1.386 . S
C397 C401 1.393 . S
C398 H390 0.950 . S
C398 C396 1.391 . S
C398 C399 1.400 . S
C399 C398 1.400 . S
C399 C400 1.398 . S
C399 C405 1.491 . S
C400 H391 0.950 . S
C400 C399 1.398 . S
C400 C401 1.391 . S
C401 H389 0.950 . S
C401 C397 1.393 . S
C401 C400 1.391 . S
C402 H392 0.950 . S
C402 C403 1.386 . S
C402 C404 1.391 . S
C403 C402 1.386 . S
C403 C407 1.393 . S
C404 H393 0.950 . S
C404 C402 1.391 . S
C404 C405 1.400 . S
C405 C399 1.491 . S
C405 C404 1.400 . S
C405 C406 1.398 . S
C406 H394 0.950 . S
C406 C405 1.398 . S
C406 C407 1.391 . S
C407 H395 0.950 . S
C407 C403 1.393 . S
C407 C406 1.391 . S
H408 C416 0.950 . S
H409 C421 0.950 . S
H410 C418 0.950 . S
H411 C420 0.950 . S
H412 C422 0.950 . S
H413 C424 0.950 . S
H414 C426 0.950 . S
H415 C427 0.950 . S
C416 H408 0.950 . S
C416 C417 1.386 . S
C416 C418 1.391 . S
C417 C416 1.386 . S
C417 C421 1.393 . S
C418 H410 0.950 . S
C418 C416 1.391 . S
C418 C419 1.400 . S
C419 C418 1.400 . S
C419 C420 1.398 . S
C419 C425 1.491 . S
C420 H411 0.950 . S
C420 C419 1.398 . S
C420 C421 1.391 . S
C421 H409 0.950 . S
C421 C417 1.393 . S
C421 C420 1.391 . S
C422 H412 0.950 . S
C422 C423 1.386 . S
C422 C424 1.391 . S
C423 C422 1.386 . S
C423 C427 1.393 . S
C424 H413 0.950 . S
C424 C422 1.391 . S
C424 C425 1.400 . S
C425 C419 1.491 . S
C425 C424 1.400 . S
C425 C426 1.398 . S
C426 H414 0.950 . S
C426 C425 1.398 . S
C426 C427 1.391 . S
C427 H415 0.950 . S
C427 C423 1.393 . S
C427 C426 1.391 . S
H428 C436 0.950 . S
H429 C441 0.950 . S
H430 C438 0.950 . S
H431 C440 0.950 . S
H432 C442 0.950 . S
H433 C444 0.950 . S
H434 C446 0.950 . S
H435 C447 0.950 . S
C436 H428 0.950 . S
C436 C437 1.386 . S
C436 C438 1.391 . S
C437 C436 1.386 . S
C437 C441 1.393 . S
C438 H430 0.950 . S
C438 C436 1.391 . S
C438 C439 1.400 . S
C439 C438 1.400 . S
C439 C440 1.398 . S
C439 C445 1.491 . S
C440 H431 0.950 . S
C440 C439 1.398 . S
C440 C441 1.391 . S
C441 H429 0.950 . S
C441 C437 1.393 . S
C441 C440 1.391 . S
C442 H432 0.950 . S
C442 C443 1.386 . S
C442 C444 1.391 . S
C443 C442 1.386 . S
C443 C447 1.393 . S
C444 H433 0.950 . S
C444 C442 1.391 . S
C444 C445 1.400 . S
C445 C439 1.491 . S
C445 C444 1.400 . S
C445 C446 1.398 . S
C446 H434 0.950 . S
C446 C445 1.398 . S
C446 C447 1.391 . S
C447 H435 0.950 . S
C447 C443 1.393 . S
C447 C446 1.391 . S
H448 C456 0.950 . S
H449 C461 0.950 . S
H450 C458 0.950 . S
H451 C460 0.950 . S
H452 C462 0.950 . S
H453 C464 0.950 . S
H454 C466 0.950 . S
H455 C467 0.950 . S
C456 H448 0.950 . S
C456 C457 1.386 . S
C456 C458 1.391 . S
C457 C456 1.386 . S
C457 C461 1.393 . S
C458 H450 0.950 . S
C458 C456 1.391 . S
C458 C459 1.400 . S
C459 C458 1.400 . S
C459 C460 1.398 . S
C459 C465 1.491 . S
C460 H451 0.950 . S
C460 C459 1.398 . S
C460 C461 1.391 . S
C461 H449 0.950 . S
C461 C457 1.393 . S
C461 C460 1.391 . S
C462 H452 0.950 . S
C462 C463 1.386 . S
C462 C464 1.391 . S
C463 C462 1.386 . S
C463 C467 1.393 . S
C464 H453 0.950 . S
C464 C462 1.391 . S
C464 C465 1.400 . S
C465 C459 1.491 . S
C465 C464 1.400 . S
C465 C466 1.398 . S
C466 H454 0.950 . S
C466 C465 1.398 . S
C466 C467 1.391 . S
C467 H455 0.950 . S
C467 C463 1.393 . S
C467 C466 1.391 . S
H468 C476 0.950 . S
H469 C481 0.950 . S
H470 C478 0.950 . S
H471 C480 0.950 . S
H472 C482 0.950 . S
H473 C484 0.950 . S
H474 C486 0.950 . S
H475 C487 0.950 . S
C476 H468 0.950 . S
C476 C477 1.386 . S
C476 C478 1.391 . S
C477 C476 1.386 . S
C477 C481 1.393 . S
C478 H470 0.950 . S
C478 C476 1.391 . S
C478 C479 1.400 . S
C479 C478 1.400 . S
C479 C480 1.398 . S
C479 C485 1.491 . S
C480 H471 0.950 . S
C480 C479 1.398 . S
C480 C481 1.391 . S
C481 H469 0.950 . S
C481 C477 1.393 . S
C481 C480 1.391 . S
C482 H472 0.950 . S
C482 C483 1.386 . S
C482 C484 1.391 . S
C483 C482 1.386 . S
C483 C487 1.393 . S
C484 H473 0.950 . S
C484 C482 1.391 . S
C484 C485 1.400 . S
C485 C479 1.491 . S
C485 C484 1.400 . S
C485 C486 1.398 . S
C486 H474 0.950 . S
C486 C485 1.398 . S
C486 C487 1.391 . S
C487 H475 0.950 . S
C487 C483 1.393 . S
C487 C486 1.391 . S
H488 C496 0.950 . S
H489 C501 0.950 . S
H490 C498 0.950 . S
H491 C500 0.950 . S
H492 C502 0.950 . S
H493 C504 0.950 . S
H494 C506 0.950 . S
H495 C507 0.950 . S
C496 H488 0.950 . S
C496 C497 1.386 . S
C496 C498 1.391 . S
C497 C496 1.386 . S
C497 C501 1.393 . S
C498 H490 0.950 . S
C498 C496 1.391 . S
C498 C499 1.400 . S
C499 C498 1.400 . S
C499 C500 1.398 . S
C499 C505 1.491 . S
C500 H491 0.950 . S
C500 C499 1.398 . S
C500 C501 1.391 . S
C501 H489 0.950 . S
C501 C497 1.393 . S
C501 C500 1.391 . S
C502 H492 0.950 . S
C502 C503 1.386 . S
C502 C504 1.391 . S
C503 C502 1.386 . S
C503 C507 1.393 . S
C504 H493 0.950 . S
C504 C502 1.391 . S
C504 C505 1.400 . S
C505 C499 1.491 . S
C505 C504 1.400 . S
C505 C506 1.398 . S
C506 H494 0.950 . S
C506 C505 1.398 . S
C506 C507 1.391 . S
C507 H495 0.950 . S
C507 C503 1.393 . S
C507 C506 1.391 . S
H508 C516 0.950 . S
H509 C521 0.950 . S
H510 C518 0.950 . S
H511 C520 0.950 . S
H512 C522 0.950 . S
H513 C524 0.950 . S
H514 C526 0.950 . S
H515 C527 0.950 . S
C516 H508 0.950 . S
C516 C517 1.386 . S
C516 C518 1.391 . S
C517 C516 1.386 . S
C517 C521 1.393 . S
C518 H510 0.950 . S
C518 C516 1.391 . S
C518 C519 1.400 . S
C519 C518 1.400 . S
C519 C520 1.398 . S
C519 C525 1.491 . S
C520 H511 0.950 . S
C520 C519 1.398 . S
C520 C521 1.391 . S
C521 H509 0.950 . S
C521 C517 1.393 . S
C521 C520 1.391 . S
C522 H512 0.950 . S
C522 C523 1.386 . S
C522 C524 1.391 . S
C523 C522 1.386 . S
C523 C527 1.393 . S
C524 H513 0.950 . S
C524 C522 1.391 . S
C524 C525 1.400 . S
C525 C519 1.491 . S
C525 C524 1.400 . S
C525 C526 1.398 . S
C526 H514 0.950 . S
C526 C525 1.398 . S
C526 C527 1.391 . S
C527 H515 0.950 . S
C527 C523 1.393 . S
C527 C526 1.391 . S
H528 C536 0.950 . S
H529 C541 0.950 . S
H530 C538 0.950 . S
H531 C540 0.950 . S
H532 C542 0.950 . S
H533 C544 0.950 . S
H534 C546 0.950 . S
H535 C547 0.950 . S
C536 H528 0.950 . S
C536 C537 1.386 . S
C536 C538 1.391 . S
C537 C536 1.386 . S
C537 C541 1.393 . S
C538 H530 0.950 . S
C538 C536 1.391 . S
C538 C539 1.400 . S
C539 C538 1.400 . S
C539 C540 1.398 . S
C539 C545 1.491 . S
C540 H531 0.950 . S
C540 C539 1.398 . S
C540 C541 1.391 . S
C541 H529 0.950 . S
C541 C537 1.393 . S
C541 C540 1.391 . S
C542 H532 0.950 . S
C542 C543 1.386 . S
C542 C544 1.391 . S
C543 C542 1.386 . S
C543 C547 1.393 . S
C544 H533 0.950 . S
C544 C542 1.391 . S
C544 C545 1.400 . S
C545 C539 1.491 . S
C545 C544 1.400 . S
C545 C546 1.398 . S
C546 H534 0.950 . S
C546 C545 1.398 . S
C546 C547 1.391 . S
C547 H535 0.950 . S
C547 C543 1.393 . S
C547 C546 1.391 . S
H548 C556 0.950 . S
H549 C561 0.950 . S
H550 C558 0.950 . S
H551 C560 0.950 . S
H552 C562 0.950 . S
H553 C564 0.950 . S
H554 C566 0.950 . S
H555 C567 0.950 . S
C556 H548 0.950 . S
C556 C557 1.386 . S
C556 C558 1.391 . S
C557 C556 1.386 . S
C557 C561 1.393 . S
C558 H550 0.950 . S
C558 C556 1.391 . S
C558 C559 1.400 . S
C559 C558 1.400 . S
C559 C560 1.398 . S
C559 C565 1.491 . S
C560 H551 0.950 . S
C560 C559 1.398 . S
C560 C561 1.391 . S
C561 H549 0.950 . S
C561 C557 1.393 . S
C561 C560 1.391 . S
C562 H552 0.950 . S
C562 C563 1.386 . S
C562 C564 1.391 . S
C563 C562 1.386 . S
C563 C567 1.393 . S
C564 H553 0.950 . S
C564 C562 1.391 . S
C564 C565 1.400 . S
C565 C559 1.491 . S
C565 C564 1.400 . S
C565 C566 1.398 . S
C566 H554 0.950 . S
C566 C565 1.398 . S
C566 C567 1.391 . S
C567 H555 0.950 . S
C567 C563 1.393 . S
C567 C566 1.391 . S
H568 C576 0.950 . S
H569 C581 0.950 . S
H570 C578 0.950 . S
H571 C580 0.950 . S
H572 C582 0.950 . S
H573 C584 0.950 . S
H574 C586 0.950 . S
H575 C587 0.950 . S
C576 H568 0.950 . S
C576 C577 1.386 . S
C576 C578 1.391 . S
C577 C576 1.386 . S
C577 C581 1.393 . S
C578 H570 0.950 . S
C578 C576 1.391 . S
C578 C579 1.400 . S
C579 C578 1.400 . S
C579 C580 1.398 . S
C579 C585 1.491 . S
C580 H571 0.950 . S
C580 C579 1.398 . S
C580 C581 1.391 . S
C581 H569 0.950 . S
C581 C577 1.393 . S
C581 C580 1.391 . S
C582 H572 0.950 . S
C582 C583 1.386 . S
C582 C584 1.391 . S
C583 C582 1.386 . S
C583 C587 1.393 . S
C584 H573 0.950 . S
C584 C582 1.391 . S
C584 C585 1.400 . S
C585 C579 1.491 . S
C585 C584 1.400 . S
C585 C586 1.398 . S
C586 H574 0.950 . S
C586 C585 1.398 . S
C586 C587 1.391 . S
C587 H575 0.950 . S
C587 C583 1.393 . S
C587 C586 1.391 . S
H588 C596 0.950 . S
H589 C601 0.950 . S
H590 C598 0.950 . S
H591 C600 0.950 . S
H592 C602 0.950 . S
H593 C604 0.950 . S
H594 C606 0.950 . S
H595 C607 0.950 . S
C596 H588 0.950 . S
C596 C597 1.386 . S
C596 C598 1.391 . S
C597 C596 1.386 . S
C597 C601 1.393 . S
C598 H590 0.950 . S
C598 C596 1.391 . S
C598 C599 1.400 . S
C599 C598 1.400 . S
C599 C600 1.398 . S
C599 C605 1.491 . S
C600 H591 0.950 . S
C600 C599 1.398 . S
C600 C601 1.391 . S
C601 H589 0.950 . S
C601 C597 1.393 . S
C601 C600 1.391 . S
C602 H592 0.950 . S
C602 C603 1.386 . S
C602 C604 1.391 . S
C603 C602 1.386 . S
C603 C607 1.393 . S
C604 H593 0.950 . S
C604 C602 1.391 . S
C604 C605 1.400 . S
C605 C599 1.491 . S
C605 C604 1.400 . S
C605 C606 1.398 . S
C606 H594 0.950 . S
C606 C605 1.398 . S
C606 C607 1.391 . S
C607 H595 0.950 . S
C607 C603 1.393 . S
C607 C606 1.391 . S
H608 C616 0.950 . S
H609 C621 0.950 . S
H610 C618 0.950 . S
H611 C620 0.950 . S
H612 C622 0.950 . S
H613 C624 0.950 . S
H614 C626 0.950 . S
H615 C627 0.950 . S
C616 H608 0.950 . S
C616 C617 1.386 . S
C616 C618 1.391 . S
C617 C616 1.386 . S
C617 C621 1.393 . S
C618 H610 0.950 . S
C618 C616 1.391 . S
C618 C619 1.400 . S
C619 C618 1.400 . S
C619 C620 1.398 . S
C619 C625 1.491 . S
C620 H611 0.950 . S
C620 C619 1.398 . S
C620 C621 1.391 . S
C621 H609 0.950 . S
C621 C617 1.393 . S
C621 C620 1.391 . S
C622 H612 0.950 . S
C622 C623 1.386 . S
C622 C624 1.391 . S
C623 C622 1.386 . S
C623 C627 1.393 . S
C624 H613 0.950 . S
C624 C622 1.391 . S
C624 C625 1.400 . S
C625 C619 1.491 . S
C625 C624 1.400 . S
C625 C626 1.398 . S
C626 H614 0.950 . S
C626 C625 1.398 . S
C626 C627 1.391 . S
C627 H615 0.950 . S
C627 C623 1.393 . S
C627 C626 1.391 . S
H628 C636 0.950 . S
H629 C641 0.950 . S
H630 C638 0.950 . S
H631 C640 0.950 . S
H632 C642 0.950 . S
H633 C644 0.950 . S
H634 C646 0.950 . S
H635 C647 0.950 . S
C636 H628 0.950 . S
C636 C637 1.386 . S
C636 C638 1.391 . S
C637 C636 1.386 . S
C637 C641 1.393 . S
C638 H630 0.950 . S
C638 C636 1.391 . S
C638 C639 1.400 . S
C639 C638 1.400 . S
C639 C640 1.398 . S
C639 C645 1.491 . S
C640 H631 0.950 . S
C640 C639 1.398 . S
C640 C641 1.391 . S
C641 H629 0.950 . S
C641 C637 1.393 . S
C641 C640 1.391 . S
C642 H632 0.950 . S
C642 C643 1.386 . S
C642 C644 1.391 . S
C643 C642 1.386 . S
C643 C647 1.393 . S
C644 H633 0.950 . S
C644 C642 1.391 . S
C644 C645 1.400 . S
C645 C639 1.491 . S
C645 C644 1.400 . S
C645 C646 1.398 . S
C646 H634 0.950 . S
C646 C645 1.398 . S
C646 C647 1.391 . S
C647 H635 0.950 . S
C647 C643 1.393 . S
C647 C646 1.391 . S
H648 C656 0.950 . S
H649 C661 0.950 . S
H650 C658 0.950 . S
H651 C660 0.950 . S
H652 C662 0.950 . S
H653 C664 0.950 . S
H654 C666 0.950 . S
H655 C667 0.950 . S
C656 H648 0.950 . S
C656 C657 1.386 . S
C656 C658 1.391 . S
C657 C656 1.386 . S
C657 C661 1.393 . S
C658 H650 0.950 . S
C658 C656 1.391 . S
C658 C659 1.400 . S
C659 C658 1.400 . S
C659 C660 1.398 . S
C659 C665 1.491 . S
C660 H651 0.950 . S
C660 C659 1.398 . S
C660 C661 1.391 . S
C661 H649 0.950 . S
C661 C657 1.393 . S
C661 C660 1.391 . S
C662 H652 0.950 . S
C662 C663 1.386 . S
C662 C664 1.391 . S
C663 C662 1.386 . S
C663 C667 1.393 . S
C664 H653 0.950 . S
C664 C662 1.391 . S
C664 C665 1.400 . S
C665 C659 1.491 . S
C665 C664 1.400 . S
C665 C666 1.398 . S
C666 H654 0.950 . S
C666 C665 1.398 . S
C666 C667 1.391 . S
C667 H655 0.950 . S
C667 C663 1.393 . S
C667 C666 1.391 . S
H668 C676 0.950 . S
H669 C681 0.950 . S
H670 C678 0.950 . S
H671 C680 0.950 . S
H672 C682 0.950 . S
H673 C684 0.950 . S
H674 C686 0.950 . S
H675 C687 0.950 . S
C676 H668 0.950 . S
C676 C677 1.386 . S
C676 C678 1.391 . S
C677 C676 1.386 . S
C677 C681 1.393 . S
C678 H670 0.950 . S
C678 C676 1.391 . S
C678 C679 1.400 . S
C679 C678 1.400 . S
C679 C680 1.398 . S
C679 C685 1.491 . S
C680 H671 0.950 . S
C680 C679 1.398 . S
C680 C681 1.391 . S
C681 H669 0.950 . S
C681 C677 1.393 . S
C681 C680 1.391 . S
C682 H672 0.950 . S
C682 C683 1.386 . S
C682 C684 1.391 . S
C683 C682 1.386 . S
C683 C687 1.393 . S
C684 H673 0.950 . S
C684 C682 1.391 . S
C684 C685 1.400 . S
C685 C679 1.491 . S
C685 C684 1.400 . S
C685 C686 1.398 . S
C686 H674 0.950 . S
C686 C685 1.398 . S
C686 C687 1.391 . S
C687 H675 0.950 . S
C687 C683 1.393 . S
C687 C686 1.391 . S
H688 C696 0.950 . S
H689 C701 0.950 . S
H690 C698 0.950 . S
H691 C700 0.950 . S
H692 C702 0.950 . S
H693 C704 0.950 . S
H694 C706 0.950 . S
H695 C707 0.950 . S
C696 H688 0.950 . S
C696 C697 1.386 . S
C696 C698 1.391 . S
C697 C696 1.386 . S
C697 C701 1.393 . S
C698 H690 0.950 . S
C698 C696 1.391 . S
C698 C699 1.400 . S
C699 C698 1.400 . S
C699 C700 1.398 . S
C699 C705 1.491 . S
C700 H691 0.950 . S
C700 C699 1.398 . S
C700 C701 1.391 . S
C701 H689 0.950 . S
C701 C697 1.393 . S
C701 C700 1.391 . S
C702 H692 0.950 . S
C702 C703 1.386 . S
C702 C704 1.391 . S
C703 C702 1.386 . S
C703 C707 1.393 . S
C704 H693 0.950 . S
C704 C702 1.391 . S
C704 C705 1.400 . S
C705 C699 1.491 . S
C705 C704 1.400 . S
C705 C706 1.398 . S
C706 H694 0.950 . S
C706 C705 1.398 . S
C706 C707 1.391 . S
C707 H695 0.950 . S
C707 C703 1.393 . S
C707 C706 1.391 . S
H708 C716 0.950 . S
H709 C721 0.950 . S
H710 C718 0.950 . S
H711 C720 0.950 . S
H712 C722 0.950 . S
H713 C724 0.950 . S
H714 C726 0.950 . S
H715 C727 0.950 . S
C716 H708 0.950 . S
C716 C717 1.386 . S
C716 C718 1.391 . S
C717 C716 1.386 . S
C717 C721 1.393 . S
C718 H710 0.950 . S
C718 C716 1.391 . S
C718 C719 1.400 . S
C719 C718 1.400 . S
C719 C720 1.398 . S
C719 C725 1.491 . S
C720 H711 0.950 . S
C720 C719 1.398 . S
C720 C721 1.391 . S
C721 H709 0.950 . S
C721 C717 1.393 . S
C721 C720 1.391 . S
C722 H712 0.950 . S
C722 C723 1.386 . S
C722 C724 1.391 . S
C723 C722 1.386 . S
C723 C727 1.393 . S
C724 H713 0.950 . S
C724 C722 1.391 . S
C724 C725 1.400 . S
C725 C719 1.491 . S
C725 C724 1.400 . S
C725 C726 1.398 . S
C726 H714 0.950 . S
C726 C725 1.398 . S
C726 C727 1.391 . S
C727 H715 0.950 . S
C727 C723 1.393 . S
C727 C726 1.391 . S
H728 C736 0.950 . S
H729 C741 0.950 . S
H730 C738 0.950 . S
H731 C740 0.950 . S
H732 C742 0.950 . S
H733 C744 0.950 . S
H734 C746 0.950 . S
H735 C747 0.950 . S
C736 H728 0.950 . S
C736 C737 1.386 . S
C736 C738 1.391 . S
C737 C736 1.386 . S
C737 C741 1.393 . S
C738 H730 0.950 . S
C738 C736 1.391 . S
C738 C739 1.400 . S
C739 C738 1.400 . S
C739 C740 1.398 . S
C739 C745 1.491 . S
C740 H731 0.950 . S
C740 C739 1.398 . S
C740 C741 1.391 . S
C741 H729 0.950 . S
C741 C737 1.393 . S
C741 C740 1.391 . S
C742 H732 0.950 . S
C742 C743 1.386 . S
C742 C744 1.391 . S
C743 C742 1.386 . S
C743 C747 1.393 . S
C744 H733 0.950 . S
C744 C742 1.391 . S
C744 C745 1.400 . S
C745 C739 1.491 . S
C745 C744 1.400 . S
C745 C746 1.398 . S
C746 H734 0.950 . S
C746 C745 1.398 . S
C746 C747 1.391 . S
C747 H735 0.950 . S
C747 C743 1.393 . S
C747 C746 1.391 . S
H748 C756 0.950 . S
H749 C761 0.950 . S
H750 C758 0.950 . S
H751 C760 0.950 . S
H752 C762 0.950 . S
H753 C764 0.950 . S
H754 C766 0.950 . S
H755 C767 0.950 . S
C756 H748 0.950 . S
C756 C757 1.386 . S
C756 C758 1.391 . S
C757 C756 1.386 . S
C757 C761 1.393 . S
C758 H750 0.950 . S
C758 C756 1.391 . S
C758 C759 1.400 . S
C759 C758 1.400 . S
C759 C760 1.398 . S
C759 C765 1.491 . S
C760 H751 0.950 . S
C760 C759 1.398 . S
C760 C761 1.391 . S
C761 H749 0.950 . S
C761 C757 1.393 . S
C761 C760 1.391 . S
C762 H752 0.950 . S
C762 C763 1.386 . S
C762 C764 1.391 . S
C763 C762 1.386 . S
C763 C767 1.393 . S
C764 H753 0.950 . S
C764 C762 1.391 . S
C764 C765 1.400 . S
C765 C759 1.491 . S
C765 C764 1.400 . S
C765 C766 1.398 . S
C766 H754 0.950 . S
C766 C765 1.398 . S
C766 C767 1.391 . S
C767 H755 0.950 . S
C767 C763 1.393 . S
C767 C766 1.391 . S
H768 C776 0.950 . S
H769 C781 0.950 . S
H770 C778 0.950 . S
H771 C780 0.950 . S
H772 C782 0.950 . S
H773 C784 0.950 . S
H774 C786 0.950 . S
H775 C787 0.950 . S
C776 H768 0.950 . S
C776 C777 1.386 . S
C776 C778 1.391 . S
C777 C776 1.386 . S
C777 C781 1.393 . S
C778 H770 0.950 . S
C778 C776 1.391 . S
C778 C779 1.400 . S
C779 C778 1.400 . S
C779 C780 1.398 . S
C779 C785 1.491 . S
C780 H771 0.950 . S
C780 C779 1.398 . S
C780 C781 1.391 . S
C781 H769 0.950 . S
C781 C777 1.393 . S
C781 C780 1.391 . S
C782 H772 0.950 . S
C782 C783 1.386 . S
C782 C784 1.391 . S
C783 C782 1.386 . S
C783 C787 1.393 . S
C784 H773 0.950 . S
C784 C782 1.391 . S
C784 C785 1.400 . S
C785 C779 1.491 . S
C785 C784 1.400 . S
C785 C786 1.398 . S
C786 H774 0.950 . S
C786 C785 1.398 . S
C786 C787 1.391 . S
C787 H775 0.950 . S
C787 C783 1.393 . S
C787 C786 1.391 . S
H788 C796 0.950 . S
H789 C801 0.950 . S
H790 C798 0.950 . S
H791 C800 0.950 . S
H792 C802 0.950 . S
H793 C804 0.950 . S
H794 C806 0.950 . S
H795 C807 0.950 . S
C796 H788 0.950 . S
C796 C797 1.386 . S
C796 C798 1.391 . S
C797 C796 1.386 . S
C797 C801 1.393 . S
C798 H790 0.950 . S
C798 C796 1.391 . S
C798 C799 1.400 . S
C799 C798 1.400 . S
C799 C800 1.398 . S
C799 C805 1.491 . S
C800 H791 0.950 . S
C800 C799 1.398 . S
C800 C801 1.391 . S
C801 H789 0.950 . S
C801 C797 1.393 . S
C801 C800 1.391 . S
C802 H792 0.950 . S
C802 C803 1.386 . S
C802 C804 1.391 . S
C803 C802 1.386 . S
C803 C807 1.393 . S
C804 H793 0.950 . S
C804 C802 1.391 . S
C804 C805 1.400 . S
C805 C799 1.491 . S
C805 C804 1.400 . S
C805 C806 1.398 . S
C806 H794 0.950 . S
C806 C805 1.398 . S
C806 C807 1.391 . S
C807 H795 0.950 . S
C807 C803 1.393 . S
C807 C806 1.391 . S
H808 C816 0.950 . S
H809 C821 0.950 . S
H810 C818 0.950 . S
H811 C820 0.950 . S
H812 C822 0.950 . S
H813 C824 0.950 . S
H814 C826 0.950 . S
H815 C827 0.950 . S
C816 H808 0.950 . S
C816 C817 1.386 . S
C816 C818 1.391 . S
C817 C816 1.386 . S
C817 C821 1.393 . S
C818 H810 0.950 . S
C818 C816 1.391 . S
C818 C819 1.400 . S
C819 C818 1.400 . S
C819 C820 1.398 . S
C819 C825 1.491 . S
C820 H811 0.950 . S
C820 C819 1.398 . S
C820 C821 1.391 . S
C821 H809 0.950 . S
C821 C817 1.393 . S
C821 C820 1.391 . S
C822 H812 0.950 . S
C822 C823 1.386 . S
C822 C824 1.391 . S
C823 C822 1.386 . S
C823 C827 1.393 . S
C824 H813 0.950 . S
C824 C822 1.391 . S
C824 C825 1.400 . S
C825 C819 1.491 . S
C825 C824 1.400 . S
C825 C826 1.398 . S
C826 H814 0.950 . S
C826 C825 1.398 . S
C826 C827 1.391 . S
C827 H815 0.950 . S
C827 C823 1.393 . S
C827 C826 1.391 . S
H828 C836 0.950 . S
H829 C841 0.950 . S
H830 C838 0.950 . S
H831 C840 0.950 . S
H832 C842 0.950 . S
H833 C844 0.950 . S
H834 C846 0.950 . S
H835 C847 0.950 . S
C836 H828 0.950 . S
C836 C837 1.386 . S
C836 C838 1.391 . S
C837 C836 1.386 . S
C837 C841 1.393 . S
C838 H830 0.950 . S
C838 C836 1.391 . S
C838 C839 1.400 . S
C839 C838 1.400 . S
C839 C840 1.398 . S
C839 C845 1.491 . S
C840 H831 0.950 . S
C840 C839 1.398 . S
C840 C841 1.391 . S
C841 H829 0.950 . S
C841 C837 1.393 . S
C841 C840 1.391 . S
C842 H832 0.950 . S
C842 C843 1.386 . S
C842 C844 1.391 . S
C843 C842 1.386 . S
C843 C847 1.393 . S
C844 H833 0.950 . S
C844 C842 1.391 . S
C844 C845 1.400 . S
C845 C839 1.491 . S
C845 C844 1.400 . S
C845 C846 1.398 . S
C846 H834 0.950 . S
C846 C845 1.398 . S
C846 C847 1.391 . S
C847 H835 0.950 . S
C847 C843 1.393 . S
C847 C846 1.391 . S
C223 C117 1.229 . S
C217 C5 1.273 . S
C243 C135 1.166 . S
C237 C18 1.257 . S
C263 C143 1.238 . S
C257 C31 1.272 . S
C277 C42 1.257 . S
C283 C109 1.192 . S
C297 C57 1.273 . S
C303 C104 1.225 . S
C317 C70 1.257 . S
C323 C122 1.183 . S
C343 C130 1.259 . S
C337 C81 1.277 . S
C363 C148 1.188 . S
C357 C96 1.276 . S
C377 C29 1.281 . S
C383 C169 1.228 . S
C403 C187 1.171 . S
C397 C44 1.255 . S
C417 C3 1.286 . S
C423 C195 1.232 . S
C443 C161 1.164 . S
C437 C16 1.274 . S
C457 C83 1.288 . S
C463 C156 1.253 . S
C477 C94 1.254 . S
C483 C174 1.194 . S
C503 C182 1.236 . S
C497 C55 1.275 . S
C517 C68 1.261 . S
C523 C200 1.180 . S
C543 C138 1.343 . S
C537 C1 1.317 . S
C563 C153 1.304 . S
C557 C14 1.305 . S
C577 C27 1.302 . S
C583 C112 1.345 . S
C597 C49 1.349 . S
C603 C127 1.307 . S
C617 C53 1.318 . S
C623 C151 1.341 . S
C643 C114 1.319 . S
C637 C66 1.330 . S
C663 C125 1.343 . S
C657 C88 1.334 . S
C683 C140 1.305 . S
C677 C92 1.307 . S
C703 C190 1.342 . S
C697 C36 1.338 . S
C723 C205 1.306 . S
C717 C40 1.305 . S
C737 C10 1.332 . S
C743 C164 1.342 . S
C763 C179 1.300 . S
C757 C23 1.350 . S
C783 C203 1.345 . S
C777 C79 1.303 . S
C797 C101 1.344 . S
C803 C166 1.300 . S
C823 C177 1.342 . S
C817 C62 1.336 . S
C843 C192 1.312 . S
C837 C75 1.339 . S
