# Generated by pormake.
# Topology nia, (6,6)-cn, num edge types: 1
# Building blocks:
#     Node 0, Type 0, BuildingBlock: NUHQIS_clean_sbu_0, # of connection points: 6
#     Node 1, Type 0, BuildingBlock: NUHQIS_clean_sbu_0, # of connection points: 6
#     Node 2, Type 1, BuildingBlock: MIDCAF_clean_sbu_0, # of connection points: 6
#     Node 3, Type 1, BuildingBlock: MIDCAF_clean_sbu_0, # of connection points: 6
#     Edge 4, Type (0, 1), BuildingBlock: EZIPEK_clean_linker_0, # of connection points: 2
#     Edge 5, Type (0, 1), BuildingBlock: EZIPEK_clean_linker_0, # of connection points: 2
#     Edge 6, Type (0, 1), BuildingBlock: EZIPEK_clean_linker_0, # of connection points: 2
#     Edge 7, Type (0, 1), BuildingBlock: EZIPEK_clean_linker_0, # of connection points: 2
#     Edge 8, Type (0, 1), BuildingBlock: EZIPEK_clean_linker_0, # of connection points: 2
#     Edge 9, Type (0, 1), BuildingBlock: EZIPEK_clean_linker_0, # of connection points: 2
#     Edge 10, Type (0, 1), BuildingBlock: EZIPEK_clean_linker_0, # of connection points: 2
#     Edge 11, Type (0, 1), BuildingBlock: EZIPEK_clean_linker_0, # of connection points: 2
#     Edge 12, Type (0, 1), BuildingBlock: EZIPEK_clean_linker_0, # of connection points: 2
#     Edge 13, Type (0, 1), BuildingBlock: EZIPEK_clean_linker_0, # of connection points: 2
#     Edge 14, Type (0, 1), BuildingBlock: EZIPEK_clean_linker_0, # of connection points: 2
#     Edge 15, Type (0, 1), BuildingBlock: EZIPEK_clean_linker_0, # of connection points: 2
# Relax obj value: 0.227
# Max RMSD: 0.292
# Mean RMSD: 0.222
data_MOF--net-nia--node1-NUHQIS_clean_sbu_0--node2-MIDCAF_clean_sbu_0--edge1-EZIPEK_clean_linker_0
_symmetry_space_group_name_H-M    P1
_symmetry_Int_Tables_number       1
_symmetry_cell_setting            triclinic
loop_
_symmetry_equiv_pos_as_xyz
'x, y, z'
_cell_length_a     22.864835
_cell_length_b     22.869876
_cell_length_c     23.982585
_cell_angle_alpha  90.917559
_cell_angle_beta   89.95933
_cell_angle_gamma 138.77986
loop_
_atom_site_label
_atom_site_type_symbol
_atom_site_fract_x
_atom_site_fract_y
_atom_site_fract_z
_atom_type_partial_charge
Tb0 Tb 0.97201 0.0475 0.98787 0.0
Eu1 Eu 0.01238 0.97071 0.07602 0.0
C2 C 0.13986 0.09283 0.97495 0.0
C3 C 0.91545 0.87505 0.95618 0.0
C4 C 0.92098 0.15165 0.91452 0.0
C5 C 0.91675 0.23545 0.85812 0.0
C6 C 0.9471 0.20159 0.86721 0.0
C7 C 0.86615 0.13798 0.95372 0.0
C8 C 0.83529 0.17152 0.9444 0.0
C9 C 0.8593 0.21908 0.89601 0.0
C10 C 0.94564 0.10848 0.919 0.0
O11 O 0.87358 0.98532 0.05384 0.0
O12 O 0.87207 0.89172 0.09066 0.0
O13 O 0.0235 0.06381 0.12402 0.0
O14 O 0.06378 0.15127 0.05129 0.0
C15 C 0.83724 0.91757 0.08487 0.0
O16 O 0.97656 0.86302 0.11674 0.0
O17 O 0.09728 -0.00031 0.14225 0.0
O18 O 0.13756 0.07872 1.0281 0.0
O19 O 0.073 0.06829 0.94951 0.0
O20 O 0.9011 0.92045 0.9513 0.0
O21 O 0.96693 0.89214 0.99574 0.0
C22 C 0.05984 0.13855 0.10496 0.0
O23 O 0.02316 0.15494 0.94092 0.0
O24 O 0.88427 0.02687 0.93575 0.0
C25 C 0.09302 0.8946 0.15696 0.0
C26 C 0.16871 0.8425 0.18048 0.0
C27 C 0.1792 0.89722 0.21829 0.0
C28 C 0.14124 0.92278 0.20674 0.0
C29 C 0.08525 0.84245 0.11797 0.0
C30 C 0.12285 0.81635 0.12981 0.0
C31 C 0.04751 0.91632 0.14875 0.0
H32 H 0.93626 0.27251 0.82092 0.0
H33 H -0.01096 0.21231 0.83645 0.0
H34 H 0.84538 0.09952 0.99052 0.0
H35 H 0.79126 0.15885 0.97415 0.0
H36 H 0.21554 0.9189 0.257 0.0
H37 H 0.14796 0.9631 0.23726 0.0
H38 H 0.04864 0.82035 0.07912 0.0
H39 H 0.11458 0.77425 0.10014 0.0
Tb40 Tb 0.95735 0.02606 0.58062 0.0
Eu41 Eu 0.02619 0.98347 0.48438 0.0
C42 C 0.91327 0.85744 0.58759 0.0
C43 C 0.12882 0.07904 0.60155 0.0
C44 C 0.8753 0.09314 0.66768 0.0
C45 C 0.81109 0.11541 0.73187 0.0
C46 C 0.84125 0.08164 0.72023 0.0
C47 C 0.88008 0.13988 0.62691 0.0
C48 C 0.85024 0.17421 0.63873 0.0
C49 C 0.81521 0.16168 0.69123 0.0
C50 C 0.9038 0.05428 0.65676 0.0
O51 O 0.05794 0.14838 0.53352 0.0
O52 O 0.04865 0.08972 0.45065 0.0
O53 O 0.88637 0.9038 0.46301 0.0
O54 O 0.88231 -0.00858 0.50505 0.0
C55 C 0.0729 0.15435 0.47969 0.0
O56 O 0.12681 0.0278 0.42695 0.0
O57 O -0.00473 0.88984 0.42505 0.0
O58 O 0.97739 0.89122 0.55382 0.0
O59 O 0.88402 0.88947 0.59238 0.0
O60 O 0.05661 0.04745 0.6226 0.0
O61 O 0.13754 0.07532 0.5479 0.0
C62 C 0.85276 0.93112 0.46754 0.0
O63 O 0.85146 0.9828 0.62515 0.0
O64 O -0.0129 0.1089 0.64507 0.0
C65 C 0.11353 0.91846 0.39811 0.0
C66 C 0.18001 0.8551 0.3829 0.0
C67 C 0.21726 0.92012 0.42422 0.0
C68 C 0.18395 0.95158 0.43197 0.0
C69 C 0.07668 0.85361 0.35683 0.0
C70 C 0.10926 0.82157 0.34956 0.0
C71 C 0.07549 0.94832 0.40556 0.0
H72 H 0.78358 0.10461 0.77227 0.0
H73 H 0.83718 0.0457 0.75214 0.0
H74 H 0.90612 0.14912 0.58612 0.0
H75 H 0.8534 0.20951 0.60685 0.0
H76 H 0.27132 0.94569 0.45065 0.0
H77 H 0.21267 0.00102 0.46449 0.0
H78 H 0.02212 0.82718 0.33051 0.0
H79 H 0.07936 0.77061 0.31802 0.0
Zn80 Zn 0.33198 0.62246 0.17661 0.0
Zn81 Zn 0.36952 0.65911 0.39421 0.0
Zn82 Zn 0.35893 0.63731 0.28516 0.0
C83 C 0.53952 0.76076 0.35313 0.0
C84 C 0.26062 0.48091 0.37397 0.0
O85 O 0.30941 0.68677 0.25738 0.0
O86 O 0.28912 0.6703 0.16561 0.0
C87 C 0.51083 0.72903 0.19454 0.0
O88 O 0.49882 0.72551 0.30566 0.0
O89 O 0.49847 0.74438 0.3966 0.0
O90 O 0.29376 0.53575 0.41371 0.0
O91 O 0.27613 0.50557 0.32286 0.0
O92 O 0.45462 0.69626 0.1562 0.0
O93 O 0.48868 0.71526 0.24625 0.0
O94 O 0.26537 0.49565 0.26404 0.0
O95 O 0.24682 0.49361 0.17302 0.0
C96 C 0.23057 0.45368 0.21674 0.0
O97 O 0.31754 0.69425 0.31529 0.0
O98 O 0.32431 0.70395 0.40771 0.0
C99 C 0.28638 0.69507 0.2118 0.0
C100 C 0.30739 0.71491 0.36173 0.0
Zn101 Zn 0.64677 0.39312 0.89284 0.0
Zn102 Zn 0.61711 0.34659 0.6747 0.0
Zn103 Zn 0.62631 0.37594 0.78226 0.0
C104 C 0.72585 0.52694 0.6901 0.0
C105 C 0.44793 0.25395 0.71057 0.0
O106 O 0.68456 0.33778 0.81545 0.0
O107 O 0.70024 0.35651 0.90745 0.0
C108 C 0.7445 0.55903 0.84803 0.0
O109 O 0.70472 0.5045 0.74156 0.0
O110 O 0.70077 0.47123 0.65336 0.0
O111 O 0.48994 0.27018 0.66772 0.0
O112 O 0.48648 0.28523 0.75888 0.0
O113 O 0.72557 0.52063 0.89319 0.0
O114 O 0.71392 0.51629 0.80096 0.0
O115 O 0.49293 0.29237 0.81801 0.0
O116 O 0.52043 0.31161 0.90914 0.0
C117 C 0.46647 0.27708 0.86881 0.0
O118 O 0.67303 0.32143 0.75818 0.0
O119 O 0.65374 0.29204 0.66726 0.0
C120 C 0.70898 0.33439 0.86262 0.0
C121 C 0.67849 0.29237 0.71427 0.0
C122 C 0.29237 0.86254 0.18602 0.0
C123 C 0.20212 0.80887 0.19513 0.0
C124 C 0.17344 0.68817 0.22801 0.0
C125 C 0.26056 0.73779 0.21249 0.0
N126 N 0.40501 0.87164 0.17871 0.0
N127 N 0.05585 0.6723 0.22522 0.0
C128 C 0.32095 0.82529 0.19255 0.0
C129 C 0.14256 0.7224 0.2169 0.0
N130 N 0.35052 0.94916 0.17153 0.0
N131 N 0.12068 0.60852 0.25336 0.0
H132 H 0.03184 0.6966 0.21987 0.0
H133 H 0.00626 0.60552 0.23515 0.0
H134 H 0.14075 0.58074 0.26075 0.0
H135 H 0.05973 0.5726 0.27088 0.0
H136 H 0.41891 -0.00505 0.16986 0.0
H137 H 0.33109 0.97757 0.16434 0.0
H138 H 0.44951 0.93132 0.15781 0.0
H139 H 0.4299 0.84865 0.18652 0.0
C140 C 0.21818 0.07139 0.65371 0.0
C141 C 0.20251 0.11903 0.64015 0.0
C142 C 0.33917 0.25103 0.6899 0.0
C143 C 0.35563 0.20387 0.70187 0.0
N144 N 0.30172 0.06542 0.71034 0.0
N145 N 0.23522 0.24589 0.6565 0.0
C146 C 0.2914 0.11233 0.68904 0.0
C147 C 0.25838 0.20592 0.6625 0.0
N148 N 0.16546 0.98866 0.63106 0.0
N149 N 0.4036 0.34031 0.70107 0.0
H150 H 0.17868 0.21659 0.63441 0.0
H151 H 0.2684 0.3052 0.67682 0.0
H152 H 0.46271 0.37481 0.72215 0.0
H153 H 0.40077 0.38101 0.68707 0.0
H154 H 0.17919 0.95456 0.63444 0.0
H155 H 0.11043 0.95594 0.60578 0.0
H156 H 0.2538 -0.00331 0.70665 0.0
H157 H 0.35525 0.09513 0.73656 0.0
C158 C 0.16958 0.25298 0.1796 0.0
C159 C 0.09465 0.20943 0.14496 0.0
C160 C 0.08922 0.30421 0.18528 0.0
C161 C 0.17357 0.3587 0.21004 0.0
N162 N 0.29481 0.3859 0.23355 0.0
N163 N -0.01592 0.19556 0.1131 0.0
C164 C 0.21286 0.332 0.20948 0.0
C165 C 0.05392 0.23482 0.14778 0.0
N166 N 0.20137 0.22101 0.18234 0.0
N167 N 0.04425 0.32079 0.19715 0.0
H168 H 0.95455 0.14312 0.08567 0.0
H169 H 0.95867 0.21854 0.10898 0.0
H170 H 0.07003 0.37173 0.22496 0.0
H171 H -0.02105 0.27929 0.18428 0.0
H172 H 0.24895 0.2436 0.21151 0.0
H173 H 0.17666 0.16809 0.1576 0.0
H174 H 0.33278 0.37679 0.22848 0.0
H175 H 0.32688 0.4427 0.25698 0.0
C176 C 0.6869 0.13446 0.69864 0.0
C177 C 0.77971 0.19426 0.70314 0.0
C178 C 0.80563 0.31795 0.72304 0.0
C179 C 0.71292 0.25803 0.71814 0.0
N180 N 0.56392 0.10819 0.71522 0.0
N181 N 0.9261 0.33833 0.72956 0.0
C182 C 0.65309 0.16578 0.7103 0.0
C183 C 0.83871 0.2847 0.71866 0.0
N184 N 0.63158 0.04864 0.68097 0.0
N185 N 0.86209 0.40696 0.72942 0.0
H186 H 0.9531 0.31691 0.72462 0.0
H187 H 0.97053 0.40181 0.74731 0.0
H188 H 0.83993 0.43322 0.73463 0.0
H189 H 0.93079 0.45542 0.72692 0.0
H190 H 0.56486 0.00456 0.67067 0.0
H191 H 0.65358 0.02274 0.67272 0.0
H192 H 0.51703 0.03953 0.71573 0.0
H193 H 0.53741 0.12944 0.72422 0.0
C194 C 0.75423 0.91606 0.15578 0.0
C195 C 0.75571 0.86952 0.11694 0.0
C196 C 0.60682 0.72927 0.14628 0.0
C197 C 0.60006 0.77727 0.17713 0.0
N198 N 0.66344 0.91731 0.20642 0.0
N199 N 0.6784 0.73081 0.07111 0.0
C200 C 0.67287 0.87101 0.18092 0.0
C201 C 0.68085 0.7756 0.11142 0.0
N202 N 0.83112 0.00182 0.1709 0.0
N203 N 0.5423 0.63911 0.15068 0.0
H204 H 0.73055 0.76189 0.04416 0.0
H205 H 0.62165 0.6639 0.06107 0.0
H206 H 0.48769 0.60354 0.17648 0.0
H207 H 0.54741 0.60104 0.13341 0.0
H208 H 0.83512 0.03637 0.20269 0.0
H209 H 0.89251 0.03463 0.15621 0.0
H210 H 0.71148 0.98614 0.20508 0.0
H211 H 0.6048 0.88625 0.22548 0.0
C212 C 0.78569 0.69229 0.59269 0.0
C213 C 0.86562 0.77445 0.6164 0.0
C214 C 0.8565 0.69534 0.69066 0.0
C215 C 0.77107 0.61432 0.67041 0.0
N216 N 0.64449 0.54135 0.61114 0.0
N217 N 0.96961 0.85581 0.69408 0.0
C218 C 0.73244 0.61473 0.62434 0.0
C219 C 0.89862 0.77665 0.66753 0.0
N220 N 0.76295 0.68717 0.53876 0.0
N221 N 0.90001 0.69463 0.72896 0.0
H222 H 0.00206 0.91633 0.67808 0.0
H223 H -0.00893 0.86053 0.734 0.0
H224 H 0.87275 0.63605 0.7447 0.0
H225 H 0.96601 0.75131 0.74094 0.0
H226 H 0.7085 0.62713 0.51816 0.0
H227 H 0.80474 0.74175 0.51284 0.0
H228 H 0.6121 0.54127 0.58049 0.0
H229 H 0.60206 0.48428 0.63498 0.0
C230 C 0.29377 0.86946 0.34822 0.0
C231 C 0.21255 0.81905 0.37574 0.0
C232 C 0.1874 0.69511 0.38413 0.0
C233 C 0.27254 0.7487 0.36197 0.0
N234 N 0.41094 0.88844 0.3267 0.0
N235 N 0.08756 0.68959 0.427 0.0
C236 C 0.32676 0.83618 0.34457 0.0
C237 C 0.16059 0.73319 0.39547 0.0
N238 N 0.33855 0.94842 0.325 0.0
N239 N 0.13125 0.60701 0.39274 0.0
H240 H 0.06579 0.71546 0.43652 0.0
H241 H 0.05284 0.63131 0.44777 0.0
H242 H 0.14852 0.57661 0.38422 0.0
H243 H 0.06486 0.56223 0.40312 0.0
H244 H 0.39204 0.98302 0.29856 0.0
H245 H 0.31875 0.97703 0.32925 0.0
H246 H 0.45742 0.95587 0.31921 0.0
H247 H 0.43665 0.86564 0.32237 0.0
C248 C 0.26566 0.21267 0.91178 0.0
C249 C 0.21869 0.13453 0.942 0.0
C250 C 0.32587 0.14005 0.91266 0.0
C251 C 0.37256 0.2181 0.88278 0.0
N252 N 0.37903 0.31927 0.84423 0.0
N253 N 0.19536 0.01547 0.96444 0.0
C254 C 0.33908 0.25058 0.87869 0.0
C255 C 0.24625 0.09569 0.94043 0.0
N256 N 0.2447 0.2548 0.91829 0.0
N257 N 0.35966 0.11003 0.91558 0.0
H258 H 0.13738 0.98109 0.98588 0.0
H259 H 0.20613 0.97886 0.95971 0.0
H260 H 0.41341 0.13657 0.89188 0.0
H261 H 0.33706 0.06137 0.94257 0.0
H262 H 0.28211 0.31684 0.90232 0.0
H263 H 0.19439 0.23195 0.94415 0.0
H264 H 0.35233 0.33976 0.83429 0.0
H265 H 0.43562 0.35139 0.8218 0.0
C266 C 0.0784 0.26061 0.4421 0.0
C267 C 0.11994 0.23671 0.44994 0.0
C268 C 0.24917 0.3667 0.39744 0.0
C269 C 0.20653 0.38904 0.38879 0.0
N270 N 0.07533 0.34971 0.39162 0.0
N271 N 0.24016 0.26036 0.43022 0.0
C272 C 0.11926 0.33329 0.4076 0.0
C273 C 0.20358 0.28735 0.42559 0.0
N274 N 0.00088 0.21512 0.46847 0.0
N275 N 0.33519 0.42413 0.38135 0.0
H276 H 0.21392 0.20818 0.45515 0.0
H277 H 0.29464 0.28718 0.40757 0.0
H278 H 0.36897 0.48078 0.35865 0.0
H279 H 0.37469 0.41842 0.39249 0.0
H280 H 0.97257 0.23533 0.4696 0.0
H281 H 0.96709 0.15967 0.49244 0.0
H282 H 0.00855 0.3073 0.39925 0.0
H283 H 0.10396 0.40217 0.36589 0.0
C284 C 0.73239 0.18683 0.86498 0.0
C285 C 0.8219 0.24937 0.88388 0.0
C286 C 0.84085 0.36948 0.87637 0.0
C287 C 0.74876 0.30555 0.86476 0.0
N288 N 0.60429 0.15318 0.85132 0.0
N289 N 0.96005 0.3988 0.91263 0.0
C290 C 0.69381 0.21413 0.85947 0.0
C291 C 0.87612 0.34056 0.89057 0.0
N292 N 0.68493 0.10188 0.85124 0.0
N293 N 0.89474 0.45784 0.87251 0.0
H294 H -0.01167 0.38012 0.9235 0.0
H295 H -0.00076 0.46407 0.92426 0.0
H296 H 0.87079 0.48109 0.86191 0.0
H297 H 0.96373 0.50758 0.87469 0.0
H298 H 0.62349 0.05644 0.83073 0.0
H299 H 0.70995 0.07858 0.85637 0.0
H300 H 0.55924 0.08494 0.85353 0.0
H301 H 0.57398 0.17091 0.84555 0.0
C302 C 0.78011 0.94191 0.39614 0.0
C303 C 0.77712 0.88943 0.43021 0.0
C304 C 0.63625 0.75556 0.38569 0.0
C305 C 0.63002 0.80671 0.36189 0.0
N306 N 0.69341 0.94908 0.3463 0.0
N307 N 0.69117 0.74491 0.46562 0.0
C308 C 0.70178 0.90038 0.36697 0.0
C309 C 0.70279 0.79559 0.42659 0.0
N310 N 0.85758 0.03021 0.39058 0.0
N311 N 0.57513 0.6676 0.37164 0.0
H312 H 0.73231 0.77304 0.50081 0.0
H313 H 0.63455 0.67627 0.46716 0.0
H314 H 0.52536 0.63724 0.34166 0.0
H315 H 0.57993 0.62824 0.38527 0.0
H316 H 0.86483 0.06989 0.36287 0.0
H317 H 0.91678 0.0613 0.40939 0.0
H318 H 0.73998 0.01707 0.35397 0.0
H319 H 0.63691 0.91977 0.32408 0.0
C320 C 0.78376 0.73891 0.89785 0.0
C321 C 0.87531 0.80437 0.91364 0.0
C322 C 0.88697 0.718 0.86679 0.0
C323 C 0.79568 0.652 0.85265 0.0
N324 N 0.66582 0.61287 0.83675 0.0
N325 N 0.0186 0.87305 0.89 0.0
C326 C 0.74757 0.66798 0.86138 0.0
C327 C 0.92862 0.79939 0.89063 0.0
N328 N 0.72949 0.73962 0.92061 0.0
N329 N 0.93276 0.70135 0.86017 0.0
H330 H 0.04957 0.93518 0.90274 0.0
H331 H 0.06018 0.87434 0.87026 0.0
H332 H 0.90407 0.64243 0.8419 0.0
H333 H -0.00276 0.74403 0.87555 0.0
H334 H 0.66074 0.68743 0.91527 0.0
H335 H 0.75103 0.78825 0.94847 0.0
H336 H 0.63027 0.6252 0.83779 0.0
H337 H 0.6382 0.55995 0.81039 0.0
loop_
_geom_bond_atom_site_label_1
_geom_bond_atom_site_label_2
_geom_bond_distance
_geom_bond_site_symmetry_2
_ccdc_geom_bond_type
Tb0 C10 2.825 . S
Tb0 O11 2.347 1_546 S
Tb0 O14 2.366 1_656 S
Tb0 O19 2.418 1_655 S
Tb0 O20 2.384 1_545 S
Tb0 O23 2.479 . S
Tb0 O24 2.471 . S
Eu1 O12 2.418 1_455 S
Eu1 O13 2.384 1_565 S
Eu1 O16 2.479 . S
Eu1 O17 2.471 . S
Eu1 O18 2.347 1_564 S
Eu1 O21 2.357 1_454 S
Eu1 C31 2.825 . S
C2 O18 1.259 . S
C2 O19 1.265 . S
C3 O20 1.255 . S
C3 O21 1.278 . S
C4 C6 1.380 . S
C4 C7 1.374 . S
C4 C10 1.507 . S
C5 C6 1.384 . S
C5 C9 1.387 . S
C5 H32 0.930 . S
C6 C4 1.380 . S
C6 C5 1.384 . S
C6 H33 0.931 . S
C7 C4 1.374 . S
C7 C8 1.390 . S
C7 H34 0.930 . S
C8 C7 1.390 . S
C8 C9 1.391 . S
C8 H35 0.930 . S
C9 C5 1.387 . S
C9 C8 1.391 . S
C10 Tb0 2.825 . S
C10 C4 1.507 . S
C10 O23 1.238 . S
C10 O24 1.247 . S
O11 Tb0 2.347 1_564 S
O11 C15 1.259 . S
O12 Eu1 2.418 1_655 S
O12 C15 1.265 . S
O13 Eu1 2.384 1_545 S
O13 C22 1.255 . S
O14 Tb0 2.366 1_454 S
O14 C22 1.265 . S
C15 O11 1.259 . S
C15 O12 1.265 . S
O16 Eu1 2.479 . S
O16 C31 1.238 . S
O17 Eu1 2.471 . S
O17 C31 1.247 . S
O18 Eu1 2.347 1_546 S
O18 C2 1.259 . S
O19 Tb0 2.418 1_455 S
O19 C2 1.265 . S
O20 Tb0 2.384 1_565 S
O20 C3 1.255 . S
O21 Eu1 2.357 1_656 S
O21 C3 1.278 . S
C22 O13 1.255 . S
C22 O14 1.265 . S
O23 Tb0 2.479 . S
O23 C10 1.238 . S
O24 Tb0 2.471 . S
O24 C10 1.247 . S
C25 C28 1.380 . S
C25 C29 1.374 . S
C25 C31 1.507 . S
C26 C27 1.387 . S
C26 C30 1.391 . S
C27 C26 1.387 . S
C27 C28 1.384 . S
C27 H36 0.930 . S
C28 C25 1.380 . S
C28 C27 1.384 . S
C28 H37 0.931 . S
C29 C25 1.374 . S
C29 C30 1.390 . S
C29 H38 0.930 . S
C30 C26 1.391 . S
C30 C29 1.390 . S
C30 H39 0.930 . S
C31 Eu1 2.825 . S
C31 O16 1.238 . S
C31 O17 1.247 . S
C31 C25 1.507 . S
H32 C5 0.930 . S
H33 C6 0.931 . S
H34 C7 0.930 . S
H35 C8 0.930 . S
H36 C27 0.930 . S
H37 C28 0.931 . S
H38 C29 0.930 . S
H39 C30 0.930 . S
Tb40 C50 2.825 1_455 S
Tb40 O51 2.347 . S
Tb40 O54 2.366 1_445 S
Tb40 O59 2.418 1_445 S
Tb40 O60 2.384 . S
Tb40 O63 2.479 1_455 S
Tb40 O64 2.471 1_455 S
Eu41 O52 2.418 1_565 S
Eu41 O53 2.384 1_455 S
Eu41 O56 2.479 1_565 S
Eu41 O57 2.471 . S
Eu41 O58 2.347 1_455 S
Eu41 O61 2.366 1_565 S
Eu41 C71 2.825 . S
C42 O58 1.259 . S
C42 O59 1.265 . S
C43 O60 1.255 . S
C43 O61 1.265 . S
C44 C46 1.380 . S
C44 C47 1.374 . S
C44 C50 1.507 . S
C45 C46 1.384 . S
C45 C49 1.387 . S
C45 H72 0.930 . S
C46 C44 1.380 . S
C46 C45 1.384 . S
C46 H73 0.931 . S
C47 C44 1.374 . S
C47 C48 1.390 . S
C47 H74 0.930 . S
C48 C47 1.390 . S
C48 C49 1.391 . S
C48 H75 0.930 . S
C49 C45 1.387 . S
C49 C48 1.391 . S
C50 Tb40 2.825 1_655 S
C50 C44 1.507 . S
C50 O63 1.238 . S
C50 O64 1.247 . S
O51 Tb40 2.347 . S
O51 C55 1.259 . S
O52 Eu41 2.418 1_545 S
O52 C55 1.265 . S
O53 Eu41 2.384 1_655 S
O53 C62 1.255 . S
O54 Tb40 2.366 1_665 S
O54 C62 1.265 . S
C55 O51 1.259 . S
C55 O52 1.265 . S
O56 Eu41 2.479 1_545 S
O56 C71 1.238 1_545 S
O57 Eu41 2.471 . S
O57 C71 1.247 . S
O58 Eu41 2.347 1_655 S
O58 C42 1.259 . S
O59 Tb40 2.418 1_665 S
O59 C42 1.265 . S
O60 Tb40 2.384 . S
O60 C43 1.255 . S
O61 Eu41 2.366 1_545 S
O61 C43 1.265 . S
C62 O53 1.255 . S
C62 O54 1.265 . S
O63 Tb40 2.479 1_655 S
O63 C50 1.238 . S
O64 Tb40 2.471 1_655 S
O64 C50 1.247 . S
C65 C68 1.380 . S
C65 C69 1.374 . S
C65 C71 1.507 . S
C66 C67 1.387 . S
C66 C70 1.391 . S
C67 C66 1.387 . S
C67 C68 1.384 . S
C67 H76 0.930 . S
C68 C65 1.380 . S
C68 C67 1.384 . S
C68 H77 0.931 . S
C69 C65 1.374 . S
C69 C70 1.390 . S
C69 H78 0.930 . S
C70 C66 1.391 . S
C70 C69 1.390 . S
C70 H79 0.930 . S
C71 Eu41 2.825 . S
C71 O56 1.238 1_565 S
C71 O57 1.247 . S
C71 C65 1.507 . S
H72 C45 0.930 . S
H73 C46 0.931 . S
H74 C47 0.930 . S
H75 C48 0.930 . S
H76 C67 0.930 . S
H77 C68 0.931 . S
H78 C69 0.930 . S
H79 C70 0.930 . S
Zn80 O86 1.920 . S
Zn80 O92 1.898 . S
Zn80 O95 1.905 . S
Zn81 O89 1.905 . S
Zn81 O90 1.898 . S
Zn81 O98 1.920 . S
Zn82 O85 2.080 . S
Zn82 O88 2.114 . S
Zn82 O91 2.120 . S
Zn82 O93 2.120 . S
Zn82 O94 2.114 . S
Zn82 O97 2.080 . S
C83 O88 1.166 . S
C83 O89 1.182 . S
C84 O90 1.167 . S
C84 O91 1.299 . S
O85 Zn82 2.080 . S
O85 C99 1.305 . S
O86 Zn80 1.920 . S
O86 C99 1.234 . S
C87 O92 1.167 . S
C87 O93 1.299 . S
O88 Zn82 2.114 . S
O88 C83 1.166 . S
O89 Zn81 1.905 . S
O89 C83 1.182 . S
O90 Zn81 1.898 . S
O90 C84 1.167 . S
O91 Zn82 2.120 . S
O91 C84 1.299 . S
O92 Zn80 1.898 . S
O92 C87 1.167 . S
O93 Zn82 2.120 . S
O93 C87 1.299 . S
O94 Zn82 2.114 . S
O94 C96 1.166 . S
O95 Zn80 1.905 . S
O95 C96 1.182 . S
C96 O94 1.166 . S
C96 O95 1.182 . S
O97 Zn82 2.080 . S
O97 C100 1.305 . S
O98 Zn81 1.920 . S
O98 C100 1.234 . S
C99 O85 1.305 . S
C99 O86 1.234 . S
C100 O97 1.305 . S
C100 O98 1.234 . S
Zn101 O107 1.920 . S
Zn101 O113 1.898 . S
Zn101 O116 1.905 . S
Zn102 O110 1.905 . S
Zn102 O111 1.898 . S
Zn102 O119 1.920 . S
Zn103 O106 2.080 . S
Zn103 O109 2.114 . S
Zn103 O112 2.120 . S
Zn103 O114 2.120 . S
Zn103 O115 2.114 . S
Zn103 O118 2.080 . S
C104 O109 1.166 . S
C104 O110 1.182 . S
C105 O111 1.167 . S
C105 O112 1.299 . S
O106 Zn103 2.080 . S
O106 C120 1.305 . S
O107 Zn101 1.920 . S
O107 C120 1.234 . S
C108 O113 1.167 . S
C108 O114 1.299 . S
O109 Zn103 2.114 . S
O109 C104 1.166 . S
O110 Zn102 1.905 . S
O110 C104 1.182 . S
O111 Zn102 1.898 . S
O111 C105 1.167 . S
O112 Zn103 2.120 . S
O112 C105 1.299 . S
O113 Zn101 1.898 . S
O113 C108 1.167 . S
O114 Zn103 2.120 . S
O114 C108 1.299 . S
O115 Zn103 2.114 . S
O115 C117 1.166 . S
O116 Zn101 1.905 . S
O116 C117 1.182 . S
C117 O115 1.166 . S
C117 O116 1.182 . S
O118 Zn103 2.080 . S
O118 C121 1.305 . S
O119 Zn102 1.920 . S
O119 C121 1.234 . S
C120 O106 1.305 . S
C120 O107 1.234 . S
C121 O118 1.305 . S
C121 O119 1.234 . S
C122 C123 1.363 . S
C122 C128 1.379 . S
C122 N130 1.356 . S
C123 C122 1.363 . S
C123 C129 1.363 . S
C124 C125 1.363 . S
C124 C129 1.379 . S
C124 N131 1.356 . S
C125 C124 1.363 . S
C125 C128 1.363 . S
N126 C128 1.356 . S
N126 H138 0.984 . S
N126 H139 0.985 . S
N127 C129 1.356 . S
N127 H132 0.984 . S
N127 H133 0.985 1_455 S
C128 C122 1.379 . S
C128 C125 1.363 . S
C128 N126 1.356 . S
C129 C123 1.363 . S
C129 C124 1.379 . S
C129 N127 1.356 . S
N130 C122 1.356 . S
N130 H136 0.984 . S
N130 H137 0.984 . S
N131 C124 1.356 . S
N131 H134 0.984 . S
N131 H135 0.985 . S
H132 N127 0.984 . S
H133 N127 0.985 1_655 S
H134 N131 0.984 . S
H135 N131 0.985 . S
H136 N130 0.984 . S
H137 N130 0.984 . S
H138 N126 0.984 . S
H139 N126 0.985 . S
C140 C141 1.363 . S
C140 C146 1.379 . S
C140 N148 1.356 . S
C141 C140 1.363 . S
C141 C147 1.363 . S
C142 C143 1.363 . S
C142 C147 1.379 . S
C142 N149 1.356 . S
C143 C142 1.363 . S
C143 C146 1.363 . S
N144 C146 1.356 . S
N144 H156 0.984 . S
N144 H157 0.985 . S
N145 C147 1.356 . S
N145 H150 0.984 . S
N145 H151 0.985 . S
C146 C140 1.379 . S
C146 C143 1.363 . S
C146 N144 1.356 . S
C147 C141 1.363 . S
C147 C142 1.379 . S
C147 N145 1.356 . S
N148 C140 1.356 . S
N148 H154 0.984 1_545 S
N148 H155 0.984 . S
N149 C142 1.356 . S
N149 H152 0.984 . S
N149 H153 0.985 . S
H150 N145 0.984 . S
H151 N145 0.985 . S
H152 N149 0.984 . S
H153 N149 0.985 . S
H154 N148 0.984 1_565 S
H155 N148 0.984 . S
H156 N144 0.984 . S
H157 N144 0.985 . S
C158 C159 1.363 . S
C158 C164 1.379 . S
C158 N166 1.356 . S
C159 C158 1.363 . S
C159 C165 1.363 . S
C160 C161 1.363 . S
C160 C165 1.379 . S
C160 N167 1.356 . S
C161 C160 1.363 . S
C161 C164 1.363 . S
N162 C164 1.356 . S
N162 H174 0.984 . S
N162 H175 0.985 . S
N163 C165 1.356 . S
N163 H168 0.984 . S
N163 H169 0.985 . S
C164 C158 1.379 . S
C164 C161 1.363 . S
C164 N162 1.356 . S
C165 C159 1.363 . S
C165 C160 1.379 . S
C165 N163 1.356 . S
N166 C158 1.356 . S
N166 H172 0.984 1_554 S
N166 H173 0.984 . S
N167 C160 1.356 . S
N167 H170 0.984 . S
N167 H171 0.985 . S
H168 N163 0.984 . S
H169 N163 0.985 . S
H170 N167 0.984 . S
H171 N167 0.985 . S
H172 N166 0.984 1_556 S
H173 N166 0.984 . S
H174 N162 0.984 . S
H175 N162 0.985 . S
C176 C177 1.363 . S
C176 C182 1.379 . S
C176 N184 1.356 . S
C177 C176 1.363 . S
C177 C183 1.363 . S
C178 C179 1.363 . S
C178 C183 1.379 . S
C178 N185 1.356 . S
C179 C178 1.363 . S
C179 C182 1.363 . S
N180 C182 1.356 . S
N180 H192 0.984 . S
N180 H193 0.985 . S
N181 C183 1.356 . S
N181 H186 0.984 . S
N181 H187 0.985 . S
C182 C176 1.379 . S
C182 C179 1.363 . S
C182 N180 1.356 . S
C183 C177 1.363 . S
C183 C178 1.379 . S
C183 N181 1.356 . S
N184 C176 1.356 . S
N184 H190 0.984 . S
N184 H191 0.984 . S
N185 C178 1.356 . S
N185 H188 0.984 . S
N185 H189 0.985 . S
H186 N181 0.984 . S
H187 N181 0.985 . S
H188 N185 0.984 . S
H189 N185 0.985 . S
H190 N184 0.984 . S
H191 N184 0.984 . S
H192 N180 0.984 . S
H193 N180 0.985 . S
C194 C195 1.363 . S
C194 C200 1.379 . S
C194 N202 1.356 . S
C195 C194 1.363 . S
C195 C201 1.363 . S
C196 C197 1.363 . S
C196 C201 1.379 . S
C196 N203 1.356 . S
C197 C196 1.363 . S
C197 C200 1.363 . S
N198 C200 1.356 . S
N198 H210 0.984 . S
N198 H211 0.985 . S
N199 C201 1.356 . S
N199 H204 0.984 . S
N199 H205 0.985 . S
C200 C194 1.379 . S
C200 C197 1.363 . S
C200 N198 1.356 . S
C201 C195 1.363 . S
C201 C196 1.379 . S
C201 N199 1.356 . S
N202 C194 1.356 . S
N202 H208 0.984 1_565 S
N202 H209 0.984 . S
N203 C196 1.356 . S
N203 H206 0.984 . S
N203 H207 0.985 . S
H204 N199 0.984 . S
H205 N199 0.985 . S
H206 N203 0.984 . S
H207 N203 0.985 . S
H208 N202 0.984 1_545 S
H209 N202 0.984 . S
H210 N198 0.984 . S
H211 N198 0.985 . S
C212 C213 1.363 . S
C212 C218 1.379 . S
C212 N220 1.356 . S
C213 C212 1.363 . S
C213 C219 1.363 . S
C214 C215 1.363 . S
C214 C219 1.379 . S
C214 N221 1.356 . S
C215 C214 1.363 . S
C215 C218 1.363 . S
N216 C218 1.356 . S
N216 H228 0.984 . S
N216 H229 0.985 . S
N217 C219 1.356 . S
N217 H222 0.984 1_655 S
N217 H223 0.985 1_655 S
C218 C212 1.379 . S
C218 C215 1.363 . S
C218 N216 1.356 . S
C219 C213 1.363 . S
C219 C214 1.379 . S
C219 N217 1.356 . S
N220 C212 1.356 . S
N220 H226 0.984 . S
N220 H227 0.984 . S
N221 C214 1.356 . S
N221 H224 0.984 . S
N221 H225 0.985 . S
H222 N217 0.984 1_455 S
H223 N217 0.985 1_455 S
H224 N221 0.984 . S
H225 N221 0.985 . S
H226 N220 0.984 . S
H227 N220 0.984 . S
H228 N216 0.984 . S
H229 N216 0.985 . S
C230 C231 1.363 . S
C230 C236 1.379 . S
C230 N238 1.356 . S
C231 C230 1.363 . S
C231 C237 1.363 . S
C232 C233 1.363 . S
C232 C237 1.379 . S
C232 N239 1.356 . S
C233 C232 1.363 . S
C233 C236 1.363 . S
N234 C236 1.356 . S
N234 H246 0.984 . S
N234 H247 0.985 . S
N235 C237 1.356 . S
N235 H240 0.984 . S
N235 H241 0.985 . S
C236 C230 1.379 . S
C236 C233 1.363 . S
C236 N234 1.356 . S
C237 C231 1.363 . S
C237 C232 1.379 . S
C237 N235 1.356 . S
N238 C230 1.356 . S
N238 H244 0.984 . S
N238 H245 0.984 . S
N239 C232 1.356 . S
N239 H242 0.984 . S
N239 H243 0.985 . S
H240 N235 0.984 . S
H241 N235 0.985 . S
H242 N239 0.984 . S
H243 N239 0.985 . S
H244 N238 0.984 . S
H245 N238 0.984 . S
H246 N234 0.984 . S
H247 N234 0.985 . S
C248 C249 1.363 . S
C248 C254 1.379 . S
C248 N256 1.356 . S
C249 C248 1.363 . S
C249 C255 1.363 . S
C250 C251 1.363 . S
C250 C255 1.379 . S
C250 N257 1.356 . S
C251 C250 1.363 . S
C251 C254 1.363 . S
N252 C254 1.356 . S
N252 H264 0.984 . S
N252 H265 0.985 . S
N253 C255 1.356 . S
N253 H258 0.984 . S
N253 H259 0.985 . S
C254 C248 1.379 . S
C254 C251 1.363 . S
C254 N252 1.356 . S
C255 C249 1.363 . S
C255 C250 1.379 . S
C255 N253 1.356 . S
N256 C248 1.356 . S
N256 H262 0.984 . S
N256 H263 0.984 . S
N257 C250 1.356 . S
N257 H260 0.984 . S
N257 H261 0.985 . S
H258 N253 0.984 . S
H259 N253 0.985 . S
H260 N257 0.984 . S
H261 N257 0.985 . S
H262 N256 0.984 . S
H263 N256 0.984 . S
H264 N252 0.984 . S
H265 N252 0.985 . S
C266 C267 1.363 . S
C266 C272 1.379 . S
C266 N274 1.356 . S
C267 C266 1.363 . S
C267 C273 1.363 . S
C268 C269 1.363 . S
C268 C273 1.379 . S
C268 N275 1.356 . S
C269 C268 1.363 . S
C269 C272 1.363 . S
N270 C272 1.356 . S
N270 H282 0.984 . S
N270 H283 0.985 . S
N271 C273 1.356 . S
N271 H276 0.984 . S
N271 H277 0.985 . S
C272 C266 1.379 . S
C272 C269 1.363 . S
C272 N270 1.356 . S
C273 C267 1.363 . S
C273 C268 1.379 . S
C273 N271 1.356 . S
N274 C266 1.356 . S
N274 H280 0.984 1_455 S
N274 H281 0.984 . S
N275 C268 1.356 . S
N275 H278 0.984 . S
N275 H279 0.985 . S
H276 N271 0.984 . S
H277 N271 0.985 . S
H278 N275 0.984 . S
H279 N275 0.985 . S
H280 N274 0.984 1_655 S
H281 N274 0.984 . S
H282 N270 0.984 . S
H283 N270 0.985 . S
C284 C285 1.363 . S
C284 C290 1.379 . S
C284 N292 1.356 . S
C285 C284 1.363 . S
C285 C291 1.363 . S
C286 C287 1.363 . S
C286 C291 1.379 . S
C286 N293 1.356 . S
C287 C286 1.363 . S
C287 C290 1.363 . S
N288 C290 1.356 . S
N288 H300 0.984 . S
N288 H301 0.985 . S
N289 C291 1.356 . S
N289 H294 0.984 . S
N289 H295 0.985 . S
C290 C284 1.379 . S
C290 C287 1.363 . S
C290 N288 1.356 . S
C291 C285 1.363 . S
C291 C286 1.379 . S
C291 N289 1.356 . S
N292 C284 1.356 . S
N292 H298 0.984 . S
N292 H299 0.984 . S
N293 C286 1.356 . S
N293 H296 0.984 . S
N293 H297 0.985 . S
H294 N289 0.984 . S
H295 N289 0.985 . S
H296 N293 0.984 . S
H297 N293 0.985 . S
H298 N292 0.984 . S
H299 N292 0.984 . S
H300 N288 0.984 . S
H301 N288 0.985 . S
C302 C303 1.363 . S
C302 C308 1.379 . S
C302 N310 1.356 1_565 S
C303 C302 1.363 . S
C303 C309 1.363 . S
C304 C305 1.363 . S
C304 C309 1.379 . S
C304 N311 1.356 . S
C305 C304 1.363 . S
C305 C308 1.363 . S
N306 C308 1.356 . S
N306 H318 0.984 . S
N306 H319 0.985 . S
N307 C309 1.356 . S
N307 H312 0.984 . S
N307 H313 0.985 . S
C308 C302 1.379 . S
C308 C305 1.363 . S
C308 N306 1.356 . S
C309 C303 1.363 . S
C309 C304 1.379 . S
C309 N307 1.356 . S
N310 C302 1.356 1_545 S
N310 H316 0.984 . S
N310 H317 0.984 . S
N311 C304 1.356 . S
N311 H314 0.984 . S
N311 H315 0.985 . S
H312 N307 0.984 . S
H313 N307 0.985 . S
H314 N311 0.984 . S
H315 N311 0.985 . S
H316 N310 0.984 . S
H317 N310 0.984 . S
H318 N306 0.984 . S
H319 N306 0.985 . S
C320 C321 1.363 . S
C320 C326 1.379 . S
C320 N328 1.356 . S
C321 C320 1.363 . S
C321 C327 1.363 . S
C322 C323 1.363 . S
C322 C327 1.379 . S
C322 N329 1.356 . S
C323 C322 1.363 . S
C323 C326 1.363 . S
N324 C326 1.356 . S
N324 H336 0.984 . S
N324 H337 0.985 . S
N325 C327 1.356 . S
N325 H330 0.984 . S
N325 H331 0.985 1_655 S
C326 C320 1.379 . S
C326 C323 1.363 . S
C326 N324 1.356 . S
C327 C321 1.363 . S
C327 C322 1.379 . S
C327 N325 1.356 . S
N328 C320 1.356 . S
N328 H334 0.984 . S
N328 H335 0.984 . S
N329 C322 1.356 . S
N329 H332 0.984 . S
N329 H333 0.985 . S
H330 N325 0.984 . S
H331 N325 0.985 1_455 S
H332 N329 0.984 . S
H333 N329 0.985 . S
H334 N328 0.984 . S
H335 N328 0.984 . S
H336 N324 0.984 . S
H337 N324 0.985 . S
C123 C26 1.380 . S
C125 C99 1.324 . S
C141 C43 1.387 . S
C143 C105 1.216 . S
C159 C22 1.495 . S
C161 C96 1.342 . S
C177 C49 1.507 . S
C179 C121 1.427 . S
C195 C15 1.859 . S
C197 C87 1.672 . S
C215 C104 1.763 . S
C213 C42 1.904 . S
C231 C66 1.380 . S
C233 C100 1.324 . S
C251 C117 1.763 . S
C249 C2 1.904 . S
C269 C84 1.672 . S
C267 C55 1.859 . S
C287 C120 1.427 . S
C285 C9 1.507 . S
C305 C83 1.342 . S
C303 C62 1.495 . S
C323 C108 1.216 . S
C321 C3 1.387 . S
