# Generated by pormake.
# Topology ssb, (4,4)-cn, num edge types: 1
# Building blocks:
#     Node 0, Type 0, BuildingBlock: ESEHIV_clean_sbu_0, # of connection points: 4
#     Node 1, Type 0, BuildingBlock: ESEHIV_clean_sbu_0, # of connection points: 4
#     Node 2, Type 0, BuildingBlock: ESEHIV_clean_sbu_0, # of connection points: 4
#     Node 3, Type 0, BuildingBlock: ESEHIV_clean_sbu_0, # of connection points: 4
#     Node 4, Type 0, BuildingBlock: ESEHIV_clean_sbu_0, # of connection points: 4
#     Node 5, Type 0, BuildingBlock: ESEHIV_clean_sbu_0, # of connection points: 4
#     Node 6, Type 0, BuildingBlock: ESEHIV_clean_sbu_0, # of connection points: 4
#     Node 7, Type 0, BuildingBlock: ESEHIV_clean_sbu_0, # of connection points: 4
#     Node 8, Type 1, BuildingBlock: NAWXER_clean_sbu_0, # of connection points: 4
#     Node 9, Type 1, BuildingBlock: NAWXER_clean_sbu_0, # of connection points: 4
#     Node 10, Type 1, BuildingBlock: NAWXER_clean_sbu_0, # of connection points: 4
#     Node 11, Type 1, BuildingBlock: NAWXER_clean_sbu_0, # of connection points: 4
#     Node 12, Type 1, BuildingBlock: NAWXER_clean_sbu_0, # of connection points: 4
#     Node 13, Type 1, BuildingBlock: NAWXER_clean_sbu_0, # of connection points: 4
#     Node 14, Type 1, BuildingBlock: NAWXER_clean_sbu_0, # of connection points: 4
#     Node 15, Type 1, BuildingBlock: NAWXER_clean_sbu_0, # of connection points: 4
#     Edge 16, Type (0, 1), BuildingBlock: UVAHIK_clean_linker_0, # of connection points: 2
#     Edge 17, Type (0, 1), BuildingBlock: UVAHIK_clean_linker_0, # of connection points: 2
#     Edge 18, Type (0, 1), BuildingBlock: UVAHIK_clean_linker_0, # of connection points: 2
#     Edge 19, Type (0, 1), BuildingBlock: UVAHIK_clean_linker_0, # of connection points: 2
#     Edge 20, Type (0, 1), BuildingBlock: UVAHIK_clean_linker_0, # of connection points: 2
#     Edge 21, Type (0, 1), BuildingBlock: UVAHIK_clean_linker_0, # of connection points: 2
#     Edge 22, Type (0, 1), BuildingBlock: UVAHIK_clean_linker_0, # of connection points: 2
#     Edge 23, Type (0, 1), BuildingBlock: UVAHIK_clean_linker_0, # of connection points: 2
#     Edge 24, Type (0, 1), BuildingBlock: UVAHIK_clean_linker_0, # of connection points: 2
#     Edge 25, Type (0, 1), BuildingBlock: UVAHIK_clean_linker_0, # of connection points: 2
#     Edge 26, Type (0, 1), BuildingBlock: UVAHIK_clean_linker_0, # of connection points: 2
#     Edge 27, Type (0, 1), BuildingBlock: UVAHIK_clean_linker_0, # of connection points: 2
#     Edge 28, Type (0, 1), BuildingBlock: UVAHIK_clean_linker_0, # of connection points: 2
#     Edge 29, Type (0, 1), BuildingBlock: UVAHIK_clean_linker_0, # of connection points: 2
#     Edge 30, Type (0, 1), BuildingBlock: UVAHIK_clean_linker_0, # of connection points: 2
#     Edge 31, Type (0, 1), BuildingBlock: UVAHIK_clean_linker_0, # of connection points: 2
#     Edge 32, Type (0, 1), BuildingBlock: UVAHIK_clean_linker_0, # of connection points: 2
#     Edge 33, Type (0, 1), BuildingBlock: UVAHIK_clean_linker_0, # of connection points: 2
#     Edge 34, Type (0, 1), BuildingBlock: UVAHIK_clean_linker_0, # of connection points: 2
#     Edge 35, Type (0, 1), BuildingBlock: UVAHIK_clean_linker_0, # of connection points: 2
#     Edge 36, Type (0, 1), BuildingBlock: UVAHIK_clean_linker_0, # of connection points: 2
#     Edge 37, Type (0, 1), BuildingBlock: UVAHIK_clean_linker_0, # of connection points: 2
#     Edge 38, Type (0, 1), BuildingBlock: UVAHIK_clean_linker_0, # of connection points: 2
#     Edge 39, Type (0, 1), BuildingBlock: UVAHIK_clean_linker_0, # of connection points: 2
#     Edge 40, Type (0, 1), BuildingBlock: UVAHIK_clean_linker_0, # of connection points: 2
#     Edge 41, Type (0, 1), BuildingBlock: UVAHIK_clean_linker_0, # of connection points: 2
#     Edge 42, Type (0, 1), BuildingBlock: UVAHIK_clean_linker_0, # of connection points: 2
#     Edge 43, Type (0, 1), BuildingBlock: UVAHIK_clean_linker_0, # of connection points: 2
#     Edge 44, Type (0, 1), BuildingBlock: UVAHIK_clean_linker_0, # of connection points: 2
#     Edge 45, Type (0, 1), BuildingBlock: UVAHIK_clean_linker_0, # of connection points: 2
#     Edge 46, Type (0, 1), BuildingBlock: UVAHIK_clean_linker_0, # of connection points: 2
#     Edge 47, Type (0, 1), BuildingBlock: UVAHIK_clean_linker_0, # of connection points: 2
# Relax obj value: 0.002
# Max RMSD: 0.102
# Mean RMSD: 0.051
data_MOF--net-ssb--node1-ESEHIV_clean_sbu_0--node2-NAWXER_clean_sbu_0--edge1-UVAHIK_clean_linker_0
_symmetry_space_group_name_H-M    P1
_symmetry_Int_Tables_number       1
_symmetry_cell_setting            triclinic
loop_
_symmetry_equiv_pos_as_xyz
'x, y, z'
_cell_length_a     59.485678
_cell_length_b     59.466378
_cell_length_c     51.229759
_cell_angle_alpha  89.851801
_cell_angle_beta   89.82308
_cell_angle_gamma 89.917465
loop_
_atom_site_label
_atom_site_type_symbol
_atom_site_fract_x
_atom_site_fract_y
_atom_site_fract_z
_atom_type_partial_charge
Cu0 Cu 0.25447 0.24785 0.25002 0.0
N1 N 0.24486 0.21812 0.25451 0.0
N2 N 0.24024 0.18575 0.27618 0.0
C3 C 0.24932 0.2065 0.27646 0.0
C4 C 0.22957 0.18416 0.25306 0.0
C5 C 0.23257 0.20414 0.23961 0.0
O6 O 0.24579 0.26221 0.28263 0.0
C7 C 0.29372 0.2337 0.22632 0.0
O8 O 0.27912 0.22021 0.21526 0.0
H9 H 0.25874 0.2134 0.29261 0.0
H10 H 0.22637 0.20797 0.22033 0.0
N11 N 0.24127 0.26339 0.22204 0.0
N12 N 0.23523 0.29172 0.19399 0.0
C13 C 0.24779 0.28399 0.21404 0.0
C14 C 0.22388 0.25789 0.20655 0.0
C15 C 0.2202 0.27527 0.18916 0.0
C16 C 0.22487 0.26627 0.28529 0.0
O17 O 0.21149 0.26285 0.26536 0.0
H18 H 0.26156 0.29309 0.22281 0.0
H19 H 0.21411 0.24268 0.20814 0.0
O20 O 0.28673 0.24759 0.24344 0.0
H21 H 0.22057 0.16952 0.24623 0.0
H22 H 0.20707 0.276 0.1746 0.0
Cu23 Cu 0.79145 0.28304 0.26795 0.0
N24 N 0.77878 0.27073 0.23776 0.0
N25 N 0.75329 0.26605 0.20616 0.0
C26 C 0.76026 0.27906 0.22612 0.0
C27 C 0.76812 0.24886 0.20516 0.0
C28 C 0.78382 0.25179 0.22464 0.0
O29 O 0.78803 0.31552 0.26393 0.0
C30 C 0.78264 0.24792 0.30019 0.0
O31 O 0.79574 0.23931 0.28211 0.0
H32 H 0.75149 0.29389 0.23298 0.0
H33 H 0.79743 0.24046 0.22936 0.0
N34 N 0.8224 0.27773 0.27151 0.0
N35 N 0.85661 0.28011 0.28929 0.0
C36 C 0.83479 0.28617 0.29111 0.0
C37 C 0.83688 0.26594 0.25661 0.0
C38 C 0.858 0.26729 0.26763 0.0
C39 C 0.80111 0.32352 0.24644 0.0
O40 O 0.8147 0.30973 0.23406 0.0
H41 H 0.82778 0.29637 0.3066 0.0
H42 H 0.83254 0.25719 0.23889 0.0
O43 O 0.77721 0.26863 0.29821 0.0
H44 H 0.7675 0.23495 0.1916 0.0
H45 H 0.87324 0.25973 0.26005 0.0
Cu46 Cu 0.77914 0.79429 0.26109 0.0
N47 N 0.7925 0.77901 0.23322 0.0
N48 N 0.79634 0.75369 0.2012 0.0
C49 C 0.78282 0.76198 0.22013 0.0
C50 C 0.81532 0.76612 0.20254 0.0
C51 C 0.8129 0.7817 0.22229 0.0
O52 O 0.74696 0.78971 0.25705 0.0
C53 C 0.80604 0.76939 0.2974 0.0
O54 O 0.81262 0.75738 0.2773 0.0
H55 H 0.76631 0.75552 0.22489 0.0
H56 H 0.82522 0.79394 0.22843 0.0
N57 N 0.78621 0.8249 0.26124 0.0
N58 N 0.79144 0.85892 0.27866 0.0
C59 C 0.78222 0.83838 0.2818 0.0
C60 C 0.79834 0.83734 0.24434 0.0
C61 C 0.80166 0.85838 0.2551 0.0
C62 C 0.73492 0.80427 0.24534 0.0
O63 O 0.74382 0.82372 0.23895 0.0
H64 H 0.77367 0.83278 0.29933 0.0
H65 H 0.80492 0.83136 0.22592 0.0
O66 O 0.79042 0.78382 0.29453 0.0
H67 H 0.82992 0.76424 0.19009 0.0
H68 H 0.81112 0.87206 0.24647 0.0
Cu69 Cu 0.27887 0.78824 0.2659 0.0
N70 N 0.28961 0.80752 0.23973 0.0
N71 N 0.31266 0.82071 0.20867 0.0
C72 C 0.30869 0.8041 0.2261 0.0
C73 C 0.29546 0.83533 0.21167 0.0
C74 C 0.28125 0.82713 0.23085 0.0
O75 O 0.28993 0.75826 0.25746 0.0
C76 C 0.27762 0.81806 0.30632 0.0
O77 O 0.26141 0.82547 0.29122 0.0
H78 H 0.31957 0.78974 0.22917 0.0
H79 H 0.26592 0.83492 0.23778 0.0
N80 N 0.24744 0.78646 0.2664 0.0
N81 N 0.21279 0.77948 0.28146 0.0
C82 C 0.23508 0.77761 0.28596 0.0
C83 C 0.23251 0.79406 0.24877 0.0
C84 C 0.21111 0.78984 0.25805 0.0
C85 C 0.28489 0.75214 0.23437 0.0
O86 O 0.27287 0.76579 0.2198 0.0
H87 H 0.24236 0.77057 0.30351 0.0
H88 H 0.23687 0.80225 0.23058 0.0
O89 O 0.2886 0.80067 0.29925 0.0
H90 H 0.29311 0.85065 0.20055 0.0
H91 H 0.19555 0.79405 0.24829 0.0
Cu92 Cu 0.27748 0.76977 0.76867 0.0
N93 N 0.30826 0.76347 0.77043 0.0
N94 N 0.34232 0.75912 0.78799 0.0
C95 C 0.32082 0.76548 0.79209 0.0
C96 C 0.34335 0.75281 0.76274 0.0
C97 C 0.32231 0.75562 0.7519 0.0
O98 O 0.26372 0.75424 0.79825 0.0
C99 C 0.28705 0.81565 0.75979 0.0
O100 O 0.30743 0.80804 0.75534 0.0
H101 H 0.31419 0.77121 0.81063 0.0
H102 H 0.31767 0.7523 0.7319 0.0
N103 N 0.26485 0.75965 0.7375 0.0
N104 N 0.24234 0.75977 0.70257 0.0
C105 C 0.24781 0.77007 0.72514 0.0
C106 C 0.27042 0.74208 0.72231 0.0
C107 C 0.25657 0.74209 0.70077 0.0
C108 C 0.26518 0.73285 0.79817 0.0
O109 O 0.27457 0.72299 0.77798 0.0
H110 H 0.23953 0.78487 0.73279 0.0
H111 H 0.28368 0.73016 0.72645 0.0
O112 O 0.27207 0.80215 0.76825 0.0
H113 H 0.3583 0.74695 0.75275 0.0
H114 H 0.25723 0.73018 0.68486 0.0
Cu115 Cu 0.303 0.30404 0.75341 0.0
N116 N 0.31444 0.33314 0.75671 0.0
N117 N 0.32273 0.36516 0.77727 0.0
C118 C 0.31364 0.34449 0.77934 0.0
C119 C 0.32948 0.36699 0.75216 0.0
C120 C 0.32445 0.34711 0.73952 0.0
O121 O 0.3075 0.29146 0.7882 0.0
C122 C 0.26658 0.31882 0.72427 0.0
O123 O 0.28277 0.3303 0.71299 0.0
H124 H 0.30603 0.33779 0.79692 0.0
H125 H 0.32766 0.34326 0.71924 0.0
N126 N 0.31826 0.28724 0.72811 0.0
N127 N 0.32632 0.25876 0.70122 0.0
C128 C 0.31175 0.26703 0.71905 0.0
C129 C 0.33762 0.29195 0.71561 0.0
C130 C 0.34259 0.27444 0.69889 0.0
C131 C 0.32299 0.27737 0.79345 0.0
O132 O 0.33361 0.26725 0.77428 0.0
H133 H 0.2966 0.25859 0.72547 0.0
H134 H 0.34764 0.30684 0.71871 0.0
O135 O 0.27145 0.30581 0.74324 0.0
H136 H 0.33758 0.38155 0.74361 0.0
H137 H 0.35729 0.27311 0.68649 0.0
Cu138 Cu 0.76851 0.2701 0.77134 0.0
N139 N 0.77947 0.28297 0.74055 0.0
N140 N 0.80344 0.28844 0.7074 0.0
C141 C 0.79865 0.27624 0.72893 0.0
C142 C 0.78655 0.30356 0.7054 0.0
C143 C 0.77171 0.30007 0.72584 0.0
O144 O 0.78365 0.24087 0.77228 0.0
C145 C 0.76223 0.30805 0.80097 0.0
O146 O 0.74797 0.31129 0.7818 0.0
H147 H 0.80925 0.26301 0.73662 0.0
H148 H 0.75648 0.30943 0.72976 0.0
N149 N 0.73732 0.26609 0.77048 0.0
N150 N 0.70266 0.26008 0.78583 0.0
C151 C 0.72474 0.2609 0.79152 0.0
C152 C 0.72267 0.26891 0.75076 0.0
C153 C 0.70117 0.26529 0.76025 0.0
C154 C 0.77323 0.22217 0.77263 0.0
O155 O 0.752 0.2218 0.77962 0.0
H156 H 0.73169 0.25808 0.81076 0.0
H157 H 0.72725 0.27353 0.73102 0.0
O158 O 0.77453 0.29044 0.80053 0.0
H159 H 0.785 0.31617 0.69024 0.0
H160 H 0.68571 0.26625 0.74921 0.0
Cu161 Cu 0.77023 0.76916 0.75621 0.0
N162 N 0.76606 0.73817 0.7609 0.0
N163 N 0.77061 0.7041 0.77877 0.0
C164 C 0.77586 0.72615 0.78004 0.0
C165 C 0.75688 0.70223 0.75792 0.0
C166 C 0.75417 0.72327 0.74688 0.0
O167 O 0.76121 0.78375 0.78876 0.0
C168 C 0.8067 0.76071 0.72581 0.0
O169 O 0.79086 0.74866 0.7148 0.0
H170 H 0.7865 0.7336 0.79476 0.0
H171 H 0.7445 0.72731 0.72966 0.0
N172 N 0.75264 0.78155 0.72962 0.0
N173 N 0.74158 0.8071 0.70013 0.0
C174 C 0.75817 0.80027 0.71627 0.0
C175 C 0.73175 0.77626 0.72178 0.0
C176 C 0.72489 0.79197 0.70353 0.0
C177 C 0.7426 0.77672 0.79814 0.0
O178 O 0.73153 0.76105 0.78557 0.0
H179 H 0.77374 0.80926 0.71936 0.0
H180 H 0.72189 0.76245 0.72941 0.0
O181 O 0.80157 0.77267 0.7456 0.0
H182 H 0.74965 0.68673 0.75081 0.0
H183 H 0.70874 0.79236 0.69387 0.0
C184 C 0.00942 0.27985 0.55956 0.0
C185 C 0.07673 0.2768 0.50356 0.0
O186 O 0.01681 0.2991 0.5523 0.0
Zn187 Zn 0.04325 0.31314 0.52944 0.0
O188 O 0.01983 0.26216 0.55245 0.0
Zn189 Zn 0.04336 0.27702 0.5319 0.0
O190 O 0.06303 0.29379 0.56095 0.0
O191 O 0.06035 0.33042 0.55462 0.0
O192 O 0.06633 0.25991 0.51301 0.0
O193 O 0.06959 0.2967 0.50843 0.0
O194 O 0.02648 0.32798 0.50161 0.0
O195 O 0.02471 0.29093 0.50006 0.0
C196 C 0.0683 0.31391 0.56749 0.0
C197 C 0.01947 0.31018 0.49055 0.0
C198 C 0.79061 0.06941 0.56388 0.0
C199 C 0.78805 0.02123 0.48642 0.0
O200 O 0.80712 0.06225 0.55045 0.0
Zn201 Zn 0.78988 0.04604 0.52435 0.0
O202 O 0.77052 0.06487 0.55659 0.0
Zn203 Zn 0.75411 0.04722 0.52554 0.0
O204 O 0.73709 0.0247 0.54474 0.0
O205 O 0.77383 0.01972 0.54671 0.0
O206 O 0.7685 0.02692 0.49484 0.0
O207 O 0.80547 0.0288 0.49774 0.0
O208 O 0.77517 0.07236 0.50151 0.0
O209 O 0.73841 0.07108 0.50661 0.0
C210 C 0.75387 0.01338 0.55285 0.0
C211 C 0.7556 0.08023 0.49635 0.0
C212 C 0.99424 0.75436 0.55278 0.0
C213 C 0.04238 0.75094 0.4746 0.0
O214 O 0.99941 0.7736 0.54324 0.0
Zn215 Zn 0.0178 0.78757 0.51143 0.0
O216 O 1.00138 0.73659 0.54168 0.0
Zn217 Zn 0.01829 0.75119 0.51356 0.0
O218 O 0.0447 0.76768 0.53352 0.0
O219 O 0.0414 0.80449 0.52951 0.0
O220 O 0.03562 0.73412 0.48793 0.0
O221 O 0.03669 0.77088 0.48146 0.0
O222 O 0.99394 0.80223 0.49125 0.0
O223 O 0.99234 0.76516 0.49016 0.0
C224 C 0.05206 0.78748 0.53823 0.0
C225 C 0.98459 0.78433 0.48308 0.0
C226 C 0.30204 0.04995 0.56187 0.0
C227 C 0.29928 0.98284 0.50668 0.0
O228 O 0.31854 0.0388 0.55277 0.0
Zn229 Zn 0.30121 0.01588 0.5351 0.0
O230 O 0.28193 0.0432 0.55749 0.0
Zn231 Zn 0.26552 0.0161 0.53729 0.0
O232 O 0.25038 0.99956 0.56493 0.0
O233 O 0.28729 0.99698 0.56705 0.0
O234 O 0.27983 0.98992 0.51377 0.0
O235 O 0.31674 0.99289 0.51485 0.0
O236 O 0.28426 0.0351 0.50514 0.0
O237 O 0.24769 0.03212 0.5117 0.0
C238 C 0.26783 0.99202 0.57624 0.0
C239 C 0.26403 0.03985 0.49838 0.0
C240 C 0.5081 0.81399 0.04365 0.0
C241 C 0.57507 0.81062 0.98731 0.0
O242 O 0.51859 0.83061 0.03372 0.0
Zn243 Zn 0.54135 0.81313 0.01536 0.0
O244 O 0.51511 0.79394 0.03916 0.0
Zn245 Zn 0.54159 0.77727 0.01797 0.0
O246 O 0.55796 0.76229 0.04571 0.0
O247 O 0.56018 0.7993 0.04734 0.0
O248 O 0.56809 0.79128 0.99488 0.0
O249 O 0.56437 0.82814 0.99432 0.0
O250 O 0.52109 0.79611 0.98702 0.0
O251 O 0.52492 0.75953 0.99288 0.0
C252 C 0.56518 0.77994 0.05683 0.0
C253 C 0.51617 0.7759 0.98051 0.0
C254 C 0.29485 0.56206 0.07166 0.0
C255 C 0.29828 0.51505 0.99388 0.0
O256 O 0.31198 0.55431 0.05987 0.0
Zn257 Zn 0.29638 0.53812 0.03297 0.0
O258 O 0.27515 0.55711 0.06326 0.0
Zn259 Zn 0.26105 0.53756 0.03179 0.0
O260 O 0.24438 0.51423 0.04976 0.0
O261 O 0.28105 0.51036 0.05364 0.0
O262 O 0.27794 0.5192 1.00089 0.0
O263 O 0.31441 0.52289 1.00726 0.0
O264 O 0.28104 0.56464 1.01006 0.0
O265 O 0.24434 0.55987 1.01225 0.0
C266 C 0.2611 0.50324 0.05846 0.0
C267 C 0.26112 0.57091 1.00373 0.0
C268 C 0.53988 0.24268 0.99024 0.0
C269 C 0.49002 0.24294 0.06666 0.0
O270 O 0.53455 0.26246 0.99808 0.0
Zn271 Zn 0.51553 0.27797 0.02886 0.0
O272 O 0.53281 0.22554 1.00271 0.0
Zn273 Zn 0.51549 0.24183 0.02879 0.0
O274 O 0.49009 0.25738 1.00551 0.0
O275 O 0.49261 0.29427 1.00894 0.0
O276 O 0.4977 0.22582 0.05473 0.0
O277 O 0.49561 0.26268 0.0589 0.0
O278 O 0.5389 0.29366 0.04866 0.0
O279 O 0.54153 0.25676 0.05125 0.0
C280 C 0.48295 0.27705 0.99943 0.0
C281 C 0.54895 0.27627 0.05732 0.0
C282 C 0.77094 0.55654 0.04277 0.0
C283 C 0.76825 0.4866 0.99112 0.0
O284 O 0.79007 0.54758 0.03783 0.0
Zn285 Zn 0.80427 0.51937 0.01836 0.0
O286 O 0.75314 0.54705 0.03455 0.0
Zn287 Zn 0.76796 0.5215 0.01719 0.0
O288 O 0.78132 0.50332 0.04952 0.0
O289 O 0.81836 0.50303 0.04715 0.0
O290 O 0.75137 0.49826 0.99835 0.0
O291 O 0.78808 0.4929 0.9975 0.0
O292 O 0.8218 0.53437 0.99092 0.0
O293 O 0.78509 0.53765 0.98585 0.0
C294 C 0.80035 0.49741 0.05899 0.0
C295 C 0.80511 0.54159 0.97781 0.0
C296 C 0.22471 0.26377 0.33432 0.0
C297 C 0.21473 0.27128 0.31102 0.0
C298 C 0.21292 0.26514 0.35803 0.0
C299 C 0.16451 0.29327 0.38986 0.0
H300 H 0.16072 0.2394 0.43251 0.0
C301 C 0.10063 0.25451 0.47207 0.0
C302 C 0.09666 0.27426 0.48638 0.0
C303 C 0.11796 0.25377 0.4534 0.0
C304 C 0.1616 0.25455 0.42078 0.0
H305 H 0.18513 0.28701 0.29445 0.0
H306 H 0.16484 0.28973 0.33557 0.0
H307 H 0.18596 0.24025 0.39463 0.0
H308 H 0.10878 0.30804 0.49379 0.0
H309 H 0.139 0.30656 0.46192 0.0
H310 H 0.13969 0.30738 0.41515 0.0
C311 C 0.18167 0.28274 0.3357 0.0
C312 C 0.17625 0.25514 0.39929 0.0
C313 C 0.19328 0.28114 0.31209 0.0
C314 C 0.11112 0.29269 0.48276 0.0
C315 C 0.12843 0.29189 0.46438 0.0
C316 C 0.14998 0.29272 0.41129 0.0
C317 C 0.19111 0.27435 0.35887 0.0
C318 C 0.17759 0.27441 0.38335 0.0
C319 C 0.13166 0.27271 0.44887 0.0
C320 C 0.14814 0.27329 0.4269 0.0
H321 H 0.24113 0.25588 0.33403 0.0
H322 H 0.22069 0.2587 0.37562 0.0
H323 H 0.16525 0.30842 0.3781 0.0
H324 H 0.08976 0.24005 0.47444 0.0
H325 H 0.11994 0.23874 0.44171 0.0
C326 C 0.75836 0.23928 0.33993 0.0
C327 C 0.77541 0.23323 0.32217 0.0
C328 C 0.75155 0.22414 0.35964 0.0
C329 C 0.75381 0.16297 0.37517 0.0
H330 H 0.74644 0.18035 0.44759 0.0
C331 C 0.77135 0.10383 0.46037 0.0
C332 C 0.75352 0.09923 0.47765 0.0
C333 C 0.76972 0.1212 0.44214 0.0
C334 C 0.74808 0.17537 0.42735 0.0
H335 H 0.79928 0.20693 0.31206 0.0
H336 H 0.78785 0.18127 0.34602 0.0
H337 H 0.75149 0.20948 0.41387 0.0
H338 H 0.72013 0.1097 0.48967 0.0
H339 H 0.71758 0.14079 0.45787 0.0
H340 H 0.75182 0.12893 0.38873 0.0
C341 C 0.77914 0.19723 0.34449 0.0
C342 C 0.75092 0.192 0.40806 0.0
C343 C 0.78582 0.21212 0.325 0.0
C344 C 0.7341 0.11278 0.47655 0.0
C345 C 0.73267 0.13058 0.45851 0.0
C346 C 0.75126 0.14648 0.39436 0.0
C347 C 0.76167 0.20276 0.36181 0.0
C348 C 0.75464 0.1859 0.38185 0.0
C349 C 0.7504 0.13471 0.44097 0.0
C350 C 0.74902 0.15247 0.42068 0.0
H351 H 0.75007 0.25544 0.33832 0.0
H352 H 0.7381 0.22896 0.37279 0.0
H353 H 0.75601 0.15766 0.35511 0.0
H354 H 0.78651 0.09371 0.46059 0.0
H355 H 0.78364 0.12411 0.42886 0.0
C356 C 0.81867 0.7881 0.33863 0.0
C357 C 0.81978 0.76965 0.32149 0.0
C358 C 0.83417 0.79028 0.35895 0.0
C359 C 0.87499 0.75925 0.39914 0.0
H360 H 0.90761 0.81565 0.40175 0.0
C361 C 0.95938 0.76527 0.45146 0.0
C362 C 0.96492 0.7848 0.4654 0.0
C363 C 0.94032 0.76455 0.43577 0.0
C364 C 0.89843 0.79994 0.40166 0.0
H365 H 0.83728 0.73848 0.31314 0.0
H366 H 0.86401 0.74205 0.34899 0.0
H367 H 0.87578 0.81165 0.37208 0.0
H368 H 0.95493 0.81915 0.47338 0.0
H369 H 0.92109 0.81782 0.44612 0.0
H370 H 0.89741 0.74746 0.42865 0.0
C371 C 0.85124 0.7549 0.34655 0.0
C372 C 0.88021 0.79764 0.38462 0.0
C373 C 0.83596 0.75286 0.326 0.0
C374 C 0.95111 0.80387 0.46284 0.0
C375 C 0.93176 0.80309 0.4472 0.0
C376 C 0.89299 0.76161 0.41635 0.0
C377 C 0.85086 0.7739 0.36283 0.0
C378 C 0.86862 0.7771 0.3828 0.0
C379 C 0.926 0.78327 0.43373 0.0
C380 C 0.90534 0.78179 0.41737 0.0
H381 H 0.80649 0.80141 0.33566 0.0
H382 H 0.83335 0.80499 0.37135 0.0
H383 H 0.86614 0.74335 0.39845 0.0
H384 H 0.96982 0.75035 0.45263 0.0
H385 H 0.93691 0.74924 0.4251 0.0
C386 C 0.26618 0.84456 0.34117 0.0
C387 C 0.28294 0.83082 0.33027 0.0
C388 C 0.27118 0.85938 0.36128 0.0
C389 C 0.31137 0.87488 0.41258 0.0
H390 H 0.28358 0.93335 0.4026 0.0
C391 C 0.3216 0.95419 0.48091 0.0
C392 C 0.30082 0.96379 0.48808 0.0
C393 C 0.32254 0.93697 0.4622 0.0
C394 C 0.29149 0.91713 0.40566 0.0
H395 H 0.31792 0.82091 0.33293 0.0
H396 H 0.32685 0.8473 0.3684 0.0
H397 H 0.27969 0.90471 0.36917 0.0
H398 H 0.26477 0.96236 0.48164 0.0
H399 H 0.26654 0.93285 0.44911 0.0
H400 H 0.32298 0.88766 0.44944 0.0
C401 C 0.30977 0.84642 0.36123 0.0
C402 C 0.2892 0.90067 0.38657 0.0
C403 C 0.30467 0.83132 0.34099 0.0
C404 C 0.28109 0.95549 0.47658 0.0
C405 C 0.28207 0.9386 0.45783 0.0
C406 C 0.31379 0.89155 0.43178 0.0
C407 C 0.29317 0.86111 0.37097 0.0
C408 C 0.29843 0.87911 0.39013 0.0
C409 C 0.30277 0.92936 0.45015 0.0
C410 C 0.30326 0.91258 0.42877 0.0
H411 H 0.24916 0.8443 0.33366 0.0
H412 H 0.25783 0.86994 0.36888 0.0
H413 H 0.31874 0.85846 0.41582 0.0
H414 H 0.33709 0.96015 0.48948 0.0
H415 H 0.33871 0.9301 0.45658 0.0
C416 C 0.216 0.75052 0.66683 0.0
C417 C 0.22493 0.76626 0.68439 0.0
C418 C 0.19899 0.75666 0.64946 0.0
C419 C 0.1532 0.79731 0.63964 0.0
H420 H 0.15437 0.77353 0.56926 0.0
C421 C 0.08009 0.80989 0.56465 0.0
C422 C 0.07333 0.78961 0.55302 0.0
C423 C 0.10005 0.8108 0.57927 0.0
C424 C 0.15381 0.78035 0.58884 0.0
H425 H 0.22303 0.8011 0.69691 0.0
H426 H 0.1931 0.81164 0.66682 0.0
H427 H 0.1866 0.76774 0.59773 0.0
H428 H 0.08249 0.75459 0.54715 0.0
H429 H 0.11677 0.75624 0.57222 0.0
H430 H 0.12001 0.80931 0.63084 0.0
C431 C 0.19924 0.79449 0.66671 0.0
C432 C 0.17224 0.77696 0.60517 0.0
C433 C 0.21638 0.78838 0.68402 0.0
C434 C 0.08707 0.7705 0.55589 0.0
C435 C 0.10691 0.77147 0.57011 0.0
C436 C 0.13467 0.80068 0.62324 0.0
C437 C 0.19038 0.77869 0.64921 0.0
C438 C 0.1719 0.78481 0.63101 0.0
C439 C 0.11367 0.79155 0.58204 0.0
C440 C 0.13453 0.79161 0.59793 0.0
H441 H 0.22181 0.73328 0.66676 0.0
H442 H 0.19224 0.74396 0.63656 0.0
H443 H 0.15241 0.80352 0.65948 0.0
H444 H 0.06985 0.82488 0.56281 0.0
H445 H 0.10488 0.82652 0.58828 0.0
C446 C 0.33365 0.23487 0.66262 0.0
C447 C 0.32505 0.2374 0.68802 0.0
C448 C 0.33207 0.21422 0.64969 0.0
C449 C 0.3007 0.16011 0.65157 0.0
H450 H 0.3474 0.14082 0.60363 0.0
C451 C 0.2874 0.08513 0.58256 0.0
C452 C 0.30567 0.07089 0.57697 0.0
C453 C 0.29051 0.10502 0.59652 0.0
C454 C 0.33431 0.14578 0.61717 0.0
H455 H 0.30878 0.22003 0.7201 0.0
H456 H 0.30647 0.18394 0.69793 0.0
H457 H 0.35191 0.17577 0.62771 0.0
H458 H 0.34158 0.0664 0.58184 0.0
H459 H 0.34696 0.10089 0.60688 0.0
H460 H 0.28344 0.12982 0.64176 0.0
C461 C 0.31383 0.19803 0.68758 0.0
C462 C 0.33674 0.16605 0.63073 0.0
C463 C 0.31518 0.21873 0.70036 0.0
C464 C 0.32716 0.07703 0.58575 0.0
C465 C 0.33025 0.09689 0.59998 0.0
C466 C 0.29837 0.13978 0.63821 0.0
C467 C 0.32208 0.1955 0.66196 0.0
C468 C 0.31989 0.17359 0.64799 0.0
C469 C 0.31194 0.11116 0.60557 0.0
C470 C 0.31502 0.13242 0.62062 0.0
H471 H 0.34114 0.24901 0.65252 0.0
H472 H 0.33828 0.21311 0.62985 0.0
H473 H 0.28721 0.16539 0.66439 0.0
H474 H 0.27064 0.08107 0.57589 0.0
H475 H 0.27607 0.11575 0.59987 0.0
C476 C 0.83401 0.26535 0.68841 0.0
C477 C 0.82316 0.28627 0.6911 0.0
C478 C 0.85393 0.26343 0.67396 0.0
C479 C 0.9021 0.29713 0.65179 0.0
H480 H 0.91313 0.24805 0.60368 0.0
C481 C 0.97678 0.29885 0.58093 0.0
C482 C 0.98851 0.27884 0.57546 0.0
C483 C 0.95692 0.29853 0.59544 0.0
C484 C 0.91046 0.26167 0.61733 0.0
H485 H 0.82458 0.32148 0.6803 0.0
H486 H 0.85931 0.31815 0.65502 0.0
H487 H 0.87745 0.24996 0.62747 0.0
H488 H 0.98838 0.2427 0.58105 0.0
H489 H 0.95363 0.24217 0.60695 0.0
H490 H 0.93502 0.3088 0.64203 0.0
C491 C 0.85246 0.30325 0.66425 0.0
C492 C 0.88998 0.26281 0.63088 0.0
C493 C 0.83243 0.30513 0.67851 0.0
C494 C 0.97978 0.25841 0.58494 0.0
C495 C 0.9598 0.25811 0.59964 0.0
C496 C 0.92257 0.29592 0.63843 0.0
C497 C 0.86357 0.28242 0.66204 0.0
C498 C 0.88546 0.28073 0.64801 0.0
C499 C 0.94817 0.27823 0.60514 0.0
C500 C 0.92693 0.27837 0.62071 0.0
H501 H 0.82715 0.25043 0.69757 0.0
H502 H 0.86209 0.24717 0.67272 0.0
H503 H 0.89937 0.31086 0.66529 0.0
H504 H 0.98281 0.31492 0.5738 0.0
H505 H 0.94824 0.3143 0.59871 0.0
C506 C 0.76163 0.83732 0.67627 0.0
C507 C 0.74135 0.8273 0.68431 0.0
C508 C 0.7616 0.85754 0.6623 0.0
C509 C 0.72635 0.89492 0.62157 0.0
H510 H 0.77063 0.93961 0.64093 0.0
C511 C 0.72929 0.9845 0.57516 0.0
C512 C 0.7508 0.99273 0.56886 0.0
C513 C 0.72683 0.9647 0.58986 0.0
C514 C 0.75827 0.92726 0.63508 0.0
H515 H 0.70504 0.83072 0.6834 0.0
H516 H 0.70501 0.86596 0.65884 0.0
H517 H 0.76887 0.90417 0.66467 0.0
H518 H 0.78658 0.98646 0.57312 0.0
H519 H 0.78229 0.95215 0.59832 0.0
H520 H 0.71592 0.91805 0.59175 0.0
C521 C 0.72095 0.85804 0.66329 0.0
C522 C 0.75728 0.90691 0.64871 0.0
C523 C 0.72098 0.83778 0.67736 0.0
C524 C 0.76973 0.98074 0.57767 0.0
C525 C 0.76728 0.96107 0.59231 0.0
C526 C 0.72738 0.91533 0.60785 0.0
C527 C 0.74129 0.86831 0.65589 0.0
C528 C 0.74151 0.89034 0.64194 0.0
C529 C 0.74583 0.95276 0.59866 0.0
C530 C 0.74357 0.93164 0.61422 0.0
H531 H 0.77762 0.82954 0.68072 0.0
H532 H 0.77756 0.86471 0.65641 0.0
H533 H 0.71409 0.88248 0.61574 0.0
H534 H 0.71436 0.9933 0.56868 0.0
H535 H 0.71006 0.95887 0.59457 0.0
C536 C 0.83592 0.7409 0.69977 0.0
C537 C 0.82973 0.75965 0.71484 0.0
C538 C 0.85667 0.74011 0.68708 0.0
C539 C 0.89866 0.77685 0.65791 0.0
H540 H 0.93329 0.72177 0.65166 0.0
C541 C 0.97667 0.77282 0.59152 0.0
C542 C 0.97934 0.7535 0.57603 0.0
C543 C 0.96107 0.77326 0.61193 0.0
C544 C 0.92374 0.73724 0.65302 0.0
H545 H 0.84076 0.79205 0.72909 0.0
H546 H 0.87725 0.79085 0.70639 0.0
H547 H 0.90159 0.72347 0.68199 0.0
H548 H 0.96822 0.7192 0.57041 0.0
H549 H 0.94047 0.72008 0.60573 0.0
H550 H 0.92009 0.79042 0.6283 0.0
C551 C 0.86589 0.77673 0.70454 0.0
C552 C 0.90564 0.73825 0.67052 0.0
C553 C 0.84511 0.77738 0.71763 0.0
C554 C 0.9666 0.7343 0.58205 0.0
C555 C 0.95075 0.73482 0.60238 0.0
C556 C 0.91665 0.77581 0.6403 0.0
C557 C 0.87176 0.75815 0.68888 0.0
C558 C 0.89268 0.75796 0.67287 0.0
C559 C 0.94748 0.75448 0.61727 0.0
C560 C 0.92926 0.75589 0.63733 0.0
H561 H 0.82451 0.72688 0.69735 0.0
H562 H 0.8605 0.72569 0.67497 0.0
H563 H 0.88881 0.79216 0.65894 0.0
H564 H 0.98644 0.78782 0.58765 0.0
H565 H 0.95949 0.78849 0.62333 0.0
C566 C 0.29782 0.85374 0.74351 0.0
C567 C 0.28085 0.83823 0.74981 0.0
C568 C 0.29283 0.87332 0.72956 0.0
C569 C 0.25226 0.89417 0.68146 0.0
H570 H 0.28531 0.94982 0.6899 0.0
C571 C 0.24529 0.96826 0.60762 0.0
C572 C 0.26605 0.97728 0.59959 0.0
C573 C 0.24412 0.9535 0.62898 0.0
C574 C 0.27596 0.93438 0.68726 0.0
H575 H 0.24506 0.83169 0.74753 0.0
H576 H 0.23627 0.86606 0.72323 0.0
H577 H 0.28815 0.92051 0.72314 0.0
H578 H 0.30174 0.97823 0.60814 0.0
H579 H 0.29969 0.95266 0.64512 0.0
H580 H 0.24057 0.90784 0.64521 0.0
C581 C 0.25351 0.86294 0.72893 0.0
C582 C 0.27757 0.91759 0.70632 0.0
C583 C 0.25851 0.84336 0.7431 0.0
C584 C 0.28547 0.9716 0.61373 0.0
C585 C 0.28427 0.95704 0.63512 0.0
C586 C 0.25061 0.91102 0.6624 0.0
C587 C 0.27072 0.87786 0.72142 0.0
C588 C 0.26624 0.89702 0.70332 0.0
C589 C 0.26364 0.94766 0.64291 0.0
C590 C 0.26293 0.93107 0.66473 0.0
H591 H 0.3152 0.8503 0.74839 0.0
H592 H 0.30656 0.88426 0.72393 0.0
H593 H 0.2435 0.87846 0.67834 0.0
H594 H 0.23001 0.97229 0.59715 0.0
H595 H 0.22795 0.94664 0.63458 0.0
C596 C 0.22779 0.30314 0.71693 0.0
C597 C 0.24347 0.32058 0.71379 0.0
C598 C 0.20694 0.30412 0.70421 0.0
C599 C 0.17999 0.33239 0.64746 0.0
H600 H 0.12526 0.30643 0.67549 0.0
C601 C 0.09624 0.33789 0.59143 0.0
C602 C 0.08486 0.31735 0.5887 0.0
C603 C 0.11384 0.33999 0.60937 0.0
C604 C 0.14044 0.31374 0.66742 0.0
H605 H 0.24907 0.35335 0.69631 0.0
H606 H 0.2127 0.35547 0.67511 0.0
H607 H 0.15931 0.30681 0.70211 0.0
H608 H 0.08225 0.28327 0.60368 0.0
H609 H 0.11276 0.28701 0.63496 0.0
H610 H 0.16119 0.33927 0.61281 0.0
C611 C 0.21663 0.3406 0.68646 0.0
C612 C 0.15999 0.31386 0.68262 0.0
C613 C 0.23748 0.33947 0.69881 0.0
C614 C 0.09073 0.29932 0.60519 0.0
C615 C 0.10815 0.30148 0.62326 0.0
C616 C 0.16045 0.33244 0.63242 0.0
C617 C 0.20129 0.3227 0.68836 0.0
C618 C 0.18009 0.32309 0.67278 0.0
C619 C 0.12026 0.32166 0.62514 0.0
C620 C 0.14048 0.32298 0.64211 0.0
H621 H 0.23198 0.28834 0.72829 0.0
H622 H 0.19565 0.28994 0.70602 0.0
H623 H 0.1952 0.33917 0.63888 0.0
H624 H 0.09214 0.3521 0.57905 0.0
H625 H 0.12272 0.35584 0.61058 0.0
C626 C 0.76989 0.18278 0.7561 0.0
C627 C 0.78272 0.20248 0.75856 0.0
C628 C 0.77603 0.1661 0.73828 0.0
C629 C 0.80755 0.16012 0.67635 0.0
H630 H 0.78977 0.09777 0.68429 0.0
C631 C 0.81446 0.09396 0.59273 0.0
C632 C 0.79414 0.08262 0.58803 0.0
C633 C 0.81708 0.10708 0.61526 0.0
C634 C 0.7949 0.11512 0.68183 0.0
H635 H 0.8132 0.2192 0.74561 0.0
H636 H 0.82427 0.18978 0.71502 0.0
H637 H 0.7885 0.12277 0.72193 0.0
H638 H 0.76092 0.07565 0.60364 0.0
H639 H 0.76566 0.09808 0.64294 0.0
H640 H 0.81377 0.15231 0.6361 0.0
C641 C 0.80906 0.18751 0.72637 0.0
C642 C 0.79409 0.12951 0.70337 0.0
C643 C 0.80284 0.20429 0.74417 0.0
C644 C 0.77675 0.08425 0.60658 0.0
C645 C 0.77952 0.09696 0.62922 0.0
C646 C 0.80863 0.14562 0.65487 0.0
C647 C 0.79532 0.16854 0.72253 0.0
C648 C 0.79971 0.1524 0.70077 0.0
C649 C 0.79961 0.10867 0.63374 0.0
C650 C 0.80168 0.12315 0.65722 0.0
H651 H 0.75432 0.18075 0.76686 0.0
H652 H 0.76484 0.15194 0.73583 0.0
H653 H 0.81176 0.17765 0.67339 0.0
H654 H 0.82815 0.09306 0.57878 0.0
H655 H 0.83276 0.11592 0.61828 0.0
C656 C 0.89273 0.27142 0.31096 0.0
C657 C 0.87446 0.28601 0.30701 0.0
C658 C 0.90956 0.27676 0.32892 0.0
C659 C 0.92034 0.3125 0.3869 0.0
H660 H 0.98208 0.29439 0.37454 0.0
C661 C 0.99228 0.33019 0.46075 0.0
C662 C 1.00512 0.31106 0.46697 0.0
C663 C 0.97742 0.32982 0.43952 0.0
C664 C 0.9649 0.29957 0.37826 0.0
H665 H 0.86 0.31807 0.31813 0.0
H666 H 0.88947 0.32758 0.34913 0.0
H667 H 0.95404 0.28867 0.3406 0.0
H668 H 0.0131 0.27692 0.45523 0.0
H669 H 0.98758 0.27644 0.41829 0.0
H670 H 0.93133 0.3233 0.42467 0.0
C671 C 0.89055 0.31172 0.33887 0.0
C672 C 0.94878 0.29617 0.35886 0.0
C673 C 0.87364 0.30628 0.32106 0.0
C674 C 1.00338 0.29192 0.45106 0.0
C675 C 0.98886 0.29168 0.42974 0.0
C676 C 0.93653 0.31606 0.40622 0.0
C677 C 0.90865 0.29694 0.34323 0.0
C678 C 0.92618 0.30218 0.3631 0.0
C679 C 0.97548 0.31048 0.4239 0.0
C680 C 0.95889 0.30922 0.4023 0.0
H681 H 0.89371 0.25557 0.30069 0.0
H682 H 0.92299 0.26475 0.33205 0.0
H683 H 0.90308 0.31711 0.39105 0.0
H684 H 0.99322 0.34515 0.4727 0.0
H685 H 0.96737 0.34461 0.43539 0.0
C686 C 0.81046 0.89082 0.3004 0.0
C687 C 0.79166 0.87675 0.2977 0.0
C688 C 0.81122 0.90694 0.32031 0.0
C689 C 0.7842 0.9206 0.38407 0.0
H690 H 0.81233 0.97881 0.3743 0.0
C691 C 0.77081 0.9935 0.45584 0.0
C692 C 0.7899 1.00538 0.46418 0.0
C693 C 0.77229 0.97805 0.43544 0.0
C694 C 0.80462 0.96253 0.37736 0.0
H695 H 0.7585 0.86927 0.31286 0.0
H696 H 0.75943 0.89765 0.34696 0.0
H697 H 0.81206 0.95179 0.33838 0.0
H698 H 0.8255 0.01057 0.4572 0.0
H699 H 0.82797 0.98365 0.42106 0.0
H700 H 0.77626 0.93157 0.42279 0.0
C701 C 0.77399 0.89583 0.33441 0.0
C702 C 0.80448 0.947 0.3568 0.0
C703 C 0.77336 0.87961 0.31475 0.0
C704 C 0.81049 1.00165 0.45129 0.0
C705 C 0.8119 0.98634 0.43055 0.0
C706 C 0.78413 0.93617 0.40444 0.0
C707 C 0.79308 0.90947 0.3378 0.0
C708 C 0.79404 0.92589 0.3598 0.0
C709 C 0.79283 0.97422 0.42261 0.0
C710 C 0.79413 0.95738 0.40125 0.0
H711 H 0.82491 0.88885 0.2877 0.0
H712 H 0.82629 0.91694 0.32241 0.0
H713 H 0.77655 0.90433 0.38746 0.0
H714 H 0.75468 0.99591 0.4653 0.0
H715 H 0.75725 0.96916 0.42957 0.0
C716 C 0.17417 0.78447 0.29863 0.0
C717 C 0.19471 0.77278 0.29866 0.0
C718 C 0.15695 0.77854 0.31597 0.0
C719 C 0.1468 0.74842 0.37854 0.0
H720 H 0.0844 0.75548 0.35841 0.0
C721 C 0.07256 0.73023 0.44971 0.0
C722 C 0.05734 0.74825 0.45165 0.0
C723 C 0.08852 0.72969 0.42946 0.0
C724 C 0.10176 0.75338 0.3643 0.0
H725 H 0.21295 0.74517 0.31644 0.0
H726 H 0.18281 0.73454 0.34641 0.0
H727 H 0.114 0.76121 0.32606 0.0
H728 H 0.04614 0.77918 0.43328 0.0
H729 H 0.0735 0.77799 0.39792 0.0
H730 H 0.13439 0.74071 0.41688 0.0
C731 C 0.18016 0.74867 0.3334 0.0
C732 C 0.11876 0.7568 0.3458 0.0
C733 C 0.19746 0.75474 0.31618 0.0
C734 C 0.0577 0.7651 0.43236 0.0
C735 C 0.0733 0.76436 0.412 0.0
C736 C 0.12975 0.74479 0.39699 0.0
C737 C 0.15971 0.76059 0.33367 0.0
C738 C 0.14155 0.75489 0.35279 0.0
C739 C 0.08918 0.74691 0.41055 0.0
C740 C 0.10707 0.74772 0.39021 0.0
H741 H 0.17161 0.79865 0.28569 0.0
H742 H 0.14166 0.78844 0.3159 0.0
H743 H 0.16411 0.74703 0.3848 0.0
H744 H 0.07274 0.71709 0.46438 0.0
H745 H 0.10051 0.71598 0.42875 0.0
C746 C 0.26124 0.16767 0.312 0.0
C747 C 0.24179 0.1691 0.2966 0.0
C748 C 0.26262 0.15218 0.33247 0.0
C749 C 0.22846 0.12051 0.37906 0.0
H750 H 0.28266 0.08511 0.38816 0.0
C751 C 0.23869 0.05583 0.46362 0.0
C752 C 0.2601 0.0541 0.47501 0.0
C753 C 0.23545 0.06877 0.44102 0.0
C754 C 0.2675 0.09506 0.38616 0.0
H755 H 0.2085 0.15542 0.29057 0.0
H756 H 0.21078 0.12835 0.32675 0.0
H757 H 0.27894 0.10947 0.35015 0.0
H758 H 0.29475 0.06512 0.47195 0.0
H759 H 0.28905 0.08806 0.43331 0.0
H760 H 0.21729 0.10669 0.4155 0.0
C761 C 0.22499 0.13923 0.32281 0.0
C762 C 0.26535 0.10893 0.36426 0.0
C763 C 0.22375 0.15456 0.30202 0.0
C764 C 0.27808 0.06587 0.46356 0.0
C765 C 0.27482 0.07894 0.4412 0.0
C766 C 0.23071 0.10679 0.40118 0.0
C767 C 0.24446 0.1379 0.33824 0.0
C768 C 0.24593 0.122 0.3606 0.0
C769 C 0.25353 0.08041 0.42942 0.0
C770 C 0.25041 0.09409 0.4052 0.0
H771 H 0.27547 0.17852 0.30815 0.0
H772 H 0.27777 0.15168 0.34413 0.0
H773 H 0.21338 0.13055 0.37685 0.0
H774 H 0.2245 0.04689 0.47191 0.0
H775 H 0.21887 0.06931 0.4324 0.0
C776 C 0.73075 0.80827 0.82781 0.0
C777 C 0.73304 0.78516 0.82286 0.0
C778 C 0.71761 0.81571 0.84897 0.0
C779 C 0.69159 0.79687 0.91112 0.0
H780 H 0.64153 0.83566 0.89297 0.0
C781 C 0.60809 0.79237 0.96577 0.0
C782 C 0.59566 0.81201 0.97086 0.0
C783 C 0.62746 0.79308 0.95039 0.0
C784 C 0.65564 0.8252 0.89858 0.0
H785 H 0.72456 0.75177 0.83657 0.0
H786 H 0.70245 0.76458 0.8737 0.0
H787 H 0.67235 0.83022 0.86182 0.0
H788 H 0.59399 0.84792 0.96364 0.0
H789 H 0.62803 0.84913 0.93644 0.0
H790 H 0.67469 0.79118 0.94744 0.0
C791 C 0.71052 0.77704 0.86139 0.0
C792 C 0.67331 0.82211 0.88074 0.0
C793 C 0.72314 0.76968 0.84009 0.0
C794 C 0.60317 0.83248 0.96011 0.0
C795 C 0.62262 0.83317 0.94448 0.0
C796 C 0.67405 0.80001 0.92893 0.0
C797 C 0.7071 0.8001 0.86574 0.0
C798 C 0.69105 0.80725 0.88647 0.0
C799 C 0.63504 0.81344 0.93955 0.0
C800 C 0.65541 0.8135 0.92249 0.0
H801 H 0.73799 0.82051 0.81455 0.0
H802 H 0.71524 0.83359 0.85189 0.0
H803 H 0.7052 0.78558 0.91624 0.0
H804 H 0.60287 0.77627 0.97363 0.0
H805 H 0.63628 0.77748 0.94658 0.0
C806 C 0.25683 0.69554 0.81831 0.0
C807 C 0.25852 0.71899 0.82103 0.0
C808 C 0.25305 0.68179 0.84 0.0
C809 C 0.26225 0.6799 0.91061 0.0
H810 H 0.22664 0.62548 0.90592 0.0
C811 C 0.23654 0.59621 0.97647 0.0
C812 C 0.25796 0.59046 0.98597 0.0
C813 C 0.23392 0.61391 0.9586 0.0
C814 C 0.23642 0.64074 0.90776 0.0
H815 H 0.25682 0.74648 0.84866 0.0
H816 H 0.25021 0.72232 0.88681 0.0
H817 H 0.22549 0.65296 0.87054 0.0
H818 H 0.29333 0.59925 0.98456 0.0
H819 H 0.28878 0.62987 0.95344 0.0
H820 H 0.27341 0.66752 0.9477 0.0
C821 C 0.25194 0.71463 0.86777 0.0
C822 C 0.23592 0.6564 0.88735 0.0
C823 C 0.25556 0.72847 0.84592 0.0
C824 C 0.27658 0.60317 0.97767 0.0
C825 C 0.27395 0.62088 0.95993 0.0
C826 C 0.26281 0.66419 0.931 0.0
C827 C 0.25095 0.69108 0.86508 0.0
C828 C 0.2492 0.67595 0.88825 0.0
C829 C 0.25263 0.62635 0.94994 0.0
C830 C 0.25026 0.64418 0.9296 0.0
H831 H 0.25898 0.68766 0.79942 0.0
H832 H 0.25267 0.66375 0.83719 0.0
H833 H 0.2728 0.69468 0.91189 0.0
H834 H 0.22181 0.58682 0.98249 0.0
H835 H 0.21723 0.6178 0.9515 0.0
C836 C 0.33061 0.29482 0.83705 0.0
C837 C 0.33264 0.27637 0.82005 0.0
C838 C 0.3434 0.29582 0.85993 0.0
C839 C 0.37649 0.26194 0.90633 0.0
H840 H 0.41423 0.31477 0.91276 0.0
C841 C 0.45675 0.25981 0.96731 0.0
C842 C 0.46373 0.27896 0.98111 0.0
C843 C 0.43855 0.2608 0.95028 0.0
C844 C 0.40354 0.30009 0.91165 0.0
H845 H 0.34861 0.24396 0.8145 0.0
H846 H 0.37035 0.24538 0.85481 0.0
H847 H 0.38511 0.31362 0.87927 0.0
H848 H 0.45699 0.31432 0.98767 0.0
H849 H 0.42469 0.31601 0.95806 0.0
H850 H 0.39473 0.24831 0.93855 0.0
C851 C 0.35907 0.25917 0.85032 0.0
C852 C 0.38687 0.29943 0.89241 0.0
C853 C 0.34664 0.25835 0.82722 0.0
C854 C 0.45206 0.29928 0.97729 0.0
C855 C 0.43359 0.30023 0.96027 0.0
C856 C 0.39292 0.2627 0.92574 0.0
C857 C 0.35808 0.27819 0.86653 0.0
C858 C 0.37357 0.2801 0.88912 0.0
C859 C 0.42653 0.28092 0.94665 0.0
C860 C 0.40715 0.2815 0.92818 0.0
H861 H 0.32012 0.30907 0.83199 0.0
H862 H 0.3422 0.31061 0.87217 0.0
H863 H 0.36627 0.24697 0.90449 0.0
H864 H 0.46547 0.24391 0.96946 0.0
H865 H 0.43415 0.24573 0.93964 0.0
C866 C 0.74506 0.3401 0.82518 0.0
C867 C 0.76275 0.32453 0.82272 0.0
C868 C 0.74519 0.35633 0.84477 0.0
C869 C 0.77166 0.37201 0.90786 0.0
H870 H 0.74829 0.43098 0.8899 0.0
C871 C 0.78389 0.45115 0.97208 0.0
C872 C 0.76573 0.4662 0.9747 0.0
C873 C 0.78264 0.43281 0.95515 0.0
C874 C 0.75459 0.41453 0.89536 0.0
H875 H 0.79436 0.31361 0.83937 0.0
H876 H 0.79495 0.34251 0.87348 0.0
H877 H 0.74898 0.40146 0.85715 0.0
H878 H 0.73178 0.47339 0.96195 0.0
H879 H 0.72964 0.44132 0.93206 0.0
H880 H 0.77778 0.3855 0.94598 0.0
C881 C 0.78074 0.34188 0.86035 0.0
C882 C 0.755 0.39753 0.87655 0.0
C883 C 0.78049 0.32537 0.84074 0.0
C884 C 0.74604 0.46212 0.96041 0.0
C885 C 0.74488 0.44385 0.94317 0.0
C886 C 0.77143 0.38913 0.92663 0.0
C887 C 0.76315 0.35775 0.86243 0.0
C888 C 0.76341 0.37596 0.88253 0.0
C889 C 0.76328 0.42911 0.94016 0.0
C890 C 0.76281 0.41058 0.92062 0.0
H891 H 0.73091 0.33978 0.81192 0.0
H892 H 0.73103 0.36774 0.84609 0.0
H893 H 0.77799 0.35559 0.91334 0.0
H894 H 0.7993 0.45371 0.98286 0.0
H895 H 0.79717 0.42194 0.95316 0.0
C896 C 0.7217 0.25017 0.18086 0.0
C897 C 0.7331 0.26893 0.19088 0.0
C898 C 0.70153 0.25284 0.16724 0.0
C899 C 0.66732 0.29346 0.13001 0.0
H900 H 0.61896 0.2521 0.14642 0.0
C901 C 0.57873 0.2986 0.08114 0.0
C902 C 0.56935 0.27783 0.07392 0.0
C903 C 0.59825 0.29936 0.09653 0.0
C904 C 0.63233 0.26369 0.1414 0.0
H905 H 0.73253 0.3053 0.19366 0.0
H906 H 0.69725 0.30995 0.1698 0.0
H907 H 0.65416 0.24969 0.17032 0.0
H908 H 0.57335 0.2416 0.07714 0.0
H909 H 0.60705 0.24296 0.10329 0.0
H910 H 0.64554 0.30715 0.10066 0.0
C911 C 0.70394 0.29317 0.17258 0.0
C912 C 0.65253 0.26229 0.15513 0.0
C913 C 0.72405 0.29049 0.18643 0.0
C914 C 0.57991 0.25795 0.08241 0.0
C915 C 0.59926 0.25871 0.09765 0.0
C916 C 0.64708 0.29478 0.1161 0.0
C917 C 0.6923 0.27434 0.16311 0.0
C918 C 0.67042 0.27689 0.14934 0.0
C919 C 0.60869 0.27936 0.10505 0.0
C920 C 0.62947 0.27962 0.12131 0.0
H921 H 0.72805 0.23334 0.18409 0.0
H922 H 0.69313 0.238 0.15991 0.0
H923 H 0.68082 0.30492 0.12504 0.0
H924 H 0.57105 0.31423 0.07491 0.0
H925 H 0.605 0.31557 0.10199 0.0
C926 C 0.80927 0.7232 0.17176 0.0
C927 C 0.79165 0.73512 0.18382 0.0
C928 C 0.80479 0.70509 0.15523 0.0
C929 C 0.76168 0.66264 0.13921 0.0
H930 H 0.7979 0.65519 0.07679 0.0
C931 C 0.7502 0.58812 0.06582 0.0
C932 C 0.77042 0.57794 0.05774 0.0
C933 C 0.75055 0.60832 0.08005 0.0
C934 C 0.78768 0.65695 0.09421 0.0
H935 H 0.75532 0.73728 0.18735 0.0
H936 H 0.74758 0.70558 0.15868 0.0
H937 H 0.80295 0.68838 0.10383 0.0
H938 H 0.80681 0.58113 0.05842 0.0
H939 H 0.80732 0.61577 0.08296 0.0
H940 H 0.7467 0.63088 0.12967 0.0
C941 C 0.7649 0.71017 0.1623 0.0
C942 C 0.79062 0.67598 0.10975 0.0
C943 C 0.76938 0.72837 0.1788 0.0
C944 C 0.79085 0.58842 0.06417 0.0
C945 C 0.79118 0.60848 0.07814 0.0
C946 C 0.75875 0.64351 0.12361 0.0
C947 C 0.78256 0.69832 0.15027 0.0
C948 C 0.77801 0.67887 0.13274 0.0
C949 C 0.7711 0.61879 0.0862 0.0
C950 C 0.77209 0.6402 0.10123 0.0
H951 H 0.82662 0.72757 0.17542 0.0
H952 H 0.81883 0.6961 0.14667 0.0
H953 H 0.75175 0.66428 0.15685 0.0
H954 H 0.73418 0.58048 0.06123 0.0
H955 H 0.73476 0.61588 0.08595 0.0
C956 C 0.33928 0.84299 0.18163 0.0
C957 C 0.33124 0.82207 0.19052 0.0
C958 C 0.35763 0.84415 0.16444 0.0
C959 C 0.38964 0.80978 0.11688 0.0
H960 H 0.43796 0.85216 0.12903 0.0
C961 C 0.47629 0.79829 0.06989 0.0
C962 C 0.48763 0.8172 0.05991 0.0
C963 C 0.45669 0.80074 0.08463 0.0
C964 C 0.42446 0.84045 0.12514 0.0
H965 H 0.33593 0.78599 0.18772 0.0
H966 H 0.36791 0.78798 0.15819 0.0
H967 H 0.40441 0.85305 0.15679 0.0
H968 H 0.48729 0.85363 0.05797 0.0
H969 H 0.4528 0.85791 0.08388 0.0
H970 H 0.40967 0.79695 0.08555 0.0
C971 C 0.36002 0.80353 0.16435 0.0
C972 C 0.40524 0.84096 0.14105 0.0
C973 C 0.34182 0.80238 0.18158 0.0
C974 C 0.47896 0.83872 0.06536 0.0
C975 C 0.45927 0.84117 0.08026 0.0
C976 C 0.40878 0.80928 0.10105 0.0
C977 C 0.36819 0.8244 0.15556 0.0
C978 C 0.38779 0.82531 0.13741 0.0
C979 C 0.44779 0.82216 0.08985 0.0
C980 C 0.42664 0.82429 0.10529 0.0
H981 H 0.33161 0.85847 0.18828 0.0
H982 H 0.36341 0.86048 0.15791 0.0
H983 H 0.37631 0.79783 0.11315 0.0
H984 H 0.48247 0.78144 0.06627 0.0
H985 H 0.44858 0.78575 0.09213 0.0
C986 C 0.23074 0.31572 0.15472 0.0
C987 C 0.23713 0.31322 0.18097 0.0
C988 C 0.23278 0.33652 0.14206 0.0
C989 C 0.26197 0.39166 0.1471 0.0
H990 H 0.21782 0.41014 0.09582 0.0
C991 C 0.27633 0.46854 0.08005 0.0
C992 C 0.25779 0.48209 0.07348 0.0
C993 C 0.27336 0.44832 0.09363 0.0
C994 C 0.2302 0.40539 0.11029 0.0
H995 H 0.2501 0.33088 0.21465 0.0
H996 H 0.25334 0.36715 0.19282 0.0
H997 H 0.21308 0.37461 0.1189 0.0
H998 H 0.22154 0.48504 0.07637 0.0
H999 H 0.21636 0.45001 0.10057 0.0
H1000 H 0.27876 0.4227 0.13906 0.0
C1001 C 0.24728 0.35293 0.18173 0.0
C1002 C 0.22764 0.3848 0.12329 0.0
C1003 C 0.2454 0.33209 0.19431 0.0
C1004 C 0.23619 0.47498 0.08103 0.0
C1005 C 0.23321 0.45479 0.09477 0.0
C1006 C 0.26446 0.41229 0.13421 0.0
C1007 C 0.2411 0.35543 0.15537 0.0
C1008 C 0.24356 0.37758 0.1418 0.0
C1009 C 0.25176 0.44113 0.10119 0.0
C1010 C 0.24869 0.4194 0.11549 0.0
H1011 H 0.22457 0.30147 0.14379 0.0
H1012 H 0.2282 0.33763 0.12166 0.0
H1013 H 0.27474 0.38663 0.16097 0.0
H1014 H 0.29321 0.47338 0.07442 0.0
H1015 H 0.28802 0.43813 0.09777 0.0
C1016 C 0.32527 0.21537 0.20221 0.0
C1017 C 0.31732 0.23362 0.21701 0.0
C1018 C 0.34656 0.21596 0.1907 0.0
C1019 C 0.38734 0.25604 0.16478 0.0
H1020 H 0.42591 0.20362 0.15913 0.0
C1021 C 0.46902 0.25924 0.10451 0.0
C1022 C 0.47381 0.24063 0.08856 0.0
C1023 C 0.45229 0.25805 0.12364 0.0
C1024 C 0.41526 0.21836 0.16033 0.0
H1025 H 0.32585 0.26651 0.23213 0.0
H1026 H 0.3632 0.26763 0.21176 0.0
H1027 H 0.39262 0.20228 0.18712 0.0
H1028 H 0.46521 0.2059 0.08075 0.0
H1029 H 0.43555 0.20393 0.11376 0.0
H1030 H 0.40934 0.27192 0.13736 0.0
C1031 C 0.35281 0.25288 0.20906 0.0
C1032 C 0.39623 0.21762 0.17647 0.0
C1033 C 0.33151 0.25218 0.22086 0.0
C1034 C 0.46197 0.22051 0.09278 0.0
C1035 C 0.44502 0.21938 0.11181 0.0
C1036 C 0.40625 0.25675 0.14853 0.0
C1037 C 0.36041 0.2349 0.1935 0.0
C1038 C 0.3819 0.23637 0.17862 0.0
C1039 C 0.43968 0.23829 0.12718 0.0
C1040 C 0.42035 0.23783 0.14583 0.0
H1041 H 0.3148 0.20076 0.19895 0.0
H1042 H 0.35177 0.20193 0.17865 0.0
H1043 H 0.37646 0.27065 0.16564 0.0
H1044 H 0.47801 0.27493 0.102 0.0
H1045 H 0.44906 0.27278 0.13548 0.0
C1046 C 0.7802 0.35919 0.23597 0.0
C1047 C 0.80048 0.34721 0.2378 0.0
C1048 C 0.77937 0.37953 0.22201 0.0
C1049 C 0.81522 0.42331 0.18965 0.0
H1050 H 0.76745 0.42437 0.13843 0.0
C1051 C 0.82056 0.47396 0.09275 0.0
C1052 C 0.80069 0.48385 0.08336 0.0
C1053 C 0.82007 0.46012 0.11498 0.0
C1054 C 0.78073 0.42461 0.15283 0.0
H1055 H 0.83602 0.34782 0.22845 0.0
H1056 H 0.83466 0.383 0.20447 0.0
H1057 H 0.76673 0.39644 0.17314 0.0
H1058 H 0.76489 0.4877 0.0907 0.0
H1059 H 0.76417 0.46397 0.12927 0.0
H1060 H 0.82956 0.45112 0.16874 0.0
C1061 C 0.81937 0.37698 0.21361 0.0
C1062 C 0.78025 0.40861 0.17286 0.0
C1063 C 0.82013 0.3567 0.22726 0.0
C1064 C 0.78052 0.48016 0.09714 0.0
C1065 C 0.78005 0.46645 0.11927 0.0
C1066 C 0.81572 0.43932 0.16956 0.0
C1067 C 0.79886 0.38827 0.20996 0.0
C1068 C 0.7977 0.40747 0.19125 0.0
C1069 C 0.79971 0.45595 0.12827 0.0
C1070 C 0.79866 0.43993 0.15066 0.0
H1071 H 0.76478 0.35215 0.24377 0.0
H1072 H 0.76334 0.38797 0.2198 0.0
H1073 H 0.82881 0.42308 0.20368 0.0
H1074 H 0.83637 0.47646 0.08261 0.0
H1075 H 0.83552 0.45214 0.12126 0.0
C1076 C 0.70681 0.77554 0.23064 0.0
C1077 C 0.71266 0.79817 0.23468 0.0
C1078 C 0.6876 0.77004 0.21626 0.0
C1079 C 0.63473 0.79369 0.18905 0.0
H1080 H 0.64572 0.7528 0.13153 0.0
C1081 C 0.58501 0.79846 0.09389 0.0
C1082 C 0.57927 0.77863 0.08062 0.0
C1083 C 0.59862 0.79772 0.11599 0.0
C1084 C 0.64217 0.76391 0.14775 0.0
H1085 H 0.70228 0.83269 0.22826 0.0
H1086 H 0.66881 0.82316 0.20352 0.0
H1087 H 0.67392 0.75694 0.16569 0.0
H1088 H 0.58319 0.74237 0.08043 0.0
H1089 H 0.6072 0.7411 0.11922 0.0
H1090 H 0.60334 0.80123 0.1707 0.0
C1091 C 0.67897 0.80962 0.21137 0.0
C1092 C 0.65833 0.76627 0.16736 0.0
C1093 C 0.69824 0.81511 0.22545 0.0
C1094 C 0.58733 0.75795 0.09019 0.0
C1095 C 0.60112 0.75723 0.11234 0.0
C1096 C 0.61859 0.79131 0.1695 0.0
C1097 C 0.67374 0.78706 0.20598 0.0
C1098 C 0.65508 0.78171 0.18779 0.0
C1099 C 0.60693 0.77715 0.12545 0.0
C1100 C 0.62244 0.77694 0.14818 0.0
H1101 H 0.71767 0.7621 0.23738 0.0
H1102 H 0.6839 0.7525 0.21261 0.0
H1103 H 0.63156 0.80542 0.20478 0.0
H1104 H 0.57913 0.8147 0.08712 0.0
H1105 H 0.60309 0.81343 0.12529 0.0
C1106 C 0.29559 0.72929 0.19589 0.0
C1107 C 0.29261 0.73065 0.22303 0.0
C1108 C 0.3005 0.70883 0.184 0.0
C1109 C 0.29078 0.64902 0.19131 0.0
H1110 H 0.33084 0.64558 0.13156 0.0
C1111 C 0.27852 0.58632 0.10697 0.0
C1112 C 0.2975 0.57749 0.09415 0.0
C1113 C 0.28091 0.60219 0.12685 0.0
C1114 C 0.31984 0.64603 0.14844 0.0
H1115 H 0.29307 0.71177 0.25922 0.0
H1116 H 0.30133 0.67546 0.2382 0.0
H1117 H 0.3313 0.67881 0.15924 0.0
H1118 H 0.33397 0.5778 0.093 0.0
H1119 H 0.33812 0.60546 0.12775 0.0
H1120 H 0.27886 0.61647 0.18002 0.0
C1121 C 0.29996 0.69044 0.22623 0.0
C1122 C 0.32 0.66517 0.16419 0.0
C1123 C 0.29537 0.71116 0.23826 0.0
C1124 C 0.31897 0.58435 0.10233 0.0
C1125 C 0.32136 0.60027 0.1222 0.0
C1126 C 0.29055 0.62987 0.17545 0.0
C1127 C 0.30232 0.68907 0.19891 0.0
C1128 C 0.30502 0.66717 0.18534 0.0
C1129 C 0.30235 0.60966 0.13441 0.0
C1130 C 0.30466 0.62842 0.15341 0.0
H1131 H 0.29369 0.74407 0.18366 0.0
H1132 H 0.30194 0.70835 0.16292 0.0
H1133 H 0.27895 0.65012 0.20738 0.0
H1134 H 0.26173 0.5814 0.10121 0.0
H1135 H 0.26589 0.60927 0.13558 0.0
C1136 C 0.3772 0.74275 0.8062 0.0
C1137 C 0.36031 0.75929 0.80674 0.0
C1138 C 0.39428 0.74264 0.82497 0.0
C1139 C 0.40829 0.76646 0.89031 0.0
H1140 H 0.46924 0.74927 0.87196 0.0
C1141 C 0.48473 0.78967 0.95259 0.0
C1142 C 0.49931 0.77209 0.95978 0.0
C1143 C 0.46802 0.78625 0.934 0.0
C1144 C 0.45223 0.75388 0.87736 0.0
H1145 H 0.34851 0.78911 0.82667 0.0
H1146 H 0.37853 0.78948 0.85877 0.0
H1147 H 0.4396 0.74729 0.83906 0.0
H1148 H 0.50807 0.73724 0.95262 0.0
H1149 H 0.479 0.73145 0.91931 0.0
H1150 H 0.42121 0.77395 0.92827 0.0
C1151 C 0.37827 0.77603 0.84457 0.0
C1152 C 0.4352 0.7527 0.85858 0.0
C1153 C 0.36107 0.77593 0.82608 0.0
C1154 C 0.49707 0.75108 0.94751 0.0
C1155 C 0.48052 0.74779 0.92844 0.0
C1156 C 0.42534 0.76796 0.90888 0.0
C1157 C 0.395 0.75925 0.84449 0.0
C1158 C 0.41303 0.75927 0.86471 0.0
C1159 C 0.46569 0.76529 0.9218 0.0
C1160 C 0.4475 0.76194 0.90252 0.0
H1161 H 0.37688 0.7296 0.79164 0.0
H1162 H 0.40665 0.72928 0.82441 0.0
H1163 H 0.39137 0.77104 0.89607 0.0
H1164 H 0.48592 0.80604 0.96172 0.0
H1165 H 0.45692 0.80007 0.92905 0.0
C1166 C 0.32308 0.40482 0.79197 0.0
C1167 C 0.32411 0.38172 0.79772 0.0
C1168 C 0.32268 0.4207 0.81211 0.0
C1169 C 0.3346 0.4281 0.88268 0.0
H1170 H 0.29024 0.47578 0.87816 0.0
C1171 C 0.32491 0.49591 0.96288 0.0
C1172 C 0.30277 0.50122 0.97039 0.0
C1173 C 0.32902 0.48265 0.94083 0.0
C1174 C 0.30267 0.46253 0.87975 0.0
H1175 H 0.32667 0.35726 0.82904 0.0
H1176 H 0.32567 0.3848 0.86404 0.0
H1177 H 0.29529 0.45011 0.84154 0.0
H1178 H 0.26761 0.49685 0.96045 0.0
H1179 H 0.27478 0.47364 0.92224 0.0
H1180 H 0.34148 0.44006 0.92121 0.0
C1181 C 0.32521 0.39073 0.84403 0.0
C1182 C 0.30576 0.44798 0.85863 0.0
C1183 C 0.32551 0.37491 0.82396 0.0
C1184 C 0.28487 0.49312 0.95523 0.0
C1185 C 0.28899 0.47993 0.93319 0.0
C1186 C 0.33155 0.44268 0.90377 0.0
C1187 C 0.32349 0.41381 0.8384 0.0
C1188 C 0.32155 0.4304 0.85998 0.0
C1189 C 0.3111 0.47448 0.92575 0.0
C1190 C 0.31533 0.45988 0.9027 0.0
H1191 H 0.3219 0.41059 0.77197 0.0
H1192 H 0.32157 0.43838 0.80712 0.0
H1193 H 0.34707 0.41488 0.88424 0.0
H1194 H 0.33909 0.50192 0.97406 0.0
H1195 H 0.34626 0.47895 0.93549 0.0
C1196 C 0.68781 0.2385 0.82319 0.0
C1197 C 0.68472 0.25488 0.80375 0.0
C1198 C 0.67095 0.23414 0.84156 0.0
C1199 C 0.61027 0.24532 0.85665 0.0
H1200 H 0.62924 0.23196 0.92739 0.0
C1201 C 0.55471 0.25772 0.94811 0.0
C1202 C 0.5543 0.24038 0.96682 0.0
C1203 C 0.56926 0.25665 0.92673 0.0
C1204 C 0.62369 0.23537 0.90765 0.0
H1205 H 0.66157 0.27945 0.78808 0.0
H1206 H 0.63234 0.27264 0.82071 0.0
H1207 H 0.65733 0.23611 0.89309 0.0
H1208 H 0.56859 0.20815 0.9776 0.0
H1209 H 0.59468 0.20659 0.94035 0.0
H1210 H 0.57662 0.24575 0.87186 0.0
C1211 C 0.64749 0.26256 0.82143 0.0
C1212 C 0.63978 0.23769 0.88787 0.0
C1213 C 0.66426 0.2666 0.80275 0.0
C1214 C 0.56851 0.22171 0.96344 0.0
C1215 C 0.58346 0.22086 0.94224 0.0
C1216 C 0.59422 0.24337 0.87655 0.0
C1217 C 0.65067 0.24639 0.84128 0.0
C1218 C 0.63334 0.24287 0.86209 0.0
C1219 C 0.58404 0.23842 0.92379 0.0
C1220 C 0.60079 0.23854 0.90227 0.0
H1221 H 0.70332 0.22898 0.82411 0.0
H1222 H 0.67389 0.22116 0.856 0.0
H1223 H 0.60453 0.24883 0.83702 0.0
H1224 H 0.54387 0.27228 0.95012 0.0
H1225 H 0.56949 0.27049 0.91293 0.0
C1226 C 0.79816 0.68865 0.81038 0.0
C1227 C 0.77807 0.68642 0.79615 0.0
C1228 C 0.80508 0.67183 0.82775 0.0
C1229 C 0.79575 0.61181 0.84507 0.0
H1230 H 0.81761 0.62959 0.9132 0.0
C1231 C 0.79062 0.55472 0.93497 0.0
C1232 C 0.80791 0.55492 0.95359 0.0
C1233 C 0.79117 0.5692 0.91356 0.0
C1234 C 0.81198 0.62431 0.89409 0.0
H1235 H 0.74957 0.6646 0.7892 0.0
H1236 H 0.76153 0.63536 0.81948 0.0
H1237 H 0.81003 0.65825 0.88018 0.0
H1238 H 0.83979 0.56996 0.96392 0.0
H1239 H 0.84068 0.59573 0.92627 0.0
H1240 H 0.797 0.57794 0.8593 0.0
C1241 C 0.77216 0.64997 0.81689 0.0
C1242 C 0.80757 0.64075 0.87514 0.0
C1243 C 0.76526 0.66678 0.79952 0.0
C1244 C 0.82629 0.56939 0.94979 0.0
C1245 C 0.8267 0.58422 0.92839 0.0
C1246 C 0.8001 0.59541 0.864 0.0
C1247 C 0.79211 0.65231 0.83134 0.0
C1248 C 0.7989 0.63474 0.8506 0.0
C1249 C 0.80894 0.58447 0.91025 0.0
C1250 C 0.80775 0.6015 0.88895 0.0
H1251 H 0.80868 0.70333 0.80797 0.0
H1252 H 0.82068 0.67406 0.83825 0.0
H1253 H 0.78959 0.60652 0.82619 0.0
H1254 H 0.77626 0.5437 0.93731 0.0
H1255 H 0.7771 0.5691 0.90019 0.0
loop_
_geom_bond_atom_site_label_1
_geom_bond_atom_site_label_2
_geom_bond_distance
_geom_bond_site_symmetry_2
_ccdc_geom_bond_type
Cu0 N1 1.999 . S
Cu0 O6 1.974 . S
Cu0 N11 1.985 . S
Cu0 O20 1.959 . S
N1 Cu0 1.999 . S
N1 C3 1.263 . S
N1 C5 1.389 . S
N2 C3 1.358 . S
N2 C4 1.400 . S
C3 N1 1.263 . S
C3 N2 1.358 . S
C3 H9 0.930 . S
C4 N2 1.400 . S
C4 C5 1.351 . S
C4 H21 0.930 . S
C5 N1 1.389 . S
C5 C4 1.351 . S
C5 H10 0.930 . S
O6 Cu0 1.974 . S
O6 C16 1.282 . S
C7 O8 1.261 . S
C7 O20 1.251 . S
O8 C7 1.261 . S
H9 C3 0.930 . S
H10 C5 0.930 . S
N11 Cu0 1.985 . S
N11 C13 1.335 . S
N11 C14 1.390 . S
N12 C13 1.345 . S
N12 C15 1.336 . S
C13 N11 1.335 . S
C13 N12 1.345 . S
C13 H18 0.930 . S
C14 N11 1.390 . S
C14 C15 1.346 . S
C14 H19 0.930 . S
C15 N12 1.336 . S
C15 C14 1.346 . S
C15 H22 0.929 . S
C16 O6 1.282 . S
C16 O17 1.216 . S
O17 C16 1.216 . S
H18 C13 0.930 . S
H19 C14 0.930 . S
O20 Cu0 1.959 . S
O20 C7 1.251 . S
H21 C4 0.930 . S
H22 C15 0.929 . S
Cu23 N24 1.999 . S
Cu23 O29 1.974 . S
Cu23 N34 1.985 . S
Cu23 O43 1.959 . S
N24 Cu23 1.999 . S
N24 C26 1.263 . S
N24 C28 1.389 . S
N25 C26 1.358 . S
N25 C27 1.400 . S
C26 N24 1.263 . S
C26 N25 1.358 . S
C26 H32 0.930 . S
C27 N25 1.400 . S
C27 C28 1.351 . S
C27 H44 0.930 . S
C28 N24 1.389 . S
C28 C27 1.351 . S
C28 H33 0.930 . S
O29 Cu23 1.974 . S
O29 C39 1.282 . S
C30 O31 1.261 . S
C30 O43 1.251 . S
O31 C30 1.261 . S
H32 C26 0.930 . S
H33 C28 0.930 . S
N34 Cu23 1.985 . S
N34 C36 1.335 . S
N34 C37 1.390 . S
N35 C36 1.345 . S
N35 C38 1.336 . S
C36 N34 1.335 . S
C36 N35 1.345 . S
C36 H41 0.930 . S
C37 N34 1.390 . S
C37 C38 1.346 . S
C37 H42 0.930 . S
C38 N35 1.336 . S
C38 C37 1.346 . S
C38 H45 0.929 . S
C39 O29 1.282 . S
C39 O40 1.216 . S
O40 C39 1.216 . S
H41 C36 0.930 . S
H42 C37 0.930 . S
O43 Cu23 1.959 . S
O43 C30 1.251 . S
H44 C27 0.930 . S
H45 C38 0.929 . S
Cu46 N47 1.999 . S
Cu46 O52 1.974 . S
Cu46 N57 1.985 . S
Cu46 O66 1.959 . S
N47 Cu46 1.999 . S
N47 C49 1.263 . S
N47 C51 1.389 . S
N48 C49 1.358 . S
N48 C50 1.400 . S
C49 N47 1.263 . S
C49 N48 1.358 . S
C49 H55 0.930 . S
C50 N48 1.400 . S
C50 C51 1.351 . S
C50 H67 0.930 . S
C51 N47 1.389 . S
C51 C50 1.351 . S
C51 H56 0.930 . S
O52 Cu46 1.974 . S
O52 C62 1.282 . S
C53 O54 1.261 . S
C53 O66 1.251 . S
O54 C53 1.261 . S
H55 C49 0.930 . S
H56 C51 0.930 . S
N57 Cu46 1.985 . S
N57 C59 1.335 . S
N57 C60 1.390 . S
N58 C59 1.345 . S
N58 C61 1.336 . S
C59 N57 1.335 . S
C59 N58 1.345 . S
C59 H64 0.930 . S
C60 N57 1.390 . S
C60 C61 1.346 . S
C60 H65 0.930 . S
C61 N58 1.336 . S
C61 C60 1.346 . S
C61 H68 0.929 . S
C62 O52 1.282 . S
C62 O63 1.216 . S
O63 C62 1.216 . S
H64 C59 0.930 . S
H65 C60 0.930 . S
O66 Cu46 1.959 . S
O66 C53 1.251 . S
H67 C50 0.930 . S
H68 C61 0.929 . S
Cu69 N70 1.999 . S
Cu69 O75 1.974 . S
Cu69 N80 1.985 . S
Cu69 O89 1.959 . S
N70 Cu69 1.999 . S
N70 C72 1.263 . S
N70 C74 1.389 . S
N71 C72 1.358 . S
N71 C73 1.400 . S
C72 N70 1.263 . S
C72 N71 1.358 . S
C72 H78 0.930 . S
C73 N71 1.400 . S
C73 C74 1.351 . S
C73 H90 0.930 . S
C74 N70 1.389 . S
C74 C73 1.351 . S
C74 H79 0.930 . S
O75 Cu69 1.974 . S
O75 C85 1.282 . S
C76 O77 1.261 . S
C76 O89 1.251 . S
O77 C76 1.261 . S
H78 C72 0.930 . S
H79 C74 0.930 . S
N80 Cu69 1.985 . S
N80 C82 1.335 . S
N80 C83 1.390 . S
N81 C82 1.345 . S
N81 C84 1.336 . S
C82 N80 1.335 . S
C82 N81 1.345 . S
C82 H87 0.930 . S
C83 N80 1.390 . S
C83 C84 1.346 . S
C83 H88 0.930 . S
C84 N81 1.336 . S
C84 C83 1.346 . S
C84 H91 0.929 . S
C85 O75 1.282 . S
C85 O86 1.216 . S
O86 C85 1.216 . S
H87 C82 0.930 . S
H88 C83 0.930 . S
O89 Cu69 1.959 . S
O89 C76 1.251 . S
H90 C73 0.930 . S
H91 C84 0.929 . S
Cu92 N93 1.999 . S
Cu92 O98 1.974 . S
Cu92 N103 1.985 . S
Cu92 O112 1.959 . S
N93 Cu92 1.999 . S
N93 C95 1.263 . S
N93 C97 1.389 . S
N94 C95 1.358 . S
N94 C96 1.400 . S
C95 N93 1.263 . S
C95 N94 1.358 . S
C95 H101 0.930 . S
C96 N94 1.400 . S
C96 C97 1.351 . S
C96 H113 0.930 . S
C97 N93 1.389 . S
C97 C96 1.351 . S
C97 H102 0.930 . S
O98 Cu92 1.974 . S
O98 C108 1.282 . S
C99 O100 1.261 . S
C99 O112 1.251 . S
O100 C99 1.261 . S
H101 C95 0.930 . S
H102 C97 0.930 . S
N103 Cu92 1.985 . S
N103 C105 1.335 . S
N103 C106 1.390 . S
N104 C105 1.345 . S
N104 C107 1.336 . S
C105 N103 1.335 . S
C105 N104 1.345 . S
C105 H110 0.930 . S
C106 N103 1.390 . S
C106 C107 1.346 . S
C106 H111 0.930 . S
C107 N104 1.336 . S
C107 C106 1.346 . S
C107 H114 0.929 . S
C108 O98 1.282 . S
C108 O109 1.216 . S
O109 C108 1.216 . S
H110 C105 0.930 . S
H111 C106 0.930 . S
O112 Cu92 1.959 . S
O112 C99 1.251 . S
H113 C96 0.930 . S
H114 C107 0.929 . S
Cu115 N116 1.999 . S
Cu115 O121 1.974 . S
Cu115 N126 1.985 . S
Cu115 O135 1.959 . S
N116 Cu115 1.999 . S
N116 C118 1.263 . S
N116 C120 1.389 . S
N117 C118 1.358 . S
N117 C119 1.400 . S
C118 N116 1.263 . S
C118 N117 1.358 . S
C118 H124 0.930 . S
C119 N117 1.400 . S
C119 C120 1.351 . S
C119 H136 0.930 . S
C120 N116 1.389 . S
C120 C119 1.351 . S
C120 H125 0.930 . S
O121 Cu115 1.974 . S
O121 C131 1.282 . S
C122 O123 1.261 . S
C122 O135 1.251 . S
O123 C122 1.261 . S
H124 C118 0.930 . S
H125 C120 0.930 . S
N126 Cu115 1.985 . S
N126 C128 1.335 . S
N126 C129 1.390 . S
N127 C128 1.345 . S
N127 C130 1.336 . S
C128 N126 1.335 . S
C128 N127 1.345 . S
C128 H133 0.930 . S
C129 N126 1.390 . S
C129 C130 1.346 . S
C129 H134 0.930 . S
C130 N127 1.336 . S
C130 C129 1.346 . S
C130 H137 0.929 . S
C131 O121 1.282 . S
C131 O132 1.216 . S
O132 C131 1.216 . S
H133 C128 0.930 . S
H134 C129 0.930 . S
O135 Cu115 1.959 . S
O135 C122 1.251 . S
H136 C119 0.930 . S
H137 C130 0.929 . S
Cu138 N139 1.999 . S
Cu138 O144 1.974 . S
Cu138 N149 1.985 . S
Cu138 O158 1.959 . S
N139 Cu138 1.999 . S
N139 C141 1.263 . S
N139 C143 1.389 . S
N140 C141 1.358 . S
N140 C142 1.400 . S
C141 N139 1.263 . S
C141 N140 1.358 . S
C141 H147 0.930 . S
C142 N140 1.400 . S
C142 C143 1.351 . S
C142 H159 0.930 . S
C143 N139 1.389 . S
C143 C142 1.351 . S
C143 H148 0.930 . S
O144 Cu138 1.974 . S
O144 C154 1.282 . S
C145 O146 1.261 . S
C145 O158 1.251 . S
O146 C145 1.261 . S
H147 C141 0.930 . S
H148 C143 0.930 . S
N149 Cu138 1.985 . S
N149 C151 1.335 . S
N149 C152 1.390 . S
N150 C151 1.345 . S
N150 C153 1.336 . S
C151 N149 1.335 . S
C151 N150 1.345 . S
C151 H156 0.930 . S
C152 N149 1.390 . S
C152 C153 1.346 . S
C152 H157 0.930 . S
C153 N150 1.336 . S
C153 C152 1.346 . S
C153 H160 0.929 . S
C154 O144 1.282 . S
C154 O155 1.216 . S
O155 C154 1.216 . S
H156 C151 0.930 . S
H157 C152 0.930 . S
O158 Cu138 1.959 . S
O158 C145 1.251 . S
H159 C142 0.930 . S
H160 C153 0.929 . S
Cu161 N162 1.999 . S
Cu161 O167 1.974 . S
Cu161 N172 1.985 . S
Cu161 O181 1.959 . S
N162 Cu161 1.999 . S
N162 C164 1.263 . S
N162 C166 1.389 . S
N163 C164 1.358 . S
N163 C165 1.400 . S
C164 N162 1.263 . S
C164 N163 1.358 . S
C164 H170 0.930 . S
C165 N163 1.400 . S
C165 C166 1.351 . S
C165 H182 0.930 . S
C166 N162 1.389 . S
C166 C165 1.351 . S
C166 H171 0.930 . S
O167 Cu161 1.974 . S
O167 C177 1.282 . S
C168 O169 1.261 . S
C168 O181 1.251 . S
O169 C168 1.261 . S
H170 C164 0.930 . S
H171 C166 0.930 . S
N172 Cu161 1.985 . S
N172 C174 1.335 . S
N172 C175 1.390 . S
N173 C174 1.345 . S
N173 C176 1.336 . S
C174 N172 1.335 . S
C174 N173 1.345 . S
C174 H179 0.930 . S
C175 N172 1.390 . S
C175 C176 1.346 . S
C175 H180 0.930 . S
C176 N173 1.336 . S
C176 C175 1.346 . S
C176 H183 0.929 . S
C177 O167 1.282 . S
C177 O178 1.216 . S
O178 C177 1.216 . S
H179 C174 0.930 . S
H180 C175 0.930 . S
O181 Cu161 1.959 . S
O181 C168 1.251 . S
H182 C165 0.930 . S
H183 C176 0.929 . S
C184 O186 1.247 . S
C184 O188 1.258 . S
C185 O192 1.247 . S
C185 O193 1.258 . S
O186 C184 1.247 . S
O186 Zn187 2.028 . S
Zn187 O186 2.028 . S
Zn187 O191 2.035 . S
Zn187 O193 2.035 . S
Zn187 O194 2.028 . S
O188 C184 1.258 . S
O188 Zn189 2.035 . S
Zn189 O188 2.035 . S
Zn189 O190 2.028 . S
Zn189 O192 2.028 . S
Zn189 O195 2.035 . S
O190 Zn189 2.028 . S
O190 C196 1.247 . S
O191 Zn187 2.035 . S
O191 C196 1.258 . S
O192 C185 1.247 . S
O192 Zn189 2.028 . S
O193 C185 1.258 . S
O193 Zn187 2.035 . S
O194 Zn187 2.028 . S
O194 C197 1.247 . S
O195 Zn189 2.035 . S
O195 C197 1.258 . S
C196 O190 1.247 . S
C196 O191 1.258 . S
C197 O194 1.247 . S
C197 O195 1.258 . S
C198 O200 1.247 . S
C198 O202 1.258 . S
C199 O206 1.247 . S
C199 O207 1.258 . S
O200 C198 1.247 . S
O200 Zn201 2.028 . S
Zn201 O200 2.028 . S
Zn201 O205 2.035 . S
Zn201 O207 2.035 . S
Zn201 O208 2.028 . S
O202 C198 1.258 . S
O202 Zn203 2.035 . S
Zn203 O202 2.035 . S
Zn203 O204 2.028 . S
Zn203 O206 2.028 . S
Zn203 O209 2.035 . S
O204 Zn203 2.028 . S
O204 C210 1.247 . S
O205 Zn201 2.035 . S
O205 C210 1.258 . S
O206 C199 1.247 . S
O206 Zn203 2.028 . S
O207 C199 1.258 . S
O207 Zn201 2.035 . S
O208 Zn201 2.028 . S
O208 C211 1.247 . S
O209 Zn203 2.035 . S
O209 C211 1.258 . S
C210 O204 1.247 . S
C210 O205 1.258 . S
C211 O208 1.247 . S
C211 O209 1.258 . S
C212 O214 1.247 . S
C212 O216 1.258 . S
C213 O220 1.247 . S
C213 O221 1.258 . S
O214 C212 1.247 . S
O214 Zn215 2.028 1_655 S
Zn215 O214 2.028 1_455 S
Zn215 O219 2.035 . S
Zn215 O221 2.035 . S
Zn215 O222 2.028 1_455 S
O216 C212 1.258 . S
O216 Zn217 2.035 1_655 S
Zn217 O216 2.035 1_455 S
Zn217 O218 2.028 . S
Zn217 O220 2.028 . S
Zn217 O223 2.035 1_455 S
O218 Zn217 2.028 . S
O218 C224 1.247 . S
O219 Zn215 2.035 . S
O219 C224 1.258 . S
O220 C213 1.247 . S
O220 Zn217 2.028 . S
O221 C213 1.258 . S
O221 Zn215 2.035 . S
O222 Zn215 2.028 1_655 S
O222 C225 1.247 . S
O223 Zn217 2.035 1_655 S
O223 C225 1.258 . S
C224 O218 1.247 . S
C224 O219 1.258 . S
C225 O222 1.247 . S
C225 O223 1.258 . S
C226 O228 1.247 . S
C226 O230 1.258 . S
C227 O234 1.247 . S
C227 O235 1.258 . S
O228 C226 1.247 . S
O228 Zn229 2.028 . S
Zn229 O228 2.028 . S
Zn229 O233 2.035 1_545 S
Zn229 O235 2.035 1_545 S
Zn229 O236 2.028 . S
O230 C226 1.258 . S
O230 Zn231 2.035 . S
Zn231 O230 2.035 . S
Zn231 O232 2.028 1_545 S
Zn231 O234 2.028 1_545 S
Zn231 O237 2.035 . S
O232 Zn231 2.028 1_565 S
O232 C238 1.247 . S
O233 Zn229 2.035 1_565 S
O233 C238 1.258 . S
O234 C227 1.247 . S
O234 Zn231 2.028 1_565 S
O235 C227 1.258 . S
O235 Zn229 2.035 1_565 S
O236 Zn229 2.028 . S
O236 C239 1.247 . S
O237 Zn231 2.035 . S
O237 C239 1.258 . S
C238 O232 1.247 . S
C238 O233 1.258 . S
C239 O236 1.247 . S
C239 O237 1.258 . S
C240 O242 1.247 . S
C240 O244 1.258 . S
C241 O248 1.247 . S
C241 O249 1.258 . S
O242 C240 1.247 . S
O242 Zn243 2.048 . S
Zn243 O242 2.048 . S
Zn243 O247 2.055 . S
Zn243 O249 2.016 1_554 S
Zn243 O250 2.008 1_554 S
O244 C240 1.258 . S
O244 Zn245 2.035 . S
Zn245 O244 2.035 . S
Zn245 O246 2.028 . S
Zn245 O248 2.028 1_554 S
Zn245 O251 2.035 1_554 S
O246 Zn245 2.028 . S
O246 C252 1.247 . S
O247 Zn243 2.055 . S
O247 C252 1.258 . S
O248 C241 1.247 . S
O248 Zn245 2.028 1_556 S
O249 C241 1.258 . S
O249 Zn243 2.016 1_556 S
O250 Zn243 2.008 1_556 S
O250 C253 1.247 . S
O251 Zn245 2.035 1_556 S
O251 C253 1.258 . S
C252 O246 1.247 . S
C252 O247 1.258 . S
C253 O250 1.247 . S
C253 O251 1.258 . S
C254 O256 1.247 . S
C254 O258 1.258 . S
C255 O262 1.247 . S
C255 O263 1.258 . S
O256 C254 1.247 . S
O256 Zn257 2.028 . S
Zn257 O256 2.028 . S
Zn257 O261 2.035 . S
Zn257 O263 2.035 1_554 S
Zn257 O264 2.028 1_554 S
O258 C254 1.258 . S
O258 Zn259 2.035 . S
Zn259 O258 2.035 . S
Zn259 O260 2.028 . S
Zn259 O262 2.028 1_554 S
Zn259 O265 2.035 1_554 S
O260 Zn259 2.028 . S
O260 C266 1.247 . S
O261 Zn257 2.035 . S
O261 C266 1.258 . S
O262 C255 1.247 . S
O262 Zn259 2.028 1_556 S
O263 C255 1.258 . S
O263 Zn257 2.035 1_556 S
O264 Zn257 2.028 1_556 S
O264 C267 1.247 . S
O265 Zn259 2.035 1_556 S
O265 C267 1.258 . S
C266 O260 1.247 . S
C266 O261 1.258 . S
C267 O264 1.247 . S
C267 O265 1.258 . S
C268 O270 1.247 . S
C268 O272 1.258 . S
C269 O276 1.247 . S
C269 O277 1.258 . S
O270 C268 1.247 . S
O270 Zn271 2.028 1_556 S
Zn271 O270 2.028 1_554 S
Zn271 O275 2.035 1_554 S
Zn271 O277 2.035 . S
Zn271 O278 2.028 . S
O272 C268 1.258 . S
O272 Zn273 2.035 1_556 S
Zn273 O272 2.035 1_554 S
Zn273 O274 2.028 1_554 S
Zn273 O276 2.028 . S
Zn273 O279 2.035 . S
O274 Zn273 2.028 1_556 S
O274 C280 1.247 . S
O275 Zn271 2.035 1_556 S
O275 C280 1.258 . S
O276 C269 1.247 . S
O276 Zn273 2.028 . S
O277 C269 1.258 . S
O277 Zn271 2.035 . S
O278 Zn271 2.028 . S
O278 C281 1.247 . S
O279 Zn273 2.035 . S
O279 C281 1.258 . S
C280 O274 1.247 . S
C280 O275 1.258 . S
C281 O278 1.247 . S
C281 O279 1.258 . S
C282 O284 1.247 . S
C282 O286 1.258 . S
C283 O290 1.247 . S
C283 O291 1.258 . S
O284 C282 1.247 . S
O284 Zn285 2.028 . S
Zn285 O284 2.028 . S
Zn285 O289 2.035 . S
Zn285 O291 2.035 1_554 S
Zn285 O292 2.028 1_554 S
O286 C282 1.258 . S
O286 Zn287 2.035 . S
Zn287 O286 2.035 . S
Zn287 O288 2.028 . S
Zn287 O290 2.028 1_554 S
Zn287 O293 2.035 1_554 S
O288 Zn287 2.028 . S
O288 C294 1.247 . S
O289 Zn285 2.035 . S
O289 C294 1.258 . S
O290 C283 1.247 . S
O290 Zn287 2.028 1_556 S
O291 C283 1.258 . S
O291 Zn285 2.035 1_556 S
O292 Zn285 2.028 1_556 S
O292 C295 1.247 . S
O293 Zn287 2.035 1_556 S
O293 C295 1.258 . S
C294 O288 1.247 . S
C294 O289 1.258 . S
C295 O292 1.247 . S
C295 O293 1.258 . S
C296 C297 1.349 . S
C296 C298 1.327 . S
C296 H321 0.950 . S
C297 C296 1.349 . S
C297 C313 1.349 . S
C298 C296 1.327 . S
C298 C317 1.429 . S
C298 H322 0.950 . S
C299 C316 1.574 . S
C299 C318 1.368 . S
C299 H323 0.949 . S
H300 C304 0.949 . S
C301 C302 1.349 . S
C301 C303 1.327 . S
C301 H324 0.950 . S
C302 C301 1.349 . S
C302 C314 1.349 . S
C303 C301 1.327 . S
C303 C319 1.429 . S
C303 H325 0.950 . S
C304 H300 0.949 . S
C304 C312 1.574 . S
C304 C320 1.368 . S
H305 C313 0.950 . S
H306 C311 0.950 . S
H307 C312 0.949 . S
H308 C314 0.950 . S
H309 C315 0.950 . S
H310 C316 0.949 . S
C311 H306 0.950 . S
C311 C313 1.327 . S
C311 C317 1.429 . S
C312 C304 1.574 . S
C312 H307 0.949 . S
C312 C318 1.368 . S
C313 C297 1.349 . S
C313 H305 0.950 . S
C313 C311 1.327 . S
C314 C302 1.349 . S
C314 H308 0.950 . S
C314 C315 1.327 . S
C315 H309 0.950 . S
C315 C314 1.327 . S
C315 C319 1.429 . S
C316 C299 1.574 . S
C316 H310 0.949 . S
C316 C320 1.368 . S
C317 C298 1.429 . S
C317 C311 1.429 . S
C317 C318 1.523 . S
C318 C299 1.368 . S
C318 C312 1.368 . S
C318 C317 1.523 . S
C319 C303 1.429 . S
C319 C315 1.429 . S
C319 C320 1.523 . S
C320 C304 1.368 . S
C320 C316 1.368 . S
C320 C319 1.523 . S
H321 C296 0.950 . S
H322 C298 0.950 . S
H323 C299 0.949 . S
H324 C301 0.950 . S
H325 C303 0.950 . S
C326 C327 1.349 . S
C326 C328 1.327 . S
C326 H351 0.950 . S
C327 C326 1.349 . S
C327 C343 1.349 . S
C328 C326 1.327 . S
C328 C347 1.429 . S
C328 H352 0.950 . S
C329 C346 1.574 . S
C329 C348 1.368 . S
C329 H353 0.949 . S
H330 C334 0.949 . S
C331 C332 1.349 . S
C331 C333 1.327 . S
C331 H354 0.950 . S
C332 C331 1.349 . S
C332 C344 1.349 . S
C333 C331 1.327 . S
C333 C349 1.429 . S
C333 H355 0.950 . S
C334 H330 0.949 . S
C334 C342 1.574 . S
C334 C350 1.368 . S
H335 C343 0.950 . S
H336 C341 0.950 . S
H337 C342 0.949 . S
H338 C344 0.950 . S
H339 C345 0.950 . S
H340 C346 0.949 . S
C341 H336 0.950 . S
C341 C343 1.327 . S
C341 C347 1.429 . S
C342 C334 1.574 . S
C342 H337 0.949 . S
C342 C348 1.368 . S
C343 C327 1.349 . S
C343 H335 0.950 . S
C343 C341 1.327 . S
C344 C332 1.349 . S
C344 H338 0.950 . S
C344 C345 1.327 . S
C345 H339 0.950 . S
C345 C344 1.327 . S
C345 C349 1.429 . S
C346 C329 1.574 . S
C346 H340 0.949 . S
C346 C350 1.368 . S
C347 C328 1.429 . S
C347 C341 1.429 . S
C347 C348 1.523 . S
C348 C329 1.368 . S
C348 C342 1.368 . S
C348 C347 1.523 . S
C349 C333 1.429 . S
C349 C345 1.429 . S
C349 C350 1.523 . S
C350 C334 1.368 . S
C350 C346 1.368 . S
C350 C349 1.523 . S
H351 C326 0.950 . S
H352 C328 0.950 . S
H353 C329 0.949 . S
H354 C331 0.950 . S
H355 C333 0.950 . S
C356 C357 1.349 . S
C356 C358 1.327 . S
C356 H381 0.950 . S
C357 C356 1.349 . S
C357 C373 1.349 . S
C358 C356 1.327 . S
C358 C377 1.429 . S
C358 H382 0.950 . S
C359 C376 1.574 . S
C359 C378 1.368 . S
C359 H383 0.949 . S
H360 C364 0.949 . S
C361 C362 1.349 . S
C361 C363 1.327 . S
C361 H384 0.950 . S
C362 C361 1.349 . S
C362 C374 1.349 . S
C363 C361 1.327 . S
C363 C379 1.429 . S
C363 H385 0.950 . S
C364 H360 0.949 . S
C364 C372 1.574 . S
C364 C380 1.368 . S
H365 C373 0.950 . S
H366 C371 0.950 . S
H367 C372 0.949 . S
H368 C374 0.950 . S
H369 C375 0.950 . S
H370 C376 0.949 . S
C371 H366 0.950 . S
C371 C373 1.327 . S
C371 C377 1.429 . S
C372 C364 1.574 . S
C372 H367 0.949 . S
C372 C378 1.368 . S
C373 C357 1.349 . S
C373 H365 0.950 . S
C373 C371 1.327 . S
C374 C362 1.349 . S
C374 H368 0.950 . S
C374 C375 1.327 . S
C375 H369 0.950 . S
C375 C374 1.327 . S
C375 C379 1.429 . S
C376 C359 1.574 . S
C376 H370 0.949 . S
C376 C380 1.368 . S
C377 C358 1.429 . S
C377 C371 1.429 . S
C377 C378 1.523 . S
C378 C359 1.368 . S
C378 C372 1.368 . S
C378 C377 1.523 . S
C379 C363 1.429 . S
C379 C375 1.429 . S
C379 C380 1.523 . S
C380 C364 1.368 . S
C380 C376 1.368 . S
C380 C379 1.523 . S
H381 C356 0.950 . S
H382 C358 0.950 . S
H383 C359 0.949 . S
H384 C361 0.950 . S
H385 C363 0.950 . S
C386 C387 1.349 . S
C386 C388 1.327 . S
C386 H411 0.950 . S
C387 C386 1.349 . S
C387 C403 1.349 . S
C388 C386 1.327 . S
C388 C407 1.429 . S
C388 H412 0.950 . S
C389 C406 1.574 . S
C389 C408 1.368 . S
C389 H413 0.949 . S
H390 C394 0.949 . S
C391 C392 1.349 . S
C391 C393 1.327 . S
C391 H414 0.950 . S
C392 C391 1.349 . S
C392 C404 1.349 . S
C393 C391 1.327 . S
C393 C409 1.429 . S
C393 H415 0.950 . S
C394 H390 0.949 . S
C394 C402 1.574 . S
C394 C410 1.368 . S
H395 C403 0.950 . S
H396 C401 0.950 . S
H397 C402 0.949 . S
H398 C404 0.950 . S
H399 C405 0.950 . S
H400 C406 0.949 . S
C401 H396 0.950 . S
C401 C403 1.327 . S
C401 C407 1.429 . S
C402 C394 1.574 . S
C402 H397 0.949 . S
C402 C408 1.368 . S
C403 C387 1.349 . S
C403 H395 0.950 . S
C403 C401 1.327 . S
C404 C392 1.349 . S
C404 H398 0.950 . S
C404 C405 1.327 . S
C405 H399 0.950 . S
C405 C404 1.327 . S
C405 C409 1.429 . S
C406 C389 1.574 . S
C406 H400 0.949 . S
C406 C410 1.368 . S
C407 C388 1.429 . S
C407 C401 1.429 . S
C407 C408 1.523 . S
C408 C389 1.368 . S
C408 C402 1.368 . S
C408 C407 1.523 . S
C409 C393 1.429 . S
C409 C405 1.429 . S
C409 C410 1.523 . S
C410 C394 1.368 . S
C410 C406 1.368 . S
C410 C409 1.523 . S
H411 C386 0.950 . S
H412 C388 0.950 . S
H413 C389 0.949 . S
H414 C391 0.950 . S
H415 C393 0.950 . S
C416 C417 1.349 . S
C416 C418 1.327 . S
C416 H441 0.950 . S
C417 C416 1.349 . S
C417 C433 1.349 . S
C418 C416 1.327 . S
C418 C437 1.429 . S
C418 H442 0.950 . S
C419 C436 1.574 . S
C419 C438 1.368 . S
C419 H443 0.949 . S
H420 C424 0.949 . S
C421 C422 1.349 . S
C421 C423 1.327 . S
C421 H444 0.950 . S
C422 C421 1.349 . S
C422 C434 1.349 . S
C423 C421 1.327 . S
C423 C439 1.429 . S
C423 H445 0.950 . S
C424 H420 0.949 . S
C424 C432 1.574 . S
C424 C440 1.368 . S
H425 C433 0.950 . S
H426 C431 0.950 . S
H427 C432 0.949 . S
H428 C434 0.950 . S
H429 C435 0.950 . S
H430 C436 0.949 . S
C431 H426 0.950 . S
C431 C433 1.327 . S
C431 C437 1.429 . S
C432 C424 1.574 . S
C432 H427 0.949 . S
C432 C438 1.368 . S
C433 C417 1.349 . S
C433 H425 0.950 . S
C433 C431 1.327 . S
C434 C422 1.349 . S
C434 H428 0.950 . S
C434 C435 1.327 . S
C435 H429 0.950 . S
C435 C434 1.327 . S
C435 C439 1.429 . S
C436 C419 1.574 . S
C436 H430 0.949 . S
C436 C440 1.368 . S
C437 C418 1.429 . S
C437 C431 1.429 . S
C437 C438 1.523 . S
C438 C419 1.368 . S
C438 C432 1.368 . S
C438 C437 1.523 . S
C439 C423 1.429 . S
C439 C435 1.429 . S
C439 C440 1.523 . S
C440 C424 1.368 . S
C440 C436 1.368 . S
C440 C439 1.523 . S
H441 C416 0.950 . S
H442 C418 0.950 . S
H443 C419 0.949 . S
H444 C421 0.950 . S
H445 C423 0.950 . S
C446 C447 1.349 . S
C446 C448 1.327 . S
C446 H471 0.950 . S
C447 C446 1.349 . S
C447 C463 1.349 . S
C448 C446 1.327 . S
C448 C467 1.429 . S
C448 H472 0.950 . S
C449 C466 1.574 . S
C449 C468 1.368 . S
C449 H473 0.949 . S
H450 C454 0.949 . S
C451 C452 1.349 . S
C451 C453 1.327 . S
C451 H474 0.950 . S
C452 C451 1.349 . S
C452 C464 1.349 . S
C453 C451 1.327 . S
C453 C469 1.429 . S
C453 H475 0.950 . S
C454 H450 0.949 . S
C454 C462 1.574 . S
C454 C470 1.368 . S
H455 C463 0.950 . S
H456 C461 0.950 . S
H457 C462 0.949 . S
H458 C464 0.950 . S
H459 C465 0.950 . S
H460 C466 0.949 . S
C461 H456 0.950 . S
C461 C463 1.327 . S
C461 C467 1.429 . S
C462 C454 1.574 . S
C462 H457 0.949 . S
C462 C468 1.368 . S
C463 C447 1.349 . S
C463 H455 0.950 . S
C463 C461 1.327 . S
C464 C452 1.349 . S
C464 H458 0.950 . S
C464 C465 1.327 . S
C465 H459 0.950 . S
C465 C464 1.327 . S
C465 C469 1.429 . S
C466 C449 1.574 . S
C466 H460 0.949 . S
C466 C470 1.368 . S
C467 C448 1.429 . S
C467 C461 1.429 . S
C467 C468 1.523 . S
C468 C449 1.368 . S
C468 C462 1.368 . S
C468 C467 1.523 . S
C469 C453 1.429 . S
C469 C465 1.429 . S
C469 C470 1.523 . S
C470 C454 1.368 . S
C470 C466 1.368 . S
C470 C469 1.523 . S
H471 C446 0.950 . S
H472 C448 0.950 . S
H473 C449 0.949 . S
H474 C451 0.950 . S
H475 C453 0.950 . S
C476 C477 1.349 . S
C476 C478 1.327 . S
C476 H501 0.950 . S
C477 C476 1.349 . S
C477 C493 1.349 . S
C478 C476 1.327 . S
C478 C497 1.429 . S
C478 H502 0.950 . S
C479 C496 1.574 . S
C479 C498 1.368 . S
C479 H503 0.949 . S
H480 C484 0.949 . S
C481 C482 1.349 . S
C481 C483 1.327 . S
C481 H504 0.950 . S
C482 C481 1.349 . S
C482 C494 1.349 . S
C483 C481 1.327 . S
C483 C499 1.429 . S
C483 H505 0.950 . S
C484 H480 0.949 . S
C484 C492 1.574 . S
C484 C500 1.368 . S
H485 C493 0.950 . S
H486 C491 0.950 . S
H487 C492 0.949 . S
H488 C494 0.950 . S
H489 C495 0.950 . S
H490 C496 0.949 . S
C491 H486 0.950 . S
C491 C493 1.327 . S
C491 C497 1.429 . S
C492 C484 1.574 . S
C492 H487 0.949 . S
C492 C498 1.368 . S
C493 C477 1.349 . S
C493 H485 0.950 . S
C493 C491 1.327 . S
C494 C482 1.349 . S
C494 H488 0.950 . S
C494 C495 1.327 . S
C495 H489 0.950 . S
C495 C494 1.327 . S
C495 C499 1.429 . S
C496 C479 1.574 . S
C496 H490 0.949 . S
C496 C500 1.368 . S
C497 C478 1.429 . S
C497 C491 1.429 . S
C497 C498 1.523 . S
C498 C479 1.368 . S
C498 C492 1.368 . S
C498 C497 1.523 . S
C499 C483 1.429 . S
C499 C495 1.429 . S
C499 C500 1.523 . S
C500 C484 1.368 . S
C500 C496 1.368 . S
C500 C499 1.523 . S
H501 C476 0.950 . S
H502 C478 0.950 . S
H503 C479 0.949 . S
H504 C481 0.950 . S
H505 C483 0.950 . S
C506 C507 1.349 . S
C506 C508 1.327 . S
C506 H531 0.950 . S
C507 C506 1.349 . S
C507 C523 1.349 . S
C508 C506 1.327 . S
C508 C527 1.429 . S
C508 H532 0.950 . S
C509 C526 1.574 . S
C509 C528 1.368 . S
C509 H533 0.949 . S
H510 C514 0.949 . S
C511 C512 1.349 . S
C511 C513 1.327 . S
C511 H534 0.950 . S
C512 C511 1.349 . S
C512 C524 1.349 . S
C513 C511 1.327 . S
C513 C529 1.429 . S
C513 H535 0.950 . S
C514 H510 0.949 . S
C514 C522 1.574 . S
C514 C530 1.368 . S
H515 C523 0.950 . S
H516 C521 0.950 . S
H517 C522 0.949 . S
H518 C524 0.950 1_545 S
H519 C525 0.950 . S
H520 C526 0.949 . S
C521 H516 0.950 . S
C521 C523 1.327 . S
C521 C527 1.429 . S
C522 C514 1.574 . S
C522 H517 0.949 . S
C522 C528 1.368 . S
C523 C507 1.349 . S
C523 H515 0.950 . S
C523 C521 1.327 . S
C524 C512 1.349 . S
C524 H518 0.950 1_565 S
C524 C525 1.327 . S
C525 H519 0.950 . S
C525 C524 1.327 . S
C525 C529 1.429 . S
C526 C509 1.574 . S
C526 H520 0.949 . S
C526 C530 1.368 . S
C527 C508 1.429 . S
C527 C521 1.429 . S
C527 C528 1.523 . S
C528 C509 1.368 . S
C528 C522 1.368 . S
C528 C527 1.523 . S
C529 C513 1.429 . S
C529 C525 1.429 . S
C529 C530 1.523 . S
C530 C514 1.368 . S
C530 C526 1.368 . S
C530 C529 1.523 . S
H531 C506 0.950 . S
H532 C508 0.950 . S
H533 C509 0.949 . S
H534 C511 0.950 . S
H535 C513 0.950 . S
C536 C537 1.349 . S
C536 C538 1.327 . S
C536 H561 0.950 . S
C537 C536 1.349 . S
C537 C553 1.349 . S
C538 C536 1.327 . S
C538 C557 1.429 . S
C538 H562 0.950 . S
C539 C556 1.574 . S
C539 C558 1.368 . S
C539 H563 0.949 . S
H540 C544 0.949 . S
C541 C542 1.349 . S
C541 C543 1.327 . S
C541 H564 0.950 . S
C542 C541 1.349 . S
C542 C554 1.349 . S
C543 C541 1.327 . S
C543 C559 1.429 . S
C543 H565 0.950 . S
C544 H540 0.949 . S
C544 C552 1.574 . S
C544 C560 1.368 . S
H545 C553 0.950 . S
H546 C551 0.950 . S
H547 C552 0.949 . S
H548 C554 0.950 . S
H549 C555 0.950 . S
H550 C556 0.949 . S
C551 H546 0.950 . S
C551 C553 1.327 . S
C551 C557 1.429 . S
C552 C544 1.574 . S
C552 H547 0.949 . S
C552 C558 1.368 . S
C553 C537 1.349 . S
C553 H545 0.950 . S
C553 C551 1.327 . S
C554 C542 1.349 . S
C554 H548 0.950 . S
C554 C555 1.327 . S
C555 H549 0.950 . S
C555 C554 1.327 . S
C555 C559 1.429 . S
C556 C539 1.574 . S
C556 H550 0.949 . S
C556 C560 1.368 . S
C557 C538 1.429 . S
C557 C551 1.429 . S
C557 C558 1.523 . S
C558 C539 1.368 . S
C558 C552 1.368 . S
C558 C557 1.523 . S
C559 C543 1.429 . S
C559 C555 1.429 . S
C559 C560 1.523 . S
C560 C544 1.368 . S
C560 C556 1.368 . S
C560 C559 1.523 . S
H561 C536 0.950 . S
H562 C538 0.950 . S
H563 C539 0.949 . S
H564 C541 0.950 . S
H565 C543 0.950 . S
C566 C567 1.349 . S
C566 C568 1.327 . S
C566 H591 0.950 . S
C567 C566 1.349 . S
C567 C583 1.349 . S
C568 C566 1.327 . S
C568 C587 1.429 . S
C568 H592 0.950 . S
C569 C586 1.574 . S
C569 C588 1.368 . S
C569 H593 0.949 . S
H570 C574 0.949 . S
C571 C572 1.349 . S
C571 C573 1.327 . S
C571 H594 0.950 . S
C572 C571 1.349 . S
C572 C584 1.349 . S
C573 C571 1.327 . S
C573 C589 1.429 . S
C573 H595 0.950 . S
C574 H570 0.949 . S
C574 C582 1.574 . S
C574 C590 1.368 . S
H575 C583 0.950 . S
H576 C581 0.950 . S
H577 C582 0.949 . S
H578 C584 0.950 . S
H579 C585 0.950 . S
H580 C586 0.949 . S
C581 H576 0.950 . S
C581 C583 1.327 . S
C581 C587 1.429 . S
C582 C574 1.574 . S
C582 H577 0.949 . S
C582 C588 1.368 . S
C583 C567 1.349 . S
C583 H575 0.950 . S
C583 C581 1.327 . S
C584 C572 1.349 . S
C584 H578 0.950 . S
C584 C585 1.327 . S
C585 H579 0.950 . S
C585 C584 1.327 . S
C585 C589 1.429 . S
C586 C569 1.574 . S
C586 H580 0.949 . S
C586 C590 1.368 . S
C587 C568 1.429 . S
C587 C581 1.429 . S
C587 C588 1.523 . S
C588 C569 1.368 . S
C588 C582 1.368 . S
C588 C587 1.523 . S
C589 C573 1.429 . S
C589 C585 1.429 . S
C589 C590 1.523 . S
C590 C574 1.368 . S
C590 C586 1.368 . S
C590 C589 1.523 . S
H591 C566 0.950 . S
H592 C568 0.950 . S
H593 C569 0.949 . S
H594 C571 0.950 . S
H595 C573 0.950 . S
C596 C597 1.349 . S
C596 C598 1.327 . S
C596 H621 0.950 . S
C597 C596 1.349 . S
C597 C613 1.349 . S
C598 C596 1.327 . S
C598 C617 1.429 . S
C598 H622 0.950 . S
C599 C616 1.574 . S
C599 C618 1.368 . S
C599 H623 0.949 . S
H600 C604 0.949 . S
C601 C602 1.349 . S
C601 C603 1.327 . S
C601 H624 0.950 . S
C602 C601 1.349 . S
C602 C614 1.349 . S
C603 C601 1.327 . S
C603 C619 1.429 . S
C603 H625 0.950 . S
C604 H600 0.949 . S
C604 C612 1.574 . S
C604 C620 1.368 . S
H605 C613 0.950 . S
H606 C611 0.950 . S
H607 C612 0.949 . S
H608 C614 0.950 . S
H609 C615 0.950 . S
H610 C616 0.949 . S
C611 H606 0.950 . S
C611 C613 1.327 . S
C611 C617 1.429 . S
C612 C604 1.574 . S
C612 H607 0.949 . S
C612 C618 1.368 . S
C613 C597 1.349 . S
C613 H605 0.950 . S
C613 C611 1.327 . S
C614 C602 1.349 . S
C614 H608 0.950 . S
C614 C615 1.327 . S
C615 H609 0.950 . S
C615 C614 1.327 . S
C615 C619 1.429 . S
C616 C599 1.574 . S
C616 H610 0.949 . S
C616 C620 1.368 . S
C617 C598 1.429 . S
C617 C611 1.429 . S
C617 C618 1.523 . S
C618 C599 1.368 . S
C618 C612 1.368 . S
C618 C617 1.523 . S
C619 C603 1.429 . S
C619 C615 1.429 . S
C619 C620 1.523 . S
C620 C604 1.368 . S
C620 C616 1.368 . S
C620 C619 1.523 . S
H621 C596 0.950 . S
H622 C598 0.950 . S
H623 C599 0.949 . S
H624 C601 0.950 . S
H625 C603 0.950 . S
C626 C627 1.349 . S
C626 C628 1.327 . S
C626 H651 0.950 . S
C627 C626 1.349 . S
C627 C643 1.349 . S
C628 C626 1.327 . S
C628 C647 1.429 . S
C628 H652 0.950 . S
C629 C646 1.574 . S
C629 C648 1.368 . S
C629 H653 0.949 . S
H630 C634 0.949 . S
C631 C632 1.349 . S
C631 C633 1.327 . S
C631 H654 0.950 . S
C632 C631 1.349 . S
C632 C644 1.349 . S
C633 C631 1.327 . S
C633 C649 1.429 . S
C633 H655 0.950 . S
C634 H630 0.949 . S
C634 C642 1.574 . S
C634 C650 1.368 . S
H635 C643 0.950 . S
H636 C641 0.950 . S
H637 C642 0.949 . S
H638 C644 0.950 . S
H639 C645 0.950 . S
H640 C646 0.949 . S
C641 H636 0.950 . S
C641 C643 1.327 . S
C641 C647 1.429 . S
C642 C634 1.574 . S
C642 H637 0.949 . S
C642 C648 1.368 . S
C643 C627 1.349 . S
C643 H635 0.950 . S
C643 C641 1.327 . S
C644 C632 1.349 . S
C644 H638 0.950 . S
C644 C645 1.327 . S
C645 H639 0.950 . S
C645 C644 1.327 . S
C645 C649 1.429 . S
C646 C629 1.574 . S
C646 H640 0.949 . S
C646 C650 1.368 . S
C647 C628 1.429 . S
C647 C641 1.429 . S
C647 C648 1.523 . S
C648 C629 1.368 . S
C648 C642 1.368 . S
C648 C647 1.523 . S
C649 C633 1.429 . S
C649 C645 1.429 . S
C649 C650 1.523 . S
C650 C634 1.368 . S
C650 C646 1.368 . S
C650 C649 1.523 . S
H651 C626 0.950 . S
H652 C628 0.950 . S
H653 C629 0.949 . S
H654 C631 0.950 . S
H655 C633 0.950 . S
C656 C657 1.349 . S
C656 C658 1.327 . S
C656 H681 0.950 . S
C657 C656 1.349 . S
C657 C673 1.349 . S
C658 C656 1.327 . S
C658 C677 1.429 . S
C658 H682 0.950 . S
C659 C676 1.574 . S
C659 C678 1.368 . S
C659 H683 0.949 . S
H660 C664 0.949 . S
C661 C662 1.349 . S
C661 C663 1.327 . S
C661 H684 0.950 . S
C662 C661 1.349 . S
C662 C674 1.349 . S
C663 C661 1.327 . S
C663 C679 1.429 . S
C663 H685 0.950 . S
C664 H660 0.949 . S
C664 C672 1.574 . S
C664 C680 1.368 . S
H665 C673 0.950 . S
H666 C671 0.950 . S
H667 C672 0.949 . S
H668 C674 0.950 . S
H669 C675 0.950 . S
H670 C676 0.949 . S
C671 H666 0.950 . S
C671 C673 1.327 . S
C671 C677 1.429 . S
C672 C664 1.574 . S
C672 H667 0.949 . S
C672 C678 1.368 . S
C673 C657 1.349 . S
C673 H665 0.950 . S
C673 C671 1.327 . S
C674 C662 1.349 . S
C674 H668 0.950 . S
C674 C675 1.327 . S
C675 H669 0.950 . S
C675 C674 1.327 . S
C675 C679 1.429 . S
C676 C659 1.574 . S
C676 H670 0.949 . S
C676 C680 1.368 . S
C677 C658 1.429 . S
C677 C671 1.429 . S
C677 C678 1.523 . S
C678 C659 1.368 . S
C678 C672 1.368 . S
C678 C677 1.523 . S
C679 C663 1.429 . S
C679 C675 1.429 . S
C679 C680 1.523 . S
C680 C664 1.368 . S
C680 C676 1.368 . S
C680 C679 1.523 . S
H681 C656 0.950 . S
H682 C658 0.950 . S
H683 C659 0.949 . S
H684 C661 0.950 . S
H685 C663 0.950 . S
C686 C687 1.349 . S
C686 C688 1.327 . S
C686 H711 0.950 . S
C687 C686 1.349 . S
C687 C703 1.349 . S
C688 C686 1.327 . S
C688 C707 1.429 . S
C688 H712 0.950 . S
C689 C706 1.574 . S
C689 C708 1.368 . S
C689 H713 0.949 . S
H690 C694 0.949 . S
C691 C692 1.349 . S
C691 C693 1.327 . S
C691 H714 0.950 . S
C692 C691 1.349 . S
C692 C704 1.349 . S
C693 C691 1.327 . S
C693 C709 1.429 . S
C693 H715 0.950 . S
C694 H690 0.949 . S
C694 C702 1.574 . S
C694 C710 1.368 . S
H695 C703 0.950 . S
H696 C701 0.950 . S
H697 C702 0.949 . S
H698 C704 0.950 1_545 S
H699 C705 0.950 . S
H700 C706 0.949 . S
C701 H696 0.950 . S
C701 C703 1.327 . S
C701 C707 1.429 . S
C702 C694 1.574 . S
C702 H697 0.949 . S
C702 C708 1.368 . S
C703 C687 1.349 . S
C703 H695 0.950 . S
C703 C701 1.327 . S
C704 C692 1.349 . S
C704 H698 0.950 1_565 S
C704 C705 1.327 . S
C705 H699 0.950 . S
C705 C704 1.327 . S
C705 C709 1.429 . S
C706 C689 1.574 . S
C706 H700 0.949 . S
C706 C710 1.368 . S
C707 C688 1.429 . S
C707 C701 1.429 . S
C707 C708 1.523 . S
C708 C689 1.368 . S
C708 C702 1.368 . S
C708 C707 1.523 . S
C709 C693 1.429 . S
C709 C705 1.429 . S
C709 C710 1.523 . S
C710 C694 1.368 . S
C710 C706 1.368 . S
C710 C709 1.523 . S
H711 C686 0.950 . S
H712 C688 0.950 . S
H713 C689 0.949 . S
H714 C691 0.950 . S
H715 C693 0.950 . S
C716 C717 1.349 . S
C716 C718 1.327 . S
C716 H741 0.950 . S
C717 C716 1.349 . S
C717 C733 1.349 . S
C718 C716 1.327 . S
C718 C737 1.429 . S
C718 H742 0.950 . S
C719 C736 1.574 . S
C719 C738 1.368 . S
C719 H743 0.949 . S
H720 C724 0.949 . S
C721 C722 1.349 . S
C721 C723 1.327 . S
C721 H744 0.950 . S
C722 C721 1.349 . S
C722 C734 1.349 . S
C723 C721 1.327 . S
C723 C739 1.429 . S
C723 H745 0.950 . S
C724 H720 0.949 . S
C724 C732 1.574 . S
C724 C740 1.368 . S
H725 C733 0.950 . S
H726 C731 0.950 . S
H727 C732 0.949 . S
H728 C734 0.950 . S
H729 C735 0.950 . S
H730 C736 0.949 . S
C731 H726 0.950 . S
C731 C733 1.327 . S
C731 C737 1.429 . S
C732 C724 1.574 . S
C732 H727 0.949 . S
C732 C738 1.368 . S
C733 C717 1.349 . S
C733 H725 0.950 . S
C733 C731 1.327 . S
C734 C722 1.349 . S
C734 H728 0.950 . S
C734 C735 1.327 . S
C735 H729 0.950 . S
C735 C734 1.327 . S
C735 C739 1.429 . S
C736 C719 1.574 . S
C736 H730 0.949 . S
C736 C740 1.368 . S
C737 C718 1.429 . S
C737 C731 1.429 . S
C737 C738 1.523 . S
C738 C719 1.368 . S
C738 C732 1.368 . S
C738 C737 1.523 . S
C739 C723 1.429 . S
C739 C735 1.429 . S
C739 C740 1.523 . S
C740 C724 1.368 . S
C740 C736 1.368 . S
C740 C739 1.523 . S
H741 C716 0.950 . S
H742 C718 0.950 . S
H743 C719 0.949 . S
H744 C721 0.950 . S
H745 C723 0.950 . S
C746 C747 1.349 . S
C746 C748 1.327 . S
C746 H771 0.950 . S
C747 C746 1.349 . S
C747 C763 1.349 . S
C748 C746 1.327 . S
C748 C767 1.429 . S
C748 H772 0.950 . S
C749 C766 1.574 . S
C749 C768 1.368 . S
C749 H773 0.949 . S
H750 C754 0.949 . S
C751 C752 1.349 . S
C751 C753 1.327 . S
C751 H774 0.950 . S
C752 C751 1.349 . S
C752 C764 1.349 . S
C753 C751 1.327 . S
C753 C769 1.429 . S
C753 H775 0.950 . S
C754 H750 0.949 . S
C754 C762 1.574 . S
C754 C770 1.368 . S
H755 C763 0.950 . S
H756 C761 0.950 . S
H757 C762 0.949 . S
H758 C764 0.950 . S
H759 C765 0.950 . S
H760 C766 0.949 . S
C761 H756 0.950 . S
C761 C763 1.327 . S
C761 C767 1.429 . S
C762 C754 1.574 . S
C762 H757 0.949 . S
C762 C768 1.368 . S
C763 C747 1.349 . S
C763 H755 0.950 . S
C763 C761 1.327 . S
C764 C752 1.349 . S
C764 H758 0.950 . S
C764 C765 1.327 . S
C765 H759 0.950 . S
C765 C764 1.327 . S
C765 C769 1.429 . S
C766 C749 1.574 . S
C766 H760 0.949 . S
C766 C770 1.368 . S
C767 C748 1.429 . S
C767 C761 1.429 . S
C767 C768 1.523 . S
C768 C749 1.368 . S
C768 C762 1.368 . S
C768 C767 1.523 . S
C769 C753 1.429 . S
C769 C765 1.429 . S
C769 C770 1.523 . S
C770 C754 1.368 . S
C770 C766 1.368 . S
C770 C769 1.523 . S
H771 C746 0.950 . S
H772 C748 0.950 . S
H773 C749 0.949 . S
H774 C751 0.950 . S
H775 C753 0.950 . S
C776 C777 1.349 . S
C776 C778 1.327 . S
C776 H801 0.950 . S
C777 C776 1.349 . S
C777 C793 1.349 . S
C778 C776 1.327 . S
C778 C797 1.429 . S
C778 H802 0.950 . S
C779 C796 1.574 . S
C779 C798 1.368 . S
C779 H803 0.949 . S
H780 C784 0.949 . S
C781 C782 1.349 . S
C781 C783 1.327 . S
C781 H804 0.950 . S
C782 C781 1.349 . S
C782 C794 1.349 . S
C783 C781 1.327 . S
C783 C799 1.429 . S
C783 H805 0.950 . S
C784 H780 0.949 . S
C784 C792 1.574 . S
C784 C800 1.368 . S
H785 C793 0.950 . S
H786 C791 0.950 . S
H787 C792 0.949 . S
H788 C794 0.950 . S
H789 C795 0.950 . S
H790 C796 0.949 . S
C791 H786 0.950 . S
C791 C793 1.327 . S
C791 C797 1.429 . S
C792 C784 1.574 . S
C792 H787 0.949 . S
C792 C798 1.368 . S
C793 C777 1.349 . S
C793 H785 0.950 . S
C793 C791 1.327 . S
C794 C782 1.349 . S
C794 H788 0.950 . S
C794 C795 1.327 . S
C795 H789 0.950 . S
C795 C794 1.327 . S
C795 C799 1.429 . S
C796 C779 1.574 . S
C796 H790 0.949 . S
C796 C800 1.368 . S
C797 C778 1.429 . S
C797 C791 1.429 . S
C797 C798 1.523 . S
C798 C779 1.368 . S
C798 C792 1.368 . S
C798 C797 1.523 . S
C799 C783 1.429 . S
C799 C795 1.429 . S
C799 C800 1.523 . S
C800 C784 1.368 . S
C800 C796 1.368 . S
C800 C799 1.523 . S
H801 C776 0.950 . S
H802 C778 0.950 . S
H803 C779 0.949 . S
H804 C781 0.950 . S
H805 C783 0.950 . S
C806 C807 1.349 . S
C806 C808 1.327 . S
C806 H831 0.950 . S
C807 C806 1.349 . S
C807 C823 1.349 . S
C808 C806 1.327 . S
C808 C827 1.429 . S
C808 H832 0.950 . S
C809 C826 1.574 . S
C809 C828 1.368 . S
C809 H833 0.949 . S
H810 C814 0.949 . S
C811 C812 1.349 . S
C811 C813 1.327 . S
C811 H834 0.950 . S
C812 C811 1.349 . S
C812 C824 1.349 . S
C813 C811 1.327 . S
C813 C829 1.429 . S
C813 H835 0.950 . S
C814 H810 0.949 . S
C814 C822 1.574 . S
C814 C830 1.368 . S
H815 C823 0.950 . S
H816 C821 0.950 . S
H817 C822 0.949 . S
H818 C824 0.950 . S
H819 C825 0.950 . S
H820 C826 0.949 . S
C821 H816 0.950 . S
C821 C823 1.327 . S
C821 C827 1.429 . S
C822 C814 1.574 . S
C822 H817 0.949 . S
C822 C828 1.368 . S
C823 C807 1.349 . S
C823 H815 0.950 . S
C823 C821 1.327 . S
C824 C812 1.349 . S
C824 H818 0.950 . S
C824 C825 1.327 . S
C825 H819 0.950 . S
C825 C824 1.327 . S
C825 C829 1.429 . S
C826 C809 1.574 . S
C826 H820 0.949 . S
C826 C830 1.368 . S
C827 C808 1.429 . S
C827 C821 1.429 . S
C827 C828 1.523 . S
C828 C809 1.368 . S
C828 C822 1.368 . S
C828 C827 1.523 . S
C829 C813 1.429 . S
C829 C825 1.429 . S
C829 C830 1.523 . S
C830 C814 1.368 . S
C830 C826 1.368 . S
C830 C829 1.523 . S
H831 C806 0.950 . S
H832 C808 0.950 . S
H833 C809 0.949 . S
H834 C811 0.950 . S
H835 C813 0.950 . S
C836 C837 1.349 . S
C836 C838 1.327 . S
C836 H861 0.950 . S
C837 C836 1.349 . S
C837 C853 1.349 . S
C838 C836 1.327 . S
C838 C857 1.429 . S
C838 H862 0.950 . S
C839 C856 1.574 . S
C839 C858 1.368 . S
C839 H863 0.949 . S
H840 C844 0.949 . S
C841 C842 1.349 . S
C841 C843 1.327 . S
C841 H864 0.950 . S
C842 C841 1.349 . S
C842 C854 1.349 . S
C843 C841 1.327 . S
C843 C859 1.429 . S
C843 H865 0.950 . S
C844 H840 0.949 . S
C844 C852 1.574 . S
C844 C860 1.368 . S
H845 C853 0.950 . S
H846 C851 0.950 . S
H847 C852 0.949 . S
H848 C854 0.950 . S
H849 C855 0.950 . S
H850 C856 0.949 . S
C851 H846 0.950 . S
C851 C853 1.327 . S
C851 C857 1.429 . S
C852 C844 1.574 . S
C852 H847 0.949 . S
C852 C858 1.368 . S
C853 C837 1.349 . S
C853 H845 0.950 . S
C853 C851 1.327 . S
C854 C842 1.349 . S
C854 H848 0.950 . S
C854 C855 1.327 . S
C855 H849 0.950 . S
C855 C854 1.327 . S
C855 C859 1.429 . S
C856 C839 1.574 . S
C856 H850 0.949 . S
C856 C860 1.368 . S
C857 C838 1.429 . S
C857 C851 1.429 . S
C857 C858 1.523 . S
C858 C839 1.368 . S
C858 C852 1.368 . S
C858 C857 1.523 . S
C859 C843 1.429 . S
C859 C855 1.429 . S
C859 C860 1.523 . S
C860 C844 1.368 . S
C860 C856 1.368 . S
C860 C859 1.523 . S
H861 C836 0.950 . S
H862 C838 0.950 . S
H863 C839 0.949 . S
H864 C841 0.950 . S
H865 C843 0.950 . S
C866 C867 1.349 . S
C866 C868 1.327 . S
C866 H891 0.950 . S
C867 C866 1.349 . S
C867 C883 1.349 . S
C868 C866 1.327 . S
C868 C887 1.429 . S
C868 H892 0.950 . S
C869 C886 1.574 . S
C869 C888 1.368 . S
C869 H893 0.949 . S
H870 C874 0.949 . S
C871 C872 1.349 . S
C871 C873 1.327 . S
C871 H894 0.950 . S
C872 C871 1.349 . S
C872 C884 1.349 . S
C873 C871 1.327 . S
C873 C889 1.429 . S
C873 H895 0.950 . S
C874 H870 0.949 . S
C874 C882 1.574 . S
C874 C890 1.368 . S
H875 C883 0.950 . S
H876 C881 0.950 . S
H877 C882 0.949 . S
H878 C884 0.950 . S
H879 C885 0.950 . S
H880 C886 0.949 . S
C881 H876 0.950 . S
C881 C883 1.327 . S
C881 C887 1.429 . S
C882 C874 1.574 . S
C882 H877 0.949 . S
C882 C888 1.368 . S
C883 C867 1.349 . S
C883 H875 0.950 . S
C883 C881 1.327 . S
C884 C872 1.349 . S
C884 H878 0.950 . S
C884 C885 1.327 . S
C885 H879 0.950 . S
C885 C884 1.327 . S
C885 C889 1.429 . S
C886 C869 1.574 . S
C886 H880 0.949 . S
C886 C890 1.368 . S
C887 C868 1.429 . S
C887 C881 1.429 . S
C887 C888 1.523 . S
C888 C869 1.368 . S
C888 C882 1.368 . S
C888 C887 1.523 . S
C889 C873 1.429 . S
C889 C885 1.429 . S
C889 C890 1.523 . S
C890 C874 1.368 . S
C890 C886 1.368 . S
C890 C889 1.523 . S
H891 C866 0.950 . S
H892 C868 0.950 . S
H893 C869 0.949 . S
H894 C871 0.950 . S
H895 C873 0.950 . S
C896 C897 1.349 . S
C896 C898 1.327 . S
C896 H921 0.950 . S
C897 C896 1.349 . S
C897 C913 1.349 . S
C898 C896 1.327 . S
C898 C917 1.429 . S
C898 H922 0.950 . S
C899 C916 1.574 . S
C899 C918 1.368 . S
C899 H923 0.949 . S
H900 C904 0.949 . S
C901 C902 1.349 . S
C901 C903 1.327 . S
C901 H924 0.950 . S
C902 C901 1.349 . S
C902 C914 1.349 . S
C903 C901 1.327 . S
C903 C919 1.429 . S
C903 H925 0.950 . S
C904 H900 0.949 . S
C904 C912 1.574 . S
C904 C920 1.368 . S
H905 C913 0.950 . S
H906 C911 0.950 . S
H907 C912 0.949 . S
H908 C914 0.950 . S
H909 C915 0.950 . S
H910 C916 0.949 . S
C911 H906 0.950 . S
C911 C913 1.327 . S
C911 C917 1.429 . S
C912 C904 1.574 . S
C912 H907 0.949 . S
C912 C918 1.368 . S
C913 C897 1.349 . S
C913 H905 0.950 . S
C913 C911 1.327 . S
C914 C902 1.349 . S
C914 H908 0.950 . S
C914 C915 1.327 . S
C915 H909 0.950 . S
C915 C914 1.327 . S
C915 C919 1.429 . S
C916 C899 1.574 . S
C916 H910 0.949 . S
C916 C920 1.368 . S
C917 C898 1.429 . S
C917 C911 1.429 . S
C917 C918 1.523 . S
C918 C899 1.368 . S
C918 C912 1.368 . S
C918 C917 1.523 . S
C919 C903 1.429 . S
C919 C915 1.429 . S
C919 C920 1.523 . S
C920 C904 1.368 . S
C920 C916 1.368 . S
C920 C919 1.523 . S
H921 C896 0.950 . S
H922 C898 0.950 . S
H923 C899 0.949 . S
H924 C901 0.950 . S
H925 C903 0.950 . S
C926 C927 1.349 . S
C926 C928 1.327 . S
C926 H951 0.950 . S
C927 C926 1.349 . S
C927 C943 1.349 . S
C928 C926 1.327 . S
C928 C947 1.429 . S
C928 H952 0.950 . S
C929 C946 1.574 . S
C929 C948 1.368 . S
C929 H953 0.949 . S
H930 C934 0.949 . S
C931 C932 1.349 . S
C931 C933 1.327 . S
C931 H954 0.950 . S
C932 C931 1.349 . S
C932 C944 1.349 . S
C933 C931 1.327 . S
C933 C949 1.429 . S
C933 H955 0.950 . S
C934 H930 0.949 . S
C934 C942 1.574 . S
C934 C950 1.368 . S
H935 C943 0.950 . S
H936 C941 0.950 . S
H937 C942 0.949 . S
H938 C944 0.950 . S
H939 C945 0.950 . S
H940 C946 0.949 . S
C941 H936 0.950 . S
C941 C943 1.327 . S
C941 C947 1.429 . S
C942 C934 1.574 . S
C942 H937 0.949 . S
C942 C948 1.368 . S
C943 C927 1.349 . S
C943 H935 0.950 . S
C943 C941 1.327 . S
C944 C932 1.349 . S
C944 H938 0.950 . S
C944 C945 1.327 . S
C945 H939 0.950 . S
C945 C944 1.327 . S
C945 C949 1.429 . S
C946 C929 1.574 . S
C946 H940 0.949 . S
C946 C950 1.368 . S
C947 C928 1.429 . S
C947 C941 1.429 . S
C947 C948 1.523 . S
C948 C929 1.368 . S
C948 C942 1.368 . S
C948 C947 1.523 . S
C949 C933 1.429 . S
C949 C945 1.429 . S
C949 C950 1.523 . S
C950 C934 1.368 . S
C950 C946 1.368 . S
C950 C949 1.523 . S
H951 C926 0.950 . S
H952 C928 0.950 . S
H953 C929 0.949 . S
H954 C931 0.950 . S
H955 C933 0.950 . S
C956 C957 1.349 . S
C956 C958 1.327 . S
C956 H981 0.950 . S
C957 C956 1.349 . S
C957 C973 1.349 . S
C958 C956 1.327 . S
C958 C977 1.429 . S
C958 H982 0.950 . S
C959 C976 1.574 . S
C959 C978 1.368 . S
C959 H983 0.949 . S
H960 C964 0.949 . S
C961 C962 1.349 . S
C961 C963 1.327 . S
C961 H984 0.950 . S
C962 C961 1.349 . S
C962 C974 1.349 . S
C963 C961 1.327 . S
C963 C979 1.429 . S
C963 H985 0.950 . S
C964 H960 0.949 . S
C964 C972 1.574 . S
C964 C980 1.368 . S
H965 C973 0.950 . S
H966 C971 0.950 . S
H967 C972 0.949 . S
H968 C974 0.950 . S
H969 C975 0.950 . S
H970 C976 0.949 . S
C971 H966 0.950 . S
C971 C973 1.327 . S
C971 C977 1.429 . S
C972 C964 1.574 . S
C972 H967 0.949 . S
C972 C978 1.368 . S
C973 C957 1.349 . S
C973 H965 0.950 . S
C973 C971 1.327 . S
C974 C962 1.349 . S
C974 H968 0.950 . S
C974 C975 1.327 . S
C975 H969 0.950 . S
C975 C974 1.327 . S
C975 C979 1.429 . S
C976 C959 1.574 . S
C976 H970 0.949 . S
C976 C980 1.368 . S
C977 C958 1.429 . S
C977 C971 1.429 . S
C977 C978 1.523 . S
C978 C959 1.368 . S
C978 C972 1.368 . S
C978 C977 1.523 . S
C979 C963 1.429 . S
C979 C975 1.429 . S
C979 C980 1.523 . S
C980 C964 1.368 . S
C980 C976 1.368 . S
C980 C979 1.523 . S
H981 C956 0.950 . S
H982 C958 0.950 . S
H983 C959 0.949 . S
H984 C961 0.950 . S
H985 C963 0.950 . S
C986 C987 1.349 . S
C986 C988 1.327 . S
C986 H1011 0.950 . S
C987 C986 1.349 . S
C987 C1003 1.349 . S
C988 C986 1.327 . S
C988 C1007 1.429 . S
C988 H1012 0.950 . S
C989 C1006 1.574 . S
C989 C1008 1.368 . S
C989 H1013 0.949 . S
H990 C994 0.949 . S
C991 C992 1.349 . S
C991 C993 1.327 . S
C991 H1014 0.950 . S
C992 C991 1.349 . S
C992 C1004 1.349 . S
C993 C991 1.327 . S
C993 C1009 1.429 . S
C993 H1015 0.950 . S
C994 H990 0.949 . S
C994 C1002 1.574 . S
C994 C1010 1.368 . S
H995 C1003 0.950 . S
H996 C1001 0.950 . S
H997 C1002 0.949 . S
H998 C1004 0.950 . S
H999 C1005 0.950 . S
H1000 C1006 0.949 . S
C1001 H996 0.950 . S
C1001 C1003 1.327 . S
C1001 C1007 1.429 . S
C1002 C994 1.574 . S
C1002 H997 0.949 . S
C1002 C1008 1.368 . S
C1003 C987 1.349 . S
C1003 H995 0.950 . S
C1003 C1001 1.327 . S
C1004 C992 1.349 . S
C1004 H998 0.950 . S
C1004 C1005 1.327 . S
C1005 H999 0.950 . S
C1005 C1004 1.327 . S
C1005 C1009 1.429 . S
C1006 C989 1.574 . S
C1006 H1000 0.949 . S
C1006 C1010 1.368 . S
C1007 C988 1.429 . S
C1007 C1001 1.429 . S
C1007 C1008 1.523 . S
C1008 C989 1.368 . S
C1008 C1002 1.368 . S
C1008 C1007 1.523 . S
C1009 C993 1.429 . S
C1009 C1005 1.429 . S
C1009 C1010 1.523 . S
C1010 C994 1.368 . S
C1010 C1006 1.368 . S
C1010 C1009 1.523 . S
H1011 C986 0.950 . S
H1012 C988 0.950 . S
H1013 C989 0.949 . S
H1014 C991 0.950 . S
H1015 C993 0.950 . S
C1016 C1017 1.349 . S
C1016 C1018 1.327 . S
C1016 H1041 0.950 . S
C1017 C1016 1.349 . S
C1017 C1033 1.349 . S
C1018 C1016 1.327 . S
C1018 C1037 1.429 . S
C1018 H1042 0.950 . S
C1019 C1036 1.574 . S
C1019 C1038 1.368 . S
C1019 H1043 0.949 . S
H1020 C1024 0.949 . S
C1021 C1022 1.349 . S
C1021 C1023 1.327 . S
C1021 H1044 0.950 . S
C1022 C1021 1.349 . S
C1022 C1034 1.349 . S
C1023 C1021 1.327 . S
C1023 C1039 1.429 . S
C1023 H1045 0.950 . S
C1024 H1020 0.949 . S
C1024 C1032 1.574 . S
C1024 C1040 1.368 . S
H1025 C1033 0.950 . S
H1026 C1031 0.950 . S
H1027 C1032 0.949 . S
H1028 C1034 0.950 . S
H1029 C1035 0.950 . S
H1030 C1036 0.949 . S
C1031 H1026 0.950 . S
C1031 C1033 1.327 . S
C1031 C1037 1.429 . S
C1032 C1024 1.574 . S
C1032 H1027 0.949 . S
C1032 C1038 1.368 . S
C1033 C1017 1.349 . S
C1033 H1025 0.950 . S
C1033 C1031 1.327 . S
C1034 C1022 1.349 . S
C1034 H1028 0.950 . S
C1034 C1035 1.327 . S
C1035 H1029 0.950 . S
C1035 C1034 1.327 . S
C1035 C1039 1.429 . S
C1036 C1019 1.574 . S
C1036 H1030 0.949 . S
C1036 C1040 1.368 . S
C1037 C1018 1.429 . S
C1037 C1031 1.429 . S
C1037 C1038 1.523 . S
C1038 C1019 1.368 . S
C1038 C1032 1.368 . S
C1038 C1037 1.523 . S
C1039 C1023 1.429 . S
C1039 C1035 1.429 . S
C1039 C1040 1.523 . S
C1040 C1024 1.368 . S
C1040 C1036 1.368 . S
C1040 C1039 1.523 . S
H1041 C1016 0.950 . S
H1042 C1018 0.950 . S
H1043 C1019 0.949 . S
H1044 C1021 0.950 . S
H1045 C1023 0.950 . S
C1046 C1047 1.349 . S
C1046 C1048 1.327 . S
C1046 H1071 0.950 . S
C1047 C1046 1.349 . S
C1047 C1063 1.349 . S
C1048 C1046 1.327 . S
C1048 C1067 1.429 . S
C1048 H1072 0.950 . S
C1049 C1066 1.574 . S
C1049 C1068 1.368 . S
C1049 H1073 0.949 . S
H1050 C1054 0.949 . S
C1051 C1052 1.349 . S
C1051 C1053 1.327 . S
C1051 H1074 0.950 . S
C1052 C1051 1.349 . S
C1052 C1064 1.349 . S
C1053 C1051 1.327 . S
C1053 C1069 1.429 . S
C1053 H1075 0.950 . S
C1054 H1050 0.949 . S
C1054 C1062 1.574 . S
C1054 C1070 1.368 . S
H1055 C1063 0.950 . S
H1056 C1061 0.950 . S
H1057 C1062 0.949 . S
H1058 C1064 0.950 . S
H1059 C1065 0.950 . S
H1060 C1066 0.949 . S
C1061 H1056 0.950 . S
C1061 C1063 1.327 . S
C1061 C1067 1.429 . S
C1062 C1054 1.574 . S
C1062 H1057 0.949 . S
C1062 C1068 1.368 . S
C1063 C1047 1.349 . S
C1063 H1055 0.950 . S
C1063 C1061 1.327 . S
C1064 C1052 1.349 . S
C1064 H1058 0.950 . S
C1064 C1065 1.327 . S
C1065 H1059 0.950 . S
C1065 C1064 1.327 . S
C1065 C1069 1.429 . S
C1066 C1049 1.574 . S
C1066 H1060 0.949 . S
C1066 C1070 1.368 . S
C1067 C1048 1.429 . S
C1067 C1061 1.429 . S
C1067 C1068 1.523 . S
C1068 C1049 1.368 . S
C1068 C1062 1.368 . S
C1068 C1067 1.523 . S
C1069 C1053 1.429 . S
C1069 C1065 1.429 . S
C1069 C1070 1.523 . S
C1070 C1054 1.368 . S
C1070 C1066 1.368 . S
C1070 C1069 1.523 . S
H1071 C1046 0.950 . S
H1072 C1048 0.950 . S
H1073 C1049 0.949 . S
H1074 C1051 0.950 . S
H1075 C1053 0.950 . S
C1076 C1077 1.349 . S
C1076 C1078 1.327 . S
C1076 H1101 0.950 . S
C1077 C1076 1.349 . S
C1077 C1093 1.349 . S
C1078 C1076 1.327 . S
C1078 C1097 1.429 . S
C1078 H1102 0.950 . S
C1079 C1096 1.574 . S
C1079 C1098 1.368 . S
C1079 H1103 0.949 . S
H1080 C1084 0.949 . S
C1081 C1082 1.349 . S
C1081 C1083 1.327 . S
C1081 H1104 0.950 . S
C1082 C1081 1.349 . S
C1082 C1094 1.349 . S
C1083 C1081 1.327 . S
C1083 C1099 1.429 . S
C1083 H1105 0.950 . S
C1084 H1080 0.949 . S
C1084 C1092 1.574 . S
C1084 C1100 1.368 . S
H1085 C1093 0.950 . S
H1086 C1091 0.950 . S
H1087 C1092 0.949 . S
H1088 C1094 0.950 . S
H1089 C1095 0.950 . S
H1090 C1096 0.949 . S
C1091 H1086 0.950 . S
C1091 C1093 1.327 . S
C1091 C1097 1.429 . S
C1092 C1084 1.574 . S
C1092 H1087 0.949 . S
C1092 C1098 1.368 . S
C1093 C1077 1.349 . S
C1093 H1085 0.950 . S
C1093 C1091 1.327 . S
C1094 C1082 1.349 . S
C1094 H1088 0.950 . S
C1094 C1095 1.327 . S
C1095 H1089 0.950 . S
C1095 C1094 1.327 . S
C1095 C1099 1.429 . S
C1096 C1079 1.574 . S
C1096 H1090 0.949 . S
C1096 C1100 1.368 . S
C1097 C1078 1.429 . S
C1097 C1091 1.429 . S
C1097 C1098 1.523 . S
C1098 C1079 1.368 . S
C1098 C1092 1.368 . S
C1098 C1097 1.523 . S
C1099 C1083 1.429 . S
C1099 C1095 1.429 . S
C1099 C1100 1.523 . S
C1100 C1084 1.368 . S
C1100 C1096 1.368 . S
C1100 C1099 1.523 . S
H1101 C1076 0.950 . S
H1102 C1078 0.950 . S
H1103 C1079 0.949 . S
H1104 C1081 0.950 . S
H1105 C1083 0.950 . S
C1106 C1107 1.349 . S
C1106 C1108 1.327 . S
C1106 H1131 0.950 . S
C1107 C1106 1.349 . S
C1107 C1123 1.349 . S
C1108 C1106 1.327 . S
C1108 C1127 1.429 . S
C1108 H1132 0.950 . S
C1109 C1126 1.574 . S
C1109 C1128 1.368 . S
C1109 H1133 0.949 . S
H1110 C1114 0.949 . S
C1111 C1112 1.349 . S
C1111 C1113 1.327 . S
C1111 H1134 0.950 . S
C1112 C1111 1.349 . S
C1112 C1124 1.349 . S
C1113 C1111 1.327 . S
C1113 C1129 1.429 . S
C1113 H1135 0.950 . S
C1114 H1110 0.949 . S
C1114 C1122 1.574 . S
C1114 C1130 1.368 . S
H1115 C1123 0.950 . S
H1116 C1121 0.950 . S
H1117 C1122 0.949 . S
H1118 C1124 0.950 . S
H1119 C1125 0.950 . S
H1120 C1126 0.949 . S
C1121 H1116 0.950 . S
C1121 C1123 1.327 . S
C1121 C1127 1.429 . S
C1122 C1114 1.574 . S
C1122 H1117 0.949 . S
C1122 C1128 1.368 . S
C1123 C1107 1.349 . S
C1123 H1115 0.950 . S
C1123 C1121 1.327 . S
C1124 C1112 1.349 . S
C1124 H1118 0.950 . S
C1124 C1125 1.327 . S
C1125 H1119 0.950 . S
C1125 C1124 1.327 . S
C1125 C1129 1.429 . S
C1126 C1109 1.574 . S
C1126 H1120 0.949 . S
C1126 C1130 1.368 . S
C1127 C1108 1.429 . S
C1127 C1121 1.429 . S
C1127 C1128 1.523 . S
C1128 C1109 1.368 . S
C1128 C1122 1.368 . S
C1128 C1127 1.523 . S
C1129 C1113 1.429 . S
C1129 C1125 1.429 . S
C1129 C1130 1.523 . S
C1130 C1114 1.368 . S
C1130 C1126 1.368 . S
C1130 C1129 1.523 . S
H1131 C1106 0.950 . S
H1132 C1108 0.950 . S
H1133 C1109 0.949 . S
H1134 C1111 0.950 . S
H1135 C1113 0.950 . S
C1136 C1137 1.349 . S
C1136 C1138 1.327 . S
C1136 H1161 0.950 . S
C1137 C1136 1.349 . S
C1137 C1153 1.349 . S
C1138 C1136 1.327 . S
C1138 C1157 1.429 . S
C1138 H1162 0.950 . S
C1139 C1156 1.574 . S
C1139 C1158 1.368 . S
C1139 H1163 0.949 . S
H1140 C1144 0.949 . S
C1141 C1142 1.349 . S
C1141 C1143 1.327 . S
C1141 H1164 0.950 . S
C1142 C1141 1.349 . S
C1142 C1154 1.349 . S
C1143 C1141 1.327 . S
C1143 C1159 1.429 . S
C1143 H1165 0.950 . S
C1144 H1140 0.949 . S
C1144 C1152 1.574 . S
C1144 C1160 1.368 . S
H1145 C1153 0.950 . S
H1146 C1151 0.950 . S
H1147 C1152 0.949 . S
H1148 C1154 0.950 . S
H1149 C1155 0.950 . S
H1150 C1156 0.949 . S
C1151 H1146 0.950 . S
C1151 C1153 1.327 . S
C1151 C1157 1.429 . S
C1152 C1144 1.574 . S
C1152 H1147 0.949 . S
C1152 C1158 1.368 . S
C1153 C1137 1.349 . S
C1153 H1145 0.950 . S
C1153 C1151 1.327 . S
C1154 C1142 1.349 . S
C1154 H1148 0.950 . S
C1154 C1155 1.327 . S
C1155 H1149 0.950 . S
C1155 C1154 1.327 . S
C1155 C1159 1.429 . S
C1156 C1139 1.574 . S
C1156 H1150 0.949 . S
C1156 C1160 1.368 . S
C1157 C1138 1.429 . S
C1157 C1151 1.429 . S
C1157 C1158 1.523 . S
C1158 C1139 1.368 . S
C1158 C1152 1.368 . S
C1158 C1157 1.523 . S
C1159 C1143 1.429 . S
C1159 C1155 1.429 . S
C1159 C1160 1.523 . S
C1160 C1144 1.368 . S
C1160 C1156 1.368 . S
C1160 C1159 1.523 . S
H1161 C1136 0.950 . S
H1162 C1138 0.950 . S
H1163 C1139 0.949 . S
H1164 C1141 0.950 . S
H1165 C1143 0.950 . S
C1166 C1167 1.349 . S
C1166 C1168 1.327 . S
C1166 H1191 0.950 . S
C1167 C1166 1.349 . S
C1167 C1183 1.349 . S
C1168 C1166 1.327 . S
C1168 C1187 1.429 . S
C1168 H1192 0.950 . S
C1169 C1186 1.574 . S
C1169 C1188 1.368 . S
C1169 H1193 0.949 . S
H1170 C1174 0.949 . S
C1171 C1172 1.349 . S
C1171 C1173 1.327 . S
C1171 H1194 0.950 . S
C1172 C1171 1.349 . S
C1172 C1184 1.349 . S
C1173 C1171 1.327 . S
C1173 C1189 1.429 . S
C1173 H1195 0.950 . S
C1174 H1170 0.949 . S
C1174 C1182 1.574 . S
C1174 C1190 1.368 . S
H1175 C1183 0.950 . S
H1176 C1181 0.950 . S
H1177 C1182 0.949 . S
H1178 C1184 0.950 . S
H1179 C1185 0.950 . S
H1180 C1186 0.949 . S
C1181 H1176 0.950 . S
C1181 C1183 1.327 . S
C1181 C1187 1.429 . S
C1182 C1174 1.574 . S
C1182 H1177 0.949 . S
C1182 C1188 1.368 . S
C1183 C1167 1.349 . S
C1183 H1175 0.950 . S
C1183 C1181 1.327 . S
C1184 C1172 1.349 . S
C1184 H1178 0.950 . S
C1184 C1185 1.327 . S
C1185 H1179 0.950 . S
C1185 C1184 1.327 . S
C1185 C1189 1.429 . S
C1186 C1169 1.574 . S
C1186 H1180 0.949 . S
C1186 C1190 1.368 . S
C1187 C1168 1.429 . S
C1187 C1181 1.429 . S
C1187 C1188 1.523 . S
C1188 C1169 1.368 . S
C1188 C1182 1.368 . S
C1188 C1187 1.523 . S
C1189 C1173 1.429 . S
C1189 C1185 1.429 . S
C1189 C1190 1.523 . S
C1190 C1174 1.368 . S
C1190 C1186 1.368 . S
C1190 C1189 1.523 . S
H1191 C1166 0.950 . S
H1192 C1168 0.950 . S
H1193 C1169 0.949 . S
H1194 C1171 0.950 . S
H1195 C1173 0.950 . S
C1196 C1197 1.349 . S
C1196 C1198 1.327 . S
C1196 H1221 0.950 . S
C1197 C1196 1.349 . S
C1197 C1213 1.349 . S
C1198 C1196 1.327 . S
C1198 C1217 1.429 . S
C1198 H1222 0.950 . S
C1199 C1216 1.574 . S
C1199 C1218 1.368 . S
C1199 H1223 0.949 . S
H1200 C1204 0.949 . S
C1201 C1202 1.349 . S
C1201 C1203 1.327 . S
C1201 H1224 0.950 . S
C1202 C1201 1.349 . S
C1202 C1214 1.349 . S
C1203 C1201 1.327 . S
C1203 C1219 1.429 . S
C1203 H1225 0.950 . S
C1204 H1200 0.949 . S
C1204 C1212 1.574 . S
C1204 C1220 1.368 . S
H1205 C1213 0.950 . S
H1206 C1211 0.950 . S
H1207 C1212 0.949 . S
H1208 C1214 0.950 . S
H1209 C1215 0.950 . S
H1210 C1216 0.949 . S
C1211 H1206 0.950 . S
C1211 C1213 1.327 . S
C1211 C1217 1.429 . S
C1212 C1204 1.574 . S
C1212 H1207 0.949 . S
C1212 C1218 1.368 . S
C1213 C1197 1.349 . S
C1213 H1205 0.950 . S
C1213 C1211 1.327 . S
C1214 C1202 1.349 . S
C1214 H1208 0.950 . S
C1214 C1215 1.327 . S
C1215 H1209 0.950 . S
C1215 C1214 1.327 . S
C1215 C1219 1.429 . S
C1216 C1199 1.574 . S
C1216 H1210 0.949 . S
C1216 C1220 1.368 . S
C1217 C1198 1.429 . S
C1217 C1211 1.429 . S
C1217 C1218 1.523 . S
C1218 C1199 1.368 . S
C1218 C1212 1.368 . S
C1218 C1217 1.523 . S
C1219 C1203 1.429 . S
C1219 C1215 1.429 . S
C1219 C1220 1.523 . S
C1220 C1204 1.368 . S
C1220 C1216 1.368 . S
C1220 C1219 1.523 . S
H1221 C1196 0.950 . S
H1222 C1198 0.950 . S
H1223 C1199 0.949 . S
H1224 C1201 0.950 . S
H1225 C1203 0.950 . S
C1226 C1227 1.349 . S
C1226 C1228 1.327 . S
C1226 H1251 0.950 . S
C1227 C1226 1.349 . S
C1227 C1243 1.349 . S
C1228 C1226 1.327 . S
C1228 C1247 1.429 . S
C1228 H1252 0.950 . S
C1229 C1246 1.574 . S
C1229 C1248 1.368 . S
C1229 H1253 0.949 . S
H1230 C1234 0.949 . S
C1231 C1232 1.349 . S
C1231 C1233 1.327 . S
C1231 H1254 0.950 . S
C1232 C1231 1.349 . S
C1232 C1244 1.349 . S
C1233 C1231 1.327 . S
C1233 C1249 1.429 . S
C1233 H1255 0.950 . S
C1234 H1230 0.949 . S
C1234 C1242 1.574 . S
C1234 C1250 1.368 . S
H1235 C1243 0.950 . S
H1236 C1241 0.950 . S
H1237 C1242 0.949 . S
H1238 C1244 0.950 . S
H1239 C1245 0.950 . S
H1240 C1246 0.949 . S
C1241 H1236 0.950 . S
C1241 C1243 1.327 . S
C1241 C1247 1.429 . S
C1242 C1234 1.574 . S
C1242 H1237 0.949 . S
C1242 C1248 1.368 . S
C1243 C1227 1.349 . S
C1243 H1235 0.950 . S
C1243 C1241 1.327 . S
C1244 C1232 1.349 . S
C1244 H1238 0.950 . S
C1244 C1245 1.327 . S
C1245 H1239 0.950 . S
C1245 C1244 1.327 . S
C1245 C1249 1.429 . S
C1246 C1229 1.574 . S
C1246 H1240 0.949 . S
C1246 C1250 1.368 . S
C1247 C1228 1.429 . S
C1247 C1241 1.429 . S
C1247 C1248 1.523 . S
C1248 C1229 1.368 . S
C1248 C1242 1.368 . S
C1248 C1247 1.523 . S
C1249 C1233 1.429 . S
C1249 C1245 1.429 . S
C1249 C1250 1.523 . S
C1250 C1234 1.368 . S
C1250 C1246 1.368 . S
C1250 C1249 1.523 . S
H1251 C1226 0.950 . S
H1252 C1228 0.950 . S
H1253 C1229 0.949 . S
H1254 C1231 0.950 . S
H1255 C1233 0.950 . S
C302 C185 1.568 . S
C297 C16 1.570 . S
C332 C211 1.570 . S
C327 C30 1.577 . S
C362 C225 1.578 . S
C357 C53 1.585 . S
C392 C227 1.609 . S
C387 C76 1.617 . S
C417 N104 1.431 . S
C422 C224 1.464 . S
C452 C226 1.496 . S
C447 N127 1.460 . S
C482 C184 1.468 1_655 S
C477 N140 1.435 . S
C512 C210 1.460 1_565 S
C507 N173 1.426 . S
C542 C212 1.582 . S
C537 C168 1.587 . S
C572 C238 1.588 . S
C567 C99 1.591 . S
C602 C196 1.575 . S
C597 C122 1.579 . S
C632 C198 1.555 . S
C627 C154 1.552 . S
C662 C197 1.476 1_655 S
C657 N35 1.442 . S
C692 C199 1.460 1_565 S
C687 N58 1.424 . S
C722 C213 1.469 . S
C717 N81 1.434 . S
C752 C239 1.488 . S
C747 N2 1.455 . S
C782 C241 1.564 . S
C777 C177 1.565 . S
C807 C108 1.574 . S
C812 C267 1.569 . S
C837 C131 1.573 . S
C842 C280 1.572 . S
C867 C145 1.602 . S
C872 C283 1.595 . S
C897 N25 1.436 . S
C902 C281 1.468 . S
C927 N48 1.467 . S
C932 C282 1.495 . S
C957 N71 1.442 . S
C962 C240 1.474 . S
C992 C266 1.476 . S
C987 N12 1.440 . S
C1022 C269 1.581 . S
C1017 C7 1.585 . S
C1047 C39 1.578 . S
C1052 C294 1.581 . S
C1077 C62 1.568 . S
C1082 C252 1.571 . S
C1107 C85 1.558 . S
C1112 C254 1.560 . S
C1142 C253 1.476 . S
C1137 N94 1.437 . S
C1172 C255 1.464 . S
C1167 N117 1.430 . S
C1197 N150 1.438 . S
C1202 C268 1.473 . S
C1232 C295 1.485 . S
C1227 N163 1.448 . S
