# Generated by pormake.
# Topology anh, (6,3)-cn, num edge types: 1
# Building blocks:
#     Node 0, Type 0, BuildingBlock: BETFEN_clean_sbu_0, # of connection points: 6
#     Node 1, Type 0, BuildingBlock: BETFEN_clean_sbu_0, # of connection points: 6
#     Node 2, Type 0, BuildingBlock: BETFEN_clean_sbu_0, # of connection points: 6
#     Node 3, Type 1, BuildingBlock: WUSLED_clean_sbu_0, # of connection points: 3
#     Node 4, Type 1, BuildingBlock: WUSLED_clean_sbu_0, # of connection points: 3
#     Node 5, Type 1, BuildingBlock: WUSLED_clean_sbu_0, # of connection points: 3
#     Node 6, Type 1, BuildingBlock: WUSLED_clean_sbu_0, # of connection points: 3
#     Node 7, Type 1, BuildingBlock: WUSLED_clean_sbu_0, # of connection points: 3
#     Node 8, Type 1, BuildingBlock: WUSLED_clean_sbu_0, # of connection points: 3
#     Edge 9, Type (0, 1), BuildingBlock: CIFDUS_clean_linker_0, # of connection points: 2
#     Edge 10, Type (0, 1), BuildingBlock: CIFDUS_clean_linker_0, # of connection points: 2
#     Edge 11, Type (0, 1), BuildingBlock: CIFDUS_clean_linker_0, # of connection points: 2
#     Edge 12, Type (0, 1), BuildingBlock: CIFDUS_clean_linker_0, # of connection points: 2
#     Edge 13, Type (0, 1), BuildingBlock: CIFDUS_clean_linker_0, # of connection points: 2
#     Edge 14, Type (0, 1), BuildingBlock: CIFDUS_clean_linker_0, # of connection points: 2
#     Edge 15, Type (0, 1), BuildingBlock: CIFDUS_clean_linker_0, # of connection points: 2
#     Edge 16, Type (0, 1), BuildingBlock: CIFDUS_clean_linker_0, # of connection points: 2
#     Edge 17, Type (0, 1), BuildingBlock: CIFDUS_clean_linker_0, # of connection points: 2
#     Edge 18, Type (0, 1), BuildingBlock: CIFDUS_clean_linker_0, # of connection points: 2
#     Edge 19, Type (0, 1), BuildingBlock: CIFDUS_clean_linker_0, # of connection points: 2
#     Edge 20, Type (0, 1), BuildingBlock: CIFDUS_clean_linker_0, # of connection points: 2
#     Edge 21, Type (0, 1), BuildingBlock: CIFDUS_clean_linker_0, # of connection points: 2
#     Edge 22, Type (0, 1), BuildingBlock: CIFDUS_clean_linker_0, # of connection points: 2
#     Edge 23, Type (0, 1), BuildingBlock: CIFDUS_clean_linker_0, # of connection points: 2
#     Edge 24, Type (0, 1), BuildingBlock: CIFDUS_clean_linker_0, # of connection points: 2
#     Edge 25, Type (0, 1), BuildingBlock: CIFDUS_clean_linker_0, # of connection points: 2
#     Edge 26, Type (0, 1), BuildingBlock: CIFDUS_clean_linker_0, # of connection points: 2
# Relax obj value: 0.179
# Max RMSD: 0.206
# Mean RMSD: 0.151
data_MOF--net-anh--node1-BETFEN_clean_sbu_0--node2-WUSLED_clean_sbu_0--edge1-CIFDUS_clean_linker_0
_symmetry_space_group_name_H-M    P1
_symmetry_Int_Tables_number       1
_symmetry_cell_setting            triclinic
loop_
_symmetry_equiv_pos_as_xyz
'x, y, z'
_cell_length_a     34.604034
_cell_length_b     35.781483
_cell_length_c     63.235368
_cell_angle_alpha  89.252936
_cell_angle_beta   92.882319
_cell_angle_gamma 106.55854
loop_
_atom_site_label
_atom_site_type_symbol
_atom_site_fract_x
_atom_site_fract_y
_atom_site_fract_z
_atom_type_partial_charge
Pr0 Pr 1.02858 0.54197 0.16067 0.0
Pr1 Pr 0.06222 0.62818 0.15457 0.0
C2 C 0.99049 0.47088 0.17579 0.0
C3 C 0.95061 0.44183 0.17714 0.0
C4 C 0.92808 0.42405 0.15899 0.0
C5 C 0.89187 0.39448 0.16092 0.0
C6 C 0.87745 0.38219 0.18101 0.0
C7 C 0.89966 0.40069 0.19909 0.0
C8 C 0.93586 0.43008 0.19716 0.0
C9 C 1.03898 0.5621 0.1181 0.0
C10 C 0.96473 0.59536 0.15094 0.0
C11 C 0.10372 0.70222 0.14563 0.0
C12 C 0.13709 0.73306 0.15577 0.0
C13 C 0.13748 0.74167 0.1774 0.0
C14 C 0.16901 0.77126 0.18673 0.0
C15 C 0.201 0.79265 0.17468 0.0
C16 C 0.20098 0.78345 0.15312 0.0
C17 C 0.16921 0.754 0.14375 0.0
C18 C 0.05372 0.60541 0.19712 0.0
C19 C 0.12487 0.57299 0.15558 0.0
O20 O 0.99689 0.50298 0.1868 0.0
O21 O 1.00717 0.47632 0.15745 0.0
O22 O 1.02565 0.58095 0.13132 0.0
O23 O 0.04489 0.53063 0.12639 0.0
O24 O 0.99556 0.62257 0.14378 0.0
O25 O 0.97023 0.56407 0.16053 0.0
O26 O 0.11296 0.67198 0.13839 0.0
O27 O 0.06928 0.69292 0.15486 0.0
O28 O 0.06758 0.58875 0.18319 0.0
O29 O 0.04511 0.63596 0.18949 0.0
O30 O 0.09701 0.54579 0.16498 0.0
O31 O 0.11685 0.60441 0.14774 0.0
H32 H 0.93864 0.43253 0.14332 0.0
H33 H 0.87524 0.3811 0.14668 0.0
H34 H 0.88974 0.3916 0.21481 0.0
H35 H 0.95283 0.44312 0.2114 0.0
H36 H 0.11341 0.7256 0.18715 0.0
H37 H 0.16851 0.77722 0.20345 0.0
H38 H 0.22511 0.79953 0.14342 0.0
H39 H 0.16962 0.74768 0.12706 0.0
Pr40 Pr 0.60621 0.08816 0.52792 0.0
Pr41 Pr 0.51495 0.06721 0.52801 0.0
C42 C 0.68395 0.12099 0.51861 0.0
C43 C 0.71282 0.15988 0.51477 0.0
C44 C 0.73637 0.18169 0.5316 0.0
C45 C 0.76535 0.2171 0.52782 0.0
C46 C 0.77181 0.2316 0.5071 0.0
C47 C 0.74781 0.21007 0.49029 0.0
C48 C 0.71879 0.17462 0.49407 0.0
C49 C 0.57544 0.07335 0.56781 0.0
C50 C 0.56059 0.16084 0.53183 0.0
C51 C 0.43586 1.03155 0.53249 0.0
C52 C 0.4074 0.99532 0.52363 0.0
C53 C 0.40651 0.9864 0.502 0.0
C54 C 0.38092 0.9514 0.49388 0.0
C55 C 0.3558 0.92411 0.50717 0.0
C56 C 0.35648 0.93326 0.52881 0.0
C57 C 0.38204 0.96849 0.53694 0.0
C58 C 0.54605 0.08065 0.488 0.0
C59 C 0.56122 0.99392 0.53005 0.0
O60 O 0.65494 0.10739 0.5042 0.0
O61 O 0.67239 0.11263 0.53793 0.0
O62 O 0.56337 0.09313 0.55365 0.0
O63 O 0.60595 0.0621 0.56206 0.0
O64 O 0.52736 0.13389 0.53707 0.0
O65 O 0.59186 0.15 0.52542 0.0
O66 O 0.46411 1.02704 0.54598 0.0
O67 O 0.44907 0.06023 0.51925 0.0
O68 O 0.5577 0.06087 0.50225 0.0
O69 O 0.51622 0.09268 0.4937 0.0
O70 O 0.59599 1.01976 0.52602 0.0
O71 O 0.52852 1.00558 0.53247 0.0
H72 H 0.73281 0.17119 0.54773 0.0
H73 H 0.78283 0.2331 0.5412 0.0
H74 H 0.75223 0.22 0.4741 0.0
H75 H 0.70152 0.15842 0.48068 0.0
H76 H 0.42587 1.00632 0.49133 0.0
H77 H 0.3808 0.94581 0.47708 0.0
H78 H 0.33794 0.91285 0.53957 0.0
H79 H 0.38242 0.97456 0.5537 0.0
Pr80 Pr 0.5443 0.54996 0.83861 0.0
Pr81 Pr 0.58415 0.6321 0.84363 0.0
C82 C 0.52376 0.4742 0.8289 0.0
C83 C 0.54207 0.44316 0.8354 0.0
C84 C 0.53964 0.42855 0.85623 0.0
C85 C 0.55731 0.39921 0.86209 0.0
C86 C 0.57785 0.38419 0.84729 0.0
C87 C 0.58164 0.39999 0.82676 0.0
C88 C 0.56375 0.42902 0.82086 0.0
C89 C 0.54562 0.57354 0.88038 0.0
C90 C 0.64496 0.57895 0.84793 0.0
C91 C 0.60473 0.70767 0.85453 0.0
C92 C 0.57961 0.73323 0.85887 0.0
C93 C 0.54615 0.73306 0.84536 0.0
C94 C 0.5199 0.75417 0.85059 0.0
C95 C 0.52611 0.77543 0.86962 0.0
C96 C 0.55969 0.77559 0.88315 0.0
C97 C 0.58627 0.75465 0.87778 0.0
C98 C 0.5792 0.60695 0.80144 0.0
C99 C 0.4838 0.60219 0.8389 0.0
O100 O 0.545 0.5011 0.81653 0.0
O101 O 0.50636 0.48814 0.84354 0.0
O102 O 0.57561 0.58356 0.86879 0.0
O103 O 0.51419 0.55057 0.8706 0.0
O104 O 0.64185 0.61379 0.85201 0.0
O105 O 0.61316 0.55092 0.84098 0.0
O106 O 0.60285 0.67981 0.86831 0.0
O107 O 0.60387 0.696 0.83496 0.0
O108 O 0.55067 0.59815 0.81393 0.0
O109 O 0.61198 0.62914 0.81066 0.0
O110 O 0.48781 0.57064 0.82995 0.0
O111 O 0.51557 0.62795 0.84766 0.0
H112 H 0.52354 0.43923 0.86792 0.0
H113 H 0.55369 0.38725 0.87794 0.0
H114 H 0.59641 0.3883 0.81483 0.0
H115 H 0.56627 0.43993 0.80477 0.0
H116 H 0.53987 0.71622 0.83083 0.0
H117 H 0.49498 0.75417 0.83952 0.0
H118 H 0.56523 0.79158 0.89794 0.0
H119 H 0.61155 0.75452 0.88858 0.0
C120 C 0.61548 0.15057 0.22239 0.0
C121 C 0.6387 0.17332 0.23893 0.0
C122 C 0.67955 0.21694 0.21347 0.0
C123 C 0.6704 0.2062 0.23452 0.0
C124 C 0.65634 0.19379 0.19693 0.0
C125 C 0.62451 0.16089 0.20138 0.0
U126 U 0.55631 0.08271 0.26295 0.0
O127 O 0.4909 0.05841 0.26637 0.0
O128 O 0.529 1.01923 0.26327 0.0
C129 C 0.49222 1.02224 0.26465 0.0
C130 C 0.58172 0.1164 0.22714 0.0
C131 C 0.46063 0.99667 0.25073 0.0
C132 C 0.43583 0.96556 0.21679 0.0
C133 C 0.46625 0.99145 0.22925 0.0
C134 C 0.394 0.95046 0.24712 0.0
C135 C 0.39934 0.94469 0.22562 0.0
C136 C 0.4243 0.9762 0.2595 0.0
C137 C 0.58938 0.10021 0.32102 0.0
C138 C 0.54597 0.06913 0.34905 0.0
C139 C 0.61596 0.10404 0.35744 0.0
C140 C 0.62155 0.11293 0.336 0.0
C141 C 0.578 0.08229 0.36426 0.0
C142 C 0.55164 0.07791 0.32762 0.0
C143 C 0.59532 0.11056 0.2986 0.0
O144 O 0.59219 0.08617 0.23482 0.0
O145 O 0.55291 0.1242 0.23748 0.0
O146 O 0.56761 0.12454 0.28925 0.0
O147 O 0.60516 0.08476 0.28703 0.0
H148 H 0.63224 0.16564 0.25528 0.0
H149 H 0.68804 0.22298 0.24763 0.0
H150 H 0.66239 0.20144 0.18055 0.0
H151 H 0.60683 0.14364 0.18843 0.0
H152 H 0.44076 0.96203 0.20025 0.0
H153 H 0.49414 1.00714 0.2222 0.0
H154 H 0.36667 0.93443 0.25456 0.0
H155 H 0.41954 0.97975 0.27607 0.0
H156 H 0.51622 1.05277 0.35374 0.0
H157 H 0.64141 0.11412 0.36868 0.0
H158 H 0.65096 0.12993 0.33114 0.0
H159 H 0.52645 0.0677 0.31623 0.0
C160 C 0.56549 0.68606 0.54598 0.0
C161 C 0.60077 0.71452 0.55334 0.0
C162 C 0.57212 0.76858 0.54315 0.0
C163 C 0.60393 0.75483 0.55205 0.0
C164 C 0.53651 0.73989 0.53626 0.0
C165 C 0.53336 0.69961 0.53761 0.0
U166 U 0.56317 0.57783 0.56498 0.0
O167 O 0.52602 0.52206 0.5506 0.0
O168 O 0.59163 0.53701 0.55005 0.0
C169 C 0.55719 0.51046 0.54556 0.0
C170 C 0.56337 0.64322 0.54415 0.0
C171 C 0.55487 0.46753 0.54804 0.0
C172 C 0.58726 0.41417 0.54884 0.0
C173 C 0.58979 0.45443 0.54954 0.0
C174 C 0.51487 0.39857 0.54497 0.0
C175 C 0.54969 0.38519 0.54643 0.0
C176 C 0.51743 0.43867 0.54574 0.0
C177 C 0.57305 0.58161 0.62996 0.0
C178 C 0.61395 0.58445 0.66278 0.0
C179 C 0.54524 0.58761 0.66409 0.0
C180 C 0.54077 0.58426 0.64194 0.0
C181 C 0.58209 0.5882 0.67484 0.0
C182 C 0.60955 0.58139 0.64067 0.0
C183 C 0.56924 0.58025 0.60643 0.0
O184 O 0.59598 0.6323 0.54893 0.0
O185 O 0.53034 0.61691 0.54961 0.0
O186 O 0.53419 0.57209 0.59578 0.0
O187 O 0.60088 0.58689 0.59474 0.0
H188 H 0.62648 0.70576 0.55972 0.0
H189 H 0.63172 0.77525 0.558 0.0
H190 H 0.5113 0.74843 0.52905 0.0
H191 H 0.50593 0.67892 0.53137 0.0
H192 H 0.615 0.40587 0.55024 0.0
H193 H 0.61937 0.47538 0.55084 0.0
H194 H 0.48523 0.3781 0.54259 0.0
H195 H 0.48978 0.44711 0.54387 0.0
H196 H 0.64251 0.58392 0.67042 0.0
H197 H 0.52013 0.59085 0.6727 0.0
H198 H 0.51227 0.58463 0.63415 0.0
H199 H 0.6349 0.57902 0.63194 0.0
C200 C 0.95355 0.57077 0.87305 0.0
C201 C 0.94176 0.59225 0.88865 0.0
C202 C 0.87284 0.57401 0.87302 0.0
C203 C 0.90168 0.5937 0.88869 0.0
C204 C 0.88461 0.55108 0.85811 0.0
C205 C 0.92446 0.54947 0.85818 0.0
U206 U 0.06879 0.58014 0.88666 0.0
O207 O 0.10331 0.55118 0.86773 0.0
O208 O 0.11875 0.61507 0.86799 0.0
C209 C 0.12838 0.58415 0.8617 0.0
C210 C 0.9962 0.57374 0.86984 0.0
C211 C 0.17182 0.58639 0.86248 0.0
C212 C 0.23852 0.61613 0.8492 0.0
C213 C 0.19852 0.61629 0.85139 0.0
C214 C 0.22627 0.55671 0.86975 0.0
C215 C 0.25256 0.58579 0.8579 0.0
C216 C 0.18634 0.55701 0.87205 0.0
C217 C 0.06542 0.57961 0.9488 0.0
C218 C 0.0734 0.60427 0.98497 0.0
C219 C 1.02592 0.54156 0.97659 0.0
C220 C 1.03568 0.54634 0.9553 0.0
C221 C 0.04571 0.56986 0.9918 0.0
C222 C 0.08321 0.60899 0.96372 0.0
C223 C 0.08326 0.58165 0.92788 0.0
O224 O 1.02305 0.60739 0.87406 0.0
O225 O 1.00908 0.54342 0.87483 0.0
O226 O 0.07404 0.54952 0.91649 0.0
O227 O 0.08629 0.61333 0.91652 0.0
H228 H 0.96373 0.60894 0.9003 0.0
H229 H 0.89357 0.61108 0.90067 0.0
H230 H 0.86364 0.53596 0.84563 0.0
H231 H 0.93303 0.533 0.84588 0.0
H232 H 0.25789 0.63879 0.83986 0.0
H233 H 0.18799 0.63908 0.84371 0.0
H234 H 0.23637 0.53325 0.87692 0.0
H235 H 0.16659 0.53355 0.88075 0.0
H236 H 0.08944 0.62651 0.99624 0.0
H237 H 1.00396 0.51499 0.98129 0.0
H238 H 1.02135 0.52316 0.9442 0.0
H239 H 0.10651 0.63474 0.95917 0.0
C240 C 0.98758 0.50332 0.46358 0.0
C241 C 0.96358 0.48199 0.44679 0.0
C242 C 0.92567 0.4342 0.47161 0.0
C243 C 0.93292 0.44782 0.45076 0.0
C244 C 0.95008 0.45563 0.48835 0.0
C245 C 0.98069 0.48986 0.48436 0.0
U246 U 0.0486 0.57604 0.42489 0.0
O247 O 0.06739 0.64025 0.42473 0.0
O248 O 0.11317 0.60847 0.42514 0.0
C249 C 0.10604 0.64264 0.42521 0.0
C250 C 1.01945 0.5397 0.45954 0.0
C251 C 0.13326 0.67321 0.43876 0.0
C252 C 0.15744 0.70419 0.47287 0.0
C253 C 0.13112 0.67374 0.46086 0.0
C254 C 0.18806 0.7334 0.44077 0.0
C255 C 0.18634 0.73439 0.46293 0.0
C256 C 0.16189 0.70319 0.42889 0.0
C257 C 1.02592 0.55589 0.36559 0.0
C258 C 0.0505 0.60439 0.33843 0.0
C259 C 1.01605 0.53766 0.32837 0.0
C260 C 1.01137 0.52762 0.34975 0.0
C261 C 1.03526 0.57627 0.32243 0.0
C262 C 0.04596 0.59426 0.35981 0.0
C263 C 1.01906 0.54513 0.38794 0.0
O264 O 0.0517 0.53531 0.45094 0.0
O265 O 1.00677 0.56786 0.45077 0.0
O266 O 1.0028 0.56752 0.39865 0.0
O267 O 0.04892 0.53636 0.39856 0.0
H268 H 0.96853 0.49185 0.43061 0.0
H269 H 0.91515 0.43186 0.43745 0.0
H270 H 0.9451 0.44633 0.50461 0.0
H271 H 0.99884 0.50597 0.49753 0.0
H272 H 0.15542 0.70393 0.4899 0.0
H273 H 0.10915 0.65081 0.46877 0.0
H274 H 0.2092 0.75644 0.43249 0.0
H275 H 0.16383 0.70343 0.41183 0.0
H276 H 0.06593 0.63426 0.33442 0.0
H277 H 1.00363 0.51539 0.31648 0.0
H278 H 0.99583 0.49784 0.35392 0.0
H279 H 0.05768 0.61646 0.37184 0.0
C280 C 0.39635 0.96717 0.81978 0.0
C281 C 0.3866 0.93059 0.80996 0.0
C282 C 0.38247 0.89975 0.84455 0.0
C283 C 0.37942 0.89693 0.82231 0.0
C284 C 0.3863 0.93598 0.85406 0.0
C285 C 0.39344 0.96962 0.8417 0.0
U286 U 0.44977 1.0196 0.77146 0.0
O287 O 0.46149 0.08131 0.76238 0.0
O288 O 0.51192 0.05742 0.77108 0.0
C289 C 0.50023 0.08887 0.76765 0.0
C290 C 0.41937 1.00175 0.80867 0.0
C291 C 0.51522 0.11863 0.784 0.0
C292 C 0.51886 0.13746 0.82092 0.0
C293 C 0.50547 0.10944 0.80508 0.0
C294 C 0.55254 0.18402 0.79475 0.0
C295 C 0.54203 0.17522 0.81587 0.0
C296 C 0.53925 0.15581 0.77891 0.0
C297 C 0.45309 0.97824 0.71857 0.0
C298 C 0.48488 1.02444 0.69181 0.0
C299 C 0.47498 0.95527 0.68658 0.0
C300 C 0.45711 0.94752 0.70617 0.0
C301 C 0.48879 0.99385 0.6792 0.0
C302 C 0.46741 1.01673 0.71133 0.0
C303 C 0.43648 0.97113 0.73964 0.0
O304 O 0.45554 1.00036 0.80407 0.0
O305 O 0.40053 1.01527 0.79312 0.0
O306 O 0.41172 0.99163 0.74396 0.0
O307 O 0.4634 0.97126 0.75509 0.0
H308 H 0.38895 0.92835 0.79303 0.0
H309 H 0.37675 0.86948 0.81451 0.0
H310 H 0.38848 0.93886 0.87115 0.0
H311 H 0.40097 0.99777 0.84947 0.0
H312 H 0.51038 0.12986 0.83701 0.0
H313 H 0.48703 0.08065 0.80925 0.0
H314 H 0.56962 0.21315 0.79029 0.0
H315 H 0.54704 0.16322 0.76269 0.0
H316 H 0.49597 1.05448 0.68672 0.0
H317 H 0.47766 0.93118 0.67713 0.0
H318 H 0.44675 0.9177 0.71168 0.0
H319 H 0.46542 1.04097 0.7209 0.0
C320 C 0.64969 0.58059 0.12387 0.0
C321 C 0.65977 0.5477 0.11668 0.0
C322 C 0.73051 0.57731 0.12748 0.0
C323 C 0.6998 0.54615 0.11841 0.0
C324 C 0.7206 0.61092 0.13365 0.0
C325 C 0.68069 0.61248 0.1319 0.0
U326 U 0.53752 0.58343 0.11029 0.0
O327 O 0.48437 0.54864 0.12666 0.0
O328 O 0.50565 0.61199 0.13116 0.0
C329 C 0.47745 0.57954 0.13491 0.0
C330 C 0.60728 0.57948 0.12702 0.0
C331 C 0.43525 0.58182 0.13374 0.0
C332 C 0.38757 0.61872 0.13979 0.0
C333 C 0.42723 0.61684 0.13899 0.0
C334 C 0.36275 0.55047 0.13024 0.0
C335 C 0.35484 0.58554 0.13554 0.0
C336 C 0.40253 0.5486 0.12938 0.0
C337 C 0.54537 0.59787 0.04866 0.0
C338 C 0.54862 0.62758 0.01376 0.0
C339 C 0.57573 0.57286 0.02007 0.0
C340 C 0.56514 0.5716 0.04127 0.0
C341 C 0.56633 0.60008 1.00595 0.0
C342 C 0.53831 0.62647 0.03486 0.0
C343 C 0.52669 0.59326 0.0694 0.0
O344 O 0.59758 0.61232 0.12478 0.0
O345 O 0.57836 0.54866 0.12042 0.0
O346 O 0.51893 0.55879 0.07848 0.0
O347 O 0.53903 0.62246 0.08285 0.0
H348 H 0.63658 0.52243 0.11062 0.0
H349 H 0.70649 0.52006 0.11319 0.0
H350 H 0.74327 0.63528 0.14096 0.0
H351 H 0.67381 0.63791 0.13798 0.0
H352 H 0.38257 0.64601 0.14428 0.0
H353 H 0.45165 0.64274 0.14292 0.0
H354 H 0.33818 0.52446 0.12674 0.0
H355 H 0.40757 0.52098 0.1256 0.0
H356 H 0.54145 0.64917 1.00332 0.0
H357 H 0.58921 0.5512 0.01446 0.0
H358 H 0.57084 0.54914 0.05157 0.0
H359 H 0.52297 0.64692 0.04016 0.0
H360 H 0.18775 0.62341 0.13689 0.0
H361 H 0.15435 0.51281 0.16939 0.0
H362 H 0.22221 0.50637 0.16557 0.0
H363 H 0.29151 0.5329 0.15348 0.0
H364 H 0.32365 0.64334 0.1208 0.0
H365 H 0.25574 0.6491 0.12436 0.0
C366 C 0.19514 0.5978 0.14316 0.0
C367 C 0.16589 0.56866 0.15345 0.0
C368 C 0.23407 0.5943 0.14091 0.0
C369 C 0.17623 0.53574 0.16143 0.0
C370 C 0.21504 0.53202 0.15924 0.0
C371 C 0.28349 0.55799 0.14692 0.0
C372 C 0.31274 0.58771 0.13694 0.0
C373 C 0.24424 0.56116 0.14902 0.0
C374 C 0.30195 0.6203 0.1288 0.0
C375 C 0.26306 0.62355 0.13074 0.0
H376 H 0.76971 0.29003 0.47896 0.0
H377 H 0.84774 0.25557 0.52594 0.0
H378 H 0.90151 0.31493 0.51941 0.0
H379 H 0.92717 0.37618 0.49994 0.0
H380 H 0.84952 0.41071 0.45281 0.0
H381 H 0.79543 0.3515 0.45947 0.0
C382 C 0.79856 0.29534 0.48768 0.0
C383 C 0.8044 0.26825 0.50302 0.0
C384 C 0.82967 0.32952 0.48372 0.0
C385 C 0.84196 0.27605 0.51431 0.0
C386 C 0.87293 0.30993 0.51048 0.0
C387 C 0.89831 0.37098 0.49125 0.0
C388 C 0.89263 0.39801 0.47585 0.0
C389 C 0.86716 0.33689 0.49523 0.0
C390 C 0.85509 0.39029 0.46454 0.0
C391 C 0.82398 0.35649 0.46843 0.0
H392 H 0.44444 0.7565 0.86301 0.0
H393 H 0.54721 0.84873 0.88654 0.0
H394 H 0.50596 0.89357 0.88637 0.0
H395 H 0.44659 0.90997 0.87179 0.0
H396 H 0.34671 0.82064 0.84346 0.0
H397 H 0.38072 0.77114 0.85335 0.0
C398 C 0.45766 0.78633 0.86833 0.0
C399 C 0.49909 0.79951 0.87425 0.0
C400 C 0.43433 0.81255 0.8671 0.0
C401 C 0.51548 0.83778 0.88183 0.0
C402 C 0.49197 0.8636 0.88156 0.0
C403 C 0.43137 0.87946 0.86859 0.0
C404 C 0.39432 0.86892 0.85678 0.0
C405 C 0.45209 0.8518 0.87316 0.0
C406 C 0.37532 0.82935 0.85246 0.0
C407 C 0.39494 0.8012 0.85793 0.0
H408 H 0.89342 0.53881 0.15497 0.0
H409 H 0.94296 0.65871 0.13612 0.0
H410 H 0.87532 0.66334 0.12664 0.0
H411 H 0.80215 0.63329 0.12319 0.0
H412 H 0.7523 0.51368 0.14238 0.0
H413 H 0.81998 0.50883 0.15171 0.0
C414 C 0.88943 0.56604 0.14892 0.0
C415 C 0.92331 0.59837 0.14632 0.0
C416 C 0.85038 0.56845 0.14326 0.0
C417 C 0.9175 0.63332 0.13829 0.0
C418 C 0.87879 0.63601 0.1328 0.0
C419 C 0.80603 0.60619 0.12951 0.0
C420 C 0.77205 0.57389 0.13197 0.0
C421 C 0.84502 0.60373 0.13513 0.0
C422 C 0.77784 0.53885 0.13992 0.0
C423 C 0.81656 0.53614 0.14549 0.0
H424 H 0.27831 0.88437 0.51693 0.0
H425 H 0.37475 0.87787 0.47766 0.0
H426 H 0.33169 0.8182 0.4614 0.0
H427 H 0.26619 0.76888 0.45733 0.0
H428 H 0.16917 0.7746 0.49625 0.0
H429 H 0.21334 0.83251 0.51413 0.0
C430 C 0.29011 0.86966 0.50501 0.0
C431 C 0.32971 0.88617 0.49837 0.0
C432 C 0.26513 0.83496 0.49571 0.0
C433 C 0.34421 0.86659 0.48278 0.0
C434 C 0.31966 0.83219 0.47355 0.0
C435 C 0.25458 0.78281 0.46968 0.0
C436 C 0.21418 0.76749 0.47524 0.0
C437 C 0.27994 0.8164 0.47967 0.0
C438 C 0.20011 0.7855 0.49168 0.0
C439 C 0.22531 0.81886 0.50181 0.0
H440 H 0.52997 0.31902 0.86399 0.0
H441 H 0.64737 0.36637 0.83874 0.0
H442 H 0.65071 0.30059 0.83113 0.0
H443 H 0.61195 0.23304 0.82279 0.0
H444 H 0.4912 0.18825 0.84458 0.0
H445 H 0.49794 0.24906 0.86306 0.0
C446 C 0.55712 0.31489 0.85776 0.0
C447 C 0.58787 0.34726 0.85132 0.0
C448 C 0.55772 0.27732 0.85235 0.0
C449 C 0.62298 0.34164 0.84337 0.0
C450 C 0.6247 0.30411 0.83885 0.0
C451 C 0.58755 0.23639 0.83202 0.0
C452 C 0.55079 0.20675 0.83181 0.0
C453 C 0.59088 0.27214 0.84176 0.0
C454 C 0.51976 0.21075 0.84434 0.0
C455 C 0.52343 0.2457 0.85478 0.0
H456 H 0.62078 0.95484 0.529 0.0
H457 H 0.49317 0.93414 0.53668 0.0
H458 H 0.48523 0.8648 0.54143 0.0
H459 H 0.5138 0.80884 0.54398 0.0
H460 H 0.64107 0.82851 0.53557 0.0
H461 H 0.64934 0.89804 0.531 0.0
C462 C 0.59117 0.93525 0.53165 0.0
C463 C 0.55771 0.95067 0.5324 0.0
C464 C 0.58653 0.89451 0.53448 0.0
C465 C 0.51974 0.92403 0.53596 0.0
C466 C 0.51504 0.88393 0.53872 0.0
C467 C 0.54343 0.82801 0.54097 0.0
C468 C 0.5767 0.81225 0.54037 0.0
C469 C 0.54815 0.86864 0.53807 0.0
C470 C 0.61471 0.8388 0.53668 0.0
C471 C 0.61954 0.87902 0.53383 0.0
H472 H 0.71546 0.62988 0.86219 0.0
H473 H 0.66349 0.50998 0.84293 0.0
H474 H 0.72872 0.49727 0.85007 0.0
H475 H 0.80077 0.52051 0.8615 0.0
H476 H 0.85239 0.64124 0.87945 0.0
H477 H 0.78672 0.65284 0.87366 0.0
C478 C 0.71826 0.60091 0.85952 0.0
C479 C 0.68453 0.57101 0.85193 0.0
C480 C 0.75577 0.5938 0.86367 0.0
C481 C 0.68891 0.53365 0.84866 0.0
C482 C 0.72622 0.52632 0.8528 0.0
C483 C 0.79776 0.54942 0.86409 0.0
C484 C 0.83176 0.57987 0.87101 0.0
C485 C 0.75991 0.55623 0.86025 0.0
C486 C 0.82687 0.61696 0.87456 0.0
C487 C 0.78932 0.6238 0.87101 0.0
H488 H 0.28228 0.80825 0.17059 0.0
H489 H 0.19323 0.84936 0.20103 0.0
H490 H 0.24656 0.90101 0.21856 0.0
H491 H 0.31828 0.93354 0.22596 0.0
H492 H 0.40793 0.89175 0.19654 0.0
H493 H 0.35463 0.84212 0.17743 0.0
C494 C 0.2746 0.82878 0.1809 0.0
C495 C 0.23383 0.82479 0.18461 0.0
C496 C 0.3055 0.8584 0.19103 0.0
C497 C 0.22436 0.85141 0.19817 0.0
C498 C 0.25483 0.88108 0.20811 0.0
C499 C 0.32622 0.91348 0.21544 0.0
C500 C 0.3671 0.91629 0.21281 0.0
C501 C 0.29547 0.88461 0.20483 0.0
C502 C 0.37676 0.89055 0.19874 0.0
C503 C 0.34627 0.86193 0.18792 0.0
H504 H 0.50665 0.19758 0.54746 0.0
H505 H 0.62242 0.22291 0.51945 0.0
H506 H 0.62959 0.29261 0.52145 0.0
H507 H 0.60322 0.34762 0.53075 0.0
H508 H 0.48852 0.32245 0.56001 0.0
H509 H 0.481 0.25291 0.55758 0.0
C510 C 0.53349 0.21823 0.54175 0.0
C511 C 0.56386 0.20409 0.53325 0.0
C512 C 0.53774 0.25905 0.54305 0.0
C513 C 0.59834 0.23209 0.52608 0.0
C514 C 0.60255 0.27237 0.52721 0.0
C515 C 0.57665 0.32721 0.53685 0.0
C516 C 0.54638 0.34156 0.54539 0.0
C517 C 0.57252 0.28641 0.53568 0.0
C518 C 0.51219 0.31344 0.55286 0.0
C519 C 0.50789 0.27315 0.55165 0.0
H520 H 0.41213 0.54591 0.83508 0.0
H521 H 0.46386 0.66821 0.84907 0.0
H522 H 0.39699 0.67425 0.856 0.0
H523 H 0.32382 0.64409 0.8592 0.0
H524 H 0.27314 0.52123 0.8463 0.0
H525 H 0.33957 0.51602 0.83815 0.0
C526 C 0.40876 0.57401 0.83939 0.0
C527 C 0.44295 0.60662 0.84137 0.0
C528 C 0.37039 0.57705 0.84385 0.0
C529 C 0.43805 0.64267 0.84734 0.0
C530 C 0.39981 0.64611 0.85138 0.0
C531 C 0.32734 0.61624 0.85451 0.0
C532 C 0.29353 0.58306 0.85348 0.0
C533 C 0.36578 0.6134 0.84988 0.0
C534 C 0.2987 0.5471 0.84756 0.0
C535 C 0.33665 0.54414 0.84273 0.0
H536 H 0.81699 0.37654 0.20795 0.0
H537 H 0.85489 0.31325 0.15924 0.0
H538 H 0.7963 0.25723 0.16434 0.0
H539 H 0.73615 0.22493 0.18391 0.0
H540 H 0.69865 0.28816 0.23281 0.0
H541 H 0.75561 0.34511 0.22664 0.0
C542 C 0.81247 0.35046 0.19848 0.0
C543 C 0.84038 0.34913 0.18327 0.0
C544 C 0.77896 0.31816 0.20166 0.0
C545 C 0.83368 0.31529 0.17089 0.0
C546 C 0.80032 0.2831 0.1739 0.0
C547 C 0.74014 0.25133 0.19303 0.0
C548 C 0.71326 0.25211 0.2089 0.0
C549 C 0.77297 0.28407 0.18938 0.0
C550 C 0.71922 0.28648 0.22074 0.0
C551 C 0.75168 0.31917 0.21715 0.0
H552 H 0.04142 0.51222 0.08673 0.0
H553 H 1.03557 0.62904 0.0979 0.0
H554 H 1.03565 0.64168 0.0597 0.0
H555 H 1.03862 0.61957 0.02307 0.0
H556 H 0.04326 0.50204 0.01244 0.0
H557 H 0.0415 0.48941 0.05038 0.0
C558 C 0.04017 0.54046 0.0808 0.0
C559 C 1.03875 0.56975 0.09507 0.0
C560 C 0.03963 0.54726 0.05887 0.0
C561 C 1.03674 0.60606 0.08717 0.0
C562 C 1.03676 0.61327 0.06535 0.0
C563 C 1.03914 0.59118 0.02908 0.0
C564 C 0.04095 0.56179 0.01485 0.0
C565 C 1.03835 0.5841 0.05104 0.0
C566 C 0.04121 0.52503 0.02292 0.0
C567 C 0.04061 0.51786 0.04467 0.0
H568 H 0.52531 1.02719 0.4567 0.0
H569 H 0.59697 0.14442 0.47125 0.0
H570 H 0.61531 0.15479 0.43422 0.0
H571 H 0.60687 0.13187 0.39741 0.0
H572 H 0.53394 1.0148 0.3826 0.0
H573 H 0.51958 1.00309 0.41992 0.0
C574 C 0.54539 1.05471 0.45168 0.0
C575 C 0.56016 0.08499 0.46642 0.0
C576 C 0.55499 0.06062 0.43033 0.0
C577 C 0.58559 0.1208 0.45998 0.0
C578 C 0.59589 0.12672 0.43887 0.0
C579 C 0.58842 0.10355 0.40236 0.0
C580 C 0.57142 0.07434 0.38716 0.0
C581 C 0.58023 0.09704 0.42384 0.0
C582 C 0.54696 1.03803 0.39389 0.0
C583 C 0.5389 1.03121 0.41525 0.0
H584 H 0.63428 0.63213 0.77123 0.0
H585 H 0.51198 0.56251 0.77972 0.0
H586 H 0.50203 0.54996 0.7416 0.0
H587 H 0.52786 0.55939 0.70564 0.0
H588 H 0.64969 0.63098 0.69729 0.0
H589 H 0.66003 0.6415 0.73536 0.0
C590 C 0.60549 0.61412 0.76474 0.0
C591 C 0.57391 0.5984 0.77834 0.0
C592 C 0.59987 0.60722 0.74273 0.0
C593 C 0.53679 0.57509 0.76964 0.0
C594 C 0.53106 0.5679 0.74781 0.0
C595 C 0.5566 0.57754 0.71208 0.0
C596 C 0.58795 0.59413 0.69837 0.0
C597 C 0.56231 0.58401 0.73415 0.0
C598 C 0.62514 0.61713 0.70727 0.0
C599 C 0.63106 0.62348 0.72913 0.0
H600 H 0.58999 1.0225 0.59715 0.0
H601 H 0.51559 0.09895 0.58311 0.0
H602 H 0.48139 0.08008 0.6161 0.0
H603 H 0.47299 1.04231 0.64897 0.0
H604 H 0.54673 0.9654 0.66318 0.0
H605 H 0.58049 0.98347 0.62987 0.0
C606 C 0.56639 1.03509 0.6014 0.0
C607 C 0.5555 0.06229 0.58789 0.0
C608 C 0.5466 1.02381 0.62028 0.0
C609 C 0.5246 0.07811 0.59337 0.0
C610 C 0.505 0.06728 0.61218 0.0
C611 C 0.49654 1.02959 0.64478 0.0
C612 C 0.50753 1.00273 0.65849 0.0
C613 C 0.51582 1.04025 0.62576 0.0
C614 C 0.53757 0.98592 0.65275 0.0
C615 C 0.55703 0.99645 0.63382 0.0
H616 H 0.60751 0.58264 0.91043 0.0
H617 H 0.48386 0.58469 0.90094 0.0
H618 H 0.48017 0.59512 0.93875 0.0
H619 H 0.51048 0.60009 0.97464 0.0
H620 H 0.63232 0.5935 0.9854 0.0
H621 H 0.63834 0.58789 0.94711 0.0
C622 C 0.58006 0.5859 0.91671 0.0
C623 C 0.54603 0.58314 0.90301 0.0
C624 C 0.5777 0.59058 0.93869 0.0
C625 C 0.51035 0.5867 0.91126 0.0
C626 C 0.5082 0.59259 0.93286 0.0
C627 C 0.53857 0.59796 0.96859 0.0
C628 C 0.57105 0.59763 0.9828 0.0
C629 C 0.54145 0.59405 0.94674 0.0
C630 C 0.6069 0.59383 0.97476 0.0
C631 C 0.61035 0.59074 0.95288 0.0
H632 H 1.03556 0.6451 0.22967 0.0
H633 H 0.06889 0.54121 0.21541 0.0
H634 H 0.06634 0.52298 0.25287 0.0
H635 H 0.0547 0.53671 0.28977 0.0
H636 H 1.0218 0.641 0.30383 0.0
H637 H 1.02471 0.65917 0.26649 0.0
C638 C 0.04226 0.61847 0.23477 0.0
C639 C 0.05231 0.5945 0.2198 0.0
C640 C 0.04105 0.60835 0.25634 0.0
C641 C 0.06106 0.56015 0.22664 0.0
C642 C 0.05962 0.54972 0.24806 0.0
C643 C 0.04797 0.56331 0.28464 0.0
C644 C 1.0381 0.58746 0.29964 0.0
C645 C 0.04961 0.57359 0.26306 0.0
C646 C 1.03001 0.62211 0.29272 0.0
C647 C 1.0314 0.63242 0.27132 0.0
loop_
_geom_bond_atom_site_label_1
_geom_bond_atom_site_label_2
_geom_bond_distance
_geom_bond_site_symmetry_2
_ccdc_geom_bond_type
Pr0 C2 2.880 . S
Pr0 O20 2.562 . S
Pr0 O21 2.490 . S
Pr0 O22 2.695 1_655 S
Pr0 O23 2.512 . S
Pr0 O25 2.437 . S
Pr0 O28 2.436 . S
Pr0 O30 2.438 1_655 S
Pr1 C11 2.880 . S
Pr1 O22 2.436 . S
Pr1 O24 2.438 1_455 S
Pr1 O26 2.562 . S
Pr1 O27 2.490 . S
Pr1 O28 2.695 1_455 S
Pr1 O29 2.512 . S
Pr1 O31 2.437 . S
C2 Pr0 2.880 . S
C2 C3 1.491 . S
C2 O20 1.254 . S
C2 O21 1.225 . S
C3 C2 1.491 . S
C3 C4 1.392 . S
C3 C8 1.356 . S
C4 C3 1.392 . S
C4 C5 1.368 . S
C4 H32 0.929 . S
C5 C4 1.368 . S
C5 C6 1.386 . S
C5 H33 0.929 . S
C6 C5 1.386 . S
C6 C7 1.373 . S
C7 C6 1.373 . S
C7 C8 1.409 . S
C7 H34 0.931 . S
C8 C3 1.356 . S
C8 C7 1.409 . S
C8 H35 0.930 . S
C9 O22 1.270 . S
C9 O23 1.248 1_455 S
C10 O24 1.267 . S
C10 O25 1.278 . S
C11 Pr1 2.880 . S
C11 C12 1.491 . S
C11 O26 1.254 . S
C11 O27 1.225 . S
C12 C11 1.491 . S
C12 C13 1.392 . S
C12 C17 1.356 . S
C13 C12 1.392 . S
C13 C14 1.368 . S
C13 H36 0.929 . S
C14 C13 1.368 . S
C14 C15 1.386 . S
C14 H37 0.929 . S
C15 C14 1.386 . S
C15 C16 1.373 . S
C16 C15 1.373 . S
C16 C17 1.409 . S
C16 H38 0.931 . S
C17 C12 1.356 . S
C17 C16 1.409 . S
C17 H39 0.930 . S
C18 O28 1.270 1_455 S
C18 O29 1.248 . S
C19 O30 1.267 . S
C19 O31 1.278 . S
O20 Pr0 2.562 . S
O20 C2 1.254 . S
O21 Pr0 2.490 . S
O21 C2 1.225 . S
O22 Pr0 2.695 1_455 S
O22 Pr1 2.436 . S
O22 C9 1.270 . S
O23 Pr0 2.512 . S
O23 C9 1.248 1_655 S
O24 Pr1 2.438 1_655 S
O24 C10 1.267 . S
O25 Pr0 2.437 . S
O25 C10 1.278 . S
O26 Pr1 2.562 . S
O26 C11 1.254 . S
O27 Pr1 2.490 . S
O27 C11 1.225 . S
O28 Pr0 2.436 . S
O28 Pr1 2.695 1_655 S
O28 C18 1.270 1_655 S
O29 Pr1 2.512 . S
O29 C18 1.248 . S
O30 Pr0 2.438 1_455 S
O30 C19 1.267 . S
O31 Pr1 2.437 . S
O31 C19 1.278 . S
H32 C4 0.929 . S
H33 C5 0.929 . S
H34 C7 0.931 . S
H35 C8 0.930 . S
H36 C13 0.929 . S
H37 C14 0.929 . S
H38 C16 0.931 . S
H39 C17 0.930 . S
Pr40 C42 2.880 . S
Pr40 O60 2.562 . S
Pr40 O61 2.490 . S
Pr40 O62 2.695 . S
Pr40 O63 2.512 . S
Pr40 O65 2.437 . S
Pr40 O68 2.436 . S
Pr40 O70 2.438 1_545 S
Pr41 C51 2.880 . S
Pr41 O62 2.436 1_565 S
Pr41 O64 2.438 1_565 S
Pr41 O66 2.562 . S
Pr41 O67 2.490 . S
Pr41 O68 2.695 1_565 S
Pr41 O69 2.512 . S
Pr41 O71 2.437 . S
C42 Pr40 2.880 . S
C42 C43 1.491 . S
C42 O60 1.254 . S
C42 O61 1.225 . S
C43 C42 1.491 . S
C43 C44 1.392 . S
C43 C48 1.356 . S
C44 C43 1.392 . S
C44 C45 1.368 . S
C44 H72 0.929 . S
C45 C44 1.368 . S
C45 C46 1.386 . S
C45 H73 0.929 . S
C46 C45 1.386 . S
C46 C47 1.373 . S
C47 C46 1.373 . S
C47 C48 1.409 . S
C47 H74 0.931 . S
C48 C43 1.356 . S
C48 C47 1.409 . S
C48 H75 0.930 . S
C49 O62 1.270 . S
C49 O63 1.248 . S
C50 O64 1.267 . S
C50 O65 1.278 . S
C51 Pr41 2.880 . S
C51 C52 1.491 . S
C51 O66 1.254 . S
C51 O67 1.225 . S
C52 C51 1.491 . S
C52 C53 1.392 . S
C52 C57 1.356 . S
C53 C52 1.392 . S
C53 C54 1.368 . S
C53 H76 0.929 . S
C54 C53 1.368 . S
C54 C55 1.386 . S
C54 H77 0.929 . S
C55 C54 1.386 . S
C55 C56 1.373 . S
C56 C55 1.373 . S
C56 C57 1.409 . S
C56 H78 0.931 . S
C57 C52 1.356 . S
C57 C56 1.409 . S
C57 H79 0.930 . S
C58 O68 1.270 . S
C58 O69 1.248 1_545 S
C59 O70 1.267 . S
C59 O71 1.278 . S
O60 Pr40 2.562 . S
O60 C42 1.254 . S
O61 Pr40 2.490 . S
O61 C42 1.225 . S
O62 Pr40 2.695 . S
O62 Pr41 2.436 1_545 S
O62 C49 1.270 . S
O63 Pr40 2.512 . S
O63 C49 1.248 . S
O64 Pr41 2.438 1_545 S
O64 C50 1.267 . S
O65 Pr40 2.437 . S
O65 C50 1.278 . S
O66 Pr41 2.562 . S
O66 C51 1.254 . S
O67 Pr41 2.490 . S
O67 C51 1.225 . S
O68 Pr40 2.436 . S
O68 Pr41 2.695 1_545 S
O68 C58 1.270 . S
O69 Pr41 2.512 . S
O69 C58 1.248 1_565 S
O70 Pr40 2.438 1_565 S
O70 C59 1.267 . S
O71 Pr41 2.437 . S
O71 C59 1.278 . S
H72 C44 0.929 . S
H73 C45 0.929 . S
H74 C47 0.931 . S
H75 C48 0.930 . S
H76 C53 0.929 . S
H77 C54 0.929 . S
H78 C56 0.931 . S
H79 C57 0.930 . S
Pr80 C82 2.880 . S
Pr80 O100 2.562 . S
Pr80 O101 2.490 . S
Pr80 O102 2.695 . S
Pr80 O103 2.512 . S
Pr80 O105 2.437 . S
Pr80 O108 2.436 . S
Pr80 O110 2.438 . S
Pr81 C91 2.880 . S
Pr81 O102 2.436 . S
Pr81 O104 2.438 . S
Pr81 O106 2.562 . S
Pr81 O107 2.490 . S
Pr81 O108 2.695 . S
Pr81 O109 2.512 . S
Pr81 O111 2.437 . S
C82 Pr80 2.880 . S
C82 C83 1.491 . S
C82 O100 1.254 . S
C82 O101 1.225 . S
C83 C82 1.491 . S
C83 C84 1.392 . S
C83 C88 1.356 . S
C84 C83 1.392 . S
C84 C85 1.368 . S
C84 H112 0.929 . S
C85 C84 1.368 . S
C85 C86 1.386 . S
C85 H113 0.929 . S
C86 C85 1.386 . S
C86 C87 1.373 . S
C87 C86 1.373 . S
C87 C88 1.409 . S
C87 H114 0.931 . S
C88 C83 1.356 . S
C88 C87 1.409 . S
C88 H115 0.930 . S
C89 O102 1.270 . S
C89 O103 1.248 . S
C90 O104 1.267 . S
C90 O105 1.278 . S
C91 Pr81 2.880 . S
C91 C92 1.491 . S
C91 O106 1.254 . S
C91 O107 1.225 . S
C92 C91 1.491 . S
C92 C93 1.392 . S
C92 C97 1.356 . S
C93 C92 1.392 . S
C93 C94 1.368 . S
C93 H116 0.929 . S
C94 C93 1.368 . S
C94 C95 1.386 . S
C94 H117 0.929 . S
C95 C94 1.386 . S
C95 C96 1.373 . S
C96 C95 1.373 . S
C96 C97 1.409 . S
C96 H118 0.931 . S
C97 C92 1.356 . S
C97 C96 1.409 . S
C97 H119 0.930 . S
C98 O108 1.270 . S
C98 O109 1.248 . S
C99 O110 1.267 . S
C99 O111 1.278 . S
O100 Pr80 2.562 . S
O100 C82 1.254 . S
O101 Pr80 2.490 . S
O101 C82 1.225 . S
O102 Pr80 2.695 . S
O102 Pr81 2.436 . S
O102 C89 1.270 . S
O103 Pr80 2.512 . S
O103 C89 1.248 . S
O104 Pr81 2.438 . S
O104 C90 1.267 . S
O105 Pr80 2.437 . S
O105 C90 1.278 . S
O106 Pr81 2.562 . S
O106 C91 1.254 . S
O107 Pr81 2.490 . S
O107 C91 1.225 . S
O108 Pr80 2.436 . S
O108 Pr81 2.695 . S
O108 C98 1.270 . S
O109 Pr81 2.512 . S
O109 C98 1.248 . S
O110 Pr80 2.438 . S
O110 C99 1.267 . S
O111 Pr81 2.437 . S
O111 C99 1.278 . S
H112 C84 0.929 . S
H113 C85 0.929 . S
H114 C87 0.931 . S
H115 C88 0.930 . S
H116 C93 0.929 . S
H117 C94 0.929 . S
H118 C96 0.931 . S
H119 C97 0.930 . S
C120 C121 1.264 . S
C120 C125 1.479 . S
C120 C130 1.465 . S
C121 C120 1.264 . S
C121 C123 1.339 . S
C121 H148 0.931 . S
C122 C123 1.395 . S
C122 C124 1.320 . S
C123 C121 1.339 . S
C123 C122 1.395 . S
C123 H149 0.929 . S
C124 C122 1.320 . S
C124 C125 1.405 . S
C124 H150 0.930 . S
C125 C120 1.479 . S
C125 C124 1.405 . S
C125 H151 0.931 . S
U126 O127 2.454 . S
U126 O128 2.458 1_545 S
U126 C129 2.984 1_545 S
U126 C130 2.847 . S
U126 C143 2.882 . S
U126 O144 2.441 . S
U126 O145 2.420 . S
U126 O146 2.455 . S
U126 O147 2.449 . S
O127 U126 2.454 . S
O127 C129 1.353 1_545 S
O128 U126 2.458 1_565 S
O128 C129 1.286 . S
C129 U126 2.984 1_565 S
C129 O127 1.353 1_565 S
C129 O128 1.286 . S
C129 C131 1.363 . S
C130 C120 1.465 . S
C130 U126 2.847 . S
C130 O144 1.249 . S
C130 O145 1.202 . S
C131 C129 1.363 . S
C131 C133 1.408 . S
C131 C136 1.342 . S
C132 C133 1.310 . S
C132 C135 1.461 . S
C132 H152 0.932 . S
C133 C131 1.408 . S
C133 C132 1.310 . S
C133 H153 0.930 . S
C134 C135 1.474 . S
C134 C136 1.285 . S
C134 H154 0.929 . S
C135 C132 1.461 . S
C135 C134 1.474 . S
C136 C131 1.342 . S
C136 C134 1.285 . S
C136 H155 0.930 . S
C137 C140 1.424 . S
C137 C142 1.245 . S
C137 C143 1.428 . S
C138 C141 1.260 . S
C138 C142 1.477 . S
C138 H156 0.932 1_545 S
C139 C140 1.384 . S
C139 C141 1.479 . S
C139 H157 0.929 . S
C140 C137 1.424 . S
C140 C139 1.384 . S
C140 H158 0.928 . S
C141 C138 1.260 . S
C141 C139 1.479 . S
C142 C137 1.245 . S
C142 C138 1.477 . S
C142 H159 0.932 1_545 S
C143 U126 2.882 . S
C143 C137 1.428 . S
C143 O146 1.301 . S
C143 O147 1.282 . S
O144 U126 2.441 . S
O144 C130 1.249 . S
O145 U126 2.420 . S
O145 C130 1.202 . S
O146 U126 2.455 . S
O146 C143 1.301 . S
O147 U126 2.449 . S
O147 C143 1.282 . S
H148 C121 0.931 . S
H149 C123 0.929 . S
H150 C124 0.930 . S
H151 C125 0.931 . S
H152 C132 0.932 . S
H153 C133 0.930 . S
H154 C134 0.929 . S
H155 C136 0.930 . S
H156 C138 0.932 1_565 S
H157 C139 0.929 . S
H158 C140 0.928 . S
H159 C142 0.932 1_565 S
C160 C161 1.264 . S
C160 C165 1.479 . S
C160 C170 1.465 . S
C161 C160 1.264 . S
C161 C163 1.339 . S
C161 H188 0.931 . S
C162 C163 1.395 . S
C162 C164 1.320 . S
C163 C161 1.339 . S
C163 C162 1.395 . S
C163 H189 0.929 . S
C164 C162 1.320 . S
C164 C165 1.405 . S
C164 H190 0.930 . S
C165 C160 1.479 . S
C165 C164 1.405 . S
C165 H191 0.931 . S
U166 O167 2.454 . S
U166 O168 2.458 . S
U166 C169 2.984 . S
U166 C170 2.847 . S
U166 C183 2.882 . S
U166 O184 2.441 . S
U166 O185 2.420 . S
U166 O186 2.455 . S
U166 O187 2.449 . S
O167 U166 2.454 . S
O167 C169 1.353 . S
O168 U166 2.458 . S
O168 C169 1.286 . S
C169 U166 2.984 . S
C169 O167 1.353 . S
C169 O168 1.286 . S
C169 C171 1.363 . S
C170 C160 1.465 . S
C170 U166 2.847 . S
C170 O184 1.249 . S
C170 O185 1.202 . S
C171 C169 1.363 . S
C171 C173 1.408 . S
C171 C176 1.342 . S
C172 C173 1.310 . S
C172 C175 1.461 . S
C172 H192 0.932 . S
C173 C171 1.408 . S
C173 C172 1.310 . S
C173 H193 0.930 . S
C174 C175 1.474 . S
C174 C176 1.285 . S
C174 H194 0.929 . S
C175 C172 1.461 . S
C175 C174 1.474 . S
C176 C171 1.342 . S
C176 C174 1.285 . S
C176 H195 0.930 . S
C177 C180 1.424 . S
C177 C182 1.245 . S
C177 C183 1.428 . S
C178 C181 1.260 . S
C178 C182 1.477 . S
C178 H196 0.932 . S
C179 C180 1.384 . S
C179 C181 1.479 . S
C179 H197 0.929 . S
C180 C177 1.424 . S
C180 C179 1.384 . S
C180 H198 0.928 . S
C181 C178 1.260 . S
C181 C179 1.479 . S
C182 C177 1.245 . S
C182 C178 1.477 . S
C182 H199 0.932 . S
C183 U166 2.882 . S
C183 C177 1.428 . S
C183 O186 1.301 . S
C183 O187 1.282 . S
O184 U166 2.441 . S
O184 C170 1.249 . S
O185 U166 2.420 . S
O185 C170 1.202 . S
O186 U166 2.455 . S
O186 C183 1.301 . S
O187 U166 2.449 . S
O187 C183 1.282 . S
H188 C161 0.931 . S
H189 C163 0.929 . S
H190 C164 0.930 . S
H191 C165 0.931 . S
H192 C172 0.932 . S
H193 C173 0.930 . S
H194 C174 0.929 . S
H195 C176 0.930 . S
H196 C178 0.932 . S
H197 C179 0.929 . S
H198 C180 0.928 . S
H199 C182 0.932 . S
C200 C201 1.264 . S
C200 C205 1.479 . S
C200 C210 1.465 . S
C201 C200 1.264 . S
C201 C203 1.339 . S
C201 H228 0.931 . S
C202 C203 1.395 . S
C202 C204 1.320 . S
C203 C201 1.339 . S
C203 C202 1.395 . S
C203 H229 0.929 . S
C204 C202 1.320 . S
C204 C205 1.405 . S
C204 H230 0.930 . S
C205 C200 1.479 . S
C205 C204 1.405 . S
C205 H231 0.931 . S
U206 O207 2.454 . S
U206 O208 2.458 . S
U206 C209 2.984 . S
U206 C210 2.847 1_455 S
U206 C223 2.882 . S
U206 O224 2.441 1_455 S
U206 O225 2.420 1_455 S
U206 O226 2.455 . S
U206 O227 2.449 1_455 S
O207 U206 2.454 . S
O207 C209 1.353 . S
O208 U206 2.458 . S
O208 C209 1.286 . S
C209 U206 2.984 . S
C209 O207 1.353 . S
C209 O208 1.286 . S
C209 C211 1.363 . S
C210 C200 1.465 . S
C210 U206 2.847 1_655 S
C210 O224 1.249 . S
C210 O225 1.202 . S
C211 C209 1.363 . S
C211 C213 1.408 . S
C211 C216 1.342 . S
C212 C213 1.310 . S
C212 C215 1.461 . S
C212 H232 0.932 . S
C213 C211 1.408 . S
C213 C212 1.310 . S
C213 H233 0.930 . S
C214 C215 1.474 . S
C214 C216 1.285 . S
C214 H234 0.929 . S
C215 C212 1.461 . S
C215 C214 1.474 . S
C216 C211 1.342 . S
C216 C214 1.285 . S
C216 H235 0.930 . S
C217 C220 1.424 1_455 S
C217 C222 1.245 . S
C217 C223 1.428 . S
C218 C221 1.260 . S
C218 C222 1.477 . S
C218 H236 0.932 . S
C219 C220 1.384 . S
C219 C221 1.479 1_655 S
C219 H237 0.929 . S
C220 C217 1.424 1_655 S
C220 C219 1.384 . S
C220 H238 0.928 . S
C221 C218 1.260 . S
C221 C219 1.479 1_455 S
C222 C217 1.245 . S
C222 C218 1.477 . S
C222 H239 0.932 . S
C223 U206 2.882 . S
C223 C217 1.428 . S
C223 O226 1.301 . S
C223 O227 1.282 1_455 S
O224 U206 2.441 1_655 S
O224 C210 1.249 . S
O225 U206 2.420 1_655 S
O225 C210 1.202 . S
O226 U206 2.455 . S
O226 C223 1.301 . S
O227 U206 2.449 1_655 S
O227 C223 1.282 1_655 S
H228 C201 0.931 . S
H229 C203 0.929 . S
H230 C204 0.930 . S
H231 C205 0.931 . S
H232 C212 0.932 . S
H233 C213 0.930 . S
H234 C214 0.929 . S
H235 C216 0.930 . S
H236 C218 0.932 . S
H237 C219 0.929 . S
H238 C220 0.928 . S
H239 C222 0.932 . S
C240 C241 1.264 . S
C240 C245 1.479 . S
C240 C250 1.465 . S
C241 C240 1.264 . S
C241 C243 1.339 . S
C241 H268 0.931 . S
C242 C243 1.395 . S
C242 C244 1.320 . S
C243 C241 1.339 . S
C243 C242 1.395 . S
C243 H269 0.929 . S
C244 C242 1.320 . S
C244 C245 1.405 . S
C244 H270 0.930 . S
C245 C240 1.479 . S
C245 C244 1.405 . S
C245 H271 0.931 . S
U246 O247 2.454 1_655 S
U246 O248 2.458 1_655 S
U246 C249 2.984 1_655 S
U246 C250 2.847 . S
U246 C263 2.882 . S
U246 O264 2.441 . S
U246 O265 2.420 . S
U246 O266 2.455 1_655 S
U246 O267 2.449 . S
O247 U246 2.454 1_455 S
O247 C249 1.353 . S
O248 U246 2.458 1_455 S
O248 C249 1.286 . S
C249 U246 2.984 1_455 S
C249 O247 1.353 . S
C249 O248 1.286 . S
C249 C251 1.363 . S
C250 C240 1.465 . S
C250 U246 2.847 . S
C250 O264 1.249 . S
C250 O265 1.202 . S
C251 C249 1.363 . S
C251 C253 1.408 . S
C251 C256 1.342 . S
C252 C253 1.310 . S
C252 C255 1.461 . S
C252 H272 0.932 . S
C253 C251 1.408 . S
C253 C252 1.310 . S
C253 H273 0.930 . S
C254 C255 1.474 . S
C254 C256 1.285 . S
C254 H274 0.929 . S
C255 C252 1.461 . S
C255 C254 1.474 . S
C256 C251 1.342 . S
C256 C254 1.285 . S
C256 H275 0.930 . S
C257 C260 1.424 . S
C257 C262 1.245 1_655 S
C257 C263 1.428 . S
C258 C261 1.260 1_455 S
C258 C262 1.477 . S
C258 H276 0.932 . S
C259 C260 1.384 . S
C259 C261 1.479 . S
C259 H277 0.929 . S
C260 C257 1.424 . S
C260 C259 1.384 . S
C260 H278 0.928 . S
C261 C258 1.260 1_655 S
C261 C259 1.479 . S
C262 C257 1.245 1_455 S
C262 C258 1.477 . S
C262 H279 0.932 . S
C263 U246 2.882 . S
C263 C257 1.428 . S
C263 O266 1.301 1_655 S
C263 O267 1.282 . S
O264 U246 2.441 . S
O264 C250 1.249 . S
O265 U246 2.420 . S
O265 C250 1.202 . S
O266 U246 2.455 1_455 S
O266 C263 1.301 1_455 S
O267 U246 2.449 . S
O267 C263 1.282 . S
H268 C241 0.931 . S
H269 C243 0.929 . S
H270 C244 0.930 . S
H271 C245 0.931 . S
H272 C252 0.932 . S
H273 C253 0.930 . S
H274 C254 0.929 . S
H275 C256 0.930 . S
H276 C258 0.932 . S
H277 C259 0.929 . S
H278 C260 0.928 . S
H279 C262 0.932 . S
C280 C281 1.264 . S
C280 C285 1.479 . S
C280 C290 1.465 . S
C281 C280 1.264 . S
C281 C283 1.339 . S
C281 H308 0.931 . S
C282 C283 1.395 . S
C282 C284 1.320 . S
C283 C281 1.339 . S
C283 C282 1.395 . S
C283 H309 0.929 . S
C284 C282 1.320 . S
C284 C285 1.405 . S
C284 H310 0.930 . S
C285 C280 1.479 . S
C285 C284 1.405 . S
C285 H311 0.931 . S
U286 O287 2.454 1_565 S
U286 O288 2.458 1_565 S
U286 C289 2.984 1_565 S
U286 C290 2.847 . S
U286 C303 2.882 . S
U286 O304 2.441 . S
U286 O305 2.420 . S
U286 O306 2.455 1_565 S
U286 O307 2.449 . S
O287 U286 2.454 1_545 S
O287 C289 1.353 . S
O288 U286 2.458 1_545 S
O288 C289 1.286 . S
C289 U286 2.984 1_545 S
C289 O287 1.353 . S
C289 O288 1.286 . S
C289 C291 1.363 . S
C290 C280 1.465 . S
C290 U286 2.847 . S
C290 O304 1.249 . S
C290 O305 1.202 . S
C291 C289 1.363 . S
C291 C293 1.408 . S
C291 C296 1.342 . S
C292 C293 1.310 . S
C292 C295 1.461 . S
C292 H312 0.932 . S
C293 C291 1.408 . S
C293 C292 1.310 . S
C293 H313 0.930 . S
C294 C295 1.474 . S
C294 C296 1.285 . S
C294 H314 0.929 . S
C295 C292 1.461 . S
C295 C294 1.474 . S
C296 C291 1.342 . S
C296 C294 1.285 . S
C296 H315 0.930 . S
C297 C300 1.413 1_545 S
C297 C302 1.255 . S
C297 C303 1.428 1_545 S
C298 C301 1.260 . S
C298 C302 1.477 . S
C298 H316 0.932 . S
C299 C300 1.384 . S
C299 C301 1.479 1_565 S
C299 H317 0.929 . S
C300 C297 1.413 1_565 S
C300 C299 1.384 . S
C300 H318 0.928 . S
C301 C298 1.260 . S
C301 C299 1.479 1_545 S
C302 C297 1.255 . S
C302 C298 1.477 . S
C302 H319 0.932 . S
C303 U286 2.882 . S
C303 C297 1.428 1_565 S
C303 O306 1.301 1_565 S
C303 O307 1.282 . S
O304 U286 2.441 . S
O304 C290 1.249 . S
O305 U286 2.420 . S
O305 C290 1.202 . S
O306 U286 2.455 1_545 S
O306 C303 1.301 1_545 S
O307 U286 2.449 . S
O307 C303 1.282 . S
H308 C281 0.931 . S
H309 C283 0.929 . S
H310 C284 0.930 . S
H311 C285 0.931 . S
H312 C292 0.932 . S
H313 C293 0.930 . S
H314 C294 0.929 . S
H315 C296 0.930 . S
H316 C298 0.932 . S
H317 C299 0.929 . S
H318 C300 0.928 . S
H319 C302 0.932 . S
C320 C321 1.264 . S
C320 C325 1.479 . S
C320 C330 1.465 . S
C321 C320 1.264 . S
C321 C323 1.339 . S
C321 H348 0.931 . S
C322 C323 1.395 . S
C322 C324 1.320 . S
C323 C321 1.339 . S
C323 C322 1.395 . S
C323 H349 0.929 . S
C324 C322 1.320 . S
C324 C325 1.405 . S
C324 H350 0.930 . S
C325 C320 1.479 . S
C325 C324 1.405 . S
C325 H351 0.931 . S
U326 O327 2.454 . S
U326 O328 2.458 . S
U326 C329 2.984 . S
U326 C330 2.847 . S
U326 C343 2.882 . S
U326 O344 2.441 . S
U326 O345 2.420 . S
U326 O346 2.455 . S
U326 O347 2.449 . S
O327 U326 2.454 . S
O327 C329 1.353 . S
O328 U326 2.458 . S
O328 C329 1.286 . S
C329 U326 2.984 . S
C329 O327 1.353 . S
C329 O328 1.286 . S
C329 C331 1.363 . S
C330 C320 1.465 . S
C330 U326 2.847 . S
C330 O344 1.249 . S
C330 O345 1.202 . S
C331 C329 1.363 . S
C331 C333 1.408 . S
C331 C336 1.342 . S
C332 C333 1.310 . S
C332 C335 1.461 . S
C332 H352 0.932 . S
C333 C331 1.408 . S
C333 C332 1.310 . S
C333 H353 0.930 . S
C334 C335 1.474 . S
C334 C336 1.285 . S
C334 H354 0.929 . S
C335 C332 1.461 . S
C335 C334 1.474 . S
C336 C331 1.342 . S
C336 C334 1.285 . S
C336 H355 0.930 . S
C337 C340 1.424 . S
C337 C342 1.245 . S
C337 C343 1.428 . S
C338 C341 1.260 . S
C338 C342 1.477 . S
C338 H356 0.932 . S
C339 C340 1.384 . S
C339 C341 1.479 . S
C339 H357 0.929 . S
C340 C337 1.424 . S
C340 C339 1.384 . S
C340 H358 0.928 . S
C341 C338 1.260 . S
C341 C339 1.479 . S
C342 C337 1.245 . S
C342 C338 1.477 . S
C342 H359 0.932 . S
C343 U326 2.882 . S
C343 C337 1.428 . S
C343 O346 1.301 . S
C343 O347 1.282 . S
O344 U326 2.441 . S
O344 C330 1.249 . S
O345 U326 2.420 . S
O345 C330 1.202 . S
O346 U326 2.455 . S
O346 C343 1.301 . S
O347 U326 2.449 . S
O347 C343 1.282 . S
H348 C321 0.931 . S
H349 C323 0.929 . S
H350 C324 0.930 . S
H351 C325 0.931 . S
H352 C332 0.932 . S
H353 C333 0.930 . S
H354 C334 0.929 . S
H355 C336 0.930 . S
H356 C338 0.932 . S
H357 C339 0.929 . S
H358 C340 0.928 . S
H359 C342 0.932 . S
H360 C366 0.930 . S
H361 C369 0.930 . S
H362 C370 0.930 . S
H363 C371 0.930 . S
H364 C374 0.930 . S
H365 C375 0.930 . S
C366 H360 0.930 . S
C366 C367 1.355 . S
C366 C368 1.415 . S
C367 C366 1.355 . S
C367 C369 1.419 . S
C368 C366 1.415 . S
C368 C373 1.425 . S
C368 C375 1.409 . S
C369 H361 0.930 . S
C369 C367 1.419 . S
C369 C370 1.362 . S
C370 H362 0.930 . S
C370 C369 1.362 . S
C370 C373 1.409 . S
C371 H363 0.930 . S
C371 C372 1.355 . S
C371 C373 1.415 . S
C372 C371 1.355 . S
C372 C374 1.419 . S
C373 C368 1.425 . S
C373 C370 1.409 . S
C373 C371 1.415 . S
C374 H364 0.930 . S
C374 C372 1.419 . S
C374 C375 1.362 . S
C375 H365 0.930 . S
C375 C368 1.409 . S
C375 C374 1.362 . S
H376 C382 0.930 . S
H377 C385 0.930 . S
H378 C386 0.930 . S
H379 C387 0.930 . S
H380 C390 0.930 . S
H381 C391 0.930 . S
C382 H376 0.930 . S
C382 C383 1.355 . S
C382 C384 1.415 . S
C383 C382 1.355 . S
C383 C385 1.419 . S
C384 C382 1.415 . S
C384 C389 1.425 . S
C384 C391 1.409 . S
C385 H377 0.930 . S
C385 C383 1.419 . S
C385 C386 1.362 . S
C386 H378 0.930 . S
C386 C385 1.362 . S
C386 C389 1.409 . S
C387 H379 0.930 . S
C387 C388 1.355 . S
C387 C389 1.415 . S
C388 C387 1.355 . S
C388 C390 1.419 . S
C389 C384 1.425 . S
C389 C386 1.409 . S
C389 C387 1.415 . S
C390 H380 0.930 . S
C390 C388 1.419 . S
C390 C391 1.362 . S
C391 H381 0.930 . S
C391 C384 1.409 . S
C391 C390 1.362 . S
H392 C398 0.930 . S
H393 C401 0.930 . S
H394 C402 0.930 . S
H395 C403 0.930 . S
H396 C406 0.930 . S
H397 C407 0.930 . S
C398 H392 0.930 . S
C398 C399 1.355 . S
C398 C400 1.415 . S
C399 C398 1.355 . S
C399 C401 1.419 . S
C400 C398 1.415 . S
C400 C405 1.425 . S
C400 C407 1.409 . S
C401 H393 0.930 . S
C401 C399 1.419 . S
C401 C402 1.362 . S
C402 H394 0.930 . S
C402 C401 1.362 . S
C402 C405 1.409 . S
C403 H395 0.930 . S
C403 C404 1.355 . S
C403 C405 1.415 . S
C404 C403 1.355 . S
C404 C406 1.419 . S
C405 C400 1.425 . S
C405 C402 1.409 . S
C405 C403 1.415 . S
C406 H396 0.930 . S
C406 C404 1.419 . S
C406 C407 1.362 . S
C407 H397 0.930 . S
C407 C400 1.409 . S
C407 C406 1.362 . S
H408 C414 0.930 . S
H409 C417 0.930 . S
H410 C418 0.930 . S
H411 C419 0.930 . S
H412 C422 0.930 . S
H413 C423 0.930 . S
C414 H408 0.930 . S
C414 C415 1.355 . S
C414 C416 1.415 . S
C415 C414 1.355 . S
C415 C417 1.419 . S
C416 C414 1.415 . S
C416 C421 1.425 . S
C416 C423 1.409 . S
C417 H409 0.930 . S
C417 C415 1.419 . S
C417 C418 1.362 . S
C418 H410 0.930 . S
C418 C417 1.362 . S
C418 C421 1.409 . S
C419 H411 0.930 . S
C419 C420 1.355 . S
C419 C421 1.415 . S
C420 C419 1.355 . S
C420 C422 1.419 . S
C421 C416 1.425 . S
C421 C418 1.409 . S
C421 C419 1.415 . S
C422 H412 0.930 . S
C422 C420 1.419 . S
C422 C423 1.362 . S
C423 H413 0.930 . S
C423 C416 1.409 . S
C423 C422 1.362 . S
H424 C430 0.930 . S
H425 C433 0.930 . S
H426 C434 0.930 . S
H427 C435 0.930 . S
H428 C438 0.930 . S
H429 C439 0.930 . S
C430 H424 0.930 . S
C430 C431 1.355 . S
C430 C432 1.415 . S
C431 C430 1.355 . S
C431 C433 1.419 . S
C432 C430 1.415 . S
C432 C437 1.425 . S
C432 C439 1.409 . S
C433 H425 0.930 . S
C433 C431 1.419 . S
C433 C434 1.362 . S
C434 H426 0.930 . S
C434 C433 1.362 . S
C434 C437 1.409 . S
C435 H427 0.930 . S
C435 C436 1.355 . S
C435 C437 1.415 . S
C436 C435 1.355 . S
C436 C438 1.419 . S
C437 C432 1.425 . S
C437 C434 1.409 . S
C437 C435 1.415 . S
C438 H428 0.930 . S
C438 C436 1.419 . S
C438 C439 1.362 . S
C439 H429 0.930 . S
C439 C432 1.409 . S
C439 C438 1.362 . S
H440 C446 0.930 . S
H441 C449 0.930 . S
H442 C450 0.930 . S
H443 C451 0.930 . S
H444 C454 0.930 . S
H445 C455 0.930 . S
C446 H440 0.930 . S
C446 C447 1.355 . S
C446 C448 1.415 . S
C447 C446 1.355 . S
C447 C449 1.419 . S
C448 C446 1.415 . S
C448 C453 1.425 . S
C448 C455 1.409 . S
C449 H441 0.930 . S
C449 C447 1.419 . S
C449 C450 1.362 . S
C450 H442 0.930 . S
C450 C449 1.362 . S
C450 C453 1.409 . S
C451 H443 0.930 . S
C451 C452 1.355 . S
C451 C453 1.415 . S
C452 C451 1.355 . S
C452 C454 1.419 . S
C453 C448 1.425 . S
C453 C450 1.409 . S
C453 C451 1.415 . S
C454 H444 0.930 . S
C454 C452 1.419 . S
C454 C455 1.362 . S
C455 H445 0.930 . S
C455 C448 1.409 . S
C455 C454 1.362 . S
H456 C462 0.930 . S
H457 C465 0.930 . S
H458 C466 0.930 . S
H459 C467 0.930 . S
H460 C470 0.930 . S
H461 C471 0.930 . S
C462 H456 0.930 . S
C462 C463 1.355 . S
C462 C464 1.415 . S
C463 C462 1.355 . S
C463 C465 1.419 . S
C464 C462 1.415 . S
C464 C469 1.425 . S
C464 C471 1.409 . S
C465 H457 0.930 . S
C465 C463 1.419 . S
C465 C466 1.362 . S
C466 H458 0.930 . S
C466 C465 1.362 . S
C466 C469 1.409 . S
C467 H459 0.930 . S
C467 C468 1.355 . S
C467 C469 1.415 . S
C468 C467 1.355 . S
C468 C470 1.419 . S
C469 C464 1.425 . S
C469 C466 1.409 . S
C469 C467 1.415 . S
C470 H460 0.930 . S
C470 C468 1.419 . S
C470 C471 1.362 . S
C471 H461 0.930 . S
C471 C464 1.409 . S
C471 C470 1.362 . S
H472 C478 0.930 . S
H473 C481 0.930 . S
H474 C482 0.930 . S
H475 C483 0.930 . S
H476 C486 0.930 . S
H477 C487 0.930 . S
C478 H472 0.930 . S
C478 C479 1.355 . S
C478 C480 1.415 . S
C479 C478 1.355 . S
C479 C481 1.419 . S
C480 C478 1.415 . S
C480 C485 1.425 . S
C480 C487 1.409 . S
C481 H473 0.930 . S
C481 C479 1.419 . S
C481 C482 1.362 . S
C482 H474 0.930 . S
C482 C481 1.362 . S
C482 C485 1.409 . S
C483 H475 0.930 . S
C483 C484 1.355 . S
C483 C485 1.415 . S
C484 C483 1.355 . S
C484 C486 1.419 . S
C485 C480 1.425 . S
C485 C482 1.409 . S
C485 C483 1.415 . S
C486 H476 0.930 . S
C486 C484 1.419 . S
C486 C487 1.362 . S
C487 H477 0.930 . S
C487 C480 1.409 . S
C487 C486 1.362 . S
H488 C494 0.930 . S
H489 C497 0.930 . S
H490 C498 0.930 . S
H491 C499 0.930 . S
H492 C502 0.930 . S
H493 C503 0.930 . S
C494 H488 0.930 . S
C494 C495 1.355 . S
C494 C496 1.415 . S
C495 C494 1.355 . S
C495 C497 1.419 . S
C496 C494 1.415 . S
C496 C501 1.425 . S
C496 C503 1.409 . S
C497 H489 0.930 . S
C497 C495 1.419 . S
C497 C498 1.362 . S
C498 H490 0.930 . S
C498 C497 1.362 . S
C498 C501 1.409 . S
C499 H491 0.930 . S
C499 C500 1.355 . S
C499 C501 1.415 . S
C500 C499 1.355 . S
C500 C502 1.419 . S
C501 C496 1.425 . S
C501 C498 1.409 . S
C501 C499 1.415 . S
C502 H492 0.930 . S
C502 C500 1.419 . S
C502 C503 1.362 . S
C503 H493 0.930 . S
C503 C496 1.409 . S
C503 C502 1.362 . S
H504 C510 0.930 . S
H505 C513 0.930 . S
H506 C514 0.930 . S
H507 C515 0.930 . S
H508 C518 0.930 . S
H509 C519 0.930 . S
C510 H504 0.930 . S
C510 C511 1.355 . S
C510 C512 1.415 . S
C511 C510 1.355 . S
C511 C513 1.419 . S
C512 C510 1.415 . S
C512 C517 1.425 . S
C512 C519 1.409 . S
C513 H505 0.930 . S
C513 C511 1.419 . S
C513 C514 1.362 . S
C514 H506 0.930 . S
C514 C513 1.362 . S
C514 C517 1.409 . S
C515 H507 0.930 . S
C515 C516 1.355 . S
C515 C517 1.415 . S
C516 C515 1.355 . S
C516 C518 1.419 . S
C517 C512 1.425 . S
C517 C514 1.409 . S
C517 C515 1.415 . S
C518 H508 0.930 . S
C518 C516 1.419 . S
C518 C519 1.362 . S
C519 H509 0.930 . S
C519 C512 1.409 . S
C519 C518 1.362 . S
H520 C526 0.930 . S
H521 C529 0.930 . S
H522 C530 0.930 . S
H523 C531 0.930 . S
H524 C534 0.930 . S
H525 C535 0.930 . S
C526 H520 0.930 . S
C526 C527 1.355 . S
C526 C528 1.415 . S
C527 C526 1.355 . S
C527 C529 1.419 . S
C528 C526 1.415 . S
C528 C533 1.425 . S
C528 C535 1.409 . S
C529 H521 0.930 . S
C529 C527 1.419 . S
C529 C530 1.362 . S
C530 H522 0.930 . S
C530 C529 1.362 . S
C530 C533 1.409 . S
C531 H523 0.930 . S
C531 C532 1.355 . S
C531 C533 1.415 . S
C532 C531 1.355 . S
C532 C534 1.419 . S
C533 C528 1.425 . S
C533 C530 1.409 . S
C533 C531 1.415 . S
C534 H524 0.930 . S
C534 C532 1.419 . S
C534 C535 1.362 . S
C535 H525 0.930 . S
C535 C528 1.409 . S
C535 C534 1.362 . S
H536 C542 0.930 . S
H537 C545 0.930 . S
H538 C546 0.930 . S
H539 C547 0.930 . S
H540 C550 0.930 . S
H541 C551 0.930 . S
C542 H536 0.930 . S
C542 C543 1.355 . S
C542 C544 1.415 . S
C543 C542 1.355 . S
C543 C545 1.419 . S
C544 C542 1.415 . S
C544 C549 1.425 . S
C544 C551 1.409 . S
C545 H537 0.930 . S
C545 C543 1.419 . S
C545 C546 1.362 . S
C546 H538 0.930 . S
C546 C545 1.362 . S
C546 C549 1.409 . S
C547 H539 0.930 . S
C547 C548 1.355 . S
C547 C549 1.415 . S
C548 C547 1.355 . S
C548 C550 1.419 . S
C549 C544 1.425 . S
C549 C546 1.409 . S
C549 C547 1.415 . S
C550 H540 0.930 . S
C550 C548 1.419 . S
C550 C551 1.362 . S
C551 H541 0.930 . S
C551 C544 1.409 . S
C551 C550 1.362 . S
H552 C558 0.930 . S
H553 C561 0.930 . S
H554 C562 0.930 . S
H555 C563 0.930 . S
H556 C566 0.930 . S
H557 C567 0.930 . S
C558 H552 0.930 . S
C558 C559 1.355 1_655 S
C558 C560 1.415 . S
C559 C558 1.355 1_455 S
C559 C561 1.419 . S
C560 C558 1.415 . S
C560 C565 1.425 1_655 S
C560 C567 1.409 . S
C561 H553 0.930 . S
C561 C559 1.419 . S
C561 C562 1.362 . S
C562 H554 0.930 . S
C562 C561 1.362 . S
C562 C565 1.409 . S
C563 H555 0.930 . S
C563 C564 1.355 . S
C563 C565 1.415 . S
C564 C563 1.355 . S
C564 C566 1.419 1_455 S
C565 C560 1.425 1_455 S
C565 C562 1.409 . S
C565 C563 1.415 . S
C566 H556 0.930 . S
C566 C564 1.419 1_655 S
C566 C567 1.362 . S
C567 H557 0.930 . S
C567 C560 1.409 . S
C567 C566 1.362 . S
H568 C574 0.930 . S
H569 C577 0.930 . S
H570 C578 0.930 . S
H571 C579 0.930 . S
H572 C582 0.930 . S
H573 C583 0.930 . S
C574 H568 0.930 . S
C574 C575 1.355 1_565 S
C574 C576 1.415 1_565 S
C575 C574 1.355 1_545 S
C575 C577 1.419 . S
C576 C574 1.415 1_545 S
C576 C581 1.425 . S
C576 C583 1.409 1_545 S
C577 H569 0.930 . S
C577 C575 1.419 . S
C577 C578 1.362 . S
C578 H570 0.930 . S
C578 C577 1.362 . S
C578 C581 1.409 . S
C579 H571 0.930 . S
C579 C580 1.355 . S
C579 C581 1.415 . S
C580 C579 1.355 . S
C580 C582 1.419 1_545 S
C581 C576 1.425 . S
C581 C578 1.409 . S
C581 C579 1.415 . S
C582 H572 0.930 . S
C582 C580 1.419 1_565 S
C582 C583 1.362 . S
C583 H573 0.930 . S
C583 C576 1.409 1_565 S
C583 C582 1.362 . S
H584 C590 0.930 . S
H585 C593 0.930 . S
H586 C594 0.930 . S
H587 C595 0.930 . S
H588 C598 0.930 . S
H589 C599 0.930 . S
C590 H584 0.930 . S
C590 C591 1.355 . S
C590 C592 1.415 . S
C591 C590 1.355 . S
C591 C593 1.419 . S
C592 C590 1.415 . S
C592 C597 1.425 . S
C592 C599 1.409 . S
C593 H585 0.930 . S
C593 C591 1.419 . S
C593 C594 1.362 . S
C594 H586 0.930 . S
C594 C593 1.362 . S
C594 C597 1.409 . S
C595 H587 0.930 . S
C595 C596 1.355 . S
C595 C597 1.415 . S
C596 C595 1.355 . S
C596 C598 1.419 . S
C597 C592 1.425 . S
C597 C594 1.409 . S
C597 C595 1.415 . S
C598 H588 0.930 . S
C598 C596 1.419 . S
C598 C599 1.362 . S
C599 H589 0.930 . S
C599 C592 1.409 . S
C599 C598 1.362 . S
H600 C606 0.930 . S
H601 C609 0.930 . S
H602 C610 0.930 . S
H603 C611 0.930 . S
H604 C614 0.930 . S
H605 C615 0.930 . S
C606 H600 0.930 . S
C606 C607 1.355 1_565 S
C606 C608 1.415 . S
C607 C606 1.355 1_545 S
C607 C609 1.419 . S
C608 C606 1.415 . S
C608 C613 1.425 1_565 S
C608 C615 1.409 . S
C609 H601 0.930 . S
C609 C607 1.419 . S
C609 C610 1.362 . S
C610 H602 0.930 . S
C610 C609 1.362 . S
C610 C613 1.409 . S
C611 H603 0.930 . S
C611 C612 1.355 . S
C611 C613 1.415 . S
C612 C611 1.355 . S
C612 C614 1.419 1_545 S
C613 C608 1.425 1_545 S
C613 C610 1.409 . S
C613 C611 1.415 . S
C614 H604 0.930 . S
C614 C612 1.419 1_565 S
C614 C615 1.362 . S
C615 H605 0.930 . S
C615 C608 1.409 . S
C615 C614 1.362 . S
H616 C622 0.930 . S
H617 C625 0.930 . S
H618 C626 0.930 . S
H619 C627 0.930 . S
H620 C630 0.930 . S
H621 C631 0.930 . S
C622 H616 0.930 . S
C622 C623 1.355 . S
C622 C624 1.415 . S
C623 C622 1.355 . S
C623 C625 1.419 . S
C624 C622 1.415 . S
C624 C629 1.425 . S
C624 C631 1.409 . S
C625 H617 0.930 . S
C625 C623 1.419 . S
C625 C626 1.362 . S
C626 H618 0.930 . S
C626 C625 1.362 . S
C626 C629 1.409 . S
C627 H619 0.930 . S
C627 C628 1.355 . S
C627 C629 1.415 . S
C628 C627 1.355 . S
C628 C630 1.419 . S
C629 C624 1.425 . S
C629 C626 1.409 . S
C629 C627 1.415 . S
C630 H620 0.930 . S
C630 C628 1.419 . S
C630 C631 1.362 . S
C631 H621 0.930 . S
C631 C624 1.409 . S
C631 C630 1.362 . S
H632 C638 0.931 . S
H633 C641 0.930 . S
H634 C642 0.930 . S
H635 C643 0.930 . S
H636 C646 0.930 . S
H637 C647 0.930 . S
C638 H632 0.931 . S
C638 C639 1.350 1_655 S
C638 C640 1.416 . S
C639 C638 1.350 1_455 S
C639 C641 1.419 . S
C640 C638 1.416 . S
C640 C645 1.425 . S
C640 C647 1.409 . S
C641 H633 0.930 . S
C641 C639 1.419 . S
C641 C642 1.362 . S
C642 H634 0.930 . S
C642 C641 1.362 . S
C642 C645 1.409 1_455 S
C643 H635 0.930 . S
C643 C644 1.355 . S
C643 C645 1.415 . S
C644 C643 1.355 . S
C644 C646 1.419 . S
C645 C640 1.425 . S
C645 C642 1.409 1_655 S
C645 C643 1.415 . S
C646 H636 0.930 . S
C646 C644 1.419 . S
C646 C647 1.362 . S
C647 H637 0.930 . S
C647 C640 1.409 . S
C647 C646 1.362 . S
C367 C19 2.036 . S
C372 C335 1.995 . S
C383 C46 1.264 . S
C388 C242 1.251 . S
C399 C95 0.377 . S
C404 C282 0.287 . S
C415 C10 2.139 . S
C420 C322 2.073 . S
C436 C255 1.357 . S
C431 C55 1.325 . S
C452 C295 0.713 . S
C447 C86 0.776 . S
C463 C59 3.179 . S
C468 C162 3.137 . S
C479 C90 2.174 . S
C484 C202 2.091 . S
C495 C15 1.296 . S
C500 C135 1.334 . S
C516 C175 3.041 . S
C511 C50 3.127 . S
C532 C215 1.959 . S
C527 C99 2.024 . S
C543 C6 1.206 . S
C548 C122 1.197 . S
C564 C221 1.349 1_554 S
C559 C9 1.341 . S
C575 C58 1.483 . S
C580 C141 1.492 . S
C591 C98 1.665 . S
C596 C181 1.750 . S
C612 C301 1.106 . S
C607 C49 1.103 . S
C628 C341 1.354 1_556 S
C623 C89 1.301 . S
C639 C18 1.470 . S
C644 C261 1.473 . S
