# Generated by pormake.
# Topology anh, (6,3)-cn, num edge types: 1
# Building blocks:
#     Node 0, Type 0, BuildingBlock: CUWYAW_clean_sbu_0, # of connection points: 6
#     Node 1, Type 0, BuildingBlock: CUWYAW_clean_sbu_0, # of connection points: 6
#     Node 2, Type 0, BuildingBlock: CUWYAW_clean_sbu_0, # of connection points: 6
#     Node 3, Type 1, BuildingBlock: OLANEW_clean_sbu_2, # of connection points: 3
#     Node 4, Type 1, BuildingBlock: OLANEW_clean_sbu_2, # of connection points: 3
#     Node 5, Type 1, BuildingBlock: OLANEW_clean_sbu_2, # of connection points: 3
#     Node 6, Type 1, BuildingBlock: OLANEW_clean_sbu_2, # of connection points: 3
#     Node 7, Type 1, BuildingBlock: OLANEW_clean_sbu_2, # of connection points: 3
#     Node 8, Type 1, BuildingBlock: OLANEW_clean_sbu_2, # of connection points: 3
#     Edge 9, Type (0, 1), BuildingBlock: XUDNAN_clean_linker_2, # of connection points: 2
#     Edge 10, Type (0, 1), BuildingBlock: XUDNAN_clean_linker_2, # of connection points: 2
#     Edge 11, Type (0, 1), BuildingBlock: XUDNAN_clean_linker_2, # of connection points: 2
#     Edge 12, Type (0, 1), BuildingBlock: XUDNAN_clean_linker_2, # of connection points: 2
#     Edge 13, Type (0, 1), BuildingBlock: XUDNAN_clean_linker_2, # of connection points: 2
#     Edge 14, Type (0, 1), BuildingBlock: XUDNAN_clean_linker_2, # of connection points: 2
#     Edge 15, Type (0, 1), BuildingBlock: XUDNAN_clean_linker_2, # of connection points: 2
#     Edge 16, Type (0, 1), BuildingBlock: XUDNAN_clean_linker_2, # of connection points: 2
#     Edge 17, Type (0, 1), BuildingBlock: XUDNAN_clean_linker_2, # of connection points: 2
#     Edge 18, Type (0, 1), BuildingBlock: XUDNAN_clean_linker_2, # of connection points: 2
#     Edge 19, Type (0, 1), BuildingBlock: XUDNAN_clean_linker_2, # of connection points: 2
#     Edge 20, Type (0, 1), BuildingBlock: XUDNAN_clean_linker_2, # of connection points: 2
#     Edge 21, Type (0, 1), BuildingBlock: XUDNAN_clean_linker_2, # of connection points: 2
#     Edge 22, Type (0, 1), BuildingBlock: XUDNAN_clean_linker_2, # of connection points: 2
#     Edge 23, Type (0, 1), BuildingBlock: XUDNAN_clean_linker_2, # of connection points: 2
#     Edge 24, Type (0, 1), BuildingBlock: XUDNAN_clean_linker_2, # of connection points: 2
#     Edge 25, Type (0, 1), BuildingBlock: XUDNAN_clean_linker_2, # of connection points: 2
#     Edge 26, Type (0, 1), BuildingBlock: XUDNAN_clean_linker_2, # of connection points: 2
# Relax obj value: 0.228
# Max RMSD: 0.128
# Mean RMSD: 0.113
data_MOF--net-anh--node1-CUWYAW_clean_sbu_0--node2-OLANEW_clean_sbu_2--edge1-XUDNAN_clean_linker_2
_symmetry_space_group_name_H-M    P1
_symmetry_Int_Tables_number       1
_symmetry_cell_setting            triclinic
loop_
_symmetry_equiv_pos_as_xyz
'x, y, z'
_cell_length_a     36.36825
_cell_length_b     36.558302
_cell_length_c     50.418477
_cell_angle_alpha  89.457207
_cell_angle_beta   89.880007
_cell_angle_gamma 119.81216
loop_
_atom_site_label
_atom_site_type_symbol
_atom_site_fract_x
_atom_site_fract_y
_atom_site_fract_z
_atom_type_partial_charge
C0 C 0.972 0.39359 0.16316 0.0
Eu1 Eu 1.02547 0.46962 0.17803 0.0
C2 C 0.93205 0.37425 0.1486 0.0
C3 C 0.90424 0.33096 0.1513 0.0
C4 C 0.86357 0.31299 0.14077 0.0
C5 C 0.85016 0.338 0.12696 0.0
C6 C 0.87938 0.38107 0.12289 0.0
C7 C 0.91965 0.39917 0.13409 0.0
C8 C 0.05354 0.48981 0.22901 0.0
C9 C 0.97802 0.52509 0.17967 0.0
C10 C 0.11379 0.63799 0.20673 0.0
Eu11 Eu 0.0797 0.56257 0.18763 0.0
C12 C 0.15051 0.68052 0.20599 0.0
C13 C 0.14308 0.7146 0.20638 0.0
C14 C 0.17683 0.75567 0.20752 0.0
C15 C 0.21863 0.76333 0.2084 0.0
C16 C 0.22615 0.72916 0.20711 0.0
C17 C 0.19221 0.68789 0.20592 0.0
C18 C 0.07532 0.5414 0.13614 0.0
C19 C 0.12702 0.51014 0.17378 0.0
O20 O 1.0062 0.41904 0.14953 0.0
O21 O 0.97047 0.40839 0.18643 0.0
O22 O 0.0509 0.45802 0.21631 0.0
O23 O 0.04019 0.50894 0.21452 0.0
O24 O 0.97448 0.48831 0.17385 0.0
O25 O 1.01461 0.55694 0.18736 0.0
O26 O 0.11807 0.60765 0.21772 0.0
O27 O 0.08999 0.62629 0.18561 0.0
O28 O 0.10896 0.57243 0.14644 0.0
O29 O 0.0454 0.52577 0.15277 0.0
O30 O 0.13042 0.54271 0.18732 0.0
O31 O 0.08979 0.48054 0.16505 0.0
H32 H 0.9132 0.31139 0.16272 0.0
H33 H 0.84198 0.27997 0.14501 0.0
H34 H 0.87061 0.40121 0.11203 0.0
H35 H 0.94051 0.43283 0.13218 0.0
H36 H 0.11101 0.70936 0.2063 0.0
H37 H 0.17019 0.78145 0.20808 0.0
H38 H 0.25811 0.73422 0.20796 0.0
H39 H 0.19849 0.66187 0.2055 0.0
C40 C 0.53034 0.14873 0.47355 0.0
Eu41 Eu 0.55379 0.1036 0.50119 0.0
C42 C 0.54803 0.19439 0.46977 0.0
C43 C 0.59209 0.22153 0.46857 0.0
C44 C 0.60889 0.26504 0.46673 0.0
C45 C 0.58195 0.2823 0.46613 0.0
C46 C 0.5378 0.25501 0.46654 0.0
C47 C 0.521 0.21136 0.46838 0.0
C48 C 0.56125 0.10056 0.55534 0.0
C49 C 0.65574 0.14721 0.5122 0.0
C50 C 0.61017 0.99304 0.54317 0.0
Eu51 Eu 0.59412 0.04584 0.51808 0.0
C52 C 0.59475 0.9478 0.54127 0.0
C53 C 0.60919 0.92838 0.55917 0.0
C54 C 0.59705 0.88592 0.55635 0.0
C55 C 0.57026 0.86227 0.53554 0.0
C56 C 0.55494 0.88168 0.51804 0.0
C57 C 0.56711 0.92418 0.5209 0.0
C58 C 0.60235 0.06865 0.46673 0.0
C59 C 0.4927 1.00051 0.50168 0.0
O60 O 0.55304 0.13322 0.46389 0.0
O61 O 0.51478 0.13347 0.49716 0.0
O62 O 0.5471 0.12278 0.54357 0.0
O63 O 0.57066 0.08274 0.53762 0.0
O64 O 0.62453 0.14969 0.50029 0.0
O65 O 0.64961 0.11224 0.52465 0.0
O66 O 0.58269 1.00356 0.5517 0.0
O67 O 0.63234 1.01575 0.52276 0.0
O68 O 0.6281 0.05883 0.47845 0.0
O69 O 0.57097 0.06033 0.48152 0.0
O70 O 0.52554 0.99577 0.50838 0.0
O71 O 0.49614 0.03824 0.49851 0.0
H72 H 0.61361 0.20916 0.46946 0.0
H73 H 0.643 0.28525 0.46613 0.0
H74 H 0.51627 0.26743 0.46643 0.0
H75 H 0.48693 0.19091 0.46933 0.0
H76 H 0.63064 0.94631 0.57494 0.0
H77 H 0.60986 0.87202 0.56993 0.0
H78 H 0.53395 0.86415 0.50199 0.0
H79 H 0.55566 0.93883 0.50691 0.0
C80 C 0.6523 0.58812 0.80872 0.0
Eu81 Eu 0.57825 0.55671 0.83119 0.0
C82 C 0.68604 0.57748 0.8119 0.0
C83 C 0.69665 0.5698 0.83728 0.0
C84 C 0.72342 0.55308 0.8402 0.0
C85 C 0.73986 0.54331 0.81782 0.0
C86 C 0.7302 0.55207 0.79241 0.0
C87 C 0.70356 0.56922 0.78948 0.0
C88 C 0.56452 0.54901 0.88493 0.0
C89 C 0.54046 0.45475 0.83702 0.0
C90 C 0.41288 0.46752 0.87036 0.0
Eu91 Eu 0.48722 0.5014 0.84788 0.0
C92 C 0.3719 0.46234 0.862 0.0
C93 C 0.35728 0.45009 0.836 0.0
C94 C 0.3182 0.44498 0.8283 0.0
C95 C 0.29347 0.45271 0.8463 0.0
C96 C 0.30849 0.46571 0.87214 0.0
C97 C 0.34738 0.47033 0.87995 0.0
C98 C 0.49906 0.50521 0.79484 0.0
C99 C 0.52493 0.60304 0.83576 0.0
O100 O 0.61763 0.55843 0.7981 0.0
O101 O 0.64472 0.60554 0.82903 0.0
O102 O 0.59318 0.58307 0.8732 0.0
O103 O 0.54696 0.52 0.86832 0.0
O104 O 0.56913 0.49098 0.82627 0.0
O105 O 0.50816 0.45212 0.85082 0.0
O106 O 0.44279 0.50608 0.87503 0.0
O107 O 0.42658 0.44611 0.85711 0.0
O108 O 0.46886 0.47309 0.80712 0.0
O109 O 0.51771 0.53543 0.81054 0.0
O110 O 0.49812 0.56934 0.85 0.0
O111 O 0.55613 0.60319 0.82232 0.0
H112 H 0.68286 0.575 0.85491 0.0
H113 H 0.72958 0.54588 0.86003 0.0
H114 H 0.74253 0.54487 0.77486 0.0
H115 H 0.69528 0.57445 0.76973 0.0
H116 H 0.37594 0.44432 0.82163 0.0
H117 H 0.30738 0.43523 0.80824 0.0
H118 H 0.28973 0.47143 0.88647 0.0
H119 H 0.35825 0.48 0.90002 0.0
O120 O 0.57172 0.12666 0.26946 0.0
Cd121 Cd 0.53212 0.11218 0.22767 0.0
O122 O 0.60835 0.09424 0.26217 0.0
Cd123 Cd 0.58037 0.07269 0.22361 0.0
O124 O 0.51698 0.02698 0.2116 0.0
C125 C 0.49065 0.01859 0.23044 0.0
O126 O 0.50443 0.0374 0.25329 0.0
C127 C 0.59804 0.11547 0.27719 0.0
C128 C 0.5791 0.16486 0.18594 0.0
O129 O 0.57699 0.12917 0.18977 0.0
O130 O 0.55852 0.17549 0.2018 0.0
O131 O 0.64617 0.57998 0.61138 0.0
Cd132 Cd 0.6894 0.61788 0.57176 0.0
O133 O 0.59814 0.51762 0.59623 0.0
Cd134 Cd 0.60123 0.53881 0.55582 0.0
O135 O 0.58537 0.58159 0.5353 0.0
C136 C 0.56977 0.59739 0.55097 0.0
O137 O 0.56413 0.58544 0.57602 0.0
C138 C 0.61634 0.54225 0.61549 0.0
C139 C 0.6841 0.56358 0.53159 0.0
O140 O 0.66697 0.58668 0.52897 0.0
O141 O 0.70554 0.5678 0.5526 0.0
O142 O 0.991 0.44291 0.93963 0.0
Cd143 Cd 0.95885 0.42415 0.89589 0.0
O144 O 0.95207 0.38273 0.96109 0.0
Cd145 Cd 0.91175 0.35604 0.92661 0.0
O146 O 0.87414 0.36584 0.89693 0.0
C147 C 0.87108 0.39808 0.90231 0.0
O148 O 0.88798 0.41824 0.9244 0.0
C149 C 0.98249 0.42063 0.96067 0.0
C150 C 1.01908 0.42474 0.86219 0.0
O151 O 1.01872 0.45882 0.86729 0.0
O152 O 0.98967 0.38999 0.87211 0.0
O153 O 0.12854 0.59929 0.42103 0.0
Cd154 Cd 0.16443 0.64109 0.46224 0.0
O155 O 0.07356 0.54364 0.43966 0.0
Cd156 Cd 1.01313 0.48069 0.44451 0.0
O157 O 0.95806 0.41879 0.4593 0.0
C158 C 0.91876 0.40778 0.45783 0.0
O159 O 0.90827 0.43372 0.44643 0.0
C160 C 0.09487 0.56317 0.41885 0.0
C161 C 0.23485 0.72569 0.46339 0.0
O162 O 0.24093 0.69402 0.46421 0.0
O163 O 0.19647 0.71763 0.46058 0.0
O164 O 0.53071 0.98791 0.74774 0.0
Cd165 Cd 0.50096 0.93339 0.78489 0.0
O166 O 0.52799 0.04207 0.76511 0.0
Cd167 Cd 0.53029 0.1047 0.77165 0.0
O168 O 0.54192 0.16985 0.78204 0.0
C169 C 0.51521 0.17902 0.79214 0.0
O170 O 0.47643 0.14846 0.79708 0.0
C171 C 0.53573 0.02513 0.74522 0.0
C172 C 0.5174 0.86642 0.79829 0.0
O173 O 0.49749 0.86498 0.777 0.0
O174 O 0.53188 0.90005 0.81206 0.0
O175 O 0.60364 0.53282 0.08474 0.0
Cd176 Cd 0.63286 0.52234 0.12781 0.0
O177 O 0.54349 0.5279 0.09893 0.0
Cd178 Cd 0.48006 0.52564 0.10047 0.0
O179 O 0.41442 0.51482 0.11035 0.0
C180 C 0.4053 0.54014 0.12226 0.0
O181 O 0.43629 0.57711 0.12947 0.0
C182 C 0.56884 0.53246 0.07982 0.0
C183 C 0.71643 0.53449 0.13473 0.0
O184 O 0.68581 0.49867 0.12759 0.0
O185 O 0.70828 0.56467 0.1371 0.0
H186 H 0.21313 0.57077 0.1774 0.0
H187 H 0.12818 0.44216 0.15288 0.0
H188 H 0.18912 0.43611 0.13763 0.0
H189 H 0.28613 0.59866 0.12264 0.0
H190 H 0.33293 0.63024 0.14192 0.0
H191 H 0.28282 0.62464 0.15203 0.0
H192 H 0.28997 0.59732 0.19818 0.0
H193 H 0.34022 0.60304 0.18827 0.0
H194 H 0.29851 0.55286 0.20041 0.0
H195 H 0.25901 0.4438 0.1235 0.0
H196 H 0.3332 0.46458 0.11275 0.0
H197 H 0.37467 0.58801 0.1461 0.0
C198 C 0.20739 0.54118 0.16912 0.0
C199 C 0.1654 0.50692 0.16651 0.0
C200 C 0.15965 0.469 0.1552 0.0
C201 C 0.19423 0.46516 0.14641 0.0
C202 C 0.23494 0.49947 0.14891 0.0
C203 C 0.24184 0.53675 0.16008 0.0
C204 C 0.28905 0.56893 0.15995 0.0
C205 C 0.29826 0.60792 0.14313 0.0
C206 C 0.3054 0.58126 0.1884 0.0
C207 C 0.30737 0.54389 0.14695 0.0
C208 C 0.27548 0.50389 0.14074 0.0
C209 C 0.28426 0.47503 0.12837 0.0
C210 C 0.32665 0.48718 0.12227 0.0
C211 C 0.36018 0.52792 0.12851 0.0
C212 C 0.35003 0.55656 0.14104 0.0
H213 H 0.68014 0.2248 0.48905 0.0
H214 H 0.73157 0.15399 0.52818 0.0
H215 H 0.80416 0.21298 0.51945 0.0
H216 H 0.75625 0.26798 0.43742 0.0
H217 H 0.7584 0.31831 0.43671 0.0
H218 H 0.71074 0.27182 0.44757 0.0
H219 H 0.71252 0.30756 0.49204 0.0
H220 H 0.75982 0.35439 0.4811 0.0
H221 H 0.75962 0.32908 0.512 0.0
H222 H 0.87221 0.2795 0.50408 0.0
H223 H 0.92829 0.3473 0.48523 0.0
H224 H 0.83188 0.37417 0.45614 0.0
C225 C 0.70649 0.22166 0.49613 0.0
C226 C 0.69967 0.18437 0.50946 0.0
C227 C 0.73555 0.18205 0.51813 0.0
C228 C 0.77705 0.21547 0.51316 0.0
C229 C 0.78248 0.25134 0.49954 0.0
C230 C 0.74804 0.25469 0.49135 0.0
C231 C 0.76219 0.29604 0.47656 0.0
C232 C 0.74593 0.28804 0.44786 0.0
C233 C 0.74768 0.32338 0.4913 0.0
C234 C 0.81008 0.31542 0.47741 0.0
C235 C 0.82122 0.28922 0.49079 0.0
C236 C 0.86369 0.30024 0.49371 0.0
C237 C 0.89544 0.3389 0.48285 0.0
C238 C 0.88488 0.36645 0.46914 0.0
C239 C 0.84137 0.35416 0.4665 0.0
H240 H 0.53484 0.65452 0.79274 0.0
H241 H 0.50477 0.63839 0.87676 0.0
H242 H 0.50206 0.70481 0.87638 0.0
H243 H 0.59876 0.76727 0.79063 0.0
H244 H 0.57793 0.77377 0.75963 0.0
H245 H 0.57881 0.72576 0.76652 0.0
H246 H 0.49807 0.68213 0.75835 0.0
H247 H 0.49698 0.72996 0.75122 0.0
H248 H 0.46275 0.69406 0.77663 0.0
H249 H 0.50829 0.77614 0.86742 0.0
H250 H 0.51086 0.84054 0.84959 0.0
H251 H 0.52792 0.80691 0.77011 0.0
C252 C 0.52758 0.665 0.81103 0.0
C253 C 0.52036 0.64142 0.8349 0.0
C254 C 0.51035 0.65583 0.8583 0.0
C255 C 0.50899 0.69368 0.85826 0.0
C256 C 0.51665 0.7164 0.8345 0.0
C257 C 0.52472 0.70209 0.81115 0.0
C258 C 0.52946 0.73135 0.78805 0.0
C259 C 0.57388 0.75068 0.77547 0.0
C260 C 0.49474 0.70798 0.76734 0.0
C261 C 0.52337 0.76469 0.80208 0.0
C262 C 0.51688 0.75579 0.82897 0.0
C263 C 0.51273 0.783 0.84636 0.0
C264 C 0.51451 0.81974 0.83604 0.0
C265 C 0.51935 0.82883 0.80844 0.0
C266 C 0.52381 0.80073 0.79126 0.0
H267 H 0.89771 0.47089 0.15921 0.0
H268 H 0.97513 0.59678 0.19052 0.0
H269 H 0.91786 0.61238 0.18165 0.0
H270 H 0.84899 0.50067 0.10643 0.0
H271 H 0.79863 0.45289 0.11009 0.0
H272 H 0.84692 0.45336 0.11875 0.0
H273 H 0.81476 0.4252 0.16648 0.0
H274 H 0.76746 0.42576 0.15652 0.0
H275 H 0.79614 0.45438 0.18538 0.0
H276 H 0.8534 0.61596 0.16829 0.0
H277 H 0.78425 0.60567 0.15391 0.0
H278 H 0.74588 0.47714 0.13178 0.0
C279 C 0.9025 0.50161 0.16443 0.0
C280 C 0.94134 0.53252 0.17568 0.0
C281 C 0.94603 0.57239 0.18196 0.0
C282 C 0.91356 0.58169 0.17693 0.0
C283 C 0.87609 0.55089 0.16559 0.0
C284 C 0.87014 0.51152 0.15957 0.0
C285 C 0.82649 0.48425 0.14753 0.0
C286 C 0.83046 0.47204 0.11901 0.0
C287 C 0.79961 0.44506 0.165 0.0
C288 C 0.8089 0.5144 0.14784 0.0
C289 C 0.83835 0.55276 0.15818 0.0
C290 C 0.83005 0.58598 0.16026 0.0
C291 C 0.79054 0.57982 0.15192 0.0
C292 C 0.75924 0.54063 0.14164 0.0
C293 C 0.76892 0.50755 0.13949 0.0
H294 H 0.46996 0.91505 0.50002 0.0
H295 H 0.41885 0.99937 0.48985 0.0
H296 H 0.34979 0.93925 0.47834 0.0
H297 H 0.41273 0.84569 0.44592 0.0
H298 H 0.40282 0.79804 0.46296 0.0
H299 H 0.44902 0.8475 0.47088 0.0
H300 H 0.42632 0.83705 0.52021 0.0
H301 H 0.38014 0.78744 0.51255 0.0
H302 H 0.37429 0.82772 0.52915 0.0
H303 H 0.28593 0.87095 0.46738 0.0
H304 H 0.23032 0.79782 0.45918 0.0
H305 H 0.31976 0.75478 0.47608 0.0
C306 C 0.44421 0.92086 0.49551 0.0
C307 C 0.45044 0.96251 0.49591 0.0
C308 C 0.41555 0.96826 0.48973 0.0
C309 C 0.3759 0.93413 0.48309 0.0
C310 C 0.37095 0.89385 0.48263 0.0
C311 C 0.40396 0.88682 0.48876 0.0
C312 C 0.38947 0.83994 0.48675 0.0
C313 C 0.41504 0.83236 0.46535 0.0
C314 C 0.39274 0.82198 0.51378 0.0
C315 C 0.3433 0.82197 0.47854 0.0
C316 C 0.33357 0.85388 0.47626 0.0
C317 C 0.29318 0.84568 0.46911 0.0
C318 C 0.26169 0.80385 0.46443 0.0
C319 C 0.27028 0.77015 0.46684 0.0
C320 C 0.31199 0.77964 0.47386 0.0
H321 H 0.47943 0.36939 0.8405 0.0
H322 H 0.6122 0.45409 0.82188 0.0
H323 H 0.62039 0.39353 0.80954 0.0
H324 H 0.49251 0.2825 0.86741 0.0
H325 H 0.44397 0.2421 0.85314 0.0
H326 H 0.44888 0.29192 0.86213 0.0
H327 H 0.42933 0.30165 0.81426 0.0
H328 H 0.42465 0.25203 0.80507 0.0
H329 H 0.4599 0.29938 0.78677 0.0
H330 H 0.61397 0.32382 0.79702 0.0
H331 H 0.59347 0.25028 0.78638 0.0
H332 H 0.46487 0.20952 0.81258 0.0
C333 C 0.51039 0.3751 0.83431 0.0
C334 C 0.5452 0.41683 0.83239 0.0
C335 C 0.58495 0.4227 0.82363 0.0
C336 C 0.58999 0.38836 0.81653 0.0
C337 C 0.55502 0.34785 0.81814 0.0
C338 C 0.51599 0.34095 0.82692 0.0
C339 C 0.48329 0.29418 0.82588 0.0
C340 C 0.46616 0.27664 0.8538 0.0
C341 C 0.44716 0.28637 0.80686 0.0
C342 C 0.50996 0.27606 0.81503 0.0
C343 C 0.55129 0.30761 0.81076 0.0
C344 C 0.5817 0.29884 0.80042 0.0
C345 C 0.56971 0.25684 0.79437 0.0
C346 C 0.52756 0.2237 0.79859 0.0
C347 C 0.49743 0.23383 0.80912 0.0
H348 H 0.5496 0.80042 0.57311 0.0
H349 H 0.57089 0.82562 0.48856 0.0
H350 H 0.5642 0.75565 0.48232 0.0
H351 H 0.61182 0.75468 0.58037 0.0
H352 H 0.57855 0.7156 0.60468 0.0
H353 H 0.57794 0.76433 0.60187 0.0
H354 H 0.49667 0.72303 0.59473 0.0
H355 H 0.497 0.67401 0.59766 0.0
H356 H 0.47494 0.6848 0.56863 0.0
H357 H 0.56575 0.6878 0.48631 0.0
H358 H 0.57276 0.62645 0.50011 0.0
H359 H 0.55 0.64594 0.58193 0.0
C360 C 0.55208 0.79088 0.55322 0.0
C361 C 0.56064 0.81835 0.53132 0.0
C362 C 0.56368 0.80479 0.50558 0.0
C363 C 0.56005 0.76516 0.50185 0.0
C364 C 0.55291 0.73936 0.52402 0.0
C365 C 0.54846 0.75151 0.54916 0.0
C366 C 0.54441 0.71965 0.56998 0.0
C367 C 0.58032 0.73977 0.59041 0.0
C368 C 0.50064 0.69915 0.58354 0.0
C369 C 0.54901 0.68852 0.55275 0.0
C370 C 0.55341 0.70011 0.52626 0.0
C371 C 0.5615 0.67793 0.50693 0.0
C372 C 0.56559 0.64326 0.51495 0.0
C373 C 0.56168 0.6313 0.54205 0.0
C374 C 0.55255 0.65389 0.56101 0.0
H375 H 0.80269 0.56148 0.85341 0.0
H376 H 0.73015 0.47392 0.79142 0.0
H377 H 0.76168 0.4297 0.80338 0.0
H378 H 0.898 0.5484 0.84944 0.0
H379 H 0.90419 0.55191 0.88494 0.0
H380 H 0.88206 0.58013 0.86806 0.0
H381 H 0.81579 0.54366 0.8987 0.0
H382 H 0.83728 0.51487 0.91537 0.0
H383 H 0.78568 0.48688 0.9004 0.0
H384 H 0.79396 0.39044 0.8263 0.0
H385 H 0.82592 0.36108 0.85715 0.0
H386 H 0.87418 0.47377 0.9048 0.0
C387 C 0.79425 0.53353 0.84193 0.0
C388 C 0.76422 0.52115 0.82145 0.0
C389 C 0.75372 0.48431 0.80691 0.0
C390 C 0.77128 0.45891 0.81365 0.0
C391 C 0.79946 0.47111 0.83479 0.0
C392 C 0.81122 0.50787 0.84849 0.0
C393 C 0.83872 0.51214 0.87197 0.0
C394 C 0.8834 0.55041 0.86837 0.0
C395 C 0.81811 0.5145 0.89814 0.0
C396 C 0.83933 0.47128 0.87 0.0
C397 C 0.81714 0.44825 0.84824 0.0
C398 C 0.8119 0.40848 0.84319 0.0
C399 C 0.82994 0.39198 0.86086 0.0
C400 C 0.85234 0.41509 0.88339 0.0
C401 C 0.85717 0.45527 0.88778 0.0
H402 H 0.29612 0.80256 0.18329 0.0
H403 H 0.22098 0.82119 0.243 0.0
H404 H 0.28079 0.89215 0.25166 0.0
H405 H 0.39128 0.85 0.21828 0.0
H406 H 0.42498 0.8743 0.18973 0.0
H407 H 0.37479 0.82686 0.186 0.0
H408 H 0.35275 0.86419 0.1507 0.0
H409 H 0.40297 0.91186 0.15435 0.0
H410 H 0.35429 0.91286 0.1588 0.0
H411 H 0.34992 0.95675 0.25744 0.0
H412 H 0.42484 1.01265 0.25939 0.0
H413 H 0.45545 0.95346 0.19541 0.0
C414 C 0.29221 0.82181 0.19798 0.0
C415 C 0.25391 0.80664 0.21233 0.0
C416 C 0.24984 0.83259 0.23144 0.0
C417 C 0.28362 0.87285 0.23654 0.0
C418 C 0.32106 0.88674 0.22223 0.0
C419 C 0.32557 0.86222 0.20323 0.0
C420 C 0.37008 0.88377 0.19183 0.0
C421 C 0.39154 0.85715 0.19677 0.0
C422 C 0.37 0.89377 0.16216 0.0
C423 C 0.39018 0.92359 0.20805 0.0
C424 C 0.3612 0.92474 0.22531 0.0
C425 C 0.37281 0.95667 0.24373 0.0
C426 C 0.41539 0.98811 0.24477 0.0
C427 C 0.44563 0.98736 0.22742 0.0
C428 C 0.43272 0.95512 0.20853 0.0
H429 H 0.64577 0.33767 0.49771 0.0
H430 H 0.55726 0.33091 0.4378 0.0
H431 H 0.58251 0.4069 0.44339 0.0
H432 H 0.62979 0.40045 0.54044 0.0
H433 H 0.68388 0.43056 0.55141 0.0
H434 H 0.66407 0.37796 0.53945 0.0
H435 H 0.72474 0.40564 0.50456 0.0
H436 H 0.7449 0.45853 0.51647 0.0
H437 H 0.73229 0.44728 0.48189 0.0
H438 H 0.61078 0.48066 0.45956 0.0
H439 H 0.63736 0.54514 0.48615 0.0
H440 H 0.7077 0.50346 0.53529 0.0
C441 C 0.6327 0.35248 0.48511 0.0
C442 C 0.59985 0.32857 0.46714 0.0
C443 C 0.58245 0.34873 0.4517 0.0
C444 C 0.59684 0.39189 0.45458 0.0
C445 C 0.62876 0.41439 0.47289 0.0
C446 C 0.64655 0.39535 0.48783 0.0
C447 C 0.67693 0.42512 0.50818 0.0
C448 C 0.66279 0.40747 0.53653 0.0
C449 C 0.72242 0.43472 0.50242 0.0
C450 C 0.67221 0.46342 0.5031 0.0
C451 C 0.64492 0.45693 0.48234 0.0
C452 C 0.63282 0.48644 0.47551 0.0
C453 C 0.64808 0.52298 0.49074 0.0
C454 C 0.67483 0.52946 0.51269 0.0
C455 C 0.68791 0.49978 0.51837 0.0
H456 H 0.26179 0.50558 0.85381 0.0
H457 H 0.23011 0.38353 0.82233 0.0
H458 H 0.15658 0.36788 0.81487 0.0
H459 H 0.17265 0.47321 0.89034 0.0
H460 H 0.16685 0.51879 0.88445 0.0
H461 H 0.21831 0.52352 0.88229 0.0
H462 H 0.22751 0.55353 0.83442 0.0
H463 H 0.17581 0.54881 0.83644 0.0
H464 H 0.18814 0.52402 0.80981 0.0
H465 H 0.08477 0.35981 0.81977 0.0
H466 H 1.02082 0.36135 0.83484 0.0
H467 H 0.09956 0.49022 0.86048 0.0
C468 C 0.23954 0.47604 0.84472 0.0
C469 C 0.25136 0.44575 0.83859 0.0
C470 C 0.22161 0.4073 0.82686 0.0
C471 C 0.17987 0.3982 0.82253 0.0
C472 C 0.1688 0.42828 0.82953 0.0
C473 C 0.19798 0.46674 0.83999 0.0
C474 C 0.17721 0.49183 0.84838 0.0
C475 C 0.18415 0.50241 0.87811 0.0
C476 C 0.19312 0.53192 0.83123 0.0
C477 C 0.1314 0.46042 0.84256 0.0
C478 C 0.1272 0.42416 0.83135 0.0
C479 C 0.08762 0.38849 0.82771 0.0
C480 C 0.05152 0.38957 0.83639 0.0
C481 C 0.05539 0.42615 0.84833 0.0
C482 C 0.09568 0.46237 0.85058 0.0
H483 H 0.79238 0.25728 0.11216 0.0
H484 H 0.80378 0.37843 0.12939 0.0
H485 H 0.72681 0.34532 0.13283 0.0
H486 H 0.67789 0.20419 0.08259 0.0
H487 H 0.6656 0.15561 0.09935 0.0
H488 H 0.71834 0.18979 0.08652 0.0
H489 H 0.74896 0.19132 0.13308 0.0
H490 H 0.69677 0.15786 0.14606 0.0
H491 H 0.73041 0.20828 0.16103 0.0
H492 H 0.65474 0.29928 0.14891 0.0
H493 H 0.59538 0.2452 0.17547 0.0
H494 H 0.62911 0.1521 0.15129 0.0
C495 C 0.77855 0.27705 0.11571 0.0
C496 C 0.80446 0.32048 0.12075 0.0
C497 C 0.78504 0.34529 0.12505 0.0
C498 C 0.74097 0.32659 0.12709 0.0
C499 C 0.71652 0.283 0.12467 0.0
C500 C 0.7346 0.2585 0.11859 0.0
C501 C 0.70331 0.21206 0.12286 0.0
C502 C 0.69052 0.18906 0.09624 0.0
C503 C 0.72092 0.19124 0.1419 0.0
C504 C 0.66671 0.2147 0.13515 0.0
C505 C 0.67411 0.25566 0.13484 0.0
C506 C 0.64789 0.2669 0.14852 0.0
C507 C 0.61435 0.23599 0.16373 0.0
C508 C 0.60781 0.19452 0.16548 0.0
C509 C 0.63312 0.18346 0.15003 0.0
H510 H 1.00754 0.47505 0.11368 0.0
H511 H 0.13466 0.57649 0.09641 0.0
H512 H 0.1268 0.55349 0.04966 0.0
H513 H 1.01173 0.39666 0.07063 0.0
H514 H 0.9568 0.37425 0.06165 0.0
H515 H 0.97455 0.39807 0.0936 0.0
H516 H 0.94379 0.44824 0.08335 0.0
H517 H 0.92624 0.42327 0.05175 0.0
H518 H 0.96029 0.47961 0.05339 0.0
H519 H 0.1022 0.52276 0.0042 0.0
H520 H 0.06403 0.4853 0.96385 0.0
H521 H 0.95467 0.40118 0.01196 0.0
C522 C 0.03384 0.49204 0.10014 0.0
C523 C 0.07162 0.52742 0.10851 0.0
C524 C 0.10541 0.54926 0.09026 0.0
C525 C 0.10125 0.53636 0.06376 0.0
C526 C 0.06335 0.50129 0.05611 0.0
C527 C 1.03038 0.47924 0.07385 0.0
C528 C 0.99257 0.44328 0.0606 0.0
C529 C 0.98337 0.40054 0.07231 0.0
C530 C 0.95343 0.44894 0.06238 0.0
C531 C 1.00901 0.44899 0.03244 0.0
C532 C 0.04988 0.48264 0.03022 0.0
C533 C 0.0705 0.49593 0.00578 0.0
C534 C 0.04857 0.47455 0.983 0.0
C535 C 1.00668 0.44007 0.98491 0.0
C536 C 0.98703 0.42679 0.01001 0.0
H537 H 0.59603 0.02696 0.42116 0.0
H538 H 0.62697 0.1494 0.45126 0.0
H539 H 0.63479 0.17709 0.40563 0.0
H540 H 0.67252 0.06928 0.36533 0.0
H541 H 0.63821 0.02752 0.34344 0.0
H542 H 0.63608 1.01772 0.37868 0.0
H543 H 0.55551 0.9918 0.37909 0.0
H544 H 0.55737 1.00123 0.34391 0.0
H545 H 0.53691 0.02563 0.36585 0.0
H546 H 0.63045 0.18848 0.35677 0.0
H547 H 0.61997 0.18426 0.30809 0.0
H548 H 0.60089 0.05743 0.3095 0.0
C549 C 0.60454 0.05959 0.418 0.0
C550 C 0.60874 0.08558 0.43955 0.0
C551 C 0.62113 0.12838 0.43496 0.0
C552 C 0.62643 0.14459 0.40908 0.0
C553 C 0.62072 0.11783 0.3881 0.0
C554 C 0.61083 0.07646 0.39226 0.0
C555 C 0.60616 0.05428 0.36626 0.0
C556 C 0.64029 0.04145 0.36326 0.0
C557 C 0.56133 1.01599 0.36363 0.0
C558 C 0.61351 0.08921 0.34687 0.0
C559 C 0.62183 0.12563 0.35985 0.0
C560 C 0.62516 0.1606 0.34628 0.0
C561 C 0.61919 0.15799 0.31872 0.0
C562 C 0.61085 0.12102 0.30515 0.0
C563 C 0.60885 0.08663 0.31935 0.0
H564 H 0.56075 0.56966 0.76458 0.0
H565 H 0.46994 0.43557 0.76464 0.0
H566 H 0.49472 0.42974 0.72022 0.0
H567 H 0.54978 0.5889 0.6966 0.0
H568 H 0.6051 0.62657 0.69139 0.0
H569 H 0.58178 0.61985 0.72387 0.0
H570 H 0.63866 0.60436 0.74336 0.0
H571 H 0.66202 0.61082 0.71086 0.0
H572 H 0.6453 0.56272 0.7295 0.0
H573 H 0.52675 0.43832 0.67565 0.0
H574 H 0.56167 0.46164 0.632 0.0
H575 H 0.63253 0.59029 0.66023 0.0
C576 C 0.54632 0.53913 0.75522 0.0
C577 C 0.51354 0.50304 0.76796 0.0
C578 C 0.49506 0.46362 0.75513 0.0
C579 C 0.50909 0.45991 0.73 0.0
C580 C 0.54166 0.49593 0.71799 0.0
C581 C 0.55999 0.53484 0.73003 0.0
C582 C 0.59328 0.56876 0.71218 0.0
C583 C 0.58178 0.60303 0.70562 0.0
C584 C 0.63743 0.58779 0.72473 0.0
C585 C 0.58993 0.54294 0.688 0.0
C586 C 0.56032 0.50092 0.69199 0.0
C587 C 0.55024 0.47108 0.67229 0.0
C588 C 0.57025 0.48465 0.64754 0.0
C589 C 0.5999 0.52776 0.64268 0.0
C590 C 0.61041 0.55705 0.66342 0.0
H591 H 0.55113 0.03321 0.58618 0.0
H592 H 0.57925 0.16286 0.59027 0.0
H593 H 0.58149 0.15966 0.63919 0.0
H594 H 0.48089 0.99692 0.64083 0.0
H595 H 0.49627 0.95995 0.65292 0.0
H596 H 0.50179 0.97374 0.61821 0.0
H597 H 0.58147 0.99652 0.61984 0.0
H598 H 0.57619 0.98261 0.65458 0.0
H599 H 0.61507 0.03497 0.64373 0.0
H600 H 0.57796 0.14163 0.68785 0.0
H601 H 0.56488 0.10907 0.73235 0.0
H602 H 0.53471 0.98956 0.69716 0.0
C603 C 0.55908 0.06122 0.59738 0.0
C604 C 0.56606 0.09864 0.58443 0.0
C605 C 0.57433 0.13408 0.59981 0.0
C606 C 0.57575 0.13257 0.62761 0.0
C607 C 0.5683 0.09515 0.63987 0.0
C608 C 0.55992 0.05999 0.62528 0.0
C609 C 0.54959 0.0227 0.64348 0.0
C610 C 0.50445 0.98618 0.63856 0.0
C611 C 0.58255 1.00836 0.64021 0.0
C612 C 0.55299 0.04225 0.67049 0.0
C613 C 0.56434 0.08419 0.66795 0.0
C614 C 0.5688 0.1087 0.69006 0.0
C615 C 0.56079 0.08973 0.71539 0.0
C616 C 0.54776 0.04641 0.71858 0.0
C617 C 0.54459 0.02275 0.69564 0.0
H618 H 0.61974 0.59098 0.92551 0.0
H619 H 0.49096 0.49306 0.9099 0.0
H620 H 0.47589 0.48338 0.95812 0.0
H621 H 0.6334 0.53592 0.98019 0.0
H622 H 0.66665 0.58284 0.99871 0.0
H623 H 0.66568 0.5854 0.96306 0.0
H624 H 0.64576 0.64415 0.96602 0.0
H625 H 0.64637 0.64152 0.00171 0.0
H626 H 0.59969 0.63473 0.98495 0.0
H627 H 0.4748 0.48507 0.00858 0.0
H628 H 0.49086 0.4893 0.05658 0.0
H629 H 0.62246 0.57977 0.03936 0.0
C630 C 0.58824 0.56793 0.9323 0.0
C631 C 0.55614 0.54344 0.91396 0.0
C632 C 0.51573 0.51265 0.92359 0.0
C633 C 0.50689 0.507 0.95096 0.0
C634 C 0.53913 0.53168 0.96859 0.0
C635 C 0.57928 0.5609 0.95964 0.0
C636 C 0.60943 0.58026 0.98271 0.0
C637 C 0.64594 0.57051 0.98107 0.0
C638 C 0.6263 0.628 0.98391 0.0
C639 C 0.58006 0.55734 0.00599 0.0
C640 C 0.53937 0.53023 0.99748 0.0
C641 C 0.50661 0.50609 0.01543 0.0
C642 C 0.51592 0.5089 0.04269 0.0
C643 C 0.55783 0.53486 0.05171 0.0
C644 C 0.59009 0.55965 0.03304 0.0
H645 H 0.07626 0.55988 0.2599 0.0
H646 H 0.03813 0.42718 0.26453 0.0
H647 H 0.04075 0.43075 0.31342 0.0
H648 H 0.15224 0.59062 0.31318 0.0
H649 H 0.1419 0.63084 0.32538 0.0
H650 H 0.13445 0.61728 0.2908 0.0
H651 H 0.05707 0.60211 0.29409 0.0
H652 H 0.06415 0.61533 0.32874 0.0
H653 H 1.02173 0.56476 0.31852 0.0
H654 H 0.045 0.44801 0.36206 0.0
H655 H 0.06012 0.47984 0.4066 0.0
H656 H 0.10239 0.60286 0.37082 0.0
C657 C 0.06852 0.53165 0.27123 0.0
C658 C 0.05675 0.49317 0.25837 0.0
C659 C 0.04722 0.45699 0.27391 0.0
C660 C 0.04842 0.45866 0.30173 0.0
C661 C 0.06004 0.49698 0.31385 0.0
C662 C 0.07073 0.53305 0.29911 0.0
C663 C 0.08477 0.57077 0.31709 0.0
C664 C 0.13109 0.60436 0.31126 0.0
C665 C 0.05515 0.58933 0.31445 0.0
C666 C 0.08011 0.55021 0.34418 0.0
C667 C 0.06502 0.50746 0.34185 0.0
C668 C 0.05705 0.48151 0.3641 0.0
C669 C 0.0654 0.49979 0.38936 0.0
C670 C 0.0823 0.54375 0.39223 0.0
C671 C 0.0896 0.56915 0.36925 0.0
loop_
_geom_bond_atom_site_label_1
_geom_bond_atom_site_label_2
_geom_bond_distance
_geom_bond_site_symmetry_2
_ccdc_geom_bond_type
C0 Eu1 2.835 . S
C0 C2 1.500 . S
C0 O20 1.257 . S
C0 O21 1.260 . S
Eu1 C0 2.835 . S
Eu1 O20 2.473 . S
Eu1 O21 2.480 . S
Eu1 O22 2.430 . S
Eu1 O23 2.670 1_655 S
Eu1 O24 2.394 . S
Eu1 O29 2.355 1_655 S
Eu1 O31 2.374 1_655 S
C2 C0 1.500 . S
C2 C3 1.377 . S
C2 C7 1.377 . S
C3 C2 1.377 . S
C3 C4 1.395 . S
C3 H32 0.931 . S
C4 C3 1.395 . S
C4 C5 1.383 . S
C4 H33 0.931 . S
C5 C4 1.383 . S
C5 C6 1.394 . S
C6 C5 1.394 . S
C6 C7 1.378 . S
C6 H34 0.931 . S
C7 C2 1.377 . S
C7 C6 1.378 . S
C7 H35 0.931 . S
C8 O22 1.259 1_455 S
C8 O23 1.270 . S
C9 O24 1.251 . S
C9 O25 1.251 . S
C10 Eu11 2.835 . S
C10 C12 1.500 . S
C10 O26 1.257 . S
C10 O27 1.260 . S
Eu11 C10 2.835 . S
Eu11 O23 2.355 . S
Eu11 O25 2.374 1_455 S
Eu11 O26 2.473 . S
Eu11 O27 2.480 . S
Eu11 O28 2.430 . S
Eu11 O29 2.670 . S
Eu11 O30 2.394 . S
C12 C10 1.500 . S
C12 C13 1.377 . S
C12 C17 1.377 . S
C13 C12 1.377 . S
C13 C14 1.395 . S
C13 H36 0.931 . S
C14 C13 1.395 . S
C14 C15 1.383 . S
C14 H37 0.931 . S
C15 C14 1.383 . S
C15 C16 1.394 . S
C16 C15 1.394 . S
C16 C17 1.378 . S
C16 H38 0.931 . S
C17 C12 1.377 . S
C17 C16 1.378 . S
C17 H39 0.931 . S
C18 O28 1.259 . S
C18 O29 1.270 . S
C19 O30 1.251 . S
C19 O31 1.251 . S
O20 C0 1.257 . S
O20 Eu1 2.473 . S
O21 C0 1.260 . S
O21 Eu1 2.480 . S
O22 Eu1 2.430 . S
O22 C8 1.259 1_655 S
O23 Eu1 2.670 1_455 S
O23 C8 1.270 . S
O23 Eu11 2.355 . S
O24 Eu1 2.394 . S
O24 C9 1.251 . S
O25 C9 1.251 . S
O25 Eu11 2.374 1_655 S
O26 C10 1.257 . S
O26 Eu11 2.473 . S
O27 C10 1.260 . S
O27 Eu11 2.480 . S
O28 Eu11 2.430 . S
O28 C18 1.259 . S
O29 Eu1 2.355 1_455 S
O29 Eu11 2.670 . S
O29 C18 1.270 . S
O30 Eu11 2.394 . S
O30 C19 1.251 . S
O31 Eu1 2.374 1_455 S
O31 C19 1.251 . S
H32 C3 0.931 . S
H33 C4 0.931 . S
H34 C6 0.931 . S
H35 C7 0.931 . S
H36 C13 0.931 . S
H37 C14 0.931 . S
H38 C16 0.931 . S
H39 C17 0.931 . S
C40 Eu41 2.835 . S
C40 C42 1.500 . S
C40 O60 1.257 . S
C40 O61 1.260 . S
Eu41 C40 2.835 . S
Eu41 O60 2.473 . S
Eu41 O61 2.480 . S
Eu41 O62 2.430 . S
Eu41 O63 2.670 . S
Eu41 O64 2.394 . S
Eu41 O69 2.355 . S
Eu41 O71 2.374 1_545 S
C42 C40 1.500 . S
C42 C43 1.377 . S
C42 C47 1.377 . S
C43 C42 1.377 . S
C43 C44 1.395 . S
C43 H72 0.931 . S
C44 C43 1.395 . S
C44 C45 1.383 . S
C44 H73 0.931 . S
C45 C44 1.383 . S
C45 C46 1.394 . S
C46 C45 1.394 . S
C46 C47 1.378 . S
C46 H74 0.931 . S
C47 C42 1.377 . S
C47 C46 1.378 . S
C47 H75 0.931 . S
C48 O62 1.259 . S
C48 O63 1.270 . S
C49 O64 1.251 . S
C49 O65 1.251 . S
C50 Eu51 2.835 . S
C50 C52 1.500 . S
C50 O66 1.257 . S
C50 O67 1.260 . S
Eu51 C50 2.835 . S
Eu51 O63 2.355 1_565 S
Eu51 O65 2.374 1_565 S
Eu51 O66 2.473 . S
Eu51 O67 2.480 . S
Eu51 O68 2.430 1_565 S
Eu51 O69 2.670 1_565 S
Eu51 O70 2.394 . S
C52 C50 1.500 . S
C52 C53 1.377 . S
C52 C57 1.377 . S
C53 C52 1.377 . S
C53 C54 1.395 . S
C53 H76 0.931 . S
C54 C53 1.395 . S
C54 C55 1.383 . S
C54 H77 0.931 . S
C55 C54 1.383 . S
C55 C56 1.394 . S
C56 C55 1.394 . S
C56 C57 1.378 . S
C56 H78 0.931 . S
C57 C52 1.377 . S
C57 C56 1.378 . S
C57 H79 0.931 . S
C58 O68 1.259 . S
C58 O69 1.270 . S
C59 O70 1.251 . S
C59 O71 1.251 . S
O60 C40 1.257 . S
O60 Eu41 2.473 . S
O61 C40 1.260 . S
O61 Eu41 2.480 . S
O62 Eu41 2.430 . S
O62 C48 1.259 . S
O63 Eu41 2.670 . S
O63 C48 1.270 . S
O63 Eu51 2.355 1_545 S
O64 Eu41 2.394 . S
O64 C49 1.251 . S
O65 C49 1.251 . S
O65 Eu51 2.374 1_545 S
O66 C50 1.257 . S
O66 Eu51 2.473 . S
O67 C50 1.260 . S
O67 Eu51 2.480 . S
O68 Eu51 2.430 1_545 S
O68 C58 1.259 . S
O69 Eu41 2.355 . S
O69 Eu51 2.670 1_545 S
O69 C58 1.270 . S
O70 Eu51 2.394 . S
O70 C59 1.251 . S
O71 Eu41 2.374 1_565 S
O71 C59 1.251 . S
H72 C43 0.931 . S
H73 C44 0.931 . S
H74 C46 0.931 . S
H75 C47 0.931 . S
H76 C53 0.931 . S
H77 C54 0.931 . S
H78 C56 0.931 . S
H79 C57 0.931 . S
C80 Eu81 2.835 . S
C80 C82 1.500 . S
C80 O100 1.257 . S
C80 O101 1.260 . S
Eu81 C80 2.835 . S
Eu81 O100 2.473 . S
Eu81 O101 2.480 . S
Eu81 O102 2.430 . S
Eu81 O103 2.670 . S
Eu81 O104 2.394 . S
Eu81 O109 2.355 . S
Eu81 O111 2.374 . S
C82 C80 1.500 . S
C82 C83 1.377 . S
C82 C87 1.377 . S
C83 C82 1.377 . S
C83 C84 1.395 . S
C83 H112 0.931 . S
C84 C83 1.395 . S
C84 C85 1.383 . S
C84 H113 0.931 . S
C85 C84 1.383 . S
C85 C86 1.394 . S
C86 C85 1.394 . S
C86 C87 1.378 . S
C86 H114 0.931 . S
C87 C82 1.377 . S
C87 C86 1.378 . S
C87 H115 0.931 . S
C88 O102 1.259 . S
C88 O103 1.270 . S
C89 O104 1.251 . S
C89 O105 1.251 . S
C90 Eu91 2.835 . S
C90 C92 1.500 . S
C90 O106 1.257 . S
C90 O107 1.260 . S
Eu91 C90 2.835 . S
Eu91 O103 2.355 . S
Eu91 O105 2.374 . S
Eu91 O106 2.473 . S
Eu91 O107 2.480 . S
Eu91 O108 2.430 . S
Eu91 O109 2.670 . S
Eu91 O110 2.394 . S
C92 C90 1.500 . S
C92 C93 1.377 . S
C92 C97 1.377 . S
C93 C92 1.377 . S
C93 C94 1.395 . S
C93 H116 0.931 . S
C94 C93 1.395 . S
C94 C95 1.383 . S
C94 H117 0.931 . S
C95 C94 1.383 . S
C95 C96 1.394 . S
C96 C95 1.394 . S
C96 C97 1.378 . S
C96 H118 0.931 . S
C97 C92 1.377 . S
C97 C96 1.378 . S
C97 H119 0.931 . S
C98 O108 1.259 . S
C98 O109 1.270 . S
C99 O110 1.251 . S
C99 O111 1.251 . S
O100 C80 1.257 . S
O100 Eu81 2.473 . S
O101 C80 1.260 . S
O101 Eu81 2.480 . S
O102 Eu81 2.430 . S
O102 C88 1.259 . S
O103 Eu81 2.670 . S
O103 C88 1.270 . S
O103 Eu91 2.355 . S
O104 Eu81 2.394 . S
O104 C89 1.251 . S
O105 C89 1.251 . S
O105 Eu91 2.374 . S
O106 C90 1.257 . S
O106 Eu91 2.473 . S
O107 C90 1.260 . S
O107 Eu91 2.480 . S
O108 Eu91 2.430 . S
O108 C98 1.259 . S
O109 Eu81 2.355 . S
O109 Eu91 2.670 . S
O109 C98 1.270 . S
O110 Eu91 2.394 . S
O110 C99 1.251 . S
O111 Eu81 2.374 . S
O111 C99 1.251 . S
H112 C83 0.931 . S
H113 C84 0.931 . S
H114 C86 0.931 . S
H115 C87 0.931 . S
H116 C93 0.931 . S
H117 C94 0.931 . S
H118 C96 0.931 . S
H119 C97 0.931 . S
O120 Cd121 2.300 . S
O120 C127 1.275 . S
Cd121 O120 2.300 . S
Cd121 O129 2.381 . S
Cd121 O130 2.378 . S
O122 Cd123 2.385 1_545 S
O122 C127 1.255 . S
Cd123 O122 2.385 1_565 S
Cd123 O124 2.317 . S
O124 Cd123 2.317 . S
O124 C125 1.232 . S
C125 O124 1.232 . S
C125 O126 1.218 . S
O126 C125 1.218 . S
C127 O120 1.275 . S
C127 O122 1.255 . S
C128 O129 1.258 . S
C128 O130 1.256 . S
O129 Cd121 2.381 . S
O129 C128 1.258 . S
O130 Cd121 2.378 . S
O130 C128 1.256 . S
O131 Cd132 2.300 . S
O131 C138 1.275 . S
Cd132 O131 2.300 . S
Cd132 O140 2.381 . S
Cd132 O141 2.378 . S
O133 Cd134 2.385 . S
O133 C138 1.255 . S
Cd134 O133 2.385 . S
Cd134 O135 2.317 . S
O135 Cd134 2.317 . S
O135 C136 1.232 . S
C136 O135 1.232 . S
C136 O137 1.218 . S
O137 C136 1.218 . S
C138 O131 1.275 . S
C138 O133 1.255 . S
C139 O140 1.258 . S
C139 O141 1.256 . S
O140 Cd132 2.381 . S
O140 C139 1.258 . S
O141 Cd132 2.378 . S
O141 C139 1.256 . S
O142 Cd143 2.300 . S
O142 C149 1.275 1_455 S
Cd143 O142 2.300 . S
Cd143 O151 2.381 . S
Cd143 O152 2.378 . S
O144 Cd145 2.385 . S
O144 C149 1.255 . S
Cd145 O144 2.385 . S
Cd145 O146 2.317 . S
O146 Cd145 2.317 . S
O146 C147 1.232 . S
C147 O146 1.232 . S
C147 O148 1.218 . S
O148 C147 1.218 . S
C149 O142 1.275 1_655 S
C149 O144 1.255 . S
C150 O151 1.258 . S
C150 O152 1.256 . S
O151 Cd143 2.381 . S
O151 C150 1.258 . S
O152 Cd143 2.378 . S
O152 C150 1.256 . S
O153 Cd154 2.300 . S
O153 C160 1.275 . S
Cd154 O153 2.300 . S
Cd154 O162 2.381 . S
Cd154 O163 2.378 . S
O155 Cd156 2.408 . S
O155 C160 1.233 1_655 S
Cd156 O155 2.408 . S
Cd156 O157 2.317 . S
O157 Cd156 2.317 . S
O157 C158 1.232 . S
C158 O157 1.232 . S
C158 O159 1.218 . S
O159 C158 1.218 . S
C160 O153 1.275 . S
C160 O155 1.233 1_455 S
C161 O162 1.258 . S
C161 O163 1.256 . S
O162 Cd154 2.381 . S
O162 C161 1.258 . S
O163 Cd154 2.378 . S
O163 C161 1.256 . S
O164 Cd165 2.300 . S
O164 C171 1.275 1_565 S
Cd165 O164 2.300 . S
Cd165 O173 2.381 . S
Cd165 O174 2.378 . S
O166 Cd167 2.385 . S
O166 C171 1.255 . S
Cd167 O166 2.385 . S
Cd167 O168 2.317 . S
O168 Cd167 2.317 . S
O168 C169 1.232 . S
C169 O168 1.232 . S
C169 O170 1.218 . S
O170 C169 1.218 . S
C171 O164 1.275 1_545 S
C171 O166 1.255 . S
C172 O173 1.258 . S
C172 O174 1.256 . S
O173 Cd165 2.381 . S
O173 C172 1.258 . S
O174 Cd165 2.378 . S
O174 C172 1.256 . S
O175 Cd176 2.300 . S
O175 C182 1.275 . S
Cd176 O175 2.300 . S
Cd176 O184 2.381 . S
Cd176 O185 2.378 . S
O177 Cd178 2.385 . S
O177 C182 1.255 . S
Cd178 O177 2.385 . S
Cd178 O179 2.317 . S
O179 Cd178 2.317 . S
O179 C180 1.232 . S
C180 O179 1.232 . S
C180 O181 1.218 . S
O181 C180 1.218 . S
C182 O175 1.275 . S
C182 O177 1.255 . S
C183 O184 1.258 . S
C183 O185 1.256 . S
O184 Cd176 2.381 . S
O184 C183 1.258 . S
O185 Cd176 2.378 . S
O185 C183 1.256 . S
H186 C198 0.930 . S
H187 C200 0.930 . S
H188 C201 0.930 . S
H189 C205 0.959 . S
H190 C205 0.959 . S
H191 C205 0.961 . S
H192 C206 0.960 . S
H193 C206 0.961 . S
H194 C206 0.959 . S
H195 C209 0.929 . S
H196 C210 0.931 . S
H197 C212 0.930 . S
C198 H186 0.930 . S
C198 C199 1.399 . S
C198 C203 1.399 . S
C199 C198 1.399 . S
C199 C200 1.376 . S
C200 H187 0.930 . S
C200 C199 1.376 . S
C200 C201 1.388 . S
C201 H188 0.930 . S
C201 C200 1.388 . S
C201 C202 1.390 . S
C202 C201 1.390 . S
C202 C203 1.394 . S
C202 C208 1.465 . S
C203 C198 1.399 . S
C203 C202 1.394 . S
C203 C204 1.516 . S
C204 C203 1.516 . S
C204 C205 1.502 . S
C204 C206 1.561 . S
C204 C207 1.526 . S
C205 H189 0.959 . S
C205 H190 0.959 . S
C205 H191 0.961 . S
C205 C204 1.502 . S
C206 H192 0.960 . S
C206 H193 0.961 . S
C206 H194 0.959 . S
C206 C204 1.561 . S
C207 C204 1.526 . S
C207 C208 1.396 . S
C207 C212 1.390 . S
C208 C202 1.465 . S
C208 C207 1.396 . S
C208 C209 1.399 . S
C209 H195 0.929 . S
C209 C208 1.399 . S
C209 C210 1.385 . S
C210 H196 0.931 . S
C210 C209 1.385 . S
C210 C211 1.389 . S
C211 C210 1.389 . S
C211 C212 1.387 . S
C212 H197 0.930 . S
C212 C207 1.390 . S
C212 C211 1.387 . S
H213 C225 0.930 . S
H214 C227 0.930 . S
H215 C228 0.930 . S
H216 C232 0.959 . S
H217 C232 0.959 . S
H218 C232 0.961 . S
H219 C233 0.960 . S
H220 C233 0.961 . S
H221 C233 0.959 . S
H222 C236 0.929 . S
H223 C237 0.931 . S
H224 C239 0.930 . S
C225 H213 0.930 . S
C225 C226 1.399 . S
C225 C230 1.399 . S
C226 C225 1.399 . S
C226 C227 1.376 . S
C227 H214 0.930 . S
C227 C226 1.376 . S
C227 C228 1.388 . S
C228 H215 0.930 . S
C228 C227 1.388 . S
C228 C229 1.390 . S
C229 C228 1.390 . S
C229 C230 1.394 . S
C229 C235 1.465 . S
C230 C225 1.399 . S
C230 C229 1.394 . S
C230 C231 1.516 . S
C231 C230 1.516 . S
C231 C232 1.502 . S
C231 C233 1.561 . S
C231 C234 1.526 . S
C232 H216 0.959 . S
C232 H217 0.959 . S
C232 H218 0.961 . S
C232 C231 1.502 . S
C233 H219 0.960 . S
C233 H220 0.961 . S
C233 H221 0.959 . S
C233 C231 1.561 . S
C234 C231 1.526 . S
C234 C235 1.396 . S
C234 C239 1.390 . S
C235 C229 1.465 . S
C235 C234 1.396 . S
C235 C236 1.399 . S
C236 H222 0.929 . S
C236 C235 1.399 . S
C236 C237 1.385 . S
C237 H223 0.931 . S
C237 C236 1.385 . S
C237 C238 1.389 . S
C238 C237 1.389 . S
C238 C239 1.387 . S
C239 H224 0.930 . S
C239 C234 1.390 . S
C239 C238 1.387 . S
H240 C252 0.930 . S
H241 C254 0.930 . S
H242 C255 0.930 . S
H243 C259 0.959 . S
H244 C259 0.959 . S
H245 C259 0.961 . S
H246 C260 0.960 . S
H247 C260 0.961 . S
H248 C260 0.959 . S
H249 C263 0.929 . S
H250 C264 0.931 . S
H251 C266 0.930 . S
C252 H240 0.930 . S
C252 C253 1.399 . S
C252 C257 1.399 . S
C253 C252 1.399 . S
C253 C254 1.376 . S
C254 H241 0.930 . S
C254 C253 1.376 . S
C254 C255 1.388 . S
C255 H242 0.930 . S
C255 C254 1.388 . S
C255 C256 1.390 . S
C256 C255 1.390 . S
C256 C257 1.394 . S
C256 C262 1.465 . S
C257 C252 1.399 . S
C257 C256 1.394 . S
C257 C258 1.516 . S
C258 C257 1.516 . S
C258 C259 1.502 . S
C258 C260 1.561 . S
C258 C261 1.526 . S
C259 H243 0.959 . S
C259 H244 0.959 . S
C259 H245 0.961 . S
C259 C258 1.502 . S
C260 H246 0.960 . S
C260 H247 0.961 . S
C260 H248 0.959 . S
C260 C258 1.561 . S
C261 C258 1.526 . S
C261 C262 1.396 . S
C261 C266 1.390 . S
C262 C256 1.465 . S
C262 C261 1.396 . S
C262 C263 1.399 . S
C263 H249 0.929 . S
C263 C262 1.399 . S
C263 C264 1.385 . S
C264 H250 0.931 . S
C264 C263 1.385 . S
C264 C265 1.389 . S
C265 C264 1.389 . S
C265 C266 1.387 . S
C266 H251 0.930 . S
C266 C261 1.390 . S
C266 C265 1.387 . S
H267 C279 0.930 . S
H268 C281 0.930 . S
H269 C282 0.930 . S
H270 C286 0.959 . S
H271 C286 0.959 . S
H272 C286 0.961 . S
H273 C287 0.960 . S
H274 C287 0.961 . S
H275 C287 0.959 . S
H276 C290 0.929 . S
H277 C291 0.931 . S
H278 C293 0.930 . S
C279 H267 0.930 . S
C279 C280 1.399 . S
C279 C284 1.399 . S
C280 C279 1.399 . S
C280 C281 1.376 . S
C281 H268 0.930 . S
C281 C280 1.376 . S
C281 C282 1.388 . S
C282 H269 0.930 . S
C282 C281 1.388 . S
C282 C283 1.390 . S
C283 C282 1.390 . S
C283 C284 1.394 . S
C283 C289 1.465 . S
C284 C279 1.399 . S
C284 C283 1.394 . S
C284 C285 1.516 . S
C285 C284 1.516 . S
C285 C286 1.502 . S
C285 C287 1.561 . S
C285 C288 1.526 . S
C286 H270 0.959 . S
C286 H271 0.959 . S
C286 H272 0.961 . S
C286 C285 1.502 . S
C287 H273 0.960 . S
C287 H274 0.961 . S
C287 H275 0.959 . S
C287 C285 1.561 . S
C288 C285 1.526 . S
C288 C289 1.396 . S
C288 C293 1.390 . S
C289 C283 1.465 . S
C289 C288 1.396 . S
C289 C290 1.399 . S
C290 H276 0.929 . S
C290 C289 1.399 . S
C290 C291 1.385 . S
C291 H277 0.931 . S
C291 C290 1.385 . S
C291 C292 1.389 . S
C292 C291 1.389 . S
C292 C293 1.387 . S
C293 H278 0.930 . S
C293 C288 1.390 . S
C293 C292 1.387 . S
H294 C306 0.930 . S
H295 C308 0.930 . S
H296 C309 0.930 . S
H297 C313 0.959 . S
H298 C313 0.959 . S
H299 C313 0.961 . S
H300 C314 0.960 . S
H301 C314 0.961 . S
H302 C314 0.959 . S
H303 C317 0.929 . S
H304 C318 0.931 . S
H305 C320 0.930 . S
C306 H294 0.930 . S
C306 C307 1.399 . S
C306 C311 1.399 . S
C307 C306 1.399 . S
C307 C308 1.376 . S
C308 H295 0.930 . S
C308 C307 1.376 . S
C308 C309 1.388 . S
C309 H296 0.930 . S
C309 C308 1.388 . S
C309 C310 1.390 . S
C310 C309 1.390 . S
C310 C311 1.394 . S
C310 C316 1.465 . S
C311 C306 1.399 . S
C311 C310 1.394 . S
C311 C312 1.516 . S
C312 C311 1.516 . S
C312 C313 1.502 . S
C312 C314 1.561 . S
C312 C315 1.526 . S
C313 H297 0.959 . S
C313 H298 0.959 . S
C313 H299 0.961 . S
C313 C312 1.502 . S
C314 H300 0.960 . S
C314 H301 0.961 . S
C314 H302 0.959 . S
C314 C312 1.561 . S
C315 C312 1.526 . S
C315 C316 1.396 . S
C315 C320 1.390 . S
C316 C310 1.465 . S
C316 C315 1.396 . S
C316 C317 1.399 . S
C317 H303 0.929 . S
C317 C316 1.399 . S
C317 C318 1.385 . S
C318 H304 0.931 . S
C318 C317 1.385 . S
C318 C319 1.389 . S
C319 C318 1.389 . S
C319 C320 1.387 . S
C320 H305 0.930 . S
C320 C315 1.390 . S
C320 C319 1.387 . S
H321 C333 0.930 . S
H322 C335 0.930 . S
H323 C336 0.930 . S
H324 C340 0.959 . S
H325 C340 0.959 . S
H326 C340 0.961 . S
H327 C341 0.960 . S
H328 C341 0.961 . S
H329 C341 0.959 . S
H330 C344 0.929 . S
H331 C345 0.931 . S
H332 C347 0.930 . S
C333 H321 0.930 . S
C333 C334 1.399 . S
C333 C338 1.399 . S
C334 C333 1.399 . S
C334 C335 1.376 . S
C335 H322 0.930 . S
C335 C334 1.376 . S
C335 C336 1.388 . S
C336 H323 0.930 . S
C336 C335 1.388 . S
C336 C337 1.390 . S
C337 C336 1.390 . S
C337 C338 1.394 . S
C337 C343 1.465 . S
C338 C333 1.399 . S
C338 C337 1.394 . S
C338 C339 1.516 . S
C339 C338 1.516 . S
C339 C340 1.502 . S
C339 C341 1.561 . S
C339 C342 1.526 . S
C340 H324 0.959 . S
C340 H325 0.959 . S
C340 H326 0.961 . S
C340 C339 1.502 . S
C341 H327 0.960 . S
C341 H328 0.961 . S
C341 H329 0.959 . S
C341 C339 1.561 . S
C342 C339 1.526 . S
C342 C343 1.396 . S
C342 C347 1.390 . S
C343 C337 1.465 . S
C343 C342 1.396 . S
C343 C344 1.399 . S
C344 H330 0.929 . S
C344 C343 1.399 . S
C344 C345 1.385 . S
C345 H331 0.931 . S
C345 C344 1.385 . S
C345 C346 1.389 . S
C346 C345 1.389 . S
C346 C347 1.387 . S
C347 H332 0.930 . S
C347 C342 1.390 . S
C347 C346 1.387 . S
H348 C360 0.930 . S
H349 C362 0.930 . S
H350 C363 0.930 . S
H351 C367 0.959 . S
H352 C367 0.959 . S
H353 C367 0.961 . S
H354 C368 0.960 . S
H355 C368 0.961 . S
H356 C368 0.959 . S
H357 C371 0.929 . S
H358 C372 0.931 . S
H359 C374 0.930 . S
C360 H348 0.930 . S
C360 C361 1.399 . S
C360 C365 1.399 . S
C361 C360 1.399 . S
C361 C362 1.376 . S
C362 H349 0.930 . S
C362 C361 1.376 . S
C362 C363 1.388 . S
C363 H350 0.930 . S
C363 C362 1.388 . S
C363 C364 1.390 . S
C364 C363 1.390 . S
C364 C365 1.394 . S
C364 C370 1.465 . S
C365 C360 1.399 . S
C365 C364 1.394 . S
C365 C366 1.516 . S
C366 C365 1.516 . S
C366 C367 1.502 . S
C366 C368 1.561 . S
C366 C369 1.526 . S
C367 H351 0.959 . S
C367 H352 0.959 . S
C367 H353 0.961 . S
C367 C366 1.502 . S
C368 H354 0.960 . S
C368 H355 0.961 . S
C368 H356 0.959 . S
C368 C366 1.561 . S
C369 C366 1.526 . S
C369 C370 1.396 . S
C369 C374 1.390 . S
C370 C364 1.465 . S
C370 C369 1.396 . S
C370 C371 1.399 . S
C371 H357 0.929 . S
C371 C370 1.399 . S
C371 C372 1.385 . S
C372 H358 0.931 . S
C372 C371 1.385 . S
C372 C373 1.389 . S
C373 C372 1.389 . S
C373 C374 1.387 . S
C374 H359 0.930 . S
C374 C369 1.390 . S
C374 C373 1.387 . S
H375 C387 0.930 . S
H376 C389 0.930 . S
H377 C390 0.930 . S
H378 C394 0.959 . S
H379 C394 0.959 . S
H380 C394 0.961 . S
H381 C395 0.960 . S
H382 C395 0.961 . S
H383 C395 0.959 . S
H384 C398 0.929 . S
H385 C399 0.931 . S
H386 C401 0.930 . S
C387 H375 0.930 . S
C387 C388 1.399 . S
C387 C392 1.399 . S
C388 C387 1.399 . S
C388 C389 1.376 . S
C389 H376 0.930 . S
C389 C388 1.376 . S
C389 C390 1.388 . S
C390 H377 0.930 . S
C390 C389 1.388 . S
C390 C391 1.390 . S
C391 C390 1.390 . S
C391 C392 1.394 . S
C391 C397 1.465 . S
C392 C387 1.399 . S
C392 C391 1.394 . S
C392 C393 1.516 . S
C393 C392 1.516 . S
C393 C394 1.502 . S
C393 C395 1.561 . S
C393 C396 1.526 . S
C394 H378 0.959 . S
C394 H379 0.959 . S
C394 H380 0.961 . S
C394 C393 1.502 . S
C395 H381 0.960 . S
C395 H382 0.961 . S
C395 H383 0.959 . S
C395 C393 1.561 . S
C396 C393 1.526 . S
C396 C397 1.396 . S
C396 C401 1.390 . S
C397 C391 1.465 . S
C397 C396 1.396 . S
C397 C398 1.399 . S
C398 H384 0.929 . S
C398 C397 1.399 . S
C398 C399 1.385 . S
C399 H385 0.931 . S
C399 C398 1.385 . S
C399 C400 1.389 . S
C400 C399 1.389 . S
C400 C401 1.387 . S
C401 H386 0.930 . S
C401 C396 1.390 . S
C401 C400 1.387 . S
H402 C414 0.930 . S
H403 C416 0.930 . S
H404 C417 0.930 . S
H405 C421 0.959 . S
H406 C421 0.959 . S
H407 C421 0.961 . S
H408 C422 0.960 . S
H409 C422 0.961 . S
H410 C422 0.959 . S
H411 C425 0.929 . S
H412 C426 0.931 . S
H413 C428 0.930 . S
C414 H402 0.930 . S
C414 C415 1.399 . S
C414 C419 1.399 . S
C415 C414 1.399 . S
C415 C416 1.376 . S
C416 H403 0.930 . S
C416 C415 1.376 . S
C416 C417 1.388 . S
C417 H404 0.930 . S
C417 C416 1.388 . S
C417 C418 1.390 . S
C418 C417 1.390 . S
C418 C419 1.394 . S
C418 C424 1.465 . S
C419 C414 1.399 . S
C419 C418 1.394 . S
C419 C420 1.516 . S
C420 C419 1.516 . S
C420 C421 1.502 . S
C420 C422 1.561 . S
C420 C423 1.526 . S
C421 H405 0.959 . S
C421 H406 0.959 . S
C421 H407 0.961 . S
C421 C420 1.502 . S
C422 H408 0.960 . S
C422 H409 0.961 . S
C422 H410 0.959 . S
C422 C420 1.561 . S
C423 C420 1.526 . S
C423 C424 1.396 . S
C423 C428 1.390 . S
C424 C418 1.465 . S
C424 C423 1.396 . S
C424 C425 1.399 . S
C425 H411 0.929 . S
C425 C424 1.399 . S
C425 C426 1.385 . S
C426 H412 0.931 . S
C426 C425 1.385 . S
C426 C427 1.389 . S
C427 C426 1.389 . S
C427 C428 1.387 . S
C428 H413 0.930 . S
C428 C423 1.390 . S
C428 C427 1.387 . S
H429 C441 0.930 . S
H430 C443 0.930 . S
H431 C444 0.930 . S
H432 C448 0.959 . S
H433 C448 0.959 . S
H434 C448 0.961 . S
H435 C449 0.960 . S
H436 C449 0.961 . S
H437 C449 0.959 . S
H438 C452 0.929 . S
H439 C453 0.931 . S
H440 C455 0.930 . S
C441 H429 0.930 . S
C441 C442 1.399 . S
C441 C446 1.399 . S
C442 C441 1.399 . S
C442 C443 1.376 . S
C443 H430 0.930 . S
C443 C442 1.376 . S
C443 C444 1.388 . S
C444 H431 0.930 . S
C444 C443 1.388 . S
C444 C445 1.390 . S
C445 C444 1.390 . S
C445 C446 1.394 . S
C445 C451 1.465 . S
C446 C441 1.399 . S
C446 C445 1.394 . S
C446 C447 1.516 . S
C447 C446 1.516 . S
C447 C448 1.502 . S
C447 C449 1.561 . S
C447 C450 1.526 . S
C448 H432 0.959 . S
C448 H433 0.959 . S
C448 H434 0.961 . S
C448 C447 1.502 . S
C449 H435 0.960 . S
C449 H436 0.961 . S
C449 H437 0.959 . S
C449 C447 1.561 . S
C450 C447 1.526 . S
C450 C451 1.396 . S
C450 C455 1.390 . S
C451 C445 1.465 . S
C451 C450 1.396 . S
C451 C452 1.399 . S
C452 H438 0.929 . S
C452 C451 1.399 . S
C452 C453 1.385 . S
C453 H439 0.931 . S
C453 C452 1.385 . S
C453 C454 1.389 . S
C454 C453 1.389 . S
C454 C455 1.387 . S
C455 H440 0.930 . S
C455 C450 1.390 . S
C455 C454 1.387 . S
H456 C468 0.930 . S
H457 C470 0.930 . S
H458 C471 0.930 . S
H459 C475 0.959 . S
H460 C475 0.959 . S
H461 C475 0.961 . S
H462 C476 0.960 . S
H463 C476 0.961 . S
H464 C476 0.959 . S
H465 C479 0.929 . S
H466 C480 0.931 . S
H467 C482 0.930 . S
C468 H456 0.930 . S
C468 C469 1.399 . S
C468 C473 1.399 . S
C469 C468 1.399 . S
C469 C470 1.376 . S
C470 H457 0.930 . S
C470 C469 1.376 . S
C470 C471 1.388 . S
C471 H458 0.930 . S
C471 C470 1.388 . S
C471 C472 1.390 . S
C472 C471 1.390 . S
C472 C473 1.394 . S
C472 C478 1.465 . S
C473 C468 1.399 . S
C473 C472 1.394 . S
C473 C474 1.516 . S
C474 C473 1.516 . S
C474 C475 1.502 . S
C474 C476 1.561 . S
C474 C477 1.526 . S
C475 H459 0.959 . S
C475 H460 0.959 . S
C475 H461 0.961 . S
C475 C474 1.502 . S
C476 H462 0.960 . S
C476 H463 0.961 . S
C476 H464 0.959 . S
C476 C474 1.561 . S
C477 C474 1.526 . S
C477 C478 1.396 . S
C477 C482 1.390 . S
C478 C472 1.465 . S
C478 C477 1.396 . S
C478 C479 1.399 . S
C479 H465 0.929 . S
C479 C478 1.399 . S
C479 C480 1.385 . S
C480 H466 0.931 . S
C480 C479 1.385 . S
C480 C481 1.389 . S
C481 C480 1.389 . S
C481 C482 1.387 . S
C482 H467 0.930 . S
C482 C477 1.390 . S
C482 C481 1.387 . S
H483 C495 0.930 . S
H484 C497 0.930 . S
H485 C498 0.930 . S
H486 C502 0.959 . S
H487 C502 0.959 . S
H488 C502 0.961 . S
H489 C503 0.960 . S
H490 C503 0.961 . S
H491 C503 0.959 . S
H492 C506 0.929 . S
H493 C507 0.931 . S
H494 C509 0.930 . S
C495 H483 0.930 . S
C495 C496 1.399 . S
C495 C500 1.399 . S
C496 C495 1.399 . S
C496 C497 1.376 . S
C497 H484 0.930 . S
C497 C496 1.376 . S
C497 C498 1.388 . S
C498 H485 0.930 . S
C498 C497 1.388 . S
C498 C499 1.390 . S
C499 C498 1.390 . S
C499 C500 1.394 . S
C499 C505 1.465 . S
C500 C495 1.399 . S
C500 C499 1.394 . S
C500 C501 1.516 . S
C501 C500 1.516 . S
C501 C502 1.502 . S
C501 C503 1.561 . S
C501 C504 1.526 . S
C502 H486 0.959 . S
C502 H487 0.959 . S
C502 H488 0.961 . S
C502 C501 1.502 . S
C503 H489 0.960 . S
C503 H490 0.961 . S
C503 H491 0.959 . S
C503 C501 1.561 . S
C504 C501 1.526 . S
C504 C505 1.396 . S
C504 C509 1.390 . S
C505 C499 1.465 . S
C505 C504 1.396 . S
C505 C506 1.399 . S
C506 H492 0.929 . S
C506 C505 1.399 . S
C506 C507 1.385 . S
C507 H493 0.931 . S
C507 C506 1.385 . S
C507 C508 1.389 . S
C508 C507 1.389 . S
C508 C509 1.387 . S
C509 H494 0.930 . S
C509 C504 1.390 . S
C509 C508 1.387 . S
H510 C522 0.938 1_655 S
H511 C524 0.930 . S
H512 C525 0.930 . S
H513 C529 0.959 . S
H514 C529 0.959 . S
H515 C529 0.961 . S
H516 C530 0.960 . S
H517 C530 0.961 . S
H518 C530 0.959 . S
H519 C533 0.929 . S
H520 C534 0.931 . S
H521 C536 0.930 . S
C522 H510 0.938 1_455 S
C522 C523 1.393 . S
C522 C527 1.397 1_455 S
C523 C522 1.393 . S
C523 C524 1.376 . S
C524 H511 0.930 . S
C524 C523 1.376 . S
C524 C525 1.388 . S
C525 H512 0.930 . S
C525 C524 1.388 . S
C525 C526 1.390 . S
C526 C525 1.390 . S
C526 C527 1.394 1_455 S
C526 C532 1.465 . S
C527 C522 1.397 1_655 S
C527 C526 1.394 1_655 S
C527 C528 1.516 . S
C528 C527 1.516 . S
C528 C529 1.502 1_655 S
C528 C530 1.561 . S
C528 C531 1.526 . S
C529 H513 0.959 . S
C529 H514 0.959 . S
C529 H515 0.961 . S
C529 C528 1.502 1_455 S
C530 H516 0.960 . S
C530 H517 0.961 . S
C530 H518 0.959 . S
C530 C528 1.561 . S
C531 C528 1.526 . S
C531 C532 1.396 1_655 S
C531 C536 1.390 1_554 S
C532 C526 1.465 . S
C532 C531 1.396 1_455 S
C532 C533 1.399 1_554 S
C533 H519 0.929 . S
C533 C532 1.399 1_556 S
C533 C534 1.385 . S
C534 H520 0.931 . S
C534 C533 1.385 . S
C534 C535 1.389 1_455 S
C535 C534 1.389 1_655 S
C535 C536 1.387 . S
C536 H521 0.930 . S
C536 C531 1.390 1_556 S
C536 C535 1.387 . S
H537 C549 0.930 1_565 S
H538 C551 0.930 . S
H539 C552 0.930 . S
H540 C556 0.959 . S
H541 C556 0.959 . S
H542 C556 0.961 . S
H543 C557 0.960 . S
H544 C557 0.961 . S
H545 C557 0.959 . S
H546 C560 0.929 . S
H547 C561 0.931 . S
H548 C563 0.930 1_565 S
C549 H537 0.930 1_545 S
C549 C550 1.399 . S
C549 C554 1.399 . S
C550 C549 1.399 . S
C550 C551 1.376 . S
C551 H538 0.930 . S
C551 C550 1.376 . S
C551 C552 1.388 . S
C552 H539 0.930 . S
C552 C551 1.388 . S
C552 C553 1.390 . S
C553 C552 1.390 . S
C553 C554 1.394 . S
C553 C559 1.465 . S
C554 C549 1.399 . S
C554 C553 1.394 . S
C554 C555 1.516 1_545 S
C555 C554 1.516 1_565 S
C555 C556 1.502 . S
C555 C557 1.561 . S
C555 C558 1.526 1_565 S
C556 H540 0.959 . S
C556 H541 0.959 . S
C556 H542 0.961 . S
C556 C555 1.502 . S
C557 H543 0.960 . S
C557 H544 0.961 . S
C557 H545 0.959 . S
C557 C555 1.561 . S
C558 C555 1.526 1_545 S
C558 C559 1.396 . S
C558 C563 1.390 . S
C559 C553 1.465 . S
C559 C558 1.396 . S
C559 C560 1.399 . S
C560 H546 0.929 . S
C560 C559 1.399 . S
C560 C561 1.385 . S
C561 H547 0.931 . S
C561 C560 1.385 . S
C561 C562 1.389 . S
C562 C561 1.389 . S
C562 C563 1.387 . S
C563 H548 0.930 1_545 S
C563 C558 1.390 . S
C563 C562 1.387 . S
H564 C576 0.930 . S
H565 C578 0.930 . S
H566 C579 0.930 . S
H567 C583 0.959 . S
H568 C583 0.959 . S
H569 C583 0.961 . S
H570 C584 0.960 . S
H571 C584 0.961 . S
H572 C584 0.959 . S
H573 C587 0.929 . S
H574 C588 0.931 . S
H575 C590 0.930 . S
C576 H564 0.930 . S
C576 C577 1.399 . S
C576 C581 1.399 . S
C577 C576 1.399 . S
C577 C578 1.376 . S
C578 H565 0.930 . S
C578 C577 1.376 . S
C578 C579 1.388 . S
C579 H566 0.930 . S
C579 C578 1.388 . S
C579 C580 1.390 . S
C580 C579 1.390 . S
C580 C581 1.394 . S
C580 C586 1.465 . S
C581 C576 1.399 . S
C581 C580 1.394 . S
C581 C582 1.516 . S
C582 C581 1.516 . S
C582 C583 1.502 . S
C582 C584 1.561 . S
C582 C585 1.526 . S
C583 H567 0.959 . S
C583 H568 0.959 . S
C583 H569 0.961 . S
C583 C582 1.502 . S
C584 H570 0.960 . S
C584 H571 0.961 . S
C584 H572 0.959 . S
C584 C582 1.561 . S
C585 C582 1.526 . S
C585 C586 1.396 . S
C585 C590 1.390 . S
C586 C580 1.465 . S
C586 C585 1.396 . S
C586 C587 1.399 . S
C587 H573 0.929 . S
C587 C586 1.399 . S
C587 C588 1.385 . S
C588 H574 0.931 . S
C588 C587 1.385 . S
C588 C589 1.389 . S
C589 C588 1.389 . S
C589 C590 1.387 . S
C590 H575 0.930 . S
C590 C585 1.390 . S
C590 C589 1.387 . S
H591 C603 0.930 . S
H592 C605 0.930 . S
H593 C606 0.930 . S
H594 C610 0.959 . S
H595 C610 0.959 . S
H596 C610 0.961 . S
H597 C611 0.960 . S
H598 C611 0.961 . S
H599 C611 0.959 . S
H600 C614 0.929 . S
H601 C615 0.931 . S
H602 C617 0.930 . S
C603 H591 0.930 . S
C603 C604 1.399 1_565 S
C603 C608 1.399 . S
C604 C603 1.399 1_545 S
C604 C605 1.376 . S
C605 H592 0.930 . S
C605 C604 1.376 . S
C605 C606 1.388 . S
C606 H593 0.930 . S
C606 C605 1.388 . S
C606 C607 1.390 . S
C607 C606 1.390 . S
C607 C608 1.394 1_545 S
C607 C613 1.465 . S
C608 C603 1.399 . S
C608 C607 1.394 1_565 S
C608 C609 1.516 . S
C609 C608 1.516 . S
C609 C610 1.502 . S
C609 C611 1.561 . S
C609 C612 1.526 . S
C610 H594 0.959 . S
C610 H595 0.959 . S
C610 H596 0.961 . S
C610 C609 1.502 . S
C611 H597 0.960 . S
C611 H598 0.961 . S
C611 H599 0.959 . S
C611 C609 1.561 . S
C612 C609 1.526 . S
C612 C613 1.396 1_565 S
C612 C617 1.390 . S
C613 C607 1.465 . S
C613 C612 1.396 1_545 S
C613 C614 1.399 . S
C614 H600 0.929 . S
C614 C613 1.399 . S
C614 C615 1.385 . S
C615 H601 0.931 . S
C615 C614 1.385 . S
C615 C616 1.389 . S
C616 C615 1.389 . S
C616 C617 1.387 1_545 S
C617 H602 0.930 . S
C617 C612 1.390 . S
C617 C616 1.387 1_565 S
H618 C630 0.930 . S
H619 C632 0.930 . S
H620 C633 0.930 . S
H621 C637 0.959 . S
H622 C637 0.959 . S
H623 C637 0.961 . S
H624 C638 0.960 . S
H625 C638 0.961 . S
H626 C638 0.959 . S
H627 C641 0.929 . S
H628 C642 0.931 . S
H629 C644 0.930 . S
C630 H618 0.930 . S
C630 C631 1.399 . S
C630 C635 1.399 . S
C631 C630 1.399 . S
C631 C632 1.376 . S
C632 H619 0.930 . S
C632 C631 1.376 . S
C632 C633 1.388 . S
C633 H620 0.930 . S
C633 C632 1.388 . S
C633 C634 1.390 . S
C634 C633 1.390 . S
C634 C635 1.394 . S
C634 C640 1.465 . S
C635 C630 1.399 . S
C635 C634 1.394 . S
C635 C636 1.516 . S
C636 C635 1.516 . S
C636 C637 1.502 . S
C636 C638 1.561 . S
C636 C639 1.526 1_556 S
C637 H621 0.959 . S
C637 H622 0.959 . S
C637 H623 0.961 . S
C637 C636 1.502 . S
C638 H624 0.960 . S
C638 H625 0.961 . S
C638 H626 0.959 . S
C638 C636 1.561 . S
C639 C636 1.526 1_554 S
C639 C640 1.396 1_554 S
C639 C644 1.390 . S
C640 C634 1.465 . S
C640 C639 1.396 1_556 S
C640 C641 1.399 1_556 S
C641 H627 0.929 . S
C641 C640 1.399 1_554 S
C641 C642 1.385 . S
C642 H628 0.931 . S
C642 C641 1.385 . S
C642 C643 1.389 . S
C643 C642 1.389 . S
C643 C644 1.387 . S
C644 H629 0.930 . S
C644 C639 1.390 . S
C644 C643 1.387 . S
H645 C657 0.930 . S
H646 C659 0.930 . S
H647 C660 0.930 . S
H648 C664 0.959 . S
H649 C664 0.959 . S
H650 C664 0.961 . S
H651 C665 0.960 . S
H652 C665 0.961 . S
H653 C665 0.959 . S
H654 C668 0.929 . S
H655 C669 0.931 . S
H656 C671 0.930 . S
C657 H645 0.930 . S
C657 C658 1.399 . S
C657 C662 1.399 . S
C658 C657 1.399 . S
C658 C659 1.376 1_455 S
C659 H646 0.930 . S
C659 C658 1.376 1_655 S
C659 C660 1.388 . S
C660 H647 0.930 . S
C660 C659 1.388 . S
C660 C661 1.390 1_655 S
C661 C660 1.390 1_455 S
C661 C662 1.394 . S
C661 C667 1.465 . S
C662 C657 1.399 . S
C662 C661 1.394 . S
C662 C663 1.516 . S
C663 C662 1.516 . S
C663 C664 1.502 . S
C663 C665 1.561 . S
C663 C666 1.526 . S
C664 H648 0.959 . S
C664 H649 0.959 . S
C664 H650 0.961 . S
C664 C663 1.502 . S
C665 H651 0.960 . S
C665 H652 0.961 . S
C665 H653 0.959 . S
C665 C663 1.561 . S
C666 C663 1.526 . S
C666 C667 1.396 . S
C666 C671 1.390 . S
C667 C661 1.465 . S
C667 C666 1.396 . S
C667 C668 1.399 1_455 S
C668 H654 0.929 . S
C668 C667 1.399 1_655 S
C668 C669 1.385 . S
C669 H655 0.931 . S
C669 C668 1.385 . S
C669 C670 1.389 1_655 S
C670 C669 1.389 1_455 S
C670 C671 1.387 . S
C671 H656 0.930 . S
C671 C666 1.390 . S
C671 C670 1.387 . S
C199 C19 3.142 . S
C211 C180 2.837 . S
C226 C49 3.229 . S
C238 C158 2.890 . S
C253 C99 2.875 . S
C265 C172 2.827 . S
C280 C9 2.936 . S
C292 C183 2.850 . S
C319 C161 2.826 . S
C307 C59 2.874 . S
C346 C169 2.864 . S
C334 C89 3.230 . S
C361 C55 0.561 . S
C373 C136 0.696 . S
C388 C85 0.450 . S
C400 C147 0.490 . S
C415 C15 0.417 . S
C427 C125 0.728 . S
C454 C139 0.420 . S
C442 C45 0.412 . S
C481 C150 0.375 . S
C469 C95 0.272 . S
C496 C5 0.194 . S
C508 C128 0.392 . S
C535 C149 1.216 . S
C523 C18 1.155 . S
C550 C58 1.248 . S
C562 C127 1.186 . S
C577 C98 1.204 . S
C589 C138 1.113 . S
C616 C171 1.658 . S
C604 C48 1.670 . S
C643 C182 1.705 . S
C631 C88 1.719 . S
C658 C8 1.625 . S
C670 C160 1.701 . S
