# Generated by pormake.
# Topology iac, (4,6)-cn, num edge types: 1
# Building blocks:
#     Node 0, Type 0, BuildingBlock: TATPOV_clean_sbu_0, # of connection points: 4
#     Node 1, Type 0, BuildingBlock: TATPOV_clean_sbu_0, # of connection points: 4
#     Node 2, Type 0, BuildingBlock: TATPOV_clean_sbu_0, # of connection points: 4
#     Node 3, Type 0, BuildingBlock: TATPOV_clean_sbu_0, # of connection points: 4
#     Node 4, Type 0, BuildingBlock: TATPOV_clean_sbu_0, # of connection points: 4
#     Node 5, Type 0, BuildingBlock: TATPOV_clean_sbu_0, # of connection points: 4
#     Node 6, Type 0, BuildingBlock: TATPOV_clean_sbu_0, # of connection points: 4
#     Node 7, Type 0, BuildingBlock: TATPOV_clean_sbu_0, # of connection points: 4
#     Node 8, Type 0, BuildingBlock: TATPOV_clean_sbu_0, # of connection points: 4
#     Node 9, Type 0, BuildingBlock: TATPOV_clean_sbu_0, # of connection points: 4
#     Node 10, Type 0, BuildingBlock: TATPOV_clean_sbu_0, # of connection points: 4
#     Node 11, Type 0, BuildingBlock: TATPOV_clean_sbu_0, # of connection points: 4
#     Node 12, Type 0, BuildingBlock: TATPOV_clean_sbu_0, # of connection points: 4
#     Node 13, Type 0, BuildingBlock: TATPOV_clean_sbu_0, # of connection points: 4
#     Node 14, Type 0, BuildingBlock: TATPOV_clean_sbu_0, # of connection points: 4
#     Node 15, Type 0, BuildingBlock: TATPOV_clean_sbu_0, # of connection points: 4
#     Node 16, Type 0, BuildingBlock: TATPOV_clean_sbu_0, # of connection points: 4
#     Node 17, Type 0, BuildingBlock: TATPOV_clean_sbu_0, # of connection points: 4
#     Node 18, Type 0, BuildingBlock: TATPOV_clean_sbu_0, # of connection points: 4
#     Node 19, Type 0, BuildingBlock: TATPOV_clean_sbu_0, # of connection points: 4
#     Node 20, Type 0, BuildingBlock: TATPOV_clean_sbu_0, # of connection points: 4
#     Node 21, Type 0, BuildingBlock: TATPOV_clean_sbu_0, # of connection points: 4
#     Node 22, Type 0, BuildingBlock: TATPOV_clean_sbu_0, # of connection points: 4
#     Node 23, Type 0, BuildingBlock: TATPOV_clean_sbu_0, # of connection points: 4
#     Node 24, Type 1, BuildingBlock: FUNLAD_clean_sbu_0, # of connection points: 6
#     Node 25, Type 1, BuildingBlock: FUNLAD_clean_sbu_0, # of connection points: 6
#     Node 26, Type 1, BuildingBlock: FUNLAD_clean_sbu_0, # of connection points: 6
#     Node 27, Type 1, BuildingBlock: FUNLAD_clean_sbu_0, # of connection points: 6
#     Node 28, Type 1, BuildingBlock: FUNLAD_clean_sbu_0, # of connection points: 6
#     Node 29, Type 1, BuildingBlock: FUNLAD_clean_sbu_0, # of connection points: 6
#     Node 30, Type 1, BuildingBlock: FUNLAD_clean_sbu_0, # of connection points: 6
#     Node 31, Type 1, BuildingBlock: FUNLAD_clean_sbu_0, # of connection points: 6
#     Node 32, Type 1, BuildingBlock: FUNLAD_clean_sbu_0, # of connection points: 6
#     Node 33, Type 1, BuildingBlock: FUNLAD_clean_sbu_0, # of connection points: 6
#     Node 34, Type 1, BuildingBlock: FUNLAD_clean_sbu_0, # of connection points: 6
#     Node 35, Type 1, BuildingBlock: FUNLAD_clean_sbu_0, # of connection points: 6
#     Node 36, Type 1, BuildingBlock: FUNLAD_clean_sbu_0, # of connection points: 6
#     Node 37, Type 1, BuildingBlock: FUNLAD_clean_sbu_0, # of connection points: 6
#     Node 38, Type 1, BuildingBlock: FUNLAD_clean_sbu_0, # of connection points: 6
#     Node 39, Type 1, BuildingBlock: FUNLAD_clean_sbu_0, # of connection points: 6
#     Edge 40, Type (0, 1), BuildingBlock: XIVTED_clean_linker_0, # of connection points: 2
#     Edge 41, Type (0, 1), BuildingBlock: XIVTED_clean_linker_0, # of connection points: 2
#     Edge 42, Type (0, 1), BuildingBlock: XIVTED_clean_linker_0, # of connection points: 2
#     Edge 43, Type (0, 1), BuildingBlock: XIVTED_clean_linker_0, # of connection points: 2
#     Edge 44, Type (0, 1), BuildingBlock: XIVTED_clean_linker_0, # of connection points: 2
#     Edge 45, Type (0, 1), BuildingBlock: XIVTED_clean_linker_0, # of connection points: 2
#     Edge 46, Type (0, 1), BuildingBlock: XIVTED_clean_linker_0, # of connection points: 2
#     Edge 47, Type (0, 1), BuildingBlock: XIVTED_clean_linker_0, # of connection points: 2
#     Edge 48, Type (0, 1), BuildingBlock: XIVTED_clean_linker_0, # of connection points: 2
#     Edge 49, Type (0, 1), BuildingBlock: XIVTED_clean_linker_0, # of connection points: 2
#     Edge 50, Type (0, 1), BuildingBlock: XIVTED_clean_linker_0, # of connection points: 2
#     Edge 51, Type (0, 1), BuildingBlock: XIVTED_clean_linker_0, # of connection points: 2
#     Edge 52, Type (0, 1), BuildingBlock: XIVTED_clean_linker_0, # of connection points: 2
#     Edge 53, Type (0, 1), BuildingBlock: XIVTED_clean_linker_0, # of connection points: 2
#     Edge 54, Type (0, 1), BuildingBlock: XIVTED_clean_linker_0, # of connection points: 2
#     Edge 55, Type (0, 1), BuildingBlock: XIVTED_clean_linker_0, # of connection points: 2
#     Edge 56, Type (0, 1), BuildingBlock: XIVTED_clean_linker_0, # of connection points: 2
#     Edge 57, Type (0, 1), BuildingBlock: XIVTED_clean_linker_0, # of connection points: 2
#     Edge 58, Type (0, 1), BuildingBlock: XIVTED_clean_linker_0, # of connection points: 2
#     Edge 59, Type (0, 1), BuildingBlock: XIVTED_clean_linker_0, # of connection points: 2
#     Edge 60, Type (0, 1), BuildingBlock: XIVTED_clean_linker_0, # of connection points: 2
#     Edge 61, Type (0, 1), BuildingBlock: XIVTED_clean_linker_0, # of connection points: 2
#     Edge 62, Type (0, 1), BuildingBlock: XIVTED_clean_linker_0, # of connection points: 2
#     Edge 63, Type (0, 1), BuildingBlock: XIVTED_clean_linker_0, # of connection points: 2
#     Edge 64, Type (0, 1), BuildingBlock: XIVTED_clean_linker_0, # of connection points: 2
#     Edge 65, Type (0, 1), BuildingBlock: XIVTED_clean_linker_0, # of connection points: 2
#     Edge 66, Type (0, 1), BuildingBlock: XIVTED_clean_linker_0, # of connection points: 2
#     Edge 67, Type (0, 1), BuildingBlock: XIVTED_clean_linker_0, # of connection points: 2
#     Edge 68, Type (0, 1), BuildingBlock: XIVTED_clean_linker_0, # of connection points: 2
#     Edge 69, Type (0, 1), BuildingBlock: XIVTED_clean_linker_0, # of connection points: 2
#     Edge 70, Type (0, 1), BuildingBlock: XIVTED_clean_linker_0, # of connection points: 2
#     Edge 71, Type (0, 1), BuildingBlock: XIVTED_clean_linker_0, # of connection points: 2
#     Edge 72, Type (0, 1), BuildingBlock: XIVTED_clean_linker_0, # of connection points: 2
#     Edge 73, Type (0, 1), BuildingBlock: XIVTED_clean_linker_0, # of connection points: 2
#     Edge 74, Type (0, 1), BuildingBlock: XIVTED_clean_linker_0, # of connection points: 2
#     Edge 75, Type (0, 1), BuildingBlock: XIVTED_clean_linker_0, # of connection points: 2
#     Edge 76, Type (0, 1), BuildingBlock: XIVTED_clean_linker_0, # of connection points: 2
#     Edge 77, Type (0, 1), BuildingBlock: XIVTED_clean_linker_0, # of connection points: 2
#     Edge 78, Type (0, 1), BuildingBlock: XIVTED_clean_linker_0, # of connection points: 2
#     Edge 79, Type (0, 1), BuildingBlock: XIVTED_clean_linker_0, # of connection points: 2
#     Edge 80, Type (0, 1), BuildingBlock: XIVTED_clean_linker_0, # of connection points: 2
#     Edge 81, Type (0, 1), BuildingBlock: XIVTED_clean_linker_0, # of connection points: 2
#     Edge 82, Type (0, 1), BuildingBlock: XIVTED_clean_linker_0, # of connection points: 2
#     Edge 83, Type (0, 1), BuildingBlock: XIVTED_clean_linker_0, # of connection points: 2
#     Edge 84, Type (0, 1), BuildingBlock: XIVTED_clean_linker_0, # of connection points: 2
#     Edge 85, Type (0, 1), BuildingBlock: XIVTED_clean_linker_0, # of connection points: 2
#     Edge 86, Type (0, 1), BuildingBlock: XIVTED_clean_linker_0, # of connection points: 2
#     Edge 87, Type (0, 1), BuildingBlock: XIVTED_clean_linker_0, # of connection points: 2
#     Edge 88, Type (0, 1), BuildingBlock: XIVTED_clean_linker_0, # of connection points: 2
#     Edge 89, Type (0, 1), BuildingBlock: XIVTED_clean_linker_0, # of connection points: 2
#     Edge 90, Type (0, 1), BuildingBlock: XIVTED_clean_linker_0, # of connection points: 2
#     Edge 91, Type (0, 1), BuildingBlock: XIVTED_clean_linker_0, # of connection points: 2
#     Edge 92, Type (0, 1), BuildingBlock: XIVTED_clean_linker_0, # of connection points: 2
#     Edge 93, Type (0, 1), BuildingBlock: XIVTED_clean_linker_0, # of connection points: 2
#     Edge 94, Type (0, 1), BuildingBlock: XIVTED_clean_linker_0, # of connection points: 2
#     Edge 95, Type (0, 1), BuildingBlock: XIVTED_clean_linker_0, # of connection points: 2
#     Edge 96, Type (0, 1), BuildingBlock: XIVTED_clean_linker_0, # of connection points: 2
#     Edge 97, Type (0, 1), BuildingBlock: XIVTED_clean_linker_0, # of connection points: 2
#     Edge 98, Type (0, 1), BuildingBlock: XIVTED_clean_linker_0, # of connection points: 2
#     Edge 99, Type (0, 1), BuildingBlock: XIVTED_clean_linker_0, # of connection points: 2
#     Edge 100, Type (0, 1), BuildingBlock: XIVTED_clean_linker_0, # of connection points: 2
#     Edge 101, Type (0, 1), BuildingBlock: XIVTED_clean_linker_0, # of connection points: 2
#     Edge 102, Type (0, 1), BuildingBlock: XIVTED_clean_linker_0, # of connection points: 2
#     Edge 103, Type (0, 1), BuildingBlock: XIVTED_clean_linker_0, # of connection points: 2
#     Edge 104, Type (0, 1), BuildingBlock: XIVTED_clean_linker_0, # of connection points: 2
#     Edge 105, Type (0, 1), BuildingBlock: XIVTED_clean_linker_0, # of connection points: 2
#     Edge 106, Type (0, 1), BuildingBlock: XIVTED_clean_linker_0, # of connection points: 2
#     Edge 107, Type (0, 1), BuildingBlock: XIVTED_clean_linker_0, # of connection points: 2
#     Edge 108, Type (0, 1), BuildingBlock: XIVTED_clean_linker_0, # of connection points: 2
#     Edge 109, Type (0, 1), BuildingBlock: XIVTED_clean_linker_0, # of connection points: 2
#     Edge 110, Type (0, 1), BuildingBlock: XIVTED_clean_linker_0, # of connection points: 2
#     Edge 111, Type (0, 1), BuildingBlock: XIVTED_clean_linker_0, # of connection points: 2
#     Edge 112, Type (0, 1), BuildingBlock: XIVTED_clean_linker_0, # of connection points: 2
#     Edge 113, Type (0, 1), BuildingBlock: XIVTED_clean_linker_0, # of connection points: 2
#     Edge 114, Type (0, 1), BuildingBlock: XIVTED_clean_linker_0, # of connection points: 2
#     Edge 115, Type (0, 1), BuildingBlock: XIVTED_clean_linker_0, # of connection points: 2
#     Edge 116, Type (0, 1), BuildingBlock: XIVTED_clean_linker_0, # of connection points: 2
#     Edge 117, Type (0, 1), BuildingBlock: XIVTED_clean_linker_0, # of connection points: 2
#     Edge 118, Type (0, 1), BuildingBlock: XIVTED_clean_linker_0, # of connection points: 2
#     Edge 119, Type (0, 1), BuildingBlock: XIVTED_clean_linker_0, # of connection points: 2
#     Edge 120, Type (0, 1), BuildingBlock: XIVTED_clean_linker_0, # of connection points: 2
#     Edge 121, Type (0, 1), BuildingBlock: XIVTED_clean_linker_0, # of connection points: 2
#     Edge 122, Type (0, 1), BuildingBlock: XIVTED_clean_linker_0, # of connection points: 2
#     Edge 123, Type (0, 1), BuildingBlock: XIVTED_clean_linker_0, # of connection points: 2
#     Edge 124, Type (0, 1), BuildingBlock: XIVTED_clean_linker_0, # of connection points: 2
#     Edge 125, Type (0, 1), BuildingBlock: XIVTED_clean_linker_0, # of connection points: 2
#     Edge 126, Type (0, 1), BuildingBlock: XIVTED_clean_linker_0, # of connection points: 2
#     Edge 127, Type (0, 1), BuildingBlock: XIVTED_clean_linker_0, # of connection points: 2
#     Edge 128, Type (0, 1), BuildingBlock: XIVTED_clean_linker_0, # of connection points: 2
#     Edge 129, Type (0, 1), BuildingBlock: XIVTED_clean_linker_0, # of connection points: 2
#     Edge 130, Type (0, 1), BuildingBlock: XIVTED_clean_linker_0, # of connection points: 2
#     Edge 131, Type (0, 1), BuildingBlock: XIVTED_clean_linker_0, # of connection points: 2
#     Edge 132, Type (0, 1), BuildingBlock: XIVTED_clean_linker_0, # of connection points: 2
#     Edge 133, Type (0, 1), BuildingBlock: XIVTED_clean_linker_0, # of connection points: 2
#     Edge 134, Type (0, 1), BuildingBlock: XIVTED_clean_linker_0, # of connection points: 2
#     Edge 135, Type (0, 1), BuildingBlock: XIVTED_clean_linker_0, # of connection points: 2
# Relax obj value: 0.340
# Max RMSD: 0.269
# Mean RMSD: 0.166
data_MOF--net-iac--node1-TATPOV_clean_sbu_0--node2-FUNLAD_clean_sbu_0--edge1-XIVTED_clean_linker_0
_symmetry_space_group_name_H-M    P1
_symmetry_Int_Tables_number       1
_symmetry_cell_setting            triclinic
loop_
_symmetry_equiv_pos_as_xyz
'x, y, z'
_cell_length_a     54.975733
_cell_length_b     53.211909
_cell_length_c     59.53313
_cell_angle_alpha  90.152078
_cell_angle_beta   92.800232
_cell_angle_gamma 92.035282
loop_
_atom_site_label
_atom_site_type_symbol
_atom_site_fract_x
_atom_site_fract_y
_atom_site_fract_z
_atom_type_partial_charge
Zn0 Zn 0.08652 0.20927 0.08889 0.0
Zn1 Zn 0.05988 0.21342 0.12663 0.0
O2 O 0.05948 0.24883 0.11425 0.0
O3 O 0.08124 0.24663 0.0842 0.0
O4 O 0.03913 0.21423 0.15325 0.0
O5 O 0.06116 0.18289 0.07665 0.0
O6 O 0.04141 0.187 0.10759 0.0
C7 C 0.06919 0.25933 0.09757 0.0
C8 C 0.11362 0.20062 0.13103 0.0
O9 O 0.0933 0.2049 0.13938 0.0
O10 O 0.11551 0.20052 0.10987 0.0
C11 C 0.03793 0.23292 0.16637 0.0
O12 O 0.05176 0.25314 0.16328 0.0
C13 C 0.04331 0.17686 0.08847 0.0
Zn14 Zn 0.98831 0.75287 0.41368 0.0
Zn15 Zn 0.02451 0.76109 0.38771 0.0
O16 O 0.02697 0.7918 0.40964 0.0
O17 O -0.00365 0.78404 0.43139 0.0
O18 O 0.05443 0.76577 0.36927 0.0
O19 O 0.00075 0.72086 0.42567 0.0
O20 O 0.03094 0.72635 0.40299 0.0
C21 C 0.01426 0.79795 0.42606 0.0
C22 C 0.97191 0.76043 0.36784 0.0
O23 O 0.99467 0.7635 0.36484 0.0
O24 O 0.96481 0.75452 0.3871 0.0
C25 C 0.05801 0.75249 0.35201 0.0
O26 O 0.04115 0.73579 0.34496 0.0
C27 C 0.02029 0.71351 0.41797 0.0
Zn28 Zn 0.5556 0.65259 0.69252 0.0
Zn29 Zn 0.55366 0.70409 0.68654 0.0
O30 O 0.53383 0.69848 0.71411 0.0
O31 O 0.53558 0.65763 0.71996 0.0
O32 O 0.55442 0.74103 0.68003 0.0
O33 O 0.59291 0.65605 0.69307 0.0
O34 O 0.5894 0.6968 0.68859 0.0
C35 C 0.52788 0.67896 0.7252 0.0
C36 C 0.53049 0.66813 0.65115 0.0
O37 O 0.53644 0.69006 0.65836 0.0
O38 O 0.5364 0.64893 0.66245 0.0
C39 C 0.53574 0.75114 0.67113 0.0
O40 O 0.51514 0.73786 0.66898 0.0
C41 C 0.60263 0.67776 0.69057 0.0
Zn42 Zn 0.48551 0.23729 0.91965 0.0
Zn43 Zn 0.51749 0.24236 0.89007 0.0
O44 O 0.51969 0.27746 0.90666 0.0
O45 O 0.49055 0.27223 0.93047 0.0
O46 O 0.54552 0.24329 0.86869 0.0
O47 O 0.50112 0.21038 0.93715 0.0
O48 O 0.5258 0.21018 0.90917 0.0
C49 C 0.507 0.28602 0.92223 0.0
C50 C 0.46407 0.23236 0.87525 0.0
O51 O 0.48562 0.23855 0.86972 0.0
O52 O 0.45969 0.22913 0.89573 0.0
C53 C 0.56695 0.24282 0.8778 0.0
O54 O 0.56951 0.24319 0.89986 0.0
C55 C 0.51854 0.20083 0.92753 0.0
Zn56 Zn 0.13898 0.07072 0.2389 0.0
Zn57 Zn 0.15764 0.02541 0.24682 0.0
O58 O 0.14654 0.03366 0.27809 0.0
O59 O 0.13228 0.07144 0.27214 0.0
O60 O 0.17208 0.99118 0.24903 0.0
O61 O 0.11271 0.05599 0.2177 0.0
O62 O 0.12858 0.01913 0.22398 0.0
C63 C 0.13676 0.05329 0.2853 0.0
C64 C 0.18967 0.0703 0.23132 0.0
O65 O 0.18697 0.04804 0.23878 0.0
O66 O 0.17139 0.0839 0.22819 0.0
C67 C 0.19173 0.98734 0.26044 0.0
O68 O 0.20252 0.00598 0.27202 0.0
C69 C 0.11225 0.03247 0.21448 0.0
Zn70 Zn 0.31556 0.85767 0.56145 0.0
Zn71 Zn 0.2799 0.88657 0.56166 0.0
O72 O 0.27759 0.87426 0.52884 0.0
O73 O 0.31363 0.85758 0.52768 0.0
O74 O 0.2507 0.90851 0.564 0.0
O75 O 0.29921 0.83005 0.57824 0.0
O76 O 0.27198 0.85816 0.58441 0.0
C77 C 0.29414 0.8645 0.51778 0.0
C78 C 0.33241 0.90518 0.57498 0.0
O79 O 0.31088 0.91014 0.56766 0.0
O80 O 0.33827 0.88255 0.57739 0.0
C81 C 0.24582 0.92609 0.55027 0.0
O82 O 0.26088 0.93124 0.53429 0.0
C83 C 0.28034 0.83635 0.58782 0.0
Zn84 Zn 0.41508 0.96507 0.72181 0.0
Zn85 Zn 0.3924 0.00483 0.72586 0.0
O86 O 0.40351 -0.00143 0.75908 0.0
O87 O 0.41792 0.96087 0.75501 0.0
O88 O 0.37342 0.03688 0.72636 0.0
O89 O 0.44308 0.98035 0.70693 0.0
O90 O 0.42107 0.01404 0.70484 0.0
C91 C 0.41259 0.9788 0.76764 0.0
C92 C 0.36764 0.95571 0.70662 0.0
O93 O 0.36624 0.97743 0.71551 0.0
O94 O 0.38831 0.94666 0.70425 0.0
C95 C 0.3537 0.03806 0.7366 0.0
O96 O 0.34569 0.01812 0.74735 0.0
C97 C 0.44031 0.00261 0.70029 0.0
Zn98 Zn 0.24219 0.17344 0.05555 0.0
Zn99 Zn 0.27256 0.13596 0.04686 0.0
O100 O 0.25981 0.14575 0.0156 0.0
O101 O 0.23326 0.17462 0.02226 0.0
O102 O 0.29632 0.10928 0.04103 0.0
O103 O 0.27095 0.19457 0.06837 0.0
O104 O 0.2944 0.1626 0.06329 0.0
C105 C 0.24371 0.16084 0.00856 0.0
C106 C 0.22753 0.12562 0.0741 0.0
O107 O 0.24601 0.11819 0.06421 0.0
O108 O 0.22284 0.14878 0.07425 0.0
C109 C 0.3102 0.10165 0.0571 0.0
O110 O 0.30776 0.11049 0.07746 0.0
C111 C 0.2917 0.18497 0.07004 0.0
Zn112 Zn 0.80903 0.37867 0.05523 0.0
Zn113 Zn 0.76906 0.39903 0.05045 0.0
O114 O 0.77124 0.38128 0.01978 0.0
O115 O 0.80997 0.37216 0.02227 0.0
O116 O 0.73645 0.41574 0.04801 0.0
O117 O 0.79763 0.35145 0.07504 0.0
O118 O 0.76548 0.37446 0.07768 0.0
C119 C 0.79007 0.37322 0.0108 0.0
C120 C 0.81653 0.42945 0.06214 0.0
O121 O 0.79483 0.42868 0.05344 0.0
O122 O 0.8263 0.40928 0.06824 0.0
C123 C 0.7308 0.43016 0.0317 0.0
O124 O 0.74671 0.43464 0.0163 0.0
C125 C 0.77779 0.35556 0.08395 0.0
Zn126 Zn 0.93924 0.49865 0.20881 0.0
Zn127 Zn 0.9085 0.53325 0.21548 0.0
O128 O 0.92866 0.53348 0.2458 0.0
O129 O 0.95426 0.50358 0.2397 0.0
O130 O 0.88597 0.56246 0.2178 0.0
O131 O 0.95499 0.5155 0.18352 0.0
O132 O 0.92748 0.54409 0.18704 0.0
C133 C 0.94615 0.51984 0.25264 0.0
C134 C 0.89087 0.47802 0.20939 0.0
O135 O 0.88622 0.50072 0.21417 0.0
O136 O 0.91218 0.4726 0.20437 0.0
C137 C 0.87597 0.56906 0.23561 0.0
O138 O 0.87921 0.55567 0.25395 0.0
C139 C 0.94565 0.53576 0.17712 0.0
Zn140 Zn 0.82776 0.73631 0.55201 0.0
Zn141 Zn 0.83444 0.68615 0.5441 0.0
O142 O 0.83382 0.70118 0.51302 0.0
O143 O 0.83215 0.74203 0.51874 0.0
O144 O 0.84246 0.65017 0.5398 0.0
O145 O 0.85755 0.73711 0.57387 0.0
O146 O 0.86267 0.69757 0.56516 0.0
C147 C 0.83318 0.72347 0.50547 0.0
C148 C 0.7863 0.70211 0.56109 0.0
O149 O 0.80079 0.68501 0.55625 0.0
O150 O 0.79325 0.72511 0.56063 0.0
C151 C 0.84086 0.638 0.52138 0.0
O152 O 0.83149 0.64863 0.50321 0.0
C153 C 0.86989 0.71748 0.57565 0.0
Zn154 Zn 0.61286 0.53529 0.71838 0.0
Zn155 Zn 0.63442 0.49203 0.71962 0.0
O156 O 0.61255 0.49216 0.74755 0.0
O157 O 0.5916 0.52648 0.74329 0.0
O158 O 0.64995 0.45785 0.72125 0.0
O159 O 0.59995 0.53004 0.68694 0.0
O160 O 0.61756 0.49345 0.68718 0.0
C161 C 0.59638 0.50679 0.75421 0.0
C162 C 0.66478 0.54034 0.72772 0.0
O163 O 0.664 0.51664 0.72457 0.0
O164 O 0.64542 0.55256 0.72618 0.0
C165 C 0.66428 0.45346 0.73812 0.0
O166 O 0.66798 0.47092 0.75369 0.0
C167 C 0.60457 0.50983 0.67708 0.0
Zn168 Zn 0.93259 0.7981 0.92797 0.0
Zn169 Zn 0.97919 0.8078 0.90236 0.0
O170 O 0.98828 0.80787 0.93614 0.0
O171 O 0.95642 0.79351 0.95432 0.0
O172 O 0.01099 0.81217 0.88739 0.0
O173 O 0.9298 0.76754 0.9069 0.0
O174 O 0.96564 0.77347 0.89197 0.0
C175 C 0.97878 0.80032 0.95419 0.0
C176 C 0.93645 0.8349 0.89564 0.0
O177 O 0.95839 0.83609 0.89012 0.0
O178 O 0.93356 0.83428 0.91653 0.0
C179 C 0.01165 0.80861 0.86632 0.0
O180 O 0.99139 0.80234 0.85474 0.0
C181 C 0.94616 0.76022 0.89428 0.0
Zn182 Zn 0.03877 0.27851 0.62001 0.0
Zn183 Zn 0.00472 0.2668 0.64549 0.0
O184 O 0.99305 0.29821 0.62691 0.0
O185 O 0.02117 0.30345 0.60208 0.0
O186 O 0.97534 0.25928 0.66444 0.0
O187 O 0.0398 0.24437 0.60723 0.0
O188 O 0.00789 0.23407 0.62663 0.0
C189 C 0.00108 0.30929 0.6096 0.0
C190 C 0.0563 0.28141 0.66496 0.0
O191 O 0.03509 0.27179 0.66805 0.0
O192 O 0.06174 0.28845 0.64551 0.0
C193 C 0.96947 0.27396 0.68006 0.0
O194 O 0.98356 0.29386 0.68502 0.0
C195 C 0.02355 0.22837 0.61245 0.0
Zn196 Zn 0.48688 0.32802 0.45291 0.0
Zn197 Zn 0.51401 0.31573 0.41675 0.0
O198 O 0.53049 0.34726 0.42954 0.0
O199 O 0.5103 0.35855 0.45868 0.0
O200 O 0.5351 0.3086 0.39136 0.0
O201 O 0.49484 0.29361 0.46574 0.0
O202 O 0.51502 0.28448 0.43584 0.0
C203 C 0.52764 0.36229 0.44567 0.0
C204 C 0.46021 0.32492 0.40912 0.0
O205 O 0.48097 0.32017 0.40201 0.0
O206 O 0.45768 0.32904 0.42988 0.0
C207 C 0.54027 0.32658 0.37823 0.0
O208 O 0.53028 0.34839 0.3809 0.0
C209 C 0.50665 0.27818 0.45463 0.0
Zn210 Zn 0.51621 0.70884 0.1826 0.0
Zn211 Zn 0.51544 0.74627 0.15337 0.0
O212 O 0.48465 0.75013 0.17207 0.0
O213 O 0.48607 0.71998 0.19723 0.0
O214 O 0.51381 0.77718 0.13385 0.0
O215 O 0.54935 0.72048 0.19522 0.0
O216 O 0.54939 0.75092 0.17027 0.0
C217 C 0.47567 0.73885 0.18883 0.0
C218 C 0.5143 0.69257 0.13558 0.0
O219 O 0.51444 0.71605 0.13133 0.0
O220 O 0.51433 0.68511 0.1558 0.0
C221 C 0.49926 0.77932 0.11674 0.0
O222 O 0.48498 0.76006 0.11028 0.0
C223 C 0.56007 0.73915 0.18637 0.0
Zn224 Zn 0.93283 0.96385 0.80064 0.0
Zn225 Zn 0.8942 0.99019 0.80216 0.0
O226 O 0.91038 0.99111 0.83506 0.0
O227 O 0.94298 0.9686 0.83277 0.0
O228 O 0.86824 0.01673 0.80228 0.0
O229 O 0.94917 0.98415 0.77741 0.0
O230 O 0.91347 0.00148 0.77428 0.0
C231 C 0.9294 0.98161 0.84434 0.0
C232 C 0.88689 0.9358 0.78968 0.0
O233 O 0.87668 0.95605 0.79485 0.0
O234 O 0.90994 0.93494 0.79052 0.0
C235 C 0.87391 0.03795 0.81143 0.0
O236 O 0.89562 0.04127 0.82144 0.0
C237 C 0.93465 -0.00157 0.76705 0.0
Zn238 Zn 0.7396 0.14863 0.47886 0.0
Zn239 Zn 0.77934 0.12575 0.48681 0.0
O240 O 0.78774 0.15322 0.46262 0.0
O241 O 0.7543 0.17474 0.45975 0.0
O242 O 0.81066 0.10711 0.49211 0.0
O243 O 0.73709 0.15581 0.51165 0.0
O244 O 0.77318 0.13997 0.51815 0.0
C245 C 0.77606 0.17185 0.45468 0.0
C246 C 0.73158 0.09739 0.47072 0.0
O247 O 0.75324 0.0973 0.47943 0.0
O248 O 0.72204 0.11807 0.4658 0.0
C249 C 0.82428 0.10137 0.47634 0.0
O250 O 0.81797 0.10766 0.4556 0.0
C251 C 0.75458 0.15062 0.52525 0.0
Zn252 Zn 0.61848 0.0624 0.31315 0.0
Zn253 Zn 0.64805 0.02497 0.30757 0.0
O254 O 0.62716 0.0132 0.33428 0.0
O255 O 0.60093 0.04332 0.33658 0.0
O256 O 0.67005 -0.00407 0.30321 0.0
O257 O 0.60589 0.05933 0.28103 0.0
O258 O 0.62898 0.02681 0.27705 0.0
C259 C 0.6086 0.02228 0.34304 0.0
C260 C 0.66866 0.07837 0.31806 0.0
O261 O 0.67196 0.05564 0.31248 0.0
O262 O 0.64734 0.08561 0.32095 0.0
C263 C 0.68227 0.99408 0.2857 0.0
O264 O 0.68092 0.01177 0.27038 0.0
C265 C 0.61327 0.0418 0.26897 0.0
Zn266 Zn 0.72093 0.74811 0.00356 0.0
Zn267 Zn 0.69239 0.79454 0.00688 0.0
O268 O 0.68445 0.78476 0.97458 0.0
O269 O 0.70131 0.74759 0.97323 0.0
O270 O 0.67246 0.82413 0.01301 0.0
O271 O 0.70431 0.73375 0.0315 0.0
O272 O 0.68244 0.76574 0.02646 0.0
C273 C 0.68829 0.76447 0.96419 0.0
C274 C 0.74804 0.79772 0.01206 0.0
O275 O 0.72709 0.80708 0.0118 0.0
O276 O 0.75024 0.77427 0.00866 0.0
C277 C 0.67341 0.84178 -0.00128 0.0
O278 O 0.68682 0.83937 0.98122 0.0
C279 C 0.69761 0.75443 0.03916 0.0
Zn280 Zn 0.23001 0.66537 0.97387 0.0
Zn281 Zn 0.26608 0.63814 0.97956 0.0
O282 O 0.27614 0.66635 0.95692 0.0
O283 O 0.24604 0.6924 0.95704 0.0
O284 O 0.29629 0.61702 0.9803 0.0
O285 O 0.22818 0.6703 0.00674 0.0
O286 O 0.26303 0.65158 0.01206 0.0
C287 C 0.26689 0.68711 0.95091 0.0
C288 C 0.21582 0.61692 0.96123 0.0
O289 O 0.23688 0.61317 0.97039 0.0
O290 O 0.20903 0.63912 0.95812 0.0
C291 C 0.30178 0.60038 -0.00519 0.0
O292 O 0.28695 0.59558 0.01103 0.0
C293 C 0.24561 0.66371 0.01979 0.0
Zn294 Zn 0.1121 0.53641 0.80993 0.0
Zn295 Zn 0.14297 0.50135 0.80199 0.0
O296 O 0.12023 0.48557 0.82568 0.0
O297 O 0.09246 0.514 0.82916 0.0
O298 O 0.16623 0.47346 0.79673 0.0
O299 O 0.10231 0.5381 0.77726 0.0
O300 O 0.12608 0.50671 0.77069 0.0
C301 C 0.10051 0.49259 0.83376 0.0
C302 C 0.16089 0.55378 0.81931 0.0
O303 O 0.16529 0.53228 0.8112 0.0
O304 O 0.13914 0.55946 0.8224 0.0
C305 C 0.17456 0.46033 0.81301 0.0
O306 O 0.16861 0.46569 0.83354 0.0
C307 C 0.11068 0.52265 0.76368 0.0
Zn308 Zn 0.30162 0.34179 0.48022 0.0
Zn309 Zn 0.26719 0.37499 0.4887 0.0
O310 O 0.24853 0.34564 0.47273 0.0
O311 O 0.27573 0.31701 0.46797 0.0
O312 O 0.23994 0.39864 0.49238 0.0
O313 O 0.31036 0.3415 0.51341 0.0
O314 O 0.28072 0.36681 0.52034 0.0
C315 C 0.25388 0.32377 0.46637 0.0
C316 C 0.31069 0.39009 0.46055 0.0
O317 O 0.29171 0.3954 0.4708 0.0
O318 O 0.31806 0.36779 0.46076 0.0
C319 C 0.22792 0.39989 0.51001 0.0
O320 O 0.2343 0.38637 0.52762 0.0
C321 C 0.29832 0.35345 0.52727 0.0
Zn322 Zn 0.42226 0.47564 0.2946 0.0
Zn323 Zn 0.39433 0.51367 0.2812 0.0
O324 O 0.41918 0.52925 0.30489 0.0
O325 O 0.44316 0.49862 0.31506 0.0
O326 O 0.37251 0.54264 0.27476 0.0
O327 O 0.43129 0.47288 0.26208 0.0
O328 O 0.40957 0.50529 0.2516 0.0
C329 C 0.43766 0.52146 0.31622 0.0
C330 C 0.37175 0.46421 0.2993 0.0
O331 O 0.3701 0.48556 0.28986 0.0
O332 O 0.3925 0.45598 0.30495 0.0
C333 C 0.36274 0.55198 0.29167 0.0
O334 O 0.36713 0.54208 0.31159 0.0
C335 C 0.42387 0.48788 0.24693 0.0
C336 C 0.9755 0.96869 0.00874 0.0
N337 N 0.93121 0.94616 0.06161 0.0
C338 C 0.91269 0.95365 0.04747 0.0
C339 C 0.89105 0.93908 0.04495 0.0
C340 C 0.88848 0.91655 0.05704 0.0
C341 C 0.90726 0.91024 0.07262 0.0
C342 C 0.92855 0.92537 0.07465 0.0
Zn343 Zn 0.9656 0.96175 0.05883 0.0
C344 C 0.00067 0.91896 0.05288 0.0
N345 N 0.03852 0.98701 0.04883 0.0
C346 C 0.0427 0.00928 0.03828 0.0
C347 C 0.05641 0.97611 0.06165 0.0
C348 C 0.07904 0.98841 0.06545 0.0
C349 C 0.08323 0.01225 0.05614 0.0
C350 C 0.06505 0.02234 0.0418 0.0
Zn351 Zn 0.00379 0.97256 0.05084 0.0
O352 O 0.95942 0.96284 0.02272 0.0
C353 C 0.96983 0.01562 0.05679 0.0
O354 O -0.00268 0.97346 0.01594 0.0
H355 H 0.05266 0.9586 0.07019 0.0
H356 H 0.91524 0.97009 0.03709 0.0
H357 H 0.02826 0.01764 0.02818 0.0
O358 O 0.95327 -0.00077 0.06094 0.0
O359 O 0.99107 0.00887 0.05275 0.0
H360 H 0.94353 0.91962 0.08569 0.0
O361 O 0.00991 0.97169 0.08568 0.0
O362 O 0.97246 0.96174 0.0945 0.0
O363 O 0.01605 0.93641 0.04883 0.0
O364 O 0.97897 0.92445 0.05693 0.0
C365 C 0.99462 0.96678 0.10041 0.0
H366 H 0.87715 0.94464 0.03262 0.0
H367 H 0.9059 0.89329 0.08258 0.0
H368 H 0.09252 0.98007 0.07673 0.0
H369 H 0.06777 0.04055 0.03404 0.0
C370 C 0.31569 0.77184 0.25421 0.0
N371 N 0.25038 0.74984 0.22005 0.0
C372 C 0.25754 0.76447 0.20271 0.0
C373 C 0.25462 0.75559 0.18066 0.0
C374 C 0.24459 0.7313 0.17657 0.0
C375 C 0.23638 0.71703 0.19463 0.0
C376 C 0.23928 0.72682 0.21638 0.0
Zn377 Zn 0.26113 0.76013 0.25195 0.0
C378 C 0.27946 0.71544 0.27764 0.0
N379 N 0.2872 0.7797 0.31802 0.0
C380 C 0.30265 0.79986 0.32222 0.0
C381 C 0.27583 0.7677 0.33491 0.0
C382 C 0.27826 0.77704 0.35677 0.0
C383 C 0.29316 0.79861 0.3616 0.0
C384 C 0.30617 0.80946 0.34405 0.0
Zn385 Zn 0.27654 0.76967 0.28599 0.0
O386 O 0.29719 0.76725 0.24099 0.0
C387 C 0.25854 0.81456 0.26066 0.0
O388 O 0.31274 0.77397 0.27518 0.0
H389 H 0.26373 0.75159 0.33125 0.0
H390 H 0.26662 0.78256 0.20605 0.0
H391 H 0.31147 0.80914 0.3085 0.0
O392 O 0.25214 0.79813 0.24577 0.0
O393 O 0.26987 0.80777 0.27862 0.0
H394 H 0.2337 0.71553 0.23043 0.0
O395 O 0.24009 0.76522 0.29621 0.0
O396 O 0.22514 0.753 0.26307 0.0
O397 O 0.2832 0.73158 0.29328 0.0
O398 O 0.27045 0.72238 0.25871 0.0
C399 C 0.22191 0.75792 0.28359 0.0
H400 H 0.26126 0.76705 0.16709 0.0
H401 H 0.22831 0.69832 0.192 0.0
H402 H 0.26748 0.76805 0.36939 0.0
H403 H 0.31842 0.82564 0.3469 0.0
C404 C 0.53845 0.01407 0.57219 0.0
N405 N 0.55483 0.9444 0.54615 0.0
C406 C 0.57044 0.94287 0.5645 0.0
C407 C 0.57141 0.92067 0.57691 0.0
C408 C 0.55618 0.89992 0.57031 0.0
C409 C 0.54194 0.90139 0.55013 0.0
C410 C 0.54146 0.92396 0.5383 0.0
Zn411 Zn 0.54554 0.97887 0.53442 0.0
C412 C 0.48968 0.98149 0.53449 0.0
N413 N 0.52023 0.04917 0.51224 0.0
C414 C 0.53313 0.06865 0.52248 0.0
C415 C 0.50247 0.05318 0.49605 0.0
C416 C 0.4972 0.07774 0.48957 0.0
C417 C 0.51011 0.09805 0.50023 0.0
C418 C 0.52821 0.09329 0.51685 0.0
Zn419 Zn 0.52953 0.01432 0.52253 0.0
O420 O 0.54613 0.99236 0.5682 0.0
C421 C 0.58512 0.01161 0.52177 0.0
O422 O 0.53147 0.02762 0.55584 0.0
H423 H 0.49253 0.03738 0.4881 0.0
H424 H 0.58079 0.95941 0.5705 0.0
H425 H 0.54749 0.06511 0.53499 0.0
O426 O 0.5826 0.99021 0.53098 0.0
O427 O 0.56646 0.02461 0.51777 0.0
H428 H 0.52905 0.92565 0.52376 0.0
O429 O 0.52739 0.00084 0.48938 0.0
O430 O 0.54502 0.96618 0.50022 0.0
O431 O 0.4928 0.0036 0.52694 0.0
O432 O 0.50807 0.96786 0.53778 0.0
C433 C 0.53653 0.98003 0.4845 0.0
H434 H 0.58261 0.92043 0.59239 0.0
H435 H 0.53031 0.88567 0.54417 0.0
H436 H 0.48318 0.08085 0.47656 0.0
H437 H 0.53888 0.1085 0.52507 0.0
C438 C 0.27068 0.20159 0.75105 0.0
N439 N 0.23972 0.22716 0.80887 0.0
C440 C 0.2244 0.20646 0.80853 0.0
C441 C 0.21871 0.19465 0.82864 0.0
C442 C 0.2292 0.20426 0.84892 0.0
C443 C 0.244 0.2262 0.84885 0.0
C444 C 0.24896 0.2375 0.82852 0.0
Zn445 Zn 0.2526 0.24172 0.78028 0.0
C446 C 0.30728 0.25098 0.78634 0.0
N447 N 0.28343 0.27257 0.72236 0.0
C448 C 0.27797 0.26084 0.70234 0.0
C449 C 0.29695 0.29451 0.72366 0.0
C450 C 0.30486 0.30598 0.70415 0.0
C451 C 0.29919 0.2944 0.68332 0.0
C452 C 0.2859 0.2714 0.6825 0.0
Zn453 Zn 0.26988 0.25778 0.75062 0.0
O454 O 0.25888 0.20491 0.76857 0.0
C455 C 0.21513 0.24883 0.74464 0.0
O456 O 0.2773 0.22063 0.73969 0.0
H457 H 0.30122 0.30338 0.73979 0.0
H458 H 0.21739 0.19857 0.79264 0.0
H459 H 0.267 0.24356 0.70172 0.0
O460 O 0.21722 0.24081 0.7647 0.0
O461 O 0.2342 0.25589 0.73474 0.0
H462 H 0.26104 0.25396 0.82838 0.0
O463 O 0.26249 0.29454 0.76196 0.0
O464 O 0.24646 0.2787 0.79199 0.0
O465 O 0.3052 0.25988 0.76662 0.0
O466 O 0.28832 0.2427 0.79565 0.0
C467 C 0.2521 0.29777 0.78028 0.0
H468 H 0.20726 0.17765 0.82831 0.0
H469 H 0.25224 0.23405 0.86435 0.0
H470 H 0.31512 0.32373 0.7053 0.0
H471 H 0.28095 0.26216 0.6666 0.0
C472 C 0.0802 -0.00098 0.5374 0.0
N473 N 0.05195 0.03261 0.47923 0.0
C474 C 0.07382 0.04546 0.47932 0.0
C475 C 0.08438 0.05154 0.45912 0.0
C476 C 0.07207 0.04474 0.43871 0.0
C477 C 0.04907 0.0325 0.43906 0.0
C478 C 0.03938 0.02638 0.45964 0.0
Zn479 Zn 0.03922 0.0199 0.50882 0.0
C480 C 0.02623 0.96432 0.50556 0.0
N481 N 0.01411 0.99187 0.57113 0.0
C482 C 0.02929 -0.00351 0.58953 0.0
C483 C 0.99008 0.98582 0.57338 0.0
C484 C 0.98009 0.98662 0.59454 0.0
C485 C 0.99507 0.99321 0.61365 0.0
C486 C 0.02022 -0.00319 0.61097 0.0
Zn487 Zn 0.02654 0.00293 0.5405 0.0
O488 O 0.07504 0.01114 0.51957 0.0
C489 C 0.03918 0.05838 0.54371 0.0
O490 O 0.06314 0.99255 0.55011 0.0
H491 H 0.9782 0.98214 0.55865 0.0
H492 H 0.08344 0.05035 0.49508 0.0
H493 H 0.04822 0.00174 0.5876 0.0
O494 O 0.04383 0.05614 0.52312 0.0
O495 O 0.03272 0.03905 0.55464 0.0
H496 H 0.02216 0.01594 0.45996 0.0
O497 O 0.9905 0.01367 0.52986 0.0
O498 O 0.00327 0.02868 0.49813 0.0
O499 O 0.02027 0.96686 0.52583 0.0
O500 O 0.03434 0.98334 0.49499 0.0
C501 C 0.98596 0.02429 0.51108 0.0
H502 H 0.1021 0.06116 0.45942 0.0
H503 H 0.03919 0.02677 0.4236 0.0
H504 H 0.96061 0.98365 0.59556 0.0
H505 H 0.03276 0.00102 0.62518 0.0
C506 C 0.24882 0.74948 0.72442 0.0
N507 N 0.31602 0.73548 0.7584 0.0
C508 C 0.31905 0.71086 0.75338 0.0
C509 C 0.34241 0.70119 0.75392 0.0
C510 C 0.36288 0.71711 0.75931 0.0
C511 C 0.35911 0.74268 0.76327 0.0
C512 C 0.33555 0.75137 0.76311 0.0
Zn513 Zn 0.28243 0.74904 0.76393 0.0
C514 C 0.28111 0.80473 0.75338 0.0
N515 N 0.21543 0.78092 0.77962 0.0
C516 C 0.19482 0.7676 0.77276 0.0
C517 C 0.21447 0.80202 0.79245 0.0
C518 C 0.19216 0.80992 0.79962 0.0
C519 C 0.17067 0.79596 0.79351 0.0
C520 C 0.17216 0.77482 0.77953 0.0
Zn521 Zn 0.2483 0.76725 0.77242 0.0
O522 O 0.26934 0.74103 0.73094 0.0
C523 C 0.24879 0.71151 0.78246 0.0
O524 O 0.23597 0.7603 0.73854 0.0
H525 H 0.23109 0.81234 0.79767 0.0
H526 H 0.30333 0.69843 0.74984 0.0
H527 H 0.19603 0.75081 0.76265 0.0
O528 O 0.27002 0.7132 0.77502 0.0
O529 O 0.23597 0.73092 0.78258 0.0
H530 H 0.33296 0.77071 0.76763 0.0
O531 O 0.26151 0.77421 0.80585 0.0
O532 O 0.29546 0.75722 0.79703 0.0
O533 O 0.26065 0.80331 0.76237 0.0
O534 O 0.29372 0.78522 0.75242 0.0
C535 C 0.28281 0.76734 0.81157 0.0
H536 H 0.34423 0.6813 0.75087 0.0
H537 H 0.37418 0.75597 0.76681 0.0
H538 H 0.1918 0.82651 0.81016 0.0
H539 H 0.15612 0.7633 0.77466 0.0
C540 C 0.49295 0.94646 0.03976 0.0
N541 N 0.52781 0.01117 0.06713 0.0
C542 C 0.51388 0.00782 0.08522 0.0
C543 C 0.52351 0.01348 0.10679 0.0
C544 C 0.54777 0.02242 0.10978 0.0
C545 C 0.56161 0.0262 0.09081 0.0
C546 C 0.55115 0.02054 0.06948 0.0
Zn547 Zn 0.51393 -0.00063 0.03649 0.0
C548 C 0.55034 0.97122 0.01196 0.0
N549 N 0.48489 0.97243 0.97308 0.0
C550 C 0.46093 0.96524 0.97004 0.0
C551 C 0.49941 0.97526 0.95533 0.0
C552 C 0.4898 0.97157 0.93346 0.0
C553 C 0.46492 0.96543 0.92981 0.0
C554 C 0.45043 0.96188 0.94835 0.0
Zn555 Zn 0.49885 0.98381 0.00391 0.0
O556 O 0.50281 0.96489 0.05084 0.0
C557 C 0.46209 0.01147 0.02872 0.0
O558 O 0.48823 0.94887 0.01875 0.0
H559 H 0.51826 0.98148 0.95803 0.0
H560 H 0.49547 9e-05 0.08299 0.0
H561 H 0.44971 0.96306 0.98437 0.0
O562 O 0.47996 0.01493 0.04286 0.0
O563 O 0.46504 -0.00098 0.01091 0.0
H564 H 0.56187 0.02307 0.05484 0.0
O565 O 0.51013 0.01861 0.98943 0.0
O566 O 0.5253 0.03359 0.02169 0.0
O567 O 0.53269 0.96871 -0.00252 0.0
O568 O 0.54756 0.98343 0.02995 0.0
C569 C 0.52106 0.03632 0.00069 0.0
H570 H 0.51235 0.01004 0.12105 0.0
H571 H 0.58032 0.03328 0.09247 0.0
H572 H 0.50144 0.97472 0.9195 0.0
H573 H 0.43116 0.95703 0.94605 0.0
C574 C 0.29639 0.20642 0.26591 0.0
N575 N 0.32671 0.26695 0.23124 0.0
C576 C 0.34822 0.25504 0.23222 0.0
C577 C 0.36256 0.25479 0.2135 0.0
C578 C 0.35435 0.26647 0.19351 0.0
C579 C 0.33336 0.28084 0.19395 0.0
C580 C 0.31978 0.28083 0.21307 0.0
Zn581 Zn 0.3023 0.26075 0.25532 0.0
C582 C 0.25266 0.24979 0.23653 0.0
N583 N 0.25199 0.24747 0.30622 0.0
C584 C 0.2583 0.23408 0.32486 0.0
C585 C 0.2295 0.25723 0.30336 0.0
C586 C 0.21285 0.25492 0.32023 0.0
C587 C 0.21964 0.24311 0.34055 0.0
C588 C 0.24243 0.23178 0.34235 0.0
Zn589 Zn 0.27691 0.25396 0.28259 0.0
O590 O 0.30779 0.2216 0.2534 0.0
C591 C 0.32644 0.26481 0.30141 0.0
O592 O 0.28281 0.21506 0.28056 0.0
H593 H 0.22476 0.26769 0.28834 0.0
H594 H 0.35347 0.24432 0.24697 0.0
H595 H 0.27613 0.22614 0.32663 0.0
O596 O 0.33036 0.26589 0.28056 0.0
O597 O 0.30516 0.25908 0.30754 0.0
H598 H 0.30272 0.29035 0.21277 0.0
O599 O 0.27156 0.2932 0.28468 0.0
O600 O 0.29627 0.2997 0.25725 0.0
O601 O 0.24899 0.2489 0.25739 0.0
O602 O 0.27388 0.2554 0.23024 0.0
C603 C 0.28279 0.30833 0.27199 0.0
H604 H 0.37886 0.24393 0.21415 0.0
H605 H 0.32599 0.29004 0.17905 0.0
H606 H 0.19536 0.26353 0.31781 0.0
H607 H 0.24885 0.22278 0.35768 0.0
C608 C 0.56183 0.49557 0.0104 0.0
N609 N 0.52717 0.52934 0.95417 0.0
C610 C 0.55014 0.53767 0.94975 0.0
C611 C 0.55781 0.53765 0.92766 0.0
C612 C 0.54159 0.5292 0.91002 0.0
C613 C 0.51753 0.52252 0.91496 0.0
C614 C 0.51073 0.52257 0.93719 0.0
Zn615 Zn 0.51849 0.51797 0.98582 0.0
C616 C 0.50489 0.46175 0.98294 0.0
N617 N 0.50016 0.48686 0.04873 0.0
C618 C 0.51479 0.49318 0.0671 0.0
C619 C 0.47812 0.47484 0.05078 0.0
C620 C 0.46935 0.47016 0.07201 0.0
C621 C 0.48353 0.47772 0.09124 0.0
C622 C 0.50684 0.48864 0.08866 0.0
Zn623 Zn 0.50929 0.49963 0.01796 0.0
O624 O 0.55552 0.50817 -0.00692 0.0
C625 C 0.52376 0.55512 0.022 0.0
O626 O 0.54582 0.48912 0.02417 0.0
H627 H 0.46682 0.46992 0.03593 0.0
H628 H 0.56305 0.54275 0.96345 0.0
H629 H 0.53216 0.5029 0.06508 0.0
O630 O 0.52562 0.55478 0.00073 0.0
O631 O 0.51778 0.53501 0.03208 0.0
H632 H 0.49283 0.51524 0.94095 0.0
O633 O 0.47275 0.51048 0.01163 0.0
O634 O 0.4812 0.5278 0.9795 0.0
O635 O 0.50124 0.46428 0.00369 0.0
O636 O 0.51157 0.48088 0.97175 0.0
C637 C 0.4658 0.52243 -0.00583 0.0
H638 H 0.57647 0.54325 0.92453 0.0
H639 H 0.5045 0.51556 0.90198 0.0
H640 H 0.45138 0.46144 0.07337 0.0
H641 H 0.51821 0.49493 0.1031 0.0
C642 C 0.77687 0.27812 0.23235 0.0
N643 N 0.84102 0.25398 0.26478 0.0
C644 C 0.84347 0.23744 0.24765 0.0
C645 C 0.86665 0.23201 0.2407 0.0
C646 C 0.88738 0.24371 0.25155 0.0
C647 C 0.88423 0.25965 0.2699 0.0
C648 C 0.86083 0.26468 0.27615 0.0
Zn649 Zn 0.80788 0.26661 0.27243 0.0
C650 C 0.81089 0.32448 0.27184 0.0
N651 N 0.74191 0.29877 0.28952 0.0
C652 C 0.72221 0.28754 0.27841 0.0
C653 C 0.73932 0.31636 0.30577 0.0
C654 C 0.71606 0.32252 0.31199 0.0
C655 C 0.69548 0.31033 0.30139 0.0
C656 C 0.69876 0.29313 0.28403 0.0
Zn657 Zn 0.775 0.28608 0.2821 0.0
O658 O 0.79663 0.26755 0.23788 0.0
C659 C 0.77148 0.22848 0.28226 0.0
O660 O 0.76426 0.28697 0.2476 0.0
H661 H 0.75528 0.32499 0.31439 0.0
H662 H 0.82745 0.22924 0.2388 0.0
H663 H 0.72463 0.27355 0.26559 0.0
O664 O 0.79307 0.22932 0.27551 0.0
O665 O 0.76079 0.24891 0.2853 0.0
H666 H 0.8585 0.27794 0.28959 0.0
O667 O 0.786 0.28489 0.31665 0.0
O668 O 0.81837 0.26526 0.30719 0.0
O669 O 0.78943 0.3231 0.27884 0.0
O670 O 0.82217 0.3043 0.26905 0.0
C671 C 0.80532 0.27359 0.32238 0.0
H672 H 0.86821 0.21977 0.22633 0.0
H673 H 0.89968 0.26874 0.279 0.0
H674 H 0.71426 0.33576 0.3256 0.0
H675 H 0.68336 0.28359 0.27525 0.0
C676 C 0.00377 0.46269 0.52587 0.0
N677 N 0.03869 0.52534 0.55678 0.0
C678 C 0.02288 0.52139 0.5734 0.0
C679 C 0.0308 0.5245 0.59587 0.0
C680 C 0.05525 0.53154 0.60123 0.0
C681 C 0.07084 0.53672 0.58373 0.0
C682 C 0.06211 0.53357 0.56148 0.0
Zn683 Zn 0.0285 0.5142 0.52491 0.0
C684 C 0.06789 0.48437 0.50569 0.0
N685 N 0.00843 0.48781 0.45894 0.0
C686 C 0.98475 0.48199 0.45274 0.0
C687 C 0.0254 0.49182 0.44334 0.0
C688 C 0.01849 0.49189 0.42053 0.0
C689 C 0.99386 0.48792 0.41369 0.0
C690 C 0.977 0.482 0.43003 0.0
Zn691 Zn 0.01815 0.49825 0.49118 0.0
O692 O 0.01362 0.48051 0.53771 0.0
C693 C 0.9788 0.52765 0.51101 0.0
O694 O 0.00314 0.46434 0.50452 0.0
H695 H 0.04403 0.49686 0.4486 0.0
H696 H 0.0044 0.51465 0.56929 0.0
H697 H 0.97154 0.47893 0.46543 0.0
O698 O 0.99457 0.53056 0.52718 0.0
O699 O 0.98401 0.51528 0.49372 0.0
H700 H 0.07434 0.53661 0.54799 0.0
O701 O 0.03284 0.53243 0.47833 0.0
O702 O 0.04283 0.54819 0.51167 0.0
O703 O 0.05248 0.48136 0.48921 0.0
O704 O 0.06237 0.49728 0.52253 0.0
C705 C 0.04182 0.55048 0.49041 0.0
H706 H 0.01826 0.52013 0.6089 0.0
H707 H 0.08974 0.54251 0.58722 0.0
H708 H 0.03207 0.4968 0.40856 0.0
H709 H 0.95789 0.47848 0.42539 0.0
C710 C 0.79805 0.73642 0.24694 0.0
N711 N 0.77022 0.7711 0.30277 0.0
C712 C 0.76626 0.7469 0.3094 0.0
C713 C 0.77002 0.74044 0.332 0.0
C714 C 0.77744 0.75921 0.34778 0.0
C715 C 0.77849 0.78433 0.34075 0.0
C716 C 0.7753 0.78983 0.31806 0.0
Zn717 Zn 0.77645 0.77937 0.27013 0.0
C718 C 0.82902 0.79849 0.26888 0.0
N719 N 0.79558 0.79969 0.20421 0.0
C720 C 0.79077 0.78166 0.18825 0.0
C721 C 0.80252 0.82361 0.19854 0.0
C722 C 0.80326 0.83051 0.17591 0.0
C723 C 0.79767 0.8123 0.15926 0.0
C724 C 0.7921 0.7875 0.16563 0.0
Zn725 Zn 0.78824 0.79043 0.23643 0.0
O726 O 0.78928 0.74285 0.26531 0.0
C727 C 0.73522 0.77096 0.2386 0.0
O728 O 0.79937 0.75248 0.23123 0.0
H729 H 0.80635 0.83768 0.21149 0.0
H730 H 0.76208 0.73227 0.29704 0.0
H731 H 0.7846 0.76299 0.19291 0.0
O732 O 0.74133 0.76733 0.25916 0.0
O733 O 0.75095 0.78023 0.2256 0.0
H734 H 0.77888 0.80889 0.31267 0.0
O735 O 0.77707 0.82821 0.24236 0.0
O736 O 0.7636 0.81565 0.27454 0.0
O737 O 0.82507 0.80005 0.24772 0.0
O738 O 0.81175 0.79152 0.28105 0.0
C739 C 0.76648 0.83301 0.26031 0.0
H740 H 0.76888 0.7208 0.33667 0.0
H741 H 0.78336 0.79952 0.35245 0.0
H742 H 0.80723 0.8499 0.17147 0.0
H743 H 0.787 0.77313 0.15318 0.0
C744 C 0.80935 0.25329 0.75487 0.0
N745 N 0.74408 0.22041 0.72778 0.0
C746 C 0.74803 0.23506 0.70954 0.0
C747 C 0.74431 0.22521 0.68795 0.0
C748 C 0.73685 0.1999 0.68505 0.0
C749 C 0.73198 0.18537 0.70407 0.0
C750 C 0.73558 0.19616 0.72547 0.0
Zn751 Zn 0.75615 0.23472 0.75819 0.0
C752 C 0.78191 0.19586 0.78627 0.0
N753 N 0.78567 0.26551 0.81966 0.0
C754 C 0.79647 0.28892 0.8206 0.0
C755 C 0.77928 0.25324 0.8386 0.0
C756 C 0.78206 0.26523 0.85942 0.0
C757 C 0.79167 0.28999 0.86071 0.0
C758 C 0.79977 0.30157 0.84115 0.0
Zn759 Zn 0.77357 0.25075 0.78956 0.0
O760 O 0.79098 0.24309 0.74409 0.0
C761 C 0.74782 0.28969 0.76196 0.0
O762 O 0.8074 0.25945 0.77532 0.0
H763 H 0.77072 0.23463 0.83743 0.0
H764 H 0.75536 0.25407 0.71169 0.0
H765 H 0.80123 0.29835 0.80528 0.0
O766 O 0.7433 0.27102 0.74888 0.0
O767 O 0.7605 0.28651 0.78006 0.0
H768 H 0.73266 0.18483 0.74021 0.0
O769 O 0.73951 0.2421 0.80356 0.0
O770 O 0.72158 0.22668 0.77259 0.0
O771 O 0.78654 0.21489 0.79892 0.0
O772 O 0.76907 0.19856 0.76812 0.0
C773 C 0.72056 0.23268 0.79323 0.0
H774 H 0.74866 0.2369 0.67372 0.0
H775 H 0.72612 0.16578 0.70242 0.0
H776 H 0.77597 0.25559 0.87425 0.0
H777 H 0.8072 0.3207 0.84151 0.0
C778 C 0.79237 0.66473 0.76717 0.0
N779 N 0.84683 0.70564 0.73501 0.0
C780 C 0.86401 0.689 0.74168 0.0
C781 C 0.8856 0.68765 0.73025 0.0
C782 C 0.88958 0.70411 0.71235 0.0
C783 C 0.87151 0.72101 0.70593 0.0
C784 C 0.85015 0.72132 0.71738 0.0
Zn785 Zn 0.81658 0.71065 0.75247 0.0
C786 C 0.77162 0.71364 0.72446 0.0
N787 N 0.75589 0.72626 0.79064 0.0
C788 C 0.75222 0.71163 0.80891 0.0
C789 C 0.73981 0.74399 0.784 0.0
C790 C 0.71936 0.74802 0.79639 0.0
C791 C 0.71539 0.73341 0.81552 0.0
C792 C 0.73196 0.71481 0.82156 0.0
Zn793 Zn 0.78593 0.72072 0.77307 0.0
O794 O 0.81056 0.67121 0.75587 0.0
C795 C 0.83068 0.71887 0.80124 0.0
O796 O 0.78013 0.68156 0.77609 0.0
H797 H 0.74302 0.75526 0.76928 0.0
H798 H 0.861 0.67686 0.7559 0.0
H799 H 0.76529 0.69774 0.81394 0.0
O800 O 0.83881 0.71287 0.78242 0.0
O801 O 0.80805 0.72213 0.80261 0.0
H802 H 0.83621 0.73422 0.71223 0.0
O803 O 0.79182 0.75967 0.77002 0.0
O804 O 0.82206 0.75063 0.74919 0.0
O805 O 0.76423 0.71973 0.74349 0.0
O806 O 0.79377 0.70841 0.72247 0.0
C807 C 0.80952 0.76697 0.75852 0.0
H808 H 0.89894 0.67399 0.73525 0.0
H809 H 0.87351 0.73337 0.69164 0.0
H810 H 0.70704 0.76264 0.79131 0.0
H811 H 0.72991 0.70357 0.83654 0.0
C812 C 0.52688 0.59439 0.4406 0.0
N813 N 0.48886 0.54092 0.47662 0.0
C814 C 0.4684 0.5526 0.46915 0.0
C815 C 0.4472 0.53856 0.46294 0.0
C816 C 0.44713 0.51224 0.46438 0.0
C817 C 0.4683 0.50074 0.47277 0.0
C818 C 0.48906 0.5155 0.47883 0.0
Zn819 Zn 0.52063 0.56155 0.48136 0.0
C820 C 0.56117 0.53489 0.45983 0.0
N821 N 0.58783 0.60391 0.48646 0.0
C822 C 0.58779 0.62948 0.48714 0.0
C823 C 0.60787 0.59132 0.49359 0.0
C824 C 0.62835 0.60431 0.50297 0.0
C825 C 0.62819 0.63056 0.50549 0.0
C826 C 0.60786 0.64326 0.49671 0.0
Zn827 Zn 0.556 0.5831 0.48107 0.0
O828 O 0.51263 0.58002 0.45122 0.0
C829 C 0.51504 0.60901 0.50341 0.0
O830 O 0.54831 0.59955 0.4488 0.0
H831 H 0.60752 0.571 0.49329 0.0
H832 H 0.4687 0.57284 0.46734 0.0
H833 H 0.57164 0.63917 0.48152 0.0
O834 O 0.50306 0.58871 0.49885 0.0
O835 O 0.53683 0.61166 0.4973 0.0
H836 H 0.50552 0.5066 0.48477 0.0
O837 O 0.56339 0.56554 0.51269 0.0
O838 O 0.52916 0.54302 0.5121 0.0
O839 O 0.57443 0.55403 0.46558 0.0
O840 O 0.53871 0.53408 0.46385 0.0
C841 C 0.54968 0.54911 0.5217 0.0
H842 H 0.43131 0.54815 0.45647 0.0
H843 H 0.46886 0.4805 0.47456 0.0
H844 H 0.64385 0.59373 0.50888 0.0
H845 H 0.60686 0.66346 0.49827 0.0
C846 C 0.01163 0.55092 0.03369 0.0
N847 N 0.0315 0.47621 0.02869 0.0
C848 C 0.05188 0.47871 0.04257 0.0
C849 C 0.05935 0.45851 0.05589 0.0
C850 C 0.0453 0.43597 0.05514 0.0
C851 C 0.02429 0.43408 0.04091 0.0
C852 C 0.01784 0.45438 0.02759 0.0
Zn853 Zn 0.01998 0.50424 0.00813 0.0
C854 C 0.96456 0.50523 0.00748 0.0
N855 N 0.99124 0.5604 0.96507 0.0
C856 C 0.00318 0.58319 0.96506 0.0
C857 C 0.97259 0.55461 0.94982 0.0
C858 C 0.96545 0.57208 0.93356 0.0
C859 C 0.97786 0.5955 0.93285 0.0
C860 C -0.00318 0.60107 0.94897 0.0
Zn861 Zn 0.00329 0.53342 0.98655 0.0
O862 O 0.02107 0.5295 0.03524 0.0
C863 C 0.05892 0.53304 0.98796 0.0
O864 O 0.0028 0.55825 0.01477 0.0
H865 H 0.96353 0.53625 0.94999 0.0
H866 H 0.06247 0.49626 0.04313 0.0
H867 H 0.01792 0.58737 0.97735 0.0
O868 O 0.05602 0.51456 0.0011 0.0
O869 O 0.04031 0.54438 0.98024 0.0
H870 H 0.00204 0.45254 0.01612 0.0
O871 O 0.00351 0.50821 0.95914 0.0
O872 O 0.01932 0.47902 0.98056 0.0
O873 O 0.96697 0.52244 -0.00702 0.0
O874 O 0.98338 0.49462 0.01551 0.0
C875 C 0.01185 0.48636 0.96126 0.0
H876 H 0.07581 0.46041 0.06662 0.0
H877 H 0.01334 0.41674 0.03955 0.0
H878 H 0.95072 0.56714 0.92141 0.0
H879 H 0.0065 0.61917 0.94926 0.0
H880 H 0.03788 0.1543 0.04696 0.0
H881 H 0.95491 0.04369 0.09164 0.0
H882 H 0.00662 0.15535 0.11209 0.0
H883 H 0.9784 0.0486 0.02378 0.0
H884 H 0.96563 0.08853 0.09694 0.0
H885 H 0.00976 0.11948 0.03582 0.0
C886 C 0.02499 0.14733 0.05886 0.0
C887 C 0.02496 0.1574 0.08063 0.0
C888 C 0.96766 0.08003 0.08062 0.0
C889 C 0.99272 0.11746 0.06806 0.0
C890 C 0.9612 0.05455 0.07754 0.0
C891 C 0.96595 0.04266 0.05732 0.0
C892 C 0.97916 0.09329 0.0634 0.0
C893 C 0.9746 0.05726 0.03966 0.0
C894 C 0.0088 0.12753 0.05246 0.0
C895 C 0.00755 0.1479 0.09523 0.0
N896 N 0.98143 0.08171 0.04325 0.0
N897 N 0.99241 0.12819 0.08881 0.0
H898 H 0.09921 0.77978 0.36595 0.0
H899 H 0.1787 0.73934 0.26335 0.0
H900 H 0.07088 0.72967 0.31305 0.0
H901 H 0.20895 0.77336 0.32493 0.0
H902 H 0.13824 0.73852 0.27922 0.0
H903 H 0.13866 0.78108 0.34881 0.0
C904 C 0.10122 0.76915 0.35065 0.0
C905 C 0.08166 0.75452 0.34099 0.0
C906 C 0.15379 0.7461 0.28922 0.0
C907 C 0.12697 0.75591 0.32122 0.0
C908 C 0.17687 0.74658 0.28018 0.0
C909 C 0.1973 0.75639 0.29282 0.0
C910 C 0.1511 0.75576 0.31094 0.0
C911 C 0.1938 0.76554 0.31455 0.0
C912 C 0.12382 0.76982 0.34091 0.0
C913 C 0.08545 0.74113 0.32114 0.0
N914 N 0.17121 0.76509 0.32284 0.0
N915 N 0.10765 0.74215 0.3119 0.0
H916 H 0.5771 0.78097 0.66787 0.0
H917 H 0.51389 0.87443 0.57968 0.0
H918 H 0.50058 0.77668 0.64753 0.0
H919 H 0.59127 0.87619 0.59625 0.0
H920 H 0.50851 0.83998 0.60598 0.0
H921 H 0.5822 0.81799 0.64415 0.0
C922 C 0.56129 0.78798 0.65865 0.0
C923 C 0.53839 0.77557 0.65957 0.0
C924 C 0.52669 0.84782 0.60385 0.0
C925 C 0.5442 0.81778 0.6322 0.0
C926 C 0.52984 0.86735 0.58862 0.0
C927 C 0.55314 0.87807 0.58551 0.0
C928 C 0.54696 0.83888 0.6162 0.0
C929 C 0.57298 0.86856 0.59814 0.0
C930 C 0.56426 0.80905 0.64501 0.0
C931 C 0.51859 0.78555 0.64726 0.0
N932 N 0.56944 0.84947 0.61291 0.0
N933 N 0.52199 0.80595 0.63398 0.0
H934 H 0.42173 0.20545 0.87874 0.0
H935 H 0.35234 0.26721 0.77247 0.0
H936 H 0.45863 0.25634 0.83432 0.0
H937 H 0.31747 0.22825 0.82643 0.0
H938 H 0.39217 0.26014 0.79158 0.0
H939 H 0.38447 0.20883 0.85551 0.0
C940 C 0.42205 0.21713 0.86387 0.0
C941 C 0.44324 0.23086 0.85859 0.0
C942 C 0.37575 0.2532 0.79915 0.0
C943 C 0.40029 0.23524 0.832 0.0
C944 C 0.35303 0.25729 0.78833 0.0
C945 C 0.33151 0.2484 0.7979 0.0
C946 C 0.37686 0.23992 0.81952 0.0
C947 C 0.33349 0.23556 0.81842 0.0
C948 C 0.40069 0.21918 0.85065 0.0
C949 C 0.44265 0.24546 0.83897 0.0
N950 N 0.3557 0.23169 0.82845 0.0
N951 N 0.42136 0.24754 0.82647 0.0
H952 H 0.04219 0.83936 0.41416 0.0
H953 H 0.0081 0.91958 0.52176 0.0
H954 H -0.00263 0.81072 0.46659 0.0
H955 H 0.04191 0.95219 0.46416 0.0
H956 H 0.00746 0.87845 0.50328 0.0
H957 H 0.04636 0.87984 0.43411 0.0
C958 C 0.03347 0.84149 0.42995 0.0
C959 C 0.01927 0.82172 0.43862 0.0
C960 C 0.01501 0.89463 0.49469 0.0
C961 C 0.02383 0.86781 0.46141 0.0
C962 C 0.01533 0.91811 0.50522 0.0
C963 C 0.02495 0.93938 0.49447 0.0
C964 C 0.02449 0.89236 0.47329 0.0
C965 C 0.03419 0.93633 0.47305 0.0
C966 C 0.03572 0.86461 0.44125 0.0
C967 C 0.00831 0.82552 0.45913 0.0
N968 N 0.03375 0.91327 0.46319 0.0
N969 N 0.01076 0.8481 0.46977 0.0
H970 H 0.49541 0.64138 0.73556 0.0
H971 H 0.40181 0.73332 0.78728 0.0
H972 H 0.51336 0.71992 0.74835 0.0
H973 H 0.38166 0.67838 0.73538 0.0
H974 H 0.44403 0.72082 0.78616 0.0
H975 H 0.45517 0.64715 0.75017 0.0
C976 C 0.49127 0.65961 0.74222 0.0
C977 C 0.50759 0.68035 0.74041 0.0
C978 C 0.43017 0.71133 0.77533 0.0
C979 C 0.46178 0.68687 0.75711 0.0
C980 C 0.40609 0.71862 0.77567 0.0
C981 C 0.38802 0.70744 0.76089 0.0
C982 C 0.43617 0.69225 0.76062 0.0
C983 C 0.39474 0.68764 0.74707 0.0
C984 C 0.46824 0.66288 0.75035 0.0
C985 C 0.50117 0.70355 0.7492 0.0
N986 N 0.41832 0.68079 0.74718 0.0
N987 N 0.47858 0.70629 0.75696 0.0
H988 H 0.5317 0.15838 0.90558 0.0
H989 H 0.53871 0.08028 0.02035 0.0
H990 H 0.52726 0.19079 0.97163 0.0
H991 H 0.51897 0.04677 0.95558 0.0
H992 H 0.54594 0.12063 0.00188 0.0
H993 H 0.5388 0.11724 0.92307 0.0
C994 C 0.53298 0.15696 0.92374 0.0
C995 C 0.52871 0.17782 0.93724 0.0
C996 C 0.54028 0.10437 -0.0083 0.0
C997 C 0.53661 0.13121 0.95722 0.0
C998 C 0.53614 0.08132 0.00222 0.0
C999 C 0.52782 0.06021 0.98953 0.0
C1000 C 0.5362 0.10631 0.9683 0.0
C1001 C 0.52502 0.06266 0.96606 0.0
C1002 C 0.53678 0.13352 0.93369 0.0
C1003 C 0.53026 0.17504 0.96067 0.0
N1004 N 0.529 0.08536 0.9562 0.0
N1005 N 0.53389 0.15213 0.96992 0.0
H1006 H 0.11594 0.19418 0.1765 0.0
H1007 H 0.25457 0.24466 0.1907 0.0
H1008 H 0.16136 0.20737 0.12026 0.0
H1009 H 0.20601 0.23541 0.2452 0.0
H1010 H 0.22221 0.22752 0.16467 0.0
H1011 H 0.15093 0.20375 0.2021 0.0
C1012 C 0.1334 0.19865 0.16952 0.0
C1013 C 0.13565 0.20033 0.14621 0.0
C1014 C 0.2187 0.22927 0.18233 0.0
C1015 C 0.17573 0.21191 0.17546 0.0
C1016 C 0.23707 0.23923 0.19716 0.0
C1017 C 0.23293 0.24165 0.22014 0.0
C1018 C 0.1961 0.22165 0.19059 0.0
C1019 C 0.21001 0.23405 0.22762 0.0
C1020 C 0.15337 0.20429 0.18416 0.0
C1021 C 0.15878 0.20598 0.13813 0.0
N1022 N 0.19251 0.22441 0.2129 0.0
N1023 N 0.17789 0.21197 0.15276 0.0
H1024 H 0.07066 0.05404 0.19811 0.0
H1025 H 0.02748 0.93791 0.12195 0.0
H1026 H 0.10682 0.9833 0.2004 0.0
H1027 H 0.98374 0.00242 0.13062 0.0
H1028 H 0.05373 0.95144 0.15435 0.0
H1029 H 0.03682 0.03398 0.17604 0.0
C1030 C 0.07153 0.03427 0.19394 0.0
C1031 C 0.09181 0.02041 0.20086 0.0
C1032 C 0.03797 0.96228 0.14969 0.0
C1033 C 0.0529 -0.00275 0.1757 0.0
C1034 C 0.02282 0.95434 0.1314 0.0
C1035 C 0.00336 0.96895 0.12395 0.0
C1036 C 0.03397 0.98537 0.1601 0.0
C1037 C -0.00162 0.99047 0.13621 0.0
C1038 C 0.05205 0.02277 0.18152 0.0
C1039 C 0.09169 0.99478 0.19523 0.0
N1040 N 0.01394 -0.00162 0.15345 0.0
N1041 N 0.07265 0.98408 0.18278 0.0
H1042 H 0.2572 0.83731 0.4964 0.0
H1043 H 0.30002 0.84887 0.37295 0.0
H1044 H 0.32375 0.87965 0.48502 0.0
H1045 H 0.28727 0.77569 0.40265 0.0
H1046 H 0.29862 0.86782 0.41028 0.0
H1047 H 0.25612 0.82253 0.45709 0.0
C1048 C 0.27113 0.84402 0.4854 0.0
C1049 C 0.29055 0.85965 0.49365 0.0
C1050 C 0.29602 0.84763 0.40835 0.0
C1051 C 0.28932 0.84324 0.44929 0.0
C1052 C 0.29714 0.83666 0.38714 0.0
C1053 C 0.29372 0.81045 0.38436 0.0
C1054 C 0.29071 0.83246 0.42674 0.0
C1055 C 0.28936 0.79594 0.40359 0.0
C1056 C 0.27063 0.83546 0.46321 0.0
C1057 C 0.30849 0.86758 0.47904 0.0
N1058 N 0.2877 0.80718 0.42391 0.0
N1059 N 0.30745 0.85932 0.45741 0.0
H1060 H 0.43575 0.04016 0.66876 0.0
H1061 H 0.51756 0.05722 0.58574 0.0
H1062 H 0.48776 0.99059 0.69987 0.0
H1063 H 0.54555 0.98747 0.61116 0.0
H1064 H 0.49776 0.06327 0.62101 0.0
H1065 H 0.46524 0.05138 0.6407 0.0
C1066 C 0.45364 0.03225 0.67006 0.0
C1067 C 0.45915 0.01405 0.68631 0.0
C1068 C 0.50829 0.0467 0.61896 0.0
C1069 C 0.49319 0.0269 0.65455 0.0
C1070 C 0.51993 0.04338 0.5989 0.0
C1071 C 0.53267 0.0214 0.59524 0.0
C1072 C 0.50933 0.02783 0.63536 0.0
C1073 C 0.53552 0.00443 0.61305 0.0
C1074 C 0.47062 0.03872 0.65408 0.0
C1075 C 0.48257 0.0043 0.68728 0.0
N1076 N 0.52359 0.00781 0.6322 0.0
N1077 N 0.49852 0.01049 0.67138 0.0
H1078 H 0.20628 0.18605 0.98807 0.0
H1079 H 0.1882 0.19679 0.87255 0.0
H1080 H 0.2663 0.13923 0.97383 0.0
H1081 H 0.26473 0.18178 0.87329 0.0
H1082 H 0.18678 0.18075 0.91118 0.0
H1083 H 0.19776 0.19106 0.94785 0.0
C1084 C 0.21747 0.17654 0.97647 0.0
C1085 C 0.23722 0.16245 0.98431 0.0
C1086 C 0.20385 0.18091 0.90287 0.0
C1087 C 0.22721 0.1676 0.93822 0.0
C1088 C 0.20454 0.18972 0.88082 0.0
C1089 C 0.22667 0.19078 0.87015 0.0
C1090 C 0.2255 0.17329 0.91402 0.0
C1091 C 0.24743 0.18144 0.88126 0.0
C1092 C 0.21236 0.17912 0.95346 0.0
C1093 C 0.25101 0.15043 0.96853 0.0
N1094 N 0.24639 0.17321 0.9027 0.0
N1095 N 0.24596 0.15362 0.94621 0.0
H1096 H 0.10528 0.08561 0.303 0.0
H1097 H 0.11761 0.03204 0.42778 0.0
H1098 H 0.15135 0.024 0.32099 0.0
H1099 H 0.05277 0.0666 0.40075 0.0
H1100 H 0.13547 0.03616 0.39093 0.0
H1101 H 0.09117 0.08594 0.34126 0.0
C1102 C 0.1126 0.07229 0.31505 0.0
C1103 C 0.1294 0.05461 0.30877 0.0
C1104 C 0.11741 0.04297 0.39316 0.0
C1105 C 0.11341 0.05507 0.35253 0.0
C1106 C 0.10731 0.0408 0.41413 0.0
C1107 C 0.08371 0.04897 0.41716 0.0
C1108 C 0.10392 0.05375 0.37528 0.0
C1109 C 0.07096 0.05994 0.39897 0.0
C1110 C 0.10445 0.07245 0.33682 0.0
C1111 C 0.13823 0.0378 0.32508 0.0
N1112 N 0.08126 0.06206 0.37876 0.0
N1113 N 0.13013 0.03844 0.34628 0.0
H1114 H 0.29105 0.78726 0.59509 0.0
H1115 H 0.21384 0.77829 0.70413 0.0
H1116 H 0.24312 0.84454 0.61595 0.0
H1117 H 0.27159 0.72886 0.68924 0.0
H1118 H 0.21497 0.79504 0.66606 0.0
H1119 H 0.27533 0.75935 0.62372 0.0
C1120 C 0.27706 0.79394 0.60558 0.0
C1121 C 0.26879 0.81853 0.60346 0.0
C1122 C 0.22697 0.78009 0.67096 0.0
C1123 C 0.25068 0.7865 0.63632 0.0
C1124 C 0.2262 0.77031 0.69265 0.0
C1125 C 0.24316 0.75263 0.7001 0.0
C1126 C 0.24473 0.77203 0.65668 0.0
C1127 C 0.25855 0.74287 0.68438 0.0
C1128 C 0.26802 0.7779 0.62188 0.0
C1129 C 0.25029 0.82589 0.61723 0.0
N1130 N 0.25933 0.75308 0.66355 0.0
N1131 N 0.2421 0.81005 0.63333 0.0
H1132 H 0.40023 0.01037 0.80186 0.0
H1133 H 0.48005 0.93852 0.89455 0.0
H1134 H 0.43647 0.94137 0.78922 0.0
H1135 H 0.42597 0.99073 0.91254 0.0
H1136 H 0.46514 0.94083 0.85531 0.0
H1137 H 0.41037 0.00539 0.84226 0.0
C1138 C 0.41023 0.99421 0.80755 0.0
C1139 C 0.41764 0.97637 0.79213 0.0
C1140 C 0.45632 0.9516 0.86784 0.0
C1141 C 0.42925 0.97062 0.838 0.0
C1142 C 0.46484 0.95026 0.89017 0.0
C1143 C 0.45415 0.96441 0.90664 0.0
C1144 C 0.43725 0.96756 0.86187 0.0
C1145 C 0.4345 0.97938 0.90024 0.0
C1146 C 0.41589 0.99132 0.83056 0.0
C1147 C 0.43043 0.95569 0.80042 0.0
N1148 N 0.42681 0.98082 0.87823 0.0
N1149 N 0.43595 0.95351 0.82271 0.0
H1150 H 0.33394 0.16674 0.08885 0.0
H1151 H 0.35793 0.29465 0.15472 0.0
H1152 H 0.29682 0.23579 0.07612 0.0
H1153 H 0.37129 0.22067 0.18131 0.0
H1154 H 0.35396 0.27648 0.11693 0.0
H1155 H 0.36413 0.18997 0.11322 0.0
C1156 C 0.33246 0.18688 0.09076 0.0
C1157 C 0.31243 0.19927 0.08111 0.0
C1158 C 0.35864 0.26446 0.13104 0.0
C1159 C 0.34698 0.22584 0.10856 0.0
C1160 C 0.36083 0.27477 0.15264 0.0
C1161 C 0.36346 0.25896 0.17142 0.0
C1162 C 0.35938 0.2383 0.12834 0.0
C1163 C 0.36843 0.23362 0.16753 0.0
C1164 C 0.34974 0.2001 0.10457 0.0
C1165 C 0.31159 0.2254 0.08384 0.0
N1166 N 0.36548 0.22391 0.14646 0.0
N1167 N 0.3284 0.23777 0.09762 0.0
H1168 H 0.18374 0.13444 0.09219 0.0
H1169 H 0.1304 -0.00312 0.05976 0.0
H1170 H 0.22813 0.07423 0.07094 0.0
H1171 H 0.08671 0.06163 0.06861 0.0
H1172 H 0.16687 0.02239 0.07138 0.0
H1173 H 0.14887 0.10489 0.09268 0.0
C1174 C 0.18634 0.11489 0.08814 0.0
C1175 C 0.20878 0.10695 0.08095 0.0
C1176 C 0.14927 0.03095 0.07087 0.0
C1177 C 0.16879 0.07315 0.0811 0.0
C1178 C 0.1285 0.01643 0.06422 0.0
C1179 C 0.10559 0.0273 0.06286 0.0
C1180 C 0.14705 0.05643 0.07638 0.0
C1181 C 0.1041 0.05268 0.06889 0.0
C1182 C 0.16634 0.09806 0.08825 0.0
C1183 C 0.21108 0.08129 0.07621 0.0
N1184 N 0.12455 0.06639 0.0753 0.0
N1185 N 0.19119 0.06538 0.07596 0.0
H1186 H 0.69327 0.42455 0.06026 0.0
H1187 H 0.60051 0.50477 0.98376 0.0
H1188 H 0.71243 0.46066 -0.0016 0.0
H1189 H 0.58137 0.46839 0.04551 0.0
H1190 H 0.642 0.49011 0.98952 0.0
H1191 H 0.65266 0.4417 0.05582 0.0
C1192 C 0.68898 0.43614 0.04576 0.0
C1193 C 0.70632 0.44108 0.02964 0.0
C1194 C 0.62875 0.48539 0.00185 0.0
C1195 C 0.65972 0.46078 0.02443 0.0
C1196 C 0.60503 0.49379 -0.00141 0.0
C1197 C 0.58735 0.48776 0.01414 0.0
C1198 C 0.6349 0.47082 0.02081 0.0
C1199 C 0.59434 0.47347 0.03303 0.0
C1200 C 0.66575 0.44593 0.04324 0.0
C1201 C 0.69968 0.45628 0.01124 0.0
N1202 N 0.61751 0.46544 0.03579 0.0
N1203 N 0.67692 0.46551 0.00911 0.0
H1204 H 0.89151 0.43007 0.19351 0.0
H1205 H 0.79297 0.37213 0.27509 0.0
H1206 H 0.85121 0.47758 0.23605 0.0
H1207 H 0.85252 0.3318 0.24934 0.0
H1208 H 0.80881 0.41061 0.25723 0.0
H1209 H 0.87026 0.39332 0.20838 0.0
C1210 C 0.87779 0.43283 0.20566 0.0
C1211 C 0.87337 0.45696 0.21373 0.0
C1212 C 0.81837 0.39331 0.25564 0.0
C1213 C 0.84924 0.41473 0.23124 0.0
C1214 C 0.80947 0.37139 0.26592 0.0
C1215 C 0.82148 0.34867 0.26382 0.0
C1216 C 0.83914 0.39231 0.24287 0.0
C1217 C 0.84267 0.34881 0.25157 0.0
C1218 C 0.86583 0.41178 0.21432 0.0
C1219 C 0.85521 0.45933 0.22937 0.0
N1220 N 0.85066 0.37017 0.24147 0.0
N1221 N 0.84399 0.4384 0.23786 0.0
H1222 H 0.85912 0.60962 0.55589 0.0
H1223 H 0.94413 0.53362 0.47695 0.0
H1224 H 0.85366 0.61336 0.48338 0.0
H1225 H 0.95851 0.54646 0.54808 0.0
H1226 H 0.9053 0.55449 0.47936 0.0
H1227 H 0.889 0.57715 0.55341 0.0
C1228 C 0.86389 0.60329 0.53941 0.0
C1229 C 0.85431 0.61461 0.51981 0.0
C1230 C 0.91689 0.55249 0.49444 0.0
C1231 C 0.88875 0.57767 0.51689 0.0
C1232 C 0.93903 0.54064 0.49309 0.0
C1233 C 0.9547 0.53869 0.51229 0.0
C1234 C 0.91037 0.56218 0.51517 0.0
C1235 C 0.94715 0.54792 0.5328 0.0
C1236 C 0.88103 0.58481 0.53802 0.0
C1237 C 0.86084 0.60536 0.49893 0.0
N1238 N 0.92558 0.55937 0.53367 0.0
N1239 N 0.87802 0.58768 0.498 0.0
H1240 H 0.20518 0.10655 0.20247 0.0
H1241 H 0.30366 0.18461 0.22533 0.0
H1242 H 0.22936 0.06189 0.25906 0.0
H1243 H 0.28238 0.16716 0.29251 0.0
H1244 H 0.28567 0.14408 0.21234 0.0
H1245 H 0.24183 0.13366 0.20805 0.0
C1246 C 0.21865 0.10198 0.21558 0.0
C1247 C 0.21426 0.08211 0.23039 0.0
C1248 C 0.28559 0.14889 0.23003 0.0
C1249 C 0.25587 0.11322 0.23719 0.0
C1250 C 0.29606 0.17188 0.23754 0.0
C1251 C 0.29395 0.17948 0.25996 0.0
C1252 C 0.27325 0.13345 0.24512 0.0
C1253 C 0.28395 0.16219 0.275 0.0
C1254 C 0.23963 0.11735 0.2187 0.0
C1255 C 0.23215 0.07704 0.24725 0.0
N1256 N 0.27358 0.14009 0.26723 0.0
N1257 N 0.25182 0.09306 0.25069 0.0
H1258 H 0.37228 0.90748 0.60377 0.0
H1259 H 0.47902 0.93806 0.55661 0.0
H1260 H 0.33867 0.94557 0.54714 0.0
H1261 H 0.44536 0.00418 0.52929 0.0
H1262 H 0.44023 0.92423 0.57093 0.0
H1263 H 0.4109 0.92943 0.59683 0.0
C1264 C 0.37293 0.92097 0.59019 0.0
C1265 C 0.35239 0.92447 0.57581 0.0
C1266 C 0.44132 0.94202 0.5622 0.0
C1267 C 0.39684 0.94844 0.56687 0.0
C1268 C 0.46345 0.94974 0.55363 0.0
C1269 C 0.46552 0.97237 0.54173 0.0
C1270 C 0.42089 0.95695 0.55889 0.0
C1271 C 0.44458 0.98661 0.5384 0.0
C1272 C 0.39508 0.93312 0.58595 0.0
C1273 C 0.35415 0.94231 0.55857 0.0
N1274 N 0.42304 0.97856 0.54679 0.0
N1275 N 0.37619 0.95331 0.55426 0.0
H1276 H 0.86863 0.60313 0.20156 0.0
H1277 H 0.79842 0.69848 0.27783 0.0
H1278 H 0.85228 0.58895 0.27067 0.0
H1279 H 0.8191 0.71582 0.21042 0.0
H1280 H 0.81554 0.65708 0.27438 0.0
H1281 H 0.8481 0.64306 0.20341 0.0
C1282 C 0.86061 0.60831 0.2171 0.0
C1283 C 0.8623 0.59263 0.23603 0.0
C1284 C 0.81629 0.66987 0.26029 0.0
C1285 C 0.83877 0.63847 0.23825 0.0
C1286 C 0.80647 0.69356 0.26223 0.0
C1287 C 0.80738 0.71077 0.2444 0.0
C1288 C 0.82716 0.66317 0.24038 0.0
C1289 C 0.81803 0.70322 0.22461 0.0
C1290 C 0.84892 0.63117 0.21814 0.0
C1291 C 0.85152 0.6004 0.25567 0.0
N1292 N 0.82757 0.68002 0.22316 0.0
N1293 N 0.84031 0.62276 0.25628 0.0
H1294 H 0.66063 0.41218 0.70985 0.0
H1295 H 0.75439 0.33314 0.78648 0.0
H1296 H 0.69696 0.43967 0.77147 0.0
H1297 H 0.71691 0.30286 0.72643 0.0
H1298 H 0.7348 0.37299 0.77986 0.0
H1299 H 0.68198 0.37264 0.71444 0.0
C1300 C 0.67308 0.40994 0.72433 0.0
C1301 C 0.67693 0.42931 0.74033 0.0
C1302 C 0.73088 0.3577 0.76805 0.0
C1303 C 0.70148 0.38414 0.74563 0.0
C1304 C 0.74214 0.33489 0.7718 0.0
C1305 C 0.73728 0.31452 0.75703 0.0
C1306 C 0.71451 0.36032 0.74939 0.0
C1307 C 0.72121 0.31803 0.73828 0.0
C1308 C 0.68528 0.38736 0.72692 0.0
C1309 C 0.69332 0.42532 0.75871 0.0
N1310 N 0.71033 0.34044 0.73505 0.0
N1311 N 0.70492 0.40326 0.76084 0.0
H1312 H 0.9649 0.78561 -0.00413 0.0
H1313 H 0.04341 0.90094 0.03885 0.0
H1314 H 0.02466 0.82138 0.96226 0.0
H1315 H 0.97292 0.87665 0.06132 0.0
H1316 H 0.04877 0.85881 0.02406 0.0
H1317 H 0.98096 0.80396 0.03132 0.0
C1318 C 0.98179 0.79675 -0.00398 0.0
C1319 C 0.99269 0.80328 0.9759 0.0
C1320 C 0.03247 0.86249 0.03287 0.0
C1321 C 0.01087 0.8244 0.01626 0.0
C1322 C 0.02932 0.88658 0.04121 0.0
C1323 C 0.00711 0.89255 0.05022 0.0
C1324 C 0.01316 0.84456 0.03336 0.0
C1325 C 0.98989 0.87306 0.05358 0.0
C1326 C 0.991 0.80712 0.01631 0.0
C1327 C 0.01504 0.81684 0.97724 0.0
N1328 N 0.99299 0.85004 0.04459 0.0
N1329 N 0.02303 0.82768 -0.00298 0.0
H1330 H 0.93178 0.24007 0.6691 0.0
H1331 H 0.85057 0.27949 0.77088 0.0
H1332 H 0.95397 0.29839 0.71709 0.0
H1333 H 0.82217 0.23519 0.71403 0.0
H1334 H 0.8897 0.28403 0.7531 0.0
H1335 H 0.89285 0.23509 0.68721 0.0
C1336 C 0.92856 0.25173 0.68352 0.0
C1337 C 0.94624 0.26971 0.69154 0.0
C1338 C 0.87489 0.27337 0.74449 0.0
C1339 C 0.9016 0.26409 0.71238 0.0
C1340 C 0.85252 0.27076 0.75464 0.0
C1341 C 0.83297 0.25697 0.74394 0.0
C1342 C 0.87792 0.2619 0.72356 0.0
C1343 C 0.83666 0.24607 0.72289 0.0
C1344 C 0.90626 0.24895 0.69379 0.0
C1345 C 0.94092 0.28433 0.71026 0.0
N1346 N 0.85868 0.24867 0.71346 0.0
N1347 N 0.91915 0.28117 0.72004 0.0
H1348 H 0.52291 0.23846 0.43122 0.0
H1349 H 0.50243 0.1378 0.52757 0.0
H1350 H 0.49377 0.25784 0.49485 0.0
H1351 H 0.50916 0.11773 0.45797 0.0
H1352 H 0.50149 0.18216 0.51689 0.0
H1353 H 0.52162 0.19436 0.44209 0.0
C1354 C 0.51646 0.2335 0.44759 0.0
C1355 C 0.50839 0.25189 0.46216 0.0
C1356 C 0.50291 0.16804 0.50393 0.0
C1357 C 0.50669 0.20136 0.47456 0.0
C1358 C 0.50342 0.1428 0.51 0.0
C1359 C 0.50591 0.12425 0.49358 0.0
C1360 C 0.50529 0.17471 0.48134 0.0
C1361 C 0.50705 0.13153 0.47106 0.0
C1362 C 0.51552 0.20826 0.45367 0.0
C1363 C 0.50013 0.24428 0.4831 0.0
N1364 N 0.507 0.15629 0.46561 0.0
N1365 N 0.49951 0.21954 0.4887 0.0
H1366 H 0.59347 0.77069 0.16634 0.0
H1367 H 0.69908 0.74639 0.2606 0.0
H1368 H 0.58485 0.72288 0.22409 0.0
H1369 H 0.71286 0.78393 0.19806 0.0
H1370 H 0.65648 0.73994 0.2481 0.0
H1371 H 0.6364 0.77864 0.17855 0.0
C1372 C 0.60051 0.76205 0.18166 0.0
C1373 C 0.5855 0.74604 0.19417 0.0
C1374 C 0.66878 0.74953 0.23703 0.0
C1375 C 0.63454 0.75494 0.20814 0.0
C1376 C 0.69318 0.7532 0.24417 0.0
C1377 C 0.70964 0.76569 0.23036 0.0
C1378 C 0.66056 0.75854 0.21594 0.0
C1379 C 0.70084 0.77409 0.20922 0.0
C1380 C 0.62504 0.76647 0.18854 0.0
C1381 C 0.59568 0.73527 0.21382 0.0
N1382 N 0.67687 0.77046 0.20268 0.0
N1383 N 0.61947 0.7399 0.22015 0.0
H1384 H 0.00209 0.18397 0.62671 0.0
H1385 H 0.05324 0.10389 0.5263 0.0
H1386 H 0.04569 0.21549 0.57461 0.0
H1387 H 0.02313 0.06986 0.5851 0.0
H1388 H 0.04819 0.14531 0.5428 0.0
H1389 H 0.00628 0.14203 0.61022 0.0
C1390 C 0.01231 0.18209 0.61173 0.0
C1391 C 0.02367 0.20317 0.6021 0.0
C1392 C 0.04281 0.12877 0.55215 0.0
C1393 C 0.02863 0.15558 0.58331 0.0
C1394 C 0.04578 0.10512 0.54276 0.0
C1395 C 0.03865 0.08341 0.55434 0.0
C1396 C 0.03245 0.13072 0.57318 0.0
C1397 C 0.02897 0.08612 0.5756 0.0
C1398 C 0.01485 0.15821 0.60244 0.0
C1399 C 0.0368 0.19973 0.58274 0.0
N1400 N 0.02602 0.10937 0.58429 0.0
N1401 N 0.03893 0.17643 0.57403 0.0
H1402 H 0.56003 0.28335 0.36405 0.0
H1403 H 0.67451 0.35433 0.31307 0.0
H1404 H 0.5656 0.36407 0.35715 0.0
H1405 H 0.6605 0.2741 0.30845 0.0
H1406 H 0.63427 0.35875 0.32839 0.0
H1407 H 0.59615 0.2798 0.34223 0.0
C1408 C 0.56872 0.30031 0.35772 0.0
C1409 C 0.55996 0.32403 0.36256 0.0
C1410 C 0.63994 0.34023 0.32378 0.0
C1411 C 0.60149 0.32018 0.33785 0.0
C1412 C 0.66292 0.3377 0.31519 0.0
C1413 C 0.67081 0.31384 0.30949 0.0
C1414 C 0.62497 0.31869 0.32691 0.0
C1415 C 0.65504 0.2929 0.31237 0.0
C1416 C 0.58934 0.29829 0.34526 0.0
C1417 C 0.5718 0.3454 0.35383 0.0
N1418 N 0.63296 0.2958 0.32102 0.0
N1419 N 0.5922 0.34299 0.34212 0.0
H1420 H 0.51976 0.82465 0.1304 0.0
H1421 H 0.47595 0.90106 0.0215 0.0
H1422 H 0.47447 0.79 0.07683 0.0
H1423 H 0.5032 0.93569 0.08386 0.0
H1424 H 0.47611 0.85993 0.04016 0.0
H1425 H 0.51575 0.86518 0.11194 0.0
C1426 C 0.50902 0.82553 0.11469 0.0
C1427 C 0.49744 0.80385 0.10515 0.0
C1428 C 0.48181 0.87662 0.04974 0.0
C1429 C 0.49272 0.85041 0.08386 0.0
C1430 C 0.48166 0.90009 0.03914 0.0
C1431 C 0.4897 0.92188 0.05108 0.0
C1432 C 0.4903 0.87497 0.07233 0.0
C1433 C 0.49696 0.91946 0.0739 0.0
C1434 C 0.50662 0.84875 0.10421 0.0
C1435 C 0.48368 0.80624 0.08479 0.0
N1436 N 0.49729 0.89647 0.08367 0.0
N1437 N 0.48178 0.82911 0.07475 0.0
H1438 H 0.89048 0.81805 0.90492 0.0
H1439 H 0.88047 0.72183 0.80154 0.0
H1440 H 0.94425 0.81315 0.85469 0.0
H1441 H 0.81984 0.73813 0.84207 0.0
H1442 H 0.9068 0.74914 0.82592 0.0
H1443 H 0.86594 0.78503 0.88515 0.0
C1444 C 0.8971 0.81013 0.88968 0.0
C1445 C 0.91986 0.81787 0.88186 0.0
C1446 C 0.88779 0.74647 0.82962 0.0
C1447 C 0.89192 0.77999 0.85929 0.0
C1448 C 0.8728 0.73062 0.8159 0.0
C1449 C 0.84778 0.72814 0.81948 0.0
C1450 C 0.87766 0.75986 0.847 0.0
C1451 C 0.83894 0.7398 0.83847 0.0
C1452 C 0.88315 0.79117 0.87851 0.0
C1453 C 0.92719 0.80734 0.86172 0.0
N1454 N 0.8538 0.75553 0.85132 0.0
N1455 N 0.91338 0.78874 0.85127 0.0
H1456 H 0.89877 0.9897 0.87883 0.0
H1457 H 0.00575 0.97625 0.97411 0.0
H1458 H 0.97408 0.97873 0.8654 0.0
H1459 H 0.92959 0.96796 0.98817 0.0
H1460 H 0.99425 0.98254 0.93451 0.0
H1461 H 0.9096 0.98783 0.91942 0.0
C1462 C 0.9176 0.98732 0.88441 0.0
C1463 C 0.93553 0.98422 0.86874 0.0
C1464 C 0.98002 0.9793 0.94623 0.0
C1465 C 0.94798 0.98195 0.91488 0.0
C1466 C 0.98659 0.97565 0.96887 0.0
C1467 C 0.96863 0.97138 0.9845 0.0
C1468 C 0.95528 0.97888 0.93905 0.0
C1469 C 0.94406 0.97097 0.97667 0.0
C1470 C 0.92372 0.98603 0.90752 0.0
C1471 C 0.95962 0.98099 0.87687 0.0
N1472 N 0.93809 0.97472 0.95449 0.0
N1473 N 0.9651 0.97989 0.89929 0.0
H1474 H 0.78444 0.13604 0.56092 0.0
H1475 H 0.75666 0.15586 0.67264 0.0
H1476 H 0.71986 0.17754 0.54457 0.0
H1477 H 0.71685 0.21843 0.64592 0.0
H1478 H 0.76119 0.1407 0.63429 0.0
H1479 H 0.77938 0.14452 0.60078 0.0
C1480 C 0.76917 0.14684 0.56572 0.0
C1481 C 0.75255 0.15608 0.54939 0.0
C1482 C 0.75163 0.15783 0.63678 0.0
C1483 C 0.74622 0.16525 0.59493 0.0
C1484 C 0.74863 0.16622 0.65867 0.0
C1485 C 0.73654 0.18853 0.66237 0.0
C1486 C 0.74245 0.17194 0.61854 0.0
C1487 C 0.72659 0.20133 0.64374 0.0
C1488 C 0.76607 0.15137 0.58852 0.0
C1489 C 0.7331 0.16998 0.55655 0.0
N1490 N 0.72982 0.19287 0.62262 0.0
N1491 N 0.73058 0.17425 0.57875 0.0
H1492 H 0.56126 0.02667 0.35254 0.0
H1493 H 0.57369 0.95327 0.46841 0.0
H1494 H 0.62546 0.98673 0.37324 0.0
H1495 H 0.51242 -0.00282 0.44688 0.0
H1496 H 0.58926 0.95695 0.43062 0.0
H1497 H 0.54005 0.00821 0.38364 0.0
C1498 C 0.57089 0.01387 0.36363 0.0
C1499 C 0.59534 0.00862 0.36056 0.0
C1500 C 0.5721 0.96524 0.43403 0.0
C1501 C 0.57107 0.98745 0.39658 0.0
C1502 C 0.56306 0.96291 0.45553 0.0
C1503 C 0.54186 0.9752 0.46083 0.0
C1504 C 0.55977 0.97986 0.41781 0.0
C1505 C 0.52896 0.98765 0.44357 0.0
C1506 C 0.5587 0.00323 0.38139 0.0
C1507 C 0.60668 0.99145 0.37517 0.0
N1508 N 0.53829 0.98995 0.42297 0.0
N1509 N 0.59457 0.98179 0.39283 0.0
H1510 H 0.74449 0.74185 0.05058 0.0
H1511 H 0.76361 0.84358 0.14225 0.0
H1512 H 0.69437 0.80199 0.05649 0.0
H1513 H 0.81966 0.79463 0.1227 0.0
H1514 H 0.74262 0.83706 0.10548 0.0
H1515 H 0.77531 0.76663 0.07183 0.0
C1516 C 0.73992 0.76036 0.0563 0.0
C1517 C 0.71668 0.76982 0.05172 0.0
C1518 C 0.76003 0.82854 0.10881 0.0
C1519 C 0.75211 0.7983 0.07678 0.0
C1520 C 0.77217 0.83254 0.12972 0.0
C1521 C 0.79296 0.81902 0.13555 0.0
C1522 C 0.76874 0.81069 0.09405 0.0
C1523 C 0.80335 0.80494 0.11886 0.0
C1524 C 0.75773 0.77469 0.06829 0.0
C1525 C 0.71204 0.79398 0.05964 0.0
N1526 N 0.79074 0.8005 0.09903 0.0
N1527 N 0.7295 0.80726 0.07212 0.0
H1528 H 0.90466 -0.0009 0.7293 0.0
H1529 H 0.01125 0.02751 0.64625 0.0
H1530 H 0.9789 0.01506 0.75327 0.0
H1531 H 0.95429 0.97078 0.63185 0.0
H1532 H 0.99478 0.03435 0.68292 0.0
H1533 H 0.91776 0.00143 0.69046 0.0
C1534 C 0.92353 0.00401 0.72637 0.0
C1535 C 0.94079 0.00691 0.74443 0.0
C1536 C 0.98589 0.02053 0.6716 0.0
C1537 C 0.95574 0.00942 0.70036 0.0
C1538 C 0.99543 0.01628 0.65072 0.0
C1539 C 0.98457 -0.00197 0.63587 0.0
C1540 C 0.96495 0.00695 0.6776 0.0
C1541 C 0.96336 0.98507 0.64251 0.0
C1542 C 0.931 0.00499 0.70427 0.0
C1543 C 0.96509 0.01272 0.73976 0.0
N1544 N 0.95426 0.98977 0.6629 0.0
N1545 N 0.9719 0.01371 0.71814 0.0
H1546 H 0.76366 0.22026 0.44905 0.0
H1547 H 0.83799 0.23958 0.33874 0.0
H1548 H 0.81365 0.16621 0.42602 0.0
H1549 H 0.78167 0.28782 0.35955 0.0
H1550 H 0.83671 0.21781 0.3748 0.0
H1551 H 0.77734 0.24975 0.42087 0.0
C1552 C 0.7777 0.21465 0.43811 0.0
C1553 C 0.78719 0.19053 0.43958 0.0
C1554 C 0.825 0.23349 0.37164 0.0
C1555 C 0.80286 0.22434 0.40695 0.0
C1556 C 0.82583 0.24609 0.35111 0.0
C1557 C 0.80959 0.26533 0.34593 0.0
C1558 C 0.8079 0.24024 0.38712 0.0
C1559 C 0.7943 0.27293 0.36266 0.0
C1560 C 0.78556 0.23158 0.42202 0.0
C1561 C 0.80571 0.18454 0.42529 0.0
N1562 N 0.79359 0.26013 0.38234 0.0
N1563 N 0.81268 0.20121 0.40926 0.0
H1564 H 0.57524 0.06596 0.24865 0.0
H1565 H 0.59209 0.00773 0.12684 0.0
H1566 H 0.62982 0.01208 0.23559 0.0
H1567 H 0.52824 0.0466 0.14482 0.0
H1568 H 0.6088 0.01287 0.16554 0.0
H1569 H 0.56014 0.06238 0.20959 0.0
C1570 C 0.58406 0.05334 0.23757 0.0
C1571 C 0.60379 0.03924 0.24542 0.0
C1572 C 0.59116 0.02031 0.16098 0.0
C1573 C 0.58663 0.03517 0.20059 0.0
C1574 C 0.58173 0.01757 0.1389 0.0
C1575 C 0.55875 0.02674 0.13269 0.0
C1576 C 0.5776 0.03247 0.17687 0.0
C1577 C 0.54591 0.03905 0.14899 0.0
C1578 C 0.57539 0.0513 0.21526 0.0
C1579 C 0.61448 0.0232 0.23027 0.0
N1580 N 0.55553 0.04158 0.17034 0.0
N1581 N 0.60579 0.02165 0.20852 0.0
H1582 H 0.67605 0.80068 0.93347 0.0
H1583 H 0.68426 0.70071 0.83626 0.0
H1584 H 0.67898 0.72028 0.94176 0.0
H1585 H 0.70342 0.77967 0.83053 0.0
H1586 H 0.66391 0.70959 0.87084 0.0
H1587 H 0.66859 0.79436 0.89289 0.0
C1588 C 0.67454 0.78169 0.92682 0.0
C1589 C 0.67891 0.76098 0.94078 0.0
C1590 C 0.67194 0.72508 0.86164 0.0
C1591 C 0.67018 0.75369 0.89471 0.0
C1592 C 0.68353 0.72002 0.84194 0.0
C1593 C 0.69624 0.73938 0.83105 0.0
C1594 C 0.67339 0.74957 0.87054 0.0
C1595 C 0.6942 0.76414 0.83868 0.0
C1596 C 0.67024 0.77812 0.90371 0.0
C1597 C 0.67644 0.73678 0.93142 0.0
N1598 N 0.6836 0.76847 0.85838 0.0
N1599 N 0.6726 0.73382 0.9089 0.0
H1600 H 0.79559 0.78495 0.02204 0.0
H1601 H 0.84042 0.92761 0.04886 0.0
H1602 H 0.74927 0.84873 0.01664 0.0
H1603 H 0.88832 0.86509 0.05347 0.0
H1604 H 0.80659 0.89842 0.03801 0.0
H1605 H 0.8298 0.81349 0.03424 0.0
C1606 C 0.79265 0.80492 0.0232 0.0
C1607 C 0.76954 0.81443 0.01814 0.0
C1608 C 0.82448 0.89104 0.04149 0.0
C1609 C 0.80846 0.84711 0.0323 0.0
C1610 C 0.84383 0.90774 0.04764 0.0
C1611 C 0.86729 0.89886 0.05209 0.0
C1612 C 0.82854 0.86519 0.03964 0.0
C1613 C 0.8705 0.8728 0.0505 0.0
C1614 C 0.81214 0.82119 0.03029 0.0
C1615 C 0.76674 0.84047 0.02027 0.0
N1616 N 0.8514 0.85692 0.04432 0.0
N1617 N 0.7859 0.85582 0.02716 0.0
H1618 H 0.31994 0.56462 0.02358 0.0
H1619 H 0.44533 0.55253 0.96133 0.0
H1620 H 0.33677 0.60574 0.96355 0.0
H1621 H 0.42869 0.51341 0.02243 0.0
H1622 H 0.40471 0.57015 0.96036 0.0
H1623 H 0.3588 0.5439 0.02209 0.0
C1624 C 0.33175 0.56926 0.01003 0.0
C1625 C 0.32503 0.58706 -0.00628 0.0
C1626 C 0.40991 0.55759 0.9739 0.0
C1627 C 0.36974 0.56332 -0.00809 0.0
C1628 C 0.43309 0.54745 0.97442 0.0
C1629 C 0.44054 0.53151 -0.00797 0.0
C1630 C 0.39401 0.55178 -0.00889 0.0
C1631 C 0.42384 0.52565 0.00855 0.0
C1632 C 0.35398 0.5574 0.00919 0.0
C1633 C 0.34116 0.59222 0.97655 0.0
N1634 N 0.40148 0.53585 0.00773 0.0
N1635 N 0.36274 0.58047 0.97614 0.0
H1636 H 0.20543 0.55589 0.80012 0.0
H1637 H 0.20979 0.70464 0.80852 0.0
H1638 H 0.15951 0.59834 0.84181 0.0
H1639 H 0.26599 0.66394 0.77759 0.0
H1640 H 0.19317 0.66524 0.8229 0.0
H1641 H 0.23074 0.59404 0.79473 0.0
C1642 C 0.20107 0.57302 0.80867 0.0
C1643 C 0.18005 0.57404 0.8211 0.0
C1644 C 0.20924 0.66484 0.81311 0.0
C1645 C 0.20856 0.61776 0.81462 0.0
C1646 C 0.21865 0.68737 0.80474 0.0
C1647 C 0.23914 0.68755 0.79159 0.0
C1648 C 0.22011 0.64213 0.80808 0.0
C1649 C 0.25005 0.6646 0.78753 0.0
C1650 C 0.21542 0.59485 0.80544 0.0
C1651 C 0.17528 0.59677 0.83176 0.0
N1652 N 0.24021 0.64274 0.79552 0.0
N1653 N 0.18915 0.61778 0.82796 0.0
H1654 H 0.20139 0.41262 0.5458 0.0
H1655 H 0.08995 0.46311 0.47027 0.0
H1656 H 0.20313 0.41975 0.47366 0.0
H1657 H 0.10049 0.47929 0.54126 0.0
H1658 H 0.12983 0.44384 0.47122 0.0
H1659 H 0.16275 0.43413 0.54462 0.0
C1660 C 0.19372 0.41883 0.52974 0.0
C1661 C 0.20549 0.41439 0.50981 0.0
C1662 C 0.1234 0.45171 0.48655 0.0
C1663 C 0.1612 0.43868 0.50831 0.0
C1664 C 0.10063 0.4626 0.48603 0.0
C1665 C 0.0919 0.4728 0.50571 0.0
C1666 C 0.13732 0.45073 0.50694 0.0
C1667 C 0.10653 0.47171 0.52567 0.0
C1668 C 0.17169 0.43112 0.52908 0.0
C1669 C 0.19472 0.42286 0.48945 0.0
N1670 N 0.12845 0.46074 0.5258 0.0
N1671 N 0.17307 0.43441 0.4892 0.0
H1672 H 0.83843 0.92343 0.79586 0.0
H1673 H 0.84772 0.78865 0.73707 0.0
H1674 H 0.90259 0.89642 0.76597 0.0
H1675 H 0.7892 0.80658 0.77953 0.0
H1676 H 0.864 0.83167 0.74147 0.0
H1677 H 0.81649 0.8839 0.78459 0.0
C1678 C 0.84781 0.90932 0.78681 0.0
C1679 C 0.87245 0.91308 0.78211 0.0
C1680 C 0.84746 0.82628 0.74967 0.0
C1681 C 0.84755 0.86821 0.76901 0.0
C1682 C 0.83809 0.80172 0.74708 0.0
C1683 C 0.81723 0.79388 0.75818 0.0
C1684 C 0.83597 0.84321 0.76349 0.0
C1685 C 0.80545 0.81176 0.77082 0.0
C1686 C 0.83533 0.88681 0.78041 0.0
C1687 C 0.88373 0.89423 0.77027 0.0
N1688 N 0.81513 0.83555 0.77333 0.0
N1689 N 0.87123 0.87267 0.7642 0.0
H1690 H 0.73402 0.05821 0.50048 0.0
H1691 H 0.59144 0.04628 0.48926 0.0
H1692 H 0.69079 0.08647 0.44431 0.0
H1693 H 0.63182 -0.00415 0.53245 0.0
H1694 H 0.62883 0.05959 0.47232 0.0
H1695 H 0.69893 0.03177 0.51093 0.0
C1696 C 0.7175 0.05807 0.48978 0.0
C1697 C 0.71512 0.07492 0.47173 0.0
C1698 C 0.62967 0.04552 0.48542 0.0
C1699 C 0.67492 0.04538 0.48394 0.0
C1700 C 0.60827 0.03811 0.49537 0.0
C1701 C 0.60851 0.02018 0.5126 0.0
C1702 C 0.65181 0.03537 0.49293 0.0
C1703 C 0.63089 0.00993 0.51938 0.0
C1704 C 0.69739 0.04318 0.49593 0.0
C1705 C 0.69327 0.07408 0.45857 0.0
N1706 N 0.6518 0.01795 0.50973 0.0
N1707 N 0.67388 0.06002 0.46521 0.0
H1708 H 0.19366 0.44586 0.77343 0.0
H1709 H 0.23361 0.31233 0.82003 0.0
H1710 H 0.18886 0.42407 0.84291 0.0
H1711 H 0.25319 0.34095 0.75533 0.0
H1712 H 0.21744 0.35323 0.82889 0.0
H1713 H 0.21562 0.40763 0.76644 0.0
C1714 C 0.19734 0.43312 0.78725 0.0
C1715 C 0.18928 0.43815 0.80877 0.0
C1716 C 0.22549 0.35064 0.81284 0.0
C1717 C 0.21428 0.39424 0.80084 0.0
C1718 C 0.23473 0.32728 0.80777 0.0
C1719 C 0.24468 0.32315 0.78686 0.0
C1720 C 0.22591 0.36995 0.79679 0.0
C1721 C 0.24567 0.34326 0.77165 0.0
C1722 C 0.20993 0.41132 0.78326 0.0
C1723 C 0.19467 0.42098 0.82604 0.0
N1724 N 0.23618 0.36568 0.77682 0.0
N1725 N 0.20663 0.39972 0.82166 0.0
H1726 H 0.34605 0.57475 0.25286 0.0
H1727 H 0.29613 0.69292 0.31649 0.0
H1728 H 0.34504 0.58025 0.32517 0.0
H1729 H 0.28192 0.67888 0.24551 0.0
H1730 H 0.31391 0.65158 0.32011 0.0
H1731 H 0.32265 0.61295 0.24972 0.0
C1732 C 0.34083 0.58392 0.26807 0.0
C1733 C 0.34763 0.57436 0.28931 0.0
C1734 C 0.30668 0.65744 0.30378 0.0
C1735 C 0.32095 0.61812 0.28585 0.0
C1736 C 0.29652 0.68104 0.30171 0.0
C1737 C 0.28764 0.68943 0.28065 0.0
C1738 C 0.30825 0.64224 0.28461 0.0
C1739 C 0.28858 0.67321 0.26208 0.0
C1740 C 0.32741 0.60568 0.26627 0.0
C1741 C 0.34026 0.58697 0.30845 0.0
N1742 N 0.29895 0.65051 0.26445 0.0
N1743 N 0.3275 0.60829 0.30626 0.0
H1744 H 0.50354 0.62748 0.6347 0.0
H1745 H 0.53375 0.65588 0.51492 0.0
H1746 H 0.52919 0.70205 0.61686 0.0
H1747 H 0.47579 0.60236 0.5294 0.0
H1748 H 0.52747 0.6773 0.55032 0.0
H1749 H 0.48868 0.62054 0.59581 0.0
C1750 C 0.50572 0.6425 0.62264 0.0
C1751 C 0.51812 0.6651 0.6288 0.0
C1752 C 0.51557 0.66137 0.54541 0.0
C1753 C 0.50142 0.65728 0.58436 0.0
C1754 C 0.51917 0.64912 0.52519 0.0
C1755 C 0.50586 0.62681 0.51966 0.0
C1756 C 0.49903 0.65077 0.56026 0.0
C1757 C 0.48691 0.61914 0.53334 0.0
C1758 C 0.49702 0.63866 0.6005 0.0
C1759 C 0.52006 0.68417 0.61267 0.0
N1760 N 0.48458 0.63062 0.55344 0.0
N1761 N 0.51238 0.6796 0.59099 0.0
H1762 H 0.56938 0.23785 0.83165 0.0
H1763 H 0.71537 0.23534 0.83836 0.0
H1764 H 0.61453 0.24259 0.893 0.0
H1765 H 0.67314 0.2262 0.77566 0.0
H1766 H 0.67789 0.23689 0.85819 0.0
H1767 H 0.60627 0.23317 0.81041 0.0
C1768 C 0.58699 0.23798 0.84065 0.0
C1769 C 0.5888 0.24068 0.86419 0.0
C1770 C 0.67667 0.2344 0.84012 0.0
C1771 C 0.631 0.2352 0.84001 0.0
C1772 C 0.69816 0.23344 0.82872 0.0
C1773 C 0.69748 0.23068 0.80524 0.0
C1774 C 0.65406 0.23278 0.82805 0.0
C1775 C 0.67454 0.22826 0.79377 0.0
C1776 C 0.60802 0.23522 0.82851 0.0
C1777 C 0.61212 0.2406 0.87492 0.0
N1778 N 0.65371 0.22955 0.80527 0.0
N1779 N 0.63216 0.23794 0.86279 0.0
H1780 H 0.03954 0.29124 0.11858 0.0
H1781 H 0.08864 0.41289 0.05393 0.0
H1782 H 0.0952 0.28983 0.06986 0.0
H1783 H 0.0188 0.40782 0.08387 0.0
H1784 H 0.09718 0.37061 0.0679 0.0
H1785 H 0.0371 0.33663 0.11319 0.0
C1786 C 0.05126 0.30046 0.10677 0.0
C1787 C 0.06736 0.28669 0.0944 0.0
C1788 C 0.08017 0.37896 0.07174 0.0
C1789 C 0.06492 0.33856 0.0885 0.0
C1790 C 0.07544 0.40311 0.06399 0.0
C1791 C 0.05295 0.41357 0.06768 0.0
C1792 C 0.06232 0.36546 0.08332 0.0
C1793 C 0.03628 0.40016 0.08058 0.0
C1794 C 0.0499 0.32635 0.10377 0.0
C1795 C 0.08227 0.29966 0.0795 0.0
N1796 N 0.0412 0.37665 0.0878 0.0
N1797 N 0.08066 0.32489 0.07693 0.0
H1798 H 0.97758 0.77319 0.32301 0.0
H1799 H 0.8404 0.81582 0.31081 0.0
H1800 H 0.92321 0.76241 0.37245 0.0
H1801 H 0.8732 0.78643 0.25233 0.0
H1802 H 0.87797 0.80902 0.33294 0.0
H1803 H 0.94529 0.78747 0.29605 0.0
C1804 C 0.95898 0.77363 0.32816 0.0
C1805 C 0.95317 0.7666 0.35009 0.0
C1806 C 0.87715 0.80447 0.31517 0.0
C1807 C 0.91676 0.78359 0.31983 0.0
C1808 C 0.8558 0.80855 0.30249 0.0
C1809 C 0.85364 0.80142 0.27979 0.0
C1810 C 0.89654 0.79298 0.30521 0.0
C1811 C 0.87421 0.79218 0.26982 0.0
C1812 C 0.94068 0.78185 0.31283 0.0
C1813 C 0.92875 0.76761 0.35584 0.0
N1814 N 0.89483 0.78775 0.28273 0.0
N1815 N 0.91164 0.77616 0.34095 0.0
H1816 H 0.52633 0.32828 0.90142 0.0
H1817 H 0.48818 0.41805 0.00139 0.0
H1818 H 0.4943 0.30322 0.96259 0.0
H1819 H 0.5198 0.44741 0.94144 0.0
H1820 H 0.49054 0.37575 0.98648 0.0
H1821 H 0.52568 0.37198 0.91531 0.0
C1822 C 0.51951 0.33192 0.91783 0.0
C1823 C 0.5102 0.31212 0.93079 0.0
C1824 C 0.49691 0.39137 0.97646 0.0
C1825 C 0.50911 0.36171 0.94657 0.0
C1826 C 0.49545 0.41562 0.98496 0.0
C1827 C 0.50381 0.43634 0.97268 0.0
C1828 C 0.5069 0.3876 0.95547 0.0
C1829 C 0.51306 0.43194 0.95145 0.0
C1830 C 0.51895 0.35681 0.92566 0.0
C1831 C 0.50142 0.31787 0.95188 0.0
N1832 N 0.51447 0.40801 0.94353 0.0
N1833 N 0.50102 0.34201 0.959 0.0
H1834 H 0.00789 0.19354 0.17797 0.0
H1835 H 0.92333 0.28015 0.24789 0.0
H1836 H 0.02451 0.27196 0.19269 0.0
H1837 H 0.90735 0.20128 0.23474 0.0
H1838 H 0.96251 0.27632 0.23114 0.0
H1839 H 0.97332 0.19487 0.20202 0.0
C1840 C 0.00442 0.211 0.18644 0.0
C1841 C 0.01895 0.23278 0.18309 0.0
C1842 C 0.95056 0.25978 0.23208 0.0
C1843 C 0.97924 0.23444 0.21054 0.0
C1844 C 0.92819 0.26189 0.24181 0.0
C1845 C 0.91194 0.24098 0.24273 0.0
C1846 C 0.95675 0.23664 0.22302 0.0
C1847 C 0.91913 0.21797 0.2341 0.0
C1848 C 0.98464 0.21173 0.20017 0.0
C1849 C 0.0137 0.25478 0.19466 0.0
N1850 N 0.94094 0.21645 0.22449 0.0
N1851 N 0.99411 0.25511 0.2077 0.0
H1852 H 0.04278 0.67498 0.39696 0.0
H1853 H 0.05275 0.59578 0.51107 0.0
H1854 H 0.02228 0.701 0.4618 0.0
H1855 H 0.04457 0.56076 0.44549 0.0
H1856 H 0.05475 0.63692 0.49299 0.0
H1857 H 0.05565 0.63533 0.41461 0.0
C1858 C 0.04143 0.67249 0.41492 0.0
C1859 C 0.03116 0.69097 0.42796 0.0
C1860 C 0.05291 0.62018 0.48257 0.0
C1861 C 0.04609 0.64638 0.44812 0.0
C1862 C 0.05187 0.59668 0.49287 0.0
C1863 C 0.04801 0.57483 0.47979 0.0
C1864 C 0.05017 0.62184 0.45904 0.0
C1865 C 0.04717 0.57718 0.45624 0.0
C1866 C 0.04868 0.64996 0.42493 0.0
C1867 C 0.02975 0.68698 0.45113 0.0
N1868 N 0.04791 0.60031 0.44659 0.0
N1869 N 0.03704 0.66513 0.46045 0.0
H1870 H 0.63811 0.64257 0.69544 0.0
H1871 H 0.74298 0.74724 0.70325 0.0
H1872 H 0.62783 0.72117 0.68132 0.0
H1873 H 0.75675 0.66822 0.70761 0.0
H1874 H 0.70215 0.73705 0.68722 0.0
H1875 H 0.68224 0.65021 0.69397 0.0
C1876 C 0.64509 0.66137 0.69193 0.0
C1877 C 0.62927 0.68135 0.68899 0.0
C1878 C 0.71427 0.72184 0.69097 0.0
C1879 C 0.67957 0.69016 0.68699 0.0
C1880 C 0.7377 0.72775 0.69979 0.0
C1881 C 0.75309 0.70852 0.7065 0.0
C1882 C 0.706 0.69653 0.68971 0.0
C1883 C 0.74535 0.68351 0.70229 0.0
C1884 C 0.67026 0.66569 0.6909 0.0
C1885 C 0.6393 0.70525 0.68415 0.0
N1886 N 0.72201 0.67816 0.69471 0.0
N1887 N 0.66376 0.709 0.68353 0.0
H1888 H 0.62806 0.49085 0.64139 0.0
H1889 H 0.5964 0.54424 0.53812 0.0
H1890 H 0.56039 0.52225 0.65929 0.0
H1891 H 0.52184 0.52729 0.55388 0.0
H1892 H 0.60996 0.52745 0.5746 0.0
H1893 H 0.61501 0.49456 0.6014 0.0
C1894 C 0.61026 0.49795 0.63689 0.0
C1895 C 0.59536 0.50652 0.65353 0.0
C1896 C 0.59068 0.52683 0.56989 0.0
C1897 C 0.58055 0.51118 0.60821 0.0
C1898 C 0.58289 0.53673 0.54919 0.0
C1899 C 0.55793 0.5373 0.54305 0.0
C1900 C 0.57337 0.51783 0.58475 0.0
C1901 C 0.54124 0.5272 0.55798 0.0
C1902 C 0.60296 0.50037 0.61414 0.0
C1903 C 0.5725 0.5157 0.64688 0.0
N1904 N 0.54924 0.51834 0.57836 0.0
N1905 N 0.56583 0.51788 0.62474 0.0
H1906 H 0.74975 0.35936 0.98396 0.0
H1907 H 0.8282 0.31996 0.8805 0.0
H1908 H 0.82823 0.36697 0.98422 0.0
H1909 H 0.7543 0.29288 0.88889 0.0
H1910 H 0.82698 0.34346 0.91585 0.0
H1911 H 0.74953 0.3412 0.94602 0.0
C1912 C 0.76687 0.35744 0.97596 0.0
C1913 C 0.78905 0.36437 0.9873 0.0
C1914 C 0.81104 0.33237 0.90992 0.0
C1915 C 0.78894 0.34381 0.94415 0.0
C1916 C 0.81174 0.31903 0.88978 0.0
C1917 C 0.79145 0.30425 0.882 0.0
C1918 C 0.78981 0.3311 0.92215 0.0
C1919 C 0.7705 0.30368 0.89459 0.0
C1920 C 0.76675 0.347 0.9544 0.0
C1921 C 0.81073 0.36154 0.97618 0.0
N1922 N 0.77022 0.31692 0.91408 0.0
N1923 N 0.81013 0.35142 0.95525 0.0
H1924 H 0.92305 0.56356 0.14357 0.0
H1925 H 0.04034 0.55483 0.07207 0.0
H1926 H 0.99328 0.53877 0.16805 0.0
H1927 H 0.97017 0.57461 0.04333 0.0
H1928 H 0.02589 0.56201 0.10952 0.0
H1929 H 0.94181 0.57913 0.10928 0.0
C1930 C 0.94247 0.56192 0.14193 0.0
C1931 C 0.95659 0.5494 0.15834 0.0
C1932 C 0.01374 0.56541 0.09507 0.0
C1933 C 0.97808 0.56717 0.11956 0.0
C1934 C 0.02212 0.56154 0.07367 0.0
C1935 C 0.00633 0.56387 0.05468 0.0
C1936 C 0.98916 0.57089 0.0975 0.0
C1937 C 0.98288 0.57258 0.05762 0.0
C1938 C 0.95316 0.57076 0.1224 0.0
C1939 C 0.98165 0.54781 0.15553 0.0
N1940 N 0.97473 0.57509 0.07871 0.0
N1941 N 0.99151 0.55632 0.13645 0.0
H1942 H 0.84189 0.76665 0.482 0.0
H1943 H 0.76095 0.72159 0.37561 0.0
H1944 H 0.81612 0.6894 0.47379 0.0
H1945 H 0.81597 0.78135 0.37195 0.0
H1946 H 0.77793 0.71106 0.41307 0.0
H1947 H 0.82993 0.77427 0.44254 0.0
C1948 C 0.83406 0.75124 0.4718 0.0
C1949 C 0.82993 0.72741 0.48111 0.0
C1950 C 0.78622 0.72644 0.40393 0.0
C1951 C 0.81573 0.7361 0.43641 0.0
C1952 C 0.77655 0.73247 0.3826 0.0
C1953 C 0.78675 0.75265 0.37072 0.0
C1954 C 0.80599 0.74087 0.41344 0.0
C1955 C 0.80693 0.76618 0.38071 0.0
C1956 C 0.82723 0.75558 0.44935 0.0
C1957 C 0.81972 0.70804 0.46721 0.0
N1958 N 0.81574 0.76018 0.40157 0.0
N1959 N 0.81258 0.71291 0.44559 0.0
H1960 H 0.55223 0.52212 0.76608 0.0
H1961 H 0.5841 0.50868 0.89776 0.0
H1962 H 0.61604 0.48526 0.79253 0.0
H1963 H 0.51781 0.53964 0.86976 0.0
H1964 H 0.59593 0.49897 0.85966 0.0
H1965 H 0.53821 0.52592 0.80407 0.0
C1966 C 0.56305 0.51435 0.7799 0.0
C1967 C 0.58537 0.50344 0.77617 0.0
C1968 C 0.5788 0.50787 0.86187 0.0
C1969 C 0.56976 0.50836 0.81993 0.0
C1970 C 0.57217 0.51372 0.8836 0.0
C1971 C 0.54997 0.52513 0.88697 0.0
C1972 C 0.56316 0.51355 0.84336 0.0
C1973 C 0.53501 0.53072 0.868 0.0
C1974 C 0.55512 0.51667 0.80164 0.0
C1975 C 0.59866 0.49367 0.79468 0.0
N1976 N 0.54189 0.52492 0.84706 0.0
N1977 N 0.59082 0.49671 0.81585 0.0
H1978 H 0.79318 0.30866 0.09337 0.0
H1979 H 0.73995 0.30677 0.21538 0.0
H1980 H 0.74585 0.365 0.117 0.0
H1981 H 0.79872 0.26146 0.19498 0.0
H1982 H 0.73405 0.32132 0.17668 0.0
H1983 H 0.78704 0.28453 0.12739 0.0
C1984 C 0.78123 0.31583 0.10563 0.0
C1985 C 0.7704 0.33916 0.10258 0.0
C1986 C 0.74797 0.3079 0.18062 0.0
C1987 C 0.76346 0.3116 0.14173 0.0
C1988 C 0.75132 0.29948 0.2027 0.0
C1989 C 0.77016 0.28317 0.2085 0.0
C1990 C 0.76347 0.29984 0.16424 0.0
C1991 C 0.78419 0.27427 0.19133 0.0
C1992 C 0.77774 0.30201 0.12506 0.0
C1993 C 0.75472 0.34724 0.11881 0.0
N1994 N 0.78073 0.28294 0.17003 0.0
N1995 N 0.75202 0.33365 0.13793 0.0
H1996 H 0.98908 0.50246 0.26961 0.0
H1997 H 0.95372 0.51274 0.39787 0.0
H1998 H 0.92378 0.53733 0.28963 0.0
H1999 H 0.01595 0.47409 0.37552 0.0
H2000 H 0.943 0.52366 0.35883 0.0
H2001 H 0.00076 0.49547 0.30894 0.0
C2002 C 0.97734 0.50898 0.28234 0.0
C2003 C 0.95532 0.52031 0.27634 0.0
C2004 C 0.95896 0.51274 0.36248 0.0
C2005 C 0.96839 0.51192 0.32153 0.0
C2006 C 0.96493 0.50623 0.38473 0.0
C2007 C 0.98575 0.49242 0.38997 0.0
C2008 C 0.97393 0.50541 0.34538 0.0
C2009 C -0.00011 0.48496 0.3723 0.0
C2010 C 0.98396 0.50484 0.30483 0.0
C2011 C 0.94093 0.52855 0.29355 0.0
N2012 N 0.99373 0.49159 0.35083 0.0
N2013 N 0.94759 0.52392 0.31543 0.0
H2014 H 0.90023 0.67832 0.58364 0.0
H2015 H 0.90303 0.66236 0.69044 0.0
H2016 H 0.88836 0.75448 0.60446 0.0
H2017 H 0.92233 0.74086 0.70012 0.0
H2018 H 0.91797 0.66452 0.65294 0.0
H2019 H 0.92695 0.67297 0.61708 0.0
C2020 C 0.90351 0.69407 0.59509 0.0
C2021 C 0.89096 0.71645 0.59196 0.0
C2022 C 0.92025 0.68114 0.66342 0.0
C2023 C 0.92086 0.71015 0.63051 0.0
C2024 C 0.91177 0.67976 0.6851 0.0
C2025 C 0.91031 0.7018 0.69776 0.0
C2026 C 0.92664 0.70486 0.65452 0.0
C2027 C 0.92224 0.7237 0.69029 0.0
C2028 C 0.91874 0.69095 0.61424 0.0
C2029 C 0.8968 0.73653 0.60672 0.0
N2030 N 0.929 0.72502 0.6687 0.0
N2031 N 0.91084 0.73268 0.62569 0.0
H2032 H 0.76593 0.65728 0.57412 0.0
H2033 H 0.64845 0.67764 0.49735 0.0
H2034 H 0.74739 0.73056 0.5492 0.0
H2035 H 0.65439 0.61488 0.54293 0.0
H2036 H 0.68362 0.69826 0.51737 0.0
H2037 H 0.72411 0.64218 0.56512 0.0
C2038 C 0.75285 0.67038 0.56734 0.0
C2039 C 0.76017 0.69513 0.56221 0.0
C2040 C 0.67702 0.68009 0.52311 0.0
C2041 C 0.71256 0.67779 0.55113 0.0
C2042 C 0.65694 0.66828 0.51168 0.0
C2043 C 0.64868 0.6442 0.51811 0.0
C2044 C 0.6891 0.66764 0.54095 0.0
C2045 C 0.66055 0.63303 0.53681 0.0
C2046 C 0.72901 0.66173 0.5621 0.0
C2047 C 0.74251 0.71132 0.55342 0.0
N2048 N 0.68032 0.64467 0.54735 0.0
N2049 N 0.71964 0.70221 0.54763 0.0
H2050 H 0.20886 0.91785 0.57917 0.0
H2051 H 0.1206 0.01375 0.51533 0.0
H2052 H 0.22943 0.96418 0.52329 0.0
H2053 H 0.09784 0.96666 0.56995 0.0
H2054 H 0.1616 -0.00174 0.52049 0.0
H2055 H 0.16935 0.93775 0.57839 0.0
C2056 C 0.20518 0.93233 0.56683 0.0
C2057 C 0.2225 0.93922 0.55116 0.0
C2058 C 0.14774 0.99138 0.53148 0.0
C2059 C 0.17722 0.96204 0.55018 0.0
C2060 C 0.12425 0.00026 0.52856 0.0
C2061 C 0.10563 0.99138 0.54214 0.0
C2062 C 0.15281 0.97332 0.54804 0.0
C2063 C 0.11159 0.97399 0.55907 0.0
C2064 C 0.18258 0.94366 0.5664 0.0
C2065 C 0.21666 0.95813 0.53563 0.0
N2066 N 0.13463 0.96538 0.56143 0.0
N2067 N 0.19452 0.96876 0.53547 0.0
H2068 H 0.32516 0.95758 0.72875 0.0
H2069 H 0.31546 0.80992 0.72225 0.0
H2070 H 0.36188 0.91337 0.68083 0.0
H2071 H 0.26537 0.85271 0.75925 0.0
H2072 H 0.32948 0.84836 0.70425 0.0
H2073 H 0.29849 0.92105 0.73614 0.0
C2074 C 0.327 0.94051 0.71912 0.0
C2075 C 0.34615 0.93828 0.70456 0.0
C2076 C 0.31529 0.84944 0.71616 0.0
C2077 C 0.31624 0.89637 0.71338 0.0
C2078 C 0.30746 0.82748 0.72666 0.0
C2079 C 0.28953 0.82819 0.74257 0.0
C2080 C 0.30548 0.87248 0.72187 0.0
C2081 C 0.27945 0.85141 0.74725 0.0
C2082 C 0.31193 0.91955 0.72354 0.0
C2083 C 0.34767 0.91572 0.69256 0.0
N2084 N 0.28783 0.87274 0.73718 0.0
N2085 N 0.33332 0.89547 0.69762 0.0
H2086 H 0.32075 0.08058 0.01691 0.0
H2087 H 0.41994 0.00587 0.00261 0.0
H2088 H 0.34591 0.08533 0.08668 0.0
H2089 H 0.44964 0.04085 0.06398 0.0
H2090 H 0.38093 0.02426 0.00879 0.0
H2091 H 0.35613 0.05658 0.00893 0.0
C2092 C 0.33352 0.07619 0.03065 0.0
C2093 C 0.33034 0.085 0.0525 0.0
C2094 C 0.396 0.02834 0.02075 0.0
C2095 C 0.37087 0.05694 0.04359 0.0
C2096 C 0.4183 0.01761 0.01732 0.0
C2097 C 0.43819 0.02209 0.03266 0.0
C2098 C 0.39362 0.0439 0.03956 0.0
C2099 C 0.43486 0.03709 0.05161 0.0
C2100 C 0.35372 0.06223 0.02611 0.0
C2101 C 0.3476 0.0789 0.06959 0.0
N2102 N 0.41301 0.0475 0.05449 0.0
N2103 N 0.36723 0.06543 0.06472 0.0
H2104 H 0.71188 0.53211 0.71606 0.0
H2105 H 0.7638 0.64255 0.79782 0.0
H2106 H 0.6694 0.57834 0.75776 0.0
H2107 H 0.7967 0.62836 0.73491 0.0
H2108 H 0.73625 0.60615 0.79087 0.0
H2109 H 0.74896 0.55658 0.72932 0.0
C2110 C 0.71043 0.54721 0.7281 0.0
C2111 C 0.68761 0.55357 0.7356 0.0
C2112 C 0.7499 0.61063 0.77884 0.0
C2113 C 0.72953 0.58061 0.75127 0.0
C2114 C 0.76573 0.63128 0.78287 0.0
C2115 C 0.78221 0.63871 0.76671 0.0
C2116 C 0.75042 0.59742 0.75847 0.0
C2117 C 0.78411 0.6233 0.74771 0.0
C2118 C 0.73148 0.56104 0.73565 0.0
C2119 C 0.68659 0.57313 0.75127 0.0
N2120 N 0.76793 0.60359 0.74381 0.0
N2121 N 0.70722 0.58588 0.7586 0.0
H2122 H 0.85493 0.44426 0.09003 0.0
H2123 H 0.91892 0.51797 -0.00901 0.0
H2124 H 0.81609 0.4641 0.02832 0.0
H2125 H 0.95589 0.47955 0.0458 0.0
H2126 H 0.87983 0.50805 0.008 0.0
H2127 H 0.89012 0.46945 0.07868 0.0
C2128 C 0.85353 0.45469 0.07443 0.0
C2129 C 0.83278 0.4518 0.05991 0.0
C2130 C 0.89658 0.502 0.0163 0.0
C2131 C 0.87327 0.47976 0.04637 0.0
C2132 C 0.91882 0.50748 0.00655 0.0
C2133 C 0.94063 0.49917 0.01678 0.0
C2134 C 0.89631 0.4885 0.03654 0.0
C2135 C 0.93952 0.48595 0.03708 0.0
C2136 C 0.87373 0.4688 0.06781 0.0
C2137 C 0.83184 0.46578 0.03994 0.0
N2138 N 0.91778 0.48102 0.04623 0.0
N2139 N 0.85211 0.47869 0.03342 0.0
H2140 H 0.36322 0.08194 0.7139 0.0
H2141 H 0.25821 0.15669 0.77061 0.0
H2142 H 0.31281 0.0479 0.75919 0.0
H2143 H 0.30312 0.18865 0.71971 0.0
H2144 H 0.27677 0.11621 0.76534 0.0
H2145 H 0.34074 0.12077 0.71488 0.0
C2146 C 0.34741 0.08259 0.72403 0.0
C2147 C 0.34 0.06161 0.73658 0.0
C2148 C 0.28241 0.13199 0.75515 0.0
C2149 C 0.31413 0.1061 0.73776 0.0
C2150 C 0.27175 0.15514 0.7581 0.0
C2151 C 0.27917 0.1762 0.74566 0.0
C2152 C 0.30083 0.12983 0.73976 0.0
C2153 C 0.29682 0.17297 0.72969 0.0
C2154 C 0.33453 0.10477 0.72452 0.0
C2155 C 0.31927 0.06357 0.74929 0.0
N2156 N 0.3072 0.15032 0.72737 0.0
N2157 N 0.30718 0.08542 0.74964 0.0
H2158 H 0.2315 0.9713 0.28525 0.0
H2159 H 0.22742 0.83439 0.22846 0.0
H2160 H 0.17731 0.94655 0.23426 0.0
H2161 H 0.27245 0.85474 0.28762 0.0
H2162 H 0.21218 0.87705 0.22741 0.0
H2163 H 0.24962 0.93006 0.28378 0.0
C2164 C 0.2234 0.95721 0.27375 0.0
C2165 C 0.20277 0.96237 0.25994 0.0
C2166 C 0.2255 0.8722 0.24054 0.0
C2167 C 0.22356 0.91517 0.25805 0.0
C2168 C 0.23432 0.84789 0.24107 0.0
C2169 C 0.25115 0.84093 0.25822 0.0
C2170 C 0.23366 0.88971 0.2572 0.0
C2171 C 0.25939 0.85922 0.27415 0.0
C2172 C 0.23377 0.93367 0.27291 0.0
C2173 C 0.19312 0.94338 0.24531 0.0
N2174 N 0.25051 0.88271 0.27329 0.0
N2175 N 0.2036 0.92065 0.24474 0.0
H2176 H 0.55294 0.3848 0.41259 0.0
H2177 H 0.58962 0.50613 0.48625 0.0
H2178 H 0.53755 0.39248 0.48266 0.0
H2179 H 0.55417 0.50963 0.42026 0.0
H2180 H 0.59115 0.46029 0.48234 0.0
H2181 H 0.57312 0.42655 0.41391 0.0
C2182 C 0.55432 0.39499 0.4284 0.0
C2183 C 0.54315 0.38543 0.44749 0.0
C2184 C 0.58411 0.47129 0.46834 0.0
C2185 C 0.56676 0.43261 0.44909 0.0
C2186 C 0.58351 0.49736 0.47042 0.0
C2187 C 0.57186 0.51139 0.45346 0.0
C2188 C 0.57336 0.45957 0.44904 0.0
C2189 C 0.56346 0.49928 0.43355 0.0
C2190 C 0.56588 0.4187 0.42908 0.0
C2191 C 0.54556 0.39939 0.46751 0.0
N2192 N 0.56408 0.47387 0.43196 0.0
N2193 N 0.55699 0.42246 0.46776 0.0
H2194 H 0.44001 0.76775 0.16916 0.0
H2195 H 0.35942 0.76728 0.27773 0.0
H2196 H 0.45991 0.72963 0.23089 0.0
H2197 H 0.32835 0.77664 0.21041 0.0
H2198 H 0.39942 0.76241 0.26216 0.0
H2199 H 0.40179 0.77959 0.18549 0.0
C2200 C 0.43645 0.76206 0.18618 0.0
C2201 C 0.45309 0.7475 0.19861 0.0
C2202 C 0.38387 0.76576 0.25084 0.0
C2203 C 0.40968 0.76124 0.21742 0.0
C2204 C 0.36106 0.76871 0.25971 0.0
C2205 C 0.34045 0.77221 0.24535 0.0
C2206 C 0.3862 0.76665 0.22745 0.0
C2207 C 0.34371 0.7738 0.2221 0.0
C2208 C 0.41464 0.76875 0.19544 0.0
C2209 C 0.44752 0.74064 0.2206 0.0
N2210 N 0.36612 0.77096 0.21387 0.0
N2211 N 0.42635 0.74759 0.2293 0.0
H2212 H 0.97747 0.7371 0.86696 0.0
H2213 H 0.00761 0.62431 0.9072 0.0
H2214 H 0.91146 0.72346 0.90207 0.0
H2215 H 0.93195 0.61015 0.92038 0.0
H2216 H -0.00338 0.66113 0.88564 0.0
H2217 H 0.98241 0.6919 0.86447 0.0
C2218 C 0.9638 0.72458 0.87386 0.0
C2219 C 0.94473 0.73408 0.88581 0.0
C2220 C 0.98214 0.64969 0.89245 0.0
C2221 C 0.95098 0.68242 0.88415 0.0
C2222 C 0.98855 0.62875 0.90508 0.0
C2223 C 0.97073 0.6146 0.91602 0.0
C2224 C 0.95767 0.65672 0.89093 0.0
C2225 C 0.94628 0.62076 0.91239 0.0
C2226 C 0.96683 0.6987 0.87274 0.0
C2227 C 0.92702 0.71699 0.89352 0.0
N2228 N 0.94053 0.64173 0.90059 0.0
N2229 N 0.93096 0.69197 0.89316 0.0
H2230 H 0.06121 0.24977 0.70144 0.0
H2231 H 0.20456 0.2742 0.7059 0.0
H2232 H 0.09769 0.31075 0.66744 0.0
H2233 H 0.17009 0.23328 0.75898 0.0
H2234 H 0.16458 0.28462 0.6901 0.0
H2235 H 0.09962 0.24193 0.72289 0.0
C2236 C 0.07704 0.26196 0.69897 0.0
C2237 C 0.07634 0.28076 0.68245 0.0
C2238 C 0.16569 0.27337 0.70522 0.0
C2239 C 0.12022 0.27144 0.70628 0.0
C2240 C 0.18857 0.26717 0.71414 0.0
C2241 C 0.19074 0.25281 0.7338 0.0
C2242 C 0.14464 0.26496 0.71582 0.0
C2243 C 0.16925 0.24439 0.74377 0.0
C2244 C 0.09899 0.25731 0.71103 0.0
C2245 C 0.09746 0.29584 0.67979 0.0
N2246 N 0.14703 0.25051 0.73462 0.0
N2247 N 0.11856 0.2906 0.69127 0.0
H2248 H 0.5186 0.64213 0.14037 0.0
H2249 H 0.51453 0.60458 0.01059 0.0
H2250 H 0.51395 0.69952 0.08933 0.0
H2251 H 0.54042 0.55794 0.06522 0.0
H2252 H 0.51313 0.6401 0.03733 0.0
H2253 H 0.52373 0.611 0.11152 0.0
C2254 C 0.51855 0.64826 0.12303 0.0
C2255 C 0.51587 0.67361 0.11737 0.0
C2256 C 0.51947 0.62215 0.04327 0.0
C2257 C 0.52197 0.63759 0.08382 0.0
C2258 C 0.52045 0.60199 0.02803 0.0
C2259 C 0.52738 0.57825 0.03578 0.0
C2260 C 0.52537 0.61827 0.06625 0.0
C2261 C 0.53465 0.5758 0.05855 0.0
C2262 C 0.52166 0.63038 0.10648 0.0
C2263 C 0.51597 0.68018 0.09447 0.0
N2264 N 0.53322 0.59539 0.07291 0.0
N2265 N 0.51892 0.66224 0.07846 0.0
H2266 H 0.05704 0.82027 0.88534 0.0
H2267 H 0.1252 0.79479 0.7722 0.0
H2268 H 0.01964 0.80095 0.82184 0.0
H2269 H 0.16242 0.81093 0.83642 0.0
H2270 H 0.08628 0.80085 0.78925 0.0
H2271 H 0.09574 0.82081 0.86687 0.0
C2272 C 0.05694 0.81626 0.86748 0.0
C2273 C 0.03507 0.81037 0.85515 0.0
C2274 C 0.10298 0.80326 0.79957 0.0
C2275 C 0.07934 0.81092 0.8339 0.0
C2276 C 0.1252 0.79973 0.78986 0.0
C2277 C 0.14711 0.80219 0.80292 0.0
C2278 C 0.10264 0.80922 0.82255 0.0
C2279 C 0.14602 0.80904 0.82564 0.0
C2280 C 0.07906 0.81658 0.85694 0.0
C2281 C 0.03606 0.80545 0.83204 0.0
N2282 N 0.12416 0.81212 0.83476 0.0
N2283 N 0.05784 0.8057 0.82219 0.0
H2284 H 0.98426 0.35235 0.62765 0.0
H2285 H 0.98841 0.41715 0.50725 0.0
H2286 H 0.99004 0.31248 0.56516 0.0
H2287 H -0.00374 0.45711 0.57055 0.0
H2288 H 0.97685 0.37894 0.52757 0.0
H2289 H 0.97566 0.39076 0.60629 0.0
C2290 C 0.98274 0.3515 0.60945 0.0
C2291 C 0.98804 0.32949 0.59804 0.0
C2292 C 0.98078 0.39618 0.53696 0.0
C2293 C 0.97887 0.37305 0.57364 0.0
C2294 C 0.98741 0.41797 0.52536 0.0
C2295 C 0.99388 0.44017 0.53726 0.0
C2296 C 0.98061 0.39666 0.56059 0.0
C2297 C 0.99196 0.44025 0.56072 0.0
C2298 C 0.97812 0.37342 0.59725 0.0
C2299 C 0.98622 0.32929 0.57448 0.0
N2300 N 0.9858 0.41876 0.57163 0.0
N2301 N 0.98216 0.35084 0.56303 0.0
H2302 H 0.45957 0.32709 0.3635 0.0
H2303 H 0.32336 0.27009 0.34704 0.0
H2304 H 0.41246 0.31519 0.4187 0.0
H2305 H 0.3733 0.27951 0.29365 0.0
H2306 H 0.35453 0.28856 0.3735 0.0
H2307 H 0.42626 0.31356 0.33737 0.0
C2308 C 0.44205 0.32198 0.37009 0.0
C2309 C 0.43882 0.322 0.39331 0.0
C2310 C 0.35864 0.28651 0.356 0.0
C2311 C 0.40068 0.30594 0.36349 0.0
C2312 C 0.34095 0.27578 0.34092 0.0
C2313 C 0.34577 0.27316 0.3181 0.0
C2314 C 0.38125 0.29468 0.34816 0.0
C2315 C 0.36878 0.28107 0.31108 0.0
C2316 C 0.42306 0.3141 0.35517 0.0
C2317 C 0.4157 0.31542 0.40091 0.0
N2318 N 0.38561 0.2915 0.32604 0.0
N2319 N 0.39753 0.30731 0.38602 0.0
H2320 H 0.48529 0.51635 0.32953 0.0
H2321 H 0.48452 0.61416 0.42531 0.0
H2322 H 0.42616 0.56707 0.33389 0.0
H2323 H 0.55101 0.58403 0.4032 0.0
H2324 H 0.46441 0.60316 0.38896 0.0
H2325 H 0.51081 0.54438 0.35389 0.0
C2326 C 0.47769 0.53346 0.33559 0.0
C2327 C 0.45342 0.53916 0.33005 0.0
C2328 C 0.48365 0.59981 0.39165 0.0
C2329 C 0.48261 0.57144 0.35799 0.0
C2330 C 0.49521 0.60641 0.4123 0.0
C2331 C 0.51938 0.59986 0.41719 0.0
C2332 C 0.49623 0.58594 0.37615 0.0
C2333 C 0.53236 0.58947 0.4 0.0
C2334 C 0.49238 0.54964 0.34929 0.0
C2335 C 0.4447 0.56184 0.33799 0.0
N2336 N 0.5204 0.58204 0.38044 0.0
N2337 N 0.45915 0.57694 0.35195 0.0
H2338 H 0.27499 0.64843 0.05588 0.0
H2339 H 0.22725 0.7525 0.1377 0.0
H2340 H 0.21653 0.69779 0.03771 0.0
H2341 H 0.26096 0.68588 0.16364 0.0
H2342 H 0.22786 0.73506 0.0997 0.0
H2343 H 0.27459 0.66405 0.09487 0.0
C2344 C 0.2621 0.66243 0.06007 0.0
C2345 C 0.24578 0.67179 0.04354 0.0
C2346 C 0.23502 0.72418 0.11372 0.0
C2347 C 0.24544 0.68979 0.08762 0.0
C2348 C 0.23472 0.73416 0.13533 0.0
C2349 C 0.24392 0.7205 0.1537 0.0
C2350 C 0.24493 0.70055 0.11045 0.0
C2351 C 0.25342 0.6968 0.14983 0.0
C2352 C 0.26183 0.67126 0.08224 0.0
C2353 C 0.22942 0.68992 0.04985 0.0
N2354 N 0.25384 0.68758 0.12855 0.0
N2355 N 0.22979 0.69841 0.0713 0.0
H2356 H 0.05375 0.47625 0.8268 0.0
H2357 H 0.99064 0.48969 0.91911 0.0
H2358 H 0.11498 0.47332 0.87456 0.0
H2359 H 0.04774 0.45269 0.95704 0.0
H2360 H 0.00939 0.4787 0.88459 0.0
H2361 H 0.02691 0.46071 0.85558 0.0
C2362 C 0.06155 0.47176 0.84332 0.0
C2363 C 0.08641 0.47635 0.84858 0.0
C2364 C 0.01742 0.47192 0.90027 0.0
C2365 C 0.05574 0.4604 0.88197 0.0
C2366 C 0.00665 0.47835 0.92008 0.0
C2367 C 0.01786 0.47246 0.94093 0.0
C2368 C 0.03984 0.45986 0.90135 0.0
C2369 C 0.03859 0.45775 0.94126 0.0
C2370 C 0.0462 0.46326 0.85983 0.0
C2371 C 0.09581 0.47011 0.87001 0.0
N2372 N 0.04937 0.45264 0.92177 0.0
N2373 N 0.08032 0.463 0.88617 0.0
H2374 H 0.27719 0.3762 0.5625 0.0
H2375 H 0.32297 0.27462 0.64876 0.0
H2376 H 0.33179 0.32307 0.54739 0.0
H2377 H 0.28936 0.34208 0.67011 0.0
H2378 H 0.32807 0.29335 0.61177 0.0
H2379 H 0.28285 0.36578 0.60237 0.0
C2380 C 0.29057 0.3626 0.56758 0.0
C2381 C 0.30371 0.35015 0.55156 0.0
C2382 C 0.31996 0.30427 0.62464 0.0
C2383 C 0.31013 0.33808 0.59696 0.0
C2384 C 0.317 0.29354 0.64566 0.0
C2385 C 0.30561 0.30683 0.66227 0.0
C2386 C 0.31095 0.32821 0.62011 0.0
C2387 C 0.29827 0.33132 0.65763 0.0
C2388 C 0.29385 0.35673 0.59033 0.0
C2389 C 0.321 0.33289 0.5591 0.0
N2390 N 0.30068 0.34111 0.63679 0.0
N2391 N 0.32342 0.32708 0.58122 0.0
H2392 H 0.46049 0.4591 0.23301 0.0
H2393 H 0.43857 0.49158 0.10295 0.0
H2394 H 0.40587 0.50986 0.20824 0.0
H2395 H 0.50537 0.46147 0.13068 0.0
H2396 H 0.42302 0.49271 0.14072 0.0
H2397 H 0.47406 0.45457 0.19483 0.0
C2398 C 0.4513 0.46926 0.21953 0.0
C2399 C 0.43206 0.48498 0.22383 0.0
C2400 C 0.44103 0.48574 0.13851 0.0
C2401 C 0.44745 0.47971 0.1801 0.0
C2402 C 0.44982 0.48487 0.11697 0.0
C2403 C 0.47328 0.47638 0.11374 0.0
C2404 C 0.45573 0.47789 0.15692 0.0
C2405 C 0.48725 0.46829 0.13251 0.0
C2406 C 0.45911 0.46669 0.19777 0.0
C2407 C 0.42086 0.49768 0.2057 0.0
N2408 N 0.47825 0.46923 0.15333 0.0
N2409 N 0.42869 0.49472 0.18459 0.0
H2410 H 0.30377 0.67792 0.92262 0.0
H2411 H 0.26255 0.78948 0.84741 0.0
H2412 H 0.25819 0.73657 0.94486 0.0
H2413 H 0.32073 0.74158 0.83039 0.0
H2414 H 0.2678 0.77633 0.88646 0.0
H2415 H 0.31715 0.70552 0.89237 0.0
C2416 C 0.29701 0.69678 0.92144 0.0
C2417 C 0.27928 0.70471 0.93575 0.0
C2418 C 0.27985 0.76911 0.87432 0.0
C2419 C 0.29428 0.73622 0.90132 0.0
C2420 C 0.27687 0.77671 0.852 0.0
C2421 C 0.29071 0.76604 0.83555 0.0
C2422 C 0.29635 0.75027 0.88003 0.0
C2423 C 0.30928 0.74988 0.84248 0.0
C2424 C 0.30465 0.71255 0.9042 0.0
C2425 C 0.27133 0.72941 0.93371 0.0
N2426 N 0.31109 0.74189 0.86411 0.0
N2427 N 0.27852 0.7441 0.91654 0.0
H2428 H 0.07375 0.54969 0.74507 0.0
H2429 H 0.09751 0.51193 0.61833 0.0
H2430 H 0.12912 0.49845 0.72766 0.0
H2431 H 0.03436 0.55092 0.638 0.0
H2432 H 0.11162 0.50979 0.65787 0.0
H2433 H 0.06105 0.55279 0.70553 0.0
C2434 C 0.08325 0.53903 0.73292 0.0
C2435 C 0.10256 0.52376 0.73971 0.0
C2436 C 0.09471 0.51886 0.65351 0.0
C2437 C 0.08808 0.52736 0.69424 0.0
C2438 C 0.08677 0.52031 0.63096 0.0
C2439 C 0.06475 0.53167 0.62491 0.0
C2440 C 0.0806 0.52899 0.6701 0.0
C2441 C 0.05134 0.54183 0.64196 0.0
C2442 C 0.07594 0.54081 0.71031 0.0
C2443 C 0.11411 0.51038 0.72318 0.0
N2444 N 0.05949 0.54026 0.66378 0.0
N2445 N 0.10673 0.51255 0.70115 0.0
H2446 H 0.21023 0.33628 0.44604 0.0
H2447 H 0.21436 0.2115 0.377 0.0
H2448 H 0.25457 0.2728 0.46188 0.0
H2449 H 0.19311 0.28387 0.35155 0.0
H2450 H 0.20836 0.22638 0.4151 0.0
H2451 H 0.18493 0.30968 0.41993 0.0
C2452 C 0.21422 0.31658 0.44451 0.0
C2453 C 0.23509 0.30691 0.45533 0.0
C2454 C 0.20414 0.23861 0.40102 0.0
C2455 C 0.20625 0.27654 0.4258 0.0
C2456 C 0.20774 0.23022 0.37926 0.0
C2457 C 0.20585 0.24699 0.3611 0.0
C2458 C 0.19854 0.26381 0.40446 0.0
C2459 C 0.19576 0.27044 0.36496 0.0
C2460 C 0.19972 0.3014 0.4297 0.0
C2461 C 0.23916 0.28118 0.45314 0.0
N2462 N 0.19322 0.27845 0.38632 0.0
N2463 N 0.22517 0.26698 0.43825 0.0
H2464 H 0.30521 0.44096 0.46384 0.0
H2465 H 0.44482 0.46835 0.44018 0.0
H2466 H 0.35263 0.3859 0.43804 0.0
H2467 H 0.39937 0.52104 0.47202 0.0
H2468 H 0.40891 0.44104 0.4317 0.0
H2469 H 0.33667 0.47359 0.45839 0.0
C2470 C 0.322 0.43578 0.45654 0.0
C2471 C 0.32652 0.41053 0.45192 0.0
C2472 C 0.40673 0.4587 0.44033 0.0
C2473 C 0.3627 0.44775 0.44594 0.0
C2474 C 0.42725 0.4742 0.44533 0.0
C2475 C 0.42515 0.49676 0.45724 0.0
C2476 C 0.38393 0.46571 0.4474 0.0
C2477 C 0.40185 0.50377 0.4629 0.0
C2478 C 0.34002 0.45444 0.45355 0.0
C2479 C 0.34852 0.40503 0.44227 0.0
N2480 N 0.38218 0.48813 0.45819 0.0
N2481 N 0.36596 0.42342 0.43997 0.0
H2482 H 0.8411 0.08205 0.51667 0.0
H2483 H 0.96921 0.04381 0.47094 0.0
H2484 H 0.85988 0.09057 0.44747 0.0
H2485 H 0.94625 0.02485 0.53729 0.0
H2486 H 0.92926 0.06095 0.46206 0.0
H2487 H 0.87952 0.06127 0.52466 0.0
C2488 C 0.85327 0.07953 0.50313 0.0
C2489 C 0.84724 0.08817 0.48137 0.0
C2490 C 0.93288 0.0529 0.47851 0.0
C2491 C 0.89137 0.0644 0.49044 0.0
C2492 C 0.95572 0.04309 0.48361 0.0
C2493 C 0.96116 0.03292 0.50493 0.0
C2494 C 0.91534 0.05277 0.49491 0.0
C2495 C 0.94289 0.03249 0.52064 0.0
C2496 C 0.87519 0.06759 0.50771 0.0
C2497 C 0.86373 0.08426 0.4645 0.0
N2498 N 0.92088 0.04243 0.51536 0.0
N2499 N 0.88505 0.07279 0.46943 0.0
H2500 H 0.6712 0.12335 0.33985 0.0
H2501 H 0.78499 0.17955 0.27487 0.0
H2502 H 0.71152 0.07738 0.29605 0.0
H2503 H 0.72993 0.22293 0.30473 0.0
H2504 H 0.76368 0.14078 0.28719 0.0
H2505 H 0.69933 0.1586 0.33338 0.0
C2506 C 0.68626 0.12057 0.32914 0.0
C2507 C 0.68882 0.09752 0.31822 0.0
C2508 C 0.75643 0.15887 0.29102 0.0
C2509 C 0.72088 0.13809 0.31025 0.0
C2510 C 0.76849 0.18094 0.28394 0.0
C2511 C 0.75912 0.20453 0.28857 0.0
C2512 C 0.73517 0.16058 0.30307 0.0
C2513 C 0.73777 0.20525 0.30053 0.0
C2514 C 0.70225 0.14076 0.32532 0.0
C2515 C 0.70887 0.0949 0.30472 0.0
N2516 N 0.72664 0.18369 0.30735 0.0
N2517 N 0.72398 0.11512 0.3008 0.0
H2518 H 0.65358 0.85901 0.03674 0.0
H2519 H 0.56661 0.95185 0.97312 0.0
H2520 H 0.66023 0.87552 0.96631 0.0
H2521 H 0.5848 0.95913 0.04427 0.0
H2522 H 0.60037 0.92355 0.96985 0.0
H2523 H 0.6274 0.89495 0.03987 0.0
C2524 C 0.64961 0.87029 0.02197 0.0
C2525 C 0.65887 0.86422 0.0012 0.0
C2526 C 0.5972 0.93169 0.98609 0.0
C2527 C 0.62893 0.90511 0.00461 0.0
C2528 C 0.57794 0.94777 0.98798 0.0
C2529 C 0.57281 0.95762 0.00903 0.0
C2530 C 0.61102 0.92503 0.00548 0.0
C2531 C 0.58811 0.95187 0.02773 0.0
C2532 C 0.63484 0.89086 0.0238 0.0
C2533 C 0.65339 0.87955 0.98263 0.0
N2534 N 0.60629 0.93556 0.02559 0.0
N2535 N 0.63846 0.89912 0.98469 0.0
H2536 H 0.33141 0.46346 0.27076 0.0
H2537 H 0.28148 0.33031 0.31321 0.0
H2538 H 0.36336 0.42521 0.32819 0.0
H2539 H 0.28982 0.34758 0.24319 0.0
H2540 H 0.29625 0.37314 0.32315 0.0
H2541 H 0.30108 0.42875 0.2657 0.0
C2542 C 0.33155 0.4482 0.28277 0.0
C2543 C 0.35009 0.44702 0.29978 0.0
C2544 C 0.29408 0.36771 0.30559 0.0
C2545 C 0.31538 0.40765 0.29418 0.0
C2546 C 0.28549 0.34341 0.29987 0.0
C2547 C 0.2846 0.33542 0.27733 0.0
C2548 C 0.30123 0.38419 0.28862 0.0
C2549 C 0.29038 0.35302 0.26075 0.0
C2550 C 0.31434 0.4284 0.27976 0.0
C2551 C 0.34951 0.42669 0.31474 0.0
N2552 N 0.29865 0.37659 0.26674 0.0
N2553 N 0.33254 0.40766 0.31149 0.0
H2554 H 0.17775 0.61424 0.93039 0.0
H2555 H 0.10306 0.5168 0.00467 0.0
H2556 H 0.21048 0.57407 0.98625 0.0
H2557 H 0.07099 0.56677 0.95544 0.0
H2558 H 0.14363 0.53088 -0.00651 0.0
H2559 H 0.1403 0.58885 0.93357 0.0
C2560 C 0.17726 0.59952 0.94293 0.0
C2561 C 0.19711 0.59645 0.95827 0.0
C2562 C 0.12769 0.53859 0.98504 0.0
C2563 C 0.154 0.56787 0.96253 0.0
C2564 C 0.10453 0.53065 -0.00854 0.0
C2565 C 0.08359 0.54089 0.98119 0.0
C2566 C 0.1299 0.55676 0.96813 0.0
C2567 C 0.0866 0.5586 0.96405 0.0
C2568 C 0.15579 0.58519 0.94489 0.0
C2569 C 0.19556 0.57705 0.97411 0.0
N2570 N 0.10929 0.56603 0.95815 0.0
N2571 N 0.17413 0.56381 0.97617 0.0
H2572 H 0.70804 0.98235 0.24894 0.0
H2573 H 0.74703 0.84929 0.29872 0.0
H2574 H 0.68994 0.95472 0.3144 0.0
H2575 H 0.76352 0.87379 0.2319 0.0
H2576 H 0.72854 0.88929 0.30532 0.0
H2577 H 0.73066 0.94427 0.24298 0.0
C2578 C 0.7089 0.96835 0.26211 0.0
C2579 C 0.69695 0.97171 0.28218 0.0
C2580 C 0.73625 0.88604 0.28922 0.0
C2581 C 0.72282 0.9281 0.27543 0.0
C2582 C 0.74685 0.86314 0.28541 0.0
C2583 C 0.75673 0.85807 0.26464 0.0
C2584 C 0.73535 0.90416 0.27214 0.0
C2585 C 0.75608 0.87688 0.24814 0.0
C2586 C 0.72181 0.94661 0.25867 0.0
C2587 C 0.69875 0.95294 0.29863 0.0
N2588 N 0.74543 0.89907 0.2522 0.0
N2589 N 0.71135 0.93197 0.29486 0.0
H2590 H 0.8323 0.04239 0.7841 0.0
H2591 H 0.81265 0.18477 0.82218 0.0
H2592 H 0.87791 0.08263 0.83419 0.0
H2593 H 0.77587 0.15087 0.76332 0.0
H2594 H 0.83271 0.1453 0.82981 0.0
H2595 H 0.8076 0.07974 0.77926 0.0
C2596 C 0.83698 0.05895 0.79424 0.0
C2597 C 0.85733 0.05939 0.80949 0.0
C2598 C 0.82017 0.14641 0.81527 0.0
C2599 C 0.82914 0.10216 0.80403 0.0
C2600 C 0.80863 0.16898 0.81092 0.0
C2601 C 0.79262 0.17128 0.79198 0.0
C2602 C 0.8157 0.12581 0.80065 0.0
C2603 C 0.78814 0.15004 0.77807 0.0
C2604 C 0.82293 0.0803 0.79139 0.0
C2605 C 0.86253 0.08143 0.82212 0.0
N2606 N 0.79968 0.12825 0.78263 0.0
N2607 N 0.8486 0.10186 0.81908 0.0
loop_
_geom_bond_atom_site_label_1
_geom_bond_atom_site_label_2
_geom_bond_distance
_geom_bond_site_symmetry_2
_ccdc_geom_bond_type
Zn0 O3 2.031 . S
Zn0 O5 2.049 . S
Zn0 O10 2.067 . S
Zn1 O2 1.962 . S
Zn1 O4 1.986 . S
Zn1 O6 1.996 . S
Zn1 O9 1.943 . S
O2 Zn1 1.962 . S
O2 C7 1.254 . S
O3 Zn0 2.031 . S
O3 C7 1.269 . S
O4 Zn1 1.986 . S
O4 C11 1.262 . S
O5 Zn0 2.049 . S
O5 C13 1.260 . S
O6 Zn1 1.996 . S
O6 C13 1.257 . S
C7 O2 1.254 . S
C7 O3 1.269 . S
C8 O9 1.249 . S
C8 O10 1.270 . S
O9 Zn1 1.943 . S
O9 C8 1.249 . S
O10 Zn0 2.067 . S
O10 C8 1.270 . S
C11 O4 1.262 . S
C11 O12 1.232 . S
O12 C11 1.232 . S
C13 O5 1.260 . S
C13 O6 1.257 . S
Zn14 O17 2.031 1_655 S
Zn14 O19 2.049 . S
Zn14 O24 2.067 . S
Zn15 O16 1.962 . S
Zn15 O18 1.986 . S
Zn15 O20 1.996 . S
Zn15 O23 1.943 . S
O16 Zn15 1.962 . S
O16 C21 1.254 . S
O17 Zn14 2.031 1_455 S
O17 C21 1.269 . S
O18 Zn15 1.986 . S
O18 C25 1.262 . S
O19 Zn14 2.049 . S
O19 C27 1.260 1_655 S
O20 Zn15 1.996 . S
O20 C27 1.257 . S
C21 O16 1.254 . S
C21 O17 1.269 . S
C22 O23 1.249 1_655 S
C22 O24 1.270 . S
O23 Zn15 1.943 . S
O23 C22 1.249 1_455 S
O24 Zn14 2.067 . S
O24 C22 1.270 . S
C25 O18 1.262 . S
C25 O26 1.232 . S
O26 C25 1.232 . S
C27 O19 1.260 1_455 S
C27 O20 1.257 . S
Zn28 O31 2.031 . S
Zn28 O33 2.049 . S
Zn28 O38 2.067 . S
Zn29 O30 1.962 . S
Zn29 O32 1.986 . S
Zn29 O34 1.996 . S
Zn29 O37 1.943 . S
O30 Zn29 1.962 . S
O30 C35 1.254 . S
O31 Zn28 2.031 . S
O31 C35 1.269 . S
O32 Zn29 1.986 . S
O32 C39 1.262 . S
O33 Zn28 2.049 . S
O33 C41 1.260 . S
O34 Zn29 1.996 . S
O34 C41 1.257 . S
C35 O30 1.254 . S
C35 O31 1.269 . S
C36 O37 1.249 . S
C36 O38 1.270 . S
O37 Zn29 1.943 . S
O37 C36 1.249 . S
O38 Zn28 2.067 . S
O38 C36 1.270 . S
C39 O32 1.262 . S
C39 O40 1.232 . S
O40 C39 1.232 . S
C41 O33 1.260 . S
C41 O34 1.257 . S
Zn42 O45 2.031 . S
Zn42 O47 2.049 . S
Zn42 O52 2.067 . S
Zn43 O44 1.962 . S
Zn43 O46 1.986 . S
Zn43 O48 1.996 . S
Zn43 O51 1.943 . S
O44 Zn43 1.962 . S
O44 C49 1.254 . S
O45 Zn42 2.031 . S
O45 C49 1.269 . S
O46 Zn43 1.986 . S
O46 C53 1.262 . S
O47 Zn42 2.049 . S
O47 C55 1.260 . S
O48 Zn43 1.996 . S
O48 C55 1.257 . S
C49 O44 1.254 . S
C49 O45 1.269 . S
C50 O51 1.249 . S
C50 O52 1.270 . S
O51 Zn43 1.943 . S
O51 C50 1.249 . S
O52 Zn42 2.067 . S
O52 C50 1.270 . S
C53 O46 1.262 . S
C53 O54 1.232 . S
O54 C53 1.232 . S
C55 O47 1.260 . S
C55 O48 1.257 . S
Zn56 O59 2.031 . S
Zn56 O61 2.049 . S
Zn56 O66 2.067 . S
Zn57 O58 1.962 . S
Zn57 O60 1.986 1_545 S
Zn57 O62 1.996 . S
Zn57 O65 1.943 . S
O58 Zn57 1.962 . S
O58 C63 1.254 . S
O59 Zn56 2.031 . S
O59 C63 1.269 . S
O60 Zn57 1.986 1_565 S
O60 C67 1.262 . S
O61 Zn56 2.049 . S
O61 C69 1.260 . S
O62 Zn57 1.996 . S
O62 C69 1.257 . S
C63 O58 1.254 . S
C63 O59 1.269 . S
C64 O65 1.249 . S
C64 O66 1.270 . S
O65 Zn57 1.943 . S
O65 C64 1.249 . S
O66 Zn56 2.067 . S
O66 C64 1.270 . S
C67 O60 1.262 . S
C67 O68 1.232 . S
O68 C67 1.232 . S
C69 O61 1.260 . S
C69 O62 1.257 . S
Zn70 O73 2.031 . S
Zn70 O75 2.049 . S
Zn70 O80 2.067 . S
Zn71 O72 1.962 . S
Zn71 O74 1.986 . S
Zn71 O76 1.996 . S
Zn71 O79 1.943 . S
O72 Zn71 1.962 . S
O72 C77 1.254 . S
O73 Zn70 2.031 . S
O73 C77 1.269 . S
O74 Zn71 1.986 . S
O74 C81 1.262 . S
O75 Zn70 2.049 . S
O75 C83 1.260 . S
O76 Zn71 1.996 . S
O76 C83 1.257 . S
C77 O72 1.254 . S
C77 O73 1.269 . S
C78 O79 1.249 . S
C78 O80 1.270 . S
O79 Zn71 1.943 . S
O79 C78 1.249 . S
O80 Zn70 2.067 . S
O80 C78 1.270 . S
C81 O74 1.262 . S
C81 O82 1.232 . S
O82 C81 1.232 . S
C83 O75 1.260 . S
C83 O76 1.257 . S
Zn84 O87 2.031 . S
Zn84 O89 2.049 . S
Zn84 O94 2.067 . S
Zn85 O86 1.962 . S
Zn85 O88 1.986 . S
Zn85 O90 1.996 . S
Zn85 O93 1.943 1_545 S
O86 Zn85 1.962 . S
O86 C91 1.254 . S
O87 Zn84 2.031 . S
O87 C91 1.269 1_565 S
O88 Zn85 1.986 . S
O88 C95 1.262 . S
O89 Zn84 2.049 . S
O89 C97 1.260 1_565 S
O90 Zn85 1.996 . S
O90 C97 1.257 . S
C91 O86 1.254 . S
C91 O87 1.269 1_545 S
C92 O93 1.249 . S
C92 O94 1.270 . S
O93 Zn85 1.943 1_565 S
O93 C92 1.249 . S
O94 Zn84 2.067 . S
O94 C92 1.270 . S
C95 O88 1.262 . S
C95 O96 1.232 . S
O96 C95 1.232 . S
C97 O89 1.260 1_545 S
C97 O90 1.257 . S
Zn98 O101 2.075 . S
Zn98 O103 2.049 . S
Zn98 O108 2.067 . S
Zn99 O100 1.962 . S
Zn99 O102 1.986 . S
Zn99 O104 1.996 . S
Zn99 O107 1.943 . S
O100 Zn99 1.962 . S
O100 C105 1.254 1_554 S
O101 Zn98 2.075 . S
O101 C105 1.249 1_554 S
O102 Zn99 1.986 . S
O102 C109 1.262 . S
O103 Zn98 2.049 . S
O103 C111 1.260 . S
O104 Zn99 1.996 . S
O104 C111 1.257 . S
C105 O100 1.254 1_556 S
C105 O101 1.249 1_556 S
C106 O107 1.249 . S
C106 O108 1.270 . S
O107 Zn99 1.943 . S
O107 C106 1.249 . S
O108 Zn98 2.067 . S
O108 C106 1.270 . S
C109 O102 1.262 . S
C109 O110 1.232 . S
O110 C109 1.232 . S
C111 O103 1.260 . S
C111 O104 1.257 . S
Zn112 O115 2.031 . S
Zn112 O117 2.049 . S
Zn112 O122 2.067 . S
Zn113 O114 1.962 . S
Zn113 O116 1.986 . S
Zn113 O118 1.996 . S
Zn113 O121 1.943 . S
O114 Zn113 1.962 . S
O114 C119 1.254 . S
O115 Zn112 2.031 . S
O115 C119 1.269 . S
O116 Zn113 1.986 . S
O116 C123 1.262 . S
O117 Zn112 2.049 . S
O117 C125 1.260 . S
O118 Zn113 1.996 . S
O118 C125 1.257 . S
C119 O114 1.254 . S
C119 O115 1.269 . S
C120 O121 1.249 . S
C120 O122 1.270 . S
O121 Zn113 1.943 . S
O121 C120 1.249 . S
O122 Zn112 2.067 . S
O122 C120 1.270 . S
C123 O116 1.262 . S
C123 O124 1.232 . S
O124 C123 1.232 . S
C125 O117 1.260 . S
C125 O118 1.257 . S
Zn126 O129 2.031 . S
Zn126 O131 2.049 . S
Zn126 O136 2.067 . S
Zn127 O128 1.962 . S
Zn127 O130 1.986 . S
Zn127 O132 1.996 . S
Zn127 O135 1.943 . S
O128 Zn127 1.962 . S
O128 C133 1.254 . S
O129 Zn126 2.031 . S
O129 C133 1.269 . S
O130 Zn127 1.986 . S
O130 C137 1.262 . S
O131 Zn126 2.049 . S
O131 C139 1.260 . S
O132 Zn127 1.996 . S
O132 C139 1.257 . S
C133 O128 1.254 . S
C133 O129 1.269 . S
C134 O135 1.249 . S
C134 O136 1.270 . S
O135 Zn127 1.943 . S
O135 C134 1.249 . S
O136 Zn126 2.067 . S
O136 C134 1.270 . S
C137 O130 1.262 . S
C137 O138 1.232 . S
O138 C137 1.232 . S
C139 O131 1.260 . S
C139 O132 1.257 . S
Zn140 O143 2.031 . S
Zn140 O145 2.049 . S
Zn140 O150 2.067 . S
Zn141 O142 1.962 . S
Zn141 O144 1.986 . S
Zn141 O146 1.996 . S
Zn141 O149 1.943 . S
O142 Zn141 1.962 . S
O142 C147 1.254 . S
O143 Zn140 2.031 . S
O143 C147 1.269 . S
O144 Zn141 1.986 . S
O144 C151 1.262 . S
O145 Zn140 2.049 . S
O145 C153 1.260 . S
O146 Zn141 1.996 . S
O146 C153 1.257 . S
C147 O142 1.254 . S
C147 O143 1.269 . S
C148 O149 1.249 . S
C148 O150 1.270 . S
O149 Zn141 1.943 . S
O149 C148 1.249 . S
O150 Zn140 2.067 . S
O150 C148 1.270 . S
C151 O144 1.262 . S
C151 O152 1.232 . S
O152 C151 1.232 . S
C153 O145 1.260 . S
C153 O146 1.257 . S
Zn154 O157 2.031 . S
Zn154 O159 2.049 . S
Zn154 O164 2.067 . S
Zn155 O156 1.962 . S
Zn155 O158 1.986 . S
Zn155 O160 1.996 . S
Zn155 O163 1.943 . S
O156 Zn155 1.962 . S
O156 C161 1.254 . S
O157 Zn154 2.031 . S
O157 C161 1.269 . S
O158 Zn155 1.986 . S
O158 C165 1.262 . S
O159 Zn154 2.049 . S
O159 C167 1.260 . S
O160 Zn155 1.996 . S
O160 C167 1.257 . S
C161 O156 1.254 . S
C161 O157 1.269 . S
C162 O163 1.249 . S
C162 O164 1.270 . S
O163 Zn155 1.943 . S
O163 C162 1.249 . S
O164 Zn154 2.067 . S
O164 C162 1.270 . S
C165 O158 1.262 . S
C165 O166 1.232 . S
O166 C165 1.232 . S
C167 O159 1.260 . S
C167 O160 1.257 . S
Zn168 O171 2.031 . S
Zn168 O173 2.049 . S
Zn168 O178 2.067 . S
Zn169 O170 1.962 . S
Zn169 O172 1.986 . S
Zn169 O174 1.996 . S
Zn169 O177 1.943 1_455 S
O170 Zn169 1.962 . S
O170 C175 1.254 1_455 S
O171 Zn168 2.031 . S
O171 C175 1.269 . S
O172 Zn169 1.986 . S
O172 C179 1.262 . S
O173 Zn168 2.049 . S
O173 C181 1.260 . S
O174 Zn169 1.996 . S
O174 C181 1.257 1_455 S
C175 O170 1.254 1_655 S
C175 O171 1.269 . S
C176 O177 1.249 . S
C176 O178 1.270 . S
O177 Zn169 1.943 1_655 S
O177 C176 1.249 . S
O178 Zn168 2.067 . S
O178 C176 1.270 . S
C179 O172 1.262 . S
C179 O180 1.232 . S
O180 C179 1.232 . S
C181 O173 1.260 . S
C181 O174 1.257 1_655 S
Zn182 O185 2.031 . S
Zn182 O187 2.049 . S
Zn182 O192 2.067 . S
Zn183 O184 1.962 . S
Zn183 O186 1.986 1_455 S
Zn183 O188 1.996 . S
Zn183 O191 1.943 . S
O184 Zn183 1.962 . S
O184 C189 1.254 . S
O185 Zn182 2.031 . S
O185 C189 1.269 . S
O186 Zn183 1.986 1_655 S
O186 C193 1.262 . S
O187 Zn182 2.049 . S
O187 C195 1.260 . S
O188 Zn183 1.996 . S
O188 C195 1.257 . S
C189 O184 1.254 . S
C189 O185 1.269 . S
C190 O191 1.249 . S
C190 O192 1.270 . S
O191 Zn183 1.943 . S
O191 C190 1.249 . S
O192 Zn182 2.067 . S
O192 C190 1.270 . S
C193 O186 1.262 . S
C193 O194 1.232 . S
O194 C193 1.232 . S
C195 O187 1.260 . S
C195 O188 1.257 . S
Zn196 O199 2.031 . S
Zn196 O201 2.049 . S
Zn196 O206 2.067 . S
Zn197 O198 1.962 . S
Zn197 O200 1.986 . S
Zn197 O202 1.996 . S
Zn197 O205 1.943 . S
O198 Zn197 1.962 . S
O198 C203 1.254 . S
O199 Zn196 2.031 . S
O199 C203 1.269 . S
O200 Zn197 1.986 . S
O200 C207 1.262 . S
O201 Zn196 2.049 . S
O201 C209 1.260 . S
O202 Zn197 1.996 . S
O202 C209 1.257 . S
C203 O198 1.254 . S
C203 O199 1.269 . S
C204 O205 1.249 . S
C204 O206 1.270 . S
O205 Zn197 1.943 . S
O205 C204 1.249 . S
O206 Zn196 2.067 . S
O206 C204 1.270 . S
C207 O200 1.262 . S
C207 O208 1.232 . S
O208 C207 1.232 . S
C209 O201 1.260 . S
C209 O202 1.257 . S
Zn210 O213 2.031 . S
Zn210 O215 2.049 . S
Zn210 O220 2.067 . S
Zn211 O212 1.962 . S
Zn211 O214 1.986 . S
Zn211 O216 1.996 . S
Zn211 O219 1.943 . S
O212 Zn211 1.962 . S
O212 C217 1.254 . S
O213 Zn210 2.031 . S
O213 C217 1.269 . S
O214 Zn211 1.986 . S
O214 C221 1.262 . S
O215 Zn210 2.049 . S
O215 C223 1.260 . S
O216 Zn211 1.996 . S
O216 C223 1.257 . S
C217 O212 1.254 . S
C217 O213 1.269 . S
C218 O219 1.249 . S
C218 O220 1.270 . S
O219 Zn211 1.943 . S
O219 C218 1.249 . S
O220 Zn210 2.067 . S
O220 C218 1.270 . S
C221 O214 1.262 . S
C221 O222 1.232 . S
O222 C221 1.232 . S
C223 O215 1.260 . S
C223 O216 1.257 . S
Zn224 O227 2.031 . S
Zn224 O229 2.049 . S
Zn224 O234 2.067 . S
Zn225 O226 1.962 . S
Zn225 O228 1.986 . S
Zn225 O230 1.996 . S
Zn225 O233 1.943 1_545 S
O226 Zn225 1.962 . S
O226 C231 1.254 . S
O227 Zn224 2.031 . S
O227 C231 1.269 1_565 S
O228 Zn225 1.986 . S
O228 C235 1.262 . S
O229 Zn224 2.049 . S
O229 C237 1.260 . S
O230 Zn225 1.996 . S
O230 C237 1.257 1_545 S
C231 O226 1.254 . S
C231 O227 1.269 1_545 S
C232 O233 1.249 . S
C232 O234 1.270 . S
O233 Zn225 1.943 1_565 S
O233 C232 1.249 . S
O234 Zn224 2.067 . S
O234 C232 1.270 . S
C235 O228 1.262 . S
C235 O236 1.232 . S
O236 C235 1.232 . S
C237 O229 1.260 . S
C237 O230 1.257 1_565 S
Zn238 O241 2.031 . S
Zn238 O243 2.049 . S
Zn238 O248 2.067 . S
Zn239 O240 1.962 . S
Zn239 O242 1.986 . S
Zn239 O244 1.996 . S
Zn239 O247 1.943 . S
O240 Zn239 1.962 . S
O240 C245 1.254 . S
O241 Zn238 2.031 . S
O241 C245 1.269 . S
O242 Zn239 1.986 . S
O242 C249 1.262 . S
O243 Zn238 2.049 . S
O243 C251 1.260 . S
O244 Zn239 1.996 . S
O244 C251 1.257 . S
C245 O240 1.254 . S
C245 O241 1.269 . S
C246 O247 1.249 . S
C246 O248 1.270 . S
O247 Zn239 1.943 . S
O247 C246 1.249 . S
O248 Zn238 2.067 . S
O248 C246 1.270 . S
C249 O242 1.262 . S
C249 O250 1.232 . S
O250 C249 1.232 . S
C251 O243 1.260 . S
C251 O244 1.257 . S
Zn252 O255 2.031 . S
Zn252 O257 2.049 . S
Zn252 O262 2.067 . S
Zn253 O254 1.964 . S
Zn253 O256 1.986 1_545 S
Zn253 O258 1.996 . S
Zn253 O261 1.943 . S
O254 Zn253 1.964 . S
O254 C259 1.284 . S
O255 Zn252 2.031 . S
O255 C259 1.269 . S
O256 Zn253 1.986 1_565 S
O256 C263 1.262 . S
O257 Zn252 2.049 . S
O257 C265 1.260 . S
O258 Zn253 1.996 . S
O258 C265 1.257 . S
C259 O254 1.284 . S
C259 O255 1.269 . S
C260 O261 1.249 . S
C260 O262 1.270 . S
O261 Zn253 1.943 . S
O261 C260 1.249 . S
O262 Zn252 2.067 . S
O262 C260 1.270 . S
C263 O256 1.262 . S
C263 O264 1.232 . S
O264 C263 1.232 . S
C265 O257 1.260 . S
C265 O258 1.257 . S
Zn266 O269 2.031 . S
Zn266 O271 2.049 . S
Zn266 O276 2.067 . S
Zn267 O268 1.964 1_554 S
Zn267 O270 1.986 . S
Zn267 O272 1.996 . S
Zn267 O275 1.943 . S
O268 Zn267 1.964 1_556 S
O268 C273 1.253 . S
O269 Zn266 2.031 . S
O269 C273 1.269 1_554 S
O270 Zn267 1.986 . S
O270 C277 1.262 . S
O271 Zn266 2.049 . S
O271 C279 1.260 . S
O272 Zn267 1.996 . S
O272 C279 1.257 . S
C273 O268 1.253 . S
C273 O269 1.269 1_556 S
C274 O275 1.249 . S
C274 O276 1.270 . S
O275 Zn267 1.943 . S
O275 C274 1.249 . S
O276 Zn266 2.067 . S
O276 C274 1.270 . S
C277 O270 1.262 . S
C277 O278 1.232 . S
O278 C277 1.232 . S
C279 O271 1.260 . S
C279 O272 1.257 . S
Zn280 O283 2.031 1_554 S
Zn280 O285 2.049 . S
Zn280 O290 2.067 . S
Zn281 O282 1.993 . S
Zn281 O284 1.970 1_556 S
Zn281 O286 1.971 1_556 S
Zn281 O289 1.942 . S
O282 Zn281 1.993 . S
O282 C287 1.254 . S
O283 Zn280 2.031 1_556 S
O283 C287 1.269 . S
O284 Zn281 1.970 1_554 S
O284 C291 1.264 . S
O285 Zn280 2.049 . S
O285 C293 1.260 . S
O286 Zn281 1.971 1_554 S
O286 C293 1.257 . S
C287 O282 1.254 . S
C287 O283 1.269 . S
C288 O289 1.245 1_554 S
C288 O290 1.281 . S
O289 Zn281 1.942 . S
O289 C288 1.245 1_556 S
O290 Zn280 2.067 . S
O290 C288 1.281 . S
C291 O284 1.264 . S
C291 O292 1.230 1_554 S
O292 C291 1.230 1_556 S
C293 O285 1.260 . S
C293 O286 1.257 . S
Zn294 O297 2.031 . S
Zn294 O299 2.049 . S
Zn294 O304 2.067 . S
Zn295 O296 1.962 . S
Zn295 O298 1.986 . S
Zn295 O300 1.996 . S
Zn295 O303 1.943 . S
O296 Zn295 1.962 . S
O296 C301 1.254 . S
O297 Zn294 2.031 . S
O297 C301 1.269 . S
O298 Zn295 1.986 . S
O298 C305 1.262 . S
O299 Zn294 2.049 . S
O299 C307 1.260 . S
O300 Zn295 1.996 . S
O300 C307 1.257 . S
C301 O296 1.254 . S
C301 O297 1.269 . S
C302 O303 1.249 . S
C302 O304 1.270 . S
O303 Zn295 1.943 . S
O303 C302 1.249 . S
O304 Zn294 2.067 . S
O304 C302 1.270 . S
C305 O298 1.262 . S
C305 O306 1.232 . S
O306 C305 1.232 . S
C307 O299 1.260 . S
C307 O300 1.257 . S
Zn308 O311 2.031 . S
Zn308 O313 2.049 . S
Zn308 O318 2.067 . S
Zn309 O310 1.962 . S
Zn309 O312 1.986 . S
Zn309 O314 1.996 . S
Zn309 O317 1.943 . S
O310 Zn309 1.962 . S
O310 C315 1.254 . S
O311 Zn308 2.031 . S
O311 C315 1.269 . S
O312 Zn309 1.986 . S
O312 C319 1.262 . S
O313 Zn308 2.049 . S
O313 C321 1.260 . S
O314 Zn309 1.996 . S
O314 C321 1.257 . S
C315 O310 1.254 . S
C315 O311 1.269 . S
C316 O317 1.249 . S
C316 O318 1.270 . S
O317 Zn309 1.943 . S
O317 C316 1.249 . S
O318 Zn308 2.067 . S
O318 C316 1.270 . S
C319 O312 1.262 . S
C319 O320 1.232 . S
O320 C319 1.232 . S
C321 O313 1.260 . S
C321 O314 1.257 . S
Zn322 O325 2.031 . S
Zn322 O327 2.049 . S
Zn322 O332 2.067 . S
Zn323 O324 1.962 . S
Zn323 O326 1.986 . S
Zn323 O328 1.996 . S
Zn323 O331 1.943 . S
O324 Zn323 1.962 . S
O324 C329 1.254 . S
O325 Zn322 2.031 . S
O325 C329 1.269 . S
O326 Zn323 1.986 . S
O326 C333 1.262 . S
O327 Zn322 2.049 . S
O327 C335 1.260 . S
O328 Zn323 1.996 . S
O328 C335 1.257 . S
C329 O324 1.254 . S
C329 O325 1.269 . S
C330 O331 1.249 . S
C330 O332 1.270 . S
O331 Zn323 1.943 . S
O331 C330 1.249 . S
O332 Zn322 2.067 . S
O332 C330 1.270 . S
C333 O326 1.262 . S
C333 O334 1.232 . S
O334 C333 1.232 . S
C335 O327 1.260 . S
C335 O328 1.257 . S
C336 O352 1.251 1_455 S
C336 O354 1.254 . S
N337 C338 1.333 1_565 S
N337 C342 1.307 . S
N337 Zn343 2.020 1_665 S
C338 N337 1.333 1_545 S
C338 C339 1.373 1_545 S
C338 H356 0.952 . S
C339 C338 1.373 1_565 S
C339 C340 1.417 . S
C339 H366 0.929 1_565 S
C340 C339 1.417 . S
C340 C341 1.357 . S
C341 C340 1.357 . S
C341 C342 1.370 . S
C341 H367 0.950 . S
C342 N337 1.307 . S
C342 C341 1.370 . S
C342 H360 0.948 . S
Zn343 N337 2.020 1_445 S
Zn343 O352 2.039 1_454 S
Zn343 O358 2.034 . S
Zn343 O362 2.025 1_545 S
Zn343 O364 2.024 1_545 S
C344 O363 1.246 . S
C344 O364 1.249 . S
N345 C346 1.307 1_554 S
N345 C347 1.333 . S
N345 Zn351 2.020 . S
C346 N345 1.307 1_556 S
C346 C350 1.370 . S
C346 H357 0.948 . S
C347 N345 1.333 . S
C347 C348 1.379 . S
C347 H355 0.952 . S
C348 C347 1.379 . S
C348 C349 1.390 1_554 S
C348 H368 0.949 . S
C349 C348 1.390 1_556 S
C349 C350 1.357 . S
C350 C346 1.370 . S
C350 C349 1.357 . S
C350 H369 0.950 . S
Zn351 N345 2.020 . S
Zn351 O354 2.025 1_554 S
Zn351 O359 2.024 . S
Zn351 O361 2.039 . S
Zn351 O363 2.034 1_545 S
O352 C336 1.251 1_655 S
O352 Zn343 2.039 1_656 S
C353 O358 1.246 . S
C353 O359 1.249 . S
O354 C336 1.254 . S
O354 Zn351 2.025 1_556 S
H355 C347 0.952 . S
H356 C338 0.952 . S
H357 C346 0.948 . S
O358 Zn343 2.034 . S
O358 C353 1.246 . S
O359 Zn351 2.024 . S
O359 C353 1.249 . S
H360 C342 0.948 . S
O361 Zn351 2.039 . S
O361 C365 1.242 1_545 S
O362 Zn343 2.025 1_565 S
O362 C365 1.258 . S
O363 C344 1.246 . S
O363 Zn351 2.034 1_565 S
O364 Zn343 2.024 1_565 S
O364 C344 1.249 . S
C365 O361 1.242 1_565 S
C365 O362 1.258 . S
H366 C339 0.929 1_545 S
H367 C341 0.950 . S
H368 C348 0.949 . S
H369 C350 0.950 . S
C370 O386 1.251 . S
C370 O388 1.254 . S
N371 C372 1.333 . S
N371 C376 1.307 . S
N371 Zn377 2.020 . S
C372 N371 1.333 . S
C372 C373 1.379 . S
C372 H390 0.952 . S
C373 C372 1.379 . S
C373 C374 1.390 . S
C373 H400 0.949 . S
C374 C373 1.390 . S
C374 C375 1.357 . S
C375 C374 1.357 . S
C375 C376 1.370 . S
C375 H401 0.950 . S
C376 N371 1.307 . S
C376 C375 1.370 . S
C376 H394 0.948 . S
Zn377 N371 2.020 . S
Zn377 O386 2.039 . S
Zn377 O392 2.034 . S
Zn377 O396 2.025 . S
Zn377 O398 2.024 . S
C378 O397 1.246 . S
C378 O398 1.249 . S
N379 C380 1.307 . S
N379 C381 1.333 . S
N379 Zn385 2.020 . S
C380 N379 1.307 . S
C380 C384 1.370 . S
C380 H391 0.948 . S
C381 N379 1.333 . S
C381 C382 1.379 . S
C381 H389 0.952 . S
C382 C381 1.379 . S
C382 C383 1.390 . S
C382 H402 0.949 . S
C383 C382 1.390 . S
C383 C384 1.357 . S
C384 C380 1.370 . S
C384 C383 1.357 . S
C384 H403 0.950 . S
Zn385 N379 2.020 . S
Zn385 O388 2.025 . S
Zn385 O393 2.024 . S
Zn385 O395 2.039 . S
Zn385 O397 2.034 . S
O386 C370 1.251 . S
O386 Zn377 2.039 . S
C387 O392 1.246 . S
C387 O393 1.249 . S
O388 C370 1.254 . S
O388 Zn385 2.025 . S
H389 C381 0.952 . S
H390 C372 0.952 . S
H391 C380 0.948 . S
O392 Zn377 2.034 . S
O392 C387 1.246 . S
O393 Zn385 2.024 . S
O393 C387 1.249 . S
H394 C376 0.948 . S
O395 Zn385 2.039 . S
O395 C399 1.251 . S
O396 Zn377 2.025 . S
O396 C399 1.254 . S
O397 C378 1.246 . S
O397 Zn385 2.034 . S
O398 Zn377 2.024 . S
O398 C378 1.249 . S
C399 O395 1.251 . S
C399 O396 1.254 . S
H400 C373 0.949 . S
H401 C375 0.950 . S
H402 C382 0.949 . S
H403 C384 0.950 . S
C404 O420 1.251 . S
C404 O422 1.254 . S
N405 C406 1.333 . S
N405 C410 1.307 . S
N405 Zn411 2.020 . S
C406 N405 1.333 . S
C406 C407 1.379 . S
C406 H424 0.952 . S
C407 C406 1.379 . S
C407 C408 1.390 . S
C407 H434 0.949 . S
C408 C407 1.390 . S
C408 C409 1.357 . S
C409 C408 1.357 . S
C409 C410 1.370 . S
C409 H435 0.950 . S
C410 N405 1.307 . S
C410 C409 1.370 . S
C410 H428 0.948 . S
Zn411 N405 2.020 . S
Zn411 O420 2.039 1_565 S
Zn411 O426 2.034 1_565 S
Zn411 O430 2.025 . S
Zn411 O432 2.024 . S
C412 O431 1.246 1_565 S
C412 O432 1.249 . S
N413 C414 1.307 . S
N413 C415 1.333 . S
N413 Zn419 2.020 . S
C414 N413 1.307 . S
C414 C418 1.370 . S
C414 H425 0.948 . S
C415 N413 1.333 . S
C415 C416 1.379 . S
C415 H423 0.952 . S
C416 C415 1.379 . S
C416 C417 1.390 . S
C416 H436 0.949 . S
C417 C416 1.390 . S
C417 C418 1.357 . S
C418 C414 1.370 . S
C418 C417 1.357 . S
C418 H437 0.950 . S
Zn419 N413 2.020 . S
Zn419 O422 2.025 . S
Zn419 O427 2.024 . S
Zn419 O429 2.039 . S
Zn419 O431 2.034 . S
O420 C404 1.251 . S
O420 Zn411 2.039 1_545 S
C421 O426 1.246 . S
C421 O427 1.249 . S
O422 C404 1.254 . S
O422 Zn419 2.025 . S
H423 C415 0.952 . S
H424 C406 0.952 . S
H425 C414 0.948 . S
O426 Zn411 2.034 1_545 S
O426 C421 1.246 . S
O427 Zn419 2.024 . S
O427 C421 1.249 . S
H428 C410 0.948 . S
O429 Zn419 2.039 . S
O429 C433 1.251 . S
O430 Zn411 2.025 . S
O430 C433 1.254 1_565 S
O431 C412 1.246 1_545 S
O431 Zn419 2.034 . S
O432 Zn411 2.024 . S
O432 C412 1.249 . S
C433 O429 1.251 . S
C433 O430 1.254 1_545 S
H434 C407 0.949 . S
H435 C409 0.950 . S
H436 C416 0.949 . S
H437 C418 0.950 . S
C438 O454 1.251 . S
C438 O456 1.254 . S
N439 C440 1.333 . S
N439 C444 1.307 . S
N439 Zn445 2.020 . S
C440 N439 1.333 . S
C440 C441 1.379 . S
C440 H458 0.952 . S
C441 C440 1.379 . S
C441 C442 1.390 . S
C441 H468 0.949 . S
C442 C441 1.390 . S
C442 C443 1.357 . S
C443 C442 1.357 . S
C443 C444 1.370 . S
C443 H469 0.950 . S
C444 N439 1.307 . S
C444 C443 1.370 . S
C444 H462 0.948 . S
Zn445 N439 2.020 . S
Zn445 O454 2.039 . S
Zn445 O460 2.034 . S
Zn445 O464 2.025 . S
Zn445 O466 2.024 . S
C446 O465 1.246 . S
C446 O466 1.249 . S
N447 C448 1.307 . S
N447 C449 1.333 . S
N447 Zn453 2.020 . S
C448 N447 1.307 . S
C448 C452 1.370 . S
C448 H459 0.948 . S
C449 N447 1.333 . S
C449 C450 1.379 . S
C449 H457 0.952 . S
C450 C449 1.379 . S
C450 C451 1.390 . S
C450 H470 0.949 . S
C451 C450 1.390 . S
C451 C452 1.357 . S
C452 C448 1.370 . S
C452 C451 1.357 . S
C452 H471 0.950 . S
Zn453 N447 2.020 . S
Zn453 O456 2.025 . S
Zn453 O461 2.024 . S
Zn453 O463 2.039 . S
Zn453 O465 2.034 . S
O454 C438 1.251 . S
O454 Zn445 2.039 . S
C455 O460 1.246 . S
C455 O461 1.249 . S
O456 C438 1.254 . S
O456 Zn453 2.025 . S
H457 C449 0.952 . S
H458 C440 0.952 . S
H459 C448 0.948 . S
O460 Zn445 2.034 . S
O460 C455 1.246 . S
O461 Zn453 2.024 . S
O461 C455 1.249 . S
H462 C444 0.948 . S
O463 Zn453 2.039 . S
O463 C467 1.251 . S
O464 Zn445 2.025 . S
O464 C467 1.254 . S
O465 C446 1.246 . S
O465 Zn453 2.034 . S
O466 Zn445 2.024 . S
O466 C446 1.249 . S
C467 O463 1.251 . S
C467 O464 1.254 . S
H468 C441 0.949 . S
H469 C443 0.950 . S
H470 C450 0.949 . S
H471 C452 0.950 . S
C472 O488 1.251 1_565 S
C472 O490 1.254 . S
N473 C474 1.333 . S
N473 C478 1.307 . S
N473 Zn479 2.020 . S
C474 N473 1.333 . S
C474 C475 1.379 . S
C474 H492 0.952 . S
C475 C474 1.379 . S
C475 C476 1.390 . S
C475 H502 0.949 . S
C476 C475 1.390 . S
C476 C477 1.357 . S
C477 C476 1.357 . S
C477 C478 1.370 . S
C477 H503 0.950 . S
C478 N473 1.307 . S
C478 C477 1.370 . S
C478 H496 0.948 . S
Zn479 N473 2.020 . S
Zn479 O488 2.039 . S
Zn479 O494 2.034 . S
Zn479 O498 2.025 1_455 S
Zn479 O500 2.024 1_545 S
C480 O499 1.246 . S
C480 O500 1.249 . S
N481 C482 1.307 . S
N481 C483 1.333 1_455 S
N481 Zn487 2.020 1_565 S
C482 N481 1.307 . S
C482 C486 1.370 . S
C482 H493 0.948 1_565 S
C483 N481 1.333 1_655 S
C483 C484 1.379 . S
C483 H491 0.952 . S
C484 C483 1.379 . S
C484 C485 1.390 . S
C484 H504 0.949 . S
C485 C484 1.390 . S
C485 C486 1.357 1_655 S
C486 C482 1.370 . S
C486 C485 1.357 1_455 S
C486 H505 0.950 . S
Zn487 N481 2.020 1_545 S
Zn487 O490 2.025 1_545 S
Zn487 O495 2.024 . S
Zn487 O497 2.039 1_455 S
Zn487 O499 2.034 1_545 S
O488 C472 1.251 1_545 S
O488 Zn479 2.039 . S
C489 O494 1.246 . S
C489 O495 1.249 . S
O490 C472 1.254 . S
O490 Zn487 2.025 1_565 S
H491 C483 0.952 . S
H492 C474 0.952 . S
H493 C482 0.948 1_545 S
O494 Zn479 2.034 . S
O494 C489 1.246 . S
O495 Zn487 2.024 . S
O495 C489 1.249 . S
H496 C478 0.948 . S
O497 Zn487 2.039 1_655 S
O497 C501 1.251 . S
O498 Zn479 2.025 1_655 S
O498 C501 1.254 . S
O499 C480 1.246 . S
O499 Zn487 2.034 1_565 S
O500 Zn479 2.024 1_565 S
O500 C480 1.249 . S
C501 O497 1.251 . S
C501 O498 1.254 . S
H502 C475 0.949 . S
H503 C477 0.950 . S
H504 C484 0.949 . S
H505 C486 0.950 . S
C506 O522 1.251 . S
C506 O524 1.254 . S
N507 C508 1.333 . S
N507 C512 1.307 . S
N507 Zn513 2.020 . S
C508 N507 1.333 . S
C508 C509 1.379 . S
C508 H526 0.952 . S
C509 C508 1.379 . S
C509 C510 1.390 . S
C509 H536 0.949 . S
C510 C509 1.390 . S
C510 C511 1.357 . S
C511 C510 1.357 . S
C511 C512 1.370 . S
C511 H537 0.950 . S
C512 N507 1.307 . S
C512 C511 1.370 . S
C512 H530 0.948 . S
Zn513 N507 2.020 . S
Zn513 O522 2.039 . S
Zn513 O528 2.034 . S
Zn513 O532 2.025 . S
Zn513 O534 2.024 . S
C514 O533 1.246 . S
C514 O534 1.249 . S
N515 C516 1.307 . S
N515 C517 1.333 . S
N515 Zn521 2.020 . S
C516 N515 1.307 . S
C516 C520 1.370 . S
C516 H527 0.948 . S
C517 N515 1.333 . S
C517 C518 1.379 . S
C517 H525 0.952 . S
C518 C517 1.379 . S
C518 C519 1.390 . S
C518 H538 0.949 . S
C519 C518 1.390 . S
C519 C520 1.357 . S
C520 C516 1.370 . S
C520 C519 1.357 . S
C520 H539 0.950 . S
Zn521 N515 2.020 . S
Zn521 O524 2.025 . S
Zn521 O529 2.024 . S
Zn521 O531 2.039 . S
Zn521 O533 2.034 . S
O522 C506 1.251 . S
O522 Zn513 2.039 . S
C523 O528 1.246 . S
C523 O529 1.249 . S
O524 C506 1.254 . S
O524 Zn521 2.025 . S
H525 C517 0.952 . S
H526 C508 0.952 . S
H527 C516 0.948 . S
O528 Zn513 2.034 . S
O528 C523 1.246 . S
O529 Zn521 2.024 . S
O529 C523 1.249 . S
H530 C512 0.948 . S
O531 Zn521 2.039 . S
O531 C535 1.251 . S
O532 Zn513 2.025 . S
O532 C535 1.254 . S
O533 C514 1.246 . S
O533 Zn521 2.034 . S
O534 Zn513 2.024 . S
O534 C514 1.249 . S
C535 O531 1.251 . S
C535 O532 1.254 . S
H536 C509 0.949 . S
H537 C511 0.950 . S
H538 C518 0.949 . S
H539 C520 0.950 . S
C540 O556 1.251 . S
C540 O558 1.254 . S
N541 C542 1.333 . S
N541 C546 1.307 . S
N541 Zn547 2.020 . S
C542 N541 1.333 . S
C542 C543 1.379 . S
C542 H560 0.952 . S
C543 C542 1.379 . S
C543 C544 1.390 . S
C543 H570 0.949 . S
C544 C543 1.390 . S
C544 C545 1.357 . S
C545 C544 1.357 . S
C545 C546 1.370 . S
C545 H571 0.950 . S
C546 N541 1.307 . S
C546 C545 1.370 . S
C546 H564 0.948 . S
Zn547 N541 2.020 . S
Zn547 O556 2.039 1_545 S
Zn547 O562 2.034 . S
Zn547 O566 2.025 . S
Zn547 O568 2.024 . S
C548 O567 1.246 . S
C548 O568 1.249 1_565 S
N549 C550 1.307 . S
N549 C551 1.333 1_565 S
N549 Zn555 2.020 1_566 S
C550 N549 1.307 . S
C550 C554 1.370 . S
C550 H561 0.948 . S
C551 N549 1.333 1_545 S
C551 C552 1.378 1_545 S
C551 H559 0.952 . S
C552 C551 1.378 1_565 S
C552 C553 1.396 . S
C552 H572 0.944 1_565 S
C553 C552 1.396 . S
C553 C554 1.357 . S
C554 C550 1.370 . S
C554 C553 1.357 . S
C554 H573 0.950 . S
Zn555 N549 2.020 1_544 S
Zn555 O558 2.025 1_545 S
Zn555 O563 2.024 . S
Zn555 O565 2.039 1_554 S
Zn555 O567 2.034 1_545 S
O556 C540 1.251 . S
O556 Zn547 2.039 1_565 S
C557 O562 1.246 . S
C557 O563 1.249 . S
O558 C540 1.254 . S
O558 Zn555 2.025 1_565 S
H559 C551 0.952 . S
H560 C542 0.952 . S
H561 C550 0.948 . S
O562 Zn547 2.034 . S
O562 C557 1.246 . S
O563 Zn555 2.024 . S
O563 C557 1.249 . S
H564 C546 0.948 . S
O565 Zn555 2.039 1_556 S
O565 C569 1.251 1_556 S
O566 Zn547 2.025 . S
O566 C569 1.254 . S
O567 C548 1.246 . S
O567 Zn555 2.034 1_565 S
O568 Zn547 2.024 . S
O568 C548 1.249 1_545 S
C569 O565 1.251 1_554 S
C569 O566 1.254 . S
H570 C543 0.949 . S
H571 C545 0.950 . S
H572 C552 0.944 1_545 S
H573 C554 0.950 . S
C574 O590 1.251 . S
C574 O592 1.254 . S
N575 C576 1.333 . S
N575 C580 1.307 . S
N575 Zn581 2.020 . S
C576 N575 1.333 . S
C576 C577 1.379 . S
C576 H594 0.952 . S
C577 C576 1.379 . S
C577 C578 1.390 . S
C577 H604 0.949 . S
C578 C577 1.390 . S
C578 C579 1.357 . S
C579 C578 1.357 . S
C579 C580 1.370 . S
C579 H605 0.950 . S
C580 N575 1.307 . S
C580 C579 1.370 . S
C580 H598 0.948 . S
Zn581 N575 2.020 . S
Zn581 O590 2.039 . S
Zn581 O596 2.034 . S
Zn581 O600 2.025 . S
Zn581 O602 2.024 . S
C582 O601 1.246 . S
C582 O602 1.249 . S
N583 C584 1.307 . S
N583 C585 1.333 . S
N583 Zn589 2.020 . S
C584 N583 1.307 . S
C584 C588 1.370 . S
C584 H595 0.948 . S
C585 N583 1.333 . S
C585 C586 1.379 . S
C585 H593 0.952 . S
C586 C585 1.379 . S
C586 C587 1.390 . S
C586 H606 0.949 . S
C587 C586 1.390 . S
C587 C588 1.357 . S
C588 C584 1.370 . S
C588 C587 1.357 . S
C588 H607 0.950 . S
Zn589 N583 2.020 . S
Zn589 O592 2.025 . S
Zn589 O597 2.024 . S
Zn589 O599 2.039 . S
Zn589 O601 2.034 . S
O590 C574 1.251 . S
O590 Zn581 2.039 . S
C591 O596 1.246 . S
C591 O597 1.249 . S
O592 C574 1.254 . S
O592 Zn589 2.025 . S
H593 C585 0.952 . S
H594 C576 0.952 . S
H595 C584 0.948 . S
O596 Zn581 2.034 . S
O596 C591 1.246 . S
O597 Zn589 2.024 . S
O597 C591 1.249 . S
H598 C580 0.948 . S
O599 Zn589 2.039 . S
O599 C603 1.251 . S
O600 Zn581 2.025 . S
O600 C603 1.254 . S
O601 C582 1.246 . S
O601 Zn589 2.034 . S
O602 Zn581 2.024 . S
O602 C582 1.249 . S
C603 O599 1.251 . S
C603 O600 1.254 . S
H604 C577 0.949 . S
H605 C579 0.950 . S
H606 C586 0.949 . S
H607 C588 0.950 . S
C608 O624 1.251 . S
C608 O626 1.254 . S
N609 C610 1.333 . S
N609 C614 1.307 . S
N609 Zn615 2.020 1_556 S
C610 N609 1.333 . S
C610 C611 1.379 . S
C610 H628 0.952 . S
C611 C610 1.379 . S
C611 C612 1.390 . S
C611 H638 0.949 . S
C612 C611 1.390 . S
C612 C613 1.357 . S
C613 C612 1.357 . S
C613 C614 1.370 . S
C613 H639 0.950 . S
C614 N609 1.307 . S
C614 C613 1.370 . S
C614 H632 0.948 . S
Zn615 N609 2.020 1_554 S
Zn615 O624 2.039 . S
Zn615 O630 2.034 . S
Zn615 O634 2.025 . S
Zn615 O636 2.024 1_554 S
C616 O635 1.246 . S
C616 O636 1.249 1_554 S
N617 C618 1.307 . S
N617 C619 1.333 . S
N617 Zn623 2.020 . S
C618 N617 1.307 . S
C618 C622 1.370 . S
C618 H629 0.948 . S
C619 N617 1.333 . S
C619 C620 1.379 . S
C619 H627 0.952 . S
C620 C619 1.379 . S
C620 C621 1.390 . S
C620 H640 0.949 . S
C621 C620 1.390 . S
C621 C622 1.357 . S
C622 C618 1.370 . S
C622 C621 1.357 . S
C622 H641 0.950 . S
Zn623 N617 2.020 . S
Zn623 O626 2.025 . S
Zn623 O631 2.024 . S
Zn623 O633 2.039 . S
Zn623 O635 2.034 . S
O624 C608 1.251 . S
O624 Zn615 2.039 . S
C625 O630 1.246 . S
C625 O631 1.249 . S
O626 C608 1.254 . S
O626 Zn623 2.025 . S
H627 C619 0.952 . S
H628 C610 0.952 . S
H629 C618 0.948 . S
O630 Zn615 2.034 . S
O630 C625 1.246 . S
O631 Zn623 2.024 . S
O631 C625 1.249 . S
H632 C614 0.948 . S
O633 Zn623 2.039 . S
O633 C637 1.251 . S
O634 Zn615 2.025 . S
O634 C637 1.254 . S
O635 C616 1.246 . S
O635 Zn623 2.034 . S
O636 Zn615 2.024 1_556 S
O636 C616 1.249 1_556 S
C637 O633 1.251 . S
C637 O634 1.254 . S
H638 C611 0.949 . S
H639 C613 0.950 . S
H640 C620 0.949 . S
H641 C622 0.950 . S
C642 O658 1.251 . S
C642 O660 1.254 . S
N643 C644 1.333 . S
N643 C648 1.307 . S
N643 Zn649 2.020 . S
C644 N643 1.333 . S
C644 C645 1.379 . S
C644 H662 0.952 . S
C645 C644 1.379 . S
C645 C646 1.390 . S
C645 H672 0.949 . S
C646 C645 1.390 . S
C646 C647 1.357 . S
C647 C646 1.357 . S
C647 C648 1.370 . S
C647 H673 0.950 . S
C648 N643 1.307 . S
C648 C647 1.370 . S
C648 H666 0.948 . S
Zn649 N643 2.020 . S
Zn649 O658 2.039 . S
Zn649 O664 2.034 . S
Zn649 O668 2.025 . S
Zn649 O670 2.024 . S
C650 O669 1.246 . S
C650 O670 1.249 . S
N651 C652 1.307 . S
N651 C653 1.333 . S
N651 Zn657 2.020 . S
C652 N651 1.307 . S
C652 C656 1.370 . S
C652 H663 0.948 . S
C653 N651 1.333 . S
C653 C654 1.379 . S
C653 H661 0.952 . S
C654 C653 1.379 . S
C654 C655 1.390 . S
C654 H674 0.949 . S
C655 C654 1.390 . S
C655 C656 1.357 . S
C656 C652 1.370 . S
C656 C655 1.357 . S
C656 H675 0.950 . S
Zn657 N651 2.020 . S
Zn657 O660 2.025 . S
Zn657 O665 2.024 . S
Zn657 O667 2.039 . S
Zn657 O669 2.034 . S
O658 C642 1.251 . S
O658 Zn649 2.039 . S
C659 O664 1.246 . S
C659 O665 1.249 . S
O660 C642 1.254 . S
O660 Zn657 2.025 . S
H661 C653 0.952 . S
H662 C644 0.952 . S
H663 C652 0.948 . S
O664 Zn649 2.034 . S
O664 C659 1.246 . S
O665 Zn657 2.024 . S
O665 C659 1.249 . S
H666 C648 0.948 . S
O667 Zn657 2.039 . S
O667 C671 1.251 . S
O668 Zn649 2.025 . S
O668 C671 1.254 . S
O669 C650 1.246 . S
O669 Zn657 2.034 . S
O670 Zn649 2.024 . S
O670 C650 1.249 . S
C671 O667 1.251 . S
C671 O668 1.254 . S
H672 C645 0.949 . S
H673 C647 0.950 . S
H674 C654 0.949 . S
H675 C656 0.950 . S
C676 O692 1.251 . S
C676 O694 1.254 . S
N677 C678 1.333 . S
N677 C682 1.307 . S
N677 Zn683 2.020 . S
C678 N677 1.333 . S
C678 C679 1.379 . S
C678 H696 0.952 . S
C679 C678 1.379 . S
C679 C680 1.390 . S
C679 H706 0.949 . S
C680 C679 1.390 . S
C680 C681 1.357 . S
C681 C680 1.357 . S
C681 C682 1.370 . S
C681 H707 0.950 . S
C682 N677 1.307 . S
C682 C681 1.370 . S
C682 H700 0.948 . S
Zn683 N677 2.020 . S
Zn683 O692 2.039 . S
Zn683 O698 2.073 . S
Zn683 O702 2.025 . S
Zn683 O704 2.024 . S
C684 O703 1.246 . S
C684 O704 1.249 . S
N685 C686 1.307 1_455 S
N685 C687 1.333 . S
N685 Zn691 2.020 . S
C686 N685 1.307 1_655 S
C686 C690 1.370 . S
C686 H697 0.948 . S
C687 N685 1.333 . S
C687 C688 1.379 . S
C687 H695 0.952 . S
C688 C687 1.379 . S
C688 C689 1.390 1_455 S
C688 H708 0.949 . S
C689 C688 1.390 1_655 S
C689 C690 1.357 . S
C690 C686 1.370 . S
C690 C689 1.357 . S
C690 H709 0.950 . S
Zn691 N685 2.020 . S
Zn691 O694 2.025 . S
Zn691 O699 2.024 1_455 S
Zn691 O701 2.039 . S
Zn691 O703 2.034 . S
O692 C676 1.251 . S
O692 Zn683 2.039 . S
C693 O698 1.217 1_655 S
C693 O699 1.249 . S
O694 C676 1.254 . S
O694 Zn691 2.025 . S
H695 C687 0.952 . S
H696 C678 0.952 . S
H697 C686 0.948 . S
O698 Zn683 2.073 . S
O698 C693 1.217 1_455 S
O699 Zn691 2.024 1_655 S
O699 C693 1.249 . S
H700 C682 0.948 . S
O701 Zn691 2.039 . S
O701 C705 1.251 . S
O702 Zn683 2.025 . S
O702 C705 1.254 . S
O703 C684 1.246 . S
O703 Zn691 2.034 . S
O704 Zn683 2.024 . S
O704 C684 1.249 . S
C705 O701 1.251 . S
C705 O702 1.254 . S
H706 C679 0.949 . S
H707 C681 0.950 . S
H708 C688 0.949 . S
H709 C690 0.950 . S
C710 O726 1.251 . S
C710 O728 1.254 . S
N711 C712 1.333 . S
N711 C716 1.307 . S
N711 Zn717 2.020 . S
C712 N711 1.333 . S
C712 C713 1.379 . S
C712 H730 0.952 . S
C713 C712 1.379 . S
C713 C714 1.390 . S
C713 H740 0.949 . S
C714 C713 1.390 . S
C714 C715 1.357 . S
C715 C714 1.357 . S
C715 C716 1.370 . S
C715 H741 0.950 . S
C716 N711 1.307 . S
C716 C715 1.370 . S
C716 H734 0.948 . S
Zn717 N711 2.020 . S
Zn717 O726 2.039 . S
Zn717 O732 2.034 . S
Zn717 O736 2.025 . S
Zn717 O738 2.024 . S
C718 O737 1.246 . S
C718 O738 1.249 . S
N719 C720 1.307 . S
N719 C721 1.333 . S
N719 Zn725 2.020 . S
C720 N719 1.307 . S
C720 C724 1.370 . S
C720 H731 0.948 . S
C721 N719 1.333 . S
C721 C722 1.379 . S
C721 H729 0.952 . S
C722 C721 1.379 . S
C722 C723 1.390 . S
C722 H742 0.949 . S
C723 C722 1.390 . S
C723 C724 1.357 . S
C724 C720 1.370 . S
C724 C723 1.357 . S
C724 H743 0.950 . S
Zn725 N719 2.020 . S
Zn725 O728 2.025 . S
Zn725 O733 2.024 . S
Zn725 O735 2.039 . S
Zn725 O737 2.034 . S
O726 C710 1.251 . S
O726 Zn717 2.039 . S
C727 O732 1.246 . S
C727 O733 1.249 . S
O728 C710 1.254 . S
O728 Zn725 2.025 . S
H729 C721 0.952 . S
H730 C712 0.952 . S
H731 C720 0.948 . S
O732 Zn717 2.034 . S
O732 C727 1.246 . S
O733 Zn725 2.024 . S
O733 C727 1.249 . S
H734 C716 0.948 . S
O735 Zn725 2.039 . S
O735 C739 1.251 . S
O736 Zn717 2.025 . S
O736 C739 1.254 . S
O737 C718 1.246 . S
O737 Zn725 2.034 . S
O738 Zn717 2.024 . S
O738 C718 1.249 . S
C739 O735 1.251 . S
C739 O736 1.254 . S
H740 C713 0.949 . S
H741 C715 0.950 . S
H742 C722 0.949 . S
H743 C724 0.950 . S
C744 O760 1.251 . S
C744 O762 1.254 . S
N745 C746 1.333 . S
N745 C750 1.307 . S
N745 Zn751 2.020 . S
C746 N745 1.333 . S
C746 C747 1.379 . S
C746 H764 0.952 . S
C747 C746 1.379 . S
C747 C748 1.390 . S
C747 H774 0.949 . S
C748 C747 1.390 . S
C748 C749 1.357 . S
C749 C748 1.357 . S
C749 C750 1.370 . S
C749 H775 0.950 . S
C750 N745 1.307 . S
C750 C749 1.370 . S
C750 H768 0.948 . S
Zn751 N745 2.020 . S
Zn751 O760 2.039 . S
Zn751 O766 2.034 . S
Zn751 O770 2.025 . S
Zn751 O772 2.024 . S
C752 O771 1.246 . S
C752 O772 1.249 . S
N753 C754 1.307 . S
N753 C755 1.333 . S
N753 Zn759 2.020 . S
C754 N753 1.307 . S
C754 C758 1.370 . S
C754 H765 0.948 . S
C755 N753 1.333 . S
C755 C756 1.379 . S
C755 H763 0.952 . S
C756 C755 1.379 . S
C756 C757 1.390 . S
C756 H776 0.949 . S
C757 C756 1.390 . S
C757 C758 1.357 . S
C758 C754 1.370 . S
C758 C757 1.357 . S
C758 H777 0.950 . S
Zn759 N753 2.020 . S
Zn759 O762 2.025 . S
Zn759 O767 2.024 . S
Zn759 O769 2.039 . S
Zn759 O771 2.034 . S
O760 C744 1.251 . S
O760 Zn751 2.039 . S
C761 O766 1.246 . S
C761 O767 1.249 . S
O762 C744 1.254 . S
O762 Zn759 2.025 . S
H763 C755 0.952 . S
H764 C746 0.952 . S
H765 C754 0.948 . S
O766 Zn751 2.034 . S
O766 C761 1.246 . S
O767 Zn759 2.024 . S
O767 C761 1.249 . S
H768 C750 0.948 . S
O769 Zn759 2.039 . S
O769 C773 1.251 . S
O770 Zn751 2.025 . S
O770 C773 1.254 . S
O771 C752 1.246 . S
O771 Zn759 2.034 . S
O772 Zn751 2.024 . S
O772 C752 1.249 . S
C773 O769 1.251 . S
C773 O770 1.254 . S
H774 C747 0.949 . S
H775 C749 0.950 . S
H776 C756 0.949 . S
H777 C758 0.950 . S
C778 O794 1.251 . S
C778 O796 1.254 . S
N779 C780 1.333 . S
N779 C784 1.307 . S
N779 Zn785 2.020 . S
C780 N779 1.333 . S
C780 C781 1.379 . S
C780 H798 0.952 . S
C781 C780 1.379 . S
C781 C782 1.390 . S
C781 H808 0.949 . S
C782 C781 1.390 . S
C782 C783 1.357 . S
C783 C782 1.357 . S
C783 C784 1.370 . S
C783 H809 0.950 . S
C784 N779 1.307 . S
C784 C783 1.370 . S
C784 H802 0.948 . S
Zn785 N779 2.020 . S
Zn785 O794 2.039 . S
Zn785 O800 2.034 . S
Zn785 O804 2.025 . S
Zn785 O806 2.024 . S
C786 O805 1.246 . S
C786 O806 1.249 . S
N787 C788 1.307 . S
N787 C789 1.333 . S
N787 Zn793 2.020 . S
C788 N787 1.307 . S
C788 C792 1.370 . S
C788 H799 0.948 . S
C789 N787 1.333 . S
C789 C790 1.379 . S
C789 H797 0.952 . S
C790 C789 1.379 . S
C790 C791 1.390 . S
C790 H810 0.949 . S
C791 C790 1.390 . S
C791 C792 1.357 . S
C792 C788 1.370 . S
C792 C791 1.357 . S
C792 H811 0.950 . S
Zn793 N787 2.020 . S
Zn793 O796 2.025 . S
Zn793 O801 2.024 . S
Zn793 O803 2.039 . S
Zn793 O805 2.034 . S
O794 C778 1.251 . S
O794 Zn785 2.039 . S
C795 O800 1.246 . S
C795 O801 1.249 . S
O796 C778 1.254 . S
O796 Zn793 2.025 . S
H797 C789 0.952 . S
H798 C780 0.952 . S
H799 C788 0.948 . S
O800 Zn785 2.034 . S
O800 C795 1.246 . S
O801 Zn793 2.024 . S
O801 C795 1.249 . S
H802 C784 0.948 . S
O803 Zn793 2.039 . S
O803 C807 1.251 . S
O804 Zn785 2.025 . S
O804 C807 1.254 . S
O805 C786 1.246 . S
O805 Zn793 2.034 . S
O806 Zn785 2.024 . S
O806 C786 1.249 . S
C807 O803 1.251 . S
C807 O804 1.254 . S
H808 C781 0.949 . S
H809 C783 0.950 . S
H810 C790 0.949 . S
H811 C792 0.950 . S
C812 O828 1.251 . S
C812 O830 1.254 . S
N813 C814 1.333 . S
N813 C818 1.307 . S
N813 Zn819 2.020 . S
C814 N813 1.333 . S
C814 C815 1.379 . S
C814 H832 0.952 . S
C815 C814 1.379 . S
C815 C816 1.390 . S
C815 H842 0.949 . S
C816 C815 1.390 . S
C816 C817 1.357 . S
C817 C816 1.357 . S
C817 C818 1.370 . S
C817 H843 0.950 . S
C818 N813 1.307 . S
C818 C817 1.370 . S
C818 H836 0.948 . S
Zn819 N813 2.020 . S
Zn819 O828 2.039 . S
Zn819 O834 2.034 . S
Zn819 O838 2.025 . S
Zn819 O840 2.024 . S
C820 O839 1.246 . S
C820 O840 1.249 . S
N821 C822 1.307 . S
N821 C823 1.333 . S
N821 Zn827 2.020 . S
C822 N821 1.307 . S
C822 C826 1.370 . S
C822 H833 0.948 . S
C823 N821 1.333 . S
C823 C824 1.379 . S
C823 H831 0.952 . S
C824 C823 1.379 . S
C824 C825 1.390 . S
C824 H844 0.949 . S
C825 C824 1.390 . S
C825 C826 1.357 . S
C826 C822 1.370 . S
C826 C825 1.357 . S
C826 H845 0.950 . S
Zn827 N821 2.020 . S
Zn827 O830 2.025 . S
Zn827 O835 2.024 . S
Zn827 O837 2.039 . S
Zn827 O839 2.034 . S
O828 C812 1.251 . S
O828 Zn819 2.039 . S
C829 O834 1.246 . S
C829 O835 1.249 . S
O830 C812 1.254 . S
O830 Zn827 2.025 . S
H831 C823 0.952 . S
H832 C814 0.952 . S
H833 C822 0.948 . S
O834 Zn819 2.034 . S
O834 C829 1.246 . S
O835 Zn827 2.024 . S
O835 C829 1.249 . S
H836 C818 0.948 . S
O837 Zn827 2.039 . S
O837 C841 1.251 . S
O838 Zn819 2.025 . S
O838 C841 1.254 . S
O839 C820 1.246 . S
O839 Zn827 2.034 . S
O840 Zn819 2.024 . S
O840 C820 1.249 . S
C841 O837 1.251 . S
C841 O838 1.254 . S
H842 C815 0.949 . S
H843 C817 0.950 . S
H844 C824 0.949 . S
H845 C826 0.950 . S
C846 O862 1.251 . S
C846 O864 1.254 . S
N847 C848 1.333 . S
N847 C852 1.307 . S
N847 Zn853 2.020 . S
C848 N847 1.333 . S
C848 C849 1.379 . S
C848 H866 0.952 . S
C849 C848 1.379 . S
C849 C850 1.390 . S
C849 H876 0.949 . S
C850 C849 1.390 . S
C850 C851 1.357 . S
C851 C850 1.357 . S
C851 C852 1.370 . S
C851 H877 0.950 . S
C852 N847 1.307 . S
C852 C851 1.370 . S
C852 H870 0.948 . S
Zn853 N847 2.020 . S
Zn853 O862 2.039 . S
Zn853 O868 2.034 . S
Zn853 O872 2.025 . S
Zn853 O874 2.067 . S
C854 O873 1.246 . S
C854 O874 1.220 1_655 S
N855 C856 1.307 . S
N855 C857 1.333 1_554 S
N855 Zn861 2.020 . S
C856 N855 1.307 . S
C856 C860 1.370 . S
C856 H867 0.948 . S
C857 N855 1.333 1_556 S
C857 C858 1.385 . S
C857 H865 0.952 . S
C858 C857 1.385 . S
C858 C859 1.384 1_455 S
C858 H878 0.946 1_455 S
C859 C858 1.384 1_655 S
C859 C860 1.347 1_656 S
C860 C856 1.370 . S
C860 C859 1.347 1_454 S
C860 H879 0.950 . S
Zn861 N855 2.020 . S
Zn861 O864 2.025 . S
Zn861 O869 2.024 . S
Zn861 O871 2.039 1_554 S
Zn861 O873 2.034 1_455 S
O862 C846 1.251 . S
O862 Zn853 2.039 . S
C863 O868 1.246 . S
C863 O869 1.249 . S
O864 C846 1.254 . S
O864 Zn861 2.025 . S
H865 C857 0.952 . S
H866 C848 0.952 . S
H867 C856 0.948 . S
O868 Zn853 2.034 . S
O868 C863 1.246 . S
O869 Zn861 2.024 . S
O869 C863 1.249 . S
H870 C852 0.948 . S
O871 Zn861 2.039 1_556 S
O871 C875 1.251 . S
O872 Zn853 2.025 . S
O872 C875 1.254 1_554 S
O873 C854 1.246 . S
O873 Zn861 2.034 1_655 S
O874 Zn853 2.067 . S
O874 C854 1.220 1_455 S
C875 O871 1.251 . S
C875 O872 1.254 1_556 S
H876 C849 0.949 . S
H877 C851 0.950 . S
H878 C858 0.946 1_655 S
H879 C860 0.950 . S
H880 C886 0.930 . S
H881 C890 0.930 1_655 S
H882 C895 0.929 . S
H883 C893 0.929 . S
H884 C888 0.929 . S
H885 C894 0.929 . S
C886 H880 0.930 . S
C886 C887 1.367 . S
C886 C894 1.378 . S
C887 C886 1.367 . S
C887 C895 1.433 . S
C888 H884 0.929 . S
C888 C890 1.378 . S
C888 C892 1.350 . S
C889 C892 1.463 . S
C889 C894 1.350 . S
C889 N897 1.427 . S
C890 H881 0.930 1_455 S
C890 C888 1.378 . S
C890 C891 1.367 . S
C891 C890 1.367 . S
C891 C893 1.433 . S
C892 C888 1.350 . S
C892 C889 1.463 . S
C892 N896 1.427 . S
C893 H883 0.929 . S
C893 C891 1.433 . S
C893 N896 1.384 . S
C894 H885 0.929 . S
C894 C886 1.378 . S
C894 C889 1.350 . S
C895 H882 0.929 . S
C895 C887 1.433 . S
C895 N897 1.384 . S
N896 C892 1.427 . S
N896 C893 1.384 . S
N897 C889 1.427 . S
N897 C895 1.384 . S
H898 C904 0.930 . S
H899 C908 0.930 . S
H900 C913 0.929 . S
H901 C911 0.929 . S
H902 C906 0.929 . S
H903 C912 0.929 . S
C904 H898 0.930 . S
C904 C905 1.367 . S
C904 C912 1.378 . S
C905 C904 1.367 . S
C905 C913 1.433 . S
C906 H902 0.929 . S
C906 C908 1.378 . S
C906 C910 1.350 . S
C907 C910 1.463 . S
C907 C912 1.350 . S
C907 N915 1.427 . S
C908 H899 0.930 . S
C908 C906 1.378 . S
C908 C909 1.367 . S
C909 C908 1.367 . S
C909 C911 1.433 . S
C910 C906 1.350 . S
C910 C907 1.463 . S
C910 N914 1.427 . S
C911 H901 0.929 . S
C911 C909 1.433 . S
C911 N914 1.384 . S
C912 H903 0.929 . S
C912 C904 1.378 . S
C912 C907 1.350 . S
C913 H900 0.929 . S
C913 C905 1.433 . S
C913 N915 1.384 . S
N914 C910 1.427 . S
N914 C911 1.384 . S
N915 C907 1.427 . S
N915 C913 1.384 . S
H916 C922 0.930 . S
H917 C926 0.930 . S
H918 C931 0.929 . S
H919 C929 0.929 . S
H920 C924 0.929 . S
H921 C930 0.929 . S
C922 H916 0.930 . S
C922 C923 1.367 . S
C922 C930 1.378 . S
C923 C922 1.367 . S
C923 C931 1.433 . S
C924 H920 0.929 . S
C924 C926 1.378 . S
C924 C928 1.350 . S
C925 C928 1.463 . S
C925 C930 1.350 . S
C925 N933 1.427 . S
C926 H917 0.930 . S
C926 C924 1.378 . S
C926 C927 1.367 . S
C927 C926 1.367 . S
C927 C929 1.433 . S
C928 C924 1.350 . S
C928 C925 1.463 . S
C928 N932 1.427 . S
C929 H919 0.929 . S
C929 C927 1.433 . S
C929 N932 1.384 . S
C930 H921 0.929 . S
C930 C922 1.378 . S
C930 C925 1.350 . S
C931 H918 0.929 . S
C931 C923 1.433 . S
C931 N933 1.384 . S
N932 C928 1.427 . S
N932 C929 1.384 . S
N933 C925 1.427 . S
N933 C931 1.384 . S
H934 C940 0.930 . S
H935 C944 0.930 . S
H936 C949 0.929 . S
H937 C947 0.929 . S
H938 C942 0.929 . S
H939 C948 0.929 . S
C940 H934 0.930 . S
C940 C941 1.367 . S
C940 C948 1.378 . S
C941 C940 1.367 . S
C941 C949 1.433 . S
C942 H938 0.929 . S
C942 C944 1.378 . S
C942 C946 1.350 . S
C943 C946 1.463 . S
C943 C948 1.350 . S
C943 N951 1.427 . S
C944 H935 0.930 . S
C944 C942 1.378 . S
C944 C945 1.367 . S
C945 C944 1.367 . S
C945 C947 1.433 . S
C946 C942 1.350 . S
C946 C943 1.463 . S
C946 N950 1.427 . S
C947 H937 0.929 . S
C947 C945 1.433 . S
C947 N950 1.384 . S
C948 H939 0.929 . S
C948 C940 1.378 . S
C948 C943 1.350 . S
C949 H936 0.929 . S
C949 C941 1.433 . S
C949 N951 1.384 . S
N950 C946 1.427 . S
N950 C947 1.384 . S
N951 C943 1.427 . S
N951 C949 1.384 . S
H952 C958 0.930 . S
H953 C962 0.930 . S
H954 C967 0.938 . S
H955 C965 0.929 . S
H956 C960 0.929 . S
H957 C966 0.929 . S
C958 H952 0.930 . S
C958 C959 1.367 . S
C958 C966 1.378 . S
C959 C958 1.367 . S
C959 C967 1.422 1_455 S
C960 H956 0.929 . S
C960 C962 1.378 . S
C960 C964 1.350 1_655 S
C961 C964 1.463 . S
C961 C966 1.350 . S
C961 N969 1.427 1_455 S
C962 H953 0.930 . S
C962 C960 1.378 . S
C962 C963 1.367 1_655 S
C963 C962 1.367 1_455 S
C963 C965 1.433 . S
C964 C960 1.350 1_455 S
C964 C961 1.463 . S
C964 N968 1.427 . S
C965 H955 0.929 . S
C965 C963 1.433 . S
C965 N968 1.384 . S
C966 H957 0.929 . S
C966 C958 1.378 . S
C966 C961 1.350 . S
C967 H954 0.938 . S
C967 C959 1.422 1_655 S
C967 N969 1.385 . S
N968 C964 1.427 . S
N968 C965 1.384 . S
N969 C961 1.427 1_655 S
N969 C967 1.385 . S
H970 C976 0.930 . S
H971 C980 0.930 . S
H972 C985 0.929 . S
H973 C983 0.929 . S
H974 C978 0.929 . S
H975 C984 0.929 . S
C976 H970 0.930 . S
C976 C977 1.367 . S
C976 C984 1.378 . S
C977 C976 1.367 . S
C977 C985 1.433 . S
C978 H974 0.929 . S
C978 C980 1.378 . S
C978 C982 1.350 . S
C979 C982 1.463 . S
C979 C984 1.350 . S
C979 N987 1.427 . S
C980 H971 0.930 . S
C980 C978 1.378 . S
C980 C981 1.367 . S
C981 C980 1.367 . S
C981 C983 1.433 . S
C982 C978 1.350 . S
C982 C979 1.463 . S
C982 N986 1.427 . S
C983 H973 0.929 . S
C983 C981 1.433 . S
C983 N986 1.384 . S
C984 H975 0.929 . S
C984 C976 1.378 . S
C984 C979 1.350 . S
C985 H972 0.929 . S
C985 C977 1.433 . S
C985 N987 1.384 . S
N986 C982 1.427 . S
N986 C983 1.384 . S
N987 C979 1.427 . S
N987 C985 1.384 . S
H988 C994 0.930 . S
H989 C998 0.930 . S
H990 C1003 0.929 . S
H991 C1001 0.923 1_554 S
H992 C996 0.929 . S
H993 C1002 0.929 . S
C994 H988 0.930 . S
C994 C995 1.367 . S
C994 C1002 1.378 . S
C995 C994 1.367 . S
C995 C1003 1.433 . S
C996 H992 0.929 . S
C996 C998 1.378 . S
C996 C1000 1.350 . S
C997 C1000 1.463 . S
C997 C1002 1.350 . S
C997 N1005 1.427 . S
C998 H989 0.930 . S
C998 C996 1.378 . S
C998 C999 1.367 . S
C999 C998 1.367 . S
C999 C1001 1.434 . S
C1000 C996 1.350 . S
C1000 C997 1.463 . S
C1000 N1004 1.427 . S
C1001 H991 0.923 1_556 S
C1001 C999 1.434 . S
C1001 N1004 1.389 . S
C1002 H993 0.929 . S
C1002 C994 1.378 . S
C1002 C997 1.350 . S
C1003 H990 0.929 . S
C1003 C995 1.433 . S
C1003 N1005 1.384 . S
N1004 C1000 1.427 . S
N1004 C1001 1.389 . S
N1005 C997 1.427 . S
N1005 C1003 1.384 . S
H1006 C1012 0.930 . S
H1007 C1016 0.930 . S
H1008 C1021 0.929 . S
H1009 C1019 0.929 . S
H1010 C1014 0.929 . S
H1011 C1020 0.929 . S
C1012 H1006 0.930 . S
C1012 C1013 1.367 . S
C1012 C1020 1.378 . S
C1013 C1012 1.367 . S
C1013 C1021 1.433 . S
C1014 H1010 0.929 . S
C1014 C1016 1.378 . S
C1014 C1018 1.350 . S
C1015 C1018 1.463 . S
C1015 C1020 1.350 . S
C1015 N1023 1.427 . S
C1016 H1007 0.930 . S
C1016 C1014 1.378 . S
C1016 C1017 1.367 . S
C1017 C1016 1.367 . S
C1017 C1019 1.433 . S
C1018 C1014 1.350 . S
C1018 C1015 1.463 . S
C1018 N1022 1.427 . S
C1019 H1009 0.929 . S
C1019 C1017 1.433 . S
C1019 N1022 1.384 . S
C1020 H1011 0.929 . S
C1020 C1012 1.378 . S
C1020 C1015 1.350 . S
C1021 H1008 0.929 . S
C1021 C1013 1.433 . S
C1021 N1023 1.384 . S
N1022 C1018 1.427 . S
N1022 C1019 1.384 . S
N1023 C1015 1.427 . S
N1023 C1021 1.384 . S
H1024 C1030 0.930 . S
H1025 C1034 0.930 . S
H1026 C1039 0.929 . S
H1027 C1037 0.929 . S
H1028 C1032 0.929 . S
H1029 C1038 0.929 . S
C1030 H1024 0.930 . S
C1030 C1031 1.367 . S
C1030 C1038 1.378 . S
C1031 C1030 1.367 . S
C1031 C1039 1.433 1_545 S
C1032 H1028 0.929 . S
C1032 C1034 1.378 . S
C1032 C1036 1.350 1_565 S
C1033 C1036 1.463 . S
C1033 C1038 1.350 . S
C1033 N1041 1.427 1_545 S
C1034 H1025 0.930 . S
C1034 C1032 1.378 . S
C1034 C1035 1.367 . S
C1035 C1034 1.367 . S
C1035 C1037 1.433 1_565 S
C1036 C1032 1.350 1_545 S
C1036 C1033 1.463 . S
C1036 N1040 1.427 . S
C1037 H1027 0.929 . S
C1037 C1035 1.433 1_545 S
C1037 N1040 1.384 . S
C1038 H1029 0.929 . S
C1038 C1030 1.378 . S
C1038 C1033 1.350 . S
C1039 H1026 0.929 . S
C1039 C1031 1.433 1_565 S
C1039 N1041 1.384 . S
N1040 C1036 1.427 . S
N1040 C1037 1.384 . S
N1041 C1033 1.427 1_565 S
N1041 C1039 1.384 . S
H1042 C1048 0.930 . S
H1043 C1052 0.930 . S
H1044 C1057 0.929 . S
H1045 C1055 0.929 . S
H1046 C1050 0.929 . S
H1047 C1056 0.929 . S
C1048 H1042 0.930 . S
C1048 C1049 1.367 . S
C1048 C1056 1.378 . S
C1049 C1048 1.367 . S
C1049 C1057 1.433 . S
C1050 H1046 0.929 . S
C1050 C1052 1.378 . S
C1050 C1054 1.350 . S
C1051 C1054 1.463 . S
C1051 C1056 1.350 . S
C1051 N1059 1.427 . S
C1052 H1043 0.930 . S
C1052 C1050 1.378 . S
C1052 C1053 1.367 . S
C1053 C1052 1.367 . S
C1053 C1055 1.433 . S
C1054 C1050 1.350 . S
C1054 C1051 1.463 . S
C1054 N1058 1.427 . S
C1055 H1045 0.929 . S
C1055 C1053 1.433 . S
C1055 N1058 1.384 . S
C1056 H1047 0.929 . S
C1056 C1048 1.378 . S
C1056 C1051 1.350 . S
C1057 H1044 0.929 . S
C1057 C1049 1.433 . S
C1057 N1059 1.384 . S
N1058 C1054 1.427 . S
N1058 C1055 1.384 . S
N1059 C1051 1.427 . S
N1059 C1057 1.384 . S
H1060 C1066 0.930 . S
H1061 C1070 0.930 . S
H1062 C1075 0.929 . S
H1063 C1073 0.929 1_565 S
H1064 C1068 0.929 . S
H1065 C1074 0.929 . S
C1066 H1060 0.930 . S
C1066 C1067 1.367 1_565 S
C1066 C1074 1.378 . S
C1067 C1066 1.367 1_545 S
C1067 C1075 1.433 . S
C1068 H1064 0.929 . S
C1068 C1070 1.378 . S
C1068 C1072 1.350 . S
C1069 C1072 1.463 . S
C1069 C1074 1.350 1_545 S
C1069 N1077 1.427 . S
C1070 H1061 0.930 . S
C1070 C1068 1.378 . S
C1070 C1071 1.367 . S
C1071 C1070 1.367 . S
C1071 C1073 1.433 . S
C1072 C1068 1.350 . S
C1072 C1069 1.463 . S
C1072 N1076 1.427 . S
C1073 H1063 0.929 1_545 S
C1073 C1071 1.433 . S
C1073 N1076 1.384 . S
C1074 H1065 0.929 . S
C1074 C1066 1.378 . S
C1074 C1069 1.350 1_565 S
C1075 H1062 0.929 . S
C1075 C1067 1.433 . S
C1075 N1077 1.384 . S
N1076 C1072 1.427 . S
N1076 C1073 1.384 . S
N1077 C1069 1.427 . S
N1077 C1075 1.384 . S
H1078 C1084 0.930 . S
H1079 C1088 0.930 . S
H1080 C1093 0.929 . S
H1081 C1091 0.929 . S
H1082 C1086 0.929 . S
H1083 C1092 0.929 . S
C1084 H1078 0.930 . S
C1084 C1085 1.367 . S
C1084 C1092 1.378 . S
C1085 C1084 1.367 . S
C1085 C1093 1.433 . S
C1086 H1082 0.929 . S
C1086 C1088 1.378 . S
C1086 C1090 1.350 . S
C1087 C1090 1.463 . S
C1087 C1092 1.350 . S
C1087 N1095 1.427 . S
C1088 H1079 0.930 . S
C1088 C1086 1.378 . S
C1088 C1089 1.367 . S
C1089 C1088 1.367 . S
C1089 C1091 1.433 . S
C1090 C1086 1.350 . S
C1090 C1087 1.463 . S
C1090 N1094 1.427 . S
C1091 H1081 0.929 . S
C1091 C1089 1.433 . S
C1091 N1094 1.384 . S
C1092 H1083 0.929 . S
C1092 C1084 1.378 . S
C1092 C1087 1.350 . S
C1093 H1080 0.929 . S
C1093 C1085 1.433 . S
C1093 N1095 1.384 . S
N1094 C1090 1.427 . S
N1094 C1091 1.384 . S
N1095 C1087 1.427 . S
N1095 C1093 1.384 . S
H1096 C1102 0.930 . S
H1097 C1106 0.930 . S
H1098 C1111 0.929 . S
H1099 C1109 0.929 . S
H1100 C1104 0.929 . S
H1101 C1110 0.929 . S
C1102 H1096 0.930 . S
C1102 C1103 1.367 . S
C1102 C1110 1.378 . S
C1103 C1102 1.367 . S
C1103 C1111 1.433 . S
C1104 H1100 0.929 . S
C1104 C1106 1.378 . S
C1104 C1108 1.350 . S
C1105 C1108 1.463 . S
C1105 C1110 1.350 . S
C1105 N1113 1.427 . S
C1106 H1097 0.930 . S
C1106 C1104 1.378 . S
C1106 C1107 1.367 . S
C1107 C1106 1.367 . S
C1107 C1109 1.433 . S
C1108 C1104 1.350 . S
C1108 C1105 1.463 . S
C1108 N1112 1.427 . S
C1109 H1099 0.929 . S
C1109 C1107 1.433 . S
C1109 N1112 1.384 . S
C1110 H1101 0.929 . S
C1110 C1102 1.378 . S
C1110 C1105 1.350 . S
C1111 H1098 0.929 . S
C1111 C1103 1.433 . S
C1111 N1113 1.384 . S
N1112 C1108 1.427 . S
N1112 C1109 1.384 . S
N1113 C1105 1.427 . S
N1113 C1111 1.384 . S
H1114 C1120 0.930 . S
H1115 C1124 0.930 . S
H1116 C1129 0.929 . S
H1117 C1127 0.929 . S
H1118 C1122 0.929 . S
H1119 C1128 0.929 . S
C1120 H1114 0.930 . S
C1120 C1121 1.367 . S
C1120 C1128 1.378 . S
C1121 C1120 1.367 . S
C1121 C1129 1.433 . S
C1122 H1118 0.929 . S
C1122 C1124 1.378 . S
C1122 C1126 1.350 . S
C1123 C1126 1.463 . S
C1123 C1128 1.350 . S
C1123 N1131 1.427 . S
C1124 H1115 0.930 . S
C1124 C1122 1.378 . S
C1124 C1125 1.367 . S
C1125 C1124 1.367 . S
C1125 C1127 1.433 . S
C1126 C1122 1.350 . S
C1126 C1123 1.463 . S
C1126 N1130 1.427 . S
C1127 H1117 0.929 . S
C1127 C1125 1.433 . S
C1127 N1130 1.384 . S
C1128 H1119 0.929 . S
C1128 C1120 1.378 . S
C1128 C1123 1.350 . S
C1129 H1116 0.929 . S
C1129 C1121 1.433 . S
C1129 N1131 1.384 . S
N1130 C1126 1.427 . S
N1130 C1127 1.384 . S
N1131 C1123 1.427 . S
N1131 C1129 1.384 . S
H1132 C1138 0.930 . S
H1133 C1142 0.930 . S
H1134 C1147 0.929 . S
H1135 C1145 0.929 1_545 S
H1136 C1140 0.929 . S
H1137 C1146 0.929 . S
C1138 H1132 0.930 . S
C1138 C1139 1.367 . S
C1138 C1146 1.378 . S
C1139 C1138 1.367 . S
C1139 C1147 1.433 1_545 S
C1140 H1136 0.929 . S
C1140 C1142 1.378 . S
C1140 C1144 1.350 . S
C1141 C1144 1.463 . S
C1141 C1146 1.350 1_565 S
C1141 N1149 1.427 . S
C1142 H1133 0.930 . S
C1142 C1140 1.378 . S
C1142 C1143 1.367 . S
C1143 C1142 1.367 . S
C1143 C1145 1.433 . S
C1144 C1140 1.350 . S
C1144 C1141 1.463 . S
C1144 N1148 1.418 1_565 S
C1145 H1135 0.929 1_565 S
C1145 C1143 1.433 . S
C1145 N1148 1.379 1_565 S
C1146 H1137 0.929 . S
C1146 C1138 1.378 . S
C1146 C1141 1.350 1_545 S
C1147 H1134 0.929 . S
C1147 C1139 1.433 1_565 S
C1147 N1149 1.384 . S
N1148 C1144 1.418 1_545 S
N1148 C1145 1.379 1_545 S
N1149 C1141 1.427 . S
N1149 C1147 1.384 . S
H1150 C1156 0.930 . S
H1151 C1160 0.930 . S
H1152 C1165 0.929 . S
H1153 C1163 0.929 . S
H1154 C1158 0.929 . S
H1155 C1164 0.929 . S
C1156 H1150 0.930 . S
C1156 C1157 1.367 . S
C1156 C1164 1.378 . S
C1157 C1156 1.367 . S
C1157 C1165 1.433 . S
C1158 H1154 0.929 . S
C1158 C1160 1.378 . S
C1158 C1162 1.350 . S
C1159 C1162 1.463 . S
C1159 C1164 1.350 . S
C1159 N1167 1.427 . S
C1160 H1151 0.930 . S
C1160 C1158 1.378 . S
C1160 C1161 1.367 . S
C1161 C1160 1.367 . S
C1161 C1163 1.433 . S
C1162 C1158 1.350 . S
C1162 C1159 1.463 . S
C1162 N1166 1.427 . S
C1163 H1153 0.929 . S
C1163 C1161 1.433 . S
C1163 N1166 1.384 . S
C1164 H1155 0.929 . S
C1164 C1156 1.378 . S
C1164 C1159 1.350 . S
C1165 H1152 0.929 . S
C1165 C1157 1.433 . S
C1165 N1167 1.384 . S
N1166 C1162 1.427 . S
N1166 C1163 1.384 . S
N1167 C1159 1.427 . S
N1167 C1165 1.384 . S
H1168 C1174 0.930 . S
H1169 C1178 0.930 . S
H1170 C1183 0.929 . S
H1171 C1181 0.929 . S
H1172 C1176 0.929 . S
H1173 C1182 0.929 . S
C1174 H1168 0.930 . S
C1174 C1175 1.367 . S
C1174 C1182 1.378 . S
C1175 C1174 1.367 . S
C1175 C1183 1.433 . S
C1176 H1172 0.929 . S
C1176 C1178 1.378 . S
C1176 C1180 1.350 . S
C1177 C1180 1.463 . S
C1177 C1182 1.350 . S
C1177 N1185 1.427 . S
C1178 H1169 0.930 . S
C1178 C1176 1.378 . S
C1178 C1179 1.367 1_554 S
C1179 C1178 1.367 1_556 S
C1179 C1181 1.433 . S
C1180 C1176 1.350 . S
C1180 C1177 1.463 . S
C1180 N1184 1.427 . S
C1181 H1171 0.929 . S
C1181 C1179 1.433 . S
C1181 N1184 1.384 1_556 S
C1182 H1173 0.929 . S
C1182 C1174 1.378 . S
C1182 C1177 1.350 . S
C1183 H1170 0.929 . S
C1183 C1175 1.433 . S
C1183 N1185 1.384 . S
N1184 C1180 1.427 . S
N1184 C1181 1.384 1_554 S
N1185 C1177 1.427 . S
N1185 C1183 1.384 . S
H1186 C1192 0.930 . S
H1187 C1196 0.930 . S
H1188 C1201 0.929 . S
H1189 C1199 0.929 . S
H1190 C1194 0.929 . S
H1191 C1200 0.929 . S
C1192 H1186 0.930 . S
C1192 C1193 1.367 . S
C1192 C1200 1.378 . S
C1193 C1192 1.367 . S
C1193 C1201 1.433 . S
C1194 H1190 0.929 . S
C1194 C1196 1.378 . S
C1194 C1198 1.350 . S
C1195 C1198 1.463 . S
C1195 C1200 1.350 . S
C1195 N1203 1.427 . S
C1196 H1187 0.930 . S
C1196 C1194 1.378 . S
C1196 C1197 1.367 . S
C1197 C1196 1.367 . S
C1197 C1199 1.433 . S
C1198 C1194 1.350 . S
C1198 C1195 1.463 . S
C1198 N1202 1.427 . S
C1199 H1189 0.929 . S
C1199 C1197 1.433 . S
C1199 N1202 1.384 . S
C1200 H1191 0.929 . S
C1200 C1192 1.378 . S
C1200 C1195 1.350 . S
C1201 H1188 0.929 . S
C1201 C1193 1.433 . S
C1201 N1203 1.384 . S
N1202 C1198 1.427 . S
N1202 C1199 1.384 . S
N1203 C1195 1.427 . S
N1203 C1201 1.384 . S
H1204 C1210 0.930 . S
H1205 C1214 0.930 . S
H1206 C1219 0.929 . S
H1207 C1217 0.929 . S
H1208 C1212 0.929 . S
H1209 C1218 0.929 . S
C1210 H1204 0.930 . S
C1210 C1211 1.367 . S
C1210 C1218 1.378 . S
C1211 C1210 1.367 . S
C1211 C1219 1.433 . S
C1212 H1208 0.929 . S
C1212 C1214 1.378 . S
C1212 C1216 1.350 . S
C1213 C1216 1.463 . S
C1213 C1218 1.350 . S
C1213 N1221 1.427 . S
C1214 H1205 0.930 . S
C1214 C1212 1.378 . S
C1214 C1215 1.367 . S
C1215 C1214 1.367 . S
C1215 C1217 1.433 . S
C1216 C1212 1.350 . S
C1216 C1213 1.463 . S
C1216 N1220 1.427 . S
C1217 H1207 0.929 . S
C1217 C1215 1.433 . S
C1217 N1220 1.384 . S
C1218 H1209 0.929 . S
C1218 C1210 1.378 . S
C1218 C1213 1.350 . S
C1219 H1206 0.929 . S
C1219 C1211 1.433 . S
C1219 N1221 1.384 . S
N1220 C1216 1.427 . S
N1220 C1217 1.384 . S
N1221 C1213 1.427 . S
N1221 C1219 1.384 . S
H1222 C1228 0.930 . S
H1223 C1232 0.930 . S
H1224 C1237 0.929 . S
H1225 C1235 0.929 . S
H1226 C1230 0.929 . S
H1227 C1236 0.929 . S
C1228 H1222 0.930 . S
C1228 C1229 1.367 . S
C1228 C1236 1.378 . S
C1229 C1228 1.367 . S
C1229 C1237 1.433 . S
C1230 H1226 0.929 . S
C1230 C1232 1.378 . S
C1230 C1234 1.350 . S
C1231 C1234 1.463 . S
C1231 C1236 1.350 . S
C1231 N1239 1.427 . S
C1232 H1223 0.930 . S
C1232 C1230 1.378 . S
C1232 C1233 1.367 . S
C1233 C1232 1.367 . S
C1233 C1235 1.433 . S
C1234 C1230 1.350 . S
C1234 C1231 1.463 . S
C1234 N1238 1.427 . S
C1235 H1225 0.929 . S
C1235 C1233 1.433 . S
C1235 N1238 1.384 . S
C1236 H1227 0.929 . S
C1236 C1228 1.378 . S
C1236 C1231 1.350 . S
C1237 H1224 0.929 . S
C1237 C1229 1.433 . S
C1237 N1239 1.384 . S
N1238 C1234 1.427 . S
N1238 C1235 1.384 . S
N1239 C1231 1.427 . S
N1239 C1237 1.384 . S
H1240 C1246 0.930 . S
H1241 C1250 0.930 . S
H1242 C1255 0.929 . S
H1243 C1253 0.929 . S
H1244 C1248 0.929 . S
H1245 C1254 0.929 . S
C1246 H1240 0.930 . S
C1246 C1247 1.367 . S
C1246 C1254 1.378 . S
C1247 C1246 1.367 . S
C1247 C1255 1.433 . S
C1248 H1244 0.929 . S
C1248 C1250 1.378 . S
C1248 C1252 1.350 . S
C1249 C1252 1.463 . S
C1249 C1254 1.350 . S
C1249 N1257 1.427 . S
C1250 H1241 0.930 . S
C1250 C1248 1.378 . S
C1250 C1251 1.367 . S
C1251 C1250 1.367 . S
C1251 C1253 1.433 . S
C1252 C1248 1.350 . S
C1252 C1249 1.463 . S
C1252 N1256 1.427 . S
C1253 H1243 0.929 . S
C1253 C1251 1.433 . S
C1253 N1256 1.384 . S
C1254 H1245 0.929 . S
C1254 C1246 1.378 . S
C1254 C1249 1.350 . S
C1255 H1242 0.929 . S
C1255 C1247 1.433 . S
C1255 N1257 1.384 . S
N1256 C1252 1.427 . S
N1256 C1253 1.384 . S
N1257 C1249 1.427 . S
N1257 C1255 1.384 . S
H1258 C1264 0.930 . S
H1259 C1268 0.930 . S
H1260 C1273 0.929 . S
H1261 C1271 0.929 . S
H1262 C1266 0.929 . S
H1263 C1272 0.929 . S
C1264 H1258 0.930 . S
C1264 C1265 1.367 . S
C1264 C1272 1.378 . S
C1265 C1264 1.367 . S
C1265 C1273 1.433 . S
C1266 H1262 0.929 . S
C1266 C1268 1.378 . S
C1266 C1270 1.350 . S
C1267 C1270 1.463 . S
C1267 C1272 1.350 . S
C1267 N1275 1.427 . S
C1268 H1259 0.930 . S
C1268 C1266 1.378 . S
C1268 C1269 1.367 . S
C1269 C1268 1.367 . S
C1269 C1271 1.433 1_565 S
C1270 C1266 1.350 . S
C1270 C1267 1.463 . S
C1270 N1274 1.427 . S
C1271 H1261 0.929 . S
C1271 C1269 1.433 1_545 S
C1271 N1274 1.384 1_545 S
C1272 H1263 0.929 . S
C1272 C1264 1.378 . S
C1272 C1267 1.350 . S
C1273 H1260 0.929 . S
C1273 C1265 1.433 . S
C1273 N1275 1.384 . S
N1274 C1270 1.427 . S
N1274 C1271 1.384 1_565 S
N1275 C1267 1.427 . S
N1275 C1273 1.384 . S
H1276 C1282 0.930 . S
H1277 C1286 0.930 . S
H1278 C1291 0.929 . S
H1279 C1289 0.929 . S
H1280 C1284 0.929 . S
H1281 C1290 0.929 . S
C1282 H1276 0.930 . S
C1282 C1283 1.367 . S
C1282 C1290 1.378 . S
C1283 C1282 1.367 . S
C1283 C1291 1.433 . S
C1284 H1280 0.929 . S
C1284 C1286 1.378 . S
C1284 C1288 1.350 . S
C1285 C1288 1.463 . S
C1285 C1290 1.350 . S
C1285 N1293 1.427 . S
C1286 H1277 0.930 . S
C1286 C1284 1.378 . S
C1286 C1287 1.367 . S
C1287 C1286 1.367 . S
C1287 C1289 1.433 . S
C1288 C1284 1.350 . S
C1288 C1285 1.463 . S
C1288 N1292 1.427 . S
C1289 H1279 0.929 . S
C1289 C1287 1.433 . S
C1289 N1292 1.384 . S
C1290 H1281 0.929 . S
C1290 C1282 1.378 . S
C1290 C1285 1.350 . S
C1291 H1278 0.929 . S
C1291 C1283 1.433 . S
C1291 N1293 1.384 . S
N1292 C1288 1.427 . S
N1292 C1289 1.384 . S
N1293 C1285 1.427 . S
N1293 C1291 1.384 . S
H1294 C1300 0.930 . S
H1295 C1304 0.930 . S
H1296 C1309 0.929 . S
H1297 C1307 0.929 . S
H1298 C1302 0.929 . S
H1299 C1308 0.929 . S
C1300 H1294 0.930 . S
C1300 C1301 1.367 . S
C1300 C1308 1.378 . S
C1301 C1300 1.367 . S
C1301 C1309 1.433 . S
C1302 H1298 0.929 . S
C1302 C1304 1.378 . S
C1302 C1306 1.350 . S
C1303 C1306 1.463 . S
C1303 C1308 1.350 . S
C1303 N1311 1.427 . S
C1304 H1295 0.930 . S
C1304 C1302 1.378 . S
C1304 C1305 1.367 . S
C1305 C1304 1.367 . S
C1305 C1307 1.433 . S
C1306 C1302 1.350 . S
C1306 C1303 1.463 . S
C1306 N1310 1.427 . S
C1307 H1297 0.929 . S
C1307 C1305 1.433 . S
C1307 N1310 1.384 . S
C1308 H1299 0.929 . S
C1308 C1300 1.378 . S
C1308 C1303 1.350 . S
C1309 H1296 0.929 . S
C1309 C1301 1.433 . S
C1309 N1311 1.384 . S
N1310 C1306 1.427 . S
N1310 C1307 1.384 . S
N1311 C1303 1.427 . S
N1311 C1309 1.384 . S
H1312 C1318 0.930 . S
H1313 C1322 0.930 . S
H1314 C1327 0.929 . S
H1315 C1325 0.929 . S
H1316 C1320 0.929 . S
H1317 C1326 0.929 . S
C1318 H1312 0.930 . S
C1318 C1319 1.367 . S
C1318 C1326 1.378 1_655 S
C1319 C1318 1.367 . S
C1319 C1327 1.433 1_655 S
C1320 H1316 0.929 . S
C1320 C1322 1.378 . S
C1320 C1324 1.350 . S
C1321 C1324 1.463 . S
C1321 C1326 1.350 . S
C1321 N1329 1.427 . S
C1322 H1313 0.930 . S
C1322 C1320 1.378 . S
C1322 C1323 1.367 . S
C1323 C1322 1.367 . S
C1323 C1325 1.433 1_556 S
C1324 C1320 1.350 . S
C1324 C1321 1.463 . S
C1324 N1328 1.427 . S
C1325 H1315 0.929 . S
C1325 C1323 1.433 1_554 S
C1325 N1328 1.384 1_554 S
C1326 H1317 0.929 . S
C1326 C1318 1.378 1_455 S
C1326 C1321 1.350 . S
C1327 H1314 0.929 . S
C1327 C1319 1.433 1_455 S
C1327 N1329 1.384 . S
N1328 C1324 1.427 . S
N1328 C1325 1.384 1_556 S
N1329 C1321 1.427 . S
N1329 C1327 1.384 . S
H1330 C1336 0.930 . S
H1331 C1340 0.930 . S
H1332 C1345 0.929 . S
H1333 C1343 0.929 . S
H1334 C1338 0.929 . S
H1335 C1344 0.929 . S
C1336 H1330 0.930 . S
C1336 C1337 1.367 . S
C1336 C1344 1.378 . S
C1337 C1336 1.367 . S
C1337 C1345 1.433 . S
C1338 H1334 0.929 . S
C1338 C1340 1.378 . S
C1338 C1342 1.350 . S
C1339 C1342 1.463 . S
C1339 C1344 1.350 . S
C1339 N1347 1.427 . S
C1340 H1331 0.930 . S
C1340 C1338 1.378 . S
C1340 C1341 1.367 . S
C1341 C1340 1.367 . S
C1341 C1343 1.433 . S
C1342 C1338 1.350 . S
C1342 C1339 1.463 . S
C1342 N1346 1.427 . S
C1343 H1333 0.929 . S
C1343 C1341 1.433 . S
C1343 N1346 1.384 . S
C1344 H1335 0.929 . S
C1344 C1336 1.378 . S
C1344 C1339 1.350 . S
C1345 H1332 0.929 . S
C1345 C1337 1.433 . S
C1345 N1347 1.384 . S
N1346 C1342 1.427 . S
N1346 C1343 1.384 . S
N1347 C1339 1.427 . S
N1347 C1345 1.384 . S
H1348 C1354 0.930 . S
H1349 C1358 0.930 . S
H1350 C1363 0.929 . S
H1351 C1361 0.929 . S
H1352 C1356 0.929 . S
H1353 C1362 0.929 . S
C1354 H1348 0.930 . S
C1354 C1355 1.367 . S
C1354 C1362 1.378 . S
C1355 C1354 1.367 . S
C1355 C1363 1.433 . S
C1356 H1352 0.929 . S
C1356 C1358 1.378 . S
C1356 C1360 1.350 . S
C1357 C1360 1.463 . S
C1357 C1362 1.350 . S
C1357 N1365 1.427 . S
C1358 H1349 0.930 . S
C1358 C1356 1.378 . S
C1358 C1359 1.367 . S
C1359 C1358 1.367 . S
C1359 C1361 1.433 . S
C1360 C1356 1.350 . S
C1360 C1357 1.463 . S
C1360 N1364 1.427 . S
C1361 H1351 0.929 . S
C1361 C1359 1.433 . S
C1361 N1364 1.384 . S
C1362 H1353 0.929 . S
C1362 C1354 1.378 . S
C1362 C1357 1.350 . S
C1363 H1350 0.929 . S
C1363 C1355 1.433 . S
C1363 N1365 1.384 . S
N1364 C1360 1.427 . S
N1364 C1361 1.384 . S
N1365 C1357 1.427 . S
N1365 C1363 1.384 . S
H1366 C1372 0.930 . S
H1367 C1376 0.930 . S
H1368 C1381 0.929 . S
H1369 C1379 0.929 . S
H1370 C1374 0.929 . S
H1371 C1380 0.929 . S
C1372 H1366 0.930 . S
C1372 C1373 1.367 . S
C1372 C1380 1.378 . S
C1373 C1372 1.367 . S
C1373 C1381 1.433 . S
C1374 H1370 0.929 . S
C1374 C1376 1.378 . S
C1374 C1378 1.350 . S
C1375 C1378 1.463 . S
C1375 C1380 1.350 . S
C1375 N1383 1.427 . S
C1376 H1367 0.930 . S
C1376 C1374 1.378 . S
C1376 C1377 1.367 . S
C1377 C1376 1.367 . S
C1377 C1379 1.433 . S
C1378 C1374 1.350 . S
C1378 C1375 1.463 . S
C1378 N1382 1.427 . S
C1379 H1369 0.929 . S
C1379 C1377 1.433 . S
C1379 N1382 1.384 . S
C1380 H1371 0.929 . S
C1380 C1372 1.378 . S
C1380 C1375 1.350 . S
C1381 H1368 0.929 . S
C1381 C1373 1.433 . S
C1381 N1383 1.384 . S
N1382 C1378 1.427 . S
N1382 C1379 1.384 . S
N1383 C1375 1.427 . S
N1383 C1381 1.384 . S
H1384 C1390 0.930 . S
H1385 C1394 0.930 . S
H1386 C1399 0.929 . S
H1387 C1397 0.929 . S
H1388 C1392 0.929 . S
H1389 C1398 0.929 . S
C1390 H1384 0.930 . S
C1390 C1391 1.367 . S
C1390 C1398 1.378 . S
C1391 C1390 1.367 . S
C1391 C1399 1.433 . S
C1392 H1388 0.929 . S
C1392 C1394 1.378 . S
C1392 C1396 1.350 . S
C1393 C1396 1.463 . S
C1393 C1398 1.350 . S
C1393 N1401 1.427 . S
C1394 H1385 0.930 . S
C1394 C1392 1.378 . S
C1394 C1395 1.367 . S
C1395 C1394 1.367 . S
C1395 C1397 1.433 . S
C1396 C1392 1.350 . S
C1396 C1393 1.463 . S
C1396 N1400 1.427 . S
C1397 H1387 0.929 . S
C1397 C1395 1.433 . S
C1397 N1400 1.384 . S
C1398 H1389 0.929 . S
C1398 C1390 1.378 . S
C1398 C1393 1.350 . S
C1399 H1386 0.929 . S
C1399 C1391 1.433 . S
C1399 N1401 1.384 . S
N1400 C1396 1.427 . S
N1400 C1397 1.384 . S
N1401 C1393 1.427 . S
N1401 C1399 1.384 . S
H1402 C1408 0.930 . S
H1403 C1412 0.930 . S
H1404 C1417 0.929 . S
H1405 C1415 0.929 . S
H1406 C1410 0.929 . S
H1407 C1416 0.929 . S
C1408 H1402 0.930 . S
C1408 C1409 1.367 . S
C1408 C1416 1.378 . S
C1409 C1408 1.367 . S
C1409 C1417 1.433 . S
C1410 H1406 0.929 . S
C1410 C1412 1.378 . S
C1410 C1414 1.350 . S
C1411 C1414 1.463 . S
C1411 C1416 1.350 . S
C1411 N1419 1.427 . S
C1412 H1403 0.930 . S
C1412 C1410 1.378 . S
C1412 C1413 1.367 . S
C1413 C1412 1.367 . S
C1413 C1415 1.433 . S
C1414 C1410 1.350 . S
C1414 C1411 1.463 . S
C1414 N1418 1.427 . S
C1415 H1405 0.929 . S
C1415 C1413 1.433 . S
C1415 N1418 1.384 . S
C1416 H1407 0.929 . S
C1416 C1408 1.378 . S
C1416 C1411 1.350 . S
C1417 H1404 0.929 . S
C1417 C1409 1.433 . S
C1417 N1419 1.384 . S
N1418 C1414 1.427 . S
N1418 C1415 1.384 . S
N1419 C1411 1.427 . S
N1419 C1417 1.384 . S
H1420 C1426 0.930 . S
H1421 C1430 0.930 . S
H1422 C1435 0.929 . S
H1423 C1433 0.929 . S
H1424 C1428 0.929 . S
H1425 C1434 0.929 . S
C1426 H1420 0.930 . S
C1426 C1427 1.367 . S
C1426 C1434 1.378 . S
C1427 C1426 1.367 . S
C1427 C1435 1.433 . S
C1428 H1424 0.929 . S
C1428 C1430 1.378 . S
C1428 C1432 1.350 . S
C1429 C1432 1.463 . S
C1429 C1434 1.350 . S
C1429 N1437 1.427 . S
C1430 H1421 0.930 . S
C1430 C1428 1.378 . S
C1430 C1431 1.367 . S
C1431 C1430 1.367 . S
C1431 C1433 1.433 . S
C1432 C1428 1.350 . S
C1432 C1429 1.463 . S
C1432 N1436 1.427 . S
C1433 H1423 0.929 . S
C1433 C1431 1.433 . S
C1433 N1436 1.384 . S
C1434 H1425 0.929 . S
C1434 C1426 1.378 . S
C1434 C1429 1.350 . S
C1435 H1422 0.929 . S
C1435 C1427 1.433 . S
C1435 N1437 1.384 . S
N1436 C1432 1.427 . S
N1436 C1433 1.384 . S
N1437 C1429 1.427 . S
N1437 C1435 1.384 . S
H1438 C1444 0.930 . S
H1439 C1448 0.930 . S
H1440 C1453 0.929 . S
H1441 C1451 0.929 . S
H1442 C1446 0.929 . S
H1443 C1452 0.929 . S
C1444 H1438 0.930 . S
C1444 C1445 1.367 . S
C1444 C1452 1.378 . S
C1445 C1444 1.367 . S
C1445 C1453 1.433 . S
C1446 H1442 0.929 . S
C1446 C1448 1.378 . S
C1446 C1450 1.350 . S
C1447 C1450 1.463 . S
C1447 C1452 1.350 . S
C1447 N1455 1.427 . S
C1448 H1439 0.930 . S
C1448 C1446 1.378 . S
C1448 C1449 1.367 . S
C1449 C1448 1.367 . S
C1449 C1451 1.433 . S
C1450 C1446 1.350 . S
C1450 C1447 1.463 . S
C1450 N1454 1.427 . S
C1451 H1441 0.929 . S
C1451 C1449 1.433 . S
C1451 N1454 1.384 . S
C1452 H1443 0.929 . S
C1452 C1444 1.378 . S
C1452 C1447 1.350 . S
C1453 H1440 0.929 . S
C1453 C1445 1.433 . S
C1453 N1455 1.384 . S
N1454 C1450 1.427 . S
N1454 C1451 1.384 . S
N1455 C1447 1.427 . S
N1455 C1453 1.384 . S
H1456 C1462 0.930 . S
H1457 C1466 0.930 1_565 S
H1458 C1471 0.929 . S
H1459 C1469 0.929 . S
H1460 C1464 0.899 1_565 S
H1461 C1470 0.929 . S
C1462 H1456 0.930 . S
C1462 C1463 1.367 . S
C1462 C1470 1.378 . S
C1463 C1462 1.367 . S
C1463 C1471 1.433 1_545 S
C1464 H1460 0.899 1_545 S
C1464 C1466 1.384 1_655 S
C1464 C1468 1.375 . S
C1465 C1468 1.463 . S
C1465 C1470 1.350 . S
C1465 N1473 1.427 1_545 S
C1466 H1457 0.930 1_545 S
C1466 C1464 1.384 1_455 S
C1466 C1467 1.358 1_455 S
C1467 C1466 1.358 1_655 S
C1467 C1469 1.456 . S
C1468 C1464 1.375 . S
C1468 C1465 1.463 . S
C1468 N1472 1.427 . S
C1469 H1459 0.929 . S
C1469 C1467 1.456 . S
C1469 N1472 1.384 . S
C1470 H1461 0.929 . S
C1470 C1462 1.378 . S
C1470 C1465 1.350 . S
C1471 H1458 0.929 . S
C1471 C1463 1.433 1_565 S
C1471 N1473 1.384 . S
N1472 C1468 1.427 . S
N1472 C1469 1.384 . S
N1473 C1465 1.427 1_565 S
N1473 C1471 1.384 . S
H1474 C1480 0.930 . S
H1475 C1484 0.930 . S
H1476 C1489 0.929 . S
H1477 C1487 0.929 . S
H1478 C1482 0.929 . S
H1479 C1488 0.929 . S
C1480 H1474 0.930 . S
C1480 C1481 1.367 . S
C1480 C1488 1.378 . S
C1481 C1480 1.367 . S
C1481 C1489 1.433 . S
C1482 H1478 0.929 . S
C1482 C1484 1.378 . S
C1482 C1486 1.350 . S
C1483 C1486 1.463 . S
C1483 C1488 1.350 . S
C1483 N1491 1.427 . S
C1484 H1475 0.930 . S
C1484 C1482 1.378 . S
C1484 C1485 1.367 . S
C1485 C1484 1.367 . S
C1485 C1487 1.433 . S
C1486 C1482 1.350 . S
C1486 C1483 1.463 . S
C1486 N1490 1.427 . S
C1487 H1477 0.929 . S
C1487 C1485 1.433 . S
C1487 N1490 1.384 . S
C1488 H1479 0.929 . S
C1488 C1480 1.378 . S
C1488 C1483 1.350 . S
C1489 H1476 0.929 . S
C1489 C1481 1.433 . S
C1489 N1491 1.384 . S
N1490 C1486 1.427 . S
N1490 C1487 1.384 . S
N1491 C1483 1.427 . S
N1491 C1489 1.384 . S
H1492 C1498 0.930 . S
H1493 C1502 0.930 . S
H1494 C1507 0.929 . S
H1495 C1505 0.929 . S
H1496 C1500 0.929 . S
H1497 C1506 0.929 . S
C1498 H1492 0.930 . S
C1498 C1499 1.367 . S
C1498 C1506 1.378 . S
C1499 C1498 1.367 . S
C1499 C1507 1.433 1_545 S
C1500 H1496 0.929 . S
C1500 C1502 1.378 . S
C1500 C1504 1.350 1_565 S
C1501 C1504 1.463 . S
C1501 C1506 1.350 . S
C1501 N1509 1.427 1_545 S
C1502 H1493 0.930 . S
C1502 C1500 1.378 . S
C1502 C1503 1.367 1_565 S
C1503 C1502 1.367 1_545 S
C1503 C1505 1.433 . S
C1504 C1500 1.350 1_545 S
C1504 C1501 1.463 . S
C1504 N1508 1.427 . S
C1505 H1495 0.929 . S
C1505 C1503 1.433 . S
C1505 N1508 1.384 . S
C1506 H1497 0.929 . S
C1506 C1498 1.378 . S
C1506 C1501 1.350 . S
C1507 H1494 0.929 . S
C1507 C1499 1.433 1_565 S
C1507 N1509 1.384 . S
N1508 C1504 1.427 . S
N1508 C1505 1.384 . S
N1509 C1501 1.427 1_565 S
N1509 C1507 1.384 . S
H1510 C1516 0.930 . S
H1511 C1520 0.930 . S
H1512 C1525 0.929 . S
H1513 C1523 0.929 . S
H1514 C1518 0.929 . S
H1515 C1524 0.929 . S
C1516 H1510 0.930 . S
C1516 C1517 1.367 . S
C1516 C1524 1.378 . S
C1517 C1516 1.367 . S
C1517 C1525 1.433 . S
C1518 H1514 0.929 . S
C1518 C1520 1.378 . S
C1518 C1522 1.350 . S
C1519 C1522 1.463 . S
C1519 C1524 1.350 . S
C1519 N1527 1.427 . S
C1520 H1511 0.930 . S
C1520 C1518 1.378 . S
C1520 C1521 1.367 . S
C1521 C1520 1.367 . S
C1521 C1523 1.433 . S
C1522 C1518 1.350 . S
C1522 C1519 1.463 . S
C1522 N1526 1.427 . S
C1523 H1513 0.929 . S
C1523 C1521 1.433 . S
C1523 N1526 1.384 . S
C1524 H1515 0.929 . S
C1524 C1516 1.378 . S
C1524 C1519 1.350 . S
C1525 H1512 0.929 . S
C1525 C1517 1.433 . S
C1525 N1527 1.384 . S
N1526 C1522 1.427 . S
N1526 C1523 1.384 . S
N1527 C1519 1.427 . S
N1527 C1525 1.384 . S
H1528 C1534 0.930 . S
H1529 C1538 0.947 . S
H1530 C1543 0.929 . S
H1531 C1541 0.929 . S
H1532 C1536 0.929 . S
H1533 C1542 0.929 . S
C1534 H1528 0.930 . S
C1534 C1535 1.367 1_565 S
C1534 C1542 1.378 . S
C1535 C1534 1.367 1_545 S
C1535 C1543 1.433 . S
C1536 H1532 0.929 . S
C1536 C1538 1.383 . S
C1536 C1540 1.350 1_545 S
C1537 C1540 1.463 . S
C1537 C1542 1.350 . S
C1537 N1545 1.427 1_565 S
C1538 H1529 0.947 . S
C1538 C1536 1.383 . S
C1538 C1539 1.345 1_545 S
C1539 C1538 1.345 1_565 S
C1539 C1541 1.433 . S
C1540 C1536 1.350 1_565 S
C1540 C1537 1.463 . S
C1540 N1544 1.427 . S
C1541 H1531 0.929 . S
C1541 C1539 1.433 . S
C1541 N1544 1.384 . S
C1542 H1533 0.929 . S
C1542 C1534 1.378 . S
C1542 C1537 1.350 . S
C1543 H1530 0.929 . S
C1543 C1535 1.433 . S
C1543 N1545 1.384 . S
N1544 C1540 1.427 . S
N1544 C1541 1.384 . S
N1545 C1537 1.427 1_545 S
N1545 C1543 1.384 . S
H1546 C1552 0.930 . S
H1547 C1556 0.930 . S
H1548 C1561 0.929 . S
H1549 C1559 0.929 . S
H1550 C1554 0.929 . S
H1551 C1560 0.929 . S
C1552 H1546 0.930 . S
C1552 C1553 1.367 . S
C1552 C1560 1.378 . S
C1553 C1552 1.367 . S
C1553 C1561 1.433 . S
C1554 H1550 0.929 . S
C1554 C1556 1.378 . S
C1554 C1558 1.350 . S
C1555 C1558 1.463 . S
C1555 C1560 1.350 . S
C1555 N1563 1.427 . S
C1556 H1547 0.930 . S
C1556 C1554 1.378 . S
C1556 C1557 1.367 . S
C1557 C1556 1.367 . S
C1557 C1559 1.433 . S
C1558 C1554 1.350 . S
C1558 C1555 1.463 . S
C1558 N1562 1.427 . S
C1559 H1549 0.929 . S
C1559 C1557 1.433 . S
C1559 N1562 1.384 . S
C1560 H1551 0.929 . S
C1560 C1552 1.378 . S
C1560 C1555 1.350 . S
C1561 H1548 0.929 . S
C1561 C1553 1.433 . S
C1561 N1563 1.384 . S
N1562 C1558 1.427 . S
N1562 C1559 1.384 . S
N1563 C1555 1.427 . S
N1563 C1561 1.384 . S
H1564 C1570 0.930 . S
H1565 C1574 0.930 . S
H1566 C1579 0.929 . S
H1567 C1577 0.929 . S
H1568 C1572 0.929 1_565 S
H1569 C1578 0.929 . S
C1570 H1564 0.930 . S
C1570 C1571 1.367 . S
C1570 C1578 1.378 . S
C1571 C1570 1.367 . S
C1571 C1579 1.433 1_545 S
C1572 H1568 0.929 1_545 S
C1572 C1574 1.378 . S
C1572 C1576 1.350 . S
C1573 C1576 1.463 . S
C1573 C1578 1.350 . S
C1573 N1581 1.427 . S
C1574 H1565 0.930 . S
C1574 C1572 1.378 . S
C1574 C1575 1.367 . S
C1575 C1574 1.367 . S
C1575 C1577 1.433 . S
C1576 C1572 1.350 . S
C1576 C1573 1.463 . S
C1576 N1580 1.427 . S
C1577 H1567 0.929 . S
C1577 C1575 1.433 . S
C1577 N1580 1.384 . S
C1578 H1569 0.929 . S
C1578 C1570 1.378 . S
C1578 C1573 1.350 . S
C1579 H1566 0.929 . S
C1579 C1571 1.433 1_565 S
C1579 N1581 1.384 1_565 S
N1580 C1576 1.427 . S
N1580 C1577 1.384 . S
N1581 C1573 1.427 . S
N1581 C1579 1.384 1_545 S
H1582 C1588 0.930 . S
H1583 C1592 0.930 . S
H1584 C1597 0.929 . S
H1585 C1595 0.929 . S
H1586 C1590 0.929 . S
H1587 C1596 0.929 . S
C1588 H1582 0.930 . S
C1588 C1589 1.367 . S
C1588 C1596 1.378 . S
C1589 C1588 1.367 . S
C1589 C1597 1.433 . S
C1590 H1586 0.929 . S
C1590 C1592 1.378 . S
C1590 C1594 1.350 . S
C1591 C1594 1.463 . S
C1591 C1596 1.350 . S
C1591 N1599 1.427 . S
C1592 H1583 0.930 . S
C1592 C1590 1.378 . S
C1592 C1593 1.367 . S
C1593 C1592 1.367 . S
C1593 C1595 1.433 . S
C1594 C1590 1.350 . S
C1594 C1591 1.463 . S
C1594 N1598 1.427 . S
C1595 H1585 0.929 . S
C1595 C1593 1.433 . S
C1595 N1598 1.384 . S
C1596 H1587 0.929 . S
C1596 C1588 1.378 . S
C1596 C1591 1.350 . S
C1597 H1584 0.929 . S
C1597 C1589 1.433 . S
C1597 N1599 1.384 . S
N1598 C1594 1.427 . S
N1598 C1595 1.384 . S
N1599 C1591 1.427 . S
N1599 C1597 1.384 . S
H1600 C1606 0.930 . S
H1601 C1610 0.930 1_545 S
H1602 C1615 0.929 . S
H1603 C1613 0.929 . S
H1604 C1608 0.913 1_545 S
H1605 C1614 0.929 . S
C1606 H1600 0.930 . S
C1606 C1607 1.367 . S
C1606 C1614 1.378 . S
C1607 C1606 1.367 . S
C1607 C1615 1.433 . S
C1608 H1604 0.913 1_565 S
C1608 C1610 1.378 . S
C1608 C1612 1.350 . S
C1609 C1612 1.463 . S
C1609 C1614 1.350 . S
C1609 N1617 1.427 . S
C1610 H1601 0.930 1_565 S
C1610 C1608 1.378 . S
C1610 C1611 1.367 . S
C1611 C1610 1.367 . S
C1611 C1613 1.433 . S
C1612 C1608 1.350 . S
C1612 C1609 1.463 . S
C1612 N1616 1.427 . S
C1613 H1603 0.929 . S
C1613 C1611 1.433 . S
C1613 N1616 1.384 . S
C1614 H1605 0.929 . S
C1614 C1606 1.378 . S
C1614 C1609 1.350 . S
C1615 H1602 0.929 . S
C1615 C1607 1.433 . S
C1615 N1617 1.384 . S
N1616 C1612 1.427 . S
N1616 C1613 1.384 . S
N1617 C1609 1.427 . S
N1617 C1615 1.384 . S
H1618 C1624 0.930 . S
H1619 C1628 0.930 . S
H1620 C1633 0.929 . S
H1621 C1631 0.929 1_556 S
H1622 C1626 0.929 . S
H1623 C1632 0.929 . S
C1624 H1618 0.930 . S
C1624 C1625 1.367 1_556 S
C1624 C1632 1.378 . S
C1625 C1624 1.367 1_554 S
C1625 C1633 1.433 . S
C1626 H1622 0.929 . S
C1626 C1628 1.378 . S
C1626 C1630 1.350 . S
C1627 C1630 1.463 . S
C1627 C1632 1.350 1_554 S
C1627 N1635 1.427 . S
C1628 H1619 0.930 . S
C1628 C1626 1.378 . S
C1628 C1629 1.367 . S
C1629 C1628 1.367 . S
C1629 C1631 1.433 . S
C1630 C1626 1.350 . S
C1630 C1627 1.463 . S
C1630 N1634 1.427 . S
C1631 H1621 0.929 1_554 S
C1631 C1629 1.433 . S
C1631 N1634 1.384 . S
C1632 H1623 0.929 . S
C1632 C1624 1.378 . S
C1632 C1627 1.350 1_556 S
C1633 H1620 0.929 . S
C1633 C1625 1.433 . S
C1633 N1635 1.384 . S
N1634 C1630 1.427 . S
N1634 C1631 1.384 . S
N1635 C1627 1.427 . S
N1635 C1633 1.384 . S
H1636 C1642 0.930 . S
H1637 C1646 0.930 . S
H1638 C1651 0.929 . S
H1639 C1649 0.929 . S
H1640 C1644 0.929 . S
H1641 C1650 0.929 . S
C1642 H1636 0.930 . S
C1642 C1643 1.367 . S
C1642 C1650 1.378 . S
C1643 C1642 1.367 . S
C1643 C1651 1.433 . S
C1644 H1640 0.929 . S
C1644 C1646 1.378 . S
C1644 C1648 1.350 . S
C1645 C1648 1.463 . S
C1645 C1650 1.350 . S
C1645 N1653 1.427 . S
C1646 H1637 0.930 . S
C1646 C1644 1.378 . S
C1646 C1647 1.367 . S
C1647 C1646 1.367 . S
C1647 C1649 1.433 . S
C1648 C1644 1.350 . S
C1648 C1645 1.463 . S
C1648 N1652 1.427 . S
C1649 H1639 0.929 . S
C1649 C1647 1.433 . S
C1649 N1652 1.384 . S
C1650 H1641 0.929 . S
C1650 C1642 1.378 . S
C1650 C1645 1.350 . S
C1651 H1638 0.929 . S
C1651 C1643 1.433 . S
C1651 N1653 1.384 . S
N1652 C1648 1.427 . S
N1652 C1649 1.384 . S
N1653 C1645 1.427 . S
N1653 C1651 1.384 . S
H1654 C1660 0.930 . S
H1655 C1664 0.930 . S
H1656 C1669 0.929 . S
H1657 C1667 0.929 . S
H1658 C1662 0.929 . S
H1659 C1668 0.929 . S
C1660 H1654 0.930 . S
C1660 C1661 1.367 . S
C1660 C1668 1.378 . S
C1661 C1660 1.367 . S
C1661 C1669 1.433 . S
C1662 H1658 0.929 . S
C1662 C1664 1.378 . S
C1662 C1666 1.350 . S
C1663 C1666 1.463 . S
C1663 C1668 1.350 . S
C1663 N1671 1.427 . S
C1664 H1655 0.930 . S
C1664 C1662 1.378 . S
C1664 C1665 1.367 . S
C1665 C1664 1.367 . S
C1665 C1667 1.433 . S
C1666 C1662 1.350 . S
C1666 C1663 1.463 . S
C1666 N1670 1.427 . S
C1667 H1657 0.929 . S
C1667 C1665 1.433 . S
C1667 N1670 1.384 . S
C1668 H1659 0.929 . S
C1668 C1660 1.378 . S
C1668 C1663 1.350 . S
C1669 H1656 0.929 . S
C1669 C1661 1.433 . S
C1669 N1671 1.384 . S
N1670 C1666 1.427 . S
N1670 C1667 1.384 . S
N1671 C1663 1.427 . S
N1671 C1669 1.384 . S
H1672 C1678 0.930 . S
H1673 C1682 0.930 . S
H1674 C1687 0.929 . S
H1675 C1685 0.929 . S
H1676 C1680 0.929 . S
H1677 C1686 0.929 . S
C1678 H1672 0.930 . S
C1678 C1679 1.367 . S
C1678 C1686 1.378 . S
C1679 C1678 1.367 . S
C1679 C1687 1.433 . S
C1680 H1676 0.929 . S
C1680 C1682 1.378 . S
C1680 C1684 1.350 . S
C1681 C1684 1.463 . S
C1681 C1686 1.350 . S
C1681 N1689 1.427 . S
C1682 H1673 0.930 . S
C1682 C1680 1.378 . S
C1682 C1683 1.367 . S
C1683 C1682 1.367 . S
C1683 C1685 1.433 . S
C1684 C1680 1.350 . S
C1684 C1681 1.463 . S
C1684 N1688 1.427 . S
C1685 H1675 0.929 . S
C1685 C1683 1.433 . S
C1685 N1688 1.384 . S
C1686 H1677 0.929 . S
C1686 C1678 1.378 . S
C1686 C1681 1.350 . S
C1687 H1674 0.929 . S
C1687 C1679 1.433 . S
C1687 N1689 1.384 . S
N1688 C1684 1.427 . S
N1688 C1685 1.384 . S
N1689 C1681 1.427 . S
N1689 C1687 1.384 . S
H1690 C1696 0.930 . S
H1691 C1700 0.930 . S
H1692 C1705 0.929 . S
H1693 C1703 0.929 . S
H1694 C1698 0.929 . S
H1695 C1704 0.929 . S
C1696 H1690 0.930 . S
C1696 C1697 1.367 . S
C1696 C1704 1.378 . S
C1697 C1696 1.367 . S
C1697 C1705 1.433 . S
C1698 H1694 0.929 . S
C1698 C1700 1.378 . S
C1698 C1702 1.350 . S
C1699 C1702 1.463 . S
C1699 C1704 1.350 . S
C1699 N1707 1.427 . S
C1700 H1691 0.930 . S
C1700 C1698 1.378 . S
C1700 C1701 1.367 . S
C1701 C1700 1.367 . S
C1701 C1703 1.433 . S
C1702 C1698 1.350 . S
C1702 C1699 1.463 . S
C1702 N1706 1.427 . S
C1703 H1693 0.929 . S
C1703 C1701 1.433 . S
C1703 N1706 1.384 . S
C1704 H1695 0.929 . S
C1704 C1696 1.378 . S
C1704 C1699 1.350 . S
C1705 H1692 0.929 . S
C1705 C1697 1.433 . S
C1705 N1707 1.384 . S
N1706 C1702 1.427 . S
N1706 C1703 1.384 . S
N1707 C1699 1.427 . S
N1707 C1705 1.384 . S
H1708 C1714 0.930 . S
H1709 C1718 0.930 . S
H1710 C1723 0.929 . S
H1711 C1721 0.929 . S
H1712 C1716 0.929 . S
H1713 C1722 0.929 . S
C1714 H1708 0.930 . S
C1714 C1715 1.367 . S
C1714 C1722 1.378 . S
C1715 C1714 1.367 . S
C1715 C1723 1.433 . S
C1716 H1712 0.929 . S
C1716 C1718 1.378 . S
C1716 C1720 1.350 . S
C1717 C1720 1.463 . S
C1717 C1722 1.350 . S
C1717 N1725 1.427 . S
C1718 H1709 0.930 . S
C1718 C1716 1.378 . S
C1718 C1719 1.367 . S
C1719 C1718 1.367 . S
C1719 C1721 1.433 . S
C1720 C1716 1.350 . S
C1720 C1717 1.463 . S
C1720 N1724 1.427 . S
C1721 H1711 0.929 . S
C1721 C1719 1.433 . S
C1721 N1724 1.384 . S
C1722 H1713 0.929 . S
C1722 C1714 1.378 . S
C1722 C1717 1.350 . S
C1723 H1710 0.929 . S
C1723 C1715 1.433 . S
C1723 N1725 1.384 . S
N1724 C1720 1.427 . S
N1724 C1721 1.384 . S
N1725 C1717 1.427 . S
N1725 C1723 1.384 . S
H1726 C1732 0.930 . S
H1727 C1736 0.930 . S
H1728 C1741 0.929 . S
H1729 C1739 0.929 . S
H1730 C1734 0.929 . S
H1731 C1740 0.929 . S
C1732 H1726 0.930 . S
C1732 C1733 1.367 . S
C1732 C1740 1.378 . S
C1733 C1732 1.367 . S
C1733 C1741 1.433 . S
C1734 H1730 0.929 . S
C1734 C1736 1.378 . S
C1734 C1738 1.350 . S
C1735 C1738 1.463 . S
C1735 C1740 1.350 . S
C1735 N1743 1.427 . S
C1736 H1727 0.930 . S
C1736 C1734 1.378 . S
C1736 C1737 1.367 . S
C1737 C1736 1.367 . S
C1737 C1739 1.433 . S
C1738 C1734 1.350 . S
C1738 C1735 1.463 . S
C1738 N1742 1.427 . S
C1739 H1729 0.929 . S
C1739 C1737 1.433 . S
C1739 N1742 1.384 . S
C1740 H1731 0.929 . S
C1740 C1732 1.378 . S
C1740 C1735 1.350 . S
C1741 H1728 0.929 . S
C1741 C1733 1.433 . S
C1741 N1743 1.384 . S
N1742 C1738 1.427 . S
N1742 C1739 1.384 . S
N1743 C1735 1.427 . S
N1743 C1741 1.384 . S
H1744 C1750 0.930 . S
H1745 C1754 0.930 . S
H1746 C1759 0.929 . S
H1747 C1757 0.929 . S
H1748 C1752 0.929 . S
H1749 C1758 0.929 . S
C1750 H1744 0.930 . S
C1750 C1751 1.367 . S
C1750 C1758 1.378 . S
C1751 C1750 1.367 . S
C1751 C1759 1.433 . S
C1752 H1748 0.929 . S
C1752 C1754 1.378 . S
C1752 C1756 1.350 . S
C1753 C1756 1.463 . S
C1753 C1758 1.350 . S
C1753 N1761 1.427 . S
C1754 H1745 0.930 . S
C1754 C1752 1.378 . S
C1754 C1755 1.367 . S
C1755 C1754 1.367 . S
C1755 C1757 1.433 . S
C1756 C1752 1.350 . S
C1756 C1753 1.463 . S
C1756 N1760 1.427 . S
C1757 H1747 0.929 . S
C1757 C1755 1.433 . S
C1757 N1760 1.384 . S
C1758 H1749 0.929 . S
C1758 C1750 1.378 . S
C1758 C1753 1.350 . S
C1759 H1746 0.929 . S
C1759 C1751 1.433 . S
C1759 N1761 1.384 . S
N1760 C1756 1.427 . S
N1760 C1757 1.384 . S
N1761 C1753 1.427 . S
N1761 C1759 1.384 . S
H1762 C1768 0.930 . S
H1763 C1772 0.930 . S
H1764 C1777 0.929 . S
H1765 C1775 0.929 . S
H1766 C1770 0.929 . S
H1767 C1776 0.929 . S
C1768 H1762 0.930 . S
C1768 C1769 1.367 . S
C1768 C1776 1.378 . S
C1769 C1768 1.367 . S
C1769 C1777 1.433 . S
C1770 H1766 0.929 . S
C1770 C1772 1.378 . S
C1770 C1774 1.350 . S
C1771 C1774 1.463 . S
C1771 C1776 1.350 . S
C1771 N1779 1.427 . S
C1772 H1763 0.930 . S
C1772 C1770 1.378 . S
C1772 C1773 1.367 . S
C1773 C1772 1.367 . S
C1773 C1775 1.433 . S
C1774 C1770 1.350 . S
C1774 C1771 1.463 . S
C1774 N1778 1.427 . S
C1775 H1765 0.929 . S
C1775 C1773 1.433 . S
C1775 N1778 1.384 . S
C1776 H1767 0.929 . S
C1776 C1768 1.378 . S
C1776 C1771 1.350 . S
C1777 H1764 0.929 . S
C1777 C1769 1.433 . S
C1777 N1779 1.384 . S
N1778 C1774 1.427 . S
N1778 C1775 1.384 . S
N1779 C1771 1.427 . S
N1779 C1777 1.384 . S
H1780 C1786 0.930 . S
H1781 C1790 0.930 . S
H1782 C1795 0.929 . S
H1783 C1793 0.929 . S
H1784 C1788 0.929 . S
H1785 C1794 0.929 . S
C1786 H1780 0.930 . S
C1786 C1787 1.367 . S
C1786 C1794 1.378 . S
C1787 C1786 1.367 . S
C1787 C1795 1.433 . S
C1788 H1784 0.929 . S
C1788 C1790 1.378 . S
C1788 C1792 1.350 . S
C1789 C1792 1.463 . S
C1789 C1794 1.350 . S
C1789 N1797 1.427 . S
C1790 H1781 0.930 . S
C1790 C1788 1.378 . S
C1790 C1791 1.367 . S
C1791 C1790 1.367 . S
C1791 C1793 1.433 . S
C1792 C1788 1.350 . S
C1792 C1789 1.463 . S
C1792 N1796 1.427 . S
C1793 H1783 0.929 . S
C1793 C1791 1.433 . S
C1793 N1796 1.384 . S
C1794 H1785 0.929 . S
C1794 C1786 1.378 . S
C1794 C1789 1.350 . S
C1795 H1782 0.929 . S
C1795 C1787 1.433 . S
C1795 N1797 1.384 . S
N1796 C1792 1.427 . S
N1796 C1793 1.384 . S
N1797 C1789 1.427 . S
N1797 C1795 1.384 . S
H1798 C1804 0.930 . S
H1799 C1808 0.930 . S
H1800 C1813 0.929 . S
H1801 C1811 0.929 . S
H1802 C1806 0.929 . S
H1803 C1812 0.929 . S
C1804 H1798 0.930 . S
C1804 C1805 1.367 . S
C1804 C1812 1.378 . S
C1805 C1804 1.367 . S
C1805 C1813 1.433 . S
C1806 H1802 0.929 . S
C1806 C1808 1.378 . S
C1806 C1810 1.350 . S
C1807 C1810 1.463 . S
C1807 C1812 1.350 . S
C1807 N1815 1.427 . S
C1808 H1799 0.930 . S
C1808 C1806 1.378 . S
C1808 C1809 1.367 . S
C1809 C1808 1.367 . S
C1809 C1811 1.433 . S
C1810 C1806 1.350 . S
C1810 C1807 1.463 . S
C1810 N1814 1.427 . S
C1811 H1801 0.929 . S
C1811 C1809 1.433 . S
C1811 N1814 1.384 . S
C1812 H1803 0.929 . S
C1812 C1804 1.378 . S
C1812 C1807 1.350 . S
C1813 H1800 0.929 . S
C1813 C1805 1.433 . S
C1813 N1815 1.384 . S
N1814 C1810 1.427 . S
N1814 C1811 1.384 . S
N1815 C1807 1.427 . S
N1815 C1813 1.384 . S
H1816 C1822 0.930 . S
H1817 C1826 0.930 . S
H1818 C1831 0.929 . S
H1819 C1829 0.929 . S
H1820 C1824 0.928 1_554 S
H1821 C1830 0.929 . S
C1822 H1816 0.930 . S
C1822 C1823 1.367 . S
C1822 C1830 1.378 . S
C1823 C1822 1.367 . S
C1823 C1831 1.433 . S
C1824 H1820 0.928 1_556 S
C1824 C1826 1.377 1_556 S
C1824 C1828 1.352 . S
C1825 C1828 1.463 . S
C1825 C1830 1.350 . S
C1825 N1833 1.427 . S
C1826 H1817 0.930 . S
C1826 C1824 1.377 1_554 S
C1826 C1827 1.367 . S
C1827 C1826 1.367 . S
C1827 C1829 1.433 1_554 S
C1828 C1824 1.352 . S
C1828 C1825 1.463 . S
C1828 N1832 1.427 . S
C1829 H1819 0.929 . S
C1829 C1827 1.433 1_556 S
C1829 N1832 1.384 . S
C1830 H1821 0.929 . S
C1830 C1822 1.378 . S
C1830 C1825 1.350 . S
C1831 H1818 0.929 . S
C1831 C1823 1.433 . S
C1831 N1833 1.384 . S
N1832 C1828 1.427 . S
N1832 C1829 1.384 . S
N1833 C1825 1.427 . S
N1833 C1831 1.384 . S
H1834 C1840 0.930 1_455 S
H1835 C1844 0.930 . S
H1836 C1849 0.929 . S
H1837 C1847 0.929 . S
H1838 C1842 0.929 . S
H1839 C1848 0.929 . S
C1840 H1834 0.930 1_655 S
C1840 C1841 1.367 1_655 S
C1840 C1848 1.378 . S
C1841 C1840 1.367 1_455 S
C1841 C1849 1.433 1_455 S
C1842 H1838 0.929 . S
C1842 C1844 1.378 . S
C1842 C1846 1.350 . S
C1843 C1846 1.463 . S
C1843 C1848 1.350 . S
C1843 N1851 1.427 . S
C1844 H1835 0.930 . S
C1844 C1842 1.378 . S
C1844 C1845 1.367 . S
C1845 C1844 1.367 . S
C1845 C1847 1.433 . S
C1846 C1842 1.350 . S
C1846 C1843 1.463 . S
C1846 N1850 1.427 . S
C1847 H1837 0.929 . S
C1847 C1845 1.433 . S
C1847 N1850 1.384 . S
C1848 H1839 0.929 . S
C1848 C1840 1.378 . S
C1848 C1843 1.350 . S
C1849 H1836 0.929 . S
C1849 C1841 1.433 1_655 S
C1849 N1851 1.384 . S
N1850 C1846 1.427 . S
N1850 C1847 1.384 . S
N1851 C1843 1.427 . S
N1851 C1849 1.384 . S
H1852 C1858 0.930 . S
H1853 C1862 0.930 . S
H1854 C1867 0.929 . S
H1855 C1865 0.929 . S
H1856 C1860 0.929 . S
H1857 C1866 0.929 . S
C1858 H1852 0.930 . S
C1858 C1859 1.367 . S
C1858 C1866 1.378 . S
C1859 C1858 1.367 . S
C1859 C1867 1.433 . S
C1860 H1856 0.929 . S
C1860 C1862 1.378 . S
C1860 C1864 1.350 . S
C1861 C1864 1.463 . S
C1861 C1866 1.350 . S
C1861 N1869 1.427 . S
C1862 H1853 0.930 . S
C1862 C1860 1.378 . S
C1862 C1863 1.367 . S
C1863 C1862 1.367 . S
C1863 C1865 1.433 . S
C1864 C1860 1.350 . S
C1864 C1861 1.463 . S
C1864 N1868 1.427 . S
C1865 H1855 0.929 . S
C1865 C1863 1.433 . S
C1865 N1868 1.384 . S
C1866 H1857 0.929 . S
C1866 C1858 1.378 . S
C1866 C1861 1.350 . S
C1867 H1854 0.929 . S
C1867 C1859 1.433 . S
C1867 N1869 1.384 . S
N1868 C1864 1.427 . S
N1868 C1865 1.384 . S
N1869 C1861 1.427 . S
N1869 C1867 1.384 . S
H1870 C1876 0.930 . S
H1871 C1880 0.930 . S
H1872 C1885 0.929 . S
H1873 C1883 0.929 . S
H1874 C1878 0.929 . S
H1875 C1884 0.929 . S
C1876 H1870 0.930 . S
C1876 C1877 1.367 . S
C1876 C1884 1.378 . S
C1877 C1876 1.367 . S
C1877 C1885 1.433 . S
C1878 H1874 0.929 . S
C1878 C1880 1.378 . S
C1878 C1882 1.350 . S
C1879 C1882 1.463 . S
C1879 C1884 1.350 . S
C1879 N1887 1.427 . S
C1880 H1871 0.930 . S
C1880 C1878 1.378 . S
C1880 C1881 1.367 . S
C1881 C1880 1.367 . S
C1881 C1883 1.433 . S
C1882 C1878 1.350 . S
C1882 C1879 1.463 . S
C1882 N1886 1.427 . S
C1883 H1873 0.929 . S
C1883 C1881 1.433 . S
C1883 N1886 1.384 . S
C1884 H1875 0.929 . S
C1884 C1876 1.378 . S
C1884 C1879 1.350 . S
C1885 H1872 0.929 . S
C1885 C1877 1.433 . S
C1885 N1887 1.384 . S
N1886 C1882 1.427 . S
N1886 C1883 1.384 . S
N1887 C1879 1.427 . S
N1887 C1885 1.384 . S
H1888 C1894 0.930 . S
H1889 C1898 0.930 . S
H1890 C1903 0.929 . S
H1891 C1901 0.929 . S
H1892 C1896 0.929 . S
H1893 C1902 0.929 . S
C1894 H1888 0.930 . S
C1894 C1895 1.367 . S
C1894 C1902 1.378 . S
C1895 C1894 1.367 . S
C1895 C1903 1.433 . S
C1896 H1892 0.929 . S
C1896 C1898 1.378 . S
C1896 C1900 1.350 . S
C1897 C1900 1.463 . S
C1897 C1902 1.350 . S
C1897 N1905 1.427 . S
C1898 H1889 0.930 . S
C1898 C1896 1.378 . S
C1898 C1899 1.367 . S
C1899 C1898 1.367 . S
C1899 C1901 1.433 . S
C1900 C1896 1.350 . S
C1900 C1897 1.463 . S
C1900 N1904 1.427 . S
C1901 H1891 0.929 . S
C1901 C1899 1.433 . S
C1901 N1904 1.384 . S
C1902 H1893 0.929 . S
C1902 C1894 1.378 . S
C1902 C1897 1.350 . S
C1903 H1890 0.929 . S
C1903 C1895 1.433 . S
C1903 N1905 1.384 . S
N1904 C1900 1.427 . S
N1904 C1901 1.384 . S
N1905 C1897 1.427 . S
N1905 C1903 1.384 . S
H1906 C1912 0.930 . S
H1907 C1916 0.930 . S
H1908 C1921 0.952 . S
H1909 C1919 0.929 . S
H1910 C1914 0.929 . S
H1911 C1920 0.929 . S
C1912 H1906 0.930 . S
C1912 C1913 1.367 . S
C1912 C1920 1.378 . S
C1913 C1912 1.367 . S
C1913 C1921 1.433 . S
C1914 H1910 0.929 . S
C1914 C1916 1.378 . S
C1914 C1918 1.350 . S
C1915 C1918 1.463 . S
C1915 C1920 1.350 . S
C1915 N1923 1.427 . S
C1916 H1907 0.930 . S
C1916 C1914 1.378 . S
C1916 C1917 1.367 . S
C1917 C1916 1.367 . S
C1917 C1919 1.433 . S
C1918 C1914 1.350 . S
C1918 C1915 1.463 . S
C1918 N1922 1.427 . S
C1919 H1909 0.929 . S
C1919 C1917 1.433 . S
C1919 N1922 1.384 . S
C1920 H1911 0.929 . S
C1920 C1912 1.378 . S
C1920 C1915 1.350 . S
C1921 H1908 0.952 . S
C1921 C1913 1.433 . S
C1921 N1923 1.384 . S
N1922 C1918 1.427 . S
N1922 C1919 1.384 . S
N1923 C1915 1.427 . S
N1923 C1921 1.384 . S
H1924 C1930 0.930 . S
H1925 C1934 0.930 1_455 S
H1926 C1939 0.929 . S
H1927 C1937 0.929 . S
H1928 C1932 0.929 . S
H1929 C1938 0.929 . S
C1930 H1924 0.930 . S
C1930 C1931 1.367 . S
C1930 C1938 1.378 . S
C1931 C1930 1.367 . S
C1931 C1939 1.433 . S
C1932 H1928 0.929 . S
C1932 C1934 1.378 . S
C1932 C1936 1.350 . S
C1933 C1936 1.463 . S
C1933 C1938 1.350 . S
C1933 N1941 1.427 . S
C1934 H1925 0.930 1_655 S
C1934 C1932 1.378 . S
C1934 C1935 1.367 1_655 S
C1935 C1934 1.367 1_455 S
C1935 C1937 1.433 1_455 S
C1936 C1932 1.350 . S
C1936 C1933 1.463 . S
C1936 N1940 1.427 . S
C1937 H1927 0.929 . S
C1937 C1935 1.433 1_655 S
C1937 N1940 1.384 . S
C1938 H1929 0.929 . S
C1938 C1930 1.378 . S
C1938 C1933 1.350 . S
C1939 H1926 0.929 . S
C1939 C1931 1.433 . S
C1939 N1941 1.384 . S
N1940 C1936 1.427 . S
N1940 C1937 1.384 . S
N1941 C1933 1.427 . S
N1941 C1939 1.384 . S
H1942 C1948 0.930 . S
H1943 C1952 0.930 . S
H1944 C1957 0.929 . S
H1945 C1955 0.929 . S
H1946 C1950 0.929 . S
H1947 C1956 0.929 . S
C1948 H1942 0.930 . S
C1948 C1949 1.367 . S
C1948 C1956 1.378 . S
C1949 C1948 1.367 . S
C1949 C1957 1.433 . S
C1950 H1946 0.929 . S
C1950 C1952 1.378 . S
C1950 C1954 1.350 . S
C1951 C1954 1.463 . S
C1951 C1956 1.350 . S
C1951 N1959 1.427 . S
C1952 H1943 0.930 . S
C1952 C1950 1.378 . S
C1952 C1953 1.367 . S
C1953 C1952 1.367 . S
C1953 C1955 1.433 . S
C1954 C1950 1.350 . S
C1954 C1951 1.463 . S
C1954 N1958 1.427 . S
C1955 H1945 0.929 . S
C1955 C1953 1.433 . S
C1955 N1958 1.384 . S
C1956 H1947 0.929 . S
C1956 C1948 1.378 . S
C1956 C1951 1.350 . S
C1957 H1944 0.929 . S
C1957 C1949 1.433 . S
C1957 N1959 1.384 . S
N1958 C1954 1.427 . S
N1958 C1955 1.384 . S
N1959 C1951 1.427 . S
N1959 C1957 1.384 . S
H1960 C1966 0.930 . S
H1961 C1970 0.930 . S
H1962 C1975 0.929 . S
H1963 C1973 0.929 . S
H1964 C1968 0.929 . S
H1965 C1974 0.929 . S
C1966 H1960 0.930 . S
C1966 C1967 1.367 . S
C1966 C1974 1.378 . S
C1967 C1966 1.367 . S
C1967 C1975 1.433 . S
C1968 H1964 0.929 . S
C1968 C1970 1.378 . S
C1968 C1972 1.350 . S
C1969 C1972 1.463 . S
C1969 C1974 1.350 . S
C1969 N1977 1.427 . S
C1970 H1961 0.930 . S
C1970 C1968 1.378 . S
C1970 C1971 1.367 . S
C1971 C1970 1.367 . S
C1971 C1973 1.433 . S
C1972 C1968 1.350 . S
C1972 C1969 1.463 . S
C1972 N1976 1.427 . S
C1973 H1963 0.929 . S
C1973 C1971 1.433 . S
C1973 N1976 1.384 . S
C1974 H1965 0.929 . S
C1974 C1966 1.378 . S
C1974 C1969 1.350 . S
C1975 H1962 0.929 . S
C1975 C1967 1.433 . S
C1975 N1977 1.384 . S
N1976 C1972 1.427 . S
N1976 C1973 1.384 . S
N1977 C1969 1.427 . S
N1977 C1975 1.384 . S
H1978 C1984 0.930 . S
H1979 C1988 0.930 . S
H1980 C1993 0.929 . S
H1981 C1991 0.929 . S
H1982 C1986 0.929 . S
H1983 C1992 0.929 . S
C1984 H1978 0.930 . S
C1984 C1985 1.367 . S
C1984 C1992 1.378 . S
C1985 C1984 1.367 . S
C1985 C1993 1.433 . S
C1986 H1982 0.929 . S
C1986 C1988 1.378 . S
C1986 C1990 1.350 . S
C1987 C1990 1.463 . S
C1987 C1992 1.350 . S
C1987 N1995 1.427 . S
C1988 H1979 0.930 . S
C1988 C1986 1.378 . S
C1988 C1989 1.367 . S
C1989 C1988 1.367 . S
C1989 C1991 1.433 . S
C1990 C1986 1.350 . S
C1990 C1987 1.463 . S
C1990 N1994 1.427 . S
C1991 H1981 0.929 . S
C1991 C1989 1.433 . S
C1991 N1994 1.384 . S
C1992 H1983 0.929 . S
C1992 C1984 1.378 . S
C1992 C1987 1.350 . S
C1993 H1980 0.929 . S
C1993 C1985 1.433 . S
C1993 N1995 1.384 . S
N1994 C1990 1.427 . S
N1994 C1991 1.384 . S
N1995 C1987 1.427 . S
N1995 C1993 1.384 . S
H1996 C2002 0.930 . S
H1997 C2006 0.930 . S
H1998 C2011 0.929 . S
H1999 C2009 0.929 . S
H2000 C2004 0.929 . S
H2001 C2010 0.929 . S
C2002 H1996 0.930 . S
C2002 C2003 1.367 . S
C2002 C2010 1.378 . S
C2003 C2002 1.367 . S
C2003 C2011 1.433 . S
C2004 H2000 0.929 . S
C2004 C2006 1.378 . S
C2004 C2008 1.350 . S
C2005 C2008 1.463 . S
C2005 C2010 1.350 . S
C2005 N2013 1.427 . S
C2006 H1997 0.930 . S
C2006 C2004 1.378 . S
C2006 C2007 1.367 . S
C2007 C2006 1.367 . S
C2007 C2009 1.433 . S
C2008 C2004 1.350 . S
C2008 C2005 1.463 . S
C2008 N2012 1.427 . S
C2009 H1999 0.929 . S
C2009 C2007 1.433 . S
C2009 N2012 1.384 . S
C2010 H2001 0.929 . S
C2010 C2002 1.378 . S
C2010 C2005 1.350 . S
C2011 H1998 0.929 . S
C2011 C2003 1.433 . S
C2011 N2013 1.384 . S
N2012 C2008 1.427 . S
N2012 C2009 1.384 . S
N2013 C2005 1.427 . S
N2013 C2011 1.384 . S
H2014 C2020 0.930 . S
H2015 C2024 0.930 . S
H2016 C2029 0.929 . S
H2017 C2027 0.929 . S
H2018 C2022 0.929 . S
H2019 C2028 0.929 . S
C2020 H2014 0.930 . S
C2020 C2021 1.367 . S
C2020 C2028 1.378 . S
C2021 C2020 1.367 . S
C2021 C2029 1.433 . S
C2022 H2018 0.929 . S
C2022 C2024 1.378 . S
C2022 C2026 1.350 . S
C2023 C2026 1.463 . S
C2023 C2028 1.350 . S
C2023 N2031 1.427 . S
C2024 H2015 0.930 . S
C2024 C2022 1.378 . S
C2024 C2025 1.367 . S
C2025 C2024 1.367 . S
C2025 C2027 1.433 . S
C2026 C2022 1.350 . S
C2026 C2023 1.463 . S
C2026 N2030 1.427 . S
C2027 H2017 0.929 . S
C2027 C2025 1.433 . S
C2027 N2030 1.384 . S
C2028 H2019 0.929 . S
C2028 C2020 1.378 . S
C2028 C2023 1.350 . S
C2029 H2016 0.929 . S
C2029 C2021 1.433 . S
C2029 N2031 1.384 . S
N2030 C2026 1.427 . S
N2030 C2027 1.384 . S
N2031 C2023 1.427 . S
N2031 C2029 1.384 . S
H2032 C2038 0.930 . S
H2033 C2042 0.930 . S
H2034 C2047 0.929 . S
H2035 C2045 0.929 . S
H2036 C2040 0.929 . S
H2037 C2046 0.929 . S
C2038 H2032 0.930 . S
C2038 C2039 1.367 . S
C2038 C2046 1.378 . S
C2039 C2038 1.367 . S
C2039 C2047 1.433 . S
C2040 H2036 0.929 . S
C2040 C2042 1.378 . S
C2040 C2044 1.350 . S
C2041 C2044 1.463 . S
C2041 C2046 1.350 . S
C2041 N2049 1.427 . S
C2042 H2033 0.930 . S
C2042 C2040 1.378 . S
C2042 C2043 1.367 . S
C2043 C2042 1.367 . S
C2043 C2045 1.433 . S
C2044 C2040 1.350 . S
C2044 C2041 1.463 . S
C2044 N2048 1.427 . S
C2045 H2035 0.929 . S
C2045 C2043 1.433 . S
C2045 N2048 1.384 . S
C2046 H2037 0.929 . S
C2046 C2038 1.378 . S
C2046 C2041 1.350 . S
C2047 H2034 0.929 . S
C2047 C2039 1.433 . S
C2047 N2049 1.384 . S
N2048 C2044 1.427 . S
N2048 C2045 1.384 . S
N2049 C2041 1.427 . S
N2049 C2047 1.384 . S
H2050 C2056 0.930 . S
H2051 C2060 0.930 . S
H2052 C2065 0.929 . S
H2053 C2063 0.929 . S
H2054 C2058 0.929 1_545 S
H2055 C2064 0.929 . S
C2056 H2050 0.930 . S
C2056 C2057 1.367 . S
C2056 C2064 1.378 . S
C2057 C2056 1.367 . S
C2057 C2065 1.433 . S
C2058 H2054 0.929 1_565 S
C2058 C2060 1.378 1_565 S
C2058 C2062 1.350 . S
C2059 C2062 1.463 . S
C2059 C2064 1.350 . S
C2059 N2067 1.427 . S
C2060 H2051 0.930 . S
C2060 C2058 1.378 1_545 S
C2060 C2061 1.367 1_545 S
C2061 C2060 1.367 1_565 S
C2061 C2063 1.433 . S
C2062 C2058 1.350 . S
C2062 C2059 1.463 . S
C2062 N2066 1.427 . S
C2063 H2053 0.929 . S
C2063 C2061 1.433 . S
C2063 N2066 1.384 . S
C2064 H2055 0.929 . S
C2064 C2056 1.378 . S
C2064 C2059 1.350 . S
C2065 H2052 0.929 . S
C2065 C2057 1.433 . S
C2065 N2067 1.384 . S
N2066 C2062 1.427 . S
N2066 C2063 1.384 . S
N2067 C2059 1.427 . S
N2067 C2065 1.384 . S
H2068 C2074 0.930 . S
H2069 C2078 0.930 . S
H2070 C2083 0.929 . S
H2071 C2081 0.929 . S
H2072 C2076 0.929 . S
H2073 C2082 0.929 . S
C2074 H2068 0.930 . S
C2074 C2075 1.367 . S
C2074 C2082 1.378 . S
C2075 C2074 1.367 . S
C2075 C2083 1.433 . S
C2076 H2072 0.929 . S
C2076 C2078 1.378 . S
C2076 C2080 1.350 . S
C2077 C2080 1.463 . S
C2077 C2082 1.350 . S
C2077 N2085 1.427 . S
C2078 H2069 0.930 . S
C2078 C2076 1.378 . S
C2078 C2079 1.367 . S
C2079 C2078 1.367 . S
C2079 C2081 1.433 . S
C2080 C2076 1.350 . S
C2080 C2077 1.463 . S
C2080 N2084 1.427 . S
C2081 H2071 0.929 . S
C2081 C2079 1.433 . S
C2081 N2084 1.384 . S
C2082 H2073 0.929 . S
C2082 C2074 1.378 . S
C2082 C2077 1.350 . S
C2083 H2070 0.929 . S
C2083 C2075 1.433 . S
C2083 N2085 1.384 . S
N2084 C2080 1.427 . S
N2084 C2081 1.384 . S
N2085 C2077 1.427 . S
N2085 C2083 1.384 . S
H2086 C2092 0.930 . S
H2087 C2096 0.930 . S
H2088 C2101 0.929 . S
H2089 C2099 0.929 . S
H2090 C2094 0.929 . S
H2091 C2100 0.929 . S
C2092 H2086 0.930 . S
C2092 C2093 1.367 . S
C2092 C2100 1.378 . S
C2093 C2092 1.367 . S
C2093 C2101 1.433 . S
C2094 H2090 0.929 . S
C2094 C2096 1.378 . S
C2094 C2098 1.350 . S
C2095 C2098 1.463 . S
C2095 C2100 1.350 . S
C2095 N2103 1.427 . S
C2096 H2087 0.930 . S
C2096 C2094 1.378 . S
C2096 C2097 1.367 . S
C2097 C2096 1.367 . S
C2097 C2099 1.433 . S
C2098 C2094 1.350 . S
C2098 C2095 1.463 . S
C2098 N2102 1.427 . S
C2099 H2089 0.929 . S
C2099 C2097 1.433 . S
C2099 N2102 1.384 . S
C2100 H2091 0.929 . S
C2100 C2092 1.378 . S
C2100 C2095 1.350 . S
C2101 H2088 0.929 . S
C2101 C2093 1.433 . S
C2101 N2103 1.384 . S
N2102 C2098 1.427 . S
N2102 C2099 1.384 . S
N2103 C2095 1.427 . S
N2103 C2101 1.384 . S
H2104 C2110 0.930 . S
H2105 C2114 0.930 . S
H2106 C2119 0.929 . S
H2107 C2117 0.929 . S
H2108 C2112 0.929 . S
H2109 C2118 0.929 . S
C2110 H2104 0.930 . S
C2110 C2111 1.367 . S
C2110 C2118 1.378 . S
C2111 C2110 1.367 . S
C2111 C2119 1.433 . S
C2112 H2108 0.929 . S
C2112 C2114 1.378 . S
C2112 C2116 1.350 . S
C2113 C2116 1.463 . S
C2113 C2118 1.350 . S
C2113 N2121 1.427 . S
C2114 H2105 0.930 . S
C2114 C2112 1.378 . S
C2114 C2115 1.367 . S
C2115 C2114 1.367 . S
C2115 C2117 1.433 . S
C2116 C2112 1.350 . S
C2116 C2113 1.463 . S
C2116 N2120 1.427 . S
C2117 H2107 0.929 . S
C2117 C2115 1.433 . S
C2117 N2120 1.384 . S
C2118 H2109 0.929 . S
C2118 C2110 1.378 . S
C2118 C2113 1.350 . S
C2119 H2106 0.929 . S
C2119 C2111 1.433 . S
C2119 N2121 1.384 . S
N2120 C2116 1.427 . S
N2120 C2117 1.384 . S
N2121 C2113 1.427 . S
N2121 C2119 1.384 . S
H2122 C2128 0.930 . S
H2123 C2132 0.930 . S
H2124 C2137 0.929 . S
H2125 C2135 0.929 . S
H2126 C2130 0.929 . S
H2127 C2136 0.929 . S
C2128 H2122 0.930 . S
C2128 C2129 1.367 . S
C2128 C2136 1.378 . S
C2129 C2128 1.367 . S
C2129 C2137 1.433 . S
C2130 H2126 0.929 . S
C2130 C2132 1.378 . S
C2130 C2134 1.350 . S
C2131 C2134 1.463 . S
C2131 C2136 1.350 . S
C2131 N2139 1.427 . S
C2132 H2123 0.930 . S
C2132 C2130 1.378 . S
C2132 C2133 1.367 . S
C2133 C2132 1.367 . S
C2133 C2135 1.433 . S
C2134 C2130 1.350 . S
C2134 C2131 1.463 . S
C2134 N2138 1.427 . S
C2135 H2125 0.929 . S
C2135 C2133 1.433 . S
C2135 N2138 1.384 . S
C2136 H2127 0.929 . S
C2136 C2128 1.378 . S
C2136 C2131 1.350 . S
C2137 H2124 0.929 . S
C2137 C2129 1.433 . S
C2137 N2139 1.384 . S
N2138 C2134 1.427 . S
N2138 C2135 1.384 . S
N2139 C2131 1.427 . S
N2139 C2137 1.384 . S
H2140 C2146 0.930 . S
H2141 C2150 0.930 . S
H2142 C2155 0.929 . S
H2143 C2153 0.929 . S
H2144 C2148 0.929 . S
H2145 C2154 0.929 . S
C2146 H2140 0.930 . S
C2146 C2147 1.367 . S
C2146 C2154 1.378 . S
C2147 C2146 1.367 . S
C2147 C2155 1.433 . S
C2148 H2144 0.929 . S
C2148 C2150 1.378 . S
C2148 C2152 1.350 . S
C2149 C2152 1.463 . S
C2149 C2154 1.350 . S
C2149 N2157 1.427 . S
C2150 H2141 0.930 . S
C2150 C2148 1.378 . S
C2150 C2151 1.367 . S
C2151 C2150 1.367 . S
C2151 C2153 1.433 . S
C2152 C2148 1.350 . S
C2152 C2149 1.463 . S
C2152 N2156 1.427 . S
C2153 H2143 0.929 . S
C2153 C2151 1.433 . S
C2153 N2156 1.384 . S
C2154 H2145 0.929 . S
C2154 C2146 1.378 . S
C2154 C2149 1.350 . S
C2155 H2142 0.929 . S
C2155 C2147 1.433 . S
C2155 N2157 1.384 . S
N2156 C2152 1.427 . S
N2156 C2153 1.384 . S
N2157 C2149 1.427 . S
N2157 C2155 1.384 . S
H2158 C2164 0.930 . S
H2159 C2168 0.930 . S
H2160 C2173 0.929 . S
H2161 C2171 0.929 . S
H2162 C2166 0.929 . S
H2163 C2172 0.929 . S
C2164 H2158 0.930 . S
C2164 C2165 1.367 . S
C2164 C2172 1.378 . S
C2165 C2164 1.367 . S
C2165 C2173 1.433 . S
C2166 H2162 0.929 . S
C2166 C2168 1.378 . S
C2166 C2170 1.350 . S
C2167 C2170 1.463 . S
C2167 C2172 1.350 . S
C2167 N2175 1.427 . S
C2168 H2159 0.930 . S
C2168 C2166 1.378 . S
C2168 C2169 1.367 . S
C2169 C2168 1.367 . S
C2169 C2171 1.433 . S
C2170 C2166 1.350 . S
C2170 C2167 1.463 . S
C2170 N2174 1.427 . S
C2171 H2161 0.929 . S
C2171 C2169 1.433 . S
C2171 N2174 1.384 . S
C2172 H2163 0.929 . S
C2172 C2164 1.378 . S
C2172 C2167 1.350 . S
C2173 H2160 0.929 . S
C2173 C2165 1.433 . S
C2173 N2175 1.384 . S
N2174 C2170 1.427 . S
N2174 C2171 1.384 . S
N2175 C2167 1.427 . S
N2175 C2173 1.384 . S
H2176 C2182 0.930 . S
H2177 C2186 0.930 . S
H2178 C2191 0.929 . S
H2179 C2189 0.929 . S
H2180 C2184 0.929 . S
H2181 C2190 0.929 . S
C2182 H2176 0.930 . S
C2182 C2183 1.367 . S
C2182 C2190 1.378 . S
C2183 C2182 1.367 . S
C2183 C2191 1.433 . S
C2184 H2180 0.929 . S
C2184 C2186 1.378 . S
C2184 C2188 1.350 . S
C2185 C2188 1.463 . S
C2185 C2190 1.350 . S
C2185 N2193 1.427 . S
C2186 H2177 0.930 . S
C2186 C2184 1.378 . S
C2186 C2187 1.367 . S
C2187 C2186 1.367 . S
C2187 C2189 1.433 . S
C2188 C2184 1.350 . S
C2188 C2185 1.463 . S
C2188 N2192 1.427 . S
C2189 H2179 0.929 . S
C2189 C2187 1.433 . S
C2189 N2192 1.384 . S
C2190 H2181 0.929 . S
C2190 C2182 1.378 . S
C2190 C2185 1.350 . S
C2191 H2178 0.929 . S
C2191 C2183 1.433 . S
C2191 N2193 1.384 . S
N2192 C2188 1.427 . S
N2192 C2189 1.384 . S
N2193 C2185 1.427 . S
N2193 C2191 1.384 . S
H2194 C2200 0.930 . S
H2195 C2204 0.930 . S
H2196 C2209 0.929 . S
H2197 C2207 0.929 . S
H2198 C2202 0.929 . S
H2199 C2208 0.929 . S
C2200 H2194 0.930 . S
C2200 C2201 1.367 . S
C2200 C2208 1.378 . S
C2201 C2200 1.367 . S
C2201 C2209 1.433 . S
C2202 H2198 0.929 . S
C2202 C2204 1.378 . S
C2202 C2206 1.350 . S
C2203 C2206 1.463 . S
C2203 C2208 1.350 . S
C2203 N2211 1.427 . S
C2204 H2195 0.930 . S
C2204 C2202 1.378 . S
C2204 C2205 1.367 . S
C2205 C2204 1.367 . S
C2205 C2207 1.433 . S
C2206 C2202 1.350 . S
C2206 C2203 1.463 . S
C2206 N2210 1.427 . S
C2207 H2197 0.929 . S
C2207 C2205 1.433 . S
C2207 N2210 1.384 . S
C2208 H2199 0.929 . S
C2208 C2200 1.378 . S
C2208 C2203 1.350 . S
C2209 H2196 0.929 . S
C2209 C2201 1.433 . S
C2209 N2211 1.384 . S
N2210 C2206 1.427 . S
N2210 C2207 1.384 . S
N2211 C2203 1.427 . S
N2211 C2209 1.384 . S
H2212 C2218 0.930 . S
H2213 C2222 0.930 . S
H2214 C2227 0.929 . S
H2215 C2225 0.929 1_554 S
H2216 C2220 0.929 . S
H2217 C2226 0.929 . S
C2218 H2212 0.930 . S
C2218 C2219 1.367 . S
C2218 C2226 1.378 . S
C2219 C2218 1.367 . S
C2219 C2227 1.433 1_655 S
C2220 H2216 0.929 . S
C2220 C2222 1.378 . S
C2220 C2224 1.350 1_455 S
C2221 C2224 1.463 . S
C2221 C2226 1.350 . S
C2221 N2229 1.427 1_655 S
C2222 H2213 0.930 . S
C2222 C2220 1.378 . S
C2222 C2223 1.367 1_455 S
C2223 C2222 1.367 1_655 S
C2223 C2225 1.433 . S
C2224 C2220 1.350 1_655 S
C2224 C2221 1.463 . S
C2224 N2228 1.427 . S
C2225 H2215 0.929 1_556 S
C2225 C2223 1.433 . S
C2225 N2228 1.384 . S
C2226 H2217 0.929 . S
C2226 C2218 1.378 . S
C2226 C2221 1.350 . S
C2227 H2214 0.929 . S
C2227 C2219 1.433 1_455 S
C2227 N2229 1.384 . S
N2228 C2224 1.427 . S
N2228 C2225 1.384 . S
N2229 C2221 1.427 1_455 S
N2229 C2227 1.384 . S
H2230 C2236 0.930 . S
H2231 C2240 0.930 . S
H2232 C2245 0.929 . S
H2233 C2243 0.929 . S
H2234 C2238 0.929 . S
H2235 C2244 0.929 . S
C2236 H2230 0.930 . S
C2236 C2237 1.367 . S
C2236 C2244 1.378 . S
C2237 C2236 1.367 . S
C2237 C2245 1.433 . S
C2238 H2234 0.929 . S
C2238 C2240 1.378 . S
C2238 C2242 1.350 . S
C2239 C2242 1.463 . S
C2239 C2244 1.350 . S
C2239 N2247 1.427 . S
C2240 H2231 0.930 . S
C2240 C2238 1.378 . S
C2240 C2241 1.367 . S
C2241 C2240 1.367 . S
C2241 C2243 1.433 . S
C2242 C2238 1.350 . S
C2242 C2239 1.463 . S
C2242 N2246 1.427 . S
C2243 H2233 0.929 . S
C2243 C2241 1.433 . S
C2243 N2246 1.384 . S
C2244 H2235 0.929 . S
C2244 C2236 1.378 . S
C2244 C2239 1.350 . S
C2245 H2232 0.929 . S
C2245 C2237 1.433 . S
C2245 N2247 1.384 . S
N2246 C2242 1.427 . S
N2246 C2243 1.384 . S
N2247 C2239 1.427 . S
N2247 C2245 1.384 . S
H2248 C2254 0.930 . S
H2249 C2258 0.930 . S
H2250 C2263 0.929 . S
H2251 C2261 0.929 . S
H2252 C2256 0.929 . S
H2253 C2262 0.929 . S
C2254 H2248 0.930 . S
C2254 C2255 1.367 . S
C2254 C2262 1.378 . S
C2255 C2254 1.367 . S
C2255 C2263 1.433 . S
C2256 H2252 0.929 . S
C2256 C2258 1.378 . S
C2256 C2260 1.350 . S
C2257 C2260 1.463 . S
C2257 C2262 1.350 . S
C2257 N2265 1.427 . S
C2258 H2249 0.930 . S
C2258 C2256 1.378 . S
C2258 C2259 1.367 . S
C2259 C2258 1.367 . S
C2259 C2261 1.433 . S
C2260 C2256 1.350 . S
C2260 C2257 1.463 . S
C2260 N2264 1.427 . S
C2261 H2251 0.929 . S
C2261 C2259 1.433 . S
C2261 N2264 1.384 . S
C2262 H2253 0.929 . S
C2262 C2254 1.378 . S
C2262 C2257 1.350 . S
C2263 H2250 0.929 . S
C2263 C2255 1.433 . S
C2263 N2265 1.384 . S
N2264 C2260 1.427 . S
N2264 C2261 1.384 . S
N2265 C2257 1.427 . S
N2265 C2263 1.384 . S
H2266 C2272 0.930 . S
H2267 C2276 0.930 . S
H2268 C2281 0.929 . S
H2269 C2279 0.929 . S
H2270 C2274 0.929 . S
H2271 C2280 0.929 . S
C2272 H2266 0.930 . S
C2272 C2273 1.367 . S
C2272 C2280 1.378 . S
C2273 C2272 1.367 . S
C2273 C2281 1.433 . S
C2274 H2270 0.929 . S
C2274 C2276 1.378 . S
C2274 C2278 1.350 . S
C2275 C2278 1.463 . S
C2275 C2280 1.350 . S
C2275 N2283 1.427 . S
C2276 H2267 0.930 . S
C2276 C2274 1.378 . S
C2276 C2277 1.367 . S
C2277 C2276 1.367 . S
C2277 C2279 1.433 . S
C2278 C2274 1.350 . S
C2278 C2275 1.463 . S
C2278 N2282 1.427 . S
C2279 H2269 0.929 . S
C2279 C2277 1.433 . S
C2279 N2282 1.384 . S
C2280 H2271 0.929 . S
C2280 C2272 1.378 . S
C2280 C2275 1.350 . S
C2281 H2268 0.929 . S
C2281 C2273 1.433 . S
C2281 N2283 1.384 . S
N2282 C2278 1.427 . S
N2282 C2279 1.384 . S
N2283 C2275 1.427 . S
N2283 C2281 1.384 . S
H2284 C2290 0.930 . S
H2285 C2294 0.930 . S
H2286 C2299 0.929 1_655 S
H2287 C2297 0.929 . S
H2288 C2292 0.927 1_655 S
H2289 C2298 0.929 . S
C2290 H2284 0.930 . S
C2290 C2291 1.367 . S
C2290 C2298 1.378 . S
C2291 C2290 1.367 . S
C2291 C2299 1.433 . S
C2292 H2288 0.927 1_455 S
C2292 C2294 1.378 1_455 S
C2292 C2296 1.351 . S
C2293 C2296 1.463 . S
C2293 C2298 1.350 . S
C2293 N2301 1.427 . S
C2294 H2285 0.930 . S
C2294 C2292 1.378 1_655 S
C2294 C2295 1.367 1_655 S
C2295 C2294 1.367 1_455 S
C2295 C2297 1.433 . S
C2296 C2292 1.351 . S
C2296 C2293 1.463 . S
C2296 N2300 1.427 . S
C2297 H2287 0.929 . S
C2297 C2295 1.433 . S
C2297 N2300 1.384 . S
C2298 H2289 0.929 . S
C2298 C2290 1.378 . S
C2298 C2293 1.350 . S
C2299 H2286 0.929 1_455 S
C2299 C2291 1.433 . S
C2299 N2301 1.384 . S
N2300 C2296 1.427 . S
N2300 C2297 1.384 . S
N2301 C2293 1.427 . S
N2301 C2299 1.384 . S
H2302 C2308 0.930 . S
H2303 C2312 0.930 . S
H2304 C2317 0.929 . S
H2305 C2315 0.929 . S
H2306 C2310 0.929 . S
H2307 C2316 0.929 . S
C2308 H2302 0.930 . S
C2308 C2309 1.367 . S
C2308 C2316 1.378 . S
C2309 C2308 1.367 . S
C2309 C2317 1.433 . S
C2310 H2306 0.929 . S
C2310 C2312 1.378 . S
C2310 C2314 1.350 . S
C2311 C2314 1.463 . S
C2311 C2316 1.350 . S
C2311 N2319 1.427 . S
C2312 H2303 0.930 . S
C2312 C2310 1.378 . S
C2312 C2313 1.367 . S
C2313 C2312 1.367 . S
C2313 C2315 1.433 . S
C2314 C2310 1.350 . S
C2314 C2311 1.463 . S
C2314 N2318 1.427 . S
C2315 H2305 0.929 . S
C2315 C2313 1.433 . S
C2315 N2318 1.384 . S
C2316 H2307 0.929 . S
C2316 C2308 1.378 . S
C2316 C2311 1.350 . S
C2317 H2304 0.929 . S
C2317 C2309 1.433 . S
C2317 N2319 1.384 . S
N2318 C2314 1.427 . S
N2318 C2315 1.384 . S
N2319 C2311 1.427 . S
N2319 C2317 1.384 . S
H2320 C2326 0.930 . S
H2321 C2330 0.930 . S
H2322 C2335 0.929 . S
H2323 C2333 0.929 . S
H2324 C2328 0.929 . S
H2325 C2334 0.929 . S
C2326 H2320 0.930 . S
C2326 C2327 1.367 . S
C2326 C2334 1.378 . S
C2327 C2326 1.367 . S
C2327 C2335 1.433 . S
C2328 H2324 0.929 . S
C2328 C2330 1.378 . S
C2328 C2332 1.350 . S
C2329 C2332 1.463 . S
C2329 C2334 1.350 . S
C2329 N2337 1.427 . S
C2330 H2321 0.930 . S
C2330 C2328 1.378 . S
C2330 C2331 1.367 . S
C2331 C2330 1.367 . S
C2331 C2333 1.433 . S
C2332 C2328 1.350 . S
C2332 C2329 1.463 . S
C2332 N2336 1.427 . S
C2333 H2323 0.929 . S
C2333 C2331 1.433 . S
C2333 N2336 1.384 . S
C2334 H2325 0.929 . S
C2334 C2326 1.378 . S
C2334 C2329 1.350 . S
C2335 H2322 0.929 . S
C2335 C2327 1.433 . S
C2335 N2337 1.384 . S
N2336 C2332 1.427 . S
N2336 C2333 1.384 . S
N2337 C2329 1.427 . S
N2337 C2335 1.384 . S
H2338 C2344 0.930 . S
H2339 C2348 0.930 . S
H2340 C2353 0.929 . S
H2341 C2351 0.929 . S
H2342 C2346 0.929 . S
H2343 C2352 0.929 . S
C2344 H2338 0.930 . S
C2344 C2345 1.367 . S
C2344 C2352 1.378 . S
C2345 C2344 1.367 . S
C2345 C2353 1.433 . S
C2346 H2342 0.929 . S
C2346 C2348 1.378 . S
C2346 C2350 1.350 . S
C2347 C2350 1.463 . S
C2347 C2352 1.350 . S
C2347 N2355 1.427 . S
C2348 H2339 0.930 . S
C2348 C2346 1.378 . S
C2348 C2349 1.367 . S
C2349 C2348 1.367 . S
C2349 C2351 1.433 . S
C2350 C2346 1.350 . S
C2350 C2347 1.463 . S
C2350 N2354 1.427 . S
C2351 H2341 0.929 . S
C2351 C2349 1.433 . S
C2351 N2354 1.384 . S
C2352 H2343 0.929 . S
C2352 C2344 1.378 . S
C2352 C2347 1.350 . S
C2353 H2340 0.929 . S
C2353 C2345 1.433 . S
C2353 N2355 1.384 . S
N2354 C2350 1.427 . S
N2354 C2351 1.384 . S
N2355 C2347 1.427 . S
N2355 C2353 1.384 . S
H2356 C2362 0.930 . S
H2357 C2366 0.930 . S
H2358 C2371 0.929 . S
H2359 C2369 0.929 . S
H2360 C2364 0.929 . S
H2361 C2370 0.929 . S
C2362 H2356 0.930 . S
C2362 C2363 1.367 . S
C2362 C2370 1.378 . S
C2363 C2362 1.367 . S
C2363 C2371 1.433 . S
C2364 H2360 0.929 . S
C2364 C2366 1.378 . S
C2364 C2368 1.350 . S
C2365 C2368 1.463 . S
C2365 C2370 1.350 . S
C2365 N2373 1.427 . S
C2366 H2357 0.930 . S
C2366 C2364 1.378 . S
C2366 C2367 1.367 . S
C2367 C2366 1.367 . S
C2367 C2369 1.433 . S
C2368 C2364 1.350 . S
C2368 C2365 1.463 . S
C2368 N2372 1.427 . S
C2369 H2359 0.929 . S
C2369 C2367 1.433 . S
C2369 N2372 1.384 . S
C2370 H2361 0.929 . S
C2370 C2362 1.378 . S
C2370 C2365 1.350 . S
C2371 H2358 0.929 . S
C2371 C2363 1.433 . S
C2371 N2373 1.384 . S
N2372 C2368 1.427 . S
N2372 C2369 1.384 . S
N2373 C2365 1.427 . S
N2373 C2371 1.384 . S
H2374 C2380 0.930 . S
H2375 C2384 0.930 . S
H2376 C2389 0.929 . S
H2377 C2387 0.929 . S
H2378 C2382 0.929 . S
H2379 C2388 0.929 . S
C2380 H2374 0.930 . S
C2380 C2381 1.367 . S
C2380 C2388 1.378 . S
C2381 C2380 1.367 . S
C2381 C2389 1.433 . S
C2382 H2378 0.929 . S
C2382 C2384 1.378 . S
C2382 C2386 1.350 . S
C2383 C2386 1.463 . S
C2383 C2388 1.350 . S
C2383 N2391 1.427 . S
C2384 H2375 0.930 . S
C2384 C2382 1.378 . S
C2384 C2385 1.367 . S
C2385 C2384 1.367 . S
C2385 C2387 1.433 . S
C2386 C2382 1.350 . S
C2386 C2383 1.463 . S
C2386 N2390 1.427 . S
C2387 H2377 0.929 . S
C2387 C2385 1.433 . S
C2387 N2390 1.384 . S
C2388 H2379 0.929 . S
C2388 C2380 1.378 . S
C2388 C2383 1.350 . S
C2389 H2376 0.929 . S
C2389 C2381 1.433 . S
C2389 N2391 1.384 . S
N2390 C2386 1.427 . S
N2390 C2387 1.384 . S
N2391 C2383 1.427 . S
N2391 C2389 1.384 . S
H2392 C2398 0.930 . S
H2393 C2402 0.930 . S
H2394 C2407 0.929 . S
H2395 C2405 0.929 . S
H2396 C2400 0.929 . S
H2397 C2406 0.929 . S
C2398 H2392 0.930 . S
C2398 C2399 1.367 . S
C2398 C2406 1.378 . S
C2399 C2398 1.367 . S
C2399 C2407 1.433 . S
C2400 H2396 0.929 . S
C2400 C2402 1.378 . S
C2400 C2404 1.350 . S
C2401 C2404 1.463 . S
C2401 C2406 1.350 . S
C2401 N2409 1.427 . S
C2402 H2393 0.930 . S
C2402 C2400 1.378 . S
C2402 C2403 1.367 . S
C2403 C2402 1.367 . S
C2403 C2405 1.433 . S
C2404 C2400 1.350 . S
C2404 C2401 1.463 . S
C2404 N2408 1.427 . S
C2405 H2395 0.929 . S
C2405 C2403 1.433 . S
C2405 N2408 1.384 . S
C2406 H2397 0.929 . S
C2406 C2398 1.378 . S
C2406 C2401 1.350 . S
C2407 H2394 0.929 . S
C2407 C2399 1.433 . S
C2407 N2409 1.384 . S
N2408 C2404 1.427 . S
N2408 C2405 1.384 . S
N2409 C2401 1.427 . S
N2409 C2407 1.384 . S
H2410 C2416 0.930 . S
H2411 C2420 0.930 . S
H2412 C2425 0.929 . S
H2413 C2423 0.929 . S
H2414 C2418 0.929 . S
H2415 C2424 0.929 . S
C2416 H2410 0.930 . S
C2416 C2417 1.367 . S
C2416 C2424 1.378 . S
C2417 C2416 1.367 . S
C2417 C2425 1.433 . S
C2418 H2414 0.929 . S
C2418 C2420 1.378 . S
C2418 C2422 1.350 . S
C2419 C2422 1.463 . S
C2419 C2424 1.350 . S
C2419 N2427 1.427 . S
C2420 H2411 0.930 . S
C2420 C2418 1.378 . S
C2420 C2421 1.367 . S
C2421 C2420 1.367 . S
C2421 C2423 1.433 . S
C2422 C2418 1.350 . S
C2422 C2419 1.463 . S
C2422 N2426 1.427 . S
C2423 H2413 0.929 . S
C2423 C2421 1.433 . S
C2423 N2426 1.384 . S
C2424 H2415 0.929 . S
C2424 C2416 1.378 . S
C2424 C2419 1.350 . S
C2425 H2412 0.929 . S
C2425 C2417 1.433 . S
C2425 N2427 1.384 . S
N2426 C2422 1.427 . S
N2426 C2423 1.384 . S
N2427 C2419 1.427 . S
N2427 C2425 1.384 . S
H2428 C2434 0.930 . S
H2429 C2438 0.930 . S
H2430 C2443 0.929 . S
H2431 C2441 0.929 . S
H2432 C2436 0.929 . S
H2433 C2442 0.929 . S
C2434 H2428 0.930 . S
C2434 C2435 1.367 . S
C2434 C2442 1.378 . S
C2435 C2434 1.367 . S
C2435 C2443 1.433 . S
C2436 H2432 0.929 . S
C2436 C2438 1.378 . S
C2436 C2440 1.350 . S
C2437 C2440 1.463 . S
C2437 C2442 1.350 . S
C2437 N2445 1.427 . S
C2438 H2429 0.930 . S
C2438 C2436 1.378 . S
C2438 C2439 1.367 . S
C2439 C2438 1.367 . S
C2439 C2441 1.433 . S
C2440 C2436 1.350 . S
C2440 C2437 1.463 . S
C2440 N2444 1.427 . S
C2441 H2431 0.929 . S
C2441 C2439 1.433 . S
C2441 N2444 1.384 . S
C2442 H2433 0.929 . S
C2442 C2434 1.378 . S
C2442 C2437 1.350 . S
C2443 H2430 0.929 . S
C2443 C2435 1.433 . S
C2443 N2445 1.384 . S
N2444 C2440 1.427 . S
N2444 C2441 1.384 . S
N2445 C2437 1.427 . S
N2445 C2443 1.384 . S
H2446 C2452 0.930 . S
H2447 C2456 0.930 . S
H2448 C2461 0.929 . S
H2449 C2459 0.929 . S
H2450 C2454 0.929 . S
H2451 C2460 0.929 . S
C2452 H2446 0.930 . S
C2452 C2453 1.367 . S
C2452 C2460 1.378 . S
C2453 C2452 1.367 . S
C2453 C2461 1.433 . S
C2454 H2450 0.929 . S
C2454 C2456 1.378 . S
C2454 C2458 1.350 . S
C2455 C2458 1.463 . S
C2455 C2460 1.350 . S
C2455 N2463 1.427 . S
C2456 H2447 0.930 . S
C2456 C2454 1.378 . S
C2456 C2457 1.367 . S
C2457 C2456 1.367 . S
C2457 C2459 1.433 . S
C2458 C2454 1.350 . S
C2458 C2455 1.463 . S
C2458 N2462 1.427 . S
C2459 H2449 0.929 . S
C2459 C2457 1.433 . S
C2459 N2462 1.384 . S
C2460 H2451 0.929 . S
C2460 C2452 1.378 . S
C2460 C2455 1.350 . S
C2461 H2448 0.929 . S
C2461 C2453 1.433 . S
C2461 N2463 1.384 . S
N2462 C2458 1.427 . S
N2462 C2459 1.384 . S
N2463 C2455 1.427 . S
N2463 C2461 1.384 . S
H2464 C2470 0.930 . S
H2465 C2474 0.930 . S
H2466 C2479 0.929 . S
H2467 C2477 0.929 . S
H2468 C2472 0.929 . S
H2469 C2478 0.929 . S
C2470 H2464 0.930 . S
C2470 C2471 1.367 . S
C2470 C2478 1.378 . S
C2471 C2470 1.367 . S
C2471 C2479 1.433 . S
C2472 H2468 0.929 . S
C2472 C2474 1.378 . S
C2472 C2476 1.350 . S
C2473 C2476 1.463 . S
C2473 C2478 1.350 . S
C2473 N2481 1.427 . S
C2474 H2465 0.930 . S
C2474 C2472 1.378 . S
C2474 C2475 1.367 . S
C2475 C2474 1.367 . S
C2475 C2477 1.433 . S
C2476 C2472 1.350 . S
C2476 C2473 1.463 . S
C2476 N2480 1.427 . S
C2477 H2467 0.929 . S
C2477 C2475 1.433 . S
C2477 N2480 1.384 . S
C2478 H2469 0.929 . S
C2478 C2470 1.378 . S
C2478 C2473 1.350 . S
C2479 H2466 0.929 . S
C2479 C2471 1.433 . S
C2479 N2481 1.384 . S
N2480 C2476 1.427 . S
N2480 C2477 1.384 . S
N2481 C2473 1.427 . S
N2481 C2479 1.384 . S
H2482 C2488 0.930 . S
H2483 C2492 0.930 . S
H2484 C2497 0.929 . S
H2485 C2495 0.929 . S
H2486 C2490 0.929 . S
H2487 C2496 0.929 . S
C2488 H2482 0.930 . S
C2488 C2489 1.367 . S
C2488 C2496 1.378 . S
C2489 C2488 1.367 . S
C2489 C2497 1.433 . S
C2490 H2486 0.929 . S
C2490 C2492 1.378 . S
C2490 C2494 1.350 . S
C2491 C2494 1.463 . S
C2491 C2496 1.350 . S
C2491 N2499 1.427 . S
C2492 H2483 0.930 . S
C2492 C2490 1.378 . S
C2492 C2493 1.367 . S
C2493 C2492 1.367 . S
C2493 C2495 1.433 . S
C2494 C2490 1.350 . S
C2494 C2491 1.463 . S
C2494 N2498 1.427 . S
C2495 H2485 0.929 . S
C2495 C2493 1.433 . S
C2495 N2498 1.384 . S
C2496 H2487 0.929 . S
C2496 C2488 1.378 . S
C2496 C2491 1.350 . S
C2497 H2484 0.929 . S
C2497 C2489 1.433 . S
C2497 N2499 1.384 . S
N2498 C2494 1.427 . S
N2498 C2495 1.384 . S
N2499 C2491 1.427 . S
N2499 C2497 1.384 . S
H2500 C2506 0.930 . S
H2501 C2510 0.930 . S
H2502 C2515 0.929 . S
H2503 C2513 0.929 . S
H2504 C2508 0.929 . S
H2505 C2514 0.929 . S
C2506 H2500 0.930 . S
C2506 C2507 1.367 . S
C2506 C2514 1.378 . S
C2507 C2506 1.367 . S
C2507 C2515 1.433 . S
C2508 H2504 0.929 . S
C2508 C2510 1.378 . S
C2508 C2512 1.350 . S
C2509 C2512 1.463 . S
C2509 C2514 1.350 . S
C2509 N2517 1.427 . S
C2510 H2501 0.930 . S
C2510 C2508 1.378 . S
C2510 C2511 1.367 . S
C2511 C2510 1.367 . S
C2511 C2513 1.433 . S
C2512 C2508 1.350 . S
C2512 C2509 1.463 . S
C2512 N2516 1.427 . S
C2513 H2503 0.929 . S
C2513 C2511 1.433 . S
C2513 N2516 1.384 . S
C2514 H2505 0.929 . S
C2514 C2506 1.378 . S
C2514 C2509 1.350 . S
C2515 H2502 0.929 . S
C2515 C2507 1.433 . S
C2515 N2517 1.384 . S
N2516 C2512 1.427 . S
N2516 C2513 1.384 . S
N2517 C2509 1.427 . S
N2517 C2515 1.384 . S
H2518 C2524 0.930 . S
H2519 C2528 0.930 . S
H2520 C2533 0.929 1_556 S
H2521 C2531 0.925 1_545 S
H2522 C2526 0.919 1_556 S
H2523 C2532 0.929 . S
C2524 H2518 0.930 . S
C2524 C2525 1.367 . S
C2524 C2532 1.378 . S
C2525 C2524 1.367 . S
C2525 C2533 1.433 . S
C2526 H2522 0.919 1_554 S
C2526 C2528 1.377 1_554 S
C2526 C2530 1.360 . S
C2527 C2530 1.463 . S
C2527 C2532 1.350 . S
C2527 N2535 1.427 . S
C2528 H2519 0.930 . S
C2528 C2526 1.377 1_556 S
C2528 C2529 1.367 1_556 S
C2529 C2528 1.367 1_554 S
C2529 C2531 1.435 . S
C2530 C2526 1.360 . S
C2530 C2527 1.463 . S
C2530 N2534 1.427 . S
C2531 H2521 0.925 1_565 S
C2531 C2529 1.435 . S
C2531 N2534 1.386 . S
C2532 H2523 0.929 . S
C2532 C2524 1.378 . S
C2532 C2527 1.350 . S
C2533 H2520 0.929 1_554 S
C2533 C2525 1.433 . S
C2533 N2535 1.384 . S
N2534 C2530 1.427 . S
N2534 C2531 1.386 . S
N2535 C2527 1.427 . S
N2535 C2533 1.384 . S
H2536 C2542 0.930 . S
H2537 C2546 0.930 . S
H2538 C2551 0.929 . S
H2539 C2549 0.929 . S
H2540 C2544 0.929 . S
H2541 C2550 0.929 . S
C2542 H2536 0.930 . S
C2542 C2543 1.367 . S
C2542 C2550 1.378 . S
C2543 C2542 1.367 . S
C2543 C2551 1.433 . S
C2544 H2540 0.929 . S
C2544 C2546 1.378 . S
C2544 C2548 1.350 . S
C2545 C2548 1.463 . S
C2545 C2550 1.350 . S
C2545 N2553 1.427 . S
C2546 H2537 0.930 . S
C2546 C2544 1.378 . S
C2546 C2547 1.367 . S
C2547 C2546 1.367 . S
C2547 C2549 1.433 . S
C2548 C2544 1.350 . S
C2548 C2545 1.463 . S
C2548 N2552 1.427 . S
C2549 H2539 0.929 . S
C2549 C2547 1.433 . S
C2549 N2552 1.384 . S
C2550 H2541 0.929 . S
C2550 C2542 1.378 . S
C2550 C2545 1.350 . S
C2551 H2538 0.929 . S
C2551 C2543 1.433 . S
C2551 N2553 1.384 . S
N2552 C2548 1.427 . S
N2552 C2549 1.384 . S
N2553 C2545 1.427 . S
N2553 C2551 1.384 . S
H2554 C2560 0.930 . S
H2555 C2564 0.930 . S
H2556 C2569 0.929 . S
H2557 C2567 0.929 . S
H2558 C2562 0.929 . S
H2559 C2568 0.922 1_556 S
C2560 H2554 0.930 . S
C2560 C2561 1.369 . S
C2560 C2568 1.366 1_556 S
C2561 C2560 1.369 . S
C2561 C2569 1.429 1_556 S
C2562 H2558 0.929 . S
C2562 C2564 1.378 . S
C2562 C2566 1.350 . S
C2563 C2566 1.463 . S
C2563 C2568 1.371 . S
C2563 N2571 1.427 . S
C2564 H2555 0.930 . S
C2564 C2562 1.378 . S
C2564 C2565 1.367 . S
C2565 C2564 1.367 . S
C2565 C2567 1.433 . S
C2566 C2562 1.350 . S
C2566 C2563 1.463 . S
C2566 N2570 1.427 . S
C2567 H2557 0.929 . S
C2567 C2565 1.433 . S
C2567 N2570 1.384 . S
C2568 H2559 0.922 1_554 S
C2568 C2560 1.366 1_554 S
C2568 C2563 1.371 . S
C2569 H2556 0.929 . S
C2569 C2561 1.429 1_554 S
C2569 N2571 1.384 . S
N2570 C2566 1.427 . S
N2570 C2567 1.384 . S
N2571 C2563 1.427 . S
N2571 C2569 1.384 . S
H2572 C2578 0.930 . S
H2573 C2582 0.930 . S
H2574 C2587 0.929 . S
H2575 C2585 0.929 . S
H2576 C2580 0.929 . S
H2577 C2586 0.929 . S
C2578 H2572 0.930 . S
C2578 C2579 1.367 . S
C2578 C2586 1.378 . S
C2579 C2578 1.367 . S
C2579 C2587 1.433 . S
C2580 H2576 0.929 . S
C2580 C2582 1.378 . S
C2580 C2584 1.350 . S
C2581 C2584 1.463 . S
C2581 C2586 1.350 . S
C2581 N2589 1.427 . S
C2582 H2573 0.930 . S
C2582 C2580 1.378 . S
C2582 C2583 1.367 . S
C2583 C2582 1.367 . S
C2583 C2585 1.433 . S
C2584 C2580 1.350 . S
C2584 C2581 1.463 . S
C2584 N2588 1.427 . S
C2585 H2575 0.929 . S
C2585 C2583 1.433 . S
C2585 N2588 1.384 . S
C2586 H2577 0.929 . S
C2586 C2578 1.378 . S
C2586 C2581 1.350 . S
C2587 H2574 0.929 . S
C2587 C2579 1.433 . S
C2587 N2589 1.384 . S
N2588 C2584 1.427 . S
N2588 C2585 1.384 . S
N2589 C2581 1.427 . S
N2589 C2587 1.384 . S
H2590 C2596 0.930 . S
H2591 C2600 0.930 . S
H2592 C2605 0.929 . S
H2593 C2603 0.929 . S
H2594 C2598 0.929 . S
H2595 C2604 0.929 . S
C2596 H2590 0.930 . S
C2596 C2597 1.367 . S
C2596 C2604 1.378 . S
C2597 C2596 1.367 . S
C2597 C2605 1.433 . S
C2598 H2594 0.929 . S
C2598 C2600 1.378 . S
C2598 C2602 1.350 . S
C2599 C2602 1.463 . S
C2599 C2604 1.350 . S
C2599 N2607 1.427 . S
C2600 H2591 0.930 . S
C2600 C2598 1.378 . S
C2600 C2601 1.367 . S
C2601 C2600 1.367 . S
C2601 C2603 1.433 . S
C2602 C2598 1.350 . S
C2602 C2599 1.463 . S
C2602 N2606 1.427 . S
C2603 H2593 0.929 . S
C2603 C2601 1.433 . S
C2603 N2606 1.384 . S
C2604 H2595 0.929 . S
C2604 C2596 1.378 . S
C2604 C2599 1.350 . S
C2605 H2592 0.929 . S
C2605 C2597 1.433 . S
C2605 N2607 1.384 . S
N2606 C2602 1.427 . S
N2606 C2603 1.384 . S
N2607 C2599 1.427 . S
N2607 C2605 1.384 . S
C891 C353 0.963 . S
C887 C13 0.919 . S
C905 C25 1.803 . S
C909 C399 1.795 . S
C923 C39 0.793 . S
C927 C408 0.782 . S
C945 C446 1.739 . S
C941 C50 1.722 . S
C959 C21 1.588 . S
C963 C480 1.576 . S
C981 C510 0.815 . S
C977 C35 0.812 . S
C999 C569 1.573 1_556 S
C995 C55 1.506 . S
C1013 C8 1.042 . S
C1017 C582 1.029 . S
C1031 C69 1.300 . S
C1035 C365 1.341 . S
C1049 C77 1.179 . S
C1053 C383 1.172 . S
C1071 C404 1.648 . S
C1067 C97 1.582 . S
C1089 C442 0.806 . S
C1085 C105 0.804 . S
C1103 C63 1.303 . S
C1107 C476 1.284 . S
C1125 C506 1.579 . S
C1121 C83 1.519 . S
C1143 C553 1.200 . S
C1139 C91 1.209 . S
C1161 C578 0.645 . S
C1157 C111 0.688 . S
C1179 C349 0.708 . S
C1175 C106 0.697 . S
C1197 C608 1.580 . S
C1193 C123 1.557 . S
C1211 C134 1.436 . S
C1215 C650 1.456 . S
C1233 C693 0.438 . S
C1229 C151 0.458 . S
C1247 C64 1.402 . S
C1251 C574 1.412 . S
C1269 C412 1.495 . S
C1265 C78 1.486 . S
C1283 C137 1.306 . S
C1287 C710 1.333 . S
C1305 C761 1.512 . S
C1301 C165 1.509 . S
C1319 C175 0.868 . S
C1323 C344 0.873 1_556 S
C1341 C744 1.695 . S
C1337 C193 1.687 . S
C1355 C209 0.787 . S
C1359 C417 0.780 . S
C1373 C223 1.436 . S
C1377 C727 1.513 . S
C1395 C489 1.479 . S
C1391 C195 1.392 . S
C1413 C655 0.685 . S
C1409 C207 0.688 . S
C1431 C540 1.423 . S
C1427 C221 1.419 . S
C1449 C795 0.878 . S
C1445 C176 0.866 . S
C1467 C336 1.200 1_655 S
C1463 C231 1.237 . S
C1481 C251 1.039 . S
C1485 C748 1.103 . S
C1503 C433 1.574 . S
C1499 C259 1.588 . S
C1517 C279 0.744 . S
C1521 C723 0.764 . S
C1535 C237 1.154 1_545 S
C1539 C485 1.210 . S
C1553 C245 1.511 . S
C1557 C671 1.495 . S
C1575 C544 1.139 . S
C1571 C265 1.066 . S
C1589 C273 0.581 . S
C1593 C791 0.590 . S
C1607 C274 0.664 . S
C1611 C340 0.656 . S
C1625 C291 1.409 . S
C1629 C637 1.422 . S
C1643 C302 1.305 . S
C1647 C523 1.383 . S
C1661 C319 0.377 . S
C1665 C684 0.363 . S
C1683 C807 1.323 . S
C1679 C232 1.277 . S
C1701 C421 1.465 . S
C1697 C246 1.367 . S
C1719 C467 1.221 . S
C1715 C305 1.215 . S
C1737 C378 1.392 . S
C1733 C333 1.389 . S
C1751 C36 1.050 . S
C1755 C829 1.034 . S
C1773 C773 1.765 . S
C1769 C53 1.778 . S
C1791 C850 0.882 . S
C1787 C7 0.880 . S
C1805 C22 1.693 . S
C1809 C718 1.693 . S
C1823 C49 1.633 . S
C1827 C616 1.621 . S
C1845 C646 0.730 . S
C1841 C11 0.743 . S
C1863 C705 1.604 . S
C1859 C27 1.547 . S
C1881 C786 0.971 . S
C1877 C41 0.950 . S
C1899 C841 1.342 . S
C1895 C167 1.318 . S
C1913 C119 1.189 1_556 S
C1917 C757 1.182 . S
C1931 C139 1.598 . S
C1935 C846 1.655 . S
C1953 C714 0.814 . S
C1949 C147 0.813 . S
C1971 C612 1.271 . S
C1967 C161 1.293 . S
C1985 C125 1.511 . S
C1989 C642 1.561 . S
C2007 C689 1.182 . S
C2003 C133 1.194 . S
C2021 C153 0.672 . S
C2025 C782 0.624 . S
C2043 C825 0.740 . S
C2039 C148 0.738 . S
C2061 C472 1.552 . S
C2057 C81 1.526 . S
C2079 C514 1.491 . S
C2075 C92 1.484 . S
C2093 C109 0.404 . S
C2097 C557 0.421 . S
C2115 C778 1.354 . S
C2111 C162 1.373 . S
C2129 C120 1.514 . S
C2133 C854 1.540 . S
C2151 C438 1.353 . S
C2147 C95 1.335 . S
C2169 C387 1.538 . S
C2165 C67 1.522 . S
C2183 C203 0.923 . S
C2187 C820 0.923 . S
C2205 C370 1.811 . S
C2201 C217 1.826 . S
C2223 C859 0.767 . S
C2219 C181 0.740 . S
C2237 C190 1.612 . S
C2241 C455 1.644 . S
C2255 C218 1.596 . S
C2259 C625 1.621 . S
C2273 C179 0.655 . S
C2277 C519 0.655 . S
C2291 C189 1.551 . S
C2295 C676 1.541 . S
C2309 C204 0.882 . S
C2313 C591 0.899 . S
C2331 C812 1.246 . S
C2327 C329 1.269 . S
C2345 C293 1.015 . S
C2349 C374 1.063 . S
C2367 C875 1.593 . S
C2363 C301 1.613 . S
C2381 C321 0.751 . S
C2385 C451 0.735 . S
C2399 C335 1.112 . S
C2403 C621 1.172 . S
C2421 C535 1.527 . S
C2417 C287 1.547 . S
C2435 C307 1.047 . S
C2439 C680 1.109 . S
C2457 C587 0.611 . S
C2453 C315 0.602 . S
C2475 C816 0.636 . S
C2471 C316 0.661 . S
C2493 C501 1.498 . S
C2489 C249 1.477 . S
C2507 C260 1.319 . S
C2511 C659 1.410 . S
C2529 C548 0.445 . S
C2525 C277 0.451 . S
C2547 C603 1.278 . S
C2543 C330 1.225 . S
C2561 C288 1.351 1_556 S
C2565 C863 1.445 . S
C2583 C739 1.291 . S
C2579 C263 1.287 . S
C2601 C752 1.466 . S
C2597 C235 1.463 . S
