# Generated by pormake.
# Topology scu, (8,4)-cn, num edge types: 1
# Building blocks:
#     Node 0, Type 0, BuildingBlock: TAGTUT_clean_sbu_3, # of connection points: 8
#     Node 1, Type 1, BuildingBlock: KOZSID_clean_sbu_0, # of connection points: 4
#     Node 2, Type 1, BuildingBlock: KOZSID_clean_sbu_0, # of connection points: 4
#     Edge 3, Type (0, 1), BuildingBlock: KIFKEQ_clean_linker_1, # of connection points: 2
#     Edge 4, Type (0, 1), BuildingBlock: KIFKEQ_clean_linker_1, # of connection points: 2
#     Edge 5, Type (0, 1), BuildingBlock: KIFKEQ_clean_linker_1, # of connection points: 2
#     Edge 6, Type (0, 1), BuildingBlock: KIFKEQ_clean_linker_1, # of connection points: 2
#     Edge 7, Type (0, 1), BuildingBlock: KIFKEQ_clean_linker_1, # of connection points: 2
#     Edge 8, Type (0, 1), BuildingBlock: KIFKEQ_clean_linker_1, # of connection points: 2
#     Edge 9, Type (0, 1), BuildingBlock: KIFKEQ_clean_linker_1, # of connection points: 2
#     Edge 10, Type (0, 1), BuildingBlock: KIFKEQ_clean_linker_1, # of connection points: 2
# Relax obj value: 0.023
# Max RMSD: 0.101
# Mean RMSD: 0.062
data_MOF--net-scu--node1-TAGTUT_clean_sbu_3--node2-KOZSID_clean_sbu_0--edge1-KIFKEQ_clean_linker_1
_symmetry_space_group_name_H-M    P1
_symmetry_Int_Tables_number       1
_symmetry_cell_setting            triclinic
loop_
_symmetry_equiv_pos_as_xyz
'x, y, z'
_cell_length_a     31.12136
_cell_length_b     26.409569
_cell_length_c     21.63128
_cell_angle_alpha  84.984992
_cell_angle_beta   87.10651
_cell_angle_gamma 89.99015
loop_
_atom_site_label
_atom_site_type_symbol
_atom_site_fract_x
_atom_site_fract_y
_atom_site_fract_z
_atom_type_partial_charge
C0 C 1.00275 0.90432 0.0999 0.0
C1 C 0.84725 0.99042 0.07797 0.0
C2 C 0.88941 0.01799 0.8877 0.0
Mg3 Mg 0.09301 0.93668 0.01731 0.0
Mg4 Mg 0.10583 0.05829 0.97568 0.0
O5 O 0.07282 -0.00038 0.96855 0.0
Mg6 Mg 0.01149 0.00217 -0.00046 0.0
O7 O 0.95007 0.00145 0.03108 0.0
Mg8 Mg 0.92977 0.93669 0.00023 0.0
Mg9 Mg 0.91802 0.05946 0.00599 0.0
C10 C 0.02398 0.10726 0.91061 0.0
O11 O 0.02172 0.06866 0.05875 0.0
O12 O 0.15595 0.94669 0.95044 0.0
O13 O 0.96231 0.1152 0.03738 0.0
O14 O 0.12708 0.97879 0.08895 0.0
O15 O 0.15904 0.0311 0.92248 0.0
O16 O 0.12755 0.06265 0.06905 0.0
O17 O 0.99533 0.9363 0.94261 0.0
O18 O 0.05706 0.89359 0.94921 0.0
C19 C 0.01882 0.89826 0.93021 0.0
C20 C 0.17359 0.98595 0.91919 0.0
O21 O 1.00142 0.06643 0.92285 0.0
O22 O 0.86627 0.94999 0.06113 0.0
O23 O 0.06157 0.11275 0.93147 0.0
O24 O 0.89739 0.97477 0.91568 0.0
O25 O 0.86206 0.03526 0.06222 0.0
O26 O 0.89901 0.0591 0.91087 0.0
O27 O 0.02733 0.9399 0.07448 0.0
O28 O 0.96434 0.89869 0.08273 0.0
C29 C 0.13667 0.0229 0.10375 0.0
C30 C 0.99948 0.10962 0.06065 0.0
C31 C 0.06449 0.57626 0.42542 0.0
C32 C 0.10738 0.59105 0.41886 0.0
C33 C 0.12898 0.55931 0.45954 0.0
C34 C 0.0981 0.52733 0.48855 0.0
N35 N 0.05813 0.53609 0.46824 0.0
Co36 Co 1.00324 0.50089 0.50068 0.0
N37 N 0.03459 0.45667 0.56342 0.0
C38 C 0.07758 0.45504 0.57025 0.0
C39 C 0.08983 0.41955 0.6159 0.0
C40 C 0.05252 0.39672 0.63934 0.0
C41 C 0.01947 0.41986 0.60654 0.0
N42 N 0.94811 0.46725 0.53496 0.0
C43 C 0.94108 0.43044 0.58208 0.0
C44 C 0.89771 0.41851 0.59183 0.0
C45 C 0.8765 0.4487 0.54899 0.0
C46 C 0.90799 0.47733 0.51591 0.0
N47 N 0.9722 0.54384 0.43649 0.0
C48 C 0.93001 0.54137 0.42473 0.0
C49 C 0.91821 0.5756 0.37735 0.0
C50 C 0.95496 0.60181 0.35809 0.0
C51 C 0.98713 0.58205 0.39521 0.0
N52 N 0.01199 0.44847 0.44069 0.0
C53 C 0.02394 0.37918 0.34916 0.0
C54 C 0.98276 0.39344 0.3696 0.0
C55 C 0.9776 0.42792 0.41452 0.0
C56 C 0.05907 0.39881 0.37713 0.0
C57 C 0.0524 0.43273 0.42278 0.0
N58 N 0.99446 0.55355 0.55979 0.0
C59 C 0.9515 0.62076 0.60025 0.0
C60 C 0.98517 0.63445 0.63568 0.0
C61 C 0.02286 0.6057 0.63439 0.0
C62 C 0.02674 0.56566 0.59662 0.0
C63 C 0.95681 0.58045 0.56283 0.0
H64 H 0.0564 0.5455 0.59724 0.0
H65 H 0.93031 0.57235 0.5359 0.0
H66 H 0.94533 0.43745 0.42682 0.0
H67 H 0.08053 0.44598 0.44231 0.0
C68 C 0.10548 0.48885 0.5351 0.0
C69 C 0.03074 0.60256 0.39163 0.0
C70 C 0.97445 0.40485 0.61755 0.0
C71 C 0.90147 0.51089 0.46364 0.0
H72 H 0.12147 0.622 0.3884 0.0
H73 H 0.163 0.55993 0.46765 0.0
H74 H 0.12203 0.41143 0.63059 0.0
H75 H 0.04997 0.36634 0.67632 0.0
H76 H 0.88307 0.39034 0.6258 0.0
H77 H 0.84231 0.44894 0.54189 0.0
H78 H 0.88634 0.58209 0.36047 0.0
H79 H 0.9576 0.63286 0.32195 0.0
H80 H 0.95429 0.37807 0.35116 0.0
H81 H 0.0917 0.38895 0.36318 0.0
H82 H 0.92166 0.64189 0.6 0.0
H83 H 0.04944 0.61411 0.66236 0.0
C84 C 0.45711 0.93925 0.61114 0.0
C85 C 0.44604 0.89156 0.63973 0.0
C86 C 0.467 0.85688 0.60628 0.0
C87 C 0.48958 0.88517 0.55943 0.0
N88 N 0.4846 0.9359 0.56107 0.0
Co89 Co 0.51228 0.9906 0.50206 0.0
N90 N 0.53926 0.93917 0.44953 0.0
C91 C 0.53287 0.88833 0.45629 0.0
C92 C 0.55448 0.86281 0.41191 0.0
C93 C 0.57638 0.89951 0.3748 0.0
C94 C 0.56711 0.9454 0.39932 0.0
N95 N 0.54232 0.04505 0.44513 0.0
C96 C 0.57228 0.04102 0.39797 0.0
C97 C 0.58822 0.08831 0.37447 0.0
C98 C 0.56777 0.12341 0.40807 0.0
C99 C 0.5409 0.09571 0.45038 0.0
N100 N 0.48303 0.04196 0.55264 0.0
C101 C 0.48526 0.09314 0.54158 0.0
C102 C 0.45952 0.11854 0.58177 0.0
C103 C 0.43896 0.08135 0.62008 0.0
C104 C 0.45349 0.03525 0.60099 0.0
N105 N 0.56323 0.98903 0.5541 0.0
C106 C 0.64099 0.99197 0.61565 0.0
C107 C 0.61472 0.03466 0.60858 0.0
C108 C 0.57646 0.03237 0.57822 0.0
C109 C 0.62659 0.94683 0.59387 0.0
C110 C 0.58776 0.94614 0.56363 0.0
N111 N 0.46139 0.99315 0.44968 0.0
C112 C 0.41258 0.04264 0.38517 0.0
C113 C 0.38645 0.00034 0.38092 0.0
C114 C 0.39877 0.95395 0.41117 0.0
C115 C 0.4363 0.95111 0.44468 0.0
C116 C 0.44936 0.03828 0.41934 0.0
H117 H 0.44425 0.91466 0.46644 0.0
H118 H 0.46713 0.07242 0.421 0.0
H119 H 0.55857 0.06665 0.57417 0.0
H120 H 0.57851 0.91081 0.54742 0.0
C121 C 0.51092 0.86526 0.50896 0.0
C122 C 0.43793 0.9862 0.62994 0.0
C123 C 0.58757 0.99326 0.37557 0.0
C124 C 0.51326 0.11604 0.49474 0.0
H125 H 0.42385 0.88251 0.67926 0.0
H126 H 0.46448 0.81589 0.61353 0.0
H127 H 0.55558 0.82218 0.40843 0.0
H128 H 0.59779 0.89306 0.33529 0.0
H129 H 0.61254 0.09662 0.33747 0.0
H130 H 0.57232 0.16422 0.40275 0.0
H131 H 0.45609 0.15922 0.58306 0.0
H132 H 0.41579 0.08738 0.65771 0.0
H133 H 0.62355 0.07007 0.62646 0.0
H134 H 0.6456 0.9125 0.59872 0.0
H135 H 0.40425 0.07956 0.36324 0.0
H136 H 0.37981 0.91989 0.40854 0.0
H137 H 0.99514 0.21052 0.02564 0.0
H138 H 0.04081 0.10273 0.16871 0.0
H139 H 0.01237 0.28026 0.08687 0.0
H140 H 0.05505 0.17175 0.23254 0.0
H141 H 0.08465 0.30421 0.3371 0.0
H142 H 0.09029 0.24393 0.2581 0.0
H143 H 0.97954 0.31287 0.17189 0.0
H144 H 0.9765 0.37533 0.24687 0.0
C145 C 0.00906 0.20196 0.07028 0.0
C146 C 0.01603 0.15151 0.09317 0.0
C147 C 0.01862 0.24178 0.10568 0.0
C148 C 0.03394 0.23182 0.1657 0.0
C149 C 0.04353 0.18123 0.1866 0.0
C150 C 0.03512 0.14149 0.15026 0.0
C151 C 0.06222 0.30724 0.30031 0.0
C152 C 0.02965 0.34422 0.29908 0.0
C153 C 0.0651 0.27219 0.25537 0.0
C154 C 0.03515 0.27291 0.20863 0.0
C155 C 1.00367 0.31118 0.20632 0.0
C156 C 1.00128 0.34658 0.25042 0.0
H157 H 0.81541 0.90852 0.15448 0.0
H158 H 0.78779 0.06433 0.09109 0.0
H159 H 0.75103 0.90681 0.22511 0.0
H160 H 0.72451 0.06268 0.1613 0.0
H161 H 0.59182 0.02879 0.25333 0.0
H162 H 0.65275 0.02356 0.17786 0.0
H163 H 0.7278 0.94836 0.32129 0.0
H164 H 0.66661 0.9537 0.39638 0.0
C165 C 0.79546 0.9421 0.15512 0.0
C166 C 0.80684 0.98658 0.1174 0.0
C167 C 0.75885 0.94128 0.19582 0.0
C168 C 0.73274 0.98467 0.19877 0.0
C169 C 0.74361 0.02848 0.15972 0.0
C170 C 0.78017 0.02946 0.11974 0.0
C171 C 0.62155 0.0116 0.26847 0.0
C172 C 0.62506 0.99235 0.33043 0.0
C173 C 0.6563 0.0084 0.22549 0.0
C174 C 0.69507 0.98547 0.24366 0.0
C175 C 0.69823 0.96566 0.30572 0.0
C176 C 0.66354 0.96919 0.34874 0.0
H177 H 0.08247 0.8616 0.11489 0.0
H178 H 0.95455 0.86853 0.20068 0.0
H179 H 0.10052 0.79308 0.19389 0.0
H180 H 0.97235 0.80145 0.27892 0.0
H181 H 0.01425 0.69548 0.43013 0.0
H182 H 0.01883 0.7773 0.36727 0.0
H183 H 0.07075 0.70167 0.21084 0.0
H184 H 0.06656 0.62007 0.27448 0.0
C185 C 0.05871 0.84932 0.15144 0.0
C186 C 0.01704 0.86966 0.1516 0.0
C187 C 0.06891 0.81018 0.1963 0.0
C188 C 0.03781 0.79204 0.24246 0.0
C189 C 0.99715 0.81498 0.24449 0.0
C190 C 0.98682 0.85308 0.19935 0.0
C191 C 0.02755 0.6969 0.38273 0.0
C192 C 0.03976 0.65217 0.35645 0.0
C193 C 0.03023 0.74342 0.34689 0.0
C194 C 0.04494 0.7457 0.28415 0.0
C195 C 0.0598 0.7011 0.25924 0.0
C196 C 0.0571 0.65452 0.29522 0.0
H197 H 0.15316 0.94765 0.19374 0.0
H198 H 0.18458 0.10416 0.13353 0.0
H199 H 0.21077 0.94483 0.26526 0.0
H200 H 0.24175 0.10185 0.20719 0.0
H201 H 0.37648 0.05281 0.268 0.0
H202 H 0.31148 0.06337 0.21046 0.0
H203 H 0.24094 0.97086 0.35618 0.0
H204 H 0.30649 0.95976 0.41342 0.0
C205 C 0.17168 0.98199 0.19687 0.0
C206 C 0.16454 0.02597 0.15711 0.0
C207 C 0.20474 0.98039 0.23832 0.0
C208 C 0.23153 0.02282 0.24145 0.0
C209 C 0.22238 0.06805 0.20498 0.0
C210 C 0.18922 0.06964 0.16328 0.0
C211 C 0.34703 0.03501 0.28801 0.0
C212 C 0.34672 0.00535 0.3453 0.0
C213 C 0.30958 0.04137 0.25517 0.0
C214 C 0.27068 0.01838 0.27875 0.0
C215 C 0.27035 0.98877 0.33622 0.0
C216 C 0.30795 0.98221 0.36899 0.0
H217 H 0.05234 0.8047 0.92021 0.0
H218 H 0.95095 0.90345 0.85231 0.0
H219 H 0.03628 0.74505 0.84541 0.0
H220 H 0.93455 0.84218 0.77697 0.0
H221 H 0.9172 0.66166 0.71197 0.0
H222 H 0.91652 0.72915 0.78354 0.0
H223 H 0.04479 0.77376 0.71547 0.0
H224 H 0.04547 0.70752 0.64374 0.0
C225 C 0.02621 0.81346 0.88983 0.0
C226 C 1.00342 0.85932 0.89139 0.0
C227 C 0.01704 0.77916 0.84716 0.0
C228 C 0.9847 0.7896 0.80525 0.0
C229 C 0.95973 0.83363 0.80903 0.0
C230 C 0.96909 0.86848 0.852 0.0
C231 C 0.9448 0.6867 0.71139 0.0
C232 C 0.9818 0.6787 0.67331 0.0
C233 C 0.94429 0.72523 0.75209 0.0
C234 C 0.98071 0.75603 0.75492 0.0
C235 C 0.01648 0.75006 0.71418 0.0
C236 C 0.01698 0.71192 0.67366 0.0
H237 H 0.2334 0.90836 0.91787 0.0
H238 H 0.19927 0.05196 0.82162 0.0
H239 H 0.2977 0.90488 0.84725 0.0
H240 H 0.26262 0.04861 0.75273 0.0
H241 H 0.35579 0.00508 0.59982 0.0
H242 H 0.2908 -0.00094 0.66868 0.0
H243 H 0.36792 0.95467 0.82485 0.0
H244 H 0.43297 0.96061 0.75523 0.0
C245 C 0.23939 0.93884 0.88162 0.0
C246 C 0.21134 0.98051 0.87568 0.0
C247 C 0.27625 0.93706 0.84154 0.0
C248 C 0.28511 0.97647 0.79438 0.0
C249 C 0.25651 0.01738 0.788 0.0
C250 C 0.22027 0.01941 0.82803 0.0
C251 C 0.35864 0.99421 0.64892 0.0
C252 C 0.39901 0.98361 0.67266 0.0
C253 C 0.32161 0.99063 0.68829 0.0
C254 C 0.32427 0.97632 0.75221 0.0
C255 C 0.36482 0.96515 0.77575 0.0
C256 C 0.40196 0.96903 0.73627 0.0
H257 H 0.04623 0.20667 0.90942 0.0
H258 H 0.96072 0.10587 0.8268 0.0
H259 H 0.0208 0.27795 0.84284 0.0
H260 H 0.93461 0.17802 0.76016 0.0
H261 H 0.96917 0.30601 0.59444 0.0
H262 H 0.96993 0.23222 0.67116 0.0
H263 H 0.95827 0.33211 0.81905 0.0
H264 H 0.95822 0.40572 0.74176 0.0
C265 C 0.02168 0.19982 0.87732 0.0
C266 C 0.00583 0.15057 0.8728 0.0
C267 C 0.00665 0.24084 0.83974 0.0
C268 C 0.97556 0.23364 0.79642 0.0
C269 C 0.95867 0.18462 0.79306 0.0
C270 C 0.9735 0.14343 0.83127 0.0
C271 C 0.9653 0.31171 0.64341 0.0
C272 C 0.96372 0.36094 0.6628 0.0
C273 C 0.96563 0.26966 0.68729 0.0
C274 C 0.96468 0.27649 0.75109 0.0
C275 C 0.9596 0.32582 0.77017 0.0
C276 C 0.95925 0.3678 0.72625 0.0
H277 H 0.87595 0.94037 0.81569 0.0
H278 H 0.84137 0.09668 0.83624 0.0
H279 H 0.82028 0.93445 0.7417 0.0
H280 H 0.78495 0.09042 0.7627 0.0
H281 H 0.69968 0.06996 0.60168 0.0
H282 H 0.76519 0.07855 0.65719 0.0
H283 H 0.74245 0.93008 0.75377 0.0
H284 H 0.67686 0.92159 0.69849 0.0
C285 C 0.85695 0.97383 0.80362 0.0
C286 C 0.8628 0.01886 0.83257 0.0
C287 C 0.82474 0.97023 0.76154 0.0
C288 C 0.79747 0.01153 0.74728 0.0
C289 C 0.8054 0.05783 0.77259 0.0
C290 C 0.83782 0.06149 0.81472 0.0
C291 C 0.70861 0.03913 0.63486 0.0
C292 C 0.68273 0.9952 0.646 0.0
C293 C 0.74624 0.04409 0.6666 0.0
C294 C 0.75912 0.00512 0.71006 0.0
C295 C 0.73389 0.96058 0.71991 0.0
C296 C 0.6962 0.95565 0.68823 0.0
loop_
_geom_bond_atom_site_label_1
_geom_bond_atom_site_label_2
_geom_bond_distance
_geom_bond_site_symmetry_2
_ccdc_geom_bond_type
C0 O27 1.312 1_655 S
C0 O28 1.208 . S
C1 O22 1.331 . S
C1 O25 1.244 1_565 S
C2 O24 1.264 1_545 S
C2 O26 1.273 . S
Mg3 O5 1.936 1_565 S
Mg3 O12 2.081 . S
Mg3 O14 2.023 1_556 S
Mg3 O18 2.031 . S
Mg3 O27 2.291 1_556 S
Mg4 O5 1.963 . S
Mg4 O15 1.942 . S
Mg4 O16 1.955 1_556 S
Mg4 O23 1.986 . S
O5 Mg3 1.936 1_545 S
O5 Mg4 1.963 . S
O5 Mg6 1.911 1_556 S
Mg6 O5 1.911 1_554 S
Mg6 O7 1.919 1_455 S
Mg6 O11 2.024 . S
Mg6 O17 2.104 1_444 S
Mg6 O21 2.002 1_454 S
Mg6 O27 2.123 1_545 S
O7 Mg6 1.919 1_655 S
O7 Mg8 1.936 1_545 S
O7 Mg9 1.963 . S
Mg8 O7 1.936 1_565 S
Mg8 O17 2.291 1_554 S
Mg8 O22 2.081 . S
Mg8 O24 2.023 1_554 S
Mg8 O28 2.031 . S
Mg9 O7 1.963 . S
Mg9 O13 1.986 . S
Mg9 O25 1.942 . S
Mg9 O26 1.955 1_554 S
C10 O21 1.191 1_455 S
C10 O23 1.307 . S
O11 Mg6 2.024 . S
O11 C30 1.191 1_455 S
O12 Mg3 2.081 . S
O12 C20 1.331 . S
O13 Mg9 1.986 . S
O13 C30 1.307 . S
O14 Mg3 2.023 1_554 S
O14 C29 1.264 1_565 S
O15 Mg4 1.942 . S
O15 C20 1.244 1_545 S
O16 Mg4 1.955 1_554 S
O16 C29 1.273 . S
O17 Mg6 2.104 1_666 S
O17 Mg8 2.291 1_556 S
O17 C19 1.312 1_655 S
O18 Mg3 2.031 . S
O18 C19 1.208 . S
C19 O17 1.312 1_455 S
C19 O18 1.208 . S
C20 O12 1.331 . S
C20 O15 1.244 1_565 S
O21 Mg6 2.002 1_656 S
O21 C10 1.191 1_655 S
O22 C1 1.331 . S
O22 Mg8 2.081 . S
O23 Mg4 1.986 . S
O23 C10 1.307 . S
O24 C2 1.264 1_565 S
O24 Mg8 2.023 1_556 S
O25 C1 1.244 1_545 S
O25 Mg9 1.942 . S
O26 C2 1.273 . S
O26 Mg9 1.955 1_556 S
O27 C0 1.312 1_455 S
O27 Mg3 2.291 1_554 S
O27 Mg6 2.123 1_565 S
O28 C0 1.208 . S
O28 Mg8 2.031 . S
C29 O14 1.264 1_545 S
C29 O16 1.273 . S
C30 O11 1.191 1_655 S
C30 O13 1.307 . S
C31 C32 1.443 . S
C31 N35 1.376 . S
C31 C69 1.389 . S
C32 C31 1.443 . S
C32 C33 1.340 . S
C32 H72 0.951 . S
C33 C32 1.340 . S
C33 C34 1.439 . S
C33 H73 0.950 . S
C34 C33 1.439 . S
C34 N35 1.374 . S
C34 C68 1.395 . S
N35 C31 1.376 . S
N35 C34 1.374 . S
N35 Co36 2.008 . S
Co36 N35 2.008 . S
Co36 N37 1.995 . S
Co36 N42 2.008 1_455 S
Co36 N47 1.995 1_455 S
Co36 N52 2.282 . S
Co36 N58 2.282 . S
N37 Co36 1.995 . S
N37 C38 1.376 . S
N37 C41 1.383 . S
C38 N37 1.376 . S
C38 C39 1.446 . S
C38 C68 1.391 . S
C39 C38 1.446 . S
C39 C40 1.339 . S
C39 H74 0.949 . S
C40 C39 1.339 . S
C40 C41 1.439 . S
C40 H75 0.950 . S
C41 N37 1.383 . S
C41 C40 1.439 . S
C41 C70 1.392 . S
N42 Co36 2.008 1_655 S
N42 C43 1.376 . S
N42 C46 1.374 . S
C43 N42 1.376 . S
C43 C44 1.443 . S
C43 C70 1.389 1_655 S
C44 C43 1.443 . S
C44 C45 1.340 . S
C44 H76 0.951 . S
C45 C44 1.340 . S
C45 C46 1.439 . S
C45 H77 0.950 . S
C46 N42 1.374 . S
C46 C45 1.439 . S
C46 C71 1.395 . S
N47 Co36 1.995 1_655 S
N47 C48 1.376 . S
N47 C51 1.383 . S
C48 N47 1.376 . S
C48 C49 1.446 . S
C48 C71 1.391 . S
C49 C48 1.446 . S
C49 C50 1.339 . S
C49 H78 0.949 . S
C50 C49 1.339 . S
C50 C51 1.439 . S
C50 H79 0.950 . S
C51 N47 1.383 . S
C51 C50 1.439 . S
C51 C69 1.392 1_655 S
N52 Co36 2.282 . S
N52 C55 1.332 1_455 S
N52 C57 1.332 . S
C53 C54 1.386 1_455 S
C53 C56 1.388 . S
C54 C53 1.386 1_655 S
C54 C55 1.382 . S
C54 H80 0.950 . S
C55 N52 1.332 1_655 S
C55 C54 1.382 . S
C55 H66 0.952 . S
C56 C53 1.388 . S
C56 C57 1.382 . S
C56 H81 0.950 . S
C57 N52 1.332 . S
C57 C56 1.382 . S
C57 H67 0.948 . S
N58 Co36 2.282 . S
N58 C62 1.332 . S
N58 C63 1.332 1_455 S
C59 C60 1.388 1_655 S
C59 C63 1.382 . S
C59 H82 0.950 . S
C60 C59 1.388 1_455 S
C60 C61 1.386 . S
C61 C60 1.386 . S
C61 C62 1.382 . S
C61 H83 0.950 . S
C62 N58 1.332 . S
C62 C61 1.382 . S
C62 H64 0.952 . S
C63 N58 1.332 1_655 S
C63 C59 1.382 . S
C63 H65 0.948 . S
H64 C62 0.952 . S
H65 C63 0.948 . S
H66 C55 0.952 . S
H67 C57 0.948 . S
C68 C34 1.395 . S
C68 C38 1.391 . S
C69 C31 1.389 . S
C69 C51 1.392 1_455 S
C70 C41 1.392 . S
C70 C43 1.389 1_455 S
C71 C46 1.395 . S
C71 C48 1.391 . S
H72 C32 0.951 . S
H73 C33 0.950 . S
H74 C39 0.949 . S
H75 C40 0.950 . S
H76 C44 0.951 . S
H77 C45 0.950 . S
H78 C49 0.949 . S
H79 C50 0.950 . S
H80 C54 0.950 . S
H81 C56 0.950 . S
H82 C59 0.950 . S
H83 C61 0.950 . S
C84 C85 1.443 . S
C84 N88 1.376 . S
C84 C122 1.367 1_565 S
C85 C84 1.443 . S
C85 C86 1.340 . S
C85 H125 0.951 . S
C86 C85 1.340 . S
C86 C87 1.439 . S
C86 H126 0.950 . S
C87 C86 1.439 . S
C87 N88 1.374 . S
C87 C121 1.395 . S
N88 C84 1.376 . S
N88 C87 1.374 . S
N88 Co89 2.008 1_565 S
Co89 N88 2.008 1_545 S
Co89 N90 1.995 1_545 S
Co89 N95 2.008 . S
Co89 N100 1.995 . S
Co89 N105 2.282 1_545 S
Co89 N111 2.282 . S
N90 Co89 1.995 1_565 S
N90 C91 1.376 . S
N90 C94 1.383 . S
C91 N90 1.376 . S
C91 C92 1.446 . S
C91 C121 1.391 . S
C92 C91 1.446 . S
C92 C93 1.339 . S
C92 H127 0.949 . S
C93 C92 1.339 . S
C93 C94 1.439 . S
C93 H128 0.950 . S
C94 N90 1.383 . S
C94 C93 1.439 . S
C94 C123 1.392 1_565 S
N95 Co89 2.008 . S
N95 C96 1.376 . S
N95 C99 1.374 . S
C96 N95 1.376 . S
C96 C97 1.443 . S
C96 C123 1.389 . S
C97 C96 1.443 . S
C97 C98 1.340 . S
C97 H129 0.951 . S
C98 C97 1.340 . S
C98 C99 1.439 . S
C98 H130 0.950 . S
C99 N95 1.374 . S
C99 C98 1.439 . S
C99 C124 1.395 . S
N100 Co89 1.995 . S
N100 C101 1.376 . S
N100 C104 1.383 . S
C101 N100 1.376 . S
C101 C102 1.446 . S
C101 C124 1.391 . S
C102 C101 1.446 . S
C102 C103 1.339 . S
C102 H131 0.949 . S
C103 C102 1.339 . S
C103 C104 1.439 . S
C103 H132 0.950 . S
C104 N100 1.383 . S
C104 C103 1.439 . S
C104 C122 1.412 . S
N105 Co89 2.282 1_565 S
N105 C108 1.332 1_565 S
N105 C110 1.332 . S
C106 C107 1.386 . S
C106 C109 1.388 1_545 S
C107 C106 1.386 . S
C107 C108 1.382 . S
C107 H133 0.950 . S
C108 N105 1.332 1_545 S
C108 C107 1.382 . S
C108 H119 0.952 . S
C109 C106 1.388 1_565 S
C109 C110 1.382 . S
C109 H134 0.950 . S
C110 N105 1.332 . S
C110 C109 1.382 . S
C110 H120 0.948 . S
N111 Co89 2.282 . S
N111 C115 1.332 1_545 S
N111 C116 1.332 . S
C112 C113 1.388 . S
C112 C116 1.382 . S
C112 H135 0.950 . S
C113 C112 1.388 . S
C113 C114 1.386 1_545 S
C114 C113 1.386 1_565 S
C114 C115 1.382 . S
C114 H136 0.950 . S
C115 N111 1.332 1_565 S
C115 C114 1.382 . S
C115 H117 0.952 . S
C116 N111 1.332 . S
C116 C112 1.382 . S
C116 H118 0.948 . S
H117 C115 0.952 . S
H118 C116 0.948 . S
H119 C108 0.952 . S
H120 C110 0.948 . S
C121 C87 1.395 . S
C121 C91 1.391 . S
C122 C84 1.367 1_545 S
C122 C104 1.412 . S
C123 C94 1.392 1_545 S
C123 C96 1.389 . S
C124 C99 1.395 . S
C124 C101 1.391 . S
H125 C85 0.951 . S
H126 C86 0.950 . S
H127 C92 0.949 . S
H128 C93 0.950 . S
H129 C97 0.951 . S
H130 C98 0.950 . S
H131 C102 0.949 . S
H132 C103 0.950 . S
H133 C107 0.950 . S
H134 C109 0.950 . S
H135 C112 0.950 . S
H136 C114 0.950 . S
H137 C145 0.950 . S
H138 C150 0.950 . S
H139 C147 0.950 . S
H140 C149 0.950 . S
H141 C151 0.950 . S
H142 C153 0.950 . S
H143 C155 0.950 . S
H144 C156 0.950 . S
C145 H137 0.950 . S
C145 C146 1.386 . S
C145 C147 1.391 . S
C146 C145 1.386 . S
C146 C150 1.392 1_655 S
C147 H139 0.950 . S
C147 C145 1.391 . S
C147 C148 1.400 1_655 S
C148 C147 1.400 1_455 S
C148 C149 1.398 . S
C148 C154 1.491 . S
C149 H140 0.950 . S
C149 C148 1.398 . S
C149 C150 1.391 . S
C150 H138 0.950 . S
C150 C146 1.392 1_455 S
C150 C149 1.391 . S
C151 H141 0.950 . S
C151 C152 1.386 . S
C151 C153 1.391 . S
C152 C151 1.386 . S
C152 C156 1.393 1_455 S
C153 H142 0.950 . S
C153 C151 1.391 . S
C153 C154 1.400 . S
C154 C148 1.491 . S
C154 C153 1.400 . S
C154 C155 1.398 1_455 S
C155 H143 0.950 . S
C155 C154 1.398 1_655 S
C155 C156 1.391 . S
C156 H144 0.950 . S
C156 C152 1.393 1_655 S
C156 C155 1.391 . S
H157 C165 0.950 . S
H158 C170 0.950 . S
H159 C167 0.950 . S
H160 C169 0.950 . S
H161 C171 0.950 . S
H162 C173 0.950 . S
H163 C175 0.950 . S
H164 C176 0.950 . S
C165 H157 0.950 . S
C165 C166 1.386 . S
C165 C167 1.391 . S
C166 C165 1.386 . S
C166 C170 1.393 1_565 S
C167 H159 0.950 . S
C167 C165 1.391 . S
C167 C168 1.400 . S
C168 C167 1.400 . S
C168 C169 1.398 1_565 S
C168 C174 1.491 . S
C169 H160 0.950 . S
C169 C168 1.398 1_545 S
C169 C170 1.391 . S
C170 H158 0.950 . S
C170 C166 1.393 1_545 S
C170 C169 1.391 . S
C171 H161 0.950 . S
C171 C172 1.386 1_545 S
C171 C173 1.391 . S
C172 C171 1.386 1_565 S
C172 C176 1.393 . S
C173 H162 0.950 . S
C173 C171 1.391 . S
C173 C174 1.400 1_545 S
C174 C168 1.491 . S
C174 C173 1.400 1_565 S
C174 C175 1.398 . S
C175 H163 0.950 . S
C175 C174 1.398 . S
C175 C176 1.391 . S
C176 H164 0.950 . S
C176 C172 1.393 . S
C176 C175 1.391 . S
H177 C185 0.950 . S
H178 C190 0.950 . S
H179 C187 0.950 . S
H180 C189 0.950 . S
H181 C191 0.950 . S
H182 C193 0.950 . S
H183 C195 0.950 . S
H184 C196 0.950 . S
C185 H177 0.950 . S
C185 C186 1.386 1_655 S
C185 C187 1.391 . S
C186 C185 1.386 1_455 S
C186 C190 1.393 . S
C187 H179 0.950 . S
C187 C185 1.391 . S
C187 C188 1.400 1_655 S
C188 C187 1.400 1_455 S
C188 C189 1.398 . S
C188 C194 1.491 . S
C189 H180 0.950 . S
C189 C188 1.398 . S
C189 C190 1.391 . S
C190 H178 0.950 . S
C190 C186 1.393 . S
C190 C189 1.391 . S
C191 H181 0.950 . S
C191 C192 1.386 . S
C191 C193 1.391 . S
C192 C191 1.386 . S
C192 C196 1.393 1_455 S
C193 H182 0.950 . S
C193 C191 1.391 . S
C193 C194 1.400 . S
C194 C188 1.491 . S
C194 C193 1.400 . S
C194 C195 1.398 1_455 S
C195 H183 0.950 . S
C195 C194 1.398 1_655 S
C195 C196 1.391 . S
C196 H184 0.950 . S
C196 C192 1.393 1_655 S
C196 C195 1.391 . S
H197 C205 0.950 . S
H198 C210 0.950 . S
H199 C207 0.950 . S
H200 C209 0.950 . S
H201 C211 0.950 . S
H202 C213 0.950 . S
H203 C215 0.950 . S
H204 C216 0.950 1_565 S
C205 H197 0.950 . S
C205 C206 1.386 . S
C205 C207 1.391 . S
C206 C205 1.386 . S
C206 C210 1.393 . S
C207 H199 0.950 . S
C207 C205 1.391 . S
C207 C208 1.400 . S
C208 C207 1.400 . S
C208 C209 1.398 . S
C208 C214 1.491 . S
C209 H200 0.950 . S
C209 C208 1.398 . S
C209 C210 1.391 . S
C210 H198 0.950 . S
C210 C206 1.393 . S
C210 C209 1.391 . S
C211 H201 0.950 . S
C211 C212 1.386 . S
C211 C213 1.391 . S
C212 C211 1.386 . S
C212 C216 1.393 . S
C213 H202 0.950 . S
C213 C211 1.391 . S
C213 C214 1.400 . S
C214 C208 1.491 . S
C214 C213 1.400 . S
C214 C215 1.398 . S
C215 H203 0.950 . S
C215 C214 1.398 . S
C215 C216 1.391 . S
C216 H204 0.950 1_545 S
C216 C212 1.393 . S
C216 C215 1.391 . S
H217 C225 0.950 . S
H218 C230 0.950 . S
H219 C227 0.950 . S
H220 C229 0.950 . S
H221 C231 0.950 . S
H222 C233 0.950 . S
H223 C235 0.950 . S
H224 C236 0.950 . S
C225 H217 0.950 . S
C225 C226 1.386 . S
C225 C227 1.391 . S
C226 C225 1.386 . S
C226 C230 1.393 1_455 S
C227 H219 0.950 . S
C227 C225 1.391 . S
C227 C228 1.400 . S
C228 C227 1.400 . S
C228 C229 1.398 1_455 S
C228 C234 1.491 . S
C229 H220 0.950 . S
C229 C228 1.398 1_655 S
C229 C230 1.391 . S
C230 H218 0.950 . S
C230 C226 1.393 1_655 S
C230 C229 1.391 . S
C231 H221 0.950 . S
C231 C232 1.386 1_655 S
C231 C233 1.391 . S
C232 C231 1.386 1_455 S
C232 C236 1.393 . S
C233 H222 0.950 . S
C233 C231 1.391 . S
C233 C234 1.400 1_655 S
C234 C228 1.491 . S
C234 C233 1.400 1_455 S
C234 C235 1.398 . S
C235 H223 0.950 . S
C235 C234 1.398 . S
C235 C236 1.391 . S
C236 H224 0.950 . S
C236 C232 1.393 . S
C236 C235 1.391 . S
H237 C245 0.950 . S
H238 C250 0.950 . S
H239 C247 0.950 . S
H240 C249 0.950 . S
H241 C251 0.950 . S
H242 C253 0.950 . S
H243 C255 0.950 . S
H244 C256 0.950 . S
C245 H237 0.950 . S
C245 C246 1.386 . S
C245 C247 1.391 . S
C246 C245 1.386 . S
C246 C250 1.393 1_565 S
C247 H239 0.950 . S
C247 C245 1.391 . S
C247 C248 1.400 . S
C248 C247 1.400 . S
C248 C249 1.398 1_565 S
C248 C254 1.491 . S
C249 H240 0.950 . S
C249 C248 1.398 1_545 S
C249 C250 1.391 . S
C250 H238 0.950 . S
C250 C246 1.393 1_545 S
C250 C249 1.391 . S
C251 H241 0.950 . S
C251 C252 1.386 . S
C251 C253 1.391 . S
C252 C251 1.386 . S
C252 C256 1.393 1_545 S
C253 H242 0.950 . S
C253 C251 1.391 . S
C253 C254 1.398 1_545 S
C254 C248 1.491 . S
C254 C253 1.398 1_565 S
C254 C255 1.400 . S
C255 H243 0.950 . S
C255 C254 1.400 . S
C255 C256 1.391 . S
C256 H244 0.950 . S
C256 C252 1.393 1_565 S
C256 C255 1.391 . S
H257 C265 0.950 . S
H258 C270 0.950 . S
H259 C267 0.950 . S
H260 C269 0.950 . S
H261 C271 0.950 . S
H262 C273 0.950 . S
H263 C275 0.950 . S
H264 C276 0.950 . S
C265 H257 0.950 . S
C265 C266 1.386 . S
C265 C267 1.391 . S
C266 C265 1.386 . S
C266 C270 1.393 1_455 S
C267 H259 0.950 . S
C267 C265 1.391 . S
C267 C268 1.400 . S
C268 C267 1.400 . S
C268 C269 1.398 1_455 S
C268 C274 1.491 . S
C269 H260 0.950 . S
C269 C268 1.398 1_655 S
C269 C270 1.391 . S
C270 H258 0.950 . S
C270 C266 1.393 1_655 S
C270 C269 1.391 . S
C271 H261 0.950 . S
C271 C272 1.386 1_655 S
C271 C273 1.391 . S
C272 C271 1.386 1_455 S
C272 C276 1.393 . S
C273 H262 0.950 . S
C273 C271 1.391 . S
C273 C274 1.400 1_655 S
C274 C268 1.491 . S
C274 C273 1.400 1_455 S
C274 C275 1.398 . S
C275 H263 0.950 . S
C275 C274 1.398 . S
C275 C276 1.391 . S
C276 H264 0.950 . S
C276 C272 1.393 . S
C276 C275 1.391 . S
H277 C285 0.950 . S
H278 C290 0.950 . S
H279 C287 0.950 . S
H280 C289 0.950 . S
H281 C291 0.950 . S
H282 C293 0.950 . S
H283 C295 0.950 . S
H284 C296 0.950 . S
C285 H277 0.950 . S
C285 C286 1.386 1_565 S
C285 C287 1.391 . S
C286 C285 1.386 1_545 S
C286 C290 1.393 . S
C287 H279 0.950 . S
C287 C285 1.391 . S
C287 C288 1.400 1_565 S
C288 C287 1.400 1_545 S
C288 C289 1.398 . S
C288 C294 1.491 . S
C289 H280 0.950 . S
C289 C288 1.398 . S
C289 C290 1.391 . S
C290 H278 0.950 . S
C290 C286 1.393 . S
C290 C289 1.391 . S
C291 H281 0.950 . S
C291 C292 1.386 . S
C291 C293 1.391 . S
C292 C291 1.386 . S
C292 C296 1.393 1_545 S
C293 H282 0.950 . S
C293 C291 1.391 . S
C293 C294 1.400 . S
C294 C288 1.491 . S
C294 C293 1.400 . S
C294 C295 1.398 1_545 S
C295 H283 0.950 . S
C295 C294 1.398 1_565 S
C295 C296 1.391 . S
C296 H284 0.950 . S
C296 C292 1.393 1_565 S
C296 C295 1.391 . S
C146 C30 1.293 . S
C152 C53 1.324 . S
C166 C1 1.618 . S
C172 C123 1.662 1_565 S
C186 C0 1.400 1_455 S
C192 C69 1.458 . S
C206 C29 1.522 . S
C212 C113 1.554 . S
C226 C19 1.272 . S
C232 C60 1.339 . S
C246 C20 1.623 . S
C252 C122 1.653 . S
C272 C70 1.447 . S
C266 C10 1.408 . S
C286 C2 1.526 . S
C292 C106 1.567 . S
