# Generated by pormake.
# Topology tsx, (6,3)-cn, num edge types: 1
# Building blocks:
#     Node 0, Type 0, BuildingBlock: LEVNOQ01_clean_sbu_1, # of connection points: 6
#     Node 1, Type 0, BuildingBlock: LEVNOQ01_clean_sbu_1, # of connection points: 6
#     Node 2, Type 1, BuildingBlock: WUSLED_clean_sbu_0, # of connection points: 3
#     Node 3, Type 1, BuildingBlock: WUSLED_clean_sbu_0, # of connection points: 3
#     Node 4, Type 1, BuildingBlock: WUSLED_clean_sbu_0, # of connection points: 3
#     Node 5, Type 1, BuildingBlock: WUSLED_clean_sbu_0, # of connection points: 3
#     Edge 6, Type (0, 1), BuildingBlock: KIFKEQ_clean_linker_1, # of connection points: 2
#     Edge 7, Type (0, 1), BuildingBlock: KIFKEQ_clean_linker_1, # of connection points: 2
#     Edge 8, Type (0, 1), BuildingBlock: KIFKEQ_clean_linker_1, # of connection points: 2
#     Edge 9, Type (0, 1), BuildingBlock: KIFKEQ_clean_linker_1, # of connection points: 2
#     Edge 10, Type (0, 1), BuildingBlock: KIFKEQ_clean_linker_1, # of connection points: 2
#     Edge 11, Type (0, 1), BuildingBlock: KIFKEQ_clean_linker_1, # of connection points: 2
#     Edge 12, Type (0, 1), BuildingBlock: KIFKEQ_clean_linker_1, # of connection points: 2
#     Edge 13, Type (0, 1), BuildingBlock: KIFKEQ_clean_linker_1, # of connection points: 2
#     Edge 14, Type (0, 1), BuildingBlock: KIFKEQ_clean_linker_1, # of connection points: 2
#     Edge 15, Type (0, 1), BuildingBlock: KIFKEQ_clean_linker_1, # of connection points: 2
#     Edge 16, Type (0, 1), BuildingBlock: KIFKEQ_clean_linker_1, # of connection points: 2
#     Edge 17, Type (0, 1), BuildingBlock: KIFKEQ_clean_linker_1, # of connection points: 2
# Relax obj value: 0.123
# Max RMSD: 0.154
# Mean RMSD: 0.115
data_MOF--net-tsx--node1-LEVNOQ01_clean_sbu_1--node2-WUSLED_clean_sbu_0--edge1-KIFKEQ_clean_linker_1
_symmetry_space_group_name_H-M    P1
_symmetry_Int_Tables_number       1
_symmetry_cell_setting            triclinic
loop_
_symmetry_equiv_pos_as_xyz
'x, y, z'
_cell_length_a     23.763395
_cell_length_b     29.205346
_cell_length_c     48.000076
_cell_angle_alpha  97.600935
_cell_angle_beta   91.793068
_cell_angle_gamma 90.637031
loop_
_atom_site_label
_atom_site_type_symbol
_atom_site_fract_x
_atom_site_fract_y
_atom_site_fract_z
_atom_type_partial_charge
O0 O 0.13031 0.02846 0.0735 0.0
Mg1 Mg 0.16046 0.05369 0.03732 0.0
O2 O 0.04347 0.03982 0.05943 0.0
Mg3 Mg 0.06243 0.04324 0.01221 0.0
O4 O 0.12492 0.10937 0.02189 0.0
O5 O 0.20323 0.1128 0.04985 0.0
O6 O 0.08849 0.05161 0.9654 0.0
O7 O 0.99508 0.10037 0.01146 0.0
Mg8 Mg 1.0004 0.0089 0.97027 0.0
O9 O 0.99323 0.9816 0.00682 0.0
O10 O 0.06487 0.98384 0.94365 0.0
O11 O 0.96646 0.0758 0.96797 0.0
O12 O 0.93806 0.96138 0.96816 0.0
C13 C 0.17751 0.97444 0.00524 0.0
C14 C 0.07833 0.02979 0.07833 0.0
C15 C 0.16765 0.13259 0.03473 0.0
C16 C 0.09241 0.02094 0.94407 0.0
C17 C 0.96653 0.10642 0.98933 0.0
C18 C 0.95269 0.95612 0.99362 0.0
O19 O 0.20889 0.00974 0.01028 0.0
O20 O 0.12481 0.97878 0.00915 0.0
O21 O 0.63501 0.52271 0.57377 0.0
Mg22 Mg 0.6686 0.54421 0.53722 0.0
O23 O 0.54749 0.52623 0.55752 0.0
Mg24 Mg 0.56373 0.5315 0.51019 0.0
O25 O 0.62715 0.59543 0.52036 0.0
O26 O 0.71034 0.6052 0.54439 0.0
O27 O 0.59028 0.5429 0.46347 0.0
O28 O 0.4977 0.58989 0.51099 0.0
Mg29 Mg 0.50792 0.50066 0.47018 0.0
O30 O 0.49126 0.47081 0.50483 0.0
O31 O 0.57249 0.4729 0.44407 0.0
O32 O 0.47575 0.56809 0.46649 0.0
O33 O 0.44249 0.45641 0.46369 0.0
C34 C 0.6792 0.46239 0.50307 0.0
C35 C 0.58252 0.52038 0.57741 0.0
C36 C 0.67015 0.62146 0.53013 0.0
C37 C 0.5964 0.51118 0.44292 0.0
C38 C 0.47282 0.59766 0.48823 0.0
C39 C 0.45104 0.44863 0.48926 0.0
O40 O 0.71127 0.49696 0.50965 0.0
O41 O 0.62621 0.467 0.5061 0.0
C42 C 0.97759 0.09453 0.4737 0.0
C43 C 0.99623 0.13947 0.47071 0.0
C44 C 0.90507 0.17082 0.48432 0.0
C45 C 0.96051 0.17702 0.47595 0.0
C46 C 0.88674 0.12614 0.48806 0.0
C47 C 0.92274 0.08844 0.48296 0.0
U48 U 0.03817 0.01131 0.41607 0.0
O49 O 0.0565 0.937 0.41137 0.0
O50 O 0.12444 0.98753 0.40808 0.0
C51 C 0.11058 0.94386 0.4081 0.0
C52 C 1.01387 0.05409 0.46558 0.0
C53 C 0.15034 0.91619 0.42281 0.0
C54 C 0.18293 0.88103 0.46355 0.0
C55 C 0.1447 0.90914 0.45098 0.0
C56 C 0.2326 0.86747 0.42001 0.0
C57 C 0.2274 0.85981 0.44815 0.0
C58 C 0.19464 0.89535 0.40757 0.0
C59 C 0.99197 0.03096 0.34137 0.0
C60 C 0.03988 0.99839 0.29956 0.0
C61 C 0.95663 0.04444 0.29518 0.0
C62 C 0.95224 0.05041 0.32441 0.0
C63 C 1.0011 0.01905 0.28245 0.0
C64 C 0.03531 0.00425 0.32879 0.0
C65 C 0.9895 0.04107 0.3721 0.0
O66 O 0.98768 0.01592 0.45413 0.0
O67 O 0.06 0.06266 0.4526 0.0
O68 O 0.03542 0.0599 0.38488 0.0
O69 O 0.96749 0.00849 0.38499 0.0
H70 H 0.03821 0.14575 0.46376 0.0
H71 H 0.97592 0.21083 0.47259 0.0
H72 H 0.84453 0.1203 0.49485 0.0
H73 H 0.90723 0.05436 0.4857 0.0
H74 H 0.17782 0.87606 0.4853 0.0
H75 H 0.11073 0.92504 0.46313 0.0
H76 H 0.26535 0.851 0.40724 0.0
H77 H 0.1995 0.90016 0.38576 0.0
H78 H 0.07417 0.97813 0.29036 0.0
H79 H 0.92645 0.06115 0.28264 0.0
H80 H 0.9186 0.07123 0.33384 0.0
H81 H 0.06626 0.98883 0.3416 0.0
C82 C 0.9212 0.99037 0.60255 0.0
C83 C 0.87239 0.97609 0.61481 0.0
C84 C 0.84523 0.92648 0.57151 0.0
C85 C 0.83473 0.94455 0.59948 0.0
C86 C 0.893 0.94252 0.55884 0.0
C87 C 0.93063 0.97428 0.57421 0.0
U88 U 0.04119 0.08194 0.61653 0.0
O89 O 0.02084 0.1304 0.58643 0.0
O90 O 0.08196 0.07563 0.57572 0.0
C91 C 0.05995 0.11408 0.56921 0.0
C92 C 0.96341 0.01876 0.62045 0.0
C93 C 0.10098 0.14871 0.56259 0.0
C94 C 0.13905 0.19647 0.52981 0.0
C95 C 0.10055 0.16285 0.53585 0.0
C96 C 0.17903 0.20184 0.57723 0.0
C97 C 0.17868 0.21645 0.55047 0.0
C98 C 0.14043 0.16833 0.58324 0.0
C99 C 0.10863 0.10548 0.69044 0.0
C100 C 0.16492 0.10772 0.73372 0.0
C101 C 0.06942 0.07708 0.73109 0.0
C102 C 0.06379 0.08566 0.70319 0.0
C103 C 0.12018 0.08777 0.74667 0.0
C104 C 0.15911 0.1165 0.70585 0.0
C105 C 0.1039 0.11396 0.66099 0.0
O106 O 0.95391 0.06332 0.62538 0.0
O107 O 0.01645 0.00915 0.61563 0.0
O108 O 0.05735 0.13376 0.65358 0.0
O109 O 0.11883 0.07943 0.64245 0.0
H110 H 0.86445 0.98803 0.63667 0.0
H111 H 0.79887 0.93257 0.61004 0.0
H112 H 0.90197 0.92969 0.53725 0.0
H113 H 0.96791 0.98511 0.56425 0.0
H114 H 0.13812 0.2065 0.50887 0.0
H115 H 0.07046 0.14791 0.51971 0.0
H116 H 0.20848 0.21686 0.59369 0.0
H117 H 0.14112 0.15789 0.60409 0.0
H118 H 0.20479 0.1158 0.74493 0.0
H119 H 0.0338 0.06237 0.7405 0.0
H120 H 0.02451 0.07678 0.69155 0.0
H121 H 0.19427 0.13156 0.69623 0.0
C122 C 0.45544 0.59528 0.97139 0.0
C123 C 0.47828 0.63989 0.97126 0.0
C124 C 0.38761 0.67428 0.9827 0.0
C125 C 0.44478 0.67878 0.97671 0.0
C126 C 0.36502 0.62981 0.98366 0.0
C127 C 0.39866 0.59073 0.97821 0.0
U128 U 0.51635 0.50831 0.91501 0.0
O129 O 0.60236 0.48308 0.90914 0.0
O130 O 0.53327 0.43382 0.91268 0.0
C131 C 0.58801 0.44011 0.91131 0.0
C132 C 0.49028 0.55393 0.96354 0.0
C133 C 0.6249 0.415 0.9295 0.0
C134 C 0.71603 0.40652 0.95288 0.0
C135 C 0.67781 0.43336 0.93961 0.0
C136 C 0.6485 0.3431 0.94745 0.0
C137 C 0.70237 0.3607 0.95633 0.0
C138 C 0.61034 0.36986 0.93405 0.0
C139 C 0.47706 0.52376 0.8387 0.0
C140 C 0.53024 0.49225 0.7984 0.0
C141 C 0.44388 0.53323 0.79145 0.0
C142 C 0.43701 0.54012 0.82053 0.0
C143 C 0.4912 0.51005 0.7801 0.0
C144 C 0.52318 0.49897 0.82746 0.0
C145 C 0.47214 0.53556 0.86924 0.0
O146 O 0.46321 0.51614 0.95216 0.0
O147 O 0.53708 0.5613 0.95079 0.0
O148 O 0.51733 0.55469 0.88262 0.0
O149 O 0.44826 0.50416 0.88242 0.0
H150 H 0.52192 0.64492 0.96638 0.0
H151 H 0.46349 0.71241 0.97549 0.0
H152 H 0.32135 0.62522 0.98864 0.0
H153 H 0.37998 0.55691 0.97893 0.0
H154 H 0.75699 0.42123 0.95973 0.0
H155 H 0.69071 0.46789 0.93638 0.0
H156 H 0.63689 0.30775 0.94947 0.0
H157 H 0.57027 0.35449 0.9262 0.0
H158 H 0.56673 0.47371 0.79026 0.0
H159 H 0.41336 0.54769 0.77796 0.0
H160 H 0.40122 0.55943 0.82889 0.0
H161 H 0.55442 0.48591 0.8412 0.0
C162 C 0.44419 0.50425 0.05481 0.0
C163 C 0.41555 0.48624 0.07614 0.0
C164 C 0.35915 0.43572 0.04123 0.0
C165 C 0.37352 0.45245 0.06944 0.0
C166 C 0.38764 0.45425 0.01984 0.0
C167 C 0.42981 0.48829 0.02662 0.0
U168 U 0.544 0.56223 0.11081 0.0
O169 O 0.63472 0.57875 0.11174 0.0
O170 O 0.57383 0.634 0.12212 0.0
C171 C 0.62699 0.62319 0.11892 0.0
C172 C 0.49077 0.53778 0.06233 0.0
C173 C 0.66156 0.65481 0.10502 0.0
C174 C 0.68447 0.69352 0.06496 0.0
C175 C 0.65116 0.66191 0.07701 0.0
C176 C 0.73866 0.71073 0.1088 0.0
C177 C 0.72841 0.71852 0.08083 0.0
C178 C 0.70555 0.67921 0.12072 0.0
C179 C 0.533 0.52905 0.18425 0.0
C180 C 0.60726 0.54437 0.22044 0.0
C181 C 0.51178 0.52899 0.23337 0.0
C182 C 0.49427 0.52388 0.20505 0.0
C183 C 0.56849 0.53915 0.24136 0.0
C184 C 0.58959 0.53969 0.19212 0.0
C185 C 0.51352 0.52418 0.15459 0.0
O186 O 0.47788 0.57465 0.07965 0.0
O187 O 0.53855 0.51945 0.06941 0.0
O188 O 0.54911 0.50507 0.13625 0.0
O189 O 0.4889 0.56066 0.14674 0.0
H190 H 0.4265 0.49771 0.09806 0.0
H191 H 0.35352 0.43839 0.08649 0.0
H192 H 0.37752 0.44231 0.99791 0.0
H193 H 0.45172 0.50164 0.00989 0.0
H194 H 0.6752 0.69902 0.04343 0.0
H195 H 0.61717 0.64337 0.06462 0.0
H196 H 0.77262 0.72877 0.12146 0.0
H197 H 0.71418 0.67401 0.14238 0.0
H198 H 0.65108 0.55256 0.22602 0.0
H199 H 0.48109 0.52421 0.24899 0.0
H200 H 0.45044 0.51583 0.19938 0.0
H201 H 0.62009 0.54441 0.17639 0.0
H202 H 0.19233 0.19929 0.07767 0.0
H203 H 0.16688 0.17646 0.98752 0.0
H204 H 0.22641 0.27745 0.07515 0.0
H205 H 0.20242 0.25532 0.98478 0.0
H206 H 0.36321 0.35992 1.0008 0.0
H207 H 0.30227 0.29116 0.99564 0.0
H208 H 0.19942 0.35512 0.06198 0.0
H209 H 0.25954 0.42414 0.06688 0.0
C210 C 0.19282 0.21157 0.05734 0.0
C211 C 0.17685 0.18208 0.03282 0.0
C212 C 0.2122 0.25638 0.05587 0.0
C213 C 0.21719 0.27256 0.02976 0.0
C214 C 0.19907 0.24369 0.00518 0.0
C215 C 0.17835 0.19885 0.00674 0.0
C216 C 0.32665 0.35993 0.01372 0.0
C217 C 0.31694 0.39729 0.03463 0.0
C218 C 0.29167 0.32049 0.01071 0.0
C219 C 0.24643 0.31755 0.02862 0.0
C220 C 0.23445 0.35614 0.04815 0.0
C221 C 0.26912 0.39557 0.05105 0.0
H222 H 0.28489 0.9564 0.9897 0.0
H223 H 0.12892 0.8886 0.00575 0.0
H224 H 0.33172 0.88242 0.98409 0.0
H225 H 0.17648 0.81404 1.00052 0.0
H226 H 0.27943 0.68509 0.96291 0.0
H227 H 0.22483 0.7561 0.96684 0.0
H228 H 0.36097 0.82868 0.01641 0.0
H229 H 0.41514 0.7581 0.01263 0.0
C230 C 0.26046 0.92562 0.9919 0.0
C231 C 0.20329 0.92849 0.99848 0.0
C232 C 0.28746 0.8832 0.98887 0.0
C233 C 0.25814 0.84244 0.99242 0.0
C234 C 0.20024 0.84484 0.99768 0.0
C235 C 0.17302 0.88752 1.00068 0.0
C236 C 0.29729 0.71607 0.975 0.0
C237 C 0.35196 0.71604 0.98718 0.0
C238 C 0.26605 0.75676 0.97719 0.0
C239 C 0.28893 0.79821 0.99153 0.0
C240 C 0.34267 0.79762 0.00459 0.0
C241 C 0.37372 0.75712 1.00246 0.0
H242 H 0.86847 0.89802 0.9706 0.0
H243 H 0.9678 0.93434 0.04752 0.0
H244 H 0.81688 0.84082 0.99218 0.0
H245 H 0.91623 0.87575 0.06914 0.0
H246 H 0.76449 0.80413 0.1056 0.0
H247 H 0.82178 0.86046 0.08545 0.0
H248 H 0.82932 0.76666 0.00817 0.0
H249 H 0.77186 0.71043 0.02828 0.0
C250 C 0.87964 0.89365 0.99213 0.0
C251 C 0.92243 0.92087 0.00732 0.0
C252 C 0.85018 0.86046 0.00445 0.0
C253 C 0.86261 0.85338 0.03232 0.0
C254 C 0.90536 0.88058 0.04765 0.0
C255 C 0.93509 0.91398 0.03525 0.0
C256 C 0.77883 0.79535 0.08439 0.0
C257 C 0.7634 0.75281 0.0685 0.0
C258 C 0.81181 0.82762 0.07288 0.0
C259 C 0.83011 0.81816 0.04519 0.0
C260 C 0.81519 0.77539 0.02942 0.0
C261 C 0.78215 0.74316 0.04091 0.0
H262 H 0.9362 0.14347 0.94239 0.0
H263 H 0.92121 0.16439 0.03262 0.0
H264 H 0.8767 0.20961 0.93837 0.0
H265 H 0.86036 0.23097 0.02845 0.0
H266 H 0.691 0.29758 0.99362 0.0
H267 H 0.75989 0.24043 0.00507 0.0
H268 H 0.88038 0.29686 0.9529 0.0
H269 H 0.81186 0.35343 0.94126 0.0
C270 C 0.92036 0.16239 0.96142 0.0
C271 C 0.93326 0.14864 0.98783 0.0
C272 C 0.88654 0.20048 0.95911 0.0
C273 C 0.86403 0.2255 0.98309 0.0
C274 C 0.87714 0.21217 0.00963 0.0
C275 C 0.91209 0.17432 0.01201 0.0
C276 C 0.73245 0.29807 0.9849 0.0
C277 C 0.74585 0.32991 0.96643 0.0
C278 C 0.77198 0.26566 0.99164 0.0
C279 C 0.82533 0.26411 0.97974 0.0
C280 C 0.83945 0.29713 0.96224 0.0
C281 C 0.80029 0.32974 0.95575 0.0
H282 H 0.72081 0.65934 0.4887 0.0
H283 H 0.63224 0.69307 0.56545 0.0
H284 H 0.75363 0.73963 0.49151 0.0
H285 H 0.66593 0.77284 0.56901 0.0
H286 H 0.72999 0.91652 0.57104 0.0
H287 H 0.67399 0.84742 0.55356 0.0
H288 H 0.82443 0.77954 0.52224 0.0
H289 H 0.87984 0.84832 0.5394 0.0
C290 C 0.7066 0.68452 0.50555 0.0
C291 C 0.67351 0.67055 0.52666 0.0
C292 C 0.72597 0.7303 0.50743 0.0
C293 C 0.71327 0.76267 0.53075 0.0
C294 C 0.6762 0.7492 0.55061 0.0
C295 C 0.6567 0.70349 0.54861 0.0
C296 C 0.75087 0.887 0.56005 0.0
C297 C 0.80952 0.88784 0.55686 0.0
C298 C 0.71878 0.8474 0.55002 0.0
C299 C 0.74461 0.80764 0.53665 0.0
C300 C 0.80274 0.80959 0.53201 0.0
C301 C 0.83472 0.84917 0.54194 0.0
H302 H 0.63463 0.37603 0.50711 0.0
H303 H 0.78306 0.44549 0.48273 0.0
H304 H 0.68566 0.30287 0.50266 0.0
H305 H 0.83319 0.37306 0.4779 0.0
H306 H 0.92941 0.25813 0.51007 0.0
H307 H 0.87027 0.32585 0.51242 0.0
H308 H 0.73409 0.24263 0.46988 0.0
H309 H 0.79372 0.1744 0.46743 0.0
C310 C 0.67762 0.3755 0.50023 0.0
C311 C 0.70507 0.41663 0.49565 0.0
C312 C 0.70687 0.33367 0.49773 0.0
C313 C 0.76392 0.3324 0.49058 0.0
C314 C 0.78985 0.37306 0.48426 0.0
C315 C 0.76092 0.41457 0.48683 0.0
C316 C 0.88691 0.25418 0.50116 0.0
C317 C 0.86661 0.21093 0.48824 0.0
C318 C 0.85298 0.29304 0.50246 0.0
C319 C 0.79776 0.28983 0.49086 0.0
C320 C 0.77642 0.24625 0.47901 0.0
C321 C 0.81055 0.20717 0.47768 0.0
H322 H 0.44979 0.42303 0.54271 0.0
H323 H 0.36724 0.39694 0.46046 0.0
H324 H 0.38403 0.3684 0.55991 0.0
H325 H 0.30313 0.34291 0.47739 0.0
H326 H 0.15783 0.28897 0.5213 0.0
H327 H 0.22455 0.34631 0.50902 0.0
H328 H 0.35805 0.28372 0.55327 0.0
H329 H 0.29105 0.22606 0.56561 0.0
C330 C 0.41797 0.40563 0.52832 0.0
C331 C 0.41367 0.41465 0.50027 0.0
C332 C 0.38046 0.37432 0.53813 0.0
C333 C 0.3379 0.35181 0.52008 0.0
C334 C 0.33452 0.36039 0.49201 0.0
C335 C 0.37175 0.39129 0.48227 0.0
C336 C 0.20143 0.28724 0.52831 0.0
C337 C 0.2192 0.25257 0.54413 0.0
C338 C 0.23967 0.32019 0.52136 0.0
C339 C 0.29674 0.31929 0.52995 0.0
C340 C 0.3143 0.28556 0.54654 0.0
C341 C 0.27592 0.2525 0.55353 0.0
H342 H 0.42162 0.65392 0.53045 0.0
H343 H 0.45205 0.63819 0.44148 0.0
H344 H 0.36448 0.7224 0.5254 0.0
H345 H 0.39646 0.70629 0.43665 0.0
H346 H 0.34104 0.85327 0.44115 0.0
H347 H 0.40352 0.79372 0.45455 0.0
H348 H 0.26822 0.73589 0.49728 0.0
H349 H 0.2047 0.79486 0.48319 0.0
C350 C 0.41663 0.66535 0.50996 0.0
C351 C 0.44113 0.64062 0.48635 0.0
C352 C 0.38382 0.70429 0.50706 0.0
C353 C 0.3763 0.71972 0.48066 0.0
C354 C 0.40197 0.69551 0.45731 0.0
C355 C 0.43355 0.65632 0.46007 0.0
C356 C 0.32445 0.82803 0.45349 0.0
C357 C 0.26739 0.82835 0.46055 0.0
C358 C 0.36041 0.79408 0.46128 0.0
C359 C 0.34054 0.75991 0.47667 0.0
C360 C 0.28468 0.76197 0.48551 0.0
C361 C 0.24836 0.7958 0.47745 0.0
H362 H 0.98109 0.0575 0.10494 0.0
H363 H 0.13462 0.98288 0.11521 0.0
H364 H 0.95906 0.05174 0.15393 0.0
H365 H 0.11201 0.97579 0.16339 0.0
H366 H 0.09906 0.02941 0.25588 0.0
H367 H 0.11284 0.02811 0.2059 0.0
H368 H 0.9348 1.00218 0.18907 0.0
H369 H 0.92093 0.00409 0.23954 0.0
C370 C 1.00951 0.03915 0.11748 0.0
C371 C 0.06001 0.02134 0.10641 0.0
C372 C 0.99689 0.03573 0.1455 0.0
C373 C 0.03435 0.01407 0.16279 0.0
C374 C 0.08303 0.9939 0.151 0.0
C375 C 0.09585 0.99773 0.12328 0.0
C376 C 0.06293 0.02276 0.24153 0.0
C377 C 1.009 0.01646 0.25169 0.0
C378 C 0.07078 0.02198 0.2128 0.0
C379 C 0.02499 0.01458 0.19336 0.0
C380 C 0.9709 0.00833 0.20347 0.0
C381 C 0.96298 0.00932 0.23236 0.0
H382 H 0.10729 0.10611 0.92749 0.0
H383 H 0.12902 0.96054 0.90065 0.0
H384 H 0.12335 0.1223 0.87981 0.0
H385 H 0.14741 0.97673 0.85326 0.0
H386 H 0.08115 0.0121 0.76849 0.0
H387 H 0.08657 0.99712 0.81698 0.0
H388 H 0.18186 0.1241 0.84023 0.0
H389 H 0.1736 0.14043 0.79171 0.0
C390 C 0.11744 0.07776 0.91161 0.0
C391 C 0.11609 0.032 0.91764 0.0
C392 C 0.12669 0.08701 0.88423 0.0
C393 C 0.13541 0.05068 0.86249 0.0
C394 C 0.13911 0.00538 0.86927 0.0
C395 C 0.12913 0.99611 0.89648 0.0
C396 C 0.1029 0.03707 0.78393 0.0
C397 C 0.12644 0.07769 0.77618 0.0
C398 C 0.10692 0.02807 0.81174 0.0
C399 C 0.13503 0.05925 0.83259 0.0
C400 C 0.15959 0.09949 0.82478 0.0
C401 C 0.15531 0.10862 0.79689 0.0
H402 H 0.48092 0.5419 0.60151 0.0
H403 H 0.6412 0.47971 0.61652 0.0
H404 H 0.45601 0.53617 0.65011 0.0
H405 H 0.61584 0.47246 0.6643 0.0
H406 H 0.5902 0.52597 0.7558 0.0
H407 H 0.60804 0.52463 0.7062 0.0
H408 H 0.43398 0.48671 0.68535 0.0
H409 H 0.41593 0.48888 0.73545 0.0
C410 C 0.51032 0.52628 0.61502 0.0
C411 C 0.56335 0.51198 0.60536 0.0
C412 C 0.49605 0.52285 0.64282 0.0
C413 C 0.53438 0.50463 0.66132 0.0
C414 C 0.58596 0.48794 0.65097 0.0
C415 C 0.60039 0.49186 0.62347 0.0
C416 C 0.55587 0.51669 0.74065 0.0
C417 C 0.50178 0.50714 0.74956 0.0
C418 C 0.56607 0.51588 0.71213 0.0
C419 C 0.52257 0.50512 0.69166 0.0
C420 C 0.46833 0.49552 0.70054 0.0
C421 C 0.45802 0.49662 0.72921 0.0
H422 H 0.60428 0.5955 0.42429 0.0
H423 H 0.63076 0.44998 0.39932 0.0
H424 H 0.61145 0.60924 0.37536 0.0
H425 H 0.63764 0.46362 0.35059 0.0
H426 H 0.6608 0.50093 0.26417 0.0
H427 H 0.68539 0.50105 0.31407 0.0
H428 H 0.54156 0.58587 0.33611 0.0
H429 H 0.51762 0.58631 0.28639 0.0
C430 C 0.61351 0.56672 0.40852 0.0
C431 C 0.61623 0.52156 0.41553 0.0
C432 C 0.61711 0.57453 0.38048 0.0
C433 C 0.62421 0.53741 0.35908 0.0
C434 C 0.63234 0.49299 0.36656 0.0
C435 C 0.6282 0.48513 0.39449 0.0
C436 C 0.6352 0.52039 0.27971 0.0
C437 C 0.58695 0.54322 0.27142 0.0
C438 C 0.64913 0.52028 0.30824 0.0
C439 C 0.61541 0.54342 0.32902 0.0
C440 C 0.56882 0.56817 0.32065 0.0
C441 C 0.55464 0.56794 0.29218 0.0
loop_
_geom_bond_atom_site_label_1
_geom_bond_atom_site_label_2
_geom_bond_distance
_geom_bond_site_symmetry_2
_ccdc_geom_bond_type
O0 Mg1 1.990 . S
O0 C14 1.253 . S
Mg1 O0 1.990 . S
Mg1 O4 2.180 . S
Mg1 O5 2.117 . S
Mg1 O19 2.030 1_545 S
O2 Mg3 2.072 . S
O2 C14 1.260 . S
Mg3 O2 2.072 . S
Mg3 O4 2.099 . S
Mg3 O6 2.079 1_554 S
Mg3 O7 2.072 . S
Mg3 O9 2.099 1_444 S
Mg3 O20 2.079 1_544 S
O4 Mg1 2.180 . S
O4 Mg3 2.099 . S
O4 C15 1.279 . S
O5 Mg1 2.117 . S
O5 C15 1.250 . S
O6 Mg3 2.079 1_556 S
O6 C16 1.264 . S
O7 Mg3 2.072 . S
O7 C17 1.260 1_455 S
Mg8 O9 2.180 1_545 S
Mg8 O10 2.030 . S
Mg8 O11 1.990 . S
Mg8 O12 2.117 1_545 S
O9 Mg3 2.099 1_666 S
O9 Mg8 2.180 1_565 S
O9 C18 1.279 1_556 S
O10 Mg8 2.030 . S
O10 C16 1.248 1_655 S
O11 Mg8 1.990 . S
O11 C17 1.253 1_556 S
O12 Mg8 2.117 1_565 S
O12 C18 1.250 1_556 S
C13 O19 1.248 . S
C13 O20 1.264 1_554 S
C14 O0 1.253 . S
C14 O2 1.260 . S
C15 O4 1.279 . S
C15 O5 1.250 . S
C16 O6 1.264 . S
C16 O10 1.248 1_455 S
C17 O7 1.260 1_655 S
C17 O11 1.253 1_554 S
C18 O9 1.279 1_554 S
C18 O12 1.250 1_554 S
O19 Mg1 2.030 1_565 S
O19 C13 1.248 . S
O20 Mg3 2.079 1_566 S
O20 C13 1.264 1_556 S
O21 Mg22 1.990 . S
O21 C35 1.253 . S
Mg22 O21 1.990 . S
Mg22 O25 2.180 . S
Mg22 O26 2.117 . S
Mg22 O40 2.030 . S
O23 Mg24 2.072 . S
O23 C35 1.260 . S
Mg24 O23 2.072 . S
Mg24 O25 2.099 . S
Mg24 O27 2.079 . S
Mg24 O28 2.072 . S
Mg24 O30 2.099 . S
Mg24 O41 2.079 . S
O25 Mg22 2.180 . S
O25 Mg24 2.099 . S
O25 C36 1.279 . S
O26 Mg22 2.117 . S
O26 C36 1.250 . S
O27 Mg24 2.079 . S
O27 C37 1.264 . S
O28 Mg24 2.072 . S
O28 C38 1.260 . S
Mg29 O30 2.180 . S
Mg29 O31 2.030 . S
Mg29 O32 1.990 . S
Mg29 O33 2.117 . S
O30 Mg24 2.099 . S
O30 Mg29 2.180 . S
O30 C39 1.279 . S
O31 Mg29 2.030 . S
O31 C37 1.248 . S
O32 Mg29 1.990 . S
O32 C38 1.253 . S
O33 Mg29 2.117 . S
O33 C39 1.250 . S
C34 O40 1.248 . S
C34 O41 1.264 . S
C35 O21 1.253 . S
C35 O23 1.260 . S
C36 O25 1.279 . S
C36 O26 1.250 . S
C37 O27 1.264 . S
C37 O31 1.248 . S
C38 O28 1.260 . S
C38 O32 1.253 . S
C39 O30 1.279 . S
C39 O33 1.250 . S
O40 Mg22 2.030 . S
O40 C34 1.248 . S
O41 Mg24 2.079 . S
O41 C34 1.264 . S
C42 C43 1.264 . S
C42 C47 1.479 . S
C42 C52 1.465 1_655 S
C43 C42 1.264 . S
C43 C45 1.339 . S
C43 H70 0.931 . S
C44 C45 1.395 . S
C44 C46 1.320 . S
C45 C43 1.339 . S
C45 C44 1.395 . S
C45 H71 0.929 . S
C46 C44 1.320 . S
C46 C47 1.405 . S
C46 H72 0.930 . S
C47 C42 1.479 . S
C47 C46 1.405 . S
C47 H73 0.931 . S
U48 O49 2.454 1_545 S
U48 O50 2.458 1_545 S
U48 C51 2.984 1_545 S
U48 C52 2.847 . S
U48 C65 2.882 . S
U48 O66 2.441 . S
U48 O67 2.420 . S
U48 O68 2.455 1_545 S
U48 O69 2.449 . S
O49 U48 2.454 1_565 S
O49 C51 1.353 . S
O50 U48 2.458 1_565 S
O50 C51 1.286 . S
C51 U48 2.984 1_565 S
C51 O49 1.353 . S
C51 O50 1.286 . S
C51 C53 1.363 . S
C52 C42 1.465 1_455 S
C52 U48 2.847 . S
C52 O66 1.249 . S
C52 O67 1.202 . S
C53 C51 1.363 . S
C53 C55 1.408 . S
C53 C58 1.342 . S
C54 C55 1.310 . S
C54 C57 1.461 . S
C54 H74 0.932 . S
C55 C53 1.408 . S
C55 C54 1.310 . S
C55 H75 0.930 . S
C56 C57 1.474 . S
C56 C58 1.285 . S
C56 H76 0.929 . S
C57 C54 1.461 . S
C57 C56 1.474 . S
C58 C53 1.342 . S
C58 C56 1.285 . S
C58 H77 0.930 . S
C59 C62 1.424 . S
C59 C64 1.245 1_545 S
C59 C65 1.428 . S
C60 C63 1.270 . S
C60 C64 1.477 . S
C60 H78 0.932 . S
C61 C62 1.384 . S
C61 C63 1.467 1_545 S
C61 H79 0.929 . S
C62 C59 1.424 . S
C62 C61 1.384 . S
C62 H80 0.928 . S
C63 C60 1.270 . S
C63 C61 1.467 1_565 S
C64 C59 1.245 1_565 S
C64 C60 1.477 . S
C64 H81 0.932 . S
C65 U48 2.882 . S
C65 C59 1.428 . S
C65 O68 1.301 1_545 S
C65 O69 1.282 . S
O66 U48 2.441 . S
O66 C52 1.249 . S
O67 U48 2.420 . S
O67 C52 1.202 . S
O68 U48 2.455 1_565 S
O68 C65 1.301 1_565 S
O69 U48 2.449 . S
O69 C65 1.282 . S
H70 C43 0.931 . S
H71 C45 0.929 . S
H72 C46 0.930 . S
H73 C47 0.931 . S
H74 C54 0.932 . S
H75 C55 0.930 . S
H76 C56 0.929 . S
H77 C58 0.930 . S
H78 C60 0.932 . S
H79 C61 0.929 . S
H80 C62 0.928 . S
H81 C64 0.932 . S
C82 C83 1.264 . S
C82 C87 1.479 . S
C82 C92 1.465 . S
C83 C82 1.264 . S
C83 C85 1.339 . S
C83 H110 0.931 . S
C84 C85 1.395 . S
C84 C86 1.320 . S
C85 C83 1.339 . S
C85 C84 1.395 . S
C85 H111 0.929 . S
C86 C84 1.320 . S
C86 C87 1.405 . S
C86 H112 0.930 . S
C87 C82 1.479 . S
C87 C86 1.405 . S
C87 H113 0.931 . S
U88 O89 2.454 . S
U88 O90 2.458 . S
U88 C91 2.984 . S
U88 C92 2.847 1_445 S
U88 C105 2.882 . S
U88 O106 2.441 1_455 S
U88 O107 2.420 1_445 S
U88 O108 2.455 . S
U88 O109 2.449 . S
O89 U88 2.454 . S
O89 C91 1.353 . S
O90 U88 2.458 . S
O90 C91 1.286 . S
C91 U88 2.984 . S
C91 O89 1.353 . S
C91 O90 1.286 . S
C91 C93 1.363 . S
C92 C82 1.465 . S
C92 U88 2.847 1_665 S
C92 O106 1.249 1_565 S
C92 O107 1.202 . S
C93 C91 1.363 . S
C93 C95 1.408 . S
C93 C98 1.342 . S
C94 C95 1.310 . S
C94 C97 1.461 . S
C94 H114 0.932 . S
C95 C93 1.408 . S
C95 C94 1.310 . S
C95 H115 0.930 . S
C96 C97 1.474 . S
C96 C98 1.285 . S
C96 H116 0.929 . S
C97 C94 1.461 . S
C97 C96 1.474 . S
C98 C93 1.342 . S
C98 C96 1.285 . S
C98 H117 0.930 . S
C99 C102 1.424 1_455 S
C99 C104 1.245 . S
C99 C105 1.428 . S
C100 C103 1.260 . S
C100 C104 1.477 . S
C100 H118 0.932 . S
C101 C102 1.384 . S
C101 C103 1.479 1_655 S
C101 H119 0.929 . S
C102 C99 1.424 1_655 S
C102 C101 1.384 . S
C102 H120 0.928 . S
C103 C100 1.260 . S
C103 C101 1.479 1_455 S
C104 C99 1.245 . S
C104 C100 1.477 . S
C104 H121 0.932 . S
C105 U88 2.882 . S
C105 C99 1.428 . S
C105 O108 1.301 . S
C105 O109 1.282 . S
O106 U88 2.441 1_655 S
O106 C92 1.249 1_545 S
O107 U88 2.420 1_665 S
O107 C92 1.202 . S
O108 U88 2.455 . S
O108 C105 1.301 . S
O109 U88 2.449 . S
O109 C105 1.282 . S
H110 C83 0.931 . S
H111 C85 0.929 . S
H112 C86 0.930 . S
H113 C87 0.931 . S
H114 C94 0.932 . S
H115 C95 0.930 . S
H116 C96 0.929 . S
H117 C98 0.930 . S
H118 C100 0.932 . S
H119 C101 0.929 . S
H120 C102 0.928 . S
H121 C104 0.932 . S
C122 C123 1.264 . S
C122 C127 1.509 . S
C122 C132 1.465 . S
C123 C122 1.264 . S
C123 C125 1.339 . S
C123 H150 0.931 . S
C124 C125 1.395 . S
C124 C126 1.320 1_556 S
C125 C123 1.339 . S
C125 C124 1.395 . S
C125 H151 0.929 . S
C126 C124 1.320 1_554 S
C126 C127 1.395 1_554 S
C126 H152 0.930 . S
C127 C122 1.509 . S
C127 C126 1.395 1_556 S
C127 H153 0.912 1_556 S
U128 O129 2.454 . S
U128 O130 2.458 . S
U128 C131 2.984 . S
U128 C132 2.847 . S
U128 C145 2.882 . S
U128 O146 2.441 . S
U128 O147 2.420 . S
U128 O148 2.455 . S
U128 O149 2.449 . S
O129 U128 2.454 . S
O129 C131 1.353 . S
O130 U128 2.458 . S
O130 C131 1.286 . S
C131 U128 2.984 . S
C131 O129 1.353 . S
C131 O130 1.286 . S
C131 C133 1.363 . S
C132 C122 1.465 . S
C132 U128 2.847 . S
C132 O146 1.249 . S
C132 O147 1.202 . S
C133 C131 1.363 . S
C133 C135 1.408 . S
C133 C138 1.342 . S
C134 C135 1.310 1_554 S
C134 C137 1.461 1_554 S
C134 H154 0.932 . S
C135 C133 1.408 . S
C135 C134 1.310 1_556 S
C135 H155 0.930 1_556 S
C136 C137 1.474 . S
C136 C138 1.285 . S
C136 H156 0.929 . S
C137 C134 1.461 1_556 S
C137 C136 1.474 . S
C138 C133 1.342 . S
C138 C136 1.285 . S
C138 H157 0.930 . S
C139 C142 1.424 . S
C139 C144 1.245 . S
C139 C145 1.428 . S
C140 C143 1.260 . S
C140 C144 1.477 . S
C140 H158 0.932 . S
C141 C142 1.384 . S
C141 C143 1.479 . S
C141 H159 0.929 . S
C142 C139 1.424 . S
C142 C141 1.384 . S
C142 H160 0.928 . S
C143 C140 1.260 . S
C143 C141 1.479 . S
C144 C139 1.245 . S
C144 C140 1.477 . S
C144 H161 0.932 . S
C145 U128 2.882 . S
C145 C139 1.428 . S
C145 O148 1.301 . S
C145 O149 1.282 . S
O146 U128 2.441 . S
O146 C132 1.249 . S
O147 U128 2.420 . S
O147 C132 1.202 . S
O148 U128 2.455 . S
O148 C145 1.301 . S
O149 U128 2.449 . S
O149 C145 1.282 . S
H150 C123 0.931 . S
H151 C125 0.929 . S
H152 C126 0.930 . S
H153 C127 0.912 1_554 S
H154 C134 0.932 . S
H155 C135 0.930 1_554 S
H156 C136 0.929 . S
H157 C138 0.930 . S
H158 C140 0.932 . S
H159 C141 0.929 . S
H160 C142 0.928 . S
H161 C144 0.932 . S
C162 C163 1.264 . S
C162 C167 1.479 . S
C162 C172 1.465 . S
C163 C162 1.264 . S
C163 C165 1.339 . S
C163 H190 0.931 . S
C164 C165 1.395 . S
C164 C166 1.320 . S
C165 C163 1.339 . S
C165 C164 1.395 . S
C165 H191 0.929 . S
C166 C164 1.320 . S
C166 C167 1.405 . S
C166 H192 0.930 1_554 S
C167 C162 1.479 . S
C167 C166 1.405 . S
C167 H193 0.931 . S
U168 O169 2.454 . S
U168 O170 2.458 . S
U168 C171 2.984 . S
U168 C172 2.847 . S
U168 C185 2.882 . S
U168 O186 2.441 . S
U168 O187 2.420 . S
U168 O188 2.455 . S
U168 O189 2.449 . S
O169 U168 2.454 . S
O169 C171 1.353 . S
O170 U168 2.458 . S
O170 C171 1.286 . S
C171 U168 2.984 . S
C171 O169 1.353 . S
C171 O170 1.286 . S
C171 C173 1.363 . S
C172 C162 1.465 . S
C172 U168 2.847 . S
C172 O186 1.249 . S
C172 O187 1.202 . S
C173 C171 1.363 . S
C173 C175 1.408 . S
C173 C178 1.342 . S
C174 C175 1.310 . S
C174 C177 1.461 . S
C174 H194 0.932 1_554 S
C175 C173 1.408 . S
C175 C174 1.310 . S
C175 H195 0.930 . S
C176 C177 1.474 . S
C176 C178 1.285 . S
C176 H196 0.929 . S
C177 C174 1.461 . S
C177 C176 1.474 . S
C178 C173 1.342 . S
C178 C176 1.285 . S
C178 H197 0.930 . S
C179 C182 1.424 . S
C179 C184 1.245 . S
C179 C185 1.428 . S
C180 C183 1.260 . S
C180 C184 1.477 . S
C180 H198 0.932 . S
C181 C182 1.384 . S
C181 C183 1.479 . S
C181 H199 0.929 . S
C182 C179 1.424 . S
C182 C181 1.384 . S
C182 H200 0.928 . S
C183 C180 1.260 . S
C183 C181 1.479 . S
C184 C179 1.245 . S
C184 C180 1.477 . S
C184 H201 0.932 . S
C185 U168 2.882 . S
C185 C179 1.428 . S
C185 O188 1.301 . S
C185 O189 1.282 . S
O186 U168 2.441 . S
O186 C172 1.249 . S
O187 U168 2.420 . S
O187 C172 1.202 . S
O188 U168 2.455 . S
O188 C185 1.301 . S
O189 U168 2.449 . S
O189 C185 1.282 . S
H190 C163 0.931 . S
H191 C165 0.929 . S
H192 C166 0.930 1_556 S
H193 C167 0.931 . S
H194 C174 0.932 1_556 S
H195 C175 0.930 . S
H196 C176 0.929 . S
H197 C178 0.930 . S
H198 C180 0.932 . S
H199 C181 0.929 . S
H200 C182 0.928 . S
H201 C184 0.932 . S
H202 C210 0.950 . S
H203 C215 0.950 . S
H204 C212 0.950 . S
H205 C214 0.950 . S
H206 C216 0.950 . S
H207 C218 0.950 . S
H208 C220 0.950 . S
H209 C221 0.950 . S
C210 H202 0.950 . S
C210 C211 1.386 . S
C210 C212 1.391 . S
C211 C210 1.386 . S
C211 C215 1.393 . S
C212 H204 0.950 . S
C212 C210 1.391 . S
C212 C213 1.400 . S
C213 C212 1.400 . S
C213 C214 1.398 . S
C213 C219 1.491 . S
C214 H205 0.950 . S
C214 C213 1.398 . S
C214 C215 1.391 . S
C215 H203 0.950 . S
C215 C211 1.393 . S
C215 C214 1.391 . S
C216 H206 0.950 . S
C216 C217 1.386 . S
C216 C218 1.391 . S
C217 C216 1.386 . S
C217 C221 1.393 . S
C218 H207 0.950 . S
C218 C216 1.391 . S
C218 C219 1.400 . S
C219 C213 1.491 . S
C219 C218 1.400 . S
C219 C220 1.398 . S
C220 H208 0.950 . S
C220 C219 1.398 . S
C220 C221 1.391 . S
C221 H209 0.950 . S
C221 C217 1.393 . S
C221 C220 1.391 . S
H222 C230 0.950 . S
H223 C235 0.950 . S
H224 C232 0.950 . S
H225 C234 0.950 . S
H226 C236 0.950 . S
H227 C238 0.950 . S
H228 C240 0.950 . S
H229 C241 0.950 . S
C230 H222 0.950 . S
C230 C231 1.386 1_556 S
C230 C232 1.391 . S
C231 C230 1.386 1_554 S
C231 C235 1.393 . S
C232 H224 0.950 . S
C232 C230 1.391 . S
C232 C233 1.400 1_556 S
C233 C232 1.400 1_554 S
C233 C234 1.398 . S
C233 C239 1.491 . S
C234 H225 0.950 . S
C234 C233 1.398 . S
C234 C235 1.391 . S
C235 H223 0.950 . S
C235 C231 1.393 . S
C235 C234 1.391 . S
C236 H226 0.950 . S
C236 C237 1.386 . S
C236 C238 1.391 . S
C237 C236 1.386 . S
C237 C241 1.393 1_554 S
C238 H227 0.950 . S
C238 C236 1.391 . S
C238 C239 1.400 . S
C239 C233 1.491 . S
C239 C238 1.400 . S
C239 C240 1.398 1_554 S
C240 H228 0.950 . S
C240 C239 1.398 1_556 S
C240 C241 1.391 . S
C241 H229 0.950 . S
C241 C237 1.393 1_556 S
C241 C240 1.391 . S
H242 C250 0.950 . S
H243 C255 0.950 . S
H244 C252 0.950 . S
H245 C254 0.950 . S
H246 C256 0.950 . S
H247 C258 0.950 . S
H248 C260 0.950 . S
H249 C261 0.950 . S
C250 H242 0.950 . S
C250 C251 1.386 1_556 S
C250 C252 1.391 . S
C251 C250 1.386 1_554 S
C251 C255 1.393 . S
C252 H244 0.950 . S
C252 C250 1.391 . S
C252 C253 1.400 1_556 S
C253 C252 1.400 1_554 S
C253 C254 1.398 . S
C253 C259 1.491 . S
C254 H245 0.950 . S
C254 C253 1.398 . S
C254 C255 1.391 . S
C255 H243 0.950 . S
C255 C251 1.393 . S
C255 C254 1.391 . S
C256 H246 0.950 . S
C256 C257 1.386 . S
C256 C258 1.391 . S
C257 C256 1.386 . S
C257 C261 1.393 1_554 S
C258 H247 0.950 . S
C258 C256 1.391 . S
C258 C259 1.400 . S
C259 C253 1.491 . S
C259 C258 1.400 . S
C259 C260 1.398 1_554 S
C260 H248 0.950 . S
C260 C259 1.398 1_556 S
C260 C261 1.391 . S
C261 H249 0.950 . S
C261 C257 1.393 1_556 S
C261 C260 1.391 . S
H262 C270 0.950 . S
H263 C275 0.950 . S
H264 C272 0.950 . S
H265 C274 0.950 . S
H266 C276 0.950 . S
H267 C278 0.950 . S
H268 C280 0.950 . S
H269 C281 0.950 . S
C270 H262 0.950 . S
C270 C271 1.386 1_556 S
C270 C272 1.391 . S
C271 C270 1.386 1_554 S
C271 C275 1.393 . S
C272 H264 0.950 . S
C272 C270 1.391 . S
C272 C273 1.414 . S
C273 C272 1.414 . S
C273 C274 1.381 1_556 S
C273 C279 1.495 . S
C274 H265 0.950 . S
C274 C273 1.381 1_554 S
C274 C275 1.391 . S
C275 H263 0.950 . S
C275 C271 1.393 . S
C275 C274 1.391 . S
C276 H266 0.950 . S
C276 C277 1.386 1_554 S
C276 C278 1.391 . S
C277 C276 1.386 1_556 S
C277 C281 1.393 . S
C278 H267 0.950 . S
C278 C276 1.391 . S
C278 C279 1.400 1_554 S
C279 C273 1.495 . S
C279 C278 1.400 1_556 S
C279 C280 1.398 . S
C280 H268 0.950 . S
C280 C279 1.398 . S
C280 C281 1.391 . S
C281 H269 0.950 . S
C281 C277 1.393 . S
C281 C280 1.391 . S
H282 C290 0.950 . S
H283 C295 0.950 . S
H284 C292 0.950 . S
H285 C294 0.950 . S
H286 C296 0.950 . S
H287 C298 0.950 . S
H288 C300 0.950 . S
H289 C301 0.950 . S
C290 H282 0.950 . S
C290 C291 1.386 . S
C290 C292 1.391 . S
C291 C290 1.386 . S
C291 C295 1.393 . S
C292 H284 0.950 . S
C292 C290 1.391 . S
C292 C293 1.400 . S
C293 C292 1.400 . S
C293 C294 1.398 . S
C293 C299 1.491 . S
C294 H285 0.950 . S
C294 C293 1.398 . S
C294 C295 1.391 . S
C295 H283 0.950 . S
C295 C291 1.393 . S
C295 C294 1.391 . S
C296 H286 0.950 . S
C296 C297 1.386 . S
C296 C298 1.391 . S
C297 C296 1.386 . S
C297 C301 1.393 . S
C298 H287 0.950 . S
C298 C296 1.391 . S
C298 C299 1.400 . S
C299 C293 1.491 . S
C299 C298 1.400 . S
C299 C300 1.398 . S
C300 H288 0.950 . S
C300 C299 1.398 . S
C300 C301 1.391 . S
C301 H289 0.950 . S
C301 C297 1.393 . S
C301 C300 1.391 . S
H302 C310 0.950 . S
H303 C315 0.950 . S
H304 C312 0.950 . S
H305 C314 0.950 . S
H306 C316 0.950 . S
H307 C318 0.950 . S
H308 C320 0.950 . S
H309 C321 0.950 . S
C310 H302 0.950 . S
C310 C311 1.386 . S
C310 C312 1.391 . S
C311 C310 1.386 . S
C311 C315 1.393 . S
C312 H304 0.950 . S
C312 C310 1.391 . S
C312 C313 1.400 . S
C313 C312 1.400 . S
C313 C314 1.398 . S
C313 C319 1.491 . S
C314 H305 0.950 . S
C314 C313 1.398 . S
C314 C315 1.391 . S
C315 H303 0.950 . S
C315 C311 1.393 . S
C315 C314 1.391 . S
C316 H306 0.950 . S
C316 C317 1.386 . S
C316 C318 1.391 . S
C317 C316 1.386 . S
C317 C321 1.393 . S
C318 H307 0.950 . S
C318 C316 1.391 . S
C318 C319 1.400 . S
C319 C313 1.491 . S
C319 C318 1.400 . S
C319 C320 1.398 . S
C320 H308 0.950 . S
C320 C319 1.398 . S
C320 C321 1.391 . S
C321 H309 0.950 . S
C321 C317 1.393 . S
C321 C320 1.391 . S
H322 C330 0.950 . S
H323 C335 0.950 . S
H324 C332 0.950 . S
H325 C334 0.950 . S
H326 C336 0.950 . S
H327 C338 0.950 . S
H328 C340 0.950 . S
H329 C341 0.950 . S
C330 H322 0.950 . S
C330 C331 1.386 . S
C330 C332 1.391 . S
C331 C330 1.386 . S
C331 C335 1.393 . S
C332 H324 0.950 . S
C332 C330 1.391 . S
C332 C333 1.400 . S
C333 C332 1.400 . S
C333 C334 1.398 . S
C333 C339 1.491 . S
C334 H325 0.950 . S
C334 C333 1.398 . S
C334 C335 1.391 . S
C335 H323 0.950 . S
C335 C331 1.393 . S
C335 C334 1.391 . S
C336 H326 0.950 . S
C336 C337 1.386 . S
C336 C338 1.391 . S
C337 C336 1.386 . S
C337 C341 1.393 . S
C338 H327 0.950 . S
C338 C336 1.391 . S
C338 C339 1.400 . S
C339 C333 1.491 . S
C339 C338 1.400 . S
C339 C340 1.398 . S
C340 H328 0.950 . S
C340 C339 1.398 . S
C340 C341 1.391 . S
C341 H329 0.950 . S
C341 C337 1.393 . S
C341 C340 1.391 . S
H342 C350 0.950 . S
H343 C355 0.950 . S
H344 C352 0.950 . S
H345 C354 0.950 . S
H346 C356 0.950 . S
H347 C358 0.950 . S
H348 C360 0.950 . S
H349 C361 0.950 . S
C350 H342 0.950 . S
C350 C351 1.386 . S
C350 C352 1.391 . S
C351 C350 1.386 . S
C351 C355 1.393 . S
C352 H344 0.950 . S
C352 C350 1.391 . S
C352 C353 1.400 . S
C353 C352 1.400 . S
C353 C354 1.398 . S
C353 C359 1.491 . S
C354 H345 0.950 . S
C354 C353 1.398 . S
C354 C355 1.391 . S
C355 H343 0.950 . S
C355 C351 1.393 . S
C355 C354 1.391 . S
C356 H346 0.950 . S
C356 C357 1.386 . S
C356 C358 1.391 . S
C357 C356 1.386 . S
C357 C361 1.393 . S
C358 H347 0.950 . S
C358 C356 1.391 . S
C358 C359 1.400 . S
C359 C353 1.491 . S
C359 C358 1.400 . S
C359 C360 1.398 . S
C360 H348 0.950 . S
C360 C359 1.398 . S
C360 C361 1.391 . S
C361 H349 0.950 . S
C361 C357 1.393 . S
C361 C360 1.391 . S
H362 C370 0.950 1_665 S
H363 C375 0.950 . S
H364 C372 0.954 1_655 S
H365 C374 0.950 . S
H366 C376 0.950 . S
H367 C378 0.950 . S
H368 C380 0.950 1_655 S
H369 C381 0.950 1_655 S
C370 H362 0.950 1_445 S
C370 C371 1.386 . S
C370 C372 1.388 1_545 S
C371 C370 1.386 . S
C371 C375 1.393 . S
C372 H364 0.954 1_455 S
C372 C370 1.388 1_565 S
C372 C373 1.399 1_565 S
C373 C372 1.399 1_545 S
C373 C374 1.398 . S
C373 C379 1.491 . S
C374 H365 0.950 . S
C374 C373 1.398 . S
C374 C375 1.391 . S
C375 H363 0.950 . S
C375 C371 1.393 . S
C375 C374 1.391 . S
C376 H366 0.950 . S
C376 C377 1.386 1_545 S
C376 C378 1.391 . S
C377 C376 1.386 1_565 S
C377 C381 1.393 . S
C378 H367 0.950 . S
C378 C376 1.391 . S
C378 C379 1.400 . S
C379 C373 1.491 . S
C379 C378 1.400 . S
C379 C380 1.398 1_545 S
C380 H368 0.950 1_455 S
C380 C379 1.398 1_565 S
C380 C381 1.391 . S
C381 H369 0.950 1_455 S
C381 C377 1.393 . S
C381 C380 1.391 . S
H382 C390 0.950 . S
H383 C395 0.950 1_565 S
H384 C392 0.950 1_655 S
H385 C394 0.950 1_565 S
H386 C396 0.950 . S
H387 C398 0.950 . S
H388 C400 0.950 . S
H389 C401 0.950 . S
C390 H382 0.950 . S
C390 C391 1.386 . S
C390 C392 1.391 . S
C391 C390 1.386 . S
C391 C395 1.393 . S
C392 H384 0.950 1_455 S
C392 C390 1.391 . S
C392 C393 1.400 . S
C393 C392 1.400 . S
C393 C394 1.398 . S
C393 C399 1.491 . S
C394 H385 0.950 1_545 S
C394 C393 1.398 . S
C394 C395 1.391 . S
C395 H383 0.950 1_545 S
C395 C391 1.393 . S
C395 C394 1.391 . S
C396 H386 0.950 . S
C396 C397 1.386 . S
C396 C398 1.391 . S
C397 C396 1.386 . S
C397 C401 1.393 1_455 S
C398 H387 0.950 . S
C398 C396 1.391 . S
C398 C399 1.400 . S
C399 C393 1.491 . S
C399 C398 1.400 . S
C399 C400 1.398 1_455 S
C400 H388 0.950 . S
C400 C399 1.398 1_655 S
C400 C401 1.391 . S
C401 H389 0.950 . S
C401 C397 1.393 1_655 S
C401 C400 1.391 . S
H402 C410 0.950 . S
H403 C415 0.950 . S
H404 C412 0.950 . S
H405 C414 0.950 . S
H406 C416 0.950 . S
H407 C418 0.950 . S
H408 C420 0.950 . S
H409 C421 0.950 . S
C410 H402 0.950 . S
C410 C411 1.386 . S
C410 C412 1.391 . S
C411 C410 1.386 . S
C411 C415 1.393 . S
C412 H404 0.950 . S
C412 C410 1.391 . S
C412 C413 1.400 . S
C413 C412 1.400 . S
C413 C414 1.398 . S
C413 C419 1.491 . S
C414 H405 0.950 . S
C414 C413 1.398 . S
C414 C415 1.391 . S
C415 H403 0.950 . S
C415 C411 1.393 . S
C415 C414 1.391 . S
C416 H406 0.950 . S
C416 C417 1.386 . S
C416 C418 1.391 . S
C417 C416 1.386 . S
C417 C421 1.393 . S
C418 H407 0.950 . S
C418 C416 1.391 . S
C418 C419 1.400 . S
C419 C413 1.491 . S
C419 C418 1.400 . S
C419 C420 1.398 . S
C420 H408 0.950 . S
C420 C419 1.398 . S
C420 C421 1.391 . S
C421 H409 0.950 . S
C421 C417 1.393 . S
C421 C420 1.391 . S
H422 C430 0.950 . S
H423 C435 0.950 . S
H424 C432 0.950 . S
H425 C434 0.950 . S
H426 C436 0.950 . S
H427 C438 0.950 . S
H428 C440 0.950 . S
H429 C441 0.950 . S
C430 H422 0.950 . S
C430 C431 1.386 . S
C430 C432 1.391 . S
C431 C430 1.386 . S
C431 C435 1.393 . S
C432 H424 0.950 . S
C432 C430 1.391 . S
C432 C433 1.400 . S
C433 C432 1.400 . S
C433 C434 1.398 . S
C433 C439 1.491 . S
C434 H425 0.950 . S
C434 C433 1.398 . S
C434 C435 1.391 . S
C435 H423 0.950 . S
C435 C431 1.393 . S
C435 C434 1.391 . S
C436 H426 0.950 . S
C436 C437 1.386 . S
C436 C438 1.391 . S
C437 C436 1.386 . S
C437 C441 1.393 . S
C438 H427 0.950 . S
C438 C436 1.391 . S
C438 C439 1.400 . S
C439 C433 1.491 . S
C439 C438 1.400 . S
C439 C440 1.398 . S
C440 H428 0.950 . S
C440 C439 1.398 . S
C440 C441 1.391 . S
C441 H429 0.950 . S
C441 C437 1.393 . S
C441 C440 1.391 . S
C217 C164 1.525 . S
C211 C15 1.393 . S
C231 C13 1.570 . S
C237 C124 1.560 1_554 S
C251 C18 1.342 . S
C257 C177 1.527 . S
C271 C17 1.358 . S
C277 C137 1.412 . S
C291 C36 1.430 . S
C297 C84 1.505 . S
C311 C34 1.586 . S
C317 C44 1.572 . S
C337 C97 1.514 . S
C331 C39 1.296 . S
C357 C57 1.403 . S
C351 C38 1.385 . S
C371 C14 1.521 . S
C377 C63 1.541 . S
C391 C16 1.397 . S
C397 C103 1.409 . S
C417 C143 1.541 . S
C411 C35 1.526 . S
C431 C37 1.394 . S
C437 C183 1.404 . S
