# Generated by pormake.
# Topology soc, (4,6)-cn, num edge types: 1
# Building blocks:
#     Node 0, Type 0, BuildingBlock: ESEHIV_clean_sbu_0, # of connection points: 4
#     Node 1, Type 0, BuildingBlock: ESEHIV_clean_sbu_0, # of connection points: 4
#     Node 2, Type 0, BuildingBlock: ESEHIV_clean_sbu_0, # of connection points: 4
#     Node 3, Type 0, BuildingBlock: ESEHIV_clean_sbu_0, # of connection points: 4
#     Node 4, Type 0, BuildingBlock: ESEHIV_clean_sbu_0, # of connection points: 4
#     Node 5, Type 0, BuildingBlock: ESEHIV_clean_sbu_0, # of connection points: 4
#     Node 6, Type 0, BuildingBlock: ESEHIV_clean_sbu_0, # of connection points: 4
#     Node 7, Type 0, BuildingBlock: ESEHIV_clean_sbu_0, # of connection points: 4
#     Node 8, Type 0, BuildingBlock: ESEHIV_clean_sbu_0, # of connection points: 4
#     Node 9, Type 0, BuildingBlock: ESEHIV_clean_sbu_0, # of connection points: 4
#     Node 10, Type 0, BuildingBlock: ESEHIV_clean_sbu_0, # of connection points: 4
#     Node 11, Type 0, BuildingBlock: ESEHIV_clean_sbu_0, # of connection points: 4
#     Node 12, Type 1, BuildingBlock: PAMTUU_clean_sbu_0, # of connection points: 6
#     Node 13, Type 1, BuildingBlock: PAMTUU_clean_sbu_0, # of connection points: 6
#     Node 14, Type 1, BuildingBlock: PAMTUU_clean_sbu_0, # of connection points: 6
#     Node 15, Type 1, BuildingBlock: PAMTUU_clean_sbu_0, # of connection points: 6
#     Node 16, Type 1, BuildingBlock: PAMTUU_clean_sbu_0, # of connection points: 6
#     Node 17, Type 1, BuildingBlock: PAMTUU_clean_sbu_0, # of connection points: 6
#     Node 18, Type 1, BuildingBlock: PAMTUU_clean_sbu_0, # of connection points: 6
#     Node 19, Type 1, BuildingBlock: PAMTUU_clean_sbu_0, # of connection points: 6
#     Edge 20, Type (0, 1), BuildingBlock: XIVTED_clean_linker_0, # of connection points: 2
#     Edge 21, Type (0, 1), BuildingBlock: XIVTED_clean_linker_0, # of connection points: 2
#     Edge 22, Type (0, 1), BuildingBlock: XIVTED_clean_linker_0, # of connection points: 2
#     Edge 23, Type (0, 1), BuildingBlock: XIVTED_clean_linker_0, # of connection points: 2
#     Edge 24, Type (0, 1), BuildingBlock: XIVTED_clean_linker_0, # of connection points: 2
#     Edge 25, Type (0, 1), BuildingBlock: XIVTED_clean_linker_0, # of connection points: 2
#     Edge 26, Type (0, 1), BuildingBlock: XIVTED_clean_linker_0, # of connection points: 2
#     Edge 27, Type (0, 1), BuildingBlock: XIVTED_clean_linker_0, # of connection points: 2
#     Edge 28, Type (0, 1), BuildingBlock: XIVTED_clean_linker_0, # of connection points: 2
#     Edge 29, Type (0, 1), BuildingBlock: XIVTED_clean_linker_0, # of connection points: 2
#     Edge 30, Type (0, 1), BuildingBlock: XIVTED_clean_linker_0, # of connection points: 2
#     Edge 31, Type (0, 1), BuildingBlock: XIVTED_clean_linker_0, # of connection points: 2
#     Edge 32, Type (0, 1), BuildingBlock: XIVTED_clean_linker_0, # of connection points: 2
#     Edge 33, Type (0, 1), BuildingBlock: XIVTED_clean_linker_0, # of connection points: 2
#     Edge 34, Type (0, 1), BuildingBlock: XIVTED_clean_linker_0, # of connection points: 2
#     Edge 35, Type (0, 1), BuildingBlock: XIVTED_clean_linker_0, # of connection points: 2
#     Edge 36, Type (0, 1), BuildingBlock: XIVTED_clean_linker_0, # of connection points: 2
#     Edge 37, Type (0, 1), BuildingBlock: XIVTED_clean_linker_0, # of connection points: 2
#     Edge 38, Type (0, 1), BuildingBlock: XIVTED_clean_linker_0, # of connection points: 2
#     Edge 39, Type (0, 1), BuildingBlock: XIVTED_clean_linker_0, # of connection points: 2
#     Edge 40, Type (0, 1), BuildingBlock: XIVTED_clean_linker_0, # of connection points: 2
#     Edge 41, Type (0, 1), BuildingBlock: XIVTED_clean_linker_0, # of connection points: 2
#     Edge 42, Type (0, 1), BuildingBlock: XIVTED_clean_linker_0, # of connection points: 2
#     Edge 43, Type (0, 1), BuildingBlock: XIVTED_clean_linker_0, # of connection points: 2
#     Edge 44, Type (0, 1), BuildingBlock: XIVTED_clean_linker_0, # of connection points: 2
#     Edge 45, Type (0, 1), BuildingBlock: XIVTED_clean_linker_0, # of connection points: 2
#     Edge 46, Type (0, 1), BuildingBlock: XIVTED_clean_linker_0, # of connection points: 2
#     Edge 47, Type (0, 1), BuildingBlock: XIVTED_clean_linker_0, # of connection points: 2
#     Edge 48, Type (0, 1), BuildingBlock: XIVTED_clean_linker_0, # of connection points: 2
#     Edge 49, Type (0, 1), BuildingBlock: XIVTED_clean_linker_0, # of connection points: 2
#     Edge 50, Type (0, 1), BuildingBlock: XIVTED_clean_linker_0, # of connection points: 2
#     Edge 51, Type (0, 1), BuildingBlock: XIVTED_clean_linker_0, # of connection points: 2
#     Edge 52, Type (0, 1), BuildingBlock: XIVTED_clean_linker_0, # of connection points: 2
#     Edge 53, Type (0, 1), BuildingBlock: XIVTED_clean_linker_0, # of connection points: 2
#     Edge 54, Type (0, 1), BuildingBlock: XIVTED_clean_linker_0, # of connection points: 2
#     Edge 55, Type (0, 1), BuildingBlock: XIVTED_clean_linker_0, # of connection points: 2
#     Edge 56, Type (0, 1), BuildingBlock: XIVTED_clean_linker_0, # of connection points: 2
#     Edge 57, Type (0, 1), BuildingBlock: XIVTED_clean_linker_0, # of connection points: 2
#     Edge 58, Type (0, 1), BuildingBlock: XIVTED_clean_linker_0, # of connection points: 2
#     Edge 59, Type (0, 1), BuildingBlock: XIVTED_clean_linker_0, # of connection points: 2
#     Edge 60, Type (0, 1), BuildingBlock: XIVTED_clean_linker_0, # of connection points: 2
#     Edge 61, Type (0, 1), BuildingBlock: XIVTED_clean_linker_0, # of connection points: 2
#     Edge 62, Type (0, 1), BuildingBlock: XIVTED_clean_linker_0, # of connection points: 2
#     Edge 63, Type (0, 1), BuildingBlock: XIVTED_clean_linker_0, # of connection points: 2
#     Edge 64, Type (0, 1), BuildingBlock: XIVTED_clean_linker_0, # of connection points: 2
#     Edge 65, Type (0, 1), BuildingBlock: XIVTED_clean_linker_0, # of connection points: 2
#     Edge 66, Type (0, 1), BuildingBlock: XIVTED_clean_linker_0, # of connection points: 2
#     Edge 67, Type (0, 1), BuildingBlock: XIVTED_clean_linker_0, # of connection points: 2
# Relax obj value: 0.137
# Max RMSD: 0.234
# Mean RMSD: 0.157
data_MOF--net-soc--node1-ESEHIV_clean_sbu_0--node2-PAMTUU_clean_sbu_0--edge1-XIVTED_clean_linker_0
_symmetry_space_group_name_H-M    P1
_symmetry_Int_Tables_number       1
_symmetry_cell_setting            triclinic
loop_
_symmetry_equiv_pos_as_xyz
'x, y, z'
_cell_length_a     51.927144
_cell_length_b     50.98734
_cell_length_c     43.133465
_cell_angle_alpha  82.767479
_cell_angle_beta   82.275098
_cell_angle_gamma 71.161675
loop_
_atom_site_label
_atom_site_type_symbol
_atom_site_fract_x
_atom_site_fract_y
_atom_site_fract_z
_atom_type_partial_charge
Cu0 Cu 0.04008 0.0357 0.38087 0.0
N1 N 0.0505 0.05673 0.40658 0.0
N2 N 0.07221 0.08466 0.41962 0.0
C3 C 0.07228 0.0661 0.39977 0.0
C4 C 0.04944 0.08692 0.43973 0.0
C5 C 0.036 0.06994 0.43145 0.0
O6 O 0.0733 0.01027 0.36138 0.0
C7 C 0.99477 0.06196 0.34335 0.0
O8 O 0.98962 0.03815 0.34728 0.0
H9 H 0.08686 0.06071 0.37937 0.0
H10 H 1.01621 0.06875 0.44167 0.0
N11 N 1.02081 0.01288 0.4035 0.0
N12 N 1.00081 0.97944 0.412 0.0
C13 C 1.01526 0.9926 0.39109 0.0
C14 C 1.01015 0.01201 0.43371 0.0
C15 C 0.99773 0.99141 0.439 0.0
C16 C 0.08878 0.99464 0.38141 0.0
O17 O 0.08137 0.99811 0.41136 0.0
H18 H 1.02166 0.98771 0.367 0.0
H19 H 1.0112 0.02529 0.45078 0.0
O20 O 1.01641 0.06351 0.35284 0.0
H21 H 0.04235 0.10059 0.45846 0.0
H22 H 0.9867 0.98618 0.46077 0.0
Cu23 Cu 0.04678 0.03809 0.73584 0.0
N24 N 0.03304 0.01958 0.71057 0.0
N25 N 1.00818 0.99477 0.69778 0.0
C26 C 1.01435 0.00656 0.72093 0.0
C27 C 1.02375 0.0006 0.6718 0.0
C28 C 0.03904 0.01596 0.67976 0.0
O29 O 1.01556 0.06389 0.75862 0.0
C30 C 0.09379 0.99554 0.74177 0.0
O31 O 0.09328 0.00182 0.71132 0.0
H32 H 1.0058 0.00546 0.74518 0.0
H33 H 0.05356 0.02381 0.66424 0.0
N34 N 0.06573 0.06058 0.71254 0.0
N35 N 0.0928 0.08749 0.70504 0.0
C36 C 0.08461 0.06818 0.72437 0.0
C37 C 0.06174 0.07553 0.68459 0.0
C38 C 0.07846 0.09226 0.6799 0.0
C39 C 0.99762 0.07919 0.74088 0.0
O40 O 1.00118 0.07504 0.71095 0.0
H41 H 0.09098 0.06082 0.74764 0.0
H42 H 0.04693 0.07523 0.66936 0.0
O43 O 0.07381 0.00948 0.75982 0.0
H44 H 1.02391 0.99447 0.64863 0.0
H45 H 0.07947 0.10723 0.65999 0.0
Cu46 Cu 0.33373 0.03797 0.10908 0.0
N47 N 0.36863 0.02116 0.09036 0.0
N48 N 0.39606 0.98943 0.05922 0.0
C49 C 0.37651 0.99456 0.0836 0.0
C50 C 0.40139 0.01376 0.05096 0.0
C51 C 0.3844 0.03333 0.07027 0.0
O52 O 0.31978 0.0063 0.12182 0.0
C53 C 0.30633 0.09136 0.07635 0.0
O54 O 0.30303 0.10201 0.1033 0.0
H55 H 0.36499 0.9805 0.09283 0.0
H56 H 0.38121 0.0555 0.06702 0.0
N57 N 0.3362 0.05288 0.14578 0.0
N58 N 0.34072 0.07931 0.18122 0.0
C59 C 0.34173 0.07619 0.15028 0.0
C60 C 0.33239 0.04059 0.17472 0.0
C61 C 0.33493 0.05678 0.19648 0.0
C62 C 0.29889 0.00449 0.14011 0.0
O63 O 0.28032 0.02723 0.14938 0.0
H64 H 0.34634 0.09054 0.13134 0.0
H65 H 0.3278 0.02119 0.17978 0.0
O66 O 0.31581 0.06503 0.07549 0.0
H67 H 0.41423 0.01795 0.03026 0.0
H68 H 0.33178 0.05261 0.22169 0.0
Cu69 Cu 0.06542 0.30997 0.10797 0.0
N70 N 0.0752 0.33008 0.07145 0.0
N71 N 0.10002 0.33752 0.02663 0.0
C72 C 0.10039 0.32439 0.05586 0.0
C73 C 0.07359 0.35232 0.02384 0.0
C74 C 0.05832 0.34771 0.05156 0.0
O75 O 0.09573 0.29784 0.13513 0.0
C76 C 0.05766 0.27404 0.0662 0.0
O77 O 0.0789 0.27822 0.04864 0.0
H78 H 0.11821 0.30894 0.06475 0.0
H79 H 0.03628 0.35508 0.05608 0.0
N80 N 0.03441 0.33166 0.13085 0.0
N81 N 0.99378 0.34159 0.15961 0.0
C82 C 1.01337 0.32248 0.14326 0.0
C83 C 0.02805 0.35761 0.13959 0.0
C84 C 1.00297 0.36377 0.15747 0.0
C85 C 0.10663 0.31623 0.13909 0.0
O86 O 0.09741 0.34119 0.12461 0.0
H87 H 1.01283 0.30178 0.14097 0.0
H88 H 0.04078 0.37098 0.1336 0.0
O89 O 0.05231 0.28168 0.09405 0.0
H90 H 0.0657 0.3646 1.00284 0.0
H91 H 0.99231 0.38308 0.1679 0.0
Cu92 Cu 0.80291 0.00454 1.01553 0.0
N93 N 0.82677 0.01999 0.98955 0.0
N94 N 0.84064 0.05383 0.96191 0.0
C95 C 0.82288 0.04748 0.98498 0.0
C96 C 0.85645 0.02926 0.95148 0.0
C97 C 0.84788 0.00831 0.96875 0.0
O98 O 0.77997 0.03447 0.04106 0.0
C99 C 0.79791 0.96427 0.98096 0.0
O100 O 0.82244 0.95191 0.98995 0.0
H101 H 0.80598 0.06274 0.99675 0.0
H102 H 0.85556 0.98638 0.96531 0.0
N103 N 0.82138 0.97619 0.04375 0.0
N104 N 0.82704 0.94736 0.08738 0.0
C105 C 0.80893 0.96526 0.06894 0.0
C106 C 0.84839 0.96479 0.04605 0.0
C107 C 0.85195 0.94692 0.07308 0.0
C108 C 0.79254 0.04008 0.06163 0.0
O109 O 0.81832 0.02575 0.06399 0.0
H110 H 0.78694 0.97145 0.07435 0.0
H111 H 0.86425 0.96979 0.02981 0.0
O112 O 0.78452 0.98849 0.98943 0.0
H113 H 0.87224 0.02674 0.93195 0.0
H114 H 0.87132 0.93486 0.0817 0.0
Cu115 Cu 0.03903 0.74169 0.02751 0.0
N116 N 1.02311 0.72747 0.9998 0.0
N117 N 0.99461 0.72372 0.96727 0.0
C118 C 1.00108 0.74092 0.98416 0.0
C119 C 1.01346 0.69861 0.97234 0.0
C120 C 0.03101 0.70102 0.9923 0.0
O121 O 1.01056 0.76082 0.0598 0.0
C122 C 0.07693 0.77454 1.00989 0.0
O123 O 0.07501 0.77873 0.03967 0.0
H124 H 0.98959 0.76266 0.9859 0.0
H125 H 0.04821 0.68455 1.00099 0.0
N126 N 0.06288 0.71194 0.04956 0.0
N127 N 0.09744 0.6908 0.07876 0.0
C128 C 0.08768 0.7111 0.05621 0.0
C129 C 0.05697 0.69086 0.06796 0.0
C130 C 0.07823 0.67783 0.08615 0.0
C131 C 0.99201 0.74944 0.06996 0.0
O132 O 0.99197 0.72752 0.05696 0.0
H133 H 0.09728 0.7267 0.04702 0.0
H134 H 0.0377 0.6866 0.06982 0.0
O135 O 0.0616 0.76226 1.00111 0.0
H136 H 1.01459 0.67984 0.96223 0.0
H137 H 0.07863 0.66145 0.10484 0.0
Cu138 Cu 0.53639 0.53203 0.88863 0.0
N139 N 0.54912 0.55339 0.91142 0.0
N140 N 0.57197 0.58133 0.92118 0.0
C141 C 0.56594 0.56818 0.8992 0.0
C142 C 0.55831 0.57458 0.9483 0.0
C143 C 0.54414 0.55743 0.94218 0.0
O144 O 0.56779 0.50847 0.8636 0.0
C145 C 0.48568 0.56963 0.88694 0.0
O146 O 0.48831 0.56279 0.91702 0.0
H147 H 0.57397 0.56879 0.87473 0.0
H148 H 0.53102 0.54869 0.95894 0.0
N149 N 0.52235 0.50678 0.91451 0.0
N150 N 0.50104 0.47463 0.92597 0.0
C151 C 0.50596 0.49457 0.90462 0.0
C152 C 0.5281 0.49424 0.94324 0.0
C153 C 0.51477 0.47445 0.9505 0.0
C154 C 0.58797 0.49553 0.87947 0.0
O155 O 0.58621 0.50046 0.90897 0.0
H156 H 0.49837 0.4999 0.88174 0.0
H157 H 0.54193 0.49826 0.95731 0.0
O158 O 0.50562 0.55796 0.86734 0.0
H159 H 0.55826 0.58181 0.97086 0.0
H160 H 0.51616 0.46019 0.97148 0.0
Cu161 Cu 0.55571 0.54336 0.24939 0.0
N162 N 0.54137 0.52282 0.22725 0.0
N163 N 0.51652 0.49689 0.21712 0.0
C164 C 0.52115 0.51188 0.23826 0.0
C165 C 0.53453 0.49854 0.19186 0.0
C166 C 0.54979 0.51454 0.19816 0.0
O167 O 0.52579 0.56908 0.27349 0.0
C168 C 0.6054 0.50447 0.25493 0.0
O169 O 0.60521 0.51067 0.22445 0.0
H170 H 0.51059 0.51426 0.26164 0.0
H171 H 0.56616 0.51943 0.18278 0.0
N172 N 0.57229 0.56617 0.22241 0.0
N173 N 0.59733 0.59479 0.20801 0.0
C174 C 0.58997 0.57747 0.23118 0.0
C175 C 0.56819 0.57669 0.19262 0.0
C176 C 0.58365 0.59441 0.18365 0.0
C177 C 0.50706 0.58398 0.25663 0.0
O178 O 0.50914 0.57911 0.22706 0.0
H179 H 0.59646 0.57377 0.25459 0.0
H180 H 0.55444 0.57237 0.1787 0.0
O181 O 0.58439 0.5168 0.27273 0.0
H182 H 0.53656 0.48886 0.17034 0.0
H183 H 0.58453 0.60624 0.16108 0.0
Cu184 Cu 0.80581 0.5656 0.59757 0.0
N185 N 0.78722 0.58631 0.56436 0.0
N186 N 0.78338 0.6076 0.51592 0.0
C187 C 0.80041 0.59084 0.53629 0.0
C188 C 0.75822 0.61361 0.53191 0.0
C189 C 0.76067 0.60041 0.56195 0.0
O190 O 0.81938 0.59108 0.61584 0.0
C191 C 0.84231 0.50943 0.58912 0.0
O192 O 0.84133 0.5042 0.61979 0.0
H193 H 0.82231 0.5821 0.53123 0.0
H194 H 0.74446 0.60154 0.58081 0.0
N195 N 0.78235 0.55333 0.62823 0.0
N196 N 0.769 0.5227 0.66285 0.0
C197 C 0.78066 0.52734 0.63367 0.0
C198 C 0.77021 0.56599 0.65432 0.0
C199 C 0.76205 0.54711 0.6758 0.0
C200 C 0.8299 0.58663 0.64179 0.0
O201 O 0.83658 0.56145 0.65621 0.0
H202 H 0.79033 0.51127 0.6179 0.0
H203 H 0.76974 0.58661 0.65856 0.0
O204 O 0.8323 0.5343 0.57732 0.0
H205 H 0.73956 0.62736 0.52303 0.0
H206 H 0.75367 0.55043 0.69987 0.0
Cu207 Cu 0.57354 0.79208 0.60631 0.0
N208 N 0.59829 0.77148 0.57531 0.0
N209 N 0.63054 0.76156 0.53431 0.0
C210 C 0.61921 0.77836 0.55779 0.0
C211 C 0.61645 0.74304 0.53782 0.0
C212 C 0.59666 0.74924 0.56291 0.0
O213 O 0.59463 0.80535 0.63144 0.0
C214 C 0.54796 0.83063 0.55678 0.0
O215 O 0.57235 0.82548 0.5413 0.0
H216 H 0.62475 0.79649 0.56101 0.0
H217 H 0.58139 0.73895 0.57073 0.0
N218 N 0.55322 0.77124 0.63173 0.0
N219 N 0.51708 0.76189 0.66018 0.0
C220 C 0.52697 0.78171 0.64399 0.0
C221 C 0.56025 0.74378 0.64047 0.0
C222 C 0.53804 0.73796 0.65792 0.0
C223 C 0.59096 0.80501 0.66129 0.0
O224 O 0.57036 0.79765 0.67649 0.0
H225 H 0.51522 0.80348 0.64057 0.0
H226 H 0.58004 0.729 0.6344 0.0
O227 O 0.54561 0.82151 0.58551 0.0
H228 H 0.61966 0.72651 0.52289 0.0
H229 H 0.53752 0.71767 0.66837 0.0
Cu230 Cu 0.2984 0.49829 0.53462 0.0
N231 N 0.3188 0.52037 0.51201 0.0
N232 N 0.32706 0.55852 0.48632 0.0
C233 C 0.3078 0.54664 0.49927 0.0
C234 C 0.35117 0.5388 0.49126 0.0
C235 C 0.34602 0.51541 0.50712 0.0
O236 O 0.27429 0.52246 0.56479 0.0
C237 C 0.28653 0.4849 0.47716 0.0
O238 O 0.30551 0.49602 0.4647 0.0
H239 H 0.28599 0.55705 0.50034 0.0
H240 H 0.36109 0.49636 0.51498 0.0
N241 N 0.31922 0.46618 0.55752 0.0
N242 N 0.3293 0.43077 0.59516 0.0
C243 C 0.31117 0.4554 0.58605 0.0
C244 C 0.34317 0.4476 0.54815 0.0
C245 C 0.34945 0.42581 0.57127 0.0
C246 C 0.28655 0.52668 0.58642 0.0
O247 O 0.31291 0.51396 0.58693 0.0
H248 H 0.29186 0.46495 0.59933 0.0
H249 H 0.35483 0.44932 0.52568 0.0
O250 O 0.2793 0.48534 0.50659 0.0
H251 H 0.37118 0.54102 0.48396 0.0
H252 H 0.36735 0.40756 0.57037 0.0
Cu253 Cu 0.52436 0.24802 0.53086 0.0
N254 N 0.55586 0.22896 0.50629 0.0
N255 N 0.59669 0.22091 0.47812 0.0
C256 C 0.57794 0.23763 0.49784 0.0
C257 C 0.58596 0.2009 0.47398 0.0
C258 C 0.56081 0.20589 0.49143 0.0
O259 O 0.53511 0.27477 0.55104 0.0
C260 C 0.48334 0.24589 0.49657 0.0
O261 O 0.4934 0.21965 0.50695 0.0
H262 H 0.57971 0.25652 0.50501 0.0
H263 H 0.54689 0.19387 0.49259 0.0
N264 N 0.51377 0.22457 0.5636 0.0
N265 N 0.49262 0.21208 0.60898 0.0
C266 C 0.49647 0.23342 0.58903 0.0
C267 C 0.52128 0.1966 0.56758 0.0
C268 C 0.50811 0.18883 0.5955 0.0
C269 C 0.55207 0.26351 0.57141 0.0
O270 O 0.56016 0.23633 0.57709 0.0
H271 H 0.48674 0.25519 0.59264 0.0
H272 H 0.53536 0.18283 0.55141 0.0
O273 O 0.49395 0.26335 0.50404 0.0
H274 H 0.59546 0.18404 0.45915 0.0
H275 H 0.51012 0.16774 0.60534 0.0
Tb276 Tb 0.30566 0.31102 0.2937 0.0
Tb277 Tb 0.27329 0.27848 0.34985 0.0
C278 C 0.24934 0.30237 0.28378 0.0
C279 C 0.34977 0.35361 0.25356 0.0
C280 C 0.38448 0.38721 0.2484 0.0
C281 C 0.357 0.39893 0.24213 0.0
C282 C 0.33988 0.38227 0.2445 0.0
C283 C 0.3771 0.34207 0.26052 0.0
C284 C 0.3942 0.35866 0.25798 0.0
C285 C 0.33228 0.3356 0.25364 0.0
O286 O 0.27707 0.34304 0.32131 0.0
O287 O 0.27238 0.31682 0.36769 0.0
O288 O 0.31532 0.26797 0.36172 0.0
O289 O 0.32759 0.30476 0.33508 0.0
O290 O 0.23832 0.28051 0.38154 0.0
O291 O 0.27322 0.24329 0.3808 0.0
O292 O 0.28773 0.25002 0.31361 0.0
O293 O 0.32046 0.26722 0.28466 0.0
O294 O 0.27251 0.30626 0.27112 0.0
O295 O 0.24457 0.29602 0.31416 0.0
C296 C 0.27097 0.34089 0.35188 0.0
O297 O 0.34189 0.30989 0.26525 0.0
O298 O 0.30618 0.34602 0.26209 0.0
C299 C 0.33128 0.2839 0.357 0.0
C300 C 0.22975 0.2375 0.39431 0.0
C301 C 0.19499 0.20416 0.39939 0.0
C302 C 0.19849 0.2158 0.42583 0.0
C303 C 0.21571 0.23227 0.42328 0.0
C304 C 0.22633 0.2261 0.36776 0.0
C305 C 0.20915 0.20949 0.37029 0.0
C306 C 0.24807 0.25457 0.39243 0.0
C307 C 0.30855 0.24778 0.2921 0.0
H308 H 0.34897 0.42082 0.23442 0.0
H309 H 0.31903 0.39172 0.23865 0.0
H310 H 0.38553 0.32007 0.26747 0.0
H311 H 0.41516 0.34906 0.26338 0.0
H312 H 0.18821 0.21183 0.44865 0.0
H313 H 0.2182 0.24083 0.44404 0.0
H314 H 0.23697 0.23002 0.34513 0.0
H315 H 0.20669 0.20111 0.34942 0.0
Tb316 Tb 0.78527 0.27518 0.29152 0.0
Tb317 Tb 0.80376 0.2937 0.3547 0.0
C318 C 0.75939 0.33594 0.31352 0.0
C319 C 0.77224 0.23998 0.22428 0.0
C320 C 0.774 0.19765 0.18661 0.0
C321 C 0.75748 0.22524 0.18004 0.0
C322 C 0.75665 0.24612 0.19866 0.0
C323 C 0.78944 0.21274 0.23051 0.0
C324 C 0.79038 0.19179 0.21178 0.0
C325 C 0.76751 0.26163 0.24594 0.0
O326 O 0.82467 0.28199 0.27824 0.0
O327 O 0.82147 0.31362 0.31335 0.0
O328 O 0.8344 0.25468 0.34304 0.0
O329 O 0.81293 0.2367 0.31139 0.0
O330 O 0.83514 0.29655 0.3791 0.0
O331 O 0.79329 0.30787 0.39987 0.0
O332 O 0.77988 0.26547 0.37061 0.0
O333 O 0.75329 0.27896 0.33007 0.0
O334 O 0.76799 0.32015 0.28996 0.0
O335 O 0.76785 0.32786 0.34164 0.0
C336 C 0.83243 0.3018 0.28718 0.0
O337 O 0.76116 0.25486 0.27542 0.0
O338 O 0.78397 0.27667 0.2425 0.0
C339 C 0.83317 0.23424 0.32805 0.0
C340 C 0.82322 0.3277 0.41912 0.0
C341 C 0.8317 0.36762 0.45339 0.0
C342 C 0.84575 0.33912 0.45913 0.0
C343 C 0.84153 0.31947 0.44222 0.0
C344 C 0.80944 0.35613 0.41271 0.0
C345 C 0.8137 0.37594 0.42966 0.0
C346 C 0.81842 0.30579 0.40346 0.0
C347 C 0.75731 0.26755 0.35864 0.0
H348 H 0.7443 0.2306 0.16125 0.0
H349 H 0.74299 0.26695 0.19371 0.0
H350 H 0.80155 0.20754 0.2503 0.0
H351 H 0.80372 0.17092 0.21726 0.0
H352 H 0.86013 0.33191 0.47672 0.0
H353 H 0.85242 0.29763 0.44749 0.0
H354 H 0.79517 0.36295 0.39499 0.0
H355 H 0.80239 0.39767 0.42473 0.0
Tb356 Tb 0.82929 0.78357 0.33002 0.0
Tb357 Tb 0.79021 0.7723 0.28072 0.0
C358 C 0.82088 0.72428 0.3297 0.0
C359 C 0.87428 0.81055 0.37139 0.0
C360 C 0.90798 0.84293 0.37769 0.0
C361 C 0.89319 0.83364 0.40415 0.0
C362 C 0.87659 0.8176 0.40099 0.0
C363 C 0.889 0.81953 0.34479 0.0
C364 C 0.9058 0.83556 0.34794 0.0
C365 C 0.85534 0.79498 0.36915 0.0
O366 O 0.85793 0.77059 0.28821 0.0
O367 O 0.8271 0.77542 0.25232 0.0
O368 O 0.78096 0.81694 0.28197 0.0
O369 O 0.82169 0.81841 0.29478 0.0
O370 O 0.78705 0.75299 0.24185 0.0
O371 O 0.75196 0.78358 0.26319 0.0
O372 O 0.76893 0.76752 0.32669 0.0
O373 O 0.78736 0.79216 0.3536 0.0
O374 O 0.82847 0.74159 0.34377 0.0
O375 O 0.80895 0.7312 0.3035 0.0
C376 C 0.85208 0.77155 0.25911 0.0
O377 O 0.83074 0.80993 0.36284 0.0
O378 O 0.86456 0.77272 0.35385 0.0
C379 C 0.7994 0.82968 0.28072 0.0
C380 C 0.74397 0.74783 0.23988 0.0
C381 C 0.71213 0.71358 0.23381 0.0
C382 C 0.71975 0.72991 0.20765 0.0
C383 C 0.73549 0.74688 0.2107 0.0
C384 C 0.73664 0.73154 0.26612 0.0
C385 C 0.7208 0.71456 0.26312 0.0
C386 C 0.76083 0.76557 0.24216 0.0
C387 C 0.76897 0.77975 0.35166 0.0
H388 H 0.89382 0.83935 0.42731 0.0
H389 H 0.86513 0.81106 0.42172 0.0
H390 H 0.88731 0.81438 0.32169 0.0
H391 H 0.91707 0.84213 0.3271 0.0
H392 H 0.71389 0.72931 0.18465 0.0
H393 H 0.74119 0.75918 0.19017 0.0
H394 H 0.74315 0.73198 0.28884 0.0
H395 H 0.71508 0.70246 0.2838 0.0
Tb396 Tb 0.31602 0.80352 0.34943 0.0
Tb397 Tb 0.28606 0.77594 0.30489 0.0
C398 C 0.25325 0.82832 0.3388 0.0
C399 C 0.35479 0.82613 0.40516 0.0
C400 C 0.39551 0.82935 0.44036 0.0
C401 C 0.36772 0.84285 0.44912 0.0
C402 C 0.34761 0.84125 0.43166 0.0
C403 C 0.3824 0.8118 0.39683 0.0
C404 C 0.40262 0.8134 0.41431 0.0
C405 C 0.33331 0.82844 0.38503 0.0
O406 O 0.32075 0.76137 0.37097 0.0
O407 O 0.2827 0.75775 0.35331 0.0
O408 O 0.32908 0.75195 0.30042 0.0
O409 O 0.35133 0.77239 0.32854 0.0
O410 O 0.25364 0.76055 0.30188 0.0
O411 O 0.28834 0.75377 0.26632 0.0
O412 O 0.2925 0.81057 0.27328 0.0
O413 O 0.31262 0.83005 0.30523 0.0
O414 O 0.27156 0.8198 0.35922 0.0
O415 O 0.25651 0.81606 0.31303 0.0
C416 C 0.30265 0.74831 0.37152 0.0
O417 O 0.3403 0.82802 0.35487 0.0
O418 O 0.3159 0.81488 0.3948 0.0
C419 C 0.35137 0.75364 0.31017 0.0
C420 C 0.24702 0.75061 0.25123 0.0
C421 C 0.21491 0.73927 0.21004 0.0
C422 C 0.24315 0.73404 0.20215 0.0
C423 C 0.25903 0.73958 0.22259 0.0
C424 C 0.21855 0.75739 0.25829 0.0
C425 C 0.20263 0.75185 0.23782 0.0
C426 C 0.2648 0.7498 0.2755 0.0
C427 C 0.30313 0.82963 0.27852 0.0
H428 H 0.36152 0.85556 0.46878 0.0
H429 H 0.32641 0.85268 0.43825 0.0
H430 H 0.3884 0.8 0.3764 0.0
H431 H 0.42381 0.80239 0.40726 0.0
H432 H 0.25328 0.72413 0.18109 0.0
H433 H 0.28099 0.73368 0.21677 0.0
H434 H 0.20869 0.76569 0.28031 0.0
H435 H 0.18083 0.75655 0.24426 0.0
Tb436 Tb 0.27561 0.77122 0.79532 0.0
Tb437 Tb 0.30073 0.79673 0.84637 0.0
C438 C 0.25439 0.83422 0.80742 0.0
C439 C 0.2547 0.73403 0.73695 0.0
C440 C 0.25553 0.68913 0.70461 0.0
C441 C 0.23386 0.71419 0.70278 0.0
C442 C 0.23349 0.73642 0.71883 0.0
C443 C 0.27676 0.70941 0.73833 0.0
C444 C 0.27721 0.68712 0.72218 0.0
C445 C 0.25187 0.75654 0.75633 0.0
O446 O 0.31802 0.76491 0.77651 0.0
O447 O 0.32288 0.80063 0.79983 0.0
O448 O 0.32532 0.75325 0.84599 0.0
O449 O 0.30247 0.73348 0.81792 0.0
O450 O 0.31688 0.82796 0.85321 0.0
O451 O 0.31843 0.79325 0.8886 0.0
O452 O 0.26701 0.78587 0.87526 0.0
O453 O 0.2447 0.77922 0.83561 0.0
O454 O 0.26473 0.81632 0.78617 0.0
O455 O 0.26286 0.82882 0.83551 0.0
C456 C 0.33178 0.7819 0.77925 0.0
O457 O 0.24905 0.75034 0.78657 0.0
O458 O 0.26811 0.77169 0.74843 0.0
C459 C 0.32195 0.73156 0.83555 0.0
C460 C 0.3271 0.83307 0.90422 0.0
C461 C 0.3441 0.86472 0.94172 0.0
C462 C 0.3516 0.8356 0.94739 0.0
C463 C 0.34319 0.81998 0.9288 0.0
C464 C 0.3181 0.86226 0.89974 0.0
C465 C 0.32646 0.87794 0.91842 0.0
C466 C 0.32512 0.81588 0.88022 0.0
C467 C 0.24574 0.78186 0.86534 0.0
H468 H 0.21672 0.71635 0.68981 0.0
H469 H 0.21618 0.75526 0.71784 0.0
H470 H 0.29324 0.70727 0.7524 0.0
H471 H 0.29442 0.66825 0.72364 0.0
H472 H 0.36533 0.82469 0.96492 0.0
H473 H 0.35077 0.79748 0.93238 0.0
H474 H 0.30579 0.87292 0.88084 0.0
H475 H 0.31983 0.90038 0.91391 0.0
Tb476 Tb 0.32544 0.27481 0.85411 0.0
Tb477 Tb 0.29425 0.2466 0.81234 0.0
C478 C 0.31176 0.21899 0.87856 0.0
C479 C 0.36677 0.31177 0.88813 0.0
C480 C 0.39803 0.34672 0.89328 0.0
C481 C 0.40074 0.32232 0.91349 0.0
C482 C 0.38521 0.30506 0.91094 0.0
C483 C 0.36459 0.33558 0.8671 0.0
C484 C 0.38015 0.35294 0.86966 0.0
C485 C 0.34883 0.29459 0.88861 0.0
O486 O 0.35435 0.26118 0.81383 0.0
O487 O 0.33832 0.22692 0.80241 0.0
O488 O 0.30634 0.27845 0.78108 0.0
O489 O 0.31081 0.30688 0.81593 0.0
O490 O 0.29084 0.21111 0.7956 0.0
O491 O 0.26664 0.25244 0.77877 0.0
O492 O 0.26117 0.27627 0.83907 0.0
O493 O 0.28527 0.27964 0.87848 0.0
O494 O 0.32986 0.23248 0.87524 0.0
O495 O 0.29325 0.2241 0.85871 0.0
C496 C 0.35727 0.23935 0.79892 0.0
O497 O 0.32418 0.30705 0.8805 0.0
O498 O 0.35972 0.27028 0.87771 0.0
C499 C 0.30843 0.30222 0.78724 0.0
C500 C 0.24913 0.21556 0.77508 0.0
C501 C 0.20936 0.19166 0.76486 0.0
C502 C 0.21679 0.21089 0.74208 0.0
C503 C 0.23646 0.22267 0.74717 0.0
C504 C 0.24115 0.19716 0.79848 0.0
C505 C 0.22139 0.1853 0.79339 0.0
C506 C 0.27217 0.22577 0.7774 0.0
C507 C 0.26206 0.28355 0.86704 0.0
H508 H 0.41471 0.31665 0.9315 0.0
H509 H 0.38717 0.28672 0.92731 0.0
H510 H 0.35043 0.3411 0.84929 0.0
H511 H 0.37752 0.37166 0.85384 0.0
H512 H 0.20829 0.21596 0.71968 0.0
H513 H 0.24251 0.23668 0.72874 0.0
H514 H 0.25064 0.19142 0.82027 0.0
H515 H 0.21584 0.17084 0.81158 0.0
Tb516 Tb 0.81498 0.29844 0.8409 0.0
Tb517 Tb 0.78007 0.28131 0.78956 0.0
C518 C 0.75143 0.3289 0.83514 0.0
C519 C 0.86259 0.29942 0.90107 0.0
C520 C 0.90516 0.28263 0.94142 0.0
C521 C 0.88143 0.30513 0.9477 0.0
C522 C 0.86048 0.31339 0.92777 0.0
C523 C 0.88577 0.27632 0.89519 0.0
C524 C 0.9068 0.26802 0.91515 0.0
C525 C 0.8418 0.31125 0.87838 0.0
O526 O 0.79937 0.26578 0.86574 0.0
O527 O 0.79234 0.24605 0.8237 0.0
O528 O 0.82376 0.2619 0.77601 0.0
O529 O 0.84245 0.26079 0.822 0.0
O530 O 0.75021 0.26343 0.78294 0.0
O531 O 0.77359 0.27817 0.74321 0.0
O532 O 0.78183 0.32229 0.7723 0.0
O533 O 0.81801 0.32418 0.79689 0.0
O534 O 0.77512 0.33011 0.84144 0.0
O535 O 0.74922 0.30834 0.82106 0.0
C536 C 0.79632 0.2448 0.85331 0.0
O537 O 0.84987 0.30787 0.84876 0.0
O538 O 0.81748 0.3087 0.88616 0.0
C539 C 0.84372 0.25175 0.79445 0.0
C540 C 0.7287 0.27778 0.7354 0.0
C541 C 0.68375 0.29031 0.69905 0.0
C542 C 0.68546 0.27209 0.72662 0.0
C543 C 0.70762 0.26589 0.74445 0.0
C544 C 0.72678 0.29659 0.70832 0.0
C545 C 0.70454 0.30281 0.6904 0.0
C546 C 0.75367 0.26769 0.7524 0.0
C547 C 0.80033 0.33385 0.77574 0.0
H548 H 0.87944 0.31719 0.96732 0.0
H549 H 0.84296 0.33142 0.93267 0.0
H550 H 0.88795 0.26511 0.87477 0.0
H551 H 0.92451 0.25035 0.90975 0.0
H552 H 0.67024 0.2616 0.73383 0.0
H553 H 0.70871 0.25094 0.76484 0.0
H554 H 0.74276 0.30599 0.70049 0.0
H555 H 0.70383 0.31716 0.66953 0.0
Tb556 Tb 0.80642 0.80338 0.77913 0.0
Tb557 Tb 0.77706 0.77014 0.83615 0.0
C558 C 0.74604 0.80263 0.77825 0.0
C559 C 0.84593 0.84707 0.7321 0.0
C560 C 0.87951 0.88165 0.72497 0.0
C561 C 0.87059 0.87479 0.69857 0.0
C562 C 0.85397 0.85763 0.70214 0.0
C563 C 0.85431 0.85415 0.75862 0.0
C564 C 0.87097 0.87133 0.75509 0.0
C565 C 0.82966 0.82794 0.73512 0.0
O566 O 0.78469 0.83449 0.8122 0.0
O567 O 0.78054 0.80547 0.85664 0.0
O568 O 0.8208 0.75648 0.84161 0.0
O569 O 0.83224 0.79436 0.81711 0.0
O570 O 0.74568 0.77052 0.87259 0.0
O571 O 0.7783 0.73263 0.86307 0.0
O572 O 0.78265 0.74766 0.79495 0.0
O573 O 0.81979 0.75935 0.7703 0.0
O574 O 0.76948 0.80189 0.76191 0.0
O575 O 0.74426 0.79638 0.80882 0.0
C576 C 0.77991 0.83016 0.8429 0.0
O577 O 0.84111 0.803 0.74789 0.0
O578 O 0.80403 0.83779 0.7459 0.0
C579 C 0.8372 0.77192 0.83678 0.0
C580 C 0.73502 0.72847 0.88263 0.0
C581 C 0.69798 0.69747 0.89086 0.0
C582 C 0.70253 0.70976 0.9162 0.0
C583 C 0.72093 0.72504 0.91211 0.0
C584 C 0.7302 0.71683 0.85703 0.0
C585 C 0.71187 0.70139 0.86113 0.0
C586 C 0.75505 0.7437 0.87934 0.0
C587 C 0.8042 0.74312 0.77426 0.0
H588 H 0.8764 0.88273 0.67511 0.0
H589 H 0.8476 0.85239 0.68145 0.0
H590 H 0.84831 0.84607 0.78195 0.0
H591 H 0.87768 0.87598 0.77588 0.0
H592 H 0.69182 0.70766 0.93926 0.0
H593 H 0.72429 0.73405 0.93207 0.0
H594 H 0.74087 0.71934 0.83403 0.0
H595 H 0.70908 0.69204 0.84116 0.0
H596 H 0.12414 0.07262 0.39052 0.0
H597 H 0.14467 0.21271 0.43295 0.0
H598 H 0.06281 0.13438 0.44343 0.0
H599 H 0.20341 0.15546 0.37264 0.0
H600 H 0.11529 0.18312 0.43867 0.0
H601 H 0.15421 0.10156 0.3852 0.0
C602 C 0.1169 0.09224 0.40098 0.0
C603 C 0.09072 0.10097 0.4174 0.0
C604 C 0.13459 0.177 0.42415 0.0
C605 C 0.1253 0.13418 0.4116 0.0
C606 C 0.15147 0.19384 0.421 0.0
C607 C 0.17664 0.18657 0.40234 0.0
C608 C 0.14287 0.15255 0.40863 0.0
C609 C 0.18409 0.16206 0.387 0.0
C610 C 0.13417 0.10873 0.398 0.0
C611 C 0.0828 0.12647 0.43087 0.0
N612 N 0.16734 0.14591 0.39056 0.0
N613 N 0.09996 0.14212 0.42762 0.0
H614 H 0.99411 0.11594 0.3436 0.0
H615 H 0.83804 0.18408 0.30608 0.0
H616 H 0.94513 0.06716 0.32338 0.0
H617 H 0.88263 0.22533 0.34975 0.0
H618 H 0.8784 0.14239 0.30523 0.0
H619 H 0.95512 0.1579 0.3373 0.0
C620 C 0.97531 0.11404 0.33734 0.0
C621 C 0.9729 0.08786 0.33429 0.0
C622 C 0.87925 0.16062 0.315 0.0
C623 C 0.92793 0.13599 0.32738 0.0
C624 C 0.85621 0.1844 0.31556 0.0
C625 C 0.85677 0.20826 0.32824 0.0
C626 C 0.90312 0.16084 0.32681 0.0
C627 C 0.88102 0.20744 0.34 0.0
C628 C 0.95295 0.13804 0.33399 0.0
C629 C 0.94792 0.08685 0.32616 0.0
N630 N 0.90314 0.18423 0.33891 0.0
N631 N 0.92635 0.11053 0.32319 0.0
H632 H 0.98477 0.97301 0.3569 0.0
H633 H 0.9394 0.83963 0.42542 0.0
H634 H 0.99055 0.93821 0.45313 0.0
H635 H 0.91483 0.88765 0.33845 0.0
H636 H 0.9634 0.87191 0.43332 0.0
H637 H 0.96447 0.93813 0.34718 0.0
C638 C 0.98202 0.95785 0.37593 0.0
C639 C 0.98942 0.9585 0.4059 0.0
C640 C 0.95282 0.87532 0.41247 0.0
C641 C 0.96599 0.91859 0.39494 0.0
C642 C 0.939 0.85695 0.40796 0.0
C643 C 0.92474 0.86101 0.38135 0.0
C644 C 0.95266 0.89787 0.39012 0.0
C645 C 0.92566 0.88347 0.35918 0.0
C646 C 0.97024 0.93806 0.3704 0.0
C647 C 0.98493 0.93861 0.42979 0.0
N648 N 0.93927 0.90108 0.36412 0.0
N649 N 0.97355 0.91943 0.42378 0.0
H650 H 0.10595 0.97156 0.32447 0.0
H651 H 0.23728 0.85648 0.39164 0.0
H652 H 0.12868 0.96533 0.4184 0.0
H653 H 0.21331 0.85591 0.29974 0.0
H654 H 0.19815 0.89771 0.40045 0.0
H655 H 0.14613 0.93097 0.31316 0.0
C656 C 0.11947 0.96186 0.34257 0.0
C657 C 0.11386 0.9718 0.37245 0.0
C658 C 0.20133 0.88858 0.37835 0.0
C659 C 0.15959 0.92543 0.35983 0.0
C660 C 0.22371 0.86491 0.37334 0.0
C661 C 0.22859 0.85253 0.34497 0.0
C662 C 0.18359 0.9002 0.35482 0.0
C663 C 0.21026 0.86461 0.32209 0.0
C664 C 0.14229 0.93862 0.33618 0.0
C665 C 0.13201 0.95834 0.39508 0.0
N666 N 0.1886 0.8878 0.32748 0.0
N667 N 0.15391 0.93593 0.38832 0.0
H668 H 0.13652 0.96331 0.70629 0.0
H669 H 0.21875 0.87115 0.84732 0.0
H670 H 0.10585 0.97573 0.80322 0.0
H671 H 0.23859 0.85606 0.74942 0.0
H672 H 0.17953 0.91148 0.83308 0.0
H673 H 0.17578 0.92621 0.72313 0.0
C674 C 0.13796 0.95827 0.73128 0.0
C675 C 0.11759 0.97279 0.75334 0.0
C676 C 0.1926 0.89937 0.8148 0.0
C677 C 0.16328 0.92959 0.77302 0.0
C678 C 0.21509 0.87647 0.82284 0.0
C679 C 0.23207 0.86014 0.79952 0.0
C680 C 0.18722 0.90606 0.78319 0.0
C681 C 0.22615 0.86788 0.76826 0.0
C682 C 0.16058 0.93689 0.74091 0.0
C683 C 0.12097 0.96506 0.78538 0.0
N684 N 0.20433 0.89014 0.76111 0.0
N685 N 0.14341 0.94393 0.79431 0.0
H686 H 0.13533 0.06699 0.7404 0.0
H687 H 0.16291 0.21323 0.7342 0.0
H688 H 0.09091 0.14096 0.68632 0.0
H689 H 0.21324 0.13665 0.77875 0.0
H690 H 0.1349 0.18775 0.71847 0.0
H691 H 0.16307 0.09266 0.75617 0.0
C692 C 0.13146 0.08866 0.73181 0.0
C693 C 0.11071 0.10189 0.71213 0.0
C694 C 0.15203 0.17655 0.73177 0.0
C695 C 0.14238 0.13149 0.73011 0.0
C696 C 0.16805 0.19107 0.74074 0.0
C697 C 0.19056 0.17706 0.75776 0.0
C698 C 0.15848 0.14779 0.7399 0.0
C699 C 0.19593 0.14841 0.76601 0.0
C700 C 0.14733 0.10329 0.74076 0.0
C701 C 0.10684 0.1299 0.7013 0.0
N702 N 0.18007 0.13473 0.75691 0.0
N703 N 0.12242 0.14383 0.71059 0.0
H704 H 0.98866 0.1051 0.79593 0.0
H705 H 0.8533 0.22335 0.74177 0.0
H706 H 0.95311 0.10765 0.71029 0.0
H707 H 0.88763 0.22345 0.82755 0.0
H708 H 0.89002 0.18062 0.73037 0.0
H709 H 0.9514 0.14753 0.80931 0.0
C710 C 0.97292 0.11435 0.78016 0.0
C711 C 0.97413 0.10284 0.75189 0.0
C712 C 0.8896 0.19003 0.75166 0.0
C713 C 0.93172 0.15141 0.76677 0.0
C714 C 0.86866 0.21459 0.75809 0.0
C715 C 0.86728 0.2272 0.78562 0.0
C716 C 0.90942 0.17781 0.77289 0.0
C717 C 0.8878 0.21459 0.80596 0.0
C718 C 0.95176 0.13865 0.78767 0.0
C719 C 0.95323 0.11583 0.73223 0.0
N720 N 0.90794 0.19062 0.79924 0.0
N721 N 0.93307 0.13934 0.73997 0.0
H722 H 1.00856 0.9551 0.6609 0.0
H723 H 0.87834 0.92335 0.76029 0.0
H724 H 0.9643 0.99835 0.74111 0.0
H725 H 0.92304 0.87958 0.68057 0.0
H726 H 0.90937 0.95136 0.75335 0.0
H727 H 0.97677 0.928 0.66693 0.0
C728 C 0.99208 0.95905 0.67965 0.0
C729 C 0.98923 0.97901 0.70059 0.0
C730 C 0.91237 0.93566 0.73734 0.0
C731 C 0.95285 0.94782 0.70785 0.0
C732 C 0.89474 0.91954 0.7414 0.0
C733 C 0.89804 0.89906 0.72097 0.0
C734 C 0.93354 0.93127 0.7127 0.0
C735 C 0.91945 0.89537 0.69663 0.0
C736 C 0.97401 0.94344 0.68321 0.0
C737 C 0.96763 0.98292 0.72471 0.0
N738 N 0.93637 0.91127 0.69321 0.0
N739 N 0.95031 0.96747 0.72768 0.0
H740 H 0.35165 0.08 0.24097 0.0
H741 H 0.33156 0.24243 0.23117 0.0
H742 H 0.33384 0.1325 0.15478 0.0
H743 H 0.30723 0.19576 0.31401 0.0
H744 H 0.34396 0.20061 0.2024 0.0
H745 H 0.34755 0.12082 0.26738 0.0
C746 C 0.34693 0.10003 0.22746 0.0
C747 C 0.34239 0.10274 0.19565 0.0
C748 C 0.33612 0.1996 0.22694 0.0
C749 C 0.33836 0.14961 0.22587 0.0
C750 C 0.3292 0.22331 0.24338 0.0
C751 C 0.31829 0.2225 0.27496 0.0
C752 C 0.33269 0.17488 0.24249 0.0
C753 C 0.31541 0.19731 0.28964 0.0
C754 C 0.34473 0.12332 0.24262 0.0
C755 C 0.33738 0.1293 0.1793 0.0
N756 N 0.32266 0.17449 0.27333 0.0
N757 N 0.3353 0.15179 0.19467 0.0
H758 H 0.96569 0.30853 0.14632 0.0
H759 H 0.85671 0.34012 0.29806 0.0
H760 H 0.9647 0.36681 0.21115 0.0
H761 H 0.85925 0.28259 0.23144 0.0
H762 H 0.8948 0.3519 0.26596 0.0
H763 H 0.92542 0.30049 0.17653 0.0
C764 C 0.95705 0.31961 0.16699 0.0
C765 C 0.96886 0.33817 0.17635 0.0
C766 C 0.88692 0.33678 0.25835 0.0
C767 C 0.9223 0.32918 0.21116 0.0
C768 C 0.86514 0.33005 0.27666 0.0
C769 C 0.85473 0.31024 0.26756 0.0
C770 C 0.8984 0.32361 0.23074 0.0
C771 C 0.86655 0.29791 0.23956 0.0
C772 C 0.9339 0.31511 0.1842 0.0
C773 C 0.95627 0.35241 0.20299 0.0
N774 N 0.88772 0.30473 0.22229 0.0
N775 N 0.93378 0.34749 0.21958 0.0
H776 H 0.78186 0.93155 0.10585 0.0
H777 H 0.83345 0.86171 0.27192 0.0
H778 H 0.85744 0.93149 0.13699 0.0
H779 H 0.76313 0.85262 0.23648 0.0
H780 H 0.83795 0.89413 0.22652 0.0
H781 H 0.77099 0.90842 0.15667 0.0
C782 C 0.7961 0.92682 0.12345 0.0
C783 C 0.82067 0.93335 0.1171 0.0
C784 C 0.82131 0.88533 0.22886 0.0
C785 C 0.80837 0.90683 0.17533 0.0
C786 C 0.8186 0.86693 0.25492 0.0
C787 C 0.7981 0.85408 0.2578 0.0
C788 C 0.80346 0.8909 0.20547 0.0
C789 C 0.77935 0.86186 0.23514 0.0
C790 C 0.7899 0.91357 0.15244 0.0
C791 C 0.8385 0.92645 0.14067 0.0
N792 N 0.78271 0.8795 0.20967 0.0
N793 N 0.83201 0.91352 0.16873 0.0
H794 H 0.14436 0.70212 0.05721 0.0
H795 H 0.17613 0.71358 0.23027 0.0
H796 H 0.09952 0.67829 0.14164 0.0
H797 H 0.2177 0.74202 0.14572 0.0
H798 H 0.15089 0.69626 0.19823 0.0
H799 H 0.17558 0.71095 0.08926 0.0
C800 C 0.14142 0.69828 0.0825 0.0
C801 C 0.11916 0.68978 0.0968 0.0
C802 C 0.16556 0.70624 0.18666 0.0
C803 C 0.1545 0.70014 0.13365 0.0
C804 C 0.17976 0.71643 0.20494 0.0
C805 C 0.19885 0.72956 0.19065 0.0
C806 C 0.17043 0.70919 0.1538 0.0
C807 C 0.20325 0.73196 0.15773 0.0
C808 C 0.15914 0.70342 0.10079 0.0
C809 C 0.11643 0.68475 0.12962 0.0
N810 N 0.18906 0.72197 0.14042 0.0
N811 N 0.13367 0.69038 0.14698 0.0
H812 H 0.39968 0.99269 0.99546 0.0
H813 H 0.35405 0.85726 1.00375 0.0
H814 H 0.40027 0.93592 0.07853 0.0
H815 H 0.36243 0.90867 0.91786 0.0
H816 H 0.37511 0.88341 0.03033 0.0
H817 H 0.39218 0.95909 0.96495 0.0
C818 C 0.39918 0.97276 1.0071 0.0
C819 C 0.40023 0.96721 0.0397 0.0
C820 C 0.37249 0.88888 1.00562 0.0
C821 C 0.39067 0.92905 1.00514 0.0
C822 C 0.36041 0.87396 0.99042 0.0
C823 C 0.35617 0.88091 0.95856 0.0
C824 C 0.38029 0.91107 0.98894 0.0
C825 C 0.36468 0.90295 0.94261 0.0
C826 C 0.39451 0.95369 0.98973 0.0
C827 C 0.39916 0.9411 0.05353 0.0
N828 N 0.37617 0.91733 0.958 0.0
N829 N 0.39391 0.92321 0.03633 0.0
H830 H 0.15317 0.3278 0.03409 0.0
H831 H 0.20828 0.29082 0.85749 0.0
H832 H 0.09851 0.33645 0.96392 0.0
H833 H 0.25771 0.30178 0.92478 0.0
H834 H 0.16761 0.30655 0.89524 0.0
H835 H 0.19182 0.31689 0.99369 0.0
C836 C 0.14934 0.32748 1.0101 0.0
C837 C 0.12263 0.33304 1.00238 0.0
C838 C 0.18741 0.30564 0.90151 0.0
C839 C 0.16683 0.32037 0.95577 0.0
C840 C 0.21061 0.29667 0.87999 0.0
C841 C 0.23657 0.29473 0.88795 0.0
C842 C 0.1903 0.3125 0.93118 0.0
C843 C 0.23828 0.30264 0.9175 0.0
C844 C 0.17138 0.32135 0.98696 0.0
C845 C 0.11877 0.33257 0.97081 0.0
N846 N 0.21561 0.31094 0.93796 0.0
N847 N 0.14067 0.3261 0.94867 0.0
H848 H 0.82632 0.10102 0.99144 0.0
H849 H 0.79899 0.19593 0.83182 0.0
H850 H 0.84956 0.0696 0.90016 0.0
H851 H 0.80668 0.23026 0.91551 0.0
H852 H 0.81274 0.14974 0.85886 0.0
H853 H 0.81595 0.14868 0.96616 0.0
C854 C 0.82956 0.1042 0.9661 0.0
C855 C 0.83869 0.08141 0.9478 0.0
C856 C 0.81144 0.16734 0.87137 0.0
C857 C 0.8265 0.13558 0.91889 0.0
C858 C 0.8033 0.19389 0.85604 0.0
C859 C 0.80165 0.2172 0.87137 0.0
C860 C 0.81771 0.16383 0.9025 0.0
C861 C 0.80763 0.21292 0.90278 0.0
C862 C 0.82368 0.13132 0.95176 0.0
C863 C 0.84276 0.08655 0.91513 0.0
N864 N 0.81535 0.18668 0.91741 0.0
N865 N 0.83627 0.1131 0.9017 0.0
H866 H 0.96765 0.68909 0.95526 0.0
H867 H 0.87099 0.80287 0.84038 0.0
H868 H 0.96976 0.7735 0.93623 0.0
H869 H 0.85813 0.72438 0.87502 0.0
H870 H 0.90946 0.79122 0.87202 0.0
H871 H 0.92979 0.70044 0.92276 0.0
C872 C 0.96025 0.70999 0.94411 0.0
C873 C 0.97199 0.73036 0.94844 0.0
C874 C 0.89824 0.77654 0.87268 0.0
C875 C 0.92845 0.74357 0.91121 0.0
C876 C 0.87631 0.78311 0.8545 0.0
C877 C 0.86123 0.76457 0.85499 0.0
C878 C 0.90537 0.75114 0.89136 0.0
C879 C 0.86909 0.73934 0.8739 0.0
C880 C 0.9385 0.71651 0.9257 0.0
C881 C 0.96121 0.75723 0.93378 0.0
N882 N 0.89062 0.73336 0.89126 0.0
N883 N 0.94014 0.76302 0.91572 0.0
H884 H 0.11995 0.27721 0.19033 0.0
H885 H 0.24517 0.32649 0.22336 0.0
H886 H 0.14416 0.34356 0.13522 0.0
H887 H 0.20563 0.28156 0.29523 0.0
H888 H 0.2117 0.32772 0.18802 0.0
H889 H 0.15477 0.27296 0.22607 0.0
C890 C 0.13275 0.29061 0.18552 0.0
C891 C 0.12903 0.31082 0.15973 0.0
C892 C 0.21026 0.31762 0.21154 0.0
C893 C 0.16885 0.30606 0.20039 0.0
C894 C 0.22942 0.31691 0.2318 0.0
C895 C 0.22822 0.3041 0.26253 0.0
C896 C 0.18975 0.30508 0.22169 0.0
C897 C 0.20724 0.29196 0.27191 0.0
C898 C 0.15246 0.28834 0.20604 0.0
C899 C 0.1461 0.32779 0.15484 0.0
N900 N 0.18895 0.29263 0.25157 0.0
N901 N 0.16517 0.32499 0.17481 0.0
H902 H 0.08741 0.76846 0.94652 0.0
H903 H 0.23542 0.79092 0.92866 0.0
H904 H 0.12024 0.79028 0.02276 0.0
H905 H 0.19907 0.7727 0.853 0.0
H906 H 0.19378 0.7913 0.96361 0.0
H907 H 0.12799 0.77113 0.91196 0.0
C908 C 0.10299 0.7741 0.95599 0.0
C909 C 0.10018 0.77919 0.98774 0.0
C910 C 0.19497 0.78725 0.93933 0.0
C911 C 0.14732 0.78192 0.94806 0.0
C912 C 0.21882 0.78695 0.91934 0.0
C913 C 0.22101 0.78173 0.88767 0.0
C914 C 0.17306 0.78225 0.92768 0.0
C915 C 0.19858 0.77683 0.87711 0.0
C916 C 0.12631 0.77552 0.9362 0.0
C917 C 0.12131 0.7863 0.99848 0.0
N918 N 0.17577 0.77718 0.89695 0.0
N919 N 0.14397 0.78729 0.97881 0.0
H920 H 0.30351 0.07934 1.01633 0.0
H921 H 0.33252 0.21682 0.93407 0.0
H922 H 0.30438 0.14598 0.06831 0.0
H923 H 0.28927 0.17593 0.88798 0.0
H924 H 0.32934 0.18601 0.98164 0.0
H925 H 0.30405 0.10993 0.96737 0.0
C926 C 0.30355 0.10042 1.01753 0.0
C927 C 0.30378 0.11007 0.04662 0.0
C928 C 0.3206 0.18371 0.9611 0.0
C929 C 0.30518 0.1448 0.99065 0.0
C930 C 0.32259 0.20117 0.93379 0.0
C931 C 0.3112 0.19899 0.90684 0.0
C932 C 0.30759 0.1634 0.96153 0.0
C933 C 0.29831 0.17839 0.90819 0.0
C934 C 0.30387 0.11782 0.98959 0.0
C935 C 0.30399 0.13759 0.0466 0.0
N936 N 0.29703 0.16125 0.93499 0.0
N937 N 0.30503 0.15377 1.01914 0.0
H938 H 1.0052 0.27581 0.0904 0.0
H939 H 0.96044 0.26594 0.92248 0.0
H940 H 0.06136 0.25863 1.00668 0.0
H941 H 0.9036 0.28361 1.0056 0.0
H942 H 0.99813 0.2583 0.9543 0.0
H943 H 0.96861 0.27359 0.06141 0.0
C944 C 1.01003 0.27102 0.06612 0.0
C945 C 0.03651 0.26754 0.051 0.0
C946 C 0.97743 0.26366 0.96567 0.0
C947 C 0.99441 0.26541 1.01741 0.0
C948 C 0.95581 0.26785 0.94748 0.0
C949 C 0.92857 0.27563 0.96118 0.0
C950 C 0.97199 0.26728 0.99795 0.0
C951 C 0.92411 0.27816 0.99376 0.0
C952 C 0.98902 0.26996 0.04948 0.0
C953 C 0.04132 0.26158 1.01938 0.0
N954 N 0.9455 0.27417 1.01091 0.0
N955 N 1.0205 0.26097 1.00365 0.0
H956 H 0.77678 0.98076 0.92374 0.0
H957 H 0.77043 0.82812 0.90691 0.0
H958 H 0.79554 0.91205 0.99498 0.0
H959 H 0.78089 0.88416 0.82589 0.0
H960 H 0.76879 0.86336 0.94087 0.0
H961 H 0.76762 0.9502 0.8893 0.0
C962 C 0.77818 0.95952 0.93241 0.0
C963 C 0.7867 0.94888 0.96226 0.0
C964 C 0.77125 0.86808 0.91566 0.0
C965 C 0.77656 0.91398 0.92324 0.0
C966 C 0.77217 0.84792 0.89613 0.0
C967 C 0.77612 0.85292 0.86332 0.0
C968 C 0.77421 0.8937 0.90255 0.0
C969 C 0.77798 0.87925 0.85101 0.0
C970 C 0.77328 0.94204 0.91269 0.0
C971 C 0.78888 0.92106 0.97217 0.0
N972 N 0.77718 0.8986 0.87063 0.0
N973 N 0.78387 0.90464 0.95278 0.0
H974 H 0.99666 0.77068 0.12465 0.0
H975 H 0.84778 0.76505 0.19856 0.0
H976 H 0.94009 0.7479 0.07729 0.0
H977 H 0.90539 0.77404 0.25669 0.0
H978 H 0.88087 0.76365 0.15322 0.0
H979 H 0.96314 0.77749 0.17187 0.0
C980 C 0.97702 0.76774 0.12393 0.0
C981 C 0.97113 0.75879 0.0969 0.0
C982 C 0.88652 0.76589 0.17578 0.0
C983 C 0.93299 0.76613 0.15074 0.0
C984 C 0.86747 0.7667 0.20196 0.0
C985 C 0.87362 0.76958 0.23187 0.0
C986 C 0.91232 0.76799 0.17893 0.0
C987 C 0.89973 0.77158 0.23423 0.0
C988 C 0.95805 0.7713 0.15097 0.0
C989 C 0.94558 0.75476 0.09751 0.0
N990 N 0.91813 0.77076 0.20812 0.0
N991 N 0.92766 0.7584 0.12379 0.0
H992 H 0.34264 0.95741 0.1464 0.0
H993 H 0.26299 0.85742 0.24006 0.0
H994 H 0.25544 0.98833 0.17074 0.0
H995 H 0.34189 0.85598 0.26253 0.0
H996 H 0.26104 0.89925 0.20367 0.0
H997 H 0.34369 0.91363 0.17762 0.0
C998 C 0.3236 0.95488 0.15783 0.0
C999 C 0.29887 0.97674 0.1559 0.0
C1000 C 0.27884 0.88955 0.21641 0.0
C1001 C 0.30006 0.92632 0.19156 0.0
C1002 C 0.28009 0.86561 0.23693 0.0
C1003 C 0.3027 0.85316 0.25424 0.0
C1004 C 0.3007 0.90061 0.21252 0.0
C1005 C 0.32409 0.86491 0.24966 0.0
C1006 C 0.3243 0.92991 0.17584 0.0
C1007 C 0.27495 0.97213 0.1716 0.0
N1008 N 0.32267 0.8878 0.22909 0.0
N1009 N 0.2761 0.9474 0.18868 0.0
H1010 H 0.79164 0.03779 0.12446 0.0
H1011 H 0.76932 0.19988 0.1232 0.0
H1012 H 0.76837 0.09525 0.04339 0.0
H1013 H 0.77642 0.14374 0.20762 0.0
H1014 H 0.76724 0.16271 0.09383 0.0
H1015 H 0.78339 0.07691 0.15581 0.0
C1016 C 0.78396 0.05879 0.11354 0.0
C1017 C 0.78027 0.06339 0.08149 0.0
C1018 C 0.7691 0.15859 0.11881 0.0
C1019 C 0.77195 0.1084 0.11684 0.0
C1020 C 0.77028 0.17984 0.13568 0.0
C1021 C 0.77323 0.17505 0.16807 0.0
C1022 C 0.77106 0.13219 0.13429 0.0
C1023 C 0.77474 0.14841 0.18266 0.0
C1024 C 0.77949 0.08114 0.13135 0.0
C1025 C 0.77091 0.09092 0.06822 0.0
N1026 N 0.77376 0.12806 0.16569 0.0
N1027 N 0.76746 0.11244 0.08586 0.0
H1028 H 0.58237 0.61241 0.86798 0.0
H1029 H 0.69129 0.66093 0.9414 0.0
H1030 H 0.60188 0.58975 0.9638 0.0
H1031 H 0.6618 0.69458 0.85121 0.0
H1032 H 0.66011 0.63321 0.94911 0.0
H1033 H 0.61305 0.64081 0.86034 0.0
C1034 C 0.59319 0.61331 0.88739 0.0
C1035 C 0.58957 0.59861 0.91657 0.0
C1036 C 0.6604 0.6467 0.92766 0.0
C1037 C 0.62466 0.63123 0.90803 0.0
C1038 C 0.67812 0.66269 0.92329 0.0
C1039 C 0.67915 0.6803 0.89564 0.0
C1040 C 0.64361 0.64811 0.90417 0.0
C1041 C 0.66199 0.68111 0.87273 0.0
C1042 C 0.61058 0.62967 0.88306 0.0
C1043 C 0.60382 0.60093 0.94102 0.0
N1044 N 0.64496 0.66525 0.8775 0.0
N1045 N 0.6208 0.61682 0.93616 0.0
H1046 H 0.44321 0.59794 0.92595 0.0
H1047 H 0.34669 0.68942 0.79668 0.0
H1048 H 0.46927 0.5905 0.82718 0.0
H1049 H 0.34557 0.71267 0.88966 0.0
H1050 H 0.3862 0.64783 0.80737 0.0
H1051 H 0.40196 0.63429 0.91279 0.0
C1052 C 0.44032 0.60385 0.90134 0.0
C1053 C 0.4601 0.59114 0.87764 0.0
C1054 C 0.37705 0.66197 0.82543 0.0
C1055 C 0.41213 0.63334 0.86236 0.0
C1056 C 0.35437 0.68545 0.81952 0.0
C1057 C 0.34277 0.70437 0.84245 0.0
C1058 C 0.38769 0.65726 0.85466 0.0
C1059 C 0.35383 0.69861 0.87137 0.0
C1060 C 0.4166 0.62478 0.89388 0.0
C1061 C 0.45472 0.59983 0.84623 0.0
N1062 N 0.37551 0.67564 0.87663 0.0
N1063 N 0.43121 0.62049 0.83944 0.0
H1064 H 0.47532 0.44738 0.97156 0.0
H1065 H 0.42408 0.37485 0.84804 0.0
H1066 H 0.49296 0.45908 0.87104 0.0
H1067 H 0.40635 0.3625 0.9485 0.0
H1068 H 0.44905 0.40628 0.8561 0.0
H1069 H 0.45005 0.41604 0.96382 0.0
C1070 C 0.47395 0.44332 0.94791 0.0
C1071 C 0.48614 0.45606 0.92195 0.0
C1072 C 0.43972 0.39667 0.8764 0.0
C1073 C 0.45717 0.42039 0.91285 0.0
C1074 C 0.42534 0.37884 0.87178 0.0
C1075 C 0.41321 0.36593 0.89762 0.0
C1076 C 0.44193 0.4017 0.90708 0.0
C1077 C 0.41577 0.37163 0.9279 0.0
C1078 C 0.45943 0.42554 0.94347 0.0
C1079 C 0.4835 0.45022 0.89176 0.0
N1080 N 0.42983 0.38908 0.93179 0.0
N1081 N 0.46933 0.43284 0.88807 0.0
H1082 H 0.59267 0.45944 0.83446 0.0
H1083 H 0.74663 0.37207 0.86949 0.0
H1084 H 0.63885 0.48094 0.89767 0.0
H1085 H 0.70007 0.3417 0.81496 0.0
H1086 H 0.70771 0.41367 0.87657 0.0
H1087 H 0.63244 0.41846 0.82243 0.0
C1088 C 0.6113 0.45587 0.84527 0.0
C1089 C 0.61245 0.47359 0.86713 0.0
C1090 C 0.70585 0.39793 0.86312 0.0
C1091 C 0.65767 0.42679 0.85392 0.0
C1092 C 0.72814 0.374 0.85914 0.0
C1093 C 0.72672 0.35312 0.84172 0.0
C1094 C 0.68171 0.40135 0.84952 0.0
C1095 C 0.70208 0.35709 0.82882 0.0
C1096 C 0.63386 0.43236 0.83869 0.0
C1097 C 0.63696 0.46778 0.88081 0.0
N1098 N 0.68057 0.38075 0.83291 0.0
N1099 N 0.65842 0.44497 0.87408 0.0
H1100 H 0.65493 0.48386 0.22266 0.0
H1101 H 0.72211 0.3679 0.35656 0.0
H1102 H 0.61147 0.47598 0.3142 0.0
H1103 H 0.74922 0.3665 0.25755 0.0
H1104 H 0.6854 0.41155 0.34506 0.0
H1105 H 0.6937 0.44557 0.2391 0.0
C1106 C 0.65353 0.47412 0.24638 0.0
C1107 C 0.62966 0.48295 0.26693 0.0
C1108 C 0.69955 0.4017 0.32599 0.0
C1109 C 0.67441 0.43857 0.28598 0.0
C1110 C 0.72056 0.37692 0.3325 0.0
C1111 C 0.73867 0.36346 0.30793 0.0
C1112 C 0.697 0.41319 0.29476 0.0
C1113 C 0.73564 0.37596 0.27721 0.0
C1114 C 0.67578 0.45215 0.25575 0.0
C1115 C 0.6294 0.46972 0.29755 0.0
N1116 N 0.71527 0.40002 0.27157 0.0
N1117 N 0.65142 0.44795 0.30613 0.0
H1118 H 0.59577 0.64456 0.17575 0.0
H1119 H 0.71699 0.66073 0.26114 0.0
H1120 H 0.63866 0.58315 0.24499 0.0
H1121 H 0.66899 0.72528 0.1984 0.0
H1122 H 0.68957 0.63132 0.25423 0.0
H1123 H 0.62412 0.67337 0.18153 0.0
C1124 C 0.61129 0.63701 0.19197 0.0
C1125 C 0.61473 0.61144 0.21001 0.0
C1126 C 0.68504 0.65193 0.24198 0.0
C1127 C 0.64711 0.64444 0.21703 0.0
C1128 C 0.70058 0.66882 0.24608 0.0
C1129 C 0.69535 0.69556 0.23032 0.0
C1130 C 0.66409 0.66179 0.22193 0.0
C1131 C 0.67407 0.70468 0.21068 0.0
C1132 C 0.62735 0.65357 0.19544 0.0
C1133 C 0.63499 0.6029 0.23096 0.0
N1134 N 0.65926 0.68785 0.20704 0.0
N1135 N 0.65038 0.61935 0.23391 0.0
H1136 H 0.50166 0.612 0.30958 0.0
H1137 H 0.36385 0.72646 0.25759 0.0
H1138 H 0.46084 0.61115 0.22907 0.0
H1139 H 0.39669 0.72979 0.3432 0.0
H1140 H 0.40199 0.68539 0.24622 0.0
H1141 H 0.46522 0.65519 0.32303 0.0
C1142 C 0.48495 0.62067 0.29499 0.0
C1143 C 0.48436 0.608 0.26808 0.0
C1144 C 0.40113 0.69502 0.26748 0.0
C1145 C 0.44313 0.65729 0.28295 0.0
C1146 C 0.37933 0.71864 0.27391 0.0
C1147 C 0.37701 0.73152 0.30144 0.0
C1148 C 0.42092 0.68374 0.28882 0.0
C1149 C 0.39783 0.72054 0.3216 0.0
C1150 C 0.46432 0.64537 0.30252 0.0
C1151 C 0.46237 0.6202 0.24988 0.0
N1152 N 0.41888 0.69704 0.31504 0.0
N1153 N 0.44284 0.64405 0.25758 0.0
H1154 H 0.52137 0.44994 0.19034 0.0
H1155 H 0.37498 0.4398 0.26609 0.0
H1156 H 0.46767 0.50831 0.25311 0.0
H1157 H 0.43689 0.37364 0.22011 0.0
H1158 H 0.40679 0.46723 0.25823 0.0
H1159 H 0.48876 0.42377 0.19755 0.0
C1160 C 0.50263 0.45737 0.20549 0.0
C1161 C 0.49727 0.48139 0.22113 0.0
C1162 C 0.4134 0.44668 0.24994 0.0
C1163 C 0.45978 0.45136 0.22966 0.0
C1164 C 0.39521 0.43109 0.25426 0.0
C1165 C 0.40333 0.40432 0.24388 0.0
C1166 C 0.43978 0.43555 0.2348 0.0
C1167 C 0.42988 0.394 0.2289 0.0
C1168 C 0.48408 0.4423 0.20978 0.0
C1169 C 0.47277 0.48977 0.24086 0.0
N1170 N 0.44708 0.40963 0.22475 0.0
N1171 N 0.45488 0.47484 0.24449 0.0
H1172 H 0.79556 0.6398 0.63493 0.0
H1173 H 0.85417 0.70906 0.75129 0.0
H1174 H 0.86185 0.58815 0.68727 0.0
H1175 H 0.76745 0.72499 0.75089 0.0
H1176 H 0.86267 0.67067 0.71777 0.0
H1177 H 0.79061 0.67807 0.66662 0.0
C1178 C 0.80944 0.63663 0.65269 0.0
C1179 C 0.8292 0.61069 0.65844 0.0
C1180 C 0.84185 0.68267 0.7251 0.0
C1181 C 0.82369 0.6546 0.69452 0.0
C1182 C 0.83698 0.70455 0.74403 0.0
C1183 C 0.81007 0.72009 0.75395 0.0
C1184 C 0.81964 0.67703 0.71521 0.0
C1185 C 0.7885 0.71338 0.74398 0.0
C1186 C 0.80642 0.65843 0.67088 0.0
C1187 C 0.84634 0.60779 0.6821 0.0
N1188 N 0.79374 0.69259 0.72487 0.0
N1189 N 0.84331 0.62955 0.69921 0.0
H1190 H 0.48216 0.80837 0.68545 0.0
H1191 H 0.36209 0.7403 0.74195 0.0
H1192 H 0.48947 0.72377 0.67205 0.0
H1193 H 0.36227 0.81795 0.77162 0.0
H1194 H 0.40677 0.73564 0.71217 0.0
H1195 H 0.43652 0.81391 0.71292 0.0
C1196 C 0.47417 0.79098 0.68807 0.0
C1197 C 0.4899 0.76552 0.67634 0.0
C1198 C 0.39699 0.75375 0.7251 0.0
C1199 C 0.43733 0.77176 0.70802 0.0
C1200 C 0.37135 0.75652 0.74201 0.0
C1201 C 0.3582 0.77961 0.75938 0.0
C1202 C 0.40967 0.77431 0.72522 0.0
C1203 C 0.3715 0.79978 0.75867 0.0
C1204 C 0.44809 0.79412 0.70397 0.0
C1205 C 0.47837 0.74367 0.68093 0.0
N1206 N 0.39637 0.79668 0.74191 0.0
N1207 N 0.45286 0.74731 0.69625 0.0
H1208 H 0.34852 0.37437 0.60199 0.0
H1209 H 0.30309 0.35829 0.78668 0.0
H1210 H 0.30426 0.44569 0.65292 0.0
H1211 H 0.32015 0.29278 0.72533 0.0
H1212 H 0.3082 0.39057 0.7403 0.0
H1213 H 0.34364 0.34398 0.64942 0.0
C1214 C 0.33794 0.38368 0.62322 0.0
C1215 C 0.32678 0.41268 0.62336 0.0
C1216 C 0.31071 0.36912 0.73715 0.0
C1217 C 0.32104 0.37781 0.67811 0.0
C1218 C 0.30786 0.35068 0.76359 0.0
C1219 C 0.31098 0.32275 0.76003 0.0
C1220 C 0.31727 0.3594 0.70703 0.0
C1221 C 0.31725 0.31411 0.72942 0.0
C1222 C 0.33498 0.36628 0.6503 0.0
C1223 C 0.31295 0.42345 0.65164 0.0
N1224 N 0.32031 0.33222 0.70433 0.0
N1225 N 0.31058 0.40605 0.6779 0.0
H1226 H 0.54165 0.2737 0.6326 0.0
H1227 H 0.68641 0.29538 0.63435 0.0
H1228 H 0.59249 0.28607 0.54824 0.0
H1229 H 0.62957 0.29503 0.71708 0.0
H1230 H 0.65062 0.2972 0.60189 0.0
H1231 H 0.57111 0.28708 0.66323 0.0
C1232 C 0.55851 0.28026 0.62045 0.0
C1233 C 0.56435 0.27944 0.58786 0.0
C1234 C 0.64588 0.29705 0.62712 0.0
C1235 C 0.59908 0.29339 0.62282 0.0
C1236 C 0.66632 0.29616 0.64575 0.0
C1237 C 0.66125 0.2947 0.67869 0.0
C1238 C 0.62011 0.29634 0.64143 0.0
C1239 C 0.63476 0.29545 0.6919 0.0
C1240 C 0.57553 0.2876 0.63794 0.0
C1241 C 0.58697 0.28714 0.57328 0.0
N1242 N 0.61537 0.29592 0.67332 0.0
N1243 N 0.60376 0.29342 0.5909 0.0
H1244 H 0.84948 0.45396 0.60671 0.0
H1245 H 0.83545 0.42005 0.43409 0.0
H1246 H 0.84565 0.51268 0.52478 0.0
H1247 H 0.8369 0.3624 0.51666 0.0
H1248 H 0.84202 0.45325 0.46625 0.0
H1249 H 0.84916 0.41874 0.57327 0.0
C1250 C 0.84914 0.45934 0.58163 0.0
C1251 C 0.84751 0.48645 0.56865 0.0
C1252 C 0.841 0.43328 0.47731 0.0
C1253 C 0.84661 0.44622 0.53016 0.0
C1254 C 0.83704 0.41437 0.45897 0.0
C1255 C 0.83562 0.38828 0.47256 0.0
C1256 C 0.84348 0.42619 0.50961 0.0
C1257 C 0.83824 0.38203 0.50494 0.0
C1258 C 0.84871 0.43924 0.56254 0.0
C1259 C 0.84684 0.49213 0.53594 0.0
N1260 N 0.84196 0.40081 0.52228 0.0
N1261 N 0.84617 0.47232 0.51793 0.0
H1262 H 0.66857 0.7886 0.5329 0.0
H1263 H 0.72889 0.75501 0.35572 0.0
H1264 H 0.63957 0.74179 0.47659 0.0
H1265 H 0.76108 0.80096 0.40964 0.0
H1266 H 0.69582 0.75092 0.40013 0.0
H1267 H 0.70211 0.79415 0.48878 0.0
C1268 C 0.66913 0.7795 0.51137 0.0
C1269 C 0.65104 0.76458 0.5088 0.0
C1270 C 0.71001 0.76199 0.40236 0.0
C1271 C 0.68965 0.77085 0.458 0.0
C1272 C 0.72898 0.76444 0.37684 0.0
C1273 C 0.74793 0.77849 0.37866 0.0
C1274 C 0.70969 0.77363 0.43031 0.0
C1275 C 0.74688 0.79003 0.40698 0.0
C1276 C 0.68841 0.78262 0.48617 0.0
C1277 C 0.65314 0.75309 0.4802 0.0
N1278 N 0.72813 0.78734 0.43165 0.0
N1279 N 0.67193 0.75651 0.45612 0.0
H1280 H 0.28209 0.59197 0.45869 0.0
H1281 H 0.3446 0.7179 0.40695 0.0
H1282 H 0.36207 0.58948 0.47879 0.0
H1283 H 0.26722 0.71734 0.38149 0.0
H1284 H 0.35023 0.67223 0.43607 0.0
H1285 H 0.2753 0.6389 0.433 0.0
C1286 C 0.29821 0.60126 0.45794 0.0
C1287 C 0.32275 0.58647 0.47105 0.0
C1288 C 0.33195 0.68217 0.42426 0.0
C1289 C 0.3151 0.64058 0.44123 0.0
C1290 C 0.32863 0.70838 0.40773 0.0
C1291 C 0.30535 0.72168 0.39169 0.0
C1292 C 0.31183 0.66903 0.42491 0.0
C1293 C 0.28551 0.70803 0.39343 0.0
C1294 C 0.29435 0.62812 0.44306 0.0
C1295 C 0.34296 0.59974 0.46877 0.0
N1296 N 0.28923 0.68255 0.40961 0.0
N1297 N 0.33868 0.62593 0.45423 0.0
H1298 H 0.46152 0.29531 0.45997 0.0
H1299 H 0.34858 0.24051 0.40182 0.0
H1300 H 0.45206 0.21434 0.48763 0.0
H1301 H 0.36481 0.31576 0.35994 0.0
H1302 H 0.38457 0.23276 0.43608 0.0
H1303 H 0.42423 0.30551 0.42596 0.0
C1304 C 0.45158 0.27977 0.45906 0.0
C1305 C 0.46011 0.25388 0.47668 0.0
C1306 C 0.38033 0.25099 0.41939 0.0
C1307 C 0.41746 0.26539 0.43794 0.0
C1308 C 0.35969 0.25544 0.39975 0.0
C1309 C 0.35357 0.27878 0.37775 0.0
C1310 C 0.39507 0.27007 0.41737 0.0
C1311 C 0.36882 0.29738 0.37639 0.0
C1312 C 0.43038 0.28555 0.43957 0.0
C1313 C 0.44645 0.23453 0.47444 0.0
N1314 N 0.38878 0.29266 0.39591 0.0
N1315 N 0.42596 0.24067 0.45559 0.0
H1316 H 0.5907 0.80355 0.7251 0.0
H1317 H 0.74151 0.81599 0.71516 0.0
H1318 H 0.6384 0.81663 0.63797 0.0
H1319 H 0.69473 0.80085 0.80228 0.0
H1320 H 0.70244 0.82036 0.68691 0.0
H1321 H 0.62687 0.80665 0.75394 0.0
C1322 C 0.60865 0.80734 0.71199 0.0
C1323 C 0.61152 0.80967 0.67899 0.0
C1324 C 0.70062 0.81628 0.71223 0.0
C1325 C 0.65321 0.81308 0.71202 0.0
C1326 C 0.72296 0.81381 0.72844 0.0
C1327 C 0.72155 0.80791 0.76123 0.0
C1328 C 0.67659 0.81276 0.72881 0.0
C1329 C 0.69686 0.80537 0.77704 0.0
C1330 C 0.62935 0.80905 0.72852 0.0
C1331 C 0.63528 0.81461 0.66337 0.0
N1332 N 0.67546 0.80764 0.76068 0.0
N1333 N 0.65524 0.81597 0.68 0.0
H1334 H 0.62961 0.24443 0.5008 0.0
H1335 H 0.71793 0.25261 0.33653 0.0
H1336 H 0.62079 0.20722 0.42006 0.0
H1337 H 0.74671 0.26065 0.42307 0.0
H1338 H 0.68032 0.23902 0.36666 0.0
H1339 H 0.67067 0.25364 0.47284 0.0
C1340 C 0.63634 0.23815 0.47724 0.0
C1341 C 0.6217 0.22509 0.46271 0.0
C1342 C 0.69492 0.24358 0.37913 0.0
C1343 C 0.66849 0.23568 0.4306 0.0
C1344 C 0.71636 0.25146 0.36194 0.0
C1345 C 0.73546 0.25786 0.37731 0.0
C1346 C 0.69213 0.24252 0.41204 0.0
C1347 C 0.73248 0.2558 0.4103 0.0
C1348 C 0.65984 0.24325 0.4614 0.0
C1349 C 0.63152 0.21712 0.43226 0.0
N1350 N 0.71101 0.2486 0.4266 0.0
N1351 N 0.65409 0.22279 0.41714 0.0
H1352 H 0.83338 0.61202 0.49314 0.0
H1353 H 0.78263 0.6975 0.33313 0.0
H1354 H 0.75165 0.62868 0.46749 0.0
H1355 H 0.85751 0.69264 0.36973 0.0
H1356 H 0.77523 0.663 0.37541 0.0
H1357 H 0.84603 0.63249 0.44204 0.0
C1358 C 0.81809 0.61958 0.47669 0.0
C1359 C 0.79126 0.61862 0.48491 0.0
C1360 C 0.7936 0.669 0.37371 0.0
C1361 C 0.80574 0.64281 0.426 0.0
C1362 C 0.79803 0.68839 0.34935 0.0
C1363 C 0.82067 0.69798 0.3481 0.0
C1364 C 0.81205 0.65911 0.39669 0.0
C1365 C 0.83973 0.68589 0.37001 0.0
C1366 C 0.82537 0.63148 0.44741 0.0
C1367 C 0.77241 0.62934 0.46243 0.0
N1368 N 0.83483 0.66733 0.3936 0.0
N1369 N 0.77994 0.6412 0.43404 0.0
H1370 H 0.54547 0.84245 0.49321 0.0
H1371 H 0.39501 0.83005 0.50396 0.0
H1372 H 0.49469 0.83758 0.58029 0.0
H1373 H 0.4446 0.83692 0.41646 0.0
H1374 H 0.42985 0.83687 0.53196 0.0
H1375 H 0.50697 0.84587 0.46436 0.0
C1376 C 0.52609 0.84268 0.5063 0.0
C1377 C 0.52348 0.83932 0.53927 0.0
C1378 C 0.4331 0.837 0.50662 0.0
C1379 C 0.47944 0.84272 0.50633 0.0
C1380 C 0.41317 0.83313 0.49059 0.0
C1381 C 0.4169 0.83277 0.45778 0.0
C1382 C 0.45705 0.84047 0.48979 0.0
C1383 C 0.44104 0.83655 0.44179 0.0
C1384 C 0.50415 0.84443 0.48978 0.0
C1385 C 0.49779 0.83985 0.5549 0.0
N1386 N 0.46022 0.84016 0.45795 0.0
N1387 N 0.47691 0.8411 0.5383 0.0
H1388 H 0.29218 0.48565 0.41319 0.0
H1389 H 0.25438 0.346 0.4146 0.0
H1390 H 0.25973 0.44623 0.49682 0.0
H1391 H 0.27639 0.39199 0.32976 0.0
H1392 H 0.25241 0.38433 0.44456 0.0
H1393 H 0.28271 0.45379 0.38185 0.0
C1394 C 0.28273 0.4705 0.42495 0.0
C1395 C 0.27696 0.46849 0.45776 0.0
C1396 C 0.25733 0.3862 0.41934 0.0
C1397 C 0.26636 0.43156 0.42192 0.0
C1398 C 0.25845 0.3643 0.40216 0.0
C1399 C 0.26578 0.36559 0.36957 0.0
C1400 C 0.26383 0.40955 0.40393 0.0
C1401 C 0.27072 0.38995 0.35482 0.0
C1402 C 0.27733 0.45228 0.407 0.0
C1403 C 0.26457 0.44853 0.47163 0.0
N1404 N 0.26997 0.41077 0.37214 0.0
N1405 N 0.26002 0.43061 0.45369 0.0
H1406 H 0.48068 0.25234 0.64889 0.0
H1407 H 0.37016 0.19671 0.76047 0.0
H1408 H 0.46561 0.17614 0.63647 0.0
H1409 H 0.3975 0.26361 0.78089 0.0
H1410 H 0.40536 0.18788 0.71576 0.0
H1411 H 0.4502 0.25643 0.69755 0.0
C1412 C 0.47089 0.23648 0.65638 0.0
C1413 C 0.47555 0.21397 0.63843 0.0
C1414 C 0.40381 0.20428 0.73026 0.0
C1415 C 0.44061 0.21841 0.69438 0.0
C1416 C 0.38376 0.2093 0.75587 0.0
C1417 C 0.38071 0.23104 0.77449 0.0
C1418 C 0.42079 0.22127 0.72303 0.0
C1419 C 0.39894 0.24668 0.76726 0.0
C1420 C 0.45363 0.2387 0.68432 0.0
C1421 C 0.4627 0.19375 0.64965 0.0
N1422 N 0.41796 0.24166 0.742 0.0
N1423 N 0.44563 0.19657 0.67676 0.0
H1424 H 0.76473 0.47775 0.63925 0.0
H1425 H 0.81938 0.37512 0.78875 0.0
H1426 H 0.78028 0.50578 0.72305 0.0
H1427 H 0.77764 0.35352 0.72053 0.0
H1428 H 0.81135 0.42152 0.76088 0.0
H1429 H 0.77433 0.4305 0.66546 0.0
C1430 C 0.76988 0.47396 0.66326 0.0
C1431 C 0.77145 0.49571 0.6791 0.0
C1432 C 0.80411 0.40653 0.75196 0.0
C1433 C 0.783 0.44184 0.70894 0.0
C1434 C 0.80894 0.37997 0.76764 0.0
C1435 C 0.79911 0.36046 0.75697 0.0
C1436 C 0.78966 0.41347 0.72524 0.0
C1437 C 0.78544 0.36799 0.72967 0.0
C1438 C 0.77541 0.44707 0.67816 0.0
C1439 C 0.77834 0.48975 0.71016 0.0
N1440 N 0.78111 0.3939 0.71474 0.0
N1441 N 0.78407 0.46333 0.72399 0.0
H1442 H 0.29571 0.52514 0.64684 0.0
H1443 H 0.23888 0.68902 0.64677 0.0
H1444 H 0.24862 0.57749 0.57449 0.0
H1445 H 0.27068 0.6342 0.72704 0.0
H1446 H 0.23912 0.64873 0.62134 0.0
H1447 H 0.28282 0.56455 0.67861 0.0
C1448 C 0.28209 0.54489 0.63802 0.0
C1449 C 0.27327 0.54825 0.60808 0.0
C1450 C 0.2458 0.64556 0.64464 0.0
C1451 C 0.25913 0.59366 0.64374 0.0
C1452 C 0.24568 0.66856 0.65919 0.0
C1453 C 0.25509 0.66498 0.68897 0.0
C1454 C 0.25556 0.61878 0.65987 0.0
C1455 C 0.26388 0.63792 0.70377 0.0
C1456 C 0.27482 0.56742 0.65607 0.0
C1457 C 0.2557 0.57415 0.5976 0.0
N1458 N 0.2641 0.61588 0.68897 0.0
N1459 N 0.24961 0.59611 0.6152 0.0
loop_
_geom_bond_atom_site_label_1
_geom_bond_atom_site_label_2
_geom_bond_distance
_geom_bond_site_symmetry_2
_ccdc_geom_bond_type
Cu0 N1 1.999 . S
Cu0 O6 1.974 1_545 S
Cu0 N11 1.985 1_545 S
Cu0 O20 1.959 1_455 S
N1 Cu0 1.999 . S
N1 C3 1.263 . S
N1 C5 1.389 . S
N2 C3 1.358 . S
N2 C4 1.400 . S
C3 N1 1.263 . S
C3 N2 1.358 . S
C3 H9 0.930 . S
C4 N2 1.400 . S
C4 C5 1.351 . S
C4 H21 0.930 . S
C5 N1 1.389 . S
C5 C4 1.351 . S
C5 H10 0.930 . S
O6 Cu0 1.974 1_565 S
O6 C16 1.282 . S
C7 O8 1.261 1_655 S
C7 O20 1.251 . S
O8 C7 1.261 1_455 S
H9 C3 0.930 . S
H10 C5 0.930 . S
N11 Cu0 1.985 1_565 S
N11 C13 1.335 1_455 S
N11 C14 1.390 . S
N12 C13 1.345 . S
N12 C15 1.336 1_655 S
C13 N11 1.335 1_655 S
C13 N12 1.345 . S
C13 H18 0.930 1_565 S
C14 N11 1.390 . S
C14 C15 1.346 . S
C14 H19 0.930 . S
C15 N12 1.336 1_455 S
C15 C14 1.346 . S
C15 H22 0.929 . S
C16 O6 1.282 . S
C16 O17 1.216 . S
O17 C16 1.216 . S
H18 C13 0.930 1_545 S
H19 C14 0.930 . S
O20 Cu0 1.959 1_655 S
O20 C7 1.251 . S
H21 C4 0.930 . S
H22 C15 0.929 . S
Cu23 N24 1.999 . S
Cu23 O29 1.974 1_455 S
Cu23 N34 1.985 . S
Cu23 O43 1.959 . S
N24 Cu23 1.999 . S
N24 C26 1.263 1_455 S
N24 C28 1.389 1_545 S
N25 C26 1.351 1_565 S
N25 C27 1.404 . S
C26 N24 1.263 1_655 S
C26 N25 1.351 1_545 S
C26 H32 0.930 . S
C27 N25 1.404 . S
C27 C28 1.351 1_655 S
C27 H44 0.930 . S
C28 N24 1.389 1_565 S
C28 C27 1.351 1_455 S
C28 H33 0.930 . S
O29 Cu23 1.974 1_655 S
O29 C39 1.282 . S
C30 O31 1.261 . S
C30 O43 1.251 . S
O31 C30 1.261 . S
H32 C26 0.930 . S
H33 C28 0.930 . S
N34 Cu23 1.985 . S
N34 C36 1.335 . S
N34 C37 1.390 . S
N35 C36 1.345 . S
N35 C38 1.336 . S
C36 N34 1.335 . S
C36 N35 1.345 . S
C36 H41 0.930 . S
C37 N34 1.390 . S
C37 C38 1.346 . S
C37 H42 0.930 . S
C38 N35 1.336 . S
C38 C37 1.346 . S
C38 H45 0.929 . S
C39 O29 1.282 . S
C39 O40 1.216 . S
O40 C39 1.216 . S
H41 C36 0.930 . S
H42 C37 0.930 . S
O43 Cu23 1.959 . S
O43 C30 1.251 . S
H44 C27 0.930 . S
H45 C38 0.929 . S
Cu46 N47 1.999 . S
Cu46 O52 1.974 . S
Cu46 N57 1.985 . S
Cu46 O66 1.959 . S
N47 Cu46 1.999 . S
N47 C49 1.263 . S
N47 C51 1.389 . S
N48 C49 1.358 . S
N48 C50 1.400 . S
C49 N47 1.263 . S
C49 N48 1.358 . S
C49 H55 0.930 . S
C50 N48 1.400 . S
C50 C51 1.351 . S
C50 H67 0.930 1_554 S
C51 N47 1.389 . S
C51 C50 1.351 . S
C51 H56 0.930 . S
O52 Cu46 1.974 . S
O52 C62 1.282 . S
C53 O54 1.261 . S
C53 O66 1.251 . S
O54 C53 1.261 . S
H55 C49 0.930 . S
H56 C51 0.930 . S
N57 Cu46 1.985 . S
N57 C59 1.335 . S
N57 C60 1.390 . S
N58 C59 1.345 . S
N58 C61 1.336 . S
C59 N57 1.335 . S
C59 N58 1.345 . S
C59 H64 0.930 . S
C60 N57 1.390 . S
C60 C61 1.346 . S
C60 H65 0.930 . S
C61 N58 1.336 . S
C61 C60 1.346 . S
C61 H68 0.929 . S
C62 O52 1.282 . S
C62 O63 1.216 . S
O63 C62 1.216 . S
H64 C59 0.930 . S
H65 C60 0.930 . S
O66 Cu46 1.959 . S
O66 C53 1.251 . S
H67 C50 0.930 1_556 S
H68 C61 0.929 . S
Cu69 N70 1.999 . S
Cu69 O75 1.974 . S
Cu69 N80 1.985 . S
Cu69 O89 1.959 . S
N70 Cu69 1.999 . S
N70 C72 1.263 . S
N70 C74 1.389 . S
N71 C72 1.358 . S
N71 C73 1.400 1_554 S
C72 N70 1.263 . S
C72 N71 1.358 . S
C72 H78 0.930 . S
C73 N71 1.400 1_556 S
C73 C74 1.351 1_556 S
C73 H90 0.930 . S
C74 N70 1.389 . S
C74 C73 1.351 1_554 S
C74 H79 0.930 . S
O75 Cu69 1.974 . S
O75 C85 1.282 . S
C76 O77 1.261 . S
C76 O89 1.251 . S
O77 C76 1.261 . S
H78 C72 0.930 . S
H79 C74 0.930 . S
N80 Cu69 1.985 . S
N80 C82 1.335 1_455 S
N80 C83 1.390 . S
N81 C82 1.345 . S
N81 C84 1.336 1_655 S
C82 N80 1.335 1_655 S
C82 N81 1.345 . S
C82 H87 0.930 . S
C83 N80 1.390 . S
C83 C84 1.346 . S
C83 H88 0.930 . S
C84 N81 1.336 1_455 S
C84 C83 1.346 . S
C84 H91 0.929 . S
C85 O75 1.282 . S
C85 O86 1.216 . S
O86 C85 1.216 . S
H87 C82 0.930 . S
H88 C83 0.930 . S
O89 Cu69 1.959 . S
O89 C76 1.251 . S
H90 C73 0.930 . S
H91 C84 0.929 . S
Cu92 N93 1.999 1_554 S
Cu92 O98 1.974 . S
Cu92 N103 1.985 1_545 S
Cu92 O112 1.959 1_544 S
N93 Cu92 1.999 1_556 S
N93 C95 1.263 . S
N93 C97 1.389 . S
N94 C95 1.358 . S
N94 C96 1.400 . S
C95 N93 1.263 . S
C95 N94 1.358 . S
C95 H101 0.930 . S
C96 N94 1.400 . S
C96 C97 1.351 . S
C96 H113 0.930 . S
C97 N93 1.389 . S
C97 C96 1.351 . S
C97 H102 0.930 . S
O98 Cu92 1.974 . S
O98 C108 1.282 . S
C99 O100 1.261 . S
C99 O112 1.251 . S
O100 C99 1.261 . S
H101 C95 0.930 . S
H102 C97 0.930 . S
N103 Cu92 1.985 1_565 S
N103 C105 1.335 . S
N103 C106 1.390 . S
N104 C105 1.345 . S
N104 C107 1.336 . S
C105 N103 1.335 . S
C105 N104 1.345 . S
C105 H110 0.930 . S
C106 N103 1.390 . S
C106 C107 1.346 . S
C106 H111 0.930 . S
C107 N104 1.336 . S
C107 C106 1.346 . S
C107 H114 0.929 . S
C108 O98 1.282 . S
C108 O109 1.216 . S
O109 C108 1.216 . S
H110 C105 0.930 . S
H111 C106 0.930 . S
O112 Cu92 1.959 1_566 S
O112 C99 1.251 . S
H113 C96 0.930 . S
H114 C107 0.929 . S
Cu115 N116 1.999 1_454 S
Cu115 O121 1.974 1_455 S
Cu115 N126 1.985 . S
Cu115 O135 1.959 1_554 S
N116 Cu115 1.999 1_656 S
N116 C118 1.263 . S
N116 C120 1.389 . S
N117 C118 1.358 . S
N117 C119 1.400 . S
C118 N116 1.263 . S
C118 N117 1.358 . S
C118 H124 0.930 . S
C119 N117 1.400 . S
C119 C120 1.351 . S
C119 H136 0.930 . S
C120 N116 1.389 . S
C120 C119 1.351 . S
C120 H125 0.930 1_655 S
O121 Cu115 1.974 1_655 S
O121 C131 1.282 . S
C122 O123 1.261 . S
C122 O135 1.251 . S
O123 C122 1.261 . S
H124 C118 0.930 . S
H125 C120 0.930 1_455 S
N126 Cu115 1.985 . S
N126 C128 1.335 . S
N126 C129 1.390 . S
N127 C128 1.345 . S
N127 C130 1.336 . S
C128 N126 1.335 . S
C128 N127 1.345 . S
C128 H133 0.930 . S
C129 N126 1.390 . S
C129 C130 1.346 . S
C129 H134 0.930 . S
C130 N127 1.336 . S
C130 C129 1.346 . S
C130 H137 0.929 . S
C131 O121 1.282 . S
C131 O132 1.216 . S
O132 C131 1.216 . S
H133 C128 0.930 . S
H134 C129 0.930 . S
O135 Cu115 1.959 1_556 S
O135 C122 1.251 . S
H136 C119 0.930 . S
H137 C130 0.929 . S
Cu138 N139 1.999 . S
Cu138 O144 1.974 . S
Cu138 N149 1.985 . S
Cu138 O158 1.959 . S
N139 Cu138 1.999 . S
N139 C141 1.263 . S
N139 C143 1.389 . S
N140 C141 1.358 . S
N140 C142 1.400 . S
C141 N139 1.263 . S
C141 N140 1.358 . S
C141 H147 0.930 . S
C142 N140 1.400 . S
C142 C143 1.351 . S
C142 H159 0.930 . S
C143 N139 1.389 . S
C143 C142 1.351 . S
C143 H148 0.930 . S
O144 Cu138 1.974 . S
O144 C154 1.282 . S
C145 O146 1.261 . S
C145 O158 1.251 . S
O146 C145 1.261 . S
H147 C141 0.930 . S
H148 C143 0.930 . S
N149 Cu138 1.985 . S
N149 C151 1.335 . S
N149 C152 1.390 . S
N150 C151 1.345 . S
N150 C153 1.336 . S
C151 N149 1.335 . S
C151 N150 1.345 . S
C151 H156 0.930 . S
C152 N149 1.390 . S
C152 C153 1.346 . S
C152 H157 0.930 . S
C153 N150 1.336 . S
C153 C152 1.346 . S
C153 H160 0.929 . S
C154 O144 1.282 . S
C154 O155 1.216 . S
O155 C154 1.216 . S
H156 C151 0.930 . S
H157 C152 0.930 . S
O158 Cu138 1.959 . S
O158 C145 1.251 . S
H159 C142 0.930 . S
H160 C153 0.929 . S
Cu161 N162 1.999 . S
Cu161 O167 1.974 . S
Cu161 N172 1.985 . S
Cu161 O181 1.959 . S
N162 Cu161 1.999 . S
N162 C164 1.263 . S
N162 C166 1.389 . S
N163 C164 1.358 . S
N163 C165 1.400 . S
C164 N162 1.263 . S
C164 N163 1.358 . S
C164 H170 0.930 . S
C165 N163 1.400 . S
C165 C166 1.351 . S
C165 H182 0.930 . S
C166 N162 1.389 . S
C166 C165 1.351 . S
C166 H171 0.930 . S
O167 Cu161 1.974 . S
O167 C177 1.282 . S
C168 O169 1.261 . S
C168 O181 1.251 . S
O169 C168 1.261 . S
H170 C164 0.930 . S
H171 C166 0.930 . S
N172 Cu161 1.985 . S
N172 C174 1.335 . S
N172 C175 1.390 . S
N173 C174 1.345 . S
N173 C176 1.336 . S
C174 N172 1.335 . S
C174 N173 1.345 . S
C174 H179 0.930 . S
C175 N172 1.390 . S
C175 C176 1.346 . S
C175 H180 0.930 . S
C176 N173 1.336 . S
C176 C175 1.346 . S
C176 H183 0.929 . S
C177 O167 1.282 . S
C177 O178 1.216 . S
O178 C177 1.216 . S
H179 C174 0.930 . S
H180 C175 0.930 . S
O181 Cu161 1.959 . S
O181 C168 1.251 . S
H182 C165 0.930 . S
H183 C176 0.929 . S
Cu184 N185 1.999 . S
Cu184 O190 1.974 . S
Cu184 N195 1.985 . S
Cu184 O204 1.959 . S
N185 Cu184 1.999 . S
N185 C187 1.263 . S
N185 C189 1.389 . S
N186 C187 1.358 . S
N186 C188 1.400 . S
C187 N185 1.263 . S
C187 N186 1.358 . S
C187 H193 0.930 . S
C188 N186 1.400 . S
C188 C189 1.351 . S
C188 H205 0.930 . S
C189 N185 1.389 . S
C189 C188 1.351 . S
C189 H194 0.930 . S
O190 Cu184 1.974 . S
O190 C200 1.282 . S
C191 O192 1.261 . S
C191 O204 1.251 . S
O192 C191 1.261 . S
H193 C187 0.930 . S
H194 C189 0.930 . S
N195 Cu184 1.985 . S
N195 C197 1.335 . S
N195 C198 1.390 . S
N196 C197 1.345 . S
N196 C199 1.336 . S
C197 N195 1.335 . S
C197 N196 1.345 . S
C197 H202 0.930 . S
C198 N195 1.390 . S
C198 C199 1.346 . S
C198 H203 0.930 . S
C199 N196 1.336 . S
C199 C198 1.346 . S
C199 H206 0.929 . S
C200 O190 1.282 . S
C200 O201 1.216 . S
O201 C200 1.216 . S
H202 C197 0.930 . S
H203 C198 0.930 . S
O204 Cu184 1.959 . S
O204 C191 1.251 . S
H205 C188 0.930 . S
H206 C199 0.929 . S
Cu207 N208 1.999 . S
Cu207 O213 1.974 . S
Cu207 N218 1.985 . S
Cu207 O227 1.959 . S
N208 Cu207 1.999 . S
N208 C210 1.263 . S
N208 C212 1.389 . S
N209 C210 1.358 . S
N209 C211 1.400 . S
C210 N208 1.263 . S
C210 N209 1.358 . S
C210 H216 0.930 . S
C211 N209 1.400 . S
C211 C212 1.351 . S
C211 H228 0.930 . S
C212 N208 1.389 . S
C212 C211 1.351 . S
C212 H217 0.930 . S
O213 Cu207 1.974 . S
O213 C223 1.282 . S
C214 O215 1.261 . S
C214 O227 1.251 . S
O215 C214 1.261 . S
H216 C210 0.930 . S
H217 C212 0.930 . S
N218 Cu207 1.985 . S
N218 C220 1.335 . S
N218 C221 1.390 . S
N219 C220 1.345 . S
N219 C222 1.336 . S
C220 N218 1.335 . S
C220 N219 1.345 . S
C220 H225 0.930 . S
C221 N218 1.390 . S
C221 C222 1.346 . S
C221 H226 0.930 . S
C222 N219 1.336 . S
C222 C221 1.346 . S
C222 H229 0.929 . S
C223 O213 1.282 . S
C223 O224 1.216 . S
O224 C223 1.216 . S
H225 C220 0.930 . S
H226 C221 0.930 . S
O227 Cu207 1.959 . S
O227 C214 1.251 . S
H228 C211 0.930 . S
H229 C222 0.929 . S
Cu230 N231 1.999 . S
Cu230 O236 1.974 . S
Cu230 N241 1.985 . S
Cu230 O250 1.959 . S
N231 Cu230 1.999 . S
N231 C233 1.263 . S
N231 C235 1.389 . S
N232 C233 1.358 . S
N232 C234 1.400 . S
C233 N231 1.263 . S
C233 N232 1.358 . S
C233 H239 0.930 . S
C234 N232 1.400 . S
C234 C235 1.351 . S
C234 H251 0.930 . S
C235 N231 1.389 . S
C235 C234 1.351 . S
C235 H240 0.930 . S
O236 Cu230 1.974 . S
O236 C246 1.282 . S
C237 O238 1.261 . S
C237 O250 1.251 . S
O238 C237 1.261 . S
H239 C233 0.930 . S
H240 C235 0.930 . S
N241 Cu230 1.985 . S
N241 C243 1.335 . S
N241 C244 1.390 . S
N242 C243 1.345 . S
N242 C245 1.336 . S
C243 N241 1.335 . S
C243 N242 1.345 . S
C243 H248 0.930 . S
C244 N241 1.390 . S
C244 C245 1.346 . S
C244 H249 0.930 . S
C245 N242 1.336 . S
C245 C244 1.346 . S
C245 H252 0.929 . S
C246 O236 1.282 . S
C246 O247 1.216 . S
O247 C246 1.216 . S
H248 C243 0.930 . S
H249 C244 0.930 . S
O250 Cu230 1.959 . S
O250 C237 1.251 . S
H251 C234 0.930 . S
H252 C245 0.929 . S
Cu253 N254 1.999 . S
Cu253 O259 1.974 . S
Cu253 N264 1.985 . S
Cu253 O273 1.959 . S
N254 Cu253 1.999 . S
N254 C256 1.263 . S
N254 C258 1.389 . S
N255 C256 1.358 . S
N255 C257 1.400 . S
C256 N254 1.263 . S
C256 N255 1.358 . S
C256 H262 0.930 . S
C257 N255 1.400 . S
C257 C258 1.351 . S
C257 H274 0.930 . S
C258 N254 1.389 . S
C258 C257 1.351 . S
C258 H263 0.930 . S
O259 Cu253 1.974 . S
O259 C269 1.282 . S
C260 O261 1.261 . S
C260 O273 1.251 . S
O261 C260 1.261 . S
H262 C256 0.930 . S
H263 C258 0.930 . S
N264 Cu253 1.985 . S
N264 C266 1.335 . S
N264 C267 1.390 . S
N265 C266 1.345 . S
N265 C268 1.336 . S
C266 N264 1.335 . S
C266 N265 1.345 . S
C266 H271 0.930 . S
C267 N264 1.390 . S
C267 C268 1.346 . S
C267 H272 0.930 . S
C268 N265 1.336 . S
C268 C267 1.346 . S
C268 H275 0.929 . S
C269 O259 1.282 . S
C269 O270 1.216 . S
O270 C269 1.216 . S
H271 C266 0.930 . S
H272 C267 0.930 . S
O273 Cu253 1.959 . S
O273 C260 1.251 . S
H274 C257 0.930 . S
H275 C268 0.929 . S
Tb276 C285 2.764 . S
Tb276 O286 2.325 . S
Tb276 O289 2.303 . S
Tb276 O293 2.322 . S
Tb276 O294 2.349 . S
Tb276 O297 2.415 . S
Tb276 O298 2.399 . S
Tb277 O287 2.322 . S
Tb277 O288 2.349 . S
Tb277 O290 2.415 . S
Tb277 O291 2.399 . S
Tb277 O292 2.325 . S
Tb277 O295 2.303 . S
Tb277 C306 2.764 . S
C278 O294 1.261 . S
C278 O295 1.257 . S
C279 C282 1.358 . S
C279 C283 1.332 . S
C279 C285 1.504 . S
C280 C281 1.373 . S
C280 C284 1.308 . S
C281 C280 1.373 . S
C281 C282 1.429 . S
C281 H308 0.932 . S
C282 C279 1.358 . S
C282 C281 1.429 . S
C282 H309 0.930 . S
C283 C279 1.332 . S
C283 C284 1.394 . S
C283 H310 0.932 . S
C284 C280 1.308 . S
C284 C283 1.394 . S
C284 H311 0.929 . S
C285 Tb276 2.764 . S
C285 C279 1.504 . S
C285 O297 1.239 . S
C285 O298 1.263 . S
O286 Tb276 2.325 . S
O286 C296 1.236 . S
O287 Tb277 2.322 . S
O287 C296 1.257 . S
O288 Tb277 2.349 . S
O288 C299 1.261 . S
O289 Tb276 2.303 . S
O289 C299 1.257 . S
O290 Tb277 2.415 . S
O290 C306 1.239 . S
O291 Tb277 2.399 . S
O291 C306 1.263 . S
O292 Tb277 2.325 . S
O292 C307 1.236 . S
O293 Tb276 2.322 . S
O293 C307 1.257 . S
O294 Tb276 2.349 . S
O294 C278 1.261 . S
O295 Tb277 2.303 . S
O295 C278 1.257 . S
C296 O286 1.236 . S
C296 O287 1.257 . S
O297 Tb276 2.415 . S
O297 C285 1.239 . S
O298 Tb276 2.399 . S
O298 C285 1.263 . S
C299 O288 1.261 . S
C299 O289 1.257 . S
C300 C303 1.358 . S
C300 C304 1.332 . S
C300 C306 1.504 . S
C301 C302 1.373 . S
C301 C305 1.308 . S
C302 C301 1.373 . S
C302 C303 1.429 . S
C302 H312 0.932 . S
C303 C300 1.358 . S
C303 C302 1.429 . S
C303 H313 0.930 . S
C304 C300 1.332 . S
C304 C305 1.394 . S
C304 H314 0.932 . S
C305 C301 1.308 . S
C305 C304 1.394 . S
C305 H315 0.929 . S
C306 Tb277 2.764 . S
C306 O290 1.239 . S
C306 O291 1.263 . S
C306 C300 1.504 . S
C307 O292 1.236 . S
C307 O293 1.257 . S
H308 C281 0.932 . S
H309 C282 0.930 . S
H310 C283 0.932 . S
H311 C284 0.929 . S
H312 C302 0.932 . S
H313 C303 0.930 . S
H314 C304 0.932 . S
H315 C305 0.929 . S
Tb316 C325 2.764 . S
Tb316 O326 2.325 . S
Tb316 O329 2.303 . S
Tb316 O333 2.322 . S
Tb316 O334 2.349 . S
Tb316 O337 2.415 . S
Tb316 O338 2.399 . S
Tb317 O327 2.322 . S
Tb317 O328 2.349 . S
Tb317 O330 2.415 . S
Tb317 O331 2.399 . S
Tb317 O332 2.325 . S
Tb317 O335 2.303 . S
Tb317 C346 2.764 . S
C318 O334 1.261 . S
C318 O335 1.257 . S
C319 C322 1.358 . S
C319 C323 1.332 . S
C319 C325 1.504 . S
C320 C321 1.373 . S
C320 C324 1.308 . S
C321 C320 1.373 . S
C321 C322 1.429 . S
C321 H348 0.932 . S
C322 C319 1.358 . S
C322 C321 1.429 . S
C322 H349 0.930 . S
C323 C319 1.332 . S
C323 C324 1.394 . S
C323 H350 0.932 . S
C324 C320 1.308 . S
C324 C323 1.394 . S
C324 H351 0.929 . S
C325 Tb316 2.764 . S
C325 C319 1.504 . S
C325 O337 1.239 . S
C325 O338 1.263 . S
O326 Tb316 2.325 . S
O326 C336 1.236 . S
O327 Tb317 2.322 . S
O327 C336 1.257 . S
O328 Tb317 2.349 . S
O328 C339 1.261 . S
O329 Tb316 2.303 . S
O329 C339 1.257 . S
O330 Tb317 2.415 . S
O330 C346 1.239 . S
O331 Tb317 2.399 . S
O331 C346 1.263 . S
O332 Tb317 2.325 . S
O332 C347 1.236 . S
O333 Tb316 2.322 . S
O333 C347 1.257 . S
O334 Tb316 2.349 . S
O334 C318 1.261 . S
O335 Tb317 2.303 . S
O335 C318 1.257 . S
C336 O326 1.236 . S
C336 O327 1.257 . S
O337 Tb316 2.415 . S
O337 C325 1.239 . S
O338 Tb316 2.399 . S
O338 C325 1.263 . S
C339 O328 1.261 . S
C339 O329 1.257 . S
C340 C343 1.358 . S
C340 C344 1.332 . S
C340 C346 1.504 . S
C341 C342 1.373 . S
C341 C345 1.308 . S
C342 C341 1.373 . S
C342 C343 1.429 . S
C342 H352 0.932 . S
C343 C340 1.358 . S
C343 C342 1.429 . S
C343 H353 0.930 . S
C344 C340 1.332 . S
C344 C345 1.394 . S
C344 H354 0.932 . S
C345 C341 1.308 . S
C345 C344 1.394 . S
C345 H355 0.929 . S
C346 Tb317 2.764 . S
C346 O330 1.239 . S
C346 O331 1.263 . S
C346 C340 1.504 . S
C347 O332 1.236 . S
C347 O333 1.257 . S
H348 C321 0.932 . S
H349 C322 0.930 . S
H350 C323 0.932 . S
H351 C324 0.929 . S
H352 C342 0.932 . S
H353 C343 0.930 . S
H354 C344 0.932 . S
H355 C345 0.929 . S
Tb356 C365 2.764 . S
Tb356 O366 2.325 . S
Tb356 O369 2.303 . S
Tb356 O373 2.322 . S
Tb356 O374 2.349 . S
Tb356 O377 2.415 . S
Tb356 O378 2.399 . S
Tb357 O367 2.322 . S
Tb357 O368 2.349 . S
Tb357 O370 2.415 . S
Tb357 O371 2.399 . S
Tb357 O372 2.325 . S
Tb357 O375 2.303 . S
Tb357 C386 2.764 . S
C358 O374 1.261 . S
C358 O375 1.257 . S
C359 C362 1.358 . S
C359 C363 1.332 . S
C359 C365 1.504 . S
C360 C361 1.373 . S
C360 C364 1.308 . S
C361 C360 1.373 . S
C361 C362 1.429 . S
C361 H388 0.932 . S
C362 C359 1.358 . S
C362 C361 1.429 . S
C362 H389 0.930 . S
C363 C359 1.332 . S
C363 C364 1.394 . S
C363 H390 0.932 . S
C364 C360 1.308 . S
C364 C363 1.394 . S
C364 H391 0.929 . S
C365 Tb356 2.764 . S
C365 C359 1.504 . S
C365 O377 1.239 . S
C365 O378 1.263 . S
O366 Tb356 2.325 . S
O366 C376 1.236 . S
O367 Tb357 2.322 . S
O367 C376 1.257 . S
O368 Tb357 2.349 . S
O368 C379 1.261 . S
O369 Tb356 2.303 . S
O369 C379 1.257 . S
O370 Tb357 2.415 . S
O370 C386 1.239 . S
O371 Tb357 2.399 . S
O371 C386 1.263 . S
O372 Tb357 2.325 . S
O372 C387 1.236 . S
O373 Tb356 2.322 . S
O373 C387 1.257 . S
O374 Tb356 2.349 . S
O374 C358 1.261 . S
O375 Tb357 2.303 . S
O375 C358 1.257 . S
C376 O366 1.236 . S
C376 O367 1.257 . S
O377 Tb356 2.415 . S
O377 C365 1.239 . S
O378 Tb356 2.399 . S
O378 C365 1.263 . S
C379 O368 1.261 . S
C379 O369 1.257 . S
C380 C383 1.358 . S
C380 C384 1.332 . S
C380 C386 1.504 . S
C381 C382 1.373 . S
C381 C385 1.308 . S
C382 C381 1.373 . S
C382 C383 1.429 . S
C382 H392 0.932 . S
C383 C380 1.358 . S
C383 C382 1.429 . S
C383 H393 0.930 . S
C384 C380 1.332 . S
C384 C385 1.394 . S
C384 H394 0.932 . S
C385 C381 1.308 . S
C385 C384 1.394 . S
C385 H395 0.929 . S
C386 Tb357 2.764 . S
C386 O370 1.239 . S
C386 O371 1.263 . S
C386 C380 1.504 . S
C387 O372 1.236 . S
C387 O373 1.257 . S
H388 C361 0.932 . S
H389 C362 0.930 . S
H390 C363 0.932 . S
H391 C364 0.929 . S
H392 C382 0.932 . S
H393 C383 0.930 . S
H394 C384 0.932 . S
H395 C385 0.929 . S
Tb396 C405 2.764 . S
Tb396 O406 2.325 . S
Tb396 O409 2.303 . S
Tb396 O413 2.322 . S
Tb396 O414 2.349 . S
Tb396 O417 2.415 . S
Tb396 O418 2.399 . S
Tb397 O407 2.322 . S
Tb397 O408 2.349 . S
Tb397 O410 2.415 . S
Tb397 O411 2.399 . S
Tb397 O412 2.325 . S
Tb397 O415 2.303 . S
Tb397 C426 2.764 . S
C398 O414 1.261 . S
C398 O415 1.257 . S
C399 C402 1.358 . S
C399 C403 1.332 . S
C399 C405 1.504 . S
C400 C401 1.373 . S
C400 C404 1.308 . S
C401 C400 1.373 . S
C401 C402 1.429 . S
C401 H428 0.932 . S
C402 C399 1.358 . S
C402 C401 1.429 . S
C402 H429 0.930 . S
C403 C399 1.332 . S
C403 C404 1.394 . S
C403 H430 0.932 . S
C404 C400 1.308 . S
C404 C403 1.394 . S
C404 H431 0.929 . S
C405 Tb396 2.764 . S
C405 C399 1.504 . S
C405 O417 1.239 . S
C405 O418 1.263 . S
O406 Tb396 2.325 . S
O406 C416 1.236 . S
O407 Tb397 2.322 . S
O407 C416 1.257 . S
O408 Tb397 2.349 . S
O408 C419 1.261 . S
O409 Tb396 2.303 . S
O409 C419 1.257 . S
O410 Tb397 2.415 . S
O410 C426 1.239 . S
O411 Tb397 2.399 . S
O411 C426 1.263 . S
O412 Tb397 2.325 . S
O412 C427 1.236 . S
O413 Tb396 2.322 . S
O413 C427 1.257 . S
O414 Tb396 2.349 . S
O414 C398 1.261 . S
O415 Tb397 2.303 . S
O415 C398 1.257 . S
C416 O406 1.236 . S
C416 O407 1.257 . S
O417 Tb396 2.415 . S
O417 C405 1.239 . S
O418 Tb396 2.399 . S
O418 C405 1.263 . S
C419 O408 1.261 . S
C419 O409 1.257 . S
C420 C423 1.358 . S
C420 C424 1.332 . S
C420 C426 1.504 . S
C421 C422 1.373 . S
C421 C425 1.308 . S
C422 C421 1.373 . S
C422 C423 1.429 . S
C422 H432 0.932 . S
C423 C420 1.358 . S
C423 C422 1.429 . S
C423 H433 0.930 . S
C424 C420 1.332 . S
C424 C425 1.394 . S
C424 H434 0.932 . S
C425 C421 1.308 . S
C425 C424 1.394 . S
C425 H435 0.929 . S
C426 Tb397 2.764 . S
C426 O410 1.239 . S
C426 O411 1.263 . S
C426 C420 1.504 . S
C427 O412 1.236 . S
C427 O413 1.257 . S
H428 C401 0.932 . S
H429 C402 0.930 . S
H430 C403 0.932 . S
H431 C404 0.929 . S
H432 C422 0.932 . S
H433 C423 0.930 . S
H434 C424 0.932 . S
H435 C425 0.929 . S
Tb436 C445 2.764 . S
Tb436 O446 2.325 . S
Tb436 O449 2.303 . S
Tb436 O453 2.322 . S
Tb436 O454 2.349 . S
Tb436 O457 2.415 . S
Tb436 O458 2.399 . S
Tb437 O447 2.322 . S
Tb437 O448 2.349 . S
Tb437 O450 2.415 . S
Tb437 O451 2.399 . S
Tb437 O452 2.325 . S
Tb437 O455 2.303 . S
Tb437 C466 2.764 . S
C438 O454 1.261 . S
C438 O455 1.257 . S
C439 C442 1.358 . S
C439 C443 1.332 . S
C439 C445 1.504 . S
C440 C441 1.373 . S
C440 C444 1.308 . S
C441 C440 1.373 . S
C441 C442 1.429 . S
C441 H468 0.932 . S
C442 C439 1.358 . S
C442 C441 1.429 . S
C442 H469 0.930 . S
C443 C439 1.332 . S
C443 C444 1.394 . S
C443 H470 0.932 . S
C444 C440 1.308 . S
C444 C443 1.394 . S
C444 H471 0.929 . S
C445 Tb436 2.764 . S
C445 C439 1.504 . S
C445 O457 1.239 . S
C445 O458 1.263 . S
O446 Tb436 2.325 . S
O446 C456 1.236 . S
O447 Tb437 2.322 . S
O447 C456 1.257 . S
O448 Tb437 2.349 . S
O448 C459 1.261 . S
O449 Tb436 2.303 . S
O449 C459 1.257 . S
O450 Tb437 2.415 . S
O450 C466 1.239 . S
O451 Tb437 2.399 . S
O451 C466 1.263 . S
O452 Tb437 2.325 . S
O452 C467 1.236 . S
O453 Tb436 2.322 . S
O453 C467 1.257 . S
O454 Tb436 2.349 . S
O454 C438 1.261 . S
O455 Tb437 2.303 . S
O455 C438 1.257 . S
C456 O446 1.236 . S
C456 O447 1.257 . S
O457 Tb436 2.415 . S
O457 C445 1.239 . S
O458 Tb436 2.399 . S
O458 C445 1.263 . S
C459 O448 1.261 . S
C459 O449 1.257 . S
C460 C463 1.358 . S
C460 C464 1.332 . S
C460 C466 1.504 . S
C461 C462 1.373 . S
C461 C465 1.308 . S
C462 C461 1.373 . S
C462 C463 1.429 . S
C462 H472 0.932 . S
C463 C460 1.358 . S
C463 C462 1.429 . S
C463 H473 0.930 . S
C464 C460 1.332 . S
C464 C465 1.394 . S
C464 H474 0.932 . S
C465 C461 1.308 . S
C465 C464 1.394 . S
C465 H475 0.929 . S
C466 Tb437 2.764 . S
C466 O450 1.239 . S
C466 O451 1.263 . S
C466 C460 1.504 . S
C467 O452 1.236 . S
C467 O453 1.257 . S
H468 C441 0.932 . S
H469 C442 0.930 . S
H470 C443 0.932 . S
H471 C444 0.929 . S
H472 C462 0.932 . S
H473 C463 0.930 . S
H474 C464 0.932 . S
H475 C465 0.929 . S
Tb476 C485 2.764 . S
Tb476 O486 2.325 . S
Tb476 O489 2.303 . S
Tb476 O493 2.322 . S
Tb476 O494 2.349 . S
Tb476 O497 2.415 . S
Tb476 O498 2.399 . S
Tb477 O487 2.322 . S
Tb477 O488 2.349 . S
Tb477 O490 2.415 . S
Tb477 O491 2.399 . S
Tb477 O492 2.325 . S
Tb477 O495 2.303 . S
Tb477 C506 2.764 . S
C478 O494 1.261 . S
C478 O495 1.257 . S
C479 C482 1.358 . S
C479 C483 1.332 . S
C479 C485 1.504 . S
C480 C481 1.373 . S
C480 C484 1.308 . S
C481 C480 1.373 . S
C481 C482 1.429 . S
C481 H508 0.932 . S
C482 C479 1.358 . S
C482 C481 1.429 . S
C482 H509 0.930 . S
C483 C479 1.332 . S
C483 C484 1.394 . S
C483 H510 0.932 . S
C484 C480 1.308 . S
C484 C483 1.394 . S
C484 H511 0.929 . S
C485 Tb476 2.764 . S
C485 C479 1.504 . S
C485 O497 1.239 . S
C485 O498 1.263 . S
O486 Tb476 2.325 . S
O486 C496 1.236 . S
O487 Tb477 2.322 . S
O487 C496 1.257 . S
O488 Tb477 2.349 . S
O488 C499 1.261 . S
O489 Tb476 2.303 . S
O489 C499 1.257 . S
O490 Tb477 2.415 . S
O490 C506 1.239 . S
O491 Tb477 2.399 . S
O491 C506 1.263 . S
O492 Tb477 2.325 . S
O492 C507 1.236 . S
O493 Tb476 2.322 . S
O493 C507 1.257 . S
O494 Tb476 2.349 . S
O494 C478 1.261 . S
O495 Tb477 2.303 . S
O495 C478 1.257 . S
C496 O486 1.236 . S
C496 O487 1.257 . S
O497 Tb476 2.415 . S
O497 C485 1.239 . S
O498 Tb476 2.399 . S
O498 C485 1.263 . S
C499 O488 1.261 . S
C499 O489 1.257 . S
C500 C503 1.358 . S
C500 C504 1.332 . S
C500 C506 1.504 . S
C501 C502 1.373 . S
C501 C505 1.308 . S
C502 C501 1.373 . S
C502 C503 1.429 . S
C502 H512 0.932 . S
C503 C500 1.358 . S
C503 C502 1.429 . S
C503 H513 0.930 . S
C504 C500 1.332 . S
C504 C505 1.394 . S
C504 H514 0.932 . S
C505 C501 1.308 . S
C505 C504 1.394 . S
C505 H515 0.929 . S
C506 Tb477 2.764 . S
C506 O490 1.239 . S
C506 O491 1.263 . S
C506 C500 1.504 . S
C507 O492 1.236 . S
C507 O493 1.257 . S
H508 C481 0.932 . S
H509 C482 0.930 . S
H510 C483 0.932 . S
H511 C484 0.929 . S
H512 C502 0.932 . S
H513 C503 0.930 . S
H514 C504 0.932 . S
H515 C505 0.929 . S
Tb516 C525 2.764 . S
Tb516 O526 2.325 . S
Tb516 O529 2.303 . S
Tb516 O533 2.322 . S
Tb516 O534 2.349 . S
Tb516 O537 2.415 . S
Tb516 O538 2.399 . S
Tb517 O527 2.322 . S
Tb517 O528 2.349 . S
Tb517 O530 2.415 . S
Tb517 O531 2.399 . S
Tb517 O532 2.325 . S
Tb517 O535 2.303 . S
Tb517 C546 2.764 . S
C518 O534 1.261 . S
C518 O535 1.257 . S
C519 C522 1.358 . S
C519 C523 1.332 . S
C519 C525 1.504 . S
C520 C521 1.373 . S
C520 C524 1.308 . S
C521 C520 1.373 . S
C521 C522 1.429 . S
C521 H548 0.932 . S
C522 C519 1.358 . S
C522 C521 1.429 . S
C522 H549 0.930 . S
C523 C519 1.332 . S
C523 C524 1.394 . S
C523 H550 0.932 . S
C524 C520 1.308 . S
C524 C523 1.394 . S
C524 H551 0.929 . S
C525 Tb516 2.764 . S
C525 C519 1.504 . S
C525 O537 1.239 . S
C525 O538 1.263 . S
O526 Tb516 2.325 . S
O526 C536 1.236 . S
O527 Tb517 2.322 . S
O527 C536 1.257 . S
O528 Tb517 2.349 . S
O528 C539 1.261 . S
O529 Tb516 2.303 . S
O529 C539 1.257 . S
O530 Tb517 2.415 . S
O530 C546 1.239 . S
O531 Tb517 2.399 . S
O531 C546 1.263 . S
O532 Tb517 2.325 . S
O532 C547 1.236 . S
O533 Tb516 2.322 . S
O533 C547 1.257 . S
O534 Tb516 2.349 . S
O534 C518 1.261 . S
O535 Tb517 2.303 . S
O535 C518 1.257 . S
C536 O526 1.236 . S
C536 O527 1.257 . S
O537 Tb516 2.415 . S
O537 C525 1.239 . S
O538 Tb516 2.399 . S
O538 C525 1.263 . S
C539 O528 1.261 . S
C539 O529 1.257 . S
C540 C543 1.358 . S
C540 C544 1.332 . S
C540 C546 1.504 . S
C541 C542 1.373 . S
C541 C545 1.308 . S
C542 C541 1.373 . S
C542 C543 1.429 . S
C542 H552 0.932 . S
C543 C540 1.358 . S
C543 C542 1.429 . S
C543 H553 0.930 . S
C544 C540 1.332 . S
C544 C545 1.394 . S
C544 H554 0.932 . S
C545 C541 1.308 . S
C545 C544 1.394 . S
C545 H555 0.929 . S
C546 Tb517 2.764 . S
C546 O530 1.239 . S
C546 O531 1.263 . S
C546 C540 1.504 . S
C547 O532 1.236 . S
C547 O533 1.257 . S
H548 C521 0.932 . S
H549 C522 0.930 . S
H550 C523 0.932 . S
H551 C524 0.929 . S
H552 C542 0.932 . S
H553 C543 0.930 . S
H554 C544 0.932 . S
H555 C545 0.929 . S
Tb556 C565 2.764 . S
Tb556 O566 2.325 . S
Tb556 O569 2.303 . S
Tb556 O573 2.322 . S
Tb556 O574 2.349 . S
Tb556 O577 2.415 . S
Tb556 O578 2.399 . S
Tb557 O567 2.322 . S
Tb557 O568 2.349 . S
Tb557 O570 2.415 . S
Tb557 O571 2.399 . S
Tb557 O572 2.325 . S
Tb557 O575 2.303 . S
Tb557 C586 2.764 . S
C558 O574 1.261 . S
C558 O575 1.257 . S
C559 C562 1.358 . S
C559 C563 1.332 . S
C559 C565 1.504 . S
C560 C561 1.373 . S
C560 C564 1.308 . S
C561 C560 1.373 . S
C561 C562 1.429 . S
C561 H588 0.932 . S
C562 C559 1.358 . S
C562 C561 1.429 . S
C562 H589 0.930 . S
C563 C559 1.332 . S
C563 C564 1.394 . S
C563 H590 0.932 . S
C564 C560 1.308 . S
C564 C563 1.394 . S
C564 H591 0.929 . S
C565 Tb556 2.764 . S
C565 C559 1.504 . S
C565 O577 1.239 . S
C565 O578 1.263 . S
O566 Tb556 2.325 . S
O566 C576 1.236 . S
O567 Tb557 2.322 . S
O567 C576 1.257 . S
O568 Tb557 2.349 . S
O568 C579 1.261 . S
O569 Tb556 2.303 . S
O569 C579 1.257 . S
O570 Tb557 2.415 . S
O570 C586 1.239 . S
O571 Tb557 2.399 . S
O571 C586 1.263 . S
O572 Tb557 2.325 . S
O572 C587 1.236 . S
O573 Tb556 2.322 . S
O573 C587 1.257 . S
O574 Tb556 2.349 . S
O574 C558 1.261 . S
O575 Tb557 2.303 . S
O575 C558 1.257 . S
C576 O566 1.236 . S
C576 O567 1.257 . S
O577 Tb556 2.415 . S
O577 C565 1.239 . S
O578 Tb556 2.399 . S
O578 C565 1.263 . S
C579 O568 1.261 . S
C579 O569 1.257 . S
C580 C583 1.358 . S
C580 C584 1.332 . S
C580 C586 1.504 . S
C581 C582 1.373 . S
C581 C585 1.308 . S
C582 C581 1.373 . S
C582 C583 1.429 . S
C582 H592 0.932 . S
C583 C580 1.358 . S
C583 C582 1.429 . S
C583 H593 0.930 . S
C584 C580 1.332 . S
C584 C585 1.394 . S
C584 H594 0.932 . S
C585 C581 1.308 . S
C585 C584 1.394 . S
C585 H595 0.929 . S
C586 Tb557 2.764 . S
C586 O570 1.239 . S
C586 O571 1.263 . S
C586 C580 1.504 . S
C587 O572 1.236 . S
C587 O573 1.257 . S
H588 C561 0.932 . S
H589 C562 0.930 . S
H590 C563 0.932 . S
H591 C564 0.929 . S
H592 C582 0.932 . S
H593 C583 0.930 . S
H594 C584 0.932 . S
H595 C585 0.929 . S
H596 C602 0.930 . S
H597 C606 0.930 . S
H598 C611 0.929 . S
H599 C609 0.929 . S
H600 C604 0.929 . S
H601 C610 0.929 . S
C602 H596 0.930 . S
C602 C603 1.367 . S
C602 C610 1.378 . S
C603 C602 1.367 . S
C603 C611 1.433 . S
C604 H600 0.929 . S
C604 C606 1.378 . S
C604 C608 1.350 . S
C605 C608 1.463 . S
C605 C610 1.350 . S
C605 N613 1.427 . S
C606 H597 0.930 . S
C606 C604 1.378 . S
C606 C607 1.367 . S
C607 C606 1.367 . S
C607 C609 1.433 . S
C608 C604 1.350 . S
C608 C605 1.463 . S
C608 N612 1.427 . S
C609 H599 0.929 . S
C609 C607 1.433 . S
C609 N612 1.384 . S
C610 H601 0.929 . S
C610 C602 1.378 . S
C610 C605 1.350 . S
C611 H598 0.929 . S
C611 C603 1.433 . S
C611 N613 1.384 . S
N612 C608 1.427 . S
N612 C609 1.384 . S
N613 C605 1.427 . S
N613 C611 1.384 . S
H614 C620 0.930 . S
H615 C624 0.930 . S
H616 C629 0.929 . S
H617 C627 0.929 . S
H618 C622 0.929 . S
H619 C628 0.929 . S
C620 H614 0.930 . S
C620 C621 1.367 . S
C620 C628 1.378 . S
C621 C620 1.367 . S
C621 C629 1.433 . S
C622 H618 0.929 . S
C622 C624 1.378 . S
C622 C626 1.350 . S
C623 C626 1.463 . S
C623 C628 1.350 . S
C623 N631 1.427 . S
C624 H615 0.930 . S
C624 C622 1.378 . S
C624 C625 1.367 . S
C625 C624 1.367 . S
C625 C627 1.433 . S
C626 C622 1.350 . S
C626 C623 1.463 . S
C626 N630 1.427 . S
C627 H617 0.929 . S
C627 C625 1.433 . S
C627 N630 1.384 . S
C628 H619 0.929 . S
C628 C620 1.378 . S
C628 C623 1.350 . S
C629 H616 0.929 . S
C629 C621 1.433 . S
C629 N631 1.384 . S
N630 C626 1.427 . S
N630 C627 1.384 . S
N631 C623 1.427 . S
N631 C629 1.384 . S
H632 C638 0.930 . S
H633 C642 0.930 . S
H634 C647 0.929 . S
H635 C645 0.929 . S
H636 C640 0.929 . S
H637 C646 0.929 . S
C638 H632 0.930 . S
C638 C639 1.367 . S
C638 C646 1.378 . S
C639 C638 1.367 . S
C639 C647 1.433 . S
C640 H636 0.929 . S
C640 C642 1.378 . S
C640 C644 1.350 . S
C641 C644 1.463 . S
C641 C646 1.350 . S
C641 N649 1.427 . S
C642 H633 0.930 . S
C642 C640 1.378 . S
C642 C643 1.367 . S
C643 C642 1.367 . S
C643 C645 1.433 . S
C644 C640 1.350 . S
C644 C641 1.463 . S
C644 N648 1.427 . S
C645 H635 0.929 . S
C645 C643 1.433 . S
C645 N648 1.384 . S
C646 H637 0.929 . S
C646 C638 1.378 . S
C646 C641 1.350 . S
C647 H634 0.929 . S
C647 C639 1.433 . S
C647 N649 1.384 . S
N648 C644 1.427 . S
N648 C645 1.384 . S
N649 C641 1.427 . S
N649 C647 1.384 . S
H650 C656 0.930 . S
H651 C660 0.930 . S
H652 C665 0.929 . S
H653 C663 0.929 . S
H654 C658 0.929 . S
H655 C664 0.929 . S
C656 H650 0.930 . S
C656 C657 1.367 . S
C656 C664 1.378 . S
C657 C656 1.367 . S
C657 C665 1.433 . S
C658 H654 0.929 . S
C658 C660 1.378 . S
C658 C662 1.350 . S
C659 C662 1.463 . S
C659 C664 1.350 . S
C659 N667 1.427 . S
C660 H651 0.930 . S
C660 C658 1.378 . S
C660 C661 1.367 . S
C661 C660 1.367 . S
C661 C663 1.433 . S
C662 C658 1.350 . S
C662 C659 1.463 . S
C662 N666 1.427 . S
C663 H653 0.929 . S
C663 C661 1.433 . S
C663 N666 1.384 . S
C664 H655 0.929 . S
C664 C656 1.378 . S
C664 C659 1.350 . S
C665 H652 0.929 . S
C665 C657 1.433 . S
C665 N667 1.384 . S
N666 C662 1.427 . S
N666 C663 1.384 . S
N667 C659 1.427 . S
N667 C665 1.384 . S
H668 C674 0.930 . S
H669 C678 0.930 . S
H670 C683 0.929 . S
H671 C681 0.929 . S
H672 C676 0.929 . S
H673 C682 0.929 . S
C674 H668 0.930 . S
C674 C675 1.367 . S
C674 C682 1.378 . S
C675 C674 1.367 . S
C675 C683 1.433 . S
C676 H672 0.929 . S
C676 C678 1.378 . S
C676 C680 1.350 . S
C677 C680 1.463 . S
C677 C682 1.350 . S
C677 N685 1.427 . S
C678 H669 0.930 . S
C678 C676 1.378 . S
C678 C679 1.367 . S
C679 C678 1.367 . S
C679 C681 1.433 . S
C680 C676 1.350 . S
C680 C677 1.463 . S
C680 N684 1.427 . S
C681 H671 0.929 . S
C681 C679 1.433 . S
C681 N684 1.384 . S
C682 H673 0.929 . S
C682 C674 1.378 . S
C682 C677 1.350 . S
C683 H670 0.929 . S
C683 C675 1.433 . S
C683 N685 1.384 . S
N684 C680 1.427 . S
N684 C681 1.384 . S
N685 C677 1.427 . S
N685 C683 1.384 . S
H686 C692 0.930 . S
H687 C696 0.930 . S
H688 C701 0.929 . S
H689 C699 0.929 . S
H690 C694 0.929 . S
H691 C700 0.929 . S
C692 H686 0.930 . S
C692 C693 1.367 . S
C692 C700 1.378 . S
C693 C692 1.367 . S
C693 C701 1.433 . S
C694 H690 0.929 . S
C694 C696 1.378 . S
C694 C698 1.350 . S
C695 C698 1.463 . S
C695 C700 1.350 . S
C695 N703 1.427 . S
C696 H687 0.930 . S
C696 C694 1.378 . S
C696 C697 1.367 . S
C697 C696 1.367 . S
C697 C699 1.433 . S
C698 C694 1.350 . S
C698 C695 1.463 . S
C698 N702 1.427 . S
C699 H689 0.929 . S
C699 C697 1.433 . S
C699 N702 1.384 . S
C700 H691 0.929 . S
C700 C692 1.378 . S
C700 C695 1.350 . S
C701 H688 0.929 . S
C701 C693 1.433 . S
C701 N703 1.384 . S
N702 C698 1.427 . S
N702 C699 1.384 . S
N703 C695 1.427 . S
N703 C701 1.384 . S
H704 C710 0.930 . S
H705 C714 0.930 . S
H706 C719 0.929 . S
H707 C717 0.929 . S
H708 C712 0.929 . S
H709 C718 0.929 . S
C710 H704 0.930 . S
C710 C711 1.367 . S
C710 C718 1.378 . S
C711 C710 1.367 . S
C711 C719 1.433 . S
C712 H708 0.929 . S
C712 C714 1.378 . S
C712 C716 1.350 . S
C713 C716 1.463 . S
C713 C718 1.350 . S
C713 N721 1.427 . S
C714 H705 0.930 . S
C714 C712 1.378 . S
C714 C715 1.367 . S
C715 C714 1.367 . S
C715 C717 1.433 . S
C716 C712 1.350 . S
C716 C713 1.463 . S
C716 N720 1.427 . S
C717 H707 0.929 . S
C717 C715 1.433 . S
C717 N720 1.384 . S
C718 H709 0.929 . S
C718 C710 1.378 . S
C718 C713 1.350 . S
C719 H706 0.929 . S
C719 C711 1.433 . S
C719 N721 1.384 . S
N720 C716 1.427 . S
N720 C717 1.384 . S
N721 C713 1.427 . S
N721 C719 1.384 . S
H722 C728 0.930 . S
H723 C732 0.930 . S
H724 C737 0.929 . S
H725 C735 0.929 . S
H726 C730 0.929 . S
H727 C736 0.929 . S
C728 H722 0.930 . S
C728 C729 1.367 . S
C728 C736 1.378 . S
C729 C728 1.367 . S
C729 C737 1.433 1_565 S
C730 H726 0.929 . S
C730 C732 1.378 . S
C730 C734 1.350 . S
C731 C734 1.463 . S
C731 C736 1.350 . S
C731 N739 1.427 . S
C732 H723 0.930 . S
C732 C730 1.378 . S
C732 C733 1.367 . S
C733 C732 1.367 . S
C733 C735 1.433 . S
C734 C730 1.350 . S
C734 C731 1.463 . S
C734 N738 1.427 . S
C735 H725 0.929 . S
C735 C733 1.433 . S
C735 N738 1.384 . S
C736 H727 0.929 . S
C736 C728 1.378 . S
C736 C731 1.350 . S
C737 H724 0.929 . S
C737 C729 1.433 1_545 S
C737 N739 1.384 1_545 S
N738 C734 1.427 . S
N738 C735 1.384 . S
N739 C731 1.427 . S
N739 C737 1.384 1_565 S
H740 C746 0.930 . S
H741 C750 0.930 . S
H742 C755 0.929 . S
H743 C753 0.929 . S
H744 C748 0.929 . S
H745 C754 0.929 . S
C746 H740 0.930 . S
C746 C747 1.367 . S
C746 C754 1.378 . S
C747 C746 1.367 . S
C747 C755 1.433 . S
C748 H744 0.929 . S
C748 C750 1.378 . S
C748 C752 1.350 . S
C749 C752 1.463 . S
C749 C754 1.350 . S
C749 N757 1.427 . S
C750 H741 0.930 . S
C750 C748 1.378 . S
C750 C751 1.367 . S
C751 C750 1.367 . S
C751 C753 1.433 . S
C752 C748 1.350 . S
C752 C749 1.463 . S
C752 N756 1.427 . S
C753 H743 0.929 . S
C753 C751 1.433 . S
C753 N756 1.384 . S
C754 H745 0.929 . S
C754 C746 1.378 . S
C754 C749 1.350 . S
C755 H742 0.929 . S
C755 C747 1.433 . S
C755 N757 1.384 . S
N756 C752 1.427 . S
N756 C753 1.384 . S
N757 C749 1.427 . S
N757 C755 1.384 . S
H758 C764 0.930 . S
H759 C768 0.930 . S
H760 C773 0.929 . S
H761 C771 0.929 . S
H762 C766 0.929 . S
H763 C772 0.929 . S
C764 H758 0.930 . S
C764 C765 1.367 . S
C764 C772 1.378 . S
C765 C764 1.367 . S
C765 C773 1.433 . S
C766 H762 0.929 . S
C766 C768 1.378 . S
C766 C770 1.350 . S
C767 C770 1.463 . S
C767 C772 1.350 . S
C767 N775 1.427 . S
C768 H759 0.930 . S
C768 C766 1.378 . S
C768 C769 1.367 . S
C769 C768 1.367 . S
C769 C771 1.433 . S
C770 C766 1.350 . S
C770 C767 1.463 . S
C770 N774 1.427 . S
C771 H761 0.929 . S
C771 C769 1.433 . S
C771 N774 1.384 . S
C772 H763 0.929 . S
C772 C764 1.378 . S
C772 C767 1.350 . S
C773 H760 0.929 . S
C773 C765 1.433 . S
C773 N775 1.384 . S
N774 C770 1.427 . S
N774 C771 1.384 . S
N775 C767 1.427 . S
N775 C773 1.384 . S
H776 C782 0.930 . S
H777 C786 0.930 . S
H778 C791 0.929 . S
H779 C789 0.929 . S
H780 C784 0.929 . S
H781 C790 0.929 . S
C782 H776 0.930 . S
C782 C783 1.367 . S
C782 C790 1.378 . S
C783 C782 1.367 . S
C783 C791 1.433 . S
C784 H780 0.929 . S
C784 C786 1.378 . S
C784 C788 1.350 . S
C785 C788 1.463 . S
C785 C790 1.350 . S
C785 N793 1.427 . S
C786 H777 0.930 . S
C786 C784 1.378 . S
C786 C787 1.367 . S
C787 C786 1.367 . S
C787 C789 1.433 . S
C788 C784 1.350 . S
C788 C785 1.463 . S
C788 N792 1.427 . S
C789 H779 0.929 . S
C789 C787 1.433 . S
C789 N792 1.384 . S
C790 H781 0.929 . S
C790 C782 1.378 . S
C790 C785 1.350 . S
C791 H778 0.929 . S
C791 C783 1.433 . S
C791 N793 1.384 . S
N792 C788 1.427 . S
N792 C789 1.384 . S
N793 C785 1.427 . S
N793 C791 1.384 . S
H794 C800 0.930 . S
H795 C804 0.930 . S
H796 C809 0.929 . S
H797 C807 0.929 . S
H798 C802 0.929 . S
H799 C808 0.929 . S
C800 H794 0.930 . S
C800 C801 1.367 . S
C800 C808 1.378 . S
C801 C800 1.367 . S
C801 C809 1.433 . S
C802 H798 0.929 . S
C802 C804 1.378 . S
C802 C806 1.350 . S
C803 C806 1.463 . S
C803 C808 1.350 . S
C803 N811 1.427 . S
C804 H795 0.930 . S
C804 C802 1.378 . S
C804 C805 1.367 . S
C805 C804 1.367 . S
C805 C807 1.433 . S
C806 C802 1.350 . S
C806 C803 1.463 . S
C806 N810 1.427 . S
C807 H797 0.929 . S
C807 C805 1.433 . S
C807 N810 1.384 . S
C808 H799 0.929 . S
C808 C800 1.378 . S
C808 C803 1.350 . S
C809 H796 0.929 . S
C809 C801 1.433 . S
C809 N811 1.384 . S
N810 C806 1.427 . S
N810 C807 1.384 . S
N811 C803 1.427 . S
N811 C809 1.384 . S
H812 C818 0.930 1_546 S
H813 C822 0.930 . S
H814 C827 0.929 . S
H815 C825 0.929 . S
H816 C820 0.929 1_554 S
H817 C826 0.929 . S
C818 H812 0.930 1_564 S
C818 C819 1.367 . S
C818 C826 1.378 1_554 S
C819 C818 1.367 . S
C819 C827 1.433 . S
C820 H816 0.929 1_556 S
C820 C822 1.378 . S
C820 C824 1.350 . S
C821 C824 1.463 . S
C821 C826 1.350 . S
C821 N829 1.427 1_556 S
C822 H813 0.930 . S
C822 C820 1.378 . S
C822 C823 1.367 . S
C823 C822 1.367 . S
C823 C825 1.433 . S
C824 C820 1.350 . S
C824 C821 1.463 . S
C824 N828 1.427 . S
C825 H815 0.929 . S
C825 C823 1.433 . S
C825 N828 1.384 . S
C826 H817 0.929 . S
C826 C818 1.378 1_556 S
C826 C821 1.350 . S
C827 H814 0.929 . S
C827 C819 1.433 . S
C827 N829 1.384 . S
N828 C824 1.427 . S
N828 C825 1.384 . S
N829 C821 1.427 1_554 S
N829 C827 1.384 . S
H830 C836 0.930 1_554 S
H831 C840 0.930 . S
H832 C845 0.929 . S
H833 C843 0.929 . S
H834 C838 0.929 . S
H835 C844 0.929 . S
C836 H830 0.930 1_556 S
C836 C837 1.367 . S
C836 C844 1.378 . S
C837 C836 1.367 . S
C837 C845 1.433 . S
C838 H834 0.929 . S
C838 C840 1.378 . S
C838 C842 1.350 . S
C839 C842 1.463 . S
C839 C844 1.350 . S
C839 N847 1.427 . S
C840 H831 0.930 . S
C840 C838 1.378 . S
C840 C841 1.367 . S
C841 C840 1.367 . S
C841 C843 1.433 . S
C842 C838 1.350 . S
C842 C839 1.463 . S
C842 N846 1.427 . S
C843 H833 0.929 . S
C843 C841 1.433 . S
C843 N846 1.384 . S
C844 H835 0.929 . S
C844 C836 1.378 . S
C844 C839 1.350 . S
C845 H832 0.929 . S
C845 C837 1.433 . S
C845 N847 1.384 . S
N846 C842 1.427 . S
N846 C843 1.384 . S
N847 C839 1.427 . S
N847 C845 1.384 . S
H848 C854 0.930 . S
H849 C858 0.930 . S
H850 C863 0.929 . S
H851 C861 0.929 . S
H852 C856 0.929 . S
H853 C862 0.929 . S
C854 H848 0.930 . S
C854 C855 1.367 . S
C854 C862 1.378 . S
C855 C854 1.367 . S
C855 C863 1.433 . S
C856 H852 0.929 . S
C856 C858 1.378 . S
C856 C860 1.350 . S
C857 C860 1.463 . S
C857 C862 1.350 . S
C857 N865 1.427 . S
C858 H849 0.930 . S
C858 C856 1.378 . S
C858 C859 1.367 . S
C859 C858 1.367 . S
C859 C861 1.433 . S
C860 C856 1.350 . S
C860 C857 1.463 . S
C860 N864 1.427 . S
C861 H851 0.929 . S
C861 C859 1.433 . S
C861 N864 1.384 . S
C862 H853 0.929 . S
C862 C854 1.378 . S
C862 C857 1.350 . S
C863 H850 0.929 . S
C863 C855 1.433 . S
C863 N865 1.384 . S
N864 C860 1.427 . S
N864 C861 1.384 . S
N865 C857 1.427 . S
N865 C863 1.384 . S
H866 C872 0.930 . S
H867 C876 0.930 . S
H868 C881 0.929 . S
H869 C879 0.929 . S
H870 C874 0.929 . S
H871 C880 0.929 . S
C872 H866 0.930 . S
C872 C873 1.367 . S
C872 C880 1.378 . S
C873 C872 1.367 . S
C873 C881 1.433 . S
C874 H870 0.929 . S
C874 C876 1.378 . S
C874 C878 1.350 . S
C875 C878 1.463 . S
C875 C880 1.350 . S
C875 N883 1.427 . S
C876 H867 0.930 . S
C876 C874 1.378 . S
C876 C877 1.367 . S
C877 C876 1.367 . S
C877 C879 1.433 . S
C878 C874 1.350 . S
C878 C875 1.463 . S
C878 N882 1.427 . S
C879 H869 0.929 . S
C879 C877 1.433 . S
C879 N882 1.384 . S
C880 H871 0.929 . S
C880 C872 1.378 . S
C880 C875 1.350 . S
C881 H868 0.929 . S
C881 C873 1.433 . S
C881 N883 1.384 . S
N882 C878 1.427 . S
N882 C879 1.384 . S
N883 C875 1.427 . S
N883 C881 1.384 . S
H884 C890 0.930 . S
H885 C894 0.930 . S
H886 C899 0.929 . S
H887 C897 0.929 . S
H888 C892 0.929 . S
H889 C898 0.929 . S
C890 H884 0.930 . S
C890 C891 1.367 . S
C890 C898 1.378 . S
C891 C890 1.367 . S
C891 C899 1.433 . S
C892 H888 0.929 . S
C892 C894 1.378 . S
C892 C896 1.350 . S
C893 C896 1.463 . S
C893 C898 1.350 . S
C893 N901 1.427 . S
C894 H885 0.930 . S
C894 C892 1.378 . S
C894 C895 1.367 . S
C895 C894 1.367 . S
C895 C897 1.433 . S
C896 C892 1.350 . S
C896 C893 1.463 . S
C896 N900 1.427 . S
C897 H887 0.929 . S
C897 C895 1.433 . S
C897 N900 1.384 . S
C898 H889 0.929 . S
C898 C890 1.378 . S
C898 C893 1.350 . S
C899 H886 0.929 . S
C899 C891 1.433 . S
C899 N901 1.384 . S
N900 C896 1.427 . S
N900 C897 1.384 . S
N901 C893 1.427 . S
N901 C899 1.384 . S
H902 C908 0.930 . S
H903 C912 0.930 . S
H904 C917 0.929 . S
H905 C915 0.929 . S
H906 C910 0.929 . S
H907 C916 0.929 . S
C908 H902 0.930 . S
C908 C909 1.367 . S
C908 C916 1.378 . S
C909 C908 1.367 . S
C909 C917 1.433 . S
C910 H906 0.929 . S
C910 C912 1.378 . S
C910 C914 1.350 . S
C911 C914 1.463 . S
C911 C916 1.350 . S
C911 N919 1.427 . S
C912 H903 0.930 . S
C912 C910 1.378 . S
C912 C913 1.367 . S
C913 C912 1.367 . S
C913 C915 1.433 . S
C914 C910 1.350 . S
C914 C911 1.463 . S
C914 N918 1.427 . S
C915 H905 0.929 . S
C915 C913 1.433 . S
C915 N918 1.384 . S
C916 H907 0.929 . S
C916 C908 1.378 . S
C916 C911 1.350 . S
C917 H904 0.929 . S
C917 C909 1.433 . S
C917 N919 1.384 . S
N918 C914 1.427 . S
N918 C915 1.384 . S
N919 C911 1.427 . S
N919 C917 1.384 . S
H920 C926 0.930 1_554 S
H921 C930 0.930 . S
H922 C935 0.929 . S
H923 C933 0.929 . S
H924 C928 0.929 . S
H925 C934 0.929 . S
C926 H920 0.930 1_556 S
C926 C927 1.367 1_556 S
C926 C934 1.378 . S
C927 C926 1.367 1_554 S
C927 C935 1.433 . S
C928 H924 0.929 . S
C928 C930 1.378 . S
C928 C932 1.350 . S
C929 C932 1.463 . S
C929 C934 1.350 . S
C929 N937 1.427 . S
C930 H921 0.930 . S
C930 C928 1.378 . S
C930 C931 1.367 . S
C931 C930 1.367 . S
C931 C933 1.433 . S
C932 C928 1.350 . S
C932 C929 1.463 . S
C932 N936 1.427 . S
C933 H923 0.929 . S
C933 C931 1.433 . S
C933 N936 1.384 . S
C934 H925 0.929 . S
C934 C926 1.378 . S
C934 C929 1.350 . S
C935 H922 0.929 . S
C935 C927 1.433 . S
C935 N937 1.384 1_554 S
N936 C932 1.427 . S
N936 C933 1.384 . S
N937 C929 1.427 . S
N937 C935 1.384 1_556 S
H938 C944 0.930 . S
H939 C948 0.930 . S
H940 C953 0.929 . S
H941 C951 0.929 . S
H942 C946 0.929 . S
H943 C952 0.929 . S
C944 H938 0.930 . S
C944 C945 1.367 . S
C944 C952 1.378 . S
C945 C944 1.367 . S
C945 C953 1.433 1_654 S
C946 H942 0.929 . S
C946 C948 1.378 . S
C946 C950 1.350 . S
C947 C950 1.463 . S
C947 C952 1.350 1_556 S
C947 N955 1.427 . S
C948 H939 0.930 . S
C948 C946 1.378 . S
C948 C949 1.367 . S
C949 C948 1.367 . S
C949 C951 1.433 . S
C950 C946 1.350 . S
C950 C947 1.463 . S
C950 N954 1.427 . S
C951 H941 0.929 . S
C951 C949 1.433 . S
C951 N954 1.384 . S
C952 H943 0.929 . S
C952 C944 1.378 . S
C952 C947 1.350 1_554 S
C953 H940 0.929 . S
C953 C945 1.433 1_456 S
C953 N955 1.384 1_455 S
N954 C950 1.427 . S
N954 C951 1.384 . S
N955 C947 1.427 . S
N955 C953 1.384 1_655 S
H956 C962 0.930 . S
H957 C966 0.930 . S
H958 C971 0.929 . S
H959 C969 0.929 . S
H960 C964 0.929 . S
H961 C970 0.929 . S
C962 H956 0.930 . S
C962 C963 1.367 . S
C962 C970 1.378 . S
C963 C962 1.367 . S
C963 C971 1.433 . S
C964 H960 0.929 . S
C964 C966 1.378 . S
C964 C968 1.350 . S
C965 C968 1.463 . S
C965 C970 1.350 . S
C965 N973 1.427 . S
C966 H957 0.930 . S
C966 C964 1.378 . S
C966 C967 1.367 . S
C967 C966 1.367 . S
C967 C969 1.433 . S
C968 C964 1.350 . S
C968 C965 1.463 . S
C968 N972 1.427 . S
C969 H959 0.929 . S
C969 C967 1.433 . S
C969 N972 1.384 . S
C970 H961 0.929 . S
C970 C962 1.378 . S
C970 C965 1.350 . S
C971 H958 0.929 . S
C971 C963 1.433 . S
C971 N973 1.384 . S
N972 C968 1.427 . S
N972 C969 1.384 . S
N973 C965 1.427 . S
N973 C971 1.384 . S
H974 C980 0.930 . S
H975 C984 0.930 . S
H976 C989 0.929 . S
H977 C987 0.929 . S
H978 C982 0.929 . S
H979 C988 0.929 . S
C980 H974 0.930 . S
C980 C981 1.367 . S
C980 C988 1.378 . S
C981 C980 1.367 . S
C981 C989 1.433 . S
C982 H978 0.929 . S
C982 C984 1.378 . S
C982 C986 1.350 . S
C983 C986 1.463 . S
C983 C988 1.350 . S
C983 N991 1.427 . S
C984 H975 0.930 . S
C984 C982 1.378 . S
C984 C985 1.367 . S
C985 C984 1.367 . S
C985 C987 1.433 . S
C986 C982 1.350 . S
C986 C983 1.463 . S
C986 N990 1.427 . S
C987 H977 0.929 . S
C987 C985 1.433 . S
C987 N990 1.384 . S
C988 H979 0.929 . S
C988 C980 1.378 . S
C988 C983 1.350 . S
C989 H976 0.929 . S
C989 C981 1.433 . S
C989 N991 1.384 . S
N990 C986 1.427 . S
N990 C987 1.384 . S
N991 C983 1.427 . S
N991 C989 1.384 . S
H992 C998 0.930 . S
H993 C1002 0.930 . S
H994 C1007 0.929 1_545 S
H995 C1005 0.929 . S
H996 C1000 0.929 . S
H997 C1006 0.929 . S
C998 H992 0.930 . S
C998 C999 1.367 . S
C998 C1006 1.378 . S
C999 C998 1.367 . S
C999 C1007 1.433 . S
C1000 H996 0.929 . S
C1000 C1002 1.378 . S
C1000 C1004 1.350 . S
C1001 C1004 1.463 . S
C1001 C1006 1.350 . S
C1001 N1009 1.427 . S
C1002 H993 0.930 . S
C1002 C1000 1.378 . S
C1002 C1003 1.367 . S
C1003 C1002 1.367 . S
C1003 C1005 1.433 . S
C1004 C1000 1.350 . S
C1004 C1001 1.463 . S
C1004 N1008 1.427 . S
C1005 H995 0.929 . S
C1005 C1003 1.433 . S
C1005 N1008 1.384 . S
C1006 H997 0.929 . S
C1006 C998 1.378 . S
C1006 C1001 1.350 . S
C1007 H994 0.929 1_565 S
C1007 C999 1.433 . S
C1007 N1009 1.384 . S
N1008 C1004 1.427 . S
N1008 C1005 1.384 . S
N1009 C1001 1.427 . S
N1009 C1007 1.384 . S
H1010 C1016 0.930 . S
H1011 C1020 0.930 . S
H1012 C1025 0.929 . S
H1013 C1023 0.929 . S
H1014 C1018 0.929 . S
H1015 C1024 0.929 . S
C1016 H1010 0.930 . S
C1016 C1017 1.367 . S
C1016 C1024 1.378 . S
C1017 C1016 1.367 . S
C1017 C1025 1.433 . S
C1018 H1014 0.929 . S
C1018 C1020 1.378 . S
C1018 C1022 1.350 . S
C1019 C1022 1.463 . S
C1019 C1024 1.350 . S
C1019 N1027 1.427 . S
C1020 H1011 0.930 . S
C1020 C1018 1.378 . S
C1020 C1021 1.367 . S
C1021 C1020 1.367 . S
C1021 C1023 1.433 . S
C1022 C1018 1.350 . S
C1022 C1019 1.463 . S
C1022 N1026 1.427 . S
C1023 H1013 0.929 . S
C1023 C1021 1.433 . S
C1023 N1026 1.384 . S
C1024 H1015 0.929 . S
C1024 C1016 1.378 . S
C1024 C1019 1.350 . S
C1025 H1012 0.929 . S
C1025 C1017 1.433 . S
C1025 N1027 1.384 . S
N1026 C1022 1.427 . S
N1026 C1023 1.384 . S
N1027 C1019 1.427 . S
N1027 C1025 1.384 . S
H1028 C1034 0.930 . S
H1029 C1038 0.930 . S
H1030 C1043 0.929 . S
H1031 C1041 0.929 . S
H1032 C1036 0.929 . S
H1033 C1042 0.929 . S
C1034 H1028 0.930 . S
C1034 C1035 1.367 . S
C1034 C1042 1.378 . S
C1035 C1034 1.367 . S
C1035 C1043 1.433 . S
C1036 H1032 0.929 . S
C1036 C1038 1.378 . S
C1036 C1040 1.350 . S
C1037 C1040 1.463 . S
C1037 C1042 1.350 . S
C1037 N1045 1.427 . S
C1038 H1029 0.930 . S
C1038 C1036 1.378 . S
C1038 C1039 1.367 . S
C1039 C1038 1.367 . S
C1039 C1041 1.433 . S
C1040 C1036 1.350 . S
C1040 C1037 1.463 . S
C1040 N1044 1.427 . S
C1041 H1031 0.929 . S
C1041 C1039 1.433 . S
C1041 N1044 1.384 . S
C1042 H1033 0.929 . S
C1042 C1034 1.378 . S
C1042 C1037 1.350 . S
C1043 H1030 0.929 . S
C1043 C1035 1.433 . S
C1043 N1045 1.384 . S
N1044 C1040 1.427 . S
N1044 C1041 1.384 . S
N1045 C1037 1.427 . S
N1045 C1043 1.384 . S
H1046 C1052 0.930 . S
H1047 C1056 0.930 . S
H1048 C1061 0.929 . S
H1049 C1059 0.929 . S
H1050 C1054 0.929 . S
H1051 C1060 0.929 . S
C1052 H1046 0.930 . S
C1052 C1053 1.367 . S
C1052 C1060 1.378 . S
C1053 C1052 1.367 . S
C1053 C1061 1.433 . S
C1054 H1050 0.929 . S
C1054 C1056 1.378 . S
C1054 C1058 1.350 . S
C1055 C1058 1.463 . S
C1055 C1060 1.350 . S
C1055 N1063 1.427 . S
C1056 H1047 0.930 . S
C1056 C1054 1.378 . S
C1056 C1057 1.367 . S
C1057 C1056 1.367 . S
C1057 C1059 1.433 . S
C1058 C1054 1.350 . S
C1058 C1055 1.463 . S
C1058 N1062 1.427 . S
C1059 H1049 0.929 . S
C1059 C1057 1.433 . S
C1059 N1062 1.384 . S
C1060 H1051 0.929 . S
C1060 C1052 1.378 . S
C1060 C1055 1.350 . S
C1061 H1048 0.929 . S
C1061 C1053 1.433 . S
C1061 N1063 1.384 . S
N1062 C1058 1.427 . S
N1062 C1059 1.384 . S
N1063 C1055 1.427 . S
N1063 C1061 1.384 . S
H1064 C1070 0.930 . S
H1065 C1074 0.930 . S
H1066 C1079 0.929 . S
H1067 C1077 0.929 . S
H1068 C1072 0.929 . S
H1069 C1078 0.929 . S
C1070 H1064 0.930 . S
C1070 C1071 1.367 . S
C1070 C1078 1.378 . S
C1071 C1070 1.367 . S
C1071 C1079 1.433 . S
C1072 H1068 0.929 . S
C1072 C1074 1.378 . S
C1072 C1076 1.350 . S
C1073 C1076 1.463 . S
C1073 C1078 1.350 . S
C1073 N1081 1.427 . S
C1074 H1065 0.930 . S
C1074 C1072 1.378 . S
C1074 C1075 1.367 . S
C1075 C1074 1.367 . S
C1075 C1077 1.433 . S
C1076 C1072 1.350 . S
C1076 C1073 1.463 . S
C1076 N1080 1.427 . S
C1077 H1067 0.929 . S
C1077 C1075 1.433 . S
C1077 N1080 1.384 . S
C1078 H1069 0.929 . S
C1078 C1070 1.378 . S
C1078 C1073 1.350 . S
C1079 H1066 0.929 . S
C1079 C1071 1.433 . S
C1079 N1081 1.384 . S
N1080 C1076 1.427 . S
N1080 C1077 1.384 . S
N1081 C1073 1.427 . S
N1081 C1079 1.384 . S
H1082 C1088 0.930 . S
H1083 C1092 0.930 . S
H1084 C1097 0.929 . S
H1085 C1095 0.929 . S
H1086 C1090 0.929 . S
H1087 C1096 0.929 . S
C1088 H1082 0.930 . S
C1088 C1089 1.367 . S
C1088 C1096 1.378 . S
C1089 C1088 1.367 . S
C1089 C1097 1.433 . S
C1090 H1086 0.929 . S
C1090 C1092 1.378 . S
C1090 C1094 1.350 . S
C1091 C1094 1.463 . S
C1091 C1096 1.350 . S
C1091 N1099 1.427 . S
C1092 H1083 0.930 . S
C1092 C1090 1.378 . S
C1092 C1093 1.367 . S
C1093 C1092 1.367 . S
C1093 C1095 1.433 . S
C1094 C1090 1.350 . S
C1094 C1091 1.463 . S
C1094 N1098 1.427 . S
C1095 H1085 0.929 . S
C1095 C1093 1.433 . S
C1095 N1098 1.384 . S
C1096 H1087 0.929 . S
C1096 C1088 1.378 . S
C1096 C1091 1.350 . S
C1097 H1084 0.929 . S
C1097 C1089 1.433 . S
C1097 N1099 1.384 . S
N1098 C1094 1.427 . S
N1098 C1095 1.384 . S
N1099 C1091 1.427 . S
N1099 C1097 1.384 . S
H1100 C1106 0.930 . S
H1101 C1110 0.930 . S
H1102 C1115 0.929 . S
H1103 C1113 0.929 . S
H1104 C1108 0.929 . S
H1105 C1114 0.929 . S
C1106 H1100 0.930 . S
C1106 C1107 1.367 . S
C1106 C1114 1.378 . S
C1107 C1106 1.367 . S
C1107 C1115 1.433 . S
C1108 H1104 0.929 . S
C1108 C1110 1.378 . S
C1108 C1112 1.350 . S
C1109 C1112 1.463 . S
C1109 C1114 1.350 . S
C1109 N1117 1.427 . S
C1110 H1101 0.930 . S
C1110 C1108 1.378 . S
C1110 C1111 1.367 . S
C1111 C1110 1.367 . S
C1111 C1113 1.433 . S
C1112 C1108 1.350 . S
C1112 C1109 1.463 . S
C1112 N1116 1.427 . S
C1113 H1103 0.929 . S
C1113 C1111 1.433 . S
C1113 N1116 1.384 . S
C1114 H1105 0.929 . S
C1114 C1106 1.378 . S
C1114 C1109 1.350 . S
C1115 H1102 0.929 . S
C1115 C1107 1.433 . S
C1115 N1117 1.384 . S
N1116 C1112 1.427 . S
N1116 C1113 1.384 . S
N1117 C1109 1.427 . S
N1117 C1115 1.384 . S
H1118 C1124 0.930 . S
H1119 C1128 0.930 . S
H1120 C1133 0.929 . S
H1121 C1131 0.929 . S
H1122 C1126 0.929 . S
H1123 C1132 0.929 . S
C1124 H1118 0.930 . S
C1124 C1125 1.367 . S
C1124 C1132 1.378 . S
C1125 C1124 1.367 . S
C1125 C1133 1.433 . S
C1126 H1122 0.929 . S
C1126 C1128 1.378 . S
C1126 C1130 1.350 . S
C1127 C1130 1.463 . S
C1127 C1132 1.350 . S
C1127 N1135 1.427 . S
C1128 H1119 0.930 . S
C1128 C1126 1.378 . S
C1128 C1129 1.367 . S
C1129 C1128 1.367 . S
C1129 C1131 1.433 . S
C1130 C1126 1.350 . S
C1130 C1127 1.463 . S
C1130 N1134 1.427 . S
C1131 H1121 0.929 . S
C1131 C1129 1.433 . S
C1131 N1134 1.384 . S
C1132 H1123 0.929 . S
C1132 C1124 1.378 . S
C1132 C1127 1.350 . S
C1133 H1120 0.929 . S
C1133 C1125 1.433 . S
C1133 N1135 1.384 . S
N1134 C1130 1.427 . S
N1134 C1131 1.384 . S
N1135 C1127 1.427 . S
N1135 C1133 1.384 . S
H1136 C1142 0.930 . S
H1137 C1146 0.930 . S
H1138 C1151 0.929 . S
H1139 C1149 0.929 . S
H1140 C1144 0.929 . S
H1141 C1150 0.929 . S
C1142 H1136 0.930 . S
C1142 C1143 1.367 . S
C1142 C1150 1.378 . S
C1143 C1142 1.367 . S
C1143 C1151 1.433 . S
C1144 H1140 0.929 . S
C1144 C1146 1.378 . S
C1144 C1148 1.350 . S
C1145 C1148 1.463 . S
C1145 C1150 1.350 . S
C1145 N1153 1.427 . S
C1146 H1137 0.930 . S
C1146 C1144 1.378 . S
C1146 C1147 1.367 . S
C1147 C1146 1.367 . S
C1147 C1149 1.433 . S
C1148 C1144 1.350 . S
C1148 C1145 1.463 . S
C1148 N1152 1.427 . S
C1149 H1139 0.929 . S
C1149 C1147 1.433 . S
C1149 N1152 1.384 . S
C1150 H1141 0.929 . S
C1150 C1142 1.378 . S
C1150 C1145 1.350 . S
C1151 H1138 0.929 . S
C1151 C1143 1.433 . S
C1151 N1153 1.384 . S
N1152 C1148 1.427 . S
N1152 C1149 1.384 . S
N1153 C1145 1.427 . S
N1153 C1151 1.384 . S
H1154 C1160 0.930 . S
H1155 C1164 0.930 . S
H1156 C1169 0.929 . S
H1157 C1167 0.929 . S
H1158 C1162 0.929 . S
H1159 C1168 0.929 . S
C1160 H1154 0.930 . S
C1160 C1161 1.367 . S
C1160 C1168 1.378 . S
C1161 C1160 1.367 . S
C1161 C1169 1.433 . S
C1162 H1158 0.929 . S
C1162 C1164 1.378 . S
C1162 C1166 1.350 . S
C1163 C1166 1.463 . S
C1163 C1168 1.350 . S
C1163 N1171 1.427 . S
C1164 H1155 0.930 . S
C1164 C1162 1.378 . S
C1164 C1165 1.367 . S
C1165 C1164 1.367 . S
C1165 C1167 1.433 . S
C1166 C1162 1.350 . S
C1166 C1163 1.463 . S
C1166 N1170 1.427 . S
C1167 H1157 0.929 . S
C1167 C1165 1.433 . S
C1167 N1170 1.384 . S
C1168 H1159 0.929 . S
C1168 C1160 1.378 . S
C1168 C1163 1.350 . S
C1169 H1156 0.929 . S
C1169 C1161 1.433 . S
C1169 N1171 1.384 . S
N1170 C1166 1.427 . S
N1170 C1167 1.384 . S
N1171 C1163 1.427 . S
N1171 C1169 1.384 . S
H1172 C1178 0.930 . S
H1173 C1182 0.930 . S
H1174 C1187 0.929 . S
H1175 C1185 0.929 . S
H1176 C1180 0.929 . S
H1177 C1186 0.929 . S
C1178 H1172 0.930 . S
C1178 C1179 1.367 . S
C1178 C1186 1.378 . S
C1179 C1178 1.367 . S
C1179 C1187 1.433 . S
C1180 H1176 0.929 . S
C1180 C1182 1.378 . S
C1180 C1184 1.350 . S
C1181 C1184 1.463 . S
C1181 C1186 1.350 . S
C1181 N1189 1.427 . S
C1182 H1173 0.930 . S
C1182 C1180 1.378 . S
C1182 C1183 1.367 . S
C1183 C1182 1.367 . S
C1183 C1185 1.433 . S
C1184 C1180 1.350 . S
C1184 C1181 1.463 . S
C1184 N1188 1.427 . S
C1185 H1175 0.929 . S
C1185 C1183 1.433 . S
C1185 N1188 1.384 . S
C1186 H1177 0.929 . S
C1186 C1178 1.378 . S
C1186 C1181 1.350 . S
C1187 H1174 0.929 . S
C1187 C1179 1.433 . S
C1187 N1189 1.384 . S
N1188 C1184 1.427 . S
N1188 C1185 1.384 . S
N1189 C1181 1.427 . S
N1189 C1187 1.384 . S
H1190 C1196 0.930 . S
H1191 C1200 0.930 . S
H1192 C1205 0.929 . S
H1193 C1203 0.929 . S
H1194 C1198 0.929 . S
H1195 C1204 0.929 . S
C1196 H1190 0.930 . S
C1196 C1197 1.367 . S
C1196 C1204 1.378 . S
C1197 C1196 1.367 . S
C1197 C1205 1.433 . S
C1198 H1194 0.929 . S
C1198 C1200 1.378 . S
C1198 C1202 1.350 . S
C1199 C1202 1.463 . S
C1199 C1204 1.350 . S
C1199 N1207 1.427 . S
C1200 H1191 0.930 . S
C1200 C1198 1.378 . S
C1200 C1201 1.367 . S
C1201 C1200 1.367 . S
C1201 C1203 1.433 . S
C1202 C1198 1.350 . S
C1202 C1199 1.463 . S
C1202 N1206 1.427 . S
C1203 H1193 0.929 . S
C1203 C1201 1.433 . S
C1203 N1206 1.384 . S
C1204 H1195 0.929 . S
C1204 C1196 1.378 . S
C1204 C1199 1.350 . S
C1205 H1192 0.929 . S
C1205 C1197 1.433 . S
C1205 N1207 1.384 . S
N1206 C1202 1.427 . S
N1206 C1203 1.384 . S
N1207 C1199 1.427 . S
N1207 C1205 1.384 . S
H1208 C1214 0.930 . S
H1209 C1218 0.930 . S
H1210 C1223 0.929 . S
H1211 C1221 0.929 . S
H1212 C1216 0.929 . S
H1213 C1222 0.929 . S
C1214 H1208 0.930 . S
C1214 C1215 1.367 . S
C1214 C1222 1.378 . S
C1215 C1214 1.367 . S
C1215 C1223 1.433 . S
C1216 H1212 0.929 . S
C1216 C1218 1.378 . S
C1216 C1220 1.350 . S
C1217 C1220 1.463 . S
C1217 C1222 1.350 . S
C1217 N1225 1.427 . S
C1218 H1209 0.930 . S
C1218 C1216 1.378 . S
C1218 C1219 1.367 . S
C1219 C1218 1.367 . S
C1219 C1221 1.433 . S
C1220 C1216 1.350 . S
C1220 C1217 1.463 . S
C1220 N1224 1.427 . S
C1221 H1211 0.929 . S
C1221 C1219 1.433 . S
C1221 N1224 1.384 . S
C1222 H1213 0.929 . S
C1222 C1214 1.378 . S
C1222 C1217 1.350 . S
C1223 H1210 0.929 . S
C1223 C1215 1.433 . S
C1223 N1225 1.384 . S
N1224 C1220 1.427 . S
N1224 C1221 1.384 . S
N1225 C1217 1.427 . S
N1225 C1223 1.384 . S
H1226 C1232 0.930 . S
H1227 C1236 0.930 . S
H1228 C1241 0.929 . S
H1229 C1239 0.929 . S
H1230 C1234 0.929 . S
H1231 C1240 0.929 . S
C1232 H1226 0.930 . S
C1232 C1233 1.367 . S
C1232 C1240 1.378 . S
C1233 C1232 1.367 . S
C1233 C1241 1.433 . S
C1234 H1230 0.929 . S
C1234 C1236 1.378 . S
C1234 C1238 1.350 . S
C1235 C1238 1.463 . S
C1235 C1240 1.350 . S
C1235 N1243 1.427 . S
C1236 H1227 0.930 . S
C1236 C1234 1.378 . S
C1236 C1237 1.367 . S
C1237 C1236 1.367 . S
C1237 C1239 1.433 . S
C1238 C1234 1.350 . S
C1238 C1235 1.463 . S
C1238 N1242 1.427 . S
C1239 H1229 0.929 . S
C1239 C1237 1.433 . S
C1239 N1242 1.384 . S
C1240 H1231 0.929 . S
C1240 C1232 1.378 . S
C1240 C1235 1.350 . S
C1241 H1228 0.929 . S
C1241 C1233 1.433 . S
C1241 N1243 1.384 . S
N1242 C1238 1.427 . S
N1242 C1239 1.384 . S
N1243 C1235 1.427 . S
N1243 C1241 1.384 . S
H1244 C1250 0.930 . S
H1245 C1254 0.930 . S
H1246 C1259 0.929 . S
H1247 C1257 0.929 . S
H1248 C1252 0.929 . S
H1249 C1258 0.929 . S
C1250 H1244 0.930 . S
C1250 C1251 1.367 . S
C1250 C1258 1.378 . S
C1251 C1250 1.367 . S
C1251 C1259 1.433 . S
C1252 H1248 0.929 . S
C1252 C1254 1.378 . S
C1252 C1256 1.350 . S
C1253 C1256 1.463 . S
C1253 C1258 1.350 . S
C1253 N1261 1.427 . S
C1254 H1245 0.930 . S
C1254 C1252 1.378 . S
C1254 C1255 1.367 . S
C1255 C1254 1.367 . S
C1255 C1257 1.433 . S
C1256 C1252 1.350 . S
C1256 C1253 1.463 . S
C1256 N1260 1.427 . S
C1257 H1247 0.929 . S
C1257 C1255 1.433 . S
C1257 N1260 1.384 . S
C1258 H1249 0.929 . S
C1258 C1250 1.378 . S
C1258 C1253 1.350 . S
C1259 H1246 0.929 . S
C1259 C1251 1.433 . S
C1259 N1261 1.384 . S
N1260 C1256 1.427 . S
N1260 C1257 1.384 . S
N1261 C1253 1.427 . S
N1261 C1259 1.384 . S
H1262 C1268 0.930 . S
H1263 C1272 0.930 . S
H1264 C1277 0.929 . S
H1265 C1275 0.929 . S
H1266 C1270 0.929 . S
H1267 C1276 0.929 . S
C1268 H1262 0.930 . S
C1268 C1269 1.367 . S
C1268 C1276 1.378 . S
C1269 C1268 1.367 . S
C1269 C1277 1.433 . S
C1270 H1266 0.929 . S
C1270 C1272 1.378 . S
C1270 C1274 1.350 . S
C1271 C1274 1.463 . S
C1271 C1276 1.350 . S
C1271 N1279 1.427 . S
C1272 H1263 0.930 . S
C1272 C1270 1.378 . S
C1272 C1273 1.367 . S
C1273 C1272 1.367 . S
C1273 C1275 1.433 . S
C1274 C1270 1.350 . S
C1274 C1271 1.463 . S
C1274 N1278 1.427 . S
C1275 H1265 0.929 . S
C1275 C1273 1.433 . S
C1275 N1278 1.384 . S
C1276 H1267 0.929 . S
C1276 C1268 1.378 . S
C1276 C1271 1.350 . S
C1277 H1264 0.929 . S
C1277 C1269 1.433 . S
C1277 N1279 1.384 . S
N1278 C1274 1.427 . S
N1278 C1275 1.384 . S
N1279 C1271 1.427 . S
N1279 C1277 1.384 . S
H1280 C1286 0.930 . S
H1281 C1290 0.930 . S
H1282 C1295 0.929 . S
H1283 C1293 0.929 . S
H1284 C1288 0.929 . S
H1285 C1294 0.929 . S
C1286 H1280 0.930 . S
C1286 C1287 1.367 . S
C1286 C1294 1.378 . S
C1287 C1286 1.367 . S
C1287 C1295 1.433 . S
C1288 H1284 0.929 . S
C1288 C1290 1.378 . S
C1288 C1292 1.350 . S
C1289 C1292 1.463 . S
C1289 C1294 1.350 . S
C1289 N1297 1.427 . S
C1290 H1281 0.930 . S
C1290 C1288 1.378 . S
C1290 C1291 1.367 . S
C1291 C1290 1.367 . S
C1291 C1293 1.433 . S
C1292 C1288 1.350 . S
C1292 C1289 1.463 . S
C1292 N1296 1.427 . S
C1293 H1283 0.929 . S
C1293 C1291 1.433 . S
C1293 N1296 1.384 . S
C1294 H1285 0.929 . S
C1294 C1286 1.378 . S
C1294 C1289 1.350 . S
C1295 H1282 0.929 . S
C1295 C1287 1.433 . S
C1295 N1297 1.384 . S
N1296 C1292 1.427 . S
N1296 C1293 1.384 . S
N1297 C1289 1.427 . S
N1297 C1295 1.384 . S
H1298 C1304 0.930 . S
H1299 C1308 0.930 . S
H1300 C1313 0.929 . S
H1301 C1311 0.929 . S
H1302 C1306 0.929 . S
H1303 C1312 0.929 . S
C1304 H1298 0.930 . S
C1304 C1305 1.367 . S
C1304 C1312 1.378 . S
C1305 C1304 1.367 . S
C1305 C1313 1.433 . S
C1306 H1302 0.929 . S
C1306 C1308 1.378 . S
C1306 C1310 1.350 . S
C1307 C1310 1.463 . S
C1307 C1312 1.350 . S
C1307 N1315 1.427 . S
C1308 H1299 0.930 . S
C1308 C1306 1.378 . S
C1308 C1309 1.367 . S
C1309 C1308 1.367 . S
C1309 C1311 1.433 . S
C1310 C1306 1.350 . S
C1310 C1307 1.463 . S
C1310 N1314 1.427 . S
C1311 H1301 0.929 . S
C1311 C1309 1.433 . S
C1311 N1314 1.384 . S
C1312 H1303 0.929 . S
C1312 C1304 1.378 . S
C1312 C1307 1.350 . S
C1313 H1300 0.929 . S
C1313 C1305 1.433 . S
C1313 N1315 1.384 . S
N1314 C1310 1.427 . S
N1314 C1311 1.384 . S
N1315 C1307 1.427 . S
N1315 C1313 1.384 . S
H1316 C1322 0.930 . S
H1317 C1326 0.930 . S
H1318 C1331 0.929 . S
H1319 C1329 0.929 . S
H1320 C1324 0.929 . S
H1321 C1330 0.929 . S
C1322 H1316 0.930 . S
C1322 C1323 1.367 . S
C1322 C1330 1.378 . S
C1323 C1322 1.367 . S
C1323 C1331 1.433 . S
C1324 H1320 0.929 . S
C1324 C1326 1.378 . S
C1324 C1328 1.350 . S
C1325 C1328 1.463 . S
C1325 C1330 1.350 . S
C1325 N1333 1.427 . S
C1326 H1317 0.930 . S
C1326 C1324 1.378 . S
C1326 C1327 1.367 . S
C1327 C1326 1.367 . S
C1327 C1329 1.433 . S
C1328 C1324 1.350 . S
C1328 C1325 1.463 . S
C1328 N1332 1.427 . S
C1329 H1319 0.929 . S
C1329 C1327 1.433 . S
C1329 N1332 1.384 . S
C1330 H1321 0.929 . S
C1330 C1322 1.378 . S
C1330 C1325 1.350 . S
C1331 H1318 0.929 . S
C1331 C1323 1.433 . S
C1331 N1333 1.384 . S
N1332 C1328 1.427 . S
N1332 C1329 1.384 . S
N1333 C1325 1.427 . S
N1333 C1331 1.384 . S
H1334 C1340 0.930 . S
H1335 C1344 0.930 . S
H1336 C1349 0.929 . S
H1337 C1347 0.929 . S
H1338 C1342 0.929 . S
H1339 C1348 0.929 . S
C1340 H1334 0.930 . S
C1340 C1341 1.367 . S
C1340 C1348 1.378 . S
C1341 C1340 1.367 . S
C1341 C1349 1.433 . S
C1342 H1338 0.929 . S
C1342 C1344 1.378 . S
C1342 C1346 1.350 . S
C1343 C1346 1.463 . S
C1343 C1348 1.350 . S
C1343 N1351 1.427 . S
C1344 H1335 0.930 . S
C1344 C1342 1.378 . S
C1344 C1345 1.367 . S
C1345 C1344 1.367 . S
C1345 C1347 1.433 . S
C1346 C1342 1.350 . S
C1346 C1343 1.463 . S
C1346 N1350 1.427 . S
C1347 H1337 0.929 . S
C1347 C1345 1.433 . S
C1347 N1350 1.384 . S
C1348 H1339 0.929 . S
C1348 C1340 1.378 . S
C1348 C1343 1.350 . S
C1349 H1336 0.929 . S
C1349 C1341 1.433 . S
C1349 N1351 1.384 . S
N1350 C1346 1.427 . S
N1350 C1347 1.384 . S
N1351 C1343 1.427 . S
N1351 C1349 1.384 . S
H1352 C1358 0.930 . S
H1353 C1362 0.930 . S
H1354 C1367 0.929 . S
H1355 C1365 0.929 . S
H1356 C1360 0.929 . S
H1357 C1366 0.929 . S
C1358 H1352 0.930 . S
C1358 C1359 1.367 . S
C1358 C1366 1.378 . S
C1359 C1358 1.367 . S
C1359 C1367 1.433 . S
C1360 H1356 0.929 . S
C1360 C1362 1.378 . S
C1360 C1364 1.350 . S
C1361 C1364 1.463 . S
C1361 C1366 1.350 . S
C1361 N1369 1.427 . S
C1362 H1353 0.930 . S
C1362 C1360 1.378 . S
C1362 C1363 1.367 . S
C1363 C1362 1.367 . S
C1363 C1365 1.433 . S
C1364 C1360 1.350 . S
C1364 C1361 1.463 . S
C1364 N1368 1.427 . S
C1365 H1355 0.929 . S
C1365 C1363 1.433 . S
C1365 N1368 1.384 . S
C1366 H1357 0.929 . S
C1366 C1358 1.378 . S
C1366 C1361 1.350 . S
C1367 H1354 0.929 . S
C1367 C1359 1.433 . S
C1367 N1369 1.384 . S
N1368 C1364 1.427 . S
N1368 C1365 1.384 . S
N1369 C1361 1.427 . S
N1369 C1367 1.384 . S
H1370 C1376 0.930 . S
H1371 C1380 0.930 . S
H1372 C1385 0.929 . S
H1373 C1383 0.929 . S
H1374 C1378 0.929 . S
H1375 C1384 0.929 . S
C1376 H1370 0.930 . S
C1376 C1377 1.367 . S
C1376 C1384 1.378 . S
C1377 C1376 1.367 . S
C1377 C1385 1.433 . S
C1378 H1374 0.929 . S
C1378 C1380 1.378 . S
C1378 C1382 1.350 . S
C1379 C1382 1.463 . S
C1379 C1384 1.350 . S
C1379 N1387 1.427 . S
C1380 H1371 0.930 . S
C1380 C1378 1.378 . S
C1380 C1381 1.367 . S
C1381 C1380 1.367 . S
C1381 C1383 1.433 . S
C1382 C1378 1.350 . S
C1382 C1379 1.463 . S
C1382 N1386 1.427 . S
C1383 H1373 0.929 . S
C1383 C1381 1.433 . S
C1383 N1386 1.384 . S
C1384 H1375 0.929 . S
C1384 C1376 1.378 . S
C1384 C1379 1.350 . S
C1385 H1372 0.929 . S
C1385 C1377 1.433 . S
C1385 N1387 1.384 . S
N1386 C1382 1.427 . S
N1386 C1383 1.384 . S
N1387 C1379 1.427 . S
N1387 C1385 1.384 . S
H1388 C1394 0.930 . S
H1389 C1398 0.930 . S
H1390 C1403 0.929 . S
H1391 C1401 0.929 . S
H1392 C1396 0.929 . S
H1393 C1402 0.929 . S
C1394 H1388 0.930 . S
C1394 C1395 1.367 . S
C1394 C1402 1.378 . S
C1395 C1394 1.367 . S
C1395 C1403 1.433 . S
C1396 H1392 0.929 . S
C1396 C1398 1.378 . S
C1396 C1400 1.350 . S
C1397 C1400 1.463 . S
C1397 C1402 1.350 . S
C1397 N1405 1.427 . S
C1398 H1389 0.930 . S
C1398 C1396 1.378 . S
C1398 C1399 1.367 . S
C1399 C1398 1.367 . S
C1399 C1401 1.433 . S
C1400 C1396 1.350 . S
C1400 C1397 1.463 . S
C1400 N1404 1.427 . S
C1401 H1391 0.929 . S
C1401 C1399 1.433 . S
C1401 N1404 1.384 . S
C1402 H1393 0.929 . S
C1402 C1394 1.378 . S
C1402 C1397 1.350 . S
C1403 H1390 0.929 . S
C1403 C1395 1.433 . S
C1403 N1405 1.384 . S
N1404 C1400 1.427 . S
N1404 C1401 1.384 . S
N1405 C1397 1.427 . S
N1405 C1403 1.384 . S
H1406 C1412 0.930 . S
H1407 C1416 0.930 . S
H1408 C1421 0.929 . S
H1409 C1419 0.929 . S
H1410 C1414 0.929 . S
H1411 C1420 0.929 . S
C1412 H1406 0.930 . S
C1412 C1413 1.367 . S
C1412 C1420 1.378 . S
C1413 C1412 1.367 . S
C1413 C1421 1.433 . S
C1414 H1410 0.929 . S
C1414 C1416 1.378 . S
C1414 C1418 1.350 . S
C1415 C1418 1.463 . S
C1415 C1420 1.350 . S
C1415 N1423 1.427 . S
C1416 H1407 0.930 . S
C1416 C1414 1.378 . S
C1416 C1417 1.367 . S
C1417 C1416 1.367 . S
C1417 C1419 1.433 . S
C1418 C1414 1.350 . S
C1418 C1415 1.463 . S
C1418 N1422 1.427 . S
C1419 H1409 0.929 . S
C1419 C1417 1.433 . S
C1419 N1422 1.384 . S
C1420 H1411 0.929 . S
C1420 C1412 1.378 . S
C1420 C1415 1.350 . S
C1421 H1408 0.929 . S
C1421 C1413 1.433 . S
C1421 N1423 1.384 . S
N1422 C1418 1.427 . S
N1422 C1419 1.384 . S
N1423 C1415 1.427 . S
N1423 C1421 1.384 . S
H1424 C1430 0.930 . S
H1425 C1434 0.930 . S
H1426 C1439 0.929 . S
H1427 C1437 0.929 . S
H1428 C1432 0.929 . S
H1429 C1438 0.929 . S
C1430 H1424 0.930 . S
C1430 C1431 1.367 . S
C1430 C1438 1.378 . S
C1431 C1430 1.367 . S
C1431 C1439 1.433 . S
C1432 H1428 0.929 . S
C1432 C1434 1.378 . S
C1432 C1436 1.350 . S
C1433 C1436 1.463 . S
C1433 C1438 1.350 . S
C1433 N1441 1.427 . S
C1434 H1425 0.930 . S
C1434 C1432 1.378 . S
C1434 C1435 1.367 . S
C1435 C1434 1.367 . S
C1435 C1437 1.433 . S
C1436 C1432 1.350 . S
C1436 C1433 1.463 . S
C1436 N1440 1.427 . S
C1437 H1427 0.929 . S
C1437 C1435 1.433 . S
C1437 N1440 1.384 . S
C1438 H1429 0.929 . S
C1438 C1430 1.378 . S
C1438 C1433 1.350 . S
C1439 H1426 0.929 . S
C1439 C1431 1.433 . S
C1439 N1441 1.384 . S
N1440 C1436 1.427 . S
N1440 C1437 1.384 . S
N1441 C1433 1.427 . S
N1441 C1439 1.384 . S
H1442 C1448 0.930 . S
H1443 C1452 0.930 . S
H1444 C1457 0.929 . S
H1445 C1455 0.929 . S
H1446 C1450 0.929 . S
H1447 C1456 0.929 . S
C1448 H1442 0.930 . S
C1448 C1449 1.367 . S
C1448 C1456 1.378 . S
C1449 C1448 1.367 . S
C1449 C1457 1.433 . S
C1450 H1446 0.929 . S
C1450 C1452 1.378 . S
C1450 C1454 1.350 . S
C1451 C1454 1.463 . S
C1451 C1456 1.350 . S
C1451 N1459 1.427 . S
C1452 H1443 0.930 . S
C1452 C1450 1.378 . S
C1452 C1453 1.367 . S
C1453 C1452 1.367 . S
C1453 C1455 1.433 . S
C1454 C1450 1.350 . S
C1454 C1451 1.463 . S
C1454 N1458 1.427 . S
C1455 H1445 0.929 . S
C1455 C1453 1.433 . S
C1455 N1458 1.384 . S
C1456 H1447 0.929 . S
C1456 C1448 1.378 . S
C1456 C1451 1.350 . S
C1457 H1444 0.929 . S
C1457 C1449 1.433 . S
C1457 N1459 1.384 . S
N1458 C1454 1.427 . S
N1458 C1455 1.384 . S
N1459 C1451 1.427 . S
N1459 C1457 1.384 . S
C607 C301 1.300 . S
C603 N2 1.280 . S
C625 C339 2.502 . S
C621 C7 2.513 . S
C643 C360 1.646 . S
C639 N12 1.513 . S
C657 C16 1.919 . S
C661 C398 1.961 . S
C679 C438 2.598 . S
C675 C30 2.594 1_565 S
C697 C501 1.423 . S
C693 N35 1.370 . S
C711 C39 2.118 . S
C715 C539 2.085 . S
C733 C560 1.176 . S
C729 N25 1.126 . S
C751 C307 1.193 . S
C747 N58 1.151 . S
C765 N81 1.967 . S
C769 C336 1.968 . S
C787 C379 1.345 . S
C783 N104 1.306 . S
C801 N127 1.174 . S
C805 C421 1.185 . S
C823 C461 0.877 . S
C819 N48 0.879 1_565 S
C841 C507 1.561 . S
C837 N71 1.509 1_556 S
C855 N94 1.421 . S
C859 C536 1.393 . S
C877 C579 1.835 . S
C873 N117 1.824 . S
C891 C85 2.402 . S
C895 C278 2.362 . S
C909 C122 2.447 . S
C913 C467 2.431 . S
C927 C53 1.940 . S
C931 C478 1.905 . S
C949 C520 1.398 . S
C945 C76 1.418 1_655 S
C967 C576 1.812 . S
C963 C99 1.819 . S
C985 C376 1.984 . S
C981 C131 1.965 . S
C1003 C427 1.808 . S
C999 C62 1.822 1_565 S
C1017 C108 1.112 . S
C1021 C320 1.111 . S
C1039 C581 1.355 . S
C1035 N140 1.324 . S
C1053 C145 2.503 . S
C1057 C459 2.494 . S
C1075 C480 1.527 . S
C1071 N150 1.406 . S
C1089 C154 1.933 . S
C1093 C518 1.973 . S
C1111 C318 2.602 . S
C1107 C168 2.603 . S
C1125 N173 1.241 . S
C1129 C381 1.300 . S
C1147 C419 2.090 . S
C1143 C177 2.128 . S
C1165 C280 1.228 . S
C1161 N163 1.156 . S
C1183 C587 1.663 . S
C1179 C200 1.652 . S
C1201 C456 2.256 . S
C1197 N219 2.256 . S
C1215 N242 1.551 . S
C1219 C499 1.605 . S
C1237 C541 1.437 . S
C1233 C269 1.470 . S
C1255 C341 1.150 . S
C1251 C191 1.173 . S
C1269 N209 1.753 . S
C1273 C387 1.817 . S
C1287 N232 1.715 . S
C1291 C416 1.705 . S
C1305 C260 2.362 . S
C1309 C299 2.336 . S
C1323 C223 2.092 . S
C1327 C558 2.058 . S
C1341 N255 1.988 . S
C1345 C347 2.008 . S
C1359 N186 1.470 . S
C1363 C358 1.476 . S
C1381 C400 1.113 . S
C1377 C214 1.122 . S
C1399 C296 1.488 . S
C1395 C237 1.488 . S
C1417 C496 1.567 . S
C1413 N265 1.490 . S
C1435 C547 1.420 . S
C1431 N196 1.427 . S
C1453 C440 0.821 . S
C1449 C246 0.815 . S
