# Generated by pormake.
# Topology anh, (6,3)-cn, num edge types: 1
# Building blocks:
#     Node 0, Type 0, BuildingBlock: BETDAH_clean_sbu_0, # of connection points: 6
#     Node 1, Type 0, BuildingBlock: BETDAH_clean_sbu_0, # of connection points: 6
#     Node 2, Type 0, BuildingBlock: BETDAH_clean_sbu_0, # of connection points: 6
#     Node 3, Type 1, BuildingBlock: OLANEW_clean_sbu_2, # of connection points: 3
#     Node 4, Type 1, BuildingBlock: OLANEW_clean_sbu_2, # of connection points: 3
#     Node 5, Type 1, BuildingBlock: OLANEW_clean_sbu_2, # of connection points: 3
#     Node 6, Type 1, BuildingBlock: OLANEW_clean_sbu_2, # of connection points: 3
#     Node 7, Type 1, BuildingBlock: OLANEW_clean_sbu_2, # of connection points: 3
#     Node 8, Type 1, BuildingBlock: OLANEW_clean_sbu_2, # of connection points: 3
#     Edge 9, Type (0, 1), BuildingBlock: KIFKEQ_clean_linker_1, # of connection points: 2
#     Edge 10, Type (0, 1), BuildingBlock: KIFKEQ_clean_linker_1, # of connection points: 2
#     Edge 11, Type (0, 1), BuildingBlock: KIFKEQ_clean_linker_1, # of connection points: 2
#     Edge 12, Type (0, 1), BuildingBlock: KIFKEQ_clean_linker_1, # of connection points: 2
#     Edge 13, Type (0, 1), BuildingBlock: KIFKEQ_clean_linker_1, # of connection points: 2
#     Edge 14, Type (0, 1), BuildingBlock: KIFKEQ_clean_linker_1, # of connection points: 2
#     Edge 15, Type (0, 1), BuildingBlock: KIFKEQ_clean_linker_1, # of connection points: 2
#     Edge 16, Type (0, 1), BuildingBlock: KIFKEQ_clean_linker_1, # of connection points: 2
#     Edge 17, Type (0, 1), BuildingBlock: KIFKEQ_clean_linker_1, # of connection points: 2
#     Edge 18, Type (0, 1), BuildingBlock: KIFKEQ_clean_linker_1, # of connection points: 2
#     Edge 19, Type (0, 1), BuildingBlock: KIFKEQ_clean_linker_1, # of connection points: 2
#     Edge 20, Type (0, 1), BuildingBlock: KIFKEQ_clean_linker_1, # of connection points: 2
#     Edge 21, Type (0, 1), BuildingBlock: KIFKEQ_clean_linker_1, # of connection points: 2
#     Edge 22, Type (0, 1), BuildingBlock: KIFKEQ_clean_linker_1, # of connection points: 2
#     Edge 23, Type (0, 1), BuildingBlock: KIFKEQ_clean_linker_1, # of connection points: 2
#     Edge 24, Type (0, 1), BuildingBlock: KIFKEQ_clean_linker_1, # of connection points: 2
#     Edge 25, Type (0, 1), BuildingBlock: KIFKEQ_clean_linker_1, # of connection points: 2
#     Edge 26, Type (0, 1), BuildingBlock: KIFKEQ_clean_linker_1, # of connection points: 2
# Relax obj value: 0.139
# Max RMSD: 0.170
# Mean RMSD: 0.114
data_MOF--net-anh--node1-BETDAH_clean_sbu_0--node2-OLANEW_clean_sbu_2--edge1-KIFKEQ_clean_linker_1
_symmetry_space_group_name_H-M    P1
_symmetry_Int_Tables_number       1
_symmetry_cell_setting            triclinic
loop_
_symmetry_equiv_pos_as_xyz
'x, y, z'
_cell_length_a     37.8596
_cell_length_b     42.136564
_cell_length_c     51.135917
_cell_angle_alpha  91.984326
_cell_angle_beta   89.616027
_cell_angle_gamma 130.14824
loop_
_atom_site_label
_atom_site_type_symbol
_atom_site_fract_x
_atom_site_fract_y
_atom_site_fract_z
_atom_type_partial_charge
Ho0 Ho 0.03525 0.47897 0.12186 0.0
Ho1 Ho 0.98567 0.50785 0.14655 0.0
C2 C 0.09244 0.57732 0.13538 0.0
C3 C 0.08418 0.46763 0.09465 0.0
C4 C 0.12884 0.47894 0.10085 0.0
C5 C 0.14029 0.45597 0.0895 0.0
C6 C 0.17824 0.4611 0.09911 0.0
C7 C 0.20497 0.4891 0.12033 0.0
C8 C 0.19482 0.51372 0.13063 0.0
C9 C 0.15695 0.50857 0.12103 0.0
C10 C 0.03426 0.48022 0.17479 0.0
C11 C 0.92742 0.40977 0.1319 0.0
C12 C 0.94278 0.52094 0.17843 0.0
C13 C 0.89656 0.507 0.18326 0.0
C14 C 0.88352 0.50591 0.20912 0.0
C15 C 0.84216 0.49773 0.21431 0.0
C16 C 0.81331 0.49077 0.19365 0.0
C17 C 0.82545 0.48978 0.16773 0.0
C18 C 0.86671 0.4977 0.16257 0.0
C19 C 0.98736 0.5074 0.09365 0.0
O20 O 0.08942 0.54928 0.12046 0.0
O21 O 0.05854 0.5668 0.15077 0.0
O22 O 0.05084 0.43972 0.10971 0.0
O23 O 0.08459 0.49849 0.09121 0.0
O24 O 0.0354 0.45491 0.16061 0.0
O25 O 0.03902 0.50621 0.16038 0.0
O26 O 0.9302 0.43808 0.14625 0.0
O27 O 0.96181 0.41957 0.11711 0.0
O28 O 0.96323 0.5421 0.15741 0.0
O29 O 0.94886 0.49429 0.18264 0.0
O30 O 0.98544 0.53236 0.10785 0.0
O31 O 0.98267 0.48131 0.10792 0.0
H32 H 0.11854 0.43259 0.07414 0.0
H33 H 0.18497 0.44143 0.09095 0.0
H34 H 0.21516 0.5359 0.14676 0.0
H35 H 0.14831 0.5263 0.13022 0.0
H36 H 0.9061 0.51274 0.22532 0.0
H37 H 0.8334 0.49801 0.23448 0.0
H38 H 0.8043 0.48496 0.15134 0.0
H39 H 0.87609 0.49815 0.14244 0.0
Ho40 Ho 0.55962 0.02489 0.48616 0.0
Ho41 Ho 0.49998 0.04321 0.46416 0.0
C42 C 0.45009 0.94929 0.47332 0.0
C43 C 0.59503 0.00152 0.51463 0.0
C44 C 0.58303 0.96272 0.52307 0.0
C45 C 0.6115 0.96463 0.54155 0.0
C46 C 0.60126 0.92824 0.5497 0.0
C47 C 0.56212 0.88913 0.53958 0.0
C48 C 0.53337 0.8874 0.52114 0.0
C49 C 0.54383 0.92394 0.51292 0.0
C50 C 0.5569 0.02544 0.43352 0.0
C51 C 0.61165 0.1172 0.47122 0.0
C52 C 0.46597 0.07153 0.44027 0.0
C53 C 0.47509 0.11112 0.44383 0.0
C54 C 0.51928 0.14769 0.45156 0.0
C55 C 0.52663 0.184 0.4581 0.0
C56 C 0.48986 0.18446 0.4573 0.0
C57 C 0.44584 0.14807 0.44892 0.0
C58 C 0.43856 0.11171 0.44222 0.0
C59 C 0.50534 0.045 0.51692 0.0
O60 O 0.48652 0.96345 0.48819 0.0
O61 O 0.45024 0.97414 0.45812 0.0
O62 O 0.60331 0.0089 0.48977 0.0
O63 O 0.56988 0.01027 0.52401 0.0
O64 O 0.59296 0.03771 0.44696 0.0
O65 O 0.5232 0.01059 0.44835 0.0
O66 O 0.57291 0.10268 0.45892 0.0
O67 O 0.61345 0.09411 0.48702 0.0
O68 O 0.44599 0.04703 0.45995 0.0
O69 O 0.49974 0.07367 0.431 0.0
O70 O 0.46865 0.03163 0.50391 0.0
O71 O 0.53801 0.05903 0.50149 0.0
H72 H 0.64199 0.99437 0.54953 0.0
H73 H 0.62465 0.93088 0.56353 0.0
H74 H 0.50272 0.85785 0.51313 0.0
H75 H 0.52154 0.92199 0.49856 0.0
H76 H 0.54791 0.14796 0.4534 0.0
H77 H 0.56078 0.21125 0.46486 0.0
H78 H 0.4169 0.14754 0.44791 0.0
H79 H 0.40412 0.08372 0.43652 0.0
Ho80 Ho 0.58177 0.5753 0.85809 0.0
Ho81 Ho 0.51367 0.48461 0.87048 0.0
C82 C 0.47267 0.53006 0.86571 0.0
C83 C 0.62376 0.64566 0.83639 0.0
C84 C 0.61137 0.67127 0.83061 0.0
C85 C 0.63324 0.69911 0.81032 0.0
C86 C 0.62045 0.7225 0.80394 0.0
C87 C 0.58555 0.7184 0.81781 0.0
C88 C 0.56385 0.69047 0.83826 0.0
C89 C 0.57654 0.66699 0.84454 0.0
C90 C 0.57118 0.56037 0.90961 0.0
C91 C 0.62472 0.53202 0.86764 0.0
C92 C 0.46929 0.41047 0.88675 0.0
C93 C 0.47113 0.37787 0.87834 0.0
C94 C 0.51067 0.38856 0.86615 0.0
C95 C 0.51041 0.35781 0.85487 0.0
C96 C 0.47041 0.31574 0.85527 0.0
C97 C 0.43132 0.30501 0.86828 0.0
C98 C 0.43169 0.33591 0.87968 0.0
C99 C 0.52543 0.50047 0.81895 0.0
O100 O 0.51135 0.55866 0.8533 0.0
O101 O 0.46869 0.50124 0.87865 0.0
O102 O 0.62881 0.64236 0.86115 0.0
O103 O 0.60026 0.61016 0.82317 0.0
O104 O 0.6099 0.59117 0.89952 0.0
O105 O 0.53953 0.54136 0.8924 0.0
O106 O 0.58331 0.50055 0.87631 0.0
O107 O 0.63189 0.56356 0.85647 0.0
O108 O 0.45271 0.41961 0.86905 0.0
O109 O 0.50643 0.44358 0.8986 0.0
O110 O 0.48625 0.47084 0.82898 0.0
O111 O 0.55665 0.51837 0.83637 0.0
H112 H 0.65985 0.70241 0.79921 0.0
H113 H 0.63731 0.74319 0.78781 0.0
H114 H 0.53725 0.6869 0.84954 0.0
H115 H 0.55906 0.64541 0.8602 0.0
H116 H 0.54134 0.42079 0.8646 0.0
H117 H 0.54129 0.36705 0.84537 0.0
H118 H 0.39984 0.27292 0.86871 0.0
H119 H 0.40066 0.32715 0.8887 0.0
O120 O 0.56373 0.03204 0.22221 0.0
Cd121 Cd 0.5627 0.03487 0.17455 0.0
O122 O 0.50087 0.96652 0.22559 0.0
Cd123 Cd 0.48136 0.94628 0.18446 0.0
O124 O 0.42273 0.88925 0.16372 0.0
C125 C 0.38801 0.86669 0.17836 0.0
O126 O 0.39124 0.88035 0.20247 0.0
C127 C 0.53456 0.00136 0.23623 0.0
C128 C 0.63876 0.11456 0.15966 0.0
O129 O 0.60169 0.10657 0.16763 0.0
O130 O 0.63979 0.08474 0.15823 0.0
O131 O 0.57458 0.50942 0.61277 0.0
Cd132 Cd 0.58011 0.51134 0.565 0.0
O133 O 0.55469 0.54763 0.60966 0.0
Cd134 Cd 0.53848 0.58765 0.62058 0.0
O135 O 0.53151 0.63434 0.6134 0.0
C136 C 0.54211 0.64874 0.5906 0.0
O137 O 0.55581 0.63473 0.57361 0.0
C138 C 0.56308 0.52892 0.62392 0.0
C139 C 0.55839 0.44001 0.54096 0.0
O140 O 0.5998 0.47061 0.54872 0.0
O141 O 0.52709 0.44295 0.54485 0.0
O142 O 0.08623 0.5303 0.89838 0.0
Cd143 Cd 0.14322 0.55015 0.86308 0.0
O144 O 0.04006 0.54141 0.88316 0.0
Cd145 Cd 0.98101 0.5423 0.88528 0.0
O146 O 0.92276 0.54357 0.87935 0.0
C147 C 0.89076 0.53015 0.89582 0.0
O148 O 0.89171 0.51498 0.91757 0.0
C149 C 0.05278 0.5306 0.90148 0.0
C150 C 0.21093 0.54017 0.86789 0.0
O151 O 0.21554 0.56961 0.88037 0.0
O152 O 0.17378 0.51438 0.85412 0.0
O153 O 0.12535 0.54566 0.37821 0.0
Cd154 Cd 0.13835 0.55687 0.42559 0.0
O155 O 0.05215 0.50693 0.3872 0.0
Cd156 Cd 0.97736 0.46055 0.38144 0.0
O157 O 0.90955 0.40687 0.39471 0.0
C158 C 0.90803 0.37965 0.40607 0.0
O159 O 0.94608 0.38486 0.40811 0.0
C160 C 0.08353 0.5222 0.37025 0.0
C161 C 0.20277 0.64087 0.4402 0.0
O162 O 0.21523 0.61927 0.43561 0.0
O163 O 0.15971 0.62265 0.43792 0.0
O164 O 0.4822 0.95235 0.71018 0.0
Cd165 Cd 0.45998 0.92632 0.75428 0.0
O166 O 0.48227 0.00117 0.72589 0.0
Cd167 Cd 0.49071 0.05753 0.72716 0.0
O168 O 0.49326 0.10749 0.74335 0.0
C169 C 0.45898 0.09739 0.75652 0.0
O170 O 0.42333 0.05779 0.7588 0.0
C171 C 0.48731 0.98473 0.70654 0.0
C172 C 0.4881 0.88213 0.76759 0.0
O173 O 0.44918 0.86404 0.75587 0.0
O174 O 0.51381 0.92127 0.77293 0.0
O175 O 0.53268 0.54798 0.11939 0.0
Cd176 Cd 0.52337 0.542 0.16666 0.0
O177 O 0.4686 0.48418 0.11006 0.0
Cd178 Cd 0.45446 0.46899 0.15129 0.0
O179 O 0.44504 0.45662 0.19318 0.0
C180 C 0.41645 0.45588 0.20694 0.0
O181 O 0.41081 0.4453 0.23144 0.0
C182 C 0.50442 0.51928 0.10258 0.0
C183 C 0.57864 0.52609 0.18603 0.0
O184 O 0.53689 0.49634 0.17848 0.0
O185 O 0.5939 0.56341 0.18497 0.0
H186 H 0.27015 0.4884 0.09745 0.0
H187 H 0.21838 0.48982 0.17266 0.0
H188 H 0.3232 0.48287 0.11923 0.0
H189 H 0.27204 0.48537 0.19437 0.0
H190 H 0.32772 0.41971 0.21823 0.0
H191 H 0.27884 0.43107 0.1976 0.0
H192 H 0.39239 0.52328 0.14929 0.0
H193 H 0.44133 0.51251 0.17034 0.0
C194 C 0.27043 0.48792 0.11861 0.0
C195 C 0.24018 0.48959 0.13334 0.0
C196 C 0.30098 0.48506 0.13108 0.0
C197 C 0.30155 0.4835 0.15849 0.0
C198 C 0.272 0.48607 0.17321 0.0
C199 C 0.24169 0.48914 0.16078 0.0
C200 C 0.34222 0.44253 0.2033 0.0
C201 C 0.38784 0.46427 0.19526 0.0
C202 C 0.31434 0.44912 0.19154 0.0
C203 C 0.33171 0.47775 0.17163 0.0
C204 C 0.37778 0.50033 0.16414 0.0
C205 C 0.40567 0.49386 0.176 0.0
H206 H 0.62278 0.16841 0.43459 0.0
H207 H 0.69787 0.16094 0.49382 0.0
H208 H 0.69427 0.2333 0.42072 0.0
H209 H 0.76966 0.22694 0.48038 0.0
H210 H 0.89136 0.31193 0.42586 0.0
H211 H 0.82004 0.25139 0.44404 0.0
H212 H 0.75561 0.30491 0.43112 0.0
H213 H 0.82669 0.36495 0.41207 0.0
C214 C 0.65443 0.18102 0.44506 0.0
C215 C 0.65456 0.15928 0.46527 0.0
C216 C 0.69556 0.21847 0.43713 0.0
C217 C 0.73789 0.23532 0.44929 0.0
C218 C 0.73779 0.21445 0.47024 0.0
C219 C 0.69658 0.17676 0.47809 0.0
C220 C 0.862 0.31082 0.42691 0.0
C221 C 0.86462 0.34314 0.41737 0.0
C222 C 0.82117 0.27623 0.43758 0.0
C223 C 0.78202 0.27324 0.43916 0.0
C224 C 0.78487 0.30589 0.4299 0.0
C225 C 0.82566 0.34038 0.41903 0.0
H226 H 0.4981 0.69242 0.81578 0.0
H227 H 0.64104 0.79956 0.80385 0.0
H228 H 0.47497 0.73243 0.80447 0.0
H229 H 0.61765 0.8389 0.79115 0.0
H230 H 0.56417 0.90982 0.79663 0.0
H231 H 0.58749 0.87036 0.8093 0.0
H232 H 0.46907 0.76178 0.7671 0.0
H233 H 0.44505 0.80089 0.7551 0.0
C234 C 0.52462 0.72454 0.8108 0.0
C235 C 0.57145 0.74279 0.81077 0.0
C236 C 0.51129 0.74732 0.80396 0.0
C237 C 0.54443 0.78884 0.7968 0.0
C238 C 0.59127 0.80713 0.79683 0.0
C239 C 0.60463 0.78439 0.80378 0.0
C240 C 0.54313 0.87752 0.79006 0.0
C241 C 0.50273 0.85845 0.7749 0.0
C242 C 0.55663 0.85496 0.7972 0.0
C243 C 0.53015 0.81289 0.78922 0.0
C244 C 0.48987 0.79394 0.77393 0.0
C245 C 0.47625 0.81643 0.76691 0.0
H246 H 0.80845 0.53736 0.22948 0.0
H247 H 0.72808 0.44025 0.16926 0.0
H248 H 0.74736 0.54129 0.23385 0.0
H249 H 0.668 0.44574 0.17267 0.0
H250 H 0.6705 0.58264 0.19875 0.0
H251 H 0.72308 0.56913 0.20577 0.0
H252 H 0.60865 0.43696 0.19863 0.0
H253 H 0.55603 0.45055 0.19092 0.0
C254 C 0.77736 0.51625 0.21752 0.0
C255 C 0.7733 0.48872 0.19883 0.0
C256 C 0.74259 0.51889 0.21981 0.0
C257 C 0.70314 0.49426 0.20337 0.0
C258 C 0.69783 0.46501 0.18576 0.0
C259 C 0.73253 0.46221 0.18355 0.0
C260 C 0.65642 0.55069 0.19907 0.0
C261 C 0.60924 0.51769 0.19397 0.0
C262 C 0.68653 0.5429 0.20328 0.0
C263 C 0.67006 0.50193 0.20261 0.0
C264 C 0.62246 0.46886 0.19887 0.0
C265 C 0.59233 0.47666 0.19457 0.0
H266 H 0.37244 0.90776 0.44215 0.0
H267 H 0.43819 0.88832 0.50059 0.0
H268 H 0.31102 0.83289 0.43635 0.0
H269 H 0.37656 0.81345 0.49482 0.0
H270 H 0.29534 0.68687 0.44925 0.0
H271 H 0.35271 0.76117 0.45967 0.0
H272 H 0.24565 0.77056 0.4585 0.0
H273 H 0.18816 0.69618 0.44776 0.0
C274 C 0.37359 0.88759 0.45397 0.0
C275 C 0.41058 0.90407 0.47161 0.0
C276 C 0.33823 0.84466 0.45072 0.0
C277 C 0.33915 0.81727 0.46498 0.0
C278 C 0.37532 0.83377 0.48324 0.0
C279 C 0.41057 0.8767 0.48658 0.0
C280 C 0.28396 0.70471 0.45132 0.0
C281 C 0.23723 0.68566 0.44756 0.0
C282 C 0.31681 0.74725 0.45747 0.0
C283 C 0.30369 0.77171 0.45991 0.0
C284 C 0.25686 0.75257 0.45649 0.0
C285 C 0.22393 0.70996 0.45045 0.0
H286 H 0.50424 0.32059 0.80695 0.0
H287 H 0.43247 0.23806 0.87093 0.0
H288 H 0.50113 0.26798 0.78289 0.0
H289 H 0.42946 0.18527 0.84682 0.0
H290 H 0.39017 0.08614 0.78449 0.0
H291 H 0.39274 0.13877 0.80824 0.0
H292 H 0.53341 0.23375 0.7841 0.0
H293 H 0.53051 0.1813 0.75985 0.0
C294 C 0.4883 0.29137 0.81602 0.0
C295 C 0.46885 0.28359 0.84093 0.0
C296 C 0.48648 0.26119 0.80221 0.0
C297 C 0.46515 0.22246 0.81294 0.0
C298 C 0.4456 0.2146 0.83785 0.0
C299 C 0.44738 0.24483 0.85168 0.0
C300 C 0.4216 0.11828 0.78416 0.0
C301 C 0.46013 0.12953 0.77026 0.0
C302 C 0.42317 0.1484 0.79794 0.0
C303 C 0.46332 0.19044 0.79816 0.0
C304 C 0.50174 0.20171 0.78408 0.0
C305 C 0.50014 0.17161 0.77026 0.0
H306 H 0.572 0.87066 0.58849 0.0
H307 H 0.53058 0.82034 0.50901 0.0
H308 H 0.56371 0.81089 0.60078 0.0
H309 H 0.51989 0.75949 0.52163 0.0
H310 H 0.56846 0.68884 0.54471 0.0
H311 H 0.56858 0.74422 0.53287 0.0
H312 H 0.51062 0.73752 0.60765 0.0
H313 H 0.51174 0.68261 0.61983 0.0
C314 C 0.56079 0.8467 0.57366 0.0
C315 C 0.5525 0.85063 0.54767 0.0
C316 C 0.55542 0.8121 0.58081 0.0
C317 C 0.54142 0.78043 0.56217 0.0
C318 C 0.53147 0.78361 0.5364 0.0
C319 C 0.53703 0.8183 0.52923 0.0
C320 C 0.55557 0.69901 0.55863 0.0
C321 C 0.54027 0.68139 0.58328 0.0
C322 C 0.55529 0.73063 0.55174 0.0
C323 C 0.5395 0.74535 0.56925 0.0
C324 C 0.52355 0.7273 0.5938 0.0
C325 C 0.52399 0.6957 0.60075 0.0
H326 H 0.7152 0.59034 0.85241 0.0
H327 H 0.62331 0.47254 0.88952 0.0
H328 H 0.77907 0.5902 0.85847 0.0
H329 H 0.68671 0.47198 0.89508 0.0
H330 H 0.81854 0.50392 0.92756 0.0
H331 H 0.75579 0.50473 0.92015 0.0
H332 H 0.81172 0.55847 0.84512 0.0
H333 H 0.87544 0.55838 0.85284 0.0
C334 C 0.70843 0.56425 0.86173 0.0
C335 C 0.66381 0.53155 0.87055 0.0
C336 C 0.74517 0.56405 0.86508 0.0
C337 C 0.73854 0.53119 0.87742 0.0
C338 C 0.69371 0.49826 0.88591 0.0
C339 C 0.65704 0.49844 0.88255 0.0
C340 C 0.81767 0.51596 0.90943 0.0
C341 C 0.85237 0.53104 0.89081 0.0
C342 C 0.78124 0.51615 0.90507 0.0
C343 C 0.77806 0.53142 0.88192 0.0
C344 C 0.81297 0.5468 0.86331 0.0
C345 C 0.84952 0.54655 0.86767 0.0
H346 H 0.1033 0.6444 0.15366 0.0
H347 H 0.17957 0.60937 0.12038 0.0
H348 H 0.17474 0.71529 0.16077 0.0
H349 H 0.25185 0.68082 0.1281 0.0
H350 H 0.37019 0.82468 0.13113 0.0
H351 H 0.29875 0.75556 0.11727 0.0
H352 H 0.23841 0.7464 0.19159 0.0
H353 H 0.30859 0.81488 0.20514 0.0
C354 C 0.13538 0.65188 0.14777 0.0
C355 C 0.13582 0.62111 0.1368 0.0
C356 C 0.1764 0.69255 0.15193 0.0
C357 C 0.21909 0.70356 0.14546 0.0
C358 C 0.21949 0.67333 0.13325 0.0
C359 C 0.17815 0.63242 0.1289 0.0
C360 C 0.34148 0.8079 0.14438 0.0
C361 C 0.34504 0.82538 0.1692 0.0
C362 C 0.30073 0.76827 0.13651 0.0
C363 C 0.26276 0.74562 0.15324 0.0
C364 C 0.2666 0.76327 0.178 0.0
C365 C 0.30709 0.80255 0.18585 0.0
H366 H 0.434 0.18831 0.48885 0.0
H367 H 0.56259 0.26572 0.44758 0.0
H368 H 0.44953 0.25015 0.5079 0.0
H369 H 0.57805 0.32763 0.46651 0.0
H370 H 0.61683 0.4242 0.53093 0.0
H371 H 0.59862 0.36276 0.50914 0.0
H372 H 0.45672 0.31011 0.49844 0.0
H373 H 0.47472 0.37129 0.52078 0.0
C374 C 0.46517 0.21854 0.48345 0.0
C375 C 0.49716 0.22209 0.46678 0.0
C376 C 0.47411 0.25402 0.4944 0.0
C377 C 0.51523 0.29388 0.48891 0.0
C378 C 0.54649 0.2974 0.47157 0.0
C379 C 0.53759 0.26194 0.46066 0.0
C380 C 0.58173 0.39954 0.52394 0.0
C381 C 0.54721 0.40262 0.52765 0.0
C382 C 0.57136 0.36442 0.51126 0.0
C383 C 0.52624 0.33155 0.50193 0.0
C384 C 0.49171 0.33467 0.50562 0.0
C385 C 0.50208 0.36981 0.51834 0.0
H386 H 0.40515 0.4988 0.90225 0.0
H387 H 0.45329 0.56511 0.83054 0.0
H388 H 0.34237 0.50154 0.90332 0.0
H389 H 0.38935 0.56642 0.83121 0.0
H390 H 0.22898 0.50406 0.83076 0.0
H391 H 0.29276 0.50263 0.83016 0.0
H392 H 0.34091 0.56744 0.90551 0.0
H393 H 0.27815 0.57037 0.90574 0.0
C394 C 0.40223 0.51375 0.88663 0.0
C395 C 0.43433 0.53166 0.86627 0.0
C396 C 0.36633 0.51543 0.88732 0.0
C397 C 0.3608 0.53407 0.86732 0.0
C398 C 0.39259 0.55167 0.84684 0.0
C399 C 0.42927 0.55101 0.84651 0.0
C400 C 0.25305 0.51792 0.84726 0.0
C401 C 0.24828 0.53726 0.86833 0.0
C402 C 0.28974 0.51729 0.84682 0.0
C403 C 0.32191 0.53496 0.86777 0.0
C404 C 0.31663 0.55351 0.88911 0.0
C405 C 0.28069 0.55519 0.88922 0.0
H406 H 0.91752 0.33976 0.12715 0.0
H407 H 0.84009 0.38167 0.13791 0.0
H408 H 0.84741 0.26831 0.13262 0.0
H409 H 0.76924 0.31023 0.14142 0.0
H410 H 0.66072 0.18687 0.17787 0.0
H411 H 0.72971 0.25729 0.1696 0.0
H412 H 0.77705 0.20923 0.11715 0.0
H413 H 0.70921 0.13863 0.12714 0.0
C414 C 0.88518 0.33346 0.13009 0.0
C415 C 0.88421 0.36617 0.13229 0.0
C416 C 0.84476 0.2924 0.1331 0.0
C417 C 0.80219 0.28301 0.13774 0.0
C418 C 0.80127 0.31595 0.13871 0.0
C419 C 0.84186 0.35701 0.13643 0.0
C420 C 0.68586 0.19143 0.16451 0.0
C421 C 0.67964 0.15729 0.15319 0.0
C422 C 0.72545 0.23196 0.15953 0.0
C423 C 0.7594 0.2395 0.14252 0.0
C424 C 0.75244 0.20504 0.13076 0.0
C425 C 0.71331 0.16444 0.13629 0.0
H426 H 0.00981 0.46887 0.06327 0.0
H427 H 0.97011 0.54416 0.05914 0.0
H428 H 0.02037 0.47207 0.01643 0.0
H429 H 0.97547 0.54386 0.01168 0.0
H430 H 0.04204 0.57813 0.93137 0.0
H431 H 0.0222 0.57048 0.9773 0.0
H432 H 0.9933 0.45274 0.97534 0.0
H433 H 0.018 0.46329 0.93016 0.0
C434 C 1.00274 0.48569 0.05216 0.0
C435 C 0.99004 0.50691 0.06484 0.0
C436 C 0.00796 0.48699 0.02504 0.0
C437 C 0.99883 0.50825 0.00967 0.0
C438 C 0.9842 0.5281 0.02254 0.0
C439 C 0.98062 0.528 0.04982 0.0
C440 C 0.03081 0.55043 0.94084 0.0
C441 C 0.03165 0.52138 0.92741 0.0
C442 C 0.01914 0.54577 0.96727 0.0
C443 C 1.00662 0.51118 0.9807 0.0
C444 C 1.00439 0.48066 0.96636 0.0
C445 C 0.01777 0.48621 0.94024 0.0
H446 H 0.48126 0.99329 0.40268 0.0
H447 H 0.62667 0.05515 0.39948 0.0
H448 H 0.47648 0.98923 0.35488 0.0
H449 H 0.62188 0.05068 0.3517 0.0
H450 H 0.60343 0.06979 0.26638 0.0
H451 H 0.609 0.07751 0.3141 0.0
H452 H 0.48107 0.95142 0.31927 0.0
H453 H 0.47512 0.94375 0.27176 0.0
C454 C 0.51217 0.00604 0.39172 0.0
C455 C 0.55425 0.02428 0.40471 0.0
C456 C 0.50943 0.00355 0.36438 0.0
C457 C 0.54876 0.01943 0.3495 0.0
C458 C 0.59106 0.03848 0.36258 0.0
C459 C 0.59375 0.04081 0.38992 0.0
C460 C 0.57652 0.04371 0.27769 0.0
C461 C 0.53885 0.00615 0.2652 0.0
C462 C 0.5798 0.0481 0.30503 0.0
C463 C 0.54538 0.01512 0.32046 0.0
C464 C 0.50781 0.97761 0.30795 0.0
C465 C 0.50462 0.97315 0.28068 0.0
H466 H 0.60749 0.5515 0.79366 0.0
H467 H 0.45965 0.46814 0.78082 0.0
H468 H 0.61876 0.56277 0.7466 0.0
H469 H 0.47079 0.47921 0.73391 0.0
H470 H 0.50805 0.53628 0.6538 0.0
H471 H 0.50138 0.53403 0.7014 0.0
H472 H 0.60375 0.51915 0.70674 0.0
H473 H 0.61096 0.52211 0.65925 0.0
C474 C 0.57747 0.53579 0.78078 0.0
C475 C 0.53272 0.50882 0.7908 0.0
C476 C 0.58389 0.5421 0.75387 0.0
C477 C 0.54565 0.52186 0.73655 0.0
C478 C 0.50093 0.49561 0.74676 0.0
C479 C 0.49455 0.48903 0.77358 0.0
C480 C 0.52988 0.53352 0.66517 0.0
C481 C 0.56043 0.52988 0.6528 0.0
C482 C 0.52565 0.5317 0.69241 0.0
C483 C 0.55211 0.52649 0.70783 0.0
C484 C 0.58331 0.52369 0.69545 0.0
C485 C 0.58718 0.52509 0.66824 0.0
H486 H 0.4347 0.01094 0.55053 0.0
H487 H 0.58046 0.07396 0.54775 0.0
H488 H 0.43563 0.00269 0.59738 0.0
H489 H 0.58125 0.065 0.59484 0.0
H490 H 0.53555 0.98158 0.66841 0.0
H491 H 0.54476 0.00227 0.62312 0.0
H492 H 0.46916 0.04498 0.63958 0.0
H493 H 0.45925 0.02363 0.68463 0.0
C494 C 0.46703 0.02325 0.56001 0.0
C495 C 0.50737 0.04257 0.5455 0.0
C496 C 0.46761 0.01871 0.58685 0.0
C497 C 0.5085 0.03317 0.59974 0.0
C498 C 0.54917 0.05326 0.58532 0.0
C499 C 0.5487 0.05829 0.55844 0.0
C500 C 0.52153 0.99597 0.66241 0.0
C501 C 0.49719 0.00149 0.68013 0.0
C502 C 0.52706 0.00804 0.63657 0.0
C503 C 0.5077 0.02525 0.62786 0.0
C504 C 0.48437 0.03172 0.64577 0.0
C505 C 0.47925 0.02003 0.67167 0.0
H506 H 0.62456 0.61609 0.94977 0.0
H507 H 0.49832 0.49114 0.93289 0.0
H508 H 0.60786 0.60742 0.99624 0.0
H509 H 0.48308 0.4808 0.97941 0.0
H510 H 0.44247 0.48439 0.06173 0.0
H511 H 0.45888 0.49543 0.0153 0.0
H512 H 0.60555 0.5783 0.03371 0.0
H513 H 0.58864 0.56946 0.08008 0.0
C514 C 0.59362 0.58647 0.95614 0.0
C515 C 0.56272 0.55428 0.93785 0.0
C516 C 0.58408 0.58128 0.98283 0.0
C517 C 0.54397 0.54332 0.9919 0.0
C518 C 0.51369 0.51084 0.97338 0.0
C519 C 0.52266 0.51649 0.94666 0.0
C520 C 0.47816 0.50516 0.05573 0.0
C521 C 0.51427 0.52621 0.07444 0.0
C522 C 0.48772 0.51125 0.02906 0.0
C523 C 0.53369 0.53766 0.02043 0.0
C524 C 0.56973 0.55846 0.03937 0.0
C525 C 0.56011 0.55322 0.06604 0.0
H526 H 0.03323 0.53255 0.20716 0.0
H527 H 0.04283 0.43586 0.20743 0.0
H528 H 0.04093 0.53943 0.255 0.0
H529 H 0.05156 0.44341 0.25513 0.0
H530 H 0.13145 0.51668 0.3334 0.0
H531 H 0.11599 0.50391 0.28625 0.0
H532 H 0.99613 0.49441 0.29581 0.0
H533 H 0.01143 0.50693 0.34318 0.0
C534 C 0.03664 0.5126 0.21746 0.0
C535 C 0.03741 0.48366 0.20364 0.0
C536 C 0.04092 0.51646 0.24479 0.0
C537 C 0.04688 0.49197 0.2587 0.0
C538 C 0.04726 0.46282 0.24485 0.0
C539 C 0.0422 0.45847 0.2176 0.0
C540 C 0.10158 0.51152 0.32546 0.0
C541 C 0.07235 0.51234 0.34196 0.0
C542 C 0.09265 0.50405 0.29852 0.0
C543 C 0.05481 0.49807 0.28744 0.0
C544 C 0.02554 0.49895 0.3039 0.0
C545 C 0.03401 0.50567 0.33098 0.0
loop_
_geom_bond_atom_site_label_1
_geom_bond_atom_site_label_2
_geom_bond_distance
_geom_bond_site_symmetry_2
_ccdc_geom_bond_type
Ho0 C3 2.811 . S
Ho0 O20 2.322 . S
Ho0 O22 2.378 . S
Ho0 O23 2.524 . S
Ho0 O24 2.381 . S
Ho0 O25 2.669 . S
Ho0 O27 2.346 1_455 S
Ho0 O31 2.305 . S
Ho1 C12 2.811 . S
Ho1 O21 2.346 1_655 S
Ho1 O25 2.305 1_655 S
Ho1 O26 2.322 . S
Ho1 O28 2.378 . S
Ho1 O29 2.524 . S
Ho1 O30 2.381 1_655 S
Ho1 O31 2.669 1_655 S
C2 O20 1.259 . S
C2 O21 1.268 . S
C3 Ho0 2.811 . S
C3 C4 1.488 . S
C3 O22 1.215 . S
C3 O23 1.289 . S
C4 C3 1.488 . S
C4 C5 1.348 . S
C4 C9 1.413 . S
C5 C4 1.348 . S
C5 C6 1.442 . S
C5 H32 0.930 . S
C6 C5 1.442 . S
C6 C7 1.381 . S
C6 H33 0.931 . S
C7 C6 1.381 . S
C7 C8 1.321 . S
C8 C7 1.321 . S
C8 C9 1.403 . S
C8 H34 0.934 . S
C9 C4 1.413 . S
C9 C8 1.403 . S
C9 H35 0.930 . S
C10 O24 1.275 . S
C10 O25 1.256 . S
C11 O26 1.259 . S
C11 O27 1.268 . S
C12 Ho1 2.811 . S
C12 C13 1.488 . S
C12 O28 1.215 . S
C12 O29 1.289 . S
C13 C12 1.488 . S
C13 C14 1.348 . S
C13 C18 1.413 . S
C14 C13 1.348 . S
C14 C15 1.442 . S
C14 H36 0.930 . S
C15 C14 1.442 . S
C15 C16 1.381 . S
C15 H37 0.931 . S
C16 C15 1.381 . S
C16 C17 1.321 . S
C17 C16 1.321 . S
C17 C18 1.403 . S
C17 H38 0.934 . S
C18 C13 1.413 . S
C18 C17 1.403 . S
C18 H39 0.930 . S
C19 O30 1.275 . S
C19 O31 1.256 . S
O20 Ho0 2.322 . S
O20 C2 1.259 . S
O21 Ho1 2.346 1_455 S
O21 C2 1.268 . S
O22 Ho0 2.378 . S
O22 C3 1.215 . S
O23 Ho0 2.524 . S
O23 C3 1.289 . S
O24 Ho0 2.381 . S
O24 C10 1.275 . S
O25 Ho0 2.669 . S
O25 Ho1 2.305 1_455 S
O25 C10 1.256 . S
O26 Ho1 2.322 . S
O26 C11 1.259 . S
O27 Ho0 2.346 1_655 S
O27 C11 1.268 . S
O28 Ho1 2.378 . S
O28 C12 1.215 . S
O29 Ho1 2.524 . S
O29 C12 1.289 . S
O30 Ho1 2.381 1_455 S
O30 C19 1.275 . S
O31 Ho0 2.305 . S
O31 Ho1 2.669 1_455 S
O31 C19 1.256 . S
H32 C5 0.930 . S
H33 C6 0.931 . S
H34 C8 0.934 . S
H35 C9 0.930 . S
H36 C14 0.930 . S
H37 C15 0.931 . S
H38 C17 0.934 . S
H39 C18 0.930 . S
Ho40 C43 2.811 . S
Ho40 O60 2.322 . S
Ho40 O62 2.378 . S
Ho40 O63 2.524 . S
Ho40 O64 2.381 . S
Ho40 O65 2.669 1_565 S
Ho40 O67 2.346 1_565 S
Ho40 O71 2.305 1_565 S
Ho41 C52 2.811 . S
Ho41 O61 2.346 1_545 S
Ho41 O65 2.305 . S
Ho41 O66 2.322 . S
Ho41 O68 2.378 . S
Ho41 O69 2.524 . S
Ho41 O70 2.381 . S
Ho41 O71 2.669 . S
C42 O60 1.259 . S
C42 O61 1.268 . S
C43 Ho40 2.811 . S
C43 C44 1.488 . S
C43 O62 1.215 . S
C43 O63 1.289 . S
C44 C43 1.488 . S
C44 C45 1.348 . S
C44 C49 1.413 . S
C45 C44 1.348 . S
C45 C46 1.442 . S
C45 H72 0.930 . S
C46 C45 1.442 . S
C46 C47 1.381 . S
C46 H73 0.931 . S
C47 C46 1.381 . S
C47 C48 1.321 . S
C48 C47 1.321 . S
C48 C49 1.403 . S
C48 H74 0.934 . S
C49 C44 1.413 . S
C49 C48 1.403 . S
C49 H75 0.930 . S
C50 O64 1.275 1_545 S
C50 O65 1.256 . S
C51 O66 1.259 . S
C51 O67 1.268 . S
C52 Ho41 2.811 . S
C52 C53 1.488 . S
C52 O68 1.215 . S
C52 O69 1.289 . S
C53 C52 1.488 . S
C53 C54 1.348 . S
C53 C58 1.413 . S
C54 C53 1.348 . S
C54 C55 1.442 . S
C54 H76 0.930 . S
C55 C54 1.442 . S
C55 C56 1.381 . S
C55 H77 0.931 . S
C56 C55 1.381 . S
C56 C57 1.321 . S
C57 C56 1.321 . S
C57 C58 1.403 . S
C57 H78 0.934 . S
C58 C53 1.413 . S
C58 C57 1.403 . S
C58 H79 0.930 . S
C59 O70 1.275 . S
C59 O71 1.256 . S
O60 Ho40 2.322 . S
O60 C42 1.259 . S
O61 Ho41 2.346 1_565 S
O61 C42 1.268 . S
O62 Ho40 2.378 . S
O62 C43 1.215 . S
O63 Ho40 2.524 . S
O63 C43 1.289 . S
O64 Ho40 2.381 . S
O64 C50 1.275 1_565 S
O65 Ho40 2.669 1_545 S
O65 Ho41 2.305 . S
O65 C50 1.256 . S
O66 Ho41 2.322 . S
O66 C51 1.259 . S
O67 Ho40 2.346 1_545 S
O67 C51 1.268 . S
O68 Ho41 2.378 . S
O68 C52 1.215 . S
O69 Ho41 2.524 . S
O69 C52 1.289 . S
O70 Ho41 2.381 . S
O70 C59 1.275 . S
O71 Ho40 2.305 1_545 S
O71 Ho41 2.669 . S
O71 C59 1.256 . S
H72 C45 0.930 . S
H73 C46 0.931 . S
H74 C48 0.934 . S
H75 C49 0.930 . S
H76 C54 0.930 . S
H77 C55 0.931 . S
H78 C57 0.934 . S
H79 C58 0.930 . S
Ho80 C83 2.811 . S
Ho80 O100 2.322 . S
Ho80 O102 2.378 . S
Ho80 O103 2.524 . S
Ho80 O104 2.381 . S
Ho80 O105 2.669 . S
Ho80 O107 2.346 . S
Ho80 O111 2.305 . S
Ho81 C92 2.811 . S
Ho81 O101 2.346 . S
Ho81 O105 2.305 . S
Ho81 O106 2.322 . S
Ho81 O108 2.378 . S
Ho81 O109 2.524 . S
Ho81 O110 2.381 . S
Ho81 O111 2.669 . S
C82 O100 1.259 . S
C82 O101 1.268 . S
C83 Ho80 2.811 . S
C83 C84 1.488 . S
C83 O102 1.215 . S
C83 O103 1.289 . S
C84 C83 1.488 . S
C84 C85 1.348 . S
C84 C89 1.413 . S
C85 C84 1.348 . S
C85 C86 1.442 . S
C85 H112 0.930 . S
C86 C85 1.442 . S
C86 C87 1.381 . S
C86 H113 0.931 . S
C87 C86 1.381 . S
C87 C88 1.321 . S
C88 C87 1.321 . S
C88 C89 1.403 . S
C88 H114 0.934 . S
C89 C84 1.413 . S
C89 C88 1.403 . S
C89 H115 0.930 . S
C90 O104 1.275 . S
C90 O105 1.256 . S
C91 O106 1.259 . S
C91 O107 1.268 . S
C92 Ho81 2.811 . S
C92 C93 1.488 . S
C92 O108 1.215 . S
C92 O109 1.289 . S
C93 C92 1.488 . S
C93 C94 1.348 . S
C93 C98 1.413 . S
C94 C93 1.348 . S
C94 C95 1.442 . S
C94 H116 0.930 . S
C95 C94 1.442 . S
C95 C96 1.381 . S
C95 H117 0.931 . S
C96 C95 1.381 . S
C96 C97 1.321 . S
C97 C96 1.321 . S
C97 C98 1.403 . S
C97 H118 0.934 . S
C98 C93 1.413 . S
C98 C97 1.403 . S
C98 H119 0.930 . S
C99 O110 1.275 . S
C99 O111 1.256 . S
O100 Ho80 2.322 . S
O100 C82 1.259 . S
O101 Ho81 2.346 . S
O101 C82 1.268 . S
O102 Ho80 2.378 . S
O102 C83 1.215 . S
O103 Ho80 2.524 . S
O103 C83 1.289 . S
O104 Ho80 2.381 . S
O104 C90 1.275 . S
O105 Ho80 2.669 . S
O105 Ho81 2.305 . S
O105 C90 1.256 . S
O106 Ho81 2.322 . S
O106 C91 1.259 . S
O107 Ho80 2.346 . S
O107 C91 1.268 . S
O108 Ho81 2.378 . S
O108 C92 1.215 . S
O109 Ho81 2.524 . S
O109 C92 1.289 . S
O110 Ho81 2.381 . S
O110 C99 1.275 . S
O111 Ho80 2.305 . S
O111 Ho81 2.669 . S
O111 C99 1.256 . S
H112 C85 0.930 . S
H113 C86 0.931 . S
H114 C88 0.934 . S
H115 C89 0.930 . S
H116 C94 0.930 . S
H117 C95 0.931 . S
H118 C97 0.934 . S
H119 C98 0.930 . S
O120 Cd121 2.300 . S
O120 C127 1.275 . S
Cd121 O120 2.300 . S
Cd121 O129 2.381 . S
Cd121 O130 2.378 . S
O122 Cd123 2.385 . S
O122 C127 1.255 1_565 S
Cd123 O122 2.385 . S
Cd123 O124 2.317 . S
O124 Cd123 2.317 . S
O124 C125 1.232 . S
C125 O124 1.232 . S
C125 O126 1.218 . S
O126 C125 1.218 . S
C127 O120 1.275 . S
C127 O122 1.255 1_545 S
C128 O129 1.258 . S
C128 O130 1.256 . S
O129 Cd121 2.381 . S
O129 C128 1.258 . S
O130 Cd121 2.378 . S
O130 C128 1.256 . S
O131 Cd132 2.300 . S
O131 C138 1.275 . S
Cd132 O131 2.300 . S
Cd132 O140 2.381 . S
Cd132 O141 2.378 . S
O133 Cd134 2.385 . S
O133 C138 1.255 . S
Cd134 O133 2.385 . S
Cd134 O135 2.317 . S
O135 Cd134 2.317 . S
O135 C136 1.232 . S
C136 O135 1.232 . S
C136 O137 1.218 . S
O137 C136 1.218 . S
C138 O131 1.275 . S
C138 O133 1.255 . S
C139 O140 1.258 . S
C139 O141 1.256 . S
O140 Cd132 2.381 . S
O140 C139 1.258 . S
O141 Cd132 2.378 . S
O141 C139 1.256 . S
O142 Cd143 2.300 . S
O142 C149 1.275 . S
Cd143 O142 2.300 . S
Cd143 O151 2.381 . S
Cd143 O152 2.378 . S
O144 Cd145 2.385 1_455 S
O144 C149 1.255 . S
Cd145 O144 2.385 1_655 S
Cd145 O146 2.317 . S
O146 Cd145 2.317 . S
O146 C147 1.232 . S
C147 O146 1.232 . S
C147 O148 1.218 . S
O148 C147 1.218 . S
C149 O142 1.275 . S
C149 O144 1.255 . S
C150 O151 1.258 . S
C150 O152 1.256 . S
O151 Cd143 2.381 . S
O151 C150 1.258 . S
O152 Cd143 2.378 . S
O152 C150 1.256 . S
O153 Cd154 2.300 . S
O153 C160 1.275 1_455 S
Cd154 O153 2.300 . S
Cd154 O162 2.381 . S
Cd154 O163 2.378 . S
O155 Cd156 2.385 . S
O155 C160 1.255 . S
Cd156 O155 2.385 . S
Cd156 O157 2.317 . S
O157 Cd156 2.317 . S
O157 C158 1.232 . S
C158 O157 1.232 . S
C158 O159 1.218 . S
O159 C158 1.218 . S
C160 O153 1.275 1_655 S
C160 O155 1.255 . S
C161 O162 1.258 . S
C161 O163 1.256 . S
O162 Cd154 2.381 . S
O162 C161 1.258 . S
O163 Cd154 2.378 . S
O163 C161 1.256 . S
O164 Cd165 2.300 . S
O164 C171 1.275 1_565 S
Cd165 O164 2.300 . S
Cd165 O173 2.381 . S
Cd165 O174 2.378 . S
O166 Cd167 2.385 . S
O166 C171 1.255 . S
Cd167 O166 2.385 . S
Cd167 O168 2.317 . S
O168 Cd167 2.317 . S
O168 C169 1.232 . S
C169 O168 1.232 . S
C169 O170 1.218 . S
O170 C169 1.218 . S
C171 O164 1.275 1_545 S
C171 O166 1.255 . S
C172 O173 1.258 . S
C172 O174 1.256 . S
O173 Cd165 2.381 . S
O173 C172 1.258 . S
O174 Cd165 2.378 . S
O174 C172 1.256 . S
O175 Cd176 2.300 . S
O175 C182 1.275 . S
Cd176 O175 2.300 . S
Cd176 O184 2.381 . S
Cd176 O185 2.378 . S
O177 Cd178 2.385 . S
O177 C182 1.255 . S
Cd178 O177 2.385 . S
Cd178 O179 2.317 . S
O179 Cd178 2.317 . S
O179 C180 1.232 . S
C180 O179 1.232 . S
C180 O181 1.218 . S
O181 C180 1.218 . S
C182 O175 1.275 . S
C182 O177 1.255 . S
C183 O184 1.258 . S
C183 O185 1.256 . S
O184 Cd176 2.381 . S
O184 C183 1.258 . S
O185 Cd176 2.378 . S
O185 C183 1.256 . S
H186 C194 0.950 . S
H187 C199 0.950 . S
H188 C196 0.950 . S
H189 C198 0.950 . S
H190 C200 0.950 . S
H191 C202 0.950 . S
H192 C204 0.950 . S
H193 C205 0.950 . S
C194 H186 0.950 . S
C194 C195 1.386 . S
C194 C196 1.391 . S
C195 C194 1.386 . S
C195 C199 1.393 . S
C196 H188 0.950 . S
C196 C194 1.391 . S
C196 C197 1.400 . S
C197 C196 1.400 . S
C197 C198 1.398 . S
C197 C203 1.491 . S
C198 H189 0.950 . S
C198 C197 1.398 . S
C198 C199 1.391 . S
C199 H187 0.950 . S
C199 C195 1.393 . S
C199 C198 1.391 . S
C200 H190 0.950 . S
C200 C201 1.386 . S
C200 C202 1.391 . S
C201 C200 1.386 . S
C201 C205 1.393 . S
C202 H191 0.950 . S
C202 C200 1.391 . S
C202 C203 1.400 . S
C203 C197 1.491 . S
C203 C202 1.400 . S
C203 C204 1.398 . S
C204 H192 0.950 . S
C204 C203 1.398 . S
C204 C205 1.391 . S
C205 H193 0.950 . S
C205 C201 1.393 . S
C205 C204 1.391 . S
H206 C214 0.950 . S
H207 C219 0.950 . S
H208 C216 0.950 . S
H209 C218 0.950 . S
H210 C220 0.950 . S
H211 C222 0.950 . S
H212 C224 0.950 . S
H213 C225 0.950 . S
C214 H206 0.950 . S
C214 C215 1.386 . S
C214 C216 1.391 . S
C215 C214 1.386 . S
C215 C219 1.393 . S
C216 H208 0.950 . S
C216 C214 1.391 . S
C216 C217 1.400 . S
C217 C216 1.400 . S
C217 C218 1.398 . S
C217 C223 1.491 . S
C218 H209 0.950 . S
C218 C217 1.398 . S
C218 C219 1.391 . S
C219 H207 0.950 . S
C219 C215 1.393 . S
C219 C218 1.391 . S
C220 H210 0.950 . S
C220 C221 1.386 . S
C220 C222 1.391 . S
C221 C220 1.386 . S
C221 C225 1.393 . S
C222 H211 0.950 . S
C222 C220 1.391 . S
C222 C223 1.400 . S
C223 C217 1.491 . S
C223 C222 1.400 . S
C223 C224 1.398 . S
C224 H212 0.950 . S
C224 C223 1.398 . S
C224 C225 1.391 . S
C225 H213 0.950 . S
C225 C221 1.393 . S
C225 C224 1.391 . S
H226 C234 0.950 . S
H227 C239 0.950 . S
H228 C236 0.950 . S
H229 C238 0.950 . S
H230 C240 0.950 . S
H231 C242 0.950 . S
H232 C244 0.950 . S
H233 C245 0.950 . S
C234 H226 0.950 . S
C234 C235 1.386 . S
C234 C236 1.391 . S
C235 C234 1.386 . S
C235 C239 1.393 . S
C236 H228 0.950 . S
C236 C234 1.391 . S
C236 C237 1.400 . S
C237 C236 1.400 . S
C237 C238 1.398 . S
C237 C243 1.491 . S
C238 H229 0.950 . S
C238 C237 1.398 . S
C238 C239 1.391 . S
C239 H227 0.950 . S
C239 C235 1.393 . S
C239 C238 1.391 . S
C240 H230 0.950 . S
C240 C241 1.386 . S
C240 C242 1.391 . S
C241 C240 1.386 . S
C241 C245 1.393 . S
C242 H231 0.950 . S
C242 C240 1.391 . S
C242 C243 1.400 . S
C243 C237 1.491 . S
C243 C242 1.400 . S
C243 C244 1.398 . S
C244 H232 0.950 . S
C244 C243 1.398 . S
C244 C245 1.391 . S
C245 H233 0.950 . S
C245 C241 1.393 . S
C245 C244 1.391 . S
H246 C254 0.950 . S
H247 C259 0.950 . S
H248 C256 0.950 . S
H249 C258 0.950 . S
H250 C260 0.950 . S
H251 C262 0.950 . S
H252 C264 0.950 . S
H253 C265 0.950 . S
C254 H246 0.950 . S
C254 C255 1.386 . S
C254 C256 1.391 . S
C255 C254 1.386 . S
C255 C259 1.393 . S
C256 H248 0.950 . S
C256 C254 1.391 . S
C256 C257 1.400 . S
C257 C256 1.400 . S
C257 C258 1.398 . S
C257 C263 1.491 . S
C258 H249 0.950 . S
C258 C257 1.398 . S
C258 C259 1.391 . S
C259 H247 0.950 . S
C259 C255 1.393 . S
C259 C258 1.391 . S
C260 H250 0.950 . S
C260 C261 1.386 . S
C260 C262 1.391 . S
C261 C260 1.386 . S
C261 C265 1.393 . S
C262 H251 0.950 . S
C262 C260 1.391 . S
C262 C263 1.400 . S
C263 C257 1.491 . S
C263 C262 1.400 . S
C263 C264 1.398 . S
C264 H252 0.950 . S
C264 C263 1.398 . S
C264 C265 1.391 . S
C265 H253 0.950 . S
C265 C261 1.393 . S
C265 C264 1.391 . S
H266 C274 0.950 . S
H267 C279 0.950 . S
H268 C276 0.950 . S
H269 C278 0.950 . S
H270 C280 0.950 . S
H271 C282 0.950 . S
H272 C284 0.950 . S
H273 C285 0.950 . S
C274 H266 0.950 . S
C274 C275 1.386 . S
C274 C276 1.391 . S
C275 C274 1.386 . S
C275 C279 1.393 . S
C276 H268 0.950 . S
C276 C274 1.391 . S
C276 C277 1.400 . S
C277 C276 1.400 . S
C277 C278 1.398 . S
C277 C283 1.491 . S
C278 H269 0.950 . S
C278 C277 1.398 . S
C278 C279 1.391 . S
C279 H267 0.950 . S
C279 C275 1.393 . S
C279 C278 1.391 . S
C280 H270 0.950 . S
C280 C281 1.386 . S
C280 C282 1.391 . S
C281 C280 1.386 . S
C281 C285 1.393 . S
C282 H271 0.950 . S
C282 C280 1.391 . S
C282 C283 1.400 . S
C283 C277 1.491 . S
C283 C282 1.400 . S
C283 C284 1.398 . S
C284 H272 0.950 . S
C284 C283 1.398 . S
C284 C285 1.391 . S
C285 H273 0.950 . S
C285 C281 1.393 . S
C285 C284 1.391 . S
H286 C294 0.950 . S
H287 C299 0.950 . S
H288 C296 0.950 . S
H289 C298 0.950 . S
H290 C300 0.950 . S
H291 C302 0.950 . S
H292 C304 0.950 . S
H293 C305 0.950 . S
C294 H286 0.950 . S
C294 C295 1.386 . S
C294 C296 1.391 . S
C295 C294 1.386 . S
C295 C299 1.393 . S
C296 H288 0.950 . S
C296 C294 1.391 . S
C296 C297 1.400 . S
C297 C296 1.400 . S
C297 C298 1.398 . S
C297 C303 1.491 . S
C298 H289 0.950 . S
C298 C297 1.398 . S
C298 C299 1.391 . S
C299 H287 0.950 . S
C299 C295 1.393 . S
C299 C298 1.391 . S
C300 H290 0.950 . S
C300 C301 1.386 . S
C300 C302 1.391 . S
C301 C300 1.386 . S
C301 C305 1.393 . S
C302 H291 0.950 . S
C302 C300 1.391 . S
C302 C303 1.400 . S
C303 C297 1.491 . S
C303 C302 1.400 . S
C303 C304 1.398 . S
C304 H292 0.950 . S
C304 C303 1.398 . S
C304 C305 1.391 . S
C305 H293 0.950 . S
C305 C301 1.393 . S
C305 C304 1.391 . S
H306 C314 0.950 . S
H307 C319 0.950 . S
H308 C316 0.950 . S
H309 C318 0.950 . S
H310 C320 0.950 . S
H311 C322 0.950 . S
H312 C324 0.950 . S
H313 C325 0.950 . S
C314 H306 0.950 . S
C314 C315 1.386 . S
C314 C316 1.391 . S
C315 C314 1.386 . S
C315 C319 1.393 . S
C316 H308 0.950 . S
C316 C314 1.391 . S
C316 C317 1.400 . S
C317 C316 1.400 . S
C317 C318 1.398 . S
C317 C323 1.491 . S
C318 H309 0.950 . S
C318 C317 1.398 . S
C318 C319 1.391 . S
C319 H307 0.950 . S
C319 C315 1.393 . S
C319 C318 1.391 . S
C320 H310 0.950 . S
C320 C321 1.386 . S
C320 C322 1.391 . S
C321 C320 1.386 . S
C321 C325 1.393 . S
C322 H311 0.950 . S
C322 C320 1.391 . S
C322 C323 1.400 . S
C323 C317 1.491 . S
C323 C322 1.400 . S
C323 C324 1.398 . S
C324 H312 0.950 . S
C324 C323 1.398 . S
C324 C325 1.391 . S
C325 H313 0.950 . S
C325 C321 1.393 . S
C325 C324 1.391 . S
H326 C334 0.950 . S
H327 C339 0.950 . S
H328 C336 0.950 . S
H329 C338 0.950 . S
H330 C340 0.950 . S
H331 C342 0.950 . S
H332 C344 0.950 . S
H333 C345 0.950 . S
C334 H326 0.950 . S
C334 C335 1.386 . S
C334 C336 1.391 . S
C335 C334 1.386 . S
C335 C339 1.393 . S
C336 H328 0.950 . S
C336 C334 1.391 . S
C336 C337 1.400 . S
C337 C336 1.400 . S
C337 C338 1.398 . S
C337 C343 1.491 . S
C338 H329 0.950 . S
C338 C337 1.398 . S
C338 C339 1.391 . S
C339 H327 0.950 . S
C339 C335 1.393 . S
C339 C338 1.391 . S
C340 H330 0.950 . S
C340 C341 1.386 . S
C340 C342 1.391 . S
C341 C340 1.386 . S
C341 C345 1.393 . S
C342 H331 0.950 . S
C342 C340 1.391 . S
C342 C343 1.400 . S
C343 C337 1.491 . S
C343 C342 1.400 . S
C343 C344 1.398 . S
C344 H332 0.950 . S
C344 C343 1.398 . S
C344 C345 1.391 . S
C345 H333 0.950 . S
C345 C341 1.393 . S
C345 C344 1.391 . S
H346 C354 0.950 . S
H347 C359 0.950 . S
H348 C356 0.950 . S
H349 C358 0.950 . S
H350 C360 0.950 . S
H351 C362 0.950 . S
H352 C364 0.950 . S
H353 C365 0.950 . S
C354 H346 0.950 . S
C354 C355 1.386 . S
C354 C356 1.391 . S
C355 C354 1.386 . S
C355 C359 1.393 . S
C356 H348 0.950 . S
C356 C354 1.391 . S
C356 C357 1.400 . S
C357 C356 1.400 . S
C357 C358 1.398 . S
C357 C363 1.491 . S
C358 H349 0.950 . S
C358 C357 1.398 . S
C358 C359 1.391 . S
C359 H347 0.950 . S
C359 C355 1.393 . S
C359 C358 1.391 . S
C360 H350 0.950 . S
C360 C361 1.386 . S
C360 C362 1.391 . S
C361 C360 1.386 . S
C361 C365 1.393 . S
C362 H351 0.950 . S
C362 C360 1.391 . S
C362 C363 1.400 . S
C363 C357 1.491 . S
C363 C362 1.400 . S
C363 C364 1.398 . S
C364 H352 0.950 . S
C364 C363 1.398 . S
C364 C365 1.391 . S
C365 H353 0.950 . S
C365 C361 1.393 . S
C365 C364 1.391 . S
H366 C374 0.950 . S
H367 C379 0.950 . S
H368 C376 0.950 . S
H369 C378 0.950 . S
H370 C380 0.950 . S
H371 C382 0.950 . S
H372 C384 0.950 . S
H373 C385 0.950 . S
C374 H366 0.950 . S
C374 C375 1.386 . S
C374 C376 1.391 . S
C375 C374 1.386 . S
C375 C379 1.393 . S
C376 H368 0.950 . S
C376 C374 1.391 . S
C376 C377 1.400 . S
C377 C376 1.400 . S
C377 C378 1.398 . S
C377 C383 1.491 . S
C378 H369 0.950 . S
C378 C377 1.398 . S
C378 C379 1.391 . S
C379 H367 0.950 . S
C379 C375 1.393 . S
C379 C378 1.391 . S
C380 H370 0.950 . S
C380 C381 1.386 . S
C380 C382 1.391 . S
C381 C380 1.386 . S
C381 C385 1.393 . S
C382 H371 0.950 . S
C382 C380 1.391 . S
C382 C383 1.400 . S
C383 C377 1.491 . S
C383 C382 1.400 . S
C383 C384 1.398 . S
C384 H372 0.950 . S
C384 C383 1.398 . S
C384 C385 1.391 . S
C385 H373 0.950 . S
C385 C381 1.393 . S
C385 C384 1.391 . S
H386 C394 0.950 . S
H387 C399 0.950 . S
H388 C396 0.950 . S
H389 C398 0.950 . S
H390 C400 0.950 . S
H391 C402 0.950 . S
H392 C404 0.950 . S
H393 C405 0.950 . S
C394 H386 0.950 . S
C394 C395 1.386 . S
C394 C396 1.391 . S
C395 C394 1.386 . S
C395 C399 1.393 . S
C396 H388 0.950 . S
C396 C394 1.391 . S
C396 C397 1.400 . S
C397 C396 1.400 . S
C397 C398 1.398 . S
C397 C403 1.491 . S
C398 H389 0.950 . S
C398 C397 1.398 . S
C398 C399 1.391 . S
C399 H387 0.950 . S
C399 C395 1.393 . S
C399 C398 1.391 . S
C400 H390 0.950 . S
C400 C401 1.386 . S
C400 C402 1.391 . S
C401 C400 1.386 . S
C401 C405 1.393 . S
C402 H391 0.950 . S
C402 C400 1.391 . S
C402 C403 1.400 . S
C403 C397 1.491 . S
C403 C402 1.400 . S
C403 C404 1.398 . S
C404 H392 0.950 . S
C404 C403 1.398 . S
C404 C405 1.391 . S
C405 H393 0.950 . S
C405 C401 1.393 . S
C405 C404 1.391 . S
H406 C414 0.950 . S
H407 C419 0.950 . S
H408 C416 0.950 . S
H409 C418 0.950 . S
H410 C420 0.950 . S
H411 C422 0.950 . S
H412 C424 0.950 . S
H413 C425 0.950 . S
C414 H406 0.950 . S
C414 C415 1.386 . S
C414 C416 1.391 . S
C415 C414 1.386 . S
C415 C419 1.393 . S
C416 H408 0.950 . S
C416 C414 1.391 . S
C416 C417 1.400 . S
C417 C416 1.400 . S
C417 C418 1.398 . S
C417 C423 1.491 . S
C418 H409 0.950 . S
C418 C417 1.398 . S
C418 C419 1.391 . S
C419 H407 0.950 . S
C419 C415 1.393 . S
C419 C418 1.391 . S
C420 H410 0.950 . S
C420 C421 1.386 . S
C420 C422 1.391 . S
C421 C420 1.386 . S
C421 C425 1.393 . S
C422 H411 0.950 . S
C422 C420 1.391 . S
C422 C423 1.400 . S
C423 C417 1.491 . S
C423 C422 1.400 . S
C423 C424 1.398 . S
C424 H412 0.950 . S
C424 C423 1.398 . S
C424 C425 1.391 . S
C425 H413 0.950 . S
C425 C421 1.393 . S
C425 C424 1.391 . S
H426 C434 0.950 . S
H427 C439 0.950 . S
H428 C436 0.950 . S
H429 C438 0.950 . S
H430 C440 0.937 1_655 S
H431 C442 0.951 . S
H432 C444 0.950 . S
H433 C445 0.950 . S
C434 H426 0.950 . S
C434 C435 1.386 . S
C434 C436 1.391 . S
C435 C434 1.386 . S
C435 C439 1.393 1_455 S
C436 H428 0.950 . S
C436 C434 1.391 . S
C436 C437 1.400 . S
C437 C436 1.400 . S
C437 C438 1.398 1_455 S
C437 C443 1.491 . S
C438 H429 0.950 . S
C438 C437 1.398 1_655 S
C438 C439 1.391 . S
C439 H427 0.950 . S
C439 C435 1.393 1_655 S
C439 C438 1.391 . S
C440 H430 0.937 1_455 S
C440 C441 1.398 . S
C440 C442 1.392 1_455 S
C441 C440 1.398 . S
C441 C445 1.393 . S
C442 H431 0.951 . S
C442 C440 1.392 1_655 S
C442 C443 1.399 1_656 S
C443 C437 1.491 . S
C443 C442 1.399 1_454 S
C443 C444 1.398 1_554 S
C444 H432 0.950 . S
C444 C443 1.398 1_556 S
C444 C445 1.391 . S
C445 H433 0.950 . S
C445 C441 1.393 . S
C445 C444 1.391 . S
H446 C454 0.950 . S
H447 C459 0.950 . S
H448 C456 0.950 . S
H449 C458 0.950 . S
H450 C460 0.950 . S
H451 C462 0.950 . S
H452 C464 0.950 . S
H453 C465 0.950 . S
C454 H446 0.950 . S
C454 C455 1.386 1_565 S
C454 C456 1.391 . S
C455 C454 1.386 1_545 S
C455 C459 1.393 . S
C456 H448 0.950 . S
C456 C454 1.391 . S
C456 C457 1.400 1_565 S
C457 C456 1.400 1_545 S
C457 C458 1.398 . S
C457 C463 1.491 . S
C458 H449 0.950 . S
C458 C457 1.398 . S
C458 C459 1.391 . S
C459 H447 0.950 . S
C459 C455 1.393 . S
C459 C458 1.391 . S
C460 H450 0.950 . S
C460 C461 1.386 . S
C460 C462 1.391 . S
C461 C460 1.386 . S
C461 C465 1.393 1_545 S
C462 H451 0.950 . S
C462 C460 1.391 . S
C462 C463 1.400 . S
C463 C457 1.491 . S
C463 C462 1.400 . S
C463 C464 1.398 1_545 S
C464 H452 0.950 . S
C464 C463 1.398 1_565 S
C464 C465 1.391 . S
C465 H453 0.950 . S
C465 C461 1.393 1_565 S
C465 C464 1.391 . S
H466 C474 0.950 . S
H467 C479 0.950 . S
H468 C476 0.950 . S
H469 C478 0.950 . S
H470 C480 0.950 . S
H471 C482 0.950 . S
H472 C484 0.950 . S
H473 C485 0.950 . S
C474 H466 0.950 . S
C474 C475 1.386 . S
C474 C476 1.391 . S
C475 C474 1.386 . S
C475 C479 1.393 . S
C476 H468 0.950 . S
C476 C474 1.391 . S
C476 C477 1.400 . S
C477 C476 1.400 . S
C477 C478 1.398 . S
C477 C483 1.491 . S
C478 H469 0.950 . S
C478 C477 1.398 . S
C478 C479 1.391 . S
C479 H467 0.950 . S
C479 C475 1.393 . S
C479 C478 1.391 . S
C480 H470 0.950 . S
C480 C481 1.386 . S
C480 C482 1.391 . S
C481 C480 1.386 . S
C481 C485 1.393 . S
C482 H471 0.950 . S
C482 C480 1.391 . S
C482 C483 1.400 . S
C483 C477 1.491 . S
C483 C482 1.400 . S
C483 C484 1.398 . S
C484 H472 0.950 . S
C484 C483 1.398 . S
C484 C485 1.391 . S
C485 H473 0.950 . S
C485 C481 1.393 . S
C485 C484 1.391 . S
H486 C494 0.950 . S
H487 C499 0.950 . S
H488 C496 0.950 . S
H489 C498 0.950 . S
H490 C500 0.950 . S
H491 C502 0.950 . S
H492 C504 0.950 . S
H493 C505 0.950 . S
C494 H486 0.950 . S
C494 C495 1.386 . S
C494 C496 1.391 . S
C495 C494 1.386 . S
C495 C499 1.393 1_545 S
C496 H488 0.950 . S
C496 C494 1.391 . S
C496 C497 1.400 . S
C497 C496 1.400 . S
C497 C498 1.398 1_545 S
C497 C503 1.491 . S
C498 H489 0.950 . S
C498 C497 1.398 1_565 S
C498 C499 1.391 . S
C499 H487 0.950 . S
C499 C495 1.393 1_565 S
C499 C498 1.391 . S
C500 H490 0.950 . S
C500 C501 1.386 1_565 S
C500 C502 1.391 . S
C501 C500 1.386 1_545 S
C501 C505 1.393 . S
C502 H491 0.950 . S
C502 C500 1.391 . S
C502 C503 1.400 1_565 S
C503 C497 1.491 . S
C503 C502 1.400 1_545 S
C503 C504 1.398 . S
C504 H492 0.950 . S
C504 C503 1.398 . S
C504 C505 1.391 . S
C505 H493 0.950 . S
C505 C501 1.393 . S
C505 C504 1.391 . S
H506 C514 0.950 . S
H507 C519 0.950 . S
H508 C516 0.950 . S
H509 C518 0.950 . S
H510 C520 0.950 . S
H511 C522 0.950 1_556 S
H512 C524 0.950 1_556 S
H513 C525 0.950 . S
C514 H506 0.950 . S
C514 C515 1.386 . S
C514 C516 1.391 . S
C515 C514 1.386 . S
C515 C519 1.393 . S
C516 H508 0.950 . S
C516 C514 1.391 . S
C516 C517 1.400 . S
C517 C516 1.400 . S
C517 C518 1.398 . S
C517 C523 1.491 . S
C518 H509 0.950 . S
C518 C517 1.398 . S
C518 C519 1.391 . S
C519 H507 0.950 . S
C519 C515 1.393 . S
C519 C518 1.391 . S
C520 H510 0.950 . S
C520 C521 1.386 . S
C520 C522 1.391 . S
C521 C520 1.386 . S
C521 C525 1.393 . S
C522 H511 0.950 1_554 S
C522 C520 1.391 . S
C522 C523 1.400 1_554 S
C523 C517 1.491 . S
C523 C522 1.400 1_556 S
C523 C524 1.398 1_556 S
C524 H512 0.950 1_554 S
C524 C523 1.398 1_554 S
C524 C525 1.391 . S
C525 H513 0.950 . S
C525 C521 1.393 . S
C525 C524 1.391 . S
H526 C534 0.950 . S
H527 C539 0.950 . S
H528 C536 0.950 . S
H529 C538 0.950 . S
H530 C540 0.950 . S
H531 C542 0.950 . S
H532 C544 0.950 . S
H533 C545 0.950 . S
C534 H526 0.950 . S
C534 C535 1.386 1_655 S
C534 C536 1.391 . S
C535 C534 1.386 1_455 S
C535 C539 1.393 . S
C536 H528 0.950 . S
C536 C534 1.391 . S
C536 C537 1.400 1_655 S
C537 C536 1.400 1_455 S
C537 C538 1.398 . S
C537 C543 1.491 . S
C538 H529 0.950 . S
C538 C537 1.398 . S
C538 C539 1.391 . S
C539 H527 0.950 . S
C539 C535 1.393 . S
C539 C538 1.391 . S
C540 H530 0.950 . S
C540 C541 1.386 1_455 S
C540 C542 1.391 . S
C541 C540 1.386 1_655 S
C541 C545 1.393 . S
C542 H531 0.950 . S
C542 C540 1.391 . S
C542 C543 1.400 . S
C543 C537 1.491 . S
C543 C542 1.400 . S
C543 C544 1.398 1_455 S
C544 H532 0.950 . S
C544 C543 1.398 1_655 S
C544 C545 1.391 . S
C545 H533 0.950 . S
C545 C541 1.393 . S
C545 C544 1.391 . S
C195 C7 0.677 . S
C201 C180 0.727 . S
C215 C51 2.044 . S
C221 C158 1.753 . S
C235 C87 1.069 . S
C241 C172 1.043 . S
C255 C16 0.294 . S
C261 C183 0.243 . S
C281 C161 1.809 . S
C275 C42 1.866 . S
C301 C169 1.183 . S
C295 C96 1.404 . S
C315 C47 1.355 . S
C321 C136 1.131 . S
C335 C91 3.275 . S
C341 C147 2.917 . S
C355 C2 2.124 . S
C361 C125 1.822 . S
C381 C139 1.076 . S
C375 C56 1.096 . S
C401 C150 2.822 . S
C395 C82 2.891 . S
C415 C11 1.794 . S
C421 C128 1.753 . S
C441 C149 1.657 . S
C435 C19 1.668 . S
C455 C50 1.426 . S
C461 C127 1.381 . S
C475 C99 1.503 . S
C481 C138 1.492 . S
C501 C171 1.440 . S
C495 C59 1.464 . S
C521 C182 1.208 . S
C515 C90 1.229 . S
C535 C10 1.423 . S
C541 C160 1.377 . S
