# Generated by pormake.
# Topology gar, (4,6)-cn, num edge types: 1
# Building blocks:
#     Node 0, Type 0, BuildingBlock: AZAVOO_clean_sbu_0, # of connection points: 4
#     Node 1, Type 0, BuildingBlock: AZAVOO_clean_sbu_0, # of connection points: 4
#     Node 2, Type 0, BuildingBlock: AZAVOO_clean_sbu_0, # of connection points: 4
#     Node 3, Type 0, BuildingBlock: AZAVOO_clean_sbu_0, # of connection points: 4
#     Node 4, Type 0, BuildingBlock: AZAVOO_clean_sbu_0, # of connection points: 4
#     Node 5, Type 0, BuildingBlock: AZAVOO_clean_sbu_0, # of connection points: 4
#     Node 6, Type 0, BuildingBlock: AZAVOO_clean_sbu_0, # of connection points: 4
#     Node 7, Type 0, BuildingBlock: AZAVOO_clean_sbu_0, # of connection points: 4
#     Node 8, Type 0, BuildingBlock: AZAVOO_clean_sbu_0, # of connection points: 4
#     Node 9, Type 0, BuildingBlock: AZAVOO_clean_sbu_0, # of connection points: 4
#     Node 10, Type 0, BuildingBlock: AZAVOO_clean_sbu_0, # of connection points: 4
#     Node 11, Type 0, BuildingBlock: AZAVOO_clean_sbu_0, # of connection points: 4
#     Node 12, Type 0, BuildingBlock: AZAVOO_clean_sbu_0, # of connection points: 4
#     Node 13, Type 0, BuildingBlock: AZAVOO_clean_sbu_0, # of connection points: 4
#     Node 14, Type 0, BuildingBlock: AZAVOO_clean_sbu_0, # of connection points: 4
#     Node 15, Type 0, BuildingBlock: AZAVOO_clean_sbu_0, # of connection points: 4
#     Node 16, Type 0, BuildingBlock: AZAVOO_clean_sbu_0, # of connection points: 4
#     Node 17, Type 0, BuildingBlock: AZAVOO_clean_sbu_0, # of connection points: 4
#     Node 18, Type 0, BuildingBlock: AZAVOO_clean_sbu_0, # of connection points: 4
#     Node 19, Type 0, BuildingBlock: AZAVOO_clean_sbu_0, # of connection points: 4
#     Node 20, Type 0, BuildingBlock: AZAVOO_clean_sbu_0, # of connection points: 4
#     Node 21, Type 0, BuildingBlock: AZAVOO_clean_sbu_0, # of connection points: 4
#     Node 22, Type 0, BuildingBlock: AZAVOO_clean_sbu_0, # of connection points: 4
#     Node 23, Type 0, BuildingBlock: AZAVOO_clean_sbu_0, # of connection points: 4
#     Node 24, Type 1, BuildingBlock: BETDEL_clean_sbu_0, # of connection points: 6
#     Node 25, Type 1, BuildingBlock: BETDEL_clean_sbu_0, # of connection points: 6
#     Node 26, Type 1, BuildingBlock: BETDEL_clean_sbu_0, # of connection points: 6
#     Node 27, Type 1, BuildingBlock: BETDEL_clean_sbu_0, # of connection points: 6
#     Node 28, Type 1, BuildingBlock: BETDEL_clean_sbu_0, # of connection points: 6
#     Node 29, Type 1, BuildingBlock: BETDEL_clean_sbu_0, # of connection points: 6
#     Node 30, Type 1, BuildingBlock: BETDEL_clean_sbu_0, # of connection points: 6
#     Node 31, Type 1, BuildingBlock: BETDEL_clean_sbu_0, # of connection points: 6
#     Node 32, Type 1, BuildingBlock: BETDEL_clean_sbu_0, # of connection points: 6
#     Node 33, Type 1, BuildingBlock: BETDEL_clean_sbu_0, # of connection points: 6
#     Node 34, Type 1, BuildingBlock: BETDEL_clean_sbu_0, # of connection points: 6
#     Node 35, Type 1, BuildingBlock: BETDEL_clean_sbu_0, # of connection points: 6
#     Node 36, Type 1, BuildingBlock: BETDEL_clean_sbu_0, # of connection points: 6
#     Node 37, Type 1, BuildingBlock: BETDEL_clean_sbu_0, # of connection points: 6
#     Node 38, Type 1, BuildingBlock: BETDEL_clean_sbu_0, # of connection points: 6
#     Node 39, Type 1, BuildingBlock: BETDEL_clean_sbu_0, # of connection points: 6
#     Edge 40, Type (0, 1), BuildingBlock: CIFDUS_clean_linker_0, # of connection points: 2
#     Edge 41, Type (0, 1), BuildingBlock: CIFDUS_clean_linker_0, # of connection points: 2
#     Edge 42, Type (0, 1), BuildingBlock: CIFDUS_clean_linker_0, # of connection points: 2
#     Edge 43, Type (0, 1), BuildingBlock: CIFDUS_clean_linker_0, # of connection points: 2
#     Edge 44, Type (0, 1), BuildingBlock: CIFDUS_clean_linker_0, # of connection points: 2
#     Edge 45, Type (0, 1), BuildingBlock: CIFDUS_clean_linker_0, # of connection points: 2
#     Edge 46, Type (0, 1), BuildingBlock: CIFDUS_clean_linker_0, # of connection points: 2
#     Edge 47, Type (0, 1), BuildingBlock: CIFDUS_clean_linker_0, # of connection points: 2
#     Edge 48, Type (0, 1), BuildingBlock: CIFDUS_clean_linker_0, # of connection points: 2
#     Edge 49, Type (0, 1), BuildingBlock: CIFDUS_clean_linker_0, # of connection points: 2
#     Edge 50, Type (0, 1), BuildingBlock: CIFDUS_clean_linker_0, # of connection points: 2
#     Edge 51, Type (0, 1), BuildingBlock: CIFDUS_clean_linker_0, # of connection points: 2
#     Edge 52, Type (0, 1), BuildingBlock: CIFDUS_clean_linker_0, # of connection points: 2
#     Edge 53, Type (0, 1), BuildingBlock: CIFDUS_clean_linker_0, # of connection points: 2
#     Edge 54, Type (0, 1), BuildingBlock: CIFDUS_clean_linker_0, # of connection points: 2
#     Edge 55, Type (0, 1), BuildingBlock: CIFDUS_clean_linker_0, # of connection points: 2
#     Edge 56, Type (0, 1), BuildingBlock: CIFDUS_clean_linker_0, # of connection points: 2
#     Edge 57, Type (0, 1), BuildingBlock: CIFDUS_clean_linker_0, # of connection points: 2
#     Edge 58, Type (0, 1), BuildingBlock: CIFDUS_clean_linker_0, # of connection points: 2
#     Edge 59, Type (0, 1), BuildingBlock: CIFDUS_clean_linker_0, # of connection points: 2
#     Edge 60, Type (0, 1), BuildingBlock: CIFDUS_clean_linker_0, # of connection points: 2
#     Edge 61, Type (0, 1), BuildingBlock: CIFDUS_clean_linker_0, # of connection points: 2
#     Edge 62, Type (0, 1), BuildingBlock: CIFDUS_clean_linker_0, # of connection points: 2
#     Edge 63, Type (0, 1), BuildingBlock: CIFDUS_clean_linker_0, # of connection points: 2
#     Edge 64, Type (0, 1), BuildingBlock: CIFDUS_clean_linker_0, # of connection points: 2
#     Edge 65, Type (0, 1), BuildingBlock: CIFDUS_clean_linker_0, # of connection points: 2
#     Edge 66, Type (0, 1), BuildingBlock: CIFDUS_clean_linker_0, # of connection points: 2
#     Edge 67, Type (0, 1), BuildingBlock: CIFDUS_clean_linker_0, # of connection points: 2
#     Edge 68, Type (0, 1), BuildingBlock: CIFDUS_clean_linker_0, # of connection points: 2
#     Edge 69, Type (0, 1), BuildingBlock: CIFDUS_clean_linker_0, # of connection points: 2
#     Edge 70, Type (0, 1), BuildingBlock: CIFDUS_clean_linker_0, # of connection points: 2
#     Edge 71, Type (0, 1), BuildingBlock: CIFDUS_clean_linker_0, # of connection points: 2
#     Edge 72, Type (0, 1), BuildingBlock: CIFDUS_clean_linker_0, # of connection points: 2
#     Edge 73, Type (0, 1), BuildingBlock: CIFDUS_clean_linker_0, # of connection points: 2
#     Edge 74, Type (0, 1), BuildingBlock: CIFDUS_clean_linker_0, # of connection points: 2
#     Edge 75, Type (0, 1), BuildingBlock: CIFDUS_clean_linker_0, # of connection points: 2
#     Edge 76, Type (0, 1), BuildingBlock: CIFDUS_clean_linker_0, # of connection points: 2
#     Edge 77, Type (0, 1), BuildingBlock: CIFDUS_clean_linker_0, # of connection points: 2
#     Edge 78, Type (0, 1), BuildingBlock: CIFDUS_clean_linker_0, # of connection points: 2
#     Edge 79, Type (0, 1), BuildingBlock: CIFDUS_clean_linker_0, # of connection points: 2
#     Edge 80, Type (0, 1), BuildingBlock: CIFDUS_clean_linker_0, # of connection points: 2
#     Edge 81, Type (0, 1), BuildingBlock: CIFDUS_clean_linker_0, # of connection points: 2
#     Edge 82, Type (0, 1), BuildingBlock: CIFDUS_clean_linker_0, # of connection points: 2
#     Edge 83, Type (0, 1), BuildingBlock: CIFDUS_clean_linker_0, # of connection points: 2
#     Edge 84, Type (0, 1), BuildingBlock: CIFDUS_clean_linker_0, # of connection points: 2
#     Edge 85, Type (0, 1), BuildingBlock: CIFDUS_clean_linker_0, # of connection points: 2
#     Edge 86, Type (0, 1), BuildingBlock: CIFDUS_clean_linker_0, # of connection points: 2
#     Edge 87, Type (0, 1), BuildingBlock: CIFDUS_clean_linker_0, # of connection points: 2
#     Edge 88, Type (0, 1), BuildingBlock: CIFDUS_clean_linker_0, # of connection points: 2
#     Edge 89, Type (0, 1), BuildingBlock: CIFDUS_clean_linker_0, # of connection points: 2
#     Edge 90, Type (0, 1), BuildingBlock: CIFDUS_clean_linker_0, # of connection points: 2
#     Edge 91, Type (0, 1), BuildingBlock: CIFDUS_clean_linker_0, # of connection points: 2
#     Edge 92, Type (0, 1), BuildingBlock: CIFDUS_clean_linker_0, # of connection points: 2
#     Edge 93, Type (0, 1), BuildingBlock: CIFDUS_clean_linker_0, # of connection points: 2
#     Edge 94, Type (0, 1), BuildingBlock: CIFDUS_clean_linker_0, # of connection points: 2
#     Edge 95, Type (0, 1), BuildingBlock: CIFDUS_clean_linker_0, # of connection points: 2
#     Edge 96, Type (0, 1), BuildingBlock: CIFDUS_clean_linker_0, # of connection points: 2
#     Edge 97, Type (0, 1), BuildingBlock: CIFDUS_clean_linker_0, # of connection points: 2
#     Edge 98, Type (0, 1), BuildingBlock: CIFDUS_clean_linker_0, # of connection points: 2
#     Edge 99, Type (0, 1), BuildingBlock: CIFDUS_clean_linker_0, # of connection points: 2
#     Edge 100, Type (0, 1), BuildingBlock: CIFDUS_clean_linker_0, # of connection points: 2
#     Edge 101, Type (0, 1), BuildingBlock: CIFDUS_clean_linker_0, # of connection points: 2
#     Edge 102, Type (0, 1), BuildingBlock: CIFDUS_clean_linker_0, # of connection points: 2
#     Edge 103, Type (0, 1), BuildingBlock: CIFDUS_clean_linker_0, # of connection points: 2
#     Edge 104, Type (0, 1), BuildingBlock: CIFDUS_clean_linker_0, # of connection points: 2
#     Edge 105, Type (0, 1), BuildingBlock: CIFDUS_clean_linker_0, # of connection points: 2
#     Edge 106, Type (0, 1), BuildingBlock: CIFDUS_clean_linker_0, # of connection points: 2
#     Edge 107, Type (0, 1), BuildingBlock: CIFDUS_clean_linker_0, # of connection points: 2
#     Edge 108, Type (0, 1), BuildingBlock: CIFDUS_clean_linker_0, # of connection points: 2
#     Edge 109, Type (0, 1), BuildingBlock: CIFDUS_clean_linker_0, # of connection points: 2
#     Edge 110, Type (0, 1), BuildingBlock: CIFDUS_clean_linker_0, # of connection points: 2
#     Edge 111, Type (0, 1), BuildingBlock: CIFDUS_clean_linker_0, # of connection points: 2
#     Edge 112, Type (0, 1), BuildingBlock: CIFDUS_clean_linker_0, # of connection points: 2
#     Edge 113, Type (0, 1), BuildingBlock: CIFDUS_clean_linker_0, # of connection points: 2
#     Edge 114, Type (0, 1), BuildingBlock: CIFDUS_clean_linker_0, # of connection points: 2
#     Edge 115, Type (0, 1), BuildingBlock: CIFDUS_clean_linker_0, # of connection points: 2
#     Edge 116, Type (0, 1), BuildingBlock: CIFDUS_clean_linker_0, # of connection points: 2
#     Edge 117, Type (0, 1), BuildingBlock: CIFDUS_clean_linker_0, # of connection points: 2
#     Edge 118, Type (0, 1), BuildingBlock: CIFDUS_clean_linker_0, # of connection points: 2
#     Edge 119, Type (0, 1), BuildingBlock: CIFDUS_clean_linker_0, # of connection points: 2
#     Edge 120, Type (0, 1), BuildingBlock: CIFDUS_clean_linker_0, # of connection points: 2
#     Edge 121, Type (0, 1), BuildingBlock: CIFDUS_clean_linker_0, # of connection points: 2
#     Edge 122, Type (0, 1), BuildingBlock: CIFDUS_clean_linker_0, # of connection points: 2
#     Edge 123, Type (0, 1), BuildingBlock: CIFDUS_clean_linker_0, # of connection points: 2
#     Edge 124, Type (0, 1), BuildingBlock: CIFDUS_clean_linker_0, # of connection points: 2
#     Edge 125, Type (0, 1), BuildingBlock: CIFDUS_clean_linker_0, # of connection points: 2
#     Edge 126, Type (0, 1), BuildingBlock: CIFDUS_clean_linker_0, # of connection points: 2
#     Edge 127, Type (0, 1), BuildingBlock: CIFDUS_clean_linker_0, # of connection points: 2
#     Edge 128, Type (0, 1), BuildingBlock: CIFDUS_clean_linker_0, # of connection points: 2
#     Edge 129, Type (0, 1), BuildingBlock: CIFDUS_clean_linker_0, # of connection points: 2
#     Edge 130, Type (0, 1), BuildingBlock: CIFDUS_clean_linker_0, # of connection points: 2
#     Edge 131, Type (0, 1), BuildingBlock: CIFDUS_clean_linker_0, # of connection points: 2
#     Edge 132, Type (0, 1), BuildingBlock: CIFDUS_clean_linker_0, # of connection points: 2
#     Edge 133, Type (0, 1), BuildingBlock: CIFDUS_clean_linker_0, # of connection points: 2
#     Edge 134, Type (0, 1), BuildingBlock: CIFDUS_clean_linker_0, # of connection points: 2
#     Edge 135, Type (0, 1), BuildingBlock: CIFDUS_clean_linker_0, # of connection points: 2
# Relax obj value: 0.172
# Max RMSD: 0.272
# Mean RMSD: 0.191
data_MOF--net-gar--node1-AZAVOO_clean_sbu_0--node2-BETDEL_clean_sbu_0--edge1-CIFDUS_clean_linker_0
_symmetry_space_group_name_H-M    P1
_symmetry_Int_Tables_number       1
_symmetry_cell_setting            triclinic
loop_
_symmetry_equiv_pos_as_xyz
'x, y, z'
_cell_length_a     50.256868
_cell_length_b     45.619153
_cell_length_c     48.085867
_cell_angle_alpha  98.292564
_cell_angle_beta   92.146779
_cell_angle_gamma 102.20507
loop_
_atom_site_label
_atom_site_type_symbol
_atom_site_fract_x
_atom_site_fract_y
_atom_site_fract_z
_atom_type_partial_charge
Mg0 Mg 0.0109 0.26474 0.3739 0.0
O1 O 0.02201 0.30974 0.40496 0.0
O2 O 0.98891 0.30724 0.43516 0.0
Mg3 Mg 0.95656 0.26354 0.42269 0.0
C4 C 0.01116 0.3209 0.42647 0.0
C5 C 0.06483 0.28608 0.34161 0.0
O6 O 0.05106 0.30383 0.33098 0.0
O7 O 0.02172 0.23775 0.40717 0.0
O8 O 0.98677 0.23521 0.43475 0.0
O9 O 0.98758 0.28665 0.34557 0.0
O10 O 0.96992 0.26257 0.37954 0.0
C11 C 0.00923 0.22829 0.42788 0.0
C12 C 0.96683 0.27848 0.36012 0.0
O13 O 0.05414 0.26992 0.35944 0.0
Mg14 Mg 5e-05 0.78834 0.65042 0.0
O15 O 0.98529 0.74684 0.61713 0.0
O16 O 0.94538 0.74795 0.59605 0.0
Mg17 Mg 0.93391 0.79123 0.61816 0.0
C18 C 0.96543 0.73528 0.59892 0.0
C19 C 0.04341 0.75125 0.65986 0.0
O20 O 0.0213 0.73346 0.66673 0.0
O21 O 0.01105 0.8182 0.61632 0.0
O22 O 0.96963 0.82012 0.59882 0.0
O23 O 0.97738 0.7646 0.68294 0.0
O24 O 0.96043 0.7931 0.65651 0.0
C25 C 0.99567 0.82771 0.59949 0.0
C26 C 0.95721 0.77622 0.67593 0.0
O27 O 0.04163 0.77617 0.65182 0.0
Mg28 Mg 0.51966 0.76761 0.87514 0.0
O29 O 0.52667 0.8093 0.91083 0.0
O30 O 0.48897 0.8012 0.93452 0.0
Mg31 Mg 0.45912 0.75749 0.9158 0.0
C32 C 0.51216 0.81741 0.93067 0.0
C33 C 0.57124 0.75239 0.85283 0.0
O34 O 0.55376 0.72622 0.85117 0.0
O35 O 0.52728 0.7357 0.90558 0.0
O36 O 0.48885 0.7287 0.92805 0.0
O37 O 0.49971 0.79344 0.84795 0.0
O38 O 0.47786 0.7636 0.87599 0.0
C39 C 0.51225 0.7231 0.92329 0.0
C40 C 0.47726 0.78295 0.85906 0.0
O41 O 0.56409 0.77638 0.86381 0.0
Mg42 Mg 0.48418 0.28349 0.13228 0.0
O43 O 0.48001 0.23664 0.10688 0.0
O44 O 0.44107 0.22289 0.07987 0.0
Mg45 Mg 0.41739 0.26018 0.09266 0.0
C46 C 0.46391 0.218 0.08821 0.0
C47 C 0.53429 0.26174 0.15124 0.0
O48 O 0.51359 0.24155 0.15765 0.0
O49 O 0.49056 0.30496 0.09216 0.0
O50 O 0.44822 0.29324 0.07146 0.0
O51 O 0.46458 0.26501 0.16897 0.0
O52 O 0.44187 0.27652 0.13332 0.0
C53 C 0.47333 0.3069 0.07259 0.0
C54 C 0.44149 0.26622 0.15688 0.0
O55 O 0.52946 0.28406 0.1403 0.0
Mg56 Mg 0.02695 0.78248 0.15401 0.0
O57 O 0.02874 0.73624 0.12783 0.0
O58 O 0.99075 0.72244 0.09907 0.0
Mg59 Mg 0.9629 0.75568 0.10932 0.0
C60 C 0.01365 0.71805 0.10788 0.0
C61 C 0.07475 0.79172 0.19654 0.0
O62 O 0.0533 0.79283 0.21108 0.0
O63 O 0.03506 0.8075 0.11532 0.0
O64 O 0.9936 0.79243 0.09267 0.0
O65 O 0.00486 0.76001 0.18789 0.0
O66 O 0.98415 0.77125 0.15101 0.0
C67 C 0.01788 0.80869 0.09529 0.0
C68 C 0.98238 0.75996 0.174 0.0
O69 O 0.072 0.78954 0.16982 0.0
Mg70 Mg 0.48497 0.73225 0.35656 0.0
O71 O 0.49017 0.77827 0.38598 0.0
O72 O 0.45173 0.77578 0.40844 0.0
Mg73 Mg 0.42337 0.72936 0.39548 0.0
C74 C 0.47531 0.79013 0.40339 0.0
C75 C 0.53941 0.76563 0.33488 0.0
O76 O 0.52437 0.78557 0.33251 0.0
O77 O 0.49415 0.70969 0.39438 0.0
O78 O 0.45519 0.70762 0.41565 0.0
O79 O 0.46413 0.75001 0.32297 0.0
O80 O 0.44238 0.72664 0.35528 0.0
C81 C 0.47908 0.70217 0.41415 0.0
C82 C 0.44147 0.74122 0.33435 0.0
O83 O 0.52967 0.74224 0.34589 0.0
Mg84 Mg 0.5369 0.29724 0.65828 0.0
O85 O 0.52957 0.25312 0.62647 0.0
O86 O 0.48752 0.24679 0.60645 0.0
Mg87 Mg 0.46727 0.28421 0.62641 0.0
C88 C 0.51015 0.23853 0.60864 0.0
C89 C 0.58736 0.27552 0.67474 0.0
O90 O 0.56725 0.25276 0.67758 0.0
O91 O 0.54205 0.32485 0.62184 0.0
O92 O 0.49823 0.31726 0.60623 0.0
O93 O 0.51816 0.27269 0.69289 0.0
O94 O 0.49583 0.29322 0.66335 0.0
C95 C 0.52342 0.32962 0.60527 0.0
C96 C 0.49553 0.27875 0.68432 0.0
O97 O 0.58191 0.29761 0.66401 0.0
Mg98 Mg 0.98247 0.21464 0.84079 0.0
O99 O 0.98355 0.25842 0.87222 0.0
O100 O 0.94387 0.25142 0.89262 0.0
Mg101 Mg 0.91859 0.20402 0.87532 0.0
C102 C 0.96717 0.26782 0.88936 0.0
C103 C 0.03745 0.25251 0.82491 0.0
O104 O 0.02144 0.27122 0.82139 0.0
O105 O 0.99048 0.19005 0.87702 0.0
O106 O 0.9505 0.1821 0.89649 0.0
O107 O 0.9639 0.23329 0.80702 0.0
O108 O 0.93965 0.20669 0.83592 0.0
C109 C 0.97525 0.17917 0.89536 0.0
C110 C 0.94025 0.22257 0.81564 0.0
O111 O 0.02787 0.2282 0.83456 0.0
Mg112 Mg 0.41705 0.08686 0.29658 0.0
O113 O 0.39551 0.03634 0.29145 0.0
O114 O 0.36969 0.0314 0.32812 0.0
Mg115 Mg 0.37655 0.07651 0.35753 0.0
C116 C 0.37803 0.02038 0.30495 0.0
C117 C 0.44323 0.05999 0.24674 0.0
O118 O 0.44674 0.0435 0.26625 0.0
O119 O 0.3766 0.09659 0.28364 0.0
O120 O 0.35362 0.0931 0.32239 0.0
O121 O 0.45283 0.07969 0.31987 0.0
O122 O 0.41625 0.08979 0.34012 0.0
C123 C 0.35539 0.09828 0.297 0.0
C124 C 0.43965 0.0826 0.34231 0.0
O125 O 0.42962 0.08044 0.25189 0.0
Mg126 Mg 0.27426 0.14491 0.47836 0.0
O127 O 0.27687 0.17626 0.52172 0.0
O128 O 0.31735 0.20836 0.52436 0.0
Mg129 Mg 0.34094 0.19698 0.48554 0.0
C130 C 0.29479 0.19864 0.5349 0.0
C131 C 0.21935 0.10075 0.46626 0.0
O132 O 0.236 0.0883 0.45042 0.0
O133 O 0.26801 0.18202 0.45197 0.0
O134 O 0.31075 0.2093 0.45414 0.0
O135 O 0.29397 0.11205 0.49793 0.0
O136 O 0.31674 0.15012 0.47911 0.0
C137 C 0.28593 0.20309 0.44407 0.0
C138 C 0.31719 0.12709 0.49157 0.0
O139 O 0.22861 0.12663 0.4811 0.0
Mg140 Mg 0.13624 0.99798 0.78881 0.0
O141 O 0.16187 0.04677 0.7993 0.0
O142 O 0.18484 0.0511 0.84081 0.0
Mg143 Mg 0.17116 0.00669 0.85861 0.0
C144 C 0.17921 0.06212 0.81892 0.0
C145 C 0.11881 0.02627 0.73832 0.0
O146 O 0.11139 0.04347 0.75965 0.0
O147 O 0.17485 0.98042 0.78043 0.0
O148 O 0.19344 0.98289 0.82397 0.0
O149 O 0.09979 0.00937 0.80956 0.0
O150 O 0.1329 0.9947 0.83144 0.0
C151 C 0.1932 0.97559 0.79723 0.0
C152 C 0.11 0.00304 0.8325 0.0
O153 O 0.13025 0.00502 0.74321 0.0
Mg154 Mg 0.25134 0.88847 -0.00184 0.0
O155 O 0.24464 0.85813 0.9545 0.0
O156 O 0.27825 0.83249 0.95331 0.0
Mg157 Mg 0.30595 0.84574 0.99351 0.0
C158 C 0.25704 0.83864 0.94221 0.0
C159 C 0.20853 0.92713 0.99109 0.0
O160 O 0.23063 0.94495 0.98428 0.0
O161 O 0.23508 0.84769 0.01959 0.0
O162 O 0.27085 0.82574 0.01884 0.0
O163 O 0.27937 0.92593 0.98161 0.0
O164 O 0.29248 0.88838 -0.00143 0.0
C165 C 0.247 0.82736 0.0263 0.0
C166 C 0.29863 0.91234 0.98701 0.0
O167 O 0.20966 0.90068 0.99588 0.0
Mg168 Mg 0.26854 0.39861 0.03337 0.0
O169 O 0.26381 0.36535 0.99093 0.0
O170 O 0.29924 0.34296 0.99129 0.0
Mg171 Mg 0.32534 0.35965 0.03285 0.0
C172 C 0.27771 0.3472 0.97899 0.0
C173 C 0.22074 0.4203 0.0055 0.0
O174 O 0.24014 0.42637 0.98827 0.0
O175 O 0.25446 0.36033 0.06009 0.0
O176 O 0.29084 0.33924 0.05944 0.0
O177 O 0.29554 0.4346 0.01338 0.0
O178 O 0.31102 0.40226 0.03595 0.0
C179 C 0.26727 0.341 0.06771 0.0
C180 C 0.31608 0.42421 0.02149 0.0
O181 O 0.22522 0.4069 0.02611 0.0
Mg182 Mg 0.7792 0.12764 0.00776 0.0
O183 O 0.79262 0.15659 0.05066 0.0
O184 O 0.83583 0.18155 0.0499 0.0
Mg185 Mg 0.85114 0.1651 0.00747 0.0
C186 C 0.8137 0.17588 0.06227 0.0
C187 C 0.72453 0.11683 0.04018 0.0
O188 O 0.74067 0.11622 0.06211 0.0
O189 O 0.77832 0.17092 0.99021 0.0
O190 O 0.82268 0.19062 0.98726 0.0
O191 O 0.79283 0.08704 0.01961 0.0
O192 O 0.81846 0.12386 0.00117 0.0
C193 C 0.7975 0.19115 0.98324 0.0
C194 C 0.81601 0.09835 0.01024 0.0
O195 O 0.73467 0.12142 0.01696 0.0
Mg196 Mg 0.11838 0.49287 0.23161 0.0
O197 O 0.13951 0.5434 0.23555 0.0
O198 O 0.15715 0.55641 0.28022 0.0
Mg199 Mg 0.14488 0.51743 0.30496 0.0
C200 C 0.15362 0.56264 0.25547 0.0
C201 C 0.0947 0.46761 0.17379 0.0
O202 O 0.08181 0.44945 0.19019 0.0
O203 O 0.16001 0.48127 0.23266 0.0
O204 O 0.17353 0.49362 0.27848 0.0
O205 O 0.07877 0.50403 0.24286 0.0
O206 O 0.11082 0.49884 0.27351 0.0
C207 C 0.17729 0.48282 0.25325 0.0
C208 C 0.08771 0.50575 0.26875 0.0
O209 O 0.11492 0.48841 0.18448 0.0
Mg210 Mg 0.77438 0.89716 0.53036 0.0
O211 O 0.77589 0.86269 0.48982 0.0
O212 O 0.81207 0.8431 0.49815 0.0
Mg213 Mg 0.8342 0.86457 0.54115 0.0
C214 C 0.79189 0.84502 0.48205 0.0
C215 C 0.72241 0.92194 0.53487 0.0
O216 O 0.73677 0.93376 0.55876 0.0
O217 O 0.75866 0.85935 0.55725 0.0
O218 O 0.79823 0.84652 0.56672 0.0
O219 O 0.80188 0.93458 0.51239 0.0
O220 O 0.81671 0.90379 0.53749 0.0
C221 C 0.773 0.84509 0.57062 0.0
C222 C 0.82219 0.92552 0.52293 0.0
O223 O 0.73147 0.90305 0.51766 0.0
Mg224 Mg 0.89419 0.04341 0.23845 0.0
O225 O 0.86399 0.99648 0.23343 0.0
O226 O 0.84667 0.99473 0.27565 0.0
Mg227 Mg 0.86294 0.03887 0.30574 0.0
C228 C 0.84866 0.98273 0.25035 0.0
C229 C 0.91838 0.06237 0.1858 0.0
O230 O 0.92663 0.0858 0.20583 0.0
O231 O 0.85872 0.06751 0.23467 0.0
O232 O 0.84319 0.06633 0.27752 0.0
O233 O 0.92747 0.02354 0.25494 0.0
O234 O 0.89948 0.04368 0.28199 0.0
C235 C 0.84268 0.07466 0.25327 0.0
C236 C 0.91904 0.0294 0.27979 0.0
O237 O 0.90131 0.0395 0.19149 0.0
Mg238 Mg 0.28664 0.6394 0.49581 0.0
O239 O 0.30334 0.67257 0.53573 0.0
O240 O 0.34713 0.69355 0.53144 0.0
Mg241 Mg 0.35859 0.67273 0.48878 0.0
C242 C 0.32577 0.69086 0.54526 0.0
C243 C 0.22979 0.61017 0.50812 0.0
O244 O 0.2412 0.58729 0.4999 0.0
O245 O 0.28566 0.67962 0.4738 0.0
O246 O 0.32974 0.69782 0.46821 0.0
O247 O 0.29899 0.60155 0.51337 0.0
O248 O 0.32535 0.633 0.48942 0.0
C249 C 0.30455 0.69863 0.4649 0.0
C250 C 0.32253 0.61112 0.504 0.0
O251 O 0.24361 0.637 0.50881 0.0
Mg252 Mg 0.39298 0.5456 0.73509 0.0
O253 O 0.36143 0.49909 0.72838 0.0
O254 O 0.33818 0.49944 0.76728 0.0
Mg255 Mg 0.35095 0.54486 0.79601 0.0
C256 C 0.34345 0.48625 0.74356 0.0
C257 C 0.42895 0.55592 0.68592 0.0
O258 O 0.44094 0.57683 0.70693 0.0
O259 O 0.36065 0.57193 0.72427 0.0
O260 O 0.33671 0.57077 0.7626 0.0
O261 O 0.42137 0.52503 0.75894 0.0
O262 O 0.39112 0.54841 0.77887 0.0
C263 C 0.34133 0.57895 0.7386 0.0
C264 C 0.40944 0.53284 0.78135 0.0
O265 O 0.40642 0.53848 0.68977 0.0
Mg266 Mg 0.61037 0.98914 0.74194 0.0
O267 O 0.6299 0.04011 0.75629 0.0
O268 O 0.64074 0.04461 0.80248 0.0
Mg269 Mg 0.62908 -0.00127 0.81724 0.0
C270 C 0.64017 0.05611 0.77983 0.0
C271 C 0.59412 0.96941 0.68225 0.0
O272 O 0.58676 0.94578 0.69518 0.0
O273 O 0.65288 0.97986 0.74323 0.0
O274 O 0.66196 0.98456 0.7898 0.0
O275 O 0.56911 0.99566 0.75282 0.0
O276 O 0.59899 0.9834 0.78156 0.0
C277 C 0.66867 0.97923 0.76448 0.0
C278 C 0.57555 0.98968 0.77735 0.0
O279 O 0.60915 0.99348 0.69606 0.0
Mg280 Mg 0.77174 0.64216 0.98264 0.0
O281 O 0.77731 0.67349 0.02598 0.0
O282 O 0.81936 0.70227 0.02883 0.0
Mg283 Mg 0.84097 0.68834 0.98915 0.0
C284 C 0.79643 0.69436 0.03934 0.0
C285 C 0.71492 0.60139 0.97962 0.0
O286 O 0.73025 0.58287 0.96956 0.0
O287 O 0.76858 0.68075 0.95726 0.0
O288 O 0.81238 0.70476 0.95892 0.0
O289 O 0.78824 0.6066 0.00132 0.0
O290 O 0.81351 0.64296 0.98221 0.0
C291 C 0.78753 0.7008 0.94946 0.0
C292 C 0.81205 0.61938 0.99437 0.0
O293 O 0.72592 0.62937 0.98702 0.0
Mg294 Mg 0.91437 0.57347 0.78694 0.0
O295 O 0.89178 0.52359 0.78598 0.0
O296 O 0.87713 0.5211 0.82912 0.0
Mg297 Mg 0.89183 0.56652 0.85771 0.0
C298 C 0.87872 0.50886 0.80378 0.0
C299 C 0.92733 0.54745 0.72864 0.0
O300 O 0.9366 0.53064 0.74505 0.0
O301 O 0.87331 0.58651 0.78662 0.0
O302 O 0.86229 0.58535 0.83115 0.0
O303 O 0.95428 0.56409 0.80011 0.0
O304 O 0.92446 0.57711 0.82954 0.0
C305 C 0.85736 0.59041 0.80621 0.0
C306 C 0.94699 0.56844 0.8256 0.0
O307 O 0.91451 0.56702 0.73938 0.0
Mg308 Mg 0.76658 0.39838 0.5105 0.0
O309 O 0.75531 0.36937 0.46653 0.0
O310 O 0.78604 0.34033 0.46013 0.0
Mg311 Mg 0.81802 0.35266 0.49709 0.0
C312 C 0.76487 0.34881 0.45183 0.0
C313 C 0.72359 0.43134 0.53309 0.0
O314 O 0.74209 0.43639 0.55429 0.0
O315 O 0.75176 0.35756 0.53335 0.0
O316 O 0.78631 0.33409 0.52638 0.0
O317 O 0.79308 0.43473 0.49143 0.0
O318 O 0.80716 0.39686 0.50675 0.0
C319 C 0.76406 0.33653 0.53752 0.0
C320 C 0.81254 0.42073 0.49485 0.0
O321 O 0.72623 0.41342 0.51104 0.0
Mg322 Mg 0.62559 0.49461 0.2787 0.0
O323 O 0.65515 0.54043 0.2913 0.0
O324 O 0.6736 0.54356 0.33478 0.0
Mg325 Mg 0.65537 0.49871 0.35012 0.0
C326 C 0.67106 0.55492 0.31234 0.0
C327 C 0.61563 0.52734 0.22825 0.0
O328 O 0.60847 0.54529 0.24918 0.0
O329 O 0.66114 0.47079 0.27201 0.0
O330 O 0.67726 0.47329 0.31654 0.0
O331 O 0.59218 0.51384 0.2985 0.0
O332 O 0.61892 0.49047 0.32065 0.0
C333 C 0.67788 0.46499 0.29005 0.0
C334 C 0.59942 0.50474 0.32133 0.0
O335 O 0.62418 0.50422 0.23345 0.0
Dy336 Dy 0.97262 0.98868 0.99367 0.0
C337 C 0.08874 0.0152 0.01633 0.0
C338 C 0.91803 0.98706 0.99156 0.0
Dy339 Dy 0.03401 0.01304 0.01153 0.0
O340 O 0.93376 0.9914 0.97104 0.0
O341 O 0.93197 0.98153 0.01272 0.0
O342 O 0.98171 0.96225 0.95319 0.0
O343 O 0.00933 0.00192 0.9719 0.0
C344 C 0.00598 0.97934 0.95264 0.0
C345 C 4e-05 0.02314 0.05145 0.0
O346 O 0.02563 0.05325 0.99351 0.0
O347 O 0.97892 0.03937 0.9972 0.0
O348 O 0.07104 0.00384 0.03298 0.0
O349 O 0.07675 0.02732 0.99801 0.0
O350 O 0.02368 0.04134 0.05047 0.0
O351 O 0.99753 -0.0001 0.03312 0.0
O352 O 0.98028 0.94689 0.00775 0.0
O353 O 0.02758 0.96187 0.0083 0.0
C354 C 0.00091 0.05927 0.99238 0.0
C355 C 0.00497 0.94125 0.01035 0.0
Dy356 Dy 0.26949 0.78594 0.22725 0.0
C357 C 0.28468 0.79503 0.34711 0.0
C358 C 0.25553 0.77593 0.17089 0.0
Dy359 Dy 0.26938 0.79082 0.29159 0.0
O360 O 0.24407 0.79141 0.18977 0.0
O361 O 0.27503 0.76638 0.18274 0.0
O362 O 0.31513 0.79466 0.2302 0.0
O363 O 0.29293 0.77144 0.25971 0.0
C364 C 0.31651 0.78317 0.2533 0.0
C365 C 0.22271 0.79529 0.26533 0.0
O366 O 0.29001 0.83807 0.28746 0.0
O367 O 0.28444 0.83659 0.23874 0.0
O368 O 0.30121 0.80151 0.32768 0.0
O369 O 0.25966 0.78717 0.33623 0.0
O370 O 0.22348 0.78416 0.2887 0.0
O371 O 0.24655 0.80577 0.25916 0.0
O372 O 0.24393 0.74046 0.23377 0.0
O373 O 0.26139 0.74105 0.27903 0.0
C374 C 0.29262 0.85125 0.26461 0.0
C375 C 0.24712 0.72652 0.25566 0.0
Dy376 Dy 0.54997 0.02036 0.50634 0.0
C377 C 0.43902 0.04102 0.50439 0.0
C378 C 0.59746 0.00317 0.51876 0.0
Dy379 Dy 0.48743 0.02296 0.50881 0.0
O380 O 0.58129 0.01194 0.5371 0.0
O381 O 0.58812 0.00465 0.4935 0.0
O382 O 0.55449 0.04613 0.47014 0.0
O383 O 0.5161 0.01862 0.47631 0.0
C384 C 0.52841 0.03831 0.4625 0.0
C385 C 0.51251 0.01032 0.55432 0.0
O386 O 0.48301 0.97754 0.48305 0.0
O387 O 0.52656 0.97132 0.49556 0.0
O388 O 0.44239 0.01746 0.51534 0.0
O389 O 0.46185 0.05408 0.49537 0.0
O390 O 0.48644 0.00035 0.54834 0.0
O391 O 0.52191 0.02774 0.53776 0.0
O392 O 0.55492 0.06905 0.52702 0.0
O393 O 0.50946 0.07171 0.51831 0.0
C394 C 0.50111 0.96034 0.48436 0.0
C395 C 0.53527 0.08464 0.5268 0.0
Dy396 Dy 0.23695 0.26297 0.75398 0.0
C397 C 0.35196 0.27284 0.74857 0.0
C398 C 0.18314 0.25142 0.76487 0.0
Dy399 Dy 0.29769 0.26082 0.75675 0.0
O400 O 0.19628 0.2763 0.75704 0.0
O401 O 0.1992 0.23273 0.76592 0.0
O402 O 0.24676 0.30529 0.73369 0.0
O403 O 0.27504 0.29645 0.76287 0.0
C404 C 0.27137 0.31398 0.74579 0.0
C405 C 0.26364 0.211 0.76729 0.0
O406 O 0.29597 0.27959 0.80181 0.0
O407 O 0.24867 0.27235 0.80126 0.0
O408 O 0.33674 0.29265 0.75081 0.0
O409 O 0.3376 0.24625 0.75124 0.0
O410 O 0.2884 0.22018 0.77888 0.0
O411 O 0.25948 0.22712 0.749 0.0
O412 O 0.23933 0.24288 0.70868 0.0
O413 O 0.28675 0.25443 0.71004 0.0
C414 C 0.27326 0.27947 0.815 0.0
C415 C 0.26252 0.24511 0.69584 0.0
Dy416 Dy 0.00899 0.01519 0.47805 0.0
C417 C 0.05553 0.05091 0.59175 0.0
C418 C 0.97651 0.00534 0.42934 0.0
Dy419 Dy 0.02789 0.03886 0.54 0.0
O420 O 0.00126 0.00096 0.43094 0.0
O421 O 0.96953 0.01427 0.45432 0.0
O422 O 0.05117 0.00976 0.46817 0.0
O423 O 0.04608 0.0441 0.50021 0.0
C424 C 0.06334 0.03099 0.4885 0.0
C425 C 0.97358 0.02327 0.52849 0.0
O426 O 0.03168 0.0839 0.52562 0.0
O427 O 0.00715 0.0646 0.48254 0.0
O428 O 0.0326 0.05836 0.58608 0.0
O429 O 0.06361 0.03736 0.56902 0.0
O430 O 0.98535 0.0448 0.54858 0.0
O431 O 0.99105 0.00991 0.51782 0.0
O432 O 0.00575 0.97038 0.49279 0.0
O433 O 0.03104 0.98968 0.53541 0.0
C434 C 0.0188 0.08763 0.5023 0.0
C435 C 0.01875 0.96644 0.51604 0.0
Dy436 Dy 0.30822 0.80621 0.74693 0.0
C437 C 0.19928 0.75251 0.68933 0.0
C438 C 0.35104 0.82448 0.78593 0.0
Dy439 Dy 0.24722 0.76925 0.72179 0.0
O440 O 0.34851 0.83693 0.76345 0.0
O441 O 0.32983 0.80283 0.78724 0.0
O442 O 0.32793 0.80303 0.70512 0.0
O443 O 0.28703 0.78484 0.70793 0.0
C444 C 0.30551 0.78727 0.69113 0.0
C445 C 0.25634 0.78285 0.77819 0.0
O446 O 0.2699 0.73169 0.71632 0.0
O447 O 0.30813 0.7567 0.74668 0.0
O448 O 0.20408 0.7422 0.71244 0.0
O449 O 0.22095 0.77124 0.68366 0.0
O450 O 0.23715 0.7603 0.76601 0.0
O451 O 0.26685 0.79745 0.75979 0.0
O452 O 0.28765 0.84519 0.74617 0.0
O453 O 0.24595 0.8186 0.72209 0.0
C454 C 0.29321 0.73206 0.73056 0.0
C455 C 0.26322 0.84427 0.73378 0.0
Dy456 Dy 0.50764 0.03352 0.04219 0.0
C457 C 0.51104 0.99358 0.92308 0.0
C458 C 0.50359 0.05657 0.09683 0.0
Dy459 Dy 0.50937 0.01971 0.97723 0.0
O460 O 0.51362 0.03302 0.08856 0.0
O461 O 0.49638 0.06787 0.07526 0.0
O462 O 0.49915 0.9839 0.04426 0.0
O463 O 0.52336 0.001 0.01291 0.0
C464 C 0.51185 0.97717 0.022 0.0
C465 C 0.5029 0.07519 0.99774 0.0
O466 O 0.46728 0.99431 0.98335 0.0
O467 O 0.46323 0.01873 0.02846 0.0
O468 O 0.50182 0.01785 0.93064 0.0
O469 O 0.51905 0.98355 0.94512 0.0
O470 O 0.51379 0.0695 0.97402 0.0
O471 O 0.49322 0.05084 0.00655 0.0
O472 O 0.54998 0.059 0.0363 0.0
O473 O 0.55337 0.03897 0.98938 0.0
C474 C 0.4526 0.00062 0.00481 0.0
C475 C 0.56405 0.05578 0.01363 0.0
Dy476 Dy 0.27113 0.31631 0.26637 0.0
C477 C 0.24749 0.18786 0.2588 0.0
C478 C 0.27648 0.37677 0.26512 0.0
Dy479 Dy 0.25104 0.24742 0.25401 0.0
O480 O 0.27771 0.36464 0.28784 0.0
O481 O 0.27306 0.35581 0.24319 0.0
O482 O 0.29758 0.3123 0.30352 0.0
O483 O 0.26038 0.28067 0.29249 0.0
C484 C 0.28186 0.28743 0.3088 0.0
C485 C 0.24091 0.27647 0.21145 0.0
O486 O 0.2131 0.25839 0.27093 0.0
O487 O 0.22577 0.31031 0.27012 0.0
O488 O 0.25214 0.19946 0.23584 0.0
O489 O 0.24359 0.2087 0.27861 0.0
O490 O 0.22598 0.2503 0.21489 0.0
O491 O 0.26183 0.28305 0.22841 0.0
O492 O 0.30861 0.30557 0.24829 0.0
O493 O 0.29643 0.25375 0.25 0.0
C494 C 0.20755 0.28573 0.27377 0.0
C495 C 0.3143 0.27834 0.2458 0.0
Dy496 Dy 0.50483 0.50278 0.9696 0.0
C497 C 0.55781 0.54988 0.07943 0.0
C498 C 0.4757 0.49057 0.91843 0.0
Dy499 Dy 0.52709 0.52771 0.03006 0.0
O500 O 0.50052 0.48751 0.92269 0.0
O501 O 0.46649 0.49954 0.9423 0.0
O502 O 0.54542 0.49179 0.96018 0.0
O503 O 0.5438 0.53019 0.98928 0.0
C504 C 0.5594 0.51444 0.97799 0.0
C505 C 0.4753 0.49595 0.02564 0.0
O506 O 0.52216 0.57158 0.01695 0.0
O507 O 0.50896 0.55276 0.96958 0.0
O508 O 0.53393 0.55517 0.07352 0.0
O509 O 0.56517 0.53342 0.05796 0.0
O510 O 0.49234 0.49778 0.04701 0.0
O511 O 0.48583 0.51343 0.00896 0.0
O512 O 0.50122 0.45981 0.98768 0.0
O513 O 0.53607 0.48117 0.02198 0.0
C514 C 0.51525 0.57542 0.99104 0.0
C515 C 0.51927 0.45705 0.00738 0.0
Dy516 Dy 0.78115 0.28238 0.26072 0.0
C517 C 0.67502 0.2311 0.20719 0.0
C518 C 0.82995 0.30324 0.29146 0.0
Dy519 Dy 0.72361 0.24837 0.23872 0.0
O520 O 0.82463 0.30896 0.26643 0.0
O521 O 0.80837 0.28668 0.2999 0.0
O522 O 0.79241 0.28809 0.21657 0.0
O523 O 0.76363 0.25025 0.22323 0.0
C524 C 0.77468 0.26419 0.20458 0.0
C525 C 0.73089 0.26419 0.29465 0.0
O526 O 0.7435 0.20851 0.23778 0.0
O527 O 0.77946 0.23474 0.26964 0.0
O528 O 0.68005 0.22196 0.23085 0.0
O529 O 0.69688 0.24855 0.20033 0.0
O530 O 0.71402 0.23965 0.28256 0.0
O531 O 0.74092 0.27989 0.27662 0.0
O532 O 0.76223 0.32247 0.26101 0.0
O533 O 0.72458 0.29652 0.23155 0.0
C534 C 0.76438 0.20895 0.25575 0.0
C535 C 0.74036 0.32227 0.24467 0.0
Dy536 Dy 0.01199 0.53736 0.52894 0.0
C537 C 0.03286 0.55431 0.41563 0.0
C538 C 0.99686 0.5387 0.58274 0.0
Dy539 Dy 0.01684 0.54967 0.46847 0.0
O540 O 0.01277 0.52209 0.57127 0.0
O541 O 0.98968 0.55502 0.56502 0.0
O542 O 0.03016 0.49648 0.52059 0.0
O543 O 0.00783 0.50851 0.48788 0.0
C544 C 0.02296 0.49107 0.49377 0.0
C545 C 0.00533 0.59452 0.50509 0.0
O546 O 0.97281 0.52743 0.46357 0.0
O547 O 0.96831 0.52522 0.51133 0.0
O548 O 0.01354 0.53303 0.42192 0.0
O549 O 0.04312 0.57323 0.43811 0.0
O550 O 0.99651 0.5891 0.47872 0.0
O551 O 0.0215 0.57789 0.50957 0.0
O552 O 0.05576 0.56092 0.53119 0.0
O553 O 0.05866 0.54631 0.48347 0.0
C554 C 0.95789 0.52174 0.48499 0.0
C555 C 0.0702 0.5562 0.50923 0.0
Dy556 Dy 0.73293 0.76265 0.25422 0.0
C557 C 0.84571 0.75559 0.2514 0.0
C558 C 0.67875 0.75396 0.26391 0.0
Dy559 Dy 0.79266 0.75666 0.26049 0.0
O560 O 0.6935 0.77883 0.25754 0.0
O561 O 0.69338 0.73369 0.26384 0.0
O562 O 0.74569 0.80426 0.2333 0.0
O563 O 0.77218 0.79415 0.26351 0.0
C564 C 0.77017 0.81159 0.24587 0.0
C565 C 0.75579 0.70929 0.27153 0.0
O566 O 0.78993 0.77766 0.30516 0.0
O567 O 0.74284 0.77311 0.30137 0.0
O568 O 0.82474 0.73435 0.24136 0.0
O569 O 0.83787 0.77752 0.26704 0.0
O570 O 0.78026 0.71746 0.2838 0.0
O571 O 0.75334 0.72488 0.25231 0.0
O572 O 0.73681 0.74185 0.20983 0.0
O573 O 0.7841 0.75581 0.21381 0.0
C574 C 0.76659 0.77979 0.31658 0.0
C575 C 0.76066 0.74516 0.19831 0.0
Dy576 Dy 0.75993 0.27809 0.74025 0.0
C577 C 0.77955 0.27918 0.85963 0.0
C578 C 0.74877 0.28772 0.68688 0.0
Dy579 Dy 0.76104 0.27807 0.80569 0.0
O580 O 0.77205 0.2836 0.69642 0.0
O581 O 0.7317 0.28671 0.70645 0.0
O582 O 0.7878 0.24502 0.73592 0.0
O583 O 0.78945 0.27537 0.77331 0.0
C584 C 0.7976 0.25255 0.762 0.0
C585 C 0.7137 0.28166 0.78127 0.0
O586 O 0.77894 0.32684 0.80486 0.0
O587 O 0.78213 0.32645 0.75632 0.0
O588 O 0.79258 0.27309 0.83753 0.0
O589 O 0.75607 0.28456 0.85236 0.0
O590 O 0.71537 0.26912 0.80376 0.0
O591 O 0.73721 0.29362 0.77484 0.0
O592 O 0.73099 0.23408 0.74356 0.0
O593 O 0.74697 0.22878 0.78829 0.0
C594 C 0.78644 0.34049 0.78293 0.0
C595 C 0.73193 0.21785 0.76426 0.0
Dy596 Dy 0.77555 0.82262 0.77809 0.0
C597 C 0.76494 0.69452 0.76021 0.0
C598 C 0.77386 0.8815 0.77664 0.0
Dy599 Dy 0.76298 0.75373 0.76022 0.0
O600 O 0.78214 0.87143 0.79866 0.0
O601 O 0.76673 0.85941 0.75577 0.0
O602 O 0.80045 0.81917 0.81646 0.0
O603 O 0.76658 0.78387 0.80064 0.0
C604 C 0.78675 0.79206 0.81876 0.0
C605 C 0.75555 0.78594 0.71886 0.0
O606 O 0.72224 0.75731 0.77547 0.0
O607 O 0.73017 0.81003 0.78203 0.0
O608 O 0.76348 0.70697 0.73769 0.0
O609 O 0.76468 0.7143 0.78238 0.0
O610 O 0.74095 0.75873 0.71942 0.0
O611 O 0.77363 0.79239 0.73888 0.0
O612 O 0.81497 0.81863 0.76038 0.0
O613 O 0.80909 0.76657 0.75905 0.0
C614 C 0.71391 0.78299 0.782 0.0
C615 C 0.82447 0.7935 0.75647 0.0
Dy616 Dy 0.49362 0.51777 0.50592 0.0
C617 C 0.60799 0.52296 0.51159 0.0
C618 C 0.44224 0.52559 0.51319 0.0
Dy619 Dy 0.55629 0.5321 0.51595 0.0
O620 O 0.44828 0.50465 0.49468 0.0
O621 O 0.46409 0.54162 0.5276 0.0
O622 O 0.49549 0.48811 0.46462 0.0
O623 O 0.52752 0.52543 0.47961 0.0
C624 C 0.52014 0.50239 0.46107 0.0
C625 C 0.52875 0.5474 0.56047 0.0
O626 O 0.55328 0.57426 0.49822 0.0
O627 O 0.50616 0.56703 0.50062 0.0
O628 O 0.5987 0.53468 0.53453 0.0
O629 O 0.58946 0.51791 0.4909 0.0
O630 O 0.55296 0.56271 0.55645 0.0
O631 O 0.52206 0.52404 0.54212 0.0
O632 O 0.49726 0.47615 0.52307 0.0
O633 O 0.54374 0.48185 0.51773 0.0
C634 C 0.53019 0.5839 0.49624 0.0
C635 C 0.51975 0.46541 0.5226 0.0
Dy636 Dy 0.03228 0.49477 0.00078 0.0
C637 C 0.92266 0.51735 -0.00035 0.0
C638 C 0.08045 0.47734 0.00964 0.0
Dy639 Dy 0.96973 0.49669 0.00407 0.0
O640 O 0.07586 0.49414 0.99105 0.0
O641 O 0.05891 0.47053 0.0235 0.0
O642 O 0.03458 0.51833 0.96253 0.0
O643 O 0.99762 0.49106 0.97148 0.0
C644 C 0.0084 0.50952 0.95599 0.0
C645 C 0.99425 0.48299 0.04913 0.0
O646 O 0.96493 0.45049 0.97867 0.0
O647 O 0.00983 0.44573 0.98717 0.0
O648 O 0.92515 0.4942 0.01174 0.0
O649 O 0.94546 0.52824 0.98931 0.0
O650 O 0.96815 0.47381 0.04285 0.0
O651 O 0.0045 0.50122 0.03328 0.0
O652 O 0.03694 0.54266 0.02348 0.0
O653 O 0.99198 0.54556 0.01272 0.0
C654 C 0.98388 0.43398 0.97779 0.0
C655 C 0.0176 0.55842 0.02189 0.0
H656 H 0.95087 0.15534 0.93947 0.0
H657 H 0.02456 0.16254 0.89517 0.0
H658 H 0.04088 0.12921 0.92394 0.0
H659 H 0.03223 0.09379 0.95854 0.0
H660 H 0.95798 0.08604 0.00185 0.0
H661 H 0.94428 0.12399 0.97706 0.0
C662 C 0.97062 0.14989 0.93623 0.0
C663 C 0.98621 0.16125 0.91484 0.0
C664 C 0.9799 0.1305 0.95278 0.0
C665 C 0.01192 0.15405 0.91128 0.0
C666 C 0.02133 0.13492 0.92776 0.0
C667 C 0.01343 0.10102 0.9631 0.0
C668 C 0.99618 0.08697 0.98199 0.0
C669 C 0.00526 0.12247 0.94819 0.0
C670 C 0.97166 0.09637 0.98735 0.0
C671 C 0.96369 0.11799 0.97305 0.0
H672 H 0.12735 0.81382 0.18443 0.0
H673 H 0.07924 0.76445 0.24209 0.0
H674 H 0.12057 0.76049 0.26806 0.0
H675 H 0.17045 0.77142 0.27492 0.0
H676 H 0.21893 0.82526 0.2207 0.0
H677 H 0.17773 0.82695 0.19281 0.0
C678 C 0.12604 0.80211 0.2026 0.0
C679 C 0.10035 0.78938 0.21129 0.0
C680 C 0.15 0.80065 0.21804 0.0
C681 C 0.09883 0.77458 0.23507 0.0
C682 C 0.12245 0.77225 0.24994 0.0
C683 C 0.17196 0.78353 0.25702 0.0
C684 C 0.19769 0.79744 0.24937 0.0
C685 C 0.14813 0.78532 0.24173 0.0
C686 C 0.19936 0.81345 0.22639 0.0
C687 C 0.17579 0.81469 0.2106 0.0
H688 H 0.44508 0.82666 0.42997 0.0
H689 H 0.52768 0.82475 0.40964 0.0
H690 H 0.54337 0.87684 0.43434 0.0
H691 H 0.53325 0.92334 0.46111 0.0
H692 H 0.44997 0.92507 0.47875 0.0
H693 H 0.43497 0.87249 0.45589 0.0
C694 C 0.46657 0.8375 0.43101 0.0
C695 C 0.48519 0.82172 0.41807 0.0
C696 C 0.47533 0.86744 0.44483 0.0
C697 C 0.5129 0.83637 0.41937 0.0
C698 C 0.52188 0.86613 0.43355 0.0
C699 C 0.51188 0.91206 0.46013 0.0
C700 C 0.49274 0.92802 0.47167 0.0
C701 C 0.50325 0.88192 0.44633 0.0
C702 C 0.46507 0.91331 0.46994 0.0
C703 C 0.45646 0.88324 0.45688 0.0
H704 H 0.4626 0.3166 0.69595 0.0
H705 H 0.47318 0.22756 0.70673 0.0
H706 H 0.42955 0.21793 0.72916 0.0
H707 H 0.38721 0.23456 0.74319 0.0
H708 H 0.37944 0.32524 0.73413 0.0
H709 H 0.42349 0.33478 0.71384 0.0
C710 C 0.45534 0.29508 0.70327 0.0
C711 C 0.47056 0.27256 0.69937 0.0
C712 C 0.43089 0.29015 0.71651 0.0
C713 C 0.46151 0.24507 0.70946 0.0
C714 C 0.43664 0.23962 0.7222 0.0
C715 C 0.39541 0.25647 0.73706 0.0
C716 C 0.38007 0.27909 0.73984 0.0
C717 C 0.42099 0.26193 0.72552 0.0
C718 C 0.39086 0.30747 0.73207 0.0
C719 C 0.41598 0.31293 0.72037 0.0
H720 H 0.97425 0.83876 0.55047 0.0
H721 H 0.04426 0.86909 0.61032 0.0
H722 H 0.05959 0.91362 0.58742 0.0
H723 H 0.04959 0.94716 0.55444 0.0
H724 H 0.97964 0.91632 0.49445 0.0
H725 H 0.96807 0.86861 0.51308 0.0
C726 C 0.99313 0.85485 0.55819 0.0
C727 C 0.00787 0.85089 0.58231 0.0
C728 C 0.00173 0.88043 0.54502 0.0
C729 C 0.03251 0.87163 0.59182 0.0
C730 C 0.04119 0.89722 0.57884 0.0
C731 C 0.03212 0.92975 0.54509 0.0
C732 C 0.01532 0.93548 0.52333 0.0
C733 C 0.02544 0.90237 0.55604 0.0
C734 C 0.99294 0.91256 0.5112 0.0
C735 C 0.98617 0.8853 0.52199 0.0
H736 H 0.47057 0.82601 0.82728 0.0
H737 H 0.42674 0.76186 0.8764 0.0
H738 H 0.3839 0.77382 0.86193 0.0
H739 H 0.35837 0.79716 0.8306 0.0
H740 H 0.40123 0.85881 0.77888 0.0
H741 H 0.44501 0.85384 0.79965 0.0
C742 C 0.45168 0.81493 0.83508 0.0
C743 C 0.45187 0.79284 0.85267 0.0
C744 C 0.42694 0.82147 0.8262 0.0
C745 C 0.42725 0.77889 0.86282 0.0
C746 C 0.40267 0.78565 0.85449 0.0
C747 C 0.37731 0.81004 0.82434 0.0
C748 C 0.37671 0.82801 0.80306 0.0
C749 C 0.40221 0.80619 0.83555 0.0
C750 C 0.40128 0.84477 0.79522 0.0
C751 C 0.42627 0.84169 0.80689 0.0
H752 H 0.45007 0.18654 0.0352 0.0
H753 H 0.49929 0.18938 0.11148 0.0
H754 H 0.51729 0.14681 0.08929 0.0
H755 H 0.51927 0.10883 0.04817 0.0
H756 H 0.47034 0.1052 0.97191 0.0
H757 H 0.45278 0.14883 0.99356 0.0
C758 C 0.46453 0.17761 0.047 0.0
C759 C 0.47314 0.19091 0.07501 0.0
C760 C 0.47525 0.15345 0.03391 0.0
C761 C 0.49229 0.1795 0.08991 0.0
C762 C 0.50269 0.15524 0.07722 0.0
C763 C 0.50463 0.1176 0.03649 0.0
C764 C 0.49577 0.10395 0.00881 0.0
C765 C 0.49439 0.14213 0.04925 0.0
C766 C 0.4775 0.11576 0.99328 0.0
C767 C 0.46729 0.1404 0.00575 0.0
H768 H 0.09729 0.32137 0.30926 0.0
H769 H 0.09244 0.24256 0.35054 0.0
H770 H 0.13526 0.23475 0.33205 0.0
H771 H 0.17422 0.2501 0.3043 0.0
H772 H 0.18089 0.33029 0.26494 0.0
H773 H 0.13723 0.33762 0.28234 0.0
C774 C 0.10564 0.30254 0.31424 0.0
C775 C 0.09158 0.28259 0.33124 0.0
C776 C 0.13055 0.29828 0.30374 0.0
C777 C 0.1028 0.25837 0.33761 0.0
C778 C 0.12728 0.25378 0.32695 0.0
C779 C 0.16599 0.26902 0.29929 0.0
C780 C 0.1806 0.28944 0.28313 0.0
C781 C 0.14128 0.2735 0.30993 0.0
C782 C 0.16996 0.3142 0.2773 0.0
C783 C 0.14503 0.31842 0.28727 0.0
H784 H 0.91385 0.01398 0.1437 0.0
H785 H 0.95495 0.10791 0.1682 0.0
H786 H 0.98319 0.10448 0.12827 0.0
H787 H -0.00126 0.07383 0.08827 0.0
H788 H 0.95794 0.97993 0.06389 0.0
H789 H 0.92713 0.98436 0.10161 0.0
C790 C 0.92869 0.03382 0.14008 0.0
C791 C 0.93237 0.06107 0.15914 0.0
C792 C 0.94518 0.03164 0.11717 0.0
C793 C 0.95174 0.08656 0.15403 0.0
C794 C 0.96802 0.08463 0.13121 0.0
C795 C 0.983 0.05443 0.0912 0.0
C796 C 0.98069 0.0266 0.07345 0.0
C797 C 0.96537 0.05711 0.11301 0.0
C798 C 0.96008 0.00166 0.07725 0.0
C799 C 0.94248 0.00414 0.09887 0.0
H800 H 0.33835 0.74037 0.43989 0.0
H801 H 0.25348 0.708 0.45397 0.0
H802 H 0.24022 0.74028 0.42222 0.0
H803 H 0.25217 0.77165 0.38544 0.0
H804 H 0.33663 0.80141 0.36905 0.0
H805 H 0.35068 0.77683 0.40729 0.0
C806 C 0.31697 0.74065 0.43635 0.0
C807 C 0.29692 0.72127 0.44883 0.0
C808 C 0.30942 0.75883 0.41765 0.0
C809 C 0.26934 0.72229 0.44429 0.0
C810 C 0.26171 0.74078 0.42615 0.0
C811 C 0.27368 0.77345 0.39078 0.0
C812 C 0.29334 0.78798 0.37441 0.0
C813 C 0.28149 0.7583 0.41199 0.0
C814 C 0.32115 0.79027 0.38145 0.0
C815 C 0.32916 0.77598 0.40311 0.0
H816 H 0.59784 0.01759 0.65458 0.0
H817 H 0.55693 0.92357 0.64993 0.0
H818 H 0.52674 0.92795 0.61047 0.0
H819 H 0.51031 0.95958 0.57868 0.0
H820 H 0.5521 0.05327 0.58391 0.0
H821 H 0.58316 0.0481 0.62206 0.0
C822 C 0.58259 0.99791 0.64473 0.0
C823 C 0.57951 0.97043 0.65533 0.0
C824 C 0.565 0.00071 0.6225 0.0
C825 C 0.55969 0.9451 0.64221 0.0
C826 C 0.54224 0.94761 0.61978 0.0
C827 C 0.52602 0.97881 0.58855 0.0
C828 C 0.52881 0.0068 0.57897 0.0
C829 C 0.54427 0.97552 0.61017 0.0
C830 C 0.54956 0.03153 0.59125 0.0
C831 C 0.56742 0.02858 0.6129 0.0
H832 H 0.30771 0.31619 0.94489 0.0
H833 H 0.23189 0.34634 0.94505 0.0
H834 H 0.22278 0.32644 0.89466 0.0
H835 H 0.23782 0.3028 0.84969 0.0
H836 H 0.31509 0.27572 0.85056 0.0
H837 H 0.32201 0.29203 0.90124 0.0
C838 C 0.28899 0.31821 0.93411 0.0
C839 C 0.27052 0.33278 0.94898 0.0
C840 C 0.28421 0.3074 0.90509 0.0
C841 C 0.24651 0.33524 0.9343 0.0
C842 C 0.24132 0.32392 0.90541 0.0
C843 C 0.25604 0.30026 0.86105 0.0
C844 C 0.27597 0.28815 0.84619 0.0
C845 C 0.26023 0.3103 0.89044 0.0
C846 C 0.29953 0.28521 0.86128 0.0
C847 C 0.30351 0.29447 0.89036 0.0
H848 H 0.90143 0.03125 0.33281 0.0
H849 H 0.96466 0.00608 0.28241 0.0
H850 H 0.98716 0.99393 0.32385 0.0
H851 H 0.99051 0.99392 0.37525 0.0
H852 H 0.92658 0.01845 0.42495 0.0
H853 H 0.90246 0.02682 0.38286 0.0
C854 C 0.91991 0.02279 0.33072 0.0
C855 C 0.93136 0.0198 0.30451 0.0
C856 C 0.93265 0.0157 0.35457 0.0
C857 C 0.95539 0.0087 0.30234 0.0
C858 C 0.96832 0.00176 0.32604 0.0
C859 C 0.97109 0.00063 0.37672 0.0
C860 C 0.96042 0.00576 0.40315 0.0
C861 C 0.95736 0.00563 0.35238 0.0
C862 C 0.93525 0.01443 0.40483 0.0
C863 C 0.92148 0.01936 0.38079 0.0
H864 H 0.28326 0.69644 0.57739 0.0
H865 H 0.36996 0.73048 0.5742 0.0
H866 H 0.37079 0.76481 0.61822 0.0
H867 H 0.34708 0.7846 0.65791 0.0
H868 H 0.26083 0.74975 0.66171 0.0
H869 H 0.25952 0.71657 0.61676 0.0
C870 C 0.3024 0.71126 0.58632 0.0
C871 C 0.32653 0.71078 0.57251 0.0
C872 C 0.30274 0.73102 0.61154 0.0
C873 C 0.35108 0.7303 0.58438 0.0
C874 C 0.35158 0.75002 0.60952 0.0
C875 C 0.32796 0.76999 0.64869 0.0
C876 C 0.30401 0.76973 0.66282 0.0
C877 C 0.32754 0.75058 0.62323 0.0
C878 C 0.27941 0.75054 0.65094 0.0
C879 C 0.27872 0.73142 0.6254 0.0
H880 H 0.57095 0.95497 0.8179 0.0
H881 H 0.53898 0.02591 0.78748 0.0
H882 H 0.5123 0.03045 0.82898 0.0
H883 H 0.50282 0.01815 0.8764 0.0
H884 H 0.53507 0.94688 0.90608 0.0
H885 H 0.5564 0.93784 0.86184 0.0
C886 C 0.55794 0.97125 0.82031 0.0
C887 C 0.55723 0.99057 0.80026 0.0
C888 C 0.54272 0.9735 0.8439 0.0
C889 C 0.5399 0.01105 0.80299 0.0
C890 C 0.52474 0.01364 0.82664 0.0
C891 C 0.51399 0.00019 0.87284 0.0
C892 C 0.51785 0.98352 0.89444 0.0
C893 C 0.5266 0.99552 0.84758 0.0
C894 C 0.53211 0.96014 0.88971 0.0
C895 C 0.54444 0.9551 0.86455 0.0
H896 H 0.24439 0.35883 0.11608 0.0
H897 H 0.26837 0.28196 0.06903 0.0
H898 H 0.25963 0.25386 0.10859 0.0
H899 H 0.24982 0.25302 0.15845 0.0
H900 H 0.22946 0.3312 0.20691 0.0
H901 H 0.23218 0.35695 0.16536 0.0
C902 C 0.24696 0.33563 0.11427 0.0
C903 C 0.25668 0.32235 0.08948 0.0
C904 C 0.24302 0.32005 0.13766 0.0
C905 C 0.26067 0.29257 0.08776 0.0
C906 C 0.25586 0.27656 0.11046 0.0
C907 C 0.24553 0.27548 0.15966 0.0
C908 C 0.23946 0.29029 0.18558 0.0
C909 C 0.24773 0.29033 0.13579 0.0
C910 C 0.23434 0.31953 0.18715 0.0
C911 C 0.23583 0.33419 0.16337 0.0
H912 H 0.19704 0.97894 0.97685 0.0
H913 H 0.16534 0.90331 0.01967 0.0
H914 H 0.12714 0.92598 0.03378 0.0
H915 H 0.10266 0.96687 0.03381 0.0
H916 H 0.13164 0.0405 0.9879 0.0
H917 H 0.17151 0.01942 0.97566 0.0
C918 C 0.1817 0.96736 0.98916 0.0
C919 C 0.18406 0.93947 0.99721 0.0
C920 C 0.15965 0.98043 0.99705 0.0
C921 C 0.16394 0.92467 0.01303 0.0
C922 C 0.1422 0.93774 0.02131 0.0
C923 C 0.11798 0.97864 0.02157 0.0
C924 C 0.11465 0.00553 0.01224 0.0
C925 C 0.13997 0.96566 0.01359 0.0
C926 C 0.13415 0.02005 0.9957 0.0
C927 C 0.15673 0.00784 0.9885 0.0
H928 H 0.68544 0.5442 0.96169 0.0
H929 H 0.67836 0.63193 0.00434 0.0
H930 H 0.62989 0.61212 0.00919 0.0
H931 H 0.58928 0.57021 0.00019 0.0
H932 H 0.59613 0.48316 0.95596 0.0
H933 H 0.6451 0.50229 0.95316 0.0
C934 C 0.67334 0.55902 0.9721 0.0
C935 C 0.68553 0.58954 0.98257 0.0
C936 C 0.64549 0.54755 0.97462 0.0
C937 C 0.66949 0.60839 0.99597 0.0
C938 C 0.64179 0.59706 -0.00118 0.0
C939 C 0.60157 0.55538 0.99015 0.0
C940 C 0.58921 0.52533 0.97827 0.0
C941 C 0.62955 0.56672 0.98811 0.0
C942 C 0.60525 0.50639 0.9652 0.0
C943 C 0.6332 0.51733 0.96354 0.0
H944 H 0.67198 0.42248 0.24298 0.0
H945 H 0.72586 0.46267 0.31687 0.0
H946 H 0.75259 0.42401 0.30684 0.0
H947 H 0.75688 0.37518 0.2809 0.0
H948 H 0.70109 0.33282 0.2089 0.0
H949 H 0.67918 0.37605 0.21414 0.0
C950 C 0.68996 0.42319 0.25648 0.0
C951 C 0.69679 0.44526 0.28075 0.0
C952 C 0.70473 0.40026 0.25111 0.0
C953 C 0.72002 0.44574 0.29819 0.0
C954 C 0.73529 0.4236 0.29251 0.0
C955 C 0.74032 0.37566 0.26596 0.0
C956 C 0.73051 0.35065 0.2447 0.0
C957 C 0.72727 0.40015 0.2696 0.0
C958 C 0.70893 0.35165 0.22562 0.0
C959 C 0.69632 0.37635 0.22863 0.0
H960 H 0.83128 0.47278 0.47343 0.0
H961 H 0.85684 0.3961 0.50054 0.0
H962 H 0.90423 0.41983 0.4967 0.0
H963 H 0.93861 0.46488 0.49176 0.0
H964 H 0.91455 0.54244 0.46571 0.0
H965 H 0.86624 0.51596 0.46296 0.0
C966 C 0.8472 0.46105 0.47798 0.0
C967 C 0.84051 0.43283 0.48753 0.0
C968 C 0.87463 0.47517 0.47632 0.0
C969 C 0.86133 0.41782 0.49321 0.0
C970 C 0.88852 0.43145 0.4912 0.0
C971 C 0.92268 0.47568 0.48509 0.0
C972 C 0.92957 0.50537 0.47923 0.0
C973 C 0.89538 0.46049 0.48375 0.0
C974 C 0.90927 0.51945 0.47033 0.0
C975 C 0.88182 0.50438 0.46888 0.0
H976 H 0.30858 0.10849 0.3194 0.0
H977 H 0.3506 0.10868 0.24263 0.0
H978 H 0.31602 0.13027 0.22126 0.0
H979 H 0.27847 0.15658 0.22714 0.0
H980 H 0.23891 0.16046 0.3052 0.0
H981 H 0.26718 0.12873 0.32288 0.0
C982 C 0.31001 0.11284 0.29786 0.0
C983 C 0.33254 0.10763 0.28292 0.0
C984 C 0.29035 0.12585 0.28585 0.0
C985 C 0.33379 0.11301 0.25486 0.0
C986 C 0.31395 0.12528 0.24254 0.0
C987 C 0.27538 0.14956 0.24761 0.0
C988 C 0.25688 0.16095 0.26498 0.0
C989 C 0.29273 0.13281 0.2582 0.0
C990 C 0.2531 0.15189 0.29151 0.0
C991 C 0.2695 0.13409 0.30175 0.0
H992 H 0.32352 0.07511 0.51044 0.0
H993 H 0.36865 0.15503 0.48119 0.0
H994 H 0.41003 0.13531 0.48243 0.0
H995 H 0.43316 0.09447 0.4898 0.0
H996 H 0.38862 0.01448 0.51914 0.0
H997 H 0.34725 0.03491 0.51959 0.0
C998 C 0.34248 0.0884 0.50469 0.0
C999 C 0.34289 0.11661 0.4958 0.0
C1000 C 0.36626 0.07669 0.50506 0.0
C1001 C 0.36766 0.13337 0.48824 0.0
C1002 C 0.39136 0.12201 0.48877 0.0
C1003 C 0.41436 0.08149 0.49624 0.0
C1004 C 0.41384 0.05291 0.50421 0.0
C1005 C 0.39082 0.09352 0.49673 0.0
C1006 C 0.38946 0.03646 0.51276 0.0
C1007 C 0.36584 0.04818 0.5131 0.0
H1008 H 0.66616 0.58959 0.27155 0.0
H1009 H 0.71371 0.58869 0.34804 0.0
H1010 H 0.7433 0.63701 0.34259 0.0
H1011 H 0.75712 0.67821 0.31495 0.0
H1012 H 0.70971 0.67956 0.23871 0.0
H1013 H 0.67845 0.63242 0.24533 0.0
C1014 C 0.68292 0.59999 0.28712 0.0
C1015 C 0.6878 0.58531 0.31006 0.0
C1016 C 0.6999 0.62781 0.28387 0.0
C1017 C 0.70946 0.59936 0.33016 0.0
C1018 C 0.72647 0.62699 0.32703 0.0
C1019 C 0.73986 0.66822 0.29986 0.0
C1020 C 0.73577 0.68212 0.2763 0.0
C1021 C 0.72209 0.64118 0.30379 0.0
C1022 C 0.71323 0.6692 0.25702 0.0
C1023 C 0.69543 0.64223 0.26076 0.0
H1024 H 0.84351 0.4747 0.83369 0.0
H1025 H 0.87924 0.47153 0.75336 0.0
H1026 H 0.85282 0.41944 0.73894 0.0
H1027 H 0.81989 0.37433 0.74981 0.0
H1028 H 0.78495 0.37948 0.83066 0.0
H1029 H 0.8106 0.43135 0.84395 0.0
C1030 C 0.84572 0.46272 0.81301 0.0
C1031 C 0.86353 0.47704 0.79475 0.0
C1032 C 0.83043 0.43308 0.80485 0.0
C1033 C 0.86577 0.46105 0.76794 0.0
C1034 C 0.85062 0.43128 0.75965 0.0
C1035 C 0.81772 0.38696 0.77019 0.0
C1036 C 0.8006 0.37289 0.78922 0.0
C1037 C 0.83285 0.41702 0.77797 0.0
C1038 C 0.79814 0.38953 0.81564 0.0
C1039 C 0.81282 0.41927 0.82334 0.0
H1040 H 0.98702 0.81404 0.04968 0.0
H1041 H 0.06262 0.85654 0.09865 0.0
H1042 H 0.0673 0.90007 0.07328 0.0
H1043 H 0.04633 0.929 0.04199 0.0
H1044 H 0.96853 0.88734 0.99697 0.0
H1045 H 0.96832 0.84054 0.01601 0.0
C1046 C 0.0048 0.83257 0.05468 0.0
C1047 C 0.02424 0.83209 0.07644 0.0
C1048 C 0.00674 0.85792 0.04088 0.0
C1049 C 0.04727 0.85625 0.08214 0.0
C1050 C 0.04983 0.88128 0.06776 0.0
C1051 C 0.02964 0.90942 0.03591 0.0
C1052 C 0.00737 0.91166 0.01819 0.0
C1053 C 0.02918 0.88284 0.0478 0.0
C1054 C 0.98577 0.88625 0.0107 0.0
C1055 C 0.98563 0.8595 0.02161 0.0
H1056 H 0.88757 0.21011 0.83172 0.0
H1057 H 0.93709 0.24947 0.7693 0.0
H1058 H 0.89721 0.26038 0.74631 0.0
H1059 H 0.8483 0.26009 0.74419 0.0
H1060 H 0.79847 0.22246 0.80678 0.0
H1061 H 0.83812 0.20955 0.82937 0.0
C1062 C 0.8896 0.22106 0.81312 0.0
C1063 C 0.91538 0.22901 0.80239 0.0
C1064 C 0.86645 0.2276 0.79995 0.0
C1065 C 0.91759 0.2432 0.77819 0.0
C1066 C 0.89474 0.24942 0.76489 0.0
C1067 C 0.84619 0.24875 0.7626 0.0
C1068 C 0.82075 0.24229 0.77397 0.0
C1069 C 0.86911 0.24183 0.77559 0.0
C1070 C 0.81807 0.22791 0.79794 0.0
C1071 C 0.8407 0.22048 0.81079 0.0
H1072 H 0.55059 0.20656 0.61129 0.0
H1073 H 0.47887 0.21105 0.56096 0.0
H1074 H 0.48378 0.16687 0.52853 0.0
H1075 H 0.50566 0.1248 0.51642 0.0
H1076 H 0.57498 0.11623 0.56777 0.0
H1077 H 0.57455 0.1649 0.59709 0.0
C1078 C 0.53614 0.19794 0.59314 0.0
C1079 C 0.51415 0.21195 0.58887 0.0
C1080 C 0.53884 0.17203 0.57456 0.0
C1081 C 0.49572 0.20055 0.56512 0.0
C1082 C 0.49859 0.17535 0.54639 0.0
C1083 C 0.52098 0.13372 0.5338 0.0
C1084 C 0.54016 0.1168 0.54009 0.0
C1085 C 0.51972 0.16065 0.55119 0.0
C1086 C 0.56009 0.12892 0.56238 0.0
C1087 C 0.55958 0.15652 0.57938 0.0
H1088 H 0.5682 0.72183 0.32195 0.0
H1089 H 0.56997 0.81612 0.31803 0.0
H1090 H 0.61247 0.82054 0.29427 0.0
H1091 H 0.64948 0.79765 0.27487 0.0
H1092 H 0.64718 0.70322 0.27844 0.0
H1093 H 0.60439 0.6987 0.30161 0.0
C1094 C 0.57797 0.74342 0.31609 0.0
C1095 C 0.566 0.76866 0.32197 0.0
C1096 C 0.60217 0.74567 0.30203 0.0
C1097 C 0.57878 0.79634 0.31385 0.0
C1098 C 0.60305 0.79887 0.30017 0.0
C1099 C 0.63939 0.77602 0.28043 0.0
C1100 C 0.65138 0.75078 0.27487 0.0
C1101 C 0.6149 0.77367 0.29405 0.0
C1102 C 0.63826 0.72295 0.28238 0.0
C1103 C 0.61388 0.72038 0.29579 0.0
H1104 H 0.99646 0.21212 0.47897 0.0
H1105 H 0.04371 0.19261 0.40815 0.0
H1106 H 0.05275 0.14836 0.42652 0.0
H1107 H 0.04246 0.11172 0.45948 0.0
H1108 H 0.99671 0.13139 0.53111 0.0
H1109 H 0.99186 0.17922 0.5158 0.0
C1110 C 0.00911 0.19846 0.46782 0.0
C1111 C 0.01901 0.20539 0.44199 0.0
C1112 C 0.01423 0.17295 0.47849 0.0
C1113 C 0.03574 0.18777 0.42801 0.0
C1114 C 0.04079 0.16231 0.43839 0.0
C1115 C 0.03188 0.12686 0.47192 0.0
C1116 C 0.01972 0.11831 0.49612 0.0
C1117 C 0.02941 0.15417 0.46308 0.0
C1118 C 0.0062 0.13785 0.51239 0.0
C1119 C 0.00334 0.165 0.50356 0.0
H1120 H 0.55008 0.2189 0.17765 0.0
H1121 H 0.58197 0.29653 0.13749 0.0
H1122 H 0.62852 0.29136 0.1484 0.0
H1123 H 0.66011 0.26685 0.17206 0.0
H1124 H 0.62815 0.19142 0.2148 0.0
H1125 H 0.58154 0.19324 0.19965 0.0
C1126 C 0.56717 0.23465 0.17113 0.0
C1127 C 0.56253 0.25823 0.15695 0.0
C1128 C 0.59383 0.23178 0.1778 0.0
C1129 C 0.58496 0.27833 0.14861 0.0
C1130 C 0.61158 0.27533 0.15478 0.0
C1131 C 0.64293 0.25045 0.17757 0.0
C1132 C 0.64744 0.22891 0.19437 0.0
C1133 C 0.61625 0.25239 0.16967 0.0
C1134 C 0.62508 0.20809 0.20177 0.0
C1135 C 0.59848 0.20926 0.19327 0.0
H1136 H 0.49085 0.83726 0.97866 0.0
H1137 H 0.55092 0.8669 0.92097 0.0
H1138 H 0.55745 0.91933 0.94512 0.0
H1139 H 0.54313 0.95732 0.98065 0.0
H1140 H 0.48098 0.92622 0.03577 0.0
H1141 H 0.47832 0.87385 0.01465 0.0
C1142 C 0.50563 0.85505 0.97143 0.0
C1143 C 0.5202 0.84809 0.94786 0.0
C1144 C 0.50866 0.88504 0.98482 0.0
C1145 C 0.53947 0.87152 0.93911 0.0
C1146 C 0.54302 0.90158 0.95277 0.0
C1147 C 0.5289 0.93903 0.98779 0.0
C1148 C 0.51189 0.94568 0.00937 0.0
C1149 C 0.52719 0.90872 0.97522 0.0
C1150 C 0.49414 0.92175 0.01907 0.0
C1151 C 0.49259 0.89176 0.00701 0.0
H1152 H 0.92872 0.819 0.68817 0.0
H1153 H 0.93124 0.72777 0.69995 0.0
H1154 H 0.89055 0.72503 0.72721 0.0
H1155 H 0.85375 0.74889 0.74681 0.0
H1156 H 0.85495 0.84195 0.73717 0.0
H1157 H 0.89499 0.84378 0.71046 0.0
C1158 C 0.92023 0.79841 0.69654 0.0
C1159 C 0.93247 0.77341 0.69168 0.0
C1160 C 0.89772 0.7975 0.71288 0.0
C1161 C 0.92185 0.74717 0.70326 0.0
C1162 C 0.89871 0.74568 0.71888 0.0
C1163 C 0.86299 0.76965 0.73916 0.0
C1164 C 0.85113 0.79515 0.74396 0.0
C1165 C 0.88643 0.77077 0.72382 0.0
C1166 C 0.8635 0.82194 0.73396 0.0
C1167 C 0.88639 0.82302 0.71844 0.0
H1168 H 0.05557 0.98452 0.83441 0.0
H1169 H 0.12997 0.01791 0.88752 0.0
H1170 H 0.10428 0.01279 0.92956 0.0
H1171 H 0.06048 0.99828 0.95092 0.0
H1172 H 0.98674 0.9614 0.89775 0.0
H1173 H 0.01229 0.96762 0.85582 0.0
C1174 C 0.06607 0.99101 0.85523 0.0
C1175 C 0.09452 0.00209 0.85798 0.0
C1176 C 0.0513 0.9869 0.87915 0.0
C1177 C 0.10805 0.00959 0.88497 0.0
C1178 C 0.09339 0.00655 0.90895 0.0
C1179 C 0.05011 0.99172 0.93018 0.0
C1180 C 0.02183 0.97974 0.92741 0.0
C1181 C 0.06502 0.99511 0.90626 0.0
C1182 C 0.00856 0.97054 0.90038 0.0
C1183 C 0.02312 0.97433 0.87644 0.0
H1184 H 0.72941 0.34526 0.57912 0.0
H1185 H 0.78056 0.28527 0.54595 0.0
H1186 H 0.77881 0.26324 0.5891 0.0
H1187 H 0.76893 0.26663 0.63885 0.0
H1188 H 0.71619 0.32428 0.67201 0.0
H1189 H 0.71231 0.34159 0.62635 0.0
C1190 C 0.73947 0.32675 0.58098 0.0
C1191 C 0.75569 0.31756 0.55958 0.0
C1192 C 0.73863 0.31423 0.60611 0.0
C1193 C 0.76837 0.29328 0.56229 0.0
C1194 C 0.76755 0.28072 0.58706 0.0
C1195 C 0.7563 0.28265 0.63586 0.0
C1196 C 0.74332 0.29472 0.65863 0.0
C1197 C 0.75385 0.29203 0.60955 0.0
C1198 C 0.72651 0.31494 0.65462 0.0
C1199 C 0.72435 0.32485 0.62858 0.0
H1200 H 0.49216 0.09595 0.36055 0.0
H1201 H 0.41232 0.05316 0.38213 0.0
H1202 H 0.43295 0.03534 0.4218 0.0
H1203 H 0.47424 0.02862 0.44753 0.0
H1204 H 0.55362 0.07471 0.42729 0.0
H1205 H 0.53267 0.09397 0.38918 0.0
C1206 C 0.47929 0.083 0.37418 0.0
C1207 C 0.45091 0.07565 0.36855 0.0
C1208 C 0.49124 0.07303 0.39671 0.0
C1209 C 0.43427 0.05921 0.38634 0.0
C1210 C 0.44606 0.0488 0.40877 0.0
C1211 C 0.48684 0.04334 0.43509 0.0
C1212 C 0.51536 0.05032 0.44013 0.0
C1213 C 0.47459 0.05507 0.41376 0.0
C1214 C 0.5316 0.06901 0.42368 0.0
C1215 C 0.51966 0.08008 0.40197 0.0
H1216 H 0.75014 0.68695 0.06899 0.0
H1217 H 0.83493 0.73372 0.07619 0.0
H1218 H 0.83098 0.75419 0.12508 0.0
H1219 H 0.80439 0.75726 0.16664 0.0
H1220 H 0.71946 0.71153 0.16016 0.0
H1221 H 0.72256 0.6926 0.11034 0.0
C1222 C 0.76772 0.70179 0.08116 0.0
C1223 C 0.79286 0.70852 0.06866 0.0
C1224 C 0.76534 0.71372 0.10956 0.0
C1225 C 0.81531 0.72798 0.08496 0.0
C1226 C 0.81311 0.73973 0.11308 0.0
C1227 C 0.78644 0.7433 0.15437 0.0
C1228 C 0.76174 0.73577 0.16737 0.0
C1229 C 0.78836 0.73249 0.12571 0.0
C1230 C 0.73874 0.71781 0.15086 0.0
C1231 C 0.74053 0.70685 0.12232 0.0
H1232 H 0.0875 0.06294 0.72115 0.0
H1233 H 0.13528 -0.00138 0.68967 0.0
H1234 H 0.12189 0.00287 0.64128 0.0
H1235 H 0.09414 0.02227 0.60796 0.0
H1236 H 0.04442 0.08426 0.63966 0.0
H1237 H 0.06129 0.08382 0.68794 0.0
C1238 C 0.0952 0.05003 0.70373 0.0
C1239 C 0.11225 0.03037 0.70905 0.0
C1240 C 0.08705 0.05217 0.676 0.0
C1241 C 0.122 0.01379 0.68618 0.0
C1242 C 0.11436 0.01622 0.6585 0.0
C1243 C 0.08734 0.036 0.62545 0.0
C1244 C 0.06812 0.0533 0.62038 0.0
C1245 C 0.09656 0.03498 0.65316 0.0
C1246 C 0.05922 0.07078 0.64314 0.0
C1247 C 0.06879 0.07045 0.67072 0.0
H1248 H 0.75741 0.29075 0.42584 0.0
H1249 H 0.74693 0.37935 0.41306 0.0
H1250 H 0.73541 0.36091 0.36274 0.0
H1251 H 0.73181 0.32041 0.32187 0.0
H1252 H 0.7383 0.23074 0.33525 0.0
H1253 H 0.74803 0.24864 0.38596 0.0
C1254 C 0.75213 0.30581 0.41205 0.0
C1255 C 0.75311 0.33634 0.42294 0.0
C1256 C 0.74519 0.29494 0.38332 0.0
C1257 C 0.74608 0.35569 0.40508 0.0
C1258 C 0.73975 0.34524 0.37631 0.0
C1259 C 0.73518 0.30486 0.33604 0.0
C1260 C 0.73474 0.27449 0.32515 0.0
C1261 C 0.73984 0.31509 0.36513 0.0
C1262 C 0.73864 0.25424 0.34343 0.0
C1263 C 0.74422 0.26447 0.37231 0.0
H1264 H 0.44795 0.09631 0.20624 0.0
H1265 H 0.46928 0.01518 0.22803 0.0
H1266 H 0.49267 0.00903 0.18481 0.0
H1267 H 0.50526 0.02527 0.13994 0.0
H1268 H 0.48288 0.10528 0.11706 0.0
H1269 H 0.46227 0.11379 0.162 0.0
C1270 C 0.45766 0.07726 0.20148 0.0
C1271 C 0.4567 0.05612 0.22018 0.0
C1272 C 0.47115 0.07388 0.17662 0.0
C1273 C 0.46962 0.03171 0.21391 0.0
C1274 C 0.48309 0.02821 0.18925 0.0
C1275 C 0.49628 0.04485 0.14504 0.0
C1276 C 0.49552 0.06464 0.12542 0.0
C1277 C 0.48384 0.04904 0.17042 0.0
C1278 C 0.48369 0.08981 0.13203 0.0
C1279 C 0.47175 0.09454 0.15757 0.0
H1280 H 0.82199 0.7463 0.92934 0.0
H1281 H 0.73985 0.69184 0.91607 0.0
H1282 H 0.73245 0.71426 0.87395 0.0
H1283 H 0.74997 0.74842 0.8397 0.0
H1284 H 0.83193 0.80304 0.85421 0.0
H1285 H 0.83879 0.78116 0.89662 0.0
C1286 C 0.80232 0.73945 0.91748 0.0
C1287 C 0.78154 0.7173 0.92609 0.0
C1288 C 0.79828 0.75222 0.89313 0.0
C1289 C 0.75623 0.70892 0.91023 0.0
C1290 C 0.75203 0.72159 0.88593 0.0
C1291 C 0.76934 0.75536 0.85212 0.0
C1292 C 0.79049 0.77723 0.8437 0.0
C1293 C 0.77303 0.74299 0.87693 0.0
C1294 C 0.81536 0.78625 0.86017 0.0
C1295 C 0.81928 0.7738 0.8845 0.0
H1296 H 0.8192 0.04508 0.02889 0.0
H1297 H 0.86163 0.113 0.98248 0.0
H1298 H 0.89481 0.08253 0.97024 0.0
H1299 H 0.91165 0.03683 0.97191 0.0
H1300 H 0.87354 0.97055 0.02182 0.0
H1301 H 0.83826 -0.00029 0.03294 0.0
C1302 C 0.83588 0.05329 0.01636 0.0
C1303 C 0.83785 0.08127 0.0066 0.0
C1304 C 0.85522 0.03564 0.00946 0.0
C1305 C 0.85964 0.09167 0.99044 0.0
C1306 C 0.87854 0.07413 0.98316 0.0
C1307 C 0.89527 0.02839 0.98473 0.0
C1308 C 0.89449 0.00118 0.99532 0.0
C1309 C 0.8763 0.04599 0.99222 0.0
C1310 C 0.87396 0.99113 0.01291 0.0
C1311 C 0.85407 0.00794 0.01948 0.0
H1312 H 0.36286 0.41063 0.04046 0.0
H1313 H 0.33309 0.4686 0.98913 0.0
H1314 H 0.38002 0.4944 0.98335 0.0
H1315 H 0.42977 0.50324 0.9963 0.0
H1316 H 0.45827 0.44612 0.04946 0.0
H1317 H 0.41183 0.41705 0.05073 0.0
C1318 C 0.36656 0.4286 0.02766 0.0
C1319 C 0.34442 0.43769 0.01535 0.0
C1320 C 0.39352 0.44367 0.02487 0.0
C1321 C 0.34973 0.46118 -0.00106 0.0
C1322 C 0.37659 0.476 0.99567 0.0
C1323 C 0.42572 0.48418 0.00781 0.0
C1324 C 0.44731 0.47701 0.02302 0.0
C1325 C 0.39869 0.46788 0.00902 0.0
C1326 C 0.4419 0.45231 0.03791 0.0
C1327 C 0.41535 0.43565 0.03864 0.0
H1328 H 0.36366 0.63261 0.72301 0.0
H1329 H 0.28665 0.57663 0.73764 0.0
H1330 H 0.26388 0.6185 0.73337 0.0
H1331 H 0.26702 0.67303 0.73067 0.0
H1332 H 0.34554 0.73 0.72226 0.0
H1333 H 0.36658 0.68614 0.71889 0.0
C1334 C 0.34176 0.62938 0.72444 0.0
C1335 C 0.32672 0.6015 0.7301 0.0
C1336 C 0.3292 0.65405 0.72363 0.0
C1337 C 0.29852 0.59783 0.73288 0.0
C1338 C 0.28558 0.62184 0.73069 0.0
C1339 C 0.28865 0.67562 0.72779 0.0
C1340 C 0.30477 0.70464 0.72688 0.0
C1341 C 0.30085 0.65037 0.7269 0.0
C1342 C 0.33282 0.70789 0.72336 0.0
C1343 C 0.34484 0.68281 0.72132 0.0
H1344 H 0.19343 0.55649 0.49865 0.0
H1345 H 0.20127 0.65124 0.53184 0.0
H1346 H 0.1524 0.64196 0.53886 0.0
H1347 H 0.1067 0.60753 0.53141 0.0
H1348 H 0.09921 0.51416 0.49418 0.0
H1349 H 0.1488 0.52203 0.4933 0.0
C1350 C 0.18455 0.57509 0.50769 0.0
C1351 C 0.20085 0.60452 0.5145 0.0
C1352 C 0.15649 0.56975 0.51097 0.0
C1353 C 0.18904 0.62839 0.52619 0.0
C1354 C 0.16113 0.6231 0.53024 0.0
C1355 C 0.11616 0.58892 0.52372 0.0
C1356 C 0.09977 0.56033 0.51305 0.0
C1357 C 0.14456 0.59399 0.52217 0.0
C1358 C 0.11178 0.53631 0.50254 0.0
C1359 C 0.14 0.54083 0.50193 0.0
H1360 H 0.70934 0.98127 0.80387 0.0
H1361 H 0.68605 0.95468 0.71491 0.0
H1362 H 0.7228 0.92734 0.7098 0.0
H1363 H 0.75427 0.90233 0.73245 0.0
H1364 H 0.77447 0.92512 0.82203 0.0
H1365 H 0.7468 0.96342 0.82496 0.0
C1366 C 0.71258 0.96996 0.78323 0.0
C1367 C 0.69442 0.96913 0.75999 0.0
C1368 C 0.73312 0.9535 0.78063 0.0
C1369 C 0.6994 0.95517 0.73326 0.0
C1370 C 0.72037 0.93945 0.73033 0.0
C1371 C 0.75325 0.91635 0.75246 0.0
C1372 C 0.76569 0.91057 0.77712 0.0
C1373 C 0.7363 0.93713 0.75415 0.0
C1374 C 0.76474 0.92906 0.80285 0.0
C1375 C 0.74871 0.95071 0.80455 0.0
H1376 H 0.69517 0.95593 0.56945 0.0
H1377 H 0.69451 0.91356 0.48312 0.0
H1378 H 0.6565 0.93593 0.47019 0.0
H1379 H 0.62389 0.96853 0.48336 0.0
H1380 H 0.62369 0.0088 0.57018 0.0
H1381 H 0.66176 0.98658 0.58289 0.0
C1382 C 0.68667 0.95143 0.5478 0.0
C1383 C 0.6978 0.93314 0.52728 0.0
C1384 C 0.66481 0.96431 0.54055 0.0
C1385 C 0.68632 0.92744 0.49938 0.0
C1386 C 0.66467 0.94039 0.49194 0.0
C1387 C 0.63237 0.97259 0.505 0.0
C1388 C 0.62128 0.99062 0.52576 0.0
C1389 C 0.6539 0.9591 0.51229 0.0
C1390 C 0.63206 0.99523 0.5538 0.0
C1391 C 0.65376 0.98244 0.5611 0.0
H1392 H 0.35067 0.44276 0.77263 0.0
H1393 H 0.3076 0.45729 0.69856 0.0
H1394 H 0.28174 0.4042 0.69169 0.0
H1395 H 0.26909 0.35473 0.70949 0.0
H1396 H 0.31418 0.34122 0.78302 0.0
H1397 H 0.34167 0.39265 0.78731 0.0
C1398 C 0.33591 0.43406 0.75472 0.0
C1399 C 0.33089 0.45363 0.73613 0.0
C1400 C 0.32136 0.40379 0.75101 0.0
C1401 C 0.31183 0.44239 0.71298 0.0
C1402 C 0.29697 0.41217 0.70923 0.0
C1403 C 0.28511 0.36305 0.72626 0.0
C1404 C 0.28936 0.34429 0.7461 0.0
C1405 C 0.30115 0.39281 0.7285 0.0
C1406 C 0.31039 0.35519 0.76754 0.0
C1407 C 0.32612 0.38465 0.77006 0.0
H1408 H 0.20076 0.5956 0.28142 0.0
H1409 H 0.14003 0.59595 0.21579 0.0
H1410 H 0.16483 0.64636 0.20813 0.0
H1411 H 0.20278 0.69165 0.22249 0.0
H1412 H 0.26307 0.68881 0.28795 0.0
H1413 H 0.23954 0.63787 0.29299 0.0
C1414 C 0.19283 0.60671 0.26547 0.0
C1415 C 0.16837 0.59244 0.24958 0.0
C1416 C 0.20721 0.63519 0.26107 0.0
C1417 C 0.15876 0.60671 0.22846 0.0
C1418 C 0.17292 0.63547 0.22409 0.0
C1419 C 0.21092 0.67962 0.23749 0.0
C1420 C 0.23444 0.69415 0.25504 0.0
C1421 C 0.19707 0.65011 0.24053 0.0
C1422 C 0.24479 0.67834 0.27444 0.0
C1423 C 0.23136 0.64918 0.2774 0.0
H1424 H 0.52603 0.68035 0.4162 0.0
H1425 H 0.45336 0.68579 0.46021 0.0
H1426 H 0.46521 0.6531 0.49207 0.0
H1427 H 0.49308 0.61854 0.50428 0.0
H1428 H 0.56513 0.6111 0.46029 0.0
H1429 H 0.55707 0.64957 0.43221 0.0
C1430 C 0.51297 0.67471 0.43297 0.0
C1431 C 0.48856 0.68521 0.43536 0.0
C1432 C 0.5198 0.65554 0.45133 0.0
C1433 C 0.47206 0.67782 0.45747 0.0
C1434 C 0.47882 0.6591 0.47583 0.0
C1435 C 0.50734 0.62576 0.48892 0.0
C1436 C 0.52954 0.61185 0.48423 0.0
C1437 C 0.50219 0.6472 0.47247 0.0
C1438 C 0.54798 0.62161 0.46445 0.0
C1439 C 0.54318 0.64336 0.44816 0.0
H1440 H 0.60127 0.23929 0.71006 0.0
H1441 H 0.6339 0.31894 0.67297 0.0
H1442 H 0.67612 0.32799 0.70293 0.0
H1443 H 0.70253 0.31502 0.74188 0.0
H1444 H 0.66916 0.23589 0.77918 0.0
H1445 H 0.6281 0.22527 0.74734 0.0
C1446 C 0.61774 0.2584 0.70818 0.0
C1447 C 0.61439 0.27846 0.68938 0.0
C1448 C 0.64161 0.26386 0.72587 0.0
C1449 C 0.63594 0.30316 0.68731 0.0
C1450 C 0.66003 0.30845 0.70453 0.0
C1451 C 0.68631 0.29533 0.74276 0.0
C1452 C 0.68875 0.27619 0.76263 0.0
C1453 C 0.66285 0.28928 0.72427 0.0
C1454 C 0.66754 0.25105 0.76411 0.0
C1455 C 0.64419 0.24484 0.74579 0.0
H1456 H 0.93382 0.30072 0.91617 0.0
H1457 H 0.0182 0.30493 0.89924 0.0
H1458 H 0.03093 0.35612 0.92625 0.0
H1459 H 0.01797 0.4 0.95398 0.0
H1460 H 0.93325 0.39657 0.9687 0.0
H1461 H 0.92082 0.34465 0.94334 0.0
C1462 C 0.95504 0.31273 0.91847 0.0
C1463 C 0.97503 0.29888 0.90576 0.0
C1464 C 0.96215 0.34231 0.93365 0.0
C1465 C 0.00237 0.31501 0.90873 0.0
C1466 C 0.00968 0.34428 0.92423 0.0
C1467 C 0.99681 0.38781 0.95185 0.0
C1468 C 0.97657 0.40211 0.96337 0.0
C1469 C 0.98973 0.35818 0.93672 0.0
C1470 C 0.94921 0.38613 0.96003 0.0
C1471 C 0.94209 0.35643 0.94553 0.0
H1472 H 0.97007 0.77776 0.22671 0.0
H1473 H 0.93529 0.72472 0.14723 0.0
H1474 H 0.88987 0.71624 0.16558 0.0
H1475 H 0.85983 0.72727 0.20302 0.0
H1476 H 0.89372 0.78614 0.28012 0.0
H1477 H 0.93988 0.78912 0.26412 0.0
C1478 C 0.95255 0.76384 0.2137 0.0
C1479 C 0.95584 0.75141 0.18589 0.0
C1480 C 0.92645 0.76048 0.22392 0.0
C1481 C 0.93308 0.73421 0.16878 0.0
C1482 C 0.90719 0.7295 0.17924 0.0
C1483 C 0.8774 0.74044 0.21643 0.0
C1484 C 0.8736 0.75628 0.24277 0.0
C1485 C 0.90359 0.74302 0.20658 0.0
C1486 C 0.89632 0.77376 0.25978 0.0
C1487 C 0.92262 0.77543 0.25064 0.0
H1488 H 0.52099 0.34922 0.07433 0.0
H1489 H 0.44383 0.3137 0.02596 0.0
H1490 H 0.45302 0.35537 -0.00125 0.0
H1491 H 0.47993 0.40535 0.99305 0.0
H1492 H 0.55628 0.44186 0.04257 0.0
H1493 H 0.55055 0.39621 0.06457 0.0
C1494 C 0.50642 0.35019 0.05746 0.0
C1495 C 0.48156 0.32855 0.05259 0.0
C1496 C 0.51154 0.37462 0.0422 0.0
C1497 C 0.463 0.3302 0.03049 0.0
C1498 C 0.46819 0.3541 0.0149 0.0
C1499 C 0.49564 0.40306 0.00817 0.0
C1500 C 0.51833 0.42717 0.01635 0.0
C1501 C 0.49194 0.377 0.02124 0.0
C1502 C 0.53845 0.42379 0.03605 0.0
C1503 C 0.53517 0.39769 0.04873 0.0
H1504 H 0.95409 0.31219 0.32126 0.0
H1505 H 0.91971 0.26187 0.38574 0.0
H1506 H 0.87466 0.26926 0.37274 0.0
H1507 H 0.84415 0.28459 0.33953 0.0
H1508 H 0.87764 0.33258 0.2734 0.0
H1509 H 0.92387 0.332 0.29081 0.0
C1510 C 0.93681 0.3032 0.3327 0.0
C1511 C 0.94031 0.28632 0.35431 0.0
C1512 C 0.91072 0.30701 0.32473 0.0
C1513 C 0.9177 0.27496 0.36903 0.0
C1514 C 0.89183 0.27907 0.36155 0.0
C1515 C 0.86161 0.29546 0.3293 0.0
C1516 C 0.85759 0.30837 0.30513 0.0
C1517 C 0.88798 0.2943 0.33894 0.0
C1518 C 0.88031 0.32242 0.29204 0.0
C1519 C 0.90672 0.32192 0.30187 0.0
H1520 H -0.00152 0.69661 0.60567 0.0
H1521 H 0.93592 0.71134 0.54863 0.0
H1522 H 0.94225 0.66839 0.51468 0.0
H1523 H 0.96757 0.62848 0.50012 0.0
H1524 H 0.02962 0.61392 0.55778 0.0
H1525 H 0.02148 0.65505 0.59259 0.0
C1526 C 0.98607 0.69037 0.58589 0.0
C1527 C 0.96693 0.70737 0.5796 0.0
C1528 C 0.98989 0.66582 0.56649 0.0
C1529 C 0.95081 0.69866 0.55401 0.0
C1530 C 0.95451 0.6742 0.53452 0.0
C1531 C 0.97922 0.63434 0.52035 0.0
C1532 C -0.00064 0.61852 0.52632 0.0
C1533 C 0.97432 0.65794 0.54035 0.0
C1534 C 0.01412 0.62596 0.55268 0.0
C1535 C 0.00948 0.64944 0.57258 0.0
H1536 H 0.60579 0.80172 0.83832 0.0
H1537 H 0.59589 0.70537 0.83811 0.0
H1538 H 0.63821 0.70597 0.81479 0.0
H1539 H 0.67824 0.73373 0.79481 0.0
H1540 H 0.68824 0.83007 0.79452 0.0
H1541 H 0.64557 0.82941 0.81724 0.0
C1542 C 0.61302 0.78092 0.83334 0.0
C1543 C 0.59776 0.75359 0.8401 0.0
C1544 C 0.63726 0.78131 0.81954 0.0
C1545 C 0.60723 0.72675 0.83318 0.0
C1546 C 0.63142 0.72702 0.81976 0.0
C1547 C 0.67099 0.75456 0.7994 0.0
C1548 C 0.68653 0.78188 0.79289 0.0
C1549 C 0.64655 0.75414 0.81276 0.0
C1550 C 0.67678 0.80865 0.79924 0.0
C1551 C 0.65239 0.80836 0.81237 0.0
H1552 H 0.47585 0.5909 0.67183 0.0
H1553 H 0.41376 0.5107 0.64036 0.0
H1554 H 0.43895 0.50139 0.59858 0.0
H1555 H 0.47973 0.51471 0.57211 0.0
H1556 H 0.54141 0.59521 0.6034 0.0
H1557 H 0.51535 0.60557 0.64431 0.0
C1558 C 0.46768 0.57144 0.65579 0.0
C1559 C 0.44294 0.55143 0.6594 0.0
C1560 C 0.48234 0.56615 0.6319 0.0
C1561 C 0.4327 0.52646 0.63822 0.0
C1562 C 0.44716 0.52107 0.61435 0.0
C1563 C 0.48737 0.53466 0.58778 0.0
C1564 C 0.51251 0.55418 0.58475 0.0
C1565 C 0.47217 0.54054 0.61115 0.0
C1566 C 0.52217 0.57983 0.60527 0.0
C1567 C 0.50725 0.58576 0.62865 0.0
H1568 H 0.83188 0.23076 0.95709 0.0
H1569 H 0.74704 0.20315 0.97351 0.0
H1570 H 0.7345 0.2341 0.93991 0.0
H1571 H 0.74687 0.26155 0.90018 0.0
H1572 H 0.83108 0.28388 0.88065 0.0
H1573 H 0.8448 0.26306 0.92157 0.0
C1574 C 0.81068 0.2319 0.95378 0.0
C1575 C 0.79038 0.21415 0.96734 0.0
C1576 C 0.80352 0.24875 0.93372 0.0
C1577 C 0.76305 0.21621 0.96298 0.0
C1578 C 0.75584 0.23387 0.94374 0.0
C1579 C 0.76826 0.26264 0.9055 0.0
C1580 C 0.788 0.27397 0.88761 0.0
C1581 C 0.77578 0.24917 0.92814 0.0
C1582 C 0.81564 0.27509 0.89427 0.0
C1583 C 0.82343 0.26304 0.9175 0.0
H1584 H 0.04505 0.43587 0.15079 0.0
H1585 H 0.11512 0.50299 0.13499 0.0
H1586 H 0.08994 0.51305 0.09434 0.0
H1587 H 0.04668 0.50699 0.06697 0.0
H1588 H 0.97659 0.43977 0.08201 0.0
H1589 H 0.00296 0.42621 0.12022 0.0
C1590 C 0.05501 0.45232 0.13818 0.0
C1591 C 0.08178 0.46898 0.14612 0.0
C1592 C 0.04022 0.45853 0.1153 0.0
C1593 C 0.09444 0.49006 0.12945 0.0
C1594 C 0.08001 0.496 0.10636 0.0
C1595 C 0.0373 0.48901 0.07831 0.0
C1596 C 0.00986 0.47428 0.07177 0.0
C1597 C 0.05265 0.48109 0.09973 0.0
C1598 C 0.99774 0.45143 0.08685 0.0
C1599 C 0.01283 0.4436 0.10852 0.0
H1600 H 0.75117 0.84004 0.44058 0.0
H1601 H 0.82712 0.81335 0.4565 0.0
H1602 H 0.82618 0.7911 0.4073 0.0
H1603 H 0.80497 0.78079 0.35887 0.0
H1604 H 0.72818 0.80552 0.34308 0.0
H1605 H 0.7284 0.82673 0.39266 0.0
C1606 C 0.76739 0.82912 0.43339 0.0
C1607 C 0.78921 0.82865 0.45248 0.0
C1608 C 0.76676 0.81609 0.40482 0.0
C1609 C 0.80997 0.81419 0.44254 0.0
C1610 C 0.80957 0.80148 0.41424 0.0
C1611 C 0.78828 0.79079 0.36629 0.0
C1612 C 0.76672 0.79168 0.34712 0.0
C1613 C 0.78828 0.80263 0.39506 0.0
C1614 C 0.74508 0.80443 0.35726 0.0
C1615 C 0.74518 0.81665 0.38569 0.0
H1616 H 0.44549 0.49834 0.79217 0.0
H1617 H 0.38879 0.5472 0.83208 0.0
H1618 H 0.40184 0.53492 0.87759 0.0
H1619 H 0.4321 0.51398 0.90679 0.0
H1620 H 0.49084 0.46797 0.86748 0.0
H1621 H 0.47404 0.47504 0.82104 0.0
C1622 C 0.43581 0.50609 0.81077 0.0
C1623 C 0.41617 0.52367 0.80863 0.0
C1624 C 0.44381 0.49944 0.83705 0.0
C1625 C 0.40385 0.5335 0.83299 0.0
C1626 C 0.41137 0.52657 0.85912 0.0
C1627 C 0.44083 0.50501 0.88799 0.0
C1628 C 0.46262 0.49048 0.89045 0.0
C1629 C 0.43165 0.51 0.86148 0.0
C1630 C 0.474 0.47922 0.86602 0.0
C1631 C 0.46451 0.4834 0.83951 0.0
H1632 H 0.76912 0.17274 0.0929 0.0
H1633 H 0.85264 0.22178 0.09267 0.0
H1634 H 0.84713 0.25547 0.13533 0.0
H1635 H 0.81864 0.27077 0.173 0.0
H1636 H 0.73594 0.22017 0.17395 0.0
H1637 H 0.74089 0.18774 0.13021 0.0
C1638 C 0.78625 0.19062 0.10221 0.0
C1639 C 0.81129 0.19456 0.08955 0.0
C1640 C 0.78292 0.21 0.12659 0.0
C1641 C 0.83315 0.21804 0.10198 0.0
C1642 C 0.82999 0.23749 0.12629 0.0
C1643 C 0.80159 0.25299 0.16329 0.0
C1644 C 0.77683 0.24803 0.17631 0.0
C1645 C 0.80491 0.23379 0.13869 0.0
C1646 C 0.75506 0.22454 0.16399 0.0
C1647 C 0.75796 0.20586 0.13918 0.0
H1648 H 0.10736 0.5468 0.31478 0.0
H1649 H 0.0336 0.48742 0.27432 0.0
H1650 H 0.00886 0.49925 0.31598 0.0
H1651 H 0.0098 0.52265 0.3656 0.0
H1652 H 0.08322 0.58388 0.40504 0.0
H1653 H 0.10661 0.57553 0.36193 0.0
C1654 C 0.08584 0.53667 0.31514 0.0
C1655 C 0.07229 0.51588 0.29207 0.0
C1656 C 0.07182 0.5439 0.33888 0.0
C1657 C 0.0443 0.5034 0.29214 0.0
C1658 C 0.03024 0.51007 0.3159 0.0
C1659 C 0.03076 0.53453 0.36449 0.0
C1660 C 0.04496 0.55352 0.38834 0.0
C1661 C 0.04399 0.52973 0.33964 0.0
C1662 C 0.07198 0.56911 0.3868 0.0
C1663 C 0.08539 0.56421 0.36227 0.0
H1664 H 0.79589 0.86105 0.62274 0.0
H1665 H 0.72715 0.80003 0.57463 0.0
H1666 H 0.71435 0.77653 0.61676 0.0
H1667 H 0.72505 0.77179 0.66729 0.0
H1668 H 0.79378 0.83559 0.71365 0.0
H1669 H 0.80396 0.85961 0.67251 0.0
C1670 C 0.77797 0.84269 0.62151 0.0
C1671 C 0.76267 0.832 0.59566 0.0
C1672 C 0.77074 0.82977 0.64564 0.0
C1673 C 0.73926 0.80857 0.59436 0.0
C1674 C 0.73206 0.79512 0.61843 0.0
C1675 C 0.742 0.79116 0.66838 0.0
C1676 C 0.75866 0.80167 0.69371 0.0
C1677 C 0.74793 0.80526 0.64421 0.0
C1678 C 0.78053 0.82689 0.69468 0.0
C1679 C 0.78653 0.84069 0.67103 0.0
H1680 H 0.69458 0.44268 0.48848 0.0
H1681 H 0.70562 0.4614 0.57922 0.0
H1682 H 0.67267 0.49393 0.5805 0.0
H1683 H 0.63987 0.51612 0.55589 0.0
H1684 H 0.62885 0.49742 0.4652 0.0
H1685 H 0.66313 0.46647 0.46378 0.0
C1686 C 0.6896 0.45368 0.50854 0.0
C1687 C 0.7023 0.44936 0.53373 0.0
C1688 C 0.67099 0.47278 0.5091 0.0
C1689 C 0.696 0.46422 0.55953 0.0
C1690 C 0.67727 0.48294 0.56028 0.0
C1691 C 0.64538 0.50574 0.53582 0.0
C1692 C 0.63201 0.50915 0.51069 0.0
C1693 C 0.66467 0.48744 0.5352 0.0
C1694 C 0.63904 0.49527 0.48482 0.0
C1695 C 0.65845 0.47735 0.48401 0.0
H1696 H 0.18201 0.11426 0.50314 0.0
H1697 H 0.19254 0.04946 0.43187 0.0
H1698 H 0.14587 0.02114 0.4335 0.0
H1699 H 0.10155 0.01524 0.45436 0.0
H1700 H 0.09074 0.07978 0.52557 0.0
H1701 H 0.138 0.10738 0.52503 0.0
C1702 C 0.17406 0.09399 0.48793 0.0
C1703 C 0.19075 0.08415 0.46732 0.0
C1704 C 0.14716 0.07759 0.48909 0.0
C1705 C 0.18018 0.05765 0.44794 0.0
C1706 C 0.15346 0.04135 0.44886 0.0
C1707 C 0.10964 0.03517 0.46992 0.0
C1708 C 0.09268 0.04552 0.48989 0.0
C1709 C 0.13674 0.05112 0.46928 0.0
C1710 C 0.10341 0.0714 0.50993 0.0
C1711 C 0.1304 0.08727 0.50956 0.0
H1712 H 0.18961 0.93971 0.74624 0.0
H1713 H 0.24153 0.97181 0.82286 0.0
H1714 H 0.27064 0.93685 0.8075 0.0
H1715 H 0.27772 0.89267 0.77544 0.0
H1716 H 0.22362 0.85785 0.70073 0.0
H1717 H 0.1993 0.89864 0.71196 0.0
C1718 C 0.20761 0.93953 0.75933 0.0
C1719 C 0.21321 0.95817 0.78579 0.0
C1720 C 0.22379 0.91868 0.75078 0.0
C1721 C 0.23657 0.9575 0.80253 0.0
C1722 C 0.25323 0.93748 0.79377 0.0
C1723 C 0.26108 0.89449 0.76121 0.0
C1724 C 0.25245 0.87223 0.73732 0.0
C1725 C 0.24653 0.9173 0.76837 0.0
C1726 C 0.23059 0.87465 0.71931 0.0
C1727 C 0.2166 0.89789 0.72579 0.0
H1728 H 0.32475 0.96982 0.00379 0.0
H1729 H 0.33597 0.88335 0.96277 0.0
H1730 H 0.38519 0.90398 0.96274 0.0
H1731 H 0.42526 0.94575 0.97788 0.0
H1732 H 0.41397 0.02997 0.02424 0.0
H1733 H 0.3645 0.01122 0.01897 0.0
C1734 C 0.33801 0.95579 0.99435 0.0
C1735 C 0.3271 0.92541 0.98298 0.0
C1736 C 0.36621 0.9673 0.99585 0.0
C1737 C 0.34423 0.90694 0.97146 0.0
C1738 C 0.37226 0.91867 0.97158 0.0
C1739 C 0.41185 0.95993 0.98663 0.0
C1740 C 0.42298 0.98905 0.00145 0.0
C1741 C 0.38353 0.94864 0.9843 0.0
C1742 C 0.40567 0.00731 0.01301 0.0
C1743 C 0.37746 0.9967 0.00987 0.0
H1744 H 0.83737 0.59971 0.7555 0.0
H1745 H 0.82328 0.60982 0.84414 0.0
H1746 H 0.78871 0.63843 0.83623 0.0
H1747 H 0.76815 0.66733 0.80578 0.0
H1748 H 0.78338 0.65936 0.71765 0.0
H1749 H 0.81121 0.62238 0.72355 0.0
C1750 C 0.82647 0.60779 0.77303 0.0
C1751 C 0.83343 0.60327 0.80048 0.0
C1752 C 0.80681 0.6246 0.76843 0.0
C1753 C 0.81868 0.61334 0.82285 0.0
C1754 C 0.79887 0.62974 0.81838 0.0
C1755 C 0.77695 0.65682 0.78772 0.0
C1756 C 0.77419 0.66626 0.76146 0.0
C1757 C 0.79358 0.63648 0.79148 0.0
C1758 C 0.78538 0.65242 0.73811 0.0
C1759 C 0.80151 0.63155 0.74154 0.0
H1760 H 0.81377 0.56541 0.01202 0.0
H1761 H 0.86425 0.64187 0.98214 0.0
H1762 H 0.90245 0.61668 0.9807 0.0
H1763 H 0.92114 0.57223 0.98592 0.0
H1764 H 0.87163 0.49574 0.01635 0.0
H1765 H 0.83333 0.52143 0.01923 0.0
C1766 C 0.83324 0.57674 0.00556 0.0
C1767 C 0.83606 0.60558 0.99724 0.0
C1768 C 0.85517 0.56189 0.00443 0.0
C1769 C 0.86143 0.61979 0.98876 0.0
C1770 C 0.8833 0.6053 0.98775 0.0
C1771 C 0.90192 0.56111 0.99307 0.0
C1772 C 0.89906 0.53201 0.00062 0.0
C1773 C 0.88027 0.57619 0.99509 0.0
C1774 C 0.8742 0.51806 0.01022 0.0
C1775 C 0.85237 0.5328 0.01197 0.0
H1776 H 0.17299 0.09403 0.7759 0.0
H1777 H 0.22192 0.09847 0.85286 0.0
H1778 H 0.25175 0.14513 0.84389 0.0
H1779 H 0.26576 0.18313 0.81293 0.0
H1780 H 0.21689 0.17968 0.73644 0.0
H1781 H 0.18524 0.13429 0.74652 0.0
C1782 C 0.19001 0.10532 0.79088 0.0
C1783 C 0.19523 0.09244 0.81493 0.0
C1784 C 0.20727 0.13224 0.78556 0.0
C1785 C 0.21734 0.10765 0.83414 0.0
C1786 C 0.23454 0.13435 0.82898 0.0
C1787 C 0.24813 0.17244 0.79851 0.0
C1788 C 0.24377 0.18448 0.77386 0.0
C1789 C 0.23001 0.14653 0.80454 0.0
C1790 C 0.22069 0.17072 0.75553 0.0
C1791 C 0.20263 0.14477 0.76127 0.0
H1792 H 0.33018 0.98743 0.31746 0.0
H1793 H 0.39641 0.98266 0.26363 0.0
H1794 H 0.37416 0.93028 0.24346 0.0
H1795 H 0.33677 0.88462 0.24351 0.0
H1796 H 0.27166 0.89099 0.29839 0.0
H1797 H 0.29228 0.94423 0.31538 0.0
C1798 C 0.3399 0.97498 0.30139 0.0
C1799 C 0.36514 0.98874 0.29243 0.0
C1800 C 0.32696 0.94525 0.28982 0.0
C1801 C 0.37707 0.97245 0.2711 0.0
C1802 C 0.36433 0.94255 0.25951 0.0
C1803 C 0.3269 0.89805 0.25862 0.0
C1804 C 0.30272 0.88427 0.26963 0.0
C1805 C 0.33933 0.92859 0.2689 0.0
C1806 C 0.29023 0.90142 0.28962 0.0
C1807 C 0.30209 0.93172 0.29947 0.0
H1808 H 0.48954 0.34046 0.56502 0.0
H1809 H 0.57221 0.36977 0.60219 0.0
H1810 H 0.5796 0.41284 0.57617 0.0
H1811 H 0.56028 0.44572 0.5482 0.0
H1812 H 0.47618 0.41788 0.51525 0.0
H1813 H 0.47162 0.3705 0.53437 0.0
C1814 C 0.50934 0.35602 0.5673 0.0
C1815 C 0.53013 0.35221 0.58598 0.0
C1816 C 0.51304 0.38117 0.55326 0.0
C1817 C 0.55578 0.3723 0.58814 0.0
C1818 C 0.55995 0.39703 0.5734 0.0
C1819 C 0.54114 0.42898 0.54479 0.0
C1820 C 0.51848 0.43527 0.53061 0.0
C1821 C 0.53839 0.40225 0.55671 0.0
C1822 C 0.49376 0.41359 0.5264 0.0
C1823 C 0.49115 0.38654 0.5373 0.0
H1824 H 0.43499 0.77483 0.29347 0.0
H1825 H 0.39006 0.72351 0.35194 0.0
H1826 H 0.34748 0.73323 0.33306 0.0
H1827 H 0.32267 0.75401 0.298 0.0
H1828 H 0.36796 0.80497 0.23954 0.0
H1829 H 0.41067 0.79753 0.26023 0.0
C1830 C 0.41592 0.76584 0.30219 0.0
C1831 C 0.41577 0.74838 0.32404 0.0
C1832 C 0.3915 0.77125 0.29105 0.0
C1833 C 0.39084 0.73707 0.33516 0.0
C1834 C 0.36642 0.74251 0.32429 0.0
C1835 C 0.34192 0.76366 0.28997 0.0
C1836 C 0.34219 0.77986 0.26717 0.0
C1837 C 0.36646 0.75923 0.30196 0.0
C1838 C 0.36724 0.79226 0.25697 0.0
C1839 C 0.39167 0.78802 0.26879 0.0
H1840 H 0.00255 0.69073 0.05393 0.0
H1841 H 0.04447 0.68384 0.13174 0.0
H1842 H 0.05344 0.63488 0.1106 0.0
H1843 H 0.0441 0.59102 0.07134 0.0
H1844 H 0.00167 0.59935 0.99424 0.0
H1845 H -0.00129 0.65087 0.01342 0.0
C1846 C 0.01391 0.67866 0.06619 0.0
C1847 C 0.02241 0.69059 0.09447 0.0
C1848 C 0.01898 0.65074 0.05392 0.0
C1849 C 0.03758 0.67502 0.10994 0.0
C1850 C 0.04264 0.64699 0.09787 0.0
C1851 C 0.03508 0.60459 0.05853 0.0
C1852 C 0.02311 0.5915 0.03143 0.0
C1853 C 0.03281 0.6342 0.07004 0.0
C1854 C 0.01102 0.60904 0.01515 0.0
C1855 C 0.00913 0.63841 0.02617 0.0
H1856 H 0.0706 0.21248 0.81732 0.0
H1857 H 0.06618 0.30412 0.8082 0.0
H1858 H 0.11044 0.31159 0.78773 0.0
H1859 H 0.15039 0.2919 0.77212 0.0
H1860 H 0.15432 0.20013 0.78103 0.0
H1861 H 0.1101 0.19277 0.80151 0.0
C1862 C 0.07939 0.23419 0.81108 0.0
C1863 C 0.06513 0.25775 0.81441 0.0
C1864 C 0.10463 0.23818 0.79895 0.0
C1865 C 0.07674 0.28562 0.80593 0.0
C1866 C 0.10201 0.28988 0.79412 0.0
C1867 C 0.1414 0.27024 0.77834 0.0
C1868 C 0.15546 0.24655 0.77499 0.0
C1869 C 0.11606 0.26625 0.79036 0.0
C1870 C 0.14377 0.21866 0.7833 0.0
C1871 C 0.11857 0.21447 0.79514 0.0
H1872 H 0.49688 0.70359 0.97239 0.0
H1873 H 0.54509 0.6862 0.90193 0.0
H1874 H 0.55119 0.63929 0.9175 0.0
H1875 H 0.53892 0.60069 0.9484 0.0
H1876 H 0.4932 0.61901 0.02045 0.0
H1877 H 0.48999 0.66817 0.0071 0.0
C1878 C 0.50909 0.68976 0.96073 0.0
C1879 C 0.52024 0.69819 0.93586 0.0
C1880 C 0.51265 0.66285 0.96989 0.0
C1881 C 0.53631 0.68028 0.92115 0.0
C1882 C 0.53964 0.6533 0.92991 0.0
C1883 C 0.52849 0.61566 0.96126 0.0
C1884 C 0.51591 0.60628 0.98505 0.0
C1885 C 0.52725 0.64397 0.95377 0.0
C1886 C 0.5029 0.62589 0.00197 0.0
C1887 C 0.50103 0.65387 0.99429 0.0
H1888 H 0.09059 0.77487 0.63758 0.0
H1889 H 0.05649 0.71044 0.69125 0.0
H1890 H 0.10183 0.70222 0.7026 0.0
H1891 H 0.15168 0.71758 0.70129 0.0
H1892 H 0.18566 0.78171 0.64738 0.0
H1893 H 0.13986 0.78537 0.6317 0.0
C1894 C 0.09307 0.75882 0.65155 0.0
C1895 C 0.07032 0.74371 0.66394 0.0
C1896 C 0.11918 0.75415 0.65795 0.0
C1897 C 0.07373 0.72255 0.68159 0.0
C1898 C 0.09966 0.71786 0.68814 0.0
C1899 C 0.14898 0.73185 0.68568 0.0
C1900 C 0.17191 0.7496 0.67572 0.0
C1901 C 0.1226 0.73412 0.67701 0.0
C1902 C 0.16825 0.7679 0.6554 0.0
C1903 C 0.14209 0.77016 0.64657 0.0
H1904 H 0.00789 0.37156 0.40569 0.0
H1905 H 0.03726 0.33947 0.47835 0.0
H1906 H 0.04685 0.39109 0.50489 0.0
H1907 H 0.04149 0.44375 0.50897 0.0
H1908 H 0.00759 0.4747 0.43775 0.0
H1909 H 0.0053 0.42532 0.40887 0.0
C1910 C 0.01714 0.37622 0.42707 0.0
C1911 C 0.02241 0.3522 0.44007 0.0
C1912 C 0.02131 0.4056 0.44248 0.0
C1913 C 0.03356 0.35794 0.46797 0.0
C1914 C 0.03878 0.38732 0.48314 0.0
C1915 C 0.03395 0.4398 0.48701 0.0
C1916 C 0.02452 0.46267 0.4755 0.0
C1917 C 0.03192 0.41111 0.47088 0.0
C1918 C 0.01481 0.45732 0.44707 0.0
C1919 C 0.01347 0.42911 0.43059 0.0
H1920 H 0.43458 0.28631 0.21082 0.0
H1921 H 0.39146 0.23399 0.13449 0.0
H1922 H 0.34809 0.23001 0.15697 0.0
H1923 H 0.32218 0.24556 0.19701 0.0
H1924 H 0.36484 0.30416 0.27059 0.0
H1925 H 0.40878 0.30163 0.25084 0.0
C1926 C 0.41569 0.27351 0.1994 0.0
C1927 C 0.41604 0.26008 0.17126 0.0
C1928 C 0.39084 0.27281 0.21196 0.0
C1929 C 0.39152 0.24429 0.15625 0.0
C1930 C 0.3668 0.24214 0.16906 0.0
C1931 C 0.34121 0.25733 0.20878 0.0
C1932 C 0.34061 0.27473 0.23523 0.0
C1933 C 0.36616 0.25689 0.19668 0.0
C1934 C 0.36509 0.29053 0.25023 0.0
C1935 C 0.3901 0.2891 0.23893 0.0
H1936 H 0.57787 0.46256 0.35243 0.0
H1937 H 0.58966 0.55798 0.34775 0.0
H1938 H 0.56711 0.56598 0.3918 0.0
H1939 H 0.54393 0.54543 0.43143 0.0
H1940 H 0.52712 0.44903 0.43274 0.0
H1941 H 0.55172 0.44148 0.39007 0.0
C1942 C 0.57546 0.48506 0.36119 0.0
C1943 C 0.5855 0.50976 0.34732 0.0
C1944 C 0.56159 0.48915 0.38573 0.0
C1945 C 0.58201 0.53876 0.3583 0.0
C1946 C 0.5692 0.54329 0.3834 0.0
C1947 C 0.54571 0.52281 0.42227 0.0
C1948 C 0.53408 0.49776 0.43507 0.0
C1949 C 0.55891 0.51862 0.39727 0.0
C1950 C 0.536 0.4685 0.42302 0.0
C1951 C 0.55007 0.46425 0.39876 0.0
H1952 H 0.26484 0.7803 0.04325 0.0
H1953 H 0.20471 0.8346 0.0592 0.0
H1954 H 0.19844 0.8183 0.10509 0.0
H1955 H 0.21779 0.79837 0.14426 0.0
H1956 H 0.28069 0.74778 0.12933 0.0
H1957 H 0.27813 0.75284 0.07948 0.0
C1958 C 0.24982 0.78798 0.05643 0.0
C1959 C 0.23598 0.80946 0.04823 0.0
C1960 C 0.24733 0.77976 0.08329 0.0
C1961 C 0.21601 0.81846 0.06517 0.0
C1962 C 0.21262 0.8094 0.09159 0.0
C1963 C 0.23049 0.78792 0.12992 0.0
C1964 C 0.24988 0.77342 0.14037 0.0
C1965 C 0.22944 0.79166 0.1015 0.0
C1966 C 0.26594 0.7595 0.12169 0.0
C1967 C 0.26449 0.7624 0.09324 0.0
H1968 H 0.92685 0.53651 0.86581 0.0
H1969 H 0.00196 0.5823 0.8363 0.0
H1970 H 0.02806 0.56909 0.875 0.0
H1971 H 0.02915 0.54406 0.91711 0.0
H1972 H 0.95387 0.49394 0.94303 0.0
H1973 H 0.92802 0.50959 0.90611 0.0
C1974 C 0.94888 0.54391 0.86814 0.0
C1975 C 0.96257 0.56076 0.8488 0.0
C1976 C 0.96362 0.53546 0.88977 0.0
C1977 C 0.99115 0.5694 0.85125 0.0
C1978 C 0.006 0.56188 0.87329 0.0
C1979 C 0.0071 0.53666 0.91462 0.0
C1980 C 0.99333 0.5185 0.93306 0.0
C1981 C 0.99243 0.54485 0.89266 0.0
C1982 C 0.96483 0.50853 0.92943 0.0
C1983 C 0.95004 0.5173 0.90824 0.0
H1984 H 0.25004 0.18555 0.56662 0.0
H1985 H 0.3307 0.24307 0.56982 0.0
H1986 H 0.32714 0.26299 0.6188 0.0
H1987 H 0.30271 0.26255 0.66171 0.0
H1988 H 0.22174 0.20666 0.65981 0.0
H1989 H 0.22379 0.18807 0.60958 0.0
C1990 C 0.26674 0.20264 0.57793 0.0
C1991 C 0.29072 0.21247 0.56423 0.0
C1992 C 0.2646 0.21433 0.60652 0.0
C1993 C 0.31201 0.23481 0.57948 0.0
C1994 C 0.31006 0.24629 0.60768 0.0
C1995 C 0.28538 0.24639 0.65035 0.0
C1996 C 0.26219 0.23585 0.66472 0.0
C1997 C 0.28669 0.23592 0.62154 0.0
C1998 C 0.23985 0.21524 0.64939 0.0
C1999 C 0.24108 0.20448 0.62063 0.0
H2000 H 0.58731 0.56604 0.20943 0.0
H2001 H 0.63433 0.49987 0.18095 0.0
H2002 H 0.62359 0.50453 0.13204 0.0
H2003 H 0.59714 0.52346 0.09742 0.0
H2004 H 0.54726 0.58651 0.12577 0.0
H2005 H 0.56323 0.58751 0.17471 0.0
C2006 C 0.5955 0.55291 0.19255 0.0
C2007 C 0.6114 0.53243 0.19884 0.0
C2008 C 0.58871 0.55516 0.16446 0.0
C2009 C 0.62183 0.51559 0.17669 0.0
C2010 C 0.61572 0.51826 0.14871 0.0
C2011 C 0.59022 0.53791 0.11429 0.0
C2012 C 0.57107 0.5549 0.10811 0.0
C2013 C 0.59867 0.53742 0.14234 0.0
C2014 C 0.56203 0.57328 0.1301 0.0
C2015 C 0.57103 0.5737 0.15805 0.0
H2016 H 0.28352 0.85837 0.89967 0.0
H2017 H 0.21621 0.79056 0.91894 0.0
H2018 H 0.21025 0.76598 0.86934 0.0
H2019 H 0.22589 0.7632 0.82072 0.0
H2020 H 0.29265 0.83302 0.80277 0.0
H2021 H 0.29755 0.85712 0.85163 0.0
C2022 C 0.26726 0.8385 0.89277 0.0
C2023 C 0.25005 0.82638 0.91241 0.0
C2024 C 0.26432 0.82455 0.86464 0.0
C2025 C 0.2293 0.80042 0.90376 0.0
C2026 C 0.22613 0.78629 0.87558 0.0
C2027 C 0.24159 0.78354 0.82766 0.0
C2028 C 0.25936 0.79584 0.80832 0.0
C2029 C 0.24382 0.79793 0.85587 0.0
C2030 C 0.27924 0.82258 0.81738 0.0
C2031 C 0.28188 0.83663 0.84528 0.0
H2032 H 0.96196 0.51575 0.70324 0.0
H2033 H 0.91154 0.5786 0.68868 0.0
H2034 H 0.92896 0.58168 0.64217 0.0
H2035 H 0.95972 0.56783 0.60637 0.0
H2036 H 0.01039 0.5055 0.62143 0.0
H2037 H 0.99186 0.50119 0.66731 0.0
C2038 C 0.95454 0.52992 0.68982 0.0
C2039 C 0.9355 0.54694 0.69943 0.0
C2040 C 0.96495 0.53197 0.66339 0.0
C2041 C 0.9262 0.56525 0.68178 0.0
C2042 C 0.93623 0.56714 0.65525 0.0
C2043 C 0.96673 0.5534 0.61979 0.0
C2044 C 0.98645 0.53713 0.61076 0.0
C2045 C 0.95588 0.55091 0.64601 0.0
C2046 C 0.9953 0.51835 0.62811 0.0
C2047 C 0.98465 0.51579 0.65425 0.0
H2048 H 0.31953 0.24706 0.42131 0.0
H2049 H 0.23733 0.19266 0.41158 0.0
H2050 H 0.22871 0.21329 0.36862 0.0
H2051 H 0.24521 0.24592 0.3327 0.0
H2052 H 0.3278 0.29922 0.34323 0.0
H2053 H 0.33554 0.27962 0.38666 0.0
C2054 C 0.29956 0.23981 0.41007 0.0
C2055 C 0.27913 0.21827 0.41996 0.0
C2056 C 0.29489 0.25137 0.38517 0.0
C2057 C 0.25347 0.20931 0.40477 0.0
C2058 C 0.24857 0.22096 0.38001 0.0
C2059 C 0.26491 0.25308 0.34446 0.0
C2060 C 0.28595 0.27398 0.33461 0.0
C2061 C 0.26925 0.24176 0.36977 0.0
C2062 C 0.31127 0.28321 0.35026 0.0
C2063 C 0.31572 0.27205 0.37519 0.0
H2064 H 0.32589 0.55252 0.49441 0.0
H2065 H 0.37105 0.64238 0.52935 0.0
H2066 H 0.4114 0.62242 0.53883 0.0
H2067 H 0.43451 0.5804 0.5337 0.0
H2068 H 0.39184 0.4915 0.49305 0.0
H2069 H 0.34942 0.50978 0.48951 0.0
C2070 C 0.34457 0.56748 0.50437 0.0
C2071 C 0.34586 0.5987 0.51125 0.0
C2072 C 0.3679 0.556 0.50864 0.0
C2073 C 0.36996 0.61827 0.5238 0.0
C2074 C 0.39289 0.60687 0.52925 0.0
C2075 C 0.41581 0.56489 0.52447 0.0
C2076 C 0.41601 0.53469 0.51377 0.0
C2077 C 0.39219 0.57591 0.52128 0.0
C2078 C 0.39191 0.51486 0.50145 0.0
C2079 C 0.36781 0.52533 0.49935 0.0
H2080 H 0.84544 0.98535 0.5296 0.0
H2081 H 0.86255 0.89661 0.50742 0.0
H2082 H 0.91086 0.91945 0.50455 0.0
H2083 H 0.94862 0.96445 0.51147 0.0
H2084 H 0.93251 0.05282 0.53898 0.0
H2085 H 0.88342 0.03058 0.53653 0.0
C2086 C 0.85978 0.97117 0.52376 0.0
C2087 C 0.85064 0.93945 0.5186 0.0
C2088 C 0.88766 0.98442 0.52331 0.0
C2089 C 0.86929 0.9211 0.51157 0.0
C2090 C 0.89685 0.93414 0.50992 0.0
C2091 C 0.93429 0.97884 0.51663 0.0
C2092 C 0.94399 0.0102 0.5253 0.0
C2093 C 0.90634 0.96574 0.51622 0.0
C2094 C 0.92537 0.0286 0.53231 0.0
C2095 C 0.89738 0.0159 0.53091 0.0
H2096 H 0.81765 0.10673 0.2919 0.0
H2097 H 0.82734 0.08988 0.20261 0.0
H2098 H 0.80066 0.12755 0.19497 0.0
H2099 H 0.77775 0.16847 0.2144 0.0
H2100 H 0.7726 0.18795 0.30417 0.0
H2101 H 0.79397 0.1458 0.31092 0.0
C2102 C 0.81367 0.1109 0.27066 0.0
C2103 C 0.82453 0.0954 0.24786 0.0
C2104 C 0.79906 0.13315 0.26656 0.0
C2105 C 0.81932 0.10149 0.22056 0.0
C2106 C 0.80406 0.12305 0.21619 0.0
C2107 C 0.7808 0.16289 0.2353 0.0
C2108 C 0.77331 0.18079 0.25878 0.0
C2109 C 0.79422 0.13942 0.2391 0.0
C2110 C 0.778 0.17414 0.28586 0.0
C2111 C 0.79032 0.1502 0.28971 0.0
H2112 H 0.68689 0.10909 0.99665 0.0
H2113 H 0.69473 0.10723 0.08605 0.0
H2114 H 0.64513 0.09039 0.08628 0.0
H2115 H 0.59983 0.07278 0.06017 0.0
H2116 H 0.59353 0.0725 0.97033 0.0
H2117 H 0.6423 0.09373 0.97126 0.0
C2118 C 0.67783 0.10527 0.0163 0.0
C2119 C 0.69453 0.10922 0.04125 0.0
C2120 C 0.64955 0.09504 0.01616 0.0
C2121 C 0.68235 0.10419 0.06649 0.0
C2122 C 0.654 0.09453 0.06663 0.0
C2123 C 0.60915 0.07772 0.04091 0.0
C2124 C 0.59317 0.0709 0.0152 0.0
C2125 C 0.63743 0.08937 0.04147 0.0
C2126 C 0.60546 0.07723 0.99034 0.0
C2127 C 0.63333 0.08942 0.99084 0.0
H2128 H 0.21841 0.48263 0.29145 0.0
H2129 H 0.19034 0.45272 0.20388 0.0
H2130 H 0.22459 0.42201 0.1983 0.0
H2131 H 0.25583 0.39638 0.22053 0.0
H2132 H 0.28051 0.42263 0.30908 0.0
H2133 H 0.25497 0.46287 0.31183 0.0
C2134 C 0.22004 0.46983 0.27099 0.0
C2135 C 0.2013 0.4693 0.24834 0.0
C2136 C 0.2392 0.45153 0.26813 0.0
C2137 C 0.20415 0.45311 0.22183 0.0
C2138 C 0.22374 0.4355 0.2186 0.0
C2139 C 0.25634 0.41158 0.24021 0.0
C2140 C 0.26954 0.40638 0.2647 0.0
C2141 C 0.24044 0.43346 0.24194 0.0
C2142 C 0.27023 0.42618 0.29003 0.0
C2143 C 0.25542 0.44895 0.29166 0.0
H2144 H 0.17827 0.41746 0.03999 0.0
H2145 H 0.20583 0.44859 0.96317 0.0
H2146 H 0.16559 0.4697 0.95814 0.0
H2147 H 0.12254 0.47991 0.97556 0.0
H2148 H 0.0943 0.44832 0.05181 0.0
H2149 H 0.13474 0.42716 0.05715 0.0
C2150 C 0.1754 0.4287 0.02206 0.0
C2151 C 0.19518 0.43136 0.00201 0.0
C2152 C 0.15211 0.44098 0.01928 0.0
C2153 C 0.19106 0.44613 0.97897 0.0
C2154 C 0.16802 0.45833 0.97607 0.0
C2155 C 0.12535 0.46852 0.99341 0.0
C2156 C 0.10554 0.46577 0.0133 0.0
C2157 C 0.14849 0.45607 0.99615 0.0
C2158 C 0.10929 0.45074 0.03621 0.0
C2159 C 0.13239 0.43858 0.03925 0.0
H2160 H 0.85431 0.93648 0.27651 0.0
H2161 H 0.81116 0.95784 0.20574 0.0
H2162 H 0.78335 0.90562 0.19679 0.0
H2163 H 0.76911 0.85496 0.212 0.0
H2164 H 0.81471 0.83447 0.28186 0.0
H2165 H 0.84395 0.88507 0.28809 0.0
C2166 C 0.83903 0.92949 0.25889 0.0
C2167 C 0.8345 0.95074 0.24191 0.0
C2168 C 0.8235 0.89966 0.25386 0.0
C2169 C 0.81493 0.94164 0.21899 0.0
C2170 C 0.79899 0.91191 0.21402 0.0
C2171 C 0.78565 0.86156 0.22834 0.0
C2172 C 0.78945 0.84114 0.24671 0.0
C2173 C 0.80272 0.89086 0.23172 0.0
C2174 C 0.81117 0.8498 0.26758 0.0
C2175 C 0.82791 0.87878 0.27123 0.0
H2176 H 0.65441 0.08702 0.73572 0.0
H2177 H 0.6586 0.09771 0.82667 0.0
H2178 H 0.68747 0.14813 0.82955 0.0
H2179 H 0.71334 0.18825 0.80675 0.0
H2180 H 0.70891 0.17951 0.71609 0.0
H2181 H 0.67841 0.12928 0.71265 0.0
C2182 C 0.66132 0.10054 0.75616 0.0
C2183 C 0.65444 0.08832 0.78091 0.0
C2184 C 0.6782 0.12972 0.75777 0.0
C2185 C 0.66366 0.10627 0.80722 0.0
C2186 C 0.68029 0.13516 0.80894 0.0
C2187 C 0.70589 0.17531 0.78618 0.0
C2188 C 0.7138 0.18733 0.76171 0.0
C2189 C 0.6881 0.14685 0.78441 0.0
C2190 C 0.70334 0.1706 0.73527 0.0
C2191 C 0.68585 0.14192 0.7333 0.0
loop_
_geom_bond_atom_site_label_1
_geom_bond_atom_site_label_2
_geom_bond_distance
_geom_bond_site_symmetry_2
_ccdc_geom_bond_type
Mg0 O1 2.028 . S
Mg0 O7 1.986 . S
Mg0 O9 2.114 1_455 S
Mg0 O10 2.251 1_455 S
Mg0 O13 2.010 . S
O1 Mg0 2.028 . S
O1 C4 1.250 . S
O2 Mg3 2.036 . S
O2 C4 1.236 1_655 S
Mg3 O2 2.036 . S
Mg3 O8 2.032 . S
Mg3 O10 2.079 . S
C4 O1 1.250 . S
C4 O2 1.236 1_455 S
C5 O6 1.264 . S
C5 O13 1.249 . S
O6 C5 1.264 . S
O7 Mg0 1.986 . S
O7 C11 1.246 . S
O8 Mg3 2.032 . S
O8 C11 1.259 1_655 S
O9 Mg0 2.114 1_655 S
O9 C12 1.252 . S
O10 Mg0 2.251 1_655 S
O10 Mg3 2.079 . S
O10 C12 1.273 . S
C11 O7 1.246 . S
C11 O8 1.259 1_455 S
C12 O9 1.252 . S
C12 O10 1.273 . S
O13 Mg0 2.010 . S
O13 C5 1.249 . S
Mg14 O15 2.028 . S
Mg14 O21 1.986 . S
Mg14 O23 2.114 1_455 S
Mg14 O24 2.251 1_455 S
Mg14 O27 2.010 . S
O15 Mg14 2.028 . S
O15 C18 1.250 1_455 S
O16 Mg17 2.028 . S
O16 C18 1.248 . S
Mg17 O16 2.028 . S
Mg17 O22 2.032 . S
Mg17 O24 2.079 . S
C18 O15 1.250 1_655 S
C18 O16 1.248 . S
C19 O20 1.264 . S
C19 O27 1.249 . S
O20 C19 1.264 . S
O21 Mg14 1.986 . S
O21 C25 1.246 . S
O22 Mg17 2.032 . S
O22 C25 1.259 1_655 S
O23 Mg14 2.114 1_655 S
O23 C26 1.252 . S
O24 Mg14 2.251 1_655 S
O24 Mg17 2.079 . S
O24 C26 1.273 . S
C25 O21 1.246 . S
C25 O22 1.259 1_455 S
C26 O23 1.252 . S
C26 O24 1.273 . S
O27 Mg14 2.010 . S
O27 C19 1.249 . S
Mg28 O29 2.028 . S
Mg28 O35 1.986 . S
Mg28 O37 2.114 . S
Mg28 O38 2.251 . S
Mg28 O41 2.010 . S
O29 Mg28 2.028 . S
O29 C32 1.250 . S
O30 Mg31 2.028 . S
O30 C32 1.248 . S
Mg31 O30 2.028 . S
Mg31 O36 2.032 . S
Mg31 O38 2.079 . S
C32 O29 1.250 . S
C32 O30 1.248 . S
C33 O34 1.264 . S
C33 O41 1.249 . S
O34 C33 1.264 . S
O35 Mg28 1.986 . S
O35 C39 1.246 . S
O36 Mg31 2.032 . S
O36 C39 1.259 . S
O37 Mg28 2.114 . S
O37 C40 1.252 . S
O38 Mg28 2.251 . S
O38 Mg31 2.079 . S
O38 C40 1.273 . S
C39 O35 1.246 . S
C39 O36 1.259 . S
C40 O37 1.252 . S
C40 O38 1.273 . S
O41 Mg28 2.010 . S
O41 C33 1.249 . S
Mg42 O43 2.028 . S
Mg42 O49 1.986 . S
Mg42 O51 2.114 . S
Mg42 O52 2.251 . S
Mg42 O55 2.010 . S
O43 Mg42 2.028 . S
O43 C46 1.250 . S
O44 Mg45 2.028 . S
O44 C46 1.248 . S
Mg45 O44 2.028 . S
Mg45 O50 2.032 . S
Mg45 O52 2.079 . S
C46 O43 1.250 . S
C46 O44 1.248 . S
C47 O48 1.264 . S
C47 O55 1.249 . S
O48 C47 1.264 . S
O49 Mg42 1.986 . S
O49 C53 1.246 . S
O50 Mg45 2.032 . S
O50 C53 1.259 . S
O51 Mg42 2.114 . S
O51 C54 1.252 . S
O52 Mg42 2.251 . S
O52 Mg45 2.079 . S
O52 C54 1.273 . S
C53 O49 1.246 . S
C53 O50 1.259 . S
C54 O51 1.252 . S
C54 O52 1.273 . S
O55 Mg42 2.010 . S
O55 C47 1.249 . S
Mg56 O57 2.028 . S
Mg56 O63 1.986 . S
Mg56 O65 2.114 . S
Mg56 O66 2.251 1_455 S
Mg56 O69 2.010 . S
O57 Mg56 2.028 . S
O57 C60 1.250 . S
O58 Mg59 2.028 . S
O58 C60 1.248 1_655 S
Mg59 O58 2.028 . S
Mg59 O64 2.032 1_655 S
Mg59 O66 2.079 . S
C60 O57 1.250 . S
C60 O58 1.248 1_455 S
C61 O62 1.264 . S
C61 O69 1.249 . S
O62 C61 1.264 . S
O63 Mg56 1.986 . S
O63 C67 1.246 . S
O64 Mg59 2.032 1_455 S
O64 C67 1.259 . S
O65 Mg56 2.114 . S
O65 C68 1.252 1_455 S
O66 Mg56 2.251 1_655 S
O66 Mg59 2.079 . S
O66 C68 1.273 . S
C67 O63 1.246 . S
C67 O64 1.259 . S
C68 O65 1.252 1_655 S
C68 O66 1.273 . S
O69 Mg56 2.010 . S
O69 C61 1.249 . S
Mg70 O71 2.028 . S
Mg70 O77 1.986 . S
Mg70 O79 2.114 . S
Mg70 O80 2.251 . S
Mg70 O83 2.010 . S
O71 Mg70 2.028 . S
O71 C74 1.250 . S
O72 Mg73 2.028 . S
O72 C74 1.248 . S
Mg73 O72 2.028 . S
Mg73 O78 2.032 . S
Mg73 O80 2.079 . S
C74 O71 1.250 . S
C74 O72 1.248 . S
C75 O76 1.264 . S
C75 O83 1.249 . S
O76 C75 1.264 . S
O77 Mg70 1.986 . S
O77 C81 1.246 . S
O78 Mg73 2.032 . S
O78 C81 1.259 . S
O79 Mg70 2.114 . S
O79 C82 1.252 . S
O80 Mg70 2.251 . S
O80 Mg73 2.079 . S
O80 C82 1.273 . S
C81 O77 1.246 . S
C81 O78 1.259 . S
C82 O79 1.252 . S
C82 O80 1.273 . S
O83 Mg70 2.010 . S
O83 C75 1.249 . S
Mg84 O85 2.028 . S
Mg84 O91 1.986 . S
Mg84 O93 2.114 . S
Mg84 O94 2.251 . S
Mg84 O97 2.010 . S
O85 Mg84 2.028 . S
O85 C88 1.250 . S
O86 Mg87 2.028 . S
O86 C88 1.248 . S
Mg87 O86 2.028 . S
Mg87 O92 2.032 . S
Mg87 O94 2.079 . S
C88 O85 1.250 . S
C88 O86 1.248 . S
C89 O90 1.264 . S
C89 O97 1.249 . S
O90 C89 1.264 . S
O91 Mg84 1.986 . S
O91 C95 1.246 . S
O92 Mg87 2.032 . S
O92 C95 1.259 . S
O93 Mg84 2.114 . S
O93 C96 1.252 . S
O94 Mg84 2.251 . S
O94 Mg87 2.079 . S
O94 C96 1.273 . S
C95 O91 1.246 . S
C95 O92 1.259 . S
C96 O93 1.252 . S
C96 O94 1.273 . S
O97 Mg84 2.010 . S
O97 C89 1.249 . S
Mg98 O99 2.028 . S
Mg98 O105 1.985 . S
Mg98 O107 2.116 1_455 S
Mg98 O108 2.256 1_455 S
Mg98 O111 2.006 . S
O99 Mg98 2.028 . S
O99 C102 1.260 . S
O100 Mg101 2.028 . S
O100 C102 1.234 1_655 S
Mg101 O100 2.028 . S
Mg101 O106 2.032 . S
Mg101 O108 2.079 . S
C102 O99 1.260 . S
C102 O100 1.234 1_455 S
C103 O104 1.264 . S
C103 O111 1.249 . S
O104 C103 1.264 . S
O105 Mg98 1.985 . S
O105 C109 1.246 1_455 S
O106 Mg101 2.032 . S
O106 C109 1.259 . S
O107 Mg98 2.116 1_655 S
O107 C110 1.252 . S
O108 Mg98 2.256 1_655 S
O108 Mg101 2.079 . S
O108 C110 1.273 . S
C109 O105 1.246 1_655 S
C109 O106 1.259 . S
C110 O107 1.252 . S
C110 O108 1.273 . S
O111 Mg98 2.006 . S
O111 C103 1.249 . S
Mg112 O113 2.028 1_545 S
Mg112 O119 1.986 . S
Mg112 O121 2.114 . S
Mg112 O122 2.251 . S
Mg112 O125 2.010 . S
O113 Mg112 2.028 1_565 S
O113 C116 1.250 . S
O114 Mg115 2.028 1_565 S
O114 C116 1.248 . S
Mg115 O114 2.028 1_545 S
Mg115 O120 2.032 . S
Mg115 O122 2.079 . S
C116 O113 1.250 . S
C116 O114 1.248 . S
C117 O118 1.264 . S
C117 O125 1.249 . S
O118 C117 1.264 . S
O119 Mg112 1.986 . S
O119 C123 1.246 . S
O120 Mg115 2.032 . S
O120 C123 1.259 . S
O121 Mg112 2.114 . S
O121 C124 1.252 . S
O122 Mg112 2.251 . S
O122 Mg115 2.079 . S
O122 C124 1.273 . S
C123 O119 1.246 . S
C123 O120 1.259 . S
C124 O121 1.252 . S
C124 O122 1.273 . S
O125 Mg112 2.010 . S
O125 C117 1.249 . S
Mg126 O127 2.028 . S
Mg126 O133 1.986 . S
Mg126 O135 2.114 . S
Mg126 O136 2.251 . S
Mg126 O139 2.010 . S
O127 Mg126 2.028 . S
O127 C130 1.250 . S
O128 Mg129 2.028 . S
O128 C130 1.248 . S
Mg129 O128 2.028 . S
Mg129 O134 2.032 . S
Mg129 O136 2.079 . S
C130 O127 1.250 . S
C130 O128 1.248 . S
C131 O132 1.264 . S
C131 O139 1.249 . S
O132 C131 1.264 . S
O133 Mg126 1.986 . S
O133 C137 1.246 . S
O134 Mg129 2.032 . S
O134 C137 1.259 . S
O135 Mg126 2.114 . S
O135 C138 1.252 . S
O136 Mg126 2.251 . S
O136 Mg129 2.079 . S
O136 C138 1.273 . S
C137 O133 1.246 . S
C137 O134 1.259 . S
C138 O135 1.252 . S
C138 O136 1.273 . S
O139 Mg126 2.010 . S
O139 C131 1.249 . S
Mg140 O141 2.028 1_565 S
Mg140 O147 1.986 . S
Mg140 O149 2.114 1_565 S
Mg140 O150 2.251 . S
Mg140 O153 2.010 . S
O141 Mg140 2.028 1_545 S
O141 C144 1.250 . S
O142 Mg143 2.028 . S
O142 C144 1.248 . S
Mg143 O142 2.028 . S
Mg143 O148 2.032 1_545 S
Mg143 O150 2.079 1_545 S
C144 O141 1.250 . S
C144 O142 1.248 . S
C145 O146 1.264 . S
C145 O153 1.249 . S
O146 C145 1.264 . S
O147 Mg140 1.986 . S
O147 C151 1.246 . S
O148 Mg143 2.032 1_565 S
O148 C151 1.259 . S
O149 Mg140 2.114 1_545 S
O149 C152 1.252 . S
O150 Mg140 2.251 . S
O150 Mg143 2.079 1_565 S
O150 C152 1.273 1_565 S
C151 O147 1.246 . S
C151 O148 1.259 . S
C152 O149 1.252 . S
C152 O150 1.273 1_545 S
O153 Mg140 2.010 . S
O153 C145 1.249 . S
Mg154 O155 2.028 1_554 S
Mg154 O161 1.986 . S
Mg154 O163 2.114 . S
Mg154 O164 2.251 . S
Mg154 O167 2.010 . S
O155 Mg154 2.028 1_556 S
O155 C158 1.250 . S
O156 Mg157 2.028 1_556 S
O156 C158 1.248 . S
Mg157 O156 2.028 1_554 S
Mg157 O162 2.032 . S
Mg157 O164 2.079 . S
C158 O155 1.250 . S
C158 O156 1.248 . S
C159 O160 1.264 . S
C159 O167 1.249 . S
O160 C159 1.264 . S
O161 Mg154 1.986 . S
O161 C165 1.246 . S
O162 Mg157 2.032 . S
O162 C165 1.259 . S
O163 Mg154 2.114 . S
O163 C166 1.252 . S
O164 Mg154 2.251 . S
O164 Mg157 2.079 . S
O164 C166 1.273 . S
C165 O161 1.246 . S
C165 O162 1.259 . S
C166 O163 1.252 . S
C166 O164 1.273 . S
O167 Mg154 2.010 . S
O167 C159 1.249 . S
Mg168 O169 2.028 1_554 S
Mg168 O175 1.986 . S
Mg168 O177 2.114 . S
Mg168 O178 2.251 . S
Mg168 O181 2.010 . S
O169 Mg168 2.028 1_556 S
O169 C172 1.250 . S
O170 Mg171 2.028 1_556 S
O170 C172 1.248 . S
Mg171 O170 2.028 1_554 S
Mg171 O176 2.032 . S
Mg171 O178 2.079 . S
C172 O169 1.250 . S
C172 O170 1.248 . S
C173 O174 1.264 . S
C173 O181 1.249 . S
O174 C173 1.264 . S
O175 Mg168 1.986 . S
O175 C179 1.246 . S
O176 Mg171 2.032 . S
O176 C179 1.259 . S
O177 Mg168 2.114 . S
O177 C180 1.252 . S
O178 Mg168 2.251 . S
O178 Mg171 2.079 . S
O178 C180 1.273 . S
C179 O175 1.246 . S
C179 O176 1.259 . S
C180 O177 1.252 . S
C180 O178 1.273 . S
O181 Mg168 2.010 . S
O181 C173 1.249 . S
Mg182 O183 2.028 1_556 S
Mg182 O189 1.986 . S
Mg182 O191 2.114 1_556 S
Mg182 O192 2.251 . S
Mg182 O195 2.010 . S
O183 Mg182 2.028 1_554 S
O183 C186 1.250 . S
O184 Mg185 2.028 . S
O184 C186 1.248 . S
Mg185 O184 2.028 . S
Mg185 O190 2.032 1_554 S
Mg185 O192 2.079 1_554 S
C186 O183 1.250 . S
C186 O184 1.248 . S
C187 O188 1.264 . S
C187 O195 1.249 . S
O188 C187 1.264 . S
O189 Mg182 1.986 . S
O189 C193 1.246 . S
O190 Mg185 2.032 1_556 S
O190 C193 1.259 . S
O191 Mg182 2.114 1_554 S
O191 C194 1.252 . S
O192 Mg182 2.251 . S
O192 Mg185 2.079 1_556 S
O192 C194 1.273 1_556 S
C193 O189 1.246 . S
C193 O190 1.259 . S
C194 O191 1.252 . S
C194 O192 1.273 1_554 S
O195 Mg182 2.010 . S
O195 C187 1.249 . S
Mg196 O197 2.028 . S
Mg196 O203 1.986 . S
Mg196 O205 2.114 . S
Mg196 O206 2.251 . S
Mg196 O209 2.010 . S
O197 Mg196 2.028 . S
O197 C200 1.250 . S
O198 Mg199 2.028 . S
O198 C200 1.248 . S
Mg199 O198 2.028 . S
Mg199 O204 2.032 . S
Mg199 O206 2.079 . S
C200 O197 1.250 . S
C200 O198 1.248 . S
C201 O202 1.264 . S
C201 O209 1.249 . S
O202 C201 1.264 . S
O203 Mg196 1.986 . S
O203 C207 1.246 . S
O204 Mg199 2.032 . S
O204 C207 1.259 . S
O205 Mg196 2.114 . S
O205 C208 1.252 . S
O206 Mg196 2.251 . S
O206 Mg199 2.079 . S
O206 C208 1.273 . S
C207 O203 1.246 . S
C207 O204 1.259 . S
C208 O205 1.252 . S
C208 O206 1.273 . S
O209 Mg196 2.010 . S
O209 C201 1.249 . S
Mg210 O211 2.028 . S
Mg210 O217 1.986 . S
Mg210 O219 2.114 . S
Mg210 O220 2.251 . S
Mg210 O223 2.010 . S
O211 Mg210 2.028 . S
O211 C214 1.250 . S
O212 Mg213 2.028 . S
O212 C214 1.248 . S
Mg213 O212 2.028 . S
Mg213 O218 2.032 . S
Mg213 O220 2.079 . S
C214 O211 1.250 . S
C214 O212 1.248 . S
C215 O216 1.264 . S
C215 O223 1.249 . S
O216 C215 1.264 . S
O217 Mg210 1.986 . S
O217 C221 1.246 . S
O218 Mg213 2.032 . S
O218 C221 1.259 . S
O219 Mg210 2.114 . S
O219 C222 1.252 . S
O220 Mg210 2.251 . S
O220 Mg213 2.079 . S
O220 C222 1.273 . S
C221 O217 1.246 . S
C221 O218 1.259 . S
C222 O219 1.252 . S
C222 O220 1.273 . S
O223 Mg210 2.010 . S
O223 C215 1.249 . S
Mg224 O225 2.028 . S
Mg224 O231 1.986 . S
Mg224 O233 2.114 . S
Mg224 O234 2.251 . S
Mg224 O237 2.010 . S
O225 Mg224 2.028 . S
O225 C228 1.250 . S
O226 Mg227 2.028 . S
O226 C228 1.248 . S
Mg227 O226 2.028 . S
Mg227 O232 2.032 . S
Mg227 O234 2.079 . S
C228 O225 1.250 . S
C228 O226 1.248 . S
C229 O230 1.264 . S
C229 O237 1.249 . S
O230 C229 1.264 . S
O231 Mg224 1.986 . S
O231 C235 1.246 . S
O232 Mg227 2.032 . S
O232 C235 1.259 . S
O233 Mg224 2.114 . S
O233 C236 1.252 . S
O234 Mg224 2.251 . S
O234 Mg227 2.079 . S
O234 C236 1.273 . S
C235 O231 1.246 . S
C235 O232 1.259 . S
C236 O233 1.252 . S
C236 O234 1.273 . S
O237 Mg224 2.010 . S
O237 C229 1.249 . S
Mg238 O239 2.028 . S
Mg238 O245 1.986 . S
Mg238 O247 2.114 . S
Mg238 O248 2.251 . S
Mg238 O251 2.010 . S
O239 Mg238 2.028 . S
O239 C242 1.250 . S
O240 Mg241 2.028 . S
O240 C242 1.248 . S
Mg241 O240 2.028 . S
Mg241 O246 2.032 . S
Mg241 O248 2.079 . S
C242 O239 1.250 . S
C242 O240 1.248 . S
C243 O244 1.264 . S
C243 O251 1.249 . S
O244 C243 1.264 . S
O245 Mg238 1.986 . S
O245 C249 1.246 . S
O246 Mg241 2.032 . S
O246 C249 1.259 . S
O247 Mg238 2.114 . S
O247 C250 1.252 . S
O248 Mg238 2.251 . S
O248 Mg241 2.079 . S
O248 C250 1.273 . S
C249 O245 1.246 . S
C249 O246 1.259 . S
C250 O247 1.252 . S
C250 O248 1.273 . S
O251 Mg238 2.010 . S
O251 C243 1.249 . S
Mg252 O253 2.028 . S
Mg252 O259 1.986 . S
Mg252 O261 2.114 . S
Mg252 O262 2.251 . S
Mg252 O265 2.010 . S
O253 Mg252 2.028 . S
O253 C256 1.250 . S
O254 Mg255 2.028 . S
O254 C256 1.248 . S
Mg255 O254 2.028 . S
Mg255 O260 2.032 . S
Mg255 O262 2.079 . S
C256 O253 1.250 . S
C256 O254 1.248 . S
C257 O258 1.264 . S
C257 O265 1.249 . S
O258 C257 1.264 . S
O259 Mg252 1.986 . S
O259 C263 1.246 . S
O260 Mg255 2.032 . S
O260 C263 1.259 . S
O261 Mg252 2.114 . S
O261 C264 1.252 . S
O262 Mg252 2.251 . S
O262 Mg255 2.079 . S
O262 C264 1.273 . S
C263 O259 1.246 . S
C263 O260 1.259 . S
C264 O261 1.252 . S
C264 O262 1.273 . S
O265 Mg252 2.010 . S
O265 C257 1.249 . S
Mg266 O267 2.028 . S
Mg266 O273 1.986 1_545 S
Mg266 O275 2.114 . S
Mg266 O276 2.251 . S
Mg266 O279 2.010 . S
O267 Mg266 2.028 . S
O267 C270 1.250 . S
O268 Mg269 2.028 . S
O268 C270 1.248 . S
Mg269 O268 2.028 . S
Mg269 O274 2.032 . S
Mg269 O276 2.079 . S
C270 O267 1.250 . S
C270 O268 1.248 . S
C271 O272 1.264 1_545 S
C271 O279 1.249 . S
O272 C271 1.264 1_565 S
O273 Mg266 1.986 1_565 S
O273 C277 1.246 . S
O274 Mg269 2.032 . S
O274 C277 1.259 1_545 S
O275 Mg266 2.114 . S
O275 C278 1.252 . S
O276 Mg266 2.251 . S
O276 Mg269 2.079 . S
O276 C278 1.273 . S
C277 O273 1.246 . S
C277 O274 1.259 1_565 S
C278 O275 1.252 . S
C278 O276 1.273 . S
O279 Mg266 2.010 . S
O279 C271 1.249 . S
Mg280 O281 2.028 1_556 S
Mg280 O287 1.986 . S
Mg280 O289 2.114 1_556 S
Mg280 O290 2.251 1_556 S
Mg280 O293 2.010 . S
O281 Mg280 2.028 1_554 S
O281 C284 1.250 . S
O282 Mg283 2.028 . S
O282 C284 1.248 . S
Mg283 O282 2.028 . S
Mg283 O288 2.032 1_554 S
Mg283 O290 2.081 . S
C284 O281 1.250 . S
C284 O282 1.248 . S
C285 O286 1.264 . S
C285 O293 1.249 . S
O286 C285 1.264 . S
O287 Mg280 1.986 . S
O287 C291 1.246 . S
O288 Mg283 2.032 1_556 S
O288 C291 1.259 . S
O289 Mg280 2.114 1_554 S
O289 C292 1.252 . S
O290 Mg280 2.251 1_554 S
O290 Mg283 2.081 . S
O290 C292 1.290 . S
C291 O287 1.246 . S
C291 O288 1.259 . S
C292 O289 1.252 . S
C292 O290 1.290 . S
O293 Mg280 2.010 . S
O293 C285 1.249 . S
Mg294 O295 2.028 . S
Mg294 O301 1.986 . S
Mg294 O303 2.114 . S
Mg294 O304 2.251 . S
Mg294 O307 2.010 . S
O295 Mg294 2.028 . S
O295 C298 1.250 . S
O296 Mg297 2.028 . S
O296 C298 1.248 . S
Mg297 O296 2.028 . S
Mg297 O302 2.032 . S
Mg297 O304 2.079 . S
C298 O295 1.250 . S
C298 O296 1.248 . S
C299 O300 1.264 . S
C299 O307 1.249 . S
O300 C299 1.264 . S
O301 Mg294 1.986 . S
O301 C305 1.246 . S
O302 Mg297 2.032 . S
O302 C305 1.259 . S
O303 Mg294 2.114 . S
O303 C306 1.252 . S
O304 Mg294 2.251 . S
O304 Mg297 2.079 . S
O304 C306 1.273 . S
C305 O301 1.246 . S
C305 O302 1.259 . S
C306 O303 1.252 . S
C306 O304 1.273 . S
O307 Mg294 2.010 . S
O307 C299 1.249 . S
Mg308 O309 2.028 . S
Mg308 O315 1.986 . S
Mg308 O317 2.114 . S
Mg308 O318 2.251 . S
Mg308 O321 2.010 . S
O309 Mg308 2.028 . S
O309 C312 1.250 . S
O310 Mg311 2.028 . S
O310 C312 1.248 . S
Mg311 O310 2.028 . S
Mg311 O316 2.032 . S
Mg311 O318 2.079 . S
C312 O309 1.250 . S
C312 O310 1.248 . S
C313 O314 1.264 . S
C313 O321 1.249 . S
O314 C313 1.264 . S
O315 Mg308 1.986 . S
O315 C319 1.246 . S
O316 Mg311 2.032 . S
O316 C319 1.259 . S
O317 Mg308 2.114 . S
O317 C320 1.252 . S
O318 Mg308 2.251 . S
O318 Mg311 2.079 . S
O318 C320 1.273 . S
C319 O315 1.246 . S
C319 O316 1.259 . S
C320 O317 1.252 . S
C320 O318 1.273 . S
O321 Mg308 2.010 . S
O321 C313 1.249 . S
Mg322 O323 2.028 . S
Mg322 O329 1.986 . S
Mg322 O331 2.114 . S
Mg322 O332 2.251 . S
Mg322 O335 2.010 . S
O323 Mg322 2.028 . S
O323 C326 1.250 . S
O324 Mg325 2.028 . S
O324 C326 1.248 . S
Mg325 O324 2.028 . S
Mg325 O330 2.032 . S
Mg325 O332 2.079 . S
C326 O323 1.250 . S
C326 O324 1.248 . S
C327 O328 1.264 . S
C327 O335 1.249 . S
O328 C327 1.264 . S
O329 Mg322 1.986 . S
O329 C333 1.246 . S
O330 Mg325 2.032 . S
O330 C333 1.259 . S
O331 Mg322 2.114 . S
O331 C334 1.252 . S
O332 Mg322 2.251 . S
O332 Mg325 2.079 . S
O332 C334 1.273 . S
C333 O329 1.246 . S
C333 O330 1.259 . S
C334 O331 1.252 . S
C334 O332 1.273 . S
O335 Mg322 2.010 . S
O335 C327 1.249 . S
Dy336 O340 2.398 . S
Dy336 O341 2.491 1_556 S
Dy336 O342 2.399 1_545 S
Dy336 O343 2.664 1_655 S
Dy336 O347 2.326 . S
Dy336 O351 2.310 1_556 S
Dy336 O352 2.351 1_546 S
C337 O348 1.185 . S
C337 O349 1.358 1_545 S
C338 O340 1.185 . S
C338 O341 1.355 1_556 S
Dy339 O343 2.310 1_554 S
Dy339 O346 2.351 . S
Dy339 O348 2.398 . S
Dy339 O349 2.463 1_545 S
Dy339 O350 2.403 . S
Dy339 O351 2.664 1_455 S
Dy339 O353 2.326 1_545 S
O340 Dy336 2.398 . S
O340 C338 1.185 . S
O341 Dy336 2.491 1_554 S
O341 C338 1.355 1_554 S
O342 Dy336 2.399 1_565 S
O342 C344 1.260 1_665 S
O343 Dy336 2.664 1_455 S
O343 Dy339 2.310 1_556 S
O343 C344 1.268 . S
C344 O342 1.260 1_445 S
C344 O343 1.268 . S
C345 O350 1.254 . S
C345 O351 1.268 1_455 S
O346 Dy339 2.351 . S
O346 C354 1.249 1_554 S
O347 Dy336 2.326 . S
O347 C354 1.267 1_655 S
O348 C337 1.185 . S
O348 Dy339 2.398 . S
O349 C337 1.358 1_565 S
O349 Dy339 2.463 1_565 S
O350 Dy339 2.403 . S
O350 C345 1.254 . S
O351 Dy336 2.310 1_554 S
O351 Dy339 2.664 1_655 S
O351 C345 1.268 1_655 S
O352 Dy336 2.351 1_564 S
O352 C355 1.249 1_655 S
O353 Dy339 2.326 1_565 S
O353 C355 1.267 . S
C354 O346 1.249 1_556 S
C354 O347 1.267 1_455 S
C355 O352 1.249 1_455 S
C355 O353 1.267 . S
Dy356 O360 2.398 . S
Dy356 O361 2.491 . S
Dy356 O362 2.403 . S
Dy356 O363 2.664 . S
Dy356 O367 2.326 . S
Dy356 O371 2.310 . S
Dy356 O372 2.351 . S
C357 O368 1.185 . S
C357 O369 1.355 . S
C358 O360 1.185 . S
C358 O361 1.355 . S
Dy359 O363 2.310 . S
Dy359 O366 2.351 . S
Dy359 O368 2.398 . S
Dy359 O369 2.491 . S
Dy359 O370 2.403 . S
Dy359 O371 2.664 . S
Dy359 O373 2.326 . S
O360 Dy356 2.398 . S
O360 C358 1.185 . S
O361 Dy356 2.491 . S
O361 C358 1.355 . S
O362 Dy356 2.403 . S
O362 C364 1.254 . S
O363 Dy356 2.664 . S
O363 Dy359 2.310 . S
O363 C364 1.268 . S
C364 O362 1.254 . S
C364 O363 1.268 . S
C365 O370 1.254 . S
C365 O371 1.268 . S
O366 Dy359 2.351 . S
O366 C374 1.249 . S
O367 Dy356 2.326 . S
O367 C374 1.267 . S
O368 C357 1.185 . S
O368 Dy359 2.398 . S
O369 C357 1.355 . S
O369 Dy359 2.491 . S
O370 Dy359 2.403 . S
O370 C365 1.254 . S
O371 Dy356 2.310 . S
O371 Dy359 2.664 . S
O371 C365 1.268 . S
O372 Dy356 2.351 . S
O372 C375 1.249 . S
O373 Dy359 2.326 . S
O373 C375 1.267 . S
C374 O366 1.249 . S
C374 O367 1.267 . S
C375 O372 1.249 . S
C375 O373 1.267 . S
Dy376 O380 2.398 . S
Dy376 O381 2.491 1_545 S
Dy376 O382 2.403 . S
Dy376 O383 2.664 . S
Dy376 O387 2.326 1_545 S
Dy376 O391 2.310 . S
Dy376 O392 2.351 . S
C377 O388 1.185 . S
C377 O389 1.355 . S
C378 O380 1.185 1_565 S
C378 O381 1.355 . S
Dy379 O383 2.310 . S
Dy379 O386 2.351 1_545 S
Dy379 O388 2.398 . S
Dy379 O389 2.491 . S
Dy379 O390 2.403 . S
Dy379 O391 2.664 . S
Dy379 O393 2.326 . S
O380 Dy376 2.398 . S
O380 C378 1.185 1_545 S
O381 Dy376 2.491 1_565 S
O381 C378 1.355 . S
O382 Dy376 2.403 . S
O382 C384 1.254 . S
O383 Dy376 2.664 . S
O383 Dy379 2.310 . S
O383 C384 1.268 . S
C384 O382 1.254 . S
C384 O383 1.268 . S
C385 O390 1.254 . S
C385 O391 1.268 . S
O386 Dy379 2.351 1_565 S
O386 C394 1.249 . S
O387 Dy376 2.326 1_565 S
O387 C394 1.267 . S
O388 C377 1.185 . S
O388 Dy379 2.398 . S
O389 C377 1.355 . S
O389 Dy379 2.491 . S
O390 Dy379 2.403 . S
O390 C385 1.254 . S
O391 Dy376 2.310 . S
O391 Dy379 2.664 . S
O391 C385 1.268 . S
O392 Dy376 2.351 . S
O392 C395 1.249 . S
O393 Dy379 2.326 . S
O393 C395 1.267 . S
C394 O386 1.249 . S
C394 O387 1.267 . S
C395 O392 1.249 . S
C395 O393 1.267 . S
Dy396 O400 2.398 . S
Dy396 O401 2.491 . S
Dy396 O402 2.403 . S
Dy396 O403 2.664 . S
Dy396 O407 2.326 . S
Dy396 O411 2.310 . S
Dy396 O412 2.351 . S
C397 O408 1.185 . S
C397 O409 1.355 . S
C398 O400 1.185 . S
C398 O401 1.355 . S
Dy399 O403 2.310 . S
Dy399 O406 2.351 . S
Dy399 O408 2.398 . S
Dy399 O409 2.491 . S
Dy399 O410 2.403 . S
Dy399 O411 2.664 . S
Dy399 O413 2.326 . S
O400 Dy396 2.398 . S
O400 C398 1.185 . S
O401 Dy396 2.491 . S
O401 C398 1.355 . S
O402 Dy396 2.403 . S
O402 C404 1.254 . S
O403 Dy396 2.664 . S
O403 Dy399 2.310 . S
O403 C404 1.268 . S
C404 O402 1.254 . S
C404 O403 1.268 . S
C405 O410 1.254 . S
C405 O411 1.268 . S
O406 Dy399 2.351 . S
O406 C414 1.249 . S
O407 Dy396 2.326 . S
O407 C414 1.267 . S
O408 C397 1.185 . S
O408 Dy399 2.398 . S
O409 C397 1.355 . S
O409 Dy399 2.491 . S
O410 Dy399 2.403 . S
O410 C405 1.254 . S
O411 Dy396 2.310 . S
O411 Dy399 2.664 . S
O411 C405 1.268 . S
O412 Dy396 2.351 . S
O412 C415 1.249 . S
O413 Dy399 2.326 . S
O413 C415 1.267 . S
C414 O406 1.249 . S
C414 O407 1.267 . S
C415 O412 1.249 . S
C415 O413 1.267 . S
Dy416 O420 2.398 . S
Dy416 O421 2.491 1_455 S
Dy416 O422 2.403 . S
Dy416 O423 2.664 . S
Dy416 O427 2.326 . S
Dy416 O431 2.310 1_455 S
Dy416 O432 2.351 1_545 S
C417 O428 1.185 . S
C417 O429 1.355 . S
C418 O420 1.185 1_655 S
C418 O421 1.355 . S
Dy419 O423 2.310 . S
Dy419 O426 2.351 . S
Dy419 O428 2.398 . S
Dy419 O429 2.491 . S
Dy419 O430 2.403 1_455 S
Dy419 O431 2.664 1_455 S
Dy419 O433 2.326 1_545 S
O420 Dy416 2.398 . S
O420 C418 1.185 1_455 S
O421 Dy416 2.491 1_655 S
O421 C418 1.355 . S
O422 Dy416 2.403 . S
O422 C424 1.254 . S
O423 Dy416 2.664 . S
O423 Dy419 2.310 . S
O423 C424 1.268 . S
C424 O422 1.254 . S
C424 O423 1.268 . S
C425 O430 1.254 . S
C425 O431 1.268 . S
O426 Dy419 2.351 . S
O426 C434 1.249 . S
O427 Dy416 2.326 . S
O427 C434 1.267 . S
O428 C417 1.185 . S
O428 Dy419 2.398 . S
O429 C417 1.355 . S
O429 Dy419 2.491 . S
O430 Dy419 2.403 1_655 S
O430 C425 1.254 . S
O431 Dy416 2.310 1_655 S
O431 Dy419 2.664 1_655 S
O431 C425 1.268 . S
O432 Dy416 2.351 1_565 S
O432 C435 1.249 . S
O433 Dy419 2.326 1_565 S
O433 C435 1.267 . S
C434 O426 1.249 . S
C434 O427 1.267 . S
C435 O432 1.249 . S
C435 O433 1.267 . S
Dy436 O440 2.398 . S
Dy436 O441 2.491 . S
Dy436 O442 2.403 . S
Dy436 O443 2.664 . S
Dy436 O447 2.326 . S
Dy436 O451 2.310 . S
Dy436 O452 2.351 . S
C437 O448 1.185 . S
C437 O449 1.355 . S
C438 O440 1.185 . S
C438 O441 1.355 . S
Dy439 O443 2.310 . S
Dy439 O446 2.351 . S
Dy439 O448 2.398 . S
Dy439 O449 2.491 . S
Dy439 O450 2.403 . S
Dy439 O451 2.664 . S
Dy439 O453 2.326 . S
O440 Dy436 2.398 . S
O440 C438 1.185 . S
O441 Dy436 2.491 . S
O441 C438 1.355 . S
O442 Dy436 2.403 . S
O442 C444 1.254 . S
O443 Dy436 2.664 . S
O443 Dy439 2.310 . S
O443 C444 1.268 . S
C444 O442 1.254 . S
C444 O443 1.268 . S
C445 O450 1.254 . S
C445 O451 1.268 . S
O446 Dy439 2.351 . S
O446 C454 1.249 . S
O447 Dy436 2.326 . S
O447 C454 1.267 . S
O448 C437 1.185 . S
O448 Dy439 2.398 . S
O449 C437 1.355 . S
O449 Dy439 2.491 . S
O450 Dy439 2.403 . S
O450 C445 1.254 . S
O451 Dy436 2.310 . S
O451 Dy439 2.664 . S
O451 C445 1.268 . S
O452 Dy436 2.351 . S
O452 C455 1.249 . S
O453 Dy439 2.326 . S
O453 C455 1.267 . S
C454 O446 1.249 . S
C454 O447 1.267 . S
C455 O452 1.249 . S
C455 O453 1.267 . S
Dy456 O460 2.398 1_545 S
Dy456 O461 2.491 . S
Dy456 O462 2.403 1_545 S
Dy456 O463 2.664 1_544 S
Dy456 O467 2.326 1_545 S
Dy456 O471 2.310 . S
Dy456 O472 2.351 . S
C457 O468 1.185 . S
C457 O469 1.355 . S
C458 O460 1.185 . S
C458 O461 1.355 1_565 S
Dy459 O463 2.310 1_545 S
Dy459 O466 2.351 . S
Dy459 O468 2.398 . S
Dy459 O469 2.491 . S
Dy459 O470 2.403 . S
Dy459 O471 2.664 1_556 S
Dy459 O473 2.326 . S
O460 Dy456 2.398 1_565 S
O460 C458 1.185 . S
O461 Dy456 2.491 . S
O461 C458 1.355 1_545 S
O462 Dy456 2.403 1_565 S
O462 C464 1.254 1_554 S
O463 Dy456 2.664 1_566 S
O463 Dy459 2.310 1_565 S
O463 C464 1.268 . S
C464 O462 1.254 1_556 S
C464 O463 1.268 . S
C465 O470 1.254 1_554 S
C465 O471 1.268 . S
O466 Dy459 2.351 . S
O466 C474 1.254 1_556 S
O467 Dy456 2.326 1_565 S
O467 C474 1.262 1_565 S
O468 C457 1.185 . S
O468 Dy459 2.398 . S
O469 C457 1.355 . S
O469 Dy459 2.491 . S
O470 Dy459 2.403 . S
O470 C465 1.254 1_556 S
O471 Dy456 2.310 . S
O471 Dy459 2.664 1_554 S
O471 C465 1.268 . S
O472 Dy456 2.351 . S
O472 C475 1.249 . S
O473 Dy459 2.326 . S
O473 C475 1.267 1_556 S
C474 O466 1.254 1_554 S
C474 O467 1.262 1_545 S
C475 O472 1.249 . S
C475 O473 1.267 1_554 S
Dy476 O480 2.398 . S
Dy476 O481 2.491 . S
Dy476 O482 2.403 . S
Dy476 O483 2.664 . S
Dy476 O487 2.326 . S
Dy476 O491 2.310 . S
Dy476 O492 2.351 . S
C477 O488 1.185 . S
C477 O489 1.355 . S
C478 O480 1.185 . S
C478 O481 1.355 . S
Dy479 O483 2.310 . S
Dy479 O486 2.351 . S
Dy479 O488 2.398 . S
Dy479 O489 2.491 . S
Dy479 O490 2.403 . S
Dy479 O491 2.664 . S
Dy479 O493 2.326 . S
O480 Dy476 2.398 . S
O480 C478 1.185 . S
O481 Dy476 2.491 . S
O481 C478 1.355 . S
O482 Dy476 2.403 . S
O482 C484 1.254 . S
O483 Dy476 2.664 . S
O483 Dy479 2.310 . S
O483 C484 1.268 . S
C484 O482 1.254 . S
C484 O483 1.268 . S
C485 O490 1.254 . S
C485 O491 1.268 . S
O486 Dy479 2.351 . S
O486 C494 1.249 . S
O487 Dy476 2.326 . S
O487 C494 1.267 . S
O488 C477 1.185 . S
O488 Dy479 2.398 . S
O489 C477 1.355 . S
O489 Dy479 2.491 . S
O490 Dy479 2.403 . S
O490 C485 1.254 . S
O491 Dy476 2.310 . S
O491 Dy479 2.664 . S
O491 C485 1.268 . S
O492 Dy476 2.351 . S
O492 C495 1.249 . S
O493 Dy479 2.326 . S
O493 C495 1.267 . S
C494 O486 1.249 . S
C494 O487 1.267 . S
C495 O492 1.249 . S
C495 O493 1.267 . S
Dy496 O500 2.398 . S
Dy496 O501 2.491 . S
Dy496 O502 2.403 . S
Dy496 O503 2.664 1_556 S
Dy496 O507 2.326 . S
Dy496 O511 2.310 1_556 S
Dy496 O512 2.347 1_556 S
C497 O508 1.185 . S
C497 O509 1.355 . S
C498 O500 1.185 . S
C498 O501 1.355 . S
Dy499 O503 2.310 . S
Dy499 O506 2.351 . S
Dy499 O508 2.398 . S
Dy499 O509 2.491 . S
Dy499 O510 2.403 . S
Dy499 O511 2.664 . S
Dy499 O513 2.326 . S
O500 Dy496 2.398 . S
O500 C498 1.185 . S
O501 Dy496 2.491 . S
O501 C498 1.355 . S
O502 Dy496 2.403 . S
O502 C504 1.254 . S
O503 Dy496 2.664 1_554 S
O503 Dy499 2.310 . S
O503 C504 1.268 1_554 S
C504 O502 1.254 . S
C504 O503 1.268 1_556 S
C505 O510 1.254 . S
C505 O511 1.268 . S
O506 Dy499 2.351 . S
O506 C514 1.249 1_554 S
O507 Dy496 2.326 . S
O507 C514 1.267 . S
O508 C497 1.185 . S
O508 Dy499 2.398 . S
O509 C497 1.355 . S
O509 Dy499 2.491 . S
O510 Dy499 2.403 . S
O510 C505 1.254 . S
O511 Dy496 2.310 1_554 S
O511 Dy499 2.664 . S
O511 C505 1.268 . S
O512 Dy496 2.347 1_554 S
O512 C515 1.255 . S
O513 Dy499 2.326 . S
O513 C515 1.267 . S
C514 O506 1.249 1_556 S
C514 O507 1.267 . S
C515 O512 1.255 . S
C515 O513 1.267 . S
Dy516 O520 2.398 . S
Dy516 O521 2.491 . S
Dy516 O522 2.403 . S
Dy516 O523 2.664 . S
Dy516 O527 2.326 . S
Dy516 O531 2.310 . S
Dy516 O532 2.351 . S
C517 O528 1.185 . S
C517 O529 1.355 . S
C518 O520 1.185 . S
C518 O521 1.355 . S
Dy519 O523 2.310 . S
Dy519 O526 2.351 . S
Dy519 O528 2.398 . S
Dy519 O529 2.491 . S
Dy519 O530 2.403 . S
Dy519 O531 2.664 . S
Dy519 O533 2.326 . S
O520 Dy516 2.398 . S
O520 C518 1.185 . S
O521 Dy516 2.491 . S
O521 C518 1.355 . S
O522 Dy516 2.403 . S
O522 C524 1.254 . S
O523 Dy516 2.664 . S
O523 Dy519 2.310 . S
O523 C524 1.268 . S
C524 O522 1.254 . S
C524 O523 1.268 . S
C525 O530 1.254 . S
C525 O531 1.268 . S
O526 Dy519 2.351 . S
O526 C534 1.249 . S
O527 Dy516 2.326 . S
O527 C534 1.267 . S
O528 C517 1.185 . S
O528 Dy519 2.398 . S
O529 C517 1.355 . S
O529 Dy519 2.491 . S
O530 Dy519 2.403 . S
O530 C525 1.254 . S
O531 Dy516 2.310 . S
O531 Dy519 2.664 . S
O531 C525 1.268 . S
O532 Dy516 2.351 . S
O532 C535 1.249 . S
O533 Dy519 2.326 . S
O533 C535 1.267 . S
C534 O526 1.249 . S
C534 O527 1.267 . S
C535 O532 1.249 . S
C535 O533 1.267 . S
Dy536 O540 2.398 1_455 S
Dy536 O541 2.491 1_455 S
Dy536 O542 2.403 . S
Dy536 O543 2.664 . S
Dy536 O547 2.326 1_455 S
Dy536 O551 2.310 . S
Dy536 O552 2.351 . S
C537 O548 1.185 . S
C537 O549 1.355 . S
C538 O540 1.185 . S
C538 O541 1.355 . S
Dy539 O543 2.310 . S
Dy539 O546 2.351 1_455 S
Dy539 O548 2.398 . S
Dy539 O549 2.491 . S
Dy539 O550 2.403 . S
Dy539 O551 2.664 . S
Dy539 O553 2.326 . S
O540 Dy536 2.398 1_655 S
O540 C538 1.185 . S
O541 Dy536 2.491 1_655 S
O541 C538 1.355 . S
O542 Dy536 2.403 . S
O542 C544 1.254 . S
O543 Dy536 2.664 . S
O543 Dy539 2.310 . S
O543 C544 1.268 . S
C544 O542 1.254 . S
C544 O543 1.268 . S
C545 O550 1.254 . S
C545 O551 1.268 . S
O546 Dy539 2.351 1_655 S
O546 C554 1.249 . S
O547 Dy536 2.326 1_655 S
O547 C554 1.267 . S
O548 C537 1.185 . S
O548 Dy539 2.398 . S
O549 C537 1.355 . S
O549 Dy539 2.491 . S
O550 Dy539 2.403 . S
O550 C545 1.254 . S
O551 Dy536 2.310 . S
O551 Dy539 2.664 . S
O551 C545 1.268 . S
O552 Dy536 2.351 . S
O552 C555 1.249 . S
O553 Dy539 2.326 . S
O553 C555 1.267 . S
C554 O546 1.249 . S
C554 O547 1.267 . S
C555 O552 1.249 . S
C555 O553 1.267 . S
Dy556 O560 2.398 . S
Dy556 O561 2.491 . S
Dy556 O562 2.403 . S
Dy556 O563 2.664 . S
Dy556 O567 2.326 . S
Dy556 O571 2.310 . S
Dy556 O572 2.351 . S
C557 O568 1.185 . S
C557 O569 1.355 . S
C558 O560 1.185 . S
C558 O561 1.355 . S
Dy559 O563 2.310 . S
Dy559 O566 2.351 . S
Dy559 O568 2.398 . S
Dy559 O569 2.491 . S
Dy559 O570 2.403 . S
Dy559 O571 2.664 . S
Dy559 O573 2.326 . S
O560 Dy556 2.398 . S
O560 C558 1.185 . S
O561 Dy556 2.491 . S
O561 C558 1.355 . S
O562 Dy556 2.403 . S
O562 C564 1.254 . S
O563 Dy556 2.664 . S
O563 Dy559 2.310 . S
O563 C564 1.268 . S
C564 O562 1.254 . S
C564 O563 1.268 . S
C565 O570 1.254 . S
C565 O571 1.268 . S
O566 Dy559 2.351 . S
O566 C574 1.249 . S
O567 Dy556 2.326 . S
O567 C574 1.267 . S
O568 C557 1.185 . S
O568 Dy559 2.398 . S
O569 C557 1.355 . S
O569 Dy559 2.491 . S
O570 Dy559 2.403 . S
O570 C565 1.254 . S
O571 Dy556 2.310 . S
O571 Dy559 2.664 . S
O571 C565 1.268 . S
O572 Dy556 2.351 . S
O572 C575 1.249 . S
O573 Dy559 2.326 . S
O573 C575 1.267 . S
C574 O566 1.249 . S
C574 O567 1.267 . S
C575 O572 1.249 . S
C575 O573 1.267 . S
Dy576 O580 2.398 . S
Dy576 O581 2.491 . S
Dy576 O582 2.403 . S
Dy576 O583 2.664 . S
Dy576 O587 2.326 . S
Dy576 O591 2.310 . S
Dy576 O592 2.351 . S
C577 O588 1.185 . S
C577 O589 1.355 . S
C578 O580 1.185 . S
C578 O581 1.355 . S
Dy579 O583 2.310 . S
Dy579 O586 2.351 . S
Dy579 O588 2.398 . S
Dy579 O589 2.491 . S
Dy579 O590 2.403 . S
Dy579 O591 2.664 . S
Dy579 O593 2.326 . S
O580 Dy576 2.398 . S
O580 C578 1.185 . S
O581 Dy576 2.491 . S
O581 C578 1.355 . S
O582 Dy576 2.403 . S
O582 C584 1.254 . S
O583 Dy576 2.664 . S
O583 Dy579 2.310 . S
O583 C584 1.268 . S
C584 O582 1.254 . S
C584 O583 1.268 . S
C585 O590 1.254 . S
C585 O591 1.268 . S
O586 Dy579 2.351 . S
O586 C594 1.249 . S
O587 Dy576 2.326 . S
O587 C594 1.267 . S
O588 C577 1.185 . S
O588 Dy579 2.398 . S
O589 C577 1.355 . S
O589 Dy579 2.491 . S
O590 Dy579 2.403 . S
O590 C585 1.254 . S
O591 Dy576 2.310 . S
O591 Dy579 2.664 . S
O591 C585 1.268 . S
O592 Dy576 2.351 . S
O592 C595 1.249 . S
O593 Dy579 2.326 . S
O593 C595 1.267 . S
C594 O586 1.249 . S
C594 O587 1.267 . S
C595 O592 1.249 . S
C595 O593 1.267 . S
Dy596 O600 2.398 . S
Dy596 O601 2.491 . S
Dy596 O602 2.403 . S
Dy596 O603 2.664 . S
Dy596 O607 2.326 . S
Dy596 O611 2.310 . S
Dy596 O612 2.351 . S
C597 O608 1.185 . S
C597 O609 1.355 . S
C598 O600 1.185 . S
C598 O601 1.355 . S
Dy599 O603 2.310 . S
Dy599 O606 2.351 . S
Dy599 O608 2.398 . S
Dy599 O609 2.491 . S
Dy599 O610 2.403 . S
Dy599 O611 2.664 . S
Dy599 O613 2.326 . S
O600 Dy596 2.398 . S
O600 C598 1.185 . S
O601 Dy596 2.491 . S
O601 C598 1.355 . S
O602 Dy596 2.403 . S
O602 C604 1.254 . S
O603 Dy596 2.664 . S
O603 Dy599 2.310 . S
O603 C604 1.268 . S
C604 O602 1.254 . S
C604 O603 1.268 . S
C605 O610 1.254 . S
C605 O611 1.268 . S
O606 Dy599 2.351 . S
O606 C614 1.249 . S
O607 Dy596 2.326 . S
O607 C614 1.267 . S
O608 C597 1.185 . S
O608 Dy599 2.398 . S
O609 C597 1.355 . S
O609 Dy599 2.491 . S
O610 Dy599 2.403 . S
O610 C605 1.254 . S
O611 Dy596 2.310 . S
O611 Dy599 2.664 . S
O611 C605 1.268 . S
O612 Dy596 2.351 . S
O612 C615 1.249 . S
O613 Dy599 2.326 . S
O613 C615 1.267 . S
C614 O606 1.249 . S
C614 O607 1.267 . S
C615 O612 1.249 . S
C615 O613 1.267 . S
Dy616 O620 2.398 . S
Dy616 O621 2.491 . S
Dy616 O622 2.403 . S
Dy616 O623 2.664 . S
Dy616 O627 2.326 . S
Dy616 O631 2.310 . S
Dy616 O632 2.351 . S
C617 O628 1.185 . S
C617 O629 1.355 . S
C618 O620 1.185 . S
C618 O621 1.355 . S
Dy619 O623 2.310 . S
Dy619 O626 2.351 . S
Dy619 O628 2.398 . S
Dy619 O629 2.491 . S
Dy619 O630 2.403 . S
Dy619 O631 2.664 . S
Dy619 O633 2.326 . S
O620 Dy616 2.398 . S
O620 C618 1.185 . S
O621 Dy616 2.491 . S
O621 C618 1.355 . S
O622 Dy616 2.403 . S
O622 C624 1.254 . S
O623 Dy616 2.664 . S
O623 Dy619 2.310 . S
O623 C624 1.268 . S
C624 O622 1.254 . S
C624 O623 1.268 . S
C625 O630 1.254 . S
C625 O631 1.268 . S
O626 Dy619 2.351 . S
O626 C634 1.249 . S
O627 Dy616 2.326 . S
O627 C634 1.267 . S
O628 C617 1.185 . S
O628 Dy619 2.398 . S
O629 C617 1.355 . S
O629 Dy619 2.491 . S
O630 Dy619 2.403 . S
O630 C625 1.254 . S
O631 Dy616 2.310 . S
O631 Dy619 2.664 . S
O631 C625 1.268 . S
O632 Dy616 2.351 . S
O632 C635 1.249 . S
O633 Dy619 2.326 . S
O633 C635 1.267 . S
C634 O626 1.249 . S
C634 O627 1.267 . S
C635 O632 1.249 . S
C635 O633 1.267 . S
Dy636 O640 2.398 . S
Dy636 O641 2.491 1_556 S
Dy636 O642 2.403 . S
Dy636 O643 2.663 1_455 S
Dy636 O647 2.326 . S
Dy636 O651 2.310 1_556 S
Dy636 O652 2.351 1_556 S
C637 O648 1.185 . S
C637 O649 1.355 . S
C638 O640 1.185 . S
C638 O641 1.355 1_556 S
Dy639 O643 2.311 1_554 S
Dy639 O646 2.351 . S
Dy639 O648 2.398 . S
Dy639 O649 2.491 . S
Dy639 O650 2.403 . S
Dy639 O651 2.664 1_655 S
Dy639 O653 2.337 . S
O640 Dy636 2.398 . S
O640 C638 1.185 . S
O641 Dy636 2.491 1_554 S
O641 C638 1.355 1_554 S
O642 Dy636 2.403 . S
O642 C644 1.254 . S
O643 Dy636 2.663 1_655 S
O643 Dy639 2.311 1_556 S
O643 C644 1.267 1_655 S
C644 O642 1.254 . S
C644 O643 1.267 1_455 S
C645 O650 1.254 1_455 S
C645 O651 1.268 . S
O646 Dy639 2.351 . S
O646 C654 1.249 1_654 S
O647 Dy636 2.326 . S
O647 C654 1.267 . S
O648 C637 1.185 . S
O648 Dy639 2.398 . S
O649 C637 1.355 . S
O649 Dy639 2.491 . S
O650 Dy639 2.403 . S
O650 C645 1.254 1_655 S
O651 Dy636 2.310 1_554 S
O651 Dy639 2.664 1_455 S
O651 C645 1.268 . S
O652 Dy636 2.351 1_554 S
O652 C655 1.249 . S
O653 Dy639 2.337 . S
O653 C655 1.245 1_655 S
C654 O646 1.249 1_456 S
C654 O647 1.267 . S
C655 O652 1.249 . S
C655 O653 1.245 1_455 S
H656 C662 0.930 . S
H657 C665 0.930 . S
H658 C666 0.930 . S
H659 C667 0.930 . S
H660 C670 0.930 . S
H661 C671 0.940 . S
C662 H656 0.930 . S
C662 C663 1.355 . S
C662 C664 1.415 . S
C663 C662 1.355 . S
C663 C665 1.419 1_655 S
C664 C662 1.415 . S
C664 C669 1.425 1_655 S
C664 C671 1.393 1_556 S
C665 H657 0.930 . S
C665 C663 1.419 1_455 S
C665 C666 1.362 . S
C666 H658 0.930 . S
C666 C665 1.362 . S
C666 C669 1.409 . S
C667 H659 0.930 . S
C667 C668 1.355 . S
C667 C669 1.415 . S
C668 C667 1.355 . S
C668 C670 1.419 1_456 S
C669 C664 1.425 1_455 S
C669 C666 1.409 . S
C669 C667 1.415 . S
C670 H660 0.930 . S
C670 C668 1.419 1_654 S
C670 C671 1.369 . S
C671 H661 0.940 . S
C671 C664 1.393 1_554 S
C671 C670 1.369 . S
H672 C678 0.930 . S
H673 C681 0.930 . S
H674 C682 0.930 . S
H675 C683 0.930 . S
H676 C686 0.930 . S
H677 C687 0.930 . S
C678 H672 0.930 . S
C678 C679 1.355 . S
C678 C680 1.415 . S
C679 C678 1.355 . S
C679 C681 1.419 . S
C680 C678 1.415 . S
C680 C685 1.425 . S
C680 C687 1.409 . S
C681 H673 0.930 . S
C681 C679 1.419 . S
C681 C682 1.362 . S
C682 H674 0.930 . S
C682 C681 1.362 . S
C682 C685 1.409 . S
C683 H675 0.930 . S
C683 C684 1.355 . S
C683 C685 1.415 . S
C684 C683 1.355 . S
C684 C686 1.419 . S
C685 C680 1.425 . S
C685 C682 1.409 . S
C685 C683 1.415 . S
C686 H676 0.930 . S
C686 C684 1.419 . S
C686 C687 1.362 . S
C687 H677 0.930 . S
C687 C680 1.409 . S
C687 C686 1.362 . S
H688 C694 0.930 . S
H689 C697 0.930 . S
H690 C698 0.930 . S
H691 C699 0.930 . S
H692 C702 0.930 . S
H693 C703 0.930 . S
C694 H688 0.930 . S
C694 C695 1.355 . S
C694 C696 1.415 . S
C695 C694 1.355 . S
C695 C697 1.419 . S
C696 C694 1.415 . S
C696 C701 1.425 . S
C696 C703 1.409 . S
C697 H689 0.930 . S
C697 C695 1.419 . S
C697 C698 1.362 . S
C698 H690 0.930 . S
C698 C697 1.362 . S
C698 C701 1.409 . S
C699 H691 0.930 . S
C699 C700 1.355 . S
C699 C701 1.415 . S
C700 C699 1.355 . S
C700 C702 1.419 . S
C701 C696 1.425 . S
C701 C698 1.409 . S
C701 C699 1.415 . S
C702 H692 0.930 . S
C702 C700 1.419 . S
C702 C703 1.362 . S
C703 H693 0.930 . S
C703 C696 1.409 . S
C703 C702 1.362 . S
H704 C710 0.930 . S
H705 C713 0.930 . S
H706 C714 0.930 . S
H707 C715 0.930 . S
H708 C718 0.930 . S
H709 C719 0.930 . S
C710 H704 0.930 . S
C710 C711 1.355 . S
C710 C712 1.415 . S
C711 C710 1.355 . S
C711 C713 1.419 . S
C712 C710 1.415 . S
C712 C717 1.425 . S
C712 C719 1.409 . S
C713 H705 0.930 . S
C713 C711 1.419 . S
C713 C714 1.362 . S
C714 H706 0.930 . S
C714 C713 1.362 . S
C714 C717 1.409 . S
C715 H707 0.930 . S
C715 C716 1.355 . S
C715 C717 1.415 . S
C716 C715 1.355 . S
C716 C718 1.419 . S
C717 C712 1.425 . S
C717 C714 1.409 . S
C717 C715 1.415 . S
C718 H708 0.930 . S
C718 C716 1.419 . S
C718 C719 1.362 . S
C719 H709 0.930 . S
C719 C712 1.409 . S
C719 C718 1.362 . S
H720 C726 0.930 . S
H721 C729 0.930 . S
H722 C730 0.930 . S
H723 C731 0.930 . S
H724 C734 0.930 . S
H725 C735 0.930 . S
C726 H720 0.930 . S
C726 C727 1.355 1_655 S
C726 C728 1.415 1_655 S
C727 C726 1.355 1_455 S
C727 C729 1.419 . S
C728 C726 1.415 1_455 S
C728 C733 1.425 . S
C728 C735 1.409 1_455 S
C729 H721 0.930 . S
C729 C727 1.419 . S
C729 C730 1.362 . S
C730 H722 0.930 . S
C730 C729 1.362 . S
C730 C733 1.409 . S
C731 H723 0.930 . S
C731 C732 1.355 . S
C731 C733 1.415 . S
C732 C731 1.355 . S
C732 C734 1.419 1_455 S
C733 C728 1.425 . S
C733 C730 1.409 . S
C733 C731 1.415 . S
C734 H724 0.930 . S
C734 C732 1.419 1_655 S
C734 C735 1.362 . S
C735 H725 0.930 . S
C735 C728 1.409 1_655 S
C735 C734 1.362 . S
H736 C742 0.930 . S
H737 C745 0.930 . S
H738 C746 0.930 . S
H739 C747 0.930 . S
H740 C750 0.930 . S
H741 C751 0.930 . S
C742 H736 0.930 . S
C742 C743 1.355 . S
C742 C744 1.415 . S
C743 C742 1.355 . S
C743 C745 1.419 . S
C744 C742 1.415 . S
C744 C749 1.425 . S
C744 C751 1.409 . S
C745 H737 0.930 . S
C745 C743 1.419 . S
C745 C746 1.362 . S
C746 H738 0.930 . S
C746 C745 1.362 . S
C746 C749 1.409 . S
C747 H739 0.930 . S
C747 C748 1.355 . S
C747 C749 1.415 . S
C748 C747 1.355 . S
C748 C750 1.419 . S
C749 C744 1.425 . S
C749 C746 1.409 . S
C749 C747 1.415 . S
C750 H740 0.930 . S
C750 C748 1.419 . S
C750 C751 1.362 . S
C751 H741 0.930 . S
C751 C744 1.409 . S
C751 C750 1.362 . S
H752 C758 0.930 . S
H753 C761 0.930 . S
H754 C762 0.930 . S
H755 C763 0.930 . S
H756 C766 0.930 . S
H757 C767 0.930 . S
C758 H752 0.930 . S
C758 C759 1.355 . S
C758 C760 1.415 . S
C759 C758 1.355 . S
C759 C761 1.419 . S
C760 C758 1.415 . S
C760 C765 1.425 . S
C760 C767 1.409 . S
C761 H753 0.930 . S
C761 C759 1.419 . S
C761 C762 1.362 . S
C762 H754 0.930 . S
C762 C761 1.362 . S
C762 C765 1.409 . S
C763 H755 0.930 . S
C763 C764 1.355 . S
C763 C765 1.415 . S
C764 C763 1.355 . S
C764 C766 1.419 . S
C765 C760 1.425 . S
C765 C762 1.409 . S
C765 C763 1.415 . S
C766 H756 0.930 . S
C766 C764 1.419 . S
C766 C767 1.362 . S
C767 H757 0.930 . S
C767 C760 1.409 . S
C767 C766 1.362 . S
H768 C774 0.930 . S
H769 C777 0.930 . S
H770 C778 0.930 . S
H771 C779 0.930 . S
H772 C782 0.930 . S
H773 C783 0.930 . S
C774 H768 0.930 . S
C774 C775 1.355 . S
C774 C776 1.415 . S
C775 C774 1.355 . S
C775 C777 1.419 . S
C776 C774 1.415 . S
C776 C781 1.425 . S
C776 C783 1.409 . S
C777 H769 0.930 . S
C777 C775 1.419 . S
C777 C778 1.362 . S
C778 H770 0.930 . S
C778 C777 1.362 . S
C778 C781 1.409 . S
C779 H771 0.930 . S
C779 C780 1.355 . S
C779 C781 1.415 . S
C780 C779 1.355 . S
C780 C782 1.419 . S
C781 C776 1.425 . S
C781 C778 1.409 . S
C781 C779 1.415 . S
C782 H772 0.930 . S
C782 C780 1.419 . S
C782 C783 1.362 . S
C783 H773 0.930 . S
C783 C776 1.409 . S
C783 C782 1.362 . S
H784 C790 0.930 . S
H785 C793 0.930 . S
H786 C794 0.930 1_455 S
H787 C795 0.930 1_455 S
H788 C798 0.930 . S
H789 C799 0.930 . S
C790 H784 0.930 . S
C790 C791 1.355 . S
C790 C792 1.415 . S
C791 C790 1.355 . S
C791 C793 1.419 . S
C792 C790 1.415 . S
C792 C797 1.425 . S
C792 C799 1.409 . S
C793 H785 0.930 . S
C793 C791 1.419 . S
C793 C794 1.362 . S
C794 H786 0.930 1_655 S
C794 C793 1.362 . S
C794 C797 1.409 . S
C795 H787 0.930 1_655 S
C795 C796 1.355 . S
C795 C797 1.415 . S
C796 C795 1.355 . S
C796 C798 1.419 . S
C797 C792 1.425 . S
C797 C794 1.409 . S
C797 C795 1.415 . S
C798 H788 0.930 . S
C798 C796 1.419 . S
C798 C799 1.362 . S
C799 H789 0.930 . S
C799 C792 1.409 . S
C799 C798 1.362 . S
H800 C806 0.930 . S
H801 C809 0.930 . S
H802 C810 0.930 . S
H803 C811 0.930 . S
H804 C814 0.930 . S
H805 C815 0.930 . S
C806 H800 0.930 . S
C806 C807 1.355 . S
C806 C808 1.415 . S
C807 C806 1.355 . S
C807 C809 1.419 . S
C808 C806 1.415 . S
C808 C813 1.425 . S
C808 C815 1.409 . S
C809 H801 0.930 . S
C809 C807 1.419 . S
C809 C810 1.362 . S
C810 H802 0.930 . S
C810 C809 1.362 . S
C810 C813 1.409 . S
C811 H803 0.930 . S
C811 C812 1.355 . S
C811 C813 1.415 . S
C812 C811 1.355 . S
C812 C814 1.419 . S
C813 C808 1.425 . S
C813 C810 1.409 . S
C813 C811 1.415 . S
C814 H804 0.930 . S
C814 C812 1.419 . S
C814 C815 1.362 . S
C815 H805 0.930 . S
C815 C808 1.409 . S
C815 C814 1.362 . S
H816 C822 0.930 . S
H817 C825 0.938 . S
H818 C826 0.930 . S
H819 C827 0.930 1_565 S
H820 C830 0.930 . S
H821 C831 0.930 . S
C822 H816 0.930 . S
C822 C823 1.355 . S
C822 C824 1.415 . S
C823 C822 1.355 . S
C823 C825 1.412 1_545 S
C824 C822 1.415 . S
C824 C829 1.425 . S
C824 C831 1.409 . S
C825 H817 0.938 . S
C825 C823 1.412 1_565 S
C825 C826 1.361 . S
C826 H818 0.930 . S
C826 C825 1.361 . S
C826 C829 1.409 1_565 S
C827 H819 0.930 1_545 S
C827 C828 1.355 . S
C827 C829 1.415 . S
C828 C827 1.355 . S
C828 C830 1.419 . S
C829 C824 1.425 . S
C829 C826 1.409 1_545 S
C829 C827 1.415 . S
C830 H820 0.930 . S
C830 C828 1.419 . S
C830 C831 1.362 . S
C831 H821 0.930 . S
C831 C824 1.409 . S
C831 C830 1.362 . S
H832 C838 0.930 . S
H833 C841 0.930 . S
H834 C842 0.930 . S
H835 C843 0.930 . S
H836 C846 0.930 . S
H837 C847 0.930 . S
C838 H832 0.930 . S
C838 C839 1.355 . S
C838 C840 1.415 . S
C839 C838 1.355 . S
C839 C841 1.419 . S
C840 C838 1.415 . S
C840 C845 1.425 . S
C840 C847 1.409 . S
C841 H833 0.930 . S
C841 C839 1.419 . S
C841 C842 1.362 . S
C842 H834 0.930 . S
C842 C841 1.362 . S
C842 C845 1.409 . S
C843 H835 0.930 . S
C843 C844 1.355 . S
C843 C845 1.415 . S
C844 C843 1.355 . S
C844 C846 1.419 . S
C845 C840 1.425 . S
C845 C842 1.409 . S
C845 C843 1.415 . S
C846 H836 0.930 . S
C846 C844 1.419 . S
C846 C847 1.362 . S
C847 H837 0.930 . S
C847 C840 1.409 . S
C847 C846 1.362 . S
H848 C854 0.930 . S
H849 C857 0.930 . S
H850 C858 0.930 1_565 S
H851 C859 0.930 1_565 S
H852 C862 0.930 . S
H853 C863 0.930 . S
C854 H848 0.930 . S
C854 C855 1.355 . S
C854 C856 1.415 . S
C855 C854 1.355 . S
C855 C857 1.419 . S
C856 C854 1.415 . S
C856 C861 1.425 . S
C856 C863 1.409 . S
C857 H849 0.930 . S
C857 C855 1.419 . S
C857 C858 1.362 . S
C858 H850 0.930 1_545 S
C858 C857 1.362 . S
C858 C861 1.409 . S
C859 H851 0.930 1_545 S
C859 C860 1.355 . S
C859 C861 1.415 . S
C860 C859 1.355 . S
C860 C862 1.419 . S
C861 C856 1.425 . S
C861 C858 1.409 . S
C861 C859 1.415 . S
C862 H852 0.930 . S
C862 C860 1.419 . S
C862 C863 1.362 . S
C863 H853 0.930 . S
C863 C856 1.409 . S
C863 C862 1.362 . S
H864 C870 0.930 . S
H865 C873 0.930 . S
H866 C874 0.930 . S
H867 C875 0.930 . S
H868 C878 0.930 . S
H869 C879 0.930 . S
C870 H864 0.930 . S
C870 C871 1.355 . S
C870 C872 1.415 . S
C871 C870 1.355 . S
C871 C873 1.419 . S
C872 C870 1.415 . S
C872 C877 1.425 . S
C872 C879 1.409 . S
C873 H865 0.930 . S
C873 C871 1.419 . S
C873 C874 1.362 . S
C874 H866 0.930 . S
C874 C873 1.362 . S
C874 C877 1.409 . S
C875 H867 0.930 . S
C875 C876 1.355 . S
C875 C877 1.415 . S
C876 C875 1.355 . S
C876 C878 1.419 . S
C877 C872 1.425 . S
C877 C874 1.409 . S
C877 C875 1.415 . S
C878 H868 0.930 . S
C878 C876 1.419 . S
C878 C879 1.362 . S
C879 H869 0.930 . S
C879 C872 1.409 . S
C879 C878 1.362 . S
H880 C886 0.930 1_565 S
H881 C889 0.930 . S
H882 C890 0.930 . S
H883 C891 0.930 . S
H884 C894 0.930 1_565 S
H885 C895 0.930 1_565 S
C886 H880 0.930 1_545 S
C886 C887 1.355 . S
C886 C888 1.415 . S
C887 C886 1.355 . S
C887 C889 1.419 . S
C888 C886 1.415 . S
C888 C893 1.425 . S
C888 C895 1.409 . S
C889 H881 0.930 . S
C889 C887 1.419 . S
C889 C890 1.362 . S
C890 H882 0.930 . S
C890 C889 1.362 . S
C890 C893 1.409 . S
C891 H883 0.930 . S
C891 C892 1.355 . S
C891 C893 1.415 . S
C892 C891 1.355 . S
C892 C894 1.419 . S
C893 C888 1.425 . S
C893 C890 1.409 . S
C893 C891 1.415 . S
C894 H884 0.930 1_545 S
C894 C892 1.419 . S
C894 C895 1.362 . S
C895 H885 0.930 1_545 S
C895 C888 1.409 . S
C895 C894 1.362 . S
H896 C902 0.930 . S
H897 C905 0.930 . S
H898 C906 0.930 . S
H899 C907 0.930 . S
H900 C910 0.930 . S
H901 C911 0.930 . S
C902 H896 0.930 . S
C902 C903 1.355 . S
C902 C904 1.415 . S
C903 C902 1.355 . S
C903 C905 1.419 . S
C904 C902 1.415 . S
C904 C909 1.425 . S
C904 C911 1.409 . S
C905 H897 0.930 . S
C905 C903 1.419 . S
C905 C906 1.362 . S
C906 H898 0.930 . S
C906 C905 1.362 . S
C906 C909 1.409 . S
C907 H899 0.930 . S
C907 C908 1.355 . S
C907 C909 1.415 . S
C908 C907 1.355 . S
C908 C910 1.419 . S
C909 C904 1.425 . S
C909 C906 1.409 . S
C909 C907 1.415 . S
C910 H900 0.930 . S
C910 C908 1.419 . S
C910 C911 1.362 . S
C911 H901 0.930 . S
C911 C904 1.409 . S
C911 C910 1.362 . S
H912 C918 0.930 1_556 S
H913 C921 0.930 . S
H914 C922 0.930 . S
H915 C923 0.930 . S
H916 C926 0.930 . S
H917 C927 0.929 1_546 S
C918 H912 0.930 1_554 S
C918 C919 1.355 . S
C918 C920 1.415 . S
C919 C918 1.355 . S
C919 C921 1.419 . S
C920 C918 1.415 . S
C920 C925 1.425 . S
C920 C927 1.411 . S
C921 H913 0.930 . S
C921 C919 1.419 . S
C921 C922 1.362 . S
C922 H914 0.930 . S
C922 C921 1.362 . S
C922 C925 1.409 . S
C923 H915 0.930 . S
C923 C924 1.355 . S
C923 C925 1.415 . S
C924 C923 1.355 . S
C924 C926 1.419 1_565 S
C925 C920 1.425 . S
C925 C922 1.409 . S
C925 C923 1.415 . S
C926 H916 0.930 . S
C926 C924 1.419 1_545 S
C926 C927 1.361 1_545 S
C927 H917 0.929 1_564 S
C927 C920 1.411 . S
C927 C926 1.361 1_565 S
H928 C934 0.930 . S
H929 C937 0.930 . S
H930 C938 0.930 . S
H931 C939 0.930 . S
H932 C942 0.930 . S
H933 C943 0.930 . S
C934 H928 0.930 . S
C934 C935 1.355 . S
C934 C936 1.415 . S
C935 C934 1.355 . S
C935 C937 1.419 1_554 S
C936 C934 1.415 . S
C936 C941 1.425 1_554 S
C936 C943 1.409 . S
C937 H929 0.930 . S
C937 C935 1.419 1_556 S
C937 C938 1.362 . S
C938 H930 0.930 . S
C938 C937 1.362 . S
C938 C941 1.409 . S
C939 H931 0.930 . S
C939 C940 1.355 1_556 S
C939 C941 1.415 . S
C940 C939 1.355 1_554 S
C940 C942 1.419 . S
C941 C936 1.425 1_556 S
C941 C938 1.409 . S
C941 C939 1.415 . S
C942 H932 0.930 . S
C942 C940 1.419 . S
C942 C943 1.362 . S
C943 H933 0.930 . S
C943 C936 1.409 . S
C943 C942 1.362 . S
H944 C950 0.930 . S
H945 C953 0.930 . S
H946 C954 0.930 . S
H947 C955 0.930 . S
H948 C958 0.930 . S
H949 C959 0.930 . S
C950 H944 0.930 . S
C950 C951 1.355 . S
C950 C952 1.415 . S
C951 C950 1.355 . S
C951 C953 1.419 . S
C952 C950 1.415 . S
C952 C957 1.425 . S
C952 C959 1.409 . S
C953 H945 0.930 . S
C953 C951 1.419 . S
C953 C954 1.362 . S
C954 H946 0.930 . S
C954 C953 1.362 . S
C954 C957 1.409 . S
C955 H947 0.930 . S
C955 C956 1.355 . S
C955 C957 1.415 . S
C956 C955 1.355 . S
C956 C958 1.419 . S
C957 C952 1.425 . S
C957 C954 1.409 . S
C957 C955 1.415 . S
C958 H948 0.930 . S
C958 C956 1.419 . S
C958 C959 1.362 . S
C959 H949 0.930 . S
C959 C952 1.409 . S
C959 C958 1.362 . S
H960 C966 0.930 . S
H961 C969 0.930 . S
H962 C970 0.930 . S
H963 C971 0.930 . S
H964 C974 0.930 . S
H965 C975 0.930 . S
C966 H960 0.930 . S
C966 C967 1.355 . S
C966 C968 1.415 . S
C967 C966 1.355 . S
C967 C969 1.419 . S
C968 C966 1.415 . S
C968 C973 1.425 . S
C968 C975 1.409 . S
C969 H961 0.930 . S
C969 C967 1.419 . S
C969 C970 1.362 . S
C970 H962 0.930 . S
C970 C969 1.362 . S
C970 C973 1.409 . S
C971 H963 0.930 . S
C971 C972 1.355 . S
C971 C973 1.415 . S
C972 C971 1.355 . S
C972 C974 1.419 . S
C973 C968 1.425 . S
C973 C970 1.409 . S
C973 C971 1.415 . S
C974 H964 0.930 . S
C974 C972 1.419 . S
C974 C975 1.362 . S
C975 H965 0.930 . S
C975 C968 1.409 . S
C975 C974 1.362 . S
H976 C982 0.930 . S
H977 C985 0.930 . S
H978 C986 0.930 . S
H979 C987 0.930 . S
H980 C990 0.930 . S
H981 C991 0.930 . S
C982 H976 0.930 . S
C982 C983 1.355 . S
C982 C984 1.415 . S
C983 C982 1.355 . S
C983 C985 1.419 . S
C984 C982 1.415 . S
C984 C989 1.425 . S
C984 C991 1.409 . S
C985 H977 0.930 . S
C985 C983 1.419 . S
C985 C986 1.362 . S
C986 H978 0.930 . S
C986 C985 1.362 . S
C986 C989 1.409 . S
C987 H979 0.930 . S
C987 C988 1.355 . S
C987 C989 1.415 . S
C988 C987 1.355 . S
C988 C990 1.419 . S
C989 C984 1.425 . S
C989 C986 1.409 . S
C989 C987 1.415 . S
C990 H980 0.930 . S
C990 C988 1.419 . S
C990 C991 1.362 . S
C991 H981 0.930 . S
C991 C984 1.409 . S
C991 C990 1.362 . S
H992 C998 0.930 . S
H993 C1001 0.930 . S
H994 C1002 0.930 . S
H995 C1003 0.930 . S
H996 C1006 0.930 . S
H997 C1007 0.930 . S
C998 H992 0.930 . S
C998 C999 1.355 . S
C998 C1000 1.415 . S
C999 C998 1.355 . S
C999 C1001 1.419 . S
C1000 C998 1.415 . S
C1000 C1005 1.425 . S
C1000 C1007 1.409 . S
C1001 H993 0.930 . S
C1001 C999 1.419 . S
C1001 C1002 1.362 . S
C1002 H994 0.930 . S
C1002 C1001 1.362 . S
C1002 C1005 1.409 . S
C1003 H995 0.930 . S
C1003 C1004 1.355 . S
C1003 C1005 1.415 . S
C1004 C1003 1.355 . S
C1004 C1006 1.419 . S
C1005 C1000 1.425 . S
C1005 C1002 1.409 . S
C1005 C1003 1.415 . S
C1006 H996 0.930 . S
C1006 C1004 1.419 . S
C1006 C1007 1.362 . S
C1007 H997 0.930 . S
C1007 C1000 1.409 . S
C1007 C1006 1.362 . S
H1008 C1014 0.930 . S
H1009 C1017 0.930 . S
H1010 C1018 0.930 . S
H1011 C1019 0.930 . S
H1012 C1022 0.930 . S
H1013 C1023 0.930 . S
C1014 H1008 0.930 . S
C1014 C1015 1.355 . S
C1014 C1016 1.415 . S
C1015 C1014 1.355 . S
C1015 C1017 1.419 . S
C1016 C1014 1.415 . S
C1016 C1021 1.425 . S
C1016 C1023 1.409 . S
C1017 H1009 0.930 . S
C1017 C1015 1.419 . S
C1017 C1018 1.362 . S
C1018 H1010 0.930 . S
C1018 C1017 1.362 . S
C1018 C1021 1.409 . S
C1019 H1011 0.930 . S
C1019 C1020 1.355 . S
C1019 C1021 1.415 . S
C1020 C1019 1.355 . S
C1020 C1022 1.419 . S
C1021 C1016 1.425 . S
C1021 C1018 1.409 . S
C1021 C1019 1.415 . S
C1022 H1012 0.930 . S
C1022 C1020 1.419 . S
C1022 C1023 1.362 . S
C1023 H1013 0.930 . S
C1023 C1016 1.409 . S
C1023 C1022 1.362 . S
H1024 C1030 0.930 . S
H1025 C1033 0.930 . S
H1026 C1034 0.930 . S
H1027 C1035 0.930 . S
H1028 C1038 0.930 . S
H1029 C1039 0.930 . S
C1030 H1024 0.930 . S
C1030 C1031 1.355 . S
C1030 C1032 1.415 . S
C1031 C1030 1.355 . S
C1031 C1033 1.419 . S
C1032 C1030 1.415 . S
C1032 C1037 1.425 . S
C1032 C1039 1.409 . S
C1033 H1025 0.930 . S
C1033 C1031 1.419 . S
C1033 C1034 1.362 . S
C1034 H1026 0.930 . S
C1034 C1033 1.362 . S
C1034 C1037 1.409 . S
C1035 H1027 0.930 . S
C1035 C1036 1.355 . S
C1035 C1037 1.415 . S
C1036 C1035 1.355 . S
C1036 C1038 1.419 . S
C1037 C1032 1.425 . S
C1037 C1034 1.409 . S
C1037 C1035 1.415 . S
C1038 H1028 0.930 . S
C1038 C1036 1.419 . S
C1038 C1039 1.362 . S
C1039 H1029 0.930 . S
C1039 C1032 1.409 . S
C1039 C1038 1.362 . S
H1040 C1046 0.930 . S
H1041 C1049 0.930 . S
H1042 C1050 0.930 . S
H1043 C1051 0.930 . S
H1044 C1054 0.930 1_556 S
H1045 C1055 0.930 1_556 S
C1046 H1040 0.930 . S
C1046 C1047 1.355 . S
C1046 C1048 1.415 . S
C1047 C1046 1.355 . S
C1047 C1049 1.419 . S
C1048 C1046 1.415 . S
C1048 C1053 1.425 . S
C1048 C1055 1.409 . S
C1049 H1041 0.930 . S
C1049 C1047 1.419 . S
C1049 C1050 1.362 . S
C1050 H1042 0.930 . S
C1050 C1049 1.362 . S
C1050 C1053 1.409 . S
C1051 H1043 0.930 . S
C1051 C1052 1.355 . S
C1051 C1053 1.415 . S
C1052 C1051 1.355 . S
C1052 C1054 1.419 . S
C1053 C1048 1.425 . S
C1053 C1050 1.409 . S
C1053 C1051 1.415 . S
C1054 H1044 0.930 1_554 S
C1054 C1052 1.419 . S
C1054 C1055 1.362 . S
C1055 H1045 0.930 1_554 S
C1055 C1048 1.409 . S
C1055 C1054 1.362 . S
H1056 C1062 0.930 . S
H1057 C1065 0.930 . S
H1058 C1066 0.930 . S
H1059 C1067 0.930 . S
H1060 C1070 0.930 . S
H1061 C1071 0.930 . S
C1062 H1056 0.930 . S
C1062 C1063 1.355 . S
C1062 C1064 1.415 . S
C1063 C1062 1.355 . S
C1063 C1065 1.419 . S
C1064 C1062 1.415 . S
C1064 C1069 1.425 . S
C1064 C1071 1.409 . S
C1065 H1057 0.930 . S
C1065 C1063 1.419 . S
C1065 C1066 1.362 . S
C1066 H1058 0.930 . S
C1066 C1065 1.362 . S
C1066 C1069 1.409 . S
C1067 H1059 0.930 . S
C1067 C1068 1.355 . S
C1067 C1069 1.415 . S
C1068 C1067 1.355 . S
C1068 C1070 1.419 . S
C1069 C1064 1.425 . S
C1069 C1066 1.409 . S
C1069 C1067 1.415 . S
C1070 H1060 0.930 . S
C1070 C1068 1.419 . S
C1070 C1071 1.362 . S
C1071 H1061 0.930 . S
C1071 C1064 1.409 . S
C1071 C1070 1.362 . S
H1072 C1078 0.930 . S
H1073 C1081 0.930 . S
H1074 C1082 0.930 . S
H1075 C1083 0.930 . S
H1076 C1086 0.930 . S
H1077 C1087 0.930 . S
C1078 H1072 0.930 . S
C1078 C1079 1.355 . S
C1078 C1080 1.415 . S
C1079 C1078 1.355 . S
C1079 C1081 1.419 . S
C1080 C1078 1.415 . S
C1080 C1085 1.425 . S
C1080 C1087 1.409 . S
C1081 H1073 0.930 . S
C1081 C1079 1.419 . S
C1081 C1082 1.362 . S
C1082 H1074 0.930 . S
C1082 C1081 1.362 . S
C1082 C1085 1.409 . S
C1083 H1075 0.930 . S
C1083 C1084 1.355 . S
C1083 C1085 1.415 . S
C1084 C1083 1.355 . S
C1084 C1086 1.419 . S
C1085 C1080 1.425 . S
C1085 C1082 1.409 . S
C1085 C1083 1.415 . S
C1086 H1076 0.930 . S
C1086 C1084 1.419 . S
C1086 C1087 1.362 . S
C1087 H1077 0.930 . S
C1087 C1080 1.409 . S
C1087 C1086 1.362 . S
H1088 C1094 0.930 . S
H1089 C1097 0.930 . S
H1090 C1098 0.930 . S
H1091 C1099 0.930 . S
H1092 C1102 0.930 . S
H1093 C1103 0.930 . S
C1094 H1088 0.930 . S
C1094 C1095 1.355 . S
C1094 C1096 1.415 . S
C1095 C1094 1.355 . S
C1095 C1097 1.419 . S
C1096 C1094 1.415 . S
C1096 C1101 1.425 . S
C1096 C1103 1.409 . S
C1097 H1089 0.930 . S
C1097 C1095 1.419 . S
C1097 C1098 1.362 . S
C1098 H1090 0.930 . S
C1098 C1097 1.362 . S
C1098 C1101 1.409 . S
C1099 H1091 0.930 . S
C1099 C1100 1.355 . S
C1099 C1101 1.415 . S
C1100 C1099 1.355 . S
C1100 C1102 1.419 . S
C1101 C1096 1.425 . S
C1101 C1098 1.409 . S
C1101 C1099 1.415 . S
C1102 H1092 0.930 . S
C1102 C1100 1.419 . S
C1102 C1103 1.362 . S
C1103 H1093 0.930 . S
C1103 C1096 1.409 . S
C1103 C1102 1.362 . S
H1104 C1110 0.930 . S
H1105 C1113 0.930 . S
H1106 C1114 0.930 . S
H1107 C1115 0.930 . S
H1108 C1118 0.930 . S
H1109 C1119 0.930 . S
C1110 H1104 0.930 . S
C1110 C1111 1.355 . S
C1110 C1112 1.415 . S
C1111 C1110 1.355 . S
C1111 C1113 1.419 1_455 S
C1112 C1110 1.415 . S
C1112 C1117 1.425 1_455 S
C1112 C1119 1.409 . S
C1113 H1105 0.930 . S
C1113 C1111 1.419 1_655 S
C1113 C1114 1.362 . S
C1114 H1106 0.930 . S
C1114 C1113 1.362 . S
C1114 C1117 1.409 . S
C1115 H1107 0.930 . S
C1115 C1116 1.367 . S
C1115 C1117 1.415 . S
C1116 C1115 1.367 . S
C1116 C1118 1.404 1_655 S
C1117 C1112 1.425 1_655 S
C1117 C1114 1.409 . S
C1117 C1115 1.415 . S
C1118 H1108 0.930 . S
C1118 C1116 1.404 1_455 S
C1118 C1119 1.362 . S
C1119 H1109 0.930 . S
C1119 C1112 1.409 . S
C1119 C1118 1.362 . S
H1120 C1126 0.930 . S
H1121 C1129 0.930 . S
H1122 C1130 0.930 . S
H1123 C1131 0.930 . S
H1124 C1134 0.930 . S
H1125 C1135 0.930 . S
C1126 H1120 0.930 . S
C1126 C1127 1.355 . S
C1126 C1128 1.415 . S
C1127 C1126 1.355 . S
C1127 C1129 1.419 . S
C1128 C1126 1.415 . S
C1128 C1133 1.425 . S
C1128 C1135 1.409 . S
C1129 H1121 0.930 . S
C1129 C1127 1.419 . S
C1129 C1130 1.362 . S
C1130 H1122 0.930 . S
C1130 C1129 1.362 . S
C1130 C1133 1.409 . S
C1131 H1123 0.930 . S
C1131 C1132 1.355 . S
C1131 C1133 1.415 . S
C1132 C1131 1.355 . S
C1132 C1134 1.419 . S
C1133 C1128 1.425 . S
C1133 C1130 1.409 . S
C1133 C1131 1.415 . S
C1134 H1124 0.930 . S
C1134 C1132 1.419 . S
C1134 C1135 1.362 . S
C1135 H1125 0.930 . S
C1135 C1128 1.409 . S
C1135 C1134 1.362 . S
H1136 C1142 0.930 . S
H1137 C1145 0.930 . S
H1138 C1146 0.930 . S
H1139 C1147 0.930 . S
H1140 C1150 0.930 1_554 S
H1141 C1151 0.930 . S
C1142 H1136 0.930 . S
C1142 C1143 1.355 . S
C1142 C1144 1.415 . S
C1143 C1142 1.355 . S
C1143 C1145 1.419 . S
C1144 C1142 1.415 . S
C1144 C1149 1.425 . S
C1144 C1151 1.409 . S
C1145 H1137 0.930 . S
C1145 C1143 1.419 . S
C1145 C1146 1.362 . S
C1146 H1138 0.930 . S
C1146 C1145 1.362 . S
C1146 C1149 1.409 . S
C1147 H1139 0.930 . S
C1147 C1148 1.355 . S
C1147 C1149 1.415 . S
C1148 C1147 1.355 . S
C1148 C1150 1.419 . S
C1149 C1144 1.425 . S
C1149 C1146 1.409 . S
C1149 C1147 1.415 . S
C1150 H1140 0.930 1_556 S
C1150 C1148 1.419 . S
C1150 C1151 1.362 . S
C1151 H1141 0.930 . S
C1151 C1144 1.409 . S
C1151 C1150 1.362 . S
H1152 C1158 0.930 . S
H1153 C1161 0.930 . S
H1154 C1162 0.930 . S
H1155 C1163 0.930 . S
H1156 C1166 0.930 . S
H1157 C1167 0.930 . S
C1158 H1152 0.930 . S
C1158 C1159 1.355 . S
C1158 C1160 1.415 . S
C1159 C1158 1.355 . S
C1159 C1161 1.419 . S
C1160 C1158 1.415 . S
C1160 C1165 1.425 . S
C1160 C1167 1.409 . S
C1161 H1153 0.930 . S
C1161 C1159 1.419 . S
C1161 C1162 1.362 . S
C1162 H1154 0.930 . S
C1162 C1161 1.362 . S
C1162 C1165 1.409 . S
C1163 H1155 0.930 . S
C1163 C1164 1.355 . S
C1163 C1165 1.415 . S
C1164 C1163 1.355 . S
C1164 C1166 1.419 . S
C1165 C1160 1.425 . S
C1165 C1162 1.409 . S
C1165 C1163 1.415 . S
C1166 H1156 0.930 . S
C1166 C1164 1.419 . S
C1166 C1167 1.362 . S
C1167 H1157 0.930 . S
C1167 C1160 1.409 . S
C1167 C1166 1.362 . S
H1168 C1174 0.930 . S
H1169 C1177 0.930 . S
H1170 C1178 0.930 . S
H1171 C1179 0.930 . S
H1172 C1182 0.930 . S
H1173 C1183 0.930 . S
C1174 H1168 0.930 . S
C1174 C1175 1.355 . S
C1174 C1176 1.415 . S
C1175 C1174 1.355 . S
C1175 C1177 1.419 1_545 S
C1176 C1174 1.415 . S
C1176 C1181 1.425 1_545 S
C1176 C1183 1.409 . S
C1177 H1169 0.930 . S
C1177 C1175 1.419 1_565 S
C1177 C1178 1.362 . S
C1178 H1170 0.930 . S
C1178 C1177 1.362 . S
C1178 C1181 1.409 . S
C1179 H1171 0.930 . S
C1179 C1180 1.355 1_565 S
C1179 C1181 1.415 . S
C1180 C1179 1.355 1_545 S
C1180 C1182 1.419 . S
C1181 C1176 1.425 1_565 S
C1181 C1178 1.409 . S
C1181 C1179 1.415 . S
C1182 H1172 0.930 . S
C1182 C1180 1.419 . S
C1182 C1183 1.362 . S
C1183 H1173 0.930 . S
C1183 C1176 1.409 . S
C1183 C1182 1.362 . S
H1184 C1190 0.930 . S
H1185 C1193 0.930 . S
H1186 C1194 0.930 . S
H1187 C1195 0.930 . S
H1188 C1198 0.930 . S
H1189 C1199 0.930 . S
C1190 H1184 0.930 . S
C1190 C1191 1.355 . S
C1190 C1192 1.415 . S
C1191 C1190 1.355 . S
C1191 C1193 1.419 . S
C1192 C1190 1.415 . S
C1192 C1197 1.425 . S
C1192 C1199 1.409 . S
C1193 H1185 0.930 . S
C1193 C1191 1.419 . S
C1193 C1194 1.362 . S
C1194 H1186 0.930 . S
C1194 C1193 1.362 . S
C1194 C1197 1.409 . S
C1195 H1187 0.930 . S
C1195 C1196 1.355 . S
C1195 C1197 1.415 . S
C1196 C1195 1.355 . S
C1196 C1198 1.419 . S
C1197 C1192 1.425 . S
C1197 C1194 1.409 . S
C1197 C1195 1.415 . S
C1198 H1188 0.930 . S
C1198 C1196 1.419 . S
C1198 C1199 1.362 . S
C1199 H1189 0.930 . S
C1199 C1192 1.409 . S
C1199 C1198 1.362 . S
H1200 C1206 0.930 . S
H1201 C1209 0.930 . S
H1202 C1210 0.930 . S
H1203 C1211 0.930 . S
H1204 C1214 0.930 . S
H1205 C1215 0.930 . S
C1206 H1200 0.930 . S
C1206 C1207 1.355 . S
C1206 C1208 1.415 . S
C1207 C1206 1.355 . S
C1207 C1209 1.419 . S
C1208 C1206 1.415 . S
C1208 C1213 1.425 . S
C1208 C1215 1.409 . S
C1209 H1201 0.930 . S
C1209 C1207 1.419 . S
C1209 C1210 1.362 . S
C1210 H1202 0.930 . S
C1210 C1209 1.362 . S
C1210 C1213 1.409 . S
C1211 H1203 0.930 . S
C1211 C1212 1.355 . S
C1211 C1213 1.415 . S
C1212 C1211 1.355 . S
C1212 C1214 1.419 . S
C1213 C1208 1.425 . S
C1213 C1210 1.409 . S
C1213 C1211 1.415 . S
C1214 H1204 0.930 . S
C1214 C1212 1.419 . S
C1214 C1215 1.362 . S
C1215 H1205 0.930 . S
C1215 C1208 1.409 . S
C1215 C1214 1.362 . S
H1216 C1222 0.930 . S
H1217 C1225 0.930 . S
H1218 C1226 0.930 . S
H1219 C1227 0.930 . S
H1220 C1230 0.930 . S
H1221 C1231 0.930 . S
C1222 H1216 0.930 . S
C1222 C1223 1.355 . S
C1222 C1224 1.415 . S
C1223 C1222 1.355 . S
C1223 C1225 1.419 . S
C1224 C1222 1.415 . S
C1224 C1229 1.425 . S
C1224 C1231 1.409 . S
C1225 H1217 0.930 . S
C1225 C1223 1.419 . S
C1225 C1226 1.362 . S
C1226 H1218 0.930 . S
C1226 C1225 1.362 . S
C1226 C1229 1.409 . S
C1227 H1219 0.930 . S
C1227 C1228 1.355 . S
C1227 C1229 1.415 . S
C1228 C1227 1.355 . S
C1228 C1230 1.419 . S
C1229 C1224 1.425 . S
C1229 C1226 1.409 . S
C1229 C1227 1.415 . S
C1230 H1220 0.930 . S
C1230 C1228 1.419 . S
C1230 C1231 1.362 . S
C1231 H1221 0.930 . S
C1231 C1224 1.409 . S
C1231 C1230 1.362 . S
H1232 C1238 0.930 . S
H1233 C1241 0.930 . S
H1234 C1242 0.930 . S
H1235 C1243 0.930 . S
H1236 C1246 0.930 1_565 S
H1237 C1247 0.930 . S
C1238 H1232 0.930 . S
C1238 C1239 1.355 . S
C1238 C1240 1.413 1_565 S
C1239 C1238 1.355 . S
C1239 C1241 1.419 1_565 S
C1240 C1238 1.413 1_545 S
C1240 C1245 1.427 . S
C1240 C1247 1.409 1_545 S
C1241 H1233 0.930 . S
C1241 C1239 1.419 1_545 S
C1241 C1242 1.362 . S
C1242 H1234 0.930 . S
C1242 C1241 1.362 . S
C1242 C1245 1.409 . S
C1243 H1235 0.930 . S
C1243 C1244 1.355 . S
C1243 C1245 1.415 . S
C1244 C1243 1.355 . S
C1244 C1246 1.419 . S
C1245 C1240 1.427 . S
C1245 C1242 1.409 . S
C1245 C1243 1.415 . S
C1246 H1236 0.930 1_545 S
C1246 C1244 1.419 . S
C1246 C1247 1.362 1_545 S
C1247 H1237 0.930 . S
C1247 C1240 1.409 1_565 S
C1247 C1246 1.362 1_565 S
H1248 C1254 0.930 . S
H1249 C1257 0.930 . S
H1250 C1258 0.930 . S
H1251 C1259 0.930 . S
H1252 C1262 0.930 . S
H1253 C1263 0.930 . S
C1254 H1248 0.930 . S
C1254 C1255 1.355 . S
C1254 C1256 1.415 . S
C1255 C1254 1.355 . S
C1255 C1257 1.419 . S
C1256 C1254 1.415 . S
C1256 C1261 1.425 . S
C1256 C1263 1.409 . S
C1257 H1249 0.930 . S
C1257 C1255 1.419 . S
C1257 C1258 1.362 . S
C1258 H1250 0.930 . S
C1258 C1257 1.362 . S
C1258 C1261 1.409 . S
C1259 H1251 0.930 . S
C1259 C1260 1.355 . S
C1259 C1261 1.415 . S
C1260 C1259 1.355 . S
C1260 C1262 1.419 . S
C1261 C1256 1.425 . S
C1261 C1258 1.409 . S
C1261 C1259 1.415 . S
C1262 H1252 0.930 . S
C1262 C1260 1.419 . S
C1262 C1263 1.362 . S
C1263 H1253 0.930 . S
C1263 C1256 1.409 . S
C1263 C1262 1.362 . S
H1264 C1270 0.930 . S
H1265 C1273 0.930 . S
H1266 C1274 0.930 . S
H1267 C1275 0.930 . S
H1268 C1278 0.930 . S
H1269 C1279 0.930 . S
C1270 H1264 0.930 . S
C1270 C1271 1.355 . S
C1270 C1272 1.415 . S
C1271 C1270 1.355 . S
C1271 C1273 1.419 1_545 S
C1272 C1270 1.415 . S
C1272 C1277 1.425 1_545 S
C1272 C1279 1.409 . S
C1273 H1265 0.930 . S
C1273 C1271 1.419 1_565 S
C1273 C1274 1.362 . S
C1274 H1266 0.930 . S
C1274 C1273 1.362 . S
C1274 C1277 1.409 . S
C1275 H1267 0.930 . S
C1275 C1276 1.355 . S
C1275 C1277 1.415 . S
C1276 C1275 1.355 . S
C1276 C1278 1.419 1_565 S
C1277 C1272 1.425 1_565 S
C1277 C1274 1.409 . S
C1277 C1275 1.415 . S
C1278 H1268 0.930 . S
C1278 C1276 1.419 1_545 S
C1278 C1279 1.362 . S
C1279 H1269 0.930 . S
C1279 C1272 1.409 . S
C1279 C1278 1.362 . S
H1280 C1286 0.930 . S
H1281 C1289 0.930 . S
H1282 C1290 0.930 . S
H1283 C1291 0.930 . S
H1284 C1294 0.930 . S
H1285 C1295 0.930 . S
C1286 H1280 0.930 . S
C1286 C1287 1.355 . S
C1286 C1288 1.415 . S
C1287 C1286 1.355 . S
C1287 C1289 1.419 . S
C1288 C1286 1.415 . S
C1288 C1293 1.425 . S
C1288 C1295 1.409 . S
C1289 H1281 0.930 . S
C1289 C1287 1.419 . S
C1289 C1290 1.362 . S
C1290 H1282 0.930 . S
C1290 C1289 1.362 . S
C1290 C1293 1.409 . S
C1291 H1283 0.930 . S
C1291 C1292 1.355 . S
C1291 C1293 1.415 . S
C1292 C1291 1.355 . S
C1292 C1294 1.419 . S
C1293 C1288 1.425 . S
C1293 C1290 1.409 . S
C1293 C1291 1.415 . S
C1294 H1284 0.930 . S
C1294 C1292 1.419 . S
C1294 C1295 1.362 . S
C1295 H1285 0.930 . S
C1295 C1288 1.409 . S
C1295 C1294 1.362 . S
H1296 C1302 0.930 . S
H1297 C1305 0.930 . S
H1298 C1306 0.930 . S
H1299 C1307 0.930 . S
H1300 C1310 0.930 . S
H1301 C1311 0.930 . S
C1302 H1296 0.930 . S
C1302 C1303 1.355 1_554 S
C1302 C1304 1.411 1_554 S
C1303 C1302 1.355 1_556 S
C1303 C1305 1.419 . S
C1304 C1302 1.411 1_556 S
C1304 C1309 1.435 . S
C1304 C1311 1.404 1_556 S
C1305 H1297 0.930 . S
C1305 C1303 1.419 . S
C1305 C1306 1.362 . S
C1306 H1298 0.930 . S
C1306 C1305 1.362 . S
C1306 C1309 1.409 . S
C1307 H1299 0.930 . S
C1307 C1308 1.355 . S
C1307 C1309 1.415 . S
C1308 C1307 1.355 . S
C1308 C1310 1.419 1_556 S
C1309 C1304 1.435 . S
C1309 C1306 1.409 . S
C1309 C1307 1.415 . S
C1310 H1300 0.930 . S
C1310 C1308 1.419 1_554 S
C1310 C1311 1.362 . S
C1311 H1301 0.930 . S
C1311 C1304 1.404 1_554 S
C1311 C1310 1.362 . S
H1312 C1318 0.930 . S
H1313 C1321 0.930 . S
H1314 C1322 0.930 . S
H1315 C1323 0.930 . S
H1316 C1326 0.930 . S
H1317 C1327 0.930 . S
C1318 H1312 0.930 . S
C1318 C1319 1.355 . S
C1318 C1320 1.415 . S
C1319 C1318 1.355 . S
C1319 C1321 1.419 1_554 S
C1320 C1318 1.415 . S
C1320 C1325 1.425 . S
C1320 C1327 1.409 . S
C1321 H1313 0.930 . S
C1321 C1319 1.419 1_556 S
C1321 C1322 1.362 . S
C1322 H1314 0.930 . S
C1322 C1321 1.362 . S
C1322 C1325 1.409 1_556 S
C1323 H1315 0.930 . S
C1323 C1324 1.355 1_556 S
C1323 C1325 1.415 1_556 S
C1324 C1323 1.355 1_554 S
C1324 C1326 1.419 . S
C1325 C1320 1.425 . S
C1325 C1322 1.409 1_554 S
C1325 C1323 1.415 1_554 S
C1326 H1316 0.930 . S
C1326 C1324 1.419 . S
C1326 C1327 1.362 . S
C1327 H1317 0.930 . S
C1327 C1320 1.409 . S
C1327 C1326 1.362 . S
H1328 C1334 0.930 . S
H1329 C1337 0.930 . S
H1330 C1338 0.930 . S
H1331 C1339 0.930 . S
H1332 C1342 0.930 . S
H1333 C1343 0.930 . S
C1334 H1328 0.930 . S
C1334 C1335 1.355 . S
C1334 C1336 1.415 . S
C1335 C1334 1.355 . S
C1335 C1337 1.419 . S
C1336 C1334 1.415 . S
C1336 C1341 1.425 . S
C1336 C1343 1.409 . S
C1337 H1329 0.930 . S
C1337 C1335 1.419 . S
C1337 C1338 1.362 . S
C1338 H1330 0.930 . S
C1338 C1337 1.362 . S
C1338 C1341 1.409 . S
C1339 H1331 0.930 . S
C1339 C1340 1.355 . S
C1339 C1341 1.415 . S
C1340 C1339 1.355 . S
C1340 C1342 1.419 . S
C1341 C1336 1.425 . S
C1341 C1338 1.409 . S
C1341 C1339 1.415 . S
C1342 H1332 0.930 . S
C1342 C1340 1.419 . S
C1342 C1343 1.362 . S
C1343 H1333 0.930 . S
C1343 C1336 1.409 . S
C1343 C1342 1.362 . S
H1344 C1350 0.930 . S
H1345 C1353 0.930 . S
H1346 C1354 0.930 . S
H1347 C1355 0.930 . S
H1348 C1358 0.930 . S
H1349 C1359 0.930 . S
C1350 H1344 0.930 . S
C1350 C1351 1.355 . S
C1350 C1352 1.415 . S
C1351 C1350 1.355 . S
C1351 C1353 1.419 . S
C1352 C1350 1.415 . S
C1352 C1357 1.425 . S
C1352 C1359 1.409 . S
C1353 H1345 0.930 . S
C1353 C1351 1.419 . S
C1353 C1354 1.362 . S
C1354 H1346 0.930 . S
C1354 C1353 1.362 . S
C1354 C1357 1.409 . S
C1355 H1347 0.930 . S
C1355 C1356 1.355 . S
C1355 C1357 1.415 . S
C1356 C1355 1.355 . S
C1356 C1358 1.419 . S
C1357 C1352 1.425 . S
C1357 C1354 1.409 . S
C1357 C1355 1.415 . S
C1358 H1348 0.930 . S
C1358 C1356 1.419 . S
C1358 C1359 1.362 . S
C1359 H1349 0.930 . S
C1359 C1352 1.409 . S
C1359 C1358 1.362 . S
H1360 C1366 0.930 . S
H1361 C1369 0.930 . S
H1362 C1370 0.930 . S
H1363 C1371 0.930 . S
H1364 C1374 0.930 . S
H1365 C1375 0.930 . S
C1366 H1360 0.930 . S
C1366 C1367 1.355 . S
C1366 C1368 1.415 . S
C1367 C1366 1.355 . S
C1367 C1369 1.419 . S
C1368 C1366 1.415 . S
C1368 C1373 1.425 . S
C1368 C1375 1.409 . S
C1369 H1361 0.930 . S
C1369 C1367 1.419 . S
C1369 C1370 1.362 . S
C1370 H1362 0.930 . S
C1370 C1369 1.362 . S
C1370 C1373 1.409 . S
C1371 H1363 0.930 . S
C1371 C1372 1.355 . S
C1371 C1373 1.415 . S
C1372 C1371 1.355 . S
C1372 C1374 1.419 . S
C1373 C1368 1.425 . S
C1373 C1370 1.409 . S
C1373 C1371 1.415 . S
C1374 H1364 0.930 . S
C1374 C1372 1.419 . S
C1374 C1375 1.362 . S
C1375 H1365 0.930 . S
C1375 C1368 1.409 . S
C1375 C1374 1.362 . S
H1376 C1382 0.930 . S
H1377 C1385 0.930 . S
H1378 C1386 0.930 . S
H1379 C1387 0.930 . S
H1380 C1390 0.930 1_545 S
H1381 C1391 0.930 . S
C1382 H1376 0.930 . S
C1382 C1383 1.355 . S
C1382 C1384 1.415 . S
C1383 C1382 1.355 . S
C1383 C1385 1.419 . S
C1384 C1382 1.415 . S
C1384 C1389 1.425 . S
C1384 C1391 1.409 . S
C1385 H1377 0.930 . S
C1385 C1383 1.419 . S
C1385 C1386 1.362 . S
C1386 H1378 0.930 . S
C1386 C1385 1.362 . S
C1386 C1389 1.409 . S
C1387 H1379 0.930 . S
C1387 C1388 1.355 . S
C1387 C1389 1.415 . S
C1388 C1387 1.355 . S
C1388 C1390 1.419 . S
C1389 C1384 1.425 . S
C1389 C1386 1.409 . S
C1389 C1387 1.415 . S
C1390 H1380 0.930 1_565 S
C1390 C1388 1.419 . S
C1390 C1391 1.362 . S
C1391 H1381 0.930 . S
C1391 C1384 1.409 . S
C1391 C1390 1.362 . S
H1392 C1398 0.930 . S
H1393 C1401 0.930 . S
H1394 C1402 0.930 . S
H1395 C1403 0.930 . S
H1396 C1406 0.930 . S
H1397 C1407 0.930 . S
C1398 H1392 0.930 . S
C1398 C1399 1.355 . S
C1398 C1400 1.415 . S
C1399 C1398 1.355 . S
C1399 C1401 1.419 . S
C1400 C1398 1.415 . S
C1400 C1405 1.425 . S
C1400 C1407 1.409 . S
C1401 H1393 0.930 . S
C1401 C1399 1.419 . S
C1401 C1402 1.362 . S
C1402 H1394 0.930 . S
C1402 C1401 1.362 . S
C1402 C1405 1.409 . S
C1403 H1395 0.930 . S
C1403 C1404 1.355 . S
C1403 C1405 1.415 . S
C1404 C1403 1.355 . S
C1404 C1406 1.419 . S
C1405 C1400 1.425 . S
C1405 C1402 1.409 . S
C1405 C1403 1.415 . S
C1406 H1396 0.930 . S
C1406 C1404 1.419 . S
C1406 C1407 1.362 . S
C1407 H1397 0.930 . S
C1407 C1400 1.409 . S
C1407 C1406 1.362 . S
H1408 C1414 0.930 . S
H1409 C1417 0.930 . S
H1410 C1418 0.930 . S
H1411 C1419 0.930 . S
H1412 C1422 0.930 . S
H1413 C1423 0.930 . S
C1414 H1408 0.930 . S
C1414 C1415 1.355 . S
C1414 C1416 1.415 . S
C1415 C1414 1.355 . S
C1415 C1417 1.419 . S
C1416 C1414 1.415 . S
C1416 C1421 1.425 . S
C1416 C1423 1.409 . S
C1417 H1409 0.930 . S
C1417 C1415 1.419 . S
C1417 C1418 1.362 . S
C1418 H1410 0.930 . S
C1418 C1417 1.362 . S
C1418 C1421 1.409 . S
C1419 H1411 0.930 . S
C1419 C1420 1.355 . S
C1419 C1421 1.415 . S
C1420 C1419 1.355 . S
C1420 C1422 1.419 . S
C1421 C1416 1.425 . S
C1421 C1418 1.409 . S
C1421 C1419 1.415 . S
C1422 H1412 0.930 . S
C1422 C1420 1.419 . S
C1422 C1423 1.362 . S
C1423 H1413 0.930 . S
C1423 C1416 1.409 . S
C1423 C1422 1.362 . S
H1424 C1430 0.930 . S
H1425 C1433 0.930 . S
H1426 C1434 0.930 . S
H1427 C1435 0.930 . S
H1428 C1438 0.930 . S
H1429 C1439 0.930 . S
C1430 H1424 0.930 . S
C1430 C1431 1.355 . S
C1430 C1432 1.415 . S
C1431 C1430 1.355 . S
C1431 C1433 1.419 . S
C1432 C1430 1.415 . S
C1432 C1437 1.425 . S
C1432 C1439 1.409 . S
C1433 H1425 0.930 . S
C1433 C1431 1.419 . S
C1433 C1434 1.362 . S
C1434 H1426 0.930 . S
C1434 C1433 1.362 . S
C1434 C1437 1.409 . S
C1435 H1427 0.930 . S
C1435 C1436 1.355 . S
C1435 C1437 1.415 . S
C1436 C1435 1.355 . S
C1436 C1438 1.419 . S
C1437 C1432 1.425 . S
C1437 C1434 1.409 . S
C1437 C1435 1.415 . S
C1438 H1428 0.930 . S
C1438 C1436 1.419 . S
C1438 C1439 1.362 . S
C1439 H1429 0.930 . S
C1439 C1432 1.409 . S
C1439 C1438 1.362 . S
H1440 C1446 0.930 . S
H1441 C1449 0.930 . S
H1442 C1450 0.930 . S
H1443 C1451 0.930 . S
H1444 C1454 0.930 . S
H1445 C1455 0.930 . S
C1446 H1440 0.930 . S
C1446 C1447 1.355 . S
C1446 C1448 1.415 . S
C1447 C1446 1.355 . S
C1447 C1449 1.419 . S
C1448 C1446 1.415 . S
C1448 C1453 1.425 . S
C1448 C1455 1.409 . S
C1449 H1441 0.930 . S
C1449 C1447 1.419 . S
C1449 C1450 1.362 . S
C1450 H1442 0.930 . S
C1450 C1449 1.362 . S
C1450 C1453 1.409 . S
C1451 H1443 0.930 . S
C1451 C1452 1.355 . S
C1451 C1453 1.415 . S
C1452 C1451 1.355 . S
C1452 C1454 1.419 . S
C1453 C1448 1.425 . S
C1453 C1450 1.409 . S
C1453 C1451 1.415 . S
C1454 H1444 0.930 . S
C1454 C1452 1.419 . S
C1454 C1455 1.362 . S
C1455 H1445 0.930 . S
C1455 C1448 1.409 . S
C1455 C1454 1.362 . S
H1456 C1462 0.930 . S
H1457 C1465 0.930 . S
H1458 C1466 0.930 . S
H1459 C1467 0.930 . S
H1460 C1470 0.930 1_554 S
H1461 C1471 0.930 . S
C1462 H1456 0.930 . S
C1462 C1463 1.355 1_655 S
C1462 C1464 1.415 . S
C1463 C1462 1.355 1_455 S
C1463 C1465 1.419 . S
C1464 C1462 1.415 . S
C1464 C1469 1.425 1_655 S
C1464 C1471 1.409 . S
C1465 H1457 0.930 . S
C1465 C1463 1.419 . S
C1465 C1466 1.362 . S
C1466 H1458 0.930 . S
C1466 C1465 1.362 . S
C1466 C1469 1.409 . S
C1467 H1459 0.930 . S
C1467 C1468 1.355 . S
C1467 C1469 1.415 . S
C1468 C1467 1.355 . S
C1468 C1470 1.419 1_455 S
C1469 C1464 1.425 1_455 S
C1469 C1466 1.409 . S
C1469 C1467 1.415 . S
C1470 H1460 0.930 1_556 S
C1470 C1468 1.419 1_655 S
C1470 C1471 1.362 . S
C1471 H1461 0.930 . S
C1471 C1464 1.409 . S
C1471 C1470 1.362 . S
H1472 C1478 0.930 . S
H1473 C1481 0.930 . S
H1474 C1482 0.930 . S
H1475 C1483 0.930 . S
H1476 C1486 0.930 . S
H1477 C1487 0.930 . S
C1478 H1472 0.930 . S
C1478 C1479 1.355 . S
C1478 C1480 1.415 . S
C1479 C1478 1.355 . S
C1479 C1481 1.419 . S
C1480 C1478 1.415 . S
C1480 C1485 1.425 . S
C1480 C1487 1.409 . S
C1481 H1473 0.930 . S
C1481 C1479 1.419 . S
C1481 C1482 1.362 . S
C1482 H1474 0.930 . S
C1482 C1481 1.362 . S
C1482 C1485 1.409 . S
C1483 H1475 0.930 . S
C1483 C1484 1.355 . S
C1483 C1485 1.415 . S
C1484 C1483 1.355 . S
C1484 C1486 1.419 . S
C1485 C1480 1.425 . S
C1485 C1482 1.409 . S
C1485 C1483 1.415 . S
C1486 H1476 0.930 . S
C1486 C1484 1.419 . S
C1486 C1487 1.362 . S
C1487 H1477 0.930 . S
C1487 C1480 1.409 . S
C1487 C1486 1.362 . S
H1488 C1494 0.930 . S
H1489 C1497 0.930 . S
H1490 C1498 0.930 . S
H1491 C1499 0.930 . S
H1492 C1502 0.930 . S
H1493 C1503 0.930 . S
C1494 H1488 0.930 . S
C1494 C1495 1.355 . S
C1494 C1496 1.415 . S
C1495 C1494 1.355 . S
C1495 C1497 1.419 . S
C1496 C1494 1.415 . S
C1496 C1501 1.425 . S
C1496 C1503 1.409 . S
C1497 H1489 0.930 . S
C1497 C1495 1.419 . S
C1497 C1498 1.362 . S
C1498 H1490 0.930 . S
C1498 C1497 1.362 . S
C1498 C1501 1.409 . S
C1499 H1491 0.930 . S
C1499 C1500 1.355 . S
C1499 C1501 1.415 . S
C1500 C1499 1.355 . S
C1500 C1502 1.419 . S
C1501 C1496 1.425 . S
C1501 C1498 1.409 . S
C1501 C1499 1.415 . S
C1502 H1492 0.930 . S
C1502 C1500 1.419 . S
C1502 C1503 1.362 . S
C1503 H1493 0.930 . S
C1503 C1496 1.409 . S
C1503 C1502 1.362 . S
H1504 C1510 0.930 . S
H1505 C1513 0.930 . S
H1506 C1514 0.930 . S
H1507 C1515 0.930 . S
H1508 C1518 0.930 . S
H1509 C1519 0.930 . S
C1510 H1504 0.930 . S
C1510 C1511 1.355 . S
C1510 C1512 1.415 . S
C1511 C1510 1.355 . S
C1511 C1513 1.419 . S
C1512 C1510 1.415 . S
C1512 C1517 1.425 . S
C1512 C1519 1.409 . S
C1513 H1505 0.930 . S
C1513 C1511 1.419 . S
C1513 C1514 1.362 . S
C1514 H1506 0.930 . S
C1514 C1513 1.362 . S
C1514 C1517 1.409 . S
C1515 H1507 0.930 . S
C1515 C1516 1.355 . S
C1515 C1517 1.415 . S
C1516 C1515 1.355 . S
C1516 C1518 1.419 . S
C1517 C1512 1.425 . S
C1517 C1514 1.409 . S
C1517 C1515 1.415 . S
C1518 H1508 0.930 . S
C1518 C1516 1.419 . S
C1518 C1519 1.362 . S
C1519 H1509 0.930 . S
C1519 C1512 1.409 . S
C1519 C1518 1.362 . S
H1520 C1526 0.930 . S
H1521 C1529 0.930 . S
H1522 C1530 0.930 . S
H1523 C1531 0.930 . S
H1524 C1534 0.930 . S
H1525 C1535 0.930 . S
C1526 H1520 0.930 . S
C1526 C1527 1.355 1_655 S
C1526 C1528 1.415 . S
C1527 C1526 1.355 1_455 S
C1527 C1529 1.419 . S
C1528 C1526 1.415 . S
C1528 C1533 1.425 1_655 S
C1528 C1535 1.409 . S
C1529 H1521 0.930 . S
C1529 C1527 1.419 . S
C1529 C1530 1.362 . S
C1530 H1522 0.930 . S
C1530 C1529 1.362 . S
C1530 C1533 1.409 . S
C1531 H1523 0.930 . S
C1531 C1532 1.355 . S
C1531 C1533 1.415 . S
C1532 C1531 1.355 . S
C1532 C1534 1.419 1_455 S
C1533 C1528 1.425 1_455 S
C1533 C1530 1.409 . S
C1533 C1531 1.415 . S
C1534 H1524 0.930 . S
C1534 C1532 1.419 1_655 S
C1534 C1535 1.362 . S
C1535 H1525 0.930 . S
C1535 C1528 1.409 . S
C1535 C1534 1.362 . S
H1536 C1542 0.930 . S
H1537 C1545 0.930 . S
H1538 C1546 0.930 . S
H1539 C1547 0.930 . S
H1540 C1550 0.930 . S
H1541 C1551 0.930 . S
C1542 H1536 0.930 . S
C1542 C1543 1.355 . S
C1542 C1544 1.415 . S
C1543 C1542 1.355 . S
C1543 C1545 1.419 . S
C1544 C1542 1.415 . S
C1544 C1549 1.425 . S
C1544 C1551 1.409 . S
C1545 H1537 0.930 . S
C1545 C1543 1.419 . S
C1545 C1546 1.362 . S
C1546 H1538 0.930 . S
C1546 C1545 1.362 . S
C1546 C1549 1.409 . S
C1547 H1539 0.930 . S
C1547 C1548 1.355 . S
C1547 C1549 1.415 . S
C1548 C1547 1.355 . S
C1548 C1550 1.419 . S
C1549 C1544 1.425 . S
C1549 C1546 1.409 . S
C1549 C1547 1.415 . S
C1550 H1540 0.930 . S
C1550 C1548 1.419 . S
C1550 C1551 1.362 . S
C1551 H1541 0.930 . S
C1551 C1544 1.409 . S
C1551 C1550 1.362 . S
H1552 C1558 0.930 . S
H1553 C1561 0.930 . S
H1554 C1562 0.930 . S
H1555 C1563 0.930 . S
H1556 C1566 0.930 . S
H1557 C1567 0.930 . S
C1558 H1552 0.930 . S
C1558 C1559 1.355 . S
C1558 C1560 1.415 . S
C1559 C1558 1.355 . S
C1559 C1561 1.419 . S
C1560 C1558 1.415 . S
C1560 C1565 1.425 . S
C1560 C1567 1.409 . S
C1561 H1553 0.930 . S
C1561 C1559 1.419 . S
C1561 C1562 1.362 . S
C1562 H1554 0.930 . S
C1562 C1561 1.362 . S
C1562 C1565 1.409 . S
C1563 H1555 0.930 . S
C1563 C1564 1.355 . S
C1563 C1565 1.415 . S
C1564 C1563 1.355 . S
C1564 C1566 1.419 . S
C1565 C1560 1.425 . S
C1565 C1562 1.409 . S
C1565 C1563 1.415 . S
C1566 H1556 0.930 . S
C1566 C1564 1.419 . S
C1566 C1567 1.362 . S
C1567 H1557 0.930 . S
C1567 C1560 1.409 . S
C1567 C1566 1.362 . S
H1568 C1574 0.930 . S
H1569 C1577 0.930 . S
H1570 C1578 0.930 . S
H1571 C1579 0.930 . S
H1572 C1582 0.930 . S
H1573 C1583 0.930 . S
C1574 H1568 0.930 . S
C1574 C1575 1.355 . S
C1574 C1576 1.415 . S
C1575 C1574 1.355 . S
C1575 C1577 1.419 . S
C1576 C1574 1.415 . S
C1576 C1581 1.425 . S
C1576 C1583 1.409 . S
C1577 H1569 0.930 . S
C1577 C1575 1.419 . S
C1577 C1578 1.362 . S
C1578 H1570 0.930 . S
C1578 C1577 1.362 . S
C1578 C1581 1.409 . S
C1579 H1571 0.930 . S
C1579 C1580 1.355 . S
C1579 C1581 1.415 . S
C1580 C1579 1.355 . S
C1580 C1582 1.419 . S
C1581 C1576 1.425 . S
C1581 C1578 1.409 . S
C1581 C1579 1.415 . S
C1582 H1572 0.930 . S
C1582 C1580 1.419 . S
C1582 C1583 1.362 . S
C1583 H1573 0.930 . S
C1583 C1576 1.409 . S
C1583 C1582 1.362 . S
H1584 C1590 0.930 . S
H1585 C1593 0.930 . S
H1586 C1594 0.930 . S
H1587 C1595 0.930 . S
H1588 C1598 0.930 1_655 S
H1589 C1599 0.930 . S
C1590 H1584 0.930 . S
C1590 C1591 1.355 . S
C1590 C1592 1.415 . S
C1591 C1590 1.355 . S
C1591 C1593 1.419 . S
C1592 C1590 1.415 . S
C1592 C1597 1.425 . S
C1592 C1599 1.409 . S
C1593 H1585 0.930 . S
C1593 C1591 1.419 . S
C1593 C1594 1.362 . S
C1594 H1586 0.930 . S
C1594 C1593 1.362 . S
C1594 C1597 1.409 . S
C1595 H1587 0.930 . S
C1595 C1596 1.355 . S
C1595 C1597 1.415 . S
C1596 C1595 1.355 . S
C1596 C1598 1.419 . S
C1597 C1592 1.425 . S
C1597 C1594 1.409 . S
C1597 C1595 1.415 . S
C1598 H1588 0.930 1_455 S
C1598 C1596 1.419 . S
C1598 C1599 1.362 . S
C1599 H1589 0.930 . S
C1599 C1592 1.409 . S
C1599 C1598 1.362 . S
H1600 C1606 0.930 . S
H1601 C1609 0.930 . S
H1602 C1610 0.930 . S
H1603 C1611 0.930 . S
H1604 C1614 0.930 . S
H1605 C1615 0.930 . S
C1606 H1600 0.930 . S
C1606 C1607 1.355 . S
C1606 C1608 1.415 . S
C1607 C1606 1.355 . S
C1607 C1609 1.419 . S
C1608 C1606 1.415 . S
C1608 C1613 1.425 . S
C1608 C1615 1.409 . S
C1609 H1601 0.930 . S
C1609 C1607 1.419 . S
C1609 C1610 1.362 . S
C1610 H1602 0.930 . S
C1610 C1609 1.362 . S
C1610 C1613 1.409 . S
C1611 H1603 0.930 . S
C1611 C1612 1.355 . S
C1611 C1613 1.415 . S
C1612 C1611 1.355 . S
C1612 C1614 1.419 . S
C1613 C1608 1.425 . S
C1613 C1610 1.409 . S
C1613 C1611 1.415 . S
C1614 H1604 0.930 . S
C1614 C1612 1.419 . S
C1614 C1615 1.362 . S
C1615 H1605 0.930 . S
C1615 C1608 1.409 . S
C1615 C1614 1.362 . S
H1616 C1622 0.930 . S
H1617 C1625 0.930 . S
H1618 C1626 0.930 . S
H1619 C1627 0.930 . S
H1620 C1630 0.930 . S
H1621 C1631 0.930 . S
C1622 H1616 0.930 . S
C1622 C1623 1.355 . S
C1622 C1624 1.415 . S
C1623 C1622 1.355 . S
C1623 C1625 1.419 . S
C1624 C1622 1.415 . S
C1624 C1629 1.425 . S
C1624 C1631 1.409 . S
C1625 H1617 0.930 . S
C1625 C1623 1.419 . S
C1625 C1626 1.362 . S
C1626 H1618 0.930 . S
C1626 C1625 1.362 . S
C1626 C1629 1.409 . S
C1627 H1619 0.930 . S
C1627 C1628 1.355 . S
C1627 C1629 1.415 . S
C1628 C1627 1.355 . S
C1628 C1630 1.419 . S
C1629 C1624 1.425 . S
C1629 C1626 1.409 . S
C1629 C1627 1.415 . S
C1630 H1620 0.930 . S
C1630 C1628 1.419 . S
C1630 C1631 1.362 . S
C1631 H1621 0.930 . S
C1631 C1624 1.409 . S
C1631 C1630 1.362 . S
H1632 C1638 0.930 . S
H1633 C1641 0.930 . S
H1634 C1642 0.930 . S
H1635 C1643 0.930 . S
H1636 C1646 0.930 . S
H1637 C1647 0.930 . S
C1638 H1632 0.930 . S
C1638 C1639 1.355 . S
C1638 C1640 1.415 . S
C1639 C1638 1.355 . S
C1639 C1641 1.419 . S
C1640 C1638 1.415 . S
C1640 C1645 1.425 . S
C1640 C1647 1.409 . S
C1641 H1633 0.930 . S
C1641 C1639 1.419 . S
C1641 C1642 1.362 . S
C1642 H1634 0.930 . S
C1642 C1641 1.362 . S
C1642 C1645 1.409 . S
C1643 H1635 0.930 . S
C1643 C1644 1.355 . S
C1643 C1645 1.415 . S
C1644 C1643 1.355 . S
C1644 C1646 1.419 . S
C1645 C1640 1.425 . S
C1645 C1642 1.409 . S
C1645 C1643 1.415 . S
C1646 H1636 0.930 . S
C1646 C1644 1.419 . S
C1646 C1647 1.362 . S
C1647 H1637 0.930 . S
C1647 C1640 1.409 . S
C1647 C1646 1.362 . S
H1648 C1654 0.930 . S
H1649 C1657 0.930 . S
H1650 C1658 0.930 . S
H1651 C1659 0.930 . S
H1652 C1662 0.930 . S
H1653 C1663 0.930 . S
C1654 H1648 0.930 . S
C1654 C1655 1.355 . S
C1654 C1656 1.415 . S
C1655 C1654 1.355 . S
C1655 C1657 1.419 . S
C1656 C1654 1.415 . S
C1656 C1661 1.425 . S
C1656 C1663 1.409 . S
C1657 H1649 0.930 . S
C1657 C1655 1.419 . S
C1657 C1658 1.362 . S
C1658 H1650 0.930 . S
C1658 C1657 1.362 . S
C1658 C1661 1.409 . S
C1659 H1651 0.930 . S
C1659 C1660 1.355 . S
C1659 C1661 1.415 . S
C1660 C1659 1.355 . S
C1660 C1662 1.419 . S
C1661 C1656 1.425 . S
C1661 C1658 1.409 . S
C1661 C1659 1.415 . S
C1662 H1652 0.930 . S
C1662 C1660 1.419 . S
C1662 C1663 1.362 . S
C1663 H1653 0.930 . S
C1663 C1656 1.409 . S
C1663 C1662 1.362 . S
H1664 C1670 0.930 . S
H1665 C1673 0.930 . S
H1666 C1674 0.930 . S
H1667 C1675 0.930 . S
H1668 C1678 0.930 . S
H1669 C1679 0.930 . S
C1670 H1664 0.930 . S
C1670 C1671 1.355 . S
C1670 C1672 1.415 . S
C1671 C1670 1.355 . S
C1671 C1673 1.419 . S
C1672 C1670 1.415 . S
C1672 C1677 1.425 . S
C1672 C1679 1.409 . S
C1673 H1665 0.930 . S
C1673 C1671 1.419 . S
C1673 C1674 1.362 . S
C1674 H1666 0.930 . S
C1674 C1673 1.362 . S
C1674 C1677 1.409 . S
C1675 H1667 0.930 . S
C1675 C1676 1.355 . S
C1675 C1677 1.415 . S
C1676 C1675 1.355 . S
C1676 C1678 1.419 . S
C1677 C1672 1.425 . S
C1677 C1674 1.409 . S
C1677 C1675 1.415 . S
C1678 H1668 0.930 . S
C1678 C1676 1.419 . S
C1678 C1679 1.362 . S
C1679 H1669 0.930 . S
C1679 C1672 1.409 . S
C1679 C1678 1.362 . S
H1680 C1686 0.930 . S
H1681 C1689 0.930 . S
H1682 C1690 0.930 . S
H1683 C1691 0.930 . S
H1684 C1694 0.930 . S
H1685 C1695 0.930 . S
C1686 H1680 0.930 . S
C1686 C1687 1.355 . S
C1686 C1688 1.415 . S
C1687 C1686 1.355 . S
C1687 C1689 1.419 . S
C1688 C1686 1.415 . S
C1688 C1693 1.425 . S
C1688 C1695 1.409 . S
C1689 H1681 0.930 . S
C1689 C1687 1.419 . S
C1689 C1690 1.362 . S
C1690 H1682 0.930 . S
C1690 C1689 1.362 . S
C1690 C1693 1.409 . S
C1691 H1683 0.930 . S
C1691 C1692 1.355 . S
C1691 C1693 1.415 . S
C1692 C1691 1.355 . S
C1692 C1694 1.419 . S
C1693 C1688 1.425 . S
C1693 C1690 1.409 . S
C1693 C1691 1.415 . S
C1694 H1684 0.930 . S
C1694 C1692 1.419 . S
C1694 C1695 1.362 . S
C1695 H1685 0.930 . S
C1695 C1688 1.409 . S
C1695 C1694 1.362 . S
H1696 C1702 0.930 . S
H1697 C1705 0.930 . S
H1698 C1706 0.930 . S
H1699 C1707 0.930 . S
H1700 C1710 0.930 . S
H1701 C1711 0.930 . S
C1702 H1696 0.930 . S
C1702 C1703 1.355 . S
C1702 C1704 1.415 . S
C1703 C1702 1.355 . S
C1703 C1705 1.419 . S
C1704 C1702 1.415 . S
C1704 C1709 1.425 . S
C1704 C1711 1.409 . S
C1705 H1697 0.930 . S
C1705 C1703 1.419 . S
C1705 C1706 1.362 . S
C1706 H1698 0.930 . S
C1706 C1705 1.362 . S
C1706 C1709 1.409 . S
C1707 H1699 0.930 . S
C1707 C1708 1.355 . S
C1707 C1709 1.415 . S
C1708 C1707 1.355 . S
C1708 C1710 1.419 . S
C1709 C1704 1.425 . S
C1709 C1706 1.409 . S
C1709 C1707 1.415 . S
C1710 H1700 0.930 . S
C1710 C1708 1.419 . S
C1710 C1711 1.362 . S
C1711 H1701 0.930 . S
C1711 C1704 1.409 . S
C1711 C1710 1.362 . S
H1712 C1718 0.930 . S
H1713 C1721 0.930 . S
H1714 C1722 0.930 . S
H1715 C1723 0.930 . S
H1716 C1726 0.930 . S
H1717 C1727 0.930 . S
C1718 H1712 0.930 . S
C1718 C1719 1.355 . S
C1718 C1720 1.415 . S
C1719 C1718 1.355 . S
C1719 C1721 1.419 . S
C1720 C1718 1.415 . S
C1720 C1725 1.425 . S
C1720 C1727 1.409 . S
C1721 H1713 0.930 . S
C1721 C1719 1.419 . S
C1721 C1722 1.362 . S
C1722 H1714 0.930 . S
C1722 C1721 1.362 . S
C1722 C1725 1.409 . S
C1723 H1715 0.930 . S
C1723 C1724 1.355 . S
C1723 C1725 1.415 . S
C1724 C1723 1.355 . S
C1724 C1726 1.419 . S
C1725 C1720 1.425 . S
C1725 C1722 1.409 . S
C1725 C1723 1.415 . S
C1726 H1716 0.930 . S
C1726 C1724 1.419 . S
C1726 C1727 1.362 . S
C1727 H1717 0.930 . S
C1727 C1720 1.409 . S
C1727 C1726 1.362 . S
H1728 C1734 0.930 . S
H1729 C1737 0.930 . S
H1730 C1738 0.930 . S
H1731 C1739 0.930 . S
H1732 C1742 0.930 . S
H1733 C1743 0.930 . S
C1734 H1728 0.930 . S
C1734 C1735 1.355 . S
C1734 C1736 1.415 . S
C1735 C1734 1.355 . S
C1735 C1737 1.419 . S
C1736 C1734 1.415 . S
C1736 C1741 1.425 . S
C1736 C1743 1.409 1_565 S
C1737 H1729 0.930 . S
C1737 C1735 1.419 . S
C1737 C1738 1.362 . S
C1738 H1730 0.930 . S
C1738 C1737 1.362 . S
C1738 C1741 1.409 . S
C1739 H1731 0.930 . S
C1739 C1740 1.371 . S
C1739 C1741 1.415 . S
C1740 C1739 1.371 . S
C1740 C1742 1.404 1_565 S
C1741 C1736 1.425 . S
C1741 C1738 1.409 . S
C1741 C1739 1.415 . S
C1742 H1732 0.930 . S
C1742 C1740 1.404 1_545 S
C1742 C1743 1.362 . S
C1743 H1733 0.930 . S
C1743 C1736 1.409 1_545 S
C1743 C1742 1.362 . S
H1744 C1750 0.930 . S
H1745 C1753 0.930 . S
H1746 C1754 0.930 . S
H1747 C1755 0.930 . S
H1748 C1758 0.930 . S
H1749 C1759 0.930 . S
C1750 H1744 0.930 . S
C1750 C1751 1.355 . S
C1750 C1752 1.415 . S
C1751 C1750 1.355 . S
C1751 C1753 1.419 . S
C1752 C1750 1.415 . S
C1752 C1757 1.425 . S
C1752 C1759 1.409 . S
C1753 H1745 0.930 . S
C1753 C1751 1.419 . S
C1753 C1754 1.362 . S
C1754 H1746 0.930 . S
C1754 C1753 1.362 . S
C1754 C1757 1.409 . S
C1755 H1747 0.930 . S
C1755 C1756 1.355 . S
C1755 C1757 1.415 . S
C1756 C1755 1.355 . S
C1756 C1758 1.419 . S
C1757 C1752 1.425 . S
C1757 C1754 1.409 . S
C1757 C1755 1.415 . S
C1758 H1748 0.930 . S
C1758 C1756 1.419 . S
C1758 C1759 1.362 . S
C1759 H1749 0.930 . S
C1759 C1752 1.409 . S
C1759 C1758 1.362 . S
H1760 C1766 0.930 . S
H1761 C1769 0.930 . S
H1762 C1770 0.930 . S
H1763 C1771 0.930 . S
H1764 C1774 0.930 . S
H1765 C1775 0.930 . S
C1766 H1760 0.930 . S
C1766 C1767 1.355 . S
C1766 C1768 1.415 . S
C1767 C1766 1.355 . S
C1767 C1769 1.419 . S
C1768 C1766 1.415 . S
C1768 C1773 1.425 . S
C1768 C1775 1.409 . S
C1769 H1761 0.930 . S
C1769 C1767 1.419 . S
C1769 C1770 1.362 . S
C1770 H1762 0.930 . S
C1770 C1769 1.362 . S
C1770 C1773 1.409 . S
C1771 H1763 0.930 . S
C1771 C1772 1.355 . S
C1771 C1773 1.415 . S
C1772 C1771 1.355 . S
C1772 C1774 1.419 . S
C1773 C1768 1.425 . S
C1773 C1770 1.409 . S
C1773 C1771 1.415 . S
C1774 H1764 0.930 . S
C1774 C1772 1.419 . S
C1774 C1775 1.362 . S
C1775 H1765 0.930 . S
C1775 C1768 1.409 . S
C1775 C1774 1.362 . S
H1776 C1782 0.930 . S
H1777 C1785 0.930 . S
H1778 C1786 0.930 . S
H1779 C1787 0.930 . S
H1780 C1790 0.930 . S
H1781 C1791 0.930 . S
C1782 H1776 0.930 . S
C1782 C1783 1.355 . S
C1782 C1784 1.415 . S
C1783 C1782 1.355 . S
C1783 C1785 1.419 . S
C1784 C1782 1.415 . S
C1784 C1789 1.425 . S
C1784 C1791 1.409 . S
C1785 H1777 0.930 . S
C1785 C1783 1.419 . S
C1785 C1786 1.362 . S
C1786 H1778 0.930 . S
C1786 C1785 1.362 . S
C1786 C1789 1.409 . S
C1787 H1779 0.930 . S
C1787 C1788 1.355 . S
C1787 C1789 1.415 . S
C1788 C1787 1.355 . S
C1788 C1790 1.419 . S
C1789 C1784 1.425 . S
C1789 C1786 1.409 . S
C1789 C1787 1.415 . S
C1790 H1780 0.930 . S
C1790 C1788 1.419 . S
C1790 C1791 1.362 . S
C1791 H1781 0.930 . S
C1791 C1784 1.409 . S
C1791 C1790 1.362 . S
H1792 C1798 0.930 . S
H1793 C1801 0.930 . S
H1794 C1802 0.930 . S
H1795 C1803 0.930 . S
H1796 C1806 0.930 . S
H1797 C1807 0.930 . S
C1798 H1792 0.930 . S
C1798 C1799 1.355 . S
C1798 C1800 1.415 . S
C1799 C1798 1.355 . S
C1799 C1801 1.419 . S
C1800 C1798 1.415 . S
C1800 C1805 1.425 . S
C1800 C1807 1.409 . S
C1801 H1793 0.930 . S
C1801 C1799 1.419 . S
C1801 C1802 1.362 . S
C1802 H1794 0.930 . S
C1802 C1801 1.362 . S
C1802 C1805 1.409 . S
C1803 H1795 0.930 . S
C1803 C1804 1.355 . S
C1803 C1805 1.415 . S
C1804 C1803 1.355 . S
C1804 C1806 1.419 . S
C1805 C1800 1.425 . S
C1805 C1802 1.409 . S
C1805 C1803 1.415 . S
C1806 H1796 0.930 . S
C1806 C1804 1.419 . S
C1806 C1807 1.362 . S
C1807 H1797 0.930 . S
C1807 C1800 1.409 . S
C1807 C1806 1.362 . S
H1808 C1814 0.930 . S
H1809 C1817 0.930 . S
H1810 C1818 0.930 . S
H1811 C1819 0.930 . S
H1812 C1822 0.930 . S
H1813 C1823 0.930 . S
C1814 H1808 0.930 . S
C1814 C1815 1.355 . S
C1814 C1816 1.415 . S
C1815 C1814 1.355 . S
C1815 C1817 1.419 . S
C1816 C1814 1.415 . S
C1816 C1821 1.425 . S
C1816 C1823 1.409 . S
C1817 H1809 0.930 . S
C1817 C1815 1.419 . S
C1817 C1818 1.362 . S
C1818 H1810 0.930 . S
C1818 C1817 1.362 . S
C1818 C1821 1.409 . S
C1819 H1811 0.930 . S
C1819 C1820 1.355 . S
C1819 C1821 1.415 . S
C1820 C1819 1.355 . S
C1820 C1822 1.419 . S
C1821 C1816 1.425 . S
C1821 C1818 1.409 . S
C1821 C1819 1.415 . S
C1822 H1812 0.930 . S
C1822 C1820 1.419 . S
C1822 C1823 1.362 . S
C1823 H1813 0.930 . S
C1823 C1816 1.409 . S
C1823 C1822 1.362 . S
H1824 C1830 0.930 . S
H1825 C1833 0.930 . S
H1826 C1834 0.930 . S
H1827 C1835 0.930 . S
H1828 C1838 0.930 . S
H1829 C1839 0.930 . S
C1830 H1824 0.930 . S
C1830 C1831 1.355 . S
C1830 C1832 1.415 . S
C1831 C1830 1.355 . S
C1831 C1833 1.419 . S
C1832 C1830 1.415 . S
C1832 C1837 1.425 . S
C1832 C1839 1.409 . S
C1833 H1825 0.930 . S
C1833 C1831 1.419 . S
C1833 C1834 1.362 . S
C1834 H1826 0.930 . S
C1834 C1833 1.362 . S
C1834 C1837 1.409 . S
C1835 H1827 0.930 . S
C1835 C1836 1.355 . S
C1835 C1837 1.415 . S
C1836 C1835 1.355 . S
C1836 C1838 1.419 . S
C1837 C1832 1.425 . S
C1837 C1834 1.409 . S
C1837 C1835 1.415 . S
C1838 H1828 0.930 . S
C1838 C1836 1.419 . S
C1838 C1839 1.362 . S
C1839 H1829 0.930 . S
C1839 C1832 1.409 . S
C1839 C1838 1.362 . S
H1840 C1846 0.930 . S
H1841 C1849 0.930 . S
H1842 C1850 0.930 . S
H1843 C1851 0.930 . S
H1844 C1854 0.930 1_556 S
H1845 C1855 0.930 . S
C1846 H1840 0.930 . S
C1846 C1847 1.355 . S
C1846 C1848 1.415 . S
C1847 C1846 1.355 . S
C1847 C1849 1.419 . S
C1848 C1846 1.415 . S
C1848 C1853 1.425 . S
C1848 C1855 1.409 . S
C1849 H1841 0.930 . S
C1849 C1847 1.419 . S
C1849 C1850 1.362 . S
C1850 H1842 0.930 . S
C1850 C1849 1.362 . S
C1850 C1853 1.409 . S
C1851 H1843 0.930 . S
C1851 C1852 1.355 . S
C1851 C1853 1.415 . S
C1852 C1851 1.355 . S
C1852 C1854 1.419 . S
C1853 C1848 1.425 . S
C1853 C1850 1.409 . S
C1853 C1851 1.415 . S
C1854 H1844 0.930 1_554 S
C1854 C1852 1.419 . S
C1854 C1855 1.362 . S
C1855 H1845 0.930 . S
C1855 C1848 1.409 . S
C1855 C1854 1.362 . S
H1856 C1862 0.930 . S
H1857 C1865 0.930 . S
H1858 C1866 0.930 . S
H1859 C1867 0.930 . S
H1860 C1870 0.930 . S
H1861 C1871 0.930 . S
C1862 H1856 0.930 . S
C1862 C1863 1.355 . S
C1862 C1864 1.415 . S
C1863 C1862 1.355 . S
C1863 C1865 1.419 . S
C1864 C1862 1.415 . S
C1864 C1869 1.425 . S
C1864 C1871 1.409 . S
C1865 H1857 0.930 . S
C1865 C1863 1.419 . S
C1865 C1866 1.362 . S
C1866 H1858 0.930 . S
C1866 C1865 1.362 . S
C1866 C1869 1.409 . S
C1867 H1859 0.930 . S
C1867 C1868 1.355 . S
C1867 C1869 1.415 . S
C1868 C1867 1.355 . S
C1868 C1870 1.419 . S
C1869 C1864 1.425 . S
C1869 C1866 1.409 . S
C1869 C1867 1.415 . S
C1870 H1860 0.930 . S
C1870 C1868 1.419 . S
C1870 C1871 1.362 . S
C1871 H1861 0.930 . S
C1871 C1864 1.409 . S
C1871 C1870 1.362 . S
H1872 C1878 0.930 . S
H1873 C1881 0.930 . S
H1874 C1882 0.930 . S
H1875 C1883 0.930 . S
H1876 C1886 0.915 1_554 S
H1877 C1887 0.930 1_554 S
C1878 H1872 0.930 . S
C1878 C1879 1.355 . S
C1878 C1880 1.415 . S
C1879 C1878 1.355 . S
C1879 C1881 1.419 . S
C1880 C1878 1.415 . S
C1880 C1885 1.425 . S
C1880 C1887 1.409 . S
C1881 H1873 0.930 . S
C1881 C1879 1.419 . S
C1881 C1882 1.362 . S
C1882 H1874 0.930 . S
C1882 C1881 1.362 . S
C1882 C1885 1.409 . S
C1883 H1875 0.930 . S
C1883 C1884 1.355 . S
C1883 C1885 1.415 . S
C1884 C1883 1.355 . S
C1884 C1886 1.427 . S
C1885 C1880 1.425 . S
C1885 C1882 1.409 . S
C1885 C1883 1.415 . S
C1886 H1876 0.915 1_556 S
C1886 C1884 1.427 . S
C1886 C1887 1.369 . S
C1887 H1877 0.930 1_556 S
C1887 C1880 1.409 . S
C1887 C1886 1.369 . S
H1888 C1894 0.930 . S
H1889 C1897 0.930 . S
H1890 C1898 0.930 . S
H1891 C1899 0.930 . S
H1892 C1902 0.930 . S
H1893 C1903 0.930 . S
C1894 H1888 0.930 . S
C1894 C1895 1.355 . S
C1894 C1896 1.415 . S
C1895 C1894 1.355 . S
C1895 C1897 1.419 . S
C1896 C1894 1.415 . S
C1896 C1901 1.425 . S
C1896 C1903 1.409 . S
C1897 H1889 0.930 . S
C1897 C1895 1.419 . S
C1897 C1898 1.362 . S
C1898 H1890 0.930 . S
C1898 C1897 1.362 . S
C1898 C1901 1.409 . S
C1899 H1891 0.930 . S
C1899 C1900 1.355 . S
C1899 C1901 1.415 . S
C1900 C1899 1.355 . S
C1900 C1902 1.419 . S
C1901 C1896 1.425 . S
C1901 C1898 1.409 . S
C1901 C1899 1.415 . S
C1902 H1892 0.930 . S
C1902 C1900 1.419 . S
C1902 C1903 1.362 . S
C1903 H1893 0.930 . S
C1903 C1896 1.409 . S
C1903 C1902 1.362 . S
H1904 C1910 0.930 . S
H1905 C1913 0.930 . S
H1906 C1914 0.930 . S
H1907 C1915 0.930 . S
H1908 C1918 0.930 1_655 S
H1909 C1919 0.919 1_655 S
C1910 H1904 0.930 . S
C1910 C1911 1.355 . S
C1910 C1912 1.415 . S
C1911 C1910 1.355 . S
C1911 C1913 1.419 . S
C1912 C1910 1.415 . S
C1912 C1917 1.425 . S
C1912 C1919 1.423 . S
C1913 H1905 0.930 . S
C1913 C1911 1.419 . S
C1913 C1914 1.362 . S
C1914 H1906 0.930 . S
C1914 C1913 1.362 . S
C1914 C1917 1.409 . S
C1915 H1907 0.930 . S
C1915 C1916 1.355 . S
C1915 C1917 1.415 . S
C1916 C1915 1.355 . S
C1916 C1918 1.419 . S
C1917 C1912 1.425 . S
C1917 C1914 1.409 . S
C1917 C1915 1.415 . S
C1918 H1908 0.930 1_455 S
C1918 C1916 1.419 . S
C1918 C1919 1.359 . S
C1919 H1909 0.919 1_455 S
C1919 C1912 1.423 . S
C1919 C1918 1.359 . S
H1920 C1926 0.930 . S
H1921 C1929 0.930 . S
H1922 C1930 0.930 . S
H1923 C1931 0.930 . S
H1924 C1934 0.930 . S
H1925 C1935 0.930 . S
C1926 H1920 0.930 . S
C1926 C1927 1.355 . S
C1926 C1928 1.415 . S
C1927 C1926 1.355 . S
C1927 C1929 1.419 . S
C1928 C1926 1.415 . S
C1928 C1933 1.425 . S
C1928 C1935 1.409 . S
C1929 H1921 0.930 . S
C1929 C1927 1.419 . S
C1929 C1930 1.362 . S
C1930 H1922 0.930 . S
C1930 C1929 1.362 . S
C1930 C1933 1.409 . S
C1931 H1923 0.930 . S
C1931 C1932 1.355 . S
C1931 C1933 1.415 . S
C1932 C1931 1.355 . S
C1932 C1934 1.419 . S
C1933 C1928 1.425 . S
C1933 C1930 1.409 . S
C1933 C1931 1.415 . S
C1934 H1924 0.930 . S
C1934 C1932 1.419 . S
C1934 C1935 1.362 . S
C1935 H1925 0.930 . S
C1935 C1928 1.409 . S
C1935 C1934 1.362 . S
H1936 C1942 0.930 . S
H1937 C1945 0.930 . S
H1938 C1946 0.930 . S
H1939 C1947 0.930 . S
H1940 C1950 0.930 . S
H1941 C1951 0.930 . S
C1942 H1936 0.930 . S
C1942 C1943 1.355 . S
C1942 C1944 1.415 . S
C1943 C1942 1.355 . S
C1943 C1945 1.419 . S
C1944 C1942 1.415 . S
C1944 C1949 1.425 . S
C1944 C1951 1.409 . S
C1945 H1937 0.930 . S
C1945 C1943 1.419 . S
C1945 C1946 1.362 . S
C1946 H1938 0.930 . S
C1946 C1945 1.362 . S
C1946 C1949 1.409 . S
C1947 H1939 0.930 . S
C1947 C1948 1.355 . S
C1947 C1949 1.415 . S
C1948 C1947 1.355 . S
C1948 C1950 1.419 . S
C1949 C1944 1.425 . S
C1949 C1946 1.409 . S
C1949 C1947 1.415 . S
C1950 H1940 0.930 . S
C1950 C1948 1.419 . S
C1950 C1951 1.362 . S
C1951 H1941 0.930 . S
C1951 C1944 1.409 . S
C1951 C1950 1.362 . S
H1952 C1958 0.930 . S
H1953 C1961 0.930 . S
H1954 C1962 0.930 . S
H1955 C1963 0.930 . S
H1956 C1966 0.930 . S
H1957 C1967 0.930 . S
C1958 H1952 0.930 . S
C1958 C1959 1.355 . S
C1958 C1960 1.415 . S
C1959 C1958 1.355 . S
C1959 C1961 1.419 . S
C1960 C1958 1.415 . S
C1960 C1965 1.425 . S
C1960 C1967 1.409 . S
C1961 H1953 0.930 . S
C1961 C1959 1.419 . S
C1961 C1962 1.362 . S
C1962 H1954 0.930 . S
C1962 C1961 1.362 . S
C1962 C1965 1.409 . S
C1963 H1955 0.930 . S
C1963 C1964 1.355 . S
C1963 C1965 1.415 . S
C1964 C1963 1.355 . S
C1964 C1966 1.419 . S
C1965 C1960 1.425 . S
C1965 C1962 1.409 . S
C1965 C1963 1.415 . S
C1966 H1956 0.930 . S
C1966 C1964 1.419 . S
C1966 C1967 1.362 . S
C1967 H1957 0.930 . S
C1967 C1960 1.409 . S
C1967 C1966 1.362 . S
H1968 C1974 0.930 . S
H1969 C1977 0.930 . S
H1970 C1978 0.930 . S
H1971 C1979 0.930 1_455 S
H1972 C1982 0.930 . S
H1973 C1983 0.930 . S
C1974 H1968 0.930 . S
C1974 C1975 1.355 . S
C1974 C1976 1.415 . S
C1975 C1974 1.355 . S
C1975 C1977 1.419 . S
C1976 C1974 1.415 . S
C1976 C1981 1.425 . S
C1976 C1983 1.409 . S
C1977 H1969 0.930 . S
C1977 C1975 1.419 . S
C1977 C1978 1.362 . S
C1978 H1970 0.930 . S
C1978 C1977 1.362 . S
C1978 C1981 1.409 . S
C1979 H1971 0.930 1_655 S
C1979 C1980 1.355 . S
C1979 C1981 1.415 . S
C1980 C1979 1.355 . S
C1980 C1982 1.419 . S
C1981 C1976 1.425 . S
C1981 C1978 1.409 . S
C1981 C1979 1.415 . S
C1982 H1972 0.930 . S
C1982 C1980 1.419 . S
C1982 C1983 1.362 . S
C1983 H1973 0.930 . S
C1983 C1976 1.409 . S
C1983 C1982 1.362 . S
H1984 C1990 0.930 . S
H1985 C1993 0.930 . S
H1986 C1994 0.930 . S
H1987 C1995 0.930 . S
H1988 C1998 0.930 . S
H1989 C1999 0.930 . S
C1990 H1984 0.930 . S
C1990 C1991 1.355 . S
C1990 C1992 1.415 . S
C1991 C1990 1.355 . S
C1991 C1993 1.419 . S
C1992 C1990 1.415 . S
C1992 C1997 1.425 . S
C1992 C1999 1.409 . S
C1993 H1985 0.930 . S
C1993 C1991 1.419 . S
C1993 C1994 1.362 . S
C1994 H1986 0.930 . S
C1994 C1993 1.362 . S
C1994 C1997 1.409 . S
C1995 H1987 0.930 . S
C1995 C1996 1.355 . S
C1995 C1997 1.415 . S
C1996 C1995 1.355 . S
C1996 C1998 1.419 . S
C1997 C1992 1.425 . S
C1997 C1994 1.409 . S
C1997 C1995 1.415 . S
C1998 H1988 0.930 . S
C1998 C1996 1.419 . S
C1998 C1999 1.362 . S
C1999 H1989 0.930 . S
C1999 C1992 1.409 . S
C1999 C1998 1.362 . S
H2000 C2006 0.930 . S
H2001 C2009 0.930 . S
H2002 C2010 0.930 . S
H2003 C2011 0.930 . S
H2004 C2014 0.930 . S
H2005 C2015 0.930 . S
C2006 H2000 0.930 . S
C2006 C2007 1.355 . S
C2006 C2008 1.415 . S
C2007 C2006 1.355 . S
C2007 C2009 1.419 . S
C2008 C2006 1.415 . S
C2008 C2013 1.425 . S
C2008 C2015 1.409 . S
C2009 H2001 0.930 . S
C2009 C2007 1.419 . S
C2009 C2010 1.362 . S
C2010 H2002 0.930 . S
C2010 C2009 1.362 . S
C2010 C2013 1.409 . S
C2011 H2003 0.930 . S
C2011 C2012 1.355 . S
C2011 C2013 1.415 . S
C2012 C2011 1.355 . S
C2012 C2014 1.419 . S
C2013 C2008 1.425 . S
C2013 C2010 1.409 . S
C2013 C2011 1.415 . S
C2014 H2004 0.930 . S
C2014 C2012 1.419 . S
C2014 C2015 1.362 . S
C2015 H2005 0.930 . S
C2015 C2008 1.409 . S
C2015 C2014 1.362 . S
H2016 C2022 0.930 . S
H2017 C2025 0.930 . S
H2018 C2026 0.930 . S
H2019 C2027 0.930 . S
H2020 C2030 0.930 . S
H2021 C2031 0.930 . S
C2022 H2016 0.930 . S
C2022 C2023 1.355 . S
C2022 C2024 1.415 . S
C2023 C2022 1.355 . S
C2023 C2025 1.419 . S
C2024 C2022 1.415 . S
C2024 C2029 1.425 . S
C2024 C2031 1.409 . S
C2025 H2017 0.930 . S
C2025 C2023 1.419 . S
C2025 C2026 1.362 . S
C2026 H2018 0.930 . S
C2026 C2025 1.362 . S
C2026 C2029 1.409 . S
C2027 H2019 0.930 . S
C2027 C2028 1.355 . S
C2027 C2029 1.415 . S
C2028 C2027 1.355 . S
C2028 C2030 1.419 . S
C2029 C2024 1.425 . S
C2029 C2026 1.409 . S
C2029 C2027 1.415 . S
C2030 H2020 0.930 . S
C2030 C2028 1.419 . S
C2030 C2031 1.362 . S
C2031 H2021 0.930 . S
C2031 C2024 1.409 . S
C2031 C2030 1.362 . S
H2032 C2038 0.930 . S
H2033 C2041 0.930 . S
H2034 C2042 0.930 . S
H2035 C2043 0.930 . S
H2036 C2046 0.930 . S
H2037 C2047 0.930 . S
C2038 H2032 0.930 . S
C2038 C2039 1.355 . S
C2038 C2040 1.415 . S
C2039 C2038 1.355 . S
C2039 C2041 1.419 . S
C2040 C2038 1.415 . S
C2040 C2045 1.425 . S
C2040 C2047 1.409 . S
C2041 H2033 0.930 . S
C2041 C2039 1.419 . S
C2041 C2042 1.362 . S
C2042 H2034 0.930 . S
C2042 C2041 1.362 . S
C2042 C2045 1.409 . S
C2043 H2035 0.930 . S
C2043 C2044 1.355 . S
C2043 C2045 1.415 . S
C2044 C2043 1.355 . S
C2044 C2046 1.419 . S
C2045 C2040 1.425 . S
C2045 C2042 1.409 . S
C2045 C2043 1.415 . S
C2046 H2036 0.930 . S
C2046 C2044 1.419 . S
C2046 C2047 1.362 . S
C2047 H2037 0.930 . S
C2047 C2040 1.409 . S
C2047 C2046 1.362 . S
H2048 C2054 0.930 . S
H2049 C2057 0.930 . S
H2050 C2058 0.930 . S
H2051 C2059 0.930 . S
H2052 C2062 0.930 . S
H2053 C2063 0.930 . S
C2054 H2048 0.930 . S
C2054 C2055 1.355 . S
C2054 C2056 1.415 . S
C2055 C2054 1.355 . S
C2055 C2057 1.419 . S
C2056 C2054 1.415 . S
C2056 C2061 1.425 . S
C2056 C2063 1.409 . S
C2057 H2049 0.930 . S
C2057 C2055 1.419 . S
C2057 C2058 1.362 . S
C2058 H2050 0.930 . S
C2058 C2057 1.362 . S
C2058 C2061 1.409 . S
C2059 H2051 0.930 . S
C2059 C2060 1.355 . S
C2059 C2061 1.415 . S
C2060 C2059 1.355 . S
C2060 C2062 1.419 . S
C2061 C2056 1.425 . S
C2061 C2058 1.409 . S
C2061 C2059 1.415 . S
C2062 H2052 0.930 . S
C2062 C2060 1.419 . S
C2062 C2063 1.362 . S
C2063 H2053 0.930 . S
C2063 C2056 1.409 . S
C2063 C2062 1.362 . S
H2064 C2070 0.930 . S
H2065 C2073 0.930 . S
H2066 C2074 0.930 . S
H2067 C2075 0.930 . S
H2068 C2078 0.930 . S
H2069 C2079 0.930 . S
C2070 H2064 0.930 . S
C2070 C2071 1.355 . S
C2070 C2072 1.415 . S
C2071 C2070 1.355 . S
C2071 C2073 1.419 . S
C2072 C2070 1.415 . S
C2072 C2077 1.425 . S
C2072 C2079 1.409 . S
C2073 H2065 0.930 . S
C2073 C2071 1.419 . S
C2073 C2074 1.362 . S
C2074 H2066 0.930 . S
C2074 C2073 1.362 . S
C2074 C2077 1.409 . S
C2075 H2067 0.930 . S
C2075 C2076 1.355 . S
C2075 C2077 1.415 . S
C2076 C2075 1.355 . S
C2076 C2078 1.419 . S
C2077 C2072 1.425 . S
C2077 C2074 1.409 . S
C2077 C2075 1.415 . S
C2078 H2068 0.930 . S
C2078 C2076 1.419 . S
C2078 C2079 1.362 . S
C2079 H2069 0.930 . S
C2079 C2072 1.409 . S
C2079 C2078 1.362 . S
H2080 C2086 0.930 . S
H2081 C2089 0.930 . S
H2082 C2090 0.930 . S
H2083 C2091 0.930 . S
H2084 C2094 0.930 . S
H2085 C2095 0.930 1_545 S
C2086 H2080 0.930 . S
C2086 C2087 1.355 . S
C2086 C2088 1.415 . S
C2087 C2086 1.355 . S
C2087 C2089 1.419 . S
C2088 C2086 1.415 . S
C2088 C2093 1.425 . S
C2088 C2095 1.409 . S
C2089 H2081 0.930 . S
C2089 C2087 1.419 . S
C2089 C2090 1.362 . S
C2090 H2082 0.930 . S
C2090 C2089 1.362 . S
C2090 C2093 1.409 . S
C2091 H2083 0.930 . S
C2091 C2092 1.355 . S
C2091 C2093 1.415 . S
C2092 C2091 1.355 . S
C2092 C2094 1.419 1_565 S
C2093 C2088 1.425 . S
C2093 C2090 1.409 . S
C2093 C2091 1.415 . S
C2094 H2084 0.930 . S
C2094 C2092 1.419 1_545 S
C2094 C2095 1.362 1_545 S
C2095 H2085 0.930 1_565 S
C2095 C2088 1.409 . S
C2095 C2094 1.362 1_565 S
H2096 C2102 0.930 . S
H2097 C2105 0.930 . S
H2098 C2106 0.930 . S
H2099 C2107 0.930 . S
H2100 C2110 0.930 . S
H2101 C2111 0.930 . S
C2102 H2096 0.930 . S
C2102 C2103 1.355 . S
C2102 C2104 1.415 . S
C2103 C2102 1.355 . S
C2103 C2105 1.419 . S
C2104 C2102 1.415 . S
C2104 C2109 1.425 . S
C2104 C2111 1.409 . S
C2105 H2097 0.930 . S
C2105 C2103 1.419 . S
C2105 C2106 1.362 . S
C2106 H2098 0.930 . S
C2106 C2105 1.362 . S
C2106 C2109 1.409 . S
C2107 H2099 0.930 . S
C2107 C2108 1.355 . S
C2107 C2109 1.415 . S
C2108 C2107 1.355 . S
C2108 C2110 1.419 . S
C2109 C2104 1.425 . S
C2109 C2106 1.409 . S
C2109 C2107 1.415 . S
C2110 H2100 0.930 . S
C2110 C2108 1.419 . S
C2110 C2111 1.362 . S
C2111 H2101 0.930 . S
C2111 C2104 1.409 . S
C2111 C2110 1.362 . S
H2112 C2118 0.930 . S
H2113 C2121 0.930 . S
H2114 C2122 0.930 . S
H2115 C2123 0.930 . S
H2116 C2126 0.930 . S
H2117 C2127 0.930 . S
C2118 H2112 0.930 . S
C2118 C2119 1.355 1_556 S
C2118 C2120 1.415 . S
C2119 C2118 1.355 1_554 S
C2119 C2121 1.419 . S
C2120 C2118 1.415 . S
C2120 C2125 1.425 1_556 S
C2120 C2127 1.409 . S
C2121 H2113 0.930 . S
C2121 C2119 1.419 . S
C2121 C2122 1.362 . S
C2122 H2114 0.930 . S
C2122 C2121 1.362 . S
C2122 C2125 1.409 . S
C2123 H2115 0.930 . S
C2123 C2124 1.355 . S
C2123 C2125 1.415 . S
C2124 C2123 1.355 . S
C2124 C2126 1.419 1_554 S
C2125 C2120 1.425 1_554 S
C2125 C2122 1.409 . S
C2125 C2123 1.415 . S
C2126 H2116 0.930 . S
C2126 C2124 1.419 1_556 S
C2126 C2127 1.362 . S
C2127 H2117 0.930 . S
C2127 C2120 1.409 . S
C2127 C2126 1.362 . S
H2128 C2134 0.930 . S
H2129 C2137 0.930 . S
H2130 C2138 0.930 . S
H2131 C2139 0.930 . S
H2132 C2142 0.930 . S
H2133 C2143 0.930 . S
C2134 H2128 0.930 . S
C2134 C2135 1.355 . S
C2134 C2136 1.415 . S
C2135 C2134 1.355 . S
C2135 C2137 1.419 . S
C2136 C2134 1.415 . S
C2136 C2141 1.425 . S
C2136 C2143 1.409 . S
C2137 H2129 0.930 . S
C2137 C2135 1.419 . S
C2137 C2138 1.362 . S
C2138 H2130 0.930 . S
C2138 C2137 1.362 . S
C2138 C2141 1.409 . S
C2139 H2131 0.930 . S
C2139 C2140 1.355 . S
C2139 C2141 1.415 . S
C2140 C2139 1.355 . S
C2140 C2142 1.419 . S
C2141 C2136 1.425 . S
C2141 C2138 1.409 . S
C2141 C2139 1.415 . S
C2142 H2132 0.930 . S
C2142 C2140 1.419 . S
C2142 C2143 1.362 . S
C2143 H2133 0.930 . S
C2143 C2136 1.409 . S
C2143 C2142 1.362 . S
H2144 C2150 0.930 . S
H2145 C2153 0.930 . S
H2146 C2154 0.930 . S
H2147 C2155 0.930 . S
H2148 C2158 0.930 . S
H2149 C2159 0.930 . S
C2150 H2144 0.930 . S
C2150 C2151 1.355 1_556 S
C2150 C2152 1.415 . S
C2151 C2150 1.355 1_554 S
C2151 C2153 1.419 . S
C2152 C2150 1.415 . S
C2152 C2157 1.425 . S
C2152 C2159 1.409 . S
C2153 H2145 0.930 . S
C2153 C2151 1.419 . S
C2153 C2154 1.362 . S
C2154 H2146 0.930 . S
C2154 C2153 1.362 . S
C2154 C2157 1.409 1_554 S
C2155 H2147 0.930 . S
C2155 C2156 1.355 . S
C2155 C2157 1.415 . S
C2156 C2155 1.355 . S
C2156 C2158 1.419 . S
C2157 C2152 1.425 . S
C2157 C2154 1.409 1_556 S
C2157 C2155 1.415 . S
C2158 H2148 0.930 . S
C2158 C2156 1.419 . S
C2158 C2159 1.362 . S
C2159 H2149 0.930 . S
C2159 C2152 1.409 . S
C2159 C2158 1.362 . S
H2160 C2166 0.930 . S
H2161 C2169 0.930 . S
H2162 C2170 0.930 . S
H2163 C2171 0.930 . S
H2164 C2174 0.930 . S
H2165 C2175 0.930 . S
C2166 H2160 0.930 . S
C2166 C2167 1.355 . S
C2166 C2168 1.415 . S
C2167 C2166 1.355 . S
C2167 C2169 1.419 . S
C2168 C2166 1.415 . S
C2168 C2173 1.425 . S
C2168 C2175 1.409 . S
C2169 H2161 0.930 . S
C2169 C2167 1.419 . S
C2169 C2170 1.362 . S
C2170 H2162 0.930 . S
C2170 C2169 1.362 . S
C2170 C2173 1.409 . S
C2171 H2163 0.930 . S
C2171 C2172 1.355 . S
C2171 C2173 1.415 . S
C2172 C2171 1.355 . S
C2172 C2174 1.419 . S
C2173 C2168 1.425 . S
C2173 C2170 1.409 . S
C2173 C2171 1.415 . S
C2174 H2164 0.930 . S
C2174 C2172 1.419 . S
C2174 C2175 1.362 . S
C2175 H2165 0.930 . S
C2175 C2168 1.409 . S
C2175 C2174 1.362 . S
H2176 C2182 0.930 . S
H2177 C2185 0.930 . S
H2178 C2186 0.930 . S
H2179 C2187 0.930 . S
H2180 C2190 0.930 . S
H2181 C2191 0.930 . S
C2182 H2176 0.930 . S
C2182 C2183 1.355 . S
C2182 C2184 1.415 . S
C2183 C2182 1.355 . S
C2183 C2185 1.419 . S
C2184 C2182 1.415 . S
C2184 C2189 1.425 . S
C2184 C2191 1.409 . S
C2185 H2177 0.930 . S
C2185 C2183 1.419 . S
C2185 C2186 1.362 . S
C2186 H2178 0.930 . S
C2186 C2185 1.362 . S
C2186 C2189 1.409 . S
C2187 H2179 0.930 . S
C2187 C2188 1.355 . S
C2187 C2189 1.415 . S
C2188 C2187 1.355 . S
C2188 C2190 1.419 . S
C2189 C2184 1.425 . S
C2189 C2186 1.409 . S
C2189 C2187 1.415 . S
C2190 H2180 0.930 . S
C2190 C2188 1.419 . S
C2190 C2191 1.362 . S
C2191 H2181 0.930 . S
C2191 C2184 1.409 . S
C2191 C2190 1.362 . S
C663 C109 1.527 . S
C668 C354 1.508 . S
C679 C61 1.359 . S
C684 C365 1.557 . S
C695 C74 1.099 . S
C700 C394 1.086 . S
C716 C397 1.419 . S
C711 C96 1.453 . S
C727 C25 1.540 . S
C732 C435 1.445 . S
C748 C438 1.015 . S
C743 C40 1.027 . S
C764 C465 1.525 . S
C759 C46 1.547 . S
C775 C5 1.302 . S
C780 C494 1.588 . S
C796 C345 1.444 1_655 S
C791 C229 1.177 . S
C807 C249 0.940 . S
C812 C357 0.875 . S
C828 C385 1.450 . S
C823 C271 1.189 . S
C844 C414 1.290 . S
C839 C172 1.294 . S
C855 C236 1.015 . S
C860 C418 1.031 . S
C876 C444 1.739 . S
C871 C242 1.704 . S
C892 C457 0.718 . S
C887 C278 0.745 . S
C908 C485 1.664 . S
C903 C179 1.635 . S
C924 C337 1.440 1_565 S
C919 C159 1.169 . S
C935 C285 1.367 1_554 S
C940 C504 1.630 1_554 S
C956 C535 1.465 . S
C951 C333 1.475 . S
C972 C554 0.998 . S
C967 C320 0.969 . S
C983 C123 1.338 . S
C988 C477 1.277 . S
C999 C138 1.514 . S
C1004 C377 1.475 . S
C1015 C326 1.651 . S
C1020 C565 1.666 . S
C1036 C594 1.014 . S
C1031 C298 0.966 . S
C1052 C355 1.503 . S
C1047 C67 1.478 . S
C1068 C584 1.526 . S
C1063 C110 1.520 . S
C1079 C88 1.061 . S
C1084 C395 1.019 . S
C1095 C75 1.256 . S
C1100 C558 1.347 . S
C1116 C434 1.425 1_655 S
C1111 C11 1.477 . S
C1127 C47 0.881 . S
C1132 C517 1.014 . S
C1148 C464 1.426 . S
C1143 C32 1.407 . S
C1164 C615 1.563 . S
C1159 C26 1.654 . S
C1180 C344 1.533 . S
C1175 C152 1.553 . S
C1196 C578 0.875 . S
C1191 C319 0.867 . S
C1207 C124 1.441 . S
C1212 C384 1.443 . S
C1223 C284 1.319 . S
C1228 C575 1.287 . S
C1239 C145 1.020 . S
C1244 C417 1.049 . S
C1260 C525 1.655 . S
C1255 C312 1.645 . S
C1271 C117 0.783 . S
C1276 C458 0.621 . S
C1287 C291 1.605 . S
C1292 C604 1.595 . S
C1303 C194 1.528 1_556 S
C1308 C338 1.492 . S
C1319 C180 1.624 . S
C1324 C505 1.582 . S
C1335 C263 1.345 . S
C1340 C454 1.305 . S
C1351 C243 0.899 . S
C1356 C555 0.947 . S
C1372 C598 1.332 . S
C1367 C277 1.289 . S
C1383 C215 1.353 . S
C1388 C378 1.450 . S
C1404 C404 1.543 . S
C1399 C256 1.538 . S
C1420 C375 1.075 . S
C1415 C200 1.070 . S
C1431 C81 1.519 . S
C1436 C634 1.490 . S
C1452 C585 1.550 . S
C1447 C89 1.274 . S
C1463 C102 1.095 . S
C1468 C654 1.094 . S
C1479 C68 1.455 . S
C1484 C557 1.421 . S
C1495 C53 1.511 . S
C1500 C515 1.516 . S
C1516 C518 1.023 . S
C1511 C12 0.996 . S
C1532 C545 1.527 . S
C1527 C18 1.546 1_455 S
C1548 C614 1.534 . S
C1543 C33 1.300 . S
C1564 C625 1.431 . S
C1559 C257 1.272 . S
C1575 C193 0.941 . S
C1580 C577 0.875 . S
C1596 C645 1.419 . S
C1591 C201 1.259 . S
C1612 C574 1.286 . S
C1607 C214 1.228 . S
C1628 C498 1.052 . S
C1623 C264 1.024 . S
C1639 C186 1.705 . S
C1644 C524 1.738 . S
C1660 C537 0.800 . S
C1655 C208 0.767 . S
C1671 C221 1.664 . S
C1676 C605 1.670 . S
C1692 C617 1.478 . S
C1687 C313 1.170 . S
C1703 C131 1.362 . S
C1708 C424 1.613 . S
C1724 C455 1.465 . S
C1719 C151 1.479 . S
C1740 C474 1.013 1_565 S
C1735 C166 0.959 . S
C1756 C597 1.327 . S
C1751 C305 1.331 . S
C1767 C292 1.516 . S
C1772 C637 1.480 . S
C1788 C405 1.666 . S
C1783 C144 1.647 . S
C1804 C374 0.928 . S
C1799 C116 0.986 . S
C1815 C95 1.504 . S
C1820 C635 1.464 . S
C1836 C364 1.508 . S
C1831 C82 1.523 . S
C1847 C60 1.068 . S
C1852 C655 1.094 . S
C1863 C103 1.152 . S
C1868 C398 1.389 . S
C1879 C39 1.499 . S
C1884 C514 1.469 . S
C1900 C437 1.002 . S
C1895 C19 0.971 . S
C1911 C4 1.429 . S
C1916 C544 1.457 . S
C1927 C54 1.668 . S
C1932 C495 1.618 . S
C1948 C624 1.553 . S
C1943 C334 1.541 . S
C1959 C165 0.933 . S
C1964 C358 0.910 . S
C1980 C644 1.420 1_655 S
C1975 C306 1.437 . S
C1991 C130 1.295 . S
C1996 C415 1.286 . S
C2007 C327 0.920 . S
C2012 C497 1.041 . S
C2028 C445 1.659 . S
C2023 C158 1.648 . S
C2039 C299 0.586 . S
C2044 C538 0.705 . S
C2060 C484 1.589 . S
C2055 C137 1.602 . S
C2076 C618 1.506 . S
C2071 C250 1.538 . S
C2092 C425 1.585 1_565 S
C2087 C222 1.622 . S
C2103 C235 1.373 . S
C2108 C534 1.347 . S
C2124 C475 0.926 . S
C2119 C187 0.941 1_554 S
C2135 C207 1.342 . S
C2140 C478 1.345 . S
C2151 C173 1.268 . S
C2156 C638 1.474 . S
C2172 C564 1.586 . S
C2167 C228 1.530 1_565 S
C2188 C595 1.066 . S
C2183 C270 1.054 . S
