# Generated by pormake.
# Topology csq, (4,8)-cn, num edge types: 1
# Building blocks:
#     Node 0, Type 0, BuildingBlock: MUDLON_clean_sbu_0, # of connection points: 4
#     Node 1, Type 0, BuildingBlock: MUDLON_clean_sbu_0, # of connection points: 4
#     Node 2, Type 0, BuildingBlock: MUDLON_clean_sbu_0, # of connection points: 4
#     Node 3, Type 0, BuildingBlock: MUDLON_clean_sbu_0, # of connection points: 4
#     Node 4, Type 0, BuildingBlock: MUDLON_clean_sbu_0, # of connection points: 4
#     Node 5, Type 0, BuildingBlock: MUDLON_clean_sbu_0, # of connection points: 4
#     Node 6, Type 1, BuildingBlock: TAGTUT_clean_sbu_3, # of connection points: 8
#     Node 7, Type 1, BuildingBlock: TAGTUT_clean_sbu_3, # of connection points: 8
#     Node 8, Type 1, BuildingBlock: TAGTUT_clean_sbu_3, # of connection points: 8
#     Edge 9, Type (0, 1), BuildingBlock: KIFKEQ_clean_linker_1, # of connection points: 2
#     Edge 10, Type (0, 1), BuildingBlock: KIFKEQ_clean_linker_1, # of connection points: 2
#     Edge 11, Type (0, 1), BuildingBlock: KIFKEQ_clean_linker_1, # of connection points: 2
#     Edge 12, Type (0, 1), BuildingBlock: KIFKEQ_clean_linker_1, # of connection points: 2
#     Edge 13, Type (0, 1), BuildingBlock: KIFKEQ_clean_linker_1, # of connection points: 2
#     Edge 14, Type (0, 1), BuildingBlock: KIFKEQ_clean_linker_1, # of connection points: 2
#     Edge 15, Type (0, 1), BuildingBlock: KIFKEQ_clean_linker_1, # of connection points: 2
#     Edge 16, Type (0, 1), BuildingBlock: KIFKEQ_clean_linker_1, # of connection points: 2
#     Edge 17, Type (0, 1), BuildingBlock: KIFKEQ_clean_linker_1, # of connection points: 2
#     Edge 18, Type (0, 1), BuildingBlock: KIFKEQ_clean_linker_1, # of connection points: 2
#     Edge 19, Type (0, 1), BuildingBlock: KIFKEQ_clean_linker_1, # of connection points: 2
#     Edge 20, Type (0, 1), BuildingBlock: KIFKEQ_clean_linker_1, # of connection points: 2
#     Edge 21, Type (0, 1), BuildingBlock: KIFKEQ_clean_linker_1, # of connection points: 2
#     Edge 22, Type (0, 1), BuildingBlock: KIFKEQ_clean_linker_1, # of connection points: 2
#     Edge 23, Type (0, 1), BuildingBlock: KIFKEQ_clean_linker_1, # of connection points: 2
#     Edge 24, Type (0, 1), BuildingBlock: KIFKEQ_clean_linker_1, # of connection points: 2
#     Edge 25, Type (0, 1), BuildingBlock: KIFKEQ_clean_linker_1, # of connection points: 2
#     Edge 26, Type (0, 1), BuildingBlock: KIFKEQ_clean_linker_1, # of connection points: 2
#     Edge 27, Type (0, 1), BuildingBlock: KIFKEQ_clean_linker_1, # of connection points: 2
#     Edge 28, Type (0, 1), BuildingBlock: KIFKEQ_clean_linker_1, # of connection points: 2
#     Edge 29, Type (0, 1), BuildingBlock: KIFKEQ_clean_linker_1, # of connection points: 2
#     Edge 30, Type (0, 1), BuildingBlock: KIFKEQ_clean_linker_1, # of connection points: 2
#     Edge 31, Type (0, 1), BuildingBlock: KIFKEQ_clean_linker_1, # of connection points: 2
#     Edge 32, Type (0, 1), BuildingBlock: KIFKEQ_clean_linker_1, # of connection points: 2
# Relax obj value: 0.067
# Max RMSD: 0.128
# Mean RMSD: 0.104
data_MOF--net-csq--node1-MUDLON_clean_sbu_0--node2-TAGTUT_clean_sbu_3--edge1-KIFKEQ_clean_linker_1
_symmetry_space_group_name_H-M    P1
_symmetry_Int_Tables_number       1
_symmetry_cell_setting            triclinic
loop_
_symmetry_equiv_pos_as_xyz
'x, y, z'
_cell_length_a     50.948314
_cell_length_b     50.331141
_cell_length_c     20.349267
_cell_angle_alpha  92.713227
_cell_angle_beta   92.362234
_cell_angle_gamma 120.00403
loop_
_atom_site_label
_atom_site_type_symbol
_atom_site_fract_x
_atom_site_fract_y
_atom_site_fract_z
_atom_type_partial_charge
Mg0 Mg 0.2589 0.48859 0.1519 0.0
C1 C 0.21982 0.46785 0.03846 0.0
O2 O 0.21902 0.44496 0.06867 0.0
C3 C 0.29378 0.4918 0.26076 0.0
O4 O 0.26857 0.46507 0.24996 0.0
C5 C 0.22026 0.49558 0.23996 0.0
O6 O 0.24327 0.52306 0.23207 0.0
O7 O 0.21988 0.47224 0.21152 0.0
O8 O 0.23867 0.49526 0.06219 0.0
O9 O 0.28131 0.46537 0.10856 0.0
C10 C 0.30359 0.48684 0.0819 0.0
O11 O 0.30527 0.51376 0.08145 0.0
O12 O 0.2969 0.51372 0.22656 0.0
Mg13 Mg 0.75885 0.24228 0.11075 0.0
C14 C 0.78761 0.28092 1.00182 0.0
O15 O 0.76459 0.28504 0.01251 0.0
C16 C 0.75068 0.18852 0.18621 0.0
O17 O 0.77154 0.21072 0.22724 0.0
C18 C 0.79249 0.301 0.20086 0.0
O19 O 0.78984 0.3125 0.14603 0.0
O20 O 0.77942 0.27192 0.2021 0.0
O21 O 0.7913 0.26225 0.03576 0.0
O22 O 0.7166 0.23596 0.06531 0.0
C23 C 0.69156 0.21332 0.07944 0.0
O24 O 0.69053 0.20147 0.13608 0.0
O25 O 0.74455 0.19512 0.13032 0.0
Mg26 Mg 0.54614 0.77021 0.06641 0.0
C27 C 0.55886 0.80372 0.20943 0.0
O28 O 0.57667 0.79199 0.21653 0.0
C29 C 0.57185 0.74707 0.9519 0.0
O30 O 0.59739 0.77169 0.97458 0.0
C31 C 0.53791 0.80247 0.94438 0.0
O32 O 0.51698 0.77395 0.92575 0.0
O33 O 0.55373 0.80806 0.99863 0.0
O34 O 0.54411 0.79927 0.15407 0.0
O35 O 0.53842 0.73297 0.13601 0.0
C36 C 0.52181 0.70412 0.12225 0.0
O37 O 0.508 0.69368 0.06298 0.0
O38 O 0.5475 0.74066 0.97889 0.0
Mg39 Mg 0.80101 0.546 0.06892 0.0
C40 C 0.77255 0.55117 0.93586 0.0
O41 O 0.79443 0.54925 0.9081 0.0
C42 C 0.84801 0.59503 0.16448 0.0
O43 O 0.82461 0.58571 0.20056 0.0
C44 C 0.7439 0.51571 0.13604 0.0
O45 O 0.73428 0.50596 0.07395 0.0
O46 O 0.77237 0.53015 0.15141 0.0
O47 O 0.77265 0.5531 0.99822 0.0
O48 O 0.81923 0.51831 0.02719 0.0
C49 C 0.80975 0.50095 0.97393 0.0
O50 O 0.7828 0.49289 0.94618 0.0
O51 O 0.84312 0.58681 0.10323 0.0
Mg52 Mg 0.24483 0.78531 0.1256 0.0
C53 C 0.22707 0.73863 1.0003 0.0
O54 O 0.25448 0.75591 0.98091 0.0
C55 C 0.29612 0.78792 0.21019 0.0
O56 O 0.27297 0.76575 0.23695 0.0
C57 C 0.19319 0.74981 0.21055 0.0
O58 O 0.18012 0.73739 0.15149 0.0
O59 O 0.21988 0.77318 0.21513 0.0
O60 O 0.22009 0.74546 0.05531 0.0
O61 O 0.25067 0.82551 0.0768 0.0
C62 C 0.24054 0.8228 0.01708 0.0
O63 O 0.22128 0.79523 0.9895 0.0
O64 O 0.29105 0.79775 0.15754 0.0
Mg65 Mg 0.45499 0.23499 0.19594 0.0
C66 C 0.41774 0.23273 0.31061 0.0
O67 O 0.42615 0.2136 0.33122 0.0
C68 C 0.46601 0.20697 0.08849 0.0
O69 O 0.49156 0.22905 0.11863 0.0
C70 C 0.45903 0.27856 0.10585 0.0
O71 O 0.43016 0.25921 0.11262 0.0
O72 O 0.47879 0.2764 0.14218 0.0
O73 O 0.42234 0.24077 0.25191 0.0
O74 O 0.47639 0.21582 0.25823 0.0
C75 C 0.48722 0.22085 0.31794 0.0
O76 O 0.49211 0.2457 0.35302 0.0
O77 O 0.44107 0.20174 0.1114 0.0
C78 C 0.05505 0.48179 0.51914 0.0
C79 C 0.04578 0.43529 0.74584 0.0
C80 C 0.95668 0.4271 0.73948 0.0
Mg81 Mg 0.02933 0.52581 0.46912 0.0
Mg82 Mg 0.01747 0.56874 0.578 0.0
O83 O 0.00804 0.52887 0.54741 0.0
Mg84 Mg 0.01757 0.50474 0.6091 0.0
O85 O 0.02715 0.47928 0.66565 0.0
Mg86 Mg 0.00357 0.43783 0.61618 0.0
Mg87 Mg 0.02131 0.48052 0.75555 0.0
C88 C 0.97841 0.52984 0.6928 0.0
O89 O 0.05472 0.54777 0.6737 0.0
O90 O 0.00509 0.54851 0.41288 0.0
O91 O 0.04641 0.52999 0.775 0.0
O92 O 0.0704 0.57461 0.49105 0.0
O93 O 0.99817 0.57693 0.49192 0.0
O94 O 0.06565 0.60143 0.57526 0.0
O95 O 0.98032 0.45931 0.55167 0.0
O96 O 0.98851 0.47709 0.45125 0.0
C97 C 0.9741 0.45527 0.48878 0.0
C98 C 0.99597 0.56724 0.43149 0.0
O99 O 0.98395 0.50798 0.67843 0.0
O100 O 0.03301 0.42526 0.68695 0.0
O101 O 0.99077 0.5553 0.66465 0.0
O102 O 0.96451 0.41874 0.68705 0.0
O103 O 0.04345 0.45571 0.78079 0.0
O104 O 0.97431 0.45286 0.77157 0.0
O105 O 0.05084 0.50428 0.53556 0.0
O106 O 0.04083 0.45628 0.54568 0.0
C107 C 0.08102 0.59913 0.52949 0.0
C108 C 0.05957 0.55194 0.73702 0.0
C109 C 0.48991 0.04096 0.51236 0.0
C110 C 0.5878 0.03744 0.44807 0.0
C111 C 0.54355 0.94906 0.52803 0.0
Mg112 Mg 0.44529 0.00739 0.63338 0.0
Mg113 Mg 0.47618 0.99715 0.76774 0.0
O114 O 0.46808 0.98913 0.67665 0.0
Mg115 Mg 0.50365 0.0037 0.62202 0.0
O116 O 0.53742 0.01756 0.56224 0.0
Mg117 Mg 0.51388 0.99254 0.4787 0.0
Mg118 Mg 0.57191 0.01513 0.58911 0.0
C119 C 0.51675 0.96718 0.73846 0.0
O120 O 0.53821 0.04209 0.69908 0.0
O121 O 0.40577 0.97812 0.7026 0.0
O122 O 0.5817 0.04161 0.68463 0.0
O123 O 0.4626 0.04823 0.71211 0.0
O124 O 0.43002 0.97235 0.79114 0.0
O125 O 0.49049 0.0442 0.79406 0.0
O126 O 0.47259 0.96662 0.54145 0.0
O127 O 0.42944 0.9668 0.55564 0.0
C128 C 0.44429 0.95608 0.52583 0.0
C129 C 0.40569 0.96801 0.75986 0.0
O130 O 0.51641 0.97172 0.67672 0.0
O131 O 0.55945 0.02205 0.42717 0.0
O132 O 0.50546 0.97763 0.78085 0.0
O133 O 0.52693 0.9558 0.49211 0.0
O134 O 0.597 0.03815 0.50806 0.0
O135 O 0.56219 0.96788 0.57444 0.0
O136 O 0.48848 0.03485 0.57325 0.0
O137 O 0.49983 0.02877 0.47074 0.0
C138 C 0.47916 0.05879 0.7664 0.0
C139 C 0.56635 0.05149 0.71578 0.0
C140 C 0.5504 0.56532 0.70217 0.0
C141 C 0.46328 0.47715 0.83697 0.0
C142 C 0.49277 0.42078 0.75115 0.0
Mg143 Mg 0.57304 0.55525 0.55804 0.0
Mg144 Mg 0.5249 0.49947 0.45186 0.0
O145 O 0.54391 0.51025 0.53706 0.0
Mg146 Mg 0.51895 0.49983 0.6146 0.0
O147 O 0.49612 0.49125 0.69533 0.0
Mg148 Mg 0.52892 0.49895 0.76442 0.0
Mg149 Mg 0.46073 0.45232 0.69173 0.0
C150 C 0.48503 0.43605 0.51562 0.0
O151 O 0.47781 0.49804 0.55968 0.0
O152 O 0.6003 0.55004 0.47114 0.0
O153 O 0.43864 0.458 0.60257 0.0
O154 O 0.54814 0.57108 0.48576 0.0
O155 O 0.56516 0.50922 0.40554 0.0
O156 O 0.51117 0.5314 0.42348 0.0
O157 O 0.55854 0.50105 0.67746 0.0
O158 O 0.59627 0.53946 0.62955 0.0
C159 C 0.58703 0.51928 0.6719 0.0
C160 C 0.59277 0.5302 0.42113 0.0
O161 O 0.4955 0.44786 0.57517 0.0
O162 O 0.49263 0.49366 0.84056 0.0
O163 O 0.49171 0.45241 0.46579 0.0
O164 O 0.5128 0.44801 0.77315 0.0
O165 O 0.4476 0.46051 0.78488 0.0
O166 O 0.47104 0.41606 0.70963 0.0
O167 O 0.542 0.55194 0.64363 0.0
O168 O 0.546 0.54992 0.75304 0.0
C169 C 0.52602 0.56005 0.44144 0.0
C170 C 0.4492 0.47908 0.56151 0.0
H171 H 0.16239 0.44628 0.24079 0.0
H172 H 0.22109 0.53951 0.32442 0.0
H173 H 0.12057 0.44393 0.29973 0.0
H174 H 0.17991 0.53686 0.3852 0.0
H175 H 0.09392 0.53211 0.45267 0.0
H176 H 0.13233 0.53537 0.37945 0.0
H177 H 0.10518 0.44064 0.40721 0.0
H178 H 0.0667 0.43704 0.47683 0.0
C179 C 0.16644 0.46611 0.27235 0.0
C180 C 0.19507 0.49297 0.27819 0.0
C181 C 0.1425 0.46484 0.30621 0.0
C182 C 0.14676 0.49026 0.34741 0.0
C183 C 0.1755 0.51706 0.35309 0.0
C184 C 0.19926 0.51843 0.31873 0.0
C185 C 0.09599 0.51196 0.44228 0.0
C186 C 0.07724 0.48442 0.471 0.0
C187 C 0.11813 0.51382 0.40072 0.0
C188 C 0.12196 0.48822 0.3873 0.0
C189 C 0.10268 0.46066 0.41508 0.0
C190 C 0.08064 0.45875 0.45586 0.0
H191 H 0.69221 0.148 0.13765 0.0
H192 H 0.75923 0.16239 0.29341 0.0
H193 H 0.65266 0.1081 0.19632 0.0
H194 H 0.72008 0.12081 0.34992 0.0
H195 H 0.64284 0.08751 0.48264 0.0
H196 H 0.68236 0.11849 0.4128 0.0
H197 H 0.62667 0.06023 0.24134 0.0
H198 H 0.586 0.02973 0.31235 0.0
C199 C 0.69869 0.14196 0.18347 0.0
C200 C 0.72876 0.15894 0.21183 0.0
C201 C 0.67592 0.11885 0.2171 0.0
C202 C 0.68286 0.11173 0.27911 0.0
C203 C 0.71358 0.12648 0.30364 0.0
C204 C 0.73618 0.15009 0.27087 0.0
C205 C 0.63895 0.08113 0.43005 0.0
C206 C 0.61127 0.05605 0.40311 0.0
C207 C 0.6619 0.09878 0.38979 0.0
C208 C 0.6582 0.09166 0.32117 0.0
C209 C 0.63038 0.06654 0.2939 0.0
C210 C 0.60705 0.04903 0.33448 0.0
H211 H 0.53534 0.71739 0.25511 0.0
H212 H 0.5003 0.64225 0.10388 0.0
H213 H 0.53129 0.68258 0.33823 0.0
H214 H 0.49752 0.60761 0.18645 0.0
H215 H 0.47866 0.54594 0.35063 0.0
H216 H 0.47362 0.58062 0.27821 0.0
H217 H 0.55636 0.65695 0.37329 0.0
H218 H 0.56054 0.62269 0.44719 0.0
C219 C 0.52688 0.69342 0.23958 0.0
C220 C 0.51836 0.68261 0.17283 0.0
C221 C 0.52465 0.67344 0.28726 0.0
C222 C 0.51428 0.64222 0.26929 0.0
C223 C 0.50516 0.63134 0.20253 0.0
C224 C 0.507 0.65126 0.15495 0.0
C225 C 0.49541 0.57025 0.3569 0.0
C226 C 0.52012 0.58146 0.40449 0.0
C227 C 0.49271 0.59011 0.31489 0.0
C228 C 0.51481 0.62161 0.31902 0.0
C229 C 0.53866 0.63298 0.36885 0.0
C230 C 0.54116 0.61321 0.41127 0.0
H231 H 0.86699 0.6124 0.29455 0.0
H232 H 0.8965 0.59606 0.10842 0.0
H233 H 0.90926 0.61166 0.35249 0.0
H234 H 0.93898 0.59549 0.1667 0.0
H235 H 0.96816 0.54077 0.30825 0.0
H236 H 0.93899 0.55626 0.23714 0.0
H237 H 0.96416 0.63492 0.374 0.0
H238 H 0.99269 0.61933 0.44508 0.0
C239 C 0.88303 0.60962 0.26586 0.0
C240 C 0.87805 0.60379 0.19703 0.0
C241 C 0.90733 0.60922 0.29907 0.0
C242 C 0.92714 0.60296 0.26412 0.0
C243 C 0.92374 0.59981 0.19492 0.0
C244 C 0.89954 0.60046 0.1616 0.0
C245 C 0.96787 0.56164 0.32238 0.0
C246 C 0.98212 0.57841 0.38286 0.0
C247 C 0.95133 0.57063 0.28158 0.0
C248 C 0.949 0.59663 0.30052 0.0
C249 C 0.96506 0.61449 0.35874 0.0
C250 C 0.98136 0.60547 0.39944 0.0
H251 H 0.31123 0.77973 0.33492 0.0
H252 H 0.34723 0.83957 0.17662 0.0
H253 H 0.3526 0.81821 0.41065 0.0
H254 H 0.38876 0.87796 0.25293 0.0
H255 H 0.46571 0.93586 0.42377 0.0
H256 H 0.43553 0.8911 0.34364 0.0
H257 H 0.3546 0.8706 0.44127 0.0
H258 H 0.38405 0.91497 0.51935 0.0
C259 C 0.32844 0.80062 0.31565 0.0
C260 C 0.32547 0.80685 0.25 0.0
C261 C 0.35214 0.82265 0.35915 0.0
C262 C 0.37352 0.85119 0.33775 0.0
C263 C 0.37256 0.85612 0.27061 0.0
C264 C 0.34867 0.83414 0.22704 0.0
C265 C 0.44149 0.92167 0.42795 0.0
C266 C 0.4272 0.9291 0.47745 0.0
C267 C 0.42431 0.89614 0.3823 0.0
C268 C 0.39285 0.87727 0.38691 0.0
C269 C 0.37888 0.88446 0.43718 0.0
C270 C 0.39576 0.91012 0.4815 0.0
H271 H 0.3822 0.25886 0.29783 0.0
H272 H 0.44715 0.25409 0.43223 0.0
H273 H 0.38783 0.30311 0.36481 0.0
H274 H 0.45513 0.29981 0.49568 0.0
H275 H 0.47493 0.38885 0.59443 0.0
H276 H 0.44741 0.33366 0.56097 0.0
H277 H 0.42491 0.353 0.36826 0.0
H278 H 0.45004 0.40671 0.40296 0.0
C279 C 0.39723 0.26697 0.3425 0.0
C280 C 0.41447 0.25333 0.3594 0.0
C281 C 0.40089 0.29264 0.38054 0.0
C282 C 0.42296 0.30611 0.43446 0.0
C283 C 0.43794 0.29044 0.45482 0.0
C284 C 0.43344 0.26411 0.4181 0.0
C285 C 0.46329 0.38103 0.54569 0.0
C286 C 0.46519 0.40231 0.50113 0.0
C287 C 0.44773 0.34938 0.52609 0.0
C288 C 0.43402 0.33847 0.46136 0.0
C289 C 0.43451 0.35988 0.41875 0.0
C290 C 0.44957 0.39113 0.43848 0.0
H291 H 0.57802 0.86411 0.97042 0.0
H292 H 0.50523 0.7989 0.83077 0.0
H293 H 0.57974 0.90644 0.91354 0.0
H294 H 0.50657 0.84125 0.77476 0.0
H295 H 0.52372 0.92381 0.66632 0.0
H296 H 0.53484 0.88561 0.7094 0.0
H297 H 0.54544 0.92656 0.90725 0.0
H298 H 0.53499 0.96476 0.86443 0.0
C299 C 0.56256 0.85877 0.92724 0.0
C300 C 0.5412 0.82809 0.9057 0.0
C301 C 0.56351 0.88306 0.89473 0.0
C302 C 0.54311 0.87727 0.83994 0.0
C303 C 0.5228 0.84657 0.8164 0.0
C304 C 0.52187 0.82226 0.84891 0.0
C305 C 0.52917 0.92507 0.71879 0.0
C306 C 0.52822 0.94717 0.762 0.0
C307 C 0.53526 0.90302 0.74354 0.0
C308 C 0.54081 0.90287 0.81185 0.0
C309 C 0.54157 0.92611 0.85437 0.0
C310 C 0.53532 0.94792 0.82979 0.0
H311 H 0.72701 0.56053 0.97519 0.0
H312 H 0.7548 0.52674 0.80844 0.0
H313 H 0.67955 0.54708 0.91284 0.0
H314 H 0.70693 0.51217 0.74708 0.0
H315 H 0.64146 0.53253 0.63163 0.0
H316 H 0.68476 0.5378 0.69593 0.0
H317 H 0.63078 0.50553 0.86381 0.0
H318 H 0.58683 0.50123 0.79854 0.0
C319 C 0.72298 0.55025 0.92514 0.0
C320 C 0.74489 0.54518 0.89628 0.0
C321 C 0.69556 0.5421 0.88981 0.0
C322 C 0.68932 0.52846 0.825 0.0
C323 C 0.71115 0.52307 0.79655 0.0
C324 C 0.7387 0.53156 0.83158 0.0
C325 C 0.63858 0.52625 0.68215 0.0
C326 C 0.61084 0.51687 0.71041 0.0
C327 C 0.66347 0.52899 0.71894 0.0
C328 C 0.6614 0.52221 0.78519 0.0
C329 C 0.63319 0.51133 0.813 0.0
C330 C 0.60797 0.50854 0.77567 0.0
H331 H 0.16629 0.71271 0.009 0.0
H332 H 0.2325 0.70853 0.88952 0.0
H333 H 0.12553 0.67147 0.93832 0.0
H334 H 0.19116 0.66586 0.81933 0.0
H335 H 0.10571 0.60125 0.68114 0.0
H336 H 0.14653 0.64897 0.73941 0.0
H337 H 0.10641 0.61775 0.92365 0.0
H338 H 0.06574 0.57135 0.86614 0.0
C339 C 0.1722 0.70277 0.96787 0.0
C340 C 0.20271 0.71353 0.95564 0.0
C341 C 0.14873 0.67906 0.92722 0.0
C342 C 0.15503 0.66499 0.8737 0.0
C343 C 0.18553 0.67632 0.85997 0.0
C344 C 0.2092 0.70052 0.90047 0.0
C345 C 0.10538 0.605 0.73387 0.0
C346 C 0.08246 0.58247 0.76895 0.0
C347 C 0.12893 0.63212 0.76732 0.0
C348 C 0.12976 0.6372 0.83622 0.0
C349 C 0.10633 0.61494 0.87053 0.0
C350 C 0.08301 0.5881 0.83743 0.0
H351 H 0.41919 0.15614 0.01675 0.0
H352 H 0.51682 0.21597 0.03231 0.0
H353 H 0.42413 0.12362 0.92992 0.0
H354 H 0.5215 0.18372 0.94684 0.0
H355 H 0.51503 0.09057 0.87819 0.0
H356 H 0.5118 0.12904 0.94888 0.0
H357 H 0.44301 0.12545 0.81158 0.0
H358 H 0.44657 0.08728 0.73967 0.0
C359 C 0.44155 0.16252 1.00125 0.0
C360 C 0.46758 0.18837 0.03201 0.0
C361 C 0.44437 0.14406 0.95149 0.0
C362 C 0.47326 0.15113 0.9323 0.0
C363 C 0.49904 0.17757 0.96132 0.0
C364 C 0.49624 0.19602 0.01034 0.0
C365 C 0.4998 0.09853 0.86203 0.0
C366 C 0.48117 0.0859 0.80312 0.0
C367 C 0.49786 0.12047 0.9027 0.0
C368 C 0.47693 0.12994 0.88583 0.0
C369 C 0.45907 0.11824 0.82591 0.0
C370 C 0.46138 0.09663 0.78457 0.0
H371 H 0.31438 0.43831 0.08854 0.0
H372 H 0.3504 0.52886 0.01794 0.0
H373 H 0.35763 0.43552 0.04735 0.0
H374 H 0.39266 0.52592 0.97651 0.0
H375 H 0.47521 0.52442 0.92938 0.0
H376 H 0.43896 0.52568 1.0034 0.0
H377 H 0.37454 0.43048 0.94132 0.0
H378 H 0.41076 0.42911 0.86976 0.0
C379 C 0.33138 0.45749 0.06417 0.0
C380 C 0.32876 0.48365 0.05612 0.0
C381 C 0.35622 0.45601 0.04084 0.0
C382 C 0.37888 0.48067 0.00918 0.0
C383 C 0.37621 0.50682 1.00201 0.0
C384 C 0.35157 0.50828 0.0251 0.0
C385 C 0.4537 0.50359 0.93342 0.0
C386 C 0.4456 0.47687 0.89306 0.0
C387 C 0.43278 0.50431 0.97519 0.0
C388 C 0.40354 0.47831 0.97733 0.0
C389 C 0.39674 0.45089 0.9413 0.0
C390 C 0.4175 0.45021 0.89974 0.0
H391 H 0.83602 0.27671 0.95893 0.0
H392 H 0.78992 0.32872 0.94004 0.0
H393 H 0.87448 0.31111 0.88775 0.0
H394 H 0.82825 0.36288 0.86982 0.0
H395 H 0.9273 0.43923 0.8353 0.0
H396 H 0.88445 0.40222 0.89256 0.0
H397 H 0.87957 0.32775 0.7682 0.0
H398 H 0.92227 0.36484 0.70999 0.0
C399 C 0.83395 0.29525 0.93925 0.0
C400 C 0.80999 0.30003 0.95542 0.0
C401 C 0.85585 0.31482 0.89831 0.0
C402 C 0.85436 0.33971 0.87356 0.0
C403 C 0.83009 0.34405 0.88867 0.0
C404 C 0.80808 0.32436 0.92876 0.0
C405 C 0.91676 0.41505 0.81927 0.0
C406 C 0.92818 0.40505 0.76797 0.0
C407 C 0.89223 0.39384 0.8521 0.0
C408 C 0.87885 0.3621 0.83506 0.0
C409 C 0.88968 0.35207 0.78268 0.0
C410 C 0.91393 0.37335 0.74903 0.0
H411 H 0.80562 0.48533 0.84175 0.0
H412 H 0.86524 0.50986 0.0189 0.0
H413 H 0.84652 0.49027 0.77564 0.0
H414 H 0.90606 0.51456 0.95247 0.0
H415 H 0.96444 0.49702 0.80271 0.0
H416 H 0.92213 0.48511 0.87206 0.0
H417 H 0.89617 0.53845 0.75407 0.0
H418 H 0.93825 0.55033 0.68539 0.0
C419 C 0.82717 0.49101 0.86682 0.0
C420 C 0.83216 0.49737 0.93567 0.0
C421 C 0.8507 0.49413 0.82882 0.0
C422 C 0.87962 0.50324 0.85881 0.0
C423 C 0.88403 0.5075 0.92797 0.0
C424 C 0.86061 0.5048 0.96597 0.0
C425 C 0.94956 0.50599 0.79157 0.0
C426 C 0.95451 0.52435 0.73834 0.0
C427 C 0.92548 0.49933 0.83136 0.0
C428 C 0.90554 0.51041 0.81777 0.0
C429 C 0.9108 0.52911 0.76506 0.0
C430 C 0.93513 0.5362 0.7262 0.0
H431 H 0.24066 0.82013 0.8826 0.0
H432 H 0.27704 0.88402 0.056 0.0
H433 H 0.27667 0.85957 0.81674 0.0
H434 H 0.31215 0.924 0.98946 0.0
H435 H 0.34572 0.93894 0.70774 0.0
H436 H 0.30002 0.90835 0.76675 0.0
H437 H 0.35665 0.92888 0.94735 0.0
H438 H 0.40121 0.95944 0.89006 0.0
C439 C 0.25563 0.84293 0.90631 0.0
C440 C 0.25645 0.84874 0.97495 0.0
C441 C 0.27625 0.86566 0.86828 0.0
C442 C 0.2979 0.89481 0.89796 0.0
C443 C 0.29642 0.90151 0.96529 0.0
C444 C 0.27615 0.87866 1.00348 0.0
C445 C 0.34817 0.9372 0.76022 0.0
C446 C 0.37718 0.95135 0.79383 0.0
C447 C 0.32206 0.91961 0.79402 0.0
C448 C 0.32453 0.9162 0.86206 0.0
C449 C 0.35355 0.93136 0.89549 0.0
C450 C 0.37935 0.94864 0.86207 0.0
H451 H 0.51355 0.30932 0.04804 0.0
H452 H 0.4223 0.29444 0.03974 0.0
H453 H 0.52379 0.33927 0.95106 0.0
H454 H 0.43255 0.3246 0.94501 0.0
H455 H 0.53735 0.42271 0.83392 0.0
H456 H 0.53102 0.38691 0.9159 0.0
H457 H 0.43998 0.32424 0.83053 0.0
H458 H 0.44591 0.36084 0.74973 0.0
C459 C 0.49585 0.31277 0.02612 0.0
C460 C 0.46714 0.29951 0.05172 0.0
C461 C 0.50162 0.32981 0.97034 0.0
C462 C 0.47882 0.33399 0.93915 0.0
C463 C 0.45041 0.32118 0.96603 0.0
C464 C 0.44465 0.30416 0.02119 0.0
C465 C 0.51616 0.40099 0.8315 0.0
C466 C 0.49189 0.39501 0.78588 0.0
C467 C 0.51258 0.38032 0.87869 0.0
C468 C 0.4847 0.35297 0.88127 0.0
C469 C 0.46148 0.34555 0.83139 0.0
C470 C 0.46501 0.36635 0.78428 0.0
H471 H 0.1745 0.41113 0.99176 0.0
H472 H 0.21244 0.50753 0.96031 0.0
H473 H 0.13285 0.39785 0.91025 0.0
H474 H 0.17042 0.49374 0.87681 0.0
H475 H 0.09967 0.45165 0.69649 0.0
H476 H 0.14497 0.45849 0.75994 0.0
H477 H 0.08993 0.41313 0.91917 0.0
H478 H 0.04504 0.40737 0.85678 0.0
C479 C 0.17428 0.42956 0.96681 0.0
C480 C 0.19676 0.46054 0.98317 0.0
C481 C 0.15033 0.4218 0.92001 0.0
C482 C 0.14845 0.44472 0.88743 0.0
C483 C 0.17158 0.47562 0.90106 0.0
C484 C 0.19549 0.48352 0.94896 0.0
C485 C 0.09713 0.44193 0.74381 0.0
C486 C 0.06886 0.42835 0.77137 0.0
C487 C 0.12307 0.44635 0.78045 0.0
C488 C 0.12089 0.43659 0.8445 0.0
C489 C 0.09216 0.42075 0.86974 0.0
C490 C 0.06643 0.41708 0.83386 0.0
H491 H 0.63416 0.16463 0.08867 0.0
H492 H 0.69719 0.2177 0.94678 0.0
H493 H 0.60128 0.12622 0.99945 0.0
H494 H 0.66477 0.17886 0.85882 0.0
H495 H 0.62444 0.07476 0.77061 0.0
H496 H 0.65164 0.11663 0.85669 0.0
H497 H 0.57227 0.12556 0.87237 0.0
H498 H 0.54532 0.08468 0.78371 0.0
C499 C 0.64065 0.1685 0.03845 0.0
C500 C 0.66839 0.19418 0.02503 0.0
C501 C 0.62188 0.14648 0.98759 0.0
C502 C 0.63084 0.14953 0.92278 0.0
C503 C 0.65758 0.17599 0.90864 0.0
C504 C 0.67599 0.19829 0.95907 0.0
C505 C 0.61261 0.08548 0.79228 0.0
C506 C 0.58232 0.07579 0.77087 0.0
C507 C 0.62827 0.10951 0.84144 0.0
C508 C 0.61389 0.12409 0.87102 0.0
C509 C 0.58362 0.11434 0.85063 0.0
C510 C 0.56813 0.09071 0.80041 0.0
H511 H 0.52254 0.69783 0.88493 0.0
H512 H 0.62075 0.74806 0.89839 0.0
H513 H 0.52225 0.65959 0.80628 0.0
H514 H 0.62037 0.7097 0.81952 0.0
H515 H 0.59648 0.60543 0.78872 0.0
H516 H 0.60497 0.65489 0.83464 0.0
H517 H 0.53596 0.64864 0.69379 0.0
H518 H 0.52774 0.59893 0.64716 0.0
C519 C 0.54407 0.70097 0.87038 0.0
C520 C 0.57167 0.72579 0.89865 0.0
C521 C 0.54389 0.67921 0.82473 0.0
C522 C 0.5713 0.68162 0.80671 0.0
C523 C 0.5989 0.70718 0.8327 0.0
C524 C 0.59908 0.72913 0.8779 0.0
C525 C 0.58399 0.61523 0.76592 0.0
C526 C 0.56148 0.59846 0.71454 0.0
C527 C 0.58884 0.64357 0.79218 0.0
C528 C 0.57088 0.65551 0.76834 0.0
C529 C 0.54995 0.63984 0.71346 0.0
C530 C 0.54547 0.61161 0.68631 0.0
H531 H 0.45663 0.16058 0.2733 0.0
H532 H 0.5159 0.22188 0.43736 0.0
H533 H 0.45288 0.11706 0.32604 0.0
H534 H 0.51359 0.17774 0.48936 0.0
H535 H 0.48541 0.08636 0.58551 0.0
H536 H 0.48349 0.1303 0.54269 0.0
H537 H 0.48291 0.0955 0.34396 0.0
H538 H 0.48317 0.05176 0.38568 0.0
C539 C 0.46944 0.16491 0.32027 0.0
C540 C 0.48708 0.19493 0.35042 0.0
C541 C 0.46729 0.13976 0.3507 0.0
C542 C 0.48335 0.14371 0.41165 0.0
C543 C 0.50075 0.17372 0.44263 0.0
C544 C 0.5024 0.19908 0.41251 0.0
C545 C 0.48413 0.08787 0.53267 0.0
C546 C 0.48441 0.06545 0.48913 0.0
C547 C 0.48347 0.11326 0.50813 0.0
C548 C 0.48303 0.1166 0.43969 0.0
C549 C 0.4826 0.09366 0.39676 0.0
C550 C 0.48298 0.06847 0.42095 0.0
H551 H 0.29899 0.44343 0.29304 0.0
H552 H 0.34531 0.54262 0.32321 0.0
H553 H 0.33742 0.44242 0.36364 0.0
H554 H 0.3842 0.5415 0.39747 0.0
H555 H 0.4616 0.52405 0.47636 0.0
H556 H 0.42567 0.52964 0.40349 0.0
H557 H 0.35155 0.44941 0.47804 0.0
H558 H 0.38734 0.44297 0.54796 0.0
C559 C 0.31728 0.46517 0.31557 0.0
C560 C 0.31872 0.49313 0.30344 0.0
C561 C 0.33936 0.46451 0.35652 0.0
C562 C 0.36354 0.49176 0.38771 0.0
C563 C 0.36575 0.52005 0.37429 0.0
C564 C 0.3435 0.52074 0.33212 0.0
C565 C 0.43769 0.5073 0.47631 0.0
C566 C 0.4275 0.48259 0.51691 0.0
C567 C 0.41705 0.51083 0.43528 0.0
C568 C 0.38574 0.48981 0.43427 0.0
C569 C 0.37557 0.46565 0.4763 0.0
C570 C 0.39614 0.46198 0.51671 0.0
H571 H 0.80983 0.28527 0.31619 0.0
H572 H 0.8263 0.36355 0.20854 0.0
H573 H 0.85295 0.31933 0.39537 0.0
H574 H 0.86908 0.39703 0.28682 0.0
H575 H 0.96645 0.43349 0.3614 0.0
H576 H 0.91985 0.39421 0.30108 0.0
H577 H 0.8747 0.37251 0.482 0.0
H578 H 0.9219 0.41267 0.54355 0.0
C579 C 0.8222 0.30973 0.31007 0.0
C580 C 0.81482 0.32161 0.25542 0.0
C581 C 0.84682 0.32916 0.35546 0.0
C582 C 0.86455 0.36066 0.34652 0.0
C583 C 0.85601 0.37272 0.29431 0.0
C584 C 0.83142 0.3535 0.24952 0.0
C585 C 0.94681 0.42012 0.38886 0.0
C586 C 0.94777 0.42659 0.45718 0.0
C587 C 0.92008 0.39767 0.35413 0.0
C588 C 0.89355 0.38087 0.38667 0.0
C589 C 0.89488 0.38537 0.4558 0.0
C590 C 0.92188 0.40819 0.49094 0.0
H591 H 0.52301 0.82975 0.21176 0.0
H592 H 0.58731 0.81807 0.33415 0.0
H593 H 0.51804 0.85964 0.30249 0.0
H594 H 0.58191 0.84776 0.42589 0.0
H595 H 0.59236 0.94034 0.52636 0.0
H596 H 0.59511 0.90104 0.45646 0.0
H597 H 0.49808 0.85511 0.40946 0.0
H598 H 0.49561 0.89481 0.47752 0.0
C599 C 0.53594 0.83336 0.25822 0.0
C600 C 0.55561 0.82155 0.2655 0.0
C601 C 0.53286 0.85027 0.31063 0.0
C602 C 0.54932 0.85584 0.37189 0.0
C603 C 0.56896 0.84397 0.37937 0.0
C604 C 0.57201 0.82692 0.32679 0.0
C605 C 0.5715 0.92117 0.50312 0.0
C606 C 0.54384 0.92077 0.50671 0.0
C607 C 0.57306 0.89871 0.46273 0.0
C608 C 0.54692 0.87542 0.42583 0.0
C609 C 0.51878 0.87325 0.43558 0.0
C610 C 0.51729 0.89577 0.47524 0.0
H611 H 0.75594 0.53954 0.26571 0.0
H612 H 0.68324 0.49283 0.11199 0.0
H613 H 0.72066 0.54382 0.33786 0.0
H614 H 0.64873 0.49812 0.1822 0.0
H615 H 0.58532 0.48288 0.33788 0.0
H616 H 0.62244 0.47849 0.27606 0.0
H617 H 0.69141 0.56992 0.35306 0.0
H618 H 0.65383 0.57394 0.41832 0.0
C619 C 0.73243 0.52994 0.24752 0.0
C620 C 0.72238 0.51558 0.18321 0.0
C621 C 0.71232 0.53276 0.28855 0.0
C622 C 0.68178 0.5213 0.26605 0.0
C623 C 0.67186 0.50671 0.20194 0.0
C624 C 0.69177 0.50371 0.16139 0.0
C625 C 0.6083 0.5023 0.34173 0.0
C626 C 0.61638 0.52904 0.38252 0.0
C627 C 0.6297 0.49974 0.30586 0.0
C628 C 0.6599 0.524 0.30851 0.0
C629 C 0.66835 0.5507 0.35007 0.0
C630 C 0.64679 0.55314 0.387 0.0
H631 H 0.21472 0.76577 0.34181 0.0
H632 H 0.14015 0.69558 0.21265 0.0
H633 H 0.19396 0.73392 0.43538 0.0
H634 H 0.12026 0.6641 0.30514 0.0
H635 H 0.12454 0.60137 0.45289 0.0
H636 H 0.15561 0.64304 0.38511 0.0
H637 H 0.12877 0.70172 0.48673 0.0
H638 H 0.09706 0.65979 0.55461 0.0
C639 C 0.19378 0.74387 0.33346 0.0
C640 C 0.17919 0.73323 0.26951 0.0
C641 C 0.18202 0.7257 0.38694 0.0
C642 C 0.15577 0.69652 0.37698 0.0
C643 C 0.14069 0.68644 0.31382 0.0
C644 C 0.15209 0.70461 0.26091 0.0
C645 C 0.1261 0.62348 0.46278 0.0
C646 C 0.1079 0.62703 0.50858 0.0
C647 C 0.14385 0.64729 0.42376 0.0
C648 C 0.1442 0.67534 0.43032 0.0
C649 C 0.12888 0.68027 0.48102 0.0
C650 C 0.11087 0.65628 0.52008 0.0
loop_
_geom_bond_atom_site_label_1
_geom_bond_atom_site_label_2
_geom_bond_distance
_geom_bond_site_symmetry_2
_ccdc_geom_bond_type
Mg0 O7 2.141 . S
Mg0 O8 2.048 . S
Mg0 O9 2.048 . S
Mg0 O12 2.141 . S
C1 O2 1.313 . S
C1 O8 1.195 . S
O2 C1 1.313 . S
C3 O4 1.245 . S
C3 O12 1.289 . S
O4 C3 1.245 . S
C5 O6 1.245 . S
C5 O7 1.289 . S
O6 C5 1.245 . S
O7 Mg0 2.141 . S
O7 C5 1.289 . S
O8 Mg0 2.048 . S
O8 C1 1.195 . S
O9 Mg0 2.048 . S
O9 C10 1.195 . S
C10 O9 1.195 . S
C10 O11 1.313 . S
O11 C10 1.313 . S
O12 Mg0 2.141 . S
O12 C3 1.289 . S
Mg13 O20 2.141 . S
Mg13 O21 2.048 . S
Mg13 O22 2.048 . S
Mg13 O25 2.141 . S
C14 O15 1.313 . S
C14 O21 1.195 . S
O15 C14 1.313 . S
C16 O17 1.245 . S
C16 O25 1.289 . S
O17 C16 1.245 . S
C18 O19 1.245 . S
C18 O20 1.289 . S
O19 C18 1.245 . S
O20 Mg13 2.141 . S
O20 C18 1.289 . S
O21 Mg13 2.048 . S
O21 C14 1.195 . S
O22 Mg13 2.048 . S
O22 C23 1.195 1_554 S
C23 O22 1.195 1_556 S
C23 O24 1.313 . S
O24 C23 1.313 . S
O25 Mg13 2.141 . S
O25 C16 1.289 . S
Mg26 O33 2.141 1_554 S
Mg26 O34 2.048 . S
Mg26 O35 2.048 . S
Mg26 O38 2.141 1_554 S
C27 O28 1.313 . S
C27 O34 1.195 . S
O28 C27 1.313 . S
C29 O30 1.245 . S
C29 O38 1.289 . S
O30 C29 1.245 . S
C31 O32 1.245 . S
C31 O33 1.289 . S
O32 C31 1.245 . S
O33 Mg26 2.141 1_556 S
O33 C31 1.289 . S
O34 Mg26 2.048 . S
O34 C27 1.195 . S
O35 Mg26 2.048 . S
O35 C36 1.195 . S
C36 O35 1.195 . S
C36 O37 1.313 . S
O37 C36 1.313 . S
O38 Mg26 2.141 1_556 S
O38 C29 1.289 . S
Mg39 O46 2.141 . S
Mg39 O47 2.048 1_554 S
Mg39 O48 2.048 1_554 S
Mg39 O51 2.141 . S
C40 O41 1.313 . S
C40 O47 1.195 . S
O41 C40 1.313 . S
C42 O43 1.245 . S
C42 O51 1.289 . S
O43 C42 1.245 . S
C44 O45 1.245 . S
C44 O46 1.289 . S
O45 C44 1.245 . S
O46 Mg39 2.141 . S
O46 C44 1.289 . S
O47 Mg39 2.048 1_556 S
O47 C40 1.195 . S
O48 Mg39 2.048 1_556 S
O48 C49 1.195 . S
C49 O48 1.195 . S
C49 O50 1.313 . S
O50 C49 1.313 . S
O51 Mg39 2.141 . S
O51 C42 1.289 . S
Mg52 O59 2.141 . S
Mg52 O60 2.048 . S
Mg52 O61 2.048 . S
Mg52 O64 2.141 . S
C53 O54 1.313 . S
C53 O60 1.195 . S
O54 C53 1.313 . S
C55 O56 1.245 . S
C55 O64 1.289 . S
O56 C55 1.245 . S
C57 O58 1.245 . S
C57 O59 1.289 . S
O58 C57 1.245 . S
O59 Mg52 2.141 . S
O59 C57 1.289 . S
O60 Mg52 2.048 . S
O60 C53 1.195 . S
O61 Mg52 2.048 . S
O61 C62 1.195 . S
C62 O61 1.195 . S
C62 O63 1.313 . S
O63 C62 1.313 . S
O64 Mg52 2.141 . S
O64 C55 1.289 . S
Mg65 O72 2.141 . S
Mg65 O73 2.048 . S
Mg65 O74 2.048 . S
Mg65 O77 2.141 . S
C66 O67 1.313 . S
C66 O73 1.195 . S
O67 C66 1.313 . S
C68 O69 1.245 . S
C68 O77 1.289 . S
O69 C68 1.245 . S
C70 O71 1.245 . S
C70 O72 1.289 . S
O71 C70 1.245 . S
O72 Mg65 2.141 . S
O72 C70 1.289 . S
O73 Mg65 2.048 . S
O73 C66 1.195 . S
O74 Mg65 2.048 . S
O74 C75 1.195 . S
C75 O74 1.195 . S
C75 O76 1.313 . S
O76 C75 1.313 . S
O77 Mg65 2.141 . S
O77 C68 1.289 . S
C78 O105 1.312 . S
C78 O106 1.208 . S
C79 O100 1.331 . S
C79 O103 1.244 . S
C80 O102 1.264 . S
C80 O104 1.273 . S
Mg81 O83 1.936 1_455 S
Mg81 O90 2.081 1_455 S
Mg81 O92 2.023 . S
Mg81 O96 2.031 1_455 S
Mg81 O105 2.291 . S
Mg82 O83 1.963 . S
Mg82 O93 1.942 . S
Mg82 O94 1.955 1_655 S
Mg82 O101 1.986 . S
O83 Mg81 1.936 1_655 S
O83 Mg82 1.963 . S
O83 Mg84 1.915 1_655 S
Mg84 O83 1.915 1_455 S
Mg84 O85 1.915 . S
Mg84 O89 2.013 . S
Mg84 O95 2.114 1_455 S
Mg84 O99 2.013 1_455 S
Mg84 O105 2.114 . S
O85 Mg84 1.915 . S
O85 Mg86 1.936 . S
O85 Mg87 1.963 . S
Mg86 O85 1.936 . S
Mg86 O95 2.291 1_455 S
Mg86 O100 2.081 . S
Mg86 O102 2.023 1_455 S
Mg86 O106 2.031 . S
Mg87 O85 1.963 . S
Mg87 O91 1.986 . S
Mg87 O103 1.942 . S
Mg87 O104 1.955 1_455 S
C88 O99 1.191 . S
C88 O101 1.307 . S
O89 Mg84 2.013 . S
O89 C108 1.191 . S
O90 Mg81 2.081 1_655 S
O90 C98 1.331 . S
O91 Mg87 1.986 . S
O91 C108 1.307 . S
O92 Mg81 2.023 . S
O92 C107 1.264 . S
O93 Mg82 1.942 . S
O93 C98 1.244 . S
O94 Mg82 1.955 1_455 S
O94 C107 1.273 . S
O95 Mg84 2.114 1_655 S
O95 Mg86 2.291 1_655 S
O95 C97 1.312 . S
O96 Mg81 2.031 1_655 S
O96 C97 1.208 . S
C97 O95 1.312 . S
C97 O96 1.208 . S
C98 O90 1.331 . S
C98 O93 1.244 . S
O99 Mg84 2.013 1_655 S
O99 C88 1.191 . S
O100 C79 1.331 . S
O100 Mg86 2.081 . S
O101 Mg82 1.986 . S
O101 C88 1.307 . S
O102 C80 1.264 . S
O102 Mg86 2.023 1_655 S
O103 C79 1.244 . S
O103 Mg87 1.942 . S
O104 C80 1.273 . S
O104 Mg87 1.955 1_655 S
O105 C78 1.312 . S
O105 Mg81 2.291 . S
O105 Mg84 2.114 . S
O106 C78 1.208 . S
O106 Mg86 2.031 . S
C107 O92 1.264 . S
C107 O94 1.273 . S
C108 O89 1.191 . S
C108 O91 1.307 . S
C109 O136 1.312 . S
C109 O137 1.208 . S
C110 O131 1.331 . S
C110 O134 1.244 . S
C111 O133 1.264 . S
C111 O135 1.273 . S
Mg112 O114 1.936 1_545 S
Mg112 O121 2.081 1_545 S
Mg112 O123 2.023 . S
Mg112 O127 2.031 1_545 S
Mg112 O136 2.291 . S
Mg113 O114 1.963 . S
Mg113 O124 1.942 . S
Mg113 O125 1.955 1_565 S
Mg113 O132 1.986 . S
O114 Mg112 1.936 1_565 S
O114 Mg113 1.963 . S
O114 Mg115 1.915 1_565 S
Mg115 O114 1.915 1_545 S
Mg115 O116 1.915 . S
Mg115 O120 2.013 . S
Mg115 O126 2.114 1_545 S
Mg115 O130 2.013 1_545 S
Mg115 O136 2.114 . S
O116 Mg115 1.915 . S
O116 Mg117 1.936 . S
O116 Mg118 1.963 . S
Mg117 O116 1.936 . S
Mg117 O126 2.291 1_545 S
Mg117 O131 2.081 . S
Mg117 O133 2.023 1_545 S
Mg117 O137 2.031 . S
Mg118 O116 1.963 . S
Mg118 O122 1.986 . S
Mg118 O134 1.942 . S
Mg118 O135 1.955 1_545 S
C119 O130 1.191 . S
C119 O132 1.307 . S
O120 Mg115 2.013 . S
O120 C139 1.191 . S
O121 Mg112 2.081 1_565 S
O121 C129 1.331 . S
O122 Mg118 1.986 . S
O122 C139 1.307 . S
O123 Mg112 2.023 . S
O123 C138 1.264 . S
O124 Mg113 1.942 . S
O124 C129 1.244 . S
O125 Mg113 1.955 1_545 S
O125 C138 1.273 . S
O126 Mg115 2.114 1_565 S
O126 Mg117 2.291 1_565 S
O126 C128 1.312 . S
O127 Mg112 2.031 1_565 S
O127 C128 1.208 . S
C128 O126 1.312 . S
C128 O127 1.208 . S
C129 O121 1.331 . S
C129 O124 1.244 . S
O130 Mg115 2.013 1_565 S
O130 C119 1.191 . S
O131 C110 1.331 . S
O131 Mg117 2.081 . S
O132 Mg113 1.986 . S
O132 C119 1.307 . S
O133 C111 1.264 . S
O133 Mg117 2.023 1_565 S
O134 C110 1.244 . S
O134 Mg118 1.942 . S
O135 C111 1.273 . S
O135 Mg118 1.955 1_565 S
O136 C109 1.312 . S
O136 Mg112 2.291 . S
O136 Mg115 2.114 . S
O137 C109 1.208 . S
O137 Mg117 2.031 . S
C138 O123 1.264 . S
C138 O125 1.273 . S
C139 O120 1.191 . S
C139 O122 1.307 . S
C140 O167 1.312 . S
C140 O168 1.208 . S
C141 O162 1.331 . S
C141 O165 1.244 . S
C142 O164 1.264 . S
C142 O166 1.273 . S
Mg143 O145 1.936 . S
Mg143 O152 2.081 . S
Mg143 O154 2.023 . S
Mg143 O158 2.031 . S
Mg143 O167 2.291 . S
Mg144 O145 1.963 . S
Mg144 O155 1.942 . S
Mg144 O156 1.955 . S
Mg144 O163 1.986 . S
O145 Mg143 1.936 . S
O145 Mg144 1.963 . S
O145 Mg146 1.915 . S
Mg146 O145 1.915 . S
Mg146 O147 1.915 . S
Mg146 O151 2.013 . S
Mg146 O157 2.114 . S
Mg146 O161 2.013 . S
Mg146 O167 2.114 . S
O147 Mg146 1.915 . S
O147 Mg148 1.936 . S
O147 Mg149 1.963 . S
Mg148 O147 1.936 . S
Mg148 O157 2.291 . S
Mg148 O162 2.081 . S
Mg148 O164 2.023 . S
Mg148 O168 2.031 . S
Mg149 O147 1.963 . S
Mg149 O153 1.986 . S
Mg149 O165 1.942 . S
Mg149 O166 1.955 . S
C150 O161 1.191 . S
C150 O163 1.307 . S
O151 Mg146 2.013 . S
O151 C170 1.191 . S
O152 Mg143 2.081 . S
O152 C160 1.331 . S
O153 Mg149 1.986 . S
O153 C170 1.307 . S
O154 Mg143 2.023 . S
O154 C169 1.264 . S
O155 Mg144 1.942 . S
O155 C160 1.244 . S
O156 Mg144 1.955 . S
O156 C169 1.273 . S
O157 Mg146 2.114 . S
O157 Mg148 2.291 . S
O157 C159 1.312 . S
O158 Mg143 2.031 . S
O158 C159 1.208 . S
C159 O157 1.312 . S
C159 O158 1.208 . S
C160 O152 1.331 . S
C160 O155 1.244 . S
O161 Mg146 2.013 . S
O161 C150 1.191 . S
O162 C141 1.331 . S
O162 Mg148 2.081 . S
O163 Mg144 1.986 . S
O163 C150 1.307 . S
O164 C142 1.264 . S
O164 Mg148 2.023 . S
O165 C141 1.244 . S
O165 Mg149 1.942 . S
O166 C142 1.273 . S
O166 Mg149 1.955 . S
O167 C140 1.312 . S
O167 Mg143 2.291 . S
O167 Mg146 2.114 . S
O168 C140 1.208 . S
O168 Mg148 2.031 . S
C169 O154 1.264 . S
C169 O156 1.273 . S
C170 O151 1.191 . S
C170 O153 1.307 . S
H171 C179 0.950 . S
H172 C184 0.950 . S
H173 C181 0.950 . S
H174 C183 0.950 . S
H175 C185 0.950 . S
H176 C187 0.950 . S
H177 C189 0.950 . S
H178 C190 0.950 . S
C179 H171 0.950 . S
C179 C180 1.386 . S
C179 C181 1.391 . S
C180 C179 1.386 . S
C180 C184 1.393 . S
C181 H173 0.950 . S
C181 C179 1.391 . S
C181 C182 1.400 . S
C182 C181 1.400 . S
C182 C183 1.398 . S
C182 C188 1.491 . S
C183 H174 0.950 . S
C183 C182 1.398 . S
C183 C184 1.391 . S
C184 H172 0.950 . S
C184 C180 1.393 . S
C184 C183 1.391 . S
C185 H175 0.950 . S
C185 C186 1.386 . S
C185 C187 1.391 . S
C186 C185 1.386 . S
C186 C190 1.393 . S
C187 H176 0.950 . S
C187 C185 1.391 . S
C187 C188 1.400 . S
C188 C182 1.491 . S
C188 C187 1.400 . S
C188 C189 1.398 . S
C189 H177 0.950 . S
C189 C188 1.398 . S
C189 C190 1.391 . S
C190 H178 0.950 . S
C190 C186 1.393 . S
C190 C189 1.391 . S
H191 C199 0.950 . S
H192 C204 0.950 . S
H193 C201 0.950 . S
H194 C203 0.950 . S
H195 C205 0.950 . S
H196 C207 0.950 . S
H197 C209 0.950 . S
H198 C210 0.950 . S
C199 H191 0.950 . S
C199 C200 1.386 . S
C199 C201 1.391 . S
C200 C199 1.386 . S
C200 C204 1.393 . S
C201 H193 0.950 . S
C201 C199 1.391 . S
C201 C202 1.400 . S
C202 C201 1.400 . S
C202 C203 1.398 . S
C202 C208 1.491 . S
C203 H194 0.950 . S
C203 C202 1.398 . S
C203 C204 1.391 . S
C204 H192 0.950 . S
C204 C200 1.393 . S
C204 C203 1.391 . S
C205 H195 0.950 . S
C205 C206 1.386 . S
C205 C207 1.391 . S
C206 C205 1.386 . S
C206 C210 1.393 . S
C207 H196 0.950 . S
C207 C205 1.391 . S
C207 C208 1.400 . S
C208 C202 1.491 . S
C208 C207 1.400 . S
C208 C209 1.398 . S
C209 H197 0.950 . S
C209 C208 1.398 . S
C209 C210 1.391 . S
C210 H198 0.950 . S
C210 C206 1.393 . S
C210 C209 1.391 . S
H211 C219 0.950 . S
H212 C224 0.950 . S
H213 C221 0.950 . S
H214 C223 0.950 . S
H215 C225 0.950 . S
H216 C227 0.950 . S
H217 C229 0.950 . S
H218 C230 0.950 . S
C219 H211 0.950 . S
C219 C220 1.386 . S
C219 C221 1.391 . S
C220 C219 1.386 . S
C220 C224 1.393 . S
C221 H213 0.950 . S
C221 C219 1.391 . S
C221 C222 1.400 . S
C222 C221 1.400 . S
C222 C223 1.398 . S
C222 C228 1.491 . S
C223 H214 0.950 . S
C223 C222 1.398 . S
C223 C224 1.391 . S
C224 H212 0.950 . S
C224 C220 1.393 . S
C224 C223 1.391 . S
C225 H215 0.950 . S
C225 C226 1.386 . S
C225 C227 1.391 . S
C226 C225 1.386 . S
C226 C230 1.393 . S
C227 H216 0.950 . S
C227 C225 1.391 . S
C227 C228 1.400 . S
C228 C222 1.491 . S
C228 C227 1.400 . S
C228 C229 1.398 . S
C229 H217 0.950 . S
C229 C228 1.398 . S
C229 C230 1.391 . S
C230 H218 0.950 . S
C230 C226 1.393 . S
C230 C229 1.391 . S
H231 C239 0.950 . S
H232 C244 0.950 . S
H233 C241 0.950 . S
H234 C243 0.950 . S
H235 C245 0.950 . S
H236 C247 0.950 . S
H237 C249 0.950 . S
H238 C250 0.950 . S
C239 H231 0.950 . S
C239 C240 1.386 . S
C239 C241 1.391 . S
C240 C239 1.386 . S
C240 C244 1.393 . S
C241 H233 0.950 . S
C241 C239 1.391 . S
C241 C242 1.400 . S
C242 C241 1.400 . S
C242 C243 1.398 . S
C242 C248 1.491 . S
C243 H234 0.950 . S
C243 C242 1.398 . S
C243 C244 1.391 . S
C244 H232 0.950 . S
C244 C240 1.393 . S
C244 C243 1.391 . S
C245 H235 0.950 . S
C245 C246 1.386 . S
C245 C247 1.391 . S
C246 C245 1.386 . S
C246 C250 1.393 . S
C247 H236 0.950 . S
C247 C245 1.391 . S
C247 C248 1.400 . S
C248 C242 1.491 . S
C248 C247 1.400 . S
C248 C249 1.398 . S
C249 H237 0.950 . S
C249 C248 1.398 . S
C249 C250 1.391 . S
C250 H238 0.950 . S
C250 C246 1.393 . S
C250 C249 1.391 . S
H251 C259 0.950 . S
H252 C264 0.950 . S
H253 C261 0.950 . S
H254 C263 0.950 . S
H255 C265 0.950 . S
H256 C267 0.950 . S
H257 C269 0.950 . S
H258 C270 0.950 . S
C259 H251 0.950 . S
C259 C260 1.386 . S
C259 C261 1.391 . S
C260 C259 1.386 . S
C260 C264 1.393 . S
C261 H253 0.950 . S
C261 C259 1.391 . S
C261 C262 1.400 . S
C262 C261 1.400 . S
C262 C263 1.398 . S
C262 C268 1.491 . S
C263 H254 0.950 . S
C263 C262 1.398 . S
C263 C264 1.391 . S
C264 H252 0.950 . S
C264 C260 1.393 . S
C264 C263 1.391 . S
C265 H255 0.950 . S
C265 C266 1.386 . S
C265 C267 1.391 . S
C266 C265 1.386 . S
C266 C270 1.393 . S
C267 H256 0.950 . S
C267 C265 1.391 . S
C267 C268 1.400 . S
C268 C262 1.491 . S
C268 C267 1.400 . S
C268 C269 1.398 . S
C269 H257 0.950 . S
C269 C268 1.398 . S
C269 C270 1.391 . S
C270 H258 0.950 . S
C270 C266 1.393 . S
C270 C269 1.391 . S
H271 C279 0.950 . S
H272 C284 0.950 . S
H273 C281 0.950 . S
H274 C283 0.950 . S
H275 C285 0.950 . S
H276 C287 0.950 . S
H277 C289 0.950 . S
H278 C290 0.950 . S
C279 H271 0.950 . S
C279 C280 1.386 . S
C279 C281 1.391 . S
C280 C279 1.386 . S
C280 C284 1.393 . S
C281 H273 0.950 . S
C281 C279 1.391 . S
C281 C282 1.400 . S
C282 C281 1.400 . S
C282 C283 1.398 . S
C282 C288 1.491 . S
C283 H274 0.950 . S
C283 C282 1.398 . S
C283 C284 1.391 . S
C284 H272 0.950 . S
C284 C280 1.393 . S
C284 C283 1.391 . S
C285 H275 0.950 . S
C285 C286 1.386 . S
C285 C287 1.391 . S
C286 C285 1.386 . S
C286 C290 1.393 . S
C287 H276 0.950 . S
C287 C285 1.391 . S
C287 C288 1.400 . S
C288 C282 1.491 . S
C288 C287 1.400 . S
C288 C289 1.398 . S
C289 H277 0.950 . S
C289 C288 1.398 . S
C289 C290 1.391 . S
C290 H278 0.950 . S
C290 C286 1.393 . S
C290 C289 1.391 . S
H291 C299 0.950 . S
H292 C304 0.950 . S
H293 C301 0.950 . S
H294 C303 0.950 . S
H295 C305 0.950 . S
H296 C307 0.950 . S
H297 C309 0.950 . S
H298 C310 0.950 . S
C299 H291 0.950 . S
C299 C300 1.386 . S
C299 C301 1.391 . S
C300 C299 1.386 . S
C300 C304 1.393 . S
C301 H293 0.950 . S
C301 C299 1.391 . S
C301 C302 1.400 . S
C302 C301 1.400 . S
C302 C303 1.398 . S
C302 C308 1.491 . S
C303 H294 0.950 . S
C303 C302 1.398 . S
C303 C304 1.391 . S
C304 H292 0.950 . S
C304 C300 1.393 . S
C304 C303 1.391 . S
C305 H295 0.950 . S
C305 C306 1.386 . S
C305 C307 1.391 . S
C306 C305 1.386 . S
C306 C310 1.393 . S
C307 H296 0.950 . S
C307 C305 1.391 . S
C307 C308 1.400 . S
C308 C302 1.491 . S
C308 C307 1.400 . S
C308 C309 1.398 . S
C309 H297 0.950 . S
C309 C308 1.398 . S
C309 C310 1.391 . S
C310 H298 0.950 . S
C310 C306 1.393 . S
C310 C309 1.391 . S
H311 C319 0.950 . S
H312 C324 0.950 . S
H313 C321 0.950 . S
H314 C323 0.950 . S
H315 C325 0.950 . S
H316 C327 0.950 . S
H317 C329 0.950 . S
H318 C330 0.950 . S
C319 H311 0.950 . S
C319 C320 1.386 . S
C319 C321 1.391 . S
C320 C319 1.386 . S
C320 C324 1.393 . S
C321 H313 0.950 . S
C321 C319 1.391 . S
C321 C322 1.400 . S
C322 C321 1.400 . S
C322 C323 1.398 . S
C322 C328 1.491 . S
C323 H314 0.950 . S
C323 C322 1.398 . S
C323 C324 1.391 . S
C324 H312 0.950 . S
C324 C320 1.393 . S
C324 C323 1.391 . S
C325 H315 0.950 . S
C325 C326 1.386 . S
C325 C327 1.391 . S
C326 C325 1.386 . S
C326 C330 1.393 . S
C327 H316 0.950 . S
C327 C325 1.391 . S
C327 C328 1.400 . S
C328 C322 1.491 . S
C328 C327 1.400 . S
C328 C329 1.398 . S
C329 H317 0.950 . S
C329 C328 1.398 . S
C329 C330 1.391 . S
C330 H318 0.950 . S
C330 C326 1.393 . S
C330 C329 1.391 . S
H331 C339 0.950 1_554 S
H332 C344 0.950 . S
H333 C341 0.950 . S
H334 C343 0.950 . S
H335 C345 0.950 . S
H336 C347 0.950 . S
H337 C349 0.950 . S
H338 C350 0.950 . S
C339 H331 0.950 1_556 S
C339 C340 1.386 . S
C339 C341 1.391 . S
C340 C339 1.386 . S
C340 C344 1.393 . S
C341 H333 0.950 . S
C341 C339 1.391 . S
C341 C342 1.400 . S
C342 C341 1.400 . S
C342 C343 1.398 . S
C342 C348 1.491 . S
C343 H334 0.950 . S
C343 C342 1.398 . S
C343 C344 1.391 . S
C344 H332 0.950 . S
C344 C340 1.393 . S
C344 C343 1.391 . S
C345 H335 0.950 . S
C345 C346 1.386 . S
C345 C347 1.391 . S
C346 C345 1.386 . S
C346 C350 1.393 . S
C347 H336 0.950 . S
C347 C345 1.391 . S
C347 C348 1.400 . S
C348 C342 1.491 . S
C348 C347 1.400 . S
C348 C349 1.398 . S
C349 H337 0.950 . S
C349 C348 1.398 . S
C349 C350 1.391 . S
C350 H338 0.950 . S
C350 C346 1.393 . S
C350 C349 1.391 . S
H351 C359 0.950 . S
H352 C364 0.950 . S
H353 C361 0.950 . S
H354 C363 0.950 1_554 S
H355 C365 0.950 . S
H356 C367 0.950 . S
H357 C369 0.950 . S
H358 C370 0.950 . S
C359 H351 0.950 . S
C359 C360 1.386 1_556 S
C359 C361 1.391 . S
C360 C359 1.386 1_554 S
C360 C364 1.393 . S
C361 H353 0.950 . S
C361 C359 1.391 . S
C361 C362 1.400 . S
C362 C361 1.400 . S
C362 C363 1.398 . S
C362 C368 1.491 . S
C363 H354 0.950 1_556 S
C363 C362 1.398 . S
C363 C364 1.391 1_556 S
C364 H352 0.950 . S
C364 C360 1.393 . S
C364 C363 1.391 1_554 S
C365 H355 0.950 . S
C365 C366 1.386 . S
C365 C367 1.391 . S
C366 C365 1.386 . S
C366 C370 1.393 . S
C367 H356 0.950 . S
C367 C365 1.391 . S
C367 C368 1.400 . S
C368 C362 1.491 . S
C368 C367 1.400 . S
C368 C369 1.398 . S
C369 H357 0.950 . S
C369 C368 1.398 . S
C369 C370 1.391 . S
C370 H358 0.950 . S
C370 C366 1.393 . S
C370 C369 1.391 . S
H371 C379 0.950 . S
H372 C384 0.950 . S
H373 C381 0.950 . S
H374 C383 0.950 . S
H375 C385 0.950 . S
H376 C387 0.950 . S
H377 C389 0.950 . S
H378 C390 0.950 . S
C379 H371 0.950 . S
C379 C380 1.386 . S
C379 C381 1.391 . S
C380 C379 1.386 . S
C380 C384 1.393 1_554 S
C381 H373 0.950 . S
C381 C379 1.391 . S
C381 C382 1.400 1_554 S
C382 C381 1.400 1_556 S
C382 C383 1.398 . S
C382 C388 1.491 . S
C383 H374 0.950 . S
C383 C382 1.398 . S
C383 C384 1.391 . S
C384 H372 0.950 . S
C384 C380 1.393 1_556 S
C384 C383 1.391 . S
C385 H375 0.950 . S
C385 C386 1.386 . S
C385 C387 1.391 . S
C386 C385 1.386 . S
C386 C390 1.393 . S
C387 H376 0.950 . S
C387 C385 1.391 . S
C387 C388 1.400 . S
C388 C382 1.491 . S
C388 C387 1.400 . S
C388 C389 1.398 . S
C389 H377 0.950 . S
C389 C388 1.398 . S
C389 C390 1.391 . S
C390 H378 0.950 . S
C390 C386 1.393 . S
C390 C389 1.391 . S
H391 C399 0.950 . S
H392 C404 0.950 1_554 S
H393 C401 0.950 . S
H394 C403 0.950 . S
H395 C405 0.950 . S
H396 C407 0.950 . S
H397 C409 0.950 . S
H398 C410 0.950 . S
C399 H391 0.950 . S
C399 C400 1.386 . S
C399 C401 1.391 . S
C400 C399 1.386 . S
C400 C404 1.393 . S
C401 H393 0.950 . S
C401 C399 1.391 . S
C401 C402 1.400 . S
C402 C401 1.400 . S
C402 C403 1.398 . S
C402 C408 1.491 . S
C403 H394 0.950 . S
C403 C402 1.398 . S
C403 C404 1.391 . S
C404 H392 0.950 1_556 S
C404 C400 1.393 . S
C404 C403 1.391 . S
C405 H395 0.950 . S
C405 C406 1.386 . S
C405 C407 1.391 . S
C406 C405 1.386 . S
C406 C410 1.393 . S
C407 H396 0.950 . S
C407 C405 1.391 . S
C407 C408 1.400 . S
C408 C402 1.491 . S
C408 C407 1.400 . S
C408 C409 1.398 . S
C409 H397 0.950 . S
C409 C408 1.398 . S
C409 C410 1.391 . S
C410 H398 0.950 . S
C410 C406 1.393 . S
C410 C409 1.391 . S
H411 C419 0.950 . S
H412 C424 0.950 . S
H413 C421 0.950 . S
H414 C423 0.950 . S
H415 C425 0.950 . S
H416 C427 0.950 . S
H417 C429 0.950 . S
H418 C430 0.950 . S
C419 H411 0.950 . S
C419 C420 1.386 . S
C419 C421 1.391 . S
C420 C419 1.386 . S
C420 C424 1.393 . S
C421 H413 0.950 . S
C421 C419 1.391 . S
C421 C422 1.400 . S
C422 C421 1.400 . S
C422 C423 1.398 . S
C422 C428 1.491 . S
C423 H414 0.950 . S
C423 C422 1.398 . S
C423 C424 1.391 . S
C424 H412 0.950 . S
C424 C420 1.393 . S
C424 C423 1.391 . S
C425 H415 0.950 . S
C425 C426 1.386 . S
C425 C427 1.391 . S
C426 C425 1.386 . S
C426 C430 1.393 . S
C427 H416 0.950 . S
C427 C425 1.391 . S
C427 C428 1.400 . S
C428 C422 1.491 . S
C428 C427 1.400 . S
C428 C429 1.398 . S
C429 H417 0.950 . S
C429 C428 1.398 . S
C429 C430 1.391 . S
C430 H418 0.950 . S
C430 C426 1.393 . S
C430 C429 1.391 . S
H431 C439 0.950 . S
H432 C444 0.950 . S
H433 C441 0.950 . S
H434 C443 0.950 . S
H435 C445 0.950 . S
H436 C447 0.950 . S
H437 C449 0.950 . S
H438 C450 0.950 . S
C439 H431 0.950 . S
C439 C440 1.386 . S
C439 C441 1.391 . S
C440 C439 1.386 . S
C440 C444 1.393 . S
C441 H433 0.950 . S
C441 C439 1.391 . S
C441 C442 1.400 . S
C442 C441 1.400 . S
C442 C443 1.398 . S
C442 C448 1.491 . S
C443 H434 0.950 . S
C443 C442 1.398 . S
C443 C444 1.391 . S
C444 H432 0.950 . S
C444 C440 1.393 . S
C444 C443 1.391 . S
C445 H435 0.950 . S
C445 C446 1.386 . S
C445 C447 1.391 . S
C446 C445 1.386 . S
C446 C450 1.393 . S
C447 H436 0.950 . S
C447 C445 1.391 . S
C447 C448 1.400 . S
C448 C442 1.491 . S
C448 C447 1.400 . S
C448 C449 1.398 . S
C449 H437 0.950 . S
C449 C448 1.398 . S
C449 C450 1.391 . S
C450 H438 0.950 . S
C450 C446 1.393 . S
C450 C449 1.391 . S
H451 C459 0.950 . S
H452 C464 0.950 . S
H453 C461 0.950 . S
H454 C463 0.950 1_554 S
H455 C465 0.950 . S
H456 C467 0.950 . S
H457 C469 0.950 . S
H458 C470 0.950 . S
C459 H451 0.950 . S
C459 C460 1.386 1_556 S
C459 C461 1.391 . S
C460 C459 1.386 1_554 S
C460 C464 1.393 . S
C461 H453 0.950 . S
C461 C459 1.391 . S
C461 C462 1.400 . S
C462 C461 1.400 . S
C462 C463 1.398 . S
C462 C468 1.491 . S
C463 H454 0.950 1_556 S
C463 C462 1.398 . S
C463 C464 1.391 1_556 S
C464 H452 0.950 . S
C464 C460 1.393 . S
C464 C463 1.391 1_554 S
C465 H455 0.950 . S
C465 C466 1.386 . S
C465 C467 1.391 . S
C466 C465 1.386 . S
C466 C470 1.393 . S
C467 H456 0.950 . S
C467 C465 1.391 . S
C467 C468 1.400 . S
C468 C462 1.491 . S
C468 C467 1.400 . S
C468 C469 1.398 . S
C469 H457 0.950 . S
C469 C468 1.398 . S
C469 C470 1.391 . S
C470 H458 0.950 . S
C470 C466 1.393 . S
C470 C469 1.391 . S
H471 C479 0.950 . S
H472 C484 0.950 . S
H473 C481 0.950 . S
H474 C483 0.950 . S
H475 C485 0.950 . S
H476 C487 0.950 . S
H477 C489 0.950 . S
H478 C490 0.950 . S
C479 H471 0.950 . S
C479 C480 1.386 . S
C479 C481 1.391 . S
C480 C479 1.386 . S
C480 C484 1.393 1_554 S
C481 H473 0.950 . S
C481 C479 1.391 . S
C481 C482 1.400 1_554 S
C482 C481 1.400 1_556 S
C482 C483 1.398 . S
C482 C488 1.491 . S
C483 H474 0.950 . S
C483 C482 1.398 . S
C483 C484 1.391 . S
C484 H472 0.950 . S
C484 C480 1.393 1_556 S
C484 C483 1.391 . S
C485 H475 0.950 . S
C485 C486 1.386 . S
C485 C487 1.391 . S
C486 C485 1.386 . S
C486 C490 1.393 . S
C487 H476 0.950 . S
C487 C485 1.391 . S
C487 C488 1.400 . S
C488 C482 1.491 . S
C488 C487 1.400 . S
C488 C489 1.398 . S
C489 H477 0.950 . S
C489 C488 1.398 . S
C489 C490 1.391 . S
C490 H478 0.950 . S
C490 C486 1.393 . S
C490 C489 1.391 . S
H491 C499 0.950 . S
H492 C504 0.950 . S
H493 C501 0.950 . S
H494 C503 0.950 . S
H495 C505 0.950 . S
H496 C507 0.950 . S
H497 C509 0.950 . S
H498 C510 0.950 . S
C499 H491 0.950 . S
C499 C500 1.386 . S
C499 C501 1.391 . S
C500 C499 1.386 . S
C500 C504 1.393 . S
C501 H493 0.950 . S
C501 C499 1.391 . S
C501 C502 1.400 . S
C502 C501 1.400 . S
C502 C503 1.398 . S
C502 C508 1.491 . S
C503 H494 0.950 . S
C503 C502 1.398 . S
C503 C504 1.391 . S
C504 H492 0.950 . S
C504 C500 1.393 . S
C504 C503 1.391 . S
C505 H495 0.950 . S
C505 C506 1.386 . S
C505 C507 1.391 . S
C506 C505 1.386 . S
C506 C510 1.393 . S
C507 H496 0.950 . S
C507 C505 1.391 . S
C507 C508 1.400 . S
C508 C502 1.491 . S
C508 C507 1.400 . S
C508 C509 1.398 . S
C509 H497 0.950 . S
C509 C508 1.398 . S
C509 C510 1.391 . S
C510 H498 0.950 . S
C510 C506 1.393 . S
C510 C509 1.391 . S
H511 C519 0.950 . S
H512 C524 0.950 . S
H513 C521 0.950 . S
H514 C523 0.950 . S
H515 C525 0.950 . S
H516 C527 0.950 . S
H517 C529 0.950 . S
H518 C530 0.950 . S
C519 H511 0.950 . S
C519 C520 1.386 . S
C519 C521 1.391 . S
C520 C519 1.386 . S
C520 C524 1.393 . S
C521 H513 0.950 . S
C521 C519 1.391 . S
C521 C522 1.400 . S
C522 C521 1.400 . S
C522 C523 1.398 . S
C522 C528 1.491 . S
C523 H514 0.950 . S
C523 C522 1.398 . S
C523 C524 1.391 . S
C524 H512 0.950 . S
C524 C520 1.393 . S
C524 C523 1.391 . S
C525 H515 0.950 . S
C525 C526 1.386 . S
C525 C527 1.391 . S
C526 C525 1.386 . S
C526 C530 1.393 . S
C527 H516 0.950 . S
C527 C525 1.391 . S
C527 C528 1.400 . S
C528 C522 1.491 . S
C528 C527 1.400 . S
C528 C529 1.398 . S
C529 H517 0.950 . S
C529 C528 1.398 . S
C529 C530 1.391 . S
C530 H518 0.950 . S
C530 C526 1.393 . S
C530 C529 1.391 . S
H531 C539 0.950 . S
H532 C544 0.950 . S
H533 C541 0.950 . S
H534 C543 0.950 . S
H535 C545 0.950 . S
H536 C547 0.950 . S
H537 C549 0.950 . S
H538 C550 0.950 . S
C539 H531 0.950 . S
C539 C540 1.386 . S
C539 C541 1.391 . S
C540 C539 1.386 . S
C540 C544 1.393 . S
C541 H533 0.950 . S
C541 C539 1.391 . S
C541 C542 1.400 . S
C542 C541 1.400 . S
C542 C543 1.398 . S
C542 C548 1.491 . S
C543 H534 0.950 . S
C543 C542 1.398 . S
C543 C544 1.391 . S
C544 H532 0.950 . S
C544 C540 1.393 . S
C544 C543 1.391 . S
C545 H535 0.950 . S
C545 C546 1.386 . S
C545 C547 1.391 . S
C546 C545 1.386 . S
C546 C550 1.393 . S
C547 H536 0.950 . S
C547 C545 1.391 . S
C547 C548 1.400 . S
C548 C542 1.491 . S
C548 C547 1.400 . S
C548 C549 1.398 . S
C549 H537 0.950 . S
C549 C548 1.398 . S
C549 C550 1.391 . S
C550 H538 0.950 . S
C550 C546 1.393 . S
C550 C549 1.391 . S
H551 C559 0.950 . S
H552 C564 0.950 . S
H553 C561 0.950 . S
H554 C563 0.950 . S
H555 C565 0.950 . S
H556 C567 0.950 . S
H557 C569 0.950 . S
H558 C570 0.950 . S
C559 H551 0.950 . S
C559 C560 1.386 . S
C559 C561 1.391 . S
C560 C559 1.386 . S
C560 C564 1.393 . S
C561 H553 0.950 . S
C561 C559 1.391 . S
C561 C562 1.400 . S
C562 C561 1.400 . S
C562 C563 1.398 . S
C562 C568 1.491 . S
C563 H554 0.950 . S
C563 C562 1.398 . S
C563 C564 1.391 . S
C564 H552 0.950 . S
C564 C560 1.393 . S
C564 C563 1.391 . S
C565 H555 0.950 . S
C565 C566 1.386 . S
C565 C567 1.391 . S
C566 C565 1.386 . S
C566 C570 1.393 . S
C567 H556 0.950 . S
C567 C565 1.391 . S
C567 C568 1.400 . S
C568 C562 1.491 . S
C568 C567 1.400 . S
C568 C569 1.398 . S
C569 H557 0.950 . S
C569 C568 1.398 . S
C569 C570 1.391 . S
C570 H558 0.950 . S
C570 C566 1.393 . S
C570 C569 1.391 . S
H571 C579 0.950 . S
H572 C584 0.950 . S
H573 C581 0.950 . S
H574 C583 0.950 . S
H575 C585 0.950 . S
H576 C587 0.950 . S
H577 C589 0.950 . S
H578 C590 0.950 . S
C579 H571 0.950 . S
C579 C580 1.386 . S
C579 C581 1.391 . S
C580 C579 1.386 . S
C580 C584 1.393 . S
C581 H573 0.950 . S
C581 C579 1.391 . S
C581 C582 1.400 . S
C582 C581 1.400 . S
C582 C583 1.398 . S
C582 C588 1.491 . S
C583 H574 0.950 . S
C583 C582 1.398 . S
C583 C584 1.391 . S
C584 H572 0.950 . S
C584 C580 1.393 . S
C584 C583 1.391 . S
C585 H575 0.950 . S
C585 C586 1.386 . S
C585 C587 1.391 . S
C586 C585 1.386 . S
C586 C590 1.393 . S
C587 H576 0.950 . S
C587 C585 1.391 . S
C587 C588 1.400 . S
C588 C582 1.491 . S
C588 C587 1.400 . S
C588 C589 1.398 . S
C589 H577 0.950 . S
C589 C588 1.398 . S
C589 C590 1.391 . S
C590 H578 0.950 . S
C590 C586 1.393 . S
C590 C589 1.391 . S
H591 C599 0.950 . S
H592 C604 0.950 . S
H593 C601 0.950 . S
H594 C603 0.950 . S
H595 C605 0.950 . S
H596 C607 0.950 . S
H597 C609 0.950 . S
H598 C610 0.950 . S
C599 H591 0.950 . S
C599 C600 1.386 . S
C599 C601 1.391 . S
C600 C599 1.386 . S
C600 C604 1.393 . S
C601 H593 0.950 . S
C601 C599 1.391 . S
C601 C602 1.400 . S
C602 C601 1.400 . S
C602 C603 1.398 . S
C602 C608 1.491 . S
C603 H594 0.950 . S
C603 C602 1.398 . S
C603 C604 1.391 . S
C604 H592 0.950 . S
C604 C600 1.393 . S
C604 C603 1.391 . S
C605 H595 0.950 . S
C605 C606 1.386 . S
C605 C607 1.391 . S
C606 C605 1.386 . S
C606 C610 1.393 . S
C607 H596 0.950 . S
C607 C605 1.391 . S
C607 C608 1.400 . S
C608 C602 1.491 . S
C608 C607 1.400 . S
C608 C609 1.398 . S
C609 H597 0.950 . S
C609 C608 1.398 . S
C609 C610 1.391 . S
C610 H598 0.950 . S
C610 C606 1.393 . S
C610 C609 1.391 . S
H611 C619 0.950 . S
H612 C624 0.950 . S
H613 C621 0.950 . S
H614 C623 0.950 . S
H615 C625 0.950 . S
H616 C627 0.950 . S
H617 C629 0.950 . S
H618 C630 0.950 . S
C619 H611 0.950 . S
C619 C620 1.386 . S
C619 C621 1.391 . S
C620 C619 1.386 . S
C620 C624 1.393 . S
C621 H613 0.950 . S
C621 C619 1.391 . S
C621 C622 1.400 . S
C622 C621 1.400 . S
C622 C623 1.398 . S
C622 C628 1.491 . S
C623 H614 0.950 . S
C623 C622 1.398 . S
C623 C624 1.391 . S
C624 H612 0.950 . S
C624 C620 1.393 . S
C624 C623 1.391 . S
C625 H615 0.950 . S
C625 C626 1.386 . S
C625 C627 1.391 . S
C626 C625 1.386 . S
C626 C630 1.393 . S
C627 H616 0.950 . S
C627 C625 1.391 . S
C627 C628 1.400 . S
C628 C622 1.491 . S
C628 C627 1.400 . S
C628 C629 1.398 . S
C629 H617 0.950 . S
C629 C628 1.398 . S
C629 C630 1.391 . S
C630 H618 0.950 . S
C630 C626 1.393 . S
C630 C629 1.391 . S
H631 C639 0.950 . S
H632 C644 0.950 . S
H633 C641 0.950 . S
H634 C643 0.950 . S
H635 C645 0.950 . S
H636 C647 0.950 . S
H637 C649 0.950 . S
H638 C650 0.950 . S
C639 H631 0.950 . S
C639 C640 1.386 . S
C639 C641 1.391 . S
C640 C639 1.386 . S
C640 C644 1.393 . S
C641 H633 0.950 . S
C641 C639 1.391 . S
C641 C642 1.400 . S
C642 C641 1.400 . S
C642 C643 1.398 . S
C642 C648 1.491 . S
C643 H634 0.950 . S
C643 C642 1.398 . S
C643 C644 1.391 . S
C644 H632 0.950 . S
C644 C640 1.393 . S
C644 C643 1.391 . S
C645 H635 0.950 . S
C645 C646 1.386 . S
C645 C647 1.391 . S
C646 C645 1.386 . S
C646 C650 1.393 . S
C647 H636 0.950 . S
C647 C645 1.391 . S
C647 C648 1.400 . S
C648 C642 1.491 . S
C648 C647 1.400 . S
C648 C649 1.398 . S
C649 H637 0.950 . S
C649 C648 1.398 . S
C649 C650 1.391 . S
C650 H638 0.950 . S
C650 C646 1.393 . S
C650 C649 1.391 . S
C180 C5 1.632 . S
C186 C78 1.556 . S
C200 C16 1.402 . S
C206 C110 1.408 . S
C226 C169 1.809 . S
C220 C36 1.866 . S
C246 C98 1.320 . S
C240 C42 1.327 . S
C260 C55 1.503 . S
C266 C128 1.464 . S
C286 C150 1.190 . S
C280 C66 1.184 . S
C306 C119 1.531 . S
C300 C31 1.575 . S
C320 C40 1.251 . S
C326 C159 1.228 . S
C346 C108 1.542 . S
C340 C53 1.564 1_556 S
C360 C68 1.377 . S
C366 C138 1.365 . S
C380 C10 1.795 . S
C386 C141 1.752 . S
C406 C80 1.521 . S
C400 C14 1.533 1_556 S
C426 C88 1.587 . S
C420 C49 1.598 . S
C446 C129 1.455 . S
C440 C62 1.480 1_556 S
C466 C142 1.777 . S
C460 C70 1.803 . S
C486 C79 1.419 . S
C480 C1 1.462 . S
C506 C139 1.521 . S
C500 C23 1.536 . S
C520 C29 1.157 . S
C526 C140 1.083 . S
C546 C109 1.572 . S
C540 C75 1.607 . S
C566 C170 1.108 . S
C560 C3 1.134 . S
C586 C97 1.461 . S
C580 C18 1.485 . S
C606 C111 1.478 . S
C600 C27 1.532 . S
C620 C44 1.726 . S
C626 C160 1.703 . S
C640 C57 1.490 . S
C646 C107 1.484 . S
