# Generated by pormake.
# Topology zzz, (3,6)-cn, num edge types: 1
# Building blocks:
#     Node 0, Type 0, BuildingBlock: WUSLED_clean_sbu_0, # of connection points: 3
#     Node 1, Type 0, BuildingBlock: WUSLED_clean_sbu_0, # of connection points: 3
#     Node 2, Type 0, BuildingBlock: WUSLED_clean_sbu_0, # of connection points: 3
#     Node 3, Type 0, BuildingBlock: WUSLED_clean_sbu_0, # of connection points: 3
#     Node 4, Type 0, BuildingBlock: WUSLED_clean_sbu_0, # of connection points: 3
#     Node 5, Type 0, BuildingBlock: WUSLED_clean_sbu_0, # of connection points: 3
#     Node 6, Type 0, BuildingBlock: WUSLED_clean_sbu_0, # of connection points: 3
#     Node 7, Type 0, BuildingBlock: WUSLED_clean_sbu_0, # of connection points: 3
#     Node 8, Type 1, BuildingBlock: BETDAH_clean_sbu_0, # of connection points: 6
#     Node 9, Type 1, BuildingBlock: BETDAH_clean_sbu_0, # of connection points: 6
#     Node 10, Type 1, BuildingBlock: BETDAH_clean_sbu_0, # of connection points: 6
#     Node 11, Type 1, BuildingBlock: BETDAH_clean_sbu_0, # of connection points: 6
#     Edge 12, Type (0, 1), BuildingBlock: XUDNAN_clean_linker_2, # of connection points: 2
#     Edge 13, Type (0, 1), BuildingBlock: XUDNAN_clean_linker_2, # of connection points: 2
#     Edge 14, Type (0, 1), BuildingBlock: XUDNAN_clean_linker_2, # of connection points: 2
#     Edge 15, Type (0, 1), BuildingBlock: XUDNAN_clean_linker_2, # of connection points: 2
#     Edge 16, Type (0, 1), BuildingBlock: XUDNAN_clean_linker_2, # of connection points: 2
#     Edge 17, Type (0, 1), BuildingBlock: XUDNAN_clean_linker_2, # of connection points: 2
#     Edge 18, Type (0, 1), BuildingBlock: XUDNAN_clean_linker_2, # of connection points: 2
#     Edge 19, Type (0, 1), BuildingBlock: XUDNAN_clean_linker_2, # of connection points: 2
#     Edge 20, Type (0, 1), BuildingBlock: XUDNAN_clean_linker_2, # of connection points: 2
#     Edge 21, Type (0, 1), BuildingBlock: XUDNAN_clean_linker_2, # of connection points: 2
#     Edge 22, Type (0, 1), BuildingBlock: XUDNAN_clean_linker_2, # of connection points: 2
#     Edge 23, Type (0, 1), BuildingBlock: XUDNAN_clean_linker_2, # of connection points: 2
#     Edge 24, Type (0, 1), BuildingBlock: XUDNAN_clean_linker_2, # of connection points: 2
#     Edge 25, Type (0, 1), BuildingBlock: XUDNAN_clean_linker_2, # of connection points: 2
#     Edge 26, Type (0, 1), BuildingBlock: XUDNAN_clean_linker_2, # of connection points: 2
#     Edge 27, Type (0, 1), BuildingBlock: XUDNAN_clean_linker_2, # of connection points: 2
#     Edge 28, Type (0, 1), BuildingBlock: XUDNAN_clean_linker_2, # of connection points: 2
#     Edge 29, Type (0, 1), BuildingBlock: XUDNAN_clean_linker_2, # of connection points: 2
#     Edge 30, Type (0, 1), BuildingBlock: XUDNAN_clean_linker_2, # of connection points: 2
#     Edge 31, Type (0, 1), BuildingBlock: XUDNAN_clean_linker_2, # of connection points: 2
#     Edge 32, Type (0, 1), BuildingBlock: XUDNAN_clean_linker_2, # of connection points: 2
#     Edge 33, Type (0, 1), BuildingBlock: XUDNAN_clean_linker_2, # of connection points: 2
#     Edge 34, Type (0, 1), BuildingBlock: XUDNAN_clean_linker_2, # of connection points: 2
#     Edge 35, Type (0, 1), BuildingBlock: XUDNAN_clean_linker_2, # of connection points: 2
# Relax obj value: 0.414
# Max RMSD: 0.267
# Mean RMSD: 0.249
data_MOF--net-zzz--node1-WUSLED_clean_sbu_0--node2-BETDAH_clean_sbu_0--edge1-XUDNAN_clean_linker_2
_symmetry_space_group_name_H-M    P1
_symmetry_Int_Tables_number       1
_symmetry_cell_setting            triclinic
loop_
_symmetry_equiv_pos_as_xyz
'x, y, z'
_cell_length_a     63.950379
_cell_length_b     64.258734
_cell_length_c     19.31676
_cell_angle_alpha  90.064095
_cell_angle_beta   90.020133
_cell_angle_gamma 90.145235
loop_
_atom_site_label
_atom_site_type_symbol
_atom_site_fract_x
_atom_site_fract_y
_atom_site_fract_z
_atom_type_partial_charge
C0 C 0.79216 0.54483 0.35935 0.0
C1 C 0.79582 0.52395 0.37704 0.0
C2 C 0.83017 0.53307 0.42397 0.0
C3 C 0.8146 0.51815 0.40913 0.0
C4 C 0.82682 0.55377 0.40311 0.0
C5 C 0.80799 0.55958 0.37139 0.0
U6 U 0.7408 0.53726 0.25644 0.0
O7 O 0.72328 0.56062 0.1972 0.0
O8 O 0.70846 0.5453 0.28601 0.0
C9 C 0.70598 0.55778 0.23273 0.0
C10 C 0.77154 0.55184 0.33335 0.0
C11 C 0.68674 0.55474 0.19142 0.0
C12 C 0.65015 0.56313 0.17109 0.0
C13 C 0.66838 0.5651 0.21079 0.0
C14 C 0.66835 0.54027 0.09183 0.0
C15 C 0.6499 0.55078 0.11084 0.0
C16 C 0.68657 0.54218 0.13183 0.0
C17 C 0.76476 0.48657 0.19776 0.0
C18 C 0.77957 0.45306 0.16721 0.0
C19 C 0.80236 0.482 0.19596 0.0
C20 C 0.78495 0.49444 0.20854 0.0
C21 C 0.79995 0.46127 0.17328 0.0
C22 C 0.76212 0.46568 0.17894 0.0
C23 C 0.74672 0.50062 0.20023 0.0
O24 O 0.77005 0.55545 0.26656 0.0
O25 O 0.75511 0.54212 0.35862 0.0
O26 O 0.73793 0.50305 0.26121 0.0
O27 O 0.74947 0.51823 0.16687 0.0
H28 H 0.78395 0.51221 0.36781 0.0
H29 H 0.81678 0.50201 0.42349 0.0
H30 H 0.83837 0.56569 0.4141 0.0
H31 H 0.80552 0.57577 0.35824 0.0
H32 H 0.63634 0.5716 0.18694 0.0
H33 H 0.66819 0.57493 0.25641 0.0
H34 H 0.66866 0.53041 0.04635 0.0
H35 H 0.70054 0.53395 0.11601 0.0
H36 H 0.77709 0.43709 0.15118 0.0
H37 H 0.81766 0.48913 0.20019 0.0
H38 H 0.78729 0.51055 0.22329 0.0
H39 H 0.74659 0.45933 0.17093 0.0
C40 C 0.99689 0.78976 0.40082 0.0
C41 C 1.00863 0.79364 0.46127 0.0
C42 C 1.00591 0.83125 0.44379 0.0
C43 C 1.01308 0.81413 0.48249 0.0
C44 C 0.99405 0.82728 0.38377 0.0
C45 C 0.98957 0.80691 0.36277 0.0
U46 U 1.00631 0.73815 0.30158 0.0
O47 O 0.99915 0.70532 0.32683 0.0
O48 O 0.98317 0.72073 0.24054 0.0
C49 C 0.98669 0.70314 0.27305 0.0
C50 C 0.99099 0.76817 0.37944 0.0
C51 C 0.99027 0.68476 0.22819 0.0
C52 C 0.98433 0.64797 0.20455 0.0
C53 C 0.98226 0.66532 0.24802 0.0
C54 C 1.00257 0.66917 0.12044 0.0
C55 C 0.99437 0.64968 0.13991 0.0
C56 C 1.00063 0.6865 0.16421 0.0
C57 C 0.05615 0.76443 0.24666 0.0
C58 C 0.08066 0.78695 0.18713 0.0
C59 C 0.06274 0.79929 0.28982 0.0
C60 C 0.05269 0.78008 0.29602 0.0
C61 C 0.07619 0.80321 0.23369 0.0
C62 C 0.07066 0.7677 0.19357 0.0
C63 C 0.04265 0.746 0.24481 0.0
O64 O 0.98618 0.76557 0.31382 0.0
O65 O 1.00206 0.75265 0.4045 0.0
O66 O 0.04064 0.73593 0.30367 0.0
O67 O 0.02477 0.74898 0.21283 0.0
H68 H 0.01429 0.78085 0.4925 0.0
H69 H 0.02234 0.81655 0.52876 0.0
H70 H 0.98785 0.83999 0.3533 0.0
H71 H 0.98011 0.80464 0.31684 0.0
H72 H 0.97763 0.63329 0.22099 0.0
H73 H 0.97411 0.66362 0.29686 0.0
H74 H 1.01065 0.67101 0.07154 0.0
H75 H 1.00702 0.70132 0.14772 0.0
H76 H 0.09069 0.78952 0.14279 0.0
H77 H 0.05913 0.81144 0.32685 0.0
H78 H 0.04142 0.77782 0.33723 0.0
H79 H 0.07335 0.75581 0.1548 0.0
C80 C 0.73475 1.00218 0.36906 0.0
C81 C 0.7283 0.02277 0.38117 0.0
C82 C 0.69455 1.01049 0.42457 0.0
C83 C 0.70845 0.02686 0.40884 0.0
C84 C 0.70075 0.98998 0.40961 0.0
C85 C 0.72064 0.98589 0.38245 0.0
U86 U 0.785 1.00939 0.25863 0.0
O87 O 0.8181 1.00867 0.29123 0.0
O88 O 0.8059 0.98482 0.22057 0.0
C89 C 0.82251 0.99283 0.25066 0.0
C90 C 0.75646 0.99711 0.34794 0.0
C91 C 0.84112 0.99511 0.20598 0.0
C92 C 0.87773 0.98732 0.18434 0.0
C93 C 0.86023 0.98677 0.22779 0.0
C94 C 0.85741 1.00511 0.09689 0.0
C95 C 0.8765 0.99619 0.1178 0.0
C96 C 0.83988 1.00457 0.14056 0.0
C97 C 0.75537 0.05052 0.15638 0.0
C98 C 0.73855 0.07894 0.09572 0.0
C99 C 0.71756 0.05152 0.14687 0.0
C100 C 0.73568 0.04205 0.17184 0.0
C101 C 0.71882 0.06976 0.10664 0.0
C102 C 0.75668 0.06931 0.12005 0.0
C103 C 0.77454 0.03895 0.17208 0.0
O104 O 0.75887 0.98848 0.28673 0.0
O105 O 0.77096 0.01101 0.36235 0.0
O106 O 0.78321 0.04275 0.23251 0.0
O107 O 0.77382 0.01905 0.15648 0.0
H108 H 0.73876 0.03568 0.37086 0.0
H109 H 0.70407 0.04286 0.41874 0.0
H110 H 0.69055 0.97699 0.42151 0.0
H111 H 0.72525 0.96988 0.37379 0.0
H112 H 0.89223 0.98066 0.20283 0.0
H113 H 0.86154 0.97948 0.27816 0.0
H114 H 0.8558 0.01193 0.04593 0.0
H115 H 0.82525 0.01112 0.1227 0.0
H116 H 0.74007 0.09319 0.06625 0.0
H117 H 0.70273 0.04384 0.15583 0.0
H118 H 0.73439 0.02758 0.2003 0.0
H119 H 0.77178 0.07612 0.10822 0.0
C120 C 0.49675 0.7435 0.38286 0.0
C121 C 0.49724 0.72659 0.3365 0.0
C122 C 0.50499 0.70248 0.43083 0.0
C123 C 0.50122 0.7064 0.36021 0.0
C124 C 0.50419 0.71934 0.47735 0.0
C125 C 0.50012 0.73959 0.45361 0.0
U126 U 0.51071 0.79045 0.26956 0.0
O127 O 0.50988 0.82442 0.2874 0.0
O128 O 0.48983 0.8103 0.20812 0.0
C129 C 0.49688 0.82766 0.23572 0.0
C130 C 0.49263 0.76511 0.35834 0.0
C131 C 0.50286 0.84406 0.18572 0.0
C132 C 0.49932 0.87962 0.14334 0.0
C133 C 0.49452 0.86415 0.19211 0.0
C134 C 0.52094 0.85507 0.08103 0.0
C135 C 0.5126 0.87531 0.08697 0.0
C136 C 0.51618 0.83967 0.12989 0.0
C137 C 0.55306 0.75387 0.21876 0.0
C138 C 0.56847 0.72342 0.16512 0.0
C139 C 0.55211 0.72057 0.27791 0.0
C140 C 0.54786 0.74185 0.27696 0.0
C141 C 0.56167 0.71104 0.22076 0.0
C142 C 0.56406 0.74473 0.16398 0.0
C143 C 0.54389 0.77464 0.21048 0.0
O144 O 0.50627 0.77942 0.37701 0.0
O145 O 0.4866 0.76709 0.2936 0.0
O146 O 0.5253 0.77442 0.18148 0.0
O147 O 0.54491 0.78679 0.26522 0.0
H148 H 0.49466 0.72891 0.28164 0.0
H149 H 0.50126 0.69378 0.32302 0.0
H150 H 0.50712 0.71697 0.53199 0.0
H151 H 0.49974 0.75227 0.49061 0.0
H152 H 0.49279 0.89501 0.15028 0.0
H153 H 0.48416 0.86787 0.23472 0.0
H154 H 0.53091 0.85097 0.03787 0.0
H155 H 0.5227 0.82423 0.12362 0.0
H156 H 0.57563 0.71637 0.12006 0.0
H157 H 0.54677 0.71133 0.32136 0.0
H158 H 0.53931 0.74864 0.31974 0.0
H159 H 0.56801 0.75375 0.11844 0.0
C160 C 0.23842 0.51429 0.94646 0.0
C161 C 0.2245 0.53098 0.9374 0.0
C162 C 0.19668 0.50712 0.90239 0.0
C163 C 0.20388 0.52745 0.91534 0.0
C164 C 0.21078 0.49049 0.90982 0.0
C165 C 0.23143 0.49404 0.93094 0.0
U166 U 0.2825 0.50564 0.07861 0.0
O167 O 0.31649 0.50174 0.06411 0.0
O168 O 0.3045 0.52844 0.12264 0.0
C169 C 0.32107 0.51767 0.10432 0.0
C170 C 0.25994 0.51829 0.97272 0.0
C171 C 0.33732 0.51423 0.15834 0.0
C172 C 0.37145 0.50044 0.19062 0.0
C173 C 0.35515 0.50239 0.14267 0.0
C174 C 0.35242 0.52189 0.2718 0.0
C175 C 0.37049 0.51045 0.25545 0.0
C176 C 0.33606 0.5238 0.22385 0.0
C177 C 0.24214 0.47202 0.16546 0.0
C178 C 0.21375 0.45612 0.22955 0.0
C179 C 0.20686 0.4728 0.11938 0.0
C180 C 0.22806 0.47755 0.1131 0.0
C181 C 0.19935 0.46266 0.17887 0.0
C182 C 0.23501 0.4608 0.22284 0.0
C183 C 0.2636 0.48002 0.16366 0.0
O184 O 0.26125 0.52863 0.03135 0.0
O185 O 0.27326 0.50274 0.96921 0.0
O186 O 0.27507 0.47364 0.11133 0.0
O187 O 0.26502 0.50015 0.17462 0.0
H188 H 0.2295 0.54676 0.94835 0.0
H189 H 0.1934 0.54058 0.91046 0.0
H190 H 0.20581 0.47467 0.89951 0.0
H191 H 0.24173 0.48081 0.93675 0.0
H192 H 0.38494 0.49122 0.17647 0.0
H193 H 0.35668 0.49493 0.09262 0.0
H194 H 0.35119 0.53003 0.32075 0.0
H195 H 0.32267 0.5332 0.23771 0.0
H196 H 0.20845 0.44857 0.2765 0.0
H197 H 0.19621 0.47792 0.07923 0.0
H198 H 0.23338 0.48646 0.06912 0.0
H199 H 0.24569 0.45657 0.26401 0.0
C200 C 0.02804 0.237 0.013 0.0
C201 C 0.03976 0.2219 0.04855 0.0
C202 C 0.02512 0.19401 0.97687 0.0
C203 C 0.03833 0.20081 0.03081 0.0
C204 C 1.01333 0.20909 0.94127 0.0
C205 C 0.01482 0.2303 0.959 0.0
U206 U 0.02045 0.28903 0.11537 0.0
O207 O 0.04542 0.31116 0.14207 0.0
O208 O 0.0188 0.32173 0.08004 0.0
C209 C 0.03524 0.3272 0.11683 0.0
C210 C 0.03141 0.25967 0.02698 0.0
C211 C 0.03234 0.34488 0.16545 0.0
C212 C 0.0291 0.38215 0.18653 0.0
C213 C 0.03132 0.36535 0.14057 0.0
C214 C 0.02886 0.35824 0.28315 0.0
C215 C 0.02799 0.37887 0.25867 0.0
C216 C 0.03086 0.34149 0.2372 0.0
C217 C 0.98228 0.26164 0.23967 0.0
C218 C 0.95599 0.24794 0.31777 0.0
C219 C 0.97779 0.22438 0.25143 0.0
C220 C 0.98779 0.24134 0.22061 0.0
C221 C 0.96209 0.22752 0.30151 0.0
C222 C 0.96606 0.26487 0.28711 0.0
C223 C 0.99408 0.2796 0.21445 0.0
O224 O 0.0157 0.27246 0.01594 0.0
O225 O 0.04217 0.26448 0.08278 0.0
O226 O 0.01449 0.27843 0.22142 0.0
O227 O 0.98817 0.28714 0.15438 0.0
H228 H 0.05049 0.22636 0.08936 0.0
H229 H 0.04806 0.18987 0.05859 0.0
H230 H 1.00288 0.20453 0.89982 0.0
H231 H 1.00584 0.2415 0.92962 0.0
H232 H 0.02811 0.3977 0.1653 0.0
H233 H 0.03228 0.36837 0.0855 0.0
H234 H 0.0284 0.35496 0.33807 0.0
H235 H 0.03148 0.32586 0.25803 0.0
H236 H 0.94382 0.25083 0.35551 0.0
H237 H 0.98307 0.20886 0.23846 0.0
H238 H 1.0003 0.23863 0.18387 0.0
H239 H 0.9616 0.2805 0.30201 0.0
C240 C 0.28489 0.02911 0.96247 0.0
C241 C 0.28906 1.00882 0.93874 0.0
C242 C 0.32326 0.01979 0.89485 0.0
C243 C 0.30799 1.00425 0.9052 0.0
C244 C 0.31927 0.0399 0.92058 0.0
C245 C 0.30031 0.04449 0.95369 0.0
U246 U 0.23808 0.02151 0.08769 0.0
O247 O 0.22045 0.04542 0.14484 0.0
O248 O 0.2043 0.02554 0.06969 0.0
C249 C 0.20235 0.03936 0.11956 0.0
C250 C 0.26428 0.03497 0.99242 0.0
C251 C 0.18606 0.03478 0.1717 0.0
C252 C 0.15417 0.04447 0.2329 0.0
C253 C 0.16973 0.0489 0.18374 0.0
C254 C 0.17127 0.01185 0.25913 0.0
C255 C 0.15461 0.02575 0.27069 0.0
C256 C 0.1868 0.01632 0.21028 0.0
C257 C 0.26872 0.97579 0.16008 0.0
C258 C 0.2979 0.96317 0.22796 0.0
C259 C 0.29797 0.95874 0.10338 0.0
C260 C 0.27844 0.96845 0.09963 0.0
C261 C 0.30824 0.95653 0.16747 0.0
C262 C 0.27832 0.97251 0.22423 0.0
C263 C 0.24975 0.98865 0.15772 0.0
O264 O 0.24837 0.02258 0.97902 0.0
O265 O 0.26437 0.04184 0.05656 0.0
O266 O 0.25246 1.00779 0.17999 0.0
O267 O 0.23823 0.98749 0.10138 0.0
H268 H 0.27757 0.99656 0.94495 0.0
H269 H 0.31062 0.98852 0.88704 0.0
H270 H 0.33051 0.05232 0.91308 0.0
H271 H 0.29749 0.06027 0.97116 0.0
H272 H 0.14154 0.05546 0.24014 0.0
H273 H 0.16894 0.0633 0.15473 0.0
H274 H 0.17236 0.99747 0.28808 0.0
H275 H 0.19939 1.00531 0.20241 0.0
H276 H 0.30535 0.96227 0.27818 0.0
H277 H 0.30526 0.95356 0.05585 0.0
H278 H 0.27134 0.9708 0.04935 0.0
H279 H 0.27111 0.97816 0.27141 0.0
C280 C 0.49644 0.29956 0.01147 0.0
C281 C 0.48384 0.3148 0.0428 0.0
C282 C 0.50014 0.3424 0.97394 0.0
C283 C 0.48566 0.33581 0.02442 0.0
C284 C 0.51284 0.32717 0.9426 0.0
C285 C 0.51097 0.30604 0.96098 0.0
U286 U 0.50188 0.24596 0.10871 0.0
O287 O 0.50146 0.21392 0.0669 0.0
O288 O 0.47586 0.22476 0.13287 0.0
C289 C 0.48486 0.20871 0.10316 0.0
C290 C 0.49237 0.27697 0.0248 0.0
C291 C 0.48695 0.18997 0.14733 0.0
C292 C 0.4841 0.15243 0.16203 0.0
C293 C 0.48236 0.17021 0.12038 0.0
C294 C 0.49493 0.1739 0.25865 0.0
C295 C 0.49039 0.15401 0.2318 0.0
C296 C 0.49333 0.19166 0.21681 0.0
C297 C 0.54178 0.26803 0.24095 0.0
C298 C 0.56611 0.27761 0.33187 0.0
C299 C 0.54995 0.30433 0.26135 0.0
C300 C 0.53937 0.28903 0.22351 0.0
C301 C 0.56299 0.29876 0.31712 0.0
C302 C 0.55557 0.26236 0.29398 0.0
C303 C 0.52876 0.25187 0.20947 0.0
O304 O 0.50742 0.26356 0.0119 0.0
O305 O 0.48165 0.27226 0.08077 0.0
O306 O 0.53427 0.24545 0.1475 0.0
O307 O 0.50849 0.25438 0.21652 0.0
H308 H 0.47207 0.31049 0.08047 0.0
H309 H 0.47521 0.34684 0.04876 0.0
H310 H 0.52426 0.33156 0.90388 0.0
H311 H 0.52065 0.29473 0.93461 0.0
H312 H 0.4803 0.13742 0.13973 0.0
H313 H 0.47737 0.16853 0.06706 0.0
H314 H 0.50009 0.17571 0.31173 0.0
H315 H 0.49709 0.20673 0.23877 0.0
H316 H 0.57617 0.27289 0.37413 0.0
H317 H 0.54703 0.32053 0.24937 0.0
H318 H 0.52869 0.29361 0.18273 0.0
H319 H 0.55757 0.24615 0.30787 0.0
Ho320 Ho 0.03377 1.00085 0.77412 0.0
Ho321 Ho 1.01182 0.02186 0.65544 0.0
C322 C 0.02051 0.97167 0.65077 0.0
C323 C 0.0468 0.98788 0.89316 0.0
C324 C 0.05547 0.96925 0.92696 0.0
C325 C 0.04379 0.95078 0.93221 0.0
C326 C 0.05143 0.93408 0.97063 0.0
C327 C 0.07088 0.93549 1.00425 0.0
C328 C 0.08288 0.95366 0.99703 0.0
C329 C 0.07515 0.97047 0.95904 0.0
C330 C 0.05833 1.00719 0.66274 0.0
C331 C 0.02487 0.05137 0.77817 0.0
C332 C 0.99753 0.03584 0.5397 0.0
C333 C 0.98494 0.054 0.52076 0.0
C334 C 0.98914 0.06438 0.45872 0.0
C335 C 0.9788 0.08286 0.44302 0.0
C336 C 0.96394 0.09122 0.48906 0.0
C337 C 0.95926 0.08033 0.55023 0.0
C338 C 0.96977 0.06193 0.56618 0.0
C339 C 0.98722 0.01327 0.76602 0.0
O340 O 0.02384 0.97167 0.71842 0.0
O341 O 0.01843 0.98932 0.61599 0.0
O342 O 0.05883 0.99745 0.84864 0.0
O343 O 0.02722 0.98715 0.87359 0.0
O344 O 0.05949 0.9911 0.70296 0.0
O345 O 0.0449 0.01993 0.6857 0.0
O346 O 0.02023 0.05126 0.71162 0.0
O347 O 0.0285 0.03384 0.81209 0.0
O348 O 0.98804 0.02153 0.5762 0.0
O349 O 0.01635 0.04002 0.56244 0.0
O350 O 0.98535 0.02985 0.72842 0.0
O351 O 1.00114 1.00172 0.74075 0.0
H352 H 0.02859 0.94934 0.90792 0.0
H353 H 0.04203 0.92008 0.97456 0.0
H354 H 0.09788 0.95513 0.02265 0.0
H355 H 0.08435 0.98462 0.95608 0.0
H356 H 1.00094 0.05856 0.42346 0.0
H357 H 0.98317 0.09104 0.3962 0.0
H358 H 0.9478 0.08625 0.58648 0.0
H359 H 0.96639 0.05419 0.61471 0.0
Ho360 Ho 0.51113 0.02689 0.7135 0.0
Ho361 Ho 0.50512 0.99747 0.59492 0.0
C362 C 0.55132 0.01434 0.61684 0.0
C363 C 0.52381 0.04498 0.82595 0.0
C364 C 0.54402 0.05299 0.85079 0.0
C365 C 0.56276 0.04512 0.82389 0.0
C366 C 0.58191 0.0532 0.84549 0.0
C367 C 0.58269 0.06902 0.89557 0.0
C368 C 0.56397 0.0766 0.9239 0.0
C369 C 0.5447 0.06875 0.90106 0.0
C370 C 0.5001 0.04559 0.59308 0.0
C371 C 0.46478 0.01103 0.68913 0.0
C372 C 0.49608 0.97741 0.4824 0.0
C373 C 0.47861 0.96907 0.44205 0.0
C374 C 0.45786 0.97169 0.46347 0.0
C375 C 0.44148 0.96477 0.42126 0.0
C376 C 0.4457 0.95525 0.35706 0.0
C377 C 0.46657 0.9522 0.33698 0.0
C378 C 0.48289 0.95905 0.37924 0.0
C379 C 0.51816 0.97947 0.71374 0.0
O380 O 0.54453 0.02169 0.67686 0.0
O381 O 0.53833 1.00597 0.57169 0.0
O382 O 0.51553 0.055 0.77397 0.0
O383 O 0.52255 0.02479 0.81848 0.0
O384 O 0.49365 0.05157 0.65362 0.0
O385 O 0.51269 0.03068 0.60013 0.0
O386 O 0.4715 1.00378 0.6286 0.0
O387 O 0.47786 0.01885 0.73516 0.0
O388 O 0.50011 0.9683 0.54129 0.0
O389 O 0.49744 0.99768 0.48608 0.0
O390 O 0.52521 0.97481 0.65286 0.0
O391 O 0.50423 0.99328 0.70875 0.0
H392 H 0.56264 0.03259 0.7866 0.0
H393 H 0.59617 0.04682 0.82395 0.0
H394 H 0.56426 0.08872 0.96292 0.0
H395 H 0.53037 0.07496 0.92261 0.0
H396 H 0.45435 0.97947 0.51183 0.0
H397 H 0.42554 0.96758 0.43766 0.0
H398 H 0.47028 0.94477 0.28814 0.0
H399 H 0.49888 0.9569 0.3622 0.0
Ho400 Ho 0.49264 0.53299 0.75157 0.0
Ho401 Ho 0.52106 0.51326 0.64509 0.0
C402 C 0.51439 0.56176 0.63492 0.0
C403 C 0.47903 0.55502 0.85382 0.0
C404 C 0.49091 0.56642 0.90683 0.0
C405 C 0.51058 0.57486 0.8907 0.0
C406 C 0.52246 0.58476 0.94152 0.0
C407 C 0.51499 0.58634 1.00978 0.0
C408 C 0.49541 0.57755 0.02606 0.0
C409 C 0.48348 0.56764 0.97492 0.0
C410 C 0.47222 0.51793 0.63875 0.0
C411 C 0.50296 0.48418 0.76924 0.0
C412 C 0.53701 0.49191 0.54518 0.0
C413 C 0.54745 0.47186 0.53685 0.0
C414 C 0.54631 0.46183 0.47278 0.0
C415 C 0.55514 0.44222 0.46412 0.0
C416 C 0.56546 0.43232 0.51941 0.0
C417 C 0.56682 0.44263 0.58358 0.0
C418 C 0.55779 0.46225 0.59233 0.0
C419 C 0.54144 0.53002 0.75525 0.0
O420 O 0.5088 0.5607 0.7009 0.0
O421 O 0.51664 0.54466 0.59777 0.0
O422 O 0.48052 0.56212 0.79068 0.0
O423 O 0.48085 0.53484 0.8565 0.0
O424 O 0.46403 0.51883 0.70009 0.0
O425 O 0.4897 0.52688 0.6401 0.0
O426 O 0.51138 0.48461 0.70659 0.0
O427 O 0.49646 0.50143 0.79974 0.0
O428 O 0.54734 0.50621 0.57929 0.0
O429 O 0.51723 0.49097 0.56231 0.0
O430 O 0.54907 0.52924 0.69314 0.0
O431 O 0.52436 0.52027 0.7564 0.0
H432 H 0.51684 0.57375 0.83873 0.0
H433 H 0.53727 0.59163 0.9267 0.0
H434 H 0.4893 0.57835 0.07826 0.0
H435 H 0.46851 0.56086 0.98855 0.0
H436 H 0.53818 0.46899 0.42973 0.0
H437 H 0.55321 0.43455 0.41457 0.0
H438 H 0.57468 0.43547 0.6271 0.0
H439 H 0.55865 0.46979 0.64245 0.0
Ho440 Ho 0.99999 0.49731 0.77002 0.0
Ho441 Ho 0.01606 0.52668 0.64488 0.0
C442 C 0.9666 0.51588 0.65933 0.0
C443 C 0.98643 0.48455 0.88813 0.0
C444 C 0.9689 0.47195 0.91341 0.0
C445 C 0.95102 0.46899 0.87256 0.0
C446 C 0.93366 0.45856 0.89953 0.0
C447 C 0.93396 0.45081 0.9677 0.0
C448 C 0.95234 0.45301 1.00715 0.0
C449 C 0.96965 0.46355 0.9802 0.0
C450 C 1.00608 0.47576 0.64924 0.0
C451 C 0.04945 0.50408 0.74875 0.0
C452 C 0.0332 0.53918 0.53158 0.0
C453 C 0.04833 0.52907 0.48527 0.0
C454 C 0.04613 0.531 0.41331 0.0
C455 C 0.05859 0.51916 0.36872 0.0
C456 C 0.07318 0.505 0.39567 0.0
C457 C 0.0756 0.50341 0.46772 0.0
C458 C 0.06338 0.5154 0.51209 0.0
C459 C 1.00406 0.54634 0.76256 0.0
O460 O 0.9699 0.50831 0.72233 0.0
O461 O 0.98197 0.52218 0.61804 0.0
O462 O 1.0007 0.4746 0.85241 0.0
O463 O 0.9814 0.50262 0.8612 0.0
O464 O 0.9989 0.46718 0.70536 0.0
O465 O 1.00886 0.49456 0.66314 0.0
O466 O 0.04601 0.51241 0.68679 0.0
O467 O 0.0342 0.49936 0.79235 0.0
O468 O 0.04002 0.54469 0.59303 0.0
O469 O 0.01492 0.53001 0.53378 0.0
O470 O 1.00313 0.55474 0.70131 0.0
O471 O 1.01305 0.52897 0.75781 0.0
H472 H 0.95024 0.47532 0.82065 0.0
H473 H 0.9197 0.45745 0.86801 0.0
H474 H 0.95317 0.447 0.05945 0.0
H475 H 0.98344 0.46558 0.01214 0.0
H476 H 0.03442 0.54127 0.39169 0.0
H477 H 0.05651 0.5207 0.3133 0.0
H478 H 0.08702 0.4929 0.48982 0.0
H479 H 0.06528 0.51348 0.56736 0.0
H480 H 0.13464 0.05103 0.36698 0.0
H481 H 0.13582 0.98787 0.28695 0.0
H482 H 0.10919 0.97756 0.37226 0.0
H483 H 0.12953 0.03777 0.54344 0.0
H484 H 0.1119 0.05859 0.5655 0.0
H485 H 0.12996 0.06169 0.49478 0.0
H486 H 0.09919 0.07018 0.41241 0.0
H487 H 0.08101 0.06708 0.483 0.0
H488 H 0.0777 0.0521 0.40478 0.0
H489 H 0.08525 0.97299 0.47127 0.0
H490 H 0.06467 0.97448 0.57871 0.0
H491 H 0.0765 0.04078 0.59464 0.0
C492 C 0.12901 0.03513 0.36665 0.0
C493 C 0.13753 0.02022 0.32032 0.0
C494 C 0.1299 0.9995 0.32243 0.0
C495 C 0.1146 0.99352 0.37037 0.0
C496 C 0.10682 1.00844 0.41586 0.0
C497 C 0.11361 0.02885 0.4144 0.0
C498 C 0.10321 0.04143 0.47167 0.0
C499 C 0.11963 0.05039 0.52181 0.0
C500 C 0.08946 0.05872 0.44112 0.0
C501 C 0.08996 0.02475 0.50641 0.0
C502 C 0.09229 1.00588 0.47277 0.0
C503 C 0.08301 0.98773 0.49733 0.0
C504 C 0.07133 0.98874 0.55846 0.0
C505 C 0.0687 1.00778 0.59425 0.0
C506 C 0.07783 0.02614 0.56723 0.0
H507 H 0.47864 0.14839 0.36845 0.0
H508 H 0.50752 0.11652 0.19502 0.0
H509 H 0.51183 0.08511 0.26702 0.0
H510 H 0.51157 0.12695 0.50069 0.0
H511 H 0.49093 0.12464 0.56375 0.0
H512 H 0.48962 0.14447 0.49811 0.0
H513 H 0.45336 0.13061 0.4597 0.0
H514 H 0.45458 0.11068 0.52512 0.0
H515 H 0.45052 0.10362 0.43578 0.0
H516 H 0.51454 0.05759 0.35937 0.0
H517 H 0.51474 0.03579 0.46456 0.0
H518 H 0.48321 0.08482 0.57801 0.0
C519 C 0.48591 0.13482 0.34563 0.0
C520 C 0.49268 0.13498 0.27572 0.0
C521 C 0.50194 0.11677 0.24793 0.0
C522 C 0.50455 0.09885 0.2886 0.0
C523 C 0.49772 0.09923 0.35712 0.0
C524 C 0.48851 0.1167 0.38543 0.0
C525 C 0.48265 0.113 0.46066 0.0
C526 C 0.49439 0.12817 0.50863 0.0
C527 C 0.45886 0.11457 0.47089 0.0
C528 C 0.4902 0.0908 0.47042 0.0
C529 C 0.49887 0.08318 0.40999 0.0
C530 C 0.50759 0.06333 0.40672 0.0
C531 C 0.50757 0.05102 0.46675 0.0
C532 C 0.49875 0.05844 0.5293 0.0
C533 C 0.48982 0.07858 0.53076 0.0
H534 H 0.37036 0.50754 0.39879 0.0
H535 H 0.41211 0.51265 0.22228 0.0
H536 H 0.4424 0.51279 0.30094 0.0
H537 H 0.39888 0.54201 0.50906 0.0
H538 H 0.39406 0.52738 0.58703 0.0
H539 H 0.37557 0.52636 0.51679 0.0
H540 H 0.37859 0.48618 0.51387 0.0
H541 H 0.39715 0.48709 0.58405 0.0
H542 H 0.40395 0.47435 0.504 0.0
H543 H 0.46816 0.51448 0.39808 0.0
H544 H 0.48769 0.51755 0.50777 0.0
H545 H 0.42979 0.51121 0.62289 0.0
C546 C 0.38586 0.50865 0.3766 0.0
C547 C 0.38874 0.50987 0.30391 0.0
C548 C 0.40938 0.51123 0.27739 0.0
C549 C 0.42675 0.51146 0.32176 0.0
C550 C 0.42334 0.51028 0.39286 0.0
C551 C 0.40344 0.50887 0.42028 0.0
C552 C 0.40418 0.50844 0.4989 0.0
C553 C 0.39248 0.52716 0.52974 0.0
C554 C 0.39545 0.48778 0.52684 0.0
C555 C 0.42758 0.51013 0.51129 0.0
C556 C 0.43831 0.5111 0.44926 0.0
C557 C 0.45995 0.51352 0.44696 0.0
C558 C 0.47093 0.51521 0.50959 0.0
C559 C 0.46032 0.5144 0.57388 0.0
C560 C 0.43836 0.5116 0.57457 0.0
H561 H 1.00646 0.38054 0.38292 0.0
H562 H 0.04583 0.41795 0.24824 0.0
H563 H 0.04338 0.44718 0.33073 0.0
H564 H 0.9729 0.42156 0.44314 0.0
H565 H 0.97152 0.41169 0.53032 0.0
H566 H 0.97553 0.39405 0.45902 0.0
H567 H 1.00919 0.38017 0.51743 0.0
H568 H 1.00525 0.3977 0.589 0.0
H569 H 0.02955 0.39821 0.54176 0.0
H570 H 0.03682 0.47254 0.42976 0.0
H571 H 0.02787 0.49086 0.53875 0.0
H572 H 0.99458 0.43634 0.61073 0.0
C573 C 0.01472 0.39478 0.3706 0.0
C574 C 0.02625 0.39679 0.30826 0.0
C575 C 0.03651 0.41598 0.29455 0.0
C576 C 0.03534 0.4327 0.34146 0.0
C577 C 0.02391 0.43008 0.4023 0.0
C578 C 0.01388 0.41155 0.41708 0.0
C579 C 1.00316 0.41246 0.48705 0.0
C580 C 0.97936 0.40978 0.47939 0.0
C581 C 1.01234 0.39617 0.53674 0.0
C582 C 1.00876 0.43438 0.50956 0.0
C583 C 0.0206 0.44438 0.45974 0.0
C584 C 0.02755 0.46481 0.46897 0.0
C585 C 0.02236 0.47516 0.53079 0.0
C586 C 1.01053 0.46509 0.58281 0.0
C587 C 1.00365 0.44444 0.57178 0.0
H588 H 0.89064 0.02637 0.02659 0.0
H589 H 0.90375 0.9638 0.09903 0.0
H590 H 0.93388 0.96183 0.01986 0.0
H591 H 0.90307 0.0169 0.84788 0.0
H592 H 0.91479 0.04211 0.83431 0.0
H593 H 0.89457 0.03893 0.89835 0.0
H594 H 0.9192 0.05423 0.9921 0.0
H595 H 0.93951 0.05742 0.92833 0.0
H596 H 0.94451 0.04265 1.00583 0.0
H597 H 0.96221 0.96617 0.93068 0.0
H598 H 0.98656 0.97663 0.83759 0.0
H599 H 0.95524 0.03625 0.82197 0.0
C600 C 0.89979 0.01221 0.02568 0.0
C601 C 0.89481 0.99529 0.06975 0.0
C602 C 0.90738 0.97714 0.06701 0.0
C603 C 0.9245 0.97581 0.0218 0.0
C604 C 0.92896 0.99274 0.97932 0.0
C605 C 0.91699 1.01061 0.9808 0.0
C606 C 0.92507 0.02649 0.92908 0.0
C607 C 0.90838 0.03139 0.87415 0.0
C608 C 0.93251 0.04638 0.96606 0.0
C609 C 0.94332 0.01467 0.89795 0.0
C610 C 0.94531 0.99525 0.92784 0.0
C611 C 0.96084 0.98137 0.90713 0.0
C612 C 0.97465 0.98747 0.85433 0.0
C613 C 0.97287 1.00727 0.82284 0.0
C614 C 0.95701 0.02103 0.84525 0.0
H615 H 0.487 0.90609 0.03238 0.0
H616 H 0.55032 0.88194 0.02273 0.0
H617 H 0.55891 0.90753 0.93234 0.0
H618 H 0.48075 0.91543 0.85335 0.0
H619 H 0.46633 0.93931 0.86328 0.0
H620 H 0.46524 0.91978 0.92992 0.0
H621 H 0.47758 0.94691 0.02044 0.0
H622 H 0.47872 0.96654 0.95395 0.0
H623 H 0.5015 0.96114 1.00584 0.0
H624 H 0.56012 0.93364 0.83703 0.0
H625 H 0.55396 0.95932 0.74421 0.0
H626 H 0.49071 0.96864 0.81846 0.0
C627 C 0.50279 0.9064 0.01225 0.0
C628 C 0.51791 0.89174 0.03476 0.0
C629 C 0.53828 0.8926 1.00581 0.0
C630 C 0.5434 0.90726 0.95474 0.0
C631 C 0.52811 0.92123 0.93328 0.0
C632 C 0.50825 0.92108 0.96133 0.0
C633 C 0.49458 0.93748 0.92718 0.0
C634 C 0.47561 0.92739 0.8913 0.0
C635 C 0.48769 0.954 0.98001 0.0
C636 C 0.50977 0.94657 0.87469 0.0
C637 C 0.52903 0.93693 0.87938 0.0
C638 C 0.54522 0.94153 0.83361 0.0
C639 C 0.54159 0.95612 0.78106 0.0
C640 C 0.52202 0.96616 0.77492 0.0
C641 C 0.506 0.96157 0.82311 0.0
H642 H 0.64634 0.55094 0.9686 0.0
H643 H 0.60945 0.54623 0.15645 0.0
H644 H 0.57734 0.54264 0.08618 0.0
H645 H 0.60805 0.58033 0.86887 0.0
H646 H 0.61406 0.56708 0.78904 0.0
H647 H 0.63398 0.57031 0.8542 0.0
H648 H 0.64008 0.53044 0.85565 0.0
H649 H 0.62024 0.52712 0.79043 0.0
H650 H 0.61828 0.51322 0.87118 0.0
H651 H 0.5494 0.53712 0.99476 0.0
H652 H 0.52812 0.53072 0.88973 0.0
H653 H 0.58305 0.54007 0.76185 0.0
C654 C 0.63153 0.5491 0.99505 0.0
C655 C 0.63049 0.54886 0.06824 0.0
C656 C 0.61069 0.5467 0.10058 0.0
C657 C 0.59235 0.54457 0.06106 0.0
C658 C 0.59397 0.54477 0.9891 0.0
C659 C 0.61306 0.54709 0.95641 0.0
C660 C 0.61061 0.54642 0.87837 0.0
C661 C 0.61706 0.56728 0.84571 0.0
C662 C 0.62303 0.52822 0.84709 0.0
C663 C 0.58724 0.54285 0.8722 0.0
C664 C 0.57789 0.54203 0.93665 0.0
C665 C 0.55656 0.53792 0.94408 0.0
C666 C 0.54459 0.53433 0.88418 0.0
C667 C 0.5539 0.53508 0.81773 0.0
C668 C 0.57545 0.53964 0.81192 0.0
H669 H 0.98892 0.64788 0.99809 0.0
H670 H 1.00409 0.60954 0.1759 0.0
H671 H 1.00684 0.5788 0.09966 0.0
H672 H 0.95774 0.60943 0.9081 0.0
H673 H 0.96696 0.61684 0.82345 0.0
H674 H 0.96594 0.63585 0.89199 0.0
H675 H 1.00529 0.64395 0.87466 0.0
H676 H 1.0064 0.62506 0.80585 0.0
H677 H 0.024 0.62304 0.87843 0.0
H678 H 1.00909 0.55229 1.00328 0.0
H679 H 1.01057 0.53218 0.89421 0.0
H680 H 0.9932 0.58741 0.77908 0.0
C681 C 0.99294 0.63305 0.021 0.0
C682 C 0.99625 0.63119 0.09327 0.0
C683 C 1.00123 0.61138 0.121 0.0
C684 C 1.00291 0.59381 0.07801 0.0
C685 C 0.99947 0.59619 1.00719 0.0
C686 C 0.99456 0.6153 0.97884 0.0
C687 C 0.99172 0.61362 0.90099 0.0
C688 C 0.96925 0.61927 0.87992 0.0
C689 C 1.00781 0.62722 0.86274 0.0
C690 C 0.99597 0.59063 0.88991 0.0
C691 C 1.00041 0.58085 0.95187 0.0
C692 C 1.00545 0.55976 0.95457 0.0
C693 C 1.00617 0.54843 0.89237 0.0
C694 C 1.00174 0.55813 0.82824 0.0
C695 C 0.99642 0.57949 0.82736 0.0
H696 H 0.95138 0.18887 0.25273 0.0
H697 H 0.95521 0.22556 0.44096 0.0
H698 H 0.94784 0.19427 0.51007 0.0
H699 H 0.91138 0.1491 0.31917 0.0
H700 H 0.92455 0.12844 0.27362 0.0
H701 H 0.92425 0.15438 0.23803 0.0
H702 H 0.96474 0.15408 0.23183 0.0
H703 H 0.96519 0.12834 0.26764 0.0
H704 H 0.97958 0.149 0.30938 0.0
H705 H 0.94861 0.15886 0.55901 0.0
H706 H 0.95701 0.1223 0.58352 0.0
H707 H 0.95182 0.10783 0.36463 0.0
C708 C 0.95 0.1904 0.30837 0.0
C709 C 0.95374 0.20965 0.34137 0.0
C710 C 0.95198 0.21106 0.41433 0.0
C711 C 0.94781 0.19334 0.45413 0.0
C712 C 0.94517 0.17438 0.42018 0.0
C713 C 0.9459 0.17284 0.34879 0.0
C714 C 0.94561 0.15034 0.3255 0.0
C715 C 0.92523 0.14527 0.2868 0.0
C716 C 0.96493 0.14515 0.28104 0.0
C717 C 0.94632 0.13951 0.39494 0.0
C718 C 0.94546 0.15362 0.44894 0.0
C719 C 0.94858 0.14757 0.51739 0.0
C720 C 0.9533 0.12669 0.53084 0.0
C721 C 0.95498 0.11213 0.47599 0.0
C722 C 0.95063 0.11858 0.40763 0.0
H723 H 0.32739 0.93438 0.2715 0.0
H724 H 0.33974 0.96429 0.07411 0.0
H725 H 0.37742 0.9598 0.09256 0.0
H726 H 0.36308 0.96188 0.35862 0.0
H727 H 0.37136 0.9417 0.41723 0.0
H728 H 0.34562 0.94079 0.38029 0.0
H729 H 0.35285 0.90397 0.33113 0.0
H730 H 0.37866 0.90464 0.36875 0.0
H731 H 0.37549 0.8997 0.27746 0.0
H732 H 0.41313 0.95928 0.1418 0.0
H733 H 0.44367 0.96331 0.2185 0.0
H734 H 0.40844 0.93625 0.38796 0.0
C735 C 0.33796 0.93953 0.23125 0.0
C736 C 0.33043 0.94967 0.1713 0.0
C737 C 0.3449 0.95605 0.11985 0.0
C738 C 0.36645 0.95364 0.13 0.0
C739 C 0.37334 0.94482 0.19176 0.0
C740 C 0.3595 0.93772 0.2414 0.0
C741 C 0.37069 0.93222 0.30801 0.0
C742 C 0.36218 0.94491 0.3696 0.0
C743 C 0.36935 0.90873 0.32214 0.0
C744 C 0.39276 0.93865 0.2896 0.0
C745 C 0.39409 0.94521 0.22158 0.0
C746 C 0.41242 0.95369 0.19458 0.0
C747 C 0.4297 0.95591 0.23856 0.0
C748 C 0.42841 0.95 0.30905 0.0
C749 C 0.40985 0.94082 0.33421 0.0
H750 H 0.58107 0.33594 0.28224 0.0
H751 H 0.56224 0.29855 0.45825 0.0
H752 H 0.56924 0.32809 0.53611 0.0
H753 H 0.62137 0.36966 0.38012 0.0
H754 H 0.61384 0.39217 0.33051 0.0
H755 H 0.6131 0.36667 0.29143 0.0
H756 H 0.57417 0.37223 0.25917 0.0
H757 H 0.57472 0.39754 0.29833 0.0
H758 H 0.55569 0.3786 0.32639 0.0
H759 H 0.56919 0.36306 0.58907 0.0
H760 H 0.5632 0.4002 0.61272 0.0
H761 H 0.58409 0.41535 0.40501 0.0
C762 C 0.57917 0.33382 0.33748 0.0
C763 C 0.57125 0.31498 0.36429 0.0
C764 C 0.56868 0.31273 0.43671 0.0
C765 C 0.57262 0.32945 0.48141 0.0
C766 C 0.57948 0.34818 0.45302 0.0
C767 C 0.58313 0.35034 0.38276 0.0
C768 C 0.58757 0.37277 0.36398 0.0
C769 C 0.61033 0.37547 0.34012 0.0
C770 C 0.57211 0.38073 0.30879 0.0
C771 C 0.58403 0.38308 0.43341 0.0
C772 C 0.57991 0.36861 0.48454 0.0
C773 C 0.57313 0.37455 0.55024 0.0
C774 C 0.56981 0.39574 0.5633 0.0
C775 C 0.5732 0.41072 0.5107 0.0
C776 C 0.58132 0.40427 0.44621 0.0
H777 H 0.17078 0.49324 0.15707 0.0
H778 H 0.17689 0.43054 0.23705 0.0
H779 H 0.14088 0.43239 0.28279 0.0
H780 H 0.14832 0.51378 0.29439 0.0
H781 H 0.13059 0.53114 0.25075 0.0
H782 H 0.15418 0.52308 0.20847 0.0
H783 H 0.13283 0.509 0.10438 0.0
H784 H 0.10902 0.51732 0.146 0.0
H785 H 0.11196 0.49062 0.11902 0.0
H786 H 0.10795 0.44363 0.34012 0.0
H787 H 0.0809 0.46326 0.40378 0.0
H788 H 0.09618 0.5186 0.28606 0.0
C789 C 0.1642 0.4795 0.1811 0.0
C790 C 0.17657 0.46168 0.19305 0.0
C791 C 0.16767 0.44434 0.22736 0.0
C792 C 0.14717 0.4452 0.25299 0.0
C793 C 0.13572 0.46341 0.24313 0.0
C794 C 0.14384 0.48016 0.20707 0.0
C795 C 0.12974 0.49899 0.2122 0.0
C796 C 0.14141 0.51783 0.24334 0.0
C797 C 0.12033 0.50429 0.14118 0.0
C798 C 0.11321 0.49072 0.26099 0.0
C799 C 0.1166 0.46999 0.27672 0.0
C800 C 0.10484 0.45968 0.3269 0.0
C801 C 0.08965 0.47098 0.36316 0.0
C802 C 0.08651 0.49238 0.34943 0.0
C803 C 0.09797 0.50213 0.29621 0.0
H804 H 0.05225 0.838 0.24107 0.0
H805 H 0.11423 0.81683 0.18393 0.0
H806 H 0.12176 0.85131 0.13281 0.0
H807 H 0.04119 0.86213 0.09424 0.0
H808 H 0.02712 0.8839 0.13004 0.0
H809 H 0.02827 0.85983 0.17688 0.0
H810 H 0.04411 0.87857 0.28386 0.0
H811 H 0.04217 0.90291 0.23804 0.0
H812 H 0.0669 0.89479 0.27355 0.0
H813 H 0.12011 0.88572 0.07078 0.0
H814 H 0.10946 0.91693 1.00444 0.0
H815 H 0.04852 0.91493 0.10244 0.0
C816 C 0.06779 0.84088 0.22092 0.0
C817 C 0.08273 0.82479 0.21703 0.0
C818 C 0.10257 0.82896 0.18748 0.0
C819 C 0.10701 0.84853 0.15872 0.0
C820 C 0.09153 0.86376 0.16063 0.0
C821 C 0.0724 0.86022 0.19195 0.0
C822 C 0.05742 0.87799 0.17961 0.0
C823 C 0.03734 0.8705 0.143 0.0
C824 C 0.05236 0.88924 0.24781 0.0
C825 C 0.07061 0.89149 0.13286 0.0
C826 C 0.09042 0.88338 0.12386 0.0
C827 C 0.10479 0.89244 0.07861 0.0
C828 C 0.09862 0.9101 0.0411 0.0
C829 C 0.07817 0.91818 0.04834 0.0
C830 C 0.06423 0.90897 0.09584 0.0
H831 H 0.67809 0.07099 0.15353 0.0
H832 H 0.71674 0.08525 0.97487 0.0
H833 H 0.68523 0.09287 0.90697 0.0
H834 H 0.64192 0.04267 0.06546 0.0
H835 H 0.61935 0.05096 0.11399 0.0
H836 H 0.64474 0.05136 0.15377 0.0
H837 H 0.64043 0.09054 0.18215 0.0
H838 H 0.61489 0.09025 0.1426 0.0
H839 H 0.63438 0.10859 0.11368 0.0
H840 H 0.65033 0.09226 0.85216 0.0
H841 H 0.61416 0.08427 0.81558 0.0
H842 H 0.59761 0.07006 0.02785 0.0
C843 C 0.67996 0.07619 0.10062 0.0
C844 C 0.69999 0.07767 0.06996 0.0
C845 C 0.70169 0.08447 1.00037 0.0
C846 C 0.68382 0.08877 0.96108 0.0
C847 C 0.66432 0.08635 0.99208 0.0
C848 C 0.66225 0.08042 0.0605 0.0
C849 C 0.63955 0.07651 0.07888 0.0
C850 C 0.63621 0.05405 0.10448 0.0
C851 C 0.63186 0.09243 0.13251 0.0
C852 C 0.62934 0.08004 1.00913 0.0
C853 C 0.64388 0.08608 0.96009 0.0
C854 C 0.63868 0.08808 0.89036 0.0
C855 C 0.61818 0.08344 0.86999 0.0
C856 C 0.60318 0.07688 0.91919 0.0
C857 C 0.6087 0.07564 0.98976 0.0
H858 H 0.52742 0.68689 0.23239 0.0
H859 H 0.59344 0.68443 0.18438 0.0
H860 H 0.58948 0.64763 0.14814 0.0
H861 H 0.51998 0.62977 0.28329 0.0
H862 H 0.49491 0.62912 0.24078 0.0
H863 H 0.50384 0.65274 0.28167 0.0
H864 H 0.49871 0.67279 0.16706 0.0
H865 H 0.48975 0.64946 0.12556 0.0
H866 H 0.51152 0.66368 0.08962 0.0
H867 H 0.57717 0.61398 0.0974 0.0
H868 H 0.55762 0.5878 0.02966 0.0
H869 H 0.49923 0.61359 0.10478 0.0
C870 C 0.54123 0.67821 0.21792 0.0
C871 C 0.56082 0.68818 0.21288 0.0
C872 C 0.57839 0.67683 0.18973 0.0
C873 C 0.57627 0.65594 0.16948 0.0
C874 C 0.55648 0.64673 0.17263 0.0
C875 C 0.53926 0.65754 0.19667 0.0
C876 C 0.51915 0.64577 0.18305 0.0
C877 C 0.50888 0.63894 0.25129 0.0
C878 C 0.50392 0.65869 0.13866 0.0
C879 C 0.52757 0.62727 0.14363 0.0
C880 C 0.54917 0.62769 0.14021 0.0
C881 C 0.56029 0.61332 0.1007 0.0
C882 C 0.54903 0.59863 0.06186 0.0
C883 C 0.52686 0.59873 0.06159 0.0
C884 C 0.51614 0.61278 0.10507 0.0
H885 H 0.84014 0.46233 0.22433 0.0
H886 H 0.80206 0.43433 0.0629 0.0
H887 H 0.83376 0.42119 1.00639 0.0
H888 H 0.87433 0.48379 0.11603 0.0
H889 H 0.8974 0.48071 0.16867 0.0
H890 H 0.87218 0.48198 0.20891 0.0
H891 H 0.87876 0.44652 0.26875 0.0
H892 H 0.90419 0.44517 0.22868 0.0
H893 H 0.88576 0.42418 0.21726 0.0
H894 H 0.8689 0.41799 0.95327 0.0
H895 H 0.90416 0.42559 0.90792 0.0
H896 H 0.91926 0.45831 0.0981 0.0
C897 C 0.83838 0.45296 0.1781 0.0
C898 C 0.81848 0.44941 0.14841 0.0
C899 C 0.81698 0.43696 0.08792 0.0
C900 C 0.83499 0.42945 0.05508 0.0
C901 C 0.85442 0.43442 0.08332 0.0
C902 C 0.85622 0.44577 0.14391 0.0
C903 C 0.87867 0.45222 0.15707 0.0
C904 C 0.88075 0.47608 0.16293 0.0
C905 C 0.88735 0.44137 0.22178 0.0
C906 C 0.88894 0.44401 0.09202 0.0
C907 C 0.87486 0.43318 0.05125 0.0
C908 C 0.88018 0.42605 0.98539 0.0
C909 C 0.90018 0.43062 0.95978 0.0
C910 C 0.9145 0.44253 0.99947 0.0
C911 C 0.90893 0.44869 0.06722 0.0
H912 H 0.02124 0.17543 0.84674 0.0
H913 H 0.02596 0.16075 0.06569 0.0
H914 H 0.02646 0.12344 0.03763 0.0
H915 H 0.98661 0.13146 0.80338 0.0
H916 H 0.99856 0.12706 0.72017 0.0
H917 H 0.99824 0.15286 0.75684 0.0
H918 H 0.03852 0.15494 0.74517 0.0
H919 H 0.03897 0.12911 0.7089 0.0
H920 H 0.05447 0.13508 0.78436 0.0
H921 H 0.02798 0.08787 0.9873 0.0
H922 H 0.02846 0.05581 0.91813 0.0
H923 H 0.02128 0.09221 0.73017 0.0
C924 C 0.02208 0.16439 0.88891 0.0
C925 C 0.02386 0.17129 0.95866 0.0
C926 C 0.0251 0.15612 0.01186 0.0
C927 C 0.02525 0.13479 0.99648 0.0
C928 C 0.0239 0.1286 0.92751 0.0
C929 C 0.02211 0.14287 0.87447 0.0
C930 C 0.0209 0.1318 0.80474 0.0
C931 C 0.99982 0.13605 0.76919 0.0
C932 C 0.03931 0.13811 0.75805 0.0
C933 C 0.0226 0.10914 0.82705 0.0
C934 C 0.02432 0.10778 0.8982 0.0
C935 C 0.02651 0.08873 0.93156 0.0
C936 C 0.02684 0.07054 0.89149 0.0
C937 C 0.02492 0.07129 0.81833 0.0
C938 C 0.02274 0.09099 0.78585 0.0
H939 H 0.36359 0.03298 0.92286 0.0
H940 H 0.32735 0.99672 0.77577 0.0
H941 H 0.3593 0.9904 0.70704 0.0
H942 H 0.39733 0.05758 0.79935 0.0
H943 H 0.42016 0.05651 0.85398 0.0
H944 H 0.39451 0.05781 0.89221 0.0
H945 H 0.40204 0.02419 0.96178 0.0
H946 H 0.42774 0.02284 0.92392 0.0
H947 H 0.41011 1.00102 0.91652 0.0
H948 H 0.39552 0.98906 0.65155 0.0
H949 H 0.43282 0.99142 0.61821 0.0
H950 H 0.44526 0.02821 0.80236 0.0
C951 C 0.36233 0.02374 0.87612 0.0
C952 C 0.34284 0.01534 0.85496 0.0
C953 C 0.34206 1.00313 0.79376 0.0
C954 C 0.36014 0.99956 0.75402 0.0
C955 C 0.37904 1.00819 0.77612 0.0
C956 C 0.38026 0.0199 0.83607 0.0
C957 C 0.40248 0.02731 0.84882 0.0
C958 C 0.40368 0.05122 0.84855 0.0
C959 C 0.4111 0.0183 0.91678 0.0
C960 C 0.41353 0.01811 0.78644 0.0
C961 C 0.39977 1.00717 0.74492 0.0
C962 C 0.40642 0.99753 0.68394 0.0
C963 C 0.42767 0.999 0.66526 0.0
C964 C 0.44212 1.00995 0.70749 0.0
C965 C 0.43476 0.01963 0.7688 0.0
H966 H 0.50724 0.3604 0.84427 0.0
H967 H 0.49683 0.37608 0.06039 0.0
H968 H 0.49652 0.41322 0.03039 0.0
H969 H 0.54223 0.40484 0.80812 0.0
H970 H 0.53228 0.40868 0.72178 0.0
H971 H 0.53213 0.38305 0.75954 0.0
H972 H 0.49232 0.38021 0.73721 0.0
H973 H 0.49233 0.40587 0.69978 0.0
H974 H 0.47513 0.39995 0.77105 0.0
H975 H 0.49535 0.44843 0.97812 0.0
H976 H 0.49584 0.48018 0.9076 0.0
H977 H 0.50885 0.44325 0.72409 0.0
C978 C 0.50521 0.37163 0.8855 0.0
C979 C 0.50173 0.36504 0.95487 0.0
C980 C 0.49899 0.38045 1.00675 0.0
C981 C 0.49894 0.4017 0.9903 0.0
C982 C 0.50192 0.40758 0.92165 0.0
C983 C 0.50528 0.3931 0.87001 0.0
C984 C 0.50803 0.4039 0.8003 0.0
C985 C 0.52997 0.39988 0.7707 0.0
C986 C 0.49093 0.39707 0.74907 0.0
C987 C 0.5054 0.42664 0.821 0.0
C988 C 0.50184 0.42826 0.89135 0.0
C989 C 0.4983 0.44738 0.92306 0.0
C990 C 0.49852 0.46539 0.88221 0.0
C991 C 0.50238 0.4644 0.80995 0.0
C992 C 0.50593 0.44464 0.7791 0.0
H993 H 0.1717 0.52774 0.80758 0.0
H994 H 0.17105 0.47748 0.9575 0.0
H995 H 0.13407 0.47039 0.92974 0.0
H996 H 0.11978 0.54629 0.84206 0.0
H997 H 0.1139 0.55223 0.75299 0.0
H998 H 0.14054 0.55314 0.78316 0.0
H999 H 0.15128 0.52713 0.6871 0.0
H1000 H 0.12463 0.52605 0.65687 0.0
H1001 H 0.13797 0.50243 0.68058 0.0
H1002 H 0.09706 0.46948 0.89003 0.0
H1003 H 0.06198 0.47469 0.84058 0.0
H1004 H 0.08591 0.52492 0.71285 0.0
C1005 C 0.16374 0.51524 0.83445 0.0
C1006 C 0.17436 0.50304 0.8844 0.0
C1007 C 0.1634 0.4868 0.9183 0.0
C1008 C 0.14235 0.4827 0.90306 0.0
C1009 C 0.13241 0.49487 0.85333 0.0
C1010 C 0.14269 0.51078 0.81931 0.0
C1011 C 0.12812 0.52161 0.76863 0.0
C1012 C 0.12543 0.54468 0.78788 0.0
C1013 C 0.13597 0.51915 0.69386 0.0
C1014 C 0.10801 0.50944 0.78014 0.0
C1015 C 0.11094 0.4941 0.82932 0.0
C1016 C 0.09462 0.48133 0.85111 0.0
C1017 C 0.07472 0.48444 0.82272 0.0
C1018 C 0.07117 0.50013 0.77256 0.0
C1019 C 0.08818 0.51259 0.75029 0.0
H1020 H 1.00608 0.84885 0.5756 0.0
H1021 H 0.01673 0.86356 0.35913 0.0
H1022 H 0.02257 0.90029 0.38992 0.0
H1023 H 0.97845 0.8951 0.61844 0.0
H1024 H 0.98985 0.89816 0.70322 0.0
H1025 H 0.98746 0.87262 0.66548 0.0
H1026 H 0.02722 0.86678 0.68113 0.0
H1027 H 0.02971 0.89228 0.71923 0.0
H1028 H 0.04542 0.88533 0.64531 0.0
H1029 H 0.02529 0.93556 0.44172 0.0
H1030 H 0.02601 0.96743 0.5119 0.0
H1031 H 0.0147 0.93096 0.69744 0.0
C1032 C 1.00996 0.85974 0.53483 0.0
C1033 C 1.01079 0.8532 0.46462 0.0
C1034 C 0.01567 0.86811 0.41298 0.0
C1035 C 0.01914 0.88905 0.43003 0.0
C1036 C 0.01782 0.89502 0.49924 0.0
C1037 C 0.0135 0.88085 0.55105 0.0
C1038 C 1.01255 0.89169 0.62117 0.0
C1039 C 0.99078 0.88925 0.65399 0.0
C1040 C 0.02975 0.88353 0.66957 0.0
C1041 C 0.01672 0.91417 0.60035 0.0
C1042 C 0.01972 0.9156 0.52965 0.0
C1043 C 0.02311 0.93462 0.49719 0.0
C1044 C 0.02339 0.95271 0.53772 0.0
C1045 C 0.02042 0.95184 0.61046 0.0
C1046 C 0.01719 0.93219 0.64215 0.0
H1047 H 0.65584 0.99285 0.39843 0.0
H1048 H 0.6873 0.03725 0.53232 0.0
H1049 H 0.65429 0.04313 0.5955 0.0
H1050 H 0.60653 0.02064 0.38859 0.0
H1051 H 0.5909 0.99726 0.38895 0.0
H1052 H 0.61694 0.99682 0.35346 0.0
H1053 H 0.62671 0.96672 0.43644 0.0
H1054 H 0.60073 0.96713 0.47234 0.0
H1055 H 0.6231 0.97001 0.52836 0.0
H1056 H 0.61802 0.0433 0.64713 0.0
H1057 H 0.58091 0.0391 0.67909 0.0
H1058 H 0.57272 0.99479 0.51146 0.0
C1059 C 0.65578 1.00381 0.44103 0.0
C1060 C 0.67423 0.01464 0.46017 0.0
C1061 C 0.67338 0.02899 0.51592 0.0
C1062 C 0.6547 0.03233 0.55249 0.0
C1063 C 0.63688 0.02131 0.53261 0.0
C1064 C 0.6372 1.00746 0.47783 0.0
C1065 C 0.6158 0.99772 0.4668 0.0
C1066 C 0.60703 1.00346 0.3952 0.0
C1067 C 0.61665 0.97399 0.47659 0.0
C1068 C 0.60347 1.00808 0.52436 0.0
C1069 C 0.61594 0.02159 0.56184 0.0
C1070 C 0.60812 0.03277 0.61803 0.0
C1071 C 0.587 0.03017 0.63616 0.0
C1072 C 0.57382 0.01652 0.59826 0.0
C1073 C 0.5823 1.00538 0.54153 0.0
H1074 H 0.49148 0.68203 0.54934 0.0
H1075 H 0.53044 0.67409 0.36729 0.0
H1076 H 0.53806 0.63808 0.40263 0.0
H1077 H 0.5243 0.65119 0.66635 0.0
H1078 H 0.50233 0.64019 0.71202 0.0
H1079 H 0.50029 0.66568 0.67378 0.0
H1080 H 0.4677 0.65373 0.60467 0.0
H1081 H 0.46962 0.62823 0.64267 0.0
H1082 H 0.46941 0.63107 0.54985 0.0
H1083 H 0.54 0.6024 0.45352 0.0
H1084 H 0.53692 0.56951 0.51825 0.0
H1085 H 0.49793 0.60018 0.67114 0.0
C1086 C 0.50182 0.67281 0.51736 0.0
C1087 C 0.51018 0.68096 0.45493 0.0
C1088 C 0.52349 0.66819 0.41444 0.0
C1089 C 0.52804 0.64771 0.4344 0.0
C1090 C 0.51934 0.6401 0.49547 0.0
C1091 C 0.50661 0.65225 0.53671 0.0
C1092 C 0.49899 0.64 0.59923 0.0
C1093 C 0.50696 0.64985 0.66685 0.0
C1094 C 0.47501 0.63815 0.59906 0.0
C1095 C 0.50924 0.61903 0.5862 0.0
C1096 C 0.5209 0.61951 0.52597 0.0
C1097 C 0.53109 0.6019 0.50111 0.0
C1098 C 0.52921 0.58325 0.53829 0.0
C1099 C 0.51732 0.58223 0.60012 0.0
C1100 C 0.50741 0.6005 0.62471 0.0
H1101 H 0.87146 0.54502 0.40407 0.0
H1102 H 0.83147 0.50862 0.53946 0.0
H1103 H 0.86185 0.50035 0.61295 0.0
H1104 H 0.9168 0.5109 0.41579 0.0
H1105 H 0.93543 0.532 0.41481 0.0
H1106 H 0.9106 0.53483 0.37174 0.0
H1107 H 0.90314 0.56805 0.44352 0.0
H1108 H 0.9279 0.56528 0.48702 0.0
H1109 H 0.9041 0.56682 0.53671 0.0
H1110 H 0.89602 0.49724 0.675 0.0
H1111 H 0.93224 0.49758 0.7179 0.0
H1112 H 0.95099 0.53528 0.54183 0.0
C1113 C 0.86912 0.53528 0.44912 0.0
C1114 C 0.849 0.52739 0.46568 0.0
C1115 C 0.84669 0.51459 0.52493 0.0
C1116 C 0.86386 0.50992 0.56736 0.0
C1117 C 0.88338 0.51803 0.54988 0.0
C1118 C 0.88619 0.53028 0.49188 0.0
C1119 C 0.90895 0.53685 0.48483 0.0
C1120 C 0.91851 0.52812 0.41781 0.0
C1121 C 0.91114 0.56066 0.48824 0.0
C1122 C 0.9184 0.52658 0.54837 0.0
C1123 C 0.9033 0.51588 0.58518 0.0
C1124 C 0.90801 0.50547 0.6464 0.0
C1125 C 0.92869 0.50584 0.67051 0.0
C1126 C 0.94463 0.51644 0.63345 0.0
C1127 C 0.93928 0.52695 0.57141 0.0
loop_
_geom_bond_atom_site_label_1
_geom_bond_atom_site_label_2
_geom_bond_distance
_geom_bond_site_symmetry_2
_ccdc_geom_bond_type
C0 C1 1.264 . S
C0 C5 1.479 . S
C0 C10 1.465 . S
C1 C0 1.264 . S
C1 C3 1.339 . S
C1 H28 0.931 . S
C2 C3 1.395 . S
C2 C4 1.320 . S
C3 C1 1.339 . S
C3 C2 1.395 . S
C3 H29 0.929 . S
C4 C2 1.320 . S
C4 C5 1.405 . S
C4 H30 0.930 . S
C5 C0 1.479 . S
C5 C4 1.405 . S
C5 H31 0.931 . S
U6 O7 2.454 . S
U6 O8 2.458 . S
U6 C9 2.984 . S
U6 C10 2.847 . S
U6 C23 2.882 . S
U6 O24 2.441 . S
U6 O25 2.420 . S
U6 O26 2.455 . S
U6 O27 2.449 . S
O7 U6 2.454 . S
O7 C9 1.353 . S
O8 U6 2.458 . S
O8 C9 1.286 . S
C9 U6 2.984 . S
C9 O7 1.353 . S
C9 O8 1.286 . S
C9 C11 1.363 . S
C10 C0 1.465 . S
C10 U6 2.847 . S
C10 O24 1.249 . S
C10 O25 1.202 . S
C11 C9 1.363 . S
C11 C13 1.408 . S
C11 C16 1.342 . S
C12 C13 1.310 . S
C12 C15 1.461 . S
C12 H32 0.932 . S
C13 C11 1.408 . S
C13 C12 1.310 . S
C13 H33 0.930 . S
C14 C15 1.474 . S
C14 C16 1.285 . S
C14 H34 0.929 . S
C15 C12 1.461 . S
C15 C14 1.474 . S
C16 C11 1.342 . S
C16 C14 1.285 . S
C16 H35 0.930 . S
C17 C20 1.424 . S
C17 C22 1.245 . S
C17 C23 1.428 . S
C18 C21 1.260 . S
C18 C22 1.477 . S
C18 H36 0.932 . S
C19 C20 1.384 . S
C19 C21 1.479 . S
C19 H37 0.929 . S
C20 C17 1.424 . S
C20 C19 1.384 . S
C20 H38 0.928 . S
C21 C18 1.260 . S
C21 C19 1.479 . S
C22 C17 1.245 . S
C22 C18 1.477 . S
C22 H39 0.932 . S
C23 U6 2.882 . S
C23 C17 1.428 . S
C23 O26 1.301 . S
C23 O27 1.282 . S
O24 U6 2.441 . S
O24 C10 1.249 . S
O25 U6 2.420 . S
O25 C10 1.202 . S
O26 U6 2.455 . S
O26 C23 1.301 . S
O27 U6 2.449 . S
O27 C23 1.282 . S
H28 C1 0.931 . S
H29 C3 0.929 . S
H30 C4 0.930 . S
H31 C5 0.931 . S
H32 C12 0.932 . S
H33 C13 0.930 . S
H34 C14 0.929 . S
H35 C16 0.930 . S
H36 C18 0.932 . S
H37 C19 0.929 . S
H38 C20 0.928 . S
H39 C22 0.932 . S
C40 C41 1.264 . S
C40 C45 1.479 . S
C40 C50 1.465 . S
C41 C40 1.264 . S
C41 C43 1.339 . S
C41 H68 0.931 . S
C42 C43 1.395 . S
C42 C44 1.320 . S
C43 C41 1.339 . S
C43 C42 1.395 . S
C43 H69 0.929 . S
C44 C42 1.320 . S
C44 C45 1.405 . S
C44 H70 0.930 1_455 S
C45 C40 1.479 . S
C45 C44 1.405 . S
C45 H71 0.931 . S
U46 O47 2.454 . S
U46 O48 2.458 . S
U46 C49 2.984 . S
U46 C50 2.847 . S
U46 C63 2.882 . S
U46 O64 2.441 . S
U46 O65 2.420 . S
U46 O66 2.455 . S
U46 O67 2.449 . S
O47 U46 2.454 . S
O47 C49 1.353 . S
O48 U46 2.458 . S
O48 C49 1.286 . S
C49 U46 2.984 . S
C49 O47 1.353 . S
C49 O48 1.286 . S
C49 C51 1.363 . S
C50 C40 1.465 . S
C50 U46 2.847 . S
C50 O64 1.249 . S
C50 O65 1.202 . S
C51 C49 1.363 . S
C51 C53 1.408 . S
C51 C56 1.342 . S
C52 C53 1.312 . S
C52 C55 1.458 1_455 S
C52 H72 0.932 1_455 S
C53 C51 1.408 . S
C53 C52 1.312 . S
C53 H73 0.930 . S
C54 C55 1.476 . S
C54 C56 1.285 1_655 S
C54 H74 0.929 . S
C55 C52 1.458 1_655 S
C55 C54 1.476 . S
C56 C51 1.342 . S
C56 C54 1.285 1_455 S
C56 H75 0.929 1_455 S
C57 C60 1.424 . S
C57 C62 1.245 . S
C57 C63 1.428 . S
C58 C61 1.260 . S
C58 C62 1.477 . S
C58 H76 0.932 . S
C59 C60 1.384 . S
C59 C61 1.479 . S
C59 H77 0.929 . S
C60 C57 1.424 . S
C60 C59 1.384 . S
C60 H78 0.928 . S
C61 C58 1.260 . S
C61 C59 1.479 . S
C62 C57 1.245 . S
C62 C58 1.477 . S
C62 H79 0.932 . S
C63 U46 2.882 . S
C63 C57 1.428 . S
C63 O66 1.301 . S
C63 O67 1.282 . S
O64 U46 2.441 . S
O64 C50 1.249 . S
O65 U46 2.420 . S
O65 C50 1.202 . S
O66 U46 2.455 . S
O66 C63 1.301 . S
O67 U46 2.449 . S
O67 C63 1.282 . S
H68 C41 0.931 . S
H69 C43 0.929 . S
H70 C44 0.930 1_655 S
H71 C45 0.931 . S
H72 C52 0.932 1_655 S
H73 C53 0.930 . S
H74 C54 0.929 . S
H75 C56 0.929 1_655 S
H76 C58 0.932 . S
H77 C59 0.929 . S
H78 C60 0.928 . S
H79 C62 0.932 . S
C80 C81 1.264 . S
C80 C85 1.479 . S
C80 C90 1.465 . S
C81 C80 1.264 . S
C81 C83 1.339 . S
C81 H108 0.931 . S
C82 C83 1.395 . S
C82 C84 1.320 . S
C83 C81 1.339 . S
C83 C82 1.395 . S
C83 H109 0.929 . S
C84 C82 1.320 . S
C84 C85 1.405 . S
C84 H110 0.930 1_545 S
C85 C80 1.479 . S
C85 C84 1.405 . S
C85 H111 0.931 . S
U86 O87 2.454 . S
U86 O88 2.458 . S
U86 C89 2.984 . S
U86 C90 2.847 . S
U86 C103 2.882 . S
U86 O104 2.441 . S
U86 O105 2.420 . S
U86 O106 2.455 . S
U86 O107 2.449 . S
O87 U86 2.454 . S
O87 C89 1.353 . S
O88 U86 2.458 . S
O88 C89 1.286 . S
C89 U86 2.984 . S
C89 O87 1.353 . S
C89 O88 1.286 . S
C89 C91 1.363 . S
C90 C80 1.465 . S
C90 U86 2.847 . S
C90 O104 1.249 . S
C90 O105 1.202 . S
C91 C89 1.363 . S
C91 C93 1.408 . S
C91 C96 1.344 . S
C92 C93 1.314 . S
C92 C95 1.458 1_545 S
C92 H112 0.932 . S
C93 C91 1.408 . S
C93 C92 1.314 . S
C93 H113 0.930 . S
C94 C95 1.475 . S
C94 C96 1.284 1_565 S
C94 H114 0.929 . S
C95 C92 1.458 1_565 S
C95 C94 1.475 . S
C96 C91 1.344 . S
C96 C94 1.284 1_545 S
C96 H115 0.929 1_545 S
C97 C100 1.424 . S
C97 C102 1.245 . S
C97 C103 1.428 . S
C98 C101 1.260 . S
C98 C102 1.477 . S
C98 H116 0.932 . S
C99 C100 1.384 . S
C99 C101 1.479 . S
C99 H117 0.929 . S
C100 C97 1.424 . S
C100 C99 1.384 . S
C100 H118 0.928 . S
C101 C98 1.260 . S
C101 C99 1.479 . S
C102 C97 1.245 . S
C102 C98 1.477 . S
C102 H119 0.932 . S
C103 U86 2.882 . S
C103 C97 1.428 . S
C103 O106 1.301 . S
C103 O107 1.282 . S
O104 U86 2.441 . S
O104 C90 1.249 . S
O105 U86 2.420 . S
O105 C90 1.202 . S
O106 U86 2.455 . S
O106 C103 1.301 . S
O107 U86 2.449 . S
O107 C103 1.282 . S
H108 C81 0.931 . S
H109 C83 0.929 . S
H110 C84 0.930 1_565 S
H111 C85 0.931 . S
H112 C92 0.932 . S
H113 C93 0.930 . S
H114 C94 0.929 . S
H115 C96 0.929 1_565 S
H116 C98 0.932 . S
H117 C99 0.929 . S
H118 C100 0.928 . S
H119 C102 0.932 . S
C120 C121 1.264 . S
C120 C125 1.479 . S
C120 C130 1.465 . S
C121 C120 1.264 . S
C121 C123 1.339 . S
C121 H148 0.931 . S
C122 C123 1.395 . S
C122 C124 1.320 . S
C123 C121 1.339 . S
C123 C122 1.395 . S
C123 H149 0.929 . S
C124 C122 1.320 . S
C124 C125 1.405 . S
C124 H150 0.930 . S
C125 C120 1.479 . S
C125 C124 1.405 . S
C125 H151 0.931 . S
U126 O127 2.454 . S
U126 O128 2.458 . S
U126 C129 2.984 . S
U126 C130 2.847 . S
U126 C143 2.882 . S
U126 O144 2.441 . S
U126 O145 2.420 . S
U126 O146 2.455 . S
U126 O147 2.449 . S
O127 U126 2.454 . S
O127 C129 1.353 . S
O128 U126 2.458 . S
O128 C129 1.286 . S
C129 U126 2.984 . S
C129 O127 1.353 . S
C129 O128 1.286 . S
C129 C131 1.363 . S
C130 C120 1.465 . S
C130 U126 2.847 . S
C130 O144 1.249 . S
C130 O145 1.202 . S
C131 C129 1.363 . S
C131 C133 1.408 . S
C131 C136 1.342 . S
C132 C133 1.310 . S
C132 C135 1.461 . S
C132 H152 0.932 . S
C133 C131 1.408 . S
C133 C132 1.310 . S
C133 H153 0.930 . S
C134 C135 1.474 . S
C134 C136 1.285 . S
C134 H154 0.929 . S
C135 C132 1.461 . S
C135 C134 1.474 . S
C136 C131 1.342 . S
C136 C134 1.285 . S
C136 H155 0.930 . S
C137 C140 1.424 . S
C137 C142 1.245 . S
C137 C143 1.428 . S
C138 C141 1.260 . S
C138 C142 1.477 . S
C138 H156 0.932 . S
C139 C140 1.384 . S
C139 C141 1.479 . S
C139 H157 0.929 . S
C140 C137 1.424 . S
C140 C139 1.384 . S
C140 H158 0.928 . S
C141 C138 1.260 . S
C141 C139 1.479 . S
C142 C137 1.245 . S
C142 C138 1.477 . S
C142 H159 0.932 . S
C143 U126 2.882 . S
C143 C137 1.428 . S
C143 O146 1.301 . S
C143 O147 1.282 . S
O144 U126 2.441 . S
O144 C130 1.249 . S
O145 U126 2.420 . S
O145 C130 1.202 . S
O146 U126 2.455 . S
O146 C143 1.301 . S
O147 U126 2.449 . S
O147 C143 1.282 . S
H148 C121 0.931 . S
H149 C123 0.929 . S
H150 C124 0.930 . S
H151 C125 0.931 . S
H152 C132 0.932 . S
H153 C133 0.930 . S
H154 C134 0.929 . S
H155 C136 0.930 . S
H156 C138 0.932 . S
H157 C139 0.929 . S
H158 C140 0.928 . S
H159 C142 0.932 . S
C160 C161 1.264 . S
C160 C165 1.479 . S
C160 C170 1.465 . S
C161 C160 1.264 . S
C161 C163 1.339 . S
C161 H188 0.931 . S
C162 C163 1.395 . S
C162 C164 1.320 . S
C163 C161 1.339 . S
C163 C162 1.395 . S
C163 H189 0.929 . S
C164 C162 1.320 . S
C164 C165 1.405 . S
C164 H190 0.930 . S
C165 C160 1.479 . S
C165 C164 1.405 . S
C165 H191 0.931 . S
U166 O167 2.454 . S
U166 O168 2.458 . S
U166 C169 2.984 . S
U166 C170 2.847 1_554 S
U166 C183 2.882 . S
U166 O184 2.441 1_554 S
U166 O185 2.420 1_554 S
U166 O186 2.455 . S
U166 O187 2.449 . S
O167 U166 2.454 . S
O167 C169 1.353 . S
O168 U166 2.458 . S
O168 C169 1.286 . S
C169 U166 2.984 . S
C169 O167 1.353 . S
C169 O168 1.286 . S
C169 C171 1.363 . S
C170 C160 1.465 . S
C170 U166 2.847 1_556 S
C170 O184 1.249 . S
C170 O185 1.202 . S
C171 C169 1.363 . S
C171 C173 1.408 . S
C171 C176 1.342 . S
C172 C173 1.310 . S
C172 C175 1.461 . S
C172 H192 0.932 . S
C173 C171 1.408 . S
C173 C172 1.310 . S
C173 H193 0.930 1_554 S
C174 C175 1.474 . S
C174 C176 1.285 . S
C174 H194 0.929 . S
C175 C172 1.461 . S
C175 C174 1.474 . S
C176 C171 1.342 . S
C176 C174 1.285 . S
C176 H195 0.930 . S
C177 C180 1.424 . S
C177 C182 1.245 . S
C177 C183 1.428 . S
C178 C181 1.260 . S
C178 C182 1.477 . S
C178 H196 0.932 . S
C179 C180 1.384 . S
C179 C181 1.479 . S
C179 H197 0.929 . S
C180 C177 1.424 . S
C180 C179 1.384 . S
C180 H198 0.928 . S
C181 C178 1.260 . S
C181 C179 1.479 . S
C182 C177 1.245 . S
C182 C178 1.477 . S
C182 H199 0.932 . S
C183 U166 2.882 . S
C183 C177 1.428 . S
C183 O186 1.301 . S
C183 O187 1.282 . S
O184 U166 2.441 1_556 S
O184 C170 1.249 . S
O185 U166 2.420 1_556 S
O185 C170 1.202 . S
O186 U166 2.455 . S
O186 C183 1.301 . S
O187 U166 2.449 . S
O187 C183 1.282 . S
H188 C161 0.931 . S
H189 C163 0.929 . S
H190 C164 0.930 . S
H191 C165 0.931 . S
H192 C172 0.932 . S
H193 C173 0.930 1_556 S
H194 C174 0.929 . S
H195 C176 0.930 . S
H196 C178 0.932 . S
H197 C179 0.929 . S
H198 C180 0.928 . S
H199 C182 0.932 . S
C200 C201 1.264 . S
C200 C205 1.479 . S
C200 C210 1.465 . S
C201 C200 1.264 . S
C201 C203 1.339 . S
C201 H228 0.931 . S
C202 C203 1.395 . S
C202 C204 1.320 . S
C203 C201 1.339 . S
C203 C202 1.395 . S
C203 H229 0.929 . S
C204 C202 1.320 . S
C204 C205 1.405 . S
C204 H230 0.938 . S
C205 C200 1.479 . S
C205 C204 1.405 . S
C205 H231 0.931 . S
U206 O207 2.454 . S
U206 O208 2.458 . S
U206 C209 2.984 . S
U206 C210 2.847 1_554 S
U206 C223 2.882 . S
U206 O224 2.441 1_554 S
U206 O225 2.420 1_554 S
U206 O226 2.455 . S
U206 O227 2.449 . S
O207 U206 2.454 . S
O207 C209 1.353 . S
O208 U206 2.458 . S
O208 C209 1.286 . S
C209 U206 2.984 . S
C209 O207 1.353 . S
C209 O208 1.286 . S
C209 C211 1.363 . S
C210 C200 1.465 . S
C210 U206 2.847 1_556 S
C210 O224 1.249 . S
C210 O225 1.202 . S
C211 C209 1.363 . S
C211 C213 1.408 . S
C211 C216 1.342 . S
C212 C213 1.310 . S
C212 C215 1.461 . S
C212 H232 0.932 . S
C213 C211 1.408 . S
C213 C212 1.310 . S
C213 H233 0.930 1_554 S
C214 C215 1.474 . S
C214 C216 1.285 . S
C214 H234 0.929 1_455 S
C215 C212 1.461 . S
C215 C214 1.474 . S
C216 C211 1.342 . S
C216 C214 1.285 . S
C216 H235 0.930 . S
C217 C220 1.424 . S
C217 C222 1.245 . S
C217 C223 1.428 . S
C218 C221 1.260 . S
C218 C222 1.477 . S
C218 H236 0.932 . S
C219 C220 1.384 . S
C219 C221 1.479 . S
C219 H237 0.929 . S
C220 C217 1.424 . S
C220 C219 1.384 . S
C220 H238 0.928 . S
C221 C218 1.260 . S
C221 C219 1.479 . S
C222 C217 1.245 . S
C222 C218 1.477 . S
C222 H239 0.932 . S
C223 U206 2.882 . S
C223 C217 1.428 . S
C223 O226 1.301 . S
C223 O227 1.282 . S
O224 U206 2.441 1_556 S
O224 C210 1.249 . S
O225 U206 2.420 1_556 S
O225 C210 1.202 . S
O226 U206 2.455 . S
O226 C223 1.301 . S
O227 U206 2.449 . S
O227 C223 1.282 . S
H228 C201 0.931 . S
H229 C203 0.929 . S
H230 C204 0.938 . S
H231 C205 0.931 . S
H232 C212 0.932 . S
H233 C213 0.930 1_556 S
H234 C214 0.929 1_655 S
H235 C216 0.930 . S
H236 C218 0.932 . S
H237 C219 0.929 . S
H238 C220 0.928 . S
H239 C222 0.932 . S
C240 C241 1.264 . S
C240 C245 1.479 . S
C240 C250 1.465 . S
C241 C240 1.264 . S
C241 C243 1.339 . S
C241 H268 0.931 . S
C242 C243 1.395 . S
C242 C244 1.320 . S
C243 C241 1.339 . S
C243 C242 1.395 . S
C243 H269 0.929 . S
C244 C242 1.320 . S
C244 C245 1.405 . S
C244 H270 0.937 . S
C245 C240 1.479 . S
C245 C244 1.405 . S
C245 H271 0.931 . S
U246 O247 2.454 . S
U246 O248 2.458 . S
U246 C249 2.984 . S
U246 C250 2.847 1_554 S
U246 C263 2.882 . S
U246 O264 2.441 1_554 S
U246 O265 2.420 1_554 S
U246 O266 2.455 . S
U246 O267 2.449 . S
O247 U246 2.454 . S
O247 C249 1.353 . S
O248 U246 2.458 . S
O248 C249 1.286 . S
C249 U246 2.984 . S
C249 O247 1.353 . S
C249 O248 1.286 . S
C249 C251 1.363 . S
C250 C240 1.465 . S
C250 U246 2.847 1_556 S
C250 O264 1.249 . S
C250 O265 1.202 . S
C251 C249 1.363 . S
C251 C253 1.408 . S
C251 C256 1.342 . S
C252 C253 1.310 . S
C252 C255 1.461 . S
C252 H272 0.932 . S
C253 C251 1.408 . S
C253 C252 1.310 . S
C253 H273 0.930 1_554 S
C254 C255 1.474 . S
C254 C256 1.285 . S
C254 H274 0.929 1_545 S
C255 C252 1.461 . S
C255 C254 1.474 . S
C256 C251 1.342 . S
C256 C254 1.285 . S
C256 H275 0.930 . S
C257 C260 1.424 . S
C257 C262 1.245 . S
C257 C263 1.428 . S
C258 C261 1.260 . S
C258 C262 1.477 . S
C258 H276 0.932 . S
C259 C260 1.384 . S
C259 C261 1.479 . S
C259 H277 0.929 . S
C260 C257 1.424 . S
C260 C259 1.384 . S
C260 H278 0.928 . S
C261 C258 1.260 . S
C261 C259 1.479 . S
C262 C257 1.245 . S
C262 C258 1.477 . S
C262 H279 0.932 . S
C263 U246 2.882 . S
C263 C257 1.428 . S
C263 O266 1.301 . S
C263 O267 1.282 . S
O264 U246 2.441 1_556 S
O264 C250 1.249 . S
O265 U246 2.420 1_556 S
O265 C250 1.202 . S
O266 U246 2.455 . S
O266 C263 1.301 . S
O267 U246 2.449 . S
O267 C263 1.282 . S
H268 C241 0.931 . S
H269 C243 0.929 . S
H270 C244 0.937 . S
H271 C245 0.931 . S
H272 C252 0.932 . S
H273 C253 0.930 1_556 S
H274 C254 0.929 1_565 S
H275 C256 0.930 . S
H276 C258 0.932 . S
H277 C259 0.929 . S
H278 C260 0.928 . S
H279 C262 0.932 . S
C280 C281 1.264 . S
C280 C285 1.479 . S
C280 C290 1.465 . S
C281 C280 1.264 . S
C281 C283 1.339 . S
C281 H308 0.931 . S
C282 C283 1.395 . S
C282 C284 1.320 . S
C283 C281 1.339 . S
C283 C282 1.395 . S
C283 H309 0.929 . S
C284 C282 1.320 . S
C284 C285 1.405 . S
C284 H310 0.930 . S
C285 C280 1.479 . S
C285 C284 1.405 . S
C285 H311 0.931 . S
U286 O287 2.454 . S
U286 O288 2.458 . S
U286 C289 2.984 . S
U286 C290 2.847 1_554 S
U286 C303 2.882 . S
U286 O304 2.441 1_554 S
U286 O305 2.420 1_554 S
U286 O306 2.455 . S
U286 O307 2.449 . S
O287 U286 2.454 . S
O287 C289 1.353 . S
O288 U286 2.458 . S
O288 C289 1.286 . S
C289 U286 2.984 . S
C289 O287 1.353 . S
C289 O288 1.286 . S
C289 C291 1.363 . S
C290 C280 1.465 . S
C290 U286 2.847 1_556 S
C290 O304 1.249 . S
C290 O305 1.202 . S
C291 C289 1.363 . S
C291 C293 1.408 . S
C291 C296 1.342 . S
C292 C293 1.310 . S
C292 C295 1.461 . S
C292 H312 0.932 . S
C293 C291 1.408 . S
C293 C292 1.310 . S
C293 H313 0.930 1_554 S
C294 C295 1.474 . S
C294 C296 1.285 . S
C294 H314 0.929 . S
C295 C292 1.461 . S
C295 C294 1.474 . S
C296 C291 1.342 . S
C296 C294 1.285 . S
C296 H315 0.930 . S
C297 C300 1.424 . S
C297 C302 1.245 . S
C297 C303 1.428 . S
C298 C301 1.260 . S
C298 C302 1.477 . S
C298 H316 0.932 . S
C299 C300 1.384 . S
C299 C301 1.479 . S
C299 H317 0.929 . S
C300 C297 1.424 . S
C300 C299 1.384 . S
C300 H318 0.928 . S
C301 C298 1.260 . S
C301 C299 1.479 . S
C302 C297 1.245 . S
C302 C298 1.477 . S
C302 H319 0.932 . S
C303 U286 2.882 . S
C303 C297 1.428 . S
C303 O306 1.301 . S
C303 O307 1.282 . S
O304 U286 2.441 1_556 S
O304 C290 1.249 . S
O305 U286 2.420 1_556 S
O305 C290 1.202 . S
O306 U286 2.455 . S
O306 C303 1.301 . S
O307 U286 2.449 . S
O307 C303 1.282 . S
H308 C281 0.931 . S
H309 C283 0.929 . S
H310 C284 0.930 . S
H311 C285 0.931 . S
H312 C292 0.932 . S
H313 C293 0.930 1_556 S
H314 C294 0.929 . S
H315 C296 0.930 . S
H316 C298 0.932 . S
H317 C299 0.929 . S
H318 C300 0.928 . S
H319 C302 0.932 . S
Ho320 C323 2.811 . S
Ho320 O340 2.322 . S
Ho320 O342 2.378 . S
Ho320 O343 2.524 . S
Ho320 O344 2.381 . S
Ho320 O345 2.669 1_565 S
Ho320 O347 2.346 1_565 S
Ho320 O351 2.305 1_455 S
Ho321 C332 2.811 . S
Ho321 O341 2.346 1_545 S
Ho321 O345 2.305 1_655 S
Ho321 O346 2.322 . S
Ho321 O348 2.378 . S
Ho321 O349 2.542 . S
Ho321 O350 2.381 . S
Ho321 O351 2.669 1_545 S
C322 O340 1.259 1_655 S
C322 O341 1.268 . S
C323 Ho320 2.811 . S
C323 C324 1.488 . S
C323 O342 1.215 . S
C323 O343 1.289 . S
C324 C323 1.488 . S
C324 C325 1.348 . S
C324 C329 1.413 . S
C325 C324 1.348 . S
C325 C326 1.442 . S
C325 H352 0.930 1_455 S
C326 C325 1.442 . S
C326 C327 1.381 . S
C326 H353 0.931 1_455 S
C327 C326 1.381 . S
C327 C328 1.321 . S
C328 C327 1.321 . S
C328 C329 1.403 . S
C328 H354 0.934 . S
C329 C324 1.413 . S
C329 C328 1.403 . S
C329 H355 0.930 . S
C330 O344 1.293 . S
C330 O345 1.246 1_565 S
C331 O346 1.259 1_455 S
C331 O347 1.268 . S
C332 Ho321 2.811 . S
C332 C333 1.488 . S
C332 O348 1.215 . S
C332 O349 1.333 . S
C333 C332 1.488 . S
C333 C334 1.348 . S
C333 C338 1.413 . S
C334 C333 1.348 . S
C334 C335 1.442 . S
C334 H356 0.930 1_655 S
C335 C334 1.442 . S
C335 C336 1.381 . S
C335 H357 0.931 1_655 S
C336 C335 1.381 . S
C336 C337 1.321 . S
C337 C336 1.321 . S
C337 C338 1.403 . S
C337 H358 0.934 . S
C338 C333 1.413 . S
C338 C337 1.403 . S
C338 H359 0.930 . S
C339 O350 1.303 . S
C339 O351 1.241 1_545 S
O340 Ho320 2.322 . S
O340 C322 1.259 1_455 S
O341 Ho321 2.346 1_565 S
O341 C322 1.268 . S
O342 Ho320 2.378 . S
O342 C323 1.215 . S
O343 Ho320 2.524 . S
O343 C323 1.289 . S
O344 Ho320 2.381 . S
O344 C330 1.293 . S
O345 Ho320 2.669 1_545 S
O345 Ho321 2.305 1_455 S
O345 C330 1.246 1_545 S
O346 Ho321 2.322 . S
O346 C331 1.259 1_655 S
O347 Ho320 2.346 1_545 S
O347 C331 1.268 . S
O348 Ho321 2.378 . S
O348 C332 1.215 . S
O349 Ho321 2.542 . S
O349 C332 1.333 . S
O350 Ho321 2.381 . S
O350 C339 1.303 . S
O351 Ho320 2.305 1_655 S
O351 Ho321 2.669 1_565 S
O351 C339 1.241 1_565 S
H352 C325 0.930 1_655 S
H353 C326 0.931 1_655 S
H354 C328 0.934 . S
H355 C329 0.930 . S
H356 C334 0.930 1_455 S
H357 C335 0.931 1_455 S
H358 C337 0.934 . S
H359 C338 0.930 . S
Ho360 C363 2.811 . S
Ho360 O380 2.322 . S
Ho360 O382 2.378 . S
Ho360 O383 2.524 . S
Ho360 O384 2.381 . S
Ho360 O385 2.669 . S
Ho360 O387 2.346 . S
Ho360 O391 2.305 1_545 S
Ho361 C372 2.811 . S
Ho361 O381 2.346 . S
Ho361 O385 2.305 1_565 S
Ho361 O386 2.322 . S
Ho361 O388 2.378 . S
Ho361 O389 2.542 . S
Ho361 O390 2.381 . S
Ho361 O391 2.669 . S
C362 O380 1.259 1_565 S
C362 O381 1.268 . S
C363 Ho360 2.811 . S
C363 C364 1.488 . S
C363 O382 1.215 . S
C363 O383 1.289 . S
C364 C363 1.488 . S
C364 C365 1.348 . S
C364 C369 1.413 . S
C365 C364 1.348 . S
C365 C366 1.442 . S
C365 H392 0.930 1_545 S
C366 C365 1.442 . S
C366 C367 1.381 . S
C366 H393 0.931 1_545 S
C367 C366 1.381 . S
C367 C368 1.321 . S
C368 C367 1.321 . S
C368 C369 1.403 . S
C368 H394 0.934 . S
C369 C364 1.413 . S
C369 C368 1.403 . S
C369 H395 0.930 . S
C370 O384 1.275 . S
C370 O385 1.256 . S
C371 O386 1.259 1_545 S
C371 O387 1.268 . S
C372 Ho361 2.811 . S
C372 C373 1.488 . S
C372 O388 1.215 . S
C372 O389 1.332 . S
C373 C372 1.488 . S
C373 C374 1.348 . S
C373 C378 1.413 . S
C374 C373 1.348 . S
C374 C375 1.442 . S
C374 H396 0.930 1_565 S
C375 C374 1.442 . S
C375 C376 1.381 . S
C375 H397 0.931 1_565 S
C376 C375 1.381 . S
C376 C377 1.321 . S
C377 C376 1.321 . S
C377 C378 1.403 . S
C377 H398 0.934 . S
C378 C373 1.413 . S
C378 C377 1.403 . S
C378 H399 0.930 . S
C379 O390 1.275 . S
C379 O391 1.256 . S
O380 Ho360 2.322 . S
O380 C362 1.259 1_545 S
O381 Ho361 2.346 . S
O381 C362 1.268 . S
O382 Ho360 2.378 . S
O382 C363 1.215 . S
O383 Ho360 2.524 . S
O383 C363 1.289 . S
O384 Ho360 2.381 . S
O384 C370 1.275 . S
O385 Ho360 2.669 . S
O385 Ho361 2.305 1_545 S
O385 C370 1.256 . S
O386 Ho361 2.322 . S
O386 C371 1.259 1_565 S
O387 Ho360 2.346 . S
O387 C371 1.268 . S
O388 Ho361 2.378 . S
O388 C372 1.215 . S
O389 Ho361 2.542 . S
O389 C372 1.332 . S
O390 Ho361 2.381 . S
O390 C379 1.275 . S
O391 Ho360 2.305 1_565 S
O391 Ho361 2.669 . S
O391 C379 1.256 . S
H392 C365 0.930 1_565 S
H393 C366 0.931 1_565 S
H394 C368 0.934 . S
H395 C369 0.930 . S
H396 C374 0.930 1_545 S
H397 C375 0.931 1_545 S
H398 C377 0.934 . S
H399 C378 0.930 . S
Ho400 C403 2.811 . S
Ho400 O420 2.322 . S
Ho400 O422 2.378 . S
Ho400 O423 2.524 . S
Ho400 O424 2.381 . S
Ho400 O425 2.669 . S
Ho400 O427 2.346 . S
Ho400 O431 2.305 . S
Ho401 C412 2.811 . S
Ho401 O421 2.346 . S
Ho401 O425 2.305 . S
Ho401 O426 2.322 . S
Ho401 O428 2.378 . S
Ho401 O429 2.524 . S
Ho401 O430 2.381 . S
Ho401 O431 2.669 . S
C402 O420 1.259 . S
C402 O421 1.268 . S
C403 Ho400 2.811 . S
C403 C404 1.488 . S
C403 O422 1.215 . S
C403 O423 1.289 . S
C404 C403 1.488 . S
C404 C405 1.348 . S
C404 C409 1.413 . S
C405 C404 1.348 . S
C405 C406 1.442 . S
C405 H432 0.930 . S
C406 C405 1.442 . S
C406 C407 1.381 . S
C406 H433 0.931 . S
C407 C406 1.381 . S
C407 C408 1.321 . S
C408 C407 1.321 . S
C408 C409 1.403 . S
C408 H434 0.934 . S
C409 C404 1.413 . S
C409 C408 1.403 . S
C409 H435 0.930 . S
C410 O424 1.275 . S
C410 O425 1.256 . S
C411 O426 1.259 . S
C411 O427 1.268 . S
C412 Ho401 2.811 . S
C412 C413 1.488 . S
C412 O428 1.215 . S
C412 O429 1.289 . S
C413 C412 1.488 . S
C413 C414 1.348 . S
C413 C418 1.413 . S
C414 C413 1.348 . S
C414 C415 1.442 . S
C414 H436 0.930 . S
C415 C414 1.442 . S
C415 C416 1.381 . S
C415 H437 0.931 . S
C416 C415 1.381 . S
C416 C417 1.321 . S
C417 C416 1.321 . S
C417 C418 1.403 . S
C417 H438 0.934 . S
C418 C413 1.413 . S
C418 C417 1.403 . S
C418 H439 0.930 . S
C419 O430 1.275 . S
C419 O431 1.256 . S
O420 Ho400 2.322 . S
O420 C402 1.259 . S
O421 Ho401 2.346 . S
O421 C402 1.268 . S
O422 Ho400 2.378 . S
O422 C403 1.215 . S
O423 Ho400 2.524 . S
O423 C403 1.289 . S
O424 Ho400 2.381 . S
O424 C410 1.275 . S
O425 Ho400 2.669 . S
O425 Ho401 2.305 . S
O425 C410 1.256 . S
O426 Ho401 2.322 . S
O426 C411 1.259 . S
O427 Ho400 2.346 . S
O427 C411 1.268 . S
O428 Ho401 2.378 . S
O428 C412 1.215 . S
O429 Ho401 2.524 . S
O429 C412 1.289 . S
O430 Ho401 2.381 . S
O430 C419 1.275 . S
O431 Ho400 2.305 . S
O431 Ho401 2.669 . S
O431 C419 1.256 . S
H432 C405 0.930 . S
H433 C406 0.931 . S
H434 C408 0.934 . S
H435 C409 0.930 . S
H436 C414 0.930 . S
H437 C415 0.931 . S
H438 C417 0.934 . S
H439 C418 0.930 . S
Ho440 C443 2.811 . S
Ho440 O460 2.322 . S
Ho440 O462 2.378 . S
Ho440 O463 2.524 . S
Ho440 O464 2.381 . S
Ho440 O465 2.669 1_655 S
Ho440 O467 2.346 1_655 S
Ho440 O471 2.305 . S
Ho441 C452 2.811 . S
Ho441 O461 2.346 1_455 S
Ho441 O465 2.305 . S
Ho441 O466 2.322 . S
Ho441 O468 2.378 . S
Ho441 O469 2.524 . S
Ho441 O470 2.381 . S
Ho441 O471 2.669 1_455 S
C442 O460 1.259 . S
C442 O461 1.268 . S
C443 Ho440 2.811 . S
C443 C444 1.488 . S
C443 O462 1.215 . S
C443 O463 1.289 . S
C444 C443 1.488 . S
C444 C445 1.348 . S
C444 C449 1.413 . S
C445 C444 1.348 . S
C445 C446 1.442 . S
C445 H472 0.930 . S
C446 C445 1.442 . S
C446 C447 1.381 . S
C446 H473 0.931 . S
C447 C446 1.381 . S
C447 C448 1.321 . S
C448 C447 1.321 . S
C448 C449 1.403 . S
C448 H474 0.934 . S
C449 C444 1.413 . S
C449 C448 1.403 . S
C449 H475 0.930 . S
C450 O464 1.294 . S
C450 O465 1.246 1_655 S
C451 O466 1.259 . S
C451 O467 1.268 . S
C452 Ho441 2.811 . S
C452 C453 1.488 . S
C452 O468 1.215 . S
C452 O469 1.289 . S
C453 C452 1.488 . S
C453 C454 1.348 . S
C453 C458 1.413 . S
C454 C453 1.348 . S
C454 C455 1.442 . S
C454 H476 0.930 . S
C455 C454 1.442 . S
C455 C456 1.381 . S
C455 H477 0.931 . S
C456 C455 1.381 . S
C456 C457 1.321 . S
C457 C456 1.321 . S
C457 C458 1.403 . S
C457 H478 0.934 . S
C458 C453 1.413 . S
C458 C457 1.403 . S
C458 H479 0.930 . S
C459 O470 1.301 . S
C459 O471 1.242 1_455 S
O460 Ho440 2.322 . S
O460 C442 1.259 . S
O461 Ho441 2.346 1_655 S
O461 C442 1.268 . S
O462 Ho440 2.378 . S
O462 C443 1.215 . S
O463 Ho440 2.524 . S
O463 C443 1.289 . S
O464 Ho440 2.381 . S
O464 C450 1.294 . S
O465 Ho440 2.669 1_455 S
O465 Ho441 2.305 . S
O465 C450 1.246 1_455 S
O466 Ho441 2.322 . S
O466 C451 1.259 . S
O467 Ho440 2.346 1_455 S
O467 C451 1.268 . S
O468 Ho441 2.378 . S
O468 C452 1.215 . S
O469 Ho441 2.524 . S
O469 C452 1.289 . S
O470 Ho441 2.381 . S
O470 C459 1.301 . S
O471 Ho440 2.305 . S
O471 Ho441 2.669 1_655 S
O471 C459 1.242 1_655 S
H472 C445 0.930 . S
H473 C446 0.931 . S
H474 C448 0.934 . S
H475 C449 0.930 . S
H476 C454 0.930 . S
H477 C455 0.931 . S
H478 C457 0.934 . S
H479 C458 0.930 . S
H480 C492 0.930 . S
H481 C494 0.930 . S
H482 C495 0.930 . S
H483 C499 0.959 . S
H484 C499 0.959 . S
H485 C499 0.961 . S
H486 C500 0.960 . S
H487 C500 0.961 . S
H488 C500 0.959 . S
H489 C503 0.929 . S
H490 C504 0.931 . S
H491 C506 0.930 . S
C492 H480 0.930 . S
C492 C493 1.363 1_545 S
C492 C497 1.399 . S
C493 C492 1.363 1_565 S
C493 C494 1.423 . S
C494 H481 0.930 . S
C494 C493 1.423 . S
C494 C495 1.388 . S
C495 H482 0.930 . S
C495 C494 1.388 . S
C495 C496 1.390 . S
C496 C495 1.390 . S
C496 C497 1.394 1_565 S
C496 C502 1.465 . S
C497 C492 1.399 . S
C497 C496 1.394 1_545 S
C497 C498 1.516 . S
C498 C497 1.516 . S
C498 C499 1.502 . S
C498 C500 1.561 . S
C498 C501 1.526 . S
C499 H483 0.959 . S
C499 H484 0.959 . S
C499 H485 0.961 . S
C499 C498 1.502 . S
C500 H486 0.960 . S
C500 H487 0.961 . S
C500 H488 0.959 . S
C500 C498 1.561 . S
C501 C498 1.526 . S
C501 C502 1.396 1_545 S
C501 C506 1.390 . S
C502 C496 1.465 . S
C502 C501 1.396 1_565 S
C502 C503 1.399 . S
C503 H489 0.929 . S
C503 C502 1.399 . S
C503 C504 1.385 . S
C504 H490 0.931 . S
C504 C503 1.385 . S
C504 C505 1.414 . S
C505 C504 1.414 . S
C505 C506 1.368 1_565 S
C506 H491 0.930 . S
C506 C501 1.390 . S
C506 C505 1.368 1_545 S
H507 C519 0.930 . S
H508 C521 0.930 . S
H509 C522 0.930 . S
H510 C526 0.959 . S
H511 C526 0.959 . S
H512 C526 0.961 . S
H513 C527 0.960 . S
H514 C527 0.961 . S
H515 C527 0.959 . S
H516 C530 0.929 . S
H517 C531 0.931 . S
H518 C533 0.930 . S
C519 H507 0.930 . S
C519 C520 1.399 . S
C519 C524 1.399 . S
C520 C519 1.399 . S
C520 C521 1.376 . S
C521 H508 0.930 . S
C521 C520 1.376 . S
C521 C522 1.388 . S
C522 H509 0.930 . S
C522 C521 1.388 . S
C522 C523 1.390 . S
C523 C522 1.390 . S
C523 C524 1.394 . S
C523 C529 1.465 . S
C524 C519 1.399 . S
C524 C523 1.394 . S
C524 C525 1.516 . S
C525 C524 1.516 . S
C525 C526 1.502 . S
C525 C527 1.561 . S
C525 C528 1.526 . S
C526 H510 0.959 . S
C526 H511 0.959 . S
C526 H512 0.961 . S
C526 C525 1.502 . S
C527 H513 0.960 . S
C527 H514 0.961 . S
C527 H515 0.959 . S
C527 C525 1.561 . S
C528 C525 1.526 . S
C528 C529 1.396 . S
C528 C533 1.390 . S
C529 C523 1.465 . S
C529 C528 1.396 . S
C529 C530 1.399 . S
C530 H516 0.929 . S
C530 C529 1.399 . S
C530 C531 1.385 . S
C531 H517 0.931 . S
C531 C530 1.385 . S
C531 C532 1.389 . S
C532 C531 1.389 . S
C532 C533 1.387 . S
C533 H518 0.930 . S
C533 C528 1.390 . S
C533 C532 1.387 . S
H534 C546 0.930 . S
H535 C548 0.930 . S
H536 C549 0.930 . S
H537 C553 0.959 . S
H538 C553 0.959 . S
H539 C553 0.961 . S
H540 C554 0.960 . S
H541 C554 0.961 . S
H542 C554 0.959 . S
H543 C557 0.929 . S
H544 C558 0.931 . S
H545 C560 0.930 . S
C546 H534 0.930 . S
C546 C547 1.399 . S
C546 C551 1.399 . S
C547 C546 1.399 . S
C547 C548 1.376 . S
C548 H535 0.930 . S
C548 C547 1.376 . S
C548 C549 1.388 . S
C549 H536 0.930 . S
C549 C548 1.388 . S
C549 C550 1.390 . S
C550 C549 1.390 . S
C550 C551 1.394 . S
C550 C556 1.465 . S
C551 C546 1.399 . S
C551 C550 1.394 . S
C551 C552 1.516 . S
C552 C551 1.516 . S
C552 C553 1.502 . S
C552 C554 1.561 . S
C552 C555 1.526 . S
C553 H537 0.959 . S
C553 H538 0.959 . S
C553 H539 0.961 . S
C553 C552 1.502 . S
C554 H540 0.960 . S
C554 H541 0.961 . S
C554 H542 0.959 . S
C554 C552 1.561 . S
C555 C552 1.526 . S
C555 C556 1.396 . S
C555 C560 1.390 . S
C556 C550 1.465 . S
C556 C555 1.396 . S
C556 C557 1.399 . S
C557 H543 0.929 . S
C557 C556 1.399 . S
C557 C558 1.385 . S
C558 H544 0.931 . S
C558 C557 1.385 . S
C558 C559 1.389 . S
C559 C558 1.389 . S
C559 C560 1.387 . S
C560 H545 0.930 . S
C560 C555 1.390 . S
C560 C559 1.387 . S
H561 C573 0.930 . S
H562 C575 0.930 . S
H563 C576 0.930 . S
H564 C580 0.959 . S
H565 C580 0.959 . S
H566 C580 0.961 . S
H567 C581 0.960 . S
H568 C581 0.961 . S
H569 C581 0.959 1_455 S
H570 C584 0.929 . S
H571 C585 0.931 . S
H572 C587 0.930 . S
C573 H561 0.930 . S
C573 C574 1.399 1_655 S
C573 C578 1.399 . S
C574 C573 1.399 1_455 S
C574 C575 1.376 . S
C575 H562 0.930 . S
C575 C574 1.376 . S
C575 C576 1.388 . S
C576 H563 0.930 . S
C576 C575 1.388 . S
C576 C577 1.390 . S
C577 C576 1.390 . S
C577 C578 1.394 1_455 S
C577 C583 1.465 . S
C578 C573 1.399 . S
C578 C577 1.394 1_655 S
C578 C579 1.516 . S
C579 C578 1.516 . S
C579 C580 1.502 . S
C579 C581 1.561 . S
C579 C582 1.526 . S
C580 H564 0.959 . S
C580 H565 0.959 . S
C580 H566 0.961 . S
C580 C579 1.502 . S
C581 H567 0.960 . S
C581 H568 0.961 . S
C581 H569 0.959 1_655 S
C581 C579 1.561 . S
C582 C579 1.526 . S
C582 C583 1.396 1_655 S
C582 C587 1.390 . S
C583 C577 1.465 . S
C583 C582 1.396 1_455 S
C583 C584 1.399 . S
C584 H570 0.929 . S
C584 C583 1.399 . S
C584 C585 1.385 . S
C585 H571 0.931 . S
C585 C584 1.385 . S
C585 C586 1.389 . S
C586 C585 1.389 . S
C586 C587 1.387 1_455 S
C587 H572 0.930 . S
C587 C582 1.390 . S
C587 C586 1.387 1_655 S
H588 C600 0.930 . S
H589 C602 0.930 . S
H590 C603 0.930 . S
H591 C607 0.959 . S
H592 C607 0.959 . S
H593 C607 0.961 1_554 S
H594 C608 0.960 . S
H595 C608 0.961 1_556 S
H596 C608 0.959 . S
H597 C611 0.929 . S
H598 C612 0.931 . S
H599 C614 0.930 . S
C600 H588 0.930 . S
C600 C601 1.399 1_545 S
C600 C605 1.399 . S
C601 C600 1.399 1_565 S
C601 C602 1.376 . S
C602 H589 0.930 . S
C602 C601 1.376 . S
C602 C603 1.388 . S
C603 H590 0.930 . S
C603 C602 1.388 . S
C603 C604 1.390 . S
C604 C603 1.390 . S
C604 C605 1.394 1_565 S
C604 C610 1.465 1_554 S
C605 C600 1.399 . S
C605 C604 1.394 1_545 S
C605 C606 1.516 1_554 S
C606 C605 1.516 1_556 S
C606 C607 1.502 . S
C606 C608 1.561 1_556 S
C606 C609 1.526 . S
C607 H591 0.959 . S
C607 H592 0.959 . S
C607 H593 0.961 1_556 S
C607 C606 1.502 . S
C608 H594 0.960 . S
C608 H595 0.961 1_554 S
C608 H596 0.959 . S
C608 C606 1.561 1_554 S
C609 C606 1.526 . S
C609 C610 1.396 1_545 S
C609 C614 1.390 . S
C610 C604 1.465 1_556 S
C610 C609 1.396 1_565 S
C610 C611 1.399 . S
C611 H597 0.929 . S
C611 C610 1.399 . S
C611 C612 1.385 . S
C612 H598 0.931 . S
C612 C611 1.385 . S
C612 C613 1.389 . S
C613 C612 1.389 . S
C613 C614 1.387 1_565 S
C614 H599 0.930 . S
C614 C609 1.390 . S
C614 C613 1.387 1_545 S
H615 C627 0.930 . S
H616 C629 0.930 . S
H617 C630 0.930 . S
H618 C634 0.959 . S
H619 C634 0.959 . S
H620 C634 0.961 . S
H621 C635 0.960 . S
H622 C635 0.961 . S
H623 C635 0.959 . S
H624 C638 0.929 . S
H625 C639 0.931 . S
H626 C641 0.930 . S
C627 H615 0.930 . S
C627 C628 1.399 . S
C627 C632 1.399 . S
C628 C627 1.399 . S
C628 C629 1.376 . S
C629 H616 0.930 . S
C629 C628 1.376 . S
C629 C630 1.388 . S
C630 H617 0.930 . S
C630 C629 1.388 . S
C630 C631 1.390 . S
C631 C630 1.390 . S
C631 C632 1.394 . S
C631 C637 1.465 1_554 S
C632 C627 1.399 . S
C632 C631 1.394 . S
C632 C633 1.516 . S
C633 C632 1.516 . S
C633 C634 1.502 . S
C633 C635 1.561 . S
C633 C636 1.526 1_554 S
C634 H618 0.959 . S
C634 H619 0.959 . S
C634 H620 0.961 . S
C634 C633 1.502 . S
C635 H621 0.960 . S
C635 H622 0.961 . S
C635 H623 0.959 . S
C635 C633 1.561 . S
C636 C633 1.526 1_556 S
C636 C637 1.396 . S
C636 C641 1.390 . S
C637 C631 1.465 1_556 S
C637 C636 1.396 . S
C637 C638 1.399 . S
C638 H624 0.929 . S
C638 C637 1.399 . S
C638 C639 1.385 . S
C639 H625 0.931 . S
C639 C638 1.385 . S
C639 C640 1.389 . S
C640 C639 1.389 . S
C640 C641 1.387 . S
C641 H626 0.930 . S
C641 C636 1.390 . S
C641 C640 1.387 . S
H642 C654 0.930 . S
H643 C656 0.930 . S
H644 C657 0.930 . S
H645 C661 0.959 . S
H646 C661 0.959 1_556 S
H647 C661 0.961 . S
H648 C662 0.960 1_554 S
H649 C662 0.961 . S
H650 C662 0.959 . S
H651 C665 0.929 . S
H652 C666 0.931 . S
H653 C668 0.930 . S
C654 H642 0.930 . S
C654 C655 1.399 . S
C654 C659 1.399 . S
C655 C654 1.399 . S
C655 C656 1.376 . S
C656 H643 0.930 . S
C656 C655 1.376 . S
C656 C657 1.388 . S
C657 H644 0.930 . S
C657 C656 1.388 . S
C657 C658 1.390 . S
C658 C657 1.390 . S
C658 C659 1.394 . S
C658 C664 1.465 1_554 S
C659 C654 1.399 . S
C659 C658 1.394 . S
C659 C660 1.516 . S
C660 C659 1.516 . S
C660 C661 1.502 . S
C660 C662 1.561 1_554 S
C660 C663 1.526 1_554 S
C661 H645 0.959 . S
C661 H646 0.959 1_554 S
C661 H647 0.961 . S
C661 C660 1.502 . S
C662 H648 0.960 1_556 S
C662 H649 0.961 . S
C662 H650 0.959 . S
C662 C660 1.561 1_556 S
C663 C660 1.526 1_556 S
C663 C664 1.396 . S
C663 C668 1.390 . S
C664 C658 1.465 1_556 S
C664 C663 1.396 . S
C664 C665 1.399 . S
C665 H651 0.929 . S
C665 C664 1.399 . S
C665 C666 1.385 . S
C666 H652 0.931 . S
C666 C665 1.385 . S
C666 C667 1.389 . S
C667 C666 1.389 . S
C667 C668 1.387 . S
C668 H653 0.930 . S
C668 C663 1.390 . S
C668 C667 1.387 . S
H669 C681 0.930 . S
H670 C683 0.930 . S
H671 C684 0.930 . S
H672 C688 0.959 . S
H673 C688 0.959 . S
H674 C688 0.963 . S
H675 C689 0.960 . S
H676 C689 0.961 . S
H677 C689 0.959 1_455 S
H678 C692 0.929 . S
H679 C693 0.931 . S
H680 C695 0.930 . S
C681 H669 0.930 . S
C681 C682 1.383 1_655 S
C681 C686 1.399 . S
C682 C681 1.383 1_455 S
C682 C683 1.398 . S
C683 H670 0.930 . S
C683 C682 1.398 . S
C683 C684 1.388 . S
C684 H671 0.930 . S
C684 C683 1.388 . S
C684 C685 1.390 . S
C685 C684 1.390 . S
C685 C686 1.394 1_455 S
C685 C691 1.465 1_554 S
C686 C681 1.399 . S
C686 C685 1.394 1_655 S
C686 C687 1.516 1_554 S
C687 C686 1.516 1_556 S
C687 C688 1.502 . S
C687 C689 1.561 . S
C687 C690 1.526 . S
C688 H672 0.959 . S
C688 H673 0.959 . S
C688 H674 0.963 . S
C688 C687 1.502 . S
C689 H675 0.960 . S
C689 H676 0.961 . S
C689 H677 0.959 1_655 S
C689 C687 1.561 . S
C690 C687 1.526 . S
C690 C691 1.396 1_655 S
C690 C695 1.390 . S
C691 C685 1.465 1_556 S
C691 C690 1.396 1_455 S
C691 C692 1.399 . S
C692 H678 0.929 . S
C692 C691 1.399 . S
C692 C693 1.385 . S
C693 H679 0.931 . S
C693 C692 1.385 . S
C693 C694 1.393 1_455 S
C694 C693 1.393 1_655 S
C694 C695 1.384 . S
C695 H680 0.930 . S
C695 C690 1.390 . S
C695 C694 1.384 . S
H696 C708 0.930 . S
H697 C710 0.930 . S
H698 C711 0.930 . S
H699 C715 0.959 . S
H700 C715 0.959 . S
H701 C715 0.961 . S
H702 C716 0.960 . S
H703 C716 0.961 . S
H704 C716 0.959 1_455 S
H705 C719 0.929 . S
H706 C720 0.931 . S
H707 C722 0.930 . S
C708 H696 0.930 . S
C708 C709 1.399 1_655 S
C708 C713 1.399 . S
C709 C708 1.399 1_455 S
C709 C710 1.376 . S
C710 H697 0.930 . S
C710 C709 1.376 . S
C710 C711 1.388 . S
C711 H698 0.930 . S
C711 C710 1.388 . S
C711 C712 1.390 1_455 S
C712 C711 1.390 1_655 S
C712 C713 1.394 . S
C712 C718 1.465 . S
C713 C708 1.399 . S
C713 C712 1.394 . S
C713 C714 1.516 . S
C714 C713 1.516 . S
C714 C715 1.502 . S
C714 C716 1.561 . S
C714 C717 1.526 . S
C715 H699 0.959 . S
C715 H700 0.959 . S
C715 H701 0.961 . S
C715 C714 1.502 . S
C716 H702 0.960 . S
C716 H703 0.961 . S
C716 H704 0.959 1_655 S
C716 C714 1.561 . S
C717 C714 1.526 . S
C717 C718 1.396 . S
C717 C722 1.390 . S
C718 C712 1.465 . S
C718 C717 1.396 . S
C718 C719 1.399 . S
C719 H705 0.929 . S
C719 C718 1.399 . S
C719 C720 1.385 . S
C720 H706 0.931 . S
C720 C719 1.385 . S
C720 C721 1.389 . S
C721 C720 1.389 . S
C721 C722 1.387 . S
C722 H707 0.930 . S
C722 C717 1.390 . S
C722 C721 1.387 . S
H723 C735 0.930 . S
H724 C737 0.930 . S
H725 C738 0.930 . S
H726 C742 0.959 1_545 S
H727 C742 0.959 . S
H728 C742 0.961 . S
H729 C743 0.960 . S
H730 C743 0.961 . S
H731 C743 0.959 . S
H732 C746 0.929 . S
H733 C747 0.931 . S
H734 C749 0.930 . S
C735 H723 0.930 . S
C735 C736 1.399 1_565 S
C735 C740 1.399 . S
C736 C735 1.399 1_545 S
C736 C737 1.376 . S
C737 H724 0.930 . S
C737 C736 1.376 . S
C737 C738 1.388 1_545 S
C738 H725 0.930 . S
C738 C737 1.388 1_565 S
C738 C739 1.390 . S
C739 C738 1.390 . S
C739 C740 1.394 . S
C739 C745 1.465 . S
C740 C735 1.399 . S
C740 C739 1.394 . S
C740 C741 1.516 . S
C741 C740 1.516 . S
C741 C742 1.502 . S
C741 C743 1.561 . S
C741 C744 1.526 . S
C742 H726 0.959 1_565 S
C742 H727 0.959 . S
C742 H728 0.961 . S
C742 C741 1.502 . S
C743 H729 0.960 . S
C743 H730 0.961 . S
C743 H731 0.959 . S
C743 C741 1.561 . S
C744 C741 1.526 . S
C744 C745 1.396 . S
C744 C749 1.390 . S
C745 C739 1.465 . S
C745 C744 1.396 . S
C745 C746 1.399 . S
C746 H732 0.929 . S
C746 C745 1.399 . S
C746 C747 1.385 . S
C747 H733 0.931 . S
C747 C746 1.385 . S
C747 C748 1.389 . S
C748 C747 1.389 . S
C748 C749 1.387 . S
C749 H734 0.930 . S
C749 C744 1.390 . S
C749 C748 1.387 . S
H750 C762 0.930 . S
H751 C764 0.930 . S
H752 C765 0.930 . S
H753 C769 0.959 . S
H754 C769 0.959 . S
H755 C769 0.961 . S
H756 C770 0.960 . S
H757 C770 0.961 . S
H758 C770 0.959 . S
H759 C773 0.929 . S
H760 C774 0.931 . S
H761 C776 0.930 . S
C762 H750 0.930 . S
C762 C763 1.399 . S
C762 C767 1.399 . S
C763 C762 1.399 . S
C763 C764 1.376 . S
C764 H751 0.930 . S
C764 C763 1.376 . S
C764 C765 1.388 . S
C765 H752 0.930 . S
C765 C764 1.388 . S
C765 C766 1.390 . S
C766 C765 1.390 . S
C766 C767 1.394 . S
C766 C772 1.465 . S
C767 C762 1.399 . S
C767 C766 1.394 . S
C767 C768 1.516 . S
C768 C767 1.516 . S
C768 C769 1.502 . S
C768 C770 1.561 . S
C768 C771 1.526 . S
C769 H753 0.959 . S
C769 H754 0.959 . S
C769 H755 0.961 . S
C769 C768 1.502 . S
C770 H756 0.960 . S
C770 H757 0.961 . S
C770 H758 0.959 . S
C770 C768 1.561 . S
C771 C768 1.526 . S
C771 C772 1.396 . S
C771 C776 1.390 . S
C772 C766 1.465 . S
C772 C771 1.396 . S
C772 C773 1.399 . S
C773 H759 0.929 . S
C773 C772 1.399 . S
C773 C774 1.385 . S
C774 H760 0.931 . S
C774 C773 1.385 . S
C774 C775 1.389 . S
C775 C774 1.389 . S
C775 C776 1.387 . S
C776 H761 0.930 . S
C776 C771 1.390 . S
C776 C775 1.387 . S
H777 C789 0.930 . S
H778 C791 0.930 . S
H779 C792 0.930 . S
H780 C796 0.959 . S
H781 C796 0.959 . S
H782 C796 0.961 . S
H783 C797 0.960 . S
H784 C797 0.961 . S
H785 C797 0.959 . S
H786 C800 0.929 . S
H787 C801 0.931 . S
H788 C803 0.930 . S
C789 H777 0.930 . S
C789 C790 1.399 . S
C789 C794 1.399 . S
C790 C789 1.399 . S
C790 C791 1.376 . S
C791 H778 0.930 . S
C791 C790 1.376 . S
C791 C792 1.388 . S
C792 H779 0.930 . S
C792 C791 1.388 . S
C792 C793 1.390 . S
C793 C792 1.390 . S
C793 C794 1.394 . S
C793 C799 1.465 . S
C794 C789 1.399 . S
C794 C793 1.394 . S
C794 C795 1.516 . S
C795 C794 1.516 . S
C795 C796 1.502 . S
C795 C797 1.561 . S
C795 C798 1.526 . S
C796 H780 0.959 . S
C796 H781 0.959 . S
C796 H782 0.961 . S
C796 C795 1.502 . S
C797 H783 0.960 . S
C797 H784 0.961 . S
C797 H785 0.959 . S
C797 C795 1.561 . S
C798 C795 1.526 . S
C798 C799 1.396 . S
C798 C803 1.390 . S
C799 C793 1.465 . S
C799 C798 1.396 . S
C799 C800 1.399 . S
C800 H786 0.929 . S
C800 C799 1.399 . S
C800 C801 1.385 . S
C801 H787 0.931 . S
C801 C800 1.385 . S
C801 C802 1.389 . S
C802 C801 1.389 . S
C802 C803 1.387 . S
C803 H788 0.930 . S
C803 C798 1.390 . S
C803 C802 1.387 . S
H804 C816 0.930 . S
H805 C818 0.930 . S
H806 C819 0.930 . S
H807 C823 0.959 . S
H808 C823 0.959 . S
H809 C823 0.961 . S
H810 C824 0.960 . S
H811 C824 0.961 . S
H812 C824 0.959 . S
H813 C827 0.929 . S
H814 C828 0.931 . S
H815 C830 0.930 1_554 S
C816 H804 0.930 . S
C816 C817 1.399 . S
C816 C821 1.399 1_655 S
C817 C816 1.399 . S
C817 C818 1.376 1_654 S
C818 H805 0.930 . S
C818 C817 1.376 1_456 S
C818 C819 1.388 . S
C819 H806 0.930 . S
C819 C818 1.388 . S
C819 C820 1.390 . S
C820 C819 1.390 . S
C820 C821 1.394 1_556 S
C820 C826 1.465 . S
C821 C816 1.399 1_455 S
C821 C820 1.394 1_554 S
C821 C822 1.516 . S
C822 C821 1.516 . S
C822 C823 1.502 1_455 S
C822 C824 1.561 . S
C822 C825 1.526 1_554 S
C823 H807 0.959 . S
C823 H808 0.959 . S
C823 H809 0.961 . S
C823 C822 1.502 1_655 S
C824 H810 0.960 . S
C824 H811 0.961 . S
C824 H812 0.959 . S
C824 C822 1.561 . S
C825 C822 1.526 1_556 S
C825 C826 1.396 . S
C825 C830 1.390 . S
C826 C820 1.465 . S
C826 C825 1.396 . S
C826 C827 1.399 . S
C827 H813 0.929 . S
C827 C826 1.399 . S
C827 C828 1.385 . S
C828 H814 0.931 . S
C828 C827 1.385 . S
C828 C829 1.389 . S
C829 C828 1.389 . S
C829 C830 1.387 . S
C830 H815 0.930 1_556 S
C830 C825 1.390 . S
C830 C829 1.387 . S
H831 C843 0.930 . S
H832 C845 0.930 1_556 S
H833 C846 0.930 . S
H834 C850 0.959 . S
H835 C850 0.959 . S
H836 C850 0.961 . S
H837 C851 0.960 1_554 S
H838 C851 0.961 . S
H839 C851 0.959 . S
H840 C854 0.884 1_565 S
H841 C855 0.931 . S
H842 C857 0.930 . S
C843 H831 0.930 . S
C843 C844 1.399 1_545 S
C843 C848 1.399 . S
C844 C843 1.399 1_565 S
C844 C845 1.376 . S
C845 H832 0.930 1_554 S
C845 C844 1.376 . S
C845 C846 1.388 1_554 S
C846 H833 0.930 . S
C846 C845 1.388 1_556 S
C846 C847 1.390 1_565 S
C847 C846 1.390 1_545 S
C847 C848 1.394 1_556 S
C847 C853 1.465 . S
C848 C843 1.399 . S
C848 C847 1.394 1_554 S
C848 C849 1.516 . S
C849 C848 1.516 . S
C849 C850 1.502 . S
C849 C851 1.561 1_554 S
C849 C852 1.526 1_554 S
C850 H834 0.959 . S
C850 H835 0.959 . S
C850 H836 0.961 . S
C850 C849 1.502 . S
C851 H837 0.960 1_556 S
C851 H838 0.961 . S
C851 H839 0.959 . S
C851 C849 1.561 1_556 S
C852 C849 1.526 1_556 S
C852 C853 1.396 . S
C852 C857 1.390 . S
C853 C847 1.465 . S
C853 C852 1.396 . S
C853 C854 1.422 . S
C854 H840 0.884 1_545 S
C854 C853 1.422 . S
C854 C855 1.411 . S
C855 H841 0.931 . S
C855 C854 1.411 . S
C855 C856 1.389 . S
C856 C855 1.389 . S
C856 C857 1.387 . S
C857 H842 0.930 . S
C857 C852 1.390 . S
C857 C856 1.387 . S
H858 C870 0.930 . S
H859 C872 0.930 . S
H860 C873 0.930 . S
H861 C877 0.959 . S
H862 C877 0.959 . S
H863 C877 0.961 . S
H864 C878 0.960 . S
H865 C878 0.961 . S
H866 C878 0.959 . S
H867 C881 0.929 . S
H868 C882 0.931 1_554 S
H869 C884 0.930 . S
C870 H858 0.930 . S
C870 C871 1.399 1_556 S
C870 C875 1.399 . S
C871 C870 1.399 1_554 S
C871 C872 1.376 . S
C872 H859 0.930 . S
C872 C871 1.376 . S
C872 C873 1.388 . S
C873 H860 0.930 . S
C873 C872 1.388 . S
C873 C874 1.390 . S
C874 C873 1.390 . S
C874 C875 1.394 1_554 S
C874 C880 1.465 . S
C875 C870 1.399 . S
C875 C874 1.394 1_556 S
C875 C876 1.516 . S
C876 C875 1.516 . S
C876 C877 1.502 . S
C876 C878 1.561 . S
C876 C879 1.526 . S
C877 H861 0.959 . S
C877 H862 0.959 . S
C877 H863 0.961 . S
C877 C876 1.502 . S
C878 H864 0.960 . S
C878 H865 0.961 . S
C878 H866 0.959 . S
C878 C876 1.561 . S
C879 C876 1.526 . S
C879 C880 1.396 1_556 S
C879 C884 1.390 . S
C880 C874 1.465 . S
C880 C879 1.396 1_554 S
C880 C881 1.399 . S
C881 H867 0.929 . S
C881 C880 1.399 . S
C881 C882 1.385 1_554 S
C882 H868 0.931 1_556 S
C882 C881 1.385 1_556 S
C882 C883 1.389 . S
C883 C882 1.389 . S
C883 C884 1.387 . S
C884 H869 0.930 . S
C884 C879 1.390 . S
C884 C883 1.387 . S
H885 C897 0.930 . S
H886 C899 0.930 . S
H887 C900 0.930 . S
H888 C904 0.959 . S
H889 C904 0.959 . S
H890 C904 0.961 . S
H891 C905 0.960 . S
H892 C905 0.961 . S
H893 C905 0.959 . S
H894 C908 0.929 . S
H895 C909 0.931 . S
H896 C911 0.930 1_554 S
C897 H885 0.930 . S
C897 C898 1.399 . S
C897 C902 1.399 . S
C898 C897 1.399 . S
C898 C899 1.376 1_554 S
C899 H886 0.930 . S
C899 C898 1.376 1_556 S
C899 C900 1.388 . S
C900 H887 0.930 . S
C900 C899 1.388 . S
C900 C901 1.390 . S
C901 C900 1.390 . S
C901 C902 1.394 1_556 S
C901 C907 1.465 . S
C902 C897 1.399 . S
C902 C901 1.394 1_554 S
C902 C903 1.516 . S
C903 C902 1.516 . S
C903 C904 1.502 . S
C903 C905 1.561 . S
C903 C906 1.526 1_554 S
C904 H888 0.959 . S
C904 H889 0.959 . S
C904 H890 0.961 . S
C904 C903 1.502 . S
C905 H891 0.960 . S
C905 H892 0.961 . S
C905 H893 0.959 . S
C905 C903 1.561 . S
C906 C903 1.526 1_556 S
C906 C907 1.396 . S
C906 C911 1.390 . S
C907 C901 1.465 . S
C907 C906 1.396 . S
C907 C908 1.399 . S
C908 H894 0.929 . S
C908 C907 1.399 . S
C908 C909 1.385 . S
C909 H895 0.931 . S
C909 C908 1.385 . S
C909 C910 1.389 . S
C910 C909 1.389 . S
C910 C911 1.387 . S
C911 H896 0.930 1_556 S
C911 C906 1.390 . S
C911 C910 1.387 . S
H912 C924 0.933 . S
H913 C926 0.930 . S
H914 C927 0.930 . S
H915 C931 0.959 . S
H916 C931 0.959 . S
H917 C931 0.961 . S
H918 C932 0.960 . S
H919 C932 0.961 . S
H920 C932 0.959 . S
H921 C935 0.929 . S
H922 C936 0.931 . S
H923 C938 0.930 . S
C924 H912 0.933 . S
C924 C925 1.399 . S
C924 C929 1.399 . S
C925 C924 1.399 . S
C925 C926 1.376 . S
C926 H913 0.930 . S
C926 C925 1.376 . S
C926 C927 1.388 . S
C927 H914 0.930 . S
C927 C926 1.388 . S
C927 C928 1.390 . S
C928 C927 1.390 . S
C928 C929 1.394 . S
C928 C934 1.465 . S
C929 C924 1.399 . S
C929 C928 1.394 . S
C929 C930 1.516 . S
C930 C929 1.516 . S
C930 C931 1.502 1_455 S
C930 C932 1.561 . S
C930 C933 1.526 . S
C931 H915 0.959 . S
C931 H916 0.959 . S
C931 H917 0.961 . S
C931 C930 1.502 1_655 S
C932 H918 0.960 . S
C932 H919 0.961 . S
C932 H920 0.959 . S
C932 C930 1.561 . S
C933 C930 1.526 . S
C933 C934 1.396 . S
C933 C938 1.390 . S
C934 C928 1.465 . S
C934 C933 1.396 . S
C934 C935 1.399 . S
C935 H921 0.929 . S
C935 C934 1.399 . S
C935 C936 1.385 . S
C936 H922 0.931 . S
C936 C935 1.385 . S
C936 C937 1.389 . S
C937 C936 1.389 . S
C937 C938 1.387 . S
C938 H923 0.930 . S
C938 C933 1.390 . S
C938 C937 1.387 . S
H939 C951 0.930 . S
H940 C953 0.930 . S
H941 C954 0.930 . S
H942 C958 0.959 . S
H943 C958 0.959 . S
H944 C958 0.961 . S
H945 C959 0.960 . S
H946 C959 0.961 . S
H947 C959 0.959 . S
H948 C962 0.929 . S
H949 C963 0.931 . S
H950 C965 0.930 . S
C951 H939 0.930 . S
C951 C952 1.399 . S
C951 C956 1.399 . S
C952 C951 1.399 . S
C952 C953 1.376 1_545 S
C953 H940 0.930 . S
C953 C952 1.376 1_565 S
C953 C954 1.388 . S
C954 H941 0.930 . S
C954 C953 1.388 . S
C954 C955 1.390 . S
C955 C954 1.390 . S
C955 C956 1.394 1_565 S
C955 C961 1.466 . S
C956 C951 1.399 . S
C956 C955 1.394 1_545 S
C956 C957 1.516 . S
C957 C956 1.516 . S
C957 C958 1.502 . S
C957 C959 1.561 . S
C957 C960 1.526 . S
C958 H942 0.959 . S
C958 H943 0.959 . S
C958 H944 0.961 . S
C958 C957 1.502 . S
C959 H945 0.960 . S
C959 H946 0.961 . S
C959 H947 0.959 . S
C959 C957 1.561 . S
C960 C957 1.526 . S
C960 C961 1.381 1_545 S
C960 C965 1.390 . S
C961 C955 1.466 . S
C961 C960 1.381 1_565 S
C961 C962 1.410 . S
C962 H948 0.929 . S
C962 C961 1.410 . S
C962 C963 1.385 . S
C963 H949 0.931 . S
C963 C962 1.385 . S
C963 C964 1.389 1_565 S
C964 C963 1.389 1_545 S
C964 C965 1.387 . S
C965 H950 0.930 . S
C965 C960 1.390 . S
C965 C964 1.387 . S
H966 C978 0.930 . S
H967 C980 0.930 . S
H968 C981 0.930 . S
H969 C985 0.959 . S
H970 C985 0.959 . S
H971 C985 0.961 . S
H972 C986 0.960 . S
H973 C986 0.961 . S
H974 C986 0.959 . S
H975 C989 0.929 . S
H976 C990 0.931 . S
H977 C992 0.930 . S
C978 H966 0.930 . S
C978 C979 1.399 . S
C978 C983 1.399 . S
C979 C978 1.399 . S
C979 C980 1.376 . S
C980 H967 0.930 . S
C980 C979 1.376 . S
C980 C981 1.388 . S
C981 H968 0.930 . S
C981 C980 1.388 . S
C981 C982 1.390 . S
C982 C981 1.390 . S
C982 C983 1.394 . S
C982 C988 1.465 . S
C983 C978 1.399 . S
C983 C982 1.394 . S
C983 C984 1.516 . S
C984 C983 1.516 . S
C984 C985 1.502 . S
C984 C986 1.561 . S
C984 C987 1.526 . S
C985 H969 0.959 . S
C985 H970 0.959 . S
C985 H971 0.961 . S
C985 C984 1.502 . S
C986 H972 0.960 . S
C986 H973 0.961 . S
C986 H974 0.959 . S
C986 C984 1.561 . S
C987 C984 1.526 . S
C987 C988 1.396 . S
C987 C992 1.390 . S
C988 C982 1.465 . S
C988 C987 1.396 . S
C988 C989 1.399 . S
C989 H975 0.929 . S
C989 C988 1.399 . S
C989 C990 1.385 . S
C990 H976 0.931 . S
C990 C989 1.385 . S
C990 C991 1.389 . S
C991 C990 1.389 . S
C991 C992 1.387 . S
C992 H977 0.930 . S
C992 C987 1.390 . S
C992 C991 1.387 . S
H993 C1005 0.930 . S
H994 C1007 0.930 . S
H995 C1008 0.930 . S
H996 C1012 0.959 . S
H997 C1012 0.959 . S
H998 C1012 0.961 . S
H999 C1013 0.960 . S
H1000 C1013 0.961 . S
H1001 C1013 0.959 . S
H1002 C1016 0.929 . S
H1003 C1017 0.931 . S
H1004 C1019 0.930 . S
C1005 H993 0.930 . S
C1005 C1006 1.399 . S
C1005 C1010 1.399 . S
C1006 C1005 1.399 . S
C1006 C1007 1.376 . S
C1007 H994 0.930 . S
C1007 C1006 1.376 . S
C1007 C1008 1.388 . S
C1008 H995 0.930 . S
C1008 C1007 1.388 . S
C1008 C1009 1.390 . S
C1009 C1008 1.390 . S
C1009 C1010 1.394 . S
C1009 C1015 1.465 . S
C1010 C1005 1.399 . S
C1010 C1009 1.394 . S
C1010 C1011 1.516 . S
C1011 C1010 1.516 . S
C1011 C1012 1.502 . S
C1011 C1013 1.561 . S
C1011 C1014 1.526 . S
C1012 H996 0.959 . S
C1012 H997 0.959 . S
C1012 H998 0.961 . S
C1012 C1011 1.502 . S
C1013 H999 0.960 . S
C1013 H1000 0.961 . S
C1013 H1001 0.959 . S
C1013 C1011 1.561 . S
C1014 C1011 1.526 . S
C1014 C1015 1.396 . S
C1014 C1019 1.390 . S
C1015 C1009 1.465 . S
C1015 C1014 1.396 . S
C1015 C1016 1.399 . S
C1016 H1002 0.929 . S
C1016 C1015 1.399 . S
C1016 C1017 1.385 . S
C1017 H1003 0.931 . S
C1017 C1016 1.385 . S
C1017 C1018 1.389 . S
C1018 C1017 1.389 . S
C1018 C1019 1.387 . S
C1019 H1004 0.930 . S
C1019 C1014 1.390 . S
C1019 C1018 1.387 . S
H1020 C1032 0.930 . S
H1021 C1034 0.930 . S
H1022 C1035 0.930 . S
H1023 C1039 0.959 . S
H1024 C1039 0.959 . S
H1025 C1039 0.961 . S
H1026 C1040 0.960 . S
H1027 C1040 0.961 . S
H1028 C1040 0.959 . S
H1029 C1043 0.924 1_455 S
H1030 C1044 0.931 . S
H1031 C1046 0.930 . S
C1032 H1020 0.930 . S
C1032 C1033 1.399 . S
C1032 C1037 1.399 . S
C1033 C1032 1.399 . S
C1033 C1034 1.376 1_655 S
C1034 H1021 0.930 . S
C1034 C1033 1.376 1_455 S
C1034 C1035 1.388 . S
C1035 H1022 0.930 . S
C1035 C1034 1.388 . S
C1035 C1036 1.390 1_455 S
C1036 C1035 1.390 1_655 S
C1036 C1037 1.394 . S
C1036 C1042 1.465 . S
C1037 C1032 1.399 . S
C1037 C1036 1.394 . S
C1037 C1038 1.516 . S
C1038 C1037 1.516 . S
C1038 C1039 1.502 . S
C1038 C1040 1.561 1_655 S
C1038 C1041 1.526 . S
C1039 H1023 0.959 . S
C1039 H1024 0.959 . S
C1039 H1025 0.961 . S
C1039 C1038 1.502 . S
C1040 H1026 0.960 . S
C1040 H1027 0.961 . S
C1040 H1028 0.959 . S
C1040 C1038 1.561 1_455 S
C1041 C1038 1.526 . S
C1041 C1042 1.396 . S
C1041 C1046 1.390 . S
C1042 C1036 1.465 . S
C1042 C1041 1.396 . S
C1042 C1043 1.402 . S
C1043 H1029 0.924 1_655 S
C1043 C1042 1.402 . S
C1043 C1044 1.389 . S
C1044 H1030 0.931 . S
C1044 C1043 1.389 . S
C1044 C1045 1.389 . S
C1045 C1044 1.389 . S
C1045 C1046 1.387 . S
C1046 H1031 0.930 . S
C1046 C1041 1.390 . S
C1046 C1045 1.387 . S
H1047 C1059 0.930 . S
H1048 C1061 0.930 . S
H1049 C1062 0.930 . S
H1050 C1066 0.959 . S
H1051 C1066 0.959 . S
H1052 C1066 0.961 . S
H1053 C1067 0.960 . S
H1054 C1067 0.961 . S
H1055 C1067 0.959 . S
H1056 C1070 0.929 . S
H1057 C1071 0.931 . S
H1058 C1073 0.930 . S
C1059 H1047 0.930 . S
C1059 C1060 1.399 . S
C1059 C1064 1.399 . S
C1060 C1059 1.399 . S
C1060 C1061 1.376 1_565 S
C1061 H1048 0.930 . S
C1061 C1060 1.376 1_545 S
C1061 C1062 1.388 . S
C1062 H1049 0.930 . S
C1062 C1061 1.388 . S
C1062 C1063 1.390 . S
C1063 C1062 1.390 . S
C1063 C1064 1.394 1_545 S
C1063 C1069 1.465 . S
C1064 C1059 1.399 . S
C1064 C1063 1.394 1_565 S
C1064 C1065 1.516 . S
C1065 C1064 1.516 . S
C1065 C1066 1.502 . S
C1065 C1067 1.561 . S
C1065 C1068 1.526 . S
C1066 H1050 0.959 . S
C1066 H1051 0.959 . S
C1066 H1052 0.961 . S
C1066 C1065 1.502 . S
C1067 H1053 0.960 . S
C1067 H1054 0.961 . S
C1067 H1055 0.959 . S
C1067 C1065 1.561 . S
C1068 C1065 1.526 . S
C1068 C1069 1.396 1_565 S
C1068 C1073 1.390 . S
C1069 C1063 1.465 . S
C1069 C1068 1.396 1_545 S
C1069 C1070 1.399 . S
C1070 H1056 0.929 . S
C1070 C1069 1.399 . S
C1070 C1071 1.385 . S
C1071 H1057 0.931 . S
C1071 C1070 1.385 . S
C1071 C1072 1.389 1_545 S
C1072 C1071 1.389 1_565 S
C1072 C1073 1.387 . S
C1073 H1058 0.930 . S
C1073 C1068 1.390 . S
C1073 C1072 1.387 . S
H1074 C1086 0.930 . S
H1075 C1088 0.930 . S
H1076 C1089 0.930 . S
H1077 C1093 0.959 . S
H1078 C1093 0.959 . S
H1079 C1093 0.961 . S
H1080 C1094 0.960 . S
H1081 C1094 0.961 . S
H1082 C1094 0.959 . S
H1083 C1097 0.929 . S
H1084 C1098 0.931 . S
H1085 C1100 0.930 . S
C1086 H1074 0.930 . S
C1086 C1087 1.399 . S
C1086 C1091 1.399 . S
C1087 C1086 1.399 . S
C1087 C1088 1.376 . S
C1088 H1075 0.930 . S
C1088 C1087 1.376 . S
C1088 C1089 1.388 . S
C1089 H1076 0.930 . S
C1089 C1088 1.388 . S
C1089 C1090 1.390 . S
C1090 C1089 1.390 . S
C1090 C1091 1.394 . S
C1090 C1096 1.465 . S
C1091 C1086 1.399 . S
C1091 C1090 1.394 . S
C1091 C1092 1.516 . S
C1092 C1091 1.516 . S
C1092 C1093 1.502 . S
C1092 C1094 1.561 . S
C1092 C1095 1.526 . S
C1093 H1077 0.959 . S
C1093 H1078 0.959 . S
C1093 H1079 0.961 . S
C1093 C1092 1.502 . S
C1094 H1080 0.960 . S
C1094 H1081 0.961 . S
C1094 H1082 0.959 . S
C1094 C1092 1.561 . S
C1095 C1092 1.526 . S
C1095 C1096 1.396 . S
C1095 C1100 1.390 . S
C1096 C1090 1.465 . S
C1096 C1095 1.396 . S
C1096 C1097 1.399 . S
C1097 H1083 0.929 . S
C1097 C1096 1.399 . S
C1097 C1098 1.385 . S
C1098 H1084 0.931 . S
C1098 C1097 1.385 . S
C1098 C1099 1.389 . S
C1099 C1098 1.389 . S
C1099 C1100 1.387 . S
C1100 H1085 0.930 . S
C1100 C1095 1.390 . S
C1100 C1099 1.387 . S
H1101 C1113 0.930 . S
H1102 C1115 0.930 . S
H1103 C1116 0.930 . S
H1104 C1120 0.959 . S
H1105 C1120 0.959 . S
H1106 C1120 0.961 . S
H1107 C1121 0.960 . S
H1108 C1121 0.961 . S
H1109 C1121 0.959 . S
H1110 C1124 0.929 . S
H1111 C1125 0.931 . S
H1112 C1127 0.930 . S
C1113 H1101 0.930 . S
C1113 C1114 1.399 . S
C1113 C1118 1.399 . S
C1114 C1113 1.399 . S
C1114 C1115 1.376 . S
C1115 H1102 0.930 . S
C1115 C1114 1.376 . S
C1115 C1116 1.388 . S
C1116 H1103 0.930 . S
C1116 C1115 1.388 . S
C1116 C1117 1.390 . S
C1117 C1116 1.390 . S
C1117 C1118 1.394 . S
C1117 C1123 1.465 . S
C1118 C1113 1.399 . S
C1118 C1117 1.394 . S
C1118 C1119 1.516 . S
C1119 C1118 1.516 . S
C1119 C1120 1.502 . S
C1119 C1121 1.561 . S
C1119 C1122 1.526 . S
C1120 H1104 0.959 . S
C1120 H1105 0.959 . S
C1120 H1106 0.961 . S
C1120 C1119 1.502 . S
C1121 H1107 0.960 . S
C1121 H1108 0.961 . S
C1121 H1109 0.959 . S
C1121 C1119 1.561 . S
C1122 C1119 1.526 . S
C1122 C1123 1.396 . S
C1122 C1127 1.390 . S
C1123 C1117 1.465 . S
C1123 C1122 1.396 . S
C1123 C1124 1.399 . S
C1124 H1110 0.929 . S
C1124 C1123 1.399 . S
C1124 C1125 1.385 . S
C1125 H1111 0.931 . S
C1125 C1124 1.385 . S
C1125 C1126 1.389 . S
C1126 C1125 1.389 . S
C1126 C1127 1.387 . S
C1127 H1112 0.930 . S
C1127 C1122 1.390 . S
C1127 C1126 1.387 . S
C493 C255 2.234 1_565 S
C505 C330 2.419 . S
C532 C370 2.421 . S
C520 C295 2.267 . S
C559 C410 2.415 . S
C547 C175 2.268 . S
C586 C450 2.427 1_455 S
C574 C215 2.245 . S
C613 C339 2.428 1_565 S
C601 C95 2.265 . S
C628 C135 2.210 . S
C640 C379 2.441 . S
C655 C15 2.210 . S
C667 C419 2.422 . S
C682 C55 2.247 1_455 S
C694 C459 2.415 1_655 S
C721 C336 0.388 . S
C709 C221 0.522 . S
C748 C376 0.487 . S
C736 C261 0.335 . S
C775 C416 0.445 . S
C763 C301 0.542 . S
C790 C181 0.452 . S
C802 C456 0.341 . S
C817 C61 0.512 1_655 S
C829 C327 0.513 . S
C856 C367 0.356 . S
C844 C101 0.664 1_565 S
C883 C407 0.477 . S
C871 C141 0.517 . S
C898 C21 0.618 . S
C910 C447 0.425 . S
C925 C202 3.114 . S
C937 C331 3.515 . S
C952 C242 3.120 . S
C964 C371 3.502 . S
C991 C411 3.517 . S
C979 C282 3.115 . S
C1018 C451 3.510 . S
C1006 C162 3.166 . S
C1033 C42 3.130 1_655 S
C1045 C322 3.509 . S
C1072 C362 3.494 . S
C1060 C82 3.171 1_565 S
C1099 C402 3.508 . S
C1087 C122 3.131 . S
C1114 C2 3.172 . S
C1126 C442 3.498 . S
