# Generated by pormake.
# Topology gar, (4,6)-cn, num edge types: 1
# Building blocks:
#     Node 0, Type 0, BuildingBlock: QUQFOY_clean_sbu_1, # of connection points: 4
#     Node 1, Type 0, BuildingBlock: QUQFOY_clean_sbu_1, # of connection points: 4
#     Node 2, Type 0, BuildingBlock: QUQFOY_clean_sbu_1, # of connection points: 4
#     Node 3, Type 0, BuildingBlock: QUQFOY_clean_sbu_1, # of connection points: 4
#     Node 4, Type 0, BuildingBlock: QUQFOY_clean_sbu_1, # of connection points: 4
#     Node 5, Type 0, BuildingBlock: QUQFOY_clean_sbu_1, # of connection points: 4
#     Node 6, Type 0, BuildingBlock: QUQFOY_clean_sbu_1, # of connection points: 4
#     Node 7, Type 0, BuildingBlock: QUQFOY_clean_sbu_1, # of connection points: 4
#     Node 8, Type 0, BuildingBlock: QUQFOY_clean_sbu_1, # of connection points: 4
#     Node 9, Type 0, BuildingBlock: QUQFOY_clean_sbu_1, # of connection points: 4
#     Node 10, Type 0, BuildingBlock: QUQFOY_clean_sbu_1, # of connection points: 4
#     Node 11, Type 0, BuildingBlock: QUQFOY_clean_sbu_1, # of connection points: 4
#     Node 12, Type 0, BuildingBlock: QUQFOY_clean_sbu_1, # of connection points: 4
#     Node 13, Type 0, BuildingBlock: QUQFOY_clean_sbu_1, # of connection points: 4
#     Node 14, Type 0, BuildingBlock: QUQFOY_clean_sbu_1, # of connection points: 4
#     Node 15, Type 0, BuildingBlock: QUQFOY_clean_sbu_1, # of connection points: 4
#     Node 16, Type 0, BuildingBlock: QUQFOY_clean_sbu_1, # of connection points: 4
#     Node 17, Type 0, BuildingBlock: QUQFOY_clean_sbu_1, # of connection points: 4
#     Node 18, Type 0, BuildingBlock: QUQFOY_clean_sbu_1, # of connection points: 4
#     Node 19, Type 0, BuildingBlock: QUQFOY_clean_sbu_1, # of connection points: 4
#     Node 20, Type 0, BuildingBlock: QUQFOY_clean_sbu_1, # of connection points: 4
#     Node 21, Type 0, BuildingBlock: QUQFOY_clean_sbu_1, # of connection points: 4
#     Node 22, Type 0, BuildingBlock: QUQFOY_clean_sbu_1, # of connection points: 4
#     Node 23, Type 0, BuildingBlock: QUQFOY_clean_sbu_1, # of connection points: 4
#     Node 24, Type 1, BuildingBlock: BETDEL_clean_sbu_0, # of connection points: 6
#     Node 25, Type 1, BuildingBlock: BETDEL_clean_sbu_0, # of connection points: 6
#     Node 26, Type 1, BuildingBlock: BETDEL_clean_sbu_0, # of connection points: 6
#     Node 27, Type 1, BuildingBlock: BETDEL_clean_sbu_0, # of connection points: 6
#     Node 28, Type 1, BuildingBlock: BETDEL_clean_sbu_0, # of connection points: 6
#     Node 29, Type 1, BuildingBlock: BETDEL_clean_sbu_0, # of connection points: 6
#     Node 30, Type 1, BuildingBlock: BETDEL_clean_sbu_0, # of connection points: 6
#     Node 31, Type 1, BuildingBlock: BETDEL_clean_sbu_0, # of connection points: 6
#     Node 32, Type 1, BuildingBlock: BETDEL_clean_sbu_0, # of connection points: 6
#     Node 33, Type 1, BuildingBlock: BETDEL_clean_sbu_0, # of connection points: 6
#     Node 34, Type 1, BuildingBlock: BETDEL_clean_sbu_0, # of connection points: 6
#     Node 35, Type 1, BuildingBlock: BETDEL_clean_sbu_0, # of connection points: 6
#     Node 36, Type 1, BuildingBlock: BETDEL_clean_sbu_0, # of connection points: 6
#     Node 37, Type 1, BuildingBlock: BETDEL_clean_sbu_0, # of connection points: 6
#     Node 38, Type 1, BuildingBlock: BETDEL_clean_sbu_0, # of connection points: 6
#     Node 39, Type 1, BuildingBlock: BETDEL_clean_sbu_0, # of connection points: 6
#     Edge 40, Type (0, 1), BuildingBlock: ZUJKAS_clean_linker_0, # of connection points: 2
#     Edge 41, Type (0, 1), BuildingBlock: ZUJKAS_clean_linker_0, # of connection points: 2
#     Edge 42, Type (0, 1), BuildingBlock: ZUJKAS_clean_linker_0, # of connection points: 2
#     Edge 43, Type (0, 1), BuildingBlock: ZUJKAS_clean_linker_0, # of connection points: 2
#     Edge 44, Type (0, 1), BuildingBlock: ZUJKAS_clean_linker_0, # of connection points: 2
#     Edge 45, Type (0, 1), BuildingBlock: ZUJKAS_clean_linker_0, # of connection points: 2
#     Edge 46, Type (0, 1), BuildingBlock: ZUJKAS_clean_linker_0, # of connection points: 2
#     Edge 47, Type (0, 1), BuildingBlock: ZUJKAS_clean_linker_0, # of connection points: 2
#     Edge 48, Type (0, 1), BuildingBlock: ZUJKAS_clean_linker_0, # of connection points: 2
#     Edge 49, Type (0, 1), BuildingBlock: ZUJKAS_clean_linker_0, # of connection points: 2
#     Edge 50, Type (0, 1), BuildingBlock: ZUJKAS_clean_linker_0, # of connection points: 2
#     Edge 51, Type (0, 1), BuildingBlock: ZUJKAS_clean_linker_0, # of connection points: 2
#     Edge 52, Type (0, 1), BuildingBlock: ZUJKAS_clean_linker_0, # of connection points: 2
#     Edge 53, Type (0, 1), BuildingBlock: ZUJKAS_clean_linker_0, # of connection points: 2
#     Edge 54, Type (0, 1), BuildingBlock: ZUJKAS_clean_linker_0, # of connection points: 2
#     Edge 55, Type (0, 1), BuildingBlock: ZUJKAS_clean_linker_0, # of connection points: 2
#     Edge 56, Type (0, 1), BuildingBlock: ZUJKAS_clean_linker_0, # of connection points: 2
#     Edge 57, Type (0, 1), BuildingBlock: ZUJKAS_clean_linker_0, # of connection points: 2
#     Edge 58, Type (0, 1), BuildingBlock: ZUJKAS_clean_linker_0, # of connection points: 2
#     Edge 59, Type (0, 1), BuildingBlock: ZUJKAS_clean_linker_0, # of connection points: 2
#     Edge 60, Type (0, 1), BuildingBlock: ZUJKAS_clean_linker_0, # of connection points: 2
#     Edge 61, Type (0, 1), BuildingBlock: ZUJKAS_clean_linker_0, # of connection points: 2
#     Edge 62, Type (0, 1), BuildingBlock: ZUJKAS_clean_linker_0, # of connection points: 2
#     Edge 63, Type (0, 1), BuildingBlock: ZUJKAS_clean_linker_0, # of connection points: 2
#     Edge 64, Type (0, 1), BuildingBlock: ZUJKAS_clean_linker_0, # of connection points: 2
#     Edge 65, Type (0, 1), BuildingBlock: ZUJKAS_clean_linker_0, # of connection points: 2
#     Edge 66, Type (0, 1), BuildingBlock: ZUJKAS_clean_linker_0, # of connection points: 2
#     Edge 67, Type (0, 1), BuildingBlock: ZUJKAS_clean_linker_0, # of connection points: 2
#     Edge 68, Type (0, 1), BuildingBlock: ZUJKAS_clean_linker_0, # of connection points: 2
#     Edge 69, Type (0, 1), BuildingBlock: ZUJKAS_clean_linker_0, # of connection points: 2
#     Edge 70, Type (0, 1), BuildingBlock: ZUJKAS_clean_linker_0, # of connection points: 2
#     Edge 71, Type (0, 1), BuildingBlock: ZUJKAS_clean_linker_0, # of connection points: 2
#     Edge 72, Type (0, 1), BuildingBlock: ZUJKAS_clean_linker_0, # of connection points: 2
#     Edge 73, Type (0, 1), BuildingBlock: ZUJKAS_clean_linker_0, # of connection points: 2
#     Edge 74, Type (0, 1), BuildingBlock: ZUJKAS_clean_linker_0, # of connection points: 2
#     Edge 75, Type (0, 1), BuildingBlock: ZUJKAS_clean_linker_0, # of connection points: 2
#     Edge 76, Type (0, 1), BuildingBlock: ZUJKAS_clean_linker_0, # of connection points: 2
#     Edge 77, Type (0, 1), BuildingBlock: ZUJKAS_clean_linker_0, # of connection points: 2
#     Edge 78, Type (0, 1), BuildingBlock: ZUJKAS_clean_linker_0, # of connection points: 2
#     Edge 79, Type (0, 1), BuildingBlock: ZUJKAS_clean_linker_0, # of connection points: 2
#     Edge 80, Type (0, 1), BuildingBlock: ZUJKAS_clean_linker_0, # of connection points: 2
#     Edge 81, Type (0, 1), BuildingBlock: ZUJKAS_clean_linker_0, # of connection points: 2
#     Edge 82, Type (0, 1), BuildingBlock: ZUJKAS_clean_linker_0, # of connection points: 2
#     Edge 83, Type (0, 1), BuildingBlock: ZUJKAS_clean_linker_0, # of connection points: 2
#     Edge 84, Type (0, 1), BuildingBlock: ZUJKAS_clean_linker_0, # of connection points: 2
#     Edge 85, Type (0, 1), BuildingBlock: ZUJKAS_clean_linker_0, # of connection points: 2
#     Edge 86, Type (0, 1), BuildingBlock: ZUJKAS_clean_linker_0, # of connection points: 2
#     Edge 87, Type (0, 1), BuildingBlock: ZUJKAS_clean_linker_0, # of connection points: 2
#     Edge 88, Type (0, 1), BuildingBlock: ZUJKAS_clean_linker_0, # of connection points: 2
#     Edge 89, Type (0, 1), BuildingBlock: ZUJKAS_clean_linker_0, # of connection points: 2
#     Edge 90, Type (0, 1), BuildingBlock: ZUJKAS_clean_linker_0, # of connection points: 2
#     Edge 91, Type (0, 1), BuildingBlock: ZUJKAS_clean_linker_0, # of connection points: 2
#     Edge 92, Type (0, 1), BuildingBlock: ZUJKAS_clean_linker_0, # of connection points: 2
#     Edge 93, Type (0, 1), BuildingBlock: ZUJKAS_clean_linker_0, # of connection points: 2
#     Edge 94, Type (0, 1), BuildingBlock: ZUJKAS_clean_linker_0, # of connection points: 2
#     Edge 95, Type (0, 1), BuildingBlock: ZUJKAS_clean_linker_0, # of connection points: 2
#     Edge 96, Type (0, 1), BuildingBlock: ZUJKAS_clean_linker_0, # of connection points: 2
#     Edge 97, Type (0, 1), BuildingBlock: ZUJKAS_clean_linker_0, # of connection points: 2
#     Edge 98, Type (0, 1), BuildingBlock: ZUJKAS_clean_linker_0, # of connection points: 2
#     Edge 99, Type (0, 1), BuildingBlock: ZUJKAS_clean_linker_0, # of connection points: 2
#     Edge 100, Type (0, 1), BuildingBlock: ZUJKAS_clean_linker_0, # of connection points: 2
#     Edge 101, Type (0, 1), BuildingBlock: ZUJKAS_clean_linker_0, # of connection points: 2
#     Edge 102, Type (0, 1), BuildingBlock: ZUJKAS_clean_linker_0, # of connection points: 2
#     Edge 103, Type (0, 1), BuildingBlock: ZUJKAS_clean_linker_0, # of connection points: 2
#     Edge 104, Type (0, 1), BuildingBlock: ZUJKAS_clean_linker_0, # of connection points: 2
#     Edge 105, Type (0, 1), BuildingBlock: ZUJKAS_clean_linker_0, # of connection points: 2
#     Edge 106, Type (0, 1), BuildingBlock: ZUJKAS_clean_linker_0, # of connection points: 2
#     Edge 107, Type (0, 1), BuildingBlock: ZUJKAS_clean_linker_0, # of connection points: 2
#     Edge 108, Type (0, 1), BuildingBlock: ZUJKAS_clean_linker_0, # of connection points: 2
#     Edge 109, Type (0, 1), BuildingBlock: ZUJKAS_clean_linker_0, # of connection points: 2
#     Edge 110, Type (0, 1), BuildingBlock: ZUJKAS_clean_linker_0, # of connection points: 2
#     Edge 111, Type (0, 1), BuildingBlock: ZUJKAS_clean_linker_0, # of connection points: 2
#     Edge 112, Type (0, 1), BuildingBlock: ZUJKAS_clean_linker_0, # of connection points: 2
#     Edge 113, Type (0, 1), BuildingBlock: ZUJKAS_clean_linker_0, # of connection points: 2
#     Edge 114, Type (0, 1), BuildingBlock: ZUJKAS_clean_linker_0, # of connection points: 2
#     Edge 115, Type (0, 1), BuildingBlock: ZUJKAS_clean_linker_0, # of connection points: 2
#     Edge 116, Type (0, 1), BuildingBlock: ZUJKAS_clean_linker_0, # of connection points: 2
#     Edge 117, Type (0, 1), BuildingBlock: ZUJKAS_clean_linker_0, # of connection points: 2
#     Edge 118, Type (0, 1), BuildingBlock: ZUJKAS_clean_linker_0, # of connection points: 2
#     Edge 119, Type (0, 1), BuildingBlock: ZUJKAS_clean_linker_0, # of connection points: 2
#     Edge 120, Type (0, 1), BuildingBlock: ZUJKAS_clean_linker_0, # of connection points: 2
#     Edge 121, Type (0, 1), BuildingBlock: ZUJKAS_clean_linker_0, # of connection points: 2
#     Edge 122, Type (0, 1), BuildingBlock: ZUJKAS_clean_linker_0, # of connection points: 2
#     Edge 123, Type (0, 1), BuildingBlock: ZUJKAS_clean_linker_0, # of connection points: 2
#     Edge 124, Type (0, 1), BuildingBlock: ZUJKAS_clean_linker_0, # of connection points: 2
#     Edge 125, Type (0, 1), BuildingBlock: ZUJKAS_clean_linker_0, # of connection points: 2
#     Edge 126, Type (0, 1), BuildingBlock: ZUJKAS_clean_linker_0, # of connection points: 2
#     Edge 127, Type (0, 1), BuildingBlock: ZUJKAS_clean_linker_0, # of connection points: 2
#     Edge 128, Type (0, 1), BuildingBlock: ZUJKAS_clean_linker_0, # of connection points: 2
#     Edge 129, Type (0, 1), BuildingBlock: ZUJKAS_clean_linker_0, # of connection points: 2
#     Edge 130, Type (0, 1), BuildingBlock: ZUJKAS_clean_linker_0, # of connection points: 2
#     Edge 131, Type (0, 1), BuildingBlock: ZUJKAS_clean_linker_0, # of connection points: 2
#     Edge 132, Type (0, 1), BuildingBlock: ZUJKAS_clean_linker_0, # of connection points: 2
#     Edge 133, Type (0, 1), BuildingBlock: ZUJKAS_clean_linker_0, # of connection points: 2
#     Edge 134, Type (0, 1), BuildingBlock: ZUJKAS_clean_linker_0, # of connection points: 2
#     Edge 135, Type (0, 1), BuildingBlock: ZUJKAS_clean_linker_0, # of connection points: 2
# Relax obj value: 0.152
# Max RMSD: 0.266
# Mean RMSD: 0.180
data_MOF--net-gar--node1-QUQFOY_clean_sbu_1--node2-BETDEL_clean_sbu_0--edge1-ZUJKAS_clean_linker_0
_symmetry_space_group_name_H-M    P1
_symmetry_Int_Tables_number       1
_symmetry_cell_setting            triclinic
loop_
_symmetry_equiv_pos_as_xyz
'x, y, z'
_cell_length_a     72.814575
_cell_length_b     69.932497
_cell_length_c     71.434788
_cell_angle_alpha  95.691088
_cell_angle_beta   93.134381
_cell_angle_gamma 103.04798
loop_
_atom_site_label
_atom_site_type_symbol
_atom_site_fract_x
_atom_site_fract_y
_atom_site_fract_z
_atom_type_partial_charge
O0 O 0.02547 0.24155 0.40271 0.0
Cd1 Cd 0.02694 0.2636 0.38516 0.0
Cd2 Cd 0.02029 0.28491 0.4182 0.0
O3 O 0.02242 0.25927 0.42921 0.0
O4 O 0.03886 0.25501 0.36235 0.0
O5 O 0.05263 0.28089 0.38276 0.0
C6 C 0.05325 0.26945 0.36756 0.0
C7 C 0.03345 0.31508 0.43632 0.0
C8 C 0.02409 0.2431 0.42044 0.0
C9 C 0.99183 0.27945 0.38455 0.0
O10 O 0.99624 0.28538 0.40193 0.0
O11 O 0.00243 0.27077 0.37502 0.0
O12 O 0.01859 0.30312 0.44084 0.0
O13 O 0.04145 0.3096 0.42168 0.0
O14 O 0.98022 0.73825 0.62794 0.0
Cd15 Cd 0.98838 0.76345 0.64691 0.0
Cd16 Cd 0.00328 0.78009 0.61692 0.0
O17 O 0.99083 0.75245 0.60316 0.0
O18 O 0.97352 0.75907 0.66936 0.0
O19 O 0.97099 0.78198 0.65073 0.0
C20 C 0.96587 0.77322 0.66533 0.0
C21 C 0.99916 0.80762 0.60244 0.0
C22 C 0.98269 0.73719 0.61042 0.0
C23 C 0.03066 0.77698 0.64895 0.0
O24 O 0.0286 0.78227 0.63259 0.0
O25 O 0.01626 0.76989 0.65752 0.0
O26 O 0.01027 0.7969 0.59626 0.0
O27 O 0.99026 0.80273 0.61703 0.0
O28 O 0.56223 0.77703 0.89619 0.0
Cd29 Cd 0.54308 0.77718 0.91637 0.0
Cd30 Cd 0.52301 0.78903 0.88713 0.0
O31 O 0.54443 0.78191 0.87192 0.0
O32 O 0.55118 0.76211 0.93623 0.0
O33 O 0.52379 0.75224 0.91909 0.0
C34 C 0.53543 0.74917 0.93216 0.0
C35 C 0.49186 0.781 0.87361 0.0
C36 C 0.55973 0.77846 0.87868 0.0
C37 C 0.53546 0.81737 0.9228 0.0
O38 O 0.52877 0.81459 0.90569 0.0
O39 O 0.54131 0.80384 0.93021 0.0
O40 O 0.50472 0.79441 0.86773 0.0
O41 O 0.49686 0.77132 0.88675 0.0
O42 O 0.48481 0.23863 0.12788 0.0
Cd43 Cd 0.49156 0.26249 0.14848 0.0
Cd44 Cd 0.50968 0.2815 0.1206 0.0
O45 O 0.49854 0.25443 0.10529 0.0
O46 O 0.47414 0.2554 0.16852 0.0
O47 O 0.47428 0.28107 0.15272 0.0
C48 C 0.46722 0.27033 0.16548 0.0
C49 C 0.50776 0.30896 0.10497 0.0
C50 C 0.48922 0.2387 0.11092 0.0
C51 C 0.53373 0.27684 0.15483 0.0
O52 O 0.53323 0.28334 0.13885 0.0
O53 O 0.51852 0.26849 0.16152 0.0
O54 O 0.5193 0.29808 0.1005 0.0
O55 O 0.49739 0.3045 0.11873 0.0
O56 O 0.02008 0.76063 0.15202 0.0
Cd57 Cd 0.02286 0.78543 0.17114 0.0
Cd58 Cd 0.04057 0.80438 0.14386 0.0
O59 O 0.03548 0.77605 0.13006 0.0
O60 O 0.00418 0.77838 0.19015 0.0
O61 O 0.00336 0.80175 0.1716 0.0
C62 C 0.99622 0.7919 0.18491 0.0
C63 C 0.0323 0.82858 0.12705 0.0
C64 C 0.02679 0.76017 0.13596 0.0
C65 C 0.06334 0.80701 0.18072 0.0
O66 O 0.06291 0.8128 0.16442 0.0
O67 O 0.0488 0.7958 0.18612 0.0
O68 O 0.04723 0.82214 0.12393 0.0
O69 O 0.02198 0.82132 0.13996 0.0
O70 O 0.53555 0.76495 0.37563 0.0
Cd71 Cd 0.51549 0.76452 0.39489 0.0
Cd72 Cd 0.4943 0.77167 0.36319 0.0
O73 O 0.51765 0.76637 0.35008 0.0
O74 O 0.5255 0.75305 0.41654 0.0
O75 O 0.49898 0.73837 0.39931 0.0
C76 C 0.51123 0.73814 0.41304 0.0
C77 C 0.46471 0.75981 0.34644 0.0
C78 C 0.53331 0.76487 0.35786 0.0
C79 C 0.50293 0.80251 0.39769 0.0
O80 O 0.49634 0.79774 0.38059 0.0
O81 O 0.51065 0.79094 0.40628 0.0
O82 O 0.4769 0.77464 0.34182 0.0
O83 O 0.46949 0.75117 0.36047 0.0
O84 O 0.52365 0.262 0.64914 0.0
Cd85 Cd 0.52673 0.28632 0.66897 0.0
Cd86 Cd 0.54606 0.30551 0.64274 0.0
O87 O 0.54149 0.27734 0.6287 0.0
O88 O 0.50792 0.27844 0.68771 0.0
O89 O 0.50727 0.30274 0.67031 0.0
C90 C 0.50002 0.29223 0.68313 0.0
C91 C 0.53731 0.32978 0.62637 0.0
C92 C 0.5316 0.26155 0.63375 0.0
C93 C 0.56752 0.30685 0.67986 0.0
O94 O 0.56778 0.31345 0.6639 0.0
O95 O 0.55257 0.29558 0.68446 0.0
O96 O 0.55258 0.32396 0.6233 0.0
O97 O 0.527 0.32192 0.63903 0.0
O98 O 0.00448 0.22369 0.88605 0.0
Cd99 Cd 0.00245 0.24165 0.86527 0.0
Cd100 Cd 0.98932 0.26343 0.89562 0.0
O101 O 0.99723 0.24205 0.9102 0.0
O102 O 0.01632 0.23143 0.84478 0.0
O103 O 0.02587 0.26142 0.86016 0.0
C104 C 0.02868 0.24803 0.84753 0.0
C105 C 0.99532 0.29565 0.91087 0.0
C106 C 0.00245 0.22676 0.90355 0.0
C107 C 0.96304 0.24767 0.86012 0.0
O108 O 0.96546 0.25611 0.87696 0.0
O109 O 0.97623 0.24127 0.85261 0.0
O110 O 0.9825 0.28162 0.91593 0.0
O111 O 0.00523 0.29133 0.8973 0.0
O112 O 0.41455 0.06472 0.24491 0.0
Cd113 Cd 0.39449 0.05643 0.2637 0.0
Cd114 Cd 0.42499 0.04851 0.28333 0.0
O115 O 0.43907 0.05913 0.26109 0.0
O116 O 0.3721 0.06421 0.25267 0.0
O117 O 0.38611 0.07694 0.28083 0.0
C118 C 0.37278 0.07602 0.26784 0.0
C119 C 0.43938 0.0605 0.31337 0.0
C120 C 0.43204 0.06485 0.24661 0.0
C121 C 0.3919 0.01456 0.27221 0.0
O122 O 0.40878 0.01997 0.27959 0.0
O123 O 0.38373 0.02694 0.2656 0.0
O124 O 0.44543 0.04783 0.30248 0.0
O125 O 0.42491 0.0665 0.30716 0.0
O126 O 0.27639 0.1615 0.53698 0.0
Cd127 Cd 0.27224 0.1419 0.51263 0.0
Cd128 Cd 0.25947 0.17245 0.49794 0.0
O129 O 0.26741 0.18618 0.52507 0.0
O130 O 0.28552 0.1211 0.51914 0.0
O131 O 0.29383 0.1398 0.49645 0.0
C132 C 0.29663 0.12587 0.50607 0.0
C133 C 0.26755 0.19065 0.47248 0.0
C134 C 0.27349 0.17882 0.53907 0.0
C135 C 0.23123 0.1335 0.49798 0.0
O136 O 0.23423 0.15137 0.49446 0.0
O137 O 0.24467 0.12664 0.5046 0.0
O138 O 0.2549 0.19412 0.4834 0.0
O139 O 0.27591 0.17682 0.47607 0.0
O140 O 0.14047 0.00945 0.74803 0.0
Cd141 Cd 0.15721 0.01035 0.7726 0.0
Cd142 Cd 0.12786 0.02399 0.78848 0.0
O143 O 0.11636 0.01838 0.76086 0.0
O144 O 0.17661 0.99575 0.76461 0.0
O145 O 0.15667 0.98596 0.78583 0.0
C146 C 0.17044 0.9831 0.77607 0.0
C147 C 0.10823 0.01496 0.81267 0.0
C148 C 0.12425 0.01331 0.74633 0.0
C149 C 0.1663 0.0521 0.79178 0.0
O150 O 0.14888 0.0495 0.79468 0.0
O151 O 0.17264 0.03803 0.78394 0.0
O152 O 0.10642 0.02907 0.80294 0.0
O153 O 0.12114 0.00561 0.80854 0.0
O154 O 0.2404 0.89067 0.04873 0.0
Cd155 Cd 0.24593 0.91269 0.03131 0.0
Cd156 Cd 0.25722 0.88379 0.00805 0.0
O157 O 0.24972 0.86801 0.03036 0.0
O158 O 0.23244 0.93281 0.04089 0.0
O159 O 0.22581 0.91602 0.01242 0.0
C160 C 0.22259 0.92936 0.02486 0.0
C161 C 0.25051 0.86606 0.97818 0.0
C162 C 0.24308 0.87335 0.04557 0.0
C163 C 0.28545 0.92267 0.01994 0.0
O164 O 0.28159 0.90574 0.01045 0.0
O165 O 0.27326 0.92826 0.02982 0.0
O166 O 0.26377 0.86368 0.98974 0.0
O167 O 0.24063 0.87845 0.9837 0.0
O168 O 0.24463 0.39129 0.0717 0.0
Cd169 Cd 0.24753 0.41188 0.05247 0.0
Cd170 Cd 0.25963 0.3812 0.03081 0.0
O171 O 0.25147 0.36651 0.05395 0.0
O172 O 0.23424 0.4322 0.06277 0.0
O173 O 0.22511 0.41382 0.03543 0.0
C174 C 0.22264 0.42756 0.04787 0.0
C175 C 0.25332 0.36468 0.00014 0.0
C176 C 0.2465 0.37357 0.06948 0.0
C177 C 0.28735 0.42095 0.04056 0.0
O178 O 0.2843 0.40296 0.03364 0.0
O179 O 0.27439 0.4276 0.04831 0.0
O180 O 0.26531 0.36054 0.01211 0.0
O181 O 0.24407 0.37761 0.00584 0.0
O182 O 0.79165 0.17196 0.06659 0.0
Cd183 Cd 0.78727 0.14755 0.04674 0.0
Cd184 Cd 0.77277 0.17021 0.02442 0.0
O185 O 0.77846 0.18974 0.04855 0.0
O186 O 0.80372 0.13056 0.05514 0.0
O187 O 0.80628 0.14396 0.02826 0.0
C188 C 0.81177 0.13266 0.03959 0.0
C189 C 0.78015 0.18425 0.99678 0.0
C190 C 0.78644 0.18777 0.06425 0.0
C191 C 0.74735 0.13172 0.03128 0.0
O192 O 0.74946 0.14697 0.0226 0.0
O193 O 0.76073 0.12922 0.0422 0.0
O194 O 0.76577 0.18678 0.00558 0.0
O195 O 0.79042 0.17335 0.00359 0.0
O196 O 0.11526 0.49271 0.21729 0.0
Cd197 Cd 0.1312 0.49994 0.24286 0.0
Cd198 Cd 0.09857 0.50421 0.25613 0.0
O199 O 0.08791 0.49189 0.22934 0.0
O200 O 0.15592 0.4938 0.23817 0.0
O201 O 0.13654 0.47867 0.25779 0.0
C202 C 0.15246 0.48111 0.25016 0.0
C203 C 0.08523 0.49005 0.28162 0.0
C204 C 0.09733 0.48932 0.21526 0.0
C205 C 0.1291 0.5405 0.25984 0.0
O206 O 0.11144 0.53403 0.26065 0.0
O207 O 0.13925 0.52894 0.25405 0.0
O208 O 0.07647 0.49995 0.27145 0.0
O209 O 0.10165 0.48787 0.27713 0.0
O210 O 0.74729 0.89757 0.57326 0.0
Cd211 Cd 0.75012 0.91703 0.5529 0.0
Cd212 Cd 0.76137 0.88516 0.53299 0.0
O213 O 0.75267 0.8714 0.55645 0.0
O214 O 0.737 0.93789 0.56226 0.0
O215 O 0.72746 0.91814 0.53576 0.0
C216 C 0.72512 0.93244 0.54762 0.0
C217 C 0.75509 0.86824 0.50245 0.0
C218 C 0.74838 0.87957 0.57181 0.0
C219 C 0.79001 0.92444 0.54156 0.0
O220 O 0.7866 0.90608 0.53593 0.0
O221 O 0.77707 0.9321 0.54807 0.0
O222 O 0.76691 0.86414 0.51463 0.0
O223 O 0.74589 0.8813 0.50794 0.0
O224 O 0.89659 0.05758 0.20793 0.0
Cd225 Cd 0.87513 0.0529 0.22612 0.0
Cd226 Cd 0.90294 0.03995 0.24671 0.0
O227 O 0.91952 0.05103 0.22591 0.0
O228 O 0.85735 0.06898 0.2179 0.0
O229 O 0.87231 0.07405 0.24641 0.0
C230 C 0.86074 0.07893 0.2344 0.0
C231 C 0.9158 0.04278 0.27797 0.0
C232 C 0.91373 0.05648 0.21063 0.0
C233 C 0.86635 0.01029 0.23212 0.0
O234 O 0.88322 0.01375 0.23948 0.0
O235 O 0.85965 0.0242 0.22648 0.0
O236 O 0.92091 0.03181 0.26465 0.0
O237 O 0.90398 0.05314 0.27342 0.0
O238 O 0.30011 0.68025 0.56697 0.0
Cd239 Cd 0.29298 0.65574 0.54707 0.0
Cd240 Cd 0.281 0.68084 0.52508 0.0
O241 O 0.29024 0.7003 0.54893 0.0
O242 O 0.30708 0.63636 0.55491 0.0
O243 O 0.31076 0.6497 0.52808 0.0
C244 C 0.31493 0.6375 0.53917 0.0
C245 C 0.28738 0.69435 0.49696 0.0
C246 C 0.29756 0.69726 0.56455 0.0
C247 C 0.25224 0.64488 0.53313 0.0
O248 O 0.25572 0.66032 0.52473 0.0
O249 O 0.26523 0.64035 0.5431 0.0
O250 O 0.27456 0.69863 0.5072 0.0
O251 O 0.29668 0.68201 0.5026 0.0
O252 O 0.39314 0.55494 0.707 0.0
Cd253 Cd 0.37177 0.54913 0.72512 0.0
Cd254 Cd 0.40111 0.53782 0.74581 0.0
O255 O 0.41689 0.54971 0.7248 0.0
O256 O 0.35253 0.56308 0.71592 0.0
O257 O 0.36707 0.57005 0.74463 0.0
C258 C 0.355 0.57347 0.73219 0.0
C259 C 0.41465 0.54101 0.77686 0.0
C260 C 0.41054 0.55479 0.70958 0.0
C261 C 0.36535 0.50666 0.73158 0.0
O262 O 0.3823 0.51096 0.73884 0.0
O263 O 0.35785 0.51999 0.72586 0.0
O264 O 0.41998 0.53048 0.76334 0.0
O265 O 0.40221 0.55079 0.77263 0.0
O266 O 0.61414 0.98297 0.70908 0.0
Cd267 Cd 0.63334 0.9931 0.73219 0.0
Cd268 Cd 0.60407 0.0037 0.74835 0.0
O269 O 0.59001 0.99054 0.72296 0.0
O270 O 0.65502 0.98099 0.72774 0.0
O271 O 0.63776 0.97606 0.75218 0.0
C272 C 0.652 0.97312 0.74319 0.0
C273 C 0.58953 0.99514 0.77547 0.0
C274 C 0.59675 0.9833 0.70861 0.0
C275 C 0.63783 0.03622 0.74462 0.0
O276 O 0.62111 0.0319 0.74978 0.0
O277 O 0.64525 0.0228 0.73729 0.0
O278 O 0.58325 0.00619 0.7645 0.0
O279 O 0.60423 0.98878 0.77102 0.0
O280 O 0.77732 0.6641 0.04057 0.0
Cd281 Cd 0.77301 0.64273 0.01762 0.0
Cd282 Cd 0.75894 0.67131 0.00063 0.0
O283 O 0.76616 0.6868 0.02729 0.0
O284 O 0.78721 0.62309 0.02533 0.0
O285 O 0.79408 0.63983 0.001 0.0
C286 C 0.79765 0.62693 0.01156 0.0
C287 C 0.76631 0.68774 0.97388 0.0
C288 C 0.77326 0.68092 0.04171 0.0
C289 C 0.73188 0.63206 0.00333 0.0
O290 O 0.73449 0.64913 0.9978 0.0
O291 O 0.74551 0.62649 0.01129 0.0
O292 O 0.75298 0.69087 0.98406 0.0
O293 O 0.77587 0.67543 0.97908 0.0
O294 O 0.90514 0.56358 0.74383 0.0
Cd295 Cd 0.88667 0.55797 0.76457 0.0
Cd296 Cd 0.91934 0.55421 0.78463 0.0
O297 O 0.93136 0.56518 0.76147 0.0
O298 O 0.86309 0.56301 0.75311 0.0
O299 O 0.87844 0.58019 0.77922 0.0
C300 C 0.86424 0.57685 0.76672 0.0
C301 C 0.93573 0.56716 0.8136 0.0
C302 C 0.92305 0.567 0.74591 0.0
C303 C 0.88725 0.51859 0.77797 0.0
O304 O 0.90479 0.52493 0.78279 0.0
O305 O 0.87765 0.52983 0.77146 0.0
O306 O 0.94202 0.55561 0.80172 0.0
O307 O 0.9199 0.57157 0.80905 0.0
O308 O 0.73777 0.39945 0.55372 0.0
Cd309 Cd 0.7435 0.41779 0.53281 0.0
Cd310 Cd 0.75204 0.38419 0.51386 0.0
O311 O 0.73985 0.37214 0.53651 0.0
O312 O 0.73196 0.44026 0.5401 0.0
O313 O 0.7228 0.41977 0.51388 0.0
C314 C 0.721 0.43503 0.52478 0.0
C315 C 0.7462 0.36332 0.48555 0.0
C316 C 0.736 0.38086 0.55172 0.0
C317 C 0.78324 0.42136 0.52278 0.0
O318 O 0.77863 0.40293 0.51741 0.0
O319 O 0.77104 0.43042 0.52867 0.0
O320 O 0.75703 0.36046 0.49932 0.0
O321 O 0.7384 0.37815 0.48785 0.0
O322 O 0.63839 0.51395 0.25239 0.0
Cd323 Cd 0.65796 0.5154 0.27485 0.0
Cd324 Cd 0.63103 0.52912 0.29525 0.0
O325 O 0.61796 0.52659 0.26838 0.0
O326 O 0.6767 0.50097 0.26474 0.0
O327 O 0.65923 0.49131 0.28791 0.0
C328 C 0.67204 0.48854 0.2768 0.0
C329 C 0.61206 0.51881 0.31962 0.0
C330 C 0.62322 0.52006 0.25281 0.0
C331 C 0.6694 0.55656 0.2958 0.0
O332 O 0.65319 0.55342 0.30224 0.0
O333 O 0.67398 0.54332 0.28472 0.0
O334 O 0.61131 0.53456 0.31198 0.0
O335 O 0.6236 0.50859 0.31332 0.0
Dy336 Dy 0.99218 0.02316 0.01169 0.0
C337 C 0.07116 0.0256 0.01255 0.0
C338 C 0.95642 0.02807 0.01517 0.0
Dy339 Dy 0.03567 0.0305 0.01766 0.0
O340 O 0.9619 0.01928 0.00031 0.0
O341 O 0.97034 0.03368 0.0281 0.0
O342 O 0.99264 0.00471 0.984 0.0
O343 O 0.01546 0.02842 0.99376 0.0
C344 C 0.00969 0.01406 0.98118 0.0
C345 C 0.01845 0.04034 0.04802 0.0
O346 O 0.03419 0.05888 0.00649 0.0
O347 O 0.00222 0.05595 0.01046 0.0
O348 O 0.06657 0.03545 0.02729 0.0
O349 O 0.05647 0.01872 0.00071 0.0
O350 O 0.03564 0.0493 0.04518 0.0
O351 O 0.0125 0.02575 0.03568 0.0
O352 O 0.99339 0.995 0.02339 0.0
O353 O 0.02558 0.99796 0.02055 0.0
C354 C 0.01903 0.06643 0.00687 0.0
C355 C 0.00865 0.98761 0.02402 0.0
Dy356 Dy 0.2567 0.77426 0.24635 0.0
C357 C 0.2774 0.77462 0.32491 0.0
C358 C 0.2451 0.7791 0.21067 0.0
Dy359 Dy 0.26368 0.78 0.29017 0.0
O360 O 0.25523 0.76676 0.21485 0.0
O361 O 0.24137 0.7887 0.22594 0.0
O362 O 0.27674 0.75388 0.24462 0.0
O363 O 0.28061 0.77712 0.26651 0.0
C364 C 0.28628 0.76216 0.26042 0.0
C365 C 0.23446 0.79262 0.27611 0.0
O366 O 0.28212 0.80842 0.28435 0.0
O367 O 0.27278 0.80616 0.25224 0.0
O368 O 0.26356 0.7832 0.32187 0.0
O369 O 0.28357 0.76909 0.30908 0.0
O370 O 0.2439 0.80065 0.29207 0.0
O371 O 0.2399 0.77752 0.26998 0.0
O372 O 0.23623 0.74738 0.25292 0.0
O373 O 0.24783 0.74801 0.28406 0.0
C374 C 0.28206 0.81608 0.2681 0.0
C375 C 0.23701 0.73895 0.26869 0.0
Dy376 Dy 0.53395 0.03266 0.51675 0.0
C377 C 0.45601 0.03788 0.50295 0.0
C378 C 0.5683 0.0243 0.52478 0.0
Dy379 Dy 0.49019 0.02963 0.51184 0.0
O380 O 0.5634 0.03118 0.50949 0.0
O381 O 0.5546 0.0225 0.53587 0.0
O382 O 0.53822 0.05505 0.49588 0.0
O383 O 0.5133 0.03242 0.4937 0.0
C384 C 0.5215 0.04793 0.48722 0.0
C385 C 0.5026 0.01471 0.54169 0.0
O386 O 0.49108 0.00202 0.49372 0.0
O387 O 0.52123 0.00079 0.50555 0.0
O388 O 0.4595 0.02783 0.51655 0.0
O389 O 0.47109 0.04305 0.49403 0.0
O390 O 0.48578 0.00772 0.53323 0.0
O391 O 0.51082 0.02998 0.53489 0.0
O392 O 0.53353 0.06083 0.53422 0.0
O393 O 0.50248 0.06118 0.52441 0.0
C394 C 0.50484 0.99255 0.49568 0.0
C395 C 0.5193 0.06982 0.53332 0.0
Dy396 Dy 0.24543 0.2766 0.76483 0.0
C397 C 0.32639 0.2962 0.7655 0.0
C398 C 0.2074 0.26656 0.76841 0.0
Dy399 Dy 0.28876 0.284 0.77055 0.0
O400 O 0.21638 0.2825 0.76203 0.0
O401 O 0.21915 0.25583 0.7725 0.0
O402 O 0.24876 0.30119 0.7465 0.0
O403 O 0.2688 0.30271 0.7693 0.0
C404 C 0.26475 0.31094 0.75522 0.0
C405 C 0.26965 0.24936 0.77986 0.0
O406 O 0.2837 0.29928 0.79818 0.0
O407 O 0.2516 0.28436 0.7963 0.0
O408 O 0.31905 0.28173 0.77488 0.0
O409 O 0.31322 0.30432 0.75932 0.0
O410 O 0.28597 0.25878 0.78819 0.0
O411 O 0.26545 0.25792 0.76609 0.0
O412 O 0.24999 0.26142 0.73707 0.0
O413 O 0.28254 0.27419 0.73928 0.0
C414 C 0.26738 0.29474 0.80601 0.0
C415 C 0.26649 0.26461 0.72948 0.0
Dy416 Dy 0.99863 0.02154 0.49636 0.0
C417 C 0.04673 0.04461 0.56651 0.0
C418 C 0.97421 0.01126 0.46461 0.0
Dy419 Dy 0.02189 0.03397 0.53511 0.0
O420 O 0.99013 0.00603 0.46698 0.0
O421 O 0.97125 0.02133 0.47997 0.0
O422 O 0.02395 0.0358 0.48196 0.0
O423 O 0.02788 0.02341 0.50697 0.0
C424 C 0.03618 0.03341 0.49486 0.0
C425 C 0.98431 0.0223 0.53646 0.0
O426 O 0.02527 0.06313 0.52324 0.0
O427 O 0.99935 0.05371 0.50103 0.0
O428 O 0.0303 0.04888 0.56473 0.0
O429 O 0.04985 0.03522 0.55083 0.0
O430 O 0.99641 0.01977 0.54942 0.0
O431 O 0.99276 0.03228 0.52445 0.0
O432 O 0.99491 0.99242 0.50844 0.0
O433 O 0.02068 0.00169 0.53082 0.0
C434 C 0.01303 0.06741 0.51077 0.0
C435 C 0.0069 0.98804 0.52113 0.0
Dy436 Dy 0.27714 0.78447 0.77446 0.0
C437 C 0.20877 0.75318 0.72484 0.0
C438 C 0.31022 0.79191 0.79682 0.0
Dy439 Dy 0.23824 0.76486 0.75173 0.0
O440 O 0.30877 0.79167 0.77864 0.0
O441 O 0.29346 0.78863 0.80304 0.0
O442 O 0.28508 0.80224 0.75024 0.0
O443 O 0.26738 0.77386 0.74521 0.0
C444 C 0.2748 0.78888 0.73759 0.0
C445 C 0.23667 0.7721 0.78894 0.0
O446 O 0.25037 0.73797 0.75092 0.0
O447 O 0.27883 0.75278 0.7689 0.0
O448 O 0.21006 0.74528 0.7405 0.0
O449 O 0.22399 0.76679 0.72361 0.0
O450 O 0.22257 0.77141 0.77678 0.0
O451 O 0.24995 0.76693 0.78071 0.0
O452 O 0.26173 0.80841 0.78002 0.0
O453 O 0.24054 0.7977 0.75349 0.0
C454 C 0.26703 0.73726 0.7591 0.0
C455 C 0.2485 0.81123 0.76777 0.0
Dy456 Dy 0.51571 0.03462 0.03761 0.0
C457 C 0.52422 0.0158 0.95839 0.0
C458 C 0.51125 0.05042 0.07296 0.0
Dy459 Dy 0.51632 0.02651 0.99419 0.0
O460 O 0.52177 0.03805 0.06909 0.0
O461 O 0.50305 0.05402 0.05755 0.0
O462 O 0.5237 0.00588 0.0418 0.0
O463 O 0.50843 0.00866 0.01693 0.0
C464 C 0.51713 0.99773 0.02491 0.0
C465 C 0.51336 0.06271 0.00747 0.0
O466 O 0.48515 0.01709 0.99599 0.0
O467 O 0.48507 0.02981 0.02748 0.0
O468 O 0.5315 0.03266 0.96827 0.0
O469 O 0.51224 0.00471 0.96793 0.0
O470 O 0.50577 0.05398 0.99104 0.0
O471 O 0.52328 0.0525 0.01493 0.0
O472 O 0.54605 0.04632 0.0336 0.0
O473 O 0.54542 0.02583 0.006 0.0
C474 C 0.47617 0.02185 0.01082 0.0
C475 C 0.55481 0.03743 0.02088 0.0
Dy476 Dy 0.26655 0.30274 0.27218 0.0
C477 C 0.26545 0.22076 0.27143 0.0
C478 C 0.26105 0.33914 0.26727 0.0
Dy479 Dy 0.26068 0.25738 0.26623 0.0
O480 O 0.27172 0.3355 0.28107 0.0
O481 O 0.25377 0.32303 0.25624 0.0
O482 O 0.2826 0.30395 0.30046 0.0
O483 O 0.2612 0.27916 0.29009 0.0
C484 C 0.27417 0.28598 0.30296 0.0
C485 C 0.25253 0.27406 0.23561 0.0
O486 O 0.23308 0.25889 0.27786 0.0
O487 O 0.23507 0.29192 0.27406 0.0
O488 O 0.25537 0.22464 0.2573 0.0
O489 O 0.27275 0.23679 0.28256 0.0
O490 O 0.24411 0.25614 0.2383 0.0
O491 O 0.26578 0.2809 0.24823 0.0
O492 O 0.29414 0.30139 0.26045 0.0
O493 O 0.29207 0.26822 0.2637 0.0
C494 C 0.22537 0.27435 0.27767 0.0
C495 C 0.30178 0.28584 0.26015 0.0
Dy496 Dy 0.4986 0.51769 0.99517 0.0
C497 C 0.53205 0.53717 0.07351 0.0
C498 C 0.47456 0.50974 0.96332 0.0
Dy499 Dy 0.51511 0.53351 0.03792 0.0
O500 O 0.48887 0.50176 0.96615 0.0
O501 O 0.473 0.52136 0.97824 0.0
O502 O 0.52682 0.52311 0.98203 0.0
O503 O 0.52541 0.52966 0.0106 0.0
C504 C 0.53669 0.53023 0.99793 0.0
C505 C 0.47751 0.52698 0.0303 0.0
O506 O 0.51934 0.56217 0.02564 0.0
O507 O 0.49854 0.55 0.9988 0.0
O508 O 0.5164 0.52474 0.06711 0.0
O509 O 0.53851 0.54813 0.06048 0.0
O510 O 0.487 0.54045 0.04331 0.0
O511 O 0.48832 0.517 0.02324 0.0
O512 O 0.49807 0.48909 0.00695 0.0
O513 O 0.51963 0.50275 0.03286 0.0
C514 C 0.50933 0.56483 0.0104 0.0
C515 C 0.50938 0.48729 0.02163 0.0
Dy516 Dy 0.78402 0.29343 0.27777 0.0
C517 C 0.71083 0.2587 0.2397 0.0
C518 C 0.81712 0.30447 0.30007 0.0
Dy519 Dy 0.74407 0.26975 0.26183 0.0
O520 O 0.81465 0.3094 0.2832 0.0
O521 O 0.80133 0.29406 0.30492 0.0
O522 O 0.78954 0.30483 0.24983 0.0
O523 O 0.77176 0.27686 0.25104 0.0
C524 C 0.77785 0.2897 0.2403 0.0
C525 C 0.75029 0.27396 0.2994 0.0
O526 O 0.75848 0.24465 0.25897 0.0
O527 O 0.78636 0.2616 0.27652 0.0
O528 O 0.71316 0.25461 0.2569 0.0
O529 O 0.7268 0.26826 0.23446 0.0
O530 O 0.73863 0.25872 0.29002 0.0
O531 O 0.75632 0.28654 0.28843 0.0
O532 O 0.76933 0.31832 0.28082 0.0
O533 O 0.74222 0.30162 0.26205 0.0
C534 C 0.77524 0.2451 0.26756 0.0
C535 C 0.75298 0.31806 0.27146 0.0
Dy536 Dy 0.0191 0.5323 0.54311 0.0
C537 C 0.02311 0.51305 0.46319 0.0
C538 C 0.01408 0.54414 0.57949 0.0
Dy539 Dy 0.01752 0.52542 0.49926 0.0
O540 O 0.01145 0.52586 0.57222 0.0
O541 O 0.01967 0.55594 0.56697 0.0
O542 O 0.03563 0.50881 0.54482 0.0
O543 O 0.0155 0.50698 0.52203 0.0
C544 C 0.02818 0.49934 0.52859 0.0
C545 C 0.00865 0.55861 0.51352 0.0
O546 O 0.98746 0.51169 0.50285 0.0
O547 O 0.98791 0.52426 0.53443 0.0
O548 O 0.02703 0.53136 0.47065 0.0
O549 O 0.01578 0.50148 0.47532 0.0
O550 O 0.00168 0.54941 0.49704 0.0
O551 O 0.02109 0.55075 0.52028 0.0
O552 O 0.0486 0.54743 0.53914 0.0
O553 O 0.04872 0.53289 0.50839 0.0
C554 C 0.9788 0.51498 0.51829 0.0
C555 C 0.05758 0.54333 0.52417 0.0
Dy556 Dy 0.74283 0.78204 0.26557 0.0
C557 C 0.82377 0.8005 0.26721 0.0
C558 C 0.70478 0.77336 0.26903 0.0
Dy559 Dy 0.78599 0.78891 0.27174 0.0
O560 O 0.71539 0.79093 0.26888 0.0
O561 O 0.7149 0.76029 0.26694 0.0
O562 O 0.74661 0.80578 0.24627 0.0
O563 O 0.76642 0.80793 0.26945 0.0
C564 C 0.76258 0.81567 0.25496 0.0
C565 C 0.76647 0.75504 0.28219 0.0
O566 O 0.7808 0.80437 0.29917 0.0
O567 O 0.74887 0.78891 0.29713 0.0
O568 O 0.81594 0.78553 0.27573 0.0
O569 O 0.81101 0.80944 0.26162 0.0
O570 O 0.78275 0.76463 0.2905 0.0
O571 O 0.76247 0.76302 0.26792 0.0
O572 O 0.74729 0.76724 0.23763 0.0
O573 O 0.78006 0.77839 0.2406 0.0
C574 C 0.76444 0.79969 0.3069 0.0
C575 C 0.76399 0.76951 0.23048 0.0
Dy576 Dy 0.76302 0.27705 0.74793 0.0
C577 C 0.77867 0.26953 0.82622 0.0
C578 C 0.75225 0.28395 0.71266 0.0
Dy579 Dy 0.76742 0.27789 0.79165 0.0
O580 O 0.76927 0.28298 0.71829 0.0
O581 O 0.74117 0.28099 0.72621 0.0
O582 O 0.78496 0.25896 0.74527 0.0
O583 O 0.78615 0.27969 0.76906 0.0
C584 C 0.79338 0.26623 0.76186 0.0
C585 C 0.73706 0.28875 0.7778 0.0
O586 O 0.78507 0.30779 0.78891 0.0
O587 O 0.7736 0.30944 0.75815 0.0
O588 O 0.76619 0.27981 0.82322 0.0
O589 O 0.78488 0.26392 0.81042 0.0
O590 O 0.74519 0.29565 0.79457 0.0
O591 O 0.74437 0.27539 0.77061 0.0
O592 O 0.74664 0.2465 0.74994 0.0
O593 O 0.75447 0.24566 0.78192 0.0
C594 C 0.7833 0.31779 0.77434 0.0
C595 C 0.74653 0.23697 0.76508 0.0
Dy596 Dy 0.76863 0.80551 0.77779 0.0
C597 C 0.75988 0.72238 0.76933 0.0
C598 C 0.76776 0.84443 0.78022 0.0
Dy599 Dy 0.75863 0.76063 0.76709 0.0
O600 O 0.76916 0.83463 0.79454 0.0
O601 O 0.76737 0.83307 0.76463 0.0
O602 O 0.7865 0.80171 0.80325 0.0
O603 O 0.76198 0.77999 0.7933 0.0
C604 C 0.77618 0.78429 0.80514 0.0
C605 C 0.75062 0.7813 0.73946 0.0
O606 O 0.73155 0.76319 0.77881 0.0
O607 O 0.73684 0.79721 0.77871 0.0
O608 O 0.75217 0.7286 0.75495 0.0
O609 O 0.76676 0.73699 0.78226 0.0
O610 O 0.74111 0.76343 0.74105 0.0
O611 O 0.76474 0.78608 0.75145 0.0
O612 O 0.79607 0.80337 0.76618 0.0
O613 O 0.78967 0.76895 0.76232 0.0
C614 C 0.72562 0.77978 0.7806 0.0
C615 C 0.80123 0.78656 0.76181 0.0
Dy616 Dy 0.48799 0.52067 0.51037 0.0
C617 C 0.56772 0.52743 0.51044 0.0
C618 C 0.45163 0.52381 0.51347 0.0
Dy619 Dy 0.53184 0.53063 0.51616 0.0
O620 O 0.45791 0.51657 0.4983 0.0
O621 O 0.46507 0.52873 0.52693 0.0
O622 O 0.48943 0.50074 0.48384 0.0
O623 O 0.51109 0.52608 0.49236 0.0
C624 C 0.50606 0.51089 0.48059 0.0
C625 C 0.51425 0.54093 0.54605 0.0
O626 O 0.52856 0.55786 0.5038 0.0
O627 O 0.49638 0.55333 0.50758 0.0
O628 O 0.56302 0.53721 0.52518 0.0
O629 O 0.55291 0.51967 0.49899 0.0
O630 O 0.53119 0.5504 0.54292 0.0
O631 O 0.50884 0.52573 0.53431 0.0
O632 O 0.49086 0.4935 0.52309 0.0
O633 O 0.52339 0.49839 0.52097 0.0
C634 C 0.51279 0.56437 0.50361 0.0
C635 C 0.50678 0.48732 0.52449 0.0
Dy636 Dy 0.03462 0.5325 0.01965 0.0
C637 C 0.95662 0.53786 0.00628 0.0
C638 C 0.06875 0.52394 0.02818 0.0
Dy639 Dy 0.99085 0.52953 0.01492 0.0
O640 O 0.06475 0.5326 0.01372 0.0
O641 O 0.05428 0.52049 0.03822 0.0
O642 O 0.03862 0.55261 0.99667 0.0
O643 O 0.01358 0.53057 0.99651 0.0
C644 C 0.02168 0.54514 0.98866 0.0
C645 C 0.00379 0.51692 0.04594 0.0
O646 O 0.99162 0.50124 0.99772 0.0
O647 O 0.02176 0.5003 0.00982 0.0
O648 O 0.95996 0.527 0.01924 0.0
O649 O 0.97187 0.54375 0.99781 0.0
O650 O 0.98686 0.50946 0.03794 0.0
O651 O 0.01185 0.53148 0.03806 0.0
O652 O 0.03432 0.56126 0.03618 0.0
O653 O 0.00357 0.56165 0.02532 0.0
C654 C 0.00531 0.49177 0.0002 0.0
C655 C 0.02034 0.57046 0.03423 0.0
H656 H 0.01273 0.19207 0.89386 0.0
H657 H 0.01734 0.16738 0.9144 0.0
H658 H 0.00487 0.20347 0.96234 0.0
H659 H 0.00027 0.22843 0.9419 0.0
H660 H 0.03763 0.18575 0.96807 0.0
H661 H 0.97193 0.13205 0.93748 0.0
H662 H 0.98776 0.14196 0.92055 0.0
H663 H 0.97646 0.15801 0.93458 0.0
C664 C 0.01101 0.19485 0.90877 0.0
C665 C 0.00596 0.21218 0.9162 0.0
C666 C 0.01364 0.1807 0.92048 0.0
C667 C 0.01124 0.18355 0.93981 0.0
C668 C 0.00673 0.20102 0.94742 0.0
H669 H 0.99258 0.08839 0.01028 0.0
H670 H 0.99193 0.11873 0.99638 0.0
C671 C 0.00405 0.21522 0.9357 0.0
C672 C 0.01279 0.1679 0.95187 0.0
H673 H 0.99232 0.12031 0.95811 0.0
C674 C 0.0277 0.17146 0.96602 0.0
C675 C 0.99966 0.1494 0.94924 0.0
C676 C 0.98294 0.14509 0.93476 0.0
C677 C 0.03008 0.15673 0.97735 0.0
C678 C 0.01729 0.13801 0.97427 0.0
C679 C 0.00216 0.13466 0.96039 0.0
C680 C 0.01924 0.12146 0.98507 0.0
C681 C 0.04613 0.16135 0.99258 0.0
C682 C 0.03503 0.11316 0.98367 0.0
C683 C 0.03549 0.09577 0.99166 0.0
C684 C 0.02005 0.08632 0.00099 0.0
C685 C 0.00466 0.0952 0.00307 0.0
C686 C 0.00425 0.11256 0.99516 0.0
H687 H 0.05151 0.17753 0.99636 0.0
H688 H 0.04165 0.15453 0.00548 0.0
H689 H 0.05796 0.15523 0.98743 0.0
H690 H 0.04659 0.11958 0.97564 0.0
H691 H 0.04751 0.08927 0.98971 0.0
H692 H 0.09552 0.83535 0.1774 0.0
H693 H 0.12622 0.8404 0.19534 0.0
H694 H 0.10269 0.79381 0.2285 0.0
H695 H 0.07192 0.78931 0.2113 0.0
H696 H 0.1266 0.82291 0.25001 0.0
H697 H 0.16032 0.80373 0.18497 0.0
H698 H 0.15064 0.82511 0.18459 0.0
H699 H 0.13517 0.80119 0.1852 0.0
C700 C 0.09686 0.82637 0.18869 0.0
C701 C 0.08133 0.81178 0.19279 0.0
C702 C 0.11444 0.82917 0.19883 0.0
C703 C 0.1169 0.81713 0.21293 0.0
C704 C 0.10118 0.80324 0.21763 0.0
H705 H 0.20911 0.77158 0.24824 0.0
H706 H 0.18184 0.7808 0.23366 0.0
C707 C 0.08357 0.80065 0.20774 0.0
C708 C 0.13589 0.818 0.22222 0.0
H709 H 0.17935 0.81006 0.21344 0.0
C710 C 0.13821 0.82028 0.24203 0.0
C711 C 0.15099 0.81442 0.21176 0.0
C712 C 0.14918 0.8108 0.19047 0.0
C713 C 0.15486 0.81821 0.25168 0.0
C714 C 0.16985 0.81438 0.24121 0.0
C715 C 0.16786 0.81305 0.22143 0.0
C716 C 0.18679 0.80942 0.25021 0.0
C717 C 0.15577 0.819 0.27291 0.0
C718 C 0.1988 0.82249 0.26433 0.0
C719 C 0.21433 0.81708 0.27293 0.0
C720 C 0.21824 0.79869 0.26727 0.0
C721 C 0.20645 0.78586 0.25289 0.0
C722 C 0.19087 0.79114 0.2445 0.0
H723 H 0.14158 0.81762 0.27836 0.0
H724 H 0.16198 0.80705 0.27774 0.0
H725 H 0.16486 0.83339 0.27924 0.0
H726 H 0.1962 0.83686 0.26866 0.0
H727 H 0.22335 0.82729 0.28387 0.0
H728 H 0.48345 0.82886 0.38561 0.0
H729 H 0.48202 0.86093 0.40197 0.0
H730 H 0.51816 0.85187 0.44847 0.0
H731 H 0.51963 0.81977 0.43237 0.0
H732 H 0.471 0.86865 0.4429 0.0
H733 H 0.54364 0.90673 0.42813 0.0
H734 H 0.53028 0.88471 0.41382 0.0
H735 H 0.54086 0.88295 0.43667 0.0
C736 C 0.49109 0.83366 0.39933 0.0
C737 C 0.50173 0.82177 0.40764 0.0
C738 C 0.49019 0.85194 0.40866 0.0
C739 C 0.50007 0.85872 0.42633 0.0
C740 C 0.51053 0.84687 0.43477 0.0
H741 H 0.52608 0.96607 0.5022 0.0
H742 H 0.52336 0.93336 0.48538 0.0
C743 C 0.51133 0.82854 0.42554 0.0
C744 C 0.49974 0.87835 0.43591 0.0
H745 H 0.52745 0.92461 0.44851 0.0
C746 C 0.48326 0.88097 0.44408 0.0
C747 C 0.51579 0.89426 0.43738 0.0
C748 C 0.53366 0.8922 0.42846 0.0
C749 C 0.48262 0.89906 0.45423 0.0
C750 C 0.49876 0.915 0.4558 0.0
C751 C 0.51511 0.91238 0.44733 0.0
C752 C 0.49933 0.9344 0.46663 0.0
C753 C 0.46493 0.9007 0.46369 0.0
C754 C 0.48663 0.94586 0.46175 0.0
C755 C 0.48804 0.9646 0.47149 0.0
C756 C 0.50237 0.97229 0.48606 0.0
C757 C 0.51494 0.96066 0.49098 0.0
C758 C 0.51341 0.94193 0.48138 0.0
H759 H 0.45597 0.88594 0.46538 0.0
H760 H 0.46844 0.90941 0.4778 0.0
H761 H 0.45647 0.90832 0.45489 0.0
H762 H 0.47592 0.94054 0.45014 0.0
H763 H 0.47825 0.97324 0.46726 0.0
H764 H 0.479 0.31911 0.67597 0.0
H765 H 0.45095 0.32437 0.69139 0.0
H766 H 0.45485 0.27842 0.7264 0.0
H767 H 0.48283 0.27318 0.71127 0.0
H768 H 0.41666 0.29663 0.69277 0.0
H769 H 0.45013 0.32419 0.76484 0.0
H770 H 0.46364 0.32333 0.74444 0.0
H771 H 0.45529 0.30134 0.75555 0.0
C772 C 0.47394 0.31022 0.68704 0.0
C773 C 0.48319 0.29577 0.69243 0.0
C774 C 0.45794 0.31325 0.69584 0.0
C775 C 0.45103 0.30203 0.71028 0.0
C776 C 0.46019 0.28756 0.7156 0.0
H777 H 0.35416 0.27747 0.77428 0.0
H778 H 0.38502 0.28129 0.76119 0.0
C779 C 0.47612 0.2845 0.70682 0.0
C780 C 0.43367 0.30461 0.71918 0.0
H781 H 0.41636 0.31361 0.76185 0.0
C782 C 0.4166 0.30063 0.70783 0.0
C783 C 0.43366 0.30978 0.73884 0.0
C784 C 0.45169 0.31509 0.75162 0.0
C785 C 0.39938 0.30083 0.71572 0.0
C786 C 0.39931 0.30552 0.73546 0.0
C787 C 0.41645 0.31 0.74674 0.0
C788 C 0.38144 0.30474 0.74472 0.0
C789 C 0.38133 0.29517 0.70296 0.0
C790 C 0.36948 0.31712 0.7403 0.0
C791 C 0.35185 0.31494 0.74775 0.0
C792 C 0.34596 0.30044 0.75983 0.0
C793 C 0.35835 0.28876 0.76499 0.0
C794 C 0.37595 0.29092 0.75752 0.0
H795 H 0.38339 0.28782 0.68897 0.0
H796 H 0.37006 0.28509 0.7095 0.0
H797 H 0.37634 0.30867 0.70062 0.0
H798 H 0.37361 0.32815 0.73075 0.0
H799 H 0.34259 0.32419 0.74359 0.0
H800 H 0.01788 0.82222 0.57302 0.0
H801 H 0.01543 0.85153 0.55811 0.0
H802 H 0.97289 0.86165 0.59512 0.0
H803 H 0.97555 0.83243 0.61048 0.0
H804 H 0.98557 0.86148 0.53922 0.0
H805 H 0.01203 0.91402 0.60373 0.0
H806 H 0.01357 0.88853 0.60202 0.0
H807 H 0.99149 0.89495 0.60626 0.0
C808 C 0.00798 0.83064 0.57803 0.0
C809 C 0.99703 0.82507 0.59307 0.0
C810 C 0.00655 0.84737 0.56942 0.0
C811 C 0.99416 0.85893 0.57563 0.0
C812 C 0.98281 0.85316 0.59033 0.0
H813 H 0.97479 0.95802 0.51555 0.0
H814 H 0.96988 0.92581 0.52782 0.0
C815 C 0.9843 0.83642 0.59904 0.0
C816 C 0.99367 0.87727 0.56696 0.0
H817 H 0.00366 0.92751 0.57652 0.0
C818 C 0.9894 0.87593 0.54737 0.0
C819 C 0.99884 0.89611 0.57761 0.0
C820 C 0.00441 0.89861 0.59853 0.0
C821 C 0.99051 0.89293 0.5381 0.0
C822 C 0.99575 0.91175 0.54876 0.0
C823 C 0.99959 0.91305 0.56839 0.0
C824 C 0.9987 0.9304 0.53984 0.0
C825 C 0.98682 0.89065 0.51692 0.0
C826 C 0.01649 0.94362 0.54245 0.0
C827 C 0.01928 0.96197 0.53562 0.0
C828 C 0.00432 0.96755 0.52596 0.0
C829 C 0.98664 0.95404 0.52273 0.0
C830 C 0.98382 0.93564 0.52973 0.0
H831 H 0.987 0.87557 0.51048 0.0
H832 H 0.97268 0.89335 0.51327 0.0
H833 H 0.99751 0.90156 0.51056 0.0
H834 H 0.02819 0.93987 0.55015 0.0
H835 H 0.0331 0.97199 0.5383 0.0
H836 H 0.47852 0.79414 0.84219 0.0
H837 H 0.44565 0.79288 0.83203 0.0
H838 H 0.42697 0.76064 0.87856 0.0
H839 H 0.46001 0.76169 0.88884 0.0
H840 H 0.41252 0.75604 0.82482 0.0
H841 H 0.40586 0.81388 0.882 0.0
H842 H 0.42861 0.81187 0.87423 0.0
H843 H 0.41599 0.79375 0.88783 0.0
C844 C 0.46744 0.78656 0.85017 0.0
C845 C 0.47187 0.77805 0.86635 0.0
C846 C 0.44868 0.78588 0.84434 0.0
C847 C 0.43397 0.77687 0.85467 0.0
C848 C 0.4382 0.76779 0.87051 0.0
H849 H 0.31505 0.78294 0.83302 0.0
H850 H 0.34434 0.77818 0.84878 0.0
C851 C 0.45704 0.7683 0.87627 0.0
C852 C 0.41432 0.77758 0.84894 0.0
H853 H 0.38062 0.80333 0.85856 0.0
C854 C 0.40541 0.76618 0.8323 0.0
C855 C 0.40511 0.79075 0.85883 0.0
C856 C 0.41429 0.80337 0.87671 0.0
C857 C 0.38768 0.76798 0.82499 0.0
C858 C 0.3789 0.78196 0.8343 0.0
C859 C 0.38744 0.79274 0.8514 0.0
C860 C 0.36151 0.7864 0.82576 0.0
C861 C 0.37858 0.755 0.80724 0.0
C862 C 0.36169 0.7934 0.80802 0.0
C863 C 0.3451 0.79611 0.79908 0.0
C864 C 0.32804 0.79209 0.80779 0.0
C865 C 0.32804 0.78618 0.82603 0.0
C866 C 0.34471 0.78338 0.83498 0.0
H867 H 0.38392 0.74131 0.8053 0.0
H868 H 0.36296 0.75081 0.80748 0.0
H869 H 0.38205 0.76316 0.79486 0.0
H870 H 0.37461 0.79633 0.80088 0.0
H871 H 0.34554 0.80079 0.78507 0.0
H872 H 0.49303 0.23409 0.07304 0.0
H873 H 0.49276 0.20343 0.05335 0.0
H874 H 0.47798 0.17041 0.1004 0.0
H875 H 0.47784 0.20097 0.12014 0.0
H876 H 0.51744 0.181 0.06122 0.0
H877 H 0.44404 0.13556 0.0572 0.0
H878 H 0.44996 0.16182 0.06459 0.0
H879 H 0.45369 0.14478 0.08089 0.0
C880 C 0.48926 0.22026 0.0791 0.0
C881 C 0.48558 0.21999 0.09821 0.0
C882 C 0.48912 0.20276 0.06781 0.0
C883 C 0.48529 0.18464 0.07538 0.0
C884 C 0.48063 0.18417 0.09416 0.0
H885 H 0.52935 0.08301 0.04105 0.0
H886 H 0.52186 0.1125 0.05726 0.0
C887 C 0.48064 0.20169 0.10546 0.0
C888 C 0.48846 0.16675 0.06436 0.0
H889 H 0.46788 0.11872 0.04794 0.0
C890 C 0.50654 0.16744 0.05816 0.0
C891 C 0.47421 0.14911 0.06034 0.0
C892 C 0.45433 0.14777 0.06594 0.0
C893 C 0.51089 0.15088 0.04835 0.0
C894 C 0.49686 0.13303 0.04495 0.0
C895 C 0.47865 0.1324 0.05075 0.0
C896 C 0.50095 0.11487 0.03541 0.0
C897 C 0.53043 0.15267 0.04161 0.0
C898 C 0.49136 0.10623 0.01798 0.0
C899 C 0.49553 0.08933 0.00877 0.0
C900 C 0.50926 0.08078 0.01693 0.0
C901 C 0.51874 0.08937 0.03444 0.0
C902 C 0.51453 0.10622 0.04367 0.0
H903 H 0.53777 0.16833 0.041 0.0
H904 H 0.53904 0.14635 0.05155 0.0
H905 H 0.52981 0.1444 0.0274 0.0
H906 H 0.4808 0.11269 0.01144 0.0
H907 H 0.48796 0.0829 0.99532 0.0
H908 H 0.08973 0.28765 0.38011 0.0
H909 H 0.11795 0.28917 0.3627 0.0
H910 H 0.08297 0.25943 0.31286 0.0
H911 H 0.05489 0.25693 0.33053 0.0
H912 H 0.1109 0.24338 0.31713 0.0
H913 H 0.14033 0.32404 0.32551 0.0
H914 H 0.13753 0.315 0.34803 0.0
H915 H 0.11701 0.3133 0.33208 0.0
C916 C 0.08808 0.28168 0.36537 0.0
C917 C 0.07014 0.2722 0.35666 0.0
C918 C 0.10421 0.28267 0.35537 0.0
C919 C 0.10263 0.27474 0.33631 0.0
C920 C 0.08461 0.26568 0.32752 0.0
H921 H 0.20064 0.29695 0.26935 0.0
H922 H 0.16981 0.29607 0.28173 0.0
C923 C 0.06855 0.2643 0.33762 0.0
C924 C 0.11977 0.2747 0.32587 0.0
H925 H 0.16151 0.30387 0.31576 0.0
C926 C 0.12186 0.25668 0.31667 0.0
C927 C 0.13397 0.29206 0.3249 0.0
C928 C 0.132 0.3122 0.33298 0.0
C929 C 0.13786 0.25545 0.30694 0.0
C930 C 0.15263 0.27256 0.30705 0.0
C931 C 0.15035 0.29067 0.31585 0.0
C932 C 0.17068 0.27202 0.29842 0.0
C933 C 0.13851 0.23585 0.29637 0.0
C934 C 0.18144 0.25873 0.30354 0.0
C935 C 0.19884 0.25891 0.29613 0.0
C936 C 0.2061 0.27277 0.28387 0.0
C937 C 0.19537 0.28608 0.27875 0.0
C938 C 0.17778 0.28562 0.28586 0.0
H939 H 0.12405 0.22669 0.29207 0.0
H940 H 0.14637 0.23783 0.28355 0.0
H941 H 0.14563 0.22752 0.30574 0.0
H942 H 0.17664 0.24854 0.31368 0.0
H943 H 0.20695 0.24872 0.30061 0.0
H944 H 0.95134 0.0561 0.21147 0.0
H945 H 0.97128 0.05742 0.18496 0.0
H946 H 0.92496 0.06451 0.14811 0.0
H947 H 0.90505 0.06363 0.17456 0.0
H948 H 0.96507 0.03115 0.15387 0.0
H949 H 0.9681 0.10571 0.13259 0.0
H950 H 0.96003 0.09871 0.15493 0.0
H951 H 0.94431 0.09188 0.13379 0.0
C952 C 0.94548 0.05833 0.19781 0.0
C953 C 0.92655 0.05975 0.19518 0.0
C954 C 0.95691 0.05905 0.18265 0.0
C955 C 0.94971 0.06126 0.16455 0.0
C956 C 0.931 0.06325 0.16199 0.0
H957 H 0.98525 0.01871 0.05816 0.0
H958 H 0.96919 0.02474 0.08657 0.0
C959 C 0.91958 0.06262 0.17716 0.0
C960 C 0.96116 0.05969 0.14809 0.0
H961 H 0.97733 0.08256 0.11006 0.0
C962 C 0.9679 0.0425 0.14441 0.0
C963 C 0.96505 0.07456 0.13582 0.0
C964 C 0.95916 0.09384 0.13957 0.0
C965 C 0.97791 0.03951 0.12855 0.0
C966 C 0.98096 0.05393 0.11577 0.0
C967 C 0.97477 0.07141 0.11973 0.0
C968 C 0.99031 0.05091 0.0981 0.0
C969 C 0.98521 0.02096 0.1257 0.0
C970 C 0.0072 0.06402 0.09479 0.0
C971 C 0.01631 0.06072 0.0784 0.0
C972 C 0.0086 0.04434 0.06502 0.0
C973 C 0.99151 0.03149 0.0682 0.0
C974 C 0.9824 0.03482 0.08451 0.0
H975 H 0.98652 0.01444 0.13913 0.0
H976 H 0.97515 0.00982 0.11566 0.0
H977 H 0.99922 0.02394 0.11976 0.0
H978 H 0.0135 0.07659 0.10504 0.0
H979 H 0.02944 0.07089 0.07628 0.0
H980 H 0.26923 0.71999 0.48224 0.0
H981 H 0.2747 0.73515 0.45323 0.0
H982 H 0.31956 0.7053 0.44294 0.0
H983 H 0.31399 0.68968 0.4721 0.0
H984 H 0.30814 0.75971 0.44259 0.0
H985 H 0.2837 0.68972 0.39424 0.0
H986 H 0.27894 0.69135 0.4188 0.0
H987 H 0.30222 0.69057 0.41224 0.0
C988 C 0.28027 0.71658 0.47386 0.0
C989 C 0.29111 0.70353 0.4794 0.0
C990 C 0.28342 0.72535 0.45731 0.0
C991 C 0.29743 0.72125 0.44593 0.0
C992 C 0.30852 0.70845 0.45147 0.0
H993 H 0.3061 0.75685 0.33213 0.0
H994 H 0.31521 0.74589 0.36203 0.0
C995 C 0.30535 0.69959 0.46811 0.0
C996 C 0.29982 0.7302 0.42809 0.0
H997 H 0.29054 0.71927 0.38045 0.0
C998 C 0.30458 0.75089 0.42896 0.0
C999 C 0.29522 0.71861 0.41038 0.0
C1000 C 0.28961 0.69633 0.40871 0.0
C1001 C 0.30412 0.76034 0.41259 0.0
C1002 C 0.29852 0.74876 0.395 0.0
C1003 C 0.29478 0.72808 0.39401 0.0
C1004 C 0.29478 0.7576 0.37766 0.0
C1005 C 0.30927 0.78261 0.4143 0.0
C1006 C 0.2804 0.76798 0.37665 0.0
C1007 C 0.27516 0.77424 0.3596 0.0
C1008 C 0.28414 0.77006 0.34334 0.0
C1009 C 0.29893 0.76023 0.3445 0.0
C1010 C 0.30416 0.75398 0.36153 0.0
H1011 H 0.31871 0.78896 0.42723 0.0
H1012 H 0.31636 0.78801 0.40182 0.0
H1013 H 0.29619 0.78817 0.41526 0.0
H1014 H 0.27271 0.77054 0.38885 0.0
H1015 H 0.26367 0.78172 0.35901 0.0
H1016 H 0.60806 0.9803 0.67282 0.0
H1017 H 0.5884 0.97847 0.64354 0.0
H1018 H 0.53859 0.97113 0.6746 0.0
H1019 H 0.55821 0.97358 0.70403 0.0
H1020 H 0.55637 0.95348 0.6232 0.0
H1021 H 0.54182 0.0242 0.6543 0.0
H1022 H 0.55932 0.01323 0.665 0.0
H1023 H 0.53462 0.00374 0.66767 0.0
C1024 C 0.59287 0.97782 0.67337 0.0
C1025 C 0.5847 0.97752 0.69074 0.0
C1026 C 0.58166 0.97674 0.65662 0.0
C1027 C 0.56213 0.97517 0.65702 0.0
C1028 C 0.55371 0.97282 0.67409 0.0
H1029 H 0.48882 0.97984 0.55588 0.0
H1030 H 0.50208 0.96783 0.58362 0.0
C1031 C 0.56493 0.97419 0.69087 0.0
C1032 C 0.55116 0.97863 0.64016 0.0
H1033 H 0.52833 0.01192 0.62371 0.0
C1034 C 0.55005 0.96612 0.6233 0.0
C1035 C 0.54323 0.99536 0.64033 0.0
C1036 C 0.5449 0.01003 0.65772 0.0
C1037 C 0.54141 0.97008 0.60649 0.0
C1038 C 0.53354 0.98681 0.60674 0.0
C1039 C 0.53429 0.99903 0.62367 0.0
C1040 C 0.52589 0.99307 0.58938 0.0
C1041 C 0.54145 0.9569 0.58846 0.0
C1042 C 0.53477 0.01128 0.58368 0.0
C1043 C 0.52715 0.0182 0.56812 0.0
C1044 C 0.51056 0.007 0.55792 0.0
C1045 C 0.50168 0.98869 0.56352 0.0
C1046 C 0.5093 0.98177 0.57921 0.0
H1047 H 0.55078 0.94651 0.59008 0.0
H1048 H 0.52686 0.94811 0.58421 0.0
H1049 H 0.54617 0.9659 0.5769 0.0
H1050 H 0.54751 0.02026 0.59145 0.0
H1051 H 0.53413 0.03249 0.56426 0.0
H1052 H 0.24081 0.3793 0.96897 0.0
H1053 H 0.2424 0.36727 0.93587 0.0
H1054 H 0.2634 0.31825 0.95318 0.0
H1055 H 0.26269 0.33075 0.98623 0.0
H1056 H 0.28416 0.3343 0.92807 0.0
H1057 H 0.20946 0.32377 0.90105 0.0
H1058 H 0.21934 0.34859 0.91155 0.0
H1059 H 0.21683 0.32851 0.92591 0.0
C1060 C 0.24543 0.36576 0.96568 0.0
C1061 C 0.25156 0.35593 0.98019 0.0
C1062 C 0.24627 0.35883 0.94673 0.0
C1063 C 0.25279 0.34166 0.94192 0.0
C1064 C 0.25834 0.33152 0.95646 0.0
H1065 H 0.24125 0.27894 0.82942 0.0
H1066 H 0.23864 0.29039 0.86233 0.0
C1067 C 0.25784 0.33863 0.97537 0.0
C1068 C 0.255 0.33488 0.92189 0.0
H1069 H 0.23177 0.32285 0.87796 0.0
C1070 C 0.27264 0.33167 0.91714 0.0
C1071 C 0.23997 0.33124 0.90759 0.0
C1072 C 0.2203 0.33301 0.91181 0.0
C1073 C 0.27568 0.32497 0.89862 0.0
C1074 C 0.26087 0.32208 0.88419 0.0
C1075 C 0.24322 0.32526 0.88893 0.0
C1076 C 0.26306 0.31501 0.86423 0.0
C1077 C 0.29457 0.32048 0.89492 0.0
C1078 C 0.27767 0.32498 0.85419 0.0
C1079 C 0.27943 0.31819 0.83539 0.0
C1080 C 0.26629 0.30161 0.82613 0.0
C1081 C 0.25158 0.29181 0.83612 0.0
C1082 C 0.25004 0.29837 0.85496 0.0
H1083 H 0.30195 0.3176 0.90801 0.0
H1084 H 0.29297 0.30744 0.88423 0.0
H1085 H 0.30373 0.33341 0.88959 0.0
H1086 H 0.28759 0.33818 0.8608 0.0
H1087 H 0.29077 0.3262 0.82798 0.0
H1088 H 0.90333 0.05889 0.31016 0.0
H1089 H 0.91196 0.05442 0.3429 0.0
H1090 H 0.9508 0.01998 0.32335 0.0
H1091 H 0.94247 0.02448 0.29083 0.0
H1092 H 0.90796 0.01789 0.35809 0.0
H1093 H 0.98281 0.05963 0.3652 0.0
H1094 H 0.96607 0.06244 0.34666 0.0
H1095 H 0.97705 0.0418 0.34464 0.0
C1096 C 0.91395 0.05066 0.31288 0.0
C1097 C 0.92228 0.04212 0.29789 0.0
C1098 C 0.91878 0.04804 0.33157 0.0
C1099 C 0.93215 0.03703 0.33557 0.0
C1100 C 0.9407 0.02882 0.32064 0.0
H1101 H 0.98182 0.99476 0.43063 0.0
H1102 H 0.96953 -0.00011 0.3994 0.0
C1103 C 0.93586 0.03137 0.30203 0.0
C1104 C 0.93664 0.03323 0.35519 0.0
H1105 H 0.97339 0.03783 0.38838 0.0
C1106 C 0.92221 0.02242 0.36484 0.0
C1107 C 0.95525 0.03913 0.36392 0.0
C1108 C 0.97116 0.05156 0.35466 0.0
C1109 C 0.92605 0.01676 0.38272 0.0
C1110 C 0.94476 0.02226 0.39123 0.0
C1111 C 0.95909 0.03342 0.38174 0.0
C1112 C 0.94998 0.01672 0.41 0.0
C1113 C 0.91021 0.00441 0.3921 0.0
C1114 C 0.94269 0.02401 0.42632 0.0
C1115 C 0.94964 0.02099 0.44419 0.0
C1116 C 0.96407 0.01076 0.44601 0.0
C1117 C 0.97064 0.00262 0.42965 0.0
C1118 C 0.9637 0.00563 0.41181 0.0
H1119 H 0.89786 0.99748 0.38191 0.0
H1120 H 0.91506 0.9926 0.39887 0.0
H1121 H 0.90544 0.01397 0.40325 0.0
H1122 H 0.93233 0.03287 0.4253 0.0
H1123 H 0.94443 0.02758 0.45657 0.0
H1124 H 0.30417 0.69409 0.60201 0.0
H1125 H 0.30483 0.71929 0.62842 0.0
H1126 H 0.30062 0.76181 0.58955 0.0
H1127 H 0.29942 0.73653 0.56299 0.0
H1128 H 0.32669 0.75676 0.64091 0.0
H1129 H 0.25306 0.75916 0.61746 0.0
H1130 H 0.26434 0.7406 0.60726 0.0
H1131 H 0.27059 0.76535 0.60094 0.0
C1132 C 0.3037 0.70887 0.59906 0.0
C1133 C 0.30139 0.71322 0.58043 0.0
C1134 C 0.30411 0.72328 0.61417 0.0
C1135 C 0.30235 0.74228 0.6109 0.0
C1136 C 0.30154 0.7471 0.59234 0.0
H1137 H 0.29874 0.81521 0.71877 0.0
H1138 H 0.3064 0.80976 0.68584 0.0
C1139 C 0.30092 0.73265 0.57721 0.0
C1140 C 0.29962 0.75619 0.62694 0.0
H1141 H 0.26555 0.77599 0.64689 0.0
C1142 C 0.3135 0.76136 0.64213 0.0
C1143 C 0.28234 0.7621 0.6284 0.0
C1144 C 0.26663 0.75646 0.61275 0.0
C1145 C 0.31008 0.77113 0.65925 0.0
C1146 C 0.29243 0.77614 0.66101 0.0
C1147 C 0.27909 0.77223 0.64537 0.0
C1148 C 0.28614 0.78164 0.6797 0.0
C1149 C 0.32476 0.77462 0.67574 0.0
C1150 C 0.2716 0.76814 0.68673 0.0
C1151 C 0.26719 0.77123 0.70532 0.0
C1152 C 0.27719 0.78793 0.71723 0.0
C1153 C 0.29087 0.80218 0.70986 0.0
C1154 C 0.29534 0.79904 0.69114 0.0
H1155 H 0.33678 0.76778 0.67256 0.0
H1156 H 0.33044 0.79074 0.67949 0.0
H1157 H 0.31832 0.76852 0.68826 0.0
H1158 H 0.26433 0.75463 0.67813 0.0
H1159 H 0.25661 0.75999 0.71062 0.0
H1160 H 0.55328 0.99495 0.78263 0.0
H1161 H 0.53949 0.99281 0.81298 0.0
H1162 H 0.59181 0.98462 0.83855 0.0
H1163 H 0.60547 0.98594 0.80793 0.0
H1164 H 0.56049 0.96293 0.85343 0.0
H1165 H 0.55569 0.04085 0.85172 0.0
H1166 H 0.54266 0.02447 0.83213 0.0
H1167 H 0.56803 0.02867 0.83484 0.0
C1168 C 0.56174 0.99237 0.79466 0.0
C1169 C 0.58053 0.99093 0.79305 0.0
C1170 C 0.55386 0.99121 0.81198 0.0
C1171 C 0.56481 0.98913 0.8281 0.0
C1172 C 0.58317 0.98638 0.82629 0.0
H1173 H 0.55352 0.03531 0.94093 0.0
H1174 H 0.56284 0.02667 0.90954 0.0
C1175 C 0.59097 0.98716 0.80883 0.0
C1176 C 0.55772 0.99163 0.84701 0.0
H1177 H 0.54269 0.02484 0.8771 0.0
C1178 C 0.55657 0.97643 0.85865 0.0
C1179 C 0.55289 0.00941 0.85385 0.0
C1180 C 0.55504 0.02685 0.84258 0.0
C1181 C 0.55074 0.97858 0.87703 0.0
C1182 C 0.54557 0.99622 0.88368 0.0
C1183 C 0.54654 0.01127 0.87192 0.0
C1184 C 0.54037 0.00021 0.9032 0.0
C1185 C 0.55078 0.96226 0.88935 0.0
C1186 C 0.52468 0.98813 0.91015 0.0
C1187 C 0.51944 0.99296 0.92828 0.0
C1188 C 0.52964 0.0101 0.93948 0.0
C1189 C 0.54533 0.02207 0.93252 0.0
C1190 C 0.55069 0.01713 0.9146 0.0
H1191 H 0.55945 0.95206 0.88387 0.0
H1192 H 0.55631 0.9684 0.90403 0.0
H1193 H 0.53608 0.95352 0.88971 0.0
H1194 H 0.51627 0.97524 0.90145 0.0
H1195 H 0.50726 0.98353 0.93339 0.0
H1196 H 0.24966 0.33526 0.07027 0.0
H1197 H 0.24769 0.3163 0.09739 0.0
H1198 H 0.23625 0.36555 0.1323 0.0
H1199 H 0.23787 0.38448 0.10526 0.0
H1200 H 0.27033 0.3254 0.13005 0.0
H1201 H 0.19589 0.32001 0.14603 0.0
H1202 H 0.20462 0.32735 0.12402 0.0
H1203 H 0.20865 0.34496 0.14483 0.0
C1204 C 0.24646 0.34199 0.08364 0.0
C1205 C 0.2439 0.36143 0.08552 0.0
C1206 C 0.24536 0.33112 0.09915 0.0
C1207 C 0.24158 0.33938 0.11685 0.0
C1208 C 0.23875 0.35866 0.11871 0.0
H1209 H 0.27294 0.30909 0.22648 0.0
H1210 H 0.2695 0.3242 0.19746 0.0
C1211 C 0.23981 0.36953 0.10322 0.0
C1212 C 0.2419 0.32839 0.13363 0.0
H1213 H 0.21632 0.31221 0.17008 0.0
C1214 C 0.25845 0.32237 0.1387 0.0
C1215 C 0.22634 0.32422 0.14483 0.0
C1216 C 0.2078 0.32929 0.13957 0.0
C1217 C 0.26007 0.31284 0.15491 0.0
C1218 C 0.24485 0.30953 0.1666 0.0
C1219 C 0.22807 0.31497 0.16124 0.0
C1220 C 0.24625 0.30071 0.18458 0.0
C1221 C 0.27806 0.3063 0.1593 0.0
C1222 C 0.23389 0.28281 0.1873 0.0
C1223 C 0.23572 0.27421 0.20401 0.0
C1224 C 0.24987 0.28344 0.2183 0.0
C1225 C 0.26192 0.30159 0.21571 0.0
C1226 C 0.26006 0.31018 0.19907 0.0
H1227 H 0.28593 0.30483 0.14654 0.0
H1228 H 0.28738 0.31749 0.16989 0.0
H1229 H 0.27505 0.29194 0.16525 0.0
H1230 H 0.22305 0.27532 0.17635 0.0
H1231 H 0.2262 0.26025 0.20565 0.0
H1232 H 0.19896 0.92574 0.9928 0.0
H1233 H 0.1752 0.94477 0.98682 0.0
H1234 H 0.18997 0.97726 0.04216 0.0
H1235 H 0.21373 0.95858 0.0482 0.0
H1236 H 0.14428 0.94671 0.00792 0.0
H1237 H 0.19116 0.02114 0.00802 0.0
H1238 H 0.19975 0.9988 0.00541 0.0
H1239 H 0.19571 0.00932 0.0284 0.0
C1240 C 0.19721 0.93702 0.00363 0.0
C1241 C 0.20824 0.94068 0.02095 0.0
C1242 C 0.18369 0.94789 0.00018 0.0
C1243 C 0.18113 0.96267 0.01391 0.0
C1244 C 0.19207 0.96627 0.0312 0.0
H1245 H 0.10105 0.0322 0.03902 0.0
H1246 H 0.12889 0.01799 0.03729 0.0
C1247 C 0.20553 0.95543 0.03468 0.0
C1248 C 0.16619 0.97348 0.01082 0.0
H1249 H 0.15836 0.01988 0.01151 0.0
C1250 C 0.14734 0.96268 0.0084 0.0
C1251 C 0.17029 0.99432 0.01155 0.0
C1252 C 0.19034 0.00658 0.01331 0.0
C1253 C 0.13238 0.97222 0.00749 0.0
C1254 C 0.13647 0.99309 0.00867 0.0
C1255 C 0.15533 0.00388 0.01063 0.0
C1256 C 0.12121 0.00388 0.0087 0.0
C1257 C 0.11233 0.95993 0.00604 0.0
C1258 C 0.10819 0.00126 0.99293 0.0
C1259 C 0.09233 0.00926 0.99392 0.0
C1260 C 0.08937 0.02013 0.01064 0.0
C1261 C 0.10304 0.02385 0.02599 0.0
C1262 C 0.11889 0.01575 0.02502 0.0
H1263 H 0.11169 0.94461 0.00935 0.0
H1264 H 0.10361 0.96676 0.01577 0.0
H1265 H 0.10594 0.95909 0.99144 0.0
H1266 H 0.10996 0.99243 0.98011 0.0
H1267 H 0.08204 0.00632 0.98183 0.0
H1268 H 0.71959 0.59772 0.01912 0.0
H1269 H 0.68703 0.57866 0.0193 0.0
H1270 H 0.66768 0.61827 0.98445 0.0
H1271 H 0.70011 0.63767 0.98453 0.0
H1272 H 0.64709 0.61214 0.01483 0.0
H1273 H 0.65344 0.54032 0.97838 0.0
H1274 H 0.66993 0.54933 0.99864 0.0
H1275 H 0.67143 0.5628 0.97839 0.0
C1276 C 0.70845 0.60223 0.01126 0.0
C1277 C 0.71249 0.61924 0.00179 0.0
C1278 C 0.68983 0.59126 0.01133 0.0
C1279 C 0.67493 0.59692 0.00174 0.0
C1280 C 0.67897 0.61363 0.99195 0.0
H1281 H 0.56046 0.53365 0.97003 0.0
H1282 H 0.59417 0.54936 0.97252 0.0
C1283 C 0.69753 0.62467 0.99196 0.0
C1284 C 0.655 0.58607 0.00258 0.0
H1285 H 0.62441 0.54098 0.99161 0.0
C1286 C 0.64212 0.59657 0.00977 0.0
C1287 C 0.64854 0.56578 0.99588 0.0
C1288 C 0.66149 0.5539 0.98722 0.0
C1289 C 0.62292 0.58742 0.01028 0.0
C1290 C 0.6165 0.56708 0.0038 0.0
C1291 C 0.62941 0.55653 0.99677 0.0
C1292 C 0.59619 0.55685 0.00281 0.0
C1293 C 0.60958 0.5998 0.01713 0.0
C1294 C 0.58614 0.55555 0.01907 0.0
C1295 C 0.56676 0.54665 0.01765 0.0
C1296 C 0.55724 0.53879 -2e-05 0.0
C1297 C 0.56744 0.53963 0.98384 0.0
C1298 C 0.58672 0.54857 0.98524 0.0
H1299 H 0.61589 0.61586 0.01744 0.0
H1300 H 0.59613 0.59604 0.00801 0.0
H1301 H 0.60623 0.59684 0.03169 0.0
H1302 H 0.59325 0.5615 0.03283 0.0
H1303 H 0.55922 0.54605 0.0303 0.0
H1304 H 0.70241 0.48218 0.25855 0.0
H1305 H 0.71686 0.45393 0.25875 0.0
H1306 H 0.67658 0.42803 0.29652 0.0
H1307 H 0.66227 0.45663 0.29678 0.0
H1308 H 0.71238 0.42449 0.30662 0.0
H1309 H 0.69451 0.40006 0.23032 0.0
H1310 H 0.70801 0.42512 0.23494 0.0
H1311 H 0.68461 0.41853 0.24288 0.0
C1312 C 0.69659 0.4705 0.26692 0.0
C1313 C 0.68106 0.47158 0.27752 0.0
C1314 C 0.70483 0.45429 0.26694 0.0
C1315 C 0.69756 0.43864 0.27731 0.0
C1316 C 0.68235 0.43988 0.2883 0.0
H1317 H 0.71796 0.32144 0.25864 0.0
H1318 H 0.70512 0.35076 0.261 0.0
C1319 C 0.67417 0.45621 0.28842 0.0
C1320 C 0.70579 0.42097 0.27655 0.0
H1321 H 0.71568 0.38449 0.24608 0.0
C1322 C 0.71305 0.41569 0.2934 0.0
C1323 C 0.70643 0.40933 0.25932 0.0
C1324 C 0.6978 0.4134 0.24086 0.0
C1325 C 0.72115 0.39923 0.29347 0.0
C1326 C 0.7224 0.38801 0.27615 0.0
C1327 C 0.71495 0.39321 0.25934 0.0
C1328 C 0.73053 0.37026 0.27511 0.0
C1329 C 0.72784 0.39374 0.31213 0.0
C1330 C 0.74923 0.37142 0.28208 0.0
C1331 C 0.75664 0.35453 0.28089 0.0
C1332 C 0.74557 0.33622 0.27245 0.0
C1333 C 0.72696 0.33525 0.26521 0.0
C1334 C 0.71955 0.35204 0.26655 0.0
H1335 H 0.72129 0.40034 0.32408 0.0
H1336 H 0.72454 0.37746 0.31225 0.0
H1337 H 0.74339 0.39937 0.31452 0.0
H1338 H 0.75815 0.3854 0.28832 0.0
H1339 H 0.77105 0.35584 0.2865 0.0
H1340 H 0.79571 0.46073 0.52009 0.0
H1341 H 0.82811 0.47877 0.51685 0.0
H1342 H 0.8475 0.42525 0.5208 0.0
H1343 H 0.81504 0.40698 0.52305 0.0
H1344 H 0.85857 0.48659 0.53908 0.0
H1345 H 0.87166 0.44239 0.47494 0.0
H1346 H 0.84845 0.43964 0.48343 0.0
H1347 H 0.86504 0.42687 0.49311 0.0
C1348 C 0.8069 0.45282 0.52018 0.0
C1349 C 0.80287 0.43243 0.52166 0.0
C1350 C 0.82539 0.46313 0.51831 0.0
C1351 C 0.84019 0.45328 0.51811 0.0
C1352 C 0.83624 0.43303 0.52021 0.0
H1353 H 0.95788 0.50488 0.54768 0.0
H1354 H 0.92385 0.49149 0.54671 0.0
C1355 C 0.81771 0.42263 0.52168 0.0
C1356 C 0.85986 0.46428 0.5164 0.0
H1357 H 0.89929 0.46227 0.49334 0.0
C1358 C 0.8674 0.48141 0.5289 0.0
C1359 C 0.87127 0.45789 0.5028 0.0
C1360 C 0.8636 0.44082 0.48768 0.0
C1361 C 0.88625 0.49182 0.52871 0.0
C1362 C 0.89809 0.48442 0.5162 0.0
C1363 C 0.89033 0.46778 0.50316 0.0
C1364 C 0.91869 0.49318 0.51683 0.0
C1365 C 0.89312 0.51073 0.54181 0.0
C1366 C 0.9273 0.49789 0.50022 0.0
C1367 C 0.94688 0.50499 0.50064 0.0
C1368 C 0.95813 0.50773 0.51773 0.0
C1369 C 0.94951 0.50317 0.53435 0.0
C1370 C 0.93002 0.49568 0.53384 0.0
H1371 H 0.88133 0.51797 0.54485 0.0
H1372 H 0.8989 0.50729 0.55544 0.0
H1373 H 0.90434 0.52135 0.53578 0.0
H1374 H 0.91887 0.49597 0.48689 0.0
H1375 H 0.95318 0.50845 0.48763 0.0
H1376 H 0.34167 0.07402 0.24422 0.0
H1377 H 0.31917 0.09505 0.24638 0.0
H1378 H 0.34929 0.12651 0.29804 0.0
H1379 H 0.37191 0.10526 0.29614 0.0
H1380 H 0.30807 0.11683 0.29774 0.0
H1381 H 0.33478 0.15335 0.23564 0.0
H1382 H 0.3279 0.12685 0.23183 0.0
H1383 H 0.34772 0.13878 0.24822 0.0
C1384 C 0.34351 0.08535 0.25611 0.0
C1385 C 0.3587 0.08816 0.26991 0.0
C1386 C 0.33063 0.09734 0.2573 0.0
C1387 C 0.33277 0.11246 0.27221 0.0
C1388 C 0.34749 0.11491 0.28639 0.0
H1389 H 0.28593 0.21168 0.30063 0.0
H1390 H 0.29911 0.18263 0.3015 0.0
C1391 C 0.3604 0.10283 0.28526 0.0
C1392 C 0.32016 0.12628 0.2724 0.0
H1393 H 0.30819 0.16197 0.24833 0.0
C1394 C 0.30803 0.1267 0.28695 0.0
C1395 C 0.32016 0.13903 0.25824 0.0
C1396 C 0.33343 0.13968 0.24267 0.0
C1397 C 0.29579 0.13962 0.28768 0.0
C1398 C 0.29598 0.15254 0.27363 0.0
C1399 C 0.30794 0.15187 0.25896 0.0
C1400 C 0.28522 0.16812 0.27459 0.0
C1401 C 0.28274 0.13927 0.30338 0.0
C1402 C 0.27289 0.16952 0.25922 0.0
C1403 C 0.26544 0.18622 0.25863 0.0
C1404 C 0.27039 0.20176 0.27331 0.0
C1405 C 0.2819 0.19987 0.28912 0.0
C1406 C 0.28932 0.1832 0.28972 0.0
H1407 H 0.27998 0.12483 0.30921 0.0
H1408 H 0.28945 0.15089 0.31501 0.0
H1409 H 0.26903 0.14223 0.29845 0.0
H1410 H 0.26969 0.15807 0.24735 0.0
H1411 H 0.2566 0.18739 0.24628 0.0
H1412 H 0.32329 0.13271 0.4802 0.0
H1413 H 0.34943 0.11632 0.4755 0.0
H1414 H 0.33153 0.08034 0.51979 0.0
H1415 H 0.30538 0.09632 0.52439 0.0
H1416 H 0.37879 0.11531 0.50142 0.0
H1417 H 0.33751 0.03926 0.47763 0.0
H1418 H 0.32715 0.06043 0.47816 0.0
H1419 H 0.33039 0.04932 0.4994 0.0
C1420 C 0.32483 0.12117 0.48881 0.0
C1421 C 0.31219 0.11578 0.50262 0.0
C1422 C 0.33977 0.11183 0.48611 0.0
C1423 C 0.34224 0.09685 0.49706 0.0
C1424 C 0.32965 0.09149 0.51085 0.0
H1425 H 0.42457 0.03086 0.52264 0.0
H1426 H 0.39682 0.04497 0.51918 0.0
C1427 C 0.31476 0.10078 0.51355 0.0
C1428 C 0.35852 0.08747 0.49491 0.0
H1429 H 0.37006 0.04268 0.4881 0.0
C1430 C 0.37691 0.09946 0.49823 0.0
C1431 C 0.35604 0.06678 0.49076 0.0
C1432 C 0.3367 0.05321 0.48609 0.0
C1433 C 0.39284 0.09126 0.49834 0.0
C1434 C 0.39031 0.07051 0.49473 0.0
C1435 C 0.37196 0.05857 0.49092 0.0
C1436 C 0.40651 0.06091 0.49575 0.0
C1437 C 0.41219 0.10478 0.5031 0.0
C1438 C 0.42091 0.06475 0.48339 0.0
C1439 C 0.43676 0.05671 0.48536 0.0
C1440 C 0.43841 0.04461 0.49964 0.0
C1441 C 0.42365 0.04015 0.51152 0.0
C1442 C 0.40782 0.0482 0.50955 0.0
H1443 H 0.41139 0.11971 0.50945 0.0
H1444 H 0.42079 0.09847 0.51308 0.0
H1445 H 0.41965 0.10649 0.49002 0.0
H1446 H 0.42003 0.0742 0.47241 0.0
H1447 H 0.44791 0.06029 0.47599 0.0
H1448 H 0.7003 0.57175 0.27729 0.0
H1449 H 0.71783 0.6061 0.27971 0.0
H1450 H 0.68487 0.62117 0.32491 0.0
H1451 H 0.66676 0.58687 0.32212 0.0
H1452 H 0.68528 0.64548 0.29919 0.0
H1453 H 0.75883 0.6402 0.31554 0.0
H1454 H 0.7484 0.62401 0.2948 0.0
H1455 H 0.73887 0.61994 0.31721 0.0
C1456 C 0.69703 0.58226 0.28804 0.0
C1457 C 0.68209 0.57655 0.29949 0.0
C1458 C 0.70716 0.60193 0.28948 0.0
C1459 C 0.70286 0.61623 0.30266 0.0
C1460 C 0.68848 0.6104 0.31466 0.0
H1461 H 0.7722 0.73728 0.31349 0.0
H1462 H 0.75583 0.70444 0.32049 0.0
C1463 C 0.67817 0.59077 0.31308 0.0
C1464 C 0.71208 0.63747 0.30262 0.0
H1465 H 0.75497 0.66955 0.3022 0.0
C1466 C 0.70053 0.65078 0.30013 0.0
C1467 C 0.73197 0.64453 0.30413 0.0
C1468 C 0.74521 0.63144 0.30828 0.0
C1469 C 0.7083 0.67074 0.29837 0.0
C1470 C 0.72816 0.67746 0.29851 0.0
C1471 C 0.73973 0.66435 0.30178 0.0
C1472 C 0.73724 0.69784 0.29481 0.0
C1473 C 0.69511 0.68439 0.29646 0.0
C1474 C 0.73224 0.70508 0.27806 0.0
C1475 C 0.74141 0.72391 0.27417 0.0
C1476 C 0.75601 0.73567 0.28678 0.0
C1477 C 0.761 0.72848 0.30353 0.0
C1478 C 0.75168 0.70973 0.30752 0.0
H1479 H 0.68167 0.67895 0.30296 0.0
H1480 H 0.7017 0.69959 0.30315 0.0
H1481 H 0.69153 0.68503 0.28127 0.0
H1482 H 0.72153 0.696 0.26778 0.0
H1483 H 0.73741 0.72905 0.26107 0.0
H1484 H 0.85082 0.50542 0.78545 0.0
H1485 H 0.83392 0.47147 0.78746 0.0
H1486 H 0.88452 0.45142 0.77597 0.0
H1487 H 0.90181 0.4857 0.77504 0.0
H1488 H 0.82576 0.44261 0.76126 0.0
H1489 H 0.86832 0.42061 0.81836 0.0
H1490 H 0.87168 0.4459 0.81341 0.0
H1491 H 0.88234 0.42895 0.79961 0.0
C1492 C 0.8584 0.49378 0.7836 0.0
C1493 C 0.8776 0.49812 0.78009 0.0
C1494 C 0.84874 0.47439 0.78475 0.0
C1495 C 0.85796 0.45885 0.78207 0.0
C1496 C 0.87721 0.46317 0.77863 0.0
H1497 H 0.79571 0.33867 0.74549 0.0
H1498 H 0.81398 0.37276 0.74766 0.0
C1499 C 0.88705 0.48272 0.77795 0.0
C1500 C 0.84695 0.43816 0.7816 0.0
H1501 H 0.84601 0.39451 0.79951 0.0
C1502 C 0.83014 0.43216 0.76977 0.0
C1503 C 0.85248 0.42457 0.79287 0.0
C1504 C 0.86958 0.43039 0.80692 0.0
C1505 C 0.81876 0.413 0.7688 0.0
C1506 C 0.8248 0.3991 0.7793 0.0
C1507 C 0.8415 0.40511 0.79129 0.0
C1508 C 0.81398 0.37827 0.77804 0.0
C1509 C 0.80018 0.40809 0.75687 0.0
C1510 C 0.80855 0.36973 0.79446 0.0
C1511 C 0.79851 0.35005 0.7933 0.0
C1512 C 0.79354 0.33867 0.77566 0.0
C1513 C 0.79903 0.34721 0.75925 0.0
C1514 C 0.8094 0.36673 0.76046 0.0
H1515 H 0.79485 0.42156 0.75516 0.0
H1516 H 0.80225 0.40151 0.74259 0.0
H1517 H 0.7892 0.39741 0.76313 0.0
H1518 H 0.81201 0.37833 0.80819 0.0
H1519 H 0.79449 0.3438 0.80617 0.0
H1520 H 0.0008 0.84399 0.12839 0.0
H1521 H 0.99326 0.86961 0.11019 0.0
H1522 H 0.04503 0.87314 0.08279 0.0
H1523 H 0.05269 0.84773 0.10081 0.0
H1524 H 0.03823 0.91034 0.09948 0.0
H1525 H 0.97742 0.86497 0.05205 0.0
H1526 H 0.97699 0.86284 0.07695 0.0
H1527 H 0.99442 0.85411 0.06393 0.0
C1528 C 0.01052 0.85017 0.11843 0.0
C1529 C 0.02735 0.84383 0.11606 0.0
C1530 C 0.00614 0.86471 0.10798 0.0
C1531 C 0.01851 0.87309 0.09503 0.0
C1532 C 0.03527 0.86677 0.09266 0.0
H1533 H 0.0352 0.96559 0.02315 0.0
H1534 H 0.03589 0.93697 0.03991 0.0
C1535 C 0.03962 0.85224 0.10299 0.0
C1536 C 0.01464 0.88913 0.0845 0.0
H1537 H 0.98659 0.89891 0.04845 0.0
C1538 C 0.0269 0.90787 0.08837 0.0
C1539 C 0.99974 0.88586 0.07015 0.0
C1540 C 0.98639 0.86586 0.06535 0.0
C1541 C 0.02484 0.92343 0.07811 0.0
C1542 C 0.01039 0.92 0.06326 0.0
C1543 C 0.99775 0.90141 0.05973 0.0
C1544 C 0.00865 0.93555 0.05107 0.0
C1545 C 0.03813 0.94345 0.08331 0.0
C1546 C 0.99262 0.94353 0.05094 0.0
C1547 C 0.99208 0.95984 0.0412 0.0
C1548 C 0.0076 0.9684 0.03147 0.0
C1549 C 0.0231 0.95953 0.03069 0.0
C1550 C 0.02357 0.94322 0.04032 0.0
H1551 H 0.04476 0.94503 0.09793 0.0
H1552 H 0.0496 0.94531 0.07358 0.0
H1553 H 0.03062 0.95549 0.08207 0.0
H1554 H 0.98089 0.93771 0.05905 0.0
H1555 H 0.97992 0.9663 0.04209 0.0
H1556 H 0.95015 0.22548 0.82614 0.0
H1557 H 0.92038 0.22353 0.80756 0.0
H1558 H 0.9054 0.26436 0.85007 0.0
H1559 H 0.93472 0.2659 0.86895 0.0
H1560 H 0.87589 0.234 0.83823 0.0
H1561 H 0.90924 0.26505 0.77622 0.0
H1562 H 0.91592 0.24313 0.78232 0.0
H1563 H 0.92258 0.26549 0.79835 0.0
C1564 C 0.94049 0.23402 0.83153 0.0
C1565 C 0.94485 0.24592 0.84899 0.0
C1566 C 0.92354 0.23298 0.82083 0.0
C1567 C 0.91083 0.24409 0.82725 0.0
C1568 C 0.91502 0.2557 0.84481 0.0
H1569 H 0.81458 0.28447 0.79376 0.0
H1570 H 0.84206 0.27586 0.8088 0.0
C1571 C 0.93182 0.25657 0.85559 0.0
C1572 C 0.89309 0.24381 0.81585 0.0
H1573 H 0.87594 0.25621 0.77439 0.0
C1574 C 0.87591 0.23869 0.8242 0.0
C1575 C 0.89312 0.24991 0.79752 0.0
C1576 C 0.91119 0.25638 0.78809 0.0
C1577 C 0.85884 0.24007 0.81498 0.0
C1578 C 0.85896 0.24673 0.79694 0.0
C1579 C 0.87595 0.25102 0.7882 0.0
C1580 C 0.84198 0.25129 0.78784 0.0
C1581 C 0.8409 0.235 0.82489 0.0
C1582 C 0.83303 0.24047 0.7709 0.0
C1583 C 0.81711 0.24523 0.76236 0.0
C1584 C 0.81014 0.261 0.77056 0.0
C1585 C 0.81942 0.27201 0.7873 0.0
C1586 C 0.83512 0.26713 0.79591 0.0
H1587 H 0.84199 0.22472 0.83558 0.0
H1588 H 0.83841 0.24877 0.83233 0.0
H1589 H 0.82851 0.22824 0.81472 0.0
H1590 H 0.83827 0.2283 0.76441 0.0
H1591 H 0.81026 0.23659 0.74939 0.0
H1592 H 0.51024 0.2252 0.6391 0.0
H1593 H 0.50962 0.19337 0.62122 0.0
H1594 H 0.54959 0.22246 0.58476 0.0
H1595 H 0.55002 0.25442 0.6023 0.0
H1596 H 0.52102 0.19463 0.56504 0.0
H1597 H 0.55098 0.16317 0.62458 0.0
H1598 H 0.53012 0.17155 0.62996 0.0
H1599 H 0.55112 0.18908 0.62536 0.0
C1600 C 0.51886 0.22487 0.62724 0.0
C1601 C 0.53027 0.24238 0.62222 0.0
C1602 C 0.5186 0.20663 0.61713 0.0
C1603 C 0.52989 0.20549 0.60193 0.0
C1604 C 0.54088 0.22298 0.59654 0.0
H1605 H 0.55164 0.09409 0.55166 0.0
H1606 H 0.55541 0.12766 0.56743 0.0
C1607 C 0.54109 0.24124 0.60658 0.0
C1608 C 0.53007 0.18609 0.59154 0.0
H1609 H 0.5378 0.14058 0.59737 0.0
C1610 C 0.52481 0.18285 0.57208 0.0
C1611 C 0.5354 0.17087 0.60065 0.0
C1612 C 0.54242 0.17387 0.62125 0.0
C1613 C 0.52412 0.16458 0.56162 0.0
C1614 C 0.52842 0.14901 0.57095 0.0
C1615 C 0.5343 0.15246 0.59027 0.0
C1616 C 0.52632 0.12887 0.56106 0.0
C1617 C 0.5189 0.1622 0.54064 0.0
C1618 C 0.50868 0.11833 0.55248 0.0
C1619 C 0.50649 0.09924 0.54342 0.0
C1620 C 0.52187 0.09014 0.54292 0.0
C1621 C 0.53951 0.10064 0.55174 0.0
C1622 C 0.54169 0.11983 0.56076 0.0
H1623 H 0.52184 0.17668 0.53488 0.0
H1624 H 0.52676 0.15243 0.53294 0.0
H1625 H 0.50354 0.15549 0.53785 0.0
H1626 H 0.4965 0.12479 0.55296 0.0
H1627 H 0.49265 0.09159 0.53694 0.0
H1628 H 0.57076 0.77266 0.36956 0.0
H1629 H 0.59713 0.77044 0.35049 0.0
H1630 H 0.55821 0.74989 0.30106 0.0
H1631 H 0.53175 0.75297 0.31997 0.0
H1632 H 0.60616 0.74047 0.33114 0.0
H1633 H 0.59447 0.79379 0.28167 0.0
H1634 H 0.5818 0.79051 0.30253 0.0
H1635 H 0.57476 0.77309 0.28168 0.0
C1636 C 0.5678 0.76774 0.35461 0.0
C1637 C 0.54919 0.76315 0.34623 0.0
C1638 C 0.5829 0.76643 0.34372 0.0
C1639 C 0.57973 0.76029 0.32425 0.0
C1640 C 0.56109 0.7552 0.31592 0.0
H1641 H 0.67967 0.73756 0.2686 0.0
H1642 H 0.64748 0.73173 0.27908 0.0
C1643 C 0.54597 0.75686 0.32677 0.0
C1644 C 0.59609 0.7593 0.31293 0.0
H1645 H 0.61937 0.77807 0.27617 0.0
C1646 C 0.60902 0.74862 0.31906 0.0
C1647 C 0.59983 0.77 0.2972 0.0
C1648 C 0.58709 0.78264 0.29046 0.0
C1649 C 0.62595 0.74899 0.31043 0.0
C1650 C 0.62972 0.75973 0.29473 0.0
C1651 C 0.61641 0.76973 0.28812 0.0
C1652 C 0.64827 0.76275 0.28638 0.0
C1653 C 0.64004 0.73878 0.31894 0.0
C1654 C 0.65899 0.78208 0.28602 0.0
C1655 C 0.67706 0.7854 0.27962 0.0
C1656 C 0.68488 0.76946 0.27361 0.0
C1657 C 0.67397 0.75009 0.27329 0.0
C1658 C 0.65568 0.74676 0.27943 0.0
H1659 H 0.63693 0.73532 0.33345 0.0
H1660 H 0.63945 0.72464 0.31012 0.0
H1661 H 0.65465 0.74805 0.31952 0.0
H1662 H 0.65361 0.79466 0.29125 0.0
H1663 H 0.68515 0.80049 0.28002 0.0
H1664 H 0.03548 0.20941 0.40888 0.0
H1665 H 0.03543 0.18104 0.42633 0.0
H1666 H 0.0127 0.20939 0.4731 0.0
H1667 H 0.01335 0.23811 0.45604 0.0
H1668 H 0.03954 0.19206 0.48541 0.0
H1669 H 0.98931 0.13924 0.43296 0.0
H1670 H 0.01028 0.15135 0.42295 0.0
H1671 H 0.99429 0.16556 0.43206 0.0
C1672 C 0.03046 0.2096 0.42287 0.0
C1673 C 0.02426 0.22595 0.431 0.0
C1674 C 0.03036 0.19333 0.43281 0.0
C1675 C 0.02368 0.19289 0.45088 0.0
C1676 C 0.01784 0.20935 0.45916 0.0
H1677 H 0.98501 0.08494 0.50057 0.0
H1678 H 0.98829 0.11678 0.48829 0.0
C1679 C 0.01818 0.22574 0.44935 0.0
C1680 C 0.02253 0.17521 0.46109 0.0
H1681 H 0.00374 0.12555 0.45725 0.0
C1682 C 0.03166 0.17751 0.4793 0.0
C1683 C 0.012 0.15628 0.45323 0.0
C1684 C 0.00075 0.15295 0.43432 0.0
C1685 C 0.03063 0.16139 0.48982 0.0
C1686 C 0.02062 0.14236 0.48168 0.0
C1687 C 0.0115 0.14011 0.46348 0.0
C1688 C 0.0189 0.1245 0.49174 0.0
C1689 C 0.03986 0.16502 0.50968 0.0
C1690 C 0.03499 0.11843 0.49833 0.0
C1691 C 0.0331 0.10035 0.50578 0.0
C1692 C 0.01511 0.08789 0.50632 0.0
C1693 C 0.99905 0.09426 0.50029 0.0
C1694 C 0.00092 0.11243 0.49322 0.0
H1695 H 0.04183 0.1807 0.51567 0.0
H1696 H 0.03135 0.15547 0.51912 0.0
H1697 H 0.05402 0.16164 0.50954 0.0
H1698 H 0.04903 0.12721 0.49694 0.0
H1699 H 0.04572 0.0956 0.51004 0.0
H1700 H 0.54019 0.26336 0.18873 0.0
H1701 H 0.57041 0.26028 0.20326 0.0
H1702 H 0.5992 0.28708 0.15788 0.0
H1703 H 0.56913 0.29048 0.14335 0.0
H1704 H 0.59421 0.23861 0.18682 0.0
H1705 H 0.63149 0.31736 0.20459 0.0
H1706 H 0.60625 0.30963 0.19892 0.0
H1707 H 0.62213 0.31108 0.18042 0.0
C1708 C 0.55298 0.26892 0.18198 0.0
C1709 C 0.55221 0.27719 0.16486 0.0
C1710 C 0.57023 0.26708 0.19029 0.0
C1711 C 0.58706 0.27357 0.18173 0.0
C1712 C 0.58643 0.28228 0.1649 0.0
H1713 H 0.70417 0.26988 0.20505 0.0
H1714 H 0.67363 0.27164 0.19004 0.0
C1715 C 0.56919 0.28416 0.15659 0.0
C1716 C 0.60509 0.27016 0.18978 0.0
H1717 H 0.65003 0.29363 0.20696 0.0
C1718 C 0.6064 0.25064 0.19133 0.0
C1719 C 0.62096 0.28587 0.19558 0.0
C1720 C 0.62016 0.30718 0.19498 0.0
C1721 C 0.62328 0.24638 0.19824 0.0
C1722 C 0.63917 0.26209 0.20396 0.0
C1723 C 0.63785 0.28161 0.20244 0.0
C1724 C 0.65725 0.25875 0.21194 0.0
C1725 C 0.6241 0.2251 0.19899 0.0
C1726 C 0.6581 0.25057 0.22905 0.0
C1727 C 0.67552 0.24948 0.23761 0.0
C1728 C 0.69234 0.25668 0.22924 0.0
C1729 C 0.6914 0.26415 0.21177 0.0
C1730 C 0.67399 0.26524 0.20322 0.0
H1731 H 0.61259 0.21483 0.18966 0.0
H1732 H 0.63791 0.22259 0.19481 0.0
H1733 H 0.62246 0.22141 0.21365 0.0
H1734 H 0.6454 0.24578 0.23618 0.0
H1735 H 0.67588 0.2438 0.25116 0.0
H1736 H 0.5206 0.8477 0.91259 0.0
H1737 H 0.51905 0.87784 0.93225 0.0
H1738 H 0.54876 0.85985 0.97878 0.0
H1739 H 0.55041 0.82954 0.95924 0.0
H1740 H 0.50184 0.87752 0.96925 0.0
H1741 H 0.57724 0.91875 0.97305 0.0
H1742 H 0.56699 0.89939 0.95426 0.0
H1743 H 0.57234 0.89322 0.97738 0.0
C1744 C 0.52698 0.85019 0.92694 0.0
C1745 C 0.53562 0.83619 0.93435 0.0
C1746 C 0.52604 0.8674 0.93814 0.0
C1747 C 0.53388 0.87104 0.95687 0.0
C1748 C 0.54281 0.85733 0.96427 0.0
H1749 H 0.5384 0.97407 0.03887 0.0
H1750 H 0.54223 0.94221 0.02383 0.0
C1751 C 0.54367 0.84002 0.9531 0.0
C1752 C 0.53186 0.88878 0.96882 0.0
H1753 H 0.55626 0.93416 0.98941 0.0
C1754 C 0.51373 0.88989 0.97375 0.0
C1755 C 0.54745 0.90471 0.97477 0.0
C1756 C 0.56714 0.90416 0.96957 0.0
C1757 C 0.51071 0.90672 0.98434 0.0
C1758 C 0.52619 0.923 0.98971 0.0
C1759 C 0.54443 0.92166 0.98522 0.0
C1760 C 0.52358 0.94193 0.99909 0.0
C1761 C 0.49098 0.90685 0.98973 0.0
C1762 C 0.51198 0.95232 0.99008 0.0
C1763 C 0.50969 0.97033 0.99866 0.0
C1764 C 0.51918 0.97841 0.01628 0.0
C1765 C 0.53087 0.96808 0.0253 0.0
C1766 C 0.53311 0.94997 0.01672 0.0
H1767 H 0.48228 0.89161 0.98985 0.0
H1768 H 0.49126 0.91518 0.00386 0.0
H1769 H 0.48393 0.91406 0.97922 0.0
H1770 H 0.50482 0.94659 0.97629 0.0
H1771 H 0.5005 0.97795 0.99148 0.0
H1772 H 0.93527 0.78692 0.65399 0.0
H1773 H 0.90948 0.79242 0.67286 0.0
H1774 H 0.93857 0.7784 0.72214 0.0
H1775 H 0.9636 0.77154 0.70297 0.0
H1776 H 0.90495 0.76006 0.72114 0.0
H1777 H 0.90217 0.83591 0.70858 0.0
H1778 H 0.89929 0.82051 0.68655 0.0
H1779 H 0.9212 0.82506 0.70116 0.0
C1780 C 0.93622 0.78529 0.66891 0.0
C1781 C 0.95137 0.77878 0.67703 0.0
C1782 C 0.92155 0.78862 0.67976 0.0
C1783 C 0.92213 0.78622 0.69911 0.0
C1784 C 0.93769 0.78037 0.7073 0.0
H1785 H 0.83324 0.81673 0.76724 0.0
H1786 H 0.86376 0.81733 0.75399 0.0
C1787 C 0.95203 0.77648 0.69634 0.0
C1788 C 0.90585 0.78801 0.71043 0.0
H1789 H 0.87408 0.81629 0.7198 0.0
C1790 C 0.89844 0.77256 0.72103 0.0
C1791 C 0.89741 0.80443 0.71074 0.0
C1792 C 0.9056 0.82249 0.70131 0.0
C1793 C 0.88262 0.77272 0.73134 0.0
C1794 C 0.87322 0.78829 0.73032 0.0
C1795 C 0.88101 0.80414 0.72034 0.0
C1796 C 0.85494 0.78795 0.73883 0.0
C1797 C 0.87636 0.75624 0.7434 0.0
C1798 C 0.83975 0.7714 0.73459 0.0
C1799 C 0.82255 0.77086 0.74247 0.0
C1800 C 0.8199 0.78712 0.75434 0.0
C1801 C 0.83491 0.80394 0.75823 0.0
C1802 C 0.85232 0.8043 0.75063 0.0
H1803 H 0.88849 0.75031 0.74828 0.0
H1804 H 0.86963 0.76125 0.75597 0.0
H1805 H 0.86603 0.74391 0.73489 0.0
H1806 H 0.84108 0.75891 0.72496 0.0
H1807 H 0.81116 0.75784 0.73884 0.0
H1808 H 0.11586 0.99743 0.84392 0.0
H1809 H 0.09763 0.99395 0.87172 0.0
H1810 H 0.05513 0.01836 0.8446 0.0
H1811 H 0.07374 0.02274 0.8173 0.0
H1812 H 0.06413 0.03619 0.87801 0.0
H1813 H 0.05155 0.95613 0.88405 0.0
H1814 H 0.07626 0.96731 0.88406 0.0
H1815 H 0.06065 0.96668 0.86343 0.0
C1816 C 0.10247 0.00174 0.84381 0.0
C1817 C 0.09625 0.01042 0.82848 0.0
C1818 C 0.09197 -0.00039 0.85967 0.0
C1819 C 0.07481 0.00564 0.86025 0.0
C1820 C 0.0683 0.0136 0.84457 0.0
H1821 H 0.99739 0.98673 0.95021 0.0
H1822 H 0.01272 0.98404 0.92056 0.0
C1823 C 0.07895 0.01609 0.82894 0.0
C1824 C 0.06446 0.00541 0.8777 0.0
H1825 H 0.04605 0.97655 0.91123 0.0
C1826 C 0.06004 0.02305 0.88513 0.0
C1827 C 0.05885 0.98827 0.88696 0.0
C1828 C 0.06189 0.96849 0.8791 0.0
C1829 C 0.0505 0.02414 0.90159 0.0
C1830 C 0.04585 0.00732 0.91144 0.0
C1831 C 0.04987 0.98953 0.90385 0.0
C1832 C 0.03699 0.00808 0.92971 0.0
C1833 C 0.04522 0.04329 0.90801 0.0
C1834 C 0.04571 0.02213 0.94485 0.0
C1835 C 0.03684 0.02391 0.96155 0.0
C1836 C 0.0193 0.01129 0.96374 0.0
C1837 C 0.0109 0.99667 0.9489 0.0
C1838 C 0.01967 0.99509 0.932 0.0
H1839 H 0.04411 0.05211 0.89607 0.0
H1840 H 0.03155 0.0406 0.9146 0.0
H1841 H 0.05638 0.05229 0.91855 0.0
H1842 H 0.05929 0.03196 0.94365 0.0
H1843 H 0.04363 0.03541 0.97266 0.0
H1844 H 0.71922 0.3417 0.54967 0.0
H1845 H 0.7143 0.3215 0.57578 0.0
H1846 H 0.73735 0.37333 0.61533 0.0
H1847 H 0.74138 0.3937 0.58934 0.0
H1848 H 0.74051 0.3146 0.59741 0.0
H1849 H 0.69493 0.3477 0.64342 0.0
H1850 H 0.69811 0.3538 0.61967 0.0
H1851 H 0.71488 0.36645 0.63895 0.0
C1852 C 0.7228 0.34883 0.56399 0.0
C1853 C 0.73071 0.36924 0.56752 0.0
C1854 C 0.71998 0.33729 0.57889 0.0
C1855 C 0.72526 0.34589 0.59757 0.0
C1856 C 0.73262 0.3664 0.60113 0.0
H1857 H 0.77535 0.29829 0.68622 0.0
H1858 H 0.7664 0.3107 0.65714 0.0
C1859 C 0.73507 0.37803 0.58625 0.0
C1860 C 0.72531 0.33321 0.61302 0.0
H1861 H 0.71555 0.33003 0.65889 0.0
C1862 C 0.73469 0.31774 0.61072 0.0
C1863 C 0.7174 0.33693 0.63027 0.0
C1864 C 0.70558 0.35199 0.63312 0.0
C1865 C 0.73734 0.3067 0.62554 0.0
C1866 C 0.7311 0.31177 0.64336 0.0
C1867 C 0.72069 0.32639 0.64533 0.0
C1868 C 0.73628 0.30306 0.66039 0.0
C1869 C 0.74693 0.28983 0.6219 0.0
C1870 C 0.7224 0.29513 0.67218 0.0
C1871 C 0.72757 0.28845 0.68904 0.0
C1872 C 0.74667 0.28951 0.69427 0.0
C1873 C 0.76051 0.29709 0.68234 0.0
C1874 C 0.75537 0.30404 0.66566 0.0
H1875 H 0.74418 0.28324 0.60692 0.0
H1876 H 0.76245 0.29548 0.62473 0.0
H1877 H 0.74209 0.27803 0.63105 0.0
H1878 H 0.7076 0.29438 0.66848 0.0
H1879 H 0.71665 0.28274 0.6981 0.0
H1880 H 0.43169 0.08839 0.33987 0.0
H1881 H 0.44694 0.09844 0.372 0.0
H1882 H 0.48273 0.05759 0.36206 0.0
H1883 H 0.46813 0.04799 0.33019 0.0
H1884 H 0.44713 0.07684 0.40027 0.0
H1885 H 0.52112 0.10491 0.38616 0.0
H1886 H 0.502 0.10134 0.36801 0.0
H1887 H 0.51267 0.08121 0.37275 0.0
C1888 C 0.44302 0.08181 0.34451 0.0
C1889 C 0.44875 0.06744 0.33248 0.0
C1890 C 0.45173 0.08759 0.36282 0.0
C1891 C 0.46633 0.07916 0.36928 0.0
C1892 C 0.47201 0.06487 0.35721 0.0
H1893 H 0.491 0.03022 0.46329 0.0
H1894 H 0.47714 0.04386 0.43742 0.0
C1895 C 0.46345 0.0592 0.33901 0.0
C1896 C 0.47451 0.08343 0.38911 0.0
H1897 H 0.51636 0.08769 0.41477 0.0
C1898 C 0.4623 0.0798 0.40356 0.0
C1899 C 0.49429 0.08804 0.39365 0.0
C1900 C 0.50821 0.09433 0.37929 0.0
C1901 C 0.46932 0.07837 0.42191 0.0
C1902 C 0.48893 0.07993 0.42565 0.0
C1903 C 0.50126 0.08589 0.41181 0.0
C1904 C 0.49654 0.07267 0.44255 0.0
C1905 C 0.4556 0.07447 0.43692 0.0
C1906 C 0.51251 0.08405 0.45369 0.0
C1907 C 0.52071 0.07607 0.46834 0.0
C1908 C 0.51303 0.05663 0.472 0.0
C1909 C 0.49705 0.04534 0.4609 0.0
C1910 C 0.48897 0.05323 0.44625 0.0
H1911 H 0.44349 0.08137 0.43441 0.0
H1912 H 0.4498 0.05831 0.43647 0.0
H1913 H 0.46257 0.08026 0.45122 0.0
H1914 H 0.51875 0.09898 0.45091 0.0
H1915 H 0.53304 0.08505 0.47675 0.0
H1916 H 0.76023 0.71421 0.05115 0.0
H1917 H 0.75967 0.73093 0.08276 0.0
H1918 H 0.78971 0.69123 0.10633 0.0
H1919 H 0.79003 0.67417 0.07486 0.0
H1920 H 0.75829 0.69354 0.1244 0.0
H1921 H 0.8004 0.76894 0.11791 0.0
H1922 H 0.7811 0.76027 0.10013 0.0
H1923 H 0.8003 0.74802 0.1009 0.0
C1924 C 0.76703 0.70924 0.063 0.0
C1925 C 0.77516 0.69281 0.06043 0.0
C1926 C 0.76675 0.71888 0.08109 0.0
C1927 C 0.77478 0.71245 0.09693 0.0
C1928 C 0.78343 0.69646 0.09433 0.0
H1929 H 0.79572 0.76962 0.21165 0.0
H1930 H 0.79765 0.75588 0.17928 0.0
C1931 C 0.78364 0.68675 0.07629 0.0
C1932 C 0.77308 0.72142 0.11632 0.0
H1933 H 0.78373 0.76483 0.14551 0.0
C1934 C 0.7639 0.70912 0.12904 0.0
C1935 C 0.78051 0.74172 0.12239 0.0
C1936 C 0.79129 0.75549 0.1097 0.0
C1937 C 0.76188 0.71655 0.14761 0.0
C1938 C 0.76888 0.73695 0.15355 0.0
C1939 C 0.77817 0.74924 0.14088 0.0
C1940 C 0.7674 0.74565 0.17309 0.0
C1941 C 0.75267 0.70239 0.16084 0.0
C1942 C 0.74971 0.74472 0.18034 0.0
C1943 C 0.74853 0.75249 0.19895 0.0
C1944 C 0.76503 0.7615 0.21062 0.0
C1945 C 0.7827 0.76274 0.20314 0.0
C1946 C 0.78386 0.75492 0.18459 0.0
H1947 H 0.7525 0.68682 0.15566 0.0
H1948 H 0.76011 0.70598 0.17518 0.0
H1949 H 0.73781 0.70352 0.16195 0.0
H1950 H 0.73681 0.73799 0.17159 0.0
H1951 H 0.73469 0.75141 0.20417 0.0
H1952 H 0.09156 0.02472 0.73737 0.0
H1953 H 0.07946 0.03025 0.70626 0.0
H1954 H 0.12514 0.01005 0.68103 0.0
H1955 H 0.13734 0.00434 0.71205 0.0
H1956 H 0.10037 0.0565 0.68271 0.0
H1957 H 0.07774 0.97966 0.6471 0.0
H1958 H 0.08163 0.98519 0.67244 0.0
H1959 H 0.10139 0.98639 0.65825 0.0
C1960 C 0.09888 0.0211 0.72519 0.0
C1961 C 0.11545 0.01408 0.72725 0.0
C1962 C 0.09197 0.02437 0.70742 0.0
C1963 C 0.10135 0.02049 0.69135 0.0
C1964 C 0.11754 0.0129 0.69323 0.0
H1965 H 0.07959 0.03292 0.57262 0.0
H1966 H 0.09467 0.02912 0.6031 0.0
C1967 C 0.12451 0.00968 0.711 0.0
C1968 C 0.09482 0.02548 0.67281 0.0
H1969 H 0.07719 0.00543 0.62815 0.0
C1970 C 0.09526 0.04534 0.67077 0.0
C1971 C 0.08832 0.01092 0.65725 0.0
C1972 C 0.08706 0.98931 0.65881 0.0
C1973 C 0.08947 0.05107 0.65352 0.0
C1974 C 0.08271 0.03647 0.63801 0.0
C1975 C 0.08244 0.01662 0.64002 0.0
C1976 C 0.07514 0.04124 0.61975 0.0
C1977 C 0.09094 0.07272 0.652 0.0
C1978 C 0.05941 0.04971 0.61899 0.0
C1979 C 0.05088 0.05204 0.6016 0.0
C1980 C 0.05781 0.04573 0.58468 0.0
C1981 C 0.07401 0.038 0.58546 0.0
C1982 C 0.08257 0.03573 0.60285 0.0
H1983 H 0.10152 0.08221 0.66283 0.0
H1984 H 0.0949 0.07658 0.63782 0.0
H1985 H 0.07703 0.07616 0.65431 0.0
H1986 H 0.05317 0.0537 0.6318 0.0
H1987 H 0.03829 0.05786 0.60141 0.0
H1988 H 0.73086 0.36925 0.45134 0.0
H1989 H 0.72997 0.34918 0.42105 0.0
H1990 H 0.75472 0.30798 0.44896 0.0
H1991 H 0.75608 0.32815 0.47911 0.0
H1992 H 0.77349 0.31959 0.41937 0.0
H1993 H 0.6968 0.29675 0.39786 0.0
H1994 H 0.70483 0.32301 0.40352 0.0
H1995 H 0.70591 0.30704 0.42163 0.0
C1996 C 0.73582 0.35575 0.45104 0.0
C1997 C 0.74362 0.35032 0.46757 0.0
C1998 C 0.7352 0.34422 0.43375 0.0
C1999 C 0.74208 0.32696 0.4328 0.0
C2000 C 0.7493 0.32122 0.44939 0.0
H2001 H 0.73221 0.25162 0.32517 0.0
H2002 H 0.73106 0.26192 0.35889 0.0
C2003 C 0.75007 0.33278 0.46661 0.0
C2004 C 0.74335 0.31585 0.41435 0.0
H2005 H 0.71771 0.2937 0.37342 0.0
C2006 C 0.76124 0.3137 0.40942 0.0
C2007 C 0.72734 0.30787 0.40151 0.0
C2008 C 0.70761 0.30859 0.40646 0.0
C2009 C 0.76368 0.30455 0.39168 0.0
C2010 C 0.74787 0.29775 0.37839 0.0
C2011 C 0.72984 0.29908 0.3836 0.0
C2012 C 0.74991 0.29063 0.3586 0.0
C2013 C 0.78321 0.3024 0.38729 0.0
C2014 C 0.761 0.30332 0.3474 0.0
C2015 C 0.76171 0.29747 0.32828 0.0
C2016 C 0.7512 0.27891 0.31998 0.0
C2017 C 0.74048 0.26599 0.33127 0.0
C2018 C 0.73977 0.27186 0.35047 0.0
H2019 H 0.79211 0.30216 0.40037 0.0
H2020 H 0.78258 0.28869 0.37775 0.0
H2021 H 0.79025 0.31522 0.38023 0.0
H2022 H 0.7686 0.31803 0.35329 0.0
H2023 H 0.77 0.30779 0.31988 0.0
H2024 H 0.42153 0.07591 0.21268 0.0
H2025 H 0.44025 0.07991 0.18534 0.0
H2026 H 0.48824 0.07002 0.21778 0.0
H2027 H 0.4697 0.06591 0.24521 0.0
H2028 H 0.47942 0.10492 0.17979 0.0
H2029 H 0.47162 0.02333 0.17316 0.0
H2030 H 0.45661 0.03541 0.18701 0.0
H2031 H 0.48051 0.03692 0.19578 0.0
C2032 C 0.43616 0.07493 0.21413 0.0
C2033 C 0.44403 0.07025 0.23103 0.0
C2034 C 0.44684 0.07732 0.19852 0.0
C2035 C 0.46549 0.07506 0.19959 0.0
C2036 C 0.47379 0.07169 0.21674 0.0
H2037 H 0.52912 0.04579 0.10602 0.0
H2038 H 0.52124 0.05533 0.13795 0.0
C2039 C 0.46315 0.0693 0.23236 0.0
C2040 C 0.47541 0.07385 0.18224 0.0
H2041 H 0.48787 0.04051 0.15028 0.0
C2042 C 0.48145 0.09092 0.17335 0.0
C2043 C 0.47798 0.05552 0.17401 0.0
C2044 C 0.47127 0.03667 0.18284 0.0
C2045 C 0.49 0.09008 0.15623 0.0
C2046 C 0.49208 0.07161 0.14771 0.0
C2047 C 0.48636 0.05467 0.15689 0.0
C2048 C 0.49896 0.06902 0.12874 0.0
C2049 C 0.49675 0.10894 0.14749 0.0
C2050 C 0.48926 0.07385 0.11301 0.0
C2051 C 0.49385 0.06855 0.09481 0.0
C2052 C 0.50796 0.05803 0.09208 0.0
C2053 C 0.51812 0.05382 0.1078 0.0
C2054 C 0.51366 0.0593 0.126 0.0
H2055 H 0.50004 0.12201 0.15834 0.0
H2056 H 0.50954 0.10859 0.1398 0.0
H2057 H 0.4854 0.11085 0.13732 0.0
H2058 H 0.47755 0.08087 0.11475 0.0
H2059 H 0.4858 0.07192 0.08287 0.0
H2060 H 0.74645 0.71187 0.9586 0.0
H2061 H 0.75149 0.72748 0.92969 0.0
H2062 H 0.7997 0.70233 0.92109 0.0
H2063 H 0.79444 0.68618 0.94995 0.0
H2064 H 0.78119 0.75445 0.92012 0.0
H2065 H 0.76934 0.68571 0.87045 0.0
H2066 H 0.76363 0.68558 0.8947 0.0
H2067 H 0.78773 0.68816 0.88895 0.0
C2068 C 0.75813 0.7096 0.95059 0.0
C2069 C 0.76999 0.69768 0.95657 0.0
C2070 C 0.76101 0.71858 0.93403 0.0
C2071 C 0.77581 0.71588 0.92302 0.0
C2072 C 0.78793 0.70428 0.92911 0.0
H2073 H 0.80552 0.7916 0.83244 0.0
H2074 H 0.80757 0.77468 0.86071 0.0
C2075 C 0.78499 0.69517 0.94568 0.0
C2076 C 0.77842 0.72547 0.90534 0.0
H2077 H 0.77789 0.7159 0.8574 0.0
C2078 C 0.78058 0.74604 0.90641 0.0
C2079 C 0.77742 0.71446 0.88742 0.0
C2080 C 0.77424 0.69224 0.88519 0.0
C2081 C 0.78145 0.75584 0.89013 0.0
C2082 C 0.78059 0.74486 0.87222 0.0
C2083 C 0.77872 0.72433 0.87114 0.0
C2084 C 0.78029 0.75421 0.85439 0.0
C2085 C 0.78245 0.77776 0.89224 0.0
C2086 C 0.76468 0.74782 0.84102 0.0
C2087 C 0.76359 0.75731 0.8248 0.0
C2088 C 0.77812 0.77338 0.82159 0.0
C2089 C 0.79404 0.77937 0.83464 0.0
C2090 C 0.79518 0.76978 0.85084 0.0
H2091 H 0.77831 0.78296 0.90625 0.0
H2092 H 0.79719 0.78588 0.89086 0.0
H2093 H 0.77312 0.78163 0.88112 0.0
H2094 H 0.75305 0.7358 0.84339 0.0
H2095 H 0.75113 0.75235 0.815 0.0
H2096 H 0.82509 0.1075 0.06048 0.0
H2097 H 0.84798 0.08811 0.05214 0.0
H2098 H 0.85389 0.11291 0.99927 0.0
H2099 H 0.83092 0.13259 0.00754 0.0
H2100 H 0.84572 0.05986 0.01892 0.0
H2101 H 0.90875 0.12315 0.02493 0.0
H2102 H 0.88706 0.12515 0.03521 0.0
H2103 H 0.88845 0.1248 0.01019 0.0
C2104 C 0.83129 0.10895 0.0471 0.0
C2105 C 0.82626 0.12166 0.0347 0.0
C2106 C 0.84429 0.09777 0.04233 0.0
C2107 C 0.8526 0.09914 0.02514 0.0
C2108 C 0.84769 0.11181 0.01268 0.0
H2109 H 0.9283 0.02373 0.98701 0.0
H2110 H 0.90133 0.03946 0.98749 0.0
C2111 C 0.83461 0.12302 0.01743 0.0
C2112 C 0.86658 0.08738 0.02062 0.0
H2113 H 0.91389 0.0913 0.01817 0.0
C2114 C 0.8606 0.06668 0.01848 0.0
C2115 C 0.88594 0.09642 0.0202 0.0
C2116 C 0.89307 0.1186 0.02285 0.0
C2117 C 0.87365 0.05474 0.01645 0.0
C2118 C 0.89304 0.06381 0.01655 0.0
C2119 C 0.89894 0.08448 0.0181 0.0
C2120 C 0.9077 0.05231 0.0166 0.0
C2121 C 0.86681 0.03258 0.01504 0.0
C2122 C 0.91984 0.05406 0.0329 0.0
C2123 C 0.9351 0.04512 0.03268 0.0
C2124 C 0.93852 0.03437 0.0161 0.0
C2125 C 0.92587 0.03186 -1e-05 0.0
C2126 C 0.91053 0.04083 0.00023 0.0
H2127 H 0.85148 0.02795 0.01706 0.0
H2128 H 0.86932 0.02595 0.00092 0.0
H2129 H 0.87488 0.02658 0.02575 0.0
H2130 H 0.91782 0.06286 0.04565 0.0
H2131 H 0.94466 0.04729 0.04528 0.0
H2132 H 0.30057 0.45938 0.05645 0.0
H2133 H 0.33147 0.48127 0.05345 0.0
H2134 H 0.3472 0.43471 0.01835 0.0
H2135 H 0.31652 0.41275 0.02122 0.0
H2136 H 0.36805 0.47366 0.06358 0.0
H2137 H 0.35838 0.48312 0.98774 0.0
H2138 H 0.33877 0.47474 0.00166 0.0
H2139 H 0.35249 0.45792 0.99288 0.0
C2140 C 0.31058 0.45381 0.04804 0.0
C2141 C 0.30604 0.4343 0.03906 0.0
C2142 C 0.3282 0.46635 0.04634 0.0
C2143 C 0.34145 0.45968 0.03543 0.0
C2144 C 0.33701 0.44024 0.02654 0.0
H2145 H 0.45612 0.49433 0.00895 0.0
H2146 H 0.42228 0.48029 0.00993 0.0
C2147 C 0.3195 0.42767 0.02833 0.0
C2148 C 0.3603 0.47265 0.03396 0.0
H2149 H 0.38988 0.49325 0.00216 0.0
C2150 C 0.37279 0.47822 0.05023 0.0
C2151 C 0.36637 0.47846 0.01648 0.0
C2152 C 0.35327 0.47342 0.9987 0.0
C2153 C 0.39154 0.4887 0.04936 0.0
C2154 C 0.39777 0.49418 0.03179 0.0
C2155 C 0.38507 0.48908 0.01561 0.0
C2156 C 0.41774 0.50397 0.02974 0.0
C2157 C 0.40473 0.49296 0.0671 0.0
C2158 C 0.42627 0.52232 0.03999 0.0
C2159 C 0.44565 0.5303 0.03955 0.0
C2160 C 0.45673 0.52015 0.0287 0.0
C2161 C 0.44793 0.50241 0.01753 0.0
C2162 C 0.4286 0.49439 0.01807 0.0
H2163 H 0.39897 0.48382 0.07825 0.0
H2164 H 0.41877 0.49018 0.06412 0.0
H2165 H 0.40679 0.50872 0.07275 0.0
H2166 H 0.41805 0.5302 0.04871 0.0
H2167 H 0.45206 0.5441 0.04815 0.0
H2168 H 0.34523 0.5876 0.76644 0.0
H2169 H 0.32662 0.61239 0.77267 0.0
H2170 H 0.32336 0.61976 0.71338 0.0
H2171 H 0.34077 0.59415 0.70703 0.0
H2172 H 0.3327 0.64871 0.7701 0.0
H2173 H 0.26985 0.61558 0.72138 0.0
H2174 H 0.28774 0.60229 0.72639 0.0
H2175 H 0.29044 0.6189 0.70839 0.0
C2176 C 0.34035 0.59442 0.75475 0.0
C2177 C 0.34428 0.58883 0.73624 0.0
C2178 C 0.3297 0.60857 0.7583 0.0
C2179 C 0.32305 0.61767 0.74344 0.0
C2180 C 0.32752 0.61245 0.72502 0.0
H2181 H 0.30293 0.73407 0.75513 0.0
H2182 H 0.31496 0.70425 0.75205 0.0
C2183 C 0.33771 0.59795 0.72142 0.0
C2184 C 0.31248 0.63344 0.74727 0.0
H2185 H 0.27521 0.65082 0.73055 0.0
C2186 C 0.31996 0.64895 0.76161 0.0
C2187 C 0.2955 0.63368 0.73665 0.0
C2188 C 0.28533 0.61657 0.72252 0.0
C2189 C 0.31153 0.66502 0.76499 0.0
C2190 C 0.29568 0.66621 0.75309 0.0
C2191 C 0.28761 0.65024 0.73941 0.0
C2192 C 0.28788 0.68423 0.75409 0.0
C2193 C 0.3197 0.68041 0.78146 0.0
C2194 C 0.26837 0.68298 0.75499 0.0
C2195 C 0.26131 0.70013 0.75609 0.0
C2196 C 0.27371 0.71878 0.7566 0.0
C2197 C 0.29309 0.71992 0.75519 0.0
C2198 C 0.30002 0.70285 0.75361 0.0
H2199 H 0.3262 0.67382 0.79289 0.0
H2200 H 0.33103 0.69197 0.77673 0.0
H2201 H 0.30877 0.68749 0.78741 0.0
H2202 H 0.25864 0.66878 0.75512 0.0
H2203 H 0.2463 0.69885 0.75709 0.0
H2204 H 0.21965 0.65447 0.52113 0.0
H2205 H 0.18751 0.63403 0.51924 0.0
H2206 H 0.20895 0.58605 0.53846 0.0
H2207 H 0.24114 0.60671 0.54109 0.0
H2208 H 0.17114 0.59989 0.49877 0.0
H2209 H 0.1696 0.59021 0.57493 0.0
H2210 H 0.18833 0.60751 0.56587 0.0
H2211 H 0.1882 0.58163 0.56377 0.0
C2212 C 0.21753 0.63958 0.525 0.0
C2213 C 0.23289 0.63225 0.53143 0.0
C2214 C 0.19916 0.62791 0.52388 0.0
C2215 C 0.19581 0.60864 0.52902 0.0
C2216 C 0.21117 0.60106 0.53492 0.0
H2217 H 0.08276 0.53033 0.50202 0.0
H2218 H 0.1169 0.54403 0.50299 0.0
C2219 C 0.22955 0.61285 0.53632 0.0
C2220 C 0.17617 0.59664 0.52814 0.0
H2221 H 0.14288 0.57286 0.55499 0.0
C2222 C 0.16495 0.59393 0.51104 0.0
C2223 C 0.16812 0.58903 0.54423 0.0
C2224 C 0.17911 0.59237 0.56328 0.0
C2225 C 0.14577 0.5842 0.50967 0.0
C2226 C 0.13777 0.57642 0.52571 0.0
C2227 C 0.1491 0.57873 0.54269 0.0
C2228 C 0.11736 0.56719 0.52563 0.0
C2229 C 0.13412 0.58317 0.49129 0.0
C2230 C 0.10646 0.57514 0.53855 0.0
C2231 C 0.08709 0.56712 0.53828 0.0
C2232 C 0.07822 0.5511 0.52496 0.0
C2233 C 0.08919 0.54287 0.51226 0.0
C2234 C 0.10867 0.55073 0.51273 0.0
H2235 H 0.14115 0.59414 0.48215 0.0
H2236 H 0.13218 0.56825 0.48345 0.0
H2237 H 0.11994 0.58582 0.49382 0.0
H2238 H 0.11289 0.58781 0.54865 0.0
H2239 H 0.079 0.57379 0.54823 0.0
H2240 H 0.6527 0.95851 0.77741 0.0
H2241 H 0.67576 0.94136 0.79 0.0
H2242 H 0.7036 0.94503 0.73826 0.0
H2243 H 0.681 0.96236 0.72578 0.0
H2244 H 0.6832 0.90642 0.77629 0.0
H2245 H 0.74779 0.96596 0.77733 0.0
H2246 H 0.72433 0.97038 0.77476 0.0
H2247 H 0.7349 0.96113 0.75459 0.0
C2248 C 0.66377 0.95566 0.76875 0.0
C2249 C 0.6651 0.96186 0.75064 0.0
C2250 C 0.67696 0.94597 0.77599 0.0
C2251 C 0.69168 0.94242 0.76525 0.0
C2252 C 0.69273 0.9482 0.74703 0.0
H2253 H 0.76367 0.86592 0.7513 0.0
H2254 H 0.74735 0.89291 0.75146 0.0
C2255 C 0.67966 0.95792 0.73983 0.0
C2256 C 0.70534 0.93157 0.77241 0.0
H2257 H 0.75253 0.93267 0.77668 0.0
C2258 C 0.69836 0.9123 0.77683 0.0
C2259 C 0.72512 0.93936 0.77321 0.0
C2260 C 0.73346 0.96043 0.76991 0.0
C2261 C 0.71063 0.90012 0.78074 0.0
C2262 C 0.73033 0.90752 0.78032 0.0
C2263 C 0.73738 0.92709 0.77689 0.0
C2264 C 0.74344 0.89432 0.78133 0.0
C2265 C 0.70243 0.87905 0.7842 0.0
C2266 C 0.74734 0.88691 0.79825 0.0
C2267 C 0.75679 0.87159 0.79822 0.0
C2268 C 0.76226 0.86346 0.78122 0.0
C2269 C 0.75958 0.87193 0.76457 0.0
C2270 C 0.75027 0.88732 0.76465 0.0
H2271 H 0.68673 0.8751 0.78235 0.0
H2272 H 0.70792 0.8687 0.77442 0.0
H2273 H 0.70685 0.87693 0.79882 0.0
H2274 H 0.74221 0.89225 0.81125 0.0
H2275 H 0.75867 0.86527 0.81124 0.0
H2276 H 0.71714 0.96276 0.57036 0.0
H2277 H 0.69088 0.97874 0.56623 0.0
H2278 H 0.67111 0.94086 0.51431 0.0
H2279 H 0.69731 0.92454 0.51846 0.0
H2280 H 0.68156 0.99915 0.53713 0.0
H2281 H 0.62392 0.93364 0.54401 0.0
H2282 H 0.64843 0.9346 0.55059 0.0
H2283 H 0.6396 0.9298 0.52618 0.0
C2284 C 0.70721 0.95776 0.55806 0.0
C2285 C 0.70929 0.94228 0.54478 0.0
C2286 C 0.69221 0.96696 0.55571 0.0
C2287 C 0.67888 0.96084 0.5401 0.0
C2288 C 0.68103 0.94558 0.52666 0.0
H2289 H 0.59686 0.02491 0.50151 0.0
H2290 H 0.62417 0.01025 0.50544 0.0
C2291 C 0.69606 0.93634 0.52899 0.0
C2292 C 0.66289 0.97064 0.53794 0.0
H2293 H 0.61468 0.9622 0.53553 0.0
C2294 C 0.66693 0.99108 0.53677 0.0
C2295 C 0.64382 0.96015 0.53774 0.0
C2296 C 0.6386 0.93837 0.53987 0.0
C2297 C 0.65244 0.00127 0.53523 0.0
C2298 C 0.63335 0.99069 0.53457 0.0
C2299 C 0.62931 0.97028 0.53592 0.0
C2300 C 0.61733 0.00047 0.53258 0.0
C2301 C 0.6577 0.02334 0.53471 0.0
C2302 C 0.60429 -0.00028 0.54643 0.0
C2303 C 0.58865 0.00804 0.54417 0.0
C2304 C 0.58571 0.01716 0.52797 0.0
C2305 C 0.59888 0.01813 0.51423 0.0
C2306 C 0.61452 0.00981 0.51649 0.0
H2307 H 0.67257 0.02986 0.54032 0.0
H2308 H 0.65621 0.02657 0.51988 0.0
H2309 H 0.64825 0.0307 0.543 0.0
H2310 H 0.60614 0.99253 0.55892 0.0
H2311 H 0.57866 0.00697 0.55494 0.0
H2312 H 0.3271 0.49239 0.72341 0.0
H2313 H 0.30882 0.45851 0.72459 0.0
H2314 H 0.36019 0.44052 0.73893 0.0
H2315 H 0.37854 0.47413 0.73777 0.0
H2316 H 0.33352 0.41386 0.71037 0.0
H2317 H 0.30169 0.43474 0.77628 0.0
H2318 H 0.29956 0.44894 0.75693 0.0
H2319 H 0.32245 0.4503 0.76838 0.0
C2320 C 0.33451 0.48118 0.72663 0.0
C2321 C 0.35426 0.486 0.73065 0.0
C2322 C 0.32405 0.46188 0.72736 0.0
C2323 C 0.33319 0.44714 0.73204 0.0
C2324 C 0.35291 0.45173 0.73534 0.0
H2325 H 0.29502 0.33581 0.77567 0.0
H2326 H 0.31163 0.36868 0.76888 0.0
C2327 C 0.36335 0.47098 0.73473 0.0
C2328 C 0.32228 0.42707 0.73433 0.0
H2329 H 0.29296 0.40129 0.76353 0.0
C2330 C 0.32452 0.41108 0.72188 0.0
C2331 C 0.31081 0.42357 0.74955 0.0
C2332 C 0.3085 0.44022 0.76368 0.0
C2333 C 0.31553 0.39158 0.72427 0.0
C2334 C 0.30403 0.38811 0.73945 0.0
C2335 C 0.30177 0.4041 0.75187 0.0
C2336 C 0.29452 0.36794 0.74297 0.0
C2337 C 0.31875 0.37478 0.71088 0.0
C2338 C 0.27945 0.35674 0.73061 0.0
C2339 C 0.26991 0.33803 0.73449 0.0
C2340 C 0.27533 0.33029 0.75077 0.0
C2341 C 0.29059 0.34143 0.763 0.0
C2342 C 0.30005 0.36018 0.75917 0.0
H2343 H 0.33051 0.3797 0.7019 0.0
H2344 H 0.32194 0.3629 0.71882 0.0
H2345 H 0.30568 0.36839 0.70151 0.0
H2346 H 0.27487 0.36261 0.71815 0.0
H2347 H 0.25818 0.32972 0.72485 0.0
H2348 H 0.16621 0.55628 0.27011 0.0
H2349 H 0.18242 0.59108 0.27492 0.0
H2350 H 0.12923 0.60738 0.26553 0.0
H2351 H 0.11271 0.5723 0.26107 0.0
H2352 H 0.18231 0.61488 0.24683 0.0
H2353 H 0.15516 0.64615 0.31139 0.0
H2354 H 0.15267 0.61993 0.30545 0.0
H2355 H 0.13737 0.6325 0.29355 0.0
C2356 C 0.15788 0.56725 0.26935 0.0
C2357 C 0.13821 0.56159 0.26503 0.0
C2358 C 0.16717 0.58712 0.27215 0.0
C2359 C 0.15703 0.60178 0.27062 0.0
C2360 C 0.13727 0.59628 0.26707 0.0
H2361 H 0.20963 0.71812 0.242 0.0
H2362 H 0.18921 0.68545 0.243 0.0
C2363 C 0.12788 0.57627 0.26444 0.0
C2364 C 0.16757 0.62252 0.27077 0.0
H2365 H 0.17488 0.66889 0.29422 0.0
C2366 C 0.18068 0.62669 0.2572 0.0
C2367 C 0.16547 0.63781 0.28439 0.0
C2368 C 0.15203 0.63393 0.29964 0.0
C2369 C 0.19188 0.64574 0.25691 0.0
C2370 C 0.18958 0.66113 0.2703 0.0
C2371 C 0.17647 0.65702 0.28391 0.0
C2372 C 0.20095 0.68151 0.27044 0.0
C2373 C 0.20639 0.64912 0.24253 0.0
C2374 C 0.21395 0.69029 0.28579 0.0
C2375 C 0.22565 0.70904 0.28532 0.0
C2376 C 0.22448 0.71927 0.26947 0.0
C2377 C 0.21108 0.71057 0.25433 0.0
C2378 C 0.19937 0.6919 0.25486 0.0
H2379 H 0.20956 0.63506 0.2365 0.0
H2380 H 0.20085 0.65601 0.23078 0.0
H2381 H 0.21978 0.65922 0.24888 0.0
H2382 H 0.21533 0.68245 0.29794 0.0
H2383 H 0.23575 0.71536 0.29725 0.0
H2384 H 0.5338 0.73491 0.44371 0.0
H2385 H 0.53286 0.70592 0.46041 0.0
H2386 H 0.48419 0.67369 0.42412 0.0
H2387 H 0.48508 0.70267 0.40716 0.0
H2388 H 0.5036 0.68357 0.47961 0.0
H2389 H 0.52355 0.63937 0.41822 0.0
H2390 H 0.52617 0.66576 0.41939 0.0
H2391 H 0.50327 0.64939 0.41379 0.0
C2392 C 0.52281 0.7217 0.43931 0.0
C2393 C 0.50959 0.72104 0.424 0.0
C2394 C 0.52229 0.70517 0.44891 0.0
C2395 C 0.50863 0.68761 0.44333 0.0
C2396 C 0.49502 0.68704 0.42845 0.0
H2397 H 0.48362 0.58308 0.50226 0.0
H2398 H 0.48285 0.61358 0.48867 0.0
C2399 C 0.49549 0.70362 0.41884 0.0
C2400 C 0.50907 0.66982 0.45283 0.0
H2401 H 0.51672 0.62336 0.44548 0.0
C2402 C 0.50642 0.67037 0.47217 0.0
C2403 C 0.51305 0.65278 0.44311 0.0
C2404 C 0.51684 0.65173 0.42252 0.0
C2405 C 0.50746 0.6542 0.48205 0.0
C2406 C 0.51108 0.63702 0.47224 0.0
C2407 C 0.51388 0.63655 0.45293 0.0
C2408 C 0.51197 0.61928 0.48167 0.0
C2409 C 0.50504 0.65576 0.50294 0.0
C2410 C 0.5286 0.61231 0.48217 0.0
C2411 C 0.5291 0.5948 0.48988 0.0
C2412 C 0.51291 0.58385 0.49708 0.0
C2413 C 0.49638 0.59112 0.49688 0.0
C2414 C 0.49591 0.60864 0.4892 0.0
H2415 H 0.50708 0.67137 0.50916 0.0
H2416 H 0.49051 0.64778 0.5053 0.0
H2417 H 0.51518 0.64893 0.51052 0.0
H2418 H 0.54112 0.6203 0.47636 0.0
H2419 H 0.54204 0.58963 0.48975 0.0
H2420 H 0.60065 0.3344 0.678 0.0
H2421 H 0.63077 0.33765 0.69646 0.0
H2422 H 0.60465 0.29031 0.72762 0.0
H2423 H 0.57445 0.28758 0.70989 0.0
H2424 H 0.62869 0.31803 0.75031 0.0
H2425 H 0.66379 0.29988 0.68592 0.0
H2426 H 0.65494 0.32181 0.68583 0.0
H2427 H 0.63871 0.29816 0.68549 0.0
C2428 C 0.60129 0.32487 0.68896 0.0
C2429 C 0.58519 0.3106 0.69234 0.0
C2430 C 0.61856 0.32663 0.69939 0.0
C2431 C 0.62012 0.31386 0.71308 0.0
C2432 C 0.60384 0.30027 0.71707 0.0
H2433 H 0.71231 0.26734 0.74962 0.0
H2434 H 0.68485 0.27604 0.73467 0.0
C2435 C 0.58655 0.29872 0.70689 0.0
C2436 C 0.63871 0.31379 0.72275 0.0
H2437 H 0.6822 0.30542 0.7148 0.0
C2438 C 0.64045 0.31541 0.74256 0.0
C2439 C 0.654 0.3102 0.7126 0.0
C2440 C 0.65278 0.30723 0.6913 0.0
C2441 C 0.65675 0.31282 0.75249 0.0
C2442 C 0.67199 0.30916 0.74233 0.0
C2443 C 0.67053 0.3083 0.72257 0.0
C2444 C 0.68885 0.30433 0.75165 0.0
C2445 C 0.65703 0.31302 0.77365 0.0
C2446 C 0.70035 0.31736 0.76614 0.0
C2447 C 0.71597 0.31224 0.77491 0.0
C2448 C 0.72051 0.29423 0.76901 0.0
C2449 C 0.70917 0.28138 0.75436 0.0
C2450 C 0.69349 0.28635 0.7458 0.0
H2451 H 0.64261 0.31116 0.77864 0.0
H2452 H 0.66333 0.3011 0.77842 0.0
H2453 H 0.6657 0.32741 0.78046 0.0
H2454 H 0.69734 0.33151 0.77059 0.0
H2455 H 0.72464 0.32247 0.78607 0.0
H2456 H 0.98335 0.30742 0.9446 0.0
H2457 H 0.98516 0.34111 0.95866 0.0
H2458 H 0.01383 0.36391 0.91143 0.0
H2459 H 0.01271 0.33009 0.8976 0.0
H2460 H 0.02937 0.38525 0.94327 0.0
H2461 H 0.95191 0.37587 0.94279 0.0
H2462 H 0.95979 0.35817 0.95576 0.0
H2463 H 0.96253 0.35766 0.93081 0.0
C2464 C 0.99012 0.31961 0.93723 0.0
C2465 C 0.99777 0.31612 0.91992 0.0
C2466 C 0.99098 0.33887 0.9452 0.0
C2467 C 0.99909 0.35505 0.93583 0.0
C2468 C 0.0073 0.35164 0.91882 0.0
H2469 H 0.98179 0.47332 0.96923 0.0
H2470 H 0.98042 0.44057 0.95258 0.0
C2471 C 0.00671 0.33233 0.91096 0.0
C2472 C 0.99919 0.37549 0.94395 0.0
H2473 H 0.97077 0.40437 0.9619 0.0
C2474 C 0.01653 0.38948 0.94719 0.0
C2475 C 0.98239 0.38119 0.94869 0.0
C2476 C 0.9631 0.36749 0.94413 0.0
C2477 C 0.01762 0.40877 0.95559 0.0
C2478 C 0.00099 0.41404 0.9615 0.0
C2479 C 0.98357 0.40026 0.95768 0.0
C2480 C 0.00139 0.43367 0.97185 0.0
C2481 C 0.03659 0.42334 0.95776 0.0
C2482 C 0.01317 0.44045 0.98851 0.0
C2483 C 0.01415 0.45919 0.99786 0.0
C2484 C 0.003 0.47138 0.99101 0.0
C2485 C 0.99053 0.46425 0.97485 0.0
C2486 C 0.98978 0.44557 0.9653 0.0
H2487 H 0.04609 0.41928 0.94717 0.0
H2488 H 0.03507 0.43856 0.95622 0.0
H2489 H 0.04353 0.42326 0.97196 0.0
H2490 H 0.02174 0.43128 0.99425 0.0
H2491 H 0.02369 0.46415 0.01046 0.0
H2492 H 0.97579 0.81911 0.17717 0.0
H2493 H 0.94808 0.82542 0.19257 0.0
H2494 H 0.95104 0.77989 0.22838 0.0
H2495 H 0.97871 0.77365 0.21331 0.0
H2496 H 0.91345 0.79902 0.19448 0.0
H2497 H 0.94761 0.82637 0.26629 0.0
H2498 H 0.96097 0.82465 0.24587 0.0
H2499 H 0.95199 0.80305 0.25734 0.0
C2500 C 0.97059 0.81053 0.18841 0.0
C2501 C 0.9795 0.79593 0.19406 0.0
C2502 C 0.95479 0.81416 0.19719 0.0
C2503 C 0.94773 0.80338 0.21187 0.0
C2504 C 0.95652 0.78872 0.21742 0.0
H2505 H 0.85086 0.78076 0.2755 0.0
H2506 H 0.88169 0.78412 0.26245 0.0
C2507 C 0.97227 0.78508 0.20867 0.0
C2508 C 0.93061 0.80665 0.22082 0.0
H2509 H 0.91375 0.81641 0.26357 0.0
C2510 C 0.91354 0.80313 0.20954 0.0
C2511 C 0.93079 0.81199 0.24048 0.0
C2512 C 0.94886 0.81693 0.25318 0.0
C2513 C 0.89647 0.8039 0.2175 0.0
C2514 C 0.89657 0.80866 0.23724 0.0
C2515 C 0.91372 0.81274 0.24845 0.0
C2516 C 0.87881 0.80823 0.24658 0.0
C2517 C 0.87836 0.79875 0.20483 0.0
C2518 C 0.86728 0.82113 0.2425 0.0
C2519 C 0.84967 0.81924 0.24995 0.0
C2520 C 0.84338 0.80447 0.26166 0.0
C2521 C 0.85536 0.79226 0.2665 0.0
C2522 C 0.87295 0.79415 0.25905 0.0
H2523 H 0.88022 0.79154 0.19071 0.0
H2524 H 0.86701 0.78872 0.21131 0.0
H2525 H 0.8736 0.81245 0.20281 0.0
H2526 H 0.8717 0.83232 0.23318 0.0
H2527 H 0.84072 0.82888 0.24604 0.0
H2528 H 0.49112 0.33964 0.11475 0.0
H2529 H 0.49037 0.36802 0.09741 0.0
H2530 H 0.52027 0.34426 0.05365 0.0
H2531 H 0.52168 0.31637 0.07119 0.0
H2532 H 0.53565 0.38162 0.06293 0.0
H2533 H 0.45834 0.3731 0.05164 0.0
H2534 H 0.46588 0.37457 0.07617 0.0
H2535 H 0.46858 0.35404 0.06009 0.0
C2536 C 0.49741 0.34043 0.10137 0.0
C2537 C 0.50649 0.3258 0.09436 0.0
C2538 C 0.49683 0.35656 0.09138 0.0
C2539 C 0.50497 0.35813 0.07402 0.0
C2540 C 0.51384 0.34338 0.06695 0.0
H2541 H 0.49043 0.45093 0.00357 0.0
H2542 H 0.48981 0.41843 0.01409 0.0
C2543 C 0.51465 0.32744 0.07703 0.0
C2544 C 0.50536 0.37569 0.06376 0.0
H2545 H 0.47773 0.40452 0.04657 0.0
C2546 C 0.52293 0.38647 0.05918 0.0
C2547 C 0.48877 0.38186 0.05849 0.0
C2548 C 0.46932 0.37016 0.06167 0.0
C2549 C 0.52446 0.4036 0.05011 0.0
C2550 C 0.50803 0.41051 0.04601 0.0
C2551 C 0.49036 0.39934 0.04991 0.0
C2552 C 0.50907 0.42993 0.03888 0.0
C2553 C 0.54371 0.41407 0.04502 0.0
C2554 C 0.52005 0.44713 0.04931 0.0
C2555 C 0.52058 0.46559 0.04328 0.0
C2556 C 0.5099 0.46736 0.02678 0.0
C2557 C 0.49893 0.4501 0.01626 0.0
C2558 C 0.49849 0.43153 0.02229 0.0
H2559 H 0.55313 0.40368 0.04295 0.0
H2560 H 0.54269 0.42127 0.03195 0.0
H2561 H 0.55044 0.4256 0.05671 0.0
H2562 H 0.52792 0.44635 0.06241 0.0
H2563 H 0.52906 0.4785 0.05191 0.0
H2564 H 0.97739 0.26897 0.34768 0.0
H2565 H 0.94875 0.27574 0.33281 0.0
H2566 H 0.9381 0.30484 0.38582 0.0
H2567 H 0.96666 0.29836 0.40075 0.0
H2568 H 0.91155 0.26374 0.34244 0.0
H2569 H 0.93453 0.34548 0.34894 0.0
H2570 H 0.95088 0.32983 0.35179 0.0
H2571 H 0.937 0.33529 0.3708 0.0
C2572 C 0.96899 0.27687 0.35616 0.0
C2573 C 0.97438 0.28317 0.3754 0.0
C2574 C 0.95265 0.28074 0.34764 0.0
C2575 C 0.9415 0.29109 0.35814 0.0
C2576 C 0.94673 0.29722 0.37736 0.0
H2577 H 0.82417 0.29181 0.33394 0.0
H2578 H 0.8549 0.28984 0.34829 0.0
C2579 C 0.96301 0.29335 0.38589 0.0
C2580 C 0.92396 0.29482 0.34927 0.0
H2581 H 0.90171 0.33151 0.34055 0.0
C2582 C 0.90943 0.27855 0.34192 0.0
C2583 C 0.92134 0.31418 0.34842 0.0
C2584 C 0.93682 0.33222 0.35524 0.0
C2585 C 0.89213 0.28109 0.3342 0.0
C2586 C 0.8892 0.30041 0.33409 0.0
C2587 C 0.90392 0.31672 0.34093 0.0
C2588 C 0.87096 0.30384 0.32671 0.0
C2589 C 0.87715 0.26308 0.32609 0.0
C2590 C 0.86996 0.31327 0.31036 0.0
C2591 C 0.85242 0.31453 0.3022 0.0
C2592 C 0.83569 0.30645 0.31035 0.0
C2593 C 0.83685 0.2981 0.32734 0.0
C2594 C 0.85436 0.29684 0.33547 0.0
H2595 H 0.88316 0.24993 0.32314 0.0
H2596 H 0.86633 0.25962 0.33637 0.0
H2597 H 0.86997 0.26578 0.31282 0.0
H2598 H 0.88264 0.31888 0.30348 0.0
H2599 H 0.85191 0.32103 0.28909 0.0
H2600 H 0.97501 0.7006 0.62274 0.0
H2601 H 0.97522 0.66922 0.60443 0.0
H2602 H 0.98115 0.69809 0.55376 0.0
H2603 H 0.98146 0.72965 0.57201 0.0
H2604 H 0.95521 0.64552 0.57296 0.0
H2605 H 0.02936 0.67802 0.55878 0.0
H2606 H 0.0168 0.69012 0.57552 0.0
H2607 H 0.01261 0.69126 0.55065 0.0
C2608 C 0.97596 0.70023 0.60763 0.0
C2609 C 0.97857 0.7177 0.59888 0.0
C2610 C 0.97609 0.68226 0.59719 0.0
C2611 C 0.9787 0.68146 0.57784 0.0
C2612 C 0.97961 0.69851 0.56878 0.0
H2613 H 0.97865 0.57384 0.50356 0.0
H2614 H 0.97019 0.6033 0.51891 0.0
C2615 C 0.97968 0.71652 0.57922 0.0
C2616 C 0.98222 0.6633 0.56759 0.0
H2617 H 0.01587 0.64568 0.54446 0.0
C2618 C 0.96843 0.64552 0.56665 0.0
C2619 C 0.99965 0.6633 0.55972 0.0
C2620 C 0.01554 0.68163 0.56133 0.0
C2621 C 0.97157 0.62774 0.55794 0.0
C2622 C 0.98883 0.62788 0.54969 0.0
C2623 C 0.00259 0.64565 0.55066 0.0
C2624 C 0.99336 0.60968 0.54063 0.0
C2625 C 0.95667 0.60888 0.55814 0.0
C2626 C 0.00943 0.6038 0.54745 0.0
C2627 C 0.01441 0.58723 0.53855 0.0
C2628 C 0.00337 0.57617 0.52273 0.0
C2629 C 0.98734 0.58208 0.51582 0.0
C2630 C 0.98239 0.59876 0.52467 0.0
H2631 H 0.94651 0.61045 0.56892 0.0
H2632 H 0.9486 0.605 0.54412 0.0
H2633 H 0.96322 0.59648 0.561 0.0
H2634 H 0.0182 0.61212 0.55963 0.0
H2635 H 0.02707 0.58324 0.54392 0.0
H2636 H 0.55776 0.77391 0.83996 0.0
H2637 H 0.58344 0.77153 0.81973 0.0
H2638 H 0.6221 0.77769 0.8691 0.0
H2639 H 0.5965 0.77938 0.88931 0.0
H2640 H 0.61551 0.79719 0.81591 0.0
H2641 H 0.63305 0.73034 0.83992 0.0
H2642 H 0.61188 0.73804 0.84597 0.0
H2643 H 0.63409 0.7488 0.85948 0.0
C2644 C 0.5717 0.77456 0.84649 0.0
C2645 C 0.57504 0.77666 0.86626 0.0
C2646 C 0.58637 0.77322 0.83491 0.0
C2647 C 0.60463 0.77401 0.84287 0.0
C2648 C 0.60802 0.7764 0.86259 0.0
H2649 H 0.71194 0.81006 0.79716 0.0
H2650 H 0.68124 0.80798 0.8099 0.0
C2651 C 0.59336 0.7775 0.87416 0.0
C2652 C 0.62039 0.77317 0.83069 0.0
H2653 H 0.65708 0.75094 0.82424 0.0
C2654 C 0.62445 0.7869 0.81754 0.0
C2655 C 0.63184 0.75946 0.83247 0.0
C2656 C 0.62736 0.7432 0.84508 0.0
C2657 C 0.64014 0.78787 0.80675 0.0
C2658 C 0.65243 0.77518 0.80963 0.0
C2659 C 0.64786 0.76088 0.82218 0.0
C2660 C 0.67045 0.77684 0.80041 0.0
C2661 C 0.64325 0.80243 0.79234 0.0
C2662 C 0.67486 0.75998 0.79111 0.0
C2663 C 0.69262 0.76104 0.78421 0.0
C2664 C 0.70628 0.77903 0.78632 0.0
C2665 C 0.70166 0.79602 0.79511 0.0
C2666 C 0.68401 0.79488 0.80229 0.0
H2667 H 0.62968 0.80551 0.78711 0.0
H2668 H 0.65245 0.81661 0.79902 0.0
H2669 H 0.65014 0.79693 0.7801 0.0
H2670 H 0.66468 0.74587 0.78953 0.0
H2671 H 0.69573 0.74769 0.77746 0.0
H2672 H 0.40059 0.56007 0.67326 0.0
H2673 H 0.42016 0.56123 0.64651 0.0
H2674 H 0.46839 0.55948 0.68355 0.0
H2675 H 0.44882 0.55781 0.71037 0.0
H2676 H 0.45281 0.58574 0.63739 0.0
H2677 H 0.464 0.51098 0.64578 0.0
H2678 H 0.44707 0.52124 0.65849 0.0
H2679 H 0.47182 0.52865 0.66624 0.0
C2680 C 0.41542 0.56017 0.6758 0.0
C2681 C 0.42305 0.55856 0.69396 0.0
C2682 C 0.4266 0.56085 0.66046 0.0
C2683 C 0.44563 0.55999 0.66294 0.0
C2684 C 0.45361 0.55966 0.68122 0.0
H2685 H 0.52393 0.57282 0.57306 0.0
H2686 H 0.50785 0.57872 0.60167 0.0
C2687 C 0.44241 0.55883 0.69657 0.0
C2688 C 0.45672 0.55829 0.64625 0.0
H2689 H 0.47987 0.52756 0.62202 0.0
C2690 C 0.4588 0.57307 0.63404 0.0
C2691 C 0.46426 0.54157 0.64174 0.0
C2692 C 0.46156 0.5246 0.65363 0.0
C2693 C 0.4682 0.57157 0.61746 0.0
C2694 C 0.47601 0.55502 0.61316 0.0
C2695 C 0.47399 0.54032 0.62541 0.0
C2696 C 0.48557 0.55208 0.5956 0.0
C2697 C 0.46914 0.58738 0.60439 0.0
C2698 C 0.47863 0.53499 0.58288 0.0
C2699 C 0.4879 0.5315 0.56674 0.0
C2700 C 0.50429 0.54506 0.56292 0.0
C2701 C 0.51125 0.5622 0.5756 0.0
C2702 C 0.502 0.56565 0.59186 0.0
H2703 H 0.45859 0.59634 0.6073 0.0
H2704 H 0.48341 0.59747 0.60638 0.0
H2705 H 0.46668 0.5808 0.58941 0.0
H2706 H 0.46606 0.52425 0.58552 0.0
H2707 H 0.48236 0.51801 0.55738 0.0
H2708 H 0.76196 0.20943 0.98123 0.0
H2709 H 0.7686 0.22518 0.95267 0.0
H2710 H 0.81495 0.19698 0.94468 0.0
H2711 H 0.80834 0.18092 0.97346 0.0
H2712 H 0.80411 0.25063 0.94389 0.0
H2713 H 0.77957 0.18136 0.89451 0.0
H2714 H 0.77323 0.18303 0.9186 0.0
H2715 H 0.79681 0.18164 0.91365 0.0
C2716 C 0.77359 0.20652 0.97346 0.0
C2717 C 0.78457 0.19383 0.97954 0.0
C2718 C 0.7774 0.21562 0.95718 0.0
C2719 C 0.79218 0.21215 0.9466 0.0
C2720 C 0.80337 0.19968 0.95266 0.0
H2721 H 0.80444 0.24816 0.83332 0.0
H2722 H 0.81194 0.23605 0.86314 0.0
C2723 C 0.7996 0.19056 0.96906 0.0
C2724 C 0.79527 0.22136 0.92897 0.0
H2725 H 0.78691 0.21119 0.88121 0.0
C2726 C 0.80065 0.24204 0.93014 0.0
C2727 C 0.79081 0.21004 0.91114 0.0
C2728 C 0.78468 0.18779 0.90923 0.0
C2729 C 0.80104 0.25178 0.91388 0.0
C2730 C 0.79551 0.2405 0.89611 0.0
C2731 C 0.79107 0.21978 0.89489 0.0
C2732 C 0.79273 0.24977 0.87876 0.0
C2733 C 0.80711 0.27403 0.91593 0.0
C2734 C 0.77954 0.26159 0.8777 0.0
C2735 C 0.77536 0.26862 0.86072 0.0
C2736 C 0.78414 0.26372 0.84454 0.0
C2737 C 0.79758 0.25221 0.84568 0.0
C2738 C 0.80184 0.24528 0.86267 0.0
H2739 H 0.81671 0.27978 0.92888 0.0
H2740 H 0.81439 0.27937 0.90353 0.0
H2741 H 0.79444 0.28026 0.91714 0.0
H2742 H 0.77197 0.2648 0.88982 0.0
H2743 H 0.76485 0.27736 0.86013 0.0
H2744 H 0.11185 0.49647 0.18153 0.0
H2745 H 0.09391 0.49443 0.15114 0.0
H2746 H 0.04251 0.46853 0.17555 0.0
H2747 H 0.06023 0.4712 0.20615 0.0
H2748 H 0.06953 0.46609 0.12604 0.0
H2749 H 0.03227 0.51974 0.16039 0.0
H2750 H 0.05244 0.51356 0.17192 0.0
H2751 H 0.02946 0.49704 0.1708 0.0
C2752 C 0.09678 0.48998 0.18033 0.0
C2753 C 0.08735 0.48436 0.19626 0.0
C2754 C 0.08656 0.48881 0.16296 0.0
C2755 C 0.06683 0.48181 0.16126 0.0
C2756 C 0.05766 0.47448 0.17672 0.0
H2757 H 0.9911 0.48243 0.06109 0.0
H2758 H 0.00578 0.47111 0.08849 0.0
C2759 C 0.06781 0.47595 0.19416 0.0
C2760 C 0.05577 0.48418 0.14401 0.0
H2761 H 0.02384 0.50912 0.12819 0.0
C2762 C 0.05938 0.4753 0.12651 0.0
C2763 C 0.04275 0.4965 0.14468 0.0
C2764 C 0.03909 0.50742 0.16291 0.0
C2765 C 0.0504 0.4786 0.10963 0.0
C2766 C 0.0375 0.49091 0.1104 0.0
C2767 C 0.03361 0.49948 0.12783 0.0
C2768 C 0.02923 0.49674 0.09323 0.0
C2769 C 0.05517 0.46958 0.09099 0.0
C2770 C 0.03758 0.51487 0.08712 0.0
C2771 C 0.02924 0.52138 0.0717 0.0
C2772 C 0.01242 0.50981 0.06216 0.0
C2773 C 0.00407 0.49159 0.06825 0.0
C2774 C 0.01246 0.48507 0.08375 0.0
H2775 H 0.06521 0.45994 0.09279 0.0
H2776 H 0.04205 0.46074 0.08287 0.0
H2777 H 0.06155 0.48151 0.08252 0.0
H2778 H 0.05044 0.52411 0.09445 0.0
H2779 H 0.03586 0.53557 0.06738 0.0
H2780 H 0.77291 0.84062 0.48738 0.0
H2781 H 0.77339 0.8288 0.45414 0.0
H2782 H 0.73428 0.86375 0.43892 0.0
H2783 H 0.73396 0.87598 0.47226 0.0
H2784 H 0.74559 0.80851 0.4273 0.0
H2785 H 0.77829 0.88245 0.40696 0.0
H2786 H 0.77699 0.87758 0.43125 0.0
H2787 H 0.75656 0.88121 0.41804 0.0
C2788 C 0.76427 0.84572 0.47701 0.0
C2789 C 0.75348 0.85937 0.48249 0.0
C2790 C 0.76458 0.83893 0.45798 0.0
C2791 C 0.75418 0.84568 0.44399 0.0
C2792 C 0.74277 0.85868 0.44944 0.0
H2793 H 0.73296 0.79428 0.32673 0.0
H2794 H 0.73064 0.80538 0.35976 0.0
C2795 C 0.74246 0.86552 0.46852 0.0
C2796 C 0.7556 0.83924 0.42375 0.0
H2797 H 0.76914 0.85623 0.38219 0.0
C2798 C 0.75071 0.81894 0.41743 0.0
C2799 C 0.76263 0.85284 0.41095 0.0
C2800 C 0.7691 0.87473 0.41712 0.0
C2801 C 0.75244 0.8119 0.39864 0.0
C2802 C 0.75893 0.82553 0.38571 0.0
C2803 C 0.76404 0.84581 0.39207 0.0
C2804 C 0.76044 0.81904 0.36551 0.0
C2805 C 0.74768 0.78987 0.39292 0.0
C2806 C 0.77791 0.82351 0.35753 0.0
C2807 C 0.7793 0.81729 0.3385 0.0
C2808 C 0.76321 0.80655 0.32706 0.0
C2809 C 0.74571 0.80236 0.33509 0.0
C2810 C 0.74434 0.80861 0.35405 0.0
H2811 H 0.74809 0.78154 0.40534 0.0
H2812 H 0.73316 0.78529 0.38586 0.0
H2813 H 0.7576 0.78567 0.38289 0.0
H2814 H 0.79051 0.83165 0.36609 0.0
H2815 H 0.79298 0.82083 0.3328 0.0
H2816 H 0.4029 0.55726 0.8094 0.0
H2817 H 0.4122 0.55289 0.84197 0.0
H2818 H 0.45052 0.51824 0.82149 0.0
H2819 H 0.44159 0.52274 0.78914 0.0
H2820 H 0.40819 0.51712 0.85732 0.0
H2821 H 0.48357 0.5569 0.86279 0.0
H2822 H 0.46679 0.55978 0.84434 0.0
H2823 H 0.47729 0.53878 0.84249 0.0
C2824 C 0.41356 0.54903 0.81187 0.0
C2825 C 0.42156 0.54043 0.79666 0.0
C2826 C 0.41879 0.54646 0.83048 0.0
C2827 C 0.43221 0.53542 0.83418 0.0
C2828 C 0.44043 0.52715 0.81903 0.0
H2829 H 0.48099 0.49183 0.92942 0.0
H2830 H 0.46884 0.49696 0.89809 0.0
C2831 C 0.43523 0.52968 0.8005 0.0
C2832 C 0.43699 0.53156 0.85372 0.0
H2833 H 0.47418 0.53533 0.88622 0.0
C2834 C 0.42258 0.52128 0.86374 0.0
C2835 C 0.45578 0.53696 0.86206 0.0
C2836 C 0.47172 0.54888 0.85245 0.0
C2837 C 0.42656 0.51572 0.88163 0.0
C2838 C 0.44542 0.52074 0.88975 0.0
C2839 C 0.45976 0.5313 0.87987 0.0
C2840 C 0.45068 0.51549 0.90861 0.0
C2841 C 0.41069 0.50404 0.89149 0.0
C2842 C 0.44418 0.52384 0.9249 0.0
C2843 C 0.45107 0.5209 0.9428 0.0
C2844 C 0.46464 0.50961 0.94469 0.0
C2845 C 0.47046 0.50049 0.92838 0.0
C2846 C 0.46361 0.5035 0.91049 0.0
H2847 H 0.39799 0.49746 0.88163 0.0
H2848 H 0.41525 0.49204 0.89819 0.0
H2849 H 0.40658 0.51399 0.90276 0.0
H2850 H 0.43443 0.53339 0.9238 0.0
H2851 H 0.44644 0.52822 0.95513 0.0
H2852 H 0.77775 0.22375 0.06368 0.0
H2853 H 0.77833 0.24847 0.09052 0.0
H2854 H 0.7999 0.21212 0.12754 0.0
H2855 H 0.79965 0.18745 0.10079 0.0
H2856 H 0.75766 0.24215 0.12074 0.0
H2857 H 0.8336 0.26642 0.14471 0.0
H2858 H 0.82529 0.25321 0.12168 0.0
H2859 H 0.82574 0.24 0.14204 0.0
C2860 C 0.78292 0.22114 0.07748 0.0
C2861 C 0.78861 0.20358 0.08012 0.0
C2862 C 0.78325 0.23531 0.09278 0.0
C2863 C 0.78938 0.23224 0.11095 0.0
C2864 C 0.79553 0.21499 0.11355 0.0
H2865 H 0.75788 0.25637 0.21924 0.0
H2866 H 0.75968 0.2466 0.18583 0.0
C2867 C 0.79526 0.20083 0.09826 0.0
C2868 C 0.78759 0.24601 0.12747 0.0
H2869 H 0.81168 0.2711 0.16808 0.0
C2870 C 0.76954 0.24883 0.13091 0.0
C2871 C 0.80314 0.25504 0.14054 0.0
C2872 C 0.82306 0.25369 0.13696 0.0
C2873 C 0.7664 0.25926 0.14776 0.0
C2874 C 0.78165 0.26672 0.16158 0.0
C2875 C 0.79994 0.26516 0.15754 0.0
C2876 C 0.77866 0.27402 0.18104 0.0
C2877 C 0.74667 0.2617 0.15082 0.0
C2878 C 0.78876 0.2927 0.18946 0.0
C2879 C 0.7878 0.29831 0.20866 0.0
C2880 C 0.7769 0.28519 0.21967 0.0
C2881 C 0.76629 0.26682 0.21105 0.0
C2882 C 0.76722 0.26126 0.19192 0.0
H2883 H 0.73856 0.26168 0.13718 0.0
H2884 H 0.73904 0.2491 0.15782 0.0
H2885 H 0.74695 0.27562 0.15989 0.0
H2886 H 0.79778 0.30268 0.1813 0.0
H2887 H 0.79614 0.31255 0.215 0.0
H2888 H 0.04816 0.47655 0.28702 0.0
H2889 H 0.0345 0.47199 0.31727 0.0
H2890 H 0.09058 0.4851 0.34549 0.0
H2891 H 0.10426 0.48848 0.31508 0.0
H2892 H 0.06613 0.45932 0.36335 0.0
H2893 H 0.03545 0.5228 0.34898 0.0
H2894 H 0.02707 0.5014 0.33212 0.0
H2895 H 0.05163 0.51418 0.33392 0.0
C2896 C 0.05752 0.47789 0.29964 0.0
C2897 C 0.07722 0.48315 0.29886 0.0
C2898 C 0.04973 0.4754 0.3169 0.0
C2899 C 0.06153 0.47891 0.33368 0.0
C2900 C 0.08121 0.48249 0.33271 0.0
H2901 H 0.04333 0.53544 0.43924 0.0
H2902 H 0.05182 0.52465 0.40805 0.0
C2903 C 0.08902 0.48444 0.31536 0.0
C2904 C 0.05362 0.48135 0.35221 0.0
H2905 H 0.02922 0.50983 0.37756 0.0
C2906 C 0.05797 0.47027 0.36649 0.0
C2907 C 0.0432 0.49589 0.3563 0.0
C2908 C 0.03921 0.50938 0.3421 0.0
C2909 C 0.05253 0.47365 0.38488 0.0
C2910 C 0.04205 0.48812 0.38887 0.0
C2911 C 0.03721 0.4987 0.37443 0.0
C2912 C 0.03734 0.49398 0.40819 0.0
C2913 C 0.0588 0.46235 0.40001 0.0
C2914 C 0.02637 0.48032 0.41866 0.0
C2915 C 0.0217 0.48647 0.43666 0.0
C2916 C 0.02765 0.5064 0.44421 0.0
C2917 C 0.03847 0.52002 0.43367 0.0
C2918 C 0.04334 0.51385 0.41587 0.0
H2919 H 0.07045 0.45542 0.3957 0.0
H2920 H 0.06362 0.47216 0.4134 0.0
H2921 H 0.04671 0.45041 0.40277 0.0
H2922 H 0.02123 0.46502 0.41285 0.0
H2923 H 0.01335 0.47569 0.44459 0.0
H2924 H 0.74923 0.84082 0.57411 0.0
H2925 H 0.74703 0.82333 0.60221 0.0
H2926 H 0.74005 0.87567 0.6356 0.0
H2927 H 0.74186 0.89315 0.60758 0.0
H2928 H 0.77063 0.83221 0.63411 0.0
H2929 H 0.69792 0.83382 0.65211 0.0
H2930 H 0.70638 0.83951 0.62955 0.0
H2931 H 0.7122 0.85786 0.6498 0.0
C2932 C 0.74696 0.84856 0.58737 0.0
C2933 C 0.74568 0.86841 0.58852 0.0
C2934 C 0.74575 0.83853 0.60344 0.0
C2935 C 0.74313 0.84808 0.62101 0.0
C2936 C 0.74163 0.86782 0.62216 0.0
H2937 H 0.77372 0.81519 0.73062 0.0
H2938 H 0.77129 0.83149 0.70212 0.0
C2939 C 0.74278 0.87784 0.6061 0.0
C2940 C 0.74316 0.8378 0.63829 0.0
H2941 H 0.71777 0.8248 0.6758 0.0
C2942 C 0.75901 0.83049 0.64316 0.0
C2943 C 0.72793 0.83535 0.65001 0.0
C2944 C 0.71006 0.84187 0.64503 0.0
C2945 C 0.76022 0.82117 0.65958 0.0
C2946 C 0.74534 0.81946 0.67171 0.0
C2947 C 0.72929 0.82636 0.66664 0.0
C2948 C 0.74611 0.81032 0.68959 0.0
C2949 C 0.77733 0.81299 0.66361 0.0
C2950 C 0.73234 0.79346 0.69242 0.0
C2951 C 0.73355 0.78426 0.70884 0.0
C2952 C 0.74854 0.79182 0.72277 0.0
C2953 C 0.76199 0.80903 0.72017 0.0
C2954 C 0.76073 0.81826 0.70379 0.0
H2955 H 0.78469 0.8106 0.65066 0.0
H2956 H 0.78749 0.82367 0.67395 0.0
H2957 H 0.77335 0.79877 0.66971 0.0
H2958 H 0.72087 0.78714 0.68172 0.0
H2959 H 0.72295 0.77105 0.71049 0.0
H2960 H 0.71231 0.4654 0.54665 0.0
H2961 H 0.68803 0.48323 0.53977 0.0
H2962 H 0.67343 0.4484 0.48549 0.0
H2963 H 0.69751 0.43007 0.49244 0.0
H2964 H 0.68298 0.50577 0.51105 0.0
H2965 H 0.62305 0.44003 0.50921 0.0
H2966 H 0.64674 0.44005 0.51803 0.0
H2967 H 0.64059 0.43741 0.49304 0.0
C2968 C 0.70396 0.4615 0.53322 0.0
C2969 C 0.7067 0.44619 0.52015 0.0
C2970 C 0.69014 0.47177 0.5293 0.0
C2971 C 0.67879 0.46697 0.51224 0.0
C2972 C 0.68181 0.45207 0.49889 0.0
H2973 H 0.57836 0.50756 0.48 0.0
H2974 H 0.60708 0.49514 0.47792 0.0
C2975 C 0.6956 0.44167 0.50286 0.0
C2976 C 0.66348 0.47728 0.50884 0.0
H2977 H 0.61549 0.46996 0.50337 0.0
C2978 C 0.66821 0.49795 0.50924 0.0
C2979 C 0.64425 0.46702 0.50654 0.0
C2980 C 0.63826 0.44493 0.50683 0.0
C2981 C 0.65417 0.50866 0.50759 0.0
C2982 C 0.63497 0.49842 0.50567 0.0
C2983 C 0.63027 0.47774 0.50476 0.0
C2984 C 0.61936 0.50875 0.50567 0.0
C2985 C 0.65997 0.53082 0.50797 0.0
C2986 C 0.61698 0.5209 0.5218 0.0
C2987 C 0.60058 0.52804 0.523 0.0
C2988 C 0.58632 0.52297 0.50815 0.0
C2989 C 0.58916 0.51165 0.49166 0.0
C2990 C 0.60553 0.50455 0.49045 0.0
H2991 H 0.67479 0.53575 0.50426 0.0
H2992 H 0.65049 0.53618 0.49806 0.0
H2993 H 0.65898 0.53779 0.52241 0.0
H2994 H 0.62734 0.52401 0.53383 0.0
H2995 H 0.59865 0.53667 0.53589 0.0
H2996 H 0.1985 0.14489 0.48941 0.0
H2997 H 0.16607 0.12532 0.48893 0.0
H2998 H 0.1869 0.07456 0.5012 0.0
H2999 H 0.21951 0.09404 0.50186 0.0
H3000 H 0.1547 0.06947 0.46978 0.0
H3001 H 0.14311 0.10548 0.53977 0.0
H3002 H 0.15375 0.12156 0.52318 0.0
H3003 H 0.16642 0.10496 0.53256 0.0
C3004 C 0.19626 0.12952 0.49183 0.0
C3005 C 0.21165 0.12108 0.49578 0.0
C3006 C 0.1777 0.11839 0.49162 0.0
C3007 C 0.17416 0.09861 0.49523 0.0
C3008 C 0.1894 0.08987 0.49847 0.0
H3009 H 0.0643 0.02721 0.51897 0.0
H3010 H 0.0984 0.04172 0.51948 0.0
C3011 C 0.208 0.10103 0.49883 0.0
C3012 C 0.1545 0.08728 0.49609 0.0
H3013 H 0.11631 0.0844 0.52227 0.0
C3014 C 0.14631 0.0726 0.48129 0.0
C3015 C 0.14374 0.09131 0.51125 0.0
C3016 C 0.15215 0.10658 0.52771 0.0
C3017 C 0.12734 0.06226 0.48097 0.0
C3018 C 0.11637 0.06681 0.49579 0.0
C3019 C 0.12477 0.08102 0.5109 0.0
C3020 C 0.0959 0.0577 0.49539 0.0
C3021 C 0.1191 0.04664 0.46474 0.0
C3022 C 0.08327 0.06209 0.48184 0.0
C3023 C 0.06388 0.05408 0.48171 0.0
C3024 C 0.05675 0.04153 0.49513 0.0
C3025 C 0.0694 0.03705 0.50865 0.0
C3026 C 0.08885 0.04522 0.50888 0.0
H3027 H 0.1303 0.04173 0.4569 0.0
H3028 H 0.10985 0.03359 0.46983 0.0
H3029 H 0.11034 0.05276 0.45477 0.0
H3030 H 0.08842 0.07192 0.4715 0.0
H3031 H 0.05444 0.05785 0.47116 0.0
H3032 H 0.19799 0.97277 0.75569 0.0
H3033 H 0.21129 0.94389 0.75719 0.0
H3034 H 0.17574 0.92548 0.80155 0.0
H3035 H 0.16199 0.95428 0.79986 0.0
H3036 H 0.23076 0.93207 0.78599 0.0
H3037 H 0.16384 0.87628 0.76342 0.0
H3038 H 0.16631 0.90226 0.76155 0.0
H3039 H 0.16278 0.89291 0.78396 0.0
C3040 C 0.19295 0.9626 0.76578 0.0
C3041 C 0.17881 0.96578 0.77757 0.0
C3042 C 0.20062 0.9461 0.76665 0.0
C3043 C 0.19436 0.93235 0.7793 0.0
C3044 C 0.18053 0.93566 0.7914 0.0
H3045 H 0.25359 0.83842 0.7992 0.0
H3046 H 0.24075 0.86793 0.80353 0.0
C3047 C 0.17275 0.95219 0.79049 0.0
C3048 C 0.20233 0.91457 0.77955 0.0
H3049 H 0.19066 0.86418 0.77124 0.0
C3050 C 0.22199 0.91721 0.78287 0.0
C3051 C 0.19089 0.89519 0.77526 0.0
C3052 C 0.16981 0.8914 0.77067 0.0
C3053 C 0.23055 0.90105 0.78178 0.0
C3054 C 0.2191 0.88168 0.77761 0.0
C3055 C 0.19941 0.87903 0.77455 0.0
C3056 C 0.22726 0.864 0.77519 0.0
C3057 C 0.25183 0.90494 0.78439 0.0
C3058 C 0.22369 0.85176 0.75796 0.0
C3059 C 0.23086 0.83484 0.75551 0.0
C3060 C 0.24182 0.82977 0.77022 0.0
C3061 C 0.24547 0.84208 0.78748 0.0
C3062 C 0.23815 0.85897 0.78997 0.0
H3063 H 0.25869 0.92056 0.78297 0.0
H3064 H 0.25604 0.90182 0.79874 0.0
H3065 H 0.25731 0.8952 0.77396 0.0
H3066 H 0.21532 0.85531 0.74636 0.0
H3067 H 0.22774 0.82571 0.74204 0.0
H3068 H 0.31343 0.91651 0.99787 0.0
H3069 H 0.34424 0.93863 0.99598 0.0
H3070 H 0.33066 0.98135 0.03747 0.0
H3071 H 0.29966 0.95928 0.03955 0.0
H3072 H 0.35224 0.98051 0.9876 0.0
H3073 H 0.38154 0.96897 0.05826 0.0
H3074 H 0.36108 0.952 0.04587 0.0
H3075 H 0.35903 0.97555 0.05685 0.0
C3076 C 0.31695 0.93058 0.00664 0.0
C3077 C 0.30413 0.93608 0.01897 0.0
C3078 C 0.33451 0.94322 0.00544 0.0
C3079 C 0.33964 0.9615 0.01662 0.0
C3080 C 0.3269 0.96719 0.02883 0.0
H3081 H 0.45317 0.03682 0.03408 0.0
H3082 H 0.41893 0.02562 0.03432 0.0
C3083 C 0.30925 0.95457 0.02999 0.0
C3084 C 0.35863 0.97421 0.0158 0.0
H3085 H 0.40197 0.98889 0.04003 0.0
C3086 C 0.36312 0.98257 0.9991 0.0
C3087 C 0.37264 0.97685 0.0309 0.0
C3088 C 0.36849 0.96782 0.04899 0.0
C3089 C 0.38149 0.99329 0.99696 0.0
C3090 C 0.39572 0.99522 0.01176 0.0
C3091 C 0.39102 0.98739 0.0287 0.0
C3092 C 0.41586 0.0041 0.00972 0.0
C3093 C 0.38547 0.00238 0.97888 0.0
C3094 C 0.42543 0.99596 0.99558 0.0
C3095 C 0.44501 0.00243 0.99533 0.0
C3096 C 0.45533 0.01687 0.00942 0.0
C3097 C 0.44561 0.02552 0.02313 0.0
C3098 C 0.42605 0.01919 0.02326 0.0
H3099 H 0.37248 0.00537 0.97207 0.0
H3100 H 0.3965 0.01641 0.98142 0.0
H3101 H 0.39054 0.99192 0.96886 0.0
H3102 H 0.41791 0.98396 0.98527 0.0
H3103 H 0.45212 0.99541 0.98466 0.0
H3104 H 0.83324 0.57265 0.74223 0.0
H3105 H 0.80979 0.59269 0.74275 0.0
H3106 H 0.83861 0.62729 0.79361 0.0
H3107 H 0.86224 0.60722 0.7933 0.0
H3108 H 0.79575 0.614 0.79166 0.0
H3109 H 0.82509 0.65195 0.73107 0.0
H3110 H 0.81997 0.62538 0.72835 0.0
H3111 H 0.83854 0.63914 0.74528 0.0
C3112 C 0.83459 0.58445 0.7536 0.0
C3113 C 0.8497 0.5885 0.76765 0.0
C3114 C 0.82115 0.59584 0.75387 0.0
C3115 C 0.82262 0.61146 0.76813 0.0
C3116 C 0.83732 0.61522 0.7825 0.0
H3117 H 0.77636 0.70897 0.79857 0.0
H3118 H 0.78744 0.67859 0.79799 0.0
C3119 C 0.85082 0.60383 0.78225 0.0
C3120 C 0.80942 0.62458 0.76746 0.0
H3121 H 0.79905 0.6613 0.74388 0.0
C3122 C 0.79632 0.62427 0.78116 0.0
C3123 C 0.81015 0.63773 0.7536 0.0
C3124 C 0.82424 0.63877 0.73877 0.0
C3125 C 0.78406 0.63715 0.78155 0.0
C3126 C 0.78532 0.65088 0.76814 0.0
C3127 C 0.79802 0.65066 0.75407 0.0
C3128 C 0.77538 0.66715 0.7696 0.0
C3129 C 0.76998 0.63598 0.79636 0.0
C3130 C 0.76479 0.67079 0.75385 0.0
C3131 C 0.75865 0.68835 0.75407 0.0
C3132 C 0.76313 0.70248 0.76999 0.0
C3133 C 0.77273 0.69829 0.7861 0.0
C3134 C 0.77891 0.68082 0.78586 0.0
H3135 H 0.76597 0.62082 0.80061 0.0
H3136 H 0.7765 0.64613 0.80912 0.0
H3137 H 0.75698 0.6403 0.79128 0.0
H3138 H 0.76206 0.66047 0.74112 0.0
H3139 H 0.75127 0.6913 0.74148 0.0
H3140 H 0.82389 0.63303 0.98521 0.0
H3141 H 0.85005 0.61662 0.98066 0.0
H3142 H 0.83303 0.58204 0.02614 0.0
H3143 H 0.80692 0.59814 0.03069 0.0
H3144 H 0.8799 0.6161 0.00735 0.0
H3145 H 0.83808 0.54013 0.98364 0.0
H3146 H 0.82804 0.56151 0.98371 0.0
H3147 H 0.83105 0.55079 0.00521 0.0
C3148 C 0.82564 0.62182 0.99414 0.0
C3149 C 0.81327 0.61686 0.00827 0.0
C3150 C 0.84059 0.61247 0.99152 0.0
C3151 C 0.8433 0.59787 0.00285 0.0
C3152 C 0.83097 0.59293 0.01696 0.0
H3153 H 0.92508 0.52993 0.02574 0.0
H3154 H 0.89747 0.54438 0.02318 0.0
C3155 C 0.81611 0.60228 0.01961 0.0
C3156 C 0.85949 0.58839 0.00066 0.0
H3157 H 0.87071 0.54349 0.99323 0.0
C3158 C 0.87792 0.60026 0.00401 0.0
C3159 C 0.85687 0.5677 0.99638 0.0
C3160 C 0.83744 0.55429 0.99185 0.0
C3161 C 0.89378 0.59193 0.00393 0.0
C3162 C 0.89114 0.57119 1e-05 0.0
C3163 C 0.87272 0.55937 0.99626 0.0
C3164 C 0.90729 0.56145 0.00051 0.0
C3165 C 0.91318 0.60535 0.0088 0.0
C3166 C 0.92171 0.5658 0.98825 0.0
C3167 C 0.9375 0.55759 0.98972 0.0
C3168 C 0.93905 0.54476 0.00337 0.0
C3169 C 0.92425 0.53978 0.0151 0.0
C3170 C 0.90848 0.54803 0.01366 0.0
H3171 H 0.91243 0.62006 0.01575 0.0
H3172 H 0.92191 0.59866 0.01829 0.0
H3173 H 0.92044 0.60763 0.99567 0.0
H3174 H 0.9209 0.57578 0.97774 0.0
H3175 H 0.94868 0.56162 0.98043 0.0
H3176 H 0.20448 0.06313 0.78863 0.0
H3177 H 0.22411 0.09674 0.79081 0.0
H3178 H 0.17602 0.12012 0.80498 0.0
H3179 H 0.15643 0.08665 0.8033 0.0
H3180 H 0.2187 0.12361 0.76826 0.0
H3181 H 0.21661 0.15414 0.84238 0.0
H3182 H 0.20934 0.12801 0.83457 0.0
H3183 H 0.1934 0.14385 0.83105 0.0
C3184 C 0.19817 0.0754 0.79263 0.0
C3185 C 0.17885 0.07217 0.79574 0.0
C3186 C 0.20941 0.09461 0.79384 0.0
C3187 C 0.20159 0.11097 0.79822 0.0
C3188 C 0.18249 0.10776 0.802 0.0
H3189 H 0.23752 0.22629 0.76091 0.0
H3190 H 0.22133 0.19283 0.76624 0.0
C3191 C 0.17127 0.08857 0.80092 0.0
C3192 C 0.21282 0.13127 0.79691 0.0
H3193 H 0.22632 0.17777 0.82051 0.0
C3194 C 0.22053 0.1354 0.77977 0.0
C3195 C 0.21537 0.14662 0.81197 0.0
C3196 C 0.20841 0.14291 0.83109 0.0
C3197 C 0.23026 0.15453 0.77708 0.0
C3198 C 0.23193 0.17008 0.79178 0.0
C3199 C 0.22476 0.16588 0.80915 0.0
C3200 C 0.24108 0.19079 0.78933 0.0
C3201 C 0.23876 0.15785 0.75852 0.0
C3202 C 0.2571 0.20103 0.80103 0.0
C3203 C 0.26622 0.22026 0.79816 0.0
C3204 C 0.25943 0.22953 0.78358 0.0
C3205 C 0.24309 0.21947 0.77222 0.0
C3206 C 0.23392 0.20031 0.77516 0.0
H3207 H 0.24099 0.14391 0.75111 0.0
H3208 H 0.22897 0.16347 0.74922 0.0
H3209 H 0.25251 0.16889 0.76062 0.0
H3210 H 0.26277 0.194 0.81212 0.0
H3211 H 0.27875 0.22773 0.80717 0.0
H3212 H 0.40675 0.98198 0.27195 0.0
H3213 H 0.38938 0.94734 0.26893 0.0
H3214 H 0.3366 0.96568 0.26818 0.0
H3215 H 0.35382 0.00015 0.27019 0.0
H3216 H 0.36722 0.92725 0.29057 0.0
H3217 H 0.32547 0.92559 0.22333 0.0
H3218 H 0.34469 0.94619 0.23225 0.0
H3219 H 0.32142 0.94445 0.24038 0.0
C3220 C 0.39143 0.97856 0.27103 0.0
C3221 C 0.38161 0.9937 0.27111 0.0
C3222 C 0.38152 0.95879 0.26929 0.0
C3223 C 0.36165 0.95386 0.26784 0.0
C3224 C 0.35188 0.96904 0.26854 0.0
H3225 H 0.29158 0.84592 0.29683 0.0
H3226 H 0.31147 0.87895 0.29605 0.0
C3227 C 0.36175 0.98875 0.26987 0.0
C3228 C 0.35112 0.93291 0.26636 0.0
H3229 H 0.31394 0.89937 0.24214 0.0
C3230 C 0.35572 0.92108 0.27983 0.0
C3231 C 0.3364 0.92467 0.25209 0.0
C3232 C 0.33187 0.93585 0.23608 0.0
C3233 C 0.34559 0.90149 0.27983 0.0
C3234 C 0.3299 0.89379 0.26649 0.0
C3235 C 0.32574 0.90537 0.2526 0.0
C3236 C 0.31745 0.87388 0.26683 0.0
C3237 C 0.35205 0.88925 0.29399 0.0
C3238 C 0.31335 0.86036 0.2504 0.0
C3239 C 0.30149 0.84167 0.25067 0.0
C3240 C 0.29374 0.83612 0.26745 0.0
C3241 C 0.29762 0.84973 0.28379 0.0
C3242 C 0.30913 0.86855 0.2834 0.0
H3243 H 0.36742 0.89458 0.29823 0.0
H3244 H 0.3444 0.89054 0.3069 0.0
H3245 H 0.34925 0.87342 0.28829 0.0
H3246 H 0.31949 0.86419 0.23741 0.0
H3247 H 0.29875 0.83143 0.23788 0.0
H3248 H 0.50502 0.34376 0.62765 0.0
H3249 H 0.49593 0.36811 0.60878 0.0
H3250 H 0.5482 0.37428 0.58185 0.0
H3251 H 0.55721 0.34985 0.60031 0.0
H3252 H 0.51391 0.40694 0.60717 0.0
H3253 H 0.50953 0.36446 0.53681 0.0
H3254 H 0.51047 0.35326 0.55845 0.0
H3255 H 0.53182 0.36679 0.54988 0.0
C3256 C 0.51453 0.35026 0.61765 0.0
C3257 C 0.53178 0.34478 0.6154 0.0
C3258 C 0.50931 0.36415 0.60687 0.0
C3259 C 0.5212 0.37269 0.59361 0.0
C3260 C 0.53856 0.36748 0.59161 0.0
H3261 H 0.53532 0.46782 0.52596 0.0
H3262 H 0.53644 0.43887 0.54212 0.0
C3263 C 0.54376 0.35361 0.6023 0.0
C3264 C 0.51595 0.38765 0.58234 0.0
H3265 H 0.5115 0.39924 0.53721 0.0
C3266 C 0.51308 0.40515 0.59187 0.0
C3267 C 0.51481 0.38525 0.56236 0.0
C3268 C 0.51663 0.36634 0.55127 0.0
C3269 C 0.51001 0.42069 0.58199 0.0
C3270 C 0.5096 0.41855 0.56206 0.0
C3271 C 0.51189 0.40084 0.55249 0.0
C3272 C 0.50805 0.43504 0.55102 0.0
C3273 C 0.50802 0.43961 0.59295 0.0
C3274 C 0.4915 0.44212 0.55022 0.0
C3275 C 0.49076 0.45866 0.54091 0.0
C3276 C 0.50661 0.46842 0.5323 0.0
C3277 C 0.52289 0.46076 0.53252 0.0
C3278 C 0.52357 0.44419 0.54173 0.0
H3279 H 0.51179 0.44008 0.6083 0.0
H3280 H 0.51715 0.45259 0.58764 0.0
H3281 H 0.49315 0.44093 0.59101 0.0
H3282 H 0.47928 0.43507 0.5571 0.0
H3283 H 0.47799 0.46414 0.54101 0.0
H3284 H 0.45095 0.77713 0.3181 0.0
H3285 H 0.41887 0.76968 0.30336 0.0
H3286 H 0.40295 0.7213 0.33675 0.0
H3287 H 0.43519 0.72909 0.35211 0.0
H3288 H 0.39682 0.7373 0.28256 0.0
H3289 H 0.36477 0.7538 0.34954 0.0
H3290 H 0.39 0.7596 0.34781 0.0
H3291 H 0.37748 0.73455 0.34913 0.0
C3292 C 0.44071 0.76482 0.3223 0.0
C3293 C 0.44559 0.75382 0.33643 0.0
C3294 C 0.42234 0.76054 0.31379 0.0
C3295 C 0.40841 0.74513 0.31913 0.0
C3296 C 0.41338 0.73353 0.33269 0.0
H3297 H 0.29763 0.72753 0.25342 0.0
H3298 H 0.3258 0.71913 0.26787 0.0
C3299 C 0.43182 0.73792 0.34136 0.0
C3300 C 0.38868 0.74208 0.31084 0.0
H3301 H 0.34487 0.74738 0.32168 0.0
C3302 C 0.38535 0.7392 0.2911 0.0
C3303 C 0.37378 0.74466 0.32204 0.0
C3304 C 0.37661 0.74847 0.3433 0.0
C3305 C 0.36789 0.73995 0.2822 0.0
C3306 C 0.35319 0.74315 0.2934 0.0
C3307 C 0.35617 0.74489 0.31315 0.0
C3308 C 0.33557 0.74731 0.28508 0.0
C3309 C 0.36577 0.73859 0.26094 0.0
C3310 C 0.33148 0.76568 0.2903 0.0
C3311 C 0.31543 0.77037 0.28225 0.0
C3312 C 0.30309 0.75678 0.26882 0.0
C3313 C 0.30703 0.7383 0.26366 0.0
C3314 C 0.32311 0.73353 0.27185 0.0
H3315 H 0.37958 0.73998 0.25466 0.0
H3316 H 0.35655 0.72405 0.25523 0.0
H3317 H 0.35908 0.7503 0.25632 0.0
H3318 H 0.34091 0.77657 0.30042 0.0
H3319 H 0.31281 0.78478 0.28641 0.0
H3320 H 0.03559 0.75371 0.09944 0.0
H3321 H 0.0345 0.722 0.08106 0.0
H3322 H 0.01456 0.69156 0.12833 0.0
H3323 H 0.0151 0.72311 0.14661 0.0
H3324 H 0.05364 0.69422 0.08755 0.0
H3325 H 0.97674 0.66184 0.08628 0.0
H3326 H 0.987 0.68762 0.09381 0.0
H3327 H 0.98761 0.66938 0.10979 0.0
C3328 C 0.03078 0.74026 0.10587 0.0
C3329 C 0.0253 0.74095 0.12447 0.0
C3330 C 0.03022 0.72214 0.09536 0.0
C3331 C 0.0242 0.70438 0.10321 0.0
C3332 C 0.0188 0.70503 0.12179 0.0
H3333 H 0.04593 0.59022 0.06324 0.0
H3334 H 0.04775 0.62321 0.0795 0.0
C3335 C 0.0192 0.72312 0.13226 0.0
C3336 C 0.0241 0.68521 0.09218 0.0
H3337 H 0.99591 0.63982 0.07652 0.0
C3338 C 0.04099 0.68235 0.08502 0.0
C3339 C 0.00754 0.66982 0.08867 0.0
C3340 C 0.98866 0.67235 0.09487 0.0
C3341 C 0.04185 0.66444 0.0747 0.0
C3342 C 0.02547 0.64878 0.07188 0.0
C3343 C 0.00853 0.65175 0.07883 0.0
C3344 C 0.02534 0.62927 0.06147 0.0
C3345 C 0.06019 0.66265 0.06662 0.0
C3346 C 0.01198 0.62155 0.04611 0.0
C3347 C 0.0107 0.60263 0.03706 0.0
C3348 C 0.02282 0.59101 0.04308 0.0
C3349 C 0.03652 0.59889 0.05816 0.0
C3350 C 0.03764 0.61779 0.0674 0.0
H3351 H 0.06933 0.67738 0.06513 0.0
H3352 H 0.06806 0.65528 0.07628 0.0
H3353 H 0.0576 0.65371 0.05259 0.0
H3354 H 0.00235 0.63011 0.04127 0.0
H3355 H 6e-05 0.59704 0.02541 0.0
H3356 H 0.03759 0.22257 0.82 0.0
H3357 H 0.06715 0.22597 0.80472 0.0
H3358 H 0.0884 0.28352 0.83594 0.0
H3359 H 0.05886 0.28015 0.85155 0.0
H3360 H 0.08565 0.25425 0.78274 0.0
H3361 H 0.12856 0.253 0.84918 0.0
H3362 H 0.10305 0.24613 0.84722 0.0
H3363 H 0.11524 0.27175 0.84998 0.0
C3364 C 0.04849 0.23603 0.82357 0.0
C3365 C 0.04594 0.25103 0.83712 0.0
C3366 C 0.06536 0.23794 0.81478 0.0
C3367 C 0.08006 0.25484 0.81942 0.0
C3368 C 0.07734 0.27019 0.83243 0.0
H3369 H 0.18247 0.28939 0.76242 0.0
H3370 H 0.15081 0.28562 0.77354 0.0
C3371 C 0.06042 0.26829 0.84125 0.0
C3372 C 0.09836 0.25603 0.81098 0.0
H3373 H 0.14515 0.2587 0.82196 0.0
C3374 C 0.09868 0.25524 0.79128 0.0
C3375 C 0.11525 0.25696 0.82216 0.0
C3376 C 0.11558 0.25683 0.84329 0.0
C3377 C 0.11552 0.25562 0.78248 0.0
C3378 C 0.13249 0.25708 0.79372 0.0
C3379 C 0.13212 0.25764 0.81339 0.0
C3380 C 0.15091 0.25837 0.78547 0.0
C3381 C 0.11494 0.25412 0.76123 0.0
C3382 C 0.1615 0.24433 0.78853 0.0
C3383 C 0.17965 0.24651 0.78226 0.0
C3384 C 0.18749 0.26284 0.77295 0.0
C3385 C 0.17669 0.27659 0.76946 0.0
C3386 C 0.15857 0.27441 0.77573 0.0
H3387 H 0.1004 0.24771 0.75461 0.0
H3388 H 0.11972 0.26913 0.75687 0.0
H3389 H 0.12448 0.24492 0.75572 0.0
H3390 H 0.15587 0.23189 0.7961 0.0
H3391 H 0.18773 0.23576 0.78521 0.0
H3392 H 0.55677 0.73979 0.96092 0.0
H3393 H 0.55091 0.7093 0.97593 0.0
H3394 H 0.49884 0.68735 0.94083 0.0
H3395 H 0.50464 0.7178 0.92557 0.0
H3396 H 0.51949 0.69111 0.99549 0.0
H3397 H 0.52913 0.64444 0.93079 0.0
H3398 H 0.53653 0.67106 0.93334 0.0
H3399 H 0.512 0.65904 0.92791 0.0
C3400 C 0.54402 0.72852 0.95641 0.0
C3401 C 0.53123 0.73115 0.94193 0.0
C3402 C 0.54069 0.71113 0.96505 0.0
C3403 C 0.52458 0.696 0.95932 0.0
C3404 C 0.5115 0.69876 0.94525 0.0
H3405 H 0.48575 0.57649 0.98527 0.0
H3406 H 0.48903 0.60899 0.97455 0.0
C3407 C 0.5148 0.71619 0.9366 0.0
C3408 C 0.5218 0.67714 0.96775 0.0
H3409 H 0.51938 0.62795 0.95711 0.0
C3410 C 0.51947 0.67727 0.98714 0.0
C3411 C 0.52191 0.65919 0.95681 0.0
C3412 C 0.52519 0.65833 0.93609 0.0
C3413 C 0.51682 0.65978 0.99582 0.0
C3414 C 0.51686 0.6418 0.98485 0.0
C3415 C 0.5193 0.64174 0.96548 0.0
C3416 C 0.51411 0.62273 0.99294 0.0
C3417 C 0.5136 0.6606 0.01654 0.0
C3418 C 0.52702 0.61969 0.00705 0.0
C3419 C 0.52514 0.60104 0.01333 0.0
C3420 C 0.51045 0.5851 0.00541 0.0
C3421 C 0.49731 0.58838 0.99161 0.0
C3422 C 0.49914 0.60698 0.98546 0.0
H3423 H 0.50923 0.67428 0.02173 0.0
H3424 H 0.5026 0.64762 0.01939 0.0
H3425 H 0.52695 0.66041 0.02472 0.0
H3426 H 0.5389 0.63155 0.01276 0.0
H3427 H 0.53557 0.59896 0.02386 0.0
H3428 H 0.06483 0.79064 0.63471 0.0
H3429 H 0.09571 0.78587 0.64593 0.0
H3430 H 0.07072 0.75769 0.69243 0.0
H3431 H 0.03984 0.76238 0.68145 0.0
H3432 H 0.1167 0.79759 0.68374 0.0
H3433 H 0.096 0.71643 0.66294 0.0
H3434 H 0.08338 0.73327 0.65351 0.0
H3435 H 0.07997 0.72665 0.67693 0.0
C3436 C 0.06592 0.78366 0.64747 0.0
C3437 C 0.0498 0.77678 0.6571 0.0
C3438 C 0.08357 0.78091 0.65381 0.0
C3439 C 0.08536 0.7711 0.66977 0.0
C3440 C 0.06952 0.765 0.67989 0.0
H3441 H 0.17331 0.73349 0.73142 0.0
H3442 H 0.14345 0.737 0.71626 0.0
C3443 C 0.05191 0.76783 0.67364 0.0
C3444 C 0.10371 0.76686 0.6757 0.0
H3445 H 0.12563 0.72906 0.68035 0.0
C3446 C 0.11875 0.78264 0.68289 0.0
C3447 C 0.10623 0.74732 0.67458 0.0
C3448 C 0.09062 0.7299 0.66645 0.0
C3449 C 0.13616 0.77937 0.68956 0.0
C3450 C 0.13871 0.7598 0.68849 0.0
C3451 C 0.12368 0.74403 0.68108 0.0
C3452 C 0.15662 0.75541 0.69578 0.0
C3453 C 0.1514 0.79687 0.69832 0.0
C3454 C 0.17386 0.76371 0.68866 0.0
C3455 C 0.19092 0.76179 0.69735 0.0
C3456 C 0.19099 0.75129 0.71313 0.0
C3457 C 0.17367 0.74164 0.71927 0.0
C3458 C 0.15661 0.74371 0.71066 0.0
H3459 H 0.14559 0.80994 0.70241 0.0
H3460 H 0.15879 0.79324 0.71103 0.0
H3461 H 0.16198 0.80104 0.68794 0.0
H3462 H 0.17417 0.77233 0.67685 0.0
H3463 H 0.20408 0.76929 0.69227 0.0
H3464 H 0.06205 0.3458 0.42881 0.0
H3465 H 0.07014 0.37967 0.44491 0.0
H3466 H 0.02706 0.36307 0.48325 0.0
H3467 H 0.0193 0.32945 0.46772 0.0
H3468 H 0.04762 0.40515 0.44733 0.0
H3469 H 0.06985 0.39383 0.5195 0.0
H3470 H 0.06805 0.37511 0.49974 0.0
H3471 H 0.04748 0.3773 0.51201 0.0
C3472 C 0.05462 0.34931 0.44094 0.0
C3473 C 0.04007 0.33493 0.44701 0.0
C3474 C 0.05922 0.36866 0.45009 0.0
C3475 C 0.04944 0.37384 0.46551 0.0
C3476 C 0.0352 0.35934 0.47176 0.0
H3477 H 0.00839 0.47303 0.50014 0.0
H3478 H 0.01766 0.44479 0.48381 0.0
C3479 C 0.03066 0.34011 0.46272 0.0
C3480 C 0.05256 0.39463 0.4741 0.0
H3481 H 0.05569 0.42206 0.51684 0.0
C3482 C 0.04984 0.409 0.46251 0.0
C3483 C 0.05594 0.39986 0.49383 0.0
C3484 C 0.06071 0.38572 0.50692 0.0
C3485 C 0.04882 0.42794 0.47027 0.0
C3486 C 0.05002 0.43238 0.49014 0.0
C3487 C 0.05435 0.41857 0.50162 0.0
C3488 C 0.04511 0.45035 0.49935 0.0
C3489 C 0.04606 0.44281 0.45705 0.0
C3490 C 0.05712 0.46253 0.51403 0.0
C3491 C 0.05162 0.47849 0.52367 0.0
C3492 C 0.03408 0.48252 0.5187 0.0
C3493 C 0.02212 0.47039 0.50403 0.0
C3494 C 0.0275 0.45436 0.49457 0.0
H3495 H 0.05275 0.44036 0.44368 0.0
H3496 H 0.03071 0.44103 0.45337 0.0
H3497 H 0.05208 0.45821 0.46355 0.0
H3498 H 0.07068 0.4596 0.51811 0.0
H3499 H 0.0611 0.4877 0.53492 0.0
H3500 H 0.44994 0.30129 0.16365 0.0
H3501 H 0.42294 0.30714 0.18066 0.0
H3502 H 0.42182 0.25479 0.20817 0.0
H3503 H 0.44863 0.24882 0.19136 0.0
H3504 H 0.38613 0.25792 0.18953 0.0
H3505 H 0.42122 0.32476 0.23855 0.0
H3506 H 0.4255 0.32494 0.21397 0.0
H3507 H 0.4343 0.3082 0.22753 0.0
C3508 C 0.44402 0.29112 0.17343 0.0
C3509 C 0.45143 0.27458 0.17614 0.0
C3510 C 0.42868 0.29454 0.18319 0.0
C3511 C 0.42053 0.28147 0.19578 0.0
C3512 C 0.42798 0.26508 0.19858 0.0
H3513 H 0.32369 0.25893 0.26126 0.0
H3514 H 0.35299 0.25922 0.2461 0.0
C3515 C 0.44331 0.2617 0.18894 0.0
C3516 C 0.40358 0.28412 0.20535 0.0
H3517 H 0.3884 0.31269 0.24004 0.0
C3518 C 0.38659 0.26992 0.20055 0.0
C3519 C 0.40425 0.29988 0.21958 0.0
C3520 C 0.42229 0.31532 0.22538 0.0
C3521 C 0.37022 0.27095 0.20968 0.0
C3522 C 0.37101 0.28633 0.22438 0.0
C3523 C 0.38789 0.30084 0.22889 0.0
C3524 C 0.35443 0.28732 0.23531 0.0
C3525 C 0.35218 0.25566 0.20334 0.0
C3526 C 0.34607 0.30352 0.23514 0.0
C3527 C 0.32938 0.30352 0.244 0.0
C3528 C 0.32079 0.28728 0.25317 0.0
C3529 C 0.32979 0.27156 0.25414 0.0
C3530 C 0.34649 0.27165 0.24539 0.0
H3531 H 0.35255 0.24858 0.18878 0.0
H3532 H 0.35034 0.24391 0.21291 0.0
H3533 H 0.3397 0.2623 0.20379 0.0
H3534 H 0.35206 0.31584 0.22757 0.0
H3535 H 0.32284 0.31587 0.24299 0.0
H3536 H 0.61126 0.48762 0.34049 0.0
H3537 H 0.59205 0.4793 0.36707 0.0
H3538 H 0.56731 0.52906 0.36092 0.0
H3539 H 0.58611 0.53728 0.33444 0.0
H3540 H 0.59197 0.50209 0.40095 0.0
H3541 H 0.52086 0.48473 0.36327 0.0
H3542 H 0.54212 0.48605 0.35108 0.0
H3543 H 0.53461 0.50823 0.3586 0.0
C3544 C 0.60158 0.49665 0.3447 0.0
C3545 C 0.60017 0.51307 0.33529 0.0
C3546 C 0.59063 0.49188 0.35989 0.0
C3547 C 0.57798 0.50334 0.36576 0.0
C3548 C 0.5766 0.5197 0.35636 0.0
H3549 H 0.53698 0.53523 0.46932 0.0
H3550 H 0.55451 0.52958 0.44202 0.0
C3551 C 0.5875 0.52447 0.34128 0.0
C3552 C 0.56693 0.49912 0.38236 0.0
H3553 H 0.52235 0.49411 0.39691 0.0
C3554 C 0.57671 0.49997 0.40003 0.0
C3555 C 0.54697 0.49596 0.38115 0.0
C3556 C 0.53552 0.49347 0.36246 0.0
C3557 C 0.5672 0.49911 0.41663 0.0
C3558 C 0.54746 0.49771 0.41555 0.0
C3559 C 0.53752 0.49547 0.39778 0.0
C3560 C 0.53719 0.50036 0.43267 0.0
C3561 C 0.57844 0.50004 0.43522 0.0
C3562 C 0.52125 0.48603 0.43628 0.0
C3563 C 0.51109 0.48928 0.45196 0.0
C3564 C 0.51667 0.50697 0.46414 0.0
C3565 C 0.53251 0.52131 0.46037 0.0
C3566 C 0.54263 0.51805 0.44481 0.0
H3567 H 0.59149 0.49459 0.43325 0.0
H3568 H 0.5828 0.51562 0.44175 0.0
H3569 H 0.56992 0.49118 0.44515 0.0
H3570 H 0.51666 0.47237 0.42696 0.0
H3571 H 0.49888 0.47802 0.4545 0.0
H3572 H 0.24997 0.83644 0.04473 0.0
H3573 H 0.2457 0.81461 0.06961 0.0
H3574 H 0.22319 0.8569 0.1038 0.0
H3575 H 0.22732 0.87885 0.07901 0.0
H3576 H 0.26384 0.82647 0.10626 0.0
H3577 H 0.18596 0.80347 0.10803 0.0
H3578 H 0.19716 0.81314 0.08787 0.0
H3579 H 0.19495 0.82962 0.10814 0.0
C3580 C 0.24386 0.84101 0.05743 0.0
C3581 C 0.23908 0.85945 0.05994 0.0
C3582 C 0.24139 0.82848 0.07158 0.0
C3583 C 0.23392 0.83406 0.08838 0.0
C3584 C 0.22864 0.85218 0.09075 0.0
H3585 H 0.22673 0.80676 0.20088 0.0
H3586 H 0.22251 0.81693 0.16947 0.0
C3587 C 0.23116 0.86477 0.07664 0.0
C3588 C 0.23355 0.82201 0.10426 0.0
H3589 H 0.20458 0.79841 0.13496 0.0
C3590 C 0.25089 0.82002 0.11238 0.0
C3591 C 0.2166 0.81375 0.11216 0.0
C3592 C 0.19758 0.81492 0.10352 0.0
C3593 C 0.25185 0.81082 0.12884 0.0
C3594 C 0.23492 0.80297 0.13706 0.0
C3595 C 0.21751 0.80438 0.12856 0.0
C3596 C 0.23526 0.7949 0.1554 0.0
C3597 C 0.27106 0.81058 0.1378 0.0
C3598 C 0.24322 0.7787 0.15775 0.0
C3599 C 0.24584 0.773 0.17572 0.0
C3600 C 0.2403 0.7833 0.19149 0.0
C3601 C 0.23125 0.79868 0.18894 0.0
C3602 C 0.22877 0.80445 0.17102 0.0
H3603 H 0.28264 0.82098 0.13198 0.0
H3604 H 0.27186 0.81453 0.15332 0.0
H3605 H 0.27353 0.7955 0.13507 0.0
H3606 H 0.24795 0.77088 0.14578 0.0
H3607 H 0.25269 0.76097 0.17734 0.0
H3608 H 0.9734 0.57319 0.82223 0.0
H3609 H 0.98954 0.5767 0.85369 0.0
H3610 H 0.93725 0.57843 0.87865 0.0
H3611 H 0.92106 0.57552 0.84705 0.0
H3612 H 0.97143 0.60251 0.90032 0.0
H3613 H 0.97493 0.52495 0.8786 0.0
H3614 H 0.98568 0.54228 0.8632 0.0
H3615 H 0.96061 0.53763 0.86532 0.0
C3616 C 0.96546 0.57487 0.83443 0.0
C3617 C 0.94595 0.57374 0.83229 0.0
C3618 C 0.97469 0.57689 0.85236 0.0
C3619 C 0.96446 0.57737 0.86839 0.0
C3620 C 0.94533 0.57801 0.86638 0.0
H3621 H 0.98833 0.52758 0.969 0.0
H3622 H 0.97409 0.53791 0.94122 0.0
C3623 C 0.93611 0.57633 0.84837 0.0
C3624 C 0.97298 0.57411 0.88669 0.0
H3625 H 0.99037 0.53971 0.90806 0.0
C3626 C 0.9756 0.58882 0.90209 0.0
C3627 C 0.97807 0.55606 0.88895 0.0
C3628 C 0.97454 0.53923 0.87321 0.0
C3629 C 0.98345 0.58598 0.91975 0.0
C3630 C 0.98896 0.5681 0.9218 0.0
C3631 C 0.98625 0.55345 0.90638 0.0
C3632 C 0.99681 0.56362 0.93993 0.0
C3633 C 0.98535 0.60182 0.93614 0.0
C3634 C 0.01428 0.57476 0.9485 0.0
C3635 C 0.02239 0.56897 0.96459 0.0
C3636 C 0.01317 0.5519 0.97214 0.0
C3637 C 0.99565 0.54092 0.9636 0.0
C3638 C 0.98751 0.54678 0.94772 0.0
H3639 H 0.97663 0.61254 0.93337 0.0
H3640 H 0.98111 0.59522 0.94921 0.0
H3641 H 0.00035 0.61006 0.93864 0.0
H3642 H 0.02188 0.58755 0.94245 0.0
H3643 H 0.03595 0.57762 0.97092 0.0
H3644 H 0.28831 0.16903 0.5719 0.0
H3645 H 0.28807 0.1849 0.60393 0.0
H3646 H 0.26223 0.22863 0.58192 0.0
H3647 H 0.26282 0.21317 0.54981 0.0
H3648 H 0.28923 0.24495 0.61038 0.0
H3649 H 0.24052 0.17917 0.63189 0.0
H3650 H 0.26185 0.17401 0.62342 0.0
H3651 H 0.24541 0.18156 0.60764 0.0
C3652 C 0.28275 0.18214 0.57383 0.0
C3653 C 0.27543 0.18971 0.55827 0.0
C3654 C 0.28248 0.1911 0.59218 0.0
C3655 C 0.27468 0.20764 0.59536 0.0
C3656 C 0.26817 0.21577 0.57982 0.0
H3657 H 0.23699 0.2475 0.70313 0.0
H3658 H 0.2388 0.23465 0.6703 0.0
C3659 C 0.26855 0.20691 0.56145 0.0
C3660 C 0.27293 0.21625 0.61486 0.0
H3661 H 0.25396 0.20504 0.65623 0.0
C3662 C 0.28148 0.23625 0.62039 0.0
C3663 C 0.26247 0.20499 0.62781 0.0
C3664 C 0.25187 0.1838 0.62237 0.0
C3665 C 0.28021 0.24519 0.63863 0.0
C3666 C 0.27046 0.23369 0.65184 0.0
C3667 C 0.26159 0.2138 0.64618 0.0
C3668 C 0.26939 0.24192 0.67163 0.0
C3669 C 0.28902 0.26695 0.64344 0.0
C3670 C 0.28597 0.25007 0.68337 0.0
C3671 C 0.28498 0.25754 0.70207 0.0
C3672 C 0.26738 0.25676 0.70956 0.0
C3673 C 0.25077 0.24835 0.69785 0.0
C3674 C 0.25178 0.241 0.67907 0.0
H3675 H 0.29068 0.27468 0.63056 0.0
H3676 H 0.28041 0.27416 0.65297 0.0
H3677 H 0.3033 0.26885 0.65068 0.0
H3678 H 0.29971 0.25046 0.67813 0.0
H3679 H 0.29808 0.26373 0.7107 0.0
H3680 H 0.62396 0.49986 0.21809 0.0
H3681 H 0.60831 0.50421 0.18814 0.0
H3682 H 0.58387 0.54853 0.21692 0.0
H3683 H 0.59868 0.54352 0.24696 0.0
H3684 H 0.55893 0.52672 0.19233 0.0
H3685 H 0.62483 0.54774 0.1567 0.0
H3686 H 0.62212 0.52368 0.16432 0.0
H3687 H 0.62497 0.54502 0.18154 0.0
C3688 C 0.61514 0.51042 0.21803 0.0
C3689 C 0.61261 0.52138 0.23488 0.0
C3690 C 0.60637 0.51308 0.20086 0.0
C3691 C 0.59535 0.52715 0.20013 0.0
C3692 C 0.59241 0.5377 0.21704 0.0
H3693 H 0.56207 0.56496 0.09197 0.0
H3694 H 0.57726 0.56438 0.12348 0.0
C3695 C 0.60085 0.53477 0.23424 0.0
C3696 C 0.58658 0.53066 0.18185 0.0
H3697 H 0.59594 0.53995 0.13684 0.0
C3698 C 0.56709 0.52978 0.18026 0.0
C3699 C 0.59723 0.53519 0.16618 0.0
C3700 C 0.61847 0.53819 0.16732 0.0
C3701 C 0.55789 0.53269 0.16336 0.0
C3702 C 0.56829 0.53576 0.1473 0.0
C3703 C 0.58788 0.5373 0.14904 0.0
C3704 C 0.55898 0.53658 0.12843 0.0
C3705 C 0.53714 0.53269 0.16306 0.0
C3706 C 0.54389 0.52108 0.12063 0.0
C3707 C 0.53507 0.52159 0.10293 0.0
C3708 C 0.54144 0.53737 0.09238 0.0
C3709 C 0.55683 0.5527 0.09989 0.0
C3710 C 0.5655 0.55234 0.11784 0.0
H3711 H 0.53321 0.5374 0.17731 0.0
H3712 H 0.53331 0.54264 0.15311 0.0
H3713 H 0.52862 0.51747 0.15863 0.0
H3714 H 0.53902 0.50841 0.12815 0.0
H3715 H 0.52343 0.5094 0.09735 0.0
H3716 H 0.22455 0.86819 0.94958 0.0
H3717 H 0.22074 0.85108 0.91742 0.0
H3718 H 0.26596 0.82308 0.93135 0.0
H3719 H 0.26966 0.83972 0.96338 0.0
H3720 H 0.24814 0.85393 0.89125 0.0
H3721 H 0.22426 0.77663 0.90729 0.0
H3722 H 0.22404 0.79763 0.92408 0.0
H3723 H 0.24568 0.78986 0.92075 0.0
C3724 C 0.23352 0.85821 0.94583 0.0
C3725 C 0.24734 0.85524 0.95902 0.0
C3726 C 0.23135 0.84849 0.92748 0.0
C3727 C 0.24288 0.8356 0.92214 0.0
C3728 C 0.25663 0.83261 0.93531 0.0
H3729 H 0.26216 0.77053 0.81798 0.0
H3730 H 0.26412 0.78662 0.85049 0.0
C3731 C 0.25879 0.84225 0.95359 0.0
C3732 C 0.24131 0.82598 0.90257 0.0
H3733 H 0.23417 0.781 0.87639 0.0
C3734 C 0.24492 0.83799 0.88795 0.0
C3735 C 0.2372 0.80519 0.89839 0.0
C3736 C 0.2324 0.79156 0.91343 0.0
C3737 C 0.24493 0.82973 0.86925 0.0
C3738 C 0.24103 0.80896 0.86514 0.0
C3739 C 0.23731 0.79694 0.87971 0.0
C3740 C 0.24007 0.7994 0.84565 0.0
C3741 C 0.24945 0.84325 0.85408 0.0
C3742 C 0.22578 0.80111 0.83243 0.0
C3743 C 0.22467 0.79202 0.81403 0.0
C3744 C 0.23784 0.78107 0.80857 0.0
C3745 C 0.25203 0.77914 0.82185 0.0
C3746 C 0.2531 0.78821 0.84035 0.0
H3747 H 0.25643 0.8586 0.86011 0.0
H3748 H 0.25879 0.83778 0.8441 0.0
H3749 H 0.23614 0.84365 0.84594 0.0
H3750 H 0.21544 0.80944 0.83638 0.0
H3751 H 0.21359 0.79374 0.80402 0.0
H3752 H 0.91119 0.55942 0.70849 0.0
H3753 H 0.93099 0.56233 0.68192 0.0
H3754 H 0.98013 0.58867 0.72018 0.0
H3755 H 0.96052 0.58502 0.74692 0.0
H3756 H 0.95455 0.5915 0.66716 0.0
H3757 H 0.99488 0.54063 0.69573 0.0
H3758 H 0.97388 0.54518 0.70574 0.0
H3759 H 0.99609 0.56299 0.71091 0.0
C3760 C 0.92617 0.56606 0.71122 0.0
C3761 C 0.93439 0.57165 0.72977 0.0
C3762 C 0.93747 0.56774 0.69604 0.0
C3763 C 0.95709 0.57525 0.69914 0.0
C3764 C 0.9651 0.58229 0.71754 0.0
H3765 H 0.02016 0.58175 0.59693 0.0
H3766 H 0.0093 0.59223 0.62736 0.0
C3767 C 0.95387 0.58027 0.73277 0.0
C3768 C 0.96914 0.57421 0.68323 0.0
H3769 H 0.0029 0.55162 0.66667 0.0
C3770 C 0.96527 0.58296 0.66707 0.0
C3771 C 0.983 0.56289 0.68318 0.0
C3772 C 0.98714 0.55223 0.69973 0.0
C3773 C 0.97431 0.58002 0.65054 0.0
C3774 C 0.98799 0.56849 0.65044 0.0
C3775 C 0.99247 0.56052 0.66687 0.0
C3776 C 0.99618 0.56255 0.63291 0.0
C3777 C 0.96834 0.58832 0.63308 0.0
C3778 C 0.99318 0.54238 0.62644 0.0
C3779 C 0.99968 0.53638 0.60936 0.0
C3780 C 0.00918 0.55047 0.59841 0.0
C3781 C 0.01276 0.57063 0.60514 0.0
C3782 C 0.00645 0.57663 0.62239 0.0
H3783 H 0.95487 0.5931 0.63447 0.0
H3784 H 0.97943 0.60139 0.63066 0.0
H3785 H 0.96653 0.57723 0.62047 0.0
H3786 H 0.98534 0.53126 0.63437 0.0
H3787 H 0.99673 0.52075 0.60445 0.0
H3788 H 0.28489 0.18081 0.44095 0.0
H3789 H 0.28883 0.19815 0.41273 0.0
H3790 H 0.26401 0.24346 0.43905 0.0
H3791 H 0.25936 0.22583 0.46685 0.0
H3792 H 0.24815 0.23181 0.40523 0.0
H3793 H 0.32561 0.2462 0.40067 0.0
H3794 H 0.31507 0.22047 0.40101 0.0
H3795 H 0.31449 0.23778 0.42127 0.0
C3796 C 0.28051 0.19461 0.44078 0.0
C3797 C 0.27176 0.20192 0.4561 0.0
C3798 C 0.2829 0.2046 0.42469 0.0
C3799 C 0.27696 0.22231 0.42379 0.0
C3800 C 0.26872 0.22986 0.43935 0.0
H3801 H 0.2981 0.30056 0.33472 0.0
H3802 H 0.29939 0.28544 0.36426 0.0
C3803 C 0.26607 0.21975 0.45526 0.0
C3804 C 0.27788 0.23224 0.40622 0.0
H3805 H 0.3073 0.25099 0.37339 0.0
C3806 C 0.26115 0.23611 0.39839 0.0
C3807 C 0.29485 0.23813 0.39733 0.0
C3808 C 0.31355 0.23563 0.40561 0.0
C3809 C 0.26083 0.2454 0.38189 0.0
C3810 C 0.27758 0.25041 0.37248 0.0
C3811 C 0.29441 0.24691 0.38045 0.0
C3812 C 0.27773 0.25912 0.35429 0.0
C3813 C 0.24255 0.25007 0.37493 0.0
C3814 C 0.26549 0.24918 0.33875 0.0
C3815 C 0.26453 0.2579 0.32208 0.0
C3816 C 0.27614 0.27655 0.32038 0.0
C3817 C 0.28896 0.28619 0.33565 0.0
C3818 C 0.28974 0.27754 0.35249 0.0
H3819 H 0.23313 0.25109 0.38652 0.0
H3820 H 0.24519 0.2642 0.36856 0.0
H3821 H 0.23493 0.23806 0.36404 0.0
H3822 H 0.25643 0.23475 0.33959 0.0
H3823 H 0.25445 0.25011 0.3106 0.0
H3824 H 0.33412 0.63607 0.50724 0.0
H3825 H 0.3545 0.61362 0.49839 0.0
H3826 H 0.34492 0.58738 0.55018 0.0
H3827 H 0.32458 0.60952 0.55908 0.0
H3828 H 0.38755 0.61005 0.51871 0.0
H3829 H 0.33355 0.53924 0.50974 0.0
H3830 H 0.3275 0.56294 0.51 0.0
H3831 H 0.33314 0.55385 0.53178 0.0
C3832 C 0.33634 0.62548 0.51671 0.0
C3833 C 0.32773 0.62455 0.53385 0.0
C3834 C 0.34791 0.61265 0.51161 0.0
C3835 C 0.35085 0.59859 0.52346 0.0
C3836 C 0.34243 0.59779 0.54063 0.0
H3837 H 0.43844 0.54075 0.54408 0.0
H3838 H 0.41225 0.55731 0.54431 0.0
C3839 C 0.33096 0.61061 0.54576 0.0
C3840 C 0.36362 0.58545 0.5186 0.0
H3841 H 0.36601 0.53699 0.51391 0.0
C3842 C 0.38279 0.59408 0.51733 0.0
C3843 C 0.35732 0.56462 0.51666 0.0
C3844 C 0.33671 0.55459 0.51692 0.0
C3845 C 0.39602 0.58242 0.5152 0.0
C3846 C 0.38989 0.56167 0.51444 0.0
C3847 C 0.37061 0.55294 0.51471 0.0
C3848 C 0.40364 0.54912 0.5146 0.0
C3849 C 0.4166 0.59232 0.51436 0.0
C3850 C 0.40688 0.53842 0.49794 0.0
C3851 C 0.42185 0.52891 0.49776 0.0
C3852 C 0.43366 0.53002 0.51426 0.0
C3853 C 0.42956 0.53968 0.53116 0.0
C3854 C 0.41467 0.54918 0.53132 0.0
H3855 H 0.41856 0.60802 0.51172 0.0
H3856 H 0.42445 0.59185 0.528 0.0
H3857 H 0.42291 0.58439 0.5031 0.0
H3858 H 0.39843 0.53825 0.48494 0.0
H3859 H 0.42478 0.5216 0.48454 0.0
H3860 H 0.80231 0.96477 0.54928 0.0
H3861 H 0.83411 0.98491 0.54661 0.0
H3862 H 0.85295 0.93227 0.52876 0.0
H3863 H 0.82133 0.91215 0.531 0.0
H3864 H 0.86751 0.98433 0.56509 0.0
H3865 H 0.87156 0.96696 0.48845 0.0
H3866 H 0.84959 0.96126 0.49954 0.0
H3867 H 0.86553 0.94499 0.49996 0.0
C3868 C 0.81321 0.9575 0.54469 0.0
C3869 C 0.80922 0.93684 0.54025 0.0
C3870 C 0.83136 0.96903 0.54315 0.0
C3871 C 0.8458 0.96013 0.53709 0.0
C3872 C 0.84191 0.93952 0.53293 0.0
H3873 H 0.96564 0.99632 0.55858 0.0
H3874 H 0.93154 0.98331 0.55835 0.0
C3875 C 0.82381 0.92802 0.53438 0.0
C3876 C 0.86522 0.97215 0.53593 0.0
H3877 H 0.90123 0.98012 0.50686 0.0
C3878 C 0.8748 0.98363 0.55229 0.0
C3879 C 0.87464 0.97156 0.51913 0.0
C3880 C 0.86472 0.9607 0.50073 0.0
C3881 C 0.89383 0.9937 0.55257 0.0
C3882 C 0.90365 0.99188 0.53616 0.0
C3883 C 0.89379 0.98127 0.51952 0.0
C3884 C 0.92432 1e-05 0.53624 0.0
C3885 C 0.90325 0.00611 0.57049 0.0
C3886 C 0.93166 0.01321 0.52342 0.0
C3887 C 0.95122 0.02052 0.52339 0.0
C3888 C 0.96369 0.01464 0.53613 0.0
C3889 C 0.95632 0.00126 0.54876 0.0
C3890 C 0.93684 0.99392 0.54872 0.0
H3891 H 0.89274 0.01119 0.57925 0.0
H3892 H 0.91048 0.99709 0.57895 0.0
H3893 H 0.91394 0.01924 0.56741 0.0
H3894 H 0.92226 0.01797 0.51355 0.0
H3895 H 0.95656 0.03087 0.51356 0.0
H3896 H 0.84949 0.10261 0.21039 0.0
H3897 H 0.83466 0.13016 0.21784 0.0
H3898 H 0.8352 0.11926 0.27628 0.0
H3899 H 0.85132 0.09252 0.26901 0.0
H3900 H 0.80301 0.1325 0.22915 0.0
H3901 H 0.85643 0.17647 0.28428 0.0
H3902 H 0.86032 0.15512 0.27022 0.0
H3903 H 0.84665 0.15227 0.29049 0.0
C3904 C 0.84661 0.10623 0.22487 0.0
C3905 C 0.85171 0.09556 0.23916 0.0
C3906 C 0.83807 0.12197 0.22913 0.0
C3907 C 0.83404 0.12717 0.24772 0.0
C3908 C 0.83871 0.11612 0.26195 0.0
H3909 H 0.75583 0.20629 0.26459 0.0
H3910 H 0.76904 0.17693 0.26118 0.0
C3911 C 0.84779 0.10071 0.25777 0.0
C3912 C 0.8246 0.14383 0.2519 0.0
H3913 H 0.82764 0.18667 0.28065 0.0
C3914 C 0.8085 0.14441 0.24036 0.0
C3915 C 0.83177 0.15955 0.2664 0.0
C3916 C 0.84985 0.16096 0.27841 0.0
C3917 C 0.79962 0.16028 0.24263 0.0
C3918 C 0.80638 0.17565 0.25755 0.0
C3919 C 0.82228 0.17488 0.2693 0.0
C3920 C 0.79806 0.19329 0.26055 0.0
C3921 C 0.78364 0.16074 0.22841 0.0
C3922 C 0.80993 0.21235 0.26233 0.0
C3923 C 0.80248 0.22907 0.26501 0.0
C3924 C 0.7829 0.22717 0.2656 0.0
C3925 C 0.77096 0.20816 0.26395 0.0
C3926 C 0.7785 0.19138 0.26182 0.0
H3927 H 0.78422 0.15152 0.21495 0.0
H3928 H 0.76995 0.15467 0.23414 0.0
H3929 H 0.78398 0.17603 0.22523 0.0
H3930 H 0.82504 0.21436 0.26142 0.0
H3931 H 0.81205 0.24352 0.26612 0.0
H3932 H 0.71379 0.13634 0.01599 0.0
H3933 H 0.68311 0.11308 0.01377 0.0
H3934 H 0.70875 0.07053 0.0384 0.0
H3935 H 0.73955 0.0941 0.0413 0.0
H3936 H 0.67024 0.07641 0.99551 0.0
H3937 H 0.66753 0.07465 0.07308 0.0
H3938 H 0.68527 0.09225 0.0631 0.0
H3939 H 0.68716 0.06706 0.06297 0.0
C3940 C 0.71295 0.12203 0.02091 0.0
C3941 C 0.72904 0.11713 0.02901 0.0
C3942 C 0.69541 0.10872 0.01958 0.0
C3943 C 0.69362 0.09019 0.02617 0.0
C3944 C 0.70976 0.08493 0.03364 0.0
H3945 H 0.5775 0.01633 0.00309 0.0
H3946 H 0.61214 0.0245 0.00482 0.0
C3947 C 0.72733 0.09837 0.03521 0.0
C3948 C 0.67461 0.07692 0.0256 0.0
H3949 H 0.64061 0.05747 0.05388 0.0
C3950 C 0.66378 0.07201 0.00822 0.0
C3951 C 0.66632 0.07125 0.04226 0.0
C3952 C 0.67707 0.07666 0.06145 0.0
C3953 C 0.64452 0.06272 0.00714 0.0
C3954 C 0.63606 0.05763 0.02388 0.0
C3955 C 0.64719 0.06138 0.0411 0.0
C3956 C 0.61533 0.05103 0.02427 0.0
C3957 C 0.63318 0.05973 0.9883 0.0
C3958 C 0.60573 0.0627 0.03534 0.0
C3959 C 0.58606 0.0579 0.03466 0.0
C3960 C 0.57561 0.04142 0.02274 0.0
C3961 C 0.58522 0.0293 0.01218 0.0
C3962 C 0.60498 0.03397 0.0131 0.0
H3963 H 0.64109 0.06807 0.97765 0.0
H3964 H 0.62972 0.04382 0.98283 0.0
H3965 H 0.61971 0.06446 0.98974 0.0
H3966 H 0.61346 0.07593 0.04408 0.0
H3967 H 0.57906 0.0675 0.04299 0.0
H3968 H 0.19038 0.49191 0.24778 0.0
H3969 H 0.21371 0.47258 0.25379 0.0
H3970 H 0.16953 0.42527 0.2684 0.0
H3971 H 0.14625 0.44504 0.26334 0.0
H3972 H 0.20083 0.42978 0.2911 0.0
H3973 H 0.2197 0.4282 0.21678 0.0
H3974 H 0.22389 0.45265 0.22895 0.0
H3975 H 0.2001 0.43778 0.22461 0.0
C3976 C 0.18568 0.47741 0.25237 0.0
C3977 C 0.1665 0.46979 0.25485 0.0
C3978 C 0.199 0.46636 0.25571 0.0
C3979 C 0.19328 0.44727 0.26101 0.0
C3980 C 0.17422 0.43993 0.26418 0.0
H3981 H 0.23622 0.34606 0.24082 0.0
H3982 H 0.22278 0.37487 0.2405 0.0
C3983 C 0.16094 0.45118 0.26125 0.0
C3984 C 0.20693 0.43459 0.26257 0.0
H3985 H 0.2366 0.41276 0.23723 0.0
C3986 C 0.20874 0.42611 0.27937 0.0
C3987 C 0.21716 0.42979 0.24717 0.0
C3988 C 0.21501 0.43742 0.22831 0.0
C3989 C 0.21996 0.41238 0.281 0.0
C3990 C 0.23013 0.40755 0.26558 0.0
C3991 C 0.22892 0.41666 0.24907 0.0
C3992 C 0.23992 0.39115 0.26522 0.0
C3993 C 0.21994 0.40239 0.2988 0.0
C3994 C 0.25448 0.39096 0.27891 0.0
C3995 C 0.26206 0.37429 0.27926 0.0
C3996 C 0.25534 0.35781 0.26575 0.0
C3997 C 0.24161 0.35855 0.25146 0.0
C3998 C 0.23393 0.37502 0.25124 0.0
H3999 H 0.20834 0.40478 0.30757 0.0
H4000 H 0.21842 0.38624 0.2954 0.0
H4001 H 0.23355 0.40854 0.30737 0.0
H4002 H 0.25964 0.40347 0.28954 0.0
H4003 H 0.27273 0.37406 0.29036 0.0
H4004 H 0.19579 0.42175 0.01803 0.0
H4005 H 0.17038 0.43918 0.01402 0.0
H4006 H 0.18879 0.47369 0.06795 0.0
H4007 H 0.21424 0.45661 0.07196 0.0
H4008 H 0.14083 0.44148 0.03654 0.0
H4009 H 0.18622 0.51603 0.03309 0.0
H4010 H 0.19515 0.49391 0.03058 0.0
H4011 H 0.19195 0.505 0.05362 0.0
C4012 C 0.19446 0.4331 0.02899 0.0
C4013 C 0.20711 0.43785 0.04527 0.0
C4014 C 0.17994 0.44304 0.02669 0.0
C4015 C 0.17788 0.45798 0.04054 0.0
C4016 C 0.19035 0.46255 0.05688 0.0
H4017 H 0.07775 0.50398 0.05692 0.0
H4018 H 0.10454 0.48837 0.06002 0.0
C4019 C 0.20484 0.45266 0.05919 0.0
C4020 C 0.1624 0.46844 0.03823 0.0
H4021 H 0.1536 0.51429 0.03696 0.0
C4022 C 0.14361 0.45739 0.03653 0.0
C4023 C 0.16605 0.48917 0.03799 0.0
C4024 C 0.18593 0.50172 0.03873 0.0
C4025 C 0.12837 0.46655 0.03503 0.0
C4026 C 0.13202 0.48737 0.03557 0.0
C4027 C 0.15081 0.49837 0.03682 0.0
C4028 C 0.1165 0.49794 0.03448 0.0
C4029 C 0.1085 0.4538 0.0326 0.0
C4030 C 0.11478 0.50925 0.01957 0.0
C4031 C 0.0996 0.51835 0.01789 0.0
C4032 C 0.08593 0.51636 0.03114 0.0
C4033 C 0.08806 0.50569 0.04646 0.0
C4034 C 0.10325 0.49662 0.04816 0.0
H4035 H 0.10827 0.43821 0.02747 0.0
H4036 H 0.10225 0.45395 0.04642 0.0
H4037 H 0.09944 0.45946 0.02252 0.0
H4038 H 0.1249 0.51058 0.00893 0.0
H4039 H 0.09829 0.52647 0.00593 0.0
H4040 H 0.82794 0.99759 0.22356 0.0
H4041 H 0.80846 0.96409 0.22415 0.0
H4042 H 0.85844 0.94364 0.23861 0.0
H4043 H 0.87794 0.97681 0.238 0.0
H4044 H 0.83182 0.91814 0.20983 0.0
H4045 H 0.79919 0.93962 0.27504 0.0
H4046 H 0.79787 0.95401 0.25569 0.0
H4047 H 0.82041 0.95481 0.26761 0.0
C4048 C 0.83479 0.98592 0.22669 0.0
C4049 C 0.85448 0.98992 0.23089 0.0
C4050 C 0.82364 0.96683 0.22709 0.0
C4051 C 0.83203 0.9515 0.23162 0.0
C4052 C 0.85171 0.9553 0.23513 0.0
H4053 H 0.79253 0.84102 0.27542 0.0
H4054 H 0.80896 0.87383 0.26838 0.0
C4055 C 0.86282 0.97431 0.23483 0.0
C4056 C 0.82045 0.9316 0.23356 0.0
H4057 H 0.79032 0.9062 0.26235 0.0
C4058 C 0.82257 0.9155 0.22117 0.0
C4059 C 0.80865 0.92827 0.24856 0.0
C4060 C 0.8064 0.94501 0.26262 0.0
C4061 C 0.81329 0.89608 0.22349 0.0
C4062 C 0.80157 0.89277 0.23853 0.0
C4063 C 0.79929 0.90887 0.2508 0.0
C4064 C 0.79206 0.87264 0.24223 0.0
C4065 C 0.8165 0.87916 0.21026 0.0
C4066 C 0.77717 0.86116 0.22982 0.0
C4067 C 0.76774 0.84246 0.23383 0.0
C4068 C 0.77309 0.83499 0.25031 0.0
C4069 C 0.78816 0.84641 0.2626 0.0
C4070 C 0.79751 0.86514 0.25862 0.0
H4071 H 0.82834 0.88396 0.20132 0.0
H4072 H 0.8196 0.86732 0.21833 0.0
H4073 H 0.80347 0.87275 0.20085 0.0
H4074 H 0.77266 0.86681 0.2172 0.0
H4075 H 0.75615 0.83394 0.22414 0.0
H4076 H 0.67594 0.04904 0.74384 0.0
H4077 H 0.69473 0.08296 0.74886 0.0
H4078 H 0.64403 0.10411 0.75624 0.0
H4079 H 0.62513 0.07003 0.75191 0.0
H4080 H 0.69426 0.11246 0.72886 0.0
H4081 H 0.67715 0.13359 0.80153 0.0
H4082 H 0.67103 0.10837 0.7906 0.0
H4083 H 0.65648 0.12514 0.78539 0.0
C4084 C 0.66876 0.06089 0.74662 0.0
C4085 C 0.64904 0.05686 0.74752 0.0
C4086 C 0.67954 0.08028 0.74951 0.0
C4087 C 0.67084 0.09607 0.75322 0.0
C4088 C 0.65111 0.09214 0.75391 0.0
H4089 H 0.72093 0.2169 0.73654 0.0
H4090 H 0.70301 0.18269 0.73401 0.0
C4091 C 0.64031 0.07267 0.75129 0.0
C4092 C 0.68244 0.11662 0.75556 0.0
H4093 H 0.69318 0.15974 0.78511 0.0
C4094 C 0.6941 0.12276 0.74122 0.0
C4095 C 0.68247 0.12995 0.77182 0.0
C4096 C 0.67126 0.12389 0.7883 0.0
C4097 C 0.70557 0.14192 0.74255 0.0
C4098 C 0.70491 0.15553 0.75839 0.0
C4099 C 0.69351 0.14933 0.77289 0.0
C4100 C 0.71578 0.17634 0.76006 0.0
C4101 C 0.71854 0.14722 0.72713 0.0
C4102 C 0.72848 0.18434 0.77587 0.0
C4103 C 0.73857 0.20405 0.77752 0.0
C4104 C 0.73616 0.21604 0.76334 0.0
C4105 C 0.72335 0.20798 0.74758 0.0
C4106 C 0.71313 0.18839 0.74606 0.0
H4107 H 0.72178 0.13388 0.71953 0.0
H4108 H 0.71149 0.15451 0.71669 0.0
H4109 H 0.73206 0.15752 0.73287 0.0
H4110 H 0.73065 0.17531 0.78689 0.0
H4111 H 0.74831 0.20983 0.78984 0.0
loop_
_geom_bond_atom_site_label_1
_geom_bond_atom_site_label_2
_geom_bond_distance
_geom_bond_site_symmetry_2
_ccdc_geom_bond_type
O0 Cd1 2.223 . S
O0 C8 1.315 . S
Cd1 O0 2.223 . S
Cd1 O4 2.297 . S
Cd1 O5 2.439 . S
Cd1 O11 2.196 1_455 S
Cd2 O3 2.240 . S
Cd2 O10 2.223 1_455 S
Cd2 O12 2.297 . S
Cd2 O13 2.439 . S
O3 Cd2 2.240 . S
O3 C8 1.279 . S
O4 Cd1 2.297 . S
O4 C6 1.247 . S
O5 Cd1 2.439 . S
O5 C6 1.208 . S
C6 O4 1.247 . S
C6 O5 1.208 . S
C7 O12 1.247 . S
C7 O13 1.208 . S
C8 O0 1.315 . S
C8 O3 1.279 . S
C9 O10 1.315 . S
C9 O11 1.322 . S
O10 Cd2 2.223 1_655 S
O10 C9 1.315 . S
O11 Cd1 2.196 1_655 S
O11 C9 1.322 . S
O12 Cd2 2.297 . S
O12 C7 1.247 . S
O13 Cd2 2.439 . S
O13 C7 1.208 . S
O14 Cd15 2.234 . S
O14 C22 1.315 . S
Cd15 O14 2.234 . S
Cd15 O18 2.271 1_455 S
Cd15 O19 2.413 1_455 S
Cd15 O25 2.262 . S
Cd16 O17 2.240 1_455 S
Cd16 O24 2.223 . S
Cd16 O26 2.297 . S
Cd16 O27 2.439 . S
O17 Cd16 2.240 1_655 S
O17 C22 1.279 1_655 S
O18 Cd15 2.271 1_655 S
O18 C20 1.247 . S
O19 Cd15 2.413 1_655 S
O19 C20 1.208 . S
C20 O18 1.247 . S
C20 O19 1.208 . S
C21 O26 1.247 . S
C21 O27 1.208 . S
C22 O14 1.315 . S
C22 O17 1.279 1_455 S
C23 O24 1.315 . S
C23 O25 1.279 . S
O24 Cd16 2.223 . S
O24 C23 1.315 . S
O25 Cd15 2.262 . S
O25 C23 1.279 . S
O26 Cd16 2.297 . S
O26 C21 1.247 . S
O27 Cd16 2.439 . S
O27 C21 1.208 . S
O28 Cd29 2.223 . S
O28 C36 1.315 . S
Cd29 O28 2.223 . S
Cd29 O32 2.297 . S
Cd29 O33 2.439 . S
Cd29 O39 2.240 . S
Cd30 O31 2.240 . S
Cd30 O38 2.223 . S
Cd30 O40 2.297 . S
Cd30 O41 2.439 . S
O31 Cd30 2.240 . S
O31 C36 1.279 . S
O32 Cd29 2.297 . S
O32 C34 1.247 . S
O33 Cd29 2.439 . S
O33 C34 1.208 . S
C34 O32 1.247 . S
C34 O33 1.208 . S
C35 O40 1.247 . S
C35 O41 1.208 . S
C36 O28 1.315 . S
C36 O31 1.279 . S
C37 O38 1.315 . S
C37 O39 1.279 . S
O38 Cd30 2.223 . S
O38 C37 1.315 . S
O39 Cd29 2.240 . S
O39 C37 1.279 . S
O40 Cd30 2.297 . S
O40 C35 1.247 . S
O41 Cd30 2.439 . S
O41 C35 1.208 . S
O42 Cd43 2.223 . S
O42 C50 1.315 . S
Cd43 O42 2.223 . S
Cd43 O46 2.297 . S
Cd43 O47 2.439 . S
Cd43 O53 2.240 . S
Cd44 O45 2.240 . S
Cd44 O52 2.223 . S
Cd44 O54 2.297 . S
Cd44 O55 2.439 . S
O45 Cd44 2.240 . S
O45 C50 1.279 . S
O46 Cd43 2.297 . S
O46 C48 1.247 . S
O47 Cd43 2.439 . S
O47 C48 1.208 . S
C48 O46 1.247 . S
C48 O47 1.208 . S
C49 O54 1.247 . S
C49 O55 1.208 . S
C50 O42 1.315 . S
C50 O45 1.279 . S
C51 O52 1.315 . S
C51 O53 1.279 . S
O52 Cd44 2.223 . S
O52 C51 1.315 . S
O53 Cd43 2.240 . S
O53 C51 1.279 . S
O54 Cd44 2.297 . S
O54 C49 1.247 . S
O55 Cd44 2.439 . S
O55 C49 1.208 . S
O56 Cd57 2.223 . S
O56 C64 1.315 . S
Cd57 O56 2.223 . S
Cd57 O60 2.297 1_455 S
Cd57 O61 2.439 1_455 S
Cd57 O67 2.240 . S
Cd58 O59 2.240 . S
Cd58 O66 2.223 . S
Cd58 O68 2.297 . S
Cd58 O69 2.439 . S
O59 Cd58 2.240 . S
O59 C64 1.279 . S
O60 Cd57 2.297 1_655 S
O60 C62 1.247 . S
O61 Cd57 2.439 1_655 S
O61 C62 1.208 . S
C62 O60 1.247 . S
C62 O61 1.208 . S
C63 O68 1.247 . S
C63 O69 1.208 . S
C64 O56 1.315 . S
C64 O59 1.279 . S
C65 O66 1.315 . S
C65 O67 1.279 . S
O66 Cd58 2.223 . S
O66 C65 1.315 . S
O67 Cd57 2.240 . S
O67 C65 1.279 . S
O68 Cd58 2.297 . S
O68 C63 1.247 . S
O69 Cd58 2.439 . S
O69 C63 1.208 . S
O70 Cd71 2.223 . S
O70 C78 1.315 . S
Cd71 O70 2.223 . S
Cd71 O74 2.297 . S
Cd71 O75 2.439 . S
Cd71 O81 2.240 . S
Cd72 O73 2.240 . S
Cd72 O80 2.223 . S
Cd72 O82 2.297 . S
Cd72 O83 2.439 . S
O73 Cd72 2.240 . S
O73 C78 1.279 . S
O74 Cd71 2.297 . S
O74 C76 1.247 . S
O75 Cd71 2.439 . S
O75 C76 1.208 . S
C76 O74 1.247 . S
C76 O75 1.208 . S
C77 O82 1.247 . S
C77 O83 1.208 . S
C78 O70 1.315 . S
C78 O73 1.279 . S
C79 O80 1.315 . S
C79 O81 1.279 . S
O80 Cd72 2.223 . S
O80 C79 1.315 . S
O81 Cd71 2.240 . S
O81 C79 1.279 . S
O82 Cd72 2.297 . S
O82 C77 1.247 . S
O83 Cd72 2.439 . S
O83 C77 1.208 . S
O84 Cd85 2.223 . S
O84 C92 1.315 . S
Cd85 O84 2.223 . S
Cd85 O88 2.297 . S
Cd85 O89 2.439 . S
Cd85 O95 2.240 . S
Cd86 O87 2.240 . S
Cd86 O94 2.223 . S
Cd86 O96 2.297 . S
Cd86 O97 2.439 . S
O87 Cd86 2.240 . S
O87 C92 1.279 . S
O88 Cd85 2.297 . S
O88 C90 1.247 . S
O89 Cd85 2.439 . S
O89 C90 1.208 . S
C90 O88 1.247 . S
C90 O89 1.208 . S
C91 O96 1.247 . S
C91 O97 1.208 . S
C92 O84 1.315 . S
C92 O87 1.279 . S
C93 O94 1.315 . S
C93 O95 1.279 . S
O94 Cd86 2.223 . S
O94 C93 1.315 . S
O95 Cd85 2.240 . S
O95 C93 1.279 . S
O96 Cd86 2.297 . S
O96 C91 1.247 . S
O97 Cd86 2.439 . S
O97 C91 1.208 . S
O98 Cd99 2.223 1_655 S
O98 C106 1.315 1_655 S
Cd99 O98 2.223 1_455 S
Cd99 O102 2.297 . S
Cd99 O103 2.439 . S
Cd99 O109 2.240 1_455 S
Cd100 O101 2.240 1_655 S
Cd100 O108 2.223 . S
Cd100 O110 2.297 . S
Cd100 O111 2.439 1_655 S
O101 Cd100 2.240 1_455 S
O101 C106 1.279 . S
O102 Cd99 2.297 . S
O102 C104 1.247 . S
O103 Cd99 2.439 . S
O103 C104 1.208 . S
C104 O102 1.247 . S
C104 O103 1.208 . S
C105 O110 1.247 1_455 S
C105 O111 1.208 . S
C106 O98 1.315 1_455 S
C106 O101 1.279 . S
C107 O108 1.315 . S
C107 O109 1.279 . S
O108 Cd100 2.223 . S
O108 C107 1.315 . S
O109 Cd99 2.240 1_655 S
O109 C107 1.279 . S
O110 Cd100 2.297 . S
O110 C105 1.247 1_655 S
O111 Cd100 2.439 1_455 S
O111 C105 1.208 . S
O112 Cd113 2.223 . S
O112 C120 1.315 . S
Cd113 O112 2.223 . S
Cd113 O116 2.297 . S
Cd113 O117 2.439 . S
Cd113 O123 2.240 . S
Cd114 O115 2.240 . S
Cd114 O122 2.181 1_545 S
Cd114 O124 2.297 . S
Cd114 O125 2.439 . S
O115 Cd114 2.240 . S
O115 C120 1.279 . S
O116 Cd113 2.297 . S
O116 C118 1.247 . S
O117 Cd113 2.439 . S
O117 C118 1.208 . S
C118 O116 1.247 . S
C118 O117 1.208 . S
C119 O124 1.247 . S
C119 O125 1.208 . S
C120 O112 1.315 . S
C120 O115 1.279 . S
C121 O122 1.309 . S
C121 O123 1.254 1_565 S
O122 Cd114 2.181 1_565 S
O122 C121 1.309 . S
O123 Cd113 2.240 . S
O123 C121 1.254 1_545 S
O124 Cd114 2.297 . S
O124 C119 1.247 . S
O125 Cd114 2.439 . S
O125 C119 1.208 . S
O126 Cd127 2.223 . S
O126 C134 1.315 . S
Cd127 O126 2.223 . S
Cd127 O130 2.297 . S
Cd127 O131 2.439 . S
Cd127 O137 2.240 . S
Cd128 O129 2.240 . S
Cd128 O136 2.223 . S
Cd128 O138 2.297 . S
Cd128 O139 2.439 . S
O129 Cd128 2.240 . S
O129 C134 1.279 . S
O130 Cd127 2.297 . S
O130 C132 1.247 . S
O131 Cd127 2.439 . S
O131 C132 1.208 . S
C132 O130 1.247 . S
C132 O131 1.208 . S
C133 O138 1.247 . S
C133 O139 1.208 . S
C134 O126 1.315 . S
C134 O129 1.279 . S
C135 O136 1.315 . S
C135 O137 1.279 . S
O136 Cd128 2.223 . S
O136 C135 1.315 . S
O137 Cd127 2.240 . S
O137 C135 1.279 . S
O138 Cd128 2.297 . S
O138 C133 1.247 . S
O139 Cd128 2.439 . S
O139 C133 1.208 . S
O140 Cd141 2.223 1_545 S
O140 C148 1.315 1_545 S
Cd141 O140 2.223 1_565 S
Cd141 O144 2.297 . S
Cd141 O145 2.439 . S
Cd141 O151 2.240 1_565 S
Cd142 O143 2.240 1_545 S
Cd142 O150 2.223 . S
Cd142 O152 2.297 . S
Cd142 O153 2.439 1_545 S
O143 Cd142 2.240 1_565 S
O143 C148 1.279 . S
O144 Cd141 2.297 . S
O144 C146 1.247 . S
O145 Cd141 2.439 . S
O145 C146 1.208 . S
C146 O144 1.247 . S
C146 O145 1.208 . S
C147 O152 1.247 . S
C147 O153 1.208 1_545 S
C148 O140 1.315 1_565 S
C148 O143 1.279 . S
C149 O150 1.315 . S
C149 O151 1.279 . S
O150 Cd142 2.223 . S
O150 C149 1.315 . S
O151 Cd141 2.240 1_545 S
O151 C149 1.279 . S
O152 Cd142 2.297 . S
O152 C147 1.247 . S
O153 Cd142 2.439 1_565 S
O153 C147 1.208 1_565 S
O154 Cd155 2.223 . S
O154 C162 1.315 . S
Cd155 O154 2.223 . S
Cd155 O158 2.297 . S
Cd155 O159 2.439 . S
Cd155 O165 2.240 . S
Cd156 O157 2.240 . S
Cd156 O164 2.223 . S
Cd156 O166 2.297 1_554 S
Cd156 O167 2.439 1_554 S
O157 Cd156 2.240 . S
O157 C162 1.279 . S
O158 Cd155 2.297 . S
O158 C160 1.247 . S
O159 Cd155 2.439 . S
O159 C160 1.208 . S
C160 O158 1.247 . S
C160 O159 1.208 . S
C161 O166 1.247 . S
C161 O167 1.208 . S
C162 O154 1.315 . S
C162 O157 1.279 . S
C163 O164 1.315 . S
C163 O165 1.279 . S
O164 Cd156 2.223 . S
O164 C163 1.315 . S
O165 Cd155 2.240 . S
O165 C163 1.279 . S
O166 Cd156 2.297 1_556 S
O166 C161 1.247 . S
O167 Cd156 2.439 1_556 S
O167 C161 1.208 . S
O168 Cd169 2.223 . S
O168 C176 1.315 . S
Cd169 O168 2.223 . S
Cd169 O172 2.297 . S
Cd169 O173 2.439 . S
Cd169 O179 2.240 . S
Cd170 O171 2.240 . S
Cd170 O178 2.223 . S
Cd170 O180 2.297 1_554 S
Cd170 O181 2.439 1_554 S
O171 Cd170 2.240 . S
O171 C176 1.279 . S
O172 Cd169 2.297 . S
O172 C174 1.247 . S
O173 Cd169 2.439 . S
O173 C174 1.208 . S
C174 O172 1.247 . S
C174 O173 1.208 . S
C175 O180 1.247 . S
C175 O181 1.208 . S
C176 O168 1.315 . S
C176 O171 1.279 . S
C177 O178 1.315 . S
C177 O179 1.279 . S
O178 Cd170 2.223 . S
O178 C177 1.315 . S
O179 Cd169 2.240 . S
O179 C177 1.279 . S
O180 Cd170 2.297 1_556 S
O180 C175 1.247 . S
O181 Cd170 2.439 1_556 S
O181 C175 1.208 . S
O182 Cd183 2.223 . S
O182 C190 1.315 . S
Cd183 O182 2.223 . S
Cd183 O186 2.297 . S
Cd183 O187 2.439 1_554 S
Cd183 O193 2.240 1_554 S
Cd184 O185 2.240 1_556 S
Cd184 O192 2.223 1_556 S
Cd184 O194 2.297 . S
Cd184 O195 2.439 . S
O185 Cd184 2.240 1_554 S
O185 C190 1.279 . S
O186 Cd183 2.297 . S
O186 C188 1.247 . S
O187 Cd183 2.439 1_556 S
O187 C188 1.208 1_556 S
C188 O186 1.247 . S
C188 O187 1.208 1_554 S
C189 O194 1.247 . S
C189 O195 1.208 . S
C190 O182 1.315 . S
C190 O185 1.279 . S
C191 O192 1.315 . S
C191 O193 1.278 1_554 S
O192 Cd184 2.223 1_554 S
O192 C191 1.315 . S
O193 Cd183 2.240 1_556 S
O193 C191 1.278 1_556 S
O194 Cd184 2.297 . S
O194 C189 1.247 . S
O195 Cd184 2.439 . S
O195 C189 1.208 . S
O196 Cd197 2.223 . S
O196 C204 1.315 . S
Cd197 O196 2.223 . S
Cd197 O200 2.297 . S
Cd197 O201 2.439 . S
Cd197 O207 2.240 . S
Cd198 O199 2.240 . S
Cd198 O206 2.223 . S
Cd198 O208 2.297 . S
Cd198 O209 2.439 . S
O199 Cd198 2.240 . S
O199 C204 1.279 . S
O200 Cd197 2.297 . S
O200 C202 1.247 . S
O201 Cd197 2.439 . S
O201 C202 1.208 . S
C202 O200 1.247 . S
C202 O201 1.208 . S
C203 O208 1.247 . S
C203 O209 1.208 . S
C204 O196 1.315 . S
C204 O199 1.279 . S
C205 O206 1.315 . S
C205 O207 1.279 . S
O206 Cd198 2.223 . S
O206 C205 1.315 . S
O207 Cd197 2.240 . S
O207 C205 1.279 . S
O208 Cd198 2.297 . S
O208 C203 1.247 . S
O209 Cd198 2.439 . S
O209 C203 1.208 . S
O210 Cd211 2.223 . S
O210 C218 1.315 . S
Cd211 O210 2.223 . S
Cd211 O214 2.297 . S
Cd211 O215 2.439 . S
Cd211 O221 2.240 . S
Cd212 O213 2.240 . S
Cd212 O220 2.223 . S
Cd212 O222 2.297 . S
Cd212 O223 2.439 . S
O213 Cd212 2.240 . S
O213 C218 1.279 . S
O214 Cd211 2.297 . S
O214 C216 1.247 . S
O215 Cd211 2.439 . S
O215 C216 1.208 . S
C216 O214 1.247 . S
C216 O215 1.208 . S
C217 O222 1.247 . S
C217 O223 1.208 . S
C218 O210 1.315 . S
C218 O213 1.279 . S
C219 O220 1.315 . S
C219 O221 1.279 . S
O220 Cd212 2.223 . S
O220 C219 1.315 . S
O221 Cd211 2.240 . S
O221 C219 1.279 . S
O222 Cd212 2.297 . S
O222 C217 1.247 . S
O223 Cd212 2.439 . S
O223 C217 1.208 . S
O224 Cd225 2.223 . S
O224 C232 1.315 . S
Cd225 O224 2.223 . S
Cd225 O228 2.297 . S
Cd225 O229 2.439 . S
Cd225 O235 2.240 . S
Cd226 O227 2.240 . S
Cd226 O234 2.223 . S
Cd226 O236 2.297 . S
Cd226 O237 2.439 . S
O227 Cd226 2.240 . S
O227 C232 1.279 . S
O228 Cd225 2.297 . S
O228 C230 1.247 . S
O229 Cd225 2.439 . S
O229 C230 1.208 . S
C230 O228 1.247 . S
C230 O229 1.208 . S
C231 O236 1.247 . S
C231 O237 1.208 . S
C232 O224 1.315 . S
C232 O227 1.279 . S
C233 O234 1.315 . S
C233 O235 1.279 . S
O234 Cd226 2.223 . S
O234 C233 1.315 . S
O235 Cd225 2.240 . S
O235 C233 1.279 . S
O236 Cd226 2.297 . S
O236 C231 1.247 . S
O237 Cd226 2.439 . S
O237 C231 1.208 . S
O238 Cd239 2.223 . S
O238 C246 1.315 . S
Cd239 O238 2.223 . S
Cd239 O242 2.297 . S
Cd239 O243 2.439 . S
Cd239 O249 2.240 . S
Cd240 O241 2.240 . S
Cd240 O248 2.223 . S
Cd240 O250 2.297 . S
Cd240 O251 2.439 . S
O241 Cd240 2.240 . S
O241 C246 1.279 . S
O242 Cd239 2.297 . S
O242 C244 1.247 . S
O243 Cd239 2.439 . S
O243 C244 1.208 . S
C244 O242 1.247 . S
C244 O243 1.208 . S
C245 O250 1.247 . S
C245 O251 1.208 . S
C246 O238 1.315 . S
C246 O241 1.279 . S
C247 O248 1.315 . S
C247 O249 1.279 . S
O248 Cd240 2.223 . S
O248 C247 1.315 . S
O249 Cd239 2.240 . S
O249 C247 1.279 . S
O250 Cd240 2.297 . S
O250 C245 1.247 . S
O251 Cd240 2.439 . S
O251 C245 1.208 . S
O252 Cd253 2.223 . S
O252 C260 1.315 . S
Cd253 O252 2.223 . S
Cd253 O256 2.297 . S
Cd253 O257 2.439 . S
Cd253 O263 2.240 . S
Cd254 O255 2.240 . S
Cd254 O262 2.223 . S
Cd254 O264 2.297 . S
Cd254 O265 2.439 . S
O255 Cd254 2.240 . S
O255 C260 1.279 . S
O256 Cd253 2.297 . S
O256 C258 1.247 . S
O257 Cd253 2.439 . S
O257 C258 1.208 . S
C258 O256 1.247 . S
C258 O257 1.208 . S
C259 O264 1.247 . S
C259 O265 1.208 . S
C260 O252 1.315 . S
C260 O255 1.279 . S
C261 O262 1.315 . S
C261 O263 1.279 . S
O262 Cd254 2.223 . S
O262 C261 1.315 . S
O263 Cd253 2.240 . S
O263 C261 1.279 . S
O264 Cd254 2.297 . S
O264 C259 1.247 . S
O265 Cd254 2.439 . S
O265 C259 1.208 . S
O266 Cd267 2.223 . S
O266 C274 1.315 . S
Cd267 O266 2.223 . S
Cd267 O270 2.297 1_545 S
Cd267 O271 2.439 1_545 S
Cd267 O277 2.240 . S
Cd268 O269 2.240 . S
Cd268 O276 2.223 . S
Cd268 O278 2.297 . S
Cd268 O279 2.439 . S
O269 Cd268 2.240 . S
O269 C274 1.279 . S
O270 Cd267 2.297 1_565 S
O270 C272 1.247 . S
O271 Cd267 2.439 1_565 S
O271 C272 1.208 . S
C272 O270 1.247 . S
C272 O271 1.208 . S
C273 O278 1.247 . S
C273 O279 1.208 . S
C274 O266 1.315 . S
C274 O269 1.279 . S
C275 O276 1.315 . S
C275 O277 1.279 . S
O276 Cd268 2.223 . S
O276 C275 1.315 . S
O277 Cd267 2.240 . S
O277 C275 1.279 . S
O278 Cd268 2.297 . S
O278 C273 1.247 . S
O279 Cd268 2.439 . S
O279 C273 1.208 . S
O280 Cd281 2.223 . S
O280 C288 1.315 . S
Cd281 O280 2.223 . S
Cd281 O284 2.297 . S
Cd281 O285 2.439 . S
Cd281 O291 2.240 . S
Cd282 O283 2.240 . S
Cd282 O290 2.223 . S
Cd282 O292 2.297 1_554 S
Cd282 O293 2.439 1_554 S
O283 Cd282 2.240 . S
O283 C288 1.279 . S
O284 Cd281 2.297 . S
O284 C286 1.247 . S
O285 Cd281 2.439 . S
O285 C286 1.208 . S
C286 O284 1.247 . S
C286 O285 1.208 . S
C287 O292 1.247 . S
C287 O293 1.208 . S
C288 O280 1.315 . S
C288 O283 1.279 . S
C289 O290 1.315 . S
C289 O291 1.279 . S
O290 Cd282 2.223 . S
O290 C289 1.315 . S
O291 Cd281 2.240 . S
O291 C289 1.279 . S
O292 Cd282 2.297 1_556 S
O292 C287 1.247 . S
O293 Cd282 2.439 1_556 S
O293 C287 1.208 . S
O294 Cd295 2.223 . S
O294 C302 1.315 . S
Cd295 O294 2.223 . S
Cd295 O298 2.297 . S
Cd295 O299 2.439 . S
Cd295 O305 2.240 . S
Cd296 O297 2.240 . S
Cd296 O304 2.223 . S
Cd296 O306 2.297 . S
Cd296 O307 2.439 . S
O297 Cd296 2.240 . S
O297 C302 1.279 . S
O298 Cd295 2.297 . S
O298 C300 1.247 . S
O299 Cd295 2.439 . S
O299 C300 1.208 . S
C300 O298 1.247 . S
C300 O299 1.208 . S
C301 O306 1.247 . S
C301 O307 1.208 . S
C302 O294 1.315 . S
C302 O297 1.279 . S
C303 O304 1.315 . S
C303 O305 1.279 . S
O304 Cd296 2.223 . S
O304 C303 1.315 . S
O305 Cd295 2.240 . S
O305 C303 1.279 . S
O306 Cd296 2.297 . S
O306 C301 1.247 . S
O307 Cd296 2.439 . S
O307 C301 1.208 . S
O308 Cd309 2.223 . S
O308 C316 1.315 . S
Cd309 O308 2.223 . S
Cd309 O312 2.297 . S
Cd309 O313 2.439 . S
Cd309 O319 2.240 . S
Cd310 O311 2.240 . S
Cd310 O318 2.223 . S
Cd310 O320 2.297 . S
Cd310 O321 2.439 . S
O311 Cd310 2.240 . S
O311 C316 1.279 . S
O312 Cd309 2.297 . S
O312 C314 1.247 . S
O313 Cd309 2.439 . S
O313 C314 1.208 . S
C314 O312 1.247 . S
C314 O313 1.208 . S
C315 O320 1.247 . S
C315 O321 1.208 . S
C316 O308 1.315 . S
C316 O311 1.279 . S
C317 O318 1.315 . S
C317 O319 1.279 . S
O318 Cd310 2.223 . S
O318 C317 1.315 . S
O319 Cd309 2.240 . S
O319 C317 1.279 . S
O320 Cd310 2.297 . S
O320 C315 1.247 . S
O321 Cd310 2.439 . S
O321 C315 1.208 . S
O322 Cd323 2.223 . S
O322 C330 1.315 . S
Cd323 O322 2.223 . S
Cd323 O326 2.297 . S
Cd323 O327 2.439 . S
Cd323 O333 2.240 . S
Cd324 O325 2.240 . S
Cd324 O332 2.223 . S
Cd324 O334 2.297 . S
Cd324 O335 2.439 . S
O325 Cd324 2.240 . S
O325 C330 1.279 . S
O326 Cd323 2.297 . S
O326 C328 1.247 . S
O327 Cd323 2.439 . S
O327 C328 1.208 . S
C328 O326 1.247 . S
C328 O327 1.208 . S
C329 O334 1.247 . S
C329 O335 1.208 . S
C330 O322 1.315 . S
C330 O325 1.279 . S
C331 O332 1.315 . S
C331 O333 1.279 . S
O332 Cd324 2.223 . S
O332 C331 1.315 . S
O333 Cd323 2.240 . S
O333 C331 1.279 . S
O334 Cd324 2.297 . S
O334 C329 1.247 . S
O335 Cd324 2.439 . S
O335 C329 1.208 . S
Dy336 O340 2.398 1_554 S
Dy336 O341 2.491 . S
Dy336 O342 2.429 1_554 S
Dy336 O343 2.664 1_655 S
Dy336 O347 2.326 1_655 S
Dy336 O351 2.310 1_655 S
Dy336 O352 2.351 . S
C337 O348 1.185 . S
C337 O349 1.355 . S
C338 O340 1.185 1_554 S
C338 O341 1.355 . S
Dy339 O343 2.310 . S
Dy339 O346 2.351 . S
Dy339 O348 2.398 . S
Dy339 O349 2.491 . S
Dy339 O350 2.403 . S
Dy339 O351 2.664 . S
Dy339 O353 2.326 . S
O340 Dy336 2.398 1_556 S
O340 C338 1.185 1_556 S
O341 Dy336 2.491 . S
O341 C338 1.355 . S
O342 Dy336 2.429 1_556 S
O342 C344 1.202 1_655 S
O343 Dy336 2.664 1_455 S
O343 Dy339 2.310 . S
O343 C344 1.268 1_554 S
C344 O342 1.202 1_455 S
C344 O343 1.268 1_556 S
C345 O350 1.254 . S
C345 O351 1.268 . S
O346 Dy339 2.351 . S
O346 C354 1.249 . S
O347 Dy336 2.326 1_455 S
O347 C354 1.267 . S
O348 C337 1.185 . S
O348 Dy339 2.398 . S
O349 C337 1.355 . S
O349 Dy339 2.491 . S
O350 Dy339 2.403 . S
O350 C345 1.254 . S
O351 Dy336 2.310 1_455 S
O351 Dy339 2.664 . S
O351 C345 1.268 . S
O352 Dy336 2.351 . S
O352 C355 1.258 1_655 S
O353 Dy339 2.326 . S
O353 C355 1.281 . S
C354 O346 1.249 . S
C354 O347 1.267 . S
C355 O352 1.258 1_455 S
C355 O353 1.281 . S
Dy356 O360 2.398 . S
Dy356 O361 2.491 . S
Dy356 O362 2.403 . S
Dy356 O363 2.664 . S
Dy356 O367 2.326 . S
Dy356 O371 2.310 . S
Dy356 O372 2.351 . S
C357 O368 1.185 . S
C357 O369 1.355 . S
C358 O360 1.185 . S
C358 O361 1.355 . S
Dy359 O363 2.310 . S
Dy359 O366 2.351 . S
Dy359 O368 2.398 . S
Dy359 O369 2.491 . S
Dy359 O370 2.403 . S
Dy359 O371 2.664 . S
Dy359 O373 2.326 . S
O360 Dy356 2.398 . S
O360 C358 1.185 . S
O361 Dy356 2.491 . S
O361 C358 1.355 . S
O362 Dy356 2.403 . S
O362 C364 1.254 . S
O363 Dy356 2.664 . S
O363 Dy359 2.310 . S
O363 C364 1.268 . S
C364 O362 1.254 . S
C364 O363 1.268 . S
C365 O370 1.254 . S
C365 O371 1.268 . S
O366 Dy359 2.351 . S
O366 C374 1.249 . S
O367 Dy356 2.326 . S
O367 C374 1.267 . S
O368 C357 1.185 . S
O368 Dy359 2.398 . S
O369 C357 1.355 . S
O369 Dy359 2.491 . S
O370 Dy359 2.403 . S
O370 C365 1.254 . S
O371 Dy356 2.310 . S
O371 Dy359 2.664 . S
O371 C365 1.268 . S
O372 Dy356 2.351 . S
O372 C375 1.249 . S
O373 Dy359 2.326 . S
O373 C375 1.267 . S
C374 O366 1.249 . S
C374 O367 1.267 . S
C375 O372 1.249 . S
C375 O373 1.267 . S
Dy376 O380 2.398 . S
Dy376 O381 2.491 . S
Dy376 O382 2.403 . S
Dy376 O383 2.664 . S
Dy376 O387 2.326 . S
Dy376 O391 2.310 . S
Dy376 O392 2.351 . S
C377 O388 1.185 . S
C377 O389 1.355 . S
C378 O380 1.185 . S
C378 O381 1.355 . S
Dy379 O383 2.310 . S
Dy379 O386 2.351 1_545 S
Dy379 O388 2.398 . S
Dy379 O389 2.491 . S
Dy379 O390 2.403 . S
Dy379 O391 2.664 . S
Dy379 O393 2.326 . S
O380 Dy376 2.398 . S
O380 C378 1.185 . S
O381 Dy376 2.491 . S
O381 C378 1.355 . S
O382 Dy376 2.403 . S
O382 C384 1.254 . S
O383 Dy376 2.664 . S
O383 Dy379 2.310 . S
O383 C384 1.268 . S
C384 O382 1.254 . S
C384 O383 1.268 . S
C385 O390 1.254 . S
C385 O391 1.268 . S
O386 Dy379 2.351 1_565 S
O386 C394 1.249 . S
O387 Dy376 2.326 . S
O387 C394 1.267 1_545 S
O388 C377 1.185 . S
O388 Dy379 2.398 . S
O389 C377 1.355 . S
O389 Dy379 2.491 . S
O390 Dy379 2.403 . S
O390 C385 1.254 . S
O391 Dy376 2.310 . S
O391 Dy379 2.664 . S
O391 C385 1.268 . S
O392 Dy376 2.351 . S
O392 C395 1.249 . S
O393 Dy379 2.326 . S
O393 C395 1.267 . S
C394 O386 1.249 . S
C394 O387 1.267 1_565 S
C395 O392 1.249 . S
C395 O393 1.267 . S
Dy396 O400 2.398 . S
Dy396 O401 2.491 . S
Dy396 O402 2.403 . S
Dy396 O403 2.664 . S
Dy396 O407 2.326 . S
Dy396 O411 2.310 . S
Dy396 O412 2.351 . S
C397 O408 1.185 . S
C397 O409 1.355 . S
C398 O400 1.185 . S
C398 O401 1.355 . S
Dy399 O403 2.310 . S
Dy399 O406 2.351 . S
Dy399 O408 2.398 . S
Dy399 O409 2.491 . S
Dy399 O410 2.403 . S
Dy399 O411 2.664 . S
Dy399 O413 2.326 . S
O400 Dy396 2.398 . S
O400 C398 1.185 . S
O401 Dy396 2.491 . S
O401 C398 1.355 . S
O402 Dy396 2.403 . S
O402 C404 1.254 . S
O403 Dy396 2.664 . S
O403 Dy399 2.310 . S
O403 C404 1.268 . S
C404 O402 1.254 . S
C404 O403 1.268 . S
C405 O410 1.254 . S
C405 O411 1.268 . S
O406 Dy399 2.351 . S
O406 C414 1.249 . S
O407 Dy396 2.326 . S
O407 C414 1.267 . S
O408 C397 1.185 . S
O408 Dy399 2.398 . S
O409 C397 1.355 . S
O409 Dy399 2.491 . S
O410 Dy399 2.403 . S
O410 C405 1.254 . S
O411 Dy396 2.310 . S
O411 Dy399 2.664 . S
O411 C405 1.268 . S
O412 Dy396 2.351 . S
O412 C415 1.249 . S
O413 Dy399 2.326 . S
O413 C415 1.267 . S
C414 O406 1.249 . S
C414 O407 1.267 . S
C415 O412 1.249 . S
C415 O413 1.267 . S
Dy416 O420 2.398 . S
Dy416 O421 2.491 1_455 S
Dy416 O422 2.403 . S
Dy416 O423 2.664 . S
Dy416 O427 2.326 . S
Dy416 O431 2.310 1_455 S
Dy416 O432 2.351 1_545 S
C417 O428 1.185 . S
C417 O429 1.355 . S
C418 O420 1.185 . S
C418 O421 1.355 1_455 S
Dy419 O423 2.310 . S
Dy419 O426 2.351 . S
Dy419 O428 2.398 . S
Dy419 O429 2.491 . S
Dy419 O430 2.403 1_455 S
Dy419 O431 2.664 1_455 S
Dy419 O433 2.326 . S
O420 Dy416 2.398 . S
O420 C418 1.185 . S
O421 Dy416 2.491 1_655 S
O421 C418 1.355 1_655 S
O422 Dy416 2.403 . S
O422 C424 1.254 . S
O423 Dy416 2.664 . S
O423 Dy419 2.310 . S
O423 C424 1.268 . S
C424 O422 1.254 . S
C424 O423 1.268 . S
C425 O430 1.254 . S
C425 O431 1.268 . S
O426 Dy419 2.351 . S
O426 C434 1.249 . S
O427 Dy416 2.326 . S
O427 C434 1.267 . S
O428 C417 1.185 . S
O428 Dy419 2.398 . S
O429 C417 1.355 . S
O429 Dy419 2.491 . S
O430 Dy419 2.403 1_655 S
O430 C425 1.254 . S
O431 Dy416 2.310 1_655 S
O431 Dy419 2.664 1_655 S
O431 C425 1.268 . S
O432 Dy416 2.351 1_565 S
O432 C435 1.249 . S
O433 Dy419 2.326 . S
O433 C435 1.267 1_545 S
C434 O426 1.249 . S
C434 O427 1.267 . S
C435 O432 1.249 . S
C435 O433 1.267 1_565 S
Dy436 O440 2.398 . S
Dy436 O441 2.491 . S
Dy436 O442 2.403 . S
Dy436 O443 2.664 . S
Dy436 O447 2.326 . S
Dy436 O451 2.310 . S
Dy436 O452 2.351 . S
C437 O448 1.185 . S
C437 O449 1.355 . S
C438 O440 1.185 . S
C438 O441 1.355 . S
Dy439 O443 2.310 . S
Dy439 O446 2.351 . S
Dy439 O448 2.398 . S
Dy439 O449 2.491 . S
Dy439 O450 2.403 . S
Dy439 O451 2.664 . S
Dy439 O453 2.326 . S
O440 Dy436 2.398 . S
O440 C438 1.185 . S
O441 Dy436 2.491 . S
O441 C438 1.355 . S
O442 Dy436 2.403 . S
O442 C444 1.254 . S
O443 Dy436 2.664 . S
O443 Dy439 2.310 . S
O443 C444 1.268 . S
C444 O442 1.254 . S
C444 O443 1.268 . S
C445 O450 1.254 . S
C445 O451 1.268 . S
O446 Dy439 2.351 . S
O446 C454 1.249 . S
O447 Dy436 2.326 . S
O447 C454 1.267 . S
O448 C437 1.185 . S
O448 Dy439 2.398 . S
O449 C437 1.355 . S
O449 Dy439 2.491 . S
O450 Dy439 2.403 . S
O450 C445 1.254 . S
O451 Dy436 2.310 . S
O451 Dy439 2.664 . S
O451 C445 1.268 . S
O452 Dy436 2.351 . S
O452 C455 1.249 . S
O453 Dy439 2.326 . S
O453 C455 1.267 . S
C454 O446 1.249 . S
C454 O447 1.267 . S
C455 O452 1.249 . S
C455 O453 1.267 . S
Dy456 O460 2.398 . S
Dy456 O461 2.491 . S
Dy456 O462 2.403 1_545 S
Dy456 O463 2.664 . S
Dy456 O467 2.326 . S
Dy456 O471 2.310 . S
Dy456 O472 2.351 . S
C457 O468 1.185 . S
C457 O469 1.355 . S
C458 O460 1.185 . S
C458 O461 1.355 . S
Dy459 O463 2.310 1_556 S
Dy459 O466 2.351 1_556 S
Dy459 O468 2.398 . S
Dy459 O469 2.491 . S
Dy459 O470 2.403 1_556 S
Dy459 O471 2.664 1_556 S
Dy459 O473 2.326 1_556 S
O460 Dy456 2.398 . S
O460 C458 1.185 . S
O461 Dy456 2.491 . S
O461 C458 1.355 . S
O462 Dy456 2.403 1_565 S
O462 C464 1.254 . S
O463 Dy456 2.664 . S
O463 Dy459 2.310 1_554 S
O463 C464 1.268 1_545 S
C464 O462 1.254 . S
C464 O463 1.268 1_565 S
C465 O470 1.254 . S
C465 O471 1.268 . S
O466 Dy459 2.351 1_554 S
O466 C474 1.249 . S
O467 Dy456 2.326 . S
O467 C474 1.267 . S
O468 C457 1.185 . S
O468 Dy459 2.398 . S
O469 C457 1.355 . S
O469 Dy459 2.491 . S
O470 Dy459 2.403 1_554 S
O470 C465 1.254 . S
O471 Dy456 2.310 . S
O471 Dy459 2.664 1_554 S
O471 C465 1.268 . S
O472 Dy456 2.351 . S
O472 C475 1.249 . S
O473 Dy459 2.326 1_554 S
O473 C475 1.267 . S
C474 O466 1.249 . S
C474 O467 1.267 . S
C475 O472 1.249 . S
C475 O473 1.267 . S
Dy476 O480 2.398 . S
Dy476 O481 2.491 . S
Dy476 O482 2.403 . S
Dy476 O483 2.664 . S
Dy476 O487 2.326 . S
Dy476 O491 2.310 . S
Dy476 O492 2.351 . S
C477 O488 1.185 . S
C477 O489 1.355 . S
C478 O480 1.185 . S
C478 O481 1.355 . S
Dy479 O483 2.310 . S
Dy479 O486 2.351 . S
Dy479 O488 2.398 . S
Dy479 O489 2.491 . S
Dy479 O490 2.403 . S
Dy479 O491 2.664 . S
Dy479 O493 2.326 . S
O480 Dy476 2.398 . S
O480 C478 1.185 . S
O481 Dy476 2.491 . S
O481 C478 1.355 . S
O482 Dy476 2.403 . S
O482 C484 1.254 . S
O483 Dy476 2.664 . S
O483 Dy479 2.310 . S
O483 C484 1.268 . S
C484 O482 1.254 . S
C484 O483 1.268 . S
C485 O490 1.254 . S
C485 O491 1.268 . S
O486 Dy479 2.351 . S
O486 C494 1.249 . S
O487 Dy476 2.326 . S
O487 C494 1.267 . S
O488 C477 1.185 . S
O488 Dy479 2.398 . S
O489 C477 1.355 . S
O489 Dy479 2.491 . S
O490 Dy479 2.403 . S
O490 C485 1.254 . S
O491 Dy476 2.310 . S
O491 Dy479 2.664 . S
O491 C485 1.268 . S
O492 Dy476 2.351 . S
O492 C495 1.249 . S
O493 Dy479 2.326 . S
O493 C495 1.267 . S
C494 O486 1.249 . S
C494 O487 1.267 . S
C495 O492 1.249 . S
C495 O493 1.267 . S
Dy496 O500 2.398 . S
Dy496 O501 2.491 . S
Dy496 O502 2.403 . S
Dy496 O503 2.664 1_556 S
Dy496 O507 2.326 . S
Dy496 O511 2.310 1_556 S
Dy496 O512 2.351 1_556 S
C497 O508 1.185 . S
C497 O509 1.355 . S
C498 O500 1.185 . S
C498 O501 1.355 . S
Dy499 O503 2.310 . S
Dy499 O506 2.351 . S
Dy499 O508 2.398 . S
Dy499 O509 2.491 . S
Dy499 O510 2.403 . S
Dy499 O511 2.664 . S
Dy499 O513 2.326 . S
O500 Dy496 2.398 . S
O500 C498 1.185 . S
O501 Dy496 2.491 . S
O501 C498 1.355 . S
O502 Dy496 2.403 . S
O502 C504 1.254 1_556 S
O503 Dy496 2.664 1_554 S
O503 Dy499 2.310 . S
O503 C504 1.268 . S
C504 O502 1.254 1_554 S
C504 O503 1.268 . S
C505 O510 1.254 . S
C505 O511 1.268 . S
O506 Dy499 2.351 . S
O506 C514 1.249 . S
O507 Dy496 2.326 . S
O507 C514 1.267 1_556 S
O508 C497 1.185 . S
O508 Dy499 2.398 . S
O509 C497 1.355 . S
O509 Dy499 2.491 . S
O510 Dy499 2.403 . S
O510 C505 1.254 . S
O511 Dy496 2.310 1_554 S
O511 Dy499 2.664 . S
O511 C505 1.268 . S
O512 Dy496 2.351 1_554 S
O512 C515 1.249 . S
O513 Dy499 2.326 . S
O513 C515 1.267 . S
C514 O506 1.249 . S
C514 O507 1.267 1_554 S
C515 O512 1.249 . S
C515 O513 1.267 . S
Dy516 O520 2.398 . S
Dy516 O521 2.491 . S
Dy516 O522 2.403 . S
Dy516 O523 2.664 . S
Dy516 O527 2.326 . S
Dy516 O531 2.310 . S
Dy516 O532 2.351 . S
C517 O528 1.185 . S
C517 O529 1.355 . S
C518 O520 1.185 . S
C518 O521 1.355 . S
Dy519 O523 2.310 . S
Dy519 O526 2.351 . S
Dy519 O528 2.398 . S
Dy519 O529 2.491 . S
Dy519 O530 2.403 . S
Dy519 O531 2.664 . S
Dy519 O533 2.326 . S
O520 Dy516 2.398 . S
O520 C518 1.185 . S
O521 Dy516 2.491 . S
O521 C518 1.355 . S
O522 Dy516 2.403 . S
O522 C524 1.254 . S
O523 Dy516 2.664 . S
O523 Dy519 2.310 . S
O523 C524 1.268 . S
C524 O522 1.254 . S
C524 O523 1.268 . S
C525 O530 1.254 . S
C525 O531 1.268 . S
O526 Dy519 2.351 . S
O526 C534 1.249 . S
O527 Dy516 2.326 . S
O527 C534 1.267 . S
O528 C517 1.185 . S
O528 Dy519 2.398 . S
O529 C517 1.355 . S
O529 Dy519 2.491 . S
O530 Dy519 2.403 . S
O530 C525 1.254 . S
O531 Dy516 2.310 . S
O531 Dy519 2.664 . S
O531 C525 1.268 . S
O532 Dy516 2.351 . S
O532 C535 1.249 . S
O533 Dy519 2.326 . S
O533 C535 1.267 . S
C534 O526 1.249 . S
C534 O527 1.267 . S
C535 O532 1.249 . S
C535 O533 1.267 . S
Dy536 O540 2.398 1_455 S
Dy536 O541 2.491 1_455 S
Dy536 O542 2.403 . S
Dy536 O543 2.664 . S
Dy536 O547 2.326 1_455 S
Dy536 O551 2.310 . S
Dy536 O552 2.351 . S
C537 O548 1.185 . S
C537 O549 1.355 . S
C538 O540 1.185 . S
C538 O541 1.355 . S
Dy539 O543 2.310 . S
Dy539 O546 2.351 1_455 S
Dy539 O548 2.398 . S
Dy539 O549 2.491 . S
Dy539 O550 2.403 . S
Dy539 O551 2.664 . S
Dy539 O553 2.326 . S
O540 Dy536 2.398 1_655 S
O540 C538 1.185 . S
O541 Dy536 2.491 1_655 S
O541 C538 1.355 . S
O542 Dy536 2.403 . S
O542 C544 1.254 . S
O543 Dy536 2.664 . S
O543 Dy539 2.310 . S
O543 C544 1.268 . S
C544 O542 1.254 . S
C544 O543 1.268 . S
C545 O550 1.254 . S
C545 O551 1.268 . S
O546 Dy539 2.351 1_655 S
O546 C554 1.249 . S
O547 Dy536 2.326 1_655 S
O547 C554 1.267 . S
O548 C537 1.185 . S
O548 Dy539 2.398 . S
O549 C537 1.355 . S
O549 Dy539 2.491 . S
O550 Dy539 2.403 . S
O550 C545 1.254 . S
O551 Dy536 2.310 . S
O551 Dy539 2.664 . S
O551 C545 1.268 . S
O552 Dy536 2.351 . S
O552 C555 1.249 . S
O553 Dy539 2.326 . S
O553 C555 1.267 . S
C554 O546 1.249 . S
C554 O547 1.267 . S
C555 O552 1.249 . S
C555 O553 1.267 . S
Dy556 O560 2.398 . S
Dy556 O561 2.491 . S
Dy556 O562 2.403 . S
Dy556 O563 2.664 . S
Dy556 O567 2.326 . S
Dy556 O571 2.310 . S
Dy556 O572 2.351 . S
C557 O568 1.185 . S
C557 O569 1.355 . S
C558 O560 1.185 . S
C558 O561 1.355 . S
Dy559 O563 2.310 . S
Dy559 O566 2.351 . S
Dy559 O568 2.398 . S
Dy559 O569 2.491 . S
Dy559 O570 2.403 . S
Dy559 O571 2.664 . S
Dy559 O573 2.326 . S
O560 Dy556 2.398 . S
O560 C558 1.185 . S
O561 Dy556 2.491 . S
O561 C558 1.355 . S
O562 Dy556 2.403 . S
O562 C564 1.254 . S
O563 Dy556 2.664 . S
O563 Dy559 2.310 . S
O563 C564 1.268 . S
C564 O562 1.254 . S
C564 O563 1.268 . S
C565 O570 1.254 . S
C565 O571 1.268 . S
O566 Dy559 2.351 . S
O566 C574 1.249 . S
O567 Dy556 2.326 . S
O567 C574 1.267 . S
O568 C557 1.185 . S
O568 Dy559 2.398 . S
O569 C557 1.355 . S
O569 Dy559 2.491 . S
O570 Dy559 2.403 . S
O570 C565 1.254 . S
O571 Dy556 2.310 . S
O571 Dy559 2.664 . S
O571 C565 1.268 . S
O572 Dy556 2.351 . S
O572 C575 1.249 . S
O573 Dy559 2.326 . S
O573 C575 1.267 . S
C574 O566 1.249 . S
C574 O567 1.267 . S
C575 O572 1.249 . S
C575 O573 1.267 . S
Dy576 O580 2.398 . S
Dy576 O581 2.491 . S
Dy576 O582 2.403 . S
Dy576 O583 2.664 . S
Dy576 O587 2.326 . S
Dy576 O591 2.310 . S
Dy576 O592 2.351 . S
C577 O588 1.185 . S
C577 O589 1.355 . S
C578 O580 1.185 . S
C578 O581 1.355 . S
Dy579 O583 2.310 . S
Dy579 O586 2.351 . S
Dy579 O588 2.398 . S
Dy579 O589 2.491 . S
Dy579 O590 2.403 . S
Dy579 O591 2.664 . S
Dy579 O593 2.326 . S
O580 Dy576 2.398 . S
O580 C578 1.185 . S
O581 Dy576 2.491 . S
O581 C578 1.355 . S
O582 Dy576 2.403 . S
O582 C584 1.254 . S
O583 Dy576 2.664 . S
O583 Dy579 2.310 . S
O583 C584 1.268 . S
C584 O582 1.254 . S
C584 O583 1.268 . S
C585 O590 1.254 . S
C585 O591 1.268 . S
O586 Dy579 2.351 . S
O586 C594 1.249 . S
O587 Dy576 2.326 . S
O587 C594 1.267 . S
O588 C577 1.185 . S
O588 Dy579 2.398 . S
O589 C577 1.355 . S
O589 Dy579 2.491 . S
O590 Dy579 2.403 . S
O590 C585 1.254 . S
O591 Dy576 2.310 . S
O591 Dy579 2.664 . S
O591 C585 1.268 . S
O592 Dy576 2.351 . S
O592 C595 1.249 . S
O593 Dy579 2.326 . S
O593 C595 1.267 . S
C594 O586 1.249 . S
C594 O587 1.267 . S
C595 O592 1.249 . S
C595 O593 1.267 . S
Dy596 O600 2.398 . S
Dy596 O601 2.491 . S
Dy596 O602 2.403 . S
Dy596 O603 2.664 . S
Dy596 O607 2.326 . S
Dy596 O611 2.310 . S
Dy596 O612 2.351 . S
C597 O608 1.185 . S
C597 O609 1.355 . S
C598 O600 1.185 . S
C598 O601 1.355 . S
Dy599 O603 2.310 . S
Dy599 O606 2.351 . S
Dy599 O608 2.398 . S
Dy599 O609 2.491 . S
Dy599 O610 2.403 . S
Dy599 O611 2.664 . S
Dy599 O613 2.326 . S
O600 Dy596 2.398 . S
O600 C598 1.185 . S
O601 Dy596 2.491 . S
O601 C598 1.355 . S
O602 Dy596 2.403 . S
O602 C604 1.254 . S
O603 Dy596 2.664 . S
O603 Dy599 2.310 . S
O603 C604 1.268 . S
C604 O602 1.254 . S
C604 O603 1.268 . S
C605 O610 1.254 . S
C605 O611 1.268 . S
O606 Dy599 2.351 . S
O606 C614 1.249 . S
O607 Dy596 2.326 . S
O607 C614 1.267 . S
O608 C597 1.185 . S
O608 Dy599 2.398 . S
O609 C597 1.355 . S
O609 Dy599 2.491 . S
O610 Dy599 2.403 . S
O610 C605 1.254 . S
O611 Dy596 2.310 . S
O611 Dy599 2.664 . S
O611 C605 1.268 . S
O612 Dy596 2.351 . S
O612 C615 1.249 . S
O613 Dy599 2.326 . S
O613 C615 1.267 . S
C614 O606 1.249 . S
C614 O607 1.267 . S
C615 O612 1.249 . S
C615 O613 1.267 . S
Dy616 O620 2.398 . S
Dy616 O621 2.491 . S
Dy616 O622 2.403 . S
Dy616 O623 2.664 . S
Dy616 O627 2.326 . S
Dy616 O631 2.310 . S
Dy616 O632 2.351 . S
C617 O628 1.185 . S
C617 O629 1.355 . S
C618 O620 1.185 . S
C618 O621 1.355 . S
Dy619 O623 2.310 . S
Dy619 O626 2.351 . S
Dy619 O628 2.398 . S
Dy619 O629 2.491 . S
Dy619 O630 2.403 . S
Dy619 O631 2.664 . S
Dy619 O633 2.326 . S
O620 Dy616 2.398 . S
O620 C618 1.185 . S
O621 Dy616 2.491 . S
O621 C618 1.355 . S
O622 Dy616 2.403 . S
O622 C624 1.254 . S
O623 Dy616 2.664 . S
O623 Dy619 2.310 . S
O623 C624 1.268 . S
C624 O622 1.254 . S
C624 O623 1.268 . S
C625 O630 1.254 . S
C625 O631 1.268 . S
O626 Dy619 2.351 . S
O626 C634 1.249 . S
O627 Dy616 2.326 . S
O627 C634 1.267 . S
O628 C617 1.185 . S
O628 Dy619 2.398 . S
O629 C617 1.355 . S
O629 Dy619 2.491 . S
O630 Dy619 2.403 . S
O630 C625 1.254 . S
O631 Dy616 2.310 . S
O631 Dy619 2.664 . S
O631 C625 1.268 . S
O632 Dy616 2.351 . S
O632 C635 1.249 . S
O633 Dy619 2.326 . S
O633 C635 1.267 . S
C634 O626 1.249 . S
C634 O627 1.267 . S
C635 O632 1.249 . S
C635 O633 1.267 . S
Dy636 O640 2.398 . S
Dy636 O641 2.491 . S
Dy636 O642 2.403 1_554 S
Dy636 O643 2.664 . S
Dy636 O647 2.326 . S
Dy636 O651 2.310 . S
Dy636 O652 2.351 . S
C637 O648 1.185 . S
C637 O649 1.355 . S
C638 O640 1.185 . S
C638 O641 1.355 . S
Dy639 O643 2.310 1_655 S
Dy639 O646 2.351 . S
Dy639 O648 2.398 . S
Dy639 O649 2.491 . S
Dy639 O650 2.417 . S
Dy639 O651 2.664 1_655 S
Dy639 O653 2.326 1_655 S
O640 Dy636 2.398 . S
O640 C638 1.185 . S
O641 Dy636 2.491 . S
O641 C638 1.355 . S
O642 Dy636 2.403 1_556 S
O642 C644 1.254 1_556 S
O643 Dy636 2.664 . S
O643 Dy639 2.310 1_455 S
O643 C644 1.268 . S
C644 O642 1.254 1_554 S
C644 O643 1.268 . S
C645 O650 1.217 1_455 S
C645 O651 1.268 . S
O646 Dy639 2.351 . S
O646 C654 1.249 1_655 S
O647 Dy636 2.326 . S
O647 C654 1.267 . S
O648 C637 1.185 . S
O648 Dy639 2.398 . S
O649 C637 1.355 . S
O649 Dy639 2.491 . S
O650 Dy639 2.417 . S
O650 C645 1.217 1_655 S
O651 Dy636 2.310 . S
O651 Dy639 2.664 1_455 S
O651 C645 1.268 . S
O652 Dy636 2.351 . S
O652 C655 1.249 . S
O653 Dy639 2.326 1_455 S
O653 C655 1.267 . S
C654 O646 1.249 1_455 S
C654 O647 1.267 . S
C655 O652 1.249 . S
C655 O653 1.267 . S
H656 C664 0.929 . S
H657 C666 0.925 . S
H658 C668 0.930 . S
H659 C671 0.929 . S
H660 C674 0.930 . S
H661 C676 0.960 . S
H662 C676 0.960 . S
H663 C676 0.960 . S
C664 H656 0.929 . S
C664 C665 1.377 1_655 S
C664 C666 1.398 . S
C665 C664 1.377 1_455 S
C665 C671 1.389 . S
C666 H657 0.925 . S
C666 C664 1.398 . S
C666 C667 1.366 1_655 S
C667 C666 1.366 1_455 S
C667 C668 1.400 . S
C667 C672 1.490 . S
C668 H658 0.930 . S
C668 C667 1.400 . S
C668 C671 1.386 . S
H669 C685 0.930 . S
H670 C686 0.931 . S
C671 H659 0.929 . S
C671 C665 1.389 . S
C671 C668 1.386 . S
C672 C667 1.490 . S
C672 C674 1.395 . S
C672 C675 1.403 1_455 S
H673 C679 0.930 . S
C674 H660 0.930 . S
C674 C672 1.395 . S
C674 C677 1.403 . S
C675 C672 1.403 1_655 S
C675 C676 1.524 . S
C675 C679 1.400 . S
C676 H661 0.960 . S
C676 H662 0.960 . S
C676 H663 0.960 . S
C676 C675 1.524 . S
C677 C674 1.403 . S
C677 C678 1.392 . S
C677 C681 1.495 . S
C678 C677 1.392 . S
C678 C679 1.385 1_455 S
C678 C680 1.478 . S
C679 H673 0.930 . S
C679 C675 1.400 . S
C679 C678 1.385 1_655 S
C680 C678 1.478 . S
C680 C682 1.381 . S
C680 C686 1.383 1_556 S
C681 C677 1.495 . S
C681 H687 0.959 . S
C681 H688 0.961 . S
C681 H689 0.960 . S
C682 C680 1.381 . S
C682 C683 1.394 . S
C682 H690 0.930 . S
C683 C682 1.394 . S
C683 C684 1.383 1_556 S
C683 H691 0.929 . S
C684 C683 1.383 1_554 S
C684 C685 1.377 . S
C685 H669 0.930 . S
C685 C684 1.377 . S
C685 C686 1.379 . S
C686 H670 0.931 . S
C686 C680 1.383 1_554 S
C686 C685 1.379 . S
H687 C681 0.959 . S
H688 C681 0.961 . S
H689 C681 0.960 . S
H690 C682 0.930 . S
H691 C683 0.929 . S
H692 C700 0.929 . S
H693 C702 0.930 . S
H694 C704 0.930 . S
H695 C707 0.929 . S
H696 C710 0.930 . S
H697 C712 0.960 . S
H698 C712 0.960 . S
H699 C712 0.960 . S
C700 H692 0.929 . S
C700 C701 1.377 . S
C700 C702 1.384 . S
C701 C700 1.377 . S
C701 C707 1.390 . S
C702 H693 0.930 . S
C702 C700 1.384 . S
C702 C703 1.372 . S
C703 C702 1.372 . S
C703 C704 1.400 . S
C703 C708 1.490 . S
C704 H694 0.930 . S
C704 C703 1.400 . S
C704 C707 1.386 . S
H705 C721 0.930 . S
H706 C722 0.931 . S
C707 H695 0.929 . S
C707 C701 1.390 . S
C707 C704 1.386 . S
C708 C703 1.490 . S
C708 C710 1.395 . S
C708 C711 1.403 . S
H709 C715 0.930 . S
C710 H696 0.930 . S
C710 C708 1.395 . S
C710 C713 1.403 . S
C711 C708 1.403 . S
C711 C712 1.524 . S
C711 C715 1.400 . S
C712 H697 0.960 . S
C712 H698 0.960 . S
C712 H699 0.960 . S
C712 C711 1.524 . S
C713 C710 1.403 . S
C713 C714 1.392 . S
C713 C717 1.495 . S
C714 C713 1.392 . S
C714 C715 1.385 . S
C714 C716 1.478 . S
C715 H709 0.930 . S
C715 C711 1.400 . S
C715 C714 1.385 . S
C716 C714 1.478 . S
C716 C718 1.381 . S
C716 C722 1.383 . S
C717 C713 1.495 . S
C717 H723 0.959 . S
C717 H724 0.961 . S
C717 H725 0.960 . S
C718 C716 1.381 . S
C718 C719 1.394 . S
C718 H726 0.930 . S
C719 C718 1.394 . S
C719 C720 1.383 . S
C719 H727 0.929 . S
C720 C719 1.383 . S
C720 C721 1.377 . S
C721 H705 0.930 . S
C721 C720 1.377 . S
C721 C722 1.379 . S
C722 H706 0.931 . S
C722 C716 1.383 . S
C722 C721 1.379 . S
H723 C717 0.959 . S
H724 C717 0.961 . S
H725 C717 0.960 . S
H726 C718 0.930 . S
H727 C719 0.929 . S
H728 C736 0.929 . S
H729 C738 0.930 . S
H730 C740 0.930 . S
H731 C743 0.929 . S
H732 C746 0.930 . S
H733 C748 0.960 . S
H734 C748 0.960 . S
H735 C748 0.960 . S
C736 H728 0.929 . S
C736 C737 1.377 . S
C736 C738 1.384 . S
C737 C736 1.377 . S
C737 C743 1.390 . S
C738 H729 0.930 . S
C738 C736 1.384 . S
C738 C739 1.372 . S
C739 C738 1.372 . S
C739 C740 1.400 . S
C739 C744 1.490 . S
C740 H730 0.930 . S
C740 C739 1.400 . S
C740 C743 1.386 . S
H741 C757 0.930 . S
H742 C758 0.931 . S
C743 H731 0.929 . S
C743 C737 1.390 . S
C743 C740 1.386 . S
C744 C739 1.490 . S
C744 C746 1.395 . S
C744 C747 1.403 . S
H745 C751 0.930 . S
C746 H732 0.930 . S
C746 C744 1.395 . S
C746 C749 1.403 . S
C747 C744 1.403 . S
C747 C748 1.524 . S
C747 C751 1.400 . S
C748 H733 0.960 . S
C748 H734 0.960 . S
C748 H735 0.960 . S
C748 C747 1.524 . S
C749 C746 1.403 . S
C749 C750 1.392 . S
C749 C753 1.495 . S
C750 C749 1.392 . S
C750 C751 1.385 . S
C750 C752 1.478 . S
C751 H745 0.930 . S
C751 C747 1.400 . S
C751 C750 1.385 . S
C752 C750 1.478 . S
C752 C754 1.381 . S
C752 C758 1.383 . S
C753 C749 1.495 . S
C753 H759 0.959 . S
C753 H760 0.961 . S
C753 H761 0.960 . S
C754 C752 1.381 . S
C754 C755 1.394 . S
C754 H762 0.930 . S
C755 C754 1.394 . S
C755 C756 1.383 . S
C755 H763 0.929 . S
C756 C755 1.383 . S
C756 C757 1.377 . S
C757 H741 0.930 . S
C757 C756 1.377 . S
C757 C758 1.379 . S
C758 H742 0.931 . S
C758 C752 1.383 . S
C758 C757 1.379 . S
H759 C753 0.959 . S
H760 C753 0.961 . S
H761 C753 0.960 . S
H762 C754 0.930 . S
H763 C755 0.929 . S
H764 C772 0.929 . S
H765 C774 0.930 . S
H766 C776 0.930 . S
H767 C779 0.929 . S
H768 C782 0.930 . S
H769 C784 0.960 . S
H770 C784 0.960 . S
H771 C784 0.960 . S
C772 H764 0.929 . S
C772 C773 1.377 . S
C772 C774 1.384 . S
C773 C772 1.377 . S
C773 C779 1.390 . S
C774 H765 0.930 . S
C774 C772 1.384 . S
C774 C775 1.372 . S
C775 C774 1.372 . S
C775 C776 1.400 . S
C775 C780 1.490 . S
C776 H766 0.930 . S
C776 C775 1.400 . S
C776 C779 1.386 . S
H777 C793 0.930 . S
H778 C794 0.931 . S
C779 H767 0.929 . S
C779 C773 1.390 . S
C779 C776 1.386 . S
C780 C775 1.490 . S
C780 C782 1.395 . S
C780 C783 1.403 . S
H781 C787 0.930 . S
C782 H768 0.930 . S
C782 C780 1.395 . S
C782 C785 1.403 . S
C783 C780 1.403 . S
C783 C784 1.524 . S
C783 C787 1.400 . S
C784 H769 0.960 . S
C784 H770 0.960 . S
C784 H771 0.960 . S
C784 C783 1.524 . S
C785 C782 1.403 . S
C785 C786 1.392 . S
C785 C789 1.495 . S
C786 C785 1.392 . S
C786 C787 1.385 . S
C786 C788 1.478 . S
C787 H781 0.930 . S
C787 C783 1.400 . S
C787 C786 1.385 . S
C788 C786 1.478 . S
C788 C790 1.381 . S
C788 C794 1.383 . S
C789 C785 1.495 . S
C789 H795 0.959 . S
C789 H796 0.961 . S
C789 H797 0.960 . S
C790 C788 1.381 . S
C790 C791 1.394 . S
C790 H798 0.930 . S
C791 C790 1.394 . S
C791 C792 1.383 . S
C791 H799 0.929 . S
C792 C791 1.383 . S
C792 C793 1.377 . S
C793 H777 0.930 . S
C793 C792 1.377 . S
C793 C794 1.379 . S
C794 H778 0.931 . S
C794 C788 1.383 . S
C794 C793 1.379 . S
H795 C789 0.959 . S
H796 C789 0.961 . S
H797 C789 0.960 . S
H798 C790 0.930 . S
H799 C791 0.929 . S
H800 C808 0.929 . S
H801 C810 0.930 . S
H802 C812 0.930 1_655 S
H803 C815 0.929 1_655 S
H804 C818 0.930 . S
H805 C820 0.960 . S
H806 C820 0.960 1_455 S
H807 C820 0.960 . S
C808 H800 0.929 . S
C808 C809 1.377 . S
C808 C810 1.384 . S
C809 C808 1.377 . S
C809 C815 1.390 . S
C810 H801 0.930 . S
C810 C808 1.384 . S
C810 C811 1.372 . S
C811 C810 1.372 . S
C811 C812 1.400 . S
C811 C816 1.490 . S
C812 H802 0.930 1_455 S
C812 C811 1.400 . S
C812 C815 1.386 . S
H813 C829 0.930 . S
H814 C830 0.931 . S
C815 H803 0.929 1_455 S
C815 C809 1.390 . S
C815 C812 1.386 . S
C816 C811 1.490 . S
C816 C818 1.395 . S
C816 C819 1.403 . S
H817 C823 0.930 . S
C818 H804 0.930 . S
C818 C816 1.395 . S
C818 C821 1.403 . S
C819 C816 1.403 . S
C819 C820 1.524 1_455 S
C819 C823 1.400 . S
C820 H805 0.960 . S
C820 H806 0.960 1_655 S
C820 H807 0.960 . S
C820 C819 1.524 1_655 S
C821 C818 1.403 . S
C821 C822 1.392 . S
C821 C825 1.495 . S
C822 C821 1.392 . S
C822 C823 1.385 . S
C822 C824 1.478 . S
C823 H817 0.930 . S
C823 C819 1.400 . S
C823 C822 1.385 . S
C824 C822 1.478 . S
C824 C826 1.381 . S
C824 C830 1.383 . S
C825 C821 1.495 . S
C825 H831 0.959 . S
C825 H832 0.961 . S
C825 H833 0.960 . S
C826 C824 1.381 . S
C826 C827 1.394 . S
C826 H834 0.930 . S
C827 C826 1.394 . S
C827 C828 1.383 . S
C827 H835 0.929 . S
C828 C827 1.383 . S
C828 C829 1.377 . S
C829 H813 0.930 . S
C829 C828 1.377 . S
C829 C830 1.379 . S
C830 H814 0.931 . S
C830 C824 1.383 . S
C830 C829 1.379 . S
H831 C825 0.959 . S
H832 C825 0.961 . S
H833 C825 0.960 . S
H834 C826 0.930 . S
H835 C827 0.929 . S
H836 C844 0.929 . S
H837 C846 0.930 . S
H838 C848 0.930 . S
H839 C851 0.929 . S
H840 C854 0.930 . S
H841 C856 0.960 . S
H842 C856 0.960 . S
H843 C856 0.960 . S
C844 H836 0.929 . S
C844 C845 1.377 . S
C844 C846 1.384 . S
C845 C844 1.377 . S
C845 C851 1.390 . S
C846 H837 0.930 . S
C846 C844 1.384 . S
C846 C847 1.372 . S
C847 C846 1.372 . S
C847 C848 1.400 . S
C847 C852 1.490 . S
C848 H838 0.930 . S
C848 C847 1.400 . S
C848 C851 1.386 . S
H849 C865 0.930 . S
H850 C866 0.931 . S
C851 H839 0.929 . S
C851 C845 1.390 . S
C851 C848 1.386 . S
C852 C847 1.490 . S
C852 C854 1.395 . S
C852 C855 1.403 . S
H853 C859 0.930 . S
C854 H840 0.930 . S
C854 C852 1.395 . S
C854 C857 1.403 . S
C855 C852 1.403 . S
C855 C856 1.524 . S
C855 C859 1.400 . S
C856 H841 0.960 . S
C856 H842 0.960 . S
C856 H843 0.960 . S
C856 C855 1.524 . S
C857 C854 1.403 . S
C857 C858 1.392 . S
C857 C861 1.495 . S
C858 C857 1.392 . S
C858 C859 1.385 . S
C858 C860 1.478 . S
C859 H853 0.930 . S
C859 C855 1.400 . S
C859 C858 1.385 . S
C860 C858 1.478 . S
C860 C862 1.381 . S
C860 C866 1.383 . S
C861 C857 1.495 . S
C861 H867 0.959 . S
C861 H868 0.961 . S
C861 H869 0.960 . S
C862 C860 1.381 . S
C862 C863 1.394 . S
C862 H870 0.930 . S
C863 C862 1.394 . S
C863 C864 1.383 . S
C863 H871 0.929 . S
C864 C863 1.383 . S
C864 C865 1.377 . S
C865 H849 0.930 . S
C865 C864 1.377 . S
C865 C866 1.379 . S
C866 H850 0.931 . S
C866 C860 1.383 . S
C866 C865 1.379 . S
H867 C861 0.959 . S
H868 C861 0.961 . S
H869 C861 0.960 . S
H870 C862 0.930 . S
H871 C863 0.929 . S
H872 C880 0.929 . S
H873 C882 0.930 . S
H874 C884 0.930 . S
H875 C887 0.929 . S
H876 C890 0.930 . S
H877 C892 0.960 . S
H878 C892 0.960 . S
H879 C892 0.960 . S
C880 H872 0.929 . S
C880 C881 1.377 . S
C880 C882 1.384 . S
C881 C880 1.377 . S
C881 C887 1.390 . S
C882 H873 0.930 . S
C882 C880 1.384 . S
C882 C883 1.372 . S
C883 C882 1.372 . S
C883 C884 1.400 . S
C883 C888 1.490 . S
C884 H874 0.930 . S
C884 C883 1.400 . S
C884 C887 1.386 . S
H885 C901 0.930 . S
H886 C902 0.931 . S
C887 H875 0.929 . S
C887 C881 1.390 . S
C887 C884 1.386 . S
C888 C883 1.490 . S
C888 C890 1.395 . S
C888 C891 1.403 . S
H889 C895 0.930 . S
C890 H876 0.930 . S
C890 C888 1.395 . S
C890 C893 1.403 . S
C891 C888 1.403 . S
C891 C892 1.524 . S
C891 C895 1.400 . S
C892 H877 0.960 . S
C892 H878 0.960 . S
C892 H879 0.960 . S
C892 C891 1.524 . S
C893 C890 1.403 . S
C893 C894 1.392 . S
C893 C897 1.495 . S
C894 C893 1.392 . S
C894 C895 1.385 . S
C894 C896 1.478 . S
C895 H889 0.930 . S
C895 C891 1.400 . S
C895 C894 1.385 . S
C896 C894 1.478 . S
C896 C898 1.381 . S
C896 C902 1.383 . S
C897 C893 1.495 . S
C897 H903 0.959 . S
C897 H904 0.961 . S
C897 H905 0.960 . S
C898 C896 1.381 . S
C898 C899 1.394 . S
C898 H906 0.930 . S
C899 C898 1.394 . S
C899 C900 1.383 . S
C899 H907 0.929 . S
C900 C899 1.383 . S
C900 C901 1.377 . S
C901 H885 0.930 . S
C901 C900 1.377 . S
C901 C902 1.379 . S
C902 H886 0.931 . S
C902 C896 1.383 . S
C902 C901 1.379 . S
H903 C897 0.959 . S
H904 C897 0.961 . S
H905 C897 0.960 . S
H906 C898 0.930 . S
H907 C899 0.929 . S
H908 C916 0.929 . S
H909 C918 0.930 . S
H910 C920 0.930 . S
H911 C923 0.929 . S
H912 C926 0.930 . S
H913 C928 0.960 . S
H914 C928 0.960 . S
H915 C928 0.960 . S
C916 H908 0.929 . S
C916 C917 1.377 . S
C916 C918 1.384 . S
C917 C916 1.377 . S
C917 C923 1.390 . S
C918 H909 0.930 . S
C918 C916 1.384 . S
C918 C919 1.372 . S
C919 C918 1.372 . S
C919 C920 1.400 . S
C919 C924 1.490 . S
C920 H910 0.930 . S
C920 C919 1.400 . S
C920 C923 1.386 . S
H921 C937 0.930 . S
H922 C938 0.931 . S
C923 H911 0.929 . S
C923 C917 1.390 . S
C923 C920 1.386 . S
C924 C919 1.490 . S
C924 C926 1.395 . S
C924 C927 1.403 . S
H925 C931 0.930 . S
C926 H912 0.930 . S
C926 C924 1.395 . S
C926 C929 1.403 . S
C927 C924 1.403 . S
C927 C928 1.524 . S
C927 C931 1.400 . S
C928 H913 0.960 . S
C928 H914 0.960 . S
C928 H915 0.960 . S
C928 C927 1.524 . S
C929 C926 1.403 . S
C929 C930 1.392 . S
C929 C933 1.495 . S
C930 C929 1.392 . S
C930 C931 1.385 . S
C930 C932 1.478 . S
C931 H925 0.930 . S
C931 C927 1.400 . S
C931 C930 1.385 . S
C932 C930 1.478 . S
C932 C934 1.381 . S
C932 C938 1.383 . S
C933 C929 1.495 . S
C933 H939 0.959 . S
C933 H940 0.961 . S
C933 H941 0.960 . S
C934 C932 1.381 . S
C934 C935 1.394 . S
C934 H942 0.930 . S
C935 C934 1.394 . S
C935 C936 1.383 . S
C935 H943 0.929 . S
C936 C935 1.383 . S
C936 C937 1.377 . S
C937 H921 0.930 . S
C937 C936 1.377 . S
C937 C938 1.379 . S
C938 H922 0.931 . S
C938 C932 1.383 . S
C938 C937 1.379 . S
H939 C933 0.959 . S
H940 C933 0.961 . S
H941 C933 0.960 . S
H942 C934 0.930 . S
H943 C935 0.929 . S
H944 C952 0.929 . S
H945 C954 0.930 . S
H946 C956 0.930 . S
H947 C959 0.929 . S
H948 C962 0.930 . S
H949 C964 0.960 . S
H950 C964 0.960 . S
H951 C964 0.960 . S
C952 H944 0.929 . S
C952 C953 1.377 . S
C952 C954 1.384 . S
C953 C952 1.377 . S
C953 C959 1.390 . S
C954 H945 0.930 . S
C954 C952 1.384 . S
C954 C955 1.372 . S
C955 C954 1.372 . S
C955 C956 1.400 . S
C955 C960 1.490 . S
C956 H946 0.930 . S
C956 C955 1.400 . S
C956 C959 1.386 . S
H957 C973 0.930 . S
H958 C974 0.931 . S
C959 H947 0.929 . S
C959 C953 1.390 . S
C959 C956 1.386 . S
C960 C955 1.490 . S
C960 C962 1.395 . S
C960 C963 1.403 . S
H961 C967 0.930 . S
C962 H948 0.930 . S
C962 C960 1.395 . S
C962 C965 1.403 . S
C963 C960 1.403 . S
C963 C964 1.524 . S
C963 C967 1.400 . S
C964 H949 0.960 . S
C964 H950 0.960 . S
C964 H951 0.960 . S
C964 C963 1.524 . S
C965 C962 1.403 . S
C965 C966 1.392 . S
C965 C969 1.495 . S
C966 C965 1.392 . S
C966 C967 1.385 . S
C966 C968 1.478 . S
C967 H961 0.930 . S
C967 C963 1.400 . S
C967 C966 1.385 . S
C968 C966 1.478 . S
C968 C970 1.381 . S
C968 C974 1.383 . S
C969 C965 1.495 . S
C969 H975 0.959 . S
C969 H976 0.961 . S
C969 H977 0.951 1_655 S
C970 C968 1.381 . S
C970 C971 1.394 1_655 S
C970 H978 0.930 1_655 S
C971 C970 1.394 1_455 S
C971 C972 1.383 1_455 S
C971 H979 0.929 . S
C972 C971 1.383 1_655 S
C972 C973 1.377 . S
C973 H957 0.930 . S
C973 C972 1.377 . S
C973 C974 1.379 . S
C974 H958 0.931 . S
C974 C968 1.383 . S
C974 C973 1.379 . S
H975 C969 0.959 . S
H976 C969 0.961 . S
H977 C969 0.951 1_455 S
H978 C970 0.930 1_455 S
H979 C971 0.929 . S
H980 C988 0.929 . S
H981 C990 0.930 . S
H982 C992 0.930 . S
H983 C995 0.929 . S
H984 C998 0.930 . S
H985 C1000 0.960 . S
H986 C1000 0.960 . S
H987 C1000 0.960 . S
C988 H980 0.929 . S
C988 C989 1.377 . S
C988 C990 1.384 . S
C989 C988 1.377 . S
C989 C995 1.390 . S
C990 H981 0.930 . S
C990 C988 1.384 . S
C990 C991 1.372 . S
C991 C990 1.372 . S
C991 C992 1.400 . S
C991 C996 1.490 . S
C992 H982 0.930 . S
C992 C991 1.400 . S
C992 C995 1.386 . S
H993 C1009 0.930 . S
H994 C1010 0.931 . S
C995 H983 0.929 . S
C995 C989 1.390 . S
C995 C992 1.386 . S
C996 C991 1.490 . S
C996 C998 1.395 . S
C996 C999 1.403 . S
H997 C1003 0.930 . S
C998 H984 0.930 . S
C998 C996 1.395 . S
C998 C1001 1.403 . S
C999 C996 1.403 . S
C999 C1000 1.524 . S
C999 C1003 1.400 . S
C1000 H985 0.960 . S
C1000 H986 0.960 . S
C1000 H987 0.960 . S
C1000 C999 1.524 . S
C1001 C998 1.403 . S
C1001 C1002 1.392 . S
C1001 C1005 1.495 . S
C1002 C1001 1.392 . S
C1002 C1003 1.385 . S
C1002 C1004 1.478 . S
C1003 H997 0.930 . S
C1003 C999 1.400 . S
C1003 C1002 1.385 . S
C1004 C1002 1.478 . S
C1004 C1006 1.381 . S
C1004 C1010 1.383 . S
C1005 C1001 1.495 . S
C1005 H1011 0.959 . S
C1005 H1012 0.961 . S
C1005 H1013 0.960 . S
C1006 C1004 1.381 . S
C1006 C1007 1.394 . S
C1006 H1014 0.930 . S
C1007 C1006 1.394 . S
C1007 C1008 1.383 . S
C1007 H1015 0.929 . S
C1008 C1007 1.383 . S
C1008 C1009 1.377 . S
C1009 H993 0.930 . S
C1009 C1008 1.377 . S
C1009 C1010 1.379 . S
C1010 H994 0.931 . S
C1010 C1004 1.383 . S
C1010 C1009 1.379 . S
H1011 C1005 0.959 . S
H1012 C1005 0.961 . S
H1013 C1005 0.960 . S
H1014 C1006 0.930 . S
H1015 C1007 0.929 . S
H1016 C1024 0.929 . S
H1017 C1026 0.930 . S
H1018 C1028 0.930 . S
H1019 C1031 0.929 . S
H1020 C1034 0.930 . S
H1021 C1036 0.960 . S
H1022 C1036 0.960 . S
H1023 C1036 0.960 . S
C1024 H1016 0.929 . S
C1024 C1025 1.377 . S
C1024 C1026 1.384 . S
C1025 C1024 1.377 . S
C1025 C1031 1.390 . S
C1026 H1017 0.930 . S
C1026 C1024 1.384 . S
C1026 C1027 1.372 . S
C1027 C1026 1.372 . S
C1027 C1028 1.400 . S
C1027 C1032 1.490 . S
C1028 H1018 0.930 . S
C1028 C1027 1.400 . S
C1028 C1031 1.386 . S
H1029 C1045 0.930 . S
H1030 C1046 0.931 . S
C1031 H1019 0.929 . S
C1031 C1025 1.390 . S
C1031 C1028 1.386 . S
C1032 C1027 1.490 . S
C1032 C1034 1.395 . S
C1032 C1035 1.403 . S
H1033 C1039 0.930 . S
C1034 H1020 0.930 . S
C1034 C1032 1.395 . S
C1034 C1037 1.403 . S
C1035 C1032 1.403 . S
C1035 C1036 1.524 . S
C1035 C1039 1.400 . S
C1036 H1021 0.960 . S
C1036 H1022 0.960 . S
C1036 H1023 0.960 . S
C1036 C1035 1.524 . S
C1037 C1034 1.403 . S
C1037 C1038 1.392 . S
C1037 C1041 1.495 . S
C1038 C1037 1.392 . S
C1038 C1039 1.385 . S
C1038 C1040 1.478 . S
C1039 H1033 0.930 . S
C1039 C1035 1.400 . S
C1039 C1038 1.385 . S
C1040 C1038 1.478 . S
C1040 C1042 1.381 . S
C1040 C1046 1.383 . S
C1041 C1037 1.495 . S
C1041 H1047 0.959 1_545 S
C1041 H1048 0.961 1_545 S
C1041 H1049 0.960 . S
C1042 C1040 1.381 . S
C1042 C1043 1.394 . S
C1042 H1050 0.930 . S
C1043 C1042 1.394 . S
C1043 C1044 1.383 . S
C1043 H1051 0.929 . S
C1044 C1043 1.383 . S
C1044 C1045 1.377 . S
C1045 H1029 0.930 . S
C1045 C1044 1.377 . S
C1045 C1046 1.379 . S
C1046 H1030 0.931 . S
C1046 C1040 1.383 . S
C1046 C1045 1.379 . S
H1047 C1041 0.959 1_565 S
H1048 C1041 0.961 1_565 S
H1049 C1041 0.960 . S
H1050 C1042 0.930 . S
H1051 C1043 0.929 . S
H1052 C1060 0.929 . S
H1053 C1062 0.930 . S
H1054 C1064 0.930 . S
H1055 C1067 0.929 . S
H1056 C1070 0.930 . S
H1057 C1072 0.960 . S
H1058 C1072 0.960 . S
H1059 C1072 0.960 . S
C1060 H1052 0.929 . S
C1060 C1061 1.377 . S
C1060 C1062 1.384 . S
C1061 C1060 1.377 . S
C1061 C1067 1.390 . S
C1062 H1053 0.930 . S
C1062 C1060 1.384 . S
C1062 C1063 1.372 . S
C1063 C1062 1.372 . S
C1063 C1064 1.400 . S
C1063 C1068 1.490 . S
C1064 H1054 0.930 . S
C1064 C1063 1.400 . S
C1064 C1067 1.386 . S
H1065 C1081 0.930 . S
H1066 C1082 0.931 . S
C1067 H1055 0.929 . S
C1067 C1061 1.390 . S
C1067 C1064 1.386 . S
C1068 C1063 1.490 . S
C1068 C1070 1.395 . S
C1068 C1071 1.403 . S
H1069 C1075 0.930 . S
C1070 H1056 0.930 . S
C1070 C1068 1.395 . S
C1070 C1073 1.403 . S
C1071 C1068 1.403 . S
C1071 C1072 1.524 . S
C1071 C1075 1.400 . S
C1072 H1057 0.960 . S
C1072 H1058 0.960 . S
C1072 H1059 0.960 . S
C1072 C1071 1.524 . S
C1073 C1070 1.403 . S
C1073 C1074 1.392 . S
C1073 C1077 1.495 . S
C1074 C1073 1.392 . S
C1074 C1075 1.385 . S
C1074 C1076 1.478 . S
C1075 H1069 0.930 . S
C1075 C1071 1.400 . S
C1075 C1074 1.385 . S
C1076 C1074 1.478 . S
C1076 C1078 1.381 . S
C1076 C1082 1.383 . S
C1077 C1073 1.495 . S
C1077 H1083 0.959 . S
C1077 H1084 0.961 . S
C1077 H1085 0.960 . S
C1078 C1076 1.381 . S
C1078 C1079 1.394 . S
C1078 H1086 0.930 . S
C1079 C1078 1.394 . S
C1079 C1080 1.383 . S
C1079 H1087 0.929 . S
C1080 C1079 1.383 . S
C1080 C1081 1.377 . S
C1081 H1065 0.930 . S
C1081 C1080 1.377 . S
C1081 C1082 1.379 . S
C1082 H1066 0.931 . S
C1082 C1076 1.383 . S
C1082 C1081 1.379 . S
H1083 C1077 0.959 . S
H1084 C1077 0.961 . S
H1085 C1077 0.960 . S
H1086 C1078 0.930 . S
H1087 C1079 0.929 . S
H1088 C1096 0.929 . S
H1089 C1098 0.930 . S
H1090 C1100 0.930 . S
H1091 C1103 0.929 . S
H1092 C1106 0.930 . S
H1093 C1108 0.960 . S
H1094 C1108 0.960 . S
H1095 C1108 0.960 . S
C1096 H1088 0.929 . S
C1096 C1097 1.377 . S
C1096 C1098 1.384 . S
C1097 C1096 1.377 . S
C1097 C1103 1.390 . S
C1098 H1089 0.930 . S
C1098 C1096 1.384 . S
C1098 C1099 1.372 . S
C1099 C1098 1.372 . S
C1099 C1100 1.400 . S
C1099 C1104 1.490 . S
C1100 H1090 0.930 . S
C1100 C1099 1.400 . S
C1100 C1103 1.386 . S
H1101 C1117 0.930 . S
H1102 C1118 0.931 . S
C1103 H1091 0.929 . S
C1103 C1097 1.390 . S
C1103 C1100 1.386 . S
C1104 C1099 1.490 . S
C1104 C1106 1.395 . S
C1104 C1107 1.403 . S
H1105 C1111 0.930 . S
C1106 H1092 0.930 . S
C1106 C1104 1.395 . S
C1106 C1109 1.403 . S
C1107 C1104 1.403 . S
C1107 C1108 1.524 . S
C1107 C1111 1.400 . S
C1108 H1093 0.960 . S
C1108 H1094 0.960 . S
C1108 H1095 0.960 . S
C1108 C1107 1.524 . S
C1109 C1106 1.403 . S
C1109 C1110 1.392 . S
C1109 C1113 1.495 . S
C1110 C1109 1.392 . S
C1110 C1111 1.385 . S
C1110 C1112 1.478 . S
C1111 H1105 0.930 . S
C1111 C1107 1.400 . S
C1111 C1110 1.385 . S
C1112 C1110 1.478 . S
C1112 C1114 1.381 . S
C1112 C1118 1.383 . S
C1113 C1109 1.495 . S
C1113 H1119 0.959 . S
C1113 H1120 0.961 . S
C1113 H1121 0.960 . S
C1114 C1112 1.381 . S
C1114 C1115 1.394 . S
C1114 H1122 0.930 . S
C1115 C1114 1.394 . S
C1115 C1116 1.394 . S
C1115 H1123 0.929 . S
C1116 C1115 1.394 . S
C1116 C1117 1.379 . S
C1117 H1101 0.930 . S
C1117 C1116 1.379 . S
C1117 C1118 1.379 . S
C1118 H1102 0.931 . S
C1118 C1112 1.383 . S
C1118 C1117 1.379 . S
H1119 C1113 0.959 . S
H1120 C1113 0.961 . S
H1121 C1113 0.960 . S
H1122 C1114 0.930 . S
H1123 C1115 0.929 . S
H1124 C1132 0.929 . S
H1125 C1134 0.930 . S
H1126 C1136 0.930 . S
H1127 C1139 0.929 . S
H1128 C1142 0.930 . S
H1129 C1144 0.960 . S
H1130 C1144 0.960 . S
H1131 C1144 0.960 . S
C1132 H1124 0.929 . S
C1132 C1133 1.377 . S
C1132 C1134 1.384 . S
C1133 C1132 1.377 . S
C1133 C1139 1.390 . S
C1134 H1125 0.930 . S
C1134 C1132 1.384 . S
C1134 C1135 1.372 . S
C1135 C1134 1.372 . S
C1135 C1136 1.400 . S
C1135 C1140 1.490 . S
C1136 H1126 0.930 . S
C1136 C1135 1.400 . S
C1136 C1139 1.386 . S
H1137 C1153 0.930 . S
H1138 C1154 0.931 . S
C1139 H1127 0.929 . S
C1139 C1133 1.390 . S
C1139 C1136 1.386 . S
C1140 C1135 1.490 . S
C1140 C1142 1.395 . S
C1140 C1143 1.403 . S
H1141 C1147 0.930 . S
C1142 H1128 0.930 . S
C1142 C1140 1.395 . S
C1142 C1145 1.403 . S
C1143 C1140 1.403 . S
C1143 C1144 1.524 . S
C1143 C1147 1.400 . S
C1144 H1129 0.960 . S
C1144 H1130 0.960 . S
C1144 H1131 0.960 . S
C1144 C1143 1.524 . S
C1145 C1142 1.403 . S
C1145 C1146 1.392 . S
C1145 C1149 1.495 . S
C1146 C1145 1.392 . S
C1146 C1147 1.385 . S
C1146 C1148 1.478 . S
C1147 H1141 0.930 . S
C1147 C1143 1.400 . S
C1147 C1146 1.385 . S
C1148 C1146 1.478 . S
C1148 C1150 1.381 . S
C1148 C1154 1.383 . S
C1149 C1145 1.495 . S
C1149 H1155 0.959 . S
C1149 H1156 0.961 . S
C1149 H1157 0.960 . S
C1150 C1148 1.381 . S
C1150 C1151 1.394 . S
C1150 H1158 0.930 . S
C1151 C1150 1.394 . S
C1151 C1152 1.383 . S
C1151 H1159 0.929 . S
C1152 C1151 1.383 . S
C1152 C1153 1.377 . S
C1153 H1137 0.930 . S
C1153 C1152 1.377 . S
C1153 C1154 1.379 . S
C1154 H1138 0.931 . S
C1154 C1148 1.383 . S
C1154 C1153 1.379 . S
H1155 C1149 0.959 . S
H1156 C1149 0.961 . S
H1157 C1149 0.960 . S
H1158 C1150 0.930 . S
H1159 C1151 0.929 . S
H1160 C1168 0.929 . S
H1161 C1170 0.930 . S
H1162 C1172 0.930 . S
H1163 C1175 0.929 . S
H1164 C1178 0.930 . S
H1165 C1180 0.960 . S
H1166 C1180 0.960 . S
H1167 C1180 0.960 . S
C1168 H1160 0.929 . S
C1168 C1169 1.377 . S
C1168 C1170 1.384 . S
C1169 C1168 1.377 . S
C1169 C1175 1.390 . S
C1170 H1161 0.930 . S
C1170 C1168 1.384 . S
C1170 C1171 1.372 . S
C1171 C1170 1.372 . S
C1171 C1172 1.400 . S
C1171 C1176 1.490 . S
C1172 H1162 0.930 . S
C1172 C1171 1.400 . S
C1172 C1175 1.386 . S
H1173 C1189 0.930 . S
H1174 C1190 0.931 . S
C1175 H1163 0.929 . S
C1175 C1169 1.390 . S
C1175 C1172 1.386 . S
C1176 C1171 1.490 . S
C1176 C1178 1.395 . S
C1176 C1179 1.403 . S
H1177 C1183 0.930 . S
C1178 H1164 0.930 . S
C1178 C1176 1.395 . S
C1178 C1181 1.403 . S
C1179 C1176 1.403 . S
C1179 C1180 1.524 . S
C1179 C1183 1.400 . S
C1180 H1165 0.960 . S
C1180 H1166 0.960 . S
C1180 H1167 0.960 . S
C1180 C1179 1.524 . S
C1181 C1178 1.403 . S
C1181 C1182 1.392 . S
C1181 C1185 1.495 . S
C1182 C1181 1.392 . S
C1182 C1183 1.385 . S
C1182 C1184 1.478 . S
C1183 H1177 0.930 . S
C1183 C1179 1.400 . S
C1183 C1182 1.385 . S
C1184 C1182 1.478 . S
C1184 C1186 1.381 . S
C1184 C1190 1.383 . S
C1185 C1181 1.495 . S
C1185 H1191 0.959 1_545 S
C1185 H1192 0.961 . S
C1185 H1193 0.956 1_545 S
C1186 C1184 1.381 . S
C1186 C1187 1.394 . S
C1186 H1194 0.930 . S
C1187 C1186 1.394 . S
C1187 C1188 1.383 . S
C1187 H1195 0.929 . S
C1188 C1187 1.383 . S
C1188 C1189 1.377 . S
C1189 H1173 0.930 . S
C1189 C1188 1.377 . S
C1189 C1190 1.379 . S
C1190 H1174 0.931 . S
C1190 C1184 1.383 . S
C1190 C1189 1.379 . S
H1191 C1185 0.959 1_565 S
H1192 C1185 0.961 . S
H1193 C1185 0.956 1_565 S
H1194 C1186 0.930 . S
H1195 C1187 0.929 . S
H1196 C1204 0.929 . S
H1197 C1206 0.930 . S
H1198 C1208 0.930 . S
H1199 C1211 0.929 . S
H1200 C1214 0.930 . S
H1201 C1216 0.960 . S
H1202 C1216 0.960 . S
H1203 C1216 0.960 . S
C1204 H1196 0.929 . S
C1204 C1205 1.377 . S
C1204 C1206 1.384 . S
C1205 C1204 1.377 . S
C1205 C1211 1.390 . S
C1206 H1197 0.930 . S
C1206 C1204 1.384 . S
C1206 C1207 1.372 . S
C1207 C1206 1.372 . S
C1207 C1208 1.400 . S
C1207 C1212 1.490 . S
C1208 H1198 0.930 . S
C1208 C1207 1.400 . S
C1208 C1211 1.386 . S
H1209 C1225 0.930 . S
H1210 C1226 0.931 . S
C1211 H1199 0.929 . S
C1211 C1205 1.390 . S
C1211 C1208 1.386 . S
C1212 C1207 1.490 . S
C1212 C1214 1.395 . S
C1212 C1215 1.403 . S
H1213 C1219 0.930 . S
C1214 H1200 0.930 . S
C1214 C1212 1.395 . S
C1214 C1217 1.403 . S
C1215 C1212 1.403 . S
C1215 C1216 1.524 . S
C1215 C1219 1.400 . S
C1216 H1201 0.960 . S
C1216 H1202 0.960 . S
C1216 H1203 0.960 . S
C1216 C1215 1.524 . S
C1217 C1214 1.403 . S
C1217 C1218 1.392 . S
C1217 C1221 1.495 . S
C1218 C1217 1.392 . S
C1218 C1219 1.385 . S
C1218 C1220 1.478 . S
C1219 H1213 0.930 . S
C1219 C1215 1.400 . S
C1219 C1218 1.385 . S
C1220 C1218 1.478 . S
C1220 C1222 1.381 . S
C1220 C1226 1.383 . S
C1221 C1217 1.495 . S
C1221 H1227 0.959 . S
C1221 H1228 0.961 . S
C1221 H1229 0.960 . S
C1222 C1220 1.381 . S
C1222 C1223 1.394 . S
C1222 H1230 0.930 . S
C1223 C1222 1.394 . S
C1223 C1224 1.383 . S
C1223 H1231 0.929 . S
C1224 C1223 1.383 . S
C1224 C1225 1.377 . S
C1225 H1209 0.930 . S
C1225 C1224 1.377 . S
C1225 C1226 1.379 . S
C1226 H1210 0.931 . S
C1226 C1220 1.383 . S
C1226 C1225 1.379 . S
H1227 C1221 0.959 . S
H1228 C1221 0.961 . S
H1229 C1221 0.960 . S
H1230 C1222 0.930 . S
H1231 C1223 0.929 . S
H1232 C1240 0.929 . S
H1233 C1242 0.930 . S
H1234 C1244 0.930 . S
H1235 C1247 0.929 . S
H1236 C1250 0.930 . S
H1237 C1252 0.960 1_545 S
H1238 C1252 0.960 . S
H1239 C1252 0.960 . S
C1240 H1232 0.929 . S
C1240 C1241 1.377 . S
C1240 C1242 1.384 . S
C1241 C1240 1.377 . S
C1241 C1247 1.390 . S
C1242 H1233 0.930 . S
C1242 C1240 1.384 . S
C1242 C1243 1.372 . S
C1243 C1242 1.372 . S
C1243 C1244 1.400 . S
C1243 C1248 1.490 . S
C1244 H1234 0.930 . S
C1244 C1243 1.400 . S
C1244 C1247 1.386 . S
H1245 C1261 0.930 . S
H1246 C1262 0.931 . S
C1247 H1235 0.929 . S
C1247 C1241 1.390 . S
C1247 C1244 1.386 . S
C1248 C1243 1.490 . S
C1248 C1250 1.395 . S
C1248 C1251 1.403 . S
H1249 C1255 0.930 1_545 S
C1250 H1236 0.930 . S
C1250 C1248 1.395 . S
C1250 C1253 1.403 . S
C1251 C1248 1.403 . S
C1251 C1252 1.524 . S
C1251 C1255 1.400 . S
C1252 H1237 0.960 1_565 S
C1252 H1238 0.960 . S
C1252 H1239 0.960 . S
C1252 C1251 1.524 . S
C1253 C1250 1.403 . S
C1253 C1254 1.392 . S
C1253 C1257 1.495 . S
C1254 C1253 1.392 . S
C1254 C1255 1.385 . S
C1254 C1256 1.478 . S
C1255 H1249 0.930 1_565 S
C1255 C1251 1.400 . S
C1255 C1254 1.385 . S
C1256 C1254 1.478 . S
C1256 C1258 1.381 . S
C1256 C1262 1.383 1_565 S
C1257 C1253 1.495 . S
C1257 H1263 0.959 . S
C1257 H1264 0.961 . S
C1257 H1265 0.960 . S
C1258 C1256 1.381 . S
C1258 C1259 1.394 . S
C1258 H1266 0.930 . S
C1259 C1258 1.394 . S
C1259 C1260 1.383 1_565 S
C1259 H1267 0.929 . S
C1260 C1259 1.383 1_545 S
C1260 C1261 1.377 . S
C1261 H1245 0.930 . S
C1261 C1260 1.377 . S
C1261 C1262 1.379 . S
C1262 H1246 0.931 . S
C1262 C1256 1.383 1_545 S
C1262 C1261 1.379 . S
H1263 C1257 0.959 . S
H1264 C1257 0.961 . S
H1265 C1257 0.960 . S
H1266 C1258 0.930 . S
H1267 C1259 0.929 . S
H1268 C1276 0.929 . S
H1269 C1278 0.930 . S
H1270 C1280 0.930 1_556 S
H1271 C1283 0.929 1_556 S
H1272 C1286 0.930 . S
H1273 C1288 0.960 . S
H1274 C1288 0.960 . S
H1275 C1288 0.960 1_556 S
C1276 H1268 0.929 . S
C1276 C1277 1.377 . S
C1276 C1278 1.384 . S
C1277 C1276 1.377 . S
C1277 C1283 1.390 . S
C1278 H1269 0.930 . S
C1278 C1276 1.384 . S
C1278 C1279 1.372 . S
C1279 C1278 1.372 . S
C1279 C1280 1.400 . S
C1279 C1284 1.490 . S
C1280 H1270 0.930 1_554 S
C1280 C1279 1.400 . S
C1280 C1283 1.386 . S
H1281 C1297 0.930 1_556 S
H1282 C1298 0.931 1_556 S
C1283 H1271 0.929 1_554 S
C1283 C1277 1.390 . S
C1283 C1280 1.386 . S
C1284 C1279 1.490 . S
C1284 C1286 1.395 . S
C1284 C1287 1.403 . S
H1285 C1291 0.930 . S
C1286 H1272 0.930 . S
C1286 C1284 1.395 . S
C1286 C1289 1.403 . S
C1287 C1284 1.403 . S
C1287 C1288 1.524 . S
C1287 C1291 1.400 . S
C1288 H1273 0.960 . S
C1288 H1274 0.960 . S
C1288 H1275 0.960 1_554 S
C1288 C1287 1.524 . S
C1289 C1286 1.403 . S
C1289 C1290 1.392 . S
C1289 C1293 1.495 . S
C1290 C1289 1.392 . S
C1290 C1291 1.385 . S
C1290 C1292 1.478 . S
C1291 H1285 0.930 . S
C1291 C1287 1.400 . S
C1291 C1290 1.385 . S
C1292 C1290 1.478 . S
C1292 C1294 1.381 . S
C1292 C1298 1.383 . S
C1293 C1289 1.495 . S
C1293 H1299 0.959 . S
C1293 H1300 0.961 . S
C1293 H1301 0.960 . S
C1294 C1292 1.381 . S
C1294 C1295 1.394 . S
C1294 H1302 0.930 . S
C1295 C1294 1.394 . S
C1295 C1296 1.383 . S
C1295 H1303 0.929 . S
C1296 C1295 1.383 . S
C1296 C1297 1.377 . S
C1297 H1281 0.930 1_554 S
C1297 C1296 1.377 . S
C1297 C1298 1.379 . S
C1298 H1282 0.931 1_554 S
C1298 C1292 1.383 . S
C1298 C1297 1.379 . S
H1299 C1293 0.959 . S
H1300 C1293 0.961 . S
H1301 C1293 0.960 . S
H1302 C1294 0.930 . S
H1303 C1295 0.929 . S
H1304 C1312 0.929 . S
H1305 C1314 0.930 . S
H1306 C1316 0.930 . S
H1307 C1319 0.929 . S
H1308 C1322 0.930 . S
H1309 C1324 0.960 . S
H1310 C1324 0.960 . S
H1311 C1324 0.960 . S
C1312 H1304 0.929 . S
C1312 C1313 1.377 . S
C1312 C1314 1.384 . S
C1313 C1312 1.377 . S
C1313 C1319 1.390 . S
C1314 H1305 0.930 . S
C1314 C1312 1.384 . S
C1314 C1315 1.372 . S
C1315 C1314 1.372 . S
C1315 C1316 1.400 . S
C1315 C1320 1.490 . S
C1316 H1306 0.930 . S
C1316 C1315 1.400 . S
C1316 C1319 1.386 . S
H1317 C1333 0.930 . S
H1318 C1334 0.931 . S
C1319 H1307 0.929 . S
C1319 C1313 1.390 . S
C1319 C1316 1.386 . S
C1320 C1315 1.490 . S
C1320 C1322 1.395 . S
C1320 C1323 1.403 . S
H1321 C1327 0.930 . S
C1322 H1308 0.930 . S
C1322 C1320 1.395 . S
C1322 C1325 1.403 . S
C1323 C1320 1.403 . S
C1323 C1324 1.524 . S
C1323 C1327 1.400 . S
C1324 H1309 0.960 . S
C1324 H1310 0.960 . S
C1324 H1311 0.960 . S
C1324 C1323 1.524 . S
C1325 C1322 1.403 . S
C1325 C1326 1.392 . S
C1325 C1329 1.495 . S
C1326 C1325 1.392 . S
C1326 C1327 1.385 . S
C1326 C1328 1.478 . S
C1327 H1321 0.930 . S
C1327 C1323 1.400 . S
C1327 C1326 1.385 . S
C1328 C1326 1.478 . S
C1328 C1330 1.381 . S
C1328 C1334 1.383 . S
C1329 C1325 1.495 . S
C1329 H1335 0.959 . S
C1329 H1336 0.961 . S
C1329 H1337 0.960 . S
C1330 C1328 1.381 . S
C1330 C1331 1.394 . S
C1330 H1338 0.930 . S
C1331 C1330 1.394 . S
C1331 C1332 1.383 . S
C1331 H1339 0.929 . S
C1332 C1331 1.383 . S
C1332 C1333 1.377 . S
C1333 H1317 0.930 . S
C1333 C1332 1.377 . S
C1333 C1334 1.379 . S
C1334 H1318 0.931 . S
C1334 C1328 1.383 . S
C1334 C1333 1.379 . S
H1335 C1329 0.959 . S
H1336 C1329 0.961 . S
H1337 C1329 0.960 . S
H1338 C1330 0.930 . S
H1339 C1331 0.929 . S
H1340 C1348 0.929 . S
H1341 C1350 0.930 . S
H1342 C1352 0.930 . S
H1343 C1355 0.929 . S
H1344 C1358 0.930 . S
H1345 C1360 0.960 . S
H1346 C1360 0.960 . S
H1347 C1360 0.960 . S
C1348 H1340 0.929 . S
C1348 C1349 1.377 . S
C1348 C1350 1.384 . S
C1349 C1348 1.377 . S
C1349 C1355 1.390 . S
C1350 H1341 0.930 . S
C1350 C1348 1.384 . S
C1350 C1351 1.372 . S
C1351 C1350 1.372 . S
C1351 C1352 1.400 . S
C1351 C1356 1.490 . S
C1352 H1342 0.930 . S
C1352 C1351 1.400 . S
C1352 C1355 1.386 . S
H1353 C1369 0.930 . S
H1354 C1370 0.931 . S
C1355 H1343 0.929 . S
C1355 C1349 1.390 . S
C1355 C1352 1.386 . S
C1356 C1351 1.490 . S
C1356 C1358 1.395 . S
C1356 C1359 1.403 . S
H1357 C1363 0.930 . S
C1358 H1344 0.930 . S
C1358 C1356 1.395 . S
C1358 C1361 1.403 . S
C1359 C1356 1.403 . S
C1359 C1360 1.524 . S
C1359 C1363 1.400 . S
C1360 H1345 0.960 . S
C1360 H1346 0.960 . S
C1360 H1347 0.960 . S
C1360 C1359 1.524 . S
C1361 C1358 1.403 . S
C1361 C1362 1.392 . S
C1361 C1365 1.495 . S
C1362 C1361 1.392 . S
C1362 C1363 1.385 . S
C1362 C1364 1.478 . S
C1363 H1357 0.930 . S
C1363 C1359 1.400 . S
C1363 C1362 1.385 . S
C1364 C1362 1.478 . S
C1364 C1366 1.381 . S
C1364 C1370 1.383 . S
C1365 C1361 1.495 . S
C1365 H1371 0.959 . S
C1365 H1372 0.961 . S
C1365 H1373 0.960 . S
C1366 C1364 1.381 . S
C1366 C1367 1.394 . S
C1366 H1374 0.930 . S
C1367 C1366 1.394 . S
C1367 C1368 1.383 . S
C1367 H1375 0.929 . S
C1368 C1367 1.383 . S
C1368 C1369 1.377 . S
C1369 H1353 0.930 . S
C1369 C1368 1.377 . S
C1369 C1370 1.379 . S
C1370 H1354 0.931 . S
C1370 C1364 1.383 . S
C1370 C1369 1.379 . S
H1371 C1365 0.959 . S
H1372 C1365 0.961 . S
H1373 C1365 0.960 . S
H1374 C1366 0.930 . S
H1375 C1367 0.929 . S
H1376 C1384 0.929 . S
H1377 C1386 0.930 . S
H1378 C1388 0.930 . S
H1379 C1391 0.929 . S
H1380 C1394 0.930 . S
H1381 C1396 0.960 . S
H1382 C1396 0.960 . S
H1383 C1396 0.960 . S
C1384 H1376 0.929 . S
C1384 C1385 1.377 . S
C1384 C1386 1.384 . S
C1385 C1384 1.377 . S
C1385 C1391 1.390 . S
C1386 H1377 0.930 . S
C1386 C1384 1.384 . S
C1386 C1387 1.372 . S
C1387 C1386 1.372 . S
C1387 C1388 1.400 . S
C1387 C1392 1.490 . S
C1388 H1378 0.930 . S
C1388 C1387 1.400 . S
C1388 C1391 1.386 . S
H1389 C1405 0.930 . S
H1390 C1406 0.931 . S
C1391 H1379 0.929 . S
C1391 C1385 1.390 . S
C1391 C1388 1.386 . S
C1392 C1387 1.490 . S
C1392 C1394 1.395 . S
C1392 C1395 1.403 . S
H1393 C1399 0.930 . S
C1394 H1380 0.930 . S
C1394 C1392 1.395 . S
C1394 C1397 1.403 . S
C1395 C1392 1.403 . S
C1395 C1396 1.524 . S
C1395 C1399 1.400 . S
C1396 H1381 0.960 . S
C1396 H1382 0.960 . S
C1396 H1383 0.960 . S
C1396 C1395 1.524 . S
C1397 C1394 1.403 . S
C1397 C1398 1.392 . S
C1397 C1401 1.495 . S
C1398 C1397 1.392 . S
C1398 C1399 1.385 . S
C1398 C1400 1.478 . S
C1399 H1393 0.930 . S
C1399 C1395 1.400 . S
C1399 C1398 1.385 . S
C1400 C1398 1.478 . S
C1400 C1402 1.381 . S
C1400 C1406 1.383 . S
C1401 C1397 1.495 . S
C1401 H1407 0.959 . S
C1401 H1408 0.961 . S
C1401 H1409 0.960 . S
C1402 C1400 1.381 . S
C1402 C1403 1.394 . S
C1402 H1410 0.930 . S
C1403 C1402 1.394 . S
C1403 C1404 1.383 . S
C1403 H1411 0.929 . S
C1404 C1403 1.383 . S
C1404 C1405 1.377 . S
C1405 H1389 0.930 . S
C1405 C1404 1.377 . S
C1405 C1406 1.379 . S
C1406 H1390 0.931 . S
C1406 C1400 1.383 . S
C1406 C1405 1.379 . S
H1407 C1401 0.959 . S
H1408 C1401 0.961 . S
H1409 C1401 0.960 . S
H1410 C1402 0.930 . S
H1411 C1403 0.929 . S
H1412 C1420 0.929 . S
H1413 C1422 0.930 . S
H1414 C1424 0.930 . S
H1415 C1427 0.929 . S
H1416 C1430 0.930 . S
H1417 C1432 0.960 . S
H1418 C1432 0.960 . S
H1419 C1432 0.960 . S
C1420 H1412 0.929 . S
C1420 C1421 1.377 . S
C1420 C1422 1.384 . S
C1421 C1420 1.377 . S
C1421 C1427 1.390 . S
C1422 H1413 0.930 . S
C1422 C1420 1.384 . S
C1422 C1423 1.372 . S
C1423 C1422 1.372 . S
C1423 C1424 1.400 . S
C1423 C1428 1.490 . S
C1424 H1414 0.930 . S
C1424 C1423 1.400 . S
C1424 C1427 1.386 . S
H1425 C1441 0.930 . S
H1426 C1442 0.931 . S
C1427 H1415 0.929 . S
C1427 C1421 1.390 . S
C1427 C1424 1.386 . S
C1428 C1423 1.490 . S
C1428 C1430 1.395 . S
C1428 C1431 1.403 . S
H1429 C1435 0.930 . S
C1430 H1416 0.930 . S
C1430 C1428 1.395 . S
C1430 C1433 1.403 . S
C1431 C1428 1.403 . S
C1431 C1432 1.524 . S
C1431 C1435 1.400 . S
C1432 H1417 0.960 . S
C1432 H1418 0.960 . S
C1432 H1419 0.960 . S
C1432 C1431 1.524 . S
C1433 C1430 1.403 . S
C1433 C1434 1.392 . S
C1433 C1437 1.495 . S
C1434 C1433 1.392 . S
C1434 C1435 1.385 . S
C1434 C1436 1.478 . S
C1435 H1429 0.930 . S
C1435 C1431 1.400 . S
C1435 C1434 1.385 . S
C1436 C1434 1.478 . S
C1436 C1438 1.381 . S
C1436 C1442 1.383 . S
C1437 C1433 1.495 . S
C1437 H1443 0.959 . S
C1437 H1444 0.961 . S
C1437 H1445 0.960 . S
C1438 C1436 1.381 . S
C1438 C1439 1.394 . S
C1438 H1446 0.930 . S
C1439 C1438 1.394 . S
C1439 C1440 1.383 . S
C1439 H1447 0.929 . S
C1440 C1439 1.383 . S
C1440 C1441 1.377 . S
C1441 H1425 0.930 . S
C1441 C1440 1.377 . S
C1441 C1442 1.379 . S
C1442 H1426 0.931 . S
C1442 C1436 1.383 . S
C1442 C1441 1.379 . S
H1443 C1437 0.959 . S
H1444 C1437 0.961 . S
H1445 C1437 0.960 . S
H1446 C1438 0.930 . S
H1447 C1439 0.929 . S
H1448 C1456 0.929 . S
H1449 C1458 0.930 . S
H1450 C1460 0.930 . S
H1451 C1463 0.929 . S
H1452 C1466 0.930 . S
H1453 C1468 0.960 . S
H1454 C1468 0.960 . S
H1455 C1468 0.960 . S
C1456 H1448 0.929 . S
C1456 C1457 1.377 . S
C1456 C1458 1.384 . S
C1457 C1456 1.377 . S
C1457 C1463 1.390 . S
C1458 H1449 0.930 . S
C1458 C1456 1.384 . S
C1458 C1459 1.372 . S
C1459 C1458 1.372 . S
C1459 C1460 1.400 . S
C1459 C1464 1.490 . S
C1460 H1450 0.930 . S
C1460 C1459 1.400 . S
C1460 C1463 1.386 . S
H1461 C1477 0.930 . S
H1462 C1478 0.931 . S
C1463 H1451 0.929 . S
C1463 C1457 1.390 . S
C1463 C1460 1.386 . S
C1464 C1459 1.490 . S
C1464 C1466 1.395 . S
C1464 C1467 1.403 . S
H1465 C1471 0.930 . S
C1466 H1452 0.930 . S
C1466 C1464 1.395 . S
C1466 C1469 1.403 . S
C1467 C1464 1.403 . S
C1467 C1468 1.524 . S
C1467 C1471 1.400 . S
C1468 H1453 0.960 . S
C1468 H1454 0.960 . S
C1468 H1455 0.960 . S
C1468 C1467 1.524 . S
C1469 C1466 1.403 . S
C1469 C1470 1.392 . S
C1469 C1473 1.495 . S
C1470 C1469 1.392 . S
C1470 C1471 1.385 . S
C1470 C1472 1.478 . S
C1471 H1465 0.930 . S
C1471 C1467 1.400 . S
C1471 C1470 1.385 . S
C1472 C1470 1.478 . S
C1472 C1474 1.381 . S
C1472 C1478 1.383 . S
C1473 C1469 1.495 . S
C1473 H1479 0.959 . S
C1473 H1480 0.961 . S
C1473 H1481 0.960 . S
C1474 C1472 1.381 . S
C1474 C1475 1.394 . S
C1474 H1482 0.930 . S
C1475 C1474 1.394 . S
C1475 C1476 1.383 . S
C1475 H1483 0.929 . S
C1476 C1475 1.383 . S
C1476 C1477 1.377 . S
C1477 H1461 0.930 . S
C1477 C1476 1.377 . S
C1477 C1478 1.379 . S
C1478 H1462 0.931 . S
C1478 C1472 1.383 . S
C1478 C1477 1.379 . S
H1479 C1473 0.959 . S
H1480 C1473 0.961 . S
H1481 C1473 0.960 . S
H1482 C1474 0.930 . S
H1483 C1475 0.929 . S
H1484 C1492 0.929 . S
H1485 C1494 0.930 . S
H1486 C1496 0.930 . S
H1487 C1499 0.929 . S
H1488 C1502 0.930 . S
H1489 C1504 0.960 . S
H1490 C1504 0.960 . S
H1491 C1504 0.960 . S
C1492 H1484 0.929 . S
C1492 C1493 1.377 . S
C1492 C1494 1.384 . S
C1493 C1492 1.377 . S
C1493 C1499 1.390 . S
C1494 H1485 0.930 . S
C1494 C1492 1.384 . S
C1494 C1495 1.372 . S
C1495 C1494 1.372 . S
C1495 C1496 1.400 . S
C1495 C1500 1.490 . S
C1496 H1486 0.930 . S
C1496 C1495 1.400 . S
C1496 C1499 1.386 . S
H1497 C1513 0.930 . S
H1498 C1514 0.931 . S
C1499 H1487 0.929 . S
C1499 C1493 1.390 . S
C1499 C1496 1.386 . S
C1500 C1495 1.490 . S
C1500 C1502 1.395 . S
C1500 C1503 1.403 . S
H1501 C1507 0.930 . S
C1502 H1488 0.930 . S
C1502 C1500 1.395 . S
C1502 C1505 1.403 . S
C1503 C1500 1.403 . S
C1503 C1504 1.524 . S
C1503 C1507 1.400 . S
C1504 H1489 0.960 . S
C1504 H1490 0.960 . S
C1504 H1491 0.960 . S
C1504 C1503 1.524 . S
C1505 C1502 1.403 . S
C1505 C1506 1.392 . S
C1505 C1509 1.495 . S
C1506 C1505 1.392 . S
C1506 C1507 1.385 . S
C1506 C1508 1.478 . S
C1507 H1501 0.930 . S
C1507 C1503 1.400 . S
C1507 C1506 1.385 . S
C1508 C1506 1.478 . S
C1508 C1510 1.381 . S
C1508 C1514 1.383 . S
C1509 C1505 1.495 . S
C1509 H1515 0.959 . S
C1509 H1516 0.961 . S
C1509 H1517 0.960 . S
C1510 C1508 1.381 . S
C1510 C1511 1.394 . S
C1510 H1518 0.930 . S
C1511 C1510 1.394 . S
C1511 C1512 1.383 . S
C1511 H1519 0.929 . S
C1512 C1511 1.383 . S
C1512 C1513 1.377 . S
C1513 H1497 0.930 . S
C1513 C1512 1.377 . S
C1513 C1514 1.379 . S
C1514 H1498 0.931 . S
C1514 C1508 1.383 . S
C1514 C1513 1.379 . S
H1515 C1509 0.959 . S
H1516 C1509 0.961 . S
H1517 C1509 0.960 . S
H1518 C1510 0.930 . S
H1519 C1511 0.929 . S
H1520 C1528 0.929 . S
H1521 C1530 0.930 . S
H1522 C1532 0.930 . S
H1523 C1535 0.929 . S
H1524 C1538 0.930 . S
H1525 C1540 0.960 . S
H1526 C1540 0.960 . S
H1527 C1540 0.960 . S
C1528 H1520 0.929 . S
C1528 C1529 1.377 . S
C1528 C1530 1.384 . S
C1529 C1528 1.377 . S
C1529 C1535 1.390 . S
C1530 H1521 0.930 . S
C1530 C1528 1.384 . S
C1530 C1531 1.372 . S
C1531 C1530 1.372 . S
C1531 C1532 1.400 . S
C1531 C1536 1.490 . S
C1532 H1522 0.930 . S
C1532 C1531 1.400 . S
C1532 C1535 1.386 . S
H1533 C1549 0.930 . S
H1534 C1550 0.931 . S
C1535 H1523 0.929 . S
C1535 C1529 1.390 . S
C1535 C1532 1.386 . S
C1536 C1531 1.490 . S
C1536 C1538 1.395 . S
C1536 C1539 1.403 . S
H1537 C1543 0.930 1_655 S
C1538 H1524 0.930 . S
C1538 C1536 1.395 . S
C1538 C1541 1.403 . S
C1539 C1536 1.403 . S
C1539 C1540 1.524 1_455 S
C1539 C1543 1.400 . S
C1540 H1525 0.960 . S
C1540 H1526 0.960 . S
C1540 H1527 0.960 . S
C1540 C1539 1.524 1_655 S
C1541 C1538 1.403 . S
C1541 C1542 1.392 . S
C1541 C1545 1.495 . S
C1542 C1541 1.392 . S
C1542 C1543 1.385 . S
C1542 C1544 1.478 . S
C1543 H1537 0.930 1_455 S
C1543 C1539 1.400 . S
C1543 C1542 1.385 . S
C1544 C1542 1.478 . S
C1544 C1546 1.381 . S
C1544 C1550 1.383 . S
C1545 C1541 1.495 . S
C1545 H1551 0.959 . S
C1545 H1552 0.961 . S
C1545 H1553 0.960 . S
C1546 C1544 1.381 . S
C1546 C1547 1.394 . S
C1546 H1554 0.930 . S
C1547 C1546 1.394 . S
C1547 C1548 1.383 . S
C1547 H1555 0.929 . S
C1548 C1547 1.383 . S
C1548 C1549 1.377 . S
C1549 H1533 0.930 . S
C1549 C1548 1.377 . S
C1549 C1550 1.379 . S
C1550 H1534 0.931 . S
C1550 C1544 1.383 . S
C1550 C1549 1.379 . S
H1551 C1545 0.959 . S
H1552 C1545 0.961 . S
H1553 C1545 0.960 . S
H1554 C1546 0.930 . S
H1555 C1547 0.929 . S
H1556 C1564 0.929 . S
H1557 C1566 0.930 . S
H1558 C1568 0.930 . S
H1559 C1571 0.929 . S
H1560 C1574 0.930 . S
H1561 C1576 0.960 . S
H1562 C1576 0.960 . S
H1563 C1576 0.960 . S
C1564 H1556 0.929 . S
C1564 C1565 1.377 . S
C1564 C1566 1.384 . S
C1565 C1564 1.377 . S
C1565 C1571 1.390 . S
C1566 H1557 0.930 . S
C1566 C1564 1.384 . S
C1566 C1567 1.372 . S
C1567 C1566 1.372 . S
C1567 C1568 1.400 . S
C1567 C1572 1.490 . S
C1568 H1558 0.930 . S
C1568 C1567 1.400 . S
C1568 C1571 1.386 . S
H1569 C1585 0.930 . S
H1570 C1586 0.931 . S
C1571 H1559 0.929 . S
C1571 C1565 1.390 . S
C1571 C1568 1.386 . S
C1572 C1567 1.490 . S
C1572 C1574 1.395 . S
C1572 C1575 1.403 . S
H1573 C1579 0.930 . S
C1574 H1560 0.930 . S
C1574 C1572 1.395 . S
C1574 C1577 1.403 . S
C1575 C1572 1.403 . S
C1575 C1576 1.524 . S
C1575 C1579 1.400 . S
C1576 H1561 0.960 . S
C1576 H1562 0.960 . S
C1576 H1563 0.960 . S
C1576 C1575 1.524 . S
C1577 C1574 1.403 . S
C1577 C1578 1.392 . S
C1577 C1581 1.495 . S
C1578 C1577 1.392 . S
C1578 C1579 1.385 . S
C1578 C1580 1.478 . S
C1579 H1573 0.930 . S
C1579 C1575 1.400 . S
C1579 C1578 1.385 . S
C1580 C1578 1.478 . S
C1580 C1582 1.381 . S
C1580 C1586 1.383 . S
C1581 C1577 1.495 . S
C1581 H1587 0.959 . S
C1581 H1588 0.961 . S
C1581 H1589 0.960 . S
C1582 C1580 1.381 . S
C1582 C1583 1.394 . S
C1582 H1590 0.930 . S
C1583 C1582 1.394 . S
C1583 C1584 1.383 . S
C1583 H1591 0.929 . S
C1584 C1583 1.383 . S
C1584 C1585 1.377 . S
C1585 H1569 0.930 . S
C1585 C1584 1.377 . S
C1585 C1586 1.379 . S
C1586 H1570 0.931 . S
C1586 C1580 1.383 . S
C1586 C1585 1.379 . S
H1587 C1581 0.959 . S
H1588 C1581 0.961 . S
H1589 C1581 0.960 . S
H1590 C1582 0.930 . S
H1591 C1583 0.929 . S
H1592 C1600 0.929 . S
H1593 C1602 0.930 . S
H1594 C1604 0.930 . S
H1595 C1607 0.929 . S
H1596 C1610 0.930 . S
H1597 C1612 0.960 . S
H1598 C1612 0.960 . S
H1599 C1612 0.960 . S
C1600 H1592 0.929 . S
C1600 C1601 1.377 . S
C1600 C1602 1.384 . S
C1601 C1600 1.377 . S
C1601 C1607 1.390 . S
C1602 H1593 0.930 . S
C1602 C1600 1.384 . S
C1602 C1603 1.372 . S
C1603 C1602 1.372 . S
C1603 C1604 1.400 . S
C1603 C1608 1.490 . S
C1604 H1594 0.930 . S
C1604 C1603 1.400 . S
C1604 C1607 1.386 . S
H1605 C1621 0.930 . S
H1606 C1622 0.931 . S
C1607 H1595 0.929 . S
C1607 C1601 1.390 . S
C1607 C1604 1.386 . S
C1608 C1603 1.490 . S
C1608 C1610 1.395 . S
C1608 C1611 1.403 . S
H1609 C1615 0.930 . S
C1610 H1596 0.930 . S
C1610 C1608 1.395 . S
C1610 C1613 1.403 . S
C1611 C1608 1.403 . S
C1611 C1612 1.524 . S
C1611 C1615 1.400 . S
C1612 H1597 0.960 . S
C1612 H1598 0.960 . S
C1612 H1599 0.960 . S
C1612 C1611 1.524 . S
C1613 C1610 1.403 . S
C1613 C1614 1.392 . S
C1613 C1617 1.495 . S
C1614 C1613 1.392 . S
C1614 C1615 1.385 . S
C1614 C1616 1.478 . S
C1615 H1609 0.930 . S
C1615 C1611 1.400 . S
C1615 C1614 1.385 . S
C1616 C1614 1.478 . S
C1616 C1618 1.381 . S
C1616 C1622 1.383 . S
C1617 C1613 1.495 . S
C1617 H1623 0.959 . S
C1617 H1624 0.961 . S
C1617 H1625 0.960 . S
C1618 C1616 1.381 . S
C1618 C1619 1.394 . S
C1618 H1626 0.930 . S
C1619 C1618 1.394 . S
C1619 C1620 1.383 . S
C1619 H1627 0.929 . S
C1620 C1619 1.383 . S
C1620 C1621 1.377 . S
C1621 H1605 0.930 . S
C1621 C1620 1.377 . S
C1621 C1622 1.379 . S
C1622 H1606 0.931 . S
C1622 C1616 1.383 . S
C1622 C1621 1.379 . S
H1623 C1617 0.959 . S
H1624 C1617 0.961 . S
H1625 C1617 0.960 . S
H1626 C1618 0.930 . S
H1627 C1619 0.929 . S
H1628 C1636 0.929 . S
H1629 C1638 0.930 . S
H1630 C1640 0.930 . S
H1631 C1643 0.929 . S
H1632 C1646 0.930 . S
H1633 C1648 0.960 . S
H1634 C1648 0.960 . S
H1635 C1648 0.960 . S
C1636 H1628 0.929 . S
C1636 C1637 1.377 . S
C1636 C1638 1.384 . S
C1637 C1636 1.377 . S
C1637 C1643 1.390 . S
C1638 H1629 0.930 . S
C1638 C1636 1.384 . S
C1638 C1639 1.372 . S
C1639 C1638 1.372 . S
C1639 C1640 1.400 . S
C1639 C1644 1.490 . S
C1640 H1630 0.930 . S
C1640 C1639 1.400 . S
C1640 C1643 1.386 . S
H1641 C1657 0.930 . S
H1642 C1658 0.931 . S
C1643 H1631 0.929 . S
C1643 C1637 1.390 . S
C1643 C1640 1.386 . S
C1644 C1639 1.490 . S
C1644 C1646 1.395 . S
C1644 C1647 1.403 . S
H1645 C1651 0.930 . S
C1646 H1632 0.930 . S
C1646 C1644 1.395 . S
C1646 C1649 1.403 . S
C1647 C1644 1.403 . S
C1647 C1648 1.524 . S
C1647 C1651 1.400 . S
C1648 H1633 0.960 . S
C1648 H1634 0.960 . S
C1648 H1635 0.960 . S
C1648 C1647 1.524 . S
C1649 C1646 1.403 . S
C1649 C1650 1.392 . S
C1649 C1653 1.495 . S
C1650 C1649 1.392 . S
C1650 C1651 1.385 . S
C1650 C1652 1.478 . S
C1651 H1645 0.930 . S
C1651 C1647 1.400 . S
C1651 C1650 1.385 . S
C1652 C1650 1.478 . S
C1652 C1654 1.381 . S
C1652 C1658 1.383 . S
C1653 C1649 1.495 . S
C1653 H1659 0.959 . S
C1653 H1660 0.961 . S
C1653 H1661 0.960 . S
C1654 C1652 1.381 . S
C1654 C1655 1.394 . S
C1654 H1662 0.930 . S
C1655 C1654 1.394 . S
C1655 C1656 1.383 . S
C1655 H1663 0.929 . S
C1656 C1655 1.383 . S
C1656 C1657 1.377 . S
C1657 H1641 0.930 . S
C1657 C1656 1.377 . S
C1657 C1658 1.379 . S
C1658 H1642 0.931 . S
C1658 C1652 1.383 . S
C1658 C1657 1.379 . S
H1659 C1653 0.959 . S
H1660 C1653 0.961 . S
H1661 C1653 0.960 . S
H1662 C1654 0.930 . S
H1663 C1655 0.929 . S
H1664 C1672 0.929 . S
H1665 C1674 0.930 . S
H1666 C1676 0.930 . S
H1667 C1679 0.929 . S
H1668 C1682 0.930 . S
H1669 C1684 0.960 . S
H1670 C1684 0.960 . S
H1671 C1684 0.960 . S
C1672 H1664 0.929 . S
C1672 C1673 1.377 . S
C1672 C1674 1.384 . S
C1673 C1672 1.377 . S
C1673 C1679 1.390 1_455 S
C1674 H1665 0.930 . S
C1674 C1672 1.384 . S
C1674 C1675 1.372 . S
C1675 C1674 1.372 . S
C1675 C1676 1.400 1_455 S
C1675 C1680 1.490 . S
C1676 H1666 0.930 . S
C1676 C1675 1.400 1_655 S
C1676 C1679 1.386 . S
H1677 C1693 0.930 . S
H1678 C1694 0.931 . S
C1679 H1667 0.929 . S
C1679 C1673 1.390 1_655 S
C1679 C1676 1.386 . S
C1680 C1675 1.490 . S
C1680 C1682 1.395 . S
C1680 C1683 1.412 . S
H1681 C1687 0.930 1_655 S
C1682 H1668 0.930 . S
C1682 C1680 1.395 . S
C1682 C1685 1.403 . S
C1683 C1680 1.412 . S
C1683 C1684 1.511 1_455 S
C1683 C1687 1.405 . S
C1684 H1669 0.960 . S
C1684 H1670 0.960 . S
C1684 H1671 0.960 . S
C1684 C1683 1.511 1_655 S
C1685 C1682 1.403 . S
C1685 C1686 1.392 . S
C1685 C1689 1.495 . S
C1686 C1685 1.392 . S
C1686 C1687 1.385 . S
C1686 C1688 1.478 . S
C1687 H1681 0.930 1_455 S
C1687 C1683 1.405 . S
C1687 C1686 1.385 . S
C1688 C1686 1.478 . S
C1688 C1690 1.381 . S
C1688 C1694 1.383 1_455 S
C1689 C1685 1.495 . S
C1689 H1695 0.959 . S
C1689 H1696 0.961 . S
C1689 H1697 0.960 . S
C1690 C1688 1.381 . S
C1690 C1691 1.394 . S
C1690 H1698 0.930 . S
C1691 C1690 1.394 . S
C1691 C1692 1.383 . S
C1691 H1699 0.929 . S
C1692 C1691 1.383 . S
C1692 C1693 1.377 1_455 S
C1693 H1677 0.930 . S
C1693 C1692 1.377 1_655 S
C1693 C1694 1.379 . S
C1694 H1678 0.931 . S
C1694 C1688 1.383 1_655 S
C1694 C1693 1.379 . S
H1695 C1689 0.959 . S
H1696 C1689 0.961 . S
H1697 C1689 0.960 . S
H1698 C1690 0.930 . S
H1699 C1691 0.929 . S
H1700 C1708 0.929 . S
H1701 C1710 0.930 . S
H1702 C1712 0.930 . S
H1703 C1715 0.929 . S
H1704 C1718 0.930 . S
H1705 C1720 0.960 . S
H1706 C1720 0.960 . S
H1707 C1720 0.960 . S
C1708 H1700 0.929 . S
C1708 C1709 1.377 . S
C1708 C1710 1.384 . S
C1709 C1708 1.377 . S
C1709 C1715 1.390 . S
C1710 H1701 0.930 . S
C1710 C1708 1.384 . S
C1710 C1711 1.372 . S
C1711 C1710 1.372 . S
C1711 C1712 1.400 . S
C1711 C1716 1.490 . S
C1712 H1702 0.930 . S
C1712 C1711 1.400 . S
C1712 C1715 1.386 . S
H1713 C1729 0.930 . S
H1714 C1730 0.931 . S
C1715 H1703 0.929 . S
C1715 C1709 1.390 . S
C1715 C1712 1.386 . S
C1716 C1711 1.490 . S
C1716 C1718 1.395 . S
C1716 C1719 1.403 . S
H1717 C1723 0.930 . S
C1718 H1704 0.930 . S
C1718 C1716 1.395 . S
C1718 C1721 1.403 . S
C1719 C1716 1.403 . S
C1719 C1720 1.524 . S
C1719 C1723 1.400 . S
C1720 H1705 0.960 . S
C1720 H1706 0.960 . S
C1720 H1707 0.960 . S
C1720 C1719 1.524 . S
C1721 C1718 1.403 . S
C1721 C1722 1.392 . S
C1721 C1725 1.495 . S
C1722 C1721 1.392 . S
C1722 C1723 1.385 . S
C1722 C1724 1.478 . S
C1723 H1717 0.930 . S
C1723 C1719 1.400 . S
C1723 C1722 1.385 . S
C1724 C1722 1.478 . S
C1724 C1726 1.381 . S
C1724 C1730 1.383 . S
C1725 C1721 1.495 . S
C1725 H1731 0.959 . S
C1725 H1732 0.961 . S
C1725 H1733 0.960 . S
C1726 C1724 1.381 . S
C1726 C1727 1.394 . S
C1726 H1734 0.930 . S
C1727 C1726 1.394 . S
C1727 C1728 1.383 . S
C1727 H1735 0.929 . S
C1728 C1727 1.383 . S
C1728 C1729 1.377 . S
C1729 H1713 0.930 . S
C1729 C1728 1.377 . S
C1729 C1730 1.379 . S
C1730 H1714 0.931 . S
C1730 C1724 1.383 . S
C1730 C1729 1.379 . S
H1731 C1725 0.959 . S
H1732 C1725 0.961 . S
H1733 C1725 0.960 . S
H1734 C1726 0.930 . S
H1735 C1727 0.929 . S
H1736 C1744 0.929 . S
H1737 C1746 0.930 . S
H1738 C1748 0.930 . S
H1739 C1751 0.929 . S
H1740 C1754 0.930 . S
H1741 C1756 0.960 . S
H1742 C1756 0.960 . S
H1743 C1756 0.960 . S
C1744 H1736 0.929 . S
C1744 C1745 1.377 . S
C1744 C1746 1.384 . S
C1745 C1744 1.377 . S
C1745 C1751 1.390 . S
C1746 H1737 0.930 . S
C1746 C1744 1.384 . S
C1746 C1747 1.372 . S
C1747 C1746 1.372 . S
C1747 C1748 1.400 . S
C1747 C1752 1.490 . S
C1748 H1738 0.930 . S
C1748 C1747 1.400 . S
C1748 C1751 1.386 . S
H1749 C1765 0.930 . S
H1750 C1766 0.927 1_554 S
C1751 H1739 0.929 . S
C1751 C1745 1.390 . S
C1751 C1748 1.386 . S
C1752 C1747 1.490 . S
C1752 C1754 1.395 . S
C1752 C1755 1.403 . S
H1753 C1759 0.930 . S
C1754 H1740 0.930 . S
C1754 C1752 1.395 . S
C1754 C1757 1.403 . S
C1755 C1752 1.403 . S
C1755 C1756 1.524 . S
C1755 C1759 1.400 . S
C1756 H1741 0.960 . S
C1756 H1742 0.960 . S
C1756 H1743 0.960 . S
C1756 C1755 1.524 . S
C1757 C1754 1.403 . S
C1757 C1758 1.392 . S
C1757 C1761 1.495 . S
C1758 C1757 1.392 . S
C1758 C1759 1.385 . S
C1758 C1760 1.478 . S
C1759 H1753 0.930 . S
C1759 C1755 1.400 . S
C1759 C1758 1.385 . S
C1760 C1758 1.478 . S
C1760 C1762 1.381 . S
C1760 C1766 1.391 . S
C1761 C1757 1.495 . S
C1761 H1767 0.959 . S
C1761 H1768 0.961 . S
C1761 H1769 0.960 . S
C1762 C1760 1.381 . S
C1762 C1763 1.394 . S
C1762 H1770 0.930 . S
C1763 C1762 1.394 . S
C1763 C1764 1.383 1_556 S
C1763 H1771 0.929 . S
C1764 C1763 1.383 1_554 S
C1764 C1765 1.377 . S
C1765 H1749 0.930 . S
C1765 C1764 1.377 . S
C1765 C1766 1.375 1_554 S
C1766 H1750 0.927 1_556 S
C1766 C1760 1.391 . S
C1766 C1765 1.375 1_556 S
H1767 C1761 0.959 . S
H1768 C1761 0.961 . S
H1769 C1761 0.960 . S
H1770 C1762 0.930 . S
H1771 C1763 0.929 . S
H1772 C1780 0.929 . S
H1773 C1782 0.930 . S
H1774 C1784 0.930 . S
H1775 C1787 0.929 . S
H1776 C1790 0.930 . S
H1777 C1792 0.960 . S
H1778 C1792 0.960 . S
H1779 C1792 0.960 . S
C1780 H1772 0.929 . S
C1780 C1781 1.377 . S
C1780 C1782 1.384 . S
C1781 C1780 1.377 . S
C1781 C1787 1.390 . S
C1782 H1773 0.930 . S
C1782 C1780 1.384 . S
C1782 C1783 1.372 . S
C1783 C1782 1.372 . S
C1783 C1784 1.400 . S
C1783 C1788 1.490 . S
C1784 H1774 0.930 . S
C1784 C1783 1.400 . S
C1784 C1787 1.386 . S
H1785 C1801 0.930 . S
H1786 C1802 0.931 . S
C1787 H1775 0.929 . S
C1787 C1781 1.390 . S
C1787 C1784 1.386 . S
C1788 C1783 1.490 . S
C1788 C1790 1.395 . S
C1788 C1791 1.403 . S
H1789 C1795 0.930 . S
C1790 H1776 0.930 . S
C1790 C1788 1.395 . S
C1790 C1793 1.403 . S
C1791 C1788 1.403 . S
C1791 C1792 1.524 . S
C1791 C1795 1.400 . S
C1792 H1777 0.960 . S
C1792 H1778 0.960 . S
C1792 H1779 0.960 . S
C1792 C1791 1.524 . S
C1793 C1790 1.403 . S
C1793 C1794 1.392 . S
C1793 C1797 1.495 . S
C1794 C1793 1.392 . S
C1794 C1795 1.385 . S
C1794 C1796 1.478 . S
C1795 H1789 0.930 . S
C1795 C1791 1.400 . S
C1795 C1794 1.385 . S
C1796 C1794 1.478 . S
C1796 C1798 1.381 . S
C1796 C1802 1.383 . S
C1797 C1793 1.495 . S
C1797 H1803 0.959 . S
C1797 H1804 0.961 . S
C1797 H1805 0.960 . S
C1798 C1796 1.381 . S
C1798 C1799 1.394 . S
C1798 H1806 0.930 . S
C1799 C1798 1.394 . S
C1799 C1800 1.383 . S
C1799 H1807 0.929 . S
C1800 C1799 1.383 . S
C1800 C1801 1.377 . S
C1801 H1785 0.930 . S
C1801 C1800 1.377 . S
C1801 C1802 1.379 . S
C1802 H1786 0.931 . S
C1802 C1796 1.383 . S
C1802 C1801 1.379 . S
H1803 C1797 0.959 . S
H1804 C1797 0.961 . S
H1805 C1797 0.960 . S
H1806 C1798 0.930 . S
H1807 C1799 0.929 . S
H1808 C1816 0.929 . S
H1809 C1818 0.930 . S
H1810 C1820 0.948 . S
H1811 C1823 0.929 . S
H1812 C1826 0.930 . S
H1813 C1828 0.960 . S
H1814 C1828 0.960 . S
H1815 C1828 0.960 . S
C1816 H1808 0.929 . S
C1816 C1817 1.377 . S
C1816 C1818 1.384 . S
C1817 C1816 1.377 . S
C1817 C1823 1.390 1_545 S
C1818 H1809 0.930 . S
C1818 C1816 1.384 . S
C1818 C1819 1.372 . S
C1819 C1818 1.372 . S
C1819 C1820 1.378 1_545 S
C1819 C1824 1.490 . S
C1820 H1810 0.948 . S
C1820 C1819 1.378 1_565 S
C1820 C1823 1.392 . S
H1821 C1837 0.930 . S
H1822 C1838 0.931 . S
C1823 H1811 0.929 . S
C1823 C1817 1.390 1_565 S
C1823 C1820 1.392 . S
C1824 C1819 1.490 . S
C1824 C1826 1.395 . S
C1824 C1827 1.377 1_545 S
H1825 C1831 0.930 1_565 S
C1826 H1812 0.930 . S
C1826 C1824 1.395 . S
C1826 C1829 1.403 . S
C1827 C1824 1.377 1_565 S
C1827 C1828 1.556 . S
C1827 C1831 1.393 1_565 S
C1828 H1813 0.960 . S
C1828 H1814 0.960 . S
C1828 H1815 0.960 . S
C1828 C1827 1.556 . S
C1829 C1826 1.403 . S
C1829 C1830 1.392 . S
C1829 C1833 1.495 . S
C1830 C1829 1.392 . S
C1830 C1831 1.385 . S
C1830 C1832 1.478 . S
C1831 H1825 0.930 1_545 S
C1831 C1827 1.393 1_545 S
C1831 C1830 1.385 . S
C1832 C1830 1.478 . S
C1832 C1834 1.381 . S
C1832 C1838 1.383 . S
C1833 C1829 1.495 . S
C1833 H1839 0.959 . S
C1833 H1840 0.961 . S
C1833 H1841 0.960 . S
C1834 C1832 1.381 . S
C1834 C1835 1.394 . S
C1834 H1842 0.930 . S
C1835 C1834 1.394 . S
C1835 C1836 1.383 . S
C1835 H1843 0.929 . S
C1836 C1835 1.383 . S
C1836 C1837 1.377 . S
C1837 H1821 0.930 . S
C1837 C1836 1.377 . S
C1837 C1838 1.379 . S
C1838 H1822 0.931 . S
C1838 C1832 1.383 . S
C1838 C1837 1.379 . S
H1839 C1833 0.959 . S
H1840 C1833 0.961 . S
H1841 C1833 0.960 . S
H1842 C1834 0.930 . S
H1843 C1835 0.929 . S
H1844 C1852 0.929 . S
H1845 C1854 0.930 . S
H1846 C1856 0.930 . S
H1847 C1859 0.929 . S
H1848 C1862 0.930 . S
H1849 C1864 0.960 . S
H1850 C1864 0.960 . S
H1851 C1864 0.960 . S
C1852 H1844 0.929 . S
C1852 C1853 1.377 . S
C1852 C1854 1.384 . S
C1853 C1852 1.377 . S
C1853 C1859 1.390 . S
C1854 H1845 0.930 . S
C1854 C1852 1.384 . S
C1854 C1855 1.372 . S
C1855 C1854 1.372 . S
C1855 C1856 1.400 . S
C1855 C1860 1.490 . S
C1856 H1846 0.930 . S
C1856 C1855 1.400 . S
C1856 C1859 1.386 . S
H1857 C1873 0.930 . S
H1858 C1874 0.931 . S
C1859 H1847 0.929 . S
C1859 C1853 1.390 . S
C1859 C1856 1.386 . S
C1860 C1855 1.490 . S
C1860 C1862 1.395 . S
C1860 C1863 1.403 . S
H1861 C1867 0.930 . S
C1862 H1848 0.930 . S
C1862 C1860 1.395 . S
C1862 C1865 1.403 . S
C1863 C1860 1.403 . S
C1863 C1864 1.524 . S
C1863 C1867 1.400 . S
C1864 H1849 0.960 . S
C1864 H1850 0.960 . S
C1864 H1851 0.960 . S
C1864 C1863 1.524 . S
C1865 C1862 1.403 . S
C1865 C1866 1.392 . S
C1865 C1869 1.495 . S
C1866 C1865 1.392 . S
C1866 C1867 1.385 . S
C1866 C1868 1.478 . S
C1867 H1861 0.930 . S
C1867 C1863 1.400 . S
C1867 C1866 1.385 . S
C1868 C1866 1.478 . S
C1868 C1870 1.381 . S
C1868 C1874 1.383 . S
C1869 C1865 1.495 . S
C1869 H1875 0.959 . S
C1869 H1876 0.961 . S
C1869 H1877 0.960 . S
C1870 C1868 1.381 . S
C1870 C1871 1.394 . S
C1870 H1878 0.930 . S
C1871 C1870 1.394 . S
C1871 C1872 1.383 . S
C1871 H1879 0.929 . S
C1872 C1871 1.383 . S
C1872 C1873 1.377 . S
C1873 H1857 0.930 . S
C1873 C1872 1.377 . S
C1873 C1874 1.379 . S
C1874 H1858 0.931 . S
C1874 C1868 1.383 . S
C1874 C1873 1.379 . S
H1875 C1869 0.959 . S
H1876 C1869 0.961 . S
H1877 C1869 0.960 . S
H1878 C1870 0.930 . S
H1879 C1871 0.929 . S
H1880 C1888 0.929 . S
H1881 C1890 0.930 . S
H1882 C1892 0.930 . S
H1883 C1895 0.929 . S
H1884 C1898 0.930 . S
H1885 C1900 0.960 . S
H1886 C1900 0.960 . S
H1887 C1900 0.960 . S
C1888 H1880 0.929 . S
C1888 C1889 1.377 . S
C1888 C1890 1.384 . S
C1889 C1888 1.377 . S
C1889 C1895 1.390 . S
C1890 H1881 0.930 . S
C1890 C1888 1.384 . S
C1890 C1891 1.372 . S
C1891 C1890 1.372 . S
C1891 C1892 1.400 . S
C1891 C1896 1.490 . S
C1892 H1882 0.930 . S
C1892 C1891 1.400 . S
C1892 C1895 1.386 . S
H1893 C1909 0.930 . S
H1894 C1910 0.931 . S
C1895 H1883 0.929 . S
C1895 C1889 1.390 . S
C1895 C1892 1.386 . S
C1896 C1891 1.490 . S
C1896 C1898 1.395 . S
C1896 C1899 1.403 . S
H1897 C1903 0.930 . S
C1898 H1884 0.930 . S
C1898 C1896 1.395 . S
C1898 C1901 1.403 . S
C1899 C1896 1.403 . S
C1899 C1900 1.524 . S
C1899 C1903 1.400 . S
C1900 H1885 0.960 . S
C1900 H1886 0.960 . S
C1900 H1887 0.960 . S
C1900 C1899 1.524 . S
C1901 C1898 1.403 . S
C1901 C1902 1.392 . S
C1901 C1905 1.495 . S
C1902 C1901 1.392 . S
C1902 C1903 1.385 . S
C1902 C1904 1.478 . S
C1903 H1897 0.930 . S
C1903 C1899 1.400 . S
C1903 C1902 1.385 . S
C1904 C1902 1.478 . S
C1904 C1906 1.381 . S
C1904 C1910 1.383 . S
C1905 C1901 1.495 . S
C1905 H1911 0.959 . S
C1905 H1912 0.961 . S
C1905 H1913 0.960 . S
C1906 C1904 1.381 . S
C1906 C1907 1.394 . S
C1906 H1914 0.930 . S
C1907 C1906 1.394 . S
C1907 C1908 1.383 . S
C1907 H1915 0.929 . S
C1908 C1907 1.383 . S
C1908 C1909 1.377 . S
C1909 H1893 0.930 . S
C1909 C1908 1.377 . S
C1909 C1910 1.379 . S
C1910 H1894 0.931 . S
C1910 C1904 1.383 . S
C1910 C1909 1.379 . S
H1911 C1905 0.959 . S
H1912 C1905 0.961 . S
H1913 C1905 0.960 . S
H1914 C1906 0.930 . S
H1915 C1907 0.929 . S
H1916 C1924 0.929 . S
H1917 C1926 0.930 . S
H1918 C1928 0.930 . S
H1919 C1931 0.929 . S
H1920 C1934 0.930 . S
H1921 C1936 0.960 . S
H1922 C1936 0.960 . S
H1923 C1936 0.960 . S
C1924 H1916 0.929 . S
C1924 C1925 1.377 . S
C1924 C1926 1.384 . S
C1925 C1924 1.377 . S
C1925 C1931 1.390 . S
C1926 H1917 0.930 . S
C1926 C1924 1.384 . S
C1926 C1927 1.372 . S
C1927 C1926 1.372 . S
C1927 C1928 1.400 . S
C1927 C1932 1.490 . S
C1928 H1918 0.930 . S
C1928 C1927 1.400 . S
C1928 C1931 1.386 . S
H1929 C1945 0.930 . S
H1930 C1946 0.931 . S
C1931 H1919 0.929 . S
C1931 C1925 1.390 . S
C1931 C1928 1.386 . S
C1932 C1927 1.490 . S
C1932 C1934 1.395 . S
C1932 C1935 1.403 . S
H1933 C1939 0.930 . S
C1934 H1920 0.930 . S
C1934 C1932 1.395 . S
C1934 C1937 1.403 . S
C1935 C1932 1.403 . S
C1935 C1936 1.524 . S
C1935 C1939 1.400 . S
C1936 H1921 0.960 . S
C1936 H1922 0.960 . S
C1936 H1923 0.960 . S
C1936 C1935 1.524 . S
C1937 C1934 1.403 . S
C1937 C1938 1.392 . S
C1937 C1941 1.495 . S
C1938 C1937 1.392 . S
C1938 C1939 1.385 . S
C1938 C1940 1.478 . S
C1939 H1933 0.930 . S
C1939 C1935 1.400 . S
C1939 C1938 1.385 . S
C1940 C1938 1.478 . S
C1940 C1942 1.381 . S
C1940 C1946 1.383 . S
C1941 C1937 1.495 . S
C1941 H1947 0.959 . S
C1941 H1948 0.961 . S
C1941 H1949 0.960 . S
C1942 C1940 1.381 . S
C1942 C1943 1.394 . S
C1942 H1950 0.930 . S
C1943 C1942 1.394 . S
C1943 C1944 1.383 . S
C1943 H1951 0.929 . S
C1944 C1943 1.383 . S
C1944 C1945 1.377 . S
C1945 H1929 0.930 . S
C1945 C1944 1.377 . S
C1945 C1946 1.379 . S
C1946 H1930 0.931 . S
C1946 C1940 1.383 . S
C1946 C1945 1.379 . S
H1947 C1941 0.959 . S
H1948 C1941 0.961 . S
H1949 C1941 0.960 . S
H1950 C1942 0.930 . S
H1951 C1943 0.929 . S
H1952 C1960 0.929 . S
H1953 C1962 0.930 . S
H1954 C1964 0.930 . S
H1955 C1967 0.929 . S
H1956 C1970 0.930 . S
H1957 C1972 0.960 . S
H1958 C1972 0.960 . S
H1959 C1972 0.960 . S
C1960 H1952 0.929 . S
C1960 C1961 1.374 1_565 S
C1960 C1962 1.384 . S
C1961 C1960 1.374 1_545 S
C1961 C1967 1.395 . S
C1962 H1953 0.930 . S
C1962 C1960 1.384 . S
C1962 C1963 1.372 1_565 S
C1963 C1962 1.372 1_545 S
C1963 C1964 1.400 . S
C1963 C1968 1.490 . S
C1964 H1954 0.930 . S
C1964 C1963 1.400 . S
C1964 C1967 1.386 . S
H1965 C1981 0.930 . S
H1966 C1982 0.931 . S
C1967 H1955 0.929 . S
C1967 C1961 1.395 . S
C1967 C1964 1.386 . S
C1968 C1963 1.490 . S
C1968 C1970 1.395 . S
C1968 C1971 1.403 . S
H1969 C1975 0.930 . S
C1970 H1956 0.930 . S
C1970 C1968 1.395 . S
C1970 C1973 1.403 . S
C1971 C1968 1.403 . S
C1971 C1972 1.524 . S
C1971 C1975 1.400 . S
C1972 H1957 0.960 . S
C1972 H1958 0.960 . S
C1972 H1959 0.960 . S
C1972 C1971 1.524 . S
C1973 C1970 1.403 . S
C1973 C1974 1.392 . S
C1973 C1977 1.495 . S
C1974 C1973 1.392 . S
C1974 C1975 1.385 . S
C1974 C1976 1.478 . S
C1975 H1969 0.930 . S
C1975 C1971 1.400 . S
C1975 C1974 1.385 . S
C1976 C1974 1.478 . S
C1976 C1978 1.381 . S
C1976 C1982 1.383 . S
C1977 C1973 1.495 . S
C1977 H1983 0.959 . S
C1977 H1984 0.961 . S
C1977 H1985 0.960 . S
C1978 C1976 1.381 . S
C1978 C1979 1.394 . S
C1978 H1986 0.930 1_545 S
C1979 C1978 1.394 . S
C1979 C1980 1.383 . S
C1979 H1987 0.929 . S
C1980 C1979 1.383 . S
C1980 C1981 1.377 . S
C1981 H1965 0.930 . S
C1981 C1980 1.377 . S
C1981 C1982 1.379 . S
C1982 H1966 0.931 . S
C1982 C1976 1.383 . S
C1982 C1981 1.379 . S
H1983 C1977 0.959 . S
H1984 C1977 0.961 . S
H1985 C1977 0.960 . S
H1986 C1978 0.930 1_565 S
H1987 C1979 0.929 . S
H1988 C1996 0.929 . S
H1989 C1998 0.930 . S
H1990 C2000 0.930 . S
H1991 C2003 0.929 . S
H1992 C2006 0.930 . S
H1993 C2008 0.960 . S
H1994 C2008 0.960 . S
H1995 C2008 0.960 . S
C1996 H1988 0.929 . S
C1996 C1997 1.377 . S
C1996 C1998 1.384 . S
C1997 C1996 1.377 . S
C1997 C2003 1.390 . S
C1998 H1989 0.930 . S
C1998 C1996 1.384 . S
C1998 C1999 1.372 . S
C1999 C1998 1.372 . S
C1999 C2000 1.400 . S
C1999 C2004 1.490 . S
C2000 H1990 0.930 . S
C2000 C1999 1.400 . S
C2000 C2003 1.386 . S
H2001 C2017 0.930 . S
H2002 C2018 0.931 . S
C2003 H1991 0.929 . S
C2003 C1997 1.390 . S
C2003 C2000 1.386 . S
C2004 C1999 1.490 . S
C2004 C2006 1.395 . S
C2004 C2007 1.403 . S
H2005 C2011 0.930 . S
C2006 H1992 0.930 . S
C2006 C2004 1.395 . S
C2006 C2009 1.403 . S
C2007 C2004 1.403 . S
C2007 C2008 1.524 . S
C2007 C2011 1.400 . S
C2008 H1993 0.960 . S
C2008 H1994 0.960 . S
C2008 H1995 0.960 . S
C2008 C2007 1.524 . S
C2009 C2006 1.403 . S
C2009 C2010 1.392 . S
C2009 C2013 1.495 . S
C2010 C2009 1.392 . S
C2010 C2011 1.385 . S
C2010 C2012 1.478 . S
C2011 H2005 0.930 . S
C2011 C2007 1.400 . S
C2011 C2010 1.385 . S
C2012 C2010 1.478 . S
C2012 C2014 1.381 . S
C2012 C2018 1.383 . S
C2013 C2009 1.495 . S
C2013 H2019 0.959 . S
C2013 H2020 0.961 . S
C2013 H2021 0.960 . S
C2014 C2012 1.381 . S
C2014 C2015 1.394 . S
C2014 H2022 0.930 . S
C2015 C2014 1.394 . S
C2015 C2016 1.383 . S
C2015 H2023 0.929 . S
C2016 C2015 1.383 . S
C2016 C2017 1.377 . S
C2017 H2001 0.930 . S
C2017 C2016 1.377 . S
C2017 C2018 1.379 . S
C2018 H2002 0.931 . S
C2018 C2012 1.383 . S
C2018 C2017 1.379 . S
H2019 C2013 0.959 . S
H2020 C2013 0.961 . S
H2021 C2013 0.960 . S
H2022 C2014 0.930 . S
H2023 C2015 0.929 . S
H2024 C2032 0.929 . S
H2025 C2034 0.930 . S
H2026 C2036 0.930 . S
H2027 C2039 0.929 . S
H2028 C2042 0.930 . S
H2029 C2044 0.960 . S
H2030 C2044 0.960 . S
H2031 C2044 0.960 . S
C2032 H2024 0.929 . S
C2032 C2033 1.377 . S
C2032 C2034 1.384 . S
C2033 C2032 1.377 . S
C2033 C2039 1.390 . S
C2034 H2025 0.930 . S
C2034 C2032 1.384 . S
C2034 C2035 1.372 . S
C2035 C2034 1.372 . S
C2035 C2036 1.400 . S
C2035 C2040 1.490 . S
C2036 H2026 0.930 . S
C2036 C2035 1.400 . S
C2036 C2039 1.386 . S
H2037 C2053 0.930 . S
H2038 C2054 0.931 . S
C2039 H2027 0.929 . S
C2039 C2033 1.390 . S
C2039 C2036 1.386 . S
C2040 C2035 1.490 . S
C2040 C2042 1.395 . S
C2040 C2043 1.403 . S
H2041 C2047 0.930 1_565 S
C2042 H2028 0.930 . S
C2042 C2040 1.395 . S
C2042 C2045 1.403 . S
C2043 C2040 1.403 . S
C2043 C2044 1.524 1_545 S
C2043 C2047 1.400 . S
C2044 H2029 0.960 . S
C2044 H2030 0.960 . S
C2044 H2031 0.960 . S
C2044 C2043 1.524 1_565 S
C2045 C2042 1.403 . S
C2045 C2046 1.392 . S
C2045 C2049 1.495 . S
C2046 C2045 1.392 . S
C2046 C2047 1.385 . S
C2046 C2048 1.478 . S
C2047 H2041 0.930 1_545 S
C2047 C2043 1.400 . S
C2047 C2046 1.385 . S
C2048 C2046 1.478 . S
C2048 C2050 1.381 . S
C2048 C2054 1.383 . S
C2049 C2045 1.495 . S
C2049 H2055 0.959 . S
C2049 H2056 0.961 . S
C2049 H2057 0.960 . S
C2050 C2048 1.381 . S
C2050 C2051 1.394 . S
C2050 H2058 0.930 . S
C2051 C2050 1.394 . S
C2051 C2052 1.383 . S
C2051 H2059 0.929 . S
C2052 C2051 1.383 . S
C2052 C2053 1.377 . S
C2053 H2037 0.930 . S
C2053 C2052 1.377 . S
C2053 C2054 1.379 . S
C2054 H2038 0.931 . S
C2054 C2048 1.383 . S
C2054 C2053 1.379 . S
H2055 C2049 0.959 . S
H2056 C2049 0.961 . S
H2057 C2049 0.960 . S
H2058 C2050 0.930 . S
H2059 C2051 0.929 . S
H2060 C2068 0.929 . S
H2061 C2070 0.930 . S
H2062 C2072 0.930 . S
H2063 C2075 0.929 . S
H2064 C2078 0.930 . S
H2065 C2080 0.960 . S
H2066 C2080 0.960 . S
H2067 C2080 0.960 . S
C2068 H2060 0.929 . S
C2068 C2069 1.377 . S
C2068 C2070 1.384 . S
C2069 C2068 1.377 . S
C2069 C2075 1.390 . S
C2070 H2061 0.930 . S
C2070 C2068 1.384 . S
C2070 C2071 1.372 . S
C2071 C2070 1.372 . S
C2071 C2072 1.400 . S
C2071 C2076 1.490 . S
C2072 H2062 0.930 . S
C2072 C2071 1.400 . S
C2072 C2075 1.386 . S
H2073 C2089 0.930 . S
H2074 C2090 0.931 . S
C2075 H2063 0.929 . S
C2075 C2069 1.390 . S
C2075 C2072 1.386 . S
C2076 C2071 1.490 . S
C2076 C2078 1.395 . S
C2076 C2079 1.403 . S
H2077 C2083 0.930 . S
C2078 H2064 0.930 . S
C2078 C2076 1.395 . S
C2078 C2081 1.403 . S
C2079 C2076 1.403 . S
C2079 C2080 1.524 . S
C2079 C2083 1.400 . S
C2080 H2065 0.960 . S
C2080 H2066 0.960 . S
C2080 H2067 0.960 . S
C2080 C2079 1.524 . S
C2081 C2078 1.403 . S
C2081 C2082 1.392 . S
C2081 C2085 1.495 . S
C2082 C2081 1.392 . S
C2082 C2083 1.385 . S
C2082 C2084 1.478 . S
C2083 H2077 0.930 . S
C2083 C2079 1.400 . S
C2083 C2082 1.385 . S
C2084 C2082 1.478 . S
C2084 C2086 1.381 . S
C2084 C2090 1.383 . S
C2085 C2081 1.495 . S
C2085 H2091 0.959 . S
C2085 H2092 0.961 . S
C2085 H2093 0.960 . S
C2086 C2084 1.381 . S
C2086 C2087 1.394 . S
C2086 H2094 0.930 . S
C2087 C2086 1.394 . S
C2087 C2088 1.383 . S
C2087 H2095 0.929 . S
C2088 C2087 1.383 . S
C2088 C2089 1.377 . S
C2089 H2073 0.930 . S
C2089 C2088 1.377 . S
C2089 C2090 1.379 . S
C2090 H2074 0.931 . S
C2090 C2084 1.383 . S
C2090 C2089 1.379 . S
H2091 C2085 0.959 . S
H2092 C2085 0.961 . S
H2093 C2085 0.960 . S
H2094 C2086 0.930 . S
H2095 C2087 0.929 . S
H2096 C2104 0.929 . S
H2097 C2106 0.930 . S
H2098 C2108 0.930 . S
H2099 C2111 0.929 . S
H2100 C2114 0.930 . S
H2101 C2116 0.960 . S
H2102 C2116 0.960 1_554 S
H2103 C2116 0.960 . S
C2104 H2096 0.929 . S
C2104 C2105 1.377 . S
C2104 C2106 1.384 . S
C2105 C2104 1.377 . S
C2105 C2111 1.390 1_554 S
C2106 H2097 0.930 . S
C2106 C2104 1.384 . S
C2106 C2107 1.372 . S
C2107 C2106 1.372 . S
C2107 C2108 1.400 1_554 S
C2107 C2112 1.490 . S
C2108 H2098 0.930 . S
C2108 C2107 1.400 1_556 S
C2108 C2111 1.386 . S
H2109 C2125 0.930 . S
H2110 C2126 0.931 . S
C2111 H2099 0.929 . S
C2111 C2105 1.390 1_556 S
C2111 C2108 1.386 . S
C2112 C2107 1.490 . S
C2112 C2114 1.395 . S
C2112 C2115 1.400 1_554 S
H2113 C2119 0.945 . S
C2114 H2100 0.930 . S
C2114 C2112 1.395 . S
C2114 C2117 1.403 . S
C2115 C2112 1.400 1_556 S
C2115 C2116 1.526 . S
C2115 C2119 1.400 . S
C2116 H2101 0.960 . S
C2116 H2102 0.960 1_556 S
C2116 H2103 0.960 . S
C2116 C2115 1.526 . S
C2117 C2114 1.403 . S
C2117 C2118 1.392 . S
C2117 C2121 1.495 . S
C2118 C2117 1.392 . S
C2118 C2119 1.372 1_554 S
C2118 C2120 1.478 . S
C2119 H2113 0.945 . S
C2119 C2115 1.400 . S
C2119 C2118 1.372 1_556 S
C2120 C2118 1.478 . S
C2120 C2122 1.381 . S
C2120 C2126 1.383 1_554 S
C2121 C2117 1.495 . S
C2121 H2127 0.959 . S
C2121 H2128 0.961 . S
C2121 H2129 0.960 . S
C2122 C2120 1.381 . S
C2122 C2123 1.394 . S
C2122 H2130 0.930 . S
C2123 C2122 1.394 . S
C2123 C2124 1.383 . S
C2123 H2131 0.929 . S
C2124 C2123 1.383 . S
C2124 C2125 1.377 1_554 S
C2125 H2109 0.930 . S
C2125 C2124 1.377 1_556 S
C2125 C2126 1.379 . S
C2126 H2110 0.931 . S
C2126 C2120 1.383 1_556 S
C2126 C2125 1.379 . S
H2127 C2121 0.959 . S
H2128 C2121 0.961 . S
H2129 C2121 0.960 . S
H2130 C2122 0.930 . S
H2131 C2123 0.929 . S
H2132 C2140 0.929 . S
H2133 C2142 0.930 . S
H2134 C2144 0.930 1_556 S
H2135 C2147 0.929 1_556 S
H2136 C2150 0.930 . S
H2137 C2152 0.960 . S
H2138 C2152 0.960 1_554 S
H2139 C2152 0.960 . S
C2140 H2132 0.929 . S
C2140 C2141 1.377 . S
C2140 C2142 1.384 . S
C2141 C2140 1.377 . S
C2141 C2147 1.390 . S
C2142 H2133 0.930 . S
C2142 C2140 1.384 . S
C2142 C2143 1.372 . S
C2143 C2142 1.372 . S
C2143 C2144 1.400 . S
C2143 C2148 1.490 . S
C2144 H2134 0.930 1_554 S
C2144 C2143 1.400 . S
C2144 C2147 1.386 . S
H2145 C2161 0.930 . S
H2146 C2162 0.931 . S
C2147 H2135 0.929 1_554 S
C2147 C2141 1.390 . S
C2147 C2144 1.386 . S
C2148 C2143 1.490 . S
C2148 C2150 1.395 . S
C2148 C2151 1.403 . S
H2149 C2155 0.930 . S
C2150 H2136 0.930 . S
C2150 C2148 1.395 . S
C2150 C2153 1.403 . S
C2151 C2148 1.403 . S
C2151 C2152 1.524 1_554 S
C2151 C2155 1.400 . S
C2152 H2137 0.960 . S
C2152 H2138 0.960 1_556 S
C2152 H2139 0.960 . S
C2152 C2151 1.524 1_556 S
C2153 C2150 1.403 . S
C2153 C2154 1.392 . S
C2153 C2157 1.495 . S
C2154 C2153 1.392 . S
C2154 C2155 1.385 . S
C2154 C2156 1.478 . S
C2155 H2149 0.930 . S
C2155 C2151 1.400 . S
C2155 C2154 1.385 . S
C2156 C2154 1.478 . S
C2156 C2158 1.381 . S
C2156 C2162 1.383 . S
C2157 C2153 1.495 . S
C2157 H2163 0.959 . S
C2157 H2164 0.961 . S
C2157 H2165 0.960 . S
C2158 C2156 1.381 . S
C2158 C2159 1.394 . S
C2158 H2166 0.930 . S
C2159 C2158 1.394 . S
C2159 C2160 1.383 . S
C2159 H2167 0.929 . S
C2160 C2159 1.383 . S
C2160 C2161 1.377 . S
C2161 H2145 0.930 . S
C2161 C2160 1.377 . S
C2161 C2162 1.379 . S
C2162 H2146 0.931 . S
C2162 C2156 1.383 . S
C2162 C2161 1.379 . S
H2163 C2157 0.959 . S
H2164 C2157 0.961 . S
H2165 C2157 0.960 . S
H2166 C2158 0.930 . S
H2167 C2159 0.929 . S
H2168 C2176 0.929 . S
H2169 C2178 0.930 . S
H2170 C2180 0.930 . S
H2171 C2183 0.929 . S
H2172 C2186 0.930 . S
H2173 C2188 0.960 . S
H2174 C2188 0.960 . S
H2175 C2188 0.960 . S
C2176 H2168 0.929 . S
C2176 C2177 1.377 . S
C2176 C2178 1.384 . S
C2177 C2176 1.377 . S
C2177 C2183 1.390 . S
C2178 H2169 0.930 . S
C2178 C2176 1.384 . S
C2178 C2179 1.372 . S
C2179 C2178 1.372 . S
C2179 C2180 1.400 . S
C2179 C2184 1.490 . S
C2180 H2170 0.930 . S
C2180 C2179 1.400 . S
C2180 C2183 1.386 . S
H2181 C2197 0.930 . S
H2182 C2198 0.931 . S
C2183 H2171 0.929 . S
C2183 C2177 1.390 . S
C2183 C2180 1.386 . S
C2184 C2179 1.490 . S
C2184 C2186 1.395 . S
C2184 C2187 1.403 . S
H2185 C2191 0.930 . S
C2186 H2172 0.930 . S
C2186 C2184 1.395 . S
C2186 C2189 1.403 . S
C2187 C2184 1.403 . S
C2187 C2188 1.524 . S
C2187 C2191 1.400 . S
C2188 H2173 0.960 . S
C2188 H2174 0.960 . S
C2188 H2175 0.960 . S
C2188 C2187 1.524 . S
C2189 C2186 1.403 . S
C2189 C2190 1.392 . S
C2189 C2193 1.495 . S
C2190 C2189 1.392 . S
C2190 C2191 1.385 . S
C2190 C2192 1.478 . S
C2191 H2185 0.930 . S
C2191 C2187 1.400 . S
C2191 C2190 1.385 . S
C2192 C2190 1.478 . S
C2192 C2194 1.381 . S
C2192 C2198 1.383 . S
C2193 C2189 1.495 . S
C2193 H2199 0.959 . S
C2193 H2200 0.961 . S
C2193 H2201 0.960 . S
C2194 C2192 1.381 . S
C2194 C2195 1.394 . S
C2194 H2202 0.930 . S
C2195 C2194 1.394 . S
C2195 C2196 1.383 . S
C2195 H2203 0.929 . S
C2196 C2195 1.383 . S
C2196 C2197 1.377 . S
C2197 H2181 0.930 . S
C2197 C2196 1.377 . S
C2197 C2198 1.379 . S
C2198 H2182 0.931 . S
C2198 C2192 1.383 . S
C2198 C2197 1.379 . S
H2199 C2193 0.959 . S
H2200 C2193 0.961 . S
H2201 C2193 0.960 . S
H2202 C2194 0.930 . S
H2203 C2195 0.929 . S
H2204 C2212 0.929 . S
H2205 C2214 0.930 . S
H2206 C2216 0.930 . S
H2207 C2219 0.929 . S
H2208 C2222 0.930 . S
H2209 C2224 0.960 . S
H2210 C2224 0.960 . S
H2211 C2224 0.960 . S
C2212 H2204 0.929 . S
C2212 C2213 1.377 . S
C2212 C2214 1.384 . S
C2213 C2212 1.377 . S
C2213 C2219 1.390 . S
C2214 H2205 0.930 . S
C2214 C2212 1.384 . S
C2214 C2215 1.372 . S
C2215 C2214 1.372 . S
C2215 C2216 1.400 . S
C2215 C2220 1.490 . S
C2216 H2206 0.930 . S
C2216 C2215 1.400 . S
C2216 C2219 1.386 . S
H2217 C2233 0.930 . S
H2218 C2234 0.931 . S
C2219 H2207 0.929 . S
C2219 C2213 1.390 . S
C2219 C2216 1.386 . S
C2220 C2215 1.490 . S
C2220 C2222 1.395 . S
C2220 C2223 1.403 . S
H2221 C2227 0.930 . S
C2222 H2208 0.930 . S
C2222 C2220 1.395 . S
C2222 C2225 1.403 . S
C2223 C2220 1.403 . S
C2223 C2224 1.524 . S
C2223 C2227 1.400 . S
C2224 H2209 0.960 . S
C2224 H2210 0.960 . S
C2224 H2211 0.960 . S
C2224 C2223 1.524 . S
C2225 C2222 1.403 . S
C2225 C2226 1.392 . S
C2225 C2229 1.495 . S
C2226 C2225 1.392 . S
C2226 C2227 1.385 . S
C2226 C2228 1.478 . S
C2227 H2221 0.930 . S
C2227 C2223 1.400 . S
C2227 C2226 1.385 . S
C2228 C2226 1.478 . S
C2228 C2230 1.381 . S
C2228 C2234 1.383 . S
C2229 C2225 1.495 . S
C2229 H2235 0.959 . S
C2229 H2236 0.961 . S
C2229 H2237 0.960 . S
C2230 C2228 1.381 . S
C2230 C2231 1.394 . S
C2230 H2238 0.930 . S
C2231 C2230 1.394 . S
C2231 C2232 1.383 . S
C2231 H2239 0.929 . S
C2232 C2231 1.383 . S
C2232 C2233 1.377 . S
C2233 H2217 0.930 . S
C2233 C2232 1.377 . S
C2233 C2234 1.379 . S
C2234 H2218 0.931 . S
C2234 C2228 1.383 . S
C2234 C2233 1.379 . S
H2235 C2229 0.959 . S
H2236 C2229 0.961 . S
H2237 C2229 0.960 . S
H2238 C2230 0.930 . S
H2239 C2231 0.929 . S
H2240 C2248 0.929 . S
H2241 C2250 0.930 . S
H2242 C2252 0.930 . S
H2243 C2255 0.929 . S
H2244 C2258 0.930 . S
H2245 C2260 0.960 . S
H2246 C2260 0.960 . S
H2247 C2260 0.960 . S
C2248 H2240 0.929 . S
C2248 C2249 1.377 . S
C2248 C2250 1.384 . S
C2249 C2248 1.377 . S
C2249 C2255 1.390 . S
C2250 H2241 0.930 . S
C2250 C2248 1.384 . S
C2250 C2251 1.372 . S
C2251 C2250 1.372 . S
C2251 C2252 1.400 . S
C2251 C2256 1.490 . S
C2252 H2242 0.930 . S
C2252 C2251 1.400 . S
C2252 C2255 1.386 . S
H2253 C2269 0.930 . S
H2254 C2270 0.931 . S
C2255 H2243 0.929 . S
C2255 C2249 1.390 . S
C2255 C2252 1.386 . S
C2256 C2251 1.490 . S
C2256 C2258 1.395 . S
C2256 C2259 1.403 . S
H2257 C2263 0.930 . S
C2258 H2244 0.930 . S
C2258 C2256 1.395 . S
C2258 C2261 1.403 . S
C2259 C2256 1.403 . S
C2259 C2260 1.524 . S
C2259 C2263 1.400 . S
C2260 H2245 0.960 . S
C2260 H2246 0.960 . S
C2260 H2247 0.960 . S
C2260 C2259 1.524 . S
C2261 C2258 1.403 . S
C2261 C2262 1.392 . S
C2261 C2265 1.495 . S
C2262 C2261 1.392 . S
C2262 C2263 1.385 . S
C2262 C2264 1.478 . S
C2263 H2257 0.930 . S
C2263 C2259 1.400 . S
C2263 C2262 1.385 . S
C2264 C2262 1.478 . S
C2264 C2266 1.381 . S
C2264 C2270 1.383 . S
C2265 C2261 1.495 . S
C2265 H2271 0.959 . S
C2265 H2272 0.961 . S
C2265 H2273 0.960 . S
C2266 C2264 1.381 . S
C2266 C2267 1.394 . S
C2266 H2274 0.930 . S
C2267 C2266 1.394 . S
C2267 C2268 1.383 . S
C2267 H2275 0.929 . S
C2268 C2267 1.383 . S
C2268 C2269 1.377 . S
C2269 H2253 0.930 . S
C2269 C2268 1.377 . S
C2269 C2270 1.379 . S
C2270 H2254 0.931 . S
C2270 C2264 1.383 . S
C2270 C2269 1.379 . S
H2271 C2265 0.959 . S
H2272 C2265 0.961 . S
H2273 C2265 0.960 . S
H2274 C2266 0.930 . S
H2275 C2267 0.929 . S
H2276 C2284 0.929 . S
H2277 C2286 0.930 . S
H2278 C2288 0.930 . S
H2279 C2291 0.929 . S
H2280 C2294 0.930 . S
H2281 C2296 0.960 . S
H2282 C2296 0.960 . S
H2283 C2296 0.960 . S
C2284 H2276 0.929 . S
C2284 C2285 1.377 . S
C2284 C2286 1.384 . S
C2285 C2284 1.377 . S
C2285 C2291 1.390 . S
C2286 H2277 0.930 . S
C2286 C2284 1.384 . S
C2286 C2287 1.372 . S
C2287 C2286 1.372 . S
C2287 C2288 1.400 . S
C2287 C2292 1.490 . S
C2288 H2278 0.930 . S
C2288 C2287 1.400 . S
C2288 C2291 1.386 . S
H2289 C2305 0.931 1_545 S
H2290 C2306 0.931 . S
C2291 H2279 0.929 . S
C2291 C2285 1.390 . S
C2291 C2288 1.386 . S
C2292 C2287 1.490 . S
C2292 C2294 1.395 . S
C2292 C2295 1.403 . S
H2293 C2299 0.930 . S
C2294 H2280 0.930 . S
C2294 C2292 1.395 . S
C2294 C2297 1.403 . S
C2295 C2292 1.403 . S
C2295 C2296 1.524 . S
C2295 C2299 1.400 . S
C2296 H2281 0.960 . S
C2296 H2282 0.960 . S
C2296 H2283 0.960 . S
C2296 C2295 1.524 . S
C2297 C2294 1.403 . S
C2297 C2298 1.392 . S
C2297 C2301 1.495 . S
C2298 C2297 1.392 . S
C2298 C2299 1.385 . S
C2298 C2300 1.478 . S
C2299 H2293 0.930 . S
C2299 C2295 1.400 . S
C2299 C2298 1.385 . S
C2300 C2298 1.478 . S
C2300 C2302 1.381 . S
C2300 C2306 1.383 . S
C2301 C2297 1.495 . S
C2301 H2307 0.959 . S
C2301 H2308 0.961 1_565 S
C2301 H2309 0.960 . S
C2302 C2300 1.381 . S
C2302 C2303 1.394 . S
C2302 H2310 0.930 . S
C2303 C2302 1.394 . S
C2303 C2304 1.411 . S
C2303 H2311 0.929 . S
C2304 C2303 1.411 . S
C2304 C2305 1.391 . S
C2305 H2289 0.931 1_565 S
C2305 C2304 1.391 . S
C2305 C2306 1.379 . S
C2306 H2290 0.931 . S
C2306 C2300 1.383 . S
C2306 C2305 1.379 . S
H2307 C2301 0.959 . S
H2308 C2301 0.961 1_545 S
H2309 C2301 0.960 . S
H2310 C2302 0.930 . S
H2311 C2303 0.929 . S
H2312 C2320 0.929 . S
H2313 C2322 0.930 . S
H2314 C2324 0.930 . S
H2315 C2327 0.929 . S
H2316 C2330 0.930 . S
H2317 C2332 0.960 . S
H2318 C2332 0.960 . S
H2319 C2332 0.960 . S
C2320 H2312 0.929 . S
C2320 C2321 1.377 . S
C2320 C2322 1.384 . S
C2321 C2320 1.377 . S
C2321 C2327 1.390 . S
C2322 H2313 0.930 . S
C2322 C2320 1.384 . S
C2322 C2323 1.372 . S
C2323 C2322 1.372 . S
C2323 C2324 1.400 . S
C2323 C2328 1.490 . S
C2324 H2314 0.930 . S
C2324 C2323 1.400 . S
C2324 C2327 1.386 . S
H2325 C2341 0.930 . S
H2326 C2342 0.931 . S
C2327 H2315 0.929 . S
C2327 C2321 1.390 . S
C2327 C2324 1.386 . S
C2328 C2323 1.490 . S
C2328 C2330 1.395 . S
C2328 C2331 1.403 . S
H2329 C2335 0.930 . S
C2330 H2316 0.930 . S
C2330 C2328 1.395 . S
C2330 C2333 1.403 . S
C2331 C2328 1.403 . S
C2331 C2332 1.524 . S
C2331 C2335 1.400 . S
C2332 H2317 0.960 . S
C2332 H2318 0.960 . S
C2332 H2319 0.960 . S
C2332 C2331 1.524 . S
C2333 C2330 1.403 . S
C2333 C2334 1.392 . S
C2333 C2337 1.495 . S
C2334 C2333 1.392 . S
C2334 C2335 1.385 . S
C2334 C2336 1.478 . S
C2335 H2329 0.930 . S
C2335 C2331 1.400 . S
C2335 C2334 1.385 . S
C2336 C2334 1.478 . S
C2336 C2338 1.381 . S
C2336 C2342 1.383 . S
C2337 C2333 1.495 . S
C2337 H2343 0.959 . S
C2337 H2344 0.961 . S
C2337 H2345 0.960 . S
C2338 C2336 1.381 . S
C2338 C2339 1.394 . S
C2338 H2346 0.930 . S
C2339 C2338 1.394 . S
C2339 C2340 1.383 . S
C2339 H2347 0.929 . S
C2340 C2339 1.383 . S
C2340 C2341 1.377 . S
C2341 H2325 0.930 . S
C2341 C2340 1.377 . S
C2341 C2342 1.379 . S
C2342 H2326 0.931 . S
C2342 C2336 1.383 . S
C2342 C2341 1.379 . S
H2343 C2337 0.959 . S
H2344 C2337 0.961 . S
H2345 C2337 0.960 . S
H2346 C2338 0.930 . S
H2347 C2339 0.929 . S
H2348 C2356 0.929 . S
H2349 C2358 0.930 . S
H2350 C2360 0.930 . S
H2351 C2363 0.929 . S
H2352 C2366 0.930 . S
H2353 C2368 0.960 . S
H2354 C2368 0.960 . S
H2355 C2368 0.960 . S
C2356 H2348 0.929 . S
C2356 C2357 1.377 . S
C2356 C2358 1.384 . S
C2357 C2356 1.377 . S
C2357 C2363 1.390 . S
C2358 H2349 0.930 . S
C2358 C2356 1.384 . S
C2358 C2359 1.372 . S
C2359 C2358 1.372 . S
C2359 C2360 1.400 . S
C2359 C2364 1.490 . S
C2360 H2350 0.930 . S
C2360 C2359 1.400 . S
C2360 C2363 1.386 . S
H2361 C2377 0.930 . S
H2362 C2378 0.931 . S
C2363 H2351 0.929 . S
C2363 C2357 1.390 . S
C2363 C2360 1.386 . S
C2364 C2359 1.490 . S
C2364 C2366 1.395 . S
C2364 C2367 1.403 . S
H2365 C2371 0.930 . S
C2366 H2352 0.930 . S
C2366 C2364 1.395 . S
C2366 C2369 1.403 . S
C2367 C2364 1.403 . S
C2367 C2368 1.524 . S
C2367 C2371 1.400 . S
C2368 H2353 0.960 . S
C2368 H2354 0.960 . S
C2368 H2355 0.960 . S
C2368 C2367 1.524 . S
C2369 C2366 1.403 . S
C2369 C2370 1.392 . S
C2369 C2373 1.495 . S
C2370 C2369 1.392 . S
C2370 C2371 1.385 . S
C2370 C2372 1.478 . S
C2371 H2365 0.930 . S
C2371 C2367 1.400 . S
C2371 C2370 1.385 . S
C2372 C2370 1.478 . S
C2372 C2374 1.381 . S
C2372 C2378 1.383 . S
C2373 C2369 1.495 . S
C2373 H2379 0.959 . S
C2373 H2380 0.961 . S
C2373 H2381 0.960 . S
C2374 C2372 1.381 . S
C2374 C2375 1.394 . S
C2374 H2382 0.930 . S
C2375 C2374 1.394 . S
C2375 C2376 1.383 . S
C2375 H2383 0.929 . S
C2376 C2375 1.383 . S
C2376 C2377 1.377 . S
C2377 H2361 0.930 . S
C2377 C2376 1.377 . S
C2377 C2378 1.379 . S
C2378 H2362 0.931 . S
C2378 C2372 1.383 . S
C2378 C2377 1.379 . S
H2379 C2373 0.959 . S
H2380 C2373 0.961 . S
H2381 C2373 0.960 . S
H2382 C2374 0.930 . S
H2383 C2375 0.929 . S
H2384 C2392 0.929 . S
H2385 C2394 0.930 . S
H2386 C2396 0.930 . S
H2387 C2399 0.929 . S
H2388 C2402 0.930 . S
H2389 C2404 0.960 . S
H2390 C2404 0.960 . S
H2391 C2404 0.960 . S
C2392 H2384 0.929 . S
C2392 C2393 1.377 . S
C2392 C2394 1.384 . S
C2393 C2392 1.377 . S
C2393 C2399 1.390 . S
C2394 H2385 0.930 . S
C2394 C2392 1.384 . S
C2394 C2395 1.372 . S
C2395 C2394 1.372 . S
C2395 C2396 1.400 . S
C2395 C2400 1.490 . S
C2396 H2386 0.930 . S
C2396 C2395 1.400 . S
C2396 C2399 1.386 . S
H2397 C2413 0.930 . S
H2398 C2414 0.931 . S
C2399 H2387 0.929 . S
C2399 C2393 1.390 . S
C2399 C2396 1.386 . S
C2400 C2395 1.490 . S
C2400 C2402 1.395 . S
C2400 C2403 1.403 . S
H2401 C2407 0.930 . S
C2402 H2388 0.930 . S
C2402 C2400 1.395 . S
C2402 C2405 1.403 . S
C2403 C2400 1.403 . S
C2403 C2404 1.524 . S
C2403 C2407 1.400 . S
C2404 H2389 0.960 . S
C2404 H2390 0.960 . S
C2404 H2391 0.960 . S
C2404 C2403 1.524 . S
C2405 C2402 1.403 . S
C2405 C2406 1.392 . S
C2405 C2409 1.495 . S
C2406 C2405 1.392 . S
C2406 C2407 1.385 . S
C2406 C2408 1.478 . S
C2407 H2401 0.930 . S
C2407 C2403 1.400 . S
C2407 C2406 1.385 . S
C2408 C2406 1.478 . S
C2408 C2410 1.381 . S
C2408 C2414 1.383 . S
C2409 C2405 1.495 . S
C2409 H2415 0.959 . S
C2409 H2416 0.961 . S
C2409 H2417 0.960 . S
C2410 C2408 1.381 . S
C2410 C2411 1.394 . S
C2410 H2418 0.930 . S
C2411 C2410 1.394 . S
C2411 C2412 1.383 . S
C2411 H2419 0.929 . S
C2412 C2411 1.383 . S
C2412 C2413 1.377 . S
C2413 H2397 0.930 . S
C2413 C2412 1.377 . S
C2413 C2414 1.379 . S
C2414 H2398 0.931 . S
C2414 C2408 1.383 . S
C2414 C2413 1.379 . S
H2415 C2409 0.959 . S
H2416 C2409 0.961 . S
H2417 C2409 0.960 . S
H2418 C2410 0.930 . S
H2419 C2411 0.929 . S
H2420 C2428 0.929 . S
H2421 C2430 0.930 . S
H2422 C2432 0.930 . S
H2423 C2435 0.929 . S
H2424 C2438 0.930 . S
H2425 C2440 0.960 . S
H2426 C2440 0.960 . S
H2427 C2440 0.960 . S
C2428 H2420 0.929 . S
C2428 C2429 1.377 . S
C2428 C2430 1.384 . S
C2429 C2428 1.377 . S
C2429 C2435 1.390 . S
C2430 H2421 0.930 . S
C2430 C2428 1.384 . S
C2430 C2431 1.372 . S
C2431 C2430 1.372 . S
C2431 C2432 1.400 . S
C2431 C2436 1.490 . S
C2432 H2422 0.930 . S
C2432 C2431 1.400 . S
C2432 C2435 1.386 . S
H2433 C2449 0.930 . S
H2434 C2450 0.931 . S
C2435 H2423 0.929 . S
C2435 C2429 1.390 . S
C2435 C2432 1.386 . S
C2436 C2431 1.490 . S
C2436 C2438 1.395 . S
C2436 C2439 1.403 . S
H2437 C2443 0.930 . S
C2438 H2424 0.930 . S
C2438 C2436 1.395 . S
C2438 C2441 1.403 . S
C2439 C2436 1.403 . S
C2439 C2440 1.524 . S
C2439 C2443 1.400 . S
C2440 H2425 0.960 . S
C2440 H2426 0.960 . S
C2440 H2427 0.960 . S
C2440 C2439 1.524 . S
C2441 C2438 1.403 . S
C2441 C2442 1.392 . S
C2441 C2445 1.495 . S
C2442 C2441 1.392 . S
C2442 C2443 1.385 . S
C2442 C2444 1.478 . S
C2443 H2437 0.930 . S
C2443 C2439 1.400 . S
C2443 C2442 1.385 . S
C2444 C2442 1.478 . S
C2444 C2446 1.381 . S
C2444 C2450 1.383 . S
C2445 C2441 1.495 . S
C2445 H2451 0.959 . S
C2445 H2452 0.961 . S
C2445 H2453 0.960 . S
C2446 C2444 1.381 . S
C2446 C2447 1.394 . S
C2446 H2454 0.930 . S
C2447 C2446 1.394 . S
C2447 C2448 1.383 . S
C2447 H2455 0.929 . S
C2448 C2447 1.383 . S
C2448 C2449 1.377 . S
C2449 H2433 0.930 . S
C2449 C2448 1.377 . S
C2449 C2450 1.379 . S
C2450 H2434 0.931 . S
C2450 C2444 1.383 . S
C2450 C2449 1.379 . S
H2451 C2445 0.959 . S
H2452 C2445 0.961 . S
H2453 C2445 0.960 . S
H2454 C2446 0.930 . S
H2455 C2447 0.929 . S
H2456 C2464 0.929 . S
H2457 C2466 0.930 . S
H2458 C2468 0.930 1_655 S
H2459 C2471 0.929 1_655 S
H2460 C2474 0.930 . S
H2461 C2476 0.960 . S
H2462 C2476 0.960 . S
H2463 C2476 0.960 . S
C2464 H2456 0.929 . S
C2464 C2465 1.377 . S
C2464 C2466 1.384 . S
C2465 C2464 1.377 . S
C2465 C2471 1.390 . S
C2466 H2457 0.930 . S
C2466 C2464 1.384 . S
C2466 C2467 1.372 . S
C2467 C2466 1.372 . S
C2467 C2468 1.400 . S
C2467 C2472 1.490 . S
C2468 H2458 0.930 1_455 S
C2468 C2467 1.400 . S
C2468 C2471 1.386 . S
H2469 C2485 0.930 1_556 S
H2470 C2486 0.931 . S
C2471 H2459 0.929 1_455 S
C2471 C2465 1.390 . S
C2471 C2468 1.386 . S
C2472 C2467 1.490 . S
C2472 C2474 1.395 . S
C2472 C2475 1.403 1_455 S
H2473 C2479 0.930 . S
C2474 H2460 0.930 . S
C2474 C2472 1.395 . S
C2474 C2477 1.403 . S
C2475 C2472 1.403 1_655 S
C2475 C2476 1.524 . S
C2475 C2479 1.400 . S
C2476 H2461 0.960 . S
C2476 H2462 0.960 . S
C2476 H2463 0.960 . S
C2476 C2475 1.524 . S
C2477 C2474 1.403 . S
C2477 C2478 1.392 . S
C2477 C2481 1.495 . S
C2478 C2477 1.392 . S
C2478 C2479 1.385 1_455 S
C2478 C2480 1.478 1_556 S
C2479 H2473 0.930 . S
C2479 C2475 1.400 . S
C2479 C2478 1.385 1_655 S
C2480 C2478 1.478 1_554 S
C2480 C2482 1.381 . S
C2480 C2486 1.383 1_554 S
C2481 C2477 1.495 . S
C2481 H2487 0.959 . S
C2481 H2488 0.961 . S
C2481 H2489 0.960 1_556 S
C2482 C2480 1.381 . S
C2482 C2483 1.394 . S
C2482 H2490 0.930 . S
C2483 C2482 1.394 . S
C2483 C2484 1.383 . S
C2483 H2491 0.929 . S
C2484 C2483 1.383 . S
C2484 C2485 1.377 . S
C2485 H2469 0.930 1_554 S
C2485 C2484 1.377 . S
C2485 C2486 1.379 1_554 S
C2486 H2470 0.931 . S
C2486 C2480 1.383 1_556 S
C2486 C2485 1.379 1_556 S
H2487 C2481 0.959 . S
H2488 C2481 0.961 . S
H2489 C2481 0.960 1_554 S
H2490 C2482 0.930 . S
H2491 C2483 0.929 . S
H2492 C2500 0.929 . S
H2493 C2502 0.930 . S
H2494 C2504 0.930 . S
H2495 C2507 0.929 . S
H2496 C2510 0.930 . S
H2497 C2512 0.960 . S
H2498 C2512 0.960 . S
H2499 C2512 0.960 . S
C2500 H2492 0.929 . S
C2500 C2501 1.377 . S
C2500 C2502 1.384 . S
C2501 C2500 1.377 . S
C2501 C2507 1.390 . S
C2502 H2493 0.930 . S
C2502 C2500 1.384 . S
C2502 C2503 1.372 . S
C2503 C2502 1.372 . S
C2503 C2504 1.400 . S
C2503 C2508 1.490 . S
C2504 H2494 0.930 . S
C2504 C2503 1.400 . S
C2504 C2507 1.386 . S
H2505 C2521 0.930 . S
H2506 C2522 0.931 . S
C2507 H2495 0.929 . S
C2507 C2501 1.390 . S
C2507 C2504 1.386 . S
C2508 C2503 1.490 . S
C2508 C2510 1.395 . S
C2508 C2511 1.403 . S
H2509 C2515 0.930 . S
C2510 H2496 0.930 . S
C2510 C2508 1.395 . S
C2510 C2513 1.403 . S
C2511 C2508 1.403 . S
C2511 C2512 1.524 . S
C2511 C2515 1.400 . S
C2512 H2497 0.960 . S
C2512 H2498 0.960 . S
C2512 H2499 0.960 . S
C2512 C2511 1.524 . S
C2513 C2510 1.403 . S
C2513 C2514 1.392 . S
C2513 C2517 1.495 . S
C2514 C2513 1.392 . S
C2514 C2515 1.385 . S
C2514 C2516 1.478 . S
C2515 H2509 0.930 . S
C2515 C2511 1.400 . S
C2515 C2514 1.385 . S
C2516 C2514 1.478 . S
C2516 C2518 1.381 . S
C2516 C2522 1.383 . S
C2517 C2513 1.495 . S
C2517 H2523 0.959 . S
C2517 H2524 0.961 . S
C2517 H2525 0.960 . S
C2518 C2516 1.381 . S
C2518 C2519 1.394 . S
C2518 H2526 0.930 . S
C2519 C2518 1.394 . S
C2519 C2520 1.383 . S
C2519 H2527 0.929 . S
C2520 C2519 1.383 . S
C2520 C2521 1.377 . S
C2521 H2505 0.930 . S
C2521 C2520 1.377 . S
C2521 C2522 1.379 . S
C2522 H2506 0.931 . S
C2522 C2516 1.383 . S
C2522 C2521 1.379 . S
H2523 C2517 0.959 . S
H2524 C2517 0.961 . S
H2525 C2517 0.960 . S
H2526 C2518 0.930 . S
H2527 C2519 0.929 . S
H2528 C2536 0.929 . S
H2529 C2538 0.930 . S
H2530 C2540 0.930 . S
H2531 C2543 0.929 . S
H2532 C2546 0.930 . S
H2533 C2548 0.960 . S
H2534 C2548 0.960 . S
H2535 C2548 0.960 . S
C2536 H2528 0.929 . S
C2536 C2537 1.377 . S
C2536 C2538 1.384 . S
C2537 C2536 1.377 . S
C2537 C2543 1.390 . S
C2538 H2529 0.930 . S
C2538 C2536 1.384 . S
C2538 C2539 1.372 . S
C2539 C2538 1.372 . S
C2539 C2540 1.400 . S
C2539 C2544 1.490 . S
C2540 H2530 0.930 . S
C2540 C2539 1.400 . S
C2540 C2543 1.386 . S
H2541 C2557 0.930 . S
H2542 C2558 0.931 . S
C2543 H2531 0.929 . S
C2543 C2537 1.390 . S
C2543 C2540 1.386 . S
C2544 C2539 1.490 . S
C2544 C2546 1.395 . S
C2544 C2547 1.403 . S
H2545 C2551 0.930 . S
C2546 H2532 0.930 . S
C2546 C2544 1.395 . S
C2546 C2549 1.403 . S
C2547 C2544 1.403 . S
C2547 C2548 1.524 . S
C2547 C2551 1.400 . S
C2548 H2533 0.960 . S
C2548 H2534 0.960 . S
C2548 H2535 0.960 . S
C2548 C2547 1.524 . S
C2549 C2546 1.403 . S
C2549 C2550 1.392 . S
C2549 C2553 1.495 . S
C2550 C2549 1.392 . S
C2550 C2551 1.385 . S
C2550 C2552 1.478 . S
C2551 H2545 0.930 . S
C2551 C2547 1.400 . S
C2551 C2550 1.385 . S
C2552 C2550 1.478 . S
C2552 C2554 1.381 . S
C2552 C2558 1.383 . S
C2553 C2549 1.495 . S
C2553 H2559 0.959 . S
C2553 H2560 0.961 . S
C2553 H2561 0.960 . S
C2554 C2552 1.381 . S
C2554 C2555 1.394 . S
C2554 H2562 0.930 . S
C2555 C2554 1.394 . S
C2555 C2556 1.383 . S
C2555 H2563 0.929 . S
C2556 C2555 1.383 . S
C2556 C2557 1.377 . S
C2557 H2541 0.930 . S
C2557 C2556 1.377 . S
C2557 C2558 1.379 . S
C2558 H2542 0.931 . S
C2558 C2552 1.383 . S
C2558 C2557 1.379 . S
H2559 C2553 0.959 . S
H2560 C2553 0.961 . S
H2561 C2553 0.960 . S
H2562 C2554 0.930 . S
H2563 C2555 0.929 . S
H2564 C2572 0.929 . S
H2565 C2574 0.930 . S
H2566 C2576 0.930 . S
H2567 C2579 0.929 . S
H2568 C2582 0.930 . S
H2569 C2584 0.960 . S
H2570 C2584 0.960 . S
H2571 C2584 0.960 . S
C2572 H2564 0.929 . S
C2572 C2573 1.377 . S
C2572 C2574 1.384 . S
C2573 C2572 1.377 . S
C2573 C2579 1.390 . S
C2574 H2565 0.930 . S
C2574 C2572 1.384 . S
C2574 C2575 1.372 . S
C2575 C2574 1.372 . S
C2575 C2576 1.400 . S
C2575 C2580 1.490 . S
C2576 H2566 0.930 . S
C2576 C2575 1.400 . S
C2576 C2579 1.386 . S
H2577 C2593 0.930 . S
H2578 C2594 0.931 . S
C2579 H2567 0.929 . S
C2579 C2573 1.390 . S
C2579 C2576 1.386 . S
C2580 C2575 1.490 . S
C2580 C2582 1.395 . S
C2580 C2583 1.403 . S
H2581 C2587 0.930 . S
C2582 H2568 0.930 . S
C2582 C2580 1.395 . S
C2582 C2585 1.403 . S
C2583 C2580 1.403 . S
C2583 C2584 1.524 . S
C2583 C2587 1.400 . S
C2584 H2569 0.960 . S
C2584 H2570 0.960 . S
C2584 H2571 0.960 . S
C2584 C2583 1.524 . S
C2585 C2582 1.403 . S
C2585 C2586 1.392 . S
C2585 C2589 1.495 . S
C2586 C2585 1.392 . S
C2586 C2587 1.385 . S
C2586 C2588 1.478 . S
C2587 H2581 0.930 . S
C2587 C2583 1.400 . S
C2587 C2586 1.385 . S
C2588 C2586 1.478 . S
C2588 C2590 1.381 . S
C2588 C2594 1.383 . S
C2589 C2585 1.495 . S
C2589 H2595 0.959 . S
C2589 H2596 0.961 . S
C2589 H2597 0.960 . S
C2590 C2588 1.381 . S
C2590 C2591 1.394 . S
C2590 H2598 0.930 . S
C2591 C2590 1.394 . S
C2591 C2592 1.383 . S
C2591 H2599 0.929 . S
C2592 C2591 1.383 . S
C2592 C2593 1.377 . S
C2593 H2577 0.930 . S
C2593 C2592 1.377 . S
C2593 C2594 1.379 . S
C2594 H2578 0.931 . S
C2594 C2588 1.383 . S
C2594 C2593 1.379 . S
H2595 C2589 0.959 . S
H2596 C2589 0.961 . S
H2597 C2589 0.960 . S
H2598 C2590 0.930 . S
H2599 C2591 0.929 . S
H2600 C2608 0.929 . S
H2601 C2610 0.930 . S
H2602 C2612 0.930 . S
H2603 C2615 0.929 . S
H2604 C2618 0.930 . S
H2605 C2620 0.960 . S
H2606 C2620 0.960 1_455 S
H2607 C2620 0.960 . S
C2608 H2600 0.929 . S
C2608 C2609 1.377 . S
C2608 C2610 1.384 . S
C2609 C2608 1.377 . S
C2609 C2615 1.390 1_455 S
C2610 H2601 0.930 . S
C2610 C2608 1.384 . S
C2610 C2611 1.372 . S
C2611 C2610 1.372 . S
C2611 C2612 1.400 1_455 S
C2611 C2616 1.490 . S
C2612 H2602 0.930 . S
C2612 C2611 1.400 1_655 S
C2612 C2615 1.386 . S
H2613 C2629 0.930 . S
H2614 C2630 0.931 . S
C2615 H2603 0.929 . S
C2615 C2609 1.390 1_655 S
C2615 C2612 1.386 . S
C2616 C2611 1.490 . S
C2616 C2618 1.395 . S
C2616 C2619 1.403 . S
H2617 C2623 0.930 1_655 S
C2618 H2604 0.930 . S
C2618 C2616 1.395 . S
C2618 C2621 1.403 . S
C2619 C2616 1.403 . S
C2619 C2620 1.524 1_455 S
C2619 C2623 1.400 . S
C2620 H2605 0.960 . S
C2620 H2606 0.960 1_655 S
C2620 H2607 0.960 . S
C2620 C2619 1.524 1_655 S
C2621 C2618 1.403 . S
C2621 C2622 1.392 . S
C2621 C2625 1.495 . S
C2622 C2621 1.392 . S
C2622 C2623 1.385 . S
C2622 C2624 1.478 . S
C2623 H2617 0.930 1_455 S
C2623 C2619 1.400 . S
C2623 C2622 1.385 . S
C2624 C2622 1.478 . S
C2624 C2626 1.381 . S
C2624 C2630 1.383 1_455 S
C2625 C2621 1.495 . S
C2625 H2631 0.959 . S
C2625 H2632 0.961 . S
C2625 H2633 0.960 . S
C2626 C2624 1.381 . S
C2626 C2627 1.394 . S
C2626 H2634 0.930 . S
C2627 C2626 1.394 . S
C2627 C2628 1.383 . S
C2627 H2635 0.929 . S
C2628 C2627 1.383 . S
C2628 C2629 1.377 1_455 S
C2629 H2613 0.930 . S
C2629 C2628 1.377 1_655 S
C2629 C2630 1.379 . S
C2630 H2614 0.931 . S
C2630 C2624 1.383 1_655 S
C2630 C2629 1.379 . S
H2631 C2625 0.959 . S
H2632 C2625 0.961 . S
H2633 C2625 0.960 . S
H2634 C2626 0.930 . S
H2635 C2627 0.929 . S
H2636 C2644 0.929 . S
H2637 C2646 0.930 . S
H2638 C2648 0.930 . S
H2639 C2651 0.929 . S
H2640 C2654 0.930 . S
H2641 C2656 0.960 . S
H2642 C2656 0.960 . S
H2643 C2656 0.960 . S
C2644 H2636 0.929 . S
C2644 C2645 1.377 . S
C2644 C2646 1.384 . S
C2645 C2644 1.377 . S
C2645 C2651 1.390 . S
C2646 H2637 0.930 . S
C2646 C2644 1.384 . S
C2646 C2647 1.372 . S
C2647 C2646 1.372 . S
C2647 C2648 1.400 . S
C2647 C2652 1.490 . S
C2648 H2638 0.930 . S
C2648 C2647 1.400 . S
C2648 C2651 1.386 . S
H2649 C2665 0.930 . S
H2650 C2666 0.931 . S
C2651 H2639 0.929 . S
C2651 C2645 1.390 . S
C2651 C2648 1.386 . S
C2652 C2647 1.490 . S
C2652 C2654 1.395 . S
C2652 C2655 1.403 . S
H2653 C2659 0.930 . S
C2654 H2640 0.930 . S
C2654 C2652 1.395 . S
C2654 C2657 1.403 . S
C2655 C2652 1.403 . S
C2655 C2656 1.524 . S
C2655 C2659 1.400 . S
C2656 H2641 0.960 . S
C2656 H2642 0.960 . S
C2656 H2643 0.960 . S
C2656 C2655 1.524 . S
C2657 C2654 1.403 . S
C2657 C2658 1.392 . S
C2657 C2661 1.495 . S
C2658 C2657 1.392 . S
C2658 C2659 1.385 . S
C2658 C2660 1.478 . S
C2659 H2653 0.930 . S
C2659 C2655 1.400 . S
C2659 C2658 1.385 . S
C2660 C2658 1.478 . S
C2660 C2662 1.381 . S
C2660 C2666 1.383 . S
C2661 C2657 1.495 . S
C2661 H2667 0.959 . S
C2661 H2668 0.961 . S
C2661 H2669 0.960 . S
C2662 C2660 1.381 . S
C2662 C2663 1.394 . S
C2662 H2670 0.930 . S
C2663 C2662 1.394 . S
C2663 C2664 1.383 . S
C2663 H2671 0.929 . S
C2664 C2663 1.383 . S
C2664 C2665 1.377 . S
C2665 H2649 0.930 . S
C2665 C2664 1.377 . S
C2665 C2666 1.379 . S
C2666 H2650 0.931 . S
C2666 C2660 1.383 . S
C2666 C2665 1.379 . S
H2667 C2661 0.959 . S
H2668 C2661 0.961 . S
H2669 C2661 0.960 . S
H2670 C2662 0.930 . S
H2671 C2663 0.929 . S
H2672 C2680 0.929 . S
H2673 C2682 0.930 . S
H2674 C2684 0.930 . S
H2675 C2687 0.929 . S
H2676 C2690 0.930 . S
H2677 C2692 0.960 . S
H2678 C2692 0.960 . S
H2679 C2692 0.960 . S
C2680 H2672 0.929 . S
C2680 C2681 1.377 . S
C2680 C2682 1.384 . S
C2681 C2680 1.377 . S
C2681 C2687 1.390 . S
C2682 H2673 0.930 . S
C2682 C2680 1.384 . S
C2682 C2683 1.372 . S
C2683 C2682 1.372 . S
C2683 C2684 1.400 . S
C2683 C2688 1.490 . S
C2684 H2674 0.930 . S
C2684 C2683 1.400 . S
C2684 C2687 1.386 . S
H2685 C2701 0.930 . S
H2686 C2702 0.931 . S
C2687 H2675 0.929 . S
C2687 C2681 1.390 . S
C2687 C2684 1.386 . S
C2688 C2683 1.490 . S
C2688 C2690 1.395 . S
C2688 C2691 1.403 . S
H2689 C2695 0.930 . S
C2690 H2676 0.930 . S
C2690 C2688 1.395 . S
C2690 C2693 1.403 . S
C2691 C2688 1.403 . S
C2691 C2692 1.524 . S
C2691 C2695 1.400 . S
C2692 H2677 0.960 . S
C2692 H2678 0.960 . S
C2692 H2679 0.960 . S
C2692 C2691 1.524 . S
C2693 C2690 1.403 . S
C2693 C2694 1.392 . S
C2693 C2697 1.495 . S
C2694 C2693 1.392 . S
C2694 C2695 1.385 . S
C2694 C2696 1.478 . S
C2695 H2689 0.930 . S
C2695 C2691 1.400 . S
C2695 C2694 1.385 . S
C2696 C2694 1.478 . S
C2696 C2698 1.381 . S
C2696 C2702 1.383 . S
C2697 C2693 1.495 . S
C2697 H2703 0.959 . S
C2697 H2704 0.961 . S
C2697 H2705 0.960 . S
C2698 C2696 1.381 . S
C2698 C2699 1.394 . S
C2698 H2706 0.930 . S
C2699 C2698 1.394 . S
C2699 C2700 1.383 . S
C2699 H2707 0.929 . S
C2700 C2699 1.383 . S
C2700 C2701 1.377 . S
C2701 H2685 0.930 . S
C2701 C2700 1.377 . S
C2701 C2702 1.379 . S
C2702 H2686 0.931 . S
C2702 C2696 1.383 . S
C2702 C2701 1.379 . S
H2703 C2697 0.959 . S
H2704 C2697 0.961 . S
H2705 C2697 0.960 . S
H2706 C2698 0.930 . S
H2707 C2699 0.929 . S
H2708 C2716 0.929 . S
H2709 C2718 0.930 . S
H2710 C2720 0.930 . S
H2711 C2723 0.929 . S
H2712 C2726 0.930 . S
H2713 C2728 0.960 . S
H2714 C2728 0.960 . S
H2715 C2728 0.960 . S
C2716 H2708 0.929 . S
C2716 C2717 1.377 . S
C2716 C2718 1.384 . S
C2717 C2716 1.377 . S
C2717 C2723 1.390 . S
C2718 H2709 0.930 . S
C2718 C2716 1.384 . S
C2718 C2719 1.372 . S
C2719 C2718 1.372 . S
C2719 C2720 1.400 . S
C2719 C2724 1.490 . S
C2720 H2710 0.930 . S
C2720 C2719 1.400 . S
C2720 C2723 1.386 . S
H2721 C2737 0.930 . S
H2722 C2738 0.931 . S
C2723 H2711 0.929 . S
C2723 C2717 1.390 . S
C2723 C2720 1.386 . S
C2724 C2719 1.490 . S
C2724 C2726 1.395 . S
C2724 C2727 1.403 . S
H2725 C2731 0.930 . S
C2726 H2712 0.930 . S
C2726 C2724 1.395 . S
C2726 C2729 1.403 . S
C2727 C2724 1.403 . S
C2727 C2728 1.524 . S
C2727 C2731 1.400 . S
C2728 H2713 0.960 . S
C2728 H2714 0.960 . S
C2728 H2715 0.960 . S
C2728 C2727 1.524 . S
C2729 C2726 1.403 . S
C2729 C2730 1.392 . S
C2729 C2733 1.495 . S
C2730 C2729 1.392 . S
C2730 C2731 1.385 . S
C2730 C2732 1.478 . S
C2731 H2725 0.930 . S
C2731 C2727 1.400 . S
C2731 C2730 1.385 . S
C2732 C2730 1.478 . S
C2732 C2734 1.381 . S
C2732 C2738 1.383 . S
C2733 C2729 1.495 . S
C2733 H2739 0.959 . S
C2733 H2740 0.961 . S
C2733 H2741 0.960 . S
C2734 C2732 1.381 . S
C2734 C2735 1.394 . S
C2734 H2742 0.930 . S
C2735 C2734 1.394 . S
C2735 C2736 1.383 . S
C2735 H2743 0.929 . S
C2736 C2735 1.383 . S
C2736 C2737 1.377 . S
C2737 H2721 0.930 . S
C2737 C2736 1.377 . S
C2737 C2738 1.379 . S
C2738 H2722 0.931 . S
C2738 C2732 1.383 . S
C2738 C2737 1.379 . S
H2739 C2733 0.959 . S
H2740 C2733 0.961 . S
H2741 C2733 0.960 . S
H2742 C2734 0.930 . S
H2743 C2735 0.929 . S
H2744 C2752 0.929 . S
H2745 C2754 0.930 . S
H2746 C2756 0.930 . S
H2747 C2759 0.929 . S
H2748 C2762 0.930 . S
H2749 C2764 0.960 . S
H2750 C2764 0.960 . S
H2751 C2764 0.960 . S
C2752 H2744 0.929 . S
C2752 C2753 1.377 . S
C2752 C2754 1.384 . S
C2753 C2752 1.377 . S
C2753 C2759 1.390 . S
C2754 H2745 0.930 . S
C2754 C2752 1.384 . S
C2754 C2755 1.372 . S
C2755 C2754 1.372 . S
C2755 C2756 1.400 . S
C2755 C2760 1.490 . S
C2756 H2746 0.930 . S
C2756 C2755 1.400 . S
C2756 C2759 1.386 . S
H2757 C2773 0.930 . S
H2758 C2774 0.931 . S
C2759 H2747 0.929 . S
C2759 C2753 1.390 . S
C2759 C2756 1.386 . S
C2760 C2755 1.490 . S
C2760 C2762 1.395 . S
C2760 C2763 1.403 . S
H2761 C2767 0.930 . S
C2762 H2748 0.930 . S
C2762 C2760 1.395 . S
C2762 C2765 1.403 . S
C2763 C2760 1.403 . S
C2763 C2764 1.524 . S
C2763 C2767 1.400 . S
C2764 H2749 0.960 . S
C2764 H2750 0.960 . S
C2764 H2751 0.960 . S
C2764 C2763 1.524 . S
C2765 C2762 1.403 . S
C2765 C2766 1.392 . S
C2765 C2769 1.495 . S
C2766 C2765 1.392 . S
C2766 C2767 1.385 . S
C2766 C2768 1.478 . S
C2767 H2761 0.930 . S
C2767 C2763 1.400 . S
C2767 C2766 1.385 . S
C2768 C2766 1.478 . S
C2768 C2770 1.381 . S
C2768 C2774 1.383 . S
C2769 C2765 1.495 . S
C2769 H2775 0.959 . S
C2769 H2776 0.961 . S
C2769 H2777 0.960 . S
C2770 C2768 1.381 . S
C2770 C2771 1.394 . S
C2770 H2778 0.930 . S
C2771 C2770 1.394 . S
C2771 C2772 1.383 . S
C2771 H2779 0.929 . S
C2772 C2771 1.383 . S
C2772 C2773 1.377 . S
C2773 H2757 0.930 . S
C2773 C2772 1.377 . S
C2773 C2774 1.379 . S
C2774 H2758 0.931 . S
C2774 C2768 1.383 . S
C2774 C2773 1.379 . S
H2775 C2769 0.959 . S
H2776 C2769 0.961 . S
H2777 C2769 0.960 . S
H2778 C2770 0.930 . S
H2779 C2771 0.929 . S
H2780 C2788 0.929 . S
H2781 C2790 0.930 . S
H2782 C2792 0.930 . S
H2783 C2795 0.929 . S
H2784 C2798 0.930 . S
H2785 C2800 0.960 . S
H2786 C2800 0.960 . S
H2787 C2800 0.960 . S
C2788 H2780 0.929 . S
C2788 C2789 1.377 . S
C2788 C2790 1.384 . S
C2789 C2788 1.377 . S
C2789 C2795 1.390 . S
C2790 H2781 0.930 . S
C2790 C2788 1.384 . S
C2790 C2791 1.372 . S
C2791 C2790 1.372 . S
C2791 C2792 1.400 . S
C2791 C2796 1.490 . S
C2792 H2782 0.930 . S
C2792 C2791 1.400 . S
C2792 C2795 1.386 . S
H2793 C2809 0.930 . S
H2794 C2810 0.931 . S
C2795 H2783 0.929 . S
C2795 C2789 1.390 . S
C2795 C2792 1.386 . S
C2796 C2791 1.490 . S
C2796 C2798 1.395 . S
C2796 C2799 1.403 . S
H2797 C2803 0.930 . S
C2798 H2784 0.930 . S
C2798 C2796 1.395 . S
C2798 C2801 1.403 . S
C2799 C2796 1.403 . S
C2799 C2800 1.524 . S
C2799 C2803 1.400 . S
C2800 H2785 0.960 . S
C2800 H2786 0.960 . S
C2800 H2787 0.960 . S
C2800 C2799 1.524 . S
C2801 C2798 1.403 . S
C2801 C2802 1.392 . S
C2801 C2805 1.495 . S
C2802 C2801 1.392 . S
C2802 C2803 1.385 . S
C2802 C2804 1.478 . S
C2803 H2797 0.930 . S
C2803 C2799 1.400 . S
C2803 C2802 1.385 . S
C2804 C2802 1.478 . S
C2804 C2806 1.381 . S
C2804 C2810 1.383 . S
C2805 C2801 1.495 . S
C2805 H2811 0.959 . S
C2805 H2812 0.961 . S
C2805 H2813 0.960 . S
C2806 C2804 1.381 . S
C2806 C2807 1.394 . S
C2806 H2814 0.930 . S
C2807 C2806 1.394 . S
C2807 C2808 1.383 . S
C2807 H2815 0.929 . S
C2808 C2807 1.383 . S
C2808 C2809 1.377 . S
C2809 H2793 0.930 . S
C2809 C2808 1.377 . S
C2809 C2810 1.379 . S
C2810 H2794 0.931 . S
C2810 C2804 1.383 . S
C2810 C2809 1.379 . S
H2811 C2805 0.959 . S
H2812 C2805 0.961 . S
H2813 C2805 0.960 . S
H2814 C2806 0.930 . S
H2815 C2807 0.929 . S
H2816 C2824 0.929 . S
H2817 C2826 0.930 . S
H2818 C2828 0.930 . S
H2819 C2831 0.929 . S
H2820 C2834 0.930 . S
H2821 C2836 0.960 . S
H2822 C2836 0.960 . S
H2823 C2836 0.960 . S
C2824 H2816 0.929 . S
C2824 C2825 1.377 . S
C2824 C2826 1.384 . S
C2825 C2824 1.377 . S
C2825 C2831 1.390 . S
C2826 H2817 0.930 . S
C2826 C2824 1.384 . S
C2826 C2827 1.372 . S
C2827 C2826 1.372 . S
C2827 C2828 1.400 . S
C2827 C2832 1.490 . S
C2828 H2818 0.930 . S
C2828 C2827 1.400 . S
C2828 C2831 1.386 . S
H2829 C2845 0.930 . S
H2830 C2846 0.931 . S
C2831 H2819 0.929 . S
C2831 C2825 1.390 . S
C2831 C2828 1.386 . S
C2832 C2827 1.490 . S
C2832 C2834 1.395 . S
C2832 C2835 1.403 . S
H2833 C2839 0.930 . S
C2834 H2820 0.930 . S
C2834 C2832 1.395 . S
C2834 C2837 1.403 . S
C2835 C2832 1.403 . S
C2835 C2836 1.524 . S
C2835 C2839 1.400 . S
C2836 H2821 0.960 . S
C2836 H2822 0.960 . S
C2836 H2823 0.960 . S
C2836 C2835 1.524 . S
C2837 C2834 1.403 . S
C2837 C2838 1.392 . S
C2837 C2841 1.495 . S
C2838 C2837 1.392 . S
C2838 C2839 1.385 . S
C2838 C2840 1.478 . S
C2839 H2833 0.930 . S
C2839 C2835 1.400 . S
C2839 C2838 1.385 . S
C2840 C2838 1.478 . S
C2840 C2842 1.381 . S
C2840 C2846 1.383 . S
C2841 C2837 1.495 . S
C2841 H2847 0.959 . S
C2841 H2848 0.961 . S
C2841 H2849 0.960 . S
C2842 C2840 1.381 . S
C2842 C2843 1.394 . S
C2842 H2850 0.930 . S
C2843 C2842 1.394 . S
C2843 C2844 1.383 . S
C2843 H2851 0.929 . S
C2844 C2843 1.383 . S
C2844 C2845 1.377 . S
C2845 H2829 0.930 . S
C2845 C2844 1.377 . S
C2845 C2846 1.379 . S
C2846 H2830 0.931 . S
C2846 C2840 1.383 . S
C2846 C2845 1.379 . S
H2847 C2841 0.959 . S
H2848 C2841 0.961 . S
H2849 C2841 0.960 . S
H2850 C2842 0.930 . S
H2851 C2843 0.929 . S
H2852 C2860 0.929 . S
H2853 C2862 0.930 . S
H2854 C2864 0.930 . S
H2855 C2867 0.929 . S
H2856 C2870 0.930 . S
H2857 C2872 0.960 . S
H2858 C2872 0.960 . S
H2859 C2872 0.960 . S
C2860 H2852 0.929 . S
C2860 C2861 1.377 . S
C2860 C2862 1.384 . S
C2861 C2860 1.377 . S
C2861 C2867 1.390 . S
C2862 H2853 0.930 . S
C2862 C2860 1.384 . S
C2862 C2863 1.372 . S
C2863 C2862 1.372 . S
C2863 C2864 1.400 . S
C2863 C2868 1.490 . S
C2864 H2854 0.930 . S
C2864 C2863 1.400 . S
C2864 C2867 1.386 . S
H2865 C2881 0.930 . S
H2866 C2882 0.931 . S
C2867 H2855 0.929 . S
C2867 C2861 1.390 . S
C2867 C2864 1.386 . S
C2868 C2863 1.490 . S
C2868 C2870 1.395 . S
C2868 C2871 1.403 . S
H2869 C2875 0.930 . S
C2870 H2856 0.930 . S
C2870 C2868 1.395 . S
C2870 C2873 1.403 . S
C2871 C2868 1.403 . S
C2871 C2872 1.524 . S
C2871 C2875 1.400 . S
C2872 H2857 0.960 . S
C2872 H2858 0.960 . S
C2872 H2859 0.960 . S
C2872 C2871 1.524 . S
C2873 C2870 1.403 . S
C2873 C2874 1.392 . S
C2873 C2877 1.495 . S
C2874 C2873 1.392 . S
C2874 C2875 1.385 . S
C2874 C2876 1.478 . S
C2875 H2869 0.930 . S
C2875 C2871 1.400 . S
C2875 C2874 1.385 . S
C2876 C2874 1.478 . S
C2876 C2878 1.381 . S
C2876 C2882 1.383 . S
C2877 C2873 1.495 . S
C2877 H2883 0.959 . S
C2877 H2884 0.961 . S
C2877 H2885 0.960 . S
C2878 C2876 1.381 . S
C2878 C2879 1.394 . S
C2878 H2886 0.930 . S
C2879 C2878 1.394 . S
C2879 C2880 1.383 . S
C2879 H2887 0.929 . S
C2880 C2879 1.383 . S
C2880 C2881 1.377 . S
C2881 H2865 0.930 . S
C2881 C2880 1.377 . S
C2881 C2882 1.379 . S
C2882 H2866 0.931 . S
C2882 C2876 1.383 . S
C2882 C2881 1.379 . S
H2883 C2877 0.959 . S
H2884 C2877 0.961 . S
H2885 C2877 0.960 . S
H2886 C2878 0.930 . S
H2887 C2879 0.929 . S
H2888 C2896 0.929 . S
H2889 C2898 0.930 . S
H2890 C2900 0.930 . S
H2891 C2903 0.929 . S
H2892 C2906 0.930 . S
H2893 C2908 0.960 . S
H2894 C2908 0.960 . S
H2895 C2908 0.960 . S
C2896 H2888 0.929 . S
C2896 C2897 1.377 . S
C2896 C2898 1.384 . S
C2897 C2896 1.377 . S
C2897 C2903 1.390 . S
C2898 H2889 0.930 . S
C2898 C2896 1.384 . S
C2898 C2899 1.372 . S
C2899 C2898 1.372 . S
C2899 C2900 1.400 . S
C2899 C2904 1.490 . S
C2900 H2890 0.930 . S
C2900 C2899 1.400 . S
C2900 C2903 1.386 . S
H2901 C2917 0.930 . S
H2902 C2918 0.931 . S
C2903 H2891 0.929 . S
C2903 C2897 1.390 . S
C2903 C2900 1.386 . S
C2904 C2899 1.490 . S
C2904 C2906 1.395 . S
C2904 C2907 1.403 . S
H2905 C2911 0.930 . S
C2906 H2892 0.930 . S
C2906 C2904 1.395 . S
C2906 C2909 1.403 . S
C2907 C2904 1.403 . S
C2907 C2908 1.524 . S
C2907 C2911 1.400 . S
C2908 H2893 0.960 . S
C2908 H2894 0.960 . S
C2908 H2895 0.960 . S
C2908 C2907 1.524 . S
C2909 C2906 1.403 . S
C2909 C2910 1.392 . S
C2909 C2913 1.495 . S
C2910 C2909 1.392 . S
C2910 C2911 1.385 . S
C2910 C2912 1.478 . S
C2911 H2905 0.930 . S
C2911 C2907 1.400 . S
C2911 C2910 1.385 . S
C2912 C2910 1.478 . S
C2912 C2914 1.381 . S
C2912 C2918 1.383 . S
C2913 C2909 1.495 . S
C2913 H2919 0.959 . S
C2913 H2920 0.961 . S
C2913 H2921 0.960 . S
C2914 C2912 1.381 . S
C2914 C2915 1.394 . S
C2914 H2922 0.930 . S
C2915 C2914 1.394 . S
C2915 C2916 1.383 . S
C2915 H2923 0.929 . S
C2916 C2915 1.383 . S
C2916 C2917 1.377 . S
C2917 H2901 0.930 . S
C2917 C2916 1.377 . S
C2917 C2918 1.379 . S
C2918 H2902 0.931 . S
C2918 C2912 1.383 . S
C2918 C2917 1.379 . S
H2919 C2913 0.959 . S
H2920 C2913 0.961 . S
H2921 C2913 0.960 . S
H2922 C2914 0.930 . S
H2923 C2915 0.929 . S
H2924 C2932 0.929 . S
H2925 C2934 0.930 . S
H2926 C2936 0.930 . S
H2927 C2939 0.929 . S
H2928 C2942 0.930 . S
H2929 C2944 0.960 . S
H2930 C2944 0.960 . S
H2931 C2944 0.960 . S
C2932 H2924 0.929 . S
C2932 C2933 1.377 . S
C2932 C2934 1.384 . S
C2933 C2932 1.377 . S
C2933 C2939 1.390 . S
C2934 H2925 0.930 . S
C2934 C2932 1.384 . S
C2934 C2935 1.372 . S
C2935 C2934 1.372 . S
C2935 C2936 1.400 . S
C2935 C2940 1.490 . S
C2936 H2926 0.930 . S
C2936 C2935 1.400 . S
C2936 C2939 1.386 . S
H2937 C2953 0.930 . S
H2938 C2954 0.931 . S
C2939 H2927 0.929 . S
C2939 C2933 1.390 . S
C2939 C2936 1.386 . S
C2940 C2935 1.490 . S
C2940 C2942 1.395 . S
C2940 C2943 1.403 . S
H2941 C2947 0.930 . S
C2942 H2928 0.930 . S
C2942 C2940 1.395 . S
C2942 C2945 1.403 . S
C2943 C2940 1.403 . S
C2943 C2944 1.524 . S
C2943 C2947 1.400 . S
C2944 H2929 0.960 . S
C2944 H2930 0.960 . S
C2944 H2931 0.960 . S
C2944 C2943 1.524 . S
C2945 C2942 1.403 . S
C2945 C2946 1.392 . S
C2945 C2949 1.495 . S
C2946 C2945 1.392 . S
C2946 C2947 1.385 . S
C2946 C2948 1.478 . S
C2947 H2941 0.930 . S
C2947 C2943 1.400 . S
C2947 C2946 1.385 . S
C2948 C2946 1.478 . S
C2948 C2950 1.381 . S
C2948 C2954 1.383 . S
C2949 C2945 1.495 . S
C2949 H2955 0.959 . S
C2949 H2956 0.961 . S
C2949 H2957 0.960 . S
C2950 C2948 1.381 . S
C2950 C2951 1.394 . S
C2950 H2958 0.930 . S
C2951 C2950 1.394 . S
C2951 C2952 1.383 . S
C2951 H2959 0.929 . S
C2952 C2951 1.383 . S
C2952 C2953 1.377 . S
C2953 H2937 0.930 . S
C2953 C2952 1.377 . S
C2953 C2954 1.379 . S
C2954 H2938 0.931 . S
C2954 C2948 1.383 . S
C2954 C2953 1.379 . S
H2955 C2949 0.959 . S
H2956 C2949 0.961 . S
H2957 C2949 0.960 . S
H2958 C2950 0.930 . S
H2959 C2951 0.929 . S
H2960 C2968 0.929 . S
H2961 C2970 0.930 . S
H2962 C2972 0.930 . S
H2963 C2975 0.929 . S
H2964 C2978 0.930 . S
H2965 C2980 0.960 . S
H2966 C2980 0.960 . S
H2967 C2980 0.960 . S
C2968 H2960 0.929 . S
C2968 C2969 1.377 . S
C2968 C2970 1.384 . S
C2969 C2968 1.377 . S
C2969 C2975 1.390 . S
C2970 H2961 0.930 . S
C2970 C2968 1.384 . S
C2970 C2971 1.372 . S
C2971 C2970 1.372 . S
C2971 C2972 1.400 . S
C2971 C2976 1.490 . S
C2972 H2962 0.930 . S
C2972 C2971 1.400 . S
C2972 C2975 1.386 . S
H2973 C2989 0.930 . S
H2974 C2990 0.931 . S
C2975 H2963 0.929 . S
C2975 C2969 1.390 . S
C2975 C2972 1.386 . S
C2976 C2971 1.490 . S
C2976 C2978 1.395 . S
C2976 C2979 1.403 . S
H2977 C2983 0.930 . S
C2978 H2964 0.930 . S
C2978 C2976 1.395 . S
C2978 C2981 1.403 . S
C2979 C2976 1.403 . S
C2979 C2980 1.524 . S
C2979 C2983 1.400 . S
C2980 H2965 0.960 . S
C2980 H2966 0.960 . S
C2980 H2967 0.960 . S
C2980 C2979 1.524 . S
C2981 C2978 1.403 . S
C2981 C2982 1.392 . S
C2981 C2985 1.495 . S
C2982 C2981 1.392 . S
C2982 C2983 1.385 . S
C2982 C2984 1.478 . S
C2983 H2977 0.930 . S
C2983 C2979 1.400 . S
C2983 C2982 1.385 . S
C2984 C2982 1.478 . S
C2984 C2986 1.381 . S
C2984 C2990 1.383 . S
C2985 C2981 1.495 . S
C2985 H2991 0.959 . S
C2985 H2992 0.961 . S
C2985 H2993 0.960 . S
C2986 C2984 1.381 . S
C2986 C2987 1.394 . S
C2986 H2994 0.930 . S
C2987 C2986 1.394 . S
C2987 C2988 1.383 . S
C2987 H2995 0.929 . S
C2988 C2987 1.383 . S
C2988 C2989 1.377 . S
C2989 H2973 0.930 . S
C2989 C2988 1.377 . S
C2989 C2990 1.379 . S
C2990 H2974 0.931 . S
C2990 C2984 1.383 . S
C2990 C2989 1.379 . S
H2991 C2985 0.959 . S
H2992 C2985 0.961 . S
H2993 C2985 0.960 . S
H2994 C2986 0.930 . S
H2995 C2987 0.929 . S
H2996 C3004 0.929 . S
H2997 C3006 0.930 . S
H2998 C3008 0.930 . S
H2999 C3011 0.929 . S
H3000 C3014 0.930 . S
H3001 C3016 0.960 . S
H3002 C3016 0.960 . S
H3003 C3016 0.960 . S
C3004 H2996 0.929 . S
C3004 C3005 1.377 . S
C3004 C3006 1.384 . S
C3005 C3004 1.377 . S
C3005 C3011 1.390 . S
C3006 H2997 0.930 . S
C3006 C3004 1.384 . S
C3006 C3007 1.372 . S
C3007 C3006 1.372 . S
C3007 C3008 1.400 . S
C3007 C3012 1.490 . S
C3008 H2998 0.930 . S
C3008 C3007 1.400 . S
C3008 C3011 1.386 . S
H3009 C3025 0.930 . S
H3010 C3026 0.931 . S
C3011 H2999 0.929 . S
C3011 C3005 1.390 . S
C3011 C3008 1.386 . S
C3012 C3007 1.490 . S
C3012 C3014 1.395 . S
C3012 C3015 1.403 . S
H3013 C3019 0.930 . S
C3014 H3000 0.930 . S
C3014 C3012 1.395 . S
C3014 C3017 1.403 . S
C3015 C3012 1.403 . S
C3015 C3016 1.524 . S
C3015 C3019 1.400 . S
C3016 H3001 0.960 . S
C3016 H3002 0.960 . S
C3016 H3003 0.960 . S
C3016 C3015 1.524 . S
C3017 C3014 1.403 . S
C3017 C3018 1.392 . S
C3017 C3021 1.495 . S
C3018 C3017 1.392 . S
C3018 C3019 1.385 . S
C3018 C3020 1.478 . S
C3019 H3013 0.930 . S
C3019 C3015 1.400 . S
C3019 C3018 1.385 . S
C3020 C3018 1.478 . S
C3020 C3022 1.381 . S
C3020 C3026 1.383 . S
C3021 C3017 1.495 . S
C3021 H3027 0.959 . S
C3021 H3028 0.961 . S
C3021 H3029 0.960 . S
C3022 C3020 1.381 . S
C3022 C3023 1.394 . S
C3022 H3030 0.930 . S
C3023 C3022 1.394 . S
C3023 C3024 1.383 . S
C3023 H3031 0.929 . S
C3024 C3023 1.383 . S
C3024 C3025 1.377 . S
C3025 H3009 0.930 . S
C3025 C3024 1.377 . S
C3025 C3026 1.379 . S
C3026 H3010 0.931 . S
C3026 C3020 1.383 . S
C3026 C3025 1.379 . S
H3027 C3021 0.959 . S
H3028 C3021 0.961 . S
H3029 C3021 0.960 . S
H3030 C3022 0.930 . S
H3031 C3023 0.929 . S
H3032 C3040 0.929 . S
H3033 C3042 0.930 . S
H3034 C3044 0.930 . S
H3035 C3047 0.929 . S
H3036 C3050 0.930 . S
H3037 C3052 0.960 . S
H3038 C3052 0.960 . S
H3039 C3052 0.960 . S
C3040 H3032 0.929 . S
C3040 C3041 1.377 . S
C3040 C3042 1.384 . S
C3041 C3040 1.377 . S
C3041 C3047 1.390 . S
C3042 H3033 0.930 . S
C3042 C3040 1.384 . S
C3042 C3043 1.372 . S
C3043 C3042 1.372 . S
C3043 C3044 1.400 . S
C3043 C3048 1.490 . S
C3044 H3034 0.930 . S
C3044 C3043 1.400 . S
C3044 C3047 1.386 . S
H3045 C3061 0.930 . S
H3046 C3062 0.931 . S
C3047 H3035 0.929 . S
C3047 C3041 1.390 . S
C3047 C3044 1.386 . S
C3048 C3043 1.490 . S
C3048 C3050 1.395 . S
C3048 C3051 1.403 . S
H3049 C3055 0.930 . S
C3050 H3036 0.930 . S
C3050 C3048 1.395 . S
C3050 C3053 1.403 . S
C3051 C3048 1.403 . S
C3051 C3052 1.524 . S
C3051 C3055 1.400 . S
C3052 H3037 0.960 . S
C3052 H3038 0.960 . S
C3052 H3039 0.960 . S
C3052 C3051 1.524 . S
C3053 C3050 1.403 . S
C3053 C3054 1.392 . S
C3053 C3057 1.495 . S
C3054 C3053 1.392 . S
C3054 C3055 1.385 . S
C3054 C3056 1.478 . S
C3055 H3049 0.930 . S
C3055 C3051 1.400 . S
C3055 C3054 1.385 . S
C3056 C3054 1.478 . S
C3056 C3058 1.381 . S
C3056 C3062 1.383 . S
C3057 C3053 1.495 . S
C3057 H3063 0.959 . S
C3057 H3064 0.961 . S
C3057 H3065 0.960 . S
C3058 C3056 1.381 . S
C3058 C3059 1.394 . S
C3058 H3066 0.930 . S
C3059 C3058 1.394 . S
C3059 C3060 1.383 . S
C3059 H3067 0.929 . S
C3060 C3059 1.383 . S
C3060 C3061 1.377 . S
C3061 H3045 0.930 . S
C3061 C3060 1.377 . S
C3061 C3062 1.379 . S
C3062 H3046 0.931 . S
C3062 C3056 1.383 . S
C3062 C3061 1.379 . S
H3063 C3057 0.959 . S
H3064 C3057 0.961 . S
H3065 C3057 0.960 . S
H3066 C3058 0.930 . S
H3067 C3059 0.929 . S
H3068 C3076 0.929 1_556 S
H3069 C3078 0.930 1_556 S
H3070 C3080 0.930 . S
H3071 C3083 0.929 . S
H3072 C3086 0.930 . S
H3073 C3088 0.960 . S
H3074 C3088 0.960 . S
H3075 C3088 0.960 . S
C3076 H3068 0.929 1_554 S
C3076 C3077 1.377 . S
C3076 C3078 1.384 . S
C3077 C3076 1.377 . S
C3077 C3083 1.390 . S
C3078 H3069 0.930 1_554 S
C3078 C3076 1.384 . S
C3078 C3079 1.372 . S
C3079 C3078 1.372 . S
C3079 C3080 1.400 . S
C3079 C3084 1.490 . S
C3080 H3070 0.930 . S
C3080 C3079 1.400 . S
C3080 C3083 1.386 . S
H3081 C3097 0.930 . S
H3082 C3098 0.931 . S
C3083 H3071 0.929 . S
C3083 C3077 1.390 . S
C3083 C3080 1.386 . S
C3084 C3079 1.490 . S
C3084 C3086 1.395 . S
C3084 C3087 1.403 . S
H3085 C3091 0.930 . S
C3086 H3072 0.930 . S
C3086 C3084 1.395 . S
C3086 C3089 1.403 . S
C3087 C3084 1.403 . S
C3087 C3088 1.524 . S
C3087 C3091 1.400 . S
C3088 H3073 0.960 . S
C3088 H3074 0.960 . S
C3088 H3075 0.960 . S
C3088 C3087 1.524 . S
C3089 C3086 1.403 . S
C3089 C3090 1.392 . S
C3089 C3093 1.534 1_565 S
C3090 C3089 1.392 . S
C3090 C3091 1.385 . S
C3090 C3092 1.478 . S
C3091 H3085 0.930 . S
C3091 C3087 1.400 . S
C3091 C3090 1.385 . S
C3092 C3090 1.478 . S
C3092 C3094 1.381 . S
C3092 C3098 1.383 1_565 S
C3093 C3089 1.534 1_545 S
C3093 H3099 0.937 1_554 S
C3093 H3100 0.990 . S
C3093 H3101 0.919 1_554 S
C3094 C3092 1.381 . S
C3094 C3095 1.394 1_565 S
C3094 H3102 0.930 1_554 S
C3095 C3094 1.394 1_545 S
C3095 C3096 1.383 . S
C3095 H3103 0.929 1_554 S
C3096 C3095 1.383 . S
C3096 C3097 1.377 . S
C3097 H3081 0.930 . S
C3097 C3096 1.377 . S
C3097 C3098 1.379 . S
C3098 H3082 0.931 . S
C3098 C3092 1.383 1_545 S
C3098 C3097 1.379 . S
H3099 C3093 0.937 1_556 S
H3100 C3093 0.990 . S
H3101 C3093 0.919 1_556 S
H3102 C3094 0.930 1_556 S
H3103 C3095 0.929 1_556 S
H3104 C3112 0.929 . S
H3105 C3114 0.930 . S
H3106 C3116 0.930 . S
H3107 C3119 0.929 . S
H3108 C3122 0.930 . S
H3109 C3124 0.960 . S
H3110 C3124 0.960 . S
H3111 C3124 0.960 . S
C3112 H3104 0.929 . S
C3112 C3113 1.377 . S
C3112 C3114 1.384 . S
C3113 C3112 1.377 . S
C3113 C3119 1.390 . S
C3114 H3105 0.930 . S
C3114 C3112 1.384 . S
C3114 C3115 1.372 . S
C3115 C3114 1.372 . S
C3115 C3116 1.400 . S
C3115 C3120 1.490 . S
C3116 H3106 0.930 . S
C3116 C3115 1.400 . S
C3116 C3119 1.386 . S
H3117 C3133 0.930 . S
H3118 C3134 0.931 . S
C3119 H3107 0.929 . S
C3119 C3113 1.390 . S
C3119 C3116 1.386 . S
C3120 C3115 1.490 . S
C3120 C3122 1.395 . S
C3120 C3123 1.403 . S
H3121 C3127 0.930 . S
C3122 H3108 0.930 . S
C3122 C3120 1.395 . S
C3122 C3125 1.403 . S
C3123 C3120 1.403 . S
C3123 C3124 1.524 . S
C3123 C3127 1.400 . S
C3124 H3109 0.960 . S
C3124 H3110 0.960 . S
C3124 H3111 0.960 . S
C3124 C3123 1.524 . S
C3125 C3122 1.403 . S
C3125 C3126 1.392 . S
C3125 C3129 1.495 . S
C3126 C3125 1.392 . S
C3126 C3127 1.385 . S
C3126 C3128 1.478 . S
C3127 H3121 0.930 . S
C3127 C3123 1.400 . S
C3127 C3126 1.385 . S
C3128 C3126 1.478 . S
C3128 C3130 1.381 . S
C3128 C3134 1.383 . S
C3129 C3125 1.495 . S
C3129 H3135 0.959 . S
C3129 H3136 0.961 . S
C3129 H3137 0.960 . S
C3130 C3128 1.381 . S
C3130 C3131 1.394 . S
C3130 H3138 0.930 . S
C3131 C3130 1.394 . S
C3131 C3132 1.383 . S
C3131 H3139 0.929 . S
C3132 C3131 1.383 . S
C3132 C3133 1.377 . S
C3133 H3117 0.930 . S
C3133 C3132 1.377 . S
C3133 C3134 1.379 . S
C3134 H3118 0.931 . S
C3134 C3128 1.383 . S
C3134 C3133 1.379 . S
H3135 C3129 0.959 . S
H3136 C3129 0.961 . S
H3137 C3129 0.960 . S
H3138 C3130 0.930 . S
H3139 C3131 0.929 . S
H3140 C3148 0.929 . S
H3141 C3150 0.930 . S
H3142 C3152 0.930 . S
H3143 C3155 0.929 . S
H3144 C3158 0.930 . S
H3145 C3160 0.960 . S
H3146 C3160 0.960 . S
H3147 C3160 0.960 . S
C3148 H3140 0.929 . S
C3148 C3149 1.377 . S
C3148 C3150 1.384 . S
C3149 C3148 1.377 . S
C3149 C3155 1.390 . S
C3150 H3141 0.930 . S
C3150 C3148 1.384 . S
C3150 C3151 1.372 . S
C3151 C3150 1.372 . S
C3151 C3152 1.400 . S
C3151 C3156 1.490 . S
C3152 H3142 0.930 . S
C3152 C3151 1.400 . S
C3152 C3155 1.386 . S
H3153 C3169 0.930 . S
H3154 C3170 0.931 . S
C3155 H3143 0.929 . S
C3155 C3149 1.390 . S
C3155 C3152 1.386 . S
C3156 C3151 1.490 . S
C3156 C3158 1.395 . S
C3156 C3159 1.403 . S
H3157 C3163 0.930 . S
C3158 H3144 0.930 . S
C3158 C3156 1.395 . S
C3158 C3161 1.403 . S
C3159 C3156 1.403 . S
C3159 C3160 1.524 . S
C3159 C3163 1.400 . S
C3160 H3145 0.960 . S
C3160 H3146 0.960 . S
C3160 H3147 0.960 . S
C3160 C3159 1.524 . S
C3161 C3158 1.403 . S
C3161 C3162 1.392 . S
C3161 C3165 1.495 . S
C3162 C3161 1.392 . S
C3162 C3163 1.385 . S
C3162 C3164 1.478 . S
C3163 H3157 0.930 . S
C3163 C3159 1.400 . S
C3163 C3162 1.385 . S
C3164 C3162 1.478 . S
C3164 C3166 1.381 . S
C3164 C3170 1.383 . S
C3165 C3161 1.495 . S
C3165 H3171 0.959 . S
C3165 H3172 0.961 . S
C3165 H3173 0.960 . S
C3166 C3164 1.381 . S
C3166 C3167 1.394 . S
C3166 H3174 0.930 . S
C3167 C3166 1.394 . S
C3167 C3168 1.383 . S
C3167 H3175 0.929 . S
C3168 C3167 1.383 . S
C3168 C3169 1.377 . S
C3169 H3153 0.930 . S
C3169 C3168 1.377 . S
C3169 C3170 1.379 . S
C3170 H3154 0.931 . S
C3170 C3164 1.383 . S
C3170 C3169 1.379 . S
H3171 C3165 0.959 . S
H3172 C3165 0.961 . S
H3173 C3165 0.960 . S
H3174 C3166 0.930 . S
H3175 C3167 0.929 . S
H3176 C3184 0.929 . S
H3177 C3186 0.930 . S
H3178 C3188 0.930 . S
H3179 C3191 0.929 . S
H3180 C3194 0.930 . S
H3181 C3196 0.960 . S
H3182 C3196 0.960 . S
H3183 C3196 0.960 . S
C3184 H3176 0.929 . S
C3184 C3185 1.377 . S
C3184 C3186 1.384 . S
C3185 C3184 1.377 . S
C3185 C3191 1.390 . S
C3186 H3177 0.930 . S
C3186 C3184 1.384 . S
C3186 C3187 1.372 . S
C3187 C3186 1.372 . S
C3187 C3188 1.400 . S
C3187 C3192 1.490 . S
C3188 H3178 0.930 . S
C3188 C3187 1.400 . S
C3188 C3191 1.386 . S
H3189 C3205 0.930 . S
H3190 C3206 0.931 . S
C3191 H3179 0.929 . S
C3191 C3185 1.390 . S
C3191 C3188 1.386 . S
C3192 C3187 1.490 . S
C3192 C3194 1.395 . S
C3192 C3195 1.403 . S
H3193 C3199 0.930 . S
C3194 H3180 0.930 . S
C3194 C3192 1.395 . S
C3194 C3197 1.403 . S
C3195 C3192 1.403 . S
C3195 C3196 1.524 . S
C3195 C3199 1.400 . S
C3196 H3181 0.960 . S
C3196 H3182 0.960 . S
C3196 H3183 0.960 . S
C3196 C3195 1.524 . S
C3197 C3194 1.403 . S
C3197 C3198 1.392 . S
C3197 C3201 1.495 . S
C3198 C3197 1.392 . S
C3198 C3199 1.385 . S
C3198 C3200 1.478 . S
C3199 H3193 0.930 . S
C3199 C3195 1.400 . S
C3199 C3198 1.385 . S
C3200 C3198 1.478 . S
C3200 C3202 1.381 . S
C3200 C3206 1.383 . S
C3201 C3197 1.495 . S
C3201 H3207 0.959 . S
C3201 H3208 0.961 . S
C3201 H3209 0.960 . S
C3202 C3200 1.381 . S
C3202 C3203 1.394 . S
C3202 H3210 0.930 . S
C3203 C3202 1.394 . S
C3203 C3204 1.383 . S
C3203 H3211 0.929 . S
C3204 C3203 1.383 . S
C3204 C3205 1.377 . S
C3205 H3189 0.930 . S
C3205 C3204 1.377 . S
C3205 C3206 1.379 . S
C3206 H3190 0.931 . S
C3206 C3200 1.383 . S
C3206 C3205 1.379 . S
H3207 C3201 0.959 . S
H3208 C3201 0.961 . S
H3209 C3201 0.960 . S
H3210 C3202 0.930 . S
H3211 C3203 0.929 . S
H3212 C3220 0.929 . S
H3213 C3222 0.930 . S
H3214 C3224 0.930 . S
H3215 C3227 0.929 . S
H3216 C3230 0.930 . S
H3217 C3232 0.960 . S
H3218 C3232 0.960 . S
H3219 C3232 0.960 . S
C3220 H3212 0.929 . S
C3220 C3221 1.377 . S
C3220 C3222 1.384 . S
C3221 C3220 1.377 . S
C3221 C3227 1.390 . S
C3222 H3213 0.930 . S
C3222 C3220 1.384 . S
C3222 C3223 1.372 . S
C3223 C3222 1.372 . S
C3223 C3224 1.400 . S
C3223 C3228 1.490 . S
C3224 H3214 0.930 . S
C3224 C3223 1.400 . S
C3224 C3227 1.386 . S
H3225 C3241 0.930 . S
H3226 C3242 0.931 . S
C3227 H3215 0.929 . S
C3227 C3221 1.390 . S
C3227 C3224 1.386 . S
C3228 C3223 1.490 . S
C3228 C3230 1.395 . S
C3228 C3231 1.403 . S
H3229 C3235 0.930 . S
C3230 H3216 0.930 . S
C3230 C3228 1.395 . S
C3230 C3233 1.403 . S
C3231 C3228 1.403 . S
C3231 C3232 1.524 . S
C3231 C3235 1.400 . S
C3232 H3217 0.960 . S
C3232 H3218 0.960 . S
C3232 H3219 0.960 . S
C3232 C3231 1.524 . S
C3233 C3230 1.403 . S
C3233 C3234 1.392 . S
C3233 C3237 1.495 . S
C3234 C3233 1.392 . S
C3234 C3235 1.385 . S
C3234 C3236 1.478 . S
C3235 H3229 0.930 . S
C3235 C3231 1.400 . S
C3235 C3234 1.385 . S
C3236 C3234 1.478 . S
C3236 C3238 1.381 . S
C3236 C3242 1.383 . S
C3237 C3233 1.495 . S
C3237 H3243 0.959 . S
C3237 H3244 0.961 . S
C3237 H3245 0.960 . S
C3238 C3236 1.381 . S
C3238 C3239 1.394 . S
C3238 H3246 0.930 . S
C3239 C3238 1.394 . S
C3239 C3240 1.383 . S
C3239 H3247 0.929 . S
C3240 C3239 1.383 . S
C3240 C3241 1.377 . S
C3241 H3225 0.930 . S
C3241 C3240 1.377 . S
C3241 C3242 1.379 . S
C3242 H3226 0.931 . S
C3242 C3236 1.383 . S
C3242 C3241 1.379 . S
H3243 C3237 0.959 . S
H3244 C3237 0.961 . S
H3245 C3237 0.960 . S
H3246 C3238 0.930 . S
H3247 C3239 0.929 . S
H3248 C3256 0.929 . S
H3249 C3258 0.930 . S
H3250 C3260 0.930 . S
H3251 C3263 0.929 . S
H3252 C3266 0.930 . S
H3253 C3268 0.960 . S
H3254 C3268 0.960 . S
H3255 C3268 0.960 . S
C3256 H3248 0.929 . S
C3256 C3257 1.377 . S
C3256 C3258 1.384 . S
C3257 C3256 1.377 . S
C3257 C3263 1.390 . S
C3258 H3249 0.930 . S
C3258 C3256 1.384 . S
C3258 C3259 1.372 . S
C3259 C3258 1.372 . S
C3259 C3260 1.400 . S
C3259 C3264 1.490 . S
C3260 H3250 0.930 . S
C3260 C3259 1.400 . S
C3260 C3263 1.386 . S
H3261 C3277 0.930 . S
H3262 C3278 0.931 . S
C3263 H3251 0.929 . S
C3263 C3257 1.390 . S
C3263 C3260 1.386 . S
C3264 C3259 1.490 . S
C3264 C3266 1.395 . S
C3264 C3267 1.403 . S
H3265 C3271 0.930 . S
C3266 H3252 0.930 . S
C3266 C3264 1.395 . S
C3266 C3269 1.403 . S
C3267 C3264 1.403 . S
C3267 C3268 1.524 . S
C3267 C3271 1.400 . S
C3268 H3253 0.960 . S
C3268 H3254 0.960 . S
C3268 H3255 0.960 . S
C3268 C3267 1.524 . S
C3269 C3266 1.403 . S
C3269 C3270 1.392 . S
C3269 C3273 1.495 . S
C3270 C3269 1.392 . S
C3270 C3271 1.385 . S
C3270 C3272 1.478 . S
C3271 H3265 0.930 . S
C3271 C3267 1.400 . S
C3271 C3270 1.385 . S
C3272 C3270 1.478 . S
C3272 C3274 1.381 . S
C3272 C3278 1.383 . S
C3273 C3269 1.495 . S
C3273 H3279 0.959 . S
C3273 H3280 0.961 . S
C3273 H3281 0.960 . S
C3274 C3272 1.381 . S
C3274 C3275 1.394 . S
C3274 H3282 0.930 . S
C3275 C3274 1.394 . S
C3275 C3276 1.383 . S
C3275 H3283 0.929 . S
C3276 C3275 1.383 . S
C3276 C3277 1.377 . S
C3277 H3261 0.930 . S
C3277 C3276 1.377 . S
C3277 C3278 1.379 . S
C3278 H3262 0.931 . S
C3278 C3272 1.383 . S
C3278 C3277 1.379 . S
H3279 C3273 0.959 . S
H3280 C3273 0.961 . S
H3281 C3273 0.960 . S
H3282 C3274 0.930 . S
H3283 C3275 0.929 . S
H3284 C3292 0.929 . S
H3285 C3294 0.930 . S
H3286 C3296 0.930 . S
H3287 C3299 0.929 . S
H3288 C3302 0.930 . S
H3289 C3304 0.960 . S
H3290 C3304 0.960 . S
H3291 C3304 0.960 . S
C3292 H3284 0.929 . S
C3292 C3293 1.377 . S
C3292 C3294 1.384 . S
C3293 C3292 1.377 . S
C3293 C3299 1.390 . S
C3294 H3285 0.930 . S
C3294 C3292 1.384 . S
C3294 C3295 1.372 . S
C3295 C3294 1.372 . S
C3295 C3296 1.400 . S
C3295 C3300 1.490 . S
C3296 H3286 0.930 . S
C3296 C3295 1.400 . S
C3296 C3299 1.386 . S
H3297 C3313 0.930 . S
H3298 C3314 0.931 . S
C3299 H3287 0.929 . S
C3299 C3293 1.390 . S
C3299 C3296 1.386 . S
C3300 C3295 1.490 . S
C3300 C3302 1.395 . S
C3300 C3303 1.403 . S
H3301 C3307 0.930 . S
C3302 H3288 0.930 . S
C3302 C3300 1.395 . S
C3302 C3305 1.403 . S
C3303 C3300 1.403 . S
C3303 C3304 1.524 . S
C3303 C3307 1.400 . S
C3304 H3289 0.960 . S
C3304 H3290 0.960 . S
C3304 H3291 0.960 . S
C3304 C3303 1.524 . S
C3305 C3302 1.403 . S
C3305 C3306 1.392 . S
C3305 C3309 1.495 . S
C3306 C3305 1.392 . S
C3306 C3307 1.385 . S
C3306 C3308 1.478 . S
C3307 H3301 0.930 . S
C3307 C3303 1.400 . S
C3307 C3306 1.385 . S
C3308 C3306 1.478 . S
C3308 C3310 1.381 . S
C3308 C3314 1.383 . S
C3309 C3305 1.495 . S
C3309 H3315 0.959 . S
C3309 H3316 0.961 . S
C3309 H3317 0.960 . S
C3310 C3308 1.381 . S
C3310 C3311 1.394 . S
C3310 H3318 0.930 . S
C3311 C3310 1.394 . S
C3311 C3312 1.383 . S
C3311 H3319 0.929 . S
C3312 C3311 1.383 . S
C3312 C3313 1.377 . S
C3313 H3297 0.930 . S
C3313 C3312 1.377 . S
C3313 C3314 1.379 . S
C3314 H3298 0.931 . S
C3314 C3308 1.383 . S
C3314 C3313 1.379 . S
H3315 C3309 0.959 . S
H3316 C3309 0.961 . S
H3317 C3309 0.960 . S
H3318 C3310 0.930 . S
H3319 C3311 0.929 . S
H3320 C3328 0.929 . S
H3321 C3330 0.930 . S
H3322 C3332 0.930 . S
H3323 C3335 0.929 . S
H3324 C3338 0.930 . S
H3325 C3340 0.960 . S
H3326 C3340 0.960 . S
H3327 C3340 0.960 . S
C3328 H3320 0.929 . S
C3328 C3329 1.377 . S
C3328 C3330 1.384 . S
C3329 C3328 1.377 . S
C3329 C3335 1.390 . S
C3330 H3321 0.930 . S
C3330 C3328 1.384 . S
C3330 C3331 1.372 . S
C3331 C3330 1.372 . S
C3331 C3332 1.400 . S
C3331 C3336 1.490 . S
C3332 H3322 0.930 . S
C3332 C3331 1.400 . S
C3332 C3335 1.386 . S
H3333 C3349 0.930 . S
H3334 C3350 0.931 . S
C3335 H3323 0.929 . S
C3335 C3329 1.390 . S
C3335 C3332 1.386 . S
C3336 C3331 1.490 . S
C3336 C3338 1.395 . S
C3336 C3339 1.403 . S
H3337 C3343 0.930 1_655 S
C3338 H3324 0.930 . S
C3338 C3336 1.395 . S
C3338 C3341 1.403 . S
C3339 C3336 1.403 . S
C3339 C3340 1.524 1_455 S
C3339 C3343 1.400 . S
C3340 H3325 0.960 . S
C3340 H3326 0.960 . S
C3340 H3327 0.960 . S
C3340 C3339 1.524 1_655 S
C3341 C3338 1.403 . S
C3341 C3342 1.392 . S
C3341 C3345 1.495 . S
C3342 C3341 1.392 . S
C3342 C3343 1.385 . S
C3342 C3344 1.478 . S
C3343 H3337 0.930 1_455 S
C3343 C3339 1.400 . S
C3343 C3342 1.385 . S
C3344 C3342 1.478 . S
C3344 C3346 1.381 . S
C3344 C3350 1.383 . S
C3345 C3341 1.495 . S
C3345 H3351 0.959 . S
C3345 H3352 0.961 . S
C3345 H3353 0.960 . S
C3346 C3344 1.381 . S
C3346 C3347 1.394 . S
C3346 H3354 0.930 . S
C3347 C3346 1.394 . S
C3347 C3348 1.383 . S
C3347 H3355 0.929 . S
C3348 C3347 1.383 . S
C3348 C3349 1.377 . S
C3349 H3333 0.930 . S
C3349 C3348 1.377 . S
C3349 C3350 1.379 . S
C3350 H3334 0.931 . S
C3350 C3344 1.383 . S
C3350 C3349 1.379 . S
H3351 C3345 0.959 . S
H3352 C3345 0.961 . S
H3353 C3345 0.960 . S
H3354 C3346 0.930 . S
H3355 C3347 0.929 . S
H3356 C3364 0.929 . S
H3357 C3366 0.930 . S
H3358 C3368 0.930 . S
H3359 C3371 0.929 . S
H3360 C3374 0.930 . S
H3361 C3376 0.960 . S
H3362 C3376 0.960 . S
H3363 C3376 0.960 . S
C3364 H3356 0.929 . S
C3364 C3365 1.377 . S
C3364 C3366 1.384 . S
C3365 C3364 1.377 . S
C3365 C3371 1.390 . S
C3366 H3357 0.930 . S
C3366 C3364 1.384 . S
C3366 C3367 1.372 . S
C3367 C3366 1.372 . S
C3367 C3368 1.400 . S
C3367 C3372 1.490 . S
C3368 H3358 0.930 . S
C3368 C3367 1.400 . S
C3368 C3371 1.386 . S
H3369 C3385 0.930 . S
H3370 C3386 0.931 . S
C3371 H3359 0.929 . S
C3371 C3365 1.390 . S
C3371 C3368 1.386 . S
C3372 C3367 1.490 . S
C3372 C3374 1.395 . S
C3372 C3375 1.403 . S
H3373 C3379 0.930 . S
C3374 H3360 0.930 . S
C3374 C3372 1.395 . S
C3374 C3377 1.403 . S
C3375 C3372 1.403 . S
C3375 C3376 1.524 . S
C3375 C3379 1.400 . S
C3376 H3361 0.960 . S
C3376 H3362 0.960 . S
C3376 H3363 0.960 . S
C3376 C3375 1.524 . S
C3377 C3374 1.403 . S
C3377 C3378 1.392 . S
C3377 C3381 1.495 . S
C3378 C3377 1.392 . S
C3378 C3379 1.385 . S
C3378 C3380 1.478 . S
C3379 H3373 0.930 . S
C3379 C3375 1.400 . S
C3379 C3378 1.385 . S
C3380 C3378 1.478 . S
C3380 C3382 1.381 . S
C3380 C3386 1.383 . S
C3381 C3377 1.495 . S
C3381 H3387 0.959 . S
C3381 H3388 0.961 . S
C3381 H3389 0.960 . S
C3382 C3380 1.381 . S
C3382 C3383 1.394 . S
C3382 H3390 0.930 . S
C3383 C3382 1.394 . S
C3383 C3384 1.383 . S
C3383 H3391 0.929 . S
C3384 C3383 1.383 . S
C3384 C3385 1.377 . S
C3385 H3369 0.930 . S
C3385 C3384 1.377 . S
C3385 C3386 1.379 . S
C3386 H3370 0.931 . S
C3386 C3380 1.383 . S
C3386 C3385 1.379 . S
H3387 C3381 0.959 . S
H3388 C3381 0.961 . S
H3389 C3381 0.960 . S
H3390 C3382 0.930 . S
H3391 C3383 0.929 . S
H3392 C3400 0.929 . S
H3393 C3402 0.930 . S
H3394 C3404 0.930 . S
H3395 C3407 0.929 . S
H3396 C3410 0.930 . S
H3397 C3412 0.960 . S
H3398 C3412 0.960 . S
H3399 C3412 0.960 . S
C3400 H3392 0.929 . S
C3400 C3401 1.377 . S
C3400 C3402 1.384 . S
C3401 C3400 1.377 . S
C3401 C3407 1.390 . S
C3402 H3393 0.930 . S
C3402 C3400 1.384 . S
C3402 C3403 1.372 . S
C3403 C3402 1.372 . S
C3403 C3404 1.400 . S
C3403 C3408 1.490 . S
C3404 H3394 0.930 . S
C3404 C3403 1.400 . S
C3404 C3407 1.386 . S
H3405 C3421 0.930 . S
H3406 C3422 0.931 . S
C3407 H3395 0.929 . S
C3407 C3401 1.390 . S
C3407 C3404 1.386 . S
C3408 C3403 1.490 . S
C3408 C3410 1.395 . S
C3408 C3411 1.403 . S
H3409 C3415 0.930 . S
C3410 H3396 0.930 . S
C3410 C3408 1.395 . S
C3410 C3413 1.403 . S
C3411 C3408 1.403 . S
C3411 C3412 1.524 . S
C3411 C3415 1.400 . S
C3412 H3397 0.960 . S
C3412 H3398 0.960 . S
C3412 H3399 0.960 . S
C3412 C3411 1.524 . S
C3413 C3410 1.403 . S
C3413 C3414 1.392 . S
C3413 C3417 1.457 1_556 S
C3414 C3413 1.392 . S
C3414 C3415 1.385 . S
C3414 C3416 1.478 . S
C3415 H3409 0.930 . S
C3415 C3411 1.400 . S
C3415 C3414 1.385 . S
C3416 C3414 1.478 . S
C3416 C3418 1.381 . S
C3416 C3422 1.383 . S
C3417 C3413 1.457 1_554 S
C3417 H3423 0.965 . S
C3417 H3424 0.974 . S
C3417 H3425 0.981 . S
C3418 C3416 1.381 . S
C3418 C3419 1.394 1_556 S
C3418 H3426 0.937 . S
C3419 C3418 1.394 1_554 S
C3419 C3420 1.389 . S
C3419 H3427 0.929 . S
C3420 C3419 1.389 . S
C3420 C3421 1.344 1_554 S
C3421 H3405 0.930 . S
C3421 C3420 1.344 1_556 S
C3421 C3422 1.379 . S
C3422 H3406 0.931 . S
C3422 C3416 1.383 . S
C3422 C3421 1.379 . S
H3423 C3417 0.965 . S
H3424 C3417 0.974 . S
H3425 C3417 0.981 . S
H3426 C3418 0.937 . S
H3427 C3419 0.929 . S
H3428 C3436 0.929 . S
H3429 C3438 0.930 . S
H3430 C3440 0.930 . S
H3431 C3443 0.929 . S
H3432 C3446 0.930 . S
H3433 C3448 0.960 . S
H3434 C3448 0.960 . S
H3435 C3448 0.960 . S
C3436 H3428 0.929 . S
C3436 C3437 1.377 . S
C3436 C3438 1.384 . S
C3437 C3436 1.377 . S
C3437 C3443 1.390 . S
C3438 H3429 0.930 . S
C3438 C3436 1.384 . S
C3438 C3439 1.372 . S
C3439 C3438 1.372 . S
C3439 C3440 1.400 . S
C3439 C3444 1.490 . S
C3440 H3430 0.930 . S
C3440 C3439 1.400 . S
C3440 C3443 1.386 . S
H3441 C3457 0.930 . S
H3442 C3458 0.931 . S
C3443 H3431 0.929 . S
C3443 C3437 1.390 . S
C3443 C3440 1.386 . S
C3444 C3439 1.490 . S
C3444 C3446 1.395 . S
C3444 C3447 1.403 . S
H3445 C3451 0.930 . S
C3446 H3432 0.930 . S
C3446 C3444 1.395 . S
C3446 C3449 1.403 . S
C3447 C3444 1.403 . S
C3447 C3448 1.524 . S
C3447 C3451 1.400 . S
C3448 H3433 0.960 . S
C3448 H3434 0.960 . S
C3448 H3435 0.960 . S
C3448 C3447 1.524 . S
C3449 C3446 1.403 . S
C3449 C3450 1.392 . S
C3449 C3453 1.495 . S
C3450 C3449 1.392 . S
C3450 C3451 1.385 . S
C3450 C3452 1.478 . S
C3451 H3445 0.930 . S
C3451 C3447 1.400 . S
C3451 C3450 1.385 . S
C3452 C3450 1.478 . S
C3452 C3454 1.381 . S
C3452 C3458 1.383 . S
C3453 C3449 1.495 . S
C3453 H3459 0.959 . S
C3453 H3460 0.961 . S
C3453 H3461 0.960 . S
C3454 C3452 1.381 . S
C3454 C3455 1.394 . S
C3454 H3462 0.930 . S
C3455 C3454 1.394 . S
C3455 C3456 1.383 . S
C3455 H3463 0.929 . S
C3456 C3455 1.383 . S
C3456 C3457 1.377 . S
C3457 H3441 0.930 . S
C3457 C3456 1.377 . S
C3457 C3458 1.379 . S
C3458 H3442 0.931 . S
C3458 C3452 1.383 . S
C3458 C3457 1.379 . S
H3459 C3453 0.959 . S
H3460 C3453 0.961 . S
H3461 C3453 0.960 . S
H3462 C3454 0.930 . S
H3463 C3455 0.929 . S
H3464 C3472 0.929 . S
H3465 C3474 0.930 . S
H3466 C3476 0.930 1_655 S
H3467 C3479 0.929 1_655 S
H3468 C3482 0.930 . S
H3469 C3484 0.960 . S
H3470 C3484 0.960 . S
H3471 C3484 0.960 1_655 S
C3472 H3464 0.929 . S
C3472 C3473 1.377 . S
C3472 C3474 1.384 . S
C3473 C3472 1.377 . S
C3473 C3479 1.390 . S
C3474 H3465 0.930 . S
C3474 C3472 1.384 . S
C3474 C3475 1.372 . S
C3475 C3474 1.372 . S
C3475 C3476 1.400 . S
C3475 C3480 1.490 . S
C3476 H3466 0.930 1_455 S
C3476 C3475 1.400 . S
C3476 C3479 1.386 . S
H3477 C3493 0.930 . S
H3478 C3494 0.977 . S
C3479 H3467 0.929 1_455 S
C3479 C3473 1.390 . S
C3479 C3476 1.386 . S
C3480 C3475 1.490 . S
C3480 C3482 1.395 . S
C3480 C3483 1.403 . S
H3481 C3487 0.930 . S
C3482 H3468 0.930 . S
C3482 C3480 1.395 . S
C3482 C3485 1.403 . S
C3483 C3480 1.403 . S
C3483 C3484 1.524 . S
C3483 C3487 1.400 . S
C3484 H3469 0.960 . S
C3484 H3470 0.960 . S
C3484 H3471 0.960 1_455 S
C3484 C3483 1.524 . S
C3485 C3482 1.403 . S
C3485 C3486 1.392 . S
C3485 C3489 1.495 . S
C3486 C3485 1.392 . S
C3486 C3487 1.385 . S
C3486 C3488 1.478 . S
C3487 H3481 0.930 . S
C3487 C3483 1.400 . S
C3487 C3486 1.385 . S
C3488 C3486 1.478 . S
C3488 C3490 1.381 . S
C3488 C3494 1.321 1_455 S
C3489 C3485 1.495 . S
C3489 H3495 0.959 . S
C3489 H3496 0.961 . S
C3489 H3497 0.960 . S
C3490 C3488 1.381 . S
C3490 C3491 1.394 . S
C3490 H3498 0.930 . S
C3491 C3490 1.394 . S
C3491 C3492 1.383 . S
C3491 H3499 0.929 . S
C3492 C3491 1.383 . S
C3492 C3493 1.377 1_455 S
C3493 H3477 0.930 . S
C3493 C3492 1.377 1_655 S
C3493 C3494 1.399 . S
C3494 H3478 0.977 . S
C3494 C3488 1.321 1_655 S
C3494 C3493 1.399 . S
H3495 C3489 0.959 . S
H3496 C3489 0.961 . S
H3497 C3489 0.960 . S
H3498 C3490 0.930 . S
H3499 C3491 0.929 . S
H3500 C3508 0.929 . S
H3501 C3510 0.930 . S
H3502 C3512 0.930 . S
H3503 C3515 0.929 . S
H3504 C3518 0.930 . S
H3505 C3520 0.960 . S
H3506 C3520 0.960 . S
H3507 C3520 0.960 . S
C3508 H3500 0.929 . S
C3508 C3509 1.377 . S
C3508 C3510 1.384 . S
C3509 C3508 1.377 . S
C3509 C3515 1.390 . S
C3510 H3501 0.930 . S
C3510 C3508 1.384 . S
C3510 C3511 1.372 . S
C3511 C3510 1.372 . S
C3511 C3512 1.400 . S
C3511 C3516 1.490 . S
C3512 H3502 0.930 . S
C3512 C3511 1.400 . S
C3512 C3515 1.386 . S
H3513 C3529 0.930 . S
H3514 C3530 0.931 . S
C3515 H3503 0.929 . S
C3515 C3509 1.390 . S
C3515 C3512 1.386 . S
C3516 C3511 1.490 . S
C3516 C3518 1.395 . S
C3516 C3519 1.403 . S
H3517 C3523 0.930 . S
C3518 H3504 0.930 . S
C3518 C3516 1.395 . S
C3518 C3521 1.403 . S
C3519 C3516 1.403 . S
C3519 C3520 1.524 . S
C3519 C3523 1.400 . S
C3520 H3505 0.960 . S
C3520 H3506 0.960 . S
C3520 H3507 0.960 . S
C3520 C3519 1.524 . S
C3521 C3518 1.403 . S
C3521 C3522 1.392 . S
C3521 C3525 1.495 . S
C3522 C3521 1.392 . S
C3522 C3523 1.385 . S
C3522 C3524 1.478 . S
C3523 H3517 0.930 . S
C3523 C3519 1.400 . S
C3523 C3522 1.385 . S
C3524 C3522 1.478 . S
C3524 C3526 1.381 . S
C3524 C3530 1.383 . S
C3525 C3521 1.495 . S
C3525 H3531 0.959 . S
C3525 H3532 0.961 . S
C3525 H3533 0.960 . S
C3526 C3524 1.381 . S
C3526 C3527 1.394 . S
C3526 H3534 0.930 . S
C3527 C3526 1.394 . S
C3527 C3528 1.383 . S
C3527 H3535 0.929 . S
C3528 C3527 1.383 . S
C3528 C3529 1.377 . S
C3529 H3513 0.930 . S
C3529 C3528 1.377 . S
C3529 C3530 1.379 . S
C3530 H3514 0.931 . S
C3530 C3524 1.383 . S
C3530 C3529 1.379 . S
H3531 C3525 0.959 . S
H3532 C3525 0.961 . S
H3533 C3525 0.960 . S
H3534 C3526 0.930 . S
H3535 C3527 0.929 . S
H3536 C3544 0.929 . S
H3537 C3546 0.930 . S
H3538 C3548 0.930 . S
H3539 C3551 0.929 . S
H3540 C3554 0.930 . S
H3541 C3556 0.960 . S
H3542 C3556 0.960 . S
H3543 C3556 0.960 . S
C3544 H3536 0.929 . S
C3544 C3545 1.377 . S
C3544 C3546 1.384 . S
C3545 C3544 1.377 . S
C3545 C3551 1.390 . S
C3546 H3537 0.930 . S
C3546 C3544 1.384 . S
C3546 C3547 1.372 . S
C3547 C3546 1.372 . S
C3547 C3548 1.400 . S
C3547 C3552 1.490 . S
C3548 H3538 0.930 . S
C3548 C3547 1.400 . S
C3548 C3551 1.386 . S
H3549 C3565 0.930 . S
H3550 C3566 0.931 . S
C3551 H3539 0.929 . S
C3551 C3545 1.390 . S
C3551 C3548 1.386 . S
C3552 C3547 1.490 . S
C3552 C3554 1.395 . S
C3552 C3555 1.403 . S
H3553 C3559 0.930 . S
C3554 H3540 0.930 . S
C3554 C3552 1.395 . S
C3554 C3557 1.403 . S
C3555 C3552 1.403 . S
C3555 C3556 1.524 . S
C3555 C3559 1.400 . S
C3556 H3541 0.960 . S
C3556 H3542 0.960 . S
C3556 H3543 0.960 . S
C3556 C3555 1.524 . S
C3557 C3554 1.403 . S
C3557 C3558 1.392 . S
C3557 C3561 1.495 . S
C3558 C3557 1.392 . S
C3558 C3559 1.385 . S
C3558 C3560 1.478 . S
C3559 H3553 0.930 . S
C3559 C3555 1.400 . S
C3559 C3558 1.385 . S
C3560 C3558 1.478 . S
C3560 C3562 1.381 . S
C3560 C3566 1.383 . S
C3561 C3557 1.495 . S
C3561 H3567 0.959 . S
C3561 H3568 0.961 . S
C3561 H3569 0.960 . S
C3562 C3560 1.381 . S
C3562 C3563 1.394 . S
C3562 H3570 0.930 . S
C3563 C3562 1.394 . S
C3563 C3564 1.383 . S
C3563 H3571 0.929 . S
C3564 C3563 1.383 . S
C3564 C3565 1.377 . S
C3565 H3549 0.930 . S
C3565 C3564 1.377 . S
C3565 C3566 1.379 . S
C3566 H3550 0.931 . S
C3566 C3560 1.383 . S
C3566 C3565 1.379 . S
H3567 C3561 0.959 . S
H3568 C3561 0.961 . S
H3569 C3561 0.960 . S
H3570 C3562 0.930 . S
H3571 C3563 0.929 . S
H3572 C3580 0.929 . S
H3573 C3582 0.930 . S
H3574 C3584 0.930 . S
H3575 C3587 0.929 . S
H3576 C3590 0.930 . S
H3577 C3592 0.960 . S
H3578 C3592 0.960 . S
H3579 C3592 0.960 . S
C3580 H3572 0.929 . S
C3580 C3581 1.377 . S
C3580 C3582 1.384 . S
C3581 C3580 1.377 . S
C3581 C3587 1.390 . S
C3582 H3573 0.930 . S
C3582 C3580 1.384 . S
C3582 C3583 1.372 . S
C3583 C3582 1.372 . S
C3583 C3584 1.400 . S
C3583 C3588 1.490 . S
C3584 H3574 0.930 . S
C3584 C3583 1.400 . S
C3584 C3587 1.386 . S
H3585 C3601 0.930 . S
H3586 C3602 0.931 . S
C3587 H3575 0.929 . S
C3587 C3581 1.390 . S
C3587 C3584 1.386 . S
C3588 C3583 1.490 . S
C3588 C3590 1.395 . S
C3588 C3591 1.403 . S
H3589 C3595 0.930 . S
C3590 H3576 0.930 . S
C3590 C3588 1.395 . S
C3590 C3593 1.403 . S
C3591 C3588 1.403 . S
C3591 C3592 1.524 . S
C3591 C3595 1.400 . S
C3592 H3577 0.960 . S
C3592 H3578 0.960 . S
C3592 H3579 0.960 . S
C3592 C3591 1.524 . S
C3593 C3590 1.403 . S
C3593 C3594 1.392 . S
C3593 C3597 1.495 . S
C3594 C3593 1.392 . S
C3594 C3595 1.385 . S
C3594 C3596 1.478 . S
C3595 H3589 0.930 . S
C3595 C3591 1.400 . S
C3595 C3594 1.385 . S
C3596 C3594 1.478 . S
C3596 C3598 1.381 . S
C3596 C3602 1.383 . S
C3597 C3593 1.495 . S
C3597 H3603 0.959 . S
C3597 H3604 0.961 . S
C3597 H3605 0.960 . S
C3598 C3596 1.381 . S
C3598 C3599 1.394 . S
C3598 H3606 0.930 . S
C3599 C3598 1.394 . S
C3599 C3600 1.383 . S
C3599 H3607 0.929 . S
C3600 C3599 1.383 . S
C3600 C3601 1.377 . S
C3601 H3585 0.930 . S
C3601 C3600 1.377 . S
C3601 C3602 1.379 . S
C3602 H3586 0.931 . S
C3602 C3596 1.383 . S
C3602 C3601 1.379 . S
H3603 C3597 0.959 . S
H3604 C3597 0.961 . S
H3605 C3597 0.960 . S
H3606 C3598 0.930 . S
H3607 C3599 0.929 . S
H3608 C3616 0.929 . S
H3609 C3618 0.930 . S
H3610 C3620 0.930 . S
H3611 C3623 0.929 . S
H3612 C3626 0.930 . S
H3613 C3628 0.960 . S
H3614 C3628 0.960 . S
H3615 C3628 0.960 . S
C3616 H3608 0.929 . S
C3616 C3617 1.377 . S
C3616 C3618 1.384 . S
C3617 C3616 1.377 . S
C3617 C3623 1.390 . S
C3618 H3609 0.930 . S
C3618 C3616 1.384 . S
C3618 C3619 1.372 . S
C3619 C3618 1.372 . S
C3619 C3620 1.400 . S
C3619 C3624 1.490 . S
C3620 H3610 0.930 . S
C3620 C3619 1.400 . S
C3620 C3623 1.386 . S
H3621 C3637 0.930 . S
H3622 C3638 0.931 . S
C3623 H3611 0.929 . S
C3623 C3617 1.390 . S
C3623 C3620 1.386 . S
C3624 C3619 1.490 . S
C3624 C3626 1.395 . S
C3624 C3627 1.403 . S
H3625 C3631 0.930 . S
C3626 H3612 0.930 . S
C3626 C3624 1.395 . S
C3626 C3629 1.403 . S
C3627 C3624 1.403 . S
C3627 C3628 1.524 . S
C3627 C3631 1.400 . S
C3628 H3613 0.960 . S
C3628 H3614 0.960 . S
C3628 H3615 0.960 . S
C3628 C3627 1.524 . S
C3629 C3626 1.403 . S
C3629 C3630 1.392 . S
C3629 C3633 1.495 . S
C3630 C3629 1.392 . S
C3630 C3631 1.385 . S
C3630 C3632 1.478 . S
C3631 H3625 0.930 . S
C3631 C3627 1.400 . S
C3631 C3630 1.385 . S
C3632 C3630 1.478 . S
C3632 C3634 1.359 1_655 S
C3632 C3638 1.383 . S
C3633 C3629 1.495 . S
C3633 H3639 0.959 . S
C3633 H3640 0.961 . S
C3633 H3641 0.912 1_655 S
C3634 C3632 1.359 1_455 S
C3634 C3635 1.403 . S
C3634 H3642 0.944 . S
C3635 C3634 1.403 . S
C3635 C3636 1.383 1_455 S
C3635 H3643 0.929 . S
C3636 C3635 1.383 1_655 S
C3636 C3637 1.377 . S
C3637 H3621 0.930 . S
C3637 C3636 1.377 . S
C3637 C3638 1.379 . S
C3638 H3622 0.931 . S
C3638 C3632 1.383 . S
C3638 C3637 1.379 . S
H3639 C3633 0.959 . S
H3640 C3633 0.961 . S
H3641 C3633 0.912 1_455 S
H3642 C3634 0.944 . S
H3643 C3635 0.929 . S
H3644 C3652 0.929 . S
H3645 C3654 0.930 . S
H3646 C3656 0.930 . S
H3647 C3659 0.929 . S
H3648 C3662 0.930 . S
H3649 C3664 0.960 . S
H3650 C3664 0.960 . S
H3651 C3664 0.960 . S
C3652 H3644 0.929 . S
C3652 C3653 1.377 . S
C3652 C3654 1.384 . S
C3653 C3652 1.377 . S
C3653 C3659 1.390 . S
C3654 H3645 0.930 . S
C3654 C3652 1.384 . S
C3654 C3655 1.372 . S
C3655 C3654 1.372 . S
C3655 C3656 1.400 . S
C3655 C3660 1.490 . S
C3656 H3646 0.930 . S
C3656 C3655 1.400 . S
C3656 C3659 1.386 . S
H3657 C3673 0.930 . S
H3658 C3674 0.931 . S
C3659 H3647 0.929 . S
C3659 C3653 1.390 . S
C3659 C3656 1.386 . S
C3660 C3655 1.490 . S
C3660 C3662 1.395 . S
C3660 C3663 1.403 . S
H3661 C3667 0.930 . S
C3662 H3648 0.930 . S
C3662 C3660 1.395 . S
C3662 C3665 1.403 . S
C3663 C3660 1.403 . S
C3663 C3664 1.524 . S
C3663 C3667 1.400 . S
C3664 H3649 0.960 . S
C3664 H3650 0.960 . S
C3664 H3651 0.960 . S
C3664 C3663 1.524 . S
C3665 C3662 1.403 . S
C3665 C3666 1.392 . S
C3665 C3669 1.495 . S
C3666 C3665 1.392 . S
C3666 C3667 1.385 . S
C3666 C3668 1.478 . S
C3667 H3661 0.930 . S
C3667 C3663 1.400 . S
C3667 C3666 1.385 . S
C3668 C3666 1.478 . S
C3668 C3670 1.381 . S
C3668 C3674 1.383 . S
C3669 C3665 1.495 . S
C3669 H3675 0.959 . S
C3669 H3676 0.961 . S
C3669 H3677 0.960 . S
C3670 C3668 1.381 . S
C3670 C3671 1.394 . S
C3670 H3678 0.930 . S
C3671 C3670 1.394 . S
C3671 C3672 1.383 . S
C3671 H3679 0.929 . S
C3672 C3671 1.383 . S
C3672 C3673 1.377 . S
C3673 H3657 0.930 . S
C3673 C3672 1.377 . S
C3673 C3674 1.379 . S
C3674 H3658 0.931 . S
C3674 C3668 1.383 . S
C3674 C3673 1.379 . S
H3675 C3669 0.959 . S
H3676 C3669 0.961 . S
H3677 C3669 0.960 . S
H3678 C3670 0.930 . S
H3679 C3671 0.929 . S
H3680 C3688 0.929 . S
H3681 C3690 0.930 . S
H3682 C3692 0.930 . S
H3683 C3695 0.929 . S
H3684 C3698 0.930 . S
H3685 C3700 0.960 . S
H3686 C3700 0.960 . S
H3687 C3700 0.960 . S
C3688 H3680 0.929 . S
C3688 C3689 1.377 . S
C3688 C3690 1.384 . S
C3689 C3688 1.377 . S
C3689 C3695 1.390 . S
C3690 H3681 0.930 . S
C3690 C3688 1.384 . S
C3690 C3691 1.372 . S
C3691 C3690 1.372 . S
C3691 C3692 1.400 . S
C3691 C3696 1.490 . S
C3692 H3682 0.930 . S
C3692 C3691 1.400 . S
C3692 C3695 1.386 . S
H3693 C3709 0.930 . S
H3694 C3710 0.931 . S
C3695 H3683 0.929 . S
C3695 C3689 1.390 . S
C3695 C3692 1.386 . S
C3696 C3691 1.490 . S
C3696 C3698 1.395 . S
C3696 C3699 1.403 . S
H3697 C3703 0.930 . S
C3698 H3684 0.930 . S
C3698 C3696 1.395 . S
C3698 C3701 1.403 . S
C3699 C3696 1.403 . S
C3699 C3700 1.524 . S
C3699 C3703 1.400 . S
C3700 H3685 0.960 . S
C3700 H3686 0.960 . S
C3700 H3687 0.960 . S
C3700 C3699 1.524 . S
C3701 C3698 1.403 . S
C3701 C3702 1.392 . S
C3701 C3705 1.495 . S
C3702 C3701 1.392 . S
C3702 C3703 1.385 . S
C3702 C3704 1.478 . S
C3703 H3697 0.930 . S
C3703 C3699 1.400 . S
C3703 C3702 1.385 . S
C3704 C3702 1.478 . S
C3704 C3706 1.381 . S
C3704 C3710 1.383 . S
C3705 C3701 1.495 . S
C3705 H3711 0.959 . S
C3705 H3712 0.961 . S
C3705 H3713 0.960 . S
C3706 C3704 1.381 . S
C3706 C3707 1.394 . S
C3706 H3714 0.930 . S
C3707 C3706 1.394 . S
C3707 C3708 1.383 . S
C3707 H3715 0.929 . S
C3708 C3707 1.383 . S
C3708 C3709 1.377 . S
C3709 H3693 0.930 . S
C3709 C3708 1.377 . S
C3709 C3710 1.379 . S
C3710 H3694 0.931 . S
C3710 C3704 1.383 . S
C3710 C3709 1.379 . S
H3711 C3705 0.959 . S
H3712 C3705 0.961 . S
H3713 C3705 0.960 . S
H3714 C3706 0.930 . S
H3715 C3707 0.929 . S
H3716 C3724 0.929 . S
H3717 C3726 0.930 . S
H3718 C3728 0.930 . S
H3719 C3731 0.929 . S
H3720 C3734 0.930 . S
H3721 C3736 0.960 . S
H3722 C3736 0.960 . S
H3723 C3736 0.960 . S
C3724 H3716 0.929 . S
C3724 C3725 1.377 . S
C3724 C3726 1.384 . S
C3725 C3724 1.377 . S
C3725 C3731 1.390 . S
C3726 H3717 0.930 . S
C3726 C3724 1.384 . S
C3726 C3727 1.372 . S
C3727 C3726 1.372 . S
C3727 C3728 1.400 . S
C3727 C3732 1.490 . S
C3728 H3718 0.930 . S
C3728 C3727 1.400 . S
C3728 C3731 1.386 . S
H3729 C3745 0.930 . S
H3730 C3746 0.931 . S
C3731 H3719 0.929 . S
C3731 C3725 1.390 . S
C3731 C3728 1.386 . S
C3732 C3727 1.490 . S
C3732 C3734 1.395 . S
C3732 C3735 1.403 . S
H3733 C3739 0.930 . S
C3734 H3720 0.930 . S
C3734 C3732 1.395 . S
C3734 C3737 1.403 . S
C3735 C3732 1.403 . S
C3735 C3736 1.524 . S
C3735 C3739 1.400 . S
C3736 H3721 0.960 . S
C3736 H3722 0.960 . S
C3736 H3723 0.960 . S
C3736 C3735 1.524 . S
C3737 C3734 1.403 . S
C3737 C3738 1.392 . S
C3737 C3741 1.495 . S
C3738 C3737 1.392 . S
C3738 C3739 1.385 . S
C3738 C3740 1.478 . S
C3739 H3733 0.930 . S
C3739 C3735 1.400 . S
C3739 C3738 1.385 . S
C3740 C3738 1.478 . S
C3740 C3742 1.381 . S
C3740 C3746 1.383 . S
C3741 C3737 1.495 . S
C3741 H3747 0.959 . S
C3741 H3748 0.961 . S
C3741 H3749 0.960 . S
C3742 C3740 1.381 . S
C3742 C3743 1.394 . S
C3742 H3750 0.930 . S
C3743 C3742 1.394 . S
C3743 C3744 1.383 . S
C3743 H3751 0.929 . S
C3744 C3743 1.383 . S
C3744 C3745 1.377 . S
C3745 H3729 0.930 . S
C3745 C3744 1.377 . S
C3745 C3746 1.379 . S
C3746 H3730 0.931 . S
C3746 C3740 1.383 . S
C3746 C3745 1.379 . S
H3747 C3741 0.959 . S
H3748 C3741 0.961 . S
H3749 C3741 0.960 . S
H3750 C3742 0.930 . S
H3751 C3743 0.929 . S
H3752 C3760 0.929 . S
H3753 C3762 0.930 . S
H3754 C3764 0.930 . S
H3755 C3767 0.929 . S
H3756 C3770 0.930 . S
H3757 C3772 0.960 . S
H3758 C3772 0.960 . S
H3759 C3772 0.960 . S
C3760 H3752 0.929 . S
C3760 C3761 1.377 . S
C3760 C3762 1.384 . S
C3761 C3760 1.377 . S
C3761 C3767 1.390 . S
C3762 H3753 0.930 . S
C3762 C3760 1.384 . S
C3762 C3763 1.372 . S
C3763 C3762 1.372 . S
C3763 C3764 1.400 . S
C3763 C3768 1.490 . S
C3764 H3754 0.930 . S
C3764 C3763 1.400 . S
C3764 C3767 1.386 . S
H3765 C3781 0.930 . S
H3766 C3782 0.931 . S
C3767 H3755 0.929 . S
C3767 C3761 1.390 . S
C3767 C3764 1.386 . S
C3768 C3763 1.490 . S
C3768 C3770 1.395 . S
C3768 C3771 1.403 . S
H3769 C3775 0.930 . S
C3770 H3756 0.930 . S
C3770 C3768 1.395 . S
C3770 C3773 1.403 . S
C3771 C3768 1.403 . S
C3771 C3772 1.524 . S
C3771 C3775 1.400 . S
C3772 H3757 0.960 . S
C3772 H3758 0.960 . S
C3772 H3759 0.960 . S
C3772 C3771 1.524 . S
C3773 C3770 1.403 . S
C3773 C3774 1.392 . S
C3773 C3777 1.495 . S
C3774 C3773 1.392 . S
C3774 C3775 1.385 . S
C3774 C3776 1.478 . S
C3775 H3769 0.930 . S
C3775 C3771 1.400 . S
C3775 C3774 1.385 . S
C3776 C3774 1.478 . S
C3776 C3778 1.381 . S
C3776 C3782 1.383 . S
C3777 C3773 1.495 . S
C3777 H3783 0.959 . S
C3777 H3784 0.961 . S
C3777 H3785 0.960 . S
C3778 C3776 1.381 . S
C3778 C3779 1.394 . S
C3778 H3786 0.930 . S
C3779 C3778 1.394 . S
C3779 C3780 1.383 . S
C3779 H3787 0.929 . S
C3780 C3779 1.383 . S
C3780 C3781 1.377 . S
C3781 H3765 0.930 . S
C3781 C3780 1.377 . S
C3781 C3782 1.379 . S
C3782 H3766 0.931 . S
C3782 C3776 1.383 . S
C3782 C3781 1.379 . S
H3783 C3777 0.959 . S
H3784 C3777 0.961 . S
H3785 C3777 0.960 . S
H3786 C3778 0.930 . S
H3787 C3779 0.929 . S
H3788 C3796 0.929 . S
H3789 C3798 0.930 . S
H3790 C3800 0.930 . S
H3791 C3803 0.929 . S
H3792 C3806 0.930 . S
H3793 C3808 0.960 . S
H3794 C3808 0.960 . S
H3795 C3808 0.960 . S
C3796 H3788 0.929 . S
C3796 C3797 1.377 . S
C3796 C3798 1.384 . S
C3797 C3796 1.377 . S
C3797 C3803 1.390 . S
C3798 H3789 0.930 . S
C3798 C3796 1.384 . S
C3798 C3799 1.372 . S
C3799 C3798 1.372 . S
C3799 C3800 1.400 . S
C3799 C3804 1.490 . S
C3800 H3790 0.930 . S
C3800 C3799 1.400 . S
C3800 C3803 1.386 . S
H3801 C3817 0.930 . S
H3802 C3818 0.931 . S
C3803 H3791 0.929 . S
C3803 C3797 1.390 . S
C3803 C3800 1.386 . S
C3804 C3799 1.490 . S
C3804 C3806 1.395 . S
C3804 C3807 1.403 . S
H3805 C3811 0.930 . S
C3806 H3792 0.930 . S
C3806 C3804 1.395 . S
C3806 C3809 1.403 . S
C3807 C3804 1.403 . S
C3807 C3808 1.524 . S
C3807 C3811 1.400 . S
C3808 H3793 0.960 . S
C3808 H3794 0.960 . S
C3808 H3795 0.960 . S
C3808 C3807 1.524 . S
C3809 C3806 1.403 . S
C3809 C3810 1.392 . S
C3809 C3813 1.495 . S
C3810 C3809 1.392 . S
C3810 C3811 1.385 . S
C3810 C3812 1.478 . S
C3811 H3805 0.930 . S
C3811 C3807 1.400 . S
C3811 C3810 1.385 . S
C3812 C3810 1.478 . S
C3812 C3814 1.381 . S
C3812 C3818 1.383 . S
C3813 C3809 1.495 . S
C3813 H3819 0.959 . S
C3813 H3820 0.961 . S
C3813 H3821 0.960 . S
C3814 C3812 1.381 . S
C3814 C3815 1.394 . S
C3814 H3822 0.930 . S
C3815 C3814 1.394 . S
C3815 C3816 1.383 . S
C3815 H3823 0.929 . S
C3816 C3815 1.383 . S
C3816 C3817 1.377 . S
C3817 H3801 0.930 . S
C3817 C3816 1.377 . S
C3817 C3818 1.379 . S
C3818 H3802 0.931 . S
C3818 C3812 1.383 . S
C3818 C3817 1.379 . S
H3819 C3813 0.959 . S
H3820 C3813 0.961 . S
H3821 C3813 0.960 . S
H3822 C3814 0.930 . S
H3823 C3815 0.929 . S
H3824 C3832 0.929 . S
H3825 C3834 0.930 . S
H3826 C3836 0.930 . S
H3827 C3839 0.929 . S
H3828 C3842 0.930 . S
H3829 C3844 0.960 . S
H3830 C3844 0.960 . S
H3831 C3844 0.960 . S
C3832 H3824 0.929 . S
C3832 C3833 1.377 . S
C3832 C3834 1.384 . S
C3833 C3832 1.377 . S
C3833 C3839 1.390 . S
C3834 H3825 0.930 . S
C3834 C3832 1.384 . S
C3834 C3835 1.372 . S
C3835 C3834 1.372 . S
C3835 C3836 1.400 . S
C3835 C3840 1.490 . S
C3836 H3826 0.930 . S
C3836 C3835 1.400 . S
C3836 C3839 1.386 . S
H3837 C3853 0.930 . S
H3838 C3854 0.931 . S
C3839 H3827 0.929 . S
C3839 C3833 1.390 . S
C3839 C3836 1.386 . S
C3840 C3835 1.490 . S
C3840 C3842 1.395 . S
C3840 C3843 1.403 . S
H3841 C3847 0.930 . S
C3842 H3828 0.930 . S
C3842 C3840 1.395 . S
C3842 C3845 1.403 . S
C3843 C3840 1.403 . S
C3843 C3844 1.524 . S
C3843 C3847 1.400 . S
C3844 H3829 0.960 . S
C3844 H3830 0.960 . S
C3844 H3831 0.960 . S
C3844 C3843 1.524 . S
C3845 C3842 1.403 . S
C3845 C3846 1.392 . S
C3845 C3849 1.495 . S
C3846 C3845 1.392 . S
C3846 C3847 1.385 . S
C3846 C3848 1.478 . S
C3847 H3841 0.930 . S
C3847 C3843 1.400 . S
C3847 C3846 1.385 . S
C3848 C3846 1.478 . S
C3848 C3850 1.381 . S
C3848 C3854 1.383 . S
C3849 C3845 1.495 . S
C3849 H3855 0.959 . S
C3849 H3856 0.961 . S
C3849 H3857 0.960 . S
C3850 C3848 1.381 . S
C3850 C3851 1.394 . S
C3850 H3858 0.930 . S
C3851 C3850 1.394 . S
C3851 C3852 1.383 . S
C3851 H3859 0.929 . S
C3852 C3851 1.383 . S
C3852 C3853 1.377 . S
C3853 H3837 0.930 . S
C3853 C3852 1.377 . S
C3853 C3854 1.379 . S
C3854 H3838 0.931 . S
C3854 C3848 1.383 . S
C3854 C3853 1.379 . S
H3855 C3849 0.959 . S
H3856 C3849 0.961 . S
H3857 C3849 0.960 . S
H3858 C3850 0.930 . S
H3859 C3851 0.929 . S
H3860 C3868 0.929 . S
H3861 C3870 0.930 . S
H3862 C3872 0.930 . S
H3863 C3875 0.929 . S
H3864 C3878 0.930 . S
H3865 C3880 0.960 . S
H3866 C3880 0.960 . S
H3867 C3880 0.960 . S
C3868 H3860 0.929 . S
C3868 C3869 1.377 . S
C3868 C3870 1.384 . S
C3869 C3868 1.377 . S
C3869 C3875 1.390 . S
C3870 H3861 0.930 . S
C3870 C3868 1.384 . S
C3870 C3871 1.372 . S
C3871 C3870 1.372 . S
C3871 C3872 1.400 . S
C3871 C3876 1.490 . S
C3872 H3862 0.930 . S
C3872 C3871 1.400 . S
C3872 C3875 1.386 . S
H3873 C3889 0.930 . S
H3874 C3890 0.931 . S
C3875 H3863 0.929 . S
C3875 C3869 1.390 . S
C3875 C3872 1.386 . S
C3876 C3871 1.490 . S
C3876 C3878 1.395 . S
C3876 C3879 1.403 . S
H3877 C3883 0.930 . S
C3878 H3864 0.930 . S
C3878 C3876 1.395 . S
C3878 C3881 1.403 . S
C3879 C3876 1.403 . S
C3879 C3880 1.524 . S
C3879 C3883 1.400 . S
C3880 H3865 0.960 . S
C3880 H3866 0.960 . S
C3880 H3867 0.960 . S
C3880 C3879 1.524 . S
C3881 C3878 1.403 . S
C3881 C3882 1.392 . S
C3881 C3885 1.495 1_565 S
C3882 C3881 1.392 . S
C3882 C3883 1.385 . S
C3882 C3884 1.478 . S
C3883 H3877 0.930 . S
C3883 C3879 1.400 . S
C3883 C3882 1.385 . S
C3884 C3882 1.478 . S
C3884 C3886 1.422 . S
C3884 C3890 1.383 . S
C3885 C3881 1.495 1_545 S
C3885 H3891 0.959 . S
C3885 H3892 0.961 . S
C3885 H3893 0.960 . S
C3886 C3884 1.422 . S
C3886 C3887 1.376 1_565 S
C3886 H3894 0.908 1_565 S
C3887 C3886 1.376 1_545 S
C3887 C3888 1.383 . S
C3887 H3895 0.929 . S
C3888 C3887 1.383 . S
C3888 C3889 1.377 1_545 S
C3889 H3873 0.930 . S
C3889 C3888 1.377 1_565 S
C3889 C3890 1.379 . S
C3890 H3874 0.931 . S
C3890 C3884 1.383 . S
C3890 C3889 1.379 . S
H3891 C3885 0.959 . S
H3892 C3885 0.961 . S
H3893 C3885 0.960 . S
H3894 C3886 0.908 1_545 S
H3895 C3887 0.929 . S
H3896 C3904 0.929 . S
H3897 C3906 0.930 . S
H3898 C3908 0.930 . S
H3899 C3911 0.929 . S
H3900 C3914 0.930 . S
H3901 C3916 0.960 . S
H3902 C3916 0.960 . S
H3903 C3916 0.960 . S
C3904 H3896 0.929 . S
C3904 C3905 1.377 . S
C3904 C3906 1.384 . S
C3905 C3904 1.377 . S
C3905 C3911 1.390 . S
C3906 H3897 0.930 . S
C3906 C3904 1.384 . S
C3906 C3907 1.372 . S
C3907 C3906 1.372 . S
C3907 C3908 1.400 . S
C3907 C3912 1.490 . S
C3908 H3898 0.930 . S
C3908 C3907 1.400 . S
C3908 C3911 1.386 . S
H3909 C3925 0.930 . S
H3910 C3926 0.931 . S
C3911 H3899 0.929 . S
C3911 C3905 1.390 . S
C3911 C3908 1.386 . S
C3912 C3907 1.490 . S
C3912 C3914 1.395 . S
C3912 C3915 1.403 . S
H3913 C3919 0.930 . S
C3914 H3900 0.930 . S
C3914 C3912 1.395 . S
C3914 C3917 1.403 . S
C3915 C3912 1.403 . S
C3915 C3916 1.524 . S
C3915 C3919 1.400 . S
C3916 H3901 0.960 . S
C3916 H3902 0.960 . S
C3916 H3903 0.960 . S
C3916 C3915 1.524 . S
C3917 C3914 1.403 . S
C3917 C3918 1.392 . S
C3917 C3921 1.495 . S
C3918 C3917 1.392 . S
C3918 C3919 1.385 . S
C3918 C3920 1.478 . S
C3919 H3913 0.930 . S
C3919 C3915 1.400 . S
C3919 C3918 1.385 . S
C3920 C3918 1.478 . S
C3920 C3922 1.381 . S
C3920 C3926 1.383 . S
C3921 C3917 1.495 . S
C3921 H3927 0.959 . S
C3921 H3928 0.961 . S
C3921 H3929 0.960 . S
C3922 C3920 1.381 . S
C3922 C3923 1.394 . S
C3922 H3930 0.930 . S
C3923 C3922 1.394 . S
C3923 C3924 1.383 . S
C3923 H3931 0.929 . S
C3924 C3923 1.383 . S
C3924 C3925 1.377 . S
C3925 H3909 0.930 . S
C3925 C3924 1.377 . S
C3925 C3926 1.379 . S
C3926 H3910 0.931 . S
C3926 C3920 1.383 . S
C3926 C3925 1.379 . S
H3927 C3921 0.959 . S
H3928 C3921 0.961 . S
H3929 C3921 0.960 . S
H3930 C3922 0.930 . S
H3931 C3923 0.929 . S
H3932 C3940 0.929 . S
H3933 C3942 0.930 . S
H3934 C3944 0.930 . S
H3935 C3947 0.929 . S
H3936 C3950 0.897 1_556 S
H3937 C3952 0.960 . S
H3938 C3952 0.960 . S
H3939 C3952 0.960 . S
C3940 H3932 0.929 . S
C3940 C3941 1.377 . S
C3940 C3942 1.384 . S
C3941 C3940 1.377 . S
C3941 C3947 1.390 1_554 S
C3942 H3933 0.930 . S
C3942 C3940 1.384 . S
C3942 C3943 1.372 . S
C3943 C3942 1.372 . S
C3943 C3944 1.400 1_554 S
C3943 C3948 1.490 . S
C3944 H3934 0.930 . S
C3944 C3943 1.400 1_556 S
C3944 C3947 1.386 . S
H3945 C3961 0.930 . S
H3946 C3962 0.927 1_556 S
C3947 H3935 0.929 . S
C3947 C3941 1.390 1_556 S
C3947 C3944 1.386 . S
C3948 C3943 1.490 . S
C3948 C3950 1.420 . S
C3948 C3951 1.403 . S
H3949 C3955 0.930 . S
C3950 H3936 0.897 1_554 S
C3950 C3948 1.420 . S
C3950 C3953 1.414 . S
C3951 C3948 1.403 . S
C3951 C3952 1.524 . S
C3951 C3955 1.400 . S
C3952 H3937 0.960 . S
C3952 H3938 0.960 . S
C3952 H3939 0.960 . S
C3952 C3951 1.524 . S
C3953 C3950 1.414 . S
C3953 C3954 1.392 . S
C3953 C3957 1.495 1_554 S
C3954 C3953 1.392 . S
C3954 C3955 1.385 . S
C3954 C3956 1.478 . S
C3955 H3949 0.930 . S
C3955 C3951 1.400 . S
C3955 C3954 1.385 . S
C3956 C3954 1.478 . S
C3956 C3958 1.381 . S
C3956 C3962 1.383 . S
C3957 C3953 1.495 1_556 S
C3957 H3963 0.959 . S
C3957 H3964 0.961 . S
C3957 H3965 0.960 1_556 S
C3958 C3956 1.381 . S
C3958 C3959 1.394 . S
C3958 H3966 0.930 . S
C3959 C3958 1.394 . S
C3959 C3960 1.383 . S
C3959 H3967 0.929 . S
C3960 C3959 1.383 . S
C3960 C3961 1.377 . S
C3961 H3945 0.930 . S
C3961 C3960 1.377 . S
C3961 C3962 1.379 . S
C3962 H3946 0.927 1_554 S
C3962 C3956 1.383 . S
C3962 C3961 1.379 . S
H3963 C3957 0.959 . S
H3964 C3957 0.961 . S
H3965 C3957 0.960 1_554 S
H3966 C3958 0.930 . S
H3967 C3959 0.929 . S
H3968 C3976 0.929 . S
H3969 C3978 0.930 . S
H3970 C3980 0.930 . S
H3971 C3983 0.929 . S
H3972 C3986 0.930 . S
H3973 C3988 0.960 . S
H3974 C3988 0.960 . S
H3975 C3988 0.960 . S
C3976 H3968 0.929 . S
C3976 C3977 1.377 . S
C3976 C3978 1.384 . S
C3977 C3976 1.377 . S
C3977 C3983 1.390 . S
C3978 H3969 0.930 . S
C3978 C3976 1.384 . S
C3978 C3979 1.372 . S
C3979 C3978 1.372 . S
C3979 C3980 1.400 . S
C3979 C3984 1.490 . S
C3980 H3970 0.930 . S
C3980 C3979 1.400 . S
C3980 C3983 1.386 . S
H3981 C3997 0.930 . S
H3982 C3998 0.931 . S
C3983 H3971 0.929 . S
C3983 C3977 1.390 . S
C3983 C3980 1.386 . S
C3984 C3979 1.490 . S
C3984 C3986 1.395 . S
C3984 C3987 1.403 . S
H3985 C3991 0.930 . S
C3986 H3972 0.930 . S
C3986 C3984 1.395 . S
C3986 C3989 1.403 . S
C3987 C3984 1.403 . S
C3987 C3988 1.524 . S
C3987 C3991 1.400 . S
C3988 H3973 0.960 . S
C3988 H3974 0.960 . S
C3988 H3975 0.960 . S
C3988 C3987 1.524 . S
C3989 C3986 1.403 . S
C3989 C3990 1.392 . S
C3989 C3993 1.495 . S
C3990 C3989 1.392 . S
C3990 C3991 1.385 . S
C3990 C3992 1.478 . S
C3991 H3985 0.930 . S
C3991 C3987 1.400 . S
C3991 C3990 1.385 . S
C3992 C3990 1.478 . S
C3992 C3994 1.381 . S
C3992 C3998 1.383 . S
C3993 C3989 1.495 . S
C3993 H3999 0.959 . S
C3993 H4000 0.961 . S
C3993 H4001 0.960 . S
C3994 C3992 1.381 . S
C3994 C3995 1.394 . S
C3994 H4002 0.930 . S
C3995 C3994 1.394 . S
C3995 C3996 1.383 . S
C3995 H4003 0.929 . S
C3996 C3995 1.383 . S
C3996 C3997 1.377 . S
C3997 H3981 0.930 . S
C3997 C3996 1.377 . S
C3997 C3998 1.379 . S
C3998 H3982 0.931 . S
C3998 C3992 1.383 . S
C3998 C3997 1.379 . S
H3999 C3993 0.959 . S
H4000 C3993 0.961 . S
H4001 C3993 0.960 . S
H4002 C3994 0.930 . S
H4003 C3995 0.929 . S
H4004 C4012 0.929 . S
H4005 C4014 0.941 . S
H4006 C4016 0.930 . S
H4007 C4019 0.929 . S
H4008 C4022 0.930 . S
H4009 C4024 0.960 . S
H4010 C4024 0.960 . S
H4011 C4024 0.960 . S
C4012 H4004 0.929 . S
C4012 C4013 1.377 . S
C4012 C4014 1.384 . S
C4013 C4012 1.377 . S
C4013 C4019 1.390 . S
C4014 H4005 0.941 . S
C4014 C4012 1.384 . S
C4014 C4015 1.372 . S
C4015 C4014 1.372 . S
C4015 C4016 1.400 . S
C4015 C4020 1.490 . S
C4016 H4006 0.930 . S
C4016 C4015 1.400 . S
C4016 C4019 1.386 . S
H4017 C4033 0.930 . S
H4018 C4034 0.931 . S
C4019 H4007 0.929 . S
C4019 C4013 1.390 . S
C4019 C4016 1.386 . S
C4020 C4015 1.490 . S
C4020 C4022 1.395 . S
C4020 C4023 1.403 . S
H4021 C4027 0.930 . S
C4022 H4008 0.930 . S
C4022 C4020 1.395 . S
C4022 C4025 1.403 . S
C4023 C4020 1.403 . S
C4023 C4024 1.524 . S
C4023 C4027 1.400 . S
C4024 H4009 0.960 . S
C4024 H4010 0.960 . S
C4024 H4011 0.960 . S
C4024 C4023 1.524 . S
C4025 C4022 1.403 . S
C4025 C4026 1.392 . S
C4025 C4029 1.495 . S
C4026 C4025 1.392 . S
C4026 C4027 1.385 . S
C4026 C4028 1.478 . S
C4027 H4021 0.930 . S
C4027 C4023 1.400 . S
C4027 C4026 1.385 . S
C4028 C4026 1.478 . S
C4028 C4030 1.381 . S
C4028 C4034 1.383 . S
C4029 C4025 1.495 . S
C4029 H4035 0.959 . S
C4029 H4036 0.961 . S
C4029 H4037 0.960 . S
C4030 C4028 1.381 . S
C4030 C4031 1.394 . S
C4030 H4038 0.930 1_554 S
C4031 C4030 1.394 . S
C4031 C4032 1.383 . S
C4031 H4039 0.929 1_554 S
C4032 C4031 1.383 . S
C4032 C4033 1.377 . S
C4033 H4017 0.930 . S
C4033 C4032 1.377 . S
C4033 C4034 1.379 . S
C4034 H4018 0.931 . S
C4034 C4028 1.383 . S
C4034 C4033 1.379 . S
H4035 C4029 0.959 . S
H4036 C4029 0.961 . S
H4037 C4029 0.960 . S
H4038 C4030 0.930 1_556 S
H4039 C4031 0.929 1_556 S
H4040 C4048 0.929 . S
H4041 C4050 0.930 . S
H4042 C4052 0.930 . S
H4043 C4055 0.929 . S
H4044 C4058 0.930 . S
H4045 C4060 0.960 . S
H4046 C4060 0.960 . S
H4047 C4060 0.960 . S
C4048 H4040 0.929 . S
C4048 C4049 1.377 . S
C4048 C4050 1.384 . S
C4049 C4048 1.377 . S
C4049 C4055 1.390 . S
C4050 H4041 0.930 . S
C4050 C4048 1.384 . S
C4050 C4051 1.372 . S
C4051 C4050 1.372 . S
C4051 C4052 1.400 . S
C4051 C4056 1.490 . S
C4052 H4042 0.930 . S
C4052 C4051 1.400 . S
C4052 C4055 1.386 . S
H4053 C4069 0.930 . S
H4054 C4070 0.931 . S
C4055 H4043 0.929 . S
C4055 C4049 1.390 . S
C4055 C4052 1.386 . S
C4056 C4051 1.490 . S
C4056 C4058 1.395 . S
C4056 C4059 1.403 . S
H4057 C4063 0.930 . S
C4058 H4044 0.930 . S
C4058 C4056 1.395 . S
C4058 C4061 1.403 . S
C4059 C4056 1.403 . S
C4059 C4060 1.524 . S
C4059 C4063 1.400 . S
C4060 H4045 0.960 . S
C4060 H4046 0.960 . S
C4060 H4047 0.960 . S
C4060 C4059 1.524 . S
C4061 C4058 1.403 . S
C4061 C4062 1.392 . S
C4061 C4065 1.495 . S
C4062 C4061 1.392 . S
C4062 C4063 1.385 . S
C4062 C4064 1.478 . S
C4063 H4057 0.930 . S
C4063 C4059 1.400 . S
C4063 C4062 1.385 . S
C4064 C4062 1.478 . S
C4064 C4066 1.381 . S
C4064 C4070 1.383 . S
C4065 C4061 1.495 . S
C4065 H4071 0.959 . S
C4065 H4072 0.961 . S
C4065 H4073 0.960 . S
C4066 C4064 1.381 . S
C4066 C4067 1.394 . S
C4066 H4074 0.930 . S
C4067 C4066 1.394 . S
C4067 C4068 1.383 . S
C4067 H4075 0.929 . S
C4068 C4067 1.383 . S
C4068 C4069 1.377 . S
C4069 H4053 0.930 . S
C4069 C4068 1.377 . S
C4069 C4070 1.379 . S
C4070 H4054 0.931 . S
C4070 C4064 1.383 . S
C4070 C4069 1.379 . S
H4071 C4065 0.959 . S
H4072 C4065 0.961 . S
H4073 C4065 0.960 . S
H4074 C4066 0.930 . S
H4075 C4067 0.929 . S
H4076 C4084 0.929 . S
H4077 C4086 0.930 . S
H4078 C4088 0.930 . S
H4079 C4091 0.929 . S
H4080 C4094 0.930 . S
H4081 C4096 0.960 . S
H4082 C4096 0.960 . S
H4083 C4096 0.960 . S
C4084 H4076 0.929 . S
C4084 C4085 1.377 . S
C4084 C4086 1.384 . S
C4085 C4084 1.377 . S
C4085 C4091 1.390 . S
C4086 H4077 0.930 . S
C4086 C4084 1.384 . S
C4086 C4087 1.372 . S
C4087 C4086 1.372 . S
C4087 C4088 1.400 . S
C4087 C4092 1.490 . S
C4088 H4078 0.930 . S
C4088 C4087 1.400 . S
C4088 C4091 1.386 . S
H4089 C4105 0.930 . S
H4090 C4106 0.931 . S
C4091 H4079 0.929 . S
C4091 C4085 1.390 . S
C4091 C4088 1.386 . S
C4092 C4087 1.490 . S
C4092 C4094 1.395 . S
C4092 C4095 1.403 . S
H4093 C4099 0.930 . S
C4094 H4080 0.930 . S
C4094 C4092 1.395 . S
C4094 C4097 1.403 . S
C4095 C4092 1.403 . S
C4095 C4096 1.524 . S
C4095 C4099 1.400 . S
C4096 H4081 0.960 . S
C4096 H4082 0.960 . S
C4096 H4083 0.960 . S
C4096 C4095 1.524 . S
C4097 C4094 1.403 . S
C4097 C4098 1.392 . S
C4097 C4101 1.495 . S
C4098 C4097 1.392 . S
C4098 C4099 1.385 . S
C4098 C4100 1.478 . S
C4099 H4093 0.930 . S
C4099 C4095 1.400 . S
C4099 C4098 1.385 . S
C4100 C4098 1.478 . S
C4100 C4102 1.381 . S
C4100 C4106 1.383 . S
C4101 C4097 1.495 . S
C4101 H4107 0.959 . S
C4101 H4108 0.961 . S
C4101 H4109 0.960 . S
C4102 C4100 1.381 . S
C4102 C4103 1.394 . S
C4102 H4110 0.930 . S
C4103 C4102 1.394 . S
C4103 C4104 1.383 . S
C4103 H4111 0.929 . S
C4104 C4103 1.383 . S
C4104 C4105 1.377 . S
C4105 H4089 0.930 . S
C4105 C4104 1.377 . S
C4105 C4106 1.379 . S
C4106 H4090 0.931 . S
C4106 C4100 1.383 . S
C4106 C4105 1.379 . S
H4107 C4101 0.959 . S
H4108 C4101 0.961 . S
H4109 C4101 0.960 . S
H4110 C4102 0.930 . S
H4111 C4103 0.929 . S
C665 C106 1.859 . S
C684 C354 1.803 . S
C701 C65 1.540 . S
C720 C365 1.529 . S
C737 C79 1.259 . S
C756 C394 1.229 . S
C792 C397 1.184 . S
C773 C90 1.154 . S
C809 C21 1.308 . S
C828 C435 1.321 . S
C864 C438 0.867 . S
C845 C35 0.827 . S
C900 C465 1.421 . S
C881 C50 1.437 . S
C917 C6 1.596 . S
C936 C494 1.561 . S
C972 C345 1.711 1_655 S
C953 C232 1.722 . S
C989 C245 0.730 . S
C1008 C357 0.716 . S
C1044 C385 1.661 . S
C1025 C274 1.657 . S
C1080 C414 0.960 . S
C1061 C175 0.975 . S
C1097 C231 0.698 . S
C1116 C418 0.662 1_655 S
C1152 C444 1.557 . S
C1133 C246 1.591 . S
C1188 C457 0.472 . S
C1169 C273 0.503 . S
C1224 C485 1.690 . S
C1205 C176 1.700 . S
C1260 C337 1.547 . S
C1241 C160 1.514 . S
C1277 C289 1.756 . S
C1296 C504 1.727 . S
C1332 C535 1.510 . S
C1313 C328 1.520 . S
C1368 C554 0.993 . S
C1349 C317 0.965 . S
C1385 C118 1.250 . S
C1404 C477 1.281 . S
C1421 C132 1.400 . S
C1440 C377 1.446 . S
C1457 C331 1.667 . S
C1476 C565 1.667 . S
C1512 C594 1.026 . S
C1493 C303 1.012 . S
C1548 C355 1.357 1_565 S
C1529 C63 1.405 . S
C1584 C584 1.956 . S
C1565 C107 1.932 . S
C1601 C92 1.007 . S
C1620 C395 1.018 . S
C1637 C78 1.774 . S
C1656 C558 1.783 . S
C1692 C434 1.904 . S
C1673 C8 1.939 . S
C1709 C51 0.979 . S
C1728 C517 0.989 . S
C1764 C464 1.778 . S
C1745 C37 1.758 . S
C1800 C615 1.511 . S
C1781 C20 1.530 . S
C1836 C344 1.493 . S
C1817 C147 1.469 . S
C1872 C578 0.915 . S
C1853 C316 0.901 . S
C1889 C119 1.548 . S
C1908 C384 1.589 . S
C1925 C288 1.108 . S
C1944 C575 1.073 . S
C1961 C148 1.020 1_545 S
C1980 C417 1.026 . S
C2016 C525 1.601 . S
C1997 C315 1.583 . S
C2033 C120 0.804 . S
C2052 C458 0.778 . S
C2069 C287 1.551 . S
C2088 C604 1.553 . S
C2105 C188 1.370 . S
C2124 C338 1.362 . S
C2141 C177 2.044 . S
C2160 C505 2.020 . S
C2177 C258 1.598 . S
C2196 C454 1.622 . S
C2213 C247 1.048 . S
C2232 C555 1.028 . S
C2268 C598 1.180 . S
C2249 C272 1.168 . S
C2285 C216 1.240 . S
C2304 C378 1.216 1_565 S
C2340 C404 1.896 . S
C2321 C261 1.894 . S
C2376 C375 1.032 . S
C2357 C205 1.017 . S
C2393 C76 1.440 . S
C2412 C634 1.466 . S
C2448 C585 1.605 . S
C2429 C93 1.615 . S
C2465 C105 0.843 . S
C2484 C654 0.858 . S
C2501 C62 1.185 . S
C2520 C557 1.214 . S
C2537 C49 1.264 . S
C2556 C515 1.256 . S
C2592 C518 1.247 . S
C2573 C9 1.211 . S
C2628 C545 1.374 . S
C2609 C22 1.371 . S
C2664 C614 1.967 . S
C2645 C36 2.009 . S
C2700 C625 1.641 . S
C2681 C260 1.639 . S
C2717 C189 0.593 . S
C2736 C577 0.551 . S
C2772 C645 1.575 . S
C2753 C204 1.570 . S
C2808 C574 0.821 . S
C2789 C217 0.785 . S
C2844 C498 0.868 . S
C2825 C259 0.875 . S
C2861 C190 1.688 . S
C2880 C524 1.682 . S
C2916 C537 0.620 . S
C2897 C203 0.642 . S
C2933 C218 1.774 . S
C2952 C605 1.765 . S
C2988 C617 1.473 . S
C2969 C314 1.446 . S
C3005 C135 1.817 . S
C3024 C424 1.785 . S
C3060 C455 1.460 . S
C3041 C146 1.446 . S
C3096 C474 1.031 . S
C3077 C163 1.020 . S
C3132 C597 1.336 . S
C3113 C300 1.308 . S
C3149 C286 1.336 . S
C3168 C637 1.394 . S
C3204 C405 1.571 . S
C3185 C149 1.584 . S
C3240 C374 0.905 . S
C3221 C121 0.995 . S
C3257 C91 1.384 . S
C3276 C635 1.355 . S
C3312 C364 1.530 . S
C3293 C77 1.480 . S
C3329 C64 0.981 . S
C3348 C655 0.966 . S
C3365 C104 1.382 . S
C3384 C398 1.406 . S
C3401 C34 1.514 . S
C3420 C514 1.557 . S
C3456 C437 0.936 . S
C3437 C23 0.943 . S
C3473 C7 1.327 . S
C3492 C544 1.376 . S
C3509 C48 1.503 . S
C3528 C495 1.481 . S
C3564 C624 1.487 . S
C3545 C329 1.449 . S
C3581 C162 0.896 . S
C3600 C358 0.914 . S
C3636 C644 1.572 1_656 S
C3617 C301 1.548 . S
C3653 C134 1.108 . S
C3672 C415 1.112 . S
C3689 C330 1.017 . S
C3708 C497 1.024 . S
C3744 C445 1.585 . S
C3725 C161 1.579 . S
C3761 C302 0.813 . S
C3780 C538 0.825 . S
C3816 C484 1.550 . S
C3797 C133 1.544 . S
C3852 C618 1.633 . S
C3833 C244 1.615 . S
C3888 C425 2.001 . S
C3869 C219 2.016 . S
C3905 C230 1.333 . S
C3924 C534 1.311 . S
C3960 C475 0.969 . S
C3941 C191 1.008 . S
C3977 C202 1.405 . S
C3996 C478 1.438 . S
C4013 C174 1.482 . S
C4032 C638 1.526 . S
C4068 C564 1.875 . S
C4049 C233 1.860 1_565 S
C4104 C595 1.005 . S
C4085 C275 0.996 . S
