# Generated by pormake.
# Topology anh, (6,3)-cn, num edge types: 1
# Building blocks:
#     Node 0, Type 0, BuildingBlock: BETDEL_clean_sbu_0, # of connection points: 6
#     Node 1, Type 0, BuildingBlock: BETDEL_clean_sbu_0, # of connection points: 6
#     Node 2, Type 0, BuildingBlock: BETDEL_clean_sbu_0, # of connection points: 6
#     Node 3, Type 1, BuildingBlock: WUSLED_clean_sbu_0, # of connection points: 3
#     Node 4, Type 1, BuildingBlock: WUSLED_clean_sbu_0, # of connection points: 3
#     Node 5, Type 1, BuildingBlock: WUSLED_clean_sbu_0, # of connection points: 3
#     Node 6, Type 1, BuildingBlock: WUSLED_clean_sbu_0, # of connection points: 3
#     Node 7, Type 1, BuildingBlock: WUSLED_clean_sbu_0, # of connection points: 3
#     Node 8, Type 1, BuildingBlock: WUSLED_clean_sbu_0, # of connection points: 3
#     Edge 9, Type (0, 1), BuildingBlock: TEMPAE_clean_linker_10, # of connection points: 2
#     Edge 10, Type (0, 1), BuildingBlock: TEMPAE_clean_linker_10, # of connection points: 2
#     Edge 11, Type (0, 1), BuildingBlock: TEMPAE_clean_linker_10, # of connection points: 2
#     Edge 12, Type (0, 1), BuildingBlock: TEMPAE_clean_linker_10, # of connection points: 2
#     Edge 13, Type (0, 1), BuildingBlock: TEMPAE_clean_linker_10, # of connection points: 2
#     Edge 14, Type (0, 1), BuildingBlock: TEMPAE_clean_linker_10, # of connection points: 2
#     Edge 15, Type (0, 1), BuildingBlock: TEMPAE_clean_linker_10, # of connection points: 2
#     Edge 16, Type (0, 1), BuildingBlock: TEMPAE_clean_linker_10, # of connection points: 2
#     Edge 17, Type (0, 1), BuildingBlock: TEMPAE_clean_linker_10, # of connection points: 2
#     Edge 18, Type (0, 1), BuildingBlock: TEMPAE_clean_linker_10, # of connection points: 2
#     Edge 19, Type (0, 1), BuildingBlock: TEMPAE_clean_linker_10, # of connection points: 2
#     Edge 20, Type (0, 1), BuildingBlock: TEMPAE_clean_linker_10, # of connection points: 2
#     Edge 21, Type (0, 1), BuildingBlock: TEMPAE_clean_linker_10, # of connection points: 2
#     Edge 22, Type (0, 1), BuildingBlock: TEMPAE_clean_linker_10, # of connection points: 2
#     Edge 23, Type (0, 1), BuildingBlock: TEMPAE_clean_linker_10, # of connection points: 2
#     Edge 24, Type (0, 1), BuildingBlock: TEMPAE_clean_linker_10, # of connection points: 2
#     Edge 25, Type (0, 1), BuildingBlock: TEMPAE_clean_linker_10, # of connection points: 2
#     Edge 26, Type (0, 1), BuildingBlock: TEMPAE_clean_linker_10, # of connection points: 2
# Relax obj value: 0.132
# Max RMSD: 0.161
# Mean RMSD: 0.127
data_MOF--net-anh--node1-BETDEL_clean_sbu_0--node2-WUSLED_clean_sbu_0--edge1-TEMPAE_clean_linker_10
_symmetry_space_group_name_H-M    P1
_symmetry_Int_Tables_number       1
_symmetry_cell_setting            triclinic
loop_
_symmetry_equiv_pos_as_xyz
'x, y, z'
_cell_length_a     38.707478
_cell_length_b     38.754407
_cell_length_c     67.828486
_cell_angle_alpha  89.549598
_cell_angle_beta   90.151935
_cell_angle_gamma 119.9754
loop_
_atom_site_label
_atom_site_type_symbol
_atom_site_fract_x
_atom_site_fract_y
_atom_site_fract_z
_atom_type_partial_charge
Dy0 Dy 0.06804 0.50241 0.17727 0.0
C1 C 0.9592 0.55289 0.18632 0.0
C2 C 0.1321 0.49118 0.17866 0.0
Dy3 Dy 0.02001 0.54004 0.17614 0.0
O4 O 0.11892 0.50305 0.19302 0.0
O5 O 0.10896 0.48334 0.16337 0.0
O6 O 0.04032 0.47655 0.20666 0.0
O7 O 0.05526 0.53512 0.19947 0.0
C8 C 0.04038 0.50832 0.21249 0.0
C9 C 0.04669 0.53889 0.1401 0.0
O10 O 0.07824 0.59484 0.18277 0.0
O11 O 0.11264 0.56611 0.16999 0.0
O12 O 0.98046 0.56595 0.17034 0.0
O13 O 0.97211 0.5337 0.19686 0.0
O14 O 0.0408 0.56689 0.14674 0.0
O15 O 0.03521 0.51047 0.15262 0.0
O16 O 1.01154 0.4446 0.173 0.0
O17 O 0.97317 0.4748 0.17568 0.0
C18 C 0.11194 0.59791 0.1763 0.0
C19 C 0.97639 0.44251 0.1741 0.0
Dy20 Dy 0.48743 0.02516 0.5096 0.0
C21 C 0.64563 0.13351 0.52229 0.0
C22 C 0.41073 0.96437 0.50582 0.0
Dy23 Dy 0.57306 0.0724 0.51142 0.0
O24 O 0.4252 0.98696 0.52106 0.0
O25 O 0.4376 0.97649 0.49204 0.0
O26 O 0.4839 0.04829 0.53915 0.0
O27 O 0.5298 0.03585 0.53365 0.0
C28 C 0.51528 0.04892 0.5462 0.0
C29 C 0.54799 0.0493 0.4745 0.0
O30 O 0.56888 0.0143 0.51973 0.0
O31 O 0.50638 0.97911 0.50606 0.0
O32 O 0.63996 0.10828 0.5084 0.0
O33 O 0.61196 0.12397 0.53064 0.0
O34 O 0.5806 0.05294 0.48187 0.0
O35 O 0.53117 0.06089 0.48673 0.0
O36 O 0.48851 0.08241 0.50318 0.0
O37 O 0.55521 0.11969 0.51126 0.0
C38 C 0.53896 0.9805 0.51306 0.0
C39 C 0.52066 0.11709 0.50694 0.0
Dy40 Dy 0.60013 0.61817 0.84284 0.0
C41 C 0.54522 0.45635 0.85219 0.0
C42 C 0.61312 0.69289 0.83537 0.0
Dy43 Dy 0.56112 0.53206 0.84431 0.0
O44 O 0.6304 0.68392 0.84928 0.0
O45 O 0.59096 0.66161 0.82495 0.0
O46 O 0.62378 0.62199 0.87343 0.0
O47 O 0.56698 0.57495 0.86641 0.0
C48 C 0.59314 0.58943 0.87967 0.0
C49 C 0.56484 0.56073 0.8078 0.0
O50 O 0.50653 0.53535 0.85191 0.0
O51 O 0.53488 0.59972 0.84017 0.0
O52 O 0.5348 0.46765 0.8363 0.0
O53 O 0.56262 0.48607 0.86419 0.0
O54 O 0.5345 0.52866 0.81471 0.0
O55 O 0.59297 0.57519 0.82023 0.0
O56 O 0.65503 0.61529 0.83569 0.0
O57 O 0.62631 0.55061 0.84721 0.0
C58 C 0.50323 0.56636 0.84623 0.0
C59 C 0.65794 0.58411 0.84137 0.0
C60 C 0.6334 0.12202 0.20045 0.0
C61 C 0.65336 0.1469 0.21643 0.0
C62 C 0.70797 0.19239 0.19458 0.0
C63 C 0.69034 0.18189 0.21351 0.0
C64 C 0.68724 0.16739 0.1787 0.0
C65 C 0.65057 0.13272 0.18163 0.0
U66 U 0.53713 0.02789 0.22352 0.0
O67 O 0.47921 0.99865 0.20812 0.0
O68 O 0.51392 0.96801 0.21077 0.0
C69 C 0.48198 0.96721 0.20359 0.0
C70 C 0.59523 0.08422 0.20239 0.0
C71 C 0.44498 0.92837 0.20163 0.0
C72 C 0.40271 0.87303 0.18015 0.0
C73 C 0.43793 0.90889 0.18348 0.0
C74 C 0.38071 0.87505 0.21327 0.0
C75 C 0.37334 0.85562 0.1949 0.0
C76 C 0.41622 0.91119 0.2166 0.0
C77 C 0.53416 0.03364 0.28368 0.0
C78 C 0.49651 0.01964 0.31429 0.0
C79 C 0.56861 0.05323 0.31523 0.0
C80 C 0.56963 0.05115 0.29462 0.0
C81 C 0.53201 0.03732 0.32538 0.0
C82 C 0.49761 0.01809 0.29366 0.0
C83 C 0.53526 0.03158 0.26194 0.0
O84 O 0.59626 0.05316 0.20953 0.0
O85 O 0.56305 0.08536 0.20745 0.0
O86 O 0.51709 0.04494 0.25039 0.0
O87 O 0.55438 0.01618 0.25288 0.0
H88 H 0.64062 0.13912 0.2311 0.0
H89 H 0.7055 0.20024 0.22612 0.0
H90 H 0.69922 0.17468 0.16387 0.0
H91 H 0.63558 0.11399 0.16907 0.0
H92 H 0.39869 0.85885 0.16598 0.0
H93 H 0.45971 0.92171 0.1717 0.0
H94 H 0.35868 0.8628 0.22494 0.0
H95 H 0.42098 0.92584 0.23069 0.0
H96 H 0.46782 1.00738 0.32153 0.0
H97 H 0.59653 0.06673 0.32324 0.0
H98 H 0.59819 0.06349 0.28722 0.0
H99 H 0.46986 1.00436 0.2855 0.0
C100 C 0.52408 0.63981 0.53285 0.0
C101 C 0.51371 0.65669 0.54839 0.0
C102 C 0.52658 0.71372 0.5274 0.0
C103 C 0.51486 0.69332 0.54566 0.0
C104 C 0.53665 0.69635 0.51196 0.0
C105 C 0.53539 0.65994 0.51468 0.0
U106 U 0.5256 0.54864 0.55854 0.0
O107 O 0.49103 0.48603 0.54852 0.0
O108 O 0.55676 0.51904 0.54618 0.0
C109 C 0.52324 0.48627 0.54219 0.0
C110 C 0.52275 0.60105 0.53451 0.0
C111 C 0.52327 0.44856 0.53898 0.0
C112 C 0.51793 0.39869 0.51558 0.0
C113 C 0.51699 0.43351 0.51975 0.0
C114 C 0.5313 0.39293 0.54994 0.0
C115 C 0.52492 0.37763 0.53059 0.0
C116 C 0.53058 0.42813 0.55409 0.0
C117 C 0.5362 0.56132 0.61804 0.0
C118 C 0.54773 0.53354 0.64805 0.0
C119 C 0.5408 0.59214 0.64978 0.0
C120 C 0.53525 0.59087 0.62939 0.0
C121 C 0.54759 0.56383 0.65945 0.0
C122 C 0.54221 0.53236 0.62747 0.0
C123 C 0.53213 0.56325 0.59645 0.0
O124 O 0.556 0.60196 0.53946 0.0
O125 O 0.49094 0.57097 0.54248 0.0
O126 O 0.49742 0.54178 0.58777 0.0
O127 O 0.56322 0.57439 0.58489 0.0
H128 H 0.50481 0.64167 0.56255 0.0
H129 H 0.50717 0.70596 0.55791 0.0
H130 H 0.54512 0.71071 0.49763 0.0
H131 H 0.54314 0.6473 0.50243 0.0
H132 H 0.51373 0.38866 0.50046 0.0
H133 H 0.51171 0.44904 0.50781 0.0
H134 H 0.53637 0.37747 0.56197 0.0
H135 H 0.53568 0.43931 0.56902 0.0
H136 H 0.55296 0.51127 0.65495 0.0
H137 H 0.53955 0.61534 0.658 0.0
H138 H 0.53053 0.61343 0.62241 0.0
H139 H 0.54305 0.50926 0.61896 0.0
C140 C 0.9789 0.5617 0.8645 0.0
C141 C 0.94818 0.54553 0.87862 0.0
C142 C 0.90848 0.56589 0.85864 0.0
C143 C 0.91317 0.54748 0.87567 0.0
C144 C 0.93935 0.58176 0.84459 0.0
C145 C 0.974 0.5796 0.84748 0.0
U146 U 0.06509 0.55406 0.89159 0.0
O147 O 0.09551 0.52267 0.88004 0.0
O148 O 0.12861 0.58829 0.88321 0.0
C149 C 0.12886 0.5564 0.87695 0.0
C150 C 1.01606 0.55987 0.86644 0.0
C151 C 0.16709 0.5575 0.87354 0.0
C152 C 0.21422 0.55696 0.84996 0.0
C153 C 0.17751 0.55417 0.85414 0.0
C154 C 0.23075 0.56607 0.88467 0.0
C155 C 0.24148 0.56292 0.86515 0.0
C156 C 0.19397 0.56354 0.88881 0.0
C157 C 0.05362 0.54294 0.95049 0.0
C158 C 0.09308 0.54395 0.97883 0.0
C159 C 0.0258 0.53139 0.98358 0.0
C160 C 0.02214 0.53493 0.96331 0.0
C161 C 0.06114 0.53555 0.9917 0.0
C162 C 0.08933 0.54754 0.95833 0.0
C163 C 0.04729 0.54716 0.92932 0.0
O164 O 0.04686 0.59081 0.87433 0.0
O165 O 1.01283 0.52577 0.87191 0.0
O166 O 0.036 0.5163 0.91774 0.0
O167 O 0.06976 0.58168 0.92053 0.0
H168 H 0.95126 0.53149 0.89186 0.0
H169 H 0.89006 0.53519 0.88683 0.0
H170 H 0.93654 0.59556 0.83119 0.0
H171 H 0.99711 0.5919 0.8363 0.0
H172 H 0.22146 0.55509 0.83474 0.0
H173 H 0.15737 0.54997 0.84209 0.0
H174 H 0.25061 0.57011 0.89681 0.0
H175 H 0.18657 0.56634 0.90389 0.0
H176 H 0.12072 0.54731 0.98458 0.0
H177 H 1.00095 0.52596 0.99296 0.0
H178 H 0.99449 0.53172 0.95762 0.0
H179 H 0.1141 0.55391 0.94868 0.0
C180 C 0.94344 0.48351 0.49153 0.0
C181 C 0.90996 0.46855 0.47917 0.0
C182 C 0.87414 0.41083 0.50083 0.0
C183 C 0.87547 0.43272 0.48388 0.0
C184 C 0.90776 0.42643 0.51324 0.0
C185 C 0.9419 0.4625 0.50868 0.0
U186 U 0.01802 0.54938 0.45259 0.0
O187 O 0.05737 0.61413 0.45042 0.0
O188 O 0.08314 0.57486 0.45218 0.0
C189 C 0.08986 0.61159 0.45238 0.0
C190 C 0.98132 0.51894 0.48604 0.0
C191 C 0.11876 0.63786 0.4671 0.0
C192 C 0.13492 0.67813 0.49663 0.0
C193 C 0.10657 0.64872 0.48435 0.0
C194 C 0.18778 0.68316 0.47555 0.0
C195 C 0.17562 0.69615 0.49198 0.0
C196 C 0.15951 0.65433 0.46313 0.0
C197 C 0.99392 0.52122 0.39833 0.0
C198 C 0.03214 0.56287 0.37058 0.0
C199 C 0.98447 0.49289 0.36568 0.0
C200 C 0.97481 0.48861 0.38568 0.0
C201 C 1.01312 0.52998 0.35799 0.0
C202 C 0.02284 0.55844 0.39073 0.0
C203 C 0.98359 0.51525 0.41938 0.0
O204 O 1.00776 0.51104 0.47846 0.0
O205 O 0.97892 0.54747 0.4766 0.0
O206 O 0.97845 0.54278 0.42783 0.0
O207 O 1.00423 0.50365 0.43016 0.0
H208 H 0.9107 0.48415 0.4657 0.0
H209 H 0.85005 0.42207 0.47411 0.0
H210 H 0.90837 0.41022 0.52618 0.0
H211 H 0.96765 0.47338 0.51826 0.0
H212 H 0.12509 0.68817 0.50916 0.0
H213 H 0.07519 0.63591 0.48781 0.0
H214 H 0.21905 0.69735 0.47155 0.0
H215 H 0.16941 0.64622 0.44993 0.0
H216 H 0.05448 0.59167 0.36487 0.0
H217 H 0.96933 0.46727 0.35615 0.0
H218 H 0.95249 0.45972 0.39131 0.0
H219 H 0.03819 0.58389 0.40034 0.0
C220 C 0.55823 0.99306 0.82598 0.0
C221 C 0.54589 0.96395 0.81132 0.0
C222 C 0.56607 0.9253 0.83178 0.0
C223 C 0.54956 0.93027 0.81423 0.0
C224 C 0.57708 0.95386 0.84674 0.0
C225 C 0.57325 0.98758 0.84382 0.0
U226 U 0.55713 0.06375 0.78834 0.0
O227 O 0.52859 0.10058 0.78769 0.0
O228 O 0.5938 0.1287 0.78519 0.0
C229 C 0.56298 0.13402 0.78681 0.0
C230 C 0.55896 0.03064 0.82185 0.0
C231 C 0.56814 0.16543 0.80042 0.0
C232 C 0.56815 0.19002 0.8333 0.0
C233 C 0.56332 0.15912 0.8209 0.0
C234 C 0.58349 0.23351 0.80481 0.0
C235 C 0.57835 0.22755 0.8253 0.0
C236 C 0.5784 0.20274 0.79252 0.0
C237 C 0.55085 0.03236 0.7343 0.0
C238 C 0.55075 0.07185 0.70628 0.0
C239 C 0.54761 1.00855 0.70102 0.0
C240 C 0.54897 1.00355 0.72134 0.0
C241 C 0.5482 0.04257 0.69326 0.0
C242 C 0.55193 0.06671 0.72671 0.0
C243 C 0.55172 0.02576 0.75559 0.0
O244 O 0.59126 0.05737 0.81264 0.0
O245 O 0.52596 0.02706 0.81433 0.0
O246 O 0.52048 0.02061 0.76563 0.0
O247 O 0.58574 0.04916 0.76441 0.0
H248 H 0.53445 0.96782 0.79738 0.0
H249 H 0.54019 0.90848 0.80257 0.0
H250 H 0.59015 0.95098 0.86035 0.0
H251 H 0.58322 1.00999 0.85521 0.0
H252 H 0.56384 0.18466 0.84904 0.0
H253 H 0.55556 0.13037 0.82722 0.0
H254 H 0.59037 0.26177 0.79818 0.0
H255 H 0.58211 0.20801 0.77675 0.0
H256 H 0.55101 0.09824 0.70069 0.0
H257 H 0.54622 0.9858 0.69134 0.0
H258 H 0.54842 0.97703 0.72697 0.0
H259 H 0.55345 0.0893 0.73656 0.0
C260 C 0.6082 0.49593 0.15764 0.0
C261 C 0.63246 0.49496 0.14259 0.0
C262 C 0.68103 0.49995 0.16691 0.0
C263 C 0.66853 0.49685 0.14719 0.0
C264 C 0.65607 0.49987 0.18197 0.0
C265 C 0.61992 0.49795 0.17734 0.0
U266 U 0.54245 0.50468 0.11918 0.0
O267 O 0.47715 0.47544 0.11664 0.0
O268 O 0.5133 0.54075 0.11837 0.0
C269 C 0.47736 0.5094 0.11776 0.0
C270 C 0.57195 0.49722 0.15272 0.0
C271 C 0.44823 0.51043 0.13107 0.0
C272 C 0.42247 0.51016 0.16377 0.0
C273 C 0.44999 0.50687 0.15165 0.0
C274 C 0.39197 0.52068 0.13476 0.0
C275 C 0.3937 0.51773 0.15533 0.0
C276 C 0.41893 0.51697 0.12276 0.0
C277 C 0.57431 0.51564 0.06522 0.0
C278 C 0.54027 0.52973 0.03886 0.0
C279 C 0.59539 0.51906 0.0313 0.0
C280 C 0.59969 0.5134 0.0513 0.0
C281 C 0.56564 0.52723 0.02485 0.0
C282 C 0.54445 0.52376 0.05895 0.0
C283 C 0.58001 0.51002 0.08618 0.0
O284 O 0.57846 0.53165 0.14568 0.0
O285 O 0.54495 0.4666 0.14273 0.0
O286 O 0.55339 0.47585 0.09403 0.0
O287 O 0.589 0.54071 0.09751 0.0
H288 H 0.62382 0.49349 0.12727 0.0
H289 H 0.68684 0.49629 0.13528 0.0
H290 H 0.66508 0.50264 0.19727 0.0
H291 H 0.60156 0.49894 0.1891 0.0
H292 H 0.42392 0.50738 0.17962 0.0
H293 H 0.47267 0.50189 0.15825 0.0
H294 H 0.3694 0.52557 0.12794 0.0
H295 H 0.41714 0.51962 0.10692 0.0
H296 H 0.51703 0.53587 0.03426 0.0
H297 H 0.61575 0.5176 0.02087 0.0
H298 H 0.62304 0.50744 0.05592 0.0
H299 H 0.52455 0.52557 0.06956 0.0
C300 C 0.1868 0.48583 0.16225 0.0
C301 C 0.1718 0.49486 0.17892 0.0
C302 C 0.22612 0.49309 0.16196 0.0
C303 C 0.25078 0.50978 0.17874 0.0
C304 C 0.23578 0.51917 0.19557 0.0
C305 C 0.19632 0.51134 0.19549 0.0
C306 C 0.24144 0.4833 0.14361 0.0
C307 C 0.26162 0.5383 0.21341 0.0
C308 C 0.33514 0.48779 0.17781 0.0
C309 C 0.36372 0.52095 0.16727 0.0
C310 C 0.29918 0.48538 0.18351 0.0
C311 C 0.29212 0.51687 0.17846 0.0
C312 C 0.32311 0.55246 0.17009 0.0
C313 C 0.35863 0.55399 0.16453 0.0
C314 C 0.26719 0.44751 0.19303 0.0
C315 C 0.31748 0.58728 0.16487 0.0
H316 H 0.16805 0.47371 0.14936 0.0
H317 H 0.18497 0.51906 0.2083 0.0
H318 H 0.26841 0.51031 0.13805 0.0
H319 H 0.25023 0.46074 0.14716 0.0
H320 H 0.21886 0.47158 0.13165 0.0
H321 H 0.24513 0.54318 0.22543 0.0
H322 H 0.27353 0.51943 0.21914 0.0
H323 H 0.2876 0.56748 0.2092 0.0
H324 H 0.33927 0.46232 0.17997 0.0
H325 H 0.38114 0.57982 0.15654 0.0
H326 H 0.24364 0.43016 0.18202 0.0
H327 H 0.25292 0.45433 0.20539 0.0
H328 H 0.27922 0.42862 0.19867 0.0
H329 H 0.30424 0.5827 0.14992 0.0
H330 H 0.34649 0.61563 0.16462 0.0
H331 H 0.29719 0.59028 0.17533 0.0
C332 C 0.6726 0.20598 0.52379 0.0
C333 C 0.67984 0.17404 0.52282 0.0
C334 C 0.70345 0.24519 0.52091 0.0
C335 C 0.7427 0.25259 0.51784 0.0
C336 C 0.75047 0.22048 0.51794 0.0
C337 C 0.71862 0.1813 0.51995 0.0
C338 C 0.69356 0.27828 0.52002 0.0
C339 C 0.79228 0.22753 0.51562 0.0
C340 C 0.81733 0.34495 0.48981 0.0
C341 C 0.83878 0.37108 0.50518 0.0
C342 C 0.78532 0.30668 0.49376 0.0
C343 C 0.77532 0.29367 0.51355 0.0
C344 C 0.79656 0.31978 0.52913 0.0
C345 C 0.82746 0.35841 0.52476 0.0
C346 C 0.76244 0.28001 0.47674 0.0
C347 C 0.78684 0.30699 0.55044 0.0
H348 H 0.64229 0.20012 0.5256 0.0
H349 H 0.72392 0.15639 0.51915 0.0
H350 H 0.71221 0.3021 0.53058 0.0
H351 H 0.70032 0.2919 0.50506 0.0
H352 H 0.66166 0.26754 0.52334 0.0
H353 H 0.79342 0.19951 0.51681 0.0
H354 H 0.80462 0.24156 0.50109 0.0
H355 H 0.81188 0.24847 0.5271 0.0
H356 H 0.826 0.35398 0.47464 0.0
H357 H 0.84295 0.37859 0.53677 0.0
H358 H 0.73009 0.26911 0.47848 0.0
H359 H 0.76629 0.25351 0.47662 0.0
H360 H 0.77237 0.2955 0.46227 0.0
H361 H 0.75836 0.30544 0.55449 0.0
H362 H 0.8104 0.3281 0.56059 0.0
H363 H 0.78298 0.27688 0.55278 0.0
C364 C 0.63781 0.76436 0.84308 0.0
C365 C 0.60814 0.72801 0.83556 0.0
C366 C 0.63168 0.79711 0.84411 0.0
C367 C 0.59453 0.79263 0.83814 0.0
C368 C 0.5639 0.75528 0.83141 0.0
C369 C 0.57139 0.72366 0.82984 0.0
C370 C 0.66506 0.8366 0.85123 0.0
C371 C 0.52344 0.7488 0.82549 0.0
C372 C 0.56581 0.87005 0.85157 0.0
C373 C 0.57392 0.89168 0.83386 0.0
C374 C 0.57301 0.83803 0.8534 0.0
C375 C 0.58873 0.82765 0.83713 0.0
C376 C 0.5974 0.8497 0.81933 0.0
C377 C 0.58999 0.88146 0.81794 0.0
C378 C 0.56282 0.81472 0.8725 0.0
C379 C 0.61419 0.83949 0.80167 0.0
H380 H 0.66591 0.7673 0.84785 0.0
H381 H 0.54797 0.69508 0.82458 0.0
H382 H 0.67333 0.85954 0.8395 0.0
H383 H 0.65501 0.84662 0.86417 0.0
H384 H 0.69203 0.83507 0.85542 0.0
H385 H 0.50114 0.7167 0.82378 0.0
H386 H 0.51211 0.76164 0.83657 0.0
H387 H 0.52601 0.76416 0.81124 0.0
H388 H 0.55312 0.87765 0.86387 0.0
H389 H 0.5971 0.89858 0.80434 0.0
H390 H 0.58894 0.81299 0.87799 0.0
H391 H 0.53847 0.78374 0.86996 0.0
H392 H 0.55314 0.82812 0.88413 0.0
H393 H 0.64235 0.84027 0.80574 0.0
H394 H 0.62024 0.86024 0.78907 0.0
H395 H 0.59291 0.80879 0.79674 0.0
C396 C 0.89008 0.50923 0.17599 0.0
C397 C 0.9174 0.54236 0.18677 0.0
C398 C 0.85001 0.49899 0.17487 0.0
C399 C 0.83728 0.52273 0.18473 0.0
C400 C 0.86449 0.55493 0.19661 0.0
C401 C 0.90457 0.56448 0.19748 0.0
C402 C 0.82194 0.4641 0.1623 0.0
C403 C 0.85152 0.58007 0.20776 0.0
C404 C 0.75405 0.53144 0.16026 0.0
C405 C 0.72085 0.50529 0.17164 0.0
C406 C 0.79204 0.5374 0.16452 0.0
C407 C 0.79707 0.51691 0.18063 0.0
C408 C 0.76379 0.4906 0.19228 0.0
C409 C 0.72597 0.485 0.18759 0.0
C410 C 0.82684 0.56557 0.15169 0.0
C411 C 0.76784 0.46769 0.20937 0.0
H412 H 0.90037 0.49185 0.16805 0.0
H413 H 0.92595 0.58963 0.20608 0.0
H414 H 0.79389 0.44457 0.1704 0.0
H415 H 0.81399 0.4752 0.14889 0.0
H416 H 0.83539 0.44595 0.15765 0.0
H417 H 0.87552 0.60212 0.21742 0.0
H418 H 0.84272 0.5963 0.1972 0.0
H419 H 0.82501 0.56076 0.21697 0.0
H420 H 0.75042 0.54771 0.14813 0.0
H421 H 0.7003 0.46436 0.19627 0.0
H422 H 0.84047 0.54933 0.14479 0.0
H423 H 0.85015 0.58958 0.16082 0.0
H424 H 0.81791 0.57944 0.13982 0.0
H425 H 0.77106 0.44271 0.20364 0.0
H426 H 0.74133 0.45506 0.21921 0.0
H427 H 0.79481 0.48689 0.21822 0.0
C428 C 0.34847 0.91441 0.52272 0.0
C429 C 0.37388 0.92543 0.50632 0.0
C430 C 0.31536 0.87594 0.52441 0.0
C431 C 0.30763 0.84806 0.50931 0.0
C432 C 0.33376 0.85886 0.49292 0.0
C433 C 0.36649 0.89756 0.49158 0.0
C434 C 0.28867 0.86513 0.5423 0.0
C435 C 0.32673 0.82979 0.47658 0.0
C436 C 0.23738 0.7367 0.51168 0.0
C437 C 0.20471 0.73371 0.5013 0.0
C438 C 0.27 0.77421 0.51623 0.0
C439 C 0.27024 0.80899 0.50939 0.0
C440 C 0.23609 0.80585 0.50002 0.0
C441 C 0.20345 0.76813 0.49634 0.0
C442 C 0.30525 0.77647 0.52698 0.0
C443 C 0.23541 0.84212 0.49222 0.0
H444 H 0.3547 0.93578 0.53435 0.0
H445 H 0.38667 0.90579 0.47912 0.0
H446 H 0.25804 0.85717 0.53774 0.0
H447 H 0.2866 0.83858 0.54976 0.0
H448 H 0.29964 0.88985 0.55306 0.0
H449 H 0.35178 0.84169 0.46585 0.0
H450 H 0.32263 0.8014 0.48275 0.0
H451 H 0.29899 0.82287 0.46857 0.0
H452 H 0.23815 0.70984 0.51542 0.0
H453 H 0.17821 0.7655 0.48808 0.0
H454 H 0.31715 0.80078 0.53797 0.0
H455 H 0.32947 0.78311 0.51629 0.0
H456 H 0.29729 0.74799 0.53463 0.0
H457 H 0.24416 0.86481 0.50391 0.0
H458 H 0.20557 0.83476 0.48653 0.0
H459 H 0.25739 0.85579 0.48004 0.0
C460 C 0.56723 0.41364 0.86959 0.0
C461 C 0.54721 0.41948 0.85379 0.0
C462 C 0.57519 0.38201 0.86952 0.0
C463 C 0.56295 0.35598 0.85322 0.0
C464 C 0.54167 0.36119 0.83753 0.0
C465 C 0.53385 0.39273 0.83809 0.0
C466 C 0.59803 0.37747 0.88645 0.0
C467 C 0.52842 0.33431 0.81974 0.0
C468 C 0.61122 0.29926 0.83435 0.0
C469 C 0.5806 0.25997 0.83763 0.0
C470 C 0.60798 0.33149 0.84125 0.0
C471 C 0.57334 0.32403 0.85176 0.0
C472 C 0.54487 0.28453 0.85725 0.0
C473 C 0.54878 0.25278 0.85005 0.0
C474 C 0.63936 0.37315 0.83524 0.0
C475 C 0.50817 0.27559 0.86893 0.0
H476 H 0.57798 0.43464 0.88166 0.0
H477 H 0.51866 0.3974 0.8258 0.0
H478 H 0.58268 0.34624 0.8919 0.0
H479 H 0.62808 0.38456 0.88133 0.0
H480 H 0.60167 0.39747 0.8989 0.0
H481 H 0.51271 0.34281 0.80869 0.0
H482 H 0.55463 0.33541 0.81249 0.0
H483 H 0.50815 0.30302 0.8244 0.0
H484 H 0.63631 0.3048 0.8251 0.0
H485 H 0.52519 0.22242 0.85274 0.0
H486 H 0.64592 0.39446 0.84742 0.0
H487 H 0.62815 0.38307 0.82259 0.0
H488 H 0.66756 0.37449 0.83068 0.0
H489 H 0.51609 0.29644 0.88146 0.0
H490 H 0.49249 0.24455 0.87472 0.0
H491 H 0.48724 0.27973 0.85933 0.0
C492 C 0.5211 0.91407 0.49915 0.0
C493 C 0.54053 0.94301 0.51372 0.0
C494 C 0.51988 0.87719 0.50003 0.0
C495 C 0.53726 0.86832 0.5163 0.0
C496 C 0.55732 0.89769 0.53094 0.0
C497 C 0.55923 0.93489 0.52932 0.0
C498 C 0.49919 0.84749 0.48375 0.0
C499 C 0.57595 0.88941 0.54859 0.0
C500 C 0.49864 0.75986 0.53134 0.0
C501 C 0.52883 0.75311 0.52433 0.0
C502 C 0.50054 0.79682 0.52841 0.0
C503 C 0.53363 0.82809 0.51839 0.0
C504 C 0.56385 0.82124 0.51099 0.0
C505 C 0.56109 0.78397 0.51404 0.0
C506 C 0.4672 0.8025 0.53614 0.0
C507 C 0.59911 0.85328 0.49978 0.0
H508 H 0.50681 0.92033 0.48696 0.0
H509 H 0.57403 0.95704 0.54068 0.0
H510 H 0.5171 0.83382 0.47913 0.0
H511 H 0.47007 0.82317 0.48918 0.0
H512 H 0.49367 0.86141 0.47063 0.0
H513 H 0.58986 0.915 0.55886 0.0
H514 H 0.55295 0.86294 0.55675 0.0
H515 H 0.59907 0.88243 0.54367 0.0
H516 H 0.47321 0.73603 0.53895 0.0
H517 H 0.58465 0.77919 0.50858 0.0
H518 H 0.45383 0.81101 0.52389 0.0
H519 H 0.4792 0.82717 0.54693 0.0
H520 H 0.44327 0.77518 0.54337 0.0
H521 H 0.5886 0.86145 0.48625 0.0
H522 H 0.62067 0.84367 0.49547 0.0
H523 H 0.61492 0.88054 0.50885 0.0
C524 C 0.71257 0.57652 0.82618 0.0
C525 C 0.69718 0.58646 0.84245 0.0
C526 C 0.74733 0.57355 0.8279 0.0
C527 C 0.76696 0.58052 0.84638 0.0
C528 C 0.75165 0.59124 0.86274 0.0
C529 C 0.71684 0.59383 0.86059 0.0
C530 C 0.76221 0.56165 0.81012 0.0
C531 C 0.77173 0.59939 0.88263 0.0
C532 C 0.8337 0.53649 0.85853 0.0
C533 C 0.87201 0.56927 0.85546 0.0
C534 C 0.79929 0.53941 0.85512 0.0
C535 C 0.80315 0.57619 0.84882 0.0
C536 C 0.84176 0.6093 0.84566 0.0
C537 C 0.87557 0.60538 0.8489 0.0
C538 C 0.75874 0.50313 0.85831 0.0
C539 C 0.8474 0.64905 0.83899 0.0
H540 H 0.69679 0.57001 0.81225 0.0
H541 H 0.70445 0.60087 0.87324 0.0
H542 H 0.79457 0.58235 0.80791 0.0
H543 H 0.75807 0.53147 0.81257 0.0
H544 H 0.74614 0.56124 0.79645 0.0
H545 H 0.75624 0.60755 0.89384 0.0
H546 H 0.7726 0.57268 0.88794 0.0
H547 H 0.80305 0.62402 0.88133 0.0
H548 H 0.83063 0.50834 0.86331 0.0
H549 H 0.90502 0.63094 0.84659 0.0
H550 H 0.74053 0.49667 0.84473 0.0
H551 H 0.74273 0.50893 0.87022 0.0
H552 H 0.76067 0.47632 0.86237 0.0
H553 H 0.83302 0.6459 0.82443 0.0
H554 H 0.87939 0.67219 0.83772 0.0
H555 H 0.83276 0.65948 0.84953 0.0
C556 C 0.1861 0.63799 0.17187 0.0
C557 C 0.1501 0.63656 0.17674 0.0
C558 C 0.22293 0.67346 0.17334 0.0
C559 C 0.224 0.70856 0.17993 0.0
C560 C 0.1877 0.70766 0.18421 0.0
C561 C 0.15122 0.6717 0.18261 0.0
C562 C 0.26069 0.6729 0.16843 0.0
C563 C 0.18749 0.74464 0.19083 0.0
C564 C 0.31747 0.78813 0.20564 0.0
C565 C 0.33527 0.8176 0.19095 0.0
C566 C 0.28167 0.7524 0.20212 0.0
C567 C 0.26303 0.74567 0.18343 0.0
C568 C 0.28115 0.77485 0.16839 0.0
C569 C 0.31682 0.81044 0.17235 0.0
C570 C 0.26361 0.72183 0.21848 0.0
C571 C 0.26299 0.76841 0.14807 0.0
H572 H 0.18575 0.6111 0.16726 0.0
H573 H 0.12364 0.67103 0.18622 0.0
H574 H 0.28039 0.69858 0.15883 0.0
H575 H 0.27735 0.67554 0.18219 0.0
H576 H 0.25447 0.64499 0.16093 0.0
H577 H 0.15686 0.73907 0.19365 0.0
H578 H 0.20529 0.75612 0.20452 0.0
H579 H 0.20166 0.76831 0.17941 0.0
H580 H 0.33176 0.79277 0.21989 0.0
H581 H 0.32996 0.83295 0.16087 0.0
H582 H 0.26094 0.69328 0.21372 0.0
H583 H 0.23307 0.71594 0.22182 0.0
H584 H 0.28161 0.73155 0.2322 0.0
H585 H 0.26325 0.74278 0.14104 0.0
H586 H 0.27936 0.79496 0.13835 0.0
H587 H 0.2314 0.76097 0.14905 0.0
C588 C 0.49272 0.15728 0.52116 0.0
C589 C 0.51849 0.15416 0.50777 0.0
C590 C 0.49497 0.19418 0.5246 0.0
C591 C 0.52258 0.22851 0.51383 0.0
C592 C 0.54784 0.22508 0.49982 0.0
C593 C 0.54612 0.18819 0.49732 0.0
C594 C 0.46875 0.19674 0.54027 0.0
C595 C 0.57743 0.26058 0.48784 0.0
C596 C 0.49897 0.31311 0.51188 0.0
C597 C 0.52527 0.33991 0.52596 0.0
C598 C 0.49877 0.2776 0.50737 0.0
C599 C 0.52498 0.26787 0.51737 0.0
C600 C 0.55222 0.29509 0.53129 0.0
C601 C 0.55198 0.33059 0.53541 0.0
C602 C 0.47017 0.25026 0.49196 0.0
C603 C 0.58084 0.28637 0.54244 0.0
H604 H 0.47219 0.13125 0.52969 0.0
H605 H 0.56659 0.18594 0.48724 0.0
H606 H 0.48748 0.21951 0.55131 0.0
H607 H 0.4487 0.2063 0.53357 0.0
H608 H 0.45026 0.16785 0.54803 0.0
H609 H 0.5914 0.25201 0.476 0.0
H610 H 0.56264 0.27597 0.48105 0.0
H611 H 0.60137 0.28221 0.49763 0.0
H612 H 0.47785 0.31947 0.50456 0.0
H613 H 0.57299 0.35118 0.54602 0.0
H614 H 0.4479 0.22175 0.49894 0.0
H615 H 0.48653 0.24316 0.48077 0.0
H616 H 0.45406 0.26352 0.48435 0.0
H617 H 0.56485 0.26627 0.55504 0.0
H618 H 0.60647 0.314 0.54836 0.0
H619 H 0.59259 0.27122 0.53307 0.0
C620 C 0.43406 0.53872 0.86006 0.0
C621 C 0.46429 0.56524 0.8473 0.0
C622 C 0.39824 0.5395 0.86206 0.0
C623 C 0.39201 0.56682 0.85071 0.0
C624 C 0.42206 0.59294 0.83739 0.0
C625 C 0.45792 0.59213 0.83603 0.0
C626 C 0.36729 0.51155 0.87663 0.0
C627 C 0.41668 0.62222 0.8248 0.0
C628 C 0.28353 0.54143 0.84608 0.0
C629 C 0.28069 0.5656 0.86062 0.0
C630 C 0.31986 0.54269 0.84215 0.0
C631 C 0.35432 0.56836 0.85316 0.0
C632 C 0.35207 0.59387 0.86732 0.0
C633 C 0.31542 0.59216 0.87087 0.0
C634 C 0.32114 0.51589 0.82649 0.0
C635 C 0.38804 0.62208 0.87928 0.0
H636 H 0.43885 0.51809 0.86893 0.0
H637 H 0.48105 0.61265 0.82604 0.0
H638 H 0.36097 0.52888 0.88754 0.0
H639 H 0.33896 0.49183 0.86885 0.0
H640 H 0.37692 0.4927 0.88466 0.0
H641 H 0.4411 0.63767 0.81385 0.0
H642 H 0.38783 0.60679 0.81683 0.0
H643 H 0.41598 0.64501 0.83432 0.0
H644 H 0.25707 0.52064 0.83806 0.0
H645 H 0.31401 0.61173 0.88177 0.0
H646 H 0.32676 0.49315 0.83344 0.0
H647 H 0.34601 0.53342 0.81605 0.0
H648 H 0.29287 0.50037 0.81801 0.0
H649 H 0.39427 0.60478 0.89042 0.0
H650 H 0.38333 0.6445 0.88708 0.0
H651 H 0.41488 0.63798 0.8698 0.0
C652 C 0.93442 0.37438 0.1887 0.0
C653 C 0.93896 0.40346 0.17491 0.0
C654 C 0.89691 0.34013 0.19197 0.0
C655 C 0.86347 0.33408 0.18065 0.0
C656 C 0.86842 0.3628 0.16617 0.0
C657 C 0.90584 0.39748 0.16379 0.0
C658 C 0.89274 0.31109 0.20802 0.0
C659 C 0.83397 0.35742 0.1535 0.0
C660 C 0.77537 0.22789 0.17801 0.0
C661 C 0.7479 0.22882 0.19122 0.0
C662 C 0.81264 0.26191 0.17426 0.0
C663 C 0.82331 0.29797 0.18411 0.0
C664 C 0.79571 0.29926 0.19739 0.0
C665 C 0.7585 0.26475 0.20081 0.0
C666 C 0.84062 0.25926 0.15968 0.0
C667 C 0.80565 0.33686 0.20835 0.0
H668 H 0.95973 0.37944 0.19768 0.0
H669 H 0.90917 0.42021 0.1533 0.0
H670 H 0.8694 0.3074 0.21867 0.0
H671 H 0.88307 0.28142 0.20157 0.0
H672 H 0.92106 0.32094 0.21615 0.0
H673 H 0.84353 0.3805 0.14173 0.0
H674 H 0.81933 0.3276 0.14654 0.0
H675 H 0.8113 0.35904 0.1628 0.0
H676 H 0.7679 0.20028 0.17067 0.0
H677 H 0.73747 0.26609 0.21084 0.0
H678 H 0.86829 0.26471 0.16727 0.0
H679 H 0.84935 0.2826 0.14812 0.0
H680 H 0.82708 0.22972 0.15244 0.0
H681 H 0.82766 0.34179 0.22007 0.0
H682 H 0.77888 0.33511 0.21533 0.0
H683 H 0.81937 0.36319 0.19838 0.0
C684 C 0.04285 0.55838 0.10549 0.0
C685 C 0.05159 0.53556 0.11861 0.0
C686 C 0.04712 0.55683 0.08506 0.0
C687 C 0.0613 0.53238 0.07733 0.0
C688 C 0.07082 0.50964 0.09048 0.0
C689 C 0.06543 0.51115 0.111 0.0
C690 C 0.03554 0.58082 0.07172 0.0
C691 C 0.08701 0.48406 0.08286 0.0
C692 C 0.03088 0.5023 0.02409 0.0
C693 C 0.06391 0.53159 0.01355 0.0
C694 C 0.03044 0.50109 0.0448 0.0
C695 C 0.06407 0.52955 0.05543 0.0
C696 C 0.0984 0.55787 0.04492 0.0
C697 C 0.09791 0.5586 0.02412 0.0
C698 C 0.99307 0.47056 0.05529 0.0
C699 C 0.13488 0.5888 0.05565 0.0
H700 H 0.03192 0.57721 0.11119 0.0
H701 H 0.07263 0.49382 0.12108 0.0
H702 H 0.06062 0.6002 0.06176 0.0
H703 H 1.01003 0.56041 0.06232 0.0
H704 H 0.02687 0.59984 0.08012 0.0
H705 H 0.09191 0.4673 0.09487 0.0
H706 H 0.06623 0.46255 0.07191 0.0
H707 H 0.11578 0.50311 0.07519 0.0
H708 H 1.00474 0.48077 0.01609 0.0
H709 H 0.12349 0.58149 0.01619 0.0
H710 H 0.97957 0.48582 0.06328 0.0
H711 H 1.00037 0.45404 0.06641 0.0
H712 H 0.97052 0.44881 0.04496 0.0
H713 H 0.12839 0.611 0.06233 0.0
H714 H 0.16093 0.60477 0.04564 0.0
H715 H 0.14294 0.57484 0.06781 0.0
C716 C 0.51516 0.05605 0.44363 0.0
C717 C 0.54008 0.04437 0.45298 0.0
C718 C 0.51118 0.05458 0.4229 0.0
C719 C 0.5323 0.04076 0.41135 0.0
C720 C 0.55643 0.02777 0.42089 0.0
C721 C 0.56007 0.02986 0.4415 0.0
C722 C 0.48505 0.06854 0.41333 0.0
C723 C 0.57951 0.0128 0.40929 0.0
C724 C 0.5024 1.00598 0.35835 0.0
C725 C 0.53091 0.03884 0.34742 0.0
C726 C 0.50179 1.00658 0.3791 0.0
C727 C 0.53039 0.04084 0.38929 0.0
C728 C 0.55889 0.0743 0.37835 0.0
C729 C 0.55875 0.07294 0.35762 0.0
C730 C 0.47118 0.97009 0.39015 0.0
C731 C 0.58988 0.11149 0.38857 0.0
H732 H 0.49968 0.06735 0.45243 0.0
H733 H 0.57922 0.02058 0.44865 0.0
H734 H 0.50306 0.0937 0.4031 0.0
H735 H 0.46155 0.04417 0.40443 0.0
H736 H 0.47055 0.07834 0.42431 0.0
H737 H 0.59405 1.00054 0.41897 0.0
H738 H 0.55954 0.98929 0.39887 0.0
H739 H 0.60293 0.03761 0.40041 0.0
H740 H 0.48108 0.97928 0.35069 0.0
H741 H 0.58048 0.09875 0.34936 0.0
H742 H 0.45428 0.97824 0.40048 0.0
H743 H 0.48637 0.95754 0.39912 0.0
H744 H 0.44975 0.94659 0.3801 0.0
H745 H 0.57497 0.12448 0.39726 0.0
H746 H 0.61087 0.1344 0.37801 0.0
H747 H 0.60731 0.10408 0.39905 0.0
C748 C 0.53792 0.57256 0.77684 0.0
C749 C 0.56882 0.57053 0.78655 0.0
C750 C 0.5376 0.5758 0.7562 0.0
C751 C 0.56803 0.57516 0.7449 0.0
C752 C 0.60007 0.57443 0.75475 0.0
C753 C 0.60041 0.57276 0.77551 0.0
C754 C 0.50374 0.57823 0.74648 0.0
C755 C 0.63299 0.57351 0.74331 0.0
C756 C 0.53761 0.53208 0.69319 0.0
C757 C 0.55454 0.56645 0.68128 0.0
C758 C 0.54243 0.53456 0.71382 0.0
C759 C 0.56465 0.57232 0.72289 0.0
C760 C 0.58235 0.60708 0.71095 0.0
C761 C 0.5772 0.60372 0.69037 0.0
C762 C 0.52317 0.49671 0.72598 0.0
C763 C 0.60566 0.64798 0.71991 0.0
H764 H 0.51353 0.57089 0.78544 0.0
H765 H 0.62412 0.5708 0.78305 0.0
H766 H 0.5153 0.60198 0.73501 0.0
H767 H 0.48363 0.54964 0.73908 0.0
H768 H 0.48597 0.58435 0.75728 0.0
H769 H 0.65561 0.5727 0.75312 0.0
H770 H 0.62019 0.54692 0.73369 0.0
H771 H 0.64811 0.60012 0.73358 0.0
H772 H 0.51968 0.5032 0.68645 0.0
H773 H 0.59096 0.63051 0.68136 0.0
H774 H 0.50042 0.49663 0.73593 0.0
H775 H 0.54585 0.49517 0.73541 0.0
H776 H 0.50853 0.46962 0.7167 0.0
H777 H 0.58491 0.65491 0.72792 0.0
H778 H 0.62174 0.67153 0.70859 0.0
H779 H 0.6276 0.64904 0.73079 0.0
C780 C 0.50569 0.06673 0.5801 0.0
C781 C 0.52495 0.0533 0.56743 0.0
C782 C 0.51151 0.06788 0.60056 0.0
C783 C 0.53726 0.05528 0.60853 0.0
C784 C 0.55785 0.04292 0.59573 0.0
C785 C 0.5515 0.04216 0.57528 0.0
C786 C 0.48919 0.08146 0.61368 0.0
C787 C 0.58535 0.02903 0.60368 0.0
C788 C 0.57136 0.08213 0.66173 0.0
C789 C 0.5452 0.04663 0.67164 0.0
C790 C 0.56946 0.08534 0.64113 0.0
C791 C 0.54042 0.05245 0.6303 0.0
C792 C 0.51365 0.01675 0.64031 0.0
C793 C 0.51645 0.01428 0.66082 0.0
C794 C 0.59872 0.12373 0.63093 0.0
C795 C 0.48178 0.98122 0.62937 0.0
H796 H 0.48534 0.07564 0.57404 0.0
H797 H 0.56642 0.03173 0.56551 0.0
H798 H 0.46952 0.05706 0.62393 0.0
H799 H 0.51055 0.1069 0.62279 0.0
H800 H 0.47063 0.09072 0.60512 0.0
H801 H 0.60216 0.02428 0.59177 0.0
H802 H 0.60693 0.05103 0.61423 0.0
H803 H 0.56765 1.00055 0.61185 0.0
H804 H 0.59383 0.10708 0.67004 0.0
H805 H 0.4958 0.98699 0.66848 0.0
H806 H 0.58245 0.13619 0.62282 0.0
H807 H 0.61629 0.11788 0.61992 0.0
H808 H 0.61965 0.14645 0.64145 0.0
H809 H 0.4609 0.98922 0.62222 0.0
H810 H 0.46439 0.95516 0.63925 0.0
H811 H 0.49543 0.97234 0.61754 0.0
C812 C 0.61748 0.59217 0.91393 0.0
C813 C 0.58548 0.5785 0.90076 0.0
C814 C 0.61099 0.58319 0.93413 0.0
C815 C 0.57147 0.56047 0.94138 0.0
C816 C 0.53897 0.54693 0.92813 0.0
C817 C 0.54638 0.55578 0.90791 0.0
C818 C 0.6465 0.59762 0.94769 0.0
C819 C 0.49643 0.52347 0.93535 0.0
C820 C 0.56254 0.50695 0.98975 0.0
C821 C 0.56192 0.53344 1.0035 0.0
C822 C 0.56375 0.51451 0.96945 0.0
C823 C 0.5646 0.54958 0.96269 0.0
C824 C 0.56204 0.57553 0.97648 0.0
C825 C 0.56062 0.56707 0.99676 0.0
C826 C 0.56583 0.48577 0.95526 0.0
C827 C 0.56284 0.61321 0.96988 0.0
H828 H 0.64771 0.60966 0.90838 0.0
H829 H 0.52155 0.54556 0.89776 0.0
H830 H 0.64427 0.61556 0.95977 0.0
H831 H 0.64682 0.57173 0.9546 0.0
H832 H 0.67523 0.616 0.93983 0.0
H833 H 0.47455 0.51391 0.92308 0.0
H834 H 0.49168 0.49669 0.94367 0.0
H835 H 0.49034 0.54193 0.94564 0.0
H836 H 0.56289 0.4806 0.99494 0.0
H837 H 0.56028 0.58769 1.00737 0.0
H838 H 0.59513 0.50057 0.94762 0.0
H839 H 0.54246 0.4768 0.94379 0.0
H840 H 0.56203 0.45852 0.9628 0.0
H841 H 0.59315 0.63493 0.96445 0.0
H842 H 0.55512 0.6272 0.98204 0.0
H843 H 0.54179 0.60705 0.9575 0.0
C844 C 0.06803 0.54939 0.24255 0.0
C845 C 0.03695 0.51612 0.23332 0.0
C846 C 0.06674 0.55536 0.26286 0.0
C847 C 0.03288 0.52813 0.27393 0.0
C848 C 1.00066 0.49541 0.26438 0.0
C849 C 1.00351 0.48932 0.24422 0.0
C850 C 0.10233 0.58963 0.27261 0.0
C851 C 0.96338 0.46665 0.27551 0.0
C852 C 0.03847 0.51137 0.32869 0.0
C853 C 0.02269 0.53367 0.33677 0.0
C854 C 0.04371 0.51087 0.30828 0.0
C855 C 0.0318 0.53234 0.29566 0.0
C856 C 0.01674 0.55575 0.30385 0.0
C857 C 1.01285 0.55654 0.32441 0.0
C858 C 0.06079 0.48634 0.30019 0.0
C859 C 1.00337 0.57871 0.29087 0.0
H860 H 0.0941 0.56981 0.23402 0.0
H861 H 0.97949 0.46374 0.23692 0.0
H862 H 0.09294 0.60736 0.28154 0.0
H863 H 0.11646 0.57781 0.28282 0.0
H864 H 0.12505 0.6097 0.26172 0.0
H865 H 0.94029 0.44397 0.2657 0.0
H866 H 0.97073 0.45106 0.28712 0.0
H867 H 0.95063 0.48317 0.28297 0.0
H868 H 0.04611 0.4938 0.33838 0.0
H869 H 1.00045 0.57359 0.33078 0.0
H870 H 0.08563 0.50451 0.28985 0.0
H871 H 0.03753 0.46083 0.29177 0.0
H872 H 0.07199 0.47451 0.31203 0.0
H873 H 0.02908 0.60174 0.28233 0.0
H874 H 0.99024 0.59359 0.29951 0.0
H875 H 0.98091 0.55843 0.28009 0.0
loop_
_geom_bond_atom_site_label_1
_geom_bond_atom_site_label_2
_geom_bond_distance
_geom_bond_site_symmetry_2
_ccdc_geom_bond_type
Dy0 O4 2.398 . S
Dy0 O5 2.491 . S
Dy0 O6 2.403 . S
Dy0 O7 2.664 . S
Dy0 O11 2.326 . S
Dy0 O15 2.310 . S
Dy0 O16 2.351 1_455 S
C1 O12 1.185 . S
C1 O13 1.355 . S
C2 O4 1.185 . S
C2 O5 1.355 . S
Dy3 O7 2.310 1_655 S
Dy3 O10 2.351 1_655 S
Dy3 O12 2.398 . S
Dy3 O13 2.491 . S
Dy3 O14 2.403 1_655 S
Dy3 O15 2.664 1_655 S
Dy3 O17 2.326 . S
O4 Dy0 2.398 . S
O4 C2 1.185 . S
O5 Dy0 2.491 . S
O5 C2 1.355 . S
O6 Dy0 2.403 . S
O6 C8 1.254 . S
O7 Dy0 2.664 . S
O7 Dy3 2.310 1_455 S
O7 C8 1.268 . S
C8 O6 1.254 . S
C8 O7 1.268 . S
C9 O14 1.254 . S
C9 O15 1.268 . S
O10 Dy3 2.351 1_455 S
O10 C18 1.249 . S
O11 Dy0 2.326 . S
O11 C18 1.267 . S
O12 C1 1.185 . S
O12 Dy3 2.398 . S
O13 C1 1.355 . S
O13 Dy3 2.491 . S
O14 Dy3 2.403 1_455 S
O14 C9 1.254 . S
O15 Dy0 2.310 . S
O15 Dy3 2.664 1_455 S
O15 C9 1.268 . S
O16 Dy0 2.351 1_655 S
O16 C19 1.249 . S
O17 Dy3 2.326 . S
O17 C19 1.267 . S
C18 O10 1.249 . S
C18 O11 1.267 . S
C19 O16 1.249 . S
C19 O17 1.267 . S
Dy20 O24 2.398 1_545 S
Dy20 O25 2.491 1_545 S
Dy20 O26 2.403 . S
Dy20 O27 2.664 . S
Dy20 O31 2.326 1_545 S
Dy20 O35 2.310 . S
Dy20 O36 2.351 . S
C21 O32 1.185 . S
C21 O33 1.355 . S
C22 O24 1.185 . S
C22 O25 1.355 . S
Dy23 O27 2.310 . S
Dy23 O30 2.351 1_545 S
Dy23 O32 2.398 . S
Dy23 O33 2.491 . S
Dy23 O34 2.403 . S
Dy23 O35 2.664 . S
Dy23 O37 2.326 . S
O24 Dy20 2.398 1_565 S
O24 C22 1.185 . S
O25 Dy20 2.491 1_565 S
O25 C22 1.355 . S
O26 Dy20 2.403 . S
O26 C28 1.254 . S
O27 Dy20 2.664 . S
O27 Dy23 2.310 . S
O27 C28 1.268 . S
C28 O26 1.254 . S
C28 O27 1.268 . S
C29 O34 1.254 . S
C29 O35 1.268 . S
O30 Dy23 2.351 1_565 S
O30 C38 1.249 . S
O31 Dy20 2.326 1_565 S
O31 C38 1.267 . S
O32 C21 1.185 . S
O32 Dy23 2.398 . S
O33 C21 1.355 . S
O33 Dy23 2.491 . S
O34 Dy23 2.403 . S
O34 C29 1.254 . S
O35 Dy20 2.310 . S
O35 Dy23 2.664 . S
O35 C29 1.268 . S
O36 Dy20 2.351 . S
O36 C39 1.249 . S
O37 Dy23 2.326 . S
O37 C39 1.267 . S
C38 O30 1.249 . S
C38 O31 1.267 . S
C39 O36 1.249 . S
C39 O37 1.267 . S
Dy40 O44 2.398 . S
Dy40 O45 2.491 . S
Dy40 O46 2.403 . S
Dy40 O47 2.664 . S
Dy40 O51 2.326 . S
Dy40 O55 2.310 . S
Dy40 O56 2.351 . S
C41 O52 1.185 . S
C41 O53 1.355 . S
C42 O44 1.185 . S
C42 O45 1.355 . S
Dy43 O47 2.310 . S
Dy43 O50 2.351 . S
Dy43 O52 2.398 . S
Dy43 O53 2.491 . S
Dy43 O54 2.403 . S
Dy43 O55 2.664 . S
Dy43 O57 2.326 . S
O44 Dy40 2.398 . S
O44 C42 1.185 . S
O45 Dy40 2.491 . S
O45 C42 1.355 . S
O46 Dy40 2.403 . S
O46 C48 1.254 . S
O47 Dy40 2.664 . S
O47 Dy43 2.310 . S
O47 C48 1.268 . S
C48 O46 1.254 . S
C48 O47 1.268 . S
C49 O54 1.254 . S
C49 O55 1.268 . S
O50 Dy43 2.351 . S
O50 C58 1.249 . S
O51 Dy40 2.326 . S
O51 C58 1.267 . S
O52 C41 1.185 . S
O52 Dy43 2.398 . S
O53 C41 1.355 . S
O53 Dy43 2.491 . S
O54 Dy43 2.403 . S
O54 C49 1.254 . S
O55 Dy40 2.310 . S
O55 Dy43 2.664 . S
O55 C49 1.268 . S
O56 Dy40 2.351 . S
O56 C59 1.249 . S
O57 Dy43 2.326 . S
O57 C59 1.267 . S
C58 O50 1.249 . S
C58 O51 1.267 . S
C59 O56 1.249 . S
C59 O57 1.267 . S
C60 C61 1.264 . S
C60 C65 1.479 . S
C60 C70 1.465 . S
C61 C60 1.264 . S
C61 C63 1.339 . S
C61 H88 0.931 . S
C62 C63 1.395 . S
C62 C64 1.320 . S
C63 C61 1.339 . S
C63 C62 1.395 . S
C63 H89 0.929 . S
C64 C62 1.320 . S
C64 C65 1.405 . S
C64 H90 0.930 . S
C65 C60 1.479 . S
C65 C64 1.405 . S
C65 H91 0.931 . S
U66 O67 2.454 1_545 S
U66 O68 2.458 1_545 S
U66 C69 2.984 1_545 S
U66 C70 2.847 . S
U66 C83 2.882 . S
U66 O84 2.441 . S
U66 O85 2.420 . S
U66 O86 2.455 1_545 S
U66 O87 2.449 . S
O67 U66 2.454 1_565 S
O67 C69 1.353 . S
O68 U66 2.458 1_565 S
O68 C69 1.286 . S
C69 U66 2.984 1_565 S
C69 O67 1.353 . S
C69 O68 1.286 . S
C69 C71 1.363 . S
C70 C60 1.465 . S
C70 U66 2.847 . S
C70 O84 1.249 . S
C70 O85 1.202 . S
C71 C69 1.363 . S
C71 C73 1.408 . S
C71 C76 1.342 . S
C72 C73 1.310 . S
C72 C75 1.461 . S
C72 H92 0.932 . S
C73 C71 1.408 . S
C73 C72 1.310 . S
C73 H93 0.930 . S
C74 C75 1.474 . S
C74 C76 1.285 . S
C74 H94 0.929 . S
C75 C72 1.461 . S
C75 C74 1.474 . S
C76 C71 1.342 . S
C76 C74 1.285 . S
C76 H95 0.930 . S
C77 C80 1.424 . S
C77 C82 1.245 1_545 S
C77 C83 1.428 . S
C78 C81 1.260 . S
C78 C82 1.477 1_545 S
C78 H96 0.932 1_545 S
C79 C80 1.384 . S
C79 C81 1.479 . S
C79 H97 0.929 . S
C80 C77 1.424 . S
C80 C79 1.384 . S
C80 H98 0.928 . S
C81 C78 1.260 . S
C81 C79 1.479 . S
C82 C77 1.245 1_565 S
C82 C78 1.477 1_565 S
C82 H99 0.932 . S
C83 U66 2.882 . S
C83 C77 1.428 . S
C83 O86 1.301 1_545 S
C83 O87 1.282 . S
O84 U66 2.441 . S
O84 C70 1.249 . S
O85 U66 2.420 . S
O85 C70 1.202 . S
O86 U66 2.455 1_565 S
O86 C83 1.301 1_565 S
O87 U66 2.449 . S
O87 C83 1.282 . S
H88 C61 0.931 . S
H89 C63 0.929 . S
H90 C64 0.930 . S
H91 C65 0.931 . S
H92 C72 0.932 . S
H93 C73 0.930 . S
H94 C74 0.929 . S
H95 C76 0.930 . S
H96 C78 0.932 1_565 S
H97 C79 0.929 . S
H98 C80 0.928 . S
H99 C82 0.932 . S
C100 C101 1.264 . S
C100 C105 1.479 . S
C100 C110 1.465 . S
C101 C100 1.264 . S
C101 C103 1.339 . S
C101 H128 0.931 . S
C102 C103 1.395 . S
C102 C104 1.320 . S
C103 C101 1.339 . S
C103 C102 1.395 . S
C103 H129 0.929 . S
C104 C102 1.320 . S
C104 C105 1.405 . S
C104 H130 0.930 . S
C105 C100 1.479 . S
C105 C104 1.405 . S
C105 H131 0.931 . S
U106 O107 2.454 . S
U106 O108 2.458 . S
U106 C109 2.984 . S
U106 C110 2.847 . S
U106 C123 2.882 . S
U106 O124 2.441 . S
U106 O125 2.420 . S
U106 O126 2.455 . S
U106 O127 2.449 . S
O107 U106 2.454 . S
O107 C109 1.353 . S
O108 U106 2.458 . S
O108 C109 1.286 . S
C109 U106 2.984 . S
C109 O107 1.353 . S
C109 O108 1.286 . S
C109 C111 1.363 . S
C110 C100 1.465 . S
C110 U106 2.847 . S
C110 O124 1.249 . S
C110 O125 1.202 . S
C111 C109 1.363 . S
C111 C113 1.408 . S
C111 C116 1.342 . S
C112 C113 1.310 . S
C112 C115 1.461 . S
C112 H132 0.932 . S
C113 C111 1.408 . S
C113 C112 1.310 . S
C113 H133 0.930 . S
C114 C115 1.474 . S
C114 C116 1.285 . S
C114 H134 0.929 . S
C115 C112 1.461 . S
C115 C114 1.474 . S
C116 C111 1.342 . S
C116 C114 1.285 . S
C116 H135 0.930 . S
C117 C120 1.424 . S
C117 C122 1.245 . S
C117 C123 1.428 . S
C118 C121 1.260 . S
C118 C122 1.477 . S
C118 H136 0.932 . S
C119 C120 1.384 . S
C119 C121 1.479 . S
C119 H137 0.929 . S
C120 C117 1.424 . S
C120 C119 1.384 . S
C120 H138 0.928 . S
C121 C118 1.260 . S
C121 C119 1.479 . S
C122 C117 1.245 . S
C122 C118 1.477 . S
C122 H139 0.932 . S
C123 U106 2.882 . S
C123 C117 1.428 . S
C123 O126 1.301 . S
C123 O127 1.282 . S
O124 U106 2.441 . S
O124 C110 1.249 . S
O125 U106 2.420 . S
O125 C110 1.202 . S
O126 U106 2.455 . S
O126 C123 1.301 . S
O127 U106 2.449 . S
O127 C123 1.282 . S
H128 C101 0.931 . S
H129 C103 0.929 . S
H130 C104 0.930 . S
H131 C105 0.931 . S
H132 C112 0.932 . S
H133 C113 0.930 . S
H134 C114 0.929 . S
H135 C116 0.930 . S
H136 C118 0.932 . S
H137 C119 0.929 . S
H138 C120 0.928 . S
H139 C122 0.932 . S
C140 C141 1.264 . S
C140 C145 1.479 . S
C140 C150 1.465 . S
C141 C140 1.264 . S
C141 C143 1.339 . S
C141 H168 0.931 . S
C142 C143 1.395 . S
C142 C144 1.320 . S
C143 C141 1.339 . S
C143 C142 1.395 . S
C143 H169 0.929 . S
C144 C142 1.320 . S
C144 C145 1.405 . S
C144 H170 0.930 . S
C145 C140 1.479 . S
C145 C144 1.405 . S
C145 H171 0.931 . S
U146 O147 2.454 . S
U146 O148 2.458 . S
U146 C149 2.984 . S
U146 C150 2.847 1_455 S
U146 C163 2.882 . S
U146 O164 2.441 . S
U146 O165 2.420 1_455 S
U146 O166 2.455 . S
U146 O167 2.449 . S
O147 U146 2.454 . S
O147 C149 1.353 . S
O148 U146 2.458 . S
O148 C149 1.286 . S
C149 U146 2.984 . S
C149 O147 1.353 . S
C149 O148 1.286 . S
C149 C151 1.363 . S
C150 C140 1.465 . S
C150 U146 2.847 1_655 S
C150 O164 1.249 1_655 S
C150 O165 1.202 . S
C151 C149 1.363 . S
C151 C153 1.408 . S
C151 C156 1.342 . S
C152 C153 1.310 . S
C152 C155 1.461 . S
C152 H172 0.932 . S
C153 C151 1.408 . S
C153 C152 1.310 . S
C153 H173 0.930 . S
C154 C155 1.474 . S
C154 C156 1.285 . S
C154 H174 0.929 . S
C155 C152 1.461 . S
C155 C154 1.474 . S
C156 C151 1.342 . S
C156 C154 1.285 . S
C156 H175 0.930 . S
C157 C160 1.424 . S
C157 C162 1.245 . S
C157 C163 1.428 . S
C158 C161 1.260 . S
C158 C162 1.477 . S
C158 H176 0.932 . S
C159 C160 1.384 . S
C159 C161 1.479 . S
C159 H177 0.929 1_455 S
C160 C157 1.424 . S
C160 C159 1.384 . S
C160 H178 0.928 1_455 S
C161 C158 1.260 . S
C161 C159 1.479 . S
C162 C157 1.245 . S
C162 C158 1.477 . S
C162 H179 0.932 . S
C163 U146 2.882 . S
C163 C157 1.428 . S
C163 O166 1.301 . S
C163 O167 1.282 . S
O164 U146 2.441 . S
O164 C150 1.249 1_455 S
O165 U146 2.420 1_655 S
O165 C150 1.202 . S
O166 U146 2.455 . S
O166 C163 1.301 . S
O167 U146 2.449 . S
O167 C163 1.282 . S
H168 C141 0.931 . S
H169 C143 0.929 . S
H170 C144 0.930 . S
H171 C145 0.931 . S
H172 C152 0.932 . S
H173 C153 0.930 . S
H174 C154 0.929 . S
H175 C156 0.930 . S
H176 C158 0.932 . S
H177 C159 0.929 1_655 S
H178 C160 0.928 1_655 S
H179 C162 0.932 . S
C180 C181 1.264 . S
C180 C185 1.479 . S
C180 C190 1.465 . S
C181 C180 1.264 . S
C181 C183 1.339 . S
C181 H208 0.931 . S
C182 C183 1.395 . S
C182 C184 1.320 . S
C183 C181 1.339 . S
C183 C182 1.395 . S
C183 H209 0.929 . S
C184 C182 1.320 . S
C184 C185 1.405 . S
C184 H210 0.930 . S
C185 C180 1.479 . S
C185 C184 1.405 . S
C185 H211 0.931 . S
U186 O187 2.454 1_655 S
U186 O188 2.458 1_655 S
U186 C189 2.984 1_655 S
U186 C190 2.847 . S
U186 C203 2.882 . S
U186 O204 2.441 . S
U186 O205 2.420 . S
U186 O206 2.455 1_655 S
U186 O207 2.449 . S
O187 U186 2.454 1_455 S
O187 C189 1.353 . S
O188 U186 2.458 1_455 S
O188 C189 1.286 . S
C189 U186 2.984 1_455 S
C189 O187 1.353 . S
C189 O188 1.286 . S
C189 C191 1.363 . S
C190 C180 1.465 . S
C190 U186 2.847 . S
C190 O204 1.249 . S
C190 O205 1.202 . S
C191 C189 1.363 . S
C191 C193 1.408 . S
C191 C196 1.342 . S
C192 C193 1.310 . S
C192 C195 1.461 . S
C192 H212 0.932 . S
C193 C191 1.408 . S
C193 C192 1.310 . S
C193 H213 0.930 . S
C194 C195 1.474 . S
C194 C196 1.285 . S
C194 H214 0.929 . S
C195 C192 1.461 . S
C195 C194 1.474 . S
C196 C191 1.342 . S
C196 C194 1.285 . S
C196 H215 0.930 . S
C197 C200 1.424 1_455 S
C197 C202 1.245 . S
C197 C203 1.428 1_455 S
C198 C201 1.260 . S
C198 C202 1.477 . S
C198 H216 0.932 . S
C199 C200 1.384 . S
C199 C201 1.479 1_655 S
C199 H217 0.929 . S
C200 C197 1.424 1_655 S
C200 C199 1.384 . S
C200 H218 0.928 . S
C201 C198 1.260 . S
C201 C199 1.479 1_455 S
C202 C197 1.245 . S
C202 C198 1.477 . S
C202 H219 0.932 . S
C203 U186 2.882 . S
C203 C197 1.428 1_655 S
C203 O206 1.301 1_655 S
C203 O207 1.282 . S
O204 U186 2.441 . S
O204 C190 1.249 . S
O205 U186 2.420 . S
O205 C190 1.202 . S
O206 U186 2.455 1_455 S
O206 C203 1.301 1_455 S
O207 U186 2.449 . S
O207 C203 1.282 . S
H208 C181 0.931 . S
H209 C183 0.929 . S
H210 C184 0.930 . S
H211 C185 0.931 . S
H212 C192 0.932 . S
H213 C193 0.930 . S
H214 C194 0.929 . S
H215 C196 0.930 . S
H216 C198 0.932 . S
H217 C199 0.929 . S
H218 C200 0.928 . S
H219 C202 0.932 . S
C220 C221 1.264 . S
C220 C225 1.479 . S
C220 C230 1.465 . S
C221 C220 1.264 . S
C221 C223 1.339 . S
C221 H248 0.931 . S
C222 C223 1.395 . S
C222 C224 1.320 . S
C223 C221 1.339 . S
C223 C222 1.395 . S
C223 H249 0.929 . S
C224 C222 1.320 . S
C224 C225 1.405 . S
C224 H250 0.930 . S
C225 C220 1.479 . S
C225 C224 1.405 . S
C225 H251 0.931 . S
U226 O227 2.454 . S
U226 O228 2.458 . S
U226 C229 2.984 . S
U226 C230 2.847 1_545 S
U226 C243 2.882 . S
U226 O244 2.441 . S
U226 O245 2.420 1_545 S
U226 O246 2.455 . S
U226 O247 2.449 . S
O227 U226 2.454 . S
O227 C229 1.353 . S
O228 U226 2.458 . S
O228 C229 1.286 . S
C229 U226 2.984 . S
C229 O227 1.353 . S
C229 O228 1.286 . S
C229 C231 1.363 . S
C230 C220 1.465 . S
C230 U226 2.847 1_565 S
C230 O244 1.249 1_565 S
C230 O245 1.202 . S
C231 C229 1.363 . S
C231 C233 1.408 . S
C231 C236 1.342 . S
C232 C233 1.310 . S
C232 C235 1.461 . S
C232 H252 0.932 . S
C233 C231 1.408 . S
C233 C232 1.310 . S
C233 H253 0.930 . S
C234 C235 1.474 . S
C234 C236 1.285 . S
C234 H254 0.929 . S
C235 C232 1.461 . S
C235 C234 1.474 . S
C236 C231 1.342 . S
C236 C234 1.285 . S
C236 H255 0.930 . S
C237 C240 1.424 . S
C237 C242 1.245 . S
C237 C243 1.428 . S
C238 C241 1.260 . S
C238 C242 1.477 . S
C238 H256 0.932 . S
C239 C240 1.384 . S
C239 C241 1.479 . S
C239 H257 0.929 1_545 S
C240 C237 1.424 . S
C240 C239 1.384 . S
C240 H258 0.953 . S
C241 C238 1.260 . S
C241 C239 1.479 . S
C242 C237 1.245 . S
C242 C238 1.477 . S
C242 H259 0.932 . S
C243 U226 2.882 . S
C243 C237 1.428 . S
C243 O246 1.301 . S
C243 O247 1.282 . S
O244 U226 2.441 . S
O244 C230 1.249 1_545 S
O245 U226 2.420 1_565 S
O245 C230 1.202 . S
O246 U226 2.455 . S
O246 C243 1.301 . S
O247 U226 2.449 . S
O247 C243 1.282 . S
H248 C221 0.931 . S
H249 C223 0.929 . S
H250 C224 0.930 . S
H251 C225 0.931 . S
H252 C232 0.932 . S
H253 C233 0.930 . S
H254 C234 0.929 . S
H255 C236 0.930 . S
H256 C238 0.932 . S
H257 C239 0.929 1_565 S
H258 C240 0.953 . S
H259 C242 0.932 . S
C260 C261 1.264 . S
C260 C265 1.479 . S
C260 C270 1.465 . S
C261 C260 1.264 . S
C261 C263 1.339 . S
C261 H288 0.931 . S
C262 C263 1.395 . S
C262 C264 1.320 . S
C263 C261 1.339 . S
C263 C262 1.395 . S
C263 H289 0.929 . S
C264 C262 1.320 . S
C264 C265 1.405 . S
C264 H290 0.930 . S
C265 C260 1.479 . S
C265 C264 1.405 . S
C265 H291 0.931 . S
U266 O267 2.454 . S
U266 O268 2.458 . S
U266 C269 2.984 . S
U266 C270 2.847 . S
U266 C283 2.882 . S
U266 O284 2.441 . S
U266 O285 2.420 . S
U266 O286 2.455 . S
U266 O287 2.449 . S
O267 U266 2.454 . S
O267 C269 1.353 . S
O268 U266 2.458 . S
O268 C269 1.286 . S
C269 U266 2.984 . S
C269 O267 1.353 . S
C269 O268 1.286 . S
C269 C271 1.363 . S
C270 C260 1.465 . S
C270 U266 2.847 . S
C270 O284 1.249 . S
C270 O285 1.202 . S
C271 C269 1.363 . S
C271 C273 1.408 . S
C271 C276 1.342 . S
C272 C273 1.310 . S
C272 C275 1.461 . S
C272 H292 0.932 . S
C273 C271 1.408 . S
C273 C272 1.310 . S
C273 H293 0.930 . S
C274 C275 1.474 . S
C274 C276 1.285 . S
C274 H294 0.929 . S
C275 C272 1.461 . S
C275 C274 1.474 . S
C276 C271 1.342 . S
C276 C274 1.285 . S
C276 H295 0.930 . S
C277 C280 1.424 . S
C277 C282 1.245 . S
C277 C283 1.428 . S
C278 C281 1.260 . S
C278 C282 1.477 . S
C278 H296 0.932 . S
C279 C280 1.384 . S
C279 C281 1.479 . S
C279 H297 0.929 . S
C280 C277 1.424 . S
C280 C279 1.384 . S
C280 H298 0.928 . S
C281 C278 1.260 . S
C281 C279 1.479 . S
C282 C277 1.245 . S
C282 C278 1.477 . S
C282 H299 0.932 . S
C283 U266 2.882 . S
C283 C277 1.428 . S
C283 O286 1.301 . S
C283 O287 1.282 . S
O284 U266 2.441 . S
O284 C270 1.249 . S
O285 U266 2.420 . S
O285 C270 1.202 . S
O286 U266 2.455 . S
O286 C283 1.301 . S
O287 U266 2.449 . S
O287 C283 1.282 . S
H288 C261 0.931 . S
H289 C263 0.929 . S
H290 C264 0.930 . S
H291 C265 0.931 . S
H292 C272 0.932 . S
H293 C273 0.930 . S
H294 C274 0.929 . S
H295 C276 0.930 . S
H296 C278 0.932 . S
H297 C279 0.929 . S
H298 C280 0.928 . S
H299 C282 0.932 . S
C300 C301 1.391 . S
C300 C302 1.394 . S
C300 H316 0.931 . S
C301 C300 1.391 . S
C301 C305 1.376 . S
C302 C300 1.394 . S
C302 C303 1.369 . S
C302 C306 1.531 . S
C303 C302 1.369 . S
C303 C304 1.410 . S
C303 C311 1.503 . S
C304 C303 1.410 . S
C304 C305 1.392 . S
C304 C307 1.511 . S
C305 C301 1.376 . S
C305 C304 1.392 . S
C305 H317 0.929 . S
C306 C302 1.531 . S
C306 H318 0.960 . S
C306 H319 0.962 . S
C306 H320 0.960 . S
C307 C304 1.511 . S
C307 H321 0.961 . S
C307 H322 0.961 . S
C307 H323 0.961 . S
C308 C309 1.370 . S
C308 C310 1.363 . S
C308 H324 0.931 . S
C309 C308 1.370 . S
C309 C313 1.408 . S
C310 C308 1.363 . S
C310 C311 1.370 . S
C310 C314 1.524 . S
C311 C303 1.503 . S
C311 C310 1.370 . S
C311 C312 1.403 . S
C312 C311 1.403 . S
C312 C313 1.404 . S
C312 C315 1.539 . S
C313 C309 1.408 . S
C313 C312 1.404 . S
C313 H325 0.930 . S
C314 C310 1.524 . S
C314 H326 0.956 . S
C314 H327 0.961 . S
C314 H328 0.961 . S
C315 C312 1.539 . S
C315 H329 0.958 . S
C315 H330 0.961 . S
C315 H331 0.960 . S
H316 C300 0.931 . S
H317 C305 0.929 . S
H318 C306 0.960 . S
H319 C306 0.962 . S
H320 C306 0.960 . S
H321 C307 0.961 . S
H322 C307 0.961 . S
H323 C307 0.961 . S
H324 C308 0.931 . S
H325 C313 0.930 . S
H326 C314 0.956 . S
H327 C314 0.961 . S
H328 C314 0.961 . S
H329 C315 0.958 . S
H330 C315 0.961 . S
H331 C315 0.960 . S
C332 C333 1.391 . S
C332 C334 1.394 . S
C332 H348 0.931 . S
C333 C332 1.391 . S
C333 C337 1.376 . S
C334 C332 1.394 . S
C334 C335 1.369 . S
C334 C338 1.531 . S
C335 C334 1.369 . S
C335 C336 1.410 . S
C335 C343 1.503 . S
C336 C335 1.410 . S
C336 C337 1.392 . S
C336 C339 1.511 . S
C337 C333 1.376 . S
C337 C336 1.392 . S
C337 H349 0.929 . S
C338 C334 1.531 . S
C338 H350 0.960 . S
C338 H351 0.962 . S
C338 H352 0.960 . S
C339 C336 1.511 . S
C339 H353 0.961 . S
C339 H354 0.961 . S
C339 H355 0.961 . S
C340 C341 1.370 . S
C340 C342 1.363 . S
C340 H356 0.931 . S
C341 C340 1.370 . S
C341 C345 1.408 . S
C342 C340 1.363 . S
C342 C343 1.370 . S
C342 C346 1.524 . S
C343 C335 1.503 . S
C343 C342 1.370 . S
C343 C344 1.403 . S
C344 C343 1.403 . S
C344 C345 1.404 . S
C344 C347 1.539 . S
C345 C341 1.408 . S
C345 C344 1.404 . S
C345 H357 0.930 . S
C346 C342 1.524 . S
C346 H358 0.956 . S
C346 H359 0.961 . S
C346 H360 0.961 . S
C347 C344 1.539 . S
C347 H361 0.958 . S
C347 H362 0.961 . S
C347 H363 0.960 . S
H348 C332 0.931 . S
H349 C337 0.929 . S
H350 C338 0.960 . S
H351 C338 0.962 . S
H352 C338 0.960 . S
H353 C339 0.961 . S
H354 C339 0.961 . S
H355 C339 0.961 . S
H356 C340 0.931 . S
H357 C345 0.930 . S
H358 C346 0.956 . S
H359 C346 0.961 . S
H360 C346 0.961 . S
H361 C347 0.958 . S
H362 C347 0.961 . S
H363 C347 0.960 . S
C364 C365 1.391 . S
C364 C366 1.394 . S
C364 H380 0.931 . S
C365 C364 1.391 . S
C365 C369 1.376 . S
C366 C364 1.394 . S
C366 C367 1.369 . S
C366 C370 1.531 . S
C367 C366 1.369 . S
C367 C368 1.410 . S
C367 C375 1.503 . S
C368 C367 1.410 . S
C368 C369 1.392 . S
C368 C371 1.511 . S
C369 C365 1.376 . S
C369 C368 1.392 . S
C369 H381 0.929 . S
C370 C366 1.531 . S
C370 H382 0.960 . S
C370 H383 0.962 . S
C370 H384 0.960 . S
C371 C368 1.511 . S
C371 H385 0.961 . S
C371 H386 0.961 . S
C371 H387 0.961 . S
C372 C373 1.370 . S
C372 C374 1.363 . S
C372 H388 0.931 . S
C373 C372 1.370 . S
C373 C377 1.408 . S
C374 C372 1.363 . S
C374 C375 1.370 . S
C374 C378 1.524 . S
C375 C367 1.503 . S
C375 C374 1.370 . S
C375 C376 1.403 . S
C376 C375 1.403 . S
C376 C377 1.404 . S
C376 C379 1.539 . S
C377 C373 1.408 . S
C377 C376 1.404 . S
C377 H389 0.930 . S
C378 C374 1.524 . S
C378 H390 0.956 . S
C378 H391 0.961 . S
C378 H392 0.961 . S
C379 C376 1.539 . S
C379 H393 0.958 . S
C379 H394 0.961 . S
C379 H395 0.960 . S
H380 C364 0.931 . S
H381 C369 0.929 . S
H382 C370 0.960 . S
H383 C370 0.962 . S
H384 C370 0.960 . S
H385 C371 0.961 . S
H386 C371 0.961 . S
H387 C371 0.961 . S
H388 C372 0.931 . S
H389 C377 0.930 . S
H390 C378 0.956 . S
H391 C378 0.961 . S
H392 C378 0.961 . S
H393 C379 0.958 . S
H394 C379 0.961 . S
H395 C379 0.960 . S
C396 C397 1.391 . S
C396 C398 1.394 . S
C396 H412 0.931 . S
C397 C396 1.391 . S
C397 C401 1.376 . S
C398 C396 1.394 . S
C398 C399 1.369 . S
C398 C402 1.531 . S
C399 C398 1.369 . S
C399 C400 1.410 . S
C399 C407 1.503 . S
C400 C399 1.410 . S
C400 C401 1.392 . S
C400 C403 1.511 . S
C401 C397 1.376 . S
C401 C400 1.392 . S
C401 H413 0.929 . S
C402 C398 1.531 . S
C402 H414 0.960 . S
C402 H415 0.962 . S
C402 H416 0.960 . S
C403 C400 1.511 . S
C403 H417 0.961 . S
C403 H418 0.961 . S
C403 H419 0.961 . S
C404 C405 1.370 . S
C404 C406 1.363 . S
C404 H420 0.931 . S
C405 C404 1.370 . S
C405 C409 1.408 . S
C406 C404 1.363 . S
C406 C407 1.370 . S
C406 C410 1.524 . S
C407 C399 1.503 . S
C407 C406 1.370 . S
C407 C408 1.403 . S
C408 C407 1.403 . S
C408 C409 1.404 . S
C408 C411 1.539 . S
C409 C405 1.408 . S
C409 C408 1.404 . S
C409 H421 0.930 . S
C410 C406 1.524 . S
C410 H422 0.956 . S
C410 H423 0.961 . S
C410 H424 0.961 . S
C411 C408 1.539 . S
C411 H425 0.958 . S
C411 H426 0.961 . S
C411 H427 0.960 . S
H412 C396 0.931 . S
H413 C401 0.929 . S
H414 C402 0.960 . S
H415 C402 0.962 . S
H416 C402 0.960 . S
H417 C403 0.961 . S
H418 C403 0.961 . S
H419 C403 0.961 . S
H420 C404 0.931 . S
H421 C409 0.930 . S
H422 C410 0.956 . S
H423 C410 0.961 . S
H424 C410 0.961 . S
H425 C411 0.958 . S
H426 C411 0.961 . S
H427 C411 0.960 . S
C428 C429 1.391 . S
C428 C430 1.394 . S
C428 H444 0.931 . S
C429 C428 1.391 . S
C429 C433 1.376 . S
C430 C428 1.394 . S
C430 C431 1.369 . S
C430 C434 1.531 . S
C431 C430 1.369 . S
C431 C432 1.410 . S
C431 C439 1.503 . S
C432 C431 1.410 . S
C432 C433 1.392 . S
C432 C435 1.511 . S
C433 C429 1.376 . S
C433 C432 1.392 . S
C433 H445 0.929 . S
C434 C430 1.531 . S
C434 H446 0.960 . S
C434 H447 0.962 . S
C434 H448 0.960 . S
C435 C432 1.511 . S
C435 H449 0.961 . S
C435 H450 0.961 . S
C435 H451 0.961 . S
C436 C437 1.370 . S
C436 C438 1.363 . S
C436 H452 0.931 . S
C437 C436 1.370 . S
C437 C441 1.408 . S
C438 C436 1.363 . S
C438 C439 1.370 . S
C438 C442 1.524 . S
C439 C431 1.503 . S
C439 C438 1.370 . S
C439 C440 1.403 . S
C440 C439 1.403 . S
C440 C441 1.404 . S
C440 C443 1.539 . S
C441 C437 1.408 . S
C441 C440 1.404 . S
C441 H453 0.930 . S
C442 C438 1.524 . S
C442 H454 0.956 . S
C442 H455 0.961 . S
C442 H456 0.961 . S
C443 C440 1.539 . S
C443 H457 0.958 . S
C443 H458 0.961 . S
C443 H459 0.960 . S
H444 C428 0.931 . S
H445 C433 0.929 . S
H446 C434 0.960 . S
H447 C434 0.962 . S
H448 C434 0.960 . S
H449 C435 0.961 . S
H450 C435 0.961 . S
H451 C435 0.961 . S
H452 C436 0.931 . S
H453 C441 0.930 . S
H454 C442 0.956 . S
H455 C442 0.961 . S
H456 C442 0.961 . S
H457 C443 0.958 . S
H458 C443 0.961 . S
H459 C443 0.960 . S
C460 C461 1.391 . S
C460 C462 1.394 . S
C460 H476 0.931 . S
C461 C460 1.391 . S
C461 C465 1.376 . S
C462 C460 1.394 . S
C462 C463 1.369 . S
C462 C466 1.531 . S
C463 C462 1.369 . S
C463 C464 1.410 . S
C463 C471 1.503 . S
C464 C463 1.410 . S
C464 C465 1.392 . S
C464 C467 1.511 . S
C465 C461 1.376 . S
C465 C464 1.392 . S
C465 H477 0.929 . S
C466 C462 1.531 . S
C466 H478 0.960 . S
C466 H479 0.962 . S
C466 H480 0.960 . S
C467 C464 1.511 . S
C467 H481 0.961 . S
C467 H482 0.961 . S
C467 H483 0.961 . S
C468 C469 1.370 . S
C468 C470 1.363 . S
C468 H484 0.931 . S
C469 C468 1.370 . S
C469 C473 1.408 . S
C470 C468 1.363 . S
C470 C471 1.370 . S
C470 C474 1.524 . S
C471 C463 1.503 . S
C471 C470 1.370 . S
C471 C472 1.403 . S
C472 C471 1.403 . S
C472 C473 1.404 . S
C472 C475 1.539 . S
C473 C469 1.408 . S
C473 C472 1.404 . S
C473 H485 0.930 . S
C474 C470 1.524 . S
C474 H486 0.956 . S
C474 H487 0.961 . S
C474 H488 0.961 . S
C475 C472 1.539 . S
C475 H489 0.958 . S
C475 H490 0.961 . S
C475 H491 0.960 . S
H476 C460 0.931 . S
H477 C465 0.929 . S
H478 C466 0.960 . S
H479 C466 0.962 . S
H480 C466 0.960 . S
H481 C467 0.961 . S
H482 C467 0.961 . S
H483 C467 0.961 . S
H484 C468 0.931 . S
H485 C473 0.930 . S
H486 C474 0.956 . S
H487 C474 0.961 . S
H488 C474 0.961 . S
H489 C475 0.958 . S
H490 C475 0.961 . S
H491 C475 0.960 . S
C492 C493 1.391 . S
C492 C494 1.394 . S
C492 H508 0.931 . S
C493 C492 1.391 . S
C493 C497 1.376 . S
C494 C492 1.394 . S
C494 C495 1.369 . S
C494 C498 1.531 . S
C495 C494 1.369 . S
C495 C496 1.410 . S
C495 C503 1.503 . S
C496 C495 1.410 . S
C496 C497 1.392 . S
C496 C499 1.511 . S
C497 C493 1.376 . S
C497 C496 1.392 . S
C497 H509 0.929 . S
C498 C494 1.531 . S
C498 H510 0.960 . S
C498 H511 0.962 . S
C498 H512 0.960 . S
C499 C496 1.511 . S
C499 H513 0.961 . S
C499 H514 0.961 . S
C499 H515 0.961 . S
C500 C501 1.370 . S
C500 C502 1.363 . S
C500 H516 0.931 . S
C501 C500 1.370 . S
C501 C505 1.408 . S
C502 C500 1.363 . S
C502 C503 1.370 . S
C502 C506 1.524 . S
C503 C495 1.503 . S
C503 C502 1.370 . S
C503 C504 1.403 . S
C504 C503 1.403 . S
C504 C505 1.404 . S
C504 C507 1.539 . S
C505 C501 1.408 . S
C505 C504 1.404 . S
C505 H517 0.930 . S
C506 C502 1.524 . S
C506 H518 0.956 . S
C506 H519 0.961 . S
C506 H520 0.961 . S
C507 C504 1.539 . S
C507 H521 0.958 . S
C507 H522 0.961 . S
C507 H523 0.960 . S
H508 C492 0.931 . S
H509 C497 0.929 . S
H510 C498 0.960 . S
H511 C498 0.962 . S
H512 C498 0.960 . S
H513 C499 0.961 . S
H514 C499 0.961 . S
H515 C499 0.961 . S
H516 C500 0.931 . S
H517 C505 0.930 . S
H518 C506 0.956 . S
H519 C506 0.961 . S
H520 C506 0.961 . S
H521 C507 0.958 . S
H522 C507 0.961 . S
H523 C507 0.960 . S
C524 C525 1.391 . S
C524 C526 1.394 . S
C524 H540 0.931 . S
C525 C524 1.391 . S
C525 C529 1.376 . S
C526 C524 1.394 . S
C526 C527 1.369 . S
C526 C530 1.531 . S
C527 C526 1.369 . S
C527 C528 1.410 . S
C527 C535 1.503 . S
C528 C527 1.410 . S
C528 C529 1.392 . S
C528 C531 1.511 . S
C529 C525 1.376 . S
C529 C528 1.392 . S
C529 H541 0.929 . S
C530 C526 1.531 . S
C530 H542 0.960 . S
C530 H543 0.962 . S
C530 H544 0.960 . S
C531 C528 1.511 . S
C531 H545 0.961 . S
C531 H546 0.961 . S
C531 H547 0.961 . S
C532 C533 1.370 . S
C532 C534 1.363 . S
C532 H548 0.931 . S
C533 C532 1.370 . S
C533 C537 1.408 . S
C534 C532 1.363 . S
C534 C535 1.370 . S
C534 C538 1.524 . S
C535 C527 1.503 . S
C535 C534 1.370 . S
C535 C536 1.403 . S
C536 C535 1.403 . S
C536 C537 1.404 . S
C536 C539 1.539 . S
C537 C533 1.408 . S
C537 C536 1.404 . S
C537 H549 0.930 . S
C538 C534 1.524 . S
C538 H550 0.956 . S
C538 H551 0.961 . S
C538 H552 0.961 . S
C539 C536 1.539 . S
C539 H553 0.958 . S
C539 H554 0.961 . S
C539 H555 0.960 . S
H540 C524 0.931 . S
H541 C529 0.929 . S
H542 C530 0.960 . S
H543 C530 0.962 . S
H544 C530 0.960 . S
H545 C531 0.961 . S
H546 C531 0.961 . S
H547 C531 0.961 . S
H548 C532 0.931 . S
H549 C537 0.930 . S
H550 C538 0.956 . S
H551 C538 0.961 . S
H552 C538 0.961 . S
H553 C539 0.958 . S
H554 C539 0.961 . S
H555 C539 0.960 . S
C556 C557 1.391 . S
C556 C558 1.394 . S
C556 H572 0.931 . S
C557 C556 1.391 . S
C557 C561 1.376 . S
C558 C556 1.394 . S
C558 C559 1.369 . S
C558 C562 1.531 . S
C559 C558 1.369 . S
C559 C560 1.410 . S
C559 C567 1.503 . S
C560 C559 1.410 . S
C560 C561 1.392 . S
C560 C563 1.511 . S
C561 C557 1.376 . S
C561 C560 1.392 . S
C561 H573 0.929 . S
C562 C558 1.531 . S
C562 H574 0.960 . S
C562 H575 0.962 . S
C562 H576 0.960 . S
C563 C560 1.511 . S
C563 H577 0.961 . S
C563 H578 0.961 . S
C563 H579 0.961 . S
C564 C565 1.370 . S
C564 C566 1.363 . S
C564 H580 0.931 . S
C565 C564 1.370 . S
C565 C569 1.408 . S
C566 C564 1.363 . S
C566 C567 1.370 . S
C566 C570 1.524 . S
C567 C559 1.503 . S
C567 C566 1.370 . S
C567 C568 1.403 . S
C568 C567 1.403 . S
C568 C569 1.404 . S
C568 C571 1.539 . S
C569 C565 1.408 . S
C569 C568 1.404 . S
C569 H581 0.930 . S
C570 C566 1.524 . S
C570 H582 0.956 . S
C570 H583 0.961 . S
C570 H584 0.961 . S
C571 C568 1.539 . S
C571 H585 0.958 . S
C571 H586 0.961 . S
C571 H587 0.960 . S
H572 C556 0.931 . S
H573 C561 0.929 . S
H574 C562 0.960 . S
H575 C562 0.962 . S
H576 C562 0.960 . S
H577 C563 0.961 . S
H578 C563 0.961 . S
H579 C563 0.961 . S
H580 C564 0.931 . S
H581 C569 0.930 . S
H582 C570 0.956 . S
H583 C570 0.961 . S
H584 C570 0.961 . S
H585 C571 0.958 . S
H586 C571 0.961 . S
H587 C571 0.960 . S
C588 C589 1.391 . S
C588 C590 1.394 . S
C588 H604 0.931 . S
C589 C588 1.391 . S
C589 C593 1.376 . S
C590 C588 1.394 . S
C590 C591 1.369 . S
C590 C594 1.531 . S
C591 C590 1.369 . S
C591 C592 1.410 . S
C591 C599 1.503 . S
C592 C591 1.410 . S
C592 C593 1.392 . S
C592 C595 1.511 . S
C593 C589 1.376 . S
C593 C592 1.392 . S
C593 H605 0.929 . S
C594 C590 1.531 . S
C594 H606 0.960 . S
C594 H607 0.962 . S
C594 H608 0.960 . S
C595 C592 1.511 . S
C595 H609 0.961 . S
C595 H610 0.961 . S
C595 H611 0.961 . S
C596 C597 1.370 . S
C596 C598 1.363 . S
C596 H612 0.931 . S
C597 C596 1.370 . S
C597 C601 1.408 . S
C598 C596 1.363 . S
C598 C599 1.370 . S
C598 C602 1.524 . S
C599 C591 1.503 . S
C599 C598 1.370 . S
C599 C600 1.403 . S
C600 C599 1.403 . S
C600 C601 1.404 . S
C600 C603 1.539 . S
C601 C597 1.408 . S
C601 C600 1.404 . S
C601 H613 0.930 . S
C602 C598 1.524 . S
C602 H614 0.956 . S
C602 H615 0.961 . S
C602 H616 0.961 . S
C603 C600 1.539 . S
C603 H617 0.958 . S
C603 H618 0.961 . S
C603 H619 0.960 . S
H604 C588 0.931 . S
H605 C593 0.929 . S
H606 C594 0.960 . S
H607 C594 0.962 . S
H608 C594 0.960 . S
H609 C595 0.961 . S
H610 C595 0.961 . S
H611 C595 0.961 . S
H612 C596 0.931 . S
H613 C601 0.930 . S
H614 C602 0.956 . S
H615 C602 0.961 . S
H616 C602 0.961 . S
H617 C603 0.958 . S
H618 C603 0.961 . S
H619 C603 0.960 . S
C620 C621 1.391 . S
C620 C622 1.394 . S
C620 H636 0.931 . S
C621 C620 1.391 . S
C621 C625 1.376 . S
C622 C620 1.394 . S
C622 C623 1.369 . S
C622 C626 1.531 . S
C623 C622 1.369 . S
C623 C624 1.410 . S
C623 C631 1.503 . S
C624 C623 1.410 . S
C624 C625 1.392 . S
C624 C627 1.511 . S
C625 C621 1.376 . S
C625 C624 1.392 . S
C625 H637 0.929 . S
C626 C622 1.531 . S
C626 H638 0.960 . S
C626 H639 0.962 . S
C626 H640 0.960 . S
C627 C624 1.511 . S
C627 H641 0.961 . S
C627 H642 0.961 . S
C627 H643 0.961 . S
C628 C629 1.370 . S
C628 C630 1.363 . S
C628 H644 0.931 . S
C629 C628 1.370 . S
C629 C633 1.408 . S
C630 C628 1.363 . S
C630 C631 1.370 . S
C630 C634 1.524 . S
C631 C623 1.503 . S
C631 C630 1.370 . S
C631 C632 1.403 . S
C632 C631 1.403 . S
C632 C633 1.404 . S
C632 C635 1.539 . S
C633 C629 1.408 . S
C633 C632 1.404 . S
C633 H645 0.930 . S
C634 C630 1.524 . S
C634 H646 0.956 . S
C634 H647 0.961 . S
C634 H648 0.961 . S
C635 C632 1.539 . S
C635 H649 0.958 . S
C635 H650 0.961 . S
C635 H651 0.960 . S
H636 C620 0.931 . S
H637 C625 0.929 . S
H638 C626 0.960 . S
H639 C626 0.962 . S
H640 C626 0.960 . S
H641 C627 0.961 . S
H642 C627 0.961 . S
H643 C627 0.961 . S
H644 C628 0.931 . S
H645 C633 0.930 . S
H646 C634 0.956 . S
H647 C634 0.961 . S
H648 C634 0.961 . S
H649 C635 0.958 . S
H650 C635 0.961 . S
H651 C635 0.960 . S
C652 C653 1.391 . S
C652 C654 1.394 . S
C652 H668 0.931 . S
C653 C652 1.391 . S
C653 C657 1.376 . S
C654 C652 1.394 . S
C654 C655 1.369 . S
C654 C658 1.531 . S
C655 C654 1.369 . S
C655 C656 1.410 . S
C655 C663 1.503 . S
C656 C655 1.410 . S
C656 C657 1.392 . S
C656 C659 1.511 . S
C657 C653 1.376 . S
C657 C656 1.392 . S
C657 H669 0.929 . S
C658 C654 1.531 . S
C658 H670 0.960 . S
C658 H671 0.962 . S
C658 H672 0.960 . S
C659 C656 1.511 . S
C659 H673 0.961 . S
C659 H674 0.961 . S
C659 H675 0.961 . S
C660 C661 1.370 . S
C660 C662 1.363 . S
C660 H676 0.931 . S
C661 C660 1.370 . S
C661 C665 1.408 . S
C662 C660 1.363 . S
C662 C663 1.370 . S
C662 C666 1.524 . S
C663 C655 1.503 . S
C663 C662 1.370 . S
C663 C664 1.403 . S
C664 C663 1.403 . S
C664 C665 1.404 . S
C664 C667 1.539 . S
C665 C661 1.408 . S
C665 C664 1.404 . S
C665 H677 0.930 . S
C666 C662 1.524 . S
C666 H678 0.956 . S
C666 H679 0.961 . S
C666 H680 0.961 . S
C667 C664 1.539 . S
C667 H681 0.958 . S
C667 H682 0.961 . S
C667 H683 0.960 . S
H668 C652 0.931 . S
H669 C657 0.929 . S
H670 C658 0.960 . S
H671 C658 0.962 . S
H672 C658 0.960 . S
H673 C659 0.961 . S
H674 C659 0.961 . S
H675 C659 0.961 . S
H676 C660 0.931 . S
H677 C665 0.930 . S
H678 C666 0.956 . S
H679 C666 0.961 . S
H680 C666 0.961 . S
H681 C667 0.958 . S
H682 C667 0.961 . S
H683 C667 0.960 . S
C684 C685 1.391 . S
C684 C686 1.394 . S
C684 H700 0.931 . S
C685 C684 1.391 . S
C685 C689 1.376 . S
C686 C684 1.394 . S
C686 C687 1.369 . S
C686 C690 1.531 . S
C687 C686 1.369 . S
C687 C688 1.410 . S
C687 C695 1.503 . S
C688 C687 1.410 . S
C688 C689 1.392 . S
C688 C691 1.511 . S
C689 C685 1.376 . S
C689 C688 1.392 . S
C689 H701 0.929 . S
C690 C686 1.531 . S
C690 H702 0.960 . S
C690 H703 0.962 1_455 S
C690 H704 0.960 . S
C691 C688 1.511 . S
C691 H705 0.961 . S
C691 H706 0.961 . S
C691 H707 0.961 . S
C692 C693 1.370 . S
C692 C694 1.363 . S
C692 H708 0.931 1_455 S
C693 C692 1.370 . S
C693 C697 1.408 . S
C694 C692 1.363 . S
C694 C695 1.370 . S
C694 C698 1.524 1_455 S
C695 C687 1.503 . S
C695 C694 1.370 . S
C695 C696 1.403 . S
C696 C695 1.403 . S
C696 C697 1.404 . S
C696 C699 1.539 . S
C697 C693 1.408 . S
C697 C696 1.404 . S
C697 H709 0.930 . S
C698 C694 1.524 1_655 S
C698 H710 0.956 . S
C698 H711 0.961 . S
C698 H712 0.961 . S
C699 C696 1.539 . S
C699 H713 0.958 . S
C699 H714 0.961 . S
C699 H715 0.960 . S
H700 C684 0.931 . S
H701 C689 0.929 . S
H702 C690 0.960 . S
H703 C690 0.962 1_655 S
H704 C690 0.960 . S
H705 C691 0.961 . S
H706 C691 0.961 . S
H707 C691 0.961 . S
H708 C692 0.931 1_655 S
H709 C697 0.930 . S
H710 C698 0.956 . S
H711 C698 0.961 . S
H712 C698 0.961 . S
H713 C699 0.958 . S
H714 C699 0.961 . S
H715 C699 0.960 . S
C716 C717 1.391 . S
C716 C718 1.394 . S
C716 H732 0.931 . S
C717 C716 1.391 . S
C717 C721 1.376 . S
C718 C716 1.394 . S
C718 C719 1.369 . S
C718 C722 1.531 . S
C719 C718 1.369 . S
C719 C720 1.410 . S
C719 C727 1.503 . S
C720 C719 1.410 . S
C720 C721 1.392 . S
C720 C723 1.511 . S
C721 C717 1.376 . S
C721 C720 1.392 . S
C721 H733 0.929 . S
C722 C718 1.531 . S
C722 H734 0.960 . S
C722 H735 0.962 . S
C722 H736 0.960 . S
C723 C720 1.511 . S
C723 H737 0.961 1_545 S
C723 H738 0.961 1_545 S
C723 H739 0.961 . S
C724 C725 1.370 1_565 S
C724 C726 1.363 . S
C724 H740 0.931 . S
C725 C724 1.370 1_545 S
C725 C729 1.408 . S
C726 C724 1.363 . S
C726 C727 1.370 1_565 S
C726 C730 1.524 . S
C727 C719 1.503 . S
C727 C726 1.370 1_545 S
C727 C728 1.403 . S
C728 C727 1.403 . S
C728 C729 1.404 . S
C728 C731 1.539 . S
C729 C725 1.408 . S
C729 C728 1.404 . S
C729 H741 0.930 . S
C730 C726 1.524 . S
C730 H742 0.956 . S
C730 H743 0.961 . S
C730 H744 0.961 . S
C731 C728 1.539 . S
C731 H745 0.958 . S
C731 H746 0.961 . S
C731 H747 0.960 . S
H732 C716 0.931 . S
H733 C721 0.929 . S
H734 C722 0.960 . S
H735 C722 0.962 . S
H736 C722 0.960 . S
H737 C723 0.961 1_565 S
H738 C723 0.961 1_565 S
H739 C723 0.961 . S
H740 C724 0.931 . S
H741 C729 0.930 . S
H742 C730 0.956 . S
H743 C730 0.961 . S
H744 C730 0.961 . S
H745 C731 0.958 . S
H746 C731 0.961 . S
H747 C731 0.960 . S
C748 C749 1.391 . S
C748 C750 1.394 . S
C748 H764 0.931 . S
C749 C748 1.391 . S
C749 C753 1.376 . S
C750 C748 1.394 . S
C750 C751 1.369 . S
C750 C754 1.531 . S
C751 C750 1.369 . S
C751 C752 1.410 . S
C751 C759 1.503 . S
C752 C751 1.410 . S
C752 C753 1.392 . S
C752 C755 1.511 . S
C753 C749 1.376 . S
C753 C752 1.392 . S
C753 H765 0.929 . S
C754 C750 1.531 . S
C754 H766 0.960 . S
C754 H767 0.962 . S
C754 H768 0.960 . S
C755 C752 1.511 . S
C755 H769 0.961 . S
C755 H770 0.961 . S
C755 H771 0.961 . S
C756 C757 1.370 . S
C756 C758 1.363 . S
C756 H772 0.931 . S
C757 C756 1.370 . S
C757 C761 1.408 . S
C758 C756 1.363 . S
C758 C759 1.370 . S
C758 C762 1.524 . S
C759 C751 1.503 . S
C759 C758 1.370 . S
C759 C760 1.403 . S
C760 C759 1.403 . S
C760 C761 1.404 . S
C760 C763 1.539 . S
C761 C757 1.408 . S
C761 C760 1.404 . S
C761 H773 0.930 . S
C762 C758 1.524 . S
C762 H774 0.956 . S
C762 H775 0.961 . S
C762 H776 0.961 . S
C763 C760 1.539 . S
C763 H777 0.958 . S
C763 H778 0.961 . S
C763 H779 0.960 . S
H764 C748 0.931 . S
H765 C753 0.929 . S
H766 C754 0.960 . S
H767 C754 0.962 . S
H768 C754 0.960 . S
H769 C755 0.961 . S
H770 C755 0.961 . S
H771 C755 0.961 . S
H772 C756 0.931 . S
H773 C761 0.930 . S
H774 C762 0.956 . S
H775 C762 0.961 . S
H776 C762 0.961 . S
H777 C763 0.958 . S
H778 C763 0.961 . S
H779 C763 0.960 . S
C780 C781 1.391 . S
C780 C782 1.394 . S
C780 H796 0.931 . S
C781 C780 1.391 . S
C781 C785 1.376 . S
C782 C780 1.394 . S
C782 C783 1.369 . S
C782 C786 1.531 . S
C783 C782 1.369 . S
C783 C784 1.410 . S
C783 C791 1.503 . S
C784 C783 1.410 . S
C784 C785 1.392 . S
C784 C787 1.511 . S
C785 C781 1.376 . S
C785 C784 1.392 . S
C785 H797 0.929 . S
C786 C782 1.531 . S
C786 H798 0.960 . S
C786 H799 0.962 . S
C786 H800 0.960 . S
C787 C784 1.511 . S
C787 H801 0.961 . S
C787 H802 0.961 . S
C787 H803 0.961 1_545 S
C788 C789 1.370 . S
C788 C790 1.363 . S
C788 H804 0.931 . S
C789 C788 1.370 . S
C789 C793 1.408 . S
C790 C788 1.363 . S
C790 C791 1.370 . S
C790 C794 1.524 . S
C791 C783 1.503 . S
C791 C790 1.370 . S
C791 C792 1.403 . S
C792 C791 1.403 . S
C792 C793 1.404 . S
C792 C795 1.539 1_545 S
C793 C789 1.408 . S
C793 C792 1.404 . S
C793 H805 0.930 1_545 S
C794 C790 1.524 . S
C794 H806 0.956 . S
C794 H807 0.961 . S
C794 H808 0.961 . S
C795 C792 1.539 1_565 S
C795 H809 0.958 . S
C795 H810 0.961 . S
C795 H811 0.960 . S
H796 C780 0.931 . S
H797 C785 0.929 . S
H798 C786 0.960 . S
H799 C786 0.962 . S
H800 C786 0.960 . S
H801 C787 0.961 . S
H802 C787 0.961 . S
H803 C787 0.961 1_565 S
H804 C788 0.931 . S
H805 C793 0.930 1_565 S
H806 C794 0.956 . S
H807 C794 0.961 . S
H808 C794 0.961 . S
H809 C795 0.958 . S
H810 C795 0.961 . S
H811 C795 0.960 . S
C812 C813 1.391 . S
C812 C814 1.394 . S
C812 H828 0.931 . S
C813 C812 1.391 . S
C813 C817 1.376 . S
C814 C812 1.394 . S
C814 C815 1.369 . S
C814 C818 1.531 . S
C815 C814 1.369 . S
C815 C816 1.410 . S
C815 C823 1.503 . S
C816 C815 1.410 . S
C816 C817 1.392 . S
C816 C819 1.511 . S
C817 C813 1.376 . S
C817 C816 1.392 . S
C817 H829 0.929 . S
C818 C814 1.531 . S
C818 H830 0.960 . S
C818 H831 0.962 . S
C818 H832 0.960 . S
C819 C816 1.511 . S
C819 H833 0.961 . S
C819 H834 0.961 . S
C819 H835 0.961 . S
C820 C821 1.370 . S
C820 C822 1.363 . S
C820 H836 0.931 . S
C821 C820 1.370 . S
C821 C825 1.408 . S
C822 C820 1.363 . S
C822 C823 1.370 . S
C822 C826 1.524 . S
C823 C815 1.503 . S
C823 C822 1.370 . S
C823 C824 1.403 . S
C824 C823 1.403 . S
C824 C825 1.404 . S
C824 C827 1.539 . S
C825 C821 1.408 . S
C825 C824 1.404 . S
C825 H837 0.930 . S
C826 C822 1.524 . S
C826 H838 0.956 . S
C826 H839 0.961 . S
C826 H840 0.961 . S
C827 C824 1.539 . S
C827 H841 0.958 . S
C827 H842 0.961 . S
C827 H843 0.960 . S
H828 C812 0.931 . S
H829 C817 0.929 . S
H830 C818 0.960 . S
H831 C818 0.962 . S
H832 C818 0.960 . S
H833 C819 0.961 . S
H834 C819 0.961 . S
H835 C819 0.961 . S
H836 C820 0.931 . S
H837 C825 0.930 . S
H838 C826 0.956 . S
H839 C826 0.961 . S
H840 C826 0.961 . S
H841 C827 0.958 . S
H842 C827 0.961 . S
H843 C827 0.960 . S
C844 C845 1.391 . S
C844 C846 1.394 . S
C844 H860 0.931 . S
C845 C844 1.391 . S
C845 C849 1.376 1_455 S
C846 C844 1.394 . S
C846 C847 1.369 . S
C846 C850 1.531 . S
C847 C846 1.369 . S
C847 C848 1.410 1_455 S
C847 C855 1.503 . S
C848 C847 1.410 1_655 S
C848 C849 1.392 . S
C848 C851 1.511 . S
C849 C845 1.376 1_655 S
C849 C848 1.392 . S
C849 H861 0.929 . S
C850 C846 1.531 . S
C850 H862 0.960 . S
C850 H863 0.962 . S
C850 H864 0.960 . S
C851 C848 1.511 . S
C851 H865 0.961 . S
C851 H866 0.961 . S
C851 H867 0.961 . S
C852 C853 1.370 . S
C852 C854 1.363 . S
C852 H868 0.931 . S
C853 C852 1.370 . S
C853 C857 1.408 . S
C854 C852 1.363 . S
C854 C855 1.370 . S
C854 C858 1.524 . S
C855 C847 1.503 . S
C855 C854 1.370 . S
C855 C856 1.403 . S
C856 C855 1.403 . S
C856 C857 1.404 . S
C856 C859 1.539 1_455 S
C857 C853 1.408 . S
C857 C856 1.404 . S
C857 H869 0.930 1_455 S
C858 C854 1.524 . S
C858 H870 0.956 . S
C858 H871 0.961 . S
C858 H872 0.961 . S
C859 C856 1.539 1_655 S
C859 H873 0.958 1_655 S
C859 H874 0.961 . S
C859 H875 0.960 . S
H860 C844 0.931 . S
H861 C849 0.929 . S
H862 C850 0.960 . S
H863 C850 0.962 . S
H864 C850 0.960 . S
H865 C851 0.961 . S
H866 C851 0.961 . S
H867 C851 0.961 . S
H868 C852 0.931 . S
H869 C857 0.930 1_655 S
H870 C858 0.956 . S
H871 C858 0.961 . S
H872 C858 0.961 . S
H873 C859 0.958 1_455 S
H874 C859 0.961 . S
H875 C859 0.960 . S
C301 C2 1.172 . S
C309 C275 1.129 . S
C333 C21 1.066 . S
C341 C182 1.065 . S
C365 C42 1.123 . S
C373 C222 1.108 . S
C397 C1 1.081 . S
C405 C262 1.061 . S
C437 C195 1.127 . S
C429 C22 1.132 . S
C469 C235 1.072 . S
C461 C41 1.066 . S
C493 C38 1.947 . S
C501 C102 1.924 . S
C525 C59 2.005 . S
C533 C142 1.988 . S
C557 C18 1.974 . S
C565 C75 1.930 . S
C597 C115 1.982 . S
C589 C39 2.042 . S
C629 C155 1.920 . S
C621 C58 1.966 . S
C653 C19 2.020 . S
C661 C62 1.977 . S
C693 C161 1.560 1_554 S
C685 C9 1.501 . S
C717 C29 1.476 . S
C725 C81 1.553 . S
C749 C49 1.534 . S
C757 C121 1.564 . S
C789 C241 1.370 . S
C781 C28 1.333 . S
C821 C281 1.390 1_556 S
C813 C48 1.337 . S
C845 C8 1.384 . S
C853 C201 1.378 . S
