# Generated by pormake.
# Topology nia, (6,6)-cn, num edge types: 1
# Building blocks:
#     Node 0, Type 0, BuildingBlock: CUKXOW_clean_sbu_0, # of connection points: 6
#     Node 1, Type 0, BuildingBlock: CUKXOW_clean_sbu_0, # of connection points: 6
#     Node 2, Type 1, BuildingBlock: MIDCAF_clean_sbu_0, # of connection points: 6
#     Node 3, Type 1, BuildingBlock: MIDCAF_clean_sbu_0, # of connection points: 6
#     Edge 4, Type (0, 1), BuildingBlock: TEMPAE_clean_linker_10, # of connection points: 2
#     Edge 5, Type (0, 1), BuildingBlock: TEMPAE_clean_linker_10, # of connection points: 2
#     Edge 6, Type (0, 1), BuildingBlock: TEMPAE_clean_linker_10, # of connection points: 2
#     Edge 7, Type (0, 1), BuildingBlock: TEMPAE_clean_linker_10, # of connection points: 2
#     Edge 8, Type (0, 1), BuildingBlock: TEMPAE_clean_linker_10, # of connection points: 2
#     Edge 9, Type (0, 1), BuildingBlock: TEMPAE_clean_linker_10, # of connection points: 2
#     Edge 10, Type (0, 1), BuildingBlock: TEMPAE_clean_linker_10, # of connection points: 2
#     Edge 11, Type (0, 1), BuildingBlock: TEMPAE_clean_linker_10, # of connection points: 2
#     Edge 12, Type (0, 1), BuildingBlock: TEMPAE_clean_linker_10, # of connection points: 2
#     Edge 13, Type (0, 1), BuildingBlock: TEMPAE_clean_linker_10, # of connection points: 2
#     Edge 14, Type (0, 1), BuildingBlock: TEMPAE_clean_linker_10, # of connection points: 2
#     Edge 15, Type (0, 1), BuildingBlock: TEMPAE_clean_linker_10, # of connection points: 2
# Relax obj value: 0.197
# Max RMSD: 0.252
# Mean RMSD: 0.209
data_MOF--net-nia--node1-CUKXOW_clean_sbu_0--node2-MIDCAF_clean_sbu_0--edge1-TEMPAE_clean_linker_10
_symmetry_space_group_name_H-M    P1
_symmetry_Int_Tables_number       1
_symmetry_cell_setting            triclinic
loop_
_symmetry_equiv_pos_as_xyz
'x, y, z'
_cell_length_a     24.702914
_cell_length_b     24.735113
_cell_length_c     30.764402
_cell_angle_alpha  88.26382
_cell_angle_beta   87.992022
_cell_angle_gamma 125.77241
loop_
_atom_site_label
_atom_site_type_symbol
_atom_site_fract_x
_atom_site_fract_y
_atom_site_fract_z
_atom_type_partial_charge
Tb0 Tb 0.02537 0.07814 0.02741 0.0
C1 C 0.10602 0.07061 0.95171 0.0
Tb2 Tb 0.96323 0.94082 0.98967 0.0
O3 O 0.10383 0.07162 0.05099 0.0
O4 O 0.00636 0.98548 0.04792 0.0
O5 O 0.09495 0.11138 0.97045 0.0
C6 C 0.94847 0.82912 0.97228 0.0
O7 O 0.0657 0.00456 0.95925 0.0
C8 C 0.93556 0.01101 0.94211 0.0
C9 C 0.87789 0.95548 0.05958 0.0
O10 O 0.00498 0.88551 0.97784 0.0
O11 O 0.89979 0.83511 0.97758 0.0
O12 O 0.91589 0.95115 0.93373 0.0
O13 O 0.96878 0.02658 0.97521 0.0
O14 O 0.88708 0.91275 0.04188 0.0
O15 O 0.9211 0.02115 0.05245 0.0
C16 C 0.04703 0.17559 0.07462 0.0
O17 O 0.03763 0.12108 0.08934 0.0
O18 O 0.0458 0.17682 0.03223 0.0
C19 C 0.06478 0.00716 0.05685 0.0
Tb20 Tb 0.93513 -0.00307 0.49234 0.0
C21 C 0.93535 0.90279 0.5646 0.0
Tb22 Tb 0.06262 0.04421 0.53023 0.0
O23 O 0.96757 0.98352 0.42912 0.0
O24 O 0.00415 0.97197 0.48528 0.0
O25 O 0.89779 0.91326 0.54094 0.0
C26 C 0.18269 0.08061 0.54952 0.0
O27 O 0.00145 0.94489 0.56244 0.0
C28 C 0.98502 0.06143 0.57887 0.0
C29 C 0.06014 0.13724 0.46118 0.0
O30 O 0.1343 0.02137 0.53966 0.0
O31 O 0.16404 0.11983 0.54787 0.0
O32 O 0.02795 0.05299 0.59408 0.0
O33 O 0.99298 0.06806 0.53792 0.0
O34 O 0.09667 0.11769 0.47503 0.0
O35 O -0.00405 0.10302 0.47358 0.0
C36 C 0.82244 0.97346 0.46675 0.0
O37 O 0.87669 -0.00115 0.44263 0.0
O38 O 0.82985 0.95818 0.50582 0.0
C39 C 0.01099 0.97612 0.44437 0.0
Zn40 Zn 0.31681 0.7264 0.18344 0.0
Zn41 Zn 0.26943 0.71679 0.34268 0.0
Zn42 Zn 0.29814 0.72301 0.26353 0.0
C43 C 0.40712 0.8119 0.32661 0.0
C44 C 0.23264 0.59209 0.3331 0.0
O45 O 0.24884 0.76384 0.2307 0.0
O46 O 0.25588 0.74525 0.16171 0.0
C47 C 0.44318 0.80684 0.20708 0.0
O48 O 0.3946 0.78566 0.28958 0.0
O49 O 0.36018 0.79488 0.35442 0.0
O50 O 0.2425 0.62844 0.36407 0.0
O51 O 0.24639 0.61734 0.29342 0.0
O52 O 0.41243 0.79601 0.17296 0.0
O53 O 0.40985 0.78237 0.24446 0.0
O54 O 0.24966 0.61978 0.24762 0.0
O55 O 0.28848 0.63457 0.17911 0.0
C56 C 0.25497 0.59635 0.21225 0.0
O57 O 0.24242 0.76834 0.27668 0.0
O58 O 0.19969 0.73101 0.34438 0.0
C59 C 0.23501 0.76485 0.19075 0.0
C60 C 0.20526 0.76273 0.30974 0.0
Zn61 Zn 0.6877 0.29906 0.83999 0.0
Zn62 Zn 0.73315 0.33402 0.68601 0.0
Zn63 Zn 0.70481 0.31915 0.76372 0.0
C64 C 0.77318 0.45805 0.70336 0.0
C65 C 0.59421 0.24474 0.70052 0.0
O66 O 0.7426 0.26212 0.78943 0.0
O67 O 0.68458 0.21871 0.85257 0.0
C68 C 0.79708 0.43064 0.82241 0.0
O69 O 0.76058 0.42957 0.74206 0.0
O70 O 0.7616 0.42439 0.67057 0.0
O71 O 0.64111 0.26089 0.6729 0.0
O72 O 0.60715 0.26703 0.73876 0.0
O73 O 0.77423 0.38316 0.85082 0.0
O74 O 0.76991 0.41942 0.78574 0.0
O75 O 0.59432 0.2688 0.78411 0.0
O76 O 0.60584 0.29298 0.85295 0.0
C77 C 0.56922 0.27069 0.82119 0.0
O78 O 0.75452 0.27017 0.74317 0.0
O79 O 0.8011 0.31768 0.67775 0.0
C80 C 0.7255 0.22353 0.8242 0.0
C81 C 0.79227 0.27934 0.70942 0.0
C82 C 0.03709 0.91002 0.10427 0.0
C83 C 0.08382 0.96688 0.07738 0.0
C84 C 0.05607 0.87375 0.12644 0.0
C85 C 0.12254 0.89372 0.12006 0.0
C86 C 0.16934 0.95025 0.09191 0.0
C87 C 0.14961 0.98696 0.0715 0.0
C88 C 0.00547 0.81488 0.15712 0.0
C89 C 0.24011 0.97179 0.08317 0.0
C90 C 0.20312 0.8434 0.19828 0.0
C91 C 0.1978 0.79146 0.17704 0.0
C92 C 0.17531 0.87483 0.18143 0.0
C93 C 0.14323 0.85479 0.1418 0.0
C94 C 0.13597 0.80099 0.12091 0.0
C95 C 0.16292 0.76964 0.139 0.0
C96 C 0.18275 0.93133 0.20488 0.0
C97 C 0.10324 0.77902 0.07814 0.0
H98 H 0.98629 0.89515 0.10899 0.0
H99 H 0.1854 0.03092 0.05046 0.0
H100 H -0.00134 0.7689 0.14656 0.0
H101 H 0.02399 0.82307 0.19035 0.0
H102 H 0.95606 0.80649 0.15885 0.0
H103 H 0.26943 0.01544 0.05919 0.0
H104 H 0.26609 0.98502 0.11393 0.0
H105 H 0.23962 0.92996 0.07053 0.0
H106 H 0.23233 0.86203 0.22649 0.0
H107 H 0.15882 0.72945 0.1224 0.0
H108 H 0.13303 0.92125 0.21116 0.0
H109 H 0.2139 0.97848 0.18416 0.0
H110 H 0.20625 0.93884 0.23631 0.0
H111 H 0.05292 0.76837 0.08078 0.0
H112 H 0.09812 0.73381 0.06748 0.0
H113 H 0.13352 0.81991 0.05246 0.0
C114 C 0.23491 0.04937 0.60147 0.0
C115 C 0.2414 0.09603 0.57078 0.0
C116 C 0.28779 0.0665 0.62711 0.0
C117 C 0.3488 0.13064 0.62022 0.0
C118 C 0.35618 0.17698 0.58794 0.0
C119 C 0.30148 0.15949 0.56418 0.0
C120 C 0.2777 0.01712 0.66247 0.0
C121 C 0.42152 0.24508 0.57875 0.0
C122 C 0.47986 0.21668 0.70188 0.0
C123 C 0.52602 0.20539 0.68621 0.0
C124 C 0.41875 0.18773 0.6829 0.0
C125 C 0.40572 0.1496 0.64619 0.0
C126 C 0.45113 0.13602 0.6313 0.0
C127 C 0.51052 0.16346 0.65198 0.0
C128 C 0.37015 0.20131 0.70036 0.0
C129 C 0.43962 0.09708 0.59149 0.0
H130 H 0.18741 0.00071 0.60695 0.0
H131 H 0.30555 0.19525 0.54047 0.0
H132 H 0.3157 0.00705 0.65784 0.0
H133 H 0.28445 0.03861 0.69468 0.0
H134 H 0.22719 0.96899 0.66318 0.0
H135 H 0.41979 0.27336 0.55075 0.0
H136 H 0.43398 0.27473 0.60786 0.0
H137 H 0.46263 0.23995 0.57165 0.0
H138 H 0.493 0.25106 0.72725 0.0
H139 H 0.5466 0.15504 0.6398 0.0
H140 H 0.31878 0.15435 0.70412 0.0
H141 H 0.36931 0.23581 0.67699 0.0
H142 H 0.38376 0.22419 0.73233 0.0
H143 H 0.38917 0.04898 0.59424 0.0
H144 H 0.47737 0.08667 0.58631 0.0
H145 H 0.44209 0.12599 0.56221 0.0
C146 C 0.07048 0.28644 0.08585 0.0
C147 C 0.06116 0.2284 0.1028 0.0
C148 C 0.09179 0.3397 0.11232 0.0
C149 C 0.10497 0.33446 0.15617 0.0
C150 C 0.09081 0.27401 0.17414 0.0
C151 C 0.06868 0.2214 0.14715 0.0
C152 C 0.10486 0.40322 0.09252 0.0
C153 C 0.10458 0.26656 0.22056 0.0
C154 C 0.25127 0.50167 0.18602 0.0
C155 C 0.21912 0.52482 0.20835 0.0
C156 C 0.21475 0.43687 0.17223 0.0
C157 C 0.14442 0.39552 0.1801 0.0
C158 C 0.11252 0.41667 0.20617 0.0
C159 C 0.15074 0.4816 0.22042 0.0
C160 C 0.25089 0.41475 0.14623 0.0
C161 C 0.03773 0.37334 0.21568 0.0
H162 H 0.06347 0.29111 0.0517 0.0
H163 H 0.06054 0.1759 0.16044 0.0
H164 H 0.08397 0.42226 0.11467 0.0
H165 H 0.1596 0.44211 0.08783 0.0
H166 H 0.08292 0.39586 0.06043 0.0
H167 H 0.07529 0.21327 0.23258 0.0
H168 H 0.15845 0.28833 0.22207 0.0
H169 H 0.093 0.29345 0.24279 0.0
H170 H 0.30456 0.53546 0.17745 0.0
H171 H 0.12642 0.50016 0.23791 0.0
H172 H 0.23895 0.41205 0.11158 0.0
H173 H 0.23422 0.36421 0.15835 0.0
H174 H 0.30601 0.44963 0.14781 0.0
H175 H 0.01351 0.37434 0.18626 0.0
H176 H 0.02276 0.39118 0.2431 0.0
H177 H 0.01844 0.32068 0.22362 0.0
C178 C 0.96002 0.0914 0.64967 0.0
C179 C 0.94918 0.08143 0.60527 0.0
C180 C 0.93188 0.11708 0.67431 0.0
C181 C 0.89149 0.13249 0.65408 0.0
C182 C 0.87716 0.1186 0.60988 0.0
C183 C 0.90659 0.09362 0.5859 0.0
C184 C 0.94863 0.13124 0.72117 0.0
C185 C 0.83329 0.13313 0.5873 0.0
C186 C 0.78445 0.17398 0.71459 0.0
C187 C 0.82256 0.24307 0.70516 0.0
C188 C 0.80793 0.13707 0.70062 0.0
C189 C 0.87083 0.17048 0.67696 0.0
C190 C 0.91169 0.24097 0.67095 0.0
C191 C 0.88673 0.2763 0.68476 0.0
C192 C 0.76315 0.06211 0.70822 0.0
C193 C 0.97997 0.27885 0.6472 0.0
H194 H 0.99262 0.08152 0.66485 0.0
H195 H 0.89758 0.0852 0.5517 0.0
H196 H 0.90411 0.11735 0.74178 0.0
H197 H 0.96817 0.10399 0.73455 0.0
H198 H 0.98729 0.18554 0.72339 0.0
H199 H 0.82142 0.11307 0.55444 0.0
H200 H 0.78579 0.1113 0.60717 0.0
H201 H 0.85901 0.18792 0.58367 0.0
H202 H 0.73463 0.14831 0.73023 0.0
H203 H 0.91632 0.3299 0.67781 0.0
H204 H 0.79242 0.04243 0.71582 0.0
H205 H 0.73735 0.03967 0.67811 0.0
H206 H 0.72458 0.04569 0.73522 0.0
H207 H 0.97451 0.26804 0.61224 0.0
H208 H 0.00979 0.2626 0.66057 0.0
H209 H 0.0082 0.33367 0.64955 0.0
C210 C 0.82432 0.96618 0.12583 0.0
C211 C 0.81832 0.9306 0.08939 0.0
C212 C 0.76802 0.94733 0.15278 0.0
C213 C 0.70372 0.893 0.14218 0.0
C214 C 0.69763 0.85575 0.10605 0.0
C215 C 0.75519 0.87437 0.0805 0.0
C216 C 0.77722 0.98711 0.19167 0.0
C217 C 0.62998 0.79831 0.09298 0.0
C218 C 0.54507 0.81 0.21731 0.0
C219 C 0.51618 0.84053 0.20094 0.0
C220 C 0.60832 0.82943 0.20051 0.0
C221 C 0.64246 0.87928 0.16581 0.0
C222 C 0.61502 0.91274 0.15102 0.0
C223 C 0.55261 0.89325 0.16896 0.0
C224 C 0.63692 0.79412 0.21815 0.0
C225 C 0.64895 0.96557 0.11381 0.0
H226 H 0.87328 0.00931 0.13311 0.0
H227 H 0.75043 0.84699 0.05229 0.0
H228 H 0.75829 0.01746 0.18517 0.0
H229 H 0.74802 0.95326 0.22087 0.0
H230 H 0.83056 0.02126 0.19913 0.0
H231 H 0.63386 0.7724 0.06549 0.0
H232 H 0.60155 0.76147 0.12103 0.0
H233 H 0.60069 0.81711 0.08309 0.0
H234 H 0.51607 0.76739 0.2406 0.0
H235 H 0.5299 0.91617 0.1557 0.0
H236 H 0.68704 0.83115 0.23002 0.0
H237 H 0.64357 0.76835 0.19189 0.0
H238 H 0.60448 0.75674 0.24528 0.0
H239 H 0.70145 0.00506 0.12053 0.0
H240 H 0.62293 0.98928 0.10776 0.0
H241 H 0.65014 0.94278 0.08359 0.0
C242 C 0.9382 0.84147 0.62948 0.0
C243 C 0.90426 0.84127 0.59371 0.0
C244 C 0.91484 0.78251 0.6546 0.0
C245 C 0.85646 0.72134 0.64344 0.0
C246 C 0.81989 0.72141 0.60886 0.0
C247 C 0.84394 0.78151 0.5846 0.0
C248 C 0.95436 0.78523 0.6919 0.0
C249 C 0.75766 0.65729 0.59564 0.0
C250 C 0.84975 0.56476 0.65973 0.0
C251 C 0.80196 0.52963 0.69478 0.0
C252 C 0.86883 0.6276 0.64368 0.0
C253 C 0.83969 0.65679 0.66322 0.0
C254 C 0.79383 0.62317 0.70015 0.0
C255 C 0.77488 0.55946 0.71526 0.0
C256 C 0.91828 0.66147 0.60451 0.0
C257 C 0.76269 0.65307 0.72256 0.0
H258 H 0.98421 0.88777 0.63731 0.0
H259 H 0.8174 0.78099 0.55711 0.0
H260 H 0.92149 0.76331 0.7223 0.0
H261 H 0.97343 0.75508 0.68541 0.0
H262 H -0.00254 0.83704 0.69733 0.0
H263 H 0.73118 0.66635 0.5713 0.0
H264 H 0.77137 0.62586 0.58131 0.0
H265 H 0.72282 0.62852 0.62455 0.0
H266 H 0.8705 0.54165 0.64364 0.0
H267 H 0.73701 0.53194 0.74184 0.0
H268 H 0.96146 0.71195 0.61215 0.0
H269 H 0.89424 0.66782 0.57697 0.0
H270 H 0.93734 0.63269 0.59372 0.0
H271 H 0.8012 0.70645 0.72789 0.0
H272 H 0.73665 0.62621 0.75445 0.0
H273 H 0.72584 0.65062 0.70151 0.0
C274 C 0.04393 0.95501 0.37288 0.0
C275 C 0.04481 0.95342 0.41846 0.0
C276 C 0.07126 0.92894 0.34774 0.0
C277 C 0.10021 0.90083 0.36878 0.0
C278 C 0.10295 0.90097 0.41476 0.0
C279 C 0.0753 0.92743 0.43905 0.0
C280 C 0.06859 0.93094 0.2988 0.0
C281 C 0.13334 0.87135 0.43847 0.0
C282 C 0.1074 0.7651 0.32232 0.0
C283 C 0.1758 0.79979 0.31118 0.0
C284 C 0.08111 0.79847 0.33807 0.0
C285 C 0.12469 0.86798 0.34339 0.0
C286 C 0.19308 0.90393 0.32918 0.0
C287 C 0.21797 0.86919 0.31346 0.0
C288 C 0.00774 0.75839 0.35242 0.0
C289 C 0.241 0.97813 0.3337 0.0
H290 H 0.02091 0.97577 0.35687 0.0
H291 H 0.07605 0.92621 0.47427 0.0
H292 H 0.12014 0.96422 0.28349 0.0
H293 H 0.04596 0.88053 0.28676 0.0
H294 H 0.03956 0.94953 0.28777 0.0
H295 H 0.13373 0.87761 0.4741 0.0
H296 H 0.10464 0.81726 0.4332 0.0
H297 H 0.18545 0.89517 0.42531 0.0
H298 H 0.07524 0.71116 0.32141 0.0
H299 H 0.27122 0.89563 0.30586 0.0
H300 H 0.98523 0.78281 0.33931 0.0
H301 H 0.00188 0.756 0.38851 0.0
H302 H 0.97946 0.70659 0.34166 0.0
H303 H 0.21917 0.00407 0.32227 0.0
H304 H 0.28955 5e-05 0.31505 0.0
H305 H 0.25062 0.98782 0.36856 0.0
C306 C 0.20873 0.07655 0.93553 0.0
C307 C 0.16981 0.0991 0.92575 0.0
C308 C 0.27099 0.10409 0.91319 0.0
C309 C 0.29397 0.15368 0.87879 0.0
C310 C 0.25317 0.17434 0.86739 0.0
C311 C 0.19223 0.14794 0.89171 0.0
C312 C 0.31346 0.08215 0.92782 0.0
C313 C 0.27434 0.22495 0.82989 0.0
C314 C 0.48296 0.27516 0.86138 0.0
C315 C 0.4982 0.24591 0.82933 0.0
C316 C 0.41681 0.24694 0.87652 0.0
C317 C 0.36357 0.18857 0.85844 0.0
C318 C 0.37821 0.1608 0.82421 0.0
C319 C 0.44546 0.1889 0.81076 0.0
C320 C 0.40436 0.27743 0.9139 0.0
C321 C 0.32302 0.09999 0.80292 0.0
H322 H 0.19148 0.03888 0.96197 0.0
H323 H 0.16171 0.16477 0.88375 0.0
H324 H 0.32626 0.06297 0.90018 0.0
H325 H 0.36114 0.12554 0.93906 0.0
H326 H 0.28804 0.04263 0.95478 0.0
H327 H 0.23343 0.22899 0.82141 0.0
H328 H 0.31764 0.27474 0.83846 0.0
H329 H 0.29059 0.21135 0.80068 0.0
H330 H 0.5234 0.31901 0.87616 0.0
H331 H 0.45667 0.16451 0.78723 0.0
H332 H 0.38104 0.24105 0.94262 0.0
H333 H 0.36904 0.28919 0.90506 0.0
H334 H 0.45108 0.32388 0.92353 0.0
H335 H 0.29907 0.05556 0.82611 0.0
H336 H 0.34189 0.09011 0.77312 0.0
H337 H 0.28382 0.1064 0.79409 0.0
C338 C 0.15716 0.25429 0.43711 0.0
C339 C 0.09071 0.19967 0.43342 0.0
C340 C 0.18299 0.31635 0.41508 0.0
C341 C 0.14179 0.32332 0.38805 0.0
C342 C 0.07645 0.26672 0.38156 0.0
C343 C 0.05137 0.20594 0.40483 0.0
C344 C 0.25296 0.37541 0.42277 0.0
C345 C 0.03174 0.27118 0.35176 0.0
C346 C 0.16746 0.49039 0.38357 0.0
C347 C 0.20558 0.52132 0.34408 0.0
C348 C 0.14648 0.4262 0.39785 0.0
C349 C 0.16309 0.39104 0.37179 0.0
C350 C 0.19992 0.42104 0.33118 0.0
C351 C 0.2217 0.48635 0.31816 0.0
C352 C 0.10761 0.3966 0.44145 0.0
C353 C 0.21854 0.38558 0.30205 0.0
H354 H 0.1878 0.24956 0.45903 0.0
H355 H 0.00027 0.16343 0.40122 0.0
H356 H 0.28163 0.40046 0.39122 0.0
H357 H 0.25073 0.41239 0.44073 0.0
H358 H 0.28038 0.36086 0.44189 0.0
H359 H 0.98769 0.22105 0.34415 0.0
H360 H 0.01353 0.29794 0.36763 0.0
H361 H 0.0599 0.29995 0.32079 0.0
H362 H 0.15484 0.51707 0.4039 0.0
H363 H 0.25345 0.51081 0.28863 0.0
H364 H 0.13459 0.3844 0.46307 0.0
H365 H 0.05804 0.34939 0.43707 0.0
H366 H 0.09972 0.43094 0.45807 0.0
H367 H 0.26506 0.3937 0.31276 0.0
H368 H 0.22795 0.40524 0.26758 0.0
H369 H 0.17894 0.331 0.30377 0.0
C370 C 0.92722 0.10678 0.93547 0.0
C371 C 0.91588 0.04921 0.91884 0.0
C372 C 0.90099 0.13819 0.9159 0.0
C373 C 0.86302 0.1113 0.87887 0.0
C374 C 0.85487 0.05535 0.86061 0.0
C375 C 0.8811 0.02476 0.88102 0.0
C376 C 0.91107 0.19809 0.93606 0.0
C377 C 0.81513 0.02485 0.82113 0.0
C378 C 0.72682 0.13553 0.8643 0.0
C379 C 0.75786 0.19017 0.83366 0.0
C380 C 0.76041 0.10904 0.8788 0.0
C381 C 0.82647 0.1375 0.86193 0.0
C382 C 0.85708 0.19086 0.82957 0.0
C383 C 0.82276 0.21732 0.81639 0.0
C384 C 0.72579 0.05171 0.91307 0.0
C385 C 0.92693 0.2221 0.80999 0.0
H386 H 0.95427 0.12567 0.96468 0.0
H387 H 0.8726 0.98034 0.86794 0.0
H388 H 0.93232 0.24001 0.91103 0.0
H389 H 0.86208 0.18553 0.94869 0.0
H390 H 0.94486 0.21505 0.96327 0.0
H391 H 0.83397 0.00092 0.80208 0.0
H392 H 0.76219 0.9856 0.83206 0.0
H393 H 0.81645 0.0622 0.79937 0.0
H394 H 0.67671 0.11453 0.87787 0.0
H395 H 0.8479 0.26098 0.79385 0.0
H396 H 0.75535 0.0664 0.94235 0.0
H397 H 0.72246 0.00835 0.90051 0.0
H398 H 0.67452 0.03569 0.92308 0.0
H399 H 0.96337 0.26171 0.83087 0.0
H400 H 0.93422 0.24548 0.77686 0.0
H401 H 0.93842 0.18508 0.80788 0.0
C402 C 0.69944 0.91446 0.46857 0.0
C403 C 0.76327 0.96495 0.45065 0.0
C404 C 0.64298 0.89953 0.44784 0.0
C405 C 0.6516 0.93714 0.40914 0.0
C406 C 0.71601 0.99182 0.39324 0.0
C407 C 0.77133 0.00466 0.41404 0.0
C408 C 0.57466 0.84054 0.46544 0.0
C409 C 0.72685 0.03395 0.35273 0.0
C410 C 0.51958 0.83817 0.32996 0.0
C411 C 0.47549 0.85451 0.34013 0.0
C412 C 0.57907 0.86734 0.35087 0.0
C413 C 0.59426 0.91396 0.38248 0.0
C414 C 0.55218 0.93428 0.39054 0.0
C415 C 0.49261 0.90367 0.36942 0.0
C416 C 0.62319 0.84478 0.34131 0.0
C417 C 0.56799 0.98521 0.42322 0.0
H418 H 0.69381 0.88417 0.497 0.0
H419 H 0.82118 0.04457 0.40075 0.0
H420 H 0.53972 0.85478 0.46852 0.0
H421 H 0.55409 0.80027 0.44233 0.0
H422 H 0.57616 0.82029 0.49775 0.0
H423 H 0.77837 0.08088 0.34913 0.0
H424 H 0.71854 0.00529 0.32357 0.0
H425 H 0.69067 0.04679 0.35326 0.0
H426 H 0.50496 0.79861 0.30846 0.0
H427 H 0.45799 0.916 0.3772 0.0
H428 H 0.62591 0.82048 0.37124 0.0
H429 H 0.67477 0.88838 0.33114 0.0
H430 H 0.60448 0.80894 0.31525 0.0
H431 H 0.56031 0.96282 0.45667 0.0
H432 H 0.53568 0.00267 0.4208 0.0
H433 H 0.6211 0.02901 0.41853 0.0
C434 C 0.87907 0.71281 0.95077 0.0
C435 C 0.94222 0.77287 0.9526 0.0
C436 C 0.87045 0.66205 0.9262 0.0
C437 C 0.9264 0.67251 0.90247 0.0
C438 C 0.99081 0.73236 0.90542 0.0
C439 C -0.00193 0.78193 0.9309 0.0
C440 C 0.80103 0.59803 0.92463 0.0
C441 C 0.05123 0.74551 0.88003 0.0
C442 C 0.88143 0.50641 0.87319 0.0
C443 C 0.84881 0.49851 0.83492 0.0
C444 C 0.91474 0.56671 0.89347 0.0
C445 C 0.91579 0.62005 0.87457 0.0
C446 C 0.89195 0.61549 0.83269 0.0
C447 C 0.8583 0.55421 0.81334 0.0
C448 C 0.94073 0.57004 0.93776 0.0
C449 C 0.89456 0.67236 0.81065 0.0
H450 H 0.8361 0.70619 0.96766 0.0
H451 H 0.04691 0.82901 0.93205 0.0
H452 H 0.78463 0.59212 0.89091 0.0
H453 H 0.80125 0.5545 0.93404 0.0
H454 H 0.76372 0.59691 0.94666 0.0
H455 H 0.09869 0.78913 0.89143 0.0
H456 H 0.05221 0.70126 0.88244 0.0
H457 H 0.04875 0.75577 0.84507 0.0
H458 H 0.87622 0.46387 0.88934 0.0
H459 H 0.8347 0.54871 0.78337 0.0
H460 H 0.90382 0.56289 0.96329 0.0
H461 H 0.98848 0.61944 0.9414 0.0
H462 H 0.94858 0.53061 0.94366 0.0
H463 H 0.85213 0.67216 0.82404 0.0
H464 H 0.8904 0.66735 0.77494 0.0
H465 H 0.9416 0.7212 0.8166 0.0
loop_
_geom_bond_atom_site_label_1
_geom_bond_atom_site_label_2
_geom_bond_distance
_geom_bond_site_symmetry_2
_ccdc_geom_bond_type
Tb0 O3 2.453 1_545 S
Tb0 O4 2.596 1_545 S
Tb0 O5 2.354 1_554 S
Tb0 O13 2.343 1_454 S
Tb0 O15 2.353 1_455 S
Tb0 O17 2.427 . S
Tb0 O18 2.513 . S
C1 O5 1.273 . S
C1 O7 1.263 . S
Tb2 O4 2.343 1_656 S
Tb2 O7 2.353 1_665 S
Tb2 O10 2.427 . S
Tb2 O11 2.513 . S
Tb2 O12 2.453 1_565 S
Tb2 O13 2.596 1_565 S
Tb2 O14 2.374 1_556 S
O3 Tb0 2.453 1_565 S
O3 C19 1.245 . S
O4 Tb0 2.596 1_565 S
O4 Tb2 2.343 1_454 S
O4 C19 1.259 . S
O5 Tb0 2.354 1_556 S
O5 C1 1.273 . S
C6 O10 1.275 . S
C6 O11 1.246 . S
O7 C1 1.263 . S
O7 Tb2 2.353 1_445 S
C8 O12 1.245 . S
C8 O13 1.259 . S
C9 O14 1.250 . S
C9 O15 1.263 1_565 S
O10 Tb2 2.427 . S
O10 C6 1.275 . S
O11 Tb2 2.513 . S
O11 C6 1.246 . S
O12 Tb2 2.453 1_545 S
O12 C8 1.245 . S
O13 Tb0 2.343 1_656 S
O13 Tb2 2.596 1_545 S
O13 C8 1.259 . S
O14 Tb2 2.374 1_554 S
O14 C9 1.250 . S
O15 Tb0 2.353 1_655 S
O15 C9 1.263 1_545 S
C16 O17 1.275 . S
C16 O18 1.246 . S
O17 Tb0 2.427 . S
O17 C16 1.275 . S
O18 Tb0 2.513 . S
O18 C16 1.246 . S
C19 O3 1.245 . S
C19 O4 1.259 . S
Tb20 O23 2.453 1_655 S
Tb20 O24 2.596 1_665 S
Tb20 O25 2.374 . S
Tb20 O33 2.343 1_565 S
Tb20 O35 2.353 1_665 S
Tb20 O37 2.427 1_565 S
Tb20 O38 2.513 . S
C21 O25 1.251 . S
C21 O27 1.263 . S
Tb22 O24 2.343 . S
Tb22 O27 2.353 1_445 S
Tb22 O30 2.427 . S
Tb22 O31 2.513 . S
Tb22 O32 2.453 1_455 S
Tb22 O33 2.596 1_455 S
Tb22 O34 2.374 . S
O23 Tb20 2.453 1_455 S
O23 C39 1.245 . S
O24 Tb20 2.596 1_445 S
O24 Tb22 2.343 . S
O24 C39 1.259 1_545 S
O25 Tb20 2.374 . S
O25 C21 1.251 . S
C26 O30 1.275 . S
C26 O31 1.246 . S
O27 C21 1.263 . S
O27 Tb22 2.353 1_665 S
C28 O32 1.245 . S
C28 O33 1.259 . S
C29 O34 1.250 . S
C29 O35 1.263 . S
O30 Tb22 2.427 . S
O30 C26 1.275 . S
O31 Tb22 2.513 . S
O31 C26 1.246 . S
O32 Tb22 2.453 1_655 S
O32 C28 1.245 . S
O33 Tb20 2.343 1_545 S
O33 Tb22 2.596 1_655 S
O33 C28 1.259 . S
O34 Tb22 2.374 . S
O34 C29 1.250 . S
O35 Tb20 2.353 1_445 S
O35 C29 1.263 . S
C36 O37 1.275 1_565 S
C36 O38 1.246 . S
O37 Tb20 2.427 1_545 S
O37 C36 1.275 1_545 S
O38 Tb20 2.513 . S
O38 C36 1.246 . S
C39 O23 1.245 . S
C39 O24 1.259 1_565 S
Zn40 O46 1.920 . S
Zn40 O52 1.898 . S
Zn40 O55 1.905 . S
Zn41 O49 1.905 . S
Zn41 O50 1.898 . S
Zn41 O58 1.920 . S
Zn42 O45 2.080 . S
Zn42 O48 2.114 . S
Zn42 O51 2.120 . S
Zn42 O53 2.120 . S
Zn42 O54 2.114 . S
Zn42 O57 2.080 . S
C43 O48 1.166 . S
C43 O49 1.182 . S
C44 O50 1.167 . S
C44 O51 1.299 . S
O45 Zn42 2.080 . S
O45 C59 1.305 . S
O46 Zn40 1.920 . S
O46 C59 1.234 . S
C47 O52 1.167 . S
C47 O53 1.299 . S
O48 Zn42 2.114 . S
O48 C43 1.166 . S
O49 Zn41 1.905 . S
O49 C43 1.182 . S
O50 Zn41 1.898 . S
O50 C44 1.167 . S
O51 Zn42 2.120 . S
O51 C44 1.299 . S
O52 Zn40 1.898 . S
O52 C47 1.167 . S
O53 Zn42 2.120 . S
O53 C47 1.299 . S
O54 Zn42 2.114 . S
O54 C56 1.166 . S
O55 Zn40 1.905 . S
O55 C56 1.182 . S
C56 O54 1.166 . S
C56 O55 1.182 . S
O57 Zn42 2.080 . S
O57 C60 1.305 . S
O58 Zn41 1.920 . S
O58 C60 1.234 . S
C59 O45 1.305 . S
C59 O46 1.234 . S
C60 O57 1.305 . S
C60 O58 1.234 . S
Zn61 O67 1.920 . S
Zn61 O73 1.898 . S
Zn61 O76 1.905 . S
Zn62 O70 1.905 . S
Zn62 O71 1.898 . S
Zn62 O79 1.920 . S
Zn63 O66 2.080 . S
Zn63 O69 2.114 . S
Zn63 O72 2.120 . S
Zn63 O74 2.120 . S
Zn63 O75 2.114 . S
Zn63 O78 2.080 . S
C64 O69 1.166 . S
C64 O70 1.182 . S
C65 O71 1.167 . S
C65 O72 1.299 . S
O66 Zn63 2.080 . S
O66 C80 1.305 . S
O67 Zn61 1.920 . S
O67 C80 1.234 . S
C68 O73 1.167 . S
C68 O74 1.299 . S
O69 Zn63 2.114 . S
O69 C64 1.166 . S
O70 Zn62 1.905 . S
O70 C64 1.182 . S
O71 Zn62 1.898 . S
O71 C65 1.167 . S
O72 Zn63 2.120 . S
O72 C65 1.299 . S
O73 Zn61 1.898 . S
O73 C68 1.167 . S
O74 Zn63 2.120 . S
O74 C68 1.299 . S
O75 Zn63 2.114 . S
O75 C77 1.166 . S
O76 Zn61 1.905 . S
O76 C77 1.182 . S
C77 O75 1.166 . S
C77 O76 1.182 . S
O78 Zn63 2.080 . S
O78 C81 1.305 . S
O79 Zn62 1.920 . S
O79 C81 1.234 . S
C80 O66 1.305 . S
C80 O67 1.234 . S
C81 O78 1.305 . S
C81 O79 1.234 . S
C82 C83 1.391 . S
C82 C84 1.394 . S
C82 H98 0.931 1_455 S
C83 C82 1.391 . S
C83 C87 1.376 . S
C84 C82 1.394 . S
C84 C85 1.369 . S
C84 C88 1.531 . S
C85 C84 1.369 . S
C85 C86 1.410 . S
C85 C93 1.503 . S
C86 C85 1.410 . S
C86 C87 1.392 . S
C86 C89 1.511 . S
C87 C83 1.376 . S
C87 C86 1.392 . S
C87 H99 0.929 . S
C88 C84 1.531 . S
C88 H100 0.960 . S
C88 H101 0.962 . S
C88 H102 0.960 1_455 S
C89 C86 1.511 . S
C89 H103 0.961 . S
C89 H104 0.961 . S
C89 H105 0.961 . S
C90 C91 1.370 . S
C90 C92 1.363 . S
C90 H106 0.931 . S
C91 C90 1.370 . S
C91 C95 1.408 . S
C92 C90 1.363 . S
C92 C93 1.370 . S
C92 C96 1.524 . S
C93 C85 1.503 . S
C93 C92 1.370 . S
C93 C94 1.403 . S
C94 C93 1.403 . S
C94 C95 1.404 . S
C94 C97 1.539 . S
C95 C91 1.408 . S
C95 C94 1.404 . S
C95 H107 0.930 . S
C96 C92 1.524 . S
C96 H108 0.956 . S
C96 H109 0.961 . S
C96 H110 0.961 . S
C97 C94 1.539 . S
C97 H111 0.958 . S
C97 H112 0.961 . S
C97 H113 0.960 . S
H98 C82 0.931 1_655 S
H99 C87 0.929 . S
H100 C88 0.960 . S
H101 C88 0.962 . S
H102 C88 0.960 1_655 S
H103 C89 0.961 . S
H104 C89 0.961 . S
H105 C89 0.961 . S
H106 C90 0.931 . S
H107 C95 0.930 . S
H108 C96 0.956 . S
H109 C96 0.961 . S
H110 C96 0.961 . S
H111 C97 0.958 . S
H112 C97 0.961 . S
H113 C97 0.960 . S
C114 C115 1.391 . S
C114 C116 1.394 . S
C114 H130 0.931 1_545 S
C115 C114 1.391 . S
C115 C119 1.376 . S
C116 C114 1.394 . S
C116 C117 1.369 . S
C116 C120 1.531 . S
C117 C116 1.369 . S
C117 C118 1.410 . S
C117 C125 1.503 . S
C118 C117 1.410 . S
C118 C119 1.392 . S
C118 C121 1.511 . S
C119 C115 1.376 . S
C119 C118 1.392 . S
C119 H131 0.929 . S
C120 C116 1.531 . S
C120 H132 0.960 . S
C120 H133 0.962 . S
C120 H134 0.960 1_545 S
C121 C118 1.511 . S
C121 H135 0.961 . S
C121 H136 0.961 . S
C121 H137 0.961 . S
C122 C123 1.370 . S
C122 C124 1.363 . S
C122 H138 0.931 . S
C123 C122 1.370 . S
C123 C127 1.408 . S
C124 C122 1.363 . S
C124 C125 1.370 . S
C124 C128 1.524 . S
C125 C117 1.503 . S
C125 C124 1.370 . S
C125 C126 1.403 . S
C126 C125 1.403 . S
C126 C127 1.404 . S
C126 C129 1.539 . S
C127 C123 1.408 . S
C127 C126 1.404 . S
C127 H139 0.930 . S
C128 C124 1.524 . S
C128 H140 0.956 . S
C128 H141 0.961 . S
C128 H142 0.961 . S
C129 C126 1.539 . S
C129 H143 0.958 . S
C129 H144 0.961 . S
C129 H145 0.960 . S
H130 C114 0.931 1_565 S
H131 C119 0.929 . S
H132 C120 0.960 . S
H133 C120 0.962 . S
H134 C120 0.960 1_565 S
H135 C121 0.961 . S
H136 C121 0.961 . S
H137 C121 0.961 . S
H138 C122 0.931 . S
H139 C127 0.930 . S
H140 C128 0.956 . S
H141 C128 0.961 . S
H142 C128 0.961 . S
H143 C129 0.958 . S
H144 C129 0.961 . S
H145 C129 0.960 . S
C146 C147 1.391 . S
C146 C148 1.394 . S
C146 H162 0.931 . S
C147 C146 1.391 . S
C147 C151 1.376 . S
C148 C146 1.394 . S
C148 C149 1.369 . S
C148 C152 1.531 . S
C149 C148 1.369 . S
C149 C150 1.410 . S
C149 C157 1.503 . S
C150 C149 1.410 . S
C150 C151 1.392 . S
C150 C153 1.511 . S
C151 C147 1.376 . S
C151 C150 1.392 . S
C151 H163 0.929 . S
C152 C148 1.531 . S
C152 H164 0.960 . S
C152 H165 0.962 . S
C152 H166 0.960 . S
C153 C150 1.511 . S
C153 H167 0.961 . S
C153 H168 0.961 . S
C153 H169 0.961 . S
C154 C155 1.370 . S
C154 C156 1.363 . S
C154 H170 0.931 . S
C155 C154 1.370 . S
C155 C159 1.408 . S
C156 C154 1.363 . S
C156 C157 1.370 . S
C156 C160 1.524 . S
C157 C149 1.503 . S
C157 C156 1.370 . S
C157 C158 1.403 . S
C158 C157 1.403 . S
C158 C159 1.404 . S
C158 C161 1.539 . S
C159 C155 1.408 . S
C159 C158 1.404 . S
C159 H171 0.930 . S
C160 C156 1.524 . S
C160 H172 0.956 . S
C160 H173 0.961 . S
C160 H174 0.961 . S
C161 C158 1.539 . S
C161 H175 0.958 . S
C161 H176 0.961 . S
C161 H177 0.960 . S
H162 C146 0.931 . S
H163 C151 0.929 . S
H164 C152 0.960 . S
H165 C152 0.962 . S
H166 C152 0.960 . S
H167 C153 0.961 . S
H168 C153 0.961 . S
H169 C153 0.961 . S
H170 C154 0.931 . S
H171 C159 0.930 . S
H172 C160 0.956 . S
H173 C160 0.961 . S
H174 C160 0.961 . S
H175 C161 0.958 . S
H176 C161 0.961 . S
H177 C161 0.960 . S
C178 C179 1.391 . S
C178 C180 1.394 . S
C178 H194 0.931 . S
C179 C178 1.391 . S
C179 C183 1.376 . S
C180 C178 1.394 . S
C180 C181 1.369 . S
C180 C184 1.531 . S
C181 C180 1.369 . S
C181 C182 1.410 . S
C181 C189 1.503 . S
C182 C181 1.410 . S
C182 C183 1.392 . S
C182 C185 1.511 . S
C183 C179 1.376 . S
C183 C182 1.392 . S
C183 H195 0.935 . S
C184 C180 1.531 . S
C184 H196 0.960 . S
C184 H197 0.962 . S
C184 H198 0.960 . S
C185 C182 1.511 . S
C185 H199 0.961 1_655 S
C185 H200 0.961 . S
C185 H201 0.961 1_655 S
C186 C187 1.370 . S
C186 C188 1.363 . S
C186 H202 0.931 . S
C187 C186 1.370 . S
C187 C191 1.408 . S
C188 C186 1.363 . S
C188 C189 1.370 . S
C188 C192 1.524 . S
C189 C181 1.503 . S
C189 C188 1.370 . S
C189 C190 1.403 . S
C190 C189 1.403 . S
C190 C191 1.404 . S
C190 C193 1.539 . S
C191 C187 1.408 . S
C191 C190 1.404 . S
C191 H203 0.930 . S
C192 C188 1.524 . S
C192 H204 0.956 . S
C192 H205 0.961 . S
C192 H206 0.961 . S
C193 C190 1.539 . S
C193 H207 0.958 . S
C193 H208 0.961 . S
C193 H209 0.960 . S
H194 C178 0.931 . S
H195 C183 0.935 . S
H196 C184 0.960 . S
H197 C184 0.962 . S
H198 C184 0.960 . S
H199 C185 0.961 1_455 S
H200 C185 0.961 . S
H201 C185 0.961 1_455 S
H202 C186 0.931 . S
H203 C191 0.930 . S
H204 C192 0.956 . S
H205 C192 0.961 . S
H206 C192 0.961 . S
H207 C193 0.958 . S
H208 C193 0.961 . S
H209 C193 0.960 . S
C210 C211 1.391 . S
C210 C212 1.394 . S
C210 H226 0.931 . S
C211 C210 1.391 . S
C211 C215 1.376 . S
C212 C210 1.394 . S
C212 C213 1.369 . S
C212 C216 1.531 . S
C213 C212 1.369 . S
C213 C214 1.410 . S
C213 C221 1.503 . S
C214 C213 1.410 . S
C214 C215 1.392 . S
C214 C217 1.511 . S
C215 C211 1.376 . S
C215 C214 1.392 . S
C215 H227 0.929 . S
C216 C212 1.531 . S
C216 H228 0.960 . S
C216 H229 0.962 . S
C216 H230 0.960 . S
C217 C214 1.511 . S
C217 H231 0.961 . S
C217 H232 0.961 . S
C217 H233 0.961 . S
C218 C219 1.370 . S
C218 C220 1.363 . S
C218 H234 0.931 . S
C219 C218 1.370 . S
C219 C223 1.408 . S
C220 C218 1.363 . S
C220 C221 1.370 . S
C220 C224 1.524 . S
C221 C213 1.503 . S
C221 C220 1.370 . S
C221 C222 1.403 . S
C222 C221 1.403 . S
C222 C223 1.404 . S
C222 C225 1.539 1_565 S
C223 C219 1.408 . S
C223 C222 1.404 . S
C223 H235 0.930 . S
C224 C220 1.524 . S
C224 H236 0.956 . S
C224 H237 0.961 . S
C224 H238 0.961 . S
C225 C222 1.539 1_545 S
C225 H239 0.958 . S
C225 H240 0.961 . S
C225 H241 0.960 . S
H226 C210 0.931 . S
H227 C215 0.929 . S
H228 C216 0.960 . S
H229 C216 0.962 . S
H230 C216 0.960 . S
H231 C217 0.961 . S
H232 C217 0.961 . S
H233 C217 0.961 . S
H234 C218 0.931 . S
H235 C223 0.930 . S
H236 C224 0.956 . S
H237 C224 0.961 . S
H238 C224 0.961 . S
H239 C225 0.958 . S
H240 C225 0.961 . S
H241 C225 0.960 . S
C242 C243 1.391 . S
C242 C244 1.394 . S
C242 H258 0.917 1_655 S
C243 C242 1.391 . S
C243 C247 1.376 . S
C244 C242 1.394 . S
C244 C245 1.369 . S
C244 C248 1.531 . S
C245 C244 1.369 . S
C245 C246 1.410 . S
C245 C253 1.503 . S
C246 C245 1.410 . S
C246 C247 1.392 . S
C246 C249 1.511 . S
C247 C243 1.376 . S
C247 C246 1.392 . S
C247 H259 0.929 . S
C248 C244 1.531 . S
C248 H260 0.960 . S
C248 H261 0.962 . S
C248 H262 0.966 . S
C249 C246 1.511 . S
C249 H263 0.961 . S
C249 H264 0.961 . S
C249 H265 0.961 . S
C250 C251 1.370 . S
C250 C252 1.363 . S
C250 H266 0.931 . S
C251 C250 1.370 . S
C251 C255 1.408 . S
C252 C250 1.363 . S
C252 C253 1.370 . S
C252 C256 1.524 . S
C253 C245 1.503 . S
C253 C252 1.370 . S
C253 C254 1.403 . S
C254 C253 1.403 . S
C254 C255 1.404 . S
C254 C257 1.539 . S
C255 C251 1.408 . S
C255 C254 1.404 . S
C255 H267 0.930 . S
C256 C252 1.524 . S
C256 H268 0.956 . S
C256 H269 0.961 . S
C256 H270 0.961 . S
C257 C254 1.539 . S
C257 H271 0.958 . S
C257 H272 0.961 . S
C257 H273 0.960 . S
H258 C242 0.917 1_455 S
H259 C247 0.929 . S
H260 C248 0.960 . S
H261 C248 0.962 . S
H262 C248 0.966 . S
H263 C249 0.961 . S
H264 C249 0.961 . S
H265 C249 0.961 . S
H266 C250 0.931 . S
H267 C255 0.930 . S
H268 C256 0.956 . S
H269 C256 0.961 . S
H270 C256 0.961 . S
H271 C257 0.958 . S
H272 C257 0.961 . S
H273 C257 0.960 . S
C274 C275 1.391 . S
C274 C276 1.394 . S
C274 H290 0.931 . S
C275 C274 1.391 . S
C275 C279 1.376 . S
C276 C274 1.394 . S
C276 C277 1.369 . S
C276 C280 1.531 . S
C277 C276 1.369 . S
C277 C278 1.410 . S
C277 C285 1.503 . S
C278 C277 1.410 . S
C278 C279 1.392 . S
C278 C281 1.511 . S
C279 C275 1.376 . S
C279 C278 1.392 . S
C279 H291 0.929 1_565 S
C280 C276 1.531 . S
C280 H292 0.960 . S
C280 H293 0.962 . S
C280 H294 0.960 . S
C281 C278 1.511 . S
C281 H295 0.961 . S
C281 H296 0.961 . S
C281 H297 0.961 1_565 S
C282 C283 1.370 . S
C282 C284 1.363 . S
C282 H298 0.931 . S
C283 C282 1.370 . S
C283 C287 1.408 . S
C284 C282 1.363 . S
C284 C285 1.370 . S
C284 C288 1.524 . S
C285 C277 1.503 . S
C285 C284 1.370 . S
C285 C286 1.403 . S
C286 C285 1.403 . S
C286 C287 1.404 . S
C286 C289 1.539 . S
C287 C283 1.408 . S
C287 C286 1.404 . S
C287 H299 0.930 . S
C288 C284 1.524 . S
C288 H300 0.956 . S
C288 H301 0.961 . S
C288 H302 0.961 . S
C289 C286 1.539 . S
C289 H303 0.958 . S
C289 H304 0.961 1_565 S
C289 H305 0.960 1_565 S
H290 C274 0.931 . S
H291 C279 0.929 1_545 S
H292 C280 0.960 . S
H293 C280 0.962 . S
H294 C280 0.960 . S
H295 C281 0.961 . S
H296 C281 0.961 . S
H297 C281 0.961 1_545 S
H298 C282 0.931 . S
H299 C287 0.930 . S
H300 C288 0.956 . S
H301 C288 0.961 . S
H302 C288 0.961 . S
H303 C289 0.958 . S
H304 C289 0.961 1_545 S
H305 C289 0.960 1_545 S
C306 C307 1.391 . S
C306 C308 1.394 . S
C306 H322 0.931 . S
C307 C306 1.391 . S
C307 C311 1.376 . S
C308 C306 1.394 . S
C308 C309 1.369 . S
C308 C312 1.531 . S
C309 C308 1.369 . S
C309 C310 1.410 . S
C309 C317 1.503 . S
C310 C309 1.410 . S
C310 C311 1.392 . S
C310 C313 1.511 . S
C311 C307 1.376 . S
C311 C310 1.392 . S
C311 H323 0.929 . S
C312 C308 1.531 . S
C312 H324 0.960 . S
C312 H325 0.962 . S
C312 H326 0.960 . S
C313 C310 1.511 . S
C313 H327 0.961 . S
C313 H328 0.961 . S
C313 H329 0.961 . S
C314 C315 1.370 . S
C314 C316 1.363 . S
C314 H330 0.931 . S
C315 C314 1.370 . S
C315 C319 1.408 . S
C316 C314 1.363 . S
C316 C317 1.370 . S
C316 C320 1.524 . S
C317 C309 1.503 . S
C317 C316 1.370 . S
C317 C318 1.403 . S
C318 C317 1.403 . S
C318 C319 1.404 . S
C318 C321 1.539 . S
C319 C315 1.408 . S
C319 C318 1.404 . S
C319 H331 0.930 . S
C320 C316 1.524 . S
C320 H332 0.956 . S
C320 H333 0.961 . S
C320 H334 0.961 . S
C321 C318 1.539 . S
C321 H335 0.958 . S
C321 H336 0.961 . S
C321 H337 0.960 . S
H322 C306 0.931 . S
H323 C311 0.929 . S
H324 C312 0.960 . S
H325 C312 0.962 . S
H326 C312 0.960 . S
H327 C313 0.961 . S
H328 C313 0.961 . S
H329 C313 0.961 . S
H330 C314 0.931 . S
H331 C319 0.930 . S
H332 C320 0.956 . S
H333 C320 0.961 . S
H334 C320 0.961 . S
H335 C321 0.958 . S
H336 C321 0.961 . S
H337 C321 0.960 . S
C338 C339 1.391 . S
C338 C340 1.394 . S
C338 H354 0.931 . S
C339 C338 1.391 . S
C339 C343 1.376 . S
C340 C338 1.394 . S
C340 C341 1.369 . S
C340 C344 1.531 . S
C341 C340 1.369 . S
C341 C342 1.410 . S
C341 C349 1.503 . S
C342 C341 1.410 . S
C342 C343 1.392 . S
C342 C345 1.511 . S
C343 C339 1.376 . S
C343 C342 1.392 . S
C343 H355 0.929 . S
C344 C340 1.531 . S
C344 H356 0.960 . S
C344 H357 0.962 . S
C344 H358 0.960 . S
C345 C342 1.511 . S
C345 H359 0.961 . S
C345 H360 0.961 . S
C345 H361 0.961 . S
C346 C347 1.370 . S
C346 C348 1.363 . S
C346 H362 0.931 . S
C347 C346 1.370 . S
C347 C351 1.408 . S
C348 C346 1.363 . S
C348 C349 1.370 . S
C348 C352 1.524 . S
C349 C341 1.503 . S
C349 C348 1.370 . S
C349 C350 1.403 . S
C350 C349 1.403 . S
C350 C351 1.404 . S
C350 C353 1.539 . S
C351 C347 1.408 . S
C351 C350 1.404 . S
C351 H363 0.930 . S
C352 C348 1.524 . S
C352 H364 0.956 . S
C352 H365 0.961 . S
C352 H366 0.979 . S
C353 C350 1.539 . S
C353 H367 0.958 . S
C353 H368 0.961 . S
C353 H369 0.960 . S
H354 C338 0.931 . S
H355 C343 0.929 . S
H356 C344 0.960 . S
H357 C344 0.962 . S
H358 C344 0.960 . S
H359 C345 0.961 . S
H360 C345 0.961 . S
H361 C345 0.961 . S
H362 C346 0.931 . S
H363 C351 0.930 . S
H364 C352 0.956 . S
H365 C352 0.961 . S
H366 C352 0.979 . S
H367 C353 0.958 . S
H368 C353 0.961 . S
H369 C353 0.960 . S
C370 C371 1.391 . S
C370 C372 1.394 . S
C370 H386 0.931 1_556 S
C371 C370 1.391 . S
C371 C375 1.376 . S
C372 C370 1.394 . S
C372 C373 1.369 . S
C372 C376 1.531 . S
C373 C372 1.369 . S
C373 C374 1.410 . S
C373 C381 1.503 . S
C374 C373 1.410 . S
C374 C375 1.392 . S
C374 C377 1.511 . S
C375 C371 1.376 . S
C375 C374 1.392 . S
C375 H387 0.929 . S
C376 C372 1.531 . S
C376 H388 0.960 . S
C376 H389 0.962 . S
C376 H390 0.960 1_556 S
C377 C374 1.511 . S
C377 H391 0.961 . S
C377 H392 0.961 . S
C377 H393 0.961 . S
C378 C379 1.370 . S
C378 C380 1.363 . S
C378 H394 0.931 . S
C379 C378 1.370 . S
C379 C383 1.408 . S
C380 C378 1.363 . S
C380 C381 1.370 . S
C380 C384 1.524 . S
C381 C373 1.503 . S
C381 C380 1.370 . S
C381 C382 1.403 . S
C382 C381 1.403 . S
C382 C383 1.404 . S
C382 C385 1.539 . S
C383 C379 1.408 . S
C383 C382 1.404 . S
C383 H395 0.930 . S
C384 C380 1.524 . S
C384 H396 0.956 . S
C384 H397 0.961 . S
C384 H398 0.961 . S
C385 C382 1.539 . S
C385 H399 0.958 . S
C385 H400 0.961 . S
C385 H401 0.960 . S
H386 C370 0.931 1_554 S
H387 C375 0.929 . S
H388 C376 0.960 . S
H389 C376 0.962 . S
H390 C376 0.960 1_554 S
H391 C377 0.961 . S
H392 C377 0.961 . S
H393 C377 0.961 . S
H394 C378 0.931 . S
H395 C383 0.930 . S
H396 C384 0.956 . S
H397 C384 0.961 . S
H398 C384 0.961 . S
H399 C385 0.958 . S
H400 C385 0.961 . S
H401 C385 0.960 . S
C402 C403 1.391 . S
C402 C404 1.394 . S
C402 H418 0.931 . S
C403 C402 1.391 . S
C403 C407 1.376 . S
C404 C402 1.394 . S
C404 C405 1.369 . S
C404 C408 1.531 . S
C405 C404 1.369 . S
C405 C406 1.410 . S
C405 C413 1.503 . S
C406 C405 1.410 . S
C406 C407 1.392 . S
C406 C409 1.511 . S
C407 C403 1.376 . S
C407 C406 1.392 . S
C407 H419 0.929 1_565 S
C408 C404 1.531 . S
C408 H420 0.960 . S
C408 H421 0.962 . S
C408 H422 0.960 . S
C409 C406 1.511 . S
C409 H423 0.961 1_565 S
C409 H424 0.961 . S
C409 H425 0.961 1_565 S
C410 C411 1.370 . S
C410 C412 1.363 . S
C410 H426 0.931 . S
C411 C410 1.370 . S
C411 C415 1.408 . S
C412 C410 1.363 . S
C412 C413 1.370 . S
C412 C416 1.524 . S
C413 C405 1.503 . S
C413 C412 1.370 . S
C413 C414 1.403 . S
C414 C413 1.403 . S
C414 C415 1.404 . S
C414 C417 1.539 . S
C415 C411 1.408 . S
C415 C414 1.404 . S
C415 H427 0.930 . S
C416 C412 1.524 . S
C416 H428 0.956 . S
C416 H429 0.961 . S
C416 H430 0.961 . S
C417 C414 1.539 . S
C417 H431 0.958 . S
C417 H432 0.961 . S
C417 H433 0.960 . S
H418 C402 0.931 . S
H419 C407 0.929 1_545 S
H420 C408 0.960 . S
H421 C408 0.962 . S
H422 C408 0.960 . S
H423 C409 0.961 1_545 S
H424 C409 0.961 . S
H425 C409 0.961 1_545 S
H426 C410 0.931 . S
H427 C415 0.930 . S
H428 C416 0.956 . S
H429 C416 0.961 . S
H430 C416 0.961 . S
H431 C417 0.958 . S
H432 C417 0.961 . S
H433 C417 0.960 . S
C434 C435 1.391 . S
C434 C436 1.394 . S
C434 H450 0.931 . S
C435 C434 1.391 . S
C435 C439 1.376 . S
C436 C434 1.394 . S
C436 C437 1.369 . S
C436 C440 1.531 . S
C437 C436 1.369 . S
C437 C438 1.410 . S
C437 C445 1.503 . S
C438 C437 1.410 . S
C438 C439 1.392 . S
C438 C441 1.511 1_655 S
C439 C435 1.376 . S
C439 C438 1.392 . S
C439 H451 0.929 1_655 S
C440 C436 1.531 . S
C440 H452 0.960 . S
C440 H453 0.962 . S
C440 H454 0.960 . S
C441 C438 1.511 1_455 S
C441 H455 0.961 . S
C441 H456 0.961 1_455 S
C441 H457 0.961 . S
C442 C443 1.370 . S
C442 C444 1.363 . S
C442 H458 0.931 . S
C443 C442 1.370 . S
C443 C447 1.408 . S
C444 C442 1.363 . S
C444 C445 1.370 . S
C444 C448 1.524 . S
C445 C437 1.503 . S
C445 C444 1.370 . S
C445 C446 1.403 . S
C446 C445 1.403 . S
C446 C447 1.404 . S
C446 C449 1.539 . S
C447 C443 1.408 . S
C447 C446 1.404 . S
C447 H459 0.930 . S
C448 C444 1.524 . S
C448 H460 0.956 . S
C448 H461 0.961 . S
C448 H462 0.961 . S
C449 C446 1.539 . S
C449 H463 0.958 . S
C449 H464 0.961 . S
C449 H465 0.960 . S
H450 C434 0.931 . S
H451 C439 0.929 1_455 S
H452 C440 0.960 . S
H453 C440 0.962 . S
H454 C440 0.960 . S
H455 C441 0.961 . S
H456 C441 0.961 1_655 S
H457 C441 0.961 . S
H458 C442 0.931 . S
H459 C447 0.930 . S
H460 C448 0.956 . S
H461 C448 0.961 . S
H462 C448 0.961 . S
H463 C449 0.958 . S
H464 C449 0.961 . S
H465 C449 0.960 . S
C83 C19 1.517 . S
C91 C59 1.440 . S
C115 C26 1.290 . S
C123 C65 1.161 . S
C147 C16 1.185 . S
C155 C56 1.187 . S
C179 C28 1.491 . S
C187 C81 1.530 . S
C211 C9 1.826 . S
C219 C47 1.678 . S
C251 C64 1.593 . S
C243 C21 1.648 . S
C275 C39 1.465 . S
C283 C60 1.466 . S
C315 C77 1.593 . S
C307 C1 1.663 . S
C347 C44 1.658 . S
C339 C29 1.816 . S
C379 C80 1.504 . S
C371 C8 1.555 . S
C411 C43 1.150 . S
C403 C36 1.243 . S
C443 C68 1.205 . S
C435 C6 1.231 . S
