# Generated by pormake.
# Topology nia, (6,6)-cn, num edge types: 1
# Building blocks:
#     Node 0, Type 0, BuildingBlock: GEDQOX_clean_sbu_0, # of connection points: 6
#     Node 1, Type 0, BuildingBlock: GEDQOX_clean_sbu_0, # of connection points: 6
#     Node 2, Type 1, BuildingBlock: MIDCAF_clean_sbu_0, # of connection points: 6
#     Node 3, Type 1, BuildingBlock: MIDCAF_clean_sbu_0, # of connection points: 6
#     Edge 4, Type (0, 1), BuildingBlock: FUNLAD_clean_linker_0, # of connection points: 2
#     Edge 5, Type (0, 1), BuildingBlock: FUNLAD_clean_linker_0, # of connection points: 2
#     Edge 6, Type (0, 1), BuildingBlock: FUNLAD_clean_linker_0, # of connection points: 2
#     Edge 7, Type (0, 1), BuildingBlock: FUNLAD_clean_linker_0, # of connection points: 2
#     Edge 8, Type (0, 1), BuildingBlock: FUNLAD_clean_linker_0, # of connection points: 2
#     Edge 9, Type (0, 1), BuildingBlock: FUNLAD_clean_linker_0, # of connection points: 2
#     Edge 10, Type (0, 1), BuildingBlock: FUNLAD_clean_linker_0, # of connection points: 2
#     Edge 11, Type (0, 1), BuildingBlock: FUNLAD_clean_linker_0, # of connection points: 2
#     Edge 12, Type (0, 1), BuildingBlock: FUNLAD_clean_linker_0, # of connection points: 2
#     Edge 13, Type (0, 1), BuildingBlock: FUNLAD_clean_linker_0, # of connection points: 2
#     Edge 14, Type (0, 1), BuildingBlock: FUNLAD_clean_linker_0, # of connection points: 2
#     Edge 15, Type (0, 1), BuildingBlock: FUNLAD_clean_linker_0, # of connection points: 2
# Relax obj value: 0.282
# Max RMSD: 0.263
# Mean RMSD: 0.236
data_MOF--net-nia--node1-GEDQOX_clean_sbu_0--node2-MIDCAF_clean_sbu_0--edge1-FUNLAD_clean_linker_0
_symmetry_space_group_name_H-M    P1
_symmetry_Int_Tables_number       1
_symmetry_cell_setting            triclinic
loop_
_symmetry_equiv_pos_as_xyz
'x, y, z'
_cell_length_a     31.484131
_cell_length_b     29.463175
_cell_length_c     38.736915
_cell_angle_alpha  101.63724
_cell_angle_beta   72.318012
_cell_angle_gamma 127.10438
loop_
_atom_site_label
_atom_site_type_symbol
_atom_site_fract_x
_atom_site_fract_y
_atom_site_fract_z
_atom_type_partial_charge
Nd0 Nd 0.01908 0.05167 1.00462 0.0
Nd1 Nd 0.00864 0.9604 0.04624 0.0
C2 C 0.03878 0.12253 0.95955 0.0
C3 C 0.01178 0.14246 0.94821 0.0
C4 C 0.03675 0.20108 0.94773 0.0
C5 C 0.01391 0.2213 0.93513 0.0
C6 C 0.9656 0.1833 0.92251 0.0
C7 C 0.94042 0.12449 0.9232 0.0
C8 C 0.96316 0.10425 0.93599 0.0
C9 C 0.92136 0.9863 0.05392 0.0
C10 C 0.05533 0.08781 0.08065 0.0
C11 C 0.97491 0.88051 0.08952 0.0
C12 C 0.00035 0.87181 0.11132 0.0
C13 C 0.97723 0.81669 0.12105 0.0
C14 C 0.00379 0.80716 0.13877 0.0
C15 C 0.05414 0.85268 0.14703 0.0
C16 C 0.07633 0.90817 0.13805 0.0
C17 C 0.0498 0.9176 0.12025 0.0
C18 C 0.11623 0.03359 1.00867 0.0
C19 C 0.99075 0.92979 0.96437 0.0
O20 O 0.04909 0.13829 0.99181 0.0
O21 O 0.023 0.07016 0.95074 0.0
O22 O 0.94177 0.03744 0.0459 0.0
O23 O 0.94908 0.96955 0.03326 0.0
O24 O 0.06703 0.10617 0.04827 0.0
O25 O 0.02528 0.03319 0.08774 0.0
O26 O 0.99286 0.8788 0.05436 0.0
O27 O 0.96851 0.92163 0.10038 0.0
O28 O 0.09977 0.99269 0.02841 0.0
O29 O 0.07613 0.03408 1.01009 0.0
O30 O 0.97926 0.90915 0.99574 0.0
O31 O 0.01138 0.98354 0.96049 0.0
H32 H 0.07451 0.23141 0.95665 0.0
H33 H 0.03477 0.26686 0.93459 0.0
H34 H 0.90286 0.09406 0.91409 0.0
H35 H 0.94287 0.05873 0.93603 0.0
H36 H 0.93932 0.78078 0.11407 0.0
H37 H 0.98584 0.76383 0.14476 0.0
H38 H 0.11459 0.94433 0.14441 0.0
H39 H 0.06845 0.9605 0.11278 0.0
Nd40 Nd 0.97075 0.98497 0.50463 0.0
Nd41 Nd 0.05374 0.04484 0.54682 0.0
C42 C 0.91907 0.94456 0.45171 0.0
C43 C 0.89285 0.95828 0.43456 0.0
C44 C 0.87597 0.92852 0.40294 0.0
C45 C 0.84845 0.93884 0.38703 0.0
C46 C 0.83739 0.97918 0.40258 0.0
C47 C 0.8562 0.01045 0.43369 0.0
C48 C 0.88393 1.00014 0.44956 0.0
C49 C 0.94113 0.92307 0.5628 0.0
C50 C 0.95308 0.0606 0.56934 0.0
C51 C 0.10703 0.08944 0.59927 0.0
C52 C 0.13185 0.08026 0.62104 0.0
C53 C 0.14949 0.11723 0.65053 0.0
C54 C 0.17487 0.11121 0.67134 0.0
C55 C 0.18301 0.06786 0.66309 0.0
C56 C 0.16411 0.02992 0.63381 0.0
C57 C 0.13855 0.03603 0.61293 0.0
C58 C 0.08013 0.10678 0.48943 0.0
C59 C 0.06801 0.96577 0.48242 0.0
O60 O 0.97218 0.98075 0.4467 0.0
O61 O 0.89457 0.92671 0.48495 0.0
O62 O 0.90793 0.92671 0.55233 0.0
O63 O 0.98847 0.95053 0.54214 0.0
O64 O 0.94423 0.04061 0.53683 0.0
O65 O 0.98896 0.06111 0.58066 0.0
O66 O 0.05369 0.05569 0.60505 0.0
O67 O 0.13144 0.10044 0.56502 0.0
O68 O 0.11532 0.10516 0.49886 0.0
O69 O 0.03393 0.07831 0.51079 0.0
O70 O 0.0783 0.98652 0.51465 0.0
O71 O 0.03392 0.96801 0.47115 0.0
H72 H 0.88288 0.89628 0.39103 0.0
H73 H 0.83365 0.91329 0.36349 0.0
H74 H 0.84853 0.04198 0.44612 0.0
H75 H 0.89741 0.02389 0.47386 0.0
H76 H 0.1445 0.15154 0.65711 0.0
H77 H 0.18989 0.14194 0.69312 0.0
H78 H 0.16951 0.99594 0.62689 0.0
H79 H 0.12466 0.00685 0.5903 0.0
Zn80 Zn 0.33674 0.63211 0.21245 0.0
Zn81 Zn 0.30907 0.65607 0.35581 0.0
Zn82 Zn 0.32329 0.64503 0.28408 0.0
C83 C 0.42184 0.72768 0.32353 0.0
C84 C 0.2667 0.54231 0.34061 0.0
O85 O 0.28107 0.67412 0.2685 0.0
O86 O 0.29965 0.66621 0.20863 0.0
C87 C 0.44121 0.70245 0.22335 0.0
O88 O 0.40504 0.70339 0.29429 0.0
O89 O 0.38838 0.71617 0.35403 0.0
O90 O 0.27512 0.5769 0.36729 0.0
O91 O 0.28106 0.55991 0.30833 0.0
O92 O 0.41718 0.67697 0.19775 0.0
O93 O 0.41316 0.69625 0.25645 0.0
O94 O 0.28139 0.5533 0.27141 0.0
O95 O 0.2963 0.54844 0.21148 0.0
C96 C 0.27565 0.52419 0.2414 0.0
O97 O 0.27969 0.68601 0.30608 0.0
O98 O 0.26156 0.68191 0.36574 0.0
C99 C 0.27731 0.67985 0.23763 0.0
C100 C 0.25844 0.69567 0.33828 0.0
Zn101 Zn 0.70589 0.41107 0.83797 0.0
Zn102 Zn 0.69802 0.36304 0.69834 0.0
Zn103 Zn 0.70637 0.38761 0.76812 0.0
C104 C 0.75668 0.48144 0.70702 0.0
C105 C 0.59247 0.30556 0.74031 0.0
O106 O 0.74827 0.3561 0.78181 0.0
O107 O 0.75449 0.38917 0.83804 0.0
C108 C 0.75761 0.51325 0.80457 0.0
O109 O 0.75076 0.46909 0.73908 0.0
O110 O 0.73614 0.44231 0.68375 0.0
O111 O 0.61716 0.31217 0.70732 0.0
O112 O 0.61925 0.33074 0.76544 0.0
O113 O 0.73777 0.49292 0.83577 0.0
O114 O 0.75203 0.48071 0.77603 0.0
O115 O 0.62012 0.34325 0.80204 0.0
O116 O 0.62641 0.35765 0.85914 0.0
C117 C 0.59729 0.33494 0.83622 0.0
O118 O 0.74718 0.3446 0.74456 0.0
O119 O 0.73801 0.32747 0.68792 0.0
C120 C 0.76443 0.36281 0.81049 0.0
C121 C 0.75503 0.32432 0.71239 0.0
C122 C 0.05738 0.80028 0.18926 0.0
C123 C 0.08484 0.84189 0.16293 0.0
C124 C 0.08614 0.78778 0.20231 0.0
C125 C 0.14326 0.81674 0.18926 0.0
C126 C 0.17064 0.85931 0.16368 0.0
C127 C 0.14195 0.87164 0.15064 0.0
C128 C 0.17613 0.8029 0.19976 0.0
C129 C 0.15561 0.75986 0.22121 0.0
C130 C 0.18949 0.74317 0.22652 0.0
C131 C 0.17236 0.7126 0.25729 0.0
C132 C 0.20133 0.69285 0.26155 0.0
C133 C 0.24798 0.70329 0.23508 0.0
H134 H 0.24986 0.77465 0.17523 0.0
C135 C 0.26506 0.73377 0.20436 0.0
C136 C 0.23624 0.75335 0.20004 0.0
H137 H 0.30053 0.74191 0.18326 0.0
H138 H 0.0135 0.77711 0.19975 0.0
H139 H 0.063 0.75507 0.22221 0.0
H140 H 0.2145 0.88238 0.15296 0.0
H141 H 0.1645 0.90336 0.13 0.0
H142 H 0.21989 0.82905 0.18804 0.0
H143 H 0.11268 0.73498 0.23499 0.0
H144 H 0.13601 0.70325 0.27785 0.0
H145 H 0.1862 0.66788 0.28492 0.0
C146 C 0.25652 0.05841 0.66443 0.0
C147 C 0.21543 0.06624 0.6832 0.0
C148 C 0.29475 0.0691 0.68183 0.0
C149 C 0.29303 0.08851 0.71808 0.0
C150 C 0.24887 0.09089 0.73784 0.0
C151 C 0.21035 0.07971 0.72055 0.0
C152 C 0.34134 0.11289 0.7328 0.0
C153 C 0.36123 0.16151 0.75292 0.0
C154 C 0.419 0.19844 0.7557 0.0
C155 C 0.4484 0.25721 0.75152 0.0
C156 C 0.50499 0.29255 0.74773 0.0
C157 C 0.53261 0.26991 0.74946 0.0
H158 H 0.42454 0.13107 0.76271 0.0
C159 C 0.50306 0.21188 0.75598 0.0
C160 C 0.44646 0.17615 0.75894 0.0
H161 H 0.52406 0.19388 0.75722 0.0
H162 H 0.26167 0.04808 0.63567 0.0
H163 H 0.32818 0.06647 0.66613 0.0
H164 H 0.24547 0.10391 0.76619 0.0
H165 H 0.17811 0.08434 0.73604 0.0
H166 H 0.36665 0.09747 0.72106 0.0
H167 H 0.33857 0.18025 0.76136 0.0
H168 H 0.42807 0.27532 0.74901 0.0
H169 H 0.52742 0.33729 0.74256 0.0
C170 C 0.08473 0.18171 0.11192 0.0
C171 C 0.07741 0.12944 0.10994 0.0
C172 C 0.10608 0.22124 0.13962 0.0
C173 C 0.12152 0.20958 0.16533 0.0
C174 C 0.11456 0.15751 0.16318 0.0
C175 C 0.09171 0.11725 0.13608 0.0
C176 C 0.15073 0.25415 0.19165 0.0
C177 C 0.13659 0.28939 0.20829 0.0
C178 C 0.17477 0.34535 0.22421 0.0
C179 C 0.23132 0.37695 0.20841 0.0
C180 C 0.26517 0.43488 0.21645 0.0
C181 C 0.24342 0.46195 0.24088 0.0
H182 H 0.11035 0.34832 0.26296 0.0
C183 C 0.18816 0.42967 0.25933 0.0
C184 C 0.15382 0.37172 0.25064 0.0
H185 H 0.17068 0.4501 0.27809 0.0
H186 H 0.07391 0.19197 0.0921 0.0
H187 H 0.11243 0.26179 0.14009 0.0
H188 H 0.12708 0.14814 0.18234 0.0
H189 H 0.08675 0.07728 0.13494 0.0
H190 H 0.18684 0.26045 0.19534 0.0
H191 H 0.09785 0.27969 0.20698 0.0
H192 H 0.24883 0.35849 0.18742 0.0
H193 H 0.30776 0.45933 0.20185 0.0
C194 C 0.94335 0.12258 0.62151 0.0
C195 C 0.92339 0.08401 0.59277 0.0
C196 C 0.91584 0.14625 0.64241 0.0
C197 C 0.86747 0.1309 0.63516 0.0
C198 C 0.84683 0.09099 0.60722 0.0
C199 C 0.87473 0.0683 0.586 0.0
C200 C 0.83719 0.15548 0.65548 0.0
C201 C 0.86125 0.20917 0.66924 0.0
C202 C 0.83173 0.23651 0.68225 0.0
C203 C 0.85113 0.28387 0.70629 0.0
C204 C 0.82597 0.31241 0.71683 0.0
C205 C 0.781 0.29393 0.70348 0.0
H206 H 0.77209 0.18442 0.64886 0.0
C207 C 0.76198 0.24702 0.6793 0.0
C208 C 0.78702 0.21882 0.66869 0.0
H209 H 0.72783 0.23234 0.66817 0.0
H210 H 0.98069 0.13526 0.62742 0.0
H211 H 0.93223 0.17601 0.66425 0.0
H212 H 0.80951 0.07824 0.60119 0.0
H213 H 0.85802 0.03829 0.56428 0.0
H214 H 0.79377 0.12941 0.65621 0.0
H215 H 0.90445 0.23509 0.66921 0.0
H216 H 0.88615 0.29918 0.71661 0.0
H217 H 0.84243 0.3496 0.73463 0.0
C218 C 0.83787 0.97146 0.09855 0.0
C219 C 0.86874 0.95034 0.08004 0.0
C220 C 0.78663 0.93681 0.12183 0.0
C221 C 0.76526 0.88017 0.12743 0.0
C222 C 0.79703 0.85973 0.10944 0.0
C223 C 0.84815 0.89436 0.08602 0.0
C224 C 0.70869 0.83955 0.1491 0.0
C225 C 0.67591 0.85439 0.17076 0.0
C226 C 0.61655 0.81247 0.18731 0.0
C227 C 0.58612 0.75593 0.17403 0.0
C228 C 0.52951 0.71979 0.18727 0.0
C229 C 0.50168 0.73892 0.21401 0.0
H230 H 0.61063 0.87457 0.22523 0.0
C231 C 0.53167 0.79482 0.22783 0.0
C232 C 0.5886 0.83117 0.2147 0.0
H233 H 0.51091 0.81108 0.24772 0.0
H234 H 0.85276 0.01452 0.09441 0.0
H235 H 0.76366 0.95445 0.13429 0.0
H236 H 0.78177 0.81632 0.11294 0.0
H237 H 0.87113 0.87698 0.07216 0.0
H238 H 0.69334 0.79503 0.14626 0.0
H239 H 0.69231 0.89902 0.17617 0.0
H240 H 0.60493 0.73971 0.15225 0.0
H241 H 0.5071 0.67709 0.17571 0.0
C242 C 0.95348 0.86133 0.58945 0.0
C243 C 0.92099 0.87838 0.58772 0.0
C244 C 0.93124 0.81453 0.61021 0.0
C245 C 0.87609 0.78424 0.6299 0.0
C246 C 0.84474 0.80316 0.62913 0.0
C247 C 0.8668 0.84948 0.60839 0.0
C248 C 0.84766 0.73023 0.64907 0.0
C249 C 0.87225 0.70935 0.65619 0.0
C250 C 0.8406 0.65168 0.67159 0.0
C251 C 0.8642 0.63985 0.69082 0.0
C252 C 0.83647 0.58492 0.70345 0.0
C253 C 0.78473 0.5408 0.69698 0.0
H254 H 0.76971 0.61338 0.64932 0.0
C255 C 0.76126 0.55247 0.67767 0.0
C256 C 0.78868 0.60706 0.66515 0.0
H257 H 0.72179 0.51892 0.67172 0.0
H258 H -0.00457 0.88281 0.57373 0.0
H259 H 0.95686 0.80126 0.60956 0.0
H260 H 0.80228 0.78101 0.64392 0.0
H261 H 0.84077 0.86174 0.60784 0.0
H262 H 0.80333 0.70601 0.65756 0.0
H263 H 0.91656 0.73473 0.65083 0.0
H264 H 0.90453 0.67292 0.69561 0.0
H265 H 0.85645 0.5763 0.71675 0.0
C266 C 0.13651 0.94194 0.46303 0.0
C267 C 0.08898 0.93348 0.45974 0.0
C268 C 0.15409 0.90906 0.44188 0.0
C269 C 0.12361 0.86652 0.4178 0.0
C270 C 0.07626 0.85823 0.41464 0.0
C271 C 0.05955 0.89184 0.43495 0.0
C272 C 0.13705 0.82655 0.39833 0.0
C273 C 0.18858 0.84262 0.3834 0.0
C274 C 0.20118 0.80064 0.3678 0.0
C275 C 0.24677 0.81566 0.33881 0.0
C276 C 0.26305 0.77905 0.32689 0.0
C277 C 0.23458 0.72758 0.34442 0.0
H278 H 0.13644 0.73515 0.40682 0.0
C279 C 0.1879 0.71166 0.37248 0.0
C280 C 0.17108 0.74758 0.38392 0.0
H281 H 0.16577 0.67243 0.38665 0.0
H282 H 0.15982 0.97362 0.48199 0.0
H283 H 0.19022 0.91543 0.44537 0.0
H284 H 0.05184 0.82529 0.39658 0.0
H285 H 0.02242 0.88385 0.43198 0.0
H286 H 0.10302 0.7824 0.39566 0.0
H287 H 0.22235 0.88753 0.38281 0.0
H288 H 0.27071 0.85642 0.3261 0.0
H289 H 0.2997 0.79249 0.30552 0.0
C290 C 0.18819 0.10794 0.96144 0.0
C291 C 0.1736 0.07291 0.98885 0.0
C292 C 0.24311 0.14294 0.94228 0.0
C293 C 0.28413 0.14381 0.95073 0.0
C294 C 0.26913 0.10947 0.97862 0.0
C295 C 0.21465 0.07414 0.99715 0.0
C296 C 0.34326 0.18052 0.93243 0.0
C297 C 0.36337 0.19916 0.89822 0.0
C298 C 0.42322 0.23163 0.88072 0.0
C299 C 0.44586 0.27009 0.85319 0.0
C300 C 0.50246 0.30302 0.83786 0.0
C301 C 0.53717 0.29729 0.84936 0.0
H302 H 0.44243 0.19368 0.91081 0.0
C303 C 0.51441 0.25754 0.87585 0.0
C304 C 0.45817 0.22463 0.89104 0.0
H305 H 0.54032 0.25201 0.88496 0.0
H306 H 0.15719 0.10777 0.95459 0.0
H307 H 0.25331 0.1697 0.92143 0.0
H308 H 0.29974 0.10942 0.9859 0.0
H309 H 0.20473 0.04779 1.01822 0.0
H310 H 0.37159 0.19061 0.94795 0.0
H311 H 0.3358 0.19077 0.88263 0.0
H312 H 0.42 0.27595 0.84433 0.0
H313 H 0.51936 0.33446 0.8181 0.0
C314 C 0.14958 0.18723 0.44615 0.0
C315 C 0.09493 0.1487 0.46436 0.0
C316 C 0.16379 0.2302 0.42521 0.0
C317 C 0.12343 0.23535 0.42202 0.0
C318 C 0.06863 0.19549 0.43932 0.0
C319 C 0.05447 0.15253 0.46005 0.0
C320 C 0.1371 0.28476 0.40448 0.0
C321 C 0.1841 0.31853 0.38009 0.0
C322 C 0.19983 0.3728 0.36783 0.0
C323 C 0.23691 0.39549 0.3343 0.0
C324 C 0.25677 0.44947 0.32419 0.0
C325 C 0.24044 0.48205 0.3477 0.0
H326 H 0.1552 0.39015 0.41716 0.0
C327 C 0.20246 0.45877 0.38076 0.0
C328 C 0.18236 0.40497 0.39069 0.0
H329 H 0.18939 0.48303 0.39958 0.0
H330 H 0.18166 0.18532 0.44899 0.0
H331 H 0.20659 0.26061 0.413 0.0
H332 H 0.03665 0.19839 0.43754 0.0
H333 H 0.01195 0.12332 0.47356 0.0
H334 H 0.1068 0.294 0.41263 0.0
H335 H 0.21249 0.30689 0.36906 0.0
H336 H 0.25159 0.37202 0.3163 0.0
H337 H 0.28691 0.46682 0.29893 0.0
C338 C 0.92124 0.18149 0.8773 0.0
C339 C 0.94184 0.20521 0.90874 0.0
C340 C 0.90028 0.20335 0.86398 0.0
C341 C 0.8992 0.24939 0.88201 0.0
C342 C 0.91927 0.27241 0.91363 0.0
C343 C 0.94034 0.25079 0.92678 0.0
C344 C 0.87803 0.27544 0.86941 0.0
C345 C 0.85927 0.26043 0.83899 0.0
C346 C 0.83875 0.28892 0.82861 0.0
C347 C 0.79816 0.25841 0.80854 0.0
C348 C 0.77528 0.28301 0.80102 0.0
C349 C 0.79332 0.3389 0.81294 0.0
H350 H 0.89141 0.37185 0.85286 0.0
C351 C 0.83568 0.37026 0.8314 0.0
C352 C 0.85854 0.34589 0.83882 0.0
H353 H 0.85056 0.41359 0.84071 0.0
H354 H 0.92223 0.14663 0.86256 0.0
H355 H 0.88532 0.18393 0.83963 0.0
H356 H 0.91889 0.30765 0.92832 0.0
H357 H 0.9551 0.26959 0.95134 0.0
H358 H 0.87735 0.30891 0.88691 0.0
H359 H 0.85646 0.22514 0.82191 0.0
H360 H 0.78267 0.21477 0.79983 0.0
H361 H 0.74221 0.25772 0.78709 0.0
C362 C 0.75709 0.98254 0.41283 0.0
C363 C 0.80084 0.98307 0.38861 0.0
C364 C 0.71496 0.97217 0.40008 0.0
C365 C 0.71556 0.96154 0.36303 0.0
C366 C 0.76221 0.96836 0.33843 0.0
C367 C 0.80448 0.97894 0.35117 0.0
C368 C 0.66426 0.93637 0.35192 0.0
C369 C 0.64862 0.89598 0.32542 0.0
C370 C 0.59103 0.85595 0.32185 0.0
C371 C 0.57429 0.80268 0.30463 0.0
C372 C 0.51917 0.76086 0.3046 0.0
C373 C 0.48008 0.77187 0.32169 0.0
H374 H 0.56292 0.90855 0.34975 0.0
C375 C 0.49667 0.8255 0.33775 0.0
C376 C 0.55176 0.86755 0.33741 0.0
H377 H 0.46691 0.83487 0.35055 0.0
H378 H 0.75306 0.98558 0.44184 0.0
H379 H 0.67976 0.96787 0.41955 0.0
H380 H 0.76496 0.96282 0.30953 0.0
H381 H 0.8386 0.98084 0.33183 0.0
H382 H 0.63507 0.94365 0.37028 0.0
H383 H 0.67696 0.88598 0.30917 0.0
H384 H 0.60365 0.7927 0.29217 0.0
H385 H 0.50694 0.71967 0.29187 0.0
C386 C 0.96902 0.90081 0.90312 0.0
C387 C 0.97954 0.89074 0.9325 0.0
C388 C 0.95468 0.86126 0.87422 0.0
C389 C 0.95156 0.81156 0.87412 0.0
C390 C 0.96484 0.8032 0.9026 0.0
C391 C 0.97805 0.84198 0.93169 0.0
C392 C 0.93162 0.76564 0.8462 0.0
C393 C 0.89096 0.75073 0.83157 0.0
C394 C 0.85792 0.69302 0.81538 0.0
C395 C 0.88133 0.66422 0.79628 0.0
C396 C 0.84795 0.60551 0.78991 0.0
C397 C 0.79094 0.57517 0.80179 0.0
H398 H 0.78174 0.6846 0.83879 0.0
C399 C 0.76741 0.60457 0.81789 0.0
C400 C 0.80073 0.66332 0.8242 0.0
H401 H 0.7234 0.58158 0.82762 0.0
H402 H 0.97024 0.93832 0.90298 0.0
H403 H 0.94565 0.86936 0.85226 0.0
H404 H 0.96297 0.76536 0.90305 0.0
H405 H 0.98674 0.83351 0.9537 0.0
H406 H 0.94382 0.73717 0.84272 0.0
H407 H 0.87475 0.77596 0.83804 0.0
H408 H 0.92535 0.68629 0.78835 0.0
H409 H 0.86679 0.58326 0.77806 0.0
loop_
_geom_bond_atom_site_label_1
_geom_bond_atom_site_label_2
_geom_bond_distance
_geom_bond_site_symmetry_2
_ccdc_geom_bond_type
Nd0 C2 2.836 . S
Nd0 O20 2.500 1_655 S
Nd0 O21 2.492 . S
Nd0 O22 2.487 1_546 S
Nd0 O23 2.682 1_546 S
Nd0 O24 2.410 1_656 S
Nd0 O29 2.414 1_655 S
Nd0 O31 2.424 1_545 S
Nd1 C11 2.836 1_545 S
Nd1 O23 2.414 1_445 S
Nd1 O25 2.424 . S
Nd1 O26 2.500 1_545 S
Nd1 O27 2.492 1_545 S
Nd1 O28 2.487 1_554 S
Nd1 O29 2.682 1_554 S
Nd1 O30 2.410 1_544 S
C2 Nd0 2.836 . S
C2 C3 1.498 . S
C2 O20 1.258 1_655 S
C2 O21 1.239 . S
C3 C2 1.498 . S
C3 C4 1.366 1_655 S
C3 C8 1.407 . S
C4 C3 1.366 1_455 S
C4 C5 1.392 . S
C4 H32 0.930 . S
C5 C4 1.392 . S
C5 C6 1.398 1_455 S
C5 H33 0.929 . S
C6 C5 1.398 1_655 S
C6 C7 1.352 . S
C7 C6 1.352 . S
C7 C8 1.384 . S
C7 H34 0.930 . S
C8 C3 1.407 . S
C8 C7 1.384 . S
C8 H35 0.929 . S
C9 O22 1.241 . S
C9 O23 1.273 . S
C10 O24 1.251 . S
C10 O25 1.268 . S
C11 Nd1 2.836 1_565 S
C11 C12 1.498 . S
C11 O26 1.258 . S
C11 O27 1.239 . S
C12 C11 1.498 . S
C12 C13 1.366 . S
C12 C17 1.407 . S
C13 C12 1.366 . S
C13 C14 1.392 . S
C13 H36 0.930 1_455 S
C14 C13 1.392 . S
C14 C15 1.398 . S
C14 H37 0.929 1_455 S
C15 C14 1.398 . S
C15 C16 1.352 . S
C16 C15 1.352 . S
C16 C17 1.384 . S
C16 H38 0.930 . S
C17 C12 1.407 . S
C17 C16 1.384 . S
C17 H39 0.929 . S
C18 O28 1.241 . S
C18 O29 1.273 . S
C19 O30 1.251 1_655 S
C19 O31 1.268 . S
O20 Nd0 2.500 1_455 S
O20 C2 1.258 1_455 S
O21 Nd0 2.492 . S
O21 C2 1.239 . S
O22 Nd0 2.487 1_564 S
O22 C9 1.241 . S
O23 Nd0 2.682 1_564 S
O23 Nd1 2.414 1_665 S
O23 C9 1.273 . S
O24 Nd0 2.410 1_454 S
O24 C10 1.251 . S
O25 Nd1 2.424 . S
O25 C10 1.268 . S
O26 Nd1 2.500 1_565 S
O26 C11 1.258 . S
O27 Nd1 2.492 1_565 S
O27 C11 1.239 . S
O28 Nd1 2.487 1_556 S
O28 C18 1.241 . S
O29 Nd0 2.414 1_455 S
O29 Nd1 2.682 1_556 S
O29 C18 1.273 . S
O30 Nd1 2.410 1_566 S
O30 C19 1.251 1_455 S
O31 Nd0 2.424 1_565 S
O31 C19 1.268 . S
H32 C4 0.930 . S
H33 C5 0.929 . S
H34 C7 0.930 . S
H35 C8 0.929 . S
H36 C13 0.930 1_655 S
H37 C14 0.929 1_655 S
H38 C16 0.930 . S
H39 C17 0.929 . S
Nd40 C42 2.836 . S
Nd40 O60 2.500 . S
Nd40 O61 2.492 . S
Nd40 O62 2.487 . S
Nd40 O63 2.682 1_655 S
Nd40 O64 2.410 . S
Nd40 O69 2.414 1_665 S
Nd40 O71 2.424 1_655 S
Nd41 C51 2.836 . S
Nd41 O63 2.414 1_545 S
Nd41 O65 2.429 . S
Nd41 O66 2.500 . S
Nd41 O67 2.492 . S
Nd41 O68 2.487 . S
Nd41 O69 2.682 . S
Nd41 O70 2.410 . S
C42 Nd40 2.836 . S
C42 C43 1.498 . S
C42 O60 1.258 . S
C42 O61 1.239 . S
C43 C42 1.498 . S
C43 C44 1.366 . S
C43 C48 1.407 . S
C44 C43 1.366 . S
C44 C45 1.392 . S
C44 H72 0.929 . S
C45 C44 1.392 . S
C45 C46 1.398 . S
C45 H73 0.929 . S
C46 C45 1.398 . S
C46 C47 1.352 . S
C47 C46 1.352 . S
C47 C48 1.384 . S
C47 H74 0.930 . S
C48 C43 1.407 . S
C48 C47 1.384 . S
C48 H75 0.929 . S
C49 O62 1.241 . S
C49 O63 1.273 1_655 S
C50 O64 1.251 1_545 S
C50 O65 1.264 1_655 S
C51 Nd41 2.836 . S
C51 C52 1.498 . S
C51 O66 1.258 . S
C51 O67 1.239 . S
C52 C51 1.498 . S
C52 C53 1.366 . S
C52 C57 1.407 . S
C53 C52 1.366 . S
C53 C54 1.392 . S
C53 H76 0.930 . S
C54 C53 1.392 . S
C54 C55 1.398 . S
C54 H77 0.929 . S
C55 C54 1.398 . S
C55 C56 1.352 . S
C56 C55 1.352 . S
C56 C57 1.384 . S
C56 H78 0.930 . S
C57 C52 1.407 . S
C57 C56 1.384 . S
C57 H79 0.929 . S
C58 O68 1.241 . S
C58 O69 1.273 . S
C59 O70 1.251 1_565 S
C59 O71 1.268 . S
O60 Nd40 2.500 . S
O60 C42 1.258 . S
O61 Nd40 2.492 . S
O61 C42 1.239 . S
O62 Nd40 2.487 . S
O62 C49 1.241 . S
O63 Nd40 2.682 1_455 S
O63 Nd41 2.414 1_565 S
O63 C49 1.273 1_455 S
O64 Nd40 2.410 . S
O64 C50 1.251 1_565 S
O65 Nd41 2.429 . S
O65 C50 1.264 1_455 S
O66 Nd41 2.500 . S
O66 C51 1.258 . S
O67 Nd41 2.492 . S
O67 C51 1.239 . S
O68 Nd41 2.487 . S
O68 C58 1.241 . S
O69 Nd40 2.414 1_445 S
O69 Nd41 2.682 . S
O69 C58 1.273 . S
O70 Nd41 2.410 . S
O70 C59 1.251 1_545 S
O71 Nd40 2.424 1_455 S
O71 C59 1.268 . S
H72 C44 0.929 . S
H73 C45 0.929 . S
H74 C47 0.930 . S
H75 C48 0.929 . S
H76 C53 0.930 . S
H77 C54 0.929 . S
H78 C56 0.930 . S
H79 C57 0.929 . S
Zn80 O86 1.920 . S
Zn80 O92 1.898 . S
Zn80 O95 1.905 . S
Zn81 O89 1.905 . S
Zn81 O90 1.898 . S
Zn81 O98 1.920 . S
Zn82 O85 2.080 . S
Zn82 O88 2.114 . S
Zn82 O91 2.120 . S
Zn82 O93 2.120 . S
Zn82 O94 2.114 . S
Zn82 O97 2.080 . S
C83 O88 1.166 . S
C83 O89 1.182 . S
C84 O90 1.167 . S
C84 O91 1.299 . S
O85 Zn82 2.080 . S
O85 C99 1.305 . S
O86 Zn80 1.920 . S
O86 C99 1.234 . S
C87 O92 1.167 . S
C87 O93 1.299 . S
O88 Zn82 2.114 . S
O88 C83 1.166 . S
O89 Zn81 1.905 . S
O89 C83 1.182 . S
O90 Zn81 1.898 . S
O90 C84 1.167 . S
O91 Zn82 2.120 . S
O91 C84 1.299 . S
O92 Zn80 1.898 . S
O92 C87 1.167 . S
O93 Zn82 2.120 . S
O93 C87 1.299 . S
O94 Zn82 2.114 . S
O94 C96 1.166 . S
O95 Zn80 1.905 . S
O95 C96 1.182 . S
C96 O94 1.166 . S
C96 O95 1.182 . S
O97 Zn82 2.080 . S
O97 C100 1.305 . S
O98 Zn81 1.920 . S
O98 C100 1.234 . S
C99 O85 1.305 . S
C99 O86 1.234 . S
C100 O97 1.305 . S
C100 O98 1.234 . S
Zn101 O107 1.920 . S
Zn101 O113 1.898 . S
Zn101 O116 1.905 . S
Zn102 O110 1.905 . S
Zn102 O111 1.898 . S
Zn102 O119 1.920 . S
Zn103 O106 2.080 . S
Zn103 O109 2.114 . S
Zn103 O112 2.120 . S
Zn103 O114 2.120 . S
Zn103 O115 2.114 . S
Zn103 O118 2.080 . S
C104 O109 1.166 . S
C104 O110 1.182 . S
C105 O111 1.167 . S
C105 O112 1.299 . S
O106 Zn103 2.080 . S
O106 C120 1.305 . S
O107 Zn101 1.920 . S
O107 C120 1.234 . S
C108 O113 1.167 . S
C108 O114 1.299 . S
O109 Zn103 2.114 . S
O109 C104 1.166 . S
O110 Zn102 1.905 . S
O110 C104 1.182 . S
O111 Zn102 1.898 . S
O111 C105 1.167 . S
O112 Zn103 2.120 . S
O112 C105 1.299 . S
O113 Zn101 1.898 . S
O113 C108 1.167 . S
O114 Zn103 2.120 . S
O114 C108 1.299 . S
O115 Zn103 2.114 . S
O115 C117 1.166 . S
O116 Zn101 1.905 . S
O116 C117 1.182 . S
C117 O115 1.166 . S
C117 O116 1.182 . S
O118 Zn103 2.080 . S
O118 C121 1.305 . S
O119 Zn102 1.920 . S
O119 C121 1.234 . S
C120 O106 1.305 . S
C120 O107 1.234 . S
C121 O118 1.305 . S
C121 O119 1.234 . S
C122 C123 1.386 . S
C122 C124 1.383 . S
C122 H138 0.951 . S
C123 C122 1.386 . S
C123 C127 1.383 . S
C124 C122 1.383 . S
C124 C125 1.402 . S
C124 H139 0.951 . S
C125 C124 1.402 . S
C125 C126 1.375 . S
C125 C128 1.481 . S
C126 C125 1.375 . S
C126 C127 1.367 . S
C126 H140 0.951 . S
C127 C123 1.383 . S
C127 C126 1.367 . S
C127 H141 0.950 . S
C128 C125 1.481 . S
C128 C129 1.297 . S
C128 H142 0.950 . S
C129 C128 1.297 . S
C129 C130 1.479 . S
C129 H143 0.950 . S
C130 C129 1.479 . S
C130 C131 1.375 . S
C130 C136 1.404 . S
C131 C130 1.375 . S
C131 C132 1.369 . S
C131 H144 0.950 . S
C132 C131 1.369 . S
C132 C133 1.392 . S
C132 H145 0.951 . S
C133 C132 1.392 . S
C133 C135 1.384 . S
H134 C136 0.949 . S
C135 C133 1.384 . S
C135 C136 1.385 . S
C135 H137 0.950 . S
C136 C130 1.404 . S
C136 H134 0.949 . S
C136 C135 1.385 . S
H137 C135 0.950 . S
H138 C122 0.951 . S
H139 C124 0.951 . S
H140 C126 0.951 . S
H141 C127 0.950 . S
H142 C128 0.950 . S
H143 C129 0.950 . S
H144 C131 0.950 . S
H145 C132 0.951 . S
C146 C147 1.386 . S
C146 C148 1.383 . S
C146 H162 0.951 . S
C147 C146 1.386 . S
C147 C151 1.383 . S
C148 C146 1.383 . S
C148 C149 1.402 . S
C148 H163 0.951 . S
C149 C148 1.402 . S
C149 C150 1.375 . S
C149 C152 1.481 . S
C150 C149 1.375 . S
C150 C151 1.367 . S
C150 H164 0.951 . S
C151 C147 1.383 . S
C151 C150 1.367 . S
C151 H165 0.950 . S
C152 C149 1.481 . S
C152 C153 1.297 . S
C152 H166 0.950 . S
C153 C152 1.297 . S
C153 C154 1.479 . S
C153 H167 0.950 . S
C154 C153 1.479 . S
C154 C155 1.375 . S
C154 C160 1.404 . S
C155 C154 1.375 . S
C155 C156 1.369 . S
C155 H168 0.950 . S
C156 C155 1.369 . S
C156 C157 1.392 . S
C156 H169 0.951 . S
C157 C156 1.392 . S
C157 C159 1.384 . S
H158 C160 0.949 . S
C159 C157 1.384 . S
C159 C160 1.385 . S
C159 H161 0.950 . S
C160 C154 1.404 . S
C160 H158 0.949 . S
C160 C159 1.385 . S
H161 C159 0.950 . S
H162 C146 0.951 . S
H163 C148 0.951 . S
H164 C150 0.951 . S
H165 C151 0.950 . S
H166 C152 0.950 . S
H167 C153 0.950 . S
H168 C155 0.950 . S
H169 C156 0.951 . S
C170 C171 1.386 . S
C170 C172 1.383 . S
C170 H186 0.951 . S
C171 C170 1.386 . S
C171 C175 1.383 . S
C172 C170 1.383 . S
C172 C173 1.402 . S
C172 H187 0.951 . S
C173 C172 1.402 . S
C173 C174 1.375 . S
C173 C176 1.481 . S
C174 C173 1.375 . S
C174 C175 1.367 . S
C174 H188 0.951 . S
C175 C171 1.383 . S
C175 C174 1.367 . S
C175 H189 0.950 . S
C176 C173 1.481 . S
C176 C177 1.297 . S
C176 H190 0.950 . S
C177 C176 1.297 . S
C177 C178 1.479 . S
C177 H191 0.950 . S
C178 C177 1.479 . S
C178 C179 1.375 . S
C178 C184 1.404 . S
C179 C178 1.375 . S
C179 C180 1.369 . S
C179 H192 0.950 . S
C180 C179 1.369 . S
C180 C181 1.392 . S
C180 H193 0.951 . S
C181 C180 1.392 . S
C181 C183 1.384 . S
H182 C184 0.949 . S
C183 C181 1.384 . S
C183 C184 1.385 . S
C183 H185 0.950 . S
C184 C178 1.404 . S
C184 H182 0.949 . S
C184 C183 1.385 . S
H185 C183 0.950 . S
H186 C170 0.951 . S
H187 C172 0.951 . S
H188 C174 0.951 . S
H189 C175 0.950 . S
H190 C176 0.950 . S
H191 C177 0.950 . S
H192 C179 0.950 . S
H193 C180 0.951 . S
C194 C195 1.386 . S
C194 C196 1.383 . S
C194 H210 0.951 . S
C195 C194 1.386 . S
C195 C199 1.383 . S
C196 C194 1.383 . S
C196 C197 1.402 . S
C196 H211 0.951 . S
C197 C196 1.402 . S
C197 C198 1.375 . S
C197 C200 1.481 . S
C198 C197 1.375 . S
C198 C199 1.367 . S
C198 H212 0.951 . S
C199 C195 1.383 . S
C199 C198 1.367 . S
C199 H213 0.950 . S
C200 C197 1.481 . S
C200 C201 1.297 . S
C200 H214 0.950 . S
C201 C200 1.297 . S
C201 C202 1.479 . S
C201 H215 0.950 . S
C202 C201 1.479 . S
C202 C203 1.375 . S
C202 C208 1.404 . S
C203 C202 1.375 . S
C203 C204 1.369 . S
C203 H216 0.950 . S
C204 C203 1.369 . S
C204 C205 1.392 . S
C204 H217 0.951 . S
C205 C204 1.392 . S
C205 C207 1.384 . S
H206 C208 0.949 . S
C207 C205 1.384 . S
C207 C208 1.385 . S
C207 H209 0.950 . S
C208 C202 1.404 . S
C208 H206 0.949 . S
C208 C207 1.385 . S
H209 C207 0.950 . S
H210 C194 0.951 . S
H211 C196 0.951 . S
H212 C198 0.951 . S
H213 C199 0.950 . S
H214 C200 0.950 . S
H215 C201 0.950 . S
H216 C203 0.950 . S
H217 C204 0.951 . S
C218 C219 1.386 . S
C218 C220 1.383 . S
C218 H234 0.951 . S
C219 C218 1.386 . S
C219 C223 1.383 . S
C220 C218 1.383 . S
C220 C221 1.402 . S
C220 H235 0.951 . S
C221 C220 1.402 . S
C221 C222 1.375 . S
C221 C224 1.481 . S
C222 C221 1.375 . S
C222 C223 1.367 . S
C222 H236 0.951 . S
C223 C219 1.383 . S
C223 C222 1.367 . S
C223 H237 0.950 . S
C224 C221 1.481 . S
C224 C225 1.297 . S
C224 H238 0.950 . S
C225 C224 1.297 . S
C225 C226 1.479 . S
C225 H239 0.950 . S
C226 C225 1.479 . S
C226 C227 1.375 . S
C226 C232 1.404 . S
C227 C226 1.375 . S
C227 C228 1.369 . S
C227 H240 0.950 . S
C228 C227 1.369 . S
C228 C229 1.392 . S
C228 H241 0.951 . S
C229 C228 1.392 . S
C229 C231 1.384 . S
H230 C232 0.949 . S
C231 C229 1.384 . S
C231 C232 1.385 . S
C231 H233 0.950 . S
C232 C226 1.404 . S
C232 H230 0.949 . S
C232 C231 1.385 . S
H233 C231 0.950 . S
H234 C218 0.951 . S
H235 C220 0.951 . S
H236 C222 0.951 . S
H237 C223 0.950 . S
H238 C224 0.950 . S
H239 C225 0.950 . S
H240 C227 0.950 . S
H241 C228 0.951 . S
C242 C243 1.386 . S
C242 C244 1.383 . S
C242 H258 0.951 . S
C243 C242 1.386 . S
C243 C247 1.383 . S
C244 C242 1.383 . S
C244 C245 1.402 . S
C244 H259 0.951 . S
C245 C244 1.402 . S
C245 C246 1.375 . S
C245 C248 1.481 . S
C246 C245 1.375 . S
C246 C247 1.367 . S
C246 H260 0.951 . S
C247 C243 1.383 . S
C247 C246 1.367 . S
C247 H261 0.950 . S
C248 C245 1.481 . S
C248 C249 1.297 . S
C248 H262 0.950 . S
C249 C248 1.297 . S
C249 C250 1.479 . S
C249 H263 0.950 . S
C250 C249 1.479 . S
C250 C251 1.375 . S
C250 C256 1.404 . S
C251 C250 1.375 . S
C251 C252 1.369 . S
C251 H264 0.950 . S
C252 C251 1.369 . S
C252 C253 1.392 . S
C252 H265 0.951 . S
C253 C252 1.392 . S
C253 C255 1.384 . S
H254 C256 0.949 . S
C255 C253 1.384 . S
C255 C256 1.385 . S
C255 H257 0.950 . S
C256 C250 1.404 . S
C256 H254 0.949 . S
C256 C255 1.385 . S
H257 C255 0.950 . S
H258 C242 0.951 . S
H259 C244 0.951 . S
H260 C246 0.951 . S
H261 C247 0.950 . S
H262 C248 0.950 . S
H263 C249 0.950 . S
H264 C251 0.950 . S
H265 C252 0.951 . S
C266 C267 1.386 . S
C266 C268 1.383 . S
C266 H282 0.951 . S
C267 C266 1.386 . S
C267 C271 1.383 . S
C268 C266 1.383 . S
C268 C269 1.402 . S
C268 H283 0.951 . S
C269 C268 1.402 . S
C269 C270 1.375 . S
C269 C272 1.481 . S
C270 C269 1.375 . S
C270 C271 1.367 . S
C270 H284 0.951 . S
C271 C267 1.383 . S
C271 C270 1.367 . S
C271 H285 0.950 . S
C272 C269 1.481 . S
C272 C273 1.297 . S
C272 H286 0.950 . S
C273 C272 1.297 . S
C273 C274 1.479 . S
C273 H287 0.950 . S
C274 C273 1.479 . S
C274 C275 1.375 . S
C274 C280 1.404 . S
C275 C274 1.375 . S
C275 C276 1.369 . S
C275 H288 0.950 . S
C276 C275 1.369 . S
C276 C277 1.392 . S
C276 H289 0.951 . S
C277 C276 1.392 . S
C277 C279 1.384 . S
H278 C280 0.949 . S
C279 C277 1.384 . S
C279 C280 1.385 . S
C279 H281 0.950 . S
C280 C274 1.404 . S
C280 H278 0.949 . S
C280 C279 1.385 . S
H281 C279 0.950 . S
H282 C266 0.951 . S
H283 C268 0.951 . S
H284 C270 0.951 . S
H285 C271 0.950 . S
H286 C272 0.950 . S
H287 C273 0.950 . S
H288 C275 0.950 . S
H289 C276 0.951 . S
C290 C291 1.386 . S
C290 C292 1.383 . S
C290 H306 0.951 . S
C291 C290 1.386 . S
C291 C295 1.383 . S
C292 C290 1.383 . S
C292 C293 1.402 . S
C292 H307 0.951 . S
C293 C292 1.402 . S
C293 C294 1.375 . S
C293 C296 1.481 . S
C294 C293 1.375 . S
C294 C295 1.367 . S
C294 H308 0.951 . S
C295 C291 1.383 . S
C295 C294 1.367 . S
C295 H309 0.950 . S
C296 C293 1.481 . S
C296 C297 1.297 . S
C296 H310 0.950 . S
C297 C296 1.297 . S
C297 C298 1.479 . S
C297 H311 0.950 . S
C298 C297 1.479 . S
C298 C299 1.375 . S
C298 C304 1.404 . S
C299 C298 1.375 . S
C299 C300 1.369 . S
C299 H312 0.950 . S
C300 C299 1.369 . S
C300 C301 1.392 . S
C300 H313 0.951 . S
C301 C300 1.392 . S
C301 C303 1.384 . S
H302 C304 0.949 . S
C303 C301 1.384 . S
C303 C304 1.385 . S
C303 H305 0.950 . S
C304 C298 1.404 . S
C304 H302 0.949 . S
C304 C303 1.385 . S
H305 C303 0.950 . S
H306 C290 0.951 . S
H307 C292 0.951 . S
H308 C294 0.951 . S
H309 C295 0.950 . S
H310 C296 0.950 . S
H311 C297 0.950 . S
H312 C299 0.950 . S
H313 C300 0.951 . S
C314 C315 1.386 . S
C314 C316 1.383 . S
C314 H330 0.951 . S
C315 C314 1.386 . S
C315 C319 1.383 . S
C316 C314 1.383 . S
C316 C317 1.402 . S
C316 H331 0.951 . S
C317 C316 1.402 . S
C317 C318 1.375 . S
C317 C320 1.481 . S
C318 C317 1.375 . S
C318 C319 1.367 . S
C318 H332 0.951 . S
C319 C315 1.383 . S
C319 C318 1.367 . S
C319 H333 0.950 . S
C320 C317 1.481 . S
C320 C321 1.297 . S
C320 H334 0.950 . S
C321 C320 1.297 . S
C321 C322 1.479 . S
C321 H335 0.950 . S
C322 C321 1.479 . S
C322 C323 1.375 . S
C322 C328 1.404 . S
C323 C322 1.375 . S
C323 C324 1.369 . S
C323 H336 0.950 . S
C324 C323 1.369 . S
C324 C325 1.392 . S
C324 H337 0.951 . S
C325 C324 1.392 . S
C325 C327 1.384 . S
H326 C328 0.949 . S
C327 C325 1.384 . S
C327 C328 1.385 . S
C327 H329 0.950 . S
C328 C322 1.404 . S
C328 H326 0.949 . S
C328 C327 1.385 . S
H329 C327 0.950 . S
H330 C314 0.951 . S
H331 C316 0.951 . S
H332 C318 0.951 . S
H333 C319 0.950 . S
H334 C320 0.950 . S
H335 C321 0.950 . S
H336 C323 0.950 . S
H337 C324 0.951 . S
C338 C339 1.386 . S
C338 C340 1.383 . S
C338 H354 0.951 . S
C339 C338 1.386 . S
C339 C343 1.383 . S
C340 C338 1.383 . S
C340 C341 1.402 . S
C340 H355 0.951 . S
C341 C340 1.402 . S
C341 C342 1.375 . S
C341 C344 1.481 . S
C342 C341 1.375 . S
C342 C343 1.367 . S
C342 H356 0.951 . S
C343 C339 1.383 . S
C343 C342 1.367 . S
C343 H357 0.950 1_655 S
C344 C341 1.481 . S
C344 C345 1.297 . S
C344 H358 0.950 . S
C345 C344 1.297 . S
C345 C346 1.479 . S
C345 H359 0.950 . S
C346 C345 1.479 . S
C346 C347 1.375 . S
C346 C352 1.404 . S
C347 C346 1.375 . S
C347 C348 1.369 . S
C347 H360 0.950 . S
C348 C347 1.369 . S
C348 C349 1.392 . S
C348 H361 0.951 . S
C349 C348 1.392 . S
C349 C351 1.384 . S
H350 C352 0.949 . S
C351 C349 1.384 . S
C351 C352 1.385 . S
C351 H353 0.950 . S
C352 C346 1.404 . S
C352 H350 0.949 . S
C352 C351 1.385 . S
H353 C351 0.950 . S
H354 C338 0.951 . S
H355 C340 0.951 . S
H356 C342 0.951 . S
H357 C343 0.950 1_455 S
H358 C344 0.950 . S
H359 C345 0.950 . S
H360 C347 0.950 . S
H361 C348 0.951 . S
C362 C363 1.386 . S
C362 C364 1.383 . S
C362 H378 0.951 . S
C363 C362 1.386 . S
C363 C367 1.383 . S
C364 C362 1.383 . S
C364 C365 1.402 . S
C364 H379 0.951 . S
C365 C364 1.402 . S
C365 C366 1.375 . S
C365 C368 1.481 . S
C366 C365 1.375 . S
C366 C367 1.367 . S
C366 H380 0.951 . S
C367 C363 1.383 . S
C367 C366 1.367 . S
C367 H381 0.950 . S
C368 C365 1.481 . S
C368 C369 1.297 . S
C368 H382 0.950 . S
C369 C368 1.297 . S
C369 C370 1.479 . S
C369 H383 0.950 . S
C370 C369 1.479 . S
C370 C371 1.375 . S
C370 C376 1.404 . S
C371 C370 1.375 . S
C371 C372 1.369 . S
C371 H384 0.950 . S
C372 C371 1.369 . S
C372 C373 1.392 . S
C372 H385 0.951 . S
C373 C372 1.392 . S
C373 C375 1.384 . S
H374 C376 0.949 . S
C375 C373 1.384 . S
C375 C376 1.385 . S
C375 H377 0.950 . S
C376 C370 1.404 . S
C376 H374 0.949 . S
C376 C375 1.385 . S
H377 C375 0.950 . S
H378 C362 0.951 . S
H379 C364 0.951 . S
H380 C366 0.951 . S
H381 C367 0.950 . S
H382 C368 0.950 . S
H383 C369 0.950 . S
H384 C371 0.950 . S
H385 C372 0.951 . S
C386 C387 1.386 . S
C386 C388 1.383 . S
C386 H402 0.951 1_655 S
C387 C386 1.386 . S
C387 C391 1.383 . S
C388 C386 1.383 . S
C388 C389 1.402 . S
C388 H403 0.951 . S
C389 C388 1.402 . S
C389 C390 1.375 . S
C389 C392 1.481 . S
C390 C389 1.375 . S
C390 C391 1.367 . S
C390 H404 0.951 . S
C391 C387 1.383 . S
C391 C390 1.367 . S
C391 H405 0.950 . S
C392 C389 1.481 . S
C392 C393 1.297 . S
C392 H406 0.950 . S
C393 C392 1.297 . S
C393 C394 1.479 . S
C393 H407 0.950 . S
C394 C393 1.479 . S
C394 C395 1.375 . S
C394 C400 1.404 . S
C395 C394 1.375 . S
C395 C396 1.369 . S
C395 H408 0.950 . S
C396 C395 1.369 . S
C396 C397 1.392 . S
C396 H409 0.951 . S
C397 C396 1.392 . S
C397 C399 1.384 . S
H398 C400 0.949 . S
C399 C397 1.384 . S
C399 C400 1.385 . S
C399 H401 0.950 . S
C400 C394 1.404 . S
C400 H398 0.949 . S
C400 C399 1.385 . S
H401 C399 0.950 . S
H402 C386 0.951 1_455 S
H403 C388 0.951 . S
H404 C390 0.951 . S
H405 C391 0.950 . S
H406 C392 0.950 . S
H407 C393 0.950 . S
H408 C395 0.950 . S
H409 C396 0.951 . S
C123 C15 1.432 . S
C133 C99 1.312 . S
C147 C55 0.879 . S
C157 C105 0.945 . S
C171 C10 1.247 . S
C181 C96 1.059 . S
C195 C50 1.914 . S
C205 C121 1.814 . S
C219 C9 2.043 . S
C229 C87 2.003 . S
C253 C104 1.915 . S
C243 C49 2.004 . S
C267 C59 1.664 . S
C277 C100 1.544 . S
C301 C117 2.171 . S
C291 C18 2.205 . S
C325 C84 2.157 . S
C315 C58 2.297 . S
C349 C120 1.333 . S
C339 C6 1.520 . S
C373 C83 0.788 . S
C363 C46 0.965 . S
C397 C108 0.919 . S
C387 C19 1.061 . S
