# Generated by pormake.
# Topology soc, (4,6)-cn, num edge types: 1
# Building blocks:
#     Node 0, Type 0, BuildingBlock: ESEHIV_clean_sbu_0, # of connection points: 4
#     Node 1, Type 0, BuildingBlock: ESEHIV_clean_sbu_0, # of connection points: 4
#     Node 2, Type 0, BuildingBlock: ESEHIV_clean_sbu_0, # of connection points: 4
#     Node 3, Type 0, BuildingBlock: ESEHIV_clean_sbu_0, # of connection points: 4
#     Node 4, Type 0, BuildingBlock: ESEHIV_clean_sbu_0, # of connection points: 4
#     Node 5, Type 0, BuildingBlock: ESEHIV_clean_sbu_0, # of connection points: 4
#     Node 6, Type 0, BuildingBlock: ESEHIV_clean_sbu_0, # of connection points: 4
#     Node 7, Type 0, BuildingBlock: ESEHIV_clean_sbu_0, # of connection points: 4
#     Node 8, Type 0, BuildingBlock: ESEHIV_clean_sbu_0, # of connection points: 4
#     Node 9, Type 0, BuildingBlock: ESEHIV_clean_sbu_0, # of connection points: 4
#     Node 10, Type 0, BuildingBlock: ESEHIV_clean_sbu_0, # of connection points: 4
#     Node 11, Type 0, BuildingBlock: ESEHIV_clean_sbu_0, # of connection points: 4
#     Node 12, Type 1, BuildingBlock: KUMBOL_clean_sbu_0, # of connection points: 6
#     Node 13, Type 1, BuildingBlock: KUMBOL_clean_sbu_0, # of connection points: 6
#     Node 14, Type 1, BuildingBlock: KUMBOL_clean_sbu_0, # of connection points: 6
#     Node 15, Type 1, BuildingBlock: KUMBOL_clean_sbu_0, # of connection points: 6
#     Node 16, Type 1, BuildingBlock: KUMBOL_clean_sbu_0, # of connection points: 6
#     Node 17, Type 1, BuildingBlock: KUMBOL_clean_sbu_0, # of connection points: 6
#     Node 18, Type 1, BuildingBlock: KUMBOL_clean_sbu_0, # of connection points: 6
#     Node 19, Type 1, BuildingBlock: KUMBOL_clean_sbu_0, # of connection points: 6
#     Edge 20, Type (0, 1), BuildingBlock: UVAHIK_clean_linker_0, # of connection points: 2
#     Edge 21, Type (0, 1), BuildingBlock: UVAHIK_clean_linker_0, # of connection points: 2
#     Edge 22, Type (0, 1), BuildingBlock: UVAHIK_clean_linker_0, # of connection points: 2
#     Edge 23, Type (0, 1), BuildingBlock: UVAHIK_clean_linker_0, # of connection points: 2
#     Edge 24, Type (0, 1), BuildingBlock: UVAHIK_clean_linker_0, # of connection points: 2
#     Edge 25, Type (0, 1), BuildingBlock: UVAHIK_clean_linker_0, # of connection points: 2
#     Edge 26, Type (0, 1), BuildingBlock: UVAHIK_clean_linker_0, # of connection points: 2
#     Edge 27, Type (0, 1), BuildingBlock: UVAHIK_clean_linker_0, # of connection points: 2
#     Edge 28, Type (0, 1), BuildingBlock: UVAHIK_clean_linker_0, # of connection points: 2
#     Edge 29, Type (0, 1), BuildingBlock: UVAHIK_clean_linker_0, # of connection points: 2
#     Edge 30, Type (0, 1), BuildingBlock: UVAHIK_clean_linker_0, # of connection points: 2
#     Edge 31, Type (0, 1), BuildingBlock: UVAHIK_clean_linker_0, # of connection points: 2
#     Edge 32, Type (0, 1), BuildingBlock: UVAHIK_clean_linker_0, # of connection points: 2
#     Edge 33, Type (0, 1), BuildingBlock: UVAHIK_clean_linker_0, # of connection points: 2
#     Edge 34, Type (0, 1), BuildingBlock: UVAHIK_clean_linker_0, # of connection points: 2
#     Edge 35, Type (0, 1), BuildingBlock: UVAHIK_clean_linker_0, # of connection points: 2
#     Edge 36, Type (0, 1), BuildingBlock: UVAHIK_clean_linker_0, # of connection points: 2
#     Edge 37, Type (0, 1), BuildingBlock: UVAHIK_clean_linker_0, # of connection points: 2
#     Edge 38, Type (0, 1), BuildingBlock: UVAHIK_clean_linker_0, # of connection points: 2
#     Edge 39, Type (0, 1), BuildingBlock: UVAHIK_clean_linker_0, # of connection points: 2
#     Edge 40, Type (0, 1), BuildingBlock: UVAHIK_clean_linker_0, # of connection points: 2
#     Edge 41, Type (0, 1), BuildingBlock: UVAHIK_clean_linker_0, # of connection points: 2
#     Edge 42, Type (0, 1), BuildingBlock: UVAHIK_clean_linker_0, # of connection points: 2
#     Edge 43, Type (0, 1), BuildingBlock: UVAHIK_clean_linker_0, # of connection points: 2
#     Edge 44, Type (0, 1), BuildingBlock: UVAHIK_clean_linker_0, # of connection points: 2
#     Edge 45, Type (0, 1), BuildingBlock: UVAHIK_clean_linker_0, # of connection points: 2
#     Edge 46, Type (0, 1), BuildingBlock: UVAHIK_clean_linker_0, # of connection points: 2
#     Edge 47, Type (0, 1), BuildingBlock: UVAHIK_clean_linker_0, # of connection points: 2
#     Edge 48, Type (0, 1), BuildingBlock: UVAHIK_clean_linker_0, # of connection points: 2
#     Edge 49, Type (0, 1), BuildingBlock: UVAHIK_clean_linker_0, # of connection points: 2
#     Edge 50, Type (0, 1), BuildingBlock: UVAHIK_clean_linker_0, # of connection points: 2
#     Edge 51, Type (0, 1), BuildingBlock: UVAHIK_clean_linker_0, # of connection points: 2
#     Edge 52, Type (0, 1), BuildingBlock: UVAHIK_clean_linker_0, # of connection points: 2
#     Edge 53, Type (0, 1), BuildingBlock: UVAHIK_clean_linker_0, # of connection points: 2
#     Edge 54, Type (0, 1), BuildingBlock: UVAHIK_clean_linker_0, # of connection points: 2
#     Edge 55, Type (0, 1), BuildingBlock: UVAHIK_clean_linker_0, # of connection points: 2
#     Edge 56, Type (0, 1), BuildingBlock: UVAHIK_clean_linker_0, # of connection points: 2
#     Edge 57, Type (0, 1), BuildingBlock: UVAHIK_clean_linker_0, # of connection points: 2
#     Edge 58, Type (0, 1), BuildingBlock: UVAHIK_clean_linker_0, # of connection points: 2
#     Edge 59, Type (0, 1), BuildingBlock: UVAHIK_clean_linker_0, # of connection points: 2
#     Edge 60, Type (0, 1), BuildingBlock: UVAHIK_clean_linker_0, # of connection points: 2
#     Edge 61, Type (0, 1), BuildingBlock: UVAHIK_clean_linker_0, # of connection points: 2
#     Edge 62, Type (0, 1), BuildingBlock: UVAHIK_clean_linker_0, # of connection points: 2
#     Edge 63, Type (0, 1), BuildingBlock: UVAHIK_clean_linker_0, # of connection points: 2
#     Edge 64, Type (0, 1), BuildingBlock: UVAHIK_clean_linker_0, # of connection points: 2
#     Edge 65, Type (0, 1), BuildingBlock: UVAHIK_clean_linker_0, # of connection points: 2
#     Edge 66, Type (0, 1), BuildingBlock: UVAHIK_clean_linker_0, # of connection points: 2
#     Edge 67, Type (0, 1), BuildingBlock: UVAHIK_clean_linker_0, # of connection points: 2
# Relax obj value: 0.053
# Max RMSD: 0.164
# Mean RMSD: 0.130
data_MOF--net-soc--node1-ESEHIV_clean_sbu_0--node2-KUMBOL_clean_sbu_0--edge1-UVAHIK_clean_linker_0
_symmetry_space_group_name_H-M    P1
_symmetry_Int_Tables_number       1
_symmetry_cell_setting            triclinic
loop_
_symmetry_equiv_pos_as_xyz
'x, y, z'
_cell_length_a     65.205932
_cell_length_b     62.523253
_cell_length_c     53.513815
_cell_angle_alpha  85.066514
_cell_angle_beta   83.198317
_cell_angle_gamma 75.693793
loop_
_atom_site_label
_atom_site_type_symbol
_atom_site_fract_x
_atom_site_fract_y
_atom_site_fract_z
_atom_type_partial_charge
Cu0 Cu 0.03511 0.03155 0.34222 0.0
N1 N 0.04834 0.04548 0.36275 0.0
N2 N 0.06765 0.06808 0.37204 0.0
C3 C 0.05747 0.06215 0.35428 0.0
C4 C 0.06418 0.05511 0.39283 0.0
C5 C 0.05222 0.04114 0.38703 0.0
O6 O 0.05687 0.01095 0.32132 0.0
C7 C 1.00191 0.05726 0.31062 0.0
O8 O 1.00293 0.03982 0.29805 0.0
H9 H 0.05738 0.06911 0.33504 0.0
H10 H 0.04729 0.02837 0.39943 0.0
N11 N 0.01959 0.0134 0.36101 0.0
N12 N 0.9973 0.99098 0.36645 0.0
C13 C 1.00181 0.0093 0.35417 0.0
C14 C 0.02657 0.99723 0.37841 0.0
C15 C 1.01274 0.98349 0.38201 0.0
C16 C 0.07677 0.00921 0.32166 0.0
O17 O 0.08316 0.02428 0.33213 0.0
H18 H 0.99317 0.01871 0.33925 0.0
H19 H 0.04167 0.99439 0.38615 0.0
O20 O 1.01489 0.05627 0.32691 0.0
H21 H 0.07061 0.05503 0.41059 0.0
H22 H 1.01497 0.96814 0.39351 0.0
Cu23 Cu 0.03724 0.03185 0.75015 0.0
N24 N 0.02391 0.00915 0.74459 0.0
N25 N 1.00254 0.98724 0.73911 0.0
C26 C 1.00785 0.00668 0.73195 0.0
C27 C 1.01512 0.97748 0.75695 0.0
C28 C 0.02783 0.99096 0.7605 0.0
O29 O 1.01505 0.05533 0.76594 0.0
C30 C 0.07288 1.00081 0.74965 0.0
O31 O 0.0668 0.00334 0.72678 0.0
H32 H 0.99968 0.01891 0.71867 0.0
H33 H 0.03829 0.98817 0.77526 0.0
N34 N 0.05214 0.04767 0.72578 0.0
N35 N 0.07386 0.07099 0.72102 0.0
C36 C 0.06853 0.05351 0.73419 0.0
C37 C 0.04719 0.06172 0.70561 0.0
C38 C 0.0607 0.07603 0.70255 0.0
C39 C 1.00213 0.06431 0.74969 0.0
O40 O 1.00484 0.05562 0.72774 0.0
H41 H 0.07508 0.04624 0.75139 0.0
H42 H 0.03361 0.06305 0.69529 0.0
O43 O 0.06162 0.01347 0.76643 0.0
H44 H 1.01411 0.9623 0.76789 0.0
H45 H 0.05953 0.09022 0.68924 0.0
Cu46 Cu 0.27258 0.05164 0.08057 0.0
N47 N 0.26118 0.04194 0.05418 0.0
N48 N 0.24575 0.02652 0.02765 0.0
C49 C 0.24538 0.03189 0.0518 0.0
C50 C 0.26251 0.03281 0.01487 0.0
C51 C 0.27204 0.04184 0.03116 0.0
O52 O 0.28617 0.02544 0.10064 0.0
C53 C 0.27834 0.08705 0.05067 0.0
O54 O 0.25758 0.09053 0.05523 0.0
H55 H 0.23445 0.02793 0.06732 0.0
H56 H 0.28679 0.0469 0.02668 0.0
N57 N 0.25468 0.07111 0.10305 0.0
N58 N 0.24816 0.09786 0.13017 0.0
C59 C 0.2631 0.08299 0.11703 0.0
C60 C 0.23344 0.07858 0.10756 0.0
C61 C 0.22937 0.09526 0.12432 0.0
C62 C 0.27285 0.01679 0.11489 0.0
O63 O 0.25248 0.02601 0.11435 0.0
H64 H 0.28006 0.08142 0.11659 0.0
H65 H 0.22185 0.07281 0.09878 0.0
O66 O 0.29001 0.07015 0.0616 0.0
H67 H 0.26836 0.02968 0.99539 0.0
H68 H 0.21388 0.1048 0.13145 0.0
Cu69 Cu 0.0522 0.29901 0.07767 0.0
N70 N 0.07123 0.28866 0.04905 0.0
N71 N 0.09997 0.28307 0.02077 0.0
C72 C 0.09279 0.2824 0.04554 0.0
C73 C 0.08278 0.29049 0.00824 0.0
C74 C 0.06536 0.29415 0.02545 0.0
O75 O 0.06782 0.31399 0.09725 0.0
C76 C 0.02056 0.29521 0.05291 0.0
O77 O 0.03241 0.2753 0.05754 0.0
H78 H 0.10308 0.27946 0.0605 0.0
H79 H 0.0498 0.30293 0.02067 0.0
N80 N 0.04168 0.27963 0.10201 0.0
N81 N 1.01491 0.27115 0.12815 0.0
C82 C 0.02276 0.28734 0.11519 0.0
C83 C 0.04645 0.25761 0.10715 0.0
C84 C 0.02999 0.25235 0.1234 0.0
C85 C 0.08233 0.29929 0.10746 0.0
O86 O 0.08357 0.27845 0.10401 0.0
H87 H 1.01451 0.3046 0.114 0.0
H88 H 0.06014 0.24611 0.09851 0.0
O89 O 0.02585 0.31164 0.06119 0.0
H90 H 0.08304 0.29507 0.98823 0.0
H91 H 0.0288 0.23582 0.12996 0.0
Cu92 Cu 0.81012 1.00134 0.99057 0.0
N93 N 0.82342 0.01704 0.96518 0.0
N94 N 0.8267 0.0467 0.94007 0.0
C95 C 0.81652 0.03901 0.96096 0.0
C96 C 0.84053 0.02873 0.93053 0.0
C97 C 0.83851 0.01041 0.94615 0.0
O98 O 0.79618 0.02296 0.01546 0.0
C99 C 0.80506 0.96902 0.9626 0.0
O100 O 0.82577 0.9652 0.96277 0.0
H101 H 0.80346 0.049 0.97241 0.0
H102 H 0.84698 0.99347 0.94332 0.0
N103 N 0.82813 0.97989 0.00904 0.0
N104 N 0.83279 0.95473 0.04118 0.0
C105 C 0.8193 0.96637 0.02506 0.0
C106 C 0.84834 0.97651 0.01455 0.0
C107 C 0.85129 0.9608 0.03452 0.0
C108 C 0.80986 0.0314 0.02371 0.0
O109 O 0.82992 0.02492 0.01488 0.0
H110 H 0.80278 0.96601 0.02538 0.0
H111 H 0.85958 0.98577 1.00591 0.0
O112 O 0.79332 0.9852 0.97462 0.0
H113 H 0.85108 0.02873 0.91333 0.0
H114 H 0.86547 0.95534 0.04427 0.0
Cu115 Cu 0.02082 0.76474 0.00823 0.0
N116 N 1.00729 0.74956 0.98963 0.0
N117 N 0.98345 0.74354 0.96615 0.0
C118 C 0.99122 0.75888 0.97561 0.0
C119 C 0.99521 0.72381 0.9744 0.0
C120 C 1.00998 0.72759 0.98885 0.0
O121 O 0.99813 0.78208 0.03265 0.0
C122 C 0.05438 0.78843 0.98407 0.0
O123 O 0.05201 0.79995 1.00407 0.0
H124 H 0.98479 0.77656 0.97332 0.0
H125 H 0.02149 0.71525 0.99862 0.0
N126 N 0.03787 0.74523 0.02975 0.0
N127 N 0.06075 0.74023 0.05867 0.0
C128 C 0.05547 0.74984 0.03619 0.0
C129 C 0.03214 0.73146 0.0486 0.0
C130 C 0.04634 0.72833 0.06659 0.0
C131 C 0.98365 0.77235 0.04297 0.0
O132 O 0.98333 0.75314 0.03516 0.0
H133 H 0.06265 0.76237 0.0264 0.0
H134 H 1.01735 0.72632 0.05073 0.0
O135 O 0.04164 0.77597 0.9826 0.0
H136 H 0.9932 0.70782 0.97042 0.0
H137 H 0.04469 0.72029 0.0852 0.0
Cu138 Cu 0.53115 0.52745 0.84424 0.0
N139 N 0.54423 0.54131 0.86494 0.0
N140 N 0.56461 0.56302 0.87361 0.0
C141 C 0.56279 0.5472 0.85905 0.0
C142 C 0.54663 0.56717 0.88949 0.0
C143 C 0.5341 0.55368 0.88413 0.0
O144 O 0.55257 0.50473 0.82622 0.0
C145 C 0.49664 0.55242 0.8143 0.0
O146 O 0.49506 0.53398 0.80555 0.0
H147 H 0.57375 0.54185 0.84282 0.0
H148 H 0.51789 0.5544 0.89197 0.0
N149 N 0.51468 0.51084 0.86381 0.0
N150 N 0.49475 0.48642 0.87185 0.0
C151 C 0.50313 0.49919 0.85409 0.0
C152 C 0.51402 0.50485 0.88863 0.0
C153 C 0.50141 0.48985 0.89374 0.0
C154 C 0.56947 0.50586 0.81219 0.0
O155 O 0.57244 0.52524 0.80341 0.0
H156 H 0.50144 0.49945 0.83421 0.0
H157 H 0.52279 0.51023 0.90181 0.0
O158 O 0.51179 0.55222 0.82741 0.0
H159 H 0.54226 0.58009 0.90272 0.0
H160 H 0.49814 0.48145 0.91177 0.0
Cu161 Cu 0.54035 0.5343 0.24461 0.0
N162 N 0.52732 0.51857 0.22594 0.0
N163 N 0.50517 0.49815 0.21916 0.0
C164 C 0.5108 0.5102 0.23567 0.0
C165 C 0.51868 0.49897 0.19815 0.0
C166 C 0.53233 0.51168 0.20236 0.0
O167 O 0.51721 0.55516 0.26287 0.0
C168 C 0.57606 0.50198 0.24585 0.0
O169 O 0.57464 0.50831 0.22197 0.0
H170 H 0.5036 0.5123 0.25487 0.0
H171 H 0.54529 0.51511 0.18936 0.0
N172 N 0.5556 0.55233 0.22513 0.0
N173 N 0.57744 0.57506 0.21845 0.0
C174 C 0.56773 0.5628 0.23562 0.0
C175 C 0.55737 0.55821 0.20034 0.0
C176 C 0.57092 0.5723 0.19614 0.0
C177 C 0.50539 0.56731 0.24711 0.0
O178 O 0.51022 0.56375 0.22305 0.0
H179 H 0.56901 0.5616 0.25568 0.0
H180 H 0.54936 0.5528 0.1864 0.0
O181 O 0.56157 0.51192 0.26203 0.0
H182 H 0.51882 0.49086 0.18104 0.0
H183 H 0.5757 0.57969 0.17806 0.0
Cu184 Cu 0.75653 0.56348 0.57774 0.0
N185 N 0.73882 0.57838 0.55393 0.0
N186 N 0.73343 0.59973 0.51861 0.0
C187 C 0.74177 0.5969 0.54088 0.0
C188 C 0.72435 0.5826 0.51795 0.0
C189 C 0.72771 0.56943 0.53983 0.0
O190 O 0.76476 0.58515 0.59587 0.0
C191 C 0.7822 0.54322 0.53599 0.0
O192 O 0.77951 0.56287 0.52421 0.0
H193 H 0.75259 0.60613 0.54583 0.0
H194 H 0.72463 0.55318 0.54368 0.0
N195 N 0.7427 0.54666 0.60087 0.0
N196 N 0.739 0.51713 0.62587 0.0
C197 C 0.75042 0.52497 0.60617 0.0
C198 C 0.72571 0.55293 0.61777 0.0
C199 C 0.72339 0.53467 0.63333 0.0
C200 C 0.7833 0.58731 0.59822 0.0
O201 O 0.79999 0.5737 0.58733 0.0
H202 H 0.76499 0.51545 0.59677 0.0
H203 H 0.71628 0.56972 0.61931 0.0
O204 O 0.77883 0.54186 0.55993 0.0
H205 H 0.71756 0.57877 0.50188 0.0
H206 H 0.71152 0.53446 0.64923 0.0
Cu207 Cu 0.55279 0.79584 0.56482 0.0
N208 N 0.57233 0.78028 0.53946 0.0
N209 N 0.59836 0.77483 0.50705 0.0
C210 C 0.5901 0.78605 0.52805 0.0
C211 C 0.58497 0.76169 0.5053 0.0
C212 C 0.56918 0.76501 0.52509 0.0
O213 O 0.5695 0.80877 0.5843 0.0
C214 C 0.51854 0.80431 0.53939 0.0
O215 O 0.52178 0.7831 0.54573 0.0
H216 H 0.59629 0.79888 0.53457 0.0
H217 H 0.55575 0.75756 0.52793 0.0
N218 N 0.53774 0.7793 0.58869 0.0
N219 N 0.51041 0.77217 0.61543 0.0
C220 C 0.51866 0.78783 0.60155 0.0
C221 C 0.54183 0.75745 0.59477 0.0
C222 C 0.52515 0.75304 0.61123 0.0
C223 C 0.58294 0.7933 0.59482 0.0
O224 O 0.58343 0.7728 0.59051 0.0
H225 H 0.51079 0.80522 0.60011 0.0
H226 H 0.55561 0.74545 0.58716 0.0
O227 O 0.53099 0.81519 0.54596 0.0
H228 H 0.58576 0.75104 0.49016 0.0
H229 H 0.52376 0.73678 0.61871 0.0
Cu230 Cu 0.30803 0.50351 0.50357 0.0
N231 N 0.32152 0.52012 0.4787 0.0
N232 N 0.32374 0.54956 0.45217 0.0
C233 C 0.31392 0.54203 0.47358 0.0
C234 C 0.33818 0.53163 0.44347 0.0
C235 C 0.33682 0.51355 0.45984 0.0
O236 O 0.29189 0.52502 0.52655 0.0
C237 C 0.30582 0.47012 0.47665 0.0
O238 O 0.32627 0.46767 0.47782 0.0
H239 H 0.3005 0.552 0.48456 0.0
H240 H 0.34574 0.49671 0.45745 0.0
N241 N 0.32471 0.48255 0.52486 0.0
N242 N 0.32968 0.45747 0.55735 0.0
C243 C 0.31544 0.4726 0.5448 0.0
C244 C 0.34574 0.47357 0.52479 0.0
C245 C 0.34883 0.45791 0.54483 0.0
C246 C 0.30509 0.53182 0.53768 0.0
O247 O 0.32558 0.52452 0.53146 0.0
H248 H 0.29839 0.47603 0.54955 0.0
H249 H 0.35784 0.47785 0.51103 0.0
O250 O 0.29291 0.4865 0.48703 0.0
H251 H 0.34869 0.53145 0.42621 0.0
H252 H 0.36394 0.44766 0.54978 0.0
Cu253 Cu 0.51309 0.27636 0.51205 0.0
N254 N 0.53538 0.26182 0.4896 0.0
N255 N 0.56598 0.25561 0.46459 0.0
C256 C 0.55263 0.26943 0.48064 0.0
C257 C 0.55667 0.23876 0.46328 0.0
C258 C 0.53785 0.24261 0.47872 0.0
O259 O 0.52602 0.29314 0.53261 0.0
C260 C 0.48053 0.27582 0.4848 0.0
O261 O 0.48888 0.25487 0.49036 0.0
H262 H 0.55545 0.28463 0.48614 0.0
H263 H 0.52682 0.23207 0.48169 0.0
N264 N 0.50231 0.25724 0.53593 0.0
N265 N 0.48114 0.24757 0.56868 0.0
C266 C 0.48642 0.26439 0.55388 0.0
C267 C 0.50754 0.23509 0.53942 0.0
C268 C 0.49448 0.22907 0.55957 0.0
C269 C 0.53999 0.27948 0.54472 0.0
O270 O 0.54377 0.25842 0.54042 0.0
H271 H 0.47908 0.28173 0.55595 0.0
H272 H 0.51987 0.22411 0.5281 0.0
O273 O 0.48905 0.29026 0.49222 0.0
H274 H 0.56289 0.22476 0.45174 0.0
H275 H 0.49472 0.21228 0.56661 0.0
Gd276 Gd 0.29493 0.30372 0.27121 0.0
Gd277 Gd 0.26883 0.2716 0.32085 0.0
C278 C 0.23031 0.3131 0.38448 0.0
C279 C 0.24996 0.29776 0.4203 0.0
C280 C 0.2615 0.28275 0.37909 0.0
C281 C 0.24493 0.29802 0.36893 0.0
C282 C 0.26379 0.28203 0.40507 0.0
C283 C 0.23325 0.31327 0.41001 0.0
C284 C 0.21274 0.32707 0.37415 0.0
C285 C 0.20983 0.32552 0.34905 0.0
N286 N 0.24238 0.29731 0.34422 0.0
C287 C 0.22484 0.31052 0.33429 0.0
H288 H 0.22225 0.31 0.31493 0.0
C289 C 0.2886 0.24997 0.37418 0.0
N290 N 0.27443 0.26759 0.36398 0.0
C291 C 0.29158 0.24865 0.39976 0.0
C292 C 0.27937 0.26498 0.4152 0.0
H293 H 0.29794 0.2372 0.36226 0.0
H294 H 0.22231 0.32491 0.42214 0.0
H295 H 0.33922 0.26182 0.27507 0.0
H296 H 0.20112 0.33881 0.3855 0.0
H297 H 0.19614 0.33606 0.34093 0.0
H298 H 0.25162 0.29761 0.44022 0.0
H299 H 0.26758 0.34218 0.23244 0.0
H300 H 0.35694 0.23513 0.20286 0.0
H301 H 0.36262 0.23462 0.24779 0.0
H302 H 0.3097 0.28459 0.14994 0.0
H303 H 0.30321 0.235 0.40755 0.0
H304 H 0.28158 0.26385 0.43506 0.0
H305 H 0.33688 0.25366 0.16656 0.0
H306 H 0.26277 0.34831 0.18693 0.0
N307 N 0.31978 0.27794 0.24624 0.0
C308 C 0.34651 0.24728 0.2148 0.0
C309 C 0.34982 0.24699 0.2401 0.0
C310 C 0.33016 0.26364 0.20504 0.0
C311 C 0.31694 0.27899 0.22143 0.0
C312 C 0.33645 0.26268 0.25554 0.0
N313 N 0.28943 0.3109 0.22836 0.0
C314 C 0.30135 0.29607 0.21217 0.0
C315 C 0.27353 0.33346 0.1938 0.0
C316 C 0.28459 0.31754 0.17714 0.0
C317 C 0.27631 0.32997 0.21949 0.0
C318 C 0.29896 0.29873 0.18617 0.0
H319 H 0.28238 0.32023 0.15726 0.0
O320 O 0.29561 0.33831 0.26675 0.0
O321 O 0.27841 0.3026 0.30932 0.0
O322 O 0.24663 0.28523 0.28976 0.0
O323 O 0.2644 0.30258 0.25642 0.0
O324 O 0.26922 0.33151 0.28831 0.0
O325 O 0.32482 0.31323 0.27092 0.0
O326 O 0.26958 0.23678 0.32736 0.0
O327 O 0.28488 0.27253 0.28229 0.0
O328 O 0.31783 0.28895 0.30063 0.0
O329 O 0.29936 0.27427 0.33533 0.0
O330 O 0.29472 0.24401 0.3042 0.0
O331 O 0.23952 0.26048 0.32304 0.0
C332 C 0.26708 0.32199 0.31051 0.0
C333 C 0.3115 0.283 0.16993 0.0
C334 C 0.327 0.26542 0.17938 0.0
C335 C 0.31614 0.33425 0.26723 0.0
C336 C 0.32749 0.34666 0.24833 0.0
C337 C 0.32491 0.34689 0.22265 0.0
C338 C 0.34112 0.35846 0.25609 0.0
C339 C 0.35223 0.37021 0.23811 0.0
C340 C 0.33549 0.35907 0.20488 0.0
C341 C 0.34916 0.37063 0.21252 0.0
C342 C 0.24762 0.29557 0.26694 0.0
C343 C 0.2962 0.25304 0.28163 0.0
C344 C 0.24902 0.23985 0.32792 0.0
C345 C 0.23865 0.22765 0.34826 0.0
C346 C 0.24583 0.22401 0.3723 0.0
C347 C 0.22181 0.21881 0.34334 0.0
C348 C 0.21223 0.20647 0.36244 0.0
C349 C 0.23654 0.21168 0.39118 0.0
C350 C 0.21989 0.20291 0.38633 0.0
C351 C 0.31656 0.28001 0.32399 0.0
H352 H 0.31489 0.33762 0.21623 0.0
H353 H 0.34348 0.35806 0.27587 0.0
H354 H 0.3333 0.35931 0.18512 0.0
H355 H 0.35757 0.37971 0.19843 0.0
H356 H 0.25875 0.23037 0.37655 0.0
H357 H 0.21617 0.22157 0.3248 0.0
H358 H 0.2424 0.20877 0.40958 0.0
H359 H 0.21319 0.19303 0.40122 0.0
Gd360 Gd 0.77449 0.26337 0.27095 0.0
Gd361 Gd 0.79428 0.29344 0.31564 0.0
C362 C 0.84328 0.33056 0.27929 0.0
C363 C 0.87452 0.31246 0.30044 0.0
C364 C 0.84162 0.30036 0.31047 0.0
C365 C 0.83189 0.3162 0.29316 0.0
C366 C 0.86291 0.29869 0.31476 0.0
C367 C 0.86473 0.32834 0.28272 0.0
C368 C 0.83271 0.34688 0.26258 0.0
C369 C 0.81127 0.34869 0.26016 0.0
N370 N 0.81121 0.31779 0.29007 0.0
C371 C 0.80071 0.33398 0.27416 0.0
H372 H 0.78419 0.33575 0.27209 0.0
C373 C 0.83794 0.2741 0.34409 0.0
N374 N 0.82998 0.28736 0.32405 0.0
C375 C 0.85902 0.27167 0.34891 0.0
C376 C 0.87169 0.28377 0.3339 0.0
H377 H 0.82786 0.26544 0.3564 0.0
H378 H 0.87377 0.33909 0.27208 0.0
H379 H 0.78984 0.2132 0.30727 0.0
H380 H 0.84088 0.35824 0.25163 0.0
H381 H 0.80287 0.36138 0.24747 0.0
H382 H 0.89094 0.31128 0.30332 0.0
H383 H 0.73444 0.2943 0.2392 0.0
H384 H 0.73403 0.19408 0.33832 0.0
H385 H 0.77299 0.18828 0.33368 0.0
H386 H 0.67791 0.24643 0.30169 0.0
H387 H 0.86536 0.26074 0.36443 0.0
H388 H 0.88795 0.28205 0.33782 0.0
H389 H 0.69894 0.21571 0.32636 0.0
H390 H 0.69593 0.30038 0.24002 0.0
N391 N 0.76086 0.23569 0.2968 0.0
C392 C 0.74133 0.20574 0.32658 0.0
C393 C 0.76329 0.20245 0.32405 0.0
C394 C 0.72907 0.22373 0.31355 0.0
C395 C 0.7393 0.23862 0.29857 0.0
C396 C 0.77283 0.21731 0.30887 0.0
N397 N 0.73728 0.2702 0.27032 0.0
C398 C 0.72728 0.25629 0.28504 0.0
C399 C 0.70442 0.28826 0.2532 0.0
C400 C 0.69362 0.27548 0.26982 0.0
C401 C 0.72635 0.28499 0.25324 0.0
C402 C 0.70504 0.25892 0.28555 0.0
H403 H 0.6766 0.27788 0.26959 0.0
O404 O 0.77159 0.27027 0.23086 0.0
O405 O 0.79521 0.28628 0.27545 0.0
O406 O 0.76349 0.31449 0.30279 0.0
O407 O 0.75885 0.30007 0.26574 0.0
O408 O 0.80731 0.26057 0.25137 0.0
O409 O 0.77675 0.23605 0.24748 0.0
O410 O 0.78891 0.29803 0.35583 0.0
O411 O 0.76903 0.27741 0.30839 0.0
O412 O 0.80298 0.23989 0.2864 0.0
O413 O 0.81631 0.25905 0.31411 0.0
O414 O 0.78116 0.2692 0.34281 0.0
O415 O 0.7827 0.3265 0.32954 0.0
C416 C 0.81102 0.27748 0.2604 0.0
C417 C 0.69495 0.2445 0.30094 0.0
C418 C 0.70693 0.22698 0.31492 0.0
C419 C 0.77396 0.24935 0.22732 0.0
C420 C 0.77367 0.24131 0.20238 0.0
C421 C 0.76429 0.25604 0.18331 0.0
C422 C 0.783 0.21908 0.19728 0.0
C423 C 0.78349 0.21193 0.17301 0.0
C424 C 0.76445 0.24881 0.15935 0.0
C425 C 0.77411 0.22694 0.15414 0.0
C426 C 0.75369 0.31557 0.2823 0.0
C427 C 0.76671 0.26703 0.32931 0.0
C428 C 0.78335 0.31952 0.35311 0.0
C429 C 0.79248 0.3319 0.36935 0.0
C430 C 0.81358 0.32425 0.37522 0.0
C431 C 0.7797 0.35119 0.37999 0.0
C432 C 0.78804 0.36238 0.39651 0.0
C433 C 0.82182 0.33539 0.39157 0.0
C434 C 0.80911 0.35434 0.40224 0.0
C435 C 0.8167 0.24108 0.30236 0.0
H436 H 0.75681 0.27313 0.18692 0.0
H437 H 0.79031 0.20755 0.21184 0.0
H438 H 0.75713 0.26021 0.14474 0.0
H439 H 0.77411 0.22165 0.13538 0.0
H440 H 0.82369 0.30957 0.3675 0.0
H441 H 0.76335 0.35729 0.37573 0.0
H442 H 0.83806 0.32924 0.39609 0.0
H443 H 0.8157 0.36277 0.41503 0.0
Gd444 Gd 0.81081 0.78944 0.30306 0.0
Gd445 Gd 0.78199 0.7636 0.26422 0.0
C446 C 0.82919 0.72489 0.20427 0.0
C447 C 0.81719 0.74441 0.16547 0.0
C448 C 0.79888 0.75646 0.20603 0.0
C449 C 0.81277 0.73956 0.21829 0.0
C450 C 0.80052 0.75857 0.17942 0.0
C451 C 0.83154 0.72766 0.17787 0.0
C452 C 0.84261 0.70762 0.21713 0.0
C453 C 0.83928 0.70503 0.24329 0.0
N454 N 0.80993 0.73709 0.24383 0.0
C455 C 0.82274 0.71983 0.25638 0.0
H456 H 0.82087 0.71744 0.27654 0.0
C457 C 0.76643 0.78365 0.20841 0.0
N458 N 0.78275 0.76971 0.21998 0.0
C459 C 0.7675 0.78652 0.18216 0.0
C460 C 0.78483 0.7742 0.16758 0.0
H461 H 0.75264 0.79284 0.21954 0.0
H462 H 0.84411 0.7166 0.16685 0.0
H463 H 0.76982 0.83467 0.2929 0.0
H464 H 0.85541 0.69606 0.20704 0.0
H465 H 0.84949 0.69163 0.25344 0.0
H466 H 0.81879 0.74592 0.14505 0.0
H467 H 0.84125 0.75756 0.34505 0.0
H468 H 0.74432 0.86075 0.36378 0.0
H469 H 0.74449 0.86225 0.31752 0.0
H470 H 0.78677 0.81321 0.42261 0.0
H471 H 0.75484 0.79805 0.1732 0.0
H472 H 0.78551 0.77626 0.14721 0.0
H473 H 0.76007 0.84238 0.40269 0.0
H474 H 0.84392 0.75489 0.39093 0.0
N475 N 0.78468 0.81684 0.32452 0.0
C476 C 0.75571 0.84838 0.35299 0.0
C477 C 0.75579 0.84932 0.32691 0.0
C478 C 0.77039 0.8316 0.36486 0.0
C479 C 0.78486 0.8158 0.34999 0.0
C480 C 0.7705 0.83351 0.3129 0.0
N481 N 0.81343 0.78397 0.34675 0.0
C482 C 0.79967 0.79901 0.36136 0.0
C483 C 0.83127 0.76722 0.38292 0.0
C484 C 0.8166 0.78182 0.39837 0.0
C485 C 0.82965 0.76874 0.35701 0.0
C486 C 0.8007 0.7981 0.38766 0.0
H487 H 0.81794 0.78069 0.41845 0.0
O488 O 0.84437 0.78763 0.30188 0.0
O489 O 0.81125 0.77585 0.26572 0.0
O490 O 0.79175 0.74018 0.29803 0.0
O491 O 0.80839 0.7573 0.32407 0.0
O492 O 0.83831 0.76467 0.28394 0.0
O493 O 0.82202 0.81971 0.30304 0.0
O494 O 0.75005 0.76285 0.25704 0.0
O495 O 0.781 0.7785 0.30077 0.0
O496 O 0.79974 0.81322 0.2705 0.0
O497 O 0.77901 0.79821 0.24729 0.0
O498 O 0.75378 0.78773 0.28269 0.0
O499 O 0.77171 0.73284 0.26965 0.0
C500 C 0.83046 0.76511 0.26277 0.0
C501 C 0.78623 0.81372 0.40241 0.0
C502 C 0.77106 0.83036 0.39105 0.0
C503 C 0.84189 0.80883 0.30335 0.0
C504 C 0.85513 0.81559 0.32043 0.0
C505 C 0.86479 0.80053 0.33917 0.0
C506 C 0.86028 0.8363 0.31621 0.0
C507 C 0.8749 0.84161 0.33056 0.0
C508 C 0.87851 0.80622 0.35406 0.0
C509 C 0.88363 0.82661 0.34974 0.0
C510 C 0.80115 0.7405 0.31861 0.0
C511 C 0.7618 0.78937 0.30317 0.0
C512 C 0.7531 0.7416 0.26186 0.0
C513 C 0.74606 0.72919 0.24369 0.0
C514 C 0.75459 0.72916 0.21836 0.0
C515 C 0.73087 0.7169 0.25178 0.0
C516 C 0.72463 0.70447 0.23464 0.0
C517 C 0.74807 0.71726 0.20125 0.0
C518 C 0.73323 0.7049 0.20932 0.0
C519 C 0.78773 0.81419 0.25194 0.0
H520 H 0.86253 0.78399 0.34176 0.0
H521 H 0.85376 0.84775 0.30113 0.0
H522 H 0.88577 0.79447 0.36842 0.0
H523 H 0.89489 0.83049 0.36094 0.0
H524 H 0.76635 0.73817 0.21169 0.0
H525 H 0.72429 0.71662 0.27135 0.0
H526 H 0.75468 0.71748 0.18172 0.0
H527 H 0.7284 0.69565 0.19577 0.0
Gd528 Gd 0.30421 0.80099 0.31141 0.0
Gd529 Gd 0.27722 0.77401 0.27053 0.0
C530 C 0.25275 0.71544 0.30876 0.0
C531 C 0.27289 0.68512 0.28378 0.0
C532 C 0.27797 0.72231 0.27382 0.0
C533 C 0.26295 0.73009 0.29346 0.0
C534 C 0.28248 0.69989 0.26815 0.0
C535 C 0.25814 0.69287 0.30414 0.0
C536 C 0.23721 0.72395 0.32802 0.0
C537 C 0.23172 0.74661 0.3312 0.0
N538 N 0.25795 0.75204 0.29728 0.0
C539 C 0.24207 0.76051 0.31542 0.0
H540 H 0.23766 0.77787 0.3186 0.0
C541 C 0.29845 0.73087 0.23659 0.0
N542 N 0.28687 0.73701 0.25898 0.0
C543 C 0.30345 0.70883 0.2302 0.0
C544 C 0.29576 0.69317 0.2463 0.0
H545 H 0.30424 0.74303 0.22397 0.0
H546 H 0.2506 0.68137 0.31582 0.0
H547 H 0.34656 0.792 0.26609 0.0
H548 H 0.22913 0.71322 0.34027 0.0
H549 H 0.21955 0.75341 0.34589 0.0
H550 H 0.27635 0.6678 0.2799 0.0
H551 H 0.27497 0.83651 0.35308 0.0
H552 H 0.35963 0.85413 0.24085 0.0
H553 H 0.36755 0.81357 0.23873 0.0
H554 H 0.31063 0.9054 0.29368 0.0
H555 H 0.31312 0.70398 0.21281 0.0
H556 H 0.2995 0.67613 0.24122 0.0
H557 H 0.33799 0.88826 0.26094 0.0
H558 H 0.26735 0.8764 0.36023 0.0
N559 N 0.32649 0.81977 0.28461 0.0
C560 C 0.35036 0.84467 0.25333 0.0
C561 C 0.3549 0.82179 0.25212 0.0
C562 C 0.33408 0.85505 0.27081 0.0
C563 C 0.32238 0.842 0.28658 0.0
C564 C 0.34285 0.80954 0.26797 0.0
N565 N 0.29594 0.83876 0.31986 0.0
C566 C 0.30666 0.85175 0.30469 0.0
C567 C 0.27826 0.86975 0.34437 0.0
C568 C 0.28802 0.88361 0.32785 0.0
C569 C 0.28262 0.84721 0.34028 0.0
C570 C 0.30264 0.87465 0.30793 0.0
H571 H 0.2846 0.90108 0.33102 0.0
O572 O 0.30637 0.79741 0.35149 0.0
O573 O 0.29166 0.77202 0.3064 0.0
O574 O 0.25305 0.80172 0.29084 0.0
O575 O 0.27153 0.82297 0.30911 0.0
O576 O 0.28423 0.78493 0.3413 0.0
O577 O 0.33533 0.7928 0.32557 0.0
O578 O 0.27127 0.77856 0.2312 0.0
O579 O 0.29028 0.8026 0.27539 0.0
O580 O 0.32789 0.77158 0.29408 0.0
O581 O 0.31099 0.75351 0.26907 0.0
O582 O 0.29633 0.79059 0.24002 0.0
O583 O 0.24479 0.78352 0.26043 0.0
C584 C 0.28351 0.7686 0.32846 0.0
C585 C 0.31373 0.88776 0.2917 0.0
C586 C 0.32935 0.87799 0.27311 0.0
C587 C 0.32707 0.79363 0.34905 0.0
C588 C 0.33657 0.80451 0.36632 0.0
C589 C 0.3249 0.82361 0.3782 0.0
C590 C 0.35704 0.79431 0.37287 0.0
C591 C 0.36548 0.80285 0.39156 0.0
C592 C 0.33357 0.83243 0.39634 0.0
C593 C 0.35374 0.82201 0.40317 0.0
C594 C 0.25386 0.81942 0.30241 0.0
C595 C 0.29847 0.80599 0.25336 0.0
C596 C 0.25069 0.78265 0.23632 0.0
C597 C 0.23958 0.77089 0.22199 0.0
C598 C 0.24387 0.7477 0.22359 0.0
C599 C 0.22454 0.78303 0.20628 0.0
C600 C 0.21419 0.77192 0.1921 0.0
C601 C 0.23378 0.73668 0.20917 0.0
C602 C 0.21899 0.74874 0.1934 0.0
C603 C 0.32793 0.75568 0.27911 0.0
H604 H 0.3089 0.83142 0.37413 0.0
H605 H 0.36606 0.77934 0.36416 0.0
H606 H 0.32448 0.84711 0.40546 0.0
H607 H 0.3602 0.82884 0.41755 0.0
H608 H 0.25486 0.73804 0.23594 0.0
H609 H 0.22079 0.80095 0.20523 0.0
H610 H 0.23727 0.71879 0.21043 0.0
H611 H 0.21096 0.74003 0.18255 0.0
Gd612 Gd 0.2729 0.76341 0.77447 0.0
Gd613 Gd 0.29364 0.79344 0.81645 0.0
C614 C 0.33614 0.8345 0.76885 0.0
C615 C 0.37089 0.81658 0.78187 0.0
C616 C 0.33965 0.80363 0.79989 0.0
C617 C 0.32676 0.81998 0.78569 0.0
C618 C 0.36176 0.80223 0.79858 0.0
C619 C 0.35814 0.83255 0.76691 0.0
C620 C 0.32328 0.85061 0.75419 0.0
C621 C 0.30158 0.8524 0.75672 0.0
N622 N 0.30533 0.82157 0.78801 0.0
C623 C 0.29285 0.83807 0.77373 0.0
H624 H 0.27601 0.8411 0.7744 0.0
C625 C 0.3426 0.77534 0.83225 0.0
N626 N 0.33072 0.78936 0.81536 0.0
C627 C 0.36439 0.77345 0.83172 0.0
C628 C 0.37412 0.78668 0.81447 0.0
H629 H 0.33536 0.76568 0.84669 0.0
H630 H 0.36544 0.84353 0.75404 0.0
H631 H 0.28092 0.72311 0.82074 0.0
H632 H 0.32994 0.86184 0.74096 0.0
H633 H 0.2914 0.86497 0.74551 0.0
H634 H 0.38782 0.81555 0.78051 0.0
H635 H 0.24124 0.79059 0.73177 0.0
H636 H 0.22532 0.69797 0.83523 0.0
H637 H 0.2623 0.69642 0.84295 0.0
H638 H 0.1779 0.74264 0.77904 0.0
H639 H 0.37359 0.76198 0.84489 0.0
H640 H 0.39105 0.78525 0.8141 0.0
H641 H 0.19377 0.71564 0.81178 0.0
H642 H 0.20488 0.7939 0.72042 0.0
N643 N 0.25499 0.73996 0.80018 0.0
C644 C 0.23345 0.70985 0.82535 0.0
C645 C 0.25433 0.70888 0.8297 0.0
C646 C 0.22343 0.72592 0.80801 0.0
C647 C 0.23479 0.7409 0.79547 0.0
C648 C 0.2649 0.72413 0.81692 0.0
N649 N 0.23775 0.76924 0.76431 0.0
C650 C 0.22581 0.75617 0.77717 0.0
C651 C 0.21041 0.7835 0.73668 0.0
C652 C 0.19747 0.77106 0.75059 0.0
C653 C 0.23082 0.78189 0.7434 0.0
C654 C 0.2053 0.75678 0.77073 0.0
H655 H 0.18183 0.77194 0.74502 0.0
O656 O 0.27763 0.75892 0.73438 0.0
O657 O 0.30007 0.77745 0.78022 0.0
O658 O 0.26465 0.8174 0.80249 0.0
O659 O 0.25144 0.79785 0.77497 0.0
O660 O 0.28718 0.78634 0.74637 0.0
O661 O 0.28468 0.73047 0.76099 0.0
O662 O 0.2977 0.78332 0.85554 0.0
O663 O 0.27116 0.77153 0.81461 0.0
O664 O 0.30203 0.73986 0.788 0.0
O665 O 0.31162 0.75701 0.82006 0.0
O666 O 0.2604 0.79887 0.8363 0.0
O667 O 0.29623 0.81757 0.84197 0.0
C668 C 0.30276 0.78705 0.7588 0.0
C669 C 0.19367 0.7424 0.78373 0.0
C670 C 0.20272 0.727 0.80232 0.0
C671 C 0.28405 0.73754 0.73745 0.0
C672 C 0.27649 0.72443 0.72101 0.0
C673 C 0.25493 0.72808 0.71723 0.0
C674 C 0.29169 0.70821 0.70819 0.0
C675 C 0.28547 0.69584 0.69138 0.0
C676 C 0.24872 0.71568 0.70029 0.0
C677 C 0.26397 0.69959 0.68729 0.0
C678 C 0.25102 0.81593 0.78642 0.0
C679 C 0.25544 0.78171 0.82928 0.0
C680 C 0.29843 0.803 0.86111 0.0
C681 C 0.2895 0.80989 0.88642 0.0
C682 C 0.2979 0.79656 0.90698 0.0
C683 C 0.2747 0.83015 0.89052 0.0
C684 C 0.26871 0.83726 0.91519 0.0
C685 C 0.29189 0.80337 0.93138 0.0
C686 C 0.2776 0.82361 0.9355 0.0
C687 C 0.31397 0.73979 0.80626 0.0
H688 H 0.24298 0.74043 0.72711 0.0
H689 H 0.30838 0.70536 0.71105 0.0
H690 H 0.23213 0.71859 0.69717 0.0
H691 H 0.25908 0.6901 0.67407 0.0
H692 H 0.30959 0.78108 0.90409 0.0
H693 H 0.26824 0.84042 0.87459 0.0
H694 H 0.29877 0.79318 0.94711 0.0
H695 H 0.27408 0.82883 0.95463 0.0
Gd696 Gd 0.30539 0.28642 0.81751 0.0
Gd697 Gd 0.27619 0.25799 0.78031 0.0
C698 C 0.32104 0.2157 0.72138 0.0
C699 C 0.30911 0.23443 0.68219 0.0
C700 C 0.29183 0.24837 0.72241 0.0
C701 C 0.30546 0.2315 0.73505 0.0
C702 C 0.29295 0.24942 0.69584 0.0
C703 C 0.32317 0.21764 0.69494 0.0
C704 C 0.33358 0.19797 0.73462 0.0
C705 C 0.33013 0.19598 0.7608 0.0
N706 N 0.30272 0.22974 0.76063 0.0
C707 C 0.31453 0.21196 0.77356 0.0
H708 H 0.31249 0.20989 0.79375 0.0
C709 C 0.25949 0.27581 0.72452 0.0
N710 N 0.27603 0.26227 0.7361 0.0
C711 C 0.26003 0.27757 0.69825 0.0
C712 C 0.27708 0.26466 0.68381 0.0
H713 H 0.2462 0.28579 0.73566 0.0
H714 H 0.33516 0.20577 0.68418 0.0
H715 H 0.26725 0.33328 0.80519 0.0
H716 H 0.34568 0.18551 0.7248 0.0
H717 H 0.33956 0.18217 0.77124 0.0
H718 H 0.31037 0.23516 0.66178 0.0
H719 H 0.33604 0.25686 0.86038 0.0
H720 H 0.23994 0.36075 0.87497 0.0
H721 H 0.24247 0.36235 0.82847 0.0
H722 H 0.27904 0.31253 0.93622 0.0
H723 H 0.24726 0.28883 0.68918 0.0
H724 H 0.27737 0.26589 0.66346 0.0
H725 H 0.25318 0.3417 0.915 0.0
H726 H 0.33826 0.25536 0.90635 0.0
N727 N 0.27969 0.31485 0.83787 0.0
C728 C 0.25115 0.34783 0.86479 0.0
C729 C 0.2526 0.34884 0.83856 0.0
C730 C 0.26449 0.33041 0.87755 0.0
C731 C 0.2789 0.31401 0.86342 0.0
C732 C 0.26695 0.33217 0.82535 0.0
N733 N 0.30764 0.28248 0.86131 0.0
C734 C 0.2933 0.29739 0.87546 0.0
C735 C 0.32542 0.26712 0.89797 0.0
C736 C 0.31 0.2814 0.91301 0.0
C737 C 0.32413 0.26805 0.872 0.0
C738 C 0.29388 0.297 0.90179 0.0
H739 H 0.31103 0.28069 0.93313 0.0
O740 O 0.3391 0.28447 0.8161 0.0
O741 O 0.30566 0.26877 0.78336 0.0
O742 O 0.28699 0.2361 0.81512 0.0
O743 O 0.30148 0.25581 0.8409 0.0
O744 O 0.33253 0.25922 0.80212 0.0
O745 O 0.31712 0.31656 0.81299 0.0
O746 O 0.24375 0.25727 0.77515 0.0
O747 O 0.27571 0.27618 0.81394 0.0
O748 O 0.29447 0.30874 0.78327 0.0
O749 O 0.27829 0.28996 0.75823 0.0
O750 O 0.24826 0.28401 0.79679 0.0
O751 O 0.26518 0.22789 0.78964 0.0
C752 C 0.3243 0.25685 0.78205 0.0
C753 C 0.27896 0.31272 0.91596 0.0
C754 C 0.26426 0.32935 0.90388 0.0
C755 C 0.3368 0.30582 0.81508 0.0
C756 C 0.3489 0.31432 0.83214 0.0
C757 C 0.35688 0.3013 0.85324 0.0
C758 C 0.3538 0.33504 0.82655 0.0
C759 C 0.36567 0.3428 0.84257 0.0
C760 C 0.36785 0.30938 0.86961 0.0
C761 C 0.37211 0.3301 0.86443 0.0
C762 C 0.29541 0.23802 0.83603 0.0
C763 C 0.25682 0.28748 0.81613 0.0
C764 C 0.24651 0.23627 0.78181 0.0
C765 C 0.23922 0.22262 0.76511 0.0
C766 C 0.2473 0.2216 0.73963 0.0
C767 C 0.22455 0.20998 0.77467 0.0
C768 C 0.21846 0.19626 0.75879 0.0
C769 C 0.24098 0.2084 0.72384 0.0
C770 C 0.22672 0.19572 0.73334 0.0
C771 C 0.28513 0.30734 0.76292 0.0
H772 H 0.35538 0.28458 0.85677 0.0
H773 H 0.34883 0.34484 0.80963 0.0
H774 H 0.37365 0.29925 0.88593 0.0
H775 H 0.38135 0.3358 0.87687 0.0
H776 H 0.25859 0.23085 0.73183 0.0
H777 H 0.21822 0.21051 0.79433 0.0
H778 H 0.24725 0.20789 0.70418 0.0
H779 H 0.22199 0.18556 0.72072 0.0
Gd780 Gd 0.80087 0.29825 0.80809 0.0
Gd781 Gd 0.77085 0.2717 0.76933 0.0
C782 C 0.74482 0.21453 0.80836 0.0
C783 C 0.76252 0.1842 0.78209 0.0
C784 C 0.76896 0.22085 0.77197 0.0
C785 C 0.75506 0.22884 0.79253 0.0
C786 C 0.77231 0.19859 0.76609 0.0
C787 C 0.74892 0.19212 0.80328 0.0
C788 C 0.73061 0.22317 0.82873 0.0
C789 C 0.72646 0.24567 0.83256 0.0
N790 N 0.75144 0.25059 0.79702 0.0
C791 C 0.73684 0.25925 0.81631 0.0
H792 H 0.73358 0.27645 0.82007 0.0
C793 C 0.79028 0.22845 0.73502 0.0
N794 N 0.77864 0.23498 0.75721 0.0
C795 C 0.79372 0.20667 0.72813 0.0
C796 C 0.78499 0.19157 0.74395 0.0
H797 H 0.79737 0.24004 0.72296 0.0
H798 H 0.74134 0.18088 0.81536 0.0
H799 H 0.84022 0.29208 0.75998 0.0
H800 H 0.72257 0.21269 0.84141 0.0
H801 H 0.71536 0.25257 0.84816 0.0
H802 H 0.76512 0.167 0.77804 0.0
H803 H 0.77446 0.33105 0.85361 0.0
H804 H 0.84978 0.35583 0.73492 0.0
H805 H 0.85874 0.31537 0.73121 0.0
H806 H 0.80336 0.40387 0.79349 0.0
H807 H 0.80323 0.20153 0.71073 0.0
H808 H 0.78779 0.17466 0.73868 0.0
H809 H 0.82881 0.38876 0.75797 0.0
H810 H 0.7664 0.37054 0.86292 0.0
N811 N 0.82031 0.31894 0.78 0.0
C812 C 0.84148 0.34565 0.74772 0.0
C813 C 0.84663 0.32283 0.74561 0.0
C814 C 0.82603 0.35503 0.76667 0.0
C815 C 0.81558 0.34107 0.78276 0.0
C816 C 0.83604 0.30963 0.76215 0.0
N817 N 0.79164 0.33568 0.81799 0.0
C818 C 0.80068 0.34973 0.8022 0.0
C819 C 0.77582 0.36497 0.84562 0.0
C820 C 0.78365 0.37996 0.82858 0.0
C821 C 0.78038 0.34269 0.84029 0.0
C822 C 0.79662 0.37235 0.80684 0.0
H823 H 0.78027 0.39718 0.83286 0.0
O824 O 0.8078 0.29471 0.84718 0.0
O825 O 0.78643 0.27044 0.80438 0.0
O826 O 0.74801 0.29979 0.79034 0.0
O827 O 0.76767 0.31982 0.80893 0.0
O828 O 0.7827 0.28213 0.83982 0.0
O829 O 0.83365 0.28907 0.81732 0.0
O830 O 0.76425 0.28199 0.73089 0.0
O831 O 0.78529 0.29954 0.7732 0.0
O832 O 0.8232 0.26924 0.78804 0.0
O833 O 0.80391 0.24964 0.76812 0.0
O834 O 0.79081 0.28641 0.7383 0.0
O835 O 0.73844 0.27749 0.75842 0.0
C836 C 0.77957 0.26689 0.82695 0.0
C837 C 0.80646 0.38641 0.79038 0.0
C838 C 0.82104 0.37779 0.77025 0.0
C839 C 0.82835 0.29064 0.84152 0.0
C840 C 0.83976 0.30324 0.85469 0.0
C841 C 0.83568 0.32633 0.85091 0.0
C842 C 0.85475 0.29233 0.87133 0.0
C843 C 0.86523 0.30468 0.88399 0.0
C844 C 0.84574 0.33853 0.86382 0.0
C845 C 0.86044 0.32778 0.88032 0.0
C846 C 0.74962 0.31688 0.8025 0.0
C847 C 0.79316 0.30227 0.75086 0.0
C848 C 0.74426 0.28167 0.73468 0.0
C849 C 0.7362 0.27099 0.71547 0.0
C850 C 0.75034 0.25548 0.70014 0.0
C851 C 0.71461 0.27751 0.71081 0.0
C852 C 0.70735 0.26792 0.69169 0.0
C853 C 0.74309 0.24561 0.68173 0.0
C854 C 0.72174 0.25167 0.67759 0.0
C855 C 0.82183 0.2523 0.7754 0.0
H856 H 0.82483 0.33505 0.83795 0.0
H857 H 0.85838 0.27447 0.87419 0.0
H858 H 0.84228 0.35635 0.86083 0.0
H859 H 0.86837 0.33748 0.88999 0.0
H860 H 0.76716 0.25144 0.70167 0.0
H861 H 0.70364 0.29011 0.72172 0.0
H862 H 0.75418 0.23362 0.67019 0.0
H863 H 0.71659 0.24422 0.66264 0.0
Gd864 Gd 0.79179 0.79893 0.7591 0.0
Gd865 Gd 0.76191 0.77066 0.8089 0.0
C866 C 0.72735 0.81489 0.87201 0.0
C867 C 0.74458 0.79627 0.90845 0.0
C868 C 0.75473 0.78098 0.86727 0.0
C869 C 0.7401 0.79829 0.8568 0.0
C870 C 0.75658 0.77932 0.89339 0.0
C871 C 0.73005 0.81407 0.89775 0.0
C872 C 0.71197 0.83156 0.86101 0.0
C873 C 0.70914 0.83099 0.83567 0.0
N874 N 0.73781 0.79849 0.83191 0.0
C875 C 0.72207 0.81412 0.8214 0.0
H876 H 0.71977 0.81428 0.8018 0.0
C877 C 0.77764 0.74555 0.86246 0.0
N878 N 0.76604 0.76492 0.85222 0.0
C879 C 0.78008 0.74313 0.88824 0.0
C880 C 0.76982 0.76028 0.90372 0.0
H881 H 0.78565 0.7323 0.85046 0.0
H882 H 0.72056 0.8268 0.90967 0.0
H883 H 0.83432 0.75557 0.76539 0.0
H884 H 0.70193 0.84466 0.87202 0.0
H885 H 0.6971 0.84363 0.82704 0.0
H886 H 0.74599 0.79545 0.9285 0.0
H887 H 0.76627 0.83708 0.71833 0.0
H888 H 0.85312 0.7271 0.69419 0.0
H889 H 0.85763 0.7272 0.73939 0.0
H890 H 0.80798 0.77623 0.63876 0.0
H891 H 0.78985 0.72806 0.89614 0.0
H892 H 0.77164 0.75835 0.92371 0.0
H893 H 0.83431 0.74531 0.65685 0.0
H894 H 0.76165 0.84164 0.67277 0.0
N895 N 0.81618 0.77175 0.7355 0.0
C896 C 0.84279 0.73979 0.70553 0.0
C897 C 0.84542 0.73982 0.731 0.0
C898 C 0.82717 0.75641 0.69487 0.0
C899 C 0.81402 0.77246 0.7105 0.0
C900 C 0.83211 0.75614 0.74571 0.0
N901 N 0.78708 0.80507 0.71587 0.0
C902 C 0.79893 0.78957 0.70041 0.0
C903 C 0.77204 0.82681 0.68031 0.0
C904 C 0.78294 0.81021 0.66443 0.0
C905 C 0.77468 0.8242 0.70603 0.0
C906 C 0.79694 0.79151 0.67431 0.0
H907 H 0.78097 0.81231 0.64448 0.0
O908 O 0.79469 0.83282 0.7531 0.0
O909 O 0.77464 0.80018 0.7973 0.0
O910 O 0.74108 0.78566 0.77757 0.0
O911 O 0.76111 0.79971 0.74374 0.0
O912 O 0.76757 0.82854 0.77423 0.0
O913 O 0.82265 0.80635 0.75859 0.0
O914 O 0.75861 0.7369 0.8151 0.0
O915 O 0.7794 0.76916 0.77086 0.0
O916 O 0.8127 0.78342 0.79019 0.0
O917 O 0.79275 0.76958 0.82432 0.0
O918 O 0.78639 0.74101 0.79444 0.0
O919 O 0.73094 0.76359 0.80914 0.0
C920 C 0.76466 0.82021 0.7969 0.0
C921 C 0.80945 0.77517 0.65881 0.0
C922 C 0.82449 0.75761 0.66909 0.0
C923 C 0.81522 0.82748 0.75382 0.0
C924 C 0.82754 0.83834 0.73436 0.0
C925 C 0.82749 0.83523 0.70873 0.0
C926 C 0.83953 0.85212 0.74162 0.0
C927 C 0.85171 0.86243 0.72333 0.0
C928 C 0.83929 0.84581 0.69048 0.0
C929 C 0.85149 0.85925 0.69772 0.0
C930 C 0.7434 0.79492 0.75451 0.0
C931 C 0.78964 0.74919 0.77176 0.0
C932 C 0.73809 0.74247 0.81427 0.0
C933 C 0.7256 0.73213 0.83404 0.0
C934 C 0.72401 0.73753 0.85922 0.0
C935 C 0.71531 0.71643 0.82768 0.0
C936 C 0.70356 0.70615 0.84648 0.0
C937 C 0.71252 0.72708 0.87796 0.0
C938 C 0.70231 0.71143 0.87165 0.0
C939 C 0.8105 0.77432 0.81338 0.0
H940 H 0.81849 0.8246 0.70278 0.0
H941 H 0.83973 0.85446 0.76143 0.0
H942 H 0.83914 0.84342 0.67072 0.0
H943 H 0.86079 0.86715 0.68337 0.0
H944 H 0.73153 0.7498 0.8644 0.0
H945 H 0.71634 0.71231 0.80821 0.0
H946 H 0.71143 0.73121 0.89738 0.0
H947 H 0.69327 0.70357 0.88635 0.0
C948 C 0.0926 0.08628 0.34495 0.0
C949 C 0.08133 0.08322 0.36855 0.0
C950 C 0.10639 0.10044 0.34176 0.0
C951 C 0.13653 0.12718 0.37873 0.0
H952 H 0.14069 0.16536 0.31813 0.0
C953 C 0.17742 0.1974 0.37645 0.0
C954 C 0.19462 0.19671 0.35784 0.0
C955 C 0.16271 0.18496 0.37477 0.0
C956 C 0.13972 0.15466 0.33504 0.0
H957 H 0.07532 0.09291 0.40709 0.0
H958 H 0.099 0.11797 0.40152 0.0
H959 H 0.11682 0.14022 0.3216 0.0
H960 H 0.20889 0.18401 0.32172 0.0
H961 H 0.1827 0.16233 0.3186 0.0
H962 H 0.15898 0.14193 0.39239 0.0
C963 C 0.09761 0.10905 0.38558 0.0
C964 C 0.12616 0.14023 0.33704 0.0
C965 C 0.08397 0.09476 0.3888 0.0
C966 C 0.19579 0.1848 0.33636 0.0
C967 C 0.18088 0.17239 0.33459 0.0
C968 C 0.14981 0.1417 0.37683 0.0
C969 C 0.10915 0.11191 0.36208 0.0
C970 C 0.1242 0.12656 0.35911 0.0
C971 C 0.16476 0.17173 0.35432 0.0
C972 C 0.1513 0.15578 0.35517 0.0
H973 H 0.0912 0.07731 0.32907 0.0
H974 H 0.11525 0.102 0.32352 0.0
H975 H 0.13593 0.11644 0.39565 0.0
H976 H 0.17582 0.20689 0.39288 0.0
H977 H 0.15015 0.18503 0.38997 0.0
C978 C 0.96944 0.07941 0.2907 0.0
C979 C 0.98379 0.07709 0.30894 0.0
C980 C 0.95149 0.09723 0.29059 0.0
C981 C 0.92772 0.15271 0.31674 0.0
H982 H 0.87575 0.1425 0.29711 0.0
C983 C 0.84742 0.21878 0.32538 0.0
C984 C 0.83489 0.22151 0.30516 0.0
C985 C 0.86535 0.20109 0.32685 0.0
C986 C 0.89017 0.14573 0.30243 0.0
H987 H 0.99039 0.09193 0.34142 0.0
H988 H 0.95902 0.12246 0.34162 0.0
H989 H 0.90743 0.11232 0.29743 0.0
H990 H 0.83134 0.20731 0.27077 0.0
H991 H 0.86237 0.17657 0.27337 0.0
H992 H 0.91023 0.18614 0.322 0.0
C993 C 0.96179 0.11089 0.32695 0.0
C994 C 0.90844 0.12838 0.30253 0.0
C995 C 0.97984 0.09323 0.32688 0.0
C996 C 0.84047 0.20574 0.28676 0.0
C997 C 0.85831 0.18803 0.28825 0.0
C998 C 0.90937 0.17005 0.31678 0.0
C999 C 0.94723 0.1131 0.30892 0.0
C1000 C 0.92759 0.13163 0.30941 0.0
C1001 C 0.8711 0.18553 0.30822 0.0
C1002 C 0.89041 0.16685 0.30936 0.0
H1003 H 0.97196 0.06735 0.2766 0.0
H1004 H 0.94097 0.09854 0.27605 0.0
H1005 H 0.94213 0.15605 0.32192 0.0
H1006 H 0.84334 0.23013 0.34026 0.0
H1007 H 0.87457 0.19949 0.34276 0.0
C1008 C 0.97428 0.98264 0.33675 0.0
C1009 C 0.98183 0.9796 0.36072 0.0
C1010 C 0.96022 0.97072 0.33073 0.0
C1011 C 0.92263 0.93756 0.35932 0.0
H1012 H 0.93269 0.91225 0.29402 0.0
C1013 C 0.87092 0.88199 0.33415 0.0
C1014 C 0.88274 0.86184 0.32492 0.0
C1015 C 0.88057 0.89963 0.33448 0.0
C1016 C 0.92963 0.91926 0.31229 0.0
H1017 H 0.98009 0.96187 0.39721 0.0
H1018 H 0.95588 0.94072 0.38657 0.0
H1019 H 0.95478 0.93601 0.30405 0.0
H1020 H 0.91325 0.84441 0.30755 0.0
H1021 H 0.93015 0.87506 0.30798 0.0
H1022 H 0.89817 0.92001 0.36802 0.0
C1023 C 0.96065 0.95257 0.37253 0.0
C1024 C 0.94217 0.93303 0.31799 0.0
C1025 C 0.97471 0.96452 0.37857 0.0
C1026 C 0.90383 0.85997 0.31449 0.0
C1027 C 0.91345 0.87755 0.31474 0.0
C1028 C 0.91011 0.9238 0.35363 0.0
C1029 C 0.95334 0.95542 0.34847 0.0
C1030 C 0.93906 0.94204 0.34174 0.0
C1031 C 0.90219 0.8973 0.32562 0.0
C1032 C 0.91367 0.91418 0.33021 0.0
H1033 H 0.97961 0.99381 0.32231 0.0
H1034 H 0.95476 0.97347 0.31211 0.0
H1035 H 0.91961 0.94448 0.37764 0.0
H1036 H 0.85468 0.88363 0.34251 0.0
H1037 H 0.87138 0.91475 0.34265 0.0
C1038 C 0.11409 0.98989 0.30812 0.0
C1039 C 0.09286 0.9888 0.31457 0.0
C1040 C 0.13033 0.97068 0.30577 0.0
C1041 C 0.14336 0.91079 0.32551 0.0
H1042 H 0.19274 0.91057 0.27732 0.0
C1043 C 0.21403 0.83364 0.30638 0.0
C1044 C 0.23442 0.83759 0.30544 0.0
C1045 C 0.19588 0.85125 0.30799 0.0
C1046 C 0.1791 0.91041 0.29096 0.0
H1047 H 0.07195 0.96651 0.32342 0.0
H1048 H 0.1004 0.93268 0.31872 0.0
H1049 H 0.16243 0.94232 0.27742 0.0
H1050 H 0.25167 0.86324 0.30504 0.0
H1051 H 0.22024 0.89367 0.30772 0.0
H1052 H 0.16024 0.8785 0.33865 0.0
C1053 C 0.10449 0.94853 0.31565 0.0
C1054 C 0.1617 0.92867 0.29111 0.0
C1055 C 0.08812 0.96791 0.31792 0.0
C1056 C 0.23625 0.85947 0.30621 0.0
C1057 C 0.21822 0.87701 0.30746 0.0
C1058 C 0.16074 0.89233 0.32513 0.0
C1059 C 0.12587 0.94968 0.30983 0.0
C1060 C 0.14367 0.92932 0.30861 0.0
C1061 C 0.19784 0.87314 0.30815 0.0
C1062 C 0.17889 0.89211 0.30805 0.0
H1063 H 0.11828 0.00572 0.30568 0.0
H1064 H 0.14653 0.97238 0.30171 0.0
H1065 H 0.12995 0.91076 0.33952 0.0
H1066 H 0.21211 0.81698 0.30575 0.0
H1067 H 0.18035 0.84782 0.30838 0.0
C1068 C 0.09909 0.96672 0.73627 0.0
C1069 C 0.0911 0.98215 0.75486 0.0
C1070 C 0.11635 0.94901 0.73988 0.0
C1071 C 0.1479 0.91593 0.78898 0.0
H1072 H 0.18876 0.89746 0.73144 0.0
C1073 C 0.2272 0.85197 0.79955 0.0
C1074 C 0.23353 0.83563 0.78189 0.0
C1075 C 0.21003 0.86999 0.796 0.0
C1076 C 0.1774 0.90229 0.74764 0.0
H1077 H 0.09493 0.99087 0.79198 0.0
H1078 H 0.12579 0.9599 0.79822 0.0
H1079 H 0.15863 0.92886 0.72632 0.0
H1080 H 0.22757 0.82626 0.74586 0.0
H1081 H 0.19732 0.85733 0.73994 0.0
H1082 H 0.16687 0.88941 0.81028 0.0
C1083 C 0.11832 0.96148 0.78092 0.0
C1084 C 0.16008 0.92029 0.74473 0.0
C1085 C 0.10074 0.97928 0.77736 0.0
C1086 C 0.22273 0.83811 0.76021 0.0
C1087 C 0.20557 0.85614 0.75662 0.0
C1088 C 0.16531 0.89802 0.79191 0.0
C1089 C 0.12638 0.94622 0.7621 0.0
C1090 C 0.14509 0.92735 0.76538 0.0
C1091 C 0.19888 0.87217 0.77463 0.0
C1092 C 0.18028 0.89104 0.77131 0.0
H1093 H 0.09194 0.96814 0.71874 0.0
H1094 H 0.12167 0.93736 0.72524 0.0
H1095 H 0.13646 0.92057 0.80514 0.0
H1096 H 0.23524 0.85064 0.81641 0.0
H1097 H 0.2055 0.88228 0.80999 0.0
C1098 C 0.09262 0.08178 0.75398 0.0
C1099 C 0.08759 0.08373 0.72878 0.0
C1100 C 0.10578 0.09392 0.76176 0.0
C1101 C 0.12534 0.14419 0.74612 0.0
H1102 H 0.17084 0.11493 0.7868 0.0
C1103 C 0.18196 0.19241 0.77547 0.0
C1104 C 0.20329 0.1825 0.76782 0.0
C1105 C 0.1665 0.18011 0.7772 0.0
C1106 C 0.15809 0.12337 0.77563 0.0
H1107 H 0.0926 0.10046 0.69224 0.0
H1108 H 0.11545 0.12203 0.70601 0.0
H1109 H 0.14686 0.09405 0.77453 0.0
H1110 H 0.22559 0.15177 0.75821 0.0
H1111 H 0.19881 0.13024 0.76157 0.0
H1112 H 0.13687 0.17334 0.74661 0.0
C1113 C 0.10906 0.11092 0.71964 0.0
C1114 C 0.14433 0.11144 0.76863 0.0
C1115 C 0.09598 0.09855 0.71173 0.0
C1116 C 0.20921 0.15973 0.76419 0.0
C1117 C 0.19385 0.14742 0.76617 0.0
C1118 C 0.13896 0.15617 0.7533 0.0
C1119 C 0.11414 0.10867 0.74475 0.0
C1120 C 0.12808 0.12161 0.75332 0.0
C1121 C 0.1722 0.15769 0.77153 0.0
C1122 C 0.15578 0.14579 0.76768 0.0
H1123 H 0.08614 0.07121 0.76814 0.0
H1124 H 0.10907 0.09206 0.78131 0.0
H1125 H 0.11275 0.15258 0.7347 0.0
H1126 H 0.17704 0.20998 0.77824 0.0
H1127 H 0.14996 0.1884 0.78171 0.0
C1128 C 0.97695 0.0923 0.77746 0.0
C1129 C 0.98499 0.08465 0.75353 0.0
C1130 C 0.95969 0.11086 0.78001 0.0
C1131 C 0.91631 0.14584 0.74346 0.0
H1132 H 0.90977 0.18531 0.79733 0.0
C1133 C 0.83985 0.21391 0.76272 0.0
C1134 C 0.84122 0.23408 0.77134 0.0
C1135 C 0.85769 0.19626 0.76017 0.0
C1136 C 0.91149 0.17467 0.78192 0.0
H1137 H 0.98193 0.09119 0.71339 0.0
H1138 H 0.95303 0.12351 0.7177 0.0
H1139 H 0.94045 0.15402 0.79376 0.0
H1140 H 0.8627 0.25122 0.78445 0.0
H1141 H 0.89395 0.22049 0.77978 0.0
H1142 H 0.88803 0.16708 0.73078 0.0
C1143 C 0.9591 0.11491 0.73472 0.0
C1144 C 0.92895 0.1564 0.78015 0.0
C1145 C 0.97596 0.09634 0.73225 0.0
C1146 C 0.86102 0.23604 0.7775 0.0
C1147 C 0.87895 0.2183 0.77503 0.0
C1148 C 0.89912 0.16429 0.74495 0.0
C1149 C 0.95038 0.12229 0.75863 0.0
C1150 C 0.93163 0.14168 0.76091 0.0
C1151 C 0.87751 0.19812 0.76638 0.0
C1152 C 0.89636 0.17891 0.7643 0.0
H1153 H 0.9836 0.08365 0.79417 0.0
H1154 H 0.95337 0.11588 0.7988 0.0
H1155 H 0.91741 0.13477 0.72862 0.0
H1156 H 0.82487 0.21135 0.75869 0.0
H1157 H 0.85571 0.1809 0.75404 0.0
C1158 C 0.98962 0.95642 0.72786 0.0
C1159 C 0.98535 0.97876 0.73311 0.0
C1160 C 0.97329 0.94551 0.72959 0.0
C1161 C 0.91547 0.95276 0.73179 0.0
H1162 H 0.92912 0.89296 0.7622 0.0
C1163 C 0.85647 0.89608 0.74177 0.0
C1164 C 0.86536 0.87583 0.73079 0.0
C1165 C 0.86958 0.90963 0.74652 0.0
C1166 C 0.92506 0.90966 0.75377 0.0
H1167 H 0.96066 0.00756 0.74347 0.0
H1168 H 0.93156 0.98853 0.74601 0.0
H1169 H 0.95466 0.91582 0.76057 0.0
H1170 H 0.89458 0.85314 0.71735 0.0
H1171 H 0.91758 0.87652 0.72607 0.0
H1172 H 0.88594 0.94634 0.7247 0.0
C1173 C 0.94767 0.97949 0.74045 0.0
C1174 C 0.9397 0.92272 0.75269 0.0
C1175 C 0.96419 0.99046 0.73867 0.0
C1176 C 0.88748 0.86879 0.72571 0.0
C1177 C 0.90058 0.88209 0.73085 0.0
C1178 C 0.90073 0.93971 0.73303 0.0
C1179 C 0.95221 0.95668 0.73677 0.0
C1180 C 0.93538 0.94413 0.74088 0.0
C1181 C 0.89175 0.90284 0.74081 0.0
C1182 C 0.90569 0.91781 0.74332 0.0
H1183 H 1.0059 0.94708 0.72397 0.0
H1184 H 0.97729 0.9281 0.72603 0.0
H1185 H 0.91168 0.96917 0.72259 0.0
H1186 H 0.83939 0.90173 0.74583 0.0
H1187 H 0.86242 0.9255 0.75433 0.0
C1188 C 0.24047 0.13589 0.14489 0.0
C1189 C 0.25229 0.11379 0.14569 0.0
C1190 C 0.24624 0.15171 0.15798 0.0
C1191 C 0.27558 0.15713 0.21111 0.0
H1192 H 0.28058 0.21334 0.17751 0.0
C1193 C 0.30835 0.21678 0.26169 0.0
C1194 C 0.29738 0.23911 0.26012 0.0
C1195 C 0.30521 0.20199 0.24512 0.0
C1196 C 0.2791 0.19782 0.18729 0.0
H1197 H 0.27887 0.09081 0.16138 0.0
H1198 H 0.28866 0.11811 0.18454 0.0
H1199 H 0.26834 0.187 0.15521 0.0
H1200 H 0.27588 0.26372 0.23841 0.0
H1201 H 0.27004 0.23815 0.21001 0.0
H1202 H 0.28571 0.16789 0.24336 0.0
C1203 C 0.27507 0.12336 0.17372 0.0
C1204 C 0.27204 0.18274 0.17448 0.0
C1205 C 0.26952 0.10772 0.16039 0.0
C1206 C 0.28451 0.24666 0.24034 0.0
C1207 C 0.28121 0.23188 0.22388 0.0
C1208 C 0.28242 0.17223 0.22396 0.0
C1209 C 0.26369 0.1456 0.17248 0.0
C1210 C 0.27029 0.16217 0.18623 0.0
C1211 C 0.2908 0.20914 0.22673 0.0
C1212 C 0.28439 0.19278 0.21226 0.0
H1213 H 0.22726 0.14105 0.13348 0.0
H1214 H 0.23706 0.16869 0.1568 0.0
H1215 H 0.27415 0.14156 0.22083 0.0
H1216 H 0.3185 0.21048 0.27663 0.0
H1217 H 0.31347 0.18476 0.24742 0.0
C1218 C 0.98905 0.25615 0.1581 0.0
C1219 C 0.99399 0.27349 0.1419 0.0
C1220 C 0.96888 0.25845 0.17137 0.0
C1221 C 0.92008 0.301 0.19249 0.0
H1222 H 0.89646 0.24956 0.20616 0.0
C1223 C 0.83294 0.29974 0.23404 0.0
C1224 C 0.83144 0.28346 0.25349 0.0
C1225 C 0.8528 0.30113 0.22173 0.0
C1226 C 0.90295 0.26403 0.20262 0.0
H1227 H 0.98072 0.30688 0.12667 0.0
H1228 H 0.94592 0.31069 0.14954 0.0
H1229 H 0.93038 0.24638 0.18063 0.0
H1230 H 0.84943 0.25559 0.27483 0.0
H1231 H 0.88393 0.25787 0.25341 0.0
H1232 H 0.89196 0.31869 0.21399 0.0
C1233 C 0.95781 0.29544 0.15246 0.0
C1234 C 0.92246 0.26222 0.18808 0.0
C1235 C 0.97798 0.29317 0.13923 0.0
C1236 C 0.85011 0.26879 0.2606 0.0
C1237 C 0.86986 0.26996 0.24814 0.0
C1238 C 0.90032 0.30288 0.20676 0.0
C1239 C 0.95297 0.27814 0.16879 0.0
C1240 C 0.93153 0.28055 0.18316 0.0
C1241 C 0.87133 0.28569 0.22809 0.0
C1242 C 0.89181 0.2843 0.21231 0.0
H1243 H 1.00082 0.24083 0.1609 0.0
H1244 H 0.96595 0.24485 0.18406 0.0
H1245 H 0.92656 0.31547 0.18933 0.0
H1246 H 0.81868 0.31049 0.22735 0.0
H1247 H 0.85351 0.31325 0.20612 0.0
C1248 C 0.80573 0.94331 0.07202 0.0
C1249 C 0.82721 0.94091 0.06252 0.0
C1250 C 0.79994 0.92946 0.09179 0.0
C1251 C 0.81973 0.87639 0.12702 0.0
H1252 H 0.7738 0.90122 0.17713 0.0
C1253 C 0.8064 0.8402 0.22748 0.0
C1254 C 0.78812 0.83184 0.23221 0.0
C1255 C 0.80924 0.85352 0.20588 0.0
C1256 C 0.78641 0.89413 0.16301 0.0
H1257 H 0.85949 0.92247 0.06714 0.0
H1258 H 0.84942 0.89885 0.10287 0.0
H1259 H 0.78386 0.92475 0.14142 0.0
H1260 H 0.75798 0.83169 0.21898 0.0
H1261 H 0.76275 0.85598 0.18121 0.0
H1262 H 0.82296 0.84607 0.14983 0.0
C1263 C 0.83702 0.91101 0.09418 0.0
C1264 C 0.79219 0.90748 0.14258 0.0
C1265 C 0.84284 0.92472 0.07396 0.0
C1266 C 0.77219 0.83796 0.21566 0.0
C1267 C 0.7749 0.8517 0.19418 0.0
C1268 C 0.81416 0.86316 0.14771 0.0
C1269 C 0.81547 0.91318 0.10315 0.0
C1270 C 0.80905 0.8988 0.12448 0.0
C1271 C 0.79369 0.85901 0.189 0.0
C1272 C 0.79763 0.87208 0.16583 0.0
H1273 H 0.79318 0.95597 0.06438 0.0
H1274 H 0.78318 0.93145 0.09801 0.0
H1275 H 0.83246 0.86911 0.11315 0.0
H1276 H 0.81912 0.83545 0.23965 0.0
H1277 H 0.82378 0.85921 0.20206 0.0
C1278 C 0.09051 0.73367 0.08475 0.0
C1279 C 0.07349 0.74819 0.07396 0.0
C1280 C 0.10467 0.74205 0.09645 0.0
C1281 C 0.11138 0.79127 0.12459 0.0
H1282 H 0.17118 0.76427 0.10817 0.0
C1283 C 0.17621 0.78758 0.18774 0.0
C1284 C 0.1973 0.784 0.17696 0.0
C1285 C 0.15972 0.79177 0.17232 0.0
C1286 C 0.15459 0.77244 0.1125 0.0
H1287 H 0.05686 0.7825 0.06802 0.0
H1288 H 0.08153 0.79719 0.08851 0.0
H1289 H 0.14474 0.75225 0.08831 0.0
H1290 H 0.21803 0.78435 0.14236 0.0
H1291 H 0.18908 0.79239 0.11514 0.0
H1292 H 0.12132 0.81123 0.14915 0.0
C1293 C 0.08409 0.77944 0.08791 0.0
C1294 C 0.13944 0.76518 0.10151 0.0
C1295 C 0.07008 0.77107 0.07614 0.0
C1296 C 0.20173 0.78715 0.15086 0.0
C1297 C 0.18522 0.79157 0.1354 0.0
C1298 C 0.12658 0.79856 0.13564 0.0
C1299 C 0.1018 0.76505 0.09763 0.0
C1300 C 0.11771 0.77402 0.10804 0.0
C1301 C 0.16425 0.79235 0.14595 0.0
C1302 C 0.14833 0.78874 0.13026 0.0
H1303 H 0.09328 0.71601 0.08315 0.0
H1304 H 0.11806 0.73059 0.10421 0.0
H1305 H 0.09468 0.79848 0.12979 0.0
H1306 H 0.17265 0.785 0.20791 0.0
H1307 H 0.1438 0.79217 0.18108 0.0
C1308 C 0.22952 0.01819 0.99187 0.0
C1309 C 0.23412 0.01336 0.01705 0.0
C1310 C 0.22495 1.00229 0.97814 0.0
C1311 C 0.21096 0.94921 0.97914 0.0
H1312 H 0.25731 0.93553 0.92609 0.0
C1313 C 0.24138 0.86281 0.9427 0.0
C1314 C 0.25476 0.85952 0.92007 0.0
C1315 C 0.23226 0.88407 0.95049 0.0
C1316 C 0.2438 0.93934 0.94017 0.0
H1317 H 0.23553 0.98891 0.04833 0.0
H1318 H 0.22682 0.96104 0.0244 0.0
H1319 H 0.25233 0.96855 0.94885 0.0
H1320 H 0.26655 0.87623 0.88615 0.0
H1321 H 0.24927 0.9133 0.8988 0.0
H1322 H 0.20218 0.92018 0.97039 0.0
C1323 C 0.22692 0.9772 0.01535 0.0
C1324 C 0.24109 0.95826 0.95341 0.0
C1325 C 0.23176 0.99314 0.02909 0.0
C1326 C 0.25657 0.87805 0.90388 0.0
C1327 C 0.24692 0.89941 0.91138 0.0
C1328 C 0.2133 0.93052 0.96544 0.0
C1329 C 0.22453 0.98134 0.98946 0.0
C1330 C 0.22508 0.963 0.97349 0.0
C1331 C 0.23572 0.9027 0.93547 0.0
C1332 C 0.23028 0.92484 0.94639 0.0
H1333 H 0.23122 0.03371 0.98223 0.0
H1334 H 0.22307 0.00589 0.95826 0.0
H1335 H 0.19837 0.95269 0.99441 0.0
H1336 H 0.23894 0.84891 0.95521 0.0
H1337 H 0.22378 0.88564 0.96913 0.0
C1338 C 0.13313 0.26267 0.99921 0.0
C1339 C 0.12101 0.2823 0.00924 0.0
C1340 C 0.15034 0.26303 0.98105 0.0
C1341 C 0.18355 0.3003 0.94782 0.0
H1342 H 0.19069 0.25972 0.89483 0.0
C1343 C 0.22727 0.30755 0.84618 0.0
C1344 C 0.24387 0.28898 0.84077 0.0
C1345 C 0.21365 0.30757 0.86851 0.0
C1346 C 0.18881 0.27113 0.90956 0.0
H1347 H 0.11708 0.31762 0.00876 0.0
H1348 H 0.14677 0.31863 0.97689 0.0
H1349 H 0.16506 0.25745 0.93127 0.0
H1350 H 0.25744 0.2551 0.85317 0.0
H1351 H 0.23401 0.25502 0.89164 0.0
H1352 H 0.20675 0.31454 0.925 0.0
C1353 C 0.14377 0.30271 0.9834 0.0
C1354 C 0.17433 0.26968 0.93065 0.0
C1355 C 0.12681 0.30221 1.00179 0.0
C1356 C 0.24603 0.2702 0.85756 0.0
C1357 C 0.23223 0.26997 0.8794 0.0
C1358 C 0.19768 0.30204 0.9264 0.0
C1359 C 0.1554 0.2832 0.97219 0.0
C1360 C 0.17153 0.28419 0.95018 0.0
C1361 C 0.21588 0.28859 0.885 0.0
C1362 C 0.20044 0.28742 0.90721 0.0
H1363 H 0.12839 0.24731 1.00422 0.0
H1364 H 0.1591 0.24758 0.97331 0.0
H1365 H 0.18218 0.31153 0.96256 0.0
H1366 H 0.22457 0.32181 0.83294 0.0
H1367 H 0.20084 0.322 0.87236 0.0
C1368 C 0.82528 0.07381 0.90344 0.0
C1369 C 0.82211 0.06917 0.92955 0.0
C1370 C 0.81933 0.09551 0.8932 0.0
C1371 C 0.80564 0.15416 0.90995 0.0
H1372 H 0.78076 0.16401 0.84635 0.0
C1373 C 0.77253 0.24168 0.86416 0.0
C1374 C 0.78052 0.24444 0.83885 0.0
C1375 C 0.7755 0.22053 0.87628 0.0
C1376 C 0.78767 0.16148 0.86414 0.0
H1377 H 0.81099 0.08384 0.96549 0.0
H1378 H 0.80012 0.12151 0.94764 0.0
H1379 H 0.79083 0.12657 0.86546 0.0
H1380 H 0.79851 0.22709 0.80689 0.0
H1381 H 0.803 0.19055 0.82745 0.0
H1382 H 0.80235 0.1892 0.9085 0.0
C1383 C 0.80733 0.10846 0.93502 0.0
C1384 C 0.7936 0.14003 0.875 0.0
C1385 C 0.81335 0.08679 0.94524 0.0
C1386 C 0.79157 0.22567 0.82602 0.0
C1387 C 0.7942 0.20461 0.83789 0.0
C1388 C 0.79952 0.17565 0.89916 0.0
C1389 C 0.81003 0.11307 0.90884 0.0
C1390 C 0.80297 0.13605 0.89784 0.0
C1391 C 0.78641 0.20182 0.8632 0.0
C1392 C 0.79078 0.17945 0.87598 0.0
H1393 H 0.83185 0.06063 0.89083 0.0
H1394 H 0.82201 0.09851 0.87299 0.0
H1395 H 0.81301 0.1517 0.9274 0.0
H1396 H 0.76431 0.2559 0.87467 0.0
H1397 H 0.76939 0.2188 0.89588 0.0
C1398 C 0.96116 0.76612 0.93462 0.0
C1399 C 0.96563 0.74743 0.95145 0.0
C1400 C 0.94409 0.76961 0.92 0.0
C1401 C 0.90842 0.73943 0.89661 0.0
H1402 H 0.87502 0.79842 0.88027 0.0
C1403 C 0.831 0.75495 0.84884 0.0
C1404 C 0.82854 0.77102 0.82872 0.0
C1405 C 0.84752 0.75254 0.86402 0.0
C1406 C 0.88433 0.78186 0.88456 0.0
H1407 H 0.95521 0.71831 0.967 0.0
H1408 H 0.92517 0.72458 0.94207 0.0
H1409 H 0.90392 0.79356 0.90697 0.0
H1410 H 0.84139 0.79729 0.80875 0.0
H1411 H 0.87037 0.79298 0.83524 0.0
H1412 H 0.88859 0.72775 0.87454 0.0
C1413 C 0.93522 0.7362 0.93943 0.0
C1414 C 0.90093 0.77906 0.89979 0.0
C1415 C 0.95242 0.73259 0.95379 0.0
C1416 C 0.84299 0.78461 0.824 0.0
C1417 C 0.85942 0.78232 0.83932 0.0
C1418 C 0.89173 0.74222 0.88164 0.0
C1419 C 0.93097 0.7546 0.92211 0.0
C1420 C 0.9132 0.75778 0.90601 0.0
C1421 C 0.86187 0.76624 0.85946 0.0
C1422 C 0.87953 0.76345 0.87544 0.0
H1423 H 0.97118 0.77776 0.93233 0.0
H1424 H 0.94149 0.78382 0.90666 0.0
H1425 H 0.91779 0.72283 0.90049 0.0
H1426 H 0.82034 0.74405 0.85273 0.0
H1427 H 0.84894 0.74008 0.8795 0.0
C1428 C 0.11837 0.28821 0.12185 0.0
C1429 C 0.09882 0.304 0.12173 0.0
C1430 C 0.13359 0.28978 0.13732 0.0
C1431 C 0.14113 0.31401 0.19529 0.0
H1432 H 0.20043 0.29294 0.17044 0.0
C1433 C 0.20976 0.29441 0.26137 0.0
C1434 C 0.22956 0.29821 0.25123 0.0
C1435 C 0.19315 0.29679 0.24597 0.0
C1436 C 0.18403 0.29922 0.1778 0.0
H1437 H 0.08014 0.33424 0.13771 0.0
H1438 H 0.10728 0.33736 0.16484 0.0
H1439 H 0.17325 0.29641 0.14237 0.0
H1440 H 0.24734 0.30655 0.21649 0.0
H1441 H 0.2186 0.31217 0.19049 0.0
H1442 H 0.15219 0.3174 0.23066 0.0
C1443 C 0.11057 0.32353 0.1529 0.0
C1444 C 0.16829 0.30091 0.16164 0.0
C1445 C 0.09513 0.32195 0.13715 0.0
C1446 C 0.23226 0.30425 0.22535 0.0
C1447 C 0.21572 0.30697 0.21015 0.0
C1448 C 0.15699 0.31254 0.2115 0.0
C1449 C 0.12999 0.30732 0.15325 0.0
C1450 C 0.14658 0.30797 0.17017 0.0
C1451 C 0.19592 0.30308 0.22005 0.0
C1452 C 0.17872 0.30497 0.20303 0.0
H1453 H 0.12184 0.27413 0.11024 0.0
H1454 H 0.14802 0.27671 0.13726 0.0
H1455 H 0.1246 0.31934 0.20265 0.0
H1456 H 0.20709 0.2895 0.28116 0.0
H1457 H 0.1783 0.29327 0.25433 0.0
C1458 C 0.08771 0.80122 0.96697 0.0
C1459 C 0.07375 0.78756 0.96513 0.0
C1460 C 0.10671 0.79945 0.95083 0.0
C1461 C 0.14421 0.76231 0.90327 0.0
H1462 H 0.16829 0.81341 0.89024 0.0
C1463 C 0.23085 0.7598 0.85374 0.0
C1464 C 0.23368 0.77783 0.83715 0.0
C1465 C 0.21083 0.75951 0.86708 0.0
C1466 C 0.16177 0.79895 0.89338 0.0
H1467 H 0.06947 0.76105 0.94426 0.0
H1468 H 0.10198 0.75841 0.91568 0.0
H1469 H 0.135 0.81631 0.91669 0.0
H1470 H 0.21742 0.81042 0.82336 0.0
H1471 H 0.18304 0.81016 0.84645 0.0
H1472 H 0.17111 0.74525 0.8792 0.0
C1473 C 0.09853 0.7704 0.92995 0.0
C1474 C 0.1426 0.80049 0.90909 0.0
C1475 C 0.07952 0.77211 0.94626 0.0
C1476 C 0.21583 0.79569 0.83477 0.0
C1477 C 0.19604 0.79571 0.84851 0.0
C1478 C 0.16345 0.7608 0.88747 0.0
C1479 C 0.11265 0.784 0.93189 0.0
C1480 C 0.13331 0.78221 0.91453 0.0
C1481 C 0.19322 0.77782 0.86534 0.0
C1482 C 0.17257 0.77913 0.88217 0.0
H1483 H 0.08415 0.8132 0.98129 0.0
H1484 H 0.11694 0.81002 0.95381 0.0
H1485 H 0.13813 0.74762 0.9069 0.0
H1486 H 0.24443 0.74664 0.85793 0.0
H1487 H 0.20957 0.74554 0.88011 0.0
C1488 C 0.29582 0.116 0.02917 0.0
C1489 C 0.28632 0.0984 0.02776 0.0
C1490 C 0.2983 0.13017 0.0078 0.0
C1491 C 0.29865 0.13535 0.9383 0.0
H1492 H 0.27823 0.19803 0.94783 0.0
C1493 C 0.29057 0.20045 0.85342 0.0
C1494 C 0.29495 0.22084 0.85699 0.0
C1495 C 0.28927 0.18501 0.87388 0.0
C1496 C 0.28439 0.18063 0.94474 0.0
H1497 H 0.27165 0.08197 1.00332 0.0
H1498 H 0.27669 0.10591 0.96611 0.0
H1499 H 0.279 0.17179 0.9841 0.0
H1500 H 0.29961 0.24129 0.88548 0.0
H1501 H 0.29977 0.21418 0.91988 0.0
H1502 H 0.30448 0.14407 0.89905 0.0
C1503 C 0.28258 0.10868 0.98336 0.0
C1504 C 0.28478 0.16558 0.96565 0.0
C1505 C 0.27988 0.09481 1.00466 0.0
C1506 C 0.29758 0.22544 0.88148 0.0
C1507 C 0.29686 0.20997 0.90163 0.0
C1508 C 0.2986 0.15042 0.9174 0.0
C1509 C 0.29139 0.1268 0.98478 0.0
C1510 C 0.29198 0.14279 0.96268 0.0
C1511 C 0.29253 0.18956 0.89829 0.0
C1512 C 0.2916 0.17331 0.92031 0.0
H1513 H 0.30022 0.11951 0.047 0.0
H1514 H 0.30514 0.14405 0.00941 0.0
H1515 H 0.30422 0.11784 0.93544 0.0
H1516 H 0.28793 0.19649 0.83493 0.0
H1517 H 0.28543 0.16968 0.87056 0.0
C1518 C 1.00555 0.27789 0.02184 0.0
C1519 C 1.00488 0.29701 0.03441 0.0
C1520 C 0.99106 0.27779 1.00495 0.0
C1521 C 0.93789 0.30567 0.98772 0.0
H1522 H 0.95645 0.27011 0.92956 0.0
C1523 C 0.87681 0.29111 0.92632 0.0
C1524 C 0.882 0.29423 0.90031 0.0
C1525 C 0.89249 0.28823 0.94287 0.0
C1526 C 0.95096 0.2802 0.94561 0.0
H1527 H 0.98861 0.33137 0.03823 0.0
H1528 H 0.96279 0.33131 0.008 0.0
H1529 H 0.98251 0.27526 0.95589 0.0
H1530 H 0.90744 0.29558 0.87087 0.0
H1531 H 0.93481 0.29069 0.89948 0.0
H1532 H 0.90642 0.31133 0.97679 0.0
C1533 C 0.97468 0.31626 0.01183 0.0
C1534 C 0.96591 0.28305 0.96087 0.0
C1535 C 0.98945 0.31638 0.02901 0.0
C1536 C 0.90324 0.2928 0.89089 0.0
C1537 C 0.91888 0.29007 0.90736 0.0
C1538 C 0.92293 0.303 0.97228 0.0
C1539 C 0.97535 0.29685 0.9997 0.0
C1540 C 0.95956 0.29569 0.98224 0.0
C1541 C 0.91352 0.28875 0.93362 0.0
C1542 C 0.92927 0.29021 0.95104 0.0
H1543 H 1.01728 0.26257 0.02508 0.0
H1544 H 0.99192 0.26243 0.99647 0.0
H1545 H 0.93242 0.31522 1.0042 0.0
H1546 H 0.86041 0.29247 0.93392 0.0
H1547 H 0.88792 0.2867 0.96294 0.0
C1548 C 0.81007 0.94446 0.92722 0.0
C1549 C 0.79667 0.9549 0.94746 0.0
C1550 C 0.80351 0.93014 0.91307 0.0
C1551 C 0.76981 0.89189 0.91362 0.0
H1552 H 0.77699 0.90214 0.84091 0.0
C1553 C 0.77357 0.82685 0.83974 0.0
C1554 C 0.76258 0.83445 0.81835 0.0
C1555 C 0.77429 0.84145 0.85791 0.0
C1556 C 0.77468 0.89914 0.86117 0.0
H1557 H 0.76591 0.95811 0.96904 0.0
H1558 H 0.75438 0.93246 0.94417 0.0
H1559 H 0.7846 0.92814 0.86789 0.0
H1560 H 0.74356 0.86325 0.79947 0.0
H1561 H 0.74521 0.88884 0.83083 0.0
H1562 H 0.7606 0.86233 0.90665 0.0
C1563 C 0.76997 0.93573 0.93931 0.0
C1564 C 0.77913 0.91398 0.87662 0.0
C1565 C 0.77645 0.95052 0.95336 0.0
C1566 C 0.75198 0.85687 0.81584 0.0
C1567 C 0.75299 0.87152 0.83374 0.0
C1568 C 0.76566 0.87676 0.89807 0.0
C1569 C 0.78344 0.92555 0.91889 0.0
C1570 C 0.77686 0.91051 0.90299 0.0
C1571 C 0.76453 0.86408 0.8547 0.0
C1572 C 0.76806 0.88026 0.87165 0.0
H1573 H 0.82577 0.94739 0.92217 0.0
H1574 H 0.81431 0.92242 0.89763 0.0
H1575 H 0.76816 0.88869 0.93388 0.0
H1576 H 0.7823 0.80981 0.84202 0.0
H1577 H 0.78346 0.83524 0.87372 0.0
C1578 C 0.97502 0.76939 0.08973 0.0
C1579 C 0.96924 0.77946 0.06621 0.0
C1580 C 0.95971 0.76932 0.11064 0.0
C1581 C 0.90276 0.79374 0.1357 0.0
H1582 H 0.91067 0.73907 0.17727 0.0
C1583 C 0.83789 0.77873 0.21696 0.0
C1584 C 0.84464 0.76532 0.23844 0.0
C1585 C 0.85223 0.78051 0.19536 0.0
C1586 C 0.90817 0.75469 0.16632 0.0
H1587 H 0.94249 0.79719 0.04647 0.0
H1588 H 0.91583 0.79777 0.08296 0.0
H1589 H 0.93705 0.74338 0.1426 0.0
H1590 H 0.87206 0.74369 0.25384 0.0
H1591 H 0.897 0.74728 0.21719 0.0
H1592 H 0.87392 0.80513 0.15964 0.0
C1593 C 0.93233 0.79017 0.08549 0.0
C1594 C 0.9235 0.75717 0.14615 0.0
C1595 C 0.9477 0.7901 0.0645 0.0
C1596 C 0.86614 0.75386 0.23759 0.0
C1597 C 0.88051 0.75586 0.21625 0.0
C1598 C 0.88745 0.79134 0.15609 0.0
C1599 C 0.93793 0.77915 0.10878 0.0
C1600 C 0.92124 0.77678 0.13049 0.0
C1601 C 0.87397 0.76929 0.19464 0.0
C1602 C 0.88989 0.77179 0.172 0.0
H1603 H 0.99128 0.76028 0.09155 0.0
H1604 H 0.96493 0.76092 0.12815 0.0
H1605 H 0.90029 0.80916 0.12433 0.0
H1606 H 0.82159 0.78821 0.21696 0.0
H1607 H 0.84617 0.79081 0.17927 0.0
C1608 C 0.29935 0.98168 0.1275 0.0
C1609 C 0.27933 0.99649 0.13148 0.0
C1610 C 0.30406 0.96156 0.14199 0.0
C1611 C 0.28879 0.93274 0.20176 0.0
H1612 H 0.30633 0.8794 0.16505 0.0
C1613 C 0.28514 0.84733 0.2506 0.0
C1614 C 0.29929 0.82816 0.24151 0.0
C1615 C 0.2847 0.86805 0.23816 0.0
C1616 C 0.30193 0.89399 0.17583 0.0
H1617 H 0.249 1.00218 0.15458 0.0
H1618 H 0.2574 0.96754 0.17993 0.0
H1619 H 0.30316 0.91526 0.14228 0.0
H1620 H 0.32378 0.8156 0.21194 0.0
H1621 H 0.32399 0.85173 0.19086 0.0
H1622 H 0.28795 0.91174 0.23538 0.0
C1623 C 0.26938 0.97131 0.16557 0.0
C1624 C 0.30003 0.91463 0.16264 0.0
C1625 C 0.26455 0.99114 0.1509 0.0
C1626 C 0.31289 0.83015 0.21955 0.0
C1627 C 0.31279 0.85092 0.20733 0.0
C1628 C 0.29113 0.9121 0.21505 0.0
C1629 C 0.28903 0.95611 0.16105 0.0
C1630 C 0.29313 0.93423 0.17539 0.0
C1631 C 0.2985 0.87024 0.21624 0.0
C1632 C 0.2974 0.89234 0.20227 0.0
H1633 H 0.31105 0.98531 0.1127 0.0
H1634 H 0.3194 0.95016 0.1382 0.0
H1635 H 0.28355 0.94759 0.21213 0.0
H1636 H 0.27397 0.84632 0.26694 0.0
H1637 H 0.27304 0.88221 0.24545 0.0
C1638 C 0.81388 0.06755 0.03421 0.0
C1639 C 0.80424 0.04984 0.04055 0.0
C1640 C 0.813 0.08316 0.05155 0.0
C1641 C 0.80513 0.09233 0.1197 0.0
H1642 H 0.79937 0.1533 0.09443 0.0
C1643 C 0.7844 0.17157 0.17725 0.0
C1644 C 0.79346 0.1889 0.16674 0.0
C1645 C 0.78968 0.15125 0.16594 0.0
C1646 C 0.80136 0.13629 0.10175 0.0
H1647 H 0.78599 0.03447 0.06996 0.0
H1648 H 0.78382 0.06247 0.10058 0.0
H1649 H 0.79745 0.12587 0.06615 0.0
H1650 H 0.817 0.19797 0.13863 0.0
H1651 H 0.82649 0.16248 0.11913 0.0
H1652 H 0.80826 0.10343 0.15577 0.0
C1653 C 0.79222 0.06408 0.08208 0.0
C1654 C 0.80017 0.12052 0.08552 0.0
C1655 C 0.79308 0.04833 0.06448 0.0
C1656 C 0.80964 0.18487 0.14679 0.0
C1657 C 0.81502 0.16461 0.13566 0.0
C1658 C 0.80606 0.10833 0.13617 0.0
C1659 C 0.80238 0.08158 0.07582 0.0
C1660 C 0.80225 0.09829 0.09411 0.0
C1661 C 0.80406 0.14817 0.14406 0.0
C1662 C 0.80439 0.13044 0.1272 0.0
H1663 H 0.82288 0.06887 0.01599 0.0
H1664 H 0.82134 0.0961 0.04614 0.0
H1665 H 0.80701 0.0753 0.12686 0.0
H1666 H 0.7719 0.17438 0.19271 0.0
H1667 H 0.78107 0.13883 0.17286 0.0
C1668 C 0.60157 0.56606 0.8632 0.0
C1669 C 0.57994 0.5762 0.86862 0.0
C1670 C 0.61639 0.57888 0.85688 0.0
C1671 C 0.6218 0.63337 0.83063 0.0
H1672 H 0.6708 0.62258 0.86859 0.0
C1673 C 0.67042 0.69772 0.83623 0.0
C1674 C 0.69195 0.69034 0.84013 0.0
C1675 C 0.65824 0.6825 0.83458 0.0
C1676 C 0.65752 0.62553 0.85733 0.0
H1677 H 0.55662 0.60751 0.87101 0.0
H1678 H 0.58253 0.63005 0.85966 0.0
H1679 H 0.64646 0.59831 0.87628 0.0
H1680 H 0.71821 0.66177 0.84389 0.0
H1681 H 0.69709 0.63495 0.84041 0.0
H1682 H 0.63277 0.66065 0.8117 0.0
C1683 C 0.58803 0.6122 0.86056 0.0
C1684 C 0.64352 0.61168 0.86189 0.0
C1685 C 0.57329 0.59937 0.86736 0.0
C1686 C 0.70155 0.66767 0.84089 0.0
C1687 C 0.68942 0.65241 0.83912 0.0
C1688 C 0.63596 0.6471 0.82583 0.0
C1689 C 0.60971 0.60207 0.85532 0.0
C1690 C 0.62535 0.61571 0.84892 0.0
C1691 C 0.66745 0.65964 0.83685 0.0
C1692 C 0.65378 0.64359 0.83948 0.0
H1693 H 0.60693 0.5482 0.86391 0.0
H1694 H 0.63302 0.57071 0.85286 0.0
H1695 H 0.608 0.63662 0.82017 0.0
H1696 H 0.66281 0.71522 0.83568 0.0
H1697 H 0.64137 0.68869 0.83304 0.0
C1698 C 0.46346 0.5746 0.79585 0.0
C1699 C 0.47893 0.5727 0.81263 0.0
C1700 C 0.44576 0.59273 0.796 0.0
C1701 C 0.42401 0.64937 0.82077 0.0
H1702 H 0.37089 0.64003 0.80368 0.0
C1703 C 0.34433 0.71707 0.82995 0.0
C1704 C 0.33184 0.71991 0.80966 0.0
C1705 C 0.36202 0.69904 0.83165 0.0
C1706 C 0.38562 0.64299 0.80835 0.0
H1707 H 0.48771 0.58853 0.84289 0.0
H1708 H 0.45671 0.61957 0.84375 0.0
H1709 H 0.40207 0.60928 0.80381 0.0
H1710 H 0.3281 0.70536 0.77552 0.0
H1711 H 0.35847 0.67412 0.77868 0.0
H1712 H 0.40721 0.68311 0.82573 0.0
C1713 C 0.45844 0.60749 0.82985 0.0
C1714 C 0.40366 0.62531 0.80829 0.0
C1715 C 0.4763 0.58955 0.82941 0.0
C1716 C 0.33718 0.70385 0.79154 0.0
C1717 C 0.35467 0.68579 0.79335 0.0
C1718 C 0.40587 0.66702 0.82109 0.0
C1719 C 0.44275 0.60933 0.81327 0.0
C1720 C 0.42327 0.62823 0.81415 0.0
C1721 C 0.36747 0.6832 0.81329 0.0
C1722 C 0.38649 0.66414 0.81455 0.0
H1723 H 0.46493 0.56197 0.78266 0.0
H1724 H 0.43444 0.59365 0.78246 0.0
H1725 H 0.43873 0.65254 0.82513 0.0
H1726 H 0.34047 0.72865 0.84463 0.0
H1727 H 0.37132 0.6974 0.84749 0.0
C1728 C 0.46238 0.47261 0.88166 0.0
C1729 C 0.48202 0.47174 0.86746 0.0
C1730 C 0.44883 0.46023 0.87525 0.0
C1731 C 0.44813 0.41143 0.84214 0.0
H1732 H 0.38815 0.43938 0.8401 0.0
C1733 C 0.39078 0.36226 0.81743 0.0
C1734 C 0.37355 0.36289 0.83595 0.0
C1735 C 0.40274 0.37813 0.81622 0.0
C1736 C 0.40486 0.43138 0.84055 0.0
H1737 H 0.50341 0.45696 0.83619 0.0
H1738 H 0.48001 0.43477 0.8253 0.0
H1739 H 0.41241 0.461 0.84993 0.0
H1740 H 0.35432 0.38103 0.86655 0.0
H1741 H 0.3748 0.4091 0.86414 0.0
H1742 H 0.44059 0.38169 0.83344 0.0
C1743 C 0.47493 0.44514 0.84118 0.0
C1744 C 0.4187 0.4437 0.84632 0.0
C1745 C 0.48827 0.4578 0.84733 0.0
C1746 C 0.36737 0.38051 0.85188 0.0
C1747 C 0.37914 0.39651 0.8505 0.0
C1748 C 0.4343 0.39911 0.83641 0.0
C1749 C 0.45491 0.4465 0.8548 0.0
C1750 C 0.4404 0.43374 0.84758 0.0
C1751 C 0.39751 0.39491 0.83342 0.0
C1752 C 0.41246 0.40886 0.83595 0.0
H1753 H 0.45726 0.4835 0.89706 0.0
H1754 H 0.43357 0.46141 0.88623 0.0
H1755 H 0.46475 0.40328 0.84316 0.0
H1756 H 0.396 0.34855 0.80526 0.0
H1757 H 0.41671 0.37661 0.80273 0.0
C1758 C 0.60774 0.48711 0.79999 0.0
C1759 C 0.58714 0.48558 0.80968 0.0
C1760 C 0.62485 0.46846 0.80012 0.0
C1761 C 0.64099 0.41031 0.82853 0.0
H1762 H 0.68796 0.40676 0.77613 0.0
C1763 C 0.70991 0.33162 0.80859 0.0
C1764 C 0.73049 0.33528 0.80645 0.0
C1765 C 0.69198 0.34946 0.81056 0.0
C1766 C 0.67498 0.40757 0.79095 0.0
H1767 H 0.56844 0.46291 0.82695 0.0
H1768 H 0.59795 0.43029 0.82608 0.0
H1769 H 0.65752 0.43831 0.77545 0.0
H1770 H 0.74831 0.36059 0.80449 0.0
H1771 H 0.71717 0.39149 0.80739 0.0
H1772 H 0.6585 0.37886 0.84325 0.0
C1773 C 0.60113 0.44601 0.81896 0.0
C1774 C 0.65752 0.42579 0.79073 0.0
C1775 C 0.58406 0.46475 0.81914 0.0
C1776 C 0.73273 0.35709 0.8065 0.0
C1777 C 0.71489 0.37486 0.80794 0.0
C1778 C 0.65834 0.39182 0.82842 0.0
C1779 C 0.62187 0.44756 0.8096 0.0
C1780 C 0.64029 0.42763 0.80964 0.0
C1781 C 0.69434 0.37127 0.80979 0.0
C1782 C 0.67558 0.3904 0.80974 0.0
H1783 H 0.61083 0.50289 0.79295 0.0
H1784 H 0.64053 0.47066 0.79328 0.0
H1785 H 0.62835 0.41113 0.84373 0.0
H1786 H 0.70769 0.31503 0.80854 0.0
H1787 H 0.67629 0.34626 0.81187 0.0
C1788 C 0.5974 0.47489 0.27704 0.0
C1789 C 0.59413 0.48334 0.25225 0.0
C1790 C 0.61477 0.45701 0.28163 0.0
C1791 C 0.66675 0.42608 0.24953 0.0
H1792 H 0.6617 0.38022 0.30171 0.0
C1793 C 0.72854 0.34177 0.25486 0.0
C1794 C 0.7355 0.33477 0.27874 0.0
C1795 C 0.71118 0.35993 0.25214 0.0
C1796 C 0.66334 0.39297 0.28711 0.0
H1797 H 0.60656 0.47934 0.21292 0.0
H1798 H 0.63565 0.44847 0.22074 0.0
H1799 H 0.6318 0.41226 0.29706 0.0
H1800 H 0.72947 0.34112 0.31853 0.0
H1801 H 0.6993 0.37256 0.31373 0.0
H1802 H 0.69805 0.40646 0.23916 0.0
C1803 C 0.6255 0.45575 0.23685 0.0
C1804 C 0.64626 0.41143 0.28455 0.0
C1805 C 0.60848 0.4735 0.23235 0.0
C1806 C 0.72464 0.34617 0.29981 0.0
C1807 C 0.7072 0.36408 0.29714 0.0
C1808 C 0.68363 0.40751 0.25183 0.0
C1809 C 0.6291 0.44726 0.2615 0.0
C1810 C 0.64766 0.4282 0.26558 0.0
C1811 C 0.70031 0.37123 0.2733 0.0
C1812 C 0.68212 0.39072 0.27059 0.0
H1813 H 0.58664 0.48206 0.29278 0.0
H1814 H 0.61708 0.451 0.30092 0.0
H1815 H 0.66877 0.43885 0.2351 0.0
H1816 H 0.73664 0.33341 0.23827 0.0
H1817 H 0.70615 0.36503 0.23352 0.0
C1818 C 0.59524 0.60572 0.20657 0.0
C1819 C 0.59164 0.58822 0.22345 0.0
C1820 C 0.60865 0.6187 0.21193 0.0
C1821 C 0.65194 0.61803 0.25114 0.0
H1822 H 0.6394 0.68075 0.23185 0.0
C1823 C 0.71505 0.66827 0.23737 0.0
C1824 C 0.70939 0.69067 0.24262 0.0
C1825 C 0.69984 0.65582 0.24052 0.0
C1826 C 0.64293 0.66334 0.23781 0.0
H1827 H 0.59989 0.57043 0.25901 0.0
H1828 H 0.62233 0.59347 0.2687 0.0
H1829 H 0.61415 0.65924 0.22557 0.0
H1830 H 0.68386 0.71748 0.2566 0.0
H1831 H 0.65697 0.69559 0.26227 0.0
H1832 H 0.68065 0.62216 0.26351 0.0
C1833 C 0.61507 0.59704 0.25116 0.0
C1834 C 0.62864 0.65093 0.2338 0.0
C1835 C 0.60188 0.58397 0.24571 0.0
C1836 C 0.68853 0.70017 0.25252 0.0
C1837 C 0.67318 0.68772 0.25553 0.0
C1838 C 0.66615 0.63045 0.25529 0.0
C1839 C 0.61866 0.61454 0.23435 0.0
C1840 C 0.63317 0.62805 0.23997 0.0
C1841 C 0.67859 0.66557 0.24888 0.0
C1842 C 0.66204 0.65315 0.24816 0.0
H1843 H 0.58756 0.60957 0.18935 0.0
H1844 H 0.61134 0.63184 0.19834 0.0
H1845 H 0.65606 0.60042 0.25596 0.0
H1846 H 0.7311 0.66063 0.22976 0.0
H1847 H 0.70452 0.6389 0.23499 0.0
C1848 C 0.47207 0.59376 0.23644 0.0
C1849 C 0.48669 0.5854 0.25428 0.0
C1850 C 0.45515 0.61189 0.24117 0.0
C1851 C 0.43684 0.6609 0.27815 0.0
H1852 H 0.38231 0.66032 0.25641 0.0
C1853 C 0.36183 0.73285 0.29446 0.0
C1854 C 0.34747 0.73771 0.27597 0.0
C1855 C 0.37912 0.71444 0.2929 0.0
C1856 C 0.39747 0.66095 0.26229 0.0
H1857 H 0.49488 0.58957 0.29132 0.0
H1858 H 0.46476 0.6216 0.29986 0.0
H1859 H 0.41136 0.62752 0.25315 0.0
H1860 H 0.34076 0.72785 0.24059 0.0
H1861 H 0.37094 0.69604 0.23757 0.0
H1862 H 0.42299 0.69455 0.28683 0.0
C1863 C 0.46668 0.61394 0.28207 0.0
C1864 C 0.41413 0.64204 0.26056 0.0
C1865 C 0.48377 0.59552 0.27732 0.0
C1866 C 0.3512 0.72426 0.25544 0.0
C1867 C 0.36854 0.70596 0.25377 0.0
C1868 C 0.42014 0.67993 0.27978 0.0
C1869 C 0.45219 0.62227 0.26397 0.0
C1870 C 0.43409 0.64185 0.26817 0.0
C1871 C 0.38255 0.70056 0.2727 0.0
C1872 C 0.4003 0.68027 0.2716 0.0
H1873 H 0.47378 0.58645 0.21844 0.0
H1874 H 0.44458 0.61806 0.22662 0.0
H1875 H 0.45209 0.66136 0.28389 0.0
H1876 H 0.3593 0.7428 0.31066 0.0
H1877 H 0.38939 0.71072 0.30797 0.0
C1878 C 0.47096 0.49303 0.24096 0.0
C1879 C 0.48899 0.48587 0.22381 0.0
C1880 C 0.45541 0.48091 0.24572 0.0
C1881 C 0.4355 0.43931 0.21731 0.0
H1882 H 0.40944 0.42856 0.28477 0.0
C1883 C 0.38934 0.37367 0.23529 0.0
C1884 C 0.36814 0.38102 0.24524 0.0
C1885 C 0.40394 0.38617 0.23715 0.0
C1886 C 0.41654 0.4316 0.26587 0.0
H1887 H 0.50515 0.46011 0.19883 0.0
H1888 H 0.47823 0.43888 0.20719 0.0
H1889 H 0.43514 0.45188 0.27818 0.0
H1890 H 0.3457 0.40604 0.26671 0.0
H1891 H 0.37152 0.42833 0.26984 0.0
H1892 H 0.41735 0.41887 0.20498 0.0
C1893 C 0.4758 0.45413 0.21654 0.0
C1894 C 0.43115 0.44496 0.26205 0.0
C1895 C 0.49124 0.46629 0.2117 0.0
C1896 C 0.36205 0.40016 0.25891 0.0
C1897 C 0.37676 0.41282 0.26071 0.0
C1898 C 0.42115 0.42593 0.22114 0.0
C1899 C 0.45763 0.46137 0.23344 0.0
C1900 C 0.44106 0.44859 0.23774 0.0
C1901 C 0.39755 0.40635 0.24883 0.0
C1902 C 0.41185 0.42159 0.24545 0.0
H1903 H 0.46872 0.50819 0.2504 0.0
H1904 H 0.44149 0.48703 0.25864 0.0
H1905 H 0.44235 0.4423 0.19826 0.0
H1906 H 0.39432 0.35881 0.22491 0.0
H1907 H 0.42 0.38066 0.22824 0.0
C1908 C 0.80586 0.60825 0.61663 0.0
C1909 C 0.78572 0.60507 0.61363 0.0
C1910 C 0.80786 0.62491 0.63149 0.0
C1911 C 0.77601 0.67614 0.66228 0.0
H1912 H 0.82396 0.66547 0.7018 0.0
C1913 C 0.78328 0.74187 0.72813 0.0
C1914 C 0.7929 0.73459 0.75046 0.0
C1915 C 0.78455 0.72722 0.70931 0.0
C1916 C 0.81026 0.66874 0.69121 0.0
H1917 H 0.75184 0.61705 0.62399 0.0
H1918 H 0.75529 0.64538 0.65026 0.0
H1919 H 0.82133 0.63767 0.67428 0.0
H1920 H 0.81063 0.70604 0.77101 0.0
H1921 H 0.81157 0.68018 0.73936 0.0
H1922 H 0.76407 0.70641 0.68045 0.0
C1923 C 0.76963 0.63549 0.64074 0.0
C1924 C 0.80897 0.65284 0.67494 0.0
C1925 C 0.76764 0.61899 0.62578 0.0
C1926 C 0.80347 0.71225 0.75374 0.0
C1927 C 0.80416 0.69743 0.73534 0.0
C1928 C 0.77705 0.69183 0.67894 0.0
C1929 C 0.78976 0.63875 0.64387 0.0
C1930 C 0.79173 0.65619 0.66036 0.0
C1931 C 0.79458 0.70459 0.71282 0.0
C1932 C 0.79412 0.68836 0.69388 0.0
H1933 H 0.82012 0.59787 0.6075 0.0
H1934 H 0.82363 0.62703 0.63307 0.0
H1935 H 0.76268 0.67967 0.65104 0.0
H1936 H 0.77446 0.75882 0.72529 0.0
H1937 H 0.77736 0.73372 0.69217 0.0
C1938 C 0.48555 0.75815 0.6481 0.0
C1939 C 0.48978 0.77488 0.63032 0.0
C1940 C 0.46556 0.76031 0.66197 0.0
C1941 C 0.40867 0.79322 0.66399 0.0
H1942 H 0.40605 0.76558 0.73129 0.0
C1943 C 0.32594 0.79991 0.72252 0.0
C1944 C 0.32413 0.78744 0.74538 0.0
C1945 C 0.3459 0.79935 0.70902 0.0
C1946 C 0.40584 0.77331 0.7125 0.0
H1947 H 0.47561 0.80726 0.61356 0.0
H1948 H 0.44123 0.81137 0.63831 0.0
H1949 H 0.43978 0.76298 0.70736 0.0
H1950 H 0.34198 0.76367 0.77137 0.0
H1951 H 0.37617 0.76222 0.74855 0.0
H1952 H 0.37505 0.80351 0.66855 0.0
C1953 C 0.45327 0.79625 0.6412 0.0
C1954 C 0.42574 0.77173 0.69852 0.0
C1955 C 0.47327 0.79401 0.62713 0.0
C1956 C 0.34278 0.77398 0.75413 0.0
C1957 C 0.36274 0.77324 0.74063 0.0
C1958 C 0.38871 0.79469 0.67787 0.0
C1959 C 0.44902 0.7794 0.65887 0.0
C1960 C 0.42757 0.78156 0.67396 0.0
C1961 C 0.36495 0.78588 0.71758 0.0
C1962 C 0.38665 0.78469 0.70256 0.0
H1963 H 0.49769 0.74325 0.65148 0.0
H1964 H 0.46307 0.74669 0.67492 0.0
H1965 H 0.40913 0.80087 0.64507 0.0
H1966 H 0.31181 0.8102 0.71502 0.0
H1967 H 0.34592 0.80972 0.69187 0.0
C1968 C 0.30752 0.45083 0.59665 0.0
C1969 C 0.32485 0.44324 0.57876 0.0
C1970 C 0.30216 0.43682 0.61686 0.0
C1971 C 0.32388 0.38331 0.65212 0.0
H1972 H 0.26471 0.38898 0.6779 0.0
C1973 C 0.28794 0.31903 0.71703 0.0
C1974 C 0.28563 0.32467 0.74228 0.0
C1975 C 0.29107 0.3344 0.69731 0.0
C1976 C 0.28127 0.38736 0.67087 0.0
H1977 H 0.34994 0.41492 0.5678 0.0
H1978 H 0.34034 0.39018 0.60253 0.0
H1979 H 0.27387 0.41345 0.64238 0.0
H1980 H 0.28457 0.35104 0.76656 0.0
H1981 H 0.28969 0.37816 0.73176 0.0
H1982 H 0.33099 0.35662 0.6802 0.0
C1983 C 0.3312 0.40717 0.60153 0.0
C1984 C 0.2866 0.40143 0.65065 0.0
C1985 C 0.33674 0.42131 0.58153 0.0
C1986 C 0.28606 0.34626 0.74733 0.0
C1987 C 0.28897 0.36175 0.72751 0.0
C1988 C 0.3185 0.36913 0.67209 0.0
C1989 C 0.31384 0.41471 0.61953 0.0
C1990 C 0.30802 0.39965 0.641 0.0
C1991 C 0.29179 0.35577 0.70243 0.0
C1992 C 0.2972 0.37113 0.68164 0.0
H1993 H 0.29819 0.46773 0.59514 0.0
H1994 H 0.28898 0.44346 0.63051 0.0
H1995 H 0.34054 0.38159 0.64564 0.0
H1996 H 0.28854 0.30238 0.71244 0.0
H1997 H 0.29353 0.32941 0.67807 0.0
C1998 C 0.56138 0.26885 0.58096 0.0
C1999 C 0.55218 0.28563 0.56358 0.0
C2000 C 0.57588 0.27215 0.59636 0.0
C2001 C 0.59758 0.30925 0.62709 0.0
H2002 H 0.64897 0.26225 0.61879 0.0
C2003 C 0.67704 0.29717 0.67599 0.0
C2004 C 0.68526 0.2752 0.68475 0.0
C2005 C 0.65877 0.30258 0.66299 0.0
C2006 C 0.63474 0.27548 0.62137 0.0
H2007 H 0.54988 0.31975 0.55018 0.0
H2008 H 0.57564 0.32568 0.57781 0.0
H2009 H 0.62093 0.26528 0.59157 0.0
H2010 H 0.67996 0.2422 0.68894 0.0
H2011 H 0.64813 0.25161 0.66662 0.0
H2012 H 0.61157 0.31902 0.6575 0.0
C2013 C 0.57146 0.30987 0.57905 0.0
C2014 C 0.61874 0.2773 0.6057 0.0
C2015 C 0.55676 0.30651 0.56332 0.0
C2016 C 0.67397 0.25922 0.68226 0.0
C2017 C 0.65587 0.26458 0.66935 0.0
C2018 C 0.61381 0.30748 0.64287 0.0
C2019 C 0.58168 0.29237 0.59503 0.0
C2020 C 0.59972 0.29371 0.60887 0.0
C2021 C 0.64862 0.28606 0.65861 0.0
C2022 C 0.63221 0.29008 0.64063 0.0
H2023 H 0.55797 0.25267 0.58211 0.0
H2024 H 0.5832 0.25851 0.60881 0.0
H2025 H 0.58303 0.32201 0.62994 0.0
H2026 H 0.68561 0.30973 0.67748 0.0
H2027 H 0.65349 0.31926 0.65491 0.0
C2028 C 0.78139 0.52614 0.49544 0.0
C2029 C 0.78135 0.52409 0.52183 0.0
C2030 C 0.77734 0.5094 0.4824 0.0
C2031 C 0.77623 0.45003 0.48942 0.0
H2032 H 0.74664 0.46464 0.42918 0.0
C2033 C 0.76662 0.38073 0.43355 0.0
C2034 C 0.77528 0.38241 0.40842 0.0
C2035 C 0.76065 0.3994 0.44778 0.0
C2036 C 0.75481 0.46034 0.44606 0.0
H2037 H 0.77726 0.50248 0.55506 0.0
H2038 H 0.76979 0.47369 0.53256 0.0
H2039 H 0.75085 0.49427 0.45367 0.0
H2040 H 0.78311 0.40474 0.37771 0.0
H2041 H 0.77268 0.43749 0.40247 0.0
H2042 H 0.78044 0.4162 0.48172 0.0
C2043 C 0.77333 0.48803 0.52177 0.0
C2044 C 0.75741 0.47729 0.45999 0.0
C2045 C 0.77762 0.50463 0.53475 0.0
C2046 C 0.77616 0.40324 0.39701 0.0
C2047 C 0.7702 0.42194 0.41122 0.0
C2048 C 0.77345 0.43316 0.47568 0.0
C2049 C 0.77297 0.49022 0.49542 0.0
C2050 C 0.7686 0.47235 0.48156 0.0
C2051 C 0.76349 0.41997 0.43712 0.0
C2052 C 0.76311 0.43808 0.45355 0.0
H2053 H 0.78408 0.54093 0.48486 0.0
H2054 H 0.77766 0.51152 0.46208 0.0
H2055 H 0.78519 0.44546 0.50564 0.0
H2056 H 0.76603 0.36471 0.4427 0.0
H2057 H 0.75521 0.39744 0.46758 0.0
C2058 C 0.62692 0.79434 0.48964 0.0
C2059 C 0.61663 0.77697 0.48919 0.0
C2060 C 0.64401 0.79653 0.47152 0.0
C2061 C 0.66651 0.78004 0.40673 0.0
H2062 H 0.71683 0.79735 0.42118 0.0
C2063 C 0.72579 0.80206 0.32635 0.0
C2064 C 0.74751 0.79196 0.32738 0.0
C2065 C 0.71098 0.80137 0.34742 0.0
C2066 C 0.70291 0.79241 0.41689 0.0
H2067 H 0.6177 0.74767 0.46945 0.0
H2068 H 0.64664 0.75169 0.43838 0.0
H2069 H 0.68891 0.79388 0.45544 0.0
H2070 H 0.77055 0.77358 0.35208 0.0
H2071 H 0.74476 0.77322 0.38944 0.0
H2072 H 0.68029 0.77847 0.3684 0.0
C2073 C 0.64131 0.76393 0.45237 0.0
C2074 C 0.68679 0.79062 0.43648 0.0
C2075 C 0.62447 0.76166 0.47041 0.0
C2076 C 0.7541 0.78191 0.35064 0.0
C2077 C 0.73925 0.7816 0.37204 0.0
C2078 C 0.68241 0.78203 0.38726 0.0
C2079 C 0.65121 0.78152 0.45232 0.0
C2080 C 0.66837 0.78427 0.4317 0.0
C2081 C 0.71735 0.79078 0.37048 0.0
C2082 C 0.70084 0.78829 0.39193 0.0
H2083 H 0.62162 0.80654 0.50364 0.0
H2084 H 0.65118 0.81034 0.47215 0.0
H2085 H 0.65255 0.77537 0.40209 0.0
H2086 H 0.72003 0.80981 0.3088 0.0
H2087 H 0.69435 0.80884 0.34549 0.0
C2088 C 0.31055 0.59024 0.45466 0.0
C2089 C 0.3186 0.57166 0.4402 0.0
C2090 C 0.30553 0.61163 0.44304 0.0
C2091 C 0.29499 0.64193 0.38044 0.0
H2092 H 0.30585 0.69082 0.41246 0.0
C2093 C 0.29747 0.72717 0.32906 0.0
C2094 C 0.28531 0.74606 0.34102 0.0
C2095 C 0.29999 0.70612 0.34132 0.0
C2096 C 0.30253 0.67736 0.40341 0.0
H2097 H 0.32719 0.56115 0.40206 0.0
H2098 H 0.31888 0.59824 0.38185 0.0
H2099 H 0.31349 0.65381 0.43331 0.0
H2100 H 0.26744 0.75766 0.37598 0.0
H2101 H 0.27259 0.72086 0.39791 0.0
H2102 H 0.28476 0.66555 0.35011 0.0
C2103 C 0.31624 0.59641 0.40219 0.0
C2104 C 0.30684 0.65609 0.4154 0.0
C2105 C 0.32132 0.57505 0.41382 0.0
C2106 C 0.2765 0.74341 0.36604 0.0
C2107 C 0.2795 0.72237 0.3786 0.0
C2108 C 0.29097 0.66314 0.36832 0.0
C2109 C 0.30831 0.61509 0.4166 0.0
C2110 C 0.30321 0.63799 0.40407 0.0
C2111 C 0.29119 0.70347 0.36632 0.0
C2112 C 0.29474 0.68109 0.37963 0.0
H2113 H 0.30834 0.58826 0.47502 0.0
H2114 H 0.29924 0.62544 0.45487 0.0
H2115 H 0.2915 0.62866 0.37127 0.0
H2116 H 0.30512 0.72857 0.31017 0.0
H2117 H 0.30932 0.69193 0.33145 0.0
C2118 C 0.45677 0.29946 0.45344 0.0
C2119 C 0.46137 0.28116 0.47077 0.0
C2120 C 0.4402 0.30176 0.43795 0.0
C2121 C 0.39179 0.2814 0.43192 0.0
H2122 H 0.40318 0.29453 0.3603 0.0
C2123 C 0.33815 0.26496 0.36056 0.0
C2124 C 0.33412 0.2799 0.33955 0.0
C2125 C 0.35326 0.26642 0.37653 0.0
C2126 C 0.39953 0.29113 0.38029 0.0
H2127 H 0.45165 0.25151 0.48617 0.0
H2128 H 0.4232 0.25553 0.45969 0.0
H2129 H 0.4292 0.29647 0.38877 0.0
H2130 H 0.34312 0.3081 0.31884 0.0
H2131 H 0.36927 0.31077 0.34662 0.0
H2132 H 0.36225 0.27595 0.42363 0.0
C2133 C 0.4321 0.26819 0.45785 0.0
C2134 C 0.4145 0.2923 0.39665 0.0
C2135 C 0.44859 0.26583 0.473 0.0
C2136 C 0.34598 0.29607 0.33463 0.0
C2137 C 0.36102 0.29762 0.35065 0.0
C2138 C 0.37682 0.28031 0.41563 0.0
C2139 C 0.4278 0.28597 0.43983 0.0
C2140 C 0.41097 0.28713 0.42266 0.0
C2141 C 0.36479 0.28294 0.372 0.0
C2142 C 0.38055 0.28487 0.38949 0.0
H2143 H 0.46645 0.31143 0.45115 0.0
H2144 H 0.43722 0.31575 0.42435 0.0
H2145 H 0.38835 0.27762 0.45189 0.0
H2146 H 0.32978 0.25197 0.36458 0.0
H2147 H 0.356 0.25442 0.39236 0.0
C2148 C 0.61008 0.77897 0.62469 0.0
C2149 C 0.59811 0.79724 0.61136 0.0
C2150 C 0.62548 0.78144 0.63931 0.0
C2151 C 0.64447 0.82123 0.67186 0.0
H2152 H 0.6956 0.77354 0.67029 0.0
C2153 C 0.72036 0.8172 0.72282 0.0
C2154 C 0.72575 0.79807 0.7388 0.0
C2155 C 0.7045 0.8194 0.70666 0.0
C2156 C 0.68142 0.78696 0.67088 0.0
H2157 H 0.59243 0.8327 0.60366 0.0
H2158 H 0.61989 0.83707 0.62937 0.0
H2159 H 0.66872 0.77397 0.6422 0.0
H2160 H 0.71923 0.76616 0.75036 0.0
H2161 H 0.69193 0.7697 0.7215 0.0
H2162 H 0.65767 0.83422 0.70052 0.0
C2163 C 0.61715 0.82079 0.62837 0.0
C2164 C 0.66596 0.7872 0.6549 0.0
C2165 C 0.60149 0.81831 0.61364 0.0
C2166 C 0.7151 0.78119 0.73844 0.0
C2167 C 0.69965 0.78314 0.72187 0.0
C2168 C 0.66018 0.82114 0.68765 0.0
C2169 C 0.62958 0.80224 0.64096 0.0
C2170 C 0.647 0.80395 0.65571 0.0
C2171 C 0.69427 0.80223 0.70581 0.0
C2172 C 0.6785 0.80369 0.68768 0.0
H2173 H 0.60773 0.76251 0.62377 0.0
H2174 H 0.63422 0.76689 0.64935 0.0
H2175 H 0.63004 0.8343 0.67302 0.0
H2176 H 0.72838 0.83042 0.72286 0.0
H2177 H 0.70064 0.8342 0.69435 0.0
C2178 C 0.60206 0.23913 0.44543 0.0
C2179 C 0.5861 0.25797 0.45178 0.0
C2180 C 0.62131 0.24111 0.43222 0.0
C2181 C 0.65451 0.28169 0.41061 0.0
H2182 H 0.6832 0.2346 0.36695 0.0
C2183 C 0.72733 0.28189 0.33521 0.0
C2184 C 0.74554 0.26586 0.34162 0.0
C2185 C 0.70743 0.28188 0.34813 0.0
C2186 C 0.67529 0.24785 0.37902 0.0
H2187 H 0.57801 0.2938 0.44973 0.0
H2188 H 0.61128 0.2974 0.42572 0.0
H2189 H 0.64897 0.23348 0.38977 0.0
H2190 H 0.75738 0.23758 0.36661 0.0
H2191 H 0.7222 0.23696 0.38862 0.0
H2192 H 0.68075 0.29646 0.39833 0.0
C2193 C 0.6092 0.28097 0.43139 0.0
C2194 C 0.65577 0.24715 0.39245 0.0
C2195 C 0.59001 0.27895 0.44509 0.0
C2196 C 0.74352 0.24988 0.36118 0.0
C2197 C 0.72352 0.24957 0.37372 0.0
C2198 C 0.67382 0.28266 0.39655 0.0
C2199 C 0.62504 0.26203 0.42444 0.0
C2200 C 0.64527 0.26377 0.40894 0.0
C2201 C 0.70542 0.2657 0.36743 0.0
C2202 C 0.68446 0.26553 0.38105 0.0
H2203 H 0.59978 0.22275 0.4509 0.0
H2204 H 0.63327 0.22607 0.42827 0.0
H2205 H 0.64719 0.29472 0.42319 0.0
H2206 H 0.72848 0.29463 0.32046 0.0
H2207 H 0.69361 0.29441 0.34299 0.0
C2208 C 0.7417 0.63487 0.50184 0.0
C2209 C 0.73908 0.61388 0.49768 0.0
C2210 C 0.74961 0.64768 0.48215 0.0
C2211 C 0.75783 0.65438 0.41293 0.0
H2212 H 0.8 0.68501 0.42625 0.0
C2213 C 0.79718 0.7025 0.33305 0.0
C2214 C 0.79955 0.72319 0.33874 0.0
C2215 C 0.79226 0.68751 0.35235 0.0
C2216 C 0.78812 0.67671 0.42224 0.0
H2217 H 0.74284 0.58974 0.46968 0.0
H2218 H 0.75659 0.61212 0.43524 0.0
H2219 H 0.78522 0.66298 0.46013 0.0
H2220 H 0.79888 0.74426 0.36917 0.0
H2221 H 0.78984 0.71861 0.4025 0.0
H2222 H 0.76026 0.66847 0.37527 0.0
C2223 C 0.75215 0.61885 0.45363 0.0
C2224 C 0.77963 0.66411 0.44167 0.0
C2225 C 0.74417 0.60609 0.47332 0.0
C2226 C 0.79766 0.72829 0.3641 0.0
C2227 C 0.79242 0.71351 0.38332 0.0
C2228 C 0.76619 0.6671 0.39354 0.0
C2229 C 0.75516 0.63968 0.45791 0.0
C2230 C 0.76433 0.65289 0.43724 0.0
C2231 C 0.78923 0.69311 0.37767 0.0
C2232 C 0.78138 0.6785 0.39797 0.0
H2233 H 0.73789 0.64121 0.52046 0.0
H2234 H 0.75144 0.66381 0.48593 0.0
H2235 H 0.74588 0.64614 0.40902 0.0
H2236 H 0.79858 0.69813 0.31366 0.0
H2237 H 0.79036 0.67174 0.34736 0.0
C2238 C 0.48272 0.80803 0.52821 0.0
C2239 C 0.50256 0.81306 0.52188 0.0
C2240 C 0.47108 0.80459 0.50942 0.0
C2241 C 0.46329 0.81171 0.4429 0.0
H2242 H 0.44587 0.75643 0.45679 0.0
C2243 C 0.40485 0.7933 0.3836 0.0
C2244 C 0.38647 0.79197 0.3995 0.0
C2245 C 0.42443 0.78891 0.39352 0.0
C2246 C 0.45089 0.77172 0.45248 0.0
H2247 H 0.52484 0.82079 0.49126 0.0
H2248 H 0.50382 0.81581 0.45803 0.0
H2249 H 0.46782 0.76714 0.48516 0.0
H2250 H 0.374 0.78253 0.43694 0.0
H2251 H 0.40804 0.77475 0.45437 0.0
H2252 H 0.44535 0.817 0.41112 0.0
C2253 C 0.49753 0.81414 0.47757 0.0
C2254 C 0.46325 0.77795 0.46878 0.0
C2255 C 0.50932 0.81744 0.49651 0.0
C2256 C 0.38811 0.78374 0.42452 0.0
C2257 C 0.40764 0.77914 0.43437 0.0
C2258 C 0.45083 0.80554 0.42664 0.0
C2259 C 0.47903 0.80635 0.48399 0.0
C2260 C 0.46874 0.79845 0.46469 0.0
C2261 C 0.42569 0.78309 0.41936 0.0
C2262 C 0.44375 0.78595 0.43191 0.0
H2263 H 0.47741 0.80422 0.5477 0.0
H2264 H 0.45656 0.79913 0.51481 0.0
H2265 H 0.46746 0.8275 0.43931 0.0
H2266 H 0.40376 0.79957 0.36417 0.0
H2267 H 0.43819 0.79178 0.38151 0.0
C2268 C 0.31446 0.43814 0.44969 0.0
C2269 C 0.29889 0.45397 0.46307 0.0
C2270 C 0.30872 0.42306 0.43594 0.0
C2271 C 0.26652 0.39612 0.42652 0.0
H2272 H 0.29621 0.39019 0.35924 0.0
C2273 C 0.24954 0.35207 0.33976 0.0
C2274 C 0.26698 0.33488 0.33238 0.0
C2275 C 0.25087 0.36566 0.35875 0.0
C2276 C 0.28779 0.39175 0.37797 0.0
H2277 H 0.26506 0.46567 0.47354 0.0
H2278 H 0.25489 0.43904 0.44904 0.0
H2279 H 0.30335 0.41604 0.38673 0.0
H2280 H 0.29998 0.3199 0.33745 0.0
H2281 H 0.30249 0.34356 0.36985 0.0
H2282 H 0.25099 0.37158 0.41729 0.0
C2283 C 0.27158 0.43854 0.4493 0.0
C2284 C 0.29193 0.40641 0.39374 0.0
C2285 C 0.27736 0.45386 0.46311 0.0
C2286 C 0.28587 0.33192 0.3438 0.0
C2287 C 0.28741 0.34571 0.36216 0.0
C2288 C 0.26225 0.38146 0.41053 0.0
C2289 C 0.28725 0.42335 0.43514 0.0
C2290 C 0.28158 0.40857 0.41829 0.0
C2291 C 0.27001 0.36279 0.36963 0.0
C2292 C 0.27304 0.37909 0.38627 0.0
H2293 H 0.33124 0.43752 0.44942 0.0
H2294 H 0.32118 0.41127 0.42564 0.0
H2295 H 0.2585 0.39732 0.44544 0.0
H2296 H 0.23513 0.35534 0.33044 0.0
H2297 H 0.2374 0.3791 0.36398 0.0
C2298 C 0.4492 0.26904 0.59363 0.0
C2299 C 0.46472 0.24913 0.5896 0.0
C2300 C 0.43336 0.27044 0.61388 0.0
C2301 C 0.42148 0.24378 0.67592 0.0
H2302 H 0.36248 0.27005 0.66581 0.0
C2303 C 0.35634 0.23687 0.75582 0.0
C2304 C 0.338 0.25408 0.75798 0.0
C2305 C 0.37073 0.23587 0.73417 0.0
C2306 C 0.37887 0.26293 0.66921 0.0
H2307 H 0.47545 0.21517 0.60429 0.0
H2308 H 0.44769 0.21757 0.63898 0.0
H2309 H 0.38994 0.27055 0.63092 0.0
H2310 H 0.32062 0.28406 0.73945 0.0
H2311 H 0.34604 0.28342 0.70282 0.0
H2312 H 0.41094 0.23691 0.71422 0.0
C2313 C 0.44801 0.23215 0.62658 0.0
C2314 C 0.39461 0.26318 0.64909 0.0
C2315 C 0.46385 0.23074 0.60643 0.0
C2316 C 0.33429 0.27029 0.73812 0.0
C2317 C 0.349 0.26982 0.7169 0.0
C2318 C 0.40587 0.24389 0.69611 0.0
C2319 C 0.43265 0.252 0.63057 0.0
C2320 C 0.41603 0.25324 0.65216 0.0
C2321 C 0.36765 0.25276 0.71473 0.0
C2322 C 0.38426 0.2531 0.69302 0.0
H2323 H 0.44904 0.28359 0.58113 0.0
H2324 H 0.42179 0.28602 0.61661 0.0
H2325 H 0.43793 0.23639 0.67897 0.0
H2326 H 0.35962 0.22427 0.77099 0.0
H2327 H 0.38445 0.222 0.73299 0.0
C2328 C 0.73973 0.49162 0.66391 0.0
C2329 C 0.74429 0.4952 0.6378 0.0
C2330 C 0.74649 0.4706 0.67566 0.0
C2331 C 0.7651 0.41122 0.66264 0.0
H2332 H 0.78661 0.4063 0.72796 0.0
C2333 C 0.80083 0.32684 0.71324 0.0
C2334 C 0.79183 0.32447 0.73817 0.0
C2335 C 0.79736 0.34768 0.70033 0.0
C2336 C 0.78066 0.40746 0.7097 0.0
H2337 H 0.75882 0.47938 0.6034 0.0
H2338 H 0.77091 0.44285 0.62386 0.0
H2339 H 0.77494 0.44273 0.70674 0.0
H2340 H 0.77163 0.34205 0.76863 0.0
H2341 H 0.76629 0.37816 0.74681 0.0
H2342 H 0.77082 0.3759 0.66573 0.0
C2343 C 0.76203 0.4562 0.63532 0.0
C2344 C 0.77382 0.42831 0.69763 0.0
C2345 C 0.75527 0.4772 0.6236 0.0
C2346 C 0.77936 0.3433 0.74986 0.0
C2347 C 0.77625 0.36407 0.73727 0.0
C2348 C 0.77208 0.39037 0.67464 0.0
C2349 C 0.75793 0.45268 0.66153 0.0
C2350 C 0.76572 0.43046 0.67408 0.0
C2351 C 0.78494 0.36646 0.71226 0.0
C2352 C 0.77969 0.38832 0.69841 0.0
H2353 H 0.73148 0.50518 0.67538 0.0
H2354 H 0.74277 0.46839 0.69583 0.0
H2355 H 0.75869 0.41228 0.64468 0.0
H2356 H 0.81016 0.31253 0.70359 0.0
H2357 H 0.80419 0.3491 0.68098 0.0
C2358 C 0.30475 0.54345 0.58012 0.0
C2359 C 0.29875 0.54892 0.55566 0.0
C2360 C 0.30747 0.55976 0.59468 0.0
C2361 C 0.29782 0.6203 0.59795 0.0
H2362 H 0.34515 0.60395 0.63915 0.0
C2363 C 0.30958 0.68475 0.65322 0.0
C2364 C 0.30135 0.67919 0.67757 0.0
C2365 C 0.31928 0.66807 0.63705 0.0
C2366 C 0.33222 0.60871 0.62727 0.0
H2367 H 0.29032 0.57534 0.52719 0.0
H2368 H 0.29504 0.60401 0.55245 0.0
H2369 H 0.338 0.57641 0.61359 0.0
H2370 H 0.2992 0.65276 0.70584 0.0
H2371 H 0.31587 0.6234 0.67737 0.0
H2372 H 0.29197 0.65244 0.61165 0.0
C2373 C 0.29718 0.58732 0.56081 0.0
C2374 C 0.32782 0.59297 0.61305 0.0
C2375 C 0.29417 0.57101 0.54642 0.0
C2376 C 0.30541 0.65712 0.68691 0.0
C2377 C 0.31515 0.64042 0.67075 0.0
C2378 C 0.30249 0.63604 0.61165 0.0
C2379 C 0.30464 0.58171 0.58472 0.0
C2380 C 0.31022 0.59851 0.59874 0.0
C2381 C 0.32043 0.6459 0.64521 0.0
C2382 C 0.31942 0.63029 0.62676 0.0
H2383 H 0.30893 0.52632 0.58719 0.0
H2384 H 0.3127 0.55499 0.61326 0.0
H2385 H 0.28397 0.62507 0.58756 0.0
H2386 H 0.30666 0.70185 0.646 0.0
H2387 H 0.32336 0.67254 0.6174 0.0
loop_
_geom_bond_atom_site_label_1
_geom_bond_atom_site_label_2
_geom_bond_distance
_geom_bond_site_symmetry_2
_ccdc_geom_bond_type
Cu0 N1 1.999 . S
Cu0 O6 1.986 . S
Cu0 N11 1.983 . S
Cu0 O20 1.959 1_455 S
N1 Cu0 1.999 . S
N1 C3 1.263 . S
N1 C5 1.389 . S
N2 C3 1.358 . S
N2 C4 1.400 . S
C3 N1 1.263 . S
C3 N2 1.358 . S
C3 H9 0.930 . S
C4 N2 1.400 . S
C4 C5 1.351 . S
C4 H21 0.930 . S
C5 N1 1.389 . S
C5 C4 1.351 . S
C5 H10 0.930 . S
O6 Cu0 1.986 . S
O6 C16 1.276 1_545 S
C7 O8 1.261 . S
C7 O20 1.251 . S
O8 C7 1.261 . S
H9 C3 0.930 . S
H10 C5 0.930 . S
N11 Cu0 1.983 . S
N11 C13 1.344 1_455 S
N11 C14 1.392 1_545 S
N12 C13 1.300 1_565 S
N12 C15 1.336 . S
C13 N11 1.344 1_655 S
C13 N12 1.300 1_545 S
C13 H18 0.963 . S
C14 N11 1.392 1_565 S
C14 C15 1.346 1_455 S
C14 H19 0.930 . S
C15 N12 1.336 . S
C15 C14 1.346 1_655 S
C15 H22 0.929 . S
C16 O6 1.276 1_565 S
C16 O17 1.215 1_565 S
O17 C16 1.215 1_545 S
H18 C13 0.963 . S
H19 C14 0.930 . S
O20 Cu0 1.959 1_655 S
O20 C7 1.251 . S
H21 C4 0.930 . S
H22 C15 0.929 . S
Cu23 N24 1.999 . S
Cu23 O29 1.974 1_455 S
Cu23 N34 1.985 . S
Cu23 O43 1.959 . S
N24 Cu23 1.999 . S
N24 C26 1.263 1_455 S
N24 C28 1.389 1_545 S
N25 C26 1.358 1_565 S
N25 C27 1.400 . S
C26 N24 1.263 1_655 S
C26 N25 1.358 1_545 S
C26 H32 0.930 . S
C27 N25 1.400 . S
C27 C28 1.351 1_655 S
C27 H44 0.930 . S
C28 N24 1.389 1_565 S
C28 C27 1.351 1_455 S
C28 H33 0.930 . S
O29 Cu23 1.974 1_655 S
O29 C39 1.282 . S
C30 O31 1.261 . S
C30 O43 1.251 . S
O31 C30 1.261 . S
H32 C26 0.930 . S
H33 C28 0.930 . S
N34 Cu23 1.985 . S
N34 C36 1.335 . S
N34 C37 1.390 . S
N35 C36 1.345 . S
N35 C38 1.336 . S
C36 N34 1.335 . S
C36 N35 1.345 . S
C36 H41 0.930 . S
C37 N34 1.390 . S
C37 C38 1.346 . S
C37 H42 0.930 . S
C38 N35 1.336 . S
C38 C37 1.346 . S
C38 H45 0.929 . S
C39 O29 1.282 . S
C39 O40 1.216 . S
O40 C39 1.216 . S
H41 C36 0.930 . S
H42 C37 0.930 . S
O43 Cu23 1.959 . S
O43 C30 1.251 . S
H44 C27 0.930 . S
H45 C38 0.929 . S
Cu46 N47 1.999 . S
Cu46 O52 1.974 . S
Cu46 N57 1.985 . S
Cu46 O66 1.959 . S
N47 Cu46 1.999 . S
N47 C49 1.263 . S
N47 C51 1.389 . S
N48 C49 1.358 . S
N48 C50 1.400 . S
C49 N47 1.263 . S
C49 N48 1.358 . S
C49 H55 0.930 . S
C50 N48 1.400 . S
C50 C51 1.351 . S
C50 H67 0.930 1_554 S
C51 N47 1.389 . S
C51 C50 1.351 . S
C51 H56 0.930 . S
O52 Cu46 1.974 . S
O52 C62 1.282 . S
C53 O54 1.261 . S
C53 O66 1.251 . S
O54 C53 1.261 . S
H55 C49 0.930 . S
H56 C51 0.930 . S
N57 Cu46 1.985 . S
N57 C59 1.335 . S
N57 C60 1.390 . S
N58 C59 1.345 . S
N58 C61 1.336 . S
C59 N57 1.335 . S
C59 N58 1.345 . S
C59 H64 0.930 . S
C60 N57 1.390 . S
C60 C61 1.346 . S
C60 H65 0.930 . S
C61 N58 1.336 . S
C61 C60 1.346 . S
C61 H68 0.929 . S
C62 O52 1.282 . S
C62 O63 1.216 . S
O63 C62 1.216 . S
H64 C59 0.930 . S
H65 C60 0.930 . S
O66 Cu46 1.959 . S
O66 C53 1.251 . S
H67 C50 0.930 1_556 S
H68 C61 0.929 . S
Cu69 N70 1.999 . S
Cu69 O75 1.974 . S
Cu69 N80 1.985 . S
Cu69 O89 1.959 . S
N70 Cu69 1.999 . S
N70 C72 1.263 . S
N70 C74 1.389 . S
N71 C72 1.358 . S
N71 C73 1.400 1_554 S
C72 N70 1.263 . S
C72 N71 1.358 . S
C72 H78 0.930 . S
C73 N71 1.400 1_556 S
C73 C74 1.351 1_556 S
C73 H90 0.930 . S
C74 N70 1.389 . S
C74 C73 1.351 1_554 S
C74 H79 0.930 . S
O75 Cu69 1.974 . S
O75 C85 1.282 . S
C76 O77 1.261 . S
C76 O89 1.251 . S
O77 C76 1.261 . S
H78 C72 0.930 . S
H79 C74 0.930 . S
N80 Cu69 1.985 . S
N80 C82 1.335 1_455 S
N80 C83 1.390 . S
N81 C82 1.345 . S
N81 C84 1.336 1_655 S
C82 N80 1.335 1_655 S
C82 N81 1.345 . S
C82 H87 0.930 . S
C83 N80 1.390 . S
C83 C84 1.346 . S
C83 H88 0.930 . S
C84 N81 1.336 1_455 S
C84 C83 1.346 . S
C84 H91 0.937 . S
C85 O75 1.282 . S
C85 O86 1.216 . S
O86 C85 1.216 . S
H87 C82 0.930 . S
H88 C83 0.930 . S
O89 Cu69 1.959 . S
O89 C76 1.251 . S
H90 C73 0.930 . S
H91 C84 0.937 . S
Cu92 N93 1.999 1_554 S
Cu92 O98 1.974 . S
Cu92 N103 1.985 1_545 S
Cu92 O112 1.959 1_544 S
N93 Cu92 1.999 1_556 S
N93 C95 1.263 . S
N93 C97 1.389 . S
N94 C95 1.358 . S
N94 C96 1.400 . S
C95 N93 1.263 . S
C95 N94 1.358 . S
C95 H101 0.930 . S
C96 N94 1.400 . S
C96 C97 1.351 . S
C96 H113 0.930 . S
C97 N93 1.389 . S
C97 C96 1.351 . S
C97 H102 0.930 . S
O98 Cu92 1.974 . S
O98 C108 1.282 . S
C99 O100 1.261 . S
C99 O112 1.251 . S
O100 C99 1.261 . S
H101 C95 0.930 . S
H102 C97 0.930 . S
N103 Cu92 1.985 1_565 S
N103 C105 1.335 . S
N103 C106 1.390 . S
N104 C105 1.345 . S
N104 C107 1.336 . S
C105 N103 1.335 . S
C105 N104 1.345 . S
C105 H110 0.930 . S
C106 N103 1.390 . S
C106 C107 1.346 . S
C106 H111 0.930 . S
C107 N104 1.336 . S
C107 C106 1.346 . S
C107 H114 0.929 . S
C108 O98 1.282 . S
C108 O109 1.216 . S
O109 C108 1.216 . S
H110 C105 0.930 . S
H111 C106 0.930 . S
O112 Cu92 1.959 1_566 S
O112 C99 1.251 . S
H113 C96 0.930 . S
H114 C107 0.929 . S
Cu115 N116 1.999 1_454 S
Cu115 O121 1.974 1_455 S
Cu115 N126 1.985 . S
Cu115 O135 1.959 1_554 S
N116 Cu115 1.999 1_656 S
N116 C118 1.263 . S
N116 C120 1.389 . S
N117 C118 1.358 . S
N117 C119 1.400 . S
C118 N116 1.263 . S
C118 N117 1.358 . S
C118 H124 0.930 . S
C119 N117 1.400 . S
C119 C120 1.351 . S
C119 H136 0.930 . S
C120 N116 1.389 . S
C120 C119 1.351 . S
C120 H125 0.930 1_655 S
O121 Cu115 1.974 1_655 S
O121 C131 1.282 . S
C122 O123 1.261 . S
C122 O135 1.251 . S
O123 C122 1.261 . S
H124 C118 0.930 . S
H125 C120 0.930 1_455 S
N126 Cu115 1.985 . S
N126 C128 1.335 . S
N126 C129 1.390 . S
N127 C128 1.345 . S
N127 C130 1.336 . S
C128 N126 1.335 . S
C128 N127 1.345 . S
C128 H133 0.930 . S
C129 N126 1.390 . S
C129 C130 1.346 . S
C129 H134 0.908 1_455 S
C130 N127 1.336 . S
C130 C129 1.346 . S
C130 H137 0.929 . S
C131 O121 1.282 . S
C131 O132 1.216 . S
O132 C131 1.216 . S
H133 C128 0.930 . S
H134 C129 0.908 1_655 S
O135 Cu115 1.959 1_556 S
O135 C122 1.251 . S
H136 C119 0.930 . S
H137 C130 0.929 . S
Cu138 N139 1.999 . S
Cu138 O144 1.974 . S
Cu138 N149 1.985 . S
Cu138 O158 1.959 . S
N139 Cu138 1.999 . S
N139 C141 1.263 . S
N139 C143 1.389 . S
N140 C141 1.358 . S
N140 C142 1.400 . S
C141 N139 1.263 . S
C141 N140 1.358 . S
C141 H147 0.930 . S
C142 N140 1.400 . S
C142 C143 1.351 . S
C142 H159 0.930 . S
C143 N139 1.389 . S
C143 C142 1.351 . S
C143 H148 0.930 . S
O144 Cu138 1.974 . S
O144 C154 1.282 . S
C145 O146 1.261 . S
C145 O158 1.251 . S
O146 C145 1.261 . S
H147 C141 0.930 . S
H148 C143 0.930 . S
N149 Cu138 1.985 . S
N149 C151 1.335 . S
N149 C152 1.390 . S
N150 C151 1.345 . S
N150 C153 1.336 . S
C151 N149 1.335 . S
C151 N150 1.345 . S
C151 H156 0.930 . S
C152 N149 1.390 . S
C152 C153 1.346 . S
C152 H157 0.930 . S
C153 N150 1.336 . S
C153 C152 1.346 . S
C153 H160 0.929 . S
C154 O144 1.282 . S
C154 O155 1.216 . S
O155 C154 1.216 . S
H156 C151 0.930 . S
H157 C152 0.930 . S
O158 Cu138 1.959 . S
O158 C145 1.251 . S
H159 C142 0.930 . S
H160 C153 0.929 . S
Cu161 N162 1.999 . S
Cu161 O167 1.974 . S
Cu161 N172 1.985 . S
Cu161 O181 1.959 . S
N162 Cu161 1.999 . S
N162 C164 1.263 . S
N162 C166 1.389 . S
N163 C164 1.358 . S
N163 C165 1.400 . S
C164 N162 1.263 . S
C164 N163 1.358 . S
C164 H170 0.930 . S
C165 N163 1.400 . S
C165 C166 1.351 . S
C165 H182 0.930 . S
C166 N162 1.389 . S
C166 C165 1.351 . S
C166 H171 0.930 . S
O167 Cu161 1.974 . S
O167 C177 1.282 . S
C168 O169 1.261 . S
C168 O181 1.251 . S
O169 C168 1.261 . S
H170 C164 0.930 . S
H171 C166 0.930 . S
N172 Cu161 1.985 . S
N172 C174 1.335 . S
N172 C175 1.390 . S
N173 C174 1.345 . S
N173 C176 1.336 . S
C174 N172 1.335 . S
C174 N173 1.345 . S
C174 H179 0.930 . S
C175 N172 1.390 . S
C175 C176 1.346 . S
C175 H180 0.930 . S
C176 N173 1.336 . S
C176 C175 1.346 . S
C176 H183 0.929 . S
C177 O167 1.282 . S
C177 O178 1.216 . S
O178 C177 1.216 . S
H179 C174 0.930 . S
H180 C175 0.930 . S
O181 Cu161 1.959 . S
O181 C168 1.251 . S
H182 C165 0.930 . S
H183 C176 0.929 . S
Cu184 N185 1.999 . S
Cu184 O190 1.974 . S
Cu184 N195 1.985 . S
Cu184 O204 1.959 . S
N185 Cu184 1.999 . S
N185 C187 1.263 . S
N185 C189 1.389 . S
N186 C187 1.358 . S
N186 C188 1.400 . S
C187 N185 1.263 . S
C187 N186 1.358 . S
C187 H193 0.930 . S
C188 N186 1.400 . S
C188 C189 1.351 . S
C188 H205 0.930 . S
C189 N185 1.389 . S
C189 C188 1.351 . S
C189 H194 0.930 . S
O190 Cu184 1.974 . S
O190 C200 1.282 . S
C191 O192 1.261 . S
C191 O204 1.251 . S
O192 C191 1.261 . S
H193 C187 0.930 . S
H194 C189 0.930 . S
N195 Cu184 1.985 . S
N195 C197 1.335 . S
N195 C198 1.390 . S
N196 C197 1.345 . S
N196 C199 1.336 . S
C197 N195 1.335 . S
C197 N196 1.345 . S
C197 H202 0.930 . S
C198 N195 1.390 . S
C198 C199 1.346 . S
C198 H203 0.930 . S
C199 N196 1.336 . S
C199 C198 1.346 . S
C199 H206 0.929 . S
C200 O190 1.282 . S
C200 O201 1.216 . S
O201 C200 1.216 . S
H202 C197 0.930 . S
H203 C198 0.930 . S
O204 Cu184 1.959 . S
O204 C191 1.251 . S
H205 C188 0.930 . S
H206 C199 0.929 . S
Cu207 N208 1.999 . S
Cu207 O213 1.974 . S
Cu207 N218 1.985 . S
Cu207 O227 1.959 . S
N208 Cu207 1.999 . S
N208 C210 1.263 . S
N208 C212 1.389 . S
N209 C210 1.358 . S
N209 C211 1.400 . S
C210 N208 1.263 . S
C210 N209 1.358 . S
C210 H216 0.930 . S
C211 N209 1.400 . S
C211 C212 1.351 . S
C211 H228 0.930 . S
C212 N208 1.389 . S
C212 C211 1.351 . S
C212 H217 0.930 . S
O213 Cu207 1.974 . S
O213 C223 1.282 . S
C214 O215 1.261 . S
C214 O227 1.251 . S
O215 C214 1.261 . S
H216 C210 0.930 . S
H217 C212 0.930 . S
N218 Cu207 1.985 . S
N218 C220 1.335 . S
N218 C221 1.390 . S
N219 C220 1.345 . S
N219 C222 1.336 . S
C220 N218 1.335 . S
C220 N219 1.345 . S
C220 H225 0.930 . S
C221 N218 1.390 . S
C221 C222 1.346 . S
C221 H226 0.930 . S
C222 N219 1.336 . S
C222 C221 1.346 . S
C222 H229 0.929 . S
C223 O213 1.282 . S
C223 O224 1.216 . S
O224 C223 1.216 . S
H225 C220 0.930 . S
H226 C221 0.930 . S
O227 Cu207 1.959 . S
O227 C214 1.251 . S
H228 C211 0.930 . S
H229 C222 0.929 . S
Cu230 N231 1.999 . S
Cu230 O236 1.974 . S
Cu230 N241 1.985 . S
Cu230 O250 1.959 . S
N231 Cu230 1.999 . S
N231 C233 1.263 . S
N231 C235 1.389 . S
N232 C233 1.358 . S
N232 C234 1.400 . S
C233 N231 1.263 . S
C233 N232 1.358 . S
C233 H239 0.930 . S
C234 N232 1.400 . S
C234 C235 1.351 . S
C234 H251 0.930 . S
C235 N231 1.389 . S
C235 C234 1.351 . S
C235 H240 0.930 . S
O236 Cu230 1.974 . S
O236 C246 1.282 . S
C237 O238 1.261 . S
C237 O250 1.251 . S
O238 C237 1.261 . S
H239 C233 0.930 . S
H240 C235 0.930 . S
N241 Cu230 1.985 . S
N241 C243 1.335 . S
N241 C244 1.390 . S
N242 C243 1.345 . S
N242 C245 1.336 . S
C243 N241 1.335 . S
C243 N242 1.345 . S
C243 H248 0.930 . S
C244 N241 1.390 . S
C244 C245 1.346 . S
C244 H249 0.930 . S
C245 N242 1.336 . S
C245 C244 1.346 . S
C245 H252 0.929 . S
C246 O236 1.282 . S
C246 O247 1.216 . S
O247 C246 1.216 . S
H248 C243 0.930 . S
H249 C244 0.930 . S
O250 Cu230 1.959 . S
O250 C237 1.251 . S
H251 C234 0.930 . S
H252 C245 0.929 . S
Cu253 N254 1.999 . S
Cu253 O259 1.974 . S
Cu253 N264 1.985 . S
Cu253 O273 1.959 . S
N254 Cu253 1.999 . S
N254 C256 1.263 . S
N254 C258 1.389 . S
N255 C256 1.358 . S
N255 C257 1.400 . S
C256 N254 1.263 . S
C256 N255 1.358 . S
C256 H262 0.930 . S
C257 N255 1.400 . S
C257 C258 1.351 . S
C257 H274 0.930 . S
C258 N254 1.389 . S
C258 C257 1.351 . S
C258 H263 0.930 . S
O259 Cu253 1.974 . S
O259 C269 1.282 . S
C260 O261 1.261 . S
C260 O273 1.251 . S
O261 C260 1.261 . S
H262 C256 0.930 . S
H263 C258 0.930 . S
N264 Cu253 1.985 . S
N264 C266 1.335 . S
N264 C267 1.390 . S
N265 C266 1.345 . S
N265 C268 1.336 . S
C266 N264 1.335 . S
C266 N265 1.345 . S
C266 H271 0.930 . S
C267 N264 1.390 . S
C267 C268 1.346 . S
C267 H272 0.930 . S
C268 N265 1.336 . S
C268 C267 1.346 . S
C268 H275 0.929 . S
C269 O259 1.282 . S
C269 O270 1.216 . S
O270 C269 1.216 . S
H271 C266 0.930 . S
H272 C267 0.930 . S
O273 Cu253 1.959 . S
O273 C260 1.251 . S
H274 C257 0.930 . S
H275 C268 0.929 . S
Gd276 N307 2.661 . S
Gd276 N313 2.601 . S
Gd276 O320 2.545 . S
Gd276 O321 2.606 . S
Gd276 O323 2.429 . S
Gd276 O324 2.545 . S
Gd276 O325 2.412 . S
Gd276 O327 2.362 . S
Gd276 O328 2.324 . S
Gd276 C335 2.828 . S
Gd277 N286 2.661 . S
Gd277 N290 2.601 . S
Gd277 O321 2.362 . S
Gd277 O322 2.324 . S
Gd277 O326 2.545 . S
Gd277 O327 2.606 . S
Gd277 O329 2.429 . S
Gd277 O330 2.545 . S
Gd277 O331 2.412 . S
Gd277 C344 2.828 . S
C278 C281 1.417 . S
C278 C283 1.431 . S
C278 C284 1.412 . S
C279 C282 1.437 . S
C279 C283 1.317 . S
C279 H298 0.929 . S
C280 C281 1.426 . S
C280 C282 1.413 . S
C280 N290 1.359 . S
C281 C278 1.417 . S
C281 C280 1.426 . S
C281 N286 1.350 . S
C282 C279 1.437 . S
C282 C280 1.413 . S
C282 C292 1.391 . S
C283 C278 1.431 . S
C283 C279 1.317 . S
C283 H294 0.930 . S
C284 C278 1.412 . S
C284 C285 1.355 . S
C284 H296 0.930 . S
C285 C284 1.355 . S
C285 C287 1.402 . S
C285 H297 0.930 . S
N286 Gd277 2.661 . S
N286 C281 1.350 . S
N286 C287 1.307 . S
C287 C285 1.402 . S
C287 N286 1.307 . S
C287 H288 0.930 . S
H288 C287 0.930 . S
C289 N290 1.334 . S
C289 C291 1.394 . S
C289 H293 0.930 . S
N290 Gd277 2.601 . S
N290 C280 1.359 . S
N290 C289 1.334 . S
C291 C289 1.394 . S
C291 C292 1.359 . S
C291 H303 0.930 . S
C292 C282 1.391 . S
C292 C291 1.359 . S
C292 H304 0.929 . S
H293 C289 0.930 . S
H294 C283 0.930 . S
H295 C312 0.930 . S
H296 C284 0.930 . S
H297 C285 0.930 . S
H298 C279 0.929 . S
H299 C317 0.930 . S
H300 C308 0.930 . S
H301 C309 0.930 . S
H302 C333 0.929 . S
H303 C291 0.930 . S
H304 C292 0.929 . S
H305 C334 0.930 . S
H306 C315 0.930 . S
N307 Gd276 2.661 . S
N307 C311 1.350 . S
N307 C312 1.307 . S
C308 H300 0.930 . S
C308 C309 1.355 . S
C308 C310 1.412 . S
C309 H301 0.930 . S
C309 C308 1.355 . S
C309 C312 1.402 . S
C310 C308 1.412 . S
C310 C311 1.417 . S
C310 C334 1.431 . S
C311 N307 1.350 . S
C311 C310 1.417 . S
C311 C314 1.426 . S
C312 H295 0.930 . S
C312 N307 1.307 . S
C312 C309 1.402 . S
N313 Gd276 2.601 . S
N313 C314 1.359 . S
N313 C317 1.334 . S
C314 C311 1.426 . S
C314 N313 1.359 . S
C314 C318 1.413 . S
C315 H306 0.930 . S
C315 C316 1.359 . S
C315 C317 1.394 . S
C316 C315 1.359 . S
C316 C318 1.391 . S
C316 H319 0.929 . S
C317 H299 0.930 . S
C317 N313 1.334 . S
C317 C315 1.394 . S
C318 C314 1.413 . S
C318 C316 1.391 . S
C318 C333 1.437 . S
H319 C316 0.929 . S
O320 Gd276 2.545 . S
O320 C335 1.258 . S
O321 Gd276 2.606 . S
O321 Gd277 2.362 . S
O321 C332 1.284 . S
O322 Gd277 2.324 . S
O322 C342 1.254 . S
O323 Gd276 2.429 . S
O323 C342 1.268 . S
O324 Gd276 2.545 . S
O324 C332 1.250 . S
O325 Gd276 2.412 . S
O325 C335 1.252 . S
O326 Gd277 2.545 . S
O326 C344 1.258 . S
O327 Gd276 2.362 . S
O327 Gd277 2.606 . S
O327 C343 1.284 . S
O328 Gd276 2.324 . S
O328 C351 1.254 . S
O329 Gd277 2.429 . S
O329 C351 1.268 . S
O330 Gd277 2.545 . S
O330 C343 1.250 . S
O331 Gd277 2.412 . S
O331 C344 1.252 . S
C332 O321 1.284 . S
C332 O324 1.250 . S
C333 H302 0.929 . S
C333 C318 1.437 . S
C333 C334 1.317 . S
C334 H305 0.930 . S
C334 C310 1.431 . S
C334 C333 1.317 . S
C335 Gd276 2.828 . S
C335 O320 1.258 . S
C335 O325 1.252 . S
C335 C336 1.497 . S
C336 C335 1.497 . S
C336 C337 1.395 . S
C336 C338 1.380 . S
C337 C336 1.395 . S
C337 C340 1.398 . S
C337 H352 0.930 . S
C338 C336 1.380 . S
C338 C339 1.391 . S
C338 H353 0.930 . S
C339 C338 1.391 . S
C339 C341 1.387 . S
C340 C337 1.398 . S
C340 C341 1.380 . S
C340 H354 0.930 . S
C341 C339 1.387 . S
C341 C340 1.380 . S
C341 H355 0.930 . S
C342 O322 1.254 . S
C342 O323 1.268 . S
C343 O327 1.284 . S
C343 O330 1.250 . S
C344 Gd277 2.828 . S
C344 O326 1.258 . S
C344 O331 1.252 . S
C344 C345 1.497 . S
C345 C344 1.497 . S
C345 C346 1.395 . S
C345 C347 1.380 . S
C346 C345 1.395 . S
C346 C349 1.398 . S
C346 H356 0.930 . S
C347 C345 1.380 . S
C347 C348 1.391 . S
C347 H357 0.930 . S
C348 C347 1.391 . S
C348 C350 1.387 . S
C349 C346 1.398 . S
C349 C350 1.380 . S
C349 H358 0.930 . S
C350 C348 1.387 . S
C350 C349 1.380 . S
C350 H359 0.930 . S
C351 O328 1.254 . S
C351 O329 1.268 . S
H352 C337 0.930 . S
H353 C338 0.930 . S
H354 C340 0.930 . S
H355 C341 0.930 . S
H356 C346 0.930 . S
H357 C347 0.930 . S
H358 C349 0.930 . S
H359 C350 0.930 . S
Gd360 N391 2.661 . S
Gd360 N397 2.601 . S
Gd360 O404 2.545 . S
Gd360 O405 2.606 . S
Gd360 O407 2.429 . S
Gd360 O408 2.545 . S
Gd360 O409 2.412 . S
Gd360 O411 2.362 . S
Gd360 O412 2.324 . S
Gd360 C419 2.828 . S
Gd361 N370 2.661 . S
Gd361 N374 2.601 . S
Gd361 O405 2.362 . S
Gd361 O406 2.324 . S
Gd361 O410 2.545 . S
Gd361 O411 2.606 . S
Gd361 O413 2.429 . S
Gd361 O414 2.545 . S
Gd361 O415 2.412 . S
Gd361 C428 2.828 . S
C362 C365 1.417 . S
C362 C367 1.431 . S
C362 C368 1.412 . S
C363 C366 1.437 . S
C363 C367 1.317 . S
C363 H382 0.929 . S
C364 C365 1.426 . S
C364 C366 1.413 . S
C364 N374 1.359 . S
C365 C362 1.417 . S
C365 C364 1.426 . S
C365 N370 1.350 . S
C366 C363 1.437 . S
C366 C364 1.413 . S
C366 C376 1.391 . S
C367 C362 1.431 . S
C367 C363 1.317 . S
C367 H378 0.930 . S
C368 C362 1.412 . S
C368 C369 1.355 . S
C368 H380 0.930 . S
C369 C368 1.355 . S
C369 C371 1.402 . S
C369 H381 0.930 . S
N370 Gd361 2.661 . S
N370 C365 1.350 . S
N370 C371 1.307 . S
C371 C369 1.402 . S
C371 N370 1.307 . S
C371 H372 0.930 . S
H372 C371 0.930 . S
C373 N374 1.334 . S
C373 C375 1.394 . S
C373 H377 0.930 . S
N374 Gd361 2.601 . S
N374 C364 1.359 . S
N374 C373 1.334 . S
C375 C373 1.394 . S
C375 C376 1.359 . S
C375 H387 0.930 . S
C376 C366 1.391 . S
C376 C375 1.359 . S
C376 H388 0.929 . S
H377 C373 0.930 . S
H378 C367 0.930 . S
H379 C396 0.930 . S
H380 C368 0.930 . S
H381 C369 0.930 . S
H382 C363 0.929 . S
H383 C401 0.930 . S
H384 C392 0.930 . S
H385 C393 0.930 . S
H386 C417 0.929 . S
H387 C375 0.930 . S
H388 C376 0.929 . S
H389 C418 0.930 . S
H390 C399 0.930 . S
N391 Gd360 2.661 . S
N391 C395 1.350 . S
N391 C396 1.307 . S
C392 H384 0.930 . S
C392 C393 1.355 . S
C392 C394 1.412 . S
C393 H385 0.930 . S
C393 C392 1.355 . S
C393 C396 1.402 . S
C394 C392 1.412 . S
C394 C395 1.417 . S
C394 C418 1.431 . S
C395 N391 1.350 . S
C395 C394 1.417 . S
C395 C398 1.426 . S
C396 H379 0.930 . S
C396 N391 1.307 . S
C396 C393 1.402 . S
N397 Gd360 2.601 . S
N397 C398 1.359 . S
N397 C401 1.334 . S
C398 C395 1.426 . S
C398 N397 1.359 . S
C398 C402 1.413 . S
C399 H390 0.930 . S
C399 C400 1.359 . S
C399 C401 1.394 . S
C400 C399 1.359 . S
C400 C402 1.391 . S
C400 H403 0.929 . S
C401 H383 0.930 . S
C401 N397 1.334 . S
C401 C399 1.394 . S
C402 C398 1.413 . S
C402 C400 1.391 . S
C402 C417 1.437 . S
H403 C400 0.929 . S
O404 Gd360 2.545 . S
O404 C419 1.258 . S
O405 Gd360 2.606 . S
O405 Gd361 2.362 . S
O405 C416 1.284 . S
O406 Gd361 2.324 . S
O406 C426 1.254 . S
O407 Gd360 2.429 . S
O407 C426 1.268 . S
O408 Gd360 2.545 . S
O408 C416 1.250 . S
O409 Gd360 2.412 . S
O409 C419 1.252 . S
O410 Gd361 2.545 . S
O410 C428 1.258 . S
O411 Gd360 2.362 . S
O411 Gd361 2.606 . S
O411 C427 1.284 . S
O412 Gd360 2.324 . S
O412 C435 1.254 . S
O413 Gd361 2.429 . S
O413 C435 1.268 . S
O414 Gd361 2.545 . S
O414 C427 1.250 . S
O415 Gd361 2.412 . S
O415 C428 1.252 . S
C416 O405 1.284 . S
C416 O408 1.250 . S
C417 H386 0.929 . S
C417 C402 1.437 . S
C417 C418 1.317 . S
C418 H389 0.930 . S
C418 C394 1.431 . S
C418 C417 1.317 . S
C419 Gd360 2.828 . S
C419 O404 1.258 . S
C419 O409 1.252 . S
C419 C420 1.497 . S
C420 C419 1.497 . S
C420 C421 1.395 . S
C420 C422 1.380 . S
C421 C420 1.395 . S
C421 C424 1.398 . S
C421 H436 0.930 . S
C422 C420 1.380 . S
C422 C423 1.391 . S
C422 H437 0.930 . S
C423 C422 1.391 . S
C423 C425 1.387 . S
C424 C421 1.398 . S
C424 C425 1.380 . S
C424 H438 0.930 . S
C425 C423 1.387 . S
C425 C424 1.380 . S
C425 H439 0.930 . S
C426 O406 1.254 . S
C426 O407 1.268 . S
C427 O411 1.284 . S
C427 O414 1.250 . S
C428 Gd361 2.828 . S
C428 O410 1.258 . S
C428 O415 1.252 . S
C428 C429 1.497 . S
C429 C428 1.497 . S
C429 C430 1.395 . S
C429 C431 1.380 . S
C430 C429 1.395 . S
C430 C433 1.398 . S
C430 H440 0.930 . S
C431 C429 1.380 . S
C431 C432 1.391 . S
C431 H441 0.930 . S
C432 C431 1.391 . S
C432 C434 1.387 . S
C433 C430 1.398 . S
C433 C434 1.380 . S
C433 H442 0.930 . S
C434 C432 1.387 . S
C434 C433 1.380 . S
C434 H443 0.930 . S
C435 O412 1.254 . S
C435 O413 1.268 . S
H436 C421 0.930 . S
H437 C422 0.930 . S
H438 C424 0.930 . S
H439 C425 0.930 . S
H440 C430 0.930 . S
H441 C431 0.930 . S
H442 C433 0.930 . S
H443 C434 0.930 . S
Gd444 N475 2.661 . S
Gd444 N481 2.601 . S
Gd444 O488 2.545 . S
Gd444 O489 2.606 . S
Gd444 O491 2.429 . S
Gd444 O492 2.545 . S
Gd444 O493 2.412 . S
Gd444 O495 2.362 . S
Gd444 O496 2.324 . S
Gd444 C503 2.828 . S
Gd445 N454 2.661 . S
Gd445 N458 2.601 . S
Gd445 O489 2.362 . S
Gd445 O490 2.324 . S
Gd445 O494 2.545 . S
Gd445 O495 2.606 . S
Gd445 O497 2.429 . S
Gd445 O498 2.545 . S
Gd445 O499 2.412 . S
Gd445 C512 2.828 . S
C446 C449 1.417 . S
C446 C451 1.431 . S
C446 C452 1.412 . S
C447 C450 1.437 . S
C447 C451 1.317 . S
C447 H466 0.929 . S
C448 C449 1.426 . S
C448 C450 1.413 . S
C448 N458 1.359 . S
C449 C446 1.417 . S
C449 C448 1.426 . S
C449 N454 1.350 . S
C450 C447 1.437 . S
C450 C448 1.413 . S
C450 C460 1.391 . S
C451 C446 1.431 . S
C451 C447 1.317 . S
C451 H462 0.930 . S
C452 C446 1.412 . S
C452 C453 1.355 . S
C452 H464 0.930 . S
C453 C452 1.355 . S
C453 C455 1.402 . S
C453 H465 0.930 . S
N454 Gd445 2.661 . S
N454 C449 1.350 . S
N454 C455 1.307 . S
C455 C453 1.402 . S
C455 N454 1.307 . S
C455 H456 0.930 . S
H456 C455 0.930 . S
C457 N458 1.334 . S
C457 C459 1.394 . S
C457 H461 0.930 . S
N458 Gd445 2.601 . S
N458 C448 1.359 . S
N458 C457 1.334 . S
C459 C457 1.394 . S
C459 C460 1.359 . S
C459 H471 0.930 . S
C460 C450 1.391 . S
C460 C459 1.359 . S
C460 H472 0.929 . S
H461 C457 0.930 . S
H462 C451 0.930 . S
H463 C480 0.930 . S
H464 C452 0.930 . S
H465 C453 0.930 . S
H466 C447 0.929 . S
H467 C485 0.930 . S
H468 C476 0.930 . S
H469 C477 0.930 . S
H470 C501 0.929 . S
H471 C459 0.930 . S
H472 C460 0.929 . S
H473 C502 0.930 . S
H474 C483 0.930 . S
N475 Gd444 2.661 . S
N475 C479 1.350 . S
N475 C480 1.307 . S
C476 H468 0.930 . S
C476 C477 1.355 . S
C476 C478 1.412 . S
C477 H469 0.930 . S
C477 C476 1.355 . S
C477 C480 1.402 . S
C478 C476 1.412 . S
C478 C479 1.417 . S
C478 C502 1.431 . S
C479 N475 1.350 . S
C479 C478 1.417 . S
C479 C482 1.426 . S
C480 H463 0.930 . S
C480 N475 1.307 . S
C480 C477 1.402 . S
N481 Gd444 2.601 . S
N481 C482 1.359 . S
N481 C485 1.334 . S
C482 C479 1.426 . S
C482 N481 1.359 . S
C482 C486 1.413 . S
C483 H474 0.930 . S
C483 C484 1.359 . S
C483 C485 1.394 . S
C484 C483 1.359 . S
C484 C486 1.391 . S
C484 H487 0.929 . S
C485 H467 0.930 . S
C485 N481 1.334 . S
C485 C483 1.394 . S
C486 C482 1.413 . S
C486 C484 1.391 . S
C486 C501 1.437 . S
H487 C484 0.929 . S
O488 Gd444 2.545 . S
O488 C503 1.258 . S
O489 Gd444 2.606 . S
O489 Gd445 2.362 . S
O489 C500 1.284 . S
O490 Gd445 2.324 . S
O490 C510 1.254 . S
O491 Gd444 2.429 . S
O491 C510 1.268 . S
O492 Gd444 2.545 . S
O492 C500 1.250 . S
O493 Gd444 2.412 . S
O493 C503 1.252 . S
O494 Gd445 2.545 . S
O494 C512 1.258 . S
O495 Gd444 2.362 . S
O495 Gd445 2.606 . S
O495 C511 1.284 . S
O496 Gd444 2.324 . S
O496 C519 1.254 . S
O497 Gd445 2.429 . S
O497 C519 1.268 . S
O498 Gd445 2.545 . S
O498 C511 1.250 . S
O499 Gd445 2.412 . S
O499 C512 1.252 . S
C500 O489 1.284 . S
C500 O492 1.250 . S
C501 H470 0.929 . S
C501 C486 1.437 . S
C501 C502 1.317 . S
C502 H473 0.930 . S
C502 C478 1.431 . S
C502 C501 1.317 . S
C503 Gd444 2.828 . S
C503 O488 1.258 . S
C503 O493 1.252 . S
C503 C504 1.497 . S
C504 C503 1.497 . S
C504 C505 1.395 . S
C504 C506 1.380 . S
C505 C504 1.395 . S
C505 C508 1.398 . S
C505 H520 0.930 . S
C506 C504 1.380 . S
C506 C507 1.391 . S
C506 H521 0.930 . S
C507 C506 1.391 . S
C507 C509 1.387 . S
C508 C505 1.398 . S
C508 C509 1.380 . S
C508 H522 0.930 . S
C509 C507 1.387 . S
C509 C508 1.380 . S
C509 H523 0.930 . S
C510 O490 1.254 . S
C510 O491 1.268 . S
C511 O495 1.284 . S
C511 O498 1.250 . S
C512 Gd445 2.828 . S
C512 O494 1.258 . S
C512 O499 1.252 . S
C512 C513 1.497 . S
C513 C512 1.497 . S
C513 C514 1.395 . S
C513 C515 1.380 . S
C514 C513 1.395 . S
C514 C517 1.398 . S
C514 H524 0.930 . S
C515 C513 1.380 . S
C515 C516 1.391 . S
C515 H525 0.930 . S
C516 C515 1.391 . S
C516 C518 1.387 . S
C517 C514 1.398 . S
C517 C518 1.380 . S
C517 H526 0.930 . S
C518 C516 1.387 . S
C518 C517 1.380 . S
C518 H527 0.930 . S
C519 O496 1.254 . S
C519 O497 1.268 . S
H520 C505 0.930 . S
H521 C506 0.930 . S
H522 C508 0.930 . S
H523 C509 0.930 . S
H524 C514 0.930 . S
H525 C515 0.930 . S
H526 C517 0.930 . S
H527 C518 0.930 . S
Gd528 N559 2.661 . S
Gd528 N565 2.601 . S
Gd528 O572 2.545 . S
Gd528 O573 2.606 . S
Gd528 O575 2.429 . S
Gd528 O576 2.545 . S
Gd528 O577 2.412 . S
Gd528 O579 2.362 . S
Gd528 O580 2.324 . S
Gd528 C587 2.828 . S
Gd529 N538 2.661 . S
Gd529 N542 2.601 . S
Gd529 O573 2.362 . S
Gd529 O574 2.324 . S
Gd529 O578 2.545 . S
Gd529 O579 2.606 . S
Gd529 O581 2.429 . S
Gd529 O582 2.545 . S
Gd529 O583 2.412 . S
Gd529 C596 2.828 . S
C530 C533 1.417 . S
C530 C535 1.431 . S
C530 C536 1.412 . S
C531 C534 1.437 . S
C531 C535 1.317 . S
C531 H550 0.929 . S
C532 C533 1.426 . S
C532 C534 1.413 . S
C532 N542 1.359 . S
C533 C530 1.417 . S
C533 C532 1.426 . S
C533 N538 1.350 . S
C534 C531 1.437 . S
C534 C532 1.413 . S
C534 C544 1.391 . S
C535 C530 1.431 . S
C535 C531 1.317 . S
C535 H546 0.930 . S
C536 C530 1.412 . S
C536 C537 1.355 . S
C536 H548 0.930 . S
C537 C536 1.355 . S
C537 C539 1.402 . S
C537 H549 0.930 . S
N538 Gd529 2.661 . S
N538 C533 1.350 . S
N538 C539 1.307 . S
C539 C537 1.402 . S
C539 N538 1.307 . S
C539 H540 0.930 . S
H540 C539 0.930 . S
C541 N542 1.334 . S
C541 C543 1.394 . S
C541 H545 0.930 . S
N542 Gd529 2.601 . S
N542 C532 1.359 . S
N542 C541 1.334 . S
C543 C541 1.394 . S
C543 C544 1.359 . S
C543 H555 0.930 . S
C544 C534 1.391 . S
C544 C543 1.359 . S
C544 H556 0.929 . S
H545 C541 0.930 . S
H546 C535 0.930 . S
H547 C564 0.930 . S
H548 C536 0.930 . S
H549 C537 0.930 . S
H550 C531 0.929 . S
H551 C569 0.930 . S
H552 C560 0.930 . S
H553 C561 0.930 . S
H554 C585 0.929 . S
H555 C543 0.930 . S
H556 C544 0.929 . S
H557 C586 0.930 . S
H558 C567 0.930 . S
N559 Gd528 2.661 . S
N559 C563 1.350 . S
N559 C564 1.307 . S
C560 H552 0.930 . S
C560 C561 1.355 . S
C560 C562 1.412 . S
C561 H553 0.930 . S
C561 C560 1.355 . S
C561 C564 1.402 . S
C562 C560 1.412 . S
C562 C563 1.417 . S
C562 C586 1.431 . S
C563 N559 1.350 . S
C563 C562 1.417 . S
C563 C566 1.426 . S
C564 H547 0.930 . S
C564 N559 1.307 . S
C564 C561 1.402 . S
N565 Gd528 2.601 . S
N565 C566 1.359 . S
N565 C569 1.334 . S
C566 C563 1.426 . S
C566 N565 1.359 . S
C566 C570 1.413 . S
C567 H558 0.930 . S
C567 C568 1.359 . S
C567 C569 1.394 . S
C568 C567 1.359 . S
C568 C570 1.391 . S
C568 H571 0.929 . S
C569 H551 0.930 . S
C569 N565 1.334 . S
C569 C567 1.394 . S
C570 C566 1.413 . S
C570 C568 1.391 . S
C570 C585 1.437 . S
H571 C568 0.929 . S
O572 Gd528 2.545 . S
O572 C587 1.258 . S
O573 Gd528 2.606 . S
O573 Gd529 2.362 . S
O573 C584 1.284 . S
O574 Gd529 2.324 . S
O574 C594 1.254 . S
O575 Gd528 2.429 . S
O575 C594 1.268 . S
O576 Gd528 2.545 . S
O576 C584 1.250 . S
O577 Gd528 2.412 . S
O577 C587 1.252 . S
O578 Gd529 2.545 . S
O578 C596 1.258 . S
O579 Gd528 2.362 . S
O579 Gd529 2.606 . S
O579 C595 1.284 . S
O580 Gd528 2.324 . S
O580 C603 1.254 . S
O581 Gd529 2.429 . S
O581 C603 1.268 . S
O582 Gd529 2.545 . S
O582 C595 1.250 . S
O583 Gd529 2.412 . S
O583 C596 1.252 . S
C584 O573 1.284 . S
C584 O576 1.250 . S
C585 H554 0.929 . S
C585 C570 1.437 . S
C585 C586 1.317 . S
C586 H557 0.930 . S
C586 C562 1.431 . S
C586 C585 1.317 . S
C587 Gd528 2.828 . S
C587 O572 1.258 . S
C587 O577 1.252 . S
C587 C588 1.497 . S
C588 C587 1.497 . S
C588 C589 1.395 . S
C588 C590 1.380 . S
C589 C588 1.395 . S
C589 C592 1.398 . S
C589 H604 0.930 . S
C590 C588 1.380 . S
C590 C591 1.391 . S
C590 H605 0.930 . S
C591 C590 1.391 . S
C591 C593 1.387 . S
C592 C589 1.398 . S
C592 C593 1.380 . S
C592 H606 0.930 . S
C593 C591 1.387 . S
C593 C592 1.380 . S
C593 H607 0.930 . S
C594 O574 1.254 . S
C594 O575 1.268 . S
C595 O579 1.284 . S
C595 O582 1.250 . S
C596 Gd529 2.828 . S
C596 O578 1.258 . S
C596 O583 1.252 . S
C596 C597 1.497 . S
C597 C596 1.497 . S
C597 C598 1.395 . S
C597 C599 1.380 . S
C598 C597 1.395 . S
C598 C601 1.398 . S
C598 H608 0.930 . S
C599 C597 1.380 . S
C599 C600 1.391 . S
C599 H609 0.930 . S
C600 C599 1.391 . S
C600 C602 1.387 . S
C601 C598 1.398 . S
C601 C602 1.380 . S
C601 H610 0.930 . S
C602 C600 1.387 . S
C602 C601 1.380 . S
C602 H611 0.930 . S
C603 O580 1.254 . S
C603 O581 1.268 . S
H604 C589 0.930 . S
H605 C590 0.930 . S
H606 C592 0.930 . S
H607 C593 0.930 . S
H608 C598 0.930 . S
H609 C599 0.930 . S
H610 C601 0.930 . S
H611 C602 0.930 . S
Gd612 N643 2.661 . S
Gd612 N649 2.601 . S
Gd612 O656 2.545 . S
Gd612 O657 2.606 . S
Gd612 O659 2.429 . S
Gd612 O660 2.545 . S
Gd612 O661 2.412 . S
Gd612 O663 2.362 . S
Gd612 O664 2.324 . S
Gd612 C671 2.828 . S
Gd613 N622 2.661 . S
Gd613 N626 2.601 . S
Gd613 O657 2.362 . S
Gd613 O658 2.324 . S
Gd613 O662 2.545 . S
Gd613 O663 2.606 . S
Gd613 O665 2.429 . S
Gd613 O666 2.545 . S
Gd613 O667 2.412 . S
Gd613 C680 2.828 . S
C614 C617 1.417 . S
C614 C619 1.431 . S
C614 C620 1.412 . S
C615 C618 1.437 . S
C615 C619 1.317 . S
C615 H634 0.929 . S
C616 C617 1.426 . S
C616 C618 1.413 . S
C616 N626 1.359 . S
C617 C614 1.417 . S
C617 C616 1.426 . S
C617 N622 1.350 . S
C618 C615 1.437 . S
C618 C616 1.413 . S
C618 C628 1.391 . S
C619 C614 1.431 . S
C619 C615 1.317 . S
C619 H630 0.930 . S
C620 C614 1.412 . S
C620 C621 1.355 . S
C620 H632 0.930 . S
C621 C620 1.355 . S
C621 C623 1.402 . S
C621 H633 0.930 . S
N622 Gd613 2.661 . S
N622 C617 1.350 . S
N622 C623 1.307 . S
C623 C621 1.402 . S
C623 N622 1.307 . S
C623 H624 0.930 . S
H624 C623 0.930 . S
C625 N626 1.334 . S
C625 C627 1.394 . S
C625 H629 0.930 . S
N626 Gd613 2.601 . S
N626 C616 1.359 . S
N626 C625 1.334 . S
C627 C625 1.394 . S
C627 C628 1.359 . S
C627 H639 0.930 . S
C628 C618 1.391 . S
C628 C627 1.359 . S
C628 H640 0.929 . S
H629 C625 0.930 . S
H630 C619 0.930 . S
H631 C648 0.930 . S
H632 C620 0.930 . S
H633 C621 0.930 . S
H634 C615 0.929 . S
H635 C653 0.930 . S
H636 C644 0.930 . S
H637 C645 0.930 . S
H638 C669 0.929 . S
H639 C627 0.930 . S
H640 C628 0.929 . S
H641 C670 0.930 . S
H642 C651 0.930 . S
N643 Gd612 2.661 . S
N643 C647 1.350 . S
N643 C648 1.307 . S
C644 H636 0.930 . S
C644 C645 1.355 . S
C644 C646 1.412 . S
C645 H637 0.930 . S
C645 C644 1.355 . S
C645 C648 1.402 . S
C646 C644 1.412 . S
C646 C647 1.417 . S
C646 C670 1.431 . S
C647 N643 1.350 . S
C647 C646 1.417 . S
C647 C650 1.426 . S
C648 H631 0.930 . S
C648 N643 1.307 . S
C648 C645 1.402 . S
N649 Gd612 2.601 . S
N649 C650 1.359 . S
N649 C653 1.334 . S
C650 C647 1.426 . S
C650 N649 1.359 . S
C650 C654 1.413 . S
C651 H642 0.930 . S
C651 C652 1.359 . S
C651 C653 1.394 . S
C652 C651 1.359 . S
C652 C654 1.391 . S
C652 H655 0.929 . S
C653 H635 0.930 . S
C653 N649 1.334 . S
C653 C651 1.394 . S
C654 C650 1.413 . S
C654 C652 1.391 . S
C654 C669 1.437 . S
H655 C652 0.929 . S
O656 Gd612 2.545 . S
O656 C671 1.258 . S
O657 Gd612 2.606 . S
O657 Gd613 2.362 . S
O657 C668 1.284 . S
O658 Gd613 2.324 . S
O658 C678 1.254 . S
O659 Gd612 2.429 . S
O659 C678 1.268 . S
O660 Gd612 2.545 . S
O660 C668 1.250 . S
O661 Gd612 2.412 . S
O661 C671 1.252 . S
O662 Gd613 2.545 . S
O662 C680 1.258 . S
O663 Gd612 2.362 . S
O663 Gd613 2.606 . S
O663 C679 1.284 . S
O664 Gd612 2.324 . S
O664 C687 1.254 . S
O665 Gd613 2.429 . S
O665 C687 1.268 . S
O666 Gd613 2.545 . S
O666 C679 1.250 . S
O667 Gd613 2.412 . S
O667 C680 1.252 . S
C668 O657 1.284 . S
C668 O660 1.250 . S
C669 H638 0.929 . S
C669 C654 1.437 . S
C669 C670 1.317 . S
C670 H641 0.930 . S
C670 C646 1.431 . S
C670 C669 1.317 . S
C671 Gd612 2.828 . S
C671 O656 1.258 . S
C671 O661 1.252 . S
C671 C672 1.497 . S
C672 C671 1.497 . S
C672 C673 1.395 . S
C672 C674 1.380 . S
C673 C672 1.395 . S
C673 C676 1.398 . S
C673 H688 0.930 . S
C674 C672 1.380 . S
C674 C675 1.391 . S
C674 H689 0.930 . S
C675 C674 1.391 . S
C675 C677 1.387 . S
C676 C673 1.398 . S
C676 C677 1.380 . S
C676 H690 0.930 . S
C677 C675 1.387 . S
C677 C676 1.380 . S
C677 H691 0.930 . S
C678 O658 1.254 . S
C678 O659 1.268 . S
C679 O663 1.284 . S
C679 O666 1.250 . S
C680 Gd613 2.828 . S
C680 O662 1.258 . S
C680 O667 1.252 . S
C680 C681 1.497 . S
C681 C680 1.497 . S
C681 C682 1.395 . S
C681 C683 1.380 . S
C682 C681 1.395 . S
C682 C685 1.398 . S
C682 H692 0.930 . S
C683 C681 1.380 . S
C683 C684 1.391 . S
C683 H693 0.930 . S
C684 C683 1.391 . S
C684 C686 1.387 . S
C685 C682 1.398 . S
C685 C686 1.380 . S
C685 H694 0.930 . S
C686 C684 1.387 . S
C686 C685 1.380 . S
C686 H695 0.930 . S
C687 O664 1.254 . S
C687 O665 1.268 . S
H688 C673 0.930 . S
H689 C674 0.930 . S
H690 C676 0.930 . S
H691 C677 0.930 . S
H692 C682 0.930 . S
H693 C683 0.930 . S
H694 C685 0.930 . S
H695 C686 0.930 . S
Gd696 N727 2.661 . S
Gd696 N733 2.601 . S
Gd696 O740 2.545 . S
Gd696 O741 2.606 . S
Gd696 O743 2.429 . S
Gd696 O744 2.545 . S
Gd696 O745 2.412 . S
Gd696 O747 2.362 . S
Gd696 O748 2.324 . S
Gd696 C755 2.828 . S
Gd697 N706 2.661 . S
Gd697 N710 2.601 . S
Gd697 O741 2.362 . S
Gd697 O742 2.324 . S
Gd697 O746 2.545 . S
Gd697 O747 2.606 . S
Gd697 O749 2.429 . S
Gd697 O750 2.545 . S
Gd697 O751 2.412 . S
Gd697 C764 2.828 . S
C698 C701 1.417 . S
C698 C703 1.431 . S
C698 C704 1.412 . S
C699 C702 1.437 . S
C699 C703 1.317 . S
C699 H718 0.929 . S
C700 C701 1.426 . S
C700 C702 1.413 . S
C700 N710 1.359 . S
C701 C698 1.417 . S
C701 C700 1.426 . S
C701 N706 1.350 . S
C702 C699 1.437 . S
C702 C700 1.413 . S
C702 C712 1.391 . S
C703 C698 1.431 . S
C703 C699 1.317 . S
C703 H714 0.930 . S
C704 C698 1.412 . S
C704 C705 1.355 . S
C704 H716 0.930 . S
C705 C704 1.355 . S
C705 C707 1.402 . S
C705 H717 0.930 . S
N706 Gd697 2.661 . S
N706 C701 1.350 . S
N706 C707 1.307 . S
C707 C705 1.402 . S
C707 N706 1.307 . S
C707 H708 0.930 . S
H708 C707 0.930 . S
C709 N710 1.334 . S
C709 C711 1.394 . S
C709 H713 0.930 . S
N710 Gd697 2.601 . S
N710 C700 1.359 . S
N710 C709 1.334 . S
C711 C709 1.394 . S
C711 C712 1.359 . S
C711 H723 0.930 . S
C712 C702 1.391 . S
C712 C711 1.359 . S
C712 H724 0.929 . S
H713 C709 0.930 . S
H714 C703 0.930 . S
H715 C732 0.930 . S
H716 C704 0.930 . S
H717 C705 0.930 . S
H718 C699 0.929 . S
H719 C737 0.930 . S
H720 C728 0.930 . S
H721 C729 0.930 . S
H722 C753 0.929 . S
H723 C711 0.930 . S
H724 C712 0.929 . S
H725 C754 0.930 . S
H726 C735 0.930 . S
N727 Gd696 2.661 . S
N727 C731 1.350 . S
N727 C732 1.307 . S
C728 H720 0.930 . S
C728 C729 1.355 . S
C728 C730 1.412 . S
C729 H721 0.930 . S
C729 C728 1.355 . S
C729 C732 1.402 . S
C730 C728 1.412 . S
C730 C731 1.417 . S
C730 C754 1.431 . S
C731 N727 1.350 . S
C731 C730 1.417 . S
C731 C734 1.426 . S
C732 H715 0.930 . S
C732 N727 1.307 . S
C732 C729 1.402 . S
N733 Gd696 2.601 . S
N733 C734 1.359 . S
N733 C737 1.334 . S
C734 C731 1.426 . S
C734 N733 1.359 . S
C734 C738 1.413 . S
C735 H726 0.930 . S
C735 C736 1.359 . S
C735 C737 1.394 . S
C736 C735 1.359 . S
C736 C738 1.391 . S
C736 H739 0.929 . S
C737 H719 0.930 . S
C737 N733 1.334 . S
C737 C735 1.394 . S
C738 C734 1.413 . S
C738 C736 1.391 . S
C738 C753 1.437 . S
H739 C736 0.929 . S
O740 Gd696 2.545 . S
O740 C755 1.258 . S
O741 Gd696 2.606 . S
O741 Gd697 2.362 . S
O741 C752 1.284 . S
O742 Gd697 2.324 . S
O742 C762 1.254 . S
O743 Gd696 2.429 . S
O743 C762 1.268 . S
O744 Gd696 2.545 . S
O744 C752 1.250 . S
O745 Gd696 2.412 . S
O745 C755 1.252 . S
O746 Gd697 2.545 . S
O746 C764 1.258 . S
O747 Gd696 2.362 . S
O747 Gd697 2.606 . S
O747 C763 1.284 . S
O748 Gd696 2.324 . S
O748 C771 1.254 . S
O749 Gd697 2.429 . S
O749 C771 1.268 . S
O750 Gd697 2.545 . S
O750 C763 1.250 . S
O751 Gd697 2.412 . S
O751 C764 1.252 . S
C752 O741 1.284 . S
C752 O744 1.250 . S
C753 H722 0.929 . S
C753 C738 1.437 . S
C753 C754 1.317 . S
C754 H725 0.930 . S
C754 C730 1.431 . S
C754 C753 1.317 . S
C755 Gd696 2.828 . S
C755 O740 1.258 . S
C755 O745 1.252 . S
C755 C756 1.497 . S
C756 C755 1.497 . S
C756 C757 1.395 . S
C756 C758 1.380 . S
C757 C756 1.395 . S
C757 C760 1.398 . S
C757 H772 0.930 . S
C758 C756 1.380 . S
C758 C759 1.391 . S
C758 H773 0.930 . S
C759 C758 1.391 . S
C759 C761 1.387 . S
C760 C757 1.398 . S
C760 C761 1.380 . S
C760 H774 0.930 . S
C761 C759 1.387 . S
C761 C760 1.380 . S
C761 H775 0.930 . S
C762 O742 1.254 . S
C762 O743 1.268 . S
C763 O747 1.284 . S
C763 O750 1.250 . S
C764 Gd697 2.828 . S
C764 O746 1.258 . S
C764 O751 1.252 . S
C764 C765 1.497 . S
C765 C764 1.497 . S
C765 C766 1.395 . S
C765 C767 1.380 . S
C766 C765 1.395 . S
C766 C769 1.398 . S
C766 H776 0.930 . S
C767 C765 1.380 . S
C767 C768 1.391 . S
C767 H777 0.930 . S
C768 C767 1.391 . S
C768 C770 1.387 . S
C769 C766 1.398 . S
C769 C770 1.380 . S
C769 H778 0.930 . S
C770 C768 1.387 . S
C770 C769 1.380 . S
C770 H779 0.930 . S
C771 O748 1.254 . S
C771 O749 1.268 . S
H772 C757 0.930 . S
H773 C758 0.930 . S
H774 C760 0.930 . S
H775 C761 0.930 . S
H776 C766 0.930 . S
H777 C767 0.930 . S
H778 C769 0.930 . S
H779 C770 0.930 . S
Gd780 N811 2.661 . S
Gd780 N817 2.601 . S
Gd780 O824 2.545 . S
Gd780 O825 2.606 . S
Gd780 O827 2.429 . S
Gd780 O828 2.545 . S
Gd780 O829 2.412 . S
Gd780 O831 2.362 . S
Gd780 O832 2.324 . S
Gd780 C839 2.828 . S
Gd781 N790 2.661 . S
Gd781 N794 2.601 . S
Gd781 O825 2.362 . S
Gd781 O826 2.324 . S
Gd781 O830 2.545 . S
Gd781 O831 2.606 . S
Gd781 O833 2.429 . S
Gd781 O834 2.545 . S
Gd781 O835 2.412 . S
Gd781 C848 2.828 . S
C782 C785 1.417 . S
C782 C787 1.431 . S
C782 C788 1.412 . S
C783 C786 1.437 . S
C783 C787 1.317 . S
C783 H802 0.929 . S
C784 C785 1.426 . S
C784 C786 1.413 . S
C784 N794 1.359 . S
C785 C782 1.417 . S
C785 C784 1.426 . S
C785 N790 1.350 . S
C786 C783 1.437 . S
C786 C784 1.413 . S
C786 C796 1.391 . S
C787 C782 1.431 . S
C787 C783 1.317 . S
C787 H798 0.930 . S
C788 C782 1.412 . S
C788 C789 1.355 . S
C788 H800 0.930 . S
C789 C788 1.355 . S
C789 C791 1.402 . S
C789 H801 0.930 . S
N790 Gd781 2.661 . S
N790 C785 1.350 . S
N790 C791 1.307 . S
C791 C789 1.402 . S
C791 N790 1.307 . S
C791 H792 0.930 . S
H792 C791 0.930 . S
C793 N794 1.334 . S
C793 C795 1.394 . S
C793 H797 0.930 . S
N794 Gd781 2.601 . S
N794 C784 1.359 . S
N794 C793 1.334 . S
C795 C793 1.394 . S
C795 C796 1.359 . S
C795 H807 0.930 . S
C796 C786 1.391 . S
C796 C795 1.359 . S
C796 H808 0.929 . S
H797 C793 0.930 . S
H798 C787 0.930 . S
H799 C816 0.930 . S
H800 C788 0.930 . S
H801 C789 0.930 . S
H802 C783 0.929 . S
H803 C821 0.930 . S
H804 C812 0.930 . S
H805 C813 0.930 . S
H806 C837 0.929 . S
H807 C795 0.930 . S
H808 C796 0.929 . S
H809 C838 0.930 . S
H810 C819 0.930 . S
N811 Gd780 2.661 . S
N811 C815 1.350 . S
N811 C816 1.307 . S
C812 H804 0.930 . S
C812 C813 1.355 . S
C812 C814 1.412 . S
C813 H805 0.930 . S
C813 C812 1.355 . S
C813 C816 1.402 . S
C814 C812 1.412 . S
C814 C815 1.417 . S
C814 C838 1.431 . S
C815 N811 1.350 . S
C815 C814 1.417 . S
C815 C818 1.426 . S
C816 H799 0.930 . S
C816 N811 1.307 . S
C816 C813 1.402 . S
N817 Gd780 2.601 . S
N817 C818 1.359 . S
N817 C821 1.334 . S
C818 C815 1.426 . S
C818 N817 1.359 . S
C818 C822 1.413 . S
C819 H810 0.930 . S
C819 C820 1.359 . S
C819 C821 1.394 . S
C820 C819 1.359 . S
C820 C822 1.391 . S
C820 H823 0.929 . S
C821 H803 0.930 . S
C821 N817 1.334 . S
C821 C819 1.394 . S
C822 C818 1.413 . S
C822 C820 1.391 . S
C822 C837 1.437 . S
H823 C820 0.929 . S
O824 Gd780 2.545 . S
O824 C839 1.258 . S
O825 Gd780 2.606 . S
O825 Gd781 2.362 . S
O825 C836 1.284 . S
O826 Gd781 2.324 . S
O826 C846 1.254 . S
O827 Gd780 2.429 . S
O827 C846 1.268 . S
O828 Gd780 2.545 . S
O828 C836 1.250 . S
O829 Gd780 2.412 . S
O829 C839 1.252 . S
O830 Gd781 2.545 . S
O830 C848 1.258 . S
O831 Gd780 2.362 . S
O831 Gd781 2.606 . S
O831 C847 1.284 . S
O832 Gd780 2.324 . S
O832 C855 1.254 . S
O833 Gd781 2.429 . S
O833 C855 1.268 . S
O834 Gd781 2.545 . S
O834 C847 1.250 . S
O835 Gd781 2.412 . S
O835 C848 1.252 . S
C836 O825 1.284 . S
C836 O828 1.250 . S
C837 H806 0.929 . S
C837 C822 1.437 . S
C837 C838 1.317 . S
C838 H809 0.930 . S
C838 C814 1.431 . S
C838 C837 1.317 . S
C839 Gd780 2.828 . S
C839 O824 1.258 . S
C839 O829 1.252 . S
C839 C840 1.497 . S
C840 C839 1.497 . S
C840 C841 1.395 . S
C840 C842 1.380 . S
C841 C840 1.395 . S
C841 C844 1.398 . S
C841 H856 0.930 . S
C842 C840 1.380 . S
C842 C843 1.391 . S
C842 H857 0.930 . S
C843 C842 1.391 . S
C843 C845 1.387 . S
C844 C841 1.398 . S
C844 C845 1.380 . S
C844 H858 0.930 . S
C845 C843 1.387 . S
C845 C844 1.380 . S
C845 H859 0.930 . S
C846 O826 1.254 . S
C846 O827 1.268 . S
C847 O831 1.284 . S
C847 O834 1.250 . S
C848 Gd781 2.828 . S
C848 O830 1.258 . S
C848 O835 1.252 . S
C848 C849 1.497 . S
C849 C848 1.497 . S
C849 C850 1.395 . S
C849 C851 1.380 . S
C850 C849 1.395 . S
C850 C853 1.398 . S
C850 H860 0.930 . S
C851 C849 1.380 . S
C851 C852 1.391 . S
C851 H861 0.930 . S
C852 C851 1.391 . S
C852 C854 1.387 . S
C853 C850 1.398 . S
C853 C854 1.380 . S
C853 H862 0.930 . S
C854 C852 1.387 . S
C854 C853 1.380 . S
C854 H863 0.930 . S
C855 O832 1.254 . S
C855 O833 1.268 . S
H856 C841 0.930 . S
H857 C842 0.930 . S
H858 C844 0.930 . S
H859 C845 0.930 . S
H860 C850 0.930 . S
H861 C851 0.930 . S
H862 C853 0.930 . S
H863 C854 0.930 . S
Gd864 N895 2.661 . S
Gd864 N901 2.601 . S
Gd864 O908 2.545 . S
Gd864 O909 2.606 . S
Gd864 O911 2.429 . S
Gd864 O912 2.545 . S
Gd864 O913 2.412 . S
Gd864 O915 2.362 . S
Gd864 O916 2.324 . S
Gd864 C923 2.828 . S
Gd865 N874 2.661 . S
Gd865 N878 2.601 . S
Gd865 O909 2.362 . S
Gd865 O910 2.324 . S
Gd865 O914 2.545 . S
Gd865 O915 2.606 . S
Gd865 O917 2.429 . S
Gd865 O918 2.545 . S
Gd865 O919 2.412 . S
Gd865 C932 2.828 . S
C866 C869 1.417 . S
C866 C871 1.431 . S
C866 C872 1.412 . S
C867 C870 1.437 . S
C867 C871 1.317 . S
C867 H886 0.929 . S
C868 C869 1.426 . S
C868 C870 1.413 . S
C868 N878 1.359 . S
C869 C866 1.417 . S
C869 C868 1.426 . S
C869 N874 1.350 . S
C870 C867 1.437 . S
C870 C868 1.413 . S
C870 C880 1.391 . S
C871 C866 1.431 . S
C871 C867 1.317 . S
C871 H882 0.930 . S
C872 C866 1.412 . S
C872 C873 1.355 . S
C872 H884 0.930 . S
C873 C872 1.355 . S
C873 C875 1.402 . S
C873 H885 0.930 . S
N874 Gd865 2.661 . S
N874 C869 1.350 . S
N874 C875 1.307 . S
C875 C873 1.402 . S
C875 N874 1.307 . S
C875 H876 0.930 . S
H876 C875 0.930 . S
C877 N878 1.334 . S
C877 C879 1.394 . S
C877 H881 0.930 . S
N878 Gd865 2.601 . S
N878 C868 1.359 . S
N878 C877 1.334 . S
C879 C877 1.394 . S
C879 C880 1.359 . S
C879 H891 0.930 . S
C880 C870 1.391 . S
C880 C879 1.359 . S
C880 H892 0.929 . S
H881 C877 0.930 . S
H882 C871 0.930 . S
H883 C900 0.930 . S
H884 C872 0.930 . S
H885 C873 0.930 . S
H886 C867 0.929 . S
H887 C905 0.930 . S
H888 C896 0.930 . S
H889 C897 0.930 . S
H890 C921 0.929 . S
H891 C879 0.930 . S
H892 C880 0.929 . S
H893 C922 0.930 . S
H894 C903 0.930 . S
N895 Gd864 2.661 . S
N895 C899 1.350 . S
N895 C900 1.307 . S
C896 H888 0.930 . S
C896 C897 1.355 . S
C896 C898 1.412 . S
C897 H889 0.930 . S
C897 C896 1.355 . S
C897 C900 1.402 . S
C898 C896 1.412 . S
C898 C899 1.417 . S
C898 C922 1.431 . S
C899 N895 1.350 . S
C899 C898 1.417 . S
C899 C902 1.426 . S
C900 H883 0.930 . S
C900 N895 1.307 . S
C900 C897 1.402 . S
N901 Gd864 2.601 . S
N901 C902 1.359 . S
N901 C905 1.334 . S
C902 C899 1.426 . S
C902 N901 1.359 . S
C902 C906 1.413 . S
C903 H894 0.930 . S
C903 C904 1.359 . S
C903 C905 1.394 . S
C904 C903 1.359 . S
C904 C906 1.391 . S
C904 H907 0.929 . S
C905 H887 0.930 . S
C905 N901 1.334 . S
C905 C903 1.394 . S
C906 C902 1.413 . S
C906 C904 1.391 . S
C906 C921 1.437 . S
H907 C904 0.929 . S
O908 Gd864 2.545 . S
O908 C923 1.258 . S
O909 Gd864 2.606 . S
O909 Gd865 2.362 . S
O909 C920 1.284 . S
O910 Gd865 2.324 . S
O910 C930 1.254 . S
O911 Gd864 2.429 . S
O911 C930 1.268 . S
O912 Gd864 2.545 . S
O912 C920 1.250 . S
O913 Gd864 2.412 . S
O913 C923 1.252 . S
O914 Gd865 2.545 . S
O914 C932 1.258 . S
O915 Gd864 2.362 . S
O915 Gd865 2.606 . S
O915 C931 1.284 . S
O916 Gd864 2.324 . S
O916 C939 1.254 . S
O917 Gd865 2.429 . S
O917 C939 1.268 . S
O918 Gd865 2.545 . S
O918 C931 1.250 . S
O919 Gd865 2.412 . S
O919 C932 1.252 . S
C920 O909 1.284 . S
C920 O912 1.250 . S
C921 H890 0.929 . S
C921 C906 1.437 . S
C921 C922 1.317 . S
C922 H893 0.930 . S
C922 C898 1.431 . S
C922 C921 1.317 . S
C923 Gd864 2.828 . S
C923 O908 1.258 . S
C923 O913 1.252 . S
C923 C924 1.497 . S
C924 C923 1.497 . S
C924 C925 1.395 . S
C924 C926 1.380 . S
C925 C924 1.395 . S
C925 C928 1.398 . S
C925 H940 0.930 . S
C926 C924 1.380 . S
C926 C927 1.391 . S
C926 H941 0.930 . S
C927 C926 1.391 . S
C927 C929 1.387 . S
C928 C925 1.398 . S
C928 C929 1.380 . S
C928 H942 0.930 . S
C929 C927 1.387 . S
C929 C928 1.380 . S
C929 H943 0.930 . S
C930 O910 1.254 . S
C930 O911 1.268 . S
C931 O915 1.284 . S
C931 O918 1.250 . S
C932 Gd865 2.828 . S
C932 O914 1.258 . S
C932 O919 1.252 . S
C932 C933 1.497 . S
C933 C932 1.497 . S
C933 C934 1.395 . S
C933 C935 1.380 . S
C934 C933 1.395 . S
C934 C937 1.398 . S
C934 H944 0.930 . S
C935 C933 1.380 . S
C935 C936 1.391 . S
C935 H945 0.930 . S
C936 C935 1.391 . S
C936 C938 1.387 . S
C937 C934 1.398 . S
C937 C938 1.380 . S
C937 H946 0.930 . S
C938 C936 1.387 . S
C938 C937 1.380 . S
C938 H947 0.930 . S
C939 O916 1.254 . S
C939 O917 1.268 . S
H940 C925 0.930 . S
H941 C926 0.930 . S
H942 C928 0.930 . S
H943 C929 0.930 . S
H944 C934 0.930 . S
H945 C935 0.930 . S
H946 C937 0.930 . S
H947 C938 0.930 . S
C948 C949 1.349 . S
C948 C950 1.327 . S
C948 H973 0.950 . S
C949 C948 1.349 . S
C949 C965 1.349 . S
C950 C948 1.327 . S
C950 C969 1.429 . S
C950 H974 0.950 . S
C951 C968 1.574 . S
C951 C970 1.368 . S
C951 H975 0.949 . S
H952 C956 0.949 . S
C953 C954 1.349 . S
C953 C955 1.327 . S
C953 H976 0.950 . S
C954 C953 1.349 . S
C954 C966 1.349 . S
C955 C953 1.327 . S
C955 C971 1.429 . S
C955 H977 0.950 . S
C956 H952 0.949 . S
C956 C964 1.574 . S
C956 C972 1.368 . S
H957 C965 0.950 . S
H958 C963 0.950 . S
H959 C964 0.949 . S
H960 C966 0.950 . S
H961 C967 0.950 . S
H962 C968 0.949 . S
C963 H958 0.950 . S
C963 C965 1.327 . S
C963 C969 1.429 . S
C964 C956 1.574 . S
C964 H959 0.949 . S
C964 C970 1.368 . S
C965 C949 1.349 . S
C965 H957 0.950 . S
C965 C963 1.327 . S
C966 C954 1.349 . S
C966 H960 0.950 . S
C966 C967 1.327 . S
C967 H961 0.950 . S
C967 C966 1.327 . S
C967 C971 1.429 . S
C968 C951 1.574 . S
C968 H962 0.949 . S
C968 C972 1.368 . S
C969 C950 1.429 . S
C969 C963 1.429 . S
C969 C970 1.523 . S
C970 C951 1.368 . S
C970 C964 1.368 . S
C970 C969 1.523 . S
C971 C955 1.429 . S
C971 C967 1.429 . S
C971 C972 1.523 . S
C972 C956 1.368 . S
C972 C968 1.368 . S
C972 C971 1.523 . S
H973 C948 0.950 . S
H974 C950 0.950 . S
H975 C951 0.949 . S
H976 C953 0.950 . S
H977 C955 0.950 . S
C978 C979 1.349 . S
C978 C980 1.327 . S
C978 H1003 0.950 . S
C979 C978 1.349 . S
C979 C995 1.349 . S
C980 C978 1.327 . S
C980 C999 1.429 . S
C980 H1004 0.950 . S
C981 C998 1.574 . S
C981 C1000 1.368 . S
C981 H1005 0.949 . S
H982 C986 0.949 . S
C983 C984 1.349 . S
C983 C985 1.327 . S
C983 H1006 0.950 . S
C984 C983 1.349 . S
C984 C996 1.349 . S
C985 C983 1.327 . S
C985 C1001 1.429 . S
C985 H1007 0.950 . S
C986 H982 0.949 . S
C986 C994 1.574 . S
C986 C1002 1.368 . S
H987 C995 0.950 . S
H988 C993 0.950 . S
H989 C994 0.949 . S
H990 C996 0.950 . S
H991 C997 0.950 . S
H992 C998 0.949 . S
C993 H988 0.950 . S
C993 C995 1.327 . S
C993 C999 1.429 . S
C994 C986 1.574 . S
C994 H989 0.949 . S
C994 C1000 1.368 . S
C995 C979 1.349 . S
C995 H987 0.950 . S
C995 C993 1.327 . S
C996 C984 1.349 . S
C996 H990 0.950 . S
C996 C997 1.327 . S
C997 H991 0.950 . S
C997 C996 1.327 . S
C997 C1001 1.429 . S
C998 C981 1.574 . S
C998 H992 0.949 . S
C998 C1002 1.368 . S
C999 C980 1.429 . S
C999 C993 1.429 . S
C999 C1000 1.523 . S
C1000 C981 1.368 . S
C1000 C994 1.368 . S
C1000 C999 1.523 . S
C1001 C985 1.429 . S
C1001 C997 1.429 . S
C1001 C1002 1.523 . S
C1002 C986 1.368 . S
C1002 C998 1.368 . S
C1002 C1001 1.523 . S
H1003 C978 0.950 . S
H1004 C980 0.950 . S
H1005 C981 0.949 . S
H1006 C983 0.950 . S
H1007 C985 0.950 . S
C1008 C1009 1.349 . S
C1008 C1010 1.327 . S
C1008 H1033 0.950 . S
C1009 C1008 1.349 . S
C1009 C1025 1.349 . S
C1010 C1008 1.327 . S
C1010 C1029 1.429 . S
C1010 H1034 0.950 . S
C1011 C1028 1.574 . S
C1011 C1030 1.368 . S
C1011 H1035 0.949 . S
H1012 C1016 0.949 . S
C1013 C1014 1.349 . S
C1013 C1015 1.327 . S
C1013 H1036 0.950 . S
C1014 C1013 1.349 . S
C1014 C1026 1.349 . S
C1015 C1013 1.327 . S
C1015 C1031 1.429 . S
C1015 H1037 0.950 . S
C1016 H1012 0.949 . S
C1016 C1024 1.574 . S
C1016 C1032 1.368 . S
H1017 C1025 0.950 . S
H1018 C1023 0.950 . S
H1019 C1024 0.949 . S
H1020 C1026 0.950 . S
H1021 C1027 0.950 . S
H1022 C1028 0.949 . S
C1023 H1018 0.950 . S
C1023 C1025 1.327 . S
C1023 C1029 1.429 . S
C1024 C1016 1.574 . S
C1024 H1019 0.949 . S
C1024 C1030 1.368 . S
C1025 C1009 1.349 . S
C1025 H1017 0.950 . S
C1025 C1023 1.327 . S
C1026 C1014 1.349 . S
C1026 H1020 0.950 . S
C1026 C1027 1.327 . S
C1027 H1021 0.950 . S
C1027 C1026 1.327 . S
C1027 C1031 1.429 . S
C1028 C1011 1.574 . S
C1028 H1022 0.949 . S
C1028 C1032 1.368 . S
C1029 C1010 1.429 . S
C1029 C1023 1.429 . S
C1029 C1030 1.523 . S
C1030 C1011 1.368 . S
C1030 C1024 1.368 . S
C1030 C1029 1.523 . S
C1031 C1015 1.429 . S
C1031 C1027 1.429 . S
C1031 C1032 1.523 . S
C1032 C1016 1.368 . S
C1032 C1028 1.368 . S
C1032 C1031 1.523 . S
H1033 C1008 0.950 . S
H1034 C1010 0.950 . S
H1035 C1011 0.949 . S
H1036 C1013 0.950 . S
H1037 C1015 0.950 . S
C1038 C1039 1.349 . S
C1038 C1040 1.327 . S
C1038 H1063 0.950 . S
C1039 C1038 1.349 . S
C1039 C1055 1.349 . S
C1040 C1038 1.327 . S
C1040 C1059 1.429 . S
C1040 H1064 0.950 . S
C1041 C1058 1.574 . S
C1041 C1060 1.368 . S
C1041 H1065 0.949 . S
H1042 C1046 0.949 . S
C1043 C1044 1.349 . S
C1043 C1045 1.327 . S
C1043 H1066 0.950 . S
C1044 C1043 1.349 . S
C1044 C1056 1.349 . S
C1045 C1043 1.327 . S
C1045 C1061 1.429 . S
C1045 H1067 0.950 . S
C1046 H1042 0.949 . S
C1046 C1054 1.574 . S
C1046 C1062 1.368 . S
H1047 C1055 0.950 . S
H1048 C1053 0.950 . S
H1049 C1054 0.949 . S
H1050 C1056 0.950 . S
H1051 C1057 0.950 . S
H1052 C1058 0.949 . S
C1053 H1048 0.950 . S
C1053 C1055 1.327 . S
C1053 C1059 1.429 . S
C1054 C1046 1.574 . S
C1054 H1049 0.949 . S
C1054 C1060 1.368 . S
C1055 C1039 1.349 . S
C1055 H1047 0.950 . S
C1055 C1053 1.327 . S
C1056 C1044 1.349 . S
C1056 H1050 0.950 . S
C1056 C1057 1.327 . S
C1057 H1051 0.950 . S
C1057 C1056 1.327 . S
C1057 C1061 1.429 . S
C1058 C1041 1.574 . S
C1058 H1052 0.949 . S
C1058 C1062 1.368 . S
C1059 C1040 1.429 . S
C1059 C1053 1.429 . S
C1059 C1060 1.523 . S
C1060 C1041 1.368 . S
C1060 C1054 1.368 . S
C1060 C1059 1.523 . S
C1061 C1045 1.429 . S
C1061 C1057 1.429 . S
C1061 C1062 1.523 . S
C1062 C1046 1.368 . S
C1062 C1058 1.368 . S
C1062 C1061 1.523 . S
H1063 C1038 0.950 . S
H1064 C1040 0.950 . S
H1065 C1041 0.949 . S
H1066 C1043 0.950 . S
H1067 C1045 0.950 . S
C1068 C1069 1.349 . S
C1068 C1070 1.327 . S
C1068 H1093 0.950 . S
C1069 C1068 1.349 . S
C1069 C1085 1.349 . S
C1070 C1068 1.327 . S
C1070 C1089 1.429 . S
C1070 H1094 0.950 . S
C1071 C1088 1.574 . S
C1071 C1090 1.368 . S
C1071 H1095 0.949 . S
H1072 C1076 0.949 . S
C1073 C1074 1.349 . S
C1073 C1075 1.327 . S
C1073 H1096 0.950 . S
C1074 C1073 1.349 . S
C1074 C1086 1.349 . S
C1075 C1073 1.327 . S
C1075 C1091 1.429 . S
C1075 H1097 0.950 . S
C1076 H1072 0.949 . S
C1076 C1084 1.574 . S
C1076 C1092 1.368 . S
H1077 C1085 0.950 . S
H1078 C1083 0.950 . S
H1079 C1084 0.949 . S
H1080 C1086 0.950 . S
H1081 C1087 0.950 . S
H1082 C1088 0.949 . S
C1083 H1078 0.950 . S
C1083 C1085 1.327 . S
C1083 C1089 1.429 . S
C1084 C1076 1.574 . S
C1084 H1079 0.949 . S
C1084 C1090 1.368 . S
C1085 C1069 1.349 . S
C1085 H1077 0.950 . S
C1085 C1083 1.327 . S
C1086 C1074 1.349 . S
C1086 H1080 0.950 . S
C1086 C1087 1.327 . S
C1087 H1081 0.950 . S
C1087 C1086 1.327 . S
C1087 C1091 1.429 . S
C1088 C1071 1.574 . S
C1088 H1082 0.949 . S
C1088 C1092 1.368 . S
C1089 C1070 1.429 . S
C1089 C1083 1.429 . S
C1089 C1090 1.523 . S
C1090 C1071 1.368 . S
C1090 C1084 1.368 . S
C1090 C1089 1.523 . S
C1091 C1075 1.429 . S
C1091 C1087 1.429 . S
C1091 C1092 1.523 . S
C1092 C1076 1.368 . S
C1092 C1088 1.368 . S
C1092 C1091 1.523 . S
H1093 C1068 0.950 . S
H1094 C1070 0.950 . S
H1095 C1071 0.949 . S
H1096 C1073 0.950 . S
H1097 C1075 0.950 . S
C1098 C1099 1.349 . S
C1098 C1100 1.327 . S
C1098 H1123 0.950 . S
C1099 C1098 1.349 . S
C1099 C1115 1.349 . S
C1100 C1098 1.327 . S
C1100 C1119 1.429 . S
C1100 H1124 0.950 . S
C1101 C1118 1.574 . S
C1101 C1120 1.368 . S
C1101 H1125 0.949 . S
H1102 C1106 0.949 . S
C1103 C1104 1.349 . S
C1103 C1105 1.327 . S
C1103 H1126 0.950 . S
C1104 C1103 1.349 . S
C1104 C1116 1.349 . S
C1105 C1103 1.327 . S
C1105 C1121 1.429 . S
C1105 H1127 0.950 . S
C1106 H1102 0.949 . S
C1106 C1114 1.574 . S
C1106 C1122 1.368 . S
H1107 C1115 0.950 . S
H1108 C1113 0.950 . S
H1109 C1114 0.949 . S
H1110 C1116 0.950 . S
H1111 C1117 0.950 . S
H1112 C1118 0.949 . S
C1113 H1108 0.950 . S
C1113 C1115 1.327 . S
C1113 C1119 1.429 . S
C1114 C1106 1.574 . S
C1114 H1109 0.949 . S
C1114 C1120 1.368 . S
C1115 C1099 1.349 . S
C1115 H1107 0.950 . S
C1115 C1113 1.327 . S
C1116 C1104 1.349 . S
C1116 H1110 0.950 . S
C1116 C1117 1.327 . S
C1117 H1111 0.950 . S
C1117 C1116 1.327 . S
C1117 C1121 1.429 . S
C1118 C1101 1.574 . S
C1118 H1112 0.949 . S
C1118 C1122 1.368 . S
C1119 C1100 1.429 . S
C1119 C1113 1.429 . S
C1119 C1120 1.523 . S
C1120 C1101 1.368 . S
C1120 C1114 1.368 . S
C1120 C1119 1.523 . S
C1121 C1105 1.429 . S
C1121 C1117 1.429 . S
C1121 C1122 1.523 . S
C1122 C1106 1.368 . S
C1122 C1118 1.368 . S
C1122 C1121 1.523 . S
H1123 C1098 0.950 . S
H1124 C1100 0.950 . S
H1125 C1101 0.949 . S
H1126 C1103 0.950 . S
H1127 C1105 0.950 . S
C1128 C1129 1.349 . S
C1128 C1130 1.327 . S
C1128 H1153 0.950 . S
C1129 C1128 1.349 . S
C1129 C1145 1.349 . S
C1130 C1128 1.327 . S
C1130 C1149 1.429 . S
C1130 H1154 0.950 . S
C1131 C1148 1.574 . S
C1131 C1150 1.368 . S
C1131 H1155 0.949 . S
H1132 C1136 0.949 . S
C1133 C1134 1.349 . S
C1133 C1135 1.327 . S
C1133 H1156 0.950 . S
C1134 C1133 1.349 . S
C1134 C1146 1.349 . S
C1135 C1133 1.327 . S
C1135 C1151 1.429 . S
C1135 H1157 0.950 . S
C1136 H1132 0.949 . S
C1136 C1144 1.574 . S
C1136 C1152 1.368 . S
H1137 C1145 0.950 . S
H1138 C1143 0.950 . S
H1139 C1144 0.949 . S
H1140 C1146 0.950 . S
H1141 C1147 0.950 . S
H1142 C1148 0.949 . S
C1143 H1138 0.950 . S
C1143 C1145 1.327 . S
C1143 C1149 1.429 . S
C1144 C1136 1.574 . S
C1144 H1139 0.949 . S
C1144 C1150 1.368 . S
C1145 C1129 1.349 . S
C1145 H1137 0.950 . S
C1145 C1143 1.327 . S
C1146 C1134 1.349 . S
C1146 H1140 0.950 . S
C1146 C1147 1.327 . S
C1147 H1141 0.950 . S
C1147 C1146 1.327 . S
C1147 C1151 1.429 . S
C1148 C1131 1.574 . S
C1148 H1142 0.949 . S
C1148 C1152 1.368 . S
C1149 C1130 1.429 . S
C1149 C1143 1.429 . S
C1149 C1150 1.523 . S
C1150 C1131 1.368 . S
C1150 C1144 1.368 . S
C1150 C1149 1.523 . S
C1151 C1135 1.429 . S
C1151 C1147 1.429 . S
C1151 C1152 1.523 . S
C1152 C1136 1.368 . S
C1152 C1148 1.368 . S
C1152 C1151 1.523 . S
H1153 C1128 0.950 . S
H1154 C1130 0.950 . S
H1155 C1131 0.949 . S
H1156 C1133 0.950 . S
H1157 C1135 0.950 . S
C1158 C1159 1.349 . S
C1158 C1160 1.327 . S
C1158 H1183 0.950 . S
C1159 C1158 1.349 . S
C1159 C1175 1.349 . S
C1160 C1158 1.327 . S
C1160 C1179 1.429 . S
C1160 H1184 0.950 . S
C1161 C1178 1.574 . S
C1161 C1180 1.368 . S
C1161 H1185 0.949 . S
H1162 C1166 0.949 . S
C1163 C1164 1.349 . S
C1163 C1165 1.327 . S
C1163 H1186 0.950 . S
C1164 C1163 1.349 . S
C1164 C1176 1.349 . S
C1165 C1163 1.327 . S
C1165 C1181 1.429 . S
C1165 H1187 0.950 . S
C1166 H1162 0.949 . S
C1166 C1174 1.574 . S
C1166 C1182 1.368 . S
H1167 C1175 0.950 1_545 S
H1168 C1173 0.950 . S
H1169 C1174 0.949 . S
H1170 C1176 0.950 . S
H1171 C1177 0.950 . S
H1172 C1178 0.949 . S
C1173 H1168 0.950 . S
C1173 C1175 1.327 . S
C1173 C1179 1.429 . S
C1174 C1166 1.574 . S
C1174 H1169 0.949 . S
C1174 C1180 1.368 . S
C1175 C1159 1.349 . S
C1175 H1167 0.950 1_565 S
C1175 C1173 1.327 . S
C1176 C1164 1.349 . S
C1176 H1170 0.950 . S
C1176 C1177 1.327 . S
C1177 H1171 0.950 . S
C1177 C1176 1.327 . S
C1177 C1181 1.429 . S
C1178 C1161 1.574 . S
C1178 H1172 0.949 . S
C1178 C1182 1.368 . S
C1179 C1160 1.429 . S
C1179 C1173 1.429 . S
C1179 C1180 1.523 . S
C1180 C1161 1.368 . S
C1180 C1174 1.368 . S
C1180 C1179 1.523 . S
C1181 C1165 1.429 . S
C1181 C1177 1.429 . S
C1181 C1182 1.523 . S
C1182 C1166 1.368 . S
C1182 C1178 1.368 . S
C1182 C1181 1.523 . S
H1183 C1158 0.950 . S
H1184 C1160 0.950 . S
H1185 C1161 0.949 . S
H1186 C1163 0.950 . S
H1187 C1165 0.950 . S
C1188 C1189 1.349 . S
C1188 C1190 1.327 . S
C1188 H1213 0.950 . S
C1189 C1188 1.349 . S
C1189 C1205 1.349 . S
C1190 C1188 1.327 . S
C1190 C1209 1.429 . S
C1190 H1214 0.950 . S
C1191 C1208 1.574 . S
C1191 C1210 1.368 . S
C1191 H1215 0.949 . S
H1192 C1196 0.949 . S
C1193 C1194 1.349 . S
C1193 C1195 1.327 . S
C1193 H1216 0.950 . S
C1194 C1193 1.349 . S
C1194 C1206 1.349 . S
C1195 C1193 1.327 . S
C1195 C1211 1.429 . S
C1195 H1217 0.950 . S
C1196 H1192 0.949 . S
C1196 C1204 1.574 . S
C1196 C1212 1.368 . S
H1197 C1205 0.950 . S
H1198 C1203 0.950 . S
H1199 C1204 0.949 . S
H1200 C1206 0.950 . S
H1201 C1207 0.950 . S
H1202 C1208 0.949 . S
C1203 H1198 0.950 . S
C1203 C1205 1.327 . S
C1203 C1209 1.429 . S
C1204 C1196 1.574 . S
C1204 H1199 0.949 . S
C1204 C1210 1.368 . S
C1205 C1189 1.349 . S
C1205 H1197 0.950 . S
C1205 C1203 1.327 . S
C1206 C1194 1.349 . S
C1206 H1200 0.950 . S
C1206 C1207 1.327 . S
C1207 H1201 0.950 . S
C1207 C1206 1.327 . S
C1207 C1211 1.429 . S
C1208 C1191 1.574 . S
C1208 H1202 0.949 . S
C1208 C1212 1.368 . S
C1209 C1190 1.429 . S
C1209 C1203 1.429 . S
C1209 C1210 1.523 . S
C1210 C1191 1.368 . S
C1210 C1204 1.368 . S
C1210 C1209 1.523 . S
C1211 C1195 1.429 . S
C1211 C1207 1.429 . S
C1211 C1212 1.523 . S
C1212 C1196 1.368 . S
C1212 C1208 1.368 . S
C1212 C1211 1.523 . S
H1213 C1188 0.950 . S
H1214 C1190 0.950 . S
H1215 C1191 0.949 . S
H1216 C1193 0.950 . S
H1217 C1195 0.950 . S
C1218 C1219 1.349 . S
C1218 C1220 1.327 . S
C1218 H1243 0.950 . S
C1219 C1218 1.349 . S
C1219 C1235 1.349 . S
C1220 C1218 1.327 . S
C1220 C1239 1.429 . S
C1220 H1244 0.950 . S
C1221 C1238 1.574 . S
C1221 C1240 1.368 . S
C1221 H1245 0.949 . S
H1222 C1226 0.949 . S
C1223 C1224 1.349 . S
C1223 C1225 1.327 . S
C1223 H1246 0.950 . S
C1224 C1223 1.349 . S
C1224 C1236 1.349 . S
C1225 C1223 1.327 . S
C1225 C1241 1.429 . S
C1225 H1247 0.950 . S
C1226 H1222 0.949 . S
C1226 C1234 1.574 . S
C1226 C1242 1.368 . S
H1227 C1235 0.950 . S
H1228 C1233 0.950 . S
H1229 C1234 0.949 . S
H1230 C1236 0.950 . S
H1231 C1237 0.950 . S
H1232 C1238 0.949 . S
C1233 H1228 0.950 . S
C1233 C1235 1.327 . S
C1233 C1239 1.429 . S
C1234 C1226 1.574 . S
C1234 H1229 0.949 . S
C1234 C1240 1.368 . S
C1235 C1219 1.349 . S
C1235 H1227 0.950 . S
C1235 C1233 1.327 . S
C1236 C1224 1.349 . S
C1236 H1230 0.950 . S
C1236 C1237 1.327 . S
C1237 H1231 0.950 . S
C1237 C1236 1.327 . S
C1237 C1241 1.429 . S
C1238 C1221 1.574 . S
C1238 H1232 0.949 . S
C1238 C1242 1.368 . S
C1239 C1220 1.429 . S
C1239 C1233 1.429 . S
C1239 C1240 1.523 . S
C1240 C1221 1.368 . S
C1240 C1234 1.368 . S
C1240 C1239 1.523 . S
C1241 C1225 1.429 . S
C1241 C1237 1.429 . S
C1241 C1242 1.523 . S
C1242 C1226 1.368 . S
C1242 C1238 1.368 . S
C1242 C1241 1.523 . S
H1243 C1218 0.950 . S
H1244 C1220 0.950 . S
H1245 C1221 0.949 . S
H1246 C1223 0.950 . S
H1247 C1225 0.950 . S
C1248 C1249 1.349 . S
C1248 C1250 1.327 . S
C1248 H1273 0.950 . S
C1249 C1248 1.349 . S
C1249 C1265 1.349 . S
C1250 C1248 1.327 . S
C1250 C1269 1.429 . S
C1250 H1274 0.950 . S
C1251 C1268 1.574 . S
C1251 C1270 1.368 . S
C1251 H1275 0.949 . S
H1252 C1256 0.949 . S
C1253 C1254 1.349 . S
C1253 C1255 1.327 . S
C1253 H1276 0.950 . S
C1254 C1253 1.349 . S
C1254 C1266 1.349 . S
C1255 C1253 1.327 . S
C1255 C1271 1.429 . S
C1255 H1277 0.950 . S
C1256 H1252 0.949 . S
C1256 C1264 1.574 . S
C1256 C1272 1.368 . S
H1257 C1265 0.950 . S
H1258 C1263 0.950 . S
H1259 C1264 0.949 . S
H1260 C1266 0.950 . S
H1261 C1267 0.950 . S
H1262 C1268 0.949 . S
C1263 H1258 0.950 . S
C1263 C1265 1.327 . S
C1263 C1269 1.429 . S
C1264 C1256 1.574 . S
C1264 H1259 0.949 . S
C1264 C1270 1.368 . S
C1265 C1249 1.349 . S
C1265 H1257 0.950 . S
C1265 C1263 1.327 . S
C1266 C1254 1.349 . S
C1266 H1260 0.950 . S
C1266 C1267 1.327 . S
C1267 H1261 0.950 . S
C1267 C1266 1.327 . S
C1267 C1271 1.429 . S
C1268 C1251 1.574 . S
C1268 H1262 0.949 . S
C1268 C1272 1.368 . S
C1269 C1250 1.429 . S
C1269 C1263 1.429 . S
C1269 C1270 1.523 . S
C1270 C1251 1.368 . S
C1270 C1264 1.368 . S
C1270 C1269 1.523 . S
C1271 C1255 1.429 . S
C1271 C1267 1.429 . S
C1271 C1272 1.523 . S
C1272 C1256 1.368 . S
C1272 C1268 1.368 . S
C1272 C1271 1.523 . S
H1273 C1248 0.950 . S
H1274 C1250 0.950 . S
H1275 C1251 0.949 . S
H1276 C1253 0.950 . S
H1277 C1255 0.950 . S
C1278 C1279 1.349 . S
C1278 C1280 1.327 . S
C1278 H1303 0.950 . S
C1279 C1278 1.349 . S
C1279 C1295 1.349 . S
C1280 C1278 1.327 . S
C1280 C1299 1.429 . S
C1280 H1304 0.950 . S
C1281 C1298 1.574 . S
C1281 C1300 1.368 . S
C1281 H1305 0.949 . S
H1282 C1286 0.949 . S
C1283 C1284 1.349 . S
C1283 C1285 1.327 . S
C1283 H1306 0.950 . S
C1284 C1283 1.349 . S
C1284 C1296 1.349 . S
C1285 C1283 1.327 . S
C1285 C1301 1.429 . S
C1285 H1307 0.950 . S
C1286 H1282 0.949 . S
C1286 C1294 1.574 . S
C1286 C1302 1.368 . S
H1287 C1295 0.950 . S
H1288 C1293 0.950 . S
H1289 C1294 0.949 . S
H1290 C1296 0.950 . S
H1291 C1297 0.950 . S
H1292 C1298 0.949 . S
C1293 H1288 0.950 . S
C1293 C1295 1.327 . S
C1293 C1299 1.429 . S
C1294 C1286 1.574 . S
C1294 H1289 0.949 . S
C1294 C1300 1.368 . S
C1295 C1279 1.349 . S
C1295 H1287 0.950 . S
C1295 C1293 1.327 . S
C1296 C1284 1.349 . S
C1296 H1290 0.950 . S
C1296 C1297 1.327 . S
C1297 H1291 0.950 . S
C1297 C1296 1.327 . S
C1297 C1301 1.429 . S
C1298 C1281 1.574 . S
C1298 H1292 0.949 . S
C1298 C1302 1.368 . S
C1299 C1280 1.429 . S
C1299 C1293 1.429 . S
C1299 C1300 1.523 . S
C1300 C1281 1.368 . S
C1300 C1294 1.368 . S
C1300 C1299 1.523 . S
C1301 C1285 1.429 . S
C1301 C1297 1.429 . S
C1301 C1302 1.523 . S
C1302 C1286 1.368 . S
C1302 C1298 1.368 . S
C1302 C1301 1.523 . S
H1303 C1278 0.950 . S
H1304 C1280 0.950 . S
H1305 C1281 0.949 . S
H1306 C1283 0.950 . S
H1307 C1285 0.950 . S
C1308 C1309 1.349 1_546 S
C1308 C1310 1.327 1_545 S
C1308 H1333 0.950 . S
C1309 C1308 1.349 1_564 S
C1309 C1325 1.349 . S
C1310 C1308 1.327 1_565 S
C1310 C1329 1.429 . S
C1310 H1334 0.950 . S
C1311 C1328 1.574 . S
C1311 C1330 1.368 . S
C1311 H1335 0.963 . S
H1312 C1316 0.949 . S
C1313 C1314 1.349 . S
C1313 C1315 1.327 . S
C1313 H1336 0.950 . S
C1314 C1313 1.349 . S
C1314 C1326 1.349 . S
C1315 C1313 1.327 . S
C1315 C1331 1.429 . S
C1315 H1337 0.950 . S
C1316 H1312 0.949 . S
C1316 C1324 1.574 . S
C1316 C1332 1.368 . S
H1317 C1325 0.950 . S
H1318 C1323 0.950 . S
H1319 C1324 0.949 . S
H1320 C1326 0.950 . S
H1321 C1327 0.950 . S
H1322 C1328 0.949 . S
C1323 H1318 0.950 . S
C1323 C1325 1.327 . S
C1323 C1329 1.429 1_554 S
C1324 C1316 1.574 . S
C1324 H1319 0.949 . S
C1324 C1330 1.368 . S
C1325 C1309 1.349 . S
C1325 H1317 0.950 . S
C1325 C1323 1.327 . S
C1326 C1314 1.349 . S
C1326 H1320 0.950 . S
C1326 C1327 1.327 . S
C1327 H1321 0.950 . S
C1327 C1326 1.327 . S
C1327 C1331 1.429 . S
C1328 C1311 1.574 . S
C1328 H1322 0.949 . S
C1328 C1332 1.368 . S
C1329 C1310 1.429 . S
C1329 C1323 1.429 1_556 S
C1329 C1330 1.523 . S
C1330 C1311 1.368 . S
C1330 C1324 1.368 . S
C1330 C1329 1.523 . S
C1331 C1315 1.429 . S
C1331 C1327 1.429 . S
C1331 C1332 1.523 . S
C1332 C1316 1.368 . S
C1332 C1328 1.368 . S
C1332 C1331 1.523 . S
H1333 C1308 0.950 . S
H1334 C1310 0.950 . S
H1335 C1311 0.963 . S
H1336 C1313 0.950 . S
H1337 C1315 0.950 . S
C1338 C1339 1.349 . S
C1338 C1340 1.327 . S
C1338 H1363 0.950 . S
C1339 C1338 1.349 . S
C1339 C1355 1.349 . S
C1340 C1338 1.327 . S
C1340 C1359 1.429 . S
C1340 H1364 0.950 . S
C1341 C1358 1.574 . S
C1341 C1360 1.368 . S
C1341 H1365 0.949 . S
H1342 C1346 0.949 . S
C1343 C1344 1.349 . S
C1343 C1345 1.327 . S
C1343 H1366 0.950 . S
C1344 C1343 1.349 . S
C1344 C1356 1.349 . S
C1345 C1343 1.327 . S
C1345 C1361 1.429 . S
C1345 H1367 0.950 . S
C1346 H1342 0.949 . S
C1346 C1354 1.574 . S
C1346 C1362 1.368 . S
H1347 C1355 0.950 1_554 S
H1348 C1353 0.950 . S
H1349 C1354 0.949 . S
H1350 C1356 0.950 . S
H1351 C1357 0.950 . S
H1352 C1358 0.949 . S
C1353 H1348 0.950 . S
C1353 C1355 1.327 . S
C1353 C1359 1.429 . S
C1354 C1346 1.574 . S
C1354 H1349 0.949 . S
C1354 C1360 1.368 . S
C1355 C1339 1.349 . S
C1355 H1347 0.950 1_556 S
C1355 C1353 1.327 . S
C1356 C1344 1.349 . S
C1356 H1350 0.950 . S
C1356 C1357 1.327 . S
C1357 H1351 0.950 . S
C1357 C1356 1.327 . S
C1357 C1361 1.429 . S
C1358 C1341 1.574 . S
C1358 H1352 0.949 . S
C1358 C1362 1.368 . S
C1359 C1340 1.429 . S
C1359 C1353 1.429 . S
C1359 C1360 1.523 . S
C1360 C1341 1.368 . S
C1360 C1354 1.368 . S
C1360 C1359 1.523 . S
C1361 C1345 1.429 . S
C1361 C1357 1.429 . S
C1361 C1362 1.523 . S
C1362 C1346 1.368 . S
C1362 C1358 1.368 . S
C1362 C1361 1.523 . S
H1363 C1338 0.950 . S
H1364 C1340 0.950 . S
H1365 C1341 0.949 . S
H1366 C1343 0.950 . S
H1367 C1345 0.950 . S
C1368 C1369 1.349 . S
C1368 C1370 1.327 . S
C1368 H1393 0.950 . S
C1369 C1368 1.349 . S
C1369 C1385 1.349 . S
C1370 C1368 1.327 . S
C1370 C1389 1.429 . S
C1370 H1394 0.950 . S
C1371 C1388 1.574 . S
C1371 C1390 1.368 . S
C1371 H1395 0.949 . S
H1372 C1376 0.949 . S
C1373 C1374 1.349 . S
C1373 C1375 1.327 . S
C1373 H1396 0.950 . S
C1374 C1373 1.349 . S
C1374 C1386 1.349 . S
C1375 C1373 1.327 . S
C1375 C1391 1.429 . S
C1375 H1397 0.950 . S
C1376 H1372 0.949 . S
C1376 C1384 1.574 . S
C1376 C1392 1.368 . S
H1377 C1385 0.950 . S
H1378 C1383 0.950 . S
H1379 C1384 0.949 . S
H1380 C1386 0.950 . S
H1381 C1387 0.950 . S
H1382 C1388 0.949 . S
C1383 H1378 0.950 . S
C1383 C1385 1.327 . S
C1383 C1389 1.429 . S
C1384 C1376 1.574 . S
C1384 H1379 0.949 . S
C1384 C1390 1.368 . S
C1385 C1369 1.349 . S
C1385 H1377 0.950 . S
C1385 C1383 1.327 . S
C1386 C1374 1.349 . S
C1386 H1380 0.950 . S
C1386 C1387 1.327 . S
C1387 H1381 0.950 . S
C1387 C1386 1.327 . S
C1387 C1391 1.429 . S
C1388 C1371 1.574 . S
C1388 H1382 0.949 . S
C1388 C1392 1.368 . S
C1389 C1370 1.429 . S
C1389 C1383 1.429 . S
C1389 C1390 1.523 . S
C1390 C1371 1.368 . S
C1390 C1384 1.368 . S
C1390 C1389 1.523 . S
C1391 C1375 1.429 . S
C1391 C1387 1.429 . S
C1391 C1392 1.523 . S
C1392 C1376 1.368 . S
C1392 C1388 1.368 . S
C1392 C1391 1.523 . S
H1393 C1368 0.950 . S
H1394 C1370 0.950 . S
H1395 C1371 0.949 . S
H1396 C1373 0.950 . S
H1397 C1375 0.950 . S
C1398 C1399 1.349 . S
C1398 C1400 1.327 . S
C1398 H1423 0.950 . S
C1399 C1398 1.349 . S
C1399 C1415 1.349 . S
C1400 C1398 1.327 . S
C1400 C1419 1.429 . S
C1400 H1424 0.950 . S
C1401 C1418 1.574 . S
C1401 C1420 1.368 . S
C1401 H1425 0.949 . S
H1402 C1406 0.949 . S
C1403 C1404 1.349 . S
C1403 C1405 1.327 . S
C1403 H1426 0.950 . S
C1404 C1403 1.349 . S
C1404 C1416 1.349 . S
C1405 C1403 1.327 . S
C1405 C1421 1.429 . S
C1405 H1427 0.950 . S
C1406 H1402 0.949 . S
C1406 C1414 1.574 . S
C1406 C1422 1.368 . S
H1407 C1415 0.950 . S
H1408 C1413 0.950 . S
H1409 C1414 0.949 . S
H1410 C1416 0.950 . S
H1411 C1417 0.950 . S
H1412 C1418 0.949 . S
C1413 H1408 0.950 . S
C1413 C1415 1.327 . S
C1413 C1419 1.429 . S
C1414 C1406 1.574 . S
C1414 H1409 0.949 . S
C1414 C1420 1.368 . S
C1415 C1399 1.349 . S
C1415 H1407 0.950 . S
C1415 C1413 1.327 . S
C1416 C1404 1.349 . S
C1416 H1410 0.950 . S
C1416 C1417 1.327 . S
C1417 H1411 0.950 . S
C1417 C1416 1.327 . S
C1417 C1421 1.429 . S
C1418 C1401 1.574 . S
C1418 H1412 0.949 . S
C1418 C1422 1.368 . S
C1419 C1400 1.429 . S
C1419 C1413 1.429 . S
C1419 C1420 1.523 . S
C1420 C1401 1.368 . S
C1420 C1414 1.368 . S
C1420 C1419 1.523 . S
C1421 C1405 1.429 . S
C1421 C1417 1.429 . S
C1421 C1422 1.523 . S
C1422 C1406 1.368 . S
C1422 C1418 1.368 . S
C1422 C1421 1.523 . S
H1423 C1398 0.950 . S
H1424 C1400 0.950 . S
H1425 C1401 0.949 . S
H1426 C1403 0.950 . S
H1427 C1405 0.950 . S
C1428 C1429 1.349 . S
C1428 C1430 1.327 . S
C1428 H1453 0.950 . S
C1429 C1428 1.349 . S
C1429 C1445 1.349 . S
C1430 C1428 1.327 . S
C1430 C1449 1.429 . S
C1430 H1454 0.950 . S
C1431 C1448 1.574 . S
C1431 C1450 1.368 . S
C1431 H1455 0.949 . S
H1432 C1436 0.949 . S
C1433 C1434 1.349 . S
C1433 C1435 1.327 . S
C1433 H1456 0.950 . S
C1434 C1433 1.349 . S
C1434 C1446 1.349 . S
C1435 C1433 1.327 . S
C1435 C1451 1.429 . S
C1435 H1457 0.950 . S
C1436 H1432 0.949 . S
C1436 C1444 1.574 . S
C1436 C1452 1.368 . S
H1437 C1445 0.950 . S
H1438 C1443 0.950 . S
H1439 C1444 0.949 . S
H1440 C1446 0.950 . S
H1441 C1447 0.950 . S
H1442 C1448 0.949 . S
C1443 H1438 0.950 . S
C1443 C1445 1.327 . S
C1443 C1449 1.429 . S
C1444 C1436 1.574 . S
C1444 H1439 0.949 . S
C1444 C1450 1.368 . S
C1445 C1429 1.349 . S
C1445 H1437 0.950 . S
C1445 C1443 1.327 . S
C1446 C1434 1.349 . S
C1446 H1440 0.950 . S
C1446 C1447 1.327 . S
C1447 H1441 0.950 . S
C1447 C1446 1.327 . S
C1447 C1451 1.429 . S
C1448 C1431 1.574 . S
C1448 H1442 0.949 . S
C1448 C1452 1.368 . S
C1449 C1430 1.429 . S
C1449 C1443 1.429 . S
C1449 C1450 1.523 . S
C1450 C1431 1.368 . S
C1450 C1444 1.368 . S
C1450 C1449 1.523 . S
C1451 C1435 1.429 . S
C1451 C1447 1.429 . S
C1451 C1452 1.523 . S
C1452 C1436 1.368 . S
C1452 C1448 1.368 . S
C1452 C1451 1.523 . S
H1453 C1428 0.950 . S
H1454 C1430 0.950 . S
H1455 C1431 0.949 . S
H1456 C1433 0.950 . S
H1457 C1435 0.950 . S
C1458 C1459 1.349 . S
C1458 C1460 1.327 . S
C1458 H1483 0.950 . S
C1459 C1458 1.349 . S
C1459 C1475 1.349 . S
C1460 C1458 1.327 . S
C1460 C1479 1.429 . S
C1460 H1484 0.950 . S
C1461 C1478 1.574 . S
C1461 C1480 1.368 . S
C1461 H1485 0.949 . S
H1462 C1466 0.949 . S
C1463 C1464 1.349 . S
C1463 C1465 1.327 . S
C1463 H1486 0.950 . S
C1464 C1463 1.349 . S
C1464 C1476 1.349 . S
C1465 C1463 1.327 . S
C1465 C1481 1.429 . S
C1465 H1487 0.950 . S
C1466 H1462 0.949 . S
C1466 C1474 1.574 . S
C1466 C1482 1.368 . S
H1467 C1475 0.950 . S
H1468 C1473 0.950 . S
H1469 C1474 0.949 . S
H1470 C1476 0.950 . S
H1471 C1477 0.950 . S
H1472 C1478 0.949 . S
C1473 H1468 0.950 . S
C1473 C1475 1.327 . S
C1473 C1479 1.429 . S
C1474 C1466 1.574 . S
C1474 H1469 0.949 . S
C1474 C1480 1.368 . S
C1475 C1459 1.349 . S
C1475 H1467 0.950 . S
C1475 C1473 1.327 . S
C1476 C1464 1.349 . S
C1476 H1470 0.950 . S
C1476 C1477 1.327 . S
C1477 H1471 0.950 . S
C1477 C1476 1.327 . S
C1477 C1481 1.429 . S
C1478 C1461 1.574 . S
C1478 H1472 0.949 . S
C1478 C1482 1.368 . S
C1479 C1460 1.429 . S
C1479 C1473 1.429 . S
C1479 C1480 1.523 . S
C1480 C1461 1.368 . S
C1480 C1474 1.368 . S
C1480 C1479 1.523 . S
C1481 C1465 1.429 . S
C1481 C1477 1.429 . S
C1481 C1482 1.523 . S
C1482 C1466 1.368 . S
C1482 C1478 1.368 . S
C1482 C1481 1.523 . S
H1483 C1458 0.950 . S
H1484 C1460 0.950 . S
H1485 C1461 0.949 . S
H1486 C1463 0.950 . S
H1487 C1465 0.950 . S
C1488 C1489 1.349 . S
C1488 C1490 1.347 . S
C1488 H1513 0.950 . S
C1489 C1488 1.349 . S
C1489 C1505 1.349 1_554 S
C1490 C1488 1.347 . S
C1490 C1509 1.403 1_554 S
C1490 H1514 0.956 . S
C1491 C1508 1.574 . S
C1491 C1510 1.368 . S
C1491 H1515 0.949 . S
H1492 C1496 0.949 . S
C1493 C1494 1.349 . S
C1493 C1495 1.327 . S
C1493 H1516 0.950 . S
C1494 C1493 1.349 . S
C1494 C1506 1.349 . S
C1495 C1493 1.327 . S
C1495 C1511 1.429 . S
C1495 H1517 0.950 . S
C1496 H1492 0.949 . S
C1496 C1504 1.574 . S
C1496 C1512 1.368 . S
H1497 C1505 0.950 . S
H1498 C1503 0.950 . S
H1499 C1504 0.949 . S
H1500 C1506 0.950 . S
H1501 C1507 0.950 . S
H1502 C1508 0.949 . S
C1503 H1498 0.950 . S
C1503 C1505 1.327 . S
C1503 C1509 1.429 . S
C1504 C1496 1.574 . S
C1504 H1499 0.949 . S
C1504 C1510 1.368 . S
C1505 C1489 1.349 1_556 S
C1505 H1497 0.950 . S
C1505 C1503 1.327 . S
C1506 C1494 1.349 . S
C1506 H1500 0.950 . S
C1506 C1507 1.327 . S
C1507 H1501 0.950 . S
C1507 C1506 1.327 . S
C1507 C1511 1.429 . S
C1508 C1491 1.574 . S
C1508 H1502 0.949 . S
C1508 C1512 1.368 . S
C1509 C1490 1.403 1_556 S
C1509 C1503 1.429 . S
C1509 C1510 1.523 . S
C1510 C1491 1.368 . S
C1510 C1504 1.368 . S
C1510 C1509 1.523 . S
C1511 C1495 1.429 . S
C1511 C1507 1.429 . S
C1511 C1512 1.523 . S
C1512 C1496 1.368 . S
C1512 C1508 1.368 . S
C1512 C1511 1.523 . S
H1513 C1488 0.950 . S
H1514 C1490 0.956 . S
H1515 C1491 0.949 . S
H1516 C1493 0.950 . S
H1517 C1495 0.950 . S
C1518 C1519 1.349 1_556 S
C1518 C1520 1.327 . S
C1518 H1543 0.950 1_655 S
C1519 C1518 1.349 1_554 S
C1519 C1535 1.349 . S
C1520 C1518 1.327 . S
C1520 C1539 1.429 . S
C1520 H1544 0.950 . S
C1521 C1538 1.574 . S
C1521 C1540 1.368 . S
C1521 H1545 0.949 . S
H1522 C1526 0.949 . S
C1523 C1524 1.349 . S
C1523 C1525 1.327 . S
C1523 H1546 0.950 . S
C1524 C1523 1.349 . S
C1524 C1536 1.349 . S
C1525 C1523 1.327 . S
C1525 C1541 1.429 . S
C1525 H1547 0.950 . S
C1526 H1522 0.949 . S
C1526 C1534 1.574 . S
C1526 C1542 1.368 . S
H1527 C1535 0.950 . S
H1528 C1533 0.950 . S
H1529 C1534 0.949 . S
H1530 C1536 0.950 . S
H1531 C1537 0.950 . S
H1532 C1538 0.949 . S
C1533 H1528 0.950 . S
C1533 C1535 1.327 . S
C1533 C1539 1.429 1_554 S
C1534 C1526 1.574 . S
C1534 H1529 0.949 . S
C1534 C1540 1.368 . S
C1535 C1519 1.349 . S
C1535 H1527 0.950 . S
C1535 C1533 1.327 . S
C1536 C1524 1.349 . S
C1536 H1530 0.950 . S
C1536 C1537 1.327 . S
C1537 H1531 0.950 . S
C1537 C1536 1.327 . S
C1537 C1541 1.429 . S
C1538 C1521 1.574 . S
C1538 H1532 0.949 . S
C1538 C1542 1.368 . S
C1539 C1520 1.429 . S
C1539 C1533 1.429 1_556 S
C1539 C1540 1.523 . S
C1540 C1521 1.368 . S
C1540 C1534 1.368 . S
C1540 C1539 1.523 . S
C1541 C1525 1.429 . S
C1541 C1537 1.429 . S
C1541 C1542 1.523 . S
C1542 C1526 1.368 . S
C1542 C1538 1.368 . S
C1542 C1541 1.523 . S
H1543 C1518 0.950 1_455 S
H1544 C1520 0.950 . S
H1545 C1521 0.949 . S
H1546 C1523 0.950 . S
H1547 C1525 0.950 . S
C1548 C1549 1.349 . S
C1548 C1550 1.327 . S
C1548 H1573 0.950 . S
C1549 C1548 1.349 . S
C1549 C1565 1.349 . S
C1550 C1548 1.327 . S
C1550 C1569 1.429 . S
C1550 H1574 0.950 . S
C1551 C1568 1.574 . S
C1551 C1570 1.368 . S
C1551 H1575 0.949 . S
H1552 C1556 0.949 . S
C1553 C1554 1.349 . S
C1553 C1555 1.327 . S
C1553 H1576 0.950 . S
C1554 C1553 1.349 . S
C1554 C1566 1.349 . S
C1555 C1553 1.327 . S
C1555 C1571 1.429 . S
C1555 H1577 0.950 . S
C1556 H1552 0.949 . S
C1556 C1564 1.574 . S
C1556 C1572 1.368 . S
H1557 C1565 0.950 . S
H1558 C1563 0.950 . S
H1559 C1564 0.949 . S
H1560 C1566 0.950 . S
H1561 C1567 0.950 . S
H1562 C1568 0.949 . S
C1563 H1558 0.950 . S
C1563 C1565 1.327 . S
C1563 C1569 1.429 . S
C1564 C1556 1.574 . S
C1564 H1559 0.949 . S
C1564 C1570 1.368 . S
C1565 C1549 1.349 . S
C1565 H1557 0.950 . S
C1565 C1563 1.327 . S
C1566 C1554 1.349 . S
C1566 H1560 0.950 . S
C1566 C1567 1.327 . S
C1567 H1561 0.950 . S
C1567 C1566 1.327 . S
C1567 C1571 1.429 . S
C1568 C1551 1.574 . S
C1568 H1562 0.949 . S
C1568 C1572 1.368 . S
C1569 C1550 1.429 . S
C1569 C1563 1.429 . S
C1569 C1570 1.523 . S
C1570 C1551 1.368 . S
C1570 C1564 1.368 . S
C1570 C1569 1.523 . S
C1571 C1555 1.429 . S
C1571 C1567 1.429 . S
C1571 C1572 1.523 . S
C1572 C1556 1.368 . S
C1572 C1568 1.368 . S
C1572 C1571 1.523 . S
H1573 C1548 0.950 . S
H1574 C1550 0.950 . S
H1575 C1551 0.949 . S
H1576 C1553 0.950 . S
H1577 C1555 0.950 . S
C1578 C1579 1.349 . S
C1578 C1580 1.327 . S
C1578 H1603 0.950 . S
C1579 C1578 1.349 . S
C1579 C1595 1.349 . S
C1580 C1578 1.327 . S
C1580 C1599 1.429 . S
C1580 H1604 0.950 . S
C1581 C1598 1.574 . S
C1581 C1600 1.368 . S
C1581 H1605 0.949 . S
H1582 C1586 0.949 . S
C1583 C1584 1.349 . S
C1583 C1585 1.327 . S
C1583 H1606 0.950 . S
C1584 C1583 1.349 . S
C1584 C1596 1.349 . S
C1585 C1583 1.327 . S
C1585 C1601 1.429 . S
C1585 H1607 0.950 . S
C1586 H1582 0.949 . S
C1586 C1594 1.574 . S
C1586 C1602 1.368 . S
H1587 C1595 0.950 . S
H1588 C1593 0.950 . S
H1589 C1594 0.949 . S
H1590 C1596 0.950 . S
H1591 C1597 0.950 . S
H1592 C1598 0.949 . S
C1593 H1588 0.950 . S
C1593 C1595 1.327 . S
C1593 C1599 1.429 . S
C1594 C1586 1.574 . S
C1594 H1589 0.949 . S
C1594 C1600 1.368 . S
C1595 C1579 1.349 . S
C1595 H1587 0.950 . S
C1595 C1593 1.327 . S
C1596 C1584 1.349 . S
C1596 H1590 0.950 . S
C1596 C1597 1.327 . S
C1597 H1591 0.950 . S
C1597 C1596 1.327 . S
C1597 C1601 1.429 . S
C1598 C1581 1.574 . S
C1598 H1592 0.949 . S
C1598 C1602 1.368 . S
C1599 C1580 1.429 . S
C1599 C1593 1.429 . S
C1599 C1600 1.523 . S
C1600 C1581 1.368 . S
C1600 C1594 1.368 . S
C1600 C1599 1.523 . S
C1601 C1585 1.429 . S
C1601 C1597 1.429 . S
C1601 C1602 1.523 . S
C1602 C1586 1.368 . S
C1602 C1598 1.368 . S
C1602 C1601 1.523 . S
H1603 C1578 0.950 . S
H1604 C1580 0.950 . S
H1605 C1581 0.949 . S
H1606 C1583 0.950 . S
H1607 C1585 0.950 . S
C1608 C1609 1.369 . S
C1608 C1610 1.327 . S
C1608 H1633 0.950 . S
C1609 C1608 1.369 . S
C1609 C1625 1.360 . S
C1610 C1608 1.327 . S
C1610 C1629 1.429 . S
C1610 H1634 0.950 . S
C1611 C1628 1.574 . S
C1611 C1630 1.368 . S
C1611 H1635 0.949 . S
H1612 C1616 0.949 . S
C1613 C1614 1.349 . S
C1613 C1615 1.327 . S
C1613 H1636 0.950 . S
C1614 C1613 1.349 . S
C1614 C1626 1.349 . S
C1615 C1613 1.327 . S
C1615 C1631 1.429 . S
C1615 H1637 0.950 . S
C1616 H1612 0.949 . S
C1616 C1624 1.574 . S
C1616 C1632 1.368 . S
H1617 C1625 0.950 1_545 S
H1618 C1623 0.950 . S
H1619 C1624 0.949 . S
H1620 C1626 0.950 . S
H1621 C1627 0.950 . S
H1622 C1628 0.949 . S
C1623 H1618 0.950 . S
C1623 C1625 1.327 . S
C1623 C1629 1.429 . S
C1624 C1616 1.574 . S
C1624 H1619 0.949 . S
C1624 C1630 1.368 . S
C1625 C1609 1.360 . S
C1625 H1617 0.950 1_565 S
C1625 C1623 1.327 . S
C1626 C1614 1.349 . S
C1626 H1620 0.950 . S
C1626 C1627 1.327 . S
C1627 H1621 0.950 . S
C1627 C1626 1.327 . S
C1627 C1631 1.429 . S
C1628 C1611 1.574 . S
C1628 H1622 0.949 . S
C1628 C1632 1.368 . S
C1629 C1610 1.429 . S
C1629 C1623 1.429 . S
C1629 C1630 1.523 . S
C1630 C1611 1.368 . S
C1630 C1624 1.368 . S
C1630 C1629 1.523 . S
C1631 C1615 1.429 . S
C1631 C1627 1.429 . S
C1631 C1632 1.523 . S
C1632 C1616 1.368 . S
C1632 C1628 1.368 . S
C1632 C1631 1.523 . S
H1633 C1608 0.950 . S
H1634 C1610 0.950 . S
H1635 C1611 0.949 . S
H1636 C1613 0.950 . S
H1637 C1615 0.950 . S
C1638 C1639 1.349 . S
C1638 C1640 1.327 . S
C1638 H1663 0.950 . S
C1639 C1638 1.349 . S
C1639 C1655 1.349 . S
C1640 C1638 1.327 . S
C1640 C1659 1.429 . S
C1640 H1664 0.950 . S
C1641 C1658 1.574 . S
C1641 C1660 1.368 . S
C1641 H1665 0.949 . S
H1642 C1646 0.949 . S
C1643 C1644 1.349 . S
C1643 C1645 1.327 . S
C1643 H1666 0.950 . S
C1644 C1643 1.349 . S
C1644 C1656 1.349 . S
C1645 C1643 1.327 . S
C1645 C1661 1.429 . S
C1645 H1667 0.950 . S
C1646 H1642 0.949 . S
C1646 C1654 1.574 . S
C1646 C1662 1.368 . S
H1647 C1655 0.950 . S
H1648 C1653 0.950 . S
H1649 C1654 0.949 . S
H1650 C1656 0.950 . S
H1651 C1657 0.950 . S
H1652 C1658 0.949 . S
C1653 H1648 0.950 . S
C1653 C1655 1.327 . S
C1653 C1659 1.429 . S
C1654 C1646 1.574 . S
C1654 H1649 0.949 . S
C1654 C1660 1.368 . S
C1655 C1639 1.349 . S
C1655 H1647 0.950 . S
C1655 C1653 1.327 . S
C1656 C1644 1.349 . S
C1656 H1650 0.950 . S
C1656 C1657 1.327 . S
C1657 H1651 0.950 . S
C1657 C1656 1.327 . S
C1657 C1661 1.429 . S
C1658 C1641 1.574 . S
C1658 H1652 0.949 . S
C1658 C1662 1.368 . S
C1659 C1640 1.429 . S
C1659 C1653 1.429 . S
C1659 C1660 1.523 . S
C1660 C1641 1.368 . S
C1660 C1654 1.368 . S
C1660 C1659 1.523 . S
C1661 C1645 1.429 . S
C1661 C1657 1.429 . S
C1661 C1662 1.523 . S
C1662 C1646 1.368 . S
C1662 C1658 1.368 . S
C1662 C1661 1.523 . S
H1663 C1638 0.950 . S
H1664 C1640 0.950 . S
H1665 C1641 0.949 . S
H1666 C1643 0.950 . S
H1667 C1645 0.950 . S
C1668 C1669 1.349 . S
C1668 C1670 1.327 . S
C1668 H1693 0.950 . S
C1669 C1668 1.349 . S
C1669 C1685 1.349 . S
C1670 C1668 1.327 . S
C1670 C1689 1.429 . S
C1670 H1694 0.950 . S
C1671 C1688 1.574 . S
C1671 C1690 1.368 . S
C1671 H1695 0.949 . S
H1672 C1676 0.949 . S
C1673 C1674 1.349 . S
C1673 C1675 1.327 . S
C1673 H1696 0.950 . S
C1674 C1673 1.349 . S
C1674 C1686 1.349 . S
C1675 C1673 1.327 . S
C1675 C1691 1.429 . S
C1675 H1697 0.950 . S
C1676 H1672 0.949 . S
C1676 C1684 1.574 . S
C1676 C1692 1.368 . S
H1677 C1685 0.950 . S
H1678 C1683 0.950 . S
H1679 C1684 0.949 . S
H1680 C1686 0.950 . S
H1681 C1687 0.950 . S
H1682 C1688 0.949 . S
C1683 H1678 0.950 . S
C1683 C1685 1.327 . S
C1683 C1689 1.429 . S
C1684 C1676 1.574 . S
C1684 H1679 0.949 . S
C1684 C1690 1.368 . S
C1685 C1669 1.349 . S
C1685 H1677 0.950 . S
C1685 C1683 1.327 . S
C1686 C1674 1.349 . S
C1686 H1680 0.950 . S
C1686 C1687 1.327 . S
C1687 H1681 0.950 . S
C1687 C1686 1.327 . S
C1687 C1691 1.429 . S
C1688 C1671 1.574 . S
C1688 H1682 0.949 . S
C1688 C1692 1.368 . S
C1689 C1670 1.429 . S
C1689 C1683 1.429 . S
C1689 C1690 1.523 . S
C1690 C1671 1.368 . S
C1690 C1684 1.368 . S
C1690 C1689 1.523 . S
C1691 C1675 1.429 . S
C1691 C1687 1.429 . S
C1691 C1692 1.523 . S
C1692 C1676 1.368 . S
C1692 C1688 1.368 . S
C1692 C1691 1.523 . S
H1693 C1668 0.950 . S
H1694 C1670 0.950 . S
H1695 C1671 0.949 . S
H1696 C1673 0.950 . S
H1697 C1675 0.950 . S
C1698 C1699 1.349 . S
C1698 C1700 1.327 . S
C1698 H1723 0.950 . S
C1699 C1698 1.349 . S
C1699 C1715 1.349 . S
C1700 C1698 1.327 . S
C1700 C1719 1.429 . S
C1700 H1724 0.950 . S
C1701 C1718 1.574 . S
C1701 C1720 1.368 . S
C1701 H1725 0.949 . S
H1702 C1706 0.949 . S
C1703 C1704 1.349 . S
C1703 C1705 1.327 . S
C1703 H1726 0.950 . S
C1704 C1703 1.349 . S
C1704 C1716 1.349 . S
C1705 C1703 1.327 . S
C1705 C1721 1.429 . S
C1705 H1727 0.950 . S
C1706 H1702 0.949 . S
C1706 C1714 1.574 . S
C1706 C1722 1.368 . S
H1707 C1715 0.950 . S
H1708 C1713 0.950 . S
H1709 C1714 0.949 . S
H1710 C1716 0.950 . S
H1711 C1717 0.950 . S
H1712 C1718 0.949 . S
C1713 H1708 0.950 . S
C1713 C1715 1.327 . S
C1713 C1719 1.429 . S
C1714 C1706 1.574 . S
C1714 H1709 0.949 . S
C1714 C1720 1.368 . S
C1715 C1699 1.349 . S
C1715 H1707 0.950 . S
C1715 C1713 1.327 . S
C1716 C1704 1.349 . S
C1716 H1710 0.950 . S
C1716 C1717 1.327 . S
C1717 H1711 0.950 . S
C1717 C1716 1.327 . S
C1717 C1721 1.429 . S
C1718 C1701 1.574 . S
C1718 H1712 0.949 . S
C1718 C1722 1.368 . S
C1719 C1700 1.429 . S
C1719 C1713 1.429 . S
C1719 C1720 1.523 . S
C1720 C1701 1.368 . S
C1720 C1714 1.368 . S
C1720 C1719 1.523 . S
C1721 C1705 1.429 . S
C1721 C1717 1.429 . S
C1721 C1722 1.523 . S
C1722 C1706 1.368 . S
C1722 C1718 1.368 . S
C1722 C1721 1.523 . S
H1723 C1698 0.950 . S
H1724 C1700 0.950 . S
H1725 C1701 0.949 . S
H1726 C1703 0.950 . S
H1727 C1705 0.950 . S
C1728 C1729 1.349 . S
C1728 C1730 1.327 . S
C1728 H1753 0.950 . S
C1729 C1728 1.349 . S
C1729 C1745 1.349 . S
C1730 C1728 1.327 . S
C1730 C1749 1.429 . S
C1730 H1754 0.950 . S
C1731 C1748 1.574 . S
C1731 C1750 1.368 . S
C1731 H1755 0.949 . S
H1732 C1736 0.949 . S
C1733 C1734 1.349 . S
C1733 C1735 1.327 . S
C1733 H1756 0.950 . S
C1734 C1733 1.349 . S
C1734 C1746 1.349 . S
C1735 C1733 1.327 . S
C1735 C1751 1.429 . S
C1735 H1757 0.950 . S
C1736 H1732 0.949 . S
C1736 C1744 1.574 . S
C1736 C1752 1.368 . S
H1737 C1745 0.950 . S
H1738 C1743 0.950 . S
H1739 C1744 0.949 . S
H1740 C1746 0.950 . S
H1741 C1747 0.950 . S
H1742 C1748 0.949 . S
C1743 H1738 0.950 . S
C1743 C1745 1.327 . S
C1743 C1749 1.429 . S
C1744 C1736 1.574 . S
C1744 H1739 0.949 . S
C1744 C1750 1.368 . S
C1745 C1729 1.349 . S
C1745 H1737 0.950 . S
C1745 C1743 1.327 . S
C1746 C1734 1.349 . S
C1746 H1740 0.950 . S
C1746 C1747 1.327 . S
C1747 H1741 0.950 . S
C1747 C1746 1.327 . S
C1747 C1751 1.429 . S
C1748 C1731 1.574 . S
C1748 H1742 0.949 . S
C1748 C1752 1.368 . S
C1749 C1730 1.429 . S
C1749 C1743 1.429 . S
C1749 C1750 1.523 . S
C1750 C1731 1.368 . S
C1750 C1744 1.368 . S
C1750 C1749 1.523 . S
C1751 C1735 1.429 . S
C1751 C1747 1.429 . S
C1751 C1752 1.523 . S
C1752 C1736 1.368 . S
C1752 C1748 1.368 . S
C1752 C1751 1.523 . S
H1753 C1728 0.950 . S
H1754 C1730 0.950 . S
H1755 C1731 0.949 . S
H1756 C1733 0.950 . S
H1757 C1735 0.950 . S
C1758 C1759 1.349 . S
C1758 C1760 1.327 . S
C1758 H1783 0.950 . S
C1759 C1758 1.349 . S
C1759 C1775 1.349 . S
C1760 C1758 1.327 . S
C1760 C1779 1.429 . S
C1760 H1784 0.950 . S
C1761 C1778 1.574 . S
C1761 C1780 1.368 . S
C1761 H1785 0.949 . S
H1762 C1766 0.949 . S
C1763 C1764 1.349 . S
C1763 C1765 1.327 . S
C1763 H1786 0.950 . S
C1764 C1763 1.349 . S
C1764 C1776 1.349 . S
C1765 C1763 1.327 . S
C1765 C1781 1.429 . S
C1765 H1787 0.950 . S
C1766 H1762 0.949 . S
C1766 C1774 1.574 . S
C1766 C1782 1.368 . S
H1767 C1775 0.950 . S
H1768 C1773 0.950 . S
H1769 C1774 0.949 . S
H1770 C1776 0.950 . S
H1771 C1777 0.950 . S
H1772 C1778 0.949 . S
C1773 H1768 0.950 . S
C1773 C1775 1.327 . S
C1773 C1779 1.429 . S
C1774 C1766 1.574 . S
C1774 H1769 0.949 . S
C1774 C1780 1.368 . S
C1775 C1759 1.349 . S
C1775 H1767 0.950 . S
C1775 C1773 1.327 . S
C1776 C1764 1.349 . S
C1776 H1770 0.950 . S
C1776 C1777 1.327 . S
C1777 H1771 0.950 . S
C1777 C1776 1.327 . S
C1777 C1781 1.429 . S
C1778 C1761 1.574 . S
C1778 H1772 0.949 . S
C1778 C1782 1.368 . S
C1779 C1760 1.429 . S
C1779 C1773 1.429 . S
C1779 C1780 1.523 . S
C1780 C1761 1.368 . S
C1780 C1774 1.368 . S
C1780 C1779 1.523 . S
C1781 C1765 1.429 . S
C1781 C1777 1.429 . S
C1781 C1782 1.523 . S
C1782 C1766 1.368 . S
C1782 C1778 1.368 . S
C1782 C1781 1.523 . S
H1783 C1758 0.950 . S
H1784 C1760 0.950 . S
H1785 C1761 0.949 . S
H1786 C1763 0.950 . S
H1787 C1765 0.950 . S
C1788 C1789 1.349 . S
C1788 C1790 1.327 . S
C1788 H1813 0.950 . S
C1789 C1788 1.349 . S
C1789 C1805 1.349 . S
C1790 C1788 1.327 . S
C1790 C1809 1.429 . S
C1790 H1814 0.950 . S
C1791 C1808 1.574 . S
C1791 C1810 1.368 . S
C1791 H1815 0.949 . S
H1792 C1796 0.949 . S
C1793 C1794 1.349 . S
C1793 C1795 1.327 . S
C1793 H1816 0.950 . S
C1794 C1793 1.349 . S
C1794 C1806 1.349 . S
C1795 C1793 1.327 . S
C1795 C1811 1.429 . S
C1795 H1817 0.950 . S
C1796 H1792 0.949 . S
C1796 C1804 1.574 . S
C1796 C1812 1.368 . S
H1797 C1805 0.950 . S
H1798 C1803 0.950 . S
H1799 C1804 0.949 . S
H1800 C1806 0.950 . S
H1801 C1807 0.950 . S
H1802 C1808 0.949 . S
C1803 H1798 0.950 . S
C1803 C1805 1.327 . S
C1803 C1809 1.429 . S
C1804 C1796 1.574 . S
C1804 H1799 0.949 . S
C1804 C1810 1.368 . S
C1805 C1789 1.349 . S
C1805 H1797 0.950 . S
C1805 C1803 1.327 . S
C1806 C1794 1.349 . S
C1806 H1800 0.950 . S
C1806 C1807 1.327 . S
C1807 H1801 0.950 . S
C1807 C1806 1.327 . S
C1807 C1811 1.429 . S
C1808 C1791 1.574 . S
C1808 H1802 0.949 . S
C1808 C1812 1.368 . S
C1809 C1790 1.429 . S
C1809 C1803 1.429 . S
C1809 C1810 1.523 . S
C1810 C1791 1.368 . S
C1810 C1804 1.368 . S
C1810 C1809 1.523 . S
C1811 C1795 1.429 . S
C1811 C1807 1.429 . S
C1811 C1812 1.523 . S
C1812 C1796 1.368 . S
C1812 C1808 1.368 . S
C1812 C1811 1.523 . S
H1813 C1788 0.950 . S
H1814 C1790 0.950 . S
H1815 C1791 0.949 . S
H1816 C1793 0.950 . S
H1817 C1795 0.950 . S
C1818 C1819 1.349 . S
C1818 C1820 1.327 . S
C1818 H1843 0.950 . S
C1819 C1818 1.349 . S
C1819 C1835 1.349 . S
C1820 C1818 1.327 . S
C1820 C1839 1.429 . S
C1820 H1844 0.950 . S
C1821 C1838 1.574 . S
C1821 C1840 1.368 . S
C1821 H1845 0.949 . S
H1822 C1826 0.949 . S
C1823 C1824 1.349 . S
C1823 C1825 1.327 . S
C1823 H1846 0.950 . S
C1824 C1823 1.349 . S
C1824 C1836 1.349 . S
C1825 C1823 1.327 . S
C1825 C1841 1.429 . S
C1825 H1847 0.950 . S
C1826 H1822 0.949 . S
C1826 C1834 1.574 . S
C1826 C1842 1.368 . S
H1827 C1835 0.950 . S
H1828 C1833 0.950 . S
H1829 C1834 0.949 . S
H1830 C1836 0.950 . S
H1831 C1837 0.950 . S
H1832 C1838 0.949 . S
C1833 H1828 0.950 . S
C1833 C1835 1.327 . S
C1833 C1839 1.429 . S
C1834 C1826 1.574 . S
C1834 H1829 0.949 . S
C1834 C1840 1.368 . S
C1835 C1819 1.349 . S
C1835 H1827 0.950 . S
C1835 C1833 1.327 . S
C1836 C1824 1.349 . S
C1836 H1830 0.950 . S
C1836 C1837 1.327 . S
C1837 H1831 0.950 . S
C1837 C1836 1.327 . S
C1837 C1841 1.429 . S
C1838 C1821 1.574 . S
C1838 H1832 0.949 . S
C1838 C1842 1.368 . S
C1839 C1820 1.429 . S
C1839 C1833 1.429 . S
C1839 C1840 1.523 . S
C1840 C1821 1.368 . S
C1840 C1834 1.368 . S
C1840 C1839 1.523 . S
C1841 C1825 1.429 . S
C1841 C1837 1.429 . S
C1841 C1842 1.523 . S
C1842 C1826 1.368 . S
C1842 C1838 1.368 . S
C1842 C1841 1.523 . S
H1843 C1818 0.950 . S
H1844 C1820 0.950 . S
H1845 C1821 0.949 . S
H1846 C1823 0.950 . S
H1847 C1825 0.950 . S
C1848 C1849 1.349 . S
C1848 C1850 1.327 . S
C1848 H1873 0.950 . S
C1849 C1848 1.349 . S
C1849 C1865 1.349 . S
C1850 C1848 1.327 . S
C1850 C1869 1.429 . S
C1850 H1874 0.950 . S
C1851 C1868 1.574 . S
C1851 C1870 1.368 . S
C1851 H1875 0.949 . S
H1852 C1856 0.949 . S
C1853 C1854 1.349 . S
C1853 C1855 1.327 . S
C1853 H1876 0.950 . S
C1854 C1853 1.349 . S
C1854 C1866 1.349 . S
C1855 C1853 1.327 . S
C1855 C1871 1.429 . S
C1855 H1877 0.950 . S
C1856 H1852 0.949 . S
C1856 C1864 1.574 . S
C1856 C1872 1.368 . S
H1857 C1865 0.950 . S
H1858 C1863 0.950 . S
H1859 C1864 0.949 . S
H1860 C1866 0.950 . S
H1861 C1867 0.950 . S
H1862 C1868 0.949 . S
C1863 H1858 0.950 . S
C1863 C1865 1.327 . S
C1863 C1869 1.429 . S
C1864 C1856 1.574 . S
C1864 H1859 0.949 . S
C1864 C1870 1.368 . S
C1865 C1849 1.349 . S
C1865 H1857 0.950 . S
C1865 C1863 1.327 . S
C1866 C1854 1.349 . S
C1866 H1860 0.950 . S
C1866 C1867 1.327 . S
C1867 H1861 0.950 . S
C1867 C1866 1.327 . S
C1867 C1871 1.429 . S
C1868 C1851 1.574 . S
C1868 H1862 0.949 . S
C1868 C1872 1.368 . S
C1869 C1850 1.429 . S
C1869 C1863 1.429 . S
C1869 C1870 1.523 . S
C1870 C1851 1.368 . S
C1870 C1864 1.368 . S
C1870 C1869 1.523 . S
C1871 C1855 1.429 . S
C1871 C1867 1.429 . S
C1871 C1872 1.523 . S
C1872 C1856 1.368 . S
C1872 C1868 1.368 . S
C1872 C1871 1.523 . S
H1873 C1848 0.950 . S
H1874 C1850 0.950 . S
H1875 C1851 0.949 . S
H1876 C1853 0.950 . S
H1877 C1855 0.950 . S
C1878 C1879 1.349 . S
C1878 C1880 1.327 . S
C1878 H1903 0.950 . S
C1879 C1878 1.349 . S
C1879 C1895 1.349 . S
C1880 C1878 1.327 . S
C1880 C1899 1.429 . S
C1880 H1904 0.950 . S
C1881 C1898 1.574 . S
C1881 C1900 1.368 . S
C1881 H1905 0.949 . S
H1882 C1886 0.949 . S
C1883 C1884 1.349 . S
C1883 C1885 1.327 . S
C1883 H1906 0.950 . S
C1884 C1883 1.349 . S
C1884 C1896 1.349 . S
C1885 C1883 1.327 . S
C1885 C1901 1.429 . S
C1885 H1907 0.950 . S
C1886 H1882 0.949 . S
C1886 C1894 1.574 . S
C1886 C1902 1.368 . S
H1887 C1895 0.950 . S
H1888 C1893 0.950 . S
H1889 C1894 0.949 . S
H1890 C1896 0.950 . S
H1891 C1897 0.950 . S
H1892 C1898 0.949 . S
C1893 H1888 0.950 . S
C1893 C1895 1.327 . S
C1893 C1899 1.429 . S
C1894 C1886 1.574 . S
C1894 H1889 0.949 . S
C1894 C1900 1.368 . S
C1895 C1879 1.349 . S
C1895 H1887 0.950 . S
C1895 C1893 1.327 . S
C1896 C1884 1.349 . S
C1896 H1890 0.950 . S
C1896 C1897 1.327 . S
C1897 H1891 0.950 . S
C1897 C1896 1.327 . S
C1897 C1901 1.429 . S
C1898 C1881 1.574 . S
C1898 H1892 0.949 . S
C1898 C1902 1.368 . S
C1899 C1880 1.429 . S
C1899 C1893 1.429 . S
C1899 C1900 1.523 . S
C1900 C1881 1.368 . S
C1900 C1894 1.368 . S
C1900 C1899 1.523 . S
C1901 C1885 1.429 . S
C1901 C1897 1.429 . S
C1901 C1902 1.523 . S
C1902 C1886 1.368 . S
C1902 C1898 1.368 . S
C1902 C1901 1.523 . S
H1903 C1878 0.950 . S
H1904 C1880 0.950 . S
H1905 C1881 0.949 . S
H1906 C1883 0.950 . S
H1907 C1885 0.950 . S
C1908 C1909 1.349 . S
C1908 C1910 1.327 . S
C1908 H1933 0.950 . S
C1909 C1908 1.349 . S
C1909 C1925 1.349 . S
C1910 C1908 1.327 . S
C1910 C1929 1.429 . S
C1910 H1934 0.950 . S
C1911 C1928 1.574 . S
C1911 C1930 1.368 . S
C1911 H1935 0.949 . S
H1912 C1916 0.949 . S
C1913 C1914 1.349 . S
C1913 C1915 1.327 . S
C1913 H1936 0.950 . S
C1914 C1913 1.349 . S
C1914 C1926 1.349 . S
C1915 C1913 1.327 . S
C1915 C1931 1.429 . S
C1915 H1937 0.950 . S
C1916 H1912 0.949 . S
C1916 C1924 1.574 . S
C1916 C1932 1.368 . S
H1917 C1925 0.950 . S
H1918 C1923 0.950 . S
H1919 C1924 0.949 . S
H1920 C1926 0.950 . S
H1921 C1927 0.950 . S
H1922 C1928 0.949 . S
C1923 H1918 0.950 . S
C1923 C1925 1.327 . S
C1923 C1929 1.429 . S
C1924 C1916 1.574 . S
C1924 H1919 0.949 . S
C1924 C1930 1.368 . S
C1925 C1909 1.349 . S
C1925 H1917 0.950 . S
C1925 C1923 1.327 . S
C1926 C1914 1.349 . S
C1926 H1920 0.950 . S
C1926 C1927 1.327 . S
C1927 H1921 0.950 . S
C1927 C1926 1.327 . S
C1927 C1931 1.429 . S
C1928 C1911 1.574 . S
C1928 H1922 0.949 . S
C1928 C1932 1.368 . S
C1929 C1910 1.429 . S
C1929 C1923 1.429 . S
C1929 C1930 1.523 . S
C1930 C1911 1.368 . S
C1930 C1924 1.368 . S
C1930 C1929 1.523 . S
C1931 C1915 1.429 . S
C1931 C1927 1.429 . S
C1931 C1932 1.523 . S
C1932 C1916 1.368 . S
C1932 C1928 1.368 . S
C1932 C1931 1.523 . S
H1933 C1908 0.950 . S
H1934 C1910 0.950 . S
H1935 C1911 0.949 . S
H1936 C1913 0.950 . S
H1937 C1915 0.950 . S
C1938 C1939 1.349 . S
C1938 C1940 1.327 . S
C1938 H1963 0.950 . S
C1939 C1938 1.349 . S
C1939 C1955 1.349 . S
C1940 C1938 1.327 . S
C1940 C1959 1.429 . S
C1940 H1964 0.950 . S
C1941 C1958 1.574 . S
C1941 C1960 1.368 . S
C1941 H1965 0.949 . S
H1942 C1946 0.949 . S
C1943 C1944 1.349 . S
C1943 C1945 1.327 . S
C1943 H1966 0.950 . S
C1944 C1943 1.349 . S
C1944 C1956 1.349 . S
C1945 C1943 1.327 . S
C1945 C1961 1.429 . S
C1945 H1967 0.950 . S
C1946 H1942 0.949 . S
C1946 C1954 1.574 . S
C1946 C1962 1.368 . S
H1947 C1955 0.950 . S
H1948 C1953 0.950 . S
H1949 C1954 0.949 . S
H1950 C1956 0.950 . S
H1951 C1957 0.950 . S
H1952 C1958 0.949 . S
C1953 H1948 0.950 . S
C1953 C1955 1.327 . S
C1953 C1959 1.429 . S
C1954 C1946 1.574 . S
C1954 H1949 0.949 . S
C1954 C1960 1.368 . S
C1955 C1939 1.349 . S
C1955 H1947 0.950 . S
C1955 C1953 1.327 . S
C1956 C1944 1.349 . S
C1956 H1950 0.950 . S
C1956 C1957 1.327 . S
C1957 H1951 0.950 . S
C1957 C1956 1.327 . S
C1957 C1961 1.429 . S
C1958 C1941 1.574 . S
C1958 H1952 0.949 . S
C1958 C1962 1.368 . S
C1959 C1940 1.429 . S
C1959 C1953 1.429 . S
C1959 C1960 1.523 . S
C1960 C1941 1.368 . S
C1960 C1954 1.368 . S
C1960 C1959 1.523 . S
C1961 C1945 1.429 . S
C1961 C1957 1.429 . S
C1961 C1962 1.523 . S
C1962 C1946 1.368 . S
C1962 C1958 1.368 . S
C1962 C1961 1.523 . S
H1963 C1938 0.950 . S
H1964 C1940 0.950 . S
H1965 C1941 0.949 . S
H1966 C1943 0.950 . S
H1967 C1945 0.950 . S
C1968 C1969 1.349 . S
C1968 C1970 1.327 . S
C1968 H1993 0.950 . S
C1969 C1968 1.349 . S
C1969 C1985 1.349 . S
C1970 C1968 1.327 . S
C1970 C1989 1.429 . S
C1970 H1994 0.950 . S
C1971 C1988 1.574 . S
C1971 C1990 1.368 . S
C1971 H1995 0.949 . S
H1972 C1976 0.949 . S
C1973 C1974 1.349 . S
C1973 C1975 1.327 . S
C1973 H1996 0.950 . S
C1974 C1973 1.349 . S
C1974 C1986 1.349 . S
C1975 C1973 1.327 . S
C1975 C1991 1.429 . S
C1975 H1997 0.950 . S
C1976 H1972 0.949 . S
C1976 C1984 1.574 . S
C1976 C1992 1.368 . S
H1977 C1985 0.950 . S
H1978 C1983 0.950 . S
H1979 C1984 0.949 . S
H1980 C1986 0.950 . S
H1981 C1987 0.950 . S
H1982 C1988 0.949 . S
C1983 H1978 0.950 . S
C1983 C1985 1.327 . S
C1983 C1989 1.429 . S
C1984 C1976 1.574 . S
C1984 H1979 0.949 . S
C1984 C1990 1.368 . S
C1985 C1969 1.349 . S
C1985 H1977 0.950 . S
C1985 C1983 1.327 . S
C1986 C1974 1.349 . S
C1986 H1980 0.950 . S
C1986 C1987 1.327 . S
C1987 H1981 0.950 . S
C1987 C1986 1.327 . S
C1987 C1991 1.429 . S
C1988 C1971 1.574 . S
C1988 H1982 0.949 . S
C1988 C1992 1.368 . S
C1989 C1970 1.429 . S
C1989 C1983 1.429 . S
C1989 C1990 1.523 . S
C1990 C1971 1.368 . S
C1990 C1984 1.368 . S
C1990 C1989 1.523 . S
C1991 C1975 1.429 . S
C1991 C1987 1.429 . S
C1991 C1992 1.523 . S
C1992 C1976 1.368 . S
C1992 C1988 1.368 . S
C1992 C1991 1.523 . S
H1993 C1968 0.950 . S
H1994 C1970 0.950 . S
H1995 C1971 0.949 . S
H1996 C1973 0.950 . S
H1997 C1975 0.950 . S
C1998 C1999 1.349 . S
C1998 C2000 1.327 . S
C1998 H2023 0.950 . S
C1999 C1998 1.349 . S
C1999 C2015 1.349 . S
C2000 C1998 1.327 . S
C2000 C2019 1.429 . S
C2000 H2024 0.950 . S
C2001 C2018 1.574 . S
C2001 C2020 1.368 . S
C2001 H2025 0.949 . S
H2002 C2006 0.949 . S
C2003 C2004 1.349 . S
C2003 C2005 1.327 . S
C2003 H2026 0.950 . S
C2004 C2003 1.349 . S
C2004 C2016 1.349 . S
C2005 C2003 1.327 . S
C2005 C2021 1.429 . S
C2005 H2027 0.950 . S
C2006 H2002 0.949 . S
C2006 C2014 1.574 . S
C2006 C2022 1.368 . S
H2007 C2015 0.950 . S
H2008 C2013 0.950 . S
H2009 C2014 0.949 . S
H2010 C2016 0.950 . S
H2011 C2017 0.950 . S
H2012 C2018 0.949 . S
C2013 H2008 0.950 . S
C2013 C2015 1.327 . S
C2013 C2019 1.429 . S
C2014 C2006 1.574 . S
C2014 H2009 0.949 . S
C2014 C2020 1.368 . S
C2015 C1999 1.349 . S
C2015 H2007 0.950 . S
C2015 C2013 1.327 . S
C2016 C2004 1.349 . S
C2016 H2010 0.950 . S
C2016 C2017 1.327 . S
C2017 H2011 0.950 . S
C2017 C2016 1.327 . S
C2017 C2021 1.429 . S
C2018 C2001 1.574 . S
C2018 H2012 0.949 . S
C2018 C2022 1.368 . S
C2019 C2000 1.429 . S
C2019 C2013 1.429 . S
C2019 C2020 1.523 . S
C2020 C2001 1.368 . S
C2020 C2014 1.368 . S
C2020 C2019 1.523 . S
C2021 C2005 1.429 . S
C2021 C2017 1.429 . S
C2021 C2022 1.523 . S
C2022 C2006 1.368 . S
C2022 C2018 1.368 . S
C2022 C2021 1.523 . S
H2023 C1998 0.950 . S
H2024 C2000 0.950 . S
H2025 C2001 0.949 . S
H2026 C2003 0.950 . S
H2027 C2005 0.950 . S
C2028 C2029 1.349 . S
C2028 C2030 1.327 . S
C2028 H2053 0.950 . S
C2029 C2028 1.349 . S
C2029 C2045 1.349 . S
C2030 C2028 1.327 . S
C2030 C2049 1.429 . S
C2030 H2054 0.950 . S
C2031 C2048 1.574 . S
C2031 C2050 1.368 . S
C2031 H2055 0.949 . S
H2032 C2036 0.949 . S
C2033 C2034 1.349 . S
C2033 C2035 1.327 . S
C2033 H2056 0.950 . S
C2034 C2033 1.349 . S
C2034 C2046 1.349 . S
C2035 C2033 1.327 . S
C2035 C2051 1.429 . S
C2035 H2057 0.950 . S
C2036 H2032 0.949 . S
C2036 C2044 1.574 . S
C2036 C2052 1.368 . S
H2037 C2045 0.950 . S
H2038 C2043 0.950 . S
H2039 C2044 0.949 . S
H2040 C2046 0.950 . S
H2041 C2047 0.950 . S
H2042 C2048 0.949 . S
C2043 H2038 0.950 . S
C2043 C2045 1.327 . S
C2043 C2049 1.429 . S
C2044 C2036 1.574 . S
C2044 H2039 0.949 . S
C2044 C2050 1.368 . S
C2045 C2029 1.349 . S
C2045 H2037 0.950 . S
C2045 C2043 1.327 . S
C2046 C2034 1.349 . S
C2046 H2040 0.950 . S
C2046 C2047 1.327 . S
C2047 H2041 0.950 . S
C2047 C2046 1.327 . S
C2047 C2051 1.429 . S
C2048 C2031 1.574 . S
C2048 H2042 0.949 . S
C2048 C2052 1.368 . S
C2049 C2030 1.429 . S
C2049 C2043 1.429 . S
C2049 C2050 1.523 . S
C2050 C2031 1.368 . S
C2050 C2044 1.368 . S
C2050 C2049 1.523 . S
C2051 C2035 1.429 . S
C2051 C2047 1.429 . S
C2051 C2052 1.523 . S
C2052 C2036 1.368 . S
C2052 C2048 1.368 . S
C2052 C2051 1.523 . S
H2053 C2028 0.950 . S
H2054 C2030 0.950 . S
H2055 C2031 0.949 . S
H2056 C2033 0.950 . S
H2057 C2035 0.950 . S
C2058 C2059 1.349 . S
C2058 C2060 1.327 . S
C2058 H2083 0.950 . S
C2059 C2058 1.349 . S
C2059 C2075 1.349 . S
C2060 C2058 1.327 . S
C2060 C2079 1.429 . S
C2060 H2084 0.950 . S
C2061 C2078 1.574 . S
C2061 C2080 1.368 . S
C2061 H2085 0.949 . S
H2062 C2066 0.949 . S
C2063 C2064 1.349 . S
C2063 C2065 1.327 . S
C2063 H2086 0.950 . S
C2064 C2063 1.349 . S
C2064 C2076 1.349 . S
C2065 C2063 1.327 . S
C2065 C2081 1.429 . S
C2065 H2087 0.950 . S
C2066 H2062 0.949 . S
C2066 C2074 1.574 . S
C2066 C2082 1.368 . S
H2067 C2075 0.950 . S
H2068 C2073 0.950 . S
H2069 C2074 0.949 . S
H2070 C2076 0.950 . S
H2071 C2077 0.950 . S
H2072 C2078 0.949 . S
C2073 H2068 0.950 . S
C2073 C2075 1.327 . S
C2073 C2079 1.429 . S
C2074 C2066 1.574 . S
C2074 H2069 0.949 . S
C2074 C2080 1.368 . S
C2075 C2059 1.349 . S
C2075 H2067 0.950 . S
C2075 C2073 1.327 . S
C2076 C2064 1.349 . S
C2076 H2070 0.950 . S
C2076 C2077 1.327 . S
C2077 H2071 0.950 . S
C2077 C2076 1.327 . S
C2077 C2081 1.429 . S
C2078 C2061 1.574 . S
C2078 H2072 0.949 . S
C2078 C2082 1.368 . S
C2079 C2060 1.429 . S
C2079 C2073 1.429 . S
C2079 C2080 1.523 . S
C2080 C2061 1.368 . S
C2080 C2074 1.368 . S
C2080 C2079 1.523 . S
C2081 C2065 1.429 . S
C2081 C2077 1.429 . S
C2081 C2082 1.523 . S
C2082 C2066 1.368 . S
C2082 C2078 1.368 . S
C2082 C2081 1.523 . S
H2083 C2058 0.950 . S
H2084 C2060 0.950 . S
H2085 C2061 0.949 . S
H2086 C2063 0.950 . S
H2087 C2065 0.950 . S
C2088 C2089 1.349 . S
C2088 C2090 1.327 . S
C2088 H2113 0.950 . S
C2089 C2088 1.349 . S
C2089 C2105 1.349 . S
C2090 C2088 1.327 . S
C2090 C2109 1.429 . S
C2090 H2114 0.950 . S
C2091 C2108 1.574 . S
C2091 C2110 1.368 . S
C2091 H2115 0.949 . S
H2092 C2096 0.949 . S
C2093 C2094 1.349 . S
C2093 C2095 1.327 . S
C2093 H2116 0.950 . S
C2094 C2093 1.349 . S
C2094 C2106 1.349 . S
C2095 C2093 1.327 . S
C2095 C2111 1.429 . S
C2095 H2117 0.950 . S
C2096 H2092 0.949 . S
C2096 C2104 1.574 . S
C2096 C2112 1.368 . S
H2097 C2105 0.950 . S
H2098 C2103 0.950 . S
H2099 C2104 0.949 . S
H2100 C2106 0.950 . S
H2101 C2107 0.950 . S
H2102 C2108 0.949 . S
C2103 H2098 0.950 . S
C2103 C2105 1.327 . S
C2103 C2109 1.429 . S
C2104 C2096 1.574 . S
C2104 H2099 0.949 . S
C2104 C2110 1.368 . S
C2105 C2089 1.349 . S
C2105 H2097 0.950 . S
C2105 C2103 1.327 . S
C2106 C2094 1.349 . S
C2106 H2100 0.950 . S
C2106 C2107 1.327 . S
C2107 H2101 0.950 . S
C2107 C2106 1.327 . S
C2107 C2111 1.429 . S
C2108 C2091 1.574 . S
C2108 H2102 0.949 . S
C2108 C2112 1.368 . S
C2109 C2090 1.429 . S
C2109 C2103 1.429 . S
C2109 C2110 1.523 . S
C2110 C2091 1.368 . S
C2110 C2104 1.368 . S
C2110 C2109 1.523 . S
C2111 C2095 1.429 . S
C2111 C2107 1.429 . S
C2111 C2112 1.523 . S
C2112 C2096 1.368 . S
C2112 C2108 1.368 . S
C2112 C2111 1.523 . S
H2113 C2088 0.950 . S
H2114 C2090 0.950 . S
H2115 C2091 0.949 . S
H2116 C2093 0.950 . S
H2117 C2095 0.950 . S
C2118 C2119 1.349 . S
C2118 C2120 1.327 . S
C2118 H2143 0.950 . S
C2119 C2118 1.349 . S
C2119 C2135 1.349 . S
C2120 C2118 1.327 . S
C2120 C2139 1.429 . S
C2120 H2144 0.950 . S
C2121 C2138 1.574 . S
C2121 C2140 1.368 . S
C2121 H2145 0.949 . S
H2122 C2126 0.949 . S
C2123 C2124 1.349 . S
C2123 C2125 1.327 . S
C2123 H2146 0.950 . S
C2124 C2123 1.349 . S
C2124 C2136 1.349 . S
C2125 C2123 1.327 . S
C2125 C2141 1.429 . S
C2125 H2147 0.950 . S
C2126 H2122 0.949 . S
C2126 C2134 1.574 . S
C2126 C2142 1.368 . S
H2127 C2135 0.950 . S
H2128 C2133 0.950 . S
H2129 C2134 0.949 . S
H2130 C2136 0.950 . S
H2131 C2137 0.950 . S
H2132 C2138 0.949 . S
C2133 H2128 0.950 . S
C2133 C2135 1.327 . S
C2133 C2139 1.429 . S
C2134 C2126 1.574 . S
C2134 H2129 0.949 . S
C2134 C2140 1.368 . S
C2135 C2119 1.349 . S
C2135 H2127 0.950 . S
C2135 C2133 1.327 . S
C2136 C2124 1.349 . S
C2136 H2130 0.950 . S
C2136 C2137 1.327 . S
C2137 H2131 0.950 . S
C2137 C2136 1.327 . S
C2137 C2141 1.429 . S
C2138 C2121 1.574 . S
C2138 H2132 0.949 . S
C2138 C2142 1.368 . S
C2139 C2120 1.429 . S
C2139 C2133 1.429 . S
C2139 C2140 1.523 . S
C2140 C2121 1.368 . S
C2140 C2134 1.368 . S
C2140 C2139 1.523 . S
C2141 C2125 1.429 . S
C2141 C2137 1.429 . S
C2141 C2142 1.523 . S
C2142 C2126 1.368 . S
C2142 C2138 1.368 . S
C2142 C2141 1.523 . S
H2143 C2118 0.950 . S
H2144 C2120 0.950 . S
H2145 C2121 0.949 . S
H2146 C2123 0.950 . S
H2147 C2125 0.950 . S
C2148 C2149 1.349 . S
C2148 C2150 1.327 . S
C2148 H2173 0.950 . S
C2149 C2148 1.349 . S
C2149 C2165 1.349 . S
C2150 C2148 1.327 . S
C2150 C2169 1.429 . S
C2150 H2174 0.950 . S
C2151 C2168 1.574 . S
C2151 C2170 1.368 . S
C2151 H2175 0.949 . S
H2152 C2156 0.949 . S
C2153 C2154 1.349 . S
C2153 C2155 1.327 . S
C2153 H2176 0.950 . S
C2154 C2153 1.349 . S
C2154 C2166 1.349 . S
C2155 C2153 1.327 . S
C2155 C2171 1.429 . S
C2155 H2177 0.950 . S
C2156 H2152 0.949 . S
C2156 C2164 1.574 . S
C2156 C2172 1.368 . S
H2157 C2165 0.950 . S
H2158 C2163 0.950 . S
H2159 C2164 0.949 . S
H2160 C2166 0.950 . S
H2161 C2167 0.950 . S
H2162 C2168 0.949 . S
C2163 H2158 0.950 . S
C2163 C2165 1.327 . S
C2163 C2169 1.429 . S
C2164 C2156 1.574 . S
C2164 H2159 0.949 . S
C2164 C2170 1.368 . S
C2165 C2149 1.349 . S
C2165 H2157 0.950 . S
C2165 C2163 1.327 . S
C2166 C2154 1.349 . S
C2166 H2160 0.950 . S
C2166 C2167 1.327 . S
C2167 H2161 0.950 . S
C2167 C2166 1.327 . S
C2167 C2171 1.429 . S
C2168 C2151 1.574 . S
C2168 H2162 0.949 . S
C2168 C2172 1.368 . S
C2169 C2150 1.429 . S
C2169 C2163 1.429 . S
C2169 C2170 1.523 . S
C2170 C2151 1.368 . S
C2170 C2164 1.368 . S
C2170 C2169 1.523 . S
C2171 C2155 1.429 . S
C2171 C2167 1.429 . S
C2171 C2172 1.523 . S
C2172 C2156 1.368 . S
C2172 C2168 1.368 . S
C2172 C2171 1.523 . S
H2173 C2148 0.950 . S
H2174 C2150 0.950 . S
H2175 C2151 0.949 . S
H2176 C2153 0.950 . S
H2177 C2155 0.950 . S
C2178 C2179 1.349 . S
C2178 C2180 1.327 . S
C2178 H2203 0.950 . S
C2179 C2178 1.349 . S
C2179 C2195 1.349 . S
C2180 C2178 1.327 . S
C2180 C2199 1.429 . S
C2180 H2204 0.950 . S
C2181 C2198 1.574 . S
C2181 C2200 1.368 . S
C2181 H2205 0.949 . S
H2182 C2186 0.949 . S
C2183 C2184 1.349 . S
C2183 C2185 1.327 . S
C2183 H2206 0.950 . S
C2184 C2183 1.349 . S
C2184 C2196 1.349 . S
C2185 C2183 1.327 . S
C2185 C2201 1.429 . S
C2185 H2207 0.950 . S
C2186 H2182 0.949 . S
C2186 C2194 1.574 . S
C2186 C2202 1.368 . S
H2187 C2195 0.950 . S
H2188 C2193 0.950 . S
H2189 C2194 0.949 . S
H2190 C2196 0.950 . S
H2191 C2197 0.950 . S
H2192 C2198 0.949 . S
C2193 H2188 0.950 . S
C2193 C2195 1.327 . S
C2193 C2199 1.429 . S
C2194 C2186 1.574 . S
C2194 H2189 0.949 . S
C2194 C2200 1.368 . S
C2195 C2179 1.349 . S
C2195 H2187 0.950 . S
C2195 C2193 1.327 . S
C2196 C2184 1.349 . S
C2196 H2190 0.950 . S
C2196 C2197 1.327 . S
C2197 H2191 0.950 . S
C2197 C2196 1.327 . S
C2197 C2201 1.429 . S
C2198 C2181 1.574 . S
C2198 H2192 0.949 . S
C2198 C2202 1.368 . S
C2199 C2180 1.429 . S
C2199 C2193 1.429 . S
C2199 C2200 1.523 . S
C2200 C2181 1.368 . S
C2200 C2194 1.368 . S
C2200 C2199 1.523 . S
C2201 C2185 1.429 . S
C2201 C2197 1.429 . S
C2201 C2202 1.523 . S
C2202 C2186 1.368 . S
C2202 C2198 1.368 . S
C2202 C2201 1.523 . S
H2203 C2178 0.950 . S
H2204 C2180 0.950 . S
H2205 C2181 0.949 . S
H2206 C2183 0.950 . S
H2207 C2185 0.950 . S
C2208 C2209 1.349 . S
C2208 C2210 1.327 . S
C2208 H2233 0.950 . S
C2209 C2208 1.349 . S
C2209 C2225 1.349 . S
C2210 C2208 1.327 . S
C2210 C2229 1.429 . S
C2210 H2234 0.950 . S
C2211 C2228 1.574 . S
C2211 C2230 1.368 . S
C2211 H2235 0.949 . S
H2212 C2216 0.949 . S
C2213 C2214 1.349 . S
C2213 C2215 1.327 . S
C2213 H2236 0.950 . S
C2214 C2213 1.349 . S
C2214 C2226 1.349 . S
C2215 C2213 1.327 . S
C2215 C2231 1.429 . S
C2215 H2237 0.950 . S
C2216 H2212 0.949 . S
C2216 C2224 1.574 . S
C2216 C2232 1.368 . S
H2217 C2225 0.950 . S
H2218 C2223 0.950 . S
H2219 C2224 0.949 . S
H2220 C2226 0.950 . S
H2221 C2227 0.950 . S
H2222 C2228 0.949 . S
C2223 H2218 0.950 . S
C2223 C2225 1.327 . S
C2223 C2229 1.429 . S
C2224 C2216 1.574 . S
C2224 H2219 0.949 . S
C2224 C2230 1.368 . S
C2225 C2209 1.349 . S
C2225 H2217 0.950 . S
C2225 C2223 1.327 . S
C2226 C2214 1.349 . S
C2226 H2220 0.950 . S
C2226 C2227 1.327 . S
C2227 H2221 0.950 . S
C2227 C2226 1.327 . S
C2227 C2231 1.429 . S
C2228 C2211 1.574 . S
C2228 H2222 0.949 . S
C2228 C2232 1.368 . S
C2229 C2210 1.429 . S
C2229 C2223 1.429 . S
C2229 C2230 1.523 . S
C2230 C2211 1.368 . S
C2230 C2224 1.368 . S
C2230 C2229 1.523 . S
C2231 C2215 1.429 . S
C2231 C2227 1.429 . S
C2231 C2232 1.523 . S
C2232 C2216 1.368 . S
C2232 C2228 1.368 . S
C2232 C2231 1.523 . S
H2233 C2208 0.950 . S
H2234 C2210 0.950 . S
H2235 C2211 0.949 . S
H2236 C2213 0.950 . S
H2237 C2215 0.950 . S
C2238 C2239 1.349 . S
C2238 C2240 1.327 . S
C2238 H2263 0.950 . S
C2239 C2238 1.349 . S
C2239 C2255 1.349 . S
C2240 C2238 1.327 . S
C2240 C2259 1.429 . S
C2240 H2264 0.950 . S
C2241 C2258 1.574 . S
C2241 C2260 1.368 . S
C2241 H2265 0.949 . S
H2242 C2246 0.949 . S
C2243 C2244 1.349 . S
C2243 C2245 1.327 . S
C2243 H2266 0.950 . S
C2244 C2243 1.349 . S
C2244 C2256 1.349 . S
C2245 C2243 1.327 . S
C2245 C2261 1.429 . S
C2245 H2267 0.950 . S
C2246 H2242 0.949 . S
C2246 C2254 1.574 . S
C2246 C2262 1.368 . S
H2247 C2255 0.950 . S
H2248 C2253 0.950 . S
H2249 C2254 0.949 . S
H2250 C2256 0.950 . S
H2251 C2257 0.950 . S
H2252 C2258 0.949 . S
C2253 H2248 0.950 . S
C2253 C2255 1.327 . S
C2253 C2259 1.429 . S
C2254 C2246 1.574 . S
C2254 H2249 0.949 . S
C2254 C2260 1.368 . S
C2255 C2239 1.349 . S
C2255 H2247 0.950 . S
C2255 C2253 1.327 . S
C2256 C2244 1.349 . S
C2256 H2250 0.950 . S
C2256 C2257 1.327 . S
C2257 H2251 0.950 . S
C2257 C2256 1.327 . S
C2257 C2261 1.429 . S
C2258 C2241 1.574 . S
C2258 H2252 0.949 . S
C2258 C2262 1.368 . S
C2259 C2240 1.429 . S
C2259 C2253 1.429 . S
C2259 C2260 1.523 . S
C2260 C2241 1.368 . S
C2260 C2254 1.368 . S
C2260 C2259 1.523 . S
C2261 C2245 1.429 . S
C2261 C2257 1.429 . S
C2261 C2262 1.523 . S
C2262 C2246 1.368 . S
C2262 C2258 1.368 . S
C2262 C2261 1.523 . S
H2263 C2238 0.950 . S
H2264 C2240 0.950 . S
H2265 C2241 0.949 . S
H2266 C2243 0.950 . S
H2267 C2245 0.950 . S
C2268 C2269 1.349 . S
C2268 C2270 1.327 . S
C2268 H2293 0.950 . S
C2269 C2268 1.349 . S
C2269 C2285 1.349 . S
C2270 C2268 1.327 . S
C2270 C2289 1.429 . S
C2270 H2294 0.950 . S
C2271 C2288 1.574 . S
C2271 C2290 1.368 . S
C2271 H2295 0.949 . S
H2272 C2276 0.949 . S
C2273 C2274 1.349 . S
C2273 C2275 1.327 . S
C2273 H2296 0.950 . S
C2274 C2273 1.349 . S
C2274 C2286 1.349 . S
C2275 C2273 1.327 . S
C2275 C2291 1.429 . S
C2275 H2297 0.950 . S
C2276 H2272 0.949 . S
C2276 C2284 1.574 . S
C2276 C2292 1.368 . S
H2277 C2285 0.950 . S
H2278 C2283 0.950 . S
H2279 C2284 0.949 . S
H2280 C2286 0.950 . S
H2281 C2287 0.950 . S
H2282 C2288 0.949 . S
C2283 H2278 0.950 . S
C2283 C2285 1.327 . S
C2283 C2289 1.429 . S
C2284 C2276 1.574 . S
C2284 H2279 0.949 . S
C2284 C2290 1.368 . S
C2285 C2269 1.349 . S
C2285 H2277 0.950 . S
C2285 C2283 1.327 . S
C2286 C2274 1.349 . S
C2286 H2280 0.950 . S
C2286 C2287 1.327 . S
C2287 H2281 0.950 . S
C2287 C2286 1.327 . S
C2287 C2291 1.429 . S
C2288 C2271 1.574 . S
C2288 H2282 0.949 . S
C2288 C2292 1.368 . S
C2289 C2270 1.429 . S
C2289 C2283 1.429 . S
C2289 C2290 1.523 . S
C2290 C2271 1.368 . S
C2290 C2284 1.368 . S
C2290 C2289 1.523 . S
C2291 C2275 1.429 . S
C2291 C2287 1.429 . S
C2291 C2292 1.523 . S
C2292 C2276 1.368 . S
C2292 C2288 1.368 . S
C2292 C2291 1.523 . S
H2293 C2268 0.950 . S
H2294 C2270 0.950 . S
H2295 C2271 0.949 . S
H2296 C2273 0.950 . S
H2297 C2275 0.950 . S
C2298 C2299 1.349 . S
C2298 C2300 1.327 . S
C2298 H2323 0.950 . S
C2299 C2298 1.349 . S
C2299 C2315 1.349 . S
C2300 C2298 1.327 . S
C2300 C2319 1.429 . S
C2300 H2324 0.950 . S
C2301 C2318 1.574 . S
C2301 C2320 1.368 . S
C2301 H2325 0.949 . S
H2302 C2306 0.949 . S
C2303 C2304 1.349 . S
C2303 C2305 1.327 . S
C2303 H2326 0.950 . S
C2304 C2303 1.349 . S
C2304 C2316 1.349 . S
C2305 C2303 1.327 . S
C2305 C2321 1.429 . S
C2305 H2327 0.950 . S
C2306 H2302 0.949 . S
C2306 C2314 1.574 . S
C2306 C2322 1.368 . S
H2307 C2315 0.950 . S
H2308 C2313 0.950 . S
H2309 C2314 0.949 . S
H2310 C2316 0.950 . S
H2311 C2317 0.950 . S
H2312 C2318 0.949 . S
C2313 H2308 0.950 . S
C2313 C2315 1.327 . S
C2313 C2319 1.429 . S
C2314 C2306 1.574 . S
C2314 H2309 0.949 . S
C2314 C2320 1.368 . S
C2315 C2299 1.349 . S
C2315 H2307 0.950 . S
C2315 C2313 1.327 . S
C2316 C2304 1.349 . S
C2316 H2310 0.950 . S
C2316 C2317 1.327 . S
C2317 H2311 0.950 . S
C2317 C2316 1.327 . S
C2317 C2321 1.429 . S
C2318 C2301 1.574 . S
C2318 H2312 0.949 . S
C2318 C2322 1.368 . S
C2319 C2300 1.429 . S
C2319 C2313 1.429 . S
C2319 C2320 1.523 . S
C2320 C2301 1.368 . S
C2320 C2314 1.368 . S
C2320 C2319 1.523 . S
C2321 C2305 1.429 . S
C2321 C2317 1.429 . S
C2321 C2322 1.523 . S
C2322 C2306 1.368 . S
C2322 C2318 1.368 . S
C2322 C2321 1.523 . S
H2323 C2298 0.950 . S
H2324 C2300 0.950 . S
H2325 C2301 0.949 . S
H2326 C2303 0.950 . S
H2327 C2305 0.950 . S
C2328 C2329 1.349 . S
C2328 C2330 1.327 . S
C2328 H2353 0.950 . S
C2329 C2328 1.349 . S
C2329 C2345 1.349 . S
C2330 C2328 1.327 . S
C2330 C2349 1.429 . S
C2330 H2354 0.950 . S
C2331 C2348 1.574 . S
C2331 C2350 1.368 . S
C2331 H2355 0.949 . S
H2332 C2336 0.949 . S
C2333 C2334 1.349 . S
C2333 C2335 1.327 . S
C2333 H2356 0.950 . S
C2334 C2333 1.349 . S
C2334 C2346 1.349 . S
C2335 C2333 1.327 . S
C2335 C2351 1.429 . S
C2335 H2357 0.950 . S
C2336 H2332 0.949 . S
C2336 C2344 1.574 . S
C2336 C2352 1.368 . S
H2337 C2345 0.950 . S
H2338 C2343 0.950 . S
H2339 C2344 0.949 . S
H2340 C2346 0.950 . S
H2341 C2347 0.950 . S
H2342 C2348 0.949 . S
C2343 H2338 0.950 . S
C2343 C2345 1.327 . S
C2343 C2349 1.429 . S
C2344 C2336 1.574 . S
C2344 H2339 0.949 . S
C2344 C2350 1.368 . S
C2345 C2329 1.349 . S
C2345 H2337 0.950 . S
C2345 C2343 1.327 . S
C2346 C2334 1.349 . S
C2346 H2340 0.950 . S
C2346 C2347 1.327 . S
C2347 H2341 0.950 . S
C2347 C2346 1.327 . S
C2347 C2351 1.429 . S
C2348 C2331 1.574 . S
C2348 H2342 0.949 . S
C2348 C2352 1.368 . S
C2349 C2330 1.429 . S
C2349 C2343 1.429 . S
C2349 C2350 1.523 . S
C2350 C2331 1.368 . S
C2350 C2344 1.368 . S
C2350 C2349 1.523 . S
C2351 C2335 1.429 . S
C2351 C2347 1.429 . S
C2351 C2352 1.523 . S
C2352 C2336 1.368 . S
C2352 C2348 1.368 . S
C2352 C2351 1.523 . S
H2353 C2328 0.950 . S
H2354 C2330 0.950 . S
H2355 C2331 0.949 . S
H2356 C2333 0.950 . S
H2357 C2335 0.950 . S
C2358 C2359 1.349 . S
C2358 C2360 1.327 . S
C2358 H2383 0.950 . S
C2359 C2358 1.349 . S
C2359 C2375 1.349 . S
C2360 C2358 1.327 . S
C2360 C2379 1.429 . S
C2360 H2384 0.950 . S
C2361 C2378 1.574 . S
C2361 C2380 1.368 . S
C2361 H2385 0.949 . S
H2362 C2366 0.949 . S
C2363 C2364 1.349 . S
C2363 C2365 1.327 . S
C2363 H2386 0.950 . S
C2364 C2363 1.349 . S
C2364 C2376 1.349 . S
C2365 C2363 1.327 . S
C2365 C2381 1.429 . S
C2365 H2387 0.950 . S
C2366 H2362 0.949 . S
C2366 C2374 1.574 . S
C2366 C2382 1.368 . S
H2367 C2375 0.950 . S
H2368 C2373 0.950 . S
H2369 C2374 0.949 . S
H2370 C2376 0.950 . S
H2371 C2377 0.950 . S
H2372 C2378 0.949 . S
C2373 H2368 0.950 . S
C2373 C2375 1.327 . S
C2373 C2379 1.429 . S
C2374 C2366 1.574 . S
C2374 H2369 0.949 . S
C2374 C2380 1.368 . S
C2375 C2359 1.349 . S
C2375 H2367 0.950 . S
C2375 C2373 1.327 . S
C2376 C2364 1.349 . S
C2376 H2370 0.950 . S
C2376 C2377 1.327 . S
C2377 H2371 0.950 . S
C2377 C2376 1.327 . S
C2377 C2381 1.429 . S
C2378 C2361 1.574 . S
C2378 H2372 0.949 . S
C2378 C2382 1.368 . S
C2379 C2360 1.429 . S
C2379 C2373 1.429 . S
C2379 C2380 1.523 . S
C2380 C2361 1.368 . S
C2380 C2374 1.368 . S
C2380 C2379 1.523 . S
C2381 C2365 1.429 . S
C2381 C2377 1.429 . S
C2381 C2382 1.523 . S
C2382 C2366 1.368 . S
C2382 C2378 1.368 . S
C2382 C2381 1.523 . S
H2383 C2358 0.950 . S
H2384 C2360 0.950 . S
H2385 C2361 0.949 . S
H2386 C2363 0.950 . S
H2387 C2365 0.950 . S
C954 C348 1.273 . S
C949 N2 1.411 . S
C984 C435 2.249 . S
C979 C7 2.259 . S
C1014 C507 1.213 . S
C1009 N12 1.380 . S
C1039 C16 2.017 . S
C1044 C594 2.040 . S
C1074 C678 2.271 . S
C1069 C30 2.284 1_565 S
C1104 C768 1.102 . S
C1099 N35 1.268 . S
C1129 C39 2.097 . S
C1134 C855 2.082 . S
C1164 C927 1.202 . S
C1159 N25 1.276 . S
C1194 C343 1.000 . S
C1189 N58 1.012 . S
C1219 N81 1.791 . S
C1224 C416 1.792 . S
C1254 C519 1.059 . S
C1249 N104 1.022 . S
C1279 N127 1.081 . S
C1284 C600 0.931 . S
C1314 C684 0.730 . S
C1309 N48 0.689 1_565 S
C1344 C763 1.463 . S
C1339 N71 1.443 1_556 S
C1369 N94 1.226 . S
C1374 C836 1.228 . S
C1404 C939 1.554 . S
C1399 N117 1.531 . S
C1429 C85 2.066 . S
C1434 C342 2.073 . S
C1459 C122 2.308 . S
C1464 C679 2.262 . S
C1489 C53 1.626 . S
C1494 C762 1.652 . S
C1524 C843 1.223 . S
C1519 C76 1.457 1_655 S
C1554 C920 1.593 . S
C1549 C99 1.670 . S
C1584 C500 1.889 . S
C1579 C131 1.920 . S
C1614 C595 1.693 . S
C1609 C62 1.706 1_565 S
C1639 C108 1.027 . S
C1644 C423 0.903 . S
C1674 C936 1.293 . S
C1669 N140 1.458 . S
C1699 C145 2.251 . S
C1704 C687 2.242 . S
C1734 C759 1.154 . S
C1729 N150 1.289 . S
C1759 C154 2.018 . S
C1764 C846 2.041 . S
C1794 C426 2.267 . S
C1789 C168 2.280 . S
C1819 N173 1.176 . S
C1824 C516 1.045 . S
C1854 C603 2.084 . S
C1849 C177 2.099 . S
C1884 C339 1.221 . S
C1879 N163 1.312 . S
C1914 C931 1.422 . S
C1909 C200 1.465 . S
C1944 C668 2.098 . S
C1939 N219 2.097 . S
C1969 N242 1.275 . S
C1974 C771 1.339 . S
C2004 C852 1.154 . S
C1999 C269 1.402 . S
C2034 C432 0.859 . S
C2029 C191 0.974 . S
C2059 N209 1.709 . S
C2064 C511 1.729 . S
C2089 N232 1.541 . S
C2094 C584 1.550 . S
C2119 C260 2.037 . S
C2124 C351 2.026 . S
C2149 C223 1.753 . S
C2154 C930 1.758 . S
C2179 N255 1.878 . S
C2184 C427 1.871 . S
C2209 N186 1.192 . S
C2214 C510 1.237 . S
C2244 C591 0.975 . S
C2239 C214 1.129 . S
C2274 C332 1.287 . S
C2269 C237 1.343 . S
C2304 C752 1.472 . S
C2299 N265 1.447 . S
C2334 C847 1.319 . S
C2329 N196 1.321 . S
C2364 C675 0.730 . S
C2359 C246 0.704 . S
