# Generated by pormake.
# Topology ctn, (3,4)-cn, num edge types: 1
# Building blocks:
#     Node 0, Type 0, BuildingBlock: OLANEW_clean_sbu_2, # of connection points: 3
#     Node 1, Type 0, BuildingBlock: OLANEW_clean_sbu_2, # of connection points: 3
#     Node 2, Type 0, BuildingBlock: OLANEW_clean_sbu_2, # of connection points: 3
#     Node 3, Type 0, BuildingBlock: OLANEW_clean_sbu_2, # of connection points: 3
#     Node 4, Type 0, BuildingBlock: OLANEW_clean_sbu_2, # of connection points: 3
#     Node 5, Type 0, BuildingBlock: OLANEW_clean_sbu_2, # of connection points: 3
#     Node 6, Type 0, BuildingBlock: OLANEW_clean_sbu_2, # of connection points: 3
#     Node 7, Type 0, BuildingBlock: OLANEW_clean_sbu_2, # of connection points: 3
#     Node 8, Type 0, BuildingBlock: OLANEW_clean_sbu_2, # of connection points: 3
#     Node 9, Type 0, BuildingBlock: OLANEW_clean_sbu_2, # of connection points: 3
#     Node 10, Type 0, BuildingBlock: OLANEW_clean_sbu_2, # of connection points: 3
#     Node 11, Type 0, BuildingBlock: OLANEW_clean_sbu_2, # of connection points: 3
#     Node 12, Type 0, BuildingBlock: OLANEW_clean_sbu_2, # of connection points: 3
#     Node 13, Type 0, BuildingBlock: OLANEW_clean_sbu_2, # of connection points: 3
#     Node 14, Type 0, BuildingBlock: OLANEW_clean_sbu_2, # of connection points: 3
#     Node 15, Type 0, BuildingBlock: OLANEW_clean_sbu_2, # of connection points: 3
#     Node 16, Type 1, BuildingBlock: KUFVIS_clean_sbu_0, # of connection points: 4
#     Node 17, Type 1, BuildingBlock: KUFVIS_clean_sbu_0, # of connection points: 4
#     Node 18, Type 1, BuildingBlock: KUFVIS_clean_sbu_0, # of connection points: 4
#     Node 19, Type 1, BuildingBlock: KUFVIS_clean_sbu_0, # of connection points: 4
#     Node 20, Type 1, BuildingBlock: KUFVIS_clean_sbu_0, # of connection points: 4
#     Node 21, Type 1, BuildingBlock: KUFVIS_clean_sbu_0, # of connection points: 4
#     Node 22, Type 1, BuildingBlock: KUFVIS_clean_sbu_0, # of connection points: 4
#     Node 23, Type 1, BuildingBlock: KUFVIS_clean_sbu_0, # of connection points: 4
#     Node 24, Type 1, BuildingBlock: KUFVIS_clean_sbu_0, # of connection points: 4
#     Node 25, Type 1, BuildingBlock: KUFVIS_clean_sbu_0, # of connection points: 4
#     Node 26, Type 1, BuildingBlock: KUFVIS_clean_sbu_0, # of connection points: 4
#     Node 27, Type 1, BuildingBlock: KUFVIS_clean_sbu_0, # of connection points: 4
#     Edge 28, Type (0, 1), BuildingBlock: AJUNOK_clean_linker_0, # of connection points: 2
#     Edge 29, Type (0, 1), BuildingBlock: AJUNOK_clean_linker_0, # of connection points: 2
#     Edge 30, Type (0, 1), BuildingBlock: AJUNOK_clean_linker_0, # of connection points: 2
#     Edge 31, Type (0, 1), BuildingBlock: AJUNOK_clean_linker_0, # of connection points: 2
#     Edge 32, Type (0, 1), BuildingBlock: AJUNOK_clean_linker_0, # of connection points: 2
#     Edge 33, Type (0, 1), BuildingBlock: AJUNOK_clean_linker_0, # of connection points: 2
#     Edge 34, Type (0, 1), BuildingBlock: AJUNOK_clean_linker_0, # of connection points: 2
#     Edge 35, Type (0, 1), BuildingBlock: AJUNOK_clean_linker_0, # of connection points: 2
#     Edge 36, Type (0, 1), BuildingBlock: AJUNOK_clean_linker_0, # of connection points: 2
#     Edge 37, Type (0, 1), BuildingBlock: AJUNOK_clean_linker_0, # of connection points: 2
#     Edge 38, Type (0, 1), BuildingBlock: AJUNOK_clean_linker_0, # of connection points: 2
#     Edge 39, Type (0, 1), BuildingBlock: AJUNOK_clean_linker_0, # of connection points: 2
#     Edge 40, Type (0, 1), BuildingBlock: AJUNOK_clean_linker_0, # of connection points: 2
#     Edge 41, Type (0, 1), BuildingBlock: AJUNOK_clean_linker_0, # of connection points: 2
#     Edge 42, Type (0, 1), BuildingBlock: AJUNOK_clean_linker_0, # of connection points: 2
#     Edge 43, Type (0, 1), BuildingBlock: AJUNOK_clean_linker_0, # of connection points: 2
#     Edge 44, Type (0, 1), BuildingBlock: AJUNOK_clean_linker_0, # of connection points: 2
#     Edge 45, Type (0, 1), BuildingBlock: AJUNOK_clean_linker_0, # of connection points: 2
#     Edge 46, Type (0, 1), BuildingBlock: AJUNOK_clean_linker_0, # of connection points: 2
#     Edge 47, Type (0, 1), BuildingBlock: AJUNOK_clean_linker_0, # of connection points: 2
#     Edge 48, Type (0, 1), BuildingBlock: AJUNOK_clean_linker_0, # of connection points: 2
#     Edge 49, Type (0, 1), BuildingBlock: AJUNOK_clean_linker_0, # of connection points: 2
#     Edge 50, Type (0, 1), BuildingBlock: AJUNOK_clean_linker_0, # of connection points: 2
#     Edge 51, Type (0, 1), BuildingBlock: AJUNOK_clean_linker_0, # of connection points: 2
#     Edge 52, Type (0, 1), BuildingBlock: AJUNOK_clean_linker_0, # of connection points: 2
#     Edge 53, Type (0, 1), BuildingBlock: AJUNOK_clean_linker_0, # of connection points: 2
#     Edge 54, Type (0, 1), BuildingBlock: AJUNOK_clean_linker_0, # of connection points: 2
#     Edge 55, Type (0, 1), BuildingBlock: AJUNOK_clean_linker_0, # of connection points: 2
#     Edge 56, Type (0, 1), BuildingBlock: AJUNOK_clean_linker_0, # of connection points: 2
#     Edge 57, Type (0, 1), BuildingBlock: AJUNOK_clean_linker_0, # of connection points: 2
#     Edge 58, Type (0, 1), BuildingBlock: AJUNOK_clean_linker_0, # of connection points: 2
#     Edge 59, Type (0, 1), BuildingBlock: AJUNOK_clean_linker_0, # of connection points: 2
#     Edge 60, Type (0, 1), BuildingBlock: AJUNOK_clean_linker_0, # of connection points: 2
#     Edge 61, Type (0, 1), BuildingBlock: AJUNOK_clean_linker_0, # of connection points: 2
#     Edge 62, Type (0, 1), BuildingBlock: AJUNOK_clean_linker_0, # of connection points: 2
#     Edge 63, Type (0, 1), BuildingBlock: AJUNOK_clean_linker_0, # of connection points: 2
#     Edge 64, Type (0, 1), BuildingBlock: AJUNOK_clean_linker_0, # of connection points: 2
#     Edge 65, Type (0, 1), BuildingBlock: AJUNOK_clean_linker_0, # of connection points: 2
#     Edge 66, Type (0, 1), BuildingBlock: AJUNOK_clean_linker_0, # of connection points: 2
#     Edge 67, Type (0, 1), BuildingBlock: AJUNOK_clean_linker_0, # of connection points: 2
#     Edge 68, Type (0, 1), BuildingBlock: AJUNOK_clean_linker_0, # of connection points: 2
#     Edge 69, Type (0, 1), BuildingBlock: AJUNOK_clean_linker_0, # of connection points: 2
#     Edge 70, Type (0, 1), BuildingBlock: AJUNOK_clean_linker_0, # of connection points: 2
#     Edge 71, Type (0, 1), BuildingBlock: AJUNOK_clean_linker_0, # of connection points: 2
#     Edge 72, Type (0, 1), BuildingBlock: AJUNOK_clean_linker_0, # of connection points: 2
#     Edge 73, Type (0, 1), BuildingBlock: AJUNOK_clean_linker_0, # of connection points: 2
#     Edge 74, Type (0, 1), BuildingBlock: AJUNOK_clean_linker_0, # of connection points: 2
#     Edge 75, Type (0, 1), BuildingBlock: AJUNOK_clean_linker_0, # of connection points: 2
# Relax obj value: 0.066
# Max RMSD: 0.170
# Mean RMSD: 0.101
data_MOF--net-ctn--node1-OLANEW_clean_sbu_2--node2-KUFVIS_clean_sbu_0--edge1-AJUNOK_clean_linker_0
_symmetry_space_group_name_H-M    P1
_symmetry_Int_Tables_number       1
_symmetry_cell_setting            triclinic
loop_
_symmetry_equiv_pos_as_xyz
'x, y, z'
_cell_length_a     42.960978
_cell_length_b     43.917469
_cell_length_c     41.678561
_cell_angle_alpha  92.526038
_cell_angle_beta   95.134523
_cell_angle_gamma 98.481857
loop_
_atom_site_label
_atom_site_type_symbol
_atom_site_fract_x
_atom_site_fract_y
_atom_site_fract_z
_atom_type_partial_charge
O0 O 0.05079 0.06365 0.99608 0.0
Cd1 Cd 0.05987 0.01565 0.02157 0.0
O2 O 0.01765 0.06606 0.03231 0.0
Cd3 Cd 0.98295 0.07892 0.06384 0.0
O4 O 0.96034 0.0628 0.10646 0.0
C5 C 0.95206 0.07949 0.12892 0.0
O6 O 0.95551 0.10953 0.12676 0.0
C7 C 0.03004 0.07742 0.00802 0.0
C8 C 0.11454 0.9902 0.01131 0.0
O9 O 0.09033 0.98592 0.99039 0.0
O10 O 0.1134 0.00739 0.03672 0.0
O11 O 0.36791 0.73383 0.25169 0.0
Cd12 Cd 0.31977 0.72777 0.21457 0.0
O13 O 0.37837 0.687 0.24174 0.0
Cd14 Cd 0.33325 0.67222 0.2132 0.0
O15 O 0.28727 0.64355 0.21267 0.0
C16 C 0.27675 0.64148 0.24015 0.0
O17 O 0.29317 0.6577 0.26492 0.0
C18 C 0.3859 0.71352 0.25617 0.0
C19 C 0.31637 0.77756 0.17531 0.0
O20 O 0.30478 0.7771 0.2026 0.0
O21 O 0.3299 0.75471 0.16697 0.0
O22 O 0.98083 0.50361 0.11473 0.0
Cd23 Cd 0.93776 0.4874 0.07208 0.0
O24 O 1.00064 0.46011 0.11193 0.0
Cd25 Cd 0.97147 0.43384 0.07164 0.0
O26 O 0.96431 0.39047 0.04211 0.0
C27 C 0.9887 0.37888 0.03585 0.0
O28 O 0.01678 0.39409 0.04601 0.0
C29 C 0.00106 0.48694 0.1249 0.0
C30 C 0.90147 0.53394 0.0575 0.0
O31 O 0.89772 0.51836 0.0825 0.0
O32 O 0.92246 0.52773 0.03926 0.0
O33 O 0.72527 0.88072 0.1661 0.0
Cd34 Cd 0.68324 0.83846 0.14686 0.0
O35 O 0.70735 0.87128 0.21244 0.0
Cd36 Cd 0.69978 0.87521 0.26357 0.0
O37 O 0.67667 0.85963 0.30568 0.0
C38 C 0.64987 0.86734 0.30969 0.0
O39 O 0.63851 0.88624 0.28972 0.0
C40 C 0.72662 0.88744 0.19618 0.0
C41 C 0.70106 0.79308 0.10653 0.0
O42 O 0.69015 0.81641 0.09506 0.0
O43 O 0.70428 0.79163 0.13728 0.0
O44 O 0.10206 0.98839 0.50963 0.0
Cd45 Cd 0.05316 0.9518 0.49654 0.0
O46 O 0.0791 0.02786 0.52381 0.0
Cd47 Cd 0.03321 0.0059 0.50066 0.0
O48 O 0.99735 1.0001 0.45918 0.0
C49 C 0.99163 0.02411 0.44513 0.0
O50 O 0.0067 0.0511 0.45677 0.0
C51 C 0.10405 0.01599 0.5211 0.0
C52 C 0.04041 0.91 0.54422 0.0
O53 O 0.06127 0.90675 0.52474 0.0
O54 O 0.02552 0.93312 0.54146 0.0
O55 O 0.22316 0.71983 0.89625 0.0
Cd56 Cd 0.20924 0.67764 0.85473 0.0
O57 O 0.17367 0.72605 0.89949 0.0
Cd58 Cd 0.15421 0.69499 0.85815 0.0
O59 O 0.12417 0.69312 0.81297 0.0
C60 C 0.09484 0.69351 0.81452 0.0
O61 O 0.08372 0.69218 0.84287 0.0
C62 C 0.20282 0.73341 0.90919 0.0
C63 C 0.25721 0.64191 0.84672 0.0
O64 O 0.23636 0.63463 0.86633 0.0
O65 O 0.25568 0.66642 0.83141 0.0
O66 O 0.99462 0.53318 0.44217 0.0
Cd67 Cd 0.97028 0.54452 0.49179 0.0
O68 O 0.04185 0.5348 0.46796 0.0
Cd69 Cd 0.02721 0.5536 0.5125 0.0
O70 O 0.02106 0.59039 0.54723 0.0
C71 C 0.00391 0.61047 0.53878 0.0
O72 O 0.98876 0.60759 0.50974 0.0
C73 C 0.02365 0.53028 0.44186 0.0
C74 C 0.91175 0.5087 0.49751 0.0
O75 O 0.91382 0.53366 0.4825 0.0
O76 O 0.9375 0.5005 0.5097 0.0
O77 O 0.84201 0.79013 0.88147 0.0
Cd78 Cd 0.85336 0.83522 0.84931 0.0
O79 O 0.7908 0.78748 0.86822 0.0
Cd80 Cd 0.79006 0.83314 0.84938 0.0
O81 O 0.7651 0.87284 0.84198 0.0
C82 C 0.73526 0.86784 0.8429 0.0
O83 O 0.72182 0.83982 0.84792 0.0
C84 C 0.81395 0.77603 0.88147 0.0
C85 C 0.88078 0.81839 0.79395 0.0
O86 O 0.89798 0.83005 0.81951 0.0
O87 O 0.8507 0.81534 0.79438 0.0
O88 O 0.33933 0.29385 0.39644 0.0
Cd89 Cd 0.35096 0.34008 0.3657 0.0
O90 O 0.28831 0.29509 0.3866 0.0
Cd91 Cd 0.29014 0.34012 0.36593 0.0
O92 O 0.26827 0.38077 0.35432 0.0
C93 C 0.23823 0.37648 0.35004 0.0
O94 O 0.223 0.34849 0.35203 0.0
C95 C 0.3108 0.28182 0.39834 0.0
C96 C 0.38174 0.32878 0.31086 0.0
O97 O 0.39741 0.3398 0.3375 0.0
O98 O 0.35155 0.32308 0.31015 0.0
O99 O 0.4897 0.01822 0.62079 0.0
Cd100 Cd 0.46265 0.01006 0.566 0.0
O101 O 0.50369 0.97201 0.62417 0.0
Cd102 Cd 0.48391 0.9494 0.57764 0.0
O103 O 0.48091 0.90885 0.54436 0.0
C104 C 0.50535 0.89572 0.54351 0.0
O105 O 0.53117 0.90755 0.56182 0.0
C106 C 0.5035 0.999 0.63651 0.0
C107 C 0.41449 0.04622 0.55512 0.0
O108 O 0.40822 0.01796 0.56203 0.0
O109 O 0.44351 0.05753 0.55345 0.0
O110 O 0.22802 0.37168 0.69748 0.0
Cd111 Cd 0.18627 0.3272 0.68674 0.0
O112 O 0.21615 0.37796 0.74739 0.0
Cd113 Cd 0.17617 0.34141 0.74814 0.0
O114 O 0.14175 0.31739 0.77735 0.0
C115 C 0.12238 0.33249 0.78992 0.0
O116 O 0.12269 0.36156 0.78356 0.0
C117 C 0.2333 0.38609 0.72502 0.0
C118 C 0.20186 0.28329 0.64271 0.0
O119 O 0.18632 0.30457 0.63326 0.0
O120 O 0.21007 0.28286 0.67299 0.0
O121 O 0.85041 0.21803 0.74705 0.0
Cd122 Cd 0.80693 0.21571 0.70432 0.0
O123 O 0.86448 0.17382 0.73191 0.0
Cd124 Cd 0.82282 0.16174 0.69754 0.0
O125 O 0.77859 0.1326 0.70407 0.0
C126 C 0.7762 0.12813 0.73373 0.0
O127 O 0.79885 0.14199 0.75499 0.0
C128 C 0.86881 0.19794 0.75073 0.0
C129 C 0.80606 0.26896 0.66958 0.0
O130 O 0.79206 0.26572 0.69539 0.0
O131 O 0.82112 0.24738 0.66077 0.0
O132 O 0.56831 0.59202 0.51314 0.0
Cd133 Cd 0.59031 0.55858 0.5527 0.0
O134 O 0.52437 0.59085 0.53684 0.0
Cd135 Cd 0.53182 0.55845 0.57407 0.0
O136 O 0.51132 0.53964 0.61661 0.0
C137 C 0.49456 0.5571 0.63004 0.0
O138 O 0.49216 0.58386 0.61791 0.0
C139 C 0.54151 0.60079 0.51506 0.0
C140 C 0.62459 0.51275 0.53212 0.0
O141 O 0.59555 0.50598 0.53757 0.0
O142 O 0.63707 0.54122 0.535 0.0
O143 O 0.59044 0.50059 0.00638 0.0
Cd144 Cd 0.53838 0.46819 0.99771 0.0
O145 O 0.57488 0.54081 0.02981 0.0
Cd146 Cd 0.52581 0.52319 0.01311 0.0
O147 O 0.49252 0.52066 0.96999 0.0
C148 C 0.5039 0.51475 0.94369 0.0
O149 O 0.53327 0.50947 0.94492 0.0
C150 C 0.59702 0.52729 0.02061 0.0
C151 C 0.52646 0.42653 0.04556 0.0
O152 O 0.545 0.42185 0.02405 0.0
O153 O 0.51367 0.4511 0.0449 0.0
O154 O 0.71136 0.19858 0.4517 0.0
Cd155 Cd 0.69641 0.14464 0.43224 0.0
O156 O 0.66853 0.20642 0.42295 0.0
Cd157 Cd 0.63502 0.23307 0.39955 0.0
O158 O 0.60123 0.24223 0.36041 0.0
C159 C 0.61093 0.24469 0.33259 0.0
O160 O 0.64066 0.24263 0.32919 0.0
C161 C 0.69296 0.21707 0.44179 0.0
C162 C 0.74212 0.12109 0.39917 0.0
O163 O 0.72285 0.13702 0.38502 0.0
O164 O 0.74003 0.11652 0.42912 0.0
O165 O 0.50489 0.04632 0.95971 0.0
Cd166 Cd 0.47921 0.05982 0.00754 0.0
O167 O 0.55285 0.05461 0.98485 0.0
Cd168 Cd 0.53709 0.0768 0.02719 0.0
O169 O 0.52912 0.11405 0.06069 0.0
C170 C 0.50848 0.13108 0.05285 0.0
O171 O 0.49128 0.12511 0.025 0.0
C172 C 0.53439 0.04574 0.95953 0.0
C173 C 0.42151 0.02162 0.01016 0.0
O174 O 0.42332 0.04635 0.99477 0.0
O175 O 0.44706 0.01512 0.02473 0.0
Mn176 Mn 0.26437 0.88114 0.03181 0.0
Mn177 Mn 0.26 0.89321 0.95229 0.0
C178 C 0.23885 0.84303 0.99471 0.0
C179 C 0.2892 0.8625 0.07748 0.0
C180 C 0.21891 0.92035 0.99807 0.0
O181 O 0.29917 0.9177 0.02973 0.0
O182 O 0.29432 0.92344 0.97604 0.0
C183 C 0.3217 0.87606 0.93818 0.0
N184 N 0.28958 0.87169 0.93259 0.0
C185 C 0.29036 0.83167 0.89145 0.0
C186 C 0.32346 0.8359 0.89662 0.0
C187 C 0.33917 0.85811 0.92016 0.0
C188 C 0.27421 0.85028 0.9101 0.0
H189 H 0.33389 0.89311 0.95624 0.0
C190 C 0.30742 0.9313 0.00466 0.0
O191 O 0.26984 0.8824 0.08006 0.0
O192 O 0.2955 0.85516 0.04859 0.0
N193 N 0.22808 0.8652 0.92654 0.0
C194 C 0.19605 0.86349 0.92503 0.0
C195 C 0.1768 0.84207 0.90297 0.0
C196 C 0.19066 0.82265 0.88268 0.0
C197 C 0.22368 0.82493 0.88457 0.0
C198 C 0.24166 0.84692 0.9068 0.0
H199 H 0.18525 0.87804 0.94084 0.0
O200 O 0.23192 0.84332 0.02434 0.0
O201 O 0.26003 0.86534 0.98758 0.0
O202 O 0.23031 0.9091 0.02355 0.0
O203 O 0.22829 0.91562 0.97031 0.0
C204 C 0.23943 0.80602 0.86547 0.0
C205 C 0.27275 0.80938 0.86892 0.0
H206 H 0.33702 0.82201 0.88287 0.0
H207 H 0.3647 0.86139 0.92442 0.0
H208 H 0.15133 0.84036 0.90177 0.0
H209 H 0.17574 0.80595 0.86594 0.0
H210 H 0.22615 0.78867 0.84823 0.0
H211 H 0.28459 0.79454 0.85428 0.0
Mn212 Mn 0.14023 0.51096 0.2879 0.0
Mn213 Mn 0.11812 0.58159 0.28505 0.0
C214 C 0.17104 0.55031 0.26539 0.0
C215 C 0.16617 0.47365 0.31218 0.0
C216 C 0.08945 0.52846 0.23827 0.0
O217 O 0.10822 0.50949 0.32115 0.0
O218 O 0.09434 0.55679 0.31641 0.0
C219 C 0.14411 0.6049 0.35126 0.0
N220 N 0.14279 0.6078 0.31878 0.0
C221 C 0.18085 0.65422 0.32558 0.0
C222 C 0.18246 0.65183 0.35911 0.0
C223 C 0.16403 0.62704 0.37199 0.0
C224 C 0.16045 0.63155 0.30613 0.0
H225 H 0.13014 0.5858 0.36129 0.0
C226 C 0.09201 0.53039 0.3287 0.0
O227 O 0.14234 0.46631 0.29046 0.0
O228 O 0.17416 0.50274 0.32085 0.0
N229 N 0.13942 0.6082 0.25611 0.0
C230 C 0.13588 0.60663 0.22323 0.0
C231 C 0.15313 0.62946 0.20654 0.0
C232 C 0.17361 0.65375 0.2238 0.0
C233 C 0.17646 0.65516 0.25762 0.0
C234 C 0.15846 0.6319 0.27295 0.0
H235 H 0.12026 0.58795 0.20982 0.0
O236 O 0.1728 0.52176 0.25744 0.0
O237 O 0.15128 0.55505 0.28631 0.0
O238 O 0.10514 0.509 0.25118 0.0
O239 O 0.09218 0.55652 0.24893 0.0
C240 C 0.19684 0.67843 0.27673 0.0
C241 C 0.19908 0.67793 0.31068 0.0
H242 H 0.19792 0.66877 0.37517 0.0
H243 H 0.16526 0.62495 0.39783 0.0
H244 H 0.15079 0.62821 0.18043 0.0
H245 H 0.18714 0.67112 0.21083 0.0
H246 H 0.21117 0.69663 0.26556 0.0
H247 H 0.2151 0.69576 0.3251 0.0
Mn248 Mn 0.76451 0.63759 0.01467 0.0
Mn249 Mn 0.69966 0.6474 0.96632 0.0
C250 C 0.71678 0.60647 0.01883 0.0
C251 C 0.81007 0.61488 0.02376 0.0
C252 C 0.72534 0.68927 0.02557 0.0
O253 O 0.78303 0.66503 0.98048 0.0
O254 O 0.73848 0.66641 0.94823 0.0
C255 C 0.7101 0.60765 0.91032 0.0
N256 N 0.69129 0.615 0.9332 0.0
C257 C 0.6491 0.57522 0.91155 0.0
C258 C 0.66794 0.56729 0.88764 0.0
C259 C 0.69865 0.58348 0.88715 0.0
C260 C 0.66197 0.59921 0.93428 0.0
H261 H 0.73363 0.6202 0.90976 0.0
C262 C 0.76837 0.67348 0.95518 0.0
O263 O 0.80668 0.64005 0.03976 0.0
O264 O 0.78769 0.60375 0.00156 0.0
N265 N 0.65978 0.63062 0.98023 0.0
C266 C 0.64418 0.64202 0.00403 0.0
C267 C 0.61298 0.62868 0.00758 0.0
C268 C 0.59792 0.60422 0.98622 0.0
C269 C 0.61412 0.59348 0.96134 0.0
C270 C 0.64513 0.60773 0.95894 0.0
H271 H 0.65543 0.66117 0.02017 0.0
O272 O 0.7393 0.60901 0.04206 0.0
O273 O 0.72312 0.62134 0.9933 0.0
O274 O 0.74779 0.67464 0.03495 0.0
O275 O 0.70639 0.68121 1.00019 0.0
C276 C 0.60058 0.56945 0.93859 0.0
C277 C 0.61811 0.56017 0.91383 0.0
H278 H 0.65913 0.54877 0.86963 0.0
H279 H 0.71338 0.57743 0.86883 0.0
H280 H 0.60053 0.63731 0.02665 0.0
H281 H 0.57385 0.59399 0.98902 0.0
H282 H 0.57667 0.55802 0.93987 0.0
H283 H 0.60749 0.54154 0.89659 0.0
Mn284 Mn 0.84819 0.02852 0.28913 0.0
Mn285 Mn 0.87771 0.9634 0.27124 0.0
C286 C 0.8172 0.98899 0.2575 0.0
C287 C 0.82293 0.05777 0.32368 0.0
C288 C 0.89458 0.02333 0.23839 0.0
O289 O 0.88683 0.03104 0.32171 0.0
O290 O 0.90157 0.98483 0.3111 0.0
C291 C 0.85961 0.92823 0.32744 0.0
N292 N 0.85886 0.93038 0.29489 0.0
C293 C 0.82811 0.87986 0.28529 0.0
C294 C 0.82883 0.87698 0.31871 0.0
C295 C 0.84456 0.90131 0.33987 0.0
C296 C 0.84364 0.90718 0.27432 0.0
H297 H 0.8715 0.94695 0.34379 0.0
C298 C 0.90414 0.01038 0.32794 0.0
O299 O 0.84101 0.07062 0.30316 0.0
O300 O 0.82018 0.02801 0.32467 0.0
N301 N 0.85664 0.93998 0.23359 0.0
C302 C 0.85651 0.94711 0.20208 0.0
C303 C 0.84097 0.92555 0.17784 0.0
C304 C 0.82588 0.89681 0.1862 0.0
C305 C 0.82659 0.88985 0.21874 0.0
C306 C 0.84269 0.91216 0.24183 0.0
H307 H 0.86787 0.96921 0.19546 0.0
O308 O 0.81045 0.01681 0.2571 0.0
O309 O 0.84151 0.98498 0.27691 0.0
O310 O 0.87623 0.03856 0.25265 0.0
O311 O 0.89786 0.99572 0.24481 0.0
C312 C 0.81137 0.86191 0.22921 0.0
C313 C 0.81207 0.85695 0.26246 0.0
H314 H 0.81711 0.85632 0.3284 0.0
H315 H 0.84502 0.89935 0.36569 0.0
H316 H 0.84044 0.93115 0.15279 0.0
H317 H 0.81359 0.88039 0.16746 0.0
H318 H 0.79863 0.84429 0.21191 0.0
H319 H 0.79986 0.83557 0.27024 0.0
Mn320 Mn 0.26426 0.13865 0.52906 0.0
Mn321 Mn 0.1968 0.15182 0.48741 0.0
C322 C 0.21714 0.10626 0.53297 0.0
C323 C 0.31036 0.11617 0.53245 0.0
C324 C 0.22525 0.18818 0.54935 0.0
O325 O 0.28058 0.16884 0.49612 0.0
O326 O 0.23414 0.17369 0.46891 0.0
C327 C 0.20466 0.11841 0.42611 0.0
N328 N 0.18718 0.12269 0.45116 0.0
C329 C 0.14513 0.08323 0.42842 0.0
C330 C 0.16259 0.07853 0.40226 0.0
C331 C 0.19256 0.09609 0.4012 0.0
C332 C 0.15857 0.10556 0.45271 0.0
H333 H 0.22765 0.13194 0.42515 0.0
C334 C 0.26433 0.1798 0.47347 0.0
O335 O 0.30783 0.14016 0.55084 0.0
O336 O 0.28659 0.10595 0.51143 0.0
N337 N 0.15829 0.13226 0.50214 0.0
C338 C 0.14397 0.14049 0.5284 0.0
C339 C 0.11354 0.12556 0.53276 0.0
C340 C 0.09793 0.1027 0.50983 0.0
C341 C 0.11284 0.09509 0.48264 0.0
C342 C 0.14309 0.11091 0.47948 0.0
H343 H 0.15563 0.15837 0.54586 0.0
O344 O 0.24056 0.10731 0.55509 0.0
O345 O 0.22214 0.12372 0.50903 0.0
O346 O 0.24881 0.17375 0.55425 0.0
O347 O 0.20472 0.18215 0.52485 0.0
C348 C 0.09878 0.07261 0.45842 0.0
C349 C 0.115 0.06654 0.43144 0.0
H350 H 0.1533 0.06141 0.38295 0.0
H351 H 0.20624 0.0925 0.38117 0.0
H352 H 0.10209 0.13173 0.55368 0.0
H353 H 0.07446 0.09124 0.51328 0.0
H354 H 0.07553 0.0598 0.46035 0.0
H355 H 0.10402 0.04908 0.41307 0.0
Mn356 Mn 0.37063 0.52654 0.78033 0.0
Mn357 Mn 0.39547 0.45769 0.76968 0.0
C358 C 0.33836 0.48596 0.75124 0.0
C359 C 0.34482 0.56099 0.80839 0.0
C360 C 0.41866 0.51338 0.73318 0.0
O361 O 0.40669 0.52866 0.81605 0.0
O362 O 0.42066 0.48155 0.80732 0.0
C363 C 0.37596 0.4297 0.82952 0.0
N364 N 0.37411 0.42907 0.79669 0.0
C365 C 0.33769 0.38152 0.79218 0.0
C366 C 0.33935 0.38158 0.82594 0.0
C367 C 0.35853 0.40581 0.84467 0.0
C368 C 0.35572 0.40587 0.77843 0.0
H369 H 0.39059 0.44829 0.84404 0.0
C370 C 0.42354 0.50773 0.82306 0.0
O371 O 0.36582 0.57043 0.78904 0.0
O372 O 0.3399 0.53162 0.81251 0.0
N373 N 0.3723 0.43234 0.73433 0.0
C374 C 0.3731 0.43584 0.70208 0.0
C375 C 0.35501 0.41362 0.67998 0.0
C376 C 0.3364 0.38801 0.69126 0.0
C377 C 0.33617 0.38478 0.72457 0.0
C378 C 0.35488 0.40751 0.74543 0.0
H379 H 0.38733 0.45549 0.69326 0.0
O380 O 0.33425 0.51414 0.74641 0.0
O381 O 0.36158 0.48266 0.77227 0.0
O382 O 0.40195 0.53126 0.74616 0.0
O383 O 0.4182 0.48533 0.74029 0.0
C384 C 0.31785 0.36004 0.73787 0.0
C385 C 0.31859 0.35844 0.77165 0.0
H386 H 0.3258 0.36328 0.83772 0.0
H387 H 0.3598 0.4061 0.87073 0.0
H388 H 0.35531 0.41629 0.65432 0.0
H389 H 0.32229 0.37107 0.67416 0.0
H390 H 0.30297 0.34224 0.72234 0.0
H391 H 0.30425 0.33941 0.7816 0.0
Mn392 Mn 0.75036 0.37884 0.53431 0.0
Mn393 Mn 0.73974 0.39126 0.45519 0.0
C394 C 0.72059 0.34159 0.49865 0.0
C395 C 0.7777 0.35859 0.57747 0.0
C396 C 0.70588 0.42143 0.50581 0.0
O397 O 0.78613 0.41394 0.52914 0.0
O398 O 0.77774 0.4192 0.47544 0.0
C399 C 0.79681 0.3693 0.43363 0.0
N400 N 0.76472 0.36685 0.43216 0.0
C401 C 0.75814 0.32358 0.3934 0.0
C402 C 0.79111 0.32575 0.39437 0.0
C403 C 0.81051 0.34872 0.41458 0.0
C404 C 0.74583 0.34497 0.41264 0.0
H405 H 0.81184 0.38676 0.4493 0.0
C406 C 0.79328 0.42657 0.50312 0.0
O407 O 0.75996 0.37959 0.58226 0.0
O408 O 0.7811 0.35111 0.54772 0.0
N409 N 0.70396 0.36479 0.43342 0.0
C410 C 0.67264 0.36522 0.43601 0.0
C411 C 0.65004 0.34334 0.41775 0.0
C412 C 0.65987 0.32123 0.3971 0.0
C413 C 0.69225 0.32132 0.39477 0.0
C414 C 0.71366 0.3439 0.41326 0.0
H415 H 0.66498 0.38198 0.45208 0.0
O416 O 0.71614 0.34225 0.52902 0.0
O417 O 0.74155 0.36341 0.49023 0.0
O418 O 0.71758 0.40841 0.52987 0.0
O419 O 0.71274 0.41697 0.47693 0.0
C420 C 0.70411 0.29959 0.37522 0.0
C421 C 0.73703 0.30073 0.3745 0.0
H422 H 0.80177 0.30973 0.37994 0.0
H423 H 0.83598 0.35043 0.4156 0.0
H424 H 0.6251 0.34336 0.41976 0.0
H425 H 0.64239 0.30418 0.38333 0.0
H426 H 0.68816 0.28177 0.36081 0.0
H427 H 0.74585 0.28377 0.35952 0.0
Mn428 Mn 0.63872 0.00844 0.79861 0.0
Mn429 Mn 0.62571 0.08248 0.7994 0.0
C430 C 0.67058 0.0447 0.77304 0.0
C431 C 0.6624 0.96785 0.81903 0.0
C432 C 0.58701 0.03233 0.75475 0.0
O433 O 0.61145 0.01061 0.83595 0.0
O434 O 0.60232 0.05974 0.83231 0.0
C435 C 0.65877 0.1023 0.86405 0.0
N436 N 0.65539 0.10567 0.83164 0.0
C437 C 0.69796 0.14839 0.83624 0.0
C438 C 0.70174 0.14549 0.86968 0.0
C439 C 0.68211 0.12229 0.88361 0.0
C440 C 0.67429 0.12781 0.81796 0.0
H441 H 0.64379 0.08449 0.8749 0.0
C442 C 0.59846 0.03349 0.84487 0.0
O443 O 0.63623 0.96299 0.80019 0.0
O444 O 0.67407 0.99639 0.82728 0.0
N445 N 0.64706 0.10744 0.76913 0.0
C446 C 0.64022 0.1073 0.73655 0.0
C447 C 0.65787 0.12901 0.71891 0.0
C448 C 0.68216 0.15076 0.73494 0.0
C449 C 0.68833 0.15085 0.76856 0.0
C450 C 0.66976 0.12885 0.7849 0.0
H451 H 0.62165 0.0906 0.72407 0.0
O452 O 0.66792 0.01567 0.76419 0.0
O453 O 0.6544 0.05174 0.79648 0.0
O454 O 0.60061 0.01059 0.76601 0.0
O455 O 0.5949 0.06047 0.76501 0.0
C456 C 0.71226 0.17182 0.78647 0.0
C457 C 0.71711 0.17057 0.82028 0.0
H458 H 0.7198 0.16077 0.88484 0.0
H459 H 0.68499 0.1198 0.90938 0.0
H460 H 0.65287 0.12887 0.69298 0.0
H461 H 0.69591 0.16728 0.72121 0.0
H462 H 0.72718 0.18893 0.77445 0.0
H463 H 0.73574 0.18666 0.83376 0.0
Mn464 Mn 0.00171 0.23436 0.8984 0.0
Mn465 Mn 0.92959 0.21156 0.92221 0.0
C466 C 0.96168 0.20833 0.86224 0.0
C467 C 0.03796 0.26957 0.87552 0.0
C468 C 0.98681 0.18071 0.94178 0.0
O469 O 0.0015 0.26201 0.93901 0.0
O470 O 0.95136 0.24741 0.9507 0.0
C471 C 0.8988 0.26622 0.90803 0.0
N472 N 0.89999 0.23557 0.9029 0.0
C473 C 0.85362 0.22932 0.86483 0.0
C474 C 0.8518 0.26075 0.86989 0.0
C475 C 0.87449 0.27927 0.89159 0.0
C476 C 0.87817 0.21752 0.88219 0.0
H477 H 0.91632 0.28065 0.92442 0.0
C478 C 0.97824 0.26494 0.95551 0.0
O479 O 0.04709 0.24889 0.89402 0.0
O480 O 0.00789 0.27085 0.87184 0.0
N481 N 0.90652 0.17775 0.89519 0.0
C482 C 0.91214 0.14807 0.89225 0.0
C483 C 0.89189 0.12669 0.87098 0.0
C484 C 0.86609 0.13603 0.85294 0.0
C485 C 0.86076 0.16668 0.85637 0.0
C486 C 0.88161 0.18691 0.87812 0.0
H487 H 0.93201 0.14078 0.90593 0.0
O488 O 0.99101 0.20743 0.85761 0.0
O489 O 0.95709 0.22315 0.88855 0.0
O490 O 0.00556 0.19713 0.9252 0.0
O491 O 0.95802 0.18465 0.94303 0.0
C492 C 0.83586 0.17805 0.83871 0.0
C493 C 0.83227 0.20934 0.84295 0.0
H494 H 0.83326 0.27097 0.85703 0.0
H495 H 0.87336 0.30359 0.89548 0.0
H496 H 0.89622 0.10309 0.86838 0.0
H497 H 0.85065 0.11953 0.83639 0.0
H498 H 0.81946 0.163 0.82163 0.0
H499 H 0.81313 0.21784 0.82908 0.0
Mn500 Mn 0.52364 0.75643 0.40102 0.0
Mn501 Mn 0.44907 0.73583 0.41948 0.0
C502 C 0.48506 0.73292 0.36176 0.0
C503 C 0.56235 0.79336 0.3838 0.0
C504 C 0.50341 0.7013 0.44038 0.0
O505 O 0.52213 0.78163 0.44295 0.0
O506 O 0.47025 0.77067 0.44961 0.0
C507 C 0.42145 0.79201 0.40402 0.0
N508 N 0.42143 0.76114 0.39909 0.0
C509 C 0.37539 0.75633 0.36072 0.0
C510 C 0.37476 0.78801 0.36564 0.0
C511 C 0.39795 0.80593 0.38731 0.0
C512 C 0.3993 0.74371 0.37818 0.0
H513 H 0.43929 0.80594 0.42052 0.0
C514 C 0.49793 0.78603 0.45728 0.0
O515 O 0.56979 0.77074 0.40049 0.0
O516 O 0.53247 0.79485 0.37797 0.0
N517 N 0.42608 0.70288 0.39127 0.0
C518 C 0.43046 0.6728 0.3886 0.0
C519 C 0.40956 0.65189 0.36743 0.0
C520 C 0.3843 0.66206 0.34932 0.0
C521 C 0.38019 0.69309 0.35254 0.0
C522 C 0.40169 0.71285 0.37412 0.0
H523 H 0.4498 0.66479 0.40243 0.0
O524 O 0.51468 0.7322 0.35834 0.0
O525 O 0.47925 0.74696 0.38807 0.0
O526 O 0.52419 0.7169 0.4252 0.0
O527 O 0.47536 0.70767 0.441 0.0
C528 C 0.35581 0.70525 0.33488 0.0
C529 C 0.35345 0.73686 0.33893 0.0
H530 H 0.35677 0.79887 0.35266 0.0
H531 H 0.39776 0.83044 0.39106 0.0
H532 H 0.41294 0.62799 0.36502 0.0
H533 H 0.36834 0.64591 0.33287 0.0
H534 H 0.33894 0.69056 0.31789 0.0
H535 H 0.33478 0.746 0.32499 0.0
Mn536 Mn 0.99827 0.76366 0.65216 0.0
Mn537 Mn 0.94813 0.6996 0.66591 0.0
C538 C 0.99734 0.71911 0.62052 0.0
C539 C 0.00815 0.81053 0.62794 0.0
C540 C 0.01063 0.72057 0.70598 0.0
O541 O 0.96896 0.77982 0.68248 0.0
O542 O 0.93405 0.73673 0.68556 0.0
C543 C 0.89304 0.71365 0.62447 0.0
N544 N 0.91376 0.694 0.63272 0.0
C545 C 0.88916 0.65647 0.59078 0.0
C546 C 0.86716 0.67606 0.58223 0.0
C547 C 0.86922 0.70484 0.59904 0.0
C548 C 0.91239 0.66653 0.61629 0.0
H549 H 0.89487 0.73596 0.63702 0.0
C550 C 0.94379 0.76549 0.69217 0.0
O551 O 0.02532 0.80474 0.65354 0.0
O552 O 0.98442 0.78968 0.61725 0.0
N553 N 0.95797 0.66135 0.64887 0.0
C554 C 0.9807 0.64496 0.66048 0.0
C555 C 0.98201 0.61565 0.64625 0.0
C556 C 0.95957 0.60321 0.62069 0.0
C557 C 0.93573 0.62001 0.60991 0.0
C558 C 0.93548 0.64901 0.62521 0.0
H559 H 0.99787 0.65426 0.6803 0.0
O560 O 0.02086 0.74137 0.62128 0.0
O561 O 0.97398 0.72418 0.63692 0.0
O562 O 0.0198 0.74365 0.68973 0.0
O563 O 0.98368 0.70351 0.70024 0.0
C564 C 0.91232 0.60923 0.58446 0.0
C565 C 0.88915 0.62752 0.57479 0.0
H566 H 0.84879 0.66937 0.5626 0.0
H567 H 0.85256 0.72024 0.59235 0.0
H568 H 1.00033 0.60272 0.6549 0.0
H569 H 0.96084 0.58072 0.60957 0.0
H570 H 0.91206 0.587 0.572 0.0
H571 H 0.87146 0.61911 0.55498 0.0
Mn572 Mn 0.50008 0.28567 0.16348 0.0
Mn573 Mn 0.45872 0.21963 0.18574 0.0
C574 C 0.50149 0.23977 0.13478 0.0
C575 C 0.50321 0.33039 0.13514 0.0
C576 C 0.52109 0.25041 0.22093 0.0
O577 O 0.47078 0.30072 0.19461 0.0
O578 O 0.44106 0.25557 0.20319 0.0
C579 C 0.39773 0.2226 0.14784 0.0
N580 N 0.4225 0.20728 0.15545 0.0
C581 C 0.39962 0.16429 0.11884 0.0
C582 C 0.37373 0.1795 0.11078 0.0
C583 C 0.37287 0.20883 0.12525 0.0
C584 C 0.42377 0.17923 0.14137 0.0
H585 H 0.39701 0.24515 0.15892 0.0
C586 C 0.44805 0.28495 0.20719 0.0
O587 O 0.52275 0.3281 0.1602 0.0
O588 O 0.48102 0.30716 0.12721 0.0
N589 N 0.47288 0.18264 0.17089 0.0
C590 C 0.49924 0.17084 0.18177 0.0
C591 C 0.50384 0.14169 0.16953 0.0
C592 C 0.48108 0.12478 0.14665 0.0
C593 C 0.45371 0.137 0.13654 0.0
C594 C 0.45033 0.16608 0.14974 0.0
H595 H 0.5167 0.18362 0.19952 0.0
O596 O 0.52297 0.26343 0.13263 0.0
O597 O 0.47899 0.24394 0.15273 0.0
O598 O 0.5266 0.27179 0.20157 0.0
O599 O 0.49603 0.23037 0.2179 0.0
C600 C 0.42963 0.12146 0.11391 0.0
C601 C 0.40263 0.13512 0.10502 0.0
H602 H 0.35453 0.16897 0.09335 0.0
H603 H 0.35306 0.22079 0.11902 0.0
H604 H 0.5249 0.1323 0.17767 0.0
H605 H 0.48482 0.1024 0.13709 0.0
H606 H 0.43169 0.09904 0.10312 0.0
H607 H 0.38438 0.12306 0.08743 0.0
C608 C 0.1897 0.77513 0.94628 0.0
C609 C 0.21277 0.75955 0.93355 0.0
C610 C 0.19825 0.80192 0.96656 0.0
C611 C 0.2301 0.81451 0.97409 0.0
H612 H 0.16476 0.76704 0.93998 0.0
H613 H 0.17984 0.81345 0.97546 0.0
S614 S 0.29967 0.77991 0.95286 0.0
N615 N 0.26906 0.75676 0.93409 0.0
N616 N 0.28482 0.80737 0.97194 0.0
C617 C 0.25341 0.79832 0.96345 0.0
C618 C 0.24482 0.77082 0.94313 0.0
C619 C 0.06567 0.51254 0.41096 0.0
C620 C 0.03742 0.52525 0.41102 0.0
C621 C 0.08214 0.51227 0.38336 0.0
C622 C 0.07132 0.52535 0.35509 0.0
H623 H 0.07573 0.50367 0.43275 0.0
H624 H 0.10446 0.50344 0.38484 0.0
S625 S 0.99731 0.55897 0.34155 0.0
N626 N 0.99806 0.54887 0.37928 0.0
N627 N 0.02951 0.5491 0.32782 0.0
C628 C 0.04238 0.53673 0.35427 0.0
C629 C 0.02526 0.53644 0.38211 0.0
C630 C 0.78033 0.72565 0.88627 0.0
C631 C 0.80721 0.7468 0.89777 0.0
C632 C 0.7697 0.70043 0.9038 0.0
C633 C 0.78516 0.69546 0.93398 0.0
H634 H 0.7666 0.72925 0.86403 0.0
H635 H 0.7481 0.68563 0.8943 0.0
S636 S 0.8591 0.74215 0.97289 0.0
N637 N 0.8512 0.75947 0.93938 0.0
N638 N 0.83085 0.71225 0.97294 0.0
C639 C 0.81353 0.71512 0.94462 0.0
C640 C 0.82461 0.74078 0.92641 0.0
C641 C 0.95971 0.99269 0.39864 0.0
C642 C 0.9694 0.02154 0.41533 0.0
C643 C 0.93923 0.98954 0.37018 0.0
C644 C 0.92718 0.01506 0.35728 0.0
H645 H 0.96815 0.97225 0.40747 0.0
H646 H 0.93247 0.9667 0.35852 0.0
S647 S 0.94532 0.09591 0.39165 0.0
N648 N 0.96555 0.07633 0.41673 0.0
N649 N 0.92685 0.07039 0.36343 0.0
C650 C 0.93671 0.04413 0.37371 0.0
C651 C 0.95785 0.04737 0.40262 0.0
C652 C 0.1943 0.25659 0.58765 0.0
C653 C 0.20932 0.25953 0.61929 0.0
C654 C 0.19984 0.2337 0.56529 0.0
C655 C 0.22089 0.21288 0.57343 0.0
H656 H 0.17769 0.2718 0.58011 0.0
H657 H 0.18737 0.23234 0.54138 0.0
S658 S 0.26712 0.21137 0.65297 0.0
N659 N 0.24675 0.24007 0.6575 0.0
N660 N 0.25731 0.19717 0.6155 0.0
C661 C 0.23654 0.2159 0.60488 0.0
C662 C 0.23069 0.23913 0.62777 0.0
C663 C 0.47411 0.51621 0.66644 0.0
C664 C 0.47654 0.54695 0.65754 0.0
C665 C 0.45574 0.50571 0.69109 0.0
C666 C 0.43905 0.52552 0.70802 0.0
H667 H 0.48603 0.49988 0.65389 0.0
H668 H 0.45435 0.48169 0.69655 0.0
S669 S 0.43921 0.60887 0.69538 0.0
N670 N 0.46179 0.59752 0.66863 0.0
N671 N 0.42747 0.57798 0.71483 0.0
C672 C 0.44193 0.55657 0.69984 0.0
C673 C 0.46058 0.56722 0.67469 0.0
C674 C 0.81486 0.29573 0.61864 0.0
C675 C 0.80289 0.29542 0.649 0.0
C676 C 0.80832 0.31763 0.59655 0.0
C677 C 0.7896 0.3403 0.60383 0.0
H678 H 0.82829 0.27808 0.61118 0.0
H679 H 0.8169 0.31583 0.57298 0.0
S680 S 0.75625 0.35241 0.68173 0.0
N681 N 0.77416 0.32191 0.6865 0.0
N682 N 0.76192 0.36308 0.64494 0.0
C683 C 0.77935 0.34169 0.63493 0.0
C684 C 0.78594 0.31925 0.65749 0.0
C685 C 0.53478 0.98571 0.686 0.0
C686 C 0.52141 0.00813 0.66856 0.0
C687 C 0.55478 0.99367 0.7144 0.0
C688 C 0.56249 0.02448 0.72681 0.0
H689 H 0.53048 0.96172 0.67727 0.0
H690 H 0.56498 0.97543 0.72614 0.0
S691 S 0.53111 0.09178 0.69224 0.0
N692 N 0.51536 0.0623 0.66713 0.0
N693 N 0.55289 0.07735 0.72066 0.0
C694 C 0.54799 0.04702 0.71056 0.0
C695 C 0.5275 0.03884 0.68146 0.0
C696 C 0.90767 0.17567 0.78797 0.0
C697 C 0.89367 0.20137 0.77831 0.0
C698 C 0.92977 0.17783 0.81523 0.0
C699 C 0.93809 0.20556 0.83404 0.0
H700 H 0.90117 0.15354 0.77471 0.0
H701 H 0.93993 0.1576 0.82198 0.0
S702 S 0.91206 0.28054 0.81699 0.0
N703 N 0.89231 0.25615 0.78842 0.0
N704 N 0.9337 0.26 0.83949 0.0
C705 C 0.92531 0.23165 0.82408 0.0
C706 C 0.90302 0.22958 0.79634 0.0
C707 C 0.4752 0.84996 0.51074 0.0
C708 C 0.50446 0.86709 0.52286 0.0
C709 C 0.47347 0.82312 0.49083 0.0
C710 C 0.50096 0.81239 0.48169 0.0
H711 H 0.4533 0.85735 0.51659 0.0
H712 H 0.45022 0.81122 0.48187 0.0
S713 S 0.58365 0.84825 0.50803 0.0
N714 N 0.56172 0.87083 0.52532 0.0
N715 N 0.55853 0.82061 0.48755 0.0
C716 C 0.53046 0.82896 0.49423 0.0
C717 C 0.5322 0.85621 0.51485 0.0
C718 C 0.1087 0.29219 0.82894 0.0
C719 C 0.10098 0.31791 0.81272 0.0
C720 C 0.08887 0.27769 0.85044 0.0
C721 C 0.06027 0.28799 0.85618 0.0
H722 H 0.13024 0.28311 0.82498 0.0
H723 H 0.09558 0.2576 0.86181 0.0
S724 S 0.02954 0.35496 0.8206 0.0
N725 N 0.06323 0.35374 0.80473 0.0
N726 N 0.02564 0.32606 0.84469 0.0
C727 C 0.05249 0.314 0.84059 0.0
C728 C 0.07293 0.32907 0.819 0.0
C729 C 0.55276 0.64384 0.47781 0.0
C730 C 0.53084 0.62438 0.49372 0.0
C731 C 0.54366 0.66834 0.46043 0.0
C732 C 0.5122 0.67444 0.45811 0.0
H733 H 0.57739 0.64072 0.47954 0.0
H734 H 0.56167 0.68291 0.44919 0.0
S735 S 0.44491 0.62827 0.49282 0.0
N736 N 0.47573 0.61153 0.5041 0.0
N737 N 0.45866 0.65731 0.47171 0.0
C738 C 0.48982 0.65441 0.47302 0.0
C739 C 0.49911 0.62951 0.4907 0.0
C740 C 0.92769 0.81696 0.76243 0.0
C741 C 0.89537 0.80737 0.76546 0.0
C742 C 0.94278 0.80468 0.73743 0.0
C743 C 0.92627 0.7819 0.71481 0.0
H744 H 0.94167 0.83364 0.77993 0.0
H745 H 0.96792 0.81201 0.7368 0.0
S746 S 0.84078 0.75056 0.7104 0.0
N747 N 0.84688 0.77523 0.74219 0.0
N748 N 0.87536 0.75175 0.69577 0.0
C749 C 0.8937 0.77298 0.71681 0.0
C750 C 0.87822 0.78582 0.74194 0.0
C751 C 0.00115 0.87637 0.573 0.0
C752 C 0.03284 0.88687 0.56818 0.0
C753 C 0.99329 0.85204 0.59301 0.0
C754 C 0.01689 0.83817 0.60974 0.0
H755 H 0.98225 0.88611 0.56015 0.0
H756 H 0.96855 0.84378 0.59511 0.0
S757 S 0.10347 0.85881 0.60696 0.0
N758 N 0.08795 0.88235 0.58249 0.0
N759 N 0.0733 0.83761 0.62117 0.0
C760 C 0.04871 0.84944 0.60622 0.0
C761 C 0.05665 0.87354 0.58513 0.0
C762 C 0.04093 0.69374 0.78653 0.0
C763 C 0.07396 0.69856 0.78556 0.0
C764 C 0.02058 0.70046 0.76049 0.0
C765 C 0.03252 0.7128 0.73272 0.0
H766 H 0.03062 0.68493 0.80769 0.0
H767 H 0.99534 0.69663 0.76244 0.0
S768 S 0.11688 0.72804 0.71699 0.0
N769 N 0.11753 0.71505 0.75358 0.0
N770 N 0.07922 0.72803 0.7049 0.0
C771 C 0.0654 0.71717 0.73107 0.0
C772 C 0.08613 0.70991 0.75739 0.0
C773 C 0.97789 0.65557 0.55446 0.0
C774 C 0.00217 0.63762 0.5606 0.0
C775 C 0.97592 0.68166 0.57442 0.0
C776 C 0.99816 0.69059 0.60113 0.0
H777 H 0.96009 0.64935 0.53423 0.0
H778 H 0.95703 0.69499 0.56886 0.0
S779 S 0.06735 0.65323 0.62679 0.0
N780 N 0.04963 0.63172 0.59496 0.0
N781 N 0.04607 0.68113 0.63184 0.0
C782 C 0.02306 0.67364 0.607 0.0
C783 C 0.02489 0.64688 0.58706 0.0
C784 C 0.7602 0.91435 0.24443 0.0
C785 C 0.74958 0.91374 0.21143 0.0
C786 C 0.78208 0.93889 0.25919 0.0
C787 C 0.79471 0.96328 0.24131 0.0
H788 H 0.75243 0.89538 0.25887 0.0
H789 H 0.78945 0.93861 0.28471 0.0
S790 S 0.77415 0.97373 0.15479 0.0
N791 N 0.7528 0.94061 0.16164 0.0
N792 N 0.79424 0.98649 0.18961 0.0
C793 C 0.78391 0.96349 0.20863 0.0
C794 C 0.76157 0.93858 0.19353 0.0
C795 C 0.77462 0.07924 0.39071 0.0
C796 C 0.76495 0.10694 0.38101 0.0
C797 C 0.79389 0.0638 0.37232 0.0
C798 C 0.80481 0.07584 0.34395 0.0
H799 H 0.76635 0.06879 0.41207 0.0
H800 H 0.8 0.04208 0.38023 0.0
S801 S 0.78815 0.1489 0.30942 0.0
N802 N 0.76885 0.14653 0.34197 0.0
N803 N 0.8057 0.11793 0.30783 0.0
C804 C 0.79636 0.10417 0.33468 0.0
C805 C 0.77623 0.11959 0.35308 0.0
C806 C 0.38831 0.9768 0.03192 0.0
C807 C 0.3911 1.00056 0.01024 0.0
C808 C 0.36058 0.95528 0.03103 0.0
C809 C 0.33478 0.95643 0.00808 0.0
H810 H 0.40788 0.97447 0.04946 0.0
H811 H 0.35985 0.93692 0.0476 0.0
S812 S 0.32895 0.01523 0.94743 0.0
N813 N 0.3647 0.02491 0.96639 0.0
N814 N 0.31291 0.98429 0.9645 0.0
C815 C 0.33683 0.9806 0.98695 0.0
C816 C 0.36488 0.00272 0.9881 0.0
C817 C 0.1886 0.39518 0.32892 0.0
C818 C 0.22033 0.40207 0.3421 0.0
C819 C 0.17115 0.41855 0.3201 0.0
C820 C 0.18451 0.44983 0.32451 0.0
H821 H 0.17721 0.37147 0.32469 0.0
H822 H 0.14703 0.41194 0.30942 0.0
S823 S 0.26623 0.48045 0.35954 0.0
N824 N 0.26415 0.44264 0.36011 0.0
N825 N 0.23117 0.4866 0.34388 0.0
C826 C 0.21594 0.45718 0.33849 0.0
C827 C 0.23391 0.43331 0.34713 0.0
C828 C 0.14127 0.05826 0.55272 0.0
C829 C 0.13515 0.0358 0.52688 0.0
C830 C 0.16874 0.08035 0.55555 0.0
C831 C 0.18998 0.08145 0.53177 0.0
H832 H 0.12432 0.05926 0.57034 0.0
H833 H 0.17248 0.09766 0.57541 0.0
S834 S 0.18695 0.02577 0.46181 0.0
N835 N 0.15452 0.01411 0.47915 0.0
N836 N 0.20531 0.05643 0.48386 0.0
C837 C 0.18508 0.0582 0.50692 0.0
C838 C 0.15776 0.0352 0.50455 0.0
C839 C 0.72563 0.09127 0.72117 0.0
C840 C 0.74925 0.107 0.74419 0.0
C841 C 0.70017 0.07088 0.73056 0.0
C842 C 0.69702 0.06631 0.76327 0.0
H843 H 0.72678 0.09462 0.6957 0.0
H844 H 0.6825 0.05913 0.7122 0.0
S845 S 0.75409 0.09818 0.83276 0.0
N846 N 0.76897 0.11398 0.80117 0.0
N847 N 0.72092 0.07599 0.81842 0.0
C848 C 0.72083 0.08089 0.78643 0.0
C849 C 0.74691 0.10131 0.77699 0.0
C850 C 0.35851 0.05043 0.53616 0.0
C851 C 0.3888 0.06495 0.54876 0.0
C852 C 0.33364 0.06741 0.53001 0.0
C853 C 0.33784 0.09948 0.53699 0.0
H854 H 0.354 0.02572 0.53079 0.0
H855 H 0.31069 0.05515 0.5205 0.0
S856 S 0.41252 0.14862 0.57005 0.0
N857 N 0.42178 0.11346 0.56739 0.0
N858 N 0.37468 0.14521 0.55683 0.0
C859 C 0.36798 0.11434 0.54956 0.0
C860 C 0.39355 0.09713 0.55514 0.0
C861 C 0.66825 0.49446 0.50405 0.0
C862 C 0.64372 0.48841 0.52419 0.0
C863 C 0.68767 0.4723 0.4975 0.0
C864 C 0.68395 0.44367 0.5117 0.0
H865 H 0.67245 0.51649 0.49322 0.0
H866 H 0.70633 0.47797 0.48193 0.0
S867 S 0.62333 0.41635 0.56611 0.0
N868 N 0.61641 0.4513 0.55772 0.0
N869 N 0.65373 0.41023 0.54639 0.0
C870 C 0.65955 0.4373 0.53183 0.0
C871 C 0.63921 0.4595 0.53779 0.0
C872 C 0.67535 0.26625 0.46039 0.0
C873 C 0.69989 0.25011 0.45249 0.0
C874 C 0.68196 0.29645 0.47447 0.0
C875 C 0.71319 0.31176 0.47998 0.0
H876 H 0.65102 0.25495 0.45723 0.0
H877 H 0.66263 0.30771 0.48157 0.0
S878 S 0.78575 0.27979 0.46358 0.0
N879 N 0.75654 0.25182 0.45112 0.0
N880 N 0.76885 0.30857 0.47712 0.0
C881 C 0.73781 0.29614 0.47155 0.0
C882 C 0.73118 0.26534 0.4578 0.0
C883 C 0.57719 0.02688 0.93054 0.0
C884 C 0.54782 0.03768 0.92926 0.0
C885 C 0.59252 0.02323 0.90254 0.0
C886 C 0.57928 0.03091 0.87249 0.0
H887 H 0.58889 0.02209 0.95348 0.0
H888 H 0.61569 0.01614 0.90473 0.0
S889 S 0.50215 0.05803 0.85546 0.0
N890 N 0.5052 0.05388 0.89476 0.0
N891 N 0.5346 0.04796 0.84251 0.0
C892 C 0.54945 0.04047 0.8706 0.0
C893 C 0.53352 0.04356 0.89889 0.0
C894 C 0.27341 0.23451 0.40611 0.0
C895 C 0.30278 0.25293 0.415 0.0
C896 C 0.26235 0.20975 0.42405 0.0
C897 C 0.27996 0.2024 0.45207 0.0
H898 H 0.25825 0.23982 0.38555 0.0
H899 H 0.2391 0.19703 0.41644 0.0
S900 S 0.36007 0.24156 0.48385 0.0
N901 N 0.35074 0.2606 0.45194 0.0
N902 N 0.32974 0.21411 0.48621 0.0
C903 C 0.31036 0.2194 0.46014 0.0
C904 C 0.3218 0.24465 0.44151 0.0
C905 C 0.45677 0.52767 0.91001 0.0
C906 C 0.48469 0.5143 0.91221 0.0
C907 C 0.4379 0.52697 0.88061 0.0
C908 C 0.44602 0.51244 0.85248 0.0
H909 H 0.44925 0.53859 0.93119 0.0
H910 H 0.41617 0.53678 0.88023 0.0
S911 S 0.51748 0.47553 0.84466 0.0
N912 N 0.52023 0.48746 0.88307 0.0
N913 N 0.48448 0.48574 0.82814 0.0
C914 C 0.47421 0.49968 0.85412 0.0
C915 C 0.49362 0.50072 0.88389 0.0
C916 C 0.72431 0.74459 0.09807 0.0
C917 C 0.70863 0.76789 0.085 0.0
C918 C 0.73027 0.71963 0.0786 0.0
C919 C 0.72045 0.71677 0.04535 0.0
H920 H 0.73182 0.74542 0.12365 0.0
H921 H 0.74199 0.70207 0.0899 0.0
S922 S 0.68002 0.77231 0.99878 0.0
N923 N 0.68457 0.78707 0.03631 0.0
N924 N 0.69559 0.74016 0.99986 0.0
C925 C 0.70532 0.74021 0.03183 0.0
C926 C 0.6995 0.76576 0.05158 0.0
C927 C 0.92222 0.08173 0.17787 0.0
C928 C 0.9388 0.06506 0.15739 0.0
C929 C 0.90867 0.06832 0.20431 0.0
C930 C 0.91136 0.03771 0.21166 0.0
H931 H 0.91912 0.1052 0.17314 0.0
H932 H 0.89563 0.08206 0.21883 0.0
S933 S 0.95456 0.98482 0.1668 0.0
N934 N 0.95849 0.01673 0.14711 0.0
N935 N 0.93355 0.99166 0.19683 0.0
C936 C 0.92878 0.02109 0.19186 0.0
C937 C 0.9423 0.03468 0.16476 0.0
C938 C 0.32584 0.80198 0.12328 0.0
C939 C 0.31275 0.80264 0.15302 0.0
C940 C 0.31969 0.82281 0.0999 0.0
C941 C 0.30012 0.84524 0.10514 0.0
H942 H 0.34012 0.78452 0.11741 0.0
H943 H 0.32936 0.82037 0.07696 0.0
S944 S 0.26309 0.85932 0.18046 0.0
N945 N 0.28167 0.82962 0.18764 0.0
N946 N 0.27003 0.86871 0.14356 0.0
C947 C 0.28847 0.84748 0.13552 0.0
C948 C 0.29477 0.8262 0.15946 0.0
C949 C 0.02188 0.52469 0.17177 0.0
C950 C 0.02469 0.49806 0.1528 0.0
C951 C 0.04298 0.53452 0.19922 0.0
C952 C 0.06763 0.51805 0.20888 0.0
H953 H 0.00294 0.53782 0.16572 0.0
H954 H 0.03959 0.55493 0.21324 0.0
S955 S 0.08718 0.44839 0.16591 0.0
N956 N 0.05553 0.45652 0.14461 0.0
N957 N 0.09489 0.47491 0.19597 0.0
C958 C 0.0712 0.49183 0.18965 0.0
C959 C 0.04984 0.48189 0.16171 0.0
C960 C 0.42939 0.6951 0.29089 0.0
C961 C 0.4139 0.71964 0.28042 0.0
C962 C 0.45319 0.69952 0.31676 0.0
C963 C 0.46175 0.72843 0.33331 0.0
H964 H 0.42235 0.67204 0.27985 0.0
H965 H 0.46398 0.68001 0.32468 0.0
S966 S 0.43375 0.80137 0.31165 0.0
N967 N 0.41267 0.77489 0.28596 0.0
N968 N 0.45704 0.78283 0.3347 0.0
C969 C 0.44826 0.75352 0.32178 0.0
C970 C 0.42432 0.7492 0.29536 0.0
C971 C 0.01189 0.34077 0.00241 0.0
C972 C 0.98584 0.34881 0.01724 0.0
C973 C 0.00961 0.3131 0.98362 0.0
C974 C 0.98124 0.29206 0.97908 0.0
H975 H 0.03411 0.35635 0.00461 0.0
H976 H 0.03015 0.30862 0.97194 0.0
S977 S 0.90694 0.30086 0.0158 0.0
N978 N 0.9314 0.33264 0.02807 0.0
N979 N 0.92707 0.28045 0.9934 0.0
C980 C 0.95537 0.29926 0.99509 0.0
C981 C 0.95765 0.32765 0.0139 0.0
C982 C 0.5976 0.85563 0.33192 0.0
C983 C 0.62954 0.85155 0.33284 0.0
C984 C 0.57647 0.83769 0.34975 0.0
C985 C 0.58636 0.81496 0.36935 0.0
H986 H 0.58839 0.87193 0.31627 0.0
H987 H 0.55189 0.84098 0.34711 0.0
S988 S 0.66846 0.79812 0.38398 0.0
N989 N 0.6708 0.82527 0.35777 0.0
N990 N 0.631 0.79157 0.39131 0.0
C991 C 0.61865 0.81199 0.37222 0.0
C992 C 0.64024 0.83027 0.35397 0.0
C993 C 0.98962 0.11237 0.99533 0.0
C994 C 0.02025 0.10517 0.99312 0.0
C995 C 0.97914 0.13692 0.97902 0.0
C996 C 0.9989 0.15547 0.95992 0.0
H997 H 0.97318 0.09835 0.00888 0.0
H998 H 0.95515 0.14105 0.98111 0.0
S999 S 0.08217 0.14722 0.94798 0.0
N1000 N 0.07071 0.1193 0.9715 0.0
N1001 N 0.05141 0.16531 0.94111 0.0
C1002 C 0.02995 0.14888 0.95825 0.0
C1003 C 0.04047 0.1238 0.97471 0.0
C1004 C 0.3826 0.29883 0.25859 0.0
C1005 C 0.39803 0.32115 0.28227 0.0
C1006 C 0.39851 0.28843 0.23331 0.0
C1007 C 0.43028 0.30041 0.23027 0.0
H1008 H 0.35844 0.28824 0.26036 0.0
H1009 H 0.38609 0.27016 0.21655 0.0
S1010 S 0.48052 0.36142 0.28405 0.0
N1011 N 0.44632 0.35644 0.2998 0.0
N1012 N 0.47602 0.33725 0.25191 0.0
C1013 C 0.44546 0.32402 0.25266 0.0
C1014 C 0.42941 0.33425 0.27878 0.0
C1015 C 0.54497 0.39149 0.08611 0.0
C1016 C 0.51991 0.40386 0.07013 0.0
C1017 C 0.53931 0.36871 0.10832 0.0
C1018 C 0.50833 0.35675 0.11443 0.0
H1019 H 0.56912 0.39943 0.08134 0.0
H1020 H 0.55929 0.35954 0.11982 0.0
S1021 S 0.4346 0.38156 0.0789 0.0
N1022 N 0.46309 0.40328 0.0626 0.0
N1023 N 0.45234 0.35925 0.10315 0.0
C1024 C 0.48308 0.36903 0.09873 0.0
C1025 C 0.48891 0.39294 0.07689 0.0
C1026 C 0.55606 0.2369 0.30496 0.0
C1027 C 0.58855 0.24727 0.30409 0.0
C1028 C 0.53452 0.2376 0.27781 0.0
C1029 C 0.54454 0.24924 0.24892 0.0
H1030 H 0.54721 0.22763 0.32663 0.0
H1031 H 0.50975 0.2293 0.27964 0.0
S1032 S 0.62699 0.27976 0.23421 0.0
N1033 N 0.6297 0.26975 0.27196 0.0
N1034 N 0.58914 0.2715 0.22107 0.0
C1035 C 0.57691 0.26003 0.24781 0.0
C1036 C 0.59892 0.25891 0.27534 0.0
C1037 C 0.52957 0.16947 0.09868 0.0
C1038 C 0.50551 0.15848 0.0739 0.0
C1039 C 0.52803 0.19583 0.11832 0.0
C1040 C 0.50184 0.21147 0.11473 0.0
H1041 H 0.55005 0.1579 0.10273 0.0
H1042 H 0.54722 0.20376 0.13684 0.0
S1043 S 0.43425 0.19468 0.05174 0.0
N1044 N 0.45574 0.16713 0.0455 0.0
N1045 N 0.45291 0.21639 0.08301 0.0
C1046 C 0.47805 0.20145 0.08969 0.0
C1047 C 0.47978 0.1749 0.06926 0.0
C1048 C 0.27395 0.42702 0.70623 0.0
C1049 C 0.25976 0.41205 0.7317 0.0
C1050 C 0.29916 0.45151 0.7124 0.0
C1051 C 0.31153 0.46098 0.74416 0.0
H1052 H 0.2655 0.41988 0.68138 0.0
H1053 H 0.30952 0.46254 0.6923 0.0
S1054 S 0.28145 0.43177 0.81933 0.0
N1055 N 0.25906 0.41033 0.79005 0.0
N1056 N 0.30643 0.45585 0.80122 0.0
C1057 C 0.2971 0.44696 0.76973 0.0
C1058 C 0.2713 0.4225 0.76361 0.0
C1059 C 0.30504 0.63173 0.82023 0.0
C1060 C 0.28146 0.62198 0.84052 0.0
C1061 C 0.32638 0.61238 0.81129 0.0
C1062 C 0.32498 0.58234 0.8221 0.0
H1063 H 0.30662 0.65428 0.81042 0.0
H1064 H 0.34338 0.62074 0.7948 0.0
S1065 S 0.26965 0.54647 0.87808 0.0
N1066 N 0.25951 0.5809 0.87309 0.0
N1067 N 0.29948 0.54451 0.85612 0.0
C1068 C 0.30246 0.57272 0.84357 0.0
C1069 C 0.28077 0.59253 0.85282 0.0
C1070 C 0.8782 0.46581 0.52204 0.0
C1071 C 0.88065 0.48957 0.50032 0.0
C1072 C 0.84944 0.44643 0.52405 0.0
C1073 C 0.82216 0.44978 0.50405 0.0
H1074 H 0.89876 0.46185 0.53739 0.0
H1075 H 0.8489 0.42793 0.54045 0.0
S1076 S 0.81514 0.50959 0.44475 0.0
N1077 N 0.85254 0.51636 0.45976 0.0
N1078 N 0.7988 0.47971 0.46325 0.0
C1079 C 0.824 0.47397 0.48295 0.0
C1080 C 0.85313 0.49393 0.48117 0.0
C1081 C 0.7304 0.92405 0.84135 0.0
C1082 C 0.71589 0.89301 0.83832 0.0
C1083 C 0.71269 0.94817 0.83646 0.0
C1084 C 0.67983 0.9422 0.82785 0.0
H1085 H 0.7557 0.92982 0.84742 0.0
H1086 H 0.72506 0.97162 0.83845 0.0
S1087 S 0.63012 0.86515 0.81797 0.0
N1088 N 0.66632 0.85778 0.82725 0.0
N1089 N 0.63328 0.90304 0.81763 0.0
C1090 C 0.66491 0.91135 0.82532 0.0
C1091 C 0.68286 0.8868 0.83066 0.0
C1092 C 0.63894 0.56945 0.04558 0.0
C1093 C 0.62969 0.54429 0.02289 0.0
C1094 C 0.66779 0.58898 0.04483 0.0
C1095 C 0.68766 0.58467 0.02061 0.0
H1096 H 0.62338 0.57465 0.06345 0.0
H1097 H 0.67383 0.60847 0.06227 0.0
S1098 S 0.67748 0.51956 0.95925 0.0
N1099 N 0.64519 0.5139 0.9783 0.0
N1100 N 0.69889 0.55132 0.97658 0.0
C1101 C 0.67993 0.55856 0.99926 0.0
C1102 C 0.65098 0.53822 0.00043 0.0
C1103 C 0.23977 0.61523 0.27677 0.0
C1104 C 0.2483 0.61926 0.24519 0.0
C1105 C 0.21434 0.59318 0.28291 0.0
C1106 C 0.19614 0.57465 0.25772 0.0
H1107 H 0.25309 0.62886 0.29713 0.0
H1108 H 0.20911 0.59035 0.30766 0.0
S1109 S 0.20795 0.57559 0.17089 0.0
N1110 N 0.236 0.60257 0.18832 0.0
N1111 N 0.18824 0.56094 0.20029 0.0
C1112 C 0.2043 0.57809 0.22614 0.0
C1113 C 0.23018 0.60064 0.21973 0.0
C1114 C 0.86982 0.55994 0.01677 0.0
C1115 C 0.88099 0.55729 0.04914 0.0
C1116 C 0.84753 0.57941 0.00859 0.0
C1117 C 0.83644 0.59765 0.03239 0.0
H1118 H 0.87726 0.54585 0.99775 0.0
H1119 H 0.83851 0.57979 0.98351 0.0
S1120 S 0.86033 0.60092 0.12039 0.0
N1121 N 0.88042 0.57547 0.10495 0.0
N1122 N 0.83953 0.61294 0.0895 0.0
C1123 C 0.84864 0.59634 0.06467 0.0
C1124 C 0.87064 0.57589 0.07307 0.0
C1125 C 0.16132 0.96745 0.03428 0.0
C1126 C 0.14224 0.97429 0.00712 0.0
C1127 C 0.18606 0.95021 0.03114 0.0
C1128 C 0.19313 0.9395 0.00064 0.0
H1129 H 0.15658 0.97472 0.05831 0.0
H1130 H 0.19964 0.94515 0.05289 0.0
S1131 S 0.15152 0.95348 0.92164 0.0
N1132 N 0.13281 0.97028 0.94866 0.0
N1133 N 0.17964 0.93875 0.94246 0.0
C1134 C 0.17478 0.94719 0.97317 0.0
C1135 C 0.14928 0.96429 0.97648 0.0
loop_
_geom_bond_atom_site_label_1
_geom_bond_atom_site_label_2
_geom_bond_distance
_geom_bond_site_symmetry_2
_ccdc_geom_bond_type
O0 Cd1 2.300 . S
O0 C7 1.275 . S
Cd1 O0 2.300 . S
Cd1 O9 2.377 1_545 S
Cd1 O10 2.378 1_545 S
O2 Cd3 2.385 . S
O2 C7 1.255 . S
Cd3 O2 2.385 . S
Cd3 O4 2.317 . S
O4 Cd3 2.317 . S
O4 C5 1.232 1_455 S
C5 O4 1.232 1_655 S
C5 O6 1.218 . S
O6 C5 1.218 . S
C7 O0 1.275 . S
C7 O2 1.255 . S
C8 O9 1.261 . S
C8 O10 1.256 . S
O9 Cd1 2.377 1_565 S
O9 C8 1.261 . S
O10 Cd1 2.378 1_565 S
O10 C8 1.256 . S
O11 Cd12 2.300 . S
O11 C18 1.275 . S
Cd12 O11 2.300 . S
Cd12 O20 2.381 . S
Cd12 O21 2.378 . S
O13 Cd14 2.385 . S
O13 C18 1.255 . S
Cd14 O13 2.385 . S
Cd14 O15 2.317 . S
O15 Cd14 2.317 . S
O15 C16 1.232 . S
C16 O15 1.232 . S
C16 O17 1.218 . S
O17 C16 1.218 . S
C18 O11 1.275 . S
C18 O13 1.255 . S
C19 O20 1.258 . S
C19 O21 1.256 . S
O20 Cd12 2.381 . S
O20 C19 1.258 . S
O21 Cd12 2.378 . S
O21 C19 1.256 . S
O22 Cd23 2.300 . S
O22 C29 1.275 . S
Cd23 O22 2.300 . S
Cd23 O31 2.381 . S
Cd23 O32 2.378 . S
O24 Cd25 2.385 . S
O24 C29 1.255 1_455 S
Cd25 O24 2.385 . S
Cd25 O26 2.317 1_455 S
O26 Cd25 2.317 1_655 S
O26 C27 1.232 . S
C27 O26 1.232 . S
C27 O28 1.218 1_655 S
O28 C27 1.218 1_455 S
C29 O22 1.275 . S
C29 O24 1.255 1_655 S
C30 O31 1.258 . S
C30 O32 1.256 . S
O31 Cd23 2.381 . S
O31 C30 1.258 . S
O32 Cd23 2.378 . S
O32 C30 1.256 . S
O33 Cd34 2.300 . S
O33 C40 1.275 . S
Cd34 O33 2.300 . S
Cd34 O42 2.381 . S
Cd34 O43 2.378 . S
O35 Cd36 2.385 . S
O35 C40 1.255 . S
Cd36 O35 2.385 . S
Cd36 O37 2.317 . S
O37 Cd36 2.317 . S
O37 C38 1.232 . S
C38 O37 1.232 . S
C38 O39 1.218 . S
O39 C38 1.218 . S
C40 O33 1.275 . S
C40 O35 1.255 . S
C41 O42 1.258 . S
C41 O43 1.256 . S
O42 Cd34 2.381 . S
O42 C41 1.258 . S
O43 Cd34 2.378 . S
O43 C41 1.256 . S
O44 Cd45 2.300 . S
O44 C51 1.278 1_565 S
Cd45 O44 2.300 . S
Cd45 O53 2.381 . S
Cd45 O54 2.378 . S
O46 Cd47 2.385 . S
O46 C51 1.255 . S
Cd47 O46 2.385 . S
Cd47 O48 2.317 1_455 S
O48 Cd47 2.317 1_655 S
O48 C49 1.232 . S
C49 O48 1.232 . S
C49 O50 1.218 1_655 S
O50 C49 1.218 1_455 S
C51 O44 1.278 1_545 S
C51 O46 1.255 . S
C52 O53 1.258 . S
C52 O54 1.256 . S
O53 Cd45 2.381 . S
O53 C52 1.258 . S
O54 Cd45 2.378 . S
O54 C52 1.256 . S
O55 Cd56 2.300 . S
O55 C62 1.275 . S
Cd56 O55 2.300 . S
Cd56 O64 2.381 . S
Cd56 O65 2.378 . S
O57 Cd58 2.385 . S
O57 C62 1.255 . S
Cd58 O57 2.385 . S
Cd58 O59 2.317 . S
O59 Cd58 2.317 . S
O59 C60 1.232 . S
C60 O59 1.232 . S
C60 O61 1.218 . S
O61 C60 1.218 . S
C62 O55 1.275 . S
C62 O57 1.255 . S
C63 O64 1.258 . S
C63 O65 1.256 . S
O64 Cd56 2.381 . S
O64 C63 1.258 . S
O65 Cd56 2.378 . S
O65 C63 1.256 . S
O66 Cd67 2.300 . S
O66 C73 1.275 1_655 S
Cd67 O66 2.300 . S
Cd67 O75 2.381 . S
Cd67 O76 2.378 . S
O68 Cd69 2.385 . S
O68 C73 1.255 . S
Cd69 O68 2.385 . S
Cd69 O70 2.317 . S
O70 Cd69 2.317 . S
O70 C71 1.232 . S
C71 O70 1.232 . S
C71 O72 1.218 . S
O72 C71 1.218 . S
C73 O66 1.275 1_455 S
C73 O68 1.255 . S
C74 O75 1.258 . S
C74 O76 1.256 . S
O75 Cd67 2.381 . S
O75 C74 1.258 . S
O76 Cd67 2.378 . S
O76 C74 1.256 . S
O77 Cd78 2.300 . S
O77 C84 1.275 . S
Cd78 O77 2.300 . S
Cd78 O86 2.381 . S
Cd78 O87 2.378 . S
O79 Cd80 2.385 . S
O79 C84 1.255 . S
Cd80 O79 2.385 . S
Cd80 O81 2.317 . S
O81 Cd80 2.317 . S
O81 C82 1.232 . S
C82 O81 1.232 . S
C82 O83 1.218 . S
O83 C82 1.218 . S
C84 O77 1.275 . S
C84 O79 1.255 . S
C85 O86 1.258 . S
C85 O87 1.256 . S
O86 Cd78 2.381 . S
O86 C85 1.258 . S
O87 Cd78 2.378 . S
O87 C85 1.256 . S
O88 Cd89 2.300 . S
O88 C95 1.275 . S
Cd89 O88 2.300 . S
Cd89 O97 2.381 . S
Cd89 O98 2.378 . S
O90 Cd91 2.385 . S
O90 C95 1.255 . S
Cd91 O90 2.385 . S
Cd91 O92 2.317 . S
O92 Cd91 2.317 . S
O92 C93 1.232 . S
C93 O92 1.232 . S
C93 O94 1.218 . S
O94 C93 1.218 . S
C95 O88 1.275 . S
C95 O90 1.255 . S
C96 O97 1.258 . S
C96 O98 1.256 . S
O97 Cd89 2.381 . S
O97 C96 1.258 . S
O98 Cd89 2.378 . S
O98 C96 1.256 . S
O99 Cd100 2.310 . S
O99 C106 1.261 1_545 S
Cd100 O99 2.310 . S
Cd100 O108 2.381 . S
Cd100 O109 2.378 . S
O101 Cd102 2.385 . S
O101 C106 1.255 . S
Cd102 O101 2.385 . S
Cd102 O103 2.317 . S
O103 Cd102 2.317 . S
O103 C104 1.232 . S
C104 O103 1.232 . S
C104 O105 1.218 . S
O105 C104 1.218 . S
C106 O99 1.261 1_565 S
C106 O101 1.255 . S
C107 O108 1.258 . S
C107 O109 1.256 . S
O108 Cd100 2.381 . S
O108 C107 1.258 . S
O109 Cd100 2.378 . S
O109 C107 1.256 . S
O110 Cd111 2.300 . S
O110 C117 1.275 . S
Cd111 O110 2.300 . S
Cd111 O119 2.381 . S
Cd111 O120 2.378 . S
O112 Cd113 2.385 . S
O112 C117 1.255 . S
Cd113 O112 2.385 . S
Cd113 O114 2.317 . S
O114 Cd113 2.317 . S
O114 C115 1.232 . S
C115 O114 1.232 . S
C115 O116 1.218 . S
O116 C115 1.218 . S
C117 O110 1.275 . S
C117 O112 1.255 . S
C118 O119 1.258 . S
C118 O120 1.256 . S
O119 Cd111 2.381 . S
O119 C118 1.258 . S
O120 Cd111 2.378 . S
O120 C118 1.256 . S
O121 Cd122 2.300 . S
O121 C128 1.275 . S
Cd122 O121 2.300 . S
Cd122 O130 2.381 . S
Cd122 O131 2.378 . S
O123 Cd124 2.385 . S
O123 C128 1.255 . S
Cd124 O123 2.385 . S
Cd124 O125 2.317 . S
O125 Cd124 2.317 . S
O125 C126 1.232 . S
C126 O125 1.232 . S
C126 O127 1.218 . S
O127 C126 1.218 . S
C128 O121 1.275 . S
C128 O123 1.255 . S
C129 O130 1.258 . S
C129 O131 1.256 . S
O130 Cd122 2.381 . S
O130 C129 1.258 . S
O131 Cd122 2.378 . S
O131 C129 1.256 . S
O132 Cd133 2.300 . S
O132 C139 1.275 . S
Cd133 O132 2.300 . S
Cd133 O141 2.381 . S
Cd133 O142 2.378 . S
O134 Cd135 2.385 . S
O134 C139 1.255 . S
Cd135 O134 2.385 . S
Cd135 O136 2.317 . S
O136 Cd135 2.317 . S
O136 C137 1.232 . S
C137 O136 1.232 . S
C137 O138 1.218 . S
O138 C137 1.218 . S
C139 O132 1.275 . S
C139 O134 1.255 . S
C140 O141 1.258 . S
C140 O142 1.256 . S
O141 Cd133 2.381 . S
O141 C140 1.258 . S
O142 Cd133 2.378 . S
O142 C140 1.256 . S
O143 Cd144 2.300 . S
O143 C150 1.275 1_554 S
Cd144 O143 2.300 . S
Cd144 O152 2.381 . S
Cd144 O153 2.378 . S
O145 Cd146 2.385 . S
O145 C150 1.255 . S
Cd146 O145 2.385 . S
Cd146 O147 2.317 . S
O147 Cd146 2.317 . S
O147 C148 1.232 . S
C148 O147 1.232 . S
C148 O149 1.218 . S
O149 C148 1.218 . S
C150 O143 1.275 1_556 S
C150 O145 1.255 . S
C151 O152 1.258 . S
C151 O153 1.256 . S
O152 Cd144 2.381 . S
O152 C151 1.258 . S
O153 Cd144 2.378 . S
O153 C151 1.256 . S
O154 Cd155 2.300 . S
O154 C161 1.275 . S
Cd155 O154 2.300 . S
Cd155 O163 2.381 . S
Cd155 O164 2.378 . S
O156 Cd157 2.385 . S
O156 C161 1.255 . S
Cd157 O156 2.385 . S
Cd157 O158 2.317 . S
O158 Cd157 2.317 . S
O158 C159 1.232 . S
C159 O158 1.232 . S
C159 O160 1.218 . S
O160 C159 1.218 . S
C161 O154 1.275 . S
C161 O156 1.255 . S
C162 O163 1.258 . S
C162 O164 1.256 . S
O163 Cd155 2.381 . S
O163 C162 1.258 . S
O164 Cd155 2.378 . S
O164 C162 1.256 . S
O165 Cd166 2.300 1_556 S
O165 C172 1.275 . S
Cd166 O165 2.300 1_554 S
Cd166 O174 2.381 1_544 S
Cd166 O175 2.378 1_545 S
O167 Cd168 2.385 1_556 S
O167 C172 1.255 . S
Cd168 O167 2.385 1_554 S
Cd168 O169 2.317 . S
O169 Cd168 2.317 . S
O169 C170 1.232 . S
C170 O169 1.232 . S
C170 O171 1.218 . S
O171 C170 1.218 . S
C172 O165 1.275 . S
C172 O167 1.255 . S
C173 O174 1.246 1_554 S
C173 O175 1.267 . S
O174 Cd166 2.381 1_566 S
O174 C173 1.246 1_556 S
O175 Cd166 2.378 1_565 S
O175 C173 1.267 . S
Mn176 O181 2.095 . S
Mn176 O191 2.162 . S
Mn176 O192 2.297 . S
Mn176 O200 2.385 1_554 S
Mn176 O201 2.209 1_554 S
Mn176 O202 2.094 . S
Mn177 O182 2.121 . S
Mn177 N184 2.257 . S
Mn177 N193 2.282 . S
Mn177 O201 2.215 . S
Mn177 O203 2.117 . S
C178 O200 1.234 . S
C178 O201 1.283 . S
C179 O191 1.281 . S
C179 O192 1.236 . S
C180 O202 1.240 . S
C180 O203 1.264 1_554 S
O181 Mn176 2.095 . S
O181 C190 1.250 . S
O182 Mn177 2.121 . S
O182 C190 1.258 1_556 S
C183 N184 1.326 . S
C183 C187 1.460 . S
C183 H189 0.929 . S
N184 Mn177 2.257 . S
N184 C183 1.326 . S
N184 C188 1.362 . S
C185 C186 1.258 . S
C185 C188 1.431 . S
C185 C205 1.449 . S
C186 C185 1.258 . S
C186 C187 1.477 . S
C186 H206 0.931 . S
C187 C183 1.460 . S
C187 C186 1.477 . S
C187 H207 0.930 . S
C188 N184 1.362 . S
C188 C185 1.431 . S
C188 C198 1.476 . S
H189 C183 0.929 . S
C190 O181 1.250 . S
C190 O182 1.258 1_554 S
O191 Mn176 2.162 . S
O191 C179 1.281 . S
O192 Mn176 2.297 . S
O192 C179 1.236 . S
N193 Mn177 2.282 . S
N193 C194 1.328 . S
N193 C198 1.318 . S
C194 N193 1.328 . S
C194 C195 1.457 . S
C194 H199 0.929 . S
C195 C194 1.457 . S
C195 C196 1.291 . S
C195 H208 0.931 . S
C196 C195 1.291 . S
C196 C197 1.373 . S
C196 H209 0.929 . S
C197 C196 1.373 . S
C197 C198 1.396 . S
C197 C204 1.403 . S
C198 C188 1.476 . S
C198 N193 1.318 . S
C198 C197 1.396 . S
H199 C194 0.929 . S
O200 Mn176 2.385 1_556 S
O200 C178 1.234 . S
O201 Mn176 2.209 1_556 S
O201 Mn177 2.215 . S
O201 C178 1.283 . S
O202 Mn176 2.094 . S
O202 C180 1.240 . S
O203 Mn177 2.117 . S
O203 C180 1.264 1_556 S
C204 C197 1.403 . S
C204 C205 1.399 . S
C204 H210 0.929 . S
C205 C185 1.449 . S
C205 C204 1.399 . S
C205 H211 0.930 . S
H206 C186 0.931 . S
H207 C187 0.930 . S
H208 C195 0.931 . S
H209 C196 0.929 . S
H210 C204 0.929 . S
H211 C205 0.930 . S
Mn212 O217 2.095 . S
Mn212 O227 2.162 . S
Mn212 O228 2.297 . S
Mn212 O236 2.385 . S
Mn212 O237 2.209 . S
Mn212 O238 2.094 . S
Mn213 O218 2.121 . S
Mn213 N220 2.257 . S
Mn213 N229 2.282 . S
Mn213 O237 2.215 . S
Mn213 O239 2.117 . S
C214 O236 1.234 . S
C214 O237 1.283 . S
C215 O227 1.281 . S
C215 O228 1.236 . S
C216 O238 1.240 . S
C216 O239 1.264 . S
O217 Mn212 2.095 . S
O217 C226 1.250 . S
O218 Mn213 2.121 . S
O218 C226 1.258 . S
C219 N220 1.326 . S
C219 C223 1.460 . S
C219 H225 0.929 . S
N220 Mn213 2.257 . S
N220 C219 1.326 . S
N220 C224 1.362 . S
C221 C222 1.258 . S
C221 C224 1.431 . S
C221 C241 1.449 . S
C222 C221 1.258 . S
C222 C223 1.477 . S
C222 H242 0.931 . S
C223 C219 1.460 . S
C223 C222 1.477 . S
C223 H243 0.930 . S
C224 N220 1.362 . S
C224 C221 1.431 . S
C224 C234 1.476 . S
H225 C219 0.929 . S
C226 O217 1.250 . S
C226 O218 1.258 . S
O227 Mn212 2.162 . S
O227 C215 1.281 . S
O228 Mn212 2.297 . S
O228 C215 1.236 . S
N229 Mn213 2.282 . S
N229 C230 1.328 . S
N229 C234 1.318 . S
C230 N229 1.328 . S
C230 C231 1.457 . S
C230 H235 0.929 . S
C231 C230 1.457 . S
C231 C232 1.291 . S
C231 H244 0.931 . S
C232 C231 1.291 . S
C232 C233 1.373 . S
C232 H245 0.929 . S
C233 C232 1.373 . S
C233 C234 1.396 . S
C233 C240 1.403 . S
C234 C224 1.476 . S
C234 N229 1.318 . S
C234 C233 1.396 . S
H235 C230 0.929 . S
O236 Mn212 2.385 . S
O236 C214 1.234 . S
O237 Mn212 2.209 . S
O237 Mn213 2.215 . S
O237 C214 1.283 . S
O238 Mn212 2.094 . S
O238 C216 1.240 . S
O239 Mn213 2.117 . S
O239 C216 1.264 . S
C240 C233 1.403 . S
C240 C241 1.399 . S
C240 H246 0.929 . S
C241 C221 1.449 . S
C241 C240 1.399 . S
C241 H247 0.930 . S
H242 C222 0.931 . S
H243 C223 0.930 . S
H244 C231 0.931 . S
H245 C232 0.929 . S
H246 C240 0.929 . S
H247 C241 0.930 . S
Mn248 O253 2.095 1_554 S
Mn248 O263 2.162 . S
Mn248 O264 2.297 1_554 S
Mn248 O272 2.385 . S
Mn248 O273 2.209 1_554 S
Mn248 O274 2.094 . S
Mn249 O254 2.121 . S
Mn249 N256 2.257 . S
Mn249 N265 2.282 . S
Mn249 O273 2.215 . S
Mn249 O275 2.117 1_556 S
C250 O272 1.234 1_556 S
C250 O273 1.283 . S
C251 O263 1.281 . S
C251 O264 1.236 1_554 S
C252 O274 1.240 . S
C252 O275 1.264 . S
O253 Mn248 2.095 1_556 S
O253 C262 1.250 . S
O254 Mn249 2.121 . S
O254 C262 1.258 . S
C255 N256 1.326 . S
C255 C259 1.460 . S
C255 H261 0.929 . S
N256 Mn249 2.257 . S
N256 C255 1.326 . S
N256 C260 1.362 . S
C257 C258 1.258 . S
C257 C260 1.431 . S
C257 C277 1.449 . S
C258 C257 1.258 . S
C258 C259 1.477 . S
C258 H278 0.931 . S
C259 C255 1.460 . S
C259 C258 1.477 . S
C259 H279 0.930 . S
C260 N256 1.362 . S
C260 C257 1.431 . S
C260 C270 1.476 . S
H261 C255 0.929 . S
C262 O253 1.250 . S
C262 O254 1.258 . S
O263 Mn248 2.162 . S
O263 C251 1.281 . S
O264 Mn248 2.297 1_556 S
O264 C251 1.236 1_556 S
N265 Mn249 2.282 . S
N265 C266 1.328 1_556 S
N265 C270 1.318 . S
C266 N265 1.328 1_554 S
C266 C267 1.457 . S
C266 H271 0.929 . S
C267 C266 1.457 . S
C267 C268 1.291 . S
C267 H280 0.931 . S
C268 C267 1.291 . S
C268 C269 1.373 1_554 S
C268 H281 0.929 . S
C269 C268 1.373 1_556 S
C269 C270 1.396 . S
C269 C276 1.403 . S
C270 C260 1.476 . S
C270 N265 1.318 . S
C270 C269 1.396 . S
H271 C266 0.929 . S
O272 Mn248 2.385 . S
O272 C250 1.234 1_554 S
O273 Mn248 2.209 1_556 S
O273 Mn249 2.215 . S
O273 C250 1.283 . S
O274 Mn248 2.094 . S
O274 C252 1.240 . S
O275 Mn249 2.117 1_554 S
O275 C252 1.264 . S
C276 C269 1.403 . S
C276 C277 1.399 . S
C276 H282 0.929 . S
C277 C257 1.449 . S
C277 C276 1.399 . S
C277 H283 0.930 . S
H278 C258 0.931 . S
H279 C259 0.930 . S
H280 C267 0.931 . S
H281 C268 0.929 . S
H282 C276 0.929 . S
H283 C277 0.930 . S
Mn284 O289 2.095 . S
Mn284 O299 2.162 . S
Mn284 O300 2.297 . S
Mn284 O308 2.385 . S
Mn284 O309 2.209 1_545 S
Mn284 O310 2.094 . S
Mn285 O290 2.121 . S
Mn285 N292 2.257 . S
Mn285 N301 2.282 . S
Mn285 O309 2.215 . S
Mn285 O311 2.117 . S
C286 O308 1.234 1_565 S
C286 O309 1.283 . S
C287 O299 1.281 . S
C287 O300 1.236 . S
C288 O310 1.240 . S
C288 O311 1.264 1_545 S
O289 Mn284 2.095 . S
O289 C298 1.250 . S
O290 Mn285 2.121 . S
O290 C298 1.258 1_565 S
C291 N292 1.326 . S
C291 C295 1.460 . S
C291 H297 0.929 . S
N292 Mn285 2.257 . S
N292 C291 1.326 . S
N292 C296 1.362 . S
C293 C294 1.258 . S
C293 C296 1.431 . S
C293 C313 1.449 . S
C294 C293 1.258 . S
C294 C295 1.477 . S
C294 H314 0.931 . S
C295 C291 1.460 . S
C295 C294 1.477 . S
C295 H315 0.930 . S
C296 N292 1.362 . S
C296 C293 1.431 . S
C296 C306 1.476 . S
H297 C291 0.929 . S
C298 O289 1.250 . S
C298 O290 1.258 1_545 S
O299 Mn284 2.162 . S
O299 C287 1.281 . S
O300 Mn284 2.297 . S
O300 C287 1.236 . S
N301 Mn285 2.282 . S
N301 C302 1.328 . S
N301 C306 1.318 . S
C302 N301 1.328 . S
C302 C303 1.457 . S
C302 H307 0.929 . S
C303 C302 1.457 . S
C303 C304 1.291 . S
C303 H316 0.931 . S
C304 C303 1.291 . S
C304 C305 1.373 . S
C304 H317 0.929 . S
C305 C304 1.373 . S
C305 C306 1.396 . S
C305 C312 1.403 . S
C306 C296 1.476 . S
C306 N301 1.318 . S
C306 C305 1.396 . S
H307 C302 0.929 . S
O308 Mn284 2.385 . S
O308 C286 1.234 1_545 S
O309 Mn284 2.209 1_565 S
O309 Mn285 2.215 . S
O309 C286 1.283 . S
O310 Mn284 2.094 . S
O310 C288 1.240 . S
O311 Mn285 2.117 . S
O311 C288 1.264 1_565 S
C312 C305 1.403 . S
C312 C313 1.399 . S
C312 H318 0.929 . S
C313 C293 1.449 . S
C313 C312 1.399 . S
C313 H319 0.930 . S
H314 C294 0.931 . S
H315 C295 0.930 . S
H316 C303 0.931 . S
H317 C304 0.929 . S
H318 C312 0.929 . S
H319 C313 0.930 . S
Mn320 O325 2.095 . S
Mn320 O335 2.162 . S
Mn320 O336 2.297 . S
Mn320 O344 2.385 . S
Mn320 O345 2.209 . S
Mn320 O346 2.094 . S
Mn321 O326 2.121 . S
Mn321 N328 2.257 . S
Mn321 N337 2.282 . S
Mn321 O345 2.215 . S
Mn321 O347 2.117 . S
C322 O344 1.234 . S
C322 O345 1.283 . S
C323 O335 1.281 . S
C323 O336 1.236 . S
C324 O346 1.240 . S
C324 O347 1.264 . S
O325 Mn320 2.095 . S
O325 C334 1.250 . S
O326 Mn321 2.121 . S
O326 C334 1.258 . S
C327 N328 1.326 . S
C327 C331 1.460 . S
C327 H333 0.929 . S
N328 Mn321 2.257 . S
N328 C327 1.326 . S
N328 C332 1.362 . S
C329 C330 1.258 . S
C329 C332 1.431 . S
C329 C349 1.449 . S
C330 C329 1.258 . S
C330 C331 1.477 . S
C330 H350 0.931 . S
C331 C327 1.460 . S
C331 C330 1.477 . S
C331 H351 0.930 . S
C332 N328 1.362 . S
C332 C329 1.431 . S
C332 C342 1.476 . S
H333 C327 0.929 . S
C334 O325 1.250 . S
C334 O326 1.258 . S
O335 Mn320 2.162 . S
O335 C323 1.281 . S
O336 Mn320 2.297 . S
O336 C323 1.236 . S
N337 Mn321 2.282 . S
N337 C338 1.328 . S
N337 C342 1.318 . S
C338 N337 1.328 . S
C338 C339 1.457 . S
C338 H343 0.929 . S
C339 C338 1.457 . S
C339 C340 1.291 . S
C339 H352 0.931 . S
C340 C339 1.291 . S
C340 C341 1.373 . S
C340 H353 0.929 . S
C341 C340 1.373 . S
C341 C342 1.396 . S
C341 C348 1.403 . S
C342 C332 1.476 . S
C342 N337 1.318 . S
C342 C341 1.396 . S
H343 C338 0.929 . S
O344 Mn320 2.385 . S
O344 C322 1.234 . S
O345 Mn320 2.209 . S
O345 Mn321 2.215 . S
O345 C322 1.283 . S
O346 Mn320 2.094 . S
O346 C324 1.240 . S
O347 Mn321 2.117 . S
O347 C324 1.264 . S
C348 C341 1.403 . S
C348 C349 1.399 . S
C348 H354 0.929 . S
C349 C329 1.449 . S
C349 C348 1.399 . S
C349 H355 0.930 . S
H350 C330 0.931 . S
H351 C331 0.930 . S
H352 C339 0.931 . S
H353 C340 0.929 . S
H354 C348 0.929 . S
H355 C349 0.930 . S
Mn356 O361 2.095 . S
Mn356 O371 2.162 . S
Mn356 O372 2.297 . S
Mn356 O380 2.385 . S
Mn356 O381 2.209 . S
Mn356 O382 2.094 . S
Mn357 O362 2.121 . S
Mn357 N364 2.257 . S
Mn357 N373 2.282 . S
Mn357 O381 2.215 . S
Mn357 O383 2.117 . S
C358 O380 1.234 . S
C358 O381 1.283 . S
C359 O371 1.281 . S
C359 O372 1.236 . S
C360 O382 1.240 . S
C360 O383 1.264 . S
O361 Mn356 2.095 . S
O361 C370 1.250 . S
O362 Mn357 2.121 . S
O362 C370 1.258 . S
C363 N364 1.326 . S
C363 C367 1.460 . S
C363 H369 0.929 . S
N364 Mn357 2.257 . S
N364 C363 1.326 . S
N364 C368 1.362 . S
C365 C366 1.258 . S
C365 C368 1.431 . S
C365 C385 1.449 . S
C366 C365 1.258 . S
C366 C367 1.477 . S
C366 H386 0.931 . S
C367 C363 1.460 . S
C367 C366 1.477 . S
C367 H387 0.930 . S
C368 N364 1.362 . S
C368 C365 1.431 . S
C368 C378 1.476 . S
H369 C363 0.929 . S
C370 O361 1.250 . S
C370 O362 1.258 . S
O371 Mn356 2.162 . S
O371 C359 1.281 . S
O372 Mn356 2.297 . S
O372 C359 1.236 . S
N373 Mn357 2.282 . S
N373 C374 1.328 . S
N373 C378 1.318 . S
C374 N373 1.328 . S
C374 C375 1.457 . S
C374 H379 0.929 . S
C375 C374 1.457 . S
C375 C376 1.291 . S
C375 H388 0.931 . S
C376 C375 1.291 . S
C376 C377 1.373 . S
C376 H389 0.929 . S
C377 C376 1.373 . S
C377 C378 1.396 . S
C377 C384 1.403 . S
C378 C368 1.476 . S
C378 N373 1.318 . S
C378 C377 1.396 . S
H379 C374 0.929 . S
O380 Mn356 2.385 . S
O380 C358 1.234 . S
O381 Mn356 2.209 . S
O381 Mn357 2.215 . S
O381 C358 1.283 . S
O382 Mn356 2.094 . S
O382 C360 1.240 . S
O383 Mn357 2.117 . S
O383 C360 1.264 . S
C384 C377 1.403 . S
C384 C385 1.399 . S
C384 H390 0.929 . S
C385 C365 1.449 . S
C385 C384 1.399 . S
C385 H391 0.930 . S
H386 C366 0.931 . S
H387 C367 0.930 . S
H388 C375 0.931 . S
H389 C376 0.929 . S
H390 C384 0.929 . S
H391 C385 0.930 . S
Mn392 O397 2.095 . S
Mn392 O407 2.162 . S
Mn392 O408 2.297 . S
Mn392 O416 2.385 . S
Mn392 O417 2.209 . S
Mn392 O418 2.094 . S
Mn393 O398 2.121 . S
Mn393 N400 2.257 . S
Mn393 N409 2.282 . S
Mn393 O417 2.215 . S
Mn393 O419 2.117 . S
C394 O416 1.234 . S
C394 O417 1.283 . S
C395 O407 1.281 . S
C395 O408 1.236 . S
C396 O418 1.240 . S
C396 O419 1.264 . S
O397 Mn392 2.095 . S
O397 C406 1.250 . S
O398 Mn393 2.121 . S
O398 C406 1.258 . S
C399 N400 1.326 . S
C399 C403 1.460 . S
C399 H405 0.929 . S
N400 Mn393 2.257 . S
N400 C399 1.326 . S
N400 C404 1.362 . S
C401 C402 1.258 . S
C401 C404 1.431 . S
C401 C421 1.449 . S
C402 C401 1.258 . S
C402 C403 1.477 . S
C402 H422 0.931 . S
C403 C399 1.460 . S
C403 C402 1.477 . S
C403 H423 0.930 . S
C404 N400 1.362 . S
C404 C401 1.431 . S
C404 C414 1.476 . S
H405 C399 0.929 . S
C406 O397 1.250 . S
C406 O398 1.258 . S
O407 Mn392 2.162 . S
O407 C395 1.281 . S
O408 Mn392 2.297 . S
O408 C395 1.236 . S
N409 Mn393 2.282 . S
N409 C410 1.328 . S
N409 C414 1.318 . S
C410 N409 1.328 . S
C410 C411 1.457 . S
C410 H415 0.929 . S
C411 C410 1.457 . S
C411 C412 1.291 . S
C411 H424 0.931 . S
C412 C411 1.291 . S
C412 C413 1.373 . S
C412 H425 0.929 . S
C413 C412 1.373 . S
C413 C414 1.396 . S
C413 C420 1.403 . S
C414 C404 1.476 . S
C414 N409 1.318 . S
C414 C413 1.396 . S
H415 C410 0.929 . S
O416 Mn392 2.385 . S
O416 C394 1.234 . S
O417 Mn392 2.209 . S
O417 Mn393 2.215 . S
O417 C394 1.283 . S
O418 Mn392 2.094 . S
O418 C396 1.240 . S
O419 Mn393 2.117 . S
O419 C396 1.264 . S
C420 C413 1.403 . S
C420 C421 1.399 . S
C420 H426 0.929 . S
C421 C401 1.449 . S
C421 C420 1.399 . S
C421 H427 0.930 . S
H422 C402 0.931 . S
H423 C403 0.930 . S
H424 C411 0.931 . S
H425 C412 0.929 . S
H426 C420 0.929 . S
H427 C421 0.930 . S
Mn428 O433 2.095 . S
Mn428 O443 2.162 . S
Mn428 O444 2.297 . S
Mn428 O452 2.385 1_565 S
Mn428 O453 2.209 1_565 S
Mn428 O454 2.094 . S
Mn429 O434 2.121 . S
Mn429 N436 2.257 . S
Mn429 N445 2.282 . S
Mn429 O453 2.215 . S
Mn429 O455 2.117 . S
C430 O452 1.234 . S
C430 O453 1.283 . S
C431 O443 1.281 . S
C431 O444 1.236 . S
C432 O454 1.216 1_545 S
C432 O455 1.293 . S
O433 Mn428 2.095 . S
O433 C442 1.250 1_565 S
O434 Mn429 2.121 . S
O434 C442 1.258 . S
C435 N436 1.326 . S
C435 C439 1.460 . S
C435 H441 0.929 . S
N436 Mn429 2.257 . S
N436 C435 1.326 . S
N436 C440 1.362 . S
C437 C438 1.258 . S
C437 C440 1.431 . S
C437 C457 1.449 . S
C438 C437 1.258 . S
C438 C439 1.477 . S
C438 H458 0.931 . S
C439 C435 1.460 . S
C439 C438 1.477 . S
C439 H459 0.930 . S
C440 N436 1.362 . S
C440 C437 1.431 . S
C440 C450 1.476 . S
H441 C435 0.929 . S
C442 O433 1.250 1_545 S
C442 O434 1.258 . S
O443 Mn428 2.162 . S
O443 C431 1.281 . S
O444 Mn428 2.297 . S
O444 C431 1.236 . S
N445 Mn429 2.282 . S
N445 C446 1.328 . S
N445 C450 1.318 . S
C446 N445 1.328 . S
C446 C447 1.457 . S
C446 H451 0.929 . S
C447 C446 1.457 . S
C447 C448 1.291 . S
C447 H460 0.931 . S
C448 C447 1.291 . S
C448 C449 1.373 . S
C448 H461 0.929 . S
C449 C448 1.373 . S
C449 C450 1.396 . S
C449 C456 1.403 . S
C450 C440 1.476 . S
C450 N445 1.318 . S
C450 C449 1.396 . S
H451 C446 0.929 . S
O452 Mn428 2.385 1_545 S
O452 C430 1.234 . S
O453 Mn428 2.209 1_545 S
O453 Mn429 2.215 . S
O453 C430 1.283 . S
O454 Mn428 2.094 . S
O454 C432 1.216 1_565 S
O455 Mn429 2.117 . S
O455 C432 1.293 . S
C456 C449 1.403 . S
C456 C457 1.399 . S
C456 H462 0.929 . S
C457 C437 1.449 . S
C457 C456 1.399 . S
C457 H463 0.930 . S
H458 C438 0.931 . S
H459 C439 0.930 . S
H460 C447 0.931 . S
H461 C448 0.929 . S
H462 C456 0.929 . S
H463 C457 0.930 . S
Mn464 O469 2.095 . S
Mn464 O479 2.162 . S
Mn464 O480 2.297 . S
Mn464 O488 2.385 1_455 S
Mn464 O489 2.209 1_455 S
Mn464 O490 2.094 . S
Mn465 O470 2.121 . S
Mn465 N472 2.257 . S
Mn465 N481 2.282 . S
Mn465 O489 2.215 . S
Mn465 O491 2.117 . S
C466 O488 1.234 . S
C466 O489 1.283 . S
C467 O479 1.281 . S
C467 O480 1.236 . S
C468 O490 1.240 . S
C468 O491 1.264 1_455 S
O469 Mn464 2.095 . S
O469 C478 1.270 . S
O470 Mn465 2.121 . S
O470 C478 1.234 1_655 S
C471 N472 1.326 . S
C471 C475 1.460 . S
C471 H477 0.929 . S
N472 Mn465 2.257 . S
N472 C471 1.326 . S
N472 C476 1.362 . S
C473 C474 1.258 . S
C473 C476 1.431 . S
C473 C493 1.449 . S
C474 C473 1.258 . S
C474 C475 1.477 . S
C474 H494 0.931 . S
C475 C471 1.460 . S
C475 C474 1.477 . S
C475 H495 0.930 . S
C476 N472 1.362 . S
C476 C473 1.431 . S
C476 C486 1.476 . S
H477 C471 0.929 . S
C478 O469 1.270 . S
C478 O470 1.234 1_455 S
O479 Mn464 2.162 . S
O479 C467 1.281 . S
O480 Mn464 2.297 . S
O480 C467 1.236 . S
N481 Mn465 2.282 . S
N481 C482 1.328 . S
N481 C486 1.318 . S
C482 N481 1.328 . S
C482 C483 1.457 . S
C482 H487 0.929 . S
C483 C482 1.457 . S
C483 C484 1.291 . S
C483 H496 0.931 . S
C484 C483 1.291 . S
C484 C485 1.373 . S
C484 H497 0.929 . S
C485 C484 1.373 . S
C485 C486 1.396 . S
C485 C492 1.403 . S
C486 C476 1.476 . S
C486 N481 1.318 . S
C486 C485 1.396 . S
H487 C482 0.929 . S
O488 Mn464 2.385 1_655 S
O488 C466 1.234 . S
O489 Mn464 2.209 1_655 S
O489 Mn465 2.215 . S
O489 C466 1.283 . S
O490 Mn464 2.094 . S
O490 C468 1.240 . S
O491 Mn465 2.117 . S
O491 C468 1.264 1_655 S
C492 C485 1.403 . S
C492 C493 1.399 . S
C492 H498 0.929 . S
C493 C473 1.449 . S
C493 C492 1.399 . S
C493 H499 0.930 . S
H494 C474 0.931 . S
H495 C475 0.930 . S
H496 C483 0.931 . S
H497 C484 0.929 . S
H498 C492 0.929 . S
H499 C493 0.930 . S
Mn500 O505 2.095 . S
Mn500 O515 2.162 . S
Mn500 O516 2.297 . S
Mn500 O524 2.385 . S
Mn500 O525 2.209 . S
Mn500 O526 2.094 . S
Mn501 O506 2.121 . S
Mn501 N508 2.257 . S
Mn501 N517 2.282 . S
Mn501 O525 2.215 . S
Mn501 O527 2.117 . S
C502 O524 1.234 . S
C502 O525 1.283 . S
C503 O515 1.281 . S
C503 O516 1.236 . S
C504 O526 1.240 . S
C504 O527 1.264 . S
O505 Mn500 2.095 . S
O505 C514 1.250 . S
O506 Mn501 2.121 . S
O506 C514 1.258 . S
C507 N508 1.326 . S
C507 C511 1.460 . S
C507 H513 0.929 . S
N508 Mn501 2.257 . S
N508 C507 1.326 . S
N508 C512 1.362 . S
C509 C510 1.258 . S
C509 C512 1.431 . S
C509 C529 1.449 . S
C510 C509 1.258 . S
C510 C511 1.477 . S
C510 H530 0.931 . S
C511 C507 1.460 . S
C511 C510 1.477 . S
C511 H531 0.930 . S
C512 N508 1.362 . S
C512 C509 1.431 . S
C512 C522 1.476 . S
H513 C507 0.929 . S
C514 O505 1.250 . S
C514 O506 1.258 . S
O515 Mn500 2.162 . S
O515 C503 1.281 . S
O516 Mn500 2.297 . S
O516 C503 1.236 . S
N517 Mn501 2.282 . S
N517 C518 1.328 . S
N517 C522 1.318 . S
C518 N517 1.328 . S
C518 C519 1.457 . S
C518 H523 0.929 . S
C519 C518 1.457 . S
C519 C520 1.291 . S
C519 H532 0.931 . S
C520 C519 1.291 . S
C520 C521 1.373 . S
C520 H533 0.929 . S
C521 C520 1.373 . S
C521 C522 1.396 . S
C521 C528 1.403 . S
C522 C512 1.476 . S
C522 N517 1.318 . S
C522 C521 1.396 . S
H523 C518 0.929 . S
O524 Mn500 2.385 . S
O524 C502 1.234 . S
O525 Mn500 2.209 . S
O525 Mn501 2.215 . S
O525 C502 1.283 . S
O526 Mn500 2.094 . S
O526 C504 1.240 . S
O527 Mn501 2.117 . S
O527 C504 1.264 . S
C528 C521 1.403 . S
C528 C529 1.399 . S
C528 H534 0.929 . S
C529 C509 1.449 . S
C529 C528 1.399 . S
C529 H535 0.930 . S
H530 C510 0.931 . S
H531 C511 0.930 . S
H532 C519 0.931 . S
H533 C520 0.929 . S
H534 C528 0.929 . S
H535 C529 0.930 . S
Mn536 O541 2.095 . S
Mn536 O551 2.162 . S
Mn536 O552 2.297 . S
Mn536 O560 2.385 . S
Mn536 O561 2.209 . S
Mn536 O562 2.094 . S
Mn537 O542 2.121 1_455 S
Mn537 N544 2.257 1_455 S
Mn537 N553 2.282 . S
Mn537 O561 2.215 . S
Mn537 O563 2.117 . S
C538 O560 1.234 . S
C538 O561 1.283 . S
C539 O551 1.281 . S
C539 O552 1.236 . S
C540 O562 1.240 . S
C540 O563 1.264 . S
O541 Mn536 2.095 . S
O541 C550 1.250 1_455 S
O542 Mn537 2.121 1_655 S
O542 C550 1.258 . S
C543 N544 1.326 . S
C543 C547 1.460 . S
C543 H549 0.929 . S
N544 Mn537 2.257 1_655 S
N544 C543 1.326 . S
N544 C548 1.362 . S
C545 C546 1.258 . S
C545 C548 1.431 . S
C545 C565 1.449 . S
C546 C545 1.258 . S
C546 C547 1.477 . S
C546 H566 0.931 . S
C547 C543 1.460 . S
C547 C546 1.477 . S
C547 H567 0.930 . S
C548 N544 1.362 . S
C548 C545 1.431 . S
C548 C558 1.476 . S
H549 C543 0.929 . S
C550 O541 1.250 1_655 S
C550 O542 1.258 . S
O551 Mn536 2.162 . S
O551 C539 1.281 . S
O552 Mn536 2.297 . S
O552 C539 1.236 . S
N553 Mn537 2.282 . S
N553 C554 1.328 . S
N553 C558 1.318 1_455 S
C554 N553 1.328 . S
C554 C555 1.457 . S
C554 H559 0.929 . S
C555 C554 1.457 . S
C555 C556 1.291 . S
C555 H568 0.931 . S
C556 C555 1.291 . S
C556 C557 1.373 . S
C556 H569 0.929 . S
C557 C556 1.373 . S
C557 C558 1.396 1_455 S
C557 C564 1.403 1_455 S
C558 C548 1.476 . S
C558 N553 1.318 1_655 S
C558 C557 1.396 1_655 S
H559 C554 0.929 . S
O560 Mn536 2.385 . S
O560 C538 1.234 . S
O561 Mn536 2.209 . S
O561 Mn537 2.215 . S
O561 C538 1.283 . S
O562 Mn536 2.094 . S
O562 C540 1.240 . S
O563 Mn537 2.117 . S
O563 C540 1.264 . S
C564 C557 1.403 1_655 S
C564 C565 1.399 . S
C564 H570 0.929 . S
C565 C545 1.449 . S
C565 C564 1.399 . S
C565 H571 0.930 . S
H566 C546 0.931 . S
H567 C547 0.930 . S
H568 C555 0.931 . S
H569 C556 0.929 . S
H570 C564 0.929 . S
H571 C565 0.930 . S
Mn572 O577 2.095 . S
Mn572 O587 2.162 . S
Mn572 O588 2.297 . S
Mn572 O596 2.385 . S
Mn572 O597 2.209 . S
Mn572 O598 2.094 . S
Mn573 O578 2.121 . S
Mn573 N580 2.257 . S
Mn573 N589 2.282 . S
Mn573 O597 2.215 . S
Mn573 O599 2.117 . S
C574 O596 1.234 . S
C574 O597 1.283 . S
C575 O587 1.281 . S
C575 O588 1.236 . S
C576 O598 1.240 . S
C576 O599 1.264 . S
O577 Mn572 2.095 . S
O577 C586 1.250 . S
O578 Mn573 2.121 . S
O578 C586 1.258 . S
C579 N580 1.326 . S
C579 C583 1.460 . S
C579 H585 0.929 . S
N580 Mn573 2.257 . S
N580 C579 1.326 . S
N580 C584 1.362 . S
C581 C582 1.258 . S
C581 C584 1.431 . S
C581 C601 1.449 . S
C582 C581 1.258 . S
C582 C583 1.477 . S
C582 H602 0.931 . S
C583 C579 1.460 . S
C583 C582 1.477 . S
C583 H603 0.930 . S
C584 N580 1.362 . S
C584 C581 1.431 . S
C584 C594 1.476 . S
H585 C579 0.929 . S
C586 O577 1.250 . S
C586 O578 1.258 . S
O587 Mn572 2.162 . S
O587 C575 1.281 . S
O588 Mn572 2.297 . S
O588 C575 1.236 . S
N589 Mn573 2.282 . S
N589 C590 1.328 . S
N589 C594 1.318 . S
C590 N589 1.328 . S
C590 C591 1.457 . S
C590 H595 0.929 . S
C591 C590 1.457 . S
C591 C592 1.291 . S
C591 H604 0.931 . S
C592 C591 1.291 . S
C592 C593 1.373 . S
C592 H605 0.929 . S
C593 C592 1.373 . S
C593 C594 1.396 . S
C593 C600 1.403 . S
C594 C584 1.476 . S
C594 N589 1.318 . S
C594 C593 1.396 . S
H595 C590 0.929 . S
O596 Mn572 2.385 . S
O596 C574 1.234 . S
O597 Mn572 2.209 . S
O597 Mn573 2.215 . S
O597 C574 1.283 . S
O598 Mn572 2.094 . S
O598 C576 1.240 . S
O599 Mn573 2.117 . S
O599 C576 1.264 . S
C600 C593 1.403 . S
C600 C601 1.399 . S
C600 H606 0.929 . S
C601 C581 1.449 . S
C601 C600 1.399 . S
C601 H607 0.930 . S
H602 C582 0.931 . S
H603 C583 0.930 . S
H604 C591 0.931 . S
H605 C592 0.929 . S
H606 C600 0.929 . S
H607 C601 0.930 . S
C608 C609 1.369 . S
C608 C610 1.419 . S
C608 H612 0.930 . S
C609 C608 1.369 . S
C609 C618 1.429 . S
C610 C608 1.419 . S
C610 C611 1.363 . S
C610 H613 0.929 . S
C611 C610 1.363 . S
C611 C617 1.428 . S
H612 C608 0.930 . S
H613 C610 0.929 . S
S614 N615 1.613 . S
S614 N616 1.610 . S
N615 S614 1.613 . S
N615 C618 1.350 . S
N616 S614 1.610 . S
N616 C617 1.351 . S
C617 C611 1.428 . S
C617 N616 1.351 . S
C617 C618 1.434 . S
C618 C609 1.429 . S
C618 N615 1.350 . S
C618 C617 1.434 . S
C619 C620 1.369 . S
C619 C621 1.419 . S
C619 H623 0.930 . S
C620 C619 1.369 . S
C620 C629 1.429 . S
C621 C619 1.419 . S
C621 C622 1.363 . S
C621 H624 0.929 . S
C622 C621 1.363 . S
C622 C628 1.428 . S
H623 C619 0.930 . S
H624 C621 0.929 . S
S625 N626 1.613 . S
S625 N627 1.610 1_655 S
N626 S625 1.613 . S
N626 C629 1.350 1_655 S
N627 S625 1.610 1_455 S
N627 C628 1.351 . S
C628 C622 1.428 . S
C628 N627 1.351 . S
C628 C629 1.434 . S
C629 C620 1.429 . S
C629 N626 1.350 1_455 S
C629 C628 1.434 . S
C630 C631 1.369 . S
C630 C632 1.419 . S
C630 H634 0.930 . S
C631 C630 1.369 . S
C631 C640 1.429 . S
C632 C630 1.419 . S
C632 C633 1.363 . S
C632 H635 0.929 . S
C633 C632 1.363 . S
C633 C639 1.428 . S
H634 C630 0.930 . S
H635 C632 0.929 . S
S636 N637 1.613 . S
S636 N638 1.610 . S
N637 S636 1.613 . S
N637 C640 1.350 . S
N638 S636 1.610 . S
N638 C639 1.351 . S
C639 C633 1.428 . S
C639 N638 1.351 . S
C639 C640 1.434 . S
C640 C631 1.429 . S
C640 N637 1.350 . S
C640 C639 1.434 . S
C641 C642 1.369 1_565 S
C641 C643 1.419 . S
C641 H645 0.930 . S
C642 C641 1.369 1_545 S
C642 C651 1.429 . S
C643 C641 1.419 . S
C643 C644 1.363 1_565 S
C643 H646 0.929 . S
C644 C643 1.363 1_545 S
C644 C650 1.428 . S
H645 C641 0.930 . S
H646 C643 0.929 . S
S647 N648 1.613 . S
S647 N649 1.610 1_455 S
N648 S647 1.613 . S
N648 C651 1.350 1_455 S
N649 S647 1.610 1_655 S
N649 C650 1.351 . S
C650 C644 1.428 . S
C650 N649 1.351 . S
C650 C651 1.434 . S
C651 C642 1.429 . S
C651 N648 1.350 1_655 S
C651 C650 1.434 . S
C652 C653 1.369 . S
C652 C654 1.419 . S
C652 H656 0.930 . S
C653 C652 1.369 . S
C653 C662 1.429 . S
C654 C652 1.419 . S
C654 C655 1.363 . S
C654 H657 0.929 . S
C655 C654 1.363 . S
C655 C661 1.428 . S
H656 C652 0.930 . S
H657 C654 0.929 . S
S658 N659 1.613 . S
S658 N660 1.610 . S
N659 S658 1.613 . S
N659 C662 1.350 . S
N660 S658 1.610 . S
N660 C661 1.351 . S
C661 C655 1.428 . S
C661 N660 1.351 . S
C661 C662 1.434 . S
C662 C653 1.429 . S
C662 N659 1.350 . S
C662 C661 1.434 . S
C663 C664 1.369 . S
C663 C665 1.419 . S
C663 H667 0.930 . S
C664 C663 1.369 . S
C664 C673 1.429 . S
C665 C663 1.419 . S
C665 C666 1.363 . S
C665 H668 0.929 . S
C666 C665 1.363 . S
C666 C672 1.428 . S
H667 C663 0.930 . S
H668 C665 0.929 . S
S669 N670 1.613 . S
S669 N671 1.610 . S
N670 S669 1.613 . S
N670 C673 1.350 . S
N671 S669 1.610 . S
N671 C672 1.351 . S
C672 C666 1.428 . S
C672 N671 1.351 . S
C672 C673 1.434 . S
C673 C664 1.429 . S
C673 N670 1.350 . S
C673 C672 1.434 . S
C674 C675 1.369 . S
C674 C676 1.419 . S
C674 H678 0.930 . S
C675 C674 1.369 . S
C675 C684 1.429 . S
C676 C674 1.419 . S
C676 C677 1.363 . S
C676 H679 0.929 . S
C677 C676 1.363 . S
C677 C683 1.428 . S
H678 C674 0.930 . S
H679 C676 0.929 . S
S680 N681 1.613 . S
S680 N682 1.610 . S
N681 S680 1.613 . S
N681 C684 1.350 . S
N682 S680 1.610 . S
N682 C683 1.351 . S
C683 C677 1.428 . S
C683 N682 1.351 . S
C683 C684 1.434 . S
C684 C675 1.429 . S
C684 N681 1.350 . S
C684 C683 1.434 . S
C685 C686 1.369 . S
C685 C687 1.419 . S
C685 H689 0.930 . S
C686 C685 1.369 . S
C686 C695 1.429 . S
C687 C685 1.419 . S
C687 C688 1.363 . S
C687 H690 0.929 . S
C688 C687 1.363 . S
C688 C694 1.428 1_565 S
H689 C685 0.930 . S
H690 C687 0.929 . S
S691 N692 1.613 . S
S691 N693 1.610 . S
N692 S691 1.613 . S
N692 C695 1.350 1_545 S
N693 S691 1.610 . S
N693 C694 1.351 . S
C694 C688 1.428 1_545 S
C694 N693 1.351 . S
C694 C695 1.434 1_545 S
C695 C686 1.429 . S
C695 N692 1.350 1_565 S
C695 C694 1.434 1_565 S
C696 C697 1.369 . S
C696 C698 1.419 . S
C696 H700 0.930 . S
C697 C696 1.369 . S
C697 C706 1.429 . S
C698 C696 1.419 . S
C698 C699 1.363 . S
C698 H701 0.929 . S
C699 C698 1.363 . S
C699 C705 1.428 . S
H700 C696 0.930 . S
H701 C698 0.929 . S
S702 N703 1.613 . S
S702 N704 1.610 . S
N703 S702 1.613 . S
N703 C706 1.350 . S
N704 S702 1.610 . S
N704 C705 1.351 . S
C705 C699 1.428 . S
C705 N704 1.351 . S
C705 C706 1.434 . S
C706 C697 1.429 . S
C706 N703 1.350 . S
C706 C705 1.434 . S
C707 C708 1.369 . S
C707 C709 1.419 . S
C707 H711 0.930 . S
C708 C707 1.369 . S
C708 C717 1.429 . S
C709 C707 1.419 . S
C709 C710 1.363 . S
C709 H712 0.929 . S
C710 C709 1.363 . S
C710 C716 1.428 . S
H711 C707 0.930 . S
H712 C709 0.929 . S
S713 N714 1.613 . S
S713 N715 1.610 . S
N714 S713 1.613 . S
N714 C717 1.350 . S
N715 S713 1.610 . S
N715 C716 1.351 . S
C716 C710 1.428 . S
C716 N715 1.351 . S
C716 C717 1.434 . S
C717 C708 1.429 . S
C717 N714 1.350 . S
C717 C716 1.434 . S
C718 C719 1.369 . S
C718 C720 1.419 . S
C718 H722 0.930 . S
C719 C718 1.369 . S
C719 C728 1.429 . S
C720 C718 1.419 . S
C720 C721 1.363 . S
C720 H723 0.929 . S
C721 C720 1.363 . S
C721 C727 1.428 . S
H722 C718 0.930 . S
H723 C720 0.929 . S
S724 N725 1.613 . S
S724 N726 1.610 . S
N725 S724 1.613 . S
N725 C728 1.350 . S
N726 S724 1.610 . S
N726 C727 1.351 . S
C727 C721 1.428 . S
C727 N726 1.351 . S
C727 C728 1.434 . S
C728 C719 1.429 . S
C728 N725 1.350 . S
C728 C727 1.434 . S
C729 C730 1.369 . S
C729 C731 1.419 . S
C729 H733 0.930 . S
C730 C729 1.369 . S
C730 C739 1.429 . S
C731 C729 1.419 . S
C731 C732 1.363 . S
C731 H734 0.929 . S
C732 C731 1.363 . S
C732 C738 1.428 . S
H733 C729 0.930 . S
H734 C731 0.929 . S
S735 N736 1.613 . S
S735 N737 1.610 . S
N736 S735 1.613 . S
N736 C739 1.350 . S
N737 S735 1.610 . S
N737 C738 1.351 . S
C738 C732 1.428 . S
C738 N737 1.351 . S
C738 C739 1.434 . S
C739 C730 1.429 . S
C739 N736 1.350 . S
C739 C738 1.434 . S
C740 C741 1.369 . S
C740 C742 1.419 . S
C740 H744 0.930 . S
C741 C740 1.369 . S
C741 C750 1.429 . S
C742 C740 1.419 . S
C742 C743 1.363 . S
C742 H745 0.929 . S
C743 C742 1.363 . S
C743 C749 1.428 . S
H744 C740 0.930 . S
H745 C742 0.929 . S
S746 N747 1.613 . S
S746 N748 1.610 . S
N747 S746 1.613 . S
N747 C750 1.350 . S
N748 S746 1.610 . S
N748 C749 1.351 . S
C749 C743 1.428 . S
C749 N748 1.351 . S
C749 C750 1.434 . S
C750 C741 1.429 . S
C750 N747 1.350 . S
C750 C749 1.434 . S
C751 C752 1.369 . S
C751 C753 1.419 . S
C751 H755 0.930 1_455 S
C752 C751 1.369 . S
C752 C761 1.429 . S
C753 C751 1.419 . S
C753 C754 1.363 . S
C753 H756 0.929 1_455 S
C754 C753 1.363 . S
C754 C760 1.428 . S
H755 C751 0.930 1_655 S
H756 C753 0.929 1_655 S
S757 N758 1.613 . S
S757 N759 1.610 . S
N758 S757 1.613 . S
N758 C761 1.350 . S
N759 S757 1.610 . S
N759 C760 1.351 . S
C760 C754 1.428 . S
C760 N759 1.351 . S
C760 C761 1.434 . S
C761 C752 1.429 . S
C761 N758 1.350 . S
C761 C760 1.434 . S
C762 C763 1.369 . S
C762 C764 1.419 . S
C762 H766 0.930 . S
C763 C762 1.369 . S
C763 C772 1.429 . S
C764 C762 1.419 . S
C764 C765 1.363 . S
C764 H767 0.929 . S
C765 C764 1.363 . S
C765 C771 1.428 . S
H766 C762 0.930 . S
H767 C764 0.929 . S
S768 N769 1.613 . S
S768 N770 1.610 . S
N769 S768 1.613 . S
N769 C772 1.350 . S
N770 S768 1.610 . S
N770 C771 1.351 . S
C771 C765 1.428 . S
C771 N770 1.351 . S
C771 C772 1.434 . S
C772 C763 1.429 . S
C772 N769 1.350 . S
C772 C771 1.434 . S
C773 C774 1.380 . S
C773 C775 1.416 1_455 S
C773 H777 0.922 1_455 S
C774 C773 1.380 . S
C774 C783 1.429 . S
C775 C773 1.416 1_655 S
C775 C776 1.364 1_655 S
C775 H778 0.927 . S
C776 C775 1.364 1_455 S
C776 C782 1.428 . S
H777 C773 0.922 1_655 S
H778 C775 0.927 . S
S779 N780 1.613 . S
S779 N781 1.610 . S
N780 S779 1.613 . S
N780 C783 1.350 . S
N781 S779 1.610 . S
N781 C782 1.351 . S
C782 C776 1.428 . S
C782 N781 1.351 . S
C782 C783 1.434 . S
C783 C774 1.429 . S
C783 N780 1.350 . S
C783 C782 1.434 . S
C784 C785 1.369 . S
C784 C786 1.419 . S
C784 H788 0.930 . S
C785 C784 1.369 . S
C785 C794 1.429 . S
C786 C784 1.419 . S
C786 C787 1.363 . S
C786 H789 0.929 . S
C787 C786 1.363 . S
C787 C793 1.428 . S
H788 C784 0.930 . S
H789 C786 0.929 . S
S790 N791 1.613 . S
S790 N792 1.610 . S
N791 S790 1.613 . S
N791 C794 1.350 . S
N792 S790 1.610 . S
N792 C793 1.351 . S
C793 C787 1.428 . S
C793 N792 1.351 . S
C793 C794 1.434 . S
C794 C785 1.429 . S
C794 N791 1.350 . S
C794 C793 1.434 . S
C795 C796 1.369 . S
C795 C797 1.419 . S
C795 H799 0.930 . S
C796 C795 1.369 . S
C796 C805 1.429 . S
C797 C795 1.419 . S
C797 C798 1.363 . S
C797 H800 0.929 . S
C798 C797 1.363 . S
C798 C804 1.428 . S
H799 C795 0.930 . S
H800 C797 0.929 . S
S801 N802 1.613 . S
S801 N803 1.610 . S
N802 S801 1.613 . S
N802 C805 1.350 . S
N803 S801 1.610 . S
N803 C804 1.351 . S
C804 C798 1.428 . S
C804 N803 1.351 . S
C804 C805 1.434 . S
C805 C796 1.429 . S
C805 N802 1.350 . S
C805 C804 1.434 . S
C806 C807 1.372 1_554 S
C806 C808 1.419 . S
C806 H810 0.930 . S
C807 C806 1.372 1_556 S
C807 C816 1.426 . S
C808 C806 1.419 . S
C808 C809 1.363 . S
C808 H811 0.929 . S
C809 C808 1.363 . S
C809 C815 1.428 1_554 S
H810 C806 0.930 . S
H811 C808 0.929 . S
S812 N813 1.613 . S
S812 N814 1.610 . S
N813 S812 1.613 . S
N813 C816 1.350 . S
N814 S812 1.610 . S
N814 C815 1.351 . S
C815 C809 1.428 1_556 S
C815 N814 1.351 . S
C815 C816 1.434 . S
C816 C807 1.426 . S
C816 N813 1.350 . S
C816 C815 1.434 . S
C817 C818 1.369 . S
C817 C819 1.419 . S
C817 H821 0.930 . S
C818 C817 1.369 . S
C818 C827 1.429 . S
C819 C817 1.419 . S
C819 C820 1.363 . S
C819 H822 0.929 . S
C820 C819 1.363 . S
C820 C826 1.428 . S
H821 C817 0.930 . S
H822 C819 0.929 . S
S823 N824 1.613 . S
S823 N825 1.610 . S
N824 S823 1.613 . S
N824 C827 1.350 . S
N825 S823 1.610 . S
N825 C826 1.351 . S
C826 C820 1.428 . S
C826 N825 1.351 . S
C826 C827 1.434 . S
C827 C818 1.429 . S
C827 N824 1.350 . S
C827 C826 1.434 . S
C828 C829 1.369 . S
C828 C830 1.419 . S
C828 H832 0.930 . S
C829 C828 1.369 . S
C829 C838 1.429 . S
C830 C828 1.419 . S
C830 C831 1.363 . S
C830 H833 0.929 . S
C831 C830 1.363 . S
C831 C837 1.428 . S
H832 C828 0.930 . S
H833 C830 0.929 . S
S834 N835 1.613 . S
S834 N836 1.610 . S
N835 S834 1.613 . S
N835 C838 1.350 . S
N836 S834 1.610 . S
N836 C837 1.351 . S
C837 C831 1.428 . S
C837 N836 1.351 . S
C837 C838 1.434 . S
C838 C829 1.429 . S
C838 N835 1.350 . S
C838 C837 1.434 . S
C839 C840 1.369 . S
C839 C841 1.419 . S
C839 H843 0.930 . S
C840 C839 1.369 . S
C840 C849 1.429 . S
C841 C839 1.419 . S
C841 C842 1.363 . S
C841 H844 0.929 . S
C842 C841 1.363 . S
C842 C848 1.428 . S
H843 C839 0.930 . S
H844 C841 0.929 . S
S845 N846 1.613 . S
S845 N847 1.610 . S
N846 S845 1.613 . S
N846 C849 1.350 . S
N847 S845 1.610 . S
N847 C848 1.351 . S
C848 C842 1.428 . S
C848 N847 1.351 . S
C848 C849 1.434 . S
C849 C840 1.429 . S
C849 N846 1.350 . S
C849 C848 1.434 . S
C850 C851 1.369 . S
C850 C852 1.419 . S
C850 H854 0.930 . S
C851 C850 1.369 . S
C851 C860 1.429 . S
C852 C850 1.419 . S
C852 C853 1.363 . S
C852 H855 0.929 . S
C853 C852 1.363 . S
C853 C859 1.428 . S
H854 C850 0.930 . S
H855 C852 0.929 . S
S856 N857 1.613 . S
S856 N858 1.610 . S
N857 S856 1.613 . S
N857 C860 1.350 . S
N858 S856 1.610 . S
N858 C859 1.351 . S
C859 C853 1.428 . S
C859 N858 1.351 . S
C859 C860 1.434 . S
C860 C851 1.429 . S
C860 N857 1.350 . S
C860 C859 1.434 . S
C861 C862 1.369 . S
C861 C863 1.419 . S
C861 H865 0.930 . S
C862 C861 1.369 . S
C862 C871 1.429 . S
C863 C861 1.419 . S
C863 C864 1.363 . S
C863 H866 0.929 . S
C864 C863 1.363 . S
C864 C870 1.428 . S
H865 C861 0.930 . S
H866 C863 0.929 . S
S867 N868 1.613 . S
S867 N869 1.610 . S
N868 S867 1.613 . S
N868 C871 1.350 . S
N869 S867 1.610 . S
N869 C870 1.351 . S
C870 C864 1.428 . S
C870 N869 1.351 . S
C870 C871 1.434 . S
C871 C862 1.429 . S
C871 N868 1.350 . S
C871 C870 1.434 . S
C872 C873 1.369 . S
C872 C874 1.419 . S
C872 H876 0.930 . S
C873 C872 1.369 . S
C873 C882 1.429 . S
C874 C872 1.419 . S
C874 C875 1.363 . S
C874 H877 0.929 . S
C875 C874 1.363 . S
C875 C881 1.428 . S
H876 C872 0.930 . S
H877 C874 0.929 . S
S878 N879 1.613 . S
S878 N880 1.610 . S
N879 S878 1.613 . S
N879 C882 1.350 . S
N880 S878 1.610 . S
N880 C881 1.351 . S
C881 C875 1.428 . S
C881 N880 1.351 . S
C881 C882 1.434 . S
C882 C873 1.429 . S
C882 N879 1.350 . S
C882 C881 1.434 . S
C883 C884 1.369 . S
C883 C885 1.419 . S
C883 H887 0.930 . S
C884 C883 1.369 . S
C884 C893 1.429 . S
C885 C883 1.419 . S
C885 C886 1.363 . S
C885 H888 0.929 . S
C886 C885 1.363 . S
C886 C892 1.428 1_545 S
H887 C883 0.930 . S
H888 C885 0.929 . S
S889 N890 1.613 . S
S889 N891 1.610 . S
N890 S889 1.613 . S
N890 C893 1.350 1_565 S
N891 S889 1.610 . S
N891 C892 1.351 . S
C892 C886 1.428 1_565 S
C892 N891 1.351 . S
C892 C893 1.434 1_565 S
C893 C884 1.429 . S
C893 N890 1.350 1_545 S
C893 C892 1.434 1_545 S
C894 C895 1.369 . S
C894 C896 1.419 . S
C894 H898 0.930 . S
C895 C894 1.369 . S
C895 C904 1.429 . S
C896 C894 1.419 . S
C896 C897 1.363 . S
C896 H899 0.929 . S
C897 C896 1.363 . S
C897 C903 1.428 . S
H898 C894 0.930 . S
H899 C896 0.929 . S
S900 N901 1.613 . S
S900 N902 1.610 . S
N901 S900 1.613 . S
N901 C904 1.350 . S
N902 S900 1.610 . S
N902 C903 1.351 . S
C903 C897 1.428 . S
C903 N902 1.351 . S
C903 C904 1.434 . S
C904 C895 1.429 . S
C904 N901 1.350 . S
C904 C903 1.434 . S
C905 C906 1.369 . S
C905 C907 1.419 . S
C905 H909 0.930 . S
C906 C905 1.369 . S
C906 C915 1.429 . S
C907 C905 1.419 . S
C907 C908 1.363 . S
C907 H910 0.929 . S
C908 C907 1.363 . S
C908 C914 1.428 . S
H909 C905 0.930 . S
H910 C907 0.929 . S
S911 N912 1.613 . S
S911 N913 1.610 . S
N912 S911 1.613 . S
N912 C915 1.350 . S
N913 S911 1.610 . S
N913 C914 1.351 . S
C914 C908 1.428 . S
C914 N913 1.351 . S
C914 C915 1.434 . S
C915 C906 1.429 . S
C915 N912 1.350 . S
C915 C914 1.434 . S
C916 C917 1.369 . S
C916 C918 1.419 . S
C916 H920 0.930 . S
C917 C916 1.369 . S
C917 C926 1.429 . S
C918 C916 1.419 . S
C918 C919 1.363 . S
C918 H921 0.929 . S
C919 C918 1.363 . S
C919 C925 1.428 . S
H920 C916 0.930 . S
H921 C918 0.929 . S
S922 N923 1.613 . S
S922 N924 1.610 . S
N923 S922 1.613 . S
N923 C926 1.350 . S
N924 S922 1.610 . S
N924 C925 1.351 . S
C925 C919 1.428 . S
C925 N924 1.351 . S
C925 C926 1.434 . S
C926 C917 1.429 . S
C926 N923 1.350 . S
C926 C925 1.434 . S
C927 C928 1.369 . S
C927 C929 1.419 . S
C927 H931 0.930 . S
C928 C927 1.369 . S
C928 C937 1.429 . S
C929 C927 1.419 . S
C929 C930 1.363 . S
C929 H932 0.929 . S
C930 C929 1.363 . S
C930 C936 1.428 . S
H931 C927 0.930 . S
H932 C929 0.929 . S
S933 N934 1.612 1_465 S
S933 N935 1.598 1_465 S
N934 S933 1.612 1_645 S
N934 C937 1.350 . S
N935 S933 1.598 1_645 S
N935 C936 1.351 . S
C936 C930 1.428 . S
C936 N935 1.351 . S
C936 C937 1.434 . S
C937 C928 1.429 . S
C937 N934 1.350 . S
C937 C936 1.434 . S
C938 C939 1.369 . S
C938 C940 1.419 . S
C938 H942 0.930 . S
C939 C938 1.369 . S
C939 C948 1.429 . S
C940 C938 1.419 . S
C940 C941 1.363 . S
C940 H943 0.929 . S
C941 C940 1.363 . S
C941 C947 1.428 . S
H942 C938 0.930 . S
H943 C940 0.929 . S
S944 N945 1.613 . S
S944 N946 1.610 . S
N945 S944 1.613 . S
N945 C948 1.350 . S
N946 S944 1.610 . S
N946 C947 1.351 . S
C947 C941 1.428 . S
C947 N946 1.351 . S
C947 C948 1.434 . S
C948 C939 1.429 . S
C948 N945 1.350 . S
C948 C947 1.434 . S
C949 C950 1.369 . S
C949 C951 1.419 . S
C949 H953 0.930 1_455 S
C950 C949 1.369 . S
C950 C959 1.429 . S
C951 C949 1.419 . S
C951 C952 1.363 . S
C951 H954 0.929 . S
C952 C951 1.363 . S
C952 C958 1.428 . S
H953 C949 0.930 1_655 S
H954 C951 0.929 . S
S955 N956 1.613 . S
S955 N957 1.610 . S
N956 S955 1.613 . S
N956 C959 1.350 . S
N957 S955 1.610 . S
N957 C958 1.351 . S
C958 C952 1.428 . S
C958 N957 1.351 . S
C958 C959 1.434 . S
C959 C950 1.429 . S
C959 N956 1.350 . S
C959 C958 1.434 . S
C960 C961 1.369 . S
C960 C962 1.419 . S
C960 H964 0.930 . S
C961 C960 1.369 . S
C961 C970 1.429 . S
C962 C960 1.419 . S
C962 C963 1.363 . S
C962 H965 0.929 . S
C963 C962 1.363 . S
C963 C969 1.428 . S
H964 C960 0.930 . S
H965 C962 0.929 . S
S966 N967 1.613 . S
S966 N968 1.610 . S
N967 S966 1.613 . S
N967 C970 1.350 . S
N968 S966 1.610 . S
N968 C969 1.351 . S
C969 C963 1.428 . S
C969 N968 1.351 . S
C969 C970 1.434 . S
C970 C961 1.429 . S
C970 N967 1.350 . S
C970 C969 1.434 . S
C971 C972 1.369 1_455 S
C971 C973 1.419 1_554 S
C971 H975 0.930 . S
C972 C971 1.369 1_655 S
C972 C981 1.429 . S
C973 C971 1.419 1_556 S
C973 C974 1.363 . S
C973 H976 0.929 . S
C974 C973 1.363 . S
C974 C980 1.428 1_455 S
H975 C971 0.930 . S
H976 C973 0.929 . S
S977 N978 1.613 . S
S977 N979 1.610 1_554 S
N978 S977 1.613 . S
N978 C981 1.350 . S
N979 S977 1.610 1_556 S
N979 C980 1.351 . S
C980 C974 1.428 1_655 S
C980 N979 1.351 . S
C980 C981 1.434 1_556 S
C981 C972 1.429 . S
C981 N978 1.350 . S
C981 C980 1.434 1_554 S
C982 C983 1.369 . S
C982 C984 1.419 . S
C982 H986 0.930 . S
C983 C982 1.369 . S
C983 C992 1.429 . S
C984 C982 1.419 . S
C984 C985 1.363 . S
C984 H987 0.929 . S
C985 C984 1.363 . S
C985 C991 1.428 . S
H986 C982 0.930 . S
H987 C984 0.929 . S
S988 N989 1.613 . S
S988 N990 1.610 . S
N989 S988 1.613 . S
N989 C992 1.350 . S
N990 S988 1.610 . S
N990 C991 1.351 . S
C991 C985 1.428 . S
C991 N990 1.351 . S
C991 C992 1.434 . S
C992 C983 1.429 . S
C992 N989 1.350 . S
C992 C991 1.434 . S
C993 C994 1.369 . S
C993 C995 1.419 . S
C993 H997 0.930 . S
C994 C993 1.369 . S
C994 C1003 1.413 1_454 S
C995 C993 1.419 . S
C995 C996 1.363 1_554 S
C995 H998 0.929 . S
C996 C995 1.363 1_556 S
C996 C1002 1.428 1_455 S
H997 C993 0.930 . S
H998 C995 0.929 . S
S999 N1000 1.613 . S
S999 N1001 1.610 . S
N1000 S999 1.613 . S
N1000 C1003 1.361 . S
N1001 S999 1.610 . S
N1001 C1002 1.351 . S
C1002 C996 1.428 1_655 S
C1002 N1001 1.351 . S
C1002 C1003 1.440 . S
C1003 C994 1.413 1_656 S
C1003 N1000 1.361 . S
C1003 C1002 1.440 . S
C1004 C1005 1.369 . S
C1004 C1006 1.419 . S
C1004 H1008 0.930 . S
C1005 C1004 1.369 . S
C1005 C1014 1.429 . S
C1006 C1004 1.419 . S
C1006 C1007 1.363 . S
C1006 H1009 0.929 . S
C1007 C1006 1.363 . S
C1007 C1013 1.428 . S
H1008 C1004 0.930 . S
H1009 C1006 0.929 . S
S1010 N1011 1.613 . S
S1010 N1012 1.610 . S
N1011 S1010 1.613 . S
N1011 C1014 1.350 . S
N1012 S1010 1.610 . S
N1012 C1013 1.351 . S
C1013 C1007 1.428 . S
C1013 N1012 1.351 . S
C1013 C1014 1.434 . S
C1014 C1005 1.429 . S
C1014 N1011 1.350 . S
C1014 C1013 1.434 . S
C1015 C1016 1.369 . S
C1015 C1017 1.419 . S
C1015 H1019 0.930 . S
C1016 C1015 1.369 . S
C1016 C1025 1.429 . S
C1017 C1015 1.419 . S
C1017 C1018 1.363 . S
C1017 H1020 0.929 . S
C1018 C1017 1.363 . S
C1018 C1024 1.428 . S
H1019 C1015 0.930 . S
H1020 C1017 0.929 . S
S1021 N1022 1.613 . S
S1021 N1023 1.610 . S
N1022 S1021 1.613 . S
N1022 C1025 1.350 . S
N1023 S1021 1.610 . S
N1023 C1024 1.351 . S
C1024 C1018 1.428 . S
C1024 N1023 1.351 . S
C1024 C1025 1.434 . S
C1025 C1016 1.429 . S
C1025 N1022 1.350 . S
C1025 C1024 1.434 . S
C1026 C1027 1.369 . S
C1026 C1028 1.419 . S
C1026 H1030 0.930 . S
C1027 C1026 1.369 . S
C1027 C1036 1.429 . S
C1028 C1026 1.419 . S
C1028 C1029 1.363 . S
C1028 H1031 0.929 . S
C1029 C1028 1.363 . S
C1029 C1035 1.428 . S
H1030 C1026 0.930 . S
H1031 C1028 0.929 . S
S1032 N1033 1.613 . S
S1032 N1034 1.610 . S
N1033 S1032 1.613 . S
N1033 C1036 1.350 . S
N1034 S1032 1.610 . S
N1034 C1035 1.351 . S
C1035 C1029 1.428 . S
C1035 N1034 1.351 . S
C1035 C1036 1.434 . S
C1036 C1027 1.429 . S
C1036 N1033 1.350 . S
C1036 C1035 1.434 . S
C1037 C1038 1.369 . S
C1037 C1039 1.419 . S
C1037 H1041 0.930 . S
C1038 C1037 1.369 . S
C1038 C1047 1.429 . S
C1039 C1037 1.419 . S
C1039 C1040 1.363 . S
C1039 H1042 0.929 . S
C1040 C1039 1.363 . S
C1040 C1046 1.428 . S
H1041 C1037 0.930 . S
H1042 C1039 0.929 . S
S1043 N1044 1.613 . S
S1043 N1045 1.610 . S
N1044 S1043 1.613 . S
N1044 C1047 1.350 . S
N1045 S1043 1.610 . S
N1045 C1046 1.351 . S
C1046 C1040 1.428 . S
C1046 N1045 1.351 . S
C1046 C1047 1.434 . S
C1047 C1038 1.429 . S
C1047 N1044 1.350 . S
C1047 C1046 1.434 . S
C1048 C1049 1.369 . S
C1048 C1050 1.419 . S
C1048 H1052 0.930 . S
C1049 C1048 1.369 . S
C1049 C1058 1.429 . S
C1050 C1048 1.419 . S
C1050 C1051 1.363 . S
C1050 H1053 0.929 . S
C1051 C1050 1.363 . S
C1051 C1057 1.428 . S
H1052 C1048 0.930 . S
H1053 C1050 0.929 . S
S1054 N1055 1.613 . S
S1054 N1056 1.610 . S
N1055 S1054 1.613 . S
N1055 C1058 1.350 . S
N1056 S1054 1.610 . S
N1056 C1057 1.351 . S
C1057 C1051 1.428 . S
C1057 N1056 1.351 . S
C1057 C1058 1.434 . S
C1058 C1049 1.429 . S
C1058 N1055 1.350 . S
C1058 C1057 1.434 . S
C1059 C1060 1.369 . S
C1059 C1061 1.419 . S
C1059 H1063 0.930 . S
C1060 C1059 1.369 . S
C1060 C1069 1.429 . S
C1061 C1059 1.419 . S
C1061 C1062 1.363 . S
C1061 H1064 0.929 . S
C1062 C1061 1.363 . S
C1062 C1068 1.428 . S
H1063 C1059 0.930 . S
H1064 C1061 0.929 . S
S1065 N1066 1.613 . S
S1065 N1067 1.610 . S
N1066 S1065 1.613 . S
N1066 C1069 1.350 . S
N1067 S1065 1.610 . S
N1067 C1068 1.351 . S
C1068 C1062 1.428 . S
C1068 N1067 1.351 . S
C1068 C1069 1.434 . S
C1069 C1060 1.429 . S
C1069 N1066 1.350 . S
C1069 C1068 1.434 . S
C1070 C1071 1.369 . S
C1070 C1072 1.419 . S
C1070 H1074 0.930 . S
C1071 C1070 1.369 . S
C1071 C1080 1.429 . S
C1072 C1070 1.419 . S
C1072 C1073 1.363 . S
C1072 H1075 0.929 . S
C1073 C1072 1.363 . S
C1073 C1079 1.428 . S
H1074 C1070 0.930 . S
H1075 C1072 0.929 . S
S1076 N1077 1.613 . S
S1076 N1078 1.610 . S
N1077 S1076 1.613 . S
N1077 C1080 1.350 . S
N1078 S1076 1.610 . S
N1078 C1079 1.351 . S
C1079 C1073 1.428 . S
C1079 N1078 1.351 . S
C1079 C1080 1.434 . S
C1080 C1071 1.429 . S
C1080 N1077 1.350 . S
C1080 C1079 1.434 . S
C1081 C1082 1.369 . S
C1081 C1083 1.419 . S
C1081 H1085 0.930 . S
C1082 C1081 1.369 . S
C1082 C1091 1.429 . S
C1083 C1081 1.419 . S
C1083 C1084 1.363 . S
C1083 H1086 0.929 . S
C1084 C1083 1.363 . S
C1084 C1090 1.428 . S
H1085 C1081 0.930 . S
H1086 C1083 0.929 . S
S1087 N1088 1.613 . S
S1087 N1089 1.610 . S
N1088 S1087 1.613 . S
N1088 C1091 1.350 . S
N1089 S1087 1.610 . S
N1089 C1090 1.351 . S
C1090 C1084 1.428 . S
C1090 N1089 1.351 . S
C1090 C1091 1.434 . S
C1091 C1082 1.429 . S
C1091 N1088 1.350 . S
C1091 C1090 1.434 . S
C1092 C1093 1.369 1_554 S
C1092 C1094 1.419 . S
C1092 H1096 0.930 . S
C1093 C1092 1.369 1_556 S
C1093 C1102 1.429 . S
C1094 C1092 1.419 . S
C1094 C1095 1.363 1_554 S
C1094 H1097 0.929 . S
C1095 C1094 1.363 1_556 S
C1095 C1101 1.428 . S
H1096 C1092 0.930 . S
H1097 C1094 0.929 . S
S1098 N1099 1.613 . S
S1098 N1100 1.610 . S
N1099 S1098 1.613 . S
N1099 C1102 1.350 . S
N1100 S1098 1.610 . S
N1100 C1101 1.351 . S
C1101 C1095 1.428 . S
C1101 N1100 1.351 . S
C1101 C1102 1.434 . S
C1102 C1093 1.429 . S
C1102 N1099 1.350 . S
C1102 C1101 1.434 . S
C1103 C1104 1.369 . S
C1103 C1105 1.419 . S
C1103 H1107 0.930 . S
C1104 C1103 1.369 . S
C1104 C1113 1.429 . S
C1105 C1103 1.419 . S
C1105 C1106 1.363 . S
C1105 H1108 0.929 . S
C1106 C1105 1.363 . S
C1106 C1112 1.428 . S
H1107 C1103 0.930 . S
H1108 C1105 0.929 . S
S1109 N1110 1.613 . S
S1109 N1111 1.610 . S
N1110 S1109 1.613 . S
N1110 C1113 1.350 . S
N1111 S1109 1.610 . S
N1111 C1112 1.351 . S
C1112 C1106 1.428 . S
C1112 N1111 1.351 . S
C1112 C1113 1.434 . S
C1113 C1104 1.429 . S
C1113 N1110 1.350 . S
C1113 C1112 1.434 . S
C1114 C1115 1.369 . S
C1114 C1116 1.419 . S
C1114 H1118 0.930 . S
C1115 C1114 1.369 . S
C1115 C1124 1.429 . S
C1116 C1114 1.419 . S
C1116 C1117 1.363 . S
C1116 H1119 0.929 1_554 S
C1117 C1116 1.363 . S
C1117 C1123 1.428 . S
H1118 C1114 0.930 . S
H1119 C1116 0.929 1_556 S
S1120 N1121 1.613 . S
S1120 N1122 1.610 . S
N1121 S1120 1.613 . S
N1121 C1124 1.350 . S
N1122 S1120 1.610 . S
N1122 C1123 1.351 . S
C1123 C1117 1.428 . S
C1123 N1122 1.351 . S
C1123 C1124 1.434 . S
C1124 C1115 1.429 . S
C1124 N1121 1.350 . S
C1124 C1123 1.434 . S
C1125 C1126 1.369 . S
C1125 C1127 1.419 . S
C1125 H1129 0.930 . S
C1126 C1125 1.369 . S
C1126 C1135 1.429 1_554 S
C1127 C1125 1.419 . S
C1127 C1128 1.363 . S
C1127 H1130 0.929 . S
C1128 C1127 1.363 . S
C1128 C1134 1.428 1_554 S
H1129 C1125 0.930 . S
H1130 C1127 0.929 . S
S1131 N1132 1.613 . S
S1131 N1133 1.610 . S
N1132 S1131 1.613 . S
N1132 C1135 1.350 . S
N1133 S1131 1.610 . S
N1133 C1134 1.351 . S
C1134 C1128 1.428 1_556 S
C1134 N1133 1.351 . S
C1134 C1135 1.434 . S
C1135 C1126 1.429 1_556 S
C1135 N1132 1.350 . S
C1135 C1134 1.434 . S
C611 C178 1.247 . S
C609 C62 1.277 . S
C622 C226 1.587 . S
C620 C73 1.584 . S
C631 C84 1.411 . S
C633 C262 1.442 . S
C644 C298 1.372 . S
C642 C49 1.255 . S
C655 C324 1.405 . S
C653 C118 1.366 . S
C666 C360 1.655 . S
C664 C137 1.413 . S
C675 C129 1.544 . S
C677 C395 1.547 . S
C688 C432 1.872 1_565 S
C686 C106 1.827 . S
C697 C128 1.697 . S
C699 C466 1.713 . S
C710 C514 1.633 . S
C708 C104 1.488 . S
C719 C115 1.417 . S
C721 C467 1.763 . S
C732 C504 1.799 . S
C730 C139 1.744 . S
C741 C85 1.522 . S
C743 C550 1.474 . S
C752 C52 1.328 . S
C754 C539 1.326 . S
C763 C60 1.215 . S
C765 C540 1.199 . S
C774 C71 1.565 . S
C776 C538 1.691 . S
C785 C40 1.543 . S
C787 C286 1.682 . S
C796 C162 1.297 . S
C798 C287 1.304 . S
C809 C190 1.290 . S
C807 C173 1.326 1_556 S
C820 C215 1.686 . S
C818 C93 1.447 . S
C829 C51 1.505 . S
C831 C322 1.531 . S
C842 C430 1.515 . S
C840 C126 1.453 . S
C853 C323 1.765 . S
C851 C107 1.765 . S
C864 C396 1.685 . S
C862 C140 1.665 . S
C875 C394 1.250 . S
C873 C161 1.276 . S
C884 C172 1.583 . S
C886 C442 1.585 . S
C895 C95 1.419 . S
C897 C334 1.437 . S
C908 C370 1.368 . S
C906 C148 1.264 . S
C917 C41 1.370 . S
C919 C252 1.403 . S
C930 C288 1.656 . S
C928 C5 1.407 . S
C941 C179 1.546 . S
C939 C19 1.544 . S
C952 C216 1.871 . S
C950 C29 1.828 1_455 S
C961 C18 1.697 . S
C963 C502 1.713 . S
C972 C27 1.501 . S
C974 C478 1.624 . S
C983 C38 1.420 . S
C985 C503 1.763 . S
C994 C7 1.742 . S
C996 C468 1.800 . S
C1007 C586 1.476 . S
C1005 C96 1.527 . S
C1018 C575 1.326 . S
C1016 C151 1.325 . S
C1029 C576 1.199 . S
C1027 C159 1.214 . S
C1038 C170 1.578 . S
C1040 C574 1.695 . S
C1049 C117 1.545 . S
C1051 C358 1.682 . S
C1062 C359 1.302 . S
C1060 C63 1.300 . S
C1073 C406 1.293 . S
C1071 C74 1.322 . S
C1084 C431 1.686 . S
C1082 C82 1.432 . S
C1093 C150 1.506 . S
C1095 C250 1.531 . S
C1106 C214 1.512 . S
C1104 C16 1.447 . S
C1115 C30 1.769 . S
C1117 C251 1.764 . S
C1128 C180 1.684 . S
C1126 C8 1.666 . S
