# Generated by pormake.
# Topology zzz, (3,6)-cn, num edge types: 1
# Building blocks:
#     Node 0, Type 0, BuildingBlock: WUSLED_clean_sbu_0, # of connection points: 3
#     Node 1, Type 0, BuildingBlock: WUSLED_clean_sbu_0, # of connection points: 3
#     Node 2, Type 0, BuildingBlock: WUSLED_clean_sbu_0, # of connection points: 3
#     Node 3, Type 0, BuildingBlock: WUSLED_clean_sbu_0, # of connection points: 3
#     Node 4, Type 0, BuildingBlock: WUSLED_clean_sbu_0, # of connection points: 3
#     Node 5, Type 0, BuildingBlock: WUSLED_clean_sbu_0, # of connection points: 3
#     Node 6, Type 0, BuildingBlock: WUSLED_clean_sbu_0, # of connection points: 3
#     Node 7, Type 0, BuildingBlock: WUSLED_clean_sbu_0, # of connection points: 3
#     Node 8, Type 1, BuildingBlock: PAMTOO_clean_sbu_0, # of connection points: 6
#     Node 9, Type 1, BuildingBlock: PAMTOO_clean_sbu_0, # of connection points: 6
#     Node 10, Type 1, BuildingBlock: PAMTOO_clean_sbu_0, # of connection points: 6
#     Node 11, Type 1, BuildingBlock: PAMTOO_clean_sbu_0, # of connection points: 6
#     Edge 12, Type (0, 1), BuildingBlock: EZIPEK_clean_linker_0, # of connection points: 2
#     Edge 13, Type (0, 1), BuildingBlock: EZIPEK_clean_linker_0, # of connection points: 2
#     Edge 14, Type (0, 1), BuildingBlock: EZIPEK_clean_linker_0, # of connection points: 2
#     Edge 15, Type (0, 1), BuildingBlock: EZIPEK_clean_linker_0, # of connection points: 2
#     Edge 16, Type (0, 1), BuildingBlock: EZIPEK_clean_linker_0, # of connection points: 2
#     Edge 17, Type (0, 1), BuildingBlock: EZIPEK_clean_linker_0, # of connection points: 2
#     Edge 18, Type (0, 1), BuildingBlock: EZIPEK_clean_linker_0, # of connection points: 2
#     Edge 19, Type (0, 1), BuildingBlock: EZIPEK_clean_linker_0, # of connection points: 2
#     Edge 20, Type (0, 1), BuildingBlock: EZIPEK_clean_linker_0, # of connection points: 2
#     Edge 21, Type (0, 1), BuildingBlock: EZIPEK_clean_linker_0, # of connection points: 2
#     Edge 22, Type (0, 1), BuildingBlock: EZIPEK_clean_linker_0, # of connection points: 2
#     Edge 23, Type (0, 1), BuildingBlock: EZIPEK_clean_linker_0, # of connection points: 2
#     Edge 24, Type (0, 1), BuildingBlock: EZIPEK_clean_linker_0, # of connection points: 2
#     Edge 25, Type (0, 1), BuildingBlock: EZIPEK_clean_linker_0, # of connection points: 2
#     Edge 26, Type (0, 1), BuildingBlock: EZIPEK_clean_linker_0, # of connection points: 2
#     Edge 27, Type (0, 1), BuildingBlock: EZIPEK_clean_linker_0, # of connection points: 2
#     Edge 28, Type (0, 1), BuildingBlock: EZIPEK_clean_linker_0, # of connection points: 2
#     Edge 29, Type (0, 1), BuildingBlock: EZIPEK_clean_linker_0, # of connection points: 2
#     Edge 30, Type (0, 1), BuildingBlock: EZIPEK_clean_linker_0, # of connection points: 2
#     Edge 31, Type (0, 1), BuildingBlock: EZIPEK_clean_linker_0, # of connection points: 2
#     Edge 32, Type (0, 1), BuildingBlock: EZIPEK_clean_linker_0, # of connection points: 2
#     Edge 33, Type (0, 1), BuildingBlock: EZIPEK_clean_linker_0, # of connection points: 2
#     Edge 34, Type (0, 1), BuildingBlock: EZIPEK_clean_linker_0, # of connection points: 2
#     Edge 35, Type (0, 1), BuildingBlock: EZIPEK_clean_linker_0, # of connection points: 2
# Relax obj value: 0.353
# Max RMSD: 0.276
# Mean RMSD: 0.215
data_MOF--net-zzz--node1-WUSLED_clean_sbu_0--node2-PAMTOO_clean_sbu_0--edge1-EZIPEK_clean_linker_0
_symmetry_space_group_name_H-M    P1
_symmetry_Int_Tables_number       1
_symmetry_cell_setting            triclinic
loop_
_symmetry_equiv_pos_as_xyz
'x, y, z'
_cell_length_a     55.33945
_cell_length_b     47.561294
_cell_length_c     17.76178
_cell_angle_alpha  91.802864
_cell_angle_beta   80.134658
_cell_angle_gamma 84.899761
loop_
_atom_site_label
_atom_site_type_symbol
_atom_site_fract_x
_atom_site_fract_y
_atom_site_fract_z
_atom_type_partial_charge
C0 C 0.82646 0.52335 0.58648 0.0
C1 C 0.84786 0.5333 0.54525 0.0
C2 C 0.87134 0.51923 0.64486 0.0
C3 C 0.87002 0.53132 0.57427 0.0
C4 C 0.85006 0.50915 0.68587 0.0
C5 C 0.82787 0.51127 0.6571 0.0
U6 U 0.78786 0.51506 0.42698 0.0
O7 O 0.75697 0.54291 0.39794 0.0
O8 O 0.75136 0.49949 0.42954 0.0
C9 C 0.74191 0.5229 0.4038 0.0
C10 C 0.80253 0.5257 0.55783 0.0
C11 C 0.72728 0.52005 0.34125 0.0
C12 C 0.69379 0.53911 0.27837 0.0
C13 C 0.70869 0.54148 0.33433 0.0
C14 C 0.71587 0.49382 0.23401 0.0
C15 C 0.69718 0.51526 0.2276 0.0
C16 C 0.73069 0.49611 0.29049 0.0
C17 C 0.82488 0.48534 0.23176 0.0
C18 C 0.8089 0.46757 0.12191 0.0
C19 C 0.85295 0.46814 0.1169 0.0
C20 C 0.84886 0.48003 0.19094 0.0
C21 C 0.83311 0.46134 0.08229 0.0
C22 C 0.80479 0.47954 0.1968 0.0
C23 C 0.82189 0.49518 0.31198 0.0
O24 O 0.79964 0.54496 0.50773 0.0
O25 O 0.79398 0.50178 0.54102 0.0
O26 O 0.81028 0.47907 0.36205 0.0
O27 O 0.81576 0.52235 0.32715 0.0
H28 H 0.8475 0.54261 0.49055 0.0
H29 H 0.88622 0.53906 0.54138 0.0
H30 H 0.85065 0.4996 0.74017 0.0
H31 H 0.81174 0.50344 0.69017 0.0
H32 H 0.67953 0.5559 0.27476 0.0
H33 H 0.7055 0.56005 0.37293 0.0
H34 H 0.71886 0.47521 0.1956 0.0
H35 H 0.74463 0.47906 0.29482 0.0
H36 H 0.7934 0.4626 0.09576 0.0
H37 H 0.87175 0.46357 0.08702 0.0
H38 H 0.86453 0.4844 0.2171 0.0
H39 H 0.78615 0.48369 0.22786 0.0
C40 C 0.99383 0.78732 0.52949 0.0
C41 C 0.97617 0.81088 0.53622 0.0
C42 C 1.00422 0.84099 0.58381 0.0
C43 C 0.98133 0.8374 0.56275 0.0
C44 C 0.02205 0.81765 0.57656 0.0
C45 C 1.01693 0.79109 0.54969 0.0
U46 U 0.99911 0.72188 0.38936 0.0
O47 O 0.99878 0.6763 0.40887 0.0
O48 O 0.96914 0.69851 0.36006 0.0
C49 C 0.97955 0.67394 0.37543 0.0
C50 C 0.98716 0.75894 0.50627 0.0
C51 C 0.98256 0.65181 0.31313 0.0
C52 C 0.97063 0.60805 0.26137 0.0
C53 C 0.96857 0.62852 0.32139 0.0
C54 C 1.00079 0.63384 0.18395 0.0
C55 C 0.98669 0.6106 0.19199 0.0
C56 C 0.99874 0.65428 0.24395 0.0
C57 C 0.04462 0.76121 0.25887 0.0
C58 C 0.05906 0.79441 0.16506 0.0
C59 C 0.0567 0.80625 0.30023 0.0
C60 C 0.04805 0.78008 0.31783 0.0
C61 C 0.06133 0.81389 0.22377 0.0
C62 C 0.0508 0.7682 0.18253 0.0
C63 C 0.03171 0.736 0.27556 0.0
O64 O 0.97491 0.75805 0.44914 0.0
O65 O 1.00389 0.73728 0.50383 0.0
O66 O 0.03771 0.72111 0.33189 0.0
O67 O 1.00785 0.74009 0.27722 0.0
H68 H 0.95814 0.80869 0.52194 0.0
H69 H 0.96731 0.8551 0.5679 0.0
H70 H 0.03984 0.81996 0.5924 0.0
H71 H 0.03098 0.77348 0.54572 0.0
H72 H 0.95966 0.59026 0.26887 0.0
H73 H 0.95591 0.62627 0.3741 0.0
H74 H 1.01332 0.63619 0.13105 0.0
H75 H 1.00963 0.67214 0.2362 0.0
H76 H 0.06269 0.8 0.10577 0.0
H77 H 0.05846 0.8211 0.34606 0.0
H78 H 0.04308 0.77507 0.37724 0.0
H79 H 0.04809 0.75393 0.13656 0.0
C80 C 0.72694 0.9933 0.46922 0.0
C81 C 0.70762 1.00416 0.433 0.0
C82 C 0.67709 0.99617 0.54582 0.0
C83 C 0.68293 0.00567 0.47105 0.0
C84 C 0.69643 0.98532 0.58164 0.0
C85 C 0.72101 0.98396 0.54388 0.0
U86 U 0.78208 1.00452 0.30515 0.0
O87 O 0.81466 0.97476 0.26087 0.0
O88 O 0.81955 0.01541 0.31465 0.0
C89 C 0.83042 0.99233 0.27614 0.0
C90 C 0.75332 0.99102 0.43127 0.0
C91 C 0.85179 0.99578 0.21428 0.0
C92 C 0.8958 1.00084 0.17701 0.0
C93 C 0.875 0.99902 0.23382 0.0
C94 C 0.87068 0.99651 0.07926 0.0
C95 C 0.89394 0.99943 0.09905 0.0
C96 C 0.84981 0.99471 0.13622 0.0
C97 C 0.73526 0.0403 0.19514 0.0
C98 C 0.70376 0.04279 0.11549 0.0
C99 C 0.69377 0.0611 0.24726 0.0
C100 C 0.71805 0.05342 0.25651 0.0
C101 C 0.6865 0.05551 0.17683 0.0
C102 C 0.72797 0.03526 0.12458 0.0
C103 C 0.76064 0.03083 0.20331 0.0
O104 O 0.75964 0.97412 0.36969 0.0
O105 O 0.76417 0.01454 0.42528 0.0
O106 O 0.76972 0.04411 0.25662 0.0
O107 O 0.76585 1.00328 0.20065 0.0
H108 H 0.71162 0.01131 0.37534 0.0
H109 H 0.66837 0.01405 0.44199 0.0
H110 H 0.69248 0.97783 0.63901 0.0
H111 H 0.73549 0.97543 0.57311 0.0
H112 H 0.91345 1.00311 0.19391 0.0
H113 H 0.87711 0.99982 0.29334 0.0
H114 H 0.86871 0.99543 0.01964 0.0
H115 H 0.83221 0.99223 0.11923 0.0
H116 H 0.6984 0.03847 0.0607 0.0
H117 H 0.68062 0.07101 0.29498 0.0
H118 H 0.72328 0.05746 0.31161 0.0
H119 H 0.74097 0.02519 0.07666 0.0
C120 C 0.53572 0.69331 0.39949 0.0
C121 C 0.54931 0.66841 0.36463 0.0
C122 C 0.53426 0.64171 0.4755 0.0
C123 C 0.54857 0.64285 0.40234 0.0
C124 C 0.52027 0.66635 0.50939 0.0
C125 C 0.52102 0.69183 0.4719 0.0
U126 U 0.5328 0.75013 0.24474 0.0
O127 O 0.5209 0.79564 0.2641 0.0
O128 O 0.55916 0.78176 0.21313 0.0
C129 C 0.54232 0.80327 0.23132 0.0
C130 C 0.53843 0.72149 0.36634 0.0
C131 C 0.54169 0.825 0.17349 0.0
C132 C 0.5535 0.87036 0.12676 0.0
C133 C 0.55418 0.84918 0.17973 0.0
C134 C 0.52796 0.84342 0.05967 0.0
C135 C 0.54029 0.86775 0.06647 0.0
C136 C 0.52868 0.82218 0.11267 0.0
C137 C 0.51121 0.69625 0.10944 0.0
C138 C 0.5127 0.65995 1.00941 0.0
C139 C 0.49261 0.65252 0.13873 0.0
C140 C 0.49834 0.67914 0.1625 0.0
C141 C 0.5 0.64273 0.06206 0.0
C142 C 0.51822 0.68649 0.0329 0.0
C143 C 0.51768 0.72434 0.13119 0.0
O144 O 0.55624 0.72334 0.30779 0.0
O145 O 0.51806 0.73715 0.36066 0.0
O146 O 0.54107 0.72597 0.13434 0.0
O147 O 0.5026 0.73874 0.18731 0.0
H148 H 0.56096 0.66878 0.30915 0.0
H149 H 0.55954 0.6241 0.37517 0.0
H150 H 0.50914 0.66599 0.56577 0.0
H151 H 0.51059 0.71066 0.50059 0.0
H152 H 0.56307 0.88895 0.13322 0.0
H153 H 0.56434 0.85179 0.22607 0.0
H154 H 0.51762 0.84101 0.01368 0.0
H155 H 0.51897 0.80367 0.10655 0.0
H156 H 0.51851 0.65271 0.95006 0.0
H157 H 0.48277 0.63943 0.17997 0.0
H158 H 0.49283 0.68628 0.22199 0.0
H159 H 0.52812 0.69941 0.99121 0.0
C160 C 0.20051 0.4684 0.98189 0.0
C161 C 0.18705 0.4446 0.9814 0.0
C162 C 0.15413 0.47181 0.93188 0.0
C163 C 0.16414 0.44631 0.95694 0.0
C164 C 0.16759 0.49554 0.93138 0.0
C165 C 0.1905 0.49386 0.95589 0.0
U166 U 0.24171 0.47923 0.13298 0.0
O167 O 0.27881 0.49376 0.12362 0.0
O168 O 0.27237 0.45153 0.16401 0.0
C169 C 0.28794 0.47096 0.15297 0.0
C170 C 0.22514 0.46619 1.0069 0.0
C171 C 0.30305 0.47514 0.21363 0.0
C172 C 0.33737 0.45802 0.27549 0.0
C173 C 0.32202 0.4543 0.22145 0.0
C174 C 0.31503 0.50352 0.31597 0.0
C175 C 0.33413 0.48271 0.32311 0.0
C176 C 0.29965 0.4998 0.26171 0.0
C177 C 0.20605 0.51318 0.3265 0.0
C178 C 0.21875 0.54209 0.42552 0.0
C179 C 0.17796 0.52571 0.44488 0.0
C180 C 0.18335 0.51143 0.37374 0.0
C181 C 0.19524 0.54195 0.47022 0.0
C182 C 0.2241 0.52789 0.35332 0.0
C183 C 0.2089 0.50191 0.24745 0.0
O184 O 0.2348 0.48996 0.01805 0.0
O185 O 0.22836 0.44795 0.0593 0.0
O186 O 0.21423 0.47448 0.23596 0.0
O187 O 0.22061 0.51677 0.19419 0.0
H188 H 0.19425 0.42455 0.9999 0.0
H189 H 0.15418 0.4277 0.95764 0.0
H190 H 0.16031 0.51542 0.91207 0.0
H191 H 0.20034 0.51257 0.95437 0.0
H192 H 0.35193 0.44167 0.27988 0.0
H193 H 0.32514 0.43516 0.18502 0.0
H194 H 0.31213 0.52271 0.35211 0.0
H195 H 0.2853 0.51631 0.2569 0.0
H196 H 0.23235 0.55432 0.4446 0.0
H197 H 0.15975 0.52524 0.47874 0.0
H198 H 0.16926 0.50014 0.35402 0.0
H199 H 0.24179 0.52935 0.31742 0.0
C200 C 0.04029 0.23069 0.98678 0.0
C201 C 0.03861 0.20707 0.03241 0.0
C202 C 0.03502 0.17693 0.92216 0.0
C203 C 0.03609 0.18041 1.00029 0.0
C204 C 0.03638 0.20057 0.87665 0.0
C205 C 0.03903 0.22725 0.90875 0.0
U206 U 0.03509 0.28025 0.16176 0.0
O207 O 0.02278 0.32567 0.1816 0.0
O208 O 0.06032 0.31 0.1939 0.0
C209 C 0.04361 0.33183 0.20129 0.0
C210 C 0.04333 0.25882 0.0203 0.0
C211 C 0.04156 0.35054 0.27067 0.0
C212 C 0.04361 0.39754 0.32642 0.0
C213 C 0.04545 0.37912 0.26221 0.0
C214 C 0.03412 0.35903 0.40917 0.0
C215 C 0.0379 0.3877 0.40043 0.0
C216 C 0.03591 0.34055 0.34469 0.0
C217 C 1.00885 0.24238 0.34812 0.0
C218 C 0.9799 0.25394 0.4668 0.0
C219 C 1.00285 0.20773 0.44465 0.0
C220 C 1.01496 0.21575 0.37469 0.0
C221 C 0.98448 0.22624 0.48969 0.0
C222 C 0.99187 0.26192 0.39557 0.0
C223 C 0.01745 0.24653 0.26675 0.0
O224 O 0.02282 0.27406 0.05098 0.0
O225 O 0.0605 0.25926 0.06299 0.0
O226 O 0.0412 0.24772 0.24388 0.0
O227 O 1.00343 0.26345 0.23148 0.0
H228 H 0.03936 0.20922 0.09285 0.0
H229 H 0.03503 0.16245 0.03634 0.0
H230 H 0.03555 0.19832 0.81629 0.0
H231 H 0.04018 0.24517 0.87258 0.0
H232 H 0.04647 0.41957 0.31843 0.0
H233 H 0.04983 0.38725 0.20567 0.0
H234 H 0.02954 0.35107 0.46581 0.0
H235 H 0.03281 0.31857 0.3525 0.0
H236 H 0.966 0.26862 0.50148 0.0
H237 H 1.00679 0.18633 0.46158 0.0
H238 H 0.02794 0.20038 0.33891 0.0
H239 H 0.98695 0.28265 0.37603 0.0
C240 C 0.32175 0.01987 0.05927 0.0
C241 C 0.33831 0.99689 0.07144 0.0
C242 C 0.37219 0.01609 0.98722 0.0
C243 C 0.36326 0.99504 0.03583 0.0
C244 C 0.35569 0.03917 0.97604 0.0
C245 C 0.33084 0.041 1.01154 0.0
U246 U 0.26418 0.01118 0.21665 0.0
O247 O 0.2278 0.99776 0.20442 0.0
O248 O 0.23048 0.04056 0.24911 0.0
C249 C 0.21573 0.0215 0.23582 0.0
C250 C 0.29483 0.02186 0.09163 0.0
C251 C 0.19393 0.01909 0.29671 0.0
C252 C 0.15063 0.03331 0.34947 0.0
C253 C 0.17156 0.03505 0.29315 0.0
C254 C 0.17395 0.99951 0.41462 0.0
C255 C 0.15155 0.01553 0.41084 0.0
C256 C 0.19495 1.0013 0.35817 0.0
C257 C 0.30913 0.98236 0.34122 0.0
C258 C 0.33667 0.95931 0.4175 0.0
C259 C 0.35295 0.98752 0.31238 0.0
C260 C 0.32925 0.99317 0.29589 0.0
C261 C 0.35668 0.97087 0.37396 0.0
C262 C 0.31299 0.96508 0.40123 0.0
C263 C 0.28395 0.98987 0.32863 0.0
O264 O 0.28447 0.99807 0.10101 0.0
O265 O 0.28666 0.04069 0.14809 0.0
O266 O 0.27793 0.01705 0.3242 0.0
O267 O 0.27662 0.97417 0.27626 0.0
H268 H 0.33194 0.98023 0.10779 0.0
H269 H 0.37557 0.97706 0.04566 0.0
H270 H 0.36203 0.0557 0.93915 0.0
H271 H 0.31855 0.05888 1.00077 0.0
H272 H 0.13366 0.04589 0.3452 0.0
H273 H 0.17025 0.04895 0.24655 0.0
H274 H 0.17518 0.9857 0.46141 0.0
H275 H 0.21197 0.98882 0.36254 0.0
H276 H 0.33932 0.94653 0.46538 0.0
H277 H 0.36824 0.99665 0.27853 0.0
H278 H 0.32652 0.00653 0.24919 0.0
H279 H 0.29763 0.95658 0.43655 0.0
C280 C 0.5008 0.3151 0.14452 0.0
C281 C 0.52373 0.32564 0.12054 0.0
C282 C 0.50367 0.36604 0.0664 0.0
C283 C 0.52513 0.35086 0.08166 0.0
C284 C 0.48074 0.35614 0.09289 0.0
C285 C 0.47934 0.3309 0.13141 0.0
U286 U 0.51247 0.25583 0.28494 0.0
O287 O 0.52106 0.20988 0.26121 0.0
O288 O 0.48596 0.22628 0.33247 0.0
C289 C 0.50085 0.20377 0.30593 0.0
C290 C 0.4988 0.28663 0.17603 0.0
C291 C 0.50327 0.18127 0.36107 0.0
C292 C 0.48417 0.14534 0.43976 0.0
C293 C 0.48258 0.16706 0.3888 0.0
C294 C 0.52728 0.15149 0.43645 0.0
C295 C 0.50653 0.13731 0.46382 0.0
C296 C 0.52568 0.17334 0.38561 0.0
C297 C 0.54412 0.30811 0.39365 0.0
C298 C 0.56177 0.33918 0.47594 0.0
C299 C 0.53475 0.35893 0.39297 0.0
C300 C 0.53266 0.33176 0.36385 0.0
C301 C 0.54841 0.36261 0.45165 0.0
C302 C 0.55956 0.31202 0.4472 0.0
C303 C 0.53691 0.27971 0.37962 0.0
O304 O 0.51898 0.2691 0.16618 0.0
O305 O 0.48501 0.28536 0.24369 0.0
O306 O 0.51304 0.27783 0.39458 0.0
O307 O 0.54784 0.26594 0.31578 0.0
H308 H 0.54063 0.314 0.12968 0.0
H309 H 0.54301 0.35812 0.06151 0.0
H310 H 0.46399 0.36745 0.08142 0.0
H311 H 0.46146 0.32321 0.14877 0.0
H312 H 0.46796 0.13468 0.46013 0.0
H313 H 0.46513 0.1727 0.37071 0.0
H314 H 0.54471 0.1456 0.45442 0.0
H315 H 0.54193 0.18393 0.36543 0.0
H316 H 0.57215 0.34168 0.52178 0.0
H317 H 0.52414 0.3768 0.37422 0.0
H318 H 0.52066 0.32908 0.32245 0.0
H319 H 0.56845 0.29397 0.47088 0.0
Dy320 Dy 1.00497 0.0204 0.69648 0.0
Dy321 Dy 0.04035 0.99641 0.81323 0.0
C322 C 0.06317 0.01073 0.64377 0.0
O323 O 1.00219 0.97381 0.68793 0.0
O324 O 0.03559 0.95782 0.74207 0.0
O325 O 1.00025 0.04026 0.5918 0.0
O326 O 0.96837 0.0297 0.67062 0.0
O327 O 1.00216 0.9871 0.86596 0.0
O328 O 0.98236 0.02406 0.81511 0.0
O329 O 0.0309 0.04234 0.84791 0.0
O330 O 0.02065 0.05878 0.73667 0.0
O331 O 0.04972 0.99743 0.92611 0.0
O332 O 0.07313 0.97194 0.83409 0.0
C333 C 0.01796 0.95328 0.70295 0.0
O334 O 0.04191 0.00635 0.62412 0.0
O335 O 0.06496 0.01425 0.71612 0.0
C336 C 0.96619 0.07409 0.61362 0.0
C337 C 0.95726 0.13329 0.62101 0.0
C338 C 0.96732 0.11864 0.55129 0.0
C339 C 0.97166 0.08928 0.54754 0.0
C340 C 0.9546 0.08863 0.68259 0.0
C341 C 0.94994 0.1181 0.68604 0.0
C342 C 0.97639 0.04434 0.61219 0.0
C343 C 0.98244 1.00472 0.86635 0.0
C344 C 0.02671 0.06321 0.80392 0.0
C345 C 0.07087 0.95623 0.95933 0.0
C346 C 0.07298 0.9141 0.06523 0.0
C347 C 0.05892 0.9115 1.00714 0.0
C348 C 0.05782 0.9325 0.95446 0.0
C349 C 0.08502 0.95881 0.01714 0.0
C350 C 0.08604 0.93783 0.07013 0.0
C351 C 0.0689 0.9791 0.907 0.0
H352 H 0.97284 0.13008 0.50031 0.0
H353 H 0.98065 0.07858 0.49396 0.0
H354 H 0.95024 0.07744 0.73461 0.0
H355 H 0.94185 0.12913 0.73999 0.0
H356 H 0.04861 0.89334 1.00317 0.0
H357 H 0.0466 0.9304 0.91058 0.0
H358 H 0.095 0.9772 0.02182 0.0
H359 H 0.0968 0.94015 0.1151 0.0
Dy360 Dy 0.51999 0.98079 0.70262 0.0
Dy361 Dy 0.52982 0.02697 0.83254 0.0
C362 C 0.51468 0.04665 0.67378 0.0
O363 O 0.5587 0.99176 0.66417 0.0
O364 O 0.56783 0.00801 0.77809 0.0
O365 O 0.52696 0.96476 0.58521 0.0
O366 O 0.50279 0.94417 0.67049 0.0
O367 O 0.52789 0.98554 0.88942 0.0
O368 O 0.53752 0.95453 0.7847 0.0
O369 O 0.48868 0.03092 0.84086 0.0
O370 O 0.48465 0.98725 0.78848 0.0
O371 O 0.52354 0.04274 0.95044 0.0
O372 O 0.54586 0.06448 0.8633 0.0
C373 C 0.57474 0.99927 0.70582 0.0
O374 O 0.50529 0.02257 0.66575 0.0
O375 O 0.52773 0.05115 0.72732 0.0
C376 C 0.49131 0.94842 0.54981 0.0
C377 C 0.4502 0.954 0.4765 0.0
C378 C 0.4648 0.9765 0.47916 0.0
C379 C 0.48515 0.97381 0.51596 0.0
C380 C 0.47735 0.92548 0.54385 0.0
C381 C 0.45684 0.92828 0.50751 0.0
C382 C 0.51055 0.94666 0.5977 0.0
C383 C 0.53427 0.95985 0.85893 0.0
C384 C 0.47522 0.01012 0.83076 0.0
C385 C 0.55729 0.06347 0.98403 0.0
C386 C 0.595 0.0665 0.07019 0.0
C387 C 0.59621 0.04434 0.01531 0.0
C388 C 0.57745 0.04281 0.97248 0.0
C389 C 0.55576 0.08532 0.04003 0.0
C390 C 0.57454 0.0868 0.08323 0.0
C391 C 0.53826 0.06254 0.93634 0.0
H392 H 0.45976 0.99652 0.4558 0.0
H393 H 0.49545 0.99195 0.52034 0.0
H394 H 0.48174 0.90583 0.56998 0.0
H395 H 0.4456 0.91081 0.50619 0.0
H396 H 0.61189 0.02851 1.00484 0.0
H397 H 0.57881 0.02575 0.92958 0.0
H398 H 0.54024 0.10136 0.04958 0.0
H399 H 0.5734 0.10397 0.12562 0.0
Dy400 Dy 0.54781 0.50212 0.78266 0.0
Dy401 Dy 0.48854 0.50328 0.75104 0.0
C402 C 0.51014 0.46281 0.87289 0.0
O403 O 0.5458 0.46555 0.70203 0.0
O404 O 0.51276 0.48229 0.64771 0.0
O405 O 0.58113 0.47855 0.80459 0.0
O406 O 0.57963 0.52388 0.79706 0.0
O407 O 0.50442 0.54058 0.69441 0.0
O408 O 0.54625 0.52689 0.67736 0.0
O409 O 0.48635 0.52581 0.86505 0.0
O410 O 0.52615 0.53857 0.85161 0.0
O411 O 0.45377 0.52579 0.73599 0.0
O412 O 0.45826 0.48016 0.72991 0.0
C413 C 0.53194 0.46412 0.64907 0.0
O414 O 0.52738 0.47962 0.87881 0.0
O415 O 0.49596 0.4657 0.82064 0.0
C416 C 0.60651 0.50277 0.8756 0.0
C417 C 0.63471 0.50672 0.99423 0.0
C418 C 0.60912 0.51453 1.00872 0.0
C419 C 0.59512 0.51256 0.9499 0.0
C420 C 0.63199 0.49481 0.86151 0.0
C421 C 0.64594 0.49676 0.92006 0.0
C422 C 0.59259 0.50104 0.81134 0.0
C423 C 0.52733 0.54349 0.66287 0.0
C424 C 0.50289 0.54157 0.88452 0.0
C425 C 0.42951 0.50205 0.65892 0.0
C426 C 0.39958 0.49699 0.5452 0.0
C427 C 0.42458 0.48634 0.53051 0.0
C428 C 0.43943 0.48882 0.58688 0.0
C429 C 0.40468 0.51318 0.67275 0.0
C430 C 0.38988 0.51069 0.61661 0.0
C431 C 0.44386 0.5027 0.72243 0.0
H432 H 0.60004 0.5223 0.0654 0.0
H433 H 0.57549 0.51883 0.96224 0.0
H434 H 0.6412 0.48723 0.80476 0.0
H435 H 0.66559 0.49064 0.90738 0.0
H436 H 0.43247 0.47567 0.47591 0.0
H437 H 0.45848 0.47993 0.57473 0.0
H438 H 0.39655 0.52331 0.72787 0.0
H439 H 0.3707 0.51904 0.62933 0.0
Dy440 Dy 0.02005 0.52436 0.75618 0.0
Dy441 Dy 1.00165 0.46963 0.84733 0.0
C442 C 0.02381 0.46445 0.66907 0.0
O443 O 0.98337 0.51983 0.72147 0.0
O444 O 0.96713 0.49209 0.81781 0.0
O445 O 0.03063 0.56659 0.7684 0.0
O446 O 0.03084 0.5479 0.65567 0.0
O447 O 1.00597 0.50303 0.93496 0.0
O448 O 0.99545 0.53994 0.86549 0.0
O449 O 0.04266 0.46369 0.84178 0.0
O450 O 0.05119 0.50918 0.81553 0.0
O451 O 0.98124 0.45312 0.94789 0.0
O452 O 0.99897 0.42456 0.85322 0.0
C453 C 0.96478 0.5076 0.75888 0.0
O454 O 0.03571 0.48673 0.67745 0.0
O455 O 1.00617 0.45788 0.72271 0.0
C456 C 0.0643 0.57398 0.67373 0.0
C457 C 0.11523 0.57915 0.6476 0.0
C458 C 0.10513 0.56098 0.60036 0.0
C459 C 0.07993 0.55838 0.61317 0.0
C460 C 0.07437 0.59305 0.71933 0.0
C461 C 0.09975 0.59555 0.70653 0.0
C462 C 0.03832 0.56801 0.69522 0.0
C463 C 0.99847 0.52981 0.93129 0.0
C464 C 0.05763 0.48383 0.83724 0.0
C465 C 0.95827 0.4176 0.91301 0.0
C466 C 0.90788 0.4161 0.9087 0.0
C467 C 0.91619 0.41781 0.97899 0.0
C468 C 0.94117 0.41837 0.98116 0.0
C469 C 0.95027 0.41291 0.84282 0.0
C470 C 0.92517 0.41178 0.84082 0.0
C471 C 0.98248 0.42788 0.91568 0.0
H472 H 0.11691 0.5483 0.55428 0.0
H473 H 0.0729 0.54345 0.57705 0.0
H474 H 0.06271 0.60528 0.7665 0.0
H475 H 0.10733 0.60976 0.74316 0.0
H476 H 0.90316 0.42074 0.03225 0.0
H477 H 0.94686 0.42193 0.03583 0.0
H478 H 0.9631 0.41209 0.78923 0.0
H479 H 0.91915 0.40972 0.78619 0.0
C480 C 0.11522 0.99015 0.47259 0.0
C481 C 0.12905 0.014 0.47125 0.0
C482 C 0.09824 0.03681 0.57761 0.0
C483 C 0.08565 0.01195 0.58345 0.0
N484 N 0.08489 0.96299 0.54525 0.0
N485 N 0.13593 0.0581 0.53084 0.0
C486 C 0.09485 0.98809 0.53312 0.0
C487 C 0.12116 0.03678 0.52624 0.0
N488 N 0.12111 0.96976 0.41477 0.0
N489 N 0.08778 0.06091 0.61882 0.0
H490 H 0.15273 0.05888 0.4943 0.0
H491 H 0.13262 0.07367 0.57491 0.0
H492 H 0.07083 0.062 0.65552 0.0
H493 H 0.09467 0.08049 0.61133 0.0
H494 H 0.11014 0.95353 0.40764 0.0
H495 H 0.13595 0.97037 0.37005 0.0
H496 H 0.09235 0.94408 0.51573 0.0
H497 H 0.07048 0.96042 0.58992 0.0
C498 C 0.51785 0.08624 0.48835 0.0
C499 C 0.50816 0.11385 0.51742 0.0
C500 C 0.49942 0.09623 0.64713 0.0
C501 C 0.51135 0.06932 0.61922 0.0
N502 N 0.53536 0.03981 0.51493 0.0
N503 N 0.49249 0.14623 0.62536 0.0
C504 C 0.52138 0.06455 0.54014 0.0
C505 C 0.49969 0.11914 0.59714 0.0
N506 N 0.52324 0.08059 0.41103 0.0
N507 N 0.48702 0.09962 0.72083 0.0
H508 H 0.4921 0.16345 0.59049 0.0
H509 H 0.48877 0.15198 0.68353 0.0
H510 H 0.48611 0.08324 0.75862 0.0
H511 H 0.47579 0.1178 0.74252 0.0
H512 H 0.52767 0.06027 0.38609 0.0
H513 H 0.52137 0.09602 0.37138 0.0
H514 H 0.54549 0.03634 0.45985 0.0
H515 H 0.53863 0.02348 0.55075 0.0
C516 C 0.34843 0.47094 0.44746 0.0
C517 C 0.35086 0.48663 0.38022 0.0
C518 C 0.38433 0.51038 0.42311 0.0
C519 C 0.38319 0.49306 0.48714 0.0
N520 N 0.36693 0.45358 0.55368 0.0
N521 N 0.37365 0.51806 0.29775 0.0
C522 C 0.36599 0.47242 0.49742 0.0
C523 C 0.36952 0.5055 0.36636 0.0
N524 N 0.32883 0.45531 0.46494 0.0
N525 N 0.39905 0.5321 0.41768 0.0
H526 H 0.36316 0.51514 0.2551 0.0
H527 H 0.38866 0.5295 0.2805 0.0
H528 H 0.41034 0.53609 0.45741 0.0
H529 H 0.39867 0.54748 0.37736 0.0
H530 H 0.32443 0.4459 0.51703 0.0
H531 H 0.31563 0.4537 0.42994 0.0
H532 H 0.35683 0.43609 0.55895 0.0
H533 H 0.37944 0.45401 0.59139 0.0
C534 C 0.05451 0.41004 0.50988 0.0
C535 C 0.03488 0.40789 0.46841 0.0
C536 C 1.01056 0.44682 0.54938 0.0
C537 C 0.02897 0.44689 0.59604 0.0
N538 N 0.06758 0.42694 0.62577 0.0
N539 N 0.99295 0.4216 0.45438 0.0
C540 C 0.05082 0.42818 0.57739 0.0
C541 C 1.01255 0.4256 0.48973 0.0
N542 N 0.07682 0.39514 0.48382 0.0
N543 N 0.99155 0.46776 0.56041 0.0
H544 H 0.99375 0.40652 0.40985 0.0
H545 H 0.97531 0.43155 0.4732 0.0
H546 H 0.98994 0.48405 0.60208 0.0
H547 H 0.97877 0.47061 0.52391 0.0
H548 H 0.09265 0.398 0.50632 0.0
H549 H 0.07998 0.38128 0.4357 0.0
H550 H 0.08247 0.41159 0.62044 0.0
H551 H 0.06573 0.44026 0.67463 0.0
C552 C 0.92763 0.97604 0.99469 0.0
C553 C 0.91647 1.00082 0.03849 0.0
C554 C 0.95002 0.02733 0.97507 0.0
C555 C 0.95989 1.00322 0.92636 0.0
N556 N 0.95511 0.95613 0.88042 0.0
N557 N 0.91479 0.05122 0.06107 0.0
C558 C 0.94791 0.97794 0.93378 0.0
C559 C 0.92705 0.02681 0.02593 0.0
N560 N 0.91931 0.95046 0.01266 0.0
N561 N 0.96313 0.05036 0.97536 0.0
H562 H 0.89804 0.0517 0.09861 0.0
H563 H 0.92007 0.07122 0.04793 0.0
H564 H 0.98027 0.05131 0.94082 0.0
H565 H 0.95824 0.06741 0.0149 0.0
H566 H 0.92836 0.93128 0.98879 0.0
H567 H 0.90449 0.94819 0.0563 0.0
H568 H 0.94553 0.93834 0.87795 0.0
H569 H 0.96931 0.95698 0.83389 0.0
C570 C 0.55916 0.89464 0.9538 0.0
C571 C 0.53875 0.89101 1.01205 0.0
C572 C 0.51478 0.93043 0.96414 0.0
C573 C 0.53592 0.93587 0.91079 0.0
N574 N 0.57935 0.9258 0.86238 0.0
N575 N 0.49852 0.90839 0.08098 0.0
C576 C 0.55843 0.91861 0.90745 0.0
C577 C 0.51694 0.90976 0.01955 0.0
N578 N 0.57902 0.87479 0.94158 0.0
N579 N 0.4923 0.9441 0.9597 0.0
H580 H 0.49928 0.89345 0.12247 0.0
H581 H 0.48345 0.92353 0.09443 0.0
H582 H 0.48974 0.95873 0.91865 0.0
H583 H 0.47581 0.93896 0.99162 0.0
H584 H 0.59331 0.87452 0.89498 0.0
H585 H 0.58027 0.85716 0.9747 0.0
H586 H 0.59684 0.9159 0.86338 0.0
H587 H 0.57957 0.94335 0.8286 0.0
C588 C 0.68338 0.53104 0.10538 0.0
C589 C 0.68109 0.51291 0.16784 0.0
C590 C 0.6492 0.48964 0.11454 0.0
C591 C 0.65006 0.50934 0.05581 0.0
N592 N 0.66486 0.552 1.0034 0.0
N593 N 0.65878 0.47818 0.23909 0.0
C594 C 0.66629 0.53097 0.05362 0.0
C595 C 0.66315 0.49307 0.17437 0.0
N596 N 0.7025 0.54764 0.0938 0.0
N597 N 0.63569 0.46705 0.11182 0.0
H598 H 0.66849 0.48014 0.28411 0.0
H599 H 0.64417 0.46572 0.25116 0.0
H600 H 0.62513 0.46393 0.06948 0.0
H601 H 0.63649 0.45023 0.14772 0.0
H602 H 0.70678 0.559 0.0449 0.0
H603 H 0.71551 0.54811 0.12982 0.0
H604 H 0.67421 0.57002 1.00452 0.0
H605 H 0.65257 0.55274 0.96489 0.0
C606 C 0.97009 0.58782 0.08306 0.0
C607 C 0.98902 0.58884 0.12773 0.0
C608 C 1.01456 0.55205 0.04186 0.0
C609 C 0.99488 0.54935 1.00077 0.0
N610 N 0.9522 0.56096 0.99162 0.0
N611 N 0.02711 0.56795 0.15908 0.0
C612 C 0.97214 0.56622 0.02404 0.0
C613 C 1.01058 0.56969 0.10999 0.0
N614 N 0.95053 0.60807 0.09526 0.0
N615 N 0.03752 0.53914 0.01356 0.0
H616 H 0.02488 0.58054 0.20941 0.0
H617 H 0.04179 0.55227 0.1536 0.0
H618 H 0.04157 0.527 0.96245 0.0
H619 H 0.05312 0.54275 0.03658 0.0
H620 H 0.93758 0.61038 0.05915 0.0
H621 H 0.9483 0.6241 0.13803 0.0
H622 H 0.93449 0.57054 1.01143 0.0
H623 H 0.95284 0.545 0.94947 0.0
C624 C 0.94681 0.20353 0.54413 0.0
C625 C 0.96906 0.21436 0.55555 0.0
C626 C 0.97569 0.17815 0.6461 0.0
C627 C 0.95604 0.16457 0.62381 0.0
N628 N 0.91756 0.16878 0.57879 0.0
N629 N 0.99861 0.21971 0.63742 0.0
C630 C 0.93953 0.17918 0.58289 0.0
C631 C 0.98108 0.2045 0.61501 0.0
N632 N 0.93405 0.2149 0.49127 0.0
N633 N 0.99028 0.16478 0.69135 0.0
H634 H 1.00266 0.23884 0.61314 0.0
H635 H 1.0074 0.2148 0.68333 0.0
H636 H 0.98639 0.14574 0.71601 0.0
H637 H 1.00648 0.17208 0.70311 0.0
H638 H 0.91948 0.20584 0.47304 0.0
H639 H 0.93845 0.23334 0.4642 0.0
H640 H 0.90379 0.17917 0.55389 0.0
H641 H 0.91242 0.15071 0.60692 0.0
C642 C 0.38473 0.98205 0.46454 0.0
C643 C 0.38116 0.96732 0.39727 0.0
C644 C 0.42393 0.94616 0.37693 0.0
C645 C 0.42651 0.95847 0.44855 0.0
N646 N 0.40817 0.98398 0.5673 0.0
N647 N 0.39598 0.93274 0.29367 0.0
C648 C 0.40658 0.97531 0.49428 0.0
C649 C 0.40041 0.94868 0.35435 0.0
N650 N 0.36752 1.00307 0.49881 0.0
N651 N 0.44405 0.93273 0.32985 0.0
H652 H 0.37903 0.93423 0.27518 0.0
H653 H 0.40844 0.91657 0.26522 0.0
H654 H 0.4615 0.93037 0.34498 0.0
H655 H 0.44394 0.92593 0.27363 0.0
H656 H 0.37037 0.01656 0.54311 0.0
H657 H 0.35129 0.00885 0.47833 0.0
H658 H 0.39325 0.99365 0.60604 0.0
H659 H 0.42378 0.97923 0.59183 0.0
C660 C 0.52368 0.39267 0.56016 0.0
C661 C 0.54415 0.38933 0.49937 0.0
C662 C 0.55723 0.4349 0.5374 0.0
C663 C 0.53598 0.4389 0.59557 0.0
N664 N 0.49722 0.42342 0.65655 0.0
N665 N 0.57895 0.40776 0.42345 0.0
C666 C 0.51865 0.41838 0.6049 0.0
C667 C 0.56056 0.41062 0.48605 0.0
N668 N 0.50959 0.3707 0.57735 0.0
N669 N 0.57424 0.45425 0.53177 0.0
H670 H 0.58198 0.38999 0.38589 0.0
H671 H 0.59021 0.42356 0.4057 0.0
H672 H 0.57171 0.47292 0.56578 0.0
H673 H 0.59138 0.4513 0.49628 0.0
H674 H 0.49666 0.37029 0.62723 0.0
H675 H 0.51194 0.35171 0.54484 0.0
H676 H 0.48232 0.41142 0.658 0.0
H677 H 0.49357 0.44063 0.6955 0.0
C678 C 0.17953 0.54709 0.60898 0.0
C679 C 0.18659 0.56055 0.53981 0.0
C680 C 0.15261 0.59725 0.57593 0.0
C681 C 0.14225 0.57991 0.6334 0.0
N682 N 0.14819 0.54421 0.72254 0.0
N683 N 0.18454 0.60362 0.47109 0.0
C684 C 0.15689 0.55705 0.65705 0.0
C685 C 0.17527 0.58769 0.52944 0.0
N686 N 0.19345 0.5234 0.62352 0.0
N687 N 0.13995 0.62189 0.56191 0.0
H688 H 0.20117 0.59786 0.43421 0.0
H689 H 0.20117 0.59786 0.43421 0.0
H690 H 0.12315 0.62947 0.59568 0.0
H691 H 0.14669 0.63479 0.51816 0.0
H692 H 0.18899 0.51105 0.67026 0.0
H693 H 0.21005 0.51649 0.58753 0.0
H694 H 0.13146 0.55157 0.75712 0.0
H695 H 0.15783 0.52761 0.74469 0.0
C696 C 0.04747 0.86509 0.21371 0.0
C697 C 0.06681 0.84284 0.20322 0.0
C698 C 0.09274 0.87042 0.11401 0.0
C699 C 0.07303 0.89208 0.1221 0.0
N700 N 0.03525 0.91433 0.19582 0.0
N701 N 0.10977 0.82733 0.16307 0.0
C702 C 0.05163 0.89087 0.17791 0.0
C703 C 0.0902 0.84667 0.16014 0.0
N704 N 0.02466 0.86096 0.25297 0.0
N705 N 0.1132 0.8718 0.0594 0.0
H706 H 0.10819 0.80983 0.197 0.0
H707 H 0.12781 0.82998 0.13803 0.0
H708 H 0.11587 0.88918 0.02561 0.0
H709 H 0.1269 0.85514 0.04461 0.0
H710 H 1.00915 0.87517 0.25419 0.0
H711 H 0.02071 0.84248 0.28053 0.0
H712 H 0.02044 0.91563 0.24113 0.0
H713 H 0.0379 0.93349 0.16993 0.0
C714 C 0.65592 0.08543 0.11888 0.0
C715 C 0.66083 0.06275 0.16554 0.0
C716 C 0.61896 0.04934 0.16942 0.0
C717 C 0.61588 0.0685 0.11159 0.0
N718 N 0.63135 0.1045 0.02856 0.0
N719 N 0.6476 0.02243 0.23503 0.0
C720 C 0.63415 0.08687 0.08643 0.0
C721 C 0.64235 0.04477 0.19202 0.0
N722 N 0.67216 0.1055 0.10576 0.0
N723 N 0.59948 0.03556 0.20237 0.0
H724 H 0.66439 0.01866 0.25381 0.0
H725 H 0.63591 0.00664 0.24836 0.0
H726 H 0.58214 0.03858 0.18658 0.0
H727 H 0.5998 0.02326 0.24973 0.0
H728 H 0.66863 0.12399 0.07803 0.0
H729 H 0.68826 0.1049 0.12915 0.0
H730 H 0.64532 0.11584 1.0014 0.0
H731 H 0.61549 0.10653 1.00409 0.0
C732 C 0.47777 0.6124 0.98523 0.0
C733 C 0.49509 0.61431 0.03491 0.0
C734 C 0.50925 0.5643 1.00668 0.0
C735 C 0.4958 0.56421 0.94551 0.0
N736 N 0.46755 0.58856 0.87409 0.0
N737 N 0.5277 0.59235 0.09375 0.0
C738 C 0.47962 0.58811 0.93512 0.0
C739 C 0.5106 0.59016 0.04725 0.0
N740 N 0.45982 0.63409 0.98547 0.0
N741 N 0.52091 0.5396 0.02523 0.0
H742 H 0.52897 0.61078 0.12556 0.0
H743 H 0.54159 0.57645 0.0974 0.0
H744 H 0.52024 0.52038 0.99607 0.0
H745 H 0.5292 0.53766 0.07344 0.0
H746 H 0.44527 0.63303 0.95558 0.0
H747 H 0.45821 0.65212 0.02175 0.0
H748 H 0.45804 0.60667 0.85824 0.0
H749 H 0.46831 0.57131 0.83589 0.0
C750 C 0.84991 0.46234 0.94544 0.0
C751 C 0.83907 0.44657 1.00587 0.0
C752 C 0.86527 0.40445 0.95134 0.0
C753 C 0.88106 0.42238 0.90944 0.0
N754 N 0.88587 0.46657 0.84836 0.0
N755 N 0.83068 0.40144 0.05491 0.0
C756 C 0.87207 0.45057 0.89824 0.0
C757 C 0.84431 0.41689 1.00308 0.0
N758 N 0.83984 0.48914 0.93828 0.0
N759 N 0.87172 0.37602 0.9452 0.0
H760 H 0.81507 0.41065 0.09188 0.0
H761 H 0.83466 0.37995 0.06136 0.0
H762 H 0.88748 0.3674 0.90772 0.0
H763 H 0.86094 0.36122 0.97239 0.0
H764 H 0.84604 0.50196 0.89401 0.0
H765 H 0.82383 0.49755 0.97495 0.0
H766 H 0.88182 0.48813 0.84319 0.0
H767 H 0.90164 0.45797 0.8115 0.0
C768 C 0.05448 0.12965 0.86314 0.0
C769 C 0.03288 0.14829 0.88807 0.0
C770 C 1.00738 0.11207 0.85103 0.0
C771 C 0.02886 0.09272 0.83139 0.0
N772 N 0.07265 0.08194 0.82389 0.0
N773 N 0.98868 0.15731 0.91134 0.0
C774 C 0.05236 0.10121 0.83896 0.0
C775 C 1.00929 0.13955 0.88308 0.0
N776 N 0.07709 0.13946 0.86067 0.0
N777 N 0.98513 0.10406 0.83932 0.0
H778 H 0.98945 0.17778 0.93312 0.0
H779 H 0.9708 0.15151 0.91746 0.0
H780 H 0.98272 0.08369 0.82058 0.0
H781 H 0.96917 0.11779 0.8444 0.0
H782 H 0.09361 0.1282 0.83525 0.0
H783 H 0.07936 0.15994 0.8792 0.0
H784 H 0.08976 0.08557 0.83705 0.0
H785 H 0.07219 0.06147 0.80185 0.0
C786 C 0.4048 0.00811 0.86697 0.0
C787 C 0.39872 0.01406 0.94737 0.0
C788 C 0.44297 0.01511 0.95207 0.0
C789 C 0.4488 0.01191 0.87079 0.0
N790 N 0.43456 0.01007 0.75002 0.0
N791 N 0.41178 0.02774 0.06474 0.0
C792 C 0.4295 0.00962 0.82803 0.0
C793 C 0.41777 0.0188 0.9894 0.0
N794 N 0.38709 1.00012 0.82794 0.0
N795 N 0.46148 0.01334 0.99421 0.0
H796 H 0.39367 0.03055 0.09421 0.0
H797 H 0.42452 0.03468 0.09628 0.0
H798 H 0.48009 0.01033 0.96969 0.0
H799 H 0.45841 0.01219 0.05349 0.0
H800 H 0.39084 0.99252 0.77111 0.0
H801 H 0.36891 0.99868 0.85426 0.0
H802 H 0.42097 0.01171 0.71604 0.0
H803 H 0.45223 0.01151 0.71948 0.0
C804 C 0.50076 0.4189 0.051 0.0
C805 C 0.50528 0.39103 0.01731 0.0
C806 C 0.51437 0.41029 0.88978 0.0
C807 C 0.50799 0.43815 0.92283 0.0
N808 N 0.49118 0.46887 0.03322 0.0
N809 N 0.51231 0.35998 0.90415 0.0
C810 C 0.50016 0.44244 1.00312 0.0
C811 C 0.5109 0.38669 0.9365 0.0
N812 N 0.49753 0.42286 0.12875 0.0
N813 N 0.5248 0.40635 0.81421 0.0
H814 H 0.51034 0.34207 0.93621 0.0
H815 H 0.51342 0.35575 0.84571 0.0
H816 H 0.52789 0.42298 0.77815 0.0
H817 H 0.53239 0.38682 0.78866 0.0
H818 H 0.4968 0.44257 0.15669 0.0
H819 H 0.49745 0.40612 0.16536 0.0
H820 H 0.48292 0.47307 0.09013 0.0
H821 H 0.48996 0.48634 0.99955 0.0
C822 C 0.10754 0.47416 0.96238 0.0
C823 C 0.12941 0.47376 0.907 0.0
C824 C 0.10425 0.48008 0.80564 0.0
C825 C 0.08242 0.47859 0.86038 0.0
N826 N 0.06349 0.47037 0.98976 0.0
N827 N 0.14888 0.47146 0.77459 0.0
C828 C 0.08417 0.47426 0.93831 0.0
C829 C 0.12782 0.47543 0.82821 0.0
N830 N 0.10899 0.47584 0.03848 0.0
N831 N 0.1025 0.48615 0.73191 0.0
H832 H 0.16639 0.46804 0.78884 0.0
H833 H 0.14898 0.46938 0.71601 0.0
H834 H 0.08588 0.48759 0.7115 0.0
H835 H 0.11732 0.49135 0.69196 0.0
H836 H 0.09369 0.47963 0.08187 0.0
H837 H 0.12565 0.47587 0.05844 0.0
H838 H 0.06391 0.46371 0.04483 0.0
H839 H 0.04586 0.47192 0.97621 0.0
C840 C 1.00472 0.87545 0.69486 0.0
C841 C 1.00923 0.8692 0.61462 0.0
C842 C 0.01959 0.9179 0.59217 0.0
C843 C 1.01597 0.92394 0.67267 0.0
N844 N 1.00828 0.90744 0.80094 0.0
N845 N 0.02465 0.88257 0.48708 0.0
C846 C 1.00964 0.90232 0.72406 0.0
C847 C 0.01773 0.88992 0.56336 0.0
N848 N 0.9948 0.85599 0.74311 0.0
N849 N 0.0246 0.93902 0.54301 0.0
H850 H 0.02315 0.8625 0.46394 0.0
H851 H 0.03359 0.89549 0.44732 0.0
H852 H 0.02783 0.9592 0.56093 0.0
H853 H 0.02435 0.93714 0.48464 0.0
H854 H 0.98821 0.86023 0.80119 0.0
H855 H 0.99156 0.83591 0.72417 0.0
H856 H 1.00675 0.89179 0.84067 0.0
H857 H 1.01021 0.92716 0.82523 0.0
C858 C 0.63806 0.97242 0.58868 0.0
C859 C 0.65078 0.99715 0.58685 0.0
C860 C 0.61345 0.02363 0.66152 0.0
C861 C 0.60137 0.99838 0.66833 0.0
N862 N 0.60375 0.94777 0.64907 0.0
N863 N 0.65192 0.04528 0.63133 0.0
C864 C 0.61413 0.97251 0.63465 0.0
C865 C 0.63883 0.02245 0.62623 0.0
N866 N 0.64863 0.94896 0.54477 0.0
N867 N 0.60036 0.04903 0.68525 0.0
H868 H 0.67024 0.04548 0.60479 0.0
H869 H 0.64528 0.0632 0.66653 0.0
H870 H 0.58182 0.05093 0.71055 0.0
H871 H 0.60723 0.06843 0.67404 0.0
H872 H 0.63934 0.93134 0.53648 0.0
H873 H 0.66617 0.94795 0.51139 0.0
H874 H 0.61307 0.9279 0.63346 0.0
H875 H 0.58648 0.94692 0.68291 0.0
C876 C 0.54752 0.61299 0.58101 0.0
C877 C 0.53455 0.61512 0.51865 0.0
C878 C 0.52128 0.56764 0.54217 0.0
C879 C 0.53165 0.56709 0.61006 0.0
N880 N 0.55195 0.59097 0.69986 0.0
N881 N 0.50699 0.59577 0.4438 0.0
C882 C 0.54425 0.59013 0.63073 0.0
C883 C 0.52097 0.5927 0.49998 0.0
N884 N 0.56337 0.6326 0.5919 0.0
N885 N 0.51231 0.54388 0.51694 0.0
H886 H 0.50654 0.61358 0.4111 0.0
H887 H 0.49446 0.58168 0.43328 0.0
H888 H 0.51252 0.52514 0.54588 0.0
H889 H 0.50678 0.54185 0.46404 0.0
H890 H 0.57533 0.63064 0.63117 0.0
H891 H 0.5662 0.64962 0.55684 0.0
H892 H 0.55853 0.6087 0.72225 0.0
H893 H 0.54992 0.5748 0.73805 0.0
C894 C 0.90228 0.53926 0.71691 0.0
C895 C 0.89519 0.51637 0.67487 0.0
C896 C 0.9323 0.48701 0.69504 0.0
C897 C 0.94045 0.51055 0.73184 0.0
N898 N 0.93427 0.55981 0.77284 0.0
N899 N 0.90489 0.46973 0.61465 0.0
C900 C 0.92574 0.53692 0.74112 0.0
C901 C 0.91061 0.49059 0.66151 0.0
N902 N 0.8862 0.56296 0.7356 0.0
N903 N 0.94504 0.46096 0.69322 0.0
H904 H 0.88895 0.47127 0.5905 0.0
H905 H 0.91678 0.45185 0.59468 0.0
H906 H 0.96131 0.45745 0.71476 0.0
H907 H 0.93861 0.44237 0.67561 0.0
H908 H 0.88884 0.57922 0.77303 0.0
H909 H 0.86918 0.56556 0.71769 0.0
H910 H 0.92602 0.58037 0.77338 0.0
H911 H 0.95054 0.55854 0.79527 0.0
loop_
_geom_bond_atom_site_label_1
_geom_bond_atom_site_label_2
_geom_bond_distance
_geom_bond_site_symmetry_2
_ccdc_geom_bond_type
C0 C1 1.264 . S
C0 C5 1.479 . S
C0 C10 1.465 . S
C1 C0 1.264 . S
C1 C3 1.339 . S
C1 H28 0.931 . S
C2 C3 1.395 . S
C2 C4 1.320 . S
C3 C1 1.339 . S
C3 C2 1.395 . S
C3 H29 0.929 . S
C4 C2 1.320 . S
C4 C5 1.405 . S
C4 H30 0.930 . S
C5 C0 1.479 . S
C5 C4 1.405 . S
C5 H31 0.931 . S
U6 O7 2.454 . S
U6 O8 2.458 . S
U6 C9 2.984 . S
U6 C10 2.847 . S
U6 C23 2.882 . S
U6 O24 2.441 . S
U6 O25 2.420 . S
U6 O26 2.455 . S
U6 O27 2.449 . S
O7 U6 2.454 . S
O7 C9 1.353 . S
O8 U6 2.458 . S
O8 C9 1.286 . S
C9 U6 2.984 . S
C9 O7 1.353 . S
C9 O8 1.286 . S
C9 C11 1.363 . S
C10 C0 1.465 . S
C10 U6 2.847 . S
C10 O24 1.249 . S
C10 O25 1.202 . S
C11 C9 1.363 . S
C11 C13 1.408 . S
C11 C16 1.342 . S
C12 C13 1.310 . S
C12 C15 1.461 . S
C12 H32 0.932 . S
C13 C11 1.408 . S
C13 C12 1.310 . S
C13 H33 0.930 . S
C14 C15 1.474 . S
C14 C16 1.285 . S
C14 H34 0.929 . S
C15 C12 1.461 . S
C15 C14 1.474 . S
C16 C11 1.342 . S
C16 C14 1.285 . S
C16 H35 0.930 . S
C17 C20 1.424 . S
C17 C22 1.245 . S
C17 C23 1.428 . S
C18 C21 1.260 . S
C18 C22 1.477 . S
C18 H36 0.932 . S
C19 C20 1.384 . S
C19 C21 1.479 . S
C19 H37 0.929 . S
C20 C17 1.424 . S
C20 C19 1.384 . S
C20 H38 0.928 . S
C21 C18 1.260 . S
C21 C19 1.479 . S
C22 C17 1.245 . S
C22 C18 1.477 . S
C22 H39 0.932 . S
C23 U6 2.882 . S
C23 C17 1.428 . S
C23 O26 1.301 . S
C23 O27 1.282 . S
O24 U6 2.441 . S
O24 C10 1.249 . S
O25 U6 2.420 . S
O25 C10 1.202 . S
O26 U6 2.455 . S
O26 C23 1.301 . S
O27 U6 2.449 . S
O27 C23 1.282 . S
H28 C1 0.931 . S
H29 C3 0.929 . S
H30 C4 0.930 . S
H31 C5 0.931 . S
H32 C12 0.932 . S
H33 C13 0.930 . S
H34 C14 0.929 . S
H35 C16 0.930 . S
H36 C18 0.932 . S
H37 C19 0.929 . S
H38 C20 0.928 . S
H39 C22 0.932 . S
C40 C41 1.264 . S
C40 C45 1.479 . S
C40 C50 1.465 . S
C41 C40 1.264 . S
C41 C43 1.339 . S
C41 H68 0.931 . S
C42 C43 1.395 . S
C42 C44 1.320 . S
C43 C41 1.339 . S
C43 C42 1.395 . S
C43 H69 0.929 . S
C44 C42 1.320 . S
C44 C45 1.405 . S
C44 H70 0.930 1_455 S
C45 C40 1.479 . S
C45 C44 1.405 . S
C45 H71 0.931 . S
U46 O47 2.454 . S
U46 O48 2.458 . S
U46 C49 2.984 . S
U46 C50 2.847 . S
U46 C63 2.882 . S
U46 O64 2.441 . S
U46 O65 2.420 . S
U46 O66 2.455 . S
U46 O67 2.449 . S
O47 U46 2.454 . S
O47 C49 1.353 . S
O48 U46 2.458 . S
O48 C49 1.286 . S
C49 U46 2.984 . S
C49 O47 1.353 . S
C49 O48 1.286 . S
C49 C51 1.363 . S
C50 C40 1.465 . S
C50 U46 2.847 . S
C50 O64 1.249 . S
C50 O65 1.202 . S
C51 C49 1.363 . S
C51 C53 1.408 . S
C51 C56 1.342 . S
C52 C53 1.310 . S
C52 C55 1.462 1_455 S
C52 H72 0.932 . S
C53 C51 1.408 . S
C53 C52 1.310 . S
C53 H73 0.930 . S
C54 C55 1.473 . S
C54 C56 1.281 1_655 S
C54 H74 0.935 . S
C55 C52 1.462 1_655 S
C55 C54 1.473 . S
C56 C51 1.342 . S
C56 C54 1.281 1_455 S
C56 H75 0.933 . S
C57 C60 1.424 . S
C57 C62 1.245 . S
C57 C63 1.428 . S
C58 C61 1.260 . S
C58 C62 1.477 . S
C58 H76 0.932 . S
C59 C60 1.384 . S
C59 C61 1.479 . S
C59 H77 0.929 . S
C60 C57 1.424 . S
C60 C59 1.384 . S
C60 H78 0.928 . S
C61 C58 1.260 . S
C61 C59 1.479 . S
C62 C57 1.245 . S
C62 C58 1.477 . S
C62 H79 0.932 . S
C63 U46 2.882 . S
C63 C57 1.428 . S
C63 O66 1.301 . S
C63 O67 1.282 . S
O64 U46 2.441 . S
O64 C50 1.249 . S
O65 U46 2.420 . S
O65 C50 1.202 . S
O66 U46 2.455 . S
O66 C63 1.301 . S
O67 U46 2.449 . S
O67 C63 1.282 . S
H68 C41 0.931 . S
H69 C43 0.929 . S
H70 C44 0.930 1_655 S
H71 C45 0.931 . S
H72 C52 0.932 . S
H73 C53 0.930 . S
H74 C54 0.935 . S
H75 C56 0.933 . S
H76 C58 0.932 . S
H77 C59 0.929 . S
H78 C60 0.928 . S
H79 C62 0.932 . S
C80 C81 1.264 . S
C80 C85 1.479 . S
C80 C90 1.465 . S
C81 C80 1.264 . S
C81 C83 1.339 . S
C81 H108 0.931 . S
C82 C83 1.395 . S
C82 C84 1.320 . S
C83 C81 1.339 . S
C83 C82 1.395 . S
C83 H109 0.929 . S
C84 C82 1.320 . S
C84 C85 1.405 . S
C84 H110 0.930 1_545 S
C85 C80 1.479 . S
C85 C84 1.405 . S
C85 H111 0.931 . S
U86 O87 2.454 . S
U86 O88 2.458 . S
U86 C89 2.984 . S
U86 C90 2.847 . S
U86 C103 2.882 . S
U86 O104 2.441 . S
U86 O105 2.420 . S
U86 O106 2.455 . S
U86 O107 2.449 . S
O87 U86 2.454 . S
O87 C89 1.353 . S
O88 U86 2.458 . S
O88 C89 1.286 . S
C89 U86 2.984 . S
C89 O87 1.353 . S
C89 O88 1.286 . S
C89 C91 1.363 . S
C90 C80 1.465 . S
C90 U86 2.847 . S
C90 O104 1.249 . S
C90 O105 1.202 . S
C91 C89 1.363 . S
C91 C93 1.408 . S
C91 C96 1.342 . S
C92 C93 1.310 . S
C92 C95 1.461 . S
C92 H112 0.932 . S
C93 C91 1.408 . S
C93 C92 1.310 . S
C93 H113 0.930 . S
C94 C95 1.473 1_565 S
C94 C96 1.286 1_565 S
C94 H114 0.930 . S
C95 C92 1.461 . S
C95 C94 1.473 1_545 S
C96 C91 1.342 . S
C96 C94 1.286 1_545 S
C96 H115 0.935 . S
C97 C100 1.424 . S
C97 C102 1.245 . S
C97 C103 1.428 . S
C98 C101 1.260 . S
C98 C102 1.477 . S
C98 H116 0.932 1_554 S
C99 C100 1.384 . S
C99 C101 1.479 . S
C99 H117 0.929 . S
C100 C97 1.424 . S
C100 C99 1.384 . S
C100 H118 0.928 . S
C101 C98 1.260 . S
C101 C99 1.479 . S
C102 C97 1.245 . S
C102 C98 1.477 . S
C102 H119 0.932 . S
C103 U86 2.882 . S
C103 C97 1.428 . S
C103 O106 1.301 . S
C103 O107 1.282 . S
O104 U86 2.441 . S
O104 C90 1.249 . S
O105 U86 2.420 . S
O105 C90 1.202 . S
O106 U86 2.455 . S
O106 C103 1.301 . S
O107 U86 2.449 . S
O107 C103 1.282 . S
H108 C81 0.931 . S
H109 C83 0.929 . S
H110 C84 0.930 1_565 S
H111 C85 0.931 . S
H112 C92 0.932 . S
H113 C93 0.930 . S
H114 C94 0.930 . S
H115 C96 0.935 . S
H116 C98 0.932 1_556 S
H117 C99 0.929 . S
H118 C100 0.928 . S
H119 C102 0.932 . S
C120 C121 1.264 . S
C120 C125 1.479 . S
C120 C130 1.465 . S
C121 C120 1.264 . S
C121 C123 1.339 . S
C121 H148 0.931 . S
C122 C123 1.395 . S
C122 C124 1.320 . S
C123 C121 1.339 . S
C123 C122 1.395 . S
C123 H149 0.929 . S
C124 C122 1.320 . S
C124 C125 1.405 . S
C124 H150 0.930 . S
C125 C120 1.479 . S
C125 C124 1.405 . S
C125 H151 0.931 . S
U126 O127 2.454 . S
U126 O128 2.458 . S
U126 C129 2.984 . S
U126 C130 2.847 . S
U126 C143 2.882 . S
U126 O144 2.441 . S
U126 O145 2.420 . S
U126 O146 2.455 . S
U126 O147 2.449 . S
O127 U126 2.454 . S
O127 C129 1.353 . S
O128 U126 2.458 . S
O128 C129 1.286 . S
C129 U126 2.984 . S
C129 O127 1.353 . S
C129 O128 1.286 . S
C129 C131 1.363 . S
C130 C120 1.465 . S
C130 U126 2.847 . S
C130 O144 1.249 . S
C130 O145 1.202 . S
C131 C129 1.363 . S
C131 C133 1.408 . S
C131 C136 1.342 . S
C132 C133 1.310 . S
C132 C135 1.461 . S
C132 H152 0.932 . S
C133 C131 1.408 . S
C133 C132 1.310 . S
C133 H153 0.930 . S
C134 C135 1.474 . S
C134 C136 1.285 . S
C134 H154 0.929 1_554 S
C135 C132 1.461 . S
C135 C134 1.474 . S
C136 C131 1.342 . S
C136 C134 1.285 . S
C136 H155 0.930 1_554 S
C137 C140 1.424 1_556 S
C137 C142 1.245 . S
C137 C143 1.428 1_556 S
C138 C141 1.260 . S
C138 C142 1.477 . S
C138 H156 0.932 . S
C139 C140 1.384 1_556 S
C139 C141 1.479 . S
C139 H157 0.929 . S
C140 C137 1.424 1_554 S
C140 C139 1.384 1_554 S
C140 H158 0.928 . S
C141 C138 1.260 . S
C141 C139 1.479 . S
C142 C137 1.245 . S
C142 C138 1.477 . S
C142 H159 0.932 . S
C143 U126 2.882 . S
C143 C137 1.428 1_554 S
C143 O146 1.301 . S
C143 O147 1.282 . S
O144 U126 2.441 . S
O144 C130 1.249 . S
O145 U126 2.420 . S
O145 C130 1.202 . S
O146 U126 2.455 . S
O146 C143 1.301 . S
O147 U126 2.449 . S
O147 C143 1.282 . S
H148 C121 0.931 . S
H149 C123 0.929 . S
H150 C124 0.930 . S
H151 C125 0.931 . S
H152 C132 0.932 . S
H153 C133 0.930 . S
H154 C134 0.929 1_556 S
H155 C136 0.930 1_556 S
H156 C138 0.932 . S
H157 C139 0.929 . S
H158 C140 0.928 . S
H159 C142 0.932 . S
C160 C161 1.264 . S
C160 C165 1.479 . S
C160 C170 1.465 . S
C161 C160 1.264 . S
C161 C163 1.339 . S
C161 H188 0.931 . S
C162 C163 1.395 . S
C162 C164 1.320 . S
C163 C161 1.339 . S
C163 C162 1.395 . S
C163 H189 0.929 . S
C164 C162 1.320 . S
C164 C165 1.405 . S
C164 H190 0.930 . S
C165 C160 1.479 . S
C165 C164 1.405 . S
C165 H191 0.931 . S
U166 O167 2.454 . S
U166 O168 2.458 1_556 S
U166 C169 2.984 1_556 S
U166 C170 2.847 . S
U166 C183 2.882 1_556 S
U166 O184 2.441 . S
U166 O185 2.420 . S
U166 O186 2.455 1_556 S
U166 O187 2.449 1_556 S
O167 U166 2.454 . S
O167 C169 1.353 1_556 S
O168 U166 2.458 1_554 S
O168 C169 1.286 . S
C169 U166 2.984 1_554 S
C169 O167 1.353 1_554 S
C169 O168 1.286 . S
C169 C171 1.363 . S
C170 C160 1.465 . S
C170 U166 2.847 . S
C170 O184 1.249 . S
C170 O185 1.202 . S
C171 C169 1.363 . S
C171 C173 1.408 1_554 S
C171 C176 1.342 . S
C172 C173 1.310 . S
C172 C175 1.461 1_556 S
C172 H192 0.932 . S
C173 C171 1.408 1_556 S
C173 C172 1.310 . S
C173 H193 0.930 . S
C174 C175 1.474 . S
C174 C176 1.285 . S
C174 H194 0.929 . S
C175 C172 1.461 1_554 S
C175 C174 1.474 . S
C176 C171 1.342 . S
C176 C174 1.285 . S
C176 H195 0.930 . S
C177 C180 1.424 . S
C177 C182 1.245 . S
C177 C183 1.428 . S
C178 C181 1.260 . S
C178 C182 1.477 . S
C178 H196 0.932 . S
C179 C180 1.384 . S
C179 C181 1.479 . S
C179 H197 0.929 . S
C180 C177 1.424 . S
C180 C179 1.384 . S
C180 H198 0.928 . S
C181 C178 1.260 . S
C181 C179 1.479 . S
C182 C177 1.245 . S
C182 C178 1.477 . S
C182 H199 0.932 . S
C183 U166 2.882 1_554 S
C183 C177 1.428 . S
C183 O186 1.301 . S
C183 O187 1.282 . S
O184 U166 2.441 . S
O184 C170 1.249 . S
O185 U166 2.420 . S
O185 C170 1.202 . S
O186 U166 2.455 1_554 S
O186 C183 1.301 . S
O187 U166 2.449 1_554 S
O187 C183 1.282 . S
H188 C161 0.931 . S
H189 C163 0.929 . S
H190 C164 0.930 . S
H191 C165 0.931 . S
H192 C172 0.932 . S
H193 C173 0.930 . S
H194 C174 0.929 . S
H195 C176 0.930 . S
H196 C178 0.932 . S
H197 C179 0.929 . S
H198 C180 0.928 . S
H199 C182 0.932 . S
C200 C201 1.264 . S
C200 C205 1.479 . S
C200 C210 1.465 . S
C201 C200 1.264 . S
C201 C203 1.339 . S
C201 H228 0.931 . S
C202 C203 1.395 . S
C202 C204 1.320 . S
C203 C201 1.339 . S
C203 C202 1.395 . S
C203 H229 0.929 . S
C204 C202 1.320 . S
C204 C205 1.405 . S
C204 H230 0.930 . S
C205 C200 1.479 . S
C205 C204 1.405 . S
C205 H231 0.931 . S
U206 O207 2.454 . S
U206 O208 2.458 . S
U206 C209 2.984 . S
U206 C210 2.847 1_554 S
U206 C223 2.882 . S
U206 O224 2.441 1_554 S
U206 O225 2.420 . S
U206 O226 2.455 . S
U206 O227 2.449 . S
O207 U206 2.454 . S
O207 C209 1.353 . S
O208 U206 2.458 . S
O208 C209 1.286 . S
C209 U206 2.984 . S
C209 O207 1.353 . S
C209 O208 1.286 . S
C209 C211 1.363 . S
C210 C200 1.465 . S
C210 U206 2.847 1_556 S
C210 O224 1.249 . S
C210 O225 1.202 1_556 S
C211 C209 1.363 . S
C211 C213 1.408 . S
C211 C216 1.342 . S
C212 C213 1.310 . S
C212 C215 1.461 . S
C212 H232 0.932 . S
C213 C211 1.408 . S
C213 C212 1.310 . S
C213 H233 0.930 . S
C214 C215 1.474 . S
C214 C216 1.285 . S
C214 H234 0.929 . S
C215 C212 1.461 . S
C215 C214 1.474 . S
C216 C211 1.342 . S
C216 C214 1.285 . S
C216 H235 0.930 . S
C217 C220 1.424 . S
C217 C222 1.245 . S
C217 C223 1.428 . S
C218 C221 1.260 . S
C218 C222 1.477 . S
C218 H236 0.932 . S
C219 C220 1.384 . S
C219 C221 1.479 . S
C219 H237 0.929 . S
C220 C217 1.424 . S
C220 C219 1.384 . S
C220 H238 0.928 . S
C221 C218 1.260 . S
C221 C219 1.479 . S
C222 C217 1.245 . S
C222 C218 1.477 . S
C222 H239 0.932 . S
C223 U206 2.882 . S
C223 C217 1.428 . S
C223 O226 1.301 . S
C223 O227 1.282 . S
O224 U206 2.441 1_556 S
O224 C210 1.249 . S
O225 U206 2.420 . S
O225 C210 1.202 1_554 S
O226 U206 2.455 . S
O226 C223 1.301 . S
O227 U206 2.449 . S
O227 C223 1.282 . S
H228 C201 0.931 . S
H229 C203 0.929 . S
H230 C204 0.930 . S
H231 C205 0.931 . S
H232 C212 0.932 . S
H233 C213 0.930 . S
H234 C214 0.929 . S
H235 C216 0.930 . S
H236 C218 0.932 . S
H237 C219 0.929 . S
H238 C220 0.928 . S
H239 C222 0.932 . S
C240 C241 1.264 . S
C240 C245 1.479 . S
C240 C250 1.465 1_556 S
C241 C240 1.264 . S
C241 C243 1.339 . S
C241 H268 0.931 . S
C242 C243 1.395 . S
C242 C244 1.320 . S
C243 C241 1.339 . S
C243 C242 1.395 . S
C243 H269 0.929 . S
C244 C242 1.320 . S
C244 C245 1.405 . S
C244 H270 0.921 1_545 S
C245 C240 1.479 . S
C245 C244 1.405 . S
C245 H271 0.931 . S
U246 O247 2.454 . S
U246 O248 2.458 . S
U246 C249 2.984 . S
U246 C250 2.847 . S
U246 C263 2.882 . S
U246 O264 2.441 . S
U246 O265 2.420 . S
U246 O266 2.455 . S
U246 O267 2.449 . S
O247 U246 2.454 . S
O247 C249 1.353 . S
O248 U246 2.458 . S
O248 C249 1.286 . S
C249 U246 2.984 . S
C249 O247 1.353 . S
C249 O248 1.286 . S
C249 C251 1.363 . S
C250 C240 1.465 1_554 S
C250 U246 2.847 . S
C250 O264 1.249 . S
C250 O265 1.202 . S
C251 C249 1.363 . S
C251 C253 1.408 . S
C251 C256 1.342 . S
C252 C253 1.310 . S
C252 C255 1.463 . S
C252 H272 0.932 . S
C253 C251 1.408 . S
C253 C252 1.310 . S
C253 H273 0.930 . S
C254 C255 1.475 1_565 S
C254 C256 1.286 1_565 S
C254 H274 0.929 . S
C255 C252 1.463 . S
C255 C254 1.475 1_545 S
C256 C251 1.342 . S
C256 C254 1.286 1_545 S
C256 H275 0.930 . S
C257 C260 1.424 . S
C257 C262 1.245 . S
C257 C263 1.428 . S
C258 C261 1.260 . S
C258 C262 1.477 . S
C258 H276 0.932 . S
C259 C260 1.384 . S
C259 C261 1.479 . S
C259 H277 0.929 . S
C260 C257 1.424 . S
C260 C259 1.384 . S
C260 H278 0.928 . S
C261 C258 1.260 . S
C261 C259 1.479 . S
C262 C257 1.245 . S
C262 C258 1.477 . S
C262 H279 0.932 . S
C263 U246 2.882 . S
C263 C257 1.428 . S
C263 O266 1.301 . S
C263 O267 1.282 . S
O264 U246 2.441 . S
O264 C250 1.249 . S
O265 U246 2.420 . S
O265 C250 1.202 . S
O266 U246 2.455 . S
O266 C263 1.301 . S
O267 U246 2.449 . S
O267 C263 1.282 . S
H268 C241 0.931 . S
H269 C243 0.929 . S
H270 C244 0.921 1_565 S
H271 C245 0.931 . S
H272 C252 0.932 . S
H273 C253 0.930 . S
H274 C254 0.929 . S
H275 C256 0.930 . S
H276 C258 0.932 . S
H277 C259 0.929 . S
H278 C260 0.928 . S
H279 C262 0.932 . S
C280 C281 1.264 . S
C280 C285 1.479 . S
C280 C290 1.465 . S
C281 C280 1.264 . S
C281 C283 1.339 . S
C281 H308 0.931 . S
C282 C283 1.395 . S
C282 C284 1.320 . S
C283 C281 1.339 . S
C283 C282 1.395 . S
C283 H309 0.929 . S
C284 C282 1.320 . S
C284 C285 1.405 . S
C284 H310 0.930 1_554 S
C285 C280 1.479 . S
C285 C284 1.405 . S
C285 H311 0.931 . S
U286 O287 2.454 . S
U286 O288 2.458 . S
U286 C289 2.984 . S
U286 C290 2.847 . S
U286 C303 2.882 . S
U286 O304 2.441 . S
U286 O305 2.420 . S
U286 O306 2.455 . S
U286 O307 2.449 . S
O287 U286 2.454 . S
O287 C289 1.353 . S
O288 U286 2.458 . S
O288 C289 1.286 . S
C289 U286 2.984 . S
C289 O287 1.353 . S
C289 O288 1.286 . S
C289 C291 1.363 . S
C290 C280 1.465 . S
C290 U286 2.847 . S
C290 O304 1.249 . S
C290 O305 1.202 . S
C291 C289 1.363 . S
C291 C293 1.408 . S
C291 C296 1.342 . S
C292 C293 1.310 . S
C292 C295 1.461 . S
C292 H312 0.932 . S
C293 C291 1.408 . S
C293 C292 1.310 . S
C293 H313 0.930 . S
C294 C295 1.474 . S
C294 C296 1.285 . S
C294 H314 0.929 . S
C295 C292 1.461 . S
C295 C294 1.474 . S
C296 C291 1.342 . S
C296 C294 1.285 . S
C296 H315 0.930 . S
C297 C300 1.424 . S
C297 C302 1.245 . S
C297 C303 1.428 . S
C298 C301 1.260 . S
C298 C302 1.477 . S
C298 H316 0.932 . S
C299 C300 1.384 . S
C299 C301 1.479 . S
C299 H317 0.929 . S
C300 C297 1.424 . S
C300 C299 1.384 . S
C300 H318 0.928 . S
C301 C298 1.260 . S
C301 C299 1.479 . S
C302 C297 1.245 . S
C302 C298 1.477 . S
C302 H319 0.932 . S
C303 U286 2.882 . S
C303 C297 1.428 . S
C303 O306 1.301 . S
C303 O307 1.282 . S
O304 U286 2.441 . S
O304 C290 1.249 . S
O305 U286 2.420 . S
O305 C290 1.202 . S
O306 U286 2.455 . S
O306 C303 1.301 . S
O307 U286 2.449 . S
O307 C303 1.282 . S
H308 C281 0.931 . S
H309 C283 0.929 . S
H310 C284 0.930 1_556 S
H311 C285 0.931 . S
H312 C292 0.932 . S
H313 C293 0.930 . S
H314 C294 0.929 . S
H315 C296 0.930 . S
H316 C298 0.932 . S
H317 C299 0.929 . S
H318 C300 0.928 . S
H319 C302 0.932 . S
Dy320 O323 2.307 1_545 S
Dy320 O325 2.395 1_655 S
Dy320 O326 2.379 . S
Dy320 O328 2.339 . S
Dy320 O330 2.298 . S
Dy320 O334 2.275 1_655 S
Dy320 C342 2.738 . S
Dy321 O324 2.298 . S
Dy321 O327 2.275 1_455 S
Dy321 O329 2.307 1_565 S
Dy321 O331 2.391 1_455 S
Dy321 O332 2.379 . S
Dy321 O335 2.339 . S
Dy321 C351 2.738 . S
C322 O334 1.254 1_565 S
C322 O335 1.257 . S
O323 Dy320 2.307 1_565 S
O323 C333 1.266 . S
O324 Dy321 2.298 . S
O324 C333 1.236 1_455 S
O325 Dy320 2.395 1_455 S
O325 C342 1.255 1_455 S
O326 Dy320 2.379 . S
O326 C342 1.249 . S
O327 Dy321 2.275 1_655 S
O327 C343 1.254 1_565 S
O328 Dy320 2.339 . S
O328 C343 1.257 . S
O329 Dy321 2.307 1_545 S
O329 C344 1.266 . S
O330 Dy320 2.298 . S
O330 C344 1.236 1_655 S
O331 Dy321 2.391 1_655 S
O331 C351 1.246 1_655 S
O332 Dy321 2.379 . S
O332 C351 1.249 . S
C333 O323 1.266 . S
C333 O324 1.236 1_655 S
O334 Dy320 2.275 1_455 S
O334 C322 1.254 1_545 S
O335 Dy321 2.339 . S
O335 C322 1.257 . S
C336 C339 1.326 1_655 S
C336 C340 1.328 . S
C336 C342 1.516 . S
C337 C338 1.304 . S
C337 C341 1.323 . S
C338 C337 1.304 . S
C338 C339 1.369 1_655 S
C338 H352 0.930 1_655 S
C339 C336 1.326 1_455 S
C339 C338 1.369 1_455 S
C339 H353 0.951 . S
C340 C336 1.328 . S
C340 C341 1.433 . S
C340 H354 0.931 . S
C341 C337 1.323 . S
C341 C340 1.433 . S
C341 H355 0.933 . S
C342 Dy320 2.738 . S
C342 O325 1.255 1_655 S
C342 O326 1.249 . S
C342 C336 1.516 . S
C343 O327 1.254 1_545 S
C343 O328 1.257 . S
C344 O329 1.266 . S
C344 O330 1.236 1_455 S
C345 C348 1.344 . S
C345 C349 1.328 . S
C345 C351 1.516 . S
C346 C347 1.304 . S
C346 C350 1.323 . S
C347 C346 1.304 . S
C347 C348 1.371 1_554 S
C347 H356 0.930 1_455 S
C348 C345 1.344 . S
C348 C347 1.371 1_556 S
C348 H357 0.931 1_455 S
C349 C345 1.328 . S
C349 C350 1.433 1_556 S
C349 H358 0.931 . S
C350 C346 1.323 . S
C350 C349 1.433 1_554 S
C350 H359 0.933 . S
C351 Dy321 2.738 . S
C351 O331 1.246 1_455 S
C351 O332 1.249 . S
C351 C345 1.516 . S
H352 C338 0.930 1_455 S
H353 C339 0.951 . S
H354 C340 0.931 . S
H355 C341 0.933 . S
H356 C347 0.930 1_655 S
H357 C348 0.931 1_655 S
H358 C349 0.931 . S
H359 C350 0.933 . S
Dy360 O363 2.307 . S
Dy360 O365 2.395 1_565 S
Dy360 O366 2.379 . S
Dy360 O368 2.339 . S
Dy360 O370 2.298 . S
Dy360 O374 2.275 1_565 S
Dy360 C382 2.738 . S
Dy361 O364 2.298 . S
Dy361 O367 2.275 1_545 S
Dy361 O369 2.307 . S
Dy361 O371 2.395 1_545 S
Dy361 O372 2.379 . S
Dy361 O375 2.339 . S
Dy361 C391 2.738 . S
C362 O374 1.254 . S
C362 O375 1.257 . S
O363 Dy360 2.307 . S
O363 C373 1.266 . S
O364 Dy361 2.298 . S
O364 C373 1.236 1_545 S
O365 Dy360 2.395 1_545 S
O365 C382 1.255 1_545 S
O366 Dy360 2.379 . S
O366 C382 1.249 . S
O367 Dy361 2.275 1_565 S
O367 C383 1.254 . S
O368 Dy360 2.339 . S
O368 C383 1.257 . S
O369 Dy361 2.307 . S
O369 C384 1.266 . S
O370 Dy360 2.298 . S
O370 C384 1.236 1_565 S
O371 Dy361 2.395 1_565 S
O371 C391 1.255 1_565 S
O372 Dy361 2.379 . S
O372 C391 1.249 . S
C373 O363 1.266 . S
C373 O364 1.236 1_565 S
O374 Dy360 2.275 1_545 S
O374 C362 1.254 . S
O375 Dy361 2.339 . S
O375 C362 1.257 . S
C376 C379 1.343 . S
C376 C380 1.328 . S
C376 C382 1.516 . S
C377 C378 1.304 . S
C377 C381 1.323 . S
C378 C377 1.304 . S
C378 C379 1.371 . S
C378 H392 0.930 1_565 S
C379 C376 1.343 . S
C379 C378 1.371 . S
C379 H393 0.932 1_565 S
C380 C376 1.328 . S
C380 C381 1.433 . S
C380 H394 0.931 . S
C381 C377 1.323 . S
C381 C380 1.433 . S
C381 H395 0.933 . S
C382 Dy360 2.738 . S
C382 O365 1.255 1_565 S
C382 O366 1.249 . S
C382 C376 1.516 . S
C383 O367 1.254 . S
C383 O368 1.257 . S
C384 O369 1.266 . S
C384 O370 1.236 1_545 S
C385 C388 1.350 . S
C385 C389 1.328 . S
C385 C391 1.516 . S
C386 C387 1.304 1_554 S
C386 C390 1.323 . S
C387 C386 1.304 1_556 S
C387 C388 1.372 . S
C387 H396 0.930 1_545 S
C388 C385 1.350 . S
C388 C387 1.372 . S
C388 H397 0.924 1_545 S
C389 C385 1.328 . S
C389 C390 1.433 1_556 S
C389 H398 0.931 . S
C390 C386 1.323 . S
C390 C389 1.433 1_554 S
C390 H399 0.933 . S
C391 Dy361 2.738 . S
C391 O371 1.255 1_545 S
C391 O372 1.249 . S
C391 C385 1.516 . S
H392 C378 0.930 1_545 S
H393 C379 0.932 1_545 S
H394 C380 0.931 . S
H395 C381 0.933 . S
H396 C387 0.930 1_565 S
H397 C388 0.924 1_565 S
H398 C389 0.931 . S
H399 C390 0.933 . S
Dy400 O403 2.307 . S
Dy400 O405 2.395 . S
Dy400 O406 2.379 . S
Dy400 O408 2.339 . S
Dy400 O410 2.298 . S
Dy400 O414 2.275 . S
Dy400 C422 2.738 . S
Dy401 O404 2.298 . S
Dy401 O407 2.275 . S
Dy401 O409 2.307 . S
Dy401 O411 2.395 . S
Dy401 O412 2.379 . S
Dy401 O415 2.339 . S
Dy401 C431 2.738 . S
C402 O414 1.254 . S
C402 O415 1.257 . S
O403 Dy400 2.307 . S
O403 C413 1.266 . S
O404 Dy401 2.298 . S
O404 C413 1.236 . S
O405 Dy400 2.395 . S
O405 C422 1.255 . S
O406 Dy400 2.379 . S
O406 C422 1.249 . S
O407 Dy401 2.275 . S
O407 C423 1.254 . S
O408 Dy400 2.339 . S
O408 C423 1.257 . S
O409 Dy401 2.307 . S
O409 C424 1.266 . S
O410 Dy400 2.298 . S
O410 C424 1.236 . S
O411 Dy401 2.395 . S
O411 C431 1.255 . S
O412 Dy401 2.379 . S
O412 C431 1.249 . S
C413 O403 1.266 . S
C413 O404 1.236 . S
O414 Dy400 2.275 . S
O414 C402 1.254 . S
O415 Dy401 2.339 . S
O415 C402 1.257 . S
C416 C419 1.344 . S
C416 C420 1.328 . S
C416 C422 1.516 . S
C417 C418 1.304 1_556 S
C417 C421 1.323 . S
C418 C417 1.304 1_554 S
C418 C419 1.371 1_554 S
C418 H432 0.930 . S
C419 C416 1.344 . S
C419 C418 1.371 1_556 S
C419 H433 0.928 1_556 S
C420 C416 1.328 . S
C420 C421 1.433 . S
C420 H434 0.931 . S
C421 C417 1.323 . S
C421 C420 1.433 . S
C421 H435 0.933 . S
C422 Dy400 2.738 . S
C422 O405 1.255 . S
C422 O406 1.249 . S
C422 C416 1.516 . S
C423 O407 1.254 . S
C423 O408 1.257 . S
C424 O409 1.266 . S
C424 O410 1.236 . S
C425 C428 1.344 . S
C425 C429 1.328 . S
C425 C431 1.516 . S
C426 C427 1.304 . S
C426 C430 1.323 . S
C427 C426 1.304 . S
C427 C428 1.371 . S
C427 H436 0.930 . S
C428 C425 1.344 . S
C428 C427 1.371 . S
C428 H437 0.931 . S
C429 C425 1.328 . S
C429 C430 1.433 . S
C429 H438 0.931 . S
C430 C426 1.323 . S
C430 C429 1.433 . S
C430 H439 0.933 . S
C431 Dy401 2.738 . S
C431 O411 1.255 . S
C431 O412 1.249 . S
C431 C425 1.516 . S
H432 C418 0.930 . S
H433 C419 0.928 1_554 S
H434 C420 0.931 . S
H435 C421 0.933 . S
H436 C427 0.930 . S
H437 C428 0.931 . S
H438 C429 0.931 . S
H439 C430 0.933 . S
Dy440 O443 2.307 1_455 S
Dy440 O445 2.395 . S
Dy440 O446 2.379 . S
Dy440 O448 2.339 . S
Dy440 O450 2.298 . S
Dy440 O454 2.275 . S
Dy440 C462 2.738 . S
Dy441 O444 2.298 . S
Dy441 O447 2.275 . S
Dy441 O449 2.307 1_655 S
Dy441 O451 2.395 . S
Dy441 O452 2.379 . S
Dy441 O455 2.339 . S
Dy441 C471 2.738 . S
C442 O454 1.241 1_655 S
C442 O455 1.273 . S
O443 Dy440 2.307 1_655 S
O443 C453 1.266 . S
O444 Dy441 2.298 . S
O444 C453 1.236 . S
O445 Dy440 2.395 . S
O445 C462 1.255 . S
O446 Dy440 2.379 . S
O446 C462 1.249 . S
O447 Dy441 2.275 . S
O447 C463 1.254 1_655 S
O448 Dy440 2.339 . S
O448 C463 1.257 . S
O449 Dy441 2.307 1_455 S
O449 C464 1.266 . S
O450 Dy440 2.298 . S
O450 C464 1.236 . S
O451 Dy441 2.395 . S
O451 C471 1.255 . S
O452 Dy441 2.379 . S
O452 C471 1.249 . S
C453 O443 1.266 . S
C453 O444 1.236 . S
O454 Dy440 2.275 . S
O454 C442 1.241 1_455 S
O455 Dy441 2.339 . S
O455 C442 1.273 . S
C456 C459 1.344 . S
C456 C460 1.328 . S
C456 C462 1.516 . S
C457 C458 1.304 . S
C457 C461 1.323 . S
C458 C457 1.304 . S
C458 C459 1.371 . S
C458 H472 0.930 . S
C459 C456 1.344 . S
C459 C458 1.371 . S
C459 H473 0.931 . S
C460 C456 1.328 . S
C460 C461 1.433 . S
C460 H474 0.931 . S
C461 C457 1.323 . S
C461 C460 1.433 . S
C461 H475 0.933 . S
C462 Dy440 2.738 . S
C462 O445 1.255 . S
C462 O446 1.249 . S
C462 C456 1.516 . S
C463 O447 1.254 1_455 S
C463 O448 1.257 . S
C464 O449 1.266 . S
C464 O450 1.236 . S
C465 C468 1.344 1_556 S
C465 C469 1.328 1_556 S
C465 C471 1.516 . S
C466 C467 1.304 . S
C466 C470 1.323 . S
C467 C466 1.304 . S
C467 C468 1.371 . S
C467 H476 0.930 . S
C468 C465 1.344 1_554 S
C468 C467 1.371 . S
C468 H477 0.931 . S
C469 C465 1.328 1_554 S
C469 C470 1.433 . S
C469 H478 0.931 1_554 S
C470 C466 1.323 . S
C470 C469 1.433 . S
C470 H479 0.933 . S
C471 Dy441 2.738 . S
C471 O451 1.255 . S
C471 O452 1.249 . S
C471 C465 1.516 . S
H472 C458 0.930 . S
H473 C459 0.931 . S
H474 C460 0.931 . S
H475 C461 0.933 . S
H476 C467 0.930 . S
H477 C468 0.931 . S
H478 C469 0.931 1_556 S
H479 C470 0.933 . S
C480 C481 1.352 1_565 S
C480 C486 1.379 . S
C480 N488 1.356 . S
C481 C480 1.352 1_545 S
C481 C487 1.373 . S
C482 C483 1.391 . S
C482 C487 1.379 . S
C482 N489 1.356 . S
C483 C482 1.391 . S
C483 C486 1.338 1_545 S
N484 C486 1.356 . S
N484 H496 0.984 . S
N484 H497 0.985 . S
N485 C487 1.356 . S
N485 H490 0.984 . S
N485 H491 0.985 . S
C486 C480 1.379 . S
C486 C483 1.338 1_565 S
C486 N484 1.356 . S
C487 C481 1.373 . S
C487 C482 1.379 . S
C487 N485 1.356 . S
N488 C480 1.356 . S
N488 H494 0.984 . S
N488 H495 0.984 . S
N489 C482 1.356 . S
N489 H492 0.984 . S
N489 H493 0.985 . S
H490 N485 0.984 . S
H491 N485 0.985 . S
H492 N489 0.984 . S
H493 N489 0.985 . S
H494 N488 0.984 . S
H495 N488 0.984 . S
H496 N484 0.984 . S
H497 N484 0.985 . S
C498 C499 1.363 . S
C498 C504 1.379 . S
C498 N506 1.356 . S
C499 C498 1.363 . S
C499 C505 1.363 . S
C500 C501 1.363 . S
C500 C505 1.379 . S
C500 N507 1.356 . S
C501 C500 1.363 . S
C501 C504 1.363 . S
N502 C504 1.356 . S
N502 H514 0.984 . S
N502 H515 0.985 . S
N503 C505 1.356 . S
N503 H508 0.984 . S
N503 H509 0.985 . S
C504 C498 1.379 . S
C504 C501 1.363 . S
C504 N502 1.356 . S
C505 C499 1.363 . S
C505 C500 1.379 . S
C505 N503 1.356 . S
N506 C498 1.356 . S
N506 H512 0.984 . S
N506 H513 0.984 . S
N507 C500 1.356 . S
N507 H510 0.984 . S
N507 H511 0.985 . S
H508 N503 0.984 . S
H509 N503 0.985 . S
H510 N507 0.984 . S
H511 N507 0.985 . S
H512 N506 0.984 . S
H513 N506 0.984 . S
H514 N502 0.984 . S
H515 N502 0.985 . S
C516 C517 1.363 . S
C516 C522 1.379 . S
C516 N524 1.356 . S
C517 C516 1.363 . S
C517 C523 1.363 . S
C518 C519 1.363 . S
C518 C523 1.379 . S
C518 N525 1.356 . S
C519 C518 1.363 . S
C519 C522 1.363 . S
N520 C522 1.356 . S
N520 H532 0.984 . S
N520 H533 0.985 . S
N521 C523 1.356 . S
N521 H526 0.984 . S
N521 H527 0.985 . S
C522 C516 1.379 . S
C522 C519 1.363 . S
C522 N520 1.356 . S
C523 C517 1.363 . S
C523 C518 1.379 . S
C523 N521 1.356 . S
N524 C516 1.356 . S
N524 H530 0.984 . S
N524 H531 0.984 . S
N525 C518 1.356 . S
N525 H528 0.984 . S
N525 H529 0.985 . S
H526 N521 0.984 . S
H527 N521 0.985 . S
H528 N525 0.984 . S
H529 N525 0.985 . S
H530 N524 0.984 . S
H531 N524 0.984 . S
H532 N520 0.984 . S
H533 N520 0.985 . S
C534 C535 1.363 . S
C534 C540 1.379 . S
C534 N542 1.356 . S
C535 C534 1.363 . S
C535 C541 1.363 1_455 S
C536 C537 1.363 1_655 S
C536 C541 1.379 . S
C536 N543 1.356 . S
C537 C536 1.363 1_455 S
C537 C540 1.363 . S
N538 C540 1.356 . S
N538 H550 0.984 . S
N538 H551 0.985 . S
N539 C541 1.356 . S
N539 H544 0.984 . S
N539 H545 0.985 . S
C540 C534 1.379 . S
C540 C537 1.363 . S
C540 N538 1.356 . S
C541 C535 1.363 1_655 S
C541 C536 1.379 . S
C541 N539 1.356 . S
N542 C534 1.356 . S
N542 H548 0.984 . S
N542 H549 0.984 . S
N543 C536 1.356 . S
N543 H546 0.984 . S
N543 H547 0.985 . S
H544 N539 0.984 . S
H545 N539 0.985 . S
H546 N543 0.984 . S
H547 N543 0.985 . S
H548 N542 0.984 . S
H549 N542 0.984 . S
H550 N538 0.984 . S
H551 N538 0.985 . S
C552 C553 1.367 . S
C552 C558 1.379 . S
C552 N560 1.356 . S
C553 C552 1.367 . S
C553 C559 1.359 1_565 S
C554 C555 1.347 1_545 S
C554 C559 1.379 1_556 S
C554 N561 1.356 . S
C555 C554 1.347 1_565 S
C555 C558 1.382 1_556 S
N556 C558 1.356 1_556 S
N556 H568 0.984 . S
N556 H569 0.985 . S
N557 C559 1.356 . S
N557 H562 0.984 . S
N557 H563 0.985 . S
C558 C552 1.379 . S
C558 C555 1.382 1_554 S
C558 N556 1.356 1_554 S
C559 C553 1.359 1_545 S
C559 C554 1.379 1_554 S
C559 N557 1.356 . S
N560 C552 1.356 . S
N560 H566 0.984 . S
N560 H567 0.984 . S
N561 C554 1.356 . S
N561 H564 0.984 . S
N561 H565 0.985 . S
H562 N557 0.984 . S
H563 N557 0.985 . S
H564 N561 0.984 . S
H565 N561 0.985 . S
H566 N560 0.984 . S
H567 N560 0.984 . S
H568 N556 0.984 . S
H569 N556 0.985 . S
C570 C571 1.363 . S
C570 C576 1.379 . S
C570 N578 1.356 . S
C571 C570 1.363 . S
C571 C577 1.363 1_556 S
C572 C573 1.363 . S
C572 C577 1.379 1_556 S
C572 N579 1.356 . S
C573 C572 1.363 . S
C573 C576 1.363 . S
N574 C576 1.356 . S
N574 H586 0.984 . S
N574 H587 0.985 . S
N575 C577 1.356 . S
N575 H580 0.984 . S
N575 H581 0.985 . S
C576 C570 1.379 . S
C576 C573 1.363 . S
C576 N574 1.356 . S
C577 C571 1.363 1_554 S
C577 C572 1.379 1_554 S
C577 N575 1.356 . S
N578 C570 1.356 . S
N578 H584 0.984 . S
N578 H585 0.984 . S
N579 C572 1.356 . S
N579 H582 0.984 . S
N579 H583 0.985 . S
H580 N575 0.984 . S
H581 N575 0.985 . S
H582 N579 0.984 . S
H583 N579 0.985 . S
H584 N578 0.984 . S
H585 N578 0.984 . S
H586 N574 0.984 . S
H587 N574 0.985 . S
C588 C589 1.363 . S
C588 C594 1.379 . S
C588 N596 1.356 . S
C589 C588 1.363 . S
C589 C595 1.363 . S
C590 C591 1.363 . S
C590 C595 1.379 . S
C590 N597 1.356 . S
C591 C590 1.363 . S
C591 C594 1.363 . S
N592 C594 1.356 . S
N592 H604 0.984 . S
N592 H605 0.985 . S
N593 C595 1.356 . S
N593 H598 0.984 . S
N593 H599 0.985 . S
C594 C588 1.379 . S
C594 C591 1.363 . S
C594 N592 1.356 . S
C595 C589 1.363 . S
C595 C590 1.379 . S
C595 N593 1.356 . S
N596 C588 1.356 . S
N596 H602 0.984 . S
N596 H603 0.984 . S
N597 C590 1.356 . S
N597 H600 0.984 . S
N597 H601 0.985 . S
H598 N593 0.984 . S
H599 N593 0.985 . S
H600 N597 0.984 . S
H601 N597 0.985 . S
H602 N596 0.984 . S
H603 N596 0.984 . S
H604 N592 0.984 . S
H605 N592 0.985 . S
C606 C607 1.370 . S
C606 C612 1.379 . S
C606 N614 1.356 . S
C607 C606 1.370 . S
C607 C613 1.359 1_655 S
C608 C609 1.352 1_454 S
C608 C613 1.379 . S
C608 N615 1.356 1_554 S
C609 C608 1.352 1_656 S
C609 C612 1.368 1_556 S
N610 C612 1.356 . S
N610 H622 0.984 . S
N610 H623 0.985 1_554 S
N611 C613 1.356 . S
N611 H616 0.984 . S
N611 H617 0.985 . S
C612 C606 1.379 . S
C612 C609 1.368 1_554 S
C612 N610 1.356 . S
C613 C607 1.359 1_455 S
C613 C608 1.379 . S
C613 N611 1.356 . S
N614 C606 1.356 . S
N614 H620 0.984 . S
N614 H621 0.984 . S
N615 C608 1.356 1_556 S
N615 H618 0.984 . S
N615 H619 0.985 . S
H616 N611 0.984 . S
H617 N611 0.985 . S
H618 N615 0.984 . S
H619 N615 0.985 . S
H620 N614 0.984 . S
H621 N614 0.984 . S
H622 N610 0.984 . S
H623 N610 0.985 1_556 S
C624 C625 1.363 1_655 S
C624 C630 1.379 . S
C624 N632 1.356 . S
C625 C624 1.363 1_455 S
C625 C631 1.363 . S
C626 C627 1.363 . S
C626 C631 1.379 1_655 S
C626 N633 1.356 . S
C627 C626 1.363 . S
C627 C630 1.363 . S
N628 C630 1.356 . S
N628 H640 0.984 . S
N628 H641 0.985 . S
N629 C631 1.356 . S
N629 H634 0.984 . S
N629 H635 0.985 . S
C630 C624 1.379 . S
C630 C627 1.363 . S
C630 N628 1.356 . S
C631 C625 1.363 . S
C631 C626 1.379 1_455 S
C631 N629 1.356 . S
N632 C624 1.356 . S
N632 H638 0.984 . S
N632 H639 0.984 1_655 S
N633 C626 1.356 . S
N633 H636 0.984 . S
N633 H637 0.985 . S
H634 N629 0.984 . S
H635 N629 0.985 . S
H636 N633 0.984 . S
H637 N633 0.985 . S
H638 N632 0.984 . S
H639 N632 0.984 1_455 S
H640 N628 0.984 . S
H641 N628 0.985 . S
C642 C643 1.363 1_545 S
C642 C648 1.379 1_545 S
C642 N650 1.356 . S
C643 C642 1.363 1_565 S
C643 C649 1.363 . S
C644 C645 1.363 . S
C644 C649 1.379 . S
C644 N651 1.356 . S
C645 C644 1.363 . S
C645 C648 1.363 . S
N646 C648 1.356 . S
N646 H658 0.984 1_565 S
N646 H659 0.985 . S
N647 C649 1.356 . S
N647 H652 0.984 . S
N647 H653 0.985 . S
C648 C642 1.379 1_565 S
C648 C645 1.363 . S
C648 N646 1.356 . S
C649 C643 1.363 . S
C649 C644 1.379 . S
C649 N647 1.356 . S
N650 C642 1.356 . S
N650 H656 0.984 . S
N650 H657 0.984 . S
N651 C644 1.356 . S
N651 H654 0.984 . S
N651 H655 0.985 . S
H652 N647 0.984 . S
H653 N647 0.985 . S
H654 N651 0.984 . S
H655 N651 0.985 . S
H656 N650 0.984 . S
H657 N650 0.984 . S
H658 N646 0.984 1_545 S
H659 N646 0.985 . S
C660 C661 1.363 . S
C660 C666 1.379 . S
C660 N668 1.356 . S
C661 C660 1.363 . S
C661 C667 1.363 . S
C662 C663 1.363 . S
C662 C667 1.379 . S
C662 N669 1.356 . S
C663 C662 1.363 . S
C663 C666 1.363 . S
N664 C666 1.356 . S
N664 H676 0.984 . S
N664 H677 0.985 . S
N665 C667 1.356 . S
N665 H670 0.984 . S
N665 H671 0.985 . S
C666 C660 1.379 . S
C666 C663 1.363 . S
C666 N664 1.356 . S
C667 C661 1.363 . S
C667 C662 1.379 . S
C667 N665 1.356 . S
N668 C660 1.356 . S
N668 H674 0.984 . S
N668 H675 0.984 . S
N669 C662 1.356 . S
N669 H672 0.984 . S
N669 H673 0.985 . S
H670 N665 0.984 . S
H671 N665 0.985 . S
H672 N669 0.984 . S
H673 N669 0.985 . S
H674 N668 0.984 . S
H675 N668 0.984 . S
H676 N664 0.984 . S
H677 N664 0.985 . S
C678 C679 1.363 . S
C678 C684 1.379 . S
C678 N686 1.356 . S
C679 C678 1.363 . S
C679 C685 1.363 . S
C680 C681 1.363 . S
C680 C685 1.379 . S
C680 N687 1.356 . S
C681 C680 1.363 . S
C681 C684 1.363 . S
N682 C684 1.356 . S
N682 H694 0.984 . S
N682 H695 0.985 . S
N683 C685 1.356 . S
N683 H688 0.984 . S
N683 H689 0.985 . S
C684 C678 1.379 . S
C684 C681 1.363 . S
C684 N682 1.356 . S
C685 C679 1.363 . S
C685 C680 1.379 . S
C685 N683 1.356 . S
N686 C678 1.356 . S
N686 H692 0.984 . S
N686 H693 0.984 . S
N687 C680 1.356 . S
N687 H690 0.984 . S
N687 H691 0.985 . S
H688 N683 0.984 . S
H689 N683 0.985 . S
H690 N687 0.984 . S
H691 N687 0.985 . S
H692 N686 0.984 . S
H693 N686 0.984 . S
H694 N682 0.984 . S
H695 N682 0.985 . S
C696 C697 1.363 . S
C696 C702 1.379 1_655 S
C696 N704 1.356 . S
C697 C696 1.363 . S
C697 C703 1.363 1_655 S
C698 C699 1.363 . S
C698 C703 1.379 . S
C698 N705 1.356 1_554 S
C699 C698 1.363 . S
C699 C702 1.363 . S
N700 C702 1.356 . S
N700 H712 0.984 1_455 S
N700 H713 0.985 . S
N701 C703 1.356 . S
N701 H706 0.984 . S
N701 H707 0.985 . S
C702 C696 1.379 1_455 S
C702 C699 1.363 . S
C702 N700 1.356 . S
C703 C697 1.363 1_455 S
C703 C698 1.379 . S
C703 N701 1.356 . S
N704 C696 1.356 . S
N704 H710 0.984 . S
N704 H711 0.984 . S
N705 C698 1.356 1_556 S
N705 H708 0.984 . S
N705 H709 0.985 . S
H706 N701 0.984 . S
H707 N701 0.985 . S
H708 N705 0.984 . S
H709 N705 0.985 . S
H710 N704 0.984 . S
H711 N704 0.984 . S
H712 N700 0.984 1_655 S
H713 N700 0.985 . S
C714 C715 1.363 1_556 S
C714 C720 1.379 . S
C714 N722 1.356 . S
C715 C714 1.363 1_554 S
C715 C721 1.363 1_545 S
C716 C717 1.363 . S
C716 C721 1.379 1_545 S
C716 N723 1.356 . S
C717 C716 1.363 . S
C717 C720 1.363 1_554 S
N718 C720 1.356 . S
N718 H730 0.984 . S
N718 H731 0.985 . S
N719 C721 1.356 . S
N719 H724 0.984 . S
N719 H725 0.985 . S
C720 C714 1.379 . S
C720 C717 1.363 1_556 S
C720 N718 1.356 . S
C721 C715 1.363 1_565 S
C721 C716 1.379 1_565 S
C721 N719 1.356 . S
N722 C714 1.356 . S
N722 H728 0.984 . S
N722 H729 0.984 . S
N723 C716 1.356 . S
N723 H726 0.984 . S
N723 H727 0.985 1_545 S
H724 N719 0.984 . S
H725 N719 0.985 . S
H726 N723 0.984 . S
H727 N723 0.985 1_565 S
H728 N722 0.984 . S
H729 N722 0.984 . S
H730 N718 0.984 . S
H731 N718 0.985 . S
C732 C733 1.363 . S
C732 C738 1.379 . S
C732 N740 1.356 . S
C733 C732 1.363 . S
C733 C739 1.363 . S
C734 C735 1.363 . S
C734 C739 1.379 . S
C734 N741 1.356 . S
C735 C734 1.363 . S
C735 C738 1.363 . S
N736 C738 1.356 . S
N736 H748 0.984 . S
N736 H749 0.985 . S
N737 C739 1.356 . S
N737 H742 0.984 . S
N737 H743 0.984 1_556 S
C738 C732 1.379 . S
C738 C735 1.363 . S
C738 N736 1.356 . S
C739 C733 1.363 . S
C739 C734 1.379 . S
C739 N737 1.356 . S
N740 C732 1.356 . S
N740 H746 0.984 . S
N740 H747 0.984 . S
N741 C734 1.356 . S
N741 H744 0.984 . S
N741 H745 0.985 1_556 S
H742 N737 0.984 . S
H743 N737 0.984 1_554 S
H744 N741 0.984 . S
H745 N741 0.985 1_554 S
H746 N740 0.984 . S
H747 N740 0.984 . S
H748 N736 0.984 . S
H749 N736 0.985 . S
C750 C751 1.363 . S
C750 C756 1.379 . S
C750 N758 1.356 . S
C751 C750 1.363 . S
C751 C757 1.363 . S
C752 C753 1.363 . S
C752 C757 1.379 . S
C752 N759 1.356 . S
C753 C752 1.363 . S
C753 C756 1.363 . S
N754 C756 1.356 . S
N754 H766 0.984 1_554 S
N754 H767 0.985 . S
N755 C757 1.356 . S
N755 H760 0.984 . S
N755 H761 0.985 . S
C756 C750 1.379 . S
C756 C753 1.363 . S
C756 N754 1.356 . S
C757 C751 1.363 . S
C757 C752 1.379 . S
C757 N755 1.356 . S
N758 C750 1.356 . S
N758 H764 0.984 . S
N758 H765 0.984 . S
N759 C752 1.356 . S
N759 H762 0.984 . S
N759 H763 0.985 . S
H760 N755 0.984 . S
H761 N755 0.985 . S
H762 N759 0.984 . S
H763 N759 0.985 . S
H764 N758 0.984 . S
H765 N758 0.984 . S
H766 N754 0.984 1_556 S
H767 N754 0.985 . S
C768 C769 1.363 . S
C768 C774 1.379 . S
C768 N776 1.356 . S
C769 C768 1.363 . S
C769 C775 1.363 1_455 S
C770 C771 1.363 1_655 S
C770 C775 1.379 . S
C770 N777 1.356 . S
C771 C770 1.363 1_455 S
C771 C774 1.363 . S
N772 C774 1.356 . S
N772 H784 0.984 . S
N772 H785 0.985 . S
N773 C775 1.356 . S
N773 H778 0.984 . S
N773 H779 0.985 . S
C774 C768 1.379 . S
C774 C771 1.363 . S
C774 N772 1.356 . S
C775 C769 1.363 1_655 S
C775 C770 1.379 . S
C775 N773 1.356 . S
N776 C768 1.356 . S
N776 H782 0.984 . S
N776 H783 0.984 . S
N777 C770 1.356 . S
N777 H780 0.984 . S
N777 H781 0.985 . S
H778 N773 0.984 . S
H779 N773 0.985 . S
H780 N777 0.984 . S
H781 N777 0.985 . S
H782 N776 0.984 . S
H783 N776 0.984 . S
H784 N772 0.984 . S
H785 N772 0.985 . S
C786 C787 1.363 1_565 S
C786 C792 1.379 . S
C786 N794 1.356 . S
C787 C786 1.363 1_545 S
C787 C793 1.363 . S
C788 C789 1.363 . S
C788 C793 1.379 . S
C788 N795 1.356 . S
C789 C788 1.363 . S
C789 C792 1.363 1_545 S
N790 C792 1.356 . S
N790 H802 0.984 . S
N790 H803 0.985 . S
N791 C793 1.356 . S
N791 H796 0.984 . S
N791 H797 0.985 . S
C792 C786 1.379 . S
C792 C789 1.363 1_565 S
C792 N790 1.356 . S
C793 C787 1.363 . S
C793 C788 1.379 . S
C793 N791 1.356 . S
N794 C786 1.356 . S
N794 H800 0.984 . S
N794 H801 0.984 . S
N795 C788 1.356 . S
N795 H798 0.984 . S
N795 H799 0.985 . S
H796 N791 0.984 . S
H797 N791 0.985 . S
H798 N795 0.984 . S
H799 N795 0.985 . S
H800 N794 0.984 . S
H801 N794 0.984 . S
H802 N790 0.984 . S
H803 N790 0.985 . S
C804 C805 1.367 . S
C804 C810 1.380 . S
C804 N812 1.351 1_556 S
C805 C804 1.367 . S
C805 C811 1.363 . S
C806 C807 1.363 . S
C806 C811 1.379 . S
C806 N813 1.356 . S
C807 C806 1.363 . S
C807 C810 1.363 . S
N808 C810 1.356 1_554 S
N808 H820 0.984 . S
N808 H821 0.985 1_554 S
N809 C811 1.356 . S
N809 H814 0.984 . S
N809 H815 0.985 . S
C810 C804 1.380 . S
C810 C807 1.363 . S
C810 N808 1.356 1_556 S
C811 C805 1.363 . S
C811 C806 1.379 . S
C811 N809 1.356 . S
N812 C804 1.351 1_554 S
N812 H818 0.984 . S
N812 H819 0.984 . S
N813 C806 1.356 . S
N813 H816 0.984 . S
N813 H817 0.985 . S
H814 N809 0.984 . S
H815 N809 0.985 . S
H816 N813 0.984 . S
H817 N813 0.985 . S
H818 N812 0.984 . S
H819 N812 0.984 . S
H820 N808 0.984 . S
H821 N808 0.985 1_556 S
C822 C823 1.363 . S
C822 C828 1.379 . S
C822 N830 1.356 . S
C823 C822 1.363 . S
C823 C829 1.363 . S
C824 C825 1.363 . S
C824 C829 1.379 . S
C824 N831 1.356 . S
C825 C824 1.363 . S
C825 C828 1.363 . S
N826 C828 1.356 . S
N826 H838 0.984 . S
N826 H839 0.985 . S
N827 C829 1.356 . S
N827 H832 0.984 . S
N827 H833 0.985 . S
C828 C822 1.379 . S
C828 C825 1.363 . S
C828 N826 1.356 . S
C829 C823 1.363 . S
C829 C824 1.379 . S
C829 N827 1.356 . S
N830 C822 1.356 . S
N830 H836 0.984 . S
N830 H837 0.984 . S
N831 C824 1.356 . S
N831 H834 0.984 . S
N831 H835 0.985 . S
H832 N827 0.984 . S
H833 N827 0.985 . S
H834 N831 0.984 . S
H835 N831 0.985 . S
H836 N830 0.984 . S
H837 N830 0.984 . S
H838 N826 0.984 . S
H839 N826 0.985 . S
C840 C841 1.363 . S
C840 C846 1.379 . S
C840 N848 1.356 . S
C841 C840 1.363 . S
C841 C847 1.363 1_655 S
C842 C843 1.363 1_455 S
C842 C847 1.379 . S
C842 N849 1.356 . S
C843 C842 1.363 1_655 S
C843 C846 1.363 . S
N844 C846 1.356 . S
N844 H856 0.984 . S
N844 H857 0.985 . S
N845 C847 1.356 . S
N845 H850 0.984 . S
N845 H851 0.985 . S
C846 C840 1.379 . S
C846 C843 1.363 . S
C846 N844 1.356 . S
C847 C841 1.363 1_455 S
C847 C842 1.379 . S
C847 N845 1.356 . S
N848 C840 1.356 . S
N848 H854 0.984 . S
N848 H855 0.984 . S
N849 C842 1.356 . S
N849 H852 0.984 . S
N849 H853 0.985 . S
H850 N845 0.984 . S
H851 N845 0.985 . S
H852 N849 0.984 . S
H853 N849 0.985 . S
H854 N848 0.984 . S
H855 N848 0.984 . S
H856 N844 0.984 . S
H857 N844 0.985 . S
C858 C859 1.363 . S
C858 C864 1.379 . S
C858 N866 1.356 . S
C859 C858 1.363 . S
C859 C865 1.363 1_565 S
C860 C861 1.363 1_545 S
C860 C865 1.379 . S
C860 N867 1.356 . S
C861 C860 1.363 1_565 S
C861 C864 1.363 . S
N862 C864 1.356 . S
N862 H874 0.984 . S
N862 H875 0.985 . S
N863 C865 1.356 . S
N863 H868 0.984 . S
N863 H869 0.985 . S
C864 C858 1.379 . S
C864 C861 1.363 . S
C864 N862 1.356 . S
C865 C859 1.363 1_545 S
C865 C860 1.379 . S
C865 N863 1.356 . S
N866 C858 1.356 . S
N866 H872 0.984 . S
N866 H873 0.984 . S
N867 C860 1.356 . S
N867 H870 0.984 . S
N867 H871 0.985 . S
H868 N863 0.984 . S
H869 N863 0.985 . S
H870 N867 0.984 . S
H871 N867 0.985 . S
H872 N866 0.984 . S
H873 N866 0.984 . S
H874 N862 0.984 . S
H875 N862 0.985 . S
C876 C877 1.363 . S
C876 C882 1.379 . S
C876 N884 1.356 . S
C877 C876 1.363 . S
C877 C883 1.363 . S
C878 C879 1.363 . S
C878 C883 1.379 . S
C878 N885 1.356 . S
C879 C878 1.363 . S
C879 C882 1.363 . S
N880 C882 1.356 . S
N880 H892 0.984 . S
N880 H893 0.985 . S
N881 C883 1.356 . S
N881 H886 0.984 . S
N881 H887 0.985 . S
C882 C876 1.379 . S
C882 C879 1.363 . S
C882 N880 1.356 . S
C883 C877 1.363 . S
C883 C878 1.379 . S
C883 N881 1.356 . S
N884 C876 1.356 . S
N884 H890 0.984 . S
N884 H891 0.984 . S
N885 C878 1.356 . S
N885 H888 0.984 . S
N885 H889 0.985 . S
H886 N881 0.984 . S
H887 N881 0.985 . S
H888 N885 0.984 . S
H889 N885 0.985 . S
H890 N884 0.984 . S
H891 N884 0.984 . S
H892 N880 0.984 . S
H893 N880 0.985 . S
C894 C895 1.363 . S
C894 C900 1.379 . S
C894 N902 1.356 . S
C895 C894 1.363 . S
C895 C901 1.363 . S
C896 C897 1.363 . S
C896 C901 1.379 . S
C896 N903 1.356 . S
C897 C896 1.363 . S
C897 C900 1.363 . S
N898 C900 1.356 . S
N898 H910 0.984 . S
N898 H911 0.985 . S
N899 C901 1.356 . S
N899 H904 0.984 . S
N899 H905 0.985 . S
C900 C894 1.379 . S
C900 C897 1.363 . S
C900 N898 1.356 . S
C901 C895 1.363 . S
C901 C896 1.379 . S
C901 N899 1.356 . S
N902 C894 1.356 . S
N902 H908 0.984 . S
N902 H909 0.984 . S
N903 C896 1.356 . S
N903 H906 0.984 . S
N903 H907 0.985 . S
H904 N899 0.984 . S
H905 N899 0.985 . S
H906 N903 0.984 . S
H907 N903 0.985 . S
H908 N902 0.984 . S
H909 N902 0.984 . S
H910 N898 0.984 . S
H911 N898 0.985 . S
C481 C255 2.378 . S
C483 C322 2.555 1_545 S
C501 C362 2.349 . S
C499 C295 2.220 . S
C519 C426 3.089 . S
C517 C175 2.963 . S
C537 C442 2.959 1_455 S
C535 C215 2.601 . S
C555 C343 2.555 1_565 S
C553 C95 2.379 1_565 S
C571 C135 2.217 1_556 S
C573 C383 2.353 . S
C589 C15 2.958 . S
C591 C417 3.090 1_554 S
C607 C55 2.595 . S
C609 C463 2.959 1_655 S
C627 C337 0.666 . S
C625 C221 0.604 . S
C645 C377 0.867 . S
C643 C261 0.880 1_565 S
C663 C413 0.908 . S
C661 C301 0.969 . S
C679 C181 1.217 . S
C681 C457 1.032 . S
C697 C61 0.677 1_655 S
C699 C346 0.669 . S
C717 C386 0.868 . S
C715 C101 0.846 . S
C735 C424 0.907 . S
C733 C141 0.864 . S
C751 C21 1.027 . S
C753 C466 1.033 . S
C769 C202 3.260 . S
C771 C344 3.661 . S
C787 C242 3.086 . S
C789 C384 3.440 . S
C807 C402 2.337 . S
C805 C282 2.349 1_556 S
C825 C464 4.172 . S
C823 C162 3.734 . S
C841 C42 3.275 1_655 S
C843 C333 3.668 . S
C861 C373 3.439 . S
C859 C82 3.103 1_565 S
C879 C423 2.337 . S
C877 C122 2.280 . S
C895 C2 3.692 . S
C897 C453 4.172 . S
