# Generated by pormake.
# Topology dag, (6,3)-cn, num edge types: 1
# Building blocks:
#     Node 0, Type 0, BuildingBlock: IZENUY_clean_sbu_0, # of connection points: 6
#     Node 1, Type 0, BuildingBlock: IZENUY_clean_sbu_0, # of connection points: 6
#     Node 2, Type 0, BuildingBlock: IZENUY_clean_sbu_0, # of connection points: 6
#     Node 3, Type 0, BuildingBlock: IZENUY_clean_sbu_0, # of connection points: 6
#     Node 4, Type 1, BuildingBlock: WUSLED_clean_sbu_0, # of connection points: 3
#     Node 5, Type 1, BuildingBlock: WUSLED_clean_sbu_0, # of connection points: 3
#     Node 6, Type 1, BuildingBlock: WUSLED_clean_sbu_0, # of connection points: 3
#     Node 7, Type 1, BuildingBlock: WUSLED_clean_sbu_0, # of connection points: 3
#     Node 8, Type 1, BuildingBlock: WUSLED_clean_sbu_0, # of connection points: 3
#     Node 9, Type 1, BuildingBlock: WUSLED_clean_sbu_0, # of connection points: 3
#     Node 10, Type 1, BuildingBlock: WUSLED_clean_sbu_0, # of connection points: 3
#     Node 11, Type 1, BuildingBlock: WUSLED_clean_sbu_0, # of connection points: 3
#     Edge 12, Type (0, 1), BuildingBlock: UVAHIK_clean_linker_0, # of connection points: 2
#     Edge 13, Type (0, 1), BuildingBlock: UVAHIK_clean_linker_0, # of connection points: 2
#     Edge 14, Type (0, 1), BuildingBlock: UVAHIK_clean_linker_0, # of connection points: 2
#     Edge 15, Type (0, 1), BuildingBlock: UVAHIK_clean_linker_0, # of connection points: 2
#     Edge 16, Type (0, 1), BuildingBlock: UVAHIK_clean_linker_0, # of connection points: 2
#     Edge 17, Type (0, 1), BuildingBlock: UVAHIK_clean_linker_0, # of connection points: 2
#     Edge 18, Type (0, 1), BuildingBlock: UVAHIK_clean_linker_0, # of connection points: 2
#     Edge 19, Type (0, 1), BuildingBlock: UVAHIK_clean_linker_0, # of connection points: 2
#     Edge 20, Type (0, 1), BuildingBlock: UVAHIK_clean_linker_0, # of connection points: 2
#     Edge 21, Type (0, 1), BuildingBlock: UVAHIK_clean_linker_0, # of connection points: 2
#     Edge 22, Type (0, 1), BuildingBlock: UVAHIK_clean_linker_0, # of connection points: 2
#     Edge 23, Type (0, 1), BuildingBlock: UVAHIK_clean_linker_0, # of connection points: 2
#     Edge 24, Type (0, 1), BuildingBlock: UVAHIK_clean_linker_0, # of connection points: 2
#     Edge 25, Type (0, 1), BuildingBlock: UVAHIK_clean_linker_0, # of connection points: 2
#     Edge 26, Type (0, 1), BuildingBlock: UVAHIK_clean_linker_0, # of connection points: 2
#     Edge 27, Type (0, 1), BuildingBlock: UVAHIK_clean_linker_0, # of connection points: 2
#     Edge 28, Type (0, 1), BuildingBlock: UVAHIK_clean_linker_0, # of connection points: 2
#     Edge 29, Type (0, 1), BuildingBlock: UVAHIK_clean_linker_0, # of connection points: 2
#     Edge 30, Type (0, 1), BuildingBlock: UVAHIK_clean_linker_0, # of connection points: 2
#     Edge 31, Type (0, 1), BuildingBlock: UVAHIK_clean_linker_0, # of connection points: 2
#     Edge 32, Type (0, 1), BuildingBlock: UVAHIK_clean_linker_0, # of connection points: 2
#     Edge 33, Type (0, 1), BuildingBlock: UVAHIK_clean_linker_0, # of connection points: 2
#     Edge 34, Type (0, 1), BuildingBlock: UVAHIK_clean_linker_0, # of connection points: 2
#     Edge 35, Type (0, 1), BuildingBlock: UVAHIK_clean_linker_0, # of connection points: 2
# Relax obj value: 0.247
# Max RMSD: 0.191
# Mean RMSD: 0.157
data_MOF--net-dag--node1-IZENUY_clean_sbu_0--node2-WUSLED_clean_sbu_0--edge1-UVAHIK_clean_linker_0
_symmetry_space_group_name_H-M    P1
_symmetry_Int_Tables_number       1
_symmetry_cell_setting            triclinic
loop_
_symmetry_equiv_pos_as_xyz
'x, y, z'
_cell_length_a     60.846923
_cell_length_b     63.554381
_cell_length_c     53.694583
_cell_angle_alpha  94.999439
_cell_angle_beta   90.349674
_cell_angle_gamma 90.163603
loop_
_atom_site_label
_atom_site_type_symbol
_atom_site_fract_x
_atom_site_fract_y
_atom_site_fract_z
_atom_type_partial_charge
Fe0 Fe 0.18151 0.84766 0.08121 0.0
Fe1 Fe 0.13739 0.86048 0.05979 0.0
O2 O 0.15596 0.84055 0.06689 0.0
Fe3 Fe 0.14889 0.81359 0.05964 0.0
O4 O 0.15111 0.80826 0.09216 0.0
O5 O 0.18283 0.82448 0.09933 0.0
O6 O 0.16823 0.86133 0.10812 0.0
C7 C 0.15482 0.87627 0.10673 0.0
C8 C 0.19415 0.81525 0.04758 0.0
O9 O 0.14556 0.87922 0.08617 0.0
C10 C 0.1337 0.83054 0.01788 0.0
O11 O 0.18468 0.87225 0.06565 0.0
O12 O 0.15696 0.87139 0.03916 0.0
O13 O 0.17729 0.80493 0.05319 0.0
O14 O 0.19644 0.83444 0.05533 0.0
C15 C 0.10908 0.83218 0.07756 0.0
O16 O 0.12578 0.84554 0.03205 0.0
O17 O 0.14621 0.81713 0.02655 0.0
C18 C 0.17581 0.87798 0.0459 0.0
O19 O 0.11681 0.85067 0.08004 0.0
O20 O 0.11917 0.81749 0.06488 0.0
C21 C 0.16782 0.81223 0.10579 0.0
Fe22 Fe 0.67926 0.65152 0.48797 0.0
Fe23 Fe 0.64948 0.68662 0.51211 0.0
O24 O 0.65501 0.65954 0.50419 0.0
Fe25 Fe 0.63606 0.64038 0.51265 0.0
O26 O 0.6565 0.61976 0.51606 0.0
O27 O 0.68821 0.6356 0.51277 0.0
O28 O 0.69638 0.6731 0.50297 0.0
C29 C 0.69345 0.68508 0.52285 0.0
C30 C 0.64601 0.62464 0.46525 0.0
O31 O 0.67438 0.68965 0.53056 0.0
C32 C 0.60845 0.67304 0.49858 0.0
O33 O 0.67216 0.66666 0.46205 0.0
O34 O 0.663 0.69585 0.48448 0.0
O35 O 0.63118 0.63134 0.48023 0.0
O36 O 0.66614 0.62867 0.47006 0.0
C37 C 0.63626 0.66696 0.55507 0.0
O38 O 0.62401 0.68524 0.49406 0.0
O39 O 0.61182 0.65726 0.51087 0.0
C40 C 0.66802 0.68615 0.46369 0.0
O41 O 0.63511 0.68228 0.54145 0.0
O42 O 0.64008 0.6485 0.54552 0.0
C43 C 0.67691 0.62084 0.52046 0.0
Fe44 Fe 0.85456 0.18174 0.01261 0.0
Fe45 Fe 0.86676 0.1349 0.01139 0.0
O46 O 0.84776 0.15478 0.00508 0.0
Fe47 Fe 0.82202 0.14764 0.99119 0.0
O48 O 0.82779 0.16239 0.96462 0.0
O49 O 0.83915 0.19137 0.98625 0.0
O50 O 0.87844 0.17991 0.99242 0.0
C51 C 0.89392 0.16701 0.99448 0.0
C52 C 0.81155 0.18151 0.02708 0.0
O53 O 0.89124 0.15088 0.00642 0.0
C54 C 0.82582 0.1171 0.02364 0.0
O55 O 0.87117 0.17697 0.04035 0.0
O56 O 0.86651 0.14315 0.04456 0.0
O57 O 0.80695 0.16981 0.00739 0.0
O58 O 0.83125 0.18539 0.03332 0.0
C59 C 0.85176 0.1193 0.96542 0.0
O60 O 0.84583 0.11519 0.01754 0.0
O61 O 0.81455 0.13224 0.01684 0.0
C62 C 0.87142 0.16151 0.05379 0.0
O63 O 0.86817 0.12544 0.97859 0.0
O64 O 0.83244 0.12421 0.97244 0.0
C65 C 0.83266 0.18175 0.96585 0.0
Fe66 Fe 0.36477 0.36557 0.56321 0.0
Fe67 Fe 0.31964 0.35193 0.58101 0.0
O68 O 0.34599 0.34527 0.56883 0.0
Fe69 Fe 0.35364 0.31847 0.5623 0.0
O70 O 0.37709 0.32129 0.58355 0.0
O71 O 0.38939 0.35046 0.56955 0.0
O72 O 0.365 0.3753 0.59596 0.0
C73 C 0.34807 0.38119 0.60807 0.0
C74 C 0.37108 0.33866 0.52146 0.0
O75 O 0.32907 0.37584 0.59992 0.0
C76 C 0.31098 0.31711 0.54553 0.0
O77 O 0.34371 0.38459 0.55572 0.0
O78 O 0.31278 0.36674 0.55452 0.0
O79 O 0.37064 0.32332 0.5351 0.0
O80 O 0.36569 0.35699 0.53018 0.0
C81 C 0.33021 0.31862 0.6079 0.0
O82 O 0.30549 0.32918 0.56448 0.0
O83 O 0.33094 0.31365 0.54058 0.0
C84 C 0.32408 0.38203 0.54814 0.0
O85 O 0.32465 0.33774 0.60826 0.0
O86 O 0.33791 0.30891 0.58825 0.0
C87 C 0.3923 0.3346 0.58184 0.0
C88 C 0.03274 0.17203 0.3144 0.0
C89 C 0.02379 0.15372 0.30175 0.0
C90 C 0.99747 0.17481 0.28047 0.0
C91 C 0.00636 0.15508 0.28499 0.0
C92 C 0.00618 0.19314 0.29365 0.0
C93 C 0.02373 0.19174 0.31047 0.0
U94 U 0.07802 0.13768 0.33394 0.0
O95 O 0.11376 0.14224 0.33662 0.0
O96 O 0.09521 0.13443 0.36958 0.0
C97 C 0.11436 0.13961 0.36062 0.0
C98 C 0.05256 0.17038 0.32986 0.0
C99 C 0.12725 0.15537 0.3761 0.0
C100 C 0.13381 0.19138 0.3937 0.0
C101 C 0.12051 0.1765 0.37992 0.0
C102 C 0.16042 0.16403 0.40011 0.0
C103 C 0.15406 0.18533 0.40367 0.0
C104 C 0.14713 0.14922 0.38645 0.0
C105 C 0.07657 0.08103 0.30328 0.0
C106 C 0.10798 0.0575 0.30247 0.0
C107 C 0.074 0.04599 0.28169 0.0
C108 C 0.06436 0.06535 0.28945 0.0
C109 C 0.09607 0.042 0.28762 0.0
C110 C 0.09829 0.07689 0.31025 0.0
C111 C 0.06704 0.10212 0.30832 0.0
O112 O 0.05074 0.15796 0.34811 0.0
O113 O 0.07066 0.1671 0.31689 0.0
O114 O 0.06041 0.10719 0.33131 0.0
O115 O 0.07793 0.11735 0.29879 0.0
H116 H 0.03074 0.13837 0.30431 0.0
H117 H 0.00043 0.14067 0.27487 0.0
H118 H 0.99961 0.20856 0.29077 0.0
H119 H 0.03055 0.20605 0.31997 0.0
H120 H 0.12853 0.20769 0.39599 0.0
H121 H 0.10519 0.18149 0.37195 0.0
H122 H 0.17573 0.1588 0.40788 0.0
H123 H 0.15253 0.13295 0.38369 0.0
H124 H 0.12493 0.05483 0.30756 0.0
H125 H 0.06444 0.03457 0.26999 0.0
H126 H 0.04761 0.06837 0.28382 0.0
H127 H 0.10793 0.08889 0.32098 0.0
C128 C 0.38435 0.59172 0.82498 0.0
C129 C 0.39907 0.58426 0.80627 0.0
C130 C 0.37739 0.55213 0.79807 0.0
C131 C 0.3956 0.5647 0.79291 0.0
C132 C 0.36289 0.55954 0.81721 0.0
C133 C 0.36635 0.57922 0.83054 0.0
U134 U 0.41941 0.64032 0.83495 0.0
O135 O 0.41135 0.67406 0.83659 0.0
O136 O 0.42752 0.66126 0.86864 0.0
C137 C 0.41752 0.6775 0.86011 0.0
C138 C 0.38758 0.61281 0.83794 0.0
C139 C 0.40096 0.68777 0.8768 0.0
C140 C 0.36357 0.68983 0.89234 0.0
C141 C 0.37947 0.67973 0.87698 0.0
C142 C 0.39058 0.71588 0.90799 0.0
C143 C 0.36888 0.70809 0.90799 0.0
C144 C 0.40647 0.7058 0.89248 0.0
C145 C 0.47265 0.63808 0.79568 0.0
C146 C 0.4942 0.66721 0.78214 0.0
C147 C 0.50708 0.63123 0.77404 0.0
C148 C 0.48866 0.62392 0.78602 0.0
C149 C 0.50989 0.65292 0.77149 0.0
C150 C 0.4757 0.65983 0.79418 0.0
C151 C 0.45222 0.62946 0.80513 0.0
O152 O 0.40423 0.61451 0.8537 0.0
O153 O 0.38672 0.62831 0.82328 0.0
O154 O 0.43391 0.63784 0.79753 0.0
O155 O 0.45203 0.62582 0.82885 0.0
H156 H 0.41304 0.59377 0.8017 0.0
H157 H 0.40689 0.55972 0.77804 0.0
H158 H 0.34885 0.55016 0.82186 0.0
H159 H 0.35487 0.58476 0.84499 0.0
H160 H 0.34699 0.68355 0.89155 0.0
H161 H 0.37494 0.66576 0.865 0.0
H162 H 0.39534 0.72969 0.92007 0.0
H163 H 0.42303 0.71213 0.89266 0.0
H164 H 0.49598 0.68402 0.78073 0.0
H165 H 0.51857 0.61973 0.76572 0.0
H166 H 0.4865 0.60707 0.7869 0.0
H167 H 0.46348 0.67101 0.80162 0.0
C168 C 0.74467 0.89506 0.15369 0.0
C169 C 0.75698 0.8965 0.13188 0.0
C170 C 0.7455 0.93298 0.12998 0.0
C171 C 0.75731 0.91521 0.12008 0.0
C172 C 0.73281 0.93136 0.15157 0.0
C173 C 0.73239 0.91252 0.16332 0.0
U174 U 0.77903 0.84942 0.16959 0.0
O175 O 0.78695 0.83662 0.20525 0.0
O176 O 0.77174 0.81614 0.1748 0.0
C177 C 0.77856 0.81796 0.19817 0.0
C178 C 0.74659 0.87622 0.16768 0.0
C179 C 0.76417 0.80883 0.21629 0.0
C180 C 0.73342 0.81111 0.24505 0.0
C181 C 0.7461 0.81991 0.22686 0.0
C182 C 0.75655 0.78003 0.2418 0.0
C183 C 0.7386 0.7911 0.25284 0.0
C184 C 0.76918 0.78882 0.22371 0.0
C185 C 0.83577 0.84566 0.13893 0.0
C186 C 0.86909 0.83124 0.15579 0.0
C187 C 0.86752 0.83873 0.11233 0.0
C188 C 0.84583 0.84559 0.11552 0.0
C189 C 0.87954 0.83199 0.13261 0.0
C190 C 0.84733 0.83791 0.1589 0.0
C191 C 0.81392 0.85528 0.14257 0.0
O192 O 0.74707 0.858 0.15401 0.0
O193 O 0.76167 0.87779 0.18538 0.0
O194 O 0.81052 0.8653 0.16466 0.0
O195 O 0.79707 0.84375 0.1341 0.0
H196 H 0.76694 0.88335 0.12438 0.0
H197 H 0.76757 0.91602 0.10378 0.0
H198 H 0.72347 0.94474 0.15957 0.0
H199 H 0.72299 0.91177 0.18028 0.0
H200 H 0.71959 0.81996 0.25302 0.0
H201 H 0.74199 0.83539 0.22125 0.0
H202 H 0.76126 0.76478 0.24762 0.0
H203 H 0.78313 0.7801 0.21579 0.0
H204 H 0.87791 0.82591 0.17165 0.0
H205 H 0.87521 0.83966 0.09431 0.0
H206 H 0.83716 0.85151 0.0999 0.0
H207 H 0.8398 0.83763 0.1771 0.0
C208 C 0.75095 0.39909 0.65894 0.0
C209 C 0.73817 0.39919 0.6371 0.0
C210 C 0.74709 0.43621 0.63393 0.0
C211 C 0.73639 0.41747 0.62465 0.0
C212 C 0.7605 0.43591 0.65537 0.0
C213 C 0.76235 0.41747 0.66782 0.0
U214 U 0.71921 0.35242 0.67645 0.0
O215 O 0.72782 0.31932 0.68093 0.0
O216 O 0.7132 0.33906 0.71218 0.0
C217 C 0.72175 0.32067 0.70447 0.0
C218 C 0.75043 0.38051 0.67356 0.0
C219 C 0.73665 0.3112 0.72198 0.0
C220 C 0.76556 0.31367 0.75357 0.0
C221 C 0.75273 0.32309 0.73584 0.0
C222 C 0.74665 0.28042 0.7432 0.0
C223 C 0.76252 0.29224 0.75759 0.0
C224 C 0.73389 0.28982 0.72559 0.0
C225 C 0.66206 0.34606 0.64607 0.0
C226 C 0.63071 0.32747 0.66163 0.0
C227 C 0.63025 0.33817 0.6194 0.0
C228 C 0.65128 0.34679 0.62306 0.0
C229 C 0.61958 0.32871 0.63877 0.0
C230 C 0.65185 0.33599 0.66522 0.0
C231 C 0.68339 0.35683 0.65 0.0
O232 O 0.73585 0.38165 0.69158 0.0
O233 O 0.75043 0.36208 0.66031 0.0
O234 O 0.70064 0.34635 0.64115 0.0
O235 O 0.6867 0.36658 0.67232 0.0
H236 H 0.72904 0.38525 0.62999 0.0
H237 H 0.72626 0.41703 0.60795 0.0
H238 H 0.76882 0.45011 0.66309 0.0
H239 H 0.7721 0.41776 0.6848 0.0
H240 H 0.77777 0.32316 0.76418 0.0
H241 H 0.75513 0.33964 0.73322 0.0
H242 H 0.74355 0.26402 0.74607 0.0
H243 H 0.72148 0.28044 0.71513 0.0
H244 H 0.62298 0.32012 0.67681 0.0
H245 H 0.62203 0.33965 0.6017 0.0
H246 H 0.6589 0.35452 0.6081 0.0
H247 H 0.65999 0.33512 0.6831 0.0
C248 C 0.53251 0.31486 0.26078 0.0
C249 C 0.51379 0.32757 0.2589 0.0
C250 C 0.49828 0.31404 0.29609 0.0
C251 C 0.49684 0.32707 0.27628 0.0
C252 C 0.51646 0.30048 0.29712 0.0
C253 C 0.53334 0.30085 0.27959 0.0
U254 U 0.57718 0.35096 0.24188 0.0
O255 O 0.61286 0.34683 0.23799 0.0
O256 O 0.59316 0.35559 0.20608 0.0
C257 C 0.61259 0.35011 0.21415 0.0
C258 C 0.55218 0.31778 0.24533 0.0
C259 C 0.62462 0.33463 0.1976 0.0
C260 C 0.63195 0.2985 0.18123 0.0
C261 C 0.61959 0.31301 0.19643 0.0
C262 C 0.65414 0.32719 0.16801 0.0
C263 C 0.64945 0.30544 0.16694 0.0
C264 C 0.64183 0.34163 0.1832 0.0
C265 C 0.57504 0.40747 0.27472 0.0
C266 C 0.60209 0.43166 0.29488 0.0
C267 C 0.5678 0.4452 0.27978 0.0
C268 C 0.56137 0.4247 0.27116 0.0
C269 C 0.58796 0.44886 0.29242 0.0
C270 C 0.59573 0.4112 0.28608 0.0
C271 C 0.56652 0.38582 0.26881 0.0
O272 O 0.55001 0.3304 0.22729 0.0
O273 O 0.57055 0.321 0.25813 0.0
O274 O 0.57787 0.37049 0.27758 0.0
O275 O 0.55906 0.38109 0.24596 0.0
H276 H 0.51254 0.33851 0.24459 0.0
H277 H 0.48286 0.33737 0.27457 0.0
H278 H 0.51824 0.29035 0.3122 0.0
H279 H 0.54758 0.2909 0.28147 0.0
H280 H 0.62778 0.28189 0.18062 0.0
H281 H 0.60627 0.30737 0.20741 0.0
H282 H 0.66769 0.33305 0.15757 0.0
H283 H 0.64596 0.35827 0.18398 0.0
H284 H 0.61763 0.4338 0.30473 0.0
H285 H 0.55669 0.4581 0.27713 0.0
H286 H 0.54536 0.42223 0.26244 0.0
H287 H 0.60669 0.39825 0.28908 0.0
C288 C 0.16142 0.19752 0.90419 0.0
C289 C 0.15615 0.18937 0.92688 0.0
C290 C 0.11785 0.19928 0.9219 0.0
C291 C 0.13462 0.19037 0.93573 0.0
C292 C 0.12335 0.20804 0.89956 0.0
C293 C 0.14497 0.20714 0.89078 0.0
U294 U 0.2124 0.16427 0.89791 0.0
O295 O 0.23114 0.15247 0.86476 0.0
O296 O 0.24744 0.17227 0.89497 0.0
C297 C 0.24885 0.16324 0.87205 0.0
C298 C 0.18335 0.19406 0.89328 0.0
C299 C 0.25768 0.17666 0.85356 0.0
C300 C 0.25371 0.2064 0.82845 0.0
C301 C 0.24573 0.19413 0.8468 0.0
C302 C 0.28583 0.18397 0.82364 0.0
C303 C 0.2738 0.2014 0.81653 0.0
C304 C 0.27781 0.1717 0.84201 0.0
C305 C 0.21196 0.11499 0.93547 0.0
C306 C 0.22683 0.07985 0.92531 0.0
C307 C 0.21351 0.08993 0.96707 0.0
C308 C 0.20841 0.11 0.96004 0.0
C309 C 0.22216 0.07442 0.94958 0.0
C310 C 0.22183 0.1 0.91832 0.0
C311 C 0.20302 0.13491 0.92765 0.0
O312 O 0.2 0.19619 0.90907 0.0
O313 O 0.18479 0.17714 0.8775 0.0
O314 O 0.19615 0.13444 0.90435 0.0
O315 O 0.21362 0.15236 0.93533 0.0
H316 H 0.16856 0.1817 0.93743 0.0
H317 H 0.13105 0.18381 0.95321 0.0
H318 H 0.11082 0.21481 0.88832 0.0
H319 H 0.1487 0.21329 0.87309 0.0
H320 H 0.24388 0.21951 0.8232 0.0
H321 H 0.23007 0.1981 0.85548 0.0
H322 H 0.30146 0.17985 0.81504 0.0
H323 H 0.28723 0.15826 0.84706 0.0
H324 H 0.23373 0.06832 0.91152 0.0
H325 H 0.2095 0.0862 0.98582 0.0
H326 H 0.20075 0.12133 0.97351 0.0
H327 H 0.22485 0.10356 0.89927 0.0
C328 C 0.24936 0.60278 0.40877 0.0
C329 C 0.26057 0.60227 0.43163 0.0
C330 C 0.25289 0.56473 0.43188 0.0
C331 C 0.26218 0.58351 0.44312 0.0
C332 C 0.24083 0.56541 0.40951 0.0
C333 C 0.23916 0.58432 0.39798 0.0
U334 U 0.28261 0.6497 0.39633 0.0
O335 O 0.2916 0.66395 0.36191 0.0
O336 O 0.27503 0.68302 0.39232 0.0
C337 C 0.28258 0.68217 0.36936 0.0
C338 C 0.25086 0.62179 0.39502 0.0
C339 C 0.26847 0.69139 0.35095 0.0
C340 C 0.23334 0.69472 0.32992 0.0
C341 C 0.24639 0.68534 0.34745 0.0
C342 C 0.26447 0.71596 0.31919 0.0
C343 C 0.24223 0.71024 0.31569 0.0
C344 C 0.27741 0.70665 0.33669 0.0
C345 C 0.33746 0.6537 0.43217 0.0
C346 C 0.36717 0.67775 0.42399 0.0
C347 C 0.37053 0.65481 0.45759 0.0
C348 C 0.34964 0.64659 0.45192 0.0
C349 C 0.37965 0.67037 0.4436 0.0
C350 C 0.34618 0.66948 0.41834 0.0
C351 C 0.31621 0.64367 0.42569 0.0
O352 O 0.25009 0.63988 0.40891 0.0
O353 O 0.26664 0.62112 0.37837 0.0
O354 O 0.31445 0.63488 0.4027 0.0
O355 O 0.29869 0.65438 0.43326 0.0
H356 H 0.26879 0.61624 0.44021 0.0
H357 H 0.27126 0.58359 0.46056 0.0
H358 H 0.23359 0.55116 0.40036 0.0
H359 H 0.23067 0.58435 0.38019 0.0
H360 H 0.21626 0.69004 0.32776 0.0
H361 H 0.23926 0.6735 0.35834 0.0
H362 H 0.27199 0.72751 0.30819 0.0
H363 H 0.29448 0.71138 0.33907 0.0
H364 H 0.37367 0.6898 0.41299 0.0
H365 H 0.3798 0.64845 0.47247 0.0
H366 H 0.34318 0.63433 0.46266 0.0
H367 H 0.3369 0.67514 0.40299 0.0
C368 C 0.89085 0.91235 0.7443 0.0
C369 C 0.90562 0.91912 0.76351 0.0
C370 C 0.88498 0.9517 0.77202 0.0
C371 C 0.9027 0.93857 0.77727 0.0
C372 C 0.87058 0.94507 0.7522 0.0
C373 C 0.87348 0.92552 0.73849 0.0
U374 U 0.92239 0.86156 0.73565 0.0
O375 O 0.91139 0.82853 0.73471 0.0
O376 O 0.92926 0.83945 0.7028 0.0
C377 C 0.91783 0.82411 0.71152 0.0
C378 C 0.89292 0.89108 0.7315 0.0
C379 C 0.90133 0.81328 0.69457 0.0
C380 C 0.8803 0.8099 0.65569 0.0
C381 C 0.89621 0.82038 0.67113 0.0
C382 C 0.87439 0.7851 0.68679 0.0
C383 C 0.8691 0.79228 0.66349 0.0
C384 C 0.89043 0.79542 0.70209 0.0
C385 C 0.97485 0.85891 0.77566 0.0
C386 C 0.99122 0.82835 0.79268 0.0
C387 C 0.01161 0.86121 0.79345 0.0
C388 C 0.99408 0.87046 0.78161 0.0
C389 C 0.01017 0.84021 0.79968 0.0
C390 C 0.97371 0.8376 0.78067 0.0
C391 C 0.95572 0.8699 0.76615 0.0
O392 O 0.90974 0.88828 0.71632 0.0
O393 O 0.89057 0.87576 0.7462 0.0
O394 O 0.9364 0.86359 0.77349 0.0
O395 O 0.95616 0.87354 0.74243 0.0
H396 H 0.91909 0.90907 0.76831 0.0
H397 H 0.91391 0.94293 0.79261 0.0
H398 H 0.85695 0.9549 0.74742 0.0
H399 H 0.86194 0.92051 0.72369 0.0
H400 H 0.87642 0.81585 0.63788 0.0
H401 H 0.90433 0.8341 0.66476 0.0
H402 H 0.86621 0.77139 0.69314 0.0
H403 H 0.89421 0.78951 0.71995 0.0
H404 H 0.98973 0.81208 0.79703 0.0
H405 H 0.02584 0.87086 0.79886 0.0
H406 H 0.99523 0.88692 0.77792 0.0
H407 H 0.95905 0.82833 0.77605 0.0
C408 C 0.13981 0.91053 0.12556 0.0
C409 C 0.15153 0.89187 0.12851 0.0
C410 C 0.13696 0.92562 0.1457 0.0
C411 C 0.13524 0.93342 0.21384 0.0
H412 H 0.14274 0.99227 0.20168 0.0
C413 C 0.12804 0.02395 0.26573 0.0
C414 C 0.10703 0.02264 0.27625 0.0
C415 C 0.13695 0.00666 0.25146 0.0
C416 C 0.14091 0.97593 0.20559 0.0
H417 H 0.16907 0.87426 0.15517 0.0
H418 H 0.16389 0.90077 0.1906 0.0
H419 H 0.15168 0.96479 0.16898 0.0
H420 H 0.07967 0.00161 0.28166 0.0
H421 H 0.09503 0.97155 0.25631 0.0
H422 H 0.12406 0.94469 0.25039 0.0
C423 C 0.15702 0.90362 0.17255 0.0
C424 C 0.14579 0.96019 0.18673 0.0
C425 C 0.16005 0.88852 0.15226 0.0
C426 C 0.09576 0.00322 0.27349 0.0
C427 C 0.10467 0.98592 0.25919 0.0
C428 C 0.13022 0.94923 0.23275 0.0
C429 C 0.14562 0.92241 0.16936 0.0
C430 C 0.14258 0.9388 0.19044 0.0
C431 C 0.12505 0.98768 0.24734 0.0
C432 C 0.13267 0.97068 0.22866 0.0
H433 H 0.13293 0.91362 0.10759 0.0
H434 H 0.12777 0.93978 0.14277 0.0
H435 H 0.13256 0.91705 0.21718 0.0
H436 H 0.13713 0.03869 0.26734 0.0
H437 H 0.15284 0.00841 0.24287 0.0
C438 C 0.61448 0.68596 0.58939 0.0
C439 C 0.62919 0.66981 0.58141 0.0
C440 C 0.60561 0.68697 0.61342 0.0
C441 C 0.595 0.65197 0.66372 0.0
H442 H 0.57484 0.70385 0.69967 0.0
C443 C 0.54875 0.65029 0.75597 0.0
C444 C 0.52807 0.66011 0.75583 0.0
C445 C 0.56452 0.65427 0.73816 0.0
C446 C 0.58048 0.68927 0.68985 0.0
H447 H 0.64742 0.643 0.5928 0.0
H448 H 0.63278 0.64528 0.63506 0.0
H449 H 0.59693 0.70548 0.66198 0.0
H450 H 0.50836 0.6829 0.73782 0.0
H451 H 0.53607 0.69008 0.70704 0.0
H452 H 0.5785 0.6358 0.69148 0.0
C453 C 0.62732 0.65669 0.62253 0.0
C454 C 0.59302 0.69016 0.66819 0.0
C455 C 0.63586 0.65545 0.59836 0.0
C456 C 0.52416 0.67519 0.73864 0.0
C457 C 0.54003 0.67929 0.72094 0.0
C458 C 0.58276 0.65112 0.68549 0.0
C459 C 0.61155 0.67205 0.63015 0.0
C460 C 0.60012 0.67148 0.65458 0.0
C461 C 0.56005 0.66831 0.72 0.0
C462 C 0.57506 0.66971 0.69855 0.0
H463 H 0.60895 0.6972 0.57666 0.0
H464 H 0.59334 0.69888 0.61841 0.0
H465 H 0.59966 0.63722 0.65357 0.0
H466 H 0.55249 0.63894 0.7693 0.0
H467 H 0.57997 0.64583 0.73809 0.0
C468 C 0.82758 0.08254 0.04254 0.0
C469 C 0.81508 0.09985 0.03605 0.0
C470 C 0.81756 0.0655 0.05267 0.0
C471 C 0.76826 0.04861 0.08507 0.0
H472 H 0.78746 0.99284 0.05919 0.0
C473 C 0.75129 0.9723 0.13378 0.0
C474 C 0.74779 0.95339 0.11862 0.0
C475 C 0.75633 0.99102 0.12308 0.0
C476 C 0.78167 0.00826 0.06643 0.0
H477 H 0.78223 0.11305 0.036 0.0
H478 H 0.76468 0.0831 0.05378 0.0
H479 H 0.80262 0.02387 0.04202 0.0
H480 H 0.7453 0.93965 0.08031 0.0
H481 H 0.754 0.97228 0.06164 0.0
H482 H 0.74729 0.03284 0.10955 0.0
C483 C 0.78229 0.08284 0.05096 0.0
C484 C 0.79059 0.02607 0.0568 0.0
C485 C 0.79234 0.09995 0.04071 0.0
C486 C 0.74832 0.95387 0.09251 0.0
C487 C 0.75332 0.97256 0.08182 0.0
C488 C 0.75937 0.03072 0.09482 0.0
C489 C 0.79477 0.06527 0.05666 0.0
C490 C 0.78422 0.04646 0.0662 0.0
C491 C 0.75796 0.99123 0.09699 0.0
C492 C 0.76612 0.01033 0.08573 0.0
H493 H 0.84516 0.08197 0.03948 0.0
H494 H 0.82771 0.05241 0.05735 0.0
H495 H 0.76308 0.06411 0.09275 0.0
H496 H 0.75123 0.97243 0.15396 0.0
H497 H 0.76 0.00506 0.13531 0.0
C498 C 0.43148 0.34541 0.58828 0.0
C499 C 0.41476 0.33051 0.5911 0.0
C500 C 0.45313 0.34123 0.59469 0.0
C501 C 0.48894 0.3104 0.63206 0.0
H502 H 0.53213 0.32369 0.58288 0.0
C503 C 0.58921 0.3111 0.61278 0.0
C504 C 0.59637 0.32163 0.63549 0.0
C505 C 0.56685 0.30726 0.60829 0.0
C506 C 0.52034 0.31953 0.59669 0.0
H507 H 0.40763 0.29984 0.60407 0.0
H508 H 0.44584 0.29258 0.61555 0.0
H509 H 0.49324 0.32679 0.57348 0.0
H510 H 0.58579 0.33534 0.67182 0.0
H511 H 0.54677 0.32878 0.66393 0.0
H512 H 0.51626 0.30356 0.65549 0.0
C513 C 0.44195 0.30746 0.60815 0.0
C514 C 0.49804 0.32155 0.59139 0.0
C515 C 0.42013 0.3116 0.60155 0.0
C516 C 0.58082 0.32705 0.6542 0.0
C517 C 0.55843 0.32326 0.64968 0.0
C518 C 0.51138 0.30848 0.63747 0.0
C519 C 0.4587 0.32207 0.60421 0.0
C520 C 0.48212 0.31749 0.60919 0.0
C521 C 0.55115 0.31393 0.62637 0.0
C522 C 0.52733 0.31339 0.61996 0.0
H523 H 0.42798 0.36027 0.58061 0.0
H524 H 0.46562 0.35298 0.59196 0.0
H525 H 0.47699 0.30718 0.64612 0.0
H526 H 0.60085 0.30637 0.59818 0.0
H527 H 0.5618 0.29965 0.59032 0.0
C528 C 0.61763 0.60502 0.43833 0.0
C529 C 0.63987 0.60966 0.4436 0.0
C530 C 0.61175 0.58971 0.41922 0.0
C531 C 0.63196 0.55816 0.36284 0.0
H532 H 0.58751 0.51835 0.3806 0.0
C533 C 0.61518 0.47757 0.30634 0.0
C534 C 0.59338 0.47007 0.30499 0.0
C535 C 0.6205 0.49631 0.32077 0.0
C536 C 0.59967 0.5295 0.37511 0.0
H537 H 0.67334 0.60246 0.43212 0.0
H538 H 0.66302 0.57553 0.39884 0.0
H539 H 0.59746 0.54796 0.41019 0.0
H540 H 0.55999 0.47696 0.3171 0.0
H541 H 0.56913 0.50986 0.34139 0.0
H542 H 0.63426 0.53944 0.32776 0.0
C543 C 0.65015 0.58386 0.40947 0.0
C544 C 0.6054 0.54649 0.39212 0.0
C545 C 0.65607 0.59921 0.42863 0.0
C546 C 0.57691 0.48229 0.31746 0.0
C547 C 0.58221 0.50104 0.33173 0.0
C548 C 0.62616 0.54113 0.34572 0.0
C549 C 0.62794 0.57866 0.40489 0.0
C550 C 0.62162 0.561 0.38624 0.0
C551 C 0.60413 0.508 0.3341 0.0
C552 C 0.60995 0.52659 0.35169 0.0
H553 H 0.60469 0.61294 0.44926 0.0
H554 H 0.59447 0.58635 0.41584 0.0
H555 H 0.64439 0.56918 0.3577 0.0
H556 H 0.62823 0.46872 0.29668 0.0
H557 H 0.63756 0.50117 0.32224 0.0
C558 C 0.9333 0.15724 0.98763 0.0
C559 C 0.91624 0.17188 0.98563 0.0
C560 C 0.95469 0.16202 0.9808 0.0
C561 C 0.98776 0.19654 0.9439 0.0
H562 H 0.03473 0.17982 0.98712 0.0
C563 C 0.08002 0.21511 0.92755 0.0
C564 C 0.09457 0.19824 0.93006 0.0
C565 C 0.05804 0.21369 0.93483 0.0
C566 C 0.02181 0.18448 0.97478 0.0
H567 H 0.90826 0.20287 0.97416 0.0
H568 H 0.94584 0.21128 0.96232 0.0
H569 H 0.99666 0.174 0.99844 0.0
H570 H 0.09716 0.16643 0.94157 0.0
H571 H 0.05911 0.16408 0.95444 0.0
H572 H 0.0131 0.20685 0.92013 0.0
C573 C 0.94252 0.19605 0.96913 0.0
C574 C 1.0 0.18112 0.98124 0.0
C575 C 0.92102 0.19125 0.97598 0.0
C576 C 0.0866 0.17994 0.93994 0.0
C577 C 0.06474 0.17856 0.94728 0.0
C578 C 0.00967 0.19994 0.93743 0.0
C579 C 0.95964 0.18158 0.97182 0.0
C580 C 0.98271 0.18672 0.96566 0.0
C581 C 0.0502 0.1954 0.94486 0.0
C582 C 0.02693 0.19357 0.95259 0.0
H583 H 0.93021 0.14206 0.99471 0.0
H584 H 0.96738 0.15032 0.98257 0.0
H585 H 0.97482 0.20093 0.93145 0.0
H586 H 0.08567 0.22949 0.92019 0.0
H587 H 0.04726 0.22698 0.93291 0.0
C588 C 0.32681 0.4158 0.52795 0.0
C589 C 0.31384 0.3988 0.53445 0.0
C590 C 0.31738 0.43259 0.51679 0.0
C591 C 0.27076 0.44967 0.48059 0.0
H592 H 0.28959 0.50517 0.50863 0.0
C593 C 0.24058 0.52932 0.44491 0.0
C594 C 0.25725 0.54444 0.44279 0.0
C595 C 0.24498 0.5107 0.45626 0.0
C596 C 0.28424 0.4898 0.50049 0.0
H597 H 0.28082 0.38571 0.53323 0.0
H598 H 0.26428 0.41534 0.51342 0.0
H599 H 0.3017 0.47396 0.52794 0.0
H600 H 0.29184 0.55126 0.44945 0.0
H601 H 0.29944 0.51908 0.4691 0.0
H602 H 0.25367 0.46572 0.4527 0.0
C603 C 0.28178 0.41552 0.51721 0.0
C604 C 0.29115 0.47192 0.51158 0.0
C605 C 0.29126 0.39863 0.52858 0.0
C606 C 0.27848 0.54024 0.45144 0.0
C607 C 0.28285 0.52177 0.46271 0.0
C608 C 0.26384 0.46768 0.46937 0.0
C609 C 0.29474 0.43286 0.51172 0.0
C610 C 0.285 0.45165 0.50138 0.0
C611 C 0.26611 0.50694 0.46565 0.0
C612 C 0.27104 0.48788 0.47884 0.0
H613 H 0.34429 0.41639 0.53185 0.0
H614 H 0.32787 0.44552 0.51227 0.0
H615 H 0.26578 0.43422 0.47236 0.0
H616 H 0.22406 0.53214 0.43838 0.0
H617 H 0.23176 0.49954 0.45827 0.0
C618 C 0.11631 0.84493 0.98087 0.0
C619 C 0.12647 0.82796 0.99143 0.0
C620 C 0.10845 0.84267 0.95637 0.0
C621 C 0.08708 0.80342 0.90893 0.0
H622 H 0.09091 0.85031 0.86751 0.0
C623 C 0.02147 0.82107 0.8365 0.0
C624 C 0.02743 0.83163 0.81561 0.0
C625 C 0.03731 0.81615 0.85399 0.0
C626 C 0.08999 0.83683 0.87849 0.0
H627 H 0.1368 0.79536 0.9843 0.0
H628 H 0.12273 0.79133 0.94122 0.0
H629 H 0.11279 0.85082 0.90557 0.0
H630 H 0.05489 0.84369 0.79557 0.0
H631 H 0.08264 0.83492 0.82602 0.0
H632 H 0.06384 0.78966 0.88207 0.0
C633 C 0.1209 0.80639 0.9521 0.0
C634 C 0.10236 0.83726 0.90048 0.0
C635 C 0.129 0.80872 0.97669 0.0
C636 C 0.04977 0.83587 0.81171 0.0
C637 C 0.06564 0.83087 0.82917 0.0
C638 C 0.07465 0.80298 0.88687 0.0
C639 C 0.11045 0.82335 0.94176 0.0
C640 C 0.10047 0.82093 0.91638 0.0
C641 C 0.05949 0.82161 0.85096 0.0
C642 C 0.07544 0.82002 0.87181 0.0
H643 H 0.11421 0.86001 0.99164 0.0
H644 H 0.10019 0.85594 0.94911 0.0
H645 H 0.08525 0.79062 0.92083 0.0
H646 H 0.00438 0.81779 0.84019 0.0
H647 H 0.03191 0.80927 0.87068 0.0
C648 C 0.87609 0.09865 0.93458 0.0
C649 C 0.85488 0.10428 0.943 0.0
C650 C 0.87892 0.08378 0.91406 0.0
C651 C 0.85079 0.0389 0.87976 0.0
H652 H 0.89454 0.04571 0.82885 0.0
C653 C 0.85949 0.97746 0.79523 0.0
C654 C 0.88097 0.9716 0.78811 0.0
C655 C 0.85582 0.99508 0.81213 0.0
C656 C 0.88238 0.04348 0.84303 0.0
H657 H 0.82003 0.09908 0.93596 0.0
H658 H 0.82502 0.07319 0.90029 0.0
H659 H 0.88928 0.07375 0.86236 0.0
H660 H 0.91536 0.98037 0.79234 0.0
H661 H 0.90902 0.01065 0.82238 0.0
H662 H 0.84418 0.00851 0.86096 0.0
C663 C 0.83944 0.08011 0.90971 0.0
C664 C 0.87936 0.05956 0.86221 0.0
C665 C 0.8366 0.09504 0.93011 0.0
C666 C 0.89862 0.98422 0.7977 0.0
C667 C 0.89496 0.00177 0.81471 0.0
C668 C 0.85388 0.0228 0.86072 0.0
C669 C 0.86062 0.07416 0.90161 0.0
C670 C 0.86357 0.05741 0.88082 0.0
C671 C 0.87353 0.00722 0.82247 0.0
C672 C 0.86975 0.02483 0.84213 0.0
H673 H 0.89053 0.10552 0.944 0.0
H674 H 0.89545 0.07941 0.90837 0.0
H675 H 0.83874 0.03661 0.89406 0.0
H676 H 0.84549 0.96804 0.78843 0.0
H677 H 0.83906 0.99901 0.81735 0.0
C678 C 0.38761 0.31546 0.48626 0.0
C679 C 0.38074 0.33559 0.49612 0.0
C680 C 0.39815 0.31282 0.46313 0.0
C681 C 0.43127 0.34249 0.42114 0.0
H682 H 0.42005 0.29478 0.37261 0.0
C683 C 0.47378 0.33577 0.32562 0.0
C684 C 0.4819 0.31584 0.31667 0.0
C685 C 0.45977 0.33789 0.34616 0.0
C686 C 0.42352 0.30808 0.38608 0.0
H687 H 0.37889 0.36862 0.48886 0.0
H688 H 0.39722 0.36396 0.44855 0.0
H689 H 0.39842 0.29902 0.41093 0.0
H690 H 0.48092 0.2824 0.32196 0.0
H691 H 0.4569 0.28619 0.35829 0.0
H692 H 0.45658 0.35141 0.39672 0.0
C693 C 0.3947 0.35027 0.45889 0.0
C694 C 0.4111 0.31052 0.408 0.0
C695 C 0.38408 0.35291 0.48195 0.0
C696 C 0.47519 0.29801 0.3285 0.0
C697 C 0.46121 0.30016 0.34917 0.0
C698 C 0.44371 0.34002 0.39934 0.0
C699 C 0.40214 0.33026 0.44938 0.0
C700 C 0.41485 0.32777 0.42577 0.0
C701 C 0.45359 0.32019 0.35848 0.0
C702 C 0.44 0.3228 0.3815 0.0
H703 H 0.38523 0.30176 0.49662 0.0
H704 H 0.40382 0.29722 0.45641 0.0
H705 H 0.43487 0.35572 0.43467 0.0
H706 H 0.47879 0.34991 0.31726 0.0
H707 H 0.45395 0.35351 0.35256 0.0
C708 C 0.17912 0.89838 0.00835 0.0
C709 C 0.18587 0.89507 0.03276 0.0
C710 C 0.18677 0.91581 0.99679 0.0
C711 C 0.22787 0.95986 0.0023 0.0
H712 H 0.18346 0.9878 0.96506 0.0
C713 C 0.23174 0.04752 0.97958 0.0
C714 C 0.22399 0.05221 0.95597 0.0
C715 C 0.23046 0.02691 0.98676 0.0
C716 C 0.19617 0.98004 0.97507 0.0
H717 H 0.20658 0.90701 0.06386 0.0
H718 H 0.21938 0.93782 0.04405 0.0
H719 H 0.17484 0.95446 0.98163 0.0
H720 H 0.20962 0.03878 0.92104 0.0
H721 H 0.20753 0.00288 0.93353 0.0
H722 H 0.24885 0.98618 0.99645 0.0
C723 C 0.20854 0.92674 0.03356 0.0
C724 C 0.19126 0.96084 0.98454 0.0
C725 C 0.20112 0.90911 0.04499 0.0
C726 C 0.21591 0.03568 0.93928 0.0
C727 C 0.2145 0.01515 0.94651 0.0
C728 C 0.23271 0.97925 0.993 0.0
C729 C 0.20109 0.93056 0.0095 0.0
C730 C 0.20699 0.95049 0.99837 0.0
C731 C 0.22124 0.01065 0.97054 0.0
C732 C 0.21686 0.98955 0.97936 0.0
H733 H 0.16761 0.88766 0.9983 0.0
H734 H 0.18112 0.91789 0.978 0.0
H735 H 0.24049 0.95224 0.01258 0.0
H736 H 0.23822 0.0599 0.99276 0.0
H737 H 0.2357 0.02392 0.00544 0.0
C738 C 0.57938 0.68571 0.47013 0.0
C739 C 0.58556 0.6787 0.49322 0.0
C740 C 0.55708 0.68841 0.46443 0.0
C741 C 0.5025 0.67013 0.48465 0.0
H742 H 0.47938 0.71175 0.44281 0.0
C743 C 0.41028 0.68075 0.47364 0.0
C744 C 0.40253 0.67783 0.44886 0.0
C745 C 0.43255 0.68439 0.47866 0.0
C746 C 0.48571 0.70006 0.4545 0.0
H747 H 0.57381 0.67064 0.52918 0.0
H748 H 0.53532 0.67636 0.51993 0.0
H749 H 0.51882 0.71155 0.45276 0.0
H750 H 0.41193 0.67796 0.40995 0.0
H751 H 0.45094 0.68471 0.41886 0.0
H752 H 0.46951 0.65888 0.48677 0.0
C753 C 0.54729 0.6788 0.50562 0.0
C754 C 0.50826 0.69986 0.46011 0.0
C755 C 0.56938 0.67568 0.51104 0.0
C756 C 0.41734 0.68022 0.42925 0.0
C757 C 0.43967 0.68406 0.43431 0.0
C758 C 0.48009 0.67057 0.4794 0.0
C759 C 0.54073 0.68446 0.48195 0.0
C760 C 0.5169 0.68495 0.47544 0.0
C761 C 0.44754 0.68542 0.45903 0.0
C762 C 0.47143 0.68557 0.46441 0.0
H763 H 0.59165 0.68812 0.45612 0.0
H764 H 0.55265 0.69272 0.446 0.0
H765 H 0.50854 0.65794 0.49578 0.0
H766 H 0.39924 0.67953 0.4892 0.0
H767 H 0.43819 0.68572 0.49791 0.0
C768 C 0.3711 0.40227 0.64029 0.0
C769 C 0.35026 0.39643 0.63047 0.0
C770 C 0.37313 0.41733 0.66077 0.0
C771 C 0.34406 0.46248 0.69222 0.0
H772 H 0.38577 0.45655 0.74603 0.0
C773 C 0.35172 0.52613 0.77489 0.0
C774 C 0.37317 0.53187 0.78271 0.0
C775 C 0.34799 0.50807 0.75861 0.0
C776 C 0.37417 0.45853 0.73104 0.0
H777 H 0.31518 0.40149 0.63497 0.0
H778 H 0.31878 0.42778 0.67061 0.0
H779 H 0.38124 0.42789 0.71301 0.0
H780 H 0.4074 0.52243 0.78052 0.0
H781 H 0.401 0.49139 0.75156 0.0
H782 H 0.33736 0.49326 0.70969 0.0
C783 C 0.33354 0.42082 0.6623 0.0
C784 C 0.37156 0.44209 0.71216 0.0
C785 C 0.3315 0.40568 0.64194 0.0
C786 C 0.3907 0.51868 0.77455 0.0
C787 C 0.38699 0.50069 0.75818 0.0
C788 C 0.34675 0.47894 0.71098 0.0
C789 C 0.35438 0.42696 0.67179 0.0
C790 C 0.35657 0.44395 0.69247 0.0
C791 C 0.36563 0.49535 0.74967 0.0
C792 C 0.36194 0.47725 0.73055 0.0
H793 H 0.3859 0.39539 0.63198 0.0
H794 H 0.38942 0.42187 0.66753 0.0
H795 H 0.33262 0.46452 0.67709 0.0
H796 H 0.33784 0.53597 0.78064 0.0
H797 H 0.33128 0.50424 0.75277 0.0
C798 C 0.07811 0.84181 0.10653 0.0
C799 C 0.08664 0.82858 0.08665 0.0
C800 C 0.05631 0.83972 0.1139 0.0
C801 C 0.00672 0.80478 0.10582 0.0
H802 H 0.9765 0.85734 0.12478 0.0
C803 C 0.91166 0.81556 0.10904 0.0
C804 C 0.9034 0.82764 0.13008 0.0
C805 C 0.93435 0.81338 0.10561 0.0
C806 C 0.98477 0.84251 0.11978 0.0
H807 H 0.07924 0.80239 0.05927 0.0
H808 H 0.0409 0.79924 0.07139 0.0
H809 H 0.01541 0.85798 0.11517 0.0
H810 H 0.91235 0.84653 0.16424 0.0
H811 H 0.95192 0.84285 0.15811 0.0
H812 H 0.97548 0.78956 0.10947 0.0
C813 C 0.05115 0.81091 0.0818 0.0
C814 C 0.00716 0.84282 0.11438 0.0
C815 C 0.07312 0.81276 0.07474 0.0
C816 C 0.91823 0.83696 0.14796 0.0
C817 C 0.94085 0.83501 0.14437 0.0
C818 C 0.98417 0.80452 0.11087 0.0
C819 C 0.04234 0.82462 0.10121 0.0
C820 C 0.0185 0.82397 0.10741 0.0
C821 C 0.94913 0.8235 0.12297 0.0
C822 C 0.97304 0.8234 0.11798 0.0
H823 H 0.08826 0.85395 0.11629 0.0
H824 H 0.05037 0.85016 0.12939 0.0
H825 H 0.0149 0.78992 0.10083 0.0
H826 H 0.90058 0.80813 0.09504 0.0
H827 H 0.94033 0.8045 0.08889 0.0
C828 C 0.71037 0.60255 0.5365 0.0
C829 C 0.68754 0.60313 0.53217 0.0
C830 C 0.71996 0.58512 0.54669 0.0
C831 C 0.70944 0.52871 0.55261 0.0
H832 H 0.74915 0.53406 0.60957 0.0
C833 C 0.72181 0.4608 0.61381 0.0
C834 C 0.7431 0.45613 0.62194 0.0
C835 C 0.71776 0.47905 0.60193 0.0
C836 C 0.73836 0.53231 0.59341 0.0
H837 H 0.65692 0.58602 0.53591 0.0
H838 H 0.67354 0.55601 0.5534 0.0
H839 H 0.73738 0.56577 0.59018 0.0
H840 H 0.77679 0.46736 0.62446 0.0
H841 H 0.76962 0.49956 0.60366 0.0
H842 H 0.70997 0.49547 0.55591 0.0
C843 C 0.6841 0.5688 0.54864 0.0
C844 C 0.73163 0.55045 0.58233 0.0
C845 C 0.67456 0.58613 0.5387 0.0
C846 C 0.76019 0.47053 0.61846 0.0
C847 C 0.7561 0.48894 0.60655 0.0
C848 C 0.71614 0.51069 0.56358 0.0
C849 C 0.7069 0.56792 0.55247 0.0
C850 C 0.71659 0.54884 0.56227 0.0
C851 C 0.73486 0.49323 0.59787 0.0
C852 C 0.73015 0.5123 0.58456 0.0
H853 H 0.72082 0.61543 0.53179 0.0
H854 H 0.73759 0.58486 0.54951 0.0
H855 H 0.69822 0.52693 0.53681 0.0
H856 H 0.70812 0.45039 0.6168 0.0
H857 H 0.70109 0.48215 0.59609 0.0
C858 C 0.87822 0.14847 0.09591 0.0
C859 C 0.88036 0.16447 0.07959 0.0
C860 C 0.88787 0.15071 0.11969 0.0
C861 C 0.91404 0.19005 0.16658 0.0
H862 H 0.94199 0.14025 0.18903 0.0
C863 C 0.98088 0.19198 0.24429 0.0
C864 C 0.98013 0.1761 0.26097 0.0
C865 C 0.96613 0.19171 0.22417 0.0
C866 C 0.93402 0.15425 0.18321 0.0
H867 H 0.89394 0.19562 0.07573 0.0
H868 H 0.91128 0.19926 0.11682 0.0
H869 H 0.92119 0.13746 0.15008 0.0
H870 H 0.96228 0.14831 0.27045 0.0
H871 H 0.93682 0.1477 0.23514 0.0
H872 H 0.92769 0.20691 0.19947 0.0
C873 C 0.90177 0.18514 0.11153 0.0
C874 C 0.92201 0.15266 0.16087 0.0
C875 C 0.89191 0.18299 0.08785 0.0
C876 C 0.96365 0.16051 0.25766 0.0
C877 C 0.94903 0.16017 0.23747 0.0
C878 C 0.92626 0.19167 0.18885 0.0
C879 C 0.90012 0.16891 0.12766 0.0
C880 C 0.91195 0.17055 0.15216 0.0
C881 C 0.9504 0.17551 0.22021 0.0
C882 C 0.93645 0.1738 0.19733 0.0
H883 H 0.86921 0.1341 0.09024 0.0
H884 H 0.88584 0.13806 0.13177 0.0
H885 H 0.90625 0.2041 0.1607 0.0
H886 H 0.99349 0.20408 0.24607 0.0
H887 H 0.96769 0.20365 0.21106 0.0
C888 C 0.15932 0.78265 0.13235 0.0
C889 C 0.17077 0.80141 0.12885 0.0
C890 C 0.16277 0.77225 0.15396 0.0
C891 C 0.18218 0.78043 0.21893 0.0
H892 H 0.19986 0.72168 0.21086 0.0
C893 C 0.23116 0.74209 0.29427 0.0
C894 C 0.22866 0.72044 0.29704 0.0
C895 C 0.22 0.75146 0.27537 0.0
C896 C 0.19448 0.73794 0.21359 0.0
H897 H 0.19422 0.82433 0.14555 0.0
H898 H 0.19996 0.80633 0.18334 0.0
H899 H 0.18758 0.73908 0.17453 0.0
H900 H 0.21171 0.69181 0.28269 0.0
H901 H 0.19168 0.70833 0.25004 0.0
H902 H 0.18913 0.77946 0.25787 0.0
C903 C 0.18844 0.79962 0.16934 0.0
C904 C 0.18752 0.74791 0.19273 0.0
C905 C 0.18529 0.80981 0.14762 0.0
C906 C 0.21396 0.70855 0.28111 0.0
C907 C 0.20267 0.71797 0.26222 0.0
C908 C 0.18888 0.77042 0.23982 0.0
C909 C 0.17737 0.78066 0.17264 0.0
C910 C 0.18189 0.76939 0.19512 0.0
C911 C 0.20586 0.73948 0.25884 0.0
C912 C 0.19574 0.74922 0.23732 0.0
H913 H 0.14802 0.77581 0.11821 0.0
H914 H 0.154 0.75766 0.15611 0.0
H915 H 0.1776 0.79694 0.2213 0.0
H916 H 0.24205 0.7518 0.3065 0.0
H917 H 0.22312 0.76799 0.27323 0.0
C918 C 0.73304 0.69656 0.52478 0.0
C919 C 0.71245 0.69536 0.53631 0.0
C920 C 0.75056 0.70724 0.53737 0.0
C921 C 0.7619 0.74699 0.59097 0.0
H922 H 0.82165 0.72627 0.58449 0.0
C923 C 0.83145 0.77651 0.6583 0.0
C924 C 0.8516 0.78161 0.64767 0.0
C925 C 0.81488 0.76646 0.64358 0.0
C926 C 0.80506 0.73233 0.58626 0.0
H927 H 0.69435 0.70369 0.57042 0.0
H928 H 0.7249 0.72165 0.59253 0.0
H929 H 0.79202 0.70734 0.5611 0.0
H930 H 0.87032 0.78003 0.61335 0.0
H931 H 0.84129 0.7622 0.58753 0.0
H932 H 0.77489 0.77163 0.61665 0.0
C933 C 0.72743 0.71502 0.5735 0.0
C934 C 0.78808 0.72153 0.57283 0.0
C935 C 0.70992 0.70458 0.56087 0.0
C936 C 0.85488 0.77639 0.62199 0.0
C937 C 0.83837 0.76607 0.60728 0.0
C938 C 0.7788 0.75761 0.60456 0.0
C939 C 0.74791 0.71676 0.56183 0.0
C940 C 0.76623 0.72861 0.57522 0.0
C941 C 0.81818 0.76109 0.61794 0.0
C942 C 0.80051 0.7503 0.60252 0.0
H943 H 0.73549 0.68967 0.50584 0.0
H944 H 0.76602 0.70842 0.52771 0.0
H945 H 0.74539 0.75324 0.59282 0.0
H946 H 0.8284 0.7805 0.678 0.0
H947 H 0.79955 0.76265 0.65232 0.0
C948 C 0.77149 0.18856 0.03497 0.0
C949 C 0.79362 0.19222 0.04181 0.0
C950 C 0.75462 0.19902 0.04855 0.0
C951 C 0.7426 0.22849 0.10955 0.0
H952 H 0.69408 0.25127 0.07335 0.0
C953 C 0.67016 0.27122 0.16089 0.0
C954 C 0.66329 0.29013 0.15154 0.0
C955 C 0.68453 0.25761 0.14717 0.0
C956 C 0.70755 0.24506 0.08374 0.0
H957 H 0.81529 0.20961 0.06853 0.0
H958 H 0.78593 0.22801 0.09194 0.0
H959 H 0.7226 0.23102 0.05043 0.0
H960 H 0.66538 0.3091 0.11995 0.0
H961 H 0.69073 0.28561 0.09627 0.0
H962 H 0.72798 0.24313 0.14278 0.0
C963 C 0.78159 0.21685 0.07627 0.0
C964 C 0.72377 0.23325 0.07062 0.0
C965 C 0.79844 0.20639 0.06272 0.0
C966 C 0.67059 0.29479 0.12784 0.0
C967 C 0.68493 0.28119 0.11412 0.0
C968 C 0.72639 0.2403 0.12267 0.0
C969 C 0.75947 0.21337 0.0693 0.0
C970 C 0.74162 0.22501 0.08335 0.0
C971 C 0.69231 0.26257 0.12377 0.0
C972 C 0.70878 0.24891 0.1099 0.0
H973 H 0.76715 0.17765 0.01906 0.0
H974 H 0.73775 0.19577 0.04287 0.0
H975 H 0.75597 0.22215 0.11997 0.0
H976 H 0.66498 0.26723 0.17916 0.0
H977 H 0.68968 0.24327 0.155 0.0
C978 C 0.33009 0.28519 0.62962 0.0
C979 C 0.32605 0.307 0.63019 0.0
C980 C 0.32568 0.27418 0.65049 0.0
C981 C 0.29255 0.2775 0.7081 0.0
H982 H 0.33156 0.23341 0.72713 0.0
C983 C 0.27952 0.23608 0.79826 0.0
C984 C 0.28179 0.21399 0.79631 0.0
C985 C 0.28607 0.2478 0.77873 0.0
C986 C 0.32042 0.24556 0.72192 0.0
H987 H 0.31466 0.33441 0.65344 0.0
H988 H 0.30721 0.31527 0.68983 0.0
H989 H 0.34087 0.25318 0.69164 0.0
H990 H 0.29286 0.18693 0.77228 0.0
H991 H 0.30434 0.20739 0.73825 0.0
H992 H 0.27206 0.26984 0.73828 0.0
C993 C 0.31343 0.3066 0.6731 0.0
C994 C 0.32574 0.25688 0.70158 0.0
C995 C 0.3178 0.31759 0.65225 0.0
C996 C 0.29116 0.20394 0.77455 0.0
C997 C 0.29773 0.21567 0.75502 0.0
C998 C 0.28726 0.26621 0.72845 0.0
C999 C 0.31717 0.28474 0.67243 0.0
C1000 C 0.31182 0.27294 0.69437 0.0
C1001 C 0.29507 0.23772 0.75679 0.0
C1002 C 0.30109 0.25006 0.73555 0.0
H1003 H 0.33644 0.27652 0.61295 0.0
H1004 H 0.32853 0.25731 0.64923 0.0
H1005 H 0.28128 0.28951 0.70281 0.0
H1006 H 0.27272 0.24435 0.81493 0.0
H1007 H 0.28414 0.2648 0.78084 0.0
C1008 C 0.67551 0.6875 0.41796 0.0
C1009 C 0.67112 0.69814 0.44147 0.0
C1010 C 0.67939 0.69879 0.39722 0.0
C1011 C 0.69887 0.75043 0.38073 0.0
H1012 H 0.6765 0.73136 0.31481 0.0
C1013 C 0.7199 0.79474 0.29464 0.0
C1014 C 0.72607 0.78202 0.27309 0.0
C1015 C 0.71008 0.78576 0.31472 0.0
C1016 C 0.68299 0.73682 0.33306 0.0
H1017 H 0.66686 0.72904 0.4614 0.0
H1018 H 0.67368 0.74873 0.42516 0.0
H1019 H 0.66527 0.71319 0.3509 0.0
H1020 H 0.72565 0.75006 0.25526 0.0
H1021 H 0.7091 0.73436 0.2904 0.0
H1022 H 0.71707 0.77367 0.36294 0.0
C1023 C 0.67428 0.73163 0.42288 0.0
C1024 C 0.67653 0.72642 0.35374 0.0
C1025 C 0.67028 0.72034 0.44362 0.0
C1026 C 0.7214 0.76026 0.27172 0.0
C1027 C 0.71165 0.7513 0.29179 0.0
C1028 C 0.7054 0.76078 0.36006 0.0
C1029 C 0.67907 0.72099 0.39949 0.0
C1030 C 0.68462 0.73294 0.37776 0.0
C1031 C 0.70622 0.76387 0.31373 0.0
C1032 C 0.69777 0.75394 0.33591 0.0
H1033 H 0.67621 0.67041 0.41559 0.0
H1034 H 0.68325 0.69013 0.37953 0.0
H1035 H 0.70562 0.75568 0.39894 0.0
H1036 H 0.72336 0.81152 0.29639 0.0
H1037 H 0.70582 0.79596 0.33119 0.0
C1038 C 0.82563 0.18283 0.92 0.0
C1039 C 0.82879 0.19364 0.94371 0.0
C1040 C 0.8212 0.19389 0.89918 0.0
C1041 C 0.82253 0.24759 0.87621 0.0
H1042 H 0.77954 0.22285 0.82865 0.0
C1043 C 0.77833 0.29318 0.80111 0.0
C1044 C 0.7749 0.28229 0.77745 0.0
C1045 C 0.78756 0.28289 0.82066 0.0
C1046 C 0.79178 0.22986 0.84158 0.0
H1047 H 0.83011 0.22463 0.96407 0.0
H1048 H 0.82172 0.24392 0.92789 0.0
H1049 H 0.79012 0.20394 0.86424 0.0
H1050 H 0.77998 0.25247 0.75535 0.0
H1051 H 0.79579 0.23451 0.78951 0.0
H1052 H 0.82354 0.27387 0.85368 0.0
C1053 C 0.82312 0.2269 0.92524 0.0
C1054 C 0.79792 0.21899 0.862 0.0
C1055 C 0.8278 0.21582 0.94604 0.0
C1056 C 0.78191 0.26119 0.77349 0.0
C1057 C 0.791 0.2509 0.79303 0.0
C1058 C 0.81621 0.25858 0.85584 0.0
C1059 C 0.81954 0.21605 0.90156 0.0
C1060 C 0.81339 0.22767 0.8796 0.0
C1061 C 0.79346 0.26148 0.81697 0.0
C1062 C 0.80079 0.2498 0.83829 0.0
H1063 H 0.82658 0.16575 0.91748 0.0
H1064 H 0.81905 0.18501 0.88118 0.0
H1065 H 0.83471 0.25466 0.88917 0.0
H1066 H 0.77294 0.30936 0.80488 0.0
H1067 H 0.78914 0.29141 0.83895 0.0
C1068 C 0.2996 0.29122 0.50981 0.0
C1069 C 0.29378 0.30557 0.53009 0.0
C1070 C 0.28344 0.28001 0.49556 0.0
C1071 C 0.22591 0.26185 0.49814 0.0
H1072 H 0.23271 0.25128 0.42638 0.0
C1073 C 0.16057 0.21658 0.43502 0.0
C1074 C 0.16886 0.20112 0.41723 0.0
C1075 C 0.1748 0.23092 0.44827 0.0
C1076 C 0.23064 0.25399 0.44643 0.0
H1077 H 0.26628 0.31962 0.55099 0.0
H1078 H 0.2381 0.30017 0.52595 0.0
H1079 H 0.25943 0.27342 0.45048 0.0
H1080 H 0.19845 0.18902 0.39886 0.0
H1081 H 0.2232 0.21377 0.42211 0.0
H1082 H 0.19721 0.24222 0.49406 0.0
C1083 C 0.2552 0.29739 0.52131 0.0
C1084 C 0.24597 0.26666 0.46024 0.0
C1085 C 0.27137 0.30861 0.53559 0.0
C1086 C 0.19158 0.20057 0.41267 0.0
C1087 C 0.20574 0.21492 0.42579 0.0
C1088 C 0.21054 0.2492 0.48429 0.0
C1089 C 0.26105 0.2829 0.50117 0.0
C1090 C 0.24397 0.2705 0.48631 0.0
C1091 C 0.19756 0.23019 0.44384 0.0
C1092 C 0.21291 0.24489 0.45833 0.0
H1093 H 0.31668 0.28846 0.50503 0.0
H1094 H 0.28855 0.26876 0.4804 0.0
H1095 H 0.22401 0.26429 0.51822 0.0
H1096 H 0.14316 0.21734 0.43904 0.0
H1097 H 0.16798 0.24261 0.46193 0.0
C1098 C 0.22995 0.81569 0.02471 0.0
C1099 C 0.21224 0.80423 0.0335 0.0
C1100 C 0.24707 0.80529 0.01155 0.0
C1101 C 0.26097 0.75446 0.97593 0.0
H1102 H 0.32093 0.77418 0.98685 0.0
C1103 C 0.3356 0.70754 0.9355 0.0
C1104 C 0.35173 0.71912 0.92384 0.0
C1105 C 0.31891 0.71788 0.94946 0.0
C1106 C 0.30425 0.7686 0.98348 0.0
H1107 H 0.19872 0.77278 0.03541 0.0
H1108 H 0.22877 0.75463 0.01296 0.0
H1109 H 0.29109 0.79222 0.01004 0.0
H1110 H 0.3629 0.75075 0.91792 0.0
H1111 H 0.33397 0.76876 0.94265 0.0
H1112 H 0.27423 0.7307 0.94957 0.0
C1113 C 0.22924 0.77171 0.0158 0.0
C1114 C 0.28712 0.77896 0.9967 0.0
C1115 C 0.21205 0.78212 0.02881 0.0
C1116 C 0.35097 0.74132 0.92693 0.0
C1117 C 0.33436 0.75166 0.94105 0.0
C1118 C 0.27811 0.74402 0.96286 0.0
C1119 C 0.24698 0.78316 0.00698 0.0
C1120 C 0.26525 0.77206 0.99304 0.0
C1121 C 0.31804 0.74004 0.95226 0.0
C1122 C 0.29992 0.751 0.96645 0.0
H1123 H 0.23054 0.83275 0.02784 0.0
H1124 H 0.26026 0.81465 0.00468 0.0
H1125 H 0.24432 0.74893 0.97229 0.0
H1126 H 0.3359 0.69044 0.93395 0.0
H1127 H 0.30675 0.70851 0.95822 0.0
loop_
_geom_bond_atom_site_label_1
_geom_bond_atom_site_label_2
_geom_bond_distance
_geom_bond_site_symmetry_2
_ccdc_geom_bond_type
Fe0 O2 1.918 . S
Fe0 O5 1.997 . S
Fe0 O6 2.002 . S
Fe0 O11 1.976 . S
Fe0 O14 1.996 . S
Fe1 O2 1.918 . S
Fe1 O9 1.997 . S
Fe1 O12 1.996 . S
Fe1 O16 1.976 . S
Fe1 O19 2.002 . S
O2 Fe0 1.918 . S
O2 Fe1 1.918 . S
O2 Fe3 1.918 . S
Fe3 O2 1.918 . S
Fe3 O4 2.002 . S
Fe3 O13 1.976 . S
Fe3 O17 1.996 . S
Fe3 O20 1.997 . S
O4 Fe3 2.002 . S
O4 C21 1.295 . S
O5 Fe0 1.997 . S
O5 C21 1.235 . S
O6 Fe0 2.002 . S
O6 C7 1.295 . S
C7 O6 1.295 . S
C7 O9 1.235 . S
C8 O13 1.287 . S
C8 O14 1.255 . S
O9 Fe1 1.997 . S
O9 C7 1.235 . S
C10 O16 1.287 . S
C10 O17 1.255 . S
O11 Fe0 1.976 . S
O11 C18 1.287 . S
O12 Fe1 1.996 . S
O12 C18 1.255 . S
O13 Fe3 1.976 . S
O13 C8 1.287 . S
O14 Fe0 1.996 . S
O14 C8 1.255 . S
C15 O19 1.295 . S
C15 O20 1.235 . S
O16 Fe1 1.976 . S
O16 C10 1.287 . S
O17 Fe3 1.996 . S
O17 C10 1.255 . S
C18 O11 1.287 . S
C18 O12 1.255 . S
O19 Fe1 2.002 . S
O19 C15 1.295 . S
O20 Fe3 1.997 . S
O20 C15 1.235 . S
C21 O4 1.295 . S
C21 O5 1.235 . S
Fe22 O24 1.918 . S
Fe22 O27 1.997 . S
Fe22 O28 2.002 . S
Fe22 O33 1.976 . S
Fe22 O36 1.996 . S
Fe23 O24 1.918 . S
Fe23 O31 1.997 . S
Fe23 O34 1.996 . S
Fe23 O38 1.976 . S
Fe23 O41 2.002 . S
O24 Fe22 1.918 . S
O24 Fe23 1.918 . S
O24 Fe25 1.918 . S
Fe25 O24 1.918 . S
Fe25 O26 2.002 . S
Fe25 O35 1.976 . S
Fe25 O39 1.996 . S
Fe25 O42 1.997 . S
O26 Fe25 2.002 . S
O26 C43 1.295 . S
O27 Fe22 1.997 . S
O27 C43 1.235 . S
O28 Fe22 2.002 . S
O28 C29 1.295 . S
C29 O28 1.295 . S
C29 O31 1.235 . S
C30 O35 1.287 . S
C30 O36 1.255 . S
O31 Fe23 1.997 . S
O31 C29 1.235 . S
C32 O38 1.287 . S
C32 O39 1.255 . S
O33 Fe22 1.976 . S
O33 C40 1.287 . S
O34 Fe23 1.996 . S
O34 C40 1.255 . S
O35 Fe25 1.976 . S
O35 C30 1.287 . S
O36 Fe22 1.996 . S
O36 C30 1.255 . S
C37 O41 1.295 . S
C37 O42 1.235 . S
O38 Fe23 1.976 . S
O38 C32 1.287 . S
O39 Fe25 1.996 . S
O39 C32 1.255 . S
C40 O33 1.287 . S
C40 O34 1.255 . S
O41 Fe23 2.002 . S
O41 C37 1.295 . S
O42 Fe25 1.997 . S
O42 C37 1.235 . S
C43 O26 1.295 . S
C43 O27 1.235 . S
Fe44 O46 1.918 . S
Fe44 O49 1.997 1_554 S
Fe44 O50 2.002 . S
Fe44 O55 1.976 . S
Fe44 O58 1.996 . S
Fe45 O46 1.918 . S
Fe45 O53 1.997 . S
Fe45 O56 1.996 . S
Fe45 O60 1.976 . S
Fe45 O63 2.002 1_554 S
O46 Fe44 1.918 . S
O46 Fe45 1.918 . S
O46 Fe47 1.918 1_554 S
Fe47 O46 1.918 1_556 S
Fe47 O48 2.002 . S
Fe47 O57 1.976 1_556 S
Fe47 O61 1.996 1_556 S
Fe47 O64 1.997 . S
O48 Fe47 2.002 . S
O48 C65 1.295 . S
O49 Fe44 1.997 1_556 S
O49 C65 1.235 . S
O50 Fe44 2.002 . S
O50 C51 1.295 1_554 S
C51 O50 1.295 1_556 S
C51 O53 1.235 1_556 S
C52 O57 1.287 . S
C52 O58 1.255 . S
O53 Fe45 1.997 . S
O53 C51 1.235 1_554 S
C54 O60 1.287 . S
C54 O61 1.255 . S
O55 Fe44 1.976 . S
O55 C62 1.287 . S
O56 Fe45 1.996 . S
O56 C62 1.255 . S
O57 Fe47 1.976 1_554 S
O57 C52 1.287 . S
O58 Fe44 1.996 . S
O58 C52 1.255 . S
C59 O63 1.295 . S
C59 O64 1.235 . S
O60 Fe45 1.976 . S
O60 C54 1.287 . S
O61 Fe47 1.996 1_554 S
O61 C54 1.255 . S
C62 O55 1.287 . S
C62 O56 1.255 . S
O63 Fe45 2.002 1_556 S
O63 C59 1.295 . S
O64 Fe47 1.997 . S
O64 C59 1.235 . S
C65 O48 1.295 . S
C65 O49 1.235 . S
Fe66 O68 1.918 . S
Fe66 O71 1.997 . S
Fe66 O72 2.002 . S
Fe66 O77 1.976 . S
Fe66 O80 1.996 . S
Fe67 O68 1.918 . S
Fe67 O75 1.997 . S
Fe67 O78 1.996 . S
Fe67 O82 1.976 . S
Fe67 O85 2.002 . S
O68 Fe66 1.918 . S
O68 Fe67 1.918 . S
O68 Fe69 1.918 . S
Fe69 O68 1.918 . S
Fe69 O70 2.002 . S
Fe69 O79 1.976 . S
Fe69 O83 1.996 . S
Fe69 O86 1.997 . S
O70 Fe69 2.002 . S
O70 C87 1.295 . S
O71 Fe66 1.997 . S
O71 C87 1.235 . S
O72 Fe66 2.002 . S
O72 C73 1.295 . S
C73 O72 1.295 . S
C73 O75 1.235 . S
C74 O79 1.287 . S
C74 O80 1.255 . S
O75 Fe67 1.997 . S
O75 C73 1.235 . S
C76 O82 1.287 . S
C76 O83 1.255 . S
O77 Fe66 1.976 . S
O77 C84 1.287 . S
O78 Fe67 1.996 . S
O78 C84 1.255 . S
O79 Fe69 1.976 . S
O79 C74 1.287 . S
O80 Fe66 1.996 . S
O80 C74 1.255 . S
C81 O85 1.295 . S
C81 O86 1.235 . S
O82 Fe67 1.976 . S
O82 C76 1.287 . S
O83 Fe69 1.996 . S
O83 C76 1.255 . S
C84 O77 1.287 . S
C84 O78 1.255 . S
O85 Fe67 2.002 . S
O85 C81 1.295 . S
O86 Fe69 1.997 . S
O86 C81 1.235 . S
C87 O70 1.295 . S
C87 O71 1.235 . S
C88 C89 1.264 . S
C88 C93 1.479 . S
C88 C98 1.465 . S
C89 C88 1.264 . S
C89 C91 1.339 1_455 S
C89 H116 0.931 . S
C90 C91 1.395 . S
C90 C92 1.320 . S
C91 C89 1.339 1_655 S
C91 C90 1.395 . S
C91 H117 0.929 . S
C92 C90 1.320 . S
C92 C93 1.405 1_655 S
C92 H118 0.930 . S
C93 C88 1.479 . S
C93 C92 1.405 1_455 S
C93 H119 0.931 . S
U94 O95 2.454 . S
U94 O96 2.458 . S
U94 C97 2.984 . S
U94 C98 2.847 . S
U94 C111 2.882 . S
U94 O112 2.441 . S
U94 O113 2.420 . S
U94 O114 2.455 . S
U94 O115 2.449 . S
O95 U94 2.454 . S
O95 C97 1.353 . S
O96 U94 2.458 . S
O96 C97 1.286 . S
C97 U94 2.984 . S
C97 O95 1.353 . S
C97 O96 1.286 . S
C97 C99 1.363 . S
C98 C88 1.465 . S
C98 U94 2.847 . S
C98 O112 1.249 . S
C98 O113 1.202 . S
C99 C97 1.363 . S
C99 C101 1.408 . S
C99 C104 1.342 . S
C100 C101 1.310 . S
C100 C103 1.461 . S
C100 H120 0.932 . S
C101 C99 1.408 . S
C101 C100 1.310 . S
C101 H121 0.930 . S
C102 C103 1.474 . S
C102 C104 1.285 . S
C102 H122 0.929 . S
C103 C100 1.461 . S
C103 C102 1.474 . S
C104 C99 1.342 . S
C104 C102 1.285 . S
C104 H123 0.930 . S
C105 C108 1.424 . S
C105 C110 1.245 . S
C105 C111 1.428 . S
C106 C109 1.260 . S
C106 C110 1.477 . S
C106 H124 0.932 . S
C107 C108 1.384 . S
C107 C109 1.479 . S
C107 H125 0.929 . S
C108 C105 1.424 . S
C108 C107 1.384 . S
C108 H126 0.928 . S
C109 C106 1.260 . S
C109 C107 1.479 . S
C110 C105 1.245 . S
C110 C106 1.477 . S
C110 H127 0.932 . S
C111 U94 2.882 . S
C111 C105 1.428 . S
C111 O114 1.301 . S
C111 O115 1.282 . S
O112 U94 2.441 . S
O112 C98 1.249 . S
O113 U94 2.420 . S
O113 C98 1.202 . S
O114 U94 2.455 . S
O114 C111 1.301 . S
O115 U94 2.449 . S
O115 C111 1.282 . S
H116 C89 0.931 . S
H117 C91 0.929 . S
H118 C92 0.930 . S
H119 C93 0.931 . S
H120 C100 0.932 . S
H121 C101 0.930 . S
H122 C102 0.929 . S
H123 C104 0.930 . S
H124 C106 0.932 . S
H125 C107 0.929 . S
H126 C108 0.928 . S
H127 C110 0.932 . S
C128 C129 1.264 . S
C128 C133 1.479 . S
C128 C138 1.465 . S
C129 C128 1.264 . S
C129 C131 1.339 . S
C129 H156 0.931 . S
C130 C131 1.395 . S
C130 C132 1.320 . S
C131 C129 1.339 . S
C131 C130 1.395 . S
C131 H157 0.929 . S
C132 C130 1.320 . S
C132 C133 1.405 . S
C132 H158 0.930 . S
C133 C128 1.479 . S
C133 C132 1.405 . S
C133 H159 0.931 . S
U134 O135 2.454 . S
U134 O136 2.458 . S
U134 C137 2.984 . S
U134 C138 2.847 . S
U134 C151 2.882 . S
U134 O152 2.441 . S
U134 O153 2.420 . S
U134 O154 2.455 . S
U134 O155 2.449 . S
O135 U134 2.454 . S
O135 C137 1.353 . S
O136 U134 2.458 . S
O136 C137 1.286 . S
C137 U134 2.984 . S
C137 O135 1.353 . S
C137 O136 1.286 . S
C137 C139 1.363 . S
C138 C128 1.465 . S
C138 U134 2.847 . S
C138 O152 1.249 . S
C138 O153 1.202 . S
C139 C137 1.363 . S
C139 C141 1.408 . S
C139 C144 1.342 . S
C140 C141 1.310 . S
C140 C143 1.461 . S
C140 H160 0.932 . S
C141 C139 1.408 . S
C141 C140 1.310 . S
C141 H161 0.930 . S
C142 C143 1.474 . S
C142 C144 1.285 . S
C142 H162 0.929 . S
C143 C140 1.461 . S
C143 C142 1.474 . S
C144 C139 1.342 . S
C144 C142 1.285 . S
C144 H163 0.930 . S
C145 C148 1.424 . S
C145 C150 1.245 . S
C145 C151 1.428 . S
C146 C149 1.260 . S
C146 C150 1.477 . S
C146 H164 0.932 . S
C147 C148 1.384 . S
C147 C149 1.479 . S
C147 H165 0.929 . S
C148 C145 1.424 . S
C148 C147 1.384 . S
C148 H166 0.928 . S
C149 C146 1.260 . S
C149 C147 1.479 . S
C150 C145 1.245 . S
C150 C146 1.477 . S
C150 H167 0.932 . S
C151 U134 2.882 . S
C151 C145 1.428 . S
C151 O154 1.301 . S
C151 O155 1.282 . S
O152 U134 2.441 . S
O152 C138 1.249 . S
O153 U134 2.420 . S
O153 C138 1.202 . S
O154 U134 2.455 . S
O154 C151 1.301 . S
O155 U134 2.449 . S
O155 C151 1.282 . S
H156 C129 0.931 . S
H157 C131 0.929 . S
H158 C132 0.930 . S
H159 C133 0.931 . S
H160 C140 0.932 . S
H161 C141 0.930 . S
H162 C142 0.929 . S
H163 C144 0.930 . S
H164 C146 0.932 . S
H165 C147 0.929 . S
H166 C148 0.928 . S
H167 C150 0.932 . S
C168 C169 1.264 . S
C168 C173 1.479 . S
C168 C178 1.465 . S
C169 C168 1.264 . S
C169 C171 1.339 . S
C169 H196 0.931 . S
C170 C171 1.395 . S
C170 C172 1.320 . S
C171 C169 1.339 . S
C171 C170 1.395 . S
C171 H197 0.929 . S
C172 C170 1.320 . S
C172 C173 1.405 . S
C172 H198 0.930 . S
C173 C168 1.479 . S
C173 C172 1.405 . S
C173 H199 0.931 . S
U174 O175 2.454 . S
U174 O176 2.458 . S
U174 C177 2.984 . S
U174 C178 2.847 . S
U174 C191 2.882 . S
U174 O192 2.441 . S
U174 O193 2.420 . S
U174 O194 2.455 . S
U174 O195 2.449 . S
O175 U174 2.454 . S
O175 C177 1.353 . S
O176 U174 2.458 . S
O176 C177 1.286 . S
C177 U174 2.984 . S
C177 O175 1.353 . S
C177 O176 1.286 . S
C177 C179 1.363 . S
C178 C168 1.465 . S
C178 U174 2.847 . S
C178 O192 1.249 . S
C178 O193 1.202 . S
C179 C177 1.363 . S
C179 C181 1.408 . S
C179 C184 1.342 . S
C180 C181 1.310 . S
C180 C183 1.461 . S
C180 H200 0.932 . S
C181 C179 1.408 . S
C181 C180 1.310 . S
C181 H201 0.930 . S
C182 C183 1.474 . S
C182 C184 1.285 . S
C182 H202 0.929 . S
C183 C180 1.461 . S
C183 C182 1.474 . S
C184 C179 1.342 . S
C184 C182 1.285 . S
C184 H203 0.930 . S
C185 C188 1.424 . S
C185 C190 1.245 . S
C185 C191 1.428 . S
C186 C189 1.260 . S
C186 C190 1.477 . S
C186 H204 0.932 . S
C187 C188 1.384 . S
C187 C189 1.479 . S
C187 H205 0.929 . S
C188 C185 1.424 . S
C188 C187 1.384 . S
C188 H206 0.928 . S
C189 C186 1.260 . S
C189 C187 1.479 . S
C190 C185 1.245 . S
C190 C186 1.477 . S
C190 H207 0.932 . S
C191 U174 2.882 . S
C191 C185 1.428 . S
C191 O194 1.301 . S
C191 O195 1.282 . S
O192 U174 2.441 . S
O192 C178 1.249 . S
O193 U174 2.420 . S
O193 C178 1.202 . S
O194 U174 2.455 . S
O194 C191 1.301 . S
O195 U174 2.449 . S
O195 C191 1.282 . S
H196 C169 0.931 . S
H197 C171 0.929 . S
H198 C172 0.930 . S
H199 C173 0.931 . S
H200 C180 0.932 . S
H201 C181 0.930 . S
H202 C182 0.929 . S
H203 C184 0.930 . S
H204 C186 0.932 . S
H205 C187 0.929 . S
H206 C188 0.928 . S
H207 C190 0.932 . S
C208 C209 1.264 . S
C208 C213 1.479 . S
C208 C218 1.465 . S
C209 C208 1.264 . S
C209 C211 1.339 . S
C209 H236 0.931 . S
C210 C211 1.395 . S
C210 C212 1.320 . S
C211 C209 1.339 . S
C211 C210 1.395 . S
C211 H237 0.929 . S
C212 C210 1.320 . S
C212 C213 1.405 . S
C212 H238 0.930 . S
C213 C208 1.479 . S
C213 C212 1.405 . S
C213 H239 0.931 . S
U214 O215 2.454 . S
U214 O216 2.458 . S
U214 C217 2.984 . S
U214 C218 2.847 . S
U214 C231 2.882 . S
U214 O232 2.441 . S
U214 O233 2.420 . S
U214 O234 2.455 . S
U214 O235 2.449 . S
O215 U214 2.454 . S
O215 C217 1.353 . S
O216 U214 2.458 . S
O216 C217 1.286 . S
C217 U214 2.984 . S
C217 O215 1.353 . S
C217 O216 1.286 . S
C217 C219 1.363 . S
C218 C208 1.465 . S
C218 U214 2.847 . S
C218 O232 1.249 . S
C218 O233 1.202 . S
C219 C217 1.363 . S
C219 C221 1.408 . S
C219 C224 1.342 . S
C220 C221 1.310 . S
C220 C223 1.461 . S
C220 H240 0.932 . S
C221 C219 1.408 . S
C221 C220 1.310 . S
C221 H241 0.930 . S
C222 C223 1.474 . S
C222 C224 1.285 . S
C222 H242 0.929 . S
C223 C220 1.461 . S
C223 C222 1.474 . S
C224 C219 1.342 . S
C224 C222 1.285 . S
C224 H243 0.930 . S
C225 C228 1.424 . S
C225 C230 1.245 . S
C225 C231 1.428 . S
C226 C229 1.260 . S
C226 C230 1.477 . S
C226 H244 0.932 . S
C227 C228 1.384 . S
C227 C229 1.479 . S
C227 H245 0.929 . S
C228 C225 1.424 . S
C228 C227 1.384 . S
C228 H246 0.928 . S
C229 C226 1.260 . S
C229 C227 1.479 . S
C230 C225 1.245 . S
C230 C226 1.477 . S
C230 H247 0.932 . S
C231 U214 2.882 . S
C231 C225 1.428 . S
C231 O234 1.301 . S
C231 O235 1.282 . S
O232 U214 2.441 . S
O232 C218 1.249 . S
O233 U214 2.420 . S
O233 C218 1.202 . S
O234 U214 2.455 . S
O234 C231 1.301 . S
O235 U214 2.449 . S
O235 C231 1.282 . S
H236 C209 0.931 . S
H237 C211 0.929 . S
H238 C212 0.930 . S
H239 C213 0.931 . S
H240 C220 0.932 . S
H241 C221 0.930 . S
H242 C222 0.929 . S
H243 C224 0.930 . S
H244 C226 0.932 . S
H245 C227 0.929 . S
H246 C228 0.928 . S
H247 C230 0.932 . S
C248 C249 1.264 . S
C248 C253 1.479 . S
C248 C258 1.465 . S
C249 C248 1.264 . S
C249 C251 1.339 . S
C249 H276 0.931 . S
C250 C251 1.395 . S
C250 C252 1.320 . S
C251 C249 1.339 . S
C251 C250 1.395 . S
C251 H277 0.929 . S
C252 C250 1.320 . S
C252 C253 1.405 . S
C252 H278 0.930 . S
C253 C248 1.479 . S
C253 C252 1.405 . S
C253 H279 0.931 . S
U254 O255 2.454 . S
U254 O256 2.458 . S
U254 C257 2.984 . S
U254 C258 2.847 . S
U254 C271 2.882 . S
U254 O272 2.441 . S
U254 O273 2.420 . S
U254 O274 2.455 . S
U254 O275 2.449 . S
O255 U254 2.454 . S
O255 C257 1.353 . S
O256 U254 2.458 . S
O256 C257 1.286 . S
C257 U254 2.984 . S
C257 O255 1.353 . S
C257 O256 1.286 . S
C257 C259 1.363 . S
C258 C248 1.465 . S
C258 U254 2.847 . S
C258 O272 1.249 . S
C258 O273 1.202 . S
C259 C257 1.363 . S
C259 C261 1.408 . S
C259 C264 1.342 . S
C260 C261 1.310 . S
C260 C263 1.461 . S
C260 H280 0.932 . S
C261 C259 1.408 . S
C261 C260 1.310 . S
C261 H281 0.930 . S
C262 C263 1.474 . S
C262 C264 1.285 . S
C262 H282 0.929 . S
C263 C260 1.461 . S
C263 C262 1.474 . S
C264 C259 1.342 . S
C264 C262 1.285 . S
C264 H283 0.930 . S
C265 C268 1.424 . S
C265 C270 1.245 . S
C265 C271 1.428 . S
C266 C269 1.260 . S
C266 C270 1.477 . S
C266 H284 0.932 . S
C267 C268 1.384 . S
C267 C269 1.479 . S
C267 H285 0.929 . S
C268 C265 1.424 . S
C268 C267 1.384 . S
C268 H286 0.928 . S
C269 C266 1.260 . S
C269 C267 1.479 . S
C270 C265 1.245 . S
C270 C266 1.477 . S
C270 H287 0.932 . S
C271 U254 2.882 . S
C271 C265 1.428 . S
C271 O274 1.301 . S
C271 O275 1.282 . S
O272 U254 2.441 . S
O272 C258 1.249 . S
O273 U254 2.420 . S
O273 C258 1.202 . S
O274 U254 2.455 . S
O274 C271 1.301 . S
O275 U254 2.449 . S
O275 C271 1.282 . S
H276 C249 0.931 . S
H277 C251 0.929 . S
H278 C252 0.930 . S
H279 C253 0.931 . S
H280 C260 0.932 . S
H281 C261 0.930 . S
H282 C262 0.929 . S
H283 C264 0.930 . S
H284 C266 0.932 . S
H285 C267 0.929 . S
H286 C268 0.928 . S
H287 C270 0.932 . S
C288 C289 1.264 . S
C288 C293 1.479 . S
C288 C298 1.465 . S
C289 C288 1.264 . S
C289 C291 1.339 . S
C289 H316 0.931 . S
C290 C291 1.395 . S
C290 C292 1.320 . S
C291 C289 1.339 . S
C291 C290 1.395 . S
C291 H317 0.929 . S
C292 C290 1.320 . S
C292 C293 1.405 . S
C292 H318 0.930 . S
C293 C288 1.479 . S
C293 C292 1.405 . S
C293 H319 0.931 . S
U294 O295 2.454 . S
U294 O296 2.458 . S
U294 C297 2.984 . S
U294 C298 2.847 . S
U294 C311 2.882 . S
U294 O312 2.441 . S
U294 O313 2.420 . S
U294 O314 2.455 . S
U294 O315 2.449 . S
O295 U294 2.454 . S
O295 C297 1.353 . S
O296 U294 2.458 . S
O296 C297 1.286 . S
C297 U294 2.984 . S
C297 O295 1.353 . S
C297 O296 1.286 . S
C297 C299 1.363 . S
C298 C288 1.465 . S
C298 U294 2.847 . S
C298 O312 1.249 . S
C298 O313 1.202 . S
C299 C297 1.363 . S
C299 C301 1.408 . S
C299 C304 1.342 . S
C300 C301 1.310 . S
C300 C303 1.461 . S
C300 H320 0.932 . S
C301 C299 1.408 . S
C301 C300 1.310 . S
C301 H321 0.930 . S
C302 C303 1.474 . S
C302 C304 1.285 . S
C302 H322 0.929 . S
C303 C300 1.461 . S
C303 C302 1.474 . S
C304 C299 1.342 . S
C304 C302 1.285 . S
C304 H323 0.930 . S
C305 C308 1.424 . S
C305 C310 1.245 . S
C305 C311 1.428 . S
C306 C309 1.260 . S
C306 C310 1.477 . S
C306 H324 0.932 . S
C307 C308 1.384 . S
C307 C309 1.479 . S
C307 H325 0.929 . S
C308 C305 1.424 . S
C308 C307 1.384 . S
C308 H326 0.928 . S
C309 C306 1.260 . S
C309 C307 1.479 . S
C310 C305 1.245 . S
C310 C306 1.477 . S
C310 H327 0.932 . S
C311 U294 2.882 . S
C311 C305 1.428 . S
C311 O314 1.301 . S
C311 O315 1.282 . S
O312 U294 2.441 . S
O312 C298 1.249 . S
O313 U294 2.420 . S
O313 C298 1.202 . S
O314 U294 2.455 . S
O314 C311 1.301 . S
O315 U294 2.449 . S
O315 C311 1.282 . S
H316 C289 0.931 . S
H317 C291 0.929 . S
H318 C292 0.930 . S
H319 C293 0.931 . S
H320 C300 0.932 . S
H321 C301 0.930 . S
H322 C302 0.929 . S
H323 C304 0.930 . S
H324 C306 0.932 . S
H325 C307 0.929 . S
H326 C308 0.928 . S
H327 C310 0.932 . S
C328 C329 1.264 . S
C328 C333 1.479 . S
C328 C338 1.465 . S
C329 C328 1.264 . S
C329 C331 1.339 . S
C329 H356 0.931 . S
C330 C331 1.395 . S
C330 C332 1.320 . S
C331 C329 1.339 . S
C331 C330 1.395 . S
C331 H357 0.929 . S
C332 C330 1.320 . S
C332 C333 1.405 . S
C332 H358 0.930 . S
C333 C328 1.479 . S
C333 C332 1.405 . S
C333 H359 0.931 . S
U334 O335 2.454 . S
U334 O336 2.458 . S
U334 C337 2.984 . S
U334 C338 2.847 . S
U334 C351 2.882 . S
U334 O352 2.441 . S
U334 O353 2.420 . S
U334 O354 2.455 . S
U334 O355 2.449 . S
O335 U334 2.454 . S
O335 C337 1.353 . S
O336 U334 2.458 . S
O336 C337 1.286 . S
C337 U334 2.984 . S
C337 O335 1.353 . S
C337 O336 1.286 . S
C337 C339 1.363 . S
C338 C328 1.465 . S
C338 U334 2.847 . S
C338 O352 1.249 . S
C338 O353 1.202 . S
C339 C337 1.363 . S
C339 C341 1.408 . S
C339 C344 1.342 . S
C340 C341 1.310 . S
C340 C343 1.461 . S
C340 H360 0.932 . S
C341 C339 1.408 . S
C341 C340 1.310 . S
C341 H361 0.930 . S
C342 C343 1.474 . S
C342 C344 1.285 . S
C342 H362 0.929 . S
C343 C340 1.461 . S
C343 C342 1.474 . S
C344 C339 1.342 . S
C344 C342 1.285 . S
C344 H363 0.930 . S
C345 C348 1.424 . S
C345 C350 1.245 . S
C345 C351 1.428 . S
C346 C349 1.260 . S
C346 C350 1.477 . S
C346 H364 0.932 . S
C347 C348 1.384 . S
C347 C349 1.479 . S
C347 H365 0.929 . S
C348 C345 1.424 . S
C348 C347 1.384 . S
C348 H366 0.928 . S
C349 C346 1.260 . S
C349 C347 1.479 . S
C350 C345 1.245 . S
C350 C346 1.477 . S
C350 H367 0.932 . S
C351 U334 2.882 . S
C351 C345 1.428 . S
C351 O354 1.301 . S
C351 O355 1.282 . S
O352 U334 2.441 . S
O352 C338 1.249 . S
O353 U334 2.420 . S
O353 C338 1.202 . S
O354 U334 2.455 . S
O354 C351 1.301 . S
O355 U334 2.449 . S
O355 C351 1.282 . S
H356 C329 0.931 . S
H357 C331 0.929 . S
H358 C332 0.930 . S
H359 C333 0.931 . S
H360 C340 0.932 . S
H361 C341 0.930 . S
H362 C342 0.929 . S
H363 C344 0.930 . S
H364 C346 0.932 . S
H365 C347 0.929 . S
H366 C348 0.928 . S
H367 C350 0.932 . S
C368 C369 1.264 . S
C368 C373 1.479 . S
C368 C378 1.465 . S
C369 C368 1.264 . S
C369 C371 1.339 . S
C369 H396 0.931 . S
C370 C371 1.395 . S
C370 C372 1.320 . S
C371 C369 1.339 . S
C371 C370 1.395 . S
C371 H397 0.929 . S
C372 C370 1.320 . S
C372 C373 1.405 . S
C372 H398 0.930 . S
C373 C368 1.479 . S
C373 C372 1.405 . S
C373 H399 0.931 . S
U374 O375 2.454 . S
U374 O376 2.458 . S
U374 C377 2.984 . S
U374 C378 2.847 . S
U374 C391 2.882 . S
U374 O392 2.441 . S
U374 O393 2.420 . S
U374 O394 2.455 . S
U374 O395 2.449 . S
O375 U374 2.454 . S
O375 C377 1.353 . S
O376 U374 2.458 . S
O376 C377 1.286 . S
C377 U374 2.984 . S
C377 O375 1.353 . S
C377 O376 1.286 . S
C377 C379 1.363 . S
C378 C368 1.465 . S
C378 U374 2.847 . S
C378 O392 1.249 . S
C378 O393 1.202 . S
C379 C377 1.363 . S
C379 C381 1.408 . S
C379 C384 1.342 . S
C380 C381 1.310 . S
C380 C383 1.461 . S
C380 H400 0.932 . S
C381 C379 1.408 . S
C381 C380 1.310 . S
C381 H401 0.930 . S
C382 C383 1.474 . S
C382 C384 1.285 . S
C382 H402 0.929 . S
C383 C380 1.461 . S
C383 C382 1.474 . S
C384 C379 1.342 . S
C384 C382 1.285 . S
C384 H403 0.930 . S
C385 C388 1.424 . S
C385 C390 1.245 . S
C385 C391 1.428 . S
C386 C389 1.260 . S
C386 C390 1.477 1_455 S
C386 H404 0.932 . S
C387 C388 1.384 1_455 S
C387 C389 1.479 . S
C387 H405 0.929 . S
C388 C385 1.424 . S
C388 C387 1.384 1_655 S
C388 H406 0.928 . S
C389 C386 1.260 . S
C389 C387 1.479 . S
C390 C385 1.245 . S
C390 C386 1.477 1_655 S
C390 H407 0.932 . S
C391 U374 2.882 . S
C391 C385 1.428 . S
C391 O394 1.301 . S
C391 O395 1.282 . S
O392 U374 2.441 . S
O392 C378 1.249 . S
O393 U374 2.420 . S
O393 C378 1.202 . S
O394 U374 2.455 . S
O394 C391 1.301 . S
O395 U374 2.449 . S
O395 C391 1.282 . S
H396 C369 0.931 . S
H397 C371 0.929 . S
H398 C372 0.930 . S
H399 C373 0.931 . S
H400 C380 0.932 . S
H401 C381 0.930 . S
H402 C382 0.929 . S
H403 C384 0.930 . S
H404 C386 0.932 . S
H405 C387 0.929 . S
H406 C388 0.928 . S
H407 C390 0.932 . S
C408 C409 1.349 . S
C408 C410 1.327 . S
C408 H433 0.950 . S
C409 C408 1.349 . S
C409 C425 1.349 . S
C410 C408 1.327 . S
C410 C429 1.429 . S
C410 H434 0.950 . S
C411 C428 1.574 . S
C411 C430 1.368 . S
C411 H435 0.949 . S
H412 C416 0.949 . S
C413 C414 1.349 1_565 S
C413 C415 1.327 . S
C413 H436 0.950 1_565 S
C414 C413 1.349 1_545 S
C414 C426 1.349 . S
C415 C413 1.327 . S
C415 C431 1.429 . S
C415 H437 0.950 . S
C416 H412 0.949 . S
C416 C424 1.574 . S
C416 C432 1.368 . S
H417 C425 0.950 . S
H418 C423 0.950 . S
H419 C424 0.949 . S
H420 C426 0.950 . S
H421 C427 0.950 . S
H422 C428 0.949 . S
C423 H418 0.950 . S
C423 C425 1.327 . S
C423 C429 1.429 . S
C424 C416 1.574 . S
C424 H419 0.949 . S
C424 C430 1.368 . S
C425 C409 1.349 . S
C425 H417 0.950 . S
C425 C423 1.327 . S
C426 C414 1.349 . S
C426 H420 0.950 . S
C426 C427 1.327 1_545 S
C427 H421 0.950 . S
C427 C426 1.327 1_565 S
C427 C431 1.429 . S
C428 C411 1.574 . S
C428 H422 0.949 . S
C428 C432 1.368 . S
C429 C410 1.429 . S
C429 C423 1.429 . S
C429 C430 1.523 . S
C430 C411 1.368 . S
C430 C424 1.368 . S
C430 C429 1.523 . S
C431 C415 1.429 . S
C431 C427 1.429 . S
C431 C432 1.523 . S
C432 C416 1.368 . S
C432 C428 1.368 . S
C432 C431 1.523 . S
H433 C408 0.950 . S
H434 C410 0.950 . S
H435 C411 0.949 . S
H436 C413 0.950 1_545 S
H437 C415 0.950 . S
C438 C439 1.349 . S
C438 C440 1.327 . S
C438 H463 0.950 . S
C439 C438 1.349 . S
C439 C455 1.349 . S
C440 C438 1.327 . S
C440 C459 1.429 . S
C440 H464 0.950 . S
C441 C458 1.574 . S
C441 C460 1.368 . S
C441 H465 0.949 . S
H442 C446 0.949 . S
C443 C444 1.349 . S
C443 C445 1.327 . S
C443 H466 0.950 . S
C444 C443 1.349 . S
C444 C456 1.349 . S
C445 C443 1.327 . S
C445 C461 1.429 . S
C445 H467 0.950 . S
C446 H442 0.949 . S
C446 C454 1.574 . S
C446 C462 1.368 . S
H447 C455 0.950 . S
H448 C453 0.950 . S
H449 C454 0.949 . S
H450 C456 0.950 . S
H451 C457 0.950 . S
H452 C458 0.949 . S
C453 H448 0.950 . S
C453 C455 1.327 . S
C453 C459 1.429 . S
C454 C446 1.574 . S
C454 H449 0.949 . S
C454 C460 1.368 . S
C455 C439 1.349 . S
C455 H447 0.950 . S
C455 C453 1.327 . S
C456 C444 1.349 . S
C456 H450 0.950 . S
C456 C457 1.327 . S
C457 H451 0.950 . S
C457 C456 1.327 . S
C457 C461 1.429 . S
C458 C441 1.574 . S
C458 H452 0.949 . S
C458 C462 1.368 . S
C459 C440 1.429 . S
C459 C453 1.429 . S
C459 C460 1.523 . S
C460 C441 1.368 . S
C460 C454 1.368 . S
C460 C459 1.523 . S
C461 C445 1.429 . S
C461 C457 1.429 . S
C461 C462 1.523 . S
C462 C446 1.368 . S
C462 C458 1.368 . S
C462 C461 1.523 . S
H463 C438 0.950 . S
H464 C440 0.950 . S
H465 C441 0.949 . S
H466 C443 0.950 . S
H467 C445 0.950 . S
C468 C469 1.349 . S
C468 C470 1.327 . S
C468 H493 0.950 . S
C469 C468 1.349 . S
C469 C485 1.349 . S
C470 C468 1.327 . S
C470 C489 1.429 . S
C470 H494 0.950 . S
C471 C488 1.574 . S
C471 C490 1.368 . S
C471 H495 0.949 . S
H472 C476 0.949 1_565 S
C473 C474 1.349 . S
C473 C475 1.327 . S
C473 H496 0.950 . S
C474 C473 1.349 . S
C474 C486 1.349 . S
C475 C473 1.327 . S
C475 C491 1.429 . S
C475 H497 0.950 . S
C476 H472 0.949 1_545 S
C476 C484 1.574 . S
C476 C492 1.368 . S
H477 C485 0.950 . S
H478 C483 0.950 . S
H479 C484 0.949 . S
H480 C486 0.950 . S
H481 C487 0.950 . S
H482 C488 0.949 . S
C483 H478 0.950 . S
C483 C485 1.327 . S
C483 C489 1.429 . S
C484 C476 1.574 . S
C484 H479 0.949 . S
C484 C490 1.368 . S
C485 C469 1.349 . S
C485 H477 0.950 . S
C485 C483 1.327 . S
C486 C474 1.349 . S
C486 H480 0.950 . S
C486 C487 1.327 . S
C487 H481 0.950 . S
C487 C486 1.327 . S
C487 C491 1.429 . S
C488 C471 1.574 . S
C488 H482 0.949 . S
C488 C492 1.368 . S
C489 C470 1.429 . S
C489 C483 1.429 . S
C489 C490 1.523 . S
C490 C471 1.368 . S
C490 C484 1.368 . S
C490 C489 1.523 . S
C491 C475 1.429 . S
C491 C487 1.429 . S
C491 C492 1.523 1_565 S
C492 C476 1.368 . S
C492 C488 1.368 . S
C492 C491 1.523 1_545 S
H493 C468 0.950 . S
H494 C470 0.950 . S
H495 C471 0.949 . S
H496 C473 0.950 . S
H497 C475 0.950 . S
C498 C499 1.349 . S
C498 C500 1.327 . S
C498 H523 0.950 . S
C499 C498 1.349 . S
C499 C515 1.349 . S
C500 C498 1.327 . S
C500 C519 1.429 . S
C500 H524 0.950 . S
C501 C518 1.574 . S
C501 C520 1.368 . S
C501 H525 0.949 . S
H502 C506 0.949 . S
C503 C504 1.349 . S
C503 C505 1.327 . S
C503 H526 0.950 . S
C504 C503 1.349 . S
C504 C516 1.349 . S
C505 C503 1.327 . S
C505 C521 1.429 . S
C505 H527 0.950 . S
C506 H502 0.949 . S
C506 C514 1.574 . S
C506 C522 1.368 . S
H507 C515 0.950 . S
H508 C513 0.950 . S
H509 C514 0.949 . S
H510 C516 0.950 . S
H511 C517 0.950 . S
H512 C518 0.949 . S
C513 H508 0.950 . S
C513 C515 1.327 . S
C513 C519 1.429 . S
C514 C506 1.574 . S
C514 H509 0.949 . S
C514 C520 1.368 . S
C515 C499 1.349 . S
C515 H507 0.950 . S
C515 C513 1.327 . S
C516 C504 1.349 . S
C516 H510 0.950 . S
C516 C517 1.327 . S
C517 H511 0.950 . S
C517 C516 1.327 . S
C517 C521 1.429 . S
C518 C501 1.574 . S
C518 H512 0.949 . S
C518 C522 1.368 . S
C519 C500 1.429 . S
C519 C513 1.429 . S
C519 C520 1.523 . S
C520 C501 1.368 . S
C520 C514 1.368 . S
C520 C519 1.523 . S
C521 C505 1.429 . S
C521 C517 1.429 . S
C521 C522 1.523 . S
C522 C506 1.368 . S
C522 C518 1.368 . S
C522 C521 1.523 . S
H523 C498 0.950 . S
H524 C500 0.950 . S
H525 C501 0.949 . S
H526 C503 0.950 . S
H527 C505 0.950 . S
C528 C529 1.349 . S
C528 C530 1.327 . S
C528 H553 0.950 . S
C529 C528 1.349 . S
C529 C545 1.349 . S
C530 C528 1.327 . S
C530 C549 1.429 . S
C530 H554 0.950 . S
C531 C548 1.574 . S
C531 C550 1.368 . S
C531 H555 0.949 . S
H532 C536 0.949 . S
C533 C534 1.349 . S
C533 C535 1.327 . S
C533 H556 0.950 . S
C534 C533 1.349 . S
C534 C546 1.349 . S
C535 C533 1.327 . S
C535 C551 1.429 . S
C535 H557 0.950 . S
C536 H532 0.949 . S
C536 C544 1.574 . S
C536 C552 1.368 . S
H537 C545 0.950 . S
H538 C543 0.950 . S
H539 C544 0.949 . S
H540 C546 0.950 . S
H541 C547 0.950 . S
H542 C548 0.949 . S
C543 H538 0.950 . S
C543 C545 1.327 . S
C543 C549 1.429 . S
C544 C536 1.574 . S
C544 H539 0.949 . S
C544 C550 1.368 . S
C545 C529 1.349 . S
C545 H537 0.950 . S
C545 C543 1.327 . S
C546 C534 1.349 . S
C546 H540 0.950 . S
C546 C547 1.327 . S
C547 H541 0.950 . S
C547 C546 1.327 . S
C547 C551 1.429 . S
C548 C531 1.574 . S
C548 H542 0.949 . S
C548 C552 1.368 . S
C549 C530 1.429 . S
C549 C543 1.429 . S
C549 C550 1.523 . S
C550 C531 1.368 . S
C550 C544 1.368 . S
C550 C549 1.523 . S
C551 C535 1.429 . S
C551 C547 1.429 . S
C551 C552 1.523 . S
C552 C536 1.368 . S
C552 C548 1.368 . S
C552 C551 1.523 . S
H553 C528 0.950 . S
H554 C530 0.950 . S
H555 C531 0.949 . S
H556 C533 0.950 . S
H557 C535 0.950 . S
C558 C559 1.349 . S
C558 C560 1.327 . S
C558 H583 0.950 . S
C559 C558 1.349 . S
C559 C575 1.349 1_556 S
C560 C558 1.327 . S
C560 C579 1.429 . S
C560 H584 0.950 . S
C561 C578 1.574 1_655 S
C561 C580 1.368 . S
C561 H585 0.949 1_556 S
H562 C566 0.949 . S
C563 C564 1.349 . S
C563 C565 1.327 . S
C563 H586 0.950 . S
C564 C563 1.349 . S
C564 C576 1.349 . S
C565 C563 1.327 . S
C565 C581 1.429 . S
C565 H587 0.950 . S
C566 H562 0.949 . S
C566 C574 1.574 1_455 S
C566 C582 1.368 . S
H567 C575 0.950 . S
H568 C573 0.943 1_554 S
H569 C574 0.949 . S
H570 C576 0.950 . S
H571 C577 0.950 . S
H572 C578 0.949 1_554 S
C573 H568 0.943 1_556 S
C573 C575 1.325 1_556 S
C573 C579 1.437 . S
C574 C566 1.574 1_655 S
C574 H569 0.949 . S
C574 C580 1.368 . S
C575 C559 1.349 1_554 S
C575 H567 0.950 . S
C575 C573 1.325 1_554 S
C576 C564 1.349 . S
C576 H570 0.950 . S
C576 C577 1.327 . S
C577 H571 0.950 . S
C577 C576 1.327 . S
C577 C581 1.429 . S
C578 C561 1.574 1_455 S
C578 H572 0.949 1_556 S
C578 C582 1.368 . S
C579 C560 1.429 . S
C579 C573 1.437 . S
C579 C580 1.523 . S
C580 C561 1.368 . S
C580 C574 1.368 . S
C580 C579 1.523 . S
C581 C565 1.429 . S
C581 C577 1.429 . S
C581 C582 1.523 . S
C582 C566 1.368 . S
C582 C578 1.368 . S
C582 C581 1.523 . S
H583 C558 0.950 . S
H584 C560 0.950 . S
H585 C561 0.949 1_554 S
H586 C563 0.950 . S
H587 C565 0.950 . S
C588 C589 1.349 . S
C588 C590 1.327 . S
C588 H613 0.950 . S
C589 C588 1.349 . S
C589 C605 1.349 . S
C590 C588 1.327 . S
C590 C609 1.429 . S
C590 H614 0.950 . S
C591 C608 1.574 . S
C591 C610 1.368 . S
C591 H615 0.949 . S
H592 C596 0.949 . S
C593 C594 1.349 . S
C593 C595 1.327 . S
C593 H616 0.950 . S
C594 C593 1.349 . S
C594 C606 1.349 . S
C595 C593 1.327 . S
C595 C611 1.429 . S
C595 H617 0.950 . S
C596 H592 0.949 . S
C596 C604 1.574 . S
C596 C612 1.368 . S
H597 C605 0.950 . S
H598 C603 0.950 . S
H599 C604 0.949 . S
H600 C606 0.950 . S
H601 C607 0.950 . S
H602 C608 0.949 . S
C603 H598 0.950 . S
C603 C605 1.327 . S
C603 C609 1.429 . S
C604 C596 1.574 . S
C604 H599 0.949 . S
C604 C610 1.368 . S
C605 C589 1.349 . S
C605 H597 0.950 . S
C605 C603 1.327 . S
C606 C594 1.349 . S
C606 H600 0.950 . S
C606 C607 1.327 . S
C607 H601 0.950 . S
C607 C606 1.327 . S
C607 C611 1.429 . S
C608 C591 1.574 . S
C608 H602 0.949 . S
C608 C612 1.368 . S
C609 C590 1.429 . S
C609 C603 1.429 . S
C609 C610 1.523 . S
C610 C591 1.368 . S
C610 C604 1.368 . S
C610 C609 1.523 . S
C611 C595 1.429 . S
C611 C607 1.429 . S
C611 C612 1.523 . S
C612 C596 1.368 . S
C612 C608 1.368 . S
C612 C611 1.523 . S
H613 C588 0.950 . S
H614 C590 0.950 . S
H615 C591 0.949 . S
H616 C593 0.950 . S
H617 C595 0.950 . S
C618 C619 1.349 . S
C618 C620 1.327 . S
C618 H643 0.950 . S
C619 C618 1.349 . S
C619 C635 1.349 . S
C620 C618 1.327 . S
C620 C639 1.429 . S
C620 H644 0.950 . S
C621 C638 1.574 . S
C621 C640 1.368 . S
C621 H645 0.949 . S
H622 C626 0.949 . S
C623 C624 1.349 . S
C623 C625 1.327 . S
C623 H646 0.950 . S
C624 C623 1.349 . S
C624 C636 1.349 . S
C625 C623 1.327 . S
C625 C641 1.429 . S
C625 H647 0.950 . S
C626 H622 0.949 . S
C626 C634 1.574 . S
C626 C642 1.368 . S
H627 C635 0.950 . S
H628 C633 0.950 . S
H629 C634 0.949 . S
H630 C636 0.950 . S
H631 C637 0.950 . S
H632 C638 0.949 . S
C633 H628 0.950 . S
C633 C635 1.327 . S
C633 C639 1.429 . S
C634 C626 1.574 . S
C634 H629 0.949 . S
C634 C640 1.368 . S
C635 C619 1.349 . S
C635 H627 0.950 . S
C635 C633 1.327 . S
C636 C624 1.349 . S
C636 H630 0.950 . S
C636 C637 1.327 . S
C637 H631 0.950 . S
C637 C636 1.327 . S
C637 C641 1.429 . S
C638 C621 1.574 . S
C638 H632 0.949 . S
C638 C642 1.368 . S
C639 C620 1.429 . S
C639 C633 1.429 . S
C639 C640 1.523 . S
C640 C621 1.368 . S
C640 C634 1.368 . S
C640 C639 1.523 . S
C641 C625 1.429 . S
C641 C637 1.429 . S
C641 C642 1.523 . S
C642 C626 1.368 . S
C642 C638 1.368 . S
C642 C641 1.523 . S
H643 C618 0.950 . S
H644 C620 0.950 . S
H645 C621 0.949 . S
H646 C623 0.950 . S
H647 C625 0.950 . S
C648 C649 1.349 . S
C648 C650 1.327 . S
C648 H673 0.950 . S
C649 C648 1.349 . S
C649 C665 1.349 . S
C650 C648 1.327 . S
C650 C669 1.429 . S
C650 H674 0.950 . S
C651 C668 1.574 . S
C651 C670 1.368 . S
C651 H675 0.949 . S
H652 C656 0.949 . S
C653 C654 1.349 . S
C653 C655 1.327 . S
C653 H676 0.950 . S
C654 C653 1.349 . S
C654 C666 1.349 1_565 S
C655 C653 1.327 . S
C655 C671 1.429 1_565 S
C655 H677 0.950 . S
C656 H652 0.949 . S
C656 C664 1.574 . S
C656 C672 1.368 . S
H657 C665 0.950 . S
H658 C663 0.950 . S
H659 C664 0.949 . S
H660 C666 0.950 . S
H661 C667 0.950 . S
H662 C668 0.949 . S
C663 H658 0.950 . S
C663 C665 1.327 . S
C663 C669 1.429 . S
C664 C656 1.574 . S
C664 H659 0.949 . S
C664 C670 1.368 . S
C665 C649 1.349 . S
C665 H657 0.950 . S
C665 C663 1.327 . S
C666 C654 1.349 1_545 S
C666 H660 0.950 . S
C666 C667 1.327 . S
C667 H661 0.950 . S
C667 C666 1.327 . S
C667 C671 1.429 . S
C668 C651 1.574 . S
C668 H662 0.949 . S
C668 C672 1.368 . S
C669 C650 1.429 . S
C669 C663 1.429 . S
C669 C670 1.523 . S
C670 C651 1.368 . S
C670 C664 1.368 . S
C670 C669 1.523 . S
C671 C655 1.429 1_545 S
C671 C667 1.429 . S
C671 C672 1.523 . S
C672 C656 1.368 . S
C672 C668 1.368 . S
C672 C671 1.523 . S
H673 C648 0.950 . S
H674 C650 0.950 . S
H675 C651 0.949 . S
H676 C653 0.950 . S
H677 C655 0.950 . S
C678 C679 1.349 . S
C678 C680 1.327 . S
C678 H703 0.950 . S
C679 C678 1.349 . S
C679 C695 1.349 . S
C680 C678 1.327 . S
C680 C699 1.429 . S
C680 H704 0.950 . S
C681 C698 1.574 . S
C681 C700 1.368 . S
C681 H705 0.949 . S
H682 C686 0.949 . S
C683 C684 1.349 . S
C683 C685 1.327 . S
C683 H706 0.950 . S
C684 C683 1.349 . S
C684 C696 1.349 . S
C685 C683 1.327 . S
C685 C701 1.429 . S
C685 H707 0.950 . S
C686 H682 0.949 . S
C686 C694 1.574 . S
C686 C702 1.368 . S
H687 C695 0.950 . S
H688 C693 0.950 . S
H689 C694 0.949 . S
H690 C696 0.950 . S
H691 C697 0.950 . S
H692 C698 0.949 . S
C693 H688 0.950 . S
C693 C695 1.327 . S
C693 C699 1.429 . S
C694 C686 1.574 . S
C694 H689 0.949 . S
C694 C700 1.368 . S
C695 C679 1.349 . S
C695 H687 0.950 . S
C695 C693 1.327 . S
C696 C684 1.349 . S
C696 H690 0.950 . S
C696 C697 1.327 . S
C697 H691 0.950 . S
C697 C696 1.327 . S
C697 C701 1.429 . S
C698 C681 1.574 . S
C698 H692 0.949 . S
C698 C702 1.368 . S
C699 C680 1.429 . S
C699 C693 1.429 . S
C699 C700 1.523 . S
C700 C681 1.368 . S
C700 C694 1.368 . S
C700 C699 1.523 . S
C701 C685 1.429 . S
C701 C697 1.429 . S
C701 C702 1.523 . S
C702 C686 1.368 . S
C702 C698 1.368 . S
C702 C701 1.523 . S
H703 C678 0.950 . S
H704 C680 0.950 . S
H705 C681 0.949 . S
H706 C683 0.950 . S
H707 C685 0.950 . S
C708 C709 1.349 . S
C708 C710 1.327 . S
C708 H733 0.938 1_554 S
C709 C708 1.349 . S
C709 C725 1.349 . S
C710 C708 1.327 . S
C710 C729 1.429 . S
C710 H734 0.950 1_554 S
C711 C728 1.574 . S
C711 C730 1.368 . S
C711 H735 0.949 . S
H712 C716 0.949 . S
C713 C714 1.349 . S
C713 C715 1.327 1_556 S
C713 H736 0.950 1_556 S
C714 C713 1.349 . S
C714 C726 1.349 . S
C715 C713 1.327 1_554 S
C715 C731 1.429 1_554 S
C715 H737 0.950 . S
C716 H712 0.949 . S
C716 C724 1.574 . S
C716 C732 1.368 . S
H717 C725 0.950 . S
H718 C723 0.950 . S
H719 C724 0.949 . S
H720 C726 0.950 . S
H721 C727 0.950 . S
H722 C728 0.949 . S
C723 H718 0.950 . S
C723 C725 1.327 . S
C723 C729 1.429 . S
C724 C716 1.574 . S
C724 H719 0.949 . S
C724 C730 1.368 1_556 S
C725 C709 1.349 . S
C725 H717 0.950 . S
C725 C723 1.327 . S
C726 C714 1.349 . S
C726 H720 0.950 . S
C726 C727 1.327 . S
C727 H721 0.950 . S
C727 C726 1.327 . S
C727 C731 1.429 . S
C728 C711 1.574 . S
C728 H722 0.949 . S
C728 C732 1.368 1_554 S
C729 C710 1.429 . S
C729 C723 1.429 . S
C729 C730 1.523 . S
C730 C711 1.368 . S
C730 C724 1.368 1_554 S
C730 C729 1.523 . S
C731 C715 1.429 1_556 S
C731 C727 1.429 . S
C731 C732 1.523 1_545 S
C732 C716 1.368 . S
C732 C728 1.368 1_556 S
C732 C731 1.523 1_565 S
H733 C708 0.938 1_556 S
H734 C710 0.950 1_556 S
H735 C711 0.949 . S
H736 C713 0.950 1_554 S
H737 C715 0.950 . S
C738 C739 1.349 . S
C738 C740 1.327 . S
C738 H763 0.950 . S
C739 C738 1.349 . S
C739 C755 1.349 . S
C740 C738 1.327 . S
C740 C759 1.429 . S
C740 H764 0.950 . S
C741 C758 1.574 . S
C741 C760 1.368 . S
C741 H765 0.949 . S
H742 C746 0.949 . S
C743 C744 1.349 . S
C743 C745 1.327 . S
C743 H766 0.950 . S
C744 C743 1.349 . S
C744 C756 1.349 . S
C745 C743 1.327 . S
C745 C761 1.429 . S
C745 H767 0.950 . S
C746 H742 0.949 . S
C746 C754 1.574 . S
C746 C762 1.368 . S
H747 C755 0.950 . S
H748 C753 0.950 . S
H749 C754 0.949 . S
H750 C756 0.950 . S
H751 C757 0.950 . S
H752 C758 0.949 . S
C753 H748 0.950 . S
C753 C755 1.327 . S
C753 C759 1.429 . S
C754 C746 1.574 . S
C754 H749 0.949 . S
C754 C760 1.368 . S
C755 C739 1.349 . S
C755 H747 0.950 . S
C755 C753 1.327 . S
C756 C744 1.349 . S
C756 H750 0.950 . S
C756 C757 1.327 . S
C757 H751 0.950 . S
C757 C756 1.327 . S
C757 C761 1.429 . S
C758 C741 1.574 . S
C758 H752 0.949 . S
C758 C762 1.368 . S
C759 C740 1.429 . S
C759 C753 1.429 . S
C759 C760 1.523 . S
C760 C741 1.368 . S
C760 C754 1.368 . S
C760 C759 1.523 . S
C761 C745 1.429 . S
C761 C757 1.429 . S
C761 C762 1.523 . S
C762 C746 1.368 . S
C762 C758 1.368 . S
C762 C761 1.523 . S
H763 C738 0.950 . S
H764 C740 0.950 . S
H765 C741 0.949 . S
H766 C743 0.950 . S
H767 C745 0.950 . S
C768 C769 1.349 . S
C768 C770 1.327 . S
C768 H793 0.950 . S
C769 C768 1.349 . S
C769 C785 1.349 . S
C770 C768 1.327 . S
C770 C789 1.429 . S
C770 H794 0.950 . S
C771 C788 1.574 . S
C771 C790 1.368 . S
C771 H795 0.949 . S
H772 C776 0.949 . S
C773 C774 1.349 . S
C773 C775 1.327 . S
C773 H796 0.950 . S
C774 C773 1.349 . S
C774 C786 1.349 . S
C775 C773 1.327 . S
C775 C791 1.429 . S
C775 H797 0.950 . S
C776 H772 0.949 . S
C776 C784 1.574 . S
C776 C792 1.368 . S
H777 C785 0.950 . S
H778 C783 0.950 . S
H779 C784 0.949 . S
H780 C786 0.950 . S
H781 C787 0.950 . S
H782 C788 0.949 . S
C783 H778 0.950 . S
C783 C785 1.327 . S
C783 C789 1.429 . S
C784 C776 1.574 . S
C784 H779 0.949 . S
C784 C790 1.368 . S
C785 C769 1.349 . S
C785 H777 0.950 . S
C785 C783 1.327 . S
C786 C774 1.349 . S
C786 H780 0.950 . S
C786 C787 1.327 . S
C787 H781 0.950 . S
C787 C786 1.327 . S
C787 C791 1.429 . S
C788 C771 1.574 . S
C788 H782 0.949 . S
C788 C792 1.368 . S
C789 C770 1.429 . S
C789 C783 1.429 . S
C789 C790 1.523 . S
C790 C771 1.368 . S
C790 C784 1.368 . S
C790 C789 1.523 . S
C791 C775 1.429 . S
C791 C787 1.429 . S
C791 C792 1.523 . S
C792 C776 1.368 . S
C792 C788 1.368 . S
C792 C791 1.523 . S
H793 C768 0.950 . S
H794 C770 0.950 . S
H795 C771 0.949 . S
H796 C773 0.950 . S
H797 C775 0.950 . S
C798 C799 1.349 . S
C798 C800 1.327 . S
C798 H823 0.950 . S
C799 C798 1.349 . S
C799 C815 1.349 . S
C800 C798 1.327 . S
C800 C819 1.429 . S
C800 H824 0.950 . S
C801 C818 1.574 1_455 S
C801 C820 1.368 . S
C801 H825 0.949 . S
H802 C806 0.949 . S
C803 C804 1.349 . S
C803 C805 1.327 . S
C803 H826 0.950 . S
C804 C803 1.349 . S
C804 C816 1.349 . S
C805 C803 1.327 . S
C805 C821 1.429 . S
C805 H827 0.950 . S
C806 H802 0.949 . S
C806 C814 1.574 1_655 S
C806 C822 1.368 . S
H807 C815 0.950 . S
H808 C813 0.950 . S
H809 C814 0.949 . S
H810 C816 0.950 . S
H811 C817 0.950 . S
H812 C818 0.949 . S
C813 H808 0.950 . S
C813 C815 1.327 . S
C813 C819 1.429 . S
C814 C806 1.574 1_455 S
C814 H809 0.949 . S
C814 C820 1.368 . S
C815 C799 1.349 . S
C815 H807 0.950 . S
C815 C813 1.327 . S
C816 C804 1.349 . S
C816 H810 0.950 . S
C816 C817 1.327 . S
C817 H811 0.950 . S
C817 C816 1.327 . S
C817 C821 1.429 . S
C818 C801 1.574 1_655 S
C818 H812 0.949 . S
C818 C822 1.368 . S
C819 C800 1.429 . S
C819 C813 1.429 . S
C819 C820 1.523 . S
C820 C801 1.368 . S
C820 C814 1.368 . S
C820 C819 1.523 . S
C821 C805 1.429 . S
C821 C817 1.429 . S
C821 C822 1.523 . S
C822 C806 1.368 . S
C822 C818 1.368 . S
C822 C821 1.523 . S
H823 C798 0.950 . S
H824 C800 0.950 . S
H825 C801 0.949 . S
H826 C803 0.950 . S
H827 C805 0.950 . S
C828 C829 1.349 . S
C828 C830 1.327 . S
C828 H853 0.950 . S
C829 C828 1.349 . S
C829 C845 1.349 . S
C830 C828 1.327 . S
C830 C849 1.429 . S
C830 H854 0.950 . S
C831 C848 1.574 . S
C831 C850 1.368 . S
C831 H855 0.949 . S
H832 C836 0.949 . S
C833 C834 1.349 . S
C833 C835 1.327 . S
C833 H856 0.950 . S
C834 C833 1.349 . S
C834 C846 1.349 . S
C835 C833 1.327 . S
C835 C851 1.429 . S
C835 H857 0.950 . S
C836 H832 0.949 . S
C836 C844 1.574 . S
C836 C852 1.368 . S
H837 C845 0.950 . S
H838 C843 0.950 . S
H839 C844 0.949 . S
H840 C846 0.950 . S
H841 C847 0.950 . S
H842 C848 0.949 . S
C843 H838 0.950 . S
C843 C845 1.327 . S
C843 C849 1.429 . S
C844 C836 1.574 . S
C844 H839 0.949 . S
C844 C850 1.368 . S
C845 C829 1.349 . S
C845 H837 0.950 . S
C845 C843 1.327 . S
C846 C834 1.349 . S
C846 H840 0.950 . S
C846 C847 1.327 . S
C847 H841 0.950 . S
C847 C846 1.327 . S
C847 C851 1.429 . S
C848 C831 1.574 . S
C848 H842 0.949 . S
C848 C852 1.368 . S
C849 C830 1.429 . S
C849 C843 1.429 . S
C849 C850 1.523 . S
C850 C831 1.368 . S
C850 C844 1.368 . S
C850 C849 1.523 . S
C851 C835 1.429 . S
C851 C847 1.429 . S
C851 C852 1.523 . S
C852 C836 1.368 . S
C852 C848 1.368 . S
C852 C851 1.523 . S
H853 C828 0.950 . S
H854 C830 0.950 . S
H855 C831 0.949 . S
H856 C833 0.950 . S
H857 C835 0.950 . S
C858 C859 1.349 . S
C858 C860 1.327 . S
C858 H883 0.950 . S
C859 C858 1.349 . S
C859 C875 1.349 . S
C860 C858 1.327 . S
C860 C879 1.429 . S
C860 H884 0.950 . S
C861 C878 1.574 . S
C861 C880 1.368 . S
C861 H885 0.949 . S
H862 C866 0.949 . S
C863 C864 1.349 . S
C863 C865 1.327 . S
C863 H886 0.950 . S
C864 C863 1.349 . S
C864 C876 1.349 . S
C865 C863 1.327 . S
C865 C881 1.429 . S
C865 H887 0.950 . S
C866 H862 0.949 . S
C866 C874 1.574 . S
C866 C882 1.368 . S
H867 C875 0.950 . S
H868 C873 0.950 . S
H869 C874 0.949 . S
H870 C876 0.950 . S
H871 C877 0.950 . S
H872 C878 0.949 . S
C873 H868 0.950 . S
C873 C875 1.327 . S
C873 C879 1.429 . S
C874 C866 1.574 . S
C874 H869 0.949 . S
C874 C880 1.368 . S
C875 C859 1.349 . S
C875 H867 0.950 . S
C875 C873 1.327 . S
C876 C864 1.349 . S
C876 H870 0.950 . S
C876 C877 1.327 . S
C877 H871 0.950 . S
C877 C876 1.327 . S
C877 C881 1.429 . S
C878 C861 1.574 . S
C878 H872 0.949 . S
C878 C882 1.368 . S
C879 C860 1.429 . S
C879 C873 1.429 . S
C879 C880 1.523 . S
C880 C861 1.368 . S
C880 C874 1.368 . S
C880 C879 1.523 . S
C881 C865 1.429 . S
C881 C877 1.429 . S
C881 C882 1.523 . S
C882 C866 1.368 . S
C882 C878 1.368 . S
C882 C881 1.523 . S
H883 C858 0.950 . S
H884 C860 0.950 . S
H885 C861 0.949 . S
H886 C863 0.950 . S
H887 C865 0.950 . S
C888 C889 1.349 . S
C888 C890 1.327 . S
C888 H913 0.950 . S
C889 C888 1.349 . S
C889 C905 1.349 . S
C890 C888 1.327 . S
C890 C909 1.429 . S
C890 H914 0.950 . S
C891 C908 1.574 . S
C891 C910 1.368 . S
C891 H915 0.949 . S
H892 C896 0.949 . S
C893 C894 1.349 . S
C893 C895 1.327 . S
C893 H916 0.950 . S
C894 C893 1.349 . S
C894 C906 1.349 . S
C895 C893 1.327 . S
C895 C911 1.429 . S
C895 H917 0.950 . S
C896 H892 0.949 . S
C896 C904 1.574 . S
C896 C912 1.368 . S
H897 C905 0.950 . S
H898 C903 0.950 . S
H899 C904 0.949 . S
H900 C906 0.950 . S
H901 C907 0.950 . S
H902 C908 0.949 . S
C903 H898 0.950 . S
C903 C905 1.327 . S
C903 C909 1.429 . S
C904 C896 1.574 . S
C904 H899 0.949 . S
C904 C910 1.368 . S
C905 C889 1.349 . S
C905 H897 0.950 . S
C905 C903 1.327 . S
C906 C894 1.349 . S
C906 H900 0.950 . S
C906 C907 1.327 . S
C907 H901 0.950 . S
C907 C906 1.327 . S
C907 C911 1.429 . S
C908 C891 1.574 . S
C908 H902 0.949 . S
C908 C912 1.368 . S
C909 C890 1.429 . S
C909 C903 1.429 . S
C909 C910 1.523 . S
C910 C891 1.368 . S
C910 C904 1.368 . S
C910 C909 1.523 . S
C911 C895 1.429 . S
C911 C907 1.429 . S
C911 C912 1.523 . S
C912 C896 1.368 . S
C912 C908 1.368 . S
C912 C911 1.523 . S
H913 C888 0.950 . S
H914 C890 0.950 . S
H915 C891 0.949 . S
H916 C893 0.950 . S
H917 C895 0.950 . S
C918 C919 1.349 . S
C918 C920 1.327 . S
C918 H943 0.950 . S
C919 C918 1.349 . S
C919 C935 1.349 . S
C920 C918 1.327 . S
C920 C939 1.429 . S
C920 H944 0.950 . S
C921 C938 1.574 . S
C921 C940 1.368 . S
C921 H945 0.949 . S
H922 C926 0.949 . S
C923 C924 1.349 . S
C923 C925 1.327 . S
C923 H946 0.950 . S
C924 C923 1.349 . S
C924 C936 1.349 . S
C925 C923 1.327 . S
C925 C941 1.429 . S
C925 H947 0.950 . S
C926 H922 0.949 . S
C926 C934 1.574 . S
C926 C942 1.368 . S
H927 C935 0.950 . S
H928 C933 0.950 . S
H929 C934 0.949 . S
H930 C936 0.950 . S
H931 C937 0.950 . S
H932 C938 0.949 . S
C933 H928 0.950 . S
C933 C935 1.327 . S
C933 C939 1.429 . S
C934 C926 1.574 . S
C934 H929 0.949 . S
C934 C940 1.368 . S
C935 C919 1.349 . S
C935 H927 0.950 . S
C935 C933 1.327 . S
C936 C924 1.349 . S
C936 H930 0.950 . S
C936 C937 1.327 . S
C937 H931 0.950 . S
C937 C936 1.327 . S
C937 C941 1.429 . S
C938 C921 1.574 . S
C938 H932 0.949 . S
C938 C942 1.368 . S
C939 C920 1.429 . S
C939 C933 1.429 . S
C939 C940 1.523 . S
C940 C921 1.368 . S
C940 C934 1.368 . S
C940 C939 1.523 . S
C941 C925 1.429 . S
C941 C937 1.429 . S
C941 C942 1.523 . S
C942 C926 1.368 . S
C942 C938 1.368 . S
C942 C941 1.523 . S
H943 C918 0.950 . S
H944 C920 0.950 . S
H945 C921 0.949 . S
H946 C923 0.950 . S
H947 C925 0.950 . S
C948 C949 1.349 . S
C948 C950 1.327 . S
C948 H973 0.950 . S
C949 C948 1.349 . S
C949 C965 1.349 . S
C950 C948 1.327 . S
C950 C969 1.429 . S
C950 H974 0.950 . S
C951 C968 1.574 . S
C951 C970 1.368 . S
C951 H975 0.949 . S
H952 C956 0.949 . S
C953 C954 1.349 . S
C953 C955 1.327 . S
C953 H976 0.950 . S
C954 C953 1.349 . S
C954 C966 1.349 . S
C955 C953 1.327 . S
C955 C971 1.429 . S
C955 H977 0.950 . S
C956 H952 0.949 . S
C956 C964 1.574 . S
C956 C972 1.368 . S
H957 C965 0.950 . S
H958 C963 0.950 . S
H959 C964 0.949 . S
H960 C966 0.950 . S
H961 C967 0.950 . S
H962 C968 0.949 . S
C963 H958 0.950 . S
C963 C965 1.327 . S
C963 C969 1.429 . S
C964 C956 1.574 . S
C964 H959 0.949 . S
C964 C970 1.368 . S
C965 C949 1.349 . S
C965 H957 0.950 . S
C965 C963 1.327 . S
C966 C954 1.349 . S
C966 H960 0.950 . S
C966 C967 1.327 . S
C967 H961 0.950 . S
C967 C966 1.327 . S
C967 C971 1.429 . S
C968 C951 1.574 . S
C968 H962 0.949 . S
C968 C972 1.368 . S
C969 C950 1.429 . S
C969 C963 1.429 . S
C969 C970 1.523 . S
C970 C951 1.368 . S
C970 C964 1.368 . S
C970 C969 1.523 . S
C971 C955 1.429 . S
C971 C967 1.429 . S
C971 C972 1.523 . S
C972 C956 1.368 . S
C972 C968 1.368 . S
C972 C971 1.523 . S
H973 C948 0.950 . S
H974 C950 0.950 . S
H975 C951 0.949 . S
H976 C953 0.950 . S
H977 C955 0.950 . S
C978 C979 1.349 . S
C978 C980 1.327 . S
C978 H1003 0.950 . S
C979 C978 1.349 . S
C979 C995 1.349 . S
C980 C978 1.327 . S
C980 C999 1.429 . S
C980 H1004 0.950 . S
C981 C998 1.574 . S
C981 C1000 1.368 . S
C981 H1005 0.949 . S
H982 C986 0.949 . S
C983 C984 1.349 . S
C983 C985 1.327 . S
C983 H1006 0.950 . S
C984 C983 1.349 . S
C984 C996 1.349 . S
C985 C983 1.327 . S
C985 C1001 1.429 . S
C985 H1007 0.950 . S
C986 H982 0.949 . S
C986 C994 1.574 . S
C986 C1002 1.368 . S
H987 C995 0.950 . S
H988 C993 0.950 . S
H989 C994 0.949 . S
H990 C996 0.950 . S
H991 C997 0.950 . S
H992 C998 0.949 . S
C993 H988 0.950 . S
C993 C995 1.327 . S
C993 C999 1.429 . S
C994 C986 1.574 . S
C994 H989 0.949 . S
C994 C1000 1.368 . S
C995 C979 1.349 . S
C995 H987 0.950 . S
C995 C993 1.327 . S
C996 C984 1.349 . S
C996 H990 0.950 . S
C996 C997 1.327 . S
C997 H991 0.950 . S
C997 C996 1.327 . S
C997 C1001 1.429 . S
C998 C981 1.574 . S
C998 H992 0.949 . S
C998 C1002 1.368 . S
C999 C980 1.429 . S
C999 C993 1.429 . S
C999 C1000 1.523 . S
C1000 C981 1.368 . S
C1000 C994 1.368 . S
C1000 C999 1.523 . S
C1001 C985 1.429 . S
C1001 C997 1.429 . S
C1001 C1002 1.523 . S
C1002 C986 1.368 . S
C1002 C998 1.368 . S
C1002 C1001 1.523 . S
H1003 C978 0.950 . S
H1004 C980 0.950 . S
H1005 C981 0.949 . S
H1006 C983 0.950 . S
H1007 C985 0.950 . S
C1008 C1009 1.349 . S
C1008 C1010 1.327 . S
C1008 H1033 0.950 . S
C1009 C1008 1.349 . S
C1009 C1025 1.349 . S
C1010 C1008 1.327 . S
C1010 C1029 1.429 . S
C1010 H1034 0.950 . S
C1011 C1028 1.574 . S
C1011 C1030 1.368 . S
C1011 H1035 0.949 . S
H1012 C1016 0.949 . S
C1013 C1014 1.349 . S
C1013 C1015 1.327 . S
C1013 H1036 0.950 . S
C1014 C1013 1.349 . S
C1014 C1026 1.349 . S
C1015 C1013 1.327 . S
C1015 C1031 1.429 . S
C1015 H1037 0.950 . S
C1016 H1012 0.949 . S
C1016 C1024 1.574 . S
C1016 C1032 1.368 . S
H1017 C1025 0.950 . S
H1018 C1023 0.950 . S
H1019 C1024 0.949 . S
H1020 C1026 0.950 . S
H1021 C1027 0.950 . S
H1022 C1028 0.949 . S
C1023 H1018 0.950 . S
C1023 C1025 1.327 . S
C1023 C1029 1.429 . S
C1024 C1016 1.574 . S
C1024 H1019 0.949 . S
C1024 C1030 1.368 . S
C1025 C1009 1.349 . S
C1025 H1017 0.950 . S
C1025 C1023 1.327 . S
C1026 C1014 1.349 . S
C1026 H1020 0.950 . S
C1026 C1027 1.327 . S
C1027 H1021 0.950 . S
C1027 C1026 1.327 . S
C1027 C1031 1.429 . S
C1028 C1011 1.574 . S
C1028 H1022 0.949 . S
C1028 C1032 1.368 . S
C1029 C1010 1.429 . S
C1029 C1023 1.429 . S
C1029 C1030 1.523 . S
C1030 C1011 1.368 . S
C1030 C1024 1.368 . S
C1030 C1029 1.523 . S
C1031 C1015 1.429 . S
C1031 C1027 1.429 . S
C1031 C1032 1.523 . S
C1032 C1016 1.368 . S
C1032 C1028 1.368 . S
C1032 C1031 1.523 . S
H1033 C1008 0.950 . S
H1034 C1010 0.950 . S
H1035 C1011 0.949 . S
H1036 C1013 0.950 . S
H1037 C1015 0.950 . S
C1038 C1039 1.349 . S
C1038 C1040 1.327 . S
C1038 H1063 0.950 . S
C1039 C1038 1.349 . S
C1039 C1055 1.349 . S
C1040 C1038 1.327 . S
C1040 C1059 1.429 . S
C1040 H1064 0.950 . S
C1041 C1058 1.574 . S
C1041 C1060 1.368 . S
C1041 H1065 0.949 . S
H1042 C1046 0.949 . S
C1043 C1044 1.349 . S
C1043 C1045 1.327 . S
C1043 H1066 0.950 . S
C1044 C1043 1.349 . S
C1044 C1056 1.349 . S
C1045 C1043 1.327 . S
C1045 C1061 1.429 . S
C1045 H1067 0.950 . S
C1046 H1042 0.949 . S
C1046 C1054 1.574 . S
C1046 C1062 1.368 . S
H1047 C1055 0.950 . S
H1048 C1053 0.950 . S
H1049 C1054 0.949 . S
H1050 C1056 0.950 . S
H1051 C1057 0.950 . S
H1052 C1058 0.949 . S
C1053 H1048 0.950 . S
C1053 C1055 1.327 . S
C1053 C1059 1.429 . S
C1054 C1046 1.574 . S
C1054 H1049 0.949 . S
C1054 C1060 1.368 . S
C1055 C1039 1.349 . S
C1055 H1047 0.950 . S
C1055 C1053 1.327 . S
C1056 C1044 1.349 . S
C1056 H1050 0.950 . S
C1056 C1057 1.327 . S
C1057 H1051 0.950 . S
C1057 C1056 1.327 . S
C1057 C1061 1.429 . S
C1058 C1041 1.574 . S
C1058 H1052 0.949 . S
C1058 C1062 1.368 . S
C1059 C1040 1.429 . S
C1059 C1053 1.429 . S
C1059 C1060 1.523 . S
C1060 C1041 1.368 . S
C1060 C1054 1.368 . S
C1060 C1059 1.523 . S
C1061 C1045 1.429 . S
C1061 C1057 1.429 . S
C1061 C1062 1.523 . S
C1062 C1046 1.368 . S
C1062 C1058 1.368 . S
C1062 C1061 1.523 . S
H1063 C1038 0.950 . S
H1064 C1040 0.950 . S
H1065 C1041 0.949 . S
H1066 C1043 0.950 . S
H1067 C1045 0.950 . S
C1068 C1069 1.349 . S
C1068 C1070 1.327 . S
C1068 H1093 0.950 . S
C1069 C1068 1.349 . S
C1069 C1085 1.349 . S
C1070 C1068 1.327 . S
C1070 C1089 1.429 . S
C1070 H1094 0.950 . S
C1071 C1088 1.574 . S
C1071 C1090 1.368 . S
C1071 H1095 0.949 . S
H1072 C1076 0.949 . S
C1073 C1074 1.349 . S
C1073 C1075 1.327 . S
C1073 H1096 0.950 . S
C1074 C1073 1.349 . S
C1074 C1086 1.349 . S
C1075 C1073 1.327 . S
C1075 C1091 1.429 . S
C1075 H1097 0.950 . S
C1076 H1072 0.949 . S
C1076 C1084 1.574 . S
C1076 C1092 1.368 . S
H1077 C1085 0.950 . S
H1078 C1083 0.950 . S
H1079 C1084 0.949 . S
H1080 C1086 0.950 . S
H1081 C1087 0.950 . S
H1082 C1088 0.949 . S
C1083 H1078 0.950 . S
C1083 C1085 1.327 . S
C1083 C1089 1.429 . S
C1084 C1076 1.574 . S
C1084 H1079 0.949 . S
C1084 C1090 1.368 . S
C1085 C1069 1.349 . S
C1085 H1077 0.950 . S
C1085 C1083 1.327 . S
C1086 C1074 1.349 . S
C1086 H1080 0.950 . S
C1086 C1087 1.327 . S
C1087 H1081 0.950 . S
C1087 C1086 1.327 . S
C1087 C1091 1.429 . S
C1088 C1071 1.574 . S
C1088 H1082 0.949 . S
C1088 C1092 1.368 . S
C1089 C1070 1.429 . S
C1089 C1083 1.429 . S
C1089 C1090 1.523 . S
C1090 C1071 1.368 . S
C1090 C1084 1.368 . S
C1090 C1089 1.523 . S
C1091 C1075 1.429 . S
C1091 C1087 1.429 . S
C1091 C1092 1.523 . S
C1092 C1076 1.368 . S
C1092 C1088 1.368 . S
C1092 C1091 1.523 . S
H1093 C1068 0.950 . S
H1094 C1070 0.950 . S
H1095 C1071 0.949 . S
H1096 C1073 0.950 . S
H1097 C1075 0.950 . S
C1098 C1099 1.349 . S
C1098 C1100 1.327 . S
C1098 H1123 0.950 . S
C1099 C1098 1.349 . S
C1099 C1115 1.349 . S
C1100 C1098 1.327 . S
C1100 C1119 1.429 . S
C1100 H1124 0.950 . S
C1101 C1118 1.574 . S
C1101 C1120 1.368 . S
C1101 H1125 0.949 . S
H1102 C1106 0.949 . S
C1103 C1104 1.349 . S
C1103 C1105 1.327 . S
C1103 H1126 0.950 . S
C1104 C1103 1.349 . S
C1104 C1116 1.349 . S
C1105 C1103 1.327 . S
C1105 C1121 1.429 . S
C1105 H1127 0.950 . S
C1106 H1102 0.949 . S
C1106 C1114 1.574 . S
C1106 C1122 1.368 . S
H1107 C1115 0.950 . S
H1108 C1113 0.950 . S
H1109 C1114 0.949 . S
H1110 C1116 0.950 . S
H1111 C1117 0.950 . S
H1112 C1118 0.949 . S
C1113 H1108 0.950 . S
C1113 C1115 1.327 . S
C1113 C1119 1.429 . S
C1114 C1106 1.574 . S
C1114 H1109 0.949 . S
C1114 C1120 1.368 . S
C1115 C1099 1.349 . S
C1115 H1107 0.950 . S
C1115 C1113 1.327 . S
C1116 C1104 1.349 . S
C1116 H1110 0.950 . S
C1116 C1117 1.327 . S
C1117 H1111 0.950 . S
C1117 C1116 1.327 . S
C1117 C1121 1.429 . S
C1118 C1101 1.574 . S
C1118 H1112 0.949 . S
C1118 C1122 1.368 . S
C1119 C1100 1.429 . S
C1119 C1113 1.429 . S
C1119 C1120 1.523 1_554 S
C1120 C1101 1.368 . S
C1120 C1114 1.368 . S
C1120 C1119 1.523 1_556 S
C1121 C1105 1.429 . S
C1121 C1117 1.429 . S
C1121 C1122 1.523 . S
C1122 C1106 1.368 . S
C1122 C1118 1.368 . S
C1122 C1121 1.523 . S
H1123 C1098 0.950 . S
H1124 C1100 0.950 . S
H1125 C1101 0.949 . S
H1126 C1103 0.950 . S
H1127 C1105 0.950 . S
C409 C7 1.576 . S
C414 C109 1.458 . S
C439 C37 1.474 . S
C444 C149 1.326 . S
C469 C54 1.656 . S
C474 C170 1.535 . S
C504 C229 1.450 . S
C499 C87 1.449 . S
C534 C269 1.400 . S
C529 C30 1.512 . S
C559 C51 1.473 . S
C564 C290 1.422 . S
C589 C84 1.765 . S
C594 C330 1.634 . S
C619 C10 1.422 1_556 S
C624 C389 1.278 . S
C649 C59 1.535 . S
C654 C370 1.454 . S
C684 C250 1.240 . S
C679 C74 1.338 . S
C714 C309 1.597 . S
C709 C18 1.777 . S
C739 C32 1.460 . S
C744 C349 1.377 . S
C774 C130 1.439 . S
C769 C73 1.521 . S
C799 C15 1.527 . S
C804 C189 1.452 . S
C834 C210 1.712 . S
C829 C43 1.749 . S
C864 C90 1.260 . S
C859 C62 1.360 . S
C894 C343 1.483 . S
C889 C21 1.536 . S
C924 C383 1.300 . S
C919 C29 1.319 . S
C949 C52 1.218 . S
C954 C263 1.193 . S
C984 C303 1.473 . S
C979 C81 1.525 . S
C1014 C183 1.438 . S
C1009 C40 1.478 . S
C1039 C65 1.470 . S
C1044 C223 1.431 . S
C1074 C103 1.237 . S
C1069 C76 1.265 . S
C1104 C143 1.299 . S
C1099 C8 1.330 . S
