# Generated by pormake.
# Topology gar, (4,6)-cn, num edge types: 1
# Building blocks:
#     Node 0, Type 0, BuildingBlock: KUFVIS_clean_sbu_0, # of connection points: 4
#     Node 1, Type 0, BuildingBlock: KUFVIS_clean_sbu_0, # of connection points: 4
#     Node 2, Type 0, BuildingBlock: KUFVIS_clean_sbu_0, # of connection points: 4
#     Node 3, Type 0, BuildingBlock: KUFVIS_clean_sbu_0, # of connection points: 4
#     Node 4, Type 0, BuildingBlock: KUFVIS_clean_sbu_0, # of connection points: 4
#     Node 5, Type 0, BuildingBlock: KUFVIS_clean_sbu_0, # of connection points: 4
#     Node 6, Type 0, BuildingBlock: KUFVIS_clean_sbu_0, # of connection points: 4
#     Node 7, Type 0, BuildingBlock: KUFVIS_clean_sbu_0, # of connection points: 4
#     Node 8, Type 0, BuildingBlock: KUFVIS_clean_sbu_0, # of connection points: 4
#     Node 9, Type 0, BuildingBlock: KUFVIS_clean_sbu_0, # of connection points: 4
#     Node 10, Type 0, BuildingBlock: KUFVIS_clean_sbu_0, # of connection points: 4
#     Node 11, Type 0, BuildingBlock: KUFVIS_clean_sbu_0, # of connection points: 4
#     Node 12, Type 0, BuildingBlock: KUFVIS_clean_sbu_0, # of connection points: 4
#     Node 13, Type 0, BuildingBlock: KUFVIS_clean_sbu_0, # of connection points: 4
#     Node 14, Type 0, BuildingBlock: KUFVIS_clean_sbu_0, # of connection points: 4
#     Node 15, Type 0, BuildingBlock: KUFVIS_clean_sbu_0, # of connection points: 4
#     Node 16, Type 0, BuildingBlock: KUFVIS_clean_sbu_0, # of connection points: 4
#     Node 17, Type 0, BuildingBlock: KUFVIS_clean_sbu_0, # of connection points: 4
#     Node 18, Type 0, BuildingBlock: KUFVIS_clean_sbu_0, # of connection points: 4
#     Node 19, Type 0, BuildingBlock: KUFVIS_clean_sbu_0, # of connection points: 4
#     Node 20, Type 0, BuildingBlock: KUFVIS_clean_sbu_0, # of connection points: 4
#     Node 21, Type 0, BuildingBlock: KUFVIS_clean_sbu_0, # of connection points: 4
#     Node 22, Type 0, BuildingBlock: KUFVIS_clean_sbu_0, # of connection points: 4
#     Node 23, Type 0, BuildingBlock: KUFVIS_clean_sbu_0, # of connection points: 4
#     Node 24, Type 1, BuildingBlock: MIFKUJ_clean_sbu_0, # of connection points: 6
#     Node 25, Type 1, BuildingBlock: MIFKUJ_clean_sbu_0, # of connection points: 6
#     Node 26, Type 1, BuildingBlock: MIFKUJ_clean_sbu_0, # of connection points: 6
#     Node 27, Type 1, BuildingBlock: MIFKUJ_clean_sbu_0, # of connection points: 6
#     Node 28, Type 1, BuildingBlock: MIFKUJ_clean_sbu_0, # of connection points: 6
#     Node 29, Type 1, BuildingBlock: MIFKUJ_clean_sbu_0, # of connection points: 6
#     Node 30, Type 1, BuildingBlock: MIFKUJ_clean_sbu_0, # of connection points: 6
#     Node 31, Type 1, BuildingBlock: MIFKUJ_clean_sbu_0, # of connection points: 6
#     Node 32, Type 1, BuildingBlock: MIFKUJ_clean_sbu_0, # of connection points: 6
#     Node 33, Type 1, BuildingBlock: MIFKUJ_clean_sbu_0, # of connection points: 6
#     Node 34, Type 1, BuildingBlock: MIFKUJ_clean_sbu_0, # of connection points: 6
#     Node 35, Type 1, BuildingBlock: MIFKUJ_clean_sbu_0, # of connection points: 6
#     Node 36, Type 1, BuildingBlock: MIFKUJ_clean_sbu_0, # of connection points: 6
#     Node 37, Type 1, BuildingBlock: MIFKUJ_clean_sbu_0, # of connection points: 6
#     Node 38, Type 1, BuildingBlock: MIFKUJ_clean_sbu_0, # of connection points: 6
#     Node 39, Type 1, BuildingBlock: MIFKUJ_clean_sbu_0, # of connection points: 6
#     Edge 40, Type (0, 1), BuildingBlock: AJUNOK_clean_linker_0, # of connection points: 2
#     Edge 41, Type (0, 1), BuildingBlock: AJUNOK_clean_linker_0, # of connection points: 2
#     Edge 42, Type (0, 1), BuildingBlock: AJUNOK_clean_linker_0, # of connection points: 2
#     Edge 43, Type (0, 1), BuildingBlock: AJUNOK_clean_linker_0, # of connection points: 2
#     Edge 44, Type (0, 1), BuildingBlock: AJUNOK_clean_linker_0, # of connection points: 2
#     Edge 45, Type (0, 1), BuildingBlock: AJUNOK_clean_linker_0, # of connection points: 2
#     Edge 46, Type (0, 1), BuildingBlock: AJUNOK_clean_linker_0, # of connection points: 2
#     Edge 47, Type (0, 1), BuildingBlock: AJUNOK_clean_linker_0, # of connection points: 2
#     Edge 48, Type (0, 1), BuildingBlock: AJUNOK_clean_linker_0, # of connection points: 2
#     Edge 49, Type (0, 1), BuildingBlock: AJUNOK_clean_linker_0, # of connection points: 2
#     Edge 50, Type (0, 1), BuildingBlock: AJUNOK_clean_linker_0, # of connection points: 2
#     Edge 51, Type (0, 1), BuildingBlock: AJUNOK_clean_linker_0, # of connection points: 2
#     Edge 52, Type (0, 1), BuildingBlock: AJUNOK_clean_linker_0, # of connection points: 2
#     Edge 53, Type (0, 1), BuildingBlock: AJUNOK_clean_linker_0, # of connection points: 2
#     Edge 54, Type (0, 1), BuildingBlock: AJUNOK_clean_linker_0, # of connection points: 2
#     Edge 55, Type (0, 1), BuildingBlock: AJUNOK_clean_linker_0, # of connection points: 2
#     Edge 56, Type (0, 1), BuildingBlock: AJUNOK_clean_linker_0, # of connection points: 2
#     Edge 57, Type (0, 1), BuildingBlock: AJUNOK_clean_linker_0, # of connection points: 2
#     Edge 58, Type (0, 1), BuildingBlock: AJUNOK_clean_linker_0, # of connection points: 2
#     Edge 59, Type (0, 1), BuildingBlock: AJUNOK_clean_linker_0, # of connection points: 2
#     Edge 60, Type (0, 1), BuildingBlock: AJUNOK_clean_linker_0, # of connection points: 2
#     Edge 61, Type (0, 1), BuildingBlock: AJUNOK_clean_linker_0, # of connection points: 2
#     Edge 62, Type (0, 1), BuildingBlock: AJUNOK_clean_linker_0, # of connection points: 2
#     Edge 63, Type (0, 1), BuildingBlock: AJUNOK_clean_linker_0, # of connection points: 2
#     Edge 64, Type (0, 1), BuildingBlock: AJUNOK_clean_linker_0, # of connection points: 2
#     Edge 65, Type (0, 1), BuildingBlock: AJUNOK_clean_linker_0, # of connection points: 2
#     Edge 66, Type (0, 1), BuildingBlock: AJUNOK_clean_linker_0, # of connection points: 2
#     Edge 67, Type (0, 1), BuildingBlock: AJUNOK_clean_linker_0, # of connection points: 2
#     Edge 68, Type (0, 1), BuildingBlock: AJUNOK_clean_linker_0, # of connection points: 2
#     Edge 69, Type (0, 1), BuildingBlock: AJUNOK_clean_linker_0, # of connection points: 2
#     Edge 70, Type (0, 1), BuildingBlock: AJUNOK_clean_linker_0, # of connection points: 2
#     Edge 71, Type (0, 1), BuildingBlock: AJUNOK_clean_linker_0, # of connection points: 2
#     Edge 72, Type (0, 1), BuildingBlock: AJUNOK_clean_linker_0, # of connection points: 2
#     Edge 73, Type (0, 1), BuildingBlock: AJUNOK_clean_linker_0, # of connection points: 2
#     Edge 74, Type (0, 1), BuildingBlock: AJUNOK_clean_linker_0, # of connection points: 2
#     Edge 75, Type (0, 1), BuildingBlock: AJUNOK_clean_linker_0, # of connection points: 2
#     Edge 76, Type (0, 1), BuildingBlock: AJUNOK_clean_linker_0, # of connection points: 2
#     Edge 77, Type (0, 1), BuildingBlock: AJUNOK_clean_linker_0, # of connection points: 2
#     Edge 78, Type (0, 1), BuildingBlock: AJUNOK_clean_linker_0, # of connection points: 2
#     Edge 79, Type (0, 1), BuildingBlock: AJUNOK_clean_linker_0, # of connection points: 2
#     Edge 80, Type (0, 1), BuildingBlock: AJUNOK_clean_linker_0, # of connection points: 2
#     Edge 81, Type (0, 1), BuildingBlock: AJUNOK_clean_linker_0, # of connection points: 2
#     Edge 82, Type (0, 1), BuildingBlock: AJUNOK_clean_linker_0, # of connection points: 2
#     Edge 83, Type (0, 1), BuildingBlock: AJUNOK_clean_linker_0, # of connection points: 2
#     Edge 84, Type (0, 1), BuildingBlock: AJUNOK_clean_linker_0, # of connection points: 2
#     Edge 85, Type (0, 1), BuildingBlock: AJUNOK_clean_linker_0, # of connection points: 2
#     Edge 86, Type (0, 1), BuildingBlock: AJUNOK_clean_linker_0, # of connection points: 2
#     Edge 87, Type (0, 1), BuildingBlock: AJUNOK_clean_linker_0, # of connection points: 2
#     Edge 88, Type (0, 1), BuildingBlock: AJUNOK_clean_linker_0, # of connection points: 2
#     Edge 89, Type (0, 1), BuildingBlock: AJUNOK_clean_linker_0, # of connection points: 2
#     Edge 90, Type (0, 1), BuildingBlock: AJUNOK_clean_linker_0, # of connection points: 2
#     Edge 91, Type (0, 1), BuildingBlock: AJUNOK_clean_linker_0, # of connection points: 2
#     Edge 92, Type (0, 1), BuildingBlock: AJUNOK_clean_linker_0, # of connection points: 2
#     Edge 93, Type (0, 1), BuildingBlock: AJUNOK_clean_linker_0, # of connection points: 2
#     Edge 94, Type (0, 1), BuildingBlock: AJUNOK_clean_linker_0, # of connection points: 2
#     Edge 95, Type (0, 1), BuildingBlock: AJUNOK_clean_linker_0, # of connection points: 2
#     Edge 96, Type (0, 1), BuildingBlock: AJUNOK_clean_linker_0, # of connection points: 2
#     Edge 97, Type (0, 1), BuildingBlock: AJUNOK_clean_linker_0, # of connection points: 2
#     Edge 98, Type (0, 1), BuildingBlock: AJUNOK_clean_linker_0, # of connection points: 2
#     Edge 99, Type (0, 1), BuildingBlock: AJUNOK_clean_linker_0, # of connection points: 2
#     Edge 100, Type (0, 1), BuildingBlock: AJUNOK_clean_linker_0, # of connection points: 2
#     Edge 101, Type (0, 1), BuildingBlock: AJUNOK_clean_linker_0, # of connection points: 2
#     Edge 102, Type (0, 1), BuildingBlock: AJUNOK_clean_linker_0, # of connection points: 2
#     Edge 103, Type (0, 1), BuildingBlock: AJUNOK_clean_linker_0, # of connection points: 2
#     Edge 104, Type (0, 1), BuildingBlock: AJUNOK_clean_linker_0, # of connection points: 2
#     Edge 105, Type (0, 1), BuildingBlock: AJUNOK_clean_linker_0, # of connection points: 2
#     Edge 106, Type (0, 1), BuildingBlock: AJUNOK_clean_linker_0, # of connection points: 2
#     Edge 107, Type (0, 1), BuildingBlock: AJUNOK_clean_linker_0, # of connection points: 2
#     Edge 108, Type (0, 1), BuildingBlock: AJUNOK_clean_linker_0, # of connection points: 2
#     Edge 109, Type (0, 1), BuildingBlock: AJUNOK_clean_linker_0, # of connection points: 2
#     Edge 110, Type (0, 1), BuildingBlock: AJUNOK_clean_linker_0, # of connection points: 2
#     Edge 111, Type (0, 1), BuildingBlock: AJUNOK_clean_linker_0, # of connection points: 2
#     Edge 112, Type (0, 1), BuildingBlock: AJUNOK_clean_linker_0, # of connection points: 2
#     Edge 113, Type (0, 1), BuildingBlock: AJUNOK_clean_linker_0, # of connection points: 2
#     Edge 114, Type (0, 1), BuildingBlock: AJUNOK_clean_linker_0, # of connection points: 2
#     Edge 115, Type (0, 1), BuildingBlock: AJUNOK_clean_linker_0, # of connection points: 2
#     Edge 116, Type (0, 1), BuildingBlock: AJUNOK_clean_linker_0, # of connection points: 2
#     Edge 117, Type (0, 1), BuildingBlock: AJUNOK_clean_linker_0, # of connection points: 2
#     Edge 118, Type (0, 1), BuildingBlock: AJUNOK_clean_linker_0, # of connection points: 2
#     Edge 119, Type (0, 1), BuildingBlock: AJUNOK_clean_linker_0, # of connection points: 2
#     Edge 120, Type (0, 1), BuildingBlock: AJUNOK_clean_linker_0, # of connection points: 2
#     Edge 121, Type (0, 1), BuildingBlock: AJUNOK_clean_linker_0, # of connection points: 2
#     Edge 122, Type (0, 1), BuildingBlock: AJUNOK_clean_linker_0, # of connection points: 2
#     Edge 123, Type (0, 1), BuildingBlock: AJUNOK_clean_linker_0, # of connection points: 2
#     Edge 124, Type (0, 1), BuildingBlock: AJUNOK_clean_linker_0, # of connection points: 2
#     Edge 125, Type (0, 1), BuildingBlock: AJUNOK_clean_linker_0, # of connection points: 2
#     Edge 126, Type (0, 1), BuildingBlock: AJUNOK_clean_linker_0, # of connection points: 2
#     Edge 127, Type (0, 1), BuildingBlock: AJUNOK_clean_linker_0, # of connection points: 2
#     Edge 128, Type (0, 1), BuildingBlock: AJUNOK_clean_linker_0, # of connection points: 2
#     Edge 129, Type (0, 1), BuildingBlock: AJUNOK_clean_linker_0, # of connection points: 2
#     Edge 130, Type (0, 1), BuildingBlock: AJUNOK_clean_linker_0, # of connection points: 2
#     Edge 131, Type (0, 1), BuildingBlock: AJUNOK_clean_linker_0, # of connection points: 2
#     Edge 132, Type (0, 1), BuildingBlock: AJUNOK_clean_linker_0, # of connection points: 2
#     Edge 133, Type (0, 1), BuildingBlock: AJUNOK_clean_linker_0, # of connection points: 2
#     Edge 134, Type (0, 1), BuildingBlock: AJUNOK_clean_linker_0, # of connection points: 2
#     Edge 135, Type (0, 1), BuildingBlock: AJUNOK_clean_linker_0, # of connection points: 2
# Relax obj value: 0.103
# Max RMSD: 0.305
# Mean RMSD: 0.130
data_MOF--net-gar--node1-KUFVIS_clean_sbu_0--node2-MIFKUJ_clean_sbu_0--edge1-AJUNOK_clean_linker_0
_symmetry_space_group_name_H-M    P1
_symmetry_Int_Tables_number       1
_symmetry_cell_setting            triclinic
loop_
_symmetry_equiv_pos_as_xyz
'x, y, z'
_cell_length_a     41.875781
_cell_length_b     42.058035
_cell_length_c     41.238569
_cell_angle_alpha  94.401056
_cell_angle_beta   94.633632
_cell_angle_gamma 99.903316
loop_
_atom_site_label
_atom_site_type_symbol
_atom_site_fract_x
_atom_site_fract_y
_atom_site_fract_z
_atom_type_partial_charge
Mn0 Mn 0.02638 0.27392 0.41752 0.0
Mn1 Mn 0.01892 0.32245 0.35648 0.0
C2 C 0.9752 0.28098 0.39822 0.0
C3 C 0.03158 0.22393 0.43486 0.0
C4 C 0.03814 0.34751 0.42794 0.0
O5 O 0.07066 0.27961 0.4001 0.0
O6 O 0.06136 0.30714 0.35663 0.0
C7 C 0.01503 0.2696 0.30384 0.0
N8 N 0.00424 0.297 0.31426 0.0
C9 C 0.96546 0.29072 0.26547 0.0
C10 C 0.97923 0.26445 0.25362 0.0
C11 C 0.00367 0.25369 0.27288 0.0
C12 C 0.98077 0.30765 0.29532 0.0
H13 H 0.0319 0.25958 0.31947 0.0
C14 C 0.07909 0.29175 0.37407 0.0
O15 O 0.04154 0.2504 0.45389 0.0
O16 O 0.01952 0.22652 0.40537 0.0
N17 N 0.97976 0.33994 0.35342 0.0
C18 C 0.95556 0.3532 0.3857 0.0
C19 C 0.90723 0.35835 0.37293 0.0
C20 C 0.88962 0.34829 0.3233 0.0
C21 C 0.92173 0.33326 0.29148 0.0
C22 C 0.96716 0.33023 0.31031 0.0
H23 H 0.96507 0.35572 0.41109 0.0
O24 O 0.98031 0.27009 0.42639 0.0
O25 O 1.00017 0.28626 0.381 0.0
O26 O 0.03615 0.32021 0.43973 0.0
O27 O 0.03354 0.35053 0.39739 0.0
C28 C 0.91402 0.31636 0.26115 0.0
C29 C 0.93585 0.297 0.24871 0.0
H30 H 0.96962 0.25078 0.23052 0.0
H31 H 0.01289 0.23235 0.26436 0.0
H32 H 0.89178 0.36437 0.39135 0.0
H33 H 0.8644 0.34821 0.31517 0.0
H34 H 0.89034 0.31562 0.24819 0.0
H35 H 0.92727 0.28317 0.22545 0.0
Mn36 Mn 0.0219 0.74274 0.64181 0.0
Mn37 Mn 0.03461 0.79688 0.70805 0.0
C38 C 0.07324 0.75793 0.66859 0.0
C39 C 0.00874 0.69053 0.61601 0.0
C40 C 0.02116 0.81355 0.63888 0.0
O41 O 0.97628 0.74414 0.65598 0.0
O42 O 0.98982 0.77194 0.70598 0.0
C43 C 0.03277 0.75386 0.76169 0.0
N44 N 0.04851 0.77893 0.74683 0.0
C45 C 0.09341 0.7882 0.78873 0.0
C46 C 0.07707 0.76322 0.80511 0.0
C47 C 0.04674 0.74577 0.79136 0.0
C48 C 0.07812 0.79528 0.75936 0.0
H49 H 0.01007 0.73988 0.75065 0.0
C50 C 0.96917 0.75489 0.68396 0.0
O51 O 0.00506 0.71563 0.60073 0.0
O52 O 0.01766 0.69546 0.6472 0.0
N53 N 0.07757 0.82234 0.71228 0.0
C54 C 0.091 0.84446 0.69249 0.0
C55 C 0.12224 0.86261 0.70163 0.0
C56 C 0.13919 0.85813 0.7312 0.0
C57 C 0.12472 0.83565 0.75143 0.0
C58 C 0.09353 0.81825 0.74103 0.0
H59 H 0.07809 0.84835 0.66989 0.0
O60 O 0.06953 0.74515 0.63855 0.0
O61 O 0.04695 0.76088 0.68205 0.0
O62 O 0.02445 0.78673 0.62469 0.0
O63 O 0.02127 0.81891 0.66974 0.0
C64 C 0.14007 0.82969 0.78143 0.0
C65 C 0.12453 0.8059 0.80003 0.0
H66 H 0.08787 0.75682 0.82792 0.0
H67 H 0.03425 0.726 0.80348 0.0
H68 H 0.13321 0.88003 0.68595 0.0
H69 H 0.16331 0.87198 0.738 0.0
H70 H 0.16387 0.84313 0.79033 0.0
H71 H 0.13689 0.80119 0.8228 0.0
Mn72 Mn 0.52279 0.77926 0.91704 0.0
Mn73 Mn 0.52635 0.8288 0.85621 0.0
C74 C 0.47598 0.78972 0.89039 0.0
C75 C 0.52028 0.7288 0.93589 0.0
C76 C 0.54038 0.85273 0.92822 0.0
O77 O 0.5683 0.77939 0.90333 0.0
O78 O 0.56714 0.81094 0.86129 0.0
C79 C 0.52952 0.78396 0.79803 0.0
N80 N 0.51405 0.80541 0.81418 0.0
C81 C 0.47452 0.80312 0.76791 0.0
C82 C 0.49012 0.78112 0.75077 0.0
C83 C 0.51769 0.77144 0.76593 0.0
C84 C 0.48765 0.8151 0.7997 0.0
H85 H 0.55084 0.77657 0.80945 0.0
C86 C 0.5806 0.7923 0.87909 0.0
O87 O 0.53074 0.75494 0.95526 0.0
O88 O 0.51204 0.73191 0.90542 0.0
N89 N 0.48736 0.84637 0.84868 0.0
C90 C 0.47382 0.86603 0.86926 0.0
C91 C 0.44521 0.87675 0.85836 0.0
C92 C 0.43065 0.86696 0.82648 0.0
C93 C 0.44473 0.84634 0.80588 0.0
C94 C 0.47336 0.83657 0.81805 0.0
H95 H 0.48418 0.87271 0.8941 0.0
O96 O 0.4758 0.78051 0.91973 0.0
O97 O 0.5035 0.79283 0.87762 0.0
O98 O 0.53505 0.82525 0.93949 0.0
O99 O 0.5388 0.85613 0.89771 0.0
C100 C 0.43114 0.83463 0.77394 0.0
C101 C 0.44611 0.81317 0.75491 0.0
H102 H 0.48093 0.77122 0.7261 0.0
H103 H 0.5298 0.75439 0.75289 0.0
H104 H 0.43417 0.89218 0.87464 0.0
H105 H 0.40841 0.87503 0.81825 0.0
H106 H 0.40902 0.84178 0.76387 0.0
H107 H 0.43532 0.80419 0.73045 0.0
Mn108 Mn 0.51709 0.23744 0.14723 0.0
Mn109 Mn 0.45719 0.22836 0.08601 0.0
C110 C 0.4955 0.18674 0.12207 0.0
C111 C 0.57136 0.24636 0.16689 0.0
C112 C 0.44835 0.24676 0.15697 0.0
O113 O 0.52085 0.28221 0.13098 0.0
O114 O 0.48428 0.27204 0.08624 0.0
C115 C 0.4913 0.23061 0.02594 0.0
N116 N 0.47084 0.21377 0.04522 0.0
C117 C 0.46004 0.16705 0.00581 0.0
C118 C 0.4812 0.18379 0.98567 0.0
C119 C 0.49675 0.21577 0.9957 0.0
C120 C 0.45505 0.18331 0.03537 0.0
H121 H 0.50331 0.25519 0.03355 0.0
C122 C 0.50741 0.29048 0.10471 0.0
O123 O 0.54928 0.25353 0.18505 0.0
O124 O 0.56215 0.23462 0.1369 0.0
N125 N 0.43089 0.18607 0.08413 0.0
C126 C 0.41157 0.17311 0.1066 0.0
C127 C 0.39474 0.14103 0.10055 0.0
C128 C 0.39792 0.1226 0.07149 0.0
C129 C 0.41796 0.13644 0.04875 0.0
C130 C 0.4341 0.16855 0.05608 0.0
H131 H 0.40922 0.18703 0.1291 0.0
O132 O 0.50922 0.18978 0.15185 0.0
O133 O 0.49368 0.21346 0.10902 0.0
O134 O 0.47619 0.24293 0.16877 0.0
O135 O 0.43943 0.24319 0.1264 0.0
C136 C 0.42298 0.11946 0.01935 0.0
C137 C 0.44385 0.13481 0.9978 0.0
H138 H 0.48576 0.17231 0.9625 0.0
H139 H 0.51305 0.22889 0.98025 0.0
H140 H 0.37945 0.13047 0.11831 0.0
H141 H 0.38505 0.0978 0.067 0.0
H142 H 0.41098 0.09455 0.01313 0.0
H143 H 0.44746 0.12152 0.97523 0.0
Mn144 Mn 0.05216 0.77144 0.16407 0.0
Mn145 Mn 0.99284 0.75115 0.10202 0.0
C146 C 0.03946 0.7182 0.14146 0.0
C147 C 0.10577 0.78909 0.18561 0.0
C148 C 0.98088 0.7661 0.1724 0.0
O149 O 0.04555 0.81482 0.14754 0.0
O150 O 0.01279 0.79692 0.10102 0.0
C151 C 0.02772 0.75759 0.04268 0.0
N152 N 0.00766 0.73922 0.06115 0.0
C153 C 0.99573 0.69523 0.01876 0.0
C154 C 0.01607 0.71372 0.9991 0.0
C155 C 0.03221 0.74502 0.01118 0.0
C156 C 0.99181 0.70925 0.0497 0.0
H157 H 0.03992 0.78171 0.05185 0.0
C158 C 0.03036 0.81939 0.12053 0.0
O159 O 0.08165 0.79269 0.20248 0.0
O160 O 0.09871 0.77799 0.15508 0.0
N161 N 0.97165 0.7072 0.10055 0.0
C162 C 0.95556 0.69163 0.12387 0.0
C163 C 0.94053 0.65914 0.11692 0.0
C164 C 0.94183 0.64334 0.08599 0.0
C165 C 0.95798 0.66003 0.06225 0.0
C166 C 0.97289 0.69221 0.07069 0.0
H167 H 0.95467 0.70369 0.14773 0.0
O168 O 0.0544 0.72554 0.17058 0.0
O169 O 0.03276 0.74245 0.12589 0.0
O170 O 0.0096 0.76722 0.18522 0.0
O171 O 0.97304 0.76267 0.14177 0.0
C172 C 0.96111 0.64553 0.03109 0.0
C173 C 0.97977 0.6632 0.00919 0.0
H174 H 0.01972 0.70403 0.97486 0.0
H175 H 0.04799 0.75943 0.9962 0.0
H176 H 0.92823 0.64622 0.1354 0.0
H177 H 0.93121 0.61817 0.08101 0.0
H178 H 0.94985 0.62057 0.02429 0.0
H179 H 0.98249 0.65176 0.98541 0.0
Mn180 Mn 0.49895 0.74453 0.39968 0.0
Mn181 Mn 0.49642 0.78485 0.3324 0.0
C182 C 0.44901 0.74309 0.36981 0.0
C183 C 0.51008 0.70222 0.43029 0.0
C184 C 0.50965 0.81669 0.40163 0.0
O185 O 0.5463 0.75433 0.3877 0.0
O186 O 0.53744 0.7682 0.33642 0.0
C187 C 0.49395 0.73374 0.27829 0.0
N188 N 0.48092 0.75799 0.29291 0.0
C189 C 0.44145 0.75594 0.24668 0.0
C190 C 0.45479 0.73129 0.23087 0.0
C191 C 0.48094 0.71992 0.24689 0.0
C192 C 0.4552 0.76848 0.2781 0.0
H193 H 0.51419 0.72518 0.29048 0.0
C194 C 0.55581 0.76034 0.35962 0.0
O195 O 0.51316 0.73179 0.44255 0.0
O196 O 0.50027 0.69653 0.39918 0.0
N197 N 0.45778 0.80289 0.32552 0.0
C198 C 0.449 0.82814 0.34325 0.0
C199 C 0.42375 0.84278 0.33042 0.0
C200 C 0.40754 0.83135 0.29954 0.0
C201 C 0.41731 0.80574 0.28144 0.0
C202 C 0.44307 0.7924 0.29528 0.0
H203 H 0.46158 0.83772 0.36668 0.0
O204 O 0.45018 0.73579 0.39993 0.0
O205 O 0.4768 0.74973 0.35778 0.0
O206 O 0.50004 0.79132 0.41512 0.0
O207 O 0.51266 0.81626 0.37108 0.0
C208 C 0.40311 0.79351 0.24984 0.0
C209 C 0.41507 0.76853 0.23252 0.0
H210 H 0.44497 0.72074 0.20656 0.0
H211 H 0.4912 0.70074 0.23494 0.0
H212 H 0.41763 0.86347 0.34399 0.0
H213 H 0.38821 0.8429 0.28964 0.0
H214 H 0.38309 0.80325 0.23855 0.0
H215 H 0.40392 0.7593 0.20825 0.0
Mn216 Mn 0.54655 0.26889 0.66629 0.0
Mn217 Mn 0.49062 0.24992 0.6008 0.0
C218 C 0.53421 0.21671 0.64196 0.0
C219 C 0.59944 0.2864 0.68969 0.0
C220 C 0.47395 0.26183 0.67001 0.0
O221 O 0.54185 0.31274 0.65082 0.0
O222 O 0.50876 0.29655 0.60437 0.0
C223 C 0.53253 0.26225 0.54714 0.0
N224 N 0.51046 0.2418 0.56174 0.0
C225 C 0.50493 0.2008 0.5167 0.0
C226 C 0.5276 0.22139 0.50111 0.0
C227 C 0.54163 0.25217 0.51651 0.0
C228 C 0.49723 0.21197 0.54742 0.0
H229 H 0.54286 0.28614 0.55871 0.0
C230 C 0.52597 0.3185 0.62479 0.0
O231 O 0.5747 0.28911 0.70602 0.0
O232 O 0.59339 0.27533 0.65911 0.0
N233 N 0.47061 0.20522 0.59445 0.0
C234 C 0.44976 0.18807 0.6132 0.0
C235 C 0.43416 0.15649 0.60167 0.0
C236 C 0.43953 0.14326 0.5707 0.0
C237 C 0.46065 0.16159 0.55164 0.0
C238 C 0.47591 0.19268 0.56464 0.0
H239 H 0.44503 0.19841 0.63672 0.0
O240 O 0.54746 0.22238 0.67187 0.0
O241 O 0.52894 0.24161 0.62705 0.0
O242 O 0.50247 0.26503 0.68428 0.0
O243 O 0.4673 0.25734 0.63916 0.0
C244 C 0.46699 0.15041 0.52013 0.0
C245 C 0.48941 0.16979 0.50285 0.0
H246 H 0.5344 0.21383 0.47732 0.0
H247 H 0.55912 0.26821 0.50461 0.0
H248 H 0.41779 0.14251 0.61646 0.0
H249 H 0.42738 0.11902 0.56185 0.0
H250 H 0.45455 0.12715 0.50871 0.0
H251 H 0.49435 0.16069 0.47882 0.0
Mn252 Mn 0.99513 0.24398 0.90109 0.0
Mn253 Mn 0.99394 0.28728 0.83693 0.0
C254 C 0.945 0.24455 0.87278 0.0
C255 C 0.00514 0.19809 0.92475 0.0
C256 C 0.00994 0.31551 0.90702 0.0
O257 O 0.04224 0.25394 0.88869 0.0
O258 O 0.03282 0.26695 0.83717 0.0
C259 C 0.98527 0.2388 0.77955 0.0
N260 N 0.97497 0.26338 0.79682 0.0
C261 C 0.92994 0.26212 0.75648 0.0
C262 C 0.94056 0.23741 0.73777 0.0
C263 C 0.9683 0.22561 0.74944 0.0
C264 C 0.94828 0.27483 0.78593 0.0
H265 H 0.00606 0.22917 0.78884 0.0
C266 C 0.05115 0.25862 0.86015 0.0
O267 O 0.00912 0.22596 0.94159 0.0
O268 O 0.99534 0.19668 0.89381 0.0
N269 N 0.95687 0.30798 0.83485 0.0
C270 C 0.94914 0.33111 0.85637 0.0
C271 C 0.92004 0.34257 0.85034 0.0
C272 C 0.89937 0.33026 0.82221 0.0
C273 C 0.90931 0.30894 0.79881 0.0
C274 C 0.93848 0.29815 0.80629 0.0
H275 H 0.96448 0.34042 0.87834 0.0
O276 O 0.94656 0.23539 0.90219 0.0
O277 O 0.97277 0.25197 0.86072 0.0
O278 O 0.9974 0.29048 0.9198 0.0
O279 O 0.01404 0.31534 0.87671 0.0
C280 C 0.8906 0.29657 0.76926 0.0
C281 C 0.90111 0.27364 0.74779 0.0
H282 H 0.9272 0.22684 0.71478 0.0
H283 H 0.97639 0.20618 0.73542 0.0
H284 H 0.91293 0.35985 0.86795 0.0
H285 H 0.87538 0.33647 0.81957 0.0
H286 H 0.86747 0.30352 0.76346 0.0
H287 H 0.8861 0.26401 0.7254 0.0
Mn288 Mn 0.40879 0.01536 0.29386 0.0
Mn289 Mn 0.35459 0.02051 0.34909 0.0
C290 C 0.38147 0.96853 0.31325 0.0
C291 C 0.42377 0.01006 0.24093 0.0
C292 C 0.42783 0.03678 0.36609 0.0
O293 O 0.3972 0.06017 0.28872 0.0
O294 O 0.35858 0.05937 0.32405 0.0
C295 C 0.295 0.01551 0.30362 0.0
N296 N 0.31173 0.00392 0.32845 0.0
C297 C 0.26727 0.95987 0.33131 0.0
C298 C 0.24961 0.97134 0.30575 0.0
C299 C 0.26358 0.99925 0.29181 0.0
C300 C 0.29867 0.97682 0.34173 0.0
H301 H 0.30551 0.03701 0.29293 0.0
C302 C 0.37489 0.0723 0.30196 0.0
O303 O 0.4446 0.02298 0.26532 0.0
O304 O 0.39373 1.00138 0.24711 0.0
N305 N 0.34778 0.98408 0.37445 0.0
C306 C 0.36697 0.97767 0.4006 0.0
C307 C 0.35559 0.95192 0.41884 0.0
C308 C 0.32461 0.93302 0.41006 0.0
C309 C 0.30512 0.94031 0.38335 0.0
C310 C 0.3175 0.9667 0.36651 0.0
H311 H 0.39063 0.9923 0.40787 0.0
O312 O 0.40959 0.9692 0.30189 0.0
O313 O 0.37104 0.99583 0.31387 0.0
O314 O 0.435 0.03006 0.3374 0.0
O315 O 0.39856 0.03647 0.37303 0.0
C316 C 0.27362 0.92285 0.37324 0.0
C317 C 0.25481 0.93245 0.34704 0.0
H318 H 0.22527 0.95899 0.29674 0.0
H319 H 0.25011 0.00828 0.27208 0.0
H320 H 0.37069 0.94664 0.43959 0.0
H321 H 0.31598 0.91305 0.42406 0.0
H322 H 0.26353 0.90214 0.38561 0.0
H323 H 0.23059 0.91887 0.33952 0.0
Mn324 Mn 0.25686 0.14248 0.50762 0.0
Mn325 Mn 0.24516 0.08173 0.44732 0.0
C326 C 0.20381 0.11446 0.49043 0.0
C327 C 0.2664 0.16172 0.56296 0.0
C328 C 0.26402 0.15335 0.43558 0.0
O329 O 0.30177 0.1285 0.5077 0.0
O330 O 0.28914 0.08468 0.47071 0.0
C331 C 0.24507 0.02546 0.4863 0.0
N332 N 0.22991 0.04104 0.46353 0.0
C333 C 0.18406 0.99716 0.45462 0.0
C334 C 0.19929 0.98055 0.47779 0.0
C335 C 0.22986 0.99484 0.49381 0.0
C336 C 0.20028 0.02773 0.44835 0.0
H337 H 0.26861 0.0363 0.49861 0.0
C338 C 0.3086 0.10294 0.49278 0.0
O339 O 0.27334 0.18069 0.54023 0.0
O340 O 0.25486 0.13149 0.55379 0.0
N341 N 0.20328 0.07556 0.42296 0.0
C342 C 0.19176 0.09479 0.40131 0.0
C343 C 0.16161 0.08381 0.38291 0.0
C344 C 0.14369 0.05311 0.38676 0.0
C345 C 0.15614 0.03362 0.40894 0.0
C346 C 0.18645 0.04574 0.42642 0.0
H347 H 0.20543 0.1183 0.39799 0.0
O348 O 0.20883 0.14378 0.50457 0.0
O349 O 0.2302 0.10322 0.48571 0.0
O350 O 0.26226 0.16476 0.46483 0.0
O351 O 0.25992 0.12283 0.42754 0.0
C352 C 0.13956 0.00273 0.41455 0.0
C353 C 0.15344 0.98458 0.43749 0.0
H354 H 0.18771 0.95685 0.48353 0.0
H355 H 0.24172 0.98222 0.5118 0.0
H356 H 0.15221 0.09898 0.36578 0.0
H357 H 0.12038 0.0448 0.37265 0.0
H358 H 0.11604 0.99277 0.40148 0.0
H359 H 0.14037 0.96095 0.44174 0.0
Mn360 Mn 0.1449 0.02619 0.797 0.0
Mn361 Mn 0.20276 0.03924 0.86087 0.0
C362 C 0.17306 0.07857 0.81406 0.0
C363 C 0.1276 0.0169 0.74089 0.0
C364 C 0.12996 0.02123 0.86887 0.0
O365 O 0.15909 0.9816 0.79889 0.0
O366 O 0.19962 0.99426 0.84016 0.0
C367 C 0.26314 0.03447 0.82947 0.0
N368 N 0.24527 0.0523 0.84723 0.0
C369 C 0.28908 0.09828 0.85429 0.0
C370 C 0.3079 0.08041 0.83605 0.0
C371 C 0.29488 0.04836 0.82363 0.0
C372 C 0.25776 0.08302 0.85971 0.0
H373 H 0.25331 0.0098 0.81991 0.0
C374 C 0.18304 0.97472 0.81691 0.0
O375 O 0.10771 0.00985 0.76284 0.0
O376 O 0.1578 0.02815 0.75126 0.0
N377 N 0.2081 0.08253 0.88139 0.0
C378 C 0.1866 0.09671 0.89802 0.0
C379 C 0.19563 0.12906 0.91137 0.0
C380 C 0.22665 0.14649 0.90754 0.0
C381 C 0.24836 0.1314 0.89036 0.0
C382 C 0.23803 0.09908 0.87764 0.0
H383 H 0.16267 0.08353 0.90093 0.0
O384 O 0.14394 0.07413 0.79906 0.0
O385 O 0.18377 0.0523 0.82012 0.0
O386 O 0.12019 0.02109 0.83869 0.0
O387 O 0.16024 0.02663 0.87894 0.0
C388 C 0.27969 0.1473 0.88502 0.0
C389 C 0.30009 0.13071 0.86711 0.0
H390 H 0.3323 0.09111 0.83127 0.0
H391 H 0.30925 0.03441 0.80952 0.0
H392 H 0.17869 0.14057 0.92449 0.0
H393 H 0.23345 0.1715 0.91772 0.0
H394 H 0.28831 0.17231 0.8945 0.0
H395 H 0.32412 0.14319 0.86315 0.0
Mn396 Mn 0.26548 0.87337 0.0174 0.0
Mn397 Mn 0.27058 0.92609 0.95986 0.0
C398 C 0.31538 0.8951 1.00144 0.0
C399 C 0.26474 0.85903 0.06981 0.0
C400 C 0.25037 0.85347 0.94437 0.0
O401 O 0.22267 0.88969 0.01871 0.0
O402 O 0.22755 0.923 0.9783 0.0
C403 C 0.26881 0.98689 1.00074 0.0
N404 N 0.28439 0.96942 0.97996 0.0
C405 C 0.32869 0.01436 0.9804 0.0
C406 C 0.31299 0.03285 1.0016 0.0
C407 C 0.28297 0.01901 0.01187 0.0
C408 C 0.31329 0.98254 0.96988 0.0
H409 H 0.24574 0.9765 0.0088 0.0
C410 C 0.21239 0.91037 1.00138 0.0
O411 O 0.25142 0.83878 0.04527 0.0
O412 O 0.27755 0.88828 0.06431 0.0
N413 N 0.31145 0.9322 0.94133 0.0
C414 C 0.32411 0.91078 0.92187 0.0
C415 C 0.35482 0.92042 0.91078 0.0
C416 C 0.3721 0.952 0.91961 0.0
C417 C 0.35846 0.97372 0.93937 0.0
C418 C 0.32772 0.96278 0.94964 0.0
H419 H 0.31108 0.8864 0.91517 0.0
O420 O 0.31104 0.86717 0.01341 0.0
O421 O 0.29011 0.90921 0.99843 0.0
O422 O 0.25109 0.84684 0.97382 0.0
O423 O 0.25739 0.88227 0.93612 0.0
C424 C 0.37435 0.00565 0.94961 0.0
C425 C 0.35942 0.026 0.96999 0.0
H426 H 0.32398 0.05753 0.01049 0.0
H427 H 0.27079 0.03304 0.02839 0.0
H428 H 0.36523 0.9035 0.89559 0.0
H429 H 0.39588 0.95926 0.91118 0.0
H430 H 0.39816 0.01476 0.9421 0.0
H431 H 0.37195 0.05044 0.97784 0.0
Mn432 Mn 0.29037 0.38958 0.06609 0.0
Mn433 Mn 0.30097 0.4533 0.01923 0.0
C434 C 0.34298 0.41901 0.06261 0.0
C435 C 0.27902 0.36157 0.11306 0.0
C436 C 0.28628 0.38318 0.99183 0.0
O437 O 0.24428 0.40111 0.05888 0.0
O438 O 0.25621 0.44664 0.03291 0.0
C439 C 0.29527 0.50912 0.06517 0.0
N440 N 0.31271 0.49448 0.04398 0.0
C441 C 0.35257 0.54324 0.04484 0.0
C442 C 0.3351 0.55885 0.06679 0.0
C443 C 0.30638 0.54169 0.07706 0.0
C444 C 0.34029 0.51081 0.03383 0.0
H445 H 0.27283 0.49617 0.07252 0.0
C446 C 0.23638 0.42592 0.04602 0.0
O447 O 0.27345 0.34784 0.08366 0.0
O448 O 0.28995 0.39273 0.11568 0.0
N449 N 0.34293 0.46254 0.00361 0.0
C450 C 0.35727 0.44359 0.98309 0.0
C451 C 0.38699 0.4565 0.9717 0.0
C452 C 0.40115 0.489 0.98085 0.0
C453 C 0.3855 0.50834 1.00125 0.0
C454 C 0.35622 0.49391 0.01231 0.0
H455 H 0.34631 0.41874 0.97578 0.0
O456 O 0.33845 0.38958 0.07116 0.0
O457 O 0.31661 0.43108 0.05684 0.0
O458 O 0.28746 0.37068 0.01874 0.0
O459 O 0.28917 0.41342 0.98954 0.0
C460 C 0.39816 0.54109 0.01169 0.0
C461 C 0.38164 0.55856 0.0334 0.0
H462 H 0.34347 0.58401 0.07587 0.0
H463 H 0.29265 0.55365 0.09381 0.0
H464 H 0.39896 0.44146 0.95597 0.0
H465 H 0.4243 0.49861 0.97252 0.0
H466 H 0.42071 0.55297 0.00342 0.0
H467 H 0.39166 0.5837 0.04135 0.0
Mn468 Mn 0.78431 0.15914 0.0529 0.0
Mn469 Mn 0.76007 0.10046 0.99065 0.0
C470 C 0.73018 0.135 0.04275 0.0
C471 C 0.80108 0.18429 0.10526 0.0
C472 C 0.7705 0.17112 0.98169 0.0
O473 O 0.82662 0.14318 0.04574 0.0
O474 O 0.80854 0.11096 0.99934 0.0
C475 C 0.78393 0.04676 0.02227 0.0
N476 N 0.75923 0.05891 0.0069 0.0
C477 C 0.72306 0.00758 0.0051 0.0
C478 C 0.74819 0.99456 0.02067 0.0
C479 C 0.77872 0.0143 0.02943 0.0
C480 C 0.72964 0.04018 0.9987 0.0
H481 H 0.80756 0.0615 0.02888 0.0
C482 C 0.83115 0.12412 0.02154 0.0
O483 O 0.80644 0.19908 0.07945 0.0
O484 O 0.78841 0.15352 0.10092 0.0
N485 N 0.71438 0.08616 0.97858 0.0
C486 C 0.69313 0.10157 0.9618 0.0
C487 C 0.66144 0.08512 0.95141 0.0
C488 C 0.65206 0.05271 0.95774 0.0
C489 C 0.67466 0.03691 0.97391 0.0
C490 C 0.70596 0.05455 0.9836 0.0
H491 H 0.70016 0.12632 0.9566 0.0
O492 O 0.73862 0.16448 0.05629 0.0
O493 O 0.75353 0.11989 0.03465 0.0
O494 O 0.78442 0.17959 0.01013 0.0
O495 O 0.75881 0.14181 0.9714 0.0
C496 C 0.6674 0.0043 0.98072 0.0
C497 C 0.69164 0.98954 0.99596 0.0
H498 H 0.74428 0.96948 0.02611 0.0
H499 H 0.79827 0.00447 0.0415 0.0
H500 H 0.64431 0.09739 0.93853 0.0
H501 H 0.62755 0.04016 0.94987 0.0
H502 H 0.64317 0.99042 0.97472 0.0
H503 H 0.68575 0.96437 1.00086 0.0
Mn504 Mn 0.13027 0.50909 0.25647 0.0
Mn505 Mn 0.19136 0.53105 0.31801 0.0
C506 C 0.15491 0.56315 0.26821 0.0
C507 C 0.10509 0.49401 0.20293 0.0
C508 C 0.12067 0.51642 0.32943 0.0
O509 O 0.14598 0.46599 0.26301 0.0
O510 O 0.1846 0.48384 0.30502 0.0
C511 C 0.24649 0.51718 0.28193 0.0
N512 N 0.23254 0.53824 0.30043 0.0
C513 C 0.28079 0.57921 0.30392 0.0
C514 C 0.29572 0.55793 0.28498 0.0
C515 C 0.27844 0.52682 0.27384 0.0
C516 C 0.24887 0.56829 0.3111 0.0
H517 H 0.23342 0.49314 0.2736 0.0
C518 C 0.16809 0.46138 0.28468 0.0
O519 O 0.09019 0.4878 0.22854 0.0
O520 O 0.13602 0.50634 0.20823 0.0
N521 N 0.20132 0.57593 0.33374 0.0
C522 C 0.18326 0.59366 0.35143 0.0
C523 C 0.19679 0.62557 0.36385 0.0
C524 C 0.22895 0.6386 0.35868 0.0
C525 C 0.24731 0.61967 0.34107 0.0
C526 C 0.23247 0.58811 0.32909 0.0
H527 H 0.15865 0.58363 0.35584 0.0
O528 O 0.12551 0.55511 0.25396 0.0
O529 O 0.16961 0.53936 0.27557 0.0
O530 O 0.10999 0.50877 0.29972 0.0
O531 O 0.15066 0.52511 0.33935 0.0
C532 C 0.27957 0.63102 0.33449 0.0
C533 C 0.29629 0.61085 0.31589 0.0
H534 H 0.3204 0.56523 0.27879 0.0
H535 H 0.28979 0.51025 0.25922 0.0
H536 H 0.18251 0.64008 0.37741 0.0
H537 H 0.23917 0.66323 0.36812 0.0
H538 H 0.29165 0.65529 0.34334 0.0
H539 H 0.32103 0.61996 0.31085 0.0
Mn540 Mn 0.79225 0.88754 0.56378 0.0
Mn541 Mn 0.8027 0.95015 0.51549 0.0
C542 C 0.84522 0.91669 0.55805 0.0
C543 C 0.78193 0.86011 0.61188 0.0
C544 C 0.78656 0.87972 0.48911 0.0
O545 O 0.74577 0.89997 0.55787 0.0
O546 O 0.7594 0.94395 0.53082 0.0
C547 C 0.79894 0.00569 0.56256 0.0
N548 N 0.81508 0.99135 0.53985 0.0
C549 C 0.85205 0.04116 0.53642 0.0
C550 C 0.83601 0.05651 0.55994 0.0
C551 C 0.80951 0.03861 0.57328 0.0
C552 C 0.84099 0.00813 0.52738 0.0
H553 H 0.77785 0.9922 0.57193 0.0
C554 C 0.73868 0.92492 0.54445 0.0
O555 O 0.77558 0.84615 0.58262 0.0
O556 O 0.79321 0.89118 0.61381 0.0
N557 N 0.84362 0.95941 0.49782 0.0
C558 C 0.85622 0.94089 0.47529 0.0
C559 C 0.88278 0.95505 0.45945 0.0
C560 C 0.89536 0.98829 0.46616 0.0
C561 C 0.88183 0.00692 0.48927 0.0
C562 C 0.85584 0.9913 0.50475 0.0
H563 H 0.84581 0.91562 0.46912 0.0
O564 O 0.84087 0.88753 0.56734 0.0
O565 O 0.81879 0.9285 0.55296 0.0
O566 O 0.78811 0.86773 0.51635 0.0
O567 O 0.7899 0.90993 0.48637 0.0
C568 C 0.89248 0.0405 0.49705 0.0
C569 C 0.87797 0.0575 0.52093 0.0
H570 H 0.84367 0.08207 0.56772 0.0
H571 H 0.79684 0.05034 0.59123 0.0
H572 H 0.89299 0.94059 0.44151 0.0
H573 H 0.91511 0.99924 0.45312 0.0
H574 H 0.91141 0.05374 0.48457 0.0
H575 H 0.88659 0.08325 0.52679 0.0
Mn576 Mn 0.90414 0.99566 0.24995 0.0
Mn577 Mn 0.84357 0.98636 0.30064 0.0
C578 C 0.8747 0.94295 0.2566 0.0
C579 C 0.9281 0.00544 0.1997 0.0
C580 C 0.91531 0.00201 0.32448 0.0
O581 O 0.89266 0.04226 0.25709 0.0
O582 O 0.84877 0.02971 0.28495 0.0
C583 C 0.78641 0.98797 0.2539 0.0
N584 N 0.80127 0.97378 0.278 0.0
C585 C 0.75136 0.93841 0.28522 0.0
C586 C 0.73519 0.95313 0.26102 0.0
C587 C 0.75291 0.97768 0.24492 0.0
C588 C 0.78483 0.94917 0.29251 0.0
H589 H 0.80006 0.00707 0.2419 0.0
C590 C 0.86791 0.04983 0.27064 0.0
O591 O 0.94433 0.01176 0.22808 0.0
O592 O 0.89708 0.99443 0.20016 0.0
N593 N 0.83518 0.9459 0.31894 0.0
C594 C 0.85509 0.93285 0.33988 0.0
C595 C 0.84168 0.90711 0.35713 0.0
C596 C 0.8079 0.89584 0.35338 0.0
C597 C 0.78792 0.90955 0.33154 0.0
C598 C 0.80278 0.93461 0.31454 0.0
H599 H 0.88085 0.94244 0.34384 0.0
O600 O 0.90339 0.94707 0.24598 0.0
O601 O 0.86355 0.96959 0.2625 0.0
O602 O 0.92631 0.99985 0.29675 0.0
O603 O 0.88517 0.99921 0.32819 0.0
C604 C 0.7538 0.89993 0.32638 0.0
C605 C 0.73562 0.91383 0.30275 0.0
H606 H 0.70926 0.94563 0.25446 0.0
H607 H 0.74068 0.98896 0.22602 0.0
H608 H 0.85718 0.89662 0.37398 0.0
H609 H 0.79765 0.87684 0.36755 0.0
H610 H 0.74114 0.88217 0.3406 0.0
H611 H 0.70953 0.90567 0.29851 0.0
Mn612 Mn 0.27927 0.66075 0.55118 0.0
Mn613 Mn 0.25671 0.59569 0.49489 0.0
C614 C 0.22563 0.63508 0.54213 0.0
C615 C 0.29607 0.68721 0.60306 0.0
C616 C 0.27637 0.66441 0.47837 0.0
O617 O 0.32215 0.64468 0.54425 0.0
O618 O 0.30244 0.59796 0.5119 0.0
C619 C 0.26006 0.53969 0.53342 0.0
N620 N 0.24239 0.55638 0.51398 0.0
C621 C 0.19556 0.51357 0.50983 0.0
C622 C 0.21324 0.49599 0.52994 0.0
C623 C 0.24559 0.50915 0.54186 0.0
C624 C 0.21122 0.54393 0.50238 0.0
H625 H 0.28511 0.54948 0.5421 0.0
C626 C 0.32548 0.61799 0.5286 0.0
O627 O 0.3007 0.70172 0.57687 0.0
O628 O 0.28403 0.65633 0.59929 0.0
N629 N 0.21245 0.59134 0.47661 0.0
C630 C 0.19907 0.61089 0.45659 0.0
C631 C 0.16679 0.60123 0.44262 0.0
C632 C 0.14877 0.57133 0.44885 0.0
C633 C 0.16319 0.55141 0.46914 0.0
C634 C 0.19539 0.56242 0.48256 0.0
H635 H 0.21292 0.63362 0.45114 0.0
O636 O 0.23281 0.66504 0.5545 0.0
O637 O 0.24976 0.62109 0.53508 0.0
O638 O 0.27807 0.67813 0.50694 0.0
O639 O 0.2704 0.6339 0.4714 0.0
C640 C 0.14691 0.52099 0.47642 0.0
C641 C 0.16307 0.50209 0.49677 0.0
H642 H 0.20221 0.47237 0.5364 0.0
H643 H 0.25941 0.49567 0.55731 0.0
H644 H 0.1559 0.61668 0.42687 0.0
H645 H 0.12395 0.56387 0.43787 0.0
H646 H 0.12197 0.51191 0.46649 0.0
H647 H 0.15031 0.47872 0.50216 0.0
Mn648 Mn 0.39704 0.48782 0.73727 0.0
Mn649 Mn 0.33245 0.48015 0.7826 0.0
C650 C 0.36654 0.43559 0.74237 0.0
C651 C 0.42508 0.49926 0.68976 0.0
C652 C 0.40294 0.49597 0.81119 0.0
O653 O 0.38646 0.53456 0.74462 0.0
O654 O 0.33748 0.52255 0.76448 0.0
C655 C 0.27738 0.47867 0.73251 0.0
N656 N 0.29178 0.46498 0.75729 0.0
C657 C 0.24426 0.42386 0.75772 0.0
C658 C 0.2286 0.43792 0.73264 0.0
C659 C 0.24537 0.46527 0.71976 0.0
C660 C 0.2762 0.43824 0.76933 0.0
H661 H 0.29028 0.49963 0.72263 0.0
C662 C 0.35998 0.54249 0.75391 0.0
O663 O 0.43914 0.50418 0.71913 0.0
O664 O 0.39382 0.48817 0.68748 0.0
N665 N 0.32436 0.44038 0.80244 0.0
C666 C 0.34288 0.42994 0.82677 0.0
C667 C 0.3302 0.40211 0.84145 0.0
C668 C 0.29844 0.38572 0.83143 0.0
C669 C 0.27948 0.39741 0.80704 0.0
C670 C 0.29344 0.42523 0.79328 0.0
H671 H 0.36713 0.44266 0.83498 0.0
O672 O 0.39579 0.43916 0.73307 0.0
O673 O 0.35539 0.46245 0.74709 0.0
O674 O 0.41531 0.49038 0.78475 0.0
O675 O 0.37258 0.49566 0.81238 0.0
C676 C 0.24734 0.38254 0.79572 0.0
C677 C 0.22969 0.39579 0.77118 0.0
H678 H 0.20391 0.42762 0.72276 0.0
H679 H 0.2336 0.47605 0.70015 0.0
H680 H 0.34483 0.39335 0.86049 0.0
H681 H 0.28898 0.36418 0.84259 0.0
H682 H 0.236 0.36073 0.80539 0.0
H683 H 0.20508 0.38397 0.76258 0.0
Mn684 Mn 0.62967 0.0113 0.75354 0.0
Mn685 Mn 0.68747 0.03406 0.81748 0.0
C686 C 0.65435 0.06562 0.76552 0.0
C687 C 0.60937 0.99369 0.69926 0.0
C688 C 0.61571 0.0148 0.82458 0.0
O689 O 0.64558 0.96859 0.7629 0.0
O690 O 0.68684 0.98897 0.80142 0.0
C691 C 0.74795 0.03077 0.78583 0.0
N692 N 0.72966 0.04795 0.80373 0.0
C693 C 0.77312 0.09418 0.81267 0.0
C694 C 0.79247 0.07698 0.79437 0.0
C695 C 0.77978 0.04519 0.7808 0.0
C696 C 0.74157 0.07858 0.81676 0.0
H697 H 0.73836 0.00623 0.77564 0.0
C698 C 0.67043 0.96562 0.78219 0.0
O699 O 0.59195 0.98838 0.72337 0.0
O700 O 0.63965 0.00761 0.70662 0.0
N701 N 0.6905 0.07777 0.83543 0.0
C702 C 0.6685 0.0911 0.85213 0.0
C703 C 0.67708 0.12303 0.86655 0.0
C704 C 0.70825 0.14067 0.86397 0.0
C705 C 0.7308 0.12619 0.84758 0.0
C706 C 0.72086 0.09431 0.83363 0.0
H707 H 0.64458 0.07757 0.8544 0.0
O708 O 0.62581 0.05802 0.74918 0.0
O709 O 0.66738 0.04156 0.7745 0.0
O710 O 0.60597 0.01178 0.7945 0.0
O711 O 0.6456 0.02095 0.83555 0.0
C712 C 0.76262 0.14225 0.84427 0.0
C713 C 0.78377 0.12626 0.82677 0.0
H714 H 0.81704 0.08798 0.79048 0.0
H715 H 0.79457 0.03177 0.76664 0.0
H716 H 0.6597 0.13407 0.8795 0.0
H717 H 0.71456 0.16541 0.87429 0.0
H718 H 0.77095 0.16698 0.85483 0.0
H719 H 0.80807 0.13895 0.82408 0.0
Mn720 Mn 0.75434 0.63917 0.00781 0.0
Mn721 Mn 0.74479 0.58301 0.94333 0.0
C722 C 0.70228 0.61102 0.9886 0.0
C723 C 0.76324 0.65607 0.06425 0.0
C724 C 0.76304 0.65584 0.93748 0.0
O725 O 0.79944 0.62571 0.00701 0.0
O726 O 0.78855 0.58429 0.96712 0.0
C727 C 0.74631 0.52098 0.97242 0.0
N728 N 0.72971 0.54017 0.9549 0.0
C729 C 0.68276 0.49758 0.94431 0.0
C730 C 0.69929 0.47749 0.96241 0.0
C731 C 0.73125 0.48921 0.97642 0.0
C732 C 0.69922 0.52885 0.94068 0.0
H733 H 0.77092 0.52976 0.98318 0.0
C734 C 0.80707 0.60103 0.99104 0.0
O735 O 0.77042 0.67574 0.04218 0.0
O736 O 0.75165 0.62607 0.05358 0.0
N737 N 0.70245 0.57931 0.92034 0.0
C738 C 0.68967 0.60181 0.90387 0.0
C739 C 0.65758 0.59408 0.88903 0.0
C740 C 0.63896 0.56332 0.89121 0.0
C741 C 0.65259 0.54057 0.9083 0.0
C742 C 0.68468 0.54965 0.92264 0.0
H743 H 0.70372 0.62557 0.90223 0.0
O744 O 0.70613 0.6396 0.00437 0.0
O745 O 0.72912 0.60075 0.98342 0.0
O746 O 0.75972 0.66461 0.96707 0.0
O747 O 0.76007 0.62602 0.92684 0.0
C748 C 0.63543 0.50936 0.91196 0.0
C749 C 0.65057 0.48782 0.9298 0.0
H750 H 0.68766 0.45305 0.96578 0.0
H751 H 0.74421 0.47382 0.99034 0.0
H752 H 0.64719 0.61184 0.87601 0.0
H753 H 0.61418 0.5575 0.87982 0.0
H754 H 0.61057 0.50169 0.90116 0.0
H755 H 0.63718 0.46384 0.93236 0.0
Mn756 Mn 0.90986 0.52029 0.78877 0.0
Mn757 Mn 0.85708 0.51466 0.84624 0.0
C758 C 0.88589 0.47011 0.80152 0.0
C759 C 0.92396 0.52078 0.73567 0.0
C760 C 0.93041 0.53598 0.86122 0.0
O761 O 0.8944 0.56352 0.7894 0.0
O762 O 0.85627 0.55561 0.82517 0.0
C763 C 0.79183 0.51258 0.81149 0.0
N764 N 0.81277 0.49812 0.82986 0.0
C765 C 0.76976 0.45393 0.83703 0.0
C766 C 0.74779 0.46848 0.81836 0.0
C767 C 0.75891 0.4979 0.80548 0.0
C768 C 0.80219 0.46998 0.84271 0.0
H769 H 0.80011 0.53512 0.80147 0.0
C770 C 0.87041 0.57161 0.80336 0.0
O771 O 0.94461 0.53347 0.76029 0.0
O772 O 0.89425 0.51014 0.74176 0.0
N773 N 0.85544 0.47481 0.86614 0.0
C774 C 0.87979 0.46367 0.88327 0.0
C775 C 0.87305 0.43364 0.89631 0.0
C776 C 0.84134 0.41545 0.89176 0.0
C777 C 0.81669 0.42737 0.874 0.0
C778 C 0.82493 0.45732 0.86131 0.0
H779 H 0.90422 0.47749 0.88687 0.0
O780 O 0.91452 0.47471 0.7908 0.0
O781 O 0.87287 0.49577 0.80666 0.0
O782 O 0.93763 0.53205 0.8322 0.0
O783 O 0.90111 0.53176 0.8685 0.0
C784 C 0.78431 0.41061 0.86826 0.0
C785 C 0.76081 0.424 0.84999 0.0
H786 H 0.72243 0.45709 0.81343 0.0
H787 H 0.74214 0.50919 0.79089 0.0
H788 H 0.89224 0.42456 0.9099 0.0
H789 H 0.83623 0.39232 0.90193 0.0
H790 H 0.77721 0.38743 0.87783 0.0
H791 H 0.73596 0.41095 0.84582 0.0
Mn792 Mn 0.76867 0.37308 0.51431 0.0
Mn793 Mn 0.77499 0.43208 0.46296 0.0
C794 C 0.81933 0.39719 0.50113 0.0
C795 C 0.76582 0.35475 0.56579 0.0
C796 C 0.75192 0.36021 0.44109 0.0
O797 O 0.72466 0.38808 0.51435 0.0
O798 O 0.73443 0.43164 0.48524 0.0
C799 C 0.78263 0.49198 0.50795 0.0
N800 N 0.79399 0.47397 0.48411 0.0
C801 C 0.83868 0.5173 0.47942 0.0
C802 C 0.82664 0.53672 0.50299 0.0
C803 C 0.79866 0.52387 0.51755 0.0
C804 C 0.82125 0.48591 0.47037 0.0
H805 H 0.7619 0.48188 0.51987 0.0
C806 C 0.71698 0.41374 0.50341 0.0
O807 O 0.75446 0.33586 0.53962 0.0
O808 O 0.77773 0.3848 0.56223 0.0
N809 N 0.81391 0.43532 0.44102 0.0
C810 C 0.82322 0.413 0.41977 0.0
C811 C 0.85193 0.42129 0.40462 0.0
C812 C 0.87106 0.45226 0.41176 0.0
C813 C 0.86114 0.47479 0.43384 0.0
C814 C 0.83206 0.46528 0.4479 0.0
H815 H 0.80899 0.38901 0.41448 0.0
O816 O 0.81513 0.36863 0.51173 0.0
O817 O 0.79386 0.41094 0.49876 0.0
O818 O 0.7569 0.34994 0.46881 0.0
O819 O 0.75588 0.3904 0.437 0.0
C820 C 0.87903 0.50626 0.44251 0.0
C821 C 0.86772 0.52756 0.46517 0.0
H822 H 0.8392 0.56118 0.51075 0.0
H823 H 0.78967 0.53839 0.53639 0.0
H824 H 0.85915 0.40393 0.38729 0.0
H825 H 0.89331 0.45848 0.40014 0.0
H826 H 0.90159 0.51429 0.43199 0.0
H827 H 0.88179 0.55164 0.47181 0.0
Mn828 Mn 0.65056 0.52859 0.30307 0.0
Mn829 Mn 0.70606 0.5385 0.36786 0.0
C830 C 0.67875 0.58034 0.32106 0.0
C831 C 0.63536 0.51861 0.24758 0.0
C832 C 0.63253 0.51993 0.37231 0.0
O833 O 0.6627 0.48347 0.30546 0.0
O834 O 0.70573 0.4948 0.34409 0.0
C835 C 0.77 0.53813 0.34215 0.0
N836 N 0.74933 0.55448 0.35755 0.0
C837 C 0.7904 0.60272 0.3672 0.0
C838 C 0.81174 0.58663 0.35053 0.0
C839 C 0.80157 0.55409 0.3382 0.0
C840 C 0.75936 0.58539 0.37072 0.0
H841 H 0.76264 0.51297 0.33343 0.0
C842 C 0.68764 0.47597 0.32112 0.0
O843 O 0.61456 0.51184 0.26877 0.0
O844 O 0.66526 0.53077 0.25845 0.0
N845 N 0.70835 0.58065 0.39032 0.0
C846 C 0.68501 0.59274 0.40606 0.0
C847 C 0.69141 0.625 0.41994 0.0
C848 C 0.7217 0.64457 0.41749 0.0
C849 C 0.74535 0.63167 0.40119 0.0
C850 C 0.7376 0.59933 0.38785 0.0
H851 H 0.66155 0.57803 0.40787 0.0
O852 O 0.65006 0.57636 0.30512 0.0
O853 O 0.68893 0.55375 0.3273 0.0
O854 O 0.62432 0.52382 0.34278 0.0
O855 O 0.66244 0.52261 0.38326 0.0
C856 C 0.77618 0.64977 0.39735 0.0
C857 C 0.79876 0.63525 0.38051 0.0
H858 H 0.83604 0.59895 0.34727 0.0
H859 H 0.81805 0.5413 0.32575 0.0
H860 H 0.67296 0.63482 0.43238 0.0
H861 H 0.72648 0.66949 0.4281 0.0
H862 H 0.7828 0.67485 0.40732 0.0
H863 H 0.82248 0.64933 0.37792 0.0
Zn864 Zn 0.05119 0.99864 0.04747 0.0
Zn865 Zn 0.9913 0.02538 0.00817 0.0
C866 C 0.03148 0.94691 0.07907 0.0
O867 O 0.04739 0.96978 0.10082 0.0
C868 C 0.01262 0.07739 0.97779 0.0
O869 O 0.99682 0.05475 0.95576 0.0
O870 O 0.09706 0.98725 0.05533 0.0
O871 O 0.057 0.01667 0.00303 0.0
O872 O 0.01117 0.99927 0.97224 0.0
C873 C 0.09936 0.96658 0.03147 0.0
O874 O 0.07411 0.95714 0.00978 0.0
O875 O 0.02649 0.95335 0.04952 0.0
C876 C 0.94193 0.05769 0.02028 0.0
O877 O 0.96452 0.06567 0.04494 0.0
O878 O 0.94639 0.03734 0.99708 0.0
O879 O 0.98449 0.00815 0.05317 0.0
O880 O 0.03104 0.02448 0.08328 0.0
O881 O 0.0168 0.0707 0.00735 0.0
C882 C 0.04219 0.00731 0.97487 0.0
C883 C 0.99996 0.0165 0.08126 0.0
Zn884 Zn 0.26326 0.75508 0.30811 0.0
Zn885 Zn 0.28914 0.77588 0.24699 0.0
C886 C 0.21869 0.69824 0.29362 0.0
O887 O 0.20439 0.71829 0.31085 0.0
C888 C 0.31741 0.84217 0.26386 0.0
O889 O 0.33209 0.83572 0.23784 0.0
O890 O 0.25999 0.74973 0.35543 0.0
O891 O 0.31123 0.77325 0.30982 0.0
O892 O 0.32294 0.75009 0.26422 0.0
C893 C 0.27976 0.73099 0.3629 0.0
O894 O 0.29514 0.71887 0.33979 0.0
O895 O 0.2478 0.70833 0.28721 0.0
C896 C 0.27265 0.80563 0.19366 0.0
O897 O 0.25549 0.81536 0.21647 0.0
O898 O 0.29256 0.78682 0.20056 0.0
O899 O 0.24216 0.7546 0.24479 0.0
O900 O 0.23239 0.78208 0.28881 0.0
O901 O 0.2972 0.81992 0.27408 0.0
C902 C 0.33053 0.75914 0.29439 0.0
C903 C 0.22377 0.7708 0.25934 0.0
Zn904 Zn 0.47979 0.02663 0.54999 0.0
Zn905 Zn 0.55657 0.99476 0.51881 0.0
C906 C 0.51733 0.0918 0.56855 0.0
O907 O 0.53201 0.08813 0.54191 0.0
C908 C 0.54324 0.94145 0.47766 0.0
O909 O 0.56437 0.96263 0.46495 0.0
O910 O 0.42999 0.0266 0.54265 0.0
O911 O 0.49936 0.02841 0.50573 0.0
O912 O 0.54214 0.01886 0.48083 0.0
C913 C 0.42611 0.05165 0.52813 0.0
O914 O 0.45208 0.07068 0.52075 0.0
O915 O 0.49553 0.0692 0.57546 0.0
C916 C 0.61092 0.9658 0.54254 0.0
O917 O 0.58752 0.94876 0.55664 0.0
O918 O 0.60426 0.98896 0.52621 0.0
O919 O 0.54175 0.01609 0.55803 0.0
O920 O 0.49869 0.99625 0.58065 0.0
O921 O 0.53353 0.94928 0.50514 0.0
C922 C 0.5147 0.02838 0.4802 0.0
C923 C 0.52937 0.999 0.57925 0.0
Zn924 Zn 0.30283 0.24256 0.76173 0.0
Zn925 Zn 0.24239 0.27564 0.8046 0.0
C926 C 0.28879 0.20666 0.70148 0.0
O927 O 0.30463 0.18945 0.72019 0.0
C928 C 0.24902 0.31605 0.86415 0.0
O929 O 0.22335 0.32448 0.84915 0.0
O930 O 0.34923 0.24066 0.75576 0.0
O931 O 0.3079 0.28944 0.78244 0.0
O932 O 0.26169 0.30495 0.77009 0.0
C933 C 0.35881 0.26219 0.73694 0.0
O934 O 0.33852 0.28069 0.72674 0.0
O935 O 0.28209 0.23307 0.71427 0.0
C936 C 0.1842 0.26081 0.83161 0.0
O937 O 0.20491 0.2511 0.85264 0.0
O938 O 0.19445 0.27408 0.80671 0.0
O939 O 0.24276 0.22756 0.80263 0.0
O940 O 0.28251 0.20475 0.78547 0.0
O941 O 0.26352 0.29589 0.84932 0.0
C942 C 0.29255 0.30978 0.77001 0.0
C943 C 0.25536 0.2025 0.7976 0.0
Zn944 Zn 0.04303 0.98271 0.54267 0.0
Zn945 Zn 0.01606 0.04259 0.51406 0.0
C946 C 0.08262 0.99768 0.6018 0.0
O947 O 0.09867 0.98075 0.58294 0.0
C948 C 0.9811 0.02945 0.45402 0.0
O949 O 0.96577 0.04766 0.47212 0.0
O950 O 0.04518 0.93663 0.55073 0.0
O951 O 0.99475 0.97598 0.52549 0.0
O952 O 0.9804 0.02166 0.54177 0.0
C953 C 0.02437 0.92812 0.57077 0.0
O954 O 0.0075 0.94944 0.58201 0.0
O955 O 0.05617 0.00507 0.58941 0.0
C956 C 0.03031 0.0985 0.48408 0.0
O957 O 0.0475 0.07847 0.47102 0.0
O958 O 0.01301 0.08932 0.50686 0.0
O959 O 0.06414 0.04834 0.53011 0.0
O960 O 0.07695 1.00178 0.51331 0.0
O961 O 0.00573 0.01976 0.46737 0.0
C962 C 0.97342 0.9909 0.53647 0.0
C963 C 0.08357 0.03256 0.51668 0.0
Zn964 Zn 0.25737 0.79879 0.77057 0.0
Zn965 Zn 0.29423 0.72594 0.78998 0.0
C966 C 0.19992 0.76158 0.73393 0.0
O967 O 0.22087 0.75482 0.71373 0.0
C968 C 0.34856 0.75931 0.82613 0.0
O969 O 0.33223 0.74274 0.84699 0.0
O970 O 0.25249 0.84777 0.77246 0.0
O971 O 0.27573 0.79072 0.81576 0.0
O972 O 0.26757 0.73952 0.82734 0.0
C973 C 0.23413 0.85446 0.79441 0.0
O974 O 0.2224 0.83111 0.8117 0.0
O975 O 0.21018 0.77684 0.76154 0.0
C976 C 0.33056 0.66987 0.79245 0.0
O977 O 0.35371 0.6911 0.80922 0.0
O978 O 0.30306 0.67824 0.78503 0.0
O979 O 0.27293 0.73294 0.74704 0.0
O980 O 0.28407 0.78312 0.73419 0.0
O981 O 0.33755 0.75551 0.79634 0.0
C982 C 0.26426 0.76901 0.8337 0.0
C983 C 0.28675 0.75333 0.72911 0.0
Zn984 Zn 0.53691 0.03491 0.99911 0.0
Zn985 Zn 0.50424 0.99852 0.05962 0.0
C986 C 0.59383 0.0761 0.01823 0.0
O987 O 0.57597 0.09175 0.99981 0.0
C988 C 0.45036 0.95477 0.02387 0.0
O989 O 0.46873 0.93357 0.03145 0.0
O990 O 0.54788 0.04163 0.95319 0.0
O991 O 0.51791 0.98807 0.99624 0.0
O992 O 0.53674 0.97244 0.04206 0.0
C993 C 0.5323 0.02657 0.92728 0.0
O994 O 0.50365 0.00853 0.92863 0.0
O995 O 0.58156 0.0475 0.02415 0.0
C996 C 0.46773 0.99732 0.11206 0.0
O997 O 0.45188 0.01177 0.09061 0.0
O998 O 0.4937 0.9877 0.10481 0.0
O999 O 0.51503 0.04721 0.06611 0.0
O1000 O 0.50893 0.0648 0.01708 0.0
O1001 O 0.46121 0.98476 0.03161 0.0
C1002 C 0.53208 0.96838 0.01113 0.0
C1003 C 0.50805 0.06856 0.04787 0.0
Zn1004 Zn 0.28859 0.23488 0.2596 0.0
Zn1005 Zn 0.25724 0.29489 0.30085 0.0
C1006 C 0.33987 0.25633 0.22871 0.0
O1007 O 0.31721 0.23875 0.20774 0.0
C1008 C 0.20554 0.27784 0.33354 0.0
O1009 O 0.22987 0.29111 0.35519 0.0
O1010 O 0.30083 0.18967 0.25133 0.0
O1011 O 0.26736 0.22909 0.30172 0.0
O1012 O 0.28395 0.27291 0.33505 0.0
C1013 C 0.32318 0.18755 0.27378 0.0
O1014 O 0.33231 0.21222 0.29604 0.0
O1015 O 0.33385 0.26149 0.25834 0.0
C1016 C 0.22664 0.34629 0.28922 0.0
O1017 O 0.21684 0.32424 0.26451 0.0
O1018 O 0.2474 0.34075 0.31179 0.0
O1019 O 0.2707 0.30006 0.25435 0.0
O1020 O 0.26173 0.25316 0.22413 0.0
O1021 O 0.21147 0.27215 0.30399 0.0
C1022 C 0.27732 0.24197 0.33037 0.0
C1023 C 0.26611 0.28411 0.22634 0.0
Zn1024 Zn 0.5467 0.48256 0.05417 0.0
Zn1025 Zn 0.50306 0.54234 1.0026 0.0
C1026 C 0.59208 0.49672 0.11019 0.0
O1027 O 0.60907 0.48184 0.09055 0.0
C1028 C 0.48922 0.51503 0.93205 0.0
O1029 O 0.51948 0.51058 0.93153 0.0
O1030 O 0.552 0.43592 0.05197 0.0
O1031 O 0.49764 0.48001 0.05073 0.0
O1032 O 0.47266 0.51885 0.03331 0.0
C1033 C 0.54083 0.42253 0.07627 0.0
O1034 O 0.52732 0.43929 0.0977 0.0
O1035 O 0.5637 0.50068 0.10008 0.0
C1036 C 0.51426 0.60019 0.97816 0.0
O1037 O 0.52705 0.58 0.95952 0.0
O1038 O 0.5008 0.58986 0.00289 0.0
O1039 O 0.55193 0.54218 1.00231 0.0
O1040 O 0.57754 0.50723 0.02594 0.0
O1041 O 0.4797 0.52589 0.95843 0.0
C1042 C 0.47196 0.49189 0.04561 0.0
C1043 C 0.57786 0.53107 0.00881 0.0
Zn1044 Zn 0.75861 0.29905 0.26535 0.0
Zn1045 Zn 0.79896 0.23253 0.29963 0.0
C1046 C 0.70372 0.25862 0.22451 0.0
O1047 O 0.72537 0.25156 0.20519 0.0
C1048 C 0.84519 0.26864 0.34717 0.0
O1049 O 0.82381 0.25417 0.36534 0.0
O1050 O 0.75142 0.34723 0.27049 0.0
O1051 O 0.77854 0.28799 0.30747 0.0
O1052 O 0.76499 0.24356 0.33004 0.0
C1053 C 0.72583 0.3512 0.28436 0.0
O1054 O 0.70783 0.32555 0.29402 0.0
O1055 O 0.71294 0.27458 0.25211 0.0
C1056 C 0.83955 0.18152 0.29471 0.0
O1057 O 0.86234 0.20648 0.29156 0.0
O1058 O 0.81111 0.18669 0.30037 0.0
O1059 O 0.78476 0.23576 0.2516 0.0
O1060 O 0.78749 0.28373 0.23175 0.0
O1061 O 0.83976 0.2639 0.31619 0.0
C1062 C 0.76252 0.27314 0.3282 0.0
C1063 C 0.79388 0.25487 0.23018 0.0
Zn1064 Zn 0.03471 0.53724 0.4946 0.0
Zn1065 Zn 0.00784 0.49768 0.55766 0.0
C1066 C 0.09815 0.55576 0.53486 0.0
O1067 O 0.09189 0.52868 0.5489 0.0
C1068 C 0.95425 0.45685 0.51939 0.0
O1069 O 0.97206 0.43505 0.52649 0.0
O1070 O 0.03702 0.54673 0.44758 0.0
O1071 O 0.03538 0.48951 0.49448 0.0
O1072 O 0.03711 0.46774 0.5415 0.0
C1073 C 0.0286 0.52344 0.42545 0.0
O1074 O 0.00868 0.49759 0.43185 0.0
O1075 O 0.07754 0.56223 0.51332 0.0
C1076 C 0.97015 0.50142 0.60873 0.0
O1077 O 0.95701 0.51737 0.58668 0.0
O1078 O 0.99474 0.48876 0.60247 0.0
O1079 O 0.02443 0.54571 0.56412 0.0
O1080 O 1.00205 0.55797 0.51771 0.0
O1081 O 0.96546 0.48659 0.52833 0.0
C1082 C 0.03883 0.46571 0.51083 0.0
C1083 C 0.01048 0.56489 0.54809 0.0
Zn1084 Zn 0.8071 0.74036 0.26288 0.0
Zn1085 Zn 0.74941 0.77306 0.30409 0.0
C1086 C 0.78347 0.6981 0.20434 0.0
O1087 O 0.79434 0.67757 0.22299 0.0
C1088 C 0.76435 0.81139 0.36037 0.0
O1089 O 0.74782 0.82605 0.33971 0.0
O1090 O 0.85298 0.73573 0.25501 0.0
O1091 O 0.81629 0.78957 0.27577 0.0
O1092 O 0.77017 0.80793 0.27534 0.0
C1093 C 0.86177 0.7552 0.23386 0.0
O1094 O 0.84036 0.77126 0.22104 0.0
O1095 O 0.78359 0.72693 0.21671 0.0
C1096 C 0.69118 0.76526 0.33518 0.0
O1097 O 0.71012 0.75283 0.35575 0.0
O1098 O 0.70269 0.77724 0.31014 0.0
O1099 O 0.74099 0.7247 0.2913 0.0
O1100 O 0.7882 0.70824 0.29426 0.0
O1101 O 0.77228 0.7848 0.35016 0.0
C1102 C 0.80087 0.81296 0.27365 0.0
C1103 C 0.7579 0.70332 0.29791 0.0
Zn1104 Zn 0.75313 0.26171 0.81701 0.0
Zn1105 Zn 0.78466 0.27658 0.74845 0.0
C1106 C 0.738 0.1924 0.78385 0.0
O1107 O 0.76671 0.19621 0.77258 0.0
C1108 C 0.81952 0.34132 0.75545 0.0
O1109 O 0.83177 0.32971 0.72973 0.0
O1110 O 0.74583 0.26445 0.86492 0.0
O1111 O 0.80233 0.27114 0.81709 0.0
O1112 O 0.81685 0.25133 0.77067 0.0
C1113 C 0.76706 0.25273 0.88174 0.0
O1114 O 0.78938 0.24064 0.86687 0.0
O1115 O 0.73035 0.2155 0.80154 0.0
C1116 C 0.76887 0.30266 0.692 0.0
O1117 O 0.75289 0.31499 0.71446 0.0
O1118 O 0.78605 0.28153 0.69965 0.0
O1119 O 0.73739 0.25895 0.75129 0.0
O1120 O 0.72844 0.29069 0.79273 0.0
O1121 O 0.79793 0.32312 0.76901 0.0
C1122 C 0.8223 0.2579 0.80159 0.0
C1123 C 0.72038 0.27811 0.76364 0.0
Zn1124 Zn 0.78624 0.73143 0.75726 0.0
Zn1125 Zn 0.74477 0.79056 0.79541 0.0
C1126 C 0.8375 0.74435 0.71934 0.0
O1127 O 0.81389 0.72848 0.69829 0.0
C1128 C 0.68534 0.75198 0.8131 0.0
O1129 O 0.70288 0.73267 0.82658 0.0
O1130 O 0.78795 0.68364 0.74697 0.0
O1131 O 0.78131 0.73236 0.80686 0.0
O1132 O 0.76535 0.77219 0.83546 0.0
C1133 C 0.81313 0.67878 0.7641 0.0
O1134 O 0.83077 0.70285 0.78313 0.0
O1135 O 0.83148 0.7517 0.74847 0.0
C1136 C 0.71912 0.84364 0.78037 0.0
O1137 O 0.70838 0.82177 0.75566 0.0
O1138 O 0.73798 0.83653 0.80367 0.0
O1139 O 0.76791 0.79853 0.75391 0.0
O1140 O 0.75837 0.75201 0.7238 0.0
O1141 O 0.69693 0.76943 0.79137 0.0
C1142 C 0.77562 0.74531 0.83426 0.0
C1143 C 0.76376 0.78295 0.72584 0.0
Zn1144 Zn 0.55189 0.49501 0.5458 0.0
Zn1145 Zn 0.49241 0.53245 0.50603 0.0
C1146 C 0.5392 0.44839 0.58593 0.0
O1147 O 0.55968 0.47205 0.60311 0.0
C1148 C 0.51834 0.60173 0.51791 0.0
O1149 O 0.4987 0.60381 0.54087 0.0
O1150 O 0.5987 0.48731 0.55132 0.0
O1151 O 0.5468 0.50055 0.49786 0.0
O1152 O 0.50715 0.51082 0.46487 0.0
C1153 C 0.59967 0.46109 0.53372 0.0
O1154 O 0.57308 0.44614 0.51603 0.0
O1155 O 0.52875 0.45241 0.55696 0.0
C1156 C 0.43728 0.55585 0.52546 0.0
O1157 O 0.45315 0.55281 0.55339 0.0
O1158 O 0.44886 0.54786 0.49894 0.0
O1159 O 0.48749 0.50699 0.54736 0.0
O1160 O 0.53323 0.52472 0.57822 0.0
O1161 O 0.52482 0.57427 0.50863 0.0
C1162 C 0.53585 0.50465 0.46922 0.0
C1163 C 0.50228 0.51605 0.57571 0.0
Zn1164 Zn 0.98643 0.53187 0.03763 0.0
Zn1165 Zn 0.05905 0.4992 0.01283 0.0
C1166 C 0.00936 0.58505 0.08308 0.0
O1167 O 0.99657 0.56219 0.10055 0.0
C1168 C 0.04178 0.44501 0.97288 0.0
O1169 O 0.06223 0.46555 0.95868 0.0
O1170 O 0.93715 0.53436 0.02814 0.0
O1171 O 0.99864 0.51496 0.99422 0.0
O1172 O 0.04668 0.52739 0.97712 0.0
C1173 C 0.91931 0.54843 0.04612 0.0
O1174 O 0.93039 0.55805 0.0766 0.0
O1175 O 0.00898 0.57824 0.05239 0.0
C1176 C 0.11123 0.46748 0.03364 0.0
O1177 O 0.08742 0.45273 0.04888 0.0
O1178 O 0.10607 0.49014 0.016 0.0
O1179 O 0.05188 0.51953 0.05699 0.0
O1180 O 0.00324 0.5042 0.07289 0.0
O1181 O 0.03253 0.45455 1.00003 0.0
C1182 C 0.01684 0.5304 0.97537 0.0
C1183 C 0.03415 0.50545 0.07709 0.0
C1184 C 0.02208 0.14417 0.92242 0.0
C1185 C 0.01116 0.16914 0.94048 0.0
C1186 C 0.02565 0.11546 0.93616 0.0
C1187 C 0.01822 0.11068 0.9683 0.0
H1188 H 0.02715 0.14651 0.89728 0.0
H1189 H 0.03264 0.09612 0.92091 0.0
S1190 S 0.98856 0.16865 0.02564 0.0
N1191 N 0.99354 0.18769 0.99234 0.0
N1192 N 0.99978 0.13328 0.01791 0.0
C1193 C 0.00857 0.13595 0.98709 0.0
C1194 C 0.00507 0.16531 0.97316 0.0
C1195 C 0.15779 0.7684 0.19017 0.0
C1196 C 0.13839 0.78972 0.20249 0.0
C1197 C 0.18518 0.76256 0.20887 0.0
C1198 C 0.19453 0.77801 0.2406 0.0
H1199 H 0.15091 0.75477 0.16653 0.0
H1200 H 0.19877 0.74524 0.19843 0.0
S1201 S 0.15436 0.83952 0.28229 0.0
N1202 N 0.13185 0.82859 0.24714 0.0
N1203 N 0.1839 0.81809 0.28217 0.0
C1204 C 0.17633 0.80073 0.25256 0.0
C1205 C 0.14818 0.80652 0.23351 0.0
C1206 C 0.52201 0.87711 0.40691 0.0
C1207 C 0.51685 0.8481 0.42207 0.0
C1208 C 0.52963 0.9071 0.42534 0.0
C1209 C 0.53192 0.90945 0.45962 0.0
H1210 H 0.5205 0.87677 0.38054 0.0
H1211 H 0.53421 0.92868 0.41254 0.0
S1212 S 0.52181 0.84126 0.51175 0.0
N1213 N 0.5154 0.82376 0.47399 0.0
N1214 N 0.52916 0.88066 0.50837 0.0
C1215 C 0.5264 0.88092 0.47533 0.0
C1216 C 0.51903 0.85012 0.4566 0.0
C1217 C 0.42166 0.27923 0.67757 0.0
C1218 C 0.44675 0.26393 0.68967 0.0
C1219 C 0.39393 0.27945 0.6939 0.0
C1220 C 0.39 0.26388 0.72268 0.0
H1221 H 0.4233 0.29082 0.65502 0.0
H1222 H 0.375 0.29107 0.68314 0.0
S1223 S 0.4498 0.22201 0.76535 0.0
N1224 N 0.46717 0.23435 0.73285 0.0
N1225 N 0.4143 0.23423 0.76363 0.0
C1226 C 0.41538 0.2493 0.73566 0.0
C1227 C 0.44401 0.24952 0.71915 0.0
C1228 C 0.04583 0.85093 0.60049 0.0
C1229 C 0.01983 0.84059 0.61891 0.0
C1230 C 0.0466 0.87863 0.58357 0.0
C1231 C 0.02118 0.8965 0.5844 0.0
H1232 H 0.0663 0.83829 0.60028 0.0
H1233 H 0.06778 0.88677 0.57092 0.0
S1234 S 0.94511 0.87559 0.62482 0.0
N1235 N 0.96678 0.84779 0.63449 0.0
N1236 N 0.96734 0.89929 0.60183 0.0
C1237 C 0.99406 0.88498 0.60111 0.0
C1238 C 0.99363 0.85715 0.6187 0.0
C1239 C 0.42007 0.80144 0.88209 0.0
C1240 C 0.44518 0.78714 0.87021 0.0
C1241 C 0.38901 0.79521 0.86525 0.0
C1242 C 0.38227 0.77437 0.83634 0.0
H1243 H 0.42421 0.8166 0.90503 0.0
H1244 H 0.36972 0.80536 0.87576 0.0
S1245 S 0.4394 0.73007 0.79595 0.0
N1246 N 0.46106 0.75022 0.8287 0.0
N1247 N 0.4032 0.74057 0.79577 0.0
C1248 C 0.40762 0.76143 0.82325 0.0
C1249 C 0.43897 0.76701 0.84079 0.0
C1250 C 0.48033 0.12689 0.10929 0.0
C1251 C 0.49585 0.15703 0.10113 0.0
C1252 C 0.48327 0.09831 0.09087 0.0
C1253 C 0.50177 0.09909 0.06377 0.0
H1254 H 0.46627 0.1254 0.13023 0.0
H1255 H 0.47152 0.0754 0.09829 0.0
S1256 S 0.55042 0.17182 0.03521 0.0
N1257 N 0.53289 0.18592 0.06635 0.0
N1258 N 0.53704 0.13233 0.03087 0.0
C1259 C 0.51726 0.12914 0.05538 0.0
C1260 C 0.51481 0.15811 0.07445 0.0
C1261 C 0.13718 0.28694 0.38595 0.0
C1262 C 0.11063 0.28677 0.36288 0.0
C1263 C 0.16737 0.28239 0.37611 0.0
C1264 C 0.17208 0.27697 0.34281 0.0
H1265 H 0.13485 0.29144 0.41181 0.0
H1266 H 0.18738 0.2839 0.39486 0.0
S1267 S 0.10926 0.2711 0.27284 0.0
N1268 N 0.0904 0.27909 0.3053 0.0
N1269 N 0.14692 0.26946 0.28688 0.0
C1270 C 0.14534 0.27533 0.31953 0.0
C1271 C 0.11471 0.28065 0.32954 0.0
C1272 C 0.97935 0.02062 0.17102 0.0
C1273 C 0.94531 0.0092 0.16892 0.0
C1274 C 0.99675 0.02308 0.14299 0.0
C1275 C 0.98109 0.01431 0.11121 0.0
H1276 H 0.99295 0.02755 0.1947 0.0
H1277 H 0.02278 0.03182 0.14636 0.0
S1278 S 0.89211 0.98311 0.09175 0.0
N1279 N 0.89673 0.9892 0.132 0.0
N1280 N 0.92876 0.99376 0.07969 0.0
C1281 C 0.94692 0.00307 0.10876 0.0
C1282 C 0.92928 1.00055 0.13736 0.0
C1283 C 0.25693 0.70419 0.44426 0.0
C1284 C 0.28018 0.68484 0.45162 0.0
C1285 C 0.258 0.72105 0.41634 0.0
C1286 C 0.28257 0.71909 0.39537 0.0
H1287 H 0.23696 0.705 0.45929 0.0
H1288 H 0.23856 0.73419 0.41028 0.0
S1289 S 0.35244 0.67612 0.40811 0.0
N1290 N 0.33019 0.66724 0.43858 0.0
N1291 N 0.33346 0.70014 0.38678 0.0
C1292 C 0.30749 0.70185 0.40422 0.0
C1293 C 0.30591 0.68422 0.43219 0.0
C1294 C 0.59953 0.01641 0.64621 0.0
C1295 C 0.593 0.99052 0.66563 0.0
C1296 C 0.57914 0.01827 0.61799 0.0
C1297 C 0.55134 0.99433 0.60797 0.0
H1298 H 0.61932 0.03644 0.65395 0.0
H1299 H 0.58449 0.03951 0.6047 0.0
S1300 S 0.52706 0.91868 0.64705 0.0
N1301 N 0.55914 0.93843 0.67084 0.0
N1302 N 0.52096 0.94192 0.61742 0.0
C1303 C 0.54569 0.96734 0.62602 0.0
C1304 C 0.5665 0.96543 0.65489 0.0
C1305 C 0.24494 0.35508 0.94865 0.0
C1306 C 0.27756 0.36177 0.96163 0.0
C1307 C 0.23602 0.33919 0.91745 0.0
C1308 C 0.25947 0.32946 0.89814 0.0
H1309 H 0.22632 0.36314 0.96232 0.0
H1310 H 0.21056 0.33512 0.90812 0.0
S1311 S 0.34816 0.33995 0.92221 0.0
N1312 N 0.33333 0.35627 0.95415 0.0
N1313 N 0.31666 0.32637 0.89496 0.0
C1314 C 0.29211 0.33475 0.91149 0.0
C1315 C 0.30117 0.35104 0.94341 0.0
C1316 C 0.95081 0.98589 0.37006 0.0
C1317 C 0.93817 0.0102 0.35423 0.0
C1318 C 0.96705 0.99252 0.40182 0.0
C1319 C 0.97065 0.02354 0.41859 0.0
H1320 H 0.94662 0.96131 0.35853 0.0
H1321 H 0.97492 0.97289 0.41402 0.0
S1322 S 0.94516 0.09608 0.38595 0.0
N1323 N 0.9328 0.06675 0.35634 0.0
N1324 N 0.96315 0.07935 0.41562 0.0
C1325 C 0.95977 0.04831 0.40205 0.0
C1326 C 0.94349 0.04159 0.36995 0.0
C1327 C 0.28676 0.73567 0.63743 0.0
C1328 C 0.29885 0.70636 0.63508 0.0
C1329 C 0.2848 0.75226 0.66794 0.0
C1330 C 0.29517 0.74021 0.69709 0.0
H1331 H 0.27711 0.74494 0.61562 0.0
H1332 H 0.27344 0.77356 0.6687 0.0
S1333 S 0.33495 0.66832 0.70347 0.0
N1334 N 0.32511 0.66842 0.66392 0.0
N1335 N 0.32236 0.69987 0.72125 0.0
C1336 C 0.30949 0.71225 0.69477 0.0
C1337 C 0.31106 0.69521 0.66379 0.0
C1338 C 0.56728 0.03341 0.84576 0.0
C1339 C 0.59144 0.01396 0.84834 0.0
C1340 C 0.54721 0.0368 0.87105 0.0
C1341 C 0.55098 0.0209 0.89943 0.0
H1342 H 0.56488 0.04715 0.8248 0.0
H1343 H 0.52952 0.05271 0.86891 0.0
S1344 S 0.60743 0.96369 0.91531 0.0
N1345 N 0.61539 0.9759 0.8793 0.0
N1346 N 0.57895 0.98333 0.92748 0.0
C1347 C 0.57417 1.00047 0.90151 0.0
C1348 C 0.59413 0.99671 0.87573 0.0
C1349 C 0.27508 0.35602 0.17352 0.0
C1350 C 0.27468 0.34152 0.14159 0.0
C1351 C 0.2717 0.33722 0.20037 0.0
C1352 C 0.26798 0.30295 0.19671 0.0
H1353 H 0.27803 0.38213 0.17789 0.0
H1354 H 0.27229 0.34989 0.22434 0.0
S1355 S 0.2661 0.25289 0.11822 0.0
N1356 N 0.27056 0.29045 0.10796 0.0
N1357 N 0.26435 0.25558 0.15814 0.0
C1358 C 0.26744 0.28817 0.16486 0.0
C1359 C 0.27076 0.30727 0.13749 0.0
C1360 C 0.16188 0.93152 0.98543 0.0
C1361 C 0.1831 0.92322 0.01016 0.0
C1362 C 0.1354 0.94602 0.99298 0.0
C1363 C 0.12948 0.95379 0.02559 0.0
H1364 H 0.16564 0.92657 0.95997 0.0
H1365 H 0.11939 0.95123 0.97289 0.0
S1366 S 0.17866 0.93819 0.0995 0.0
N1367 N 0.19693 0.92426 0.06877 0.0
N1368 N 0.14733 0.95235 0.08286 0.0
C1369 C 0.15081 0.94618 0.05065 0.0
C1370 C 0.17751 0.93063 0.04295 0.0
C1371 C 0.64117 0.59617 0.97779 0.0
C1372 C 0.67101 0.58809 0.98925 0.0
C1373 C 0.61124 0.57671 0.98257 0.0
C1374 C 0.60982 0.54857 0.99951 0.0
H1375 H 0.64095 0.61809 0.96566 0.0
H1376 H 0.58909 0.58459 0.97395 0.0
S1377 S 0.68159 0.51794 0.03579 0.0
N1378 N 0.69743 0.55081 0.01922 0.0
N1379 N 0.64183 0.51393 0.02753 0.0
C1380 C 0.63977 0.54 0.01044 0.0
C1381 C 0.67011 0.55988 0.00563 0.0
C1382 C 0.67866 0.41518 0.31703 0.0
C1383 C 0.69742 0.44462 0.31077 0.0
C1384 C 0.68807 0.38541 0.30807 0.0
C1385 C 0.71658 0.38368 0.2922 0.0
H1386 H 0.65676 0.41515 0.32934 0.0
H1387 H 0.67276 0.36353 0.31391 0.0
S1388 S 0.77212 0.45423 0.26713 0.0
N1389 N 0.74416 0.47038 0.28526 0.0
N1390 N 0.76229 0.41469 0.26902 0.0
C1391 C 0.735 0.41309 0.28496 0.0
C1392 C 0.7253 0.44343 0.29407 0.0
C1393 C 0.8762 0.4008 0.48611 0.0
C1394 C 0.85257 0.41541 0.50076 0.0
C1395 C 0.90909 0.41571 0.4901 0.0
C1396 C 0.91932 0.44579 0.50868 0.0
H1397 H 0.86938 0.37718 0.47252 0.0
H1398 H 0.92683 0.40293 0.47979 0.0
S1399 S 0.86685 0.49322 0.55288 0.0
N1400 N 0.84179 0.46044 0.53606 0.0
N1401 N 0.90288 0.48997 0.54092 0.0
C1402 C 0.89558 0.46128 0.52208 0.0
C1403 C 0.86238 0.44557 0.519 0.0
C1404 C 0.37652 0.13168 0.30919 0.0
C1405 C 0.36554 0.10206 0.2905 0.0
C1406 C 0.36338 0.1592 0.3025 0.0
C1407 C 0.3382 0.15815 0.27721 0.0
H1408 H 0.39467 0.13334 0.32982 0.0
H1409 H 0.37255 0.18131 0.31814 0.0
S1410 S 0.30159 0.08584 0.22071 0.0
N1411 N 0.32905 0.07297 0.24501 0.0
N1412 N 0.30366 0.1246 0.23276 0.0
C1413 C 0.32762 0.12868 0.25774 0.0
C1414 C 0.34139 0.10065 0.26439 0.0
C1415 C 0.35941 0.08307 0.47919 0.0
C1416 C 0.3392 0.09137 0.50291 0.0
C1417 C 0.38664 0.06885 0.48749 0.0
C1418 C 0.39401 0.06096 0.51951 0.0
H1419 H 0.35429 0.08789 0.45404 0.0
H1420 H 0.40224 0.06411 0.46867 0.0
S1421 S 0.348 0.07642 0.59039 0.0
N1422 N 0.32811 0.09018 0.55976 0.0
N1423 N 0.37862 0.06233 0.575 0.0
C1424 C 0.37352 0.06831 0.54329 0.0
C1425 C 0.34632 0.0838 0.53507 0.0
C1426 C 0.6927 0.641 0.32885 0.0
C1427 C 0.70173 0.61125 0.31948 0.0
C1428 C 0.71175 0.67053 0.32285 0.0
C1429 C 0.74066 0.67164 0.30718 0.0
H1430 H 0.6703 0.64142 0.34018 0.0
H1431 H 0.70324 0.6927 0.32985 0.0
S1432 S 0.77321 0.60027 0.2749 0.0
N1433 N 0.74016 0.58457 0.29149 0.0
N1434 N 0.7766 0.63997 0.28156 0.0
C1435 C 0.75015 0.64201 0.29808 0.0
C1436 C 0.73047 0.61189 0.30374 0.0
C1437 C 0.88278 0.41109 0.79404 0.0
C1438 C 0.86616 0.43733 0.79471 0.0
C1439 C 0.86753 0.38065 0.77977 0.0
C1440 C 0.83408 0.37381 0.77033 0.0
H1441 H 0.90858 0.4147 0.80191 0.0
H1442 H 0.8824 0.3627 0.77481 0.0
S1443 S 0.78235 0.43464 0.75583 0.0
N1444 N 0.81714 0.45583 0.77351 0.0
N1445 N 0.7862 0.39625 0.75553 0.0
C1446 C 0.81701 0.39954 0.77005 0.0
C1447 C 0.83355 0.43173 0.78066 0.0
C1448 C 0.03828 0.85894 0.07905 0.0
C1449 C 0.03142 0.85234 0.11095 0.0
C1450 C 0.03622 0.88918 0.06789 0.0
C1451 C 0.02689 0.91356 0.08824 0.0
H1452 H 0.04563 0.84068 0.06274 0.0
H1453 H 0.04318 0.89388 0.04373 0.0
S1454 S 0.00235 0.90694 0.17221 0.0
N1455 N 0.01228 0.87146 0.16165 0.0
N1456 N 0.00838 0.92853 0.14072 0.0
C1457 C 0.01891 0.90689 0.11978 0.0
C1458 C 0.02121 0.87619 0.13118 0.0
C1459 C 0.90221 0.22853 0.82494 0.0
C1460 C 0.91318 0.24634 0.85529 0.0
C1461 C 0.87248 0.23167 0.8078 0.0
C1462 C 0.85286 0.25284 0.82045 0.0
H1463 H 0.91699 0.21261 0.81408 0.0
H1464 H 0.86524 0.21805 0.78423 0.0
S1465 S 0.87087 0.30324 0.90039 0.0
N1466 N 0.90155 0.28355 0.89846 0.0
N1467 N 0.84678 0.29084 0.8665 0.0
C1468 C 0.86316 0.26938 0.85179 0.0
C1469 C 0.89301 0.26573 0.86916 0.0
C1470 C 0.54504 0.181 0.59515 0.0
C1471 C 0.53102 0.18456 0.62468 0.0
C1472 C 0.54136 0.15065 0.5775 0.0
C1473 C 0.52371 0.12294 0.58905 0.0
H1474 H 0.55843 0.20193 0.58535 0.0
H1475 H 0.55161 0.14916 0.55426 0.0
S1476 S 0.4855 0.11973 0.66735 0.0
N1477 N 0.50143 0.15832 0.66631 0.0
N1478 N 0.49423 0.10094 0.63344 0.0
C1479 C 0.51098 0.12618 0.61955 0.0
C1480 C 0.51492 0.15709 0.63745 0.0
C1481 C 0.61466 0.76255 0.37899 0.0
C1482 C 0.59003 0.75961 0.35309 0.0
C1483 C 0.64742 0.76454 0.37296 0.0
C1484 C 0.6567 0.76394 0.34088 0.0
H1485 H 0.60873 0.76399 0.40409 0.0
H1486 H 0.66567 0.76706 0.39362 0.0
S1487 S 0.60164 0.75314 0.26439 0.0
N1488 N 0.57732 0.75371 0.29386 0.0
N1489 N 0.63876 0.75792 0.28297 0.0
C1490 C 0.6324 0.76029 0.3148 0.0
C1491 C 0.59911 0.75795 0.32081 0.0
C1492 C 0.02429 0.18691 0.47894 0.0
C1493 C 0.03201 0.19206 0.44698 0.0
C1494 C 0.02307 0.15636 0.49067 0.0
C1495 C 0.03039 0.13025 0.47107 0.0
H1496 H 0.01853 0.20649 0.49478 0.0
H1497 H 0.01685 0.15333 0.51537 0.0
S1498 S 0.05255 0.13167 0.38561 0.0
N1499 N 0.04694 0.16889 0.39588 0.0
N1500 N 0.04566 0.11164 0.41798 0.0
C1501 C 0.03841 0.13527 0.43906 0.0
C1502 C 0.03895 0.16616 0.42697 0.0
C1503 C 0.62311 0.2252 0.17513 0.0
C1504 C 0.60533 0.25023 0.18061 0.0
C1505 C 0.65484 0.22766 0.19009 0.0
C1506 C 0.66956 0.25518 0.21096 0.0
H1507 H 0.61219 0.20337 0.15974 0.0
H1508 H 0.66789 0.20791 0.18543 0.0
S1509 S 0.63458 0.32923 0.22897 0.0
N1510 N 0.60537 0.30432 0.20574 0.0
N1511 N 0.66513 0.30932 0.23337 0.0
C1512 C 0.65223 0.28073 0.21572 0.0
C1513 C 0.62002 0.27815 0.20064 0.0
C1514 C 0.53519 0.9103 0.93779 0.0
C1515 C 0.54307 0.88247 0.95082 0.0
C1516 C 0.53128 0.93708 0.95784 0.0
C1517 C 0.53734 0.93874 0.99197 0.0
H1518 H 0.53049 0.91122 0.91171 0.0
H1519 H 0.52313 0.9567 0.94604 0.0
S1520 S 0.56158 0.87356 0.03893 0.0
N1521 N 0.55777 0.85821 1.00041 0.0
N1522 N 0.55318 0.9105 0.0383 0.0
C1523 C 0.54685 0.91179 0.00566 0.0
C1524 C 0.54933 0.8834 0.98506 0.0
C1525 C 0.91009 0.75489 0.66958 0.0
C1526 C 0.93513 0.74884 0.69177 0.0
C1527 C 0.87844 0.75392 0.67886 0.0
C1528 C 0.87118 0.74744 0.7107 0.0
H1529 H 0.9152 0.76136 0.64536 0.0
H1530 H 0.85965 0.75873 0.66122 0.0
S1531 S 0.92729 0.72556 0.7761 0.0
N1532 N 0.94968 0.7326 0.74544 0.0
N1533 N 0.89087 0.73216 0.76329 0.0
C1534 C 0.89584 0.74052 0.73267 0.0
C1535 C 0.92768 0.74083 0.72305 0.0
C1536 C 0.11736 0.01385 0.92699 0.0
C1537 C 0.10577 0.0158 0.89424 0.0
C1538 C 0.09645 0.01057 0.952 0.0
C1539 C 0.06244 0.00853 0.94604 0.0
H1540 H 0.14314 0.01531 0.93375 0.0
H1541 H 0.10743 0.00992 0.97657 0.0
S1542 S 0.01874 0.01239 0.86482 0.0
N1543 N 0.05728 0.01555 0.85732 0.0
N1544 N 0.01804 0.00866 0.90436 0.0
C1545 C 0.05015 0.00983 0.91337 0.0
C1546 C 0.07168 0.0136 0.88763 0.0
C1547 C 0.77093 0.30975 0.60093 0.0
C1548 C 0.76664 0.34196 0.59807 0.0
C1549 C 0.77257 0.29722 0.6315 0.0
C1550 C 0.76909 0.31628 0.66002 0.0
H1551 H 0.77348 0.29424 0.57942 0.0
H1552 H 0.77587 0.27234 0.63271 0.0
S1553 S 0.75727 0.4021 0.66543 0.0
N1554 N 0.75934 0.39265 0.62616 0.0
N1555 N 0.76147 0.36915 0.68344 0.0
C1556 C 0.76472 0.34853 0.65736 0.0
C1557 C 0.76375 0.36139 0.62641 0.0
C1558 C 0.45469 0.05945 0.42191 0.0
C1559 C 0.45419 0.0393 0.39305 0.0
C1560 C 0.47673 0.05803 0.44914 0.0
C1561 C 0.49824 0.03567 0.449 0.0
H1562 H 0.43759 0.07598 0.42362 0.0
H1563 H 0.47656 0.07419 0.47065 0.0
S1564 S 0.50867 0.9797 0.37828 0.0
N1565 N 0.47937 0.99843 0.36489 0.0
N1566 N 0.51962 0.99507 0.4164 0.0
C1567 C 0.49944 0.01697 0.41958 0.0
C1568 C 0.47755 0.01883 0.39163 0.0
C1569 C 0.76201 0.64527 0.12346 0.0
C1570 C 0.76739 0.66757 0.09982 0.0
C1571 C 0.76632 0.65549 0.15708 0.0
C1572 C 0.77569 0.68851 0.1686 0.0
H1573 H 0.75485 0.6196 0.11601 0.0
H1574 H 0.76254 0.63725 0.17425 0.0
S1575 S 0.79278 0.75687 0.1171 0.0
N1576 N 0.78263 0.72449 0.09062 0.0
N1577 N 0.79023 0.74346 0.15355 0.0
C1578 C 0.78056 0.71113 0.14527 0.0
C1579 C 0.77659 0.70073 0.11103 0.0
C1580 C 0.12658 0.98991 0.68466 0.0
C1581 C 0.11614 0.01301 0.70566 0.0
C1582 C 0.1156 0.98545 0.65125 0.0
C1583 C 0.0939 0.0041 0.63736 0.0
H1584 H 0.14299 0.97482 0.69421 0.0
H1585 H 0.12398 0.96683 0.63628 0.0
S1586 S 0.06198 0.0701 0.68194 0.0
N1587 N 0.08449 0.05607 0.71039 0.0
N1588 N 0.06409 0.04806 0.64748 0.0
C1589 C 0.08383 0.02781 0.65817 0.0
C1590 C 0.09491 0.03218 0.69232 0.0
C1591 C 0.75282 0.34788 0.38116 0.0
C1592 C 0.74689 0.33642 0.41159 0.0
C1593 C 0.75678 0.32691 0.35453 0.0
C1594 C 0.75298 0.29313 0.35602 0.0
H1595 H 0.75709 0.37361 0.37833 0.0
H1596 H 0.76497 0.33781 0.33313 0.0
S1597 S 0.73252 0.24981 0.42872 0.0
N1598 N 0.73469 0.28846 0.44121 0.0
N1599 N 0.73992 0.24879 0.38995 0.0
C1600 C 0.74438 0.28087 0.38552 0.0
C1601 C 0.74159 0.3025 0.4134 0.0
C1602 C 0.46785 0.01224 0.20335 0.0
C1603 C 0.43446 0.00459 0.20793 0.0
C1604 C 0.47888 0.0079 0.1724 0.0
C1605 C 0.45686 0.99611 0.14497 0.0
H1606 H 0.48566 0.0221 0.22372 0.0
H1607 H 0.50456 0.01519 0.16972 0.0
S1608 S 0.36762 0.96983 0.1437 0.0
N1609 N 0.37987 0.98244 0.18233 0.0
N1610 N 0.40076 0.97497 0.12415 0.0
C1611 C 0.42368 0.98746 0.1492 0.0
C1612 C 0.41242 0.99151 0.1807 0.0
C1613 C 0.75049 0.70587 0.91181 0.0
C1614 C 0.76929 0.68114 0.91378 0.0
C1615 C 0.75399 0.72783 0.88738 0.0
C1616 C 0.77653 0.72614 0.86384 0.0
H1617 H 0.73197 0.70746 0.92846 0.0
H1618 H 0.73787 0.74535 0.88614 0.0
S1619 S 0.83708 0.67104 0.86378 0.0
N1620 N 0.81456 0.65957 0.8933 0.0
N1621 N 0.82179 0.70095 0.84841 0.0
C1622 C 0.79706 0.70301 0.86733 0.0
C1623 C 0.79326 0.68053 0.8919 0.0
C1624 C 0.874 0.10191 0.99213 0.0
C1625 C 0.86183 0.11089 0.02178 0.0
C1626 C 0.89939 0.08389 0.99136 0.0
C1627 C 0.91317 0.07387 0.0202 0.0
H1628 H 0.86348 0.10851 0.96928 0.0
H1629 H 0.9085 0.07811 0.96818 0.0
S1630 S 0.88774 0.08775 0.10355 0.0
N1631 N 0.86429 0.10638 0.08029 0.0
N1632 N 0.91151 0.07248 0.07887 0.0
C1633 C 0.90093 0.0823 0.04987 0.0
C1634 C 0.87545 0.10084 0.05068 0.0
C1635 C 0.38634 0.46965 0.07328 0.0
C1636 C 0.37662 0.43705 0.06046 0.0
C1637 C 0.41734 0.48737 0.0689 0.0
C1638 C 0.44019 0.47273 0.05266 0.0
H1639 H 0.36953 0.48181 0.08594 0.0
H1640 H 0.42328 0.51276 0.0779 0.0
S1641 S 0.42789 0.38695 0.01796 0.0
N1642 N 0.39324 0.39031 0.03317 0.0
N1643 N 0.45148 0.42292 0.02587 0.0
C1644 C 0.43146 0.43954 0.04185 0.0
C1645 C 0.39981 0.4218 0.04576 0.0
C1646 C 0.37792 0.60083 0.77564 0.0
C1647 C 0.35496 0.57681 0.7568 0.0
C1648 C 0.36975 0.63068 0.78686 0.0
C1649 C 0.33819 0.63779 0.77991 0.0
H1650 H 0.40176 0.59585 0.78341 0.0
H1651 H 0.38828 0.64803 0.8018 0.0
S1652 S 0.27031 0.58411 0.7283 0.0
N1653 N 0.30024 0.56317 0.72933 0.0
N1654 N 0.28477 0.61868 0.75055 0.0
C1655 C 0.3155 0.6144 0.75988 0.0
C1656 C 0.32393 0.5842 0.74829 0.0
C1657 C 0.16615 0.62573 0.52658 0.0
C1658 C 0.19298 0.61637 0.5431 0.0
C1659 C 0.13527 0.60646 0.52519 0.0
C1660 C 0.13019 0.57749 0.54077 0.0
H1661 H 0.16929 0.64726 0.51349 0.0
H1662 H 0.11546 0.61394 0.5109 0.0
S1663 S 0.19228 0.54695 0.5933 0.0
N1664 N 0.21245 0.57963 0.57947 0.0
N1665 N 0.15427 0.54319 0.57713 0.0
C1666 C 0.15664 0.56942 0.55959 0.0
C1667 C 0.18812 0.58899 0.56073 0.0
C1668 C 0.66697 0.9069 0.76192 0.0
C1669 C 0.68251 0.93426 0.78255 0.0
C1670 C 0.67906 0.87775 0.76141 0.0
C1671 C 0.70708 0.87475 0.78156 0.0
H1672 H 0.64545 0.90798 0.7459 0.0
H1673 H 0.66614 0.85733 0.74514 0.0
S1674 S 0.75724 0.93876 0.83997 0.0
N1675 N 0.72796 0.95603 0.82394 0.0
N1676 N 0.75011 0.90136 0.82245 0.0
C1677 C 0.72277 0.90166 0.80238 0.0
C1678 C 0.71064 0.93134 0.803 0.0
C1679 C 0.68182 0.92145 0.56372 0.0
C1680 C 0.70536 0.93396 0.54332 0.0
C1681 C 0.65155 0.9321 0.56363 0.0
C1682 C 0.64359 0.95582 0.54329 0.0
H1683 H 0.68691 0.90368 0.58016 0.0
H1684 H 0.63429 0.92168 0.5798 0.0
S1685 S 0.69547 0.99496 0.48356 0.0
N1686 N 0.71718 0.97042 0.50055 0.0
N1687 N 0.66141 0.99044 0.50143 0.0
C1688 C 0.66667 0.96816 0.52257 0.0
C1689 C 0.69713 0.95721 0.52227 0.0
C1690 C 0.36114 0.38311 0.76892 0.0
C1691 C 0.3479 0.40279 0.74728 0.0
C1692 C 0.34322 0.35315 0.77576 0.0
C1693 C 0.3113 0.34125 0.761 0.0
H1694 H 0.38512 0.39152 0.78167 0.0
H1695 H 0.35425 0.33961 0.79349 0.0
S1696 S 0.26932 0.37927 0.69567 0.0
N1697 N 0.3035 0.40536 0.70651 0.0
N1698 N 0.26981 0.34935 0.71935 0.0
C1699 C 0.29885 0.35961 0.73741 0.0
C1700 C 0.31717 0.39015 0.73044 0.0
C1701 C 0.20257 0.60785 0.26499 0.0
C1702 C 0.17065 0.59767 0.2731 0.0
C1703 C 0.21786 0.6406 0.27068 0.0
C1704 C 0.20147 0.66431 0.28416 0.0
H1705 H 0.21604 0.59029 0.25483 0.0
H1706 H 0.24294 0.64714 0.26538 0.0
S1707 S 0.11531 0.65029 0.304 0.0
N1708 N 0.1219 0.61399 0.2915 0.0
N1709 N 0.1498 0.67533 0.30152 0.0
C1710 C 0.16862 0.65449 0.29003 0.0
C1711 C 0.15334 0.62126 0.28446 0.0
C1712 C 0.51152 0.64389 0.44007 0.0
C1713 C 0.51635 0.67677 0.45202 0.0
C1714 C 0.51446 0.61968 0.46132 0.0
C1715 C 0.52198 0.6275 0.4953 0.0
H1716 H 0.50445 0.6367 0.41435 0.0
H1717 H 0.5091 0.59456 0.45129 0.0
S1718 S 0.54035 0.70972 0.53874 0.0
N1719 N 0.53213 0.71576 0.50013 0.0
N1720 N 0.53643 0.67008 0.53952 0.0
C1721 C 0.5282 0.66015 0.50732 0.0
C1722 C 0.52574 0.68482 0.48583 0.0
C1723 C 0.65371 0.27038 0.69438 0.0
C1724 C 0.63235 0.28961 0.70666 0.0
C1725 C 0.68231 0.26744 0.71285 0.0
C1726 C 0.69094 0.28389 0.74424 0.0
H1727 H 0.6475 0.25603 0.67105 0.0
H1728 H 0.6973 0.25137 0.70262 0.0
S1729 S 0.64579 0.34156 0.78511 0.0
N1730 N 0.62321 0.32812 0.75046 0.0
N1731 N 0.67759 0.32317 0.78509 0.0
C1732 C 0.67085 0.30492 0.75591 0.0
C1733 C 0.64142 0.30765 0.73713 0.0
C1734 C 0.04629 0.36852 0.92071 0.0
C1735 C 0.01867 0.34681 0.92705 0.0
C1736 C 0.05352 0.39988 0.93623 0.0
C1737 C 0.03332 0.41096 0.95862 0.0
H1738 H 0.06229 0.36135 0.90321 0.0
H1739 H 0.07514 0.41564 0.93028 0.0
S1740 S 0.95754 0.36341 0.98333 0.0
N1741 N 0.97079 0.33809 0.95715 0.0
N1742 N 0.98438 0.39754 0.98651 0.0
C1743 C 0.00586 0.38926 0.9658 0.0
C1744 C 0.99854 0.35703 0.94997 0.0
C1745 C 0.93108 0.78601 0.18515 0.0
C1746 C 0.95432 0.76696 0.19325 0.0
C1747 C 0.90197 0.78282 0.19968 0.0
C1748 C 0.89468 0.75999 0.22251 0.0
H1749 H 0.93494 0.80274 0.16651 0.0
H1750 H 0.88461 0.7977 0.19189 0.0
S1751 S 0.94914 0.70602 0.25374 0.0
N1752 N 0.96977 0.72614 0.22694 0.0
N1753 N 0.91444 0.71966 0.25433 0.0
C1754 C 0.91857 0.74192 0.23214 0.0
C1755 C 0.94859 0.74553 0.21747 0.0
C1756 C 0.49895 0.33645 0.07224 0.0
C1757 C 0.51889 0.32322 0.09478 0.0
C1758 C 0.50787 0.36816 0.0641 0.0
C1759 C 0.53704 0.38758 0.07788 0.0
H1760 H 0.47561 0.32276 0.06177 0.0
H1761 H 0.4911 0.37814 0.04821 0.0
S1762 S 0.60059 0.3633 0.13347 0.0
N1763 N 0.57127 0.33111 0.12763 0.0
N1764 N 0.58776 0.3909 0.11181 0.0
C1765 C 0.55831 0.37425 0.09855 0.0
C1766 C 0.54928 0.34196 0.10714 0.0
C1767 C 0.91755 0.2835 0.40814 0.0
C1768 C 0.94214 0.28487 0.38681 0.0
C1769 C 0.88543 0.28332 0.39599 0.0
C1770 C 0.87755 0.28437 0.36232 0.0
H1771 H 0.92269 0.28042 0.43376 0.0
H1772 H 0.86649 0.27868 0.4123 0.0
S1773 S 0.9448 0.37316 0.3347 0.0
N1774 N 0.92686 0.32031 0.34336 0.0
N1775 N 0.92725 0.32024 0.34352 0.0
C1776 C 0.90288 0.29251 0.34133 0.0
C1777 C 0.93486 0.29151 0.35377 0.0
C1778 C 1.00039 0.62994 0.61349 0.0
C1779 C 0.00692 0.6585 0.59774 0.0
C1780 C 1.001 0.59962 0.597 0.0
C1781 C 0.00804 0.59684 0.56419 0.0
H1782 H 0.99506 0.63104 0.63879 0.0
H1783 H 0.99611 0.5782 0.6101 0.0
S1784 S 0.03092 0.66449 0.51332 0.0
N1785 N 0.02323 0.68221 0.54824 0.0
N1786 N 0.02414 0.62524 0.51743 0.0
C1787 C 0.01496 0.62517 0.5483 0.0
C1788 C 0.01445 0.65602 0.56505 0.0
C1789 C 0.60948 0.74897 0.8584 0.0
C1790 C 0.6097 0.78199 0.86742 0.0
C1791 C 0.6341 0.73924 0.84078 0.0
C1792 C 0.65936 0.76229 0.83147 0.0
H1793 H 0.58942 0.73074 0.86366 0.0
H1794 H 0.63291 0.71369 0.83368 0.0
S1795 S 0.67352 0.85103 0.85489 0.0
N1796 N 0.6386 0.83714 0.86908 0.0
N1797 N 0.68541 0.81899 0.83736 0.0
C1798 C 0.66063 0.79511 0.84228 0.0
C1799 C 0.63559 0.80494 0.85986 0.0
C1800 C 0.43111 0.49421 0.62868 0.0
C1801 C 0.44471 0.50488 0.66083 0.0
C1802 C 0.44987 0.49785 0.60171 0.0
C1803 C 0.48323 0.51252 0.60534 0.0
H1804 H 0.40582 0.48253 0.62424 0.0
H1805 H 0.43793 0.48887 0.57767 0.0
S1806 S 0.53059 0.54588 0.68421 0.0
N1807 N 0.49392 0.53164 0.69449 0.0
N1808 N 0.5286 0.53845 0.64415 0.0
C1809 C 0.49703 0.5236 0.63734 0.0
C1810 C 0.47799 0.51985 0.66484 0.0
C1811 C 0.73834 0.195 0.93935 0.0
C1812 C 0.76693 0.19698 0.96036 0.0
C1813 C 0.73562 0.21819 0.91716 0.0
C1814 C 0.76199 0.24289 0.91437 0.0
H1815 H 0.71835 0.175 0.93926 0.0
H1816 H 0.71422 0.21481 0.8998 0.0
S1817 S 0.83798 0.26417 0.96981 0.0
N1818 N 0.81885 0.23017 0.98209 0.0
N1819 N 0.81406 0.27265 0.93902 0.0
C1820 C 0.78876 0.24755 0.93794 0.0
C1821 C 0.79129 0.2246 0.96114 0.0
C1822 C 0.10259 0.50017 0.1426 0.0
C1823 C 0.08632 0.49208 0.17012 0.0
C1824 C 0.08535 0.5033 0.11268 0.0
C1825 C 0.05091 0.4986 0.10868 0.0
H1826 H 0.12896 0.50514 0.14437 0.0
H1827 H 0.09945 0.51042 0.09271 0.0
S1828 S 0.99631 0.47519 0.17263 0.0
N1829 N 0.03333 0.47781 0.19094 0.0
N1830 N 1.00125 0.48388 0.1348 0.0
C1831 C 0.03425 0.4893 0.13564 0.0
C1832 C 0.05183 0.48599 0.16622 0.0
C1833 C 0.75144 0.85837 0.4384 0.0
C1834 C 0.77976 0.85795 0.45878 0.0
C1835 C 0.74618 0.8417 0.40726 0.0
C1836 C 0.76924 0.82427 0.39514 0.0
H1837 H 0.73359 0.87242 0.44628 0.0
H1838 H 0.7242 0.84329 0.39216 0.0
S1839 S 0.84769 0.81612 0.43917 0.0
N1840 N 0.8311 0.83865 0.4653 0.0
N1841 N 0.8214 0.8074 0.40623 0.0
C1842 C 0.79728 0.82282 0.4157 0.0
C1843 C 0.80255 0.83976 0.44767 0.0
C1844 C 0.45473 0.49082 0.84375 0.0
C1845 C 0.42468 0.50171 0.84213 0.0
C1846 C 0.47533 0.49503 0.87289 0.0
C1847 C 0.46684 0.51049 0.90155 0.0
H1848 H 0.46228 0.47848 0.82243 0.0
H1849 H 0.49802 0.48594 0.87291 0.0
S1850 S 0.39202 0.54596 0.90963 0.0
N1851 N 0.38812 0.52988 0.87144 0.0
N1852 N 0.42708 0.53873 0.92581 0.0
C1853 C 0.43716 0.5222 0.90007 0.0
C1854 C 0.41604 0.51756 0.8705 0.0
C1855 C 0.79522 0.23453 0.1388 0.0
C1856 C 0.8038 0.20347 0.13724 0.0
C1857 C 0.79373 0.25206 0.16887 0.0
C1858 C 0.80103 0.23925 0.19853 0.0
H1859 H 0.78807 0.24476 0.1166 0.0
H1860 H 0.78533 0.27502 0.16878 0.0
S1861 S 0.83053 0.16148 0.20715 0.0
N1862 N 0.82321 0.16237 0.16736 0.0
N1863 N 0.82142 0.19531 0.22397 0.0
C1864 C 0.81185 0.20916 0.19703 0.0
C1865 C 0.81289 0.19121 0.16641 0.0
C1866 C 0.07852 0.5424 0.35448 0.0
C1867 C 0.09678 0.5173 0.35335 0.0
C1868 C 0.05599 0.5442 0.37768 0.0
C1869 C 0.05051 0.5204 0.39967 0.0
H1870 H 0.08214 0.56104 0.33771 0.0
H1871 H 0.04281 0.56423 0.37845 0.0
S1872 S 0.09339 0.45063 0.40709 0.0
N1873 N 0.10899 0.46902 0.37647 0.0
N1874 N 0.06622 0.4718 0.41965 0.0
C1875 C 0.06874 0.49521 0.39861 0.0
C1876 C 0.09204 0.4938 0.37549 0.0
C1877 C 0.77593 0.85491 0.67248 0.0
C1878 C 0.77743 0.84038 0.64086 0.0
C1879 C 0.77118 0.83616 0.69937 0.0
C1880 C 0.76776 0.80188 0.69614 0.0
H1881 H 0.77818 0.88099 0.67651 0.0
H1882 H 0.77016 0.84886 0.72303 0.0
S1883 S 0.77162 0.75185 0.61883 0.0
N1884 N 0.77643 0.78933 0.60831 0.0
N1885 N 0.76697 0.75461 0.65823 0.0
C1886 C 0.76938 0.78713 0.66464 0.0
C1887 C 0.77436 0.80618 0.63731 0.0
C1888 C 0.6877 0.45794 0.52211 0.0
C1889 C 0.68718 0.42473 0.51345 0.0
C1890 C 0.65979 0.46943 0.53081 0.0
C1891 C 0.63001 0.44822 0.53022 0.0
H1892 H 0.70966 0.47547 0.52193 0.0
H1893 H 0.66123 0.49525 0.53648 0.0
S1894 S 0.61539 0.35896 0.50979 0.0
N1895 N 0.65449 0.3707 0.50587 0.0
N1896 N 0.60158 0.3922 0.52111 0.0
C1897 C 0.62915 0.41484 0.52217 0.0
C1898 C 0.65781 0.4031 0.51405 0.0
C1899 C 0.14702 0.08366 0.47241 0.0
C1900 C 0.17365 0.09217 0.49628 0.0
C1901 C 0.11875 0.06226 0.47834 0.0
C1902 C 0.11531 0.05045 0.50914 0.0
H1903 H 0.14787 0.09378 0.44916 0.0
H1904 H 0.09912 0.05571 0.45899 0.0
S1905 S 0.17513 0.07088 0.58201 0.0
N1906 N 0.19339 0.08949 0.55286 0.0
N1907 N 0.1392 0.05197 0.56485 0.0
C1908 C 0.14091 0.06036 0.53378 0.0
C1909 C 0.1702 0.08081 0.52727 0.0
C1910 C 0.20309 0.93341 0.7794 0.0
C1911 C 0.19409 0.9432 0.81038 0.0
C1912 C 0.21792 0.9058 0.77446 0.0
C1913 C 0.22358 0.88659 0.80016 0.0
H1914 H 0.1993 0.94759 0.75904 0.0
H1915 H 0.22395 0.89887 0.75018 0.0
S1916 S 0.20543 0.90289 0.88605 0.0
N1917 N 0.19306 0.93232 0.86707 0.0
N1918 N 0.21991 0.88057 0.85803 0.0
C1919 C 0.21495 0.89661 0.83123 0.0
C1920 C 0.20045 0.92476 0.83625 0.0
C1921 C 0.37302 0.89812 0.98923 0.0
C1922 C 0.34878 0.91325 1.00201 0.0
C1923 C 0.40592 0.91285 0.99451 0.0
C1924 C 0.4156 0.94318 0.0127 0.0
H1925 H 0.36659 0.87427 0.97604 0.0
H1926 H 0.42403 0.89983 0.98537 0.0
S1927 S 0.36144 0.99177 0.05293 0.0
N1928 N 0.3367 0.95915 0.03523 0.0
N1929 N 0.39809 0.98789 0.04317 0.0
C1930 C 0.39136 0.95906 0.02452 0.0
C1931 C 0.35803 0.94371 0.01987 0.0
C1932 C 0.82583 0.60454 0.80286 0.0
C1933 C 0.85504 0.5983 0.79092 0.0
C1934 C 0.80961 0.62822 0.79066 0.0
C1935 C 0.82212 0.6469 0.76637 0.0
H1936 H 0.81558 0.59162 0.82241 0.0
H1937 H 0.78847 0.63358 0.80206 0.0
S1938 S 0.89617 0.63983 0.72508 0.0
N1939 N 0.89442 0.61203 0.7514 0.0
N1940 N 0.86426 0.65738 0.72968 0.0
C1941 C 0.85047 0.64046 0.75334 0.0
C1942 C 0.8669 0.61605 0.76536 0.0
C1943 C 0.84898 0.59537 0.03661 0.0
C1944 C 0.83658 0.5881 0.0036 0.0
C1945 C 0.87411 0.58087 0.05036 0.0
C1946 C 0.88923 0.55927 0.03161 0.0
H1947 H 0.83851 0.61174 0.05245 0.0
H1948 H 0.88171 0.58687 0.07611 0.0
S1949 S 0.86317 0.52844 0.94494 0.0
N1950 N 0.83939 0.55492 0.95319 0.0
N1951 N 0.88708 0.52849 0.97883 0.0
C1952 C 0.87627 0.55072 0.99884 0.0
C1953 C 0.85014 0.56507 0.98489 0.0
C1954 C 0.18821 0.13917 0.82492 0.0
C1955 C 0.19578 0.10964 0.81257 0.0
C1956 C 0.20838 0.16884 0.82119 0.0
C1957 C 0.23673 0.17033 0.80446 0.0
H1958 H 0.16642 0.13937 0.83736 0.0
H1959 H 0.20113 0.19082 0.8309 0.0
S1960 S 0.26527 0.0995 0.76468 0.0
N1961 N 0.23224 0.08354 0.78113 0.0
N1962 N 0.27024 0.13897 0.77438 0.0
C1963 C 0.24442 0.14075 0.79196 0.0
C1964 C 0.22386 0.11057 0.79578 0.0
C1965 C 0.34112 0.93259 0.27435 0.0
C1966 C 0.35801 0.93804 0.3057 0.0
C1967 C 0.32566 0.90146 0.26173 0.0
C1968 C 0.32538 0.87504 0.28056 0.0
H1969 H 0.34215 0.95201 0.25843 0.0
H1970 H 0.31537 0.89773 0.23646 0.0
S1971 S 0.36043 0.87755 0.36614 0.0
N1972 N 0.37145 0.91492 0.3561 0.0
N1973 N 0.3387 0.85694 0.33364 0.0
C1974 C 0.33904 0.88072 0.3131 0.0
C1975 C 0.35647 0.91214 0.32536 0.0
C1976 C 0.55443 0.37599 0.62923 0.0
C1977 C 0.52743 0.35226 0.61707 0.0
C1978 C 0.55739 0.4075 0.61987 0.0
C1979 C 0.5335 0.41624 0.59802 0.0
H1980 H 0.57393 0.36996 0.64518 0.0
H1981 H 0.57919 0.42475 0.62889 0.0
S1982 S 0.45592 0.36447 0.56302 0.0
N1983 N 0.47458 0.3406 0.58486 0.0
N1984 N 0.48067 0.39989 0.56696 0.0
C1985 C 0.50571 0.39325 0.58686 0.0
C1986 C 0.50254 0.36122 0.5965 0.0
C1987 C 0.39866 0.76637 0.36253 0.0
C1988 C 0.41785 0.74454 0.35115 0.0
C1989 C 0.37078 0.77094 0.34366 0.0
C1990 C 0.36061 0.75336 0.31292 0.0
H1991 H 0.40601 0.78107 0.38553 0.0
H1992 H 0.35743 0.78892 0.35316 0.0
S1993 S 0.39848 0.68738 0.27638 0.0
N1994 N 0.42244 0.70141 0.3101 0.0
N1995 N 0.36948 0.70951 0.27466 0.0
C1996 C 0.3784 0.72966 0.30244 0.0
C1997 C 0.40706 0.72524 0.32167 0.0
C1998 C 0.03927 0.67644 0.09445 0.0
C1999 C 0.03362 0.68422 0.127 0.0
C2000 C 0.03223 0.64419 0.08034 0.0
C2001 C 0.0206 0.61856 0.09882 0.0
H2002 H 0.04861 0.69545 0.07964 0.0
H2003 H 0.03524 0.63946 0.05468 0.0
S2004 S 0.01106 0.62597 0.18786 0.0
N2005 N 0.0214 0.66366 0.17881 0.0
N2006 N 0.01 0.60313 0.1533 0.0
C2007 C 0.01839 0.62599 0.13243 0.0
C2008 C 0.02471 0.65878 0.14636 0.0
C2009 C 0.11035 0.263 0.87809 0.0
C2010 C 0.08463 0.25596 0.85307 0.0
C2011 C 0.14265 0.26416 0.87095 0.0
C2012 C 0.15017 0.25855 0.8386 0.0
H2013 H 0.10562 0.26868 0.90312 0.0
H2014 H 0.16193 0.27038 0.89075 0.0
S2015 S 0.09173 0.2346 0.76509 0.0
N2016 N 0.0689 0.23994 0.79514 0.0
N2017 N 0.12966 0.24274 0.78198 0.0
C2018 C 0.12479 0.25031 0.81363 0.0
C2019 C 0.09197 0.24881 0.82083 0.0
C2020 C 0.52767 0.67191 0.92805 0.0
C2021 C 0.51834 0.69665 0.94773 0.0
C2022 C 0.52636 0.64102 0.93849 0.0
C2023 C 0.51507 0.63349 0.96878 0.0
H2024 H 0.53651 0.67657 0.90457 0.0
H2025 H 0.53418 0.62288 0.92238 0.0
S2026 S 0.4856 0.68985 0.02825 0.0
N2027 N 0.49643 0.71203 0.99823 0.0
N2028 N 0.49311 0.65334 0.01776 0.0
C2029 C 0.50503 0.65801 0.98848 0.0
C2030 C 0.50693 0.68979 0.97799 0.0
C2031 C 0.10855 0.74534 0.7154 0.0
C2032 C 0.1049 0.76213 0.68748 0.0
C2033 C 0.13943 0.74612 0.7317 0.0
C2034 C 0.1672 0.76318 0.71984 0.0
H2035 H 0.08755 0.73083 0.7241 0.0
H2036 H 0.1417 0.73245 0.75273 0.0
S2037 S 0.17 0.81295 0.64947 0.0
N2038 N 0.13105 0.79741 0.64987 0.0
N2039 N 0.18911 0.79914 0.6805 0.0
C2040 C 0.16361 0.78085 0.69269 0.0
C2041 C 0.13239 0.78005 0.67627 0.0
C2042 C 0.02362 0.40123 0.4403 0.0
C2043 C 0.04049 0.37714 0.45048 0.0
C2044 C 0.02225 0.42849 0.46096 0.0
C2045 C 0.03944 0.43441 0.49209 0.0
H2046 H 0.01056 0.39886 0.41625 0.0
H2047 H 0.00727 0.44508 0.45227 0.0
S2048 S 0.08726 0.37892 0.53119 0.0
N2049 N 0.07368 0.35996 0.49479 0.0
N2050 N 0.07324 0.41339 0.53298 0.0
C2051 C 0.05634 0.41057 0.50309 0.0
C2052 C 0.05663 0.38164 0.48231 0.0
C2053 C 0.40113 0.27298 0.16914 0.0
C2054 C 0.42469 0.25492 0.1796 0.0
C2055 C 0.37552 0.27714 0.18788 0.0
C2056 C 0.37257 0.26349 0.21777 0.0
H2057 H 0.4016 0.28271 0.14557 0.0
H2058 H 0.35644 0.28896 0.1777 0.0
S2059 S 0.42857 0.21546 0.25695 0.0
N2060 N 0.44446 0.22481 0.22278 0.0
N2061 N 0.39592 0.23255 0.25782 0.0
C2062 C 0.39707 0.24729 0.22965 0.0
C2063 C 0.42326 0.24299 0.21055 0.0
C2064 C 0.61509 0.50859 0.42818 0.0
C2065 C 0.60646 0.51349 0.39545 0.0
C2066 C 0.59187 0.50451 0.45104 0.0
C2067 C 0.5586 0.50528 0.44265 0.0
H2068 H 0.64024 0.50843 0.43659 0.0
H2069 H 0.60053 0.50166 0.47592 0.0
S2070 S 0.52222 0.51526 0.3598 0.0
N2071 N 0.56135 0.51712 0.35545 0.0
N2072 N 0.51806 0.50987 0.39858 0.0
C2073 C 0.54931 0.50925 0.40984 0.0
C2074 C 0.57304 0.51322 0.38632 0.0
C2075 C 0.29549 0.83708 0.11372 0.0
C2076 C 0.26715 0.84791 0.10225 0.0
C2077 C 0.29699 0.82259 0.14312 0.0
C2078 C 0.27022 0.81888 0.16182 0.0
H2079 H 0.31635 0.83928 0.09957 0.0
H2080 H 0.3193 0.81466 0.15142 0.0
S2081 S 0.19003 0.84246 0.1409 0.0
N2082 N 0.21162 0.85323 0.11047 0.0
N2083 N 0.21425 0.82661 0.16617 0.0
C2084 C 0.24169 0.82966 0.1503 0.0
C2085 C 0.24017 0.84403 0.12029 0.0
C2086 C 0.98344 0.52471 0.88656 0.0
C2087 C 0.95692 0.5412 0.88829 0.0
C2088 C 0.00491 0.52359 0.9144 0.0
C2089 C 1.00058 0.53902 0.94483 0.0
H2090 H 0.98631 0.51069 0.86416 0.0
H2091 H 0.02346 0.50865 0.9126 0.0
S2092 S 0.93919 0.59074 0.96021 0.0
N2093 N 0.93078 0.57725 0.92136 0.0
N2094 N 0.97058 0.57483 0.97382 0.0
C2095 C 0.97579 0.55764 0.94611 0.0
C2096 C 0.95413 0.55885 0.91781 0.0
C2097 C 0.29355 0.16175 0.61885 0.0
C2098 C 0.27154 0.1739 0.59785 0.0
C2099 C 0.29885 0.17274 0.65213 0.0
C2100 C 0.28204 0.19606 0.6659 0.0
H2101 H 0.30706 0.14387 0.60939 0.0
H2102 H 0.31652 0.16288 0.66714 0.0
S2103 S 0.21945 0.23313 0.6212 0.0
N2104 N 0.23156 0.20914 0.59285 0.0
N2105 N 0.24103 0.22954 0.65567 0.0
C2106 C 0.2595 0.20801 0.64506 0.0
C2107 C 0.25435 0.19696 0.61098 0.0
C2108 C 0.6329 0.53714 0.1916 0.0
C2109 C 0.62508 0.51265 0.21251 0.0
C2110 C 0.62174 0.53211 0.15826 0.0
C2111 C 0.6029 0.50235 0.14511 0.0
H2112 H 0.64714 0.56045 0.2012 0.0
H2113 H 0.62787 0.55146 0.14272 0.0
S2114 S 0.57743 0.43027 0.18939 0.0
N2115 N 0.59822 0.4576 0.2177 0.0
N2116 N 0.57772 0.44801 0.15501 0.0
C2117 C 0.59535 0.47768 0.1657 0.0
C2118 C 0.60632 0.48289 0.19952 0.0
C2119 C 0.22473 0.81671 0.89451 0.0
C2120 C 0.25016 0.82632 0.91948 0.0
C2121 C 0.22761 0.79393 0.86851 0.0
C2122 C 0.25625 0.78086 0.8663 0.0
H2123 H 0.20307 0.82754 0.89452 0.0
H2124 H 0.2081 0.78797 0.84898 0.0
S2125 S 0.3271 0.79442 0.929 0.0
N2126 N 0.30254 0.81778 0.94317 0.0
N2127 N 0.30834 0.77605 0.89407 0.0
C2128 C 0.28041 0.78828 0.89276 0.0
C2129 C 0.27728 0.81089 0.91937 0.0
C2130 C 0.96857 0.52239 0.69886 0.0
C2131 C 0.93504 0.51528 0.70292 0.0
C2132 C 0.98017 0.51593 0.66857 0.0
C2133 C 0.9586 0.5024 0.64133 0.0
H2134 H 0.9861 0.53307 0.7192 0.0
H2135 H 0.00598 0.5227 0.66617 0.0
S2136 S 0.86924 0.47673 0.63916 0.0
N2137 N 0.88077 0.49208 0.67719 0.0
N2138 N 0.90284 0.48021 0.62032 0.0
C2139 C 0.92529 0.49442 0.6451 0.0
C2140 C 0.91341 0.50079 0.6759 0.0
C2141 C 0.27462 0.21029 0.41601 0.0
C2142 C 0.26949 0.17617 0.40909 0.0
C2143 C 0.27799 0.23167 0.39097 0.0
C2144 C 0.27607 0.21993 0.35775 0.0
H2145 H 0.2757 0.22069 0.44101 0.0
H2146 H 0.28143 0.25751 0.39768 0.0
S2147 S 0.26391 0.1327 0.32614 0.0
N2148 N 0.26391 0.1321 0.36602 0.0
N2149 N 0.26919 0.17135 0.31973 0.0
C2150 C 0.27136 0.18583 0.35067 0.0
C2151 C 0.26837 0.16429 0.376 0.0
C2152 C 0.37625 0.60996 0.50472 0.0
C2153 C 0.35688 0.60721 0.53103 0.0
C2154 C 0.40198 0.59269 0.50242 0.0
C2155 C 0.40869 0.57189 0.52618 0.0
H2156 H 0.37081 0.62476 0.48533 0.0
H2157 H 0.41673 0.59572 0.48208 0.0
S2158 S 0.36297 0.55441 0.59819 0.0
N2159 N 0.34489 0.58123 0.58019 0.0
N2160 N 0.39291 0.54853 0.57601 0.0
C2161 C 0.38921 0.56887 0.55245 0.0
C2162 C 0.36333 0.58658 0.55482 0.0
C2163 C 0.88824 0.96773 0.56619 0.0
C2164 C 0.87841 0.93496 0.55392 0.0
C2165 C 0.91862 0.98585 0.56027 0.0
C2166 C 0.94082 0.97173 0.54242 0.0
H2167 H 0.87205 0.97965 0.58005 0.0
H2168 H 0.92466 0.0111 0.56974 0.0
S2169 S 0.92753 0.88556 0.50751 0.0
N2170 N 0.89394 0.88864 0.5249 0.0
N2171 N 0.95073 0.92179 0.51403 0.0
C2172 C 0.93157 0.93843 0.53127 0.0
C2173 C 0.90067 0.92023 0.5372 0.0
C2174 C 0.88507 0.11126 0.27509 0.0
C2175 C 0.8604 0.08362 0.27259 0.0
C2176 C 0.87819 0.14266 0.2825 0.0
C2177 C 0.84638 0.14783 0.28784 0.0
H2178 H 0.91002 0.10858 0.27246 0.0
H2179 H 0.89815 0.16304 0.28441 0.0
S2180 S 0.77249 0.08391 0.28139 0.0
N2181 N 0.80227 0.06414 0.27406 0.0
N2182 N 0.78982 0.1224 0.28807 0.0
C2183 C 0.82145 0.12049 0.28447 0.0
C2184 C 0.82833 0.08873 0.2768 0.0
C2185 C 0.67241 0.13724 0.02667 0.0
C2186 C 0.69558 0.1197 0.03885 0.0
C2187 C 0.63946 0.12313 0.0213 0.0
C2188 C 0.62829 0.09105 0.02838 0.0
H2189 H 0.67996 0.16167 0.02006 0.0
H2190 H 0.62279 0.13739 0.0107 0.0
S2191 S 0.67885 0.03764 0.0675 0.0
N2192 N 0.70502 0.07076 0.06277 0.0
N2193 N 0.64289 0.04377 0.05236 0.0
C2194 C 0.65104 0.0741 0.04289 0.0
C2195 C 0.68475 0.08858 0.04827 0.0
C2196 C 0.1934 0.41786 0.25828 0.0
C2197 C 0.17869 0.42961 0.28501 0.0
C2198 C 0.20978 0.3915 0.26044 0.0
C2199 C 0.21244 0.37619 0.28954 0.0
H2200 H 0.19327 0.42985 0.23594 0.0
H2201 H 0.22074 0.38316 0.23919 0.0
S2202 S 0.17478 0.39542 0.36517 0.0
N2203 N 0.16585 0.42266 0.34072 0.0
N2204 N 0.19629 0.37281 0.34455 0.0
C2205 C 0.19707 0.38713 0.31614 0.0
C2206 C 0.18032 0.41395 0.31392 0.0
C2207 C 0.19437 0.45453 0.06862 0.0
C2208 C 0.20255 0.432 0.0451 0.0
C2209 C 0.16484 0.4662 0.06461 0.0
C2210 C 0.14296 0.45645 0.03649 0.0
H2211 H 0.21132 0.46386 0.08983 0.0
H2212 H 0.15928 0.48331 0.08341 0.0
S2213 S 0.15258 0.3975 0.96806 0.0
N2214 N 0.18606 0.40005 0.99301 0.0
N2215 N 0.13078 0.42208 0.98544 0.0
C2216 C 0.15061 0.43363 0.01306 0.0
C2217 C 0.18044 0.42149 0.0173 0.0
C2218 C 0.82221 0.90125 0.25158 0.0
C2219 C 0.85609 0.90966 0.26035 0.0
C2220 C 0.8043 0.87051 0.2566 0.0
C2221 C 0.81975 0.84612 0.26911 0.0
H2222 H 0.80935 0.91864 0.24079 0.0
H2223 H 0.77824 0.86571 0.25011 0.0
S2224 S 0.90899 0.85425 0.29129 0.0
N2225 N 0.90466 0.89006 0.27963 0.0
N2226 N 0.87201 0.83228 0.28754 0.0
C2227 C 0.85402 0.85377 0.27614 0.0
C2228 C 0.87193 0.88528 0.27181 0.0
C2229 C 0.70483 0.10349 0.75693 0.0
C2230 C 0.67352 0.09875 0.7677 0.0
C2231 C 0.72511 0.13402 0.76136 0.0
C2232 C 0.71482 0.16103 0.7768 0.0
H2233 H 0.71413 0.08318 0.74581 0.0
H2234 H 0.74942 0.1361 0.7536 0.0
S2235 S 0.63299 0.1617 0.80562 0.0
N2236 N 0.63171 0.12368 0.79131 0.0
N2237 N 0.66963 0.18121 0.80019 0.0
C2238 C 0.68267 0.15682 0.78598 0.0
C2239 C 0.66198 0.12568 0.78112 0.0
loop_
_geom_bond_atom_site_label_1
_geom_bond_atom_site_label_2
_geom_bond_distance
_geom_bond_site_symmetry_2
_ccdc_geom_bond_type
Mn0 O5 2.095 . S
Mn0 O15 2.162 . S
Mn0 O16 2.297 . S
Mn0 O24 2.385 1_455 S
Mn0 O25 2.209 . S
Mn0 O26 2.094 . S
Mn1 O6 2.121 . S
Mn1 N8 2.257 . S
Mn1 N17 2.282 1_455 S
Mn1 O25 2.215 . S
Mn1 O27 2.117 . S
C2 O24 1.234 . S
C2 O25 1.283 1_655 S
C3 O15 1.281 . S
C3 O16 1.236 . S
C4 O26 1.240 . S
C4 O27 1.264 . S
O5 Mn0 2.095 . S
O5 C14 1.250 . S
O6 Mn1 2.121 . S
O6 C14 1.258 . S
C7 N8 1.326 . S
C7 C11 1.460 . S
C7 H13 0.929 . S
N8 Mn1 2.257 . S
N8 C7 1.326 . S
N8 C12 1.362 1_455 S
C9 C10 1.258 . S
C9 C12 1.431 . S
C9 C29 1.449 . S
C10 C9 1.258 . S
C10 C11 1.477 1_655 S
C10 H30 0.931 . S
C11 C7 1.460 . S
C11 C10 1.477 1_455 S
C11 H31 0.930 . S
C12 N8 1.362 1_655 S
C12 C9 1.431 . S
C12 C22 1.476 . S
H13 C7 0.929 . S
C14 O5 1.250 . S
C14 O6 1.258 . S
O15 Mn0 2.162 . S
O15 C3 1.281 . S
O16 Mn0 2.297 . S
O16 C3 1.236 . S
N17 Mn1 2.282 1_655 S
N17 C18 1.328 . S
N17 C22 1.318 . S
C18 N17 1.328 . S
C18 C19 1.457 . S
C18 H23 0.929 . S
C19 C18 1.457 . S
C19 C20 1.291 . S
C19 H32 0.931 . S
C20 C19 1.291 . S
C20 C21 1.373 . S
C20 H33 0.929 . S
C21 C20 1.373 . S
C21 C22 1.396 . S
C21 C28 1.403 . S
C22 C12 1.476 . S
C22 N17 1.318 . S
C22 C21 1.396 . S
H23 C18 0.929 . S
O24 Mn0 2.385 1_655 S
O24 C2 1.234 . S
O25 Mn0 2.209 . S
O25 Mn1 2.215 . S
O25 C2 1.283 1_455 S
O26 Mn0 2.094 . S
O26 C4 1.240 . S
O27 Mn1 2.117 . S
O27 C4 1.264 . S
C28 C21 1.403 . S
C28 C29 1.399 . S
C28 H34 0.929 . S
C29 C9 1.449 . S
C29 C28 1.399 . S
C29 H35 0.930 . S
H30 C10 0.931 . S
H31 C11 0.930 . S
H32 C19 0.931 . S
H33 C20 0.929 . S
H34 C28 0.929 . S
H35 C29 0.930 . S
Mn36 O41 2.095 1_455 S
Mn36 O51 2.162 . S
Mn36 O52 2.297 . S
Mn36 O60 2.385 . S
Mn36 O61 2.209 . S
Mn36 O62 2.094 . S
Mn37 O42 2.121 1_455 S
Mn37 N44 2.257 . S
Mn37 N53 2.282 . S
Mn37 O61 2.215 . S
Mn37 O63 2.117 . S
C38 O60 1.234 . S
C38 O61 1.283 . S
C39 O51 1.281 . S
C39 O52 1.236 . S
C40 O62 1.240 . S
C40 O63 1.264 . S
O41 Mn36 2.095 1_655 S
O41 C50 1.250 . S
O42 Mn37 2.121 1_655 S
O42 C50 1.258 . S
C43 N44 1.326 . S
C43 C47 1.460 . S
C43 H49 0.926 1_455 S
N44 Mn37 2.257 . S
N44 C43 1.326 . S
N44 C48 1.362 . S
C45 C46 1.258 . S
C45 C48 1.431 . S
C45 C65 1.449 . S
C46 C45 1.258 . S
C46 C47 1.477 . S
C46 H66 0.931 . S
C47 C43 1.460 . S
C47 C46 1.477 . S
C47 H67 0.930 . S
C48 N44 1.362 . S
C48 C45 1.431 . S
C48 C58 1.476 . S
H49 C43 0.926 1_655 S
C50 O41 1.250 . S
C50 O42 1.258 . S
O51 Mn36 2.162 . S
O51 C39 1.281 . S
O52 Mn36 2.297 . S
O52 C39 1.236 . S
N53 Mn37 2.282 . S
N53 C54 1.328 . S
N53 C58 1.318 . S
C54 N53 1.328 . S
C54 C55 1.457 . S
C54 H59 0.929 . S
C55 C54 1.457 . S
C55 C56 1.291 . S
C55 H68 0.931 . S
C56 C55 1.291 . S
C56 C57 1.373 . S
C56 H69 0.929 . S
C57 C56 1.373 . S
C57 C58 1.396 . S
C57 C64 1.403 . S
C58 C48 1.476 . S
C58 N53 1.318 . S
C58 C57 1.396 . S
H59 C54 0.929 . S
O60 Mn36 2.385 . S
O60 C38 1.234 . S
O61 Mn36 2.209 . S
O61 Mn37 2.215 . S
O61 C38 1.283 . S
O62 Mn36 2.094 . S
O62 C40 1.240 . S
O63 Mn37 2.117 . S
O63 C40 1.264 . S
C64 C57 1.403 . S
C64 C65 1.399 . S
C64 H70 0.929 . S
C65 C45 1.449 . S
C65 C64 1.399 . S
C65 H71 0.930 . S
H66 C46 0.931 . S
H67 C47 0.930 . S
H68 C55 0.931 . S
H69 C56 0.929 . S
H70 C64 0.929 . S
H71 C65 0.930 . S
Mn72 O77 2.095 . S
Mn72 O87 2.162 . S
Mn72 O88 2.297 . S
Mn72 O96 2.385 . S
Mn72 O97 2.209 . S
Mn72 O98 2.094 . S
Mn73 O78 2.121 . S
Mn73 N80 2.257 . S
Mn73 N89 2.282 . S
Mn73 O97 2.215 . S
Mn73 O99 2.117 . S
C74 O96 1.234 . S
C74 O97 1.283 . S
C75 O87 1.281 . S
C75 O88 1.236 . S
C76 O98 1.240 . S
C76 O99 1.264 . S
O77 Mn72 2.095 . S
O77 C86 1.250 . S
O78 Mn73 2.121 . S
O78 C86 1.258 . S
C79 N80 1.326 . S
C79 C83 1.460 . S
C79 H85 0.929 . S
N80 Mn73 2.257 . S
N80 C79 1.326 . S
N80 C84 1.362 . S
C81 C82 1.258 . S
C81 C84 1.431 . S
C81 C101 1.449 . S
C82 C81 1.258 . S
C82 C83 1.477 . S
C82 H102 0.931 . S
C83 C79 1.460 . S
C83 C82 1.477 . S
C83 H103 0.930 . S
C84 N80 1.362 . S
C84 C81 1.431 . S
C84 C94 1.476 . S
H85 C79 0.929 . S
C86 O77 1.250 . S
C86 O78 1.258 . S
O87 Mn72 2.162 . S
O87 C75 1.281 . S
O88 Mn72 2.297 . S
O88 C75 1.236 . S
N89 Mn73 2.282 . S
N89 C90 1.328 . S
N89 C94 1.318 . S
C90 N89 1.328 . S
C90 C91 1.457 . S
C90 H95 0.929 . S
C91 C90 1.457 . S
C91 C92 1.291 . S
C91 H104 0.931 . S
C92 C91 1.291 . S
C92 C93 1.373 . S
C92 H105 0.929 . S
C93 C92 1.373 . S
C93 C94 1.396 . S
C93 C100 1.403 . S
C94 C84 1.476 . S
C94 N89 1.318 . S
C94 C93 1.396 . S
H95 C90 0.929 . S
O96 Mn72 2.385 . S
O96 C74 1.234 . S
O97 Mn72 2.209 . S
O97 Mn73 2.215 . S
O97 C74 1.283 . S
O98 Mn72 2.094 . S
O98 C76 1.240 . S
O99 Mn73 2.117 . S
O99 C76 1.264 . S
C100 C93 1.403 . S
C100 C101 1.399 . S
C100 H106 0.929 . S
C101 C81 1.449 . S
C101 C100 1.399 . S
C101 H107 0.930 . S
H102 C82 0.931 . S
H103 C83 0.930 . S
H104 C91 0.931 . S
H105 C92 0.929 . S
H106 C100 0.929 . S
H107 C101 0.930 . S
Mn108 O113 2.095 . S
Mn108 O123 2.162 . S
Mn108 O124 2.297 . S
Mn108 O132 2.385 . S
Mn108 O133 2.209 . S
Mn108 O134 2.094 . S
Mn109 O114 2.121 . S
Mn109 N116 2.257 . S
Mn109 N125 2.282 . S
Mn109 O133 2.215 . S
Mn109 O135 2.117 . S
C110 O132 1.234 . S
C110 O133 1.283 . S
C111 O123 1.281 . S
C111 O124 1.236 . S
C112 O134 1.240 . S
C112 O135 1.264 . S
O113 Mn108 2.095 . S
O113 C122 1.250 . S
O114 Mn109 2.121 . S
O114 C122 1.258 . S
C115 N116 1.326 . S
C115 C119 1.460 1_554 S
C115 H121 0.929 . S
N116 Mn109 2.257 . S
N116 C115 1.326 . S
N116 C120 1.362 . S
C117 C118 1.258 . S
C117 C120 1.431 1_556 S
C117 C137 1.449 . S
C118 C117 1.258 . S
C118 C119 1.477 . S
C118 H138 0.931 . S
C119 C115 1.460 1_556 S
C119 C118 1.477 . S
C119 H139 0.930 . S
C120 N116 1.362 . S
C120 C117 1.431 1_554 S
C120 C130 1.476 . S
H121 C115 0.929 . S
C122 O113 1.250 . S
C122 O114 1.258 . S
O123 Mn108 2.162 . S
O123 C111 1.281 . S
O124 Mn108 2.297 . S
O124 C111 1.236 . S
N125 Mn109 2.282 . S
N125 C126 1.328 . S
N125 C130 1.318 . S
C126 N125 1.328 . S
C126 C127 1.457 . S
C126 H131 0.929 . S
C127 C126 1.457 . S
C127 C128 1.291 . S
C127 H140 0.931 . S
C128 C127 1.291 . S
C128 C129 1.373 . S
C128 H141 0.929 . S
C129 C128 1.373 . S
C129 C130 1.396 . S
C129 C136 1.403 . S
C130 C120 1.476 . S
C130 N125 1.318 . S
C130 C129 1.396 . S
H131 C126 0.929 . S
O132 Mn108 2.385 . S
O132 C110 1.234 . S
O133 Mn108 2.209 . S
O133 Mn109 2.215 . S
O133 C110 1.283 . S
O134 Mn108 2.094 . S
O134 C112 1.240 . S
O135 Mn109 2.117 . S
O135 C112 1.264 . S
C136 C129 1.403 . S
C136 C137 1.399 1_554 S
C136 H142 0.929 . S
C137 C117 1.449 . S
C137 C136 1.399 1_556 S
C137 H143 0.930 . S
H138 C118 0.931 . S
H139 C119 0.930 . S
H140 C127 0.931 . S
H141 C128 0.929 . S
H142 C136 0.929 . S
H143 C137 0.930 . S
Mn144 O149 2.095 . S
Mn144 O159 2.162 . S
Mn144 O160 2.297 . S
Mn144 O168 2.385 . S
Mn144 O169 2.209 . S
Mn144 O170 2.094 . S
Mn145 O150 2.121 1_655 S
Mn145 N152 2.257 . S
Mn145 N161 2.282 . S
Mn145 O169 2.215 1_655 S
Mn145 O171 2.117 . S
C146 O168 1.234 . S
C146 O169 1.283 . S
C147 O159 1.281 . S
C147 O160 1.236 . S
C148 O170 1.240 1_655 S
C148 O171 1.264 . S
O149 Mn144 2.095 . S
O149 C158 1.250 . S
O150 Mn145 2.121 1_455 S
O150 C158 1.258 . S
C151 N152 1.326 1_455 S
C151 C155 1.460 1_554 S
C151 H157 0.929 . S
N152 Mn145 2.257 . S
N152 C151 1.326 1_655 S
N152 C156 1.362 . S
C153 C154 1.258 1_554 S
C153 C156 1.431 . S
C153 C173 1.449 1_554 S
C154 C153 1.258 1_556 S
C154 C155 1.477 1_655 S
C154 H174 0.931 . S
C155 C151 1.460 1_556 S
C155 C154 1.477 1_455 S
C155 H175 0.930 . S
C156 N152 1.362 . S
C156 C153 1.431 . S
C156 C166 1.476 . S
H157 C151 0.929 . S
C158 O149 1.250 . S
C158 O150 1.258 . S
O159 Mn144 2.162 . S
O159 C147 1.281 . S
O160 Mn144 2.297 . S
O160 C147 1.236 . S
N161 Mn145 2.282 . S
N161 C162 1.328 . S
N161 C166 1.318 . S
C162 N161 1.328 . S
C162 C163 1.457 . S
C162 H167 0.929 . S
C163 C162 1.457 . S
C163 C164 1.291 . S
C163 H176 0.931 . S
C164 C163 1.291 . S
C164 C165 1.373 . S
C164 H177 0.929 . S
C165 C164 1.373 . S
C165 C166 1.396 . S
C165 C172 1.403 . S
C166 C156 1.476 . S
C166 N161 1.318 . S
C166 C165 1.396 . S
H167 C162 0.929 . S
O168 Mn144 2.385 . S
O168 C146 1.234 . S
O169 Mn144 2.209 . S
O169 Mn145 2.215 1_455 S
O169 C146 1.283 . S
O170 Mn144 2.094 . S
O170 C148 1.240 1_455 S
O171 Mn145 2.117 . S
O171 C148 1.264 . S
C172 C165 1.403 . S
C172 C173 1.399 1_554 S
C172 H178 0.929 . S
C173 C153 1.449 1_556 S
C173 C172 1.399 1_556 S
C173 H179 0.930 . S
H174 C154 0.931 . S
H175 C155 0.930 . S
H176 C163 0.931 . S
H177 C164 0.929 . S
H178 C172 0.929 . S
H179 C173 0.930 . S
Mn180 O185 2.095 . S
Mn180 O195 2.162 . S
Mn180 O196 2.297 . S
Mn180 O204 2.385 . S
Mn180 O205 2.209 . S
Mn180 O206 2.094 . S
Mn181 O186 2.121 . S
Mn181 N188 2.257 . S
Mn181 N197 2.282 . S
Mn181 O205 2.215 . S
Mn181 O207 2.117 . S
C182 O204 1.234 . S
C182 O205 1.283 . S
C183 O195 1.281 . S
C183 O196 1.236 . S
C184 O206 1.240 . S
C184 O207 1.264 . S
O185 Mn180 2.095 . S
O185 C194 1.250 . S
O186 Mn181 2.121 . S
O186 C194 1.258 . S
C187 N188 1.326 . S
C187 C191 1.460 . S
C187 H193 0.929 . S
N188 Mn181 2.257 . S
N188 C187 1.326 . S
N188 C192 1.362 . S
C189 C190 1.258 . S
C189 C192 1.431 . S
C189 C209 1.449 . S
C190 C189 1.258 . S
C190 C191 1.477 . S
C190 H210 0.931 . S
C191 C187 1.460 . S
C191 C190 1.477 . S
C191 H211 0.930 . S
C192 N188 1.362 . S
C192 C189 1.431 . S
C192 C202 1.476 . S
H193 C187 0.929 . S
C194 O185 1.250 . S
C194 O186 1.258 . S
O195 Mn180 2.162 . S
O195 C183 1.281 . S
O196 Mn180 2.297 . S
O196 C183 1.236 . S
N197 Mn181 2.282 . S
N197 C198 1.328 . S
N197 C202 1.318 . S
C198 N197 1.328 . S
C198 C199 1.457 . S
C198 H203 0.929 . S
C199 C198 1.457 . S
C199 C200 1.291 . S
C199 H212 0.931 . S
C200 C199 1.291 . S
C200 C201 1.373 . S
C200 H213 0.929 . S
C201 C200 1.373 . S
C201 C202 1.396 . S
C201 C208 1.403 . S
C202 C192 1.476 . S
C202 N197 1.318 . S
C202 C201 1.396 . S
H203 C198 0.929 . S
O204 Mn180 2.385 . S
O204 C182 1.234 . S
O205 Mn180 2.209 . S
O205 Mn181 2.215 . S
O205 C182 1.283 . S
O206 Mn180 2.094 . S
O206 C184 1.240 . S
O207 Mn181 2.117 . S
O207 C184 1.264 . S
C208 C201 1.403 . S
C208 C209 1.399 . S
C208 H214 0.929 . S
C209 C189 1.449 . S
C209 C208 1.399 . S
C209 H215 0.930 . S
H210 C190 0.931 . S
H211 C191 0.930 . S
H212 C199 0.931 . S
H213 C200 0.929 . S
H214 C208 0.929 . S
H215 C209 0.930 . S
Mn216 O221 2.095 . S
Mn216 O231 2.162 . S
Mn216 O232 2.297 . S
Mn216 O240 2.385 . S
Mn216 O241 2.209 . S
Mn216 O242 2.094 . S
Mn217 O222 2.121 . S
Mn217 N224 2.257 . S
Mn217 N233 2.282 . S
Mn217 O241 2.215 . S
Mn217 O243 2.117 . S
C218 O240 1.234 . S
C218 O241 1.283 . S
C219 O231 1.281 . S
C219 O232 1.236 . S
C220 O242 1.240 . S
C220 O243 1.264 . S
O221 Mn216 2.095 . S
O221 C230 1.250 . S
O222 Mn217 2.121 . S
O222 C230 1.258 . S
C223 N224 1.326 . S
C223 C227 1.460 . S
C223 H229 0.929 . S
N224 Mn217 2.257 . S
N224 C223 1.326 . S
N224 C228 1.362 . S
C225 C226 1.258 . S
C225 C228 1.431 . S
C225 C245 1.449 . S
C226 C225 1.258 . S
C226 C227 1.477 . S
C226 H246 0.931 . S
C227 C223 1.460 . S
C227 C226 1.477 . S
C227 H247 0.930 . S
C228 N224 1.362 . S
C228 C225 1.431 . S
C228 C238 1.476 . S
H229 C223 0.929 . S
C230 O221 1.250 . S
C230 O222 1.258 . S
O231 Mn216 2.162 . S
O231 C219 1.281 . S
O232 Mn216 2.297 . S
O232 C219 1.236 . S
N233 Mn217 2.282 . S
N233 C234 1.328 . S
N233 C238 1.318 . S
C234 N233 1.328 . S
C234 C235 1.457 . S
C234 H239 0.929 . S
C235 C234 1.457 . S
C235 C236 1.291 . S
C235 H248 0.931 . S
C236 C235 1.291 . S
C236 C237 1.373 . S
C236 H249 0.929 . S
C237 C236 1.373 . S
C237 C238 1.396 . S
C237 C244 1.403 . S
C238 C228 1.476 . S
C238 N233 1.318 . S
C238 C237 1.396 . S
H239 C234 0.929 . S
O240 Mn216 2.385 . S
O240 C218 1.234 . S
O241 Mn216 2.209 . S
O241 Mn217 2.215 . S
O241 C218 1.283 . S
O242 Mn216 2.094 . S
O242 C220 1.240 . S
O243 Mn217 2.117 . S
O243 C220 1.264 . S
C244 C237 1.403 . S
C244 C245 1.399 . S
C244 H250 0.929 . S
C245 C225 1.449 . S
C245 C244 1.399 . S
C245 H251 0.930 . S
H246 C226 0.931 . S
H247 C227 0.930 . S
H248 C235 0.931 . S
H249 C236 0.929 . S
H250 C244 0.929 . S
H251 C245 0.930 . S
Mn252 O257 2.095 1_655 S
Mn252 O267 2.159 1_655 S
Mn252 O268 2.297 . S
Mn252 O276 2.385 . S
Mn252 O277 2.209 . S
Mn252 O278 2.094 1_655 S
Mn253 O258 2.121 1_655 S
Mn253 N260 2.257 . S
Mn253 N269 2.282 . S
Mn253 O277 2.215 . S
Mn253 O279 2.117 1_655 S
C254 O276 1.234 . S
C254 O277 1.283 . S
C255 O267 1.282 1_655 S
C255 O268 1.236 . S
C256 O278 1.240 . S
C256 O279 1.264 . S
O257 Mn252 2.095 1_455 S
O257 C266 1.250 . S
O258 Mn253 2.121 1_455 S
O258 C266 1.258 . S
C259 N260 1.326 . S
C259 C263 1.460 . S
C259 H265 0.929 1_655 S
N260 Mn253 2.257 . S
N260 C259 1.326 . S
N260 C264 1.362 . S
C261 C262 1.258 . S
C261 C264 1.431 . S
C261 C281 1.449 . S
C262 C261 1.258 . S
C262 C263 1.477 . S
C262 H282 0.931 . S
C263 C259 1.460 . S
C263 C262 1.477 . S
C263 H283 0.930 . S
C264 N260 1.362 . S
C264 C261 1.431 . S
C264 C274 1.476 . S
H265 C259 0.929 1_455 S
C266 O257 1.250 . S
C266 O258 1.258 . S
O267 Mn252 2.159 1_455 S
O267 C255 1.282 1_455 S
O268 Mn252 2.297 . S
O268 C255 1.236 . S
N269 Mn253 2.282 . S
N269 C270 1.328 . S
N269 C274 1.318 . S
C270 N269 1.328 . S
C270 C271 1.457 . S
C270 H275 0.929 . S
C271 C270 1.457 . S
C271 C272 1.291 . S
C271 H284 0.931 . S
C272 C271 1.291 . S
C272 C273 1.373 . S
C272 H285 0.929 . S
C273 C272 1.373 . S
C273 C274 1.396 . S
C273 C280 1.403 . S
C274 C264 1.476 . S
C274 N269 1.318 . S
C274 C273 1.396 . S
H275 C270 0.929 . S
O276 Mn252 2.385 . S
O276 C254 1.234 . S
O277 Mn252 2.209 . S
O277 Mn253 2.215 . S
O277 C254 1.283 . S
O278 Mn252 2.094 1_455 S
O278 C256 1.240 . S
O279 Mn253 2.117 1_455 S
O279 C256 1.264 . S
C280 C273 1.403 . S
C280 C281 1.399 . S
C280 H286 0.929 . S
C281 C261 1.449 . S
C281 C280 1.399 . S
C281 H287 0.930 . S
H282 C262 0.931 . S
H283 C263 0.930 . S
H284 C271 0.931 . S
H285 C272 0.929 . S
H286 C280 0.929 . S
H287 C281 0.930 . S
Mn288 O293 2.095 . S
Mn288 O303 2.162 . S
Mn288 O304 2.297 . S
Mn288 O312 2.385 1_545 S
Mn288 O313 2.209 1_545 S
Mn288 O314 2.094 . S
Mn289 O294 2.121 . S
Mn289 N296 2.257 1_545 S
Mn289 N305 2.282 1_545 S
Mn289 O313 2.215 1_545 S
Mn289 O315 2.117 . S
C290 O312 1.234 . S
C290 O313 1.283 . S
C291 O303 1.281 . S
C291 O304 1.236 . S
C292 O314 1.240 . S
C292 O315 1.264 . S
O293 Mn288 2.095 . S
O293 C302 1.250 . S
O294 Mn289 2.121 . S
O294 C302 1.258 . S
C295 N296 1.326 1_545 S
C295 C299 1.460 1_545 S
C295 H301 0.929 . S
N296 Mn289 2.257 1_565 S
N296 C295 1.326 1_565 S
N296 C300 1.362 . S
C297 C298 1.258 . S
C297 C300 1.431 . S
C297 C317 1.449 . S
C298 C297 1.258 . S
C298 C299 1.477 . S
C298 H318 0.931 . S
C299 C295 1.460 1_565 S
C299 C298 1.477 . S
C299 H319 0.930 1_565 S
C300 N296 1.362 . S
C300 C297 1.431 . S
C300 C310 1.476 . S
H301 C295 0.929 . S
C302 O293 1.250 . S
C302 O294 1.258 . S
O303 Mn288 2.162 . S
O303 C291 1.281 . S
O304 Mn288 2.297 . S
O304 C291 1.236 . S
N305 Mn289 2.282 1_565 S
N305 C306 1.328 . S
N305 C310 1.318 . S
C306 N305 1.328 . S
C306 C307 1.457 . S
C306 H311 0.929 . S
C307 C306 1.457 . S
C307 C308 1.291 . S
C307 H320 0.931 . S
C308 C307 1.291 . S
C308 C309 1.373 . S
C308 H321 0.929 . S
C309 C308 1.373 . S
C309 C310 1.396 . S
C309 C316 1.403 . S
C310 C300 1.476 . S
C310 N305 1.318 . S
C310 C309 1.396 . S
H311 C306 0.929 . S
O312 Mn288 2.385 1_565 S
O312 C290 1.234 . S
O313 Mn288 2.209 1_565 S
O313 Mn289 2.215 1_565 S
O313 C290 1.283 . S
O314 Mn288 2.094 . S
O314 C292 1.240 . S
O315 Mn289 2.117 . S
O315 C292 1.264 . S
C316 C309 1.403 . S
C316 C317 1.399 . S
C316 H322 0.929 . S
C317 C297 1.449 . S
C317 C316 1.399 . S
C317 H323 0.930 . S
H318 C298 0.931 . S
H319 C299 0.930 1_545 S
H320 C307 0.931 . S
H321 C308 0.929 . S
H322 C316 0.929 . S
H323 C317 0.930 . S
Mn324 O329 2.095 . S
Mn324 O339 2.162 . S
Mn324 O340 2.297 . S
Mn324 O348 2.385 . S
Mn324 O349 2.209 . S
Mn324 O350 2.094 . S
Mn325 O330 2.121 . S
Mn325 N332 2.257 . S
Mn325 N341 2.282 . S
Mn325 O349 2.215 . S
Mn325 O351 2.117 . S
C326 O348 1.234 . S
C326 O349 1.283 . S
C327 O339 1.281 . S
C327 O340 1.236 . S
C328 O350 1.240 . S
C328 O351 1.264 . S
O329 Mn324 2.095 . S
O329 C338 1.250 . S
O330 Mn325 2.121 . S
O330 C338 1.258 . S
C331 N332 1.326 . S
C331 C335 1.460 1_545 S
C331 H337 0.929 . S
N332 Mn325 2.257 . S
N332 C331 1.326 . S
N332 C336 1.362 . S
C333 C334 1.258 . S
C333 C336 1.431 1_565 S
C333 C353 1.449 . S
C334 C333 1.258 . S
C334 C335 1.477 . S
C334 H354 0.931 . S
C335 C331 1.460 1_565 S
C335 C334 1.477 . S
C335 H355 0.930 . S
C336 N332 1.362 . S
C336 C333 1.431 1_545 S
C336 C346 1.476 . S
H337 C331 0.929 . S
C338 O329 1.250 . S
C338 O330 1.258 . S
O339 Mn324 2.162 . S
O339 C327 1.281 . S
O340 Mn324 2.297 . S
O340 C327 1.236 . S
N341 Mn325 2.282 . S
N341 C342 1.328 . S
N341 C346 1.318 . S
C342 N341 1.328 . S
C342 C343 1.457 . S
C342 H347 0.929 . S
C343 C342 1.457 . S
C343 C344 1.291 . S
C343 H356 0.931 . S
C344 C343 1.291 . S
C344 C345 1.373 . S
C344 H357 0.929 . S
C345 C344 1.373 . S
C345 C346 1.396 . S
C345 C352 1.379 1_545 S
C346 C336 1.476 . S
C346 N341 1.318 . S
C346 C345 1.396 . S
H347 C342 0.929 . S
O348 Mn324 2.385 . S
O348 C326 1.234 . S
O349 Mn324 2.209 . S
O349 Mn325 2.215 . S
O349 C326 1.283 . S
O350 Mn324 2.094 . S
O350 C328 1.240 . S
O351 Mn325 2.117 . S
O351 C328 1.264 . S
C352 C345 1.379 1_565 S
C352 C353 1.420 . S
C352 H358 0.933 . S
C353 C333 1.449 . S
C353 C352 1.420 . S
C353 H359 0.930 . S
H354 C334 0.931 . S
H355 C335 0.930 . S
H356 C343 0.931 . S
H357 C344 0.929 . S
H358 C352 0.933 . S
H359 C353 0.930 . S
Mn360 O365 2.095 1_545 S
Mn360 O375 2.162 . S
Mn360 O376 2.297 . S
Mn360 O384 2.385 . S
Mn360 O385 2.209 . S
Mn360 O386 2.094 . S
Mn361 O366 2.121 1_545 S
Mn361 N368 2.257 . S
Mn361 N377 2.282 . S
Mn361 O385 2.215 . S
Mn361 O387 2.117 . S
C362 O384 1.234 . S
C362 O385 1.283 . S
C363 O375 1.281 . S
C363 O376 1.236 . S
C364 O386 1.240 . S
C364 O387 1.264 . S
O365 Mn360 2.095 1_565 S
O365 C374 1.250 . S
O366 Mn361 2.121 1_565 S
O366 C374 1.258 . S
C367 N368 1.326 . S
C367 C371 1.460 . S
C367 H373 0.929 . S
N368 Mn361 2.257 . S
N368 C367 1.326 . S
N368 C372 1.362 . S
C369 C370 1.258 . S
C369 C372 1.431 . S
C369 C389 1.449 . S
C370 C369 1.258 . S
C370 C371 1.477 . S
C370 H390 0.931 . S
C371 C367 1.460 . S
C371 C370 1.477 . S
C371 H391 0.930 . S
C372 N368 1.362 . S
C372 C369 1.431 . S
C372 C382 1.476 . S
H373 C367 0.929 . S
C374 O365 1.250 . S
C374 O366 1.258 . S
O375 Mn360 2.162 . S
O375 C363 1.281 . S
O376 Mn360 2.297 . S
O376 C363 1.236 . S
N377 Mn361 2.282 . S
N377 C378 1.328 . S
N377 C382 1.318 . S
C378 N377 1.328 . S
C378 C379 1.457 . S
C378 H383 0.929 . S
C379 C378 1.457 . S
C379 C380 1.291 . S
C379 H392 0.931 . S
C380 C379 1.291 . S
C380 C381 1.373 . S
C380 H393 0.929 . S
C381 C380 1.373 . S
C381 C382 1.396 . S
C381 C388 1.403 . S
C382 C372 1.476 . S
C382 N377 1.318 . S
C382 C381 1.396 . S
H383 C378 0.929 . S
O384 Mn360 2.385 . S
O384 C362 1.234 . S
O385 Mn360 2.209 . S
O385 Mn361 2.215 . S
O385 C362 1.283 . S
O386 Mn360 2.094 . S
O386 C364 1.240 . S
O387 Mn361 2.117 . S
O387 C364 1.264 . S
C388 C381 1.403 . S
C388 C389 1.399 . S
C388 H394 0.929 . S
C389 C369 1.449 . S
C389 C388 1.399 . S
C389 H395 0.930 . S
H390 C370 0.931 . S
H391 C371 0.930 . S
H392 C379 0.931 . S
H393 C380 0.929 . S
H394 C388 0.929 . S
H395 C389 0.930 . S
Mn396 O401 2.095 . S
Mn396 O411 2.162 . S
Mn396 O412 2.297 . S
Mn396 O420 2.385 . S
Mn396 O421 2.209 . S
Mn396 O422 2.094 1_554 S
Mn397 O402 2.121 . S
Mn397 N404 2.257 . S
Mn397 N413 2.282 . S
Mn397 O421 2.215 1_556 S
Mn397 O423 2.117 . S
C398 O420 1.234 . S
C398 O421 1.283 . S
C399 O411 1.281 . S
C399 O412 1.236 . S
C400 O422 1.240 . S
C400 O423 1.264 . S
O401 Mn396 2.095 . S
O401 C410 1.250 . S
O402 Mn397 2.121 . S
O402 C410 1.258 1_556 S
C403 N404 1.326 . S
C403 C407 1.460 1_565 S
C403 H409 0.929 1_556 S
N404 Mn397 2.257 . S
N404 C403 1.326 . S
N404 C408 1.362 . S
C405 C406 1.258 . S
C405 C408 1.431 1_545 S
C405 C425 1.449 . S
C406 C405 1.258 . S
C406 C407 1.477 . S
C406 H426 0.931 . S
C407 C403 1.460 1_545 S
C407 C406 1.477 . S
C407 H427 0.930 1_556 S
C408 N404 1.362 . S
C408 C405 1.431 1_565 S
C408 C418 1.476 . S
H409 C403 0.929 1_554 S
C410 O401 1.250 . S
C410 O402 1.258 1_554 S
O411 Mn396 2.162 . S
O411 C399 1.281 . S
O412 Mn396 2.297 . S
O412 C399 1.236 . S
N413 Mn397 2.282 . S
N413 C414 1.328 . S
N413 C418 1.318 . S
C414 N413 1.328 . S
C414 C415 1.457 . S
C414 H419 0.929 . S
C415 C414 1.457 . S
C415 C416 1.291 . S
C415 H428 0.931 . S
C416 C415 1.291 . S
C416 C417 1.373 . S
C416 H429 0.929 . S
C417 C416 1.373 . S
C417 C418 1.396 . S
C417 C424 1.403 1_565 S
C418 C408 1.476 . S
C418 N413 1.318 . S
C418 C417 1.396 . S
H419 C414 0.929 . S
O420 Mn396 2.385 . S
O420 C398 1.234 . S
O421 Mn396 2.209 . S
O421 Mn397 2.215 1_554 S
O421 C398 1.283 . S
O422 Mn396 2.094 1_556 S
O422 C400 1.240 . S
O423 Mn397 2.117 . S
O423 C400 1.264 . S
C424 C417 1.403 1_545 S
C424 C425 1.399 . S
C424 H430 0.929 . S
C425 C405 1.449 . S
C425 C424 1.399 . S
C425 H431 0.930 . S
H426 C406 0.931 . S
H427 C407 0.930 1_554 S
H428 C415 0.931 . S
H429 C416 0.929 . S
H430 C424 0.929 . S
H431 C425 0.930 . S
Mn432 O437 2.095 . S
Mn432 O447 2.162 . S
Mn432 O448 2.297 . S
Mn432 O456 2.385 . S
Mn432 O457 2.209 . S
Mn432 O458 2.094 . S
Mn433 O438 2.121 . S
Mn433 N440 2.257 . S
Mn433 N449 2.282 1_554 S
Mn433 O457 2.215 . S
Mn433 O459 2.117 1_554 S
C434 O456 1.234 . S
C434 O457 1.283 . S
C435 O447 1.281 . S
C435 O448 1.236 . S
C436 O458 1.240 1_556 S
C436 O459 1.264 . S
O437 Mn432 2.095 . S
O437 C446 1.250 . S
O438 Mn433 2.121 . S
O438 C446 1.258 . S
C439 N440 1.326 . S
C439 C443 1.460 . S
C439 H445 0.929 . S
N440 Mn433 2.257 . S
N440 C439 1.326 . S
N440 C444 1.362 . S
C441 C442 1.258 . S
C441 C444 1.431 . S
C441 C461 1.449 1_554 S
C442 C441 1.258 . S
C442 C443 1.477 . S
C442 H462 0.931 . S
C443 C439 1.460 . S
C443 C442 1.477 . S
C443 H463 0.930 . S
C444 N440 1.362 . S
C444 C441 1.431 . S
C444 C454 1.476 1_554 S
H445 C439 0.929 . S
C446 O437 1.250 . S
C446 O438 1.258 . S
O447 Mn432 2.162 . S
O447 C435 1.281 . S
O448 Mn432 2.297 . S
O448 C435 1.236 . S
N449 Mn433 2.282 1_556 S
N449 C450 1.328 . S
N449 C454 1.318 . S
C450 N449 1.328 . S
C450 C451 1.457 . S
C450 H455 0.929 . S
C451 C450 1.457 . S
C451 C452 1.291 . S
C451 H464 0.931 . S
C452 C451 1.291 . S
C452 C453 1.373 . S
C452 H465 0.929 . S
C453 C452 1.373 . S
C453 C454 1.396 . S
C453 C460 1.403 . S
C454 C444 1.476 1_556 S
C454 N449 1.318 . S
C454 C453 1.396 . S
H455 C450 0.929 . S
O456 Mn432 2.385 . S
O456 C434 1.234 . S
O457 Mn432 2.209 . S
O457 Mn433 2.215 . S
O457 C434 1.283 . S
O458 Mn432 2.094 . S
O458 C436 1.240 1_554 S
O459 Mn433 2.117 1_556 S
O459 C436 1.264 . S
C460 C453 1.403 . S
C460 C461 1.399 . S
C460 H466 0.929 . S
C461 C441 1.449 1_556 S
C461 C460 1.399 . S
C461 H467 0.931 1_556 S
H462 C442 0.931 . S
H463 C443 0.930 . S
H464 C451 0.931 . S
H465 C452 0.929 . S
H466 C460 0.929 . S
H467 C461 0.931 1_554 S
Mn468 O473 2.095 . S
Mn468 O483 2.162 . S
Mn468 O484 2.297 . S
Mn468 O492 2.385 . S
Mn468 O493 2.209 . S
Mn468 O494 2.094 . S
Mn469 O474 2.121 1_556 S
Mn469 N476 2.257 . S
Mn469 N485 2.282 . S
Mn469 O493 2.215 1_556 S
Mn469 O495 2.117 . S
C470 O492 1.234 . S
C470 O493 1.283 . S
C471 O483 1.281 . S
C471 O484 1.236 . S
C472 O494 1.240 1_556 S
C472 O495 1.264 . S
O473 Mn468 2.095 . S
O473 C482 1.250 . S
O474 Mn469 2.121 1_554 S
O474 C482 1.258 . S
C475 N476 1.326 1_554 S
C475 C479 1.461 1_544 S
C475 H481 0.929 . S
N476 Mn469 2.257 . S
N476 C475 1.326 1_556 S
N476 C480 1.362 . S
C477 C478 1.233 1_545 S
C477 C480 1.458 . S
C477 C497 1.448 1_545 S
C478 C477 1.233 1_565 S
C478 C479 1.483 . S
C478 H498 0.931 . S
C479 C475 1.461 1_566 S
C479 C478 1.483 . S
C479 H499 0.924 1_556 S
C480 N476 1.362 . S
C480 C477 1.458 . S
C480 C490 1.476 . S
H481 C475 0.929 . S
C482 O473 1.250 . S
C482 O474 1.258 . S
O483 Mn468 2.162 . S
O483 C471 1.281 . S
O484 Mn468 2.297 . S
O484 C471 1.236 . S
N485 Mn469 2.282 . S
N485 C486 1.328 . S
N485 C490 1.318 . S
C486 N485 1.328 . S
C486 C487 1.457 . S
C486 H491 0.929 . S
C487 C486 1.457 . S
C487 C488 1.291 . S
C487 H500 0.931 . S
C488 C487 1.291 . S
C488 C489 1.373 . S
C488 H501 0.929 . S
C489 C488 1.373 . S
C489 C490 1.396 . S
C489 C496 1.403 . S
C490 C480 1.476 . S
C490 N485 1.318 . S
C490 C489 1.396 . S
H491 C486 0.929 . S
O492 Mn468 2.385 . S
O492 C470 1.234 . S
O493 Mn468 2.209 . S
O493 Mn469 2.215 1_554 S
O493 C470 1.283 . S
O494 Mn468 2.094 . S
O494 C472 1.240 1_554 S
O495 Mn469 2.117 . S
O495 C472 1.264 . S
C496 C489 1.403 . S
C496 C497 1.399 1_545 S
C496 H502 0.929 . S
C497 C477 1.448 1_565 S
C497 C496 1.399 1_565 S
C497 H503 0.930 . S
H498 C478 0.931 . S
H499 C479 0.924 1_554 S
H500 C487 0.931 . S
H501 C488 0.929 . S
H502 C496 0.929 . S
H503 C497 0.930 . S
Mn504 O509 2.095 . S
Mn504 O519 2.162 . S
Mn504 O520 2.297 . S
Mn504 O528 2.385 . S
Mn504 O529 2.209 . S
Mn504 O530 2.094 . S
Mn505 O510 2.121 . S
Mn505 N512 2.257 . S
Mn505 N521 2.282 . S
Mn505 O529 2.215 . S
Mn505 O531 2.117 . S
C506 O528 1.234 . S
C506 O529 1.283 . S
C507 O519 1.281 . S
C507 O520 1.236 . S
C508 O530 1.240 . S
C508 O531 1.264 . S
O509 Mn504 2.095 . S
O509 C518 1.250 . S
O510 Mn505 2.121 . S
O510 C518 1.258 . S
C511 N512 1.326 . S
C511 C515 1.460 . S
C511 H517 0.929 . S
N512 Mn505 2.257 . S
N512 C511 1.326 . S
N512 C516 1.362 . S
C513 C514 1.258 . S
C513 C516 1.431 . S
C513 C533 1.449 . S
C514 C513 1.258 . S
C514 C515 1.477 . S
C514 H534 0.931 . S
C515 C511 1.460 . S
C515 C514 1.477 . S
C515 H535 0.930 . S
C516 N512 1.362 . S
C516 C513 1.431 . S
C516 C526 1.476 . S
H517 C511 0.929 . S
C518 O509 1.250 . S
C518 O510 1.258 . S
O519 Mn504 2.162 . S
O519 C507 1.281 . S
O520 Mn504 2.297 . S
O520 C507 1.236 . S
N521 Mn505 2.282 . S
N521 C522 1.328 . S
N521 C526 1.318 . S
C522 N521 1.328 . S
C522 C523 1.457 . S
C522 H527 0.929 . S
C523 C522 1.457 . S
C523 C524 1.291 . S
C523 H536 0.931 . S
C524 C523 1.291 . S
C524 C525 1.373 . S
C524 H537 0.929 . S
C525 C524 1.373 . S
C525 C526 1.396 . S
C525 C532 1.403 . S
C526 C516 1.476 . S
C526 N521 1.318 . S
C526 C525 1.396 . S
H527 C522 0.929 . S
O528 Mn504 2.385 . S
O528 C506 1.234 . S
O529 Mn504 2.209 . S
O529 Mn505 2.215 . S
O529 C506 1.283 . S
O530 Mn504 2.094 . S
O530 C508 1.240 . S
O531 Mn505 2.117 . S
O531 C508 1.264 . S
C532 C525 1.403 . S
C532 C533 1.399 . S
C532 H538 0.929 . S
C533 C513 1.449 . S
C533 C532 1.399 . S
C533 H539 0.930 . S
H534 C514 0.931 . S
H535 C515 0.930 . S
H536 C523 0.931 . S
H537 C524 0.929 . S
H538 C532 0.929 . S
H539 C533 0.930 . S
Mn540 O545 2.095 . S
Mn540 O555 2.162 . S
Mn540 O556 2.297 . S
Mn540 O564 2.385 . S
Mn540 O565 2.209 . S
Mn540 O566 2.094 . S
Mn541 O546 2.121 . S
Mn541 N548 2.257 . S
Mn541 N557 2.282 . S
Mn541 O565 2.215 . S
Mn541 O567 2.117 . S
C542 O564 1.234 . S
C542 O565 1.283 . S
C543 O555 1.281 . S
C543 O556 1.236 . S
C544 O566 1.240 . S
C544 O567 1.264 . S
O545 Mn540 2.095 . S
O545 C554 1.250 . S
O546 Mn541 2.121 . S
O546 C554 1.258 . S
C547 N548 1.326 1_545 S
C547 C551 1.460 . S
C547 H553 0.929 . S
N548 Mn541 2.257 . S
N548 C547 1.326 1_565 S
N548 C552 1.362 . S
C549 C550 1.258 . S
C549 C552 1.431 1_545 S
C549 C569 1.449 . S
C550 C549 1.258 . S
C550 C551 1.477 . S
C550 H570 0.931 . S
C551 C547 1.460 . S
C551 C550 1.477 . S
C551 H571 0.930 . S
C552 N548 1.362 . S
C552 C549 1.431 1_565 S
C552 C562 1.476 . S
H553 C547 0.929 . S
C554 O545 1.250 . S
C554 O546 1.258 . S
O555 Mn540 2.162 . S
O555 C543 1.281 . S
O556 Mn540 2.297 . S
O556 C543 1.236 . S
N557 Mn541 2.282 . S
N557 C558 1.328 . S
N557 C562 1.318 . S
C558 N557 1.328 . S
C558 C559 1.457 . S
C558 H563 0.929 . S
C559 C558 1.457 . S
C559 C560 1.291 . S
C559 H572 0.931 . S
C560 C559 1.291 . S
C560 C561 1.373 . S
C560 H573 0.929 . S
C561 C560 1.373 . S
C561 C562 1.396 . S
C561 C568 1.403 1_565 S
C562 C552 1.476 . S
C562 N557 1.318 . S
C562 C561 1.396 . S
H563 C558 0.929 . S
O564 Mn540 2.385 . S
O564 C542 1.234 . S
O565 Mn540 2.209 . S
O565 Mn541 2.215 . S
O565 C542 1.283 . S
O566 Mn540 2.094 . S
O566 C544 1.240 . S
O567 Mn541 2.117 . S
O567 C544 1.264 . S
C568 C561 1.403 1_545 S
C568 C569 1.399 . S
C568 H574 0.929 . S
C569 C549 1.449 . S
C569 C568 1.399 . S
C569 H575 0.930 . S
H570 C550 0.931 . S
H571 C551 0.930 . S
H572 C559 0.931 . S
H573 C560 0.929 . S
H574 C568 0.929 . S
H575 C569 0.930 . S
Mn576 O581 2.095 . S
Mn576 O591 2.162 . S
Mn576 O592 2.297 1_545 S
Mn576 O600 2.385 1_545 S
Mn576 O601 2.209 1_545 S
Mn576 O602 2.094 . S
Mn577 O582 2.121 1_565 S
Mn577 N584 2.257 . S
Mn577 N593 2.282 . S
Mn577 O601 2.215 . S
Mn577 O603 2.117 1_565 S
C578 O600 1.234 . S
C578 O601 1.283 . S
C579 O591 1.281 . S
C579 O592 1.236 1_545 S
C580 O602 1.240 . S
C580 O603 1.264 . S
O581 Mn576 2.095 . S
O581 C590 1.250 . S
O582 Mn577 2.121 1_545 S
O582 C590 1.258 . S
C583 N584 1.326 . S
C583 C587 1.460 . S
C583 H589 0.929 1_565 S
N584 Mn577 2.257 . S
N584 C583 1.326 . S
N584 C588 1.362 . S
C585 C586 1.258 . S
C585 C588 1.431 . S
C585 C605 1.449 . S
C586 C585 1.258 . S
C586 C587 1.477 . S
C586 H606 0.931 . S
C587 C583 1.460 . S
C587 C586 1.477 . S
C587 H607 0.930 . S
C588 N584 1.362 . S
C588 C585 1.431 . S
C588 C598 1.476 . S
H589 C583 0.929 1_545 S
C590 O581 1.250 . S
C590 O582 1.258 . S
O591 Mn576 2.162 . S
O591 C579 1.281 . S
O592 Mn576 2.297 1_565 S
O592 C579 1.236 1_565 S
N593 Mn577 2.282 . S
N593 C594 1.328 . S
N593 C598 1.318 . S
C594 N593 1.328 . S
C594 C595 1.457 . S
C594 H599 0.929 . S
C595 C594 1.457 . S
C595 C596 1.291 . S
C595 H608 0.931 . S
C596 C595 1.291 . S
C596 C597 1.373 . S
C596 H609 0.929 . S
C597 C596 1.373 . S
C597 C598 1.396 . S
C597 C604 1.403 . S
C598 C588 1.476 . S
C598 N593 1.318 . S
C598 C597 1.396 . S
H599 C594 0.929 . S
O600 Mn576 2.385 1_565 S
O600 C578 1.234 . S
O601 Mn576 2.209 1_565 S
O601 Mn577 2.215 . S
O601 C578 1.283 . S
O602 Mn576 2.094 . S
O602 C580 1.240 . S
O603 Mn577 2.117 1_545 S
O603 C580 1.264 . S
C604 C597 1.403 . S
C604 C605 1.399 . S
C604 H610 0.929 . S
C605 C585 1.449 . S
C605 C604 1.399 . S
C605 H611 0.930 . S
H606 C586 0.931 . S
H607 C587 0.930 . S
H608 C595 0.931 . S
H609 C596 0.929 . S
H610 C604 0.929 . S
H611 C605 0.930 . S
Mn612 O617 2.095 . S
Mn612 O627 2.162 . S
Mn612 O628 2.297 . S
Mn612 O636 2.385 . S
Mn612 O637 2.209 . S
Mn612 O638 2.094 . S
Mn613 O618 2.121 . S
Mn613 N620 2.257 . S
Mn613 N629 2.282 . S
Mn613 O637 2.215 . S
Mn613 O639 2.117 . S
C614 O636 1.234 . S
C614 O637 1.283 . S
C615 O627 1.281 . S
C615 O628 1.236 . S
C616 O638 1.240 . S
C616 O639 1.264 . S
O617 Mn612 2.095 . S
O617 C626 1.250 . S
O618 Mn613 2.121 . S
O618 C626 1.258 . S
C619 N620 1.326 . S
C619 C623 1.460 . S
C619 H625 0.929 . S
N620 Mn613 2.257 . S
N620 C619 1.326 . S
N620 C624 1.362 . S
C621 C622 1.258 . S
C621 C624 1.431 . S
C621 C641 1.449 . S
C622 C621 1.258 . S
C622 C623 1.477 . S
C622 H642 0.931 . S
C623 C619 1.460 . S
C623 C622 1.477 . S
C623 H643 0.930 . S
C624 N620 1.362 . S
C624 C621 1.431 . S
C624 C634 1.476 . S
H625 C619 0.929 . S
C626 O617 1.250 . S
C626 O618 1.258 . S
O627 Mn612 2.162 . S
O627 C615 1.281 . S
O628 Mn612 2.297 . S
O628 C615 1.236 . S
N629 Mn613 2.282 . S
N629 C630 1.328 . S
N629 C634 1.318 . S
C630 N629 1.328 . S
C630 C631 1.457 . S
C630 H635 0.929 . S
C631 C630 1.457 . S
C631 C632 1.291 . S
C631 H644 0.931 . S
C632 C631 1.291 . S
C632 C633 1.373 . S
C632 H645 0.929 . S
C633 C632 1.373 . S
C633 C634 1.396 . S
C633 C640 1.403 . S
C634 C624 1.476 . S
C634 N629 1.318 . S
C634 C633 1.396 . S
H635 C630 0.929 . S
O636 Mn612 2.385 . S
O636 C614 1.234 . S
O637 Mn612 2.209 . S
O637 Mn613 2.215 . S
O637 C614 1.283 . S
O638 Mn612 2.094 . S
O638 C616 1.240 . S
O639 Mn613 2.117 . S
O639 C616 1.264 . S
C640 C633 1.403 . S
C640 C641 1.399 . S
C640 H646 0.929 . S
C641 C621 1.449 . S
C641 C640 1.399 . S
C641 H647 0.930 . S
H642 C622 0.931 . S
H643 C623 0.930 . S
H644 C631 0.931 . S
H645 C632 0.929 . S
H646 C640 0.929 . S
H647 C641 0.930 . S
Mn648 O653 2.095 . S
Mn648 O663 2.162 . S
Mn648 O664 2.297 . S
Mn648 O672 2.385 . S
Mn648 O673 2.209 . S
Mn648 O674 2.094 . S
Mn649 O654 2.121 . S
Mn649 N656 2.257 . S
Mn649 N665 2.282 . S
Mn649 O673 2.215 . S
Mn649 O675 2.117 . S
C650 O672 1.234 . S
C650 O673 1.283 . S
C651 O663 1.281 . S
C651 O664 1.236 . S
C652 O674 1.240 . S
C652 O675 1.264 . S
O653 Mn648 2.095 . S
O653 C662 1.250 . S
O654 Mn649 2.121 . S
O654 C662 1.258 . S
C655 N656 1.326 . S
C655 C659 1.460 . S
C655 H661 0.929 . S
N656 Mn649 2.257 . S
N656 C655 1.326 . S
N656 C660 1.362 . S
C657 C658 1.258 . S
C657 C660 1.431 . S
C657 C677 1.449 . S
C658 C657 1.258 . S
C658 C659 1.477 . S
C658 H678 0.931 . S
C659 C655 1.460 . S
C659 C658 1.477 . S
C659 H679 0.930 . S
C660 N656 1.362 . S
C660 C657 1.431 . S
C660 C670 1.476 . S
H661 C655 0.929 . S
C662 O653 1.250 . S
C662 O654 1.258 . S
O663 Mn648 2.162 . S
O663 C651 1.281 . S
O664 Mn648 2.297 . S
O664 C651 1.236 . S
N665 Mn649 2.282 . S
N665 C666 1.328 . S
N665 C670 1.318 . S
C666 N665 1.328 . S
C666 C667 1.457 . S
C666 H671 0.929 . S
C667 C666 1.457 . S
C667 C668 1.291 . S
C667 H680 0.931 . S
C668 C667 1.291 . S
C668 C669 1.373 . S
C668 H681 0.929 . S
C669 C668 1.373 . S
C669 C670 1.396 . S
C669 C676 1.403 . S
C670 C660 1.476 . S
C670 N665 1.318 . S
C670 C669 1.396 . S
H671 C666 0.929 . S
O672 Mn648 2.385 . S
O672 C650 1.234 . S
O673 Mn648 2.209 . S
O673 Mn649 2.215 . S
O673 C650 1.283 . S
O674 Mn648 2.094 . S
O674 C652 1.240 . S
O675 Mn649 2.117 . S
O675 C652 1.264 . S
C676 C669 1.403 . S
C676 C677 1.399 . S
C676 H682 0.929 . S
C677 C657 1.449 . S
C677 C676 1.399 . S
C677 H683 0.930 . S
H678 C658 0.931 . S
H679 C659 0.930 . S
H680 C667 0.931 . S
H681 C668 0.929 . S
H682 C676 0.929 . S
H683 C677 0.930 . S
Mn684 O689 2.095 1_545 S
Mn684 O699 2.162 1_545 S
Mn684 O700 2.297 . S
Mn684 O708 2.385 . S
Mn684 O709 2.209 . S
Mn684 O710 2.094 . S
Mn685 O690 2.121 1_545 S
Mn685 N692 2.257 . S
Mn685 N701 2.282 . S
Mn685 O709 2.215 . S
Mn685 O711 2.117 . S
C686 O708 1.234 . S
C686 O709 1.283 . S
C687 O699 1.281 . S
C687 O700 1.236 1_565 S
C688 O710 1.240 . S
C688 O711 1.264 . S
O689 Mn684 2.095 1_565 S
O689 C698 1.250 . S
O690 Mn685 2.121 1_565 S
O690 C698 1.258 . S
C691 N692 1.326 . S
C691 C695 1.460 . S
C691 H697 0.929 1_545 S
N692 Mn685 2.257 . S
N692 C691 1.326 . S
N692 C696 1.362 . S
C693 C694 1.258 . S
C693 C696 1.431 . S
C693 C713 1.449 . S
C694 C693 1.258 . S
C694 C695 1.477 . S
C694 H714 0.931 . S
C695 C691 1.460 . S
C695 C694 1.477 . S
C695 H715 0.930 . S
C696 N692 1.362 . S
C696 C693 1.431 . S
C696 C706 1.476 . S
H697 C691 0.929 1_565 S
C698 O689 1.250 . S
C698 O690 1.258 . S
O699 Mn684 2.162 1_565 S
O699 C687 1.281 . S
O700 Mn684 2.297 . S
O700 C687 1.236 1_545 S
N701 Mn685 2.282 . S
N701 C702 1.328 . S
N701 C706 1.318 . S
C702 N701 1.328 . S
C702 C703 1.457 . S
C702 H707 0.929 . S
C703 C702 1.457 . S
C703 C704 1.291 . S
C703 H716 0.931 . S
C704 C703 1.291 . S
C704 C705 1.373 . S
C704 H717 0.929 . S
C705 C704 1.373 . S
C705 C706 1.396 . S
C705 C712 1.403 . S
C706 C696 1.476 . S
C706 N701 1.318 . S
C706 C705 1.396 . S
H707 C702 0.929 . S
O708 Mn684 2.385 . S
O708 C686 1.234 . S
O709 Mn684 2.209 . S
O709 Mn685 2.215 . S
O709 C686 1.283 . S
O710 Mn684 2.094 . S
O710 C688 1.240 . S
O711 Mn685 2.117 . S
O711 C688 1.264 . S
C712 C705 1.403 . S
C712 C713 1.399 . S
C712 H718 0.929 . S
C713 C693 1.449 . S
C713 C712 1.399 . S
C713 H719 0.930 . S
H714 C694 0.931 . S
H715 C695 0.930 . S
H716 C703 0.931 . S
H717 C704 0.929 . S
H718 C712 0.929 . S
H719 C713 0.930 . S
Mn720 O725 2.095 1_554 S
Mn720 O735 2.162 . S
Mn720 O736 2.297 . S
Mn720 O744 2.385 . S
Mn720 O745 2.209 1_554 S
Mn720 O746 2.094 1_554 S
Mn721 O726 2.121 . S
Mn721 N728 2.257 . S
Mn721 N737 2.282 . S
Mn721 O745 2.215 . S
Mn721 O747 2.117 . S
C722 O744 1.234 1_556 S
C722 O745 1.283 . S
C723 O735 1.281 . S
C723 O736 1.236 . S
C724 O746 1.240 . S
C724 O747 1.264 . S
O725 Mn720 2.095 1_556 S
O725 C734 1.250 . S
O726 Mn721 2.121 . S
O726 C734 1.258 . S
C727 N728 1.326 . S
C727 C731 1.460 . S
C727 H733 0.929 . S
N728 Mn721 2.257 . S
N728 C727 1.326 . S
N728 C732 1.362 . S
C729 C730 1.258 . S
C729 C732 1.431 . S
C729 C749 1.449 . S
C730 C729 1.258 . S
C730 C731 1.477 . S
C730 H750 0.931 . S
C731 C727 1.460 . S
C731 C730 1.477 . S
C731 H751 0.930 . S
C732 N728 1.362 . S
C732 C729 1.431 . S
C732 C742 1.476 . S
H733 C727 0.929 . S
C734 O725 1.250 . S
C734 O726 1.258 . S
O735 Mn720 2.162 . S
O735 C723 1.281 . S
O736 Mn720 2.297 . S
O736 C723 1.236 . S
N737 Mn721 2.282 . S
N737 C738 1.328 . S
N737 C742 1.318 . S
C738 N737 1.328 . S
C738 C739 1.457 . S
C738 H743 0.929 . S
C739 C738 1.457 . S
C739 C740 1.291 . S
C739 H752 0.931 . S
C740 C739 1.291 . S
C740 C741 1.373 . S
C740 H753 0.929 . S
C741 C740 1.373 . S
C741 C742 1.396 . S
C741 C748 1.403 . S
C742 C732 1.476 . S
C742 N737 1.318 . S
C742 C741 1.396 . S
H743 C738 0.929 . S
O744 Mn720 2.385 . S
O744 C722 1.234 1_554 S
O745 Mn720 2.209 1_556 S
O745 Mn721 2.215 . S
O745 C722 1.283 . S
O746 Mn720 2.094 1_556 S
O746 C724 1.240 . S
O747 Mn721 2.117 . S
O747 C724 1.264 . S
C748 C741 1.403 . S
C748 C749 1.399 . S
C748 H754 0.929 . S
C749 C729 1.449 . S
C749 C748 1.399 . S
C749 H755 0.930 . S
H750 C730 0.931 . S
H751 C731 0.930 . S
H752 C739 0.931 . S
H753 C740 0.929 . S
H754 C748 0.929 . S
H755 C749 0.930 . S
Mn756 O761 2.095 . S
Mn756 O771 2.162 . S
Mn756 O772 2.297 . S
Mn756 O780 2.385 . S
Mn756 O781 2.209 . S
Mn756 O782 2.094 . S
Mn757 O762 2.121 . S
Mn757 N764 2.257 . S
Mn757 N773 2.282 . S
Mn757 O781 2.215 . S
Mn757 O783 2.117 . S
C758 O780 1.234 . S
C758 O781 1.283 . S
C759 O771 1.281 . S
C759 O772 1.236 . S
C760 O782 1.240 . S
C760 O783 1.264 . S
O761 Mn756 2.095 . S
O761 C770 1.250 . S
O762 Mn757 2.121 . S
O762 C770 1.258 . S
C763 N764 1.326 . S
C763 C767 1.460 . S
C763 H769 0.929 . S
N764 Mn757 2.257 . S
N764 C763 1.326 . S
N764 C768 1.362 . S
C765 C766 1.258 . S
C765 C768 1.431 . S
C765 C785 1.449 . S
C766 C765 1.258 . S
C766 C767 1.477 . S
C766 H786 0.931 . S
C767 C763 1.460 . S
C767 C766 1.477 . S
C767 H787 0.930 . S
C768 N764 1.362 . S
C768 C765 1.431 . S
C768 C778 1.476 . S
H769 C763 0.929 . S
C770 O761 1.250 . S
C770 O762 1.258 . S
O771 Mn756 2.162 . S
O771 C759 1.281 . S
O772 Mn756 2.297 . S
O772 C759 1.236 . S
N773 Mn757 2.282 . S
N773 C774 1.328 . S
N773 C778 1.318 . S
C774 N773 1.328 . S
C774 C775 1.457 . S
C774 H779 0.929 . S
C775 C774 1.457 . S
C775 C776 1.291 . S
C775 H788 0.931 . S
C776 C775 1.291 . S
C776 C777 1.373 . S
C776 H789 0.929 . S
C777 C776 1.373 . S
C777 C778 1.396 . S
C777 C784 1.403 . S
C778 C768 1.476 . S
C778 N773 1.318 . S
C778 C777 1.396 . S
H779 C774 0.929 . S
O780 Mn756 2.385 . S
O780 C758 1.234 . S
O781 Mn756 2.209 . S
O781 Mn757 2.215 . S
O781 C758 1.283 . S
O782 Mn756 2.094 . S
O782 C760 1.240 . S
O783 Mn757 2.117 . S
O783 C760 1.264 . S
C784 C777 1.403 . S
C784 C785 1.399 . S
C784 H790 0.929 . S
C785 C765 1.449 . S
C785 C784 1.399 . S
C785 H791 0.930 . S
H786 C766 0.931 . S
H787 C767 0.930 . S
H788 C775 0.931 . S
H789 C776 0.929 . S
H790 C784 0.929 . S
H791 C785 0.930 . S
Mn792 O797 2.095 . S
Mn792 O807 2.162 . S
Mn792 O808 2.297 . S
Mn792 O816 2.385 . S
Mn792 O817 2.209 . S
Mn792 O818 2.094 . S
Mn793 O798 2.121 . S
Mn793 N800 2.257 . S
Mn793 N809 2.282 . S
Mn793 O817 2.215 . S
Mn793 O819 2.117 . S
C794 O816 1.234 . S
C794 O817 1.283 . S
C795 O807 1.281 . S
C795 O808 1.236 . S
C796 O818 1.240 . S
C796 O819 1.264 . S
O797 Mn792 2.095 . S
O797 C806 1.250 . S
O798 Mn793 2.121 . S
O798 C806 1.258 . S
C799 N800 1.326 . S
C799 C803 1.460 . S
C799 H805 0.929 . S
N800 Mn793 2.257 . S
N800 C799 1.326 . S
N800 C804 1.362 . S
C801 C802 1.258 . S
C801 C804 1.431 . S
C801 C821 1.449 . S
C802 C801 1.258 . S
C802 C803 1.477 . S
C802 H822 0.931 . S
C803 C799 1.460 . S
C803 C802 1.477 . S
C803 H823 0.930 . S
C804 N800 1.362 . S
C804 C801 1.431 . S
C804 C814 1.476 . S
H805 C799 0.929 . S
C806 O797 1.250 . S
C806 O798 1.258 . S
O807 Mn792 2.162 . S
O807 C795 1.281 . S
O808 Mn792 2.297 . S
O808 C795 1.236 . S
N809 Mn793 2.282 . S
N809 C810 1.328 . S
N809 C814 1.318 . S
C810 N809 1.328 . S
C810 C811 1.457 . S
C810 H815 0.929 . S
C811 C810 1.457 . S
C811 C812 1.291 . S
C811 H824 0.931 . S
C812 C811 1.291 . S
C812 C813 1.373 . S
C812 H825 0.929 . S
C813 C812 1.373 . S
C813 C814 1.396 . S
C813 C820 1.403 . S
C814 C804 1.476 . S
C814 N809 1.318 . S
C814 C813 1.396 . S
H815 C810 0.929 . S
O816 Mn792 2.385 . S
O816 C794 1.234 . S
O817 Mn792 2.209 . S
O817 Mn793 2.215 . S
O817 C794 1.283 . S
O818 Mn792 2.094 . S
O818 C796 1.240 . S
O819 Mn793 2.117 . S
O819 C796 1.264 . S
C820 C813 1.403 . S
C820 C821 1.399 . S
C820 H826 0.929 . S
C821 C801 1.449 . S
C821 C820 1.399 . S
C821 H827 0.930 . S
H822 C802 0.931 . S
H823 C803 0.930 . S
H824 C811 0.931 . S
H825 C812 0.929 . S
H826 C820 0.929 . S
H827 C821 0.930 . S
Mn828 O833 2.095 . S
Mn828 O843 2.162 . S
Mn828 O844 2.297 . S
Mn828 O852 2.385 . S
Mn828 O853 2.209 . S
Mn828 O854 2.094 . S
Mn829 O834 2.121 . S
Mn829 N836 2.257 . S
Mn829 N845 2.282 . S
Mn829 O853 2.215 . S
Mn829 O855 2.117 . S
C830 O852 1.234 . S
C830 O853 1.283 . S
C831 O843 1.281 . S
C831 O844 1.236 . S
C832 O854 1.240 . S
C832 O855 1.264 . S
O833 Mn828 2.095 . S
O833 C842 1.250 . S
O834 Mn829 2.121 . S
O834 C842 1.258 . S
C835 N836 1.326 . S
C835 C839 1.460 . S
C835 H841 0.929 . S
N836 Mn829 2.257 . S
N836 C835 1.326 . S
N836 C840 1.362 . S
C837 C838 1.258 . S
C837 C840 1.431 . S
C837 C857 1.449 . S
C838 C837 1.258 . S
C838 C839 1.477 . S
C838 H858 0.931 . S
C839 C835 1.460 . S
C839 C838 1.477 . S
C839 H859 0.930 . S
C840 N836 1.362 . S
C840 C837 1.431 . S
C840 C850 1.476 . S
H841 C835 0.929 . S
C842 O833 1.250 . S
C842 O834 1.258 . S
O843 Mn828 2.162 . S
O843 C831 1.281 . S
O844 Mn828 2.297 . S
O844 C831 1.236 . S
N845 Mn829 2.282 . S
N845 C846 1.328 . S
N845 C850 1.318 . S
C846 N845 1.328 . S
C846 C847 1.457 . S
C846 H851 0.929 . S
C847 C846 1.457 . S
C847 C848 1.291 . S
C847 H860 0.931 . S
C848 C847 1.291 . S
C848 C849 1.373 . S
C848 H861 0.929 . S
C849 C848 1.373 . S
C849 C850 1.396 . S
C849 C856 1.403 . S
C850 C840 1.476 . S
C850 N845 1.318 . S
C850 C849 1.396 . S
H851 C846 0.929 . S
O852 Mn828 2.385 . S
O852 C830 1.234 . S
O853 Mn828 2.209 . S
O853 Mn829 2.215 . S
O853 C830 1.283 . S
O854 Mn828 2.094 . S
O854 C832 1.240 . S
O855 Mn829 2.117 . S
O855 C832 1.264 . S
C856 C849 1.403 . S
C856 C857 1.399 . S
C856 H862 0.929 . S
C857 C837 1.449 . S
C857 C856 1.399 . S
C857 H863 0.930 . S
H858 C838 0.931 . S
H859 C839 0.930 . S
H860 C847 0.931 . S
H861 C848 0.929 . S
H862 C856 0.929 . S
H863 C857 0.930 . S
Zn864 O870 1.969 . S
Zn864 O871 1.965 . S
Zn864 O875 2.024 . S
Zn864 O880 1.969 . S
Zn865 O872 1.969 1_654 S
Zn865 O878 1.969 1_554 S
Zn865 O879 1.965 . S
Zn865 O881 2.024 1_655 S
C866 O867 1.229 . S
C866 O875 1.058 . S
O867 C866 1.229 . S
C868 O869 1.229 1_454 S
C868 O881 1.058 . S
O869 C868 1.229 1_656 S
O870 Zn864 1.969 . S
O870 C873 1.267 . S
O871 Zn864 1.965 . S
O871 C882 1.260 1_554 S
O872 Zn865 1.969 1_456 S
O872 C882 1.258 1_545 S
C873 O870 1.267 . S
C873 O874 1.228 . S
O874 C873 1.228 . S
O875 Zn864 2.024 . S
O875 C866 1.058 . S
C876 O877 1.228 . S
C876 O878 1.267 1_554 S
O877 C876 1.228 . S
O878 Zn865 1.969 1_556 S
O878 C876 1.267 1_556 S
O879 Zn865 1.965 . S
O879 C883 1.260 1_655 S
O880 Zn864 1.969 . S
O880 C883 1.258 1_565 S
O881 Zn865 2.024 1_455 S
O881 C868 1.058 . S
C882 O871 1.260 1_556 S
C882 O872 1.258 1_565 S
C883 O879 1.260 1_455 S
C883 O880 1.258 1_545 S
Zn884 O890 1.969 . S
Zn884 O891 1.965 . S
Zn884 O895 2.024 . S
Zn884 O900 1.969 . S
Zn885 O892 1.969 . S
Zn885 O898 1.969 . S
Zn885 O899 1.965 . S
Zn885 O901 2.024 . S
C886 O887 1.229 . S
C886 O895 1.058 . S
O887 C886 1.229 . S
C888 O889 1.229 . S
C888 O901 1.058 . S
O889 C888 1.229 . S
O890 Zn884 1.969 . S
O890 C893 1.267 . S
O891 Zn884 1.965 . S
O891 C902 1.260 . S
O892 Zn885 1.969 . S
O892 C902 1.258 . S
C893 O890 1.267 . S
C893 O894 1.228 . S
O894 C893 1.228 . S
O895 Zn884 2.024 . S
O895 C886 1.058 . S
C896 O897 1.228 . S
C896 O898 1.267 . S
O897 C896 1.228 . S
O898 Zn885 1.969 . S
O898 C896 1.267 . S
O899 Zn885 1.965 . S
O899 C903 1.260 . S
O900 Zn884 1.969 . S
O900 C903 1.258 . S
O901 Zn885 2.024 . S
O901 C888 1.058 . S
C902 O891 1.260 . S
C902 O892 1.258 . S
C903 O899 1.260 . S
C903 O900 1.258 . S
Zn904 O910 1.969 . S
Zn904 O911 1.965 . S
Zn904 O915 2.024 . S
Zn904 O920 1.969 . S
Zn905 O912 1.969 1_565 S
Zn905 O918 1.969 . S
Zn905 O919 1.965 1_565 S
Zn905 O921 2.024 . S
C906 O907 1.229 . S
C906 O915 1.058 . S
O907 C906 1.229 . S
C908 O909 1.229 . S
C908 O921 1.058 . S
O909 C908 1.229 . S
O910 Zn904 1.969 . S
O910 C913 1.267 . S
O911 Zn904 1.965 . S
O911 C922 1.260 . S
O912 Zn905 1.969 1_545 S
O912 C922 1.258 . S
C913 O910 1.267 . S
C913 O914 1.228 . S
O914 C913 1.228 . S
O915 Zn904 2.024 . S
O915 C906 1.058 . S
C916 O917 1.228 . S
C916 O918 1.267 . S
O917 C916 1.228 . S
O918 Zn905 1.969 . S
O918 C916 1.267 . S
O919 Zn905 1.965 1_545 S
O919 C923 1.260 . S
O920 Zn904 1.969 . S
O920 C923 1.258 . S
O921 Zn905 2.024 . S
O921 C908 1.058 . S
C922 O911 1.260 . S
C922 O912 1.258 . S
C923 O919 1.260 . S
C923 O920 1.258 . S
Zn924 O930 1.969 . S
Zn924 O931 1.965 . S
Zn924 O935 2.024 . S
Zn924 O940 1.969 . S
Zn925 O932 1.969 . S
Zn925 O938 1.969 . S
Zn925 O939 1.965 . S
Zn925 O941 2.024 . S
C926 O927 1.229 . S
C926 O935 1.058 . S
O927 C926 1.229 . S
C928 O929 1.229 . S
C928 O941 1.058 . S
O929 C928 1.229 . S
O930 Zn924 1.969 . S
O930 C933 1.267 . S
O931 Zn924 1.965 . S
O931 C942 1.260 . S
O932 Zn925 1.969 . S
O932 C942 1.258 . S
C933 O930 1.267 . S
C933 O934 1.228 . S
O934 C933 1.228 . S
O935 Zn924 2.024 . S
O935 C926 1.058 . S
C936 O937 1.228 . S
C936 O938 1.267 . S
O937 C936 1.228 . S
O938 Zn925 1.969 . S
O938 C936 1.267 . S
O939 Zn925 1.965 . S
O939 C943 1.260 . S
O940 Zn924 1.969 . S
O940 C943 1.258 . S
O941 Zn925 2.024 . S
O941 C928 1.058 . S
C942 O931 1.260 . S
C942 O932 1.258 . S
C943 O939 1.260 . S
C943 O940 1.258 . S
Zn944 O950 1.969 . S
Zn944 O951 1.965 1_455 S
Zn944 O955 2.024 1_565 S
Zn944 O960 1.969 1_565 S
Zn945 O952 1.969 1_455 S
Zn945 O958 1.969 1_455 S
Zn945 O959 1.965 . S
Zn945 O961 2.024 . S
C946 O947 1.229 1_545 S
C946 O955 1.058 . S
O947 C946 1.229 1_565 S
C948 O949 1.229 . S
C948 O961 1.058 1_655 S
O949 C948 1.229 . S
O950 Zn944 1.969 . S
O950 C953 1.267 . S
O951 Zn944 1.965 1_655 S
O951 C962 1.260 . S
O952 Zn945 1.969 1_655 S
O952 C962 1.258 1_545 S
C953 O950 1.267 . S
C953 O954 1.228 . S
O954 C953 1.228 . S
O955 Zn944 2.024 1_545 S
O955 C946 1.058 . S
C956 O957 1.228 . S
C956 O958 1.267 1_455 S
O957 C956 1.228 . S
O958 Zn945 1.969 1_655 S
O958 C956 1.267 1_655 S
O959 Zn945 1.965 . S
O959 C963 1.260 . S
O960 Zn944 1.969 1_545 S
O960 C963 1.258 . S
O961 Zn945 2.024 . S
O961 C948 1.058 1_455 S
C962 O951 1.260 . S
C962 O952 1.258 1_565 S
C963 O959 1.260 . S
C963 O960 1.258 . S
Zn964 O970 1.969 . S
Zn964 O971 1.965 . S
Zn964 O975 2.024 . S
Zn964 O980 1.969 . S
Zn965 O972 1.969 . S
Zn965 O978 1.969 . S
Zn965 O979 1.965 . S
Zn965 O981 2.024 . S
C966 O967 1.229 . S
C966 O975 1.058 . S
O967 C966 1.229 . S
C968 O969 1.229 . S
C968 O981 1.058 . S
O969 C968 1.229 . S
O970 Zn964 1.969 . S
O970 C973 1.267 . S
O971 Zn964 1.965 . S
O971 C982 1.260 . S
O972 Zn965 1.969 . S
O972 C982 1.258 . S
C973 O970 1.267 . S
C973 O974 1.228 . S
O974 C973 1.228 . S
O975 Zn964 2.024 . S
O975 C966 1.058 . S
C976 O977 1.228 . S
C976 O978 1.267 . S
O977 C976 1.228 . S
O978 Zn965 1.969 . S
O978 C976 1.267 . S
O979 Zn965 1.965 . S
O979 C983 1.260 . S
O980 Zn964 1.969 . S
O980 C983 1.258 . S
O981 Zn965 2.024 . S
O981 C968 1.058 . S
C982 O971 1.260 . S
C982 O972 1.258 . S
C983 O979 1.260 . S
C983 O980 1.258 . S
Zn984 O990 1.969 . S
Zn984 O991 1.965 1_545 S
Zn984 O995 2.024 1_556 S
Zn984 O1000 1.969 1_556 S
Zn985 O992 1.969 . S
Zn985 O998 1.969 . S
Zn985 O999 1.965 1_565 S
Zn985 O1001 2.024 1_565 S
C986 O987 1.229 . S
C986 O995 1.058 . S
O987 C986 1.229 . S
C988 O989 1.229 . S
C988 O1001 1.058 1_565 S
O989 C988 1.229 . S
O990 Zn984 1.969 . S
O990 C993 1.267 . S
O991 Zn984 1.965 1_565 S
O991 C1002 1.260 1_556 S
O992 Zn985 1.969 . S
O992 C1002 1.258 . S
C993 O990 1.267 . S
C993 O994 1.228 . S
O994 C993 1.228 . S
O995 Zn984 2.024 1_554 S
O995 C986 1.058 . S
C996 O997 1.228 . S
C996 O998 1.267 1_545 S
O997 C996 1.228 . S
O998 Zn985 1.969 . S
O998 C996 1.267 1_565 S
O999 Zn985 1.965 1_545 S
O999 C1003 1.260 . S
O1000 Zn984 1.969 1_554 S
O1000 C1003 1.258 . S
O1001 Zn985 2.024 1_545 S
O1001 C988 1.058 1_545 S
C1002 O991 1.260 1_554 S
C1002 O992 1.258 . S
C1003 O999 1.260 . S
C1003 O1000 1.258 . S
Zn1004 O1010 1.969 . S
Zn1004 O1011 1.965 . S
Zn1004 O1015 2.024 . S
Zn1004 O1020 1.969 . S
Zn1005 O1012 1.969 . S
Zn1005 O1018 1.969 . S
Zn1005 O1019 1.965 . S
Zn1005 O1021 2.024 . S
C1006 O1007 1.229 . S
C1006 O1015 1.058 . S
O1007 C1006 1.229 . S
C1008 O1009 1.229 . S
C1008 O1021 1.058 . S
O1009 C1008 1.229 . S
O1010 Zn1004 1.969 . S
O1010 C1013 1.267 . S
O1011 Zn1004 1.965 . S
O1011 C1022 1.260 . S
O1012 Zn1005 1.969 . S
O1012 C1022 1.258 . S
C1013 O1010 1.267 . S
C1013 O1014 1.228 . S
O1014 C1013 1.228 . S
O1015 Zn1004 2.024 . S
O1015 C1006 1.058 . S
C1016 O1017 1.228 . S
C1016 O1018 1.267 . S
O1017 C1016 1.228 . S
O1018 Zn1005 1.969 . S
O1018 C1016 1.267 . S
O1019 Zn1005 1.965 . S
O1019 C1023 1.260 . S
O1020 Zn1004 1.969 . S
O1020 C1023 1.258 . S
O1021 Zn1005 2.024 . S
O1021 C1008 1.058 . S
C1022 O1011 1.260 . S
C1022 O1012 1.258 . S
C1023 O1019 1.260 . S
C1023 O1020 1.258 . S
Zn1024 O1030 1.969 . S
Zn1024 O1031 1.965 . S
Zn1024 O1035 2.024 . S
Zn1024 O1040 1.969 . S
Zn1025 O1032 1.969 1_556 S
Zn1025 O1038 1.964 1_556 S
Zn1025 O1039 1.965 1_556 S
Zn1025 O1041 2.024 . S
C1026 O1027 1.229 . S
C1026 O1035 1.058 . S
O1027 C1026 1.229 . S
C1028 O1029 1.229 . S
C1028 O1041 1.058 . S
O1029 C1028 1.229 . S
O1030 Zn1024 1.969 . S
O1030 C1033 1.267 . S
O1031 Zn1024 1.965 . S
O1031 C1042 1.260 . S
O1032 Zn1025 1.969 1_554 S
O1032 C1042 1.258 . S
C1033 O1030 1.267 . S
C1033 O1034 1.228 . S
O1034 C1033 1.228 . S
O1035 Zn1024 2.024 . S
O1035 C1026 1.058 . S
C1036 O1037 1.228 . S
C1036 O1038 1.245 1_556 S
O1037 C1036 1.228 . S
O1038 Zn1025 1.964 1_554 S
O1038 C1036 1.245 1_554 S
O1039 Zn1025 1.965 1_554 S
O1039 C1043 1.260 . S
O1040 Zn1024 1.969 . S
O1040 C1043 1.258 . S
O1041 Zn1025 2.024 . S
O1041 C1028 1.058 . S
C1042 O1031 1.260 . S
C1042 O1032 1.258 . S
C1043 O1039 1.260 . S
C1043 O1040 1.258 . S
Zn1044 O1050 1.969 . S
Zn1044 O1051 1.965 . S
Zn1044 O1055 2.024 . S
Zn1044 O1060 1.969 . S
Zn1045 O1052 1.969 . S
Zn1045 O1058 1.969 . S
Zn1045 O1059 1.965 . S
Zn1045 O1061 2.024 . S
C1046 O1047 1.229 . S
C1046 O1055 1.058 . S
O1047 C1046 1.229 . S
C1048 O1049 1.229 . S
C1048 O1061 1.058 . S
O1049 C1048 1.229 . S
O1050 Zn1044 1.969 . S
O1050 C1053 1.267 . S
O1051 Zn1044 1.965 . S
O1051 C1062 1.260 . S
O1052 Zn1045 1.969 . S
O1052 C1062 1.258 . S
C1053 O1050 1.267 . S
C1053 O1054 1.228 . S
O1054 C1053 1.228 . S
O1055 Zn1044 2.024 . S
O1055 C1046 1.058 . S
C1056 O1057 1.228 . S
C1056 O1058 1.267 . S
O1057 C1056 1.228 . S
O1058 Zn1045 1.969 . S
O1058 C1056 1.267 . S
O1059 Zn1045 1.965 . S
O1059 C1063 1.260 . S
O1060 Zn1044 1.969 . S
O1060 C1063 1.258 . S
O1061 Zn1045 2.024 . S
O1061 C1048 1.058 . S
C1062 O1051 1.260 . S
C1062 O1052 1.258 . S
C1063 O1059 1.260 . S
C1063 O1060 1.258 . S
Zn1064 O1070 1.969 . S
Zn1064 O1071 1.965 . S
Zn1064 O1075 2.024 . S
Zn1064 O1080 1.969 . S
Zn1065 O1072 1.969 1_655 S
Zn1065 O1078 1.969 . S
Zn1065 O1079 1.965 1_655 S
Zn1065 O1081 2.024 . S
C1066 O1067 1.229 . S
C1066 O1075 1.058 . S
O1067 C1066 1.229 . S
C1068 O1069 1.229 . S
C1068 O1081 1.058 . S
O1069 C1068 1.229 . S
O1070 Zn1064 1.969 . S
O1070 C1073 1.267 . S
O1071 Zn1064 1.965 . S
O1071 C1082 1.260 . S
O1072 Zn1065 1.969 1_455 S
O1072 C1082 1.258 . S
C1073 O1070 1.267 . S
C1073 O1074 1.228 . S
O1074 C1073 1.228 . S
O1075 Zn1064 2.024 . S
O1075 C1066 1.058 . S
C1076 O1077 1.228 . S
C1076 O1078 1.267 . S
O1077 C1076 1.228 . S
O1078 Zn1065 1.969 . S
O1078 C1076 1.267 . S
O1079 Zn1065 1.965 1_455 S
O1079 C1083 1.260 . S
O1080 Zn1064 1.969 . S
O1080 C1083 1.258 . S
O1081 Zn1065 2.024 . S
O1081 C1068 1.058 . S
C1082 O1071 1.260 . S
C1082 O1072 1.258 . S
C1083 O1079 1.260 . S
C1083 O1080 1.258 . S
Zn1084 O1090 1.969 . S
Zn1084 O1091 1.965 . S
Zn1084 O1095 2.024 . S
Zn1084 O1100 1.969 . S
Zn1085 O1092 1.969 . S
Zn1085 O1098 1.969 . S
Zn1085 O1099 1.965 . S
Zn1085 O1101 2.024 . S
C1086 O1087 1.229 . S
C1086 O1095 1.058 . S
O1087 C1086 1.229 . S
C1088 O1089 1.229 . S
C1088 O1101 1.058 . S
O1089 C1088 1.229 . S
O1090 Zn1084 1.969 . S
O1090 C1093 1.267 . S
O1091 Zn1084 1.965 . S
O1091 C1102 1.260 . S
O1092 Zn1085 1.969 . S
O1092 C1102 1.258 . S
C1093 O1090 1.267 . S
C1093 O1094 1.228 . S
O1094 C1093 1.228 . S
O1095 Zn1084 2.024 . S
O1095 C1086 1.058 . S
C1096 O1097 1.228 . S
C1096 O1098 1.267 . S
O1097 C1096 1.228 . S
O1098 Zn1085 1.969 . S
O1098 C1096 1.267 . S
O1099 Zn1085 1.965 . S
O1099 C1103 1.260 . S
O1100 Zn1084 1.969 . S
O1100 C1103 1.258 . S
O1101 Zn1085 2.024 . S
O1101 C1088 1.058 . S
C1102 O1091 1.260 . S
C1102 O1092 1.258 . S
C1103 O1099 1.260 . S
C1103 O1100 1.258 . S
Zn1104 O1110 1.969 . S
Zn1104 O1111 1.965 . S
Zn1104 O1115 2.024 . S
Zn1104 O1120 1.969 . S
Zn1105 O1112 1.969 . S
Zn1105 O1118 1.969 . S
Zn1105 O1119 1.965 . S
Zn1105 O1121 2.024 . S
C1106 O1107 1.229 . S
C1106 O1115 1.058 . S
O1107 C1106 1.229 . S
C1108 O1109 1.229 . S
C1108 O1121 1.058 . S
O1109 C1108 1.229 . S
O1110 Zn1104 1.969 . S
O1110 C1113 1.267 . S
O1111 Zn1104 1.965 . S
O1111 C1122 1.260 . S
O1112 Zn1105 1.969 . S
O1112 C1122 1.258 . S
C1113 O1110 1.267 . S
C1113 O1114 1.228 . S
O1114 C1113 1.228 . S
O1115 Zn1104 2.024 . S
O1115 C1106 1.058 . S
C1116 O1117 1.228 . S
C1116 O1118 1.267 . S
O1117 C1116 1.228 . S
O1118 Zn1105 1.969 . S
O1118 C1116 1.267 . S
O1119 Zn1105 1.965 . S
O1119 C1123 1.260 . S
O1120 Zn1104 1.969 . S
O1120 C1123 1.258 . S
O1121 Zn1105 2.024 . S
O1121 C1108 1.058 . S
C1122 O1111 1.260 . S
C1122 O1112 1.258 . S
C1123 O1119 1.260 . S
C1123 O1120 1.258 . S
Zn1124 O1130 1.969 . S
Zn1124 O1131 1.965 . S
Zn1124 O1135 2.024 . S
Zn1124 O1140 1.969 . S
Zn1125 O1132 1.969 . S
Zn1125 O1138 1.969 . S
Zn1125 O1139 1.965 . S
Zn1125 O1141 2.024 . S
C1126 O1127 1.229 . S
C1126 O1135 1.058 . S
O1127 C1126 1.229 . S
C1128 O1129 1.229 . S
C1128 O1141 1.058 . S
O1129 C1128 1.229 . S
O1130 Zn1124 1.969 . S
O1130 C1133 1.267 . S
O1131 Zn1124 1.965 . S
O1131 C1142 1.260 . S
O1132 Zn1125 1.969 . S
O1132 C1142 1.258 . S
C1133 O1130 1.267 . S
C1133 O1134 1.228 . S
O1134 C1133 1.228 . S
O1135 Zn1124 2.024 . S
O1135 C1126 1.058 . S
C1136 O1137 1.228 . S
C1136 O1138 1.267 . S
O1137 C1136 1.228 . S
O1138 Zn1125 1.969 . S
O1138 C1136 1.267 . S
O1139 Zn1125 1.965 . S
O1139 C1143 1.260 . S
O1140 Zn1124 1.969 . S
O1140 C1143 1.258 . S
O1141 Zn1125 2.024 . S
O1141 C1128 1.058 . S
C1142 O1131 1.260 . S
C1142 O1132 1.258 . S
C1143 O1139 1.260 . S
C1143 O1140 1.258 . S
Zn1144 O1150 1.969 . S
Zn1144 O1151 1.965 . S
Zn1144 O1155 2.024 . S
Zn1144 O1160 1.969 . S
Zn1145 O1152 1.969 . S
Zn1145 O1158 1.969 . S
Zn1145 O1159 1.965 . S
Zn1145 O1161 2.024 . S
C1146 O1147 1.229 . S
C1146 O1155 1.058 . S
O1147 C1146 1.229 . S
C1148 O1149 1.229 . S
C1148 O1161 1.058 . S
O1149 C1148 1.229 . S
O1150 Zn1144 1.969 . S
O1150 C1153 1.267 . S
O1151 Zn1144 1.965 . S
O1151 C1162 1.260 . S
O1152 Zn1145 1.969 . S
O1152 C1162 1.258 . S
C1153 O1150 1.267 . S
C1153 O1154 1.228 . S
O1154 C1153 1.228 . S
O1155 Zn1144 2.024 . S
O1155 C1146 1.058 . S
C1156 O1157 1.228 . S
C1156 O1158 1.267 . S
O1157 C1156 1.228 . S
O1158 Zn1145 1.969 . S
O1158 C1156 1.267 . S
O1159 Zn1145 1.965 . S
O1159 C1163 1.260 . S
O1160 Zn1144 1.969 . S
O1160 C1163 1.258 . S
O1161 Zn1145 2.024 . S
O1161 C1148 1.058 . S
C1162 O1151 1.260 . S
C1162 O1152 1.258 . S
C1163 O1159 1.260 . S
C1163 O1160 1.258 . S
Zn1164 O1170 1.969 . S
Zn1164 O1171 1.965 . S
Zn1164 O1175 2.024 1_655 S
Zn1164 O1180 1.969 1_655 S
Zn1165 O1172 1.969 1_554 S
Zn1165 O1178 1.973 . S
Zn1165 O1179 1.965 . S
Zn1165 O1181 2.024 . S
C1166 O1167 1.229 . S
C1166 O1175 1.058 . S
O1167 C1166 1.229 . S
C1168 O1169 1.229 . S
C1168 O1181 1.058 1_556 S
O1169 C1168 1.229 . S
O1170 Zn1164 1.969 . S
O1170 C1173 1.267 . S
O1171 Zn1164 1.965 . S
O1171 C1182 1.260 1_654 S
O1172 Zn1165 1.969 1_556 S
O1172 C1182 1.258 . S
C1173 O1170 1.267 . S
C1173 O1174 1.228 . S
O1174 C1173 1.228 . S
O1175 Zn1164 2.024 1_455 S
O1175 C1166 1.058 . S
C1176 O1177 1.228 . S
C1176 O1178 1.273 . S
O1177 C1176 1.228 . S
O1178 Zn1165 1.973 . S
O1178 C1176 1.273 . S
O1179 Zn1165 1.965 . S
O1179 C1183 1.260 . S
O1180 Zn1164 1.969 1_455 S
O1180 C1183 1.258 . S
O1181 Zn1165 2.024 . S
O1181 C1168 1.058 1_554 S
C1182 O1171 1.260 1_456 S
C1182 O1172 1.258 . S
C1183 O1179 1.260 . S
C1183 O1180 1.258 . S
C1184 C1185 1.369 1_455 S
C1184 C1186 1.419 . S
C1184 H1188 0.930 . S
C1185 C1184 1.369 1_655 S
C1185 C1194 1.429 . S
C1186 C1184 1.419 . S
C1186 C1187 1.363 . S
C1186 H1189 0.929 . S
C1187 C1186 1.363 . S
C1187 C1193 1.428 1_455 S
H1188 C1184 0.930 . S
H1189 C1186 0.929 . S
S1190 N1191 1.635 . S
S1190 N1192 1.604 1_556 S
N1191 S1190 1.635 . S
N1191 C1194 1.350 . S
N1192 S1190 1.604 1_554 S
N1192 C1193 1.351 1_554 S
C1193 C1187 1.428 1_655 S
C1193 N1192 1.351 1_556 S
C1193 C1194 1.434 . S
C1194 C1185 1.429 . S
C1194 N1191 1.350 . S
C1194 C1193 1.434 . S
C1195 C1196 1.369 . S
C1195 C1197 1.419 . S
C1195 H1199 0.930 . S
C1196 C1195 1.369 . S
C1196 C1205 1.429 . S
C1197 C1195 1.419 . S
C1197 C1198 1.363 . S
C1197 H1200 0.929 . S
C1198 C1197 1.363 . S
C1198 C1204 1.428 . S
H1199 C1195 0.930 . S
H1200 C1197 0.929 . S
S1201 N1202 1.613 . S
S1201 N1203 1.610 . S
N1202 S1201 1.613 . S
N1202 C1205 1.350 . S
N1203 S1201 1.610 . S
N1203 C1204 1.351 . S
C1204 C1198 1.428 . S
C1204 N1203 1.351 . S
C1204 C1205 1.434 . S
C1205 C1196 1.429 . S
C1205 N1202 1.350 . S
C1205 C1204 1.434 . S
C1206 C1207 1.369 . S
C1206 C1208 1.419 . S
C1206 H1210 0.930 . S
C1207 C1206 1.369 . S
C1207 C1216 1.429 . S
C1208 C1206 1.419 . S
C1208 C1209 1.363 . S
C1208 H1211 0.929 . S
C1209 C1208 1.363 . S
C1209 C1215 1.428 . S
H1210 C1206 0.930 . S
H1211 C1208 0.929 . S
S1212 N1213 1.613 . S
S1212 N1214 1.610 . S
N1213 S1212 1.613 . S
N1213 C1216 1.350 . S
N1214 S1212 1.610 . S
N1214 C1215 1.351 . S
C1215 C1209 1.428 . S
C1215 N1214 1.351 . S
C1215 C1216 1.434 . S
C1216 C1207 1.429 . S
C1216 N1213 1.350 . S
C1216 C1215 1.434 . S
C1217 C1218 1.369 . S
C1217 C1219 1.419 . S
C1217 H1221 0.930 . S
C1218 C1217 1.369 . S
C1218 C1227 1.429 . S
C1219 C1217 1.419 . S
C1219 C1220 1.363 . S
C1219 H1222 0.929 . S
C1220 C1219 1.363 . S
C1220 C1226 1.428 . S
H1221 C1217 0.930 . S
H1222 C1219 0.929 . S
S1223 N1224 1.613 . S
S1223 N1225 1.610 . S
N1224 S1223 1.613 . S
N1224 C1227 1.350 . S
N1225 S1223 1.610 . S
N1225 C1226 1.351 . S
C1226 C1220 1.428 . S
C1226 N1225 1.351 . S
C1226 C1227 1.434 . S
C1227 C1218 1.429 . S
C1227 N1224 1.350 . S
C1227 C1226 1.434 . S
C1228 C1229 1.369 . S
C1228 C1230 1.419 . S
C1228 H1232 0.930 . S
C1229 C1228 1.369 . S
C1229 C1238 1.429 1_455 S
C1230 C1228 1.419 . S
C1230 C1231 1.363 . S
C1230 H1233 0.929 . S
C1231 C1230 1.363 . S
C1231 C1237 1.450 . S
H1232 C1228 0.930 . S
H1233 C1230 0.929 . S
S1234 N1235 1.613 . S
S1234 N1236 1.610 . S
N1235 S1234 1.613 . S
N1235 C1238 1.350 . S
N1236 S1234 1.610 . S
N1236 C1237 1.329 1_655 S
C1237 C1231 1.450 . S
C1237 N1236 1.329 1_455 S
C1237 C1238 1.433 1_455 S
C1238 C1229 1.429 1_655 S
C1238 N1235 1.350 . S
C1238 C1237 1.433 1_655 S
C1239 C1240 1.369 . S
C1239 C1241 1.419 . S
C1239 H1243 0.930 . S
C1240 C1239 1.369 . S
C1240 C1249 1.429 . S
C1241 C1239 1.419 . S
C1241 C1242 1.363 . S
C1241 H1244 0.929 . S
C1242 C1241 1.363 . S
C1242 C1248 1.428 . S
H1243 C1239 0.930 . S
H1244 C1241 0.929 . S
S1245 N1246 1.613 . S
S1245 N1247 1.610 . S
N1246 S1245 1.613 . S
N1246 C1249 1.350 . S
N1247 S1245 1.610 . S
N1247 C1248 1.351 . S
C1248 C1242 1.428 . S
C1248 N1247 1.351 . S
C1248 C1249 1.434 . S
C1249 C1240 1.429 . S
C1249 N1246 1.350 . S
C1249 C1248 1.434 . S
C1250 C1251 1.369 . S
C1250 C1252 1.419 . S
C1250 H1254 0.930 . S
C1251 C1250 1.369 . S
C1251 C1260 1.429 . S
C1252 C1250 1.419 . S
C1252 C1253 1.363 . S
C1252 H1255 0.929 . S
C1253 C1252 1.363 . S
C1253 C1259 1.428 . S
H1254 C1250 0.930 . S
H1255 C1252 0.929 . S
S1256 N1257 1.613 . S
S1256 N1258 1.610 . S
N1257 S1256 1.613 . S
N1257 C1260 1.350 . S
N1258 S1256 1.610 . S
N1258 C1259 1.351 . S
C1259 C1253 1.428 . S
C1259 N1258 1.351 . S
C1259 C1260 1.434 . S
C1260 C1251 1.429 . S
C1260 N1257 1.350 . S
C1260 C1259 1.434 . S
C1261 C1262 1.369 . S
C1261 C1263 1.419 . S
C1261 H1265 0.930 . S
C1262 C1261 1.369 . S
C1262 C1271 1.429 . S
C1263 C1261 1.419 . S
C1263 C1264 1.363 . S
C1263 H1266 0.929 . S
C1264 C1263 1.363 . S
C1264 C1270 1.428 . S
H1265 C1261 0.930 . S
H1266 C1263 0.929 . S
S1267 N1268 1.613 . S
S1267 N1269 1.610 . S
N1268 S1267 1.613 . S
N1268 C1271 1.350 . S
N1269 S1267 1.610 . S
N1269 C1270 1.351 . S
C1270 C1264 1.428 . S
C1270 N1269 1.351 . S
C1270 C1271 1.434 . S
C1271 C1262 1.429 . S
C1271 N1268 1.350 . S
C1271 C1270 1.434 . S
C1272 C1273 1.369 . S
C1272 C1274 1.419 . S
C1272 H1276 0.930 . S
C1273 C1272 1.369 . S
C1273 C1282 1.429 1_545 S
C1274 C1272 1.419 . S
C1274 C1275 1.363 . S
C1274 H1277 0.929 1_655 S
C1275 C1274 1.363 . S
C1275 C1281 1.426 1_545 S
H1276 C1272 0.930 . S
H1277 C1274 0.929 1_455 S
S1278 N1279 1.613 . S
S1278 N1280 1.610 . S
N1279 S1278 1.613 . S
N1279 C1282 1.350 . S
N1280 S1278 1.610 . S
N1280 C1281 1.353 . S
C1281 C1275 1.426 1_565 S
C1281 N1280 1.353 . S
C1281 C1282 1.435 . S
C1282 C1273 1.429 1_565 S
C1282 N1279 1.350 . S
C1282 C1281 1.435 . S
C1283 C1284 1.369 . S
C1283 C1285 1.419 . S
C1283 H1287 0.930 . S
C1284 C1283 1.369 . S
C1284 C1293 1.429 . S
C1285 C1283 1.419 . S
C1285 C1286 1.363 . S
C1285 H1288 0.929 . S
C1286 C1285 1.363 . S
C1286 C1292 1.428 . S
H1287 C1283 0.930 . S
H1288 C1285 0.929 . S
S1289 N1290 1.613 . S
S1289 N1291 1.610 . S
N1290 S1289 1.613 . S
N1290 C1293 1.350 . S
N1291 S1289 1.610 . S
N1291 C1292 1.351 . S
C1292 C1286 1.428 . S
C1292 N1291 1.351 . S
C1292 C1293 1.434 . S
C1293 C1284 1.429 . S
C1293 N1290 1.350 . S
C1293 C1292 1.434 . S
C1294 C1295 1.369 1_545 S
C1294 C1296 1.419 . S
C1294 H1298 0.930 . S
C1295 C1294 1.369 1_565 S
C1295 C1304 1.429 . S
C1296 C1294 1.419 . S
C1296 C1297 1.363 . S
C1296 H1299 0.929 . S
C1297 C1296 1.363 . S
C1297 C1303 1.428 1_545 S
H1298 C1294 0.930 . S
H1299 C1296 0.929 . S
S1300 N1301 1.613 . S
S1300 N1302 1.610 . S
N1301 S1300 1.613 . S
N1301 C1304 1.350 . S
N1302 S1300 1.610 . S
N1302 C1303 1.351 . S
C1303 C1297 1.428 1_565 S
C1303 N1302 1.351 . S
C1303 C1304 1.434 . S
C1304 C1295 1.429 . S
C1304 N1301 1.350 . S
C1304 C1303 1.434 . S
C1305 C1306 1.369 . S
C1305 C1307 1.419 . S
C1305 H1309 0.930 . S
C1306 C1305 1.369 . S
C1306 C1315 1.429 . S
C1307 C1305 1.419 . S
C1307 C1308 1.363 . S
C1307 H1310 0.929 . S
C1308 C1307 1.363 . S
C1308 C1314 1.428 . S
H1309 C1305 0.930 . S
H1310 C1307 0.929 . S
S1311 N1312 1.613 . S
S1311 N1313 1.610 . S
N1312 S1311 1.613 . S
N1312 C1315 1.350 . S
N1313 S1311 1.610 . S
N1313 C1314 1.351 . S
C1314 C1308 1.428 . S
C1314 N1313 1.351 . S
C1314 C1315 1.434 . S
C1315 C1306 1.429 . S
C1315 N1312 1.350 . S
C1315 C1314 1.434 . S
C1316 C1317 1.369 1_565 S
C1316 C1318 1.419 . S
C1316 H1320 0.930 . S
C1317 C1316 1.369 1_545 S
C1317 C1326 1.429 . S
C1318 C1316 1.419 . S
C1318 C1319 1.363 1_565 S
C1318 H1321 0.929 . S
C1319 C1318 1.363 1_545 S
C1319 C1325 1.428 . S
H1320 C1316 0.930 . S
H1321 C1318 0.929 . S
S1322 N1323 1.613 . S
S1322 N1324 1.610 . S
N1323 S1322 1.613 . S
N1323 C1326 1.350 . S
N1324 S1322 1.610 . S
N1324 C1325 1.351 . S
C1325 C1319 1.428 . S
C1325 N1324 1.351 . S
C1325 C1326 1.434 . S
C1326 C1317 1.429 . S
C1326 N1323 1.350 . S
C1326 C1325 1.434 . S
C1327 C1328 1.369 . S
C1327 C1329 1.419 . S
C1327 H1331 0.930 . S
C1328 C1327 1.369 . S
C1328 C1337 1.429 . S
C1329 C1327 1.419 . S
C1329 C1330 1.363 . S
C1329 H1332 0.929 . S
C1330 C1329 1.363 . S
C1330 C1336 1.428 . S
H1331 C1327 0.930 . S
H1332 C1329 0.929 . S
S1333 N1334 1.613 . S
S1333 N1335 1.610 . S
N1334 S1333 1.613 . S
N1334 C1337 1.350 . S
N1335 S1333 1.610 . S
N1335 C1336 1.351 . S
C1336 C1330 1.428 . S
C1336 N1335 1.351 . S
C1336 C1337 1.434 . S
C1337 C1328 1.429 . S
C1337 N1334 1.350 . S
C1337 C1336 1.434 . S
C1338 C1339 1.369 . S
C1338 C1340 1.419 . S
C1338 H1342 0.930 . S
C1339 C1338 1.369 . S
C1339 C1348 1.429 . S
C1340 C1338 1.419 . S
C1340 C1341 1.363 . S
C1340 H1343 0.929 . S
C1341 C1340 1.363 . S
C1341 C1347 1.428 . S
H1342 C1338 0.930 . S
H1343 C1340 0.929 . S
S1344 N1345 1.613 . S
S1344 N1346 1.610 . S
N1345 S1344 1.613 . S
N1345 C1348 1.350 . S
N1346 S1344 1.610 . S
N1346 C1347 1.351 . S
C1347 C1341 1.428 . S
C1347 N1346 1.351 . S
C1347 C1348 1.434 . S
C1348 C1339 1.429 . S
C1348 N1345 1.350 . S
C1348 C1347 1.434 . S
C1349 C1350 1.369 . S
C1349 C1351 1.419 . S
C1349 H1353 0.930 . S
C1350 C1349 1.369 . S
C1350 C1359 1.429 . S
C1351 C1349 1.419 . S
C1351 C1352 1.363 . S
C1351 H1354 0.929 . S
C1352 C1351 1.363 . S
C1352 C1358 1.428 . S
H1353 C1349 0.930 . S
H1354 C1351 0.929 . S
S1355 N1356 1.613 . S
S1355 N1357 1.610 . S
N1356 S1355 1.613 . S
N1356 C1359 1.350 . S
N1357 S1355 1.610 . S
N1357 C1358 1.351 . S
C1358 C1352 1.428 . S
C1358 N1357 1.351 . S
C1358 C1359 1.434 . S
C1359 C1350 1.429 . S
C1359 N1356 1.350 . S
C1359 C1358 1.434 . S
C1360 C1361 1.388 . S
C1360 C1362 1.431 . S
C1360 H1364 0.898 1_554 S
C1361 C1360 1.388 . S
C1361 C1370 1.429 . S
C1362 C1360 1.431 . S
C1362 C1363 1.363 . S
C1362 H1365 0.929 1_554 S
C1363 C1362 1.363 . S
C1363 C1369 1.428 . S
H1364 C1360 0.898 1_556 S
H1365 C1362 0.929 1_556 S
S1366 N1367 1.613 . S
S1366 N1368 1.610 . S
N1367 S1366 1.613 . S
N1367 C1370 1.350 . S
N1368 S1366 1.610 . S
N1368 C1369 1.351 . S
C1369 C1363 1.428 . S
C1369 N1368 1.351 . S
C1369 C1370 1.434 . S
C1370 C1361 1.429 . S
C1370 N1367 1.350 . S
C1370 C1369 1.434 . S
C1371 C1372 1.369 1_554 S
C1371 C1373 1.419 . S
C1371 H1375 0.930 . S
C1372 C1371 1.369 1_556 S
C1372 C1381 1.429 . S
C1373 C1371 1.419 . S
C1373 C1374 1.363 . S
C1373 H1376 0.929 . S
C1374 C1373 1.363 . S
C1374 C1380 1.428 1_554 S
H1375 C1371 0.930 . S
H1376 C1373 0.929 . S
S1377 N1378 1.613 . S
S1377 N1379 1.610 . S
N1378 S1377 1.613 . S
N1378 C1381 1.350 . S
N1379 S1377 1.610 . S
N1379 C1380 1.351 . S
C1380 C1374 1.428 1_556 S
C1380 N1379 1.351 . S
C1380 C1381 1.434 . S
C1381 C1372 1.429 . S
C1381 N1378 1.350 . S
C1381 C1380 1.434 . S
C1382 C1383 1.369 . S
C1382 C1384 1.419 . S
C1382 H1386 0.930 . S
C1383 C1382 1.369 . S
C1383 C1392 1.429 . S
C1384 C1382 1.419 . S
C1384 C1385 1.363 . S
C1384 H1387 0.929 . S
C1385 C1384 1.363 . S
C1385 C1391 1.428 . S
H1386 C1382 0.930 . S
H1387 C1384 0.929 . S
S1388 N1389 1.613 . S
S1388 N1390 1.610 . S
N1389 S1388 1.613 . S
N1389 C1392 1.350 . S
N1390 S1388 1.610 . S
N1390 C1391 1.351 . S
C1391 C1385 1.428 . S
C1391 N1390 1.351 . S
C1391 C1392 1.434 . S
C1392 C1383 1.429 . S
C1392 N1389 1.350 . S
C1392 C1391 1.434 . S
C1393 C1394 1.369 . S
C1393 C1395 1.419 . S
C1393 H1397 0.930 . S
C1394 C1393 1.369 . S
C1394 C1403 1.429 . S
C1395 C1393 1.419 . S
C1395 C1396 1.363 . S
C1395 H1398 0.929 . S
C1396 C1395 1.363 . S
C1396 C1402 1.428 . S
H1397 C1393 0.930 . S
H1398 C1395 0.929 . S
S1399 N1400 1.613 . S
S1399 N1401 1.610 . S
N1400 S1399 1.613 . S
N1400 C1403 1.350 . S
N1401 S1399 1.610 . S
N1401 C1402 1.351 . S
C1402 C1396 1.428 . S
C1402 N1401 1.351 . S
C1402 C1403 1.434 . S
C1403 C1394 1.429 . S
C1403 N1400 1.350 . S
C1403 C1402 1.434 . S
C1404 C1405 1.369 . S
C1404 C1406 1.419 . S
C1404 H1408 0.930 . S
C1405 C1404 1.369 . S
C1405 C1414 1.429 . S
C1406 C1404 1.419 . S
C1406 C1407 1.363 . S
C1406 H1409 0.929 . S
C1407 C1406 1.363 . S
C1407 C1413 1.428 . S
H1408 C1404 0.930 . S
H1409 C1406 0.929 . S
S1410 N1411 1.613 . S
S1410 N1412 1.610 . S
N1411 S1410 1.613 . S
N1411 C1414 1.350 . S
N1412 S1410 1.610 . S
N1412 C1413 1.351 . S
C1413 C1407 1.428 . S
C1413 N1412 1.351 . S
C1413 C1414 1.434 . S
C1414 C1405 1.429 . S
C1414 N1411 1.350 . S
C1414 C1413 1.434 . S
C1415 C1416 1.369 . S
C1415 C1417 1.419 . S
C1415 H1419 0.930 . S
C1416 C1415 1.369 . S
C1416 C1425 1.429 . S
C1417 C1415 1.419 . S
C1417 C1418 1.363 . S
C1417 H1420 0.929 . S
C1418 C1417 1.363 . S
C1418 C1424 1.428 . S
H1419 C1415 0.930 . S
H1420 C1417 0.929 . S
S1421 N1422 1.613 . S
S1421 N1423 1.610 . S
N1422 S1421 1.613 . S
N1422 C1425 1.350 . S
N1423 S1421 1.610 . S
N1423 C1424 1.351 . S
C1424 C1418 1.428 . S
C1424 N1423 1.351 . S
C1424 C1425 1.434 . S
C1425 C1416 1.429 . S
C1425 N1422 1.350 . S
C1425 C1424 1.434 . S
C1426 C1427 1.369 . S
C1426 C1428 1.419 . S
C1426 H1430 0.930 . S
C1427 C1426 1.369 . S
C1427 C1436 1.429 . S
C1428 C1426 1.419 . S
C1428 C1429 1.363 . S
C1428 H1431 0.929 . S
C1429 C1428 1.363 . S
C1429 C1435 1.428 . S
H1430 C1426 0.930 . S
H1431 C1428 0.929 . S
S1432 N1433 1.613 . S
S1432 N1434 1.610 . S
N1433 S1432 1.613 . S
N1433 C1436 1.350 . S
N1434 S1432 1.610 . S
N1434 C1435 1.351 . S
C1435 C1429 1.428 . S
C1435 N1434 1.351 . S
C1435 C1436 1.434 . S
C1436 C1427 1.429 . S
C1436 N1433 1.350 . S
C1436 C1435 1.434 . S
C1437 C1438 1.369 . S
C1437 C1439 1.419 . S
C1437 H1441 0.930 . S
C1438 C1437 1.369 . S
C1438 C1447 1.429 . S
C1439 C1437 1.419 . S
C1439 C1440 1.363 . S
C1439 H1442 0.929 . S
C1440 C1439 1.363 . S
C1440 C1446 1.428 . S
H1441 C1437 0.930 . S
H1442 C1439 0.929 . S
S1443 N1444 1.613 . S
S1443 N1445 1.610 . S
N1444 S1443 1.613 . S
N1444 C1447 1.350 . S
N1445 S1443 1.610 . S
N1445 C1446 1.351 . S
C1446 C1440 1.428 . S
C1446 N1445 1.351 . S
C1446 C1447 1.434 . S
C1447 C1438 1.429 . S
C1447 N1444 1.350 . S
C1447 C1446 1.434 . S
C1448 C1449 1.369 . S
C1448 C1450 1.419 . S
C1448 H1452 0.930 . S
C1449 C1448 1.369 . S
C1449 C1458 1.429 . S
C1450 C1448 1.419 . S
C1450 C1451 1.363 . S
C1450 H1453 0.929 . S
C1451 C1450 1.363 . S
C1451 C1457 1.428 . S
H1452 C1448 0.930 . S
H1453 C1450 0.929 . S
S1454 N1455 1.613 1_655 S
S1454 N1456 1.610 . S
N1455 S1454 1.613 1_455 S
N1455 C1458 1.350 . S
N1456 S1454 1.610 . S
N1456 C1457 1.351 1_655 S
C1457 C1451 1.428 . S
C1457 N1456 1.351 1_455 S
C1457 C1458 1.434 . S
C1458 C1449 1.429 . S
C1458 N1455 1.350 . S
C1458 C1457 1.434 . S
C1459 C1460 1.369 . S
C1459 C1461 1.419 . S
C1459 H1463 0.930 . S
C1460 C1459 1.369 . S
C1460 C1469 1.429 . S
C1461 C1459 1.419 . S
C1461 C1462 1.363 . S
C1461 H1464 0.929 . S
C1462 C1461 1.363 . S
C1462 C1468 1.428 . S
H1463 C1459 0.930 . S
H1464 C1461 0.929 . S
S1465 N1466 1.613 . S
S1465 N1467 1.610 . S
N1466 S1465 1.613 . S
N1466 C1469 1.350 . S
N1467 S1465 1.610 . S
N1467 C1468 1.351 . S
C1468 C1462 1.428 . S
C1468 N1467 1.351 . S
C1468 C1469 1.434 . S
C1469 C1460 1.429 . S
C1469 N1466 1.350 . S
C1469 C1468 1.434 . S
C1470 C1471 1.369 . S
C1470 C1472 1.419 . S
C1470 H1474 0.930 . S
C1471 C1470 1.369 . S
C1471 C1480 1.429 . S
C1472 C1470 1.419 . S
C1472 C1473 1.363 . S
C1472 H1475 0.929 . S
C1473 C1472 1.363 . S
C1473 C1479 1.428 . S
H1474 C1470 0.930 . S
H1475 C1472 0.929 . S
S1476 N1477 1.613 . S
S1476 N1478 1.610 . S
N1477 S1476 1.613 . S
N1477 C1480 1.350 . S
N1478 S1476 1.610 . S
N1478 C1479 1.351 . S
C1479 C1473 1.428 . S
C1479 N1478 1.351 . S
C1479 C1480 1.434 . S
C1480 C1471 1.429 . S
C1480 N1477 1.350 . S
C1480 C1479 1.434 . S
C1481 C1482 1.369 . S
C1481 C1483 1.419 . S
C1481 H1485 0.930 . S
C1482 C1481 1.369 . S
C1482 C1491 1.429 . S
C1483 C1481 1.419 . S
C1483 C1484 1.363 . S
C1483 H1486 0.929 . S
C1484 C1483 1.363 . S
C1484 C1490 1.428 . S
H1485 C1481 0.930 . S
H1486 C1483 0.929 . S
S1487 N1488 1.613 . S
S1487 N1489 1.610 . S
N1488 S1487 1.613 . S
N1488 C1491 1.350 . S
N1489 S1487 1.610 . S
N1489 C1490 1.351 . S
C1490 C1484 1.428 . S
C1490 N1489 1.351 . S
C1490 C1491 1.434 . S
C1491 C1482 1.429 . S
C1491 N1488 1.350 . S
C1491 C1490 1.434 . S
C1492 C1493 1.393 . S
C1492 C1494 1.417 1_455 S
C1492 H1496 0.908 1_455 S
C1493 C1492 1.393 . S
C1493 C1502 1.429 . S
C1494 C1492 1.417 1_655 S
C1494 C1495 1.363 1_655 S
C1494 H1497 0.929 . S
C1495 C1494 1.363 1_455 S
C1495 C1501 1.428 . S
H1496 C1492 0.908 1_655 S
H1497 C1494 0.929 . S
S1498 N1499 1.613 . S
S1498 N1500 1.610 . S
N1499 S1498 1.613 . S
N1499 C1502 1.350 . S
N1500 S1498 1.610 . S
N1500 C1501 1.351 . S
C1501 C1495 1.428 . S
C1501 N1500 1.351 . S
C1501 C1502 1.434 . S
C1502 C1493 1.429 . S
C1502 N1499 1.350 . S
C1502 C1501 1.434 . S
C1503 C1504 1.369 . S
C1503 C1505 1.419 . S
C1503 H1507 0.930 . S
C1504 C1503 1.369 . S
C1504 C1513 1.429 . S
C1505 C1503 1.419 . S
C1505 C1506 1.363 . S
C1505 H1508 0.929 . S
C1506 C1505 1.363 . S
C1506 C1512 1.428 . S
H1507 C1503 0.930 . S
H1508 C1505 0.929 . S
S1509 N1510 1.613 . S
S1509 N1511 1.610 . S
N1510 S1509 1.613 . S
N1510 C1513 1.350 . S
N1511 S1509 1.610 . S
N1511 C1512 1.351 . S
C1512 C1506 1.428 . S
C1512 N1511 1.351 . S
C1512 C1513 1.434 . S
C1513 C1504 1.429 . S
C1513 N1510 1.350 . S
C1513 C1512 1.434 . S
C1514 C1515 1.369 . S
C1514 C1516 1.419 . S
C1514 H1518 0.930 . S
C1515 C1514 1.369 . S
C1515 C1524 1.429 . S
C1516 C1514 1.419 . S
C1516 C1517 1.363 . S
C1516 H1519 0.929 . S
C1517 C1516 1.363 . S
C1517 C1523 1.428 1_556 S
H1518 C1514 0.930 . S
H1519 C1516 0.929 . S
S1520 N1521 1.613 . S
S1520 N1522 1.610 . S
N1521 S1520 1.613 . S
N1521 C1524 1.350 1_554 S
N1522 S1520 1.610 . S
N1522 C1523 1.351 . S
C1523 C1517 1.428 1_554 S
C1523 N1522 1.351 . S
C1523 C1524 1.434 1_554 S
C1524 C1515 1.429 . S
C1524 N1521 1.350 1_556 S
C1524 C1523 1.434 1_556 S
C1525 C1526 1.369 . S
C1525 C1527 1.419 . S
C1525 H1529 0.930 . S
C1526 C1525 1.369 . S
C1526 C1535 1.429 . S
C1527 C1525 1.419 . S
C1527 C1528 1.363 . S
C1527 H1530 0.929 . S
C1528 C1527 1.363 . S
C1528 C1534 1.428 . S
H1529 C1525 0.930 . S
H1530 C1527 0.929 . S
S1531 N1532 1.613 . S
S1531 N1533 1.610 . S
N1532 S1531 1.613 . S
N1532 C1535 1.350 . S
N1533 S1531 1.610 . S
N1533 C1534 1.351 . S
C1534 C1528 1.428 . S
C1534 N1533 1.351 . S
C1534 C1535 1.434 . S
C1535 C1526 1.429 . S
C1535 N1532 1.350 . S
C1535 C1534 1.434 . S
C1536 C1537 1.369 1_565 S
C1536 C1538 1.419 . S
C1536 H1540 0.930 . S
C1537 C1536 1.369 1_545 S
C1537 C1546 1.429 . S
C1538 C1536 1.419 . S
C1538 C1539 1.363 . S
C1538 H1541 0.929 . S
C1539 C1538 1.363 . S
C1539 C1545 1.428 1_565 S
H1540 C1536 0.930 . S
H1541 C1538 0.929 . S
S1542 N1543 1.613 . S
S1542 N1544 1.610 . S
N1543 S1542 1.613 . S
N1543 C1546 1.350 . S
N1544 S1542 1.610 . S
N1544 C1545 1.351 . S
C1545 C1539 1.428 1_545 S
C1545 N1544 1.351 . S
C1545 C1546 1.434 . S
C1546 C1537 1.429 . S
C1546 N1543 1.350 . S
C1546 C1545 1.434 . S
C1547 C1548 1.369 . S
C1547 C1549 1.419 . S
C1547 H1551 0.930 . S
C1548 C1547 1.369 . S
C1548 C1557 1.429 . S
C1549 C1547 1.419 . S
C1549 C1550 1.363 . S
C1549 H1552 0.929 . S
C1550 C1549 1.363 . S
C1550 C1556 1.428 . S
H1551 C1547 0.930 . S
H1552 C1549 0.929 . S
S1553 N1554 1.613 . S
S1553 N1555 1.610 . S
N1554 S1553 1.613 . S
N1554 C1557 1.350 . S
N1555 S1553 1.610 . S
N1555 C1556 1.351 . S
C1556 C1550 1.428 . S
C1556 N1555 1.351 . S
C1556 C1557 1.434 . S
C1557 C1548 1.429 . S
C1557 N1554 1.350 . S
C1557 C1556 1.434 . S
C1558 C1559 1.369 . S
C1558 C1560 1.419 . S
C1558 H1562 0.930 . S
C1559 C1558 1.369 . S
C1559 C1568 1.429 . S
C1560 C1558 1.419 . S
C1560 C1561 1.363 . S
C1560 H1563 0.929 . S
C1561 C1560 1.363 . S
C1561 C1567 1.428 . S
H1562 C1558 0.930 . S
H1563 C1560 0.929 . S
S1564 N1565 1.613 . S
S1564 N1566 1.610 . S
N1565 S1564 1.613 . S
N1565 C1568 1.350 1_565 S
N1566 S1564 1.610 . S
N1566 C1567 1.351 1_565 S
C1567 C1561 1.428 . S
C1567 N1566 1.351 1_545 S
C1567 C1568 1.434 . S
C1568 C1559 1.429 . S
C1568 N1565 1.350 1_545 S
C1568 C1567 1.434 . S
C1569 C1570 1.369 . S
C1569 C1571 1.419 . S
C1569 H1573 0.930 . S
C1570 C1569 1.369 . S
C1570 C1579 1.429 . S
C1571 C1569 1.419 . S
C1571 C1572 1.363 . S
C1571 H1574 0.929 . S
C1572 C1571 1.363 . S
C1572 C1578 1.428 . S
H1573 C1569 0.930 . S
H1574 C1571 0.929 . S
S1575 N1576 1.613 . S
S1575 N1577 1.610 . S
N1576 S1575 1.613 . S
N1576 C1579 1.350 . S
N1577 S1575 1.610 . S
N1577 C1578 1.351 . S
C1578 C1572 1.428 . S
C1578 N1577 1.351 . S
C1578 C1579 1.434 . S
C1579 C1570 1.429 . S
C1579 N1576 1.350 . S
C1579 C1578 1.434 . S
C1580 C1581 1.369 1_565 S
C1580 C1582 1.419 . S
C1580 H1584 0.930 . S
C1581 C1580 1.369 1_545 S
C1581 C1590 1.429 . S
C1582 C1580 1.419 . S
C1582 C1583 1.363 1_565 S
C1582 H1585 0.929 . S
C1583 C1582 1.363 1_545 S
C1583 C1589 1.428 . S
H1584 C1580 0.930 . S
H1585 C1582 0.929 . S
S1586 N1587 1.613 . S
S1586 N1588 1.610 . S
N1587 S1586 1.613 . S
N1587 C1590 1.350 . S
N1588 S1586 1.610 . S
N1588 C1589 1.351 . S
C1589 C1583 1.428 . S
C1589 N1588 1.351 . S
C1589 C1590 1.434 . S
C1590 C1581 1.429 . S
C1590 N1587 1.350 . S
C1590 C1589 1.434 . S
C1591 C1592 1.369 . S
C1591 C1593 1.419 . S
C1591 H1595 0.930 . S
C1592 C1591 1.369 . S
C1592 C1601 1.429 . S
C1593 C1591 1.419 . S
C1593 C1594 1.363 . S
C1593 H1596 0.929 . S
C1594 C1593 1.363 . S
C1594 C1600 1.428 . S
H1595 C1591 0.930 . S
H1596 C1593 0.929 . S
S1597 N1598 1.613 . S
S1597 N1599 1.610 . S
N1598 S1597 1.613 . S
N1598 C1601 1.350 . S
N1599 S1597 1.610 . S
N1599 C1600 1.351 . S
C1600 C1594 1.428 . S
C1600 N1599 1.351 . S
C1600 C1601 1.434 . S
C1601 C1592 1.429 . S
C1601 N1598 1.350 . S
C1601 C1600 1.434 . S
C1602 C1603 1.369 . S
C1602 C1604 1.419 . S
C1602 H1606 0.930 . S
C1603 C1602 1.369 . S
C1603 C1612 1.410 1_545 S
C1604 C1602 1.419 . S
C1604 C1605 1.363 . S
C1604 H1607 0.929 . S
C1605 C1604 1.363 . S
C1605 C1611 1.428 1_545 S
H1606 C1602 0.930 . S
H1607 C1604 0.929 . S
S1608 N1609 1.613 . S
S1608 N1610 1.610 . S
N1609 S1608 1.613 . S
N1609 C1612 1.362 . S
N1610 S1608 1.610 . S
N1610 C1611 1.351 . S
C1611 C1605 1.428 1_565 S
C1611 N1610 1.351 . S
C1611 C1612 1.445 . S
C1612 C1603 1.410 1_565 S
C1612 N1609 1.362 . S
C1612 C1611 1.445 . S
C1613 C1614 1.369 . S
C1613 C1615 1.419 . S
C1613 H1617 0.930 . S
C1614 C1613 1.369 . S
C1614 C1623 1.429 . S
C1615 C1613 1.419 . S
C1615 C1616 1.363 . S
C1615 H1618 0.929 . S
C1616 C1615 1.363 . S
C1616 C1622 1.428 . S
H1617 C1613 0.930 . S
H1618 C1615 0.929 . S
S1619 N1620 1.613 . S
S1619 N1621 1.610 . S
N1620 S1619 1.613 . S
N1620 C1623 1.350 . S
N1621 S1619 1.610 . S
N1621 C1622 1.351 . S
C1622 C1616 1.428 . S
C1622 N1621 1.351 . S
C1622 C1623 1.434 . S
C1623 C1614 1.429 . S
C1623 N1620 1.350 . S
C1623 C1622 1.434 . S
C1624 C1625 1.369 . S
C1624 C1626 1.419 1_554 S
C1624 H1628 0.915 1_554 S
C1625 C1624 1.369 . S
C1625 C1634 1.429 . S
C1626 C1624 1.419 1_556 S
C1626 C1627 1.363 1_556 S
C1626 H1629 0.929 . S
C1627 C1626 1.363 1_554 S
C1627 C1633 1.428 . S
H1628 C1624 0.915 1_556 S
H1629 C1626 0.929 . S
S1630 N1631 1.613 . S
S1630 N1632 1.610 . S
N1631 S1630 1.613 . S
N1631 C1634 1.350 . S
N1632 S1630 1.610 . S
N1632 C1633 1.351 . S
C1633 C1627 1.428 . S
C1633 N1632 1.351 . S
C1633 C1634 1.434 . S
C1634 C1625 1.429 . S
C1634 N1631 1.350 . S
C1634 C1633 1.434 . S
C1635 C1636 1.369 . S
C1635 C1637 1.419 . S
C1635 H1639 0.930 . S
C1636 C1635 1.369 . S
C1636 C1645 1.429 . S
C1637 C1635 1.419 . S
C1637 C1638 1.363 . S
C1637 H1640 0.929 . S
C1638 C1637 1.363 . S
C1638 C1644 1.428 . S
H1639 C1635 0.930 . S
H1640 C1637 0.929 . S
S1641 N1642 1.613 . S
S1641 N1643 1.610 . S
N1642 S1641 1.613 . S
N1642 C1645 1.350 . S
N1643 S1641 1.610 . S
N1643 C1644 1.351 . S
C1644 C1638 1.428 . S
C1644 N1643 1.351 . S
C1644 C1645 1.434 . S
C1645 C1636 1.429 . S
C1645 N1642 1.350 . S
C1645 C1644 1.434 . S
C1646 C1647 1.369 . S
C1646 C1648 1.419 . S
C1646 H1650 0.930 . S
C1647 C1646 1.369 . S
C1647 C1656 1.429 . S
C1648 C1646 1.419 . S
C1648 C1649 1.363 . S
C1648 H1651 0.929 . S
C1649 C1648 1.363 . S
C1649 C1655 1.428 . S
H1650 C1646 0.930 . S
H1651 C1648 0.929 . S
S1652 N1653 1.613 . S
S1652 N1654 1.610 . S
N1653 S1652 1.613 . S
N1653 C1656 1.350 . S
N1654 S1652 1.610 . S
N1654 C1655 1.351 . S
C1655 C1649 1.428 . S
C1655 N1654 1.351 . S
C1655 C1656 1.434 . S
C1656 C1647 1.429 . S
C1656 N1653 1.350 . S
C1656 C1655 1.434 . S
C1657 C1658 1.369 . S
C1657 C1659 1.419 . S
C1657 H1661 0.930 . S
C1658 C1657 1.369 . S
C1658 C1667 1.429 . S
C1659 C1657 1.419 . S
C1659 C1660 1.363 . S
C1659 H1662 0.929 . S
C1660 C1659 1.363 . S
C1660 C1666 1.428 . S
H1661 C1657 0.930 . S
H1662 C1659 0.929 . S
S1663 N1664 1.613 . S
S1663 N1665 1.610 . S
N1664 S1663 1.613 . S
N1664 C1667 1.350 . S
N1665 S1663 1.610 . S
N1665 C1666 1.351 . S
C1666 C1660 1.428 . S
C1666 N1665 1.351 . S
C1666 C1667 1.434 . S
C1667 C1658 1.429 . S
C1667 N1664 1.350 . S
C1667 C1666 1.434 . S
C1668 C1669 1.369 . S
C1668 C1670 1.419 . S
C1668 H1672 0.930 . S
C1669 C1668 1.369 . S
C1669 C1678 1.429 . S
C1670 C1668 1.419 . S
C1670 C1671 1.363 . S
C1670 H1673 0.929 . S
C1671 C1670 1.363 . S
C1671 C1677 1.428 . S
H1672 C1668 0.930 . S
H1673 C1670 0.929 . S
S1674 N1675 1.613 . S
S1674 N1676 1.610 . S
N1675 S1674 1.613 . S
N1675 C1678 1.350 . S
N1676 S1674 1.610 . S
N1676 C1677 1.351 . S
C1677 C1671 1.428 . S
C1677 N1676 1.351 . S
C1677 C1678 1.434 . S
C1678 C1669 1.429 . S
C1678 N1675 1.350 . S
C1678 C1677 1.434 . S
C1679 C1680 1.369 . S
C1679 C1681 1.419 . S
C1679 H1683 0.930 . S
C1680 C1679 1.369 . S
C1680 C1689 1.429 . S
C1681 C1679 1.419 . S
C1681 C1682 1.363 . S
C1681 H1684 0.929 . S
C1682 C1681 1.363 . S
C1682 C1688 1.428 . S
H1683 C1679 0.930 . S
H1684 C1681 0.929 . S
S1685 N1686 1.613 . S
S1685 N1687 1.610 . S
N1686 S1685 1.613 . S
N1686 C1689 1.350 . S
N1687 S1685 1.610 . S
N1687 C1688 1.351 . S
C1688 C1682 1.428 . S
C1688 N1687 1.351 . S
C1688 C1689 1.434 . S
C1689 C1680 1.429 . S
C1689 N1686 1.350 . S
C1689 C1688 1.434 . S
C1690 C1691 1.369 . S
C1690 C1692 1.419 . S
C1690 H1694 0.930 . S
C1691 C1690 1.369 . S
C1691 C1700 1.429 . S
C1692 C1690 1.419 . S
C1692 C1693 1.363 . S
C1692 H1695 0.929 . S
C1693 C1692 1.363 . S
C1693 C1699 1.428 . S
H1694 C1690 0.930 . S
H1695 C1692 0.929 . S
S1696 N1697 1.613 . S
S1696 N1698 1.610 . S
N1697 S1696 1.613 . S
N1697 C1700 1.350 . S
N1698 S1696 1.610 . S
N1698 C1699 1.351 . S
C1699 C1693 1.428 . S
C1699 N1698 1.351 . S
C1699 C1700 1.434 . S
C1700 C1691 1.429 . S
C1700 N1697 1.350 . S
C1700 C1699 1.434 . S
C1701 C1702 1.369 . S
C1701 C1703 1.419 . S
C1701 H1705 0.930 . S
C1702 C1701 1.369 . S
C1702 C1711 1.429 . S
C1703 C1701 1.419 . S
C1703 C1704 1.363 . S
C1703 H1706 0.929 . S
C1704 C1703 1.363 . S
C1704 C1710 1.428 . S
H1705 C1701 0.930 . S
H1706 C1703 0.929 . S
S1707 N1708 1.613 . S
S1707 N1709 1.610 . S
N1708 S1707 1.613 . S
N1708 C1711 1.350 . S
N1709 S1707 1.610 . S
N1709 C1710 1.351 . S
C1710 C1704 1.428 . S
C1710 N1709 1.351 . S
C1710 C1711 1.434 . S
C1711 C1702 1.429 . S
C1711 N1708 1.350 . S
C1711 C1710 1.434 . S
C1712 C1713 1.369 . S
C1712 C1714 1.419 . S
C1712 H1716 0.930 . S
C1713 C1712 1.369 . S
C1713 C1722 1.429 . S
C1714 C1712 1.419 . S
C1714 C1715 1.363 . S
C1714 H1717 0.929 . S
C1715 C1714 1.363 . S
C1715 C1721 1.428 . S
H1716 C1712 0.930 . S
H1717 C1714 0.929 . S
S1718 N1719 1.613 . S
S1718 N1720 1.610 . S
N1719 S1718 1.613 . S
N1719 C1722 1.350 . S
N1720 S1718 1.610 . S
N1720 C1721 1.351 . S
C1721 C1715 1.428 . S
C1721 N1720 1.351 . S
C1721 C1722 1.434 . S
C1722 C1713 1.429 . S
C1722 N1719 1.350 . S
C1722 C1721 1.434 . S
C1723 C1724 1.369 . S
C1723 C1725 1.419 . S
C1723 H1727 0.930 . S
C1724 C1723 1.369 . S
C1724 C1733 1.429 . S
C1725 C1723 1.419 . S
C1725 C1726 1.363 . S
C1725 H1728 0.929 . S
C1726 C1725 1.363 . S
C1726 C1732 1.428 . S
H1727 C1723 0.930 . S
H1728 C1725 0.929 . S
S1729 N1730 1.613 . S
S1729 N1731 1.610 . S
N1730 S1729 1.613 . S
N1730 C1733 1.350 . S
N1731 S1729 1.610 . S
N1731 C1732 1.351 . S
C1732 C1726 1.428 . S
C1732 N1731 1.351 . S
C1732 C1733 1.434 . S
C1733 C1724 1.429 . S
C1733 N1730 1.350 . S
C1733 C1732 1.434 . S
C1734 C1735 1.369 . S
C1734 C1736 1.419 . S
C1734 H1738 0.930 . S
C1735 C1734 1.369 . S
C1735 C1744 1.429 1_455 S
C1736 C1734 1.419 . S
C1736 C1737 1.363 . S
C1736 H1739 0.929 . S
C1737 C1736 1.363 . S
C1737 C1743 1.428 1_455 S
H1738 C1734 0.930 . S
H1739 C1736 0.929 . S
S1740 N1741 1.613 . S
S1740 N1742 1.610 . S
N1741 S1740 1.613 . S
N1741 C1744 1.350 . S
N1742 S1740 1.610 . S
N1742 C1743 1.351 . S
C1743 C1737 1.428 1_655 S
C1743 N1742 1.351 . S
C1743 C1744 1.434 . S
C1744 C1735 1.429 1_655 S
C1744 N1741 1.350 . S
C1744 C1743 1.434 . S
C1745 C1746 1.369 . S
C1745 C1747 1.419 . S
C1745 H1749 0.930 . S
C1746 C1745 1.369 . S
C1746 C1755 1.429 . S
C1747 C1745 1.419 . S
C1747 C1748 1.363 . S
C1747 H1750 0.929 . S
C1748 C1747 1.363 . S
C1748 C1754 1.428 . S
H1749 C1745 0.930 . S
H1750 C1747 0.929 . S
S1751 N1752 1.613 . S
S1751 N1753 1.610 . S
N1752 S1751 1.613 . S
N1752 C1755 1.350 . S
N1753 S1751 1.610 . S
N1753 C1754 1.351 . S
C1754 C1748 1.428 . S
C1754 N1753 1.351 . S
C1754 C1755 1.434 . S
C1755 C1746 1.429 . S
C1755 N1752 1.350 . S
C1755 C1754 1.434 . S
C1756 C1757 1.369 . S
C1756 C1758 1.419 . S
C1756 H1760 0.930 . S
C1757 C1756 1.369 . S
C1757 C1766 1.429 . S
C1758 C1756 1.419 . S
C1758 C1759 1.363 . S
C1758 H1761 0.929 . S
C1759 C1758 1.363 . S
C1759 C1765 1.428 . S
H1760 C1756 0.930 . S
H1761 C1758 0.929 . S
S1762 N1763 1.613 . S
S1762 N1764 1.610 . S
N1763 S1762 1.613 . S
N1763 C1766 1.350 . S
N1764 S1762 1.610 . S
N1764 C1765 1.351 . S
C1765 C1759 1.428 . S
C1765 N1764 1.351 . S
C1765 C1766 1.434 . S
C1766 C1757 1.429 . S
C1766 N1763 1.350 . S
C1766 C1765 1.434 . S
C1767 C1768 1.369 . S
C1767 C1769 1.419 . S
C1767 H1771 0.930 . S
C1768 C1767 1.369 . S
C1768 C1777 1.429 . S
C1769 C1767 1.419 . S
C1769 C1770 1.363 . S
C1769 H1772 0.929 . S
C1770 C1769 1.363 . S
C1770 C1776 1.428 . S
H1771 C1767 0.930 . S
H1772 C1769 0.929 . S
S1773 N1774 1.613 . S
S1773 N1775 1.610 . S
N1774 S1773 1.613 . S
N1774 C1777 1.350 . S
N1775 S1773 1.610 . S
N1775 C1776 1.351 . S
C1776 C1770 1.428 . S
C1776 N1775 1.351 . S
C1776 C1777 1.434 . S
C1777 C1768 1.429 . S
C1777 N1774 1.350 . S
C1777 C1776 1.434 . S
C1778 C1779 1.369 1_655 S
C1778 C1780 1.419 . S
C1778 H1782 0.930 . S
C1779 C1778 1.369 1_455 S
C1779 C1788 1.429 . S
C1780 C1778 1.419 . S
C1780 C1781 1.363 1_655 S
C1780 H1783 0.929 . S
C1781 C1780 1.363 1_455 S
C1781 C1787 1.428 . S
H1782 C1778 0.930 . S
H1783 C1780 0.929 . S
S1784 N1785 1.613 . S
S1784 N1786 1.610 . S
N1785 S1784 1.613 . S
N1785 C1788 1.350 . S
N1786 S1784 1.610 . S
N1786 C1787 1.351 . S
C1787 C1781 1.428 . S
C1787 N1786 1.351 . S
C1787 C1788 1.434 . S
C1788 C1779 1.429 . S
C1788 N1785 1.350 . S
C1788 C1787 1.434 . S
C1789 C1790 1.369 . S
C1789 C1791 1.419 . S
C1789 H1793 0.930 . S
C1790 C1789 1.369 . S
C1790 C1799 1.429 . S
C1791 C1789 1.419 . S
C1791 C1792 1.363 . S
C1791 H1794 0.929 . S
C1792 C1791 1.363 . S
C1792 C1798 1.428 . S
H1793 C1789 0.930 . S
H1794 C1791 0.929 . S
S1795 N1796 1.613 . S
S1795 N1797 1.610 . S
N1796 S1795 1.613 . S
N1796 C1799 1.350 . S
N1797 S1795 1.610 . S
N1797 C1798 1.351 . S
C1798 C1792 1.428 . S
C1798 N1797 1.351 . S
C1798 C1799 1.434 . S
C1799 C1790 1.429 . S
C1799 N1796 1.350 . S
C1799 C1798 1.434 . S
C1800 C1801 1.369 . S
C1800 C1802 1.419 . S
C1800 H1804 0.930 . S
C1801 C1800 1.369 . S
C1801 C1810 1.429 . S
C1802 C1800 1.419 . S
C1802 C1803 1.363 . S
C1802 H1805 0.929 . S
C1803 C1802 1.363 . S
C1803 C1809 1.428 . S
H1804 C1800 0.930 . S
H1805 C1802 0.929 . S
S1806 N1807 1.613 . S
S1806 N1808 1.610 . S
N1807 S1806 1.613 . S
N1807 C1810 1.350 . S
N1808 S1806 1.610 . S
N1808 C1809 1.351 . S
C1809 C1803 1.428 . S
C1809 N1808 1.351 . S
C1809 C1810 1.434 . S
C1810 C1801 1.429 . S
C1810 N1807 1.350 . S
C1810 C1809 1.434 . S
C1811 C1812 1.369 . S
C1811 C1813 1.419 . S
C1811 H1815 0.930 . S
C1812 C1811 1.369 . S
C1812 C1821 1.429 . S
C1813 C1811 1.419 . S
C1813 C1814 1.363 . S
C1813 H1816 0.929 . S
C1814 C1813 1.363 . S
C1814 C1820 1.428 . S
H1815 C1811 0.930 . S
H1816 C1813 0.929 . S
S1817 N1818 1.613 . S
S1817 N1819 1.610 . S
N1818 S1817 1.613 . S
N1818 C1821 1.350 . S
N1819 S1817 1.610 . S
N1819 C1820 1.351 . S
C1820 C1814 1.428 . S
C1820 N1819 1.351 . S
C1820 C1821 1.434 . S
C1821 C1812 1.429 . S
C1821 N1818 1.350 . S
C1821 C1820 1.434 . S
C1822 C1823 1.369 . S
C1822 C1824 1.419 . S
C1822 H1826 0.930 . S
C1823 C1822 1.369 . S
C1823 C1832 1.429 . S
C1824 C1822 1.419 . S
C1824 C1825 1.363 . S
C1824 H1827 0.929 . S
C1825 C1824 1.363 . S
C1825 C1831 1.428 . S
H1826 C1822 0.930 . S
H1827 C1824 0.929 . S
S1828 N1829 1.613 1_655 S
S1828 N1830 1.610 . S
N1829 S1828 1.613 1_455 S
N1829 C1832 1.350 . S
N1830 S1828 1.610 . S
N1830 C1831 1.351 1_655 S
C1831 C1825 1.428 . S
C1831 N1830 1.351 1_455 S
C1831 C1832 1.434 . S
C1832 C1823 1.429 . S
C1832 N1829 1.350 . S
C1832 C1831 1.434 . S
C1833 C1834 1.369 . S
C1833 C1835 1.419 . S
C1833 H1837 0.930 . S
C1834 C1833 1.369 . S
C1834 C1843 1.429 . S
C1835 C1833 1.419 . S
C1835 C1836 1.363 . S
C1835 H1838 0.929 . S
C1836 C1835 1.363 . S
C1836 C1842 1.428 . S
H1837 C1833 0.930 . S
H1838 C1835 0.929 . S
S1839 N1840 1.613 . S
S1839 N1841 1.610 . S
N1840 S1839 1.613 . S
N1840 C1843 1.350 . S
N1841 S1839 1.610 . S
N1841 C1842 1.351 . S
C1842 C1836 1.428 . S
C1842 N1841 1.351 . S
C1842 C1843 1.434 . S
C1843 C1834 1.429 . S
C1843 N1840 1.350 . S
C1843 C1842 1.434 . S
C1844 C1845 1.369 . S
C1844 C1846 1.419 . S
C1844 H1848 0.930 . S
C1845 C1844 1.369 . S
C1845 C1854 1.429 . S
C1846 C1844 1.419 . S
C1846 C1847 1.363 . S
C1846 H1849 0.929 . S
C1847 C1846 1.363 . S
C1847 C1853 1.428 . S
H1848 C1844 0.930 . S
H1849 C1846 0.929 . S
S1850 N1851 1.613 . S
S1850 N1852 1.610 . S
N1851 S1850 1.613 . S
N1851 C1854 1.350 . S
N1852 S1850 1.610 . S
N1852 C1853 1.351 . S
C1853 C1847 1.428 . S
C1853 N1852 1.351 . S
C1853 C1854 1.434 . S
C1854 C1845 1.429 . S
C1854 N1851 1.350 . S
C1854 C1853 1.434 . S
C1855 C1856 1.369 . S
C1855 C1857 1.419 . S
C1855 H1859 0.930 . S
C1856 C1855 1.369 . S
C1856 C1865 1.429 . S
C1857 C1855 1.419 . S
C1857 C1858 1.363 . S
C1857 H1860 0.929 . S
C1858 C1857 1.363 . S
C1858 C1864 1.428 . S
H1859 C1855 0.930 . S
H1860 C1857 0.929 . S
S1861 N1862 1.613 . S
S1861 N1863 1.610 . S
N1862 S1861 1.613 . S
N1862 C1865 1.350 . S
N1863 S1861 1.610 . S
N1863 C1864 1.351 . S
C1864 C1858 1.428 . S
C1864 N1863 1.351 . S
C1864 C1865 1.434 . S
C1865 C1856 1.429 . S
C1865 N1862 1.350 . S
C1865 C1864 1.434 . S
C1866 C1867 1.369 . S
C1866 C1868 1.419 . S
C1866 H1870 0.930 . S
C1867 C1866 1.369 . S
C1867 C1876 1.429 . S
C1868 C1866 1.419 . S
C1868 C1869 1.363 . S
C1868 H1871 0.929 . S
C1869 C1868 1.363 . S
C1869 C1875 1.428 . S
H1870 C1866 0.930 . S
H1871 C1868 0.929 . S
S1872 N1873 1.613 . S
S1872 N1874 1.610 . S
N1873 S1872 1.613 . S
N1873 C1876 1.350 . S
N1874 S1872 1.610 . S
N1874 C1875 1.351 . S
C1875 C1869 1.428 . S
C1875 N1874 1.351 . S
C1875 C1876 1.434 . S
C1876 C1867 1.429 . S
C1876 N1873 1.350 . S
C1876 C1875 1.434 . S
C1877 C1878 1.369 . S
C1877 C1879 1.419 . S
C1877 H1881 0.930 . S
C1878 C1877 1.369 . S
C1878 C1887 1.429 . S
C1879 C1877 1.419 . S
C1879 C1880 1.363 . S
C1879 H1882 0.929 . S
C1880 C1879 1.363 . S
C1880 C1886 1.428 . S
H1881 C1877 0.930 . S
H1882 C1879 0.929 . S
S1883 N1884 1.613 . S
S1883 N1885 1.610 . S
N1884 S1883 1.613 . S
N1884 C1887 1.350 . S
N1885 S1883 1.610 . S
N1885 C1886 1.351 . S
C1886 C1880 1.428 . S
C1886 N1885 1.351 . S
C1886 C1887 1.434 . S
C1887 C1878 1.429 . S
C1887 N1884 1.350 . S
C1887 C1886 1.434 . S
C1888 C1889 1.369 . S
C1888 C1890 1.419 . S
C1888 H1892 0.930 . S
C1889 C1888 1.369 . S
C1889 C1898 1.429 . S
C1890 C1888 1.419 . S
C1890 C1891 1.363 . S
C1890 H1893 0.929 . S
C1891 C1890 1.363 . S
C1891 C1897 1.428 . S
H1892 C1888 0.930 . S
H1893 C1890 0.929 . S
S1894 N1895 1.613 . S
S1894 N1896 1.610 . S
N1895 S1894 1.613 . S
N1895 C1898 1.350 . S
N1896 S1894 1.610 . S
N1896 C1897 1.351 . S
C1897 C1891 1.428 . S
C1897 N1896 1.351 . S
C1897 C1898 1.434 . S
C1898 C1889 1.429 . S
C1898 N1895 1.350 . S
C1898 C1897 1.434 . S
C1899 C1900 1.369 . S
C1899 C1901 1.419 . S
C1899 H1903 0.930 . S
C1900 C1899 1.369 . S
C1900 C1909 1.429 . S
C1901 C1899 1.419 . S
C1901 C1902 1.363 . S
C1901 H1904 0.929 . S
C1902 C1901 1.363 . S
C1902 C1908 1.428 . S
H1903 C1899 0.930 . S
H1904 C1901 0.929 . S
S1905 N1906 1.613 . S
S1905 N1907 1.610 . S
N1906 S1905 1.613 . S
N1906 C1909 1.350 . S
N1907 S1905 1.610 . S
N1907 C1908 1.351 . S
C1908 C1902 1.428 . S
C1908 N1907 1.351 . S
C1908 C1909 1.434 . S
C1909 C1900 1.429 . S
C1909 N1906 1.350 . S
C1909 C1908 1.434 . S
C1910 C1911 1.369 . S
C1910 C1912 1.419 . S
C1910 H1914 0.930 . S
C1911 C1910 1.369 . S
C1911 C1920 1.429 . S
C1912 C1910 1.419 . S
C1912 C1913 1.363 . S
C1912 H1915 0.929 . S
C1913 C1912 1.363 . S
C1913 C1919 1.428 . S
H1914 C1910 0.930 . S
H1915 C1912 0.929 . S
S1916 N1917 1.613 . S
S1916 N1918 1.610 . S
N1917 S1916 1.613 . S
N1917 C1920 1.350 . S
N1918 S1916 1.610 . S
N1918 C1919 1.351 . S
C1919 C1913 1.428 . S
C1919 N1918 1.351 . S
C1919 C1920 1.434 . S
C1920 C1911 1.429 . S
C1920 N1917 1.350 . S
C1920 C1919 1.434 . S
C1921 C1922 1.369 . S
C1921 C1923 1.419 . S
C1921 H1925 0.930 1_554 S
C1922 C1921 1.369 . S
C1922 C1931 1.429 . S
C1923 C1921 1.419 . S
C1923 C1924 1.363 . S
C1923 H1926 0.929 1_554 S
C1924 C1923 1.363 . S
C1924 C1930 1.428 . S
H1925 C1921 0.930 1_556 S
H1926 C1923 0.929 1_556 S
S1927 N1928 1.613 1_545 S
S1927 N1929 1.610 . S
N1928 S1927 1.613 1_565 S
N1928 C1931 1.350 . S
N1929 S1927 1.610 . S
N1929 C1930 1.351 1_545 S
C1930 C1924 1.428 . S
C1930 N1929 1.351 1_565 S
C1930 C1931 1.434 . S
C1931 C1922 1.429 . S
C1931 N1928 1.350 . S
C1931 C1930 1.434 . S
C1932 C1933 1.369 . S
C1932 C1934 1.419 . S
C1932 H1936 0.930 . S
C1933 C1932 1.369 . S
C1933 C1942 1.429 . S
C1934 C1932 1.419 . S
C1934 C1935 1.363 . S
C1934 H1937 0.929 . S
C1935 C1934 1.363 . S
C1935 C1941 1.428 . S
H1936 C1932 0.930 . S
H1937 C1934 0.929 . S
S1938 N1939 1.613 . S
S1938 N1940 1.610 . S
N1939 S1938 1.613 . S
N1939 C1942 1.350 . S
N1940 S1938 1.610 . S
N1940 C1941 1.351 . S
C1941 C1935 1.428 . S
C1941 N1940 1.351 . S
C1941 C1942 1.434 . S
C1942 C1933 1.429 . S
C1942 N1939 1.350 . S
C1942 C1941 1.434 . S
C1943 C1944 1.369 . S
C1943 C1945 1.419 . S
C1943 H1947 0.930 . S
C1944 C1943 1.369 . S
C1944 C1953 1.429 1_554 S
C1945 C1943 1.419 . S
C1945 C1946 1.363 . S
C1945 H1948 0.929 . S
C1946 C1945 1.363 . S
C1946 C1952 1.428 . S
H1947 C1943 0.930 . S
H1948 C1945 0.929 . S
S1949 N1950 1.613 . S
S1949 N1951 1.610 . S
N1950 S1949 1.613 . S
N1950 C1953 1.350 . S
N1951 S1949 1.610 . S
N1951 C1952 1.351 1_556 S
C1952 C1946 1.428 . S
C1952 N1951 1.351 1_554 S
C1952 C1953 1.434 1_554 S
C1953 C1944 1.429 1_556 S
C1953 N1950 1.350 . S
C1953 C1952 1.434 1_556 S
C1954 C1955 1.369 . S
C1954 C1956 1.419 . S
C1954 H1958 0.930 . S
C1955 C1954 1.369 . S
C1955 C1964 1.429 . S
C1956 C1954 1.419 . S
C1956 C1957 1.363 . S
C1956 H1959 0.929 . S
C1957 C1956 1.363 . S
C1957 C1963 1.428 . S
H1958 C1954 0.930 . S
H1959 C1956 0.929 . S
S1960 N1961 1.613 . S
S1960 N1962 1.610 . S
N1961 S1960 1.613 . S
N1961 C1964 1.350 . S
N1962 S1960 1.610 . S
N1962 C1963 1.351 . S
C1963 C1957 1.428 . S
C1963 N1962 1.351 . S
C1963 C1964 1.434 . S
C1964 C1955 1.429 . S
C1964 N1961 1.350 . S
C1964 C1963 1.434 . S
C1965 C1966 1.369 . S
C1965 C1967 1.419 . S
C1965 H1969 0.930 . S
C1966 C1965 1.369 . S
C1966 C1975 1.429 . S
C1967 C1965 1.419 . S
C1967 C1968 1.363 . S
C1967 H1970 0.929 . S
C1968 C1967 1.363 . S
C1968 C1974 1.428 . S
H1969 C1965 0.930 . S
H1970 C1967 0.929 . S
S1971 N1972 1.613 . S
S1971 N1973 1.610 . S
N1972 S1971 1.613 . S
N1972 C1975 1.350 . S
N1973 S1971 1.610 . S
N1973 C1974 1.351 . S
C1974 C1968 1.428 . S
C1974 N1973 1.351 . S
C1974 C1975 1.434 . S
C1975 C1966 1.429 . S
C1975 N1972 1.350 . S
C1975 C1974 1.434 . S
C1976 C1977 1.369 . S
C1976 C1978 1.419 . S
C1976 H1980 0.930 . S
C1977 C1976 1.369 . S
C1977 C1986 1.429 . S
C1978 C1976 1.419 . S
C1978 C1979 1.363 . S
C1978 H1981 0.929 . S
C1979 C1978 1.363 . S
C1979 C1985 1.428 . S
H1980 C1976 0.930 . S
H1981 C1978 0.929 . S
S1982 N1983 1.613 . S
S1982 N1984 1.610 . S
N1983 S1982 1.613 . S
N1983 C1986 1.350 . S
N1984 S1982 1.610 . S
N1984 C1985 1.351 . S
C1985 C1979 1.428 . S
C1985 N1984 1.351 . S
C1985 C1986 1.434 . S
C1986 C1977 1.429 . S
C1986 N1983 1.350 . S
C1986 C1985 1.434 . S
C1987 C1988 1.369 . S
C1987 C1989 1.419 . S
C1987 H1991 0.930 . S
C1988 C1987 1.369 . S
C1988 C1997 1.429 . S
C1989 C1987 1.419 . S
C1989 C1990 1.363 . S
C1989 H1992 0.929 . S
C1990 C1989 1.363 . S
C1990 C1996 1.428 . S
H1991 C1987 0.930 . S
H1992 C1989 0.929 . S
S1993 N1994 1.613 . S
S1993 N1995 1.610 . S
N1994 S1993 1.613 . S
N1994 C1997 1.350 . S
N1995 S1993 1.610 . S
N1995 C1996 1.351 . S
C1996 C1990 1.428 . S
C1996 N1995 1.351 . S
C1996 C1997 1.434 . S
C1997 C1988 1.429 . S
C1997 N1994 1.350 . S
C1997 C1996 1.434 . S
C1998 C1999 1.369 . S
C1998 C2000 1.419 . S
C1998 H2002 0.930 . S
C1999 C1998 1.369 . S
C1999 C2008 1.429 . S
C2000 C1998 1.419 . S
C2000 C2001 1.363 . S
C2000 H2003 0.929 . S
C2001 C2000 1.363 . S
C2001 C2007 1.428 . S
H2002 C1998 0.930 . S
H2003 C2000 0.929 . S
S2004 N2005 1.613 . S
S2004 N2006 1.610 . S
N2005 S2004 1.613 . S
N2005 C2008 1.350 . S
N2006 S2004 1.610 . S
N2006 C2007 1.351 . S
C2007 C2001 1.428 . S
C2007 N2006 1.351 . S
C2007 C2008 1.434 . S
C2008 C1999 1.429 . S
C2008 N2005 1.350 . S
C2008 C2007 1.434 . S
C2009 C2010 1.369 . S
C2009 C2011 1.419 . S
C2009 H2013 0.930 . S
C2010 C2009 1.369 . S
C2010 C2019 1.429 . S
C2011 C2009 1.419 . S
C2011 C2012 1.363 . S
C2011 H2014 0.929 . S
C2012 C2011 1.363 . S
C2012 C2018 1.428 . S
H2013 C2009 0.930 . S
H2014 C2011 0.929 . S
S2015 N2016 1.613 . S
S2015 N2017 1.610 . S
N2016 S2015 1.613 . S
N2016 C2019 1.350 . S
N2017 S2015 1.610 . S
N2017 C2018 1.351 . S
C2018 C2012 1.428 . S
C2018 N2017 1.351 . S
C2018 C2019 1.434 . S
C2019 C2010 1.429 . S
C2019 N2016 1.350 . S
C2019 C2018 1.434 . S
C2020 C2021 1.369 . S
C2020 C2022 1.419 . S
C2020 H2024 0.930 . S
C2021 C2020 1.369 . S
C2021 C2030 1.429 . S
C2022 C2020 1.419 . S
C2022 C2023 1.363 . S
C2022 H2025 0.929 . S
C2023 C2022 1.363 . S
C2023 C2029 1.428 . S
H2024 C2020 0.930 . S
H2025 C2022 0.929 . S
S2026 N2027 1.613 1_554 S
S2026 N2028 1.610 . S
N2027 S2026 1.613 1_556 S
N2027 C2030 1.350 . S
N2028 S2026 1.610 . S
N2028 C2029 1.351 1_554 S
C2029 C2023 1.428 . S
C2029 N2028 1.351 1_556 S
C2029 C2030 1.434 . S
C2030 C2021 1.429 . S
C2030 N2027 1.350 . S
C2030 C2029 1.434 . S
C2031 C2032 1.369 . S
C2031 C2033 1.419 . S
C2031 H2035 0.930 . S
C2032 C2031 1.369 . S
C2032 C2041 1.429 . S
C2033 C2031 1.419 . S
C2033 C2034 1.363 . S
C2033 H2036 0.929 . S
C2034 C2033 1.363 . S
C2034 C2040 1.428 . S
H2035 C2031 0.930 . S
H2036 C2033 0.929 . S
S2037 N2038 1.613 . S
S2037 N2039 1.610 . S
N2038 S2037 1.613 . S
N2038 C2041 1.350 . S
N2039 S2037 1.610 . S
N2039 C2040 1.351 . S
C2040 C2034 1.428 . S
C2040 N2039 1.351 . S
C2040 C2041 1.434 . S
C2041 C2032 1.429 . S
C2041 N2038 1.350 . S
C2041 C2040 1.434 . S
C2042 C2043 1.369 . S
C2042 C2044 1.419 . S
C2042 H2046 0.924 1_455 S
C2043 C2042 1.369 . S
C2043 C2052 1.429 . S
C2044 C2042 1.419 . S
C2044 C2045 1.363 . S
C2044 H2047 0.929 1_455 S
C2045 C2044 1.363 . S
C2045 C2051 1.428 . S
H2046 C2042 0.924 1_655 S
H2047 C2044 0.929 1_655 S
S2048 N2049 1.613 . S
S2048 N2050 1.610 . S
N2049 S2048 1.613 . S
N2049 C2052 1.350 . S
N2050 S2048 1.610 . S
N2050 C2051 1.351 . S
C2051 C2045 1.428 . S
C2051 N2050 1.351 . S
C2051 C2052 1.434 . S
C2052 C2043 1.429 . S
C2052 N2049 1.350 . S
C2052 C2051 1.434 . S
C2053 C2054 1.369 . S
C2053 C2055 1.419 . S
C2053 H2057 0.930 . S
C2054 C2053 1.369 . S
C2054 C2063 1.429 . S
C2055 C2053 1.419 . S
C2055 C2056 1.363 . S
C2055 H2058 0.929 . S
C2056 C2055 1.363 . S
C2056 C2062 1.428 . S
H2057 C2053 0.930 . S
H2058 C2055 0.929 . S
S2059 N2060 1.613 . S
S2059 N2061 1.610 . S
N2060 S2059 1.613 . S
N2060 C2063 1.350 . S
N2061 S2059 1.610 . S
N2061 C2062 1.351 . S
C2062 C2056 1.428 . S
C2062 N2061 1.351 . S
C2062 C2063 1.434 . S
C2063 C2054 1.429 . S
C2063 N2060 1.350 . S
C2063 C2062 1.434 . S
C2064 C2065 1.369 . S
C2064 C2066 1.419 . S
C2064 H2068 0.930 . S
C2065 C2064 1.369 . S
C2065 C2074 1.429 . S
C2066 C2064 1.419 . S
C2066 C2067 1.363 . S
C2066 H2069 0.929 . S
C2067 C2066 1.363 . S
C2067 C2073 1.428 . S
H2068 C2064 0.930 . S
H2069 C2066 0.929 . S
S2070 N2071 1.613 . S
S2070 N2072 1.610 . S
N2071 S2070 1.613 . S
N2071 C2074 1.350 . S
N2072 S2070 1.610 . S
N2072 C2073 1.351 . S
C2073 C2067 1.428 . S
C2073 N2072 1.351 . S
C2073 C2074 1.434 . S
C2074 C2065 1.429 . S
C2074 N2071 1.350 . S
C2074 C2073 1.434 . S
C2075 C2076 1.369 . S
C2075 C2077 1.419 . S
C2075 H2079 0.930 . S
C2076 C2075 1.369 . S
C2076 C2085 1.429 . S
C2077 C2075 1.419 . S
C2077 C2078 1.363 . S
C2077 H2080 0.929 . S
C2078 C2077 1.363 . S
C2078 C2084 1.428 . S
H2079 C2075 0.930 . S
H2080 C2077 0.929 . S
S2081 N2082 1.613 . S
S2081 N2083 1.610 . S
N2082 S2081 1.613 . S
N2082 C2085 1.350 . S
N2083 S2081 1.610 . S
N2083 C2084 1.351 . S
C2084 C2078 1.428 . S
C2084 N2083 1.351 . S
C2084 C2085 1.434 . S
C2085 C2076 1.429 . S
C2085 N2082 1.350 . S
C2085 C2084 1.434 . S
C2086 C2087 1.369 . S
C2086 C2088 1.419 1_655 S
C2086 H2090 0.930 . S
C2087 C2086 1.369 . S
C2087 C2096 1.429 . S
C2088 C2086 1.419 1_455 S
C2088 C2089 1.363 1_455 S
C2088 H2091 0.929 . S
C2089 C2088 1.363 1_655 S
C2089 C2095 1.428 . S
H2090 C2086 0.930 . S
H2091 C2088 0.929 . S
S2092 N2093 1.613 . S
S2092 N2094 1.610 . S
N2093 S2092 1.613 . S
N2093 C2096 1.350 . S
N2094 S2092 1.610 . S
N2094 C2095 1.351 . S
C2095 C2089 1.428 . S
C2095 N2094 1.351 . S
C2095 C2096 1.434 . S
C2096 C2087 1.429 . S
C2096 N2093 1.350 . S
C2096 C2095 1.434 . S
C2097 C2098 1.369 . S
C2097 C2099 1.419 . S
C2097 H2101 0.930 . S
C2098 C2097 1.369 . S
C2098 C2107 1.429 . S
C2099 C2097 1.419 . S
C2099 C2100 1.363 . S
C2099 H2102 0.929 . S
C2100 C2099 1.363 . S
C2100 C2106 1.428 . S
H2101 C2097 0.930 . S
H2102 C2099 0.929 . S
S2103 N2104 1.613 . S
S2103 N2105 1.610 . S
N2104 S2103 1.613 . S
N2104 C2107 1.350 . S
N2105 S2103 1.610 . S
N2105 C2106 1.351 . S
C2106 C2100 1.428 . S
C2106 N2105 1.351 . S
C2106 C2107 1.434 . S
C2107 C2098 1.429 . S
C2107 N2104 1.350 . S
C2107 C2106 1.434 . S
C2108 C2109 1.369 . S
C2108 C2110 1.419 . S
C2108 H2112 0.930 . S
C2109 C2108 1.369 . S
C2109 C2118 1.429 . S
C2110 C2108 1.419 . S
C2110 C2111 1.363 . S
C2110 H2113 0.929 . S
C2111 C2110 1.363 . S
C2111 C2117 1.428 . S
H2112 C2108 0.930 . S
H2113 C2110 0.929 . S
S2114 N2115 1.613 . S
S2114 N2116 1.610 . S
N2115 S2114 1.613 . S
N2115 C2118 1.350 . S
N2116 S2114 1.610 . S
N2116 C2117 1.351 . S
C2117 C2111 1.428 . S
C2117 N2116 1.351 . S
C2117 C2118 1.434 . S
C2118 C2109 1.429 . S
C2118 N2115 1.350 . S
C2118 C2117 1.434 . S
C2119 C2120 1.369 . S
C2119 C2121 1.419 . S
C2119 H2123 0.930 . S
C2120 C2119 1.369 . S
C2120 C2129 1.429 . S
C2121 C2119 1.419 . S
C2121 C2122 1.363 . S
C2121 H2124 0.929 . S
C2122 C2121 1.363 . S
C2122 C2128 1.428 . S
H2123 C2119 0.930 . S
H2124 C2121 0.929 . S
S2125 N2126 1.613 . S
S2125 N2127 1.610 . S
N2126 S2125 1.613 . S
N2126 C2129 1.350 . S
N2127 S2125 1.610 . S
N2127 C2128 1.351 . S
C2128 C2122 1.428 . S
C2128 N2127 1.351 . S
C2128 C2129 1.434 . S
C2129 C2120 1.429 . S
C2129 N2126 1.350 . S
C2129 C2128 1.434 . S
C2130 C2131 1.369 . S
C2130 C2132 1.419 . S
C2130 H2134 0.930 . S
C2131 C2130 1.369 . S
C2131 C2140 1.429 . S
C2132 C2130 1.419 . S
C2132 C2133 1.363 . S
C2132 H2135 0.929 1_655 S
C2133 C2132 1.363 . S
C2133 C2139 1.428 . S
H2134 C2130 0.930 . S
H2135 C2132 0.929 1_455 S
S2136 N2137 1.613 . S
S2136 N2138 1.610 . S
N2137 S2136 1.613 . S
N2137 C2140 1.350 . S
N2138 S2136 1.610 . S
N2138 C2139 1.351 . S
C2139 C2133 1.428 . S
C2139 N2138 1.351 . S
C2139 C2140 1.434 . S
C2140 C2131 1.429 . S
C2140 N2137 1.350 . S
C2140 C2139 1.434 . S
C2141 C2142 1.369 . S
C2141 C2143 1.419 . S
C2141 H2145 0.930 . S
C2142 C2141 1.369 . S
C2142 C2151 1.429 . S
C2143 C2141 1.419 . S
C2143 C2144 1.363 . S
C2143 H2146 0.929 . S
C2144 C2143 1.363 . S
C2144 C2150 1.428 . S
H2145 C2141 0.930 . S
H2146 C2143 0.929 . S
S2147 N2148 1.613 . S
S2147 N2149 1.610 . S
N2148 S2147 1.613 . S
N2148 C2151 1.350 . S
N2149 S2147 1.610 . S
N2149 C2150 1.351 . S
C2150 C2144 1.428 . S
C2150 N2149 1.351 . S
C2150 C2151 1.434 . S
C2151 C2142 1.429 . S
C2151 N2148 1.350 . S
C2151 C2150 1.434 . S
C2152 C2153 1.369 . S
C2152 C2154 1.419 . S
C2152 H2156 0.930 . S
C2153 C2152 1.369 . S
C2153 C2162 1.429 . S
C2154 C2152 1.419 . S
C2154 C2155 1.363 . S
C2154 H2157 0.929 . S
C2155 C2154 1.363 . S
C2155 C2161 1.428 . S
H2156 C2152 0.930 . S
H2157 C2154 0.929 . S
S2158 N2159 1.613 . S
S2158 N2160 1.610 . S
N2159 S2158 1.613 . S
N2159 C2162 1.350 . S
N2160 S2158 1.610 . S
N2160 C2161 1.351 . S
C2161 C2155 1.428 . S
C2161 N2160 1.351 . S
C2161 C2162 1.434 . S
C2162 C2153 1.429 . S
C2162 N2159 1.350 . S
C2162 C2161 1.434 . S
C2163 C2164 1.369 . S
C2163 C2165 1.419 . S
C2163 H2167 0.930 . S
C2164 C2163 1.369 . S
C2164 C2173 1.429 . S
C2165 C2163 1.419 . S
C2165 C2166 1.363 . S
C2165 H2168 0.929 1_565 S
C2166 C2165 1.363 . S
C2166 C2172 1.428 . S
H2167 C2163 0.930 . S
H2168 C2165 0.929 1_545 S
S2169 N2170 1.613 . S
S2169 N2171 1.610 . S
N2170 S2169 1.613 . S
N2170 C2173 1.350 . S
N2171 S2169 1.610 . S
N2171 C2172 1.351 . S
C2172 C2166 1.428 . S
C2172 N2171 1.351 . S
C2172 C2173 1.434 . S
C2173 C2164 1.429 . S
C2173 N2170 1.350 . S
C2173 C2172 1.434 . S
C2174 C2175 1.369 . S
C2174 C2176 1.419 . S
C2174 H2178 0.930 . S
C2175 C2174 1.369 . S
C2175 C2184 1.429 . S
C2176 C2174 1.419 . S
C2176 C2177 1.363 . S
C2176 H2179 0.929 . S
C2177 C2176 1.363 . S
C2177 C2183 1.428 . S
H2178 C2174 0.930 . S
H2179 C2176 0.929 . S
S2180 N2181 1.613 . S
S2180 N2182 1.610 . S
N2181 S2180 1.613 . S
N2181 C2184 1.350 . S
N2182 S2180 1.610 . S
N2182 C2183 1.351 . S
C2183 C2177 1.428 . S
C2183 N2182 1.351 . S
C2183 C2184 1.434 . S
C2184 C2175 1.429 . S
C2184 N2181 1.350 . S
C2184 C2183 1.434 . S
C2185 C2186 1.369 . S
C2185 C2187 1.419 . S
C2185 H2189 0.930 . S
C2186 C2185 1.369 . S
C2186 C2195 1.429 . S
C2187 C2185 1.419 . S
C2187 C2188 1.363 . S
C2187 H2190 0.929 . S
C2188 C2187 1.363 . S
C2188 C2194 1.428 . S
H2189 C2185 0.930 . S
H2190 C2187 0.929 . S
S2191 N2192 1.613 . S
S2191 N2193 1.610 . S
N2192 S2191 1.613 . S
N2192 C2195 1.350 1_556 S
N2193 S2191 1.610 . S
N2193 C2194 1.351 1_556 S
C2194 C2188 1.428 . S
C2194 N2193 1.351 1_554 S
C2194 C2195 1.434 . S
C2195 C2186 1.429 . S
C2195 N2192 1.350 1_554 S
C2195 C2194 1.434 . S
C2196 C2197 1.369 . S
C2196 C2198 1.419 . S
C2196 H2200 0.930 . S
C2197 C2196 1.369 . S
C2197 C2206 1.429 . S
C2198 C2196 1.419 . S
C2198 C2199 1.363 . S
C2198 H2201 0.929 . S
C2199 C2198 1.363 . S
C2199 C2205 1.428 . S
H2200 C2196 0.930 . S
H2201 C2198 0.929 . S
S2202 N2203 1.613 . S
S2202 N2204 1.610 . S
N2203 S2202 1.613 . S
N2203 C2206 1.350 . S
N2204 S2202 1.610 . S
N2204 C2205 1.351 . S
C2205 C2199 1.428 . S
C2205 N2204 1.351 . S
C2205 C2206 1.434 . S
C2206 C2197 1.429 . S
C2206 N2203 1.350 . S
C2206 C2205 1.434 . S
C2207 C2208 1.369 . S
C2207 C2209 1.419 . S
C2207 H2211 0.930 . S
C2208 C2207 1.369 . S
C2208 C2217 1.429 . S
C2209 C2207 1.419 . S
C2209 C2210 1.363 . S
C2209 H2212 0.929 . S
C2210 C2209 1.363 . S
C2210 C2216 1.428 . S
H2211 C2207 0.930 . S
H2212 C2209 0.929 . S
S2213 N2214 1.613 . S
S2213 N2215 1.610 . S
N2214 S2213 1.613 . S
N2214 C2217 1.350 1_556 S
N2215 S2213 1.610 . S
N2215 C2216 1.351 1_556 S
C2216 C2210 1.428 . S
C2216 N2215 1.351 1_554 S
C2216 C2217 1.434 . S
C2217 C2208 1.429 . S
C2217 N2214 1.350 1_554 S
C2217 C2216 1.434 . S
C2218 C2219 1.369 . S
C2218 C2220 1.419 . S
C2218 H2222 0.930 . S
C2219 C2218 1.369 . S
C2219 C2228 1.429 . S
C2220 C2218 1.419 . S
C2220 C2221 1.363 . S
C2220 H2223 0.929 . S
C2221 C2220 1.363 . S
C2221 C2227 1.428 . S
H2222 C2218 0.930 . S
H2223 C2220 0.929 . S
S2224 N2225 1.613 . S
S2224 N2226 1.610 . S
N2225 S2224 1.613 . S
N2225 C2228 1.350 . S
N2226 S2224 1.610 . S
N2226 C2227 1.351 . S
C2227 C2221 1.428 . S
C2227 N2226 1.351 . S
C2227 C2228 1.434 . S
C2228 C2219 1.429 . S
C2228 N2225 1.350 . S
C2228 C2227 1.434 . S
C2229 C2230 1.369 . S
C2229 C2231 1.419 . S
C2229 H2233 0.930 . S
C2230 C2229 1.369 . S
C2230 C2239 1.429 . S
C2231 C2229 1.419 . S
C2231 C2232 1.363 . S
C2231 H2234 0.929 . S
C2232 C2231 1.363 . S
C2232 C2238 1.428 . S
H2233 C2229 0.930 . S
H2234 C2231 0.929 . S
S2235 N2236 1.613 . S
S2235 N2237 1.610 . S
N2236 S2235 1.613 . S
N2236 C2239 1.350 . S
N2237 S2235 1.610 . S
N2237 C2238 1.351 . S
C2238 C2232 1.428 . S
C2238 N2237 1.351 . S
C2238 C2239 1.434 . S
C2239 C2230 1.429 . S
C2239 N2236 1.350 . S
C2239 C2238 1.434 . S
C1185 C255 1.494 . S
C1187 C868 1.270 1_556 S
C1196 C147 1.522 . S
C1198 C903 1.496 . S
C1207 C184 1.190 . S
C1209 C908 1.081 . S
C1220 C933 1.368 . S
C1218 C220 1.440 . S
C1229 C40 1.411 . S
C1231 C953 1.317 . S
C1242 C968 1.137 . S
C1240 C74 1.256 . S
C1253 C1003 1.537 . S
C1251 C110 1.567 . S
C1262 C14 1.481 . S
C1264 C1008 1.251 . S
C1275 C883 1.634 1_655 S
C1273 C579 1.723 . S
C1284 C616 1.158 . S
C1286 C893 1.090 . S
C1297 C923 1.478 . S
C1295 C687 1.512 . S
C1308 C928 1.206 . S
C1306 C436 1.315 . S
C1317 C580 1.297 . S
C1319 C948 1.181 . S
C1330 C983 1.461 . S
C1328 C615 1.496 . S
C1341 C993 1.095 . S
C1339 C688 1.178 . S
C1352 C1023 1.618 . S
C1350 C435 1.711 . S
C1363 C873 1.363 . S
C1361 C410 1.524 . S
C1372 C722 1.819 . S
C1374 C1043 1.806 . S
C1385 C1053 1.534 . S
C1383 C842 1.660 . S
C1396 C1068 1.101 . S
C1394 C794 1.194 . S
C1405 C302 1.594 . S
C1407 C1013 1.395 . S
C1416 C338 1.626 . S
C1418 C913 1.513 . S
C1427 C830 1.844 . S
C1429 C1103 1.840 . S
C1440 C1108 1.125 . S
C1438 C758 1.203 . S
C1451 C866 1.265 . S
C1449 C158 1.409 . S
C1462 C1122 1.494 . S
C1460 C254 1.529 . S
C1471 C218 1.219 . S
C1473 C906 1.079 . S
C1482 C194 1.373 . S
C1484 C1096 1.350 . S
C1495 C956 1.308 . S
C1493 C3 1.406 . S
C1504 C111 1.159 . S
C1506 C1046 1.038 . S
C1517 C1002 1.501 1_556 S
C1515 C76 1.528 . S
C1528 C1126 1.285 . S
C1526 C50 1.427 . S
C1539 C882 1.607 . S
C1537 C364 1.740 . S
C1550 C1116 1.070 . S
C1548 C795 1.169 . S
C1559 C292 1.460 . S
C1561 C922 1.423 . S
C1570 C723 1.279 . S
C1572 C1086 1.156 . S
C1581 C363 1.286 . S
C1583 C946 1.172 . S
C1594 C1062 1.456 . S
C1592 C796 1.483 . S
C1603 C291 1.154 . S
C1605 C996 1.078 . S
C1614 C724 1.745 . S
C1616 C1142 1.626 . S
C1625 C482 1.455 . S
C1627 C876 1.366 . S
C1636 C434 1.798 . S
C1638 C1042 1.798 . S
C1647 C662 1.512 . S
C1649 C976 1.506 . S
C1658 C614 1.192 . S
C1660 C1066 1.096 . S
C1671 C1136 1.381 . S
C1669 C698 1.437 . S
C1680 C554 1.503 . S
C1682 C916 1.499 . S
C1693 C942 1.789 . S
C1691 C650 1.796 . S
C1704 C886 1.090 . S
C1702 C506 1.212 . S
C1713 C183 1.490 . S
C1715 C1148 1.278 . S
C1726 C1123 1.495 . S
C1724 C219 1.520 . S
C1735 C256 1.187 . S
C1737 C1168 1.080 . S
C1746 C148 1.439 . S
C1748 C1093 1.365 . S
C1757 C122 1.457 . S
C1759 C1033 1.391 . S
C1770 C1048 1.091 . S
C1768 C2 1.201 . S
C1781 C1083 1.436 . S
C1779 C39 1.462 . S
C1792 C1128 1.285 . S
C1790 C86 1.518 . S
C1803 C1163 1.653 . S
C1801 C651 1.730 . S
C1812 C472 1.162 . S
C1814 C1113 1.104 . S
C1825 C1183 1.467 . S
C1823 C507 1.499 . S
C1836 C1088 1.210 . S
C1834 C544 1.316 . S
C1847 C1028 1.180 . S
C1845 C652 1.298 . S
C1856 C471 1.476 . S
C1858 C1063 1.435 . S
C1869 C1073 1.083 . S
C1867 C508 1.160 . S
C1878 C543 1.720 . S
C1880 C1143 1.633 . S
C1891 C1153 1.368 . S
C1889 C806 1.546 . S
C1900 C326 1.794 . S
C1902 C963 1.786 . S
C1913 C973 1.512 . S
C1911 C374 1.639 . S
C1924 C988 1.110 . S
C1922 C398 1.221 . S
C1935 C1133 1.375 . S
C1933 C770 1.567 . S
C1944 C734 1.615 1_554 S
C1946 C1173 1.504 . S
C1957 C943 1.831 . S
C1955 C362 1.832 . S
C1968 C888 1.137 . S
C1966 C290 1.218 . S
C1977 C230 1.403 . S
C1979 C1146 1.272 . S
C1990 C902 1.502 . S
C1988 C182 1.534 . S
C1999 C146 1.213 . S
C2001 C1166 1.087 . S
C2010 C266 1.372 . S
C2012 C936 1.345 . S
C2021 C75 1.451 . S
C2023 C1036 1.364 . S
C2034 C966 1.111 . S
C2032 C38 1.243 . S
C2043 C4 1.460 . S
C2045 C1082 1.434 . S
C2054 C112 1.535 . S
C2056 C1006 1.250 . S
C2067 C1162 1.612 . S
C2065 C832 1.740 . S
C2076 C399 1.179 . S
C2078 C896 1.074 . S
C2089 C1182 1.421 1_655 S
C2087 C760 1.457 . S
C2098 C327 1.275 . S
C2100 C926 1.163 . S
C2109 C831 1.308 . S
C2111 C1026 1.180 . S
C2122 C982 1.441 . S
C2120 C400 1.478 . S
C2131 C759 1.173 . S
C2133 C1076 1.083 . S
C2144 C1022 1.623 . S
C2142 C328 1.737 . S
C2155 C1156 1.381 . S
C2153 C626 1.458 . S
C2166 C962 1.792 . S
C2164 C542 1.797 . S
C2175 C590 1.485 . S
C2177 C1056 1.494 . S
C2188 C986 1.090 . S
C2186 C470 1.187 . S
C2197 C518 1.410 . S
C2199 C1016 1.360 . S
C2208 C446 1.492 . S
C2210 C1176 1.484 . S
C2221 C1102 1.797 . S
C2219 C578 1.805 . S
C2232 C1106 1.073 . S
C2230 C686 1.195 . S
