# Generated by pormake.
# Topology pyr, (3,6)-cn, num edge types: 1
# Building blocks:
#     Node 0, Type 0, BuildingBlock: OLANEW_clean_sbu_2, # of connection points: 3
#     Node 1, Type 0, BuildingBlock: OLANEW_clean_sbu_2, # of connection points: 3
#     Node 2, Type 0, BuildingBlock: OLANEW_clean_sbu_2, # of connection points: 3
#     Node 3, Type 0, BuildingBlock: OLANEW_clean_sbu_2, # of connection points: 3
#     Node 4, Type 0, BuildingBlock: OLANEW_clean_sbu_2, # of connection points: 3
#     Node 5, Type 0, BuildingBlock: OLANEW_clean_sbu_2, # of connection points: 3
#     Node 6, Type 0, BuildingBlock: OLANEW_clean_sbu_2, # of connection points: 3
#     Node 7, Type 0, BuildingBlock: OLANEW_clean_sbu_2, # of connection points: 3
#     Node 8, Type 1, BuildingBlock: GEDQOX_clean_sbu_0, # of connection points: 6
#     Node 9, Type 1, BuildingBlock: GEDQOX_clean_sbu_0, # of connection points: 6
#     Node 10, Type 1, BuildingBlock: GEDQOX_clean_sbu_0, # of connection points: 6
#     Node 11, Type 1, BuildingBlock: GEDQOX_clean_sbu_0, # of connection points: 6
#     Edge 12, Type (0, 1), BuildingBlock: XIVTED_clean_linker_0, # of connection points: 2
#     Edge 13, Type (0, 1), BuildingBlock: XIVTED_clean_linker_0, # of connection points: 2
#     Edge 14, Type (0, 1), BuildingBlock: XIVTED_clean_linker_0, # of connection points: 2
#     Edge 15, Type (0, 1), BuildingBlock: XIVTED_clean_linker_0, # of connection points: 2
#     Edge 16, Type (0, 1), BuildingBlock: XIVTED_clean_linker_0, # of connection points: 2
#     Edge 17, Type (0, 1), BuildingBlock: XIVTED_clean_linker_0, # of connection points: 2
#     Edge 18, Type (0, 1), BuildingBlock: XIVTED_clean_linker_0, # of connection points: 2
#     Edge 19, Type (0, 1), BuildingBlock: XIVTED_clean_linker_0, # of connection points: 2
#     Edge 20, Type (0, 1), BuildingBlock: XIVTED_clean_linker_0, # of connection points: 2
#     Edge 21, Type (0, 1), BuildingBlock: XIVTED_clean_linker_0, # of connection points: 2
#     Edge 22, Type (0, 1), BuildingBlock: XIVTED_clean_linker_0, # of connection points: 2
#     Edge 23, Type (0, 1), BuildingBlock: XIVTED_clean_linker_0, # of connection points: 2
#     Edge 24, Type (0, 1), BuildingBlock: XIVTED_clean_linker_0, # of connection points: 2
#     Edge 25, Type (0, 1), BuildingBlock: XIVTED_clean_linker_0, # of connection points: 2
#     Edge 26, Type (0, 1), BuildingBlock: XIVTED_clean_linker_0, # of connection points: 2
#     Edge 27, Type (0, 1), BuildingBlock: XIVTED_clean_linker_0, # of connection points: 2
#     Edge 28, Type (0, 1), BuildingBlock: XIVTED_clean_linker_0, # of connection points: 2
#     Edge 29, Type (0, 1), BuildingBlock: XIVTED_clean_linker_0, # of connection points: 2
#     Edge 30, Type (0, 1), BuildingBlock: XIVTED_clean_linker_0, # of connection points: 2
#     Edge 31, Type (0, 1), BuildingBlock: XIVTED_clean_linker_0, # of connection points: 2
#     Edge 32, Type (0, 1), BuildingBlock: XIVTED_clean_linker_0, # of connection points: 2
#     Edge 33, Type (0, 1), BuildingBlock: XIVTED_clean_linker_0, # of connection points: 2
#     Edge 34, Type (0, 1), BuildingBlock: XIVTED_clean_linker_0, # of connection points: 2
#     Edge 35, Type (0, 1), BuildingBlock: XIVTED_clean_linker_0, # of connection points: 2
# Relax obj value: 0.175
# Max RMSD: 0.181
# Mean RMSD: 0.131
data_MOF--net-pyr--node1-OLANEW_clean_sbu_2--node2-GEDQOX_clean_sbu_0--edge1-XIVTED_clean_linker_0
_symmetry_space_group_name_H-M    P1
_symmetry_Int_Tables_number       1
_symmetry_cell_setting            triclinic
loop_
_symmetry_equiv_pos_as_xyz
'x, y, z'
_cell_length_a     43.513917
_cell_length_b     43.248179
_cell_length_c     37.724818
_cell_angle_alpha  94.040095
_cell_angle_beta   94.253666
_cell_angle_gamma 95.312273
loop_
_atom_site_label
_atom_site_type_symbol
_atom_site_fract_x
_atom_site_fract_y
_atom_site_fract_z
_atom_type_partial_charge
O0 O 0.25319 0.17008 0.15759 0.0
Cd1 Cd 0.2082 0.20859 0.1506 0.0
O2 O 0.25254 0.1359 0.20059 0.0
Cd3 Cd 0.21807 0.12645 0.24523 0.0
O4 O 0.18759 0.11438 0.29287 0.0
C5 C 0.18243 0.08723 0.30461 0.0
O6 O 0.19499 0.06404 0.28879 0.0
C7 C 0.26516 0.14785 0.17379 0.0
C8 C 0.18533 0.26526 0.12174 0.0
O9 O 0.194 0.26397 0.15487 0.0
O10 O 0.18929 0.24115 0.10122 0.0
O11 O 0.39842 0.77705 0.85376 0.0
Cd12 Cd 0.37136 0.73263 0.81645 0.0
O13 O 0.35272 0.79138 0.86487 0.0
Cd14 Cd 0.32456 0.75437 0.83219 0.0
O15 O 0.28213 0.76061 0.80141 0.0
C16 C 0.27008 0.78404 0.8145 0.0
O17 O 0.28323 0.79894 0.84412 0.0
C18 C 0.38205 0.79617 0.86887 0.0
C19 C 0.40754 0.70024 0.77239 0.0
O20 O 0.39745 0.72576 0.76356 0.0
O21 O 0.40097 0.69028 0.8024 0.0
O22 O 0.77781 0.49984 0.91037 0.0
Cd23 Cd 0.72325 0.50647 0.89943 0.0
O24 O 0.76462 0.44989 0.90021 0.0
Cd25 Cd 0.76825 0.40018 0.90194 0.0
O26 O 0.74339 0.35522 0.90842 0.0
C27 C 0.73446 0.35053 0.93905 0.0
O28 O 0.7425 0.37182 0.96552 0.0
C29 C 0.78541 0.47218 0.90938 0.0
C30 C 0.70244 0.50721 0.82821 0.0
O31 O 0.71349 0.53231 0.8467 0.0
O32 O 0.70212 0.48148 0.84318 0.0
O33 O 0.8589 0.84414 0.33168 0.0
Cd34 Cd 0.83455 0.82141 0.27475 0.0
O35 O 0.88958 0.80666 0.32953 0.0
Cd36 Cd 0.92049 0.77669 0.35519 0.0
O37 O 0.90255 0.74222 0.38911 0.0
C38 C 0.89405 0.75292 0.41862 0.0
O39 O 0.90079 0.78266 0.42848 0.0
C40 C 0.8808 0.83054 0.34597 0.0
C41 C 0.8694 0.77394 0.25449 0.0
O42 O 0.87509 0.80133 0.24414 0.0
O43 O 0.84639 0.76874 0.27329 0.0
O44 O 0.89165 0.86973 0.85835 0.0
Cd45 Cd 0.91003 0.81778 0.8854 0.0
O46 O 0.85903 0.90743 0.85711 0.0
Cd47 Cd 0.8154 0.921 0.88722 0.0
O48 O 0.76875 0.93716 0.9085 0.0
C49 C 0.76491 0.95124 0.93899 0.0
O50 O 0.78937 0.95775 0.96178 0.0
C51 C 0.88275 0.8948 0.84533 0.0
C52 C 0.93955 0.76369 0.91046 0.0
O53 O 0.93147 0.76583 0.87725 0.0
O54 O 0.9348 0.78696 0.93185 0.0
O55 O 0.72247 0.24875 0.26241 0.0
Cd56 Cd 0.75913 0.28696 0.29834 0.0
O57 O 0.68504 0.2796 0.25874 0.0
Cd58 Cd 0.70732 0.31726 0.29644 0.0
O59 O 0.70072 0.35695 0.33331 0.0
C60 C 0.67639 0.36983 0.325 0.0
O61 O 0.65935 0.3592 0.2957 0.0
C62 C 0.69546 0.25379 0.25034 0.0
C63 C 0.801 0.25759 0.34057 0.0
O64 O 0.77659 0.26707 0.35298 0.0
O65 O 0.80579 0.26216 0.30816 0.0
O66 O 0.4259 0.65159 0.18138 0.0
Cd67 Cd 0.40514 0.6003 0.19511 0.0
O68 O 0.3812 0.66188 0.19924 0.0
Cd69 Cd 0.34134 0.6885 0.20095 0.0
O70 O 0.29467 0.67265 0.17912 0.0
C71 C 0.28951 0.66752 0.14552 0.0
O72 O 0.31157 0.67532 0.12493 0.0
C73 C 0.40665 0.67124 0.18735 0.0
C74 C 0.42475 0.59182 0.26479 0.0
O75 O 0.43872 0.58085 0.23866 0.0
O76 O 0.40104 0.60654 0.25796 0.0
O77 O 0.1922 0.25152 0.69051 0.0
Cd78 Cd 0.2216 0.22576 0.64818 0.0
O79 O 0.23201 0.24886 0.72927 0.0
Cd80 Cd 0.25083 0.25057 0.78555 0.0
O81 O 0.22043 0.20798 0.77474 0.0
C82 C 0.19156 0.20573 0.77864 0.0
O83 O 0.17986 0.22757 0.79788 0.0
C84 C 0.20596 0.25886 0.72121 0.0
C85 C 0.2649 0.27496 0.6414 0.0
O86 O 0.23985 0.27062 0.62081 0.0
O87 O 0.27063 0.2544 0.6632 0.0
Nd88 Nd 0.04606 0.9856 0.57855 0.0
Nd89 Nd 1.00377 0.03197 0.57512 0.0
C90 C 0.07473 0.93503 0.58291 0.0
C91 C 0.0896 0.91915 0.61141 0.0
C92 C 0.08072 0.88754 0.61415 0.0
C93 C 0.0958 0.87152 0.63982 0.0
C94 C 0.12021 0.88688 0.66281 0.0
C95 C 0.12832 0.91886 0.66082 0.0
C96 C 0.11297 0.93496 0.63547 0.0
C97 C 0.06927 0.04102 0.61541 0.0
C98 C 0.99455 0.98718 0.63963 0.0
C99 C 0.97654 0.08361 0.57055 0.0
C100 C 0.96556 0.10259 0.54261 0.0
C101 C 0.96765 0.13491 0.54963 0.0
C102 C 0.95451 0.1533 0.52493 0.0
C103 C 0.93888 0.13952 0.49294 0.0
C104 C 0.93827 0.1072 0.48514 0.0
C105 C 0.95168 0.08883 0.50978 0.0
C106 C 0.98063 0.97645 0.53869 0.0
C107 C 0.05488 0.02802 0.51315 0.0
O108 O 0.0446 0.93461 0.58218 0.0
O109 O 0.08852 0.9619 0.5763 0.0
O110 O 0.08519 0.02415 0.59551 0.0
O111 O 0.04229 0.02813 0.61673 0.0
O112 O 1.01333 0.97032 0.62216 0.0
O113 O 0.98987 0.01514 0.62946 0.0
O114 O 1.00652 0.08349 0.57607 0.0
O115 O 0.96143 0.05619 0.5716 0.0
O116 O 0.96434 0.99353 0.55791 0.0
O117 O 1.00752 0.98952 0.53739 0.0
O118 O 0.0375 0.04629 0.53111 0.0
O119 O 0.05748 0.99973 0.52308 0.0
H120 H 0.06244 0.87516 0.59606 0.0
H121 H 0.08869 0.847 0.64129 0.0
H122 H 0.14724 0.93124 0.67796 0.0
H123 H 0.11994 0.95954 0.63419 0.0
H124 H 0.97868 0.14584 0.57468 0.0
H125 H 0.95589 0.17823 0.53128 0.0
H126 H 0.92624 0.09592 0.4608 0.0
H127 H 0.95023 0.06385 0.50373 0.0
Nd128 Nd 0.5151 0.02476 0.0862 0.0
Nd129 Nd 0.50973 0.05644 0.03146 0.0
C130 C 0.51819 0.98131 0.13198 0.0
C131 C 0.50248 0.94996 0.13448 0.0
C132 C 0.51556 0.92367 0.12061 0.0
C133 C 0.50118 0.89392 0.12326 0.0
C134 C 0.47341 0.88978 0.13987 0.0
C135 C 0.46012 0.91608 0.15346 0.0
C136 C 0.47457 0.94592 0.15087 0.0
C137 C 0.46504 0.0611 0.09367 0.0
C138 C 0.47714 0.98923 0.01581 0.0
C139 C 0.50573 0.10084 0.98732 0.0
C140 C 0.52793 0.12721 0.98048 0.0
C141 C 0.53397 0.15339 1.00513 0.0
C142 C 0.55661 0.17719 0.99975 0.0
C143 C 0.57387 0.17525 0.96976 0.0
C144 C 0.56761 0.1492 0.94495 0.0
C145 C 0.54477 0.1255 0.95019 0.0
C146 C 0.56004 0.02139 0.02265 0.0
C147 C 0.55468 0.08842 0.10092 0.0
O148 O 0.53651 0.98436 0.10641 0.0
O149 O 0.50173 1.00476 0.13604 0.0
O150 O 0.48838 0.06047 0.11692 0.0
O151 O 0.4697 0.04469 0.06548 0.0
O152 O 0.49644 0.9858 0.04322 0.0
O153 O 0.47281 0.01758 0.00777 0.0
O154 O 0.49433 0.10194 0.01837 0.0
O155 O 0.51322 0.07319 0.9776 0.0
O156 O 0.5372 0.02288 0.9991 0.0
O157 O 0.55512 0.03684 0.05145 0.0
O158 O 0.53632 0.09403 0.07323 0.0
O159 O 0.55417 0.05993 0.11029 0.0
H160 H 0.53714 0.92602 0.10799 0.0
H161 H 0.5123 0.87412 0.11309 0.0
H162 H 0.43857 0.91363 0.16608 0.0
H163 H 0.46393 0.96575 0.16183 0.0
H164 H 0.5215 0.15545 0.02885 0.0
H165 H 0.56047 0.19716 0.01908 0.0
H166 H 0.58078 0.14675 0.92183 0.0
H167 H 0.54073 0.10549 0.93088 0.0
Nd168 Nd 0.5306 0.52089 0.54592 0.0
Nd169 Nd 0.58155 0.57401 0.55444 0.0
C170 C 0.47794 0.48596 0.53357 0.0
C171 C 0.45359 0.47609 0.55576 0.0
C172 C 0.42422 0.46561 0.53973 0.0
C173 C 0.40141 0.45377 0.56036 0.0
C174 C 0.40785 0.45224 0.59725 0.0
C175 C 0.43696 0.46427 0.61351 0.0
C176 C 0.45973 0.47635 0.59283 0.0
C177 C 0.57562 0.51555 0.599 0.0
C178 C 0.52341 0.58237 0.59952 0.0
C179 C 0.63275 0.61123 0.56913 0.0
C180 C 0.66045 0.6225 0.55302 0.0
C181 C 0.68662 0.63379 0.57545 0.0
C182 C 0.71306 0.64621 0.56107 0.0
C183 C 0.7135 0.64768 0.52405 0.0
C184 C 0.68736 0.63557 0.50148 0.0
C185 C 0.6609 0.62292 0.51594 0.0
C186 C 0.53608 0.57825 0.50106 0.0
C187 C 0.58823 0.51289 0.50004 0.0
O188 O 0.48071 0.51569 0.52852 0.0
O189 O 0.50442 0.47458 0.54044 0.0
O190 O 0.56161 0.49173 0.57954 0.0
O191 O 0.56406 0.54016 0.59202 0.0
O192 O 0.5089 0.55835 0.57961 0.0
O193 O 0.55318 0.5903 0.59861 0.0
O194 O 0.63049 0.58189 0.57593 0.0
O195 O 0.60678 0.62064 0.5562 0.0
O196 O 0.54939 0.60246 0.52041 0.0
O197 O 0.54846 0.55438 0.5086 0.0
O198 O 0.60355 0.5357 0.52139 0.0
O199 O 0.55813 0.5065 0.50031 0.0
H200 H 0.41927 0.46561 0.51114 0.0
H201 H 0.37932 0.44416 0.54706 0.0
H202 H 0.44237 0.46339 0.6419 0.0
H203 H 0.48237 0.48492 0.60552 0.0
H204 H 0.68647 0.6333 0.60412 0.0
H205 H 0.73313 0.65479 0.57897 0.0
H206 H 0.68711 0.63659 0.47285 0.0
H207 H 0.6407 0.61403 0.49837 0.0
Nd208 Nd 0.0361 0.51055 0.05135 0.0
Nd209 Nd 0.06677 0.50545 0.98047 0.0
C210 C 0.99953 0.5167 0.10321 0.0
C211 C 0.99216 0.54385 0.12462 0.0
C212 C 0.96427 0.54284 0.14068 0.0
C213 C 0.95644 0.5692 0.1599 0.0
C214 C 0.97659 0.59682 0.16338 0.0
C215 C 1.00473 0.5976 0.14734 0.0
C216 C 1.01238 0.5713 0.12783 0.0
C217 C 0.09672 0.53424 0.0559 0.0
C218 C 0.02819 0.56673 0.99492 0.0
C219 C 0.10592 0.50578 0.93131 0.0
C220 C 0.11237 0.4803 0.90654 0.0
C221 C 0.14279 0.47759 0.89827 0.0
C222 C 0.14988 0.45098 0.8789 0.0
C223 C 0.12661 0.42671 0.86796 0.0
C224 C 0.09598 0.42985 0.87552 0.0
C225 C 0.08892 0.45647 0.89479 0.0
C226 C 1.00959 0.47018 0.97223 0.0
C227 C 0.07491 0.4503 0.03678 0.0
O228 O 0.9895 0.51534 0.06957 0.0
O229 O 0.02805 0.50984 0.10827 0.0
O230 O 0.08394 0.51944 0.08048 0.0
O231 O 0.07707 0.53787 0.03049 0.0
O232 O 0.02187 0.55602 0.02613 0.0
O233 O 0.04571 0.55197 0.97346 0.0
O234 O 0.11428 0.50228 0.96479 0.0
O235 O 0.07838 0.51547 0.9263 0.0
O236 O 0.02788 0.47264 0.94686 0.0
O237 O 0.02283 0.48525 0.99948 0.0
O238 O 0.08661 0.46534 0.01059 0.0
O239 O 0.05126 0.46046 0.05297 0.0
H240 H 0.94835 0.52185 0.13785 0.0
H241 H 0.93425 0.56818 0.17122 0.0
H242 H 0.02073 0.61852 0.14973 0.0
H243 H 0.03392 0.57243 0.11506 0.0
H244 H 0.16114 0.4956 0.90768 0.0
H245 H 0.17365 0.4492 0.87293 0.0
H246 H 0.07773 0.41132 0.86771 0.0
H247 H 0.06532 0.45791 0.90137 0.0
H248 H 0.1703 0.03149 0.33369 0.0
H249 H 0.05986 0.08626 0.48468 0.0
H250 H 0.14912 0.12682 0.34739 0.0
H251 H 0.09045 0.99459 0.47011 0.0
H252 H 0.09002 0.10235 0.43484 0.0
H253 H 0.1395 0.01878 0.38275 0.0
C254 C 0.15922 0.05 0.3469 0.0
C255 C 0.16279 0.0805 0.33567 0.0
C256 C 0.09007 0.07871 0.44253 0.0
C257 C 0.12642 0.06555 0.39351 0.0
C258 C 0.07271 0.06942 0.47106 0.0
C259 C 0.07222 0.03883 0.482 0.0
C260 C 0.10722 0.05732 0.42442 0.0
C261 C 0.08972 0.01835 0.46305 0.0
C262 C 0.14142 0.04256 0.37529 0.0
C263 C 0.14736 0.103 0.35465 0.0
N264 N 0.1062 0.02789 0.43561 0.0
N265 N 0.12997 0.09512 0.3824 0.0
H266 H 0.35426 0.84812 0.88771 0.0
H267 H 0.49681 0.93123 0.01326 0.0
H268 H 0.44233 0.80976 0.89747 0.0
H269 H 0.4263 0.98312 0.96626 0.0
H270 H 0.47461 0.88475 0.97639 0.0
H271 H 0.37758 0.89568 0.9218 0.0
C272 C 0.37852 0.84963 0.89713 0.0
C273 C 0.39638 0.82482 0.88981 0.0
C274 C 0.46402 0.90629 0.97406 0.0
C275 C 0.42312 0.87935 0.92907 0.0
C276 C 0.47654 0.93287 0.99526 0.0
C277 C 0.46328 0.96119 0.99306 0.0
C278 C 0.43762 0.90769 0.95082 0.0
C279 C 0.43723 0.96183 0.96891 0.0
C280 C 0.39182 0.87692 0.91639 0.0
C281 C 0.42773 0.82829 0.90248 0.0
N282 N 0.42505 0.93538 0.94896 0.0
N283 N 0.44006 0.85496 0.92177 0.0
H284 H 0.69672 0.55845 0.79069 0.0
H285 H 0.59596 0.46331 0.62541 0.0
H286 H 0.67584 0.45849 0.78234 0.0
H287 H 0.60577 0.56357 0.6423 0.0
H288 H 0.63053 0.4608 0.67916 0.0
H289 H 0.66895 0.5604 0.73242 0.0
C290 C 0.68656 0.53686 0.77645 0.0
C291 C 0.68846 0.50827 0.79149 0.0
C292 C 0.62525 0.48335 0.67098 0.0
C293 C 0.65652 0.51037 0.72485 0.0
C294 C 0.6056 0.48476 0.64034 0.0
C295 C 0.59791 0.51363 0.62974 0.0
C296 C 0.63736 0.51104 0.6909 0.0
C297 C 0.61102 0.54081 0.64979 0.0
C298 C 0.67062 0.53801 0.74322 0.0
C299 C 0.67487 0.48105 0.7718 0.0
N300 N 0.63005 0.53884 0.67954 0.0
N301 N 0.65931 0.4828 0.73955 0.0
H302 H 0.87007 0.71714 0.2818 0.0
H303 H 0.98425 0.6565 0.14383 0.0
H304 H 0.91437 0.77494 0.20777 0.0
H305 H 0.94758 0.60138 0.22504 0.0
H306 H 0.96342 0.70186 0.17119 0.0
H307 H 0.90198 0.67583 0.26508 0.0
C308 C 0.8865 0.72111 0.262 0.0
C309 C 0.88921 0.74924 0.24561 0.0
C310 C 0.9602 0.67993 0.18327 0.0
C311 C 0.9258 0.70226 0.22653 0.0
C312 C 0.97228 0.65406 0.1678 0.0
C313 C 0.9673 0.62509 0.182 0.0
C314 C 0.94274 0.67664 0.21283 0.0
C315 C 0.9513 0.62318 0.2128 0.0
C316 C 0.90485 0.69762 0.25265 0.0
C317 C 0.9113 0.75344 0.22071 0.0
N318 N 0.93924 0.64857 0.22698 0.0
N319 N 0.92856 0.73003 0.21164 0.0
H320 H 0.29117 0.15339 0.10861 0.0
H321 H 0.44519 0.0706 0.16051 0.0
H322 H 0.30673 0.11196 0.2081 0.0
H323 H 0.4146 0.0789 0.05074 0.0
H324 H 0.39736 0.09044 0.17875 0.0
H325 H 0.33775 0.1317 0.08781 0.0
C326 C 0.30428 0.13989 0.12631 0.0
C327 C 0.29437 0.13486 0.16052 0.0
C328 C 0.40089 0.08796 0.15062 0.0
C329 C 0.34895 0.1098 0.13645 0.0
C330 C 0.42847 0.07659 0.14004 0.0
C331 C 0.43447 0.07273 0.10381 0.0
C332 C 0.37864 0.09662 0.12512 0.0
C333 C 0.41132 0.08111 0.07893 0.0
C334 C 0.33101 0.12731 0.11419 0.0
C335 C 0.31288 0.11676 0.18162 0.0
N336 N 0.38485 0.09284 0.08999 0.0
N337 N 0.339 0.10534 0.1695 0.0
H338 H 0.242 0.83572 0.83384 0.0
H339 H 0.13894 0.82907 0.64945 0.0
H340 H 0.23923 0.76117 0.75081 0.0
H341 H 0.1435 0.9048 0.73132 0.0
H342 H 0.17182 0.80144 0.68865 0.0
H343 H 0.20229 0.85907 0.79883 0.0
C344 C 0.23281 0.82408 0.80838 0.0
C345 C 0.24403 0.79654 0.79508 0.0
C346 C 0.16549 0.82402 0.69813 0.0
C347 C 0.19873 0.82322 0.75489 0.0
C348 C 0.1465 0.83969 0.67589 0.0
C349 C 0.13845 0.86923 0.68723 0.0
C350 C 0.17667 0.8381 0.7318 0.0
C351 C 0.14947 0.88221 0.72141 0.0
C352 C 0.21018 0.83747 0.7884 0.0
C353 C 0.23129 0.78248 0.76199 0.0
N354 N 0.16821 0.8666 0.74247 0.0
N355 N 0.2094 0.79612 0.74287 0.0
H356 H 0.82338 0.50654 0.96029 0.0
H357 H 0.97741 0.44083 0.91235 0.0
H358 H 0.8199 0.42583 0.88552 0.0
H359 H 0.96538 0.4798 0.0181 0.0
H360 H 0.92095 0.4359 0.89905 0.0
H361 H 0.87708 0.49969 0.97868 0.0
C362 C 0.83394 0.48723 0.9479 0.0
C363 C 0.81726 0.46665 0.92145 0.0
C364 C 0.93074 0.44499 0.92537 0.0
C365 C 0.87873 0.45886 0.94214 0.0
C366 C 0.96285 0.44779 0.93299 0.0
C367 C 0.976 0.46115 0.9663 0.0
C368 C 0.91195 0.45625 0.95104 0.0
C369 C 0.95621 0.46979 0.99206 0.0
C370 C 0.86447 0.48321 0.95859 0.0
C371 C 0.83196 0.44197 0.90629 0.0
N372 N 0.92519 0.46779 0.98369 0.0
N373 N 0.86215 0.43898 0.9165 0.0
H374 H 0.86588 0.69453 0.39802 0.0
H375 H 0.74802 0.70126 0.54985 0.0
H376 H 0.87009 0.76893 0.48143 0.0
H377 H 0.7413 0.62796 0.46495 0.0
H378 H 0.79476 0.72471 0.52695 0.0
H379 H 0.82266 0.66759 0.42469 0.0
C380 C 0.85807 0.70496 0.42228 0.0
C381 C 0.8715 0.7341 0.43746 0.0
C382 C 0.78314 0.70347 0.51332 0.0
C383 C 0.82192 0.7036 0.46776 0.0
C384 C 0.75655 0.69002 0.52646 0.0
C385 C 0.74104 0.66251 0.5094 0.0
C386 C 0.79419 0.68941 0.48278 0.0
C387 C 0.75256 0.64929 0.47873 0.0
C388 C 0.83327 0.68965 0.43734 0.0
C389 C 0.86035 0.74657 0.46877 0.0
N390 N 0.77856 0.6629 0.46636 0.0
N391 N 0.83603 0.73132 0.48276 0.0
H392 H 0.16928 0.2788 0.0519 0.0
H393 H 0.07616 0.42661 0.10324 0.0
H394 H 0.16452 0.31511 0.16046 0.0
H395 H 0.10871 0.4098 0.99921 0.0
H396 H 0.10309 0.38265 0.12365 0.0
H397 H 0.14243 0.32277 0.03131 0.0
C398 C 0.16281 0.29598 0.07154 0.0
C399 C 0.16974 0.29291 0.10821 0.0
C400 C 0.10425 0.38842 0.09629 0.0
C401 C 0.13798 0.34374 0.08442 0.0
C402 C 0.08863 0.41352 0.08448 0.0
C403 C 0.08984 0.42218 0.04923 0.0
C404 C 0.12092 0.37101 0.07265 0.0
C405 C 0.10695 0.40426 0.02656 0.0
C406 C 0.14736 0.32122 0.05965 0.0
C407 C 0.16016 0.31622 0.13199 0.0
N408 N 0.12146 0.37964 0.03848 0.0
N409 N 0.14479 0.34023 0.1198 0.0
H410 H 0.71501 0.33087 1.00171 0.0
H411 H 0.58903 0.19931 0.90722 0.0
H412 H 0.70443 0.30796 0.88791 0.0
H413 H 0.61488 0.20815 0.02055 0.0
H414 H 0.62964 0.24055 0.89956 0.0
H415 H 0.67664 0.28743 0.00921 0.0
C416 C 0.70477 0.31659 0.97832 0.0
C417 C 0.71294 0.32304 0.94413 0.0
C418 C 0.62645 0.23339 0.92608 0.0
C419 C 0.66884 0.27349 0.95251 0.0
C420 C 0.60336 0.20974 0.93047 0.0
C421 C 0.59847 0.20022 0.9646 0.0
C422 C 0.64465 0.24781 0.95604 0.0
C423 C 0.61741 0.21504 0.99381 0.0
C424 C 0.68287 0.29179 0.98262 0.0
C425 C 0.69889 0.30376 0.91477 0.0
N426 N 0.63959 0.23817 0.98887 0.0
N427 N 0.67737 0.27996 0.91961 0.0
H428 H 0.85293 0.85533 0.40186 0.0
H429 H 1.01074 0.93894 0.49409 0.0
H430 H 0.94196 0.83337 0.36985 0.0
H431 H 0.92185 0.9482 0.5351 0.0
H432 H 0.98732 0.89462 0.45389 0.0
H433 H 0.87837 0.88312 0.45628 0.0
C434 C 0.87786 0.85606 0.40663 0.0
C435 C 0.89546 0.84251 0.38127 0.0
C436 C 0.97302 0.9061 0.472 0.0
C437 C 0.9249 0.87484 0.44298 0.0
C438 C 0.98634 0.93147 0.49478 0.0
C439 C 0.96793 0.94773 0.51713 0.0
C440 C 0.94106 0.89723 0.47144 0.0
C441 C 0.93667 0.93674 0.51764 0.0
C442 C 0.89241 0.87184 0.43771 0.0
C443 C 0.92761 0.84363 0.38882 0.0
N444 N 0.92412 0.91248 0.49474 0.0
N445 N 0.94142 0.86012 0.41873 0.0
H446 H 0.41522 0.63821 0.77052 0.0
H447 H 0.53644 0.64283 0.62441 0.0
H448 H 0.44071 0.72193 0.71922 0.0
H449 H 0.47302 0.56127 0.63278 0.0
H450 H 0.50876 0.67175 0.66784 0.0
H451 H 0.4439 0.60883 0.72829 0.0
C452 C 0.42703 0.65041 0.75055 0.0
C453 C 0.42564 0.68248 0.74822 0.0
C454 C 0.50092 0.64755 0.66003 0.0
C455 C 0.45842 0.64928 0.70051 0.0
C456 C 0.51667 0.63107 0.63545 0.0
C457 C 0.50665 0.59983 0.62498 0.0
C458 C 0.47553 0.63239 0.67465 0.0
C459 C 0.48106 0.58551 0.63997 0.0
C460 C 0.44315 0.63364 0.72645 0.0
C461 C 0.44114 0.69719 0.72177 0.0
N462 N 0.46639 0.60192 0.66439 0.0
N463 N 0.45711 0.68047 0.69899 0.0
H464 H 0.8725 0.94887 0.8122 0.0
H465 H 1.00316 0.93281 0.67184 0.0
H466 H 0.93164 0.87427 0.80899 0.0
H467 H 0.94914 0.0113 0.67906 0.0
H468 H 0.97684 0.91118 0.72115 0.0
H469 H 0.89929 0.97161 0.76366 0.0
C470 C 0.8911 0.93713 0.80147 0.0
C471 C 0.89951 0.90929 0.81536 0.0
C472 C 0.97067 0.93316 0.7121 0.0
C473 C 0.93074 0.93572 0.75863 0.0
C474 C 0.98579 0.94565 0.68371 0.0
C475 C 0.97867 0.97417 0.67078 0.0
C476 C 0.94775 0.94895 0.72819 0.0
C477 C 0.95573 0.98937 0.68781 0.0
C478 C 0.90649 0.95029 0.77353 0.0
C479 C 0.92403 0.89562 0.79969 0.0
N480 N 0.94119 0.97664 0.71528 0.0
N481 N 0.93852 0.90881 0.77248 0.0
H482 H 0.70541 0.19262 0.23555 0.0
H483 H 0.55508 0.15198 0.09829 0.0
H484 H 0.64075 0.2596 0.2115 0.0
H485 H 0.6027 0.08222 0.15021 0.0
H486 H 0.58997 0.19263 0.13348 0.0
H487 H 0.67183 0.15274 0.19804 0.0
C488 C 0.68423 0.199 0.2223 0.0
C489 C 0.67586 0.22952 0.22685 0.0
C490 C 0.59274 0.1684 0.13711 0.0
C491 C 0.63735 0.18393 0.18366 0.0
C492 C 0.57289 0.14519 0.11696 0.0
C493 C 0.57583 0.11359 0.12134 0.0
C494 C 0.61601 0.15999 0.16144 0.0
C495 C 0.59939 0.10623 0.14601 0.0
C496 C 0.66501 0.17617 0.20097 0.0
C497 C 0.64809 0.23636 0.20895 0.0
N498 N 0.61858 0.12918 0.16497 0.0
N499 N 0.62989 0.2138 0.18811 0.0
H500 H 0.41511 0.62736 0.32517 0.0
H501 H 0.51592 0.52983 0.45295 0.0
H502 H 0.46079 0.54813 0.28819 0.0
H503 H 0.5073 0.62754 0.47725 0.0
H504 H 0.48435 0.53141 0.39714 0.0
H505 H 0.43814 0.62282 0.38579 0.0
C506 C 0.42968 0.60882 0.3299 0.0
C507 C 0.43631 0.58818 0.30173 0.0
C508 C 0.4892 0.55245 0.41479 0.0
C509 C 0.46219 0.58279 0.3705 0.0
C510 C 0.50716 0.5516 0.44664 0.0
C511 C 0.51459 0.5788 0.46932 0.0
C512 C 0.4783 0.58058 0.40579 0.0
C513 C 0.50233 0.60623 0.46013 0.0
C514 C 0.44285 0.60637 0.36434 0.0
C515 C 0.45536 0.56467 0.30915 0.0
N516 N 0.4848 0.6065 0.42881 0.0
N517 N 0.46764 0.56258 0.34288 0.0
H518 H 0.23612 0.29922 0.77328 0.0
H519 H 0.0952 0.39261 0.81036 0.0
H520 H 0.14461 0.26677 0.72541 0.0
H521 H 0.17577 0.39478 0.88495 0.0
H522 H 0.11151 0.34642 0.77843 0.0
H523 H 0.21374 0.33458 0.8143 0.0
C524 C 0.21117 0.29865 0.77233 0.0
C525 C 0.19206 0.27908 0.74702 0.0
C526 C 0.12532 0.35684 0.80207 0.0
C527 C 0.16639 0.32119 0.79225 0.0
C528 C 0.1161 0.38313 0.82021 0.0
C529 C 0.1346 0.39776 0.84979 0.0
C530 C 0.15327 0.34559 0.81358 0.0
C531 C 0.1614 0.38469 0.86158 0.0
C532 C 0.19841 0.31924 0.79542 0.0
C533 C 0.16003 0.28126 0.74499 0.0
N534 N 0.17014 0.3595 0.84315 0.0
N535 N 0.1481 0.30225 0.76724 0.0
H536 H 0.70594 0.94464 0.90107 0.0
H537 H 0.61809 0.02518 0.06159 0.0
H538 H 0.75182 0.97981 1.00305 0.0
H539 H 0.57214 0.9919 0.95913 0.0
H540 H 0.66685 1.00794 0.04113 0.0
H541 H 0.65686 0.96092 0.92167 0.0
C542 C 0.70591 0.95569 0.92772 0.0
C543 C 0.73369 0.96063 0.95007 0.0
C544 C 0.64609 1.00434 0.02308 0.0
C545 C 0.67674 0.97959 0.97425 0.0
C546 C 0.61808 0.01418 0.0349 0.0
C547 C 0.59054 0.01017 0.01225 0.0
C548 C 0.64697 0.99019 0.9882 0.0
C549 C 0.59251 0.99569 0.97777 0.0
C550 C 0.67769 0.96506 0.93958 0.0
C551 C 0.73146 0.97527 0.98448 0.0
N552 N 0.61986 0.9864 0.96697 0.0
N553 N 0.70393 0.98406 0.99528 0.0
H554 H 0.80394 0.25514 0.41273 0.0
H555 H 0.93366 0.13654 0.41972 0.0
H556 H 0.84751 0.22362 0.3194 0.0
H557 H 0.90297 0.18503 0.51267 0.0
H558 H 0.9011 0.1663 0.38185 0.0
H559 H 0.8392 0.2277 0.44943 0.0
C560 C 0.82096 0.24244 0.39996 0.0
C561 C 0.82279 0.24162 0.36298 0.0
C562 C 0.90182 0.1706 0.41054 0.0
C563 C 0.86315 0.21001 0.4048 0.0
C564 C 0.92022 0.15355 0.43211 0.0
C565 C 0.92112 0.15846 0.46935 0.0
C566 C 0.88409 0.19246 0.42642 0.0
C567 C 0.90342 0.18087 0.48409 0.0
C568 C 0.84116 0.22686 0.42094 0.0
C569 C 0.8454 0.22491 0.34786 0.0
N570 N 0.88555 0.19693 0.46257 0.0
N571 N 0.86463 0.20956 0.36884 0.0
H572 H 0.24946 0.63121 0.18072 0.0
H573 H 0.12408 0.58111 0.01904 0.0
H574 H 0.26498 0.66041 0.07585 0.0
H575 H 0.13942 0.52646 0.10896 0.0
H576 H 0.17279 0.61375 0.03856 0.0
H577 H 0.20454 0.59706 0.15519 0.0
C578 C 0.24322 0.6307 0.15233 0.0
C579 C 0.2609 0.64877 0.13037 0.0
C580 C 0.16551 0.59434 0.05363 0.0
C581 C 0.20947 0.60952 0.1009 0.0
C582 C 0.13788 0.57576 0.04251 0.0
C583 C 0.12758 0.55149 0.06284 0.0
C584 C 0.18236 0.58858 0.08534 0.0
C585 C 0.14625 0.54532 0.0929 0.0
C586 C 0.21773 0.61095 0.1377 0.0
C587 C 0.25188 0.64684 0.09367 0.0
N588 N 0.17248 0.56397 0.10348 0.0
N589 N 0.22658 0.62763 0.08 0.0
H590 H 0.32235 0.28909 0.67653 0.0
H591 H 0.34527 0.45413 0.59558 0.0
H592 H 0.25388 0.32699 0.60771 0.0
H593 H 0.42027 0.40807 0.64277 0.0
H594 H 0.30843 0.41371 0.61447 0.0
H595 H 0.35578 0.33783 0.67677 0.0
C596 C 0.31438 0.30764 0.66146 0.0
C597 C 0.28562 0.30382 0.64147 0.0
C598 C 0.33293 0.41281 0.62133 0.0
C599 C 0.32327 0.35958 0.64229 0.0
C600 C 0.35388 0.43589 0.61069 0.0
C601 C 0.38573 0.43396 0.61706 0.0
C602 C 0.34405 0.38772 0.63828 0.0
C603 C 0.39583 0.41028 0.63725 0.0
C604 C 0.33335 0.33545 0.66181 0.0
C605 C 0.27616 0.32872 0.6229 0.0
N606 N 0.37501 0.38765 0.64661 0.0
N607 N 0.29504 0.35552 0.62364 0.0
H608 H 0.95594 0.75031 0.97998 0.0
H609 H 0.02316 0.5869 0.92723 0.0
H610 H 0.9546 0.71083 0.87171 0.0
H611 H 1.0037 0.61417 0.03473 0.0
H612 H 1.00217 0.63394 0.90727 0.0
H613 H 0.97713 0.70337 1.00088 0.0
C614 C 0.96011 0.73191 0.96046 0.0
C615 C 0.95329 0.73504 0.92377 0.0
C616 C 1.00246 0.62978 0.93525 0.0
C617 C 0.97799 0.68049 0.94796 0.0
C618 C 1.01461 0.60278 0.94683 0.0
C619 C 1.01536 0.59611 0.98294 0.0
C620 C 0.99113 0.65109 0.95981 0.0
C621 C 1.00362 0.61795 0.00666 0.0
C622 C 0.9722 0.70492 0.97254 0.0
C623 C 0.95938 0.70993 0.90016 0.0
N624 N 0.99226 0.64432 0.99479 0.0
N625 N 0.97134 0.68408 0.91255 0.0
H626 H 0.38876 0.72341 0.22174 0.0
H627 H 0.46831 0.83873 0.09182 0.0
H628 H 0.43976 0.69263 0.13421 0.0
H629 H 0.44644 0.86844 0.19798 0.0
H630 H 0.4493 0.78543 0.10179 0.0
H631 H 0.40117 0.77742 0.20799 0.0
C632 C 0.40214 0.72804 0.19927 0.0
C633 C 0.41304 0.70368 0.17879 0.0
C634 C 0.44853 0.80369 0.12279 0.0
C635 C 0.42752 0.76504 0.16325 0.0
C636 C 0.45946 0.83407 0.11719 0.0
C637 C 0.45924 0.85802 0.14424 0.0
C638 C 0.43707 0.79727 0.15554 0.0
C639 C 0.4468 0.85076 0.17628 0.0
C640 C 0.40942 0.7588 0.19167 0.0
C641 C 0.431 0.71086 0.15062 0.0
N642 N 0.43631 0.82095 0.18111 0.0
N643 N 0.43763 0.74096 0.14359 0.0
H644 H 0.20561 0.17949 0.71536 0.0
H645 H 0.04598 0.07232 0.67226 0.0
H646 H 0.13061 0.18353 0.78378 0.0
H647 H 0.12287 0.0751 0.60633 0.0
H648 H 0.07293 0.11663 0.71055 0.0
H649 H 0.17244 0.14482 0.6727 0.0
C650 C 0.18219 0.17265 0.72172 0.0
C651 C 0.17113 0.18369 0.75372 0.0
C652 C 0.08369 0.10765 0.68751 0.0
C653 C 0.13261 0.14367 0.70445 0.0
C654 C 0.06836 0.08244 0.66571 0.0
C655 C 0.08269 0.06962 0.63672 0.0
C656 C 0.11334 0.11995 0.67993 0.0
C657 C 0.11138 0.08378 0.62895 0.0
C658 C 0.16307 0.15301 0.69705 0.0
C659 C 0.14017 0.17497 0.7597 0.0
N660 N 0.12581 0.10795 0.65055 0.0
N661 N 0.122 0.15505 0.73544 0.0
H662 H 0.62317 0.39791 0.31627 0.0
H663 H 0.65025 0.50609 0.49849 0.0
H664 H 0.70519 0.39786 0.38819 0.0
H665 H 0.5612 0.47962 0.44063 0.0
H666 H 0.67417 0.47362 0.45411 0.0
H667 H 0.60367 0.43572 0.35747 0.0
C668 C 0.63723 0.40599 0.34064 0.0
C669 C 0.66578 0.3945 0.34891 0.0
C670 C 0.64943 0.47513 0.45126 0.0
C671 C 0.64347 0.43786 0.39631 0.0
C672 C 0.63587 0.49368 0.47637 0.0
C673 C 0.60381 0.49534 0.47324 0.0
C674 C 0.6307 0.45871 0.42283 0.0
C675 C 0.58603 0.47879 0.44426 0.0
C676 C 0.62601 0.42754 0.36422 0.0
C677 C 0.68298 0.406 0.38088 0.0
N678 N 0.59973 0.46119 0.42021 0.0
N679 N 0.67148 0.42703 0.40358 0.0
loop_
_geom_bond_atom_site_label_1
_geom_bond_atom_site_label_2
_geom_bond_distance
_geom_bond_site_symmetry_2
_ccdc_geom_bond_type
O0 Cd1 2.300 . S
O0 C7 1.275 . S
Cd1 O0 2.300 . S
Cd1 O9 2.381 . S
Cd1 O10 2.378 . S
O2 Cd3 2.385 . S
O2 C7 1.255 . S
Cd3 O2 2.385 . S
Cd3 O4 2.317 . S
O4 Cd3 2.317 . S
O4 C5 1.232 . S
C5 O4 1.232 . S
C5 O6 1.218 . S
O6 C5 1.218 . S
C7 O0 1.275 . S
C7 O2 1.255 . S
C8 O9 1.258 . S
C8 O10 1.256 . S
O9 Cd1 2.381 . S
O9 C8 1.258 . S
O10 Cd1 2.378 . S
O10 C8 1.256 . S
O11 Cd12 2.300 . S
O11 C18 1.275 . S
Cd12 O11 2.300 . S
Cd12 O20 2.381 . S
Cd12 O21 2.378 . S
O13 Cd14 2.385 . S
O13 C18 1.255 . S
Cd14 O13 2.385 . S
Cd14 O15 2.317 . S
O15 Cd14 2.317 . S
O15 C16 1.232 . S
C16 O15 1.232 . S
C16 O17 1.218 . S
O17 C16 1.218 . S
C18 O11 1.275 . S
C18 O13 1.255 . S
C19 O20 1.258 . S
C19 O21 1.256 . S
O20 Cd12 2.381 . S
O20 C19 1.258 . S
O21 Cd12 2.378 . S
O21 C19 1.256 . S
O22 Cd23 2.300 . S
O22 C29 1.275 . S
Cd23 O22 2.300 . S
Cd23 O31 2.381 . S
Cd23 O32 2.378 . S
O24 Cd25 2.385 . S
O24 C29 1.255 . S
Cd25 O24 2.385 . S
Cd25 O26 2.317 . S
O26 Cd25 2.317 . S
O26 C27 1.232 . S
C27 O26 1.232 . S
C27 O28 1.218 . S
O28 C27 1.218 . S
C29 O22 1.275 . S
C29 O24 1.255 . S
C30 O31 1.258 . S
C30 O32 1.256 . S
O31 Cd23 2.381 . S
O31 C30 1.258 . S
O32 Cd23 2.378 . S
O32 C30 1.256 . S
O33 Cd34 2.300 . S
O33 C40 1.275 . S
Cd34 O33 2.300 . S
Cd34 O42 2.381 . S
Cd34 O43 2.378 . S
O35 Cd36 2.385 . S
O35 C40 1.255 . S
Cd36 O35 2.385 . S
Cd36 O37 2.317 . S
O37 Cd36 2.317 . S
O37 C38 1.232 . S
C38 O37 1.232 . S
C38 O39 1.218 . S
O39 C38 1.218 . S
C40 O33 1.275 . S
C40 O35 1.255 . S
C41 O42 1.258 . S
C41 O43 1.256 . S
O42 Cd34 2.381 . S
O42 C41 1.258 . S
O43 Cd34 2.378 . S
O43 C41 1.256 . S
O44 Cd45 2.300 . S
O44 C51 1.275 . S
Cd45 O44 2.300 . S
Cd45 O53 2.381 . S
Cd45 O54 2.378 . S
O46 Cd47 2.385 . S
O46 C51 1.255 . S
Cd47 O46 2.385 . S
Cd47 O48 2.317 . S
O48 Cd47 2.317 . S
O48 C49 1.232 . S
C49 O48 1.232 . S
C49 O50 1.218 . S
O50 C49 1.218 . S
C51 O44 1.275 . S
C51 O46 1.255 . S
C52 O53 1.258 . S
C52 O54 1.256 . S
O53 Cd45 2.381 . S
O53 C52 1.258 . S
O54 Cd45 2.378 . S
O54 C52 1.256 . S
O55 Cd56 2.300 . S
O55 C62 1.275 . S
Cd56 O55 2.300 . S
Cd56 O64 2.381 . S
Cd56 O65 2.378 . S
O57 Cd58 2.385 . S
O57 C62 1.255 . S
Cd58 O57 2.385 . S
Cd58 O59 2.317 . S
O59 Cd58 2.317 . S
O59 C60 1.232 . S
C60 O59 1.232 . S
C60 O61 1.218 . S
O61 C60 1.218 . S
C62 O55 1.275 . S
C62 O57 1.255 . S
C63 O64 1.258 . S
C63 O65 1.256 . S
O64 Cd56 2.381 . S
O64 C63 1.258 . S
O65 Cd56 2.378 . S
O65 C63 1.256 . S
O66 Cd67 2.300 . S
O66 C73 1.275 . S
Cd67 O66 2.300 . S
Cd67 O75 2.381 . S
Cd67 O76 2.378 . S
O68 Cd69 2.385 . S
O68 C73 1.255 . S
Cd69 O68 2.385 . S
Cd69 O70 2.317 . S
O70 Cd69 2.317 . S
O70 C71 1.232 . S
C71 O70 1.232 . S
C71 O72 1.218 . S
O72 C71 1.218 . S
C73 O66 1.275 . S
C73 O68 1.255 . S
C74 O75 1.258 . S
C74 O76 1.256 . S
O75 Cd67 2.381 . S
O75 C74 1.258 . S
O76 Cd67 2.378 . S
O76 C74 1.256 . S
O77 Cd78 2.300 . S
O77 C84 1.275 . S
Cd78 O77 2.300 . S
Cd78 O86 2.381 . S
Cd78 O87 2.378 . S
O79 Cd80 2.385 . S
O79 C84 1.255 . S
Cd80 O79 2.385 . S
Cd80 O81 2.317 . S
O81 Cd80 2.317 . S
O81 C82 1.232 . S
C82 O81 1.232 . S
C82 O83 1.218 . S
O83 C82 1.218 . S
C84 O77 1.275 . S
C84 O79 1.255 . S
C85 O86 1.258 . S
C85 O87 1.256 . S
O86 Cd78 2.381 . S
O86 C85 1.258 . S
O87 Cd78 2.378 . S
O87 C85 1.256 . S
Nd88 C90 2.836 . S
Nd88 O108 2.500 . S
Nd88 O109 2.492 . S
Nd88 O110 2.487 1_565 S
Nd88 O111 2.682 1_565 S
Nd88 O112 2.410 . S
Nd88 O117 2.415 . S
Nd88 O119 2.424 1_565 S
Nd89 C99 2.836 . S
Nd89 O111 2.414 1_655 S
Nd89 O113 2.424 1_545 S
Nd89 O114 2.500 . S
Nd89 O115 2.492 . S
Nd89 O116 2.487 1_545 S
Nd89 O117 2.682 1_645 S
Nd89 O118 2.410 1_655 S
C90 Nd88 2.836 . S
C90 C91 1.498 . S
C90 O108 1.258 . S
C90 O109 1.239 . S
C91 C90 1.498 . S
C91 C92 1.366 . S
C91 C96 1.407 . S
C92 C91 1.366 . S
C92 C93 1.392 . S
C92 H120 0.930 . S
C93 C92 1.392 . S
C93 C94 1.398 . S
C93 H121 0.929 . S
C94 C93 1.398 . S
C94 C95 1.352 . S
C95 C94 1.352 . S
C95 C96 1.384 . S
C95 H122 0.930 . S
C96 C91 1.407 . S
C96 C95 1.384 . S
C96 H123 0.929 . S
C97 O110 1.241 . S
C97 O111 1.273 . S
C98 O112 1.251 1_655 S
C98 O113 1.268 . S
C99 Nd89 2.836 . S
C99 C100 1.498 . S
C99 O114 1.258 . S
C99 O115 1.239 . S
C100 C99 1.498 . S
C100 C101 1.366 . S
C100 C105 1.407 . S
C101 C100 1.366 . S
C101 C102 1.392 . S
C101 H124 0.930 . S
C102 C101 1.392 . S
C102 C103 1.398 . S
C102 H125 0.929 . S
C103 C102 1.398 . S
C103 C104 1.352 . S
C104 C103 1.352 . S
C104 C105 1.384 . S
C104 H126 0.930 . S
C105 C100 1.407 . S
C105 C104 1.384 . S
C105 H127 0.929 . S
C106 O116 1.241 . S
C106 O117 1.273 1_655 S
C107 O118 1.251 . S
C107 O119 1.268 . S
O108 Nd88 2.500 . S
O108 C90 1.258 . S
O109 Nd88 2.492 . S
O109 C90 1.239 . S
O110 Nd88 2.487 1_545 S
O110 C97 1.241 . S
O111 Nd88 2.682 1_545 S
O111 Nd89 2.414 1_455 S
O111 C97 1.273 . S
O112 Nd88 2.410 . S
O112 C98 1.251 1_455 S
O113 Nd89 2.424 1_565 S
O113 C98 1.268 . S
O114 Nd89 2.500 . S
O114 C99 1.258 . S
O115 Nd89 2.492 . S
O115 C99 1.239 . S
O116 Nd89 2.487 1_565 S
O116 C106 1.241 . S
O117 Nd88 2.415 . S
O117 Nd89 2.682 1_465 S
O117 C106 1.273 1_455 S
O118 Nd89 2.410 1_455 S
O118 C107 1.251 . S
O119 Nd88 2.424 1_545 S
O119 C107 1.268 . S
H120 C92 0.930 . S
H121 C93 0.929 . S
H122 C95 0.930 . S
H123 C96 0.929 . S
H124 C101 0.930 . S
H125 C102 0.929 . S
H126 C104 0.930 . S
H127 C105 0.929 . S
Nd128 C130 2.862 . S
Nd128 O148 2.528 . S
Nd128 O149 2.510 . S
Nd128 O150 2.471 1_565 S
Nd128 O151 2.659 1_565 S
Nd128 O152 2.417 . S
Nd128 O157 2.414 . S
Nd128 O159 2.401 1_565 S
Nd129 C139 2.830 1_554 S
Nd129 O151 2.414 . S
Nd129 O153 2.424 1_544 S
Nd129 O154 2.500 . S
Nd129 O155 2.492 1_554 S
Nd129 O156 2.487 . S
Nd129 O157 2.674 1_545 S
Nd129 O158 2.410 . S
C130 Nd128 2.862 . S
C130 C131 1.498 . S
C130 O148 1.258 . S
C130 O149 1.239 . S
C131 C130 1.498 . S
C131 C132 1.366 . S
C131 C136 1.407 . S
C132 C131 1.366 . S
C132 C133 1.392 . S
C132 H160 0.930 . S
C133 C132 1.392 . S
C133 C134 1.398 . S
C133 H161 0.929 . S
C134 C133 1.398 . S
C134 C135 1.352 . S
C135 C134 1.352 . S
C135 C136 1.384 . S
C135 H162 0.930 . S
C136 C131 1.407 . S
C136 C135 1.384 . S
C136 H163 0.929 . S
C137 O150 1.241 . S
C137 O151 1.273 . S
C138 O152 1.251 . S
C138 O153 1.268 1_554 S
C139 Nd129 2.830 1_556 S
C139 C140 1.504 . S
C139 O154 1.246 1_556 S
C139 O155 1.246 . S
C140 C139 1.504 . S
C140 C141 1.366 1_556 S
C140 C145 1.407 . S
C141 C140 1.366 1_554 S
C141 C142 1.392 . S
C141 H164 0.930 . S
C142 C141 1.392 . S
C142 C143 1.398 1_554 S
C142 H165 0.929 . S
C143 C142 1.398 1_556 S
C143 C144 1.352 . S
C144 C143 1.352 . S
C144 C145 1.384 . S
C144 H166 0.930 . S
C145 C140 1.407 . S
C145 C144 1.384 . S
C145 H167 0.929 . S
C146 O156 1.241 1_565 S
C146 O157 1.274 . S
C147 O158 1.251 . S
C147 O159 1.268 . S
O148 Nd128 2.528 . S
O148 C130 1.258 . S
O149 Nd128 2.510 . S
O149 C130 1.239 . S
O150 Nd128 2.471 1_545 S
O150 C137 1.241 . S
O151 Nd128 2.659 1_545 S
O151 Nd129 2.414 . S
O151 C137 1.273 . S
O152 Nd128 2.417 . S
O152 C138 1.251 . S
O153 Nd129 2.424 1_566 S
O153 C138 1.268 1_556 S
O154 Nd129 2.500 . S
O154 C139 1.246 1_554 S
O155 Nd129 2.492 1_556 S
O155 C139 1.246 . S
O156 Nd129 2.487 . S
O156 C146 1.241 1_545 S
O157 Nd128 2.414 . S
O157 Nd129 2.674 1_565 S
O157 C146 1.274 . S
O158 Nd129 2.410 . S
O158 C147 1.251 . S
O159 Nd128 2.401 1_545 S
O159 C147 1.268 . S
H160 C132 0.930 . S
H161 C133 0.929 . S
H162 C135 0.930 . S
H163 C136 0.929 . S
H164 C141 0.930 . S
H165 C142 0.929 . S
H166 C144 0.930 . S
H167 C145 0.929 . S
Nd168 C170 2.836 . S
Nd168 O188 2.500 . S
Nd168 O189 2.492 . S
Nd168 O190 2.487 . S
Nd168 O191 2.682 . S
Nd168 O192 2.410 . S
Nd168 O197 2.414 . S
Nd168 O199 2.424 . S
Nd169 C179 2.836 . S
Nd169 O191 2.414 . S
Nd169 O193 2.424 . S
Nd169 O194 2.500 . S
Nd169 O195 2.492 . S
Nd169 O196 2.487 . S
Nd169 O197 2.682 . S
Nd169 O198 2.410 . S
C170 Nd168 2.836 . S
C170 C171 1.498 . S
C170 O188 1.258 . S
C170 O189 1.239 . S
C171 C170 1.498 . S
C171 C172 1.366 . S
C171 C176 1.407 . S
C172 C171 1.366 . S
C172 C173 1.392 . S
C172 H200 0.930 . S
C173 C172 1.392 . S
C173 C174 1.398 . S
C173 H201 0.929 . S
C174 C173 1.398 . S
C174 C175 1.352 . S
C175 C174 1.352 . S
C175 C176 1.384 . S
C175 H202 0.930 . S
C176 C171 1.407 . S
C176 C175 1.384 . S
C176 H203 0.929 . S
C177 O190 1.241 . S
C177 O191 1.273 . S
C178 O192 1.251 . S
C178 O193 1.268 . S
C179 Nd169 2.836 . S
C179 C180 1.498 . S
C179 O194 1.258 . S
C179 O195 1.239 . S
C180 C179 1.498 . S
C180 C181 1.366 . S
C180 C185 1.407 . S
C181 C180 1.366 . S
C181 C182 1.392 . S
C181 H204 0.930 . S
C182 C181 1.392 . S
C182 C183 1.398 . S
C182 H205 0.929 . S
C183 C182 1.398 . S
C183 C184 1.352 . S
C184 C183 1.352 . S
C184 C185 1.384 . S
C184 H206 0.930 . S
C185 C180 1.407 . S
C185 C184 1.384 . S
C185 H207 0.929 . S
C186 O196 1.241 . S
C186 O197 1.273 . S
C187 O198 1.251 . S
C187 O199 1.268 . S
O188 Nd168 2.500 . S
O188 C170 1.258 . S
O189 Nd168 2.492 . S
O189 C170 1.239 . S
O190 Nd168 2.487 . S
O190 C177 1.241 . S
O191 Nd168 2.682 . S
O191 Nd169 2.414 . S
O191 C177 1.273 . S
O192 Nd168 2.410 . S
O192 C178 1.251 . S
O193 Nd169 2.424 . S
O193 C178 1.268 . S
O194 Nd169 2.500 . S
O194 C179 1.258 . S
O195 Nd169 2.492 . S
O195 C179 1.239 . S
O196 Nd169 2.487 . S
O196 C186 1.241 . S
O197 Nd168 2.414 . S
O197 Nd169 2.682 . S
O197 C186 1.273 . S
O198 Nd169 2.410 . S
O198 C187 1.251 . S
O199 Nd168 2.424 . S
O199 C187 1.268 . S
H200 C172 0.930 . S
H201 C173 0.929 . S
H202 C175 0.930 . S
H203 C176 0.929 . S
H204 C181 0.930 . S
H205 C182 0.929 . S
H206 C184 0.930 . S
H207 C185 0.929 . S
Nd208 C210 2.836 1_455 S
Nd208 O228 2.500 1_455 S
Nd208 O229 2.492 . S
Nd208 O230 2.487 . S
Nd208 O231 2.682 . S
Nd208 O232 2.410 . S
Nd208 O237 2.414 1_454 S
Nd208 O239 2.424 . S
Nd209 C219 2.836 . S
Nd209 O231 2.414 1_556 S
Nd209 O233 2.424 . S
Nd209 O234 2.500 . S
Nd209 O235 2.492 . S
Nd209 O236 2.487 1_455 S
Nd209 O237 2.682 1_455 S
Nd209 O238 2.410 . S
C210 Nd208 2.836 1_655 S
C210 C211 1.498 . S
C210 O228 1.258 . S
C210 O229 1.239 1_655 S
C211 C210 1.498 . S
C211 C212 1.366 . S
C211 C216 1.407 . S
C212 C211 1.366 . S
C212 C213 1.392 . S
C212 H240 0.930 . S
C213 C212 1.392 . S
C213 C214 1.398 . S
C213 H241 0.929 . S
C214 C213 1.398 . S
C214 C215 1.352 . S
C215 C214 1.352 . S
C215 C216 1.384 . S
C215 H242 0.930 . S
C216 C211 1.407 . S
C216 C215 1.384 . S
C216 H243 0.929 1_655 S
C217 O230 1.241 . S
C217 O231 1.273 . S
C218 O232 1.251 1_556 S
C218 O233 1.268 . S
C219 Nd209 2.836 . S
C219 C220 1.498 . S
C219 O234 1.258 . S
C219 O235 1.239 . S
C220 C219 1.498 . S
C220 C221 1.366 . S
C220 C225 1.407 . S
C221 C220 1.366 . S
C221 C222 1.392 . S
C221 H244 0.930 . S
C222 C221 1.392 . S
C222 C223 1.398 . S
C222 H245 0.929 . S
C223 C222 1.398 . S
C223 C224 1.352 . S
C224 C223 1.352 . S
C224 C225 1.384 . S
C224 H246 0.930 . S
C225 C220 1.407 . S
C225 C224 1.384 . S
C225 H247 0.929 . S
C226 O236 1.241 . S
C226 O237 1.273 . S
C227 O238 1.251 1_554 S
C227 O239 1.268 . S
O228 Nd208 2.500 1_655 S
O228 C210 1.258 . S
O229 Nd208 2.492 . S
O229 C210 1.239 1_455 S
O230 Nd208 2.487 . S
O230 C217 1.241 . S
O231 Nd208 2.682 . S
O231 Nd209 2.414 1_554 S
O231 C217 1.273 . S
O232 Nd208 2.410 . S
O232 C218 1.251 1_554 S
O233 Nd209 2.424 . S
O233 C218 1.268 . S
O234 Nd209 2.500 . S
O234 C219 1.258 . S
O235 Nd209 2.492 . S
O235 C219 1.239 . S
O236 Nd209 2.487 1_655 S
O236 C226 1.241 . S
O237 Nd208 2.414 1_656 S
O237 Nd209 2.682 1_655 S
O237 C226 1.273 . S
O238 Nd209 2.410 . S
O238 C227 1.251 1_556 S
O239 Nd208 2.424 . S
O239 C227 1.268 . S
H240 C212 0.930 . S
H241 C213 0.929 . S
H242 C215 0.930 . S
H243 C216 0.929 1_455 S
H244 C221 0.930 . S
H245 C222 0.929 . S
H246 C224 0.930 . S
H247 C225 0.929 . S
H248 C254 0.930 . S
H249 C258 0.930 . S
H250 C263 0.929 . S
H251 C261 0.929 . S
H252 C256 0.929 . S
H253 C262 0.929 . S
C254 H248 0.930 . S
C254 C255 1.367 . S
C254 C262 1.378 . S
C255 C254 1.367 . S
C255 C263 1.433 . S
C256 H252 0.929 . S
C256 C258 1.378 . S
C256 C260 1.350 . S
C257 C260 1.463 . S
C257 C262 1.350 . S
C257 N265 1.427 . S
C258 H249 0.930 . S
C258 C256 1.378 . S
C258 C259 1.367 . S
C259 C258 1.367 . S
C259 C261 1.433 . S
C260 C256 1.350 . S
C260 C257 1.463 . S
C260 N264 1.427 . S
C261 H251 0.929 . S
C261 C259 1.433 . S
C261 N264 1.384 . S
C262 H253 0.929 . S
C262 C254 1.378 . S
C262 C257 1.350 . S
C263 H250 0.929 . S
C263 C255 1.433 . S
C263 N265 1.384 . S
N264 C260 1.427 . S
N264 C261 1.384 . S
N265 C257 1.427 . S
N265 C263 1.384 . S
H266 C272 0.930 . S
H267 C276 0.930 . S
H268 C281 0.929 . S
H269 C279 0.929 . S
H270 C274 0.929 . S
H271 C280 0.929 . S
C272 H266 0.930 . S
C272 C273 1.367 . S
C272 C280 1.378 . S
C273 C272 1.367 . S
C273 C281 1.433 . S
C274 H270 0.929 . S
C274 C276 1.378 . S
C274 C278 1.350 . S
C275 C278 1.463 . S
C275 C280 1.350 . S
C275 N283 1.427 . S
C276 H267 0.930 . S
C276 C274 1.378 . S
C276 C277 1.367 . S
C277 C276 1.367 . S
C277 C279 1.433 . S
C278 C274 1.350 . S
C278 C275 1.463 . S
C278 N282 1.427 . S
C279 H269 0.929 . S
C279 C277 1.433 . S
C279 N282 1.384 . S
C280 H271 0.929 . S
C280 C272 1.378 . S
C280 C275 1.350 . S
C281 H268 0.929 . S
C281 C273 1.433 . S
C281 N283 1.384 . S
N282 C278 1.427 . S
N282 C279 1.384 . S
N283 C275 1.427 . S
N283 C281 1.384 . S
H284 C290 0.930 . S
H285 C294 0.930 . S
H286 C299 0.929 . S
H287 C297 0.929 . S
H288 C292 0.929 . S
H289 C298 0.929 . S
C290 H284 0.930 . S
C290 C291 1.367 . S
C290 C298 1.378 . S
C291 C290 1.367 . S
C291 C299 1.433 . S
C292 H288 0.929 . S
C292 C294 1.378 . S
C292 C296 1.350 . S
C293 C296 1.463 . S
C293 C298 1.350 . S
C293 N301 1.427 . S
C294 H285 0.930 . S
C294 C292 1.378 . S
C294 C295 1.367 . S
C295 C294 1.367 . S
C295 C297 1.433 . S
C296 C292 1.350 . S
C296 C293 1.463 . S
C296 N300 1.427 . S
C297 H287 0.929 . S
C297 C295 1.433 . S
C297 N300 1.384 . S
C298 H289 0.929 . S
C298 C290 1.378 . S
C298 C293 1.350 . S
C299 H286 0.929 . S
C299 C291 1.433 . S
C299 N301 1.384 . S
N300 C296 1.427 . S
N300 C297 1.384 . S
N301 C293 1.427 . S
N301 C299 1.384 . S
H302 C308 0.930 . S
H303 C312 0.930 . S
H304 C317 0.929 . S
H305 C315 0.929 . S
H306 C310 0.929 . S
H307 C316 0.929 . S
C308 H302 0.930 . S
C308 C309 1.367 . S
C308 C316 1.378 . S
C309 C308 1.367 . S
C309 C317 1.433 . S
C310 H306 0.929 . S
C310 C312 1.378 . S
C310 C314 1.350 . S
C311 C314 1.463 . S
C311 C316 1.350 . S
C311 N319 1.427 . S
C312 H303 0.930 . S
C312 C310 1.378 . S
C312 C313 1.367 . S
C313 C312 1.367 . S
C313 C315 1.433 . S
C314 C310 1.350 . S
C314 C311 1.463 . S
C314 N318 1.427 . S
C315 H305 0.929 . S
C315 C313 1.433 . S
C315 N318 1.384 . S
C316 H307 0.929 . S
C316 C308 1.378 . S
C316 C311 1.350 . S
C317 H304 0.929 . S
C317 C309 1.433 . S
C317 N319 1.384 . S
N318 C314 1.427 . S
N318 C315 1.384 . S
N319 C311 1.427 . S
N319 C317 1.384 . S
H320 C326 0.930 . S
H321 C330 0.930 . S
H322 C335 0.929 . S
H323 C333 0.929 . S
H324 C328 0.929 . S
H325 C334 0.929 . S
C326 H320 0.930 . S
C326 C327 1.367 . S
C326 C334 1.378 . S
C327 C326 1.367 . S
C327 C335 1.433 . S
C328 H324 0.929 . S
C328 C330 1.378 . S
C328 C332 1.350 . S
C329 C332 1.463 . S
C329 C334 1.350 . S
C329 N337 1.427 . S
C330 H321 0.930 . S
C330 C328 1.378 . S
C330 C331 1.367 . S
C331 C330 1.367 . S
C331 C333 1.433 . S
C332 C328 1.350 . S
C332 C329 1.463 . S
C332 N336 1.427 . S
C333 H323 0.929 . S
C333 C331 1.433 . S
C333 N336 1.384 . S
C334 H325 0.929 . S
C334 C326 1.378 . S
C334 C329 1.350 . S
C335 H322 0.929 . S
C335 C327 1.433 . S
C335 N337 1.384 . S
N336 C332 1.427 . S
N336 C333 1.384 . S
N337 C329 1.427 . S
N337 C335 1.384 . S
H338 C344 0.930 . S
H339 C348 0.930 . S
H340 C353 0.929 . S
H341 C351 0.929 . S
H342 C346 0.929 . S
H343 C352 0.929 . S
C344 H338 0.930 . S
C344 C345 1.367 . S
C344 C352 1.378 . S
C345 C344 1.367 . S
C345 C353 1.433 . S
C346 H342 0.929 . S
C346 C348 1.378 . S
C346 C350 1.350 . S
C347 C350 1.463 . S
C347 C352 1.350 . S
C347 N355 1.427 . S
C348 H339 0.930 . S
C348 C346 1.378 . S
C348 C349 1.367 . S
C349 C348 1.367 . S
C349 C351 1.433 . S
C350 C346 1.350 . S
C350 C347 1.463 . S
C350 N354 1.427 . S
C351 H341 0.929 . S
C351 C349 1.433 . S
C351 N354 1.384 . S
C352 H343 0.929 . S
C352 C344 1.378 . S
C352 C347 1.350 . S
C353 H340 0.929 . S
C353 C345 1.433 . S
C353 N355 1.384 . S
N354 C350 1.427 . S
N354 C351 1.384 . S
N355 C347 1.427 . S
N355 C353 1.384 . S
H356 C362 0.930 . S
H357 C366 0.930 . S
H358 C371 0.929 . S
H359 C369 0.929 . S
H360 C364 0.929 . S
H361 C370 0.929 . S
C362 H356 0.930 . S
C362 C363 1.367 . S
C362 C370 1.378 . S
C363 C362 1.367 . S
C363 C371 1.433 . S
C364 H360 0.929 . S
C364 C366 1.378 . S
C364 C368 1.350 . S
C365 C368 1.463 . S
C365 C370 1.350 . S
C365 N373 1.427 . S
C366 H357 0.930 . S
C366 C364 1.378 . S
C366 C367 1.367 . S
C367 C366 1.367 . S
C367 C369 1.433 . S
C368 C364 1.350 . S
C368 C365 1.463 . S
C368 N372 1.427 . S
C369 H359 0.929 . S
C369 C367 1.433 . S
C369 N372 1.384 . S
C370 H361 0.929 . S
C370 C362 1.378 . S
C370 C365 1.350 . S
C371 H358 0.929 . S
C371 C363 1.433 . S
C371 N373 1.384 . S
N372 C368 1.427 . S
N372 C369 1.384 . S
N373 C365 1.427 . S
N373 C371 1.384 . S
H374 C380 0.930 . S
H375 C384 0.930 . S
H376 C389 0.929 . S
H377 C387 0.929 . S
H378 C382 0.929 . S
H379 C388 0.929 . S
C380 H374 0.930 . S
C380 C381 1.367 . S
C380 C388 1.378 . S
C381 C380 1.367 . S
C381 C389 1.433 . S
C382 H378 0.929 . S
C382 C384 1.378 . S
C382 C386 1.350 . S
C383 C386 1.463 . S
C383 C388 1.350 . S
C383 N391 1.427 . S
C384 H375 0.930 . S
C384 C382 1.378 . S
C384 C385 1.367 . S
C385 C384 1.367 . S
C385 C387 1.433 . S
C386 C382 1.350 . S
C386 C383 1.463 . S
C386 N390 1.427 . S
C387 H377 0.929 . S
C387 C385 1.433 . S
C387 N390 1.384 . S
C388 H379 0.929 . S
C388 C380 1.378 . S
C388 C383 1.350 . S
C389 H376 0.929 . S
C389 C381 1.433 . S
C389 N391 1.384 . S
N390 C386 1.427 . S
N390 C387 1.384 . S
N391 C383 1.427 . S
N391 C389 1.384 . S
H392 C398 0.930 . S
H393 C402 0.930 . S
H394 C407 0.929 . S
H395 C405 0.929 . S
H396 C400 0.929 . S
H397 C406 0.929 . S
C398 H392 0.930 . S
C398 C399 1.367 . S
C398 C406 1.378 . S
C399 C398 1.367 . S
C399 C407 1.433 . S
C400 H396 0.929 . S
C400 C402 1.378 . S
C400 C404 1.350 . S
C401 C404 1.463 . S
C401 C406 1.350 . S
C401 N409 1.427 . S
C402 H393 0.930 . S
C402 C400 1.378 . S
C402 C403 1.367 . S
C403 C402 1.367 . S
C403 C405 1.433 . S
C404 C400 1.350 . S
C404 C401 1.463 . S
C404 N408 1.427 . S
C405 H395 0.929 . S
C405 C403 1.433 . S
C405 N408 1.384 . S
C406 H397 0.929 . S
C406 C398 1.378 . S
C406 C401 1.350 . S
C407 H394 0.929 . S
C407 C399 1.433 . S
C407 N409 1.384 . S
N408 C404 1.427 . S
N408 C405 1.384 . S
N409 C401 1.427 . S
N409 C407 1.384 . S
H410 C416 0.930 . S
H411 C420 0.930 . S
H412 C425 0.929 . S
H413 C423 0.929 1_554 S
H414 C418 0.929 . S
H415 C424 0.929 . S
C416 H410 0.930 . S
C416 C417 1.367 . S
C416 C424 1.378 . S
C417 C416 1.367 . S
C417 C425 1.433 . S
C418 H414 0.929 . S
C418 C420 1.378 . S
C418 C422 1.350 . S
C419 C422 1.463 . S
C419 C424 1.350 . S
C419 N427 1.427 . S
C420 H411 0.930 . S
C420 C418 1.378 . S
C420 C421 1.367 . S
C421 C420 1.367 . S
C421 C423 1.433 . S
C422 C418 1.350 . S
C422 C419 1.463 . S
C422 N426 1.427 . S
C423 H413 0.929 1_556 S
C423 C421 1.433 . S
C423 N426 1.384 . S
C424 H415 0.929 . S
C424 C416 1.378 . S
C424 C419 1.350 . S
C425 H412 0.929 . S
C425 C417 1.433 . S
C425 N427 1.384 . S
N426 C422 1.427 . S
N426 C423 1.384 . S
N427 C419 1.427 . S
N427 C425 1.384 . S
H428 C434 0.930 . S
H429 C438 0.930 1_455 S
H430 C443 0.929 . S
H431 C441 0.929 . S
H432 C436 0.929 . S
H433 C442 0.929 . S
C434 H428 0.930 . S
C434 C435 1.367 . S
C434 C442 1.378 . S
C435 C434 1.367 . S
C435 C443 1.433 . S
C436 H432 0.929 . S
C436 C438 1.378 . S
C436 C440 1.350 . S
C437 C440 1.463 . S
C437 C442 1.350 . S
C437 N445 1.427 . S
C438 H429 0.930 1_655 S
C438 C436 1.378 . S
C438 C439 1.367 . S
C439 C438 1.367 . S
C439 C441 1.433 . S
C440 C436 1.350 . S
C440 C437 1.463 . S
C440 N444 1.427 . S
C441 H431 0.929 . S
C441 C439 1.433 . S
C441 N444 1.384 . S
C442 H433 0.929 . S
C442 C434 1.378 . S
C442 C437 1.350 . S
C443 H430 0.929 . S
C443 C435 1.433 . S
C443 N445 1.384 . S
N444 C440 1.427 . S
N444 C441 1.384 . S
N445 C437 1.427 . S
N445 C443 1.384 . S
H446 C452 0.930 . S
H447 C456 0.930 . S
H448 C461 0.929 . S
H449 C459 0.929 . S
H450 C454 0.929 . S
H451 C460 0.929 . S
C452 H446 0.930 . S
C452 C453 1.367 . S
C452 C460 1.378 . S
C453 C452 1.367 . S
C453 C461 1.433 . S
C454 H450 0.929 . S
C454 C456 1.378 . S
C454 C458 1.350 . S
C455 C458 1.463 . S
C455 C460 1.350 . S
C455 N463 1.427 . S
C456 H447 0.930 . S
C456 C454 1.378 . S
C456 C457 1.367 . S
C457 C456 1.367 . S
C457 C459 1.433 . S
C458 C454 1.350 . S
C458 C455 1.463 . S
C458 N462 1.427 . S
C459 H449 0.929 . S
C459 C457 1.433 . S
C459 N462 1.384 . S
C460 H451 0.929 . S
C460 C452 1.378 . S
C460 C455 1.350 . S
C461 H448 0.929 . S
C461 C453 1.433 . S
C461 N463 1.384 . S
N462 C458 1.427 . S
N462 C459 1.384 . S
N463 C455 1.427 . S
N463 C461 1.384 . S
H464 C470 0.930 . S
H465 C474 0.930 . S
H466 C479 0.929 . S
H467 C477 0.929 . S
H468 C472 0.929 . S
H469 C478 0.929 . S
C470 H464 0.930 . S
C470 C471 1.367 . S
C470 C478 1.378 . S
C471 C470 1.367 . S
C471 C479 1.433 . S
C472 H468 0.929 . S
C472 C474 1.378 . S
C472 C476 1.350 . S
C473 C476 1.463 . S
C473 C478 1.350 . S
C473 N481 1.427 . S
C474 H465 0.930 . S
C474 C472 1.378 . S
C474 C475 1.367 . S
C475 C474 1.367 . S
C475 C477 1.433 . S
C476 C472 1.350 . S
C476 C473 1.463 . S
C476 N480 1.427 . S
C477 H467 0.929 . S
C477 C475 1.433 . S
C477 N480 1.384 . S
C478 H469 0.929 . S
C478 C470 1.378 . S
C478 C473 1.350 . S
C479 H466 0.929 . S
C479 C471 1.433 . S
C479 N481 1.384 . S
N480 C476 1.427 . S
N480 C477 1.384 . S
N481 C473 1.427 . S
N481 C479 1.384 . S
H482 C488 0.930 . S
H483 C492 0.930 . S
H484 C497 0.929 . S
H485 C495 0.929 . S
H486 C490 0.929 . S
H487 C496 0.929 . S
C488 H482 0.930 . S
C488 C489 1.367 . S
C488 C496 1.378 . S
C489 C488 1.367 . S
C489 C497 1.433 . S
C490 H486 0.929 . S
C490 C492 1.378 . S
C490 C494 1.350 . S
C491 C494 1.463 . S
C491 C496 1.350 . S
C491 N499 1.427 . S
C492 H483 0.930 . S
C492 C490 1.378 . S
C492 C493 1.367 . S
C493 C492 1.367 . S
C493 C495 1.433 . S
C494 C490 1.350 . S
C494 C491 1.463 . S
C494 N498 1.427 . S
C495 H485 0.929 . S
C495 C493 1.433 . S
C495 N498 1.384 . S
C496 H487 0.929 . S
C496 C488 1.378 . S
C496 C491 1.350 . S
C497 H484 0.929 . S
C497 C489 1.433 . S
C497 N499 1.384 . S
N498 C494 1.427 . S
N498 C495 1.384 . S
N499 C491 1.427 . S
N499 C497 1.384 . S
H500 C506 0.930 . S
H501 C510 0.930 . S
H502 C515 0.929 . S
H503 C513 0.929 . S
H504 C508 0.929 . S
H505 C514 0.929 . S
C506 H500 0.930 . S
C506 C507 1.367 . S
C506 C514 1.378 . S
C507 C506 1.367 . S
C507 C515 1.433 . S
C508 H504 0.929 . S
C508 C510 1.378 . S
C508 C512 1.350 . S
C509 C512 1.463 . S
C509 C514 1.350 . S
C509 N517 1.427 . S
C510 H501 0.930 . S
C510 C508 1.378 . S
C510 C511 1.367 . S
C511 C510 1.367 . S
C511 C513 1.433 . S
C512 C508 1.350 . S
C512 C509 1.463 . S
C512 N516 1.427 . S
C513 H503 0.929 . S
C513 C511 1.433 . S
C513 N516 1.384 . S
C514 H505 0.929 . S
C514 C506 1.378 . S
C514 C509 1.350 . S
C515 H502 0.929 . S
C515 C507 1.433 . S
C515 N517 1.384 . S
N516 C512 1.427 . S
N516 C513 1.384 . S
N517 C509 1.427 . S
N517 C515 1.384 . S
H518 C524 0.930 . S
H519 C528 0.930 . S
H520 C533 0.929 . S
H521 C531 0.929 . S
H522 C526 0.929 . S
H523 C532 0.929 . S
C524 H518 0.930 . S
C524 C525 1.367 . S
C524 C532 1.378 . S
C525 C524 1.367 . S
C525 C533 1.433 . S
C526 H522 0.929 . S
C526 C528 1.378 . S
C526 C530 1.350 . S
C527 C530 1.463 . S
C527 C532 1.350 . S
C527 N535 1.427 . S
C528 H519 0.930 . S
C528 C526 1.378 . S
C528 C529 1.367 . S
C529 C528 1.367 . S
C529 C531 1.433 . S
C530 C526 1.350 . S
C530 C527 1.463 . S
C530 N534 1.427 . S
C531 H521 0.929 . S
C531 C529 1.433 . S
C531 N534 1.384 . S
C532 H523 0.929 . S
C532 C524 1.378 . S
C532 C527 1.350 . S
C533 H520 0.929 . S
C533 C525 1.433 . S
C533 N535 1.384 . S
N534 C530 1.427 . S
N534 C531 1.384 . S
N535 C527 1.427 . S
N535 C533 1.384 . S
H536 C542 0.930 . S
H537 C546 0.930 . S
H538 C551 0.929 1_554 S
H539 C549 0.929 . S
H540 C544 0.929 . S
H541 C550 0.929 . S
C542 H536 0.930 . S
C542 C543 1.367 . S
C542 C550 1.378 . S
C543 C542 1.367 . S
C543 C551 1.433 . S
C544 H540 0.929 . S
C544 C546 1.378 . S
C544 C548 1.350 1_554 S
C545 C548 1.463 . S
C545 C550 1.350 . S
C545 N553 1.427 1_556 S
C546 H537 0.930 . S
C546 C544 1.378 . S
C546 C547 1.367 . S
C547 C546 1.367 . S
C547 C549 1.433 1_554 S
C548 C544 1.350 1_556 S
C548 C545 1.463 . S
C548 N552 1.427 . S
C549 H539 0.929 . S
C549 C547 1.433 1_556 S
C549 N552 1.384 . S
C550 H541 0.929 . S
C550 C542 1.378 . S
C550 C545 1.350 . S
C551 H538 0.929 1_556 S
C551 C543 1.433 . S
C551 N553 1.384 1_556 S
N552 C548 1.427 . S
N552 C549 1.384 . S
N553 C545 1.427 1_554 S
N553 C551 1.384 1_554 S
H554 C560 0.930 . S
H555 C564 0.930 . S
H556 C569 0.929 . S
H557 C567 0.929 . S
H558 C562 0.929 . S
H559 C568 0.929 . S
C560 H554 0.930 . S
C560 C561 1.367 . S
C560 C568 1.378 . S
C561 C560 1.367 . S
C561 C569 1.433 . S
C562 H558 0.929 . S
C562 C564 1.378 . S
C562 C566 1.350 . S
C563 C566 1.463 . S
C563 C568 1.350 . S
C563 N571 1.427 . S
C564 H555 0.930 . S
C564 C562 1.378 . S
C564 C565 1.367 . S
C565 C564 1.367 . S
C565 C567 1.433 . S
C566 C562 1.350 . S
C566 C563 1.463 . S
C566 N570 1.427 . S
C567 H557 0.929 . S
C567 C565 1.433 . S
C567 N570 1.384 . S
C568 H559 0.929 . S
C568 C560 1.378 . S
C568 C563 1.350 . S
C569 H556 0.929 . S
C569 C561 1.433 . S
C569 N571 1.384 . S
N570 C566 1.427 . S
N570 C567 1.384 . S
N571 C563 1.427 . S
N571 C569 1.384 . S
H572 C578 0.930 . S
H573 C582 0.930 . S
H574 C587 0.929 . S
H575 C585 0.929 . S
H576 C580 0.929 . S
H577 C586 0.929 . S
C578 H572 0.930 . S
C578 C579 1.367 . S
C578 C586 1.378 . S
C579 C578 1.367 . S
C579 C587 1.433 . S
C580 H576 0.929 . S
C580 C582 1.378 . S
C580 C584 1.350 . S
C581 C584 1.463 . S
C581 C586 1.350 . S
C581 N589 1.427 . S
C582 H573 0.930 . S
C582 C580 1.378 . S
C582 C583 1.367 . S
C583 C582 1.367 . S
C583 C585 1.433 . S
C584 C580 1.350 . S
C584 C581 1.463 . S
C584 N588 1.427 . S
C585 H575 0.929 . S
C585 C583 1.433 . S
C585 N588 1.384 . S
C586 H577 0.929 . S
C586 C578 1.378 . S
C586 C581 1.350 . S
C587 H574 0.929 . S
C587 C579 1.433 . S
C587 N589 1.384 . S
N588 C584 1.427 . S
N588 C585 1.384 . S
N589 C581 1.427 . S
N589 C587 1.384 . S
H590 C596 0.930 . S
H591 C600 0.930 . S
H592 C605 0.929 . S
H593 C603 0.929 . S
H594 C598 0.929 . S
H595 C604 0.929 . S
C596 H590 0.930 . S
C596 C597 1.367 . S
C596 C604 1.378 . S
C597 C596 1.367 . S
C597 C605 1.433 . S
C598 H594 0.929 . S
C598 C600 1.378 . S
C598 C602 1.350 . S
C599 C602 1.463 . S
C599 C604 1.350 . S
C599 N607 1.427 . S
C600 H591 0.930 . S
C600 C598 1.378 . S
C600 C601 1.367 . S
C601 C600 1.367 . S
C601 C603 1.433 . S
C602 C598 1.350 . S
C602 C599 1.463 . S
C602 N606 1.427 . S
C603 H593 0.929 . S
C603 C601 1.433 . S
C603 N606 1.384 . S
C604 H595 0.929 . S
C604 C596 1.378 . S
C604 C599 1.350 . S
C605 H592 0.929 . S
C605 C597 1.433 . S
C605 N607 1.384 . S
N606 C602 1.427 . S
N606 C603 1.384 . S
N607 C599 1.427 . S
N607 C605 1.384 . S
H608 C614 0.930 . S
H609 C618 0.930 . S
H610 C623 0.929 . S
H611 C621 0.924 1_554 S
H612 C616 0.929 . S
H613 C622 0.929 . S
C614 H608 0.930 . S
C614 C615 1.367 . S
C614 C622 1.378 . S
C615 C614 1.367 . S
C615 C623 1.433 . S
C616 H612 0.929 . S
C616 C618 1.378 . S
C616 C620 1.350 . S
C617 C620 1.463 . S
C617 C622 1.350 . S
C617 N625 1.427 . S
C618 H609 0.930 . S
C618 C616 1.378 . S
C618 C619 1.367 . S
C619 C618 1.367 . S
C619 C621 1.437 1_655 S
C620 C616 1.350 . S
C620 C617 1.463 . S
C620 N624 1.427 . S
C621 H611 0.924 1_556 S
C621 C619 1.437 1_455 S
C621 N624 1.386 1_455 S
C622 H613 0.929 . S
C622 C614 1.378 . S
C622 C617 1.350 . S
C623 H610 0.929 . S
C623 C615 1.433 . S
C623 N625 1.384 . S
N624 C620 1.427 . S
N624 C621 1.386 1_655 S
N625 C617 1.427 . S
N625 C623 1.384 . S
H626 C632 0.930 . S
H627 C636 0.930 . S
H628 C641 0.929 . S
H629 C639 0.929 . S
H630 C634 0.929 . S
H631 C640 0.929 . S
C632 H626 0.930 . S
C632 C633 1.367 . S
C632 C640 1.378 . S
C633 C632 1.367 . S
C633 C641 1.433 . S
C634 H630 0.929 . S
C634 C636 1.378 . S
C634 C638 1.350 . S
C635 C638 1.463 . S
C635 C640 1.350 . S
C635 N643 1.427 . S
C636 H627 0.930 . S
C636 C634 1.378 . S
C636 C637 1.367 . S
C637 C636 1.367 . S
C637 C639 1.433 . S
C638 C634 1.350 . S
C638 C635 1.463 . S
C638 N642 1.427 . S
C639 H629 0.929 . S
C639 C637 1.433 . S
C639 N642 1.384 . S
C640 H631 0.929 . S
C640 C632 1.378 . S
C640 C635 1.350 . S
C641 H628 0.929 . S
C641 C633 1.433 . S
C641 N643 1.384 . S
N642 C638 1.427 . S
N642 C639 1.384 . S
N643 C635 1.427 . S
N643 C641 1.384 . S
H644 C650 0.930 . S
H645 C654 0.930 . S
H646 C659 0.929 . S
H647 C657 0.929 . S
H648 C652 0.929 . S
H649 C658 0.929 . S
C650 H644 0.930 . S
C650 C651 1.367 . S
C650 C658 1.378 . S
C651 C650 1.367 . S
C651 C659 1.433 . S
C652 H648 0.929 . S
C652 C654 1.378 . S
C652 C656 1.350 . S
C653 C656 1.463 . S
C653 C658 1.350 . S
C653 N661 1.427 . S
C654 H645 0.930 . S
C654 C652 1.378 . S
C654 C655 1.367 . S
C655 C654 1.367 . S
C655 C657 1.433 . S
C656 C652 1.350 . S
C656 C653 1.463 . S
C656 N660 1.427 . S
C657 H647 0.929 . S
C657 C655 1.433 . S
C657 N660 1.384 . S
C658 H649 0.929 . S
C658 C650 1.378 . S
C658 C653 1.350 . S
C659 H646 0.929 . S
C659 C651 1.433 . S
C659 N661 1.384 . S
N660 C656 1.427 . S
N660 C657 1.384 . S
N661 C653 1.427 . S
N661 C659 1.384 . S
H662 C668 0.930 . S
H663 C672 0.930 . S
H664 C677 0.929 . S
H665 C675 0.929 . S
H666 C670 0.929 . S
H667 C676 0.929 . S
C668 H662 0.930 . S
C668 C669 1.367 . S
C668 C676 1.378 . S
C669 C668 1.367 . S
C669 C677 1.433 . S
C670 H666 0.929 . S
C670 C672 1.378 . S
C670 C674 1.350 . S
C671 C674 1.463 . S
C671 C676 1.350 . S
C671 N679 1.427 . S
C672 H663 0.930 . S
C672 C670 1.378 . S
C672 C673 1.367 . S
C673 C672 1.367 . S
C673 C675 1.433 . S
C674 C670 1.350 . S
C674 C671 1.463 . S
C674 N678 1.427 . S
C675 H665 0.929 . S
C675 C673 1.433 . S
C675 N678 1.384 . S
C676 H667 0.929 . S
C676 C668 1.378 . S
C676 C671 1.350 . S
C677 H664 0.929 . S
C677 C669 1.433 . S
C677 N679 1.384 . S
N678 C674 1.427 . S
N678 C675 1.384 . S
N679 C671 1.427 . S
N679 C677 1.384 . S
C255 C5 3.022 . S
C259 C107 3.204 . S
C273 C18 2.285 . S
C277 C138 2.300 1_556 S
C295 C177 1.012 . S
C291 C30 1.047 . S
C309 C41 0.469 . S
C313 C214 0.483 . S
C331 C137 3.172 . S
C327 C7 3.215 . S
C349 C94 1.604 . S
C345 C16 1.507 . S
C367 C226 1.447 . S
C363 C29 1.432 . S
C385 C183 0.824 . S
C381 C38 0.783 . S
C399 C8 2.482 . S
C403 C227 2.481 . S
C421 C143 1.497 . S
C417 C27 1.355 . S
C435 C40 0.509 . S
C439 C106 0.474 . S
C453 C19 2.068 . S
C457 C178 2.068 . S
C475 C98 3.006 . S
C471 C51 2.927 . S
C489 C62 2.356 . S
C493 C147 2.466 . S
C507 C74 1.213 . S
C511 C186 1.203 . S
C525 C84 0.539 . S
C529 C223 0.412 . S
C543 C49 3.017 . S
C547 C146 3.130 . S
C565 C103 1.359 . S
C561 C63 1.356 . S
C583 C217 1.277 . S
C579 C71 1.141 . S
C601 C174 0.900 . S
C597 C85 0.908 . S
C615 C52 2.333 . S
C619 C218 2.350 1_655 S
C637 C134 1.449 . S
C633 C73 1.364 . S
C655 C97 0.490 . S
C651 C82 0.584 . S
C669 C60 2.385 . S
C673 C187 2.412 . S
