# Generated by pormake.
# Topology dag, (6,3)-cn, num edge types: 1
# Building blocks:
#     Node 0, Type 0, BuildingBlock: OJICUG_clean_sbu_0, # of connection points: 6
#     Node 1, Type 0, BuildingBlock: OJICUG_clean_sbu_0, # of connection points: 6
#     Node 2, Type 0, BuildingBlock: OJICUG_clean_sbu_0, # of connection points: 6
#     Node 3, Type 0, BuildingBlock: OJICUG_clean_sbu_0, # of connection points: 6
#     Node 4, Type 1, BuildingBlock: OLANEW_clean_sbu_2, # of connection points: 3
#     Node 5, Type 1, BuildingBlock: OLANEW_clean_sbu_2, # of connection points: 3
#     Node 6, Type 1, BuildingBlock: OLANEW_clean_sbu_2, # of connection points: 3
#     Node 7, Type 1, BuildingBlock: OLANEW_clean_sbu_2, # of connection points: 3
#     Node 8, Type 1, BuildingBlock: OLANEW_clean_sbu_2, # of connection points: 3
#     Node 9, Type 1, BuildingBlock: OLANEW_clean_sbu_2, # of connection points: 3
#     Node 10, Type 1, BuildingBlock: OLANEW_clean_sbu_2, # of connection points: 3
#     Node 11, Type 1, BuildingBlock: OLANEW_clean_sbu_2, # of connection points: 3
#     Edge 12, Type (0, 1), BuildingBlock: AJUNOK_clean_linker_0, # of connection points: 2
#     Edge 13, Type (0, 1), BuildingBlock: AJUNOK_clean_linker_0, # of connection points: 2
#     Edge 14, Type (0, 1), BuildingBlock: AJUNOK_clean_linker_0, # of connection points: 2
#     Edge 15, Type (0, 1), BuildingBlock: AJUNOK_clean_linker_0, # of connection points: 2
#     Edge 16, Type (0, 1), BuildingBlock: AJUNOK_clean_linker_0, # of connection points: 2
#     Edge 17, Type (0, 1), BuildingBlock: AJUNOK_clean_linker_0, # of connection points: 2
#     Edge 18, Type (0, 1), BuildingBlock: AJUNOK_clean_linker_0, # of connection points: 2
#     Edge 19, Type (0, 1), BuildingBlock: AJUNOK_clean_linker_0, # of connection points: 2
#     Edge 20, Type (0, 1), BuildingBlock: AJUNOK_clean_linker_0, # of connection points: 2
#     Edge 21, Type (0, 1), BuildingBlock: AJUNOK_clean_linker_0, # of connection points: 2
#     Edge 22, Type (0, 1), BuildingBlock: AJUNOK_clean_linker_0, # of connection points: 2
#     Edge 23, Type (0, 1), BuildingBlock: AJUNOK_clean_linker_0, # of connection points: 2
#     Edge 24, Type (0, 1), BuildingBlock: AJUNOK_clean_linker_0, # of connection points: 2
#     Edge 25, Type (0, 1), BuildingBlock: AJUNOK_clean_linker_0, # of connection points: 2
#     Edge 26, Type (0, 1), BuildingBlock: AJUNOK_clean_linker_0, # of connection points: 2
#     Edge 27, Type (0, 1), BuildingBlock: AJUNOK_clean_linker_0, # of connection points: 2
#     Edge 28, Type (0, 1), BuildingBlock: AJUNOK_clean_linker_0, # of connection points: 2
#     Edge 29, Type (0, 1), BuildingBlock: AJUNOK_clean_linker_0, # of connection points: 2
#     Edge 30, Type (0, 1), BuildingBlock: AJUNOK_clean_linker_0, # of connection points: 2
#     Edge 31, Type (0, 1), BuildingBlock: AJUNOK_clean_linker_0, # of connection points: 2
#     Edge 32, Type (0, 1), BuildingBlock: AJUNOK_clean_linker_0, # of connection points: 2
#     Edge 33, Type (0, 1), BuildingBlock: AJUNOK_clean_linker_0, # of connection points: 2
#     Edge 34, Type (0, 1), BuildingBlock: AJUNOK_clean_linker_0, # of connection points: 2
#     Edge 35, Type (0, 1), BuildingBlock: AJUNOK_clean_linker_0, # of connection points: 2
# Relax obj value: 0.128
# Max RMSD: 0.164
# Mean RMSD: 0.126
data_MOF--net-dag--node1-OJICUG_clean_sbu_0--node2-OLANEW_clean_sbu_2--edge1-AJUNOK_clean_linker_0
_symmetry_space_group_name_H-M    P1
_symmetry_Int_Tables_number       1
_symmetry_cell_setting            triclinic
loop_
_symmetry_equiv_pos_as_xyz
'x, y, z'
_cell_length_a     31.45477
_cell_length_b     28.941455
_cell_length_c     30.904421
_cell_angle_alpha  92.432599
_cell_angle_beta   94.458379
_cell_angle_gamma 91.612944
loop_
_atom_site_label
_atom_site_type_symbol
_atom_site_fract_x
_atom_site_fract_y
_atom_site_fract_z
_atom_type_partial_charge
Sc0 Sc 0.07797 0.91598 0.01255 0.0
Sc1 Sc 0.12622 0.80845 0.99789 0.0
Sc2 Sc 0.19039 0.90958 0.02045 0.0
O3 O 0.1315 0.87809 0.01064 0.0
C4 C 0.14002 0.98597 0.96718 0.0
C5 C 0.05458 0.84726 0.93029 0.0
C6 C 0.201 0.83848 0.94039 0.0
C7 C 0.05 0.82295 0.05825 0.0
C8 C 0.13804 0.96073 0.09241 0.0
C9 C 0.20494 0.81591 0.07018 0.0
O10 O 0.10312 0.97212 0.97631 0.0
O11 O 0.07857 0.81546 0.94415 0.0
O12 O 0.21246 0.87543 0.96259 0.0
O13 O 0.04465 0.86511 0.0492 0.0
O14 O 0.17304 0.94781 0.07824 0.0
O15 O 0.17392 0.79325 0.04953 0.0
O16 O 0.10156 0.95112 0.07273 0.0
O17 O 0.07897 0.79903 0.04296 0.0
O18 O 0.21465 0.85741 0.06231 0.0
O19 O 0.05113 0.8854 0.9515 0.0
O20 O 0.17375 0.9661 0.9804 0.0
O21 O 0.1718 0.81084 0.95048 0.0
Sc22 Sc 0.74295 0.56939 0.4602 0.0
Sc23 Sc 0.69192 0.67608 0.44203 0.0
Sc24 Sc 0.63425 0.57913 0.47407 0.0
O25 O 0.68979 0.60835 0.45863 0.0
C26 C 0.67238 0.4959 0.41985 0.0
C27 C 0.75277 0.6282 0.37593 0.0
C28 C 0.6032 0.63856 0.39339 0.0
C29 C 0.77931 0.6672 0.50176 0.0
C30 C 0.70009 0.53844 0.54503 0.0
C31 C 0.62907 0.68031 0.51767 0.0
O32 O 0.71096 0.51082 0.42417 0.0
O33 O 0.72817 0.66021 0.3867 0.0
O34 O 0.5999 0.60398 0.41712 0.0
O35 O 0.78056 0.62348 0.49605 0.0
O36 O 0.66332 0.55224 0.53264 0.0
O37 O 0.65543 0.70037 0.4949 0.0
O38 O 0.73157 0.54005 0.52168 0.0
O39 O 0.74972 0.69085 0.48396 0.0
O40 O 0.61883 0.63773 0.51273 0.0
O41 O 0.76089 0.59411 0.3995 0.0
O42 O 0.6427 0.5165 0.43739 0.0
O43 O 0.63379 0.66859 0.39889 0.0
Sc44 Sc 0.82131 0.23369 0.05594 0.0
Sc45 Sc 0.77298 0.12591 0.01876 0.0
Sc46 Sc 0.88077 0.13349 0.05585 0.0
O47 O 0.82475 0.16434 0.04364 0.0
C48 C 0.90969 0.22803 0.01622 0.0
C49 C 0.76223 0.2181 0.96734 0.0
C50 C 0.84777 0.08604 0.96488 0.0
C51 C 0.73624 0.19375 0.09069 0.0
C52 C 0.88184 0.20197 0.13704 0.0
C53 C 0.81518 0.05583 0.08342 0.0
O54 O 0.87422 0.24762 0.01772 0.0
O55 O 0.75838 0.17452 0.96956 0.0
O56 O 0.87788 0.10264 0.9913 0.0
O57 O 0.76698 0.22361 0.09325 0.0
O58 O 0.88719 0.16182 0.12077 0.0
O59 O 0.78207 0.0724 0.06464 0.0
O60 O 0.86287 0.23339 0.11601 0.0
O61 O 0.73322 0.15892 0.06389 0.0
O62 O 0.85227 0.07318 0.08063 0.0
O63 O 0.7808 0.24396 0.99775 0.0
O64 O 0.91757 0.18971 0.03311 0.0
O65 O 0.8085 0.08878 0.97183 0.0
Sc66 Sc 0.38676 0.41157 0.53208 0.0
Sc67 Sc 0.28005 0.38701 0.55226 0.0
Sc68 Sc 0.35981 0.30558 0.57468 0.0
O69 O 0.34208 0.36804 0.55309 0.0
C70 C 0.41962 0.31407 0.49749 0.0
C71 C 0.30992 0.42252 0.462 0.0
C72 C 0.27228 0.28102 0.51727 0.0
C73 C 0.3276 0.48276 0.58098 0.0
C74 C 0.43331 0.3753 0.61824 0.0
C75 C 0.29137 0.33346 0.64097 0.0
O76 O 0.4202 0.358 0.49909 0.0
O77 O 0.28116 0.4157 0.48814 0.0
O78 O 0.30773 0.27008 0.5362 0.0
O79 O 0.36036 0.47223 0.5615 0.0
O80 O 0.41353 0.33608 0.61547 0.0
O81 O 0.2712 0.36099 0.61629 0.0
O82 O 0.42647 0.40625 0.5908 0.0
O83 O 0.29645 0.45423 0.58371 0.0
O84 O 0.32372 0.31223 0.62985 0.0
O85 O 0.34953 0.41946 0.4724 0.0
O86 O 0.3981 0.29026 0.52193 0.0
O87 O 0.25815 0.32182 0.52014 0.0
O88 O 0.13531 0.05056 0.2885 0.0
Cd89 Cd 0.11372 0.0812 0.35859 0.0
O90 O 0.10812 0.10836 0.25289 0.0
Cd91 Cd 0.08059 0.14616 0.30607 0.0
O92 O 0.01627 0.17185 0.2953 0.0
C93 C 0.01053 0.20914 0.27564 0.0
O94 O 0.0441 0.23535 0.26936 0.0
C95 C 0.12714 0.0702 0.25288 0.0
C96 C 0.16961 0.14467 0.4063 0.0
O97 O 0.17396 0.10098 0.40921 0.0
O98 O 0.13953 0.15828 0.37994 0.0
O99 O 0.27919 0.68282 0.66734 0.0
Cd100 Cd 0.28271 0.7658 0.68809 0.0
O101 O 0.34656 0.69918 0.66344 0.0
Cd102 Cd 0.41422 0.69426 0.65388 0.0
O103 O 0.47943 0.69952 0.63537 0.0
C104 C 0.49275 0.73375 0.61512 0.0
O105 O 0.46681 0.76748 0.60631 0.0
C106 C 0.31554 0.66978 0.65753 0.0
C107 C 0.25696 0.79085 0.76993 0.0
O108 O 0.23047 0.78687 0.73621 0.0
O109 O 0.29606 0.78192 0.76515 0.0
O110 O 0.92653 0.66449 0.12097 0.0
Cd111 Cd 0.86782 0.61019 0.13193 0.0
O112 O 0.88975 0.72003 0.14821 0.0
Cd113 Cd 0.87707 0.79092 0.16726 0.0
O114 O 0.86104 0.86303 0.16598 0.0
C115 C 0.82381 0.87416 0.15211 0.0
O116 O 0.79485 0.84123 0.14139 0.0
C117 C 0.92304 0.70717 0.13086 0.0
C118 C 0.83248 0.62323 0.21152 0.0
O119 O 0.8638 0.59645 0.20714 0.0
O120 O 0.81819 0.64456 0.17819 0.0
O121 O 0.6858 0.40132 0.69718 0.0
Cd122 Cd 0.65007 0.34603 0.74176 0.0
O123 O 0.68772 0.46331 0.74141 0.0
Cd124 Cd 0.65507 0.42596 0.78924 0.0
O125 O 0.59065 0.39906 0.77198 0.0
C126 C 0.5695 0.42772 0.7498 0.0
O127 O 0.58639 0.46936 0.74649 0.0
C128 C 0.69476 0.44421 0.70491 0.0
C129 C 0.69402 0.30628 0.81201 0.0
O130 O 0.69306 0.28731 0.77367 0.0
O131 O 0.67581 0.345 0.81661 0.0
O132 O 0.58707 0.30659 0.32123 0.0
Cd133 Cd 0.56017 0.23403 0.28498 0.0
O134 O 0.64979 0.28215 0.3447 0.0
Cd135 Cd 0.6184 0.21411 0.34249 0.0
O136 O 0.56937 0.23288 0.3856 0.0
C137 C 0.53057 0.21906 0.38322 0.0
O138 O 0.51673 0.18705 0.35367 0.0
C139 C 0.62464 0.31528 0.3385 0.0
C140 C 0.61219 0.21495 0.21827 0.0
O141 O 0.58206 0.2436 0.21354 0.0
O142 O 0.61699 0.19426 0.25407 0.0
O143 O 0.21411 0.17743 0.905 0.0
Cd144 Cd 0.22782 0.26023 0.89585 0.0
O145 O 0.15294 0.18676 0.86877 0.0
Cd146 Cd 0.08719 0.17391 0.84343 0.0
O147 O 0.03003 0.2004 0.86877 0.0
C148 C 0.03783 0.23261 0.89778 0.0
O149 O 0.07732 0.24845 0.90598 0.0
C150 C 0.17746 0.1611 0.8911 0.0
C151 C 0.2446 0.28565 0.81264 0.0
O152 O 0.27434 0.27376 0.84033 0.0
O153 O 0.20627 0.28458 0.82401 0.0
O154 O 0.42015 0.68382 0.29466 0.0
Cd155 Cd 0.34178 0.67963 0.27922 0.0
O156 O 0.42484 0.6096 0.27856 0.0
Cd157 Cd 0.35605 0.59543 0.26868 0.0
O158 O 0.31299 0.55554 0.30602 0.0
C159 C 0.31488 0.51177 0.30228 0.0
O160 O 0.33728 0.49398 0.27189 0.0
C161 C 0.44284 0.64829 0.29111 0.0
C162 C 0.30359 0.72623 0.20924 0.0
O163 O 0.31306 0.74688 0.2464 0.0
O164 O 0.3136 0.68376 0.20458 0.0
O165 O 0.01056 0.79745 0.72598 0.0
Cd166 Cd -0.00064 0.79695 0.64648 0.0
O167 O 0.95777 0.84465 0.73147 0.0
Cd168 Cd 0.91687 0.88817 0.76869 0.0
O169 O 0.88813 0.93396 0.8151 0.0
C170 C 0.89834 0.97681 0.81685 0.0
O171 O 0.92404 0.99258 0.78897 0.0
C172 C 0.98849 0.82291 0.74944 0.0
C173 C 0.92385 0.75599 0.60685 0.0
O174 O 0.95702 0.73222 0.61536 0.0
O175 O 0.92592 0.79907 0.61856 0.0
C176 C 0.1621 0.97943 0.17079 0.0
C177 C 0.13929 0.99116 0.1321 0.0
C178 C 0.15942 0.00612 0.20959 0.0
C179 C 0.13459 0.04598 0.21073 0.0
H180 H 0.18066 0.94845 0.17147 0.0
H181 H 0.17608 0.99478 0.23907 0.0
S182 S 0.07298 0.09383 0.116 0.0
N183 N 0.09392 0.04661 0.0961 0.0
N184 N 0.08951 0.09739 0.16807 0.0
C185 C 0.11365 0.05926 0.17133 0.0
C186 C 0.1158 0.03166 0.13229 0.0
C187 C 0.59861 0.6871 0.5886 0.0
C188 C 0.60514 0.70676 0.54878 0.0
C189 C 0.564 0.6992 0.61195 0.0
C190 C 0.53451 0.73131 0.59619 0.0
H191 H 0.61828 0.65924 0.59988 0.0
H192 H 0.5587 0.68078 0.64095 0.0
S193 S 0.54182 0.79823 0.49698 0.0
N194 N 0.58301 0.76406 0.49728 0.0
N195 N 0.51773 0.78744 0.54128 0.0
C196 C 0.5434 0.75498 0.55881 0.0
C197 C 0.57888 0.74254 0.53502 0.0
C198 C 0.84659 1.00052 0.13546 0.0
C199 C 0.81184 0.01271 0.10722 0.0
C200 C 0.84869 0.95654 0.15218 0.0
C201 C 0.81614 0.92278 0.14135 0.0
H202 H 0.87345 0.02447 0.14334 0.0
H203 H 0.87713 0.94839 0.1721 0.0
S204 S 0.71465 0.93982 0.07497 0.0
N205 N 0.74143 0.98957 0.07378 0.0
N206 N 0.74528 0.90657 0.10538 0.0
C207 C 0.7794 0.93574 0.11631 0.0
C208 C 0.77725 0.98081 0.09923 0.0
C209 C 0.47675 0.43356 0.66548 0.0
C210 C 0.4652 0.38679 0.65528 0.0
C211 C 0.50881 0.44629 0.69787 0.0
C212 C 0.53096 0.41286 0.72151 0.0
H213 H 0.4614 0.46088 0.64779 0.0
H214 H 0.51714 0.48276 0.70337 0.0
S215 S 0.51062 0.28569 0.71033 0.0
N216 N 0.47642 0.30687 0.67361 0.0
N217 N 0.53714 0.33084 0.73467 0.0
C218 C 0.51839 0.36598 0.71335 0.0
C219 C 0.48543 0.35294 0.6802 0.0
C220 C 0.69161 0.41836 0.38866 0.0
C221 C 0.66087 0.45195 0.3947 0.0
C222 C 0.67996 0.37458 0.36929 0.0
C223 C 0.63726 0.36303 0.35483 0.0
H224 H 0.72462 0.42523 0.4004 0.0
H225 H 0.70449 0.34934 0.3665 0.0
S226 S 0.54503 0.44006 0.36016 0.0
N227 N 0.58624 0.47158 0.38216 0.0
N228 N 0.56448 0.38982 0.34606 0.0
C229 C 0.60656 0.39709 0.35903 0.0
C230 C 0.61833 0.44138 0.37887 0.0
C231 C 0.93006 0.2423 0.94244 0.0
C232 C 0.94096 0.24481 0.98744 0.0
C233 C 0.96181 0.24142 0.91307 0.0
C234 C 0.00525 0.24403 0.92792 0.0
H235 H 0.89707 0.23665 0.92998 0.0
H236 H 0.95238 0.23605 0.87872 0.0
S237 S 0.04954 0.25624 0.04283 0.0
N238 N 0.99732 0.25336 0.04556 0.0
N239 N 0.05724 0.25356 0.99054 0.0
C240 C 0.01628 0.25066 0.97281 0.0
C241 C 0.98398 0.25053 0.0026 0.0
C242 C 0.28084 0.4817 0.41286 0.0
C243 C 0.29833 0.43805 0.41811 0.0
C244 C 0.28276 0.50394 0.37352 0.0
C245 C 0.30215 0.4831 0.33824 0.0
H246 H 0.26907 0.50044 0.44035 0.0
H247 H 0.27176 0.53901 0.37193 0.0
S248 S 0.34467 0.36459 0.33397 0.0
N249 N 0.32993 0.37192 0.38385 0.0
N250 N 0.33268 0.4127 0.30951 0.0
C251 C 0.31537 0.43719 0.34192 0.0
C252 C 0.31382 0.41497 0.38208 0.0
C253 C 0.027 0.79698 0.86515 0.0
C254 C 0.033 0.84137 0.88569 0.0
C255 C 0.01128 0.79113 0.82137 0.0
C256 C 0.00066 0.82937 0.79658 0.0
H257 H 0.03543 0.76652 0.8827 0.0
H258 H 0.00808 0.75646 0.8066 0.0
S259 S 0.01369 0.95294 0.83335 0.0
N260 N 0.02848 0.92436 0.87677 0.0
N261 N -0.00039 0.91309 0.79471 0.0
C262 C 0.00626 0.87383 0.81658 0.0
C263 C 0.02217 0.87989 0.86108 0.0
C264 C 0.83522 0.02151 0.90873 0.0
C265 C 0.85921 0.06104 0.925 0.0
C266 C 0.84772 0.99492 0.87321 0.0
C267 C 0.88414 0.00746 0.85212 0.0
H268 H 0.80741 0.01011 0.92446 0.0
H269 H 0.8289 0.96404 0.86249 0.0
S270 S 0.95577 0.11033 0.88012 0.0
N271 N 0.91972 0.11298 0.91614 0.0
N272 N 0.94285 0.06355 0.8489 0.0
C273 C 0.90743 0.04803 0.86704 0.0
C274 C 0.89509 0.07465 0.90364 0.0
C275 C 0.48421 0.31083 0.45541 0.0
C276 C 0.44627 0.28955 0.46699 0.0
C277 C 0.51119 0.28753 0.42852 0.0
C278 C 0.50098 0.2423 0.41148 0.0
H279 H 0.49366 0.34543 0.46794 0.0
H280 H 0.54022 0.30536 0.42081 0.0
S281 S 0.40408 0.17214 0.43 0.0
N282 N 0.39905 0.22113 0.45825 0.0
N283 N 0.44955 0.17764 0.40705 0.0
C284 C 0.46263 0.22099 0.4219 0.0
C285 C 0.43538 0.2445 0.44987 0.0
C286 C 0.18345 0.03638 0.92235 0.0
C287 C 0.14516 0.02845 0.94217 0.0
C288 C 0.19254 0.07864 0.90399 0.0
C289 C 0.16358 0.11468 0.90411 0.0
H290 H 0.2074 0.01021 0.92218 0.0
H291 H 0.2231 0.08362 0.89063 0.0
S292 S 0.05891 0.11243 0.95178 0.0
N293 N 0.07769 0.06055 0.96011 0.0
N294 N 0.09512 0.14007 0.9258 0.0
C295 C 0.12453 0.10693 0.92235 0.0
C296 C 0.1152 0.06377 0.94123 0.0
C297 C 0.54442 0.6854 0.36032 0.0
C298 C 0.56798 0.64485 0.35978 0.0
C299 C 0.50528 0.68776 0.33525 0.0
C300 C 0.48851 0.64971 0.30857 0.0
H301 H 0.55479 0.71427 0.38246 0.0
H302 H 0.48689 0.71855 0.33899 0.0
S303 S 0.54311 0.5393 0.28939 0.0
N304 N 0.57519 0.56851 0.32632 0.0
N305 N 0.50255 0.57299 0.27835 0.0
C306 C 0.51405 0.61064 0.3049 0.0
C307 C 0.55347 0.60815 0.33082 0.0
C308 C 0.29794 0.54023 0.63337 0.0
C309 C 0.32573 0.53054 0.60076 0.0
C310 C 0.29541 0.58516 0.65198 0.0
C311 C 0.32061 0.62224 0.63888 0.0
H312 H 0.27801 0.51289 0.64477 0.0
H313 H 0.27351 0.59089 0.67691 0.0
S314 S 0.39506 0.61677 0.55151 0.0
N315 N 0.37727 0.56289 0.5545 0.0
N316 N 0.37143 0.64704 0.58867 0.0
C317 C 0.34791 0.61332 0.60581 0.0
C318 C 0.35074 0.5676 0.587 0.0
C319 C 0.97649 0.8113 0.0839 0.0
C320 C 0.0194 0.79845 0.08446 0.0
C321 C 0.94555 0.78293 0.10128 0.0
C322 C 0.95651 0.74084 0.11987 0.0
H323 H 0.96622 0.84197 0.06765 0.0
H324 H 0.91252 0.79263 0.09763 0.0
S325 S 0.06534 0.69544 0.13613 0.0
N326 N 0.07187 0.74366 0.11043 0.0
N327 N 0.01378 0.69052 0.14235 0.0
C328 C -0.00037 0.72929 0.12326 0.0
C329 C 0.03106 0.75809 0.10587 0.0
C330 C 0.72487 0.47576 0.5933 0.0
C331 C 0.70569 0.51867 0.58827 0.0
C332 C 0.72394 0.45298 0.63247 0.0
C333 C 0.70483 0.47295 0.66824 0.0
H334 H 0.73832 0.45841 0.566 0.0
H335 H 0.7366 0.41861 0.63414 0.0
S336 S 0.65516 0.58783 0.67276 0.0
N337 N 0.67043 0.58216 0.62295 0.0
N338 N 0.66969 0.54032 0.69691 0.0
C339 C 0.68849 0.51755 0.66445 0.0
C340 C 0.68858 0.54012 0.62432 0.0
C341 C 0.93451 0.24966 0.18524 0.0
C342 C 0.9042 0.21292 0.18006 0.0
C343 C 0.96675 0.25092 0.21939 0.0
C344 C 0.96959 0.21549 0.2494 0.0
H345 H 0.93589 0.275 0.16052 0.0
H346 H 0.99153 0.27775 0.21999 0.0
S347 S 0.89094 0.11816 0.25522 0.0
N348 N 0.87415 0.14511 0.21138 0.0
N349 N 0.93389 0.14774 0.27612 0.0
C350 C 0.93605 0.18196 0.24749 0.0
C351 C 0.9036 0.18054 0.21254 0.0
C352 C 0.23501 0.74541 0.10467 0.0
C353 C 0.23063 0.79369 0.10556 0.0
C354 C 0.25949 0.72406 0.13773 0.0
C355 C 0.28 0.75003 0.1734 0.0
H356 H 0.21969 0.72393 0.07805 0.0
H357 H 0.26172 0.68676 0.13561 0.0
S358 S 0.27758 0.87758 0.19177 0.0
N359 N 0.24849 0.86684 0.14548 0.0
N360 N 0.29393 0.82683 0.20754 0.0
C361 C 0.2757 0.79834 0.17474 0.0
C362 C 0.25121 0.82011 0.14088 0.0
C363 C 0.85029 0.6659 0.54446 0.0
C364 C 0.81462 0.69108 0.52994 0.0
C365 C 0.88475 0.68703 0.56994 0.0
C366 C 0.88525 0.73439 0.58231 0.0
H367 H 0.85213 0.62943 0.53564 0.0
H368 H 0.91151 0.66596 0.57951 0.0
S369 S 0.79896 0.81587 0.55513 0.0
N370 N 0.78133 0.76604 0.53148 0.0
N371 N 0.84619 0.80576 0.57941 0.0
C372 C 0.84946 0.75998 0.56895 0.0
C373 C 0.81423 0.73839 0.54279 0.0
C374 C 0.68478 0.24085 0.12967 0.0
C375 C 0.70348 0.19811 0.12194 0.0
C376 C 0.65405 0.24554 0.15994 0.0
C377 C 0.64211 0.20801 0.18434 0.0
H378 H 0.69379 0.27071 0.11205 0.0
H379 H 0.64047 0.27913 0.16516 0.0
S380 S 0.68243 0.08902 0.17639 0.0
N381 N 0.70783 0.11753 0.1405 0.0
N382 N 0.65125 0.12678 0.19863 0.0
C383 C 0.66076 0.16516 0.17697 0.0
C384 C 0.69117 0.16009 0.14538 0.0
C385 C 0.30832 0.30927 0.7165 0.0
C386 C 0.27793 0.32497 0.68502 0.0
C387 C 0.2971 0.29721 0.75745 0.0
C388 C 0.25487 0.30005 0.76897 0.0
H389 H 0.34133 0.30589 0.70945 0.0
H390 H 0.3219 0.28501 0.78007 0.0
S391 S 0.16313 0.34064 0.69905 0.0
N392 N 0.20384 0.34402 0.66852 0.0
N393 N 0.18245 0.32121 0.74586 0.0
C394 C 0.22411 0.31661 0.73821 0.0
C395 C 0.23571 0.32922 0.69626 0.0
C396 C 0.80755 0.60096 0.32706 0.0
C397 C 0.77329 0.62994 0.33419 0.0
C398 C 0.82681 0.59992 0.28776 0.0
C399 C 0.81265 0.62762 0.25356 0.0
H400 H 0.81969 0.57851 0.35201 0.0
H401 H 0.8527 0.57653 0.28409 0.0
S402 S 0.72488 0.71078 0.25561 0.0
N403 N 0.72661 0.68805 0.3038 0.0
N404 N 0.76285 0.68604 0.22975 0.0
C405 C 0.77891 0.65747 0.26033 0.0
C406 C 0.75929 0.65868 0.30062 0.0
C407 C 0.73413 0.28641 0.92859 0.0
C408 C 0.74544 0.23973 0.92714 0.0
C409 C 0.71824 0.30771 0.89107 0.0
C410 C 0.71353 0.28342 0.85044 0.0
H411 H 0.73696 0.30656 0.95908 0.0
H412 H 0.70936 0.34353 0.89411 0.0
S413 S 0.7412 0.16113 0.82862 0.0
N414 N 0.75256 0.17028 0.88138 0.0
N415 N 0.72296 0.21037 0.81084 0.0
C416 C 0.72566 0.23697 0.84833 0.0
C417 C 0.74146 0.21512 0.88666 0.0
C418 C 0.20887 0.2572 0.46593 0.0
C419 C 0.24687 0.24517 0.48941 0.0
C420 C 0.18467 0.2247 0.43872 0.0
C421 C 0.19715 0.17858 0.43392 0.0
H422 H 0.19754 0.29213 0.46839 0.0
H423 H 0.15557 0.23584 0.42173 0.0
S424 S 0.29469 0.12903 0.48657 0.0
N425 N 0.29638 0.18352 0.50482 0.0
N426 N 0.25063 0.12263 0.45395 0.0
C427 C 0.23517 0.16595 0.45682 0.0
C428 C 0.26005 0.19913 0.48443 0.0
C429 C 0.2595 0.82434 0.89094 0.0
C430 C 0.21623 0.83033 0.89695 0.0
C431 C 0.27255 0.81177 0.84964 0.0
C432 C 0.24276 0.80534 0.81308 0.0
H433 H 0.2831 0.82797 0.91842 0.0
H434 H 0.30616 0.80661 0.84649 0.0
S435 S 0.12589 0.82161 0.81215 0.0
N436 N 0.14398 0.83195 0.86329 0.0
N437 N 0.16812 0.80901 0.78594 0.0
C438 C 0.19951 0.813 0.81884 0.0
C439 C 0.18637 0.82534 0.86072 0.0
loop_
_geom_bond_atom_site_label_1
_geom_bond_atom_site_label_2
_geom_bond_distance
_geom_bond_site_symmetry_2
_ccdc_geom_bond_type
Sc0 O3 2.028 . S
Sc0 O10 2.105 1_554 S
Sc0 O13 2.105 . S
Sc0 O16 2.105 . S
Sc0 O19 2.105 1_554 S
Sc1 O3 2.018 1_556 S
Sc1 O11 2.105 . S
Sc1 O15 2.105 1_556 S
Sc1 O17 2.105 1_556 S
Sc1 O21 2.105 . S
Sc2 O3 2.030 . S
Sc2 O12 2.105 1_554 S
Sc2 O14 2.105 . S
Sc2 O18 2.105 . S
Sc2 O20 2.105 1_554 S
O3 Sc0 2.028 . S
O3 Sc1 2.018 1_554 S
O3 Sc2 2.030 . S
C4 O10 1.268 . S
C4 O20 1.268 . S
C5 O11 1.268 . S
C5 O19 1.268 . S
C6 O12 1.268 . S
C6 O21 1.268 . S
C7 O13 1.268 . S
C7 O17 1.268 . S
C8 O14 1.268 . S
C8 O16 1.268 . S
C9 O15 1.268 . S
C9 O18 1.268 . S
O10 Sc0 2.105 1_556 S
O10 C4 1.268 . S
O11 Sc1 2.105 . S
O11 C5 1.268 . S
O12 Sc2 2.105 1_556 S
O12 C6 1.268 . S
O13 Sc0 2.105 . S
O13 C7 1.268 . S
O14 Sc2 2.105 . S
O14 C8 1.268 . S
O15 Sc1 2.105 1_554 S
O15 C9 1.268 . S
O16 Sc0 2.105 . S
O16 C8 1.268 . S
O17 Sc1 2.105 1_554 S
O17 C7 1.268 . S
O18 Sc2 2.105 . S
O18 C9 1.268 . S
O19 Sc0 2.105 1_556 S
O19 C5 1.268 . S
O20 Sc2 2.105 1_556 S
O20 C4 1.268 . S
O21 Sc1 2.105 . S
O21 C6 1.268 . S
Sc22 O25 2.025 . S
Sc22 O32 2.105 . S
Sc22 O35 2.105 . S
Sc22 O38 2.105 . S
Sc22 O41 2.105 . S
Sc23 O25 2.025 . S
Sc23 O33 2.105 . S
Sc23 O37 2.105 . S
Sc23 O39 2.105 . S
Sc23 O43 2.105 . S
Sc24 O25 2.025 . S
Sc24 O34 2.105 . S
Sc24 O36 2.105 . S
Sc24 O40 2.105 . S
Sc24 O42 2.105 . S
O25 Sc22 2.025 . S
O25 Sc23 2.025 . S
O25 Sc24 2.025 . S
C26 O32 1.268 . S
C26 O42 1.268 . S
C27 O33 1.268 . S
C27 O41 1.268 . S
C28 O34 1.268 . S
C28 O43 1.268 . S
C29 O35 1.268 . S
C29 O39 1.268 . S
C30 O36 1.268 . S
C30 O38 1.268 . S
C31 O37 1.268 . S
C31 O40 1.268 . S
O32 Sc22 2.105 . S
O32 C26 1.268 . S
O33 Sc23 2.105 . S
O33 C27 1.268 . S
O34 Sc24 2.105 . S
O34 C28 1.268 . S
O35 Sc22 2.105 . S
O35 C29 1.268 . S
O36 Sc24 2.105 . S
O36 C30 1.268 . S
O37 Sc23 2.105 . S
O37 C31 1.268 . S
O38 Sc22 2.105 . S
O38 C30 1.268 . S
O39 Sc23 2.105 . S
O39 C29 1.268 . S
O40 Sc24 2.105 . S
O40 C31 1.268 . S
O41 Sc22 2.105 . S
O41 C27 1.268 . S
O42 Sc24 2.105 . S
O42 C26 1.268 . S
O43 Sc23 2.105 . S
O43 C28 1.268 . S
Sc44 O47 2.025 . S
Sc44 O54 2.105 . S
Sc44 O57 2.105 . S
Sc44 O60 2.105 . S
Sc44 O63 2.105 1_554 S
Sc45 O47 2.025 . S
Sc45 O55 2.105 1_554 S
Sc45 O59 2.105 . S
Sc45 O61 2.105 . S
Sc45 O65 2.105 1_554 S
Sc46 O47 2.025 . S
Sc46 O56 2.105 1_554 S
Sc46 O58 2.105 . S
Sc46 O62 2.105 . S
Sc46 O64 2.105 1_554 S
O47 Sc44 2.025 . S
O47 Sc45 2.025 . S
O47 Sc46 2.025 . S
C48 O54 1.268 1_556 S
C48 O64 1.268 . S
C49 O55 1.268 . S
C49 O63 1.268 . S
C50 O56 1.268 . S
C50 O65 1.268 . S
C51 O57 1.268 . S
C51 O61 1.268 . S
C52 O58 1.268 . S
C52 O60 1.268 . S
C53 O59 1.268 . S
C53 O62 1.268 . S
O54 Sc44 2.105 . S
O54 C48 1.268 1_554 S
O55 Sc45 2.105 1_556 S
O55 C49 1.268 . S
O56 Sc46 2.105 1_556 S
O56 C50 1.268 . S
O57 Sc44 2.105 . S
O57 C51 1.268 . S
O58 Sc46 2.105 . S
O58 C52 1.268 . S
O59 Sc45 2.105 . S
O59 C53 1.268 . S
O60 Sc44 2.105 . S
O60 C52 1.268 . S
O61 Sc45 2.105 . S
O61 C51 1.268 . S
O62 Sc46 2.105 . S
O62 C53 1.268 . S
O63 Sc44 2.105 1_556 S
O63 C49 1.268 . S
O64 Sc46 2.105 1_556 S
O64 C48 1.268 . S
O65 Sc45 2.105 1_556 S
O65 C50 1.268 . S
Sc66 O69 2.025 . S
Sc66 O76 2.105 . S
Sc66 O79 2.105 . S
Sc66 O82 2.105 . S
Sc66 O85 2.105 . S
Sc67 O69 2.025 . S
Sc67 O77 2.105 . S
Sc67 O81 2.105 . S
Sc67 O83 2.105 . S
Sc67 O87 2.105 . S
Sc68 O69 2.025 . S
Sc68 O78 2.105 . S
Sc68 O80 2.105 . S
Sc68 O84 2.105 . S
Sc68 O86 2.105 . S
O69 Sc66 2.025 . S
O69 Sc67 2.025 . S
O69 Sc68 2.025 . S
C70 O76 1.268 . S
C70 O86 1.268 . S
C71 O77 1.268 . S
C71 O85 1.268 . S
C72 O78 1.268 . S
C72 O87 1.268 . S
C73 O79 1.268 . S
C73 O83 1.268 . S
C74 O80 1.268 . S
C74 O82 1.268 . S
C75 O81 1.268 . S
C75 O84 1.268 . S
O76 Sc66 2.105 . S
O76 C70 1.268 . S
O77 Sc67 2.105 . S
O77 C71 1.268 . S
O78 Sc68 2.105 . S
O78 C72 1.268 . S
O79 Sc66 2.105 . S
O79 C73 1.268 . S
O80 Sc68 2.105 . S
O80 C74 1.268 . S
O81 Sc67 2.105 . S
O81 C75 1.268 . S
O82 Sc66 2.105 . S
O82 C74 1.268 . S
O83 Sc67 2.105 . S
O83 C73 1.268 . S
O84 Sc68 2.105 . S
O84 C75 1.268 . S
O85 Sc66 2.105 . S
O85 C71 1.268 . S
O86 Sc68 2.105 . S
O86 C70 1.268 . S
O87 Sc67 2.105 . S
O87 C72 1.268 . S
O88 Cd89 2.300 . S
O88 C95 1.275 . S
Cd89 O88 2.300 . S
Cd89 O97 2.381 . S
Cd89 O98 2.378 . S
O90 Cd91 2.385 . S
O90 C95 1.255 . S
Cd91 O90 2.385 . S
Cd91 O92 2.317 . S
O92 Cd91 2.317 . S
O92 C93 1.232 . S
C93 O92 1.232 . S
C93 O94 1.218 . S
O94 C93 1.218 . S
C95 O88 1.275 . S
C95 O90 1.255 . S
C96 O97 1.258 . S
C96 O98 1.256 . S
O97 Cd89 2.381 . S
O97 C96 1.258 . S
O98 Cd89 2.378 . S
O98 C96 1.256 . S
O99 Cd100 2.300 . S
O99 C106 1.275 . S
Cd100 O99 2.300 . S
Cd100 O108 2.381 . S
Cd100 O109 2.378 . S
O101 Cd102 2.385 . S
O101 C106 1.255 . S
Cd102 O101 2.385 . S
Cd102 O103 2.317 . S
O103 Cd102 2.317 . S
O103 C104 1.232 . S
C104 O103 1.232 . S
C104 O105 1.218 . S
O105 C104 1.218 . S
C106 O99 1.275 . S
C106 O101 1.255 . S
C107 O108 1.258 . S
C107 O109 1.256 . S
O108 Cd100 2.381 . S
O108 C107 1.258 . S
O109 Cd100 2.378 . S
O109 C107 1.256 . S
O110 Cd111 2.300 . S
O110 C117 1.275 . S
Cd111 O110 2.300 . S
Cd111 O119 2.381 . S
Cd111 O120 2.378 . S
O112 Cd113 2.385 . S
O112 C117 1.255 . S
Cd113 O112 2.385 . S
Cd113 O114 2.317 . S
O114 Cd113 2.317 . S
O114 C115 1.232 . S
C115 O114 1.232 . S
C115 O116 1.218 . S
O116 C115 1.218 . S
C117 O110 1.275 . S
C117 O112 1.255 . S
C118 O119 1.258 . S
C118 O120 1.256 . S
O119 Cd111 2.381 . S
O119 C118 1.258 . S
O120 Cd111 2.378 . S
O120 C118 1.256 . S
O121 Cd122 2.300 . S
O121 C128 1.275 . S
Cd122 O121 2.300 . S
Cd122 O130 2.381 . S
Cd122 O131 2.378 . S
O123 Cd124 2.385 . S
O123 C128 1.255 . S
Cd124 O123 2.385 . S
Cd124 O125 2.317 . S
O125 Cd124 2.317 . S
O125 C126 1.232 . S
C126 O125 1.232 . S
C126 O127 1.218 . S
O127 C126 1.218 . S
C128 O121 1.275 . S
C128 O123 1.255 . S
C129 O130 1.258 . S
C129 O131 1.256 . S
O130 Cd122 2.381 . S
O130 C129 1.258 . S
O131 Cd122 2.378 . S
O131 C129 1.256 . S
O132 Cd133 2.300 . S
O132 C139 1.275 . S
Cd133 O132 2.300 . S
Cd133 O141 2.381 . S
Cd133 O142 2.378 . S
O134 Cd135 2.385 . S
O134 C139 1.255 . S
Cd135 O134 2.385 . S
Cd135 O136 2.317 . S
O136 Cd135 2.317 . S
O136 C137 1.232 . S
C137 O136 1.232 . S
C137 O138 1.218 . S
O138 C137 1.218 . S
C139 O132 1.275 . S
C139 O134 1.255 . S
C140 O141 1.258 . S
C140 O142 1.256 . S
O141 Cd133 2.381 . S
O141 C140 1.258 . S
O142 Cd133 2.378 . S
O142 C140 1.256 . S
O143 Cd144 2.300 . S
O143 C150 1.275 . S
Cd144 O143 2.300 . S
Cd144 O152 2.381 . S
Cd144 O153 2.378 . S
O145 Cd146 2.385 . S
O145 C150 1.255 . S
Cd146 O145 2.385 . S
Cd146 O147 2.317 . S
O147 Cd146 2.317 . S
O147 C148 1.232 . S
C148 O147 1.232 . S
C148 O149 1.218 . S
O149 C148 1.218 . S
C150 O143 1.275 . S
C150 O145 1.255 . S
C151 O152 1.258 . S
C151 O153 1.256 . S
O152 Cd144 2.381 . S
O152 C151 1.258 . S
O153 Cd144 2.378 . S
O153 C151 1.256 . S
O154 Cd155 2.300 . S
O154 C161 1.275 . S
Cd155 O154 2.300 . S
Cd155 O163 2.381 . S
Cd155 O164 2.378 . S
O156 Cd157 2.385 . S
O156 C161 1.255 . S
Cd157 O156 2.385 . S
Cd157 O158 2.317 . S
O158 Cd157 2.317 . S
O158 C159 1.232 . S
C159 O158 1.232 . S
C159 O160 1.218 . S
O160 C159 1.218 . S
C161 O154 1.275 . S
C161 O156 1.255 . S
C162 O163 1.258 . S
C162 O164 1.256 . S
O163 Cd155 2.381 . S
O163 C162 1.258 . S
O164 Cd155 2.378 . S
O164 C162 1.256 . S
O165 Cd166 2.300 . S
O165 C172 1.275 . S
Cd166 O165 2.300 . S
Cd166 O174 2.381 . S
Cd166 O175 2.378 . S
O167 Cd168 2.385 . S
O167 C172 1.255 . S
Cd168 O167 2.385 . S
Cd168 O169 2.317 . S
O169 Cd168 2.317 . S
O169 C170 1.232 . S
C170 O169 1.232 . S
C170 O171 1.218 . S
O171 C170 1.218 . S
C172 O165 1.275 . S
C172 O167 1.255 . S
C173 O174 1.258 . S
C173 O175 1.256 . S
O174 Cd166 2.381 . S
O174 C173 1.258 . S
O175 Cd166 2.378 . S
O175 C173 1.256 . S
C176 C177 1.369 . S
C176 C178 1.419 . S
C176 H180 0.930 . S
C177 C176 1.369 . S
C177 C186 1.429 . S
C178 C176 1.419 . S
C178 C179 1.363 . S
C178 H181 0.929 . S
C179 C178 1.363 . S
C179 C185 1.428 1_565 S
H180 C176 0.930 . S
H181 C178 0.929 . S
S182 N183 1.613 . S
S182 N184 1.610 . S
N183 S182 1.613 . S
N183 C186 1.350 1_545 S
N184 S182 1.610 . S
N184 C185 1.351 . S
C185 C179 1.428 1_545 S
C185 N184 1.351 . S
C185 C186 1.434 1_545 S
C186 C177 1.429 . S
C186 N183 1.350 1_565 S
C186 C185 1.434 1_565 S
C187 C188 1.369 . S
C187 C189 1.419 . S
C187 H191 0.930 . S
C188 C187 1.369 . S
C188 C197 1.429 . S
C189 C187 1.419 . S
C189 C190 1.363 . S
C189 H192 0.929 . S
C190 C189 1.363 . S
C190 C196 1.428 . S
H191 C187 0.930 . S
H192 C189 0.929 . S
S193 N194 1.613 . S
S193 N195 1.610 . S
N194 S193 1.613 . S
N194 C197 1.350 . S
N195 S193 1.610 . S
N195 C196 1.351 . S
C196 C190 1.428 . S
C196 N195 1.351 . S
C196 C197 1.434 . S
C197 C188 1.429 . S
C197 N194 1.350 . S
C197 C196 1.434 . S
C198 C199 1.369 1_565 S
C198 C200 1.419 . S
C198 H202 0.930 1_565 S
C199 C198 1.369 1_545 S
C199 C208 1.429 1_545 S
C200 C198 1.419 . S
C200 C201 1.363 . S
C200 H203 0.929 . S
C201 C200 1.363 . S
C201 C207 1.428 . S
H202 C198 0.930 1_545 S
H203 C200 0.929 . S
S204 N205 1.613 . S
S204 N206 1.610 1_556 S
N205 S204 1.613 . S
N205 C208 1.350 1_556 S
N206 S204 1.610 1_554 S
N206 C207 1.351 . S
C207 C201 1.428 . S
C207 N206 1.351 . S
C207 C208 1.434 . S
C208 C199 1.429 1_565 S
C208 N205 1.350 1_554 S
C208 C207 1.434 . S
C209 C210 1.369 . S
C209 C211 1.419 . S
C209 H213 0.930 . S
C210 C209 1.369 . S
C210 C219 1.429 . S
C211 C209 1.419 . S
C211 C212 1.363 . S
C211 H214 0.929 . S
C212 C211 1.363 . S
C212 C218 1.428 . S
H213 C209 0.930 . S
H214 C211 0.929 . S
S215 N216 1.613 . S
S215 N217 1.610 . S
N216 S215 1.613 . S
N216 C219 1.350 . S
N217 S215 1.610 . S
N217 C218 1.351 . S
C218 C212 1.428 . S
C218 N217 1.351 . S
C218 C219 1.434 . S
C219 C210 1.429 . S
C219 N216 1.350 . S
C219 C218 1.434 . S
C220 C221 1.369 . S
C220 C222 1.419 . S
C220 H224 0.930 . S
C221 C220 1.369 . S
C221 C230 1.429 . S
C222 C220 1.419 . S
C222 C223 1.363 . S
C222 H225 0.929 . S
C223 C222 1.363 . S
C223 C229 1.428 . S
H224 C220 0.930 . S
H225 C222 0.929 . S
S226 N227 1.613 . S
S226 N228 1.610 . S
N227 S226 1.613 . S
N227 C230 1.350 . S
N228 S226 1.610 . S
N228 C229 1.351 . S
C229 C223 1.428 . S
C229 N228 1.351 . S
C229 C230 1.434 . S
C230 C221 1.429 . S
C230 N227 1.350 . S
C230 C229 1.434 . S
C231 C232 1.369 . S
C231 C233 1.419 1_655 S
C231 H235 0.930 . S
C232 C231 1.369 . S
C232 C241 1.429 . S
C233 C231 1.419 1_455 S
C233 C234 1.363 . S
C233 H236 0.929 . S
C234 C233 1.363 . S
C234 C240 1.428 . S
H235 C231 0.930 . S
H236 C233 0.929 . S
S237 N238 1.613 1_455 S
S237 N239 1.610 . S
N238 S237 1.613 1_655 S
N238 C241 1.350 1_554 S
N239 S237 1.610 . S
N239 C240 1.351 1_554 S
C240 C234 1.428 . S
C240 N239 1.351 1_556 S
C240 C241 1.434 1_455 S
C241 C232 1.429 . S
C241 N238 1.350 1_556 S
C241 C240 1.434 1_655 S
C242 C243 1.369 . S
C242 C244 1.419 . S
C242 H246 0.930 . S
C243 C242 1.369 . S
C243 C252 1.429 . S
C244 C242 1.419 . S
C244 C245 1.363 . S
C244 H247 0.929 . S
C245 C244 1.363 . S
C245 C251 1.428 . S
H246 C242 0.930 . S
H247 C244 0.929 . S
S248 N249 1.613 . S
S248 N250 1.610 . S
N249 S248 1.613 . S
N249 C252 1.350 . S
N250 S248 1.610 . S
N250 C251 1.351 . S
C251 C245 1.428 . S
C251 N250 1.351 . S
C251 C252 1.434 . S
C252 C243 1.429 . S
C252 N249 1.350 . S
C252 C251 1.434 . S
C253 C254 1.369 . S
C253 C255 1.419 1_455 S
C253 H257 0.930 . S
C254 C253 1.369 . S
C254 C263 1.429 . S
C255 C253 1.419 1_655 S
C255 C256 1.363 . S
C255 H258 0.929 . S
C256 C255 1.363 . S
C256 C262 1.428 1_655 S
H257 C253 0.930 . S
H258 C255 0.929 . S
S259 N260 1.613 . S
S259 N261 1.610 . S
N260 S259 1.613 . S
N260 C263 1.350 . S
N261 S259 1.610 . S
N261 C262 1.351 . S
C262 C256 1.428 1_455 S
C262 N261 1.351 . S
C262 C263 1.434 . S
C263 C254 1.429 . S
C263 N260 1.350 . S
C263 C262 1.434 . S
C264 C265 1.369 . S
C264 C266 1.419 . S
C264 H268 0.930 . S
C265 C264 1.369 . S
C265 C274 1.429 . S
C266 C264 1.419 . S
C266 C267 1.363 . S
C266 H269 0.929 1_545 S
C267 C266 1.363 . S
C267 C273 1.428 . S
H268 C264 0.930 . S
H269 C266 0.929 1_565 S
S270 N271 1.613 . S
S270 N272 1.610 . S
N271 S270 1.613 . S
N271 C274 1.350 . S
N272 S270 1.610 . S
N272 C273 1.351 . S
C273 C267 1.428 . S
C273 N272 1.351 . S
C273 C274 1.434 . S
C274 C265 1.429 . S
C274 N271 1.350 . S
C274 C273 1.434 . S
C275 C276 1.369 . S
C275 C277 1.419 . S
C275 H279 0.930 . S
C276 C275 1.369 . S
C276 C285 1.429 . S
C277 C275 1.419 . S
C277 C278 1.363 . S
C277 H280 0.929 . S
C278 C277 1.363 . S
C278 C284 1.428 . S
H279 C275 0.930 . S
H280 C277 0.929 . S
S281 N282 1.613 . S
S281 N283 1.610 . S
N282 S281 1.613 . S
N282 C285 1.350 . S
N283 S281 1.610 . S
N283 C284 1.351 . S
C284 C278 1.428 . S
C284 N283 1.351 . S
C284 C285 1.434 . S
C285 C276 1.429 . S
C285 N282 1.350 . S
C285 C284 1.434 . S
C286 C287 1.369 . S
C286 C288 1.419 . S
C286 H290 0.930 . S
C287 C286 1.369 . S
C287 C296 1.429 . S
C288 C286 1.419 . S
C288 C289 1.363 . S
C288 H291 0.929 . S
C289 C288 1.363 . S
C289 C295 1.428 . S
H290 C286 0.930 . S
H291 C288 0.929 . S
S292 N293 1.613 . S
S292 N294 1.610 . S
N293 S292 1.613 . S
N293 C296 1.350 . S
N294 S292 1.610 . S
N294 C295 1.351 . S
C295 C289 1.428 . S
C295 N294 1.351 . S
C295 C296 1.434 . S
C296 C287 1.429 . S
C296 N293 1.350 . S
C296 C295 1.434 . S
C297 C298 1.369 . S
C297 C299 1.419 . S
C297 H301 0.930 . S
C298 C297 1.369 . S
C298 C307 1.429 . S
C299 C297 1.419 . S
C299 C300 1.363 . S
C299 H302 0.929 . S
C300 C299 1.363 . S
C300 C306 1.428 . S
H301 C297 0.930 . S
H302 C299 0.929 . S
S303 N304 1.613 . S
S303 N305 1.610 . S
N304 S303 1.613 . S
N304 C307 1.350 . S
N305 S303 1.610 . S
N305 C306 1.351 . S
C306 C300 1.428 . S
C306 N305 1.351 . S
C306 C307 1.434 . S
C307 C298 1.429 . S
C307 N304 1.350 . S
C307 C306 1.434 . S
C308 C309 1.369 . S
C308 C310 1.419 . S
C308 H312 0.930 . S
C309 C308 1.369 . S
C309 C318 1.429 . S
C310 C308 1.419 . S
C310 C311 1.363 . S
C310 H313 0.929 . S
C311 C310 1.363 . S
C311 C317 1.428 . S
H312 C308 0.930 . S
H313 C310 0.929 . S
S314 N315 1.613 . S
S314 N316 1.610 . S
N315 S314 1.613 . S
N315 C318 1.350 . S
N316 S314 1.610 . S
N316 C317 1.351 . S
C317 C311 1.428 . S
C317 N316 1.351 . S
C317 C318 1.434 . S
C318 C309 1.429 . S
C318 N315 1.350 . S
C318 C317 1.434 . S
C319 C320 1.369 1_655 S
C319 C321 1.419 . S
C319 H323 0.930 . S
C320 C319 1.369 1_455 S
C320 C329 1.429 . S
C321 C319 1.419 . S
C321 C322 1.363 . S
C321 H324 0.929 . S
C322 C321 1.363 . S
C322 C328 1.428 . S
H323 C319 0.930 . S
H324 C321 0.929 . S
S325 N326 1.613 . S
S325 N327 1.610 1_455 S
N326 S325 1.613 . S
N326 C329 1.350 . S
N327 S325 1.610 1_655 S
N327 C328 1.351 . S
C328 C322 1.428 . S
C328 N327 1.351 . S
C328 C329 1.434 1_655 S
C329 C320 1.429 . S
C329 N326 1.350 . S
C329 C328 1.434 1_455 S
C330 C331 1.369 . S
C330 C332 1.419 . S
C330 H334 0.930 . S
C331 C330 1.369 . S
C331 C340 1.429 . S
C332 C330 1.419 . S
C332 C333 1.363 . S
C332 H335 0.929 . S
C333 C332 1.363 . S
C333 C339 1.428 . S
H334 C330 0.930 . S
H335 C332 0.929 . S
S336 N337 1.613 . S
S336 N338 1.610 . S
N337 S336 1.613 . S
N337 C340 1.350 . S
N338 S336 1.610 . S
N338 C339 1.351 . S
C339 C333 1.428 . S
C339 N338 1.351 . S
C339 C340 1.434 . S
C340 C331 1.429 . S
C340 N337 1.350 . S
C340 C339 1.434 . S
C341 C342 1.369 . S
C341 C343 1.419 . S
C341 H345 0.930 . S
C342 C341 1.369 . S
C342 C351 1.429 . S
C343 C341 1.419 . S
C343 C344 1.363 . S
C343 H346 0.929 . S
C344 C343 1.363 . S
C344 C350 1.428 . S
H345 C341 0.930 . S
H346 C343 0.929 . S
S347 N348 1.613 1_455 S
S347 N349 1.610 . S
N348 S347 1.613 1_655 S
N348 C351 1.350 . S
N349 S347 1.610 . S
N349 C350 1.351 1_455 S
C350 C344 1.428 . S
C350 N349 1.351 1_655 S
C350 C351 1.434 . S
C351 C342 1.429 . S
C351 N348 1.350 . S
C351 C350 1.434 . S
C352 C353 1.369 . S
C352 C354 1.419 . S
C352 H356 0.930 . S
C353 C352 1.369 . S
C353 C362 1.429 . S
C354 C352 1.419 . S
C354 C355 1.363 . S
C354 H357 0.929 . S
C355 C354 1.363 . S
C355 C361 1.428 . S
H356 C352 0.930 . S
H357 C354 0.929 . S
S358 N359 1.613 . S
S358 N360 1.610 . S
N359 S358 1.613 . S
N359 C362 1.350 . S
N360 S358 1.610 . S
N360 C361 1.351 . S
C361 C355 1.428 . S
C361 N360 1.351 . S
C361 C362 1.434 . S
C362 C353 1.429 . S
C362 N359 1.350 . S
C362 C361 1.434 . S
C363 C364 1.369 . S
C363 C365 1.419 . S
C363 H367 0.930 . S
C364 C363 1.369 . S
C364 C373 1.429 . S
C365 C363 1.419 . S
C365 C366 1.363 . S
C365 H368 0.929 . S
C366 C365 1.363 . S
C366 C372 1.428 . S
H367 C363 0.930 . S
H368 C365 0.929 . S
S369 N370 1.613 . S
S369 N371 1.610 . S
N370 S369 1.613 . S
N370 C373 1.350 . S
N371 S369 1.610 . S
N371 C372 1.351 . S
C372 C366 1.428 . S
C372 N371 1.351 . S
C372 C373 1.434 . S
C373 C364 1.429 . S
C373 N370 1.350 . S
C373 C372 1.434 . S
C374 C375 1.369 . S
C374 C376 1.419 . S
C374 H378 0.930 . S
C375 C374 1.369 . S
C375 C384 1.429 . S
C376 C374 1.419 . S
C376 C377 1.363 . S
C376 H379 0.929 . S
C377 C376 1.363 . S
C377 C383 1.428 . S
H378 C374 0.930 . S
H379 C376 0.929 . S
S380 N381 1.613 . S
S380 N382 1.610 . S
N381 S380 1.613 . S
N381 C384 1.350 . S
N382 S380 1.610 . S
N382 C383 1.351 . S
C383 C377 1.428 . S
C383 N382 1.351 . S
C383 C384 1.434 . S
C384 C375 1.429 . S
C384 N381 1.350 . S
C384 C383 1.434 . S
C385 C386 1.369 . S
C385 C387 1.419 . S
C385 H389 0.930 . S
C386 C385 1.369 . S
C386 C395 1.429 . S
C387 C385 1.419 . S
C387 C388 1.363 . S
C387 H390 0.929 . S
C388 C387 1.363 . S
C388 C394 1.428 . S
H389 C385 0.930 . S
H390 C387 0.929 . S
S391 N392 1.613 . S
S391 N393 1.610 . S
N392 S391 1.613 . S
N392 C395 1.350 . S
N393 S391 1.610 . S
N393 C394 1.351 . S
C394 C388 1.428 . S
C394 N393 1.351 . S
C394 C395 1.434 . S
C395 C386 1.429 . S
C395 N392 1.350 . S
C395 C394 1.434 . S
C396 C397 1.369 . S
C396 C398 1.419 . S
C396 H400 0.930 . S
C397 C396 1.369 . S
C397 C406 1.429 . S
C398 C396 1.419 . S
C398 C399 1.363 . S
C398 H401 0.929 . S
C399 C398 1.363 . S
C399 C405 1.428 . S
H400 C396 0.930 . S
H401 C398 0.929 . S
S402 N403 1.613 . S
S402 N404 1.610 . S
N403 S402 1.613 . S
N403 C406 1.350 . S
N404 S402 1.610 . S
N404 C405 1.351 . S
C405 C399 1.428 . S
C405 N404 1.351 . S
C405 C406 1.434 . S
C406 C397 1.429 . S
C406 N403 1.350 . S
C406 C405 1.434 . S
C407 C408 1.369 . S
C407 C409 1.419 . S
C407 H411 0.930 . S
C408 C407 1.369 . S
C408 C417 1.429 . S
C409 C407 1.419 . S
C409 C410 1.363 . S
C409 H412 0.929 . S
C410 C409 1.363 . S
C410 C416 1.428 . S
H411 C407 0.930 . S
H412 C409 0.929 . S
S413 N414 1.613 . S
S413 N415 1.610 . S
N414 S413 1.613 . S
N414 C417 1.350 . S
N415 S413 1.610 . S
N415 C416 1.351 . S
C416 C410 1.428 . S
C416 N415 1.351 . S
C416 C417 1.434 . S
C417 C408 1.429 . S
C417 N414 1.350 . S
C417 C416 1.434 . S
C418 C419 1.369 . S
C418 C420 1.419 . S
C418 H422 0.930 . S
C419 C418 1.369 . S
C419 C428 1.429 . S
C420 C418 1.419 . S
C420 C421 1.363 . S
C420 H423 0.929 . S
C421 C420 1.363 . S
C421 C427 1.428 . S
H422 C418 0.930 . S
H423 C420 0.929 . S
S424 N425 1.613 . S
S424 N426 1.610 . S
N425 S424 1.613 . S
N425 C428 1.350 . S
N426 S424 1.610 . S
N426 C427 1.351 . S
C427 C421 1.428 . S
C427 N426 1.351 . S
C427 C428 1.434 . S
C428 C419 1.429 . S
C428 N425 1.350 . S
C428 C427 1.434 . S
C429 C430 1.369 . S
C429 C431 1.419 . S
C429 H433 0.930 . S
C430 C429 1.369 . S
C430 C439 1.429 . S
C431 C429 1.419 . S
C431 C432 1.363 . S
C431 H434 0.929 . S
C432 C431 1.363 . S
C432 C438 1.428 . S
H433 C429 0.930 . S
H434 C431 0.929 . S
S435 N436 1.613 . S
S435 N437 1.610 . S
N436 S435 1.613 . S
N436 C439 1.350 . S
N437 S435 1.610 . S
N437 C438 1.351 . S
C438 C432 1.428 . S
C438 N437 1.351 . S
C438 C439 1.434 . S
C439 C430 1.429 . S
C439 N436 1.350 . S
C439 C438 1.434 . S
C177 C8 1.642 . S
C179 C95 1.521 1_565 S
C188 C31 1.509 . S
C190 C104 1.145 . S
C199 C53 1.297 . S
C201 C115 1.013 . S
C212 C126 1.150 . S
C210 C74 1.208 . S
C223 C139 1.389 . S
C221 C26 1.360 . S
C232 C48 1.277 . S
C234 C148 0.934 . S
C243 C71 1.231 . S
C245 C159 1.129 . S
C254 C5 1.727 . S
C256 C172 1.608 . S
C265 C50 1.304 . S
C267 C170 0.917 1_545 S
C278 C137 1.211 . S
C276 C70 1.435 . S
C289 C150 1.590 . S
C287 C4 1.655 1_545 S
C298 C28 1.695 . S
C300 C161 1.712 . S
C311 C106 1.424 . S
C309 C73 1.435 . S
C320 C7 1.717 . S
C322 C117 1.646 . S
C333 C128 1.561 . S
C331 C30 1.563 . S
C344 C93 0.911 1_655 S
C342 C52 1.303 . S
C355 C162 1.499 . S
C353 C9 1.463 . S
C366 C173 1.480 . S
C364 C29 1.528 . S
C375 C51 1.417 . S
C377 C140 1.394 . S
C388 C151 1.441 . S
C386 C75 1.541 . S
C399 C118 1.563 . S
C397 C27 1.670 . S
C408 C49 1.419 . S
C410 C129 1.414 . S
C421 C96 1.437 . S
C419 C72 1.481 . S
C432 C107 1.446 . S
C430 C6 1.496 . S
