# Generated by pormake.
# Topology soc, (4,6)-cn, num edge types: 1
# Building blocks:
#     Node 0, Type 0, BuildingBlock: ESEHIV_clean_sbu_0, # of connection points: 4
#     Node 1, Type 0, BuildingBlock: ESEHIV_clean_sbu_0, # of connection points: 4
#     Node 2, Type 0, BuildingBlock: ESEHIV_clean_sbu_0, # of connection points: 4
#     Node 3, Type 0, BuildingBlock: ESEHIV_clean_sbu_0, # of connection points: 4
#     Node 4, Type 0, BuildingBlock: ESEHIV_clean_sbu_0, # of connection points: 4
#     Node 5, Type 0, BuildingBlock: ESEHIV_clean_sbu_0, # of connection points: 4
#     Node 6, Type 0, BuildingBlock: ESEHIV_clean_sbu_0, # of connection points: 4
#     Node 7, Type 0, BuildingBlock: ESEHIV_clean_sbu_0, # of connection points: 4
#     Node 8, Type 0, BuildingBlock: ESEHIV_clean_sbu_0, # of connection points: 4
#     Node 9, Type 0, BuildingBlock: ESEHIV_clean_sbu_0, # of connection points: 4
#     Node 10, Type 0, BuildingBlock: ESEHIV_clean_sbu_0, # of connection points: 4
#     Node 11, Type 0, BuildingBlock: ESEHIV_clean_sbu_0, # of connection points: 4
#     Node 12, Type 1, BuildingBlock: BETDAH_clean_sbu_0, # of connection points: 6
#     Node 13, Type 1, BuildingBlock: BETDAH_clean_sbu_0, # of connection points: 6
#     Node 14, Type 1, BuildingBlock: BETDAH_clean_sbu_0, # of connection points: 6
#     Node 15, Type 1, BuildingBlock: BETDAH_clean_sbu_0, # of connection points: 6
#     Node 16, Type 1, BuildingBlock: BETDAH_clean_sbu_0, # of connection points: 6
#     Node 17, Type 1, BuildingBlock: BETDAH_clean_sbu_0, # of connection points: 6
#     Node 18, Type 1, BuildingBlock: BETDAH_clean_sbu_0, # of connection points: 6
#     Node 19, Type 1, BuildingBlock: BETDAH_clean_sbu_0, # of connection points: 6
#     Edge 20, Type (0, 1), BuildingBlock: XUDNAN_clean_linker_2, # of connection points: 2
#     Edge 21, Type (0, 1), BuildingBlock: XUDNAN_clean_linker_2, # of connection points: 2
#     Edge 22, Type (0, 1), BuildingBlock: XUDNAN_clean_linker_2, # of connection points: 2
#     Edge 23, Type (0, 1), BuildingBlock: XUDNAN_clean_linker_2, # of connection points: 2
#     Edge 24, Type (0, 1), BuildingBlock: XUDNAN_clean_linker_2, # of connection points: 2
#     Edge 25, Type (0, 1), BuildingBlock: XUDNAN_clean_linker_2, # of connection points: 2
#     Edge 26, Type (0, 1), BuildingBlock: XUDNAN_clean_linker_2, # of connection points: 2
#     Edge 27, Type (0, 1), BuildingBlock: XUDNAN_clean_linker_2, # of connection points: 2
#     Edge 28, Type (0, 1), BuildingBlock: XUDNAN_clean_linker_2, # of connection points: 2
#     Edge 29, Type (0, 1), BuildingBlock: XUDNAN_clean_linker_2, # of connection points: 2
#     Edge 30, Type (0, 1), BuildingBlock: XUDNAN_clean_linker_2, # of connection points: 2
#     Edge 31, Type (0, 1), BuildingBlock: XUDNAN_clean_linker_2, # of connection points: 2
#     Edge 32, Type (0, 1), BuildingBlock: XUDNAN_clean_linker_2, # of connection points: 2
#     Edge 33, Type (0, 1), BuildingBlock: XUDNAN_clean_linker_2, # of connection points: 2
#     Edge 34, Type (0, 1), BuildingBlock: XUDNAN_clean_linker_2, # of connection points: 2
#     Edge 35, Type (0, 1), BuildingBlock: XUDNAN_clean_linker_2, # of connection points: 2
#     Edge 36, Type (0, 1), BuildingBlock: XUDNAN_clean_linker_2, # of connection points: 2
#     Edge 37, Type (0, 1), BuildingBlock: XUDNAN_clean_linker_2, # of connection points: 2
#     Edge 38, Type (0, 1), BuildingBlock: XUDNAN_clean_linker_2, # of connection points: 2
#     Edge 39, Type (0, 1), BuildingBlock: XUDNAN_clean_linker_2, # of connection points: 2
#     Edge 40, Type (0, 1), BuildingBlock: XUDNAN_clean_linker_2, # of connection points: 2
#     Edge 41, Type (0, 1), BuildingBlock: XUDNAN_clean_linker_2, # of connection points: 2
#     Edge 42, Type (0, 1), BuildingBlock: XUDNAN_clean_linker_2, # of connection points: 2
#     Edge 43, Type (0, 1), BuildingBlock: XUDNAN_clean_linker_2, # of connection points: 2
#     Edge 44, Type (0, 1), BuildingBlock: XUDNAN_clean_linker_2, # of connection points: 2
#     Edge 45, Type (0, 1), BuildingBlock: XUDNAN_clean_linker_2, # of connection points: 2
#     Edge 46, Type (0, 1), BuildingBlock: XUDNAN_clean_linker_2, # of connection points: 2
#     Edge 47, Type (0, 1), BuildingBlock: XUDNAN_clean_linker_2, # of connection points: 2
#     Edge 48, Type (0, 1), BuildingBlock: XUDNAN_clean_linker_2, # of connection points: 2
#     Edge 49, Type (0, 1), BuildingBlock: XUDNAN_clean_linker_2, # of connection points: 2
#     Edge 50, Type (0, 1), BuildingBlock: XUDNAN_clean_linker_2, # of connection points: 2
#     Edge 51, Type (0, 1), BuildingBlock: XUDNAN_clean_linker_2, # of connection points: 2
#     Edge 52, Type (0, 1), BuildingBlock: XUDNAN_clean_linker_2, # of connection points: 2
#     Edge 53, Type (0, 1), BuildingBlock: XUDNAN_clean_linker_2, # of connection points: 2
#     Edge 54, Type (0, 1), BuildingBlock: XUDNAN_clean_linker_2, # of connection points: 2
#     Edge 55, Type (0, 1), BuildingBlock: XUDNAN_clean_linker_2, # of connection points: 2
#     Edge 56, Type (0, 1), BuildingBlock: XUDNAN_clean_linker_2, # of connection points: 2
#     Edge 57, Type (0, 1), BuildingBlock: XUDNAN_clean_linker_2, # of connection points: 2
#     Edge 58, Type (0, 1), BuildingBlock: XUDNAN_clean_linker_2, # of connection points: 2
#     Edge 59, Type (0, 1), BuildingBlock: XUDNAN_clean_linker_2, # of connection points: 2
#     Edge 60, Type (0, 1), BuildingBlock: XUDNAN_clean_linker_2, # of connection points: 2
#     Edge 61, Type (0, 1), BuildingBlock: XUDNAN_clean_linker_2, # of connection points: 2
#     Edge 62, Type (0, 1), BuildingBlock: XUDNAN_clean_linker_2, # of connection points: 2
#     Edge 63, Type (0, 1), BuildingBlock: XUDNAN_clean_linker_2, # of connection points: 2
#     Edge 64, Type (0, 1), BuildingBlock: XUDNAN_clean_linker_2, # of connection points: 2
#     Edge 65, Type (0, 1), BuildingBlock: XUDNAN_clean_linker_2, # of connection points: 2
#     Edge 66, Type (0, 1), BuildingBlock: XUDNAN_clean_linker_2, # of connection points: 2
#     Edge 67, Type (0, 1), BuildingBlock: XUDNAN_clean_linker_2, # of connection points: 2
# Relax obj value: 0.183
# Max RMSD: 0.286
# Mean RMSD: 0.175
data_MOF--net-soc--node1-ESEHIV_clean_sbu_0--node2-BETDAH_clean_sbu_0--edge1-XUDNAN_clean_linker_2
_symmetry_space_group_name_H-M    P1
_symmetry_Int_Tables_number       1
_symmetry_cell_setting            triclinic
loop_
_symmetry_equiv_pos_as_xyz
'x, y, z'
_cell_length_a     50.816526
_cell_length_b     50.117865
_cell_length_c     43.181566
_cell_angle_alpha  82.101517
_cell_angle_beta   82.854376
_cell_angle_gamma 69.03613
loop_
_atom_site_label
_atom_site_type_symbol
_atom_site_fract_x
_atom_site_fract_y
_atom_site_fract_z
_atom_type_partial_charge
Cu0 Cu 0.05247 0.03671 0.39516 0.0
N1 N 0.07093 0.05017 0.42138 0.0
N2 N 0.0954 0.07461 0.4371 0.0
C3 C 0.08797 0.06573 0.41242 0.0
C4 C 0.08161 0.06523 0.4625 0.0
C5 C 0.06626 0.0507 0.45273 0.0
O6 O 0.07937 0.0098 0.36718 0.0
C7 C 1.00347 0.07738 0.36157 0.0
O8 O 1.00036 0.05688 0.34809 0.0
H9 H 0.09383 0.07149 0.38823 0.0
H10 H 0.05134 0.04278 0.46748 0.0
N11 N 0.03403 0.01359 0.41915 0.0
N12 N 1.0111 0.9822 0.42889 0.0
C13 C 1.01559 1.00367 0.40887 0.0
C14 C 0.04172 0.9975 0.44636 0.0
C15 C 1.0273 0.97861 0.4527 0.0
C16 C 0.10498 1.00738 0.3586 0.0
O17 O 0.11385 0.02829 0.36186 0.0
H18 H 1.00773 0.01018 0.38589 0.0
H19 H 0.05858 0.99743 0.45933 0.0
O20 O 1.02428 0.07192 0.37801 0.0
H21 H 0.08145 0.06972 0.48634 0.0
H22 H 0.0299 0.96237 0.47249 0.0
Cu23 Cu 0.05378 0.05724 0.73804 0.0
N24 N 0.03584 0.03762 0.71983 0.0
N25 N 1.00712 0.01345 0.71682 0.0
C26 C 1.01469 0.02932 0.73442 0.0
C27 C 1.0242 0.01171 0.69004 0.0
C28 C 0.04188 0.02678 0.69192 0.0
O29 O 1.02457 0.08491 0.7625 0.0
C30 C 0.10335 0.01213 0.74477 0.0
O31 O 0.10184 0.01552 0.71425 0.0
H32 H 1.00579 0.03396 0.75802 0.0
H33 H 0.05837 0.02911 0.67452 0.0
N34 N 0.07062 0.07765 0.70788 0.0
N35 N 0.09718 0.10436 0.68979 0.0
C36 C 0.09128 0.08658 0.71371 0.0
C37 C 0.06346 0.08969 0.67889 0.0
C38 C 0.08002 0.10618 0.66754 0.0
C39 C 1.02814 0.10578 0.773 0.0
O40 O 0.05374 0.10674 0.77162 0.0
H41 H 0.10097 0.08105 0.73575 0.0
H42 H 0.04651 0.08778 0.66751 0.0
O43 O 0.08362 0.02897 0.76157 0.0
H44 H 1.02402 1.00026 0.6706 0.0
H45 H 0.07835 0.11979 0.64559 0.0
Cu46 Cu 0.30698 0.05947 0.10483 0.0
N47 N 0.34485 0.03829 0.09567 0.0
N48 N 0.37709 1.00561 0.06753 0.0
C49 C 0.35094 0.01406 0.08218 0.0
C50 C 0.38832 0.02518 0.07256 0.0
C51 C 0.36835 0.04533 0.09026 0.0
O52 O 0.29073 0.03042 0.12428 0.0
C53 C 0.30637 0.09868 0.05399 0.0
O54 O 0.32423 0.10189 0.07142 0.0
H55 H 0.33496 1.0051 0.07949 0.0
H56 H 0.3699 0.06507 0.09583 0.0
N57 N 0.30074 0.08678 0.13257 0.0
N58 N 0.30543 0.1152 0.1652 0.0
C59 C 0.31804 0.09062 0.15145 0.0
C60 C 0.27657 0.10941 0.13476 0.0
C61 C 0.27941 0.12703 0.15479 0.0
C62 C 0.30198 0.01662 0.14928 0.0
O63 O 0.32051 0.0249 0.16023 0.0
H64 H 0.33961 0.07641 0.15412 0.0
H65 H 0.25843 0.11315 0.12188 0.0
O66 O 0.29387 0.0808 0.06455 0.0
H67 H 0.40844 0.02625 0.06202 0.0
H68 H 0.26369 0.14715 0.16104 0.0
Cu69 Cu 0.08432 0.3022 0.11443 0.0
N70 N 0.09154 0.32867 0.08301 0.0
N71 N 0.11063 0.34416 0.03775 0.0
C72 C 0.11097 0.32132 0.05854 0.0
C73 C 0.09008 0.36681 0.04985 0.0
C74 C 0.07827 0.35715 0.07772 0.0
O75 O 0.11887 0.28719 0.13708 0.0
C76 C 0.06038 0.26221 0.09424 0.0
O77 O 0.04972 0.25764 0.12294 0.0
H78 H 0.12497 0.29949 0.05614 0.0
H79 H 0.06089 0.36984 0.09266 0.0
N80 N 0.05185 0.32059 0.14016 0.0
N81 N 1.00809 0.33181 0.16427 0.0
C82 C 1.0259 0.31901 0.14039 0.0
C83 C 0.05002 0.3362 0.16385 0.0
C84 C 1.02321 0.3429 0.17893 0.0
C85 C 0.12148 0.28427 0.16657 0.0
O86 O 0.09923 0.28657 0.18649 0.0
H87 H 1.02034 0.30807 0.12382 0.0
H88 H 0.06727 0.34158 0.17032 0.0
O89 O 0.0774 0.27614 0.0891 0.0
H90 H 0.08345 0.38871 0.03903 0.0
H91 H 1.0157 0.35458 0.19944 0.0
Cu92 Cu 0.8101 1.00676 1.00681 0.0
N93 N 0.83599 0.01918 0.98019 0.0
N94 N 0.85148 0.04913 0.94636 0.0
C95 C 0.83262 0.04678 0.97046 0.0
C96 C 0.86741 0.02198 0.94076 0.0
C97 C 0.85783 1.00351 0.96176 0.0
O98 O 0.7875 0.03805 0.03163 0.0
C99 C 0.77444 0.97856 0.9919 0.0
O100 O 0.76946 0.9746 0.02246 0.0
H101 H 0.81503 0.06473 0.97885 0.0
H102 H 0.8648 0.98046 0.96181 0.0
N103 N 0.82843 0.97571 0.03471 0.0
N104 N 0.83554 0.94586 0.0786 0.0
C105 C 0.81946 0.97135 0.065 0.0
C106 C 0.85094 0.95214 0.02891 0.0
C107 C 0.85534 0.9336 0.056 0.0
C108 C 0.80159 0.04374 0.05063 0.0
O109 O 0.82885 0.02927 0.05082 0.0
H110 H 0.80056 0.98587 0.07633 0.0
H111 H 0.86262 0.94815 1.00635 0.0
O112 O 0.78955 0.99364 0.9807 0.0
H113 H 0.88352 0.01602 0.92154 0.0
H114 H 0.87129 0.9124 0.05863 0.0
Cu115 Cu 0.02957 0.76963 0.02797 0.0
N116 N 1.0155 0.75476 0.99873 0.0
N117 N 0.98774 0.75278 0.96321 0.0
C118 C 0.99416 0.76979 0.98061 0.0
C119 C 1.00586 0.72601 0.97074 0.0
C120 C 1.02291 0.7273 0.9926 0.0
O121 O 0.99636 0.78959 0.05534 0.0
C122 C 0.07365 0.77562 0.9868 0.0
O123 O 0.07428 0.74995 0.9825 0.0
H124 H 0.98308 0.79266 0.98088 0.0
H125 H 0.03943 0.70944 1.00341 0.0
N126 N 0.05292 0.74058 0.05424 0.0
N127 N 0.08141 0.72366 0.09322 0.0
C128 C 0.07321 0.74391 0.06894 0.0
C129 C 0.0484 0.71708 0.06928 0.0
C130 C 0.06601 0.70655 0.09336 0.0
C131 C 0.99657 0.79266 0.08421 0.0
O132 O 1.02059 0.7892 0.09536 0.0
H133 H 0.0793 0.76279 0.06432 0.0
H134 H 0.0317 0.70977 0.06496 0.0
O135 O 0.05401 0.79024 1.00572 0.0
H136 H 1.00688 0.70684 0.96105 0.0
H137 H 0.06593 0.68902 0.11103 0.0
Cu138 Cu 0.54759 0.53422 0.87429 0.0
N139 N 0.56353 0.55249 0.89749 0.0
N140 N 0.59255 0.57486 0.90562 0.0
C141 C 0.5852 0.56103 0.88542 0.0
C142 C 0.57462 0.57522 0.93152 0.0
C143 C 0.55674 0.56124 0.92648 0.0
O144 O 0.57922 0.50859 0.84965 0.0
C145 C 0.49768 0.57887 0.87098 0.0
O146 O 0.49957 0.57176 0.90125 0.0
H147 H 0.59483 0.55787 0.86178 0.0
H148 H 0.53973 0.5583 0.94258 0.0
N149 N 0.53146 0.50949 0.89828 0.0
N150 N 0.51406 0.47392 0.90571 0.0
C151 C 0.5248 0.49052 0.8847 0.0
C152 C 0.52474 0.50489 0.92922 0.0
C153 C 0.51372 0.48295 0.93387 0.0
C154 C 0.5981 0.49149 0.86706 0.0
O155 O 0.59429 0.49357 0.89742 0.0
H156 H 0.52753 0.48928 0.85961 0.0
H157 H 0.52772 0.51641 0.9471 0.0
O158 O 0.51736 0.56423 0.85222 0.0
H159 H 0.57437 0.58496 0.95248 0.0
H160 H 0.50638 0.47414 0.95615 0.0
Cu161 Cu 0.56169 0.5494 0.26289 0.0
N162 N 0.54345 0.53297 0.24079 0.0
N163 N 0.51525 0.50823 0.2373 0.0
C164 C 0.51985 0.52775 0.25254 0.0
C165 C 0.53671 0.50143 0.21457 0.0
C166 C 0.5542 0.51654 0.21697 0.0
O167 O 0.5327 0.57777 0.28693 0.0
C168 C 0.61158 0.50385 0.27684 0.0
O169 O 0.62063 0.51359 0.24938 0.0
H170 H 0.5077 0.53652 0.27348 0.0
H171 H 0.57462 0.51363 0.20431 0.0
N172 N 0.58307 0.56781 0.23642 0.0
N173 N 0.61489 0.58924 0.22245 0.0
C174 C 0.60009 0.57945 0.24647 0.0
C175 C 0.58684 0.57063 0.2049 0.0
C176 C 0.60669 0.58376 0.19617 0.0
C177 C 0.52039 0.60242 0.27274 0.0
O178 O 0.52841 0.60786 0.24318 0.0
H179 H 0.60257 0.57938 0.27103 0.0
H180 H 0.57643 0.56312 0.18942 0.0
O181 O 0.58665 0.51717 0.28836 0.0
H182 H 0.54101 0.48482 0.19914 0.0
H183 H 0.61473 0.58853 0.17246 0.0
Cu184 Cu 0.82421 0.57844 0.58176 0.0
N185 N 0.8513 0.58369 0.55071 0.0
N186 N 0.87034 0.60431 0.50929 0.0
C187 C 0.84711 0.60654 0.5291 0.0
C188 C 0.89008 0.57924 0.51913 0.0
C189 C 0.87821 0.56649 0.5447 0.0
O190 O 0.80895 0.61367 0.60248 0.0
C191 C 0.79837 0.56236 0.53555 0.0
O192 O 0.81635 0.57023 0.51527 0.0
H193 H 0.8273 0.62439 0.52792 0.0
H194 H 0.88836 0.54606 0.5578 0.0
N195 N 0.84053 0.54776 0.61092 0.0
N196 N 0.84163 0.51057 0.64634 0.0
C197 C 0.82797 0.52875 0.62279 0.0
C198 C 0.86334 0.54132 0.62713 0.0
C199 C 0.86415 0.51817 0.64903 0.0
C200 C 0.80383 0.61443 0.63207 0.0
O201 O 0.80467 0.5908 0.65001 0.0
H202 H 0.80859 0.52893 0.61474 0.0
H203 H 0.8776 0.55331 0.62415 0.0
O204 O 0.79644 0.56726 0.5641 0.0
H205 H 0.91133 0.57047 0.50824 0.0
H206 H 0.8793 0.50866 0.66649 0.0
Cu207 Cu 0.57895 0.8005 0.59826 0.0
N208 N 0.58364 0.82377 0.56156 0.0
N209 N 0.6034 0.8351 0.51451 0.0
C210 C 0.60752 0.81822 0.542 0.0
C211 C 0.57586 0.85197 0.51699 0.0
C212 C 0.56376 0.84498 0.54598 0.0
O213 O 0.6097 0.79809 0.62282 0.0
C214 C 0.56457 0.75078 0.59273 0.0
O215 O 0.55719 0.74918 0.62299 0.0
H216 H 0.62696 0.80068 0.54689 0.0
H217 H 0.54168 0.85353 0.55434 0.0
N218 N 0.54428 0.81698 0.62228 0.0
N219 N 0.50241 0.82167 0.65007 0.0
C220 C 0.52023 0.81067 0.62508 0.0
C221 C 0.54119 0.83321 0.64571 0.0
C222 C 0.51565 0.83617 0.66271 0.0
C223 C 0.61855 0.78388 0.6486 0.0
O224 O 0.60876 0.76368 0.66163 0.0
H225 H 0.51651 0.79725 0.60984 0.0
H226 H 0.5573 0.84079 0.65134 0.0
O227 O 0.57927 0.76628 0.58146 0.0
H228 H 0.56494 0.86743 0.4986 0.0
H229 H 0.50844 0.8468 0.68392 0.0
Cu230 Cu 0.2981 0.50619 0.53892 0.0
N231 N 0.32008 0.52419 0.51148 0.0
N232 N 0.33285 0.55992 0.48488 0.0
C233 C 0.3117 0.55251 0.50138 0.0
C234 C 0.3553 0.53528 0.48418 0.0
C235 C 0.34732 0.51327 0.50033 0.0
O236 O 0.27277 0.53625 0.56326 0.0
C237 C 0.2963 0.46986 0.49826 0.0
O238 O 0.32354 0.4616 0.5014 0.0
H239 H 0.29094 0.56768 0.50749 0.0
H240 H 0.36073 0.49105 0.50437 0.0
N241 N 0.31909 0.47704 0.56798 0.0
N242 N 0.3281 0.44579 0.61118 0.0
C243 C 0.30842 0.46203 0.5914 0.0
C244 C 0.34649 0.46985 0.57309 0.0
C245 C 0.35208 0.45064 0.59961 0.0
C246 C 0.28655 0.54718 0.57716 0.0
O247 O 0.3143 0.53606 0.57492 0.0
H248 H 0.28629 0.46424 0.59487 0.0
H249 H 0.36109 0.47902 0.55955 0.0
O250 O 0.27957 0.48999 0.51378 0.0
H251 H 0.37617 0.53343 0.4733 0.0
H252 H 0.37211 0.44152 0.61003 0.0
Cu253 Cu 0.51999 0.27089 0.52741 0.0
N254 N 0.54979 0.25097 0.4995 0.0
N255 N 0.59132 0.23822 0.47044 0.0
C256 C 0.57304 0.2577 0.48885 0.0
C257 C 0.57881 0.21875 0.46919 0.0
C258 C 0.55329 0.22667 0.48703 0.0
O259 O 0.53432 0.29461 0.54831 0.0
C260 C 0.48245 0.28966 0.47728 0.0
O261 O 0.50517 0.28273 0.45763 0.0
H262 H 0.57688 0.27602 0.49532 0.0
H263 H 0.53842 0.21539 0.49075 0.0
N264 N 0.50998 0.24632 0.55964 0.0
N265 N 0.48901 0.23471 0.60565 0.0
C266 C 0.50045 0.25334 0.58903 0.0
C267 C 0.5043 0.2224 0.55752 0.0
C268 C 0.49145 0.21514 0.5859 0.0
C269 C 0.55613 0.27952 0.56276 0.0
O270 O 0.56538 0.25152 0.56207 0.0
H271 H 0.50009 0.27291 0.59729 0.0
H272 H 0.5076 0.21199 0.53634 0.0
O273 O 0.48498 0.28952 0.50636 0.0
H274 H 0.58745 0.20003 0.45629 0.0
H275 H 0.48366 0.19742 0.59121 0.0
Ho276 Ho 0.27717 0.2868 0.34703 0.0
Ho277 Ho 0.31898 0.30839 0.29855 0.0
C278 C 0.32109 0.24321 0.30181 0.0
C279 C 0.23466 0.27555 0.37753 0.0
C280 C 0.22461 0.2509 0.38366 0.0
C281 C 0.19815 0.25383 0.37429 0.0
C282 C 0.18734 0.23149 0.3817 0.0
C283 C 0.20273 0.2058 0.39881 0.0
C284 C 0.22963 0.20256 0.40729 0.0
C285 C 0.24048 0.22485 0.39979 0.0
C286 C 0.32885 0.27744 0.36701 0.0
C287 C 0.27617 0.35192 0.34658 0.0
C288 C 0.35966 0.32335 0.26907 0.0
C289 C 0.37543 0.34271 0.27037 0.0
C290 C 0.39109 0.34054 0.29571 0.0
C291 C 0.40518 0.35981 0.29639 0.0
C292 C 0.40393 0.38146 0.2716 0.0
C293 C 0.38864 0.38326 0.246 0.0
C294 C 0.37457 0.36404 0.2454 0.0
C295 C 0.27407 0.3083 0.26914 0.0
O296 O 0.29614 0.24999 0.31797 0.0
O297 O 0.33581 0.26069 0.29567 0.0
O298 O 0.25743 0.27323 0.3905 0.0
O299 O 0.23404 0.28786 0.34875 0.0
O300 O 0.31452 0.26019 0.37404 0.0
O301 O 0.31448 0.29927 0.35019 0.0
O302 O 0.2989 0.34621 0.32642 0.0
O303 O 0.26251 0.33366 0.35529 0.0
O304 O 0.33304 0.33631 0.26371 0.0
O305 O 0.36395 0.30053 0.28958 0.0
O306 O 0.29442 0.31653 0.25583 0.0
O307 O 0.27862 0.30193 0.29767 0.0
H308 H 0.18553 0.27369 0.36179 0.0
H309 H 0.16647 0.23477 0.37501 0.0
H310 H 0.24222 0.18285 0.42002 0.0
H311 H 0.26108 0.22178 0.4071 0.0
H312 H 0.39242 0.32403 0.31489 0.0
H313 H 0.41729 0.35763 0.3161 0.0
H314 H 0.38714 0.39984 0.22665 0.0
H315 H 0.36276 0.366 0.22545 0.0
Ho316 Ho 0.79879 0.30725 0.33926 0.0
Ho317 Ho 0.79868 0.2638 0.29508 0.0
C318 C 0.76193 0.26664 0.36063 0.0
C319 C 0.79306 0.35391 0.36294 0.0
C320 C 0.78412 0.37206 0.38922 0.0
C321 C 0.76675 0.40078 0.38302 0.0
C322 C 0.7616 0.42035 0.40505 0.0
C323 C 0.77379 0.41167 0.43388 0.0
C324 C 0.79001 0.38252 0.44086 0.0
C325 C 0.79529 0.36286 0.41862 0.0
C326 C 0.83358 0.25262 0.35333 0.0
C327 C 0.839 0.30195 0.2744 0.0
C328 C 0.80994 0.22468 0.25736 0.0
C329 C 0.79936 0.20637 0.2423 0.0
C330 C 0.81907 0.18119 0.23148 0.0
C331 C 0.81103 0.16514 0.21301 0.0
C332 C 0.78291 0.17377 0.2051 0.0
C333 C 0.76288 0.19861 0.21698 0.0
C334 C 0.77106 0.21486 0.23538 0.0
C335 C 0.75328 0.31263 0.29571 0.0
O336 O 0.763 0.29256 0.36192 0.0
O337 O 0.77854 0.24917 0.34018 0.0
O338 O 0.81584 0.33093 0.36455 0.0
O339 O 0.77342 0.35092 0.3482 0.0
O340 O 0.81999 0.27035 0.3741 0.0
O341 O 0.82907 0.26534 0.32616 0.0
O342 O 0.8303 0.28162 0.26794 0.0
O343 O 0.82983 0.31507 0.30023 0.0
O344 O 0.81373 0.21868 0.28737 0.0
O345 O 0.80026 0.25227 0.24854 0.0
O346 O 0.75171 0.28782 0.29291 0.0
O347 O 0.77867 0.31024 0.29646 0.0
H348 H 0.75819 0.40844 0.36043 0.0
H349 H 0.74876 0.44256 0.39911 0.0
H350 H 0.79982 0.37523 0.46282 0.0
H351 H 0.80896 0.34086 0.42393 0.0
H352 H 0.84107 0.17452 0.23625 0.0
H353 H 0.82727 0.14661 0.20383 0.0
H354 H 0.741 0.20575 0.21168 0.0
H355 H 0.75554 0.23438 0.24344 0.0
Ho356 Ho 0.80196 0.77264 0.29448 0.0
Ho357 Ho 0.81854 0.81745 0.32109 0.0
C358 C 0.75855 0.80853 0.34717 0.0
C359 C 0.79155 0.72908 0.28119 0.0
C360 C 0.77564 0.70929 0.28805 0.0
C361 C 0.79022 0.68014 0.2846 0.0
C362 C 0.77549 0.6622 0.28092 0.0
C363 C 0.74591 0.6732 0.28046 0.0
C364 C 0.73116 0.70169 0.28713 0.0
C365 C 0.74593 0.71963 0.29091 0.0
C366 C 0.79376 0.82183 0.25674 0.0
C367 C 0.85822 0.7847 0.26461 0.0
C368 C 0.82435 0.86097 0.3417 0.0
C369 C 0.84727 0.86916 0.35107 0.0
C370 C 0.86098 0.88467 0.32958 0.0
C371 C 0.88186 0.89328 0.33901 0.0
C372 C 0.88939 0.88659 0.37014 0.0
C373 C 0.87552 0.87127 0.3916 0.0
C374 C 0.85468 0.86275 0.38223 0.0
C375 C 0.84458 0.76218 0.34373 0.0
O376 O 0.76395 0.78828 0.32827 0.0
O377 O 0.77572 0.82308 0.34783 0.0
O378 O 0.7774 0.75574 0.2714 0.0
O379 O 0.81207 0.7263 0.29846 0.0
O380 O 0.80044 0.79675 0.24718 0.0
O381 O 0.7895 0.8201 0.28633 0.0
O382 O 0.84904 0.80903 0.27789 0.0
O383 O 0.84664 0.76461 0.273 0.0
O384 O 0.81807 0.84056 0.3598 0.0
O385 O 0.82393 0.8589 0.31185 0.0
O386 O 0.85689 0.78118 0.33827 0.0
O387 O 0.8191 0.77385 0.33808 0.0
H388 H 0.81314 0.67175 0.28226 0.0
H389 H 0.78736 0.64015 0.27649 0.0
H390 H 0.70837 0.71081 0.28691 0.0
H391 H 0.73415 0.74208 0.2936 0.0
H392 H 0.85551 0.89027 0.3055 0.0
H393 H 0.89227 0.90495 0.3219 0.0
H394 H 0.88042 0.86628 0.4159 0.0
H395 H 0.8442 0.85134 0.39958 0.0
Ho396 Ho 0.28473 0.78721 0.31796 0.0
Ho397 Ho 0.33151 0.80253 0.34284 0.0
C398 C 0.30801 0.83616 0.2779 0.0
C399 C 0.23788 0.78663 0.30083 0.0
C400 C 0.22251 0.78501 0.27481 0.0
C401 C 0.19307 0.79837 0.27692 0.0
C402 C 0.17677 0.79239 0.25694 0.0
C403 C 0.18966 0.773 0.23433 0.0
C404 C 0.21934 0.76127 0.23057 0.0
C405 C 0.2357 0.76711 0.25084 0.0
C406 C 0.3379 0.75154 0.3038 0.0
C407 C 0.3099 0.75281 0.38097 0.0
C408 C 0.37527 0.80596 0.36485 0.0
C409 C 0.39644 0.79251 0.38798 0.0
C410 C 0.40288 0.76387 0.40096 0.0
C411 C 0.42243 0.75251 0.42389 0.0
C412 C 0.4358 0.76964 0.43418 0.0
C413 C 0.42916 0.79828 0.42085 0.0
C414 C 0.40977 0.80951 0.39805 0.0
C415 C 0.27782 0.83854 0.35392 0.0
O416 O 0.28877 0.82343 0.282 0.0
O417 O 0.32897 0.82905 0.29635 0.0
O418 O 0.25881 0.76359 0.30944 0.0
O419 O 0.24263 0.81037 0.30241 0.0
O420 O 0.3157 0.7442 0.30676 0.0
O421 O 0.33033 0.77832 0.30472 0.0
O422 O 0.33117 0.76241 0.3733 0.0
O423 O 0.28622 0.76423 0.36668 0.0
O424 O 0.34926 0.8182 0.37629 0.0
O425 O 0.37691 0.79242 0.34038 0.0
O426 O 0.29965 0.84654 0.348 0.0
O427 O 0.28573 0.81147 0.35581 0.0
H428 H 0.18249 0.81218 0.29529 0.0
H429 H 0.15395 0.80194 0.26009 0.0
H430 H 0.22975 0.74621 0.21334 0.0
H431 H 0.25844 0.75649 0.24884 0.0
H432 H 0.39271 0.75042 0.39355 0.0
H433 H 0.42713 0.73032 0.43345 0.0
H434 H 0.43843 0.81237 0.42856 0.0
H435 H 0.40487 0.83175 0.38852 0.0
Ho436 Ho 0.30106 0.81442 0.847 0.0
Ho437 Ho 0.28328 0.7765 0.80412 0.0
C438 C 0.24898 0.79211 0.87236 0.0
C439 C 0.30256 0.85697 0.87311 0.0
C440 C 0.32126 0.86864 0.88601 0.0
C441 C 0.3205 0.89659 0.87519 0.0
C442 C 0.33436 0.91004 0.89032 0.0
C443 C 0.34907 0.89583 0.91674 0.0
C444 C 0.35075 0.86741 0.92678 0.0
C445 C 0.33702 0.8539 0.91155 0.0
C446 C 0.33419 0.75765 0.85305 0.0
C447 C 0.33523 0.79829 0.77831 0.0
C448 C 0.26885 0.73719 0.78589 0.0
C449 C 0.26482 0.72288 0.7605 0.0
C450 C 0.25329 0.70113 0.76869 0.0
C451 C 0.24805 0.68729 0.74559 0.0
C452 C 0.25428 0.69496 0.71377 0.0
C453 C 0.26599 0.71681 0.70552 0.0
C454 C 0.27111 0.73085 0.72882 0.0
C455 C 0.26032 0.83438 0.79352 0.0
O456 O 0.26122 0.81114 0.8739 0.0
O457 O 0.25707 0.77413 0.85031 0.0
O458 O 0.29859 0.83416 0.88881 0.0
O459 O 0.30406 0.85688 0.84249 0.0
O460 O 0.33832 0.77707 0.86697 0.0
O461 O 0.31197 0.77013 0.83946 0.0
O462 O 0.32286 0.77925 0.77643 0.0
O463 O 0.32763 0.81618 0.8007 0.0
O464 O 0.25138 0.76336 0.78895 0.0
O465 O 0.29475 0.73304 0.79196 0.0
O466 O 0.26542 0.81718 0.77168 0.0
O467 O 0.26599 0.81961 0.81934 0.0
H468 H 0.3082 0.90849 0.85579 0.0
H469 H 0.33242 0.93205 0.88223 0.0
H470 H 0.36221 0.8558 0.94686 0.0
H471 H 0.33798 0.83233 0.92049 0.0
H472 H 0.2483 0.69481 0.79311 0.0
H473 H 0.23964 0.67013 0.75272 0.0
H474 H 0.271 0.7231 0.68113 0.0
H475 H 0.27986 0.7478 0.7222 0.0
Ho476 Ho 0.29299 0.25807 0.81143 0.0
Ho477 Ho 0.31812 0.29058 0.85117 0.0
C478 C 0.25217 0.30347 0.85942 0.0
C479 C 0.27768 0.21847 0.79511 0.0
C480 C 0.25597 0.2135 0.77954 0.0
C481 C 0.24587 0.19162 0.79307 0.0
C482 C 0.22723 0.18427 0.7778 0.0
C483 C 0.21821 0.19872 0.74862 0.0
C484 C 0.22793 0.22109 0.73531 0.0
C485 C 0.24667 0.22848 0.75069 0.0
C486 C 0.2893 0.31067 0.7814 0.0
C487 C 0.35676 0.25688 0.79373 0.0
C488 C 0.34222 0.31718 0.87848 0.0
C489 C 0.36456 0.32959 0.87568 0.0
C490 C 0.37306 0.34246 0.84716 0.0
C491 C 0.39354 0.3553 0.84627 0.0
C492 C 0.40562 0.35541 0.87388 0.0
C493 C 0.39743 0.3418 0.90209 0.0
C494 C 0.37707 0.32906 0.90295 0.0
C495 C 0.30846 0.24298 0.87987 0.0
O496 O 0.25626 0.2799 0.84578 0.0
O497 O 0.27207 0.31481 0.85892 0.0
O498 O 0.295 0.2294 0.77757 0.0
O499 O 0.27002 0.22856 0.82248 0.0
O500 O 0.27935 0.29331 0.77103 0.0
O501 O 0.29826 0.29936 0.8076 0.0
O502 O 0.35186 0.27759 0.81196 0.0
O503 O 0.33907 0.24282 0.79374 0.0
O504 O 0.35047 0.28914 0.8799 0.0
O505 O 0.32023 0.33047 0.86215 0.0
O506 O 0.30501 0.2654 0.89363 0.0
O507 O 0.31861 0.24597 0.85194 0.0
H508 H 0.25301 0.17967 0.81518 0.0
H509 H 0.22059 0.16661 0.78848 0.0
H510 H 0.22115 0.23278 0.713 0.0
H511 H 0.25421 0.24549 0.73981 0.0
H512 H 0.36364 0.34292 0.82583 0.0
H513 H 0.39939 0.36575 0.82422 0.0
H514 H 0.40672 0.34105 0.9236 0.0
H515 H 0.37083 0.31903 0.92511 0.0
Ho516 Ho 0.79046 0.29366 0.78856 0.0
Ho517 Ho 0.83226 0.29936 0.83381 0.0
C518 C 0.81173 0.34698 0.77784 0.0
C519 C 0.75041 0.29947 0.7544 0.0
C520 C 0.72744 0.30291 0.73476 0.0
C521 C 0.71725 0.32772 0.71392 0.0
C522 C 0.69551 0.33089 0.69515 0.0
C523 C 0.68403 0.30903 0.69645 0.0
C524 C 0.69435 0.28419 0.71733 0.0
C525 C 0.71566 0.28129 0.73653 0.0
C526 C 0.84596 0.26324 0.77674 0.0
C527 C 0.81206 0.24353 0.84338 0.0
C528 C 0.87674 0.29391 0.86129 0.0
C529 C 0.89239 0.29093 0.8891 0.0
C530 C 0.89744 0.26706 0.91187 0.0
C531 C 0.91686 0.26242 0.93435 0.0
C532 C 0.93184 0.28127 0.934 0.0
C533 C 0.92569 0.30575 0.91216 0.0
C534 C 0.90617 0.31054 0.89009 0.0
C535 C 0.77678 0.32968 0.84764 0.0
O536 O 0.78938 0.33914 0.77937 0.0
O537 O 0.83461 0.33056 0.79185 0.0
O538 O 0.77225 0.30704 0.74365 0.0
O539 O 0.75047 0.28855 0.78378 0.0
O540 O 0.82568 0.25566 0.76997 0.0
O541 O 0.83569 0.28787 0.78602 0.0
O542 O 0.82946 0.25569 0.85065 0.0
O543 O 0.79273 0.25571 0.82301 0.0
O544 O 0.85773 0.31875 0.85312 0.0
O545 O 0.87083 0.27207 0.85463 0.0
O546 O 0.79744 0.33518 0.85694 0.0
O547 O 0.78677 0.30594 0.83613 0.0
H548 H 0.72599 0.34471 0.71228 0.0
H549 H 0.68808 0.35016 0.67916 0.0
H550 H 0.68578 0.26707 0.71897 0.0
H551 H 0.72325 0.26196 0.75241 0.0
H552 H 0.88733 0.25141 0.91153 0.0
H553 H 0.92129 0.24332 0.95085 0.0
H554 H 0.93676 0.32074 0.91146 0.0
H555 H 0.90293 0.32894 0.87267 0.0
Ho556 Ho 0.77715 0.78322 0.83118 0.0
Ho557 Ho 0.80386 0.82055 0.78061 0.0
C558 C 0.80339 0.75857 0.76576 0.0
C559 C 0.7444 0.76299 0.8701 0.0
C560 C 0.73046 0.74198 0.87025 0.0
C561 C 0.72918 0.73104 0.84249 0.0
C562 C 0.7167 0.71019 0.84336 0.0
C563 C 0.70541 0.69998 0.87203 0.0
C564 C 0.70671 0.7112 0.89969 0.0
C565 C 0.71914 0.73204 0.89877 0.0
C566 C 0.8318 0.77727 0.83641 0.0
C567 C 0.77111 0.84851 0.8438 0.0
C568 C 0.8404 0.84005 0.74827 0.0
C569 C 0.85821 0.85673 0.75156 0.0
C570 C 0.85647 0.86925 0.7792 0.0
C571 C 0.87185 0.88724 0.7806 0.0
C572 C 0.88879 0.89337 0.75416 0.0
C573 C 0.89056 0.88039 0.72669 0.0
C574 C 0.87553 0.86215 0.72551 0.0
C575 C 0.75282 0.82377 0.76404 0.0
O576 O 0.78502 0.75806 0.79015 0.0
O577 O 0.81654 0.77764 0.76075 0.0
O578 O 0.77199 0.75239 0.86936 0.0
O579 O 0.73512 0.78655 0.85122 0.0
O580 O 0.82176 0.75651 0.84323 0.0
O581 O 0.81199 0.79991 0.82842 0.0
O582 O 0.78769 0.85089 0.81808 0.0
O583 O 0.76352 0.82559 0.85214 0.0
O584 O 0.81312 0.85433 0.75024 0.0
O585 O 0.84725 0.81403 0.76294 0.0
O586 O 0.76783 0.83828 0.74896 0.0
O587 O 0.7654 0.80999 0.78769 0.0
H588 H 0.73795 0.7385 0.82025 0.0
H589 H 0.71575 0.70219 0.82161 0.0
H590 H 0.69862 0.70348 0.92218 0.0
H591 H 0.7202 0.74016 0.9204 0.0
H592 H 0.84274 0.8657 0.79936 0.0
H593 H 0.8702 0.89655 0.80226 0.0
H594 H 0.9028 0.88502 0.70563 0.0
H595 H 0.87675 0.85296 0.70384 0.0
H596 H 0.10813 0.11013 0.38815 0.0
H597 H 0.12426 0.07689 0.48492 0.0
H598 H 0.1545 0.10579 0.48492 0.0
H599 H 0.17932 0.11078 0.36359 0.0
H600 H 0.16701 0.1434 0.33776 0.0
H601 H 0.14701 0.11955 0.34499 0.0
H602 H 0.10264 0.1614 0.36293 0.0
H603 H 0.1225 0.18535 0.35584 0.0
H604 H 0.10457 0.18117 0.39394 0.0
H605 H 0.18194 0.13902 0.47518 0.0
H606 H 0.20445 0.17506 0.45639 0.0
H607 H 0.17192 0.18584 0.3654 0.0
C608 C 0.11824 0.10858 0.40925 0.0
C609 C 0.11355 0.09123 0.43663 0.0
C610 C 0.12701 0.09031 0.46382 0.0
C611 C 0.14447 0.10649 0.46399 0.0
C612 C 0.14846 0.12341 0.43673 0.0
C613 C 0.13583 0.12454 0.40981 0.0
C614 C 0.1433 0.1449 0.38384 0.0
C615 C 0.16017 0.12868 0.35589 0.0
C616 C 0.11666 0.16967 0.37355 0.0
C617 C 0.16165 0.15543 0.40061 0.0
C618 C 0.16453 0.14254 0.43101 0.0
C619 C 0.18007 0.14908 0.45133 0.0
C620 C 0.19293 0.16946 0.44036 0.0
C621 C 0.19014 0.18316 0.40936 0.0
C622 C 0.17435 0.17586 0.38926 0.0
H623 H 0.95984 0.10402 0.32231 0.0
H624 H 0.99433 0.11484 0.405 0.0
H625 H 0.95425 0.15948 0.41207 0.0
H626 H 0.93456 0.1809 0.29416 0.0
H627 H 0.90327 0.17989 0.27949 0.0
H628 H 0.93476 0.14838 0.28059 0.0
H629 H 0.90605 0.11921 0.31333 0.0
H630 H 0.87458 0.15076 0.31259 0.0
H631 H 0.8866 0.13154 0.34957 0.0
H632 H 0.90898 0.20054 0.41342 0.0
H633 H 0.86435 0.2405 0.40388 0.0
H634 H 0.86028 0.20727 0.31765 0.0
C635 C 0.95902 0.11594 0.34172 0.0
C636 C 0.98031 0.10571 0.36314 0.0
C637 C 0.97849 0.1221 0.38814 0.0
C638 C 0.95565 0.14749 0.39254 0.0
C639 C 0.93487 0.15672 0.37146 0.0
C640 C 0.93654 0.14192 0.3461 0.0
C641 C 0.91158 0.15749 0.32643 0.0
C642 C 0.92165 0.16725 0.2932 0.0
C643 C 0.89365 0.13862 0.32543 0.0
C644 C 0.89563 0.183 0.34501 0.0
C645 C 0.9093 0.18175 0.37117 0.0
C646 C 0.89823 0.202 0.3928 0.0
C647 C 0.87276 0.22453 0.38729 0.0
C648 C 0.85889 0.22703 0.36002 0.0
C649 C 0.87048 0.20591 0.33865 0.0
H650 H 0.96762 0.99528 0.3916 0.0
H651 H 1.02107 0.92678 0.45331 0.0
H652 H 0.99635 0.89503 0.44382 0.0
H653 H 0.90387 0.97995 0.41361 0.0
H654 H 0.89228 0.98775 0.37453 0.0
H655 H 0.91428 1.00544 0.38589 0.0
H656 H 0.95061 0.98726 0.339 0.0
H657 H 0.92874 0.96944 0.32753 0.0
H658 H 0.9651 0.94934 0.33468 0.0
H659 H 0.96624 0.87045 0.42814 0.0
H660 H 0.93133 0.8549 0.40797 0.0
H661 H 0.89718 0.93872 0.356 0.0
C662 C 0.97424 0.97357 0.40297 0.0
C663 C 0.99622 0.96376 0.42345 0.0
C664 C 1.00401 0.93518 0.43805 0.0
C665 C 0.99025 0.91679 0.43257 0.0
C666 C 0.96879 0.92712 0.41231 0.0
C667 C 0.96075 0.95481 0.3977 0.0
C668 C 0.93674 0.96049 0.37724 0.0
C669 C 0.91022 0.98484 0.38851 0.0
C670 C 0.94585 0.96702 0.34256 0.0
C671 C 0.93242 0.93173 0.38297 0.0
C672 C 0.95128 0.9128 0.40314 0.0
C673 C 0.95132 0.88507 0.41235 0.0
C674 C 0.93131 0.87649 0.40089 0.0
C675 C 0.91144 0.89561 0.38053 0.0
C676 C 0.91228 0.92351 0.37125 0.0
H677 H 0.16131 0.99452 0.33991 0.0
H678 H 0.09688 0.9554 0.3638 0.0
H679 H 0.13376 0.90728 0.36215 0.0
H680 H 0.20827 0.94055 0.28754 0.0
H681 H 0.23967 0.94253 0.30089 0.0
H682 H 0.20779 0.97364 0.29994 0.0
H683 H 0.2098 0.97711 0.35891 0.0
H684 H 0.24144 0.94591 0.36011 0.0
H685 H 0.21108 0.94653 0.38688 0.0
H686 H 0.17908 0.86284 0.36367 0.0
H687 H 0.22789 0.82723 0.36532 0.0
H688 H 0.26149 0.89628 0.34044 0.0
C689 C 0.15478 0.97591 0.34397 0.0
C690 C 0.12609 0.97888 0.35182 0.0
C691 C 0.11864 0.95381 0.35739 0.0
C692 C 0.13949 0.92632 0.35663 0.0
C693 C 0.16771 0.92418 0.34994 0.0
C694 C 0.17527 0.94841 0.34323 0.0
C695 C 0.20706 0.94052 0.33852 0.0
C696 C 0.21623 0.94986 0.30471 0.0
C697 C 0.21797 0.95327 0.36254 0.0
C698 C 0.2163 0.90816 0.34457 0.0
C699 C 0.19343 0.89896 0.35086 0.0
C700 C 0.1971 0.86986 0.35838 0.0
C701 C 0.22484 0.84979 0.35937 0.0
C702 C 0.24841 0.859 0.35298 0.0
C703 C 0.2439 0.88854 0.3454 0.0
H704 H 0.14418 0.97037 0.71412 0.0
H705 H 0.11699 1.00046 0.80636 0.0
H706 H 0.1574 0.96033 0.82818 0.0
H707 H 0.16345 0.89666 0.73903 0.0
H708 H 0.19323 0.88609 0.71031 0.0
H709 H 0.16363 0.91832 0.70209 0.0
H710 H 0.19735 0.94764 0.69133 0.0
H711 H 0.22708 0.91547 0.69979 0.0
H712 H 0.21998 0.94622 0.72097 0.0
H713 H 0.20012 0.91557 0.8398 0.0
H714 H 0.23869 0.86846 0.84128 0.0
H715 H 0.23664 0.86767 0.74131 0.0
C716 C 0.14679 0.96882 0.73889 0.0
C717 C 0.12749 0.98869 0.75852 0.0
C718 C 0.13156 0.98554 0.79086 0.0
C719 C 0.15451 0.9629 0.80339 0.0
C720 C 0.17312 0.94369 0.78325 0.0
C721 C 0.16935 0.94641 0.7517 0.0
C722 C 0.19118 0.92214 0.73523 0.0
C723 C 0.17702 0.90478 0.72083 0.0
C724 C 0.21001 0.93356 0.71036 0.0
C725 C 0.20761 0.90484 0.76253 0.0
C726 C 0.19718 0.91783 0.78996 0.0
C727 C 0.20848 0.90534 0.81843 0.0
C728 C 0.23043 0.87859 0.819 0.0
C729 C 0.2406 0.86443 0.79137 0.0
C730 C 0.22941 0.87808 0.76271 0.0
H731 H 0.10402 0.1267 0.74031 0.0
H732 H 0.12972 0.12028 0.64131 0.0
H733 H 0.16162 0.14749 0.64412 0.0
H734 H 0.10508 0.19858 0.74237 0.0
H735 H 0.11821 0.19018 0.78073 0.0
H736 H 0.09644 0.17193 0.76997 0.0
H737 H 0.1354 0.1228 0.78338 0.0
H738 H 0.15727 0.14086 0.79418 0.0
H739 H 0.1707 0.11586 0.76485 0.0
H740 H 0.19334 0.1723 0.65959 0.0
H741 H 0.22162 0.19246 0.68578 0.0
H742 H 0.17301 0.18344 0.77409 0.0
C743 C 0.11637 0.13097 0.71919 0.0
C744 C 0.11472 0.12121 0.69062 0.0
C745 C 0.13073 0.12772 0.66336 0.0
C746 C 0.14885 0.14309 0.6648 0.0
C747 C 0.15025 0.15206 0.69358 0.0
C748 C 0.13422 0.14636 0.7202 0.0
C749 C 0.13995 0.15744 0.74853 0.0
C750 C 0.11333 0.18093 0.76113 0.0
C751 C 0.15152 0.13277 0.77423 0.0
C752 C 0.16228 0.16972 0.73396 0.0
C753 C 0.16789 0.16663 0.70224 0.0
C754 C 0.18882 0.17518 0.68431 0.0
C755 C 0.20466 0.18676 0.69935 0.0
C756 C 0.19951 0.18955 0.73199 0.0
C757 C 0.17762 0.18141 0.74918 0.0
H758 H 0.9719 0.11287 0.77348 0.0
H759 H 1.02809 0.15666 0.7896 0.0
H760 H 0.98711 0.20127 0.79536 0.0
H761 H 0.92791 0.16839 0.72667 0.0
H762 H 0.89551 0.16256 0.74189 0.0
H763 H 0.92859 0.13308 0.74309 0.0
H764 H 0.91923 0.12312 0.80327 0.0
H765 H 0.88589 0.15238 0.80203 0.0
H766 H 0.91141 0.1518 0.8278 0.0
H767 H 0.94048 0.24241 0.79433 0.0
H768 H 0.89154 0.27615 0.78837 0.0
H769 H 0.8662 0.2055 0.77257 0.0
C770 C 0.97557 0.13162 0.77899 0.0
C771 C 1.00327 0.13116 0.78122 0.0
C772 C 1.0071 0.15635 0.78801 0.0
C773 C 0.98393 0.18185 0.79128 0.0
C774 C 0.95702 0.18178 0.788 0.0
C775 C 0.95269 0.15722 0.78239 0.0
C776 C 0.92187 0.16324 0.77807 0.0
C777 C 0.91828 0.15642 0.74549 0.0
C778 C 0.90884 0.14665 0.80436 0.0
C779 C 0.90977 0.19521 0.78096 0.0
C780 C 0.93027 0.20548 0.7871 0.0
C781 C 0.92421 0.23454 0.78983 0.0
C782 C 0.89644 0.25355 0.78632 0.0
C783 C 0.87523 0.24339 0.77997 0.0
C784 C 0.88205 0.21386 0.77733 0.0
H785 H 1.00823 0.96276 0.70008 0.0
H786 H 0.95891 0.03354 0.75429 0.0
H787 H 0.92373 0.0098 0.77133 0.0
H788 H 0.94944 0.95057 0.67367 0.0
H789 H 0.96625 0.91207 0.67667 0.0
H790 H 0.98743 0.93474 0.6688 0.0
H791 H 1.01523 0.90868 0.71714 0.0
H792 H 0.99407 0.88599 0.72521 0.0
H793 H 0.99624 0.90681 0.75506 0.0
H794 H 0.8934 0.97885 0.78129 0.0
H795 H 0.87011 0.94303 0.78349 0.0
H796 H 0.94074 0.8913 0.72491 0.0
C797 C 0.98989 0.97337 0.71527 0.0
C798 C 0.98624 1.0 0.72584 0.0
C799 C 0.9622 0.01301 0.74616 0.0
C800 C 0.9421 0.99974 0.75587 0.0
C801 C 0.94645 0.97339 0.74521 0.0
C802 C 0.96976 0.96031 0.72541 0.0
C803 C 0.96956 0.93189 0.71751 0.0
C804 C 0.96807 0.93236 0.68206 0.0
C805 C 0.9953 0.90687 0.72945 0.0
C806 C 0.94239 0.93113 0.7358 0.0
C807 C 0.92934 0.95526 0.75157 0.0
C808 C 0.90356 0.95971 0.76928 0.0
C809 C 0.89061 0.93907 0.77062 0.0
C810 C 0.90356 0.91417 0.75449 0.0
C811 C 0.93002 0.91016 0.73724 0.0
H812 H 0.30027 0.17065 0.16208 0.0
H813 H 0.33594 0.08782 0.21463 0.0
H814 H 0.34983 0.11104 0.25404 0.0
H815 H 0.35264 0.20203 0.17822 0.0
H816 H 0.3258 0.23699 0.18098 0.0
H817 H 0.32241 0.21302 0.15545 0.0
H818 H 0.27307 0.21772 0.18337 0.0
H819 H 0.27652 0.24088 0.20967 0.0
H820 H 0.26965 0.20862 0.22521 0.0
H821 H 0.35198 0.14505 0.29179 0.0
H822 H 0.34575 0.18613 0.3219 0.0
H823 H 0.31165 0.24551 0.24209 0.0
C824 C 0.31158 0.15739 0.18155 0.0
C825 C 0.31712 0.12758 0.18556 0.0
C826 C 0.33186 0.11071 0.21121 0.0
C827 C 0.33971 0.12373 0.23362 0.0
C828 C 0.33317 0.15347 0.22944 0.0
C829 C 0.31987 0.16995 0.20366 0.0
C830 C 0.31331 0.20157 0.20539 0.0
C831 C 0.32952 0.21413 0.17841 0.0
C832 C 0.28124 0.21813 0.20594 0.0
C833 C 0.32437 0.20053 0.23653 0.0
C834 C 0.3357 0.17267 0.25026 0.0
C835 C 0.34405 0.16686 0.28084 0.0
C836 C 0.3405 0.19016 0.29774 0.0
C837 C 0.32916 0.21858 0.28366 0.0
C838 C 0.32141 0.22377 0.2527 0.0
H839 H 0.98035 0.33739 0.22287 0.0
H840 H 0.97238 0.32261 0.12821 0.0
H841 H 0.92724 0.3155 0.14592 0.0
H842 H 0.95291 0.28557 0.26261 0.0
H843 H 0.93415 0.30668 0.29427 0.0
H844 H 0.96529 0.31205 0.27397 0.0
H845 H 0.93681 0.36609 0.26135 0.0
H846 H 0.90557 0.36089 0.2817 0.0
H847 H 0.9049 0.37658 0.24152 0.0
H848 H 0.88491 0.30633 0.17443 0.0
H849 H 0.84699 0.29785 0.21152 0.0
H850 H 0.88055 0.32115 0.28724 0.0
C851 C 0.96891 0.33332 0.20562 0.0
C852 C 0.98024 0.3305 0.17404 0.0
C853 C 0.96458 0.32452 0.15256 0.0
C854 C 0.93873 0.32061 0.16237 0.0
C855 C 0.92851 0.32305 0.19368 0.0
C856 C 0.94293 0.32953 0.21496 0.0
C857 C 0.92762 0.33011 0.24751 0.0
C858 C 0.9461 0.30724 0.27096 0.0
C859 C 0.91816 0.36021 0.25867 0.0
C860 C 0.90249 0.32265 0.24123 0.0
C861 C 0.90351 0.31858 0.21002 0.0
C862 C 0.88365 0.30986 0.19882 0.0
C863 C 0.86223 0.30502 0.22008 0.0
C864 C 0.86064 0.30917 0.25215 0.0
C865 C 0.8809 0.31841 0.26273 0.0
H866 H 0.84061 0.89046 0.09348 0.0
H867 H 0.81599 0.97199 0.13211 0.0
H868 H 0.80303 0.94949 0.18389 0.0
H869 H 0.78378 0.87117 0.13273 0.0
H870 H 0.80413 0.83338 0.13799 0.0
H871 H 0.81334 0.85559 0.1052 0.0
H872 H 0.86475 0.84029 0.12235 0.0
H873 H 0.85504 0.81709 0.1536 0.0
H874 H 0.86932 0.84306 0.16239 0.0
H875 H 0.79198 0.91676 0.23174 0.0
H876 H 0.78301 0.87787 0.26926 0.0
H877 H 0.81391 0.81998 0.19636 0.0
C878 C 0.83311 0.90341 0.11302 0.0
C879 C 0.82969 0.93274 0.10911 0.0
C880 C 0.81884 0.94935 0.13488 0.0
C881 C 0.81151 0.93676 0.16428 0.0
C882 C 0.8149 0.90767 0.16724 0.0
C883 C 0.82534 0.89136 0.14212 0.0
C884 C 0.82533 0.86118 0.1503 0.0
C885 C 0.80546 0.85499 0.13037 0.0
C886 C 0.85543 0.83913 0.14696 0.0
C887 C 0.81379 0.86273 0.18415 0.0
C888 C 0.80781 0.88958 0.19379 0.0
C889 C 0.79666 0.89564 0.22438 0.0
C890 C 0.79163 0.87355 0.24551 0.0
C891 C 0.79775 0.84604 0.23567 0.0
C892 C 0.80887 0.84083 0.20463 0.0
H893 H 0.12688 0.74094 0.0877 0.0
H894 H 0.07002 0.71162 0.15538 0.0
H895 H 0.09281 0.71978 0.19859 0.0
H896 H 0.18923 0.70959 0.13365 0.0
H897 H 0.20149 0.73933 0.12166 0.0
H898 H 0.18176 0.72972 0.09587 0.0
H899 H 0.14558 0.78161 0.0928 0.0
H900 H 0.1651 0.79136 0.11866 0.0
H901 H 0.12812 0.79693 0.1285 0.0
H902 H 0.11862 0.73476 0.23413 0.0
H903 H 0.14877 0.75216 0.26059 0.0
H904 H 0.19067 0.77044 0.17063 0.0
C905 C 0.11959 0.73586 0.11165 0.0
C906 C 0.09688 0.72535 0.11821 0.0
C907 C 0.08774 0.71908 0.14981 0.0
C908 C 0.10041 0.72388 0.1745 0.0
C909 C 0.12244 0.73463 0.16724 0.0
C910 C 0.13228 0.7402 0.13665 0.0
C911 C 0.1561 0.75199 0.13546 0.0
C912 C 0.18379 0.73143 0.12079 0.0
C913 C 0.14824 0.78227 0.11781 0.0
C914 C 0.15765 0.75276 0.17017 0.0
C915 C 0.13794 0.74271 0.18799 0.0
C916 C 0.13433 0.7424 0.22049 0.0
C917 C 0.15141 0.75249 0.23527 0.0
C918 C 0.17196 0.76265 0.21763 0.0
C919 C 0.17526 0.76257 0.18464 0.0
H920 H 0.36629 0.95667 0.07007 0.0
H921 H 0.4047 0.01183 1.01038 0.0
H922 H 0.40644 0.98572 0.96511 0.0
H923 H 0.40072 0.88976 0.02991 0.0
H924 H 0.36846 0.88178 0.0353 0.0
H925 H 0.37623 0.90057 0.06367 0.0
H926 H 0.3281 0.94148 0.05645 0.0
H927 H 0.32042 0.92326 0.02757 0.0
H928 H 0.32011 0.95951 1.01787 0.0
H929 H 0.39644 0.95901 0.92505 0.0
H930 H 0.37902 0.93147 0.89428 0.0
H931 H 0.34486 0.89586 0.98041 0.0
C932 C 0.37608 0.96247 0.0477 0.0
C933 C 0.38562 0.98602 0.04376 0.0
C934 C 0.39786 0.99344 1.01407 0.0
C935 C 0.39865 0.9789 0.98818 0.0
C936 C 0.38731 0.95694 0.99254 0.0
C937 C 0.3766 0.94852 1.02172 0.0
C938 C 0.36259 0.92683 1.01979 0.0
C939 C 0.37793 0.89802 0.03825 0.0
C940 C 0.33095 0.93848 0.03107 0.0
C941 C 0.36681 0.92452 0.98486 0.0
C942 C 0.38116 0.94195 0.9695 0.0
C943 C 0.38571 0.94485 0.9369 0.0
C944 C 0.37557 0.92931 0.91961 0.0
C945 C 0.361 0.91119 0.93499 0.0
C946 C 0.35668 0.90884 0.96804 0.0
H947 H 0.13928 0.29865 1.0035 0.0
H948 H 0.12282 0.3896 1.00591 0.0
H949 H 0.15357 0.38973 0.95716 0.0
H950 H 0.21231 0.28024 0.97761 0.0
H951 H 0.21264 0.25386 0.95296 0.0
H952 H 0.18772 0.26125 0.98688 0.0
H953 H 0.14652 0.27253 0.95176 0.0
H954 H 0.17137 0.26535 0.91767 0.0
H955 H 0.14279 0.29937 0.9186 0.0
H956 H 0.18851 0.37963 0.91048 0.0
H957 H 0.22641 0.35958 0.86962 0.0
H958 H 0.22045 0.2752 0.89662 0.0
C959 C 0.14206 0.31864 0.99389 0.0
C960 C 0.12832 0.34421 1.00874 0.0
C961 C 0.13257 0.36986 0.99494 0.0
C962 C 0.15012 0.37013 0.96722 0.0
C963 C 0.16329 0.34462 0.95333 0.0
C964 C 0.15955 0.31931 0.96618 0.0
C965 C 0.17724 0.29459 0.94725 0.0
C966 C 0.19875 0.27111 0.96737 0.0
C967 C 0.15834 0.28224 0.93298 0.0
C968 C 0.19181 0.30993 0.92202 0.0
C969 C 0.1833 0.33882 0.92594 0.0
C970 C 0.19503 0.35716 0.90688 0.0
C971 C 0.21648 0.34559 0.88368 0.0
C972 C 0.22595 0.31599 0.87955 0.0
C973 C 0.213 0.29807 0.89858 0.0
H974 H 0.84446 0.10132 0.96373 0.0
H975 H 0.85317 0.05489 0.88331 0.0
H976 H 0.84428 0.10003 0.84835 0.0
H977 H 0.78941 0.16435 0.93939 0.0
H978 H 0.80281 0.18899 0.95319 0.0
H979 H 0.81116 0.15292 0.97204 0.0
H980 H 0.86468 0.14485 0.96217 0.0
H981 H 0.85649 0.18103 0.94359 0.0
H982 H 0.87944 0.15125 0.92287 0.0
H983 H 0.82944 0.15007 0.82327 0.0
H984 H 0.81625 0.20209 0.80763 0.0
H985 H 0.82117 0.21654 0.90317 0.0
C986 C 0.84489 0.10079 0.93869 0.0
C987 C 0.84959 0.07479 0.92602 0.0
C988 C 0.85 0.0746 0.89325 0.0
C989 C 0.84478 0.10011 0.87332 0.0
C990 C 0.83972 0.12548 0.88655 0.0
C991 C 0.84037 0.12602 0.91835 0.0
C992 C 0.83451 0.15629 0.9263 0.0
C993 C 0.80789 0.16621 0.94907 0.0
C994 C 0.86032 0.15848 0.93951 0.0
C995 C 0.8297 0.17272 0.89409 0.0
C996 C 0.83254 0.15447 0.87164 0.0
C997 C 0.82751 0.16456 0.84051 0.0
C998 C 0.81976 0.19411 0.83194 0.0
C999 C 0.81759 0.21311 0.85429 0.0
C1000 C 0.82277 0.20232 0.88572 0.0
H1001 H 0.95991 0.71989 0.94684 0.0
H1002 H 0.96554 0.80513 0.93056 0.0
H1003 H 0.92795 0.81983 0.89406 0.0
H1004 H 0.94734 0.71484 0.86726 0.0
H1005 H 0.92278 0.69618 0.87958 0.0
H1006 H 0.95064 0.69215 0.90382 0.0
H1007 H 0.91366 0.70852 0.95072 0.0
H1008 H 0.8857 0.71248 0.9267 0.0
H1009 H 0.88498 0.74236 0.94616 0.0
H1010 H 0.88898 0.82554 0.8599 0.0
H1011 H 0.85021 0.82239 0.83298 0.0
H1012 H 0.87014 0.73337 0.87087 0.0
C1013 C 0.95355 0.74154 0.93532 0.0
C1014 C 0.96588 0.7613 0.9416 0.0
C1015 C 0.95635 0.78964 0.92644 0.0
C1016 C 0.93512 0.79814 0.90546 0.0
C1017 C 0.92351 0.7781 0.89979 0.0
C1018 C 0.9323 0.75041 0.91439 0.0
C1019 C 0.9157 0.73332 0.90509 0.0
C1020 C 0.93529 0.7076 0.88791 0.0
C1021 C 0.89902 0.72361 0.93388 0.0
C1022 C 0.8961 0.75572 0.88304 0.0
C1023 C 0.90107 0.78137 0.88019 0.0
C1024 C 0.88508 0.80549 0.86183 0.0
C1025 C 0.86318 0.80348 0.84647 0.0
C1026 C 0.85732 0.77761 0.84951 0.0
C1027 C 0.87432 0.75333 0.86774 0.0
H1028 H 0.13517 0.2807 0.22793 0.0
H1029 H 0.16902 0.28629 0.13069 0.0
H1030 H 0.21143 0.29091 0.14764 0.0
H1031 H 0.15877 0.33149 0.25358 0.0
H1032 H 0.16856 0.31236 0.2913 0.0
H1033 H 0.14133 0.30718 0.27241 0.0
H1034 H 0.16879 0.25239 0.2761 0.0
H1035 H 0.19599 0.2575 0.2952 0.0
H1036 H 0.20509 0.23924 0.26012 0.0
H1037 H 0.24724 0.30018 0.17319 0.0
H1038 H 0.27821 0.30866 0.20673 0.0
H1039 H 0.22444 0.29523 0.28931 0.0
C1040 C 0.15177 0.28231 0.21026 0.0
C1041 C 0.14858 0.28307 0.17782 0.0
C1042 C 0.17078 0.28549 0.15557 0.0
C1043 C 0.19503 0.28821 0.16498 0.0
C1044 C 0.19718 0.28811 0.19684 0.0
C1045 C 0.17651 0.28473 0.21933 0.0
C1046 C 0.18435 0.28592 0.25203 0.0
C1047 C 0.16191 0.31072 0.26828 0.0
C1048 C 0.18882 0.25704 0.27205 0.0
C1049 C 0.21216 0.29145 0.24413 0.0
C1050 C 0.21888 0.2926 0.21206 0.0
C1051 C 0.24242 0.29894 0.19835 0.0
C1052 C 0.25987 0.30385 0.21779 0.0
C1053 C 0.25401 0.3025 0.25084 0.0
C1054 C 0.22976 0.29607 0.26426 0.0
H1055 H 0.11095 0.75355 0.93772 0.0
H1056 H 0.09065 0.8184 1.00243 0.0
H1057 H 0.13356 0.82951 0.98064 0.0
H1058 H 0.18493 0.7268 0.94179 0.0
H1059 H 0.19319 0.72126 0.90082 0.0
H1060 H 0.1603 0.71962 0.92038 0.0
H1061 H 0.1325 0.75875 0.87904 0.0
H1062 H 0.16534 0.76028 0.85914 0.0
H1063 H 0.13847 0.79251 0.87177 0.0
H1064 H 0.18066 0.83145 0.95295 0.0
H1065 H 0.22513 0.82672 0.92 0.0
H1066 H 0.21399 0.76049 0.8734 0.0
C1067 C 0.11528 0.77035 0.94718 0.0
C1068 C 0.09731 0.78515 0.97184 0.0
C1069 C 0.10388 0.80695 0.9834 0.0
C1070 C 0.12833 0.81326 0.97126 0.0
C1071 C 0.14589 0.79775 0.94739 0.0
C1072 C 0.13939 0.77698 0.93525 0.0
C1073 C 0.16161 0.7632 0.90976 0.0
C1074 C 0.17584 0.7308 0.91874 0.0
C1075 C 0.14871 0.76904 0.87805 0.0
C1076 C 0.18201 0.77907 0.90969 0.0
C1077 C 0.1726 0.79894 0.93152 0.0
C1078 C 0.18807 0.81602 0.93574 0.0
C1079 C 0.21346 0.81306 0.91693 0.0
C1080 C 0.22335 0.79313 0.89403 0.0
C1081 C 0.20731 0.77582 0.89071 0.0
H1082 H 0.34365 0.12037 1.01944 0.0
H1083 H 0.26032 0.11556 1.01808 0.0
H1084 H 0.25347 0.14841 0.96865 0.0
H1085 H 0.32648 0.19286 0.99532 0.0
H1086 H 0.35932 0.18931 0.97201 0.0
H1087 H 0.35824 0.16333 1.00481 0.0
H1088 H 0.37899 0.12245 0.96831 0.0
H1089 H 0.38003 0.14839 0.93529 0.0
H1090 H 0.36146 0.12399 0.93395 0.0
H1091 H 0.25417 0.18713 0.92272 0.0
H1092 H 0.26267 0.22587 0.88513 0.0
H1093 H 0.34622 0.20307 0.91644 0.0
C1094 C 0.32405 0.12582 1.00858 0.0
C1095 C 0.30245 0.11543 0.02266 0.0
C1096 C 0.27721 0.12309 1.00759 0.0
C1097 C 0.27318 0.14176 0.97955 0.0
C1098 C 0.29482 0.1521 0.96668 0.0
C1099 C 0.31989 0.14402 0.98068 0.0
C1100 C 0.33944 0.15896 0.96353 0.0
C1101 C 0.34625 0.17719 0.98521 0.0
C1102 C 0.36659 0.13714 0.94943 0.0
C1103 C 0.32121 0.17759 0.93813 0.0
C1104 C 0.2956 0.17326 0.94003 0.0
C1105 C 0.27447 0.18997 0.92052 0.0
C1106 C 0.27955 0.21177 0.899 0.0
C1107 C 0.30558 0.21647 0.89698 0.0
C1108 C 0.32664 0.19902 0.91664 0.0
H1109 H 1.00849 0.2564 0.09271 0.0
H1110 H 0.08276 0.26046 0.03342 0.0
H1111 H 0.05877 0.26238 0.98652 0.0
H1112 H 0.98743 0.21332 0.04288 0.0
H1113 H 0.95027 0.23302 0.05048 0.0
H1114 H 0.97438 0.2284 0.07972 0.0
H1115 H 0.95719 0.28354 0.08106 0.0
H1116 H 0.93323 0.28834 0.05168 0.0
H1117 H 0.95888 0.30616 0.04515 0.0
H1118 H 1.02547 0.26924 0.94601 0.0
H1119 H 0.9855 0.27823 0.91418 0.0
H1120 H 0.93218 0.26933 0.99864 0.0
C1121 C 1.02007 0.25667 0.06993 0.0
C1122 C 0.04777 0.25783 0.06686 0.0
C1123 C 0.06173 0.25921 0.03647 0.0
C1124 C 0.04823 0.26038 1.00963 0.0
C1125 C 1.02069 0.26008 1.01341 0.0
C1126 C 1.00679 0.25797 0.04275 0.0
C1127 C 0.97655 0.26 0.04 0.0
C1128 C 0.97189 0.23201 0.05411 0.0
C1129 C 0.95521 0.28606 0.05539 0.0
C1130 C 0.97552 0.26408 1.00458 0.0
C1131 C 1.0013 0.26399 0.98979 0.0
C1132 C 1.00532 0.26897 0.95731 0.0
C1133 C 0.98245 0.2742 0.93943 0.0
C1134 C 0.9558 0.27439 0.95391 0.0
C1135 C 0.95243 0.26892 0.98694 0.0
H1136 H 0.79613 0.9664 0.9318 0.0
H1137 H 0.73464 0.95275 1.00557 0.0
H1138 H 0.72402 0.92138 0.9733 0.0
H1139 H 0.75855 0.96506 0.86446 0.0
H1140 H 0.79073 0.94572 0.84243 0.0
H1141 H 0.79127 0.96963 0.86976 0.0
H1142 H 0.83018 0.92809 0.89828 0.0
H1143 H 0.82968 0.90414 0.87108 0.0
H1144 H 0.82397 0.89516 0.91264 0.0
H1145 H 0.72281 0.8885 0.9351 0.0
H1146 H 0.7316 0.85584 0.89416 0.0
H1147 H 0.79437 0.89021 0.84524 0.0
C1148 C 0.77991 0.9574 0.94085 0.0
C1149 C 0.76593 0.96235 0.97111 0.0
C1150 C 0.74545 0.94947 0.98241 0.0
C1151 C 0.73925 0.93164 0.96422 0.0
C1152 C 0.75376 0.9268 0.93476 0.0
C1153 C 0.77367 0.9393 0.92311 0.0
C1154 C 0.78778 0.92885 0.89176 0.0
C1155 C 0.78171 0.95381 0.86555 0.0
C1156 C 0.81979 0.91313 0.89357 0.0
C1157 C 0.77293 0.90826 0.88783 0.0
C1158 C 0.75325 0.90757 0.91279 0.0
C1159 C 0.73793 0.88911 0.91526 0.0
C1160 C 0.74311 0.87059 0.89185 0.0
C1161 C 0.7635 0.87055 0.86626 0.0
C1162 C 0.77826 0.89002 0.86412 0.0
H1163 H 0.98197 0.81251 0.143 0.0
H1164 H 0.95558 0.7714 0.07654 0.0
H1165 H 0.91893 0.76369 0.1161 0.0
H1166 H 0.97155 0.76827 0.21189 0.0
H1167 H 0.95745 0.79688 0.23705 0.0
H1168 H 0.98166 0.79969 0.2036 0.0
H1169 H 0.9454 0.84788 0.1833 0.0
H1170 H 0.92063 0.84548 0.21633 0.0
H1171 H 0.91039 0.84984 0.17695 0.0
H1172 H 0.88903 0.75524 0.16452 0.0
H1173 H 0.86007 0.75618 0.21481 0.0
H1174 H 0.90125 0.80741 0.24915 0.0
C1175 C 0.96813 0.80234 0.13664 0.0
C1176 C 0.97172 0.79259 0.10653 0.0
C1177 C 0.95317 0.77933 0.0992 0.0
C1178 C 0.93242 0.77459 0.12168 0.0
C1179 C 0.92996 0.78372 0.15131 0.0
C1180 C 0.94667 0.79811 0.1586 0.0
C1181 C 0.93879 0.80655 0.19198 0.0
C1182 C 0.96386 0.79197 0.21232 0.0
C1183 C 0.92815 0.83937 0.19214 0.0
C1184 C 0.91515 0.79452 0.20227 0.0
C1185 C 0.91107 0.78072 0.17866 0.0
C1186 C 0.89179 0.7663 0.18303 0.0
C1187 C 0.87557 0.76676 0.21185 0.0
C1188 C 0.87833 0.78184 0.23602 0.0
C1189 C 0.89853 0.79583 0.23109 0.0
H1190 H 0.32383 0.98465 0.20257 0.0
H1191 H 0.27019 0.98769 0.13048 0.0
H1192 H 0.26601 0.94139 0.15497 0.0
H1193 H 0.36232 0.91003 0.20679 0.0
H1194 H 0.36439 0.906 0.24863 0.0
H1195 H 0.36179 0.93981 0.22632 0.0
H1196 H 0.31733 0.96579 0.26173 0.0
H1197 H 0.31997 0.93209 0.28437 0.0
H1198 H 0.28765 0.95347 0.26681 0.0
H1199 H 0.26837 0.89376 0.18829 0.0
H1200 H 0.27675 0.85044 0.22645 0.0
H1201 H 0.33045 0.87885 0.27467 0.0
C1202 C 0.31096 0.97583 0.19191 0.0
C1203 C 0.29722 0.99 0.16456 0.0
C1204 C 0.28075 0.97742 0.15151 0.0
C1205 C 0.27835 0.95106 0.16524 0.0
C1206 C 0.29258 0.93753 0.19198 0.0
C1207 C 0.30848 0.94965 0.20515 0.0
C1208 C 0.32214 0.93089 0.23354 0.0
C1209 C 0.35458 0.9211 0.2285 0.0
C1210 C 0.31111 0.94649 0.26337 0.0
C1211 C 0.31181 0.90598 0.23423 0.0
C1212 C 0.29456 0.91021 0.2103 0.0
C1213 C 0.28197 0.89027 0.20695 0.0
C1214 C 0.28691 0.86566 0.22872 0.0
C1215 C 0.30461 0.86091 0.25336 0.0
C1216 C 0.31728 0.8814 0.25581 0.0
H1217 H 0.8158 0.04054 0.1095 0.0
H1218 H 0.7586 0.09584 0.04194 0.0
H1219 H 0.74268 0.13456 0.07761 0.0
H1220 H 0.7694 0.06676 0.18119 0.0
H1221 H 0.79942 0.06318 0.2018 0.0
H1222 H 0.80301 0.03923 0.17274 0.0
H1223 H 0.84441 0.05355 0.14334 0.0
H1224 H 0.84079 0.0777 0.17201 0.0
H1225 H 0.8389 0.0909 0.13107 0.0
H1226 H 0.7392 0.16923 0.11745 0.0
H1227 H 0.74636 0.19549 0.1582 0.0
H1228 H 0.80328 0.11557 0.2011 0.0
C1229 C 0.79942 0.0606 0.10254 0.0
C1230 C 0.78836 0.06537 0.0731 0.0
C1231 C 0.76705 0.09179 0.06462 0.0
C1232 C 0.75799 0.11384 0.0847 0.0
C1233 C 0.77001 0.1087 0.11332 0.0
C1234 C 0.78989 0.08244 0.12242 0.0
C1235 C 0.80092 0.0826 0.1533 0.0
C1236 C 0.79268 0.06171 0.17877 0.0
C1237 C 0.83315 0.0758 0.14969 0.0
C1238 C 0.78515 0.11344 0.15964 0.0
C1239 C 0.76726 0.1282 0.13653 0.0
C1240 C 0.75259 0.15767 0.13607 0.0
C1241 C 0.75669 0.17241 0.15948 0.0
C1242 C 0.77536 0.15768 0.18306 0.0
C1243 C 0.78901 0.12764 0.18341 0.0
H1244 H 0.59226 0.62293 0.92832 0.0
H1245 H 0.64111 0.55648 0.86834 0.0
H1246 H 0.67586 0.58099 0.85363 0.0
H1247 H 0.60181 0.6813 0.87845 0.0
H1248 H 0.60478 0.70038 0.90956 0.0
H1249 H 0.58456 0.67679 0.91688 0.0
H1250 H 0.61482 0.64841 0.9627 0.0
H1251 H 0.63503 0.67206 0.95565 0.0
H1252 H 0.65276 0.63382 0.95567 0.0
H1253 H 0.70405 0.61378 0.84357 0.0
H1254 H 0.72481 0.65182 0.84048 0.0
H1255 H 0.65728 0.69707 0.90664 0.0
C1256 C 0.61055 0.61327 0.91258 0.0
C1257 C 0.61396 0.58787 0.89939 0.0
C1258 C 0.63793 0.57614 0.87841 0.0
C1259 C 0.65783 0.58981 0.87003 0.0
C1260 C 0.65352 0.61515 0.88292 0.0
C1261 C 0.6306 0.62669 0.9039 0.0
C1262 C 0.63048 0.65462 0.91361 0.0
C1263 C 0.60383 0.67975 0.90404 0.0
C1264 C 0.63346 0.65206 0.94901 0.0
C1265 C 0.65674 0.65709 0.89456 0.0
C1266 C 0.66976 0.63409 0.87707 0.0
C1267 C 0.69411 0.63187 0.85723 0.0
C1268 C 0.7056 0.65369 0.85543 0.0
C1269 C 0.69269 0.67739 0.87334 0.0
C1270 C 0.66788 0.67904 0.89301 0.0
H1271 H 0.46548 0.62232 0.90502 0.0
H1272 H 0.47469 0.59265 0.81324 0.0
H1273 H 0.43181 0.63413 0.79867 0.0
H1274 H 0.39018 0.64713 0.91592 0.0
H1275 H 0.38784 0.67767 0.93523 0.0
H1276 H 0.41866 0.64559 0.93797 0.0
H1277 H 0.45089 0.67506 0.916 0.0
H1278 H 0.42026 0.70729 0.91355 0.0
H1279 H 0.44411 0.69714 0.87918 0.0
H1280 H 0.38603 0.67955 0.79569 0.0
H1281 H 0.34659 0.72562 0.80241 0.0
H1282 H 0.37024 0.72479 0.89552 0.0
C1283 C 0.45855 0.62439 0.8818 0.0
C1284 C 0.47331 0.60411 0.86032 0.0
C1285 C 0.46371 0.60796 0.83005 0.0
C1286 C 0.43929 0.63135 0.8217 0.0
C1287 C 0.42501 0.65076 0.8438 0.0
C1288 C 0.43468 0.64755 0.87308 0.0
C1289 C 0.4166 0.67151 0.8925 0.0
C1290 C 0.40249 0.65977 0.92215 0.0
C1291 C 0.434 0.68877 0.90078 0.0
C1292 C 0.39511 0.68903 0.86967 0.0
C1293 C 0.39987 0.67666 0.84181 0.0
C1294 C 0.38225 0.68927 0.81745 0.0
C1295 C 0.3597 0.71532 0.82155 0.0
C1296 C 0.35524 0.72859 0.84959 0.0
C1297 C 0.37312 0.71506 0.87387 0.0
H1298 H 0.47148 0.4579 0.93717 0.0
H1299 H 0.53417 0.44073 0.85761 0.0
H1300 H 0.51398 0.40737 0.84135 0.0
H1301 H 0.46984 0.38421 0.95335 0.0
H1302 H 0.43232 0.39664 0.96409 0.0
H1303 H 0.45309 0.41759 0.97068 0.0
H1304 H 0.42002 0.46162 0.93841 0.0
H1305 H 0.39933 0.44077 0.93147 0.0
H1306 H 0.41455 0.45846 0.89881 0.0
H1307 H 0.48491 0.37867 0.83151 0.0
H1308 H 0.4504 0.35431 0.83077 0.0
H1309 H 0.40697 0.39012 0.91677 0.0
C1310 C 0.48133 0.44662 0.91676 0.0
C1311 C 0.50424 0.45206 0.89854 0.0
C1312 C 0.5163 0.43723 0.87164 0.0
C1313 C 0.5051 0.41811 0.8623 0.0
C1314 C 0.48198 0.41386 0.88026 0.0
C1315 C 0.47041 0.42743 0.90711 0.0
C1316 C 0.44499 0.41986 0.92157 0.0
C1317 C 0.45039 0.4036 0.95437 0.0
C1318 C 0.41814 0.44678 0.92261 0.0
C1319 C 0.44379 0.40042 0.89829 0.0
C1320 C 0.46536 0.39713 0.8747 0.0
C1321 C 0.46804 0.38085 0.85001 0.0
C1322 C 0.44826 0.36731 0.84963 0.0
C1323 C 0.42616 0.37019 0.87379 0.0
C1324 C 0.42395 0.38709 0.89828 0.0
H1325 H 0.64841 0.46923 0.89247 0.0
H1326 H 0.60515 0.46155 0.81555 0.0
H1327 H 0.64629 0.41852 0.80174 0.0
H1328 H 0.71939 0.44728 0.85293 0.0
H1329 H 0.73538 0.42873 0.88841 0.0
H1330 H 0.7032 0.45936 0.89046 0.0
H1331 H 0.6792 0.42854 0.92849 0.0
H1332 H 0.71114 0.39771 0.92619 0.0
H1333 H 0.6784 0.39575 0.91663 0.0
H1334 H 0.6915 0.37335 0.79992 0.0
H1335 H 0.73783 0.33464 0.80627 0.0
H1336 H 0.75097 0.37393 0.88333 0.0
C1337 C 0.64769 0.45877 0.87239 0.0
C1338 C 0.62363 0.46868 0.85502 0.0
C1339 C 0.62353 0.45445 0.82893 0.0
C1340 C 0.6467 0.4299 0.82113 0.0
C1341 C 0.66981 0.42022 0.83946 0.0
C1342 C 0.67056 0.43463 0.86421 0.0
C1343 C 0.69753 0.42013 0.88054 0.0
C1344 C 0.7149 0.44006 0.87791 0.0
C1345 C 0.69117 0.40993 0.91499 0.0
C1346 C 0.71193 0.39499 0.86139 0.0
C1347 C 0.69561 0.39513 0.83796 0.0
C1348 C 0.7044 0.37328 0.81809 0.0
C1349 C 0.73063 0.35114 0.82203 0.0
C1350 C 0.7479 0.35114 0.84533 0.0
C1351 C 0.73824 0.37337 0.86524 0.0
H1352 H 0.66886 0.48002 0.27175 0.0
H1353 H 0.59328 0.46295 0.31199 0.0
H1354 H 0.62221 0.41199 0.32553 0.0
H1355 H 0.70104 0.4185 0.23574 0.0
H1356 H 0.73665 0.41306 0.24386 0.0
H1357 H 0.71071 0.44866 0.24145 0.0
H1358 H 0.72024 0.45495 0.29686 0.0
H1359 H 0.74616 0.41921 0.30007 0.0
H1360 H 0.71678 0.42944 0.32939 0.0
H1361 H 0.65849 0.36152 0.32629 0.0
H1362 H 0.69977 0.31695 0.31973 0.0
H1363 H 0.75186 0.36779 0.28187 0.0
C1364 C 0.65853 0.46572 0.28426 0.0
C1365 C 0.62891 0.47536 0.291 0.0
C1366 C 0.61602 0.45605 0.30707 0.0
C1367 C 0.63228 0.42705 0.31466 0.0
C1368 C 0.66139 0.41798 0.30659 0.0
C1369 C 0.67445 0.43695 0.29239 0.0
C1370 C 0.70577 0.42173 0.28478 0.0
C1371 C 0.714 0.42573 0.24936 0.0
C1372 C 0.72329 0.43193 0.30392 0.0
C1373 C 0.70814 0.39099 0.29553 0.0
C1374 C 0.68235 0.3892 0.30813 0.0
C1375 C 0.67887 0.36275 0.31708 0.0
C1376 C 0.70232 0.33758 0.31305 0.0
C1377 C 0.72888 0.3391 0.30046 0.0
C1378 C 0.73183 0.36613 0.292 0.0
H1379 H 0.61678 0.62134 0.2671 0.0
H1380 H 0.6628 0.58185 0.18404 0.0
H1381 H 0.70216 0.598 0.19088 0.0
H1382 H 0.63831 0.68358 0.25376 0.0
H1383 H 0.64073 0.68481 0.2948 0.0
H1384 H 0.61618 0.67037 0.28304 0.0
H1385 H 0.63867 0.62302 0.31795 0.0
H1386 H 0.66343 0.63722 0.32966 0.0
H1387 H 0.67613 0.60369 0.31234 0.0
H1388 H 0.73676 0.61712 0.20764 0.0
H1389 H 0.76308 0.64135 0.23056 0.0
H1390 H 0.69452 0.66831 0.30311 0.0
C1391 C 0.63516 0.61612 0.25038 0.0
C1392 C 0.63685 0.60034 0.22505 0.0
C1393 C 0.66102 0.59421 0.20336 0.0
C1394 C 0.68352 0.60307 0.20723 0.0
C1395 C 0.68134 0.61819 0.23276 0.0
C1396 C 0.65767 0.62496 0.25378 0.0
C1397 C 0.66045 0.64186 0.27892 0.0
C1398 C 0.63756 0.67194 0.27753 0.0
C1399 C 0.65962 0.62545 0.31165 0.0
C1400 C 0.68951 0.64338 0.26887 0.0
C1401 C 0.70123 0.62945 0.2423 0.0
C1402 C 0.72786 0.62802 0.2285 0.0
C1403 C 0.74276 0.6416 0.24191 0.0
C1404 C 0.73098 0.65646 0.26884 0.0
C1405 C 0.70407 0.65712 0.28255 0.0
H1406 H 0.49571 0.65911 0.25205 0.0
H1407 H 0.48813 0.59403 0.3265 0.0
H1408 H 0.44283 0.62834 0.34689 0.0
H1409 H 0.46209 0.72217 0.29916 0.0
H1410 H 0.44498 0.74475 0.26599 0.0
H1411 H 0.47864 0.71653 0.26003 0.0
H1412 H 0.45725 0.69544 0.22217 0.0
H1413 H 0.42359 0.72342 0.22808 0.0
H1414 H 0.42619 0.68632 0.23559 0.0
H1415 H 0.39522 0.66595 0.35304 0.0
H1416 H 0.3498 0.70547 0.34697 0.0
H1417 H 0.38886 0.74845 0.27135 0.0
C1418 C 0.48487 0.65227 0.27311 0.0
C1419 C 0.49547 0.62388 0.28775 0.0
C1420 C 0.48055 0.61571 0.31508 0.0
C1421 C 0.45481 0.63507 0.32681 0.0
C1422 C 0.44458 0.66265 0.31129 0.0
C1423 C 0.45935 0.67143 0.28532 0.0
C1424 C 0.44276 0.70152 0.2716 0.0
C1425 C 0.45803 0.72248 0.27437 0.0
C1426 C 0.43712 0.70166 0.23734 0.0
C1427 C 0.41574 0.70785 0.29305 0.0
C1428 C 0.41737 0.68514 0.31589 0.0
C1429 C 0.39402 0.68424 0.33599 0.0
C1430 C 0.3683 0.70682 0.3324 0.0
C1431 C 0.36616 0.73036 0.30939 0.0
C1432 C 0.3903 0.73118 0.28987 0.0
H1433 H 0.49921 0.47572 0.20286 0.0
H1434 H 0.48628 0.50635 0.29496 0.0
H1435 H 0.45529 0.47858 0.3129 0.0
H1436 H 0.42863 0.47431 0.20035 0.0
H1437 H 0.44101 0.44164 0.18141 0.0
H1438 H 0.46082 0.46566 0.17486 0.0
H1439 H 0.50547 0.42402 0.19299 0.0
H1440 H 0.48578 0.3999 0.19968 0.0
H1441 H 0.50382 0.40432 0.23097 0.0
H1442 H 0.4278 0.44523 0.32225 0.0
H1443 H 0.40425 0.40995 0.32117 0.0
H1444 H 0.43609 0.3999 0.22385 0.0
C1445 C 0.48986 0.47674 0.22676 0.0
C1446 C 0.49536 0.49351 0.24725 0.0
C1447 C 0.48232 0.49425 0.27836 0.0
C1448 C 0.46471 0.47829 0.28899 0.0
C1449 C 0.46027 0.46164 0.26835 0.0
C1450 C 0.47235 0.46082 0.23786 0.0
C1451 C 0.46489 0.4404 0.22076 0.0
C1452 C 0.44782 0.45648 0.19269 0.0
C1453 C 0.49158 0.4157 0.21051 0.0
C1454 C 0.44686 0.4298 0.2465 0.0
C1455 C 0.44447 0.4423 0.27378 0.0
C1456 C 0.42941 0.43536 0.301 0.0
C1457 C 0.4163 0.41519 0.30023 0.0
C1458 C 0.41833 0.40228 0.27243 0.0
C1459 C 0.43387 0.40973 0.2453 0.0
H1460 H 0.7933 0.62364 0.69456 0.0
H1461 H 0.81052 0.66384 0.60236 0.0
H1462 H 0.81291 0.70454 0.62673 0.0
H1463 H 0.74927 0.68825 0.72765 0.0
H1464 H 0.76248 0.67837 0.76599 0.0
H1465 H 0.76232 0.6511 0.74289 0.0
H1466 H 0.81552 0.62449 0.74525 0.0
H1467 H 0.81677 0.65014 0.76992 0.0
H1468 H 0.83974 0.64375 0.73433 0.0
H1469 H 0.81754 0.73884 0.66125 0.0
H1470 H 0.81777 0.76768 0.70317 0.0
H1471 H 0.79508 0.70673 0.77281 0.0
C1472 C 0.79717 0.64118 0.67942 0.0
C1473 C 0.8017 0.64047 0.64647 0.0
C1474 C 0.80684 0.66386 0.6276 0.0
C1475 C 0.80839 0.68705 0.64125 0.0
C1476 C 0.80454 0.68671 0.67379 0.0
C1477 C 0.79862 0.66461 0.69264 0.0
C1478 C 0.79545 0.66946 0.72704 0.0
C1479 C 0.76561 0.67199 0.74178 0.0
C1480 C 0.81823 0.64553 0.74519 0.0
C1481 C 0.80039 0.69782 0.72452 0.0
C1482 C 0.80609 0.70712 0.69364 0.0
C1483 C 0.81282 0.73194 0.6855 0.0
C1484 C 0.8132 0.74802 0.70951 0.0
C1485 C 0.80653 0.73943 0.74125 0.0
C1486 C 0.80019 0.71389 0.74874 0.0
H1487 H 0.46472 0.84673 0.69841 0.0
H1488 H 0.48127 0.78297 0.63281 0.0
H1489 H 0.43984 0.77141 0.65726 0.0
H1490 H 0.44446 0.80543 0.76503 0.0
H1491 H 0.41758 0.83598 0.78105 0.0
H1492 H 0.44777 0.84041 0.75733 0.0
H1493 H 0.41452 0.87939 0.7201 0.0
H1494 H 0.38421 0.87507 0.7437 0.0
H1495 H 0.38846 0.87108 0.70233 0.0
H1496 H 0.39696 0.76538 0.69034 0.0
H1497 H 0.35672 0.76561 0.72873 0.0
H1498 H 0.36848 0.83245 0.77373 0.0
C1499 C 0.4599 0.83031 0.68893 0.0
C1500 C 0.47687 0.81591 0.66331 0.0
C1501 C 0.46898 0.79473 0.65201 0.0
C1502 C 0.44534 0.78783 0.66592 0.0
C1503 C 0.42952 0.80218 0.69128 0.0
C1504 C 0.43648 0.823 0.70266 0.0
C1505 C 0.41643 0.83475 0.73073 0.0
C1506 C 0.43252 0.82878 0.76028 0.0
C1507 C 0.39993 0.86699 0.72379 0.0
C1508 C 0.39709 0.81725 0.73344 0.0
C1509 C 0.40499 0.79862 0.7104 0.0
C1510 C 0.39058 0.77998 0.70837 0.0
C1511 C 0.36763 0.78031 0.7304 0.0
C1512 C 0.35909 0.79912 0.75443 0.0
C1513 C 0.37417 0.81788 0.7557 0.0
H1514 H 0.29368 0.41387 0.62366 0.0
H1515 H 0.35343 0.43959 0.66466 0.0
H1516 H 0.34756 0.41034 0.71416 0.0
H1517 H 0.24667 0.412 0.69446 0.0
H1518 H 0.2407 0.38047 0.68605 0.0
H1519 H 0.24833 0.40473 0.65438 0.0
H1520 H 0.2905 0.3627 0.63275 0.0
H1521 H 0.28289 0.33833 0.66424 0.0
H1522 H 0.31759 0.34111 0.65814 0.0
H1523 H 0.33594 0.37723 0.75923 0.0
H1524 H 0.32175 0.34053 0.79461 0.0
H1525 H 0.27055 0.3353 0.72408 0.0
C1526 C 0.30523 0.41358 0.64322 0.0
C1527 C 0.32399 0.42909 0.64027 0.0
C1528 C 0.33914 0.42773 0.66624 0.0
C1529 C 0.33579 0.41132 0.69455 0.0
C1530 C 0.31729 0.39614 0.69665 0.0
C1531 C 0.30239 0.39696 0.6716 0.0
C1532 C 0.28507 0.37739 0.67943 0.0
C1533 C 0.2533 0.39469 0.67853 0.0
C1534 C 0.29459 0.35347 0.65733 0.0
C1535 C 0.29261 0.36542 0.71269 0.0
C1536 C 0.31101 0.37671 0.72233 0.0
C1537 C 0.3214 0.36838 0.75195 0.0
C1538 C 0.31315 0.34763 0.77198 0.0
C1539 C 0.29489 0.33527 0.76221 0.0
C1540 C 0.28431 0.3446 0.73231 0.0
H1541 H 0.60924 0.25346 0.58108 0.0
H1542 H 0.53801 0.33335 0.58435 0.0
H1543 H 0.56375 0.35103 0.61748 0.0
H1544 H 0.62537 0.24551 0.65869 0.0
H1545 H 0.66314 0.23102 0.65001 0.0
H1546 H 0.64 0.22608 0.62475 0.0
H1547 H 0.66298 0.24949 0.5769 0.0
H1548 H 0.68641 0.25428 0.602 0.0
H1549 H 0.66449 0.28469 0.57833 0.0
H1550 H 0.59742 0.35836 0.65292 0.0
H1551 H 0.63503 0.35475 0.6865 0.0
H1552 H 0.68287 0.2694 0.65959 0.0
C1553 C 0.599 0.27482 0.58849 0.0
C1554 C 0.57154 0.29203 0.5802 0.0
C1555 C 0.55909 0.31988 0.59028 0.0
C1556 C 0.57355 0.33002 0.60914 0.0
C1557 C 0.60048 0.31213 0.61735 0.0
C1558 C 0.61308 0.28518 0.60704 0.0
C1559 C 0.64174 0.26958 0.61953 0.0
C1560 C 0.64258 0.24139 0.63943 0.0
C1561 C 0.66529 0.2642 0.59259 0.0
C1562 C 0.6431 0.2915 0.63945 0.0
C1563 C 0.61937 0.31612 0.63764 0.0
C1564 C 0.61609 0.33922 0.65431 0.0
C1565 C 0.63755 0.33702 0.67326 0.0
C1566 C 0.66175 0.31175 0.67572 0.0
C1567 C 0.66447 0.28885 0.65843 0.0
H1568 H 0.79385 0.55204 0.47633 0.0
H1569 H 0.77555 0.52644 0.57439 0.0
H1570 H 0.76357 0.48667 0.55905 0.0
H1571 H 0.73833 0.53291 0.44527 0.0
H1572 H 0.76088 0.52067 0.41064 0.0
H1573 H 0.76417 0.54919 0.42937 0.0
H1574 H 0.81745 0.5202 0.43391 0.0
H1575 H 0.81428 0.4915 0.41558 0.0
H1576 H 0.82799 0.48429 0.45358 0.0
H1577 H 0.76043 0.44535 0.53294 0.0
H1578 H 0.76209 0.40924 0.49807 0.0
H1579 H 0.78155 0.46302 0.4176 0.0
C1580 C 0.78655 0.5386 0.49458 0.0
C1581 C 0.78558 0.54246 0.52655 0.0
C1582 C 0.7762 0.52415 0.5497 0.0
C1583 C 0.76947 0.50138 0.54121 0.0
C1584 C 0.77177 0.4975 0.50947 0.0
C1585 C 0.77957 0.516 0.48651 0.0
C1586 C 0.78206 0.50638 0.45421 0.0
C1587 C 0.76004 0.52861 0.43367 0.0
C1588 C 0.81223 0.50022 0.43842 0.0
C1589 C 0.77535 0.47907 0.4626 0.0
C1590 C 0.76937 0.47425 0.49454 0.0
C1591 C 0.76453 0.44923 0.50784 0.0
C1592 C 0.7657 0.42875 0.48793 0.0
C1593 C 0.77153 0.43351 0.45511 0.0
C1594 C 0.77629 0.4591 0.44248 0.0
H1595 H 0.66005 0.82659 0.51004 0.0
H1596 H 0.59045 0.83688 0.45537 0.0
H1597 H 0.62257 0.83185 0.407 0.0
H1598 H 0.69321 0.86753 0.45291 0.0
H1599 H 0.72888 0.84481 0.46022 0.0
H1600 H 0.70085 0.84823 0.49105 0.0
H1601 H 0.71345 0.79305 0.49804 0.0
H1602 H 0.7416 0.78948 0.46735 0.0
H1603 H 0.71465 0.77454 0.46463 0.0
H1604 H 0.6622 0.82351 0.36486 0.0
H1605 H 0.70657 0.81561 0.33074 0.0
H1606 H 0.75078 0.8146 0.41077 0.0
C1607 C 0.65171 0.82772 0.48783 0.0
C1608 C 0.62265 0.83225 0.48645 0.0
C1609 C 0.61246 0.8338 0.45695 0.0
C1610 C 0.63061 0.8308 0.42936 0.0
C1611 C 0.65899 0.82663 0.43141 0.0
C1612 C 0.66955 0.82533 0.45979 0.0
C1613 C 0.70088 0.82143 0.45501 0.0
C1614 C 0.70626 0.84703 0.46541 0.0
C1615 C 0.71869 0.79293 0.47229 0.0
C1616 C 0.70617 0.82072 0.41958 0.0
C1617 C 0.68171 0.82337 0.40661 0.0
C1618 C 0.68138 0.8218 0.37468 0.0
C1619 C 0.70667 0.81733 0.35546 0.0
C1620 C 0.73192 0.81507 0.36795 0.0
C1621 C 0.73159 0.81699 0.40046 0.0
H1622 H 0.29159 0.60342 0.45485 0.0
H1623 H 0.37386 0.58104 0.48987 0.0
H1624 H 0.37454 0.62962 0.47097 0.0
H1625 H 0.30689 0.64368 0.38408 0.0
H1626 H 0.27192 0.67037 0.38346 0.0
H1627 H 0.27674 0.63465 0.40189 0.0
H1628 H 0.2511 0.65564 0.45347 0.0
H1629 H 0.24631 0.69145 0.43519 0.0
H1630 H 0.26375 0.67892 0.47102 0.0
H1631 H 0.36712 0.67973 0.44763 0.0
H1632 H 0.35425 0.72707 0.4172 0.0
H1633 H 0.27737 0.71765 0.39429 0.0
C1634 C 0.30954 0.60899 0.45876 0.0
C1635 C 0.33269 0.58853 0.47392 0.0
C1636 C 0.35606 0.59633 0.47817 0.0
C1637 C 0.35651 0.62393 0.46771 0.0
C1638 C 0.33353 0.64355 0.45271 0.0
C1639 C 0.31056 0.63644 0.44789 0.0
C1640 C 0.28958 0.66109 0.42913 0.0
C1641 C 0.28609 0.65189 0.39778 0.0
C1642 C 0.26099 0.67244 0.44836 0.0
C1643 C 0.30445 0.68304 0.42407 0.0
C1644 C 0.32957 0.67248 0.43829 0.0
C1645 C 0.34745 0.68827 0.43648 0.0
C1646 C 0.33986 0.71528 0.41912 0.0
C1647 C 0.31468 0.72638 0.40336 0.0
C1648 C 0.29653 0.71009 0.40639 0.0
H1649 H 0.46219 0.30693 0.41854 0.0
H1650 H 0.44152 0.27331 0.5128 0.0
H1651 H 0.39972 0.26766 0.49493 0.0
H1652 H 0.39046 0.34759 0.40426 0.0
H1653 H 0.39057 0.34182 0.36416 0.0
H1654 H 0.42205 0.34274 0.37857 0.0
H1655 H 0.45405 0.29326 0.36625 0.0
H1656 H 0.42642 0.29025 0.3462 0.0
H1657 H 0.44241 0.26296 0.37664 0.0
H1658 H 0.36414 0.25951 0.4655 0.0
H1659 H 0.33214 0.25671 0.42857 0.0
H1660 H 0.37141 0.30059 0.35413 0.0
C1661 C 0.44857 0.29885 0.4355 0.0
C1662 C 0.45514 0.29065 0.46713 0.0
C1663 C 0.43679 0.28011 0.48858 0.0
C1664 C 0.41308 0.2766 0.47858 0.0
C1665 C 0.4075 0.28432 0.44716 0.0
C1666 C 0.42429 0.29588 0.42608 0.0
C1667 C 0.41304 0.30309 0.3938 0.0
C1668 C 0.40348 0.33569 0.38459 0.0
C1669 C 0.43529 0.28642 0.36927 0.0
C1670 C 0.38801 0.29261 0.3997 0.0
C1671 C 0.38546 0.28163 0.43065 0.0
C1672 C 0.36556 0.26855 0.44138 0.0
C1673 C 0.34762 0.26683 0.42009 0.0
C1674 C 0.34923 0.27851 0.38841 0.0
C1675 C 0.3696 0.29176 0.37823 0.0
H1676 H 0.65707 0.75345 0.69292 0.0
H1677 H 0.61927 0.83801 0.64377 0.0
H1678 H 0.64577 0.85736 0.67282 0.0
H1679 H 0.6609 0.77616 0.76859 0.0
H1680 H 0.69546 0.75009 0.77508 0.0
H1681 H 0.67233 0.74229 0.75206 0.0
H1682 H 0.71114 0.73251 0.70593 0.0
H1683 H 0.73438 0.7404 0.72877 0.0
H1684 H 0.72626 0.75966 0.69079 0.0
H1685 H 0.67635 0.86809 0.70503 0.0
H1686 H 0.71406 0.86863 0.7353 0.0
H1687 H 0.73442 0.77766 0.76436 0.0
C1688 C 0.65432 0.77604 0.68851 0.0
C1689 C 0.63591 0.79422 0.66608 0.0
C1690 C 0.63325 0.82357 0.66062 0.0
C1691 C 0.64806 0.83489 0.67723 0.0
C1692 C 0.66583 0.81662 0.69917 0.0
C1693 C 0.66952 0.78773 0.70461 0.0
C1694 C 0.69188 0.77273 0.72785 0.0
C1695 C 0.67938 0.75954 0.75767 0.0
C1696 C 0.71742 0.74996 0.71241 0.0
C1697 C 0.69975 0.79781 0.73472 0.0
C1698 C 0.68419 0.82288 0.71793 0.0
C1699 C 0.68847 0.8487 0.71857 0.0
C1700 C 0.70985 0.84882 0.73596 0.0
C1701 C 0.72671 0.82341 0.75269 0.0
C1702 C 0.72122 0.79761 0.75266 0.0
H1703 H 0.61002 0.28346 0.45208 0.0
H1704 H 0.63596 0.19059 0.45742 0.0
H1705 H 0.68292 0.18816 0.43266 0.0
H1706 H 0.64604 0.29295 0.37713 0.0
H1707 H 0.65649 0.32144 0.38665 0.0
H1708 H 0.62496 0.31626 0.40612 0.0
H1709 H 0.64412 0.31202 0.46009 0.0
H1710 H 0.67572 0.31722 0.44077 0.0
H1711 H 0.67834 0.2859 0.46802 0.0
H1712 H 0.72621 0.19528 0.40556 0.0
H1713 H 0.76351 0.21172 0.37684 0.0
H1714 H 0.7111 0.30013 0.38905 0.0
C1715 C 0.62569 0.26261 0.44836 0.0
C1716 C 0.61908 0.23719 0.45661 0.0
C1717 C 0.64018 0.21039 0.45092 0.0
C1718 C 0.66708 0.20875 0.43707 0.0
C1719 C 0.6728 0.2341 0.42901 0.0
C1720 C 0.6528 0.26057 0.43438 0.0
C1721 C 0.66442 0.28452 0.42238 0.0
C1722 C 0.64694 0.30499 0.39654 0.0
C1723 C 0.66573 0.30088 0.44944 0.0
C1724 C 0.69391 0.26729 0.40919 0.0
C1725 C 0.69821 0.23824 0.41345 0.0
C1726 C 0.72321 0.21794 0.4023 0.0
C1727 C 0.74429 0.22752 0.38597 0.0
C1728 C 0.74041 0.25717 0.3809 0.0
C1729 C 0.71495 0.27728 0.39307 0.0
H1730 H 0.8291 0.63803 0.47222 0.0
H1731 H 0.91762 0.61606 0.48665 0.0
H1732 H 0.92181 0.65179 0.44249 0.0
H1733 H 0.83685 0.64997 0.38659 0.0
H1734 H 0.80377 0.67954 0.38456 0.0
H1735 H 0.80815 0.6511 0.41607 0.0
H1736 H 0.79418 0.68829 0.45681 0.0
H1737 H 0.78956 0.71681 0.42548 0.0
H1738 H 0.81321 0.71278 0.45502 0.0
H1739 H 0.91526 0.69256 0.39952 0.0
H1740 H 0.89852 0.73494 0.36068 0.0
H1741 H 0.81468 0.72906 0.37345 0.0
C1742 C 0.84937 0.64071 0.46605 0.0
C1743 C 0.87307 0.62433 0.48287 0.0
C1744 C 0.89932 0.62819 0.47385 0.0
C1745 C 0.90185 0.64846 0.44887 0.0
C1746 C 0.87802 0.6644 0.43291 0.0
C1747 C 0.85232 0.66061 0.44102 0.0
C1748 C 0.82974 0.68099 0.42072 0.0
C1749 C 0.819 0.6644 0.4008 0.0
C1750 C 0.80524 0.70089 0.4407 0.0
C1751 C 0.84657 0.69739 0.40049 0.0
C1752 C 0.87442 0.68741 0.40774 0.0
C1753 C 0.89361 0.70032 0.39336 0.0
C1754 C 0.88395 0.72433 0.37137 0.0
C1755 C 0.85543 0.73508 0.36402 0.0
C1756 C 0.83671 0.72106 0.37835 0.0
H1757 H 0.56059 0.76817 0.52988 0.0
H1758 H 0.53043 0.71803 0.60656 0.0
H1759 H 0.49709 0.71322 0.57236 0.0
H1760 H 0.49478 0.80843 0.50477 0.0
H1761 H 0.50605 0.81054 0.46353 0.0
H1762 H 0.53064 0.80608 0.49205 0.0
H1763 H 0.56512 0.76021 0.46853 0.0
H1764 H 0.54078 0.76467 0.43962 0.0
H1765 H 0.55278 0.7314 0.4645 0.0
H1766 H 0.46328 0.7186 0.53131 0.0
H1767 H 0.43227 0.73368 0.48763 0.0
H1768 H 0.48461 0.78062 0.43826 0.0
C1769 C 0.54772 0.75531 0.53929 0.0
C1770 C 0.54853 0.74307 0.57092 0.0
C1771 C 0.53054 0.72725 0.58237 0.0
C1772 C 0.51146 0.72447 0.5631 0.0
C1773 C 0.51057 0.73765 0.53239 0.0
C1774 C 0.52838 0.75263 0.52054 0.0
C1775 C 0.52153 0.76713 0.48787 0.0
C1776 C 0.51272 0.79998 0.48703 0.0
C1777 C 0.54654 0.75512 0.4637 0.0
C1778 C 0.49677 0.75837 0.48332 0.0
C1779 C 0.49089 0.74116 0.50909 0.0
C1780 C 0.468 0.7317 0.51083 0.0
C1781 C 0.45055 0.74028 0.48578 0.0
C1782 C 0.45591 0.75833 0.45933 0.0
C1783 C 0.47969 0.767 0.45812 0.0
H1784 H 0.32853 0.4305 0.45882 0.0
H1785 H 0.24118 0.47844 0.48759 0.0
H1786 H 0.22537 0.4551 0.45002 0.0
H1787 H 0.32175 0.43335 0.37743 0.0
H1788 H 0.3459 0.39715 0.37414 0.0
H1789 H 0.34977 0.41759 0.40334 0.0
H1790 H 0.34776 0.37672 0.44566 0.0
H1791 H 0.34171 0.35622 0.41783 0.0
H1792 H 0.31702 0.36608 0.45144 0.0
H1793 H 0.21981 0.42319 0.41063 0.0
H1794 H 0.2255 0.38833 0.3722 0.0
H1795 H 0.31643 0.36576 0.36804 0.0
C1796 C 0.30602 0.43628 0.45728 0.0
C1797 C 0.28608 0.45633 0.47616 0.0
C1798 C 0.25685 0.46312 0.47333 0.0
C1799 C 0.24769 0.44999 0.45206 0.0
C1800 C 0.26805 0.43033 0.4337 0.0
C1801 C 0.29662 0.42366 0.43615 0.0
C1802 C 0.31447 0.40155 0.41452 0.0
C1803 C 0.33411 0.41312 0.39096 0.0
C1804 C 0.33125 0.37351 0.43349 0.0
C1805 C 0.2916 0.39752 0.39854 0.0
C1806 C 0.26488 0.41362 0.41029 0.0
C1807 C 0.24065 0.411 0.40081 0.0
C1808 C 0.24401 0.39131 0.37896 0.0
C1809 C 0.27131 0.37525 0.36635 0.0
C1810 C 0.29521 0.37871 0.3762 0.0
H1811 H 0.44392 0.2183 0.62846 0.0
H1812 H 0.50081 0.2577 0.65306 0.0
H1813 H 0.47482 0.26466 0.70529 0.0
H1814 H 0.38149 0.26529 0.66597 0.0
H1815 H 0.36603 0.23802 0.67899 0.0
H1816 H 0.39009 0.23461 0.64423 0.0
H1817 H 0.42158 0.18465 0.66795 0.0
H1818 H 0.39762 0.18798 0.70284 0.0
H1819 H 0.43458 0.18118 0.70583 0.0
H1820 H 0.44171 0.26924 0.75377 0.0
H1821 H 0.4028 0.27257 0.79492 0.0
H1822 H 0.36699 0.23 0.73948 0.0
C1823 C 0.45123 0.22789 0.64504 0.0
C1824 C 0.47457 0.2373 0.6367 0.0
C1825 C 0.48297 0.25045 0.65885 0.0
C1826 C 0.46842 0.25435 0.68863 0.0
C1827 C 0.44544 0.24501 0.69602 0.0
C1828 C 0.4368 0.23211 0.67487 0.0
C1829 C 0.41053 0.22537 0.68823 0.0
C1830 C 0.38556 0.24181 0.66816 0.0
C1831 C 0.41644 0.19286 0.6914 0.0
C1832 C 0.40572 0.23657 0.72014 0.0
C1833 C 0.4262 0.2477 0.72412 0.0
C1834 C 0.4257 0.26037 0.75104 0.0
C1835 C 0.40347 0.26213 0.77433 0.0
C1836 C 0.38192 0.25129 0.77068 0.0
C1837 C 0.38339 0.23797 0.74332 0.0
H1838 H 0.87372 0.46248 0.68069 0.0
H1839 H 0.78764 0.51113 0.65734 0.0
H1840 H 0.7712 0.47488 0.68909 0.0
H1841 H 0.87041 0.3927 0.67959 0.0
H1842 H 0.891 0.37667 0.71278 0.0
H1843 H 0.89643 0.40673 0.6884 0.0
H1844 H 0.88693 0.43473 0.73719 0.0
H1845 H 0.88147 0.40473 0.76172 0.0
H1846 H 0.85446 0.43981 0.76174 0.0
H1847 H 0.76371 0.43352 0.72174 0.0
H1848 H 0.76557 0.38883 0.75452 0.0
H1849 H 0.856 0.36668 0.75891 0.0
C1850 C 0.8514 0.46563 0.68251 0.0
C1851 C 0.83213 0.48957 0.66606 0.0
C1852 C 0.80306 0.49275 0.66895 0.0
C1853 C 0.79338 0.47236 0.68723 0.0
C1854 C 0.81291 0.44898 0.70281 0.0
C1855 C 0.84127 0.44547 0.70087 0.0
C1856 C 0.85768 0.41805 0.71996 0.0
C1857 C 0.8802 0.39732 0.69892 0.0
C1858 C 0.87091 0.42474 0.74675 0.0
C1859 C 0.83408 0.40666 0.7325 0.0
C1860 C 0.80846 0.42497 0.72231 0.0
C1861 C 0.7836 0.41902 0.73004 0.0
C1862 C 0.78492 0.39351 0.74862 0.0
C1863 C 0.81093 0.37425 0.75929 0.0
C1864 C 0.83579 0.38107 0.75128 0.0
H1865 H 0.30988 0.5859 0.58559 0.0
H1866 H 0.23265 0.56636 0.60632 0.0
H1867 H 0.21285 0.60724 0.63903 0.0
H1868 H 0.3153 0.6004 0.65905 0.0
H1869 H 0.32893 0.62911 0.64641 0.0
H1870 H 0.33483 0.6014 0.62133 0.0
H1871 H 0.31172 0.63973 0.57665 0.0
H1872 H 0.30581 0.6677 0.60161 0.0
H1873 H 0.27661 0.66516 0.58388 0.0
H1874 H 0.20477 0.6459 0.67488 0.0
H1875 H 0.20843 0.67926 0.70995 0.0
H1876 H 0.29119 0.67293 0.66452 0.0
C1877 C 0.28858 0.59049 0.59658 0.0
C1878 C 0.27274 0.57304 0.59369 0.0
C1879 C 0.24497 0.57969 0.60822 0.0
C1880 C 0.23363 0.60283 0.62675 0.0
C1881 C 0.25022 0.6192 0.62977 0.0
C1882 C 0.27699 0.61346 0.61472 0.0
C1883 C 0.29154 0.63261 0.62336 0.0
C1884 C 0.31926 0.61482 0.63844 0.0
C1885 C 0.29671 0.65249 0.59467 0.0
C1886 C 0.2693 0.6493 0.64685 0.0
C1887 C 0.24544 0.6416 0.64996 0.0
C1888 C 0.2231 0.65247 0.67221 0.0
C1889 C 0.22543 0.67125 0.6921 0.0
C1890 C 0.25003 0.67879 0.68974 0.0
C1891 C 0.27187 0.66814 0.66632 0.0
loop_
_geom_bond_atom_site_label_1
_geom_bond_atom_site_label_2
_geom_bond_distance
_geom_bond_site_symmetry_2
_ccdc_geom_bond_type
Cu0 N1 1.999 . S
Cu0 O6 1.974 1_545 S
Cu0 N11 1.985 1_545 S
Cu0 O20 1.955 1_455 S
N1 Cu0 1.999 . S
N1 C3 1.263 . S
N1 C5 1.389 . S
N2 C3 1.358 . S
N2 C4 1.400 . S
C3 N1 1.263 . S
C3 N2 1.358 . S
C3 H9 0.930 . S
C4 N2 1.400 . S
C4 C5 1.351 . S
C4 H21 0.930 . S
C5 N1 1.389 . S
C5 C4 1.351 . S
C5 H10 0.930 . S
O6 Cu0 1.974 1_565 S
O6 C16 1.282 . S
C7 O8 1.261 1_655 S
C7 O20 1.253 . S
O8 C7 1.261 1_455 S
H9 C3 0.930 . S
H10 C5 0.930 . S
N11 Cu0 1.985 1_565 S
N11 C13 1.335 1_455 S
N11 C14 1.390 . S
N12 C13 1.345 . S
N12 C15 1.336 1_655 S
C13 N11 1.335 1_655 S
C13 N12 1.345 . S
C13 H18 0.927 . S
C14 N11 1.390 . S
C14 C15 1.346 . S
C14 H19 0.930 . S
C15 N12 1.336 1_455 S
C15 C14 1.346 . S
C15 H22 0.929 . S
C16 O6 1.282 . S
C16 O17 1.216 . S
O17 C16 1.216 . S
H18 C13 0.927 . S
H19 C14 0.930 . S
O20 Cu0 1.955 1_655 S
O20 C7 1.253 . S
H21 C4 0.930 . S
H22 C15 0.929 . S
Cu23 N24 2.009 . S
Cu23 O29 1.974 1_455 S
Cu23 N34 1.985 . S
Cu23 O43 1.959 . S
N24 Cu23 2.009 . S
N24 C26 1.252 1_455 S
N24 C28 1.389 1_545 S
N25 C26 1.358 . S
N25 C27 1.400 1_545 S
C26 N24 1.252 1_655 S
C26 N25 1.358 . S
C26 H32 0.930 . S
C27 N25 1.400 1_565 S
C27 C28 1.351 1_655 S
C27 H44 0.930 . S
C28 N24 1.389 1_565 S
C28 C27 1.351 1_455 S
C28 H33 0.930 . S
O29 Cu23 1.974 1_655 S
O29 C39 1.282 . S
C30 O31 1.261 . S
C30 O43 1.251 . S
O31 C30 1.261 . S
H32 C26 0.930 . S
H33 C28 0.930 . S
N34 Cu23 1.985 . S
N34 C36 1.335 . S
N34 C37 1.390 . S
N35 C36 1.345 . S
N35 C38 1.336 . S
C36 N34 1.335 . S
C36 N35 1.345 . S
C36 H41 0.930 . S
C37 N34 1.390 . S
C37 C38 1.346 . S
C37 H42 0.930 . S
C38 N35 1.336 . S
C38 C37 1.346 . S
C38 H45 0.929 . S
C39 O29 1.282 . S
C39 O40 1.216 . S
O40 C39 1.216 . S
H41 C36 0.930 . S
H42 C37 0.930 . S
O43 Cu23 1.959 . S
O43 C30 1.251 . S
H44 C27 0.930 . S
H45 C38 0.929 . S
Cu46 N47 1.999 . S
Cu46 O52 1.974 . S
Cu46 N57 1.985 . S
Cu46 O66 1.959 . S
N47 Cu46 1.999 . S
N47 C49 1.263 . S
N47 C51 1.389 . S
N48 C49 1.354 1_565 S
N48 C50 1.396 1_565 S
C49 N47 1.263 . S
C49 N48 1.354 1_545 S
C49 H55 0.930 . S
C50 N48 1.396 1_545 S
C50 C51 1.351 . S
C50 H67 0.930 1_554 S
C51 N47 1.389 . S
C51 C50 1.351 . S
C51 H56 0.930 . S
O52 Cu46 1.974 . S
O52 C62 1.282 . S
C53 O54 1.261 . S
C53 O66 1.251 . S
O54 C53 1.261 . S
H55 C49 0.930 . S
H56 C51 0.930 . S
N57 Cu46 1.985 . S
N57 C59 1.335 . S
N57 C60 1.390 . S
N58 C59 1.345 . S
N58 C61 1.336 . S
C59 N57 1.335 . S
C59 N58 1.345 . S
C59 H64 0.930 . S
C60 N57 1.390 . S
C60 C61 1.346 . S
C60 H65 0.930 . S
C61 N58 1.336 . S
C61 C60 1.346 . S
C61 H68 0.929 . S
C62 O52 1.282 . S
C62 O63 1.216 . S
O63 C62 1.216 . S
H64 C59 0.930 . S
H65 C60 0.930 . S
O66 Cu46 1.959 . S
O66 C53 1.251 . S
H67 C50 0.930 1_556 S
H68 C61 0.929 . S
Cu69 N70 1.999 . S
Cu69 O75 1.974 . S
Cu69 N80 1.985 . S
Cu69 O89 1.959 . S
N70 Cu69 1.999 . S
N70 C72 1.263 . S
N70 C74 1.389 . S
N71 C72 1.358 . S
N71 C73 1.400 1_554 S
C72 N70 1.263 . S
C72 N71 1.358 . S
C72 H78 0.930 . S
C73 N71 1.400 1_556 S
C73 C74 1.351 1_556 S
C73 H90 0.930 . S
C74 N70 1.389 . S
C74 C73 1.351 1_554 S
C74 H79 0.930 . S
O75 Cu69 1.974 . S
O75 C85 1.282 . S
C76 O77 1.261 . S
C76 O89 1.251 . S
O77 C76 1.261 . S
H78 C72 0.930 . S
H79 C74 0.930 . S
N80 Cu69 1.985 . S
N80 C82 1.335 1_455 S
N80 C83 1.390 . S
N81 C82 1.345 . S
N81 C84 1.336 1_655 S
C82 N80 1.335 1_655 S
C82 N81 1.345 . S
C82 H87 0.930 . S
C83 N80 1.390 . S
C83 C84 1.346 . S
C83 H88 0.930 . S
C84 N81 1.336 1_455 S
C84 C83 1.346 . S
C84 H91 0.929 . S
C85 O75 1.282 . S
C85 O86 1.216 . S
O86 C85 1.216 . S
H87 C82 0.930 . S
H88 C83 0.930 . S
O89 Cu69 1.959 . S
O89 C76 1.251 . S
H90 C73 0.930 . S
H91 C84 0.929 . S
Cu92 N93 1.999 1_554 S
Cu92 O98 1.974 . S
Cu92 N103 1.985 1_545 S
Cu92 O112 1.959 1_544 S
N93 Cu92 1.999 1_556 S
N93 C95 1.263 . S
N93 C97 1.389 . S
N94 C95 1.358 . S
N94 C96 1.400 . S
C95 N93 1.263 . S
C95 N94 1.358 . S
C95 H101 0.930 . S
C96 N94 1.400 . S
C96 C97 1.351 . S
C96 H113 0.930 . S
C97 N93 1.389 . S
C97 C96 1.351 . S
C97 H102 0.930 . S
O98 Cu92 1.974 . S
O98 C108 1.282 . S
C99 O100 1.261 . S
C99 O112 1.251 . S
O100 C99 1.261 . S
H101 C95 0.930 . S
H102 C97 0.930 . S
N103 Cu92 1.985 1_565 S
N103 C105 1.335 . S
N103 C106 1.390 . S
N104 C105 1.345 . S
N104 C107 1.336 . S
C105 N103 1.335 . S
C105 N104 1.345 . S
C105 H110 0.930 . S
C106 N103 1.390 . S
C106 C107 1.346 . S
C106 H111 0.930 . S
C107 N104 1.336 . S
C107 C106 1.346 . S
C107 H114 0.929 . S
C108 O98 1.282 . S
C108 O109 1.216 . S
O109 C108 1.216 . S
H110 C105 0.930 . S
H111 C106 0.930 . S
O112 Cu92 1.959 1_566 S
O112 C99 1.251 . S
H113 C96 0.930 . S
H114 C107 0.929 . S
Cu115 N116 1.999 1_454 S
Cu115 O121 1.974 1_455 S
Cu115 N126 1.985 . S
Cu115 O135 1.959 1_554 S
N116 Cu115 1.999 1_656 S
N116 C118 1.263 . S
N116 C120 1.389 . S
N117 C118 1.358 . S
N117 C119 1.400 . S
C118 N116 1.263 . S
C118 N117 1.358 . S
C118 H124 0.952 . S
C119 N117 1.400 . S
C119 C120 1.351 . S
C119 H136 0.930 . S
C120 N116 1.389 . S
C120 C119 1.351 . S
C120 H125 0.930 1_655 S
O121 Cu115 1.974 1_655 S
O121 C131 1.282 . S
C122 O123 1.261 . S
C122 O135 1.251 . S
O123 C122 1.261 . S
H124 C118 0.952 . S
H125 C120 0.930 1_455 S
N126 Cu115 1.985 . S
N126 C128 1.335 . S
N126 C129 1.390 . S
N127 C128 1.345 . S
N127 C130 1.336 . S
C128 N126 1.335 . S
C128 N127 1.345 . S
C128 H133 0.930 . S
C129 N126 1.390 . S
C129 C130 1.346 . S
C129 H134 0.930 . S
C130 N127 1.336 . S
C130 C129 1.346 . S
C130 H137 0.929 . S
C131 O121 1.282 . S
C131 O132 1.216 . S
O132 C131 1.216 . S
H133 C128 0.930 . S
H134 C129 0.930 . S
O135 Cu115 1.959 1_556 S
O135 C122 1.251 . S
H136 C119 0.930 . S
H137 C130 0.929 . S
Cu138 N139 1.999 . S
Cu138 O144 1.974 . S
Cu138 N149 1.985 . S
Cu138 O158 1.959 . S
N139 Cu138 1.999 . S
N139 C141 1.263 . S
N139 C143 1.389 . S
N140 C141 1.358 . S
N140 C142 1.400 . S
C141 N139 1.263 . S
C141 N140 1.358 . S
C141 H147 0.930 . S
C142 N140 1.400 . S
C142 C143 1.351 . S
C142 H159 0.930 . S
C143 N139 1.389 . S
C143 C142 1.351 . S
C143 H148 0.930 . S
O144 Cu138 1.974 . S
O144 C154 1.282 . S
C145 O146 1.261 . S
C145 O158 1.251 . S
O146 C145 1.261 . S
H147 C141 0.930 . S
H148 C143 0.930 . S
N149 Cu138 1.985 . S
N149 C151 1.335 . S
N149 C152 1.390 . S
N150 C151 1.345 . S
N150 C153 1.336 . S
C151 N149 1.335 . S
C151 N150 1.345 . S
C151 H156 0.930 . S
C152 N149 1.390 . S
C152 C153 1.346 . S
C152 H157 0.930 . S
C153 N150 1.336 . S
C153 C152 1.346 . S
C153 H160 0.929 . S
C154 O144 1.282 . S
C154 O155 1.216 . S
O155 C154 1.216 . S
H156 C151 0.930 . S
H157 C152 0.930 . S
O158 Cu138 1.959 . S
O158 C145 1.251 . S
H159 C142 0.930 . S
H160 C153 0.929 . S
Cu161 N162 1.999 . S
Cu161 O167 1.974 . S
Cu161 N172 1.985 . S
Cu161 O181 1.959 . S
N162 Cu161 1.999 . S
N162 C164 1.263 . S
N162 C166 1.389 . S
N163 C164 1.358 . S
N163 C165 1.400 . S
C164 N162 1.263 . S
C164 N163 1.358 . S
C164 H170 0.930 . S
C165 N163 1.400 . S
C165 C166 1.351 . S
C165 H182 0.930 . S
C166 N162 1.389 . S
C166 C165 1.351 . S
C166 H171 0.930 . S
O167 Cu161 1.974 . S
O167 C177 1.282 . S
C168 O169 1.261 . S
C168 O181 1.251 . S
O169 C168 1.261 . S
H170 C164 0.930 . S
H171 C166 0.930 . S
N172 Cu161 1.985 . S
N172 C174 1.335 . S
N172 C175 1.390 . S
N173 C174 1.345 . S
N173 C176 1.336 . S
C174 N172 1.335 . S
C174 N173 1.345 . S
C174 H179 0.930 . S
C175 N172 1.390 . S
C175 C176 1.346 . S
C175 H180 0.930 . S
C176 N173 1.336 . S
C176 C175 1.346 . S
C176 H183 0.929 . S
C177 O167 1.282 . S
C177 O178 1.216 . S
O178 C177 1.216 . S
H179 C174 0.930 . S
H180 C175 0.930 . S
O181 Cu161 1.959 . S
O181 C168 1.251 . S
H182 C165 0.930 . S
H183 C176 0.929 . S
Cu184 N185 1.999 . S
Cu184 O190 1.974 . S
Cu184 N195 1.985 . S
Cu184 O204 1.959 . S
N185 Cu184 1.999 . S
N185 C187 1.263 . S
N185 C189 1.389 . S
N186 C187 1.358 . S
N186 C188 1.400 . S
C187 N185 1.263 . S
C187 N186 1.358 . S
C187 H193 0.930 . S
C188 N186 1.400 . S
C188 C189 1.351 . S
C188 H205 0.930 . S
C189 N185 1.389 . S
C189 C188 1.351 . S
C189 H194 0.930 . S
O190 Cu184 1.974 . S
O190 C200 1.282 . S
C191 O192 1.261 . S
C191 O204 1.251 . S
O192 C191 1.261 . S
H193 C187 0.930 . S
H194 C189 0.930 . S
N195 Cu184 1.985 . S
N195 C197 1.335 . S
N195 C198 1.390 . S
N196 C197 1.345 . S
N196 C199 1.336 . S
C197 N195 1.335 . S
C197 N196 1.345 . S
C197 H202 0.930 . S
C198 N195 1.390 . S
C198 C199 1.346 . S
C198 H203 0.930 . S
C199 N196 1.336 . S
C199 C198 1.346 . S
C199 H206 0.929 . S
C200 O190 1.282 . S
C200 O201 1.216 . S
O201 C200 1.216 . S
H202 C197 0.930 . S
H203 C198 0.930 . S
O204 Cu184 1.959 . S
O204 C191 1.251 . S
H205 C188 0.930 . S
H206 C199 0.929 . S
Cu207 N208 1.999 . S
Cu207 O213 1.974 . S
Cu207 N218 1.985 . S
Cu207 O227 1.959 . S
N208 Cu207 1.999 . S
N208 C210 1.263 . S
N208 C212 1.389 . S
N209 C210 1.358 . S
N209 C211 1.400 . S
C210 N208 1.263 . S
C210 N209 1.358 . S
C210 H216 0.930 . S
C211 N209 1.400 . S
C211 C212 1.351 . S
C211 H228 0.930 . S
C212 N208 1.389 . S
C212 C211 1.351 . S
C212 H217 0.930 . S
O213 Cu207 1.974 . S
O213 C223 1.282 . S
C214 O215 1.261 . S
C214 O227 1.251 . S
O215 C214 1.261 . S
H216 C210 0.930 . S
H217 C212 0.930 . S
N218 Cu207 1.985 . S
N218 C220 1.335 . S
N218 C221 1.390 . S
N219 C220 1.345 . S
N219 C222 1.336 . S
C220 N218 1.335 . S
C220 N219 1.345 . S
C220 H225 0.930 . S
C221 N218 1.390 . S
C221 C222 1.346 . S
C221 H226 0.930 . S
C222 N219 1.336 . S
C222 C221 1.346 . S
C222 H229 0.929 . S
C223 O213 1.282 . S
C223 O224 1.216 . S
O224 C223 1.216 . S
H225 C220 0.930 . S
H226 C221 0.930 . S
O227 Cu207 1.959 . S
O227 C214 1.251 . S
H228 C211 0.930 . S
H229 C222 0.929 . S
Cu230 N231 1.999 . S
Cu230 O236 1.974 . S
Cu230 N241 1.985 . S
Cu230 O250 1.959 . S
N231 Cu230 1.999 . S
N231 C233 1.263 . S
N231 C235 1.389 . S
N232 C233 1.358 . S
N232 C234 1.400 . S
C233 N231 1.263 . S
C233 N232 1.358 . S
C233 H239 0.930 . S
C234 N232 1.400 . S
C234 C235 1.351 . S
C234 H251 0.930 . S
C235 N231 1.389 . S
C235 C234 1.351 . S
C235 H240 0.930 . S
O236 Cu230 1.974 . S
O236 C246 1.282 . S
C237 O238 1.261 . S
C237 O250 1.251 . S
O238 C237 1.261 . S
H239 C233 0.930 . S
H240 C235 0.930 . S
N241 Cu230 1.985 . S
N241 C243 1.335 . S
N241 C244 1.390 . S
N242 C243 1.345 . S
N242 C245 1.336 . S
C243 N241 1.335 . S
C243 N242 1.345 . S
C243 H248 0.930 . S
C244 N241 1.390 . S
C244 C245 1.346 . S
C244 H249 0.930 . S
C245 N242 1.336 . S
C245 C244 1.346 . S
C245 H252 0.929 . S
C246 O236 1.282 . S
C246 O247 1.216 . S
O247 C246 1.216 . S
H248 C243 0.930 . S
H249 C244 0.930 . S
O250 Cu230 1.959 . S
O250 C237 1.251 . S
H251 C234 0.930 . S
H252 C245 0.929 . S
Cu253 N254 1.999 . S
Cu253 O259 1.974 . S
Cu253 N264 1.985 . S
Cu253 O273 1.959 . S
N254 Cu253 1.999 . S
N254 C256 1.263 . S
N254 C258 1.389 . S
N255 C256 1.358 . S
N255 C257 1.400 . S
C256 N254 1.263 . S
C256 N255 1.358 . S
C256 H262 0.930 . S
C257 N255 1.400 . S
C257 C258 1.351 . S
C257 H274 0.930 . S
C258 N254 1.389 . S
C258 C257 1.351 . S
C258 H263 0.930 . S
O259 Cu253 1.974 . S
O259 C269 1.282 . S
C260 O261 1.261 . S
C260 O273 1.251 . S
O261 C260 1.261 . S
H262 C256 0.930 . S
H263 C258 0.930 . S
N264 Cu253 1.985 . S
N264 C266 1.335 . S
N264 C267 1.390 . S
N265 C266 1.345 . S
N265 C268 1.336 . S
C266 N264 1.335 . S
C266 N265 1.345 . S
C266 H271 0.930 . S
C267 N264 1.390 . S
C267 C268 1.346 . S
C267 H272 0.930 . S
C268 N265 1.336 . S
C268 C267 1.346 . S
C268 H275 0.929 . S
C269 O259 1.282 . S
C269 O270 1.216 . S
O270 C269 1.216 . S
H271 C266 0.930 . S
H272 C267 0.930 . S
O273 Cu253 1.959 . S
O273 C260 1.251 . S
H274 C257 0.930 . S
H275 C268 0.929 . S
Ho276 C279 2.811 . S
Ho276 O296 2.322 . S
Ho276 O298 2.378 . S
Ho276 O299 2.524 . S
Ho276 O300 2.381 . S
Ho276 O301 2.669 . S
Ho276 O303 2.346 . S
Ho276 O307 2.305 . S
Ho277 C288 2.811 . S
Ho277 O297 2.346 . S
Ho277 O301 2.305 . S
Ho277 O302 2.322 . S
Ho277 O304 2.378 . S
Ho277 O305 2.524 . S
Ho277 O306 2.381 . S
Ho277 O307 2.669 . S
C278 O296 1.259 . S
C278 O297 1.268 . S
C279 Ho276 2.811 . S
C279 C280 1.488 . S
C279 O298 1.215 . S
C279 O299 1.289 . S
C280 C279 1.488 . S
C280 C281 1.348 . S
C280 C285 1.413 . S
C281 C280 1.348 . S
C281 C282 1.442 . S
C281 H308 0.930 . S
C282 C281 1.442 . S
C282 C283 1.381 . S
C282 H309 0.931 . S
C283 C282 1.381 . S
C283 C284 1.321 . S
C284 C283 1.321 . S
C284 C285 1.403 . S
C284 H310 0.934 . S
C285 C280 1.413 . S
C285 C284 1.403 . S
C285 H311 0.930 . S
C286 O300 1.275 . S
C286 O301 1.256 . S
C287 O302 1.259 . S
C287 O303 1.268 . S
C288 Ho277 2.811 . S
C288 C289 1.488 . S
C288 O304 1.215 . S
C288 O305 1.289 . S
C289 C288 1.488 . S
C289 C290 1.348 . S
C289 C294 1.413 . S
C290 C289 1.348 . S
C290 C291 1.442 . S
C290 H312 0.930 . S
C291 C290 1.442 . S
C291 C292 1.381 . S
C291 H313 0.931 . S
C292 C291 1.381 . S
C292 C293 1.321 . S
C293 C292 1.321 . S
C293 C294 1.403 . S
C293 H314 0.934 . S
C294 C289 1.413 . S
C294 C293 1.403 . S
C294 H315 0.930 . S
C295 O306 1.275 . S
C295 O307 1.256 . S
O296 Ho276 2.322 . S
O296 C278 1.259 . S
O297 Ho277 2.346 . S
O297 C278 1.268 . S
O298 Ho276 2.378 . S
O298 C279 1.215 . S
O299 Ho276 2.524 . S
O299 C279 1.289 . S
O300 Ho276 2.381 . S
O300 C286 1.275 . S
O301 Ho276 2.669 . S
O301 Ho277 2.305 . S
O301 C286 1.256 . S
O302 Ho277 2.322 . S
O302 C287 1.259 . S
O303 Ho276 2.346 . S
O303 C287 1.268 . S
O304 Ho277 2.378 . S
O304 C288 1.215 . S
O305 Ho277 2.524 . S
O305 C288 1.289 . S
O306 Ho277 2.381 . S
O306 C295 1.275 . S
O307 Ho276 2.305 . S
O307 Ho277 2.669 . S
O307 C295 1.256 . S
H308 C281 0.930 . S
H309 C282 0.931 . S
H310 C284 0.934 . S
H311 C285 0.930 . S
H312 C290 0.930 . S
H313 C291 0.931 . S
H314 C293 0.934 . S
H315 C294 0.930 . S
Ho316 C319 2.811 . S
Ho316 O336 2.322 . S
Ho316 O338 2.378 . S
Ho316 O339 2.524 . S
Ho316 O340 2.381 . S
Ho316 O341 2.669 . S
Ho316 O343 2.346 . S
Ho316 O347 2.305 . S
Ho317 C328 2.811 . S
Ho317 O337 2.346 . S
Ho317 O341 2.305 . S
Ho317 O342 2.322 . S
Ho317 O344 2.378 . S
Ho317 O345 2.524 . S
Ho317 O346 2.381 . S
Ho317 O347 2.669 . S
C318 O336 1.259 . S
C318 O337 1.268 . S
C319 Ho316 2.811 . S
C319 C320 1.488 . S
C319 O338 1.215 . S
C319 O339 1.289 . S
C320 C319 1.488 . S
C320 C321 1.348 . S
C320 C325 1.413 . S
C321 C320 1.348 . S
C321 C322 1.442 . S
C321 H348 0.930 . S
C322 C321 1.442 . S
C322 C323 1.381 . S
C322 H349 0.931 . S
C323 C322 1.381 . S
C323 C324 1.321 . S
C324 C323 1.321 . S
C324 C325 1.403 . S
C324 H350 0.934 . S
C325 C320 1.413 . S
C325 C324 1.403 . S
C325 H351 0.930 . S
C326 O340 1.275 . S
C326 O341 1.256 . S
C327 O342 1.259 . S
C327 O343 1.268 . S
C328 Ho317 2.811 . S
C328 C329 1.488 . S
C328 O344 1.215 . S
C328 O345 1.289 . S
C329 C328 1.488 . S
C329 C330 1.348 . S
C329 C334 1.413 . S
C330 C329 1.348 . S
C330 C331 1.442 . S
C330 H352 0.930 . S
C331 C330 1.442 . S
C331 C332 1.381 . S
C331 H353 0.931 . S
C332 C331 1.381 . S
C332 C333 1.321 . S
C333 C332 1.321 . S
C333 C334 1.403 . S
C333 H354 0.934 . S
C334 C329 1.413 . S
C334 C333 1.403 . S
C334 H355 0.930 . S
C335 O346 1.275 . S
C335 O347 1.256 . S
O336 Ho316 2.322 . S
O336 C318 1.259 . S
O337 Ho317 2.346 . S
O337 C318 1.268 . S
O338 Ho316 2.378 . S
O338 C319 1.215 . S
O339 Ho316 2.524 . S
O339 C319 1.289 . S
O340 Ho316 2.381 . S
O340 C326 1.275 . S
O341 Ho316 2.669 . S
O341 Ho317 2.305 . S
O341 C326 1.256 . S
O342 Ho317 2.322 . S
O342 C327 1.259 . S
O343 Ho316 2.346 . S
O343 C327 1.268 . S
O344 Ho317 2.378 . S
O344 C328 1.215 . S
O345 Ho317 2.524 . S
O345 C328 1.289 . S
O346 Ho317 2.381 . S
O346 C335 1.275 . S
O347 Ho316 2.305 . S
O347 Ho317 2.669 . S
O347 C335 1.256 . S
H348 C321 0.930 . S
H349 C322 0.931 . S
H350 C324 0.934 . S
H351 C325 0.930 . S
H352 C330 0.930 . S
H353 C331 0.931 . S
H354 C333 0.934 . S
H355 C334 0.930 . S
Ho356 C359 2.811 . S
Ho356 O376 2.322 . S
Ho356 O378 2.378 . S
Ho356 O379 2.524 . S
Ho356 O380 2.381 . S
Ho356 O381 2.669 . S
Ho356 O383 2.346 . S
Ho356 O387 2.305 . S
Ho357 C368 2.811 . S
Ho357 O377 2.346 . S
Ho357 O381 2.305 . S
Ho357 O382 2.322 . S
Ho357 O384 2.378 . S
Ho357 O385 2.524 . S
Ho357 O386 2.381 . S
Ho357 O387 2.669 . S
C358 O376 1.259 . S
C358 O377 1.268 . S
C359 Ho356 2.811 . S
C359 C360 1.488 . S
C359 O378 1.215 . S
C359 O379 1.289 . S
C360 C359 1.488 . S
C360 C361 1.348 . S
C360 C365 1.413 . S
C361 C360 1.348 . S
C361 C362 1.442 . S
C361 H388 0.930 . S
C362 C361 1.442 . S
C362 C363 1.381 . S
C362 H389 0.931 . S
C363 C362 1.381 . S
C363 C364 1.321 . S
C364 C363 1.321 . S
C364 C365 1.403 . S
C364 H390 0.934 . S
C365 C360 1.413 . S
C365 C364 1.403 . S
C365 H391 0.930 . S
C366 O380 1.275 . S
C366 O381 1.256 . S
C367 O382 1.259 . S
C367 O383 1.268 . S
C368 Ho357 2.811 . S
C368 C369 1.488 . S
C368 O384 1.215 . S
C368 O385 1.289 . S
C369 C368 1.488 . S
C369 C370 1.348 . S
C369 C374 1.413 . S
C370 C369 1.348 . S
C370 C371 1.442 . S
C370 H392 0.930 . S
C371 C370 1.442 . S
C371 C372 1.381 . S
C371 H393 0.931 . S
C372 C371 1.381 . S
C372 C373 1.321 . S
C373 C372 1.321 . S
C373 C374 1.403 . S
C373 H394 0.934 . S
C374 C369 1.413 . S
C374 C373 1.403 . S
C374 H395 0.930 . S
C375 O386 1.275 . S
C375 O387 1.256 . S
O376 Ho356 2.322 . S
O376 C358 1.259 . S
O377 Ho357 2.346 . S
O377 C358 1.268 . S
O378 Ho356 2.378 . S
O378 C359 1.215 . S
O379 Ho356 2.524 . S
O379 C359 1.289 . S
O380 Ho356 2.381 . S
O380 C366 1.275 . S
O381 Ho356 2.669 . S
O381 Ho357 2.305 . S
O381 C366 1.256 . S
O382 Ho357 2.322 . S
O382 C367 1.259 . S
O383 Ho356 2.346 . S
O383 C367 1.268 . S
O384 Ho357 2.378 . S
O384 C368 1.215 . S
O385 Ho357 2.524 . S
O385 C368 1.289 . S
O386 Ho357 2.381 . S
O386 C375 1.275 . S
O387 Ho356 2.305 . S
O387 Ho357 2.669 . S
O387 C375 1.256 . S
H388 C361 0.930 . S
H389 C362 0.931 . S
H390 C364 0.934 . S
H391 C365 0.930 . S
H392 C370 0.930 . S
H393 C371 0.931 . S
H394 C373 0.934 . S
H395 C374 0.930 . S
Ho396 C399 2.811 . S
Ho396 O416 2.322 . S
Ho396 O418 2.378 . S
Ho396 O419 2.524 . S
Ho396 O420 2.381 . S
Ho396 O421 2.669 . S
Ho396 O423 2.346 . S
Ho396 O427 2.305 . S
Ho397 C408 2.811 . S
Ho397 O417 2.346 . S
Ho397 O421 2.305 . S
Ho397 O422 2.322 . S
Ho397 O424 2.378 . S
Ho397 O425 2.524 . S
Ho397 O426 2.381 . S
Ho397 O427 2.669 . S
C398 O416 1.259 . S
C398 O417 1.268 . S
C399 Ho396 2.811 . S
C399 C400 1.488 . S
C399 O418 1.215 . S
C399 O419 1.289 . S
C400 C399 1.488 . S
C400 C401 1.348 . S
C400 C405 1.413 . S
C401 C400 1.348 . S
C401 C402 1.442 . S
C401 H428 0.930 . S
C402 C401 1.442 . S
C402 C403 1.381 . S
C402 H429 0.931 . S
C403 C402 1.381 . S
C403 C404 1.321 . S
C404 C403 1.321 . S
C404 C405 1.403 . S
C404 H430 0.934 . S
C405 C400 1.413 . S
C405 C404 1.403 . S
C405 H431 0.930 . S
C406 O420 1.275 . S
C406 O421 1.256 . S
C407 O422 1.259 . S
C407 O423 1.268 . S
C408 Ho397 2.811 . S
C408 C409 1.488 . S
C408 O424 1.215 . S
C408 O425 1.289 . S
C409 C408 1.488 . S
C409 C410 1.348 . S
C409 C414 1.413 . S
C410 C409 1.348 . S
C410 C411 1.442 . S
C410 H432 0.930 . S
C411 C410 1.442 . S
C411 C412 1.381 . S
C411 H433 0.931 . S
C412 C411 1.381 . S
C412 C413 1.321 . S
C413 C412 1.321 . S
C413 C414 1.403 . S
C413 H434 0.934 . S
C414 C409 1.413 . S
C414 C413 1.403 . S
C414 H435 0.930 . S
C415 O426 1.275 . S
C415 O427 1.256 . S
O416 Ho396 2.322 . S
O416 C398 1.259 . S
O417 Ho397 2.346 . S
O417 C398 1.268 . S
O418 Ho396 2.378 . S
O418 C399 1.215 . S
O419 Ho396 2.524 . S
O419 C399 1.289 . S
O420 Ho396 2.381 . S
O420 C406 1.275 . S
O421 Ho396 2.669 . S
O421 Ho397 2.305 . S
O421 C406 1.256 . S
O422 Ho397 2.322 . S
O422 C407 1.259 . S
O423 Ho396 2.346 . S
O423 C407 1.268 . S
O424 Ho397 2.378 . S
O424 C408 1.215 . S
O425 Ho397 2.524 . S
O425 C408 1.289 . S
O426 Ho397 2.381 . S
O426 C415 1.275 . S
O427 Ho396 2.305 . S
O427 Ho397 2.669 . S
O427 C415 1.256 . S
H428 C401 0.930 . S
H429 C402 0.931 . S
H430 C404 0.934 . S
H431 C405 0.930 . S
H432 C410 0.930 . S
H433 C411 0.931 . S
H434 C413 0.934 . S
H435 C414 0.930 . S
Ho436 C439 2.811 . S
Ho436 O456 2.322 . S
Ho436 O458 2.378 . S
Ho436 O459 2.524 . S
Ho436 O460 2.381 . S
Ho436 O461 2.669 . S
Ho436 O463 2.346 . S
Ho436 O467 2.305 . S
Ho437 C448 2.811 . S
Ho437 O457 2.346 . S
Ho437 O461 2.305 . S
Ho437 O462 2.322 . S
Ho437 O464 2.378 . S
Ho437 O465 2.524 . S
Ho437 O466 2.381 . S
Ho437 O467 2.669 . S
C438 O456 1.259 . S
C438 O457 1.268 . S
C439 Ho436 2.811 . S
C439 C440 1.488 . S
C439 O458 1.215 . S
C439 O459 1.289 . S
C440 C439 1.488 . S
C440 C441 1.348 . S
C440 C445 1.413 . S
C441 C440 1.348 . S
C441 C442 1.442 . S
C441 H468 0.930 . S
C442 C441 1.442 . S
C442 C443 1.381 . S
C442 H469 0.931 . S
C443 C442 1.381 . S
C443 C444 1.321 . S
C444 C443 1.321 . S
C444 C445 1.403 . S
C444 H470 0.934 . S
C445 C440 1.413 . S
C445 C444 1.403 . S
C445 H471 0.930 . S
C446 O460 1.275 . S
C446 O461 1.256 . S
C447 O462 1.259 . S
C447 O463 1.268 . S
C448 Ho437 2.811 . S
C448 C449 1.488 . S
C448 O464 1.215 . S
C448 O465 1.289 . S
C449 C448 1.488 . S
C449 C450 1.348 . S
C449 C454 1.413 . S
C450 C449 1.348 . S
C450 C451 1.442 . S
C450 H472 0.930 . S
C451 C450 1.442 . S
C451 C452 1.381 . S
C451 H473 0.931 . S
C452 C451 1.381 . S
C452 C453 1.321 . S
C453 C452 1.321 . S
C453 C454 1.403 . S
C453 H474 0.934 . S
C454 C449 1.413 . S
C454 C453 1.403 . S
C454 H475 0.930 . S
C455 O466 1.275 . S
C455 O467 1.256 . S
O456 Ho436 2.322 . S
O456 C438 1.259 . S
O457 Ho437 2.346 . S
O457 C438 1.268 . S
O458 Ho436 2.378 . S
O458 C439 1.215 . S
O459 Ho436 2.524 . S
O459 C439 1.289 . S
O460 Ho436 2.381 . S
O460 C446 1.275 . S
O461 Ho436 2.669 . S
O461 Ho437 2.305 . S
O461 C446 1.256 . S
O462 Ho437 2.322 . S
O462 C447 1.259 . S
O463 Ho436 2.346 . S
O463 C447 1.268 . S
O464 Ho437 2.378 . S
O464 C448 1.215 . S
O465 Ho437 2.524 . S
O465 C448 1.289 . S
O466 Ho437 2.381 . S
O466 C455 1.275 . S
O467 Ho436 2.305 . S
O467 Ho437 2.669 . S
O467 C455 1.256 . S
H468 C441 0.930 . S
H469 C442 0.931 . S
H470 C444 0.934 . S
H471 C445 0.930 . S
H472 C450 0.930 . S
H473 C451 0.931 . S
H474 C453 0.934 . S
H475 C454 0.930 . S
Ho476 C479 2.811 . S
Ho476 O496 2.322 . S
Ho476 O498 2.378 . S
Ho476 O499 2.524 . S
Ho476 O500 2.381 . S
Ho476 O501 2.669 . S
Ho476 O503 2.346 . S
Ho476 O507 2.305 . S
Ho477 C488 2.811 . S
Ho477 O497 2.346 . S
Ho477 O501 2.305 . S
Ho477 O502 2.322 . S
Ho477 O504 2.378 . S
Ho477 O505 2.524 . S
Ho477 O506 2.381 . S
Ho477 O507 2.669 . S
C478 O496 1.259 . S
C478 O497 1.268 . S
C479 Ho476 2.811 . S
C479 C480 1.488 . S
C479 O498 1.215 . S
C479 O499 1.289 . S
C480 C479 1.488 . S
C480 C481 1.348 . S
C480 C485 1.413 . S
C481 C480 1.348 . S
C481 C482 1.442 . S
C481 H508 0.930 . S
C482 C481 1.442 . S
C482 C483 1.381 . S
C482 H509 0.931 . S
C483 C482 1.381 . S
C483 C484 1.321 . S
C484 C483 1.321 . S
C484 C485 1.403 . S
C484 H510 0.934 . S
C485 C480 1.413 . S
C485 C484 1.403 . S
C485 H511 0.930 . S
C486 O500 1.275 . S
C486 O501 1.256 . S
C487 O502 1.259 . S
C487 O503 1.268 . S
C488 Ho477 2.811 . S
C488 C489 1.488 . S
C488 O504 1.215 . S
C488 O505 1.289 . S
C489 C488 1.488 . S
C489 C490 1.348 . S
C489 C494 1.413 . S
C490 C489 1.348 . S
C490 C491 1.442 . S
C490 H512 0.930 . S
C491 C490 1.442 . S
C491 C492 1.381 . S
C491 H513 0.931 . S
C492 C491 1.381 . S
C492 C493 1.321 . S
C493 C492 1.321 . S
C493 C494 1.403 . S
C493 H514 0.934 . S
C494 C489 1.413 . S
C494 C493 1.403 . S
C494 H515 0.930 . S
C495 O506 1.275 . S
C495 O507 1.256 . S
O496 Ho476 2.322 . S
O496 C478 1.259 . S
O497 Ho477 2.346 . S
O497 C478 1.268 . S
O498 Ho476 2.378 . S
O498 C479 1.215 . S
O499 Ho476 2.524 . S
O499 C479 1.289 . S
O500 Ho476 2.381 . S
O500 C486 1.275 . S
O501 Ho476 2.669 . S
O501 Ho477 2.305 . S
O501 C486 1.256 . S
O502 Ho477 2.322 . S
O502 C487 1.259 . S
O503 Ho476 2.346 . S
O503 C487 1.268 . S
O504 Ho477 2.378 . S
O504 C488 1.215 . S
O505 Ho477 2.524 . S
O505 C488 1.289 . S
O506 Ho477 2.381 . S
O506 C495 1.275 . S
O507 Ho476 2.305 . S
O507 Ho477 2.669 . S
O507 C495 1.256 . S
H508 C481 0.930 . S
H509 C482 0.931 . S
H510 C484 0.934 . S
H511 C485 0.930 . S
H512 C490 0.930 . S
H513 C491 0.931 . S
H514 C493 0.934 . S
H515 C494 0.930 . S
Ho516 C519 2.811 . S
Ho516 O536 2.322 . S
Ho516 O538 2.378 . S
Ho516 O539 2.524 . S
Ho516 O540 2.381 . S
Ho516 O541 2.669 . S
Ho516 O543 2.346 . S
Ho516 O547 2.305 . S
Ho517 C528 2.811 . S
Ho517 O537 2.346 . S
Ho517 O541 2.305 . S
Ho517 O542 2.322 . S
Ho517 O544 2.378 . S
Ho517 O545 2.524 . S
Ho517 O546 2.381 . S
Ho517 O547 2.669 . S
C518 O536 1.259 . S
C518 O537 1.268 . S
C519 Ho516 2.811 . S
C519 C520 1.488 . S
C519 O538 1.215 . S
C519 O539 1.289 . S
C520 C519 1.488 . S
C520 C521 1.348 . S
C520 C525 1.413 . S
C521 C520 1.348 . S
C521 C522 1.442 . S
C521 H548 0.930 . S
C522 C521 1.442 . S
C522 C523 1.381 . S
C522 H549 0.931 . S
C523 C522 1.381 . S
C523 C524 1.321 . S
C524 C523 1.321 . S
C524 C525 1.403 . S
C524 H550 0.934 . S
C525 C520 1.413 . S
C525 C524 1.403 . S
C525 H551 0.930 . S
C526 O540 1.275 . S
C526 O541 1.256 . S
C527 O542 1.259 . S
C527 O543 1.268 . S
C528 Ho517 2.811 . S
C528 C529 1.488 . S
C528 O544 1.215 . S
C528 O545 1.289 . S
C529 C528 1.488 . S
C529 C530 1.348 . S
C529 C534 1.413 . S
C530 C529 1.348 . S
C530 C531 1.442 . S
C530 H552 0.930 . S
C531 C530 1.442 . S
C531 C532 1.381 . S
C531 H553 0.931 . S
C532 C531 1.381 . S
C532 C533 1.321 . S
C533 C532 1.321 . S
C533 C534 1.403 . S
C533 H554 0.934 . S
C534 C529 1.413 . S
C534 C533 1.403 . S
C534 H555 0.930 . S
C535 O546 1.275 . S
C535 O547 1.256 . S
O536 Ho516 2.322 . S
O536 C518 1.259 . S
O537 Ho517 2.346 . S
O537 C518 1.268 . S
O538 Ho516 2.378 . S
O538 C519 1.215 . S
O539 Ho516 2.524 . S
O539 C519 1.289 . S
O540 Ho516 2.381 . S
O540 C526 1.275 . S
O541 Ho516 2.669 . S
O541 Ho517 2.305 . S
O541 C526 1.256 . S
O542 Ho517 2.322 . S
O542 C527 1.259 . S
O543 Ho516 2.346 . S
O543 C527 1.268 . S
O544 Ho517 2.378 . S
O544 C528 1.215 . S
O545 Ho517 2.524 . S
O545 C528 1.289 . S
O546 Ho517 2.381 . S
O546 C535 1.275 . S
O547 Ho516 2.305 . S
O547 Ho517 2.669 . S
O547 C535 1.256 . S
H548 C521 0.930 . S
H549 C522 0.931 . S
H550 C524 0.934 . S
H551 C525 0.930 . S
H552 C530 0.930 . S
H553 C531 0.931 . S
H554 C533 0.934 . S
H555 C534 0.930 . S
Ho556 C559 2.811 . S
Ho556 O576 2.322 . S
Ho556 O578 2.378 . S
Ho556 O579 2.524 . S
Ho556 O580 2.381 . S
Ho556 O581 2.669 . S
Ho556 O583 2.346 . S
Ho556 O587 2.305 . S
Ho557 C568 2.811 . S
Ho557 O577 2.346 . S
Ho557 O581 2.305 . S
Ho557 O582 2.322 . S
Ho557 O584 2.378 . S
Ho557 O585 2.524 . S
Ho557 O586 2.381 . S
Ho557 O587 2.669 . S
C558 O576 1.259 . S
C558 O577 1.268 . S
C559 Ho556 2.811 . S
C559 C560 1.488 . S
C559 O578 1.215 . S
C559 O579 1.289 . S
C560 C559 1.488 . S
C560 C561 1.348 . S
C560 C565 1.413 . S
C561 C560 1.348 . S
C561 C562 1.442 . S
C561 H588 0.930 . S
C562 C561 1.442 . S
C562 C563 1.381 . S
C562 H589 0.931 . S
C563 C562 1.381 . S
C563 C564 1.321 . S
C564 C563 1.321 . S
C564 C565 1.403 . S
C564 H590 0.934 . S
C565 C560 1.413 . S
C565 C564 1.403 . S
C565 H591 0.930 . S
C566 O580 1.275 . S
C566 O581 1.256 . S
C567 O582 1.259 . S
C567 O583 1.268 . S
C568 Ho557 2.811 . S
C568 C569 1.488 . S
C568 O584 1.215 . S
C568 O585 1.289 . S
C569 C568 1.488 . S
C569 C570 1.348 . S
C569 C574 1.413 . S
C570 C569 1.348 . S
C570 C571 1.442 . S
C570 H592 0.930 . S
C571 C570 1.442 . S
C571 C572 1.381 . S
C571 H593 0.931 . S
C572 C571 1.381 . S
C572 C573 1.321 . S
C573 C572 1.321 . S
C573 C574 1.403 . S
C573 H594 0.934 . S
C574 C569 1.413 . S
C574 C573 1.403 . S
C574 H595 0.930 . S
C575 O586 1.275 . S
C575 O587 1.256 . S
O576 Ho556 2.322 . S
O576 C558 1.259 . S
O577 Ho557 2.346 . S
O577 C558 1.268 . S
O578 Ho556 2.378 . S
O578 C559 1.215 . S
O579 Ho556 2.524 . S
O579 C559 1.289 . S
O580 Ho556 2.381 . S
O580 C566 1.275 . S
O581 Ho556 2.669 . S
O581 Ho557 2.305 . S
O581 C566 1.256 . S
O582 Ho557 2.322 . S
O582 C567 1.259 . S
O583 Ho556 2.346 . S
O583 C567 1.268 . S
O584 Ho557 2.378 . S
O584 C568 1.215 . S
O585 Ho557 2.524 . S
O585 C568 1.289 . S
O586 Ho557 2.381 . S
O586 C575 1.275 . S
O587 Ho556 2.305 . S
O587 Ho557 2.669 . S
O587 C575 1.256 . S
H588 C561 0.930 . S
H589 C562 0.931 . S
H590 C564 0.934 . S
H591 C565 0.930 . S
H592 C570 0.930 . S
H593 C571 0.931 . S
H594 C573 0.934 . S
H595 C574 0.930 . S
H596 C608 0.930 . S
H597 C610 0.930 . S
H598 C611 0.930 . S
H599 C615 0.959 . S
H600 C615 0.959 . S
H601 C615 0.961 . S
H602 C616 0.960 . S
H603 C616 0.961 . S
H604 C616 0.959 . S
H605 C619 0.929 . S
H606 C620 0.931 . S
H607 C622 0.930 . S
C608 H596 0.930 . S
C608 C609 1.399 . S
C608 C613 1.399 . S
C609 C608 1.399 . S
C609 C610 1.376 . S
C610 H597 0.930 . S
C610 C609 1.376 . S
C610 C611 1.388 . S
C611 H598 0.930 . S
C611 C610 1.388 . S
C611 C612 1.390 . S
C612 C611 1.390 . S
C612 C613 1.394 . S
C612 C618 1.465 . S
C613 C608 1.399 . S
C613 C612 1.394 . S
C613 C614 1.516 . S
C614 C613 1.516 . S
C614 C615 1.502 . S
C614 C616 1.561 . S
C614 C617 1.526 . S
C615 H599 0.959 . S
C615 H600 0.959 . S
C615 H601 0.961 . S
C615 C614 1.502 . S
C616 H602 0.960 . S
C616 H603 0.961 . S
C616 H604 0.959 . S
C616 C614 1.561 . S
C617 C614 1.526 . S
C617 C618 1.396 . S
C617 C622 1.390 . S
C618 C612 1.465 . S
C618 C617 1.396 . S
C618 C619 1.399 . S
C619 H605 0.929 . S
C619 C618 1.399 . S
C619 C620 1.385 . S
C620 H606 0.931 . S
C620 C619 1.385 . S
C620 C621 1.389 . S
C621 C620 1.389 . S
C621 C622 1.387 . S
C622 H607 0.930 . S
C622 C617 1.390 . S
C622 C621 1.387 . S
H623 C635 0.930 . S
H624 C637 0.930 . S
H625 C638 0.930 . S
H626 C642 0.959 . S
H627 C642 0.959 . S
H628 C642 0.961 . S
H629 C643 0.960 . S
H630 C643 0.961 . S
H631 C643 0.959 . S
H632 C646 0.929 . S
H633 C647 0.931 . S
H634 C649 0.930 . S
C635 H623 0.930 . S
C635 C636 1.399 . S
C635 C640 1.399 . S
C636 C635 1.399 . S
C636 C637 1.376 . S
C637 H624 0.930 . S
C637 C636 1.376 . S
C637 C638 1.388 . S
C638 H625 0.930 . S
C638 C637 1.388 . S
C638 C639 1.390 . S
C639 C638 1.390 . S
C639 C640 1.394 . S
C639 C645 1.465 . S
C640 C635 1.399 . S
C640 C639 1.394 . S
C640 C641 1.516 . S
C641 C640 1.516 . S
C641 C642 1.502 . S
C641 C643 1.561 . S
C641 C644 1.526 . S
C642 H626 0.959 . S
C642 H627 0.959 . S
C642 H628 0.961 . S
C642 C641 1.502 . S
C643 H629 0.960 . S
C643 H630 0.961 . S
C643 H631 0.959 . S
C643 C641 1.561 . S
C644 C641 1.526 . S
C644 C645 1.396 . S
C644 C649 1.390 . S
C645 C639 1.465 . S
C645 C644 1.396 . S
C645 C646 1.399 . S
C646 H632 0.929 . S
C646 C645 1.399 . S
C646 C647 1.385 . S
C647 H633 0.931 . S
C647 C646 1.385 . S
C647 C648 1.389 . S
C648 C647 1.389 . S
C648 C649 1.387 . S
C649 H634 0.930 . S
C649 C644 1.390 . S
C649 C648 1.387 . S
H650 C662 0.930 . S
H651 C664 0.930 1_455 S
H652 C665 0.930 . S
H653 C669 0.959 . S
H654 C669 0.959 . S
H655 C669 0.961 . S
H656 C670 0.960 . S
H657 C670 0.961 . S
H658 C670 0.959 . S
H659 C673 0.929 . S
H660 C674 0.931 . S
H661 C676 0.930 . S
C662 H650 0.930 . S
C662 C663 1.399 . S
C662 C667 1.399 . S
C663 C662 1.399 . S
C663 C664 1.376 . S
C664 H651 0.930 1_655 S
C664 C663 1.376 . S
C664 C665 1.388 . S
C665 H652 0.930 . S
C665 C664 1.388 . S
C665 C666 1.390 . S
C666 C665 1.390 . S
C666 C667 1.394 . S
C666 C672 1.465 . S
C667 C662 1.399 . S
C667 C666 1.394 . S
C667 C668 1.516 . S
C668 C667 1.516 . S
C668 C669 1.502 . S
C668 C670 1.561 . S
C668 C671 1.526 . S
C669 H653 0.959 . S
C669 H654 0.959 . S
C669 H655 0.961 . S
C669 C668 1.502 . S
C670 H656 0.960 . S
C670 H657 0.961 . S
C670 H658 0.959 . S
C670 C668 1.561 . S
C671 C668 1.526 . S
C671 C672 1.396 . S
C671 C676 1.390 . S
C672 C666 1.465 . S
C672 C671 1.396 . S
C672 C673 1.399 . S
C673 H659 0.929 . S
C673 C672 1.399 . S
C673 C674 1.385 . S
C674 H660 0.931 . S
C674 C673 1.385 . S
C674 C675 1.389 . S
C675 C674 1.389 . S
C675 C676 1.387 . S
C676 H661 0.930 . S
C676 C671 1.390 . S
C676 C675 1.387 . S
H677 C689 0.930 . S
H678 C691 0.930 . S
H679 C692 0.930 . S
H680 C696 0.959 . S
H681 C696 0.959 . S
H682 C696 0.961 . S
H683 C697 0.960 . S
H684 C697 0.961 . S
H685 C697 0.959 . S
H686 C700 0.929 . S
H687 C701 0.931 . S
H688 C703 0.930 . S
C689 H677 0.930 . S
C689 C690 1.399 . S
C689 C694 1.399 . S
C690 C689 1.399 . S
C690 C691 1.376 . S
C691 H678 0.930 . S
C691 C690 1.376 . S
C691 C692 1.388 . S
C692 H679 0.930 . S
C692 C691 1.388 . S
C692 C693 1.390 . S
C693 C692 1.390 . S
C693 C694 1.394 . S
C693 C699 1.465 . S
C694 C689 1.399 . S
C694 C693 1.394 . S
C694 C695 1.516 . S
C695 C694 1.516 . S
C695 C696 1.502 . S
C695 C697 1.561 . S
C695 C698 1.526 . S
C696 H680 0.959 . S
C696 H681 0.959 . S
C696 H682 0.961 . S
C696 C695 1.502 . S
C697 H683 0.960 . S
C697 H684 0.961 . S
C697 H685 0.959 . S
C697 C695 1.561 . S
C698 C695 1.526 . S
C698 C699 1.396 . S
C698 C703 1.390 . S
C699 C693 1.465 . S
C699 C698 1.396 . S
C699 C700 1.399 . S
C700 H686 0.929 . S
C700 C699 1.399 . S
C700 C701 1.385 . S
C701 H687 0.931 . S
C701 C700 1.385 . S
C701 C702 1.389 . S
C702 C701 1.389 . S
C702 C703 1.387 . S
C703 H688 0.930 . S
C703 C698 1.390 . S
C703 C702 1.387 . S
H704 C716 0.930 . S
H705 C718 0.930 . S
H706 C719 0.930 . S
H707 C723 0.959 . S
H708 C723 0.959 . S
H709 C723 0.961 . S
H710 C724 0.960 . S
H711 C724 0.961 . S
H712 C724 0.959 . S
H713 C727 0.929 . S
H714 C728 0.931 . S
H715 C730 0.930 . S
C716 H704 0.930 . S
C716 C717 1.399 . S
C716 C721 1.399 . S
C717 C716 1.399 . S
C717 C718 1.376 . S
C718 H705 0.930 . S
C718 C717 1.376 . S
C718 C719 1.388 . S
C719 H706 0.930 . S
C719 C718 1.388 . S
C719 C720 1.390 . S
C720 C719 1.390 . S
C720 C721 1.394 . S
C720 C726 1.465 . S
C721 C716 1.399 . S
C721 C720 1.394 . S
C721 C722 1.516 . S
C722 C721 1.516 . S
C722 C723 1.502 . S
C722 C724 1.561 . S
C722 C725 1.526 . S
C723 H707 0.959 . S
C723 H708 0.959 . S
C723 H709 0.961 . S
C723 C722 1.502 . S
C724 H710 0.960 . S
C724 H711 0.961 . S
C724 H712 0.959 . S
C724 C722 1.561 . S
C725 C722 1.526 . S
C725 C726 1.396 . S
C725 C730 1.390 . S
C726 C720 1.465 . S
C726 C725 1.396 . S
C726 C727 1.399 . S
C727 H713 0.929 . S
C727 C726 1.399 . S
C727 C728 1.385 . S
C728 H714 0.931 . S
C728 C727 1.385 . S
C728 C729 1.389 . S
C729 C728 1.389 . S
C729 C730 1.387 . S
C730 H715 0.930 . S
C730 C725 1.390 . S
C730 C729 1.387 . S
H731 C743 0.930 . S
H732 C745 0.930 . S
H733 C746 0.930 . S
H734 C750 0.959 . S
H735 C750 0.959 . S
H736 C750 0.961 . S
H737 C751 0.960 . S
H738 C751 0.961 . S
H739 C751 0.959 . S
H740 C754 0.929 . S
H741 C755 0.931 . S
H742 C757 0.930 . S
C743 H731 0.930 . S
C743 C744 1.399 . S
C743 C748 1.399 . S
C744 C743 1.399 . S
C744 C745 1.376 . S
C745 H732 0.930 . S
C745 C744 1.376 . S
C745 C746 1.388 . S
C746 H733 0.930 . S
C746 C745 1.388 . S
C746 C747 1.390 . S
C747 C746 1.390 . S
C747 C748 1.394 . S
C747 C753 1.465 . S
C748 C743 1.399 . S
C748 C747 1.394 . S
C748 C749 1.516 . S
C749 C748 1.516 . S
C749 C750 1.502 . S
C749 C751 1.561 . S
C749 C752 1.526 . S
C750 H734 0.959 . S
C750 H735 0.959 . S
C750 H736 0.961 . S
C750 C749 1.502 . S
C751 H737 0.960 . S
C751 H738 0.961 . S
C751 H739 0.959 . S
C751 C749 1.561 . S
C752 C749 1.526 . S
C752 C753 1.396 . S
C752 C757 1.390 . S
C753 C747 1.465 . S
C753 C752 1.396 . S
C753 C754 1.399 . S
C754 H740 0.929 . S
C754 C753 1.399 . S
C754 C755 1.385 . S
C755 H741 0.931 . S
C755 C754 1.385 . S
C755 C756 1.389 . S
C756 C755 1.389 . S
C756 C757 1.387 . S
C757 H742 0.930 . S
C757 C752 1.390 . S
C757 C756 1.387 . S
H758 C770 0.930 . S
H759 C772 0.930 . S
H760 C773 0.930 . S
H761 C777 0.959 . S
H762 C777 0.959 . S
H763 C777 0.961 . S
H764 C778 0.960 . S
H765 C778 0.961 . S
H766 C778 0.959 . S
H767 C781 0.929 . S
H768 C782 0.931 . S
H769 C784 0.930 . S
C770 H758 0.930 . S
C770 C771 1.399 . S
C770 C775 1.399 . S
C771 C770 1.399 . S
C771 C772 1.376 . S
C772 H759 0.930 . S
C772 C771 1.376 . S
C772 C773 1.388 . S
C773 H760 0.930 . S
C773 C772 1.388 . S
C773 C774 1.390 . S
C774 C773 1.390 . S
C774 C775 1.394 . S
C774 C780 1.465 . S
C775 C770 1.399 . S
C775 C774 1.394 . S
C775 C776 1.516 . S
C776 C775 1.516 . S
C776 C777 1.502 . S
C776 C778 1.561 . S
C776 C779 1.526 . S
C777 H761 0.959 . S
C777 H762 0.959 . S
C777 H763 0.961 . S
C777 C776 1.502 . S
C778 H764 0.960 . S
C778 H765 0.961 . S
C778 H766 0.959 . S
C778 C776 1.561 . S
C779 C776 1.526 . S
C779 C780 1.396 . S
C779 C784 1.390 . S
C780 C774 1.465 . S
C780 C779 1.396 . S
C780 C781 1.399 . S
C781 H767 0.929 . S
C781 C780 1.399 . S
C781 C782 1.385 . S
C782 H768 0.931 . S
C782 C781 1.385 . S
C782 C783 1.389 . S
C783 C782 1.389 . S
C783 C784 1.387 . S
C784 H769 0.930 . S
C784 C779 1.390 . S
C784 C783 1.387 . S
H785 C797 0.930 . S
H786 C799 0.926 1_545 S
H787 C800 0.930 . S
H788 C804 0.959 . S
H789 C804 0.959 . S
H790 C804 0.961 . S
H791 C805 0.960 . S
H792 C805 0.961 . S
H793 C805 0.959 . S
H794 C808 0.929 . S
H795 C809 0.931 . S
H796 C811 0.930 . S
C797 H785 0.930 . S
C797 C798 1.399 . S
C797 C802 1.399 . S
C798 C797 1.399 . S
C798 C799 1.377 . S
C799 H786 0.926 1_565 S
C799 C798 1.377 . S
C799 C800 1.392 . S
C800 H787 0.930 . S
C800 C799 1.392 . S
C800 C801 1.390 . S
C801 C800 1.390 . S
C801 C802 1.394 . S
C801 C807 1.465 . S
C802 C797 1.399 . S
C802 C801 1.394 . S
C802 C803 1.516 . S
C803 C802 1.516 . S
C803 C804 1.502 . S
C803 C805 1.561 . S
C803 C806 1.526 . S
C804 H788 0.959 . S
C804 H789 0.959 . S
C804 H790 0.961 . S
C804 C803 1.502 . S
C805 H791 0.960 . S
C805 H792 0.961 . S
C805 H793 0.959 . S
C805 C803 1.561 . S
C806 C803 1.526 . S
C806 C807 1.396 . S
C806 C811 1.390 . S
C807 C801 1.465 . S
C807 C806 1.396 . S
C807 C808 1.399 . S
C808 H794 0.929 . S
C808 C807 1.399 . S
C808 C809 1.385 . S
C809 H795 0.931 . S
C809 C808 1.385 . S
C809 C810 1.389 . S
C810 C809 1.389 . S
C810 C811 1.387 . S
C811 H796 0.930 . S
C811 C806 1.390 . S
C811 C810 1.387 . S
H812 C824 0.930 . S
H813 C826 0.930 . S
H814 C827 0.930 . S
H815 C831 0.959 . S
H816 C831 0.959 . S
H817 C831 0.961 . S
H818 C832 0.960 . S
H819 C832 0.961 . S
H820 C832 0.959 . S
H821 C835 0.929 . S
H822 C836 0.931 . S
H823 C838 0.930 . S
C824 H812 0.930 . S
C824 C825 1.399 . S
C824 C829 1.399 . S
C825 C824 1.399 . S
C825 C826 1.376 . S
C826 H813 0.930 . S
C826 C825 1.376 . S
C826 C827 1.388 . S
C827 H814 0.930 . S
C827 C826 1.388 . S
C827 C828 1.390 . S
C828 C827 1.390 . S
C828 C829 1.394 . S
C828 C834 1.465 . S
C829 C824 1.399 . S
C829 C828 1.394 . S
C829 C830 1.516 . S
C830 C829 1.516 . S
C830 C831 1.502 . S
C830 C832 1.561 . S
C830 C833 1.526 . S
C831 H815 0.959 . S
C831 H816 0.959 . S
C831 H817 0.961 . S
C831 C830 1.502 . S
C832 H818 0.960 . S
C832 H819 0.961 . S
C832 H820 0.959 . S
C832 C830 1.561 . S
C833 C830 1.526 . S
C833 C834 1.396 . S
C833 C838 1.390 . S
C834 C828 1.465 . S
C834 C833 1.396 . S
C834 C835 1.399 . S
C835 H821 0.929 . S
C835 C834 1.399 . S
C835 C836 1.385 . S
C836 H822 0.931 . S
C836 C835 1.385 . S
C836 C837 1.389 . S
C837 C836 1.389 . S
C837 C838 1.387 . S
C838 H823 0.930 . S
C838 C833 1.390 . S
C838 C837 1.387 . S
H839 C851 0.930 . S
H840 C853 0.930 . S
H841 C854 0.930 . S
H842 C858 0.959 . S
H843 C858 0.959 . S
H844 C858 0.961 . S
H845 C859 0.960 . S
H846 C859 0.961 . S
H847 C859 0.959 . S
H848 C862 0.929 . S
H849 C863 0.931 . S
H850 C865 0.930 . S
C851 H839 0.930 . S
C851 C852 1.399 . S
C851 C856 1.399 . S
C852 C851 1.399 . S
C852 C853 1.376 . S
C853 H840 0.930 . S
C853 C852 1.376 . S
C853 C854 1.388 . S
C854 H841 0.930 . S
C854 C853 1.388 . S
C854 C855 1.390 . S
C855 C854 1.390 . S
C855 C856 1.394 . S
C855 C861 1.465 . S
C856 C851 1.399 . S
C856 C855 1.394 . S
C856 C857 1.516 . S
C857 C856 1.516 . S
C857 C858 1.502 . S
C857 C859 1.561 . S
C857 C860 1.526 . S
C858 H842 0.959 . S
C858 H843 0.959 . S
C858 H844 0.961 . S
C858 C857 1.502 . S
C859 H845 0.960 . S
C859 H846 0.961 . S
C859 H847 0.959 . S
C859 C857 1.561 . S
C860 C857 1.526 . S
C860 C861 1.396 . S
C860 C865 1.390 . S
C861 C855 1.465 . S
C861 C860 1.396 . S
C861 C862 1.399 . S
C862 H848 0.929 . S
C862 C861 1.399 . S
C862 C863 1.385 . S
C863 H849 0.931 . S
C863 C862 1.385 . S
C863 C864 1.389 . S
C864 C863 1.389 . S
C864 C865 1.387 . S
C865 H850 0.930 . S
C865 C860 1.390 . S
C865 C864 1.387 . S
H866 C878 0.930 . S
H867 C880 0.930 . S
H868 C881 0.930 . S
H869 C885 0.959 . S
H870 C885 0.959 . S
H871 C885 0.961 . S
H872 C886 0.960 . S
H873 C886 0.961 . S
H874 C886 0.959 . S
H875 C889 0.929 . S
H876 C890 0.931 . S
H877 C892 0.930 . S
C878 H866 0.930 . S
C878 C879 1.399 . S
C878 C883 1.399 . S
C879 C878 1.399 . S
C879 C880 1.376 . S
C880 H867 0.930 . S
C880 C879 1.376 . S
C880 C881 1.388 . S
C881 H868 0.930 . S
C881 C880 1.388 . S
C881 C882 1.390 . S
C882 C881 1.390 . S
C882 C883 1.394 . S
C882 C888 1.465 . S
C883 C878 1.399 . S
C883 C882 1.394 . S
C883 C884 1.516 . S
C884 C883 1.516 . S
C884 C885 1.502 . S
C884 C886 1.561 . S
C884 C887 1.526 . S
C885 H869 0.959 . S
C885 H870 0.959 . S
C885 H871 0.961 . S
C885 C884 1.502 . S
C886 H872 0.960 . S
C886 H873 0.961 . S
C886 H874 0.959 . S
C886 C884 1.561 . S
C887 C884 1.526 . S
C887 C888 1.396 . S
C887 C892 1.390 . S
C888 C882 1.465 . S
C888 C887 1.396 . S
C888 C889 1.399 . S
C889 H875 0.929 . S
C889 C888 1.399 . S
C889 C890 1.385 . S
C890 H876 0.931 . S
C890 C889 1.385 . S
C890 C891 1.389 . S
C891 C890 1.389 . S
C891 C892 1.387 . S
C892 H877 0.930 . S
C892 C887 1.390 . S
C892 C891 1.387 . S
H893 C905 0.930 . S
H894 C907 0.930 . S
H895 C908 0.930 . S
H896 C912 0.959 . S
H897 C912 0.959 . S
H898 C912 0.961 . S
H899 C913 0.960 . S
H900 C913 0.961 . S
H901 C913 0.959 . S
H902 C916 0.929 . S
H903 C917 0.931 . S
H904 C919 0.930 . S
C905 H893 0.930 . S
C905 C906 1.399 . S
C905 C910 1.399 . S
C906 C905 1.399 . S
C906 C907 1.376 . S
C907 H894 0.930 . S
C907 C906 1.376 . S
C907 C908 1.388 . S
C908 H895 0.930 . S
C908 C907 1.388 . S
C908 C909 1.390 . S
C909 C908 1.390 . S
C909 C910 1.394 . S
C909 C915 1.465 . S
C910 C905 1.399 . S
C910 C909 1.394 . S
C910 C911 1.516 . S
C911 C910 1.516 . S
C911 C912 1.502 . S
C911 C913 1.561 . S
C911 C914 1.526 . S
C912 H896 0.959 . S
C912 H897 0.959 . S
C912 H898 0.961 . S
C912 C911 1.502 . S
C913 H899 0.960 . S
C913 H900 0.961 . S
C913 H901 0.959 . S
C913 C911 1.561 . S
C914 C911 1.526 . S
C914 C915 1.396 . S
C914 C919 1.390 . S
C915 C909 1.465 . S
C915 C914 1.396 . S
C915 C916 1.399 . S
C916 H902 0.929 . S
C916 C915 1.399 . S
C916 C917 1.385 . S
C917 H903 0.931 . S
C917 C916 1.385 . S
C917 C918 1.389 . S
C918 C917 1.389 . S
C918 C919 1.387 . S
C919 H904 0.930 . S
C919 C914 1.390 . S
C919 C918 1.387 . S
H920 C932 0.930 . S
H921 C934 0.933 . S
H922 C935 0.930 . S
H923 C939 0.959 . S
H924 C939 0.959 . S
H925 C939 0.961 . S
H926 C940 0.960 . S
H927 C940 0.961 . S
H928 C940 0.959 . S
H929 C943 0.929 . S
H930 C944 0.931 . S
H931 C946 0.930 . S
C932 H920 0.930 . S
C932 C933 1.399 . S
C932 C937 1.399 . S
C933 C932 1.399 . S
C933 C934 1.375 1_564 S
C934 H921 0.933 . S
C934 C933 1.375 1_546 S
C934 C935 1.387 1_545 S
C935 H922 0.930 . S
C935 C934 1.387 1_565 S
C935 C936 1.390 . S
C936 C935 1.390 . S
C936 C937 1.394 1_556 S
C936 C942 1.465 . S
C937 C932 1.399 . S
C937 C936 1.394 1_554 S
C937 C938 1.516 . S
C938 C937 1.516 . S
C938 C939 1.502 . S
C938 C940 1.561 . S
C938 C941 1.526 1_554 S
C939 H923 0.959 . S
C939 H924 0.959 . S
C939 H925 0.961 . S
C939 C938 1.502 . S
C940 H926 0.960 . S
C940 H927 0.961 . S
C940 H928 0.959 . S
C940 C938 1.561 . S
C941 C938 1.526 1_556 S
C941 C942 1.396 . S
C941 C946 1.390 . S
C942 C936 1.465 . S
C942 C941 1.396 . S
C942 C943 1.399 . S
C943 H929 0.929 . S
C943 C942 1.399 . S
C943 C944 1.385 . S
C944 H930 0.931 . S
C944 C943 1.385 . S
C944 C945 1.389 . S
C945 C944 1.389 . S
C945 C946 1.387 . S
C946 H931 0.930 . S
C946 C941 1.390 . S
C946 C945 1.387 . S
H947 C959 0.930 . S
H948 C961 0.930 1_554 S
H949 C962 0.930 . S
H950 C966 0.959 . S
H951 C966 0.959 . S
H952 C966 0.961 . S
H953 C967 0.960 . S
H954 C967 0.961 . S
H955 C967 0.959 . S
H956 C970 0.929 . S
H957 C971 0.931 . S
H958 C973 0.930 . S
C959 H947 0.930 . S
C959 C960 1.399 . S
C959 C964 1.399 . S
C960 C959 1.399 . S
C960 C961 1.376 . S
C961 H948 0.930 1_556 S
C961 C960 1.376 . S
C961 C962 1.388 . S
C962 H949 0.930 . S
C962 C961 1.388 . S
C962 C963 1.390 . S
C963 C962 1.390 . S
C963 C964 1.394 . S
C963 C969 1.465 . S
C964 C959 1.399 . S
C964 C963 1.394 . S
C964 C965 1.516 . S
C965 C964 1.516 . S
C965 C966 1.502 . S
C965 C967 1.561 . S
C965 C968 1.526 . S
C966 H950 0.959 . S
C966 H951 0.959 . S
C966 H952 0.961 . S
C966 C965 1.502 . S
C967 H953 0.960 . S
C967 H954 0.961 . S
C967 H955 0.959 . S
C967 C965 1.561 . S
C968 C965 1.526 . S
C968 C969 1.396 . S
C968 C973 1.390 . S
C969 C963 1.465 . S
C969 C968 1.396 . S
C969 C970 1.399 . S
C970 H956 0.929 . S
C970 C969 1.399 . S
C970 C971 1.385 . S
C971 H957 0.931 . S
C971 C970 1.385 . S
C971 C972 1.389 . S
C972 C971 1.389 . S
C972 C973 1.387 . S
C973 H958 0.930 . S
C973 C968 1.390 . S
C973 C972 1.387 . S
H974 C986 0.930 . S
H975 C988 0.930 . S
H976 C989 0.930 . S
H977 C993 0.959 . S
H978 C993 0.959 . S
H979 C993 0.961 . S
H980 C994 0.960 . S
H981 C994 0.961 . S
H982 C994 0.959 . S
H983 C997 0.929 . S
H984 C998 0.931 . S
H985 C1000 0.930 . S
C986 H974 0.930 . S
C986 C987 1.399 . S
C986 C991 1.399 . S
C987 C986 1.399 . S
C987 C988 1.376 . S
C988 H975 0.930 . S
C988 C987 1.376 . S
C988 C989 1.388 . S
C989 H976 0.930 . S
C989 C988 1.388 . S
C989 C990 1.390 . S
C990 C989 1.390 . S
C990 C991 1.394 . S
C990 C996 1.465 . S
C991 C986 1.399 . S
C991 C990 1.394 . S
C991 C992 1.516 . S
C992 C991 1.516 . S
C992 C993 1.502 . S
C992 C994 1.561 . S
C992 C995 1.526 . S
C993 H977 0.959 . S
C993 H978 0.959 . S
C993 H979 0.961 . S
C993 C992 1.502 . S
C994 H980 0.960 . S
C994 H981 0.961 . S
C994 H982 0.959 . S
C994 C992 1.561 . S
C995 C992 1.526 . S
C995 C996 1.396 . S
C995 C1000 1.390 . S
C996 C990 1.465 . S
C996 C995 1.396 . S
C996 C997 1.399 . S
C997 H983 0.929 . S
C997 C996 1.399 . S
C997 C998 1.385 . S
C998 H984 0.931 . S
C998 C997 1.385 . S
C998 C999 1.389 . S
C999 C998 1.389 . S
C999 C1000 1.387 . S
C1000 H985 0.930 . S
C1000 C995 1.390 . S
C1000 C999 1.387 . S
H1001 C1013 0.930 . S
H1002 C1015 0.930 . S
H1003 C1016 0.930 . S
H1004 C1020 0.959 . S
H1005 C1020 0.959 . S
H1006 C1020 0.961 . S
H1007 C1021 0.960 . S
H1008 C1021 0.961 . S
H1009 C1021 0.959 . S
H1010 C1024 0.929 . S
H1011 C1025 0.931 . S
H1012 C1027 0.930 . S
C1013 H1001 0.930 . S
C1013 C1014 1.399 . S
C1013 C1018 1.399 . S
C1014 C1013 1.399 . S
C1014 C1015 1.376 . S
C1015 H1002 0.930 . S
C1015 C1014 1.376 . S
C1015 C1016 1.388 . S
C1016 H1003 0.930 . S
C1016 C1015 1.388 . S
C1016 C1017 1.390 . S
C1017 C1016 1.390 . S
C1017 C1018 1.394 . S
C1017 C1023 1.465 . S
C1018 C1013 1.399 . S
C1018 C1017 1.394 . S
C1018 C1019 1.516 . S
C1019 C1018 1.516 . S
C1019 C1020 1.502 . S
C1019 C1021 1.561 . S
C1019 C1022 1.526 . S
C1020 H1004 0.959 . S
C1020 H1005 0.959 . S
C1020 H1006 0.961 . S
C1020 C1019 1.502 . S
C1021 H1007 0.960 . S
C1021 H1008 0.961 . S
C1021 H1009 0.959 . S
C1021 C1019 1.561 . S
C1022 C1019 1.526 . S
C1022 C1023 1.396 . S
C1022 C1027 1.390 . S
C1023 C1017 1.465 . S
C1023 C1022 1.396 . S
C1023 C1024 1.399 . S
C1024 H1010 0.929 . S
C1024 C1023 1.399 . S
C1024 C1025 1.385 . S
C1025 H1011 0.931 . S
C1025 C1024 1.385 . S
C1025 C1026 1.389 . S
C1026 C1025 1.389 . S
C1026 C1027 1.387 . S
C1027 H1012 0.930 . S
C1027 C1022 1.390 . S
C1027 C1026 1.387 . S
H1028 C1040 0.930 . S
H1029 C1042 0.930 . S
H1030 C1043 0.930 . S
H1031 C1047 0.959 . S
H1032 C1047 0.959 . S
H1033 C1047 0.961 . S
H1034 C1048 0.960 . S
H1035 C1048 0.961 . S
H1036 C1048 0.959 . S
H1037 C1051 0.929 . S
H1038 C1052 0.931 . S
H1039 C1054 0.930 . S
C1040 H1028 0.930 . S
C1040 C1041 1.399 . S
C1040 C1045 1.399 . S
C1041 C1040 1.399 . S
C1041 C1042 1.376 . S
C1042 H1029 0.930 . S
C1042 C1041 1.376 . S
C1042 C1043 1.388 . S
C1043 H1030 0.930 . S
C1043 C1042 1.388 . S
C1043 C1044 1.390 . S
C1044 C1043 1.390 . S
C1044 C1045 1.394 . S
C1044 C1050 1.465 . S
C1045 C1040 1.399 . S
C1045 C1044 1.394 . S
C1045 C1046 1.516 . S
C1046 C1045 1.516 . S
C1046 C1047 1.502 . S
C1046 C1048 1.561 . S
C1046 C1049 1.526 . S
C1047 H1031 0.959 . S
C1047 H1032 0.959 . S
C1047 H1033 0.961 . S
C1047 C1046 1.502 . S
C1048 H1034 0.960 . S
C1048 H1035 0.961 . S
C1048 H1036 0.959 . S
C1048 C1046 1.561 . S
C1049 C1046 1.526 . S
C1049 C1050 1.396 . S
C1049 C1054 1.390 . S
C1050 C1044 1.465 . S
C1050 C1049 1.396 . S
C1050 C1051 1.399 . S
C1051 H1037 0.929 . S
C1051 C1050 1.399 . S
C1051 C1052 1.385 . S
C1052 H1038 0.931 . S
C1052 C1051 1.385 . S
C1052 C1053 1.389 . S
C1053 C1052 1.389 . S
C1053 C1054 1.387 . S
C1054 H1039 0.930 . S
C1054 C1049 1.390 . S
C1054 C1053 1.387 . S
H1055 C1067 0.930 . S
H1056 C1069 0.930 . S
H1057 C1070 0.930 . S
H1058 C1074 0.959 . S
H1059 C1074 0.959 . S
H1060 C1074 0.961 . S
H1061 C1075 0.960 . S
H1062 C1075 0.961 . S
H1063 C1075 0.959 . S
H1064 C1078 0.929 . S
H1065 C1079 0.931 . S
H1066 C1081 0.930 . S
C1067 H1055 0.930 . S
C1067 C1068 1.399 . S
C1067 C1072 1.399 . S
C1068 C1067 1.399 . S
C1068 C1069 1.376 . S
C1069 H1056 0.930 . S
C1069 C1068 1.376 . S
C1069 C1070 1.388 . S
C1070 H1057 0.930 . S
C1070 C1069 1.388 . S
C1070 C1071 1.390 . S
C1071 C1070 1.390 . S
C1071 C1072 1.394 . S
C1071 C1077 1.465 . S
C1072 C1067 1.399 . S
C1072 C1071 1.394 . S
C1072 C1073 1.516 . S
C1073 C1072 1.516 . S
C1073 C1074 1.502 . S
C1073 C1075 1.561 . S
C1073 C1076 1.526 . S
C1074 H1058 0.959 . S
C1074 H1059 0.959 . S
C1074 H1060 0.961 . S
C1074 C1073 1.502 . S
C1075 H1061 0.960 . S
C1075 H1062 0.961 . S
C1075 H1063 0.959 . S
C1075 C1073 1.561 . S
C1076 C1073 1.526 . S
C1076 C1077 1.396 . S
C1076 C1081 1.390 . S
C1077 C1071 1.465 . S
C1077 C1076 1.396 . S
C1077 C1078 1.399 . S
C1078 H1064 0.929 . S
C1078 C1077 1.399 . S
C1078 C1079 1.385 . S
C1079 H1065 0.931 . S
C1079 C1078 1.385 . S
C1079 C1080 1.389 . S
C1080 C1079 1.389 . S
C1080 C1081 1.387 . S
C1081 H1066 0.930 . S
C1081 C1076 1.390 . S
C1081 C1080 1.387 . S
H1082 C1094 0.930 . S
H1083 C1096 0.930 . S
H1084 C1097 0.930 . S
H1085 C1101 0.959 . S
H1086 C1101 0.959 . S
H1087 C1101 0.961 . S
H1088 C1102 0.960 . S
H1089 C1102 0.961 . S
H1090 C1102 0.959 . S
H1091 C1105 0.929 . S
H1092 C1106 0.931 . S
H1093 C1108 0.930 . S
C1094 H1082 0.930 . S
C1094 C1095 1.399 1_556 S
C1094 C1099 1.399 . S
C1095 C1094 1.399 1_554 S
C1095 C1096 1.376 . S
C1096 H1083 0.930 . S
C1096 C1095 1.376 . S
C1096 C1097 1.388 1_554 S
C1097 H1084 0.930 . S
C1097 C1096 1.388 1_556 S
C1097 C1098 1.390 . S
C1098 C1097 1.390 . S
C1098 C1099 1.394 . S
C1098 C1104 1.465 . S
C1099 C1094 1.399 . S
C1099 C1098 1.394 . S
C1099 C1100 1.516 . S
C1100 C1099 1.516 . S
C1100 C1101 1.502 . S
C1100 C1102 1.561 . S
C1100 C1103 1.526 . S
C1101 H1085 0.959 . S
C1101 H1086 0.959 . S
C1101 H1087 0.961 . S
C1101 C1100 1.502 . S
C1102 H1088 0.960 . S
C1102 H1089 0.961 . S
C1102 H1090 0.959 . S
C1102 C1100 1.561 . S
C1103 C1100 1.526 . S
C1103 C1104 1.396 . S
C1103 C1108 1.390 . S
C1104 C1098 1.465 . S
C1104 C1103 1.396 . S
C1104 C1105 1.399 . S
C1105 H1091 0.929 . S
C1105 C1104 1.399 . S
C1105 C1106 1.385 . S
C1106 H1092 0.931 . S
C1106 C1105 1.385 . S
C1106 C1107 1.389 . S
C1107 C1106 1.389 . S
C1107 C1108 1.387 . S
C1108 H1093 0.930 . S
C1108 C1103 1.390 . S
C1108 C1107 1.387 . S
H1109 C1121 0.930 . S
H1110 C1123 0.950 . S
H1111 C1124 0.930 . S
H1112 C1128 0.959 . S
H1113 C1128 0.959 . S
H1114 C1128 0.961 . S
H1115 C1129 0.960 . S
H1116 C1129 0.961 . S
H1117 C1129 0.959 . S
H1118 C1132 0.929 . S
H1119 C1133 0.931 . S
H1120 C1135 0.930 . S
C1121 H1109 0.930 . S
C1121 C1122 1.399 . S
C1121 C1126 1.399 . S
C1122 C1121 1.399 . S
C1122 C1123 1.376 1_554 S
C1123 H1110 0.950 . S
C1123 C1122 1.376 1_556 S
C1123 C1124 1.388 . S
C1124 H1111 0.930 . S
C1124 C1123 1.388 . S
C1124 C1125 1.390 . S
C1125 C1124 1.390 . S
C1125 C1126 1.394 1_556 S
C1125 C1131 1.465 . S
C1126 C1121 1.399 . S
C1126 C1125 1.394 1_554 S
C1126 C1127 1.516 . S
C1127 C1126 1.516 . S
C1127 C1128 1.502 . S
C1127 C1129 1.561 . S
C1127 C1130 1.526 1_554 S
C1128 H1112 0.959 . S
C1128 H1113 0.959 . S
C1128 H1114 0.961 . S
C1128 C1127 1.502 . S
C1129 H1115 0.960 . S
C1129 H1116 0.961 . S
C1129 H1117 0.959 . S
C1129 C1127 1.561 . S
C1130 C1127 1.526 1_556 S
C1130 C1131 1.396 . S
C1130 C1135 1.390 . S
C1131 C1125 1.465 . S
C1131 C1130 1.396 . S
C1131 C1132 1.399 . S
C1132 H1118 0.929 . S
C1132 C1131 1.399 . S
C1132 C1133 1.385 . S
C1133 H1119 0.931 . S
C1133 C1132 1.385 . S
C1133 C1134 1.389 . S
C1134 C1133 1.389 . S
C1134 C1135 1.387 . S
C1135 H1120 0.930 . S
C1135 C1130 1.390 . S
C1135 C1134 1.387 . S
H1136 C1148 0.930 . S
H1137 C1150 0.930 . S
H1138 C1151 0.930 . S
H1139 C1155 0.959 . S
H1140 C1155 0.959 . S
H1141 C1155 0.961 . S
H1142 C1156 0.960 . S
H1143 C1156 0.961 . S
H1144 C1156 0.959 . S
H1145 C1159 0.929 . S
H1146 C1160 0.931 . S
H1147 C1162 0.930 . S
C1148 H1136 0.930 . S
C1148 C1149 1.399 . S
C1148 C1153 1.399 . S
C1149 C1148 1.399 . S
C1149 C1150 1.376 . S
C1150 H1137 0.930 . S
C1150 C1149 1.376 . S
C1150 C1151 1.388 . S
C1151 H1138 0.930 . S
C1151 C1150 1.388 . S
C1151 C1152 1.390 . S
C1152 C1151 1.390 . S
C1152 C1153 1.394 . S
C1152 C1158 1.465 . S
C1153 C1148 1.399 . S
C1153 C1152 1.394 . S
C1153 C1154 1.516 . S
C1154 C1153 1.516 . S
C1154 C1155 1.502 . S
C1154 C1156 1.561 . S
C1154 C1157 1.526 . S
C1155 H1139 0.959 . S
C1155 H1140 0.959 . S
C1155 H1141 0.961 . S
C1155 C1154 1.502 . S
C1156 H1142 0.960 . S
C1156 H1143 0.961 . S
C1156 H1144 0.959 . S
C1156 C1154 1.561 . S
C1157 C1154 1.526 . S
C1157 C1158 1.396 . S
C1157 C1162 1.390 . S
C1158 C1152 1.465 . S
C1158 C1157 1.396 . S
C1158 C1159 1.399 . S
C1159 H1145 0.929 . S
C1159 C1158 1.399 . S
C1159 C1160 1.385 . S
C1160 H1146 0.931 . S
C1160 C1159 1.385 . S
C1160 C1161 1.389 . S
C1161 C1160 1.389 . S
C1161 C1162 1.387 . S
C1162 H1147 0.930 . S
C1162 C1157 1.390 . S
C1162 C1161 1.387 . S
H1163 C1175 0.930 . S
H1164 C1177 0.930 . S
H1165 C1178 0.930 . S
H1166 C1182 0.959 . S
H1167 C1182 0.959 . S
H1168 C1182 0.961 . S
H1169 C1183 0.960 . S
H1170 C1183 0.961 . S
H1171 C1183 0.959 . S
H1172 C1186 0.929 . S
H1173 C1187 0.931 . S
H1174 C1189 0.930 . S
C1175 H1163 0.930 . S
C1175 C1176 1.399 . S
C1175 C1180 1.399 . S
C1176 C1175 1.399 . S
C1176 C1177 1.376 . S
C1177 H1164 0.930 . S
C1177 C1176 1.376 . S
C1177 C1178 1.388 . S
C1178 H1165 0.930 . S
C1178 C1177 1.388 . S
C1178 C1179 1.390 . S
C1179 C1178 1.390 . S
C1179 C1180 1.394 . S
C1179 C1185 1.465 . S
C1180 C1175 1.399 . S
C1180 C1179 1.394 . S
C1180 C1181 1.516 . S
C1181 C1180 1.516 . S
C1181 C1182 1.502 . S
C1181 C1183 1.561 . S
C1181 C1184 1.526 . S
C1182 H1166 0.959 . S
C1182 H1167 0.959 . S
C1182 H1168 0.961 . S
C1182 C1181 1.502 . S
C1183 H1169 0.960 . S
C1183 H1170 0.961 . S
C1183 H1171 0.959 . S
C1183 C1181 1.561 . S
C1184 C1181 1.526 . S
C1184 C1185 1.396 . S
C1184 C1189 1.390 . S
C1185 C1179 1.465 . S
C1185 C1184 1.396 . S
C1185 C1186 1.399 . S
C1186 H1172 0.929 . S
C1186 C1185 1.399 . S
C1186 C1187 1.385 . S
C1187 H1173 0.931 . S
C1187 C1186 1.385 . S
C1187 C1188 1.389 . S
C1188 C1187 1.389 . S
C1188 C1189 1.387 . S
C1189 H1174 0.930 . S
C1189 C1184 1.390 . S
C1189 C1188 1.387 . S
H1190 C1202 0.930 . S
H1191 C1204 0.930 . S
H1192 C1205 0.930 . S
H1193 C1209 0.959 . S
H1194 C1209 0.959 . S
H1195 C1209 0.961 . S
H1196 C1210 0.960 . S
H1197 C1210 0.961 . S
H1198 C1210 0.959 . S
H1199 C1213 0.929 . S
H1200 C1214 0.931 . S
H1201 C1216 0.930 . S
C1202 H1190 0.930 . S
C1202 C1203 1.399 . S
C1202 C1207 1.399 . S
C1203 C1202 1.399 . S
C1203 C1204 1.376 . S
C1204 H1191 0.930 . S
C1204 C1203 1.376 . S
C1204 C1205 1.388 . S
C1205 H1192 0.930 . S
C1205 C1204 1.388 . S
C1205 C1206 1.390 . S
C1206 C1205 1.390 . S
C1206 C1207 1.394 . S
C1206 C1212 1.465 . S
C1207 C1202 1.399 . S
C1207 C1206 1.394 . S
C1207 C1208 1.516 . S
C1208 C1207 1.516 . S
C1208 C1209 1.502 . S
C1208 C1210 1.561 . S
C1208 C1211 1.526 . S
C1209 H1193 0.959 . S
C1209 H1194 0.959 . S
C1209 H1195 0.961 . S
C1209 C1208 1.502 . S
C1210 H1196 0.960 . S
C1210 H1197 0.961 . S
C1210 H1198 0.959 . S
C1210 C1208 1.561 . S
C1211 C1208 1.526 . S
C1211 C1212 1.396 . S
C1211 C1216 1.390 . S
C1212 C1206 1.465 . S
C1212 C1211 1.396 . S
C1212 C1213 1.399 . S
C1213 H1199 0.929 . S
C1213 C1212 1.399 . S
C1213 C1214 1.385 . S
C1214 H1200 0.931 . S
C1214 C1213 1.385 . S
C1214 C1215 1.389 . S
C1215 C1214 1.389 . S
C1215 C1216 1.387 . S
C1216 H1201 0.930 . S
C1216 C1211 1.390 . S
C1216 C1215 1.387 . S
H1217 C1229 0.930 . S
H1218 C1231 0.930 . S
H1219 C1232 0.930 . S
H1220 C1236 0.959 . S
H1221 C1236 0.959 . S
H1222 C1236 0.961 . S
H1223 C1237 0.960 . S
H1224 C1237 0.961 . S
H1225 C1237 0.959 . S
H1226 C1240 0.929 . S
H1227 C1241 0.931 . S
H1228 C1243 0.930 . S
C1229 H1217 0.930 . S
C1229 C1230 1.399 . S
C1229 C1234 1.399 . S
C1230 C1229 1.399 . S
C1230 C1231 1.376 . S
C1231 H1218 0.930 . S
C1231 C1230 1.376 . S
C1231 C1232 1.388 . S
C1232 H1219 0.930 . S
C1232 C1231 1.388 . S
C1232 C1233 1.390 . S
C1233 C1232 1.390 . S
C1233 C1234 1.394 . S
C1233 C1239 1.465 . S
C1234 C1229 1.399 . S
C1234 C1233 1.394 . S
C1234 C1235 1.516 . S
C1235 C1234 1.516 . S
C1235 C1236 1.502 . S
C1235 C1237 1.561 . S
C1235 C1238 1.526 . S
C1236 H1220 0.959 . S
C1236 H1221 0.959 . S
C1236 H1222 0.961 . S
C1236 C1235 1.502 . S
C1237 H1223 0.960 . S
C1237 H1224 0.961 . S
C1237 H1225 0.959 . S
C1237 C1235 1.561 . S
C1238 C1235 1.526 . S
C1238 C1239 1.396 . S
C1238 C1243 1.390 . S
C1239 C1233 1.465 . S
C1239 C1238 1.396 . S
C1239 C1240 1.399 . S
C1240 H1226 0.929 . S
C1240 C1239 1.399 . S
C1240 C1241 1.385 . S
C1241 H1227 0.931 . S
C1241 C1240 1.385 . S
C1241 C1242 1.389 . S
C1242 C1241 1.389 . S
C1242 C1243 1.387 . S
C1243 H1228 0.930 . S
C1243 C1238 1.390 . S
C1243 C1242 1.387 . S
H1244 C1256 0.930 . S
H1245 C1258 0.930 . S
H1246 C1259 0.930 . S
H1247 C1263 0.959 . S
H1248 C1263 0.959 . S
H1249 C1263 0.961 . S
H1250 C1264 0.960 . S
H1251 C1264 0.961 . S
H1252 C1264 0.959 . S
H1253 C1267 0.929 . S
H1254 C1268 0.931 . S
H1255 C1270 0.930 . S
C1256 H1244 0.930 . S
C1256 C1257 1.399 . S
C1256 C1261 1.399 . S
C1257 C1256 1.399 . S
C1257 C1258 1.376 . S
C1258 H1245 0.930 . S
C1258 C1257 1.376 . S
C1258 C1259 1.388 . S
C1259 H1246 0.930 . S
C1259 C1258 1.388 . S
C1259 C1260 1.390 . S
C1260 C1259 1.390 . S
C1260 C1261 1.394 . S
C1260 C1266 1.465 . S
C1261 C1256 1.399 . S
C1261 C1260 1.394 . S
C1261 C1262 1.516 . S
C1262 C1261 1.516 . S
C1262 C1263 1.502 . S
C1262 C1264 1.561 . S
C1262 C1265 1.526 . S
C1263 H1247 0.959 . S
C1263 H1248 0.959 . S
C1263 H1249 0.961 . S
C1263 C1262 1.502 . S
C1264 H1250 0.960 . S
C1264 H1251 0.961 . S
C1264 H1252 0.959 . S
C1264 C1262 1.561 . S
C1265 C1262 1.526 . S
C1265 C1266 1.396 . S
C1265 C1270 1.390 . S
C1266 C1260 1.465 . S
C1266 C1265 1.396 . S
C1266 C1267 1.399 . S
C1267 H1253 0.929 . S
C1267 C1266 1.399 . S
C1267 C1268 1.385 . S
C1268 H1254 0.931 . S
C1268 C1267 1.385 . S
C1268 C1269 1.389 . S
C1269 C1268 1.389 . S
C1269 C1270 1.387 . S
C1270 H1255 0.930 . S
C1270 C1265 1.390 . S
C1270 C1269 1.387 . S
H1271 C1283 0.930 . S
H1272 C1285 0.930 . S
H1273 C1286 0.930 . S
H1274 C1290 0.959 . S
H1275 C1290 0.959 . S
H1276 C1290 0.961 . S
H1277 C1291 0.960 . S
H1278 C1291 0.961 . S
H1279 C1291 0.959 . S
H1280 C1294 0.929 . S
H1281 C1295 0.931 . S
H1282 C1297 0.930 . S
C1283 H1271 0.930 . S
C1283 C1284 1.399 . S
C1283 C1288 1.399 . S
C1284 C1283 1.399 . S
C1284 C1285 1.376 . S
C1285 H1272 0.930 . S
C1285 C1284 1.376 . S
C1285 C1286 1.388 . S
C1286 H1273 0.930 . S
C1286 C1285 1.388 . S
C1286 C1287 1.390 . S
C1287 C1286 1.390 . S
C1287 C1288 1.394 . S
C1287 C1293 1.465 . S
C1288 C1283 1.399 . S
C1288 C1287 1.394 . S
C1288 C1289 1.516 . S
C1289 C1288 1.516 . S
C1289 C1290 1.502 . S
C1289 C1291 1.561 . S
C1289 C1292 1.526 . S
C1290 H1274 0.959 . S
C1290 H1275 0.959 . S
C1290 H1276 0.961 . S
C1290 C1289 1.502 . S
C1291 H1277 0.960 . S
C1291 H1278 0.961 . S
C1291 H1279 0.959 . S
C1291 C1289 1.561 . S
C1292 C1289 1.526 . S
C1292 C1293 1.396 . S
C1292 C1297 1.390 . S
C1293 C1287 1.465 . S
C1293 C1292 1.396 . S
C1293 C1294 1.399 . S
C1294 H1280 0.929 . S
C1294 C1293 1.399 . S
C1294 C1295 1.385 . S
C1295 H1281 0.931 . S
C1295 C1294 1.385 . S
C1295 C1296 1.389 . S
C1296 C1295 1.389 . S
C1296 C1297 1.387 . S
C1297 H1282 0.930 . S
C1297 C1292 1.390 . S
C1297 C1296 1.387 . S
H1298 C1310 0.930 . S
H1299 C1312 0.930 . S
H1300 C1313 0.930 . S
H1301 C1317 0.959 . S
H1302 C1317 0.959 . S
H1303 C1317 0.961 . S
H1304 C1318 0.960 . S
H1305 C1318 0.961 . S
H1306 C1318 0.959 . S
H1307 C1321 0.929 . S
H1308 C1322 0.931 . S
H1309 C1324 0.930 . S
C1310 H1298 0.930 . S
C1310 C1311 1.399 . S
C1310 C1315 1.399 . S
C1311 C1310 1.399 . S
C1311 C1312 1.376 . S
C1312 H1299 0.930 . S
C1312 C1311 1.376 . S
C1312 C1313 1.388 . S
C1313 H1300 0.930 . S
C1313 C1312 1.388 . S
C1313 C1314 1.390 . S
C1314 C1313 1.390 . S
C1314 C1315 1.394 . S
C1314 C1320 1.465 . S
C1315 C1310 1.399 . S
C1315 C1314 1.394 . S
C1315 C1316 1.516 . S
C1316 C1315 1.516 . S
C1316 C1317 1.502 . S
C1316 C1318 1.561 . S
C1316 C1319 1.526 . S
C1317 H1301 0.959 . S
C1317 H1302 0.959 . S
C1317 H1303 0.961 . S
C1317 C1316 1.502 . S
C1318 H1304 0.960 . S
C1318 H1305 0.961 . S
C1318 H1306 0.959 . S
C1318 C1316 1.561 . S
C1319 C1316 1.526 . S
C1319 C1320 1.396 . S
C1319 C1324 1.390 . S
C1320 C1314 1.465 . S
C1320 C1319 1.396 . S
C1320 C1321 1.399 . S
C1321 H1307 0.929 . S
C1321 C1320 1.399 . S
C1321 C1322 1.385 . S
C1322 H1308 0.931 . S
C1322 C1321 1.385 . S
C1322 C1323 1.389 . S
C1323 C1322 1.389 . S
C1323 C1324 1.387 . S
C1324 H1309 0.930 . S
C1324 C1319 1.390 . S
C1324 C1323 1.387 . S
H1325 C1337 0.930 . S
H1326 C1339 0.930 . S
H1327 C1340 0.930 . S
H1328 C1344 0.959 . S
H1329 C1344 0.959 . S
H1330 C1344 0.961 . S
H1331 C1345 0.960 . S
H1332 C1345 0.961 . S
H1333 C1345 0.959 . S
H1334 C1348 0.929 . S
H1335 C1349 0.931 . S
H1336 C1351 0.930 . S
C1337 H1325 0.930 . S
C1337 C1338 1.399 . S
C1337 C1342 1.399 . S
C1338 C1337 1.399 . S
C1338 C1339 1.376 . S
C1339 H1326 0.930 . S
C1339 C1338 1.376 . S
C1339 C1340 1.388 . S
C1340 H1327 0.930 . S
C1340 C1339 1.388 . S
C1340 C1341 1.390 . S
C1341 C1340 1.390 . S
C1341 C1342 1.394 . S
C1341 C1347 1.465 . S
C1342 C1337 1.399 . S
C1342 C1341 1.394 . S
C1342 C1343 1.516 . S
C1343 C1342 1.516 . S
C1343 C1344 1.502 . S
C1343 C1345 1.561 . S
C1343 C1346 1.526 . S
C1344 H1328 0.959 . S
C1344 H1329 0.959 . S
C1344 H1330 0.961 . S
C1344 C1343 1.502 . S
C1345 H1331 0.960 . S
C1345 H1332 0.961 . S
C1345 H1333 0.959 . S
C1345 C1343 1.561 . S
C1346 C1343 1.526 . S
C1346 C1347 1.396 . S
C1346 C1351 1.390 . S
C1347 C1341 1.465 . S
C1347 C1346 1.396 . S
C1347 C1348 1.399 . S
C1348 H1334 0.929 . S
C1348 C1347 1.399 . S
C1348 C1349 1.385 . S
C1349 H1335 0.931 . S
C1349 C1348 1.385 . S
C1349 C1350 1.389 . S
C1350 C1349 1.389 . S
C1350 C1351 1.387 . S
C1351 H1336 0.930 . S
C1351 C1346 1.390 . S
C1351 C1350 1.387 . S
H1352 C1364 0.930 . S
H1353 C1366 0.930 . S
H1354 C1367 0.930 . S
H1355 C1371 0.959 . S
H1356 C1371 0.959 . S
H1357 C1371 0.961 . S
H1358 C1372 0.960 . S
H1359 C1372 0.961 . S
H1360 C1372 0.959 . S
H1361 C1375 0.929 . S
H1362 C1376 0.931 . S
H1363 C1378 0.930 . S
C1364 H1352 0.930 . S
C1364 C1365 1.399 . S
C1364 C1369 1.399 . S
C1365 C1364 1.399 . S
C1365 C1366 1.376 . S
C1366 H1353 0.930 . S
C1366 C1365 1.376 . S
C1366 C1367 1.388 . S
C1367 H1354 0.930 . S
C1367 C1366 1.388 . S
C1367 C1368 1.390 . S
C1368 C1367 1.390 . S
C1368 C1369 1.394 . S
C1368 C1374 1.465 . S
C1369 C1364 1.399 . S
C1369 C1368 1.394 . S
C1369 C1370 1.516 . S
C1370 C1369 1.516 . S
C1370 C1371 1.502 . S
C1370 C1372 1.561 . S
C1370 C1373 1.526 . S
C1371 H1355 0.959 . S
C1371 H1356 0.959 . S
C1371 H1357 0.961 . S
C1371 C1370 1.502 . S
C1372 H1358 0.960 . S
C1372 H1359 0.961 . S
C1372 H1360 0.959 . S
C1372 C1370 1.561 . S
C1373 C1370 1.526 . S
C1373 C1374 1.396 . S
C1373 C1378 1.390 . S
C1374 C1368 1.465 . S
C1374 C1373 1.396 . S
C1374 C1375 1.399 . S
C1375 H1361 0.929 . S
C1375 C1374 1.399 . S
C1375 C1376 1.385 . S
C1376 H1362 0.931 . S
C1376 C1375 1.385 . S
C1376 C1377 1.389 . S
C1377 C1376 1.389 . S
C1377 C1378 1.387 . S
C1378 H1363 0.930 . S
C1378 C1373 1.390 . S
C1378 C1377 1.387 . S
H1379 C1391 0.930 . S
H1380 C1393 0.930 . S
H1381 C1394 0.930 . S
H1382 C1398 0.959 . S
H1383 C1398 0.959 . S
H1384 C1398 0.961 . S
H1385 C1399 0.960 . S
H1386 C1399 0.961 . S
H1387 C1399 0.959 . S
H1388 C1402 0.929 . S
H1389 C1403 0.931 . S
H1390 C1405 0.930 . S
C1391 H1379 0.930 . S
C1391 C1392 1.399 . S
C1391 C1396 1.399 . S
C1392 C1391 1.399 . S
C1392 C1393 1.376 . S
C1393 H1380 0.930 . S
C1393 C1392 1.376 . S
C1393 C1394 1.388 . S
C1394 H1381 0.930 . S
C1394 C1393 1.388 . S
C1394 C1395 1.390 . S
C1395 C1394 1.390 . S
C1395 C1396 1.394 . S
C1395 C1401 1.465 . S
C1396 C1391 1.399 . S
C1396 C1395 1.394 . S
C1396 C1397 1.516 . S
C1397 C1396 1.516 . S
C1397 C1398 1.502 . S
C1397 C1399 1.561 . S
C1397 C1400 1.526 . S
C1398 H1382 0.959 . S
C1398 H1383 0.959 . S
C1398 H1384 0.961 . S
C1398 C1397 1.502 . S
C1399 H1385 0.960 . S
C1399 H1386 0.961 . S
C1399 H1387 0.959 . S
C1399 C1397 1.561 . S
C1400 C1397 1.526 . S
C1400 C1401 1.396 . S
C1400 C1405 1.390 . S
C1401 C1395 1.465 . S
C1401 C1400 1.396 . S
C1401 C1402 1.399 . S
C1402 H1388 0.929 . S
C1402 C1401 1.399 . S
C1402 C1403 1.385 . S
C1403 H1389 0.931 . S
C1403 C1402 1.385 . S
C1403 C1404 1.389 . S
C1404 C1403 1.389 . S
C1404 C1405 1.387 . S
C1405 H1390 0.930 . S
C1405 C1400 1.390 . S
C1405 C1404 1.387 . S
H1406 C1418 0.930 . S
H1407 C1420 0.930 . S
H1408 C1421 0.930 . S
H1409 C1425 0.959 . S
H1410 C1425 0.959 . S
H1411 C1425 0.961 . S
H1412 C1426 0.960 . S
H1413 C1426 0.961 . S
H1414 C1426 0.959 . S
H1415 C1429 0.929 . S
H1416 C1430 0.931 . S
H1417 C1432 0.930 . S
C1418 H1406 0.930 . S
C1418 C1419 1.399 . S
C1418 C1423 1.399 . S
C1419 C1418 1.399 . S
C1419 C1420 1.376 . S
C1420 H1407 0.930 . S
C1420 C1419 1.376 . S
C1420 C1421 1.388 . S
C1421 H1408 0.930 . S
C1421 C1420 1.388 . S
C1421 C1422 1.390 . S
C1422 C1421 1.390 . S
C1422 C1423 1.394 . S
C1422 C1428 1.465 . S
C1423 C1418 1.399 . S
C1423 C1422 1.394 . S
C1423 C1424 1.516 . S
C1424 C1423 1.516 . S
C1424 C1425 1.502 . S
C1424 C1426 1.561 . S
C1424 C1427 1.526 . S
C1425 H1409 0.959 . S
C1425 H1410 0.959 . S
C1425 H1411 0.961 . S
C1425 C1424 1.502 . S
C1426 H1412 0.960 . S
C1426 H1413 0.961 . S
C1426 H1414 0.959 . S
C1426 C1424 1.561 . S
C1427 C1424 1.526 . S
C1427 C1428 1.396 . S
C1427 C1432 1.390 . S
C1428 C1422 1.465 . S
C1428 C1427 1.396 . S
C1428 C1429 1.399 . S
C1429 H1415 0.929 . S
C1429 C1428 1.399 . S
C1429 C1430 1.385 . S
C1430 H1416 0.931 . S
C1430 C1429 1.385 . S
C1430 C1431 1.389 . S
C1431 C1430 1.389 . S
C1431 C1432 1.387 . S
C1432 H1417 0.930 . S
C1432 C1427 1.390 . S
C1432 C1431 1.387 . S
H1433 C1445 0.930 . S
H1434 C1447 0.930 . S
H1435 C1448 0.930 . S
H1436 C1452 0.959 . S
H1437 C1452 0.959 . S
H1438 C1452 0.961 . S
H1439 C1453 0.960 . S
H1440 C1453 0.961 . S
H1441 C1453 0.959 . S
H1442 C1456 0.929 . S
H1443 C1457 0.931 . S
H1444 C1459 0.930 . S
C1445 H1433 0.930 . S
C1445 C1446 1.399 . S
C1445 C1450 1.399 . S
C1446 C1445 1.399 . S
C1446 C1447 1.376 . S
C1447 H1434 0.930 . S
C1447 C1446 1.376 . S
C1447 C1448 1.388 . S
C1448 H1435 0.930 . S
C1448 C1447 1.388 . S
C1448 C1449 1.390 . S
C1449 C1448 1.390 . S
C1449 C1450 1.394 . S
C1449 C1455 1.465 . S
C1450 C1445 1.399 . S
C1450 C1449 1.394 . S
C1450 C1451 1.516 . S
C1451 C1450 1.516 . S
C1451 C1452 1.502 . S
C1451 C1453 1.561 . S
C1451 C1454 1.526 . S
C1452 H1436 0.959 . S
C1452 H1437 0.959 . S
C1452 H1438 0.961 . S
C1452 C1451 1.502 . S
C1453 H1439 0.960 . S
C1453 H1440 0.961 . S
C1453 H1441 0.959 . S
C1453 C1451 1.561 . S
C1454 C1451 1.526 . S
C1454 C1455 1.396 . S
C1454 C1459 1.390 . S
C1455 C1449 1.465 . S
C1455 C1454 1.396 . S
C1455 C1456 1.399 . S
C1456 H1442 0.929 . S
C1456 C1455 1.399 . S
C1456 C1457 1.385 . S
C1457 H1443 0.931 . S
C1457 C1456 1.385 . S
C1457 C1458 1.389 . S
C1458 C1457 1.389 . S
C1458 C1459 1.387 . S
C1459 H1444 0.930 . S
C1459 C1454 1.390 . S
C1459 C1458 1.387 . S
H1460 C1472 0.930 . S
H1461 C1474 0.930 . S
H1462 C1475 0.930 . S
H1463 C1479 0.959 . S
H1464 C1479 0.959 . S
H1465 C1479 0.961 . S
H1466 C1480 0.960 . S
H1467 C1480 0.961 . S
H1468 C1480 0.959 . S
H1469 C1483 0.929 . S
H1470 C1484 0.931 . S
H1471 C1486 0.930 . S
C1472 H1460 0.930 . S
C1472 C1473 1.399 . S
C1472 C1477 1.399 . S
C1473 C1472 1.399 . S
C1473 C1474 1.376 . S
C1474 H1461 0.930 . S
C1474 C1473 1.376 . S
C1474 C1475 1.388 . S
C1475 H1462 0.930 . S
C1475 C1474 1.388 . S
C1475 C1476 1.390 . S
C1476 C1475 1.390 . S
C1476 C1477 1.394 . S
C1476 C1482 1.465 . S
C1477 C1472 1.399 . S
C1477 C1476 1.394 . S
C1477 C1478 1.516 . S
C1478 C1477 1.516 . S
C1478 C1479 1.502 . S
C1478 C1480 1.561 . S
C1478 C1481 1.526 . S
C1479 H1463 0.959 . S
C1479 H1464 0.959 . S
C1479 H1465 0.961 . S
C1479 C1478 1.502 . S
C1480 H1466 0.960 . S
C1480 H1467 0.961 . S
C1480 H1468 0.959 . S
C1480 C1478 1.561 . S
C1481 C1478 1.526 . S
C1481 C1482 1.396 . S
C1481 C1486 1.390 . S
C1482 C1476 1.465 . S
C1482 C1481 1.396 . S
C1482 C1483 1.399 . S
C1483 H1469 0.929 . S
C1483 C1482 1.399 . S
C1483 C1484 1.385 . S
C1484 H1470 0.931 . S
C1484 C1483 1.385 . S
C1484 C1485 1.389 . S
C1485 C1484 1.389 . S
C1485 C1486 1.387 . S
C1486 H1471 0.930 . S
C1486 C1481 1.390 . S
C1486 C1485 1.387 . S
H1487 C1499 0.930 . S
H1488 C1501 0.930 . S
H1489 C1502 0.930 . S
H1490 C1506 0.959 . S
H1491 C1506 0.959 . S
H1492 C1506 0.961 . S
H1493 C1507 0.960 . S
H1494 C1507 0.961 . S
H1495 C1507 0.959 . S
H1496 C1510 0.929 . S
H1497 C1511 0.931 . S
H1498 C1513 0.930 . S
C1499 H1487 0.930 . S
C1499 C1500 1.399 . S
C1499 C1504 1.399 . S
C1500 C1499 1.399 . S
C1500 C1501 1.376 . S
C1501 H1488 0.930 . S
C1501 C1500 1.376 . S
C1501 C1502 1.388 . S
C1502 H1489 0.930 . S
C1502 C1501 1.388 . S
C1502 C1503 1.390 . S
C1503 C1502 1.390 . S
C1503 C1504 1.394 . S
C1503 C1509 1.465 . S
C1504 C1499 1.399 . S
C1504 C1503 1.394 . S
C1504 C1505 1.516 . S
C1505 C1504 1.516 . S
C1505 C1506 1.502 . S
C1505 C1507 1.561 . S
C1505 C1508 1.526 . S
C1506 H1490 0.959 . S
C1506 H1491 0.959 . S
C1506 H1492 0.961 . S
C1506 C1505 1.502 . S
C1507 H1493 0.960 . S
C1507 H1494 0.961 . S
C1507 H1495 0.959 . S
C1507 C1505 1.561 . S
C1508 C1505 1.526 . S
C1508 C1509 1.396 . S
C1508 C1513 1.390 . S
C1509 C1503 1.465 . S
C1509 C1508 1.396 . S
C1509 C1510 1.399 . S
C1510 H1496 0.929 . S
C1510 C1509 1.399 . S
C1510 C1511 1.385 . S
C1511 H1497 0.931 . S
C1511 C1510 1.385 . S
C1511 C1512 1.389 . S
C1512 C1511 1.389 . S
C1512 C1513 1.387 . S
C1513 H1498 0.930 . S
C1513 C1508 1.390 . S
C1513 C1512 1.387 . S
H1514 C1526 0.930 . S
H1515 C1528 0.930 . S
H1516 C1529 0.930 . S
H1517 C1533 0.959 . S
H1518 C1533 0.959 . S
H1519 C1533 0.961 . S
H1520 C1534 0.960 . S
H1521 C1534 0.961 . S
H1522 C1534 0.959 . S
H1523 C1537 0.929 . S
H1524 C1538 0.931 . S
H1525 C1540 0.930 . S
C1526 H1514 0.930 . S
C1526 C1527 1.399 . S
C1526 C1531 1.399 . S
C1527 C1526 1.399 . S
C1527 C1528 1.376 . S
C1528 H1515 0.930 . S
C1528 C1527 1.376 . S
C1528 C1529 1.388 . S
C1529 H1516 0.930 . S
C1529 C1528 1.388 . S
C1529 C1530 1.390 . S
C1530 C1529 1.390 . S
C1530 C1531 1.394 . S
C1530 C1536 1.465 . S
C1531 C1526 1.399 . S
C1531 C1530 1.394 . S
C1531 C1532 1.516 . S
C1532 C1531 1.516 . S
C1532 C1533 1.502 . S
C1532 C1534 1.561 . S
C1532 C1535 1.526 . S
C1533 H1517 0.959 . S
C1533 H1518 0.959 . S
C1533 H1519 0.961 . S
C1533 C1532 1.502 . S
C1534 H1520 0.960 . S
C1534 H1521 0.961 . S
C1534 H1522 0.959 . S
C1534 C1532 1.561 . S
C1535 C1532 1.526 . S
C1535 C1536 1.396 . S
C1535 C1540 1.390 . S
C1536 C1530 1.465 . S
C1536 C1535 1.396 . S
C1536 C1537 1.399 . S
C1537 H1523 0.929 . S
C1537 C1536 1.399 . S
C1537 C1538 1.385 . S
C1538 H1524 0.931 . S
C1538 C1537 1.385 . S
C1538 C1539 1.389 . S
C1539 C1538 1.389 . S
C1539 C1540 1.387 . S
C1540 H1525 0.930 . S
C1540 C1535 1.390 . S
C1540 C1539 1.387 . S
H1541 C1553 0.930 . S
H1542 C1555 0.930 . S
H1543 C1556 0.930 . S
H1544 C1560 0.959 . S
H1545 C1560 0.959 . S
H1546 C1560 0.961 . S
H1547 C1561 0.960 . S
H1548 C1561 0.961 . S
H1549 C1561 0.959 . S
H1550 C1564 0.929 . S
H1551 C1565 0.931 . S
H1552 C1567 0.930 . S
C1553 H1541 0.930 . S
C1553 C1554 1.399 . S
C1553 C1558 1.399 . S
C1554 C1553 1.399 . S
C1554 C1555 1.376 . S
C1555 H1542 0.930 . S
C1555 C1554 1.376 . S
C1555 C1556 1.388 . S
C1556 H1543 0.930 . S
C1556 C1555 1.388 . S
C1556 C1557 1.390 . S
C1557 C1556 1.390 . S
C1557 C1558 1.394 . S
C1557 C1563 1.465 . S
C1558 C1553 1.399 . S
C1558 C1557 1.394 . S
C1558 C1559 1.516 . S
C1559 C1558 1.516 . S
C1559 C1560 1.502 . S
C1559 C1561 1.561 . S
C1559 C1562 1.526 . S
C1560 H1544 0.959 . S
C1560 H1545 0.959 . S
C1560 H1546 0.961 . S
C1560 C1559 1.502 . S
C1561 H1547 0.960 . S
C1561 H1548 0.961 . S
C1561 H1549 0.959 . S
C1561 C1559 1.561 . S
C1562 C1559 1.526 . S
C1562 C1563 1.396 . S
C1562 C1567 1.390 . S
C1563 C1557 1.465 . S
C1563 C1562 1.396 . S
C1563 C1564 1.399 . S
C1564 H1550 0.929 . S
C1564 C1563 1.399 . S
C1564 C1565 1.385 . S
C1565 H1551 0.931 . S
C1565 C1564 1.385 . S
C1565 C1566 1.389 . S
C1566 C1565 1.389 . S
C1566 C1567 1.387 . S
C1567 H1552 0.930 . S
C1567 C1562 1.390 . S
C1567 C1566 1.387 . S
H1568 C1580 0.930 . S
H1569 C1582 0.930 . S
H1570 C1583 0.930 . S
H1571 C1587 0.959 . S
H1572 C1587 0.959 . S
H1573 C1587 0.961 . S
H1574 C1588 0.960 . S
H1575 C1588 0.961 . S
H1576 C1588 0.959 . S
H1577 C1591 0.929 . S
H1578 C1592 0.931 . S
H1579 C1594 0.930 . S
C1580 H1568 0.930 . S
C1580 C1581 1.399 . S
C1580 C1585 1.399 . S
C1581 C1580 1.399 . S
C1581 C1582 1.376 . S
C1582 H1569 0.930 . S
C1582 C1581 1.376 . S
C1582 C1583 1.388 . S
C1583 H1570 0.930 . S
C1583 C1582 1.388 . S
C1583 C1584 1.390 . S
C1584 C1583 1.390 . S
C1584 C1585 1.394 . S
C1584 C1590 1.465 . S
C1585 C1580 1.399 . S
C1585 C1584 1.394 . S
C1585 C1586 1.516 . S
C1586 C1585 1.516 . S
C1586 C1587 1.502 . S
C1586 C1588 1.561 . S
C1586 C1589 1.526 . S
C1587 H1571 0.959 . S
C1587 H1572 0.959 . S
C1587 H1573 0.961 . S
C1587 C1586 1.502 . S
C1588 H1574 0.960 . S
C1588 H1575 0.961 . S
C1588 H1576 0.959 . S
C1588 C1586 1.561 . S
C1589 C1586 1.526 . S
C1589 C1590 1.396 . S
C1589 C1594 1.390 . S
C1590 C1584 1.465 . S
C1590 C1589 1.396 . S
C1590 C1591 1.399 . S
C1591 H1577 0.929 . S
C1591 C1590 1.399 . S
C1591 C1592 1.385 . S
C1592 H1578 0.931 . S
C1592 C1591 1.385 . S
C1592 C1593 1.389 . S
C1593 C1592 1.389 . S
C1593 C1594 1.387 . S
C1594 H1579 0.930 . S
C1594 C1589 1.390 . S
C1594 C1593 1.387 . S
H1595 C1607 0.930 . S
H1596 C1609 0.930 . S
H1597 C1610 0.930 . S
H1598 C1614 0.959 . S
H1599 C1614 0.959 . S
H1600 C1614 0.961 . S
H1601 C1615 0.960 . S
H1602 C1615 0.961 . S
H1603 C1615 0.959 . S
H1604 C1618 0.929 . S
H1605 C1619 0.931 . S
H1606 C1621 0.930 . S
C1607 H1595 0.930 . S
C1607 C1608 1.399 . S
C1607 C1612 1.399 . S
C1608 C1607 1.399 . S
C1608 C1609 1.376 . S
C1609 H1596 0.930 . S
C1609 C1608 1.376 . S
C1609 C1610 1.388 . S
C1610 H1597 0.930 . S
C1610 C1609 1.388 . S
C1610 C1611 1.390 . S
C1611 C1610 1.390 . S
C1611 C1612 1.394 . S
C1611 C1617 1.465 . S
C1612 C1607 1.399 . S
C1612 C1611 1.394 . S
C1612 C1613 1.516 . S
C1613 C1612 1.516 . S
C1613 C1614 1.502 . S
C1613 C1615 1.561 . S
C1613 C1616 1.526 . S
C1614 H1598 0.959 . S
C1614 H1599 0.959 . S
C1614 H1600 0.961 . S
C1614 C1613 1.502 . S
C1615 H1601 0.960 . S
C1615 H1602 0.961 . S
C1615 H1603 0.959 . S
C1615 C1613 1.561 . S
C1616 C1613 1.526 . S
C1616 C1617 1.396 . S
C1616 C1621 1.390 . S
C1617 C1611 1.465 . S
C1617 C1616 1.396 . S
C1617 C1618 1.399 . S
C1618 H1604 0.929 . S
C1618 C1617 1.399 . S
C1618 C1619 1.385 . S
C1619 H1605 0.931 . S
C1619 C1618 1.385 . S
C1619 C1620 1.389 . S
C1620 C1619 1.389 . S
C1620 C1621 1.387 . S
C1621 H1606 0.930 . S
C1621 C1616 1.390 . S
C1621 C1620 1.387 . S
H1622 C1634 0.930 . S
H1623 C1636 0.930 . S
H1624 C1637 0.930 . S
H1625 C1641 0.959 . S
H1626 C1641 0.959 . S
H1627 C1641 0.961 . S
H1628 C1642 0.960 . S
H1629 C1642 0.961 . S
H1630 C1642 0.959 . S
H1631 C1645 0.929 . S
H1632 C1646 0.931 . S
H1633 C1648 0.930 . S
C1634 H1622 0.930 . S
C1634 C1635 1.399 . S
C1634 C1639 1.399 . S
C1635 C1634 1.399 . S
C1635 C1636 1.376 . S
C1636 H1623 0.930 . S
C1636 C1635 1.376 . S
C1636 C1637 1.388 . S
C1637 H1624 0.930 . S
C1637 C1636 1.388 . S
C1637 C1638 1.390 . S
C1638 C1637 1.390 . S
C1638 C1639 1.394 . S
C1638 C1644 1.465 . S
C1639 C1634 1.399 . S
C1639 C1638 1.394 . S
C1639 C1640 1.516 . S
C1640 C1639 1.516 . S
C1640 C1641 1.502 . S
C1640 C1642 1.561 . S
C1640 C1643 1.526 . S
C1641 H1625 0.959 . S
C1641 H1626 0.959 . S
C1641 H1627 0.961 . S
C1641 C1640 1.502 . S
C1642 H1628 0.960 . S
C1642 H1629 0.961 . S
C1642 H1630 0.959 . S
C1642 C1640 1.561 . S
C1643 C1640 1.526 . S
C1643 C1644 1.396 . S
C1643 C1648 1.390 . S
C1644 C1638 1.465 . S
C1644 C1643 1.396 . S
C1644 C1645 1.399 . S
C1645 H1631 0.929 . S
C1645 C1644 1.399 . S
C1645 C1646 1.385 . S
C1646 H1632 0.931 . S
C1646 C1645 1.385 . S
C1646 C1647 1.389 . S
C1647 C1646 1.389 . S
C1647 C1648 1.387 . S
C1648 H1633 0.930 . S
C1648 C1643 1.390 . S
C1648 C1647 1.387 . S
H1649 C1661 0.930 . S
H1650 C1663 0.930 . S
H1651 C1664 0.930 . S
H1652 C1668 0.959 . S
H1653 C1668 0.959 . S
H1654 C1668 0.961 . S
H1655 C1669 0.960 . S
H1656 C1669 0.961 . S
H1657 C1669 0.959 . S
H1658 C1672 0.929 . S
H1659 C1673 0.931 . S
H1660 C1675 0.930 . S
C1661 H1649 0.930 . S
C1661 C1662 1.399 . S
C1661 C1666 1.399 . S
C1662 C1661 1.399 . S
C1662 C1663 1.376 . S
C1663 H1650 0.930 . S
C1663 C1662 1.376 . S
C1663 C1664 1.388 . S
C1664 H1651 0.930 . S
C1664 C1663 1.388 . S
C1664 C1665 1.390 . S
C1665 C1664 1.390 . S
C1665 C1666 1.394 . S
C1665 C1671 1.465 . S
C1666 C1661 1.399 . S
C1666 C1665 1.394 . S
C1666 C1667 1.516 . S
C1667 C1666 1.516 . S
C1667 C1668 1.502 . S
C1667 C1669 1.561 . S
C1667 C1670 1.526 . S
C1668 H1652 0.959 . S
C1668 H1653 0.959 . S
C1668 H1654 0.961 . S
C1668 C1667 1.502 . S
C1669 H1655 0.960 . S
C1669 H1656 0.961 . S
C1669 H1657 0.959 . S
C1669 C1667 1.561 . S
C1670 C1667 1.526 . S
C1670 C1671 1.396 . S
C1670 C1675 1.390 . S
C1671 C1665 1.465 . S
C1671 C1670 1.396 . S
C1671 C1672 1.399 . S
C1672 H1658 0.929 . S
C1672 C1671 1.399 . S
C1672 C1673 1.385 . S
C1673 H1659 0.931 . S
C1673 C1672 1.385 . S
C1673 C1674 1.389 . S
C1674 C1673 1.389 . S
C1674 C1675 1.387 . S
C1675 H1660 0.930 . S
C1675 C1670 1.390 . S
C1675 C1674 1.387 . S
H1676 C1688 0.930 . S
H1677 C1690 0.930 . S
H1678 C1691 0.930 . S
H1679 C1695 0.959 . S
H1680 C1695 0.959 . S
H1681 C1695 0.961 . S
H1682 C1696 0.960 . S
H1683 C1696 0.961 . S
H1684 C1696 0.959 . S
H1685 C1699 0.929 . S
H1686 C1700 0.931 . S
H1687 C1702 0.930 . S
C1688 H1676 0.930 . S
C1688 C1689 1.399 . S
C1688 C1693 1.399 . S
C1689 C1688 1.399 . S
C1689 C1690 1.376 . S
C1690 H1677 0.930 . S
C1690 C1689 1.376 . S
C1690 C1691 1.388 . S
C1691 H1678 0.930 . S
C1691 C1690 1.388 . S
C1691 C1692 1.390 . S
C1692 C1691 1.390 . S
C1692 C1693 1.394 . S
C1692 C1698 1.465 . S
C1693 C1688 1.399 . S
C1693 C1692 1.394 . S
C1693 C1694 1.516 . S
C1694 C1693 1.516 . S
C1694 C1695 1.502 . S
C1694 C1696 1.561 . S
C1694 C1697 1.526 . S
C1695 H1679 0.959 . S
C1695 H1680 0.959 . S
C1695 H1681 0.961 . S
C1695 C1694 1.502 . S
C1696 H1682 0.960 . S
C1696 H1683 0.961 . S
C1696 H1684 0.959 . S
C1696 C1694 1.561 . S
C1697 C1694 1.526 . S
C1697 C1698 1.396 . S
C1697 C1702 1.390 . S
C1698 C1692 1.465 . S
C1698 C1697 1.396 . S
C1698 C1699 1.399 . S
C1699 H1685 0.929 . S
C1699 C1698 1.399 . S
C1699 C1700 1.385 . S
C1700 H1686 0.931 . S
C1700 C1699 1.385 . S
C1700 C1701 1.389 . S
C1701 C1700 1.389 . S
C1701 C1702 1.387 . S
C1702 H1687 0.930 . S
C1702 C1697 1.390 . S
C1702 C1701 1.387 . S
H1703 C1715 0.930 . S
H1704 C1717 0.930 . S
H1705 C1718 0.930 . S
H1706 C1722 0.959 . S
H1707 C1722 0.959 . S
H1708 C1722 0.961 . S
H1709 C1723 0.960 . S
H1710 C1723 0.961 . S
H1711 C1723 0.959 . S
H1712 C1726 0.929 . S
H1713 C1727 0.931 . S
H1714 C1729 0.930 . S
C1715 H1703 0.930 . S
C1715 C1716 1.399 . S
C1715 C1720 1.399 . S
C1716 C1715 1.399 . S
C1716 C1717 1.376 . S
C1717 H1704 0.930 . S
C1717 C1716 1.376 . S
C1717 C1718 1.388 . S
C1718 H1705 0.930 . S
C1718 C1717 1.388 . S
C1718 C1719 1.390 . S
C1719 C1718 1.390 . S
C1719 C1720 1.394 . S
C1719 C1725 1.465 . S
C1720 C1715 1.399 . S
C1720 C1719 1.394 . S
C1720 C1721 1.516 . S
C1721 C1720 1.516 . S
C1721 C1722 1.502 . S
C1721 C1723 1.561 . S
C1721 C1724 1.526 . S
C1722 H1706 0.959 . S
C1722 H1707 0.959 . S
C1722 H1708 0.961 . S
C1722 C1721 1.502 . S
C1723 H1709 0.960 . S
C1723 H1710 0.961 . S
C1723 H1711 0.959 . S
C1723 C1721 1.561 . S
C1724 C1721 1.526 . S
C1724 C1725 1.396 . S
C1724 C1729 1.390 . S
C1725 C1719 1.465 . S
C1725 C1724 1.396 . S
C1725 C1726 1.399 . S
C1726 H1712 0.929 . S
C1726 C1725 1.399 . S
C1726 C1727 1.385 . S
C1727 H1713 0.931 . S
C1727 C1726 1.385 . S
C1727 C1728 1.389 . S
C1728 C1727 1.389 . S
C1728 C1729 1.387 . S
C1729 H1714 0.930 . S
C1729 C1724 1.390 . S
C1729 C1728 1.387 . S
H1730 C1742 0.930 . S
H1731 C1744 0.930 . S
H1732 C1745 0.930 . S
H1733 C1749 0.959 . S
H1734 C1749 0.959 . S
H1735 C1749 0.961 . S
H1736 C1750 0.960 . S
H1737 C1750 0.961 . S
H1738 C1750 0.959 . S
H1739 C1753 0.929 . S
H1740 C1754 0.931 . S
H1741 C1756 0.930 . S
C1742 H1730 0.930 . S
C1742 C1743 1.399 . S
C1742 C1747 1.399 . S
C1743 C1742 1.399 . S
C1743 C1744 1.376 . S
C1744 H1731 0.930 . S
C1744 C1743 1.376 . S
C1744 C1745 1.388 . S
C1745 H1732 0.930 . S
C1745 C1744 1.388 . S
C1745 C1746 1.390 . S
C1746 C1745 1.390 . S
C1746 C1747 1.394 . S
C1746 C1752 1.465 . S
C1747 C1742 1.399 . S
C1747 C1746 1.394 . S
C1747 C1748 1.516 . S
C1748 C1747 1.516 . S
C1748 C1749 1.502 . S
C1748 C1750 1.561 . S
C1748 C1751 1.526 . S
C1749 H1733 0.959 . S
C1749 H1734 0.959 . S
C1749 H1735 0.961 . S
C1749 C1748 1.502 . S
C1750 H1736 0.960 . S
C1750 H1737 0.961 . S
C1750 H1738 0.959 . S
C1750 C1748 1.561 . S
C1751 C1748 1.526 . S
C1751 C1752 1.396 . S
C1751 C1756 1.390 . S
C1752 C1746 1.465 . S
C1752 C1751 1.396 . S
C1752 C1753 1.399 . S
C1753 H1739 0.929 . S
C1753 C1752 1.399 . S
C1753 C1754 1.385 . S
C1754 H1740 0.931 . S
C1754 C1753 1.385 . S
C1754 C1755 1.389 . S
C1755 C1754 1.389 . S
C1755 C1756 1.387 . S
C1756 H1741 0.930 . S
C1756 C1751 1.390 . S
C1756 C1755 1.387 . S
H1757 C1769 0.930 . S
H1758 C1771 0.930 . S
H1759 C1772 0.930 . S
H1760 C1776 0.959 . S
H1761 C1776 0.959 . S
H1762 C1776 0.961 . S
H1763 C1777 0.960 . S
H1764 C1777 0.961 . S
H1765 C1777 0.959 . S
H1766 C1780 0.929 . S
H1767 C1781 0.931 . S
H1768 C1783 0.930 . S
C1769 H1757 0.930 . S
C1769 C1770 1.399 . S
C1769 C1774 1.399 . S
C1770 C1769 1.399 . S
C1770 C1771 1.376 . S
C1771 H1758 0.930 . S
C1771 C1770 1.376 . S
C1771 C1772 1.388 . S
C1772 H1759 0.930 . S
C1772 C1771 1.388 . S
C1772 C1773 1.390 . S
C1773 C1772 1.390 . S
C1773 C1774 1.394 . S
C1773 C1779 1.465 . S
C1774 C1769 1.399 . S
C1774 C1773 1.394 . S
C1774 C1775 1.516 . S
C1775 C1774 1.516 . S
C1775 C1776 1.502 . S
C1775 C1777 1.561 . S
C1775 C1778 1.526 . S
C1776 H1760 0.959 . S
C1776 H1761 0.959 . S
C1776 H1762 0.961 . S
C1776 C1775 1.502 . S
C1777 H1763 0.960 . S
C1777 H1764 0.961 . S
C1777 H1765 0.959 . S
C1777 C1775 1.561 . S
C1778 C1775 1.526 . S
C1778 C1779 1.396 . S
C1778 C1783 1.390 . S
C1779 C1773 1.465 . S
C1779 C1778 1.396 . S
C1779 C1780 1.399 . S
C1780 H1766 0.929 . S
C1780 C1779 1.399 . S
C1780 C1781 1.385 . S
C1781 H1767 0.931 . S
C1781 C1780 1.385 . S
C1781 C1782 1.389 . S
C1782 C1781 1.389 . S
C1782 C1783 1.387 . S
C1783 H1768 0.930 . S
C1783 C1778 1.390 . S
C1783 C1782 1.387 . S
H1784 C1796 0.930 . S
H1785 C1798 0.930 . S
H1786 C1799 0.930 . S
H1787 C1803 0.959 . S
H1788 C1803 0.959 . S
H1789 C1803 0.961 . S
H1790 C1804 0.960 . S
H1791 C1804 0.961 . S
H1792 C1804 0.959 . S
H1793 C1807 0.929 . S
H1794 C1808 0.931 . S
H1795 C1810 0.930 . S
C1796 H1784 0.930 . S
C1796 C1797 1.399 . S
C1796 C1801 1.399 . S
C1797 C1796 1.399 . S
C1797 C1798 1.376 . S
C1798 H1785 0.930 . S
C1798 C1797 1.376 . S
C1798 C1799 1.388 . S
C1799 H1786 0.930 . S
C1799 C1798 1.388 . S
C1799 C1800 1.390 . S
C1800 C1799 1.390 . S
C1800 C1801 1.394 . S
C1800 C1806 1.465 . S
C1801 C1796 1.399 . S
C1801 C1800 1.394 . S
C1801 C1802 1.516 . S
C1802 C1801 1.516 . S
C1802 C1803 1.502 . S
C1802 C1804 1.561 . S
C1802 C1805 1.526 . S
C1803 H1787 0.959 . S
C1803 H1788 0.959 . S
C1803 H1789 0.961 . S
C1803 C1802 1.502 . S
C1804 H1790 0.960 . S
C1804 H1791 0.961 . S
C1804 H1792 0.959 . S
C1804 C1802 1.561 . S
C1805 C1802 1.526 . S
C1805 C1806 1.396 . S
C1805 C1810 1.390 . S
C1806 C1800 1.465 . S
C1806 C1805 1.396 . S
C1806 C1807 1.399 . S
C1807 H1793 0.929 . S
C1807 C1806 1.399 . S
C1807 C1808 1.385 . S
C1808 H1794 0.931 . S
C1808 C1807 1.385 . S
C1808 C1809 1.389 . S
C1809 C1808 1.389 . S
C1809 C1810 1.387 . S
C1810 H1795 0.930 . S
C1810 C1805 1.390 . S
C1810 C1809 1.387 . S
H1811 C1823 0.930 . S
H1812 C1825 0.930 . S
H1813 C1826 0.930 . S
H1814 C1830 0.959 . S
H1815 C1830 0.959 . S
H1816 C1830 0.961 . S
H1817 C1831 0.960 . S
H1818 C1831 0.961 . S
H1819 C1831 0.959 . S
H1820 C1834 0.929 . S
H1821 C1835 0.931 . S
H1822 C1837 0.930 . S
C1823 H1811 0.930 . S
C1823 C1824 1.399 . S
C1823 C1828 1.399 . S
C1824 C1823 1.399 . S
C1824 C1825 1.376 . S
C1825 H1812 0.930 . S
C1825 C1824 1.376 . S
C1825 C1826 1.388 . S
C1826 H1813 0.930 . S
C1826 C1825 1.388 . S
C1826 C1827 1.390 . S
C1827 C1826 1.390 . S
C1827 C1828 1.394 . S
C1827 C1833 1.465 . S
C1828 C1823 1.399 . S
C1828 C1827 1.394 . S
C1828 C1829 1.516 . S
C1829 C1828 1.516 . S
C1829 C1830 1.502 . S
C1829 C1831 1.561 . S
C1829 C1832 1.526 . S
C1830 H1814 0.959 . S
C1830 H1815 0.959 . S
C1830 H1816 0.961 . S
C1830 C1829 1.502 . S
C1831 H1817 0.960 . S
C1831 H1818 0.961 . S
C1831 H1819 0.959 . S
C1831 C1829 1.561 . S
C1832 C1829 1.526 . S
C1832 C1833 1.396 . S
C1832 C1837 1.390 . S
C1833 C1827 1.465 . S
C1833 C1832 1.396 . S
C1833 C1834 1.399 . S
C1834 H1820 0.929 . S
C1834 C1833 1.399 . S
C1834 C1835 1.385 . S
C1835 H1821 0.931 . S
C1835 C1834 1.385 . S
C1835 C1836 1.389 . S
C1836 C1835 1.389 . S
C1836 C1837 1.387 . S
C1837 H1822 0.930 . S
C1837 C1832 1.390 . S
C1837 C1836 1.387 . S
H1838 C1850 0.930 . S
H1839 C1852 0.930 . S
H1840 C1853 0.930 . S
H1841 C1857 0.959 . S
H1842 C1857 0.959 . S
H1843 C1857 0.961 . S
H1844 C1858 0.960 . S
H1845 C1858 0.961 . S
H1846 C1858 0.959 . S
H1847 C1861 0.929 . S
H1848 C1862 0.931 . S
H1849 C1864 0.930 . S
C1850 H1838 0.930 . S
C1850 C1851 1.399 . S
C1850 C1855 1.399 . S
C1851 C1850 1.399 . S
C1851 C1852 1.376 . S
C1852 H1839 0.930 . S
C1852 C1851 1.376 . S
C1852 C1853 1.388 . S
C1853 H1840 0.930 . S
C1853 C1852 1.388 . S
C1853 C1854 1.390 . S
C1854 C1853 1.390 . S
C1854 C1855 1.394 . S
C1854 C1860 1.465 . S
C1855 C1850 1.399 . S
C1855 C1854 1.394 . S
C1855 C1856 1.516 . S
C1856 C1855 1.516 . S
C1856 C1857 1.502 . S
C1856 C1858 1.561 . S
C1856 C1859 1.526 . S
C1857 H1841 0.959 . S
C1857 H1842 0.959 . S
C1857 H1843 0.961 . S
C1857 C1856 1.502 . S
C1858 H1844 0.960 . S
C1858 H1845 0.961 . S
C1858 H1846 0.959 . S
C1858 C1856 1.561 . S
C1859 C1856 1.526 . S
C1859 C1860 1.396 . S
C1859 C1864 1.390 . S
C1860 C1854 1.465 . S
C1860 C1859 1.396 . S
C1860 C1861 1.399 . S
C1861 H1847 0.929 . S
C1861 C1860 1.399 . S
C1861 C1862 1.385 . S
C1862 H1848 0.931 . S
C1862 C1861 1.385 . S
C1862 C1863 1.389 . S
C1863 C1862 1.389 . S
C1863 C1864 1.387 . S
C1864 H1849 0.930 . S
C1864 C1859 1.390 . S
C1864 C1863 1.387 . S
H1865 C1877 0.930 . S
H1866 C1879 0.930 . S
H1867 C1880 0.930 . S
H1868 C1884 0.959 . S
H1869 C1884 0.959 . S
H1870 C1884 0.961 . S
H1871 C1885 0.960 . S
H1872 C1885 0.961 . S
H1873 C1885 0.959 . S
H1874 C1888 0.929 . S
H1875 C1889 0.931 . S
H1876 C1891 0.930 . S
C1877 H1865 0.930 . S
C1877 C1878 1.399 . S
C1877 C1882 1.399 . S
C1878 C1877 1.399 . S
C1878 C1879 1.376 . S
C1879 H1866 0.930 . S
C1879 C1878 1.376 . S
C1879 C1880 1.388 . S
C1880 H1867 0.930 . S
C1880 C1879 1.388 . S
C1880 C1881 1.390 . S
C1881 C1880 1.390 . S
C1881 C1882 1.394 . S
C1881 C1887 1.465 . S
C1882 C1877 1.399 . S
C1882 C1881 1.394 . S
C1882 C1883 1.516 . S
C1883 C1882 1.516 . S
C1883 C1884 1.502 . S
C1883 C1885 1.561 . S
C1883 C1886 1.526 . S
C1884 H1868 0.959 . S
C1884 H1869 0.959 . S
C1884 H1870 0.961 . S
C1884 C1883 1.502 . S
C1885 H1871 0.960 . S
C1885 H1872 0.961 . S
C1885 H1873 0.959 . S
C1885 C1883 1.561 . S
C1886 C1883 1.526 . S
C1886 C1887 1.396 . S
C1886 C1891 1.390 . S
C1887 C1881 1.465 . S
C1887 C1886 1.396 . S
C1887 C1888 1.399 . S
C1888 H1874 0.929 . S
C1888 C1887 1.399 . S
C1888 C1889 1.385 . S
C1889 H1875 0.931 . S
C1889 C1888 1.385 . S
C1889 C1890 1.389 . S
C1890 C1889 1.389 . S
C1890 C1891 1.387 . S
C1891 H1876 0.930 . S
C1891 C1886 1.390 . S
C1891 C1890 1.387 . S
C621 C283 1.316 . S
C609 N2 1.292 . S
C648 C326 2.600 . S
C636 C7 2.640 . S
C675 C372 1.755 . S
C663 N12 1.570 . S
C690 C16 1.881 . S
C702 C415 1.878 . S
C729 C455 2.731 . S
C717 C30 2.710 1_565 S
C756 C483 1.458 . S
C744 N35 1.500 . S
C771 C39 2.059 . S
C783 C526 2.019 . S
C810 C572 1.212 . S
C798 N25 1.081 1_565 S
C837 C278 1.234 . S
C825 N58 1.125 . S
C852 N81 1.981 . S
C864 C327 1.941 . S
C891 C366 1.470 . S
C879 N104 1.349 . S
C906 N127 1.174 . S
C918 C403 1.232 . S
C945 C443 0.873 . S
C933 N48 0.903 . S
C972 C478 1.495 . S
C960 N71 1.513 1_556 S
C987 N94 1.361 . S
C999 C527 1.311 . S
C1026 C566 1.889 . S
C1014 N117 1.928 . S
C1041 C85 2.534 . S
C1053 C295 2.440 . S
C1068 C122 2.436 . S
C1080 C438 2.419 . S
C1095 C53 2.112 . S
C1107 C495 1.993 . S
C1134 C532 1.347 . S
C1122 C76 1.449 1_655 S
C1161 C567 1.839 . S
C1149 C99 1.864 . S
C1188 C367 1.953 . S
C1176 C131 1.992 . S
C1215 C398 1.743 . S
C1203 C62 1.742 1_565 S
C1230 C108 1.131 . S
C1242 C332 1.169 . S
C1269 C563 1.420 . S
C1257 N140 1.409 . S
C1284 C145 2.606 . S
C1296 C446 2.614 . S
C1323 C492 1.635 . S
C1311 N150 1.475 . S
C1338 C154 1.818 . S
C1350 C535 1.909 . S
C1377 C335 2.701 . S
C1365 C168 2.713 . S
C1392 N173 1.376 . S
C1404 C363 1.343 . S
C1431 C406 1.996 . S
C1419 C177 2.079 . S
C1458 C292 1.279 . S
C1446 N163 1.129 . S
C1485 C558 1.652 . S
C1473 C200 1.659 . S
C1512 C447 2.241 . S
C1500 N219 2.238 . S
C1527 N242 1.624 . S
C1539 C486 1.700 . S
C1566 C523 1.414 . S
C1554 C269 1.492 . S
C1593 C323 1.167 . S
C1581 C191 1.225 . S
C1608 N209 1.705 . S
C1620 C358 1.807 . S
C1635 N232 1.656 . S
C1647 C407 1.610 . S
C1662 C260 2.465 . S
C1674 C286 2.424 . S
C1689 C223 2.236 . S
C1701 C575 2.145 . S
C1716 N255 2.007 . S
C1728 C318 1.970 . S
C1743 N186 1.616 . S
C1755 C375 1.521 . S
C1782 C412 1.157 . S
C1770 C214 1.118 . S
C1809 C287 1.541 . S
C1797 C237 1.522 . S
C1836 C487 1.575 . S
C1824 N265 1.452 . S
C1863 C518 1.379 . S
C1851 N196 1.384 . S
C1890 C452 0.796 . S
C1878 C246 0.893 . S
