# Generated by pormake.
# Topology myd, (4,6)-cn, num edge types: 1
# Building blocks:
#     Node 0, Type 0, BuildingBlock: KOZSID_clean_sbu_0, # of connection points: 4
#     Node 1, Type 0, BuildingBlock: KOZSID_clean_sbu_0, # of connection points: 4
#     Node 2, Type 0, BuildingBlock: KOZSID_clean_sbu_0, # of connection points: 4
#     Node 3, Type 0, BuildingBlock: KOZSID_clean_sbu_0, # of connection points: 4
#     Node 4, Type 0, BuildingBlock: KOZSID_clean_sbu_0, # of connection points: 4
#     Node 5, Type 0, BuildingBlock: KOZSID_clean_sbu_0, # of connection points: 4
#     Node 6, Type 0, BuildingBlock: KOZSID_clean_sbu_0, # of connection points: 4
#     Node 7, Type 0, BuildingBlock: KOZSID_clean_sbu_0, # of connection points: 4
#     Node 8, Type 0, BuildingBlock: KOZSID_clean_sbu_0, # of connection points: 4
#     Node 9, Type 0, BuildingBlock: KOZSID_clean_sbu_0, # of connection points: 4
#     Node 10, Type 0, BuildingBlock: KOZSID_clean_sbu_0, # of connection points: 4
#     Node 11, Type 0, BuildingBlock: KOZSID_clean_sbu_0, # of connection points: 4
#     Node 12, Type 1, BuildingBlock: JUFBIX_clean_sbu_0, # of connection points: 6
#     Node 13, Type 1, BuildingBlock: JUFBIX_clean_sbu_0, # of connection points: 6
#     Node 14, Type 1, BuildingBlock: JUFBIX_clean_sbu_0, # of connection points: 6
#     Node 15, Type 1, BuildingBlock: JUFBIX_clean_sbu_0, # of connection points: 6
#     Node 16, Type 1, BuildingBlock: JUFBIX_clean_sbu_0, # of connection points: 6
#     Node 17, Type 1, BuildingBlock: JUFBIX_clean_sbu_0, # of connection points: 6
#     Node 18, Type 1, BuildingBlock: JUFBIX_clean_sbu_0, # of connection points: 6
#     Node 19, Type 1, BuildingBlock: JUFBIX_clean_sbu_0, # of connection points: 6
#     Edge 20, Type (0, 1), BuildingBlock: AJUNOK_clean_linker_0, # of connection points: 2
#     Edge 21, Type (0, 1), BuildingBlock: AJUNOK_clean_linker_0, # of connection points: 2
#     Edge 22, Type (0, 1), BuildingBlock: AJUNOK_clean_linker_0, # of connection points: 2
#     Edge 23, Type (0, 1), BuildingBlock: AJUNOK_clean_linker_0, # of connection points: 2
#     Edge 24, Type (0, 1), BuildingBlock: AJUNOK_clean_linker_0, # of connection points: 2
#     Edge 25, Type (0, 1), BuildingBlock: AJUNOK_clean_linker_0, # of connection points: 2
#     Edge 26, Type (0, 1), BuildingBlock: AJUNOK_clean_linker_0, # of connection points: 2
#     Edge 27, Type (0, 1), BuildingBlock: AJUNOK_clean_linker_0, # of connection points: 2
#     Edge 28, Type (0, 1), BuildingBlock: AJUNOK_clean_linker_0, # of connection points: 2
#     Edge 29, Type (0, 1), BuildingBlock: AJUNOK_clean_linker_0, # of connection points: 2
#     Edge 30, Type (0, 1), BuildingBlock: AJUNOK_clean_linker_0, # of connection points: 2
#     Edge 31, Type (0, 1), BuildingBlock: AJUNOK_clean_linker_0, # of connection points: 2
#     Edge 32, Type (0, 1), BuildingBlock: AJUNOK_clean_linker_0, # of connection points: 2
#     Edge 33, Type (0, 1), BuildingBlock: AJUNOK_clean_linker_0, # of connection points: 2
#     Edge 34, Type (0, 1), BuildingBlock: AJUNOK_clean_linker_0, # of connection points: 2
#     Edge 35, Type (0, 1), BuildingBlock: AJUNOK_clean_linker_0, # of connection points: 2
#     Edge 36, Type (0, 1), BuildingBlock: AJUNOK_clean_linker_0, # of connection points: 2
#     Edge 37, Type (0, 1), BuildingBlock: AJUNOK_clean_linker_0, # of connection points: 2
#     Edge 38, Type (0, 1), BuildingBlock: AJUNOK_clean_linker_0, # of connection points: 2
#     Edge 39, Type (0, 1), BuildingBlock: AJUNOK_clean_linker_0, # of connection points: 2
#     Edge 40, Type (0, 1), BuildingBlock: AJUNOK_clean_linker_0, # of connection points: 2
#     Edge 41, Type (0, 1), BuildingBlock: AJUNOK_clean_linker_0, # of connection points: 2
#     Edge 42, Type (0, 1), BuildingBlock: AJUNOK_clean_linker_0, # of connection points: 2
#     Edge 43, Type (0, 1), BuildingBlock: AJUNOK_clean_linker_0, # of connection points: 2
#     Edge 44, Type (0, 1), BuildingBlock: AJUNOK_clean_linker_0, # of connection points: 2
#     Edge 45, Type (0, 1), BuildingBlock: AJUNOK_clean_linker_0, # of connection points: 2
#     Edge 46, Type (0, 1), BuildingBlock: AJUNOK_clean_linker_0, # of connection points: 2
#     Edge 47, Type (0, 1), BuildingBlock: AJUNOK_clean_linker_0, # of connection points: 2
#     Edge 48, Type (0, 1), BuildingBlock: AJUNOK_clean_linker_0, # of connection points: 2
#     Edge 49, Type (0, 1), BuildingBlock: AJUNOK_clean_linker_0, # of connection points: 2
#     Edge 50, Type (0, 1), BuildingBlock: AJUNOK_clean_linker_0, # of connection points: 2
#     Edge 51, Type (0, 1), BuildingBlock: AJUNOK_clean_linker_0, # of connection points: 2
#     Edge 52, Type (0, 1), BuildingBlock: AJUNOK_clean_linker_0, # of connection points: 2
#     Edge 53, Type (0, 1), BuildingBlock: AJUNOK_clean_linker_0, # of connection points: 2
#     Edge 54, Type (0, 1), BuildingBlock: AJUNOK_clean_linker_0, # of connection points: 2
#     Edge 55, Type (0, 1), BuildingBlock: AJUNOK_clean_linker_0, # of connection points: 2
#     Edge 56, Type (0, 1), BuildingBlock: AJUNOK_clean_linker_0, # of connection points: 2
#     Edge 57, Type (0, 1), BuildingBlock: AJUNOK_clean_linker_0, # of connection points: 2
#     Edge 58, Type (0, 1), BuildingBlock: AJUNOK_clean_linker_0, # of connection points: 2
#     Edge 59, Type (0, 1), BuildingBlock: AJUNOK_clean_linker_0, # of connection points: 2
#     Edge 60, Type (0, 1), BuildingBlock: AJUNOK_clean_linker_0, # of connection points: 2
#     Edge 61, Type (0, 1), BuildingBlock: AJUNOK_clean_linker_0, # of connection points: 2
#     Edge 62, Type (0, 1), BuildingBlock: AJUNOK_clean_linker_0, # of connection points: 2
#     Edge 63, Type (0, 1), BuildingBlock: AJUNOK_clean_linker_0, # of connection points: 2
#     Edge 64, Type (0, 1), BuildingBlock: AJUNOK_clean_linker_0, # of connection points: 2
#     Edge 65, Type (0, 1), BuildingBlock: AJUNOK_clean_linker_0, # of connection points: 2
#     Edge 66, Type (0, 1), BuildingBlock: AJUNOK_clean_linker_0, # of connection points: 2
#     Edge 67, Type (0, 1), BuildingBlock: AJUNOK_clean_linker_0, # of connection points: 2
# Relax obj value: 0.237
# Max RMSD: 0.232
# Mean RMSD: 0.150
data_MOF--net-myd--node1-KOZSID_clean_sbu_0--node2-JUFBIX_clean_sbu_0--edge1-AJUNOK_clean_linker_0
_symmetry_space_group_name_H-M    P1
_symmetry_Int_Tables_number       1
_symmetry_cell_setting            triclinic
loop_
_symmetry_equiv_pos_as_xyz
'x, y, z'
_cell_length_a     37.017279
_cell_length_b     40.397781
_cell_length_c     39.557039
_cell_angle_alpha  92.338277
_cell_angle_beta   86.401273
_cell_angle_gamma 93.499871
loop_
_atom_site_label
_atom_site_type_symbol
_atom_site_fract_x
_atom_site_fract_y
_atom_site_fract_z
_atom_type_partial_charge
C0 C 1.00853 0.27802 0.37819 0.0
C1 C 0.97417 0.28323 0.39277 0.0
C2 C 0.95148 0.25763 0.38106 0.0
C3 C 0.97294 0.23826 0.35979 0.0
N4 N 1.00769 0.25011 0.35767 0.0
Co5 Co 0.04694 0.23254 0.32672 0.0
N6 N 1.0121 0.20917 0.29651 0.0
C7 C 0.97685 0.20166 0.30508 0.0
C8 C 0.95934 0.18454 0.2796 0.0
C9 C 0.98533 0.18058 0.25366 0.0
C10 C 1.0175 0.1954 0.26483 0.0
N11 N 0.08682 0.21578 0.29608 0.0
C12 C 0.08618 0.20203 0.26421 0.0
C13 C 0.12043 0.19248 0.25287 0.0
C14 C 0.14294 0.20019 0.27867 0.0
C15 C 0.12138 0.21394 0.30435 0.0
N16 N 0.08128 0.25571 0.35731 0.0
C17 C 0.11609 0.249 0.35977 0.0
C18 C 0.13325 0.27006 0.38272 0.0
C19 C 0.10756 0.29136 0.39515 0.0
C20 C 0.07619 0.28215 0.37894 0.0
N21 N 0.0464 0.1921 0.35272 0.0
C22 C 0.04098 0.13237 0.38726 0.0
C23 C 0.0475 0.13253 0.35211 0.0
C24 C 0.04976 0.16227 0.33548 0.0
C25 C 0.0376 0.16308 0.40497 0.0
C26 C 0.04081 0.1927 0.38724 0.0
N27 N 0.04692 0.27209 0.30031 0.0
C28 C 0.07821 0.31786 0.27173 0.0
C29 C 0.04495 0.32982 0.26445 0.0
C30 C 1.01293 0.31196 0.27473 0.0
C31 C 1.01451 0.28313 0.29231 0.0
C32 C 0.07859 0.28896 0.29 0.0
H33 H 0.98933 0.26991 0.29968 0.0
H34 H 0.10436 0.2805 0.29619 0.0
H35 H 0.0538 0.16075 0.30838 0.0
H36 H 0.0382 0.21601 0.4013 0.0
C37 C 0.96039 0.21498 0.33522 0.0
C38 C 0.04194 0.29882 0.38451 0.0
C39 C 0.05308 0.19334 0.24611 0.0
C40 C 0.13323 0.22872 0.3348 0.0
H41 H 0.96581 0.30354 0.40941 0.0
H42 H 0.92232 0.25498 0.38553 0.0
H43 H 0.9309 0.17655 0.27953 0.0
H44 H 0.98116 0.16778 0.22954 0.0
H45 H 0.12813 0.18022 0.22889 0.0
H46 H 0.17167 0.19652 0.27854 0.0
H47 H 0.16162 0.27128 0.38809 0.0
H48 H 0.11158 0.3118 0.41334 0.0
H49 H 0.05102 0.10968 0.33728 0.0
H50 H 0.03203 0.1643 0.43217 0.0
H51 H 0.10354 0.33114 0.26419 0.0
H52 H 0.98672 0.32008 0.26894 0.0
C53 C 0.99956 0.6824 0.12117 0.0
C54 C 0.96494 0.67436 0.11066 0.0
C55 C 0.94171 0.69117 0.13223 0.0
C56 C 0.9634 0.70839 0.15455 0.0
N57 N 0.99917 0.70409 0.14813 0.0
Co58 Co 0.04044 0.72367 0.1743 0.0
N59 N 1.00604 0.74378 0.20932 0.0
C60 C 0.96935 0.74112 0.21043 0.0
C61 C 0.95323 0.75732 0.23792 0.0
C62 C 0.98126 0.77133 0.25534 0.0
C63 C 1.013 0.76278 0.23732 0.0
N64 N 0.0818 0.74388 0.19989 0.0
C65 C 0.08143 0.76387 0.22815 0.0
C66 C 0.11623 0.77349 0.23728 0.0
C67 C 0.1395 0.7593 0.21362 0.0
C68 C 0.11764 0.74194 0.19154 0.0
N69 N 0.07454 0.70252 0.1397 0.0
C70 C 0.11119 0.70487 0.13835 0.0
C71 C 0.1269 0.68547 0.11291 0.0
C72 C 0.09856 0.66916 0.09759 0.0
C73 C 0.06725 0.67974 0.11462 0.0
N74 N 0.04167 0.76488 0.14791 0.0
C75 C 0.0456 0.83025 0.12419 0.0
C76 C 0.07614 0.81131 0.12213 0.0
C77 C 0.07358 0.77893 0.13398 0.0
C78 C 1.01257 0.81475 0.13567 0.0
C79 C 1.01116 0.78231 0.14681 0.0
N80 N 0.03931 0.68345 0.20182 0.0
C81 C 0.0703 0.65044 0.23942 0.0
C82 C 0.03731 0.64028 0.25598 0.0
C83 C 1.00537 0.64887 0.24248 0.0
C84 C 1.00698 0.66982 0.21511 0.0
C85 C 0.07067 0.67172 0.21222 0.0
H86 H 0.98171 0.67622 0.20642 0.0
H87 H 0.09661 0.67986 0.2012 0.0
H88 H 0.09798 0.76614 0.13244 0.0
H89 H 0.98518 0.7724 0.15558 0.0
C90 C 0.95083 0.72504 0.18418 0.0
C91 C 0.03132 0.66572 0.10771 0.0
C92 C 0.04895 0.775 0.24663 0.0
C93 C 0.12989 0.72349 0.16291 0.0
H94 H 0.95717 0.65694 0.09053 0.0
H95 H 0.91238 0.68954 0.13276 0.0
H96 H 0.92453 0.7594 0.24411 0.0
H97 H 0.97857 0.78672 0.27828 0.0
H98 H 0.1239 0.78933 0.2587 0.0
H99 H 0.16883 0.76155 0.21251 0.0
H100 H 0.15552 0.68252 0.1071 0.0
H101 H 0.10052 0.65079 0.07695 0.0
H102 H 0.10209 0.8215 0.1119 0.0
H103 H 0.9879 0.82798 0.13737 0.0
H104 H 0.09569 0.64391 0.24883 0.0
H105 H 0.9792 0.64088 0.25417 0.0
C106 C 0.37083 0.97851 0.28008 0.0
C107 C 0.3807 0.94614 0.28223 0.0
C108 C 0.37126 0.92964 0.25267 0.0
C109 C 0.35601 0.95269 0.23418 0.0
N110 N 0.35553 0.98261 0.25027 0.0
Co111 Co 0.33271 0.02208 0.23463 0.0
N112 N 0.30241 0.99496 0.20281 0.0
C113 C 0.30855 0.96364 0.19189 0.0
C114 C 0.28509 0.95152 0.16822 0.0
C115 C 0.26327 0.97698 0.16345 0.0
C116 C 0.27456 1.00337 0.18463 0.0
N117 N 0.31023 0.06207 0.21965 0.0
C118 C 0.2809 0.06483 0.20121 0.0
C119 C 0.27429 0.09797 0.19766 0.0
C120 C 0.30137 0.11644 0.2129 0.0
C121 C 0.32264 0.09375 0.22543 0.0
N122 N 0.36324 0.04887 0.26629 0.0
C123 C 0.3714 0.08171 0.26553 0.0
C124 C 0.39215 0.09327 0.29164 0.0
C125 C 0.39702 0.06598 0.31007 0.0
C126 C 0.37881 0.03935 0.29414 0.0
N127 N 0.37108 0.02712 0.19755 0.0
C128 C 0.42326 0.02827 0.1421 0.0
C129 C 0.3869 0.03356 0.13778 0.0
C130 C 0.3616 0.0333 0.16556 0.0
C131 C 0.43324 0.02323 0.17516 0.0
C132 C 0.40673 0.02251 0.20246 0.0
N133 N 0.29426 0.01626 0.27111 0.0
C134 C 0.25854 0.03714 0.31981 0.0
C135 C 0.24363 1.00503 0.32652 0.0
C136 C 0.25385 0.97908 0.30402 0.0
C137 C 0.27877 0.98518 0.27664 0.0
C138 C 0.28386 0.04219 0.29212 0.0
H139 H 0.28601 0.96439 0.26027 0.0
H140 H 0.2957 0.0669 0.28825 0.0
H141 H 0.33413 0.03764 0.16071 0.0
H142 H 0.41495 0.01776 0.22745 0.0
C143 C 0.33442 0.94562 0.20659 0.0
C144 C 0.3768 1.00531 0.3059 0.0
C145 C 0.26164 0.03711 0.18319 0.0
C146 C 0.35199 0.10131 0.24565 0.0
H147 H 0.39272 0.93533 0.30307 0.0
H148 H 0.373 0.90341 0.24654 0.0
H149 H 0.28392 0.9271 0.15589 0.0
H150 H 0.24235 0.97651 0.1455 0.0
H151 H 0.25279 0.10786 0.18452 0.0
H152 H 0.30481 0.14323 0.215 0.0
H153 H 0.40057 0.11879 0.29795 0.0
H154 H 0.41146 0.06575 0.33301 0.0
H155 H 0.378 0.03828 0.11293 0.0
H156 H 0.46115 0.01928 0.17978 0.0
H157 H 0.25189 0.05806 0.33652 0.0
H158 H 0.24258 0.95398 0.30746 0.0
C159 C 0.67824 0.45919 0.26907 0.0
C160 C 0.66803 0.42648 0.26079 0.0
C161 C 0.68888 0.40747 0.27864 0.0
C162 C 0.71059 0.42974 0.29651 0.0
N163 N 0.70417 0.46175 0.29182 0.0
Co164 Co 0.7322 0.50243 0.30882 0.0
N165 N 0.76784 0.47506 0.32942 0.0
C166 C 0.76669 0.44154 0.33038 0.0
C167 C 0.79353 0.42985 0.34814 0.0
C168 C 0.81285 0.45749 0.35942 0.0
C169 C 0.79682 0.48464 0.34758 0.0
N170 N 0.76059 0.54329 0.32496 0.0
C171 C 0.79122 0.54643 0.34216 0.0
C172 C 0.80292 0.57953 0.34707 0.0
C173 C 0.77841 0.59794 0.33315 0.0
C174 C 0.75343 0.5752 0.32028 0.0
N175 N 0.69612 0.52973 0.28894 0.0
C176 C 0.69446 0.56307 0.29105 0.0
C177 C 0.66679 0.57438 0.27399 0.0
C178 C 0.6504 0.5466 0.25947 0.0
C179 C 0.66917 0.52 0.26862 0.0
N180 N 0.70189 0.50211 0.35275 0.0
C181 C 0.65824 0.50211 0.41448 0.0
C182 C 0.66856 0.53158 0.39818 0.0
C183 C 0.69013 0.53104 0.36781 0.0
C184 C 0.67075 0.47266 0.39965 0.0
C185 C 0.69212 0.47319 0.369 0.0
N186 N 0.76209 0.50258 0.26484 0.0
C187 C 0.78655 0.53041 0.21428 0.0
C188 C 0.80055 0.50109 0.20025 0.0
C189 C 0.79555 0.47279 0.21971 0.0
C190 C 0.77655 0.47406 0.25153 0.0
C191 C 0.76748 0.5306 0.24621 0.0
H192 H 0.77376 0.45158 0.26496 0.0
H193 H 0.75696 0.55359 0.25523 0.0
H194 H 0.69705 0.55448 0.35716 0.0
H195 H 0.70033 0.4498 0.35908 0.0
C196 C 0.73987 0.42169 0.3146 0.0
C197 C 0.66474 0.48708 0.25284 0.0
C198 C 0.80982 0.51898 0.35472 0.0
C199 C 0.72219 0.58311 0.305 0.0
H200 H 0.6485 0.41752 0.24279 0.0
H201 H 0.68953 0.3807 0.27731 0.0
H202 H 0.79822 0.40426 0.3527 0.0
H203 H 0.83595 0.45763 0.37491 0.0
H204 H 0.82657 0.58946 0.35964 0.0
H205 H 0.77855 0.62473 0.3328 0.0
H206 H 0.66077 0.59988 0.27066 0.0
H207 H 0.62866 0.54608 0.24236 0.0
H208 H 0.66046 0.55522 0.40911 0.0
H209 H 0.66372 0.4492 0.41143 0.0
H210 H 0.78992 0.55313 0.20051 0.0
H211 H 0.80691 0.44971 0.21078 0.0
C212 C 0.36442 0.43777 1.01102 0.0
C213 C 0.37871 0.45111 0.981 0.0
C214 C 0.35554 0.44057 0.95657 0.0
C215 C 0.3286 0.42137 0.97306 0.0
N216 N 0.33261 0.41999 1.00669 0.0
Co217 Co 0.30409 0.39064 0.03947 0.0
N218 N 0.27731 0.36684 1.00254 0.0
C219 C 0.2779 0.37539 0.96979 0.0
C220 C 0.25739 0.35373 0.95018 0.0
C221 C 0.24306 0.33002 0.9717 0.0
C222 C 0.2555 0.33865 1.00345 0.0
N223 N 0.27743 0.36036 0.07253 0.0
C224 C 0.25595 0.33264 0.06689 0.0
C225 C 0.24326 0.31839 0.09709 0.0
C226 C 0.25794 0.33744 0.12262 0.0
C227 C 0.27856 0.36217 0.10667 0.0
N228 N 0.33051 0.41499 0.07645 0.0
C229 C 0.32362 0.41239 0.1102 0.0
C230 C 0.34816 0.4306 0.1291 0.0
C231 C 0.37271 0.44487 0.106 0.0
C232 C 0.36158 0.43457 0.07426 0.0
N233 N 0.26371 0.42187 0.04493 0.0
C234 C 0.19136 0.44045 0.04385 0.0
C235 C 0.20552 0.43149 0.07396 0.0
C236 C 0.24165 0.423 0.07407 0.0
C237 C 0.21576 0.4449 1.01577 0.0
C238 C 0.25186 0.43664 1.01732 0.0
N239 N 0.34238 0.35874 0.03311 0.0
C240 C 0.37966 0.31888 0.05542 0.0
C241 C 0.388 0.30565 0.02268 0.0
C242 C 0.37429 0.32057 0.99537 0.0
C243 C 0.35244 0.34728 1.00107 0.0
C244 C 0.35677 0.34528 0.06008 0.0
H245 H 0.34281 0.35755 0.97915 0.0
H246 H 0.3501 0.354 0.08557 0.0
H247 H 0.25049 0.41608 0.09771 0.0
H248 H 0.26901 0.44102 0.99522 0.0
C249 C 0.30234 0.40059 0.95731 0.0
C250 C 0.3829 0.4409 0.04274 0.0
C251 C 0.24704 0.31897 0.03353 0.0
C252 C 0.2998 0.38708 0.12284 0.0
H253 H 0.40399 0.46576 0.97705 0.0
H254 H 0.3592 0.44464 0.92967 0.0
H255 H 0.25467 0.35417 0.92312 0.0
H256 H 0.2262 0.30838 0.96452 0.0
H257 H 0.22541 0.29637 0.10034 0.0
H258 H 0.25438 0.33349 0.14955 0.0
H259 H 0.34985 0.43109 0.15633 0.0
H260 H 0.39703 0.45961 0.11192 0.0
H261 H 0.18842 0.42976 0.09714 0.0
H262 H 0.20685 0.45294 0.99205 0.0
H263 H 0.39012 0.30851 0.07739 0.0
H264 H 0.37909 0.31101 0.96963 0.0
C265 C 0.2354 0.64938 0.47361 0.0
C266 C 0.23341 0.63798 0.44017 0.0
C267 C 0.26058 0.65482 0.42189 0.0
C268 C 0.27742 0.67565 0.445 0.0
N269 N 0.26314 0.67277 0.47713 0.0
Co270 Co 0.27702 0.70104 0.51788 0.0
N271 N 0.31349 0.72891 0.49014 0.0
C272 C 0.32272 0.72443 0.45671 0.0
C273 C 0.34982 0.74636 0.44486 0.0
C274 C 0.35858 0.76597 0.4724 0.0
C275 C 0.33603 0.75496 0.49955 0.0
N276 N 0.28995 0.72961 0.55858 0.0
C277 C 0.31374 0.75637 0.5614 0.0
C278 C 0.31323 0.76962 0.59437 0.0
C279 C 0.28877 0.75025 0.61314 0.0
C280 C 0.27552 0.72657 0.59065 0.0
N281 N 0.24109 0.67265 0.54565 0.0
C282 C 0.23461 0.67464 0.57965 0.0
C283 C 0.20861 0.65171 0.59165 0.0
C284 C 0.19731 0.63435 0.56355 0.0
C285 C 0.21695 0.64796 0.53592 0.0
N286 N 0.31667 0.67097 0.52668 0.0
C287 C 0.38005 0.63794 0.53973 0.0
C288 C 0.35527 0.64738 0.56604 0.0
C289 C 0.32414 0.66365 0.55906 0.0
C290 C 0.3712 0.64351 0.50665 0.0
C291 C 0.33963 0.65952 0.50075 0.0
N292 N 0.23826 0.73175 0.50909 0.0
C293 C 0.18776 0.76489 0.52877 0.0
C294 C 0.18636 0.77864 0.49689 0.0
C295 C 0.21133 0.76797 0.47126 0.0
C296 C 0.23649 0.74469 0.47773 0.0
C297 C 0.21351 0.74162 0.53424 0.0
H298 H 0.25468 0.73786 0.457 0.0
H299 H 0.21317 0.73211 0.5591 0.0
H300 H 0.30698 0.67075 0.58042 0.0
H301 H 0.33484 0.66287 0.47492 0.0
C302 C 0.30499 0.69975 0.43703 0.0
C303 C 0.2094 0.63846 0.50091 0.0
C304 C 0.3373 0.77004 0.53373 0.0
C305 C 0.25058 0.70046 0.59909 0.0
H306 H 0.21388 0.61999 0.4298 0.0
H307 H 0.2665 0.65296 0.39475 0.0
H308 H 0.36184 0.74786 0.41927 0.0
H309 H 0.37935 0.78602 0.47251 0.0
H310 H 0.32901 0.79097 0.60401 0.0
H311 H 0.2817 0.75297 0.64004 0.0
H312 H 0.19803 0.64889 0.61757 0.0
H313 H 0.176 0.61478 0.5632 0.0
H314 H 0.36045 0.64324 0.59214 0.0
H315 H 0.38871 0.63566 0.48522 0.0
H316 H 0.16901 0.77201 0.54953 0.0
H317 H 0.21226 0.77817 0.44632 0.0
C318 C 0.82397 0.90208 0.4758 0.0
C319 C 0.83515 0.91055 0.44304 0.0
C320 C 0.80703 0.90091 0.42313 0.0
C321 C 0.78035 0.88703 0.44479 0.0
N322 N 0.7894 0.88828 0.47733 0.0
Co323 Co 0.76238 0.86545 0.51589 0.0
N324 N 0.72861 0.84055 0.48555 0.0
C325 C 0.72376 0.84755 0.45313 0.0
C326 C 0.69629 0.82814 0.43932 0.0
C327 C 0.68294 0.80774 0.4646 0.0
C328 C 0.70331 0.8157 0.49238 0.0
N329 N 0.73831 0.84063 0.5546 0.0
C330 C 0.71488 0.81352 0.55463 0.0
C331 C 0.70776 0.8023 0.58732 0.0
C332 C 0.72651 0.82364 0.60847 0.0
C333 C 0.74459 0.84619 0.58766 0.0
N334 N 0.79532 0.89196 0.54623 0.0
C335 C 0.79108 0.89518 0.58028 0.0
C336 C 0.81939 0.91309 0.59443 0.0
C337 C 0.84346 0.92089 0.56789 0.0
C338 C 0.82834 0.90747 0.53879 0.0
N339 N 0.72483 0.89993 0.52131 0.0
C340 C 0.65405 0.92171 0.51528 0.0
C341 C 0.66389 0.9084 0.5452 0.0
C342 C 0.69923 0.89865 0.54802 0.0
C343 C 0.68199 0.9291 0.49073 0.0
C344 C 0.71725 0.91873 0.49463 0.0
N345 N 0.79721 0.83028 0.50961 0.0
C346 C 0.84083 0.79551 0.531 0.0
C347 C 0.8442 0.77788 0.49973 0.0
C348 C 0.82304 0.78683 0.47386 0.0
C349 C 0.8006 0.81329 0.47902 0.0
C350 C 0.81706 0.82133 0.53549 0.0
H351 H 0.78586 0.81961 0.45796 0.0
H352 H 0.81487 0.8339 0.55995 0.0
H353 H 0.70437 0.88867 0.57166 0.0
H354 H 0.73747 0.92497 0.47504 0.0
C355 C 0.74873 0.86899 0.43529 0.0
C356 C 0.84695 0.90736 0.50489 0.0
C357 C 0.69844 0.7985 0.52441 0.0
C358 C 0.7675 0.87291 0.5981 0.0
H359 H 0.86125 0.92172 0.4344 0.0
H360 H 0.80689 0.90219 0.39586 0.0
H361 H 0.68781 0.82799 0.41362 0.0
H362 H 0.66116 0.78875 0.46269 0.0
H363 H 0.69088 0.78104 0.5955 0.0
H364 H 0.72718 0.8226 0.63572 0.0
H365 H 0.82393 0.91689 0.62112 0.0
H366 H 0.86994 0.9332 0.57028 0.0
H367 H 0.64392 0.90439 0.56609 0.0
H368 H 0.67636 0.9413 0.46792 0.0
H369 H 0.85668 0.78965 0.55182 0.0
H370 H 0.82348 0.7734 0.44962 0.0
C371 C 0.51561 0.79528 0.8884 0.0
C372 C 0.48407 0.80209 0.9075 0.0
C373 C 0.46096 0.77423 0.90472 0.0
C374 C 0.47966 0.75194 0.88422 0.0
N375 N 0.51301 0.76417 0.87415 0.0
Co376 Co 0.54847 0.74129 0.84332 0.0
N377 N 0.5102 0.71053 0.82469 0.0
C378 C 0.47701 0.70393 0.83966 0.0
C379 C 0.45647 0.68113 0.82121 0.0
C380 C 0.47831 0.67265 0.79319 0.0
C381 C 0.51114 0.69072 0.79616 0.0
N382 N 0.58433 0.71884 0.81251 0.0
C383 C 0.57918 0.69862 0.78485 0.0
C384 C 0.61198 0.68742 0.77133 0.0
C385 C 0.63833 0.70104 0.79147 0.0
C386 C 0.62028 0.71967 0.81615 0.0
N387 N 0.58638 0.77212 0.8623 0.0
C388 C 0.62213 0.76748 0.86074 0.0
C389 C 0.64194 0.79418 0.8741 0.0
C390 C 0.61707 0.81691 0.88462 0.0
C391 C 0.58318 0.80268 0.87742 0.0
N392 N 0.55498 0.70929 0.87786 0.0
C393 C 0.55847 0.66062 0.9255 0.0
C394 C 0.55778 0.65211 0.89104 0.0
C395 C 0.55607 0.67657 0.86785 0.0
C396 C 0.55869 0.69426 0.93586 0.0
C397 C 0.55684 0.71837 0.91146 0.0
N398 N 0.54167 0.7723 0.80848 0.0
C399 C 0.566 0.80808 0.76464 0.0
C400 C 0.53087 0.81523 0.75745 0.0
C401 C 0.50132 0.80037 0.77603 0.0
C402 C 0.5073 0.77902 0.80143 0.0
C403 C 0.57082 0.78648 0.79037 0.0
H404 H 0.48407 0.768 0.81544 0.0
H405 H 0.59807 0.78138 0.79578 0.0
H406 H 0.55492 0.6686 0.84169 0.0
H407 H 0.55631 0.74418 0.91967 0.0
C408 C 0.46457 0.72322 0.86796 0.0
C409 C 0.54829 0.81794 0.88568 0.0
C410 C 0.54356 0.68666 0.77319 0.0
C411 C 0.63631 0.742 0.8397 0.0
H412 H 0.47834 0.82486 0.92166 0.0
H413 H 0.43315 0.77136 0.91486 0.0
H414 H 0.4286 0.67242 0.82687 0.0
H415 H 0.47103 0.65494 0.77314 0.0
H416 H 0.61632 0.67066 0.7496 0.0
H417 H 0.66724 0.69833 0.78797 0.0
H418 H 0.67116 0.79774 0.87405 0.0
H419 H 0.62359 0.84132 0.89553 0.0
H420 H 0.55839 0.62645 0.88196 0.0
H421 H 0.55953 0.70172 0.96242 0.0
H422 H 0.58948 0.81973 0.75116 0.0
H423 H 0.47376 0.80548 0.77115 0.0
C424 C 0.55628 0.29055 0.66607 0.0
C425 C 0.58794 0.30172 0.64838 0.0
C426 C 0.6123 0.27783 0.65033 0.0
C427 C 0.59452 0.25347 0.66927 0.0
N428 N 0.55997 0.26021 0.67892 0.0
Co429 Co 0.52591 0.23333 0.70993 0.0
N430 N 0.56523 0.20504 0.72301 0.0
C431 C 0.60004 0.20652 0.71036 0.0
C432 C 0.62163 0.18629 0.72619 0.0
C433 C 0.59941 0.17155 0.75091 0.0
C434 C 0.56535 0.18347 0.7486 0.0
N435 N 0.49153 0.20624 0.74037 0.0
C436 C 0.49814 0.18359 0.76336 0.0
C437 C 0.46621 0.17065 0.77926 0.0
C438 C 0.43858 0.18614 0.76634 0.0
C439 C 0.45506 0.2075 0.74323 0.0
N440 N 0.48705 0.26292 0.69882 0.0
C441 C 0.45144 0.25942 0.70878 0.0
C442 C 0.43168 0.28471 0.69921 0.0
C443 C 0.45637 0.30621 0.68317 0.0
C444 C 0.48995 0.29281 0.68401 0.0
N445 N 0.51437 0.20184 0.67121 0.0
C446 C 0.49591 0.14883 0.62603 0.0
C447 C 0.46976 0.1699 0.63926 0.0
C448 C 0.47958 0.19628 0.66127 0.0
C449 C 0.53193 0.15663 0.63269 0.0
C450 C 0.54052 0.1832 0.655 0.0
N451 N 0.5373 0.26396 0.74772 0.0
C452 C 0.51723 0.29878 0.7949 0.0
C453 C 0.55214 0.31342 0.79628 0.0
C454 C 0.57993 0.30214 0.77446 0.0
C455 C 0.57201 0.27703 0.75065 0.0
C456 C 0.51036 0.27403 0.77037 0.0
H457 H 0.59405 0.26922 0.73417 0.0
H458 H 0.48301 0.26402 0.76932 0.0
H459 H 0.45808 0.21094 0.67045 0.0
H460 H 0.56839 0.18713 0.65938 0.0
C461 C 0.61179 0.22876 0.68501 0.0
C462 C 0.52405 0.31015 0.672 0.0
C463 C 0.53409 0.17444 0.77176 0.0
C464 C 0.438 0.23289 0.72857 0.0
H465 H 0.5937 0.32532 0.63669 0.0
H466 H 0.6406 0.2794 0.64146 0.0
H467 H 0.65037 0.18344 0.72113 0.0
H468 H 0.60751 0.15446 0.769 0.0
H469 H 0.46333 0.15259 0.79888 0.0
H470 H 0.41005 0.18347 0.77425 0.0
H471 H 0.40298 0.28776 0.70435 0.0
H472 H 0.45054 0.32961 0.67292 0.0
H473 H 0.44153 0.16511 0.63387 0.0
H474 H 0.55314 0.1411 0.62242 0.0
H475 H 0.49522 0.30728 0.81178 0.0
H476 H 0.60733 0.31312 0.77534 0.0
C477 C 0.88058 0.48422 0.79248 0.0
C478 C 0.89234 0.45304 0.79773 0.0
C479 C 0.87916 0.43232 0.77223 0.0
C480 C 0.86022 0.45202 0.75288 0.0
N481 N 0.86113 0.48369 0.76458 0.0
Co482 Co 0.83513 0.52004 0.74712 0.0
N483 N 0.79985 0.48857 0.72509 0.0
C484 C 0.80504 0.4563 0.7175 0.0
C485 C 0.77723 0.4408 0.7004 0.0
C486 C 0.75343 0.46491 0.69654 0.0
C487 C 0.76796 0.49398 0.71166 0.0
N488 N 0.80925 0.55697 0.7302 0.0
C489 C 0.77609 0.55688 0.71739 0.0
C490 C 0.76844 0.58881 0.7094 0.0
C491 C 0.79839 0.60909 0.71614 0.0
C492 C 0.82251 0.58871 0.7283 0.0
N493 N 0.87073 0.55099 0.76921 0.0
C494 C 0.87847 0.58296 0.76214 0.0
C495 C 0.90224 0.59843 0.78396 0.0
C496 C 0.9094 0.5747 0.80622 0.0
C497 C 0.88961 0.54601 0.79661 0.0
N498 N 0.86641 0.51937 0.70463 0.0
C499 C 0.90923 0.51962 0.64297 0.0
C500 C 0.87177 0.52251 0.64363 0.0
C501 C 0.85103 0.52217 0.67435 0.0
C502 C 0.92496 0.51601 0.67393 0.0
C503 C 0.90307 0.51602 0.70452 0.0
N504 N 0.8039 0.52049 0.7891 0.0
C505 C 0.77883 0.54983 0.83863 0.0
C506 C 0.76389 0.52 0.85191 0.0
C507 C 0.76928 0.4905 0.83283 0.0
C508 C 0.78919 0.49128 0.80162 0.0
C509 C 0.79844 0.54956 0.80715 0.0
H510 H 0.79311 0.4681 0.78782 0.0
H511 H 0.80975 0.57286 0.79771 0.0
H512 H 0.82239 0.52466 0.67336 0.0
H513 H 0.91579 0.5138 0.72811 0.0
C514 C 0.83417 0.44077 0.7301 0.0
C515 C 0.8887 0.51426 0.81353 0.0
C516 C 0.75326 0.52681 0.70881 0.0
C517 C 0.85547 0.59914 0.74226 0.0
H518 H 0.90804 0.44595 0.81816 0.0
H519 H 0.88096 0.40569 0.76968 0.0
H520 H 0.77439 0.41499 0.692 0.0
H521 H 0.72877 0.46164 0.68317 0.0
H522 H 0.74407 0.59664 0.69912 0.0
H523 H 0.80178 0.63565 0.71327 0.0
H524 H 0.9109 0.6245 0.78542 0.0
H525 H 0.92622 0.5784 0.82761 0.0
H526 H 0.85855 0.52568 0.62039 0.0
H527 H 0.95398 0.51428 0.6746 0.0
H528 H 0.77579 0.57321 0.85258 0.0
H529 H 0.75782 0.4669 0.84176 0.0
C530 C 0.18421 0.04484 0.84995 0.0
C531 C 0.17406 0.07674 0.85854 0.0
C532 C 0.18833 0.09653 0.83329 0.0
C533 C 0.20641 0.07575 0.81078 0.0
N534 N 0.20416 0.04372 0.81981 0.0
Co535 Co 0.22878 1.00591 0.79518 0.0
N536 N 0.25143 0.03542 0.75878 0.0
C537 C 0.24755 0.06836 0.75677 0.0
C538 C 0.26458 0.08183 0.72832 0.0
C539 C 0.27989 0.05591 0.71076 0.0
C540 C 0.27126 0.02795 0.72954 0.0
N541 N 0.25381 0.96823 0.77078 0.0
C542 C 0.2739 0.96707 0.74071 0.0
C543 C 0.2848 0.93529 0.73265 0.0
C544 C 0.271 0.91568 0.75821 0.0
C545 C 0.25245 0.93641 0.7804 0.0
N546 N 0.20557 0.97627 0.8311 0.0
C547 C 0.20844 0.94315 0.8325 0.0
C548 C 0.19039 0.92945 0.86037 0.0
C549 C 0.17535 0.95541 0.8781 0.0
C550 C 0.18521 0.98359 0.86002 0.0
N551 N 0.18664 0.99642 0.767 0.0
C552 C 0.14228 0.98305 0.71248 0.0
C553 C 0.15322 0.95724 0.73119 0.0
C554 C 0.1751 0.96447 0.7584 0.0
C555 C 0.15002 1.0156 0.7243 0.0
C556 C 0.17161 0.02165 0.75175 0.0
N557 N 0.27123 1.01546 0.82316 0.0
C558 C 0.31349 0.99753 0.86197 0.0
C559 C 0.32868 0.02985 0.86608 0.0
C560 C 0.31517 0.05468 0.84772 0.0
C561 C 0.28667 0.04703 0.82669 0.0
C562 C 0.28515 0.99092 0.84048 0.0
H563 H 0.27764 0.06712 0.81355 0.0
H564 H 0.27485 0.96578 0.83842 0.0
H565 H 0.18372 0.94381 0.77102 0.0
H566 H 0.17742 0.04698 0.7589 0.0
C567 C 0.22665 0.08568 0.78147 0.0
C568 C 0.17538 0.01679 0.87196 0.0
C569 C 0.28238 0.9949 0.71825 0.0
C570 C 0.23079 0.92618 0.80876 0.0
H571 H 0.15849 0.08498 0.88107 0.0
H572 H 0.18638 0.12306 0.83187 0.0
H573 H 0.26521 0.10737 0.7209 0.0
H574 H 0.29523 0.05732 0.6866 0.0
H575 H 0.30036 0.92696 0.71016 0.0
H576 H 0.27316 0.88919 0.75982 0.0
H577 H 0.18923 0.9038 0.86748 0.0
H578 H 0.1595 0.95393 0.902 0.0
H579 H 0.1463 0.93158 0.72402 0.0
H580 H 0.14148 0.03653 0.71117 0.0
H581 H 0.32329 0.97738 0.87543 0.0
H582 H 0.32689 0.07989 0.8491 0.0
C583 C 0.75011 0.17498 0.97307 0.0
C584 C 0.74264 0.16924 0.9393 0.0
C585 C 0.7622 0.19313 0.92137 0.0
C586 C 0.78042 0.21212 0.94505 0.0
N587 N 0.77426 0.20148 0.97688 0.0
Co588 Co 0.79413 0.22356 0.01864 0.0
N589 N 0.82874 0.25346 0.99161 0.0
C590 C 0.82882 0.25778 0.958 0.0
C591 C 0.8568 0.27872 0.94595 0.0
C592 C 0.87538 0.28865 0.97373 0.0
C593 C 0.85736 0.27343 1.00135 0.0
N594 N 0.81393 0.24547 0.06046 0.0
C595 C 0.84329 0.26686 0.06433 0.0
C596 C 0.84654 0.27643 0.09821 0.0
C597 C 0.81828 0.26071 0.11612 0.0
C598 C 0.79934 0.24257 0.09236 0.0
N599 N 0.75943 0.19366 0.04573 0.0
C600 C 0.75184 0.19626 0.07949 0.0
C601 C 0.72698 0.17236 0.09148 0.0
C602 C 0.71758 0.15371 0.06351 0.0
C603 C 0.73711 0.16755 0.03591 0.0
N604 N 0.83183 0.19091 1.01824 0.0
C605 C 0.89569 0.15647 0.02018 0.0
C606 C 0.8724 0.1605 0.04924 0.0
C607 C 0.84072 0.1777 0.04774 0.0
C608 C 0.88479 0.16785 0.98965 0.0
C609 C 0.85279 0.18465 0.98917 0.0
N610 N 0.75731 0.25712 0.01887 0.0
C611 C 0.74313 0.31469 0.02533 0.0
C612 C 0.70748 0.307 1.01665 0.0
C613 C 0.69716 0.27369 1.00903 0.0
C614 C 0.72234 0.24913 1.01063 0.0
C615 C 0.76734 0.28963 0.02625 0.0
H616 H 0.71343 0.22384 1.00495 0.0
H617 H 0.79439 0.29686 0.03266 0.0
H618 H 0.82441 0.18155 0.07088 0.0
H619 H 0.84604 0.19381 0.96538 0.0
C620 C 0.80524 0.23862 0.93802 0.0
C621 C 0.72975 0.1577 1.00082 0.0
C622 C 0.86569 0.28209 0.03656 0.0
C623 C 0.77036 0.21989 0.09949 0.0
H624 H 0.72401 0.15044 0.9288 0.0
H625 H 0.76293 0.19635 0.8943 0.0
H626 H 0.86339 0.2854 0.91997 0.0
H627 H 0.89894 0.30589 0.97386 0.0
H628 H 0.86668 0.29361 0.10892 0.0
H629 H 0.81254 0.26198 0.1433 0.0
H630 H 0.71694 0.16888 0.11746 0.0
H631 H 0.69764 0.13296 0.06323 0.0
H632 H 0.87943 0.15177 0.07337 0.0
H633 H 0.90129 0.16442 0.96631 0.0
H634 H 0.75255 0.34013 0.03089 0.0
H635 H 0.66979 0.26661 1.00222 0.0
Co636 Co 0.08008 0.06244 0.07164 0.0
C637 C 0.07774 0.11799 0.11763 0.0
Co638 Co 0.1105 0.10772 0.05362 0.0
C639 C 0.06871 0.99318 0.08846 0.0
C640 C 1.02147 0.02039 0.10073 0.0
N641 N 0.05614 0.02393 0.08809 0.0
N642 N 0.04316 0.97067 0.10057 0.0
C643 C 1.01336 0.98766 0.10817 0.0
H644 H 0.09578 0.98724 0.0792 0.0
H645 H 1.0031 0.04026 0.10392 0.0
C646 C 0.11445 0.05393 1.00686 0.0
N647 N 0.13353 0.14555 0.03519 0.0
C648 C 0.1557 0.17016 0.04796 0.0
C649 C 0.12811 0.15467 1.00349 0.0
N650 N 0.16377 0.19416 0.02538 0.0
C651 C 0.1464 0.18453 0.99752 0.0
C652 C 0.15234 0.06905 0.09024 0.0
O653 O 0.09387 0.03853 0.02891 0.0
O654 O 0.12455 0.08389 1.01316 0.0
O655 O 0.15424 0.09582 0.07387 0.0
O656 O 0.12303 0.05094 0.09082 0.0
O657 O 0.0971 0.13165 0.09384 0.0
H658 H 0.11118 0.14075 0.98595 0.0
H659 H 0.16468 0.17104 0.07353 0.0
O660 O 0.0671 0.08738 0.11374 0.0
O661 O 0.03656 0.07444 0.0534 0.0
O662 O 0.06575 0.11933 0.03496 0.0
C663 C 0.03612 0.10177 0.03878 0.0
H664 H 0.9876 0.97712 0.11846 0.0
H665 H 0.14672 0.19835 0.97461 0.0
Co666 Co 0.9775 0.46197 0.09463 0.0
C667 C 0.99474 0.52779 0.07345 0.0
Co668 Co 0.96422 0.47357 0.04263 0.0
C669 C 1.00458 0.43166 0.15113 0.0
C670 C 0.98597 0.47974 0.16503 0.0
N671 N 0.989 0.4575 0.13877 0.0
N672 N 1.01184 0.43692 0.18395 0.0
C673 C 0.99981 0.46703 0.19296 0.0
H674 H 1.00983 0.40914 0.13636 0.0
H675 H 0.97461 0.50369 0.16386 0.0
C676 C 0.94566 0.408 0.06348 0.0
N677 N 0.95479 0.47623 0.99616 0.0
C678 C 0.93815 0.49677 0.97634 0.0
C679 C 0.96744 0.45264 0.97403 0.0
N680 N 0.94083 0.4867 0.94305 0.0
C681 C 0.9591 0.45897 0.94187 0.0
C682 C 0.03515 0.45192 0.04992 0.0
O683 O 0.95812 0.41696 0.09185 0.0
O684 O 0.94743 0.42845 0.0399 0.0
O685 O 1.01437 0.46257 0.02875 0.0
O686 O 1.02318 0.44847 0.08021 0.0
O687 O 0.98045 0.5185 0.04596 0.0
H688 H 0.98215 0.43181 0.98081 0.0
H689 H 0.92504 0.51878 0.9859 0.0
O690 O 0.99632 0.50698 0.09659 0.0
O691 O 0.93202 0.47555 0.10997 0.0
O692 O 0.9149 0.48525 0.0591 0.0
C693 C 0.90812 0.48457 0.09134 0.0
H694 H 1.00093 0.47895 0.21791 0.0
H695 H 0.96587 0.44422 0.91912 0.0
Co696 Co 0.07704 0.9552 0.48015 0.0
C697 C 0.13152 0.96263 0.4274 0.0
Co698 Co 0.06211 0.93359 0.4308 0.0
C699 C 0.08718 0.96041 0.5524 0.0
C700 C 0.10728 1.00379 0.52624 0.0
N701 N 0.09063 0.97346 0.52138 0.0
N702 N 0.1004 0.98181 0.57626 0.0
C703 C 0.11309 1.00907 0.56 0.0
H704 H 0.0757 0.93566 0.55734 0.0
H705 H 0.11564 0.02063 0.50634 0.0
C706 C 1.0052 0.92764 0.48043 0.0
N707 N 0.04817 0.91623 0.38963 0.0
C708 C 0.06164 0.89041 0.37143 0.0
C709 C 1.02111 0.92604 0.37166 0.0
N710 N 0.04404 0.88381 0.34302 0.0
C711 C 1.01868 0.90618 0.34277 0.0
C712 C 0.09509 0.88868 0.47016 0.0
O713 O 0.02798 0.94257 0.49972 0.0
O714 O 1.01557 0.92051 0.45002 0.0
O715 O 0.08068 0.89143 0.442 0.0
O716 O 0.09493 0.91343 0.4911 0.0
O717 O 0.10775 0.94671 0.41054 0.0
H718 H 1.00363 0.94582 0.3794 0.0
H719 H 0.08368 0.87645 0.37887 0.0
O720 O 0.12478 0.96866 0.45903 0.0
O721 O 0.06057 0.99658 0.46955 0.0
O722 O 0.04519 0.9762 0.42027 0.0
C723 C 0.04828 1.00095 0.44105 0.0
H724 H 0.12684 0.03066 0.5716 0.0
H725 H 0.99903 0.90718 0.32374 0.0
Co726 Co 0.99227 0.58888 0.45659 0.0
C727 C 0.06593 0.57875 0.46987 0.0
Co728 Co 1.01233 0.53865 0.4423 0.0
C729 C 0.94773 0.64466 0.47916 0.0
C730 C 1.00366 0.65882 0.46758 0.0
N731 N 0.98019 0.63197 0.4702 0.0
N732 N 0.95039 0.67819 0.48197 0.0
C733 C 0.98554 0.68707 0.47486 0.0
H734 H 0.92234 0.62988 0.48128 0.0
H735 H 0.03179 0.65816 0.45858 0.0
C736 C 0.93989 0.55018 0.4275 0.0
N737 N 1.02334 0.49499 0.42409 0.0
C738 C 0.03231 0.46492 0.43491 0.0
C739 C 1.01823 0.48864 0.3908 0.0
N740 N 0.03366 0.44124 0.40918 0.0
C741 C 1.02446 0.45654 0.38181 0.0
C742 C 0.98024 0.54371 0.50855 0.0
O743 O 0.94507 0.57871 0.44164 0.0
O744 O 0.96498 0.53 0.4262 0.0
O745 O 0.99473 0.52252 0.48744 0.0
O746 O 0.97762 0.57322 0.4993 0.0
O747 O 0.06042 0.54891 0.45826 0.0
H748 H 1.00892 0.50592 0.37367 0.0
H749 H 0.03728 0.46037 0.46094 0.0
O750 O 0.04 0.59814 0.47096 0.0
O751 O 1.00655 0.60466 0.4138 0.0
O752 O 0.02887 0.55727 0.39852 0.0
C753 C 1.02223 0.58662 0.39124 0.0
H754 H 0.99686 0.71235 0.47315 0.0
H755 H 1.02133 0.44489 0.35692 0.0
Co756 Co 0.45599 0.94852 0.58575 0.0
C757 C 0.46447 0.01681 0.5704 0.0
Co758 Co 0.43005 0.96453 0.54061 0.0
C759 C 0.49096 0.91216 0.63484 0.0
C760 C 0.48567 0.96328 0.64969 0.0
N761 N 0.47934 0.94075 0.62424 0.0
N762 N 0.50401 0.91612 0.66589 0.0
C763 C 0.50081 0.94822 0.67524 0.0
H764 H 0.48786 0.88855 0.62109 0.0
H765 H 0.47815 0.98875 0.65055 0.0
C766 C 0.41883 0.89639 0.55611 0.0
N767 N 0.40491 0.97236 0.50166 0.0
C768 C 0.41553 0.98204 0.46979 0.0
C769 C 0.36888 0.96536 0.50052 0.0
N770 N 0.38724 0.98182 0.44939 0.0
C771 C 0.35808 0.9711 0.46886 0.0
C772 C 0.50186 0.9442 0.52823 0.0
O773 O 0.43862 0.90301 0.58098 0.0
O774 O 0.41324 0.91938 0.53648 0.0
O775 O 0.47556 0.95492 0.51281 0.0
O776 O 0.49766 0.93955 0.55964 0.0
O777 O 0.44612 1.00962 0.54483 0.0
H778 H 0.35147 0.95548 0.52113 0.0
H779 H 0.44335 0.98884 0.46162 0.0
O780 O 0.47189 0.99407 0.58961 0.0
O781 O 0.41528 0.95733 0.61325 0.0
O782 O 0.38616 0.97444 0.57159 0.0
C783 C 0.38732 0.96938 0.60334 0.0
H784 H 0.50727 0.95953 0.69959 0.0
H785 H 0.33087 0.96666 0.46047 0.0
Co786 Co 0.55756 0.54044 0.61082 0.0
C787 C 0.5578 0.5992 0.65271 0.0
Co788 Co 0.58876 0.58445 0.58943 0.0
C789 C 0.54159 0.4717 0.62927 0.0
C790 C 0.49921 0.50261 0.64782 0.0
N791 N 0.53104 0.50336 0.62929 0.0
N792 N 0.51794 0.45141 0.64743 0.0
C793 C 0.49112 0.47087 0.65896 0.0
H794 H 0.56687 0.46392 0.61714 0.0
H795 H 0.48325 0.52393 0.65346 0.0
C796 C 0.58945 0.5283 0.54616 0.0
N797 N 0.61875 0.6185 0.57001 0.0
C798 C 0.61443 0.65021 0.56171 0.0
C799 C 0.65335 0.61308 0.55948 0.0
N800 N 0.64511 0.66432 0.5463 0.0
C801 C 0.66957 0.64096 0.54567 0.0
C802 C 0.6286 0.54443 0.6289 0.0
O803 O 0.56985 0.51387 0.56952 0.0
O804 O 0.59997 0.55836 0.55064 0.0
O805 O 0.62997 0.56999 0.61113 0.0
O806 O 0.59915 0.52674 0.63144 0.0
O807 O 0.57734 0.61091 0.62792 0.0
H808 H 0.66632 0.59004 0.56154 0.0
H809 H 0.58938 0.66254 0.5666 0.0
O810 O 0.54636 0.56857 0.65131 0.0
O811 O 0.51517 0.5554 0.59067 0.0
O812 O 0.54662 0.59846 0.5692 0.0
C813 C 0.51623 0.58201 0.57401 0.0
H814 H 0.4673 0.46277 0.67441 0.0
H815 H 0.69781 0.64393 0.53693 0.0
Co816 Co 0.61037 0.49021 0.01938 0.0
C817 C 0.65993 0.49775 0.96348 0.0
Co818 Co 0.59002 0.47139 0.97129 0.0
C819 C 0.6251 0.48915 0.08965 0.0
C820 C 0.65157 0.53118 0.06516 0.0
N821 N 0.62869 0.50446 0.05987 0.0
N822 N 0.64517 0.50513 0.11316 0.0
C823 C 0.66193 0.53154 0.09792 0.0
H824 H 0.60926 0.46605 0.0936 0.0
H825 H 0.66086 0.54876 0.04613 0.0
C826 C 0.53855 0.46382 0.0241 0.0
N827 N 0.57174 0.4579 0.93106 0.0
C828 C 0.58456 0.43428 0.90955 0.0
C829 C 0.54126 0.46704 0.91783 0.0
N830 N 0.56297 0.4278 0.88387 0.0
C831 C 0.53577 0.44837 0.88858 0.0
C832 C 0.62333 0.42322 1.00408 0.0
O833 O 0.5625 0.47895 0.04193 0.0
O834 O 0.54627 0.45749 0.99308 0.0
O835 O 0.60832 0.42827 0.97685 0.0
O836 O 0.62563 0.44683 0.02616 0.0
O837 O 0.63325 0.48506 0.94818 0.0
H838 H 0.52319 0.48476 0.92963 0.0
H839 H 0.60819 0.42073 0.91351 0.0
O840 O 0.65719 0.50166 0.99566 0.0
O841 O 0.59609 0.53352 1.01294 0.0
O842 O 0.57251 0.51423 0.96628 0.0
C843 C 0.57903 0.53834 0.98701 0.0
H844 H 0.68054 0.5496 0.10964 0.0
H845 H 0.51237 0.44808 0.87344 0.0
Co846 Co 0.51175 0.10268 0.96841 0.0
C847 C 0.58611 0.09657 0.97444 0.0
Co848 Co 0.53157 0.05466 0.94779 0.0
C849 C 0.47379 0.16465 0.98097 0.0
C850 C 0.50692 0.1523 0.02057 0.0
N851 N 0.49668 0.14193 0.98948 0.0
N852 N 0.46929 0.18823 1.00589 0.0
C853 C 0.48997 0.1805 0.03076 0.0
H854 H 0.46006 0.16351 0.95754 0.0
H855 H 0.52523 0.13977 0.03528 0.0
C856 C 0.4582 0.06193 0.93998 0.0
N857 N 0.5478 1.01423 0.92851 0.0
C858 C 0.53289 0.9827 0.93054 0.0
C859 C 0.57897 1.01106 0.90935 0.0
N860 N 0.55374 0.9603 0.91354 0.0
C861 C 0.58269 0.97808 0.90024 0.0
C862 C 0.50638 0.05216 1.01571 0.0
O863 O 0.46387 0.08986 0.95554 0.0
O864 O 0.48417 0.04275 0.93479 0.0
O865 O 0.51977 0.03382 0.99158 0.0
O866 O 0.50166 0.08214 1.01021 0.0
O867 O 0.5801 0.06779 0.96083 0.0
H868 H 0.59795 0.03147 0.90255 0.0
H869 H 0.50743 0.97628 0.94436 0.0
O870 O 0.55968 0.11501 0.98016 0.0
O871 O 0.52139 0.12332 0.92656 0.0
O872 O 0.54163 0.07678 0.90424 0.0
C873 C 0.53428 0.10706 0.90081 0.0
H874 H 0.49254 0.19435 0.05459 0.0
H875 H 0.60495 0.96788 0.88497 0.0
C876 C 1.02085 0.07178 0.38946 0.0
C877 C 0.03876 0.10001 0.40449 0.0
C878 C 1.02281 0.04001 0.40213 0.0
C879 C 0.04217 0.03515 0.43079 0.0
H880 H 1.00595 0.07409 0.36705 0.0
H881 H 1.00972 0.01902 0.38889 0.0
S882 S 0.0926 0.1009 0.48054 0.0
N883 N 0.07599 0.12087 0.45001 0.0
N884 N 0.07824 0.06173 0.47482 0.0
C885 C 0.05864 0.0634 0.44711 0.0
C886 C 0.05723 0.09565 0.43379 0.0
C887 C 1.02271 0.34876 0.42255 0.0
C888 C 0.04243 0.33561 0.39377 0.0
C889 C 1.02182 0.38348 0.42939 0.0
C890 C 0.04137 0.40633 0.40818 0.0
H891 H 1.00766 0.33223 0.43986 0.0
H892 H 1.00453 0.3925 0.45044 0.0
S893 S 0.10183 0.38498 0.33304 0.0
N894 N 0.08482 0.34873 0.34625 0.0
N895 N 0.08427 0.41302 0.35969 0.0
C896 C 0.06331 0.3933 0.38104 0.0
C897 C 0.06368 0.35832 0.37379 0.0
C898 C 1.01972 0.87879 0.09817 0.0
C899 C 0.04771 0.86607 0.11548 0.0
C900 C 1.01882 0.91286 0.09285 0.0
C901 C 0.04617 0.93558 0.10404 0.0
H902 H 0.99796 0.86235 0.08903 0.0
H903 H 0.99642 0.9216 0.08004 0.0
S904 S 0.12522 0.91594 0.15091 0.0
N905 N 0.10328 0.87963 0.14432 0.0
N906 N 0.102 0.94342 0.13304 0.0
C907 C 0.07484 0.92336 0.12047 0.0
C908 C 0.07554 0.88869 0.12645 0.0
C909 C 0.02846 0.60605 0.12038 0.0
C910 C 1.02658 0.63048 0.09654 0.0
C911 C 1.01931 0.57275 0.11217 0.0
C912 C 1.00774 0.56275 0.07983 0.0
H913 H 0.03584 0.61293 0.14593 0.0
H914 H 1.02025 0.55493 0.13179 0.0
S915 S 1.00143 0.6178 1.00772 0.0
N916 N 1.01491 0.64302 0.03898 0.0
N917 N 0.99741 0.58026 0.02313 0.0
C918 C 1.00729 0.58705 0.0553 0.0
C919 C 1.01679 0.621 0.06377 0.0
C920 C 0.44352 1.00985 0.08234 0.0
C921 C 0.45007 0.02945 0.11199 0.0
C922 C 0.46463 1.01468 0.05172 0.0
C923 C 0.49274 0.03969 0.04941 0.0
H924 H 0.42084 0.99159 0.08243 0.0
H925 H 0.45705 1.00051 0.02915 0.0
S926 S 0.52235 0.0965 0.1198 0.0
N927 N 0.48834 0.07343 0.13724 0.0
N928 N 0.5272 0.08302 0.07988 0.0
C929 C 0.50065 0.05827 0.07925 0.0
C930 C 0.4796 0.05302 0.11046 0.0
C931 C 0.6892 0.49128 0.1934 0.0
C932 C 0.65925 0.48486 0.2162 0.0
C933 C 0.68446 0.49669 0.15935 0.0
C934 C 0.64962 0.49546 0.14703 0.0
H935 H 0.71629 0.49369 0.20235 0.0
H936 H 0.70807 0.50278 0.14269 0.0
S937 S 0.56275 0.47729 0.19629 0.0
N938 N 0.59395 0.47591 0.22423 0.0
N939 N 0.58489 0.48553 0.15972 0.0
C940 C 0.6196 0.48718 0.16919 0.0
C941 C 0.62445 0.48203 0.204 0.0
C942 C 0.40933 0.98274 0.35441 0.0
C943 C 0.38021 0.99929 0.34284 0.0
C944 C 0.41251 0.97809 0.38937 0.0
C945 C 0.38672 0.98989 0.41399 0.0
H946 H 0.4299 0.97351 0.33639 0.0
H947 H 0.4347 0.96446 0.39712 0.0
S948 S 0.30788 0.038 0.39718 0.0
N949 N 0.32696 0.02958 0.35922 0.0
N950 N 0.33287 0.02115 0.42422 0.0
C951 C 0.3584 1.00752 0.40268 0.0
C952 C 0.35524 1.01221 0.36738 0.0
C953 C 0.64692 0.4877 0.47602 0.0
C954 C 0.63553 0.50264 0.44716 0.0
C955 C 0.62917 0.49285 0.50829 0.0
C956 C 0.59909 0.5126 0.51264 0.0
H957 H 0.67114 0.47383 0.47408 0.0
H958 H 0.6407 0.48342 0.53023 0.0
S959 S 0.55566 0.55354 0.44488 0.0
N960 N 0.58984 0.53505 0.42484 0.0
N961 N 0.55699 0.54479 0.48519 0.0
C962 C 0.586 0.5256 0.48368 0.0
C963 C 0.60403 0.52058 0.45103 0.0
C964 C 0.12735 0.41878 0.05729 0.0
C965 C 0.15131 0.44283 0.04169 0.0
C966 C 0.08967 0.42074 0.05757 0.0
C967 C 0.07404 0.44648 0.04178 0.0
H968 H 0.13779 0.39843 0.06997 0.0
H969 H 0.07256 0.40244 0.07131 0.0
S970 S 0.12399 0.51555 0.99682 0.0
N971 N 0.1562 0.49325 1.00957 0.0
N972 N 0.08516 0.49627 1.00953 0.0
C973 C 0.09736 0.46995 0.02481 0.0
C974 C 0.13599 0.46827 0.02488 0.0
C975 C 0.16873 0.59028 0.47881 0.0
C976 C 0.17287 0.62262 0.49341 0.0
C977 C 0.13414 0.57564 0.47206 0.0
C978 C 0.10235 0.59262 0.48013 0.0
H979 H 0.19243 0.57632 0.47238 0.0
H980 H 0.13239 0.55112 0.45994 0.0
S981 S 0.09895 0.67706 0.52151 0.0
N982 N 0.14257 0.6706 0.51679 0.0
N983 N 0.07794 0.64307 0.50611 0.0
C984 C 0.10641 0.62457 0.49603 0.0
C985 C 0.14149 0.63952 0.50218 0.0
C986 C 0.90672 0.94185 0.5104 0.0
C987 C 0.88781 0.91205 0.50012 0.0
C988 C 0.94499 0.94604 0.50631 0.0
C989 C 0.96591 0.92089 0.49097 0.0
H990 H 0.89177 0.96238 0.52115 0.0
H991 H 0.9581 0.9697 0.51371 0.0
S992 S 0.92996 0.83838 0.45964 0.0
N993 N 0.89341 0.85691 0.47457 0.0
N994 N 0.96463 0.86519 0.4656 0.0
C995 C 0.94728 0.89113 0.48056 0.0
C996 C 0.90854 0.88666 0.48531 0.0
C997 C 0.41516 0.59653 0.56898 0.0
C998 C 0.41498 0.62296 0.54681 0.0
C999 C 0.44772 0.58278 0.57663 0.0
C1000 C 0.48182 0.59513 0.5629 0.0
H1001 H 0.38983 0.58631 0.58055 0.0
H1002 H 0.44612 0.56276 0.59415 0.0
S1003 S 0.49652 0.66448 0.50371 0.0
N1004 N 0.45209 0.661 0.51126 0.0
N1005 N 0.51295 0.63556 0.52568 0.0
C1006 C 0.48197 0.62147 0.54051 0.0
C1007 C 0.44876 0.63521 0.53247 0.0
C1008 C 0.53372 0.6063 0.94662 0.0
C1009 C 0.55924 0.63343 0.94932 0.0
C1010 C 0.53919 0.57602 0.96083 0.0
C1011 C 0.57002 0.572 0.97881 0.0
H1012 H 0.5106 0.60781 0.93135 0.0
H1013 H 0.52004 0.55517 0.95634 0.0
S1014 S 0.64312 0.63629 0.99592 0.0
N1015 N 0.61509 0.65511 0.97321 0.0
N1016 N 0.62495 0.59831 1.00098 0.0
C1017 C 0.59422 0.59969 0.98415 0.0
C1018 C 0.58888 0.63048 0.96919 0.0
C1019 C 0.56402 0.86894 0.92294 0.0
C1020 C 0.54637 0.85437 0.89494 0.0
C1021 C 0.56511 0.90352 0.92983 0.0
C1022 C 0.54755 0.92472 0.9097 0.0
H1023 H 0.57783 0.85358 0.9392 0.0
H1024 H 0.58047 0.91393 0.95054 0.0
S1025 S 0.49415 0.89909 0.83613 0.0
N1026 N 0.50874 0.86396 0.84858 0.0
N1027 N 0.51007 0.92864 0.86225 0.0
C1028 C 0.52817 0.91037 0.88293 0.0
C1029 C 0.52751 0.87528 0.87555 0.0
C1030 C 0.53327 0.35971 0.63375 0.0
C1031 C 0.52501 0.34696 0.66619 0.0
C1032 C 0.53193 0.3939 0.62795 0.0
C1033 C 0.52111 0.41661 0.6541 0.0
H1034 H 0.54009 0.34304 0.61248 0.0
H1035 H 0.53826 0.4025 0.60258 0.0
S1036 S 0.49651 0.39609 0.74354 0.0
N1037 N 0.50629 0.36015 0.72486 0.0
N1038 N 0.50248 0.42375 0.71378 0.0
C1039 C 0.51272 0.40415 0.68658 0.0
C1040 C 0.51489 0.36958 0.69262 0.0
C1041 C 0.49999 0.10666 0.57765 0.0
C1042 C 0.4852 0.11643 0.60994 0.0
C1043 C 0.49222 0.07455 0.56389 0.0
C1044 C 0.47028 0.05135 0.58255 0.0
H1045 H 0.51795 0.12378 0.56326 0.0
H1046 H 0.50436 0.06748 0.53922 0.0
S1047 S 0.42483 0.06481 0.66776 0.0
N1048 N 0.44718 0.10051 0.65969 0.0
N1049 N 0.43306 0.04035 0.63407 0.0
C1050 C 0.45497 0.06105 0.61448 0.0
C1051 C 0.46234 0.0936 0.62817 0.0
C1052 C 0.93126 0.55566 0.59556 0.0
C1053 C 0.93121 0.52472 0.61037 0.0
C1054 C 0.9478 0.56113 0.5633 0.0
C1055 C 0.96498 0.53582 0.54368 0.0
H1056 H 0.91772 0.57583 0.60888 0.0
H1057 H 0.9463 0.58562 0.55351 0.0
S1058 S 0.97304 0.45004 0.57144 0.0
N1059 N 0.95041 0.46829 0.60367 0.0
N1060 N 0.98146 0.47839 0.54254 0.0
C1061 C 0.96575 0.50472 0.5585 0.0
C1062 C 0.94894 0.49923 0.59187 0.0
C1063 C 0.09816 0.99598 0.67002 0.0
C1064 C 0.12634 0.9768 0.67908 0.0
C1065 C 0.08802 0.99587 0.63648 0.0
C1066 C 0.1051 0.97606 0.6111 0.0
H1067 H 0.08509 1.01246 0.68863 0.0
H1068 H 0.06785 1.01246 0.62993 0.0
S1069 S 0.17906 0.92043 0.6211 0.0
N1070 N 0.17049 0.93679 0.6595 0.0
N1071 N 0.15008 0.93595 0.5968 0.0
C1072 C 0.13162 0.95531 0.61995 0.0
C1073 C 0.1425 0.95574 0.65393 0.0
C1074 C 0.87805 0.50627 0.87638 0.0
C1075 C 0.90239 0.5119 0.84806 0.0
C1076 C 0.89069 0.50091 0.90858 0.0
C1077 C 0.92804 0.50088 0.91338 0.0
H1078 H 0.8491 0.50494 0.87335 0.0
H1079 H 0.87124 0.4948 0.92931 0.0
S1080 S 1.00259 0.51562 0.84769 0.0
N1081 N 0.96534 0.51815 0.82726 0.0
N1082 N 0.98895 0.5082 0.88738 0.0
C1083 C 0.95242 0.50769 0.88544 0.0
C1084 C 0.93965 0.51312 0.85289 0.0
C1085 C 0.17998 0.0258 0.9351 0.0
C1086 C 0.15825 0.0224 0.90709 0.0
C1087 C 0.16504 0.03392 0.96785 0.0
C1088 C 0.12768 0.03826 0.97404 0.0
H1089 H 0.20894 0.0233 0.93143 0.0
H1090 H 0.18309 0.03793 0.98835 0.0
S1091 S 0.05916 0.03187 0.90935 0.0
N1092 N 0.09747 0.02374 0.88773 0.0
N1093 N 0.06943 0.03857 0.94922 0.0
C1094 C 0.10556 0.03403 0.9464 0.0
C1095 C 0.12082 0.02615 0.91297 0.0
C1096 C 0.60207 0.95767 0.50395 0.0
C1097 C 0.61475 0.92635 0.51013 0.0
C1098 C 0.56444 0.9629 0.50527 0.0
C1099 C 0.53815 0.93685 0.51215 0.0
H1100 H 0.62127 0.97875 0.50048 0.0
H1101 H 0.55602 0.98798 0.50374 0.0
S1102 S 0.55709 0.84942 0.52578 0.0
N1103 N 0.59767 0.86838 0.5199 0.0
N1104 N 0.5278 0.87817 0.52235 0.0
C1105 C 0.55067 0.90506 0.51569 0.0
C1106 C 0.58864 0.89981 0.51469 0.0
C1107 C 0.66196 0.15702 1.0032 0.0
C1108 C 0.69369 0.14051 0.99429 0.0
C1109 C 0.62764 0.14216 0.99733 0.0
C1110 C 0.62333 0.11007 0.9821 0.0
H1111 H 0.66369 0.1818 1.01473 0.0
H1112 H 0.60426 0.15631 1.00456 0.0
S1113 S 0.69829 0.05609 0.95464 0.0
N1114 N 0.71905 0.09022 0.97021 0.0
N1115 N 0.65444 0.06211 0.95866 0.0
C1116 C 0.65498 0.09309 0.97337 0.0
C1117 C 0.69012 0.10835 0.97953 0.0
C1118 C 0.44073 0.47538 0.05398 0.0
C1119 C 0.4233 0.44545 0.04232 0.0
C1120 C 0.47888 0.48031 0.05135 0.0
C1121 C 0.50068 0.4555 0.03675 0.0
H1122 H 0.42472 0.4955 0.06402 0.0
H1123 H 0.49114 0.50437 0.05861 0.0
S1124 S 0.46821 0.37198 1.00482 0.0
N1125 N 0.43079 0.39015 1.01782 0.0
N1126 N 0.50199 0.39937 1.01239 0.0
C1127 C 0.48345 0.42506 0.02643 0.0
C1128 C 0.44491 0.42007 0.02923 0.0
C1129 C 0.93408 0.11157 0.03829 0.0
C1130 C 0.93164 0.14167 0.02211 0.0
C1131 C 0.96778 0.09821 0.04208 0.0
C1132 C 1.00072 0.11456 0.03031 0.0
H1133 H 0.9097 0.09832 0.04837 0.0
H1134 H 0.96794 0.07529 0.05534 0.0
S1135 S 1.00924 0.19422 0.98594 0.0
N1136 N 0.96515 0.18733 0.99385 0.0
N1137 N 0.02829 0.16248 1.00109 0.0
C1138 C 0.99857 0.14444 1.01352 0.0
C1139 C 0.96418 0.15788 1.0094 0.0
C1140 C 0.04874 0.14019 0.21009 0.0
C1141 C 0.05638 0.17478 0.21257 0.0
C1142 C 0.0547 0.12206 0.17922 0.0
C1143 C 0.06899 0.13776 0.14969 0.0
H1144 H 0.03878 0.12697 0.23241 0.0
H1145 H 0.04892 0.09545 0.17876 0.0
S1146 S 0.09264 0.22833 0.14312 0.0
N1147 N 0.07812 0.22412 0.18312 0.0
N1148 N 0.08956 0.19068 0.12527 0.0
C1149 C 0.07621 0.17257 0.15197 0.0
C1150 C 0.06994 0.19087 0.18333 0.0
C1151 C 1.01891 0.38449 0.25874 0.0
C1152 C 0.04261 0.36047 0.24583 0.0
C1153 C 1.01053 0.41058 0.23901 0.0
C1154 C 1.02545 0.41347 0.20564 0.0
H1155 H 1.00553 0.38223 0.28377 0.0
H1156 H 0.99064 0.42745 0.24925 0.0
S1157 S 0.09323 0.35993 0.16198 0.0
N1158 N 0.08371 0.34304 0.19906 0.0
N1159 N 0.06869 0.39275 0.16216 0.0
C1160 C 0.05129 0.39107 0.19338 0.0
C1161 C 0.05979 0.36443 0.21349 0.0
C1162 C 0.05559 0.83525 0.26121 0.0
C1163 C 0.05195 0.8025 0.27201 0.0
C1164 C 0.05375 0.86194 0.28475 0.0
C1165 C 0.04864 0.85643 0.31955 0.0
H1166 H 0.05868 0.84013 0.23441 0.0
H1167 H 0.05576 0.88702 0.27583 0.0
S1168 S 0.03631 0.77517 0.36006 0.0
N1169 N 0.0425 0.76575 0.31914 0.0
N1170 N 0.0392 0.81614 0.36364 0.0
C1171 C 0.04566 0.82378 0.33061 0.0
C1172 C 0.0473 0.79666 0.30668 0.0
C1173 C 1.02121 0.64412 0.31779 0.0
C1174 C 0.03585 0.62572 0.28994 0.0
C1175 C 1.01824 0.63151 0.35031 0.0
C1176 C 0.02942 0.59965 0.35654 0.0
H1177 H 1.01181 0.66859 0.31437 0.0
H1178 H 1.00633 0.64686 0.37063 0.0
S1179 S 0.07037 0.54167 0.2918 0.0
N1180 N 0.06263 0.5745 0.27031 0.0
N1181 N 0.05654 0.5502 0.33157 0.0
C1182 C 0.04474 0.5811 0.32884 0.0
C1183 C 0.04811 0.59427 0.29555 0.0
C1184 C 0.19856 0.03239 0.16249 0.0
C1185 C 0.23486 0.04427 0.15778 0.0
C1186 C 0.1726 0.03995 0.13997 0.0
C1187 C 0.18168 0.06013 0.11194 0.0
H1188 H 0.19006 0.01749 0.18405 0.0
H1189 H 0.14487 0.03051 0.14519 0.0
S1190 S 0.27396 0.09504 0.08676 0.0
N1191 N 0.2794 0.07486 0.12143 0.0
N1192 N 0.23031 0.09035 0.08 0.0
C1193 C 0.21813 0.07159 0.10656 0.0
C1194 C 0.24476 0.06327 0.12915 0.0
C1195 C 0.85041 0.52502 0.16033 0.0
C1196 C 0.82249 0.50041 0.1669 0.0
C1197 C 0.87565 0.52188 0.13239 0.0
C1198 C 0.87381 0.49432 0.10941 0.0
H1199 H 0.85453 0.54567 0.17829 0.0
H1200 H 0.89863 0.5398 0.13037 0.0
S1201 S 0.80296 0.42546 0.11191 0.0
N1202 N 0.792 0.4495 0.14534 0.0
N1203 N 0.83984 0.44355 0.09339 0.0
C1204 C 0.84443 0.47095 0.11407 0.0
C1205 C 0.81873 0.474 0.14262 0.0
C1206 C 0.2209 0.96925 0.3753 0.0
C1207 C 0.2177 0.99788 0.35652 0.0
C1208 C 0.1943 0.95917 0.40046 0.0
C1209 C 0.16378 0.97764 0.40836 0.0
H1210 H 0.24357 0.95379 0.3697 0.0
H1211 H 0.19679 0.93596 0.41265 0.0
S1212 S 0.14257 0.05499 0.36839 0.0
N1213 N 0.18139 0.04496 0.34888 0.0
N1214 N 0.13219 0.0263 0.39653 0.0
C1215 C 0.16101 1.00705 0.39113 0.0
C1216 C 0.18783 0.01721 0.36528 0.0
C1217 C 0.84116 0.54242 0.40576 0.0
C1218 C 0.84308 0.5261 0.37363 0.0
C1219 C 0.87262 0.55038 0.42324 0.0
C1220 C 0.90674 0.54148 0.40943 0.0
H1221 H 0.81522 0.54937 0.4172 0.0
H1222 H 0.87022 0.56325 0.44778 0.0
S1223 S 0.92611 0.50001 0.32532 0.0
N1224 N 0.8817 0.5028 0.32806 0.0
N1225 N 0.9406 0.5166 0.36121 0.0
C1226 C 0.90883 0.52511 0.37734 0.0
C1227 C 0.87703 0.51768 0.35935 0.0
C1228 C 0.1898 0.28505 0.02297 0.0
C1229 C 0.22621 0.28646 0.0312 0.0
C1230 C 0.16934 0.25477 0.02185 0.0
C1231 C 0.18433 0.2251 0.0298 0.0
H1232 H 0.17715 0.3075 1.01729 0.0
H1233 H 0.14154 0.25442 1.01472 0.0
S1234 S 0.27816 0.21578 0.05364 0.0
N1235 N 0.27644 0.2559 0.04764 0.0
N1236 N 0.23741 0.19892 0.04642 0.0
C1237 C 0.2204 0.22627 0.03883 0.0
C1238 C 0.24149 0.25702 0.03933 0.0
C1239 C 0.15523 0.83154 0.51427 0.0
C1240 C 0.1603 0.80484 0.49068 0.0
C1241 C 0.13328 0.8577 0.50787 0.0
C1242 C 0.11505 0.85854 0.47759 0.0
H1243 H 0.16933 0.83286 0.53751 0.0
H1244 H 0.13139 0.87791 0.52664 0.0
S1245 S 0.1163 0.79306 0.40882 0.0
N1246 N 0.14277 0.77976 0.43681 0.0
N1247 N 0.10209 0.82875 0.42466 0.0
C1248 C 0.11881 0.83136 0.45433 0.0
C1249 C 0.14123 0.80471 0.46085 0.0
C1250 C 0.87356 0.72757 0.51906 0.0
C1251 C 0.87002 0.75081 0.4939 0.0
C1252 C 0.89876 0.70277 0.51452 0.0
C1253 C 0.92155 0.70063 0.48489 0.0
H1254 H 0.85682 0.72861 0.54249 0.0
H1255 H 0.90131 0.68586 0.53467 0.0
S1256 S 0.92264 0.75369 0.41066 0.0
N1257 N 0.89116 0.76859 0.43749 0.0
N1258 N 0.93833 0.72235 0.42959 0.0
C1259 C 0.91781 0.72295 0.45931 0.0
C1260 C 0.89208 0.7479 0.46362 0.0
C1261 C 0.34968 0.83064 0.52521 0.0
C1262 C 0.35955 0.80156 0.53948 0.0
C1263 C 0.36944 0.86085 0.53051 0.0
C1264 C 0.39973 0.86334 0.55064 0.0
H1265 H 0.3263 0.83002 0.50998 0.0
H1266 H 0.36039 0.88257 0.5191 0.0
S1267 S 0.43724 0.79372 0.59275 0.0
N1268 N 0.40203 0.77643 0.57357 0.0
N1269 N 0.43897 0.83353 0.58429 0.0
C1270 C 0.41 0.83427 0.56496 0.0
C1271 C 0.38999 0.80332 0.55916 0.0
C1272 C 0.53774 0.62983 0.7443 0.0
C1273 C 0.54218 0.66458 0.74205 0.0
C1274 C 0.54121 0.60866 0.71519 0.0
C1275 C 0.54979 0.62154 0.6829 0.0
H1276 H 0.53273 0.61896 0.76886 0.0
H1277 H 0.53863 0.58208 0.71819 0.0
S1278 S 0.5617 0.71117 0.66375 0.0
N1279 N 0.55373 0.71095 0.70528 0.0
N1280 N 0.5603 0.6718 0.65063 0.0
C1281 C 0.55308 0.65644 0.68046 0.0
C1282 C 0.54937 0.67777 0.71001 0.0
C1283 C 0.50269 0.86643 0.74333 0.0
C1284 C 0.52469 0.84038 0.7329 0.0
C1285 C 0.49642 0.89116 0.7213 0.0
C1286 C 0.5115 0.89047 0.68786 0.0
H1287 H 0.4903 0.86777 0.76879 0.0
H1288 H 0.47913 0.91073 0.73034 0.0
S1289 S 0.56977 0.82683 0.64753 0.0
N1290 N 0.56093 0.81467 0.68675 0.0
N1291 N 0.54866 0.86145 0.64485 0.0
C1292 C 0.53308 0.86431 0.67676 0.0
C1293 C 0.53991 0.83921 0.69946 0.0
C1294 C 0.56108 0.37395 0.80541 0.0
C1295 C 0.55874 0.34219 0.81876 0.0
C1296 C 0.56281 0.40218 0.82691 0.0
C1297 C 0.56334 0.39905 0.86198 0.0
H1298 H 0.56059 0.37685 0.77836 0.0
H1299 H 0.56351 0.42651 0.81629 0.0
S1300 S 0.56045 0.32119 0.90867 0.0
N1301 N 0.55843 0.30888 0.86845 0.0
N1302 N 0.5629 0.36217 0.90911 0.0
C1303 C 0.56252 0.36737 0.87542 0.0
C1304 C 0.55996 0.33875 0.85364 0.0
C1305 C 0.53398 0.17425 0.83532 0.0
C1306 C 0.5382 0.15684 0.804 0.0
C1307 C 0.53409 0.15805 0.86615 0.0
C1308 C 0.53827 0.12354 0.86722 0.0
H1309 H 0.52981 0.20059 0.83599 0.0
H1310 H 0.5301 0.17279 0.88943 0.0
S1311 S 0.55012 0.06659 0.79173 0.0
N1312 N 0.54668 0.10329 0.77559 0.0
N1313 N 0.5471 0.07271 0.83335 0.0
C1314 C 0.54321 0.10595 0.83587 0.0
C1315 C 0.54304 0.12257 0.80439 0.0
C1316 C 0.72539 0.54382 0.65612 0.0
C1317 C 0.72107 0.52967 0.68818 0.0
C1318 C 0.69545 0.54799 0.63688 0.0
C1319 C 0.66011 0.53716 0.64842 0.0
H1320 H 0.75212 0.55226 0.64608 0.0
H1321 H 0.70003 0.55988 0.61281 0.0
S1322 S 0.6347 0.49657 0.7298 0.0
N1323 N 0.67908 0.50386 0.73014 0.0
N1324 N 0.62287 0.51043 0.6936 0.0
C1325 C 0.65566 0.52171 0.67986 0.0
C1326 C 0.68611 0.51818 0.69976 0.0
C1327 C 0.345 0.98834 0.69193 0.0
C1328 C 0.30804 0.99066 0.68745 0.0
C1329 C 0.36974 0.98242 0.66435 0.0
C1330 C 0.35901 0.97859 0.63057 0.0
H1331 H 0.35485 0.9906 0.7172 0.0
H1332 H 0.39783 0.98054 0.66986 0.0
S1333 S 0.26481 0.98361 0.6051 0.0
N1334 N 0.26143 0.98953 0.64677 0.0
N1335 N 0.30815 0.97859 0.59459 0.0
C1336 C 0.32206 0.98179 0.62557 0.0
C1337 C 0.2966 0.98771 0.65402 0.0
C1338 C 0.7461 0.49464 0.90819 0.0
C1339 C 0.74154 0.51926 0.88472 0.0
C1340 C 0.72159 0.48989 0.93648 0.0
C1341 C 0.69189 0.50979 0.94242 0.0
H1342 H 0.76783 0.4779 0.90379 0.0
H1343 H 0.72442 0.46909 0.95236 0.0
S1344 S 0.66872 0.57891 0.89056 0.0
N1345 N 0.70568 0.56484 0.87083 0.0
N1346 N 0.66022 0.55603 0.9241 0.0
C1347 C 0.68829 0.53571 0.92051 0.0
C1348 C 0.71301 0.54051 0.89169 0.0
C1349 C 0.3892 0.01666 0.88504 0.0
C1350 C 0.35981 0.03723 0.88777 0.0
C1351 C 0.42013 0.02423 0.90313 0.0
C1352 C 0.42312 0.0528 0.92469 0.0
H1353 H 0.38888 0.99506 0.86788 0.0
H1354 H 0.44235 1.00796 0.89923 0.0
S1355 S 0.35185 0.11284 0.94367 0.0
N1356 N 0.33413 0.0858 0.91599 0.0
N1357 N 0.39259 0.10045 0.94963 0.0
C1358 C 0.39328 0.07292 0.92873 0.0
C1359 C 0.36163 0.06508 0.91033 0.0
C1360 C 0.64975 0.75759 0.54787 0.0
C1361 C 0.68007 0.76463 0.52543 0.0
C1362 C 0.63668 0.72469 0.55331 0.0
C1363 C 0.65272 0.69794 0.53552 0.0
H1364 H 0.63741 0.7775 0.56272 0.0
H1365 H 0.61535 0.72016 0.57285 0.0
S1366 S 0.72589 0.70443 0.46686 0.0
N1367 N 0.72189 0.74293 0.48155 0.0
N1368 N 0.69501 0.68168 0.48891 0.0
C1369 C 0.67992 0.70526 0.50983 0.0
C1370 C 0.69409 0.73848 0.50537 0.0
C1371 C 0.66427 0.33911 0.98558 0.0
C1372 C 0.68193 0.3341 1.01532 0.0
C1373 C 0.64414 0.36727 0.98252 0.0
C1374 C 0.64073 0.39143 1.00915 0.0
H1375 H 0.66734 0.32191 0.964 0.0
H1376 H 0.63224 0.37064 0.95865 0.0
S1377 S 0.67791 0.38729 0.09401 0.0
N1378 N 0.69183 0.35384 0.07296 0.0
N1379 N 0.65418 0.40634 0.06755 0.0
C1380 C 0.65667 0.38557 0.03969 0.0
C1381 C 0.67721 0.35708 0.04267 0.0
C1382 C 0.40194 0.24871 0.03896 0.0
C1383 C 0.40893 0.27533 1.01711 0.0
C1384 C 0.42086 0.21973 0.0343 0.0
C1385 C 0.44687 0.21597 1.00726 0.0
H1386 H 0.38164 0.25017 0.05983 0.0
H1387 H 0.41548 0.20015 0.05215 0.0
S1388 S 0.47635 0.27779 0.94336 0.0
N1389 N 0.445 0.29599 0.96779 0.0
N1390 N 0.47928 0.24069 0.95868 0.0
C1391 C 0.4538 0.24182 0.98488 0.0
C1392 C 0.43512 0.27169 0.98988 0.0
C1393 C 0.91883 0.3154 0.06075 0.0
C1394 C 0.88635 0.31425 0.04385 0.0
C1395 C 0.93778 0.3459 0.06818 0.0
C1396 C 0.92511 0.37592 0.05823 0.0
H1397 H 0.9295 0.29262 0.06826 0.0
H1398 H 0.96283 0.34593 0.08095 0.0
S1399 S 0.84034 0.38637 1.01544 0.0
N1400 N 0.84141 0.34596 0.01944 0.0
N1401 N 0.87746 0.40272 0.03205 0.0
C1402 C 0.8925 0.37498 0.04173 0.0
C1403 C 0.87301 0.34428 0.03487 0.0
loop_
_geom_bond_atom_site_label_1
_geom_bond_atom_site_label_2
_geom_bond_distance
_geom_bond_site_symmetry_2
_ccdc_geom_bond_type
C0 C1 1.443 . S
C0 N4 1.376 . S
C0 C38 1.389 1_655 S
C1 C0 1.443 . S
C1 C2 1.340 . S
C1 H41 0.951 . S
C2 C1 1.340 . S
C2 C3 1.439 . S
C2 H42 0.950 . S
C3 C2 1.439 . S
C3 N4 1.374 . S
C3 C37 1.395 . S
N4 C0 1.376 . S
N4 C3 1.374 . S
N4 Co5 2.008 1_655 S
Co5 N4 2.008 1_455 S
Co5 N6 1.995 . S
Co5 N11 2.008 . S
Co5 N16 1.995 . S
Co5 N21 2.282 . S
Co5 N27 2.282 . S
N6 Co5 1.995 . S
N6 C7 1.376 1_455 S
N6 C10 1.383 . S
C7 N6 1.376 1_655 S
C7 C8 1.446 . S
C7 C37 1.391 . S
C8 C7 1.446 . S
C8 C9 1.339 . S
C8 H43 0.949 . S
C9 C8 1.339 . S
C9 C10 1.439 1_655 S
C9 H44 0.950 . S
C10 N6 1.383 . S
C10 C9 1.439 1_455 S
C10 C39 1.392 . S
N11 Co5 2.008 . S
N11 C12 1.376 . S
N11 C15 1.374 . S
C12 N11 1.376 . S
C12 C13 1.443 . S
C12 C39 1.389 . S
C13 C12 1.443 . S
C13 C14 1.340 . S
C13 H45 0.951 . S
C14 C13 1.340 . S
C14 C15 1.439 . S
C14 H46 0.950 . S
C15 N11 1.374 . S
C15 C14 1.439 . S
C15 C40 1.395 . S
N16 Co5 1.995 . S
N16 C17 1.376 . S
N16 C20 1.383 . S
C17 N16 1.376 . S
C17 C18 1.446 . S
C17 C40 1.391 . S
C18 C17 1.446 . S
C18 C19 1.339 . S
C18 H47 0.949 . S
C19 C18 1.339 . S
C19 C20 1.439 . S
C19 H48 0.950 . S
C20 N16 1.383 . S
C20 C19 1.439 . S
C20 C38 1.392 . S
N21 Co5 2.282 . S
N21 C24 1.332 . S
N21 C26 1.332 . S
C22 C23 1.386 . S
C22 C25 1.388 . S
C23 C22 1.386 . S
C23 C24 1.382 . S
C23 H49 0.950 . S
C24 N21 1.332 . S
C24 C23 1.382 . S
C24 H35 0.952 . S
C25 C22 1.388 . S
C25 C26 1.382 . S
C25 H50 0.950 . S
C26 N21 1.332 . S
C26 C25 1.382 . S
C26 H36 0.948 1_455 S
N27 Co5 2.282 . S
N27 C31 1.332 1_455 S
N27 C32 1.332 . S
C28 C29 1.388 . S
C28 C32 1.382 . S
C28 H51 0.950 . S
C29 C28 1.388 . S
C29 C30 1.386 1_455 S
C30 C29 1.386 1_655 S
C30 C31 1.382 . S
C30 H52 0.950 . S
C31 N27 1.332 1_655 S
C31 C30 1.382 . S
C31 H33 0.952 . S
C32 N27 1.332 . S
C32 C28 1.382 . S
C32 H34 0.948 . S
H33 C31 0.952 . S
H34 C32 0.948 . S
H35 C24 0.952 . S
H36 C26 0.948 1_655 S
C37 C3 1.395 . S
C37 C7 1.391 . S
C38 C0 1.389 1_455 S
C38 C20 1.392 . S
C39 C10 1.392 . S
C39 C12 1.389 . S
C40 C15 1.395 . S
C40 C17 1.391 . S
H41 C1 0.951 . S
H42 C2 0.950 . S
H43 C8 0.949 . S
H44 C9 0.950 . S
H45 C13 0.951 . S
H46 C14 0.950 . S
H47 C18 0.949 . S
H48 C19 0.950 . S
H49 C23 0.950 . S
H50 C25 0.950 . S
H51 C28 0.950 . S
H52 C30 0.950 . S
C53 C54 1.443 . S
C53 N57 1.376 . S
C53 C91 1.389 . S
C54 C53 1.443 . S
C54 C55 1.340 . S
C54 H94 0.951 . S
C55 C54 1.340 . S
C55 C56 1.439 . S
C55 H95 0.950 . S
C56 C55 1.439 . S
C56 N57 1.374 . S
C56 C90 1.395 . S
N57 C53 1.376 . S
N57 C56 1.374 . S
N57 Co58 2.008 1_655 S
Co58 N57 2.008 1_455 S
Co58 N59 1.995 1_455 S
Co58 N64 2.008 . S
Co58 N69 1.995 . S
Co58 N74 2.282 . S
Co58 N80 2.282 . S
N59 Co58 1.995 1_655 S
N59 C60 1.376 . S
N59 C63 1.383 . S
C60 N59 1.376 . S
C60 C61 1.446 . S
C60 C90 1.391 . S
C61 C60 1.446 . S
C61 C62 1.339 . S
C61 H96 0.949 . S
C62 C61 1.339 . S
C62 C63 1.439 . S
C62 H97 0.950 . S
C63 N59 1.383 . S
C63 C62 1.439 . S
C63 C92 1.392 1_655 S
N64 Co58 2.008 . S
N64 C65 1.376 . S
N64 C68 1.374 . S
C65 N64 1.376 . S
C65 C66 1.443 . S
C65 C92 1.389 . S
C66 C65 1.443 . S
C66 C67 1.340 . S
C66 H98 0.951 . S
C67 C66 1.340 . S
C67 C68 1.439 . S
C67 H99 0.950 . S
C68 N64 1.374 . S
C68 C67 1.439 . S
C68 C93 1.395 . S
N69 Co58 1.995 . S
N69 C70 1.376 . S
N69 C73 1.383 . S
C70 N69 1.376 . S
C70 C71 1.446 . S
C70 C93 1.391 . S
C71 C70 1.446 . S
C71 C72 1.339 . S
C71 H100 0.949 . S
C72 C71 1.339 . S
C72 C73 1.439 . S
C72 H101 0.950 . S
C73 N69 1.383 . S
C73 C72 1.439 . S
C73 C91 1.392 1_455 S
N74 Co58 2.282 . S
N74 C77 1.332 . S
N74 C79 1.332 1_455 S
C75 C76 1.386 . S
C75 C78 1.388 1_455 S
C76 C75 1.386 . S
C76 C77 1.382 . S
C76 H102 0.950 . S
C77 N74 1.332 . S
C77 C76 1.382 . S
C77 H88 0.952 . S
C78 C75 1.388 1_655 S
C78 C79 1.382 . S
C78 H103 0.950 . S
C79 N74 1.332 1_655 S
C79 C78 1.382 . S
C79 H89 0.948 . S
N80 Co58 2.282 . S
N80 C84 1.332 1_455 S
N80 C85 1.332 . S
C81 C82 1.388 1_455 S
C81 C85 1.382 . S
C81 H104 0.950 . S
C82 C81 1.388 1_655 S
C82 C83 1.386 . S
C83 C82 1.386 . S
C83 C84 1.382 . S
C83 H105 0.950 . S
C84 N80 1.332 1_655 S
C84 C83 1.382 . S
C84 H86 0.952 . S
C85 N80 1.332 . S
C85 C81 1.382 . S
C85 H87 0.948 . S
H86 C84 0.952 . S
H87 C85 0.948 . S
H88 C77 0.952 . S
H89 C79 0.948 . S
C90 C56 1.395 . S
C90 C60 1.391 . S
C91 C53 1.389 . S
C91 C73 1.392 1_655 S
C92 C63 1.392 1_455 S
C92 C65 1.389 . S
C93 C68 1.395 . S
C93 C70 1.391 . S
H94 C54 0.951 . S
H95 C55 0.950 . S
H96 C61 0.949 . S
H97 C62 0.950 . S
H98 C66 0.951 . S
H99 C67 0.950 . S
H100 C71 0.949 . S
H101 C72 0.950 . S
H102 C76 0.950 . S
H103 C78 0.950 . S
H104 C81 0.950 . S
H105 C83 0.950 . S
C106 C107 1.443 . S
C106 N110 1.376 . S
C106 C144 1.389 . S
C107 C106 1.443 . S
C107 C108 1.340 . S
C107 H147 0.951 . S
C108 C107 1.340 . S
C108 C109 1.439 . S
C108 H148 0.950 . S
C109 C108 1.439 . S
C109 N110 1.374 . S
C109 C143 1.395 . S
N110 C106 1.376 . S
N110 C109 1.374 . S
N110 Co111 2.008 1_565 S
Co111 N110 2.008 1_545 S
Co111 N112 1.995 1_545 S
Co111 N117 2.008 . S
Co111 N122 1.995 . S
Co111 N127 2.282 . S
Co111 N133 2.282 . S
N112 Co111 1.995 1_565 S
N112 C113 1.376 . S
N112 C116 1.383 1_565 S
C113 N112 1.376 . S
C113 C114 1.446 . S
C113 C143 1.391 . S
C114 C113 1.446 . S
C114 C115 1.339 . S
C114 H149 0.949 . S
C115 C114 1.339 . S
C115 C116 1.439 1_565 S
C115 H150 0.950 . S
C116 N112 1.383 1_545 S
C116 C115 1.439 1_545 S
C116 C145 1.392 . S
N117 Co111 2.008 . S
N117 C118 1.376 . S
N117 C121 1.374 . S
C118 N117 1.376 . S
C118 C119 1.443 . S
C118 C145 1.389 . S
C119 C118 1.443 . S
C119 C120 1.340 . S
C119 H151 0.951 . S
C120 C119 1.340 . S
C120 C121 1.439 . S
C120 H152 0.950 . S
C121 N117 1.374 . S
C121 C120 1.439 . S
C121 C146 1.395 . S
N122 Co111 1.995 . S
N122 C123 1.376 . S
N122 C126 1.383 . S
C123 N122 1.376 . S
C123 C124 1.446 . S
C123 C146 1.391 . S
C124 C123 1.446 . S
C124 C125 1.339 . S
C124 H153 0.949 . S
C125 C124 1.339 . S
C125 C126 1.439 . S
C125 H154 0.950 . S
C126 N122 1.383 . S
C126 C125 1.439 . S
C126 C144 1.392 1_545 S
N127 Co111 2.282 . S
N127 C130 1.332 . S
N127 C132 1.332 . S
C128 C129 1.386 . S
C128 C131 1.388 . S
C129 C128 1.386 . S
C129 C130 1.382 . S
C129 H155 0.950 . S
C130 N127 1.332 . S
C130 C129 1.382 . S
C130 H141 0.952 . S
C131 C128 1.388 . S
C131 C132 1.382 . S
C131 H156 0.930 1_545 S
C132 N127 1.332 . S
C132 C131 1.382 . S
C132 H142 0.948 1_545 S
N133 Co111 2.282 . S
N133 C137 1.332 1_545 S
N133 C138 1.332 . S
C134 C135 1.388 1_545 S
C134 C138 1.382 . S
C134 H157 0.950 . S
C135 C134 1.388 1_565 S
C135 C136 1.386 . S
C136 C135 1.386 . S
C136 C137 1.382 . S
C136 H158 0.950 . S
C137 N133 1.332 1_565 S
C137 C136 1.382 . S
C137 H139 0.952 . S
C138 N133 1.332 . S
C138 C134 1.382 . S
C138 H140 0.948 . S
H139 C137 0.952 . S
H140 C138 0.948 . S
H141 C130 0.952 . S
H142 C132 0.948 1_565 S
C143 C109 1.395 . S
C143 C113 1.391 . S
C144 C106 1.389 . S
C144 C126 1.392 1_565 S
C145 C116 1.392 . S
C145 C118 1.389 . S
C146 C121 1.395 . S
C146 C123 1.391 . S
H147 C107 0.951 . S
H148 C108 0.950 . S
H149 C114 0.949 . S
H150 C115 0.950 . S
H151 C119 0.951 . S
H152 C120 0.950 . S
H153 C124 0.949 . S
H154 C125 0.950 . S
H155 C129 0.950 . S
H156 C131 0.930 1_565 S
H157 C134 0.950 . S
H158 C136 0.950 . S
C159 C160 1.443 . S
C159 N163 1.376 . S
C159 C197 1.389 . S
C160 C159 1.443 . S
C160 C161 1.340 . S
C160 H200 0.951 . S
C161 C160 1.340 . S
C161 C162 1.439 . S
C161 H201 0.950 . S
C162 C161 1.439 . S
C162 N163 1.374 . S
C162 C196 1.395 . S
N163 C159 1.376 . S
N163 C162 1.374 . S
N163 Co164 2.008 . S
Co164 N163 2.008 . S
Co164 N165 1.995 . S
Co164 N170 2.008 . S
Co164 N175 1.995 . S
Co164 N180 2.282 . S
Co164 N186 2.282 . S
N165 Co164 1.995 . S
N165 C166 1.376 . S
N165 C169 1.383 . S
C166 N165 1.376 . S
C166 C167 1.446 . S
C166 C196 1.391 . S
C167 C166 1.446 . S
C167 C168 1.339 . S
C167 H202 0.949 . S
C168 C167 1.339 . S
C168 C169 1.439 . S
C168 H203 0.950 . S
C169 N165 1.383 . S
C169 C168 1.439 . S
C169 C198 1.392 . S
N170 Co164 2.008 . S
N170 C171 1.376 . S
N170 C174 1.374 . S
C171 N170 1.376 . S
C171 C172 1.443 . S
C171 C198 1.389 . S
C172 C171 1.443 . S
C172 C173 1.340 . S
C172 H204 0.951 . S
C173 C172 1.340 . S
C173 C174 1.439 . S
C173 H205 0.950 . S
C174 N170 1.374 . S
C174 C173 1.439 . S
C174 C199 1.395 . S
N175 Co164 1.995 . S
N175 C176 1.376 . S
N175 C179 1.383 . S
C176 N175 1.376 . S
C176 C177 1.446 . S
C176 C199 1.391 . S
C177 C176 1.446 . S
C177 C178 1.339 . S
C177 H206 0.949 . S
C178 C177 1.339 . S
C178 C179 1.439 . S
C178 H207 0.950 . S
C179 N175 1.383 . S
C179 C178 1.439 . S
C179 C197 1.392 . S
N180 Co164 2.282 . S
N180 C183 1.332 . S
N180 C185 1.332 . S
C181 C182 1.386 . S
C181 C184 1.388 . S
C182 C181 1.386 . S
C182 C183 1.382 . S
C182 H208 0.950 . S
C183 N180 1.332 . S
C183 C182 1.382 . S
C183 H194 0.952 . S
C184 C181 1.388 . S
C184 C185 1.382 . S
C184 H209 0.950 . S
C185 N180 1.332 . S
C185 C184 1.382 . S
C185 H195 0.948 . S
N186 Co164 2.282 . S
N186 C190 1.332 . S
N186 C191 1.332 . S
C187 C188 1.388 . S
C187 C191 1.382 . S
C187 H210 0.950 . S
C188 C187 1.388 . S
C188 C189 1.386 . S
C189 C188 1.386 . S
C189 C190 1.382 . S
C189 H211 0.950 . S
C190 N186 1.332 . S
C190 C189 1.382 . S
C190 H192 0.952 . S
C191 N186 1.332 . S
C191 C187 1.382 . S
C191 H193 0.948 . S
H192 C190 0.952 . S
H193 C191 0.948 . S
H194 C183 0.952 . S
H195 C185 0.948 . S
C196 C162 1.395 . S
C196 C166 1.391 . S
C197 C159 1.389 . S
C197 C179 1.392 . S
C198 C169 1.392 . S
C198 C171 1.389 . S
C199 C174 1.395 . S
C199 C176 1.391 . S
H200 C160 0.951 . S
H201 C161 0.950 . S
H202 C167 0.949 . S
H203 C168 0.950 . S
H204 C172 0.951 . S
H205 C173 0.950 . S
H206 C177 0.949 . S
H207 C178 0.950 . S
H208 C182 0.950 . S
H209 C184 0.950 . S
H210 C187 0.950 . S
H211 C189 0.950 . S
C212 C213 1.443 . S
C212 N216 1.376 . S
C212 C250 1.389 1_556 S
C213 C212 1.443 . S
C213 C214 1.340 . S
C213 H253 0.951 . S
C214 C213 1.340 . S
C214 C215 1.439 . S
C214 H254 0.950 . S
C215 C214 1.439 . S
C215 N216 1.374 . S
C215 C249 1.395 . S
N216 C212 1.376 . S
N216 C215 1.374 . S
N216 Co217 2.008 1_556 S
Co217 N216 2.008 1_554 S
Co217 N218 1.995 1_554 S
Co217 N223 2.008 . S
Co217 N228 1.995 . S
Co217 N233 2.282 . S
Co217 N239 2.282 . S
N218 Co217 1.995 1_556 S
N218 C219 1.376 . S
N218 C222 1.383 . S
C219 N218 1.376 . S
C219 C220 1.446 . S
C219 C249 1.391 . S
C220 C219 1.446 . S
C220 C221 1.339 . S
C220 H255 0.949 . S
C221 C220 1.339 . S
C221 C222 1.439 . S
C221 H256 0.950 . S
C222 N218 1.383 . S
C222 C221 1.439 . S
C222 C251 1.392 1_556 S
N223 Co217 2.008 . S
N223 C224 1.376 . S
N223 C227 1.374 . S
C224 N223 1.376 . S
C224 C225 1.443 . S
C224 C251 1.389 . S
C225 C224 1.443 . S
C225 C226 1.340 . S
C225 H257 0.951 . S
C226 C225 1.340 . S
C226 C227 1.439 . S
C226 H258 0.950 . S
C227 N223 1.374 . S
C227 C226 1.439 . S
C227 C252 1.395 . S
N228 Co217 1.995 . S
N228 C229 1.376 . S
N228 C232 1.383 . S
C229 N228 1.376 . S
C229 C230 1.446 . S
C229 C252 1.391 . S
C230 C229 1.446 . S
C230 C231 1.339 . S
C230 H259 0.949 . S
C231 C230 1.339 . S
C231 C232 1.439 . S
C231 H260 0.950 . S
C232 N228 1.383 . S
C232 C231 1.439 . S
C232 C250 1.392 . S
N233 Co217 2.282 . S
N233 C236 1.332 . S
N233 C238 1.332 . S
C234 C235 1.386 . S
C234 C237 1.388 . S
C235 C234 1.386 . S
C235 C236 1.382 . S
C235 H261 0.950 . S
C236 N233 1.332 . S
C236 C235 1.382 . S
C236 H247 0.952 . S
C237 C234 1.388 . S
C237 C238 1.382 . S
C237 H262 0.950 1_554 S
C238 N233 1.332 . S
C238 C237 1.382 . S
C238 H248 0.948 1_554 S
N239 Co217 2.282 . S
N239 C243 1.332 1_554 S
N239 C244 1.332 . S
C240 C241 1.388 1_554 S
C240 C244 1.382 . S
C240 H263 0.950 . S
C241 C240 1.388 1_556 S
C241 C242 1.386 . S
C242 C241 1.386 . S
C242 C243 1.382 . S
C242 H264 0.950 . S
C243 N239 1.332 1_556 S
C243 C242 1.382 . S
C243 H245 0.952 . S
C244 N239 1.332 . S
C244 C240 1.382 . S
C244 H246 0.948 . S
H245 C243 0.952 . S
H246 C244 0.948 . S
H247 C236 0.952 . S
H248 C238 0.948 1_556 S
C249 C215 1.395 . S
C249 C219 1.391 . S
C250 C212 1.389 1_554 S
C250 C232 1.392 . S
C251 C222 1.392 1_554 S
C251 C224 1.389 . S
C252 C227 1.395 . S
C252 C229 1.391 . S
H253 C213 0.951 . S
H254 C214 0.950 . S
H255 C220 0.949 . S
H256 C221 0.950 . S
H257 C225 0.951 . S
H258 C226 0.950 . S
H259 C230 0.949 . S
H260 C231 0.950 . S
H261 C235 0.950 . S
H262 C237 0.950 1_556 S
H263 C240 0.950 . S
H264 C242 0.950 . S
C265 C266 1.443 . S
C265 N269 1.376 . S
C265 C303 1.389 . S
C266 C265 1.443 . S
C266 C267 1.340 . S
C266 H306 0.951 . S
C267 C266 1.340 . S
C267 C268 1.439 . S
C267 H307 0.950 . S
C268 C267 1.439 . S
C268 N269 1.374 . S
C268 C302 1.395 . S
N269 C265 1.376 . S
N269 C268 1.374 . S
N269 Co270 2.008 . S
Co270 N269 2.008 . S
Co270 N271 1.995 . S
Co270 N276 2.008 . S
Co270 N281 1.995 . S
Co270 N286 2.282 . S
Co270 N292 2.282 . S
N271 Co270 1.995 . S
N271 C272 1.376 . S
N271 C275 1.383 . S
C272 N271 1.376 . S
C272 C273 1.446 . S
C272 C302 1.391 . S
C273 C272 1.446 . S
C273 C274 1.339 . S
C273 H308 0.949 . S
C274 C273 1.339 . S
C274 C275 1.439 . S
C274 H309 0.950 . S
C275 N271 1.383 . S
C275 C274 1.439 . S
C275 C304 1.392 . S
N276 Co270 2.008 . S
N276 C277 1.376 . S
N276 C280 1.374 . S
C277 N276 1.376 . S
C277 C278 1.443 . S
C277 C304 1.389 . S
C278 C277 1.443 . S
C278 C279 1.340 . S
C278 H310 0.951 . S
C279 C278 1.340 . S
C279 C280 1.439 . S
C279 H311 0.950 . S
C280 N276 1.374 . S
C280 C279 1.439 . S
C280 C305 1.395 . S
N281 Co270 1.995 . S
N281 C282 1.376 . S
N281 C285 1.383 . S
C282 N281 1.376 . S
C282 C283 1.446 . S
C282 C305 1.391 . S
C283 C282 1.446 . S
C283 C284 1.339 . S
C283 H312 0.949 . S
C284 C283 1.339 . S
C284 C285 1.439 . S
C284 H313 0.950 . S
C285 N281 1.383 . S
C285 C284 1.439 . S
C285 C303 1.392 . S
N286 Co270 2.282 . S
N286 C289 1.332 . S
N286 C291 1.332 . S
C287 C288 1.386 . S
C287 C290 1.388 . S
C288 C287 1.386 . S
C288 C289 1.382 . S
C288 H314 0.950 . S
C289 N286 1.332 . S
C289 C288 1.382 . S
C289 H300 0.952 . S
C290 C287 1.388 . S
C290 C291 1.382 . S
C290 H315 0.950 . S
C291 N286 1.332 . S
C291 C290 1.382 . S
C291 H301 0.948 . S
N292 Co270 2.282 . S
N292 C296 1.332 . S
N292 C297 1.332 . S
C293 C294 1.388 . S
C293 C297 1.382 . S
C293 H316 0.950 . S
C294 C293 1.388 . S
C294 C295 1.386 . S
C295 C294 1.386 . S
C295 C296 1.382 . S
C295 H317 0.950 . S
C296 N292 1.332 . S
C296 C295 1.382 . S
C296 H298 0.952 . S
C297 N292 1.332 . S
C297 C293 1.382 . S
C297 H299 0.948 . S
H298 C296 0.952 . S
H299 C297 0.948 . S
H300 C289 0.952 . S
H301 C291 0.948 . S
C302 C268 1.395 . S
C302 C272 1.391 . S
C303 C265 1.389 . S
C303 C285 1.392 . S
C304 C275 1.392 . S
C304 C277 1.389 . S
C305 C280 1.395 . S
C305 C282 1.391 . S
H306 C266 0.951 . S
H307 C267 0.950 . S
H308 C273 0.949 . S
H309 C274 0.950 . S
H310 C278 0.951 . S
H311 C279 0.950 . S
H312 C283 0.949 . S
H313 C284 0.950 . S
H314 C288 0.950 . S
H315 C290 0.950 . S
H316 C293 0.950 . S
H317 C295 0.950 . S
C318 C319 1.443 . S
C318 N322 1.376 . S
C318 C356 1.389 . S
C319 C318 1.443 . S
C319 C320 1.340 . S
C319 H359 0.951 . S
C320 C319 1.340 . S
C320 C321 1.439 . S
C320 H360 0.950 . S
C321 C320 1.439 . S
C321 N322 1.374 . S
C321 C355 1.395 . S
N322 C318 1.376 . S
N322 C321 1.374 . S
N322 Co323 2.008 . S
Co323 N322 2.008 . S
Co323 N324 1.995 . S
Co323 N329 2.008 . S
Co323 N334 1.995 . S
Co323 N339 2.282 . S
Co323 N345 2.282 . S
N324 Co323 1.995 . S
N324 C325 1.376 . S
N324 C328 1.383 . S
C325 N324 1.376 . S
C325 C326 1.446 . S
C325 C355 1.391 . S
C326 C325 1.446 . S
C326 C327 1.339 . S
C326 H361 0.949 . S
C327 C326 1.339 . S
C327 C328 1.439 . S
C327 H362 0.950 . S
C328 N324 1.383 . S
C328 C327 1.439 . S
C328 C357 1.392 . S
N329 Co323 2.008 . S
N329 C330 1.376 . S
N329 C333 1.374 . S
C330 N329 1.376 . S
C330 C331 1.443 . S
C330 C357 1.389 . S
C331 C330 1.443 . S
C331 C332 1.340 . S
C331 H363 0.951 . S
C332 C331 1.340 . S
C332 C333 1.439 . S
C332 H364 0.950 . S
C333 N329 1.374 . S
C333 C332 1.439 . S
C333 C358 1.395 . S
N334 Co323 1.995 . S
N334 C335 1.376 . S
N334 C338 1.383 . S
C335 N334 1.376 . S
C335 C336 1.446 . S
C335 C358 1.391 . S
C336 C335 1.446 . S
C336 C337 1.339 . S
C336 H365 0.949 . S
C337 C336 1.339 . S
C337 C338 1.439 . S
C337 H366 0.950 . S
C338 N334 1.383 . S
C338 C337 1.439 . S
C338 C356 1.392 . S
N339 Co323 2.282 . S
N339 C342 1.332 . S
N339 C344 1.332 . S
C340 C341 1.386 . S
C340 C343 1.388 . S
C341 C340 1.386 . S
C341 C342 1.382 . S
C341 H367 0.950 . S
C342 N339 1.332 . S
C342 C341 1.382 . S
C342 H353 0.952 . S
C343 C340 1.388 . S
C343 C344 1.382 . S
C343 H368 0.950 . S
C344 N339 1.332 . S
C344 C343 1.382 . S
C344 H354 0.948 . S
N345 Co323 2.282 . S
N345 C349 1.332 . S
N345 C350 1.332 . S
C346 C347 1.388 . S
C346 C350 1.382 . S
C346 H369 0.950 . S
C347 C346 1.388 . S
C347 C348 1.386 . S
C348 C347 1.386 . S
C348 C349 1.382 . S
C348 H370 0.950 . S
C349 N345 1.332 . S
C349 C348 1.382 . S
C349 H351 0.952 . S
C350 N345 1.332 . S
C350 C346 1.382 . S
C350 H352 0.948 . S
H351 C349 0.952 . S
H352 C350 0.948 . S
H353 C342 0.952 . S
H354 C344 0.948 . S
C355 C321 1.395 . S
C355 C325 1.391 . S
C356 C318 1.389 . S
C356 C338 1.392 . S
C357 C328 1.392 . S
C357 C330 1.389 . S
C358 C333 1.395 . S
C358 C335 1.391 . S
H359 C319 0.951 . S
H360 C320 0.950 . S
H361 C326 0.949 . S
H362 C327 0.950 . S
H363 C331 0.951 . S
H364 C332 0.950 . S
H365 C336 0.949 . S
H366 C337 0.950 . S
H367 C341 0.950 . S
H368 C343 0.950 . S
H369 C346 0.950 . S
H370 C348 0.950 . S
C371 C372 1.443 . S
C371 N375 1.376 . S
C371 C409 1.389 . S
C372 C371 1.443 . S
C372 C373 1.340 . S
C372 H412 0.951 . S
C373 C372 1.340 . S
C373 C374 1.439 . S
C373 H413 0.950 . S
C374 C373 1.439 . S
C374 N375 1.374 . S
C374 C408 1.395 . S
N375 C371 1.376 . S
N375 C374 1.374 . S
N375 Co376 2.008 . S
Co376 N375 2.008 . S
Co376 N377 1.995 . S
Co376 N382 2.008 . S
Co376 N387 1.995 . S
Co376 N392 2.282 . S
Co376 N398 2.282 . S
N377 Co376 1.995 . S
N377 C378 1.376 . S
N377 C381 1.383 . S
C378 N377 1.376 . S
C378 C379 1.446 . S
C378 C408 1.391 . S
C379 C378 1.446 . S
C379 C380 1.339 . S
C379 H414 0.949 . S
C380 C379 1.339 . S
C380 C381 1.439 . S
C380 H415 0.950 . S
C381 N377 1.383 . S
C381 C380 1.439 . S
C381 C410 1.392 . S
N382 Co376 2.008 . S
N382 C383 1.376 . S
N382 C386 1.374 . S
C383 N382 1.376 . S
C383 C384 1.443 . S
C383 C410 1.389 . S
C384 C383 1.443 . S
C384 C385 1.340 . S
C384 H416 0.951 . S
C385 C384 1.340 . S
C385 C386 1.439 . S
C385 H417 0.950 . S
C386 N382 1.374 . S
C386 C385 1.439 . S
C386 C411 1.395 . S
N387 Co376 1.995 . S
N387 C388 1.376 . S
N387 C391 1.383 . S
C388 N387 1.376 . S
C388 C389 1.446 . S
C388 C411 1.391 . S
C389 C388 1.446 . S
C389 C390 1.339 . S
C389 H418 0.949 . S
C390 C389 1.339 . S
C390 C391 1.439 . S
C390 H419 0.950 . S
C391 N387 1.383 . S
C391 C390 1.439 . S
C391 C409 1.392 . S
N392 Co376 2.282 . S
N392 C395 1.332 . S
N392 C397 1.332 . S
C393 C394 1.386 . S
C393 C396 1.388 . S
C394 C393 1.386 . S
C394 C395 1.382 . S
C394 H420 0.950 . S
C395 N392 1.332 . S
C395 C394 1.382 . S
C395 H406 0.952 . S
C396 C393 1.388 . S
C396 C397 1.382 . S
C396 H421 0.950 . S
C397 N392 1.332 . S
C397 C396 1.382 . S
C397 H407 0.948 . S
N398 Co376 2.282 . S
N398 C402 1.332 . S
N398 C403 1.332 . S
C399 C400 1.388 . S
C399 C403 1.382 . S
C399 H422 0.950 . S
C400 C399 1.388 . S
C400 C401 1.386 . S
C401 C400 1.386 . S
C401 C402 1.382 . S
C401 H423 0.950 . S
C402 N398 1.332 . S
C402 C401 1.382 . S
C402 H404 0.952 . S
C403 N398 1.332 . S
C403 C399 1.382 . S
C403 H405 0.948 . S
H404 C402 0.952 . S
H405 C403 0.948 . S
H406 C395 0.952 . S
H407 C397 0.948 . S
C408 C374 1.395 . S
C408 C378 1.391 . S
C409 C371 1.389 . S
C409 C391 1.392 . S
C410 C381 1.392 . S
C410 C383 1.389 . S
C411 C386 1.395 . S
C411 C388 1.391 . S
H412 C372 0.951 . S
H413 C373 0.950 . S
H414 C379 0.949 . S
H415 C380 0.950 . S
H416 C384 0.951 . S
H417 C385 0.950 . S
H418 C389 0.949 . S
H419 C390 0.950 . S
H420 C394 0.950 . S
H421 C396 0.950 . S
H422 C399 0.950 . S
H423 C401 0.950 . S
C424 C425 1.443 . S
C424 N428 1.376 . S
C424 C462 1.389 . S
C425 C424 1.443 . S
C425 C426 1.340 . S
C425 H465 0.951 . S
C426 C425 1.340 . S
C426 C427 1.439 . S
C426 H466 0.950 . S
C427 C426 1.439 . S
C427 N428 1.374 . S
C427 C461 1.395 . S
N428 C424 1.376 . S
N428 C427 1.374 . S
N428 Co429 2.008 . S
Co429 N428 2.008 . S
Co429 N430 1.995 . S
Co429 N435 2.008 . S
Co429 N440 1.995 . S
Co429 N445 2.282 . S
Co429 N451 2.282 . S
N430 Co429 1.995 . S
N430 C431 1.376 . S
N430 C434 1.383 . S
C431 N430 1.376 . S
C431 C432 1.446 . S
C431 C461 1.391 . S
C432 C431 1.446 . S
C432 C433 1.339 . S
C432 H467 0.949 . S
C433 C432 1.339 . S
C433 C434 1.439 . S
C433 H468 0.950 . S
C434 N430 1.383 . S
C434 C433 1.439 . S
C434 C463 1.392 . S
N435 Co429 2.008 . S
N435 C436 1.376 . S
N435 C439 1.374 . S
C436 N435 1.376 . S
C436 C437 1.443 . S
C436 C463 1.389 . S
C437 C436 1.443 . S
C437 C438 1.340 . S
C437 H469 0.951 . S
C438 C437 1.340 . S
C438 C439 1.439 . S
C438 H470 0.950 . S
C439 N435 1.374 . S
C439 C438 1.439 . S
C439 C464 1.395 . S
N440 Co429 1.995 . S
N440 C441 1.376 . S
N440 C444 1.383 . S
C441 N440 1.376 . S
C441 C442 1.446 . S
C441 C464 1.391 . S
C442 C441 1.446 . S
C442 C443 1.339 . S
C442 H471 0.949 . S
C443 C442 1.339 . S
C443 C444 1.439 . S
C443 H472 0.950 . S
C444 N440 1.383 . S
C444 C443 1.439 . S
C444 C462 1.392 . S
N445 Co429 2.282 . S
N445 C448 1.332 . S
N445 C450 1.332 . S
C446 C447 1.386 . S
C446 C449 1.388 . S
C447 C446 1.386 . S
C447 C448 1.382 . S
C447 H473 0.950 . S
C448 N445 1.332 . S
C448 C447 1.382 . S
C448 H459 0.952 . S
C449 C446 1.388 . S
C449 C450 1.382 . S
C449 H474 0.950 . S
C450 N445 1.332 . S
C450 C449 1.382 . S
C450 H460 0.948 . S
N451 Co429 2.282 . S
N451 C455 1.332 . S
N451 C456 1.332 . S
C452 C453 1.388 . S
C452 C456 1.382 . S
C452 H475 0.950 . S
C453 C452 1.388 . S
C453 C454 1.386 . S
C454 C453 1.386 . S
C454 C455 1.382 . S
C454 H476 0.950 . S
C455 N451 1.332 . S
C455 C454 1.382 . S
C455 H457 0.952 . S
C456 N451 1.332 . S
C456 C452 1.382 . S
C456 H458 0.948 . S
H457 C455 0.952 . S
H458 C456 0.948 . S
H459 C448 0.952 . S
H460 C450 0.948 . S
C461 C427 1.395 . S
C461 C431 1.391 . S
C462 C424 1.389 . S
C462 C444 1.392 . S
C463 C434 1.392 . S
C463 C436 1.389 . S
C464 C439 1.395 . S
C464 C441 1.391 . S
H465 C425 0.951 . S
H466 C426 0.950 . S
H467 C432 0.949 . S
H468 C433 0.950 . S
H469 C437 0.951 . S
H470 C438 0.950 . S
H471 C442 0.949 . S
H472 C443 0.950 . S
H473 C447 0.950 . S
H474 C449 0.950 . S
H475 C452 0.950 . S
H476 C454 0.950 . S
C477 C478 1.443 . S
C477 N481 1.376 . S
C477 C515 1.389 . S
C478 C477 1.443 . S
C478 C479 1.340 . S
C478 H518 0.951 . S
C479 C478 1.340 . S
C479 C480 1.439 . S
C479 H519 0.950 . S
C480 C479 1.439 . S
C480 N481 1.374 . S
C480 C514 1.395 . S
N481 C477 1.376 . S
N481 C480 1.374 . S
N481 Co482 2.008 . S
Co482 N481 2.008 . S
Co482 N483 1.995 . S
Co482 N488 2.008 . S
Co482 N493 1.995 . S
Co482 N498 2.282 . S
Co482 N504 2.282 . S
N483 Co482 1.995 . S
N483 C484 1.376 . S
N483 C487 1.383 . S
C484 N483 1.376 . S
C484 C485 1.446 . S
C484 C514 1.391 . S
C485 C484 1.446 . S
C485 C486 1.339 . S
C485 H520 0.949 . S
C486 C485 1.339 . S
C486 C487 1.439 . S
C486 H521 0.950 . S
C487 N483 1.383 . S
C487 C486 1.439 . S
C487 C516 1.392 . S
N488 Co482 2.008 . S
N488 C489 1.376 . S
N488 C492 1.374 . S
C489 N488 1.376 . S
C489 C490 1.443 . S
C489 C516 1.389 . S
C490 C489 1.443 . S
C490 C491 1.340 . S
C490 H522 0.951 . S
C491 C490 1.340 . S
C491 C492 1.439 . S
C491 H523 0.950 . S
C492 N488 1.374 . S
C492 C491 1.439 . S
C492 C517 1.395 . S
N493 Co482 1.995 . S
N493 C494 1.376 . S
N493 C497 1.383 . S
C494 N493 1.376 . S
C494 C495 1.446 . S
C494 C517 1.391 . S
C495 C494 1.446 . S
C495 C496 1.339 . S
C495 H524 0.949 . S
C496 C495 1.339 . S
C496 C497 1.439 . S
C496 H525 0.950 . S
C497 N493 1.383 . S
C497 C496 1.439 . S
C497 C515 1.392 . S
N498 Co482 2.282 . S
N498 C501 1.332 . S
N498 C503 1.332 . S
C499 C500 1.386 . S
C499 C502 1.388 . S
C500 C499 1.386 . S
C500 C501 1.382 . S
C500 H526 0.950 . S
C501 N498 1.332 . S
C501 C500 1.382 . S
C501 H512 0.952 . S
C502 C499 1.388 . S
C502 C503 1.382 . S
C502 H527 0.950 . S
C503 N498 1.332 . S
C503 C502 1.382 . S
C503 H513 0.948 . S
N504 Co482 2.282 . S
N504 C508 1.332 . S
N504 C509 1.332 . S
C505 C506 1.388 . S
C505 C509 1.382 . S
C505 H528 0.950 . S
C506 C505 1.388 . S
C506 C507 1.386 . S
C507 C506 1.386 . S
C507 C508 1.382 . S
C507 H529 0.950 . S
C508 N504 1.332 . S
C508 C507 1.382 . S
C508 H510 0.952 . S
C509 N504 1.332 . S
C509 C505 1.382 . S
C509 H511 0.948 . S
H510 C508 0.952 . S
H511 C509 0.948 . S
H512 C501 0.952 . S
H513 C503 0.948 . S
C514 C480 1.395 . S
C514 C484 1.391 . S
C515 C477 1.389 . S
C515 C497 1.392 . S
C516 C487 1.392 . S
C516 C489 1.389 . S
C517 C492 1.395 . S
C517 C494 1.391 . S
H518 C478 0.951 . S
H519 C479 0.950 . S
H520 C485 0.949 . S
H521 C486 0.950 . S
H522 C490 0.951 . S
H523 C491 0.950 . S
H524 C495 0.949 . S
H525 C496 0.950 . S
H526 C500 0.950 . S
H527 C502 0.950 . S
H528 C505 0.950 . S
H529 C507 0.950 . S
C530 C531 1.443 . S
C530 N534 1.376 . S
C530 C568 1.389 . S
C531 C530 1.443 . S
C531 C532 1.340 . S
C531 H571 0.951 . S
C532 C531 1.340 . S
C532 C533 1.439 . S
C532 H572 0.950 . S
C533 C532 1.439 . S
C533 N534 1.374 . S
C533 C567 1.395 . S
N534 C530 1.376 . S
N534 C533 1.374 . S
N534 Co535 2.008 . S
Co535 N534 2.008 . S
Co535 N536 1.995 . S
Co535 N541 2.008 1_545 S
Co535 N546 1.995 1_545 S
Co535 N551 2.282 . S
Co535 N557 2.282 . S
N536 Co535 1.995 . S
N536 C537 1.376 . S
N536 C540 1.383 . S
C537 N536 1.376 . S
C537 C538 1.446 . S
C537 C567 1.391 . S
C538 C537 1.446 . S
C538 C539 1.339 . S
C538 H573 0.949 . S
C539 C538 1.339 . S
C539 C540 1.439 . S
C539 H574 0.950 . S
C540 N536 1.383 . S
C540 C539 1.439 . S
C540 C569 1.392 1_545 S
N541 Co535 2.008 1_565 S
N541 C542 1.376 . S
N541 C545 1.374 . S
C542 N541 1.376 . S
C542 C543 1.443 . S
C542 C569 1.389 . S
C543 C542 1.443 . S
C543 C544 1.340 . S
C543 H575 0.951 . S
C544 C543 1.340 . S
C544 C545 1.439 . S
C544 H576 0.950 . S
C545 N541 1.374 . S
C545 C544 1.439 . S
C545 C570 1.395 . S
N546 Co535 1.995 1_565 S
N546 C547 1.376 . S
N546 C550 1.375 1_565 S
C547 N546 1.376 . S
C547 C548 1.446 . S
C547 C570 1.391 . S
C548 C547 1.446 . S
C548 C549 1.339 . S
C548 H577 0.949 . S
C549 C548 1.339 . S
C549 C550 1.423 1_565 S
C549 H578 0.950 . S
C550 N546 1.375 1_545 S
C550 C549 1.423 1_545 S
C550 C568 1.413 . S
N551 Co535 2.282 . S
N551 C554 1.332 1_545 S
N551 C556 1.332 . S
C552 C553 1.386 . S
C552 C555 1.388 1_565 S
C553 C552 1.386 . S
C553 C554 1.382 . S
C553 H579 0.950 . S
C554 N551 1.332 1_565 S
C554 C553 1.382 . S
C554 H565 0.952 . S
C555 C552 1.388 1_545 S
C555 C556 1.382 . S
C555 H580 0.950 . S
C556 N551 1.332 . S
C556 C555 1.382 . S
C556 H566 0.948 . S
N557 Co535 2.282 . S
N557 C561 1.332 . S
N557 C562 1.332 . S
C558 C559 1.388 . S
C558 C562 1.382 . S
C558 H581 0.950 1_545 S
C559 C558 1.388 . S
C559 C560 1.386 . S
C560 C559 1.386 . S
C560 C561 1.382 . S
C560 H582 0.950 . S
C561 N557 1.332 . S
C561 C560 1.382 . S
C561 H563 0.952 . S
C562 N557 1.332 . S
C562 C558 1.382 . S
C562 H564 0.948 1_545 S
H563 C561 0.952 . S
H564 C562 0.948 1_565 S
H565 C554 0.952 . S
H566 C556 0.948 . S
C567 C533 1.395 . S
C567 C537 1.391 . S
C568 C530 1.389 . S
C568 C550 1.413 . S
C569 C540 1.392 1_565 S
C569 C542 1.389 . S
C570 C545 1.395 . S
C570 C547 1.391 . S
H571 C531 0.951 . S
H572 C532 0.950 . S
H573 C538 0.949 . S
H574 C539 0.950 . S
H575 C543 0.951 . S
H576 C544 0.950 . S
H577 C548 0.949 . S
H578 C549 0.950 . S
H579 C553 0.950 . S
H580 C555 0.950 . S
H581 C558 0.950 1_565 S
H582 C560 0.950 . S
C583 C584 1.443 . S
C583 N587 1.376 . S
C583 C621 1.389 . S
C584 C583 1.443 . S
C584 C585 1.340 . S
C584 H624 0.951 . S
C585 C584 1.340 . S
C585 C586 1.439 . S
C585 H625 0.950 . S
C586 C585 1.439 . S
C586 N587 1.374 . S
C586 C620 1.395 . S
N587 C583 1.376 . S
N587 C586 1.374 . S
N587 Co588 2.008 1_556 S
Co588 N587 2.008 1_554 S
Co588 N589 1.995 1_554 S
Co588 N594 2.008 . S
Co588 N599 1.995 . S
Co588 N604 2.282 . S
Co588 N610 2.282 . S
N589 Co588 1.995 1_556 S
N589 C590 1.376 . S
N589 C593 1.383 . S
C590 N589 1.376 . S
C590 C591 1.446 . S
C590 C620 1.391 . S
C591 C590 1.446 . S
C591 C592 1.339 . S
C591 H626 0.949 . S
C592 C591 1.339 . S
C592 C593 1.439 . S
C592 H627 0.950 . S
C593 N589 1.383 . S
C593 C592 1.439 . S
C593 C622 1.392 1_556 S
N594 Co588 2.008 . S
N594 C595 1.376 . S
N594 C598 1.374 . S
C595 N594 1.376 . S
C595 C596 1.443 . S
C595 C622 1.389 . S
C596 C595 1.443 . S
C596 C597 1.340 . S
C596 H628 0.951 . S
C597 C596 1.340 . S
C597 C598 1.439 . S
C597 H629 0.950 . S
C598 N594 1.374 . S
C598 C597 1.439 . S
C598 C623 1.395 . S
N599 Co588 1.995 . S
N599 C600 1.376 . S
N599 C603 1.383 . S
C600 N599 1.376 . S
C600 C601 1.446 . S
C600 C623 1.391 . S
C601 C600 1.446 . S
C601 C602 1.339 . S
C601 H630 0.949 . S
C602 C601 1.339 . S
C602 C603 1.439 . S
C602 H631 0.950 . S
C603 N599 1.383 . S
C603 C602 1.439 . S
C603 C621 1.392 1_554 S
N604 Co588 2.282 . S
N604 C607 1.332 . S
N604 C609 1.332 1_554 S
C605 C606 1.386 . S
C605 C608 1.388 . S
C606 C605 1.386 . S
C606 C607 1.382 . S
C606 H632 0.950 . S
C607 N604 1.332 . S
C607 C606 1.382 . S
C607 H618 0.952 . S
C608 C605 1.388 . S
C608 C609 1.382 1_554 S
C608 H633 0.950 1_554 S
C609 N604 1.332 1_556 S
C609 C608 1.382 1_556 S
C609 H619 0.948 . S
N610 Co588 2.282 . S
N610 C614 1.332 1_554 S
N610 C615 1.332 . S
C611 C612 1.388 1_554 S
C611 C615 1.382 . S
C611 H634 0.950 . S
C612 C611 1.388 1_556 S
C612 C613 1.386 . S
C613 C612 1.386 . S
C613 C614 1.382 . S
C613 H635 0.950 . S
C614 N610 1.332 1_556 S
C614 C613 1.382 . S
C614 H616 0.952 . S
C615 N610 1.332 . S
C615 C611 1.382 . S
C615 H617 0.948 . S
H616 C614 0.952 . S
H617 C615 0.948 . S
H618 C607 0.952 . S
H619 C609 0.948 . S
C620 C586 1.395 . S
C620 C590 1.391 . S
C621 C583 1.389 . S
C621 C603 1.392 1_556 S
C622 C593 1.392 1_554 S
C622 C595 1.389 . S
C623 C598 1.395 . S
C623 C600 1.391 . S
H624 C584 0.951 . S
H625 C585 0.950 . S
H626 C591 0.949 . S
H627 C592 0.950 . S
H628 C596 0.951 . S
H629 C597 0.950 . S
H630 C601 0.949 . S
H631 C602 0.950 . S
H632 C606 0.950 . S
H633 C608 0.950 1_556 S
H634 C611 0.950 . S
H635 C613 0.950 . S
Co636 N641 2.057 1_545 S
Co636 O653 2.021 . S
Co636 O656 2.062 . S
Co636 O660 2.117 . S
Co636 O661 2.020 . S
C637 O657 1.259 . S
C637 O660 1.258 . S
Co638 N647 2.057 . S
Co638 O654 2.114 . S
Co638 O655 2.020 . S
Co638 O657 2.021 . S
Co638 O662 2.062 . S
C639 N641 1.316 . S
C639 N642 1.347 . S
C639 H644 0.931 . S
C640 N641 1.375 . S
C640 C643 1.350 . S
C640 H645 0.930 1_565 S
N641 Co636 2.057 1_565 S
N641 C639 1.316 . S
N641 C640 1.375 . S
N642 C639 1.347 . S
N642 C643 1.373 . S
C643 C640 1.350 . S
C643 N642 1.373 . S
C643 H664 0.931 1_455 S
H644 C639 0.931 . S
H645 C640 0.930 1_545 S
C646 O653 1.259 1_556 S
C646 O654 1.259 1_556 S
N647 Co638 2.057 . S
N647 C648 1.316 . S
N647 C649 1.375 1_554 S
C648 N647 1.316 . S
C648 N650 1.347 . S
C648 H659 0.931 . S
C649 N647 1.375 1_556 S
C649 C651 1.350 . S
C649 H658 0.930 . S
N650 C648 1.347 . S
N650 C651 1.373 1_554 S
C651 C649 1.350 . S
C651 N650 1.373 1_556 S
C651 H665 0.931 . S
C652 O655 1.256 . S
C652 O656 1.255 . S
O653 Co636 2.021 . S
O653 C646 1.259 1_554 S
O654 Co638 2.114 . S
O654 C646 1.259 1_554 S
O655 Co638 2.020 . S
O655 C652 1.256 . S
O656 Co636 2.062 . S
O656 C652 1.255 . S
O657 C637 1.259 . S
O657 Co638 2.021 . S
H658 C649 0.930 . S
H659 C648 0.931 . S
O660 Co636 2.117 . S
O660 C637 1.258 . S
O661 Co636 2.020 . S
O661 C663 1.256 . S
O662 Co638 2.062 . S
O662 C663 1.255 . S
C663 O661 1.256 . S
C663 O662 1.255 . S
H664 C643 0.931 1_655 S
H665 C651 0.931 . S
Co666 N671 2.057 . S
Co666 O683 2.021 . S
Co666 O686 2.062 . S
Co666 O690 2.117 . S
Co666 O691 2.020 . S
C667 O687 1.259 . S
C667 O690 1.258 . S
Co668 N677 2.057 1_554 S
Co668 O684 2.117 . S
Co668 O685 2.020 . S
Co668 O687 2.021 . S
Co668 O692 2.062 . S
C669 N671 1.316 . S
C669 N672 1.347 . S
C669 H674 0.931 . S
C670 N671 1.375 . S
C670 C673 1.350 1_655 S
C670 H675 0.930 . S
N671 Co666 2.057 . S
N671 C669 1.316 . S
N671 C670 1.375 . S
N672 C669 1.347 . S
N672 C673 1.373 1_655 S
C673 C670 1.350 1_455 S
C673 N672 1.373 1_455 S
C673 H694 0.931 . S
H674 C669 0.931 . S
H675 C670 0.930 . S
C676 O683 1.259 . S
C676 O684 1.258 . S
N677 Co668 2.057 1_556 S
N677 C678 1.316 . S
N677 C679 1.375 . S
C678 N677 1.316 . S
C678 N680 1.347 . S
C678 H689 0.931 . S
C679 N677 1.375 . S
C679 C681 1.350 . S
C679 H688 0.930 . S
N680 C678 1.347 . S
N680 C681 1.373 . S
C681 C679 1.350 . S
C681 N680 1.373 . S
C681 H695 0.931 . S
C682 O685 1.256 1_455 S
C682 O686 1.255 1_455 S
O683 Co666 2.021 . S
O683 C676 1.259 . S
O684 Co668 2.117 . S
O684 C676 1.258 . S
O685 Co668 2.020 . S
O685 C682 1.256 1_655 S
O686 Co666 2.062 . S
O686 C682 1.255 1_655 S
O687 C667 1.259 . S
O687 Co668 2.021 . S
H688 C679 0.930 . S
H689 C678 0.931 . S
O690 Co666 2.117 . S
O690 C667 1.258 . S
O691 Co666 2.020 . S
O691 C693 1.256 . S
O692 Co668 2.062 . S
O692 C693 1.255 . S
C693 O691 1.256 . S
C693 O692 1.255 . S
H694 C673 0.931 . S
H695 C681 0.931 . S
Co696 N701 2.057 . S
Co696 O713 2.021 . S
Co696 O716 2.062 . S
Co696 O720 2.117 . S
Co696 O721 2.020 . S
C697 O717 1.259 . S
C697 O720 1.258 . S
Co698 N707 2.057 . S
Co698 O714 2.117 1_455 S
Co698 O715 2.020 . S
Co698 O717 2.021 . S
Co698 O722 2.062 . S
C699 N701 1.316 . S
C699 N702 1.347 . S
C699 H704 0.931 . S
C700 N701 1.375 . S
C700 C703 1.350 . S
C700 H705 0.930 . S
N701 Co696 2.057 . S
N701 C699 1.316 . S
N701 C700 1.375 . S
N702 C699 1.347 . S
N702 C703 1.373 . S
C703 C700 1.350 . S
C703 N702 1.373 . S
C703 H724 0.931 1_565 S
H704 C699 0.931 . S
H705 C700 0.930 . S
C706 O713 1.259 1_655 S
C706 O714 1.258 . S
N707 Co698 2.057 . S
N707 C708 1.316 . S
N707 C709 1.375 1_455 S
C708 N707 1.316 . S
C708 N710 1.347 1_455 S
C708 H719 0.931 . S
C709 N707 1.375 1_655 S
C709 C711 1.350 . S
C709 H718 0.930 . S
N710 C708 1.347 1_655 S
N710 C711 1.373 . S
C711 C709 1.350 . S
C711 N710 1.373 . S
C711 H725 0.931 . S
C712 O715 1.256 . S
C712 O716 1.255 . S
O713 Co696 2.021 . S
O713 C706 1.259 1_455 S
O714 Co698 2.117 1_655 S
O714 C706 1.258 . S
O715 Co698 2.020 . S
O715 C712 1.256 . S
O716 Co696 2.062 . S
O716 C712 1.255 . S
O717 C697 1.259 . S
O717 Co698 2.021 . S
H718 C709 0.930 . S
H719 C708 0.931 . S
O720 Co696 2.117 . S
O720 C697 1.258 . S
O721 Co696 2.020 . S
O721 C723 1.256 . S
O722 Co698 2.062 . S
O722 C723 1.255 . S
C723 O721 1.256 . S
C723 O722 1.255 . S
H724 C703 0.931 1_545 S
H725 C711 0.931 . S
Co726 N731 2.057 . S
Co726 O743 2.021 . S
Co726 O746 2.062 . S
Co726 O750 2.117 . S
Co726 O751 2.020 . S
C727 O747 1.259 . S
C727 O750 1.258 1_455 S
Co728 N737 2.057 . S
Co728 O744 2.117 . S
Co728 O745 2.020 . S
Co728 O747 2.021 1_655 S
Co728 O752 2.062 . S
C729 N731 1.316 . S
C729 N732 1.347 . S
C729 H734 0.931 . S
C730 N731 1.375 . S
C730 C733 1.350 . S
C730 H735 0.930 . S
N731 Co726 2.057 . S
N731 C729 1.316 . S
N731 C730 1.375 . S
N732 C729 1.347 . S
N732 C733 1.373 . S
C733 C730 1.350 . S
C733 N732 1.373 . S
C733 H754 0.931 . S
H734 C729 0.931 . S
H735 C730 0.930 . S
C736 O743 1.259 . S
C736 O744 1.258 . S
N737 Co728 2.057 . S
N737 C738 1.316 1_655 S
N737 C739 1.375 . S
C738 N737 1.316 1_455 S
C738 N740 1.347 . S
C738 H749 0.931 . S
C739 N737 1.375 . S
C739 C741 1.350 . S
C739 H748 0.930 . S
N740 C738 1.347 . S
N740 C741 1.373 1_455 S
C741 C739 1.350 . S
C741 N740 1.373 1_655 S
C741 H755 0.931 . S
C742 O745 1.256 . S
C742 O746 1.255 . S
O743 Co726 2.021 . S
O743 C736 1.259 . S
O744 Co728 2.117 . S
O744 C736 1.258 . S
O745 Co728 2.020 . S
O745 C742 1.256 . S
O746 Co726 2.062 . S
O746 C742 1.255 . S
O747 C727 1.259 . S
O747 Co728 2.021 1_455 S
H748 C739 0.930 . S
H749 C738 0.931 . S
O750 Co726 2.117 . S
O750 C727 1.258 1_655 S
O751 Co726 2.020 . S
O751 C753 1.256 . S
O752 Co728 2.062 . S
O752 C753 1.255 . S
C753 O751 1.256 . S
C753 O752 1.255 . S
H754 C733 0.931 . S
H755 C741 0.931 . S
Co756 N761 2.057 . S
Co756 O773 2.021 . S
Co756 O776 2.062 . S
Co756 O780 2.117 . S
Co756 O781 2.020 . S
C757 O777 1.259 . S
C757 O780 1.258 . S
Co758 N767 2.057 . S
Co758 O774 2.117 . S
Co758 O775 2.020 . S
Co758 O777 2.021 . S
Co758 O782 2.062 . S
C759 N761 1.316 . S
C759 N762 1.347 . S
C759 H764 0.931 . S
C760 N761 1.375 . S
C760 C763 1.350 . S
C760 H765 0.930 . S
N761 Co756 2.057 . S
N761 C759 1.316 . S
N761 C760 1.375 . S
N762 C759 1.347 . S
N762 C763 1.373 . S
C763 C760 1.350 . S
C763 N762 1.373 . S
C763 H784 0.931 . S
H764 C759 0.931 . S
H765 C760 0.930 . S
C766 O773 1.259 . S
C766 O774 1.258 . S
N767 Co758 2.057 . S
N767 C768 1.316 . S
N767 C769 1.375 . S
C768 N767 1.316 . S
C768 N770 1.347 . S
C768 H779 0.931 1_565 S
C769 N767 1.375 . S
C769 C771 1.350 . S
C769 H778 0.930 . S
N770 C768 1.347 . S
N770 C771 1.373 . S
C771 C769 1.350 . S
C771 N770 1.373 . S
C771 H785 0.931 . S
C772 O775 1.256 . S
C772 O776 1.255 . S
O773 Co756 2.021 . S
O773 C766 1.259 . S
O774 Co758 2.117 . S
O774 C766 1.258 . S
O775 Co758 2.020 . S
O775 C772 1.256 . S
O776 Co756 2.062 . S
O776 C772 1.255 . S
O777 C757 1.259 . S
O777 Co758 2.021 . S
H778 C769 0.930 . S
H779 C768 0.931 1_545 S
O780 Co756 2.117 . S
O780 C757 1.258 . S
O781 Co756 2.020 . S
O781 C783 1.256 . S
O782 Co758 2.062 . S
O782 C783 1.255 . S
C783 O781 1.256 . S
C783 O782 1.255 . S
H784 C763 0.931 . S
H785 C771 0.931 . S
Co786 N791 2.057 . S
Co786 O803 2.021 . S
Co786 O806 2.062 . S
Co786 O810 2.117 . S
Co786 O811 2.020 . S
C787 O807 1.259 . S
C787 O810 1.258 . S
Co788 N797 2.057 . S
Co788 O804 2.117 . S
Co788 O805 2.020 . S
Co788 O807 2.021 . S
Co788 O812 2.062 . S
C789 N791 1.316 . S
C789 N792 1.347 . S
C789 H794 0.931 . S
C790 N791 1.375 . S
C790 C793 1.350 . S
C790 H795 0.930 . S
N791 Co786 2.057 . S
N791 C789 1.316 . S
N791 C790 1.375 . S
N792 C789 1.347 . S
N792 C793 1.373 . S
C793 C790 1.350 . S
C793 N792 1.373 . S
C793 H814 0.931 . S
H794 C789 0.931 . S
H795 C790 0.930 . S
C796 O803 1.259 . S
C796 O804 1.258 . S
N797 Co788 2.057 . S
N797 C798 1.316 . S
N797 C799 1.375 . S
C798 N797 1.316 . S
C798 N800 1.347 . S
C798 H809 0.931 . S
C799 N797 1.375 . S
C799 C801 1.350 . S
C799 H808 0.930 . S
N800 C798 1.347 . S
N800 C801 1.373 . S
C801 C799 1.350 . S
C801 N800 1.373 . S
C801 H815 0.931 . S
C802 O805 1.256 . S
C802 O806 1.255 . S
O803 Co786 2.021 . S
O803 C796 1.259 . S
O804 Co788 2.117 . S
O804 C796 1.258 . S
O805 Co788 2.020 . S
O805 C802 1.256 . S
O806 Co786 2.062 . S
O806 C802 1.255 . S
O807 C787 1.259 . S
O807 Co788 2.021 . S
H808 C799 0.930 . S
H809 C798 0.931 . S
O810 Co786 2.117 . S
O810 C787 1.258 . S
O811 Co786 2.020 . S
O811 C813 1.256 . S
O812 Co788 2.062 . S
O812 C813 1.255 . S
C813 O811 1.256 . S
C813 O812 1.255 . S
H814 C793 0.931 . S
H815 C801 0.931 . S
Co816 N821 2.057 1_556 S
Co816 O833 2.021 1_556 S
Co816 O836 2.062 1_556 S
Co816 O840 2.117 . S
Co816 O841 2.020 . S
C817 O837 1.259 . S
C817 O840 1.258 . S
Co818 N827 2.057 . S
Co818 O834 2.117 . S
Co818 O835 2.020 . S
Co818 O837 2.021 . S
Co818 O842 2.062 . S
C819 N821 1.316 . S
C819 N822 1.347 . S
C819 H824 0.931 . S
C820 N821 1.375 . S
C820 C823 1.350 . S
C820 H825 0.930 . S
N821 Co816 2.057 1_554 S
N821 C819 1.316 . S
N821 C820 1.375 . S
N822 C819 1.347 . S
N822 C823 1.373 . S
C823 C820 1.350 . S
C823 N822 1.373 . S
C823 H844 0.931 . S
H824 C819 0.931 . S
H825 C820 0.930 . S
C826 O833 1.259 1_556 S
C826 O834 1.258 . S
N827 Co818 2.057 . S
N827 C828 1.316 . S
N827 C829 1.375 . S
C828 N827 1.316 . S
C828 N830 1.347 . S
C828 H839 0.931 . S
C829 N827 1.375 . S
C829 C831 1.350 . S
C829 H838 0.930 . S
N830 C828 1.347 . S
N830 C831 1.373 . S
C831 C829 1.350 . S
C831 N830 1.373 . S
C831 H845 0.931 . S
C832 O835 1.256 . S
C832 O836 1.255 1_556 S
O833 Co816 2.021 1_554 S
O833 C826 1.259 1_554 S
O834 Co818 2.117 . S
O834 C826 1.258 . S
O835 Co818 2.020 . S
O835 C832 1.256 . S
O836 Co816 2.062 1_554 S
O836 C832 1.255 1_554 S
O837 C817 1.259 . S
O837 Co818 2.021 . S
H838 C829 0.930 . S
H839 C828 0.931 . S
O840 Co816 2.117 . S
O840 C817 1.258 . S
O841 Co816 2.020 . S
O841 C843 1.256 . S
O842 Co818 2.062 . S
O842 C843 1.255 . S
C843 O841 1.256 . S
C843 O842 1.255 . S
H844 C823 0.931 . S
H845 C831 0.931 . S
Co846 N851 2.057 . S
Co846 O863 2.021 . S
Co846 O866 2.062 . S
Co846 O870 2.117 . S
Co846 O871 2.020 . S
C847 O867 1.259 . S
C847 O870 1.258 . S
Co848 N857 2.057 1_545 S
Co848 O864 2.117 . S
Co848 O865 2.020 . S
Co848 O867 2.021 . S
Co848 O872 2.062 . S
C849 N851 1.316 . S
C849 N852 1.347 . S
C849 H854 0.931 . S
C850 N851 1.375 . S
C850 C853 1.350 . S
C850 H855 0.930 . S
N851 Co846 2.057 . S
N851 C849 1.316 . S
N851 C850 1.375 . S
N852 C849 1.347 . S
N852 C853 1.373 . S
C853 C850 1.350 . S
C853 N852 1.373 . S
C853 H874 0.931 . S
H854 C849 0.931 . S
H855 C850 0.930 . S
C856 O863 1.259 . S
C856 O864 1.258 . S
N857 Co848 2.057 1_565 S
N857 C858 1.316 . S
N857 C859 1.375 . S
C858 N857 1.316 . S
C858 N860 1.347 . S
C858 H869 0.931 . S
C859 N857 1.375 . S
C859 C861 1.350 . S
C859 H868 0.930 . S
N860 C858 1.347 . S
N860 C861 1.373 . S
C861 C859 1.350 . S
C861 N860 1.373 . S
C861 H875 0.931 . S
C862 O865 1.256 . S
C862 O866 1.255 . S
O863 Co846 2.021 . S
O863 C856 1.259 . S
O864 Co848 2.117 . S
O864 C856 1.258 . S
O865 Co848 2.020 . S
O865 C862 1.256 . S
O866 Co846 2.062 . S
O866 C862 1.255 . S
O867 C847 1.259 . S
O867 Co848 2.021 . S
H868 C859 0.930 . S
H869 C858 0.931 . S
O870 Co846 2.117 . S
O870 C847 1.258 . S
O871 Co846 2.020 . S
O871 C873 1.256 . S
O872 Co848 2.062 . S
O872 C873 1.255 . S
C873 O871 1.256 . S
C873 O872 1.255 . S
H874 C853 0.931 . S
H875 C861 0.931 . S
C876 C877 1.369 . S
C876 C878 1.419 . S
C876 H880 0.930 . S
C877 C876 1.369 . S
C877 C886 1.429 . S
C878 C876 1.419 . S
C878 C879 1.363 . S
C878 H881 0.929 . S
C879 C878 1.363 . S
C879 C885 1.428 . S
H880 C876 0.930 . S
H881 C878 0.929 . S
S882 N883 1.613 . S
S882 N884 1.610 1_455 S
N883 S882 1.613 . S
N883 C886 1.350 . S
N884 S882 1.610 1_655 S
N884 C885 1.345 1_655 S
C885 C879 1.428 . S
C885 N884 1.345 1_455 S
C885 C886 1.434 . S
C886 C877 1.429 . S
C886 N883 1.350 . S
C886 C885 1.434 . S
C887 C888 1.369 1_655 S
C887 C889 1.419 . S
C887 H891 0.930 . S
C888 C887 1.369 1_455 S
C888 C897 1.429 . S
C889 C887 1.419 . S
C889 C890 1.363 1_655 S
C889 H892 0.929 . S
C890 C889 1.363 1_455 S
C890 C896 1.428 . S
H891 C887 0.930 . S
H892 C889 0.929 . S
S893 N894 1.613 . S
S893 N895 1.610 . S
N894 S893 1.613 . S
N894 C897 1.350 . S
N895 S893 1.610 . S
N895 C896 1.351 . S
C896 C890 1.428 . S
C896 N895 1.351 . S
C896 C897 1.434 . S
C897 C888 1.429 . S
C897 N894 1.350 . S
C897 C896 1.434 . S
C898 C899 1.369 1_655 S
C898 C900 1.419 . S
C898 H902 0.930 . S
C899 C898 1.369 1_455 S
C899 C908 1.429 . S
C900 C898 1.419 . S
C900 C901 1.363 1_655 S
C900 H903 0.929 . S
C901 C900 1.363 1_455 S
C901 C907 1.428 . S
H902 C898 0.930 . S
H903 C900 0.929 . S
S904 N905 1.613 . S
S904 N906 1.610 . S
N905 S904 1.613 . S
N905 C908 1.350 . S
N906 S904 1.610 . S
N906 C907 1.351 . S
C907 C901 1.428 . S
C907 N906 1.351 . S
C907 C908 1.434 . S
C908 C899 1.429 . S
C908 N905 1.350 . S
C908 C907 1.434 . S
C909 C910 1.369 . S
C909 C911 1.419 . S
C909 H913 0.930 . S
C910 C909 1.369 . S
C910 C919 1.429 1_655 S
C911 C909 1.419 . S
C911 C912 1.363 . S
C911 H914 0.929 . S
C912 C911 1.363 . S
C912 C918 1.428 1_655 S
H913 C909 0.930 . S
H914 C911 0.929 . S
S915 N916 1.613 . S
S915 N917 1.610 . S
N916 S915 1.613 . S
N916 C919 1.350 . S
N917 S915 1.610 . S
N917 C918 1.351 . S
C918 C912 1.428 1_455 S
C918 N917 1.351 . S
C918 C919 1.434 . S
C919 C910 1.429 1_455 S
C919 N916 1.350 . S
C919 C918 1.434 . S
C920 C921 1.369 . S
C920 C922 1.419 . S
C920 H924 0.930 . S
C921 C920 1.369 . S
C921 C930 1.429 . S
C922 C920 1.419 . S
C922 C923 1.363 . S
C922 H925 0.929 . S
C923 C922 1.363 . S
C923 C929 1.428 . S
H924 C920 0.930 . S
H925 C922 0.929 . S
S926 N927 1.613 . S
S926 N928 1.610 . S
N927 S926 1.613 . S
N927 C930 1.350 . S
N928 S926 1.610 . S
N928 C929 1.351 . S
C929 C923 1.428 . S
C929 N928 1.351 . S
C929 C930 1.434 . S
C930 C921 1.429 . S
C930 N927 1.350 . S
C930 C929 1.434 . S
C931 C932 1.369 . S
C931 C933 1.419 . S
C931 H935 0.930 . S
C932 C931 1.369 . S
C932 C941 1.429 . S
C933 C931 1.419 . S
C933 C934 1.363 . S
C933 H936 0.929 . S
C934 C933 1.363 . S
C934 C940 1.428 . S
H935 C931 0.930 . S
H936 C933 0.929 . S
S937 N938 1.613 . S
S937 N939 1.610 . S
N938 S937 1.613 . S
N938 C941 1.350 . S
N939 S937 1.610 . S
N939 C940 1.351 . S
C940 C934 1.428 . S
C940 N939 1.351 . S
C940 C941 1.434 . S
C941 C932 1.429 . S
C941 N938 1.350 . S
C941 C940 1.434 . S
C942 C943 1.369 . S
C942 C944 1.419 . S
C942 H946 0.930 . S
C943 C942 1.369 . S
C943 C952 1.429 1_565 S
C944 C942 1.419 . S
C944 C945 1.363 . S
C944 H947 0.929 . S
C945 C944 1.363 . S
C945 C951 1.428 1_565 S
H946 C942 0.930 . S
H947 C944 0.929 . S
S948 N949 1.613 . S
S948 N950 1.610 . S
N949 S948 1.613 . S
N949 C952 1.350 . S
N950 S948 1.610 . S
N950 C951 1.351 . S
C951 C945 1.428 1_545 S
C951 N950 1.351 . S
C951 C952 1.434 . S
C952 C943 1.429 1_545 S
C952 N949 1.350 . S
C952 C951 1.434 . S
C953 C954 1.369 . S
C953 C955 1.419 . S
C953 H957 0.930 . S
C954 C953 1.369 . S
C954 C963 1.429 . S
C955 C953 1.419 . S
C955 C956 1.363 . S
C955 H958 0.929 . S
C956 C955 1.363 . S
C956 C962 1.428 . S
H957 C953 0.930 . S
H958 C955 0.929 . S
S959 N960 1.613 . S
S959 N961 1.610 . S
N960 S959 1.613 . S
N960 C963 1.350 . S
N961 S959 1.610 . S
N961 C962 1.351 . S
C962 C956 1.428 . S
C962 N961 1.351 . S
C962 C963 1.434 . S
C963 C954 1.429 . S
C963 N960 1.350 . S
C963 C962 1.434 . S
C964 C965 1.369 . S
C964 C966 1.419 . S
C964 H968 0.930 . S
C965 C964 1.369 . S
C965 C974 1.429 . S
C966 C964 1.419 . S
C966 C967 1.363 . S
C966 H969 0.929 . S
C967 C966 1.363 . S
C967 C973 1.428 . S
H968 C964 0.930 . S
H969 C966 0.929 . S
S970 N971 1.613 . S
S970 N972 1.610 . S
N971 S970 1.613 . S
N971 C974 1.350 . S
N972 S970 1.610 . S
N972 C973 1.351 . S
C973 C967 1.428 . S
C973 N972 1.351 . S
C973 C974 1.434 . S
C974 C965 1.429 . S
C974 N971 1.350 . S
C974 C973 1.434 . S
C975 C976 1.369 . S
C975 C977 1.419 . S
C975 H979 0.930 . S
C976 C975 1.369 . S
C976 C985 1.429 . S
C977 C975 1.419 . S
C977 C978 1.363 . S
C977 H980 0.929 . S
C978 C977 1.363 . S
C978 C984 1.428 . S
H979 C975 0.930 . S
H980 C977 0.929 . S
S981 N982 1.613 . S
S981 N983 1.610 . S
N982 S981 1.613 . S
N982 C985 1.350 . S
N983 S981 1.610 . S
N983 C984 1.351 . S
C984 C978 1.428 . S
C984 N983 1.351 . S
C984 C985 1.434 . S
C985 C976 1.429 . S
C985 N982 1.350 . S
C985 C984 1.434 . S
C986 C987 1.369 . S
C986 C988 1.419 . S
C986 H990 0.930 . S
C987 C986 1.369 . S
C987 C996 1.429 . S
C988 C986 1.419 . S
C988 C989 1.363 . S
C988 H991 0.929 . S
C989 C988 1.363 . S
C989 C995 1.428 . S
H990 C986 0.930 . S
H991 C988 0.929 . S
S992 N993 1.613 . S
S992 N994 1.610 . S
N993 S992 1.613 . S
N993 C996 1.350 . S
N994 S992 1.610 . S
N994 C995 1.351 . S
C995 C989 1.428 . S
C995 N994 1.351 . S
C995 C996 1.434 . S
C996 C987 1.429 . S
C996 N993 1.350 . S
C996 C995 1.434 . S
C997 C998 1.369 . S
C997 C999 1.419 . S
C997 H1001 0.930 . S
C998 C997 1.369 . S
C998 C1007 1.429 . S
C999 C997 1.419 . S
C999 C1000 1.363 . S
C999 H1002 0.929 . S
C1000 C999 1.363 . S
C1000 C1006 1.428 . S
H1001 C997 0.930 . S
H1002 C999 0.929 . S
S1003 N1004 1.613 . S
S1003 N1005 1.610 . S
N1004 S1003 1.613 . S
N1004 C1007 1.350 . S
N1005 S1003 1.610 . S
N1005 C1006 1.351 . S
C1006 C1000 1.428 . S
C1006 N1005 1.351 . S
C1006 C1007 1.434 . S
C1007 C998 1.429 . S
C1007 N1004 1.350 . S
C1007 C1006 1.434 . S
C1008 C1009 1.369 . S
C1008 C1010 1.419 . S
C1008 H1012 0.930 . S
C1009 C1008 1.369 . S
C1009 C1018 1.429 . S
C1010 C1008 1.419 . S
C1010 C1011 1.363 . S
C1010 H1013 0.929 . S
C1011 C1010 1.363 . S
C1011 C1017 1.428 . S
H1012 C1008 0.930 . S
H1013 C1010 0.929 . S
S1014 N1015 1.613 . S
S1014 N1016 1.610 . S
N1015 S1014 1.613 . S
N1015 C1018 1.350 . S
N1016 S1014 1.610 . S
N1016 C1017 1.351 . S
C1017 C1011 1.428 . S
C1017 N1016 1.351 . S
C1017 C1018 1.434 . S
C1018 C1009 1.429 . S
C1018 N1015 1.350 . S
C1018 C1017 1.434 . S
C1019 C1020 1.369 . S
C1019 C1021 1.419 . S
C1019 H1023 0.930 . S
C1020 C1019 1.369 . S
C1020 C1029 1.429 . S
C1021 C1019 1.419 . S
C1021 C1022 1.363 . S
C1021 H1024 0.929 . S
C1022 C1021 1.363 . S
C1022 C1028 1.428 . S
H1023 C1019 0.930 . S
H1024 C1021 0.929 . S
S1025 N1026 1.613 . S
S1025 N1027 1.610 . S
N1026 S1025 1.613 . S
N1026 C1029 1.350 . S
N1027 S1025 1.610 . S
N1027 C1028 1.351 . S
C1028 C1022 1.428 . S
C1028 N1027 1.351 . S
C1028 C1029 1.434 . S
C1029 C1020 1.429 . S
C1029 N1026 1.350 . S
C1029 C1028 1.434 . S
C1030 C1031 1.369 . S
C1030 C1032 1.419 . S
C1030 H1034 0.930 . S
C1031 C1030 1.369 . S
C1031 C1040 1.429 . S
C1032 C1030 1.419 . S
C1032 C1033 1.363 . S
C1032 H1035 0.929 . S
C1033 C1032 1.363 . S
C1033 C1039 1.428 . S
H1034 C1030 0.930 . S
H1035 C1032 0.929 . S
S1036 N1037 1.613 . S
S1036 N1038 1.610 . S
N1037 S1036 1.613 . S
N1037 C1040 1.350 . S
N1038 S1036 1.610 . S
N1038 C1039 1.351 . S
C1039 C1033 1.428 . S
C1039 N1038 1.351 . S
C1039 C1040 1.434 . S
C1040 C1031 1.429 . S
C1040 N1037 1.350 . S
C1040 C1039 1.434 . S
C1041 C1042 1.369 . S
C1041 C1043 1.419 . S
C1041 H1045 0.930 . S
C1042 C1041 1.369 . S
C1042 C1051 1.429 . S
C1043 C1041 1.419 . S
C1043 C1044 1.363 . S
C1043 H1046 0.929 . S
C1044 C1043 1.363 . S
C1044 C1050 1.428 . S
H1045 C1041 0.930 . S
H1046 C1043 0.929 . S
S1047 N1048 1.613 . S
S1047 N1049 1.610 . S
N1048 S1047 1.613 . S
N1048 C1051 1.350 . S
N1049 S1047 1.610 . S
N1049 C1050 1.351 . S
C1050 C1044 1.428 . S
C1050 N1049 1.351 . S
C1050 C1051 1.434 . S
C1051 C1042 1.429 . S
C1051 N1048 1.350 . S
C1051 C1050 1.434 . S
C1052 C1053 1.369 . S
C1052 C1054 1.419 . S
C1052 H1056 0.930 . S
C1053 C1052 1.369 . S
C1053 C1062 1.429 . S
C1054 C1052 1.419 . S
C1054 C1055 1.363 . S
C1054 H1057 0.929 . S
C1055 C1054 1.363 . S
C1055 C1061 1.428 . S
H1056 C1052 0.930 . S
H1057 C1054 0.929 . S
S1058 N1059 1.613 . S
S1058 N1060 1.610 . S
N1059 S1058 1.613 . S
N1059 C1062 1.350 . S
N1060 S1058 1.610 . S
N1060 C1061 1.351 . S
C1061 C1055 1.428 . S
C1061 N1060 1.351 . S
C1061 C1062 1.434 . S
C1062 C1053 1.429 . S
C1062 N1059 1.350 . S
C1062 C1061 1.434 . S
C1063 C1064 1.369 1_545 S
C1063 C1065 1.419 . S
C1063 H1067 0.930 . S
C1064 C1063 1.369 1_565 S
C1064 C1073 1.429 . S
C1065 C1063 1.419 . S
C1065 C1066 1.363 1_545 S
C1065 H1068 0.929 . S
C1066 C1065 1.363 1_565 S
C1066 C1072 1.428 . S
H1067 C1063 0.930 . S
H1068 C1065 0.929 . S
S1069 N1070 1.613 . S
S1069 N1071 1.610 . S
N1070 S1069 1.613 . S
N1070 C1073 1.350 . S
N1071 S1069 1.610 . S
N1071 C1072 1.351 . S
C1072 C1066 1.428 . S
C1072 N1071 1.351 . S
C1072 C1073 1.434 . S
C1073 C1064 1.429 . S
C1073 N1070 1.350 . S
C1073 C1072 1.434 . S
C1074 C1075 1.369 . S
C1074 C1076 1.419 . S
C1074 H1078 0.930 . S
C1075 C1074 1.369 . S
C1075 C1084 1.429 . S
C1076 C1074 1.419 . S
C1076 C1077 1.363 . S
C1076 H1079 0.929 . S
C1077 C1076 1.363 . S
C1077 C1083 1.428 . S
H1078 C1074 0.930 . S
H1079 C1076 0.929 . S
S1080 N1081 1.613 . S
S1080 N1082 1.610 . S
N1081 S1080 1.613 . S
N1081 C1084 1.350 . S
N1082 S1080 1.610 . S
N1082 C1083 1.351 . S
C1083 C1077 1.428 . S
C1083 N1082 1.351 . S
C1083 C1084 1.434 . S
C1084 C1075 1.429 . S
C1084 N1081 1.350 . S
C1084 C1083 1.434 . S
C1085 C1086 1.369 . S
C1085 C1087 1.419 . S
C1085 H1089 0.930 1_545 S
C1086 C1085 1.369 . S
C1086 C1095 1.429 . S
C1087 C1085 1.419 . S
C1087 C1088 1.363 . S
C1087 H1090 0.929 1_545 S
C1088 C1087 1.363 . S
C1088 C1094 1.428 . S
H1089 C1085 0.930 1_565 S
H1090 C1087 0.929 1_565 S
S1091 N1092 1.613 . S
S1091 N1093 1.610 . S
N1092 S1091 1.613 . S
N1092 C1095 1.350 . S
N1093 S1091 1.610 . S
N1093 C1094 1.351 . S
C1094 C1088 1.428 . S
C1094 N1093 1.351 . S
C1094 C1095 1.434 . S
C1095 C1086 1.429 . S
C1095 N1092 1.350 . S
C1095 C1094 1.434 . S
C1096 C1097 1.369 . S
C1096 C1098 1.419 . S
C1096 H1100 0.930 . S
C1097 C1096 1.369 . S
C1097 C1106 1.429 . S
C1098 C1096 1.419 . S
C1098 C1099 1.363 . S
C1098 H1101 0.929 . S
C1099 C1098 1.363 . S
C1099 C1105 1.428 . S
H1100 C1096 0.930 . S
H1101 C1098 0.929 . S
S1102 N1103 1.613 . S
S1102 N1104 1.610 . S
N1103 S1102 1.613 . S
N1103 C1106 1.350 . S
N1104 S1102 1.610 . S
N1104 C1105 1.351 . S
C1105 C1099 1.428 . S
C1105 N1104 1.351 . S
C1105 C1106 1.434 . S
C1106 C1097 1.429 . S
C1106 N1103 1.350 . S
C1106 C1105 1.434 . S
C1107 C1108 1.369 . S
C1107 C1109 1.419 . S
C1107 H1111 0.930 . S
C1108 C1107 1.369 . S
C1108 C1117 1.429 1_556 S
C1109 C1107 1.419 . S
C1109 C1110 1.363 . S
C1109 H1112 0.929 . S
C1110 C1109 1.363 . S
C1110 C1116 1.428 1_556 S
H1111 C1107 0.930 . S
H1112 C1109 0.929 . S
S1113 N1114 1.613 . S
S1113 N1115 1.610 . S
N1114 S1113 1.613 . S
N1114 C1117 1.350 . S
N1115 S1113 1.610 . S
N1115 C1116 1.351 . S
C1116 C1110 1.428 1_554 S
C1116 N1115 1.351 . S
C1116 C1117 1.434 . S
C1117 C1108 1.429 1_554 S
C1117 N1114 1.350 . S
C1117 C1116 1.434 . S
C1118 C1119 1.385 . S
C1118 C1120 1.419 . S
C1118 H1122 0.930 . S
C1119 C1118 1.385 . S
C1119 C1128 1.415 1_554 S
C1120 C1118 1.419 . S
C1120 C1121 1.378 . S
C1120 H1123 0.929 . S
C1121 C1120 1.378 . S
C1121 C1127 1.413 1_554 S
H1122 C1118 0.930 . S
H1123 C1120 0.929 . S
S1124 N1125 1.613 . S
S1124 N1126 1.610 . S
N1125 S1124 1.613 . S
N1125 C1128 1.350 . S
N1126 S1124 1.610 . S
N1126 C1127 1.351 . S
C1127 C1121 1.413 1_556 S
C1127 N1126 1.351 . S
C1127 C1128 1.434 . S
C1128 C1119 1.415 1_556 S
C1128 N1125 1.350 . S
C1128 C1127 1.434 . S
C1129 C1130 1.369 . S
C1129 C1131 1.419 . S
C1129 H1133 0.930 . S
C1130 C1129 1.369 . S
C1130 C1139 1.429 . S
C1131 C1129 1.419 . S
C1131 C1132 1.363 . S
C1131 H1134 0.929 . S
C1132 C1131 1.363 . S
C1132 C1138 1.428 . S
H1133 C1129 0.930 . S
H1134 C1131 0.929 . S
S1135 N1136 1.613 . S
S1135 N1137 1.610 . S
N1136 S1135 1.613 . S
N1136 C1139 1.350 1_556 S
N1137 S1135 1.610 . S
N1137 C1138 1.351 1_556 S
C1138 C1132 1.428 . S
C1138 N1137 1.351 1_554 S
C1138 C1139 1.434 . S
C1139 C1130 1.429 . S
C1139 N1136 1.350 1_554 S
C1139 C1138 1.434 . S
C1140 C1141 1.369 . S
C1140 C1142 1.419 . S
C1140 H1144 0.930 . S
C1141 C1140 1.369 . S
C1141 C1150 1.429 . S
C1142 C1140 1.419 . S
C1142 C1143 1.363 . S
C1142 H1145 0.929 . S
C1143 C1142 1.363 . S
C1143 C1149 1.428 . S
H1144 C1140 0.930 . S
H1145 C1142 0.929 . S
S1146 N1147 1.613 . S
S1146 N1148 1.610 . S
N1147 S1146 1.613 . S
N1147 C1150 1.350 . S
N1148 S1146 1.610 . S
N1148 C1149 1.351 . S
C1149 C1143 1.428 . S
C1149 N1148 1.351 . S
C1149 C1150 1.434 . S
C1150 C1141 1.429 . S
C1150 N1147 1.350 . S
C1150 C1149 1.434 . S
C1151 C1152 1.369 1_655 S
C1151 C1153 1.419 . S
C1151 H1155 0.930 . S
C1152 C1151 1.369 1_455 S
C1152 C1161 1.429 . S
C1153 C1151 1.419 . S
C1153 C1154 1.363 1_655 S
C1153 H1156 0.929 . S
C1154 C1153 1.363 1_455 S
C1154 C1160 1.428 . S
H1155 C1151 0.930 . S
H1156 C1153 0.929 . S
S1157 N1158 1.613 . S
S1157 N1159 1.610 . S
N1158 S1157 1.613 . S
N1158 C1161 1.350 . S
N1159 S1157 1.610 . S
N1159 C1160 1.351 . S
C1160 C1154 1.428 . S
C1160 N1159 1.351 . S
C1160 C1161 1.434 . S
C1161 C1152 1.429 . S
C1161 N1158 1.350 . S
C1161 C1160 1.434 . S
C1162 C1163 1.369 1_655 S
C1162 C1164 1.419 . S
C1162 H1166 0.930 . S
C1163 C1162 1.369 1_455 S
C1163 C1172 1.429 . S
C1164 C1162 1.419 . S
C1164 C1165 1.364 1_655 S
C1164 H1167 0.929 . S
C1165 C1164 1.364 1_455 S
C1165 C1171 1.426 . S
H1166 C1162 0.930 . S
H1167 C1164 0.929 . S
S1168 N1169 1.613 . S
S1168 N1170 1.610 . S
N1169 S1168 1.613 . S
N1169 C1172 1.350 . S
N1170 S1168 1.610 . S
N1170 C1171 1.351 . S
C1171 C1165 1.426 . S
C1171 N1170 1.351 . S
C1171 C1172 1.434 . S
C1172 C1163 1.429 . S
C1172 N1169 1.350 . S
C1172 C1171 1.434 . S
C1173 C1174 1.369 . S
C1173 C1175 1.419 . S
C1173 H1177 0.930 . S
C1174 C1173 1.369 . S
C1174 C1183 1.429 1_655 S
C1175 C1173 1.419 . S
C1175 C1176 1.363 . S
C1175 H1178 0.929 . S
C1176 C1175 1.363 . S
C1176 C1182 1.428 1_655 S
H1177 C1173 0.930 . S
H1178 C1175 0.929 . S
S1179 N1180 1.613 . S
S1179 N1181 1.610 . S
N1180 S1179 1.613 . S
N1180 C1183 1.350 . S
N1181 S1179 1.610 . S
N1181 C1182 1.351 . S
C1182 C1176 1.428 1_455 S
C1182 N1181 1.351 . S
C1182 C1183 1.434 . S
C1183 C1174 1.429 1_455 S
C1183 N1180 1.350 . S
C1183 C1182 1.434 . S
C1184 C1185 1.369 . S
C1184 C1186 1.419 . S
C1184 H1188 0.930 . S
C1185 C1184 1.369 . S
C1185 C1194 1.429 . S
C1186 C1184 1.419 . S
C1186 C1187 1.363 . S
C1186 H1189 0.929 . S
C1187 C1186 1.363 . S
C1187 C1193 1.428 . S
H1188 C1184 0.930 . S
H1189 C1186 0.929 . S
S1190 N1191 1.613 . S
S1190 N1192 1.610 . S
N1191 S1190 1.613 . S
N1191 C1194 1.350 . S
N1192 S1190 1.610 . S
N1192 C1193 1.351 . S
C1193 C1187 1.428 . S
C1193 N1192 1.351 . S
C1193 C1194 1.434 . S
C1194 C1185 1.429 . S
C1194 N1191 1.350 . S
C1194 C1193 1.434 . S
C1195 C1196 1.369 . S
C1195 C1197 1.419 . S
C1195 H1199 0.930 . S
C1196 C1195 1.369 . S
C1196 C1205 1.429 . S
C1197 C1195 1.419 . S
C1197 C1198 1.363 . S
C1197 H1200 0.929 . S
C1198 C1197 1.363 . S
C1198 C1204 1.428 . S
H1199 C1195 0.930 . S
H1200 C1197 0.929 . S
S1201 N1202 1.613 . S
S1201 N1203 1.610 . S
N1202 S1201 1.613 . S
N1202 C1205 1.350 . S
N1203 S1201 1.610 . S
N1203 C1204 1.351 . S
C1204 C1198 1.428 . S
C1204 N1203 1.351 . S
C1204 C1205 1.434 . S
C1205 C1196 1.429 . S
C1205 N1202 1.350 . S
C1205 C1204 1.434 . S
C1206 C1207 1.369 . S
C1206 C1208 1.419 . S
C1206 H1210 0.930 . S
C1207 C1206 1.369 . S
C1207 C1216 1.429 . S
C1208 C1206 1.419 . S
C1208 C1209 1.363 . S
C1208 H1211 0.929 . S
C1209 C1208 1.363 . S
C1209 C1215 1.428 . S
H1210 C1206 0.930 . S
H1211 C1208 0.929 . S
S1212 N1213 1.613 . S
S1212 N1214 1.610 1_545 S
N1213 S1212 1.613 . S
N1213 C1216 1.350 1_545 S
N1214 S1212 1.610 1_565 S
N1214 C1215 1.351 . S
C1215 C1209 1.428 . S
C1215 N1214 1.351 . S
C1215 C1216 1.434 . S
C1216 C1207 1.429 . S
C1216 N1213 1.350 1_565 S
C1216 C1215 1.434 . S
C1217 C1218 1.369 . S
C1217 C1219 1.419 . S
C1217 H1221 0.930 . S
C1218 C1217 1.369 . S
C1218 C1227 1.429 . S
C1219 C1217 1.419 . S
C1219 C1220 1.363 . S
C1219 H1222 0.929 . S
C1220 C1219 1.363 . S
C1220 C1226 1.428 . S
H1221 C1217 0.930 . S
H1222 C1219 0.929 . S
S1223 N1224 1.613 . S
S1223 N1225 1.610 . S
N1224 S1223 1.613 . S
N1224 C1227 1.350 . S
N1225 S1223 1.610 . S
N1225 C1226 1.351 . S
C1226 C1220 1.428 . S
C1226 N1225 1.351 . S
C1226 C1227 1.434 . S
C1227 C1218 1.429 . S
C1227 N1224 1.350 . S
C1227 C1226 1.434 . S
C1228 C1229 1.369 . S
C1228 C1230 1.419 . S
C1228 H1232 0.930 . S
C1229 C1228 1.369 . S
C1229 C1238 1.429 . S
C1230 C1228 1.419 . S
C1230 C1231 1.363 . S
C1230 H1233 0.929 . S
C1231 C1230 1.363 . S
C1231 C1237 1.428 . S
H1232 C1228 0.930 . S
H1233 C1230 0.929 . S
S1234 N1235 1.613 1_556 S
S1234 N1236 1.610 . S
N1235 S1234 1.613 1_554 S
N1235 C1238 1.350 . S
N1236 S1234 1.610 . S
N1236 C1237 1.351 1_556 S
C1237 C1231 1.428 . S
C1237 N1236 1.351 1_554 S
C1237 C1238 1.434 . S
C1238 C1229 1.429 . S
C1238 N1235 1.350 . S
C1238 C1237 1.434 . S
C1239 C1240 1.369 . S
C1239 C1241 1.419 . S
C1239 H1243 0.930 . S
C1240 C1239 1.369 . S
C1240 C1249 1.429 . S
C1241 C1239 1.419 . S
C1241 C1242 1.363 . S
C1241 H1244 0.929 . S
C1242 C1241 1.363 . S
C1242 C1248 1.428 . S
H1243 C1239 0.930 . S
H1244 C1241 0.929 . S
S1245 N1246 1.613 . S
S1245 N1247 1.610 . S
N1246 S1245 1.613 . S
N1246 C1249 1.350 . S
N1247 S1245 1.610 . S
N1247 C1248 1.351 . S
C1248 C1242 1.428 . S
C1248 N1247 1.351 . S
C1248 C1249 1.434 . S
C1249 C1240 1.429 . S
C1249 N1246 1.350 . S
C1249 C1248 1.434 . S
C1250 C1251 1.369 . S
C1250 C1252 1.419 . S
C1250 H1254 0.930 . S
C1251 C1250 1.369 . S
C1251 C1260 1.429 . S
C1252 C1250 1.419 . S
C1252 C1253 1.363 . S
C1252 H1255 0.929 . S
C1253 C1252 1.363 . S
C1253 C1259 1.428 . S
H1254 C1250 0.930 . S
H1255 C1252 0.929 . S
S1256 N1257 1.613 . S
S1256 N1258 1.610 . S
N1257 S1256 1.613 . S
N1257 C1260 1.350 . S
N1258 S1256 1.610 . S
N1258 C1259 1.351 . S
C1259 C1253 1.428 . S
C1259 N1258 1.351 . S
C1259 C1260 1.434 . S
C1260 C1251 1.429 . S
C1260 N1257 1.350 . S
C1260 C1259 1.434 . S
C1261 C1262 1.369 . S
C1261 C1263 1.419 . S
C1261 H1265 0.930 . S
C1262 C1261 1.369 . S
C1262 C1271 1.429 . S
C1263 C1261 1.419 . S
C1263 C1264 1.363 . S
C1263 H1266 0.929 . S
C1264 C1263 1.363 . S
C1264 C1270 1.428 . S
H1265 C1261 0.930 . S
H1266 C1263 0.929 . S
S1267 N1268 1.613 . S
S1267 N1269 1.610 . S
N1268 S1267 1.613 . S
N1268 C1271 1.350 . S
N1269 S1267 1.610 . S
N1269 C1270 1.351 . S
C1270 C1264 1.428 . S
C1270 N1269 1.351 . S
C1270 C1271 1.434 . S
C1271 C1262 1.429 . S
C1271 N1268 1.350 . S
C1271 C1270 1.434 . S
C1272 C1273 1.369 . S
C1272 C1274 1.419 . S
C1272 H1276 0.930 . S
C1273 C1272 1.369 . S
C1273 C1282 1.429 . S
C1274 C1272 1.419 . S
C1274 C1275 1.363 . S
C1274 H1277 0.929 . S
C1275 C1274 1.363 . S
C1275 C1281 1.428 . S
H1276 C1272 0.930 . S
H1277 C1274 0.929 . S
S1278 N1279 1.613 . S
S1278 N1280 1.610 . S
N1279 S1278 1.613 . S
N1279 C1282 1.350 . S
N1280 S1278 1.610 . S
N1280 C1281 1.351 . S
C1281 C1275 1.428 . S
C1281 N1280 1.351 . S
C1281 C1282 1.434 . S
C1282 C1273 1.429 . S
C1282 N1279 1.350 . S
C1282 C1281 1.434 . S
C1283 C1284 1.369 . S
C1283 C1285 1.419 . S
C1283 H1287 0.930 . S
C1284 C1283 1.369 . S
C1284 C1293 1.429 . S
C1285 C1283 1.419 . S
C1285 C1286 1.363 . S
C1285 H1288 0.929 . S
C1286 C1285 1.363 . S
C1286 C1292 1.428 . S
H1287 C1283 0.930 . S
H1288 C1285 0.929 . S
S1289 N1290 1.613 . S
S1289 N1291 1.610 . S
N1290 S1289 1.613 . S
N1290 C1293 1.350 . S
N1291 S1289 1.610 . S
N1291 C1292 1.351 . S
C1292 C1286 1.428 . S
C1292 N1291 1.351 . S
C1292 C1293 1.434 . S
C1293 C1284 1.429 . S
C1293 N1290 1.350 . S
C1293 C1292 1.434 . S
C1294 C1295 1.369 . S
C1294 C1296 1.419 . S
C1294 H1298 0.930 . S
C1295 C1294 1.369 . S
C1295 C1304 1.429 . S
C1296 C1294 1.419 . S
C1296 C1297 1.363 . S
C1296 H1299 0.929 . S
C1297 C1296 1.363 . S
C1297 C1303 1.428 . S
H1298 C1294 0.930 . S
H1299 C1296 0.929 . S
S1300 N1301 1.613 . S
S1300 N1302 1.610 . S
N1301 S1300 1.613 . S
N1301 C1304 1.350 . S
N1302 S1300 1.610 . S
N1302 C1303 1.351 . S
C1303 C1297 1.428 . S
C1303 N1302 1.351 . S
C1303 C1304 1.434 . S
C1304 C1295 1.429 . S
C1304 N1301 1.350 . S
C1304 C1303 1.434 . S
C1305 C1306 1.369 . S
C1305 C1307 1.419 . S
C1305 H1309 0.930 . S
C1306 C1305 1.369 . S
C1306 C1315 1.429 . S
C1307 C1305 1.419 . S
C1307 C1308 1.363 . S
C1307 H1310 0.929 . S
C1308 C1307 1.363 . S
C1308 C1314 1.428 . S
H1309 C1305 0.930 . S
H1310 C1307 0.929 . S
S1311 N1312 1.613 . S
S1311 N1313 1.610 . S
N1312 S1311 1.613 . S
N1312 C1315 1.350 . S
N1313 S1311 1.610 . S
N1313 C1314 1.351 . S
C1314 C1308 1.428 . S
C1314 N1313 1.351 . S
C1314 C1315 1.434 . S
C1315 C1306 1.429 . S
C1315 N1312 1.350 . S
C1315 C1314 1.434 . S
C1316 C1317 1.369 . S
C1316 C1318 1.419 . S
C1316 H1320 0.930 . S
C1317 C1316 1.369 . S
C1317 C1326 1.429 . S
C1318 C1316 1.419 . S
C1318 C1319 1.363 . S
C1318 H1321 0.929 . S
C1319 C1318 1.363 . S
C1319 C1325 1.428 . S
H1320 C1316 0.930 . S
H1321 C1318 0.929 . S
S1322 N1323 1.613 . S
S1322 N1324 1.610 . S
N1323 S1322 1.613 . S
N1323 C1326 1.350 . S
N1324 S1322 1.610 . S
N1324 C1325 1.351 . S
C1325 C1319 1.428 . S
C1325 N1324 1.351 . S
C1325 C1326 1.434 . S
C1326 C1317 1.429 . S
C1326 N1323 1.350 . S
C1326 C1325 1.434 . S
C1327 C1328 1.369 . S
C1327 C1329 1.419 . S
C1327 H1331 0.930 . S
C1328 C1327 1.369 . S
C1328 C1337 1.429 . S
C1329 C1327 1.419 . S
C1329 C1330 1.363 . S
C1329 H1332 0.929 . S
C1330 C1329 1.363 . S
C1330 C1336 1.428 . S
H1331 C1327 0.930 . S
H1332 C1329 0.929 . S
S1333 N1334 1.614 . S
S1333 N1335 1.601 1_545 S
N1334 S1333 1.614 . S
N1334 C1337 1.334 1_545 S
N1335 S1333 1.601 1_565 S
N1335 C1336 1.351 . S
C1336 C1330 1.428 . S
C1336 N1335 1.351 . S
C1336 C1337 1.434 . S
C1337 C1328 1.429 . S
C1337 N1334 1.334 1_565 S
C1337 C1336 1.434 . S
C1338 C1339 1.369 . S
C1338 C1340 1.419 . S
C1338 H1342 0.930 . S
C1339 C1338 1.369 . S
C1339 C1348 1.429 . S
C1340 C1338 1.419 . S
C1340 C1341 1.363 . S
C1340 H1343 0.929 . S
C1341 C1340 1.363 . S
C1341 C1347 1.428 . S
H1342 C1338 0.930 . S
H1343 C1340 0.929 . S
S1344 N1345 1.613 . S
S1344 N1346 1.610 . S
N1345 S1344 1.613 . S
N1345 C1348 1.350 . S
N1346 S1344 1.610 . S
N1346 C1347 1.351 . S
C1347 C1341 1.428 . S
C1347 N1346 1.351 . S
C1347 C1348 1.434 . S
C1348 C1339 1.429 . S
C1348 N1345 1.350 . S
C1348 C1347 1.434 . S
C1349 C1350 1.369 . S
C1349 C1351 1.419 . S
C1349 H1353 0.930 . S
C1350 C1349 1.369 . S
C1350 C1359 1.429 . S
C1351 C1349 1.419 . S
C1351 C1352 1.363 . S
C1351 H1354 0.929 . S
C1352 C1351 1.363 . S
C1352 C1358 1.428 . S
H1353 C1349 0.930 . S
H1354 C1351 0.929 . S
S1355 N1356 1.613 . S
S1355 N1357 1.610 . S
N1356 S1355 1.613 . S
N1356 C1359 1.350 . S
N1357 S1355 1.610 . S
N1357 C1358 1.351 . S
C1358 C1352 1.428 . S
C1358 N1357 1.351 . S
C1358 C1359 1.434 . S
C1359 C1350 1.429 . S
C1359 N1356 1.350 . S
C1359 C1358 1.434 . S
C1360 C1361 1.369 . S
C1360 C1362 1.419 . S
C1360 H1364 0.930 . S
C1361 C1360 1.369 . S
C1361 C1370 1.429 . S
C1362 C1360 1.419 . S
C1362 C1363 1.363 . S
C1362 H1365 0.929 . S
C1363 C1362 1.363 . S
C1363 C1369 1.428 . S
H1364 C1360 0.930 . S
H1365 C1362 0.929 . S
S1366 N1367 1.613 . S
S1366 N1368 1.610 . S
N1367 S1366 1.613 . S
N1367 C1370 1.350 . S
N1368 S1366 1.610 . S
N1368 C1369 1.351 . S
C1369 C1363 1.428 . S
C1369 N1368 1.351 . S
C1369 C1370 1.434 . S
C1370 C1361 1.429 . S
C1370 N1367 1.350 . S
C1370 C1369 1.434 . S
C1371 C1372 1.369 . S
C1371 C1373 1.419 . S
C1371 H1375 0.930 . S
C1372 C1371 1.369 . S
C1372 C1381 1.429 1_556 S
C1373 C1371 1.419 . S
C1373 C1374 1.363 . S
C1373 H1376 0.929 . S
C1374 C1373 1.363 . S
C1374 C1380 1.428 1_556 S
H1375 C1371 0.930 . S
H1376 C1373 0.929 . S
S1377 N1378 1.613 . S
S1377 N1379 1.610 . S
N1378 S1377 1.613 . S
N1378 C1381 1.350 . S
N1379 S1377 1.610 . S
N1379 C1380 1.351 . S
C1380 C1374 1.428 1_554 S
C1380 N1379 1.351 . S
C1380 C1381 1.434 . S
C1381 C1372 1.429 1_554 S
C1381 N1378 1.350 . S
C1381 C1380 1.434 . S
C1382 C1383 1.369 1_554 S
C1382 C1384 1.419 . S
C1382 H1386 0.930 . S
C1383 C1382 1.369 1_556 S
C1383 C1392 1.429 . S
C1384 C1382 1.419 . S
C1384 C1385 1.363 1_554 S
C1384 H1387 0.929 . S
C1385 C1384 1.363 1_556 S
C1385 C1391 1.428 . S
H1386 C1382 0.930 . S
H1387 C1384 0.929 . S
S1388 N1389 1.613 . S
S1388 N1390 1.610 . S
N1389 S1388 1.613 . S
N1389 C1392 1.350 . S
N1390 S1388 1.610 . S
N1390 C1391 1.351 . S
C1391 C1385 1.428 . S
C1391 N1390 1.351 . S
C1391 C1392 1.434 . S
C1392 C1383 1.429 . S
C1392 N1389 1.350 . S
C1392 C1391 1.434 . S
C1393 C1394 1.369 . S
C1393 C1395 1.419 . S
C1393 H1397 0.930 . S
C1394 C1393 1.369 . S
C1394 C1403 1.429 . S
C1395 C1393 1.419 . S
C1395 C1396 1.363 . S
C1395 H1398 0.929 . S
C1396 C1395 1.363 . S
C1396 C1402 1.428 . S
H1397 C1393 0.930 . S
H1398 C1395 0.929 . S
S1399 N1400 1.613 . S
S1399 N1401 1.610 . S
N1400 S1399 1.613 . S
N1400 C1403 1.350 . S
N1401 S1399 1.610 . S
N1401 C1402 1.351 . S
C1402 C1396 1.428 . S
C1402 N1401 1.351 . S
C1402 C1403 1.434 . S
C1403 C1394 1.429 . S
C1403 N1400 1.350 . S
C1403 C1402 1.434 . S
C877 C22 1.737 . S
C879 C723 1.682 1_545 S
C890 N740 1.781 . S
C888 C38 1.930 . S
C901 N642 1.811 . S
C899 C75 1.736 . S
C910 C91 1.370 . S
C912 C667 1.358 . S
C921 C128 1.828 . S
C923 C862 1.830 1_554 S
C932 C197 1.568 . S
C934 N822 1.573 . S
C945 N770 1.702 . S
C943 C144 1.866 . S
C954 C181 1.736 . S
C956 C796 1.728 . S
C967 C682 1.854 . S
C965 C234 1.861 . S
C978 C727 1.907 . S
C976 C303 1.905 . S
C987 C356 1.858 . S
C989 C706 1.890 . S
C998 C287 1.915 . S
C1000 C813 1.915 . S
C1011 C843 1.596 . S
C1009 C393 1.622 . S
C1022 N860 1.803 . S
C1020 C409 2.021 . S
C1031 C462 1.885 . S
C1033 N792 1.951 . S
C1044 C757 1.332 1_545 S
C1042 C446 1.316 . S
C1053 C499 1.795 . S
C1055 C742 1.790 . S
C1064 C552 1.461 . S
C1066 N702 1.488 . S
C1077 N680 1.563 . S
C1075 C515 1.752 . S
C1086 C568 1.976 . S
C1088 C646 1.976 . S
C1099 C772 1.922 . S
C1097 C340 1.907 . S
C1110 C847 1.854 . S
C1108 C621 1.853 . S
C1119 C250 1.772 . S
C1121 C826 1.779 1_554 S
C1130 C605 1.878 . S
C1132 C663 1.853 1_655 S
C1143 C637 1.560 . S
C1141 C39 1.506 . S
C1152 C29 0.870 . S
C1154 N672 0.870 1_455 S
C1165 N710 1.333 1_455 S
C1163 C92 1.458 . S
C1176 C753 1.836 . S
C1174 C82 1.738 . S
C1185 C145 1.733 . S
C1187 C652 1.731 . S
C1196 C188 1.462 . S
C1198 C693 1.446 . S
C1209 C697 1.257 . S
C1207 C135 1.245 . S
C1218 C198 1.681 . S
C1220 C736 1.673 . S
C1229 C251 1.203 . S
C1231 N650 1.200 . S
C1242 C712 1.715 . S
C1240 C294 1.681 . S
C1251 C347 1.163 . S
C1253 N732 1.156 . S
C1262 C304 1.703 . S
C1264 C766 1.716 . S
C1275 C787 1.568 . S
C1273 C410 1.547 . S
C1284 C400 0.856 . S
C1286 N762 0.856 . S
C1295 C453 1.138 . S
C1297 N830 1.080 . S
C1306 C463 2.038 . S
C1308 C873 2.085 . S
C1317 C516 1.711 . S
C1319 C802 1.734 . S
C1330 C783 1.816 . S
C1328 C569 1.856 . S
C1339 C506 1.144 . S
C1341 C817 1.131 . S
C1352 C856 1.483 . S
C1350 C559 1.458 . S
C1363 N800 1.100 . S
C1361 C357 1.125 . S
C1374 C832 1.696 . S
C1372 C612 1.668 . S
C1385 N852 1.136 . S
C1383 C241 1.132 . S
C1394 C622 1.620 . S
C1396 C676 1.628 . S
