# Generated by pormake.
# Topology gar, (4,6)-cn, num edge types: 1
# Building blocks:
#     Node 0, Type 0, BuildingBlock: QUQFOY_clean_sbu_1, # of connection points: 4
#     Node 1, Type 0, BuildingBlock: QUQFOY_clean_sbu_1, # of connection points: 4
#     Node 2, Type 0, BuildingBlock: QUQFOY_clean_sbu_1, # of connection points: 4
#     Node 3, Type 0, BuildingBlock: QUQFOY_clean_sbu_1, # of connection points: 4
#     Node 4, Type 0, BuildingBlock: QUQFOY_clean_sbu_1, # of connection points: 4
#     Node 5, Type 0, BuildingBlock: QUQFOY_clean_sbu_1, # of connection points: 4
#     Node 6, Type 0, BuildingBlock: QUQFOY_clean_sbu_1, # of connection points: 4
#     Node 7, Type 0, BuildingBlock: QUQFOY_clean_sbu_1, # of connection points: 4
#     Node 8, Type 0, BuildingBlock: QUQFOY_clean_sbu_1, # of connection points: 4
#     Node 9, Type 0, BuildingBlock: QUQFOY_clean_sbu_1, # of connection points: 4
#     Node 10, Type 0, BuildingBlock: QUQFOY_clean_sbu_1, # of connection points: 4
#     Node 11, Type 0, BuildingBlock: QUQFOY_clean_sbu_1, # of connection points: 4
#     Node 12, Type 0, BuildingBlock: QUQFOY_clean_sbu_1, # of connection points: 4
#     Node 13, Type 0, BuildingBlock: QUQFOY_clean_sbu_1, # of connection points: 4
#     Node 14, Type 0, BuildingBlock: QUQFOY_clean_sbu_1, # of connection points: 4
#     Node 15, Type 0, BuildingBlock: QUQFOY_clean_sbu_1, # of connection points: 4
#     Node 16, Type 0, BuildingBlock: QUQFOY_clean_sbu_1, # of connection points: 4
#     Node 17, Type 0, BuildingBlock: QUQFOY_clean_sbu_1, # of connection points: 4
#     Node 18, Type 0, BuildingBlock: QUQFOY_clean_sbu_1, # of connection points: 4
#     Node 19, Type 0, BuildingBlock: QUQFOY_clean_sbu_1, # of connection points: 4
#     Node 20, Type 0, BuildingBlock: QUQFOY_clean_sbu_1, # of connection points: 4
#     Node 21, Type 0, BuildingBlock: QUQFOY_clean_sbu_1, # of connection points: 4
#     Node 22, Type 0, BuildingBlock: QUQFOY_clean_sbu_1, # of connection points: 4
#     Node 23, Type 0, BuildingBlock: QUQFOY_clean_sbu_1, # of connection points: 4
#     Node 24, Type 1, BuildingBlock: INOVEN_clean_sbu_0, # of connection points: 6
#     Node 25, Type 1, BuildingBlock: INOVEN_clean_sbu_0, # of connection points: 6
#     Node 26, Type 1, BuildingBlock: INOVEN_clean_sbu_0, # of connection points: 6
#     Node 27, Type 1, BuildingBlock: INOVEN_clean_sbu_0, # of connection points: 6
#     Node 28, Type 1, BuildingBlock: INOVEN_clean_sbu_0, # of connection points: 6
#     Node 29, Type 1, BuildingBlock: INOVEN_clean_sbu_0, # of connection points: 6
#     Node 30, Type 1, BuildingBlock: INOVEN_clean_sbu_0, # of connection points: 6
#     Node 31, Type 1, BuildingBlock: INOVEN_clean_sbu_0, # of connection points: 6
#     Node 32, Type 1, BuildingBlock: INOVEN_clean_sbu_0, # of connection points: 6
#     Node 33, Type 1, BuildingBlock: INOVEN_clean_sbu_0, # of connection points: 6
#     Node 34, Type 1, BuildingBlock: INOVEN_clean_sbu_0, # of connection points: 6
#     Node 35, Type 1, BuildingBlock: INOVEN_clean_sbu_0, # of connection points: 6
#     Node 36, Type 1, BuildingBlock: INOVEN_clean_sbu_0, # of connection points: 6
#     Node 37, Type 1, BuildingBlock: INOVEN_clean_sbu_0, # of connection points: 6
#     Node 38, Type 1, BuildingBlock: INOVEN_clean_sbu_0, # of connection points: 6
#     Node 39, Type 1, BuildingBlock: INOVEN_clean_sbu_0, # of connection points: 6
#     Edge 40, Type (0, 1), BuildingBlock: KIFKEQ_clean_linker_1, # of connection points: 2
#     Edge 41, Type (0, 1), BuildingBlock: KIFKEQ_clean_linker_1, # of connection points: 2
#     Edge 42, Type (0, 1), BuildingBlock: KIFKEQ_clean_linker_1, # of connection points: 2
#     Edge 43, Type (0, 1), BuildingBlock: KIFKEQ_clean_linker_1, # of connection points: 2
#     Edge 44, Type (0, 1), BuildingBlock: KIFKEQ_clean_linker_1, # of connection points: 2
#     Edge 45, Type (0, 1), BuildingBlock: KIFKEQ_clean_linker_1, # of connection points: 2
#     Edge 46, Type (0, 1), BuildingBlock: KIFKEQ_clean_linker_1, # of connection points: 2
#     Edge 47, Type (0, 1), BuildingBlock: KIFKEQ_clean_linker_1, # of connection points: 2
#     Edge 48, Type (0, 1), BuildingBlock: KIFKEQ_clean_linker_1, # of connection points: 2
#     Edge 49, Type (0, 1), BuildingBlock: KIFKEQ_clean_linker_1, # of connection points: 2
#     Edge 50, Type (0, 1), BuildingBlock: KIFKEQ_clean_linker_1, # of connection points: 2
#     Edge 51, Type (0, 1), BuildingBlock: KIFKEQ_clean_linker_1, # of connection points: 2
#     Edge 52, Type (0, 1), BuildingBlock: KIFKEQ_clean_linker_1, # of connection points: 2
#     Edge 53, Type (0, 1), BuildingBlock: KIFKEQ_clean_linker_1, # of connection points: 2
#     Edge 54, Type (0, 1), BuildingBlock: KIFKEQ_clean_linker_1, # of connection points: 2
#     Edge 55, Type (0, 1), BuildingBlock: KIFKEQ_clean_linker_1, # of connection points: 2
#     Edge 56, Type (0, 1), BuildingBlock: KIFKEQ_clean_linker_1, # of connection points: 2
#     Edge 57, Type (0, 1), BuildingBlock: KIFKEQ_clean_linker_1, # of connection points: 2
#     Edge 58, Type (0, 1), BuildingBlock: KIFKEQ_clean_linker_1, # of connection points: 2
#     Edge 59, Type (0, 1), BuildingBlock: KIFKEQ_clean_linker_1, # of connection points: 2
#     Edge 60, Type (0, 1), BuildingBlock: KIFKEQ_clean_linker_1, # of connection points: 2
#     Edge 61, Type (0, 1), BuildingBlock: KIFKEQ_clean_linker_1, # of connection points: 2
#     Edge 62, Type (0, 1), BuildingBlock: KIFKEQ_clean_linker_1, # of connection points: 2
#     Edge 63, Type (0, 1), BuildingBlock: KIFKEQ_clean_linker_1, # of connection points: 2
#     Edge 64, Type (0, 1), BuildingBlock: KIFKEQ_clean_linker_1, # of connection points: 2
#     Edge 65, Type (0, 1), BuildingBlock: KIFKEQ_clean_linker_1, # of connection points: 2
#     Edge 66, Type (0, 1), BuildingBlock: KIFKEQ_clean_linker_1, # of connection points: 2
#     Edge 67, Type (0, 1), BuildingBlock: KIFKEQ_clean_linker_1, # of connection points: 2
#     Edge 68, Type (0, 1), BuildingBlock: KIFKEQ_clean_linker_1, # of connection points: 2
#     Edge 69, Type (0, 1), BuildingBlock: KIFKEQ_clean_linker_1, # of connection points: 2
#     Edge 70, Type (0, 1), BuildingBlock: KIFKEQ_clean_linker_1, # of connection points: 2
#     Edge 71, Type (0, 1), BuildingBlock: KIFKEQ_clean_linker_1, # of connection points: 2
#     Edge 72, Type (0, 1), BuildingBlock: KIFKEQ_clean_linker_1, # of connection points: 2
#     Edge 73, Type (0, 1), BuildingBlock: KIFKEQ_clean_linker_1, # of connection points: 2
#     Edge 74, Type (0, 1), BuildingBlock: KIFKEQ_clean_linker_1, # of connection points: 2
#     Edge 75, Type (0, 1), BuildingBlock: KIFKEQ_clean_linker_1, # of connection points: 2
#     Edge 76, Type (0, 1), BuildingBlock: KIFKEQ_clean_linker_1, # of connection points: 2
#     Edge 77, Type (0, 1), BuildingBlock: KIFKEQ_clean_linker_1, # of connection points: 2
#     Edge 78, Type (0, 1), BuildingBlock: KIFKEQ_clean_linker_1, # of connection points: 2
#     Edge 79, Type (0, 1), BuildingBlock: KIFKEQ_clean_linker_1, # of connection points: 2
#     Edge 80, Type (0, 1), BuildingBlock: KIFKEQ_clean_linker_1, # of connection points: 2
#     Edge 81, Type (0, 1), BuildingBlock: KIFKEQ_clean_linker_1, # of connection points: 2
#     Edge 82, Type (0, 1), BuildingBlock: KIFKEQ_clean_linker_1, # of connection points: 2
#     Edge 83, Type (0, 1), BuildingBlock: KIFKEQ_clean_linker_1, # of connection points: 2
#     Edge 84, Type (0, 1), BuildingBlock: KIFKEQ_clean_linker_1, # of connection points: 2
#     Edge 85, Type (0, 1), BuildingBlock: KIFKEQ_clean_linker_1, # of connection points: 2
#     Edge 86, Type (0, 1), BuildingBlock: KIFKEQ_clean_linker_1, # of connection points: 2
#     Edge 87, Type (0, 1), BuildingBlock: KIFKEQ_clean_linker_1, # of connection points: 2
#     Edge 88, Type (0, 1), BuildingBlock: KIFKEQ_clean_linker_1, # of connection points: 2
#     Edge 89, Type (0, 1), BuildingBlock: KIFKEQ_clean_linker_1, # of connection points: 2
#     Edge 90, Type (0, 1), BuildingBlock: KIFKEQ_clean_linker_1, # of connection points: 2
#     Edge 91, Type (0, 1), BuildingBlock: KIFKEQ_clean_linker_1, # of connection points: 2
#     Edge 92, Type (0, 1), BuildingBlock: KIFKEQ_clean_linker_1, # of connection points: 2
#     Edge 93, Type (0, 1), BuildingBlock: KIFKEQ_clean_linker_1, # of connection points: 2
#     Edge 94, Type (0, 1), BuildingBlock: KIFKEQ_clean_linker_1, # of connection points: 2
#     Edge 95, Type (0, 1), BuildingBlock: KIFKEQ_clean_linker_1, # of connection points: 2
#     Edge 96, Type (0, 1), BuildingBlock: KIFKEQ_clean_linker_1, # of connection points: 2
#     Edge 97, Type (0, 1), BuildingBlock: KIFKEQ_clean_linker_1, # of connection points: 2
#     Edge 98, Type (0, 1), BuildingBlock: KIFKEQ_clean_linker_1, # of connection points: 2
#     Edge 99, Type (0, 1), BuildingBlock: KIFKEQ_clean_linker_1, # of connection points: 2
#     Edge 100, Type (0, 1), BuildingBlock: KIFKEQ_clean_linker_1, # of connection points: 2
#     Edge 101, Type (0, 1), BuildingBlock: KIFKEQ_clean_linker_1, # of connection points: 2
#     Edge 102, Type (0, 1), BuildingBlock: KIFKEQ_clean_linker_1, # of connection points: 2
#     Edge 103, Type (0, 1), BuildingBlock: KIFKEQ_clean_linker_1, # of connection points: 2
#     Edge 104, Type (0, 1), BuildingBlock: KIFKEQ_clean_linker_1, # of connection points: 2
#     Edge 105, Type (0, 1), BuildingBlock: KIFKEQ_clean_linker_1, # of connection points: 2
#     Edge 106, Type (0, 1), BuildingBlock: KIFKEQ_clean_linker_1, # of connection points: 2
#     Edge 107, Type (0, 1), BuildingBlock: KIFKEQ_clean_linker_1, # of connection points: 2
#     Edge 108, Type (0, 1), BuildingBlock: KIFKEQ_clean_linker_1, # of connection points: 2
#     Edge 109, Type (0, 1), BuildingBlock: KIFKEQ_clean_linker_1, # of connection points: 2
#     Edge 110, Type (0, 1), BuildingBlock: KIFKEQ_clean_linker_1, # of connection points: 2
#     Edge 111, Type (0, 1), BuildingBlock: KIFKEQ_clean_linker_1, # of connection points: 2
#     Edge 112, Type (0, 1), BuildingBlock: KIFKEQ_clean_linker_1, # of connection points: 2
#     Edge 113, Type (0, 1), BuildingBlock: KIFKEQ_clean_linker_1, # of connection points: 2
#     Edge 114, Type (0, 1), BuildingBlock: KIFKEQ_clean_linker_1, # of connection points: 2
#     Edge 115, Type (0, 1), BuildingBlock: KIFKEQ_clean_linker_1, # of connection points: 2
#     Edge 116, Type (0, 1), BuildingBlock: KIFKEQ_clean_linker_1, # of connection points: 2
#     Edge 117, Type (0, 1), BuildingBlock: KIFKEQ_clean_linker_1, # of connection points: 2
#     Edge 118, Type (0, 1), BuildingBlock: KIFKEQ_clean_linker_1, # of connection points: 2
#     Edge 119, Type (0, 1), BuildingBlock: KIFKEQ_clean_linker_1, # of connection points: 2
#     Edge 120, Type (0, 1), BuildingBlock: KIFKEQ_clean_linker_1, # of connection points: 2
#     Edge 121, Type (0, 1), BuildingBlock: KIFKEQ_clean_linker_1, # of connection points: 2
#     Edge 122, Type (0, 1), BuildingBlock: KIFKEQ_clean_linker_1, # of connection points: 2
#     Edge 123, Type (0, 1), BuildingBlock: KIFKEQ_clean_linker_1, # of connection points: 2
#     Edge 124, Type (0, 1), BuildingBlock: KIFKEQ_clean_linker_1, # of connection points: 2
#     Edge 125, Type (0, 1), BuildingBlock: KIFKEQ_clean_linker_1, # of connection points: 2
#     Edge 126, Type (0, 1), BuildingBlock: KIFKEQ_clean_linker_1, # of connection points: 2
#     Edge 127, Type (0, 1), BuildingBlock: KIFKEQ_clean_linker_1, # of connection points: 2
#     Edge 128, Type (0, 1), BuildingBlock: KIFKEQ_clean_linker_1, # of connection points: 2
#     Edge 129, Type (0, 1), BuildingBlock: KIFKEQ_clean_linker_1, # of connection points: 2
#     Edge 130, Type (0, 1), BuildingBlock: KIFKEQ_clean_linker_1, # of connection points: 2
#     Edge 131, Type (0, 1), BuildingBlock: KIFKEQ_clean_linker_1, # of connection points: 2
#     Edge 132, Type (0, 1), BuildingBlock: KIFKEQ_clean_linker_1, # of connection points: 2
#     Edge 133, Type (0, 1), BuildingBlock: KIFKEQ_clean_linker_1, # of connection points: 2
#     Edge 134, Type (0, 1), BuildingBlock: KIFKEQ_clean_linker_1, # of connection points: 2
#     Edge 135, Type (0, 1), BuildingBlock: KIFKEQ_clean_linker_1, # of connection points: 2
# Relax obj value: 0.192
# Max RMSD: 0.317
# Mean RMSD: 0.182
data_MOF--net-gar--node1-QUQFOY_clean_sbu_1--node2-INOVEN_clean_sbu_0--edge1-KIFKEQ_clean_linker_1
_symmetry_space_group_name_H-M    P1
_symmetry_Int_Tables_number       1
_symmetry_cell_setting            triclinic
loop_
_symmetry_equiv_pos_as_xyz
'x, y, z'
_cell_length_a     64.657527
_cell_length_b     57.825596
_cell_length_c     58.167277
_cell_angle_alpha  98.164453
_cell_angle_beta   95.086434
_cell_angle_gamma 104.34727
loop_
_atom_site_label
_atom_site_type_symbol
_atom_site_fract_x
_atom_site_fract_y
_atom_site_fract_z
_atom_type_partial_charge
O0 O 0.11829 0.31211 0.40505 0.0
Cd1 Cd 0.12682 0.33958 0.38631 0.0
Cd2 Cd 0.11848 0.36229 0.42311 0.0
O3 O 0.12578 0.33598 0.4393 0.0
O4 O 0.13742 0.32378 0.35977 0.0
O5 O 0.1579 0.35507 0.38539 0.0
C6 C 0.15578 0.3391 0.36681 0.0
C7 C 0.12435 0.4006 0.44402 0.0
C8 C 0.12124 0.31501 0.42718 0.0
C9 C 0.08668 0.34988 0.38027 0.0
O10 O 0.08931 0.35223 0.4024 0.0
O11 O 0.10239 0.34903 0.36906 0.0
O12 O 0.11095 0.38236 0.44936 0.0
O13 O 0.13568 0.39711 0.42733 0.0
O14 O 1.00216 0.71905 0.66948 0.0
Cd15 Cd 1.00471 0.75155 0.68946 0.0
Cd16 Cd 1.01213 0.7652 0.65226 0.0
O17 O 0.99157 0.7324 0.63848 0.0
O18 O 0.98549 0.74744 0.71291 0.0
O19 O 0.98269 0.76879 0.68403 0.0
C20 C 0.97563 0.76055 0.70221 0.0
C21 C 0.01427 0.79791 0.63414 0.0
C22 C 0.99471 0.71498 0.64801 0.0
C23 C 0.04839 0.77167 0.68954 0.0
O24 O 0.0423 0.7664 0.66767 0.0
O25 O 0.0346 0.77051 0.70372 0.0
O26 O 0.01959 0.77922 0.62439 0.0
O27 O 1.00597 0.79732 0.65348 0.0
O28 O 0.65978 0.84761 0.89855 0.0
Cd29 Cd 0.63514 0.84729 0.91814 0.0
Cd30 Cd 0.61814 0.86334 0.88357 0.0
O31 O 0.64227 0.85505 0.8675 0.0
O32 O 0.6395 0.82649 0.941 0.0
O33 O 0.61103 0.81723 0.91377 0.0
C34 C 0.62161 0.81157 0.93102 0.0
C35 C 0.58379 0.84668 0.86581 0.0
C36 C 0.65841 0.84983 0.87717 0.0
C37 C 0.62715 0.89592 0.92827 0.0
O38 O 0.62328 0.89476 0.90635 0.0
O39 O 0.63146 0.87832 0.93663 0.0
O40 O 0.59651 0.86377 0.85785 0.0
O41 O 0.59069 0.83883 0.88389 0.0
O42 O 0.50541 0.20822 0.16762 0.0
Cd43 Cd 0.50672 0.24059 0.18784 0.0
Cd44 Cd 0.51661 0.25282 0.15125 0.0
O45 O 0.49476 0.22147 0.13659 0.0
O46 O 0.48644 0.23618 0.21035 0.0
O47 O 0.4842 0.25657 0.18064 0.0
C48 C 0.47662 0.24872 0.19876 0.0
C49 C 0.52352 0.2867 0.13462 0.0
C50 C 0.49803 0.20409 0.14608 0.0
C51 C 0.55021 0.25867 0.18996 0.0
O52 O 0.54465 0.25027 0.16838 0.0
O53 O 0.53611 0.26144 0.203 0.0
O54 O 0.52795 0.26732 0.12504 0.0
O55 O 0.51291 0.28591 0.15245 0.0
O56 O 0.0902 0.78696 0.12188 0.0
Cd57 Cd 0.09536 0.8157 0.14816 0.0
Cd58 Cd 0.11956 0.83652 0.11645 0.0
O59 O 0.11084 0.80182 0.09643 0.0
O60 O 0.07479 0.79975 0.16859 0.0
O61 O 0.07065 0.83104 0.15287 0.0
C62 C 0.06315 0.81419 0.16462 0.0
C63 C 0.10895 0.86868 0.10198 0.0
C64 C 0.09805 0.78405 0.10283 0.0
C65 C 0.14398 0.83368 0.16224 0.0
O66 O 0.14533 0.84168 0.14292 0.0
O67 O 0.12558 0.82389 0.16786 0.0
O68 O 0.12554 0.8619 0.09578 0.0
O69 O 0.0984 0.85736 0.11675 0.0
O70 O 0.56738 0.78425 0.42312 0.0
Cd71 Cd 0.54657 0.77988 0.44774 0.0
Cd72 Cd 0.5217 0.79764 0.40712 0.0
O73 O 0.54961 0.79323 0.39251 0.0
O74 O 0.56241 0.76735 0.47245 0.0
O75 O 0.53201 0.74559 0.45123 0.0
C76 C 0.54786 0.74707 0.46701 0.0
C77 C 0.48812 0.79593 0.38458 0.0
C78 C 0.56647 0.78902 0.40244 0.0
C79 C 0.53538 0.82751 0.45738 0.0
O80 O 0.52806 0.82458 0.43585 0.0
O81 O 0.54207 0.8112 0.46589 0.0
O82 O 0.50576 0.8117 0.38331 0.0
O83 O 0.48949 0.77982 0.39749 0.0
O84 O 0.59989 0.28438 0.6258 0.0
Cd85 Cd 0.60433 0.31314 0.65192 0.0
Cd86 Cd 0.62829 0.33295 0.61966 0.0
O87 O 0.61893 0.29869 0.59898 0.0
O88 O 0.58315 0.29658 0.67149 0.0
O89 O 0.57883 0.32767 0.65557 0.0
C90 C 0.57112 0.31044 0.66683 0.0
C91 C 0.61687 0.36502 0.60608 0.0
C92 C 0.60671 0.28109 0.60617 0.0
C93 C 0.65298 0.33041 0.66589 0.0
O94 O 0.65419 0.33732 0.64602 0.0
O95 O 0.63454 0.32173 0.67212 0.0
O96 O 0.63364 0.35889 0.59956 0.0
O97 O 0.60675 0.35329 0.62087 0.0
O98 O 0.03506 0.24383 0.9287 0.0
Cd99 Cd 0.03476 0.27223 0.90983 0.0
Cd100 Cd 0.016 0.28736 0.94857 0.0
O101 O 0.02414 0.25861 0.96114 0.0
O102 O 0.05349 0.26775 0.8845 0.0
O103 O 0.06398 0.29718 0.91504 0.0
C104 C 0.06841 0.28579 0.89613 0.0
C105 C 0.02832 0.32642 0.96993 0.0
C106 C 0.03143 0.24259 0.94975 0.0
C107 C 0.98897 0.28075 0.90254 0.0
O108 O 0.98901 0.28233 0.92457 0.0
O109 O 1.00577 0.27807 0.89348 0.0
O110 O 1.01276 0.3106 0.97589 0.0
O111 O 0.03756 0.31966 0.95229 0.0
O112 O 0.44519 0.03956 0.27993 0.0
Cd113 Cd 0.43765 0.05043 0.31221 0.0
Cd114 Cd 0.47698 0.04784 0.31742 0.0
O115 O 0.47833 0.06202 0.28779 0.0
O116 O 0.40848 0.0531 0.30486 0.0
O117 O 0.43681 0.08432 0.31995 0.0
C118 C 0.41696 0.07615 0.31052 0.0
C119 C 0.49426 0.06152 0.35284 0.0
C120 C 0.46302 0.04841 0.27302 0.0
C121 C 0.44223 1.00894 0.32243 0.0
O122 O 0.45923 1.01304 0.31276 0.0
O123 O 0.43799 0.02678 0.33454 0.0
O124 O 0.5033 0.05079 0.33707 0.0
O125 O 0.47641 0.067 0.34737 0.0
O126 O 0.30953 0.20472 0.55185 0.0
Cd127 Cd 0.30848 0.18069 0.52224 0.0
Cd128 Cd 0.29398 0.21708 0.50444 0.0
O129 O 0.30591 0.23735 0.53808 0.0
O130 O 0.32299 0.15743 0.53506 0.0
O131 O 0.33745 0.18105 0.51091 0.0
C132 C 0.33913 0.16548 0.52433 0.0
C133 C 0.30083 0.23203 0.46883 0.0
C134 C 0.30919 0.22678 0.55536 0.0
C135 C 0.26157 0.16875 0.50595 0.0
O136 O 0.26488 0.19104 0.50415 0.0
O137 O 0.27731 0.15967 0.51003 0.0
O138 O 0.28793 0.2392 0.48218 0.0
O139 O 0.3106 0.21688 0.476 0.0
O140 O 0.17577 1.01814 0.74222 0.0
Cd141 Cd 0.20384 1.01893 0.76592 0.0
Cd142 Cd 0.16932 0.04681 0.79791 0.0
O143 O 0.15343 0.0354 0.76195 0.0
O144 O 0.22209 0.99708 0.74828 0.0
O145 O 0.21115 0.98965 0.78119 0.0
C146 C 0.22135 0.98348 0.76418 0.0
C147 C 0.15065 0.04584 0.83457 0.0
C148 C 0.1587 0.02599 0.74249 0.0
C149 C 0.21584 0.07653 0.78732 0.0
O150 O 0.19836 0.07452 0.79693 0.0
O151 O 0.22053 0.05758 0.77652 0.0
O152 O 0.14973 0.06116 0.8206 0.0
O153 O 0.1616 0.03073 0.82794 0.0
O154 O 0.33498 0.95062 0.03955 0.0
Cd155 Cd 0.32724 0.96815 1.01378 0.0
Cd156 Cd 0.32691 0.92789 0.99272 0.0
O157 O 0.31499 0.91539 0.02125 0.0
O158 O 0.31703 0.99348 0.03115 0.0
O159 O 0.29624 0.964 1.00376 0.0
C160 C 0.29816 0.98219 0.02031 0.0
C161 C 0.32122 0.90339 0.95712 0.0
C162 C 0.32539 0.92883 0.03985 0.0
C163 C 0.36563 0.97025 0.99805 0.0
O164 O 0.3584 0.94784 0.99822 0.0
O165 O 0.35319 0.98404 0.99947 0.0
O166 O 0.33195 0.89898 0.9749 0.0
O167 O 0.31173 0.92059 0.96006 0.0
O168 O 0.33278 0.40353 0.08836 0.0
Cd169 Cd 0.33645 0.4242 0.06156 0.0
Cd170 Cd 0.34864 0.38461 0.04029 0.0
O171 O 0.33842 0.37019 0.06946 0.0
O172 O 0.32063 0.4496 0.06972 0.0
O173 O 0.30896 0.42016 0.03938 0.0
C174 C 0.30593 0.43876 0.05243 0.0
C175 C 0.33644 0.36487 1.00166 0.0
C176 C 0.33346 0.38161 0.08764 0.0
C177 C 0.38287 0.43213 0.04949 0.0
O178 O 0.37855 0.4092 0.04403 0.0
O179 O 0.36813 0.44202 0.05573 0.0
O180 O 0.34951 0.35748 0.01509 0.0
O181 O 0.32921 0.38261 1.01065 0.0
O182 O 0.80208 0.15715 0.07882 0.0
Cd183 Cd 0.80032 0.13693 0.04646 0.0
Cd184 Cd 0.80419 0.17763 0.03571 0.0
O185 O 0.82175 0.18937 0.0676 0.0
O186 O 0.81581 0.1117 0.04691 0.0
O187 O 0.82622 0.14526 0.03126 0.0
C188 C 0.82949 0.1254 0.03634 0.0
C189 C 0.80925 0.19193 1.00176 0.0
C190 C 0.81372 0.17881 0.08368 0.0
C191 C 0.76173 0.14459 0.02795 0.0
O192 O 0.77207 0.16619 0.03642 0.0
O193 O 0.7715 0.12808 0.02576 0.0
O194 O 0.80673 0.20585 0.02009 0.0
O195 O 0.81206 0.17096 1.00374 0.0
O196 O 0.19556 0.57028 0.23198 0.0
Cd197 Cd 0.20675 0.57187 0.26577 0.0
Cd198 Cd 0.16732 0.56606 0.26778 0.0
O199 O 0.167 0.54301 0.23756 0.0
O200 O 0.23357 0.56263 0.27089 0.0
O201 O 0.20055 0.53937 0.27294 0.0
C202 C 0.22107 0.54248 0.27426 0.0
C203 C 0.16017 0.56146 0.30444 0.0
C204 C 0.17881 0.55343 0.22367 0.0
C205 C 0.19438 0.61275 0.2804 0.0
O206 O 0.17815 0.60192 0.26552 0.0
O207 O 0.20483 0.6001 0.28994 0.0
O208 O 0.14465 0.56108 0.28854 0.0
O209 O 0.17866 0.56055 0.29841 0.0
O210 O 0.83472 0.9053 0.59346 0.0
Cd211 Cd 0.83777 0.92457 0.56574 0.0
Cd212 Cd 0.85098 0.88638 0.54611 0.0
O213 O 0.84059 0.87184 0.57524 0.0
O214 O 0.82071 0.9488 0.57192 0.0
O215 O 0.81074 0.91798 0.54257 0.0
C216 C 0.80679 0.93671 0.55439 0.0
C217 C 0.83874 0.86691 0.50742 0.0
C218 C 0.83547 0.88347 0.5932 0.0
C219 C 0.8838 0.93468 0.55413 0.0
O220 O 0.88049 0.91178 0.54982 0.0
O221 O 0.86848 0.94382 0.55958 0.0
O222 O 0.85219 0.85976 0.52061 0.0
O223 O 0.8312 0.88427 0.5167 0.0
O224 O 0.95293 0.0746 0.22643 0.0
Cd225 Cd 0.92816 0.07466 0.25034 0.0
Cd226 Cd 0.96742 0.05467 0.27843 0.0
O227 O 0.9792 0.06275 0.24539 0.0
O228 O 0.90503 0.09293 0.23943 0.0
O229 O 0.92771 0.10847 0.27075 0.0
C230 C 0.9119 0.11074 0.25674 0.0
C231 C 0.98949 0.06026 0.31669 0.0
C232 C 0.97139 0.06949 0.22694 0.0
C233 C 0.91902 0.02176 0.26718 0.0
O234 O 0.93889 0.0262 0.27543 0.0
O235 O 0.91212 0.03792 0.25766 0.0
O236 O 0.98913 0.04318 0.29964 0.0
O237 O 0.97865 0.07536 0.31185 0.0
O238 O 0.30443 0.6568 0.5729 0.0
Cd239 Cd 0.30154 0.63663 0.54021 0.0
Cd240 Cd 0.30651 0.67748 0.53225 0.0
O241 O 0.3271 0.68733 0.56259 0.0
O242 O 0.31558 0.61038 0.53994 0.0
O243 O 0.3274 0.64387 0.52466 0.0
C244 C 0.33 0.62367 0.52979 0.0
C245 C 0.30564 0.69364 0.49933 0.0
C246 C 0.31808 0.67731 0.57848 0.0
C247 C 0.26341 0.64554 0.5268 0.0
O248 O 0.27502 0.66614 0.53672 0.0
O249 O 0.2722 0.62874 0.52077 0.0
O250 O 0.31098 0.67347 0.49876 0.0
O251 O 0.30526 0.70639 0.51932 0.0
O252 O 0.45602 0.57761 0.73228 0.0
Cd253 Cd 0.42924 0.57753 0.7536 0.0
Cd254 Cd 0.4693 0.55671 0.7842 0.0
O255 O 0.48166 0.56507 0.7518 0.0
O256 O 0.40856 0.59689 0.7384 0.0
O257 O 0.42456 0.60977 0.77377 0.0
C258 C 0.41191 0.61333 0.75688 0.0
C259 C 0.49102 0.55978 0.8225 0.0
C260 C 0.47434 0.57212 0.73329 0.0
C261 C 0.42045 0.52397 0.76956 0.0
O262 O 0.44018 0.52891 0.77864 0.0
O263 O 0.41333 0.54014 0.76014 0.0
O264 O 0.48971 0.54283 0.805 0.0
O265 O 0.48121 0.57596 0.81826 0.0
O266 O 0.69238 0.07348 0.72655 0.0
Cd267 Cd 0.70574 0.06872 0.75775 0.0
Cd268 Cd 0.66962 0.07032 0.76652 0.0
O269 O 0.66412 0.04839 0.73529 0.0
O270 O 0.73002 0.05486 0.75588 0.0
O271 O 0.69735 0.03596 0.76372 0.0
C272 C 0.71713 0.03617 0.76162 0.0
C273 C 0.65862 0.06321 0.80063 0.0
C274 C 0.67378 0.05929 0.72034 0.0
C275 C 0.70243 0.11111 0.78303 0.0
O276 O 0.68522 0.10631 0.76898 0.0
O277 O 0.71011 0.0938 0.78681 0.0
O278 O 0.64561 0.06779 0.7847 0.0
O279 O 0.67639 0.05865 0.7954 0.0
O280 O 0.81129 0.71759 0.05937 0.0
Cd281 Cd 0.80923 0.68904 0.03325 0.0
Cd282 Cd 0.79025 0.72011 1.00887 0.0
O283 O 0.79783 0.74283 0.04127 0.0
O284 O 0.82498 0.67019 0.05127 0.0
O285 O 0.83695 0.68509 0.02077 0.0
C286 C 0.83992 0.67397 0.03801 0.0
C287 C 0.79799 0.7354 0.97406 0.0
C288 C 0.80618 0.73743 0.05975 0.0
C289 C 0.76165 0.67092 0.01475 0.0
O290 O 0.76349 0.69088 1.00719 0.0
O291 O 0.77819 0.66594 0.02433 0.0
O292 O 0.78198 0.73885 0.98452 0.0
O293 O 0.81001 0.72356 0.98352 0.0
O294 O 0.94914 0.54962 0.78896 0.0
Cd295 Cd 0.93768 0.55702 0.81984 0.0
Cd296 Cd 0.97588 0.5574 0.82971 0.0
O297 O 0.98197 0.57208 0.80066 0.0
O298 O 0.93277 0.5894 0.82731 0.0
O299 O 0.90825 0.55654 0.80823 0.0
C300 C 0.91418 0.57966 0.81499 0.0
C301 C 0.98867 0.57189 0.86712 0.0
C302 C 0.96742 0.56032 0.78421 0.0
C303 C 0.94327 0.51501 0.83103 0.0
O304 O 0.96085 0.52136 0.82278 0.0
O305 O 0.9353 0.53136 0.84049 0.0
O306 O 1.00047 0.56338 0.85307 0.0
O307 O 0.97006 0.57421 0.85923 0.0
O308 O 0.83161 0.44815 0.54981 0.0
Cd309 Cd 0.82678 0.46115 0.51987 0.0
Cd310 Cd 0.82992 0.42006 0.50685 0.0
O311 O 0.81537 0.41052 0.53481 0.0
O312 O 0.81678 0.48948 0.5304 0.0
O313 O 0.79634 0.45598 0.50724 0.0
C314 C 0.79817 0.47683 0.51993 0.0
C315 C 0.82636 0.39577 0.47157 0.0
C316 C 0.82414 0.42647 0.55257 0.0
C317 C 0.86788 0.46163 0.51175 0.0
O318 O 0.86099 0.44014 0.51531 0.0
O319 O 0.85475 0.47389 0.50715 0.0
O320 O 0.83465 0.39033 0.49036 0.0
O321 O 0.81789 0.41389 0.47331 0.0
O322 O 0.6785 0.51609 0.24795 0.0
Cd323 Cd 0.7061 0.51771 0.27278 0.0
Cd324 Cd 0.67065 0.54424 0.30395 0.0
O325 O 0.65569 0.53291 0.26739 0.0
O326 O 0.72672 0.49749 0.25745 0.0
O327 O 0.71117 0.48692 0.28711 0.0
C328 C 0.72369 0.48228 0.27192 0.0
C329 C 0.65214 0.5429 0.34089 0.0
C330 C 0.66127 0.52368 0.24798 0.0
C331 C 0.71667 0.57539 0.29424 0.0
O332 O 0.69893 0.57276 0.30335 0.0
O333 O 0.72212 0.55672 0.28391 0.0
O334 O 0.65067 0.55791 0.32672 0.0
O335 O 0.6634 0.52814 0.3342 0.0
Gd336 Gd 0.04645 0.04533 0.02004 0.0
Gd337 Gd 0.08761 0.07254 0.0489 0.0
C338 C 0.06201 0.10402 0.0241 0.0
C339 C 1.00604 0.03061 1.00512 0.0
C340 C 0.99002 0.04427 1.00775 0.0
C341 C 0.97229 0.03969 0.99051 0.0
C342 C 0.99402 0.0642 0.02592 0.0
C343 C 0.96175 0.07374 1.01065 0.0
C344 C 0.9799 0.07878 0.02742 0.0
C345 C 0.95816 0.05441 0.99195 0.0
C346 C 0.07683 0.0464 0.98918 0.0
C347 C 0.07293 1.01373 0.04373 0.0
C348 C 0.12812 0.08704 0.0638 0.0
C349 C 0.14474 0.07394 0.06212 0.0
C350 C 0.16088 0.07795 0.08104 0.0
C351 C 0.14303 0.05528 0.04317 0.0
C352 C 0.17442 0.04583 0.06147 0.0
C353 C 0.15783 0.04135 0.04282 0.0
C354 C 0.17562 0.06399 0.08074 0.0
C355 C 0.0572 0.07207 0.07998 0.0
O356 O 0.04578 0.08433 0.02037 0.0
O357 O 0.08113 0.10395 0.03385 0.0
O358 O 0.02046 0.03939 0.99214 0.0
O359 O 0.01436 0.02515 0.02435 0.0
O360 O 0.05682 0.03459 0.98463 0.0
O361 O 0.08043 0.05577 1.01102 0.0
O362 O 0.08872 0.0338 0.04821 0.0
O363 O 0.05373 1.01351 0.0339 0.0
O364 O 0.11362 0.07855 0.07682 0.0
O365 O 0.11988 0.09201 0.04429 0.0
O366 O 0.07732 0.08366 0.08403 0.0
O367 O 0.0533 0.06234 0.05814 0.0
H368 H 0.96943 0.0248 0.97601 0.0
H369 H 1.00809 0.06851 0.0389 0.0
H370 H 0.98284 0.09368 0.04194 0.0
H371 H 0.94404 0.05019 0.97902 0.0
H372 H 0.16194 0.09172 0.09614 0.0
H373 H 0.13022 0.05141 0.02871 0.0
H374 H 0.15667 0.02758 0.02768 0.0
H375 H 0.18811 0.06754 0.09547 0.0
Gd376 Gd 0.32126 0.80786 0.25228 0.0
Gd377 Gd 0.30538 0.82098 0.30186 0.0
C378 C 0.3299 0.86331 0.27702 0.0
C379 C 0.32732 0.80396 0.2097 0.0
C380 C 0.34025 0.82352 0.19971 0.0
C381 C 0.35764 0.81997 0.18826 0.0
C382 C 0.33641 0.84658 0.20325 0.0
C383 C 0.36286 0.85985 0.17805 0.0
C384 C 0.34797 0.86484 0.19276 0.0
C385 C 0.3691 0.83825 0.17757 0.0
C386 C 0.35309 0.80941 0.28747 0.0
C387 C 0.29759 0.76541 0.27619 0.0
C388 C 0.29841 0.82338 0.34445 0.0
C389 C 0.28733 0.80272 0.35476 0.0
C390 C 0.26694 0.80159 0.36181 0.0
C391 C 0.29572 0.78252 0.35471 0.0
C392 C 0.26454 0.76132 0.37073 0.0
C393 C 0.28446 0.76207 0.36259 0.0
C394 C 0.25559 0.78101 0.3697 0.0
C395 C 0.2739 0.81824 0.26577 0.0
O396 O 0.3286 0.84782 0.25772 0.0
O397 O 0.32422 0.85735 0.29709 0.0
O398 O 0.33834 0.79548 0.22483 0.0
O399 O 0.30924 0.80724 0.21634 0.0
O400 O 0.35418 0.80528 0.26529 0.0
O401 O 0.33485 0.81341 0.28987 0.0
O402 O 0.29928 0.78058 0.29598 0.0
O403 O 0.30218 0.77215 0.25623 0.0
O404 O 0.28619 0.82981 0.32877 0.0
O405 O 0.31734 0.82303 0.33821 0.0
O406 O 0.27191 0.82273 0.28773 0.0
O407 O 0.29241 0.81506 0.26468 0.0
H408 H 0.36151 0.80266 0.18643 0.0
H409 H 0.32364 0.85017 0.21287 0.0
H410 H 0.34293 0.88143 0.19324 0.0
H411 H 0.38068 0.83431 0.16626 0.0
H412 H 0.25982 0.81665 0.36126 0.0
H413 H 0.31111 0.78246 0.34873 0.0
H414 H 0.29202 0.74742 0.36357 0.0
H415 H 0.24024 0.78083 0.37587 0.0
Gd416 Gd 0.59691 0.05339 0.53871 0.0
Gd417 Gd 0.54807 0.04916 0.54466 0.0
C418 C 0.56182 1.00036 0.53301 0.0
C419 C 0.6358 0.0491 0.53887 0.0
C420 C 0.64773 0.0303 0.5353 0.0
C421 C 0.65844 0.02835 0.51542 0.0
C422 C 0.65017 1.0157 0.55221 0.0
C423 C 0.67573 0.99969 0.53062 0.0
C424 C 0.664 1.00051 0.54986 0.0
C425 C 0.67217 1.01316 0.51304 0.0
C426 C 0.57136 0.05611 0.50147 0.0
C427 C 0.58328 0.10244 0.55123 0.0
C428 C 0.5094 0.0543 0.54264 0.0
C429 C 0.4982 0.07359 0.54774 0.0
C430 C 0.48821 0.07573 0.56815 0.0
C431 C 0.49564 0.08852 0.53124 0.0
C432 C 0.47124 0.1053 0.55408 0.0
C433 C 0.48232 0.10409 0.53433 0.0
C434 C 0.47505 0.09156 0.5714 0.0
C435 C 0.57365 0.04718 0.58198 0.0
O436 O 0.5822 1.01331 0.53837 0.0
O437 O 0.54563 1.01049 0.5311 0.0
O438 O 0.62438 0.05212 0.52036 0.0
O439 O 0.62653 0.05128 0.55794 0.0
O440 O 0.59136 0.0685 0.50607 0.0
O441 O 0.5663 0.04208 0.5158 0.0
O442 O 0.56299 0.08919 0.54647 0.0
O443 O 0.59977 0.09263 0.55214 0.0
O444 O 0.51872 0.04757 0.56051 0.0
O445 O 0.52052 0.05505 0.52486 0.0
O446 O 0.55327 0.03627 0.57893 0.0
O447 O 0.57856 0.06054 0.56717 0.0
H448 H 0.65685 0.0393 0.50205 0.0
H449 H 0.64209 1.0167 0.56771 0.0
H450 H 0.66641 0.99048 0.56378 0.0
H451 H 0.68062 1.01263 0.49779 0.0
H452 H 0.48993 0.06454 0.58127 0.0
H453 H 0.50311 0.08742 0.51532 0.0
H454 H 0.47978 0.11404 0.5204 0.0
H455 H 0.46734 0.09237 0.58715 0.0
Gd456 Gd 0.29574 0.30425 0.77528 0.0
Gd457 Gd 0.34157 0.29311 0.77734 0.0
C458 C 0.32522 0.31183 0.8257 0.0
C459 C 0.25523 0.29827 0.7797 0.0
C460 C 0.24113 0.30227 0.79799 0.0
C461 C 0.23449 0.32373 0.80186 0.0
C462 C 0.23255 0.28357 0.81029 0.0
C463 C 0.20962 0.30684 0.82834 0.0
C464 C 0.21706 0.28583 0.82525 0.0
C465 C 0.21906 0.32604 0.81693 0.0
C466 C 0.32678 0.34704 0.7737 0.0
C467 C 0.31338 0.28851 0.72698 0.0
C468 C 0.38173 0.29498 0.77446 0.0
C469 C 0.39567 0.29127 0.75602 0.0
C470 C 0.40135 0.26927 0.75122 0.0
C471 C 0.40473 0.31022 0.74428 0.0
C472 C 0.42632 0.28607 0.72499 0.0
C473 C 0.41981 0.30764 0.72895 0.0
C474 C 0.41641 0.26666 0.73581 0.0
C475 C 0.30962 0.25042 0.77733 0.0
O476 O 0.30675 0.31168 0.81385 0.0
O477 O 0.34127 0.30594 0.81573 0.0
O478 O 0.26682 0.31713 0.77239 0.0
O479 O 0.26545 0.2816 0.7815 0.0
O480 O 0.30613 0.34426 0.77267 0.0
O481 O 0.32975 0.32606 0.77519 0.0
O482 O 0.33252 0.29121 0.73879 0.0
O483 O 0.29613 0.29012 0.73719 0.0
O484 O 0.36775 0.27582 0.77831 0.0
O485 O 0.37412 0.31402 0.77566 0.0
O486 O 0.33001 0.25235 0.7775 0.0
O487 O 0.30765 0.27181 0.77678 0.0
H488 H 0.24073 0.33852 0.79272 0.0
H489 H 0.23716 0.26671 0.80769 0.0
H490 H 0.21017 0.27051 0.83342 0.0
H491 H 0.21418 0.34274 0.8192 0.0
H492 H 0.39466 0.25426 0.75992 0.0
H493 H 0.40079 0.32744 0.74756 0.0
H494 H 0.42722 0.32309 0.72119 0.0
H495 H 0.42073 0.24964 0.7329 0.0
Gd496 Gd 0.06839 0.07659 0.54382 0.0
Gd497 Gd 0.07626 0.03366 0.52462 0.0
C498 C 0.05584 0.05796 0.48651 0.0
C499 C 0.06545 0.12047 0.55129 0.0
C500 C 0.06814 0.13814 0.53545 0.0
C501 C 0.05465 0.15369 0.53491 0.0
C502 C 0.08353 0.13861 0.51981 0.0
C503 C 0.07361 0.1719 0.50517 0.0
C504 C 0.08635 0.15554 0.50489 0.0
C505 C 0.05733 0.17054 0.51972 0.0
C506 C 0.0354 0.03882 0.54871 0.0
C507 C 0.08831 0.05059 0.58189 0.0
C508 C 0.07974 0.99014 0.51571 0.0
C509 C 0.07973 0.97283 0.53153 0.0
C510 C 0.09121 0.95541 0.52759 0.0
C511 C 0.06864 0.97415 0.55115 0.0
C512 C 0.07847 0.93893 0.56133 0.0
C513 C 0.06807 0.95733 0.56602 0.0
C514 C 0.09052 0.9384 0.54242 0.0
C515 C 0.10824 0.07181 0.51835 0.0
O516 O 0.06115 0.07682 0.50391 0.0
O517 O 0.05847 0.03711 0.49085 0.0
O518 O 0.04868 0.10196 0.545 0.0
O519 O 0.08284 0.11434 0.55818 0.0
O520 O 0.04405 0.05748 0.5648 0.0
O521 O 0.04485 0.04076 0.53063 0.0
O522 O 0.08453 0.03283 0.56373 0.0
O523 O 0.08424 0.0713 0.57871 0.0
O524 O 0.09638 1.00895 0.51995 0.0
O525 O 0.0615 0.99572 0.51182 0.0
O526 O 0.09895 0.05321 0.50245 0.0
O527 O 0.09977 0.06978 0.53708 0.0
H528 H 0.04235 0.15306 0.54647 0.0
H529 H 0.09367 0.12621 0.51942 0.0
H530 H 0.09894 0.15643 0.49366 0.0
H531 H 0.04746 0.1832 0.5201 0.0
H532 H 0.10019 0.9546 0.51277 0.0
H533 H 0.05984 0.9877 0.55458 0.0
H534 H 0.05841 0.95781 0.5803 0.0
H535 H 0.09865 0.92428 0.53865 0.0
Gd536 Gd 0.33848 0.81742 0.75833 0.0
Gd537 Gd 0.29805 0.78206 0.76235 0.0
C538 C 0.33969 0.75996 0.76291 0.0
C539 C 0.37731 0.84444 0.76504 0.0
C540 C 0.39781 0.84051 0.7741 0.0
C541 C 0.41536 0.84507 0.76131 0.0
C542 C 0.39988 0.83168 0.79526 0.0
C543 C 0.43709 0.83349 0.79142 0.0
C544 C 0.41949 0.82842 0.80395 0.0
C545 C 0.43495 0.84147 0.76991 0.0
C546 C 0.31491 0.79637 0.71703 0.0
C547 C 0.29659 0.83933 0.75841 0.0
C548 C 0.25916 0.7554 0.75649 0.0
C549 C 0.23838 0.76023 0.75012 0.0
C550 C 0.22412 0.76057 0.76687 0.0
C551 C 0.23292 0.76548 0.72783 0.0
C552 C 0.19891 0.77041 0.73902 0.0
C553 C 0.21329 0.77054 0.72234 0.0
C554 C 0.20457 0.76572 0.7614 0.0
C555 C 0.32151 0.80364 0.80368 0.0
O556 O 0.35067 0.78317 0.764 0.0
O557 O 0.31832 0.75453 0.76103 0.0
O558 O 0.36832 0.83162 0.74465 0.0
O559 O 0.36361 0.84559 0.78014 0.0
O560 O 0.32565 0.81903 0.7216 0.0
O561 O 0.31797 0.78611 0.73421 0.0
O562 O 0.28563 0.81601 0.75635 0.0
O563 O 0.318 0.84483 0.76088 0.0
O564 O 0.26929 0.76645 0.77709 0.0
O565 O 0.27187 0.75553 0.74022 0.0
O566 O 0.31116 0.78088 0.79903 0.0
O567 O 0.31836 0.81363 0.78637 0.0
H568 H 0.41394 0.85162 0.74485 0.0
H569 H 0.38647 0.82755 0.80526 0.0
H570 H 0.42104 0.82226 0.82062 0.0
H571 H 0.44857 0.84556 0.76019 0.0
H572 H 0.22812 0.75687 0.78423 0.0
H573 H 0.24369 0.76557 0.71459 0.0
H574 H 0.20912 0.77392 0.7049 0.0
H575 H 0.19376 0.76585 0.7746 0.0
Gd576 Gd 0.57086 0.05124 0.06524 0.0
Gd577 Gd 0.56227 0.05159 1.01436 0.0
C578 C 0.52371 0.02501 0.03653 0.0
C579 C 0.56801 0.04938 0.10846 0.0
C580 C 0.55122 0.0335 0.11875 0.0
C581 C 0.55308 1.01059 0.12261 0.0
C582 C 0.53257 0.04053 0.1235 0.0
C583 C 0.519 1.0032 0.13819 0.0
C584 C 0.51659 0.02551 0.13306 0.0
C585 C 0.53702 0.99551 0.13217 0.0
C586 C 0.58012 1.01515 0.03737 0.0
C587 C 0.60933 0.07712 0.04349 0.0
C588 C 0.56671 0.05501 0.97177 0.0
C589 C 0.58443 0.07188 0.96349 0.0
C590 C 0.58331 0.09546 0.96116 0.0
C591 C 0.6034 0.06517 0.95966 0.0
C592 C 0.61859 0.10393 0.94799 0.0
C593 C 0.62029 0.08101 0.95209 0.0
C594 C 0.60032 0.11141 0.95366 0.0
C595 C 0.55142 0.08669 0.04155 0.0
O596 O 0.53473 0.03744 0.05654 0.0
O597 O 0.53247 0.02379 0.01695 0.0
O598 O 0.58026 0.03857 0.09667 0.0
O599 O 0.56209 0.06583 0.09811 0.0
O600 O 0.59259 0.02725 0.05604 0.0
O601 O 0.56371 0.02261 0.03413 0.0
O602 O 0.59814 0.06508 0.02353 0.0
O603 O 0.60086 0.07866 0.06311 0.0
O604 O 0.55364 0.06499 0.98302 0.0
O605 O 0.57185 0.0378 0.98158 0.0
O606 O 0.54017 0.07472 0.02211 0.0
O607 O 0.56844 0.08026 0.04556 0.0
H608 H 0.56711 1.00447 0.1187 0.0
H609 H 0.53051 0.05791 0.12039 0.0
H610 H 0.50308 0.03221 0.13793 0.0
H611 H 0.5392 0.9784 0.13598 0.0
H612 H 0.56912 0.10146 0.96464 0.0
H613 H 0.60503 0.04739 0.96185 0.0
H614 H 0.63391 0.07432 0.9477 0.0
H615 H 0.59863 0.12904 0.95095 0.0
Gd616 Gd 0.324 0.32618 0.28185 0.0
Gd617 Gd 0.30067 0.26839 0.26246 0.0
C618 C 0.27274 0.30337 0.2813 0.0
C619 C 0.3356 0.372 0.28579 0.0
C620 C 0.32134 0.3879 0.28895 0.0
C621 C 0.32371 0.40337 0.31041 0.0
C622 C 0.30335 0.38505 0.27229 0.0
C623 C 0.29125 0.41418 0.29786 0.0
C624 C 0.28843 0.39817 0.2767 0.0
C625 C 0.30866 0.4163 0.31491 0.0
C626 C 0.32107 0.29887 0.31692 0.0
C627 C 0.35217 0.29153 0.26372 0.0
C628 C 0.29054 0.22233 0.25686 0.0
C629 C 0.30553 0.20744 0.25287 0.0
C630 C 0.29964 0.18624 0.23608 0.0
C631 C 0.32662 0.21557 0.26461 0.0
C632 C 0.33474 0.17968 0.24561 0.0
C633 C 0.3412 0.2019 0.26081 0.0
C634 C 0.31417 0.17218 0.23267 0.0
C635 C 0.30356 0.29617 0.22765 0.0
O636 O 0.28858 0.32283 0.28081 0.0
O637 O 0.274 0.28075 0.27682 0.0
O638 O 0.33829 0.36098 0.30355 0.0
O639 O 0.33257 0.35783 0.2654 0.0
O640 O 0.32804 0.32228 0.32018 0.0
O641 O 0.31777 0.29188 0.29496 0.0
O642 O 0.33593 0.27206 0.2623 0.0
O643 O 0.35131 0.31411 0.26926 0.0
O644 O 0.28717 0.23387 0.23972 0.0
O645 O 0.29362 0.2358 0.27768 0.0
O646 O 0.29568 0.27287 0.22406 0.0
O647 O 0.30806 0.30255 0.24949 0.0
H648 H 0.33707 0.40522 0.32378 0.0
H649 H 0.30068 0.37269 0.25588 0.0
H650 H 0.27524 0.39657 0.26319 0.0
H651 H 0.31095 0.42857 0.3314 0.0
H652 H 0.28366 0.18019 0.22631 0.0
H653 H 0.33166 0.23204 0.27744 0.0
H654 H 0.35686 0.20761 0.27133 0.0
H655 H 0.30897 0.15481 0.22113 0.0
Gd656 Gd 0.57103 0.57356 0.04859 0.0
Gd657 Gd 0.58024 0.52432 0.02668 0.0
C658 C 0.55863 0.55261 0.99082 0.0
C659 C 0.57409 0.61891 0.05728 0.0
C660 C 0.57628 0.63631 0.04111 0.0
C661 C 0.56127 0.65004 0.03956 0.0
C662 C 0.59162 0.63738 0.02534 0.0
C663 C 0.57796 0.66716 1.00807 0.0
C664 C 0.59256 0.65292 1.00903 0.0
C665 C 0.5621 0.66541 0.02307 0.0
C666 C 0.5362 0.53667 0.05116 0.0
C667 C 0.59254 0.54426 0.08444 0.0
C668 C 0.57894 0.47958 0.0161 0.0
C669 C 0.57775 0.46288 0.03261 0.0
C670 C 0.5872 0.44357 0.02922 0.0
C671 C 0.56962 0.46845 0.05365 0.0
C672 C 0.57806 0.43382 0.06684 0.0
C673 C 0.57003 0.45421 0.07078 0.0
C674 C 0.58725 0.42891 0.04631 0.0
C675 C 0.61395 0.56279 0.02413 0.0
O676 O 0.56169 0.57104 1.00863 0.0
O677 O 0.56341 0.53214 0.99396 0.0
O678 O 0.55557 0.60256 0.05339 0.0
O679 O 0.59061 0.61005 0.06168 0.0
O680 O 0.53862 0.5592 0.05982 0.0
O681 O 0.55335 0.53471 0.04276 0.0
O682 O 0.58961 0.52627 0.06629 0.0
O683 O 0.58764 0.56491 0.08171 0.0
O684 O 0.59698 0.49666 0.02001 0.0
O685 O 0.56182 0.48762 1.01253 0.0
O686 O 0.61334 0.54057 0.01618 0.0
O687 O 0.59649 0.56265 0.03212 0.0
H688 H 0.54897 0.6489 0.05116 0.0
H689 H 0.60296 0.62639 0.02568 0.0
H690 H 0.60511 0.65446 0.99771 0.0
H691 H 0.55097 0.67665 0.02266 0.0
H692 H 0.59424 0.43971 1.01337 0.0
H693 H 0.56276 0.48372 0.05679 0.0
H694 H 0.56308 0.45839 0.08664 0.0
H695 H 0.59343 0.41313 0.04298 0.0
Gd696 Gd 0.83992 0.31567 0.26989 0.0
Gd697 Gd 0.79912 0.27969 0.27453 0.0
C698 C 0.84106 0.25806 0.2742 0.0
C699 C 0.87894 0.34165 0.27799 0.0
C700 C 0.89895 0.3355 0.28513 0.0
C701 C 0.91644 0.34115 0.27243 0.0
C702 C 0.90069 0.32376 0.30452 0.0
C703 C 0.93797 0.32635 0.30018 0.0
C704 C 0.92015 0.3194 0.31209 0.0
C705 C 0.93589 0.33648 0.27987 0.0
C706 C 0.817 0.29113 0.22942 0.0
C707 C 0.79767 0.33702 0.26899 0.0
C708 C 0.76081 0.2519 0.26613 0.0
C709 C 0.73972 0.25631 0.2609 0.0
C710 C 0.72463 0.25183 0.27667 0.0
C711 C 0.73468 0.26562 0.24067 0.0
C712 C 0.69946 0.26498 0.25171 0.0
C713 C 0.71464 0.26994 0.23613 0.0
C714 C 0.70459 0.25616 0.27211 0.0
C715 C 0.82268 0.30264 0.31502 0.0
O716 O 0.85207 0.28132 0.27554 0.0
O717 O 0.8197 0.25262 0.27245 0.0
O718 O 0.86954 0.33181 0.25677 0.0
O719 O 0.8655 0.3413 0.2936 0.0
O720 O 0.82757 0.31382 0.23203 0.0
O721 O 0.82026 0.28305 0.24787 0.0
O722 O 0.78684 0.31402 0.26938 0.0
O723 O 0.81901 0.34249 0.26968 0.0
O724 O 0.77054 0.2606 0.28748 0.0
O725 O 0.77364 0.25512 0.24998 0.0
O726 O 0.8121 0.2799 0.3117 0.0
O727 O 0.81918 0.31193 0.29732 0.0
H728 H 0.91524 0.3498 0.25721 0.0
H729 H 0.88726 0.31862 0.31431 0.0
H730 H 0.92158 0.31158 0.32783 0.0
H731 H 0.94962 0.34211 0.27065 0.0
H732 H 0.7283 0.24486 0.29244 0.0
H733 H 0.74608 0.26939 0.22823 0.0
H734 H 0.71074 0.27638 0.2201 0.0
H735 H 0.69296 0.25228 0.28428 0.0
Gd736 Gd 0.07068 0.56537 0.57031 0.0
Gd737 Gd 0.06506 0.56692 0.51947 0.0
C738 C 0.02434 0.54104 0.53929 0.0
C739 C 0.066 0.56511 0.61337 0.0
C740 C 0.04883 0.54942 0.62325 0.0
C741 C 0.04879 0.52532 0.62476 0.0
C742 C 0.03138 0.55803 0.62961 0.0
C743 C 0.01495 0.51953 0.6408 0.0
C744 C 0.01454 0.5432 0.63813 0.0
C745 C 0.03194 0.51048 0.63351 0.0
C746 C 0.07908 0.52777 0.54348 0.0
C747 C 0.11139 0.58829 0.55014 0.0
C748 C 0.07006 0.57195 0.47725 0.0
C749 C 0.08695 0.58984 0.46914 0.0
C750 C 0.08211 0.60953 0.46033 0.0
C751 C 0.10823 0.58797 0.47094 0.0
C752 C 0.11809 0.62109 0.44936 0.0
C753 C 0.1237 0.60352 0.46125 0.0
C754 C 0.09774 0.62538 0.45092 0.0
C755 C 0.05484 0.60285 0.54624 0.0
O756 O 0.03475 0.55235 0.55997 0.0
O757 O 0.0342 0.54017 0.52041 0.0
O758 O 0.07922 0.55452 0.6031 0.0
O759 O 0.05997 0.58057 0.60164 0.0
O760 O 0.08989 0.53816 0.56363 0.0
O761 O 0.06386 0.53691 0.53872 0.0
O762 O 0.10063 0.57674 0.52985 0.0
O763 O 0.10208 0.59096 0.56908 0.0
O764 O 0.05636 0.58078 0.48842 0.0
O765 O 0.07624 0.55533 0.487 0.0
O766 O 0.04422 0.59156 0.52634 0.0
O767 O 0.07112 0.59529 0.55102 0.0
H768 H 0.0619 0.51803 0.61961 0.0
H769 H 0.03088 0.57642 0.62841 0.0
H770 H 1.00197 0.55098 0.64419 0.0
H771 H 0.03268 0.49239 0.63568 0.0
H772 H 0.06601 0.612 0.4597 0.0
H773 H 0.11276 0.57365 0.47863 0.0
H774 H 0.13925 0.59973 0.46076 0.0
H775 H 0.09317 0.63928 0.44254 0.0
Gd776 Gd 0.79336 0.80676 0.28053 0.0
Gd777 Gd 0.8379 0.79352 0.284 0.0
C778 C 0.82113 0.81283 0.3317 0.0
C779 C 0.75312 0.80538 0.28268 0.0
C780 C 0.73802 0.80673 0.30032 0.0
C781 C 0.72577 0.82364 0.3 0.0
C782 C 0.73474 0.79078 0.31658 0.0
C783 C 0.70565 0.80713 0.33021 0.0
C784 C 0.71874 0.791 0.33137 0.0
C785 C 0.70982 0.82389 0.31475 0.0
C786 C 0.82612 0.84772 0.27741 0.0
C787 C 0.81098 0.78959 0.23283 0.0
C788 C 0.87765 0.79337 0.28164 0.0
C789 C 0.892 0.79249 0.26334 0.0
C790 C 0.90293 0.77426 0.2612 0.0
C791 C 0.89526 0.8096 0.24823 0.0
C792 C 0.92214 0.79197 0.23113 0.0
C793 C 0.91023 0.80936 0.23232 0.0
C794 C 0.9178 0.77393 0.24519 0.0
C795 C 0.80602 0.75175 0.28579 0.0
O796 O 0.8026 0.81181 0.31941 0.0
O797 O 0.83762 0.80786 0.32194 0.0
O798 O 0.76795 0.82521 0.28226 0.0
O799 O 0.76016 0.78597 0.27908 0.0
O800 O 0.80577 0.84659 0.27612 0.0
O801 O 0.82756 0.82651 0.27987 0.0
O802 O 0.82957 0.79113 0.24527 0.0
O803 O 0.79389 0.79278 0.24254 0.0
O804 O 0.86215 0.77379 0.28068 0.0
O805 O 0.8716 0.81325 0.28714 0.0
O806 O 0.82651 0.75413 0.28735 0.0
O807 O 0.80334 0.77279 0.28398 0.0
H808 H 0.72805 0.83622 0.28772 0.0
H809 H 0.74414 0.77775 0.31752 0.0
H810 H 0.71634 0.77818 0.34339 0.0
H811 H 0.70008 0.83649 0.31317 0.0
H812 H 0.90043 0.76066 0.27245 0.0
H813 H 0.88667 0.82351 0.2491 0.0
H814 H 0.91297 0.82323 0.22139 0.0
H815 H 0.92672 0.76032 0.24473 0.0
Gd816 Gd 0.83506 0.30813 0.76 0.0
Gd817 Gd 0.81367 0.31536 0.80667 0.0
C818 C 0.83767 0.36125 0.78647 0.0
C819 C 0.84681 0.3047 0.71907 0.0
C820 C 0.85561 0.32326 0.7056 0.0
C821 C 0.87491 0.32323 0.69639 0.0
C822 C 0.84628 0.34248 0.70412 0.0
C823 C 0.87406 0.36002 0.68165 0.0
C824 C 0.85537 0.36068 0.69209 0.0
C825 C 0.88414 0.34158 0.68446 0.0
C826 C 0.86347 0.30712 0.798 0.0
C827 C 0.8078 0.26237 0.77705 0.0
C828 C 0.80392 0.3156 0.84826 0.0
C829 C 0.79009 0.2955 0.85709 0.0
C830 C 0.77093 0.29786 0.86556 0.0
C831 C 0.79502 0.27307 0.85523 0.0
C832 C 0.76356 0.25666 0.87351 0.0
C833 C 0.78197 0.25393 0.86338 0.0
C834 C 0.75767 0.27851 0.87362 0.0
C835 C 0.78443 0.3146 0.76924 0.0
O836 O 0.83776 0.34765 0.76625 0.0
O837 O 0.83203 0.35255 0.80539 0.0
O838 O 0.85954 0.30533 0.73793 0.0
O839 O 0.82656 0.30153 0.72239 0.0
O840 O 0.86715 0.30517 0.77655 0.0
O841 O 0.84461 0.30991 0.79806 0.0
O842 O 0.80729 0.27553 0.79735 0.0
O843 O 0.81552 0.27096 0.75901 0.0
O844 O 0.79403 0.32488 0.83285 0.0
O845 O 0.82241 0.3126 0.84268 0.0
O846 O 0.7809 0.31631 0.79084 0.0
O847 O 0.80353 0.3126 0.7686 0.0
H848 H 0.8827 0.3089 0.69826 0.0
H849 H 0.83178 0.34328 0.71187 0.0
H850 H 0.847 0.37444 0.68981 0.0
H851 H 0.89857 0.34084 0.67655 0.0
H852 H 0.76645 0.31478 0.86635 0.0
H853 H 0.80931 0.27037 0.84805 0.0
H854 H 0.78736 0.23761 0.86325 0.0
H855 H 0.74348 0.28107 0.88111 0.0
Gd856 Gd 0.82118 0.82781 0.79045 0.0
Gd857 Gd 0.79829 0.77454 0.76946 0.0
C858 C 0.76876 0.80774 0.78428 0.0
C859 C 0.83235 0.87363 0.80409 0.0
C860 C 0.81865 0.89009 0.80518 0.0
C861 C 0.82065 0.90697 0.82555 0.0
C862 C 0.8014 0.88642 0.78748 0.0
C863 C 0.78872 0.91727 0.81009 0.0
C864 C 0.78663 0.90003 0.78985 0.0
C865 C 0.80569 0.92047 0.82806 0.0
C866 C 0.82116 0.79602 0.8203 0.0
C867 C 0.84902 0.79583 0.76963 0.0
C868 C 0.78906 0.72851 0.76485 0.0
C869 C 0.80455 0.71397 0.76177 0.0
C870 C 0.8021 0.69695 0.74133 0.0
C871 C 0.82319 0.71896 0.77803 0.0
C872 C 0.83569 0.6885 0.75453 0.0
C873 C 0.83861 0.70634 0.77442 0.0
C874 C 0.81759 0.68424 0.73774 0.0
C875 C 0.80278 0.80068 0.73384 0.0
O876 O 0.78587 0.82657 0.78714 0.0
O877 O 0.7694 0.78516 0.7784 0.0
O878 O 0.82854 0.85826 0.81861 0.0
O879 O 0.83452 0.86369 0.78305 0.0
O880 O 0.83769 0.81354 0.81879 0.0
O881 O 0.80562 0.79587 0.80541 0.0
O882 O 0.83352 0.77724 0.77252 0.0
O883 O 0.84722 0.81811 0.7728 0.0
O884 O 0.78543 0.73945 0.74733 0.0
O885 O 0.79152 0.74235 0.78529 0.0
O886 O 0.79315 0.77783 0.7311 0.0
O887 O 0.80862 0.80834 0.75539 0.0
H888 H 0.83352 0.90935 0.83965 0.0
H889 H 0.79919 0.8729 0.77189 0.0
H890 H 0.77397 0.89751 0.77549 0.0
H891 H 0.8075 0.93356 0.84388 0.0
H892 H 0.78818 0.69341 0.72826 0.0
H893 H 0.82589 0.7325 0.79368 0.0
H894 H 0.85225 0.70967 0.78783 0.0
H895 H 0.8151 0.67051 0.72228 0.0
Gd896 Gd 0.54994 0.5417 0.52851 0.0
Gd897 Gd 0.59196 0.56826 0.55731 0.0
C898 C 0.56691 0.60022 0.53242 0.0
C899 C 0.50908 0.52749 0.51587 0.0
C900 C 0.49301 0.54133 0.51443 0.0
C901 C 0.47832 0.53642 0.49409 0.0
C902 C 0.49326 0.56068 0.53216 0.0
C903 C 0.46246 0.56803 0.51029 0.0
C904 C 0.47795 0.5738 0.53021 0.0
C905 C 0.46333 0.54981 0.4919 0.0
C906 C 0.57991 0.54314 0.49708 0.0
C907 C 0.57703 0.5094 0.55074 0.0
C908 C 0.63243 0.58354 0.57223 0.0
C909 C 0.64946 0.57112 0.57072 0.0
C910 C 0.66582 0.57587 0.58953 0.0
C911 C 0.64781 0.55216 0.55214 0.0
C912 C 0.67951 0.54347 0.57073 0.0
C913 C 0.66281 0.53857 0.55206 0.0
C914 C 0.68071 0.56209 0.5896 0.0
C915 C 0.56146 0.56818 0.58821 0.0
O916 O 0.55065 0.58063 0.52661 0.0
O917 O 0.58537 0.60013 0.54371 0.0
O918 O 0.523 0.53122 0.50103 0.0
O919 O 0.51783 0.52671 0.53681 0.0
O920 O 0.55965 0.53211 0.49255 0.0
O921 O 0.58386 0.55208 0.51912 0.0
O922 O 0.59282 0.52946 0.55576 0.0
O923 O 0.55778 0.50936 0.54107 0.0
O924 O 0.61803 0.57452 0.58514 0.0
O925 O 0.62403 0.58817 0.55261 0.0
O926 O 0.58176 0.57881 0.59271 0.0
O927 O 0.55785 0.55878 0.56635 0.0
H928 H 0.47842 0.52214 0.47988 0.0
H929 H 0.50507 0.56545 0.54762 0.0
H930 H 0.47772 0.58774 0.54468 0.0
H931 H 0.45201 0.54544 0.47605 0.0
H932 H 0.66683 0.58994 0.60434 0.0
H933 H 0.63484 0.54774 0.53779 0.0
H934 H 0.66156 0.52462 0.53707 0.0
H935 H 0.69315 0.56603 0.60443 0.0
Gd936 Gd 0.09403 0.55646 0.05155 0.0
Gd937 Gd 0.04509 0.55151 0.0549 0.0
C938 C 0.05871 0.50258 0.04234 0.0
C939 C 0.13269 0.55143 0.05843 0.0
C940 C 0.14541 0.5338 0.05176 0.0
C941 C 0.15706 0.53567 0.03249 0.0
C942 C 0.14779 0.51649 0.06585 0.0
C943 C 0.17468 0.50507 0.04286 0.0
C944 C 0.16216 0.50224 0.06139 0.0
C945 C 0.17141 0.52146 0.02805 0.0
C946 C 0.07061 0.55591 1.01142 0.0
C947 C 0.07916 0.60506 0.05904 0.0
C948 C 1.00652 0.55698 0.05406 0.0
C949 C 0.99576 0.5767 0.05901 0.0
C950 C 0.98501 0.57842 0.0789 0.0
C951 C 0.99443 0.59255 0.04303 0.0
C952 C 0.96957 0.60917 0.06511 0.0
C953 C 0.98151 0.60862 0.04606 0.0
C954 C 0.97215 0.59456 0.08198 0.0
C955 C 0.07044 0.55337 0.09424 0.0
O956 O 0.07901 0.51586 0.04766 0.0
O957 O 0.04227 0.51243 0.04157 0.0
O958 O 0.12635 0.56253 0.04207 0.0
O959 O 0.11834 0.5459 0.07276 0.0
O960 O 0.09094 0.56714 0.01614 0.0
O961 O 0.06435 0.54373 0.02693 0.0
O962 O 0.05921 0.59111 0.05307 0.0
O963 O 0.09569 0.5958 0.0631 0.0
O964 O 0.0165 0.55105 0.07198 0.0
O965 O 0.01681 0.55661 0.03568 0.0
O966 O 0.05129 0.53874 0.08932 0.0
O967 O 0.07478 0.56572 0.07856 0.0
H968 H 0.15569 0.54877 0.02124 0.0
H969 H 0.13918 0.5146 0.08091 0.0
H970 H 0.16431 0.48995 0.07326 0.0
H971 H 0.18046 0.52385 1.01337 0.0
H972 H 0.98583 0.56658 0.09162 0.0
H973 H 1.00259 0.59183 0.02756 0.0
H974 H 0.97985 0.61948 0.03266 0.0
H975 H 0.96353 0.59488 0.09711 0.0
H976 H 0.0582 0.21391 0.93744 0.0
H977 H 0.01675 0.22726 0.98921 0.0
H978 H 0.06693 0.18228 0.95731 0.0
H979 H 0.02539 0.19563 1.00893 0.0
H980 H 0.02418 0.11652 0.01716 0.0
H981 H 0.01779 0.15084 1.00034 0.0
H982 H 0.08558 0.17584 0.99491 0.0
H983 H 0.09203 0.14145 1.012 0.0
C984 C 0.05084 0.21001 0.95296 0.0
C985 C 0.03651 0.22295 0.9615 0.0
C986 C 0.05603 0.19205 0.9645 0.0
C987 C 0.04678 0.18629 0.98468 0.0
C988 C 0.03262 0.19937 0.9933 0.0
C989 C 0.02768 0.21756 0.98198 0.0
C990 C 0.03778 0.12946 1.01262 0.0
C991 C 0.05861 0.12623 0.01597 0.0
C992 C 0.03413 0.14921 1.00304 0.0
C993 C 0.05114 0.1661 0.99617 0.0
C994 C 0.07208 0.16308 0.99983 0.0
C995 C 0.0758 0.1435 1.00982 0.0
H996 H 0.14699 0.80034 0.1898 0.0
H997 H 0.18613 0.86195 0.16592 0.0
H998 H 0.17858 0.79395 0.21036 0.0
H999 H 0.21822 0.85685 0.18842 0.0
H1000 H 0.27581 0.83317 0.222 0.0
H1001 H 0.24515 0.83673 0.19555 0.0
H1002 H 0.2019 0.80688 0.24291 0.0
H1003 H 0.23183 0.80243 0.26787 0.0
C1004 C 0.16237 0.81305 0.1895 0.0
C1005 C 0.16381 0.832 0.17656 0.0
C1006 C 0.18073 0.80944 0.2015 0.0
C1007 C 0.20135 0.82516 0.20183 0.0
C1008 C 0.20285 0.84417 0.18869 0.0
C1009 C 0.18436 0.84735 0.17599 0.0
C1010 C 0.25961 0.82665 0.22615 0.0
C1011 C 0.25625 0.81712 0.24689 0.0
C1012 C 0.24198 0.82909 0.21122 0.0
C1013 C 0.22062 0.822 0.21671 0.0
C1014 C 0.21766 0.81204 0.2373 0.0
C1015 C 0.23503 0.80959 0.25193 0.0
H1016 H 0.55799 0.84588 0.50128 0.0
H1017 H 0.51791 0.86316 0.44617 0.0
H1018 H 0.56379 0.88692 0.52315 0.0
H1019 H 0.52412 0.9038 0.46751 0.0
H1020 H 0.52283 0.96845 0.51698 0.0
H1021 H 0.51543 0.92545 0.50226 0.0
H1022 H 0.58266 0.92884 0.51926 0.0
H1023 H 0.59011 0.97204 0.5346 0.0
C1024 C 0.55021 0.85827 0.49399 0.0
C1025 C 0.53741 0.85122 0.47204 0.0
C1026 C 0.5537 0.88179 0.50639 0.0
C1027 C 0.54431 0.89852 0.49711 0.0
C1028 C 0.53124 0.89123 0.47539 0.0
C1029 C 0.52779 0.8679 0.46306 0.0
C1030 C 0.53603 0.96005 0.51796 0.0
C1031 C 0.55712 0.97377 0.5267 0.0
C1032 C 0.53179 0.93538 0.50939 0.0
C1033 C 0.54851 0.92384 0.5093 0.0
C1034 C 0.56942 0.93723 0.51918 0.0
C1035 C 0.5737 0.962 0.52781 0.0
H1036 H 0.54342 0.33977 0.66728 0.0
H1037 H 0.5476 0.26874 0.67839 0.0
H1038 H 0.50671 0.33073 0.67745 0.0
H1039 H 0.51078 0.25924 0.68741 0.0
H1040 H 0.45883 0.26518 0.73528 0.0
H1041 H 0.49208 0.26897 0.71831 0.0
H1042 H 0.46993 0.30851 0.66783 0.0
H1043 H 0.43644 0.30483 0.68513 0.0
C1044 C 0.53647 0.3222 0.6718 0.0
C1045 C 0.54868 0.30527 0.67267 0.0
C1046 C 0.5153 0.31685 0.67735 0.0
C1047 C 0.50571 0.29429 0.68357 0.0
C1048 C 0.5177 0.27704 0.68339 0.0
C1049 C 0.5389 0.28251 0.67821 0.0
C1050 C 0.46072 0.27418 0.7202 0.0
C1051 C 0.44497 0.28497 0.71183 0.0
C1052 C 0.47994 0.27641 0.7104 0.0
C1053 C 0.48401 0.28942 0.69185 0.0
C1054 C 0.46769 0.29894 0.6825 0.0
C1055 C 0.44842 0.29676 0.69238 0.0
H1056 H 0.05081 0.83076 0.65212 0.0
H1057 H 0.99702 0.81445 0.59762 0.0
H1058 H 0.06909 0.86532 0.63509 0.0
H1059 H 0.01488 0.84962 0.58086 0.0
H1060 H 0.06323 0.89213 0.54141 0.0
H1061 H 0.04762 0.85839 0.56065 0.0
H1062 H 0.06518 0.90573 0.62784 0.0
H1063 H 0.08115 0.93957 0.60846 0.0
C1064 C 0.04266 0.83525 0.63693 0.0
C1065 C 0.02246 0.82069 0.62631 0.0
C1066 C 0.0531 0.85481 0.62717 0.0
C1067 C 0.04337 0.85996 0.60671 0.0
C1068 C 0.02278 0.84573 0.59652 0.0
C1069 C 1.01244 0.82595 0.60617 0.0
C1070 C 0.06434 0.8951 0.56035 0.0
C1071 C 0.07342 0.91822 0.57358 0.0
C1072 C 0.0551 0.87597 0.57128 0.0
C1073 C 0.05489 0.87971 0.59559 0.0
C1074 C 0.06513 0.90252 0.60903 0.0
C1075 C 0.07426 0.92176 0.59804 0.0
H1076 H 0.56887 0.83084 0.82004 0.0
H1077 H 0.54897 0.84417 0.88845 0.0
H1078 H 0.53178 0.82385 0.80188 0.0
H1079 H 0.51186 0.83748 0.87043 0.0
H1080 H 0.46185 0.86453 0.82789 0.0
H1081 H 0.49674 0.86322 0.84662 0.0
H1082 H 0.49386 0.79838 0.79775 0.0
H1083 H 0.45899 0.80024 0.77862 0.0
C1084 C 0.55636 0.83169 0.8311 0.0
C1085 C 0.56141 0.83793 0.85545 0.0
C1086 C 0.53522 0.82763 0.8208 0.0
C1087 C 0.5191 0.83037 0.83479 0.0
C1088 C 0.52409 0.83543 0.8593 0.0
C1089 C 0.54516 0.83902 0.8696 0.0
C1090 C 0.46877 0.85004 0.82129 0.0
C1091 C 0.4581 0.8325 0.802 0.0
C1092 C 0.48852 0.84911 0.83207 0.0
C1093 C 0.49775 0.83047 0.8238 0.0
C1094 C 0.48702 0.81292 0.80437 0.0
C1095 C 0.46724 0.81397 0.79347 0.0
H1096 H 0.51317 0.16756 0.15986 0.0
H1097 H 0.49117 0.1938 0.09856 0.0
H1098 H 0.52708 0.13889 0.13497 0.0
H1099 H 0.50561 0.16579 0.07401 0.0
H1100 H 0.51323 0.09654 0.03525 0.0
H1101 H 0.49853 0.12275 0.06139 0.0
H1102 H 0.55702 0.14105 0.11008 0.0
H1103 H 0.57174 0.11385 0.08376 0.0
C1104 C 0.51084 0.16681 0.14107 0.0
C1105 C 0.501 0.18284 0.13113 0.0
C1106 C 0.51916 0.15075 0.12694 0.0
C1107 C 0.51757 0.15038 0.1027 0.0
C1108 C 0.50685 0.16559 0.09268 0.0
C1109 C 0.49845 0.18152 0.10673 0.0
C1110 C 0.52303 0.10616 0.0515 0.0
C1111 C 0.54359 0.10334 0.05756 0.0
C1112 C 0.51462 0.12122 0.06641 0.0
C1113 C 0.52668 0.13395 0.08761 0.0
C1114 C 0.54735 0.13117 0.09385 0.0
C1115 C 0.5558 0.11586 0.07882 0.0
H1116 H 0.19776 0.34641 0.38429 0.0
H1117 H 0.15353 0.32753 0.32019 0.0
H1118 H 0.22628 0.33753 0.36209 0.0
H1119 H 0.18193 0.31905 0.29813 0.0
H1120 H 0.24839 0.33255 0.2686 0.0
H1121 H 0.2199 0.34345 0.28955 0.0
H1122 H 0.22811 0.29538 0.33811 0.0
H1123 H 0.25604 0.28405 0.31683 0.0
C1124 C 0.19437 0.34094 0.36544 0.0
C1125 C 0.17369 0.33762 0.35376 0.0
C1126 C 0.21048 0.33568 0.35287 0.0
C1127 C 0.20602 0.32761 0.32858 0.0
C1128 C 0.18561 0.32539 0.31685 0.0
C1129 C 0.16947 0.33018 0.32942 0.0
C1130 C 0.2437 0.3241 0.28349 0.0
C1131 C 0.25392 0.3074 0.29116 0.0
C1132 C 0.22765 0.33036 0.29545 0.0
C1133 C 0.2223 0.32045 0.31548 0.0
C1134 C 0.23229 0.30338 0.32283 0.0
C1135 C 0.24792 0.29669 0.31054 0.0
H1136 H 1.01189 0.0618 0.22096 0.0
H1137 H 0.95945 0.0789 0.18214 0.0
H1138 H 0.03073 0.06142 0.18643 0.0
H1139 H 0.97844 0.07888 0.14745 0.0
H1140 H 1.01132 0.06051 0.0802 0.0
H1141 H 0.99113 0.06033 0.11432 0.0
H1142 H 0.05094 0.08003 0.16053 0.0
H1143 H 0.07061 0.08014 0.12695 0.0
C1144 C 1.00425 0.06567 0.20514 0.0
C1145 C 0.98374 0.07039 0.20511 0.0
C1146 C 0.01531 0.06558 0.18492 0.0
C1147 C 1.0066 0.07011 0.16317 0.0
C1148 C 0.98608 0.07492 0.16319 0.0
C1149 C 0.97506 0.07514 0.18351 0.0
C1150 C 0.02019 0.06463 0.0976 0.0
C1151 C 0.04298 0.07025 0.10015 0.0
C1152 C 1.00851 0.06473 0.11754 0.0
C1153 C 0.01891 0.07004 0.14112 0.0
C1154 C 0.04167 0.0754 0.14333 0.0
C1155 C 0.05321 0.07562 0.12362 0.0
H1156 H 0.26992 0.70904 0.49802 0.0
H1157 H 0.31383 0.68603 0.45384 0.0
H1158 H 0.24831 0.71457 0.46414 0.0
H1159 H 0.29327 0.69372 0.41973 0.0
H1160 H 0.26031 0.71227 0.36134 0.0
H1161 H 0.26278 0.6876 0.39175 0.0
H1162 H 0.25409 0.74536 0.44297 0.0
H1163 H 0.25106 0.76908 0.41298 0.0
C1164 C 0.27523 0.70577 0.48098 0.0
C1165 C 0.29409 0.69829 0.47849 0.0
C1166 C 0.26271 0.70867 0.46153 0.0
C1167 C 0.26925 0.70519 0.43923 0.0
C1168 C 0.2876 0.69646 0.43661 0.0
C1169 C 0.29974 0.69264 0.45612 0.0
C1170 C 0.25792 0.71904 0.37898 0.0
C1171 C 0.2562 0.74284 0.38502 0.0
C1172 C 0.25956 0.70506 0.39641 0.0
C1173 C 0.25957 0.71488 0.41995 0.0
C1174 C 0.25427 0.73706 0.42513 0.0
C1175 C 0.25245 0.75084 0.40776 0.0
H1176 H 0.6313 0.05421 0.71568 0.0
H1177 H 0.68753 0.07184 0.67969 0.0
H1178 H 0.60888 0.05835 0.68212 0.0
H1179 H 0.66448 0.07589 0.64531 0.0
H1180 H 0.60662 0.02766 0.58742 0.0
H1181 H 0.6353 0.03956 0.62046 0.0
H1182 H 0.60146 0.0871 0.65574 0.0
H1183 H 0.57294 0.07527 0.62233 0.0
C1184 C 0.63884 0.05889 0.70045 0.0
C1185 C 0.66092 0.06179 0.69969 0.0
C1186 C 0.62607 0.06187 0.68151 0.0
C1187 C 0.63513 0.06749 0.66142 0.0
C1188 C 0.65739 0.07155 0.66087 0.0
C1189 C 0.67037 0.06894 0.68019 0.0
C1190 C 0.60548 0.04058 0.60236 0.0
C1191 C 0.58777 0.05024 0.60313 0.0
C1192 C 0.62195 0.04778 0.62085 0.0
C1193 C 0.62054 0.0645 0.64019 0.0
C1194 C 0.60279 0.07434 0.64075 0.0
C1195 C 0.58637 0.06717 0.62217 0.0
H1196 H 0.32088 0.38529 0.96688 0.0
H1197 H 0.34224 0.3226 0.97882 0.0
H1198 H 0.3192 0.37351 0.92551 0.0
H1199 H 0.33867 0.30893 0.93715 0.0
H1200 H 0.3453 0.29424 0.8603 0.0
H1201 H 0.34709 0.30592 0.90224 0.0
H1202 H 0.31038 0.35763 0.89001 0.0
H1203 H 0.31027 0.34679 0.84879 0.0
C1204 C 0.32468 0.3685 0.9605 0.0
C1205 C 0.33188 0.35506 0.9762 0.0
C1206 C 0.32362 0.36139 0.93632 0.0
C1207 C 0.32905 0.34003 0.92683 0.0
C1208 C 0.33505 0.32589 0.9429 0.0
C1209 C 0.33677 0.3335 0.96714 0.0
C1210 C 0.33805 0.30844 0.8669 0.0
C1211 C 0.32767 0.31961 0.85134 0.0
C1212 C 0.33865 0.31501 0.89119 0.0
C1213 C 0.32874 0.33291 0.90064 0.0
C1214 C 0.31862 0.34412 0.88453 0.0
C1215 C 0.31824 0.33769 0.86043 0.0
H1216 H 1.00031 0.09792 0.35496 0.0
H1217 H 1.00386 0.0247 0.3347 0.0
H1218 H 0.01659 0.0985 0.39434 0.0
H1219 H 0.01955 0.02449 0.37362 0.0
H1220 H 0.04758 0.02336 0.4469 0.0
H1221 H 0.03339 0.02435 0.40777 0.0
H1222 H 0.02964 0.0979 0.42961 0.0
H1223 H 0.04434 0.09643 0.46914 0.0
C1224 C 1.0046 0.08182 0.3589 0.0
C1225 C 1.00066 0.0613 0.34119 0.0
C1226 C 0.01408 0.08201 0.38195 0.0
C1227 C 0.01988 0.0615 0.38868 0.0
C1228 C 0.01588 0.04105 0.37054 0.0
C1229 C 1.00668 0.04104 0.34753 0.0
C1230 C 0.04376 0.03985 0.44344 0.0
C1231 C 0.04721 0.05974 0.46173 0.0
C1232 C 0.03534 0.04054 0.42037 0.0
C1233 C 0.02964 0.0612 0.41404 0.0
C1234 C 0.03337 0.08131 0.43259 0.0
C1235 C 0.04198 0.0806 0.45578 0.0
H1236 H 0.28196 0.68163 0.59594 0.0
H1237 H 0.35117 0.70889 0.60808 0.0
H1238 H 0.27855 0.71293 0.62682 0.0
H1239 H 0.34797 0.73948 0.6403 0.0
H1240 H 0.33699 0.80568 0.68032 0.0
H1241 H 0.33675 0.77615 0.6458 0.0
H1242 H 0.28436 0.72498 0.66771 0.0
H1243 H 0.28421 0.75478 0.70139 0.0
C1244 C 0.29649 0.69385 0.60591 0.0
C1245 C 0.31688 0.69281 0.60009 0.0
C1246 C 0.29453 0.71186 0.62346 0.0
C1247 C 0.31298 0.72883 0.63582 0.0
C1248 C 0.33344 0.72706 0.63061 0.0
C1249 C 0.33536 0.70937 0.61258 0.0
C1250 C 0.32488 0.78847 0.67713 0.0
C1251 C 0.31061 0.78233 0.69343 0.0
C1252 C 0.32502 0.77139 0.65769 0.0
C1253 C 0.3109 0.74805 0.65438 0.0
C1254 C 0.29547 0.74277 0.66973 0.0
C1255 C 0.29535 0.75982 0.68907 0.0
H1256 H 0.69069 0.0873 0.83473 0.0
H1257 H 0.62174 0.05772 0.82038 0.0
H1258 H 0.68674 0.11013 0.87191 0.0
H1259 H 0.61775 0.07955 0.85803 0.0
H1260 H 0.60687 0.12569 0.91209 0.0
H1261 H 0.62164 0.1217 0.87555 0.0
H1262 H 0.67615 0.1039 0.91009 0.0
H1263 H 0.66215 0.10969 0.94728 0.0
C1264 C 0.67475 0.08496 0.84003 0.0
C1265 C 0.65645 0.07055 0.82505 0.0
C1266 C 0.67251 0.09836 0.86106 0.0
C1267 C 0.65195 0.09724 0.86746 0.0
C1268 C 0.63378 0.08156 0.85306 0.0
C1269 C 0.636 0.06855 0.83186 0.0
C1270 C 0.62272 0.12255 0.91242 0.0
C1271 C 0.63267 0.11625 0.93222 0.0
C1272 C 0.63099 0.11984 0.89126 0.0
C1273 C 0.64913 0.11078 0.88986 0.0
C1274 C 0.66167 0.11008 0.91058 0.0
C1275 C 0.65362 0.11338 0.9319 0.0
H1276 H 0.31149 0.39382 0.12388 0.0
H1277 H 0.34567 0.34209 0.09856 0.0
H1278 H 0.30467 0.37409 0.15787 0.0
H1279 H 0.3403 0.32338 0.13307 0.0
H1280 H 0.3108 0.27845 0.18465 0.0
H1281 H 0.31728 0.29876 0.15143 0.0
H1282 H 0.3166 0.36638 0.19378 0.0
H1283 H 0.30841 0.34503 0.22669 0.0
C1284 C 0.31774 0.37835 0.12569 0.0
C1285 C 0.32909 0.36953 0.1084 0.0
C1286 C 0.314 0.3671 0.14539 0.0
C1287 C 0.32187 0.34693 0.14862 0.0
C1288 C 0.33341 0.33838 0.13127 0.0
C1289 C 0.3367 0.34927 0.11139 0.0
C1290 C 0.31208 0.2977 0.18693 0.0
C1291 C 0.30943 0.31022 0.20854 0.0
C1292 C 0.31608 0.30955 0.1678 0.0
C1293 C 0.31779 0.33453 0.16956 0.0
C1294 C 0.31529 0.34715 0.19139 0.0
C1295 C 0.31106 0.33509 0.21058 0.0
H1296 H 0.25641 0.96627 0.99932 0.0
H1297 H 0.29716 1.01217 0.06008 0.0
H1298 H 0.22542 0.97847 1.01291 0.0
H1299 H 0.2663 0.02316 0.07427 0.0
H1300 H 0.21707 0.06689 0.0705 0.0
H1301 H 0.24611 0.04873 0.06296 0.0
H1302 H 0.20036 0.97865 0.04079 0.0
H1303 H 0.17088 0.99739 0.04776 0.0
C1304 C 0.25869 0.97886 0.01559 0.0
C1305 C 0.27923 0.98892 0.02824 0.0
C1306 C 0.24092 0.98554 0.02358 0.0
C1307 C 0.24346 1.0021 0.0445 0.0
C1308 C 0.26388 1.01094 0.05775 0.0
C1309 C 0.2816 1.00467 0.04957 0.0
C1310 C 0.2132 0.04752 0.06453 0.0
C1311 C 0.19178 0.03355 0.05969 0.0
C1312 C 0.22988 0.03702 0.06026 0.0
C1313 C 0.22558 1.01219 0.05129 0.0
C1314 C 0.20414 0.9979 0.04737 0.0
C1315 C 0.18733 1.00855 0.05143 0.0
H1316 H 0.72283 0.6764 0.99667 0.0
H1317 H 0.75028 0.62936 0.03391 0.0
H1318 H 0.68691 0.65343 1.00099 0.0
H1319 H 0.71429 0.60554 0.03734 0.0
H1320 H 0.64853 0.57648 0.05775 0.0
H1321 H 0.68388 0.60317 0.05577 0.0
H1322 H 0.65937 0.61886 0.98971 0.0
H1323 H 0.62393 0.59303 0.99262 0.0
C1324 C 0.72123 0.66087 1.00547 0.0
C1325 C 0.73963 0.6548 0.01486 0.0
C1326 C 0.70046 0.64752 1.0079 0.0
C1327 C 0.6973 0.62746 0.01968 0.0
C1328 C 0.71577 0.62108 0.0286 0.0
C1329 C 0.73657 0.63457 0.02631 0.0
C1330 C 0.65062 0.5864 0.04328 0.0
C1331 C 0.63335 0.58324 0.02567 0.0
C1332 C 0.67105 0.60134 0.04181 0.0
C1333 C 0.67494 0.61317 0.02237 0.0
C1334 C 0.65727 0.61051 1.00515 0.0
C1335 C 0.6368 0.59573 1.00679 0.0
H1336 H 0.71693 0.44358 0.29725 0.0
H1337 H 0.75436 0.47023 0.24444 0.0
H1338 H 0.73336 0.40952 0.29607 0.0
H1339 H 0.77081 0.43626 0.24314 0.0
H1340 H 0.81246 0.38353 0.25846 0.0
H1341 H 0.79511 0.4166 0.25877 0.0
H1342 H 0.73835 0.37163 0.27918 0.0
H1343 H 0.75585 0.3384 0.27867 0.0
C1344 C 0.72868 0.44238 0.2853 0.0
C1345 C 0.73405 0.46049 0.27108 0.0
C1346 C 0.7382 0.42239 0.28448 0.0
C1347 C 0.75396 0.41926 0.26956 0.0
C1348 C 0.75923 0.43742 0.25529 0.0
C1349 C 0.74953 0.45724 0.25594 0.0
C1350 C 0.79622 0.38041 0.26296 0.0
C1351 C 0.78594 0.35755 0.26849 0.0
C1352 C 0.786 0.39973 0.26303 0.0
C1353 C 0.76486 0.39774 0.26904 0.0
C1354 C 0.75456 0.3748 0.27462 0.0
C1355 C 0.7647 0.3553 0.27417 0.0
H1356 H 0.88751 0.50832 0.53105 0.0
H1357 H 0.89957 0.43956 0.5055 0.0
H1358 H 0.92625 0.52624 0.54204 0.0
H1359 H 0.93817 0.45746 0.51642 0.0
H1360 H 0.99973 0.51129 0.50131 0.0
H1361 H 0.96177 0.49074 0.49762 0.0
H1362 H 0.95943 0.52141 0.56924 0.0
H1363 H 0.99777 0.54225 0.57316 0.0
C1364 C 0.89851 0.49723 0.52752 0.0
C1365 C 0.89089 0.47291 0.51675 0.0
C1366 C 0.92048 0.50727 0.53423 0.0
C1367 C 0.93489 0.49311 0.52988 0.0
C1368 C 0.92719 0.46863 0.51973 0.0
C1369 C 0.90527 0.45854 0.51331 0.0
C1370 C 0.99122 0.51359 0.51635 0.0
C1371 C 1.00161 0.52834 0.53748 0.0
C1372 C 0.96959 0.50168 0.51427 0.0
C1373 C 0.95799 0.50449 0.53322 0.0
C1374 C 0.96826 0.51911 0.55447 0.0
C1375 C 0.99007 0.53092 0.55665 0.0
H1376 H 0.40399 0.11362 0.3333 0.0
H1377 H 0.40691 0.0749 0.26502 0.0
H1378 H 0.38535 0.13983 0.31461 0.0
H1379 H 0.38904 0.10142 0.24641 0.0
H1380 H 0.37358 0.17686 0.23178 0.0
H1381 H 0.39622 0.15249 0.24734 0.0
H1382 H 0.34561 0.12135 0.28634 0.0
H1383 H 0.32296 0.14465 0.27022 0.0
C1384 C 0.40077 0.11099 0.31438 0.0
C1385 C 0.40625 0.09225 0.30043 0.0
C1386 C 0.39037 0.1259 0.30376 0.0
C1387 C 0.38604 0.12243 0.27921 0.0
C1388 C 0.39245 0.10436 0.26534 0.0
C1389 C 0.40232 0.08914 0.27594 0.0
C1390 C 0.36722 0.1641 0.24301 0.0
C1391 C 0.34655 0.16192 0.24951 0.0
C1392 C 0.38012 0.15056 0.25208 0.0
C1393 C 0.37255 0.13564 0.26824 0.0
C1394 C 0.35168 0.13303 0.27407 0.0
C1395 C 0.33869 0.14594 0.26459 0.0
H1396 H 0.38057 0.19333 0.52799 0.0
H1397 H 0.34309 0.12148 0.53197 0.0
H1398 H 0.41354 0.1824 0.53996 0.0
H1399 H 0.37578 0.10967 0.5419 0.0
H1400 H 0.43334 0.09363 0.57328 0.0
H1401 H 0.40314 0.11091 0.56925 0.0
H1402 H 0.43861 0.16266 0.53051 0.0
H1403 H 0.46975 0.1472 0.53708 0.0
C1404 C 0.37948 0.17498 0.53087 0.0
C1405 C 0.3593 0.15816 0.52884 0.0
C1406 C 0.39841 0.16863 0.53775 0.0
C1407 C 0.39765 0.14507 0.54215 0.0
C1408 C 0.37731 0.1282 0.5395 0.0
C1409 C 0.35844 0.13479 0.53336 0.0
C1410 C 0.43509 0.10924 0.56459 0.0
C1411 C 0.45404 0.11853 0.55501 0.0
C1412 C 0.41739 0.11886 0.56173 0.0
C1413 C 0.41779 0.13764 0.5486 0.0
C1414 C 0.43731 0.1481 0.54053 0.0
C1415 C 0.45523 0.13889 0.54397 0.0
H1416 H 0.75383 0.5915 0.27336 0.0
H1417 H 0.70912 0.61942 0.3123 0.0
H1418 H 0.7726 0.63252 0.26947 0.0
H1419 H 0.72826 0.66067 0.3092 0.0
H1420 H 0.76081 0.73645 0.29064 0.0
H1421 H 0.73932 0.69497 0.29203 0.0
H1422 H 0.79545 0.66863 0.28283 0.0
H1423 H 0.81596 0.70878 0.28066 0.0
C1424 C 0.74812 0.60635 0.28155 0.0
C1425 C 0.72988 0.60141 0.29354 0.0
C1426 C 0.75909 0.6304 0.27939 0.0
C1427 C 0.75257 0.65107 0.2892 0.0
C1428 C 0.73419 0.64599 0.3011 0.0
C1429 C 0.72318 0.62191 0.30317 0.0
C1430 C 0.76845 0.72174 0.28861 0.0
C1431 C 0.79048 0.72669 0.28551 0.0
C1432 C 0.75609 0.69762 0.28964 0.0
C1433 C 0.76516 0.67735 0.28753 0.0
C1434 C 0.78708 0.6827 0.28413 0.0
C1435 C 0.7992 0.7064 0.28311 0.0
H1436 H 0.90523 0.51109 0.80634 0.0
H1437 H 0.94876 0.46955 0.82673 0.0
H1438 H 0.87858 0.47408 0.78764 0.0
H1439 H 0.92161 0.43212 0.80821 0.0
H1440 H 0.85563 0.39074 0.82712 0.0
H1441 H 0.88325 0.42832 0.83095 0.0
H1442 H 0.87209 0.4276 0.75652 0.0
H1443 H 0.84426 0.38906 0.75225 0.0
C1444 C 0.90903 0.49396 0.80672 0.0
C1445 C 0.92832 0.4927 0.81902 0.0
C1446 C 0.89408 0.47302 0.79552 0.0
C1447 C 0.89827 0.45075 0.79688 0.0
C1448 C 0.91837 0.44948 0.80715 0.0
C1449 C 0.93355 0.47058 0.81807 0.0
C1450 C 0.85858 0.39874 0.81157 0.0
C1451 C 0.84843 0.38679 0.78927 0.0
C1452 C 0.8746 0.41995 0.81376 0.0
C1453 C 0.88019 0.42964 0.7938 0.0
C1454 C 0.8683 0.41953 0.77185 0.0
C1455 C 0.8524 0.39787 0.76954 0.0
H1456 H 0.1314 0.89958 0.07602 0.0
H1457 H 0.07177 0.8835 0.10595 0.0
H1458 H 0.12166 0.93292 0.06063 0.0
H1459 H 0.06206 0.91737 0.09074 0.0
H1460 H 0.04433 0.96904 0.04244 0.0
H1461 H 0.05195 0.93321 0.05563 0.0
H1462 H 0.11883 0.97246 0.07481 0.0
H1463 H 0.11141 1.00766 0.0613 0.0
C1464 C 0.11618 0.90315 0.07936 0.0
C1465 C 0.10249 0.88889 0.09243 0.0
C1466 C 0.11061 0.92245 0.07061 0.0
C1467 C 0.09114 0.92814 0.07458 0.0
C1468 C 0.07715 0.91353 0.08721 0.0
C1469 C 0.0828 0.89421 0.09612 0.0
C1470 C 0.06068 0.9699 0.04928 0.0
C1471 C 0.07724 0.9913 0.05065 0.0
C1472 C 0.06503 0.9494 0.05705 0.0
C1473 C 0.08606 0.94977 0.06624 0.0
C1474 C 0.10252 0.9712 0.06748 0.0
C1475 C 0.0982 0.99156 0.05981 0.0
H1476 H 0.983 0.28196 0.85509 0.0
H1477 H 0.95052 0.286 0.91659 0.0
H1478 H 0.95222 0.2884 0.83205 0.0
H1479 H 0.91998 0.29333 0.89381 0.0
H1480 H 0.85962 0.28803 0.83995 0.0
H1481 H 0.88908 0.28059 0.86539 0.0
H1482 H 0.93508 0.3171 0.8241 0.0
H1483 H 0.90606 0.3236 0.79889 0.0
C1484 C 0.9693 0.2842 0.86377 0.0
C1485 C 0.96952 0.28345 0.88785 0.0
C1486 C 0.95155 0.28823 0.85055 0.0
C1487 C 0.93331 0.29187 0.86088 0.0
C1488 C 0.93339 0.29054 0.88491 0.0
C1489 C 0.95113 0.28644 0.89811 0.0
C1490 C 0.87608 0.29487 0.83672 0.0
C1491 C 0.88035 0.30654 0.81732 0.0
C1492 C 0.8931 0.29047 0.85123 0.0
C1493 C 0.91482 0.29763 0.84671 0.0
C1494 C 0.91883 0.31039 0.82799 0.0
C1495 C 0.90202 0.31454 0.81361 0.0
H1496 H 0.62596 0.26175 0.57017 0.0
H1497 H 0.57624 0.24303 0.61446 0.0
H1498 H 0.62032 0.21857 0.55471 0.0
H1499 H 0.57178 0.20078 0.60067 0.0
H1500 H 0.55351 0.12678 0.56124 0.0
H1501 H 0.55827 0.16981 0.57029 0.0
H1502 H 0.62633 0.18201 0.565 0.0
H1503 H 0.62119 0.13822 0.55448 0.0
C1504 C 0.6137 0.24852 0.57637 0.0
C1505 C 0.60161 0.25585 0.59358 0.0
C1506 C 0.61069 0.22377 0.56782 0.0
C1507 C 0.59561 0.20603 0.57642 0.0
C1508 C 0.58321 0.21367 0.59312 0.0
C1509 C 0.58593 0.23812 0.60126 0.0
C1510 C 0.5695 0.13853 0.56169 0.0
C1511 C 0.58697 0.12901 0.55703 0.0
C1512 C 0.57231 0.16339 0.56719 0.0
C1513 C 0.59276 0.1796 0.56865 0.0
C1514 C 0.6103 0.17013 0.56381 0.0
C1515 C 0.60743 0.14503 0.55806 0.0
H1516 H 0.58191 0.81917 0.3717 0.0
H1517 H 0.59648 0.76403 0.40819 0.0
H1518 H 0.61664 0.82476 0.3563 0.0
H1519 H 0.63095 0.76956 0.393 0.0
H1520 H 0.67786 0.76586 0.33833 0.0
H1521 H 0.64476 0.76188 0.35596 0.0
H1522 H 0.65621 0.83966 0.36903 0.0
H1523 H 0.6897 0.84375 0.35152 0.0
C1524 C 0.59234 0.80797 0.37608 0.0
C1525 C 0.58627 0.79088 0.39083 0.0
C1526 C 0.61239 0.81141 0.36758 0.0
C1527 C 0.62662 0.79756 0.37335 0.0
C1528 C 0.62036 0.78035 0.38794 0.0
C1529 C 0.60055 0.77717 0.39666 0.0
C1530 C 0.67367 0.7822 0.34538 0.0
C1531 C 0.68655 0.80512 0.34335 0.0
C1532 C 0.65454 0.7799 0.35544 0.0
C1533 C 0.64764 0.80042 0.36373 0.0
C1534 C 0.66079 0.82343 0.36237 0.0
C1535 C 0.68003 0.82576 0.35237 0.0
H1536 H 0.08196 0.29814 0.43888 0.0
H1537 H 0.14487 0.28519 0.43967 0.0
H1538 H 0.06923 0.26234 0.45688 0.0
H1539 H 0.13223 0.24902 0.45724 0.0
H1540 H 0.11067 0.2065 0.51425 0.0
H1541 H 0.12181 0.2413 0.49486 0.0
H1542 H 0.06135 0.218 0.44902 0.0
H1543 H 0.04992 0.18339 0.46935 0.0
C1544 C 0.09298 0.28749 0.44305 0.0
C1545 C 0.11435 0.29417 0.43844 0.0
C1546 C 0.08569 0.26698 0.45303 0.0
C1547 C 0.09978 0.25301 0.45848 0.0
C1548 C 0.12115 0.25971 0.45349 0.0
C1549 C 0.1284 0.28023 0.44349 0.0
C1550 C 0.09985 0.20889 0.49997 0.0
C1551 C 0.07962 0.19249 0.49301 0.0
C1552 C 0.10623 0.22863 0.48881 0.0
C1553 C 0.09256 0.2321 0.47026 0.0
C1554 C 0.07212 0.21573 0.46338 0.0
C1555 C 0.06562 0.19602 0.47484 0.0
H1556 H 0.57341 0.29288 0.22636 0.0
H1557 H 0.57636 0.23171 0.17574 0.0
H1558 H 0.61067 0.29693 0.24324 0.0
H1559 H 0.61304 0.23549 0.19271 0.0
H1560 H 0.66321 0.22942 0.2492 0.0
H1561 H 0.62666 0.23012 0.23557 0.0
H1562 H 0.64995 0.30438 0.22588 0.0
H1563 H 0.68685 0.3037 0.23959 0.0
C1564 C 0.58207 0.28042 0.21895 0.0
C1565 C 0.57233 0.26201 0.19991 0.0
C1566 C 0.60321 0.2828 0.22843 0.0
C1567 C 0.61431 0.26639 0.21921 0.0
C1568 C 0.60456 0.2482 0.20006 0.0
C1569 C 0.58374 0.24613 0.19035 0.0
C1570 C 0.66043 0.24602 0.24461 0.0
C1571 C 0.67755 0.26656 0.24549 0.0
C1572 C 0.63967 0.24637 0.23675 0.0
C1573 C 0.63582 0.26731 0.22984 0.0
C1574 C 0.65278 0.28818 0.2314 0.0
C1575 C 0.6737 0.28774 0.23903 0.0
H1576 H 0.61737 0.93642 0.91674 0.0
H1577 H 0.62673 0.89987 0.97531 0.0
H1578 H 0.6042 0.96556 0.94201 0.0
H1579 H 0.61369 0.92903 1.00034 0.0
H1580 H 0.56545 0.96663 0.02961 0.0
H1581 H 0.57705 0.93803 1.00159 0.0
H1582 H 0.61924 0.99807 0.97801 0.0
H1583 H 0.60791 0.02637 1.00624 0.0
C1584 C 0.61698 0.93486 0.93505 0.0
C1585 C 0.62303 0.91589 0.94408 0.0
C1586 C 0.60936 0.95142 0.9494 0.0
C1587 C 0.60767 0.94912 0.97287 0.0
C1588 C 0.61449 0.93077 0.98212 0.0
C1589 C 0.62223 0.91434 0.96787 0.0
C1590 C 0.57714 0.97349 0.01832 0.0
C1591 C 0.58616 0.99836 0.02004 0.0
C1592 C 0.58375 0.95731 1.00242 0.0
C1593 C 0.59916 0.96604 0.98798 0.0
C1594 C 0.60735 0.99103 0.98903 0.0
C1595 C 0.60102 1.00715 1.0052 0.0
H1596 H 0.95792 0.79717 0.69377 0.0
H1597 H 0.95077 0.73579 0.72998 0.0
H1598 H 0.92668 0.80646 0.71007 0.0
H1599 H 0.9202 0.74532 0.74648 0.0
H1600 H 0.85331 0.75245 0.74987 0.0
H1601 H 0.88353 0.74455 0.7315 0.0
H1602 H 0.9178 0.82035 0.75028 0.0
H1603 H 0.88709 0.82855 0.7683 0.0
C1604 C 0.94961 0.78569 0.7051 0.0
C1605 C 0.95663 0.76588 0.71082 0.0
C1606 C 0.93199 0.7911 0.71451 0.0
C1607 C 0.92127 0.77656 0.72944 0.0
C1608 C 0.92818 0.75662 0.73481 0.0
C1609 C 0.94572 0.75129 0.72553 0.0
C1610 C 0.86735 0.76741 0.75035 0.0
C1611 C 0.86806 0.79106 0.76064 0.0
C1612 C 0.88456 0.76289 0.73974 0.0
C1613 C 0.90282 0.78188 0.73959 0.0
C1614 C 0.90367 0.80555 0.75 0.0
C1615 C 0.88629 0.81014 0.76047 0.0
H1616 H 0.12638 0.07598 0.85359 0.0
H1617 H 0.1503 1.01597 0.8685 0.0
H1618 H 0.11031 0.07689 0.88981 0.0
H1619 H 0.13488 1.01695 0.90509 0.0
H1620 H 0.0998 1.01518 0.97057 0.0
H1621 H 0.11639 1.01443 0.93463 0.0
H1622 H 0.10162 0.08172 0.92527 0.0
H1623 H 0.08476 0.08166 0.96104 0.0
C1624 C 0.12835 0.06289 0.86462 0.0
C1625 C 0.14003 0.04597 0.85747 0.0
C1626 C 0.11906 0.06345 0.88603 0.0
C1627 C 0.1209 0.04719 0.9019 0.0
C1628 C 0.13247 0.03007 0.89438 0.0
C1629 C 0.14165 0.02947 0.8729 0.0
C1630 C 0.10069 0.03023 0.96121 0.0
C1631 C 0.09159 0.04905 0.96984 0.0
C1632 C 0.11022 0.0298 0.93996 0.0
C1633 C 0.11101 0.04804 0.92568 0.0
C1634 C 0.10185 0.06696 0.93466 0.0
C1635 C 0.09231 0.0673 0.95591 0.0
H1636 H 0.8156 0.38126 0.56437 0.0
H1637 H 0.85428 0.45515 0.58704 0.0
H1638 H 0.83665 0.36839 0.59462 0.0
H1639 H 0.87581 0.44205 0.61606 0.0
H1640 H 0.87804 0.4084 0.6853 0.0
H1641 H 0.86946 0.42717 0.65224 0.0
H1642 H 0.87361 0.36439 0.60457 0.0
H1643 H 0.88135 0.34523 0.63766 0.0
C1644 C 0.82837 0.39472 0.57593 0.0
C1645 C 0.83313 0.41917 0.57348 0.0
C1646 C 0.84075 0.38732 0.59279 0.0
C1647 C 0.85814 0.40426 0.6072 0.0
C1648 C 0.86252 0.42871 0.60511 0.0
C1649 C 0.84997 0.43616 0.58864 0.0
C1650 C 0.87813 0.39917 0.66775 0.0
C1651 C 0.87969 0.37522 0.66389 0.0
C1652 C 0.8732 0.40985 0.64882 0.0
C1653 C 0.87015 0.39672 0.626 0.0
C1654 C 0.87531 0.37447 0.62213 0.0
C1655 C 0.88011 0.36372 0.64106 0.0
H1656 H 0.49859 0.02409 0.3727 0.0
H1657 H 0.50506 0.10104 0.38714 0.0
H1658 H 0.51154 0.02474 0.41338 0.0
H1659 H 0.51843 0.10195 0.42825 0.0
H1660 H 0.57828 0.091 0.47472 0.0
H1661 H 0.55401 0.09469 0.44189 0.0
H1662 H 0.50573 0.03323 0.4553 0.0
H1663 H 0.53047 0.02886 0.48761 0.0
C1664 C 0.50285 0.04113 0.3848 0.0
C1665 C 0.50169 0.0627 0.37717 0.0
C1666 C 0.50978 0.04143 0.40805 0.0
C1667 C 0.51591 0.06342 0.42375 0.0
C1668 C 0.51372 0.08484 0.41627 0.0
C1669 C 0.50637 0.08442 0.39297 0.0
C1670 C 0.56236 0.07854 0.47081 0.0
C1671 C 0.55613 0.0596 0.48335 0.0
C1672 C 0.54838 0.0809 0.45236 0.0
C1673 C 0.52804 0.06436 0.44637 0.0
C1674 C 0.52137 0.04619 0.45977 0.0
C1675 C 0.53547 0.04369 0.4781 0.0
H1676 H 0.83812 0.77346 0.08719 0.0
H1677 H 0.77341 0.72943 0.08492 0.0
H1678 H 0.83871 0.78892 0.12871 0.0
H1679 H 0.77423 0.74299 0.12647 0.0
H1680 H 0.7752 0.77915 0.20003 0.0
H1681 H 0.77348 0.77081 0.15767 0.0
H1682 H 0.84215 0.77835 0.16476 0.0
H1683 H 0.84393 0.78812 0.20681 0.0
C1684 C 0.82386 0.76758 0.09557 0.0
C1685 C 0.80549 0.75088 0.08291 0.0
C1686 C 0.82428 0.77597 0.11949 0.0
C1687 C 0.80655 0.76717 0.13136 0.0
C1688 C 0.78804 0.7508 0.1182 0.0
C1689 C 0.7875 0.74294 0.09428 0.0
C1690 C 0.78995 0.7793 0.19249 0.0
C1691 C 0.80968 0.78435 0.20691 0.0
C1692 C 0.78897 0.77425 0.16808 0.0
C1693 C 0.80768 0.77385 0.1574 0.0
C1694 C 0.8274 0.77895 0.17198 0.0
C1695 C 0.82839 0.78425 0.19631 0.0
H1696 H 0.17067 1.01899 0.69806 0.0
H1697 H 0.11937 0.03741 0.73276 0.0
H1698 H 0.15438 0.02555 0.66126 0.0
H1699 H 0.10217 0.04287 0.69538 0.0
H1700 H 0.0828 0.07018 0.62711 0.0
H1701 H 0.09827 0.06359 0.66492 0.0
H1702 H 0.13082 1.01549 0.62855 0.0
H1703 H 0.11552 0.02239 0.59127 0.0
C1704 C 0.15556 0.0239 0.69788 0.0
C1705 C 0.14652 0.02732 0.71896 0.0
C1706 C 0.14595 0.02767 0.67633 0.0
C1707 C 0.12648 0.03477 0.67438 0.0
C1708 C 0.1172 0.03782 0.69548 0.0
C1709 C 0.12703 0.03435 0.71721 0.0
C1710 C 0.09338 0.05831 0.62721 0.0
C1711 C 0.09779 0.04693 0.60573 0.0
C1712 C 0.10225 0.05426 0.64915 0.0
C1713 C 0.11627 0.03894 0.65069 0.0
C1714 C 0.12059 0.02772 0.62898 0.0
C1715 C 0.11152 0.0315 0.60719 0.0
H1716 H 0.81006 0.4014 0.42842 0.0
H1717 H 0.849 0.36243 0.46322 0.0
H1718 H 0.81516 0.38087 0.39056 0.0
H1719 H 0.85454 0.34252 0.42548 0.0
H1720 H 0.82515 0.28684 0.35669 0.0
H1721 H 0.8302 0.31157 0.39531 0.0
H1722 H 0.84232 0.37639 0.36407 0.0
H1723 H 0.83688 0.35159 0.32538 0.0
C1724 C 0.81967 0.38847 0.42796 0.0
C1725 C 0.82865 0.38302 0.4487 0.0
C1726 C 0.82289 0.37704 0.40634 0.0
C1727 C 0.83523 0.36011 0.4052 0.0
C1728 C 0.84473 0.35526 0.42594 0.0
C1729 C 0.84142 0.36655 0.4475 0.0
C1730 C 0.82939 0.30638 0.35817 0.0
C1731 C 0.83028 0.31735 0.3382 0.0
C1732 C 0.83239 0.32055 0.38024 0.0
C1733 C 0.83632 0.34583 0.38254 0.0
C1734 C 0.83893 0.35689 0.36266 0.0
C1735 C 0.83596 0.34272 0.3406 0.0
H1736 H 0.43607 1.01094 0.242 0.0
H1737 H 0.50199 0.05502 0.25745 0.0
H1738 H 0.44625 0.98516 0.21047 0.0
H1739 H 0.51193 0.02953 0.22602 0.0
H1740 H 0.5327 0.9873 0.17689 0.0
H1741 H 0.51512 0.9878 0.21195 0.0
H1742 H 0.45802 0.99532 0.1725 0.0
H1743 H 0.47532 0.9939 0.13715 0.0
C1744 C 0.45264 1.01532 0.23848 0.0
C1745 C 0.4682 0.03535 0.25183 0.0
C1746 C 0.45847 1.00029 0.22077 0.0
C1747 C 0.47987 1.00509 0.21617 0.0
C1748 C 0.49539 0.02499 0.22962 0.0
C1749 C 0.48959 0.04002 0.24721 0.0
C1750 C 0.51589 0.98736 0.17528 0.0
C1751 C 0.50554 0.99143 0.15454 0.0
C1752 C 0.50589 0.98782 0.19545 0.0
C1753 C 0.48563 0.99254 0.19495 0.0
C1754 C 0.47378 0.9919 0.17335 0.0
C1755 C 0.48372 0.99124 0.15312 0.0
H1756 H 0.76864 0.74357 0.94173 0.0
H1757 H 0.83611 0.7471 0.95554 0.0
H1758 H 0.77446 0.75752 0.90462 0.0
H1759 H 0.84205 0.76093 0.91823 0.0
H1760 H 0.84874 0.8083 0.861 0.0
H1761 H 0.84327 0.79414 0.89803 0.0
H1762 H 0.78204 0.74578 0.86613 0.0
H1763 H 0.78712 0.76099 0.82937 0.0
C1764 C 0.78476 0.74739 0.93684 0.0
C1765 C 0.8019 0.74418 0.95158 0.0
C1766 C 0.78809 0.75518 0.91539 0.0
C1767 C 0.80873 0.76027 0.90817 0.0
C1768 C 0.82595 0.75735 0.92315 0.0
C1769 C 0.82254 0.74924 0.9445 0.0
C1770 C 0.83419 0.79446 0.86181 0.0
C1771 C 0.81845 0.78558 0.84211 0.0
C1772 C 0.83107 0.78626 0.8831 0.0
C1773 C 0.81223 0.7687 0.88524 0.0
C1774 C 0.79663 0.75955 0.86535 0.0
C1775 C 0.79964 0.76802 0.84412 0.0
H1776 H 0.8623 0.12935 0.06902 0.0
H1777 H 0.8419 0.11147 0.99463 0.0
H1778 H 0.89741 0.12322 0.0629 0.0
H1779 H 0.87638 0.10301 0.98824 0.0
H1780 H 0.94421 0.09937 0.98186 0.0
H1781 H 0.91366 0.11647 0.98837 0.0
H1782 H 0.91028 0.09002 0.05439 0.0
H1783 H 0.94128 0.07483 0.04847 0.0
C1784 C 0.86537 0.12355 0.05139 0.0
C1785 C 0.84963 0.12005 0.0323 0.0
C1786 C 0.88537 0.12003 0.04781 0.0
C1787 C 0.88957 0.11209 0.02512 0.0
C1788 C 0.87377 0.10928 1.00592 0.0
C1789 C 0.85396 0.11362 1.00951 0.0
C1790 C 0.93702 0.09784 0.9979 0.0
C1791 C 0.94493 0.08608 0.0148 0.0
C1792 C 0.91953 0.10738 1.00158 0.0
C1793 C 0.90952 0.10466 0.02193 0.0
C1794 C 0.91788 0.09315 0.03885 0.0
C1795 C 0.93555 0.08424 0.03543 0.0
H1796 H 0.40022 0.48152 0.06282 0.0
H1797 H 0.41686 0.41659 0.0339 0.0
H1798 H 0.43698 0.50509 0.06209 0.0
H1799 H 0.45379 0.43989 0.03392 0.0
H1800 H 0.51693 0.49296 0.02064 0.0
H1801 H 0.47981 0.46784 0.01884 0.0
H1802 H 0.47156 0.51417 0.0806 0.0
H1803 H 0.50773 0.53916 0.0817 0.0
C1804 C 0.41171 0.4722 0.05636 0.0
C1805 C 0.40538 0.44702 0.04862 0.0
C1806 C 0.43303 0.48573 0.05612 0.0
C1807 C 0.4489 0.47457 0.04824 0.0
C1808 C 0.44234 0.44941 0.04 0.0
C1809 C 0.42101 0.43592 0.04019 0.0
C1810 C 0.50724 0.4974 0.03401 0.0
C1811 C 0.51547 0.51805 0.05138 0.0
C1812 C 0.48582 0.48307 0.03298 0.0
C1813 C 0.47213 0.48899 0.04936 0.0
C1814 C 0.48095 0.50915 0.06716 0.0
C1815 C 0.50204 0.5234 0.06803 0.0
H1816 H 0.39362 0.63481 0.79363 0.0
H1817 H 0.40704 0.64305 0.72376 0.0
H1818 H 0.377 0.66895 0.79553 0.0
H1819 H 0.39146 0.67796 0.72605 0.0
H1820 H 0.3787 0.75575 0.74682 0.0
H1821 H 0.39565 0.72189 0.74542 0.0
H1822 H 0.34477 0.68268 0.77908 0.0
H1823 H 0.32739 0.71602 0.77952 0.0
C1824 C 0.39327 0.64389 0.77862 0.0
C1825 C 0.40188 0.63537 0.75844 0.0
C1826 C 0.38353 0.66374 0.77968 0.0
C1827 C 0.38252 0.67701 0.76097 0.0
C1828 C 0.39166 0.66883 0.74104 0.0
C1829 C 0.40066 0.64842 0.73966 0.0
C1830 C 0.371 0.73999 0.75401 0.0
C1831 C 0.35131 0.73931 0.76329 0.0
C1832 C 0.3808 0.7202 0.75308 0.0
C1833 C 0.37194 0.69875 0.76208 0.0
C1834 C 0.35255 0.69842 0.77194 0.0
C1835 C 0.3424 0.71784 0.77215 0.0
H1836 H 0.24281 0.66971 0.55583 0.0
H1837 H 0.23222 0.60919 0.49918 0.0
H1838 H 0.20586 0.65659 0.56277 0.0
H1839 H 0.19437 0.59688 0.50499 0.0
H1840 H 0.13951 0.56249 0.54121 0.0
H1841 H 0.17643 0.57831 0.53386 0.0
H1842 H 0.1697 0.6514 0.55011 0.0
H1843 H 0.13327 0.63522 0.55903 0.0
C1844 C 0.23232 0.65399 0.54435 0.0
C1845 C 0.24028 0.64012 0.52724 0.0
C1846 C 0.2111 0.64654 0.54828 0.0
C1847 C 0.19736 0.62548 0.53472 0.0
C1848 C 0.20488 0.61276 0.51622 0.0
C1849 C 0.22637 0.61987 0.5127 0.0
C1850 C 0.14638 0.58193 0.54386 0.0
C1851 C 0.13419 0.59788 0.5509 0.0
C1852 C 0.1672 0.59098 0.53918 0.0
C1853 C 0.17572 0.61606 0.54086 0.0
C1854 C 0.16359 0.63199 0.54881 0.0
C1855 C 0.14291 0.62288 0.55405 0.0
H1856 H 0.69584 0.99853 0.78068 0.0
H1857 H 0.75721 0.03039 0.75849 0.0
H1858 H 0.71141 0.96988 0.79808 0.0
H1859 H 0.77251 1.00126 0.77532 0.0
H1860 H 0.80136 0.96579 0.82476 0.0
H1861 H 0.7816 0.99454 0.81554 0.0
H1862 H 0.72619 0.93548 0.78538 0.0
H1863 H 0.7455 0.90656 0.79604 0.0
C1864 C 0.71253 0.9991 0.77915 0.0
C1865 C 0.72543 1.01665 0.76838 0.0
C1866 C 0.72139 0.98282 0.78919 0.0
C1867 C 0.74316 0.98387 0.78843 0.0
C1868 C 0.75579 1.00067 0.77669 0.0
C1869 C 0.74698 1.01705 0.76678 0.0
C1870 C 0.78464 0.95893 0.81719 0.0
C1871 C 0.77502 0.934 0.81069 0.0
C1872 C 0.77349 0.97537 0.81158 0.0
C1873 C 0.75275 0.96703 0.79916 0.0
C1874 C 0.74228 0.94224 0.79485 0.0
C1875 C 0.75334 0.92576 0.80078 0.0
H1876 H 0.76799 0.90886 0.53021 0.0
H1877 H 0.80038 0.98129 0.56588 0.0
H1878 H 0.73486 0.92168 0.52225 0.0
H1879 H 0.76769 0.99399 0.55778 0.0
H1880 H 0.71568 1.0166 0.51841 0.0
H1881 H 0.74616 0.99923 0.52158 0.0
H1882 H 0.70712 0.93787 0.54607 0.0
H1883 H 0.67612 0.95515 0.54247 0.0
C1884 C 0.7681 0.92752 0.53613 0.0
C1885 C 0.78685 0.94414 0.54852 0.0
C1886 C 0.74912 0.93478 0.53174 0.0
C1887 C 0.74875 0.95889 0.53922 0.0
C1888 C 0.76754 0.97538 0.55151 0.0
C1889 C 0.78627 0.96807 0.55623 0.0
C1890 C 0.71333 0.99913 0.52396 0.0
C1891 C 0.69341 0.98733 0.53024 0.0
C1892 C 0.73091 0.98929 0.526 0.0
C1893 C 0.72912 0.96735 0.53434 0.0
C1894 C 0.70897 0.95483 0.53958 0.0
C1895 C 0.6913 0.96481 0.53769 0.0
H1896 H 0.43187 0.48667 0.78831 0.0
H1897 H 0.37706 0.50078 0.75096 0.0
H1898 H 0.41138 0.44554 0.78878 0.0
H1899 H 0.35648 0.45918 0.75058 0.0
H1900 H 0.31573 0.38717 0.76362 0.0
H1901 H 0.33688 0.42748 0.76266 0.0
H1902 H 0.39498 0.40557 0.77853 0.0
H1903 H 0.37305 0.36458 0.78026 0.0
C1904 C 0.41532 0.48115 0.78008 0.0
C1905 C 0.40645 0.49801 0.76975 0.0
C1906 C 0.40336 0.45691 0.78018 0.0
C1907 C 0.38162 0.44768 0.76985 0.0
C1908 C 0.37279 0.46462 0.75934 0.0
C1909 C 0.3848 0.48901 0.75935 0.0
C1910 C 0.33306 0.39063 0.76692 0.0
C1911 C 0.34221 0.37177 0.77204 0.0
C1912 C 0.34555 0.41435 0.76615 0.0
C1913 C 0.36831 0.42115 0.77036 0.0
C1914 C 0.37768 0.40212 0.77532 0.0
C1915 C 0.36498 0.37807 0.77614 0.0
H1916 H 0.20307 0.65591 0.30917 0.0
H1917 H 0.21668 0.61884 0.24482 0.0
H1918 H 0.23331 0.69058 0.30781 0.0
H1919 H 0.24786 0.65226 0.24429 0.0
H1920 H 0.27895 0.73196 0.23795 0.0
H1921 H 0.25525 0.69262 0.23792 0.0
H1922 H 0.27213 0.70095 0.31293 0.0
H1923 H 0.29536 0.74124 0.31309 0.0
C1924 C 0.21227 0.65563 0.2945 0.0
C1925 C 0.20741 0.63555 0.27666 0.0
C1926 C 0.22989 0.67493 0.29404 0.0
C1927 C 0.24309 0.67374 0.27618 0.0
C1928 C 0.23782 0.65368 0.25811 0.0
C1929 C 0.21987 0.63483 0.2582 0.0
C1930 C 0.27802 0.72521 0.25438 0.0
C1931 C 0.28813 0.73983 0.27571 0.0
C1932 C 0.26454 0.70256 0.25433 0.0
C1933 C 0.26137 0.69425 0.27556 0.0
C1934 C 0.27377 0.70754 0.29648 0.0
C1935 C 0.28701 0.73045 0.29659 0.0
H1936 H 0.53579 0.69979 0.44621 0.0
H1937 H 0.56574 0.74674 0.51125 0.0
H1938 H 0.54141 0.66488 0.46258 0.0
H1939 H 0.57131 0.71178 0.52783 0.0
H1940 H 0.55582 0.63869 0.55585 0.0
H1941 H 0.5515 0.67493 0.54059 0.0
H1942 H 0.5703 0.64769 0.47474 0.0
H1943 H 0.57404 0.61141 0.48997 0.0
C1944 C 0.54333 0.70256 0.46413 0.0
C1945 C 0.55012 0.72588 0.47755 0.0
C1946 C 0.5468 0.68262 0.47344 0.0
C1947 C 0.55684 0.6855 0.49653 0.0
C1948 C 0.56339 0.70888 0.51006 0.0
C1949 C 0.56026 0.72889 0.50057 0.0
C1950 C 0.559 0.64064 0.53815 0.0
C1951 C 0.565 0.62239 0.5239 0.0
C1952 C 0.55668 0.66137 0.52944 0.0
C1953 C 0.56035 0.66413 0.50634 0.0
C1954 C 0.5669 0.64594 0.4924 0.0
C1955 C 0.56914 0.62525 0.5011 0.0
H1956 H 0.69595 0.35308 0.66383 0.0
H1957 H 0.65551 0.30353 0.70029 0.0
H1958 H 0.72787 0.34827 0.68626 0.0
H1959 H 0.68641 0.2967 0.7208 0.0
H1960 H 0.74251 0.29652 0.77012 0.0
H1961 H 0.71254 0.3014 0.74663 0.0
H1962 H 0.75508 0.33528 0.70029 0.0
H1963 H 0.78595 0.33177 0.72609 0.0
C1964 C 0.69385 0.3412 0.67675 0.0
C1965 C 0.67296 0.32917 0.68053 0.0
C1966 C 0.71234 0.33808 0.68958 0.0
C1967 C 0.71067 0.32225 0.70626 0.0
C1968 C 0.68947 0.30993 0.70934 0.0
C1969 C 0.6712 0.31367 0.69717 0.0
C1970 C 0.74559 0.30479 0.75473 0.0
C1971 C 0.76682 0.31354 0.75012 0.0
C1972 C 0.72797 0.3075 0.74069 0.0
C1973 C 0.7304 0.31872 0.72068 0.0
C1974 C 0.75186 0.32674 0.71542 0.0
C1975 C 0.76981 0.32432 0.73001 0.0
H1976 H 0.01527 0.34468 1.0104 0.0
H1977 H 0.05452 0.36579 0.95665 0.0
H1978 H 0.02298 0.38696 0.02892 0.0
H1979 H 0.0617 0.40814 0.97473 0.0
H1980 H 0.08717 0.47925 0.02498 0.0
H1981 H 0.08055 0.43667 1.00844 0.0
H1982 H 0.01453 0.42407 0.02261 0.0
H1983 H 0.02131 0.46683 0.03956 0.0
C1984 C 0.0256 0.35835 1.00256 0.0
C1985 C 0.03434 0.35188 0.98208 0.0
C1986 C 0.02986 0.38262 1.01307 0.0
C1987 C 0.04288 0.401 1.00328 0.0
C1988 C 0.05186 0.39445 0.98295 0.0
C1989 C 0.04771 0.37016 0.97254 0.0
C1990 C 0.07131 0.46734 0.02489 0.0
C1991 C 0.05479 0.47636 0.03376 0.0
C1992 C 0.06744 0.44295 0.01513 0.0
C1993 C 0.047 0.4269 1.01413 0.0
C1994 C 0.03054 0.43586 0.02332 0.0
C1995 C 0.03437 0.46038 0.03294 0.0
H1996 H 0.03573 0.84344 0.16275 0.0
H1997 H 0.04088 0.77565 0.18252 0.0
H1998 H 0.9998 0.83664 0.17481 0.0
H1999 H 1.0052 0.76908 0.195 0.0
H2000 H 0.93393 0.75639 0.20255 0.0
H2001 H 0.9667 0.76082 0.18347 0.0
H2002 H 0.98542 0.83746 0.21128 0.0
H2003 H 0.95283 0.83307 0.22976 0.0
C2004 C 0.02925 0.82716 0.16977 0.0
C2005 C 0.04138 0.81038 0.17213 0.0
C2006 C 1.00865 0.82324 0.17671 0.0
C2007 C 0.99965 0.80241 0.18612 0.0
C2008 C 1.01153 0.78524 0.18774 0.0
C2009 C 0.03214 0.78921 0.18088 0.0
C2010 C 0.945 0.77418 0.20431 0.0
C2011 C 0.94073 0.79443 0.21751 0.0
C2012 C 0.96379 0.77673 0.19347 0.0
C2013 C 0.97873 0.79954 0.19578 0.0
C2014 C 0.97412 0.81973 0.20863 0.0
C2015 C 0.95538 0.81722 0.21927 0.0
H2016 H 0.55368 0.29545 0.10507 0.0
H2017 H 0.51486 0.32998 0.1481 0.0
H2018 H 0.57034 0.33403 0.09388 0.0
H2019 H 0.53195 0.36873 0.13723 0.0
H2020 H 0.53923 0.41569 0.07913 0.0
H2021 H 0.52827 0.38197 0.09945 0.0
H2022 H 0.59378 0.37598 0.10805 0.0
H2023 H 0.60485 0.41015 0.08705 0.0
C2024 C 0.54866 0.31128 0.11207 0.0
C2025 C 0.53263 0.30972 0.12703 0.0
C2026 C 0.55853 0.33341 0.10604 0.0
C2027 C 0.55245 0.35424 0.11481 0.0
C2028 C 0.5368 0.35279 0.1302 0.0
C2029 C 0.52693 0.33067 0.13626 0.0
C2030 C 0.55144 0.40767 0.08597 0.0
C2031 C 0.57288 0.41549 0.08182 0.0
C2032 C 0.54518 0.38841 0.09765 0.0
C2033 C 0.56023 0.37661 0.10547 0.0
C2034 C 0.58192 0.38488 0.10206 0.0
C2035 C 0.58823 0.40427 0.09016 0.0
H2036 H 0.04942 0.34388 0.39929 0.0
H2037 H 0.07499 0.34531 0.33309 0.0
H2038 H 1.01331 0.33481 0.37913 0.0
H2039 H 0.03854 0.3373 0.31283 0.0
H2040 H 0.96729 0.30368 0.28307 0.0
H2041 H 1.00378 0.30759 0.30211 0.0
H2042 H 0.99301 0.35692 0.3603 0.0
H2043 H 0.9567 0.35193 0.34192 0.0
C2044 C 0.04734 0.34257 0.38042 0.0
C2045 C 0.06502 0.34566 0.36778 0.0
C2046 C 0.02662 0.33739 0.36886 0.0
C2047 C 0.02312 0.33566 0.34444 0.0
C2048 C 0.04077 0.33838 0.33166 0.0
C2049 C 0.06161 0.34327 0.34327 0.0
C2050 C 0.97286 0.31503 0.30007 0.0
C2051 C 0.95938 0.32724 0.31135 0.0
C2052 C 0.99366 0.31744 0.31084 0.0
C2053 C 1.00115 0.3324 0.33278 0.0
C2054 C 0.98753 0.34473 0.34374 0.0
C2055 C 0.9668 0.34197 0.33323 0.0
H2056 H 0.99032 0.70589 0.60047 0.0
H2057 H 1.00727 0.67703 0.66212 0.0
H2058 H 1.00637 0.67865 0.57706 0.0
H2059 H 0.02302 0.64931 0.6383 0.0
H2060 H 0.07308 0.62938 0.58963 0.0
H2061 H 0.05609 0.65467 0.61551 0.0
H2062 H 0.99916 0.63467 0.56445 0.0
H2063 H 0.01589 0.61038 0.53888 0.0
C2064 C 0.99678 0.69317 0.6089 0.0
C2065 C 0.99761 0.69366 0.63315 0.0
C2066 C 1.00617 0.67776 0.59553 0.0
C2067 C 0.01613 0.66224 0.60608 0.0
C2068 C 0.01575 0.66152 0.62999 0.0
C2069 C 1.00638 0.67702 0.64344 0.0
C2070 C 0.05697 0.63057 0.58413 0.0
C2071 C 0.04581 0.61821 0.56232 0.0
C2072 C 0.04725 0.64477 0.59887 0.0
C2073 C 0.02641 0.64655 0.59174 0.0
C2074 C 0.01534 0.63384 0.57012 0.0
C2075 C 0.02497 0.61993 0.55553 0.0
H2076 H 0.65878 0.85134 0.83087 0.0
H2077 H 0.69428 0.83591 0.89099 0.0
H2078 H 0.68394 0.8395 0.80604 0.0
H2079 H 0.71964 0.82431 0.86589 0.0
H2080 H 0.74347 0.77919 0.80888 0.0
H2081 H 0.71611 0.78965 0.83134 0.0
H2082 H 0.7241 0.8562 0.80327 0.0
H2083 H 0.75186 0.84586 0.78091 0.0
C2084 C 0.67209 0.84569 0.83883 0.0
C2085 C 0.67465 0.84458 0.86285 0.0
C2086 C 0.68641 0.83894 0.8246 0.0
C2087 C 0.70347 0.83101 0.83418 0.0
C2088 C 0.70632 0.83016 0.85821 0.0
C2089 C 0.69198 0.83696 0.87253 0.0
C2090 C 0.73888 0.79569 0.80694 0.0
C2091 C 0.74944 0.81173 0.7931 0.0
C2092 C 0.72354 0.80178 0.82004 0.0
C2093 C 0.71837 0.82375 0.81906 0.0
C2094 C 0.72798 0.83914 0.80416 0.0
C2095 C 0.74368 0.83325 0.79138 0.0
H2096 H 0.46456 0.58393 0.68897 0.0
H2097 H 0.51312 0.56024 0.72751 0.0
H2098 H 0.48382 0.58231 0.65453 0.0
H2099 H 0.53205 0.55802 0.69325 0.0
H2100 H 0.57385 0.57292 0.63496 0.0
H2101 H 0.55389 0.57455 0.66815 0.0
H2102 H 0.49532 0.56289 0.62131 0.0
H2103 H 0.5159 0.56144 0.58759 0.0
C2104 C 0.47937 0.57839 0.69032 0.0
C2105 C 0.48695 0.57236 0.71175 0.0
C2106 C 0.49052 0.57722 0.67016 0.0
C2107 C 0.50998 0.56998 0.67017 0.0
C2108 C 0.51754 0.56412 0.69175 0.0
C2109 C 0.50643 0.56529 0.71183 0.0
C2110 C 0.55665 0.5705 0.63142 0.0
C2111 C 0.54686 0.56688 0.60794 0.0
C2112 C 0.54491 0.5713 0.65089 0.0
C2113 C 0.52243 0.56876 0.64837 0.0
C2114 C 0.51248 0.56512 0.62475 0.0
C2115 C 0.52435 0.56402 0.60504 0.0
H2116 H 0.8179 0.2352 0.98707 0.0
H2117 H 0.78323 0.15985 0.96653 0.0
H2118 H 0.79687 0.24532 0.95496 0.0
H2119 H 0.76146 0.17003 0.93492 0.0
H2120 H 0.7557 0.20695 0.8659 0.0
H2121 H 0.76418 0.1862 0.89762 0.0
H2122 H 0.75855 0.24607 0.94802 0.0
H2123 H 0.75165 0.26748 0.91668 0.0
C2124 C 0.80615 0.2208 0.97525 0.0
C2125 C 0.80229 0.19684 0.97892 0.0
C2126 C 0.79373 0.22657 0.95732 0.0
C2127 C 0.77695 0.2085 0.94315 0.0
C2128 C 0.77411 0.18426 0.9458 0.0
C2129 C 0.78682 0.17843 0.96356 0.0
C2130 C 0.75535 0.21521 0.88374 0.0
C2131 C 0.75456 0.23948 0.8889 0.0
C2132 C 0.76021 0.20331 0.9019 0.0
C2133 C 0.76333 0.21537 0.92511 0.0
C2134 C 0.75723 0.23701 0.9301 0.0
C2135 C 0.75287 0.2491 0.91202 0.0
H2136 H 0.16764 0.51886 0.18449 0.0
H2137 H 0.16494 0.59067 0.21414 0.0
H2138 H 0.14256 0.51936 0.15035 0.0
H2139 H 0.13911 0.59073 0.18141 0.0
H2140 H 0.10356 0.591 0.11274 0.0
H2141 H 0.13376 0.59135 0.14072 0.0
H2142 H 0.10404 0.51686 0.14622 0.0
H2143 H 0.07396 0.51636 0.1172 0.0
C2144 C 0.16195 0.53482 0.18331 0.0
C2145 C 0.16808 0.5548 0.20134 0.0
C2146 C 0.14752 0.53505 0.16415 0.0
C2147 C 0.13881 0.55497 0.16348 0.0
C2148 C 0.14586 0.57534 0.18123 0.0
C2149 C 0.1606 0.57533 0.19993 0.0
C2150 C 0.10351 0.57474 0.12003 0.0
C2151 C 0.08662 0.55367 0.11318 0.0
C2152 C 0.12076 0.57493 0.13595 0.0
C2153 C 0.12124 0.55408 0.14542 0.0
C2154 C 0.10414 0.53302 0.13877 0.0
C2155 C 0.08681 0.53283 0.12267 0.0
H2156 H 0.84963 0.82823 0.48369 0.0
H2157 H 0.81701 0.88343 0.47347 0.0
H2158 H 0.84474 0.81444 0.44153 0.0
H2159 H 0.81282 0.87032 0.43126 0.0
H2160 H 0.79229 0.82846 0.3574 0.0
H2161 H 0.79515 0.8399 0.39955 0.0
H2162 H 0.85786 0.82594 0.407 0.0
H2163 H 0.85467 0.81368 0.36469 0.0
C2164 C 0.84132 0.83737 0.47244 0.0
C2165 C 0.83372 0.85695 0.48199 0.0
C2166 C 0.83871 0.82963 0.44819 0.0
C2167 C 0.82858 0.84138 0.43281 0.0
C2168 C 0.82049 0.86059 0.44246 0.0
C2169 C 0.82293 0.86819 0.46674 0.0
C2170 C 0.80669 0.82768 0.36798 0.0
C2171 C 0.82322 0.82001 0.35755 0.0
C2172 C 0.8084 0.83447 0.39225 0.0
C2173 C 0.82673 0.83388 0.40686 0.0
C2174 C 0.84332 0.82628 0.39642 0.0
C2175 C 0.84159 0.81942 0.37208 0.0
H2176 H 0.50905 0.59811 0.85934 0.0
H2177 H 0.49812 0.52096 0.84146 0.0
H2178 H 0.52594 0.59729 0.8982 0.0
H2179 H 0.51345 0.51937 0.88038 0.0
H2180 H 0.5475 0.51756 0.95102 0.0
H2181 H 0.53324 0.51966 0.91199 0.0
H2182 H 0.53357 0.59437 0.93476 0.0
H2183 H 0.54882 0.5921 0.97384 0.0
C2184 C 0.51011 0.58082 0.86374 0.0
C2185 C 0.50213 0.55964 0.84679 0.0
C2186 C 0.51981 0.5802 0.8865 0.0
C2187 C 0.52155 0.5582 0.89381 0.0
C2188 C 0.51333 0.53704 0.87653 0.0
C2189 C 0.50419 0.53782 0.85367 0.0
C2190 C 0.54464 0.53457 0.9478 0.0
C2191 C 0.54946 0.55459 0.96619 0.0
C2192 C 0.53605 0.53583 0.92489 0.0
C2193 C 0.53149 0.55719 0.9189 0.0
C2194 C 0.53654 0.57735 0.93751 0.0
C2195 C 0.54533 0.57609 0.96048 0.0
H2196 H 0.81751 0.16774 0.12758 0.0
H2197 H 0.80501 0.22201 0.0884 0.0
H2198 H 0.81411 0.19307 0.164 0.0
H2199 H 0.80131 0.24696 0.12436 0.0
H2200 H 0.78431 0.28007 0.19353 0.0
H2201 H 0.77941 0.24874 0.15856 0.0
H2202 H 0.83912 0.23379 0.18303 0.0
H2203 H 0.84385 0.26474 0.21746 0.0
C2204 C 0.81408 0.18506 0.12689 0.0
C2205 C 0.81238 0.19356 0.10563 0.0
C2206 C 0.81193 0.19935 0.14749 0.0
C2207 C 0.80751 0.22188 0.14678 0.0
C2208 C 0.80462 0.22961 0.12528 0.0
C2209 C 0.80721 0.21563 0.10486 0.0
C2210 C 0.79639 0.27022 0.191 0.0
C2211 C 0.81467 0.27493 0.20744 0.0
C2212 C 0.79351 0.25222 0.17138 0.0
C2213 C 0.80882 0.23884 0.16842 0.0
C2214 C 0.82692 0.24355 0.18518 0.0
C2215 C 0.82982 0.26149 0.20455 0.0
H2216 H 0.18809 0.60012 0.33092 0.0
H2217 H 0.12946 0.54483 0.33156 0.0
H2218 H 0.18201 0.62306 0.3671 0.0
H2219 H 0.12386 0.56729 0.36848 0.0
H2220 H 0.10043 0.62257 0.40565 0.0
H2221 H 0.11516 0.60985 0.37102 0.0
H2222 H 0.17655 0.61929 0.41197 0.0
H2223 H 0.16195 0.63297 0.44731 0.0
C2224 C 0.17438 0.59242 0.3394 0.0
C2225 C 0.15913 0.5708 0.32872 0.0
C2226 C 0.17092 0.60561 0.35994 0.0
C2227 C 0.15229 0.5971 0.37002 0.0
C2228 C 0.13806 0.57439 0.36045 0.0
C2229 C 0.14129 0.56146 0.33963 0.0
C2230 C 0.11743 0.62347 0.40742 0.0
C2231 C 0.12976 0.62764 0.42951 0.0
C2232 C 0.12571 0.61565 0.38749 0.0
C2233 C 0.14647 0.61238 0.38933 0.0
C2234 C 0.1602 0.62103 0.41048 0.0
C2235 C 0.15189 0.629 0.43058 0.0
H2236 H 0.81634 0.89896 0.63064 0.0
H2237 H 0.84328 0.84118 0.603 0.0
H2238 H 0.80836 0.87972 0.66474 0.0
H2239 H 0.83607 0.82243 0.63738 0.0
H2240 H 0.80056 0.78088 0.68856 0.0
H2241 H 0.80797 0.80088 0.65513 0.0
H2242 H 0.82367 0.87055 0.70042 0.0
H2243 H 0.81578 0.85012 0.73415 0.0
C2244 C 0.82074 0.88225 0.63191 0.0
C2245 C 0.83051 0.87167 0.61401 0.0
C2246 C 0.81627 0.87127 0.6516 0.0
C2247 C 0.82158 0.84947 0.65404 0.0
C2248 C 0.83138 0.83897 0.63609 0.0
C2249 C 0.83565 0.84981 0.61633 0.0
C2250 C 0.80553 0.8005 0.69143 0.0
C2251 C 0.80759 0.81392 0.71403 0.0
C2252 C 0.81 0.81202 0.67221 0.0
C2253 C 0.81663 0.83743 0.67488 0.0
C2254 C 0.8185 0.85096 0.69756 0.0
C2255 C 0.81415 0.83931 0.71696 0.0
H2256 H 0.79272 0.52182 0.52293 0.0
H2257 H 0.76252 0.44914 0.5327 0.0
H2258 H 0.76397 0.536 0.5396 0.0
H2259 H 0.73437 0.4634 0.55097 0.0
H2260 H 0.67534 0.49561 0.5536 0.0
H2261 H 0.70406 0.47781 0.54247 0.0
H2262 H 0.7512 0.54396 0.57553 0.0
H2263 H 0.72256 0.56246 0.58467 0.0
C2264 C 0.77968 0.50891 0.52843 0.0
C2265 C 0.77926 0.48441 0.52599 0.0
C2266 C 0.7635 0.51703 0.53847 0.0
C2267 C 0.74702 0.50087 0.54694 0.0
C2268 C 0.74664 0.47622 0.54433 0.0
C2269 C 0.76257 0.46801 0.5337 0.0
C2270 C 0.69185 0.50632 0.55849 0.0
C2271 C 0.69664 0.5307 0.56931 0.0
C2272 C 0.70834 0.496 0.55241 0.0
C2273 C 0.72989 0.50978 0.55745 0.0
C2274 C 0.7347 0.5332 0.57063 0.0
C2275 C 0.71824 0.54367 0.57626 0.0
H2276 H 0.23299 0.13602 0.47178 0.0
H2277 H 0.24026 0.16983 0.5438 0.0
H2278 H 0.19648 0.11433 0.47432 0.0
H2279 H 0.20434 0.14717 0.54765 0.0
H2280 H 0.13459 0.10977 0.55073 0.0
H2281 H 0.17058 0.13333 0.54781 0.0
H2282 H 0.16807 0.08979 0.47981 0.0
H2283 H 0.13203 0.06815 0.48253 0.0
C2284 C 0.22666 0.1385 0.48833 0.0
C2285 C 0.23939 0.15457 0.50753 0.0
C2286 C 0.20546 0.12577 0.4901 0.0
C2287 C 0.19634 0.12823 0.51139 0.0
C2288 C 0.20969 0.1444 0.53068 0.0
C2289 C 0.23068 0.15748 0.52866 0.0
C2290 C 0.14182 0.10562 0.53509 0.0
C2291 C 0.13026 0.08711 0.51686 0.0
C2292 C 0.16288 0.11906 0.53334 0.0
C2293 C 0.17337 0.11414 0.51343 0.0
C2294 C 0.16141 0.0953 0.49537 0.0
C2295 C 0.14033 0.08238 0.49695 0.0
H2296 H 0.21218 0.94017 0.73175 0.0
H2297 H 0.25491 0.97696 0.79417 0.0
H2298 H 0.22889 0.90613 0.73029 0.0
H2299 H 0.27211 0.94345 0.79246 0.0
H2300 H 0.31321 0.88924 0.77299 0.0
H2301 H 0.29554 0.92215 0.77426 0.0
H2302 H 0.23522 0.87068 0.74559 0.0
H2303 H 0.25299 0.83755 0.7447 0.0
C2304 C 0.22524 0.94123 0.7452 0.0
C2305 C 0.23192 0.96196 0.7631 0.0
C2306 C 0.23492 0.92135 0.74445 0.0
C2307 C 0.25235 0.92124 0.76117 0.0
C2308 C 0.25907 0.94218 0.77892 0.0
C2309 C 0.249 0.9617 0.78003 0.0
C2310 C 0.29614 0.88465 0.7669 0.0
C2311 C 0.28494 0.86001 0.75871 0.0
C2312 C 0.28577 0.90389 0.76778 0.0
C2313 C 0.26349 0.89994 0.76012 0.0
C2314 C 0.25229 0.87526 0.75161 0.0
C2315 C 0.26262 0.85589 0.75117 0.0
H2316 H 0.39631 0.96291 0.97153 0.0
H2317 H 0.38586 0.99697 0.03879 0.0
H2318 H 0.43493 0.97386 0.98429 0.0
H2319 H 0.42416 1.00625 0.05255 0.0
H2320 H 0.49553 0.04624 0.05604 0.0
H2321 H 0.45656 0.0322 0.04827 0.0
H2322 H 0.46177 0.96523 1.00811 0.0
H2323 H 0.50092 0.98049 0.01446 0.0
C2324 C 0.40251 0.97315 0.98891 0.0
C2325 C 0.38865 0.98028 1.00387 0.0
C2326 C 0.42445 0.97885 0.99651 0.0
C2327 C 0.43266 0.99092 0.0195 0.0
C2328 C 0.41849 0.99754 0.03457 0.0
C2329 C 0.39666 0.99249 0.02669 0.0
C2330 C 0.4882 0.02835 0.04592 0.0
C2331 C 0.50081 1.01441 0.03554 0.0
C2332 C 0.46591 1.02022 0.04153 0.0
C2333 C 0.45603 0.99775 0.02718 0.0
C2334 C 0.46889 0.98298 0.01853 0.0
C2335 C 0.4912 0.9915 0.02231 0.0
H2336 H 0.92063 0.62841 0.82648 0.0
H2337 H 0.88089 0.56492 0.77988 0.0
H2338 H 0.90364 0.65389 0.80586 0.0
H2339 H 0.8652 0.59028 0.75806 0.0
H2340 H 0.82153 0.64003 0.74781 0.0
H2341 H 0.84126 0.61274 0.76003 0.0
H2342 H 0.90017 0.67077 0.77258 0.0
H2343 H 0.87967 0.69866 0.76167 0.0
C2344 C 0.90816 0.61994 0.81192 0.0
C2345 C 0.90183 0.59475 0.80504 0.0
C2346 C 0.89876 0.63454 0.79969 0.0
C2347 C 0.88317 0.62422 0.78004 0.0
C2348 C 0.87687 0.59892 0.77328 0.0
C2349 C 0.88584 0.58433 0.78588 0.0
C2350 C 0.83882 0.64676 0.75237 0.0
C2351 C 0.84908 0.6714 0.75411 0.0
C2352 C 0.85024 0.63107 0.75944 0.0
C2353 C 0.87228 0.63964 0.76792 0.0
C2354 C 0.88304 0.66378 0.76699 0.0
C2355 C 0.87145 0.67966 0.76041 0.0
H2356 H 0.87496 0.6782 1.01354 0.0
H2357 H 0.85091 0.65412 0.07542 0.0
H2358 H 0.90779 0.66575 0.02311 0.0
H2359 H 0.88374 0.64259 0.08537 0.0
H2360 H 0.92911 0.59343 0.07654 0.0
H2361 H 0.89928 0.61134 0.07172 0.0
H2362 H 0.94081 0.67262 0.04934 0.0
H2363 H 0.97095 0.65435 0.05403 0.0
C2364 C 0.87669 0.67033 0.02918 0.0
C2365 C 0.86009 0.66672 0.04344 0.0
C2366 C 0.89562 0.66345 0.03485 0.0
C2367 C 0.8984 0.65293 0.05494 0.0
C2368 C 0.88204 0.6501 0.0695 0.0
C2369 C 0.86315 0.65678 0.06377 0.0
C2370 C 0.93212 0.61102 0.07117 0.0
C2371 C 0.95247 0.62236 0.06559 0.0
C2372 C 0.9149 0.62134 0.06834 0.0
C2373 C 0.91749 0.64339 0.05993 0.0
C2374 C 0.9381 0.65537 0.05537 0.0
C2375 C 0.95539 0.64496 0.05815 0.0
H2376 H 0.24869 0.09109 0.76034 0.0
H2377 H 0.21415 0.12125 0.81146 0.0
H2378 H 0.26822 0.13153 0.75615 0.0
H2379 H 0.23446 0.16205 0.80837 0.0
H2380 H 0.26822 0.2382 0.79318 0.0
H2381 H 0.24574 0.19762 0.7952 0.0
H2382 H 0.29286 0.16607 0.76413 0.0
H2383 H 0.31421 0.20585 0.76147 0.0
C2384 C 0.24552 0.10634 0.77121 0.0
C2385 C 0.22978 0.10217 0.78657 0.0
C2386 C 0.25699 0.13012 0.76888 0.0
C2387 C 0.25371 0.15135 0.78206 0.0
C2388 C 0.23789 0.14702 0.79752 0.0
C2389 C 0.2262 0.12317 0.79957 0.0
C2390 C 0.27349 0.22255 0.78626 0.0
C2391 C 0.29326 0.22591 0.77687 0.0
C2392 C 0.26062 0.19885 0.78774 0.0
C2393 C 0.26688 0.17733 0.77991 0.0
C2394 C 0.28652 0.18113 0.77018 0.0
C2395 C 0.29919 0.20453 0.76874 0.0
H2396 H 0.40003 1.00156 0.32841 0.0
H2397 H 0.44309 0.97505 0.28493 0.0
H2398 H 0.36991 0.97013 0.30677 0.0
H2399 H 0.41266 0.94445 0.26242 0.0
H2400 H 0.37178 0.87236 0.27905 0.0
H2401 H 0.39728 0.91076 0.27983 0.0
H2402 H 0.34497 0.94513 0.27437 0.0
H2403 H 0.31919 0.90577 0.2743 0.0
C2404 C 0.40306 0.98903 0.31422 0.0
C2405 C 0.42406 0.98978 0.30936 0.0
C2406 C 0.38568 0.97152 0.3013 0.0
C2407 C 0.3891 0.95445 0.28339 0.0
C2408 C 0.40975 0.95704 0.27666 0.0
C2409 C 0.42719 0.97423 0.28985 0.0
C2410 C 0.36584 0.8882 0.27789 0.0
C2411 C 0.34398 0.88683 0.27734 0.0
C2412 C 0.38031 0.91008 0.27773 0.0
C2413 C 0.37309 0.93097 0.27696 0.0
C2414 C 0.35088 0.92924 0.27507 0.0
C2415 C 0.33626 0.90707 0.27536 0.0
H2416 H 0.57854 0.37754 0.60946 0.0
H2417 H 0.63868 0.39737 0.58106 0.0
H2418 H 0.56757 0.4109 0.59454 0.0
H2419 H 0.6277 0.43015 0.56595 0.0
H2420 H 0.61548 0.50388 0.56879 0.0
H2421 H 0.62348 0.46866 0.58136 0.0
H2422 H 0.55736 0.42771 0.55971 0.0
H2423 H 0.54904 0.46373 0.54746 0.0
C2424 C 0.58942 0.38898 0.60004 0.0
C2425 C 0.60964 0.3849 0.59674 0.0
C2426 C 0.58303 0.40798 0.59128 0.0
C2427 C 0.59681 0.42351 0.57921 0.0
C2428 C 0.61678 0.41897 0.57553 0.0
C2429 C 0.62307 0.4 0.58412 0.0
C2430 C 0.60252 0.48743 0.56652 0.0
C2431 C 0.58157 0.48679 0.55697 0.0
C2432 C 0.60721 0.46703 0.57366 0.0
C2433 C 0.59117 0.44511 0.57143 0.0
C2434 C 0.57012 0.4443 0.56185 0.0
C2435 C 0.56538 0.4649 0.55464 0.0
H2436 H 0.48231 0.81504 0.34527 0.0
H2437 H 0.4466 0.78056 0.39591 0.0
H2438 H 0.44936 0.81945 0.32523 0.0
H2439 H 0.41294 0.78464 0.3754 0.0
H2440 H 0.35841 0.8155 0.33745 0.0
H2441 H 0.39015 0.81204 0.36275 0.0
H2442 H 0.41926 0.79409 0.301 0.0
H2443 H 0.38907 0.79825 0.27667 0.0
C2444 C 0.46733 0.80824 0.35209 0.0
C2445 C 0.46721 0.79711 0.37203 0.0
C2446 C 0.44825 0.81067 0.3405 0.0
C2447 C 0.42813 0.80213 0.34834 0.0
C2448 C 0.42798 0.79144 0.36871 0.0
C2449 C 0.44726 0.78879 0.3803 0.0
C2450 C 0.37172 0.81103 0.32945 0.0
C2451 C 0.3711 0.80758 0.30486 0.0
C2452 C 0.38989 0.80887 0.34392 0.0
C2453 C 0.40775 0.8033 0.33406 0.0
C2454 C 0.40646 0.7992 0.30956 0.0
C2455 C 0.38876 0.80145 0.29542 0.0
H2456 H 0.06319 0.74713 0.10323 0.0
H2457 H 0.12395 0.76397 0.07559 0.0
H2458 H 0.05944 0.70436 0.09154 0.0
H2459 H 0.11979 0.72058 0.06275 0.0
H2460 H 0.11696 0.64118 0.07228 0.0
H2461 H 0.12119 0.68494 0.07951 0.0
H2462 H 0.05272 0.67254 0.06026 0.0
H2463 H 0.04842 0.62934 0.05398 0.0
C2464 C 0.07549 0.74165 0.09399 0.0
C2465 C 0.09385 0.75894 0.0903 0.0
C2466 C 0.07331 0.71702 0.08719 0.0
C2467 C 0.08933 0.70887 0.0762 0.0
C2468 C 0.10727 0.72621 0.07144 0.0
C2469 C 0.10949 0.75106 0.07838 0.0
C2470 C 0.10286 0.64787 0.06956 0.0
C2471 C 0.08237 0.63169 0.06257 0.0
C2472 C 0.1053 0.67296 0.07351 0.0
C2473 C 0.0873 0.68237 0.0705 0.0
C2474 C 0.06693 0.66608 0.06312 0.0
C2475 C 0.06449 0.64116 0.05933 0.0
H2476 H 0.10812 0.29865 0.92267 0.0
H2477 H 0.07744 0.2868 0.85156 0.0
H2478 H 0.14358 0.30603 0.90866 0.0
H2479 H 0.11254 0.29442 0.83755 0.0
H2480 H 0.17704 0.3281 0.81864 0.0
H2481 H 0.14466 0.3262 0.83721 0.0
H2482 H 0.16593 0.28446 0.88589 0.0
H2483 H 0.19909 0.28737 0.868 0.0
C2484 C 0.109 0.29806 0.9041 0.0
C2485 C 0.09002 0.2924 0.8882 0.0
C2486 C 0.12929 0.30205 0.89604 0.0
C2487 C 0.13103 0.30102 0.87194 0.0
C2488 C 0.11195 0.29575 0.85623 0.0
C2489 C 0.09177 0.29126 0.86422 0.0
C2490 C 0.17522 0.319 0.83366 0.0
C2491 C 0.19083 0.30774 0.84158 0.0
C2492 C 0.15638 0.31761 0.84414 0.0
C2493 C 0.15239 0.3048 0.86282 0.0
C2494 C 0.16839 0.29448 0.87154 0.0
C2495 C 0.18735 0.29592 0.86106 0.0
H2496 H 0.64587 0.78765 0.95299 0.0
H2497 H 0.58014 0.78353 0.92691 0.0
H2498 H 0.63375 0.7509 0.96899 0.0
H2499 H 0.56771 0.74692 0.94408 0.0
H2500 H 0.55871 0.66961 0.96491 0.0
H2501 H 0.5681 0.70382 0.94345 0.0
H2502 H 0.61533 0.7437 1.00217 0.0
H2503 H 0.60651 0.70953 0.02271 0.0
C2504 C 0.62878 0.77887 0.95079 0.0
C2505 C 0.61388 0.78852 0.93913 0.0
C2506 C 0.62182 0.75788 0.96 0.0
C2507 C 0.59976 0.74642 0.95825 0.0
C2508 C 0.58481 0.75544 0.94566 0.0
C2509 C 0.59188 0.77637 0.93599 0.0
C2510 C 0.57108 0.68581 0.97293 0.0
C2511 C 0.58221 0.68724 0.99511 0.0
C2512 C 0.57636 0.7053 0.96085 0.0
C2513 C 0.59273 0.72617 0.971 0.0
C2514 C 0.6031 0.7276 0.99362 0.0
C2515 C 0.59801 0.70822 1.00545 0.0
H2516 H 0.06577 0.77122 0.73364 0.0
H2517 H 0.08227 0.78307 0.665 0.0
H2518 H 0.10327 0.77428 0.74679 0.0
H2519 H 0.11976 0.78569 0.6781 0.0
H2520 H 0.18848 0.80523 0.71667 0.0
H2521 H 0.15224 0.80943 0.70585 0.0
H2522 H 0.12519 0.74606 0.73578 0.0
H2523 H 0.16112 0.74204 0.74666 0.0
C2524 C 0.07747 0.77488 0.72151 0.0
C2525 C 0.0712 0.77669 0.69827 0.0
C2526 C 0.09886 0.77647 0.72898 0.0
C2527 C 0.11423 0.77997 0.71335 0.0
C2528 C 0.10817 0.78311 0.69049 0.0
C2529 C 0.08675 0.78143 0.68297 0.0
C2530 C 0.1747 0.79232 0.72092 0.0
C2531 C 0.17742 0.7735 0.73269 0.0
C2532 C 0.1541 0.79471 0.71477 0.0
C2533 C 0.13609 0.77826 0.72032 0.0
C2534 C 0.13889 0.75936 0.73189 0.0
C2535 C 0.15938 0.75703 0.73806 0.0
H2536 H 0.14878 0.43052 0.48233 0.0
H2537 H 0.09562 0.42262 0.4291 0.0
H2538 H 0.13862 0.46369 0.50523 0.0
H2539 H 0.08383 0.45362 0.45251 0.0
H2540 H 0.06788 0.51489 0.49641 0.0
H2541 H 0.08347 0.48991 0.46984 0.0
H2542 H 0.11441 0.46834 0.52947 0.0
H2543 H 0.10192 0.49706 0.55555 0.0
C2544 C 0.13528 0.4365 0.47533 0.0
C2545 C 0.12312 0.4246 0.45399 0.0
C2546 C 0.12899 0.455 0.48866 0.0
C2547 C 0.10989 0.46103 0.48127 0.0
C2548 C 0.09869 0.44996 0.45898 0.0
C2549 C 0.10542 0.43211 0.44541 0.0
C2550 C 0.07874 0.50551 0.50363 0.0
C2551 C 0.08483 0.50893 0.52779 0.0
C2552 C 0.08732 0.4906 0.48844 0.0
C2553 C 0.1009 0.47737 0.49728 0.0
C2554 C 0.10518 0.47919 0.52176 0.0
C2555 C 0.09767 0.49528 0.53682 0.0
H2556 H 0.45537 0.23182 0.23353 0.0
H2557 H 0.45515 0.27919 0.18221 0.0
H2558 H 0.42557 0.24416 0.2493 0.0
H2559 H 0.42566 0.29214 0.19861 0.0
H2560 H 0.35738 0.28556 0.21886 0.0
H2561 H 0.38802 0.27585 0.20197 0.0
H2562 H 0.42012 0.28052 0.27173 0.0
H2563 H 0.3889 0.28952 0.28841 0.0
C2564 C 0.44896 0.24491 0.22566 0.0
C2565 C 0.45764 0.25479 0.20686 0.0
C2566 C 0.43209 0.25213 0.23484 0.0
C2567 C 0.42375 0.26944 0.22545 0.0
C2568 C 0.43193 0.27878 0.20614 0.0
C2569 C 0.44876 0.27141 0.19682 0.0
C2570 C 0.37115 0.28456 0.23039 0.0
C2571 C 0.37119 0.28783 0.25464 0.0
C2572 C 0.38863 0.27925 0.22085 0.0
C2573 C 0.40623 0.27726 0.2356 0.0
C2574 C 0.40649 0.28156 0.26006 0.0
C2575 C 0.38889 0.28679 0.26959 0.0
H2576 H 0.65148 0.51248 0.37455 0.0
H2577 H 0.62896 0.57377 0.36093 0.0
H2578 H 0.63595 0.51318 0.41119 0.0
H2579 H 0.61387 0.57524 0.3977 0.0
H2580 H 0.57962 0.5723 0.46356 0.0
H2581 H 0.59572 0.57208 0.42743 0.0
H2582 H 0.62715 0.51857 0.44686 0.0
H2583 H 0.61042 0.51891 0.48289 0.0
C2584 C 0.64325 0.5263 0.3793 0.0
C2585 C 0.64183 0.54307 0.36406 0.0
C2586 C 0.6342 0.52688 0.40091 0.0
C2587 C 0.62319 0.54443 0.40892 0.0
C2588 C 0.62175 0.56109 0.39334 0.0
C2589 C 0.63068 0.56037 0.37169 0.0
C2590 C 0.59052 0.56098 0.46051 0.0
C2591 C 0.59423 0.54649 0.47728 0.0
C2592 C 0.59989 0.56061 0.43918 0.0
C2593 C 0.61344 0.54534 0.43284 0.0
C2594 C 0.61712 0.53081 0.4499 0.0
C2595 C 0.6077 0.53126 0.47131 0.0
H2596 H 0.36557 0.93173 0.05737 0.0
H2597 H 0.29898 0.90273 0.06614 0.0
H2598 H 0.37714 0.91565 0.09144 0.0
H2599 H 0.31058 0.88698 0.10076 0.0
H2600 H 0.3399 0.83676 0.13801 0.0
H2601 H 0.33086 0.85423 0.10424 0.0
H2602 H 0.37408 0.92327 0.1366 0.0
H2603 H 0.38285 0.90559 0.17117 0.0
C2604 C 0.35349 0.92201 0.06684 0.0
C2605 C 0.33148 0.91826 0.05956 0.0
C2606 C 0.3601 0.91306 0.08625 0.0
C2607 C 0.34471 0.90041 0.09853 0.0
C2608 C 0.32262 0.89666 0.09124 0.0
C2609 C 0.316 0.90546 0.07161 0.0
C2610 C 0.34805 0.85545 0.13752 0.0
C2611 C 0.36252 0.86983 0.15659 0.0
C2612 C 0.34257 0.86548 0.1185 0.0
C2613 C 0.35166 0.88997 0.11821 0.0
C2614 C 0.36696 0.90425 0.13675 0.0
C2615 C 0.37215 0.89424 0.15621 0.0
H2616 H 0.01845 0.60821 0.89529 0.0
H2617 H 0.97365 0.53873 0.89318 0.0
H2618 H 0.03626 0.605 0.93298 0.0
H2619 H 0.9924 0.53413 0.92963 0.0
H2620 H 0.02757 0.53566 1.0005 0.0
H2621 H 1.004 0.54339 0.96917 0.0
H2622 H 0.06004 0.58288 0.94201 0.0
H2623 H 0.083 0.57793 0.97516 0.0
C2624 C 1.01212 0.59264 0.90341 0.0
C2625 C 0.99472 0.57391 0.89195 0.0
C2626 C 0.02251 0.59044 0.92463 0.0
C2627 C 0.01619 0.56896 0.93396 0.0
C2628 C 0.99766 0.55098 0.92312 0.0
C2629 C 0.98687 0.5536 0.9023 0.0
C2630 C 0.03462 0.54672 0.98824 0.0
C2631 C 0.05682 0.55735 0.99079 0.0
C2632 C 0.02122 0.55076 0.97002 0.0
C2633 C 0.03006 0.5645 0.95347 0.0
C2634 C 0.05255 0.57338 0.95513 0.0
C2635 C 0.06578 0.57021 0.97387 0.0
H2636 H 0.30187 0.20409 0.59253 0.0
H2637 H 0.3188 0.27575 0.57433 0.0
H2638 H 0.30198 0.22137 0.63289 0.0
H2639 H 0.31915 0.29327 0.61565 0.0
H2640 H 0.34247 0.30685 0.69875 0.0
H2641 H 0.34107 0.29455 0.65641 0.0
H2642 H 0.27901 0.24433 0.65493 0.0
H2643 H 0.28025 0.25698 0.69715 0.0
C2644 C 0.30576 0.22364 0.59713 0.0
C2645 C 0.31032 0.23854 0.58006 0.0
C2646 C 0.30561 0.2335 0.62035 0.0
C2647 C 0.31027 0.25863 0.6274 0.0
C2648 C 0.31538 0.27378 0.61061 0.0
C2649 C 0.31515 0.2638 0.58702 0.0
C2650 C 0.3284 0.29344 0.68925 0.0
C2651 C 0.31144 0.28284 0.70116 0.0
C2652 C 0.32755 0.28654 0.66504 0.0
C2653 C 0.30996 0.26847 0.65238 0.0
C2654 C 0.29279 0.25829 0.66425 0.0
C2655 C 0.29342 0.26559 0.68836 0.0
H2656 H 0.63013 0.54817 0.23804 0.0
H2657 H 0.66498 0.50219 0.20305 0.0
H2658 H 0.61359 0.55289 0.20007 0.0
H2659 H 0.64876 0.50705 0.16516 0.0
H2660 H 0.60544 0.50492 0.09731 0.0
H2661 H 0.62019 0.49914 0.13548 0.0
H2662 H 0.61608 0.57013 0.16584 0.0
H2663 H 0.60092 0.57565 0.12753 0.0
C2664 C 0.63416 0.53873 0.22233 0.0
C2665 C 0.649 0.52452 0.22426 0.0
C2666 C 0.62476 0.54172 0.2002 0.0
C2667 C 0.62954 0.53051 0.17872 0.0
C2668 C 0.64409 0.51593 0.18075 0.0
C2669 C 0.6536 0.51312 0.20284 0.0
C2670 C 0.6076 0.51942 0.11203 0.0
C2671 C 0.60176 0.54085 0.1087 0.0
C2672 C 0.61634 0.51614 0.13427 0.0
C2673 C 0.61972 0.53408 0.15457 0.0
C2674 C 0.61372 0.5555 0.15122 0.0
C2675 C 0.60502 0.55881 0.12891 0.0
H2676 H 0.35364 0.88569 0.94318 0.0
H2677 H 0.29091 0.8932 0.91872 0.0
H2678 H 0.35525 0.86327 0.90491 0.0
H2679 H 0.29239 0.8701 0.8803 0.0
H2680 H 0.29393 0.79598 0.83559 0.0
H2681 H 0.29414 0.82335 0.87172 0.0
H2682 H 0.35403 0.87046 0.85996 0.0
H2683 H 0.35354 0.84322 0.82333 0.0
C2684 C 0.34016 0.88242 0.92958 0.0
C2685 C 0.32189 0.89055 0.93385 0.0
C2686 C 0.34124 0.86991 0.90771 0.0
C2687 C 0.3239 0.86498 0.89 0.0
C2688 C 0.30586 0.8737 0.89396 0.0
C2689 C 0.30498 0.88675 0.91578 0.0
C2690 C 0.30737 0.8119 0.84102 0.0
C2691 C 0.32399 0.81743 0.82716 0.0
C2692 C 0.30726 0.8277 0.86134 0.0
C2693 C 0.32394 0.84896 0.86819 0.0
C2694 C 0.34096 0.85413 0.85475 0.0
C2695 C 0.34081 0.83856 0.83409 0.0
H2696 H 0.9789 0.51919 0.77736 0.0
H2697 H 0.96787 0.57728 0.74306 0.0
H2698 H 0.98348 0.49696 0.74002 0.0
H2699 H 0.97313 0.55549 0.7056 0.0
H2700 H 0.97155 0.51318 0.64019 0.0
H2701 H 0.95563 0.51719 0.67654 0.0
H2702 H 1.01145 0.50437 0.71379 0.0
H2703 H 0.02722 0.50045 0.67784 0.0
C2704 C 0.97793 0.5273 0.76173 0.0
C2705 C 0.97361 0.54997 0.76269 0.0
C2706 C 0.98022 0.5145 0.74048 0.0
C2707 C 0.97818 0.52429 0.71999 0.0
C2708 C 0.97411 0.54725 0.72112 0.0
C2709 C 0.97165 0.55998 0.74244 0.0
C2710 C 0.97975 0.50978 0.65593 0.0
C2711 C 1.00093 0.50758 0.65655 0.0
C2712 C 0.97079 0.51236 0.6767 0.0
C2713 C 0.98283 0.51215 0.69791 0.0
C2714 C 1.00198 0.50493 0.69765 0.0
C2715 C 1.01096 0.50246 0.67692 0.0
H2716 H 0.28 0.26125 0.44871 0.0
H2717 H 0.3274 0.22151 0.43617 0.0
H2718 H 0.28283 0.27412 0.41097 0.0
H2719 H 0.33089 0.23523 0.39829 0.0
H2720 H 0.31985 0.25105 0.32204 0.0
H2721 H 0.31469 0.23345 0.3581 0.0
H2722 H 0.30613 0.30096 0.39291 0.0
H2723 H 0.31049 0.31772 0.35745 0.0
C2724 C 0.29121 0.25537 0.43798 0.0
C2725 C 0.30352 0.24038 0.44573 0.0
C2726 C 0.29294 0.26289 0.41619 0.0
C2727 C 0.30724 0.25596 0.40132 0.0
C2728 C 0.31952 0.24079 0.40898 0.0
C2729 C 0.31767 0.2331 0.43087 0.0
C2730 C 0.31628 0.26174 0.33727 0.0
C2731 C 0.31525 0.28567 0.33668 0.0
C2732 C 0.31366 0.25185 0.3581 0.0
C2733 C 0.30981 0.26563 0.37865 0.0
C2734 C 0.30855 0.2894 0.3776 0.0
C2735 C 0.31119 0.29914 0.35709 0.0
H2736 H 0.3398 0.5823 0.53763 0.0
H2737 H 0.36467 0.64942 0.51247 0.0
H2738 H 0.37297 0.57113 0.53181 0.0
H2739 H 0.39788 0.63787 0.5062 0.0
H2740 H 0.46185 0.61516 0.5259 0.0
H2741 H 0.4298 0.63014 0.52975 0.0
H2742 H 0.3895 0.55969 0.49703 0.0
H2743 H 0.42089 0.54445 0.49436 0.0
C2744 C 0.35227 0.59455 0.53065 0.0
C2745 C 0.34961 0.61655 0.52524 0.0
C2746 C 0.37122 0.58815 0.52728 0.0
C2747 C 0.38778 0.60357 0.51831 0.0
C2748 C 0.3853 0.62575 0.51316 0.0
C2749 C 0.36627 0.63219 0.51655 0.0
C2750 C 0.44612 0.60297 0.51948 0.0
C2751 C 0.44389 0.57861 0.50987 0.0
C2752 C 0.42787 0.61159 0.52149 0.0
C2753 C 0.40729 0.59589 0.51395 0.0
C2754 C 0.40521 0.57201 0.50332 0.0
C2755 C 0.42327 0.5634 0.50147 0.0
H2756 H 0.89733 0.98463 0.56006 0.0
H2757 H 0.91994 0.92065 0.54406 0.0
H2758 H 0.93307 1.00996 0.55708 0.0
H2759 H 0.95561 0.94581 0.54165 0.0
H2760 H 0.01408 0.99607 0.51972 0.0
H2761 H 0.97715 0.97173 0.51958 0.0
H2762 H 0.96891 0.02367 0.57683 0.0
H2763 H 1.00557 0.04783 0.57677 0.0
C2764 C 0.9099 0.97593 0.55601 0.0
C2765 C 0.90562 0.9505 0.55243 0.0
C2766 C 0.93051 0.99049 0.55438 0.0
C2767 C 0.94749 0.98008 0.54914 0.0
C2768 C 0.94305 0.95464 0.54536 0.0
C2769 C 0.92251 0.94013 0.54696 0.0
C2770 C 1.00434 1.00223 0.53225 0.0
C2771 C 1.01293 0.02375 0.54842 0.0
C2772 C 0.98315 0.98823 0.53228 0.0
C2773 C 0.96984 0.99552 0.5483 0.0
C2774 C 0.97841 1.0174 0.5641 0.0
C2775 C 0.99962 0.03119 0.56424 0.0
H2776 H 0.93006 0.15848 0.28055 0.0
H2777 H 0.87084 0.11391 0.24091 0.0
H2778 H 0.91432 0.19318 0.28531 0.0
H2779 H 0.85495 0.14823 0.24577 0.0
H2780 H 0.82302 0.20848 0.27073 0.0
H2781 H 0.83964 0.17487 0.2676 0.0
H2782 H 0.902 0.22507 0.27171 0.0
H2783 H 0.88515 0.25895 0.27518 0.0
C2784 C 0.9136 0.15585 0.27287 0.0
C2785 C 0.902 0.13273 0.26024 0.0
C2786 C 0.90443 0.17612 0.27549 0.0
C2787 C 0.88292 0.1744 0.26609 0.0
C2788 C 0.87135 0.1511 0.25371 0.0
C2789 C 0.88064 0.13104 0.2507 0.0
C2790 C 0.84033 0.21265 0.27103 0.0
C2791 C 0.85237 0.23715 0.27322 0.0
C2792 C 0.85006 0.19295 0.269 0.0
C2793 C 0.87258 0.1963 0.26903 0.0
C2794 C 0.88473 0.22093 0.27165 0.0
C2795 C 0.87493 0.24073 0.2736 0.0
H2796 H 0.73735 0.16808 0.05213 0.0
H2797 H 0.7339 0.10648 0.99886 0.0
H2798 H 0.69979 0.15262 0.05572 0.0
H2799 H 0.69545 0.09175 1.00097 0.0
H2800 H 0.63982 0.0543 0.0353 0.0
H2801 H 0.67638 0.07279 0.02845 0.0
H2802 H 0.66398 0.14356 0.0411 0.0
H2803 H 0.628 0.12481 0.04968 0.0
C2804 C 0.72826 0.15164 0.04053 0.0
C2805 C 0.73838 0.13811 0.02554 0.0
C2806 C 0.70667 0.14282 0.04251 0.0
C2807 C 0.69475 0.12071 0.02897 0.0
C2808 C 0.70447 0.10842 1.01224 0.0
C2809 C 0.72631 0.1169 1.0108 0.0
C2810 C 0.64532 0.07385 0.0371 0.0
C2811 C 0.63173 0.08844 0.04324 0.0
C2812 C 0.66597 0.0844 0.03272 0.0
C2813 C 0.67291 0.10961 0.03376 0.0
C2814 C 0.65918 0.12413 0.04037 0.0
C2815 C 0.63872 0.11356 0.04537 0.0
H2816 H 0.25025 0.54536 0.31084 0.0
H2817 H 0.21054 0.4969 0.25107 0.0
H2818 H 0.26368 0.51224 0.32215 0.0
H2819 H 0.22522 0.46402 0.26099 0.0
H2820 H 0.24745 0.40577 0.28988 0.0
H2821 H 0.22773 0.43668 0.2876 0.0
H2822 H 0.28787 0.49253 0.30637 0.0
H2823 H 0.30698 0.46212 0.30955 0.0
C2824 C 0.24477 0.52758 0.30002 0.0
C2825 C 0.22988 0.52329 0.28005 0.0
C2826 C 0.2523 0.50869 0.30643 0.0
C2827 C 0.24558 0.48564 0.29234 0.0
C2828 C 0.23035 0.48146 0.27241 0.0
C2829 C 0.22228 0.50021 0.26649 0.0
C2830 C 0.25615 0.42475 0.29415 0.0
C2831 C 0.27856 0.43179 0.30022 0.0
C2832 C 0.245 0.44233 0.2927 0.0
C2833 C 0.2563 0.46696 0.29696 0.0
C2834 C 0.27861 0.47377 0.30371 0.0
C2835 C 0.2896 0.45635 0.3055 0.0
H2836 H 0.30021 0.48285 0.06909 0.0
H2837 H 0.26645 0.41364 0.02745 0.0
H2838 H 0.26779 0.4968 0.06453 0.0
H2839 H 0.23361 0.42771 0.02298 0.0
H2840 H 0.17513 0.45823 0.04777 0.0
H2841 H 0.20609 0.44074 0.04794 0.0
H2842 H 0.24564 0.50727 0.03271 0.0
H2843 H 0.21515 0.52479 0.03297 0.0
C2844 C 0.28588 0.47061 0.05882 0.0
C2845 C 0.28608 0.4472 0.04845 0.0
C2846 C 0.26725 0.47867 0.05613 0.0
C2847 C 0.24809 0.46349 0.04322 0.0
C2848 C 0.24809 0.43988 0.03303 0.0
C2849 C 0.26695 0.4319 0.03543 0.0
C2850 C 0.19042 0.46906 0.04434 0.0
C2851 C 0.19259 0.49302 0.04048 0.0
C2852 C 0.20812 0.45895 0.04426 0.0
C2853 C 0.22845 0.47271 0.04062 0.0
C2854 C 0.23033 0.49627 0.0359 0.0
C2855 C 0.21271 0.50625 0.0358 0.0
H2856 H 0.91879 0.99611 0.30377 0.0
H2857 H 0.88651 0.98911 0.23427 0.0
H2858 H 0.89882 0.955 0.30624 0.0
H2859 H 0.86634 0.9476 0.23649 0.0
H2860 H 0.84159 0.86551 0.23852 0.0
H2861 H 0.86298 0.90632 0.23592 0.0
H2862 H 0.86871 0.92585 0.31103 0.0
H2863 H 0.84776 0.88493 0.31333 0.0
C2864 C 0.9072 0.98592 0.28896 0.0
C2865 C 0.90433 0.99673 0.26894 0.0
C2866 C 0.89549 0.96193 0.29039 0.0
C2867 C 0.88046 0.94691 0.27163 0.0
C2868 C 0.87763 0.95779 0.2515 0.0
C2869 C 0.88911 0.98208 0.25027 0.0
C2870 C 0.84799 0.87826 0.25459 0.0
C2871 C 0.8434 0.87104 0.27625 0.0
C2872 C 0.86008 0.90218 0.2531 0.0
C2873 C 0.86803 0.92046 0.2732 0.0
C2874 C 0.86359 0.91296 0.2949 0.0
C2875 C 0.8515 0.88905 0.29634 0.0
H2876 H 0.69471 0.15377 0.77433 0.0
H2877 H 0.74409 0.12224 0.80128 0.0
H2878 H 0.72266 0.19015 0.77147 0.0
H2879 H 0.7714 0.15643 0.79574 0.0
H2880 H 0.81411 0.23222 0.8057 0.0
H2881 H 0.78743 0.19616 0.80996 0.0
H2882 H 0.74954 0.20043 0.74608 0.0
H2883 H 0.77607 0.23775 0.74287 0.0
C2884 C 0.71139 0.15477 0.7799 0.0
C2885 C 0.71729 0.13513 0.78757 0.0
C2886 C 0.72734 0.1752 0.77777 0.0
C2887 C 0.74915 0.1757 0.78277 0.0
C2888 C 0.75477 0.15671 0.79195 0.0
C2889 C 0.73898 0.137 0.79505 0.0
C2890 C 0.80039 0.22484 0.79224 0.0
C2891 C 0.79678 0.23724 0.77409 0.0
C2892 C 0.78508 0.20432 0.79464 0.0
C2893 C 0.76622 0.19585 0.77858 0.0
C2894 C 0.7637 0.20707 0.75901 0.0
C2895 C 0.77903 0.22789 0.75679 0.0
loop_
_geom_bond_atom_site_label_1
_geom_bond_atom_site_label_2
_geom_bond_distance
_geom_bond_site_symmetry_2
_ccdc_geom_bond_type
O0 Cd1 2.223 . S
O0 C8 1.315 . S
Cd1 O0 2.223 . S
Cd1 O4 2.297 . S
Cd1 O5 2.439 . S
Cd1 O11 2.240 . S
Cd2 O3 2.240 . S
Cd2 O10 2.223 . S
Cd2 O12 2.297 . S
Cd2 O13 2.439 . S
O3 Cd2 2.240 . S
O3 C8 1.279 . S
O4 Cd1 2.297 . S
O4 C6 1.247 . S
O5 Cd1 2.439 . S
O5 C6 1.208 . S
C6 O4 1.247 . S
C6 O5 1.208 . S
C7 O12 1.247 . S
C7 O13 1.208 . S
C8 O0 1.315 . S
C8 O3 1.279 . S
C9 O10 1.315 . S
C9 O11 1.279 . S
O10 Cd2 2.223 . S
O10 C9 1.315 . S
O11 Cd1 2.240 . S
O11 C9 1.279 . S
O12 Cd2 2.297 . S
O12 C7 1.247 . S
O13 Cd2 2.439 . S
O13 C7 1.208 . S
O14 Cd15 2.223 . S
O14 C22 1.315 . S
Cd15 O14 2.223 . S
Cd15 O18 2.297 . S
Cd15 O19 2.439 . S
Cd15 O25 2.240 1_655 S
Cd16 O17 2.240 1_455 S
Cd16 O24 2.223 . S
Cd16 O26 2.297 . S
Cd16 O27 2.453 . S
O17 Cd16 2.240 1_655 S
O17 C22 1.279 . S
O18 Cd15 2.297 . S
O18 C20 1.247 . S
O19 Cd15 2.439 . S
O19 C20 1.208 . S
C20 O18 1.247 . S
C20 O19 1.208 . S
C21 O26 1.247 . S
C21 O27 1.224 . S
C22 O14 1.315 . S
C22 O17 1.279 . S
C23 O24 1.315 . S
C23 O25 1.279 . S
O24 Cd16 2.223 . S
O24 C23 1.315 . S
O25 Cd15 2.240 1_455 S
O25 C23 1.279 . S
O26 Cd16 2.297 . S
O26 C21 1.247 . S
O27 Cd16 2.453 . S
O27 C21 1.224 . S
O28 Cd29 2.223 . S
O28 C36 1.315 . S
Cd29 O28 2.223 . S
Cd29 O32 2.297 . S
Cd29 O33 2.439 . S
Cd29 O39 2.240 . S
Cd30 O31 2.240 . S
Cd30 O38 2.223 . S
Cd30 O40 2.297 . S
Cd30 O41 2.439 . S
O31 Cd30 2.240 . S
O31 C36 1.279 . S
O32 Cd29 2.297 . S
O32 C34 1.247 . S
O33 Cd29 2.439 . S
O33 C34 1.208 . S
C34 O32 1.247 . S
C34 O33 1.208 . S
C35 O40 1.247 . S
C35 O41 1.208 . S
C36 O28 1.315 . S
C36 O31 1.279 . S
C37 O38 1.315 . S
C37 O39 1.279 . S
O38 Cd30 2.223 . S
O38 C37 1.315 . S
O39 Cd29 2.240 . S
O39 C37 1.279 . S
O40 Cd30 2.297 . S
O40 C35 1.247 . S
O41 Cd30 2.439 . S
O41 C35 1.208 . S
O42 Cd43 2.223 . S
O42 C50 1.315 . S
Cd43 O42 2.223 . S
Cd43 O46 2.297 . S
Cd43 O47 2.439 . S
Cd43 O53 2.240 . S
Cd44 O45 2.240 . S
Cd44 O52 2.223 . S
Cd44 O54 2.297 . S
Cd44 O55 2.439 . S
O45 Cd44 2.240 . S
O45 C50 1.279 . S
O46 Cd43 2.297 . S
O46 C48 1.247 . S
O47 Cd43 2.439 . S
O47 C48 1.208 . S
C48 O46 1.247 . S
C48 O47 1.208 . S
C49 O54 1.247 . S
C49 O55 1.208 . S
C50 O42 1.315 . S
C50 O45 1.279 . S
C51 O52 1.315 . S
C51 O53 1.279 . S
O52 Cd44 2.223 . S
O52 C51 1.315 . S
O53 Cd43 2.240 . S
O53 C51 1.279 . S
O54 Cd44 2.297 . S
O54 C49 1.247 . S
O55 Cd44 2.439 . S
O55 C49 1.208 . S
O56 Cd57 2.223 . S
O56 C64 1.315 . S
Cd57 O56 2.223 . S
Cd57 O60 2.297 . S
Cd57 O61 2.439 . S
Cd57 O67 2.240 . S
Cd58 O59 2.240 . S
Cd58 O66 2.223 . S
Cd58 O68 2.297 . S
Cd58 O69 2.439 . S
O59 Cd58 2.240 . S
O59 C64 1.279 . S
O60 Cd57 2.297 . S
O60 C62 1.247 . S
O61 Cd57 2.439 . S
O61 C62 1.208 . S
C62 O60 1.247 . S
C62 O61 1.208 . S
C63 O68 1.247 . S
C63 O69 1.208 . S
C64 O56 1.315 . S
C64 O59 1.279 . S
C65 O66 1.315 . S
C65 O67 1.279 . S
O66 Cd58 2.223 . S
O66 C65 1.315 . S
O67 Cd57 2.240 . S
O67 C65 1.279 . S
O68 Cd58 2.297 . S
O68 C63 1.247 . S
O69 Cd58 2.439 . S
O69 C63 1.208 . S
O70 Cd71 2.223 . S
O70 C78 1.315 . S
Cd71 O70 2.223 . S
Cd71 O74 2.297 . S
Cd71 O75 2.439 . S
Cd71 O81 2.240 . S
Cd72 O73 2.240 . S
Cd72 O80 2.223 . S
Cd72 O82 2.297 . S
Cd72 O83 2.439 . S
O73 Cd72 2.240 . S
O73 C78 1.279 . S
O74 Cd71 2.297 . S
O74 C76 1.247 . S
O75 Cd71 2.439 . S
O75 C76 1.208 . S
C76 O74 1.247 . S
C76 O75 1.208 . S
C77 O82 1.247 . S
C77 O83 1.208 . S
C78 O70 1.315 . S
C78 O73 1.279 . S
C79 O80 1.315 . S
C79 O81 1.279 . S
O80 Cd72 2.223 . S
O80 C79 1.315 . S
O81 Cd71 2.240 . S
O81 C79 1.279 . S
O82 Cd72 2.297 . S
O82 C77 1.247 . S
O83 Cd72 2.439 . S
O83 C77 1.208 . S
O84 Cd85 2.223 . S
O84 C92 1.315 . S
Cd85 O84 2.223 . S
Cd85 O88 2.297 . S
Cd85 O89 2.439 . S
Cd85 O95 2.240 . S
Cd86 O87 2.240 . S
Cd86 O94 2.223 . S
Cd86 O96 2.297 . S
Cd86 O97 2.439 . S
O87 Cd86 2.240 . S
O87 C92 1.279 . S
O88 Cd85 2.297 . S
O88 C90 1.247 . S
O89 Cd85 2.439 . S
O89 C90 1.208 . S
C90 O88 1.247 . S
C90 O89 1.208 . S
C91 O96 1.247 . S
C91 O97 1.208 . S
C92 O84 1.315 . S
C92 O87 1.279 . S
C93 O94 1.315 . S
C93 O95 1.279 . S
O94 Cd86 2.223 . S
O94 C93 1.315 . S
O95 Cd85 2.240 . S
O95 C93 1.279 . S
O96 Cd86 2.297 . S
O96 C91 1.247 . S
O97 Cd86 2.439 . S
O97 C91 1.208 . S
O98 Cd99 2.223 . S
O98 C106 1.315 . S
Cd99 O98 2.223 . S
Cd99 O102 2.297 . S
Cd99 O103 2.439 . S
Cd99 O109 2.240 . S
Cd100 O101 2.240 . S
Cd100 O108 2.223 1_455 S
Cd100 O110 2.297 . S
Cd100 O111 2.439 . S
O101 Cd100 2.240 . S
O101 C106 1.279 . S
O102 Cd99 2.297 . S
O102 C104 1.247 . S
O103 Cd99 2.439 . S
O103 C104 1.208 . S
C104 O102 1.247 . S
C104 O103 1.208 . S
C105 O110 1.247 . S
C105 O111 1.208 . S
C106 O98 1.315 . S
C106 O101 1.279 . S
C107 O108 1.315 . S
C107 O109 1.279 1_655 S
O108 Cd100 2.223 1_655 S
O108 C107 1.315 . S
O109 Cd99 2.240 . S
O109 C107 1.279 1_455 S
O110 Cd100 2.297 . S
O110 C105 1.247 . S
O111 Cd100 2.439 . S
O111 C105 1.208 . S
O112 Cd113 2.211 1_565 S
O112 C120 1.317 1_565 S
Cd113 O112 2.211 1_545 S
Cd113 O116 2.297 . S
Cd113 O117 2.439 . S
Cd113 O123 2.240 1_545 S
Cd114 O115 2.240 . S
Cd114 O122 2.223 1_545 S
Cd114 O124 2.297 1_545 S
Cd114 O125 2.439 . S
O115 Cd114 2.240 . S
O115 C120 1.279 . S
O116 Cd113 2.297 . S
O116 C118 1.247 . S
O117 Cd113 2.439 . S
O117 C118 1.208 . S
C118 O116 1.247 . S
C118 O117 1.208 . S
C119 O124 1.247 1_545 S
C119 O125 1.208 . S
C120 O112 1.317 1_545 S
C120 O115 1.279 . S
C121 O122 1.315 . S
C121 O123 1.279 . S
O122 Cd114 2.223 1_565 S
O122 C121 1.315 . S
O123 Cd113 2.240 1_565 S
O123 C121 1.279 . S
O124 Cd114 2.297 1_565 S
O124 C119 1.247 1_565 S
O125 Cd114 2.439 . S
O125 C119 1.208 . S
O126 Cd127 2.223 . S
O126 C134 1.315 . S
Cd127 O126 2.223 . S
Cd127 O130 2.297 . S
Cd127 O131 2.439 . S
Cd127 O137 2.240 . S
Cd128 O129 2.240 . S
Cd128 O136 2.223 . S
Cd128 O138 2.297 . S
Cd128 O139 2.439 . S
O129 Cd128 2.240 . S
O129 C134 1.279 . S
O130 Cd127 2.297 . S
O130 C132 1.247 . S
O131 Cd127 2.439 . S
O131 C132 1.208 . S
C132 O130 1.247 . S
C132 O131 1.208 . S
C133 O138 1.247 . S
C133 O139 1.208 . S
C134 O126 1.315 . S
C134 O129 1.279 . S
C135 O136 1.315 . S
C135 O137 1.279 . S
O136 Cd128 2.223 . S
O136 C135 1.315 . S
O137 Cd127 2.240 . S
O137 C135 1.279 . S
O138 Cd128 2.297 . S
O138 C133 1.247 . S
O139 Cd128 2.439 . S
O139 C133 1.208 . S
O140 Cd141 2.223 1_545 S
O140 C148 1.315 1_545 S
Cd141 O140 2.223 1_565 S
Cd141 O144 2.297 . S
Cd141 O145 2.439 . S
Cd141 O151 2.240 1_565 S
Cd142 O143 2.240 1_545 S
Cd142 O150 2.223 . S
Cd142 O152 2.297 . S
Cd142 O153 2.439 1_545 S
O143 Cd142 2.240 1_565 S
O143 C148 1.279 . S
O144 Cd141 2.297 . S
O144 C146 1.247 . S
O145 Cd141 2.439 . S
O145 C146 1.208 . S
C146 O144 1.247 . S
C146 O145 1.208 . S
C147 O152 1.247 . S
C147 O153 1.208 1_545 S
C148 O140 1.315 1_565 S
C148 O143 1.279 . S
C149 O150 1.315 . S
C149 O151 1.279 . S
O150 Cd142 2.223 . S
O150 C149 1.315 . S
O151 Cd141 2.240 1_545 S
O151 C149 1.279 . S
O152 Cd142 2.297 . S
O152 C147 1.247 . S
O153 Cd142 2.439 1_565 S
O153 C147 1.208 1_565 S
O154 Cd155 2.223 . S
O154 C162 1.315 . S
Cd155 O154 2.223 . S
Cd155 O158 2.297 . S
Cd155 O159 2.439 1_554 S
Cd155 O165 2.218 1_554 S
Cd156 O157 2.240 1_556 S
Cd156 O164 2.223 1_556 S
Cd156 O166 2.297 . S
Cd156 O167 2.439 . S
O157 Cd156 2.240 1_554 S
O157 C162 1.279 . S
O158 Cd155 2.297 . S
O158 C160 1.247 . S
O159 Cd155 2.439 1_556 S
O159 C160 1.208 1_556 S
C160 O158 1.247 . S
C160 O159 1.208 1_554 S
C161 O166 1.247 . S
C161 O167 1.208 . S
C162 O154 1.315 . S
C162 O157 1.279 . S
C163 O164 1.315 . S
C163 O165 1.266 1_554 S
O164 Cd156 2.223 1_554 S
O164 C163 1.315 . S
O165 Cd155 2.218 1_556 S
O165 C163 1.266 1_556 S
O166 Cd156 2.297 . S
O166 C161 1.247 . S
O167 Cd156 2.439 . S
O167 C161 1.208 . S
O168 Cd169 2.223 . S
O168 C176 1.315 . S
Cd169 O168 2.223 . S
Cd169 O172 2.297 . S
Cd169 O173 2.439 . S
Cd169 O179 2.240 . S
Cd170 O171 2.240 . S
Cd170 O178 2.223 . S
Cd170 O180 2.297 1_554 S
Cd170 O181 2.439 1_554 S
O171 Cd170 2.240 . S
O171 C176 1.279 . S
O172 Cd169 2.297 . S
O172 C174 1.247 . S
O173 Cd169 2.439 . S
O173 C174 1.208 . S
C174 O172 1.247 . S
C174 O173 1.208 . S
C175 O180 1.247 . S
C175 O181 1.208 . S
C176 O168 1.315 . S
C176 O171 1.279 . S
C177 O178 1.315 . S
C177 O179 1.279 . S
O178 Cd170 2.223 . S
O178 C177 1.315 . S
O179 Cd169 2.240 . S
O179 C177 1.279 . S
O180 Cd170 2.297 1_556 S
O180 C175 1.247 . S
O181 Cd170 2.439 1_556 S
O181 C175 1.208 . S
O182 Cd183 2.223 . S
O182 C190 1.315 . S
Cd183 O182 2.223 . S
Cd183 O186 2.297 . S
Cd183 O187 2.439 . S
Cd183 O193 2.240 . S
Cd184 O185 2.240 . S
Cd184 O192 2.223 . S
Cd184 O194 2.297 1_554 S
Cd184 O195 2.439 1_554 S
O185 Cd184 2.240 . S
O185 C190 1.279 . S
O186 Cd183 2.297 . S
O186 C188 1.247 . S
O187 Cd183 2.439 . S
O187 C188 1.208 . S
C188 O186 1.247 . S
C188 O187 1.208 . S
C189 O194 1.247 . S
C189 O195 1.208 . S
C190 O182 1.315 . S
C190 O185 1.279 . S
C191 O192 1.315 . S
C191 O193 1.279 . S
O192 Cd184 2.223 . S
O192 C191 1.315 . S
O193 Cd183 2.240 . S
O193 C191 1.279 . S
O194 Cd184 2.297 1_556 S
O194 C189 1.247 . S
O195 Cd184 2.439 1_556 S
O195 C189 1.208 . S
O196 Cd197 2.223 . S
O196 C204 1.315 . S
Cd197 O196 2.223 . S
Cd197 O200 2.297 . S
Cd197 O201 2.439 . S
Cd197 O207 2.240 . S
Cd198 O199 2.240 . S
Cd198 O206 2.223 . S
Cd198 O208 2.297 . S
Cd198 O209 2.439 . S
O199 Cd198 2.240 . S
O199 C204 1.279 . S
O200 Cd197 2.297 . S
O200 C202 1.247 . S
O201 Cd197 2.439 . S
O201 C202 1.208 . S
C202 O200 1.247 . S
C202 O201 1.208 . S
C203 O208 1.247 . S
C203 O209 1.208 . S
C204 O196 1.315 . S
C204 O199 1.279 . S
C205 O206 1.315 . S
C205 O207 1.279 . S
O206 Cd198 2.223 . S
O206 C205 1.315 . S
O207 Cd197 2.240 . S
O207 C205 1.279 . S
O208 Cd198 2.297 . S
O208 C203 1.247 . S
O209 Cd198 2.439 . S
O209 C203 1.208 . S
O210 Cd211 2.223 . S
O210 C218 1.315 . S
Cd211 O210 2.223 . S
Cd211 O214 2.297 . S
Cd211 O215 2.439 . S
Cd211 O221 2.240 . S
Cd212 O213 2.240 . S
Cd212 O220 2.223 . S
Cd212 O222 2.297 . S
Cd212 O223 2.439 . S
O213 Cd212 2.240 . S
O213 C218 1.279 . S
O214 Cd211 2.297 . S
O214 C216 1.247 . S
O215 Cd211 2.439 . S
O215 C216 1.208 . S
C216 O214 1.247 . S
C216 O215 1.208 . S
C217 O222 1.247 . S
C217 O223 1.208 . S
C218 O210 1.315 . S
C218 O213 1.279 . S
C219 O220 1.315 . S
C219 O221 1.279 . S
O220 Cd212 2.223 . S
O220 C219 1.315 . S
O221 Cd211 2.240 . S
O221 C219 1.279 . S
O222 Cd212 2.297 . S
O222 C217 1.247 . S
O223 Cd212 2.439 . S
O223 C217 1.208 . S
O224 Cd225 2.223 . S
O224 C232 1.315 . S
Cd225 O224 2.223 . S
Cd225 O228 2.297 . S
Cd225 O229 2.439 . S
Cd225 O235 2.240 . S
Cd226 O227 2.240 . S
Cd226 O234 2.223 . S
Cd226 O236 2.297 . S
Cd226 O237 2.439 . S
O227 Cd226 2.240 . S
O227 C232 1.279 . S
O228 Cd225 2.297 . S
O228 C230 1.247 . S
O229 Cd225 2.439 . S
O229 C230 1.208 . S
C230 O228 1.247 . S
C230 O229 1.208 . S
C231 O236 1.247 . S
C231 O237 1.208 . S
C232 O224 1.315 . S
C232 O227 1.279 . S
C233 O234 1.315 . S
C233 O235 1.279 . S
O234 Cd226 2.223 . S
O234 C233 1.315 . S
O235 Cd225 2.240 . S
O235 C233 1.279 . S
O236 Cd226 2.297 . S
O236 C231 1.247 . S
O237 Cd226 2.439 . S
O237 C231 1.208 . S
O238 Cd239 2.223 . S
O238 C246 1.315 . S
Cd239 O238 2.223 . S
Cd239 O242 2.297 . S
Cd239 O243 2.439 . S
Cd239 O249 2.240 . S
Cd240 O241 2.240 . S
Cd240 O248 2.223 . S
Cd240 O250 2.297 . S
Cd240 O251 2.439 . S
O241 Cd240 2.240 . S
O241 C246 1.279 . S
O242 Cd239 2.297 . S
O242 C244 1.247 . S
O243 Cd239 2.439 . S
O243 C244 1.208 . S
C244 O242 1.247 . S
C244 O243 1.208 . S
C245 O250 1.247 . S
C245 O251 1.208 . S
C246 O238 1.315 . S
C246 O241 1.279 . S
C247 O248 1.315 . S
C247 O249 1.279 . S
O248 Cd240 2.223 . S
O248 C247 1.315 . S
O249 Cd239 2.240 . S
O249 C247 1.279 . S
O250 Cd240 2.297 . S
O250 C245 1.247 . S
O251 Cd240 2.439 . S
O251 C245 1.208 . S
O252 Cd253 2.223 . S
O252 C260 1.315 . S
Cd253 O252 2.223 . S
Cd253 O256 2.297 . S
Cd253 O257 2.439 . S
Cd253 O263 2.240 . S
Cd254 O255 2.240 . S
Cd254 O262 2.223 . S
Cd254 O264 2.297 . S
Cd254 O265 2.439 . S
O255 Cd254 2.240 . S
O255 C260 1.279 . S
O256 Cd253 2.297 . S
O256 C258 1.247 . S
O257 Cd253 2.439 . S
O257 C258 1.208 . S
C258 O256 1.247 . S
C258 O257 1.208 . S
C259 O264 1.247 . S
C259 O265 1.208 . S
C260 O252 1.315 . S
C260 O255 1.279 . S
C261 O262 1.315 . S
C261 O263 1.279 . S
O262 Cd254 2.223 . S
O262 C261 1.315 . S
O263 Cd253 2.240 . S
O263 C261 1.279 . S
O264 Cd254 2.297 . S
O264 C259 1.247 . S
O265 Cd254 2.439 . S
O265 C259 1.208 . S
O266 Cd267 2.223 . S
O266 C274 1.315 . S
Cd267 O266 2.223 . S
Cd267 O270 2.297 . S
Cd267 O271 2.439 . S
Cd267 O277 2.240 . S
Cd268 O269 2.240 . S
Cd268 O276 2.223 . S
Cd268 O278 2.297 . S
Cd268 O279 2.439 . S
O269 Cd268 2.240 . S
O269 C274 1.279 . S
O270 Cd267 2.297 . S
O270 C272 1.247 . S
O271 Cd267 2.439 . S
O271 C272 1.208 . S
C272 O270 1.247 . S
C272 O271 1.208 . S
C273 O278 1.247 . S
C273 O279 1.208 . S
C274 O266 1.315 . S
C274 O269 1.279 . S
C275 O276 1.315 . S
C275 O277 1.279 . S
O276 Cd268 2.223 . S
O276 C275 1.315 . S
O277 Cd267 2.240 . S
O277 C275 1.279 . S
O278 Cd268 2.297 . S
O278 C273 1.247 . S
O279 Cd268 2.439 . S
O279 C273 1.208 . S
O280 Cd281 2.223 . S
O280 C288 1.315 . S
Cd281 O280 2.223 . S
Cd281 O284 2.297 . S
Cd281 O285 2.439 . S
Cd281 O291 2.240 . S
Cd282 O283 2.240 . S
Cd282 O290 2.223 . S
Cd282 O292 2.297 1_554 S
Cd282 O293 2.439 1_554 S
O283 Cd282 2.240 . S
O283 C288 1.279 . S
O284 Cd281 2.297 . S
O284 C286 1.247 . S
O285 Cd281 2.439 . S
O285 C286 1.208 . S
C286 O284 1.247 . S
C286 O285 1.208 . S
C287 O292 1.247 . S
C287 O293 1.208 . S
C288 O280 1.315 . S
C288 O283 1.279 . S
C289 O290 1.315 . S
C289 O291 1.279 . S
O290 Cd282 2.223 . S
O290 C289 1.315 . S
O291 Cd281 2.240 . S
O291 C289 1.279 . S
O292 Cd282 2.297 1_556 S
O292 C287 1.247 . S
O293 Cd282 2.439 1_556 S
O293 C287 1.208 . S
O294 Cd295 2.223 . S
O294 C302 1.315 . S
Cd295 O294 2.223 . S
Cd295 O298 2.297 . S
Cd295 O299 2.439 . S
Cd295 O305 2.240 . S
Cd296 O297 2.240 . S
Cd296 O304 2.223 . S
Cd296 O306 2.297 . S
Cd296 O307 2.439 . S
O297 Cd296 2.240 . S
O297 C302 1.279 . S
O298 Cd295 2.297 . S
O298 C300 1.247 . S
O299 Cd295 2.439 . S
O299 C300 1.208 . S
C300 O298 1.247 . S
C300 O299 1.208 . S
C301 O306 1.247 . S
C301 O307 1.208 . S
C302 O294 1.315 . S
C302 O297 1.279 . S
C303 O304 1.315 . S
C303 O305 1.279 . S
O304 Cd296 2.223 . S
O304 C303 1.315 . S
O305 Cd295 2.240 . S
O305 C303 1.279 . S
O306 Cd296 2.297 . S
O306 C301 1.247 . S
O307 Cd296 2.439 . S
O307 C301 1.208 . S
O308 Cd309 2.223 . S
O308 C316 1.315 . S
Cd309 O308 2.223 . S
Cd309 O312 2.297 . S
Cd309 O313 2.439 . S
Cd309 O319 2.240 . S
Cd310 O311 2.240 . S
Cd310 O318 2.223 . S
Cd310 O320 2.297 . S
Cd310 O321 2.439 . S
O311 Cd310 2.240 . S
O311 C316 1.279 . S
O312 Cd309 2.297 . S
O312 C314 1.247 . S
O313 Cd309 2.439 . S
O313 C314 1.208 . S
C314 O312 1.247 . S
C314 O313 1.208 . S
C315 O320 1.247 . S
C315 O321 1.208 . S
C316 O308 1.315 . S
C316 O311 1.279 . S
C317 O318 1.315 . S
C317 O319 1.279 . S
O318 Cd310 2.223 . S
O318 C317 1.315 . S
O319 Cd309 2.240 . S
O319 C317 1.279 . S
O320 Cd310 2.297 . S
O320 C315 1.247 . S
O321 Cd310 2.439 . S
O321 C315 1.208 . S
O322 Cd323 2.223 . S
O322 C330 1.315 . S
Cd323 O322 2.223 . S
Cd323 O326 2.297 . S
Cd323 O327 2.439 . S
Cd323 O333 2.240 . S
Cd324 O325 2.240 . S
Cd324 O332 2.223 . S
Cd324 O334 2.297 . S
Cd324 O335 2.439 . S
O325 Cd324 2.240 . S
O325 C330 1.279 . S
O326 Cd323 2.297 . S
O326 C328 1.247 . S
O327 Cd323 2.439 . S
O327 C328 1.208 . S
C328 O326 1.247 . S
C328 O327 1.208 . S
C329 O334 1.247 . S
C329 O335 1.208 . S
C330 O322 1.315 . S
C330 O325 1.279 . S
C331 O332 1.315 . S
C331 O333 1.279 . S
O332 Cd324 2.223 . S
O332 C331 1.315 . S
O333 Cd323 2.240 . S
O333 C331 1.279 . S
O334 Cd324 2.297 . S
O334 C329 1.247 . S
O335 Cd324 2.439 . S
O335 C329 1.208 . S
Gd336 C339 2.823 1_455 S
Gd336 O356 2.377 . S
Gd336 O358 2.448 1_454 S
Gd336 O359 2.506 1_455 S
Gd336 O360 2.435 1_554 S
Gd336 O361 2.719 . S
Gd336 O363 2.395 1_545 S
Gd336 O367 2.327 . S
Gd337 C348 2.818 . S
Gd337 O357 2.395 . S
Gd337 O361 2.331 . S
Gd337 O362 2.377 . S
Gd337 O364 2.448 . S
Gd337 O365 2.506 . S
Gd337 O366 2.435 . S
Gd337 O367 2.717 . S
C338 O356 1.240 . S
C338 O357 1.240 . S
C339 Gd336 2.823 1_655 S
C339 C340 1.505 1_554 S
C339 O358 1.228 1_554 S
C339 O359 1.278 . S
C340 C339 1.505 1_556 S
C340 C341 1.404 . S
C340 C342 1.352 1_556 S
C341 C340 1.404 . S
C341 C345 1.389 . S
C341 H368 0.930 . S
C342 C340 1.352 1_554 S
C342 C344 1.374 . S
C342 H369 0.931 . S
C343 C344 1.359 1_556 S
C343 C345 1.364 . S
C344 C342 1.374 . S
C344 C343 1.359 1_554 S
C344 H370 0.931 . S
C345 C341 1.389 . S
C345 C343 1.364 . S
C345 H371 0.931 . S
C346 O360 1.256 . S
C346 O361 1.252 1_556 S
C347 O362 1.240 1_565 S
C347 O363 1.240 . S
C348 Gd337 2.818 . S
C348 C349 1.510 . S
C348 O364 1.249 . S
C348 O365 1.252 . S
C349 C348 1.510 . S
C349 C350 1.404 . S
C349 C351 1.352 . S
C350 C349 1.404 . S
C350 C354 1.389 . S
C350 H372 0.930 . S
C351 C349 1.352 . S
C351 C353 1.374 . S
C351 H373 0.931 . S
C352 C353 1.359 . S
C352 C354 1.364 . S
C353 C351 1.374 . S
C353 C352 1.359 . S
C353 H374 0.931 1_545 S
C354 C350 1.389 . S
C354 C352 1.364 . S
C354 H375 0.931 . S
C355 O366 1.256 . S
C355 O367 1.257 . S
O356 Gd336 2.377 . S
O356 C338 1.240 . S
O357 Gd337 2.395 . S
O357 C338 1.240 . S
O358 Gd336 2.448 1_656 S
O358 C339 1.228 1_556 S
O359 Gd336 2.506 1_655 S
O359 C339 1.278 . S
O360 Gd336 2.435 1_556 S
O360 C346 1.256 . S
O361 Gd336 2.719 . S
O361 Gd337 2.331 . S
O361 C346 1.252 1_554 S
O362 Gd337 2.377 . S
O362 C347 1.240 1_545 S
O363 Gd336 2.395 1_565 S
O363 C347 1.240 . S
O364 Gd337 2.448 . S
O364 C348 1.249 . S
O365 Gd337 2.506 . S
O365 C348 1.252 . S
O366 Gd337 2.435 . S
O366 C355 1.256 . S
O367 Gd336 2.327 . S
O367 Gd337 2.717 . S
O367 C355 1.257 . S
H368 C341 0.930 . S
H369 C342 0.931 . S
H370 C344 0.931 . S
H371 C345 0.931 . S
H372 C350 0.930 . S
H373 C351 0.931 . S
H374 C353 0.931 1_565 S
H375 C354 0.931 . S
Gd376 C379 2.818 . S
Gd376 O396 2.377 . S
Gd376 O398 2.448 . S
Gd376 O399 2.506 . S
Gd376 O400 2.435 . S
Gd376 O401 2.717 . S
Gd376 O403 2.395 . S
Gd376 O407 2.327 . S
Gd377 C388 2.818 . S
Gd377 O397 2.395 . S
Gd377 O401 2.327 . S
Gd377 O402 2.377 . S
Gd377 O404 2.448 . S
Gd377 O405 2.506 . S
Gd377 O406 2.435 . S
Gd377 O407 2.717 . S
C378 O396 1.240 . S
C378 O397 1.240 . S
C379 Gd376 2.818 . S
C379 C380 1.510 . S
C379 O398 1.249 . S
C379 O399 1.252 . S
C380 C379 1.510 . S
C380 C381 1.404 . S
C380 C382 1.352 . S
C381 C380 1.404 . S
C381 C385 1.389 . S
C381 H408 0.930 . S
C382 C380 1.352 . S
C382 C384 1.374 . S
C382 H409 0.931 . S
C383 C384 1.359 . S
C383 C385 1.364 . S
C384 C382 1.374 . S
C384 C383 1.359 . S
C384 H410 0.931 . S
C385 C381 1.389 . S
C385 C383 1.364 . S
C385 H411 0.931 . S
C386 O400 1.256 . S
C386 O401 1.257 . S
C387 O402 1.240 . S
C387 O403 1.240 . S
C388 Gd377 2.818 . S
C388 C389 1.510 . S
C388 O404 1.249 . S
C388 O405 1.252 . S
C389 C388 1.510 . S
C389 C390 1.404 . S
C389 C391 1.352 . S
C390 C389 1.404 . S
C390 C394 1.389 . S
C390 H412 0.930 . S
C391 C389 1.352 . S
C391 C393 1.374 . S
C391 H413 0.931 . S
C392 C393 1.359 . S
C392 C394 1.364 . S
C393 C391 1.374 . S
C393 C392 1.359 . S
C393 H414 0.931 . S
C394 C390 1.389 . S
C394 C392 1.364 . S
C394 H415 0.931 . S
C395 O406 1.256 . S
C395 O407 1.257 . S
O396 Gd376 2.377 . S
O396 C378 1.240 . S
O397 Gd377 2.395 . S
O397 C378 1.240 . S
O398 Gd376 2.448 . S
O398 C379 1.249 . S
O399 Gd376 2.506 . S
O399 C379 1.252 . S
O400 Gd376 2.435 . S
O400 C386 1.256 . S
O401 Gd376 2.717 . S
O401 Gd377 2.327 . S
O401 C386 1.257 . S
O402 Gd377 2.377 . S
O402 C387 1.240 . S
O403 Gd376 2.395 . S
O403 C387 1.240 . S
O404 Gd377 2.448 . S
O404 C388 1.249 . S
O405 Gd377 2.506 . S
O405 C388 1.252 . S
O406 Gd377 2.435 . S
O406 C395 1.256 . S
O407 Gd376 2.327 . S
O407 Gd377 2.717 . S
O407 C395 1.257 . S
H408 C381 0.930 . S
H409 C382 0.931 . S
H410 C384 0.931 . S
H411 C385 0.931 . S
H412 C390 0.930 . S
H413 C391 0.931 . S
H414 C393 0.931 . S
H415 C394 0.931 . S
Gd416 C419 2.818 . S
Gd416 O436 2.377 1_545 S
Gd416 O438 2.448 . S
Gd416 O439 2.506 . S
Gd416 O440 2.435 . S
Gd416 O441 2.717 . S
Gd416 O443 2.395 . S
Gd416 O447 2.327 . S
Gd417 C428 2.818 . S
Gd417 O437 2.395 1_545 S
Gd417 O441 2.327 . S
Gd417 O442 2.377 . S
Gd417 O444 2.448 . S
Gd417 O445 2.506 . S
Gd417 O446 2.435 . S
Gd417 O447 2.717 . S
C418 O436 1.240 . S
C418 O437 1.240 . S
C419 Gd416 2.818 . S
C419 C420 1.510 1_545 S
C419 O438 1.249 . S
C419 O439 1.252 . S
C420 C419 1.510 1_565 S
C420 C421 1.404 . S
C420 C422 1.352 . S
C421 C420 1.404 . S
C421 C425 1.389 . S
C421 H448 0.930 1_565 S
C422 C420 1.352 . S
C422 C424 1.374 . S
C422 H449 0.931 . S
C423 C424 1.359 . S
C423 C425 1.364 . S
C424 C422 1.374 . S
C424 C423 1.359 . S
C424 H450 0.931 . S
C425 C421 1.389 . S
C425 C423 1.364 . S
C425 H451 0.931 . S
C426 O440 1.256 . S
C426 O441 1.257 . S
C427 O442 1.240 . S
C427 O443 1.240 . S
C428 Gd417 2.818 . S
C428 C429 1.510 . S
C428 O444 1.249 . S
C428 O445 1.252 . S
C429 C428 1.510 . S
C429 C430 1.404 . S
C429 C431 1.352 . S
C430 C429 1.404 . S
C430 C434 1.389 . S
C430 H452 0.930 . S
C431 C429 1.352 . S
C431 C433 1.374 . S
C431 H453 0.931 . S
C432 C433 1.359 . S
C432 C434 1.364 . S
C433 C431 1.374 . S
C433 C432 1.359 . S
C433 H454 0.931 . S
C434 C430 1.389 . S
C434 C432 1.364 . S
C434 H455 0.931 . S
C435 O446 1.256 . S
C435 O447 1.257 . S
O436 Gd416 2.377 1_565 S
O436 C418 1.240 . S
O437 Gd417 2.395 1_565 S
O437 C418 1.240 . S
O438 Gd416 2.448 . S
O438 C419 1.249 . S
O439 Gd416 2.506 . S
O439 C419 1.252 . S
O440 Gd416 2.435 . S
O440 C426 1.256 . S
O441 Gd416 2.717 . S
O441 Gd417 2.327 . S
O441 C426 1.257 . S
O442 Gd417 2.377 . S
O442 C427 1.240 . S
O443 Gd416 2.395 . S
O443 C427 1.240 . S
O444 Gd417 2.448 . S
O444 C428 1.249 . S
O445 Gd417 2.506 . S
O445 C428 1.252 . S
O446 Gd417 2.435 . S
O446 C435 1.256 . S
O447 Gd416 2.327 . S
O447 Gd417 2.717 . S
O447 C435 1.257 . S
H448 C421 0.930 1_545 S
H449 C422 0.931 . S
H450 C424 0.931 . S
H451 C425 0.931 . S
H452 C430 0.930 . S
H453 C431 0.931 . S
H454 C433 0.931 . S
H455 C434 0.931 . S
Gd456 C459 2.818 . S
Gd456 O476 2.377 . S
Gd456 O478 2.448 . S
Gd456 O479 2.506 . S
Gd456 O480 2.435 . S
Gd456 O481 2.717 . S
Gd456 O483 2.395 . S
Gd456 O487 2.327 . S
Gd457 C468 2.818 . S
Gd457 O477 2.395 . S
Gd457 O481 2.327 . S
Gd457 O482 2.377 . S
Gd457 O484 2.448 . S
Gd457 O485 2.506 . S
Gd457 O486 2.435 . S
Gd457 O487 2.717 . S
C458 O476 1.240 . S
C458 O477 1.240 . S
C459 Gd456 2.818 . S
C459 C460 1.510 . S
C459 O478 1.249 . S
C459 O479 1.252 . S
C460 C459 1.510 . S
C460 C461 1.404 . S
C460 C462 1.352 . S
C461 C460 1.404 . S
C461 C465 1.389 . S
C461 H488 0.930 . S
C462 C460 1.352 . S
C462 C464 1.374 . S
C462 H489 0.931 . S
C463 C464 1.359 . S
C463 C465 1.364 . S
C464 C462 1.374 . S
C464 C463 1.359 . S
C464 H490 0.931 . S
C465 C461 1.389 . S
C465 C463 1.364 . S
C465 H491 0.931 . S
C466 O480 1.256 . S
C466 O481 1.257 . S
C467 O482 1.240 . S
C467 O483 1.240 . S
C468 Gd457 2.818 . S
C468 C469 1.510 . S
C468 O484 1.249 . S
C468 O485 1.252 . S
C469 C468 1.510 . S
C469 C470 1.404 . S
C469 C471 1.352 . S
C470 C469 1.404 . S
C470 C474 1.389 . S
C470 H492 0.930 . S
C471 C469 1.352 . S
C471 C473 1.374 . S
C471 H493 0.931 . S
C472 C473 1.359 . S
C472 C474 1.364 . S
C473 C471 1.374 . S
C473 C472 1.359 . S
C473 H494 0.931 . S
C474 C470 1.389 . S
C474 C472 1.364 . S
C474 H495 0.931 . S
C475 O486 1.256 . S
C475 O487 1.257 . S
O476 Gd456 2.377 . S
O476 C458 1.240 . S
O477 Gd457 2.395 . S
O477 C458 1.240 . S
O478 Gd456 2.448 . S
O478 C459 1.249 . S
O479 Gd456 2.506 . S
O479 C459 1.252 . S
O480 Gd456 2.435 . S
O480 C466 1.256 . S
O481 Gd456 2.717 . S
O481 Gd457 2.327 . S
O481 C466 1.257 . S
O482 Gd457 2.377 . S
O482 C467 1.240 . S
O483 Gd456 2.395 . S
O483 C467 1.240 . S
O484 Gd457 2.448 . S
O484 C468 1.249 . S
O485 Gd457 2.506 . S
O485 C468 1.252 . S
O486 Gd457 2.435 . S
O486 C475 1.256 . S
O487 Gd456 2.327 . S
O487 Gd457 2.717 . S
O487 C475 1.257 . S
H488 C461 0.930 . S
H489 C462 0.931 . S
H490 C464 0.931 . S
H491 C465 0.931 . S
H492 C470 0.930 . S
H493 C471 0.931 . S
H494 C473 0.931 . S
H495 C474 0.931 . S
Gd496 C499 2.818 . S
Gd496 O516 2.377 . S
Gd496 O518 2.448 . S
Gd496 O519 2.506 . S
Gd496 O520 2.435 . S
Gd496 O521 2.717 . S
Gd496 O523 2.395 . S
Gd496 O527 2.327 . S
Gd497 C508 2.818 1_545 S
Gd497 O517 2.395 . S
Gd497 O521 2.327 . S
Gd497 O522 2.377 . S
Gd497 O524 2.448 1_545 S
Gd497 O525 2.506 1_545 S
Gd497 O526 2.435 . S
Gd497 O527 2.717 . S
C498 O516 1.240 . S
C498 O517 1.240 . S
C499 Gd496 2.818 . S
C499 C500 1.510 . S
C499 O518 1.249 . S
C499 O519 1.252 . S
C500 C499 1.510 . S
C500 C501 1.404 . S
C500 C502 1.352 . S
C501 C500 1.404 . S
C501 C505 1.389 . S
C501 H528 0.930 . S
C502 C500 1.352 . S
C502 C504 1.374 . S
C502 H529 0.931 . S
C503 C504 1.359 . S
C503 C505 1.364 . S
C504 C502 1.374 . S
C504 C503 1.359 . S
C504 H530 0.931 . S
C505 C501 1.389 . S
C505 C503 1.364 . S
C505 H531 0.931 . S
C506 O520 1.256 . S
C506 O521 1.257 . S
C507 O522 1.240 . S
C507 O523 1.240 . S
C508 Gd497 2.818 1_565 S
C508 C509 1.510 . S
C508 O524 1.249 . S
C508 O525 1.252 . S
C509 C508 1.510 . S
C509 C510 1.404 . S
C509 C511 1.352 . S
C510 C509 1.404 . S
C510 C514 1.389 . S
C510 H532 0.930 . S
C511 C509 1.352 . S
C511 C513 1.374 . S
C511 H533 0.931 . S
C512 C513 1.359 . S
C512 C514 1.364 . S
C513 C511 1.374 . S
C513 C512 1.359 . S
C513 H534 0.931 . S
C514 C510 1.389 . S
C514 C512 1.364 . S
C514 H535 0.931 . S
C515 O526 1.256 . S
C515 O527 1.257 . S
O516 Gd496 2.377 . S
O516 C498 1.240 . S
O517 Gd497 2.395 . S
O517 C498 1.240 . S
O518 Gd496 2.448 . S
O518 C499 1.249 . S
O519 Gd496 2.506 . S
O519 C499 1.252 . S
O520 Gd496 2.435 . S
O520 C506 1.256 . S
O521 Gd496 2.717 . S
O521 Gd497 2.327 . S
O521 C506 1.257 . S
O522 Gd497 2.377 . S
O522 C507 1.240 . S
O523 Gd496 2.395 . S
O523 C507 1.240 . S
O524 Gd497 2.448 1_565 S
O524 C508 1.249 . S
O525 Gd497 2.506 1_565 S
O525 C508 1.252 . S
O526 Gd497 2.435 . S
O526 C515 1.256 . S
O527 Gd496 2.327 . S
O527 Gd497 2.717 . S
O527 C515 1.257 . S
H528 C501 0.930 . S
H529 C502 0.931 . S
H530 C504 0.931 . S
H531 C505 0.931 . S
H532 C510 0.930 . S
H533 C511 0.931 . S
H534 C513 0.931 . S
H535 C514 0.931 . S
Gd536 C539 2.818 . S
Gd536 O556 2.377 . S
Gd536 O558 2.448 . S
Gd536 O559 2.506 . S
Gd536 O560 2.435 . S
Gd536 O561 2.717 . S
Gd536 O563 2.395 . S
Gd536 O567 2.327 . S
Gd537 C548 2.818 . S
Gd537 O557 2.395 . S
Gd537 O561 2.327 . S
Gd537 O562 2.377 . S
Gd537 O564 2.448 . S
Gd537 O565 2.506 . S
Gd537 O566 2.435 . S
Gd537 O567 2.717 . S
C538 O556 1.240 . S
C538 O557 1.240 . S
C539 Gd536 2.818 . S
C539 C540 1.510 . S
C539 O558 1.249 . S
C539 O559 1.252 . S
C540 C539 1.510 . S
C540 C541 1.404 . S
C540 C542 1.352 . S
C541 C540 1.404 . S
C541 C545 1.389 . S
C541 H568 0.930 . S
C542 C540 1.352 . S
C542 C544 1.374 . S
C542 H569 0.931 . S
C543 C544 1.359 . S
C543 C545 1.364 . S
C544 C542 1.374 . S
C544 C543 1.359 . S
C544 H570 0.931 . S
C545 C541 1.389 . S
C545 C543 1.364 . S
C545 H571 0.931 . S
C546 O560 1.256 . S
C546 O561 1.257 . S
C547 O562 1.240 . S
C547 O563 1.240 . S
C548 Gd537 2.818 . S
C548 C549 1.510 . S
C548 O564 1.249 . S
C548 O565 1.252 . S
C549 C548 1.510 . S
C549 C550 1.404 . S
C549 C551 1.352 . S
C550 C549 1.404 . S
C550 C554 1.389 . S
C550 H572 0.930 . S
C551 C549 1.352 . S
C551 C553 1.374 . S
C551 H573 0.931 . S
C552 C553 1.359 . S
C552 C554 1.364 . S
C553 C551 1.374 . S
C553 C552 1.359 . S
C553 H574 0.931 . S
C554 C550 1.389 . S
C554 C552 1.364 . S
C554 H575 0.931 . S
C555 O566 1.256 . S
C555 O567 1.257 . S
O556 Gd536 2.377 . S
O556 C538 1.240 . S
O557 Gd537 2.395 . S
O557 C538 1.240 . S
O558 Gd536 2.448 . S
O558 C539 1.249 . S
O559 Gd536 2.506 . S
O559 C539 1.252 . S
O560 Gd536 2.435 . S
O560 C546 1.256 . S
O561 Gd536 2.717 . S
O561 Gd537 2.327 . S
O561 C546 1.257 . S
O562 Gd537 2.377 . S
O562 C547 1.240 . S
O563 Gd536 2.395 . S
O563 C547 1.240 . S
O564 Gd537 2.448 . S
O564 C548 1.249 . S
O565 Gd537 2.506 . S
O565 C548 1.252 . S
O566 Gd537 2.435 . S
O566 C555 1.256 . S
O567 Gd536 2.327 . S
O567 Gd537 2.717 . S
O567 C555 1.257 . S
H568 C541 0.930 . S
H569 C542 0.931 . S
H570 C544 0.931 . S
H571 C545 0.931 . S
H572 C550 0.930 . S
H573 C551 0.931 . S
H574 C553 0.931 . S
H575 C554 0.931 . S
Gd576 C579 2.818 . S
Gd576 O596 2.377 . S
Gd576 O598 2.448 . S
Gd576 O599 2.506 . S
Gd576 O600 2.435 1_545 S
Gd576 O601 2.717 . S
Gd576 O603 2.395 . S
Gd576 O607 2.327 . S
Gd577 C588 2.818 . S
Gd577 O597 2.395 1_556 S
Gd577 O601 2.327 1_556 S
Gd577 O602 2.377 1_556 S
Gd577 O604 2.448 . S
Gd577 O605 2.506 . S
Gd577 O606 2.435 1_556 S
Gd577 O607 2.717 1_556 S
C578 O596 1.240 . S
C578 O597 1.240 . S
C579 Gd576 2.818 . S
C579 C580 1.510 . S
C579 O598 1.249 . S
C579 O599 1.252 . S
C580 C579 1.510 . S
C580 C581 1.404 1_545 S
C580 C582 1.352 . S
C581 C580 1.404 1_565 S
C581 C585 1.389 . S
C581 H608 0.930 . S
C582 C580 1.352 . S
C582 C584 1.374 . S
C582 H609 0.931 . S
C583 C584 1.359 1_565 S
C583 C585 1.364 . S
C584 C582 1.374 . S
C584 C583 1.359 1_545 S
C584 H610 0.931 . S
C585 C581 1.389 . S
C585 C583 1.364 . S
C585 H611 0.931 . S
C586 O600 1.256 . S
C586 O601 1.257 1_565 S
C587 O602 1.240 . S
C587 O603 1.240 . S
C588 Gd577 2.818 . S
C588 C589 1.510 . S
C588 O604 1.249 . S
C588 O605 1.252 . S
C589 C588 1.510 . S
C589 C590 1.404 . S
C589 C591 1.352 . S
C590 C589 1.404 . S
C590 C594 1.389 . S
C590 H612 0.930 . S
C591 C589 1.352 . S
C591 C593 1.374 . S
C591 H613 0.931 . S
C592 C593 1.359 . S
C592 C594 1.364 . S
C593 C591 1.374 . S
C593 C592 1.359 . S
C593 H614 0.931 . S
C594 C590 1.389 . S
C594 C592 1.364 . S
C594 H615 0.931 . S
C595 O606 1.256 . S
C595 O607 1.257 . S
O596 Gd576 2.377 . S
O596 C578 1.240 . S
O597 Gd577 2.395 1_554 S
O597 C578 1.240 . S
O598 Gd576 2.448 . S
O598 C579 1.249 . S
O599 Gd576 2.506 . S
O599 C579 1.252 . S
O600 Gd576 2.435 1_565 S
O600 C586 1.256 . S
O601 Gd576 2.717 . S
O601 Gd577 2.327 1_554 S
O601 C586 1.257 1_545 S
O602 Gd577 2.377 1_554 S
O602 C587 1.240 . S
O603 Gd576 2.395 . S
O603 C587 1.240 . S
O604 Gd577 2.448 . S
O604 C588 1.249 . S
O605 Gd577 2.506 . S
O605 C588 1.252 . S
O606 Gd577 2.435 1_554 S
O606 C595 1.256 . S
O607 Gd576 2.327 . S
O607 Gd577 2.717 1_554 S
O607 C595 1.257 . S
H608 C581 0.930 . S
H609 C582 0.931 . S
H610 C584 0.931 . S
H611 C585 0.931 . S
H612 C590 0.930 . S
H613 C591 0.931 . S
H614 C593 0.931 . S
H615 C594 0.931 . S
Gd616 C619 2.818 . S
Gd616 O636 2.377 . S
Gd616 O638 2.448 . S
Gd616 O639 2.506 . S
Gd616 O640 2.435 . S
Gd616 O641 2.717 . S
Gd616 O643 2.395 . S
Gd616 O647 2.327 . S
Gd617 C628 2.818 . S
Gd617 O637 2.395 . S
Gd617 O641 2.327 . S
Gd617 O642 2.377 . S
Gd617 O644 2.448 . S
Gd617 O645 2.506 . S
Gd617 O646 2.435 . S
Gd617 O647 2.717 . S
C618 O636 1.240 . S
C618 O637 1.240 . S
C619 Gd616 2.818 . S
C619 C620 1.510 . S
C619 O638 1.249 . S
C619 O639 1.252 . S
C620 C619 1.510 . S
C620 C621 1.404 . S
C620 C622 1.352 . S
C621 C620 1.404 . S
C621 C625 1.389 . S
C621 H648 0.930 . S
C622 C620 1.352 . S
C622 C624 1.374 . S
C622 H649 0.931 . S
C623 C624 1.359 . S
C623 C625 1.364 . S
C624 C622 1.374 . S
C624 C623 1.359 . S
C624 H650 0.931 . S
C625 C621 1.389 . S
C625 C623 1.364 . S
C625 H651 0.931 . S
C626 O640 1.256 . S
C626 O641 1.257 . S
C627 O642 1.240 . S
C627 O643 1.240 . S
C628 Gd617 2.818 . S
C628 C629 1.510 . S
C628 O644 1.249 . S
C628 O645 1.252 . S
C629 C628 1.510 . S
C629 C630 1.404 . S
C629 C631 1.352 . S
C630 C629 1.404 . S
C630 C634 1.389 . S
C630 H652 0.930 . S
C631 C629 1.352 . S
C631 C633 1.374 . S
C631 H653 0.931 . S
C632 C633 1.359 . S
C632 C634 1.364 . S
C633 C631 1.374 . S
C633 C632 1.359 . S
C633 H654 0.931 . S
C634 C630 1.389 . S
C634 C632 1.364 . S
C634 H655 0.931 . S
C635 O646 1.256 . S
C635 O647 1.257 . S
O636 Gd616 2.377 . S
O636 C618 1.240 . S
O637 Gd617 2.395 . S
O637 C618 1.240 . S
O638 Gd616 2.448 . S
O638 C619 1.249 . S
O639 Gd616 2.506 . S
O639 C619 1.252 . S
O640 Gd616 2.435 . S
O640 C626 1.256 . S
O641 Gd616 2.717 . S
O641 Gd617 2.327 . S
O641 C626 1.257 . S
O642 Gd617 2.377 . S
O642 C627 1.240 . S
O643 Gd616 2.395 . S
O643 C627 1.240 . S
O644 Gd617 2.448 . S
O644 C628 1.249 . S
O645 Gd617 2.506 . S
O645 C628 1.252 . S
O646 Gd617 2.435 . S
O646 C635 1.256 . S
O647 Gd616 2.327 . S
O647 Gd617 2.717 . S
O647 C635 1.257 . S
H648 C621 0.930 . S
H649 C622 0.931 . S
H650 C624 0.931 . S
H651 C625 0.931 . S
H652 C630 0.930 . S
H653 C631 0.931 . S
H654 C633 0.931 . S
H655 C634 0.931 . S
Gd656 C659 2.818 . S
Gd656 O676 2.377 1_554 S
Gd656 O678 2.448 . S
Gd656 O679 2.506 . S
Gd656 O680 2.435 . S
Gd656 O681 2.717 . S
Gd656 O683 2.395 . S
Gd656 O687 2.327 . S
Gd657 C668 2.818 . S
Gd657 O677 2.395 1_554 S
Gd657 O681 2.327 . S
Gd657 O682 2.377 . S
Gd657 O684 2.448 . S
Gd657 O685 2.506 . S
Gd657 O686 2.435 . S
Gd657 O687 2.717 . S
C658 O676 1.240 . S
C658 O677 1.240 . S
C659 Gd656 2.818 . S
C659 C660 1.510 . S
C659 O678 1.249 . S
C659 O679 1.252 . S
C660 C659 1.510 . S
C660 C661 1.404 . S
C660 C662 1.352 1_554 S
C661 C660 1.404 . S
C661 C665 1.389 1_554 S
C661 H688 0.930 . S
C662 C660 1.352 1_556 S
C662 C664 1.374 . S
C662 H689 0.931 . S
C663 C664 1.359 . S
C663 C665 1.364 . S
C664 C662 1.374 . S
C664 C663 1.359 . S
C664 H690 0.931 . S
C665 C661 1.389 1_556 S
C665 C663 1.364 . S
C665 H691 0.931 . S
C666 O680 1.256 . S
C666 O681 1.257 . S
C667 O682 1.240 . S
C667 O683 1.240 . S
C668 Gd657 2.818 . S
C668 C669 1.510 . S
C668 O684 1.249 . S
C668 O685 1.252 . S
C669 C668 1.510 . S
C669 C670 1.404 . S
C669 C671 1.352 . S
C670 C669 1.404 . S
C670 C674 1.389 . S
C670 H692 0.930 . S
C671 C669 1.352 . S
C671 C673 1.374 . S
C671 H693 0.931 . S
C672 C673 1.359 . S
C672 C674 1.364 . S
C673 C671 1.374 . S
C673 C672 1.359 . S
C673 H694 0.931 . S
C674 C670 1.389 . S
C674 C672 1.364 . S
C674 H695 0.931 . S
C675 O686 1.256 . S
C675 O687 1.257 . S
O676 Gd656 2.377 1_556 S
O676 C658 1.240 . S
O677 Gd657 2.395 1_556 S
O677 C658 1.240 . S
O678 Gd656 2.448 . S
O678 C659 1.249 . S
O679 Gd656 2.506 . S
O679 C659 1.252 . S
O680 Gd656 2.435 . S
O680 C666 1.256 . S
O681 Gd656 2.717 . S
O681 Gd657 2.327 . S
O681 C666 1.257 . S
O682 Gd657 2.377 . S
O682 C667 1.240 . S
O683 Gd656 2.395 . S
O683 C667 1.240 . S
O684 Gd657 2.448 . S
O684 C668 1.249 . S
O685 Gd657 2.506 . S
O685 C668 1.252 . S
O686 Gd657 2.435 . S
O686 C675 1.256 . S
O687 Gd656 2.327 . S
O687 Gd657 2.717 . S
O687 C675 1.257 . S
H688 C661 0.930 . S
H689 C662 0.931 . S
H690 C664 0.931 . S
H691 C665 0.931 . S
H692 C670 0.930 . S
H693 C671 0.931 . S
H694 C673 0.931 . S
H695 C674 0.931 . S
Gd696 C699 2.818 . S
Gd696 O716 2.377 . S
Gd696 O718 2.448 . S
Gd696 O719 2.506 . S
Gd696 O720 2.435 . S
Gd696 O721 2.717 . S
Gd696 O723 2.395 . S
Gd696 O727 2.327 . S
Gd697 C708 2.818 . S
Gd697 O717 2.395 . S
Gd697 O721 2.327 . S
Gd697 O722 2.377 . S
Gd697 O724 2.448 . S
Gd697 O725 2.506 . S
Gd697 O726 2.435 . S
Gd697 O727 2.717 . S
C698 O716 1.240 . S
C698 O717 1.240 . S
C699 Gd696 2.818 . S
C699 C700 1.510 . S
C699 O718 1.249 . S
C699 O719 1.252 . S
C700 C699 1.510 . S
C700 C701 1.404 . S
C700 C702 1.352 . S
C701 C700 1.404 . S
C701 C705 1.389 . S
C701 H728 0.930 . S
C702 C700 1.352 . S
C702 C704 1.374 . S
C702 H729 0.931 . S
C703 C704 1.359 . S
C703 C705 1.364 . S
C704 C702 1.374 . S
C704 C703 1.359 . S
C704 H730 0.931 . S
C705 C701 1.389 . S
C705 C703 1.364 . S
C705 H731 0.931 . S
C706 O720 1.256 . S
C706 O721 1.257 . S
C707 O722 1.240 . S
C707 O723 1.240 . S
C708 Gd697 2.818 . S
C708 C709 1.510 . S
C708 O724 1.249 . S
C708 O725 1.252 . S
C709 C708 1.510 . S
C709 C710 1.404 . S
C709 C711 1.352 . S
C710 C709 1.404 . S
C710 C714 1.389 . S
C710 H732 0.930 . S
C711 C709 1.352 . S
C711 C713 1.374 . S
C711 H733 0.931 . S
C712 C713 1.359 . S
C712 C714 1.364 . S
C713 C711 1.374 . S
C713 C712 1.359 . S
C713 H734 0.931 . S
C714 C710 1.389 . S
C714 C712 1.364 . S
C714 H735 0.931 . S
C715 O726 1.256 . S
C715 O727 1.257 . S
O716 Gd696 2.377 . S
O716 C698 1.240 . S
O717 Gd697 2.395 . S
O717 C698 1.240 . S
O718 Gd696 2.448 . S
O718 C699 1.249 . S
O719 Gd696 2.506 . S
O719 C699 1.252 . S
O720 Gd696 2.435 . S
O720 C706 1.256 . S
O721 Gd696 2.717 . S
O721 Gd697 2.327 . S
O721 C706 1.257 . S
O722 Gd697 2.377 . S
O722 C707 1.240 . S
O723 Gd696 2.395 . S
O723 C707 1.240 . S
O724 Gd697 2.448 . S
O724 C708 1.249 . S
O725 Gd697 2.506 . S
O725 C708 1.252 . S
O726 Gd697 2.435 . S
O726 C715 1.256 . S
O727 Gd696 2.327 . S
O727 Gd697 2.717 . S
O727 C715 1.257 . S
H728 C701 0.930 . S
H729 C702 0.931 . S
H730 C704 0.931 . S
H731 C705 0.931 . S
H732 C710 0.930 . S
H733 C711 0.931 . S
H734 C713 0.931 . S
H735 C714 0.931 . S
Gd736 C739 2.818 . S
Gd736 O756 2.377 . S
Gd736 O758 2.448 . S
Gd736 O759 2.506 . S
Gd736 O760 2.435 . S
Gd736 O761 2.717 . S
Gd736 O763 2.395 . S
Gd736 O767 2.327 . S
Gd737 C748 2.818 . S
Gd737 O757 2.395 . S
Gd737 O761 2.327 . S
Gd737 O762 2.377 . S
Gd737 O764 2.448 . S
Gd737 O765 2.506 . S
Gd737 O766 2.435 . S
Gd737 O767 2.717 . S
C738 O756 1.240 . S
C738 O757 1.240 . S
C739 Gd736 2.818 . S
C739 C740 1.510 . S
C739 O758 1.249 . S
C739 O759 1.252 . S
C740 C739 1.510 . S
C740 C741 1.404 . S
C740 C742 1.352 . S
C741 C740 1.404 . S
C741 C745 1.389 . S
C741 H768 0.930 . S
C742 C740 1.352 . S
C742 C744 1.374 1_455 S
C742 H769 0.931 . S
C743 C744 1.359 . S
C743 C745 1.364 1_655 S
C744 C742 1.374 1_655 S
C744 C743 1.359 . S
C744 H770 0.931 . S
C745 C741 1.389 . S
C745 C743 1.364 1_455 S
C745 H771 0.931 . S
C746 O760 1.256 . S
C746 O761 1.257 . S
C747 O762 1.240 . S
C747 O763 1.240 . S
C748 Gd737 2.818 . S
C748 C749 1.510 . S
C748 O764 1.249 . S
C748 O765 1.252 . S
C749 C748 1.510 . S
C749 C750 1.404 . S
C749 C751 1.352 . S
C750 C749 1.404 . S
C750 C754 1.389 . S
C750 H772 0.930 . S
C751 C749 1.352 . S
C751 C753 1.374 . S
C751 H773 0.931 . S
C752 C753 1.359 . S
C752 C754 1.364 . S
C753 C751 1.374 . S
C753 C752 1.359 . S
C753 H774 0.931 . S
C754 C750 1.389 . S
C754 C752 1.364 . S
C754 H775 0.931 . S
C755 O766 1.256 . S
C755 O767 1.257 . S
O756 Gd736 2.377 . S
O756 C738 1.240 . S
O757 Gd737 2.395 . S
O757 C738 1.240 . S
O758 Gd736 2.448 . S
O758 C739 1.249 . S
O759 Gd736 2.506 . S
O759 C739 1.252 . S
O760 Gd736 2.435 . S
O760 C746 1.256 . S
O761 Gd736 2.717 . S
O761 Gd737 2.327 . S
O761 C746 1.257 . S
O762 Gd737 2.377 . S
O762 C747 1.240 . S
O763 Gd736 2.395 . S
O763 C747 1.240 . S
O764 Gd737 2.448 . S
O764 C748 1.249 . S
O765 Gd737 2.506 . S
O765 C748 1.252 . S
O766 Gd737 2.435 . S
O766 C755 1.256 . S
O767 Gd736 2.327 . S
O767 Gd737 2.717 . S
O767 C755 1.257 . S
H768 C741 0.930 . S
H769 C742 0.931 . S
H770 C744 0.931 . S
H771 C745 0.931 . S
H772 C750 0.930 . S
H773 C751 0.931 . S
H774 C753 0.931 . S
H775 C754 0.931 . S
Gd776 C779 2.818 . S
Gd776 O796 2.377 . S
Gd776 O798 2.448 . S
Gd776 O799 2.506 . S
Gd776 O800 2.435 . S
Gd776 O801 2.717 . S
Gd776 O803 2.395 . S
Gd776 O807 2.327 . S
Gd777 C788 2.818 . S
Gd777 O797 2.395 . S
Gd777 O801 2.327 . S
Gd777 O802 2.377 . S
Gd777 O804 2.448 . S
Gd777 O805 2.506 . S
Gd777 O806 2.435 . S
Gd777 O807 2.717 . S
C778 O796 1.240 . S
C778 O797 1.240 . S
C779 Gd776 2.818 . S
C779 C780 1.510 . S
C779 O798 1.249 . S
C779 O799 1.252 . S
C780 C779 1.510 . S
C780 C781 1.404 . S
C780 C782 1.352 . S
C781 C780 1.404 . S
C781 C785 1.389 . S
C781 H808 0.930 . S
C782 C780 1.352 . S
C782 C784 1.374 . S
C782 H809 0.931 . S
C783 C784 1.359 . S
C783 C785 1.364 . S
C784 C782 1.374 . S
C784 C783 1.359 . S
C784 H810 0.931 . S
C785 C781 1.389 . S
C785 C783 1.364 . S
C785 H811 0.931 . S
C786 O800 1.256 . S
C786 O801 1.257 . S
C787 O802 1.240 . S
C787 O803 1.240 . S
C788 Gd777 2.818 . S
C788 C789 1.510 . S
C788 O804 1.249 . S
C788 O805 1.252 . S
C789 C788 1.510 . S
C789 C790 1.404 . S
C789 C791 1.352 . S
C790 C789 1.404 . S
C790 C794 1.389 . S
C790 H812 0.930 . S
C791 C789 1.352 . S
C791 C793 1.374 . S
C791 H813 0.931 . S
C792 C793 1.359 . S
C792 C794 1.364 . S
C793 C791 1.374 . S
C793 C792 1.359 . S
C793 H814 0.931 . S
C794 C790 1.389 . S
C794 C792 1.364 . S
C794 H815 0.931 . S
C795 O806 1.256 . S
C795 O807 1.257 . S
O796 Gd776 2.377 . S
O796 C778 1.240 . S
O797 Gd777 2.395 . S
O797 C778 1.240 . S
O798 Gd776 2.448 . S
O798 C779 1.249 . S
O799 Gd776 2.506 . S
O799 C779 1.252 . S
O800 Gd776 2.435 . S
O800 C786 1.256 . S
O801 Gd776 2.717 . S
O801 Gd777 2.327 . S
O801 C786 1.257 . S
O802 Gd777 2.377 . S
O802 C787 1.240 . S
O803 Gd776 2.395 . S
O803 C787 1.240 . S
O804 Gd777 2.448 . S
O804 C788 1.249 . S
O805 Gd777 2.506 . S
O805 C788 1.252 . S
O806 Gd777 2.435 . S
O806 C795 1.256 . S
O807 Gd776 2.327 . S
O807 Gd777 2.717 . S
O807 C795 1.257 . S
H808 C781 0.930 . S
H809 C782 0.931 . S
H810 C784 0.931 . S
H811 C785 0.931 . S
H812 C790 0.930 . S
H813 C791 0.931 . S
H814 C793 0.931 . S
H815 C794 0.931 . S
Gd816 C819 2.818 . S
Gd816 O836 2.377 . S
Gd816 O838 2.448 . S
Gd816 O839 2.506 . S
Gd816 O840 2.435 . S
Gd816 O841 2.717 . S
Gd816 O843 2.395 . S
Gd816 O847 2.327 . S
Gd817 C828 2.818 . S
Gd817 O837 2.395 . S
Gd817 O841 2.327 . S
Gd817 O842 2.377 . S
Gd817 O844 2.448 . S
Gd817 O845 2.506 . S
Gd817 O846 2.435 . S
Gd817 O847 2.717 . S
C818 O836 1.240 . S
C818 O837 1.240 . S
C819 Gd816 2.818 . S
C819 C820 1.510 . S
C819 O838 1.249 . S
C819 O839 1.252 . S
C820 C819 1.510 . S
C820 C821 1.404 . S
C820 C822 1.352 . S
C821 C820 1.404 . S
C821 C825 1.389 . S
C821 H848 0.930 . S
C822 C820 1.352 . S
C822 C824 1.374 . S
C822 H849 0.931 . S
C823 C824 1.359 . S
C823 C825 1.364 . S
C824 C822 1.374 . S
C824 C823 1.359 . S
C824 H850 0.931 . S
C825 C821 1.389 . S
C825 C823 1.364 . S
C825 H851 0.931 . S
C826 O840 1.256 . S
C826 O841 1.257 . S
C827 O842 1.240 . S
C827 O843 1.240 . S
C828 Gd817 2.818 . S
C828 C829 1.510 . S
C828 O844 1.249 . S
C828 O845 1.252 . S
C829 C828 1.510 . S
C829 C830 1.404 . S
C829 C831 1.352 . S
C830 C829 1.404 . S
C830 C834 1.389 . S
C830 H852 0.930 . S
C831 C829 1.352 . S
C831 C833 1.374 . S
C831 H853 0.931 . S
C832 C833 1.359 . S
C832 C834 1.364 . S
C833 C831 1.374 . S
C833 C832 1.359 . S
C833 H854 0.931 . S
C834 C830 1.389 . S
C834 C832 1.364 . S
C834 H855 0.931 . S
C835 O846 1.256 . S
C835 O847 1.257 . S
O836 Gd816 2.377 . S
O836 C818 1.240 . S
O837 Gd817 2.395 . S
O837 C818 1.240 . S
O838 Gd816 2.448 . S
O838 C819 1.249 . S
O839 Gd816 2.506 . S
O839 C819 1.252 . S
O840 Gd816 2.435 . S
O840 C826 1.256 . S
O841 Gd816 2.717 . S
O841 Gd817 2.327 . S
O841 C826 1.257 . S
O842 Gd817 2.377 . S
O842 C827 1.240 . S
O843 Gd816 2.395 . S
O843 C827 1.240 . S
O844 Gd817 2.448 . S
O844 C828 1.249 . S
O845 Gd817 2.506 . S
O845 C828 1.252 . S
O846 Gd817 2.435 . S
O846 C835 1.256 . S
O847 Gd816 2.327 . S
O847 Gd817 2.717 . S
O847 C835 1.257 . S
H848 C821 0.930 . S
H849 C822 0.931 . S
H850 C824 0.931 . S
H851 C825 0.931 . S
H852 C830 0.930 . S
H853 C831 0.931 . S
H854 C833 0.931 . S
H855 C834 0.931 . S
Gd856 C859 2.818 . S
Gd856 O876 2.377 . S
Gd856 O878 2.448 . S
Gd856 O879 2.506 . S
Gd856 O880 2.435 . S
Gd856 O881 2.717 . S
Gd856 O883 2.395 . S
Gd856 O887 2.327 . S
Gd857 C868 2.818 . S
Gd857 O877 2.395 . S
Gd857 O881 2.327 . S
Gd857 O882 2.377 . S
Gd857 O884 2.448 . S
Gd857 O885 2.506 . S
Gd857 O886 2.435 . S
Gd857 O887 2.717 . S
C858 O876 1.240 . S
C858 O877 1.240 . S
C859 Gd856 2.818 . S
C859 C860 1.510 . S
C859 O878 1.249 . S
C859 O879 1.252 . S
C860 C859 1.510 . S
C860 C861 1.404 . S
C860 C862 1.352 . S
C861 C860 1.404 . S
C861 C865 1.389 . S
C861 H888 0.930 . S
C862 C860 1.352 . S
C862 C864 1.374 . S
C862 H889 0.931 . S
C863 C864 1.359 . S
C863 C865 1.364 . S
C864 C862 1.374 . S
C864 C863 1.359 . S
C864 H890 0.931 . S
C865 C861 1.389 . S
C865 C863 1.364 . S
C865 H891 0.931 . S
C866 O880 1.256 . S
C866 O881 1.257 . S
C867 O882 1.240 . S
C867 O883 1.240 . S
C868 Gd857 2.818 . S
C868 C869 1.510 . S
C868 O884 1.249 . S
C868 O885 1.252 . S
C869 C868 1.510 . S
C869 C870 1.404 . S
C869 C871 1.352 . S
C870 C869 1.404 . S
C870 C874 1.389 . S
C870 H892 0.930 . S
C871 C869 1.352 . S
C871 C873 1.374 . S
C871 H893 0.931 . S
C872 C873 1.359 . S
C872 C874 1.364 . S
C873 C871 1.374 . S
C873 C872 1.359 . S
C873 H894 0.931 . S
C874 C870 1.389 . S
C874 C872 1.364 . S
C874 H895 0.931 . S
C875 O886 1.256 . S
C875 O887 1.257 . S
O876 Gd856 2.377 . S
O876 C858 1.240 . S
O877 Gd857 2.395 . S
O877 C858 1.240 . S
O878 Gd856 2.448 . S
O878 C859 1.249 . S
O879 Gd856 2.506 . S
O879 C859 1.252 . S
O880 Gd856 2.435 . S
O880 C866 1.256 . S
O881 Gd856 2.717 . S
O881 Gd857 2.327 . S
O881 C866 1.257 . S
O882 Gd857 2.377 . S
O882 C867 1.240 . S
O883 Gd856 2.395 . S
O883 C867 1.240 . S
O884 Gd857 2.448 . S
O884 C868 1.249 . S
O885 Gd857 2.506 . S
O885 C868 1.252 . S
O886 Gd857 2.435 . S
O886 C875 1.256 . S
O887 Gd856 2.327 . S
O887 Gd857 2.717 . S
O887 C875 1.257 . S
H888 C861 0.930 . S
H889 C862 0.931 . S
H890 C864 0.931 . S
H891 C865 0.931 . S
H892 C870 0.930 . S
H893 C871 0.931 . S
H894 C873 0.931 . S
H895 C874 0.931 . S
Gd896 C899 2.818 . S
Gd896 O916 2.377 . S
Gd896 O918 2.448 . S
Gd896 O919 2.506 . S
Gd896 O920 2.435 . S
Gd896 O921 2.717 . S
Gd896 O923 2.395 . S
Gd896 O927 2.327 . S
Gd897 C908 2.818 . S
Gd897 O917 2.395 . S
Gd897 O921 2.327 . S
Gd897 O922 2.377 . S
Gd897 O924 2.448 . S
Gd897 O925 2.506 . S
Gd897 O926 2.435 . S
Gd897 O927 2.717 . S
C898 O916 1.240 . S
C898 O917 1.240 . S
C899 Gd896 2.818 . S
C899 C900 1.510 . S
C899 O918 1.249 . S
C899 O919 1.252 . S
C900 C899 1.510 . S
C900 C901 1.404 . S
C900 C902 1.352 . S
C901 C900 1.404 . S
C901 C905 1.389 . S
C901 H928 0.930 . S
C902 C900 1.352 . S
C902 C904 1.374 . S
C902 H929 0.931 . S
C903 C904 1.359 . S
C903 C905 1.364 . S
C904 C902 1.374 . S
C904 C903 1.359 . S
C904 H930 0.931 . S
C905 C901 1.389 . S
C905 C903 1.364 . S
C905 H931 0.931 . S
C906 O920 1.256 . S
C906 O921 1.257 . S
C907 O922 1.240 . S
C907 O923 1.240 . S
C908 Gd897 2.818 . S
C908 C909 1.510 . S
C908 O924 1.249 . S
C908 O925 1.252 . S
C909 C908 1.510 . S
C909 C910 1.404 . S
C909 C911 1.352 . S
C910 C909 1.404 . S
C910 C914 1.389 . S
C910 H932 0.930 . S
C911 C909 1.352 . S
C911 C913 1.374 . S
C911 H933 0.931 . S
C912 C913 1.359 . S
C912 C914 1.364 . S
C913 C911 1.374 . S
C913 C912 1.359 . S
C913 H934 0.931 . S
C914 C910 1.389 . S
C914 C912 1.364 . S
C914 H935 0.931 . S
C915 O926 1.256 . S
C915 O927 1.257 . S
O916 Gd896 2.377 . S
O916 C898 1.240 . S
O917 Gd897 2.395 . S
O917 C898 1.240 . S
O918 Gd896 2.448 . S
O918 C899 1.249 . S
O919 Gd896 2.506 . S
O919 C899 1.252 . S
O920 Gd896 2.435 . S
O920 C906 1.256 . S
O921 Gd896 2.717 . S
O921 Gd897 2.327 . S
O921 C906 1.257 . S
O922 Gd897 2.377 . S
O922 C907 1.240 . S
O923 Gd896 2.395 . S
O923 C907 1.240 . S
O924 Gd897 2.448 . S
O924 C908 1.249 . S
O925 Gd897 2.506 . S
O925 C908 1.252 . S
O926 Gd897 2.435 . S
O926 C915 1.256 . S
O927 Gd896 2.327 . S
O927 Gd897 2.717 . S
O927 C915 1.257 . S
H928 C901 0.930 . S
H929 C902 0.931 . S
H930 C904 0.931 . S
H931 C905 0.931 . S
H932 C910 0.930 . S
H933 C911 0.931 . S
H934 C913 0.931 . S
H935 C914 0.931 . S
Gd936 C939 2.818 . S
Gd936 O956 2.377 . S
Gd936 O958 2.448 . S
Gd936 O959 2.506 . S
Gd936 O960 2.435 1_554 S
Gd936 O961 2.717 . S
Gd936 O963 2.395 . S
Gd936 O967 2.327 . S
Gd937 C948 2.818 1_455 S
Gd937 O957 2.395 . S
Gd937 O961 2.327 . S
Gd937 O962 2.377 . S
Gd937 O964 2.448 . S
Gd937 O965 2.506 . S
Gd937 O966 2.435 . S
Gd937 O967 2.717 . S
C938 O956 1.240 . S
C938 O957 1.240 . S
C939 Gd936 2.818 . S
C939 C940 1.510 . S
C939 O958 1.249 . S
C939 O959 1.252 . S
C940 C939 1.510 . S
C940 C941 1.424 . S
C940 C942 1.352 . S
C941 C940 1.424 . S
C941 C945 1.387 1_554 S
C941 H968 0.913 1_554 S
C942 C940 1.352 . S
C942 C944 1.374 . S
C942 H969 0.931 . S
C943 C944 1.359 . S
C943 C945 1.364 1_554 S
C944 C942 1.374 . S
C944 C943 1.359 . S
C944 H970 0.931 . S
C945 C941 1.387 1_556 S
C945 C943 1.364 1_556 S
C945 H971 0.931 . S
C946 O960 1.273 . S
C946 O961 1.210 1_556 S
C947 O962 1.240 . S
C947 O963 1.240 . S
C948 Gd937 2.818 1_655 S
C948 C949 1.510 . S
C948 O964 1.249 1_655 S
C948 O965 1.252 1_655 S
C949 C948 1.510 . S
C949 C950 1.404 . S
C949 C951 1.352 . S
C950 C949 1.404 . S
C950 C954 1.389 . S
C950 H972 0.930 . S
C951 C949 1.352 . S
C951 C953 1.374 . S
C951 H973 0.931 . S
C952 C953 1.359 . S
C952 C954 1.364 . S
C953 C951 1.374 . S
C953 C952 1.359 . S
C953 H974 0.931 . S
C954 C950 1.389 . S
C954 C952 1.364 . S
C954 H975 0.931 . S
C955 O966 1.256 . S
C955 O967 1.257 . S
O956 Gd936 2.377 . S
O956 C938 1.240 . S
O957 Gd937 2.395 . S
O957 C938 1.240 . S
O958 Gd936 2.448 . S
O958 C939 1.249 . S
O959 Gd936 2.506 . S
O959 C939 1.252 . S
O960 Gd936 2.435 1_556 S
O960 C946 1.273 . S
O961 Gd936 2.717 . S
O961 Gd937 2.327 . S
O961 C946 1.210 1_554 S
O962 Gd937 2.377 . S
O962 C947 1.240 . S
O963 Gd936 2.395 . S
O963 C947 1.240 . S
O964 Gd937 2.448 . S
O964 C948 1.249 1_455 S
O965 Gd937 2.506 . S
O965 C948 1.252 1_455 S
O966 Gd937 2.435 . S
O966 C955 1.256 . S
O967 Gd936 2.327 . S
O967 Gd937 2.717 . S
O967 C955 1.257 . S
H968 C941 0.913 1_556 S
H969 C942 0.931 . S
H970 C944 0.931 . S
H971 C945 0.931 . S
H972 C950 0.930 . S
H973 C951 0.931 . S
H974 C953 0.931 . S
H975 C954 0.931 . S
H976 C984 0.950 . S
H977 C989 0.950 1_655 S
H978 C986 0.950 . S
H979 C988 0.950 . S
H980 C990 0.950 . S
H981 C992 0.950 . S
H982 C994 0.950 . S
H983 C995 0.950 . S
C984 H976 0.950 . S
C984 C985 1.386 . S
C984 C986 1.391 . S
C985 C984 1.386 . S
C985 C989 1.393 . S
C986 H978 0.950 . S
C986 C984 1.391 . S
C986 C987 1.400 . S
C987 C986 1.400 . S
C987 C988 1.398 . S
C987 C993 1.491 . S
C988 H979 0.950 . S
C988 C987 1.398 . S
C988 C989 1.391 . S
C989 H977 0.950 1_455 S
C989 C985 1.393 . S
C989 C988 1.391 . S
C990 H980 0.950 . S
C990 C991 1.395 . S
C990 C992 1.391 1_554 S
C991 C990 1.395 . S
C991 C995 1.353 1_554 S
C992 H981 0.950 . S
C992 C990 1.391 1_556 S
C992 C993 1.400 . S
C993 C987 1.491 . S
C993 C992 1.400 . S
C993 C994 1.398 . S
C994 H982 0.950 . S
C994 C993 1.398 . S
C994 C995 1.391 . S
C995 H983 0.950 . S
C995 C991 1.353 1_556 S
C995 C994 1.391 . S
H996 C1004 0.950 . S
H997 C1009 0.950 . S
H998 C1006 0.950 . S
H999 C1008 0.950 . S
H1000 C1010 0.950 . S
H1001 C1012 0.950 . S
H1002 C1014 0.950 . S
H1003 C1015 0.950 . S
C1004 H996 0.950 . S
C1004 C1005 1.386 . S
C1004 C1006 1.391 . S
C1005 C1004 1.386 . S
C1005 C1009 1.393 . S
C1006 H998 0.950 . S
C1006 C1004 1.391 . S
C1006 C1007 1.400 . S
C1007 C1006 1.400 . S
C1007 C1008 1.398 . S
C1007 C1013 1.491 . S
C1008 H999 0.950 . S
C1008 C1007 1.398 . S
C1008 C1009 1.391 . S
C1009 H997 0.950 . S
C1009 C1005 1.393 . S
C1009 C1008 1.391 . S
C1010 H1000 0.950 . S
C1010 C1011 1.386 . S
C1010 C1012 1.391 . S
C1011 C1010 1.386 . S
C1011 C1015 1.393 . S
C1012 H1001 0.950 . S
C1012 C1010 1.391 . S
C1012 C1013 1.400 . S
C1013 C1007 1.491 . S
C1013 C1012 1.400 . S
C1013 C1014 1.398 . S
C1014 H1002 0.950 . S
C1014 C1013 1.398 . S
C1014 C1015 1.391 . S
C1015 H1003 0.950 . S
C1015 C1011 1.393 . S
C1015 C1014 1.391 . S
H1016 C1024 0.950 . S
H1017 C1029 0.950 . S
H1018 C1026 0.950 . S
H1019 C1028 0.950 . S
H1020 C1030 0.950 . S
H1021 C1032 0.950 . S
H1022 C1034 0.950 . S
H1023 C1035 0.950 . S
C1024 H1016 0.950 . S
C1024 C1025 1.386 . S
C1024 C1026 1.391 . S
C1025 C1024 1.386 . S
C1025 C1029 1.393 . S
C1026 H1018 0.950 . S
C1026 C1024 1.391 . S
C1026 C1027 1.400 . S
C1027 C1026 1.400 . S
C1027 C1028 1.398 . S
C1027 C1033 1.491 . S
C1028 H1019 0.950 . S
C1028 C1027 1.398 . S
C1028 C1029 1.391 . S
C1029 H1017 0.950 . S
C1029 C1025 1.393 . S
C1029 C1028 1.391 . S
C1030 H1020 0.950 . S
C1030 C1031 1.386 . S
C1030 C1032 1.391 . S
C1031 C1030 1.386 . S
C1031 C1035 1.393 . S
C1032 H1021 0.950 . S
C1032 C1030 1.391 . S
C1032 C1033 1.400 . S
C1033 C1027 1.491 . S
C1033 C1032 1.400 . S
C1033 C1034 1.398 . S
C1034 H1022 0.950 . S
C1034 C1033 1.398 . S
C1034 C1035 1.391 . S
C1035 H1023 0.950 . S
C1035 C1031 1.393 . S
C1035 C1034 1.391 . S
H1036 C1044 0.950 . S
H1037 C1049 0.950 . S
H1038 C1046 0.950 . S
H1039 C1048 0.950 . S
H1040 C1050 0.950 . S
H1041 C1052 0.950 . S
H1042 C1054 0.950 . S
H1043 C1055 0.950 . S
C1044 H1036 0.950 . S
C1044 C1045 1.386 . S
C1044 C1046 1.391 . S
C1045 C1044 1.386 . S
C1045 C1049 1.393 . S
C1046 H1038 0.950 . S
C1046 C1044 1.391 . S
C1046 C1047 1.400 . S
C1047 C1046 1.400 . S
C1047 C1048 1.398 . S
C1047 C1053 1.491 . S
C1048 H1039 0.950 . S
C1048 C1047 1.398 . S
C1048 C1049 1.391 . S
C1049 H1037 0.950 . S
C1049 C1045 1.393 . S
C1049 C1048 1.391 . S
C1050 H1040 0.950 . S
C1050 C1051 1.386 . S
C1050 C1052 1.391 . S
C1051 C1050 1.386 . S
C1051 C1055 1.393 . S
C1052 H1041 0.950 . S
C1052 C1050 1.391 . S
C1052 C1053 1.400 . S
C1053 C1047 1.491 . S
C1053 C1052 1.400 . S
C1053 C1054 1.398 . S
C1054 H1042 0.950 . S
C1054 C1053 1.398 . S
C1054 C1055 1.391 . S
C1055 H1043 0.950 . S
C1055 C1051 1.393 . S
C1055 C1054 1.391 . S
H1056 C1064 0.950 . S
H1057 C1069 0.950 1_655 S
H1058 C1066 0.950 . S
H1059 C1068 0.950 . S
H1060 C1070 0.950 . S
H1061 C1072 0.950 . S
H1062 C1074 0.950 . S
H1063 C1075 0.950 . S
C1064 H1056 0.950 . S
C1064 C1065 1.386 . S
C1064 C1066 1.391 . S
C1065 C1064 1.386 . S
C1065 C1069 1.393 . S
C1066 H1058 0.950 . S
C1066 C1064 1.391 . S
C1066 C1067 1.400 . S
C1067 C1066 1.400 . S
C1067 C1068 1.398 . S
C1067 C1073 1.491 . S
C1068 H1059 0.950 . S
C1068 C1067 1.398 . S
C1068 C1069 1.391 . S
C1069 H1057 0.950 1_455 S
C1069 C1065 1.393 . S
C1069 C1068 1.391 . S
C1070 H1060 0.950 . S
C1070 C1071 1.386 . S
C1070 C1072 1.391 . S
C1071 C1070 1.386 . S
C1071 C1075 1.393 . S
C1072 H1061 0.950 . S
C1072 C1070 1.391 . S
C1072 C1073 1.400 . S
C1073 C1067 1.491 . S
C1073 C1072 1.400 . S
C1073 C1074 1.398 . S
C1074 H1062 0.950 . S
C1074 C1073 1.398 . S
C1074 C1075 1.391 . S
C1075 H1063 0.950 . S
C1075 C1071 1.393 . S
C1075 C1074 1.391 . S
H1076 C1084 0.950 . S
H1077 C1089 0.950 . S
H1078 C1086 0.950 . S
H1079 C1088 0.950 . S
H1080 C1090 0.950 . S
H1081 C1092 0.950 . S
H1082 C1094 0.950 . S
H1083 C1095 0.950 . S
C1084 H1076 0.950 . S
C1084 C1085 1.386 . S
C1084 C1086 1.391 . S
C1085 C1084 1.386 . S
C1085 C1089 1.393 . S
C1086 H1078 0.950 . S
C1086 C1084 1.391 . S
C1086 C1087 1.400 . S
C1087 C1086 1.400 . S
C1087 C1088 1.398 . S
C1087 C1093 1.491 . S
C1088 H1079 0.950 . S
C1088 C1087 1.398 . S
C1088 C1089 1.391 . S
C1089 H1077 0.950 . S
C1089 C1085 1.393 . S
C1089 C1088 1.391 . S
C1090 H1080 0.950 . S
C1090 C1091 1.386 . S
C1090 C1092 1.391 . S
C1091 C1090 1.386 . S
C1091 C1095 1.393 . S
C1092 H1081 0.950 . S
C1092 C1090 1.391 . S
C1092 C1093 1.400 . S
C1093 C1087 1.491 . S
C1093 C1092 1.400 . S
C1093 C1094 1.398 . S
C1094 H1082 0.950 . S
C1094 C1093 1.398 . S
C1094 C1095 1.391 . S
C1095 H1083 0.950 . S
C1095 C1091 1.393 . S
C1095 C1094 1.391 . S
H1096 C1104 0.950 . S
H1097 C1109 0.950 . S
H1098 C1106 0.950 . S
H1099 C1108 0.950 . S
H1100 C1110 0.950 . S
H1101 C1112 0.950 . S
H1102 C1114 0.950 . S
H1103 C1115 0.950 . S
C1104 H1096 0.950 . S
C1104 C1105 1.386 . S
C1104 C1106 1.391 . S
C1105 C1104 1.386 . S
C1105 C1109 1.393 . S
C1106 H1098 0.950 . S
C1106 C1104 1.391 . S
C1106 C1107 1.400 . S
C1107 C1106 1.400 . S
C1107 C1108 1.398 . S
C1107 C1113 1.491 . S
C1108 H1099 0.950 . S
C1108 C1107 1.398 . S
C1108 C1109 1.391 . S
C1109 H1097 0.950 . S
C1109 C1105 1.393 . S
C1109 C1108 1.391 . S
C1110 H1100 0.950 . S
C1110 C1111 1.386 . S
C1110 C1112 1.391 . S
C1111 C1110 1.386 . S
C1111 C1115 1.393 . S
C1112 H1101 0.950 . S
C1112 C1110 1.391 . S
C1112 C1113 1.400 . S
C1113 C1107 1.491 . S
C1113 C1112 1.400 . S
C1113 C1114 1.398 . S
C1114 H1102 0.950 . S
C1114 C1113 1.398 . S
C1114 C1115 1.391 . S
C1115 H1103 0.950 . S
C1115 C1111 1.393 . S
C1115 C1114 1.391 . S
H1116 C1124 0.950 . S
H1117 C1129 0.950 . S
H1118 C1126 0.950 . S
H1119 C1128 0.950 . S
H1120 C1130 0.950 . S
H1121 C1132 0.950 . S
H1122 C1134 0.950 . S
H1123 C1135 0.950 . S
C1124 H1116 0.950 . S
C1124 C1125 1.386 . S
C1124 C1126 1.391 . S
C1125 C1124 1.386 . S
C1125 C1129 1.393 . S
C1126 H1118 0.950 . S
C1126 C1124 1.391 . S
C1126 C1127 1.400 . S
C1127 C1126 1.400 . S
C1127 C1128 1.398 . S
C1127 C1133 1.491 . S
C1128 H1119 0.950 . S
C1128 C1127 1.398 . S
C1128 C1129 1.391 . S
C1129 H1117 0.950 . S
C1129 C1125 1.393 . S
C1129 C1128 1.391 . S
C1130 H1120 0.950 . S
C1130 C1131 1.386 . S
C1130 C1132 1.391 . S
C1131 C1130 1.386 . S
C1131 C1135 1.393 . S
C1132 H1121 0.950 . S
C1132 C1130 1.391 . S
C1132 C1133 1.400 . S
C1133 C1127 1.491 . S
C1133 C1132 1.400 . S
C1133 C1134 1.398 . S
C1134 H1122 0.950 . S
C1134 C1133 1.398 . S
C1134 C1135 1.391 . S
C1135 H1123 0.950 . S
C1135 C1131 1.393 . S
C1135 C1134 1.391 . S
H1136 C1144 0.948 . S
H1137 C1149 0.950 . S
H1138 C1146 0.950 . S
H1139 C1148 0.950 . S
H1140 C1150 0.950 . S
H1141 C1152 0.959 . S
H1142 C1154 0.950 . S
H1143 C1155 0.950 . S
C1144 H1136 0.948 . S
C1144 C1145 1.386 . S
C1144 C1146 1.391 1_655 S
C1145 C1144 1.386 . S
C1145 C1149 1.393 . S
C1146 H1138 0.950 . S
C1146 C1144 1.391 1_455 S
C1146 C1147 1.400 1_455 S
C1147 C1146 1.400 1_655 S
C1147 C1148 1.398 . S
C1147 C1153 1.491 1_655 S
C1148 H1139 0.950 . S
C1148 C1147 1.398 . S
C1148 C1149 1.391 . S
C1149 H1137 0.950 . S
C1149 C1145 1.393 . S
C1149 C1148 1.391 . S
C1150 H1140 0.950 . S
C1150 C1151 1.386 . S
C1150 C1152 1.385 1_455 S
C1151 C1150 1.386 . S
C1151 C1155 1.393 . S
C1152 H1141 0.959 . S
C1152 C1150 1.385 1_655 S
C1152 C1153 1.397 1_655 S
C1153 C1147 1.491 1_455 S
C1153 C1152 1.397 1_455 S
C1153 C1154 1.398 . S
C1154 H1142 0.950 . S
C1154 C1153 1.398 . S
C1154 C1155 1.391 . S
C1155 H1143 0.950 . S
C1155 C1151 1.393 . S
C1155 C1154 1.391 . S
H1156 C1164 0.950 . S
H1157 C1169 0.950 . S
H1158 C1166 0.950 . S
H1159 C1168 0.950 . S
H1160 C1170 0.950 . S
H1161 C1172 0.950 . S
H1162 C1174 0.950 . S
H1163 C1175 0.950 . S
C1164 H1156 0.950 . S
C1164 C1165 1.386 . S
C1164 C1166 1.391 . S
C1165 C1164 1.386 . S
C1165 C1169 1.393 . S
C1166 H1158 0.950 . S
C1166 C1164 1.391 . S
C1166 C1167 1.400 . S
C1167 C1166 1.400 . S
C1167 C1168 1.398 . S
C1167 C1173 1.491 . S
C1168 H1159 0.950 . S
C1168 C1167 1.398 . S
C1168 C1169 1.391 . S
C1169 H1157 0.950 . S
C1169 C1165 1.393 . S
C1169 C1168 1.391 . S
C1170 H1160 0.950 . S
C1170 C1171 1.386 . S
C1170 C1172 1.391 . S
C1171 C1170 1.386 . S
C1171 C1175 1.393 . S
C1172 H1161 0.950 . S
C1172 C1170 1.391 . S
C1172 C1173 1.400 . S
C1173 C1167 1.491 . S
C1173 C1172 1.400 . S
C1173 C1174 1.398 . S
C1174 H1162 0.950 . S
C1174 C1173 1.398 . S
C1174 C1175 1.391 . S
C1175 H1163 0.950 . S
C1175 C1171 1.393 . S
C1175 C1174 1.391 . S
H1176 C1184 0.950 . S
H1177 C1189 0.950 . S
H1178 C1186 0.950 . S
H1179 C1188 0.950 . S
H1180 C1190 0.950 . S
H1181 C1192 0.950 . S
H1182 C1194 0.950 . S
H1183 C1195 0.950 . S
C1184 H1176 0.950 . S
C1184 C1185 1.386 . S
C1184 C1186 1.391 . S
C1185 C1184 1.386 . S
C1185 C1189 1.393 . S
C1186 H1178 0.950 . S
C1186 C1184 1.391 . S
C1186 C1187 1.400 . S
C1187 C1186 1.400 . S
C1187 C1188 1.398 . S
C1187 C1193 1.491 . S
C1188 H1179 0.950 . S
C1188 C1187 1.398 . S
C1188 C1189 1.391 . S
C1189 H1177 0.950 . S
C1189 C1185 1.393 . S
C1189 C1188 1.391 . S
C1190 H1180 0.950 . S
C1190 C1191 1.386 . S
C1190 C1192 1.391 . S
C1191 C1190 1.386 . S
C1191 C1195 1.393 . S
C1192 H1181 0.950 . S
C1192 C1190 1.391 . S
C1192 C1193 1.400 . S
C1193 C1187 1.491 . S
C1193 C1192 1.400 . S
C1193 C1194 1.398 . S
C1194 H1182 0.950 . S
C1194 C1193 1.398 . S
C1194 C1195 1.391 . S
C1195 H1183 0.950 . S
C1195 C1191 1.393 . S
C1195 C1194 1.391 . S
H1196 C1204 0.950 . S
H1197 C1209 0.950 . S
H1198 C1206 0.950 . S
H1199 C1208 0.950 . S
H1200 C1210 0.950 . S
H1201 C1212 0.950 . S
H1202 C1214 0.950 . S
H1203 C1215 0.950 . S
C1204 H1196 0.950 . S
C1204 C1205 1.386 . S
C1204 C1206 1.391 . S
C1205 C1204 1.386 . S
C1205 C1209 1.393 . S
C1206 H1198 0.950 . S
C1206 C1204 1.391 . S
C1206 C1207 1.400 . S
C1207 C1206 1.400 . S
C1207 C1208 1.398 . S
C1207 C1213 1.491 . S
C1208 H1199 0.950 . S
C1208 C1207 1.398 . S
C1208 C1209 1.391 . S
C1209 H1197 0.950 . S
C1209 C1205 1.393 . S
C1209 C1208 1.391 . S
C1210 H1200 0.950 . S
C1210 C1211 1.386 . S
C1210 C1212 1.391 . S
C1211 C1210 1.386 . S
C1211 C1215 1.393 . S
C1212 H1201 0.950 . S
C1212 C1210 1.391 . S
C1212 C1213 1.400 . S
C1213 C1207 1.491 . S
C1213 C1212 1.400 . S
C1213 C1214 1.398 . S
C1214 H1202 0.950 . S
C1214 C1213 1.398 . S
C1214 C1215 1.391 . S
C1215 H1203 0.950 . S
C1215 C1211 1.393 . S
C1215 C1214 1.391 . S
H1216 C1224 0.950 . S
H1217 C1229 0.950 . S
H1218 C1226 0.953 . S
H1219 C1228 0.950 . S
H1220 C1230 0.950 . S
H1221 C1232 0.950 . S
H1222 C1234 0.950 . S
H1223 C1235 0.950 . S
C1224 H1216 0.950 . S
C1224 C1225 1.386 . S
C1224 C1226 1.374 1_655 S
C1225 C1224 1.386 . S
C1225 C1229 1.393 . S
C1226 H1218 0.953 . S
C1226 C1224 1.374 1_455 S
C1226 C1227 1.416 . S
C1227 C1226 1.416 . S
C1227 C1228 1.398 1_455 S
C1227 C1233 1.491 . S
C1228 H1219 0.950 . S
C1228 C1227 1.398 1_655 S
C1228 C1229 1.391 . S
C1229 H1217 0.950 . S
C1229 C1225 1.393 . S
C1229 C1228 1.391 . S
C1230 H1220 0.950 . S
C1230 C1231 1.386 . S
C1230 C1232 1.391 . S
C1231 C1230 1.386 . S
C1231 C1235 1.393 . S
C1232 H1221 0.950 . S
C1232 C1230 1.391 . S
C1232 C1233 1.400 . S
C1233 C1227 1.491 . S
C1233 C1232 1.400 . S
C1233 C1234 1.398 . S
C1234 H1222 0.950 . S
C1234 C1233 1.398 . S
C1234 C1235 1.391 . S
C1235 H1223 0.950 . S
C1235 C1231 1.393 . S
C1235 C1234 1.391 . S
H1236 C1244 0.950 . S
H1237 C1249 0.950 . S
H1238 C1246 0.950 . S
H1239 C1248 0.950 . S
H1240 C1250 0.950 . S
H1241 C1252 0.950 . S
H1242 C1254 0.950 . S
H1243 C1255 0.950 . S
C1244 H1236 0.950 . S
C1244 C1245 1.386 . S
C1244 C1246 1.391 . S
C1245 C1244 1.386 . S
C1245 C1249 1.393 . S
C1246 H1238 0.950 . S
C1246 C1244 1.391 . S
C1246 C1247 1.400 . S
C1247 C1246 1.400 . S
C1247 C1248 1.398 . S
C1247 C1253 1.491 . S
C1248 H1239 0.950 . S
C1248 C1247 1.398 . S
C1248 C1249 1.391 . S
C1249 H1237 0.950 . S
C1249 C1245 1.393 . S
C1249 C1248 1.391 . S
C1250 H1240 0.950 . S
C1250 C1251 1.386 . S
C1250 C1252 1.391 . S
C1251 C1250 1.386 . S
C1251 C1255 1.393 . S
C1252 H1241 0.950 . S
C1252 C1250 1.391 . S
C1252 C1253 1.400 . S
C1253 C1247 1.491 . S
C1253 C1252 1.400 . S
C1253 C1254 1.398 . S
C1254 H1242 0.950 . S
C1254 C1253 1.398 . S
C1254 C1255 1.391 . S
C1255 H1243 0.950 . S
C1255 C1251 1.393 . S
C1255 C1254 1.391 . S
H1256 C1264 0.950 . S
H1257 C1269 0.950 . S
H1258 C1266 0.950 . S
H1259 C1268 0.950 . S
H1260 C1270 0.950 . S
H1261 C1272 0.950 . S
H1262 C1274 0.950 . S
H1263 C1275 0.950 . S
C1264 H1256 0.950 . S
C1264 C1265 1.386 . S
C1264 C1266 1.391 . S
C1265 C1264 1.386 . S
C1265 C1269 1.393 . S
C1266 H1258 0.950 . S
C1266 C1264 1.391 . S
C1266 C1267 1.400 . S
C1267 C1266 1.400 . S
C1267 C1268 1.398 . S
C1267 C1273 1.491 . S
C1268 H1259 0.950 . S
C1268 C1267 1.398 . S
C1268 C1269 1.391 . S
C1269 H1257 0.950 . S
C1269 C1265 1.393 . S
C1269 C1268 1.391 . S
C1270 H1260 0.950 . S
C1270 C1271 1.386 . S
C1270 C1272 1.391 . S
C1271 C1270 1.386 . S
C1271 C1275 1.393 . S
C1272 H1261 0.950 . S
C1272 C1270 1.391 . S
C1272 C1273 1.400 . S
C1273 C1267 1.491 . S
C1273 C1272 1.400 . S
C1273 C1274 1.398 . S
C1274 H1262 0.950 . S
C1274 C1273 1.398 . S
C1274 C1275 1.391 . S
C1275 H1263 0.950 . S
C1275 C1271 1.393 . S
C1275 C1274 1.391 . S
H1276 C1284 0.950 . S
H1277 C1289 0.950 . S
H1278 C1286 0.950 . S
H1279 C1288 0.950 . S
H1280 C1290 0.950 . S
H1281 C1292 0.950 . S
H1282 C1294 0.950 . S
H1283 C1295 0.950 . S
C1284 H1276 0.950 . S
C1284 C1285 1.386 . S
C1284 C1286 1.391 . S
C1285 C1284 1.386 . S
C1285 C1289 1.393 . S
C1286 H1278 0.950 . S
C1286 C1284 1.391 . S
C1286 C1287 1.400 . S
C1287 C1286 1.400 . S
C1287 C1288 1.398 . S
C1287 C1293 1.491 . S
C1288 H1279 0.950 . S
C1288 C1287 1.398 . S
C1288 C1289 1.391 . S
C1289 H1277 0.950 . S
C1289 C1285 1.393 . S
C1289 C1288 1.391 . S
C1290 H1280 0.950 . S
C1290 C1291 1.386 . S
C1290 C1292 1.391 . S
C1291 C1290 1.386 . S
C1291 C1295 1.393 . S
C1292 H1281 0.950 . S
C1292 C1290 1.391 . S
C1292 C1293 1.400 . S
C1293 C1287 1.491 . S
C1293 C1292 1.400 . S
C1293 C1294 1.398 . S
C1294 H1282 0.950 . S
C1294 C1293 1.398 . S
C1294 C1295 1.391 . S
C1295 H1283 0.950 . S
C1295 C1291 1.393 . S
C1295 C1294 1.391 . S
H1296 C1304 0.950 1_556 S
H1297 C1309 0.950 . S
H1298 C1306 0.950 . S
H1299 C1308 0.950 . S
H1300 C1310 0.950 . S
H1301 C1312 0.950 . S
H1302 C1314 0.950 . S
H1303 C1315 0.950 . S
C1304 H1296 0.950 1_554 S
C1304 C1305 1.386 . S
C1304 C1306 1.391 . S
C1305 C1304 1.386 . S
C1305 C1309 1.393 . S
C1306 H1298 0.950 . S
C1306 C1304 1.391 . S
C1306 C1307 1.400 . S
C1307 C1306 1.400 . S
C1307 C1308 1.398 . S
C1307 C1313 1.491 . S
C1308 H1299 0.950 . S
C1308 C1307 1.398 . S
C1308 C1309 1.391 . S
C1309 H1297 0.950 . S
C1309 C1305 1.393 . S
C1309 C1308 1.391 . S
C1310 H1300 0.950 . S
C1310 C1311 1.386 . S
C1310 C1312 1.391 . S
C1311 C1310 1.386 . S
C1311 C1315 1.393 1_545 S
C1312 H1301 0.950 . S
C1312 C1310 1.391 . S
C1312 C1313 1.400 1_545 S
C1313 C1307 1.491 . S
C1313 C1312 1.400 1_565 S
C1313 C1314 1.398 . S
C1314 H1302 0.950 . S
C1314 C1313 1.398 . S
C1314 C1315 1.391 . S
C1315 H1303 0.950 . S
C1315 C1311 1.393 1_565 S
C1315 C1314 1.391 . S
H1316 C1324 0.950 . S
H1317 C1329 0.950 . S
H1318 C1326 0.950 . S
H1319 C1328 0.950 . S
H1320 C1330 0.950 . S
H1321 C1332 0.950 . S
H1322 C1334 0.950 . S
H1323 C1335 0.950 . S
C1324 H1316 0.950 . S
C1324 C1325 1.386 1_556 S
C1324 C1326 1.391 . S
C1325 C1324 1.386 1_554 S
C1325 C1329 1.393 . S
C1326 H1318 0.950 . S
C1326 C1324 1.391 . S
C1326 C1327 1.400 1_556 S
C1327 C1326 1.400 1_554 S
C1327 C1328 1.398 . S
C1327 C1333 1.491 . S
C1328 H1319 0.950 . S
C1328 C1327 1.398 . S
C1328 C1329 1.391 . S
C1329 H1317 0.950 . S
C1329 C1325 1.393 . S
C1329 C1328 1.391 . S
C1330 H1320 0.950 . S
C1330 C1331 1.386 . S
C1330 C1332 1.391 . S
C1331 C1330 1.386 . S
C1331 C1335 1.393 1_554 S
C1332 H1321 0.950 . S
C1332 C1330 1.391 . S
C1332 C1333 1.400 . S
C1333 C1327 1.491 . S
C1333 C1332 1.400 . S
C1333 C1334 1.398 1_554 S
C1334 H1322 0.950 . S
C1334 C1333 1.398 1_556 S
C1334 C1335 1.391 . S
C1335 H1323 0.950 . S
C1335 C1331 1.393 1_556 S
C1335 C1334 1.391 . S
H1336 C1344 0.950 . S
H1337 C1349 0.950 . S
H1338 C1346 0.950 . S
H1339 C1348 0.950 . S
H1340 C1350 0.950 . S
H1341 C1352 0.950 . S
H1342 C1354 0.950 . S
H1343 C1355 0.950 . S
C1344 H1336 0.950 . S
C1344 C1345 1.386 . S
C1344 C1346 1.391 . S
C1345 C1344 1.386 . S
C1345 C1349 1.393 . S
C1346 H1338 0.950 . S
C1346 C1344 1.391 . S
C1346 C1347 1.400 . S
C1347 C1346 1.400 . S
C1347 C1348 1.398 . S
C1347 C1353 1.491 . S
C1348 H1339 0.950 . S
C1348 C1347 1.398 . S
C1348 C1349 1.391 . S
C1349 H1337 0.950 . S
C1349 C1345 1.393 . S
C1349 C1348 1.391 . S
C1350 H1340 0.950 . S
C1350 C1351 1.386 . S
C1350 C1352 1.391 . S
C1351 C1350 1.386 . S
C1351 C1355 1.393 . S
C1352 H1341 0.950 . S
C1352 C1350 1.391 . S
C1352 C1353 1.400 . S
C1353 C1347 1.491 . S
C1353 C1352 1.400 . S
C1353 C1354 1.398 . S
C1354 H1342 0.950 . S
C1354 C1353 1.398 . S
C1354 C1355 1.391 . S
C1355 H1343 0.950 . S
C1355 C1351 1.393 . S
C1355 C1354 1.391 . S
H1356 C1364 0.950 . S
H1357 C1369 0.950 . S
H1358 C1366 0.950 . S
H1359 C1368 0.950 . S
H1360 C1370 0.950 . S
H1361 C1372 0.950 . S
H1362 C1374 0.950 . S
H1363 C1375 0.950 . S
C1364 H1356 0.950 . S
C1364 C1365 1.386 . S
C1364 C1366 1.391 . S
C1365 C1364 1.386 . S
C1365 C1369 1.393 . S
C1366 H1358 0.950 . S
C1366 C1364 1.391 . S
C1366 C1367 1.400 . S
C1367 C1366 1.400 . S
C1367 C1368 1.398 . S
C1367 C1373 1.491 . S
C1368 H1359 0.950 . S
C1368 C1367 1.398 . S
C1368 C1369 1.391 . S
C1369 H1357 0.950 . S
C1369 C1365 1.393 . S
C1369 C1368 1.391 . S
C1370 H1360 0.950 . S
C1370 C1371 1.386 . S
C1370 C1372 1.391 . S
C1371 C1370 1.386 . S
C1371 C1375 1.393 . S
C1372 H1361 0.950 . S
C1372 C1370 1.391 . S
C1372 C1373 1.400 . S
C1373 C1367 1.491 . S
C1373 C1372 1.400 . S
C1373 C1374 1.398 . S
C1374 H1362 0.950 . S
C1374 C1373 1.398 . S
C1374 C1375 1.391 . S
C1375 H1363 0.950 . S
C1375 C1371 1.393 . S
C1375 C1374 1.391 . S
H1376 C1384 0.950 . S
H1377 C1389 0.950 . S
H1378 C1386 0.950 . S
H1379 C1388 0.950 . S
H1380 C1390 0.950 . S
H1381 C1392 0.950 . S
H1382 C1394 0.950 . S
H1383 C1395 0.950 . S
C1384 H1376 0.950 . S
C1384 C1385 1.386 . S
C1384 C1386 1.391 . S
C1385 C1384 1.386 . S
C1385 C1389 1.393 . S
C1386 H1378 0.950 . S
C1386 C1384 1.391 . S
C1386 C1387 1.400 . S
C1387 C1386 1.400 . S
C1387 C1388 1.398 . S
C1387 C1393 1.491 . S
C1388 H1379 0.950 . S
C1388 C1387 1.398 . S
C1388 C1389 1.391 . S
C1389 H1377 0.950 . S
C1389 C1385 1.393 . S
C1389 C1388 1.391 . S
C1390 H1380 0.950 . S
C1390 C1391 1.386 . S
C1390 C1392 1.391 . S
C1391 C1390 1.386 . S
C1391 C1395 1.393 . S
C1392 H1381 0.950 . S
C1392 C1390 1.391 . S
C1392 C1393 1.400 . S
C1393 C1387 1.491 . S
C1393 C1392 1.400 . S
C1393 C1394 1.398 . S
C1394 H1382 0.950 . S
C1394 C1393 1.398 . S
C1394 C1395 1.391 . S
C1395 H1383 0.950 . S
C1395 C1391 1.393 . S
C1395 C1394 1.391 . S
H1396 C1404 0.950 . S
H1397 C1409 0.950 . S
H1398 C1406 0.950 . S
H1399 C1408 0.950 . S
H1400 C1410 0.950 . S
H1401 C1412 0.950 . S
H1402 C1414 0.950 . S
H1403 C1415 0.950 . S
C1404 H1396 0.950 . S
C1404 C1405 1.386 . S
C1404 C1406 1.391 . S
C1405 C1404 1.386 . S
C1405 C1409 1.393 . S
C1406 H1398 0.950 . S
C1406 C1404 1.391 . S
C1406 C1407 1.400 . S
C1407 C1406 1.400 . S
C1407 C1408 1.398 . S
C1407 C1413 1.491 . S
C1408 H1399 0.950 . S
C1408 C1407 1.398 . S
C1408 C1409 1.391 . S
C1409 H1397 0.950 . S
C1409 C1405 1.393 . S
C1409 C1408 1.391 . S
C1410 H1400 0.950 . S
C1410 C1411 1.386 . S
C1410 C1412 1.391 . S
C1411 C1410 1.386 . S
C1411 C1415 1.393 . S
C1412 H1401 0.950 . S
C1412 C1410 1.391 . S
C1412 C1413 1.400 . S
C1413 C1407 1.491 . S
C1413 C1412 1.400 . S
C1413 C1414 1.398 . S
C1414 H1402 0.950 . S
C1414 C1413 1.398 . S
C1414 C1415 1.391 . S
C1415 H1403 0.950 . S
C1415 C1411 1.393 . S
C1415 C1414 1.391 . S
H1416 C1424 0.950 . S
H1417 C1429 0.950 . S
H1418 C1426 0.950 . S
H1419 C1428 0.950 . S
H1420 C1430 0.950 . S
H1421 C1432 0.950 . S
H1422 C1434 0.950 . S
H1423 C1435 0.950 . S
C1424 H1416 0.950 . S
C1424 C1425 1.386 . S
C1424 C1426 1.391 . S
C1425 C1424 1.386 . S
C1425 C1429 1.393 . S
C1426 H1418 0.950 . S
C1426 C1424 1.391 . S
C1426 C1427 1.400 . S
C1427 C1426 1.400 . S
C1427 C1428 1.398 . S
C1427 C1433 1.491 . S
C1428 H1419 0.950 . S
C1428 C1427 1.398 . S
C1428 C1429 1.391 . S
C1429 H1417 0.950 . S
C1429 C1425 1.393 . S
C1429 C1428 1.391 . S
C1430 H1420 0.950 . S
C1430 C1431 1.386 . S
C1430 C1432 1.391 . S
C1431 C1430 1.386 . S
C1431 C1435 1.393 . S
C1432 H1421 0.950 . S
C1432 C1430 1.391 . S
C1432 C1433 1.400 . S
C1433 C1427 1.491 . S
C1433 C1432 1.400 . S
C1433 C1434 1.398 . S
C1434 H1422 0.950 . S
C1434 C1433 1.398 . S
C1434 C1435 1.391 . S
C1435 H1423 0.950 . S
C1435 C1431 1.393 . S
C1435 C1434 1.391 . S
H1436 C1444 0.950 . S
H1437 C1449 0.950 . S
H1438 C1446 0.950 . S
H1439 C1448 0.950 . S
H1440 C1450 0.950 . S
H1441 C1452 0.950 . S
H1442 C1454 0.950 . S
H1443 C1455 0.950 . S
C1444 H1436 0.950 . S
C1444 C1445 1.386 . S
C1444 C1446 1.391 . S
C1445 C1444 1.386 . S
C1445 C1449 1.393 . S
C1446 H1438 0.950 . S
C1446 C1444 1.391 . S
C1446 C1447 1.400 . S
C1447 C1446 1.400 . S
C1447 C1448 1.398 . S
C1447 C1453 1.491 . S
C1448 H1439 0.950 . S
C1448 C1447 1.398 . S
C1448 C1449 1.391 . S
C1449 H1437 0.950 . S
C1449 C1445 1.393 . S
C1449 C1448 1.391 . S
C1450 H1440 0.950 . S
C1450 C1451 1.386 . S
C1450 C1452 1.391 . S
C1451 C1450 1.386 . S
C1451 C1455 1.393 . S
C1452 H1441 0.950 . S
C1452 C1450 1.391 . S
C1452 C1453 1.400 . S
C1453 C1447 1.491 . S
C1453 C1452 1.400 . S
C1453 C1454 1.398 . S
C1454 H1442 0.950 . S
C1454 C1453 1.398 . S
C1454 C1455 1.391 . S
C1455 H1443 0.950 . S
C1455 C1451 1.393 . S
C1455 C1454 1.391 . S
H1456 C1464 0.950 . S
H1457 C1469 0.950 . S
H1458 C1466 0.950 . S
H1459 C1468 0.950 . S
H1460 C1470 0.950 . S
H1461 C1472 0.950 . S
H1462 C1474 0.950 . S
H1463 C1475 0.950 . S
C1464 H1456 0.950 . S
C1464 C1465 1.386 . S
C1464 C1466 1.391 . S
C1465 C1464 1.386 . S
C1465 C1469 1.393 . S
C1466 H1458 0.950 . S
C1466 C1464 1.391 . S
C1466 C1467 1.400 . S
C1467 C1466 1.400 . S
C1467 C1468 1.398 . S
C1467 C1473 1.491 . S
C1468 H1459 0.950 . S
C1468 C1467 1.398 . S
C1468 C1469 1.391 . S
C1469 H1457 0.950 . S
C1469 C1465 1.393 . S
C1469 C1468 1.391 . S
C1470 H1460 0.950 . S
C1470 C1471 1.386 . S
C1470 C1472 1.391 . S
C1471 C1470 1.386 . S
C1471 C1475 1.393 . S
C1472 H1461 0.950 . S
C1472 C1470 1.391 . S
C1472 C1473 1.400 . S
C1473 C1467 1.491 . S
C1473 C1472 1.400 . S
C1473 C1474 1.398 . S
C1474 H1462 0.950 . S
C1474 C1473 1.398 . S
C1474 C1475 1.391 . S
C1475 H1463 0.950 . S
C1475 C1471 1.393 . S
C1475 C1474 1.391 . S
H1476 C1484 0.950 . S
H1477 C1489 0.950 . S
H1478 C1486 0.950 . S
H1479 C1488 0.950 . S
H1480 C1490 0.950 . S
H1481 C1492 0.950 . S
H1482 C1494 0.950 . S
H1483 C1495 0.950 . S
C1484 H1476 0.950 . S
C1484 C1485 1.386 . S
C1484 C1486 1.391 . S
C1485 C1484 1.386 . S
C1485 C1489 1.393 . S
C1486 H1478 0.950 . S
C1486 C1484 1.391 . S
C1486 C1487 1.400 . S
C1487 C1486 1.400 . S
C1487 C1488 1.398 . S
C1487 C1493 1.491 . S
C1488 H1479 0.950 . S
C1488 C1487 1.398 . S
C1488 C1489 1.391 . S
C1489 H1477 0.950 . S
C1489 C1485 1.393 . S
C1489 C1488 1.391 . S
C1490 H1480 0.950 . S
C1490 C1491 1.386 . S
C1490 C1492 1.391 . S
C1491 C1490 1.386 . S
C1491 C1495 1.393 . S
C1492 H1481 0.950 . S
C1492 C1490 1.391 . S
C1492 C1493 1.400 . S
C1493 C1487 1.491 . S
C1493 C1492 1.400 . S
C1493 C1494 1.398 . S
C1494 H1482 0.950 . S
C1494 C1493 1.398 . S
C1494 C1495 1.391 . S
C1495 H1483 0.950 . S
C1495 C1491 1.393 . S
C1495 C1494 1.391 . S
H1496 C1504 0.950 . S
H1497 C1509 0.950 . S
H1498 C1506 0.950 . S
H1499 C1508 0.950 . S
H1500 C1510 0.950 . S
H1501 C1512 0.950 . S
H1502 C1514 0.950 . S
H1503 C1515 0.950 . S
C1504 H1496 0.950 . S
C1504 C1505 1.386 . S
C1504 C1506 1.391 . S
C1505 C1504 1.386 . S
C1505 C1509 1.393 . S
C1506 H1498 0.950 . S
C1506 C1504 1.391 . S
C1506 C1507 1.400 . S
C1507 C1506 1.400 . S
C1507 C1508 1.398 . S
C1507 C1513 1.491 . S
C1508 H1499 0.950 . S
C1508 C1507 1.398 . S
C1508 C1509 1.391 . S
C1509 H1497 0.950 . S
C1509 C1505 1.393 . S
C1509 C1508 1.391 . S
C1510 H1500 0.950 . S
C1510 C1511 1.386 . S
C1510 C1512 1.391 . S
C1511 C1510 1.386 . S
C1511 C1515 1.393 . S
C1512 H1501 0.950 . S
C1512 C1510 1.391 . S
C1512 C1513 1.400 . S
C1513 C1507 1.491 . S
C1513 C1512 1.400 . S
C1513 C1514 1.398 . S
C1514 H1502 0.950 . S
C1514 C1513 1.398 . S
C1514 C1515 1.391 . S
C1515 H1503 0.950 . S
C1515 C1511 1.393 . S
C1515 C1514 1.391 . S
H1516 C1524 0.950 . S
H1517 C1529 0.950 . S
H1518 C1526 0.950 . S
H1519 C1528 0.950 . S
H1520 C1530 0.950 . S
H1521 C1532 0.950 . S
H1522 C1534 0.950 . S
H1523 C1535 0.950 . S
C1524 H1516 0.950 . S
C1524 C1525 1.386 . S
C1524 C1526 1.391 . S
C1525 C1524 1.386 . S
C1525 C1529 1.393 . S
C1526 H1518 0.950 . S
C1526 C1524 1.391 . S
C1526 C1527 1.400 . S
C1527 C1526 1.400 . S
C1527 C1528 1.398 . S
C1527 C1533 1.491 . S
C1528 H1519 0.950 . S
C1528 C1527 1.398 . S
C1528 C1529 1.391 . S
C1529 H1517 0.950 . S
C1529 C1525 1.393 . S
C1529 C1528 1.391 . S
C1530 H1520 0.950 . S
C1530 C1531 1.386 . S
C1530 C1532 1.391 . S
C1531 C1530 1.386 . S
C1531 C1535 1.393 . S
C1532 H1521 0.950 . S
C1532 C1530 1.391 . S
C1532 C1533 1.400 . S
C1533 C1527 1.491 . S
C1533 C1532 1.400 . S
C1533 C1534 1.398 . S
C1534 H1522 0.950 . S
C1534 C1533 1.398 . S
C1534 C1535 1.391 . S
C1535 H1523 0.950 . S
C1535 C1531 1.393 . S
C1535 C1534 1.391 . S
H1536 C1544 0.950 . S
H1537 C1549 0.950 . S
H1538 C1546 0.950 . S
H1539 C1548 0.950 . S
H1540 C1550 0.950 . S
H1541 C1552 0.950 . S
H1542 C1554 0.950 . S
H1543 C1555 0.950 . S
C1544 H1536 0.950 . S
C1544 C1545 1.386 . S
C1544 C1546 1.391 . S
C1545 C1544 1.386 . S
C1545 C1549 1.393 . S
C1546 H1538 0.950 . S
C1546 C1544 1.391 . S
C1546 C1547 1.400 . S
C1547 C1546 1.400 . S
C1547 C1548 1.398 . S
C1547 C1553 1.491 . S
C1548 H1539 0.950 . S
C1548 C1547 1.398 . S
C1548 C1549 1.391 . S
C1549 H1537 0.950 . S
C1549 C1545 1.393 . S
C1549 C1548 1.391 . S
C1550 H1540 0.950 . S
C1550 C1551 1.386 . S
C1550 C1552 1.391 . S
C1551 C1550 1.386 . S
C1551 C1555 1.393 . S
C1552 H1541 0.950 . S
C1552 C1550 1.391 . S
C1552 C1553 1.400 . S
C1553 C1547 1.491 . S
C1553 C1552 1.400 . S
C1553 C1554 1.398 . S
C1554 H1542 0.950 . S
C1554 C1553 1.398 . S
C1554 C1555 1.391 . S
C1555 H1543 0.950 . S
C1555 C1551 1.393 . S
C1555 C1554 1.391 . S
H1556 C1564 0.950 . S
H1557 C1569 0.950 . S
H1558 C1566 0.950 . S
H1559 C1568 0.950 . S
H1560 C1570 0.950 . S
H1561 C1572 0.950 . S
H1562 C1574 0.950 . S
H1563 C1575 0.950 . S
C1564 H1556 0.950 . S
C1564 C1565 1.386 . S
C1564 C1566 1.391 . S
C1565 C1564 1.386 . S
C1565 C1569 1.393 . S
C1566 H1558 0.950 . S
C1566 C1564 1.391 . S
C1566 C1567 1.400 . S
C1567 C1566 1.400 . S
C1567 C1568 1.398 . S
C1567 C1573 1.491 . S
C1568 H1559 0.950 . S
C1568 C1567 1.398 . S
C1568 C1569 1.391 . S
C1569 H1557 0.950 . S
C1569 C1565 1.393 . S
C1569 C1568 1.391 . S
C1570 H1560 0.950 . S
C1570 C1571 1.386 . S
C1570 C1572 1.391 . S
C1571 C1570 1.386 . S
C1571 C1575 1.393 . S
C1572 H1561 0.950 . S
C1572 C1570 1.391 . S
C1572 C1573 1.400 . S
C1573 C1567 1.491 . S
C1573 C1572 1.400 . S
C1573 C1574 1.398 . S
C1574 H1562 0.950 . S
C1574 C1573 1.398 . S
C1574 C1575 1.391 . S
C1575 H1563 0.950 . S
C1575 C1571 1.393 . S
C1575 C1574 1.391 . S
H1576 C1584 0.950 . S
H1577 C1589 0.950 . S
H1578 C1586 0.950 . S
H1579 C1588 0.950 . S
H1580 C1590 0.950 1_554 S
H1581 C1592 0.950 . S
H1582 C1594 0.950 . S
H1583 C1595 0.950 . S
C1584 H1576 0.950 . S
C1584 C1585 1.386 . S
C1584 C1586 1.391 . S
C1585 C1584 1.386 . S
C1585 C1589 1.393 . S
C1586 H1578 0.950 . S
C1586 C1584 1.391 . S
C1586 C1587 1.400 . S
C1587 C1586 1.400 . S
C1587 C1588 1.398 . S
C1587 C1593 1.491 . S
C1588 H1579 0.950 . S
C1588 C1587 1.398 . S
C1588 C1589 1.391 . S
C1589 H1577 0.950 . S
C1589 C1585 1.393 . S
C1589 C1588 1.391 . S
C1590 H1580 0.950 1_556 S
C1590 C1591 1.386 . S
C1590 C1592 1.391 . S
C1591 C1590 1.386 . S
C1591 C1595 1.393 . S
C1592 H1581 0.950 . S
C1592 C1590 1.391 . S
C1592 C1593 1.400 . S
C1593 C1587 1.491 . S
C1593 C1592 1.400 . S
C1593 C1594 1.398 . S
C1594 H1582 0.950 . S
C1594 C1593 1.398 . S
C1594 C1595 1.391 . S
C1595 H1583 0.950 . S
C1595 C1591 1.393 . S
C1595 C1594 1.391 . S
H1596 C1604 0.950 . S
H1597 C1609 0.950 . S
H1598 C1606 0.950 . S
H1599 C1608 0.950 . S
H1600 C1610 0.950 . S
H1601 C1612 0.950 . S
H1602 C1614 0.950 . S
H1603 C1615 0.950 . S
C1604 H1596 0.950 . S
C1604 C1605 1.386 . S
C1604 C1606 1.391 . S
C1605 C1604 1.386 . S
C1605 C1609 1.393 . S
C1606 H1598 0.950 . S
C1606 C1604 1.391 . S
C1606 C1607 1.400 . S
C1607 C1606 1.400 . S
C1607 C1608 1.398 . S
C1607 C1613 1.491 . S
C1608 H1599 0.950 . S
C1608 C1607 1.398 . S
C1608 C1609 1.391 . S
C1609 H1597 0.950 . S
C1609 C1605 1.393 . S
C1609 C1608 1.391 . S
C1610 H1600 0.950 . S
C1610 C1611 1.386 . S
C1610 C1612 1.391 . S
C1611 C1610 1.386 . S
C1611 C1615 1.393 . S
C1612 H1601 0.950 . S
C1612 C1610 1.391 . S
C1612 C1613 1.400 . S
C1613 C1607 1.491 . S
C1613 C1612 1.400 . S
C1613 C1614 1.398 . S
C1614 H1602 0.950 . S
C1614 C1613 1.398 . S
C1614 C1615 1.391 . S
C1615 H1603 0.950 . S
C1615 C1611 1.393 . S
C1615 C1614 1.391 . S
H1616 C1624 0.950 . S
H1617 C1629 0.950 . S
H1618 C1626 0.950 . S
H1619 C1628 0.950 . S
H1620 C1630 0.950 1_565 S
H1621 C1632 0.950 1_565 S
H1622 C1634 0.950 . S
H1623 C1635 0.950 . S
C1624 H1616 0.950 . S
C1624 C1625 1.386 . S
C1624 C1626 1.391 . S
C1625 C1624 1.386 . S
C1625 C1629 1.393 1_545 S
C1626 H1618 0.950 . S
C1626 C1624 1.391 . S
C1626 C1627 1.400 . S
C1627 C1626 1.400 . S
C1627 C1628 1.398 1_545 S
C1627 C1633 1.491 . S
C1628 H1619 0.950 . S
C1628 C1627 1.398 1_565 S
C1628 C1629 1.391 . S
C1629 H1617 0.950 . S
C1629 C1625 1.393 1_565 S
C1629 C1628 1.391 . S
C1630 H1620 0.950 1_545 S
C1630 C1631 1.386 . S
C1630 C1632 1.391 . S
C1631 C1630 1.386 . S
C1631 C1635 1.393 . S
C1632 H1621 0.950 1_545 S
C1632 C1630 1.391 . S
C1632 C1633 1.400 . S
C1633 C1627 1.491 . S
C1633 C1632 1.400 . S
C1633 C1634 1.398 . S
C1634 H1622 0.950 . S
C1634 C1633 1.398 . S
C1634 C1635 1.391 . S
C1635 H1623 0.950 . S
C1635 C1631 1.393 . S
C1635 C1634 1.391 . S
H1636 C1644 0.950 . S
H1637 C1649 0.950 . S
H1638 C1646 0.950 . S
H1639 C1648 0.950 . S
H1640 C1650 0.950 . S
H1641 C1652 0.950 . S
H1642 C1654 0.950 . S
H1643 C1655 0.950 . S
C1644 H1636 0.950 . S
C1644 C1645 1.386 . S
C1644 C1646 1.391 . S
C1645 C1644 1.386 . S
C1645 C1649 1.393 . S
C1646 H1638 0.950 . S
C1646 C1644 1.391 . S
C1646 C1647 1.400 . S
C1647 C1646 1.400 . S
C1647 C1648 1.398 . S
C1647 C1653 1.491 . S
C1648 H1639 0.950 . S
C1648 C1647 1.398 . S
C1648 C1649 1.391 . S
C1649 H1637 0.950 . S
C1649 C1645 1.393 . S
C1649 C1648 1.391 . S
C1650 H1640 0.950 . S
C1650 C1651 1.386 . S
C1650 C1652 1.391 . S
C1651 C1650 1.386 . S
C1651 C1655 1.393 . S
C1652 H1641 0.950 . S
C1652 C1650 1.391 . S
C1652 C1653 1.400 . S
C1653 C1647 1.491 . S
C1653 C1652 1.400 . S
C1653 C1654 1.398 . S
C1654 H1642 0.950 . S
C1654 C1653 1.398 . S
C1654 C1655 1.391 . S
C1655 H1643 0.950 . S
C1655 C1651 1.393 . S
C1655 C1654 1.391 . S
H1656 C1664 0.944 1_565 S
H1657 C1669 0.950 . S
H1658 C1666 0.950 1_565 S
H1659 C1668 0.950 . S
H1660 C1670 0.950 . S
H1661 C1672 0.950 . S
H1662 C1674 0.939 1_565 S
H1663 C1675 0.950 . S
C1664 H1656 0.944 1_545 S
C1664 C1665 1.394 . S
C1664 C1666 1.389 . S
C1665 C1664 1.394 . S
C1665 C1669 1.393 . S
C1666 H1658 0.950 1_545 S
C1666 C1664 1.389 . S
C1666 C1667 1.400 . S
C1667 C1666 1.400 . S
C1667 C1668 1.398 . S
C1667 C1673 1.491 . S
C1668 H1659 0.950 . S
C1668 C1667 1.398 . S
C1668 C1669 1.391 . S
C1669 H1657 0.950 . S
C1669 C1665 1.393 . S
C1669 C1668 1.391 . S
C1670 H1660 0.950 . S
C1670 C1671 1.386 . S
C1670 C1672 1.391 . S
C1671 C1670 1.386 . S
C1671 C1675 1.393 . S
C1672 H1661 0.950 . S
C1672 C1670 1.391 . S
C1672 C1673 1.400 . S
C1673 C1667 1.491 . S
C1673 C1672 1.400 . S
C1673 C1674 1.398 . S
C1674 H1662 0.939 1_545 S
C1674 C1673 1.398 . S
C1674 C1675 1.391 . S
C1675 H1663 0.950 . S
C1675 C1671 1.393 . S
C1675 C1674 1.391 . S
H1676 C1684 0.950 . S
H1677 C1689 0.950 . S
H1678 C1686 0.950 . S
H1679 C1688 0.950 . S
H1680 C1690 0.950 . S
H1681 C1692 0.950 . S
H1682 C1694 0.950 . S
H1683 C1695 0.950 . S
C1684 H1676 0.950 . S
C1684 C1685 1.386 . S
C1684 C1686 1.391 . S
C1685 C1684 1.386 . S
C1685 C1689 1.393 . S
C1686 H1678 0.950 . S
C1686 C1684 1.391 . S
C1686 C1687 1.400 . S
C1687 C1686 1.400 . S
C1687 C1688 1.398 . S
C1687 C1693 1.491 . S
C1688 H1679 0.950 . S
C1688 C1687 1.398 . S
C1688 C1689 1.391 . S
C1689 H1677 0.950 . S
C1689 C1685 1.393 . S
C1689 C1688 1.391 . S
C1690 H1680 0.950 . S
C1690 C1691 1.386 . S
C1690 C1692 1.391 . S
C1691 C1690 1.386 . S
C1691 C1695 1.393 . S
C1692 H1681 0.950 . S
C1692 C1690 1.391 . S
C1692 C1693 1.400 . S
C1693 C1687 1.491 . S
C1693 C1692 1.400 . S
C1693 C1694 1.398 . S
C1694 H1682 0.950 . S
C1694 C1693 1.398 . S
C1694 C1695 1.391 . S
C1695 H1683 0.950 . S
C1695 C1691 1.393 . S
C1695 C1694 1.391 . S
H1696 C1704 0.950 1_565 S
H1697 C1709 0.950 . S
H1698 C1706 0.950 . S
H1699 C1708 0.950 . S
H1700 C1710 0.950 . S
H1701 C1712 0.950 . S
H1702 C1714 0.950 . S
H1703 C1715 0.950 . S
C1704 H1696 0.950 1_545 S
C1704 C1705 1.386 . S
C1704 C1706 1.391 . S
C1705 C1704 1.386 . S
C1705 C1709 1.394 . S
C1706 H1698 0.950 . S
C1706 C1704 1.391 . S
C1706 C1707 1.400 . S
C1707 C1706 1.400 . S
C1707 C1708 1.398 . S
C1707 C1713 1.491 . S
C1708 H1699 0.950 . S
C1708 C1707 1.398 . S
C1708 C1709 1.391 . S
C1709 H1697 0.950 . S
C1709 C1705 1.394 . S
C1709 C1708 1.391 . S
C1710 H1700 0.950 . S
C1710 C1711 1.386 . S
C1710 C1712 1.391 . S
C1711 C1710 1.386 . S
C1711 C1715 1.393 . S
C1712 H1701 0.950 . S
C1712 C1710 1.391 . S
C1712 C1713 1.400 . S
C1713 C1707 1.491 . S
C1713 C1712 1.400 . S
C1713 C1714 1.398 . S
C1714 H1702 0.950 . S
C1714 C1713 1.398 . S
C1714 C1715 1.391 . S
C1715 H1703 0.950 . S
C1715 C1711 1.393 . S
C1715 C1714 1.391 . S
H1716 C1724 0.950 . S
H1717 C1729 0.950 . S
H1718 C1726 0.950 . S
H1719 C1728 0.950 . S
H1720 C1730 0.950 . S
H1721 C1732 0.950 . S
H1722 C1734 0.950 . S
H1723 C1735 0.950 . S
C1724 H1716 0.950 . S
C1724 C1725 1.386 . S
C1724 C1726 1.391 . S
C1725 C1724 1.386 . S
C1725 C1729 1.393 . S
C1726 H1718 0.950 . S
C1726 C1724 1.391 . S
C1726 C1727 1.400 . S
C1727 C1726 1.400 . S
C1727 C1728 1.398 . S
C1727 C1733 1.491 . S
C1728 H1719 0.950 . S
C1728 C1727 1.398 . S
C1728 C1729 1.391 . S
C1729 H1717 0.950 . S
C1729 C1725 1.393 . S
C1729 C1728 1.391 . S
C1730 H1720 0.950 . S
C1730 C1731 1.386 . S
C1730 C1732 1.391 . S
C1731 C1730 1.386 . S
C1731 C1735 1.393 . S
C1732 H1721 0.950 . S
C1732 C1730 1.391 . S
C1732 C1733 1.400 . S
C1733 C1727 1.491 . S
C1733 C1732 1.400 . S
C1733 C1734 1.398 . S
C1734 H1722 0.950 . S
C1734 C1733 1.398 . S
C1734 C1735 1.391 . S
C1735 H1723 0.950 . S
C1735 C1731 1.393 . S
C1735 C1734 1.391 . S
H1736 C1744 0.950 . S
H1737 C1749 0.950 . S
H1738 C1746 0.950 . S
H1739 C1748 0.950 . S
H1740 C1750 0.950 . S
H1741 C1752 0.950 1_545 S
H1742 C1754 0.950 . S
H1743 C1755 0.950 . S
C1744 H1736 0.950 . S
C1744 C1745 1.386 1_565 S
C1744 C1746 1.391 . S
C1745 C1744 1.386 1_545 S
C1745 C1749 1.393 . S
C1746 H1738 0.950 . S
C1746 C1744 1.391 . S
C1746 C1747 1.400 . S
C1747 C1746 1.400 . S
C1747 C1748 1.398 1_565 S
C1747 C1753 1.491 . S
C1748 H1739 0.950 . S
C1748 C1747 1.398 1_545 S
C1748 C1749 1.391 . S
C1749 H1737 0.950 . S
C1749 C1745 1.393 . S
C1749 C1748 1.391 . S
C1750 H1740 0.950 . S
C1750 C1751 1.386 . S
C1750 C1752 1.391 . S
C1751 C1750 1.386 . S
C1751 C1755 1.393 . S
C1752 H1741 0.950 1_565 S
C1752 C1750 1.391 . S
C1752 C1753 1.400 . S
C1753 C1747 1.491 . S
C1753 C1752 1.400 . S
C1753 C1754 1.398 . S
C1754 H1742 0.950 . S
C1754 C1753 1.398 . S
C1754 C1755 1.391 . S
C1755 H1743 0.950 . S
C1755 C1751 1.393 . S
C1755 C1754 1.391 . S
H1756 C1764 0.950 . S
H1757 C1769 0.950 . S
H1758 C1766 0.950 . S
H1759 C1768 0.950 . S
H1760 C1770 0.950 . S
H1761 C1772 0.950 . S
H1762 C1774 0.950 . S
H1763 C1775 0.950 . S
C1764 H1756 0.950 . S
C1764 C1765 1.386 . S
C1764 C1766 1.391 . S
C1765 C1764 1.386 . S
C1765 C1769 1.393 . S
C1766 H1758 0.950 . S
C1766 C1764 1.391 . S
C1766 C1767 1.400 . S
C1767 C1766 1.400 . S
C1767 C1768 1.398 . S
C1767 C1773 1.491 . S
C1768 H1759 0.950 . S
C1768 C1767 1.398 . S
C1768 C1769 1.391 . S
C1769 H1757 0.950 . S
C1769 C1765 1.393 . S
C1769 C1768 1.391 . S
C1770 H1760 0.950 . S
C1770 C1771 1.386 . S
C1770 C1772 1.391 . S
C1771 C1770 1.386 . S
C1771 C1775 1.393 . S
C1772 H1761 0.950 . S
C1772 C1770 1.391 . S
C1772 C1773 1.400 . S
C1773 C1767 1.491 . S
C1773 C1772 1.400 . S
C1773 C1774 1.398 . S
C1774 H1762 0.950 . S
C1774 C1773 1.398 . S
C1774 C1775 1.391 . S
C1775 H1763 0.950 . S
C1775 C1771 1.393 . S
C1775 C1774 1.391 . S
H1776 C1784 0.950 . S
H1777 C1789 0.950 1_556 S
H1778 C1786 0.950 . S
H1779 C1788 0.950 . S
H1780 C1790 0.950 . S
H1781 C1792 0.950 . S
H1782 C1794 0.950 . S
H1783 C1795 0.950 . S
C1784 H1776 0.950 . S
C1784 C1785 1.386 . S
C1784 C1786 1.391 . S
C1785 C1784 1.386 . S
C1785 C1789 1.393 . S
C1786 H1778 0.950 . S
C1786 C1784 1.391 . S
C1786 C1787 1.400 . S
C1787 C1786 1.400 . S
C1787 C1788 1.398 1_554 S
C1787 C1793 1.491 . S
C1788 H1779 0.950 . S
C1788 C1787 1.398 1_556 S
C1788 C1789 1.391 1_556 S
C1789 H1777 0.950 1_554 S
C1789 C1785 1.393 . S
C1789 C1788 1.391 1_554 S
C1790 H1780 0.950 . S
C1790 C1791 1.386 . S
C1790 C1792 1.391 . S
C1791 C1790 1.386 . S
C1791 C1795 1.393 1_556 S
C1792 H1781 0.950 . S
C1792 C1790 1.391 . S
C1792 C1793 1.400 1_556 S
C1793 C1787 1.491 . S
C1793 C1792 1.400 1_554 S
C1793 C1794 1.398 . S
C1794 H1782 0.950 . S
C1794 C1793 1.398 . S
C1794 C1795 1.391 . S
C1795 H1783 0.950 . S
C1795 C1791 1.393 1_554 S
C1795 C1794 1.391 . S
H1796 C1804 0.950 . S
H1797 C1809 0.950 . S
H1798 C1806 0.950 . S
H1799 C1808 0.950 . S
H1800 C1810 0.950 . S
H1801 C1812 0.950 . S
H1802 C1814 0.950 . S
H1803 C1815 0.950 . S
C1804 H1796 0.950 . S
C1804 C1805 1.386 . S
C1804 C1806 1.391 . S
C1805 C1804 1.386 . S
C1805 C1809 1.393 . S
C1806 H1798 0.950 . S
C1806 C1804 1.391 . S
C1806 C1807 1.400 . S
C1807 C1806 1.400 . S
C1807 C1808 1.398 . S
C1807 C1813 1.491 . S
C1808 H1799 0.950 . S
C1808 C1807 1.398 . S
C1808 C1809 1.391 . S
C1809 H1797 0.950 . S
C1809 C1805 1.393 . S
C1809 C1808 1.391 . S
C1810 H1800 0.950 . S
C1810 C1811 1.386 . S
C1810 C1812 1.391 . S
C1811 C1810 1.386 . S
C1811 C1815 1.393 . S
C1812 H1801 0.950 . S
C1812 C1810 1.391 . S
C1812 C1813 1.400 . S
C1813 C1807 1.491 . S
C1813 C1812 1.400 . S
C1813 C1814 1.398 . S
C1814 H1802 0.950 . S
C1814 C1813 1.398 . S
C1814 C1815 1.391 . S
C1815 H1803 0.950 . S
C1815 C1811 1.393 . S
C1815 C1814 1.391 . S
H1816 C1824 0.950 . S
H1817 C1829 0.950 . S
H1818 C1826 0.950 . S
H1819 C1828 0.950 . S
H1820 C1830 0.950 . S
H1821 C1832 0.950 . S
H1822 C1834 0.950 . S
H1823 C1835 0.950 . S
C1824 H1816 0.950 . S
C1824 C1825 1.386 . S
C1824 C1826 1.391 . S
C1825 C1824 1.386 . S
C1825 C1829 1.393 . S
C1826 H1818 0.950 . S
C1826 C1824 1.391 . S
C1826 C1827 1.400 . S
C1827 C1826 1.400 . S
C1827 C1828 1.398 . S
C1827 C1833 1.491 . S
C1828 H1819 0.950 . S
C1828 C1827 1.398 . S
C1828 C1829 1.391 . S
C1829 H1817 0.950 . S
C1829 C1825 1.393 . S
C1829 C1828 1.391 . S
C1830 H1820 0.950 . S
C1830 C1831 1.386 . S
C1830 C1832 1.391 . S
C1831 C1830 1.386 . S
C1831 C1835 1.393 . S
C1832 H1821 0.950 . S
C1832 C1830 1.391 . S
C1832 C1833 1.400 . S
C1833 C1827 1.491 . S
C1833 C1832 1.400 . S
C1833 C1834 1.398 . S
C1834 H1822 0.950 . S
C1834 C1833 1.398 . S
C1834 C1835 1.391 . S
C1835 H1823 0.950 . S
C1835 C1831 1.393 . S
C1835 C1834 1.391 . S
H1836 C1844 0.950 . S
H1837 C1849 0.950 . S
H1838 C1846 0.950 . S
H1839 C1848 0.950 . S
H1840 C1850 0.950 . S
H1841 C1852 0.950 . S
H1842 C1854 0.950 . S
H1843 C1855 0.950 . S
C1844 H1836 0.950 . S
C1844 C1845 1.386 . S
C1844 C1846 1.391 . S
C1845 C1844 1.386 . S
C1845 C1849 1.393 . S
C1846 H1838 0.950 . S
C1846 C1844 1.391 . S
C1846 C1847 1.400 . S
C1847 C1846 1.400 . S
C1847 C1848 1.398 . S
C1847 C1853 1.491 . S
C1848 H1839 0.950 . S
C1848 C1847 1.398 . S
C1848 C1849 1.391 . S
C1849 H1837 0.950 . S
C1849 C1845 1.393 . S
C1849 C1848 1.391 . S
C1850 H1840 0.950 . S
C1850 C1851 1.386 . S
C1850 C1852 1.391 . S
C1851 C1850 1.386 . S
C1851 C1855 1.393 . S
C1852 H1841 0.950 . S
C1852 C1850 1.391 . S
C1852 C1853 1.400 . S
C1853 C1847 1.491 . S
C1853 C1852 1.400 . S
C1853 C1854 1.398 . S
C1854 H1842 0.950 . S
C1854 C1853 1.398 . S
C1854 C1855 1.391 . S
C1855 H1843 0.950 . S
C1855 C1851 1.393 . S
C1855 C1854 1.391 . S
H1856 C1864 0.950 . S
H1857 C1869 0.950 . S
H1858 C1866 0.950 . S
H1859 C1868 0.950 . S
H1860 C1870 0.950 . S
H1861 C1872 0.950 . S
H1862 C1874 0.950 . S
H1863 C1875 0.950 . S
C1864 H1856 0.950 . S
C1864 C1865 1.386 . S
C1864 C1866 1.391 . S
C1865 C1864 1.386 . S
C1865 C1869 1.393 1_565 S
C1866 H1858 0.950 . S
C1866 C1864 1.391 . S
C1866 C1867 1.400 . S
C1867 C1866 1.400 . S
C1867 C1868 1.398 . S
C1867 C1873 1.491 . S
C1868 H1859 0.950 . S
C1868 C1867 1.398 . S
C1868 C1869 1.391 1_565 S
C1869 H1857 0.950 . S
C1869 C1865 1.393 1_545 S
C1869 C1868 1.391 1_545 S
C1870 H1860 0.950 . S
C1870 C1871 1.386 . S
C1870 C1872 1.391 . S
C1871 C1870 1.386 . S
C1871 C1875 1.393 . S
C1872 H1861 0.950 . S
C1872 C1870 1.391 . S
C1872 C1873 1.400 . S
C1873 C1867 1.491 . S
C1873 C1872 1.400 . S
C1873 C1874 1.398 . S
C1874 H1862 0.950 . S
C1874 C1873 1.398 . S
C1874 C1875 1.391 . S
C1875 H1863 0.950 . S
C1875 C1871 1.393 . S
C1875 C1874 1.391 . S
H1876 C1884 0.950 . S
H1877 C1889 0.950 . S
H1878 C1886 0.950 . S
H1879 C1888 0.950 . S
H1880 C1890 0.950 . S
H1881 C1892 0.950 . S
H1882 C1894 0.950 . S
H1883 C1895 0.950 . S
C1884 H1876 0.950 . S
C1884 C1885 1.386 . S
C1884 C1886 1.391 . S
C1885 C1884 1.386 . S
C1885 C1889 1.393 . S
C1886 H1878 0.950 . S
C1886 C1884 1.391 . S
C1886 C1887 1.400 . S
C1887 C1886 1.400 . S
C1887 C1888 1.398 . S
C1887 C1893 1.491 . S
C1888 H1879 0.950 . S
C1888 C1887 1.398 . S
C1888 C1889 1.391 . S
C1889 H1877 0.950 . S
C1889 C1885 1.393 . S
C1889 C1888 1.391 . S
C1890 H1880 0.950 . S
C1890 C1891 1.386 . S
C1890 C1892 1.391 . S
C1891 C1890 1.386 . S
C1891 C1895 1.393 . S
C1892 H1881 0.950 . S
C1892 C1890 1.391 . S
C1892 C1893 1.400 . S
C1893 C1887 1.491 . S
C1893 C1892 1.400 . S
C1893 C1894 1.398 . S
C1894 H1882 0.950 . S
C1894 C1893 1.398 . S
C1894 C1895 1.391 . S
C1895 H1883 0.950 . S
C1895 C1891 1.393 . S
C1895 C1894 1.391 . S
H1896 C1904 0.950 . S
H1897 C1909 0.950 . S
H1898 C1906 0.950 . S
H1899 C1908 0.950 . S
H1900 C1910 0.950 . S
H1901 C1912 0.950 . S
H1902 C1914 0.950 . S
H1903 C1915 0.950 . S
C1904 H1896 0.950 . S
C1904 C1905 1.386 . S
C1904 C1906 1.391 . S
C1905 C1904 1.386 . S
C1905 C1909 1.393 . S
C1906 H1898 0.950 . S
C1906 C1904 1.391 . S
C1906 C1907 1.400 . S
C1907 C1906 1.400 . S
C1907 C1908 1.398 . S
C1907 C1913 1.491 . S
C1908 H1899 0.950 . S
C1908 C1907 1.398 . S
C1908 C1909 1.391 . S
C1909 H1897 0.950 . S
C1909 C1905 1.393 . S
C1909 C1908 1.391 . S
C1910 H1900 0.950 . S
C1910 C1911 1.386 . S
C1910 C1912 1.391 . S
C1911 C1910 1.386 . S
C1911 C1915 1.393 . S
C1912 H1901 0.950 . S
C1912 C1910 1.391 . S
C1912 C1913 1.400 . S
C1913 C1907 1.491 . S
C1913 C1912 1.400 . S
C1913 C1914 1.398 . S
C1914 H1902 0.950 . S
C1914 C1913 1.398 . S
C1914 C1915 1.391 . S
C1915 H1903 0.950 . S
C1915 C1911 1.393 . S
C1915 C1914 1.391 . S
H1916 C1924 0.950 . S
H1917 C1929 0.950 . S
H1918 C1926 0.950 . S
H1919 C1928 0.950 . S
H1920 C1930 0.950 . S
H1921 C1932 0.950 . S
H1922 C1934 0.950 . S
H1923 C1935 0.950 . S
C1924 H1916 0.950 . S
C1924 C1925 1.386 . S
C1924 C1926 1.391 . S
C1925 C1924 1.386 . S
C1925 C1929 1.393 . S
C1926 H1918 0.950 . S
C1926 C1924 1.391 . S
C1926 C1927 1.400 . S
C1927 C1926 1.400 . S
C1927 C1928 1.398 . S
C1927 C1933 1.491 . S
C1928 H1919 0.950 . S
C1928 C1927 1.398 . S
C1928 C1929 1.391 . S
C1929 H1917 0.950 . S
C1929 C1925 1.393 . S
C1929 C1928 1.391 . S
C1930 H1920 0.950 . S
C1930 C1931 1.386 . S
C1930 C1932 1.391 . S
C1931 C1930 1.386 . S
C1931 C1935 1.393 . S
C1932 H1921 0.950 . S
C1932 C1930 1.391 . S
C1932 C1933 1.400 . S
C1933 C1927 1.491 . S
C1933 C1932 1.400 . S
C1933 C1934 1.398 . S
C1934 H1922 0.950 . S
C1934 C1933 1.398 . S
C1934 C1935 1.391 . S
C1935 H1923 0.950 . S
C1935 C1931 1.393 . S
C1935 C1934 1.391 . S
H1936 C1944 0.950 . S
H1937 C1949 0.950 . S
H1938 C1946 0.950 . S
H1939 C1948 0.950 . S
H1940 C1950 0.950 . S
H1941 C1952 0.950 . S
H1942 C1954 0.950 . S
H1943 C1955 0.950 . S
C1944 H1936 0.950 . S
C1944 C1945 1.386 . S
C1944 C1946 1.391 . S
C1945 C1944 1.386 . S
C1945 C1949 1.393 . S
C1946 H1938 0.950 . S
C1946 C1944 1.391 . S
C1946 C1947 1.400 . S
C1947 C1946 1.400 . S
C1947 C1948 1.398 . S
C1947 C1953 1.491 . S
C1948 H1939 0.950 . S
C1948 C1947 1.398 . S
C1948 C1949 1.391 . S
C1949 H1937 0.950 . S
C1949 C1945 1.393 . S
C1949 C1948 1.391 . S
C1950 H1940 0.950 . S
C1950 C1951 1.386 . S
C1950 C1952 1.391 . S
C1951 C1950 1.386 . S
C1951 C1955 1.393 . S
C1952 H1941 0.950 . S
C1952 C1950 1.391 . S
C1952 C1953 1.400 . S
C1953 C1947 1.491 . S
C1953 C1952 1.400 . S
C1953 C1954 1.398 . S
C1954 H1942 0.950 . S
C1954 C1953 1.398 . S
C1954 C1955 1.391 . S
C1955 H1943 0.950 . S
C1955 C1951 1.393 . S
C1955 C1954 1.391 . S
H1956 C1964 0.950 . S
H1957 C1969 0.950 . S
H1958 C1966 0.950 . S
H1959 C1968 0.950 . S
H1960 C1970 0.950 . S
H1961 C1972 0.950 . S
H1962 C1974 0.950 . S
H1963 C1975 0.950 . S
C1964 H1956 0.950 . S
C1964 C1965 1.386 . S
C1964 C1966 1.391 . S
C1965 C1964 1.386 . S
C1965 C1969 1.393 . S
C1966 H1958 0.950 . S
C1966 C1964 1.391 . S
C1966 C1967 1.400 . S
C1967 C1966 1.400 . S
C1967 C1968 1.398 . S
C1967 C1973 1.491 . S
C1968 H1959 0.950 . S
C1968 C1967 1.398 . S
C1968 C1969 1.391 . S
C1969 H1957 0.950 . S
C1969 C1965 1.393 . S
C1969 C1968 1.391 . S
C1970 H1960 0.950 . S
C1970 C1971 1.386 . S
C1970 C1972 1.391 . S
C1971 C1970 1.386 . S
C1971 C1975 1.393 . S
C1972 H1961 0.950 . S
C1972 C1970 1.391 . S
C1972 C1973 1.400 . S
C1973 C1967 1.491 . S
C1973 C1972 1.400 . S
C1973 C1974 1.398 . S
C1974 H1962 0.950 . S
C1974 C1973 1.398 . S
C1974 C1975 1.391 . S
C1975 H1963 0.950 . S
C1975 C1971 1.393 . S
C1975 C1974 1.391 . S
H1976 C1984 0.950 . S
H1977 C1989 0.950 . S
H1978 C1986 0.950 1_554 S
H1979 C1988 0.950 . S
H1980 C1990 0.950 . S
H1981 C1992 0.950 . S
H1982 C1994 0.950 . S
H1983 C1995 0.950 . S
C1984 H1976 0.950 . S
C1984 C1985 1.386 . S
C1984 C1986 1.391 . S
C1985 C1984 1.386 . S
C1985 C1989 1.393 . S
C1986 H1978 0.950 1_556 S
C1986 C1984 1.391 . S
C1986 C1987 1.400 . S
C1987 C1986 1.400 . S
C1987 C1988 1.398 . S
C1987 C1993 1.501 . S
C1988 H1979 0.950 . S
C1988 C1987 1.398 . S
C1988 C1989 1.391 . S
C1989 H1977 0.950 . S
C1989 C1985 1.393 . S
C1989 C1988 1.391 . S
C1990 H1980 0.950 . S
C1990 C1991 1.386 . S
C1990 C1992 1.391 1_554 S
C1991 C1990 1.386 . S
C1991 C1995 1.393 . S
C1992 H1981 0.950 . S
C1992 C1990 1.391 1_556 S
C1992 C1993 1.413 . S
C1993 C1987 1.501 . S
C1993 C1992 1.413 . S
C1993 C1994 1.375 1_556 S
C1994 H1982 0.950 . S
C1994 C1993 1.375 1_554 S
C1994 C1995 1.391 . S
C1995 H1983 0.950 . S
C1995 C1991 1.393 . S
C1995 C1994 1.391 . S
H1996 C2004 0.950 . S
H1997 C2009 0.950 . S
H1998 C2006 0.950 . S
H1999 C2008 0.950 . S
H2000 C2010 0.950 . S
H2001 C2012 0.950 . S
H2002 C2014 0.950 . S
H2003 C2015 0.950 . S
C2004 H1996 0.950 . S
C2004 C2005 1.386 . S
C2004 C2006 1.391 1_455 S
C2005 C2004 1.386 . S
C2005 C2009 1.393 . S
C2006 H1998 0.950 . S
C2006 C2004 1.391 1_655 S
C2006 C2007 1.400 . S
C2007 C2006 1.400 . S
C2007 C2008 1.398 . S
C2007 C2013 1.491 . S
C2008 H1999 0.950 . S
C2008 C2007 1.398 . S
C2008 C2009 1.391 1_655 S
C2009 H1997 0.950 . S
C2009 C2005 1.393 . S
C2009 C2008 1.391 1_455 S
C2010 H2000 0.950 . S
C2010 C2011 1.386 . S
C2010 C2012 1.391 . S
C2011 C2010 1.386 . S
C2011 C2015 1.393 . S
C2012 H2001 0.950 . S
C2012 C2010 1.391 . S
C2012 C2013 1.400 . S
C2013 C2007 1.491 . S
C2013 C2012 1.400 . S
C2013 C2014 1.398 . S
C2014 H2002 0.950 . S
C2014 C2013 1.398 . S
C2014 C2015 1.391 . S
C2015 H2003 0.950 . S
C2015 C2011 1.393 . S
C2015 C2014 1.391 . S
H2016 C2024 0.950 . S
H2017 C2029 0.950 . S
H2018 C2026 0.950 . S
H2019 C2028 0.950 . S
H2020 C2030 0.950 . S
H2021 C2032 0.950 . S
H2022 C2034 0.950 . S
H2023 C2035 0.950 . S
C2024 H2016 0.950 . S
C2024 C2025 1.386 . S
C2024 C2026 1.391 . S
C2025 C2024 1.386 . S
C2025 C2029 1.393 . S
C2026 H2018 0.950 . S
C2026 C2024 1.391 . S
C2026 C2027 1.400 . S
C2027 C2026 1.400 . S
C2027 C2028 1.398 . S
C2027 C2033 1.491 . S
C2028 H2019 0.950 . S
C2028 C2027 1.398 . S
C2028 C2029 1.391 . S
C2029 H2017 0.950 . S
C2029 C2025 1.393 . S
C2029 C2028 1.391 . S
C2030 H2020 0.950 . S
C2030 C2031 1.386 . S
C2030 C2032 1.391 . S
C2031 C2030 1.386 . S
C2031 C2035 1.393 . S
C2032 H2021 0.950 . S
C2032 C2030 1.391 . S
C2032 C2033 1.400 . S
C2033 C2027 1.491 . S
C2033 C2032 1.400 . S
C2033 C2034 1.398 . S
C2034 H2022 0.950 . S
C2034 C2033 1.398 . S
C2034 C2035 1.391 . S
C2035 H2023 0.950 . S
C2035 C2031 1.393 . S
C2035 C2034 1.391 . S
H2036 C2044 0.950 . S
H2037 C2049 0.950 . S
H2038 C2046 0.950 . S
H2039 C2048 0.950 . S
H2040 C2050 0.950 . S
H2041 C2052 0.950 1_455 S
H2042 C2054 0.950 . S
H2043 C2055 0.950 . S
C2044 H2036 0.950 . S
C2044 C2045 1.386 . S
C2044 C2046 1.391 . S
C2045 C2044 1.386 . S
C2045 C2049 1.393 . S
C2046 H2038 0.950 . S
C2046 C2044 1.391 . S
C2046 C2047 1.400 . S
C2047 C2046 1.400 . S
C2047 C2048 1.398 . S
C2047 C2053 1.491 1_455 S
C2048 H2039 0.950 . S
C2048 C2047 1.398 . S
C2048 C2049 1.391 . S
C2049 H2037 0.950 . S
C2049 C2045 1.393 . S
C2049 C2048 1.391 . S
C2050 H2040 0.950 . S
C2050 C2051 1.386 . S
C2050 C2052 1.391 . S
C2051 C2050 1.386 . S
C2051 C2055 1.393 . S
C2052 H2041 0.950 1_655 S
C2052 C2050 1.391 . S
C2052 C2053 1.400 . S
C2053 C2047 1.491 1_655 S
C2053 C2052 1.400 . S
C2053 C2054 1.398 . S
C2054 H2042 0.950 . S
C2054 C2053 1.398 . S
C2054 C2055 1.391 . S
C2055 H2043 0.950 . S
C2055 C2051 1.393 . S
C2055 C2054 1.391 . S
H2056 C2064 0.950 . S
H2057 C2069 0.950 . S
H2058 C2066 0.957 . S
H2059 C2068 0.950 . S
H2060 C2070 0.950 . S
H2061 C2072 0.950 . S
H2062 C2074 0.950 . S
H2063 C2075 0.950 . S
C2064 H2056 0.950 . S
C2064 C2065 1.386 . S
C2064 C2066 1.418 . S
C2065 C2064 1.386 . S
C2065 C2069 1.393 1_655 S
C2066 H2058 0.957 . S
C2066 C2064 1.418 . S
C2066 C2067 1.367 1_655 S
C2067 C2066 1.367 1_455 S
C2067 C2068 1.398 . S
C2067 C2073 1.491 . S
C2068 H2059 0.950 . S
C2068 C2067 1.398 . S
C2068 C2069 1.391 . S
C2069 H2057 0.950 . S
C2069 C2065 1.393 1_455 S
C2069 C2068 1.391 . S
C2070 H2060 0.950 . S
C2070 C2071 1.386 . S
C2070 C2072 1.391 . S
C2071 C2070 1.386 . S
C2071 C2075 1.393 . S
C2072 H2061 0.950 . S
C2072 C2070 1.391 . S
C2072 C2073 1.400 . S
C2073 C2067 1.491 . S
C2073 C2072 1.400 . S
C2073 C2074 1.398 . S
C2074 H2062 0.950 . S
C2074 C2073 1.398 . S
C2074 C2075 1.391 . S
C2075 H2063 0.950 . S
C2075 C2071 1.393 . S
C2075 C2074 1.391 . S
H2076 C2084 0.950 . S
H2077 C2089 0.950 . S
H2078 C2086 0.950 . S
H2079 C2088 0.950 . S
H2080 C2090 0.950 . S
H2081 C2092 0.950 . S
H2082 C2094 0.950 . S
H2083 C2095 0.950 . S
C2084 H2076 0.950 . S
C2084 C2085 1.386 . S
C2084 C2086 1.391 . S
C2085 C2084 1.386 . S
C2085 C2089 1.393 . S
C2086 H2078 0.950 . S
C2086 C2084 1.391 . S
C2086 C2087 1.400 . S
C2087 C2086 1.400 . S
C2087 C2088 1.398 . S
C2087 C2093 1.491 . S
C2088 H2079 0.950 . S
C2088 C2087 1.398 . S
C2088 C2089 1.391 . S
C2089 H2077 0.950 . S
C2089 C2085 1.393 . S
C2089 C2088 1.391 . S
C2090 H2080 0.950 . S
C2090 C2091 1.386 . S
C2090 C2092 1.391 . S
C2091 C2090 1.386 . S
C2091 C2095 1.393 . S
C2092 H2081 0.950 . S
C2092 C2090 1.391 . S
C2092 C2093 1.400 . S
C2093 C2087 1.491 . S
C2093 C2092 1.400 . S
C2093 C2094 1.398 . S
C2094 H2082 0.950 . S
C2094 C2093 1.398 . S
C2094 C2095 1.391 . S
C2095 H2083 0.950 . S
C2095 C2091 1.393 . S
C2095 C2094 1.391 . S
H2096 C2104 0.950 . S
H2097 C2109 0.950 . S
H2098 C2106 0.950 . S
H2099 C2108 0.950 . S
H2100 C2110 0.950 . S
H2101 C2112 0.950 . S
H2102 C2114 0.950 . S
H2103 C2115 0.950 . S
C2104 H2096 0.950 . S
C2104 C2105 1.386 . S
C2104 C2106 1.391 . S
C2105 C2104 1.386 . S
C2105 C2109 1.393 . S
C2106 H2098 0.950 . S
C2106 C2104 1.391 . S
C2106 C2107 1.400 . S
C2107 C2106 1.400 . S
C2107 C2108 1.398 . S
C2107 C2113 1.491 . S
C2108 H2099 0.950 . S
C2108 C2107 1.398 . S
C2108 C2109 1.391 . S
C2109 H2097 0.950 . S
C2109 C2105 1.393 . S
C2109 C2108 1.391 . S
C2110 H2100 0.950 . S
C2110 C2111 1.386 . S
C2110 C2112 1.391 . S
C2111 C2110 1.386 . S
C2111 C2115 1.393 . S
C2112 H2101 0.950 . S
C2112 C2110 1.391 . S
C2112 C2113 1.400 . S
C2113 C2107 1.491 . S
C2113 C2112 1.400 . S
C2113 C2114 1.398 . S
C2114 H2102 0.950 . S
C2114 C2113 1.398 . S
C2114 C2115 1.391 . S
C2115 H2103 0.950 . S
C2115 C2111 1.393 . S
C2115 C2114 1.391 . S
H2116 C2124 0.950 . S
H2117 C2129 0.950 . S
H2118 C2126 0.950 . S
H2119 C2128 0.950 . S
H2120 C2130 0.950 . S
H2121 C2132 0.950 . S
H2122 C2134 0.950 . S
H2123 C2135 0.950 . S
C2124 H2116 0.950 . S
C2124 C2125 1.386 . S
C2124 C2126 1.391 . S
C2125 C2124 1.386 . S
C2125 C2129 1.393 . S
C2126 H2118 0.950 . S
C2126 C2124 1.391 . S
C2126 C2127 1.400 . S
C2127 C2126 1.400 . S
C2127 C2128 1.398 . S
C2127 C2133 1.491 . S
C2128 H2119 0.950 . S
C2128 C2127 1.398 . S
C2128 C2129 1.391 . S
C2129 H2117 0.950 . S
C2129 C2125 1.393 . S
C2129 C2128 1.391 . S
C2130 H2120 0.950 . S
C2130 C2131 1.386 . S
C2130 C2132 1.391 . S
C2131 C2130 1.386 . S
C2131 C2135 1.393 . S
C2132 H2121 0.950 . S
C2132 C2130 1.391 . S
C2132 C2133 1.400 . S
C2133 C2127 1.491 . S
C2133 C2132 1.400 . S
C2133 C2134 1.398 . S
C2134 H2122 0.950 . S
C2134 C2133 1.398 . S
C2134 C2135 1.391 . S
C2135 H2123 0.950 . S
C2135 C2131 1.393 . S
C2135 C2134 1.391 . S
H2136 C2144 0.950 . S
H2137 C2149 0.950 . S
H2138 C2146 0.950 . S
H2139 C2148 0.950 . S
H2140 C2150 0.950 . S
H2141 C2152 0.950 . S
H2142 C2154 0.950 . S
H2143 C2155 0.950 . S
C2144 H2136 0.950 . S
C2144 C2145 1.386 . S
C2144 C2146 1.391 . S
C2145 C2144 1.386 . S
C2145 C2149 1.393 . S
C2146 H2138 0.950 . S
C2146 C2144 1.391 . S
C2146 C2147 1.400 . S
C2147 C2146 1.400 . S
C2147 C2148 1.398 . S
C2147 C2153 1.491 . S
C2148 H2139 0.950 . S
C2148 C2147 1.398 . S
C2148 C2149 1.391 . S
C2149 H2137 0.950 . S
C2149 C2145 1.393 . S
C2149 C2148 1.391 . S
C2150 H2140 0.950 . S
C2150 C2151 1.386 . S
C2150 C2152 1.391 . S
C2151 C2150 1.386 . S
C2151 C2155 1.393 . S
C2152 H2141 0.950 . S
C2152 C2150 1.391 . S
C2152 C2153 1.400 . S
C2153 C2147 1.491 . S
C2153 C2152 1.400 . S
C2153 C2154 1.398 . S
C2154 H2142 0.950 . S
C2154 C2153 1.398 . S
C2154 C2155 1.391 . S
C2155 H2143 0.950 . S
C2155 C2151 1.393 . S
C2155 C2154 1.391 . S
H2156 C2164 0.950 . S
H2157 C2169 0.950 . S
H2158 C2166 0.950 . S
H2159 C2168 0.950 . S
H2160 C2170 0.950 . S
H2161 C2172 0.950 . S
H2162 C2174 0.950 . S
H2163 C2175 0.950 . S
C2164 H2156 0.950 . S
C2164 C2165 1.386 . S
C2164 C2166 1.391 . S
C2165 C2164 1.386 . S
C2165 C2169 1.393 . S
C2166 H2158 0.950 . S
C2166 C2164 1.391 . S
C2166 C2167 1.400 . S
C2167 C2166 1.400 . S
C2167 C2168 1.398 . S
C2167 C2173 1.491 . S
C2168 H2159 0.950 . S
C2168 C2167 1.398 . S
C2168 C2169 1.391 . S
C2169 H2157 0.950 . S
C2169 C2165 1.393 . S
C2169 C2168 1.391 . S
C2170 H2160 0.950 . S
C2170 C2171 1.386 . S
C2170 C2172 1.391 . S
C2171 C2170 1.386 . S
C2171 C2175 1.393 . S
C2172 H2161 0.950 . S
C2172 C2170 1.391 . S
C2172 C2173 1.400 . S
C2173 C2167 1.491 . S
C2173 C2172 1.400 . S
C2173 C2174 1.398 . S
C2174 H2162 0.950 . S
C2174 C2173 1.398 . S
C2174 C2175 1.391 . S
C2175 H2163 0.950 . S
C2175 C2171 1.393 . S
C2175 C2174 1.391 . S
H2176 C2184 0.950 . S
H2177 C2189 0.950 . S
H2178 C2186 0.950 . S
H2179 C2188 0.950 . S
H2180 C2190 0.950 . S
H2181 C2192 0.950 . S
H2182 C2194 0.950 . S
H2183 C2195 0.950 . S
C2184 H2176 0.950 . S
C2184 C2185 1.386 . S
C2184 C2186 1.391 . S
C2185 C2184 1.386 . S
C2185 C2189 1.393 . S
C2186 H2178 0.950 . S
C2186 C2184 1.391 . S
C2186 C2187 1.400 . S
C2187 C2186 1.400 . S
C2187 C2188 1.398 . S
C2187 C2193 1.491 . S
C2188 H2179 0.950 . S
C2188 C2187 1.398 . S
C2188 C2189 1.391 . S
C2189 H2177 0.950 . S
C2189 C2185 1.393 . S
C2189 C2188 1.391 . S
C2190 H2180 0.950 . S
C2190 C2191 1.386 . S
C2190 C2192 1.391 . S
C2191 C2190 1.386 . S
C2191 C2195 1.393 . S
C2192 H2181 0.950 . S
C2192 C2190 1.391 . S
C2192 C2193 1.400 . S
C2193 C2187 1.491 . S
C2193 C2192 1.400 . S
C2193 C2194 1.398 . S
C2194 H2182 0.950 . S
C2194 C2193 1.398 . S
C2194 C2195 1.391 . S
C2195 H2183 0.950 . S
C2195 C2191 1.393 . S
C2195 C2194 1.391 . S
H2196 C2204 0.950 . S
H2197 C2209 0.950 . S
H2198 C2206 0.950 . S
H2199 C2208 0.950 . S
H2200 C2210 0.950 . S
H2201 C2212 0.950 . S
H2202 C2214 0.950 . S
H2203 C2215 0.950 . S
C2204 H2196 0.950 . S
C2204 C2205 1.386 . S
C2204 C2206 1.391 . S
C2205 C2204 1.386 . S
C2205 C2209 1.393 . S
C2206 H2198 0.950 . S
C2206 C2204 1.391 . S
C2206 C2207 1.400 . S
C2207 C2206 1.400 . S
C2207 C2208 1.398 . S
C2207 C2213 1.491 . S
C2208 H2199 0.950 . S
C2208 C2207 1.398 . S
C2208 C2209 1.391 . S
C2209 H2197 0.950 . S
C2209 C2205 1.393 . S
C2209 C2208 1.391 . S
C2210 H2200 0.950 . S
C2210 C2211 1.386 . S
C2210 C2212 1.391 . S
C2211 C2210 1.386 . S
C2211 C2215 1.393 . S
C2212 H2201 0.950 . S
C2212 C2210 1.391 . S
C2212 C2213 1.400 . S
C2213 C2207 1.491 . S
C2213 C2212 1.400 . S
C2213 C2214 1.398 . S
C2214 H2202 0.950 . S
C2214 C2213 1.398 . S
C2214 C2215 1.391 . S
C2215 H2203 0.950 . S
C2215 C2211 1.393 . S
C2215 C2214 1.391 . S
H2216 C2224 0.950 . S
H2217 C2229 0.950 . S
H2218 C2226 0.950 . S
H2219 C2228 0.950 . S
H2220 C2230 0.950 . S
H2221 C2232 0.950 . S
H2222 C2234 0.950 . S
H2223 C2235 0.950 . S
C2224 H2216 0.950 . S
C2224 C2225 1.386 . S
C2224 C2226 1.391 . S
C2225 C2224 1.386 . S
C2225 C2229 1.393 . S
C2226 H2218 0.950 . S
C2226 C2224 1.391 . S
C2226 C2227 1.400 . S
C2227 C2226 1.400 . S
C2227 C2228 1.398 . S
C2227 C2233 1.491 . S
C2228 H2219 0.950 . S
C2228 C2227 1.398 . S
C2228 C2229 1.391 . S
C2229 H2217 0.950 . S
C2229 C2225 1.393 . S
C2229 C2228 1.391 . S
C2230 H2220 0.950 . S
C2230 C2231 1.386 . S
C2230 C2232 1.391 . S
C2231 C2230 1.386 . S
C2231 C2235 1.393 . S
C2232 H2221 0.950 . S
C2232 C2230 1.391 . S
C2232 C2233 1.400 . S
C2233 C2227 1.491 . S
C2233 C2232 1.400 . S
C2233 C2234 1.398 . S
C2234 H2222 0.950 . S
C2234 C2233 1.398 . S
C2234 C2235 1.391 . S
C2235 H2223 0.950 . S
C2235 C2231 1.393 . S
C2235 C2234 1.391 . S
H2236 C2244 0.950 . S
H2237 C2249 0.950 . S
H2238 C2246 0.950 . S
H2239 C2248 0.950 . S
H2240 C2250 0.950 . S
H2241 C2252 0.950 . S
H2242 C2254 0.950 . S
H2243 C2255 0.950 . S
C2244 H2236 0.950 . S
C2244 C2245 1.386 . S
C2244 C2246 1.391 . S
C2245 C2244 1.386 . S
C2245 C2249 1.393 . S
C2246 H2238 0.950 . S
C2246 C2244 1.391 . S
C2246 C2247 1.400 . S
C2247 C2246 1.400 . S
C2247 C2248 1.398 . S
C2247 C2253 1.491 . S
C2248 H2239 0.950 . S
C2248 C2247 1.398 . S
C2248 C2249 1.391 . S
C2249 H2237 0.950 . S
C2249 C2245 1.393 . S
C2249 C2248 1.391 . S
C2250 H2240 0.950 . S
C2250 C2251 1.386 . S
C2250 C2252 1.391 . S
C2251 C2250 1.386 . S
C2251 C2255 1.393 . S
C2252 H2241 0.950 . S
C2252 C2250 1.391 . S
C2252 C2253 1.400 . S
C2253 C2247 1.491 . S
C2253 C2252 1.400 . S
C2253 C2254 1.398 . S
C2254 H2242 0.950 . S
C2254 C2253 1.398 . S
C2254 C2255 1.391 . S
C2255 H2243 0.950 . S
C2255 C2251 1.393 . S
C2255 C2254 1.391 . S
H2256 C2264 0.950 . S
H2257 C2269 0.950 . S
H2258 C2266 0.950 . S
H2259 C2268 0.950 . S
H2260 C2270 0.950 . S
H2261 C2272 0.950 . S
H2262 C2274 0.950 . S
H2263 C2275 0.950 . S
C2264 H2256 0.950 . S
C2264 C2265 1.386 . S
C2264 C2266 1.391 . S
C2265 C2264 1.386 . S
C2265 C2269 1.393 . S
C2266 H2258 0.950 . S
C2266 C2264 1.391 . S
C2266 C2267 1.400 . S
C2267 C2266 1.400 . S
C2267 C2268 1.398 . S
C2267 C2273 1.491 . S
C2268 H2259 0.950 . S
C2268 C2267 1.398 . S
C2268 C2269 1.391 . S
C2269 H2257 0.950 . S
C2269 C2265 1.393 . S
C2269 C2268 1.391 . S
C2270 H2260 0.950 . S
C2270 C2271 1.386 . S
C2270 C2272 1.391 . S
C2271 C2270 1.386 . S
C2271 C2275 1.393 . S
C2272 H2261 0.950 . S
C2272 C2270 1.391 . S
C2272 C2273 1.400 . S
C2273 C2267 1.491 . S
C2273 C2272 1.400 . S
C2273 C2274 1.398 . S
C2274 H2262 0.950 . S
C2274 C2273 1.398 . S
C2274 C2275 1.391 . S
C2275 H2263 0.950 . S
C2275 C2271 1.393 . S
C2275 C2274 1.391 . S
H2276 C2284 0.950 . S
H2277 C2289 0.950 . S
H2278 C2286 0.950 . S
H2279 C2288 0.950 . S
H2280 C2290 0.950 . S
H2281 C2292 0.950 . S
H2282 C2294 0.950 . S
H2283 C2295 0.950 . S
C2284 H2276 0.950 . S
C2284 C2285 1.386 . S
C2284 C2286 1.391 . S
C2285 C2284 1.386 . S
C2285 C2289 1.393 . S
C2286 H2278 0.950 . S
C2286 C2284 1.391 . S
C2286 C2287 1.400 . S
C2287 C2286 1.400 . S
C2287 C2288 1.398 . S
C2287 C2293 1.491 . S
C2288 H2279 0.950 . S
C2288 C2287 1.398 . S
C2288 C2289 1.391 . S
C2289 H2277 0.950 . S
C2289 C2285 1.393 . S
C2289 C2288 1.391 . S
C2290 H2280 0.950 . S
C2290 C2291 1.386 . S
C2290 C2292 1.391 . S
C2291 C2290 1.386 . S
C2291 C2295 1.393 . S
C2292 H2281 0.950 . S
C2292 C2290 1.391 . S
C2292 C2293 1.400 . S
C2293 C2287 1.491 . S
C2293 C2292 1.400 . S
C2293 C2294 1.398 . S
C2294 H2282 0.950 . S
C2294 C2293 1.398 . S
C2294 C2295 1.391 . S
C2295 H2283 0.950 . S
C2295 C2291 1.393 . S
C2295 C2294 1.391 . S
H2296 C2304 0.950 . S
H2297 C2309 0.950 . S
H2298 C2306 0.950 . S
H2299 C2308 0.950 . S
H2300 C2310 0.950 . S
H2301 C2312 0.950 . S
H2302 C2314 0.950 . S
H2303 C2315 0.950 . S
C2304 H2296 0.950 . S
C2304 C2305 1.386 . S
C2304 C2306 1.391 . S
C2305 C2304 1.386 . S
C2305 C2309 1.393 . S
C2306 H2298 0.950 . S
C2306 C2304 1.391 . S
C2306 C2307 1.400 . S
C2307 C2306 1.400 . S
C2307 C2308 1.398 . S
C2307 C2313 1.491 . S
C2308 H2299 0.950 . S
C2308 C2307 1.398 . S
C2308 C2309 1.391 . S
C2309 H2297 0.950 . S
C2309 C2305 1.393 . S
C2309 C2308 1.391 . S
C2310 H2300 0.950 . S
C2310 C2311 1.386 . S
C2310 C2312 1.391 . S
C2311 C2310 1.386 . S
C2311 C2315 1.393 . S
C2312 H2301 0.950 . S
C2312 C2310 1.391 . S
C2312 C2313 1.400 . S
C2313 C2307 1.491 . S
C2313 C2312 1.400 . S
C2313 C2314 1.398 . S
C2314 H2302 0.950 . S
C2314 C2313 1.398 . S
C2314 C2315 1.391 . S
C2315 H2303 0.950 . S
C2315 C2311 1.393 . S
C2315 C2314 1.391 . S
H2316 C2324 0.950 . S
H2317 C2329 0.950 . S
H2318 C2326 0.972 . S
H2319 C2328 0.950 . S
H2320 C2330 0.950 . S
H2321 C2332 0.950 . S
H2322 C2334 0.950 1_556 S
H2323 C2335 0.950 1_556 S
C2324 H2316 0.950 . S
C2324 C2325 1.386 1_556 S
C2324 C2326 1.389 . S
C2325 C2324 1.386 1_554 S
C2325 C2329 1.393 . S
C2326 H2318 0.972 . S
C2326 C2324 1.389 . S
C2326 C2327 1.382 1_556 S
C2327 C2326 1.382 1_554 S
C2327 C2328 1.398 . S
C2327 C2333 1.491 . S
C2328 H2319 0.950 . S
C2328 C2327 1.398 . S
C2328 C2329 1.391 . S
C2329 H2317 0.950 . S
C2329 C2325 1.393 . S
C2329 C2328 1.391 . S
C2330 H2320 0.950 . S
C2330 C2331 1.386 . S
C2330 C2332 1.391 . S
C2331 C2330 1.386 . S
C2331 C2335 1.393 1_545 S
C2332 H2321 0.950 . S
C2332 C2330 1.391 . S
C2332 C2333 1.400 1_545 S
C2333 C2327 1.491 . S
C2333 C2332 1.400 1_565 S
C2333 C2334 1.398 . S
C2334 H2322 0.950 1_554 S
C2334 C2333 1.398 . S
C2334 C2335 1.391 . S
C2335 H2323 0.950 1_554 S
C2335 C2331 1.393 1_565 S
C2335 C2334 1.391 . S
H2336 C2344 0.950 . S
H2337 C2349 0.950 . S
H2338 C2346 0.950 . S
H2339 C2348 0.950 . S
H2340 C2350 0.950 . S
H2341 C2352 0.950 . S
H2342 C2354 0.950 . S
H2343 C2355 0.950 . S
C2344 H2336 0.950 . S
C2344 C2345 1.386 . S
C2344 C2346 1.391 . S
C2345 C2344 1.386 . S
C2345 C2349 1.393 . S
C2346 H2338 0.950 . S
C2346 C2344 1.391 . S
C2346 C2347 1.400 . S
C2347 C2346 1.400 . S
C2347 C2348 1.398 . S
C2347 C2353 1.491 . S
C2348 H2339 0.950 . S
C2348 C2347 1.398 . S
C2348 C2349 1.391 . S
C2349 H2337 0.950 . S
C2349 C2345 1.393 . S
C2349 C2348 1.391 . S
C2350 H2340 0.950 . S
C2350 C2351 1.386 . S
C2350 C2352 1.391 . S
C2351 C2350 1.386 . S
C2351 C2355 1.393 . S
C2352 H2341 0.950 . S
C2352 C2350 1.391 . S
C2352 C2353 1.400 . S
C2353 C2347 1.491 . S
C2353 C2352 1.400 . S
C2353 C2354 1.398 . S
C2354 H2342 0.950 . S
C2354 C2353 1.398 . S
C2354 C2355 1.391 . S
C2355 H2343 0.950 . S
C2355 C2351 1.393 . S
C2355 C2354 1.391 . S
H2356 C2364 0.950 . S
H2357 C2369 0.950 . S
H2358 C2366 0.950 . S
H2359 C2368 0.950 . S
H2360 C2370 0.950 . S
H2361 C2372 0.950 . S
H2362 C2374 0.950 . S
H2363 C2375 0.950 . S
C2364 H2356 0.950 . S
C2364 C2365 1.386 . S
C2364 C2366 1.391 . S
C2365 C2364 1.386 . S
C2365 C2369 1.393 . S
C2366 H2358 0.950 . S
C2366 C2364 1.391 . S
C2366 C2367 1.400 . S
C2367 C2366 1.400 . S
C2367 C2368 1.398 . S
C2367 C2373 1.491 . S
C2368 H2359 0.950 . S
C2368 C2367 1.398 . S
C2368 C2369 1.391 . S
C2369 H2357 0.950 . S
C2369 C2365 1.393 . S
C2369 C2368 1.391 . S
C2370 H2360 0.950 . S
C2370 C2371 1.386 . S
C2370 C2372 1.391 . S
C2371 C2370 1.386 . S
C2371 C2375 1.393 . S
C2372 H2361 0.950 . S
C2372 C2370 1.391 . S
C2372 C2373 1.400 . S
C2373 C2367 1.491 . S
C2373 C2372 1.400 . S
C2373 C2374 1.398 . S
C2374 H2362 0.950 . S
C2374 C2373 1.398 . S
C2374 C2375 1.391 . S
C2375 H2363 0.950 . S
C2375 C2371 1.393 . S
C2375 C2374 1.391 . S
H2376 C2384 0.950 . S
H2377 C2389 0.950 . S
H2378 C2386 0.950 . S
H2379 C2388 0.950 . S
H2380 C2390 0.950 . S
H2381 C2392 0.950 . S
H2382 C2394 0.950 . S
H2383 C2395 0.950 . S
C2384 H2376 0.950 . S
C2384 C2385 1.386 . S
C2384 C2386 1.391 . S
C2385 C2384 1.386 . S
C2385 C2389 1.393 . S
C2386 H2378 0.950 . S
C2386 C2384 1.391 . S
C2386 C2387 1.400 . S
C2387 C2386 1.400 . S
C2387 C2388 1.398 . S
C2387 C2393 1.491 . S
C2388 H2379 0.950 . S
C2388 C2387 1.398 . S
C2388 C2389 1.391 . S
C2389 H2377 0.950 . S
C2389 C2385 1.393 . S
C2389 C2388 1.391 . S
C2390 H2380 0.950 . S
C2390 C2391 1.386 . S
C2390 C2392 1.391 . S
C2391 C2390 1.386 . S
C2391 C2395 1.393 . S
C2392 H2381 0.950 . S
C2392 C2390 1.391 . S
C2392 C2393 1.400 . S
C2393 C2387 1.491 . S
C2393 C2392 1.400 . S
C2393 C2394 1.398 . S
C2394 H2382 0.950 . S
C2394 C2393 1.398 . S
C2394 C2395 1.391 . S
C2395 H2383 0.950 . S
C2395 C2391 1.393 . S
C2395 C2394 1.391 . S
H2396 C2404 0.950 . S
H2397 C2409 0.950 . S
H2398 C2406 0.950 . S
H2399 C2408 0.950 . S
H2400 C2410 0.950 . S
H2401 C2412 0.950 . S
H2402 C2414 0.950 . S
H2403 C2415 0.950 . S
C2404 H2396 0.950 . S
C2404 C2405 1.386 . S
C2404 C2406 1.391 . S
C2405 C2404 1.386 . S
C2405 C2409 1.393 . S
C2406 H2398 0.950 . S
C2406 C2404 1.391 . S
C2406 C2407 1.400 . S
C2407 C2406 1.400 . S
C2407 C2408 1.398 . S
C2407 C2413 1.491 . S
C2408 H2399 0.950 . S
C2408 C2407 1.398 . S
C2408 C2409 1.391 . S
C2409 H2397 0.950 . S
C2409 C2405 1.393 . S
C2409 C2408 1.391 . S
C2410 H2400 0.950 . S
C2410 C2411 1.386 . S
C2410 C2412 1.391 . S
C2411 C2410 1.386 . S
C2411 C2415 1.393 . S
C2412 H2401 0.950 . S
C2412 C2410 1.391 . S
C2412 C2413 1.400 . S
C2413 C2407 1.491 . S
C2413 C2412 1.400 . S
C2413 C2414 1.398 . S
C2414 H2402 0.950 . S
C2414 C2413 1.398 . S
C2414 C2415 1.391 . S
C2415 H2403 0.950 . S
C2415 C2411 1.393 . S
C2415 C2414 1.391 . S
H2416 C2424 0.950 . S
H2417 C2429 0.950 . S
H2418 C2426 0.950 . S
H2419 C2428 0.950 . S
H2420 C2430 0.950 . S
H2421 C2432 0.950 . S
H2422 C2434 0.950 . S
H2423 C2435 0.950 . S
C2424 H2416 0.950 . S
C2424 C2425 1.386 . S
C2424 C2426 1.391 . S
C2425 C2424 1.386 . S
C2425 C2429 1.393 . S
C2426 H2418 0.950 . S
C2426 C2424 1.391 . S
C2426 C2427 1.400 . S
C2427 C2426 1.400 . S
C2427 C2428 1.398 . S
C2427 C2433 1.491 . S
C2428 H2419 0.950 . S
C2428 C2427 1.398 . S
C2428 C2429 1.391 . S
C2429 H2417 0.950 . S
C2429 C2425 1.393 . S
C2429 C2428 1.391 . S
C2430 H2420 0.950 . S
C2430 C2431 1.386 . S
C2430 C2432 1.391 . S
C2431 C2430 1.386 . S
C2431 C2435 1.393 . S
C2432 H2421 0.950 . S
C2432 C2430 1.391 . S
C2432 C2433 1.400 . S
C2433 C2427 1.491 . S
C2433 C2432 1.400 . S
C2433 C2434 1.398 . S
C2434 H2422 0.950 . S
C2434 C2433 1.398 . S
C2434 C2435 1.391 . S
C2435 H2423 0.950 . S
C2435 C2431 1.393 . S
C2435 C2434 1.391 . S
H2436 C2444 0.950 . S
H2437 C2449 0.950 . S
H2438 C2446 0.950 . S
H2439 C2448 0.950 . S
H2440 C2450 0.950 . S
H2441 C2452 0.950 . S
H2442 C2454 0.950 . S
H2443 C2455 0.950 . S
C2444 H2436 0.950 . S
C2444 C2445 1.386 . S
C2444 C2446 1.391 . S
C2445 C2444 1.386 . S
C2445 C2449 1.393 . S
C2446 H2438 0.950 . S
C2446 C2444 1.391 . S
C2446 C2447 1.400 . S
C2447 C2446 1.400 . S
C2447 C2448 1.398 . S
C2447 C2453 1.491 . S
C2448 H2439 0.950 . S
C2448 C2447 1.398 . S
C2448 C2449 1.391 . S
C2449 H2437 0.950 . S
C2449 C2445 1.393 . S
C2449 C2448 1.391 . S
C2450 H2440 0.950 . S
C2450 C2451 1.386 . S
C2450 C2452 1.391 . S
C2451 C2450 1.386 . S
C2451 C2455 1.393 . S
C2452 H2441 0.950 . S
C2452 C2450 1.391 . S
C2452 C2453 1.400 . S
C2453 C2447 1.491 . S
C2453 C2452 1.400 . S
C2453 C2454 1.398 . S
C2454 H2442 0.950 . S
C2454 C2453 1.398 . S
C2454 C2455 1.391 . S
C2455 H2443 0.950 . S
C2455 C2451 1.393 . S
C2455 C2454 1.391 . S
H2456 C2464 0.950 . S
H2457 C2469 0.950 . S
H2458 C2466 0.950 . S
H2459 C2468 0.950 . S
H2460 C2470 0.950 . S
H2461 C2472 0.950 . S
H2462 C2474 0.950 . S
H2463 C2475 0.950 . S
C2464 H2456 0.950 . S
C2464 C2465 1.386 . S
C2464 C2466 1.391 . S
C2465 C2464 1.386 . S
C2465 C2469 1.393 . S
C2466 H2458 0.950 . S
C2466 C2464 1.391 . S
C2466 C2467 1.400 . S
C2467 C2466 1.400 . S
C2467 C2468 1.398 . S
C2467 C2473 1.491 . S
C2468 H2459 0.950 . S
C2468 C2467 1.398 . S
C2468 C2469 1.391 . S
C2469 H2457 0.950 . S
C2469 C2465 1.393 . S
C2469 C2468 1.391 . S
C2470 H2460 0.950 . S
C2470 C2471 1.386 . S
C2470 C2472 1.391 . S
C2471 C2470 1.386 . S
C2471 C2475 1.393 . S
C2472 H2461 0.950 . S
C2472 C2470 1.391 . S
C2472 C2473 1.400 . S
C2473 C2467 1.491 . S
C2473 C2472 1.400 . S
C2473 C2474 1.398 . S
C2474 H2462 0.950 . S
C2474 C2473 1.398 . S
C2474 C2475 1.391 . S
C2475 H2463 0.950 . S
C2475 C2471 1.393 . S
C2475 C2474 1.391 . S
H2476 C2484 0.950 . S
H2477 C2489 0.950 . S
H2478 C2486 0.950 . S
H2479 C2488 0.950 . S
H2480 C2490 0.950 . S
H2481 C2492 0.950 . S
H2482 C2494 0.950 . S
H2483 C2495 0.950 . S
C2484 H2476 0.950 . S
C2484 C2485 1.386 . S
C2484 C2486 1.391 . S
C2485 C2484 1.386 . S
C2485 C2489 1.393 . S
C2486 H2478 0.950 . S
C2486 C2484 1.391 . S
C2486 C2487 1.400 . S
C2487 C2486 1.400 . S
C2487 C2488 1.398 . S
C2487 C2493 1.491 . S
C2488 H2479 0.950 . S
C2488 C2487 1.398 . S
C2488 C2489 1.391 . S
C2489 H2477 0.950 . S
C2489 C2485 1.393 . S
C2489 C2488 1.391 . S
C2490 H2480 0.950 . S
C2490 C2491 1.386 . S
C2490 C2492 1.391 . S
C2491 C2490 1.386 . S
C2491 C2495 1.393 . S
C2492 H2481 0.950 . S
C2492 C2490 1.391 . S
C2492 C2493 1.400 . S
C2493 C2487 1.491 . S
C2493 C2492 1.400 . S
C2493 C2494 1.398 . S
C2494 H2482 0.950 . S
C2494 C2493 1.398 . S
C2494 C2495 1.391 . S
C2495 H2483 0.950 . S
C2495 C2491 1.393 . S
C2495 C2494 1.391 . S
H2496 C2504 0.950 . S
H2497 C2509 0.950 . S
H2498 C2506 0.950 . S
H2499 C2508 0.950 . S
H2500 C2510 0.950 . S
H2501 C2512 0.950 . S
H2502 C2514 0.950 . S
H2503 C2515 0.950 . S
C2504 H2496 0.950 . S
C2504 C2505 1.386 . S
C2504 C2506 1.391 . S
C2505 C2504 1.386 . S
C2505 C2509 1.393 . S
C2506 H2498 0.950 . S
C2506 C2504 1.391 . S
C2506 C2507 1.400 . S
C2507 C2506 1.400 . S
C2507 C2508 1.398 . S
C2507 C2513 1.491 . S
C2508 H2499 0.950 . S
C2508 C2507 1.398 . S
C2508 C2509 1.391 . S
C2509 H2497 0.950 . S
C2509 C2505 1.393 . S
C2509 C2508 1.391 . S
C2510 H2500 0.950 . S
C2510 C2511 1.386 . S
C2510 C2512 1.391 . S
C2511 C2510 1.386 . S
C2511 C2515 1.393 . S
C2512 H2501 0.950 . S
C2512 C2510 1.391 . S
C2512 C2513 1.400 . S
C2513 C2507 1.491 . S
C2513 C2512 1.400 . S
C2513 C2514 1.398 . S
C2514 H2502 0.950 . S
C2514 C2513 1.398 . S
C2514 C2515 1.391 . S
C2515 H2503 0.950 . S
C2515 C2511 1.393 . S
C2515 C2514 1.391 . S
H2516 C2524 0.950 . S
H2517 C2529 0.950 . S
H2518 C2526 0.950 . S
H2519 C2528 0.950 . S
H2520 C2530 0.950 . S
H2521 C2532 0.950 . S
H2522 C2534 0.950 . S
H2523 C2535 0.950 . S
C2524 H2516 0.950 . S
C2524 C2525 1.386 . S
C2524 C2526 1.391 . S
C2525 C2524 1.386 . S
C2525 C2529 1.393 . S
C2526 H2518 0.950 . S
C2526 C2524 1.391 . S
C2526 C2527 1.400 . S
C2527 C2526 1.400 . S
C2527 C2528 1.398 . S
C2527 C2533 1.491 . S
C2528 H2519 0.950 . S
C2528 C2527 1.398 . S
C2528 C2529 1.391 . S
C2529 H2517 0.950 . S
C2529 C2525 1.393 . S
C2529 C2528 1.391 . S
C2530 H2520 0.950 . S
C2530 C2531 1.386 . S
C2530 C2532 1.391 . S
C2531 C2530 1.386 . S
C2531 C2535 1.393 . S
C2532 H2521 0.950 . S
C2532 C2530 1.391 . S
C2532 C2533 1.400 . S
C2533 C2527 1.491 . S
C2533 C2532 1.400 . S
C2533 C2534 1.398 . S
C2534 H2522 0.950 . S
C2534 C2533 1.398 . S
C2534 C2535 1.391 . S
C2535 H2523 0.950 . S
C2535 C2531 1.393 . S
C2535 C2534 1.391 . S
H2536 C2544 0.950 . S
H2537 C2549 0.950 . S
H2538 C2546 0.950 . S
H2539 C2548 0.950 . S
H2540 C2550 0.950 . S
H2541 C2552 0.950 . S
H2542 C2554 0.950 . S
H2543 C2555 0.950 . S
C2544 H2536 0.950 . S
C2544 C2545 1.386 . S
C2544 C2546 1.391 . S
C2545 C2544 1.386 . S
C2545 C2549 1.393 . S
C2546 H2538 0.950 . S
C2546 C2544 1.391 . S
C2546 C2547 1.400 . S
C2547 C2546 1.400 . S
C2547 C2548 1.398 . S
C2547 C2553 1.491 . S
C2548 H2539 0.950 . S
C2548 C2547 1.398 . S
C2548 C2549 1.391 . S
C2549 H2537 0.950 . S
C2549 C2545 1.393 . S
C2549 C2548 1.391 . S
C2550 H2540 0.950 . S
C2550 C2551 1.386 . S
C2550 C2552 1.391 . S
C2551 C2550 1.386 . S
C2551 C2555 1.393 . S
C2552 H2541 0.950 . S
C2552 C2550 1.391 . S
C2552 C2553 1.400 . S
C2553 C2547 1.491 . S
C2553 C2552 1.400 . S
C2553 C2554 1.398 . S
C2554 H2542 0.950 . S
C2554 C2553 1.398 . S
C2554 C2555 1.391 . S
C2555 H2543 0.950 . S
C2555 C2551 1.393 . S
C2555 C2554 1.391 . S
H2556 C2564 0.950 . S
H2557 C2569 0.950 . S
H2558 C2566 0.950 . S
H2559 C2568 0.950 . S
H2560 C2570 0.950 . S
H2561 C2572 0.950 . S
H2562 C2574 0.950 . S
H2563 C2575 0.950 . S
C2564 H2556 0.950 . S
C2564 C2565 1.386 . S
C2564 C2566 1.391 . S
C2565 C2564 1.386 . S
C2565 C2569 1.393 . S
C2566 H2558 0.950 . S
C2566 C2564 1.391 . S
C2566 C2567 1.400 . S
C2567 C2566 1.400 . S
C2567 C2568 1.398 . S
C2567 C2573 1.491 . S
C2568 H2559 0.950 . S
C2568 C2567 1.398 . S
C2568 C2569 1.391 . S
C2569 H2557 0.950 . S
C2569 C2565 1.393 . S
C2569 C2568 1.391 . S
C2570 H2560 0.950 . S
C2570 C2571 1.386 . S
C2570 C2572 1.391 . S
C2571 C2570 1.386 . S
C2571 C2575 1.393 . S
C2572 H2561 0.950 . S
C2572 C2570 1.391 . S
C2572 C2573 1.400 . S
C2573 C2567 1.491 . S
C2573 C2572 1.400 . S
C2573 C2574 1.398 . S
C2574 H2562 0.950 . S
C2574 C2573 1.398 . S
C2574 C2575 1.391 . S
C2575 H2563 0.950 . S
C2575 C2571 1.393 . S
C2575 C2574 1.391 . S
H2576 C2584 0.950 . S
H2577 C2589 0.950 . S
H2578 C2586 0.950 . S
H2579 C2588 0.950 . S
H2580 C2590 0.950 . S
H2581 C2592 0.950 . S
H2582 C2594 0.950 . S
H2583 C2595 0.950 . S
C2584 H2576 0.950 . S
C2584 C2585 1.386 . S
C2584 C2586 1.391 . S
C2585 C2584 1.386 . S
C2585 C2589 1.393 . S
C2586 H2578 0.950 . S
C2586 C2584 1.391 . S
C2586 C2587 1.400 . S
C2587 C2586 1.400 . S
C2587 C2588 1.398 . S
C2587 C2593 1.491 . S
C2588 H2579 0.950 . S
C2588 C2587 1.398 . S
C2588 C2589 1.391 . S
C2589 H2577 0.950 . S
C2589 C2585 1.393 . S
C2589 C2588 1.391 . S
C2590 H2580 0.950 . S
C2590 C2591 1.386 . S
C2590 C2592 1.391 . S
C2591 C2590 1.386 . S
C2591 C2595 1.393 . S
C2592 H2581 0.950 . S
C2592 C2590 1.391 . S
C2592 C2593 1.400 . S
C2593 C2587 1.491 . S
C2593 C2592 1.400 . S
C2593 C2594 1.398 . S
C2594 H2582 0.950 . S
C2594 C2593 1.398 . S
C2594 C2595 1.391 . S
C2595 H2583 0.950 . S
C2595 C2591 1.393 . S
C2595 C2594 1.391 . S
H2596 C2604 0.950 . S
H2597 C2609 0.950 . S
H2598 C2606 0.950 . S
H2599 C2608 0.950 . S
H2600 C2610 0.950 . S
H2601 C2612 0.950 . S
H2602 C2614 0.950 . S
H2603 C2615 0.950 . S
C2604 H2596 0.950 . S
C2604 C2605 1.386 . S
C2604 C2606 1.391 . S
C2605 C2604 1.386 . S
C2605 C2609 1.393 . S
C2606 H2598 0.950 . S
C2606 C2604 1.391 . S
C2606 C2607 1.400 . S
C2607 C2606 1.400 . S
C2607 C2608 1.398 . S
C2607 C2613 1.491 . S
C2608 H2599 0.950 . S
C2608 C2607 1.398 . S
C2608 C2609 1.391 . S
C2609 H2597 0.950 . S
C2609 C2605 1.393 . S
C2609 C2608 1.391 . S
C2610 H2600 0.950 . S
C2610 C2611 1.386 . S
C2610 C2612 1.391 . S
C2611 C2610 1.386 . S
C2611 C2615 1.393 . S
C2612 H2601 0.950 . S
C2612 C2610 1.391 . S
C2612 C2613 1.400 . S
C2613 C2607 1.491 . S
C2613 C2612 1.400 . S
C2613 C2614 1.398 . S
C2614 H2602 0.950 . S
C2614 C2613 1.398 . S
C2614 C2615 1.391 . S
C2615 H2603 0.950 . S
C2615 C2611 1.393 . S
C2615 C2614 1.391 . S
H2616 C2624 0.950 . S
H2617 C2629 0.950 . S
H2618 C2626 0.950 . S
H2619 C2628 0.950 . S
H2620 C2630 0.950 . S
H2621 C2632 0.950 . S
H2622 C2634 0.950 . S
H2623 C2635 0.950 . S
C2624 H2616 0.950 . S
C2624 C2625 1.386 . S
C2624 C2626 1.391 1_655 S
C2625 C2624 1.386 . S
C2625 C2629 1.393 . S
C2626 H2618 0.950 . S
C2626 C2624 1.391 1_455 S
C2626 C2627 1.400 1_455 S
C2627 C2626 1.400 1_655 S
C2627 C2628 1.398 . S
C2627 C2633 1.491 1_655 S
C2628 H2619 0.950 . S
C2628 C2627 1.398 . S
C2628 C2629 1.391 . S
C2629 H2617 0.950 . S
C2629 C2625 1.393 . S
C2629 C2628 1.391 . S
C2630 H2620 0.950 . S
C2630 C2631 1.386 . S
C2630 C2632 1.391 1_455 S
C2631 C2630 1.386 . S
C2631 C2635 1.393 . S
C2632 H2621 0.950 . S
C2632 C2630 1.391 1_655 S
C2632 C2633 1.400 1_655 S
C2633 C2627 1.491 1_455 S
C2633 C2632 1.400 1_455 S
C2633 C2634 1.398 . S
C2634 H2622 0.950 . S
C2634 C2633 1.398 . S
C2634 C2635 1.391 . S
C2635 H2623 0.950 . S
C2635 C2631 1.393 . S
C2635 C2634 1.391 . S
H2636 C2644 0.950 . S
H2637 C2649 0.950 . S
H2638 C2646 0.950 . S
H2639 C2648 0.950 . S
H2640 C2650 0.950 . S
H2641 C2652 0.950 . S
H2642 C2654 0.950 . S
H2643 C2655 0.950 . S
C2644 H2636 0.950 . S
C2644 C2645 1.386 . S
C2644 C2646 1.391 . S
C2645 C2644 1.386 . S
C2645 C2649 1.393 . S
C2646 H2638 0.950 . S
C2646 C2644 1.391 . S
C2646 C2647 1.400 . S
C2647 C2646 1.400 . S
C2647 C2648 1.398 . S
C2647 C2653 1.491 . S
C2648 H2639 0.950 . S
C2648 C2647 1.398 . S
C2648 C2649 1.391 . S
C2649 H2637 0.950 . S
C2649 C2645 1.393 . S
C2649 C2648 1.391 . S
C2650 H2640 0.950 . S
C2650 C2651 1.386 . S
C2650 C2652 1.391 . S
C2651 C2650 1.386 . S
C2651 C2655 1.393 . S
C2652 H2641 0.950 . S
C2652 C2650 1.391 . S
C2652 C2653 1.400 . S
C2653 C2647 1.491 . S
C2653 C2652 1.400 . S
C2653 C2654 1.398 . S
C2654 H2642 0.950 . S
C2654 C2653 1.398 . S
C2654 C2655 1.391 . S
C2655 H2643 0.950 . S
C2655 C2651 1.393 . S
C2655 C2654 1.391 . S
H2656 C2664 0.950 . S
H2657 C2669 0.950 . S
H2658 C2666 0.950 . S
H2659 C2668 0.950 . S
H2660 C2670 0.950 . S
H2661 C2672 0.950 . S
H2662 C2674 0.950 . S
H2663 C2675 0.950 . S
C2664 H2656 0.950 . S
C2664 C2665 1.386 . S
C2664 C2666 1.391 . S
C2665 C2664 1.386 . S
C2665 C2669 1.393 . S
C2666 H2658 0.950 . S
C2666 C2664 1.391 . S
C2666 C2667 1.400 . S
C2667 C2666 1.400 . S
C2667 C2668 1.398 . S
C2667 C2673 1.491 . S
C2668 H2659 0.950 . S
C2668 C2667 1.398 . S
C2668 C2669 1.391 . S
C2669 H2657 0.950 . S
C2669 C2665 1.393 . S
C2669 C2668 1.391 . S
C2670 H2660 0.950 . S
C2670 C2671 1.386 . S
C2670 C2672 1.391 . S
C2671 C2670 1.386 . S
C2671 C2675 1.393 . S
C2672 H2661 0.950 . S
C2672 C2670 1.391 . S
C2672 C2673 1.400 . S
C2673 C2667 1.491 . S
C2673 C2672 1.400 . S
C2673 C2674 1.398 . S
C2674 H2662 0.950 . S
C2674 C2673 1.398 . S
C2674 C2675 1.391 . S
C2675 H2663 0.950 . S
C2675 C2671 1.393 . S
C2675 C2674 1.391 . S
H2676 C2684 0.950 . S
H2677 C2689 0.950 . S
H2678 C2686 0.950 . S
H2679 C2688 0.950 . S
H2680 C2690 0.950 . S
H2681 C2692 0.950 . S
H2682 C2694 0.950 . S
H2683 C2695 0.950 . S
C2684 H2676 0.950 . S
C2684 C2685 1.386 . S
C2684 C2686 1.391 . S
C2685 C2684 1.386 . S
C2685 C2689 1.393 . S
C2686 H2678 0.950 . S
C2686 C2684 1.391 . S
C2686 C2687 1.400 . S
C2687 C2686 1.400 . S
C2687 C2688 1.398 . S
C2687 C2693 1.491 . S
C2688 H2679 0.950 . S
C2688 C2687 1.398 . S
C2688 C2689 1.391 . S
C2689 H2677 0.950 . S
C2689 C2685 1.393 . S
C2689 C2688 1.391 . S
C2690 H2680 0.950 . S
C2690 C2691 1.386 . S
C2690 C2692 1.391 . S
C2691 C2690 1.386 . S
C2691 C2695 1.393 . S
C2692 H2681 0.950 . S
C2692 C2690 1.391 . S
C2692 C2693 1.400 . S
C2693 C2687 1.491 . S
C2693 C2692 1.400 . S
C2693 C2694 1.398 . S
C2694 H2682 0.950 . S
C2694 C2693 1.398 . S
C2694 C2695 1.391 . S
C2695 H2683 0.950 . S
C2695 C2691 1.393 . S
C2695 C2694 1.391 . S
H2696 C2704 0.950 . S
H2697 C2709 0.950 . S
H2698 C2706 0.950 . S
H2699 C2708 0.950 . S
H2700 C2710 0.950 . S
H2701 C2712 0.950 . S
H2702 C2714 0.950 . S
H2703 C2715 0.950 1_455 S
C2704 H2696 0.950 . S
C2704 C2705 1.386 . S
C2704 C2706 1.391 . S
C2705 C2704 1.386 . S
C2705 C2709 1.393 . S
C2706 H2698 0.950 . S
C2706 C2704 1.391 . S
C2706 C2707 1.400 . S
C2707 C2706 1.400 . S
C2707 C2708 1.398 . S
C2707 C2713 1.491 . S
C2708 H2699 0.950 . S
C2708 C2707 1.398 . S
C2708 C2709 1.391 . S
C2709 H2697 0.950 . S
C2709 C2705 1.393 . S
C2709 C2708 1.391 . S
C2710 H2700 0.950 . S
C2710 C2711 1.386 . S
C2710 C2712 1.391 . S
C2711 C2710 1.386 . S
C2711 C2715 1.393 . S
C2712 H2701 0.950 . S
C2712 C2710 1.391 . S
C2712 C2713 1.400 . S
C2713 C2707 1.491 . S
C2713 C2712 1.400 . S
C2713 C2714 1.398 . S
C2714 H2702 0.950 . S
C2714 C2713 1.398 . S
C2714 C2715 1.391 . S
C2715 H2703 0.950 1_655 S
C2715 C2711 1.393 . S
C2715 C2714 1.391 . S
H2716 C2724 0.950 . S
H2717 C2729 0.950 . S
H2718 C2726 0.950 . S
H2719 C2728 0.950 . S
H2720 C2730 0.950 . S
H2721 C2732 0.950 . S
H2722 C2734 0.950 . S
H2723 C2735 0.950 . S
C2724 H2716 0.950 . S
C2724 C2725 1.386 . S
C2724 C2726 1.391 . S
C2725 C2724 1.386 . S
C2725 C2729 1.393 . S
C2726 H2718 0.950 . S
C2726 C2724 1.391 . S
C2726 C2727 1.400 . S
C2727 C2726 1.400 . S
C2727 C2728 1.398 . S
C2727 C2733 1.491 . S
C2728 H2719 0.950 . S
C2728 C2727 1.398 . S
C2728 C2729 1.391 . S
C2729 H2717 0.950 . S
C2729 C2725 1.393 . S
C2729 C2728 1.391 . S
C2730 H2720 0.950 . S
C2730 C2731 1.386 . S
C2730 C2732 1.391 . S
C2731 C2730 1.386 . S
C2731 C2735 1.393 . S
C2732 H2721 0.950 . S
C2732 C2730 1.391 . S
C2732 C2733 1.400 . S
C2733 C2727 1.491 . S
C2733 C2732 1.400 . S
C2733 C2734 1.398 . S
C2734 H2722 0.950 . S
C2734 C2733 1.398 . S
C2734 C2735 1.391 . S
C2735 H2723 0.950 . S
C2735 C2731 1.393 . S
C2735 C2734 1.391 . S
H2736 C2744 0.950 . S
H2737 C2749 0.950 . S
H2738 C2746 0.950 . S
H2739 C2748 0.950 . S
H2740 C2750 0.950 . S
H2741 C2752 0.950 . S
H2742 C2754 0.950 . S
H2743 C2755 0.950 . S
C2744 H2736 0.950 . S
C2744 C2745 1.386 . S
C2744 C2746 1.391 . S
C2745 C2744 1.386 . S
C2745 C2749 1.393 . S
C2746 H2738 0.950 . S
C2746 C2744 1.391 . S
C2746 C2747 1.400 . S
C2747 C2746 1.400 . S
C2747 C2748 1.398 . S
C2747 C2753 1.491 . S
C2748 H2739 0.950 . S
C2748 C2747 1.398 . S
C2748 C2749 1.391 . S
C2749 H2737 0.950 . S
C2749 C2745 1.393 . S
C2749 C2748 1.391 . S
C2750 H2740 0.950 . S
C2750 C2751 1.386 . S
C2750 C2752 1.391 . S
C2751 C2750 1.386 . S
C2751 C2755 1.393 . S
C2752 H2741 0.950 . S
C2752 C2750 1.391 . S
C2752 C2753 1.400 . S
C2753 C2747 1.491 . S
C2753 C2752 1.400 . S
C2753 C2754 1.398 . S
C2754 H2742 0.950 . S
C2754 C2753 1.398 . S
C2754 C2755 1.391 . S
C2755 H2743 0.950 . S
C2755 C2751 1.393 . S
C2755 C2754 1.391 . S
H2756 C2764 0.950 . S
H2757 C2769 0.950 . S
H2758 C2766 0.950 . S
H2759 C2768 0.950 . S
H2760 C2770 0.950 . S
H2761 C2772 0.950 . S
H2762 C2774 0.950 . S
H2763 C2775 0.950 . S
C2764 H2756 0.950 . S
C2764 C2765 1.386 . S
C2764 C2766 1.391 . S
C2765 C2764 1.386 . S
C2765 C2769 1.393 . S
C2766 H2758 0.950 . S
C2766 C2764 1.391 . S
C2766 C2767 1.400 . S
C2767 C2766 1.400 . S
C2767 C2768 1.398 . S
C2767 C2773 1.491 . S
C2768 H2759 0.950 . S
C2768 C2767 1.398 . S
C2768 C2769 1.391 . S
C2769 H2757 0.950 . S
C2769 C2765 1.393 . S
C2769 C2768 1.391 . S
C2770 H2760 0.950 . S
C2770 C2771 1.386 . S
C2770 C2772 1.391 . S
C2771 C2770 1.386 . S
C2771 C2775 1.393 1_565 S
C2772 H2761 0.950 . S
C2772 C2770 1.391 . S
C2772 C2773 1.400 . S
C2773 C2767 1.491 . S
C2773 C2772 1.400 . S
C2773 C2774 1.398 . S
C2774 H2762 0.950 . S
C2774 C2773 1.398 . S
C2774 C2775 1.391 1_565 S
C2775 H2763 0.950 . S
C2775 C2771 1.393 1_545 S
C2775 C2774 1.391 1_545 S
H2776 C2784 0.950 . S
H2777 C2789 0.950 . S
H2778 C2786 0.950 . S
H2779 C2788 0.950 . S
H2780 C2790 0.950 . S
H2781 C2792 0.950 . S
H2782 C2794 0.950 . S
H2783 C2795 0.950 . S
C2784 H2776 0.950 . S
C2784 C2785 1.386 . S
C2784 C2786 1.391 . S
C2785 C2784 1.386 . S
C2785 C2789 1.393 . S
C2786 H2778 0.950 . S
C2786 C2784 1.391 . S
C2786 C2787 1.400 . S
C2787 C2786 1.400 . S
C2787 C2788 1.398 . S
C2787 C2793 1.491 . S
C2788 H2779 0.950 . S
C2788 C2787 1.398 . S
C2788 C2789 1.391 . S
C2789 H2777 0.950 . S
C2789 C2785 1.393 . S
C2789 C2788 1.391 . S
C2790 H2780 0.950 . S
C2790 C2791 1.386 . S
C2790 C2792 1.391 . S
C2791 C2790 1.386 . S
C2791 C2795 1.393 . S
C2792 H2781 0.950 . S
C2792 C2790 1.391 . S
C2792 C2793 1.400 . S
C2793 C2787 1.491 . S
C2793 C2792 1.400 . S
C2793 C2794 1.398 . S
C2794 H2782 0.950 . S
C2794 C2793 1.398 . S
C2794 C2795 1.391 . S
C2795 H2783 0.950 . S
C2795 C2791 1.393 . S
C2795 C2794 1.391 . S
H2796 C2804 0.950 . S
H2797 C2809 0.950 1_556 S
H2798 C2806 0.950 . S
H2799 C2808 0.950 1_556 S
H2800 C2810 0.950 . S
H2801 C2812 0.950 . S
H2802 C2814 0.950 . S
H2803 C2815 0.950 . S
C2804 H2796 0.950 . S
C2804 C2805 1.386 . S
C2804 C2806 1.391 . S
C2805 C2804 1.386 . S
C2805 C2809 1.393 . S
C2806 H2798 0.950 . S
C2806 C2804 1.391 . S
C2806 C2807 1.400 . S
C2807 C2806 1.400 . S
C2807 C2808 1.398 . S
C2807 C2813 1.491 . S
C2808 H2799 0.950 1_554 S
C2808 C2807 1.398 . S
C2808 C2809 1.391 . S
C2809 H2797 0.950 1_554 S
C2809 C2805 1.393 . S
C2809 C2808 1.391 . S
C2810 H2800 0.950 . S
C2810 C2811 1.386 . S
C2810 C2812 1.391 . S
C2811 C2810 1.386 . S
C2811 C2815 1.393 . S
C2812 H2801 0.950 . S
C2812 C2810 1.391 . S
C2812 C2813 1.400 . S
C2813 C2807 1.491 . S
C2813 C2812 1.400 . S
C2813 C2814 1.398 . S
C2814 H2802 0.950 . S
C2814 C2813 1.398 . S
C2814 C2815 1.391 . S
C2815 H2803 0.950 . S
C2815 C2811 1.393 . S
C2815 C2814 1.391 . S
H2816 C2824 0.950 . S
H2817 C2829 0.950 . S
H2818 C2826 0.950 . S
H2819 C2828 0.950 . S
H2820 C2830 0.950 . S
H2821 C2832 0.950 . S
H2822 C2834 0.950 . S
H2823 C2835 0.950 . S
C2824 H2816 0.950 . S
C2824 C2825 1.386 . S
C2824 C2826 1.391 . S
C2825 C2824 1.386 . S
C2825 C2829 1.393 . S
C2826 H2818 0.950 . S
C2826 C2824 1.391 . S
C2826 C2827 1.400 . S
C2827 C2826 1.400 . S
C2827 C2828 1.398 . S
C2827 C2833 1.491 . S
C2828 H2819 0.950 . S
C2828 C2827 1.398 . S
C2828 C2829 1.391 . S
C2829 H2817 0.950 . S
C2829 C2825 1.393 . S
C2829 C2828 1.391 . S
C2830 H2820 0.950 . S
C2830 C2831 1.386 . S
C2830 C2832 1.391 . S
C2831 C2830 1.386 . S
C2831 C2835 1.393 . S
C2832 H2821 0.950 . S
C2832 C2830 1.391 . S
C2832 C2833 1.400 . S
C2833 C2827 1.491 . S
C2833 C2832 1.400 . S
C2833 C2834 1.398 . S
C2834 H2822 0.950 . S
C2834 C2833 1.398 . S
C2834 C2835 1.391 . S
C2835 H2823 0.950 . S
C2835 C2831 1.393 . S
C2835 C2834 1.391 . S
H2836 C2844 0.950 . S
H2837 C2849 0.950 . S
H2838 C2846 0.950 . S
H2839 C2848 0.950 . S
H2840 C2850 0.950 . S
H2841 C2852 0.950 . S
H2842 C2854 0.950 . S
H2843 C2855 0.950 . S
C2844 H2836 0.950 . S
C2844 C2845 1.386 . S
C2844 C2846 1.391 . S
C2845 C2844 1.386 . S
C2845 C2849 1.393 . S
C2846 H2838 0.950 . S
C2846 C2844 1.391 . S
C2846 C2847 1.400 . S
C2847 C2846 1.400 . S
C2847 C2848 1.398 . S
C2847 C2853 1.491 . S
C2848 H2839 0.950 . S
C2848 C2847 1.398 . S
C2848 C2849 1.391 . S
C2849 H2837 0.950 . S
C2849 C2845 1.393 . S
C2849 C2848 1.391 . S
C2850 H2840 0.950 . S
C2850 C2851 1.386 . S
C2850 C2852 1.391 . S
C2851 C2850 1.386 . S
C2851 C2855 1.393 . S
C2852 H2841 0.950 . S
C2852 C2850 1.391 . S
C2852 C2853 1.400 . S
C2853 C2847 1.491 . S
C2853 C2852 1.400 . S
C2853 C2854 1.398 . S
C2854 H2842 0.950 . S
C2854 C2853 1.398 . S
C2854 C2855 1.391 . S
C2855 H2843 0.950 . S
C2855 C2851 1.393 . S
C2855 C2854 1.391 . S
H2856 C2864 0.950 . S
H2857 C2869 0.950 . S
H2858 C2866 0.950 . S
H2859 C2868 0.950 . S
H2860 C2870 0.950 . S
H2861 C2872 0.950 . S
H2862 C2874 0.950 . S
H2863 C2875 0.950 . S
C2864 H2856 0.950 . S
C2864 C2865 1.386 . S
C2864 C2866 1.391 . S
C2865 C2864 1.386 . S
C2865 C2869 1.393 . S
C2866 H2858 0.950 . S
C2866 C2864 1.391 . S
C2866 C2867 1.400 . S
C2867 C2866 1.400 . S
C2867 C2868 1.398 . S
C2867 C2873 1.491 . S
C2868 H2859 0.950 . S
C2868 C2867 1.398 . S
C2868 C2869 1.391 . S
C2869 H2857 0.950 . S
C2869 C2865 1.393 . S
C2869 C2868 1.391 . S
C2870 H2860 0.950 . S
C2870 C2871 1.386 . S
C2870 C2872 1.391 . S
C2871 C2870 1.386 . S
C2871 C2875 1.393 . S
C2872 H2861 0.950 . S
C2872 C2870 1.391 . S
C2872 C2873 1.400 . S
C2873 C2867 1.491 . S
C2873 C2872 1.400 . S
C2873 C2874 1.398 . S
C2874 H2862 0.950 . S
C2874 C2873 1.398 . S
C2874 C2875 1.391 . S
C2875 H2863 0.950 . S
C2875 C2871 1.393 . S
C2875 C2874 1.391 . S
H2876 C2884 0.950 . S
H2877 C2889 0.950 . S
H2878 C2886 0.950 . S
H2879 C2888 0.950 . S
H2880 C2890 0.950 . S
H2881 C2892 0.950 . S
H2882 C2894 0.950 . S
H2883 C2895 0.950 . S
C2884 H2876 0.950 . S
C2884 C2885 1.386 . S
C2884 C2886 1.391 . S
C2885 C2884 1.386 . S
C2885 C2889 1.393 . S
C2886 H2878 0.950 . S
C2886 C2884 1.391 . S
C2886 C2887 1.400 . S
C2887 C2886 1.400 . S
C2887 C2888 1.398 . S
C2887 C2893 1.491 . S
C2888 H2879 0.950 . S
C2888 C2887 1.398 . S
C2888 C2889 1.391 . S
C2889 H2877 0.950 . S
C2889 C2885 1.393 . S
C2889 C2888 1.391 . S
C2890 H2880 0.950 . S
C2890 C2891 1.386 . S
C2890 C2892 1.391 . S
C2891 C2890 1.386 . S
C2891 C2895 1.393 . S
C2892 H2881 0.950 . S
C2892 C2890 1.391 . S
C2892 C2893 1.400 . S
C2893 C2887 1.491 . S
C2893 C2892 1.400 . S
C2893 C2894 1.398 . S
C2894 H2882 0.950 . S
C2894 C2893 1.398 . S
C2894 C2895 1.391 . S
C2895 H2883 0.950 . S
C2895 C2891 1.393 . S
C2895 C2894 1.391 . S
C985 C106 2.543 . S
C991 C338 2.574 . S
C1005 C65 2.121 . S
C1011 C395 2.114 . S
C1025 C79 1.583 . S
C1031 C418 1.563 . S
C1051 C472 1.179 . S
C1045 C90 1.184 . S
C1065 C21 1.088 . S
C1071 C512 1.100 . S
C1091 C543 0.636 . S
C1085 C35 0.653 . S
C1111 C595 1.304 . S
C1105 C50 1.302 . S
C1125 C6 1.830 . S
C1131 C618 1.870 . S
C1151 C355 2.662 . S
C1145 C232 2.662 . S
C1165 C245 0.583 . S
C1171 C392 0.588 . S
C1191 C435 1.347 . S
C1185 C274 1.351 . S
C1211 C458 1.372 . S
C1205 C175 1.363 . S
C1225 C231 1.652 . S
C1231 C498 1.696 . S
C1251 C546 1.411 . S
C1245 C246 1.427 . S
C1271 C592 0.281 . S
C1265 C273 0.326 . S
C1291 C635 2.212 . S
C1285 C176 2.200 . S
C1311 C352 1.474 . S
C1305 C160 1.486 . S
C1325 C289 1.974 . S
C1331 C675 1.975 . S
C1351 C707 2.701 . S
C1345 C328 2.667 . S
C1371 C738 0.827 1_655 S
C1365 C317 0.824 . S
C1385 C118 1.517 . S
C1391 C632 1.542 . S
C1405 C132 1.552 . S
C1411 C432 1.567 . S
C1425 C331 2.367 . S
C1431 C795 2.351 . S
C1451 C818 0.845 . S
C1445 C303 0.853 . S
C1471 C347 2.122 . S
C1465 C63 2.121 . S
C1491 C826 2.580 . S
C1485 C107 2.528 . S
C1505 C92 1.358 . S
C1511 C427 1.382 . S
C1525 C78 1.672 . S
C1531 C783 1.673 . S
C1551 C503 1.504 . S
C1545 C8 1.549 . S
C1565 C51 0.716 . S
C1571 C712 0.689 . S
C1591 C586 1.810 1_556 S
C1585 C37 1.699 . S
C1611 C867 1.754 . S
C1605 C20 1.755 . S
C1631 C346 2.485 . S
C1625 C147 2.435 . S
C1651 C823 0.607 . S
C1645 C316 0.617 . S
C1665 C119 1.214 . S
C1671 C426 1.272 . S
C1685 C288 1.491 . S
C1691 C787 1.495 . S
C1705 C148 2.097 1_545 S
C1711 C507 2.069 . S
C1731 C715 1.381 . S
C1725 C315 1.366 . S
C1745 C120 0.488 . S
C1751 C583 0.561 . S
C1765 C287 2.040 . S
C1771 C866 2.055 . S
C1785 C188 1.402 . S
C1791 C343 1.370 . S
C1805 C177 2.287 . S
C1811 C666 2.310 . S
C1825 C258 2.764 . S
C1831 C538 2.806 . S
C1845 C247 0.812 . S
C1851 C747 0.825 . S
C1871 C863 1.302 . S
C1865 C272 1.305 1_565 S
C1885 C216 1.388 . S
C1891 C423 1.403 . S
C1911 C466 2.578 . S
C1905 C261 2.561 . S
C1931 C387 0.752 . S
C1925 C205 0.772 . S
C1945 C76 2.138 . S
C1951 C898 2.176 . S
C1971 C835 2.216 . S
C1965 C93 2.220 . S
C1985 C105 1.190 . S
C1991 C938 1.169 . S
C2005 C62 1.213 . S
C2011 C792 1.214 . S
C2025 C49 1.101 . S
C2031 C672 1.117 . S
C2051 C703 0.916 . S
C2045 C9 0.926 . S
C2071 C755 1.204 . S
C2065 C22 1.189 . S
C2091 C858 2.231 . S
C2085 C36 2.266 . S
C2111 C915 2.604 . S
C2105 C260 2.602 . S
C2125 C189 0.525 . S
C2131 C832 0.505 . S
C2151 C955 1.235 . S
C2145 C204 1.232 . S
C2171 C778 1.195 . S
C2165 C217 1.206 . S
C2191 C658 1.984 . S
C2185 C259 1.928 . S
C2205 C190 1.510 . S
C2211 C706 1.495 . S
C2231 C752 0.397 . S
C2225 C203 0.404 . S
C2245 C218 2.287 . S
C2251 C875 2.298 . S
C2271 C912 1.484 . S
C2265 C314 1.488 . S
C2285 C135 2.062 . S
C2291 C515 2.059 . S
C2311 C547 2.596 . S
C2305 C146 2.550 . S
C2331 C578 0.834 . S
C2325 C163 0.836 . S
C2351 C872 1.521 . S
C2345 C300 1.496 . S
C2365 C286 1.526 . S
C2371 C952 1.542 . S
C2391 C475 2.258 . S
C2385 C149 2.266 . S
C2411 C378 0.786 . S
C2405 C121 0.816 . S
C2425 C91 2.117 . S
C2431 C907 2.127 . S
C2451 C386 2.166 . S
C2445 C77 2.058 . S
C2465 C64 1.341 . S
C2471 C947 1.344 . S
C2485 C104 1.340 . S
C2491 C463 1.375 . S
C2505 C34 1.192 . S
C2511 C663 1.192 . S
C2531 C552 0.671 . S
C2525 C23 0.657 . S
C2545 C7 1.307 . S
C2551 C746 1.424 . S
C2565 C48 1.714 . S
C2571 C627 1.727 . S
C2591 C906 2.433 . S
C2585 C329 2.402 . S
C2605 C162 0.611 . S
C2611 C383 0.642 . S
C2631 C946 1.288 . S
C2625 C301 1.237 . S
C2645 C134 1.490 . S
C2651 C467 1.510 . S
C2665 C330 2.043 . S
C2671 C667 2.037 . S
C2691 C555 1.395 . S
C2685 C161 1.373 . S
C2705 C302 0.476 . S
C2711 C743 0.494 . S
C2731 C626 2.009 . S
C2725 C133 2.008 . S
C2751 C903 1.504 . S
C2745 C244 1.548 . S
C2771 C506 2.252 1_665 S
C2765 C219 2.219 . S
C2785 C230 2.441 . S
C2791 C698 2.489 . S
C2811 C587 0.811 . S
C2805 C191 0.802 . S
C2825 C202 1.427 . S
C2831 C623 1.407 . S
C2845 C174 1.557 . S
C2851 C943 1.561 . S
C2871 C786 2.559 . S
C2865 C233 2.535 1_565 S
C2891 C827 0.774 . S
C2885 C275 0.777 . S
