# Generated by pormake.
# Topology gar, (4,6)-cn, num edge types: 1
# Building blocks:
#     Node 0, Type 0, BuildingBlock: QUQFOY_clean_sbu_3, # of connection points: 4
#     Node 1, Type 0, BuildingBlock: QUQFOY_clean_sbu_3, # of connection points: 4
#     Node 2, Type 0, BuildingBlock: QUQFOY_clean_sbu_3, # of connection points: 4
#     Node 3, Type 0, BuildingBlock: QUQFOY_clean_sbu_3, # of connection points: 4
#     Node 4, Type 0, BuildingBlock: QUQFOY_clean_sbu_3, # of connection points: 4
#     Node 5, Type 0, BuildingBlock: QUQFOY_clean_sbu_3, # of connection points: 4
#     Node 6, Type 0, BuildingBlock: QUQFOY_clean_sbu_3, # of connection points: 4
#     Node 7, Type 0, BuildingBlock: QUQFOY_clean_sbu_3, # of connection points: 4
#     Node 8, Type 0, BuildingBlock: QUQFOY_clean_sbu_3, # of connection points: 4
#     Node 9, Type 0, BuildingBlock: QUQFOY_clean_sbu_3, # of connection points: 4
#     Node 10, Type 0, BuildingBlock: QUQFOY_clean_sbu_3, # of connection points: 4
#     Node 11, Type 0, BuildingBlock: QUQFOY_clean_sbu_3, # of connection points: 4
#     Node 12, Type 0, BuildingBlock: QUQFOY_clean_sbu_3, # of connection points: 4
#     Node 13, Type 0, BuildingBlock: QUQFOY_clean_sbu_3, # of connection points: 4
#     Node 14, Type 0, BuildingBlock: QUQFOY_clean_sbu_3, # of connection points: 4
#     Node 15, Type 0, BuildingBlock: QUQFOY_clean_sbu_3, # of connection points: 4
#     Node 16, Type 0, BuildingBlock: QUQFOY_clean_sbu_3, # of connection points: 4
#     Node 17, Type 0, BuildingBlock: QUQFOY_clean_sbu_3, # of connection points: 4
#     Node 18, Type 0, BuildingBlock: QUQFOY_clean_sbu_3, # of connection points: 4
#     Node 19, Type 0, BuildingBlock: QUQFOY_clean_sbu_3, # of connection points: 4
#     Node 20, Type 0, BuildingBlock: QUQFOY_clean_sbu_3, # of connection points: 4
#     Node 21, Type 0, BuildingBlock: QUQFOY_clean_sbu_3, # of connection points: 4
#     Node 22, Type 0, BuildingBlock: QUQFOY_clean_sbu_3, # of connection points: 4
#     Node 23, Type 0, BuildingBlock: QUQFOY_clean_sbu_3, # of connection points: 4
#     Node 24, Type 1, BuildingBlock: CUKXOW_clean_sbu_0, # of connection points: 6
#     Node 25, Type 1, BuildingBlock: CUKXOW_clean_sbu_0, # of connection points: 6
#     Node 26, Type 1, BuildingBlock: CUKXOW_clean_sbu_0, # of connection points: 6
#     Node 27, Type 1, BuildingBlock: CUKXOW_clean_sbu_0, # of connection points: 6
#     Node 28, Type 1, BuildingBlock: CUKXOW_clean_sbu_0, # of connection points: 6
#     Node 29, Type 1, BuildingBlock: CUKXOW_clean_sbu_0, # of connection points: 6
#     Node 30, Type 1, BuildingBlock: CUKXOW_clean_sbu_0, # of connection points: 6
#     Node 31, Type 1, BuildingBlock: CUKXOW_clean_sbu_0, # of connection points: 6
#     Node 32, Type 1, BuildingBlock: CUKXOW_clean_sbu_0, # of connection points: 6
#     Node 33, Type 1, BuildingBlock: CUKXOW_clean_sbu_0, # of connection points: 6
#     Node 34, Type 1, BuildingBlock: CUKXOW_clean_sbu_0, # of connection points: 6
#     Node 35, Type 1, BuildingBlock: CUKXOW_clean_sbu_0, # of connection points: 6
#     Node 36, Type 1, BuildingBlock: CUKXOW_clean_sbu_0, # of connection points: 6
#     Node 37, Type 1, BuildingBlock: CUKXOW_clean_sbu_0, # of connection points: 6
#     Node 38, Type 1, BuildingBlock: CUKXOW_clean_sbu_0, # of connection points: 6
#     Node 39, Type 1, BuildingBlock: CUKXOW_clean_sbu_0, # of connection points: 6
#     Edge 40, Type (0, 1), BuildingBlock: OJICUG_clean_linker_0, # of connection points: 2
#     Edge 41, Type (0, 1), BuildingBlock: OJICUG_clean_linker_0, # of connection points: 2
#     Edge 42, Type (0, 1), BuildingBlock: OJICUG_clean_linker_0, # of connection points: 2
#     Edge 43, Type (0, 1), BuildingBlock: OJICUG_clean_linker_0, # of connection points: 2
#     Edge 44, Type (0, 1), BuildingBlock: OJICUG_clean_linker_0, # of connection points: 2
#     Edge 45, Type (0, 1), BuildingBlock: OJICUG_clean_linker_0, # of connection points: 2
#     Edge 46, Type (0, 1), BuildingBlock: OJICUG_clean_linker_0, # of connection points: 2
#     Edge 47, Type (0, 1), BuildingBlock: OJICUG_clean_linker_0, # of connection points: 2
#     Edge 48, Type (0, 1), BuildingBlock: OJICUG_clean_linker_0, # of connection points: 2
#     Edge 49, Type (0, 1), BuildingBlock: OJICUG_clean_linker_0, # of connection points: 2
#     Edge 50, Type (0, 1), BuildingBlock: OJICUG_clean_linker_0, # of connection points: 2
#     Edge 51, Type (0, 1), BuildingBlock: OJICUG_clean_linker_0, # of connection points: 2
#     Edge 52, Type (0, 1), BuildingBlock: OJICUG_clean_linker_0, # of connection points: 2
#     Edge 53, Type (0, 1), BuildingBlock: OJICUG_clean_linker_0, # of connection points: 2
#     Edge 54, Type (0, 1), BuildingBlock: OJICUG_clean_linker_0, # of connection points: 2
#     Edge 55, Type (0, 1), BuildingBlock: OJICUG_clean_linker_0, # of connection points: 2
#     Edge 56, Type (0, 1), BuildingBlock: OJICUG_clean_linker_0, # of connection points: 2
#     Edge 57, Type (0, 1), BuildingBlock: OJICUG_clean_linker_0, # of connection points: 2
#     Edge 58, Type (0, 1), BuildingBlock: OJICUG_clean_linker_0, # of connection points: 2
#     Edge 59, Type (0, 1), BuildingBlock: OJICUG_clean_linker_0, # of connection points: 2
#     Edge 60, Type (0, 1), BuildingBlock: OJICUG_clean_linker_0, # of connection points: 2
#     Edge 61, Type (0, 1), BuildingBlock: OJICUG_clean_linker_0, # of connection points: 2
#     Edge 62, Type (0, 1), BuildingBlock: OJICUG_clean_linker_0, # of connection points: 2
#     Edge 63, Type (0, 1), BuildingBlock: OJICUG_clean_linker_0, # of connection points: 2
#     Edge 64, Type (0, 1), BuildingBlock: OJICUG_clean_linker_0, # of connection points: 2
#     Edge 65, Type (0, 1), BuildingBlock: OJICUG_clean_linker_0, # of connection points: 2
#     Edge 66, Type (0, 1), BuildingBlock: OJICUG_clean_linker_0, # of connection points: 2
#     Edge 67, Type (0, 1), BuildingBlock: OJICUG_clean_linker_0, # of connection points: 2
#     Edge 68, Type (0, 1), BuildingBlock: OJICUG_clean_linker_0, # of connection points: 2
#     Edge 69, Type (0, 1), BuildingBlock: OJICUG_clean_linker_0, # of connection points: 2
#     Edge 70, Type (0, 1), BuildingBlock: OJICUG_clean_linker_0, # of connection points: 2
#     Edge 71, Type (0, 1), BuildingBlock: OJICUG_clean_linker_0, # of connection points: 2
#     Edge 72, Type (0, 1), BuildingBlock: OJICUG_clean_linker_0, # of connection points: 2
#     Edge 73, Type (0, 1), BuildingBlock: OJICUG_clean_linker_0, # of connection points: 2
#     Edge 74, Type (0, 1), BuildingBlock: OJICUG_clean_linker_0, # of connection points: 2
#     Edge 75, Type (0, 1), BuildingBlock: OJICUG_clean_linker_0, # of connection points: 2
#     Edge 76, Type (0, 1), BuildingBlock: OJICUG_clean_linker_0, # of connection points: 2
#     Edge 77, Type (0, 1), BuildingBlock: OJICUG_clean_linker_0, # of connection points: 2
#     Edge 78, Type (0, 1), BuildingBlock: OJICUG_clean_linker_0, # of connection points: 2
#     Edge 79, Type (0, 1), BuildingBlock: OJICUG_clean_linker_0, # of connection points: 2
#     Edge 80, Type (0, 1), BuildingBlock: OJICUG_clean_linker_0, # of connection points: 2
#     Edge 81, Type (0, 1), BuildingBlock: OJICUG_clean_linker_0, # of connection points: 2
#     Edge 82, Type (0, 1), BuildingBlock: OJICUG_clean_linker_0, # of connection points: 2
#     Edge 83, Type (0, 1), BuildingBlock: OJICUG_clean_linker_0, # of connection points: 2
#     Edge 84, Type (0, 1), BuildingBlock: OJICUG_clean_linker_0, # of connection points: 2
#     Edge 85, Type (0, 1), BuildingBlock: OJICUG_clean_linker_0, # of connection points: 2
#     Edge 86, Type (0, 1), BuildingBlock: OJICUG_clean_linker_0, # of connection points: 2
#     Edge 87, Type (0, 1), BuildingBlock: OJICUG_clean_linker_0, # of connection points: 2
#     Edge 88, Type (0, 1), BuildingBlock: OJICUG_clean_linker_0, # of connection points: 2
#     Edge 89, Type (0, 1), BuildingBlock: OJICUG_clean_linker_0, # of connection points: 2
#     Edge 90, Type (0, 1), BuildingBlock: OJICUG_clean_linker_0, # of connection points: 2
#     Edge 91, Type (0, 1), BuildingBlock: OJICUG_clean_linker_0, # of connection points: 2
#     Edge 92, Type (0, 1), BuildingBlock: OJICUG_clean_linker_0, # of connection points: 2
#     Edge 93, Type (0, 1), BuildingBlock: OJICUG_clean_linker_0, # of connection points: 2
#     Edge 94, Type (0, 1), BuildingBlock: OJICUG_clean_linker_0, # of connection points: 2
#     Edge 95, Type (0, 1), BuildingBlock: OJICUG_clean_linker_0, # of connection points: 2
#     Edge 96, Type (0, 1), BuildingBlock: OJICUG_clean_linker_0, # of connection points: 2
#     Edge 97, Type (0, 1), BuildingBlock: OJICUG_clean_linker_0, # of connection points: 2
#     Edge 98, Type (0, 1), BuildingBlock: OJICUG_clean_linker_0, # of connection points: 2
#     Edge 99, Type (0, 1), BuildingBlock: OJICUG_clean_linker_0, # of connection points: 2
#     Edge 100, Type (0, 1), BuildingBlock: OJICUG_clean_linker_0, # of connection points: 2
#     Edge 101, Type (0, 1), BuildingBlock: OJICUG_clean_linker_0, # of connection points: 2
#     Edge 102, Type (0, 1), BuildingBlock: OJICUG_clean_linker_0, # of connection points: 2
#     Edge 103, Type (0, 1), BuildingBlock: OJICUG_clean_linker_0, # of connection points: 2
#     Edge 104, Type (0, 1), BuildingBlock: OJICUG_clean_linker_0, # of connection points: 2
#     Edge 105, Type (0, 1), BuildingBlock: OJICUG_clean_linker_0, # of connection points: 2
#     Edge 106, Type (0, 1), BuildingBlock: OJICUG_clean_linker_0, # of connection points: 2
#     Edge 107, Type (0, 1), BuildingBlock: OJICUG_clean_linker_0, # of connection points: 2
#     Edge 108, Type (0, 1), BuildingBlock: OJICUG_clean_linker_0, # of connection points: 2
#     Edge 109, Type (0, 1), BuildingBlock: OJICUG_clean_linker_0, # of connection points: 2
#     Edge 110, Type (0, 1), BuildingBlock: OJICUG_clean_linker_0, # of connection points: 2
#     Edge 111, Type (0, 1), BuildingBlock: OJICUG_clean_linker_0, # of connection points: 2
#     Edge 112, Type (0, 1), BuildingBlock: OJICUG_clean_linker_0, # of connection points: 2
#     Edge 113, Type (0, 1), BuildingBlock: OJICUG_clean_linker_0, # of connection points: 2
#     Edge 114, Type (0, 1), BuildingBlock: OJICUG_clean_linker_0, # of connection points: 2
#     Edge 115, Type (0, 1), BuildingBlock: OJICUG_clean_linker_0, # of connection points: 2
#     Edge 116, Type (0, 1), BuildingBlock: OJICUG_clean_linker_0, # of connection points: 2
#     Edge 117, Type (0, 1), BuildingBlock: OJICUG_clean_linker_0, # of connection points: 2
#     Edge 118, Type (0, 1), BuildingBlock: OJICUG_clean_linker_0, # of connection points: 2
#     Edge 119, Type (0, 1), BuildingBlock: OJICUG_clean_linker_0, # of connection points: 2
#     Edge 120, Type (0, 1), BuildingBlock: OJICUG_clean_linker_0, # of connection points: 2
#     Edge 121, Type (0, 1), BuildingBlock: OJICUG_clean_linker_0, # of connection points: 2
#     Edge 122, Type (0, 1), BuildingBlock: OJICUG_clean_linker_0, # of connection points: 2
#     Edge 123, Type (0, 1), BuildingBlock: OJICUG_clean_linker_0, # of connection points: 2
#     Edge 124, Type (0, 1), BuildingBlock: OJICUG_clean_linker_0, # of connection points: 2
#     Edge 125, Type (0, 1), BuildingBlock: OJICUG_clean_linker_0, # of connection points: 2
#     Edge 126, Type (0, 1), BuildingBlock: OJICUG_clean_linker_0, # of connection points: 2
#     Edge 127, Type (0, 1), BuildingBlock: OJICUG_clean_linker_0, # of connection points: 2
#     Edge 128, Type (0, 1), BuildingBlock: OJICUG_clean_linker_0, # of connection points: 2
#     Edge 129, Type (0, 1), BuildingBlock: OJICUG_clean_linker_0, # of connection points: 2
#     Edge 130, Type (0, 1), BuildingBlock: OJICUG_clean_linker_0, # of connection points: 2
#     Edge 131, Type (0, 1), BuildingBlock: OJICUG_clean_linker_0, # of connection points: 2
#     Edge 132, Type (0, 1), BuildingBlock: OJICUG_clean_linker_0, # of connection points: 2
#     Edge 133, Type (0, 1), BuildingBlock: OJICUG_clean_linker_0, # of connection points: 2
#     Edge 134, Type (0, 1), BuildingBlock: OJICUG_clean_linker_0, # of connection points: 2
#     Edge 135, Type (0, 1), BuildingBlock: OJICUG_clean_linker_0, # of connection points: 2
# Relax obj value: 0.117
# Max RMSD: 0.239
# Mean RMSD: 0.120
data_MOF--net-gar--node1-QUQFOY_clean_sbu_3--node2-CUKXOW_clean_sbu_0--edge1-OJICUG_clean_linker_0
_symmetry_space_group_name_H-M    P1
_symmetry_Int_Tables_number       1
_symmetry_cell_setting            triclinic
loop_
_symmetry_equiv_pos_as_xyz
'x, y, z'
_cell_length_a     41.661896
_cell_length_b     40.640309
_cell_length_c     40.520859
_cell_angle_alpha  95.343389
_cell_angle_beta   94.974985
_cell_angle_gamma 99.059294
loop_
_atom_site_label
_atom_site_type_symbol
_atom_site_fract_x
_atom_site_fract_y
_atom_site_fract_z
_atom_type_partial_charge
C0 C 0.97301 0.29074 0.38616 0.0
O1 O -0.00399 0.30958 0.37502 0.0
Cd2 Cd 0.05248 0.3136 0.39077 0.0
O3 O 0.9788 0.27328 0.40997 0.0
Cd4 Cd 0.02908 0.26604 0.44456 0.0
C5 C 0.0517 0.34941 0.46957 0.0
O6 O 0.05056 0.25514 0.39319 0.0
O7 O 0.08506 0.25358 0.43505 0.0
O8 O -0.00217 0.21298 0.4558 0.0
C9 C 0.07753 0.24797 0.40383 0.0
O10 O 0.06293 0.35232 0.44161 0.0
C11 C 0.01361 0.21288 0.48405 0.0
O12 O 0.03666 0.32139 0.47596 0.0
O13 O 0.03492 0.23844 0.49448 0.0
C14 C 0.9404 0.79815 0.67062 0.0
O15 O 0.95475 0.77595 0.68274 0.0
Cd16 Cd -0.0021 0.75157 0.66338 0.0
O17 O 0.94709 0.80919 0.64304 0.0
Cd18 Cd 0.98705 0.80131 0.60134 0.0
C19 C 0.97001 0.71624 0.58271 0.0
O20 O 0.02446 0.80166 0.64729 0.0
O21 O 0.04647 0.79809 0.60134 0.0
O22 O 0.00323 0.85872 0.59068 0.0
C23 C 0.04974 0.79972 0.63292 0.0
O24 O 0.97779 0.71364 0.61334 0.0
C25 C 0.9872 0.85581 0.56225 0.0
O26 O 0.97133 0.74473 0.57169 0.0
O27 O 0.97011 0.82743 0.55194 0.0
C28 C 0.47232 0.78305 0.88189 0.0
O29 O 0.49548 0.80074 0.86981 0.0
Cd30 Cd 0.55184 0.80607 0.88573 0.0
O31 O 0.47778 0.76715 0.90703 0.0
Cd32 Cd 0.52773 0.76133 0.94311 0.0
C33 C 0.54903 0.84578 0.96289 0.0
O34 O 0.54889 0.7484 0.89232 0.0
O35 O 0.58376 0.74807 0.93408 0.0
O36 O 0.49599 0.70984 0.95766 0.0
C37 C 0.57605 0.74174 0.90293 0.0
O38 O 0.56018 0.84717 0.93472 0.0
C39 C 0.51255 0.71087 0.98571 0.0
O40 O 0.53479 0.81817 0.97109 0.0
O41 O 0.53449 0.73633 0.99443 0.0
C42 C 0.4413 0.30195 0.1691 0.0
O43 O 0.45574 0.28033 0.18221 0.0
Cd44 Cd 0.49903 0.25536 0.16409 0.0
O45 O 0.44817 0.31217 0.14124 0.0
Cd46 Cd 0.48854 0.30358 0.10025 0.0
C47 C 0.47111 0.21819 0.08404 0.0
O48 O 0.52572 0.30474 0.14669 0.0
O49 O 0.54818 0.30055 0.10106 0.0
O50 O 0.50418 0.36051 0.0878 0.0
C51 C 0.55115 0.30247 0.13267 0.0
O52 O 0.4788 0.21628 0.11483 0.0
C53 C 0.48763 0.3569 0.05959 0.0
O54 O 0.47268 0.24636 0.0723 0.0
O55 O 0.4707 0.32827 0.05005 0.0
C56 C 0.9298 0.7415 0.22103 0.0
O57 O 0.94764 0.72342 0.23553 0.0
Cd58 Cd 0.00209 0.71772 0.22215 0.0
O59 O 0.94022 0.75757 0.19743 0.0
Cd60 Cd 0.99176 0.76493 0.16874 0.0
C61 C -0.00472 0.68326 0.14196 0.0
O62 O 0.03182 0.77348 0.21947 0.0
O63 O 0.0514 0.77787 0.17219 0.0
O64 O 0.98367 0.82128 0.15895 0.0
C65 C 0.05668 0.77972 0.2036 0.0
O66 O 0.00087 0.67851 0.17235 0.0
C67 C 0.98143 0.81611 0.12736 0.0
O68 O 0.98988 0.71163 0.13418 0.0
O69 O 0.98349 0.78681 0.11489 0.0
C70 C 0.45192 0.78119 0.307 0.0
O71 O 0.46871 0.80545 0.29526 0.0
Cd72 Cd 0.52382 0.8313 0.31386 0.0
O73 O 0.46416 0.76803 0.33156 0.0
Cd74 Cd 0.51904 0.7793 0.36618 0.0
C75 C 0.51447 0.86111 0.39294 0.0
O76 O 0.55187 0.78453 0.31852 0.0
O77 O 0.5798 0.79274 0.36657 0.0
O78 O 0.51723 0.72049 0.37622 0.0
C79 C 0.57967 0.78943 0.33511 0.0
O80 O 0.52185 0.86872 0.36447 0.0
C81 C 0.5176 0.72571 0.40767 0.0
O82 O 0.51061 0.8307 0.39909 0.0
O83 O 0.51815 0.75571 0.41987 0.0
C84 C 0.43305 0.2396 0.71656 0.0
O85 O 0.45104 0.22148 0.73084 0.0
Cd86 Cd 0.50626 0.21607 0.7203 0.0
O87 O 0.44353 0.25654 0.69348 0.0
Cd88 Cd 0.4957 0.2651 0.66511 0.0
C89 C 0.49915 0.18271 0.63944 0.0
O90 O 0.53358 0.27245 0.71737 0.0
O91 O 0.55541 0.28152 0.67217 0.0
O92 O 0.47891 0.31766 0.65042 0.0
C93 C 0.55932 0.28018 0.70328 0.0
O94 O 0.50521 0.17799 0.66979 0.0
C95 C 0.48547 0.31387 0.62036 0.0
O96 O 0.4935 0.21102 0.63169 0.0
O97 O 0.49668 0.28759 0.6113 0.0
C98 C 0.95762 0.28804 0.80687 0.0
O99 O 0.97446 0.31227 0.79513 0.0
Cd100 Cd 0.02949 0.33756 0.81536 0.0
O101 O 0.96991 0.27493 0.83141 0.0
Cd102 Cd 0.02469 0.28513 0.86614 0.0
C103 C 0.01785 0.36541 0.89446 0.0
O104 O 0.05824 0.29097 0.81885 0.0
O105 O 0.08528 0.29705 0.86731 0.0
O106 O 0.01308 0.22558 0.87283 0.0
C107 C 0.08574 0.29487 0.83597 0.0
O108 O 0.02604 0.37368 0.86645 0.0
C109 C 0.02108 0.22899 0.9041 0.0
O110 O 0.0141 0.33484 0.90005 0.0
O111 O 0.03086 0.25864 0.91785 0.0
C112 C 0.45608 0.0709 0.31831 0.0
O113 O 0.4728 0.05625 0.2987 0.0
Cd114 Cd 0.45755 0.04063 0.24079 0.0
O115 O 0.43044 0.08151 0.30686 0.0
Cd116 Cd 0.40244 0.08313 0.24846 0.0
C117 C 0.37926 0.00037 0.24568 0.0
O118 O 0.44933 0.08941 0.21514 0.0
O119 O 0.40403 0.06571 0.18767 0.0
O120 O 0.39025 0.14106 0.25914 0.0
C121 C 0.43388 0.07799 0.18709 0.0
O122 O 0.40781 0.99839 0.23748 0.0
C123 C 0.35994 0.13288 0.24932 0.0
O124 O 0.3712 0.02866 0.25381 0.0
O125 O 0.34992 0.10217 0.23928 0.0
C126 C 0.28579 0.07842 0.50385 0.0
O127 O 0.26 0.06137 0.5121 0.0
Cd128 Cd 0.20535 0.07233 0.50529 0.0
O129 O 0.28495 0.10493 0.48932 0.0
Cd130 Cd 0.24409 0.13891 0.46962 0.0
C131 C 0.22215 0.15018 0.54886 0.0
O132 O 0.20388 0.0909 0.45172 0.0
O133 O 0.18655 0.13686 0.44573 0.0
O134 O 0.27491 0.16307 0.42616 0.0
C135 C 0.17994 0.10524 0.4443 0.0
O136 O 0.20639 0.12039 0.54688 0.0
C137 C 0.27178 0.19299 0.43619 0.0
O138 O 0.23802 0.16038 0.52536 0.0
O139 O 0.25684 0.19711 0.46185 0.0
C140 C 0.08485 0.99647 0.83654 0.0
O141 O 0.07294 0.01292 0.81475 0.0
Cd142 Cd 0.09257 0.02693 0.76397 0.0
O143 O 0.11206 0.98627 0.83346 0.0
Cd144 Cd 0.15077 0.99014 0.78855 0.0
C145 C 0.16826 0.07474 0.78828 0.0
O146 O 0.10818 0.97661 0.74261 0.0
O147 O 0.15519 0.99673 0.72878 0.0
O148 O 0.15943 0.93221 0.78526 0.0
C149 C 0.1258 0.98338 0.71955 0.0
O150 O 0.13979 0.07168 0.77295 0.0
C151 C 0.19014 0.93851 0.79241 0.0
O152 O 0.17841 0.0498 0.80017 0.0
O153 O 0.20279 0.96907 0.80035 0.0
C154 C 0.26371 0.93916 0.00892 0.0
O155 O 0.24516 0.95215 0.98918 0.0
Cd156 Cd 0.18787 0.93786 0.97723 0.0
O157 O 0.25193 0.91554 0.02549 0.0
Cd158 Cd 0.19594 0.88227 0.03104 0.0
C159 C 0.19181 0.85734 0.94488 0.0
O160 O 0.17423 0.93487 0.03274 0.0
O161 O 0.13641 0.89323 0.03353 0.0
O162 O 0.2229 0.875 0.08731 0.0
C163 C 0.14431 0.92483 0.03462 0.0
O164 O 0.18459 0.88598 0.94024 0.0
C165 C 0.2078 0.84563 0.08931 0.0
O166 O 0.19796 0.84979 0.97451 0.0
O167 O 0.18681 0.83333 0.06481 0.0
C168 C 0.319 0.47286 0.07379 0.0
O169 O 0.30322 0.48962 0.05525 0.0
Cd170 Cd 0.25094 0.47507 0.02598 0.0
O171 O 0.30622 0.44383 0.08038 0.0
Cd172 Cd 0.25055 0.40914 0.06561 0.0
C173 C 0.2621 0.40004 0.98486 0.0
O174 O 0.21963 0.45386 0.06683 0.0
O175 O 0.1951 0.40859 0.03795 0.0
O176 O 0.23677 0.38883 0.11801 0.0
C177 C 0.19412 0.43843 0.04965 0.0
O178 O 0.2556 0.42954 0.98343 0.0
C179 C 0.2364 0.35817 0.10806 0.0
O180 O 0.26421 0.38752 0.01238 0.0
O181 O 0.24405 0.35141 0.07888 0.0
C182 C 0.84135 0.10218 0.00607 0.0
O183 O 0.82188 0.09082 0.02633 0.0
Cd184 Cd 0.77447 0.10923 0.04442 0.0
O185 O 0.83762 0.12898 0.99257 0.0
Cd186 Cd 0.79449 0.16984 0.99538 0.0
C187 C 0.79817 0.18998 0.08262 0.0
O188 O 0.75003 0.1232 0.9941 0.0
O189 O 0.73569 0.17179 -0.00076 0.0
O190 O 0.78142 0.17703 0.93573 0.0
C191 C 0.72727 0.14024 0.99626 0.0
O192 O 0.78875 0.15889 0.08428 0.0
C193 C 0.79425 0.20758 0.93677 0.0
O194 O 0.80281 0.20111 0.05446 0.0
O195 O 0.80955 0.22081 0.9646 0.0
C196 C 0.04694 0.4997 0.3321 0.0
O197 O 0.03384 0.51637 0.31125 0.0
Cd198 Cd 0.04148 0.51924 0.25357 0.0
O199 O 0.06797 0.48147 0.32366 0.0
Cd200 Cd 0.09724 0.47103 0.27175 0.0
C201 C 0.12205 0.55508 0.26614 0.0
O202 O 0.0488 0.4651 0.2306 0.0
O203 O 0.09434 0.46415 0.21002 0.0
O204 O 0.11093 0.4143 0.27947 0.0
C205 C 0.06378 0.46335 0.20475 0.0
O206 O 0.09256 0.55774 0.25747 0.0
C207 C 0.14166 0.42444 0.28432 0.0
O208 O 0.12983 0.52739 0.27351 0.0
O209 O 0.15116 0.45561 0.28381 0.0
C210 C 0.81816 0.97657 0.57197 0.0
O211 O 0.80086 0.99339 0.55507 0.0
Cd212 Cd 0.74723 0.97909 0.52882 0.0
O213 O 0.80638 0.94736 0.57896 0.0
Cd214 Cd 0.75116 0.91142 0.56743 0.0
C215 C 0.75878 0.90525 0.48542 0.0
O216 O 0.71888 0.95465 0.56993 0.0
O217 O 0.69486 0.9087 0.54183 0.0
O218 O 0.73952 0.89081 0.62012 0.0
C219 C 0.69346 0.93858 0.55302 0.0
O220 O 0.75137 0.93451 0.48506 0.0
C221 C 0.73995 0.86032 0.61018 0.0
O222 O 0.76248 0.89212 0.51249 0.0
O223 O 0.74743 0.85378 0.58086 0.0
C224 C 0.909 0.04491 0.28687 0.0
O225 O 0.92418 0.02969 0.26606 0.0
Cd226 Cd 0.9068 0.0151 0.20877 0.0
O227 O 0.88222 0.0545 0.27771 0.0
Cd228 Cd 0.84766 0.0536 0.22428 0.0
C229 C 0.83293 0.96781 0.21901 0.0
O230 O 0.89452 0.06739 0.19403 0.0
O231 O 0.84999 0.05116 0.16236 0.0
O232 O 0.83922 0.10845 0.24931 0.0
C233 C 0.88026 0.06304 0.16488 0.0
O234 O 0.86092 0.96887 0.20835 0.0
C235 C 0.80922 0.10495 0.23855 0.0
O236 O 0.82261 0.99478 0.2283 0.0
O237 O 0.79692 0.07743 0.22123 0.0
C238 C 0.34239 0.6049 0.50755 0.0
O239 O 0.32008 0.59319 0.52473 0.0
Cd240 Cd 0.27036 0.61011 0.53624 0.0
O241 O 0.33978 0.63135 0.49303 0.0
Cd242 Cd 0.29375 0.66953 0.49198 0.0
C243 C 0.29495 0.68864 0.57834 0.0
O244 O 0.24662 0.62365 0.48502 0.0
O245 O 0.23594 0.67233 0.50035 0.0
O246 O 0.28768 0.67696 0.43135 0.0
C247 C 0.2252 0.64167 0.4909 0.0
O248 O 0.28291 0.65789 0.57844 0.0
C249 C 0.29477 0.70869 0.43417 0.0
O250 O 0.30256 0.70024 0.55114 0.0
O251 O 0.30389 0.72266 0.46364 0.0
C252 C 0.40765 0.5569 0.79954 0.0
O253 O 0.42975 0.54744 0.78311 0.0
Cd254 Cd 0.41731 0.52306 0.72741 0.0
O255 O 0.37934 0.55793 0.78538 0.0
Cd256 Cd 0.35107 0.55338 0.72788 0.0
C257 C 0.3433 0.4703 0.73296 0.0
O258 O 0.40021 0.56808 0.70081 0.0
O259 O 0.35834 0.5445 0.66761 0.0
O260 O 0.34058 0.60838 0.74883 0.0
C261 C 0.38803 0.55858 0.67122 0.0
O262 O 0.37413 0.47491 0.73158 0.0
C263 C 0.31105 0.60421 0.7364 0.0
O264 O 0.32745 0.49461 0.73183 0.0
O265 O 0.29985 0.57632 0.71917 0.0
C266 C 0.55149 0.00392 0.83114 0.0
O267 O 0.54204 0.02328 0.81081 0.0
Cd268 Cd 0.54978 0.02347 0.75233 0.0
O269 O 0.56983 0.98285 0.82243 0.0
Cd270 Cd 0.59987 0.97312 0.77142 0.0
C271 C 0.63011 0.05497 0.76174 0.0
O272 O 0.55144 0.96768 0.72957 0.0
O273 O 0.59737 0.96683 0.70968 0.0
O274 O 0.61244 0.91583 0.77912 0.0
C275 C 0.56676 0.96546 0.70399 0.0
O276 O 0.6021 0.05788 0.74833 0.0
C277 C 0.64324 0.92548 0.78426 0.0
O278 O 0.63465 0.02887 0.7754 0.0
O279 O 0.65322 0.95655 0.78377 0.0
C280 C 0.78201 0.57531 0.002 0.0
O281 O 0.75655 0.5564 0.00855 0.0
Cd282 Cd 0.70164 0.56612 0.00326 0.0
O283 O 0.78035 0.60287 0.98956 0.0
Cd284 Cd 0.73831 0.63657 0.9709 0.0
C285 C 0.71677 0.64258 0.05069 0.0
O286 O 0.69932 0.58801 0.9512 0.0
O287 O 0.68113 0.63357 0.94543 0.0
O288 O 0.77008 0.66171 0.9286 0.0
C289 C 0.67512 0.60189 0.94346 0.0
O290 O 0.70429 0.61162 0.04792 0.0
C291 C 0.76622 0.69144 0.93837 0.0
O292 O 0.73023 0.65584 0.02706 0.0
O293 O 0.75033 0.69514 0.96342 0.0
C294 C 0.95575 0.57095 0.82051 0.0
O295 O 0.97175 0.55514 0.80106 0.0
Cd296 Cd 0.95593 0.53916 0.7433 0.0
O297 O 0.93049 0.58215 0.80898 0.0
Cd298 Cd 0.90221 0.58279 0.75068 0.0
C299 C 0.87747 0.5004 0.74898 0.0
O300 O 0.94926 0.58835 0.71758 0.0
O301 O 0.90399 0.56493 0.68992 0.0
O302 O 0.89042 0.64088 0.76129 0.0
C303 C 0.93389 0.57707 0.68947 0.0
O304 O 0.90559 0.49767 0.73998 0.0
C305 C 0.8602 0.63292 0.75099 0.0
O306 O 0.87027 0.52899 0.75748 0.0
O307 O 0.85009 0.6023 0.74065 0.0
C308 C 0.76348 0.43906 0.51135 0.0
O309 O 0.74491 0.45215 0.49169 0.0
Cd310 Cd 0.68734 0.43837 0.47947 0.0
O311 O 0.75175 0.41543 0.52793 0.0
Cd312 Cd 0.69633 0.38163 0.53414 0.0
C313 C 0.69106 0.35738 0.44759 0.0
O314 O 0.6742 0.43342 0.53466 0.0
O315 O 0.6373 0.39249 0.5408 0.0
O316 O 0.72552 0.37469 0.58918 0.0
C317 C 0.64471 0.4237 0.53877 0.0
O318 O 0.68427 0.38622 0.44305 0.0
C319 C 0.71012 0.34564 0.59195 0.0
O320 O 0.69714 0.34958 0.47715 0.0
O321 O 0.68811 0.33336 0.56834 0.0
C322 C 0.58133 0.50117 0.33501 0.0
O323 O 0.57011 0.51753 0.31277 0.0
Cd324 Cd 0.59235 0.53275 0.26413 0.0
O325 O 0.60866 0.49081 0.33287 0.0
Cd326 Cd 0.64946 0.49359 0.28926 0.0
C327 C 0.66712 0.5793 0.29499 0.0
O328 O 0.60771 0.48172 0.24319 0.0
O329 O 0.65544 0.49927 0.22945 0.0
O330 O 0.6575 0.43527 0.28672 0.0
C331 C 0.62581 0.4869 0.22022 0.0
O332 O 0.63814 0.57804 0.28154 0.0
C333 C 0.68817 0.44138 0.29429 0.0
O334 O 0.67791 0.55265 0.30139 0.0
O335 O 0.70091 0.47192 0.30219 0.0
Tb336 Tb 0.00841 0.05561 0.00455 0.0
C337 C 0.01754 0.9951 0.95287 0.0
Tb338 Tb 0.98134 0.98042 0.01603 0.0
O339 O 0.05981 0.04845 0.01383 0.0
O340 O 0.02293 0.01724 0.03174 0.0
O341 O 0.01379 0.02693 0.95801 0.0
C342 C 0.97817 0.92579 0.0476 0.0
O343 O 0.00975 0.97248 0.97382 0.0
C344 C 0.9365 0.01305 0.98973 0.0
C345 C 0.96438 0.04122 0.06321 0.0
O346 O 0.96977 0.92556 0.01574 0.0
O347 O 0.98878 0.95625 0.06078 0.0
O348 O 0.92983 0.98357 0.00022 0.0
O349 O 0.96717 0.01877 0.98983 0.0
O350 O 0.96582 0.00875 0.0583 0.0
O351 O 0.97848 0.06416 0.04528 0.0
C352 C 0.01248 0.11281 0.97682 0.0
O353 O 0.02363 0.11044 0.0075 0.0
O354 O -0.00081 0.08341 0.96261 0.0
C355 C 0.05282 0.02052 0.02704 0.0
Tb356 Tb 0.26679 0.8149 0.26571 0.0
C357 C 0.31507 0.76291 0.26425 0.0
Tb358 Tb 0.23893 0.73952 0.25739 0.0
O359 O 0.2892 0.81363 0.31696 0.0
O360 O 0.24942 0.77826 0.29724 0.0
O361 O 0.30946 0.79249 0.25623 0.0
C362 C 0.21168 0.67792 0.26757 0.0
O363 O 0.29125 0.73872 0.2696 0.0
C364 C 0.23446 0.76914 0.20163 0.0
C365 C 0.19056 0.79138 0.2577 0.0
O366 O 0.23303 0.68459 0.24643 0.0
O367 O 0.20661 0.70567 0.28298 0.0
O368 O 0.21615 0.74148 0.20652 0.0
O369 O 0.25667 0.77599 0.22575 0.0
O370 O 0.19589 0.7619 0.2663 0.0
O371 O 0.21468 0.81543 0.25274 0.0
C372 C 0.29378 0.87629 0.25458 0.0
O373 O 0.27295 0.86992 0.2763 0.0
O374 O 0.29855 0.8484 0.23934 0.0
C375 C 0.27155 0.78543 0.3214 0.0
Tb376 Tb 0.53766 0.02679 0.50867 0.0
C377 C 0.51488 0.99315 0.57356 0.0
Tb378 Tb 0.46655 0.01625 0.5205 0.0
O379 O 0.54197 0.08099 0.52188 0.0
O380 O 0.50947 0.04687 0.54356 0.0
O381 O 0.53663 0.99713 0.55149 0.0
C382 C 0.40938 0.03514 0.52852 0.0
O383 O 0.48584 0.00265 0.56857 0.0
C384 C 0.48544 0.96539 0.48762 0.0
C385 C 0.49052 0.04957 0.45481 0.0
O386 O 0.41394 0.00415 0.52417 0.0
O387 O 0.437 0.05503 0.52924 0.0
O388 O 0.46136 0.96192 0.50617 0.0
O389 O 0.49467 0.99606 0.48591 0.0
O390 O 0.46686 0.04229 0.47454 0.0
O391 O 0.52053 0.04334 0.46204 0.0
C392 C 0.59532 0.00875 0.50122 0.0
O393 O 0.59093 0.03711 0.51628 0.0
O394 O 0.56727 0.99174 0.48885 0.0
C395 C 0.51854 0.0775 0.54124 0.0
Tb396 Tb 0.26834 0.28135 0.80554 0.0
C397 C 0.28001 0.33821 0.7553 0.0
Tb398 Tb 0.24588 0.26464 0.73382 0.0
O399 O 0.30998 0.25515 0.80358 0.0
O400 O 0.29265 0.27635 0.76182 0.0
O401 O 0.2833 0.32967 0.78614 0.0
C402 C 0.23393 0.23555 0.67155 0.0
O403 O 0.26653 0.31646 0.72959 0.0
C404 C 0.20264 0.28728 0.76976 0.0
C405 C 0.23964 0.20722 0.78163 0.0
O406 O 0.26107 0.25444 0.68413 0.0
O407 O 0.21347 0.23346 0.69382 0.0
O408 O 0.20504 0.29226 0.73882 0.0
O409 O 0.22224 0.26812 0.77787 0.0
O410 O 0.24607 0.2154 0.75166 0.0
O411 O 0.2424 0.23056 0.80737 0.0
C412 C 0.26784 0.31642 0.86394 0.0
O413 O 0.28402 0.29173 0.85921 0.0
O414 O 0.25201 0.32067 0.83621 0.0
C415 C 0.31223 0.25772 0.772 0.0
Tb416 Tb 0.98177 0.03388 0.48283 0.0
C417 C 0.94755 0.01687 0.54607 0.0
Tb418 Tb 0.02464 0.02735 0.54655 0.0
O419 O 0.96374 0.9799 0.47651 0.0
O420 O 0.01026 0.99878 0.4999 0.0
O421 O 0.94519 0.03125 0.51793 0.0
C422 C 0.05862 0.00633 0.59687 0.0
O423 O 0.97542 0.0097 0.55986 0.0
C424 C 0.0144 0.08874 0.53985 0.0
C425 C 0.05694 0.04962 0.48508 0.0
O426 O 0.02814 0.99508 0.58671 0.0
O427 O 0.06972 0.02952 0.579 0.0
O428 O 0.0387 0.08203 0.55878 0.0
O429 O -0.00428 0.0618 0.52983 0.0
O430 O 0.05812 0.02862 0.50813 0.0
O431 O 0.02974 0.06086 0.47635 0.0
C432 C 0.95934 0.04775 0.42323 0.0
O433 O 0.98479 0.03407 0.42986 0.0
O434 O 0.9458 0.05374 0.45044 0.0
C435 C 0.98932 0.97265 0.49291 0.0
Tb436 Tb 0.28568 0.77493 0.78382 0.0
C437 C 0.22695 0.78839 0.82414 0.0
Tb438 Tb 0.2187 0.76983 0.74532 0.0
O439 O 0.28899 0.82859 0.79928 0.0
O440 O 0.26094 0.80668 0.75589 0.0
O441 O 0.25553 0.77747 0.82556 0.0
C442 C 0.16509 0.78004 0.7106 0.0
O443 O 0.20998 0.79051 0.79521 0.0
C444 C 0.23583 0.71133 0.75385 0.0
C445 C 0.27713 0.75695 0.70522 0.0
O446 O 0.16576 0.76742 0.7389 0.0
O447 O 0.1944 0.78737 0.70229 0.0
O448 O 0.21391 0.7159 0.73085 0.0
O449 O 0.24323 0.738 0.77345 0.0
O450 O 0.24956 0.76937 0.70447 0.0
O451 O 0.29345 0.75293 0.73386 0.0
C452 C 0.34431 0.77021 0.81203 0.0
O453 O 0.33857 0.78588 0.78628 0.0
O454 O 0.31694 0.75649 0.82174 0.0
C455 C 0.26765 0.83319 0.77578 0.0
Tb456 Tb 0.46558 0.0121 0.01165 0.0
C457 C 0.52319 0.97265 0.01614 0.0
Tb458 Tb 0.5343 0.05187 0.01785 0.0
O459 O 0.47288 0.98661 0.96344 0.0
O460 O 0.49684 0.0353 0.9783 0.0
O461 O 0.49292 0.97282 0.02394 0.0
C462 C 0.59533 0.07853 0.00911 0.0
O463 O 0.54196 1e-05 0.00889 0.0
C464 C 0.50697 0.05443 0.07396 0.0
C465 C 0.47669 0.09133 0.01685 0.0
O466 O 0.58724 0.05715 0.03004 0.0
O467 O 0.5691 0.08483 0.99299 0.0
O468 O 0.53083 0.0766 0.06731 0.0
O469 O 0.50272 0.02986 0.05149 0.0
O470 O 0.50642 0.09125 0.00768 0.0
O471 O 0.45798 0.06367 0.02341 0.0
C472 C 0.40234 0.98773 0.01315 0.0
O473 O 0.41435 0.00798 0.99274 0.0
O474 O 0.42606 0.98089 0.03296 0.0
C475 C 0.49458 0.01068 0.95636 0.0
Tb476 Tb 0.22345 0.2592 0.28228 0.0
C477 C 0.27781 0.28432 0.34007 0.0
Tb478 Tb 0.28385 0.30248 0.26949 0.0
O479 O 0.23575 0.21458 0.25493 0.0
O480 O 0.27257 0.25156 0.2792 0.0
O481 O 0.24646 0.28339 0.33091 0.0
C482 C 0.33743 0.32772 0.24281 0.0
O483 O 0.2989 0.28747 0.31762 0.0
C484 C 0.23861 0.33663 0.29011 0.0
C485 C 0.23106 0.27446 0.21057 0.0
O486 O 0.30799 0.32258 0.22824 0.0
O487 O 0.33663 0.31918 0.27281 0.0
O488 O 0.26983 0.34753 0.29512 0.0
O489 O 0.23456 0.30953 0.27153 0.0
O490 O 0.26259 0.27829 0.2205 0.0
O491 O 0.20915 0.27042 0.23226 0.0
C492 C 0.17187 0.23437 0.31211 0.0
O493 O 0.20183 0.23174 0.32082 0.0
O494 O 0.17074 0.25015 0.28574 0.0
C495 C 0.26713 0.22473 0.25985 0.0
Tb496 Tb 0.47644 0.53657 0.98835 0.0
C497 C 0.44807 0.51806 0.05399 0.0
Tb498 Tb 0.52352 0.52638 0.04744 0.0
O499 O 0.4596 0.48226 0.97711 0.0
O500 O 0.50601 0.50064 0.0001 0.0
O501 O 0.44547 0.53677 0.02893 0.0
C502 C 0.5593 0.50433 0.09568 0.0
O503 O 0.47564 0.50734 0.06322 0.0
C504 C 0.51358 0.58852 0.04432 0.0
C505 C 0.55209 0.54535 0.98214 0.0
O506 O 0.56949 0.5283 0.07833 0.0
O507 O 0.52877 0.49277 0.08608 0.0
O508 O 0.53947 0.5808 0.05964 0.0
O509 O 0.49371 0.56211 0.03566 0.0
O510 O 0.55479 0.52655 0.00701 0.0
O511 O 0.52431 0.55553 0.973 0.0
C512 C 0.44595 0.56034 0.93739 0.0
O513 O 0.4755 0.57154 0.9507 0.0
O514 O 0.43329 0.53596 0.95318 0.0
C515 C 0.48562 0.47438 0.99207 0.0
Tb516 Tb 0.78615 0.27891 0.28638 0.0
C517 C 0.72667 0.29017 0.32644 0.0
Tb518 Tb 0.71893 0.27246 0.24751 0.0
O519 O 0.78804 0.33234 0.302 0.0
O520 O 0.76053 0.31006 0.25846 0.0
O521 O 0.75562 0.28003 0.32786 0.0
C522 C 0.66559 0.28248 0.21202 0.0
O523 O 0.70961 0.29221 0.29753 0.0
C524 C 0.737 0.21449 0.25631 0.0
C525 C 0.77803 0.25998 0.20788 0.0
O526 O 0.66588 0.26916 0.23997 0.0
O527 O 0.69512 0.29066 0.20456 0.0
O528 O 0.71466 0.21856 0.23348 0.0
O529 O 0.74424 0.24129 0.27576 0.0
O530 O 0.74996 0.2715 0.20676 0.0
O531 O 0.79463 0.25695 0.23669 0.0
C532 C 0.84507 0.27618 0.31537 0.0
O533 O 0.83901 0.29191 0.28973 0.0
O534 O 0.81789 0.26117 0.32443 0.0
C535 C 0.76655 0.33652 0.27847 0.0
Tb536 Tb 0.96566 0.51102 0.51446 0.0
C537 C 0.02521 0.47408 0.52495 0.0
Tb538 Tb 0.03339 0.55281 0.51942 0.0
O539 O 0.97459 0.48438 0.4677 0.0
O540 O -0.00407 0.53451 0.48025 0.0
O541 O -0.00633 0.47287 0.52861 0.0
C542 C 0.09328 0.5812 0.50751 0.0
O543 O 0.04464 0.50209 0.52009 0.0
C544 C 0.00708 0.5545 0.57622 0.0
C545 C 0.97443 0.58918 0.5152 0.0
O546 O 0.07493 0.59413 0.52756 0.0
O547 O 0.078 0.5521 0.49412 0.0
O548 O 0.03078 0.57676 0.56954 0.0
O549 O 0.00297 0.53011 0.55364 0.0
O550 O 0.0027 0.58793 0.50287 0.0
O551 O 0.95754 0.56233 0.52543 0.0
C552 C 0.90235 0.4864 0.51533 0.0
O553 O 0.91463 0.50584 0.49438 0.0
O554 O 0.92584 0.48046 0.53601 0.0
C555 C -0.00504 0.50902 0.45957 0.0
Tb556 Tb 0.76296 0.78769 0.30482 0.0
C557 C 0.77241 0.83706 0.2483 0.0
Tb558 Tb 0.74263 0.76138 0.23458 0.0
O559 O 0.80703 0.76483 0.30663 0.0
O560 O 0.78869 0.78005 0.26209 0.0
O561 O 0.76825 0.83406 0.28006 0.0
C562 C 0.73419 0.7252 0.1754 0.0
O563 O 0.76885 0.81026 0.22613 0.0
C564 C 0.69567 0.78249 0.26701 0.0
C565 C 0.73686 0.71122 0.28975 0.0
O566 O 0.72582 0.75441 0.18125 0.0
O567 O 0.7478 0.71676 0.20253 0.0
O568 O 0.69683 0.78238 0.23517 0.0
O569 O 0.71783 0.76759 0.27774 0.0
O570 O 0.74223 0.715 0.25846 0.0
O571 O 0.73807 0.73762 0.31204 0.0
C572 C 0.76403 0.82472 0.36254 0.0
O573 O 0.78052 0.80041 0.35776 0.0
O574 O 0.747 0.82784 0.33512 0.0
C575 C 0.80953 0.76428 0.27486 0.0
Tb576 Tb 0.76802 0.31434 0.76858 0.0
C577 C 0.82003 0.26654 0.76536 0.0
Tb578 Tb 0.74407 0.23906 0.75849 0.0
O579 O 0.7916 0.31147 0.81869 0.0
O580 O 0.75067 0.27675 0.79945 0.0
O581 O 0.81299 0.29625 0.75976 0.0
C582 C 0.72426 0.17359 0.76139 0.0
O583 O 0.79716 0.24063 0.76873 0.0
C584 C 0.73832 0.27002 0.70404 0.0
C585 C 0.6921 0.28699 0.76033 0.0
O586 O 0.73403 0.18702 0.73542 0.0
O587 O 0.72649 0.19698 0.78587 0.0
O588 O 0.71941 0.24292 0.70924 0.0
O589 O 0.76115 0.27664 0.72764 0.0
O590 O 0.69872 0.25738 0.76756 0.0
O591 O 0.71541 0.31245 0.75685 0.0
C592 C 0.79092 0.37713 0.75785 0.0
O593 O 0.7751 0.36898 0.78306 0.0
O594 O 0.7927 0.35023 0.73899 0.0
C595 C 0.77315 0.2838 0.82337 0.0
Tb596 Tb 0.72329 0.75894 0.783 0.0
C597 C 0.7757 0.78345 0.84272 0.0
Tb598 Tb 0.78461 0.80231 0.77272 0.0
O599 O 0.73616 0.71486 0.75524 0.0
O600 O 0.7725 0.7512 0.78135 0.0
O601 O 0.74463 0.78252 0.83237 0.0
C602 C 0.83921 0.82704 0.74741 0.0
O603 O 0.79781 0.78712 0.82132 0.0
C604 C 0.73899 0.83644 0.79228 0.0
C605 C 0.73324 0.77542 0.71212 0.0
O606 O 0.83774 0.81625 0.77646 0.0
O607 O 0.80984 0.82471 0.7332 0.0
O608 O 0.77021 0.84708 0.79845 0.0
O609 O 0.73523 0.80957 0.77333 0.0
O610 O 0.76452 0.77895 0.72304 0.0
O611 O 0.7105 0.77095 0.73293 0.0
C612 C 0.67131 0.73275 0.81142 0.0
O613 O 0.70115 0.72953 0.8199 0.0
O614 O 0.67048 0.74996 0.786 0.0
C615 C 0.76749 0.72478 0.76143 0.0
Tb616 Tb 0.50966 0.55472 0.50854 0.0
C617 C 0.51258 0.49803 0.45143 0.0
Tb618 Tb 0.48286 0.48061 0.51652 0.0
O619 O 0.56063 0.54703 0.51796 0.0
O620 O 0.52401 0.51626 0.53654 0.0
O621 O 0.50529 0.52834 0.45861 0.0
C622 C 0.47429 0.41903 0.53625 0.0
O623 O 0.50839 0.47459 0.47203 0.0
C624 C 0.43821 0.51521 0.49343 0.0
C625 C 0.47586 0.53779 0.57199 0.0
O626 O 0.45675 0.44192 0.54267 0.0
O627 O 0.49617 0.43026 0.51723 0.0
O628 O 0.43172 0.48648 0.5051 0.0
O629 O 0.46822 0.51924 0.48947 0.0
O630 O 0.48226 0.50693 0.56582 0.0
O631 O 0.48389 0.56163 0.55251 0.0
C632 C 0.5194 0.61591 0.48801 0.0
O633 O 0.53658 0.59256 0.4821 0.0
O634 O 0.49717 0.6054 0.507 0.0
C635 C 0.55375 0.51946 0.53153 0.0
Tb636 Tb 0.03676 0.52849 0.01153 0.0
C637 C 0.0126 0.49379 0.07536 0.0
Tb638 Tb 0.96512 0.51763 0.02214 0.0
O639 O 0.04096 0.58257 0.02543 0.0
O640 O 0.00783 0.54808 0.04603 0.0
O641 O 0.03468 0.49798 0.05365 0.0
C642 C 0.9072 0.53546 0.02865 0.0
O643 O 0.98371 0.50359 0.07026 0.0
C644 C 0.98477 0.46738 0.989 0.0
C645 C 0.99031 0.55188 0.95741 0.0
O646 O 0.91242 0.50467 0.02473 0.0
O647 O 0.93462 0.55582 0.02994 0.0
O648 O 0.96028 0.46341 0.00696 0.0
O649 O -0.00603 0.49814 0.98798 0.0
O650 O 0.96633 0.54439 0.97671 0.0
O651 O 0.02027 0.54564 0.96497 0.0
C652 C 0.09434 0.51008 0.00419 0.0
O653 O 0.09008 0.53811 0.02009 0.0
O654 O 0.06629 0.49362 0.99115 0.0
C655 C 0.01703 0.57879 0.04418 0.0
C656 C 0.03059 0.20313 0.95749 0.0
C657 C 0.01892 0.19972 0.92344 0.0
H658 H 0.03788 0.17809 0.00142 0.0
C659 C 0.00504 0.16783 0.90771 0.0
H660 H 0.04143 0.22744 0.97029 0.0
C661 C 0.00289 0.13996 0.92546 0.0
C662 C 0.01473 0.14319 0.95933 0.0
H663 H -0.00426 0.16432 0.8816 0.0
H664 H -0.00794 0.11573 0.91244 0.0
C665 C 0.02859 0.17499 0.97532 0.0
C666 C 0.09822 0.77469 0.25069 0.0
C667 C 0.09043 0.78739 0.22047 0.0
H668 H 0.13639 0.76597 0.28627 0.0
C669 C 0.11569 0.80533 0.20515 0.0
H670 H 0.0793 0.76068 0.26299 0.0
C671 C 0.14822 0.80928 0.21903 0.0
C672 C 0.15622 0.79459 0.24802 0.0
H673 H 0.11038 0.8155 0.18188 0.0
H674 H 0.16727 0.82185 0.20582 0.0
C675 C 0.13086 0.77781 0.26405 0.0
C676 C 0.51845 0.92167 0.4145 0.0
C677 C 0.50878 0.88767 0.41848 0.0
H678 H 0.51882 0.97272 0.43331 0.0
C679 C 0.49232 0.87942 0.4463 0.0
H680 H 0.53123 0.92896 0.39347 0.0
C681 C 0.48493 0.90462 0.46906 0.0
C682 C 0.49426 0.93852 0.46469 0.0
H683 H 0.48443 0.85347 0.45008 0.0
H684 H 0.47173 0.8976 0.48991 0.0
C685 C 0.51141 0.94678 0.43741 0.0
C686 C 0.37939 0.26179 0.7136 0.0
C687 C 0.40052 0.24226 0.72849 0.0
H688 H 0.33459 0.28172 0.71536 0.0
C689 C 0.39097 0.22625 0.7563 0.0
H690 H 0.38583 0.2744 0.69212 0.0
C691 C 0.36186 0.23062 0.76962 0.0
C692 C 0.34128 0.25088 0.75542 0.0
H693 H 0.4064 0.21092 0.76846 0.0
H694 H 0.35577 0.21856 0.79153 0.0
C695 C 0.34998 0.26593 0.72685 0.0
C696 C 0.01624 0.90961 0.54697 0.0
C697 C 0.98859 0.88433 0.54239 0.0
H698 H 0.03877 0.95675 0.5333 0.0
C699 C 0.96218 0.88706 0.51944 0.0
H700 H 0.03712 0.9078 0.56421 0.0
C701 C 0.96279 0.91553 0.50255 0.0
C702 C 0.99006 0.94125 0.50792 0.0
H703 H 0.94065 0.8678 0.51546 0.0
H704 H 0.94163 0.91775 0.4859 0.0
C705 C 0.01718 0.93759 0.52941 0.0
C706 C 0.43439 0.79478 0.83536 0.0
C707 C 0.4391 0.77954 0.86476 0.0
H708 H 0.4008 0.80315 0.79552 0.0
C709 C 0.41223 0.76016 0.87636 0.0
H710 H 0.45453 0.80972 0.82554 0.0
C711 C 0.38117 0.75641 0.85889 0.0
C712 C 0.37679 0.77185 0.82963 0.0
H713 H 0.41515 0.74797 0.89882 0.0
H714 H 0.36064 0.74174 0.86836 0.0
C715 C 0.40361 0.79087 0.81796 0.0
C716 C 0.48018 0.18472 0.03205 0.0
C717 C 0.46472 0.18689 0.06144 0.0
H718 H 0.49632 0.15209 0.99455 0.0
C719 C 0.44817 0.15762 0.0721 0.0
H720 H 0.49333 0.207 0.02353 0.0
C721 C 0.44916 0.12639 0.05512 0.0
C722 C 0.46758 0.12391 0.02779 0.0
H723 H 0.43613 0.15874 0.09473 0.0
H724 H 0.43797 0.10416 0.06531 0.0
C725 C 0.48199 0.15335 0.01556 0.0
C726 C 0.13124 0.23214 0.39116 0.0
C727 C 0.10044 0.23914 0.38015 0.0
H728 H 0.17814 0.22408 0.37755 0.0
C729 C 0.09189 0.23937 0.3458 0.0
H730 H 0.13827 0.23141 0.41742 0.0
C731 C 0.11457 0.23534 0.32314 0.0
C732 C 0.146 0.23054 0.33437 0.0
H733 H 0.06813 0.24427 0.33647 0.0
H734 H 0.10803 0.23764 0.29708 0.0
C735 C 0.15387 0.22766 0.36833 0.0
C736 C 0.93142 0.08085 0.13848 0.0
C737 C 0.89977 0.06188 0.13617 0.0
H738 H 0.97683 0.08975 0.11653 0.0
C739 C 0.88882 0.03869 0.10809 0.0
H740 H 0.94043 0.09892 0.15994 0.0
C741 C 0.90988 0.03288 0.08401 0.0
C742 C 0.94192 0.05077 0.08707 0.0
H743 H 0.86469 0.02361 0.10569 0.0
H744 H 0.90138 0.01373 0.06332 0.0
C745 C 0.95224 0.07566 0.11381 0.0
C746 C 0.30073 0.76316 0.40741 0.0
C747 C 0.29026 0.72825 0.40487 0.0
H748 H 0.30322 0.80828 0.38318 0.0
C749 C 0.27378 0.71229 0.37429 0.0
H750 H 0.31348 0.77641 0.43043 0.0
C751 C 0.26743 0.73072 0.3474 0.0
C752 C 0.2775 0.76559 0.35007 0.0
H753 H 0.26536 0.68548 0.37118 0.0
H754 H 0.25527 0.71747 0.32431 0.0
C755 C 0.29473 0.78148 0.3803 0.0
C756 C 0.51979 0.97656 0.66499 0.0
C757 C 0.5514 0.96846 0.66999 0.0
H758 H 0.48325 0.99064 0.63074 0.0
C759 C 0.56936 0.96568 0.64237 0.0
H760 H 0.50526 0.97895 0.68574 0.0
C761 C 0.55673 0.97218 0.61093 0.0
C762 C 0.52577 0.98185 0.60612 0.0
H763 H 0.59365 0.95933 0.64517 0.0
H764 H 0.57184 0.97059 0.5906 0.0
C765 C 0.50714 0.98325 0.63343 0.0
C766 C 0.27904 0.34975 0.95502 0.0
C767 C 0.26549 0.37932 0.95396 0.0
H768 H 0.29078 0.3065 0.92697 0.0
C769 C 0.25377 0.3882 0.9231 0.0
H770 H 0.28835 0.34235 0.97852 0.0
C771 C 0.25476 0.36756 0.89398 0.0
C772 C 0.26793 0.33789 0.89506 0.0
H773 H 0.24307 0.41071 0.92147 0.0
H774 H 0.24508 0.37483 0.87056 0.0
C775 C 0.28047 0.32927 0.92567 0.0
C776 C 0.90302 0.05757 0.3478 0.0
C777 C 0.92244 0.05032 0.32218 0.0
H778 H 0.89963 0.06256 0.40066 0.0
C779 C 0.95481 0.04609 0.33054 0.0
H780 H 0.87801 0.0611 0.34201 0.0
C781 C 0.96698 0.04706 0.36366 0.0
C782 C 0.9471 0.05223 0.3892 0.0
H783 H 0.9706 0.04105 0.31145 0.0
H784 H 0.99175 0.04258 0.36918 0.0
C785 C 0.91532 0.05846 0.38124 0.0
C786 C 0.2838 0.74026 0.61195 0.0
C787 C 0.29722 0.71059 0.61034 0.0
H788 H 0.2665 0.77803 0.64324 0.0
C789 C 0.3073 0.69865 0.64044 0.0
H790 H 0.27523 0.74975 0.58927 0.0
C791 C 0.30292 0.71513 0.67133 0.0
C792 C 0.28744 0.74349 0.67295 0.0
H793 H 0.31735 0.67561 0.64004 0.0
H794 H 0.30973 0.70434 0.69385 0.0
C795 C 0.27856 0.75628 0.6429 0.0
C796 C 0.53562 0.03691 0.88081 0.0
C797 C 0.54019 0.00589 0.86495 0.0
H798 H 0.51854 0.06291 0.92275 0.0
C799 C 0.53169 0.97683 0.88067 0.0
H800 H 0.54211 0.05976 0.86936 0.0
C801 C 0.51732 0.97858 0.91072 0.0
C802 C 0.51211 0.00951 0.92611 0.0
H803 H 0.53484 0.95261 0.86904 0.0
H804 H 0.50997 0.95565 0.92177 0.0
C805 C 0.52223 0.03877 0.91137 0.0
C806 C 0.20824 0.33631 0.15524 0.0
C807 C 0.22866 0.33181 0.12999 0.0
H808 H 0.19128 0.31957 0.20011 0.0
C809 C 0.24352 0.30312 0.12745 0.0
H810 H 0.19614 0.35803 0.15733 0.0
C811 C 0.241 0.28129 0.1521 0.0
C812 C 0.22283 0.28741 0.17894 0.0
H813 H 0.2592 0.29903 0.10802 0.0
H814 H 0.25539 0.26127 0.15167 0.0
C815 C 0.20493 0.31393 0.17931 0.0
C816 C 0.08646 0.93823 0.03439 0.0
C817 C 0.12024 0.94877 0.0337 0.0
H818 H 0.0388 0.95217 0.03226 0.0
C819 C 0.13125 0.98305 0.03147 0.0
H820 H 0.07692 0.91208 0.03579 0.0
C821 C 0.10933 0.00594 0.02977 0.0
C822 C 0.07561 0.99556 0.03053 0.0
H823 H 0.15698 0.99232 0.03073 0.0
H824 H 0.1189 0.03197 0.02774 0.0
C825 C 0.0645 0.96134 0.0328 0.0
C826 C 0.63681 0.55178 0.95524 0.0
C827 C 0.64162 0.58433 0.94539 0.0
H828 H 0.60458 0.51403 0.97519 0.0
C829 C 0.61496 0.60155 0.94265 0.0
H830 H 0.6567 0.53758 0.95705 0.0
C831 C 0.58487 0.58767 0.95242 0.0
C832 C 0.58121 0.55663 0.96551 0.0
H833 H 0.61786 0.62655 0.93486 0.0
H834 H 0.56524 0.60228 0.9519 0.0
C835 C 0.607 0.53826 0.9657 0.0
C836 C 0.74033 0.41896 0.30638 0.0
C837 C 0.7082 0.41445 0.29097 0.0
H838 H 0.78387 0.39754 0.31451 0.0
C839 C 0.69577 0.38449 0.27052 0.0
H840 H 0.75064 0.44184 0.32214 0.0
C841 C 0.71512 0.35972 0.26537 0.0
C842 C 0.74699 0.36389 0.28111 0.0
H843 H 0.67118 0.38034 0.25801 0.0
H844 H 0.70481 0.33698 0.24985 0.0
C845 C 0.75939 0.39371 0.30182 0.0
C846 C 0.81149 0.47418 0.49207 0.0
C847 C 0.79924 0.45111 0.5136 0.0
H848 H 0.85338 0.50303 0.47579 0.0
C849 C 0.82147 0.4397 0.53627 0.0
H850 H 0.79527 0.48353 0.47419 0.0
C851 C 0.85519 0.4512 0.53721 0.0
C852 C 0.86711 0.47402 0.51535 0.0
H853 H 0.81286 0.42194 0.55319 0.0
H854 H 0.87189 0.44212 0.55482 0.0
C855 C 0.84492 0.48537 0.49288 0.0
C856 C 0.34714 0.19073 0.26447 0.0
C857 C 0.33694 0.1574 0.25018 0.0
H858 H 0.33305 0.23828 0.27857 0.0
C859 C 0.30399 0.14721 0.23742 0.0
H860 H 0.37233 0.19943 0.27444 0.0
C861 C 0.28162 0.16943 0.23965 0.0
C862 C 0.29157 0.20237 0.25483 0.0
H863 H 0.29529 0.12181 0.22607 0.0
H864 H 0.25633 0.16054 0.23012 0.0
C865 C 0.32466 0.21298 0.2668 0.0
C866 C 0.31852 0.03412 0.51775 0.0
C867 C 0.31733 0.0675 0.51183 0.0
H868 H 0.34898 0.99753 0.52772 0.0
C869 C 0.34654 0.09042 0.51383 0.0
H870 H 0.29632 0.01593 0.51644 0.0
C871 C 0.37643 0.08003 0.52098 0.0
C872 C 0.37766 0.04644 0.52567 0.0
H873 H 0.34633 0.11637 0.5098 0.0
H874 H 0.39864 0.09812 0.52175 0.0
C875 C 0.34853 0.02359 0.52434 0.0
C876 C 0.67802 0.64023 0.31557 0.0
C877 C 0.68885 0.61215 0.30015 0.0
H878 H 0.68573 0.69384 0.32552 0.0
C879 C 0.71805 0.61674 0.28502 0.0
H880 H 0.65537 0.63727 0.32709 0.0
C881 C 0.73482 0.64912 0.28317 0.0
C882 C 0.72325 0.6773 0.29742 0.0
H883 H 0.72659 0.5955 0.27253 0.0
H884 H 0.7561 0.65222 0.26946 0.0
C885 C 0.69542 0.67252 0.31475 0.0
C886 C 0.85419 0.44119 0.7283 0.0
C887 C 0.85321 0.46993 0.74989 0.0
H888 H 0.83445 0.38979 0.71335 0.0
C889 C 0.82964 0.46883 0.77284 0.0
H890 H 0.87184 0.44142 0.71015 0.0
C891 C 0.80841 0.43889 0.77514 0.0
C892 C 0.81006 0.41 0.75396 0.0
H893 H 0.82841 0.49074 0.78979 0.0
H894 H 0.79129 0.43815 0.79381 0.0
C895 C 0.83261 0.41168 0.73005 0.0
C896 C 0.9811 0.8764 0.12136 0.0
C897 C 0.97822 0.84343 0.10632 0.0
H898 H 0.9834 0.92803 0.11435 0.0
C899 C 0.97369 0.83728 0.07129 0.0
H900 H 0.98458 0.882 0.14822 0.0
C901 C 0.97273 0.86387 0.05172 0.0
C902 C 0.97667 0.89686 0.06699 0.0
H903 H 0.97134 0.81205 0.05904 0.0
H904 H 0.96975 0.85876 0.02481 0.0
C905 C 0.98051 0.9028 0.10191 0.0
C906 C 0.91074 0.29052 0.76471 0.0
C907 C 0.92292 0.27686 0.79292 0.0
H908 H 0.8687 0.29714 0.7335 0.0
C909 C 0.90103 0.25489 0.80869 0.0
H910 H 0.92679 0.30716 0.75159 0.0
C911 C 0.8674 0.24877 0.79786 0.0
C912 C 0.85522 0.26462 0.77121 0.0
H913 H 0.90958 0.24383 0.8304 0.0
H914 H 0.85078 0.23369 0.81182 0.0
C915 C 0.87739 0.28459 0.75412 0.0
C916 C 0.49401 0.12202 0.61878 0.0
C917 C 0.50115 0.15576 0.61292 0.0
H918 H 0.49317 0.07081 0.60025 0.0
C919 C 0.51236 0.16356 0.58234 0.0
H920 H 0.48526 0.1153 0.64206 0.0
C921 C 0.51771 0.1381 0.5587 0.0
C922 C 0.5111 0.10444 0.56491 0.0
H923 H 0.51823 0.1894 0.57726 0.0
H924 H 0.52732 0.14474 0.53577 0.0
C925 C 0.4985 0.09659 0.59482 0.0
C926 C 0.60949 0.79324 0.28394 0.0
C927 C 0.61009 0.79012 0.3183 0.0
H928 H 0.63617 0.79393 0.24092 0.0
C929 C 0.63963 0.78629 0.33591 0.0
H930 H 0.58718 0.79637 0.26965 0.0
C931 C 0.66757 0.78445 0.3193 0.0
C932 C 0.66675 0.78696 0.28485 0.0
H933 H 0.64092 0.78375 0.36234 0.0
H934 H 0.6897 0.78052 0.33338 0.0
C935 C 0.63757 0.79194 0.26746 0.0
C936 C 0.03459 0.18001 0.52761 0.0
C937 C 0.01051 0.18279 0.50195 0.0
H938 H 0.05479 0.14769 0.55952 0.0
C939 C 0.98586 0.15519 0.49117 0.0
H940 H 0.05395 0.20085 0.53642 0.0
C941 C 0.98623 0.12488 0.50473 0.0
C942 C 0.0115 0.12161 0.52879 0.0
H943 H 0.96694 0.15666 0.47153 0.0
H944 H 0.96739 0.10374 0.4956 0.0
C945 C 0.03519 0.14959 0.54077 0.0
C946 C 0.6109 0.30012 0.13915 0.0
C947 C 0.58073 0.29707 0.15235 0.0
H948 H 0.66196 0.29825 0.14831 0.0
C949 C 0.57871 0.28906 0.18524 0.0
H950 H 0.61304 0.30638 0.11393 0.0
C951 C 0.60634 0.284 0.20458 0.0
C952 C 0.6365 0.28743 0.19156 0.0
H953 H 0.55571 0.28651 0.1961 0.0
H954 H 0.60416 0.27776 0.22981 0.0
C955 C 0.63875 0.29559 0.1588 0.0
C956 C 0.5228 0.87923 0.00456 0.0
C957 C 0.54764 0.87747 0.98338 0.0
H958 H 0.49542 0.91097 0.0317 0.0
C959 C 0.56766 0.9072 0.97789 0.0
H960 H 0.50694 0.85673 0.00928 0.0
C961 C 0.56128 0.9382 0.99101 0.0
C962 C 0.53442 0.94013 0.00947 0.0
H963 H 0.58714 0.90661 0.9619 0.0
H964 H 0.5761 0.96064 0.98465 0.0
C965 C 0.51608 0.91033 0.0173 0.0
C966 C 0.88969 0.82341 0.67537 0.0
C967 C 0.91696 0.81225 0.69046 0.0
H968 H 0.84308 0.83753 0.68226 0.0
C969 C 0.92105 0.81258 0.72529 0.0
H970 H 0.88627 0.82373 0.64859 0.0
C971 C 0.8969 0.82101 0.74449 0.0
C972 C 0.8681 0.82885 0.7291 0.0
H973 H 0.94235 0.8049 0.73763 0.0
H974 H 0.89976 0.81896 0.77101 0.0
C975 C 0.8652 0.8315 0.69464 0.0
C976 C 0.03369 0.99559 0.86414 0.0
C977 C 0.06611 0.98958 0.86535 0.0
H978 H -0.00734 0.00108 0.89112 0.0
C979 C 0.08018 0.97909 0.89461 0.0
H980 H 0.02176 0.00309 0.8419 0.0
C981 C 0.06292 0.97735 0.92289 0.0
C982 C 0.0315 0.98594 0.922 0.0
H983 H 0.10501 0.97409 0.89624 0.0
H984 H 0.07499 0.97181 0.946 0.0
C985 C 0.01672 0.99399 0.89217 0.0
C986 C 0.74778 0.33492 0.64102 0.0
C987 C 0.71757 0.32687 0.62105 0.0
H988 H 0.77887 0.32233 0.68149 0.0
C989 C 0.69468 0.30014 0.62879 0.0
H990 H 0.76621 0.35503 0.63554 0.0
C991 C 0.70159 0.28222 0.65582 0.0
C992 C 0.73179 0.29009 0.67574 0.0
H993 H 0.67118 0.29318 0.61409 0.0
H994 H 0.68311 0.26205 0.66113 0.0
C995 C 0.75495 0.31644 0.66772 0.0
C996 C 0.49781 0.07018 0.36619 0.0
C997 C 0.46542 0.07218 0.35472 0.0
H998 H 0.53116 0.06216 0.4065 0.0
C999 C 0.44188 0.07068 0.37764 0.0
H1000 H 0.51662 0.07147 0.34927 0.0
C1001 C 0.45018 0.06489 0.41075 0.0
C1002 C 0.48226 0.06082 0.4216 0.0
H1003 H 0.41668 0.07196 0.36954 0.0
H1004 H 0.43117 0.06221 0.42739 0.0
C1005 C 0.50614 0.06476 0.39914 0.0
C1006 C 0.72181 0.64899 0.11264 0.0
C1007 C 0.71807 0.66325 0.08262 0.0
H1008 H 0.73071 0.65794 0.16579 0.0
C1009 C 0.71839 0.69794 0.08334 0.0
H1010 H 0.72192 0.62235 0.11266 0.0
C1011 C 0.72282 0.71815 0.11369 0.0
C1012 C 0.72789 0.70402 0.14355 0.0
H1013 H 0.71553 0.70945 0.06043 0.0
H1014 H 0.72323 0.74488 0.11376 0.0
C1015 C 0.72711 0.66933 0.1429 0.0
C1016 C 0.07793 0.96933 0.67648 0.0
C1017 C 0.11048 0.9849 0.68571 0.0
H1018 H 0.03596 0.96374 0.64065 0.0
C1019 C 0.12679 0.00475 0.66376 0.0
H1020 H 0.06485 0.95369 0.69286 0.0
C1021 C 0.11014 0.0107 0.63408 0.0
C1022 C 0.07709 0.99664 0.62585 0.0
H1023 H 0.15188 0.01701 0.67021 0.0
H1024 H 0.12281 0.02723 0.61817 0.0
C1025 C 0.06138 0.97507 0.64668 0.0
C1026 C 0.681 0.33913 0.38605 0.0
C1027 C 0.69607 0.33512 0.41756 0.0
H1028 H 0.67832 0.32799 0.33312 0.0
C1029 C 0.71933 0.31348 0.41901 0.0
H1030 H 0.66308 0.35565 0.38388 0.0
C1031 C 0.72858 0.29787 0.38958 0.0
C1032 C 0.71438 0.30305 0.35801 0.0
H1033 H 0.73174 0.31009 0.44275 0.0
H1034 H 0.74755 0.28254 0.39157 0.0
C1035 C 0.6898 0.32318 0.35681 0.0
C1036 C 0.43916 0.04632 0.13168 0.0
C1037 C 0.45154 0.07228 0.15727 0.0
H1038 H 0.44739 0.01952 0.08572 0.0
C1039 C 0.48208 0.09179 0.15508 0.0
H1040 H 0.41579 0.03064 0.13276 0.0
C1041 C 0.49977 0.08566 0.12801 0.0
C1042 C 0.48779 0.0594 0.10272 0.0
H1043 H 0.4923 0.11194 0.17433 0.0
H1044 H 0.5231 0.10147 0.12704 0.0
C1045 C 0.4573 0.03973 0.10485 0.0
C1046 C 0.76057 0.74825 0.92274 0.0
C1047 C 0.77594 0.71987 0.91917 0.0
H1048 H 0.74886 0.79146 0.90093 0.0
C1049 C 0.79726 0.71736 0.8944 0.0
H1050 H 0.74408 0.75096 0.94169 0.0
C1051 C 0.8008 0.74127 0.87172 0.0
C1052 C 0.78244 0.76749 0.87307 0.0
H1053 H 0.80961 0.6959 0.89129 0.0
H1054 H 0.81521 0.73719 0.85116 0.0
C1055 C 0.76348 0.77164 0.89961 0.0
C1056 C 0.89884 0.09391 0.99331 0.0
C1057 C 0.86604 0.08092 0.99663 0.0
H1058 H 0.94727 0.08291 0.98907 0.0
C1059 C 0.85682 0.04588 0.99442 0.0
H1060 H 0.90687 0.12075 0.99525 0.0
C1061 C 0.87964 0.02445 0.99046 0.0
C1062 C 0.91274 0.03713 0.98888 0.0
H1063 H 0.83177 0.03486 0.99664 0.0
H1064 H 0.8714 0.99773 0.98985 0.0
C1065 C 0.92202 0.07216 0.98967 0.0
C1066 C 0.36529 0.51994 0.08126 0.0
C1067 C 0.35414 0.48556 0.08204 0.0
H1068 H 0.40448 0.55725 0.07149 0.0
C1069 C 0.37681 0.46334 0.08191 0.0
H1070 H 0.34841 0.53769 0.08184 0.0
C1071 C 0.4092 0.47477 0.07635 0.0
C1072 C 0.41882 0.50831 0.07074 0.0
H1073 H 0.36884 0.43672 0.08242 0.0
H1074 H 0.42558 0.45677 0.07295 0.0
C1075 C 0.39731 0.53116 0.07525 0.0
C1076 C 0.30037 0.6566 0.76818 0.0
C1077 C 0.2909 0.63074 0.74192 0.0
H1078 H 0.28947 0.70157 0.79346 0.0
C1079 C 0.2623 0.63074 0.72092 0.0
H1080 H 0.32213 0.65707 0.78503 0.0
C1081 C 0.24412 0.65665 0.72545 0.0
C1082 C 0.25388 0.6828 0.75136 0.0
H1083 H 0.25439 0.61118 0.70049 0.0
H1084 H 0.22264 0.65645 0.70828 0.0
C1085 C 0.28178 0.68215 0.77306 0.0
C1086 C 0.17007 0.64526 0.50984 0.0
C1087 C 0.19083 0.62667 0.49335 0.0
H1088 H 0.12305 0.64523 0.52749 0.0
C1089 C 0.17879 0.59321 0.48051 0.0
H1090 H 0.17859 0.67101 0.52005 0.0
C1091 C 0.1468 0.57854 0.48447 0.0
C1092 C 0.12646 0.59693 0.50173 0.0
H1093 H 0.1942 0.57827 0.46761 0.0
H1094 H 0.13822 0.55266 0.47461 0.0
C1095 C 0.1383 0.63045 0.51418 0.0
C1096 C 0.69971 0.91453 0.80111 0.0
C1097 C 0.66685 0.90198 0.78932 0.0
H1098 H 0.74803 0.9037 0.81195 0.0
C1099 C 0.65753 0.86722 0.78083 0.0
H1100 H 0.70773 0.94114 0.80803 0.0
C1101 C 0.68081 0.84577 0.78277 0.0
C1102 C 0.71382 0.85854 0.79367 0.0
H1103 H 0.63247 0.85672 0.77162 0.0
H1104 H 0.67312 0.81926 0.775 0.0
C1105 C 0.72284 0.89306 0.80347 0.0
C1106 C 0.67144 0.99146 0.54735 0.0
C1107 C 0.66913 0.95688 0.53813 0.0
H1108 H 0.6503 0.03551 0.54171 0.0
C1109 C 0.6447 0.94066 0.51334 0.0
H1110 H 0.69036 0.00475 0.56606 0.0
C1111 C 0.62212 0.95847 0.49903 0.0
C1112 C 0.62359 0.99267 0.50943 0.0
H1113 H 0.64269 0.91416 0.50536 0.0
H1114 H 0.60258 0.94509 0.48102 0.0
C1115 C 0.64889 0.00923 0.53304 0.0
C1116 C 0.34172 0.41774 0.76032 0.0
C1117 C 0.32648 0.43663 0.73829 0.0
H1118 H 0.33847 0.37224 0.7835 0.0
C1119 C 0.29545 0.42302 0.72184 0.0
H1120 H 0.36554 0.4277 0.77346 0.0
C1121 C 0.28033 0.3907 0.72684 0.0
C1122 C 0.29548 0.37215 0.74933 0.0
H1123 H 0.28324 0.43709 0.70468 0.0
H1124 H 0.25664 0.38045 0.71358 0.0
C1125 C 0.32616 0.38611 0.76619 0.0
C1126 C 0.14011 0.61541 0.28413 0.0
C1127 C 0.14707 0.5853 0.269 0.0
H1128 H 0.15572 0.66796 0.29634 0.0
C1129 C 0.1769 0.58507 0.25527 0.0
H1130 H 0.11734 0.61609 0.29505 0.0
C1131 C 0.19874 0.61513 0.25522 0.0
C1132 C 0.19125 0.64536 0.26979 0.0
H1133 H 0.18262 0.562 0.24339 0.0
H1134 H 0.22104 0.61485 0.24338 0.0
C1135 C 0.16216 0.64502 0.28494 0.0
C1136 C 0.50482 0.69925 0.45968 0.0
C1137 C 0.51848 0.69832 0.4291 0.0
H1138 H 0.49379 0.67332 0.50236 0.0
C1139 C 0.53342 0.67099 0.41906 0.0
H1140 H 0.49316 0.72012 0.46795 0.0
C1141 C 0.53474 0.64505 0.43913 0.0
C1142 C 0.52032 0.64538 0.46923 0.0
H1143 H 0.54437 0.66977 0.39577 0.0
H1144 H 0.54628 0.62419 0.43052 0.0
C1145 C 0.50525 0.67264 0.47937 0.0
C1146 C 0.59936 0.26789 0.74866 0.0
C1147 C 0.5925 0.2856 0.72142 0.0
H1148 H 0.63655 0.25415 0.78231 0.0
C1149 C 0.61828 0.30646 0.7097 0.0
H1150 H 0.57998 0.25145 0.75804 0.0
C1151 C 0.6504 0.30878 0.72418 0.0
C1152 C 0.6576 0.28954 0.7501 0.0
H1153 H 0.61371 0.32039 0.68874 0.0
H1154 H 0.66981 0.32412 0.71368 0.0
C1155 C 0.6317 0.26943 0.76253 0.0
C1156 C 0.02005 0.42553 0.91644 0.0
C1157 C 0.01102 0.39135 0.92 0.0
H1158 H 0.01888 0.47616 0.93547 0.0
C1159 C -0.00593 0.38233 0.94729 0.0
H1160 H 0.03315 0.43341 0.89581 0.0
C1161 C 0.98564 0.40697 0.96998 0.0
C1162 C -0.00561 0.44104 0.96605 0.0
H1163 H 0.98663 0.35621 0.95071 0.0
H1164 H 0.97215 0.39937 0.99046 0.0
C1165 C 0.01194 0.45006 0.93926 0.0
C1166 C 0.87586 0.76276 0.21605 0.0
C1167 C 0.89763 0.74535 0.23311 0.0
H1168 H 0.83063 0.78202 0.21556 0.0
C1169 C 0.88904 0.73279 0.26293 0.0
H1170 H 0.8816 0.7727 0.19297 0.0
C1171 C 0.8601 0.73842 0.27593 0.0
C1172 C 0.83878 0.75644 0.25934 0.0
H1173 H 0.90508 0.71925 0.2768 0.0
H1174 H 0.85464 0.72902 0.29933 0.0
C1175 C 0.84662 0.76806 0.22893 0.0
C1176 C 0.46067 0.38782 0.01761 0.0
C1177 C 0.48804 0.38508 0.03931 0.0
H1178 H 0.4383 0.41887 0.98568 0.0
C1179 C 0.51559 0.41041 0.04278 0.0
H1180 H 0.43918 0.36852 0.01452 0.0
C1181 C 0.51543 0.43855 0.02565 0.0
C1182 C 0.48734 0.44239 0.00569 0.0
H1183 H 0.53717 0.40862 0.05904 0.0
H1184 H 0.53691 0.45785 0.02892 0.0
C1185 C 0.4602 0.4165 0.00113 0.0
C1186 C 0.93459 0.3042 0.34087 0.0
C1187 C 0.93971 0.28739 0.36917 0.0
H1188 H 0.90075 0.31322 0.30151 0.0
C1189 C 0.91325 0.26626 0.37953 0.0
H1190 H 0.95439 0.32056 0.33204 0.0
C1191 C 0.88228 0.26209 0.36181 0.0
C1192 C 0.87752 0.27882 0.33347 0.0
H1193 H 0.91649 0.25285 0.40114 0.0
H1194 H 0.86213 0.24589 0.37027 0.0
C1195 C 0.90387 0.29985 0.32317 0.0
C1196 C 0.98019 0.68302 0.53097 0.0
C1197 C 0.96352 0.68535 0.55955 0.0
H1198 H -0.0031 0.65013 0.4941 0.0
C1199 C 0.9456 0.65632 0.56923 0.0
H1200 H -0.00559 0.70514 0.52325 0.0
C1201 C 0.94638 0.62509 0.55223 0.0
C1202 C 0.96595 0.62223 0.52583 0.0
H1203 H 0.93261 0.65759 0.59123 0.0
H1204 H 0.93393 0.60305 0.56177 0.0
C1205 C 0.98171 0.65157 0.5144 0.0
C1206 C 0.59081 0.73499 0.84491 0.0
C1207 C 0.59926 0.73394 0.87917 0.0
H1208 H 0.60728 0.73518 0.79636 0.0
C1209 C 0.63025 0.72737 0.89003 0.0
H1210 H 0.56691 0.73962 0.83568 0.0
C1211 C 0.65312 0.72408 0.8672 0.0
C1212 C 0.64531 0.72781 0.83342 0.0
H1213 H 0.63721 0.72606 0.9162 0.0
H1214 H 0.6775 0.72078 0.87636 0.0
C1215 C 0.61375 0.73224 0.82228 0.0
C1216 C 0.40645 0.52351 0.62542 0.0
C1217 C 0.40966 0.55446 0.6448 0.0
H1218 H 0.42586 0.4938 0.58822 0.0
C1219 C 0.43545 0.58012 0.6408 0.0
H1220 H 0.38706 0.5032 0.6284 0.0
C1221 C 0.45735 0.57504 0.61714 0.0
C1222 C 0.45456 0.54371 0.59839 0.0
H1223 H 0.43849 0.60412 0.6558 0.0
H1224 H 0.47663 0.59532 0.61384 0.0
C1225 C 0.42899 0.51802 0.60286 0.0
C1226 C 0.81168 0.25559 0.9029 0.0
C1227 C 0.78942 0.227 0.90756 0.0
H1228 H 0.82437 0.29528 0.87241 0.0
C1229 C 0.76139 0.21756 0.88446 0.0
H1230 H 0.8334 0.26372 0.92023 0.0
C1231 C 0.75567 0.23629 0.85769 0.0
C1232 C 0.77834 0.26428 0.85243 0.0
H1233 H 0.74333 0.1961 0.8876 0.0
H1234 H 0.73317 0.22916 0.84148 0.0
C1235 C 0.80641 0.27372 0.8755 0.0
C1236 C 0.06583 0.46361 0.1432 0.0
C1237 C 0.04829 0.46704 0.17105 0.0
H1238 H 0.06818 0.46861 0.09147 0.0
C1239 C 0.01718 0.4764 0.16653 0.0
H1240 H 0.08973 0.45624 0.14566 0.0
C1241 C 0.00468 0.48373 0.13516 0.0
C1242 C 0.023 0.48173 0.10764 0.0
H1243 H 0.00302 0.47931 0.18749 0.0
H1244 H 0.98126 0.49215 0.13279 0.0
C1245 C 0.05336 0.47075 0.112 0.0
C1246 C 0.74854 0.89446 0.42356 0.0
C1247 C 0.76184 0.88555 0.45382 0.0
H1248 H 0.73859 0.88172 0.3709 0.0
C1249 C 0.77693 0.85691 0.45371 0.0
H1250 H 0.73666 0.91629 0.42288 0.0
C1251 C 0.7783 0.83731 0.42386 0.0
C1252 C 0.76421 0.84584 0.39386 0.0
H1253 H 0.78752 0.84954 0.47669 0.0
H1254 H 0.78979 0.8152 0.42433 0.0
C1255 C 0.74952 0.87461 0.39386 0.0
C1256 C 0.4458 0.5808 0.84938 0.0
C1257 C 0.41462 0.56456 0.83577 0.0
H1258 H 0.47972 0.59345 0.89306 0.0
C1259 C 0.39181 0.55202 0.85694 0.0
H1260 H 0.46364 0.59089 0.83344 0.0
C1261 C 0.40122 0.55279 0.891 0.0
C1262 C 0.43322 0.56686 0.90417 0.0
H1263 H 0.36762 0.53935 0.84684 0.0
H1264 H 0.38413 0.54069 0.90661 0.0
C1265 C 0.45489 0.58239 0.88346 0.0
C1266 C 0.81116 0.20253 0.14456 0.0
C1267 C 0.79987 0.21281 0.11401 0.0
H1268 H 0.8139 0.20973 0.19795 0.0
C1269 C 0.78461 0.24132 0.11477 0.0
H1270 H 0.82266 0.18041 0.14486 0.0
C1271 C 0.77878 0.25767 0.14534 0.0
C1272 C 0.78882 0.24641 0.17586 0.0
H1273 H 0.77508 0.24952 0.09176 0.0
H1274 H 0.76534 0.27841 0.14503 0.0
C1275 C 0.80611 0.21935 0.17505 0.0
C1276 C 0.03192 0.53354 0.38144 0.0
C1277 C 0.03749 0.50248 0.36659 0.0
H1278 H 0.01507 0.56023 0.42308 0.0
C1279 C 0.03145 0.47418 0.38393 0.0
H1280 H 0.03656 0.55582 0.36869 0.0
C1281 C 0.01827 0.47659 0.41462 0.0
C1282 C 0.01185 0.5075 0.42894 0.0
H1283 H 0.03543 0.44997 0.37307 0.0
H1284 H 0.01263 0.45415 0.42694 0.0
C1285 C 0.01973 0.53614 0.41257 0.0
C1286 C 0.74833 0.80573 0.63003 0.0
C1287 C 0.73261 0.83384 0.63206 0.0
H1288 H 0.76034 0.76403 0.65443 0.0
C1289 C 0.71122 0.83754 0.65655 0.0
H1290 H 0.76475 0.80227 0.61115 0.0
C1291 C 0.7076 0.8149 0.68035 0.0
C1292 C 0.7261 0.78889 0.6805 0.0
H1293 H 0.69844 0.85879 0.65822 0.0
H1294 H 0.69301 0.81989 0.70055 0.0
C1295 C 0.74547 0.78363 0.65443 0.0
C1296 C 0.58958 0.44048 0.54936 0.0
C1297 C 0.62043 0.44728 0.53728 0.0
H1298 H 0.54482 0.45857 0.55871 0.0
C1299 C 0.62878 0.47793 0.52404 0.0
H1300 H 0.58243 0.41732 0.56006 0.0
C1301 C 0.60706 0.5009 0.52251 0.0
C1302 C 0.5763 0.49437 0.53455 0.0
H1303 H 0.6522 0.48419 0.51446 0.0
H1304 H 0.61449 0.52394 0.5117 0.0
C1305 C 0.56793 0.46401 0.5484 0.0
C1306 C 0.14154 0.05596 0.45765 0.0
C1307 C 0.14651 0.08854 0.44785 0.0
H1308 H 0.10939 0.01838 0.47791 0.0
C1309 C 0.12034 0.10651 0.44659 0.0
H1310 H 0.16108 0.04125 0.45845 0.0
C1311 C 0.09054 0.09309 0.45727 0.0
C1312 C 0.08667 0.06175 0.46978 0.0
H1313 H 0.12338 0.13158 0.43898 0.0
H1314 H 0.07118 0.10803 0.45742 0.0
C1315 C 0.11204 0.04289 0.46899 0.0
C1316 C 0.198 0.88238 0.76712 0.0
C1317 C 0.21019 0.9117 0.78862 0.0
H1318 H 0.20711 0.83532 0.74542 0.0
C1319 C 0.24194 0.91557 0.80483 0.0
H1320 H 0.17373 0.87881 0.75395 0.0
C1321 C 0.2608 0.89017 0.80015 0.0
C1322 C 0.24857 0.86091 0.77852 0.0
H1323 H 0.25202 0.93797 0.8214 0.0
H1324 H 0.28494 0.89338 0.81353 0.0
C1325 C 0.21719 0.85753 0.76183 0.0
C1326 C 0.32182 0.93962 0.03343 0.0
C1327 C 0.29942 0.95149 0.01134 0.0
H1328 H 0.37236 0.94195 0.05155 0.0
C1329 C 0.31143 0.97542 0.99052 0.0
H1330 H 0.31339 0.92121 0.04979 0.0
C1331 C 0.34479 0.98697 0.99143 0.0
C1332 C 0.36717 0.97511 0.01326 0.0
H1333 H 0.29508 0.9852 0.97312 0.0
H1334 H 0.35305 0.00527 0.97487 0.0
C1335 C 0.3555 0.95145 0.03444 0.0
C1336 C 0.84737 0.69059 0.76694 0.0
C1337 C 0.83735 0.65757 0.75173 0.0
H1338 H 0.8331 0.73788 0.78183 0.0
C1339 C 0.80464 0.64771 0.73805 0.0
H1340 H 0.87238 0.69902 0.77764 0.0
C1341 C 0.78228 0.66994 0.74031 0.0
C1342 C 0.79201 0.70253 0.75644 0.0
H1343 H 0.79609 0.62256 0.72598 0.0
H1344 H 0.75715 0.6613 0.73005 0.0
C1345 C 0.82489 0.71284 0.76932 0.0
C1346 C 0.84285 0.58894 0.01248 0.0
C1347 C 0.81407 0.56529 0.00988 0.0
H1348 H 0.89498 0.59803 0.02145 0.0
C1349 C 0.8161 0.532 0.01557 0.0
H1350 H 0.84203 0.61483 0.0086 0.0
C1351 C 0.84642 0.52236 0.02278 0.0
C1352 C 0.8751 0.54595 0.02488 0.0
H1353 H 0.7943 0.51321 0.01383 0.0
H1354 H 0.84745 0.4964 0.02614 0.0
C1355 C 0.8731 0.57939 0.02016 0.0
C1356 C 0.20268 0.12779 0.8174 0.0
C1357 C 0.19055 0.10674 0.78803 0.0
H1358 H 0.2277 0.17659 0.83859 0.0
C1359 C 0.19697 0.11791 0.75721 0.0
H1360 H 0.19771 0.11972 0.84145 0.0
C1361 C 0.21439 0.14984 0.7555 0.0
C1362 C 0.22525 0.17185 0.78463 0.0
H1363 H 0.18775 0.10211 0.73424 0.0
H1364 H 0.21806 0.15769 0.73109 0.0
C1365 C 0.21969 0.16029 0.81571 0.0
C1366 C 0.35991 0.93958 0.22825 0.0
C1367 C 0.35559 0.96937 0.24641 0.0
H1368 H 0.34319 0.88714 0.21613 0.0
C1369 C 0.32915 0.96888 0.26592 0.0
H1370 H 0.37981 0.9392 0.21276 0.0
C1371 C 0.30823 0.93877 0.26819 0.0
C1372 C 0.31319 0.90894 0.25055 0.0
H1373 H 0.32525 0.99154 0.28021 0.0
H1374 H 0.28867 0.93869 0.28415 0.0
C1375 C 0.3388 0.90978 0.23009 0.0
C1376 C 0.45943 0.36181 0.60333 0.0
C1377 C 0.48081 0.33906 0.59711 0.0
H1378 H 0.43989 0.40424 0.58815 0.0
C1379 C 0.49823 0.34109 0.5689 0.0
H1380 H 0.44552 0.36066 0.6247 0.0
C1381 C 0.49536 0.36641 0.54814 0.0
C1382 C 0.47448 0.38956 0.55487 0.0
H1383 H 0.51491 0.32384 0.56352 0.0
H1384 H 0.51002 0.36837 0.52737 0.0
C1385 C 0.45605 0.38658 0.58223 0.0
C1386 C 0.406 0.78214 0.26337 0.0
C1387 C 0.4173 0.77011 0.29291 0.0
H1388 H 0.36479 0.78841 0.23077 0.0
C1389 C 0.39461 0.7503 0.30982 0.0
H1390 H 0.42271 0.79702 0.24934 0.0
C1391 C 0.36106 0.74502 0.29877 0.0
C1392 C 0.34981 0.75952 0.27073 0.0
H1393 H 0.4025 0.74056 0.3326 0.0
H1394 H 0.34383 0.73183 0.31355 0.0
C1395 C 0.37275 0.77701 0.25252 0.0
C1396 C 0.00957 0.66448 0.08521 0.0
C1397 C -0.00222 0.65644 0.11548 0.0
H1398 H 0.02557 0.64605 0.03903 0.0
C1399 C 0.99069 0.62264 0.12114 0.0
H1400 H 0.01544 0.69037 0.08029 0.0
C1401 C -0.00422 0.59738 0.09727 0.0
C1402 C 0.00896 0.6055 0.0677 0.0
H1403 H 0.98152 0.61573 0.14419 0.0
H1404 H 0.99047 0.57155 0.10254 0.0
C1405 C 0.01552 0.63921 0.0617 0.0
C1406 C 0.11772 0.30244 0.78671 0.0
C1407 C 0.11652 0.29527 0.81992 0.0
H1408 H 0.14612 0.3064 0.74513 0.0
C1409 C 0.14458 0.28723 0.83707 0.0
H1410 H 0.09656 0.30887 0.77287 0.0
C1411 C 0.17277 0.28518 0.82095 0.0
C1412 C 0.17378 0.29192 0.7876 0.0
H1413 H 0.1444 0.28146 0.86263 0.0
H1414 H 0.1936 0.27778 0.83444 0.0
C1415 C 0.14614 0.30115 0.77085 0.0
C1416 C 0.53582 0.67848 0.02829 0.0
C1417 C 0.50973 0.68185 0.00512 0.0
H1418 H 0.55759 0.64584 0.05861 0.0
C1419 C 0.48309 0.65555 -0.00202 0.0
H1420 H 0.55672 0.69833 0.03427 0.0
C1421 C 0.48337 0.62573 0.0125 0.0
C1422 C 0.51069 0.6215 0.0335 0.0
H1423 H 0.46257 0.6576 0.98038 0.0
H1424 H 0.46287 0.60551 0.00618 0.0
C1425 C 0.53641 0.64842 0.04215 0.0
C1426 C 0.07806 0.78676 0.6852 0.0
C1427 C 0.07956 0.79448 0.65217 0.0
H1428 H 0.10416 0.77582 0.72952 0.0
C1429 C 0.10946 0.79735 0.63843 0.0
H1430 H 0.05527 0.78434 0.69646 0.0
C1431 C 0.13755 0.79289 0.65767 0.0
C1432 C 0.13581 0.78503 0.69058 0.0
H1433 H 0.11117 0.80337 0.61308 0.0
H1434 H 0.16053 0.79535 0.64677 0.0
C1435 C 0.10594 0.78184 0.70417 0.0
C1436 C 0.02567 0.38117 0.51268 0.0
C1437 C 0.0509 0.38012 0.49189 0.0
H1438 H -0.00231 0.41214 0.5399 0.0
C1439 C 0.07166 0.41002 0.48828 0.0
H1440 H 0.00931 0.35851 0.51606 0.0
C1441 C 0.0653 0.4407 0.50237 0.0
C1442 C 0.03769 0.44208 0.5198 0.0
H1443 H 0.09151 0.40994 0.4727 0.0
H1444 H 0.0804 0.46341 0.49699 0.0
C1445 C 0.01895 0.41194 0.52631 0.0
C1446 C 0.38896 0.32445 0.17166 0.0
C1447 C 0.41714 0.31598 0.18786 0.0
H1448 H 0.34092 0.33541 0.17703 0.0
C1449 C 0.42116 0.31824 0.22282 0.0
H1450 H 0.38557 0.32318 0.14473 0.0
C1451 C 0.39613 0.32576 0.24122 0.0
C1452 C 0.36656 0.33067 0.22486 0.0
H1453 H 0.44311 0.31259 0.23591 0.0
H1454 H 0.39903 0.32513 0.26798 0.0
C1455 C 0.36361 0.33159 0.19013 0.0
C1456 C 0.57291 0.4794 0.39081 0.0
C1457 C 0.56196 0.49535 0.36362 0.0
H1458 H 0.56501 0.46694 0.4403 0.0
C1459 C 0.53213 0.50749 0.36424 0.0
H1460 H 0.59563 0.4696 0.39102 0.0
C1461 C 0.5149 0.50596 0.39208 0.0
C1462 C 0.52665 0.49178 0.41988 0.0
H1463 H 0.52251 0.51952 0.34368 0.0
H1464 H 0.49299 0.51721 0.39241 0.0
C1465 C 0.55523 0.47751 0.41878 0.0
C1466 C 0.24313 0.83646 0.14088 0.0
C1467 C 0.21467 0.8265 0.11843 0.0
H1468 H 0.27247 0.82566 0.18353 0.0
C1469 C 0.19314 0.79759 0.12377 0.0
H1470 H 0.26053 0.85835 0.13746 0.0
C1471 C 0.19971 0.77938 0.15076 0.0
C1472 C 0.22821 0.78919 0.17311 0.0
H1473 H 0.17099 0.78906 0.10716 0.0
H1474 H 0.1823 0.75747 0.1541 0.0
C1475 C 0.24995 0.81786 0.16759 0.0
C1476 C 0.94207 0.57276 0.88001 0.0
C1477 C 0.96538 0.57301 0.8569 0.0
H1478 H 0.93152 0.56579 0.93009 0.0
C1479 C -0.00234 0.5705 0.86828 0.0
H1480 H 0.91696 0.57448 0.87197 0.0
C1481 C 0.00606 0.56574 0.9014 0.0
C1482 C 0.98231 0.56294 0.92408 0.0
H1483 H 0.01628 0.57084 0.85117 0.0
H1484 H 0.03093 0.56261 0.90872 0.0
C1485 C 0.95041 0.56759 0.91328 0.0
C1486 C 0.20078 0.16696 0.60264 0.0
C1487 C 0.22345 0.17321 0.57937 0.0
H1488 H 0.18602 0.18258 0.65013 0.0
C1489 C 0.24829 0.20145 0.58582 0.0
H1490 H 0.18129 0.14552 0.59818 0.0
C1491 C 0.25115 0.22233 0.61553 0.0
C1492 C 0.22893 0.21564 0.639 0.0
H1493 H 0.26617 0.20692 0.56835 0.0
H1494 H 0.27108 0.24335 0.62039 0.0
C1495 C 0.20336 0.18823 0.63218 0.0
C1496 C 0.62741 0.50587 0.16342 0.0
C1497 C 0.61112 0.48667 0.18586 0.0
H1498 H 0.62339 0.52659 0.11684 0.0
C1499 C 0.57899 0.46993 0.17645 0.0
H1500 H 0.65219 0.51895 0.17003 0.0
C1501 C 0.56265 0.47408 0.14601 0.0
C1502 C 0.57813 0.49528 0.12473 0.0
H1503 H 0.56601 0.45467 0.1932 0.0
H1504 H 0.53744 0.46206 0.13993 0.0
C1505 C 0.61092 0.51029 0.13308 0.0
C1506 C 0.18214 0.83896 0.88331 0.0
C1507 C 0.19697 0.83498 0.91494 0.0
H1508 H 0.17947 0.82735 0.83043 0.0
C1509 C 0.21993 0.81301 0.91662 0.0
H1510 H 0.16445 0.85571 0.88092 0.0
C1511 C 0.22903 0.79696 0.88733 0.0
C1512 C 0.215 0.80201 0.85564 0.0
H1513 H 0.23215 0.8096 0.94046 0.0
H1514 H 0.24772 0.78131 0.88951 0.0
C1515 C 0.19081 0.82259 0.85421 0.0
C1516 C 0.93926 0.54583 0.63388 0.0
C1517 C 0.95165 0.57153 0.6597 0.0
H1518 H 0.94749 0.51949 0.5877 0.0
C1519 C 0.98228 0.59098 0.65776 0.0
H1520 H 0.91583 0.53019 0.63477 0.0
C1521 C 2e-05 0.58509 0.63066 0.0
C1522 C 0.98797 0.55912 0.6051 0.0
H1523 H -0.00746 0.61093 0.67719 0.0
H1524 H 0.0234 0.60087 0.62985 0.0
C1525 C 0.95744 0.53947 0.60703 0.0
C1526 C 0.30106 0.21827 0.39081 0.0
C1527 C 0.281 0.22124 0.41665 0.0
H1528 H 0.31711 0.23761 0.34661 0.0
C1529 C 0.26617 0.24992 0.42104 0.0
H1530 H 0.31298 0.19658 0.38705 0.0
C1531 C 0.26817 0.27314 0.39772 0.0
C1532 C 0.28575 0.26851 0.37019 0.0
H1533 H 0.25066 0.253 0.44084 0.0
H1534 H 0.25387 0.29318 0.39976 0.0
C1535 C 0.30375 0.24202 0.36793 0.0
C1536 C 0.39424 0.59092 0.48234 0.0
C1537 C 0.37021 0.58551 0.50473 0.0
H1538 H 0.43531 0.57323 0.46116 0.0
C1539 C 0.37121 0.55872 0.52434 0.0
H1540 H 0.39447 0.61129 0.46689 0.0
C1541 C 0.39368 0.53704 0.5206 0.0
C1542 C 0.41687 0.54136 0.49764 0.0
H1543 H 0.35385 0.55361 0.54238 0.0
H1544 H 0.39247 0.51634 0.53572 0.0
C1545 C 0.41759 0.56911 0.47901 0.0
C1546 C 0.87604 0.96667 0.57883 0.0
C1547 C 0.8536 0.98908 0.57713 0.0
H1548 H 0.92445 0.95834 0.57023 0.0
C1549 C 0.86482 0.02259 0.57224 0.0
H1550 H 0.86809 0.94071 0.58255 0.0
C1551 C 0.89651 0.03226 0.5644 0.0
C1552 C 0.91776 0.0089 0.56238 0.0
H1553 H 0.84825 0.04062 0.57138 0.0
H1554 H 0.90377 0.05745 0.55791 0.0
C1555 C 0.90817 0.97665 0.5716 0.0
C1556 C 0.80187 0.15962 0.26894 0.0
C1557 C 0.78989 0.13207 0.245 0.0
H1558 H 0.794 0.20691 0.29206 0.0
C1559 C 0.75962 0.13114 0.22651 0.0
H1560 H 0.82508 0.16098 0.28374 0.0
C1561 C 0.74224 0.15765 0.23105 0.0
C1562 C 0.75447 0.18549 0.25448 0.0
H1563 H 0.74971 0.11033 0.20786 0.0
H1564 H 0.71938 0.15657 0.21572 0.0
C1565 C 0.78414 0.18594 0.27382 0.0
C1566 C 0.66704 0.14002 0.98911 0.0
C1567 C 0.69344 0.1243 -0.00098 0.0
H1568 H 0.61496 0.13723 0.98379 0.0
C1569 C 0.6873 0.09323 0.01184 0.0
H1570 H 0.67118 0.16393 0.97904 0.0
C1571 C 0.65532 0.07843 0.01531 0.0
C1572 C 0.62894 0.094 0.00513 0.0
H1573 H 0.70725 0.08066 0.0198 0.0
H1574 H 0.6512 0.05469 0.02571 0.0
C1575 C 0.63497 0.12473 0.99169 0.0
C1576 C 0.15659 0.36648 0.2808 0.0
C1577 C 0.16571 0.40131 0.28891 0.0
H1578 H 0.17257 0.31876 0.27473 0.0
C1579 C 0.1987 0.41425 0.29978 0.0
H1580 H 0.13144 0.35569 0.27231 0.0
C1581 C 0.22214 0.39307 0.30157 0.0
C1582 C 0.21326 0.35848 0.29212 0.0
H1583 H 0.20657 0.44092 0.30638 0.0
H1584 H 0.24741 0.40398 0.30932 0.0
C1585 C 0.18016 0.34533 0.2822 0.0
C1586 C 0.1444 0.4417 0.01173 0.0
C1587 C 0.16949 0.45723 0.03618 0.0
H1588 H 0.10128 0.44698 0.98139 0.0
C1589 C 0.17179 0.49154 0.04683 0.0
H1590 H 0.14233 0.41544 0.00271 0.0
C1591 C 0.14862 0.50966 0.03432 0.0
C1592 C 0.12275 0.49375 0.01104 0.0
H1593 H 0.19115 0.5043 0.06535 0.0
H1594 H 0.1501 0.53566 0.04406 0.0
C1595 C 0.12123 0.45987 -0.0008 0.0
C1596 C 0.81872 0.90546 0.20462 0.0
C1597 C 0.81403 0.93471 0.22374 0.0
H1598 H 0.80871 0.85175 0.19693 0.0
C1599 C 0.79364 0.9316 0.24956 0.0
H1600 H 0.8343 0.90701 0.18457 0.0
C1601 C 0.77958 0.89988 0.25713 0.0
C1602 C 0.78496 0.87063 0.23853 0.0
H1603 H 0.78974 0.95361 0.26492 0.0
H1604 H 0.76489 0.89825 0.2779 0.0
C1605 C 0.80401 0.8738 0.21167 0.0
C1606 C 0.66281 0.09638 0.73126 0.0
C1607 C 0.65758 0.08241 0.76111 0.0
H1608 H 0.68937 0.13564 0.7078 0.0
C1609 C 0.67724 0.09636 0.7905 0.0
H1610 H 0.64796 0.08586 0.7083 0.0
C1611 C 0.70034 0.12538 0.79042 0.0
C1612 C 0.70478 0.14 0.76071 0.0
H1613 H 0.67348 0.08595 0.8138 0.0
H1614 H 0.71393 0.13701 0.8137 0.0
C1615 C 0.68663 0.12463 0.73095 0.0
loop_
_geom_bond_atom_site_label_1
_geom_bond_atom_site_label_2
_geom_bond_distance
_geom_bond_site_symmetry_2
_ccdc_geom_bond_type
C0 O1 1.306 . S
C0 O3 1.160 . S
O1 C0 1.306 . S
O1 Cd2 2.228 1_655 S
Cd2 O1 2.228 1_455 S
Cd2 O6 2.273 . S
Cd2 O10 2.277 . S
O3 C0 1.160 . S
O3 Cd4 2.203 1_655 S
Cd4 O3 2.203 1_455 S
Cd4 O6 2.411 . S
Cd4 O7 2.333 . S
Cd4 O8 2.352 . S
Cd4 O12 2.277 . S
Cd4 O13 2.356 . S
C5 O10 1.209 . S
C5 O12 1.226 . S
O6 Cd2 2.273 . S
O6 Cd4 2.411 . S
O6 C9 1.320 . S
O7 Cd4 2.333 . S
O7 C9 1.214 . S
O8 Cd4 2.352 . S
O8 C11 1.258 . S
C9 O6 1.320 . S
C9 O7 1.214 . S
O10 Cd2 2.277 . S
O10 C5 1.209 . S
C11 O8 1.258 . S
C11 O13 1.282 . S
O12 Cd4 2.277 . S
O12 C5 1.226 . S
O13 Cd4 2.356 . S
O13 C11 1.282 . S
C14 O15 1.306 . S
C14 O17 1.160 . S
O15 C14 1.306 . S
O15 Cd16 2.228 1_655 S
Cd16 O15 2.228 1_455 S
Cd16 O20 2.273 . S
Cd16 O24 2.277 1_455 S
O17 C14 1.160 . S
O17 Cd18 2.203 1_655 S
Cd18 O17 2.203 1_455 S
Cd18 O20 2.411 . S
Cd18 O21 2.333 . S
Cd18 O22 2.352 . S
Cd18 O26 2.277 1_455 S
Cd18 O27 2.356 . S
C19 O24 1.209 . S
C19 O26 1.226 . S
O20 Cd16 2.273 . S
O20 Cd18 2.411 . S
O20 C23 1.320 . S
O21 Cd18 2.333 . S
O21 C23 1.214 . S
O22 Cd18 2.352 . S
O22 C25 1.258 . S
C23 O20 1.320 . S
C23 O21 1.214 . S
O24 Cd16 2.277 1_655 S
O24 C19 1.209 . S
C25 O22 1.258 . S
C25 O27 1.282 . S
O26 Cd18 2.277 1_655 S
O26 C19 1.226 . S
O27 Cd18 2.356 . S
O27 C25 1.282 . S
C28 O29 1.306 . S
C28 O31 1.160 . S
O29 C28 1.306 . S
O29 Cd30 2.228 . S
Cd30 O29 2.228 . S
Cd30 O34 2.273 . S
Cd30 O38 2.277 . S
O31 C28 1.160 . S
O31 Cd32 2.203 . S
Cd32 O31 2.203 . S
Cd32 O34 2.411 . S
Cd32 O35 2.333 . S
Cd32 O36 2.352 . S
Cd32 O40 2.277 . S
Cd32 O41 2.356 . S
C33 O38 1.209 . S
C33 O40 1.226 . S
O34 Cd30 2.273 . S
O34 Cd32 2.411 . S
O34 C37 1.320 . S
O35 Cd32 2.333 . S
O35 C37 1.214 . S
O36 Cd32 2.352 . S
O36 C39 1.258 . S
C37 O34 1.320 . S
C37 O35 1.214 . S
O38 Cd30 2.277 . S
O38 C33 1.209 . S
C39 O36 1.258 . S
C39 O41 1.282 . S
O40 Cd32 2.277 . S
O40 C33 1.226 . S
O41 Cd32 2.356 . S
O41 C39 1.282 . S
C42 O43 1.306 . S
C42 O45 1.160 . S
O43 C42 1.306 . S
O43 Cd44 2.228 . S
Cd44 O43 2.228 . S
Cd44 O48 2.273 . S
Cd44 O52 2.277 . S
O45 C42 1.160 . S
O45 Cd46 2.203 . S
Cd46 O45 2.203 . S
Cd46 O48 2.411 . S
Cd46 O49 2.333 . S
Cd46 O50 2.352 . S
Cd46 O54 2.277 . S
Cd46 O55 2.356 . S
C47 O52 1.209 . S
C47 O54 1.226 . S
O48 Cd44 2.273 . S
O48 Cd46 2.411 . S
O48 C51 1.320 . S
O49 Cd46 2.333 . S
O49 C51 1.214 . S
O50 Cd46 2.352 . S
O50 C53 1.258 . S
C51 O48 1.320 . S
C51 O49 1.214 . S
O52 Cd44 2.277 . S
O52 C47 1.209 . S
C53 O50 1.258 . S
C53 O55 1.282 . S
O54 Cd46 2.277 . S
O54 C47 1.226 . S
O55 Cd46 2.356 . S
O55 C53 1.282 . S
C56 O57 1.306 . S
C56 O59 1.160 . S
O57 C56 1.306 . S
O57 Cd58 2.228 1_655 S
Cd58 O57 2.228 1_455 S
Cd58 O62 2.273 . S
Cd58 O66 2.277 . S
O59 C56 1.160 . S
O59 Cd60 2.203 1_655 S
Cd60 O59 2.203 1_455 S
Cd60 O62 2.411 . S
Cd60 O63 2.333 . S
Cd60 O64 2.352 . S
Cd60 O68 2.277 1_455 S
Cd60 O69 2.356 . S
C61 O66 1.210 . S
C61 O68 1.224 1_455 S
O62 Cd58 2.273 . S
O62 Cd60 2.411 . S
O62 C65 1.320 . S
O63 Cd60 2.333 . S
O63 C65 1.214 . S
O64 Cd60 2.352 . S
O64 C67 1.258 . S
C65 O62 1.320 . S
C65 O63 1.214 . S
O66 Cd58 2.277 . S
O66 C61 1.210 . S
C67 O64 1.258 . S
C67 O69 1.282 . S
O68 Cd60 2.277 1_655 S
O68 C61 1.224 1_655 S
O69 Cd60 2.356 . S
O69 C67 1.282 . S
C70 O71 1.306 . S
C70 O73 1.160 . S
O71 C70 1.306 . S
O71 Cd72 2.228 . S
Cd72 O71 2.228 . S
Cd72 O76 2.273 . S
Cd72 O80 2.277 . S
O73 C70 1.160 . S
O73 Cd74 2.203 . S
Cd74 O73 2.203 . S
Cd74 O76 2.411 . S
Cd74 O77 2.333 . S
Cd74 O78 2.352 . S
Cd74 O82 2.277 . S
Cd74 O83 2.356 . S
C75 O80 1.209 . S
C75 O82 1.226 . S
O76 Cd72 2.273 . S
O76 Cd74 2.411 . S
O76 C79 1.320 . S
O77 Cd74 2.333 . S
O77 C79 1.214 . S
O78 Cd74 2.352 . S
O78 C81 1.258 . S
C79 O76 1.320 . S
C79 O77 1.214 . S
O80 Cd72 2.277 . S
O80 C75 1.209 . S
C81 O78 1.258 . S
C81 O83 1.282 . S
O82 Cd74 2.277 . S
O82 C75 1.226 . S
O83 Cd74 2.356 . S
O83 C81 1.282 . S
C84 O85 1.306 . S
C84 O87 1.160 . S
O85 C84 1.306 . S
O85 Cd86 2.228 . S
Cd86 O85 2.228 . S
Cd86 O90 2.273 . S
Cd86 O94 2.277 . S
O87 C84 1.160 . S
O87 Cd88 2.203 . S
Cd88 O87 2.203 . S
Cd88 O90 2.411 . S
Cd88 O91 2.333 . S
Cd88 O92 2.352 . S
Cd88 O96 2.277 . S
Cd88 O97 2.356 . S
C89 O94 1.209 . S
C89 O96 1.226 . S
O90 Cd86 2.273 . S
O90 Cd88 2.411 . S
O90 C93 1.320 . S
O91 Cd88 2.333 . S
O91 C93 1.214 . S
O92 Cd88 2.352 . S
O92 C95 1.258 . S
C93 O90 1.320 . S
C93 O91 1.214 . S
O94 Cd86 2.277 . S
O94 C89 1.209 . S
C95 O92 1.258 . S
C95 O97 1.282 . S
O96 Cd88 2.277 . S
O96 C89 1.226 . S
O97 Cd88 2.356 . S
O97 C95 1.282 . S
C98 O99 1.306 . S
C98 O101 1.160 . S
O99 C98 1.306 . S
O99 Cd100 2.228 1_655 S
Cd100 O99 2.228 1_455 S
Cd100 O104 2.273 . S
Cd100 O108 2.277 . S
O101 C98 1.160 . S
O101 Cd102 2.203 1_655 S
Cd102 O101 2.203 1_455 S
Cd102 O104 2.411 . S
Cd102 O105 2.333 . S
Cd102 O106 2.352 . S
Cd102 O110 2.277 . S
Cd102 O111 2.356 . S
C103 O108 1.209 . S
C103 O110 1.226 . S
O104 Cd100 2.273 . S
O104 Cd102 2.411 . S
O104 C107 1.320 . S
O105 Cd102 2.333 . S
O105 C107 1.214 . S
O106 Cd102 2.352 . S
O106 C109 1.258 . S
C107 O104 1.320 . S
C107 O105 1.214 . S
O108 Cd100 2.277 . S
O108 C103 1.209 . S
C109 O106 1.258 . S
C109 O111 1.282 . S
O110 Cd102 2.277 . S
O110 C103 1.226 . S
O111 Cd102 2.356 . S
O111 C109 1.282 . S
C112 O113 1.306 . S
C112 O115 1.160 . S
O113 C112 1.306 . S
O113 Cd114 2.228 . S
Cd114 O113 2.228 . S
Cd114 O118 2.273 . S
Cd114 O122 2.277 1_545 S
O115 C112 1.160 . S
O115 Cd116 2.203 . S
Cd116 O115 2.203 . S
Cd116 O118 2.411 . S
Cd116 O119 2.333 . S
Cd116 O120 2.352 . S
Cd116 O124 2.277 . S
Cd116 O125 2.356 . S
C117 O122 1.209 . S
C117 O124 1.226 1_565 S
O118 Cd114 2.273 . S
O118 Cd116 2.411 . S
O118 C121 1.320 . S
O119 Cd116 2.333 . S
O119 C121 1.214 . S
O120 Cd116 2.352 . S
O120 C123 1.258 . S
C121 O118 1.320 . S
C121 O119 1.214 . S
O122 Cd114 2.277 1_565 S
O122 C117 1.209 . S
C123 O120 1.258 . S
C123 O125 1.282 . S
O124 Cd116 2.277 . S
O124 C117 1.226 1_545 S
O125 Cd116 2.356 . S
O125 C123 1.282 . S
C126 O127 1.306 . S
C126 O129 1.160 . S
O127 C126 1.306 . S
O127 Cd128 2.228 . S
Cd128 O127 2.228 . S
Cd128 O132 2.273 . S
Cd128 O136 2.277 . S
O129 C126 1.160 . S
O129 Cd130 2.203 . S
Cd130 O129 2.203 . S
Cd130 O132 2.411 . S
Cd130 O133 2.333 . S
Cd130 O134 2.352 . S
Cd130 O138 2.277 . S
Cd130 O139 2.356 . S
C131 O136 1.209 . S
C131 O138 1.226 . S
O132 Cd128 2.273 . S
O132 Cd130 2.411 . S
O132 C135 1.320 . S
O133 Cd130 2.333 . S
O133 C135 1.214 . S
O134 Cd130 2.352 . S
O134 C137 1.258 . S
C135 O132 1.320 . S
C135 O133 1.214 . S
O136 Cd128 2.277 . S
O136 C131 1.209 . S
C137 O134 1.258 . S
C137 O139 1.282 . S
O138 Cd130 2.277 . S
O138 C131 1.226 . S
O139 Cd130 2.356 . S
O139 C137 1.282 . S
C140 O141 1.306 . S
C140 O143 1.160 1_545 S
O141 C140 1.306 . S
O141 Cd142 2.228 . S
Cd142 O141 2.228 . S
Cd142 O146 2.273 1_545 S
Cd142 O150 2.277 . S
O143 C140 1.160 1_565 S
O143 Cd144 2.203 . S
Cd144 O143 2.203 . S
Cd144 O146 2.411 . S
Cd144 O147 2.333 . S
Cd144 O148 2.352 . S
Cd144 O152 2.277 1_565 S
Cd144 O153 2.356 . S
C145 O150 1.209 . S
C145 O152 1.226 . S
O146 Cd142 2.273 1_565 S
O146 Cd144 2.411 . S
O146 C149 1.320 . S
O147 Cd144 2.333 . S
O147 C149 1.214 . S
O148 Cd144 2.352 . S
O148 C151 1.258 . S
C149 O146 1.320 . S
C149 O147 1.214 . S
O150 Cd142 2.277 . S
O150 C145 1.209 . S
C151 O148 1.258 . S
C151 O153 1.282 . S
O152 Cd144 2.277 1_545 S
O152 C145 1.226 . S
O153 Cd144 2.356 . S
O153 C151 1.282 . S
C154 O155 1.306 . S
C154 O157 1.160 . S
O155 C154 1.306 . S
O155 Cd156 2.228 1_554 S
Cd156 O155 2.228 1_556 S
Cd156 O160 2.273 1_556 S
Cd156 O164 2.277 . S
O157 C154 1.160 . S
O157 Cd158 2.203 . S
Cd158 O157 2.203 . S
Cd158 O160 2.411 . S
Cd158 O161 2.333 . S
Cd158 O162 2.352 . S
Cd158 O166 2.277 1_554 S
Cd158 O167 2.356 . S
C159 O164 1.209 . S
C159 O166 1.226 . S
O160 Cd156 2.273 1_554 S
O160 Cd158 2.411 . S
O160 C163 1.320 . S
O161 Cd158 2.333 . S
O161 C163 1.214 . S
O162 Cd158 2.352 . S
O162 C165 1.258 . S
C163 O160 1.320 . S
C163 O161 1.214 . S
O164 Cd156 2.277 . S
O164 C159 1.209 . S
C165 O162 1.258 . S
C165 O167 1.282 . S
O166 Cd158 2.277 1_556 S
O166 C159 1.226 . S
O167 Cd158 2.356 . S
O167 C165 1.282 . S
C168 O169 1.306 . S
C168 O171 1.160 . S
O169 C168 1.306 . S
O169 Cd170 2.228 1_554 S
Cd170 O169 2.228 1_556 S
Cd170 O174 2.273 1_556 S
Cd170 O178 2.277 . S
O171 C168 1.160 . S
O171 Cd172 2.203 . S
Cd172 O171 2.203 . S
Cd172 O174 2.411 . S
Cd172 O175 2.333 . S
Cd172 O176 2.352 . S
Cd172 O180 2.277 1_554 S
Cd172 O181 2.356 . S
C173 O178 1.209 . S
C173 O180 1.226 . S
O174 Cd170 2.273 1_554 S
O174 Cd172 2.411 . S
O174 C177 1.320 . S
O175 Cd172 2.333 . S
O175 C177 1.214 . S
O176 Cd172 2.352 . S
O176 C179 1.258 . S
C177 O174 1.320 . S
C177 O175 1.214 . S
O178 Cd170 2.277 . S
O178 C173 1.209 . S
C179 O176 1.258 . S
C179 O181 1.282 . S
O180 Cd172 2.277 1_556 S
O180 C173 1.226 . S
O181 Cd172 2.356 . S
O181 C179 1.282 . S
C182 O183 1.306 . S
C182 O185 1.160 . S
O183 C182 1.306 . S
O183 Cd184 2.228 . S
Cd184 O183 2.228 . S
Cd184 O188 2.273 . S
Cd184 O192 2.277 . S
O185 C182 1.160 . S
O185 Cd186 2.204 1_554 S
Cd186 O185 2.204 1_556 S
Cd186 O188 2.405 1_556 S
Cd186 O189 2.331 . S
Cd186 O190 2.387 . S
Cd186 O194 2.250 1_556 S
Cd186 O195 2.381 . S
C187 O192 1.209 . S
C187 O194 1.226 . S
O188 Cd184 2.273 . S
O188 Cd186 2.405 1_554 S
O188 C191 1.320 1_554 S
O189 Cd186 2.331 . S
O189 C191 1.214 . S
O190 Cd186 2.387 . S
O190 C193 1.258 . S
C191 O188 1.320 1_556 S
C191 O189 1.214 . S
O192 Cd184 2.277 . S
O192 C187 1.209 . S
C193 O190 1.258 . S
C193 O195 1.282 . S
O194 Cd186 2.250 1_554 S
O194 C187 1.226 . S
O195 Cd186 2.381 . S
O195 C193 1.282 . S
C196 O197 1.306 . S
C196 O199 1.160 . S
O197 C196 1.306 . S
O197 Cd198 2.228 . S
Cd198 O197 2.228 . S
Cd198 O202 2.273 . S
Cd198 O206 2.277 . S
O199 C196 1.160 . S
O199 Cd200 2.203 . S
Cd200 O199 2.203 . S
Cd200 O202 2.411 . S
Cd200 O203 2.333 . S
Cd200 O204 2.352 . S
Cd200 O208 2.277 . S
Cd200 O209 2.356 . S
C201 O206 1.209 . S
C201 O208 1.226 . S
O202 Cd198 2.273 . S
O202 Cd200 2.411 . S
O202 C205 1.320 . S
O203 Cd200 2.333 . S
O203 C205 1.214 . S
O204 Cd200 2.352 . S
O204 C207 1.258 . S
C205 O202 1.320 . S
C205 O203 1.214 . S
O206 Cd198 2.277 . S
O206 C201 1.209 . S
C207 O204 1.258 . S
C207 O209 1.282 . S
O208 Cd200 2.277 . S
O208 C201 1.226 . S
O209 Cd200 2.356 . S
O209 C207 1.282 . S
C210 O211 1.306 . S
C210 O213 1.160 . S
O211 C210 1.306 . S
O211 Cd212 2.228 . S
Cd212 O211 2.228 . S
Cd212 O216 2.273 . S
Cd212 O220 2.277 . S
O213 C210 1.160 . S
O213 Cd214 2.203 . S
Cd214 O213 2.203 . S
Cd214 O216 2.411 . S
Cd214 O217 2.333 . S
Cd214 O218 2.352 . S
Cd214 O222 2.277 . S
Cd214 O223 2.356 . S
C215 O220 1.209 . S
C215 O222 1.226 . S
O216 Cd212 2.273 . S
O216 Cd214 2.411 . S
O216 C219 1.320 . S
O217 Cd214 2.333 . S
O217 C219 1.214 . S
O218 Cd214 2.352 . S
O218 C221 1.258 . S
C219 O216 1.320 . S
C219 O217 1.214 . S
O220 Cd212 2.277 . S
O220 C215 1.209 . S
C221 O218 1.258 . S
C221 O223 1.282 . S
O222 Cd214 2.277 . S
O222 C215 1.226 . S
O223 Cd214 2.356 . S
O223 C221 1.282 . S
C224 O225 1.306 . S
C224 O227 1.160 . S
O225 C224 1.306 . S
O225 Cd226 2.228 . S
Cd226 O225 2.228 . S
Cd226 O230 2.273 . S
Cd226 O234 2.277 1_545 S
O227 C224 1.160 . S
O227 Cd228 2.203 . S
Cd228 O227 2.203 . S
Cd228 O230 2.411 . S
Cd228 O231 2.333 . S
Cd228 O232 2.352 . S
Cd228 O236 2.277 . S
Cd228 O237 2.356 . S
C229 O234 1.209 . S
C229 O236 1.226 1_565 S
O230 Cd226 2.273 . S
O230 Cd228 2.411 . S
O230 C233 1.320 . S
O231 Cd228 2.333 . S
O231 C233 1.214 . S
O232 Cd228 2.352 . S
O232 C235 1.258 . S
C233 O230 1.320 . S
C233 O231 1.214 . S
O234 Cd226 2.277 1_565 S
O234 C229 1.209 . S
C235 O232 1.258 . S
C235 O237 1.282 . S
O236 Cd228 2.277 . S
O236 C229 1.226 1_545 S
O237 Cd228 2.356 . S
O237 C235 1.282 . S
C238 O239 1.306 . S
C238 O241 1.160 . S
O239 C238 1.306 . S
O239 Cd240 2.228 . S
Cd240 O239 2.228 . S
Cd240 O244 2.273 . S
Cd240 O248 2.277 . S
O241 C238 1.160 . S
O241 Cd242 2.203 . S
Cd242 O241 2.203 . S
Cd242 O244 2.411 . S
Cd242 O245 2.333 . S
Cd242 O246 2.352 . S
Cd242 O250 2.277 . S
Cd242 O251 2.356 . S
C243 O248 1.209 . S
C243 O250 1.226 . S
O244 Cd240 2.273 . S
O244 Cd242 2.411 . S
O244 C247 1.320 . S
O245 Cd242 2.333 . S
O245 C247 1.214 . S
O246 Cd242 2.352 . S
O246 C249 1.258 . S
C247 O244 1.320 . S
C247 O245 1.214 . S
O248 Cd240 2.277 . S
O248 C243 1.209 . S
C249 O246 1.258 . S
C249 O251 1.282 . S
O250 Cd242 2.277 . S
O250 C243 1.226 . S
O251 Cd242 2.356 . S
O251 C249 1.282 . S
C252 O253 1.306 . S
C252 O255 1.160 . S
O253 C252 1.306 . S
O253 Cd254 2.228 . S
Cd254 O253 2.228 . S
Cd254 O258 2.273 . S
Cd254 O262 2.277 . S
O255 C252 1.160 . S
O255 Cd256 2.203 . S
Cd256 O255 2.203 . S
Cd256 O258 2.411 . S
Cd256 O259 2.333 . S
Cd256 O260 2.352 . S
Cd256 O264 2.277 . S
Cd256 O265 2.356 . S
C257 O262 1.209 . S
C257 O264 1.226 . S
O258 Cd254 2.273 . S
O258 Cd256 2.411 . S
O258 C261 1.320 . S
O259 Cd256 2.333 . S
O259 C261 1.214 . S
O260 Cd256 2.352 . S
O260 C263 1.258 . S
C261 O258 1.320 . S
C261 O259 1.214 . S
O262 Cd254 2.277 . S
O262 C257 1.209 . S
C263 O260 1.258 . S
C263 O265 1.282 . S
O264 Cd256 2.277 . S
O264 C257 1.226 . S
O265 Cd256 2.356 . S
O265 C263 1.282 . S
C266 O267 1.306 . S
C266 O269 1.160 . S
O267 C266 1.306 . S
O267 Cd268 2.228 . S
Cd268 O267 2.228 . S
Cd268 O272 2.303 . S
Cd268 O276 2.277 . S
O269 C266 1.160 . S
O269 Cd270 2.204 . S
Cd270 O269 2.204 . S
Cd270 O272 2.411 . S
Cd270 O273 2.335 1_545 S
Cd270 O274 2.318 1_545 S
Cd270 O278 2.302 . S
Cd270 O279 2.333 1_545 S
C271 O276 1.209 . S
C271 O278 1.226 . S
O272 Cd268 2.303 . S
O272 Cd270 2.411 . S
O272 C275 1.318 1_545 S
O273 Cd270 2.335 1_565 S
O273 C275 1.214 . S
O274 Cd270 2.318 1_565 S
O274 C277 1.258 . S
C275 O272 1.318 1_565 S
C275 O273 1.214 . S
O276 Cd268 2.277 . S
O276 C271 1.209 . S
C277 O274 1.258 . S
C277 O279 1.282 . S
O278 Cd270 2.302 . S
O278 C271 1.226 . S
O279 Cd270 2.333 1_565 S
O279 C277 1.282 . S
C280 O281 1.306 . S
C280 O283 1.150 1_554 S
O281 C280 1.306 . S
O281 Cd282 2.228 . S
Cd282 O281 2.228 . S
Cd282 O286 2.273 1_554 S
Cd282 O290 2.277 . S
O283 C280 1.150 1_556 S
O283 Cd284 2.203 . S
Cd284 O283 2.203 . S
Cd284 O286 2.411 . S
Cd284 O287 2.333 . S
Cd284 O288 2.352 . S
Cd284 O292 2.277 1_556 S
Cd284 O293 2.356 . S
C285 O290 1.209 . S
C285 O292 1.226 . S
O286 Cd282 2.273 1_556 S
O286 Cd284 2.411 . S
O286 C289 1.320 . S
O287 Cd284 2.333 . S
O287 C289 1.214 . S
O288 Cd284 2.352 . S
O288 C291 1.258 . S
C289 O286 1.320 . S
C289 O287 1.214 . S
O290 Cd282 2.277 . S
O290 C285 1.209 . S
C291 O288 1.258 . S
C291 O293 1.282 . S
O292 Cd284 2.277 1_554 S
O292 C285 1.226 . S
O293 Cd284 2.356 . S
O293 C291 1.282 . S
C294 O295 1.306 . S
C294 O297 1.160 . S
O295 C294 1.306 . S
O295 Cd296 2.228 . S
Cd296 O295 2.228 . S
Cd296 O300 2.273 . S
Cd296 O304 2.277 . S
O297 C294 1.160 . S
O297 Cd298 2.203 . S
Cd298 O297 2.203 . S
Cd298 O300 2.411 . S
Cd298 O301 2.333 . S
Cd298 O302 2.352 . S
Cd298 O306 2.277 . S
Cd298 O307 2.356 . S
C299 O304 1.209 . S
C299 O306 1.226 . S
O300 Cd296 2.273 . S
O300 Cd298 2.411 . S
O300 C303 1.320 . S
O301 Cd298 2.333 . S
O301 C303 1.214 . S
O302 Cd298 2.352 . S
O302 C305 1.258 . S
C303 O300 1.320 . S
C303 O301 1.214 . S
O304 Cd296 2.277 . S
O304 C299 1.209 . S
C305 O302 1.258 . S
C305 O307 1.282 . S
O306 Cd298 2.277 . S
O306 C299 1.226 . S
O307 Cd298 2.356 . S
O307 C305 1.282 . S
C308 O309 1.306 . S
C308 O311 1.160 . S
O309 C308 1.306 . S
O309 Cd310 2.228 . S
Cd310 O309 2.228 . S
Cd310 O314 2.273 . S
Cd310 O318 2.277 . S
O311 C308 1.160 . S
O311 Cd312 2.203 . S
Cd312 O311 2.203 . S
Cd312 O314 2.411 . S
Cd312 O315 2.333 . S
Cd312 O316 2.352 . S
Cd312 O320 2.277 . S
Cd312 O321 2.356 . S
C313 O318 1.209 . S
C313 O320 1.226 . S
O314 Cd310 2.273 . S
O314 Cd312 2.411 . S
O314 C317 1.320 . S
O315 Cd312 2.333 . S
O315 C317 1.214 . S
O316 Cd312 2.352 . S
O316 C319 1.258 . S
C317 O314 1.320 . S
C317 O315 1.214 . S
O318 Cd310 2.277 . S
O318 C313 1.209 . S
C319 O316 1.258 . S
C319 O321 1.282 . S
O320 Cd312 2.277 . S
O320 C313 1.226 . S
O321 Cd312 2.356 . S
O321 C319 1.282 . S
C322 O323 1.306 . S
C322 O325 1.160 . S
O323 C322 1.306 . S
O323 Cd324 2.228 . S
Cd324 O323 2.228 . S
Cd324 O328 2.273 . S
Cd324 O332 2.277 . S
O325 C322 1.160 . S
O325 Cd326 2.203 . S
Cd326 O325 2.203 . S
Cd326 O328 2.411 . S
Cd326 O329 2.333 . S
Cd326 O330 2.352 . S
Cd326 O334 2.277 . S
Cd326 O335 2.356 . S
C327 O332 1.209 . S
C327 O334 1.226 . S
O328 Cd324 2.273 . S
O328 Cd326 2.411 . S
O328 C331 1.320 . S
O329 Cd326 2.333 . S
O329 C331 1.214 . S
O330 Cd326 2.352 . S
O330 C333 1.258 . S
C331 O328 1.320 . S
C331 O329 1.214 . S
O332 Cd324 2.277 . S
O332 C327 1.209 . S
C333 O330 1.258 . S
C333 O335 1.282 . S
O334 Cd326 2.277 . S
O334 C327 1.226 . S
O335 Cd326 2.356 . S
O335 C333 1.282 . S
Tb336 O339 2.453 . S
Tb336 O340 2.596 . S
Tb336 O341 2.374 1_554 S
Tb336 O349 2.343 1_455 S
Tb336 O351 2.353 . S
Tb336 O353 2.427 . S
Tb336 O354 2.513 1_554 S
C337 O341 1.251 . S
C337 O343 1.263 1_545 S
Tb338 O340 2.343 1_665 S
Tb338 O343 2.353 1_654 S
Tb338 O346 2.427 1_655 S
Tb338 O347 2.515 . S
Tb338 O348 2.453 1_564 S
Tb338 O349 2.596 1_565 S
Tb338 O350 2.374 1_565 S
O339 Tb336 2.453 . S
O339 C355 1.245 . S
O340 Tb336 2.596 . S
O340 Tb338 2.343 1_445 S
O340 C355 1.259 . S
O341 Tb336 2.374 1_556 S
O341 C337 1.251 . S
C342 O346 1.275 . S
C342 O347 1.244 1_455 S
O343 C337 1.263 1_565 S
O343 Tb338 2.353 1_456 S
C344 O348 1.245 1_554 S
C344 O349 1.259 . S
C345 O350 1.250 . S
C345 O351 1.263 1_655 S
O346 Tb338 2.427 1_455 S
O346 C342 1.275 . S
O347 Tb338 2.515 . S
O347 C342 1.244 1_655 S
O348 Tb338 2.453 1_546 S
O348 C344 1.245 1_556 S
O349 Tb336 2.343 1_655 S
O349 Tb338 2.596 1_545 S
O349 C344 1.259 . S
O350 Tb338 2.374 1_545 S
O350 C345 1.250 . S
O351 Tb336 2.353 . S
O351 C345 1.263 1_455 S
C352 O353 1.275 . S
C352 O354 1.246 1_554 S
O353 Tb336 2.427 . S
O353 C352 1.275 . S
O354 Tb336 2.513 1_556 S
O354 C352 1.246 1_556 S
C355 O339 1.245 . S
C355 O340 1.259 . S
Tb356 O359 2.453 . S
Tb356 O360 2.596 . S
Tb356 O361 2.374 . S
Tb356 O369 2.343 . S
Tb356 O371 2.353 . S
Tb356 O373 2.427 . S
Tb356 O374 2.513 . S
C357 O361 1.251 . S
C357 O363 1.263 . S
Tb358 O360 2.343 . S
Tb358 O363 2.353 . S
Tb358 O366 2.427 . S
Tb358 O367 2.513 . S
Tb358 O368 2.453 . S
Tb358 O369 2.596 . S
Tb358 O370 2.374 . S
O359 Tb356 2.453 . S
O359 C375 1.245 . S
O360 Tb356 2.596 . S
O360 Tb358 2.343 . S
O360 C375 1.259 . S
O361 Tb356 2.374 . S
O361 C357 1.251 . S
C362 O366 1.275 . S
C362 O367 1.246 . S
O363 C357 1.263 . S
O363 Tb358 2.353 . S
C364 O368 1.245 . S
C364 O369 1.259 . S
C365 O370 1.250 . S
C365 O371 1.263 . S
O366 Tb358 2.427 . S
O366 C362 1.275 . S
O367 Tb358 2.513 . S
O367 C362 1.246 . S
O368 Tb358 2.453 . S
O368 C364 1.245 . S
O369 Tb356 2.343 . S
O369 Tb358 2.596 . S
O369 C364 1.259 . S
O370 Tb358 2.374 . S
O370 C365 1.250 . S
O371 Tb356 2.353 . S
O371 C365 1.263 . S
C372 O373 1.275 . S
C372 O374 1.246 . S
O373 Tb356 2.427 . S
O373 C372 1.275 . S
O374 Tb356 2.513 . S
O374 C372 1.246 . S
C375 O359 1.245 . S
C375 O360 1.259 . S
Tb376 O379 2.453 . S
Tb376 O380 2.596 . S
Tb376 O381 2.374 . S
Tb376 O389 2.343 1_545 S
Tb376 O391 2.353 . S
Tb376 O393 2.427 . S
Tb376 O394 2.513 1_545 S
C377 O381 1.251 . S
C377 O383 1.263 . S
Tb378 O380 2.343 . S
Tb378 O383 2.353 . S
Tb378 O386 2.427 . S
Tb378 O387 2.513 . S
Tb378 O388 2.453 1_545 S
Tb378 O389 2.596 1_545 S
Tb378 O390 2.374 . S
O379 Tb376 2.453 . S
O379 C395 1.245 . S
O380 Tb376 2.596 . S
O380 Tb378 2.343 . S
O380 C395 1.259 . S
O381 Tb376 2.374 . S
O381 C377 1.251 . S
C382 O386 1.275 . S
C382 O387 1.246 . S
O383 C377 1.263 . S
O383 Tb378 2.353 . S
C384 O388 1.245 . S
C384 O389 1.259 . S
C385 O390 1.250 . S
C385 O391 1.263 . S
O386 Tb378 2.427 . S
O386 C382 1.275 . S
O387 Tb378 2.513 . S
O387 C382 1.246 . S
O388 Tb378 2.453 1_565 S
O388 C384 1.245 . S
O389 Tb376 2.343 1_565 S
O389 Tb378 2.596 1_565 S
O389 C384 1.259 . S
O390 Tb378 2.374 . S
O390 C385 1.250 . S
O391 Tb376 2.353 . S
O391 C385 1.263 . S
C392 O393 1.275 1_565 S
C392 O394 1.246 . S
O393 Tb376 2.427 . S
O393 C392 1.275 1_545 S
O394 Tb376 2.513 1_565 S
O394 C392 1.246 . S
C395 O379 1.245 . S
C395 O380 1.259 . S
Tb396 O399 2.453 . S
Tb396 O400 2.596 . S
Tb396 O401 2.374 . S
Tb396 O409 2.343 . S
Tb396 O411 2.353 . S
Tb396 O413 2.427 . S
Tb396 O414 2.513 . S
C397 O401 1.251 . S
C397 O403 1.263 . S
Tb398 O400 2.343 . S
Tb398 O403 2.353 . S
Tb398 O406 2.427 . S
Tb398 O407 2.513 . S
Tb398 O408 2.453 . S
Tb398 O409 2.596 . S
Tb398 O410 2.374 . S
O399 Tb396 2.453 . S
O399 C415 1.245 . S
O400 Tb396 2.596 . S
O400 Tb398 2.343 . S
O400 C415 1.259 . S
O401 Tb396 2.374 . S
O401 C397 1.251 . S
C402 O406 1.275 . S
C402 O407 1.246 . S
O403 C397 1.263 . S
O403 Tb398 2.353 . S
C404 O408 1.245 . S
C404 O409 1.259 . S
C405 O410 1.250 . S
C405 O411 1.263 . S
O406 Tb398 2.427 . S
O406 C402 1.275 . S
O407 Tb398 2.513 . S
O407 C402 1.246 . S
O408 Tb398 2.453 . S
O408 C404 1.245 . S
O409 Tb396 2.343 . S
O409 Tb398 2.596 . S
O409 C404 1.259 . S
O410 Tb398 2.374 . S
O410 C405 1.250 . S
O411 Tb396 2.353 . S
O411 C405 1.263 . S
C412 O413 1.275 . S
C412 O414 1.246 . S
O413 Tb396 2.427 . S
O413 C412 1.275 . S
O414 Tb396 2.513 . S
O414 C412 1.246 . S
C415 O399 1.245 . S
C415 O400 1.259 . S
Tb416 O419 2.456 1_545 S
Tb416 O420 2.596 1_545 S
Tb416 O421 2.374 1_445 S
Tb416 O429 2.340 . S
Tb416 O431 2.353 . S
Tb416 O433 2.425 . S
Tb416 O434 2.511 1_455 S
C417 O421 1.251 1_545 S
C417 O423 1.263 . S
Tb418 O420 2.343 1_545 S
Tb418 O423 2.353 1_455 S
Tb418 O426 2.427 . S
Tb418 O427 2.513 . S
Tb418 O428 2.453 . S
Tb418 O429 2.596 . S
Tb418 O430 2.374 . S
O419 Tb416 2.456 1_565 S
O419 C435 1.245 . S
O420 Tb416 2.596 1_565 S
O420 Tb418 2.343 1_565 S
O420 C435 1.259 . S
O421 Tb416 2.374 1_665 S
O421 C417 1.251 1_565 S
C422 O426 1.275 . S
C422 O427 1.246 . S
O423 C417 1.263 . S
O423 Tb418 2.353 1_655 S
C424 O428 1.245 . S
C424 O429 1.259 . S
C425 O430 1.250 . S
C425 O431 1.263 . S
O426 Tb418 2.427 . S
O426 C422 1.275 . S
O427 Tb418 2.513 . S
O427 C422 1.246 . S
O428 Tb418 2.453 . S
O428 C424 1.245 . S
O429 Tb416 2.340 . S
O429 Tb418 2.596 . S
O429 C424 1.259 . S
O430 Tb418 2.374 . S
O430 C425 1.250 . S
O431 Tb416 2.353 . S
O431 C425 1.263 . S
C432 O433 1.275 1_655 S
C432 O434 1.246 . S
O433 Tb416 2.425 . S
O433 C432 1.275 1_455 S
O434 Tb416 2.511 1_655 S
O434 C432 1.246 . S
C435 O419 1.245 . S
C435 O420 1.259 . S
Tb436 O439 2.453 . S
Tb436 O440 2.596 . S
Tb436 O441 2.374 . S
Tb436 O449 2.343 . S
Tb436 O451 2.353 . S
Tb436 O453 2.427 . S
Tb436 O454 2.513 . S
C437 O441 1.251 . S
C437 O443 1.263 . S
Tb438 O440 2.343 . S
Tb438 O443 2.353 . S
Tb438 O446 2.427 . S
Tb438 O447 2.513 . S
Tb438 O448 2.453 . S
Tb438 O449 2.596 . S
Tb438 O450 2.374 . S
O439 Tb436 2.453 . S
O439 C455 1.245 . S
O440 Tb436 2.596 . S
O440 Tb438 2.343 . S
O440 C455 1.259 . S
O441 Tb436 2.374 . S
O441 C437 1.251 . S
C442 O446 1.275 . S
C442 O447 1.246 . S
O443 C437 1.263 . S
O443 Tb438 2.353 . S
C444 O448 1.245 . S
C444 O449 1.259 . S
C445 O450 1.250 . S
C445 O451 1.263 . S
O446 Tb438 2.427 . S
O446 C442 1.275 . S
O447 Tb438 2.513 . S
O447 C442 1.246 . S
O448 Tb438 2.453 . S
O448 C444 1.245 . S
O449 Tb436 2.343 . S
O449 Tb438 2.596 . S
O449 C444 1.259 . S
O450 Tb438 2.374 . S
O450 C445 1.250 . S
O451 Tb436 2.353 . S
O451 C445 1.263 . S
C452 O453 1.275 . S
C452 O454 1.246 . S
O453 Tb436 2.427 . S
O453 C452 1.275 . S
O454 Tb436 2.513 . S
O454 C452 1.246 . S
C455 O439 1.245 . S
C455 O440 1.259 . S
Tb456 O459 2.453 . S
Tb456 O460 2.596 . S
Tb456 O461 2.374 1_545 S
Tb456 O469 2.343 1_556 S
Tb456 O471 2.353 1_556 S
Tb456 O473 2.427 1_556 S
Tb456 O474 2.513 1_546 S
C457 O461 1.254 . S
C457 O463 1.252 1_556 S
Tb458 O460 2.343 1_554 S
Tb458 O463 2.353 1_545 S
Tb458 O466 2.427 . S
Tb458 O467 2.513 . S
Tb458 O468 2.453 . S
Tb458 O469 2.596 . S
Tb458 O470 2.374 . S
O459 Tb456 2.453 . S
O459 C475 1.245 . S
O460 Tb456 2.596 . S
O460 Tb458 2.343 1_556 S
O460 C475 1.259 . S
O461 Tb456 2.374 1_565 S
O461 C457 1.254 . S
C462 O466 1.275 . S
C462 O467 1.246 . S
O463 C457 1.252 1_554 S
O463 Tb458 2.353 1_565 S
C464 O468 1.245 . S
C464 O469 1.259 . S
C465 O470 1.250 . S
C465 O471 1.263 . S
O466 Tb458 2.427 . S
O466 C462 1.275 . S
O467 Tb458 2.513 . S
O467 C462 1.246 . S
O468 Tb458 2.453 . S
O468 C464 1.245 . S
O469 Tb456 2.343 1_554 S
O469 Tb458 2.596 . S
O469 C464 1.259 . S
O470 Tb458 2.374 . S
O470 C465 1.250 . S
O471 Tb456 2.353 1_554 S
O471 C465 1.263 . S
C472 O473 1.275 1_565 S
C472 O474 1.246 . S
O473 Tb456 2.427 1_554 S
O473 C472 1.275 1_545 S
O474 Tb456 2.513 1_564 S
O474 C472 1.246 . S
C475 O459 1.245 . S
C475 O460 1.259 . S
Tb476 O479 2.453 . S
Tb476 O480 2.596 . S
Tb476 O481 2.374 . S
Tb476 O489 2.343 . S
Tb476 O491 2.353 . S
Tb476 O493 2.427 . S
Tb476 O494 2.513 . S
C477 O481 1.251 . S
C477 O483 1.263 . S
Tb478 O480 2.343 . S
Tb478 O483 2.353 . S
Tb478 O486 2.427 . S
Tb478 O487 2.513 . S
Tb478 O488 2.453 . S
Tb478 O489 2.596 . S
Tb478 O490 2.374 . S
O479 Tb476 2.453 . S
O479 C495 1.245 . S
O480 Tb476 2.596 . S
O480 Tb478 2.343 . S
O480 C495 1.259 . S
O481 Tb476 2.374 . S
O481 C477 1.251 . S
C482 O486 1.275 . S
C482 O487 1.246 . S
O483 C477 1.263 . S
O483 Tb478 2.353 . S
C484 O488 1.245 . S
C484 O489 1.259 . S
C485 O490 1.250 . S
C485 O491 1.263 . S
O486 Tb478 2.427 . S
O486 C482 1.275 . S
O487 Tb478 2.513 . S
O487 C482 1.246 . S
O488 Tb478 2.453 . S
O488 C484 1.245 . S
O489 Tb476 2.343 . S
O489 Tb478 2.596 . S
O489 C484 1.259 . S
O490 Tb478 2.374 . S
O490 C485 1.250 . S
O491 Tb476 2.353 . S
O491 C485 1.263 . S
C492 O493 1.275 . S
C492 O494 1.246 . S
O493 Tb476 2.427 . S
O493 C492 1.275 . S
O494 Tb476 2.513 . S
O494 C492 1.246 . S
C495 O479 1.245 . S
C495 O480 1.259 . S
Tb496 O499 2.453 1_556 S
Tb496 O500 2.596 1_556 S
Tb496 O501 2.380 . S
Tb496 O509 2.343 . S
Tb496 O511 2.353 . S
Tb496 O513 2.427 . S
Tb496 O514 2.513 . S
C497 O501 1.239 1_554 S
C497 O503 1.263 . S
Tb498 O500 2.343 . S
Tb498 O503 2.353 . S
Tb498 O506 2.427 . S
Tb498 O507 2.513 . S
Tb498 O508 2.453 . S
Tb498 O509 2.596 1_554 S
Tb498 O510 2.374 . S
O499 Tb496 2.453 1_554 S
O499 C515 1.245 . S
O500 Tb496 2.596 1_554 S
O500 Tb498 2.343 . S
O500 C515 1.259 . S
O501 Tb496 2.380 . S
O501 C497 1.239 1_556 S
C502 O506 1.275 . S
C502 O507 1.246 . S
O503 C497 1.263 . S
O503 Tb498 2.353 . S
C504 O508 1.245 . S
C504 O509 1.259 1_554 S
C505 O510 1.250 . S
C505 O511 1.263 1_554 S
O506 Tb498 2.427 . S
O506 C502 1.275 . S
O507 Tb498 2.513 . S
O507 C502 1.246 . S
O508 Tb498 2.453 . S
O508 C504 1.245 . S
O509 Tb496 2.343 . S
O509 Tb498 2.596 1_556 S
O509 C504 1.259 1_556 S
O510 Tb498 2.374 . S
O510 C505 1.250 . S
O511 Tb496 2.353 . S
O511 C505 1.263 1_556 S
C512 O513 1.275 . S
C512 O514 1.246 . S
O513 Tb496 2.427 . S
O513 C512 1.275 . S
O514 Tb496 2.513 . S
O514 C512 1.246 . S
C515 O499 1.245 . S
C515 O500 1.259 . S
Tb516 O519 2.453 . S
Tb516 O520 2.596 . S
Tb516 O521 2.374 . S
Tb516 O529 2.343 . S
Tb516 O531 2.353 . S
Tb516 O533 2.427 . S
Tb516 O534 2.513 . S
C517 O521 1.251 . S
C517 O523 1.263 . S
Tb518 O520 2.343 . S
Tb518 O523 2.353 . S
Tb518 O526 2.427 . S
Tb518 O527 2.513 . S
Tb518 O528 2.453 . S
Tb518 O529 2.596 . S
Tb518 O530 2.374 . S
O519 Tb516 2.453 . S
O519 C535 1.245 . S
O520 Tb516 2.596 . S
O520 Tb518 2.343 . S
O520 C535 1.259 . S
O521 Tb516 2.374 . S
O521 C517 1.251 . S
C522 O526 1.275 . S
C522 O527 1.246 . S
O523 C517 1.263 . S
O523 Tb518 2.353 . S
C524 O528 1.245 . S
C524 O529 1.259 . S
C525 O530 1.250 . S
C525 O531 1.263 . S
O526 Tb518 2.427 . S
O526 C522 1.275 . S
O527 Tb518 2.513 . S
O527 C522 1.246 . S
O528 Tb518 2.453 . S
O528 C524 1.245 . S
O529 Tb516 2.343 . S
O529 Tb518 2.596 . S
O529 C524 1.259 . S
O530 Tb518 2.374 . S
O530 C525 1.250 . S
O531 Tb516 2.353 . S
O531 C525 1.263 . S
C532 O533 1.275 . S
C532 O534 1.246 . S
O533 Tb516 2.427 . S
O533 C532 1.275 . S
O534 Tb516 2.513 . S
O534 C532 1.246 . S
C535 O519 1.245 . S
C535 O520 1.259 . S
Tb536 O539 2.453 . S
Tb536 O540 2.596 1_655 S
Tb536 O541 2.374 . S
Tb536 O549 2.343 . S
Tb536 O551 2.353 . S
Tb536 O553 2.427 . S
Tb536 O554 2.513 . S
C537 O541 1.251 1_455 S
C537 O543 1.263 . S
Tb538 O540 2.343 . S
Tb538 O543 2.353 . S
Tb538 O546 2.427 . S
Tb538 O547 2.513 . S
Tb538 O548 2.453 . S
Tb538 O549 2.596 1_455 S
Tb538 O550 2.374 . S
O539 Tb536 2.453 . S
O539 C555 1.245 1_655 S
O540 Tb536 2.596 1_455 S
O540 Tb538 2.343 . S
O540 C555 1.259 . S
O541 Tb536 2.374 . S
O541 C537 1.251 1_655 S
C542 O546 1.275 . S
C542 O547 1.246 . S
O543 C537 1.263 . S
O543 Tb538 2.353 . S
C544 O548 1.245 1_655 S
C544 O549 1.259 . S
C545 O550 1.250 . S
C545 O551 1.263 1_455 S
O546 Tb538 2.427 . S
O546 C542 1.275 . S
O547 Tb538 2.513 . S
O547 C542 1.246 . S
O548 Tb538 2.453 . S
O548 C544 1.245 1_455 S
O549 Tb536 2.343 . S
O549 Tb538 2.596 1_655 S
O549 C544 1.259 . S
O550 Tb538 2.374 . S
O550 C545 1.250 . S
O551 Tb536 2.353 . S
O551 C545 1.263 1_655 S
C552 O553 1.275 . S
C552 O554 1.246 . S
O553 Tb536 2.427 . S
O553 C552 1.275 . S
O554 Tb536 2.513 . S
O554 C552 1.246 . S
C555 O539 1.245 1_455 S
C555 O540 1.259 . S
Tb556 O559 2.453 . S
Tb556 O560 2.596 . S
Tb556 O561 2.374 . S
Tb556 O569 2.343 . S
Tb556 O571 2.353 . S
Tb556 O573 2.427 . S
Tb556 O574 2.513 . S
C557 O561 1.251 . S
C557 O563 1.263 . S
Tb558 O560 2.343 . S
Tb558 O563 2.353 . S
Tb558 O566 2.427 . S
Tb558 O567 2.513 . S
Tb558 O568 2.453 . S
Tb558 O569 2.596 . S
Tb558 O570 2.374 . S
O559 Tb556 2.453 . S
O559 C575 1.245 . S
O560 Tb556 2.596 . S
O560 Tb558 2.343 . S
O560 C575 1.259 . S
O561 Tb556 2.374 . S
O561 C557 1.251 . S
C562 O566 1.275 . S
C562 O567 1.246 . S
O563 C557 1.263 . S
O563 Tb558 2.353 . S
C564 O568 1.245 . S
C564 O569 1.259 . S
C565 O570 1.250 . S
C565 O571 1.263 . S
O566 Tb558 2.427 . S
O566 C562 1.275 . S
O567 Tb558 2.513 . S
O567 C562 1.246 . S
O568 Tb558 2.453 . S
O568 C564 1.245 . S
O569 Tb556 2.343 . S
O569 Tb558 2.596 . S
O569 C564 1.259 . S
O570 Tb558 2.374 . S
O570 C565 1.250 . S
O571 Tb556 2.353 . S
O571 C565 1.263 . S
C572 O573 1.275 . S
C572 O574 1.246 . S
O573 Tb556 2.427 . S
O573 C572 1.275 . S
O574 Tb556 2.513 . S
O574 C572 1.246 . S
C575 O559 1.245 . S
C575 O560 1.259 . S
Tb576 O579 2.453 . S
Tb576 O580 2.596 . S
Tb576 O581 2.374 . S
Tb576 O589 2.343 . S
Tb576 O591 2.353 . S
Tb576 O593 2.427 . S
Tb576 O594 2.513 . S
C577 O581 1.251 . S
C577 O583 1.263 . S
Tb578 O580 2.343 . S
Tb578 O583 2.353 . S
Tb578 O586 2.427 . S
Tb578 O587 2.513 . S
Tb578 O588 2.453 . S
Tb578 O589 2.596 . S
Tb578 O590 2.374 . S
O579 Tb576 2.453 . S
O579 C595 1.245 . S
O580 Tb576 2.596 . S
O580 Tb578 2.343 . S
O580 C595 1.259 . S
O581 Tb576 2.374 . S
O581 C577 1.251 . S
C582 O586 1.275 . S
C582 O587 1.246 . S
O583 C577 1.263 . S
O583 Tb578 2.353 . S
C584 O588 1.245 . S
C584 O589 1.259 . S
C585 O590 1.250 . S
C585 O591 1.263 . S
O586 Tb578 2.427 . S
O586 C582 1.275 . S
O587 Tb578 2.513 . S
O587 C582 1.246 . S
O588 Tb578 2.453 . S
O588 C584 1.245 . S
O589 Tb576 2.343 . S
O589 Tb578 2.596 . S
O589 C584 1.259 . S
O590 Tb578 2.374 . S
O590 C585 1.250 . S
O591 Tb576 2.353 . S
O591 C585 1.263 . S
C592 O593 1.275 . S
C592 O594 1.246 . S
O593 Tb576 2.427 . S
O593 C592 1.275 . S
O594 Tb576 2.513 . S
O594 C592 1.246 . S
C595 O579 1.245 . S
C595 O580 1.259 . S
Tb596 O599 2.453 . S
Tb596 O600 2.596 . S
Tb596 O601 2.374 . S
Tb596 O609 2.343 . S
Tb596 O611 2.353 . S
Tb596 O613 2.427 . S
Tb596 O614 2.513 . S
C597 O601 1.251 . S
C597 O603 1.263 . S
Tb598 O600 2.343 . S
Tb598 O603 2.353 . S
Tb598 O606 2.427 . S
Tb598 O607 2.513 . S
Tb598 O608 2.453 . S
Tb598 O609 2.596 . S
Tb598 O610 2.374 . S
O599 Tb596 2.453 . S
O599 C615 1.245 . S
O600 Tb596 2.596 . S
O600 Tb598 2.343 . S
O600 C615 1.259 . S
O601 Tb596 2.374 . S
O601 C597 1.251 . S
C602 O606 1.275 . S
C602 O607 1.246 . S
O603 C597 1.263 . S
O603 Tb598 2.353 . S
C604 O608 1.245 . S
C604 O609 1.259 . S
C605 O610 1.250 . S
C605 O611 1.263 . S
O606 Tb598 2.427 . S
O606 C602 1.275 . S
O607 Tb598 2.513 . S
O607 C602 1.246 . S
O608 Tb598 2.453 . S
O608 C604 1.245 . S
O609 Tb596 2.343 . S
O609 Tb598 2.596 . S
O609 C604 1.259 . S
O610 Tb598 2.374 . S
O610 C605 1.250 . S
O611 Tb596 2.353 . S
O611 C605 1.263 . S
C612 O613 1.275 . S
C612 O614 1.246 . S
O613 Tb596 2.427 . S
O613 C612 1.275 . S
O614 Tb596 2.513 . S
O614 C612 1.246 . S
C615 O599 1.245 . S
C615 O600 1.259 . S
Tb616 O619 2.453 . S
Tb616 O620 2.596 . S
Tb616 O621 2.374 . S
Tb616 O629 2.343 . S
Tb616 O631 2.353 . S
Tb616 O633 2.427 . S
Tb616 O634 2.513 . S
C617 O621 1.251 . S
C617 O623 1.263 . S
Tb618 O620 2.343 . S
Tb618 O623 2.353 . S
Tb618 O626 2.427 . S
Tb618 O627 2.513 . S
Tb618 O628 2.453 . S
Tb618 O629 2.596 . S
Tb618 O630 2.374 . S
O619 Tb616 2.453 . S
O619 C635 1.245 . S
O620 Tb616 2.596 . S
O620 Tb618 2.343 . S
O620 C635 1.259 . S
O621 Tb616 2.374 . S
O621 C617 1.251 . S
C622 O626 1.275 . S
C622 O627 1.246 . S
O623 C617 1.263 . S
O623 Tb618 2.353 . S
C624 O628 1.245 . S
C624 O629 1.259 . S
C625 O630 1.250 . S
C625 O631 1.263 . S
O626 Tb618 2.427 . S
O626 C622 1.275 . S
O627 Tb618 2.513 . S
O627 C622 1.246 . S
O628 Tb618 2.453 . S
O628 C624 1.245 . S
O629 Tb616 2.343 . S
O629 Tb618 2.596 . S
O629 C624 1.259 . S
O630 Tb618 2.374 . S
O630 C625 1.250 . S
O631 Tb616 2.353 . S
O631 C625 1.263 . S
C632 O633 1.275 . S
C632 O634 1.246 . S
O633 Tb616 2.427 . S
O633 C632 1.275 . S
O634 Tb616 2.513 . S
O634 C632 1.246 . S
C635 O619 1.245 . S
C635 O620 1.259 . S
Tb636 O639 2.453 . S
Tb636 O640 2.596 . S
Tb636 O641 2.374 . S
Tb636 O649 2.343 . S
Tb636 O651 2.353 1_554 S
Tb636 O653 2.427 1_554 S
Tb636 O654 2.513 . S
C637 O641 1.251 . S
C637 O643 1.263 1_455 S
Tb638 O640 2.343 1_655 S
Tb638 O643 2.353 . S
Tb638 O646 2.427 . S
Tb638 O647 2.513 . S
Tb638 O648 2.453 . S
Tb638 O649 2.596 1_655 S
Tb638 O650 2.374 1_554 S
O639 Tb636 2.453 . S
O639 C655 1.245 . S
O640 Tb636 2.596 . S
O640 Tb638 2.343 1_455 S
O640 C655 1.259 . S
O641 Tb636 2.374 . S
O641 C637 1.251 . S
C642 O646 1.275 . S
C642 O647 1.246 . S
O643 C637 1.263 1_655 S
O643 Tb638 2.353 . S
C644 O648 1.245 1_556 S
C644 O649 1.259 1_656 S
C645 O650 1.274 . S
C645 O651 1.239 1_655 S
O646 Tb638 2.427 . S
O646 C642 1.275 . S
O647 Tb638 2.513 . S
O647 C642 1.246 . S
O648 Tb638 2.453 . S
O648 C644 1.245 1_554 S
O649 Tb636 2.343 . S
O649 Tb638 2.596 1_455 S
O649 C644 1.259 1_454 S
O650 Tb638 2.374 1_556 S
O650 C645 1.274 . S
O651 Tb636 2.353 1_556 S
O651 C645 1.239 1_455 S
C652 O653 1.279 . S
C652 O654 1.240 1_556 S
O653 Tb636 2.427 1_556 S
O653 C652 1.279 . S
O654 Tb636 2.513 . S
O654 C652 1.240 1_554 S
C655 O639 1.245 . S
C655 O640 1.259 . S
C656 C657 1.387 . S
C656 H660 0.950 . S
C656 C665 1.390 . S
C657 C656 1.387 . S
C657 C659 1.387 1_455 S
H658 C665 0.950 . S
C659 C657 1.387 1_655 S
C659 C661 1.390 . S
C659 H663 0.950 . S
H660 C656 0.950 . S
C661 C659 1.390 . S
C661 C662 1.387 1_655 S
C661 H664 0.950 . S
C662 C661 1.387 1_455 S
C662 C665 1.387 . S
H663 C659 0.950 . S
H664 C661 0.950 . S
C665 C656 1.390 . S
C665 H658 0.950 . S
C665 C662 1.387 . S
C666 C667 1.387 . S
C666 H670 0.950 . S
C666 C675 1.390 . S
C667 C666 1.387 . S
C667 C669 1.387 . S
H668 C675 0.950 . S
C669 C667 1.387 . S
C669 C671 1.390 . S
C669 H673 0.950 . S
H670 C666 0.950 . S
C671 C669 1.390 . S
C671 C672 1.387 . S
C671 H674 0.950 . S
C672 C671 1.387 . S
C672 C675 1.387 . S
H673 C669 0.950 . S
H674 C671 0.950 . S
C675 C666 1.390 . S
C675 H668 0.950 . S
C675 C672 1.387 . S
C676 C677 1.387 . S
C676 H680 0.950 . S
C676 C685 1.390 . S
C677 C676 1.387 . S
C677 C679 1.387 . S
H678 C685 0.950 . S
C679 C677 1.387 . S
C679 C681 1.390 . S
C679 H683 0.950 . S
H680 C676 0.950 . S
C681 C679 1.390 . S
C681 C682 1.387 . S
C681 H684 0.950 . S
C682 C681 1.387 . S
C682 C685 1.387 . S
H683 C679 0.950 . S
H684 C681 0.950 . S
C685 C676 1.390 . S
C685 H678 0.950 . S
C685 C682 1.387 . S
C686 C687 1.387 . S
C686 H690 0.950 . S
C686 C695 1.390 . S
C687 C686 1.387 . S
C687 C689 1.387 . S
H688 C695 0.950 . S
C689 C687 1.387 . S
C689 C691 1.390 . S
C689 H693 0.950 . S
H690 C686 0.950 . S
C691 C689 1.390 . S
C691 C692 1.387 . S
C691 H694 0.950 . S
C692 C691 1.387 . S
C692 C695 1.387 . S
H693 C689 0.950 . S
H694 C691 0.950 . S
C695 C686 1.390 . S
C695 H688 0.950 . S
C695 C692 1.387 . S
C696 C697 1.387 . S
C696 H700 0.950 . S
C696 C705 1.390 . S
C697 C696 1.387 . S
C697 C699 1.387 1_455 S
H698 C705 0.950 . S
C699 C697 1.387 1_655 S
C699 C701 1.390 . S
C699 H703 0.950 . S
H700 C696 0.950 . S
C701 C699 1.390 . S
C701 C702 1.387 1_655 S
C701 H704 0.950 . S
C702 C701 1.387 1_455 S
C702 C705 1.387 . S
H703 C699 0.950 . S
H704 C701 0.950 . S
C705 C696 1.390 . S
C705 H698 0.950 . S
C705 C702 1.387 . S
C706 C707 1.387 . S
C706 H710 0.950 . S
C706 C715 1.390 . S
C707 C706 1.387 . S
C707 C709 1.387 . S
H708 C715 0.950 . S
C709 C707 1.387 . S
C709 C711 1.390 . S
C709 H713 0.950 . S
H710 C706 0.950 . S
C711 C709 1.390 . S
C711 C712 1.387 . S
C711 H714 0.950 . S
C712 C711 1.387 . S
C712 C715 1.387 . S
H713 C709 0.950 . S
H714 C711 0.950 . S
C715 C706 1.390 . S
C715 H708 0.950 . S
C715 C712 1.387 . S
C716 C717 1.387 . S
C716 H720 0.950 . S
C716 C725 1.390 . S
C717 C716 1.387 . S
C717 C719 1.387 . S
H718 C725 0.950 . S
C719 C717 1.387 . S
C719 C721 1.390 . S
C719 H723 0.950 . S
H720 C716 0.950 . S
C721 C719 1.390 . S
C721 C722 1.387 . S
C721 H724 0.950 . S
C722 C721 1.387 . S
C722 C725 1.387 . S
H723 C719 0.950 . S
H724 C721 0.950 . S
C725 C716 1.390 . S
C725 H718 0.950 . S
C725 C722 1.387 . S
C726 C727 1.387 . S
C726 H730 0.950 . S
C726 C735 1.390 . S
C727 C726 1.387 . S
C727 C729 1.387 . S
H728 C735 0.950 . S
C729 C727 1.387 . S
C729 C731 1.390 . S
C729 H733 0.950 . S
H730 C726 0.950 . S
C731 C729 1.390 . S
C731 C732 1.387 . S
C731 H734 0.950 . S
C732 C731 1.387 . S
C732 C735 1.387 . S
H733 C729 0.950 . S
H734 C731 0.950 . S
C735 C726 1.390 . S
C735 H728 0.950 . S
C735 C732 1.387 . S
C736 C737 1.387 . S
C736 H740 0.950 . S
C736 C745 1.390 . S
C737 C736 1.387 . S
C737 C739 1.387 . S
H738 C745 0.950 . S
C739 C737 1.387 . S
C739 C741 1.390 . S
C739 H743 0.950 . S
H740 C736 0.950 . S
C741 C739 1.390 . S
C741 C742 1.387 . S
C741 H744 0.950 . S
C742 C741 1.387 . S
C742 C745 1.387 . S
H743 C739 0.950 . S
H744 C741 0.950 . S
C745 C736 1.390 . S
C745 H738 0.950 . S
C745 C742 1.387 . S
C746 C747 1.387 . S
C746 H750 0.950 . S
C746 C755 1.390 . S
C747 C746 1.387 . S
C747 C749 1.387 . S
H748 C755 0.950 . S
C749 C747 1.387 . S
C749 C751 1.390 . S
C749 H753 0.950 . S
H750 C746 0.950 . S
C751 C749 1.390 . S
C751 C752 1.387 . S
C751 H754 0.950 . S
C752 C751 1.387 . S
C752 C755 1.387 . S
H753 C749 0.950 . S
H754 C751 0.950 . S
C755 C746 1.390 . S
C755 H748 0.950 . S
C755 C752 1.387 . S
C756 C757 1.387 . S
C756 H760 0.950 . S
C756 C765 1.390 . S
C757 C756 1.387 . S
C757 C759 1.387 1_545 S
H758 C765 0.950 . S
C759 C757 1.387 1_565 S
C759 C761 1.390 . S
C759 H763 0.950 . S
H760 C756 0.950 . S
C761 C759 1.390 . S
C761 C762 1.387 1_565 S
C761 H764 0.950 . S
C762 C761 1.387 1_545 S
C762 C765 1.387 . S
H763 C759 0.950 . S
H764 C761 0.950 . S
C765 C756 1.390 . S
C765 H758 0.950 . S
C765 C762 1.387 . S
C766 C767 1.387 . S
C766 H770 0.950 . S
C766 C775 1.390 . S
C767 C766 1.387 . S
C767 C769 1.387 . S
H768 C775 0.950 . S
C769 C767 1.387 . S
C769 C771 1.390 . S
C769 H773 0.950 . S
H770 C766 0.950 . S
C771 C769 1.390 . S
C771 C772 1.387 . S
C771 H774 0.950 . S
C772 C771 1.387 . S
C772 C775 1.387 . S
H773 C769 0.950 . S
H774 C771 0.950 . S
C775 C766 1.390 . S
C775 H768 0.950 . S
C775 C772 1.387 . S
C776 C777 1.387 . S
C776 H780 0.950 . S
C776 C785 1.390 . S
C777 C776 1.387 . S
C777 C779 1.387 . S
H778 C785 0.950 . S
C779 C777 1.387 . S
C779 C781 1.390 . S
C779 H783 0.950 . S
H780 C776 0.950 . S
C781 C779 1.390 . S
C781 C782 1.387 . S
C781 H784 0.950 1_545 S
C782 C781 1.387 . S
C782 C785 1.387 . S
H783 C779 0.950 . S
H784 C781 0.950 1_565 S
C785 C776 1.390 . S
C785 H778 0.950 . S
C785 C782 1.387 . S
C786 C787 1.387 . S
C786 H790 0.950 . S
C786 C795 1.390 . S
C787 C786 1.387 . S
C787 C789 1.387 . S
H788 C795 0.950 . S
C789 C787 1.387 . S
C789 C791 1.390 . S
C789 H793 0.950 . S
H790 C786 0.950 . S
C791 C789 1.390 . S
C791 C792 1.387 . S
C791 H794 0.950 . S
C792 C791 1.387 . S
C792 C795 1.387 . S
H793 C789 0.950 . S
H794 C791 0.950 . S
C795 C786 1.390 . S
C795 H788 0.950 . S
C795 C792 1.387 . S
C796 C797 1.387 . S
C796 H800 0.950 . S
C796 C805 1.390 . S
C797 C796 1.387 . S
C797 C799 1.387 1_545 S
H798 C805 0.950 . S
C799 C797 1.387 1_565 S
C799 C801 1.390 . S
C799 H803 0.950 . S
H800 C796 0.950 . S
C801 C799 1.390 . S
C801 C802 1.387 1_565 S
C801 H804 0.950 . S
C802 C801 1.387 1_545 S
C802 C805 1.387 . S
H803 C799 0.950 . S
H804 C801 0.950 . S
C805 C796 1.390 . S
C805 H798 0.950 . S
C805 C802 1.387 . S
C806 C807 1.387 . S
C806 H810 0.950 . S
C806 C815 1.390 . S
C807 C806 1.387 . S
C807 C809 1.387 . S
H808 C815 0.950 . S
C809 C807 1.387 . S
C809 C811 1.390 . S
C809 H813 0.950 . S
H810 C806 0.950 . S
C811 C809 1.390 . S
C811 C812 1.387 . S
C811 H814 0.950 . S
C812 C811 1.387 . S
C812 C815 1.387 . S
H813 C809 0.950 . S
H814 C811 0.950 . S
C815 C806 1.390 . S
C815 H808 0.950 . S
C815 C812 1.387 . S
C816 C817 1.387 . S
C816 H820 0.950 . S
C816 C825 1.390 . S
C817 C816 1.387 . S
C817 C819 1.387 . S
H818 C825 0.950 . S
C819 C817 1.387 . S
C819 C821 1.390 . S
C819 H823 0.950 1_554 S
H820 C816 0.950 . S
C821 C819 1.390 . S
C821 C822 1.387 . S
C821 H824 0.950 1_554 S
C822 C821 1.387 . S
C822 C825 1.387 . S
H823 C819 0.950 1_556 S
H824 C821 0.950 1_556 S
C825 C816 1.390 . S
C825 H818 0.950 . S
C825 C822 1.387 . S
C826 C827 1.387 1_554 S
C826 H830 0.950 . S
C826 C835 1.390 . S
C827 C826 1.387 1_556 S
C827 C829 1.387 . S
H828 C835 0.950 . S
C829 C827 1.387 . S
C829 C831 1.390 . S
C829 H833 0.950 . S
H830 C826 0.950 . S
C831 C829 1.390 . S
C831 C832 1.371 1_556 S
C831 H834 0.950 . S
C832 C831 1.371 1_554 S
C832 C835 1.399 . S
H833 C829 0.950 . S
H834 C831 0.950 . S
C835 C826 1.390 . S
C835 H828 0.950 . S
C835 C832 1.399 . S
C836 C837 1.387 . S
C836 H840 0.950 . S
C836 C845 1.390 . S
C837 C836 1.387 . S
C837 C839 1.387 . S
H838 C845 0.950 . S
C839 C837 1.387 . S
C839 C841 1.390 . S
C839 H843 0.950 . S
H840 C836 0.950 . S
C841 C839 1.390 . S
C841 C842 1.387 . S
C841 H844 0.950 . S
C842 C841 1.387 . S
C842 C845 1.387 . S
H843 C839 0.950 . S
H844 C841 0.950 . S
C845 C836 1.390 . S
C845 H838 0.950 . S
C845 C842 1.387 . S
C846 C847 1.387 . S
C846 H850 0.950 . S
C846 C855 1.390 . S
C847 C846 1.387 . S
C847 C849 1.387 . S
H848 C855 0.950 . S
C849 C847 1.387 . S
C849 C851 1.390 . S
C849 H853 0.950 . S
H850 C846 0.950 . S
C851 C849 1.390 . S
C851 C852 1.387 . S
C851 H854 0.950 . S
C852 C851 1.387 . S
C852 C855 1.387 . S
H853 C849 0.950 . S
H854 C851 0.950 . S
C855 C846 1.390 . S
C855 H848 0.950 . S
C855 C852 1.387 . S
C856 C857 1.387 . S
C856 H860 0.950 . S
C856 C865 1.390 . S
C857 C856 1.387 . S
C857 C859 1.387 . S
H858 C865 0.950 . S
C859 C857 1.387 . S
C859 C861 1.390 . S
C859 H863 0.950 . S
H860 C856 0.950 . S
C861 C859 1.390 . S
C861 C862 1.387 . S
C861 H864 0.950 . S
C862 C861 1.387 . S
C862 C865 1.387 . S
H863 C859 0.950 . S
H864 C861 0.950 . S
C865 C856 1.390 . S
C865 H858 0.950 . S
C865 C862 1.387 . S
C866 C867 1.387 . S
C866 H870 0.950 . S
C866 C875 1.390 . S
C867 C866 1.387 . S
C867 C869 1.387 . S
H868 C875 0.950 . S
C869 C867 1.387 . S
C869 C871 1.390 . S
C869 H873 0.950 . S
H870 C866 0.950 . S
C871 C869 1.390 . S
C871 C872 1.387 . S
C871 H874 0.950 . S
C872 C871 1.387 . S
C872 C875 1.387 . S
H873 C869 0.950 . S
H874 C871 0.950 . S
C875 C866 1.390 . S
C875 H868 0.950 . S
C875 C872 1.387 . S
C876 C877 1.387 . S
C876 H880 0.950 . S
C876 C885 1.390 . S
C877 C876 1.387 . S
C877 C879 1.387 . S
H878 C885 0.950 . S
C879 C877 1.387 . S
C879 C881 1.390 . S
C879 H883 0.950 . S
H880 C876 0.950 . S
C881 C879 1.390 . S
C881 C882 1.387 . S
C881 H884 0.950 . S
C882 C881 1.387 . S
C882 C885 1.387 . S
H883 C879 0.950 . S
H884 C881 0.950 . S
C885 C876 1.390 . S
C885 H878 0.950 . S
C885 C882 1.387 . S
C886 C887 1.387 . S
C886 H890 0.950 . S
C886 C895 1.390 . S
C887 C886 1.387 . S
C887 C889 1.387 . S
H888 C895 0.950 . S
C889 C887 1.387 . S
C889 C891 1.390 . S
C889 H893 0.950 . S
H890 C886 0.950 . S
C891 C889 1.390 . S
C891 C892 1.387 . S
C891 H894 0.950 . S
C892 C891 1.387 . S
C892 C895 1.387 . S
H893 C889 0.950 . S
H894 C891 0.950 . S
C895 C886 1.390 . S
C895 H888 0.950 . S
C895 C892 1.387 . S
C896 C897 1.387 . S
C896 H900 0.950 . S
C896 C905 1.390 . S
C897 C896 1.387 . S
C897 C899 1.387 1_455 S
H898 C905 0.950 . S
C899 C897 1.387 1_655 S
C899 C901 1.390 . S
C899 H903 0.950 . S
H900 C896 0.950 . S
C901 C899 1.390 . S
C901 C902 1.387 1_655 S
C901 H904 0.950 . S
C902 C901 1.387 1_455 S
C902 C905 1.387 . S
H903 C899 0.950 . S
H904 C901 0.950 . S
C905 C896 1.390 . S
C905 H898 0.950 . S
C905 C902 1.387 . S
C906 C907 1.387 . S
C906 H910 0.950 . S
C906 C915 1.390 . S
C907 C906 1.387 . S
C907 C909 1.387 . S
H908 C915 0.950 . S
C909 C907 1.387 . S
C909 C911 1.390 . S
C909 H913 0.950 . S
H910 C906 0.950 . S
C911 C909 1.390 . S
C911 C912 1.387 . S
C911 H914 0.950 . S
C912 C911 1.387 . S
C912 C915 1.387 . S
H913 C909 0.950 . S
H914 C911 0.950 . S
C915 C906 1.390 . S
C915 H908 0.950 . S
C915 C912 1.387 . S
C916 C917 1.387 . S
C916 H920 0.950 . S
C916 C925 1.390 . S
C917 C916 1.387 . S
C917 C919 1.387 . S
H918 C925 0.950 . S
C919 C917 1.387 . S
C919 C921 1.390 . S
C919 H923 0.950 . S
H920 C916 0.950 . S
C921 C919 1.390 . S
C921 C922 1.387 . S
C921 H924 0.950 . S
C922 C921 1.387 . S
C922 C925 1.387 . S
H923 C919 0.950 . S
H924 C921 0.950 . S
C925 C916 1.390 . S
C925 H918 0.950 . S
C925 C922 1.387 . S
C926 C927 1.387 . S
C926 H930 0.950 . S
C926 C935 1.390 . S
C927 C926 1.387 . S
C927 C929 1.387 . S
H928 C935 0.950 . S
C929 C927 1.387 . S
C929 C931 1.390 . S
C929 H933 0.950 . S
H930 C926 0.950 . S
C931 C929 1.390 . S
C931 C932 1.387 . S
C931 H934 0.950 . S
C932 C931 1.387 . S
C932 C935 1.387 . S
H933 C929 0.950 . S
H934 C931 0.950 . S
C935 C926 1.390 . S
C935 H928 0.950 . S
C935 C932 1.387 . S
C936 C937 1.387 . S
C936 H940 0.950 . S
C936 C945 1.390 . S
C937 C936 1.387 . S
C937 C939 1.387 1_455 S
H938 C945 0.950 . S
C939 C937 1.387 1_655 S
C939 C941 1.390 . S
C939 H943 0.950 . S
H940 C936 0.950 . S
C941 C939 1.390 . S
C941 C942 1.387 1_655 S
C941 H944 0.950 . S
C942 C941 1.387 1_455 S
C942 C945 1.387 . S
H943 C939 0.950 . S
H944 C941 0.950 . S
C945 C936 1.390 . S
C945 H938 0.950 . S
C945 C942 1.387 . S
C946 C947 1.387 . S
C946 H950 0.950 . S
C946 C955 1.390 . S
C947 C946 1.387 . S
C947 C949 1.387 . S
H948 C955 0.950 . S
C949 C947 1.387 . S
C949 C951 1.390 . S
C949 H953 0.950 . S
H950 C946 0.950 . S
C951 C949 1.390 . S
C951 C952 1.387 . S
C951 H954 0.950 . S
C952 C951 1.387 . S
C952 C955 1.387 . S
H953 C949 0.950 . S
H954 C951 0.950 . S
C955 C946 1.390 . S
C955 H948 0.950 . S
C955 C952 1.387 . S
C956 C957 1.387 . S
C956 H960 0.950 . S
C956 C965 1.390 . S
C957 C956 1.387 . S
C957 C959 1.387 . S
H958 C965 0.950 1_554 S
C959 C957 1.387 . S
C959 C961 1.390 . S
C959 H963 0.950 . S
H960 C956 0.950 . S
C961 C959 1.390 . S
C961 C962 1.387 . S
C961 H964 0.950 . S
C962 C961 1.387 . S
C962 C965 1.387 . S
H963 C959 0.950 . S
H964 C961 0.950 . S
C965 C956 1.390 . S
C965 H958 0.950 1_556 S
C965 C962 1.387 . S
C966 C967 1.387 . S
C966 H970 0.950 . S
C966 C975 1.390 . S
C967 C966 1.387 . S
C967 C969 1.387 . S
H968 C975 0.950 . S
C969 C967 1.387 . S
C969 C971 1.390 . S
C969 H973 0.950 . S
H970 C966 0.950 . S
C971 C969 1.390 . S
C971 C972 1.387 . S
C971 H974 0.950 . S
C972 C971 1.387 . S
C972 C975 1.387 . S
H973 C969 0.950 . S
H974 C971 0.950 . S
C975 C966 1.390 . S
C975 H968 0.950 . S
C975 C972 1.387 . S
C976 C977 1.387 . S
C976 H980 0.950 . S
C976 C985 1.390 . S
C977 C976 1.387 . S
C977 C979 1.387 1_545 S
H978 C985 0.950 . S
C979 C977 1.387 1_565 S
C979 C981 1.390 . S
C979 H983 0.950 . S
H980 C976 0.950 . S
C981 C979 1.390 . S
C981 C982 1.387 1_565 S
C981 H984 0.950 . S
C982 C981 1.387 1_545 S
C982 C985 1.387 . S
H983 C979 0.950 . S
H984 C981 0.950 . S
C985 C976 1.390 . S
C985 H978 0.950 . S
C985 C982 1.387 . S
C986 C987 1.387 . S
C986 H990 0.950 . S
C986 C995 1.390 . S
C987 C986 1.387 . S
C987 C989 1.387 . S
H988 C995 0.950 . S
C989 C987 1.387 . S
C989 C991 1.390 . S
C989 H993 0.950 . S
H990 C986 0.950 . S
C991 C989 1.390 . S
C991 C992 1.387 . S
C991 H994 0.950 . S
C992 C991 1.387 . S
C992 C995 1.387 . S
H993 C989 0.950 . S
H994 C991 0.950 . S
C995 C986 1.390 . S
C995 H988 0.950 . S
C995 C992 1.387 . S
C996 C997 1.387 . S
C996 H1000 0.949 1_545 S
C996 C1005 1.390 . S
C997 C996 1.387 . S
C997 C999 1.387 . S
H998 C1005 0.950 1_565 S
C999 C997 1.387 . S
C999 C1001 1.390 . S
C999 H1003 0.950 . S
H1000 C996 0.949 1_565 S
C1001 C999 1.390 . S
C1001 C1002 1.387 . S
C1001 H1004 0.950 . S
C1002 C1001 1.387 . S
C1002 C1005 1.387 . S
H1003 C999 0.950 . S
H1004 C1001 0.950 . S
C1005 C996 1.390 . S
C1005 H998 0.950 1_545 S
C1005 C1002 1.387 . S
C1006 C1007 1.387 . S
C1006 H1010 0.950 . S
C1006 C1015 1.390 . S
C1007 C1006 1.387 . S
C1007 C1009 1.387 . S
H1008 C1015 0.950 . S
C1009 C1007 1.387 . S
C1009 C1011 1.390 . S
C1009 H1013 0.950 . S
H1010 C1006 0.950 . S
C1011 C1009 1.390 . S
C1011 C1012 1.387 . S
C1011 H1014 0.950 . S
C1012 C1011 1.387 . S
C1012 C1015 1.387 . S
H1013 C1009 0.950 . S
H1014 C1011 0.950 . S
C1015 C1006 1.390 . S
C1015 H1008 0.950 . S
C1015 C1012 1.387 . S
C1016 C1017 1.387 . S
C1016 H1020 0.950 . S
C1016 C1025 1.390 . S
C1017 C1016 1.387 . S
C1017 C1019 1.387 1_565 S
H1018 C1025 0.950 . S
C1019 C1017 1.387 1_545 S
C1019 C1021 1.390 . S
C1019 H1023 0.950 . S
H1020 C1016 0.950 . S
C1021 C1019 1.390 . S
C1021 C1022 1.387 . S
C1021 H1024 0.950 . S
C1022 C1021 1.387 . S
C1022 C1025 1.387 1_545 S
H1023 C1019 0.950 . S
H1024 C1021 0.950 . S
C1025 C1016 1.390 . S
C1025 H1018 0.950 . S
C1025 C1022 1.387 1_565 S
C1026 C1027 1.387 . S
C1026 H1030 0.950 . S
C1026 C1035 1.390 . S
C1027 C1026 1.387 . S
C1027 C1029 1.387 . S
H1028 C1035 0.950 . S
C1029 C1027 1.387 . S
C1029 C1031 1.390 . S
C1029 H1033 0.950 . S
H1030 C1026 0.950 . S
C1031 C1029 1.390 . S
C1031 C1032 1.387 . S
C1031 H1034 0.950 . S
C1032 C1031 1.387 . S
C1032 C1035 1.387 . S
H1033 C1029 0.950 . S
H1034 C1031 0.950 . S
C1035 C1026 1.390 . S
C1035 H1028 0.950 . S
C1035 C1032 1.387 . S
C1036 C1037 1.387 . S
C1036 H1040 0.950 1_545 S
C1036 C1045 1.396 . S
C1037 C1036 1.387 . S
C1037 C1039 1.387 . S
H1038 C1045 0.929 1_565 S
C1039 C1037 1.387 . S
C1039 C1041 1.390 . S
C1039 H1043 0.950 . S
H1040 C1036 0.950 1_565 S
C1041 C1039 1.390 . S
C1041 C1042 1.387 . S
C1041 H1044 0.950 . S
C1042 C1041 1.387 . S
C1042 C1045 1.403 . S
H1043 C1039 0.950 . S
H1044 C1041 0.950 . S
C1045 C1036 1.396 . S
C1045 H1038 0.929 1_545 S
C1045 C1042 1.403 . S
C1046 C1047 1.387 . S
C1046 H1050 0.950 . S
C1046 C1055 1.390 . S
C1047 C1046 1.387 . S
C1047 C1049 1.387 . S
H1048 C1055 0.950 . S
C1049 C1047 1.387 . S
C1049 C1051 1.390 . S
C1049 H1053 0.950 . S
H1050 C1046 0.950 . S
C1051 C1049 1.390 . S
C1051 C1052 1.387 . S
C1051 H1054 0.950 . S
C1052 C1051 1.387 . S
C1052 C1055 1.387 . S
H1053 C1049 0.950 . S
H1054 C1051 0.950 . S
C1055 C1046 1.390 . S
C1055 H1048 0.950 . S
C1055 C1052 1.387 . S
C1056 C1057 1.387 1_556 S
C1056 H1060 0.950 . S
C1056 C1065 1.390 . S
C1057 C1056 1.387 1_554 S
C1057 C1059 1.387 . S
H1058 C1065 0.950 . S
C1059 C1057 1.387 . S
C1059 C1061 1.390 . S
C1059 H1063 0.950 . S
H1060 C1056 0.950 . S
C1061 C1059 1.390 . S
C1061 C1062 1.387 . S
C1061 H1064 0.950 . S
C1062 C1061 1.387 . S
C1062 C1065 1.387 1_554 S
H1063 C1059 0.950 . S
H1064 C1061 0.950 . S
C1065 C1056 1.390 . S
C1065 H1058 0.950 . S
C1065 C1062 1.387 1_556 S
C1066 C1067 1.387 . S
C1066 H1070 0.950 1_554 S
C1066 C1075 1.390 . S
C1067 C1066 1.387 . S
C1067 C1069 1.387 . S
H1068 C1075 0.950 1_556 S
C1069 C1067 1.387 . S
C1069 C1071 1.390 . S
C1069 H1073 0.950 . S
H1070 C1066 0.950 1_556 S
C1071 C1069 1.390 . S
C1071 C1072 1.387 . S
C1071 H1074 0.950 . S
C1072 C1071 1.387 . S
C1072 C1075 1.387 . S
H1073 C1069 0.950 . S
H1074 C1071 0.950 . S
C1075 C1066 1.390 . S
C1075 H1068 0.950 1_554 S
C1075 C1072 1.387 . S
C1076 C1077 1.387 . S
C1076 H1080 0.950 . S
C1076 C1085 1.390 . S
C1077 C1076 1.387 . S
C1077 C1079 1.387 . S
H1078 C1085 0.950 . S
C1079 C1077 1.387 . S
C1079 C1081 1.390 . S
C1079 H1083 0.950 . S
H1080 C1076 0.950 . S
C1081 C1079 1.390 . S
C1081 C1082 1.387 . S
C1081 H1084 0.950 . S
C1082 C1081 1.387 . S
C1082 C1085 1.387 . S
H1083 C1079 0.950 . S
H1084 C1081 0.950 . S
C1085 C1076 1.390 . S
C1085 H1078 0.950 . S
C1085 C1082 1.387 . S
C1086 C1087 1.387 . S
C1086 H1090 0.950 . S
C1086 C1095 1.390 . S
C1087 C1086 1.387 . S
C1087 C1089 1.387 . S
H1088 C1095 0.950 . S
C1089 C1087 1.387 . S
C1089 C1091 1.390 . S
C1089 H1093 0.950 . S
H1090 C1086 0.950 . S
C1091 C1089 1.390 . S
C1091 C1092 1.387 . S
C1091 H1094 0.950 . S
C1092 C1091 1.387 . S
C1092 C1095 1.387 . S
H1093 C1089 0.950 . S
H1094 C1091 0.950 . S
C1095 C1086 1.390 . S
C1095 H1088 0.950 . S
C1095 C1092 1.387 . S
C1096 C1097 1.387 . S
C1096 H1100 0.950 . S
C1096 C1105 1.390 . S
C1097 C1096 1.387 . S
C1097 C1099 1.387 . S
H1098 C1105 0.950 . S
C1099 C1097 1.387 . S
C1099 C1101 1.390 . S
C1099 H1103 0.950 . S
H1100 C1096 0.950 . S
C1101 C1099 1.390 . S
C1101 C1102 1.387 . S
C1101 H1104 0.950 . S
C1102 C1101 1.387 . S
C1102 C1105 1.387 . S
H1103 C1099 0.950 . S
H1104 C1101 0.950 . S
C1105 C1096 1.390 . S
C1105 H1098 0.950 . S
C1105 C1102 1.387 . S
C1106 C1107 1.387 . S
C1106 H1110 0.950 . S
C1106 C1115 1.390 . S
C1107 C1106 1.387 . S
C1107 C1109 1.387 . S
H1108 C1115 0.950 . S
C1109 C1107 1.387 . S
C1109 C1111 1.390 . S
C1109 H1113 0.950 . S
H1110 C1106 0.950 . S
C1111 C1109 1.390 . S
C1111 C1112 1.387 . S
C1111 H1114 0.950 . S
C1112 C1111 1.387 . S
C1112 C1115 1.387 . S
H1113 C1109 0.950 . S
H1114 C1111 0.950 . S
C1115 C1106 1.390 . S
C1115 H1108 0.950 . S
C1115 C1112 1.387 . S
C1116 C1117 1.387 . S
C1116 H1120 0.950 . S
C1116 C1125 1.390 . S
C1117 C1116 1.387 . S
C1117 C1119 1.387 . S
H1118 C1125 0.950 . S
C1119 C1117 1.387 . S
C1119 C1121 1.390 . S
C1119 H1123 0.950 . S
H1120 C1116 0.950 . S
C1121 C1119 1.390 . S
C1121 C1122 1.387 . S
C1121 H1124 0.950 . S
C1122 C1121 1.387 . S
C1122 C1125 1.387 . S
H1123 C1119 0.950 . S
H1124 C1121 0.950 . S
C1125 C1116 1.390 . S
C1125 H1118 0.950 . S
C1125 C1122 1.387 . S
C1126 C1127 1.387 . S
C1126 H1130 0.950 . S
C1126 C1135 1.390 . S
C1127 C1126 1.387 . S
C1127 C1129 1.387 . S
H1128 C1135 0.950 . S
C1129 C1127 1.387 . S
C1129 C1131 1.390 . S
C1129 H1133 0.950 . S
H1130 C1126 0.950 . S
C1131 C1129 1.390 . S
C1131 C1132 1.387 . S
C1131 H1134 0.950 . S
C1132 C1131 1.387 . S
C1132 C1135 1.387 . S
H1133 C1129 0.950 . S
H1134 C1131 0.950 . S
C1135 C1126 1.390 . S
C1135 H1128 0.950 . S
C1135 C1132 1.387 . S
C1136 C1137 1.387 . S
C1136 H1140 0.950 . S
C1136 C1145 1.390 . S
C1137 C1136 1.387 . S
C1137 C1139 1.387 . S
H1138 C1145 0.950 . S
C1139 C1137 1.387 . S
C1139 C1141 1.390 . S
C1139 H1143 0.950 . S
H1140 C1136 0.950 . S
C1141 C1139 1.390 . S
C1141 C1142 1.387 . S
C1141 H1144 0.950 . S
C1142 C1141 1.387 . S
C1142 C1145 1.387 . S
H1143 C1139 0.950 . S
H1144 C1141 0.950 . S
C1145 C1136 1.390 . S
C1145 H1138 0.950 . S
C1145 C1142 1.387 . S
C1146 C1147 1.387 . S
C1146 H1150 0.950 . S
C1146 C1155 1.390 . S
C1147 C1146 1.387 . S
C1147 C1149 1.387 . S
H1148 C1155 0.950 . S
C1149 C1147 1.387 . S
C1149 C1151 1.390 . S
C1149 H1153 0.950 . S
H1150 C1146 0.950 . S
C1151 C1149 1.390 . S
C1151 C1152 1.387 . S
C1151 H1154 0.950 . S
C1152 C1151 1.387 . S
C1152 C1155 1.387 . S
H1153 C1149 0.950 . S
H1154 C1151 0.950 . S
C1155 C1146 1.390 . S
C1155 H1148 0.950 . S
C1155 C1152 1.387 . S
C1156 C1157 1.387 . S
C1156 H1160 0.950 . S
C1156 C1165 1.390 . S
C1157 C1156 1.387 . S
C1157 C1159 1.387 . S
H1158 C1165 0.950 . S
C1159 C1157 1.387 . S
C1159 C1161 1.390 . S
C1159 H1163 0.950 . S
H1160 C1156 0.950 . S
C1161 C1159 1.390 . S
C1161 C1162 1.387 . S
C1161 H1164 0.950 1_556 S
C1162 C1161 1.387 . S
C1162 C1165 1.387 . S
H1163 C1159 0.950 . S
H1164 C1161 0.950 1_554 S
C1165 C1156 1.390 . S
C1165 H1158 0.950 . S
C1165 C1162 1.387 . S
C1166 C1167 1.387 . S
C1166 H1170 0.950 . S
C1166 C1175 1.390 . S
C1167 C1166 1.387 . S
C1167 C1169 1.387 . S
H1168 C1175 0.950 . S
C1169 C1167 1.387 . S
C1169 C1171 1.390 . S
C1169 H1173 0.950 . S
H1170 C1166 0.950 . S
C1171 C1169 1.390 . S
C1171 C1172 1.387 . S
C1171 H1174 0.950 . S
C1172 C1171 1.387 . S
C1172 C1175 1.387 . S
H1173 C1169 0.950 . S
H1174 C1171 0.950 . S
C1175 C1166 1.390 . S
C1175 H1168 0.950 . S
C1175 C1172 1.387 . S
C1176 C1177 1.387 . S
C1176 H1180 0.950 . S
C1176 C1185 1.390 . S
C1177 C1176 1.387 . S
C1177 C1179 1.387 . S
H1178 C1185 0.950 . S
C1179 C1177 1.387 . S
C1179 C1181 1.390 . S
C1179 H1183 0.950 . S
H1180 C1176 0.950 . S
C1181 C1179 1.390 . S
C1181 C1182 1.387 . S
C1181 H1184 0.950 . S
C1182 C1181 1.387 . S
C1182 C1185 1.387 . S
H1183 C1179 0.950 . S
H1184 C1181 0.950 . S
C1185 C1176 1.390 . S
C1185 H1178 0.950 . S
C1185 C1182 1.387 . S
C1186 C1187 1.387 . S
C1186 H1190 0.950 . S
C1186 C1195 1.390 . S
C1187 C1186 1.387 . S
C1187 C1189 1.387 . S
H1188 C1195 0.950 . S
C1189 C1187 1.387 . S
C1189 C1191 1.390 . S
C1189 H1193 0.950 . S
H1190 C1186 0.950 . S
C1191 C1189 1.390 . S
C1191 C1192 1.387 . S
C1191 H1194 0.950 . S
C1192 C1191 1.387 . S
C1192 C1195 1.387 . S
H1193 C1189 0.950 . S
H1194 C1191 0.950 . S
C1195 C1186 1.390 . S
C1195 H1188 0.950 . S
C1195 C1192 1.387 . S
C1196 C1197 1.387 1_455 S
C1196 H1200 0.950 . S
C1196 C1205 1.390 . S
C1197 C1196 1.387 1_655 S
C1197 C1199 1.387 . S
H1198 C1205 0.950 . S
C1199 C1197 1.387 . S
C1199 C1201 1.390 . S
C1199 H1203 0.950 . S
H1200 C1196 0.950 . S
C1201 C1199 1.390 . S
C1201 C1202 1.387 . S
C1201 H1204 0.950 . S
C1202 C1201 1.387 . S
C1202 C1205 1.387 1_655 S
H1203 C1199 0.950 . S
H1204 C1201 0.950 . S
C1205 C1196 1.390 . S
C1205 H1198 0.950 . S
C1205 C1202 1.387 1_455 S
C1206 C1207 1.387 . S
C1206 H1210 0.950 . S
C1206 C1215 1.390 . S
C1207 C1206 1.387 . S
C1207 C1209 1.387 . S
H1208 C1215 0.950 . S
C1209 C1207 1.387 . S
C1209 C1211 1.390 . S
C1209 H1213 0.950 . S
H1210 C1206 0.950 . S
C1211 C1209 1.390 . S
C1211 C1212 1.387 . S
C1211 H1214 0.950 . S
C1212 C1211 1.387 . S
C1212 C1215 1.387 . S
H1213 C1209 0.950 . S
H1214 C1211 0.950 . S
C1215 C1206 1.390 . S
C1215 H1208 0.950 . S
C1215 C1212 1.387 . S
C1216 C1217 1.387 . S
C1216 H1220 0.950 . S
C1216 C1225 1.390 . S
C1217 C1216 1.387 . S
C1217 C1219 1.387 . S
H1218 C1225 0.950 . S
C1219 C1217 1.387 . S
C1219 C1221 1.390 . S
C1219 H1223 0.950 . S
H1220 C1216 0.950 . S
C1221 C1219 1.390 . S
C1221 C1222 1.387 . S
C1221 H1224 0.950 . S
C1222 C1221 1.387 . S
C1222 C1225 1.387 . S
H1223 C1219 0.950 . S
H1224 C1221 0.950 . S
C1225 C1216 1.390 . S
C1225 H1218 0.950 . S
C1225 C1222 1.387 . S
C1226 C1227 1.387 . S
C1226 H1230 0.950 . S
C1226 C1235 1.390 . S
C1227 C1226 1.387 . S
C1227 C1229 1.387 . S
H1228 C1235 0.950 . S
C1229 C1227 1.387 . S
C1229 C1231 1.390 . S
C1229 H1233 0.950 . S
H1230 C1226 0.950 . S
C1231 C1229 1.390 . S
C1231 C1232 1.387 . S
C1231 H1234 0.950 . S
C1232 C1231 1.387 . S
C1232 C1235 1.387 . S
H1233 C1229 0.950 . S
H1234 C1231 0.950 . S
C1235 C1226 1.390 . S
C1235 H1228 0.950 . S
C1235 C1232 1.387 . S
C1236 C1237 1.387 . S
C1236 H1240 0.950 . S
C1236 C1245 1.390 . S
C1237 C1236 1.387 . S
C1237 C1239 1.387 . S
H1238 C1245 0.950 . S
C1239 C1237 1.387 . S
C1239 C1241 1.390 . S
C1239 H1243 0.950 . S
H1240 C1236 0.950 . S
C1241 C1239 1.390 . S
C1241 C1242 1.387 . S
C1241 H1244 0.950 . S
C1242 C1241 1.387 . S
C1242 C1245 1.387 . S
H1243 C1239 0.950 . S
H1244 C1241 0.950 . S
C1245 C1236 1.390 . S
C1245 H1238 0.950 . S
C1245 C1242 1.387 . S
C1246 C1247 1.387 . S
C1246 H1250 0.950 . S
C1246 C1255 1.390 . S
C1247 C1246 1.387 . S
C1247 C1249 1.387 . S
H1248 C1255 0.950 . S
C1249 C1247 1.387 . S
C1249 C1251 1.390 . S
C1249 H1253 0.950 . S
H1250 C1246 0.950 . S
C1251 C1249 1.390 . S
C1251 C1252 1.387 . S
C1251 H1254 0.950 . S
C1252 C1251 1.387 . S
C1252 C1255 1.387 . S
H1253 C1249 0.950 . S
H1254 C1251 0.950 . S
C1255 C1246 1.390 . S
C1255 H1248 0.950 . S
C1255 C1252 1.387 . S
C1256 C1257 1.387 . S
C1256 H1260 0.950 . S
C1256 C1265 1.390 . S
C1257 C1256 1.387 . S
C1257 C1259 1.387 . S
H1258 C1265 0.950 . S
C1259 C1257 1.387 . S
C1259 C1261 1.390 . S
C1259 H1263 0.950 . S
H1260 C1256 0.950 . S
C1261 C1259 1.390 . S
C1261 C1262 1.387 . S
C1261 H1264 0.950 . S
C1262 C1261 1.387 . S
C1262 C1265 1.387 . S
H1263 C1259 0.950 . S
H1264 C1261 0.950 . S
C1265 C1256 1.390 . S
C1265 H1258 0.950 . S
C1265 C1262 1.387 . S
C1266 C1267 1.387 . S
C1266 H1270 0.950 . S
C1266 C1275 1.390 . S
C1267 C1266 1.387 . S
C1267 C1269 1.387 . S
H1268 C1275 0.950 . S
C1269 C1267 1.387 . S
C1269 C1271 1.390 . S
C1269 H1273 0.950 . S
H1270 C1266 0.950 . S
C1271 C1269 1.390 . S
C1271 C1272 1.387 . S
C1271 H1274 0.950 . S
C1272 C1271 1.387 . S
C1272 C1275 1.387 . S
H1273 C1269 0.950 . S
H1274 C1271 0.950 . S
C1275 C1266 1.390 . S
C1275 H1268 0.950 . S
C1275 C1272 1.387 . S
C1276 C1277 1.387 . S
C1276 H1280 0.950 . S
C1276 C1285 1.390 . S
C1277 C1276 1.387 . S
C1277 C1279 1.387 . S
H1278 C1285 0.950 . S
C1279 C1277 1.387 . S
C1279 C1281 1.390 . S
C1279 H1283 0.950 . S
H1280 C1276 0.950 . S
C1281 C1279 1.390 . S
C1281 C1282 1.387 . S
C1281 H1284 0.950 . S
C1282 C1281 1.387 . S
C1282 C1285 1.387 . S
H1283 C1279 0.950 . S
H1284 C1281 0.950 . S
C1285 C1276 1.390 . S
C1285 H1278 0.950 . S
C1285 C1282 1.387 . S
C1286 C1287 1.387 . S
C1286 H1290 0.950 . S
C1286 C1295 1.390 . S
C1287 C1286 1.387 . S
C1287 C1289 1.387 . S
H1288 C1295 0.950 . S
C1289 C1287 1.387 . S
C1289 C1291 1.390 . S
C1289 H1293 0.950 . S
H1290 C1286 0.950 . S
C1291 C1289 1.390 . S
C1291 C1292 1.387 . S
C1291 H1294 0.950 . S
C1292 C1291 1.387 . S
C1292 C1295 1.387 . S
H1293 C1289 0.950 . S
H1294 C1291 0.950 . S
C1295 C1286 1.390 . S
C1295 H1288 0.950 . S
C1295 C1292 1.387 . S
C1296 C1297 1.387 . S
C1296 H1300 0.950 . S
C1296 C1305 1.390 . S
C1297 C1296 1.387 . S
C1297 C1299 1.387 . S
H1298 C1305 0.950 . S
C1299 C1297 1.387 . S
C1299 C1301 1.390 . S
C1299 H1303 0.950 . S
H1300 C1296 0.950 . S
C1301 C1299 1.390 . S
C1301 C1302 1.387 . S
C1301 H1304 0.950 . S
C1302 C1301 1.387 . S
C1302 C1305 1.387 . S
H1303 C1299 0.950 . S
H1304 C1301 0.950 . S
C1305 C1296 1.390 . S
C1305 H1298 0.950 . S
C1305 C1302 1.387 . S
C1306 C1307 1.387 . S
C1306 H1310 0.950 . S
C1306 C1315 1.390 . S
C1307 C1306 1.387 . S
C1307 C1309 1.387 . S
H1308 C1315 0.950 . S
C1309 C1307 1.387 . S
C1309 C1311 1.390 . S
C1309 H1313 0.950 . S
H1310 C1306 0.950 . S
C1311 C1309 1.390 . S
C1311 C1312 1.387 . S
C1311 H1314 0.950 . S
C1312 C1311 1.387 . S
C1312 C1315 1.387 . S
H1313 C1309 0.950 . S
H1314 C1311 0.950 . S
C1315 C1306 1.390 . S
C1315 H1308 0.950 . S
C1315 C1312 1.387 . S
C1316 C1317 1.387 . S
C1316 H1320 0.950 . S
C1316 C1325 1.390 . S
C1317 C1316 1.387 . S
C1317 C1319 1.387 . S
H1318 C1325 0.950 . S
C1319 C1317 1.387 . S
C1319 C1321 1.390 . S
C1319 H1323 0.950 . S
H1320 C1316 0.950 . S
C1321 C1319 1.390 . S
C1321 C1322 1.387 . S
C1321 H1324 0.950 . S
C1322 C1321 1.387 . S
C1322 C1325 1.387 . S
H1323 C1319 0.950 . S
H1324 C1321 0.950 . S
C1325 C1316 1.390 . S
C1325 H1318 0.950 . S
C1325 C1322 1.387 . S
C1326 C1327 1.387 . S
C1326 H1330 0.950 . S
C1326 C1335 1.390 . S
C1327 C1326 1.387 . S
C1327 C1329 1.387 . S
H1328 C1335 0.950 . S
C1329 C1327 1.387 . S
C1329 C1331 1.390 . S
C1329 H1333 0.950 1_554 S
H1330 C1326 0.950 . S
C1331 C1329 1.390 . S
C1331 C1332 1.387 . S
C1331 H1334 0.950 1_554 S
C1332 C1331 1.387 . S
C1332 C1335 1.387 . S
H1333 C1329 0.950 1_556 S
H1334 C1331 0.950 1_556 S
C1335 C1326 1.390 . S
C1335 H1328 0.950 . S
C1335 C1332 1.387 . S
C1336 C1337 1.387 . S
C1336 H1340 0.950 . S
C1336 C1345 1.390 . S
C1337 C1336 1.387 . S
C1337 C1339 1.387 . S
H1338 C1345 0.950 . S
C1339 C1337 1.387 . S
C1339 C1341 1.390 . S
C1339 H1343 0.950 . S
H1340 C1336 0.950 . S
C1341 C1339 1.390 . S
C1341 C1342 1.387 . S
C1341 H1344 0.950 . S
C1342 C1341 1.387 . S
C1342 C1345 1.387 . S
H1343 C1339 0.950 . S
H1344 C1341 0.950 . S
C1345 C1336 1.390 . S
C1345 H1338 0.950 . S
C1345 C1342 1.387 . S
C1346 C1347 1.387 . S
C1346 H1350 0.950 . S
C1346 C1355 1.390 . S
C1347 C1346 1.387 . S
C1347 C1349 1.387 1_554 S
H1348 C1355 0.950 . S
C1349 C1347 1.387 1_556 S
C1349 C1351 1.390 1_556 S
C1349 H1353 0.950 . S
H1350 C1346 0.950 . S
C1351 C1349 1.390 1_554 S
C1351 C1352 1.387 . S
C1351 H1354 0.950 . S
C1352 C1351 1.387 . S
C1352 C1355 1.387 . S
H1353 C1349 0.950 . S
H1354 C1351 0.950 . S
C1355 C1346 1.390 . S
C1355 H1348 0.950 . S
C1355 C1352 1.387 . S
C1356 C1357 1.387 . S
C1356 H1360 0.950 . S
C1356 C1365 1.390 . S
C1357 C1356 1.387 . S
C1357 C1359 1.387 . S
H1358 C1365 0.950 . S
C1359 C1357 1.387 . S
C1359 C1361 1.390 . S
C1359 H1363 0.950 . S
H1360 C1356 0.950 . S
C1361 C1359 1.390 . S
C1361 C1362 1.387 . S
C1361 H1364 0.950 . S
C1362 C1361 1.387 . S
C1362 C1365 1.387 . S
H1363 C1359 0.950 . S
H1364 C1361 0.950 . S
C1365 C1356 1.390 . S
C1365 H1358 0.950 . S
C1365 C1362 1.387 . S
C1366 C1367 1.387 . S
C1366 H1370 0.950 . S
C1366 C1375 1.390 . S
C1367 C1366 1.387 . S
C1367 C1369 1.387 . S
H1368 C1375 0.950 . S
C1369 C1367 1.387 . S
C1369 C1371 1.390 . S
C1369 H1373 0.950 . S
H1370 C1366 0.950 . S
C1371 C1369 1.390 . S
C1371 C1372 1.387 . S
C1371 H1374 0.950 . S
C1372 C1371 1.387 . S
C1372 C1375 1.387 . S
H1373 C1369 0.950 . S
H1374 C1371 0.950 . S
C1375 C1366 1.390 . S
C1375 H1368 0.950 . S
C1375 C1372 1.387 . S
C1376 C1377 1.387 . S
C1376 H1380 0.950 . S
C1376 C1385 1.390 . S
C1377 C1376 1.387 . S
C1377 C1379 1.387 . S
H1378 C1385 0.950 . S
C1379 C1377 1.387 . S
C1379 C1381 1.390 . S
C1379 H1383 0.950 . S
H1380 C1376 0.950 . S
C1381 C1379 1.390 . S
C1381 C1382 1.387 . S
C1381 H1384 0.950 . S
C1382 C1381 1.387 . S
C1382 C1385 1.387 . S
H1383 C1379 0.950 . S
H1384 C1381 0.950 . S
C1385 C1376 1.390 . S
C1385 H1378 0.950 . S
C1385 C1382 1.387 . S
C1386 C1387 1.387 . S
C1386 H1390 0.950 . S
C1386 C1395 1.390 . S
C1387 C1386 1.387 . S
C1387 C1389 1.387 . S
H1388 C1395 0.950 . S
C1389 C1387 1.387 . S
C1389 C1391 1.390 . S
C1389 H1393 0.950 . S
H1390 C1386 0.950 . S
C1391 C1389 1.390 . S
C1391 C1392 1.387 . S
C1391 H1394 0.950 . S
C1392 C1391 1.387 . S
C1392 C1395 1.387 . S
H1393 C1389 0.950 . S
H1394 C1391 0.950 . S
C1395 C1386 1.390 . S
C1395 H1388 0.950 . S
C1395 C1392 1.387 . S
C1396 C1397 1.410 . S
C1396 H1400 0.950 . S
C1396 C1405 1.390 . S
C1397 C1396 1.410 . S
C1397 C1399 1.374 1_455 S
H1398 C1405 0.950 . S
C1399 C1397 1.374 1_655 S
C1399 C1401 1.390 . S
C1399 H1403 0.950 . S
H1400 C1396 0.950 . S
C1401 C1399 1.390 . S
C1401 C1402 1.387 1_655 S
C1401 H1404 0.950 . S
C1402 C1401 1.387 1_455 S
C1402 C1405 1.387 . S
H1403 C1399 0.950 . S
H1404 C1401 0.950 . S
C1405 C1396 1.390 . S
C1405 H1398 0.950 . S
C1405 C1402 1.387 . S
C1406 C1407 1.387 . S
C1406 H1410 0.950 . S
C1406 C1415 1.390 . S
C1407 C1406 1.387 . S
C1407 C1409 1.387 . S
H1408 C1415 0.950 . S
C1409 C1407 1.387 . S
C1409 C1411 1.390 . S
C1409 H1413 0.950 . S
H1410 C1406 0.950 . S
C1411 C1409 1.390 . S
C1411 C1412 1.387 . S
C1411 H1414 0.950 . S
C1412 C1411 1.387 . S
C1412 C1415 1.387 . S
H1413 C1409 0.950 . S
H1414 C1411 0.950 . S
C1415 C1406 1.390 . S
C1415 H1408 0.950 . S
C1415 C1412 1.387 . S
C1416 C1417 1.387 . S
C1416 H1420 0.950 . S
C1416 C1425 1.390 . S
C1417 C1416 1.387 . S
C1417 C1419 1.387 . S
H1418 C1425 0.950 . S
C1419 C1417 1.387 . S
C1419 C1421 1.390 . S
C1419 H1423 0.950 . S
H1420 C1416 0.950 . S
C1421 C1419 1.390 . S
C1421 C1422 1.387 . S
C1421 H1424 0.950 . S
C1422 C1421 1.387 . S
C1422 C1425 1.387 . S
H1423 C1419 0.950 . S
H1424 C1421 0.950 . S
C1425 C1416 1.390 . S
C1425 H1418 0.950 . S
C1425 C1422 1.387 . S
C1426 C1427 1.387 . S
C1426 H1430 0.950 . S
C1426 C1435 1.390 . S
C1427 C1426 1.387 . S
C1427 C1429 1.387 . S
H1428 C1435 0.950 . S
C1429 C1427 1.387 . S
C1429 C1431 1.390 . S
C1429 H1433 0.950 . S
H1430 C1426 0.950 . S
C1431 C1429 1.390 . S
C1431 C1432 1.387 . S
C1431 H1434 0.950 . S
C1432 C1431 1.387 . S
C1432 C1435 1.387 . S
H1433 C1429 0.950 . S
H1434 C1431 0.950 . S
C1435 C1426 1.390 . S
C1435 H1428 0.950 . S
C1435 C1432 1.387 . S
C1436 C1437 1.387 . S
C1436 H1440 0.950 1_455 S
C1436 C1445 1.390 . S
C1437 C1436 1.387 . S
C1437 C1439 1.387 . S
H1438 C1445 0.950 1_655 S
C1439 C1437 1.387 . S
C1439 C1441 1.390 . S
C1439 H1443 0.950 . S
H1440 C1436 0.950 1_655 S
C1441 C1439 1.390 . S
C1441 C1442 1.387 . S
C1441 H1444 0.950 . S
C1442 C1441 1.387 . S
C1442 C1445 1.387 . S
H1443 C1439 0.950 . S
H1444 C1441 0.950 . S
C1445 C1436 1.390 . S
C1445 H1438 0.950 1_455 S
C1445 C1442 1.387 . S
C1446 C1447 1.387 . S
C1446 H1450 0.950 . S
C1446 C1455 1.390 . S
C1447 C1446 1.387 . S
C1447 C1449 1.387 . S
H1448 C1455 0.950 . S
C1449 C1447 1.387 . S
C1449 C1451 1.390 . S
C1449 H1453 0.950 . S
H1450 C1446 0.950 . S
C1451 C1449 1.390 . S
C1451 C1452 1.387 . S
C1451 H1454 0.950 . S
C1452 C1451 1.387 . S
C1452 C1455 1.387 . S
H1453 C1449 0.950 . S
H1454 C1451 0.950 . S
C1455 C1446 1.390 . S
C1455 H1448 0.950 . S
C1455 C1452 1.387 . S
C1456 C1457 1.387 . S
C1456 H1460 0.950 . S
C1456 C1465 1.390 . S
C1457 C1456 1.387 . S
C1457 C1459 1.387 . S
H1458 C1465 0.950 . S
C1459 C1457 1.387 . S
C1459 C1461 1.390 . S
C1459 H1463 0.950 . S
H1460 C1456 0.950 . S
C1461 C1459 1.390 . S
C1461 C1462 1.387 . S
C1461 H1464 0.950 . S
C1462 C1461 1.387 . S
C1462 C1465 1.387 . S
H1463 C1459 0.950 . S
H1464 C1461 0.950 . S
C1465 C1456 1.390 . S
C1465 H1458 0.950 . S
C1465 C1462 1.387 . S
C1466 C1467 1.387 . S
C1466 H1470 0.950 . S
C1466 C1475 1.390 . S
C1467 C1466 1.387 . S
C1467 C1469 1.387 . S
H1468 C1475 0.950 . S
C1469 C1467 1.387 . S
C1469 C1471 1.390 . S
C1469 H1473 0.950 . S
H1470 C1466 0.950 . S
C1471 C1469 1.390 . S
C1471 C1472 1.387 . S
C1471 H1474 0.950 . S
C1472 C1471 1.387 . S
C1472 C1475 1.387 . S
H1473 C1469 0.950 . S
H1474 C1471 0.950 . S
C1475 C1466 1.390 . S
C1475 H1468 0.950 . S
C1475 C1472 1.387 . S
C1476 C1477 1.387 . S
C1476 H1480 0.950 . S
C1476 C1485 1.390 . S
C1477 C1476 1.387 . S
C1477 C1479 1.387 . S
H1478 C1485 0.950 . S
C1479 C1477 1.387 . S
C1479 C1481 1.380 1_655 S
C1479 H1483 0.950 . S
H1480 C1476 0.950 . S
C1481 C1479 1.380 1_455 S
C1481 C1482 1.379 1_455 S
C1481 H1484 0.968 . S
C1482 C1481 1.379 1_655 S
C1482 C1485 1.387 . S
H1483 C1479 0.950 . S
H1484 C1481 0.968 . S
C1485 C1476 1.390 . S
C1485 H1478 0.950 . S
C1485 C1482 1.387 . S
C1486 C1487 1.387 . S
C1486 H1490 0.950 . S
C1486 C1495 1.390 . S
C1487 C1486 1.387 . S
C1487 C1489 1.387 . S
H1488 C1495 0.950 . S
C1489 C1487 1.387 . S
C1489 C1491 1.390 . S
C1489 H1493 0.950 . S
H1490 C1486 0.950 . S
C1491 C1489 1.390 . S
C1491 C1492 1.387 . S
C1491 H1494 0.950 . S
C1492 C1491 1.387 . S
C1492 C1495 1.387 . S
H1493 C1489 0.950 . S
H1494 C1491 0.950 . S
C1495 C1486 1.390 . S
C1495 H1488 0.950 . S
C1495 C1492 1.387 . S
C1496 C1497 1.387 . S
C1496 H1500 0.950 . S
C1496 C1505 1.390 . S
C1497 C1496 1.387 . S
C1497 C1499 1.387 . S
H1498 C1505 0.950 . S
C1499 C1497 1.387 . S
C1499 C1501 1.390 . S
C1499 H1503 0.950 . S
H1500 C1496 0.950 . S
C1501 C1499 1.390 . S
C1501 C1502 1.387 . S
C1501 H1504 0.950 . S
C1502 C1501 1.387 . S
C1502 C1505 1.387 . S
H1503 C1499 0.950 . S
H1504 C1501 0.950 . S
C1505 C1496 1.390 . S
C1505 H1498 0.950 . S
C1505 C1502 1.387 . S
C1506 C1507 1.387 . S
C1506 H1510 0.950 . S
C1506 C1515 1.390 . S
C1507 C1506 1.387 . S
C1507 C1509 1.387 . S
H1508 C1515 0.950 . S
C1509 C1507 1.387 . S
C1509 C1511 1.390 . S
C1509 H1513 0.950 . S
H1510 C1506 0.950 . S
C1511 C1509 1.390 . S
C1511 C1512 1.387 . S
C1511 H1514 0.950 . S
C1512 C1511 1.387 . S
C1512 C1515 1.387 . S
H1513 C1509 0.950 . S
H1514 C1511 0.950 . S
C1515 C1506 1.390 . S
C1515 H1508 0.950 . S
C1515 C1512 1.387 . S
C1516 C1517 1.387 . S
C1516 H1520 0.950 . S
C1516 C1525 1.390 . S
C1517 C1516 1.387 . S
C1517 C1519 1.387 . S
H1518 C1525 0.950 . S
C1519 C1517 1.387 . S
C1519 C1521 1.390 . S
C1519 H1523 0.950 . S
H1520 C1516 0.950 . S
C1521 C1519 1.390 . S
C1521 C1522 1.387 . S
C1521 H1524 0.950 . S
C1522 C1521 1.387 . S
C1522 C1525 1.387 . S
H1523 C1519 0.950 . S
H1524 C1521 0.950 . S
C1525 C1516 1.390 . S
C1525 H1518 0.950 . S
C1525 C1522 1.387 . S
C1526 C1527 1.387 . S
C1526 H1530 0.950 . S
C1526 C1535 1.390 . S
C1527 C1526 1.387 . S
C1527 C1529 1.387 . S
H1528 C1535 0.950 . S
C1529 C1527 1.387 . S
C1529 C1531 1.390 . S
C1529 H1533 0.950 . S
H1530 C1526 0.950 . S
C1531 C1529 1.390 . S
C1531 C1532 1.387 . S
C1531 H1534 0.950 . S
C1532 C1531 1.387 . S
C1532 C1535 1.387 . S
H1533 C1529 0.950 . S
H1534 C1531 0.950 . S
C1535 C1526 1.390 . S
C1535 H1528 0.950 . S
C1535 C1532 1.387 . S
C1536 C1537 1.387 . S
C1536 H1540 0.950 . S
C1536 C1545 1.390 . S
C1537 C1536 1.387 . S
C1537 C1539 1.387 . S
H1538 C1545 0.950 . S
C1539 C1537 1.387 . S
C1539 C1541 1.390 . S
C1539 H1543 0.950 . S
H1540 C1536 0.950 . S
C1541 C1539 1.390 . S
C1541 C1542 1.387 . S
C1541 H1544 0.950 . S
C1542 C1541 1.387 . S
C1542 C1545 1.387 . S
H1543 C1539 0.950 . S
H1544 C1541 0.950 . S
C1545 C1536 1.390 . S
C1545 H1538 0.950 . S
C1545 C1542 1.387 . S
C1546 C1547 1.387 . S
C1546 H1550 0.950 . S
C1546 C1555 1.390 . S
C1547 C1546 1.387 . S
C1547 C1549 1.387 . S
H1548 C1555 0.950 1_545 S
C1549 C1547 1.387 . S
C1549 C1551 1.390 . S
C1549 H1553 0.950 . S
H1550 C1546 0.950 . S
C1551 C1549 1.390 . S
C1551 C1552 1.387 . S
C1551 H1554 0.950 . S
C1552 C1551 1.387 . S
C1552 C1555 1.387 . S
H1553 C1549 0.950 . S
H1554 C1551 0.950 . S
C1555 C1546 1.390 . S
C1555 H1548 0.950 1_565 S
C1555 C1552 1.387 . S
C1556 C1557 1.387 . S
C1556 H1560 0.950 . S
C1556 C1565 1.390 . S
C1557 C1556 1.387 . S
C1557 C1559 1.387 . S
H1558 C1565 0.950 . S
C1559 C1557 1.387 . S
C1559 C1561 1.390 . S
C1559 H1563 0.950 . S
H1560 C1556 0.950 . S
C1561 C1559 1.390 . S
C1561 C1562 1.387 . S
C1561 H1564 0.950 . S
C1562 C1561 1.387 . S
C1562 C1565 1.387 . S
H1563 C1559 0.950 . S
H1564 C1561 0.950 . S
C1565 C1556 1.390 . S
C1565 H1558 0.950 . S
C1565 C1562 1.387 . S
C1566 C1567 1.390 1_556 S
C1566 H1570 0.950 . S
C1566 C1575 1.390 . S
C1567 C1566 1.390 1_554 S
C1567 C1569 1.385 . S
H1568 C1575 0.950 . S
C1569 C1567 1.385 . S
C1569 C1571 1.390 . S
C1569 H1573 0.950 . S
H1570 C1566 0.950 . S
C1571 C1569 1.390 . S
C1571 C1572 1.387 . S
C1571 H1574 0.950 . S
C1572 C1571 1.387 . S
C1572 C1575 1.387 1_554 S
H1573 C1569 0.950 . S
H1574 C1571 0.950 . S
C1575 C1566 1.390 . S
C1575 H1568 0.950 . S
C1575 C1572 1.387 1_556 S
C1576 C1577 1.387 . S
C1576 H1580 0.950 . S
C1576 C1585 1.390 . S
C1577 C1576 1.387 . S
C1577 C1579 1.387 . S
H1578 C1585 0.950 . S
C1579 C1577 1.387 . S
C1579 C1581 1.390 . S
C1579 H1583 0.950 . S
H1580 C1576 0.950 . S
C1581 C1579 1.390 . S
C1581 C1582 1.387 . S
C1581 H1584 0.950 . S
C1582 C1581 1.387 . S
C1582 C1585 1.387 . S
H1583 C1579 0.950 . S
H1584 C1581 0.950 . S
C1585 C1576 1.390 . S
C1585 H1578 0.950 . S
C1585 C1582 1.387 . S
C1586 C1587 1.387 . S
C1586 H1590 0.950 . S
C1586 C1595 1.390 1_554 S
C1587 C1586 1.387 . S
C1587 C1589 1.387 . S
H1588 C1595 0.950 . S
C1589 C1587 1.387 . S
C1589 C1591 1.390 . S
C1589 H1593 0.950 . S
H1590 C1586 0.950 . S
C1591 C1589 1.390 . S
C1591 C1592 1.395 . S
C1591 H1594 0.950 . S
C1592 C1591 1.395 . S
C1592 C1595 1.386 1_554 S
H1593 C1589 0.950 . S
H1594 C1591 0.950 . S
C1595 C1586 1.390 1_556 S
C1595 H1588 0.950 . S
C1595 C1592 1.386 1_556 S
C1596 C1597 1.387 . S
C1596 H1600 0.950 . S
C1596 C1605 1.390 . S
C1597 C1596 1.387 . S
C1597 C1599 1.387 . S
H1598 C1605 0.950 . S
C1599 C1597 1.387 . S
C1599 C1601 1.390 . S
C1599 H1603 0.950 . S
H1600 C1596 0.950 . S
C1601 C1599 1.390 . S
C1601 C1602 1.387 . S
C1601 H1604 0.950 . S
C1602 C1601 1.387 . S
C1602 C1605 1.387 . S
H1603 C1599 0.950 . S
H1604 C1601 0.950 . S
C1605 C1596 1.390 . S
C1605 H1598 0.950 . S
C1605 C1602 1.387 . S
C1606 C1607 1.387 . S
C1606 H1610 0.950 . S
C1606 C1615 1.390 . S
C1607 C1606 1.387 . S
C1607 C1609 1.387 . S
H1608 C1615 0.950 . S
C1609 C1607 1.387 . S
C1609 C1611 1.390 . S
C1609 H1613 0.950 . S
H1610 C1606 0.950 . S
C1611 C1609 1.390 . S
C1611 C1612 1.387 . S
C1611 H1614 0.950 . S
C1612 C1611 1.387 . S
C1612 C1615 1.387 . S
H1613 C1609 0.950 . S
H1614 C1611 0.950 . S
C1615 C1606 1.390 . S
C1615 H1608 0.950 . S
C1615 C1612 1.387 . S
C657 C109 1.341 . S
C662 C352 1.306 1_556 S
C667 C65 1.433 . S
C672 C365 1.407 . S
C677 C75 1.449 . S
C682 C384 1.450 . S
C692 C415 1.865 . S
C687 C84 1.915 . S
C697 C25 1.669 . S
C702 C435 1.653 . S
C712 C452 1.020 . S
C707 C28 1.018 . S
C722 C465 1.509 . S
C717 C47 1.509 . S
C727 C9 1.243 . S
C732 C492 1.182 . S
C742 C345 1.378 . S
C737 C233 1.406 . S
C747 C249 1.538 . S
C752 C375 1.549 . S
C762 C377 1.712 . S
C757 C275 1.785 1_545 S
C772 C412 0.999 . S
C767 C173 1.004 . S
C777 C224 1.257 . S
C782 C432 1.273 . S
C792 C445 1.766 . S
C787 C243 1.754 . S
C802 C475 1.401 . S
C797 C266 1.418 . S
C812 C485 1.214 . S
C807 C179 1.238 . S
C822 C355 1.686 1_565 S
C817 C163 1.699 . S
C827 C289 1.712 . S
C832 C505 1.705 . S
C842 C535 1.629 . S
C837 C333 1.607 . S
C852 C552 1.245 . S
C847 C308 1.263 . S
C857 C123 1.864 . S
C862 C495 1.892 . S
C867 C126 1.354 . S
C872 C382 1.327 . S
C877 C327 1.817 . S
C882 C565 1.810 . S
C892 C592 1.224 . S
C887 C299 1.262 . S
C902 C342 1.301 . S
C897 C67 1.337 . S
C912 C577 1.415 . S
C907 C98 1.441 . S
C917 C89 1.463 . S
C922 C395 1.464 . S
C927 C79 1.935 . S
C932 C564 1.894 . S
C942 C424 1.666 . S
C937 C11 1.689 . S
C947 C51 1.048 . S
C952 C522 1.028 . S
C962 C457 1.534 . S
C957 C33 1.526 . S
C972 C602 1.156 . S
C967 C14 1.195 . S
C982 C337 1.351 . S
C977 C140 1.363 . S
C992 C584 1.560 . S
C987 C319 1.567 . S
C997 C112 1.760 . S
C1002 C385 1.721 . S
C1007 C285 1.014 . S
C1012 C562 1.009 . S
C1017 C149 1.306 . S
C1022 C422 1.292 . S
C1032 C517 1.789 . S
C1027 C313 1.776 . S
C1037 C121 1.488 . S
C1042 C464 1.449 . S
C1047 C291 1.252 . S
C1052 C597 1.227 . S
C1057 C182 1.685 . S
C1062 C344 1.680 . S
C1067 C168 1.700 . S
C1072 C497 1.701 . S
C1077 C263 1.653 . S
C1082 C444 1.664 . S
C1087 C247 1.314 . S
C1092 C542 1.277 . S
C1102 C604 1.874 . S
C1097 C277 1.861 . S
C1107 C219 1.420 . S
C1112 C392 1.342 . S
C1122 C397 1.837 . S
C1117 C257 1.844 . S
C1132 C362 1.218 . S
C1127 C201 1.252 . S
C1137 C81 1.338 . S
C1142 C632 1.303 . S
C1152 C585 1.407 . S
C1147 C93 1.433 . S
C1157 C103 1.451 . S
C1162 C644 1.449 1_455 S
C1167 C56 1.915 . S
C1172 C575 1.865 . S
C1177 C53 1.668 . S
C1182 C515 1.655 . S
C1192 C532 1.022 . S
C1187 C0 1.022 . S
C1202 C545 1.508 1_655 S
C1197 C19 1.508 . S
C1212 C612 1.177 . S
C1207 C37 1.241 . S
C1222 C625 1.377 . S
C1217 C261 1.405 . S
C1227 C193 1.537 . S
C1232 C595 1.550 . S
C1242 C637 1.711 . S
C1237 C205 1.784 . S
C1252 C572 0.995 . S
C1247 C215 1.004 . S
C1262 C512 1.275 . S
C1257 C252 1.257 . S
C1267 C187 1.755 . S
C1272 C525 1.766 . S
C1282 C555 1.402 . S
C1277 C196 1.418 . S
C1287 C221 1.237 . S
C1292 C605 1.213 . S
C1302 C635 1.686 . S
C1297 C317 1.699 . S
C1307 C135 1.712 . S
C1312 C425 1.697 . S
C1322 C455 1.629 . S
C1317 C151 1.612 . S
C1332 C472 1.243 . S
C1327 C154 1.262 . S
C1342 C615 1.892 . S
C1337 C305 1.864 . S
C1347 C280 1.355 . S
C1352 C642 1.329 . S
C1362 C405 1.810 . S
C1357 C145 1.814 . S
C1372 C372 1.224 . S
C1367 C117 1.262 . S
C1377 C95 1.334 . S
C1382 C622 1.298 . S
C1392 C357 1.414 . S
C1387 C70 1.441 . S
C1397 C61 1.462 . S
C1402 C655 1.463 . S
C1407 C107 1.935 . S
C1412 C404 1.893 . S
C1417 C39 1.689 . S
C1422 C504 1.666 1_556 S
C1432 C442 1.027 . S
C1427 C23 1.045 . S
C1437 C5 1.526 . S
C1442 C537 1.527 . S
C1447 C42 1.191 . S
C1452 C482 1.156 . S
C1462 C617 1.351 . S
C1457 C322 1.361 . S
C1467 C165 1.567 . S
C1472 C364 1.559 . S
C1482 C645 1.729 . S
C1477 C294 1.761 . S
C1487 C131 1.013 . S
C1492 C402 1.011 . S
C1497 C331 1.306 . S
C1502 C502 1.293 . S
C1512 C437 1.789 . S
C1507 C159 1.776 . S
C1517 C303 1.488 . S
C1522 C544 1.449 . S
C1532 C477 1.224 . S
C1527 C137 1.250 . S
C1542 C624 1.680 . S
C1537 C238 1.686 . S
C1552 C417 1.701 1_565 S
C1547 C210 1.699 . S
C1557 C235 1.653 . S
C1562 C524 1.664 . S
C1572 C462 1.279 . S
C1567 C191 1.314 1_554 S
C1577 C207 1.861 . S
C1582 C484 1.875 . S
C1587 C177 1.419 . S
C1592 C652 1.340 1_554 S
C1602 C557 1.837 . S
C1597 C229 1.844 . S
C1612 C582 1.214 . S
C1607 C271 1.249 . S
