# Generated by pormake.
# Topology ocu, (6,8)-cn, num edge types: 1
# Building blocks:
#     Node 0, Type 0, BuildingBlock: HISSIN_clean_sbu_0, # of connection points: 6
#     Node 1, Type 0, BuildingBlock: HISSIN_clean_sbu_0, # of connection points: 6
#     Node 2, Type 0, BuildingBlock: HISSIN_clean_sbu_0, # of connection points: 6
#     Node 3, Type 0, BuildingBlock: HISSIN_clean_sbu_0, # of connection points: 6
#     Node 4, Type 0, BuildingBlock: HISSIN_clean_sbu_0, # of connection points: 6
#     Node 5, Type 0, BuildingBlock: HISSIN_clean_sbu_0, # of connection points: 6
#     Node 6, Type 0, BuildingBlock: HISSIN_clean_sbu_0, # of connection points: 6
#     Node 7, Type 0, BuildingBlock: HISSIN_clean_sbu_0, # of connection points: 6
#     Node 8, Type 1, BuildingBlock: GIZVER_clean_sbu_0, # of connection points: 8
#     Node 9, Type 1, BuildingBlock: GIZVER_clean_sbu_0, # of connection points: 8
#     Node 10, Type 1, BuildingBlock: GIZVER_clean_sbu_0, # of connection points: 8
#     Node 11, Type 1, BuildingBlock: GIZVER_clean_sbu_0, # of connection points: 8
#     Node 12, Type 1, BuildingBlock: GIZVER_clean_sbu_0, # of connection points: 8
#     Node 13, Type 1, BuildingBlock: GIZVER_clean_sbu_0, # of connection points: 8
#     Edge 14, Type (0, 1), None
#     Edge 15, Type (0, 1), None
#     Edge 16, Type (0, 1), None
#     Edge 17, Type (0, 1), None
#     Edge 18, Type (0, 1), None
#     Edge 19, Type (0, 1), None
#     Edge 20, Type (0, 1), None
#     Edge 21, Type (0, 1), None
#     Edge 22, Type (0, 1), None
#     Edge 23, Type (0, 1), None
#     Edge 24, Type (0, 1), None
#     Edge 25, Type (0, 1), None
#     Edge 26, Type (0, 1), None
#     Edge 27, Type (0, 1), None
#     Edge 28, Type (0, 1), None
#     Edge 29, Type (0, 1), None
#     Edge 30, Type (0, 1), None
#     Edge 31, Type (0, 1), None
#     Edge 32, Type (0, 1), None
#     Edge 33, Type (0, 1), None
#     Edge 34, Type (0, 1), None
#     Edge 35, Type (0, 1), None
#     Edge 36, Type (0, 1), None
#     Edge 37, Type (0, 1), None
#     Edge 38, Type (0, 1), None
#     Edge 39, Type (0, 1), None
#     Edge 40, Type (0, 1), None
#     Edge 41, Type (0, 1), None
#     Edge 42, Type (0, 1), None
#     Edge 43, Type (0, 1), None
#     Edge 44, Type (0, 1), None
#     Edge 45, Type (0, 1), None
#     Edge 46, Type (0, 1), None
#     Edge 47, Type (0, 1), None
#     Edge 48, Type (0, 1), None
#     Edge 49, Type (0, 1), None
#     Edge 50, Type (0, 1), None
#     Edge 51, Type (0, 1), None
#     Edge 52, Type (0, 1), None
#     Edge 53, Type (0, 1), None
#     Edge 54, Type (0, 1), None
#     Edge 55, Type (0, 1), None
#     Edge 56, Type (0, 1), None
#     Edge 57, Type (0, 1), None
#     Edge 58, Type (0, 1), None
#     Edge 59, Type (0, 1), None
#     Edge 60, Type (0, 1), None
#     Edge 61, Type (0, 1), None
# Relax obj value: 0.337
# Max RMSD: 0.236
# Mean RMSD: 0.193
data_MOF--net-ocu--node1-HISSIN_clean_sbu_0--node2-GIZVER_clean_sbu_0--edge1-none
_symmetry_space_group_name_H-M    P1
_symmetry_Int_Tables_number       1
_symmetry_cell_setting            triclinic
loop_
_symmetry_equiv_pos_as_xyz
'x, y, z'
_cell_length_a     22.363781
_cell_length_b     24.139018
_cell_length_c     18.702736
_cell_angle_alpha  108.5141
_cell_angle_beta   72.374261
_cell_angle_gamma 127.5299
loop_
_atom_site_label
_atom_site_type_symbol
_atom_site_fract_x
_atom_site_fract_y
_atom_site_fract_z
_atom_type_partial_charge
Eu0 Eu 0.45808 0.36554 0.35018 0.0
Eu1 Eu 0.36075 0.28053 0.21563 0.0
C2 C 0.2956 0.21133 0.36316 0.0
C3 C 0.54473 0.36274 0.47478 0.0
C4 C 0.48762 0.29055 0.45609 0.0
C5 C 0.61428 0.33087 0.51074 0.0
C6 C 0.49322 0.2393 0.46414 0.0
C7 C 0.60879 0.38321 0.50177 0.0
C8 C 0.55651 0.25848 0.49093 0.0
C9 C 0.53727 0.41256 0.45655 0.0
O10 O 0.31734 0.34705 0.293 0.0
O11 O 0.4108 0.43166 0.36655 0.0
C12 C 0.34944 0.40807 0.33997 0.0
O13 O 0.5341 0.44453 0.27164 0.0
O14 O 0.24668 0.22094 0.18505 0.0
O15 O 0.34535 0.25172 0.09827 0.0
O16 O 0.4661 0.38045 0.17148 0.0
C17 C 0.52503 0.43788 0.20308 0.0
O18 O 0.48915 0.28482 0.28104 0.0
O19 O 0.4182 0.22194 0.18331 0.0
O20 O 0.30114 0.19796 0.28902 0.0
O21 O 0.5692 0.4268 0.3883 0.0
O22 O 0.46774 0.39566 0.47035 0.0
O23 O 0.34141 0.27585 0.39895 0.0
C24 C 0.26039 0.2756 0.09311 0.0
C25 C 0.32023 0.34653 0.08716 0.0
C26 C 0.17113 0.29785 0.08433 0.0
C27 C 0.30536 0.39321 0.08298 0.0
C28 C 0.18589 0.2513 0.09084 0.0
C29 C 0.23056 0.36969 0.08347 0.0
C30 C 0.27493 0.2323 0.1152 0.0
C31 C 0.468 0.23411 0.21989 0.0
H32 H 0.43841 0.27307 0.43376 0.0
H33 H 0.66376 0.34674 0.53156 0.0
H34 H 0.44727 0.18427 0.44902 0.0
H35 H 0.65417 0.43879 0.51489 0.0
H36 H 0.37839 0.36722 0.08933 0.0
H37 H 1.11309 0.27854 0.0835 0.0
H38 H 0.35248 0.44803 0.08046 0.0
H39 H 1.13906 0.19768 0.0981 0.0
Eu40 Eu 0.93869 0.27681 0.24365 0.0
Eu41 Eu 0.83034 0.33081 0.3032 0.0
C42 C 0.95508 0.39336 0.39732 0.0
C43 C 1.04277 0.23592 0.31481 0.0
C44 C 0.99097 0.22431 0.38276 0.0
C45 C 1.12632 0.24276 0.38244 0.0
C46 C 1.00468 0.21961 0.44797 0.0
C47 C 1.11262 0.24846 0.31665 0.0
C48 C 1.07054 0.22484 0.44805 0.0
C49 C 1.02345 0.23643 0.24448 0.0
O50 O 0.9458 0.41628 0.24164 0.0
O51 O 0.98865 0.34936 0.16071 0.0
C52 C 0.99165 0.40825 0.18102 0.0
O53 O 0.83386 0.20472 0.17497 0.0
O54 O 0.8106 0.41389 0.35196 0.0
O55 O 0.71578 0.30536 0.3203 0.0
O56 O 0.82051 0.29164 0.18016 0.0
C57 C 0.80122 0.2273 0.15311 0.0
O58 O 0.87245 0.24713 0.35477 0.0
O59 O 0.76457 0.21856 0.33175 0.0
O60 O 0.88319 0.36815 0.40659 0.0
O61 O 1.05187 0.29885 0.23146 0.0
O62 O 0.95204 0.1915 0.23305 0.0
O63 O 0.98944 0.37795 0.33141 0.0
C64 C 0.7355 0.39159 0.26977 0.0
C65 C 0.79283 0.40815 0.20635 0.0
C66 C 0.65608 0.3838 0.19846 0.0
C67 C 0.78061 0.40907 0.13864 0.0
C68 C 0.66706 0.37897 0.26547 0.0
C69 C 0.7119 0.39651 0.13388 0.0
C70 C 0.7428 0.37251 0.33153 0.0
C71 C 0.79997 0.20332 0.3586 0.0
H72 H 0.9372 0.21453 0.38522 0.0
H73 H 0.17769 0.24651 0.37949 0.0
H74 H 0.95942 0.20387 0.49587 0.0
H75 H 0.15517 0.25978 0.26637 0.0
H76 H 0.84639 0.41798 0.20805 0.0
H77 H 0.60394 0.37661 0.1965 0.0
H78 H 0.82592 0.42174 0.09051 0.0
H79 H 0.62158 0.36181 0.31247 0.0
Eu80 Eu 0.97533 0.88907 0.17539 0.0
Eu81 Eu 0.87227 0.77261 0.27781 0.0
C82 C 0.82292 0.73791 0.12252 0.0
C83 C 0.97872 0.97787 0.05159 0.0
C84 C 0.90603 0.91494 0.04085 0.0
C85 C 0.94067 1.0396 0.01697 0.0
C86 C 0.85345 0.91347 0.01344 0.0
C87 C 0.99675 1.03971 0.03594 0.0
C88 C 0.86686 0.9766 0.00977 0.0
C89 C 1.02976 0.97935 0.08841 0.0
O90 O 0.94364 0.73621 0.18435 0.0
O91 O 1.04555 0.8419 0.14894 0.0
C92 C 1.01405 0.77423 0.14864 0.0
O93 O 1.02356 0.93979 0.28827 0.0
O94 O 0.80329 0.66069 0.28898 0.0
O95 O 0.82729 0.74247 0.38915 0.0
O96 O 0.9866 0.83616 0.31113 0.0
C97 C 1.02456 0.90444 0.32841 0.0
O98 O 0.87363 0.89673 0.23095 0.0
O99 O 0.84987 0.86171 0.34016 0.0
O100 O 0.79605 0.73358 0.19434 0.0
O101 O 1.02105 0.99613 0.16249 0.0
O102 O 1.03323 0.92435 0.06585 0.0
O103 O 0.89428 0.78686 0.10163 0.0
C104 C 0.84405 0.65474 0.38656 0.0
C105 C 0.92122 0.70324 0.39678 0.0
C106 C 0.84049 0.56751 0.42848 0.0
C107 C 0.95811 0.6841 0.42153 0.0
C108 C 0.80396 0.58636 0.40203 0.0
C109 C 0.91827 0.61594 0.43746 0.0
C110 C 0.80626 0.6771 0.36181 0.0
C111 C 0.84917 0.90101 0.30458 0.0
H112 H 0.88964 0.86642 0.05329 0.0
H113 H 0.95354 0.08966 0.01262 0.0
H114 H 0.80015 0.86434 1.00027 0.0
H115 H 1.05197 0.08869 0.04339 0.0
H116 H 0.95261 0.75692 0.38831 0.0
H117 H 0.80725 0.5154 0.44325 0.0
H118 H 1.01751 0.72297 0.42889 0.0
H119 H 0.74424 0.54833 0.39558 0.0
Eu120 Eu 0.42471 0.7586 0.24879 0.0
Eu121 Eu 0.34343 0.80771 0.28166 0.0
C122 C 0.32386 0.72417 0.12647 0.0
C123 C 0.54807 0.75285 0.334 0.0
C124 C 0.59086 0.82406 0.32594 0.0
C125 C 0.64655 0.74275 0.25226 0.0
C126 C 0.64178 0.84175 0.25896 0.0
C127 C 0.58726 0.72086 0.31285 0.0
C128 C 0.66271 0.79537 0.2174 0.0
C129 C 0.4767 0.71125 0.30246 0.0
O130 O 0.3128 0.73226 0.35671 0.0
O131 O 0.30764 0.66031 0.25111 0.0
C132 C 0.28232 0.66604 0.32243 0.0
O133 O 0.47023 0.8621 0.34353 0.0
O134 O 0.25693 0.82775 0.31914 0.0
O135 O 0.22771 0.72015 0.26161 0.0
O136 O 0.39247 0.89856 0.37307 0.0
C137 C 0.45149 0.90687 0.38546 0.0
O138 O 0.51243 0.83471 0.16958 0.0
O139 O 0.45005 0.88919 0.20582 0.0
O140 O 0.35406 0.7903 0.15509 0.0
O141 O 0.42848 0.72668 0.34343 0.0
O142 O 0.48438 0.70901 0.22874 0.0
O143 O 0.33863 0.69306 0.15921 0.0
C144 C 0.18454 0.76867 0.21956 0.0
C145 C 1.11709 0.76308 0.25045 0.0
C146 C 0.25077 0.89087 0.21145 0.0
C147 C 1.12486 0.82656 0.28342 0.0
C148 C 0.24222 0.82689 0.18125 0.0
C149 C 0.19671 0.89074 0.27202 0.0
C150 C 0.20968 0.76548 0.27983 0.0
C151 C 0.50914 0.8863 0.16582 0.0
H152 H 0.56785 0.85503 0.35342 0.0
H153 H 0.66367 0.70708 0.2218 0.0
H154 H 0.65535 0.88429 0.2351 0.0
H155 H 0.56032 0.66918 0.32627 0.0
H156 H 1.06708 0.71486 0.27011 0.0
H157 H 0.30391 0.93972 0.1971 0.0
H158 H 1.08011 0.82258 0.32749 0.0
H159 H 0.28901 0.82926 0.14101 0.0
Eu160 Eu 0.46389 0.76483 0.71404 0.0
Eu161 Eu 0.35553 0.81882 0.77358 0.0
C162 C 0.49301 0.86834 0.86413 0.0
C163 C 0.55874 0.70405 0.74744 0.0
C164 C 0.50142 0.68746 0.81085 0.0
C165 C 0.63817 0.7118 0.8187 0.0
C166 C 0.51363 0.68649 0.87854 0.0
C167 C 0.62719 0.71667 0.75172 0.0
C168 C 0.58234 0.69905 0.88328 0.0
C169 C 0.55144 0.72314 0.68569 0.0
O170 O 0.42178 0.84849 0.66247 0.0
O171 O 0.52966 0.87708 0.6855 0.0
C172 C 0.49426 0.89232 0.65864 0.0
O173 O 0.41104 0.72749 0.61065 0.0
O174 O 0.24236 0.79678 0.78576 0.0
O175 O 0.34219 0.90413 0.78418 0.0
O176 O 0.30479 0.71768 0.68583 0.0
C177 C 0.33915 0.70227 0.61992 0.0
O178 O 0.34843 0.67936 0.77561 0.0
O179 O 0.30559 0.74629 0.85653 0.0
O180 O 0.46037 0.89091 0.84226 0.0
O181 O 0.48364 0.68176 0.66526 0.0
O182 O 0.57845 0.79028 0.69694 0.0
O183 O 0.47372 0.804 0.83708 0.0
C184 C 0.25146 0.8597 0.7024 0.0
C185 C 0.30325 0.87129 0.63445 0.0
C186 C 0.16792 0.85287 0.63477 0.0
C187 C 0.28955 0.87599 0.56924 0.0
C188 C 0.18161 0.84717 0.70057 0.0
C189 C 0.2237 0.87077 0.56916 0.0
C190 C 0.27078 0.85919 0.77274 0.0
C191 C 0.30259 0.6874 0.83623 0.0
H192 H 0.44785 0.67763 0.80917 0.0
H193 H 0.69031 0.71899 0.82065 0.0
H194 H 0.46831 0.67379 0.92667 0.0
H195 H 0.67267 0.73385 0.70472 0.0
H196 H 0.35702 0.88106 0.63199 0.0
H197 H 1.11656 0.84913 0.63771 0.0
H198 H 0.33481 0.89171 0.52134 0.0
H199 H 1.13907 0.83587 0.75084 0.0
Eu200 Eu 0.42195 0.32301 0.73943 0.0
Eu201 Eu 0.31888 0.20656 0.84186 0.0
C202 C 0.26966 0.19119 0.68884 0.0
C203 C 0.45017 0.44087 0.63068 0.0
C204 C 0.373 0.39237 0.62044 0.0
C205 C 0.45373 0.52811 0.58877 0.0
C206 C 0.33611 0.41152 0.5957 0.0
C207 C 0.49025 0.50926 0.61522 0.0
C208 C 0.37595 0.47968 0.57979 0.0
C209 C 0.48796 0.41851 0.65543 0.0
O210 O 0.42059 0.1989 0.7863 0.0
O211 O 0.44433 0.2339 0.67709 0.0
C212 C 0.44505 0.19461 0.71268 0.0
O213 O 0.49818 0.36202 0.82288 0.0
O214 O 0.27317 0.0995 0.85477 0.0
O215 O 0.26098 0.17129 0.95141 0.0
O216 O 0.39995 0.30877 0.91561 0.0
C217 C 0.47131 0.35771 0.89471 0.0
O218 O 0.35059 0.35943 0.8329 0.0
O219 O 0.24868 0.25374 0.86831 0.0
O220 O 0.27066 0.15584 0.72898 0.0
O221 O 0.49094 0.43493 0.72825 0.0
O222 O 0.46692 0.35314 0.62808 0.0
O223 O 0.30762 0.25946 0.70612 0.0
C224 C 0.3155 0.11778 0.96568 0.0
C225 C 0.3882 0.18071 0.97639 0.0
C226 C 0.35356 0.05608 1.00034 0.0
C227 C 0.44079 0.1822 1.0038 0.0
C228 C 0.29747 0.05595 0.98137 0.0
C229 C 0.42737 0.11908 1.00751 0.0
C230 C 0.26445 0.11629 0.92885 0.0
C231 C 0.28018 0.32141 0.86861 0.0
H232 H 0.34161 0.33869 0.6289 0.0
H233 H 0.48697 0.58022 0.57401 0.0
H234 H 0.27671 0.37264 0.58833 0.0
H235 H 0.54997 0.54729 0.62168 0.0
H236 H 0.40459 0.22922 0.96392 0.0
H237 H 0.34069 1.00603 1.00473 0.0
H238 H 0.4941 0.23133 0.01694 0.0
H239 H 0.24225 1.00697 0.97394 0.0
Eu240 Eu 0.95082 0.28794 0.73558 0.0
Eu241 Eu 0.86955 0.33708 0.76844 0.0
C242 C 0.84274 0.18878 0.63179 0.0
C243 C 1.10969 0.32697 0.79769 0.0
C244 C 0.17713 0.33255 0.76679 0.0
C245 C 1.04345 0.20476 0.8058 0.0
C246 C 0.16936 0.26906 0.73382 0.0
C247 C 1.052 0.26875 0.836 0.0
C248 C 1.09751 0.20489 0.74522 0.0
C249 C 1.08455 0.33016 0.73742 0.0
O250 O 0.78182 0.26097 0.84765 0.0
O251 O 0.84419 0.20648 0.81143 0.0
C252 C 0.7851 0.20938 0.85142 0.0
O253 O 0.94019 0.30536 0.86215 0.0
O254 O 0.86583 0.36904 0.6738 0.0
O255 O 0.80991 0.38669 0.78848 0.0
O256 O 0.95562 0.4026 0.85803 0.0
C257 C 0.97039 0.37148 0.89077 0.0
O258 O 0.98146 0.3634 0.66052 0.0
O259 O 0.98664 0.43534 0.76613 0.0
O260 O 0.824 0.23356 0.67372 0.0
O261 O 1.0373 0.26789 0.69811 0.0
O262 O 1.06653 0.37549 0.75563 0.0
O263 O 0.90176 0.1971 0.64418 0.0
C264 C 0.74627 0.34293 0.68319 0.0
C265 C 0.70348 0.2717 0.69117 0.0
C266 C 0.64775 0.35296 0.76492 0.0
C267 C 0.65251 0.25394 0.75812 0.0
C268 C 0.70708 0.37492 0.70438 0.0
C269 C 0.63157 0.30029 0.79972 0.0
C270 C 0.81762 0.38449 0.71476 0.0
C271 C 1.01196 0.42962 0.69481 0.0
H272 H 0.22715 0.38077 0.74714 0.0
H273 H 0.99031 0.15591 0.82014 0.0
H274 H 0.21411 0.27305 0.68975 0.0
H275 H 1.00522 0.26639 0.87624 0.0
H276 H 0.7265 0.24074 0.66366 0.0
H277 H 0.6306 0.38861 0.7954 0.0
H278 H 0.63893 0.21137 0.78192 0.0
H279 H 0.73404 0.42663 0.69102 0.0
Eu280 Eu 0.93348 0.8151 0.80161 0.0
Eu281 Eu 0.83616 0.73009 0.66706 0.0
C282 C 0.76922 0.65773 0.81413 0.0
C283 C 1.03388 0.82007 0.92414 0.0
C284 C 0.97403 0.74915 0.93013 0.0
C285 C 1.12313 0.79781 0.9329 0.0
C286 C 0.98889 0.70247 0.93431 0.0
C287 C 1.10838 0.84436 0.92639 0.0
C288 C 1.0637 0.72597 0.93379 0.0
C289 C 1.01933 0.86336 0.90203 0.0
O290 O 0.8051 0.81081 0.7362 0.0
O291 O 0.87601 0.87366 0.83396 0.0
C292 C 0.82622 0.8615 0.79736 0.0
O293 O 0.99308 0.89767 0.72822 0.0
O294 O 0.72505 0.66884 0.62894 0.0
O295 O 0.82651 0.69999 0.54689 0.0
O296 O 0.95283 0.81978 0.61829 0.0
C297 C 0.99863 0.88431 0.65408 0.0
O298 O 0.9769 0.74858 0.72424 0.0
O299 O 0.88344 0.66398 0.65069 0.0
O300 O 0.76015 0.6511 0.74559 0.0
O301 O 1.04757 0.87469 0.83218 0.0
O302 O 0.94891 0.84394 0.91897 0.0
O303 O 0.82815 0.71516 0.84575 0.0
C304 C 0.74952 0.73291 0.54246 0.0
C305 C 0.80663 0.8051 0.56114 0.0
C306 C 0.67996 0.76478 0.50654 0.0
C307 C 0.80103 0.85635 0.5531 0.0
C308 C 0.68545 0.71244 0.5155 0.0
C309 C 0.73773 0.83717 0.52633 0.0
C310 C 0.75698 0.68308 0.56069 0.0
C311 C 0.9448 0.68757 0.67727 0.0
H312 H 0.91586 0.72847 0.92798 0.0
H313 H 0.18117 0.81711 0.93371 0.0
H314 H 0.94176 0.64765 0.93686 0.0
H315 H 0.15521 0.89797 0.9191 0.0
H316 H 0.85585 0.82258 0.58344 0.0
H317 H 0.63046 0.74891 0.48573 0.0
H318 H 0.84699 0.91137 0.5682 0.0
H319 H 0.64006 0.65686 0.50239 0.0
Co320 Co 0.19057 0.94251 0.39706 0.0
Co321 Co 0.20761 0.97798 0.53533 0.0
Co322 Co 0.14711 0.04782 0.50862 0.0
O323 O 0.22024 1.0248 0.46904 0.0
H324 H 0.27249 0.06537 0.46201 0.0
O325 O 1.07398 0.07083 0.5482 0.0
Co326 Co 1.10365 0.15312 0.62018 0.0
Co327 Co 1.08662 0.11766 0.48191 0.0
H328 H 1.02173 1.03026 0.55524 0.0
O329 O 0.28758 0.98149 0.53668 0.0
O330 O 0.18 0.89201 0.47898 0.0
O331 O 1.13177 0.96226 0.62652 0.0
O332 O 1.06473 0.9574 0.55643 0.0
O333 O 0.19386 0.09028 0.60239 0.0
O334 O 1.08159 0.10091 0.68872 0.0
O335 O 1.01048 0.1251 0.65582 0.0
O336 O 0.21178 0.18725 0.59658 0.0
O337 O 0.22949 0.13823 0.46082 0.0
O338 O 0.16246 0.13337 0.39073 0.0
O339 O 1.11421 0.20362 0.53826 0.0
O340 O 1.00663 0.11411 0.48055 0.0
C341 C 0.22215 0.94915 0.33573 0.0
C342 C 1.06678 0.93977 0.39376 0.0
C343 C 1.06786 0.93886 0.61159 0.0
C344 C 0.23192 0.91479 0.52148 0.0
C345 C 1.07207 0.14648 0.68151 0.0
C346 C 0.22744 0.15586 0.62349 0.0
C347 C 0.22637 0.15678 0.40567 0.0
C348 C 1.06233 0.18081 0.4957 0.0
O349 O 0.21263 0.99472 0.32853 0.0
O350 O 0.28374 0.97053 0.36143 0.0
O351 O 1.10036 1.00535 0.41486 0.0
O352 O 1.08244 0.90838 0.42066 0.0
Co353 Co 0.7137 0.93786 0.89755 0.0
Co354 Co 0.72201 0.99612 0.04215 0.0
Co355 Co 0.64712 0.04782 0.00861 0.0
O356 O 0.72387 1.02428 0.96055 0.0
H357 H 0.77445 0.06556 0.94913 0.0
O358 O 0.57037 0.07136 0.05666 0.0
Co359 Co 0.58052 0.15776 0.11969 0.0
Co360 Co 0.57223 0.09955 0.97509 0.0
H361 H 0.51978 1.03008 0.06808 0.0
O362 O 0.8116 1.03971 0.06238 0.0
O363 O 0.7374 0.92931 0.9904 0.0
O364 O 0.64087 0.95894 0.12449 0.0
O365 O 0.57041 0.96555 0.07206 0.0
O366 O 0.7066 0.11282 0.09411 0.0
O367 O 0.58443 0.23707 0.17711 0.0
O368 O 0.47768 0.13049 0.15612 0.0
O369 O 0.69647 0.20201 0.10057 0.0
O370 O 0.72382 0.13009 0.94515 0.0
O371 O 0.65337 0.13675 0.89278 0.0
O372 O 0.55683 0.16635 0.02687 0.0
O373 O 0.48263 0.05597 0.95486 0.0
C374 C 0.78362 0.8973 0.83198 0.0
C375 C 0.56217 0.91709 0.90517 0.0
C376 C 0.57648 0.94257 0.12106 0.0
C377 C 0.80206 0.98138 0.01934 0.0
C378 C 0.51059 0.19832 0.18528 0.0
C379 C 0.73206 0.17855 0.11206 0.0
C380 C 0.71776 0.15313 0.8962 0.0
C381 C 0.49218 0.11429 0.99791 0.0
O382 O 0.70979 0.85855 0.84017 0.0
O383 O 0.81654 0.96513 0.86112 0.0
O384 O 0.58763 0.98282 0.9231 0.0
O385 O 0.59775 0.89363 0.91668 0.0
Co386 Co 0.17548 0.40998 0.94632 0.0
Co387 Co 0.19714 0.49492 0.0831 0.0
Co388 Co 0.14712 0.54783 0.00862 0.0
O389 O 0.20804 0.5081 0.98363 0.0
H390 H 0.26106 0.54148 0.96579 0.0
O391 O 1.0862 0.58755 0.03361 0.0
Co392 Co 1.11876 0.68567 0.07093 0.0
Co393 Co 1.09709 0.60072 0.93415 0.0
H394 H 1.03318 0.55417 0.05145 0.0
O395 O 0.26501 0.48788 0.1068 0.0
O396 O 0.15877 0.40037 0.05281 0.0
O397 O 1.12226 0.49915 0.16803 0.0
O398 O 1.06166 0.47576 0.07905 0.0
O399 O 0.20738 0.61645 0.09196 0.0
O400 O 1.13195 0.77556 0.10291 0.0
O401 O 1.02196 0.67079 0.08891 0.0
O402 O 0.22908 0.71328 0.06844 0.0
O403 O 0.23258 0.61989 0.93819 0.0
O404 O 0.17196 0.59647 0.84921 0.0
O405 O 1.13547 0.69528 0.96443 0.0
O406 O 1.02923 0.60778 0.91045 0.0
C407 C 0.23653 0.35623 0.90636 0.0
C408 C 1.04294 0.4129 0.92653 0.0
C409 C 1.05983 0.47016 0.14564 0.0
C410 C 0.2158 0.42094 0.08353 0.0
C411 C 1.0577 0.73941 0.11089 0.0
C412 C 0.25131 0.68275 0.09072 0.0
C413 C 0.23439 0.62549 0.8716 0.0
C414 C 1.07844 0.67471 0.93372 0.0
O415 O 0.16228 0.32009 0.91433 0.0
O416 O 0.27228 0.42486 0.92833 0.0
O417 O 1.08686 0.4792 0.92528 0.0
O418 O 1.06516 0.38237 0.9488 0.0
Co419 Co 0.62337 0.39132 0.95227 0.0
Co420 Co 0.69743 0.48122 0.05869 0.0
Co421 Co 0.64713 0.5478 0.0086 0.0
O422 O 0.68896 0.49174 0.9732 0.0
H423 H 0.73693 0.51289 0.93962 0.0
O424 O 0.6053 0.60386 0.04401 0.0
Co425 Co 0.67088 0.70428 0.0649 0.0
Co426 Co 0.59682 0.61435 0.95849 0.0
H427 H 0.55734 0.58272 0.07759 0.0
O428 O 0.77144 0.47237 0.04742 0.0
O429 O 0.64161 0.38643 0.04916 0.0
O430 O 0.65591 0.51241 0.15866 0.0
O431 O 0.57534 0.49545 0.09691 0.0
O432 O 0.72818 0.6202 0.0744 0.0
O433 O 0.72579 0.79597 0.09369 0.0
O434 O 0.59876 0.71491 0.11528 0.0
O435 O 0.75836 0.70477 0.02127 0.0
O436 O 0.71892 0.60016 0.92029 0.0
O437 O 0.63833 0.58314 0.85853 0.0
O438 O 0.65264 0.70913 0.96799 0.0
O439 O 0.52279 0.62318 0.96975 0.0
C440 C 0.63331 0.32064 0.88069 0.0
C441 C 0.52103 0.41098 0.95243 0.0
C442 C 0.5889 0.49064 0.15533 0.0
C443 C 0.70822 0.41511 0.0692 0.0
C444 C 0.66095 0.77497 0.13643 0.0
C445 C 0.77322 0.68462 0.06478 0.0
C446 C 0.70536 0.60495 0.86187 0.0
C447 C 0.58602 0.68041 0.94793 0.0
O448 O 0.56846 0.29962 0.92344 0.0
O449 O 0.6955 0.38069 0.90187 0.0
O450 O 0.56608 0.4754 0.9428 0.0
O451 O 0.5359 0.39083 0.99592 0.0
Co452 Co 0.2897 0.53272 0.51333 0.0
Co453 Co 0.25035 0.49494 0.38461 0.0
Co454 Co 0.14712 0.54782 0.50861 0.0
O455 O 0.19389 0.49159 0.48012 0.0
H456 H 0.1565 0.44283 0.48716 0.0
O457 O 1.10035 0.60405 0.5371 0.0
Co458 Co 1.00453 0.56291 0.5039 0.0
Co459 Co 1.0439 0.60071 0.63261 0.0
H460 H 1.13774 0.6528 0.53005 0.0
O461 O 0.24854 0.41493 0.33366 0.0
O462 O 0.33685 0.50961 0.40556 0.0
O463 O 0.26869 0.56362 0.33281 0.0
O464 O 0.21298 0.6091 0.4283 0.0
O465 O 1.0725 0.47589 0.43903 0.0
O466 O 0.92041 0.52951 0.47063 0.0
O467 O 1.02512 0.64165 0.48345 0.0
O468 O 0.9733 0.47334 0.51482 0.0
O469 O 1.08126 0.48653 0.58892 0.0
O470 O 1.02559 0.53203 0.68443 0.0
O471 O 0.95739 0.58603 0.61168 0.0
O472 O 1.04571 0.68071 0.68357 0.0
C473 C 0.33751 0.50046 0.5531 0.0
C474 C 0.29327 0.64968 0.56043 0.0
C475 C 0.25173 0.60869 0.3626 0.0
C476 C 0.31045 0.44626 0.3623 0.0
C477 C 0.95671 0.59516 0.46414 0.0
C478 C 1.00096 0.44595 0.4568 0.0
C479 C 1.04254 0.48696 0.65463 0.0
C480 C 0.9838 0.64938 0.65494 0.0
O481 O 0.37382 0.56611 0.54662 0.0
O482 O 0.2691 0.45397 0.53379 0.0
O483 O 0.22174 0.61975 0.57819 0.0
O484 O 0.32094 0.62229 0.50242 0.0
Co485 Co 0.74384 0.97818 0.50487 0.0
Co486 Co 0.77462 1.01807 0.38331 0.0
Co487 Co 0.64711 0.04782 0.50863 0.0
O488 O 0.68967 0.98899 0.45484 0.0
H489 H 0.64923 0.94233 0.43475 0.0
O490 O 0.60455 0.10666 0.56243 0.0
Co491 Co 0.55039 0.11747 0.5124 0.0
Co492 Co 0.51959 0.07756 0.63394 0.0
H493 H 0.64499 0.15331 0.58253 0.0
O494 O 0.78327 0.95132 0.2999 0.0
O495 O 0.8251 0.98593 0.41031 0.0
O496 O 0.80488 0.11006 0.36687 0.0
O497 O 0.70239 0.11215 0.43005 0.0
O498 O 0.56247 0.97781 0.44529 0.0
O499 O 0.51008 0.13671 0.46657 0.0
O500 O 0.60442 0.21286 0.53902 0.0
O501 O 0.48755 1.01627 0.47324 0.0
O502 O 0.59183 0.98349 0.58721 0.0
O503 O 0.48933 0.98556 0.65037 0.0
O504 O 0.46912 0.10971 0.60695 0.0
O505 O 0.51094 0.1443 0.71736 0.0
C506 C 0.73539 0.89455 0.51938 0.0
C507 C 0.79223 0.12605 0.57753 0.0
C508 C 0.76546 0.13639 0.38453 0.0
C509 C 0.81511 0.94538 0.34201 0.0
C510 C 0.55884 0.20109 0.49789 0.0
C511 C 0.502 0.96959 0.43973 0.0
C512 C 0.52875 0.95924 0.63272 0.0
C513 C 0.47908 0.15023 0.67526 0.0
O514 O 0.78415 0.95894 0.5507 0.0
O515 O 0.68981 0.88279 0.47825 0.0
O516 O 0.73175 0.11783 0.57198 0.0
O517 O 0.80668 0.07938 0.54402 0.0
loop_
_geom_bond_atom_site_label_1
_geom_bond_atom_site_label_2
_geom_bond_distance
_geom_bond_site_symmetry_2
_ccdc_geom_bond_type
Eu0 C9 2.828 . S
Eu0 O11 2.392 . S
Eu0 O13 2.418 . S
Eu0 O18 2.373 . S
Eu0 O21 2.488 . S
Eu0 O22 2.471 . S
Eu0 O23 2.349 . S
Eu1 O10 2.373 . S
Eu1 O14 2.488 . S
Eu1 O15 2.471 . S
Eu1 O16 2.349 . S
Eu1 O19 2.392 . S
Eu1 O20 2.418 . S
Eu1 C30 2.828 . S
C2 O20 1.244 . S
C2 O23 1.265 . S
C3 C4 1.379 . S
C3 C7 1.373 . S
C3 C9 1.505 . S
C4 C3 1.379 . S
C4 C6 1.369 . S
C4 H32 0.930 . S
C5 C7 1.383 . S
C5 C8 1.382 . S
C5 H33 0.930 . S
C6 C4 1.369 . S
C6 C8 1.392 . S
C6 H34 0.930 . S
C7 C3 1.373 . S
C7 C5 1.383 . S
C7 H35 0.931 . S
C8 C5 1.382 . S
C8 C6 1.392 . S
C9 Eu0 2.828 . S
C9 C3 1.505 . S
C9 O21 1.249 . S
C9 O22 1.244 . S
O10 Eu1 2.373 . S
O10 C12 1.258 . S
O11 Eu0 2.392 . S
O11 C12 1.242 . S
C12 O10 1.258 . S
C12 O11 1.242 . S
O13 Eu0 2.418 . S
O13 C17 1.244 . S
O14 Eu1 2.488 . S
O14 C30 1.249 . S
O15 Eu1 2.471 . S
O15 C30 1.244 . S
O16 Eu1 2.349 . S
O16 C17 1.265 . S
C17 O13 1.244 . S
C17 O16 1.265 . S
O18 Eu0 2.373 . S
O18 C31 1.258 . S
O19 Eu1 2.392 . S
O19 C31 1.242 . S
O20 Eu1 2.418 . S
O20 C2 1.244 . S
O21 Eu0 2.488 . S
O21 C9 1.249 . S
O22 Eu0 2.471 . S
O22 C9 1.244 . S
O23 Eu0 2.349 . S
O23 C2 1.265 . S
C24 C25 1.379 . S
C24 C28 1.373 . S
C24 C30 1.505 . S
C25 C24 1.379 . S
C25 C27 1.369 . S
C25 H36 0.930 . S
C26 C28 1.383 1_655 S
C26 C29 1.382 1_655 S
C26 H37 0.930 . S
C27 C25 1.369 . S
C27 C29 1.392 . S
C27 H38 0.930 . S
C28 C24 1.373 . S
C28 C26 1.383 1_455 S
C28 H39 0.931 1_455 S
C29 C26 1.382 1_455 S
C29 C27 1.392 . S
C30 Eu1 2.828 . S
C30 O14 1.249 . S
C30 O15 1.244 . S
C30 C24 1.505 . S
C31 O18 1.258 . S
C31 O19 1.242 . S
H32 C4 0.930 . S
H33 C5 0.930 . S
H34 C6 0.930 . S
H35 C7 0.931 . S
H36 C25 0.930 . S
H37 C26 0.930 . S
H38 C27 0.930 . S
H39 C28 0.931 1_655 S
Eu40 C49 2.828 . S
Eu40 O51 2.392 . S
Eu40 O53 2.418 . S
Eu40 O58 2.373 . S
Eu40 O61 2.488 . S
Eu40 O62 2.471 . S
Eu40 O63 2.349 . S
Eu41 O50 2.373 . S
Eu41 O54 2.488 . S
Eu41 O55 2.471 . S
Eu41 O56 2.349 . S
Eu41 O59 2.392 . S
Eu41 O60 2.418 . S
Eu41 C70 2.828 . S
C42 O60 1.244 . S
C42 O63 1.265 . S
C43 C44 1.379 . S
C43 C47 1.373 . S
C43 C49 1.505 . S
C44 C43 1.379 . S
C44 C46 1.369 . S
C44 H72 0.930 . S
C45 C47 1.383 . S
C45 C48 1.382 . S
C45 H73 0.930 . S
C46 C44 1.369 . S
C46 C48 1.392 . S
C46 H74 0.930 . S
C47 C43 1.373 . S
C47 C45 1.383 . S
C47 H75 0.931 . S
C48 C45 1.382 . S
C48 C46 1.392 . S
C49 Eu40 2.828 . S
C49 C43 1.505 . S
C49 O61 1.249 . S
C49 O62 1.244 . S
O50 Eu41 2.373 . S
O50 C52 1.258 . S
O51 Eu40 2.392 . S
O51 C52 1.242 . S
C52 O50 1.258 . S
C52 O51 1.242 . S
O53 Eu40 2.418 . S
O53 C57 1.244 . S
O54 Eu41 2.488 . S
O54 C70 1.249 . S
O55 Eu41 2.471 . S
O55 C70 1.244 . S
O56 Eu41 2.349 . S
O56 C57 1.265 . S
C57 O53 1.244 . S
C57 O56 1.265 . S
O58 Eu40 2.373 . S
O58 C71 1.258 . S
O59 Eu41 2.392 . S
O59 C71 1.242 . S
O60 Eu41 2.418 . S
O60 C42 1.244 . S
O61 Eu40 2.488 . S
O61 C49 1.249 . S
O62 Eu40 2.471 . S
O62 C49 1.244 . S
O63 Eu40 2.349 . S
O63 C42 1.265 . S
C64 C65 1.379 . S
C64 C68 1.373 . S
C64 C70 1.505 . S
C65 C64 1.379 . S
C65 C67 1.369 . S
C65 H76 0.930 . S
C66 C68 1.383 . S
C66 C69 1.382 . S
C66 H77 0.930 . S
C67 C65 1.369 . S
C67 C69 1.392 . S
C67 H78 0.930 . S
C68 C64 1.373 . S
C68 C66 1.383 . S
C68 H79 0.931 . S
C69 C66 1.382 . S
C69 C67 1.392 . S
C70 Eu41 2.828 . S
C70 O54 1.249 . S
C70 O55 1.244 . S
C70 C64 1.505 . S
C71 O58 1.258 . S
C71 O59 1.242 . S
H72 C44 0.930 . S
H73 C45 0.930 . S
H74 C46 0.930 . S
H75 C47 0.931 . S
H76 C65 0.930 . S
H77 C66 0.930 . S
H78 C67 0.930 . S
H79 C68 0.931 . S
Eu80 C89 2.828 . S
Eu80 O91 2.392 . S
Eu80 O93 2.418 . S
Eu80 O98 2.373 . S
Eu80 O101 2.488 . S
Eu80 O102 2.471 . S
Eu80 O103 2.349 . S
Eu81 O90 2.373 . S
Eu81 O94 2.488 . S
Eu81 O95 2.471 . S
Eu81 O96 2.349 . S
Eu81 O99 2.392 . S
Eu81 O100 2.418 . S
Eu81 C110 2.828 . S
C82 O100 1.244 . S
C82 O103 1.265 . S
C83 C84 1.379 . S
C83 C87 1.373 . S
C83 C89 1.505 . S
C84 C83 1.379 . S
C84 C86 1.369 . S
C84 H112 0.930 . S
C85 C87 1.383 . S
C85 C88 1.382 . S
C85 H113 0.930 1_565 S
C86 C84 1.369 . S
C86 C88 1.392 . S
C86 H114 0.930 . S
C87 C83 1.373 . S
C87 C85 1.383 . S
C87 H115 0.931 . S
C88 C85 1.382 . S
C88 C86 1.392 . S
C89 Eu80 2.828 . S
C89 C83 1.505 . S
C89 O101 1.249 . S
C89 O102 1.244 . S
O90 Eu81 2.373 . S
O90 C92 1.258 . S
O91 Eu80 2.392 . S
O91 C92 1.242 . S
C92 O90 1.258 . S
C92 O91 1.242 . S
O93 Eu80 2.418 . S
O93 C97 1.244 . S
O94 Eu81 2.488 . S
O94 C110 1.249 . S
O95 Eu81 2.471 . S
O95 C110 1.244 . S
O96 Eu81 2.349 . S
O96 C97 1.265 . S
C97 O93 1.244 . S
C97 O96 1.265 . S
O98 Eu80 2.373 . S
O98 C111 1.258 . S
O99 Eu81 2.392 . S
O99 C111 1.242 . S
O100 Eu81 2.418 . S
O100 C82 1.244 . S
O101 Eu80 2.488 . S
O101 C89 1.249 . S
O102 Eu80 2.471 . S
O102 C89 1.244 . S
O103 Eu80 2.349 . S
O103 C82 1.265 . S
C104 C105 1.379 . S
C104 C108 1.373 . S
C104 C110 1.505 . S
C105 C104 1.379 . S
C105 C107 1.369 . S
C105 H116 0.930 . S
C106 C108 1.383 . S
C106 C109 1.382 . S
C106 H117 0.930 . S
C107 C105 1.369 . S
C107 C109 1.392 . S
C107 H118 0.930 . S
C108 C104 1.373 . S
C108 C106 1.383 . S
C108 H119 0.931 . S
C109 C106 1.382 . S
C109 C107 1.392 . S
C110 Eu81 2.828 . S
C110 O94 1.249 . S
C110 O95 1.244 . S
C110 C104 1.505 . S
C111 O98 1.258 . S
C111 O99 1.242 . S
H112 C84 0.930 . S
H113 C85 0.930 1_545 S
H114 C86 0.930 . S
H115 C87 0.931 . S
H116 C105 0.930 . S
H117 C106 0.930 . S
H118 C107 0.930 . S
H119 C108 0.931 . S
Eu120 C129 2.828 . S
Eu120 O131 2.392 . S
Eu120 O133 2.418 . S
Eu120 O138 2.373 . S
Eu120 O141 2.488 . S
Eu120 O142 2.471 . S
Eu120 O143 2.349 . S
Eu121 O130 2.373 . S
Eu121 O134 2.488 . S
Eu121 O135 2.471 . S
Eu121 O136 2.349 . S
Eu121 O139 2.392 . S
Eu121 O140 2.418 . S
Eu121 C150 2.828 . S
C122 O140 1.244 . S
C122 O143 1.265 . S
C123 C124 1.381 . S
C123 C127 1.373 . S
C123 C129 1.505 . S
C124 C123 1.381 . S
C124 C126 1.368 1_554 S
C124 H152 0.929 1_554 S
C125 C127 1.383 . S
C125 C128 1.382 1_554 S
C125 H153 0.930 . S
C126 C124 1.368 1_556 S
C126 C128 1.392 . S
C126 H154 0.930 . S
C127 C123 1.373 . S
C127 C125 1.383 . S
C127 H155 0.931 . S
C128 C125 1.382 1_556 S
C128 C126 1.392 . S
C129 Eu120 2.828 . S
C129 C123 1.505 . S
C129 O141 1.249 . S
C129 O142 1.244 . S
O130 Eu121 2.373 . S
O130 C132 1.258 . S
O131 Eu120 2.392 . S
O131 C132 1.242 . S
C132 O130 1.258 . S
C132 O131 1.242 . S
O133 Eu120 2.418 . S
O133 C137 1.244 . S
O134 Eu121 2.488 . S
O134 C150 1.249 . S
O135 Eu121 2.471 . S
O135 C150 1.244 . S
O136 Eu121 2.349 . S
O136 C137 1.265 . S
C137 O133 1.244 . S
C137 O136 1.265 . S
O138 Eu120 2.373 . S
O138 C151 1.258 . S
O139 Eu121 2.392 . S
O139 C151 1.242 . S
O140 Eu121 2.418 . S
O140 C122 1.244 . S
O141 Eu120 2.488 . S
O141 C129 1.249 . S
O142 Eu120 2.471 . S
O142 C129 1.244 . S
O143 Eu120 2.349 . S
O143 C122 1.265 . S
C144 C145 1.379 . S
C144 C148 1.373 . S
C144 C150 1.505 . S
C145 C144 1.379 . S
C145 C147 1.369 . S
C145 H156 0.930 . S
C146 C148 1.400 . S
C146 C149 1.386 . S
C146 H157 0.910 1_455 S
C147 C145 1.369 . S
C147 C149 1.392 . S
C147 H158 0.930 . S
C148 C144 1.373 . S
C148 C146 1.400 . S
C148 H159 0.931 . S
C149 C146 1.386 . S
C149 C147 1.392 . S
C150 Eu121 2.828 . S
C150 O134 1.249 . S
C150 O135 1.244 . S
C150 C144 1.505 . S
C151 O138 1.258 . S
C151 O139 1.242 . S
H152 C124 0.929 1_556 S
H153 C125 0.930 . S
H154 C126 0.930 . S
H155 C127 0.931 . S
H156 C145 0.930 . S
H157 C146 0.910 1_655 S
H158 C147 0.930 . S
H159 C148 0.931 . S
Eu160 C169 2.828 . S
Eu160 O171 2.392 . S
Eu160 O173 2.418 . S
Eu160 O178 2.373 . S
Eu160 O181 2.488 . S
Eu160 O182 2.471 . S
Eu160 O183 2.349 . S
Eu161 O170 2.373 . S
Eu161 O174 2.488 . S
Eu161 O175 2.471 . S
Eu161 O176 2.349 . S
Eu161 O179 2.392 . S
Eu161 O180 2.418 . S
Eu161 C190 2.828 . S
C162 O180 1.244 . S
C162 O183 1.265 . S
C163 C164 1.379 . S
C163 C167 1.373 . S
C163 C169 1.505 . S
C164 C163 1.379 . S
C164 C166 1.369 . S
C164 H192 0.930 . S
C165 C167 1.383 . S
C165 C168 1.382 . S
C165 H193 0.930 . S
C166 C164 1.369 . S
C166 C168 1.392 . S
C166 H194 0.930 . S
C167 C163 1.373 . S
C167 C165 1.383 . S
C167 H195 0.931 . S
C168 C165 1.382 . S
C168 C166 1.392 . S
C169 Eu160 2.828 . S
C169 C163 1.505 . S
C169 O181 1.249 . S
C169 O182 1.244 . S
O170 Eu161 2.373 . S
O170 C172 1.258 . S
O171 Eu160 2.392 . S
O171 C172 1.242 . S
C172 O170 1.258 . S
C172 O171 1.242 . S
O173 Eu160 2.418 . S
O173 C177 1.244 . S
O174 Eu161 2.488 . S
O174 C190 1.249 . S
O175 Eu161 2.471 . S
O175 C190 1.244 . S
O176 Eu161 2.349 . S
O176 C177 1.265 . S
C177 O173 1.244 . S
C177 O176 1.265 . S
O178 Eu160 2.373 . S
O178 C191 1.258 . S
O179 Eu161 2.392 . S
O179 C191 1.242 . S
O180 Eu161 2.418 . S
O180 C162 1.244 . S
O181 Eu160 2.488 . S
O181 C169 1.249 . S
O182 Eu160 2.471 . S
O182 C169 1.244 . S
O183 Eu160 2.349 . S
O183 C162 1.265 . S
C184 C185 1.379 . S
C184 C188 1.373 . S
C184 C190 1.505 . S
C185 C184 1.379 . S
C185 C187 1.369 . S
C185 H196 0.930 . S
C186 C188 1.383 . S
C186 C189 1.382 . S
C186 H197 0.930 . S
C187 C185 1.369 . S
C187 C189 1.392 . S
C187 H198 0.930 . S
C188 C184 1.373 . S
C188 C186 1.383 . S
C188 H199 0.931 . S
C189 C186 1.382 . S
C189 C187 1.392 . S
C190 Eu161 2.828 . S
C190 O174 1.249 . S
C190 O175 1.244 . S
C190 C184 1.505 . S
C191 O178 1.258 . S
C191 O179 1.242 . S
H192 C164 0.930 . S
H193 C165 0.930 . S
H194 C166 0.930 . S
H195 C167 0.931 . S
H196 C185 0.930 . S
H197 C186 0.930 . S
H198 C187 0.930 . S
H199 C188 0.931 . S
Eu200 C209 2.828 . S
Eu200 O211 2.392 . S
Eu200 O213 2.418 . S
Eu200 O218 2.373 . S
Eu200 O221 2.488 . S
Eu200 O222 2.471 . S
Eu200 O223 2.349 . S
Eu201 O210 2.373 . S
Eu201 O214 2.488 . S
Eu201 O215 2.471 . S
Eu201 O216 2.349 . S
Eu201 O219 2.392 . S
Eu201 O220 2.418 . S
Eu201 C230 2.828 . S
C202 O220 1.244 . S
C202 O223 1.265 . S
C203 C204 1.379 . S
C203 C207 1.373 . S
C203 C209 1.505 . S
C204 C203 1.379 . S
C204 C206 1.369 . S
C204 H232 0.930 . S
C205 C207 1.383 . S
C205 C208 1.382 . S
C205 H233 0.930 . S
C206 C204 1.369 . S
C206 C208 1.392 . S
C206 H234 0.930 . S
C207 C203 1.373 . S
C207 C205 1.383 . S
C207 H235 0.931 . S
C208 C205 1.382 . S
C208 C206 1.392 . S
C209 Eu200 2.828 . S
C209 C203 1.505 . S
C209 O221 1.249 . S
C209 O222 1.244 . S
O210 Eu201 2.373 . S
O210 C212 1.258 . S
O211 Eu200 2.392 . S
O211 C212 1.242 . S
C212 O210 1.258 . S
C212 O211 1.242 . S
O213 Eu200 2.418 . S
O213 C217 1.244 . S
O214 Eu201 2.488 . S
O214 C230 1.249 . S
O215 Eu201 2.471 . S
O215 C230 1.244 . S
O216 Eu201 2.349 . S
O216 C217 1.265 . S
C217 O213 1.244 . S
C217 O216 1.265 . S
O218 Eu200 2.373 . S
O218 C231 1.258 . S
O219 Eu201 2.392 . S
O219 C231 1.242 . S
O220 Eu201 2.418 . S
O220 C202 1.244 . S
O221 Eu200 2.488 . S
O221 C209 1.249 . S
O222 Eu200 2.471 . S
O222 C209 1.244 . S
O223 Eu200 2.349 . S
O223 C202 1.265 . S
C224 C225 1.379 . S
C224 C228 1.373 . S
C224 C230 1.505 . S
C225 C224 1.379 . S
C225 C227 1.369 . S
C225 H236 0.930 . S
C226 C228 1.383 . S
C226 C229 1.382 . S
C226 H237 0.930 1_545 S
C227 C225 1.369 . S
C227 C229 1.392 . S
C227 H238 0.930 . S
C228 C224 1.373 . S
C228 C226 1.383 . S
C228 H239 0.931 . S
C229 C226 1.382 . S
C229 C227 1.392 . S
C230 Eu201 2.828 . S
C230 O214 1.249 . S
C230 O215 1.244 . S
C230 C224 1.505 . S
C231 O218 1.258 . S
C231 O219 1.242 . S
H232 C204 0.930 . S
H233 C205 0.930 . S
H234 C206 0.930 . S
H235 C207 0.931 . S
H236 C225 0.930 . S
H237 C226 0.930 1_565 S
H238 C227 0.930 . S
H239 C228 0.931 . S
Eu240 C249 2.828 . S
Eu240 O251 2.392 . S
Eu240 O253 2.418 . S
Eu240 O258 2.373 . S
Eu240 O261 2.488 . S
Eu240 O262 2.471 . S
Eu240 O263 2.349 . S
Eu241 O250 2.373 . S
Eu241 O254 2.488 . S
Eu241 O255 2.471 . S
Eu241 O256 2.349 . S
Eu241 O259 2.392 . S
Eu241 O260 2.418 . S
Eu241 C270 2.828 . S
C242 O260 1.244 . S
C242 O263 1.265 . S
C243 C244 1.379 . S
C243 C247 1.373 . S
C243 C249 1.505 . S
C244 C243 1.379 . S
C244 C246 1.369 . S
C244 H272 0.930 . S
C245 C247 1.388 . S
C245 C248 1.383 . S
C245 H273 0.924 1_655 S
C246 C244 1.369 . S
C246 C248 1.392 . S
C246 H274 0.930 . S
C247 C243 1.373 . S
C247 C245 1.388 . S
C247 H275 0.931 . S
C248 C245 1.383 . S
C248 C246 1.392 . S
C249 Eu240 2.828 . S
C249 C243 1.505 . S
C249 O261 1.249 . S
C249 O262 1.244 . S
O250 Eu241 2.373 . S
O250 C252 1.258 . S
O251 Eu240 2.392 . S
O251 C252 1.242 . S
C252 O250 1.258 . S
C252 O251 1.242 . S
O253 Eu240 2.418 . S
O253 C257 1.244 . S
O254 Eu241 2.488 . S
O254 C270 1.249 . S
O255 Eu241 2.471 . S
O255 C270 1.244 . S
O256 Eu241 2.349 . S
O256 C257 1.265 . S
C257 O253 1.244 . S
C257 O256 1.265 . S
O258 Eu240 2.373 . S
O258 C271 1.258 . S
O259 Eu241 2.392 . S
O259 C271 1.242 . S
O260 Eu241 2.418 . S
O260 C242 1.244 . S
O261 Eu240 2.488 . S
O261 C249 1.249 . S
O262 Eu240 2.471 . S
O262 C249 1.244 . S
O263 Eu240 2.349 . S
O263 C242 1.265 . S
C264 C265 1.379 . S
C264 C268 1.373 . S
C264 C270 1.505 . S
C265 C264 1.379 . S
C265 C267 1.369 1_556 S
C265 H276 0.930 1_556 S
C266 C268 1.383 . S
C266 C269 1.382 1_556 S
C266 H277 0.930 . S
C267 C265 1.369 1_554 S
C267 C269 1.392 . S
C267 H278 0.930 . S
C268 C264 1.373 . S
C268 C266 1.383 . S
C268 H279 0.931 . S
C269 C266 1.382 1_554 S
C269 C267 1.392 . S
C270 Eu241 2.828 . S
C270 O254 1.249 . S
C270 O255 1.244 . S
C270 C264 1.505 . S
C271 O258 1.258 . S
C271 O259 1.242 . S
H272 C244 0.930 . S
H273 C245 0.924 1_455 S
H274 C246 0.930 . S
H275 C247 0.931 . S
H276 C265 0.930 1_554 S
H277 C266 0.930 . S
H278 C267 0.930 . S
H279 C268 0.931 . S
Eu280 C289 2.828 . S
Eu280 O291 2.392 . S
Eu280 O293 2.418 . S
Eu280 O298 2.373 . S
Eu280 O301 2.488 . S
Eu280 O302 2.471 . S
Eu280 O303 2.349 . S
Eu281 O290 2.373 . S
Eu281 O294 2.488 . S
Eu281 O295 2.471 . S
Eu281 O296 2.349 . S
Eu281 O299 2.392 . S
Eu281 O300 2.418 . S
Eu281 C310 2.828 . S
C282 O300 1.244 . S
C282 O303 1.265 . S
C283 C284 1.379 . S
C283 C287 1.373 . S
C283 C289 1.505 . S
C284 C283 1.379 . S
C284 C286 1.369 . S
C284 H312 0.930 . S
C285 C287 1.383 1_455 S
C285 C288 1.382 1_455 S
C285 H313 0.930 . S
C286 C284 1.369 . S
C286 C288 1.392 . S
C286 H314 0.930 . S
C287 C283 1.373 . S
C287 C285 1.383 1_655 S
C287 H315 0.931 1_655 S
C288 C285 1.382 1_655 S
C288 C286 1.392 . S
C289 Eu280 2.828 . S
C289 C283 1.505 . S
C289 O301 1.249 . S
C289 O302 1.244 . S
O290 Eu281 2.373 . S
O290 C292 1.258 . S
O291 Eu280 2.392 . S
O291 C292 1.242 . S
C292 O290 1.258 . S
C292 O291 1.242 . S
O293 Eu280 2.418 . S
O293 C297 1.244 . S
O294 Eu281 2.488 . S
O294 C310 1.249 . S
O295 Eu281 2.471 . S
O295 C310 1.244 . S
O296 Eu281 2.349 . S
O296 C297 1.265 . S
C297 O293 1.244 . S
C297 O296 1.265 . S
O298 Eu280 2.373 . S
O298 C311 1.258 . S
O299 Eu281 2.392 . S
O299 C311 1.242 . S
O300 Eu281 2.418 . S
O300 C282 1.244 . S
O301 Eu280 2.488 . S
O301 C289 1.249 . S
O302 Eu280 2.471 . S
O302 C289 1.244 . S
O303 Eu280 2.349 . S
O303 C282 1.265 . S
C304 C305 1.379 . S
C304 C308 1.373 . S
C304 C310 1.505 . S
C305 C304 1.379 . S
C305 C307 1.369 . S
C305 H316 0.930 . S
C306 C308 1.383 . S
C306 C309 1.382 . S
C306 H317 0.930 . S
C307 C305 1.369 . S
C307 C309 1.392 . S
C307 H318 0.930 . S
C308 C304 1.373 . S
C308 C306 1.383 . S
C308 H319 0.931 . S
C309 C306 1.382 . S
C309 C307 1.392 . S
C310 Eu281 2.828 . S
C310 O294 1.249 . S
C310 O295 1.244 . S
C310 C304 1.505 . S
C311 O298 1.258 . S
C311 O299 1.242 . S
H312 C284 0.930 . S
H313 C285 0.930 . S
H314 C286 0.930 . S
H315 C287 0.931 1_455 S
H316 C305 0.930 . S
H317 C306 0.930 . S
H318 C307 0.930 . S
H319 C308 0.931 . S
Co320 O323 2.042 . S
Co320 O330 2.264 . S
Co320 O349 2.286 . S
Co320 O350 2.069 . S
Co320 O352 2.015 1_455 S
Co321 O323 2.122 . S
Co321 O329 2.073 . S
Co321 O330 2.327 . S
Co321 O331 1.976 1_455 S
Co322 O323 2.080 1_545 S
Co322 O325 2.094 1_455 S
Co322 O332 2.107 1_445 S
Co322 O333 2.149 . S
Co322 O337 2.116 . S
Co322 O351 2.138 1_445 S
O323 Co320 2.042 . S
O323 Co321 2.122 . S
O323 Co322 2.080 1_565 S
O323 H324 0.982 . S
H324 O323 0.982 . S
O325 Co322 2.094 1_655 S
O325 Co326 2.042 . S
O325 Co327 2.122 . S
O325 H328 0.980 . S
Co326 O325 2.042 . S
Co326 O334 2.286 . S
Co326 O335 2.069 . S
Co326 O336 2.015 1_655 S
Co326 O339 2.264 . S
Co327 O325 2.122 . S
Co327 O338 1.976 1_655 S
Co327 O339 2.327 . S
Co327 O340 2.073 . S
H328 O325 0.980 . S
O329 Co321 2.073 . S
O329 C344 1.245 . S
O330 Co320 2.264 . S
O330 Co321 2.327 . S
O330 C344 1.257 . S
O331 Co321 1.976 1_655 S
O331 C343 1.251 . S
O332 Co322 2.107 1_665 S
O332 C343 1.274 . S
O333 Co322 2.149 . S
O333 C346 1.246 . S
O334 Co326 2.286 . S
O334 C345 1.259 . S
O335 Co326 2.069 . S
O335 C345 1.289 . S
O336 Co326 2.015 1_455 S
O336 C346 1.257 . S
O337 Co322 2.116 . S
O337 C347 1.274 . S
O338 Co327 1.976 1_455 S
O338 C347 1.251 . S
O339 Co326 2.264 . S
O339 Co327 2.327 . S
O339 C348 1.257 . S
O340 Co327 2.073 . S
O340 C348 1.245 . S
C341 O349 1.259 . S
C341 O350 1.289 . S
C342 O351 1.246 . S
C342 O352 1.257 . S
C343 O331 1.251 . S
C343 O332 1.274 . S
C344 O329 1.245 . S
C344 O330 1.257 . S
C345 O334 1.259 . S
C345 O335 1.289 . S
C346 O333 1.246 . S
C346 O336 1.257 . S
C347 O337 1.274 . S
C347 O338 1.251 . S
C348 O339 1.257 . S
C348 O340 1.245 . S
O349 Co320 2.286 . S
O349 C341 1.259 . S
O350 Co320 2.069 . S
O350 C341 1.289 . S
O351 Co322 2.138 1_665 S
O351 C342 1.246 . S
O352 Co320 2.015 1_655 S
O352 C342 1.257 . S
Co353 O356 2.042 1_556 S
Co353 O363 2.264 1_556 S
Co353 O382 2.286 . S
Co353 O383 2.069 . S
Co353 O385 2.015 . S
Co354 O356 2.122 . S
Co354 O362 2.073 . S
Co354 O363 2.327 . S
Co354 O364 1.976 . S
Co355 O356 2.075 1_545 S
Co355 O358 2.098 1_554 S
Co355 O365 2.109 1_545 S
Co355 O366 2.148 . S
Co355 O370 2.114 1_554 S
Co355 O384 2.139 1_544 S
O356 Co353 2.042 1_554 S
O356 Co354 2.122 . S
O356 Co355 2.075 1_565 S
O356 H357 0.977 1_565 S
H357 O356 0.977 1_545 S
O358 Co355 2.098 1_556 S
O358 Co359 2.042 1_556 S
O358 Co360 2.122 . S
O358 H361 0.981 . S
Co359 O358 2.042 1_554 S
Co359 O367 2.286 . S
Co359 O368 2.069 . S
Co359 O369 2.015 . S
Co359 O372 2.264 1_554 S
Co360 O358 2.122 . S
Co360 O371 1.976 . S
Co360 O372 2.327 . S
Co360 O373 2.073 . S
H361 O358 0.981 . S
O362 Co354 2.073 . S
O362 C377 1.245 . S
O363 Co353 2.264 1_554 S
O363 Co354 2.327 . S
O363 C377 1.257 . S
O364 Co354 1.976 . S
O364 C376 1.251 . S
O365 Co355 2.109 1_565 S
O365 C376 1.274 . S
O366 Co355 2.148 . S
O366 C379 1.246 . S
O367 Co359 2.286 . S
O367 C378 1.259 . S
O368 Co359 2.069 . S
O368 C378 1.289 . S
O369 Co359 2.015 . S
O369 C379 1.257 . S
O370 Co355 2.114 1_556 S
O370 C380 1.274 . S
O371 Co360 1.976 . S
O371 C380 1.251 . S
O372 Co359 2.264 1_556 S
O372 Co360 2.327 . S
O372 C381 1.257 . S
O373 Co360 2.073 . S
O373 C381 1.245 . S
C374 O382 1.259 . S
C374 O383 1.289 . S
C375 O384 1.246 . S
C375 O385 1.257 . S
C376 O364 1.251 . S
C376 O365 1.274 . S
C377 O362 1.245 . S
C377 O363 1.257 . S
C378 O367 1.259 . S
C378 O368 1.289 . S
C379 O366 1.246 . S
C379 O369 1.257 . S
C380 O370 1.274 . S
C380 O371 1.251 . S
C381 O372 1.257 . S
C381 O373 1.245 . S
O382 Co353 2.286 . S
O382 C374 1.259 . S
O383 Co353 2.069 . S
O383 C374 1.289 . S
O384 Co355 2.139 1_566 S
O384 C375 1.246 . S
O385 Co353 2.015 . S
O385 C375 1.257 . S
Co386 O389 2.042 1_556 S
Co386 O396 2.264 1_556 S
Co386 O415 2.286 . S
Co386 O416 2.069 . S
Co386 O418 2.015 1_455 S
Co387 O389 2.122 . S
Co387 O395 2.073 . S
Co387 O396 2.327 . S
Co387 O397 1.976 1_455 S
Co388 O389 2.092 . S
Co388 O391 2.082 1_454 S
Co388 O398 2.109 1_455 S
Co388 O399 2.145 . S
Co388 O403 2.113 1_554 S
Co388 O417 2.142 1_454 S
O389 Co386 2.042 1_554 S
O389 Co387 2.122 . S
O389 Co388 2.092 . S
O389 H390 0.980 . S
H390 O389 0.980 . S
O391 Co388 2.082 1_656 S
O391 Co392 2.042 1_556 S
O391 Co393 2.122 . S
O391 H394 0.980 . S
Co392 O391 2.042 1_554 S
Co392 O400 2.286 . S
Co392 O401 2.069 . S
Co392 O402 2.015 1_655 S
Co392 O405 2.264 1_554 S
Co393 O391 2.122 . S
Co393 O404 1.976 1_655 S
Co393 O405 2.327 . S
Co393 O406 2.073 . S
H394 O391 0.980 . S
O395 Co387 2.073 . S
O395 C410 1.245 . S
O396 Co386 2.264 1_554 S
O396 Co387 2.327 . S
O396 C410 1.257 . S
O397 Co387 1.976 1_655 S
O397 C409 1.251 . S
O398 Co388 2.109 1_655 S
O398 C409 1.274 . S
O399 Co388 2.145 . S
O399 C412 1.246 . S
O400 Co392 2.286 . S
O400 C411 1.259 . S
O401 Co392 2.069 . S
O401 C411 1.289 . S
O402 Co392 2.015 1_455 S
O402 C412 1.257 . S
O403 Co388 2.113 1_556 S
O403 C413 1.274 . S
O404 Co393 1.976 1_455 S
O404 C413 1.251 . S
O405 Co392 2.264 1_556 S
O405 Co393 2.327 . S
O405 C414 1.257 . S
O406 Co393 2.073 . S
O406 C414 1.245 . S
C407 O415 1.259 . S
C407 O416 1.289 . S
C408 O417 1.246 . S
C408 O418 1.257 . S
C409 O397 1.251 . S
C409 O398 1.274 . S
C410 O395 1.245 . S
C410 O396 1.257 . S
C411 O400 1.259 . S
C411 O401 1.289 . S
C412 O399 1.246 . S
C412 O402 1.257 . S
C413 O403 1.274 . S
C413 O404 1.251 . S
C414 O405 1.257 . S
C414 O406 1.245 . S
O415 Co386 2.286 . S
O415 C407 1.259 . S
O416 Co386 2.069 . S
O416 C407 1.289 . S
O417 Co388 2.142 1_656 S
O417 C408 1.246 . S
O418 Co386 2.015 1_655 S
O418 C408 1.257 . S
Co419 O422 2.042 1_556 S
Co419 O429 2.264 1_556 S
Co419 O448 2.286 . S
Co419 O449 2.069 . S
Co419 O451 2.015 . S
Co420 O422 2.122 . S
Co420 O428 2.073 . S
Co420 O429 2.327 . S
Co420 O430 1.976 . S
Co421 O422 2.087 . S
Co421 O424 2.087 1_554 S
Co421 O431 2.111 . S
Co421 O432 2.143 . S
Co421 O436 2.111 1_554 S
Co421 O450 2.143 1_554 S
O422 Co419 2.042 1_554 S
O422 Co420 2.122 . S
O422 Co421 2.087 . S
O422 H423 0.980 . S
H423 O422 0.980 . S
O424 Co421 2.087 1_556 S
O424 Co425 2.042 1_556 S
O424 Co426 2.122 . S
O424 H427 0.980 . S
Co425 O424 2.042 1_554 S
Co425 O433 2.286 . S
Co425 O434 2.069 . S
Co425 O435 2.015 . S
Co425 O438 2.264 1_554 S
Co426 O424 2.122 . S
Co426 O437 1.976 . S
Co426 O438 2.327 . S
Co426 O439 2.073 . S
H427 O424 0.980 . S
O428 Co420 2.073 . S
O428 C443 1.245 . S
O429 Co419 2.264 1_554 S
O429 Co420 2.327 . S
O429 C443 1.257 . S
O430 Co420 1.976 . S
O430 C442 1.251 . S
O431 Co421 2.111 . S
O431 C442 1.274 . S
O432 Co421 2.143 . S
O432 C445 1.246 . S
O433 Co425 2.286 . S
O433 C444 1.259 . S
O434 Co425 2.069 . S
O434 C444 1.289 . S
O435 Co425 2.015 . S
O435 C445 1.257 . S
O436 Co421 2.111 1_556 S
O436 C446 1.274 . S
O437 Co426 1.976 . S
O437 C446 1.251 . S
O438 Co425 2.264 1_556 S
O438 Co426 2.327 . S
O438 C447 1.257 . S
O439 Co426 2.073 . S
O439 C447 1.245 . S
C440 O448 1.259 . S
C440 O449 1.289 . S
C441 O450 1.246 . S
C441 O451 1.257 . S
C442 O430 1.251 . S
C442 O431 1.274 . S
C443 O428 1.245 . S
C443 O429 1.257 . S
C444 O433 1.259 . S
C444 O434 1.289 . S
C445 O432 1.246 . S
C445 O435 1.257 . S
C446 O436 1.274 . S
C446 O437 1.251 . S
C447 O438 1.257 . S
C447 O439 1.245 . S
O448 Co419 2.286 . S
O448 C440 1.259 . S
O449 Co419 2.069 . S
O449 C440 1.289 . S
O450 Co421 2.143 1_556 S
O450 C441 1.246 . S
O451 Co419 2.015 . S
O451 C441 1.257 . S
Co452 O455 2.042 . S
Co452 O462 2.264 . S
Co452 O481 2.286 . S
Co452 O482 2.069 . S
Co452 O484 2.015 . S
Co453 O455 2.122 . S
Co453 O461 2.073 . S
Co453 O462 2.327 . S
Co453 O463 1.976 . S
Co454 O455 2.092 . S
Co454 O457 2.082 1_455 S
Co454 O464 2.112 . S
Co454 O465 2.141 1_455 S
Co454 O469 2.111 1_455 S
Co454 O483 2.146 . S
O455 Co452 2.042 . S
O455 Co453 2.122 . S
O455 Co454 2.092 . S
O455 H456 0.980 . S
H456 O455 0.980 . S
O457 Co454 2.082 1_655 S
O457 Co458 2.042 . S
O457 Co459 2.122 . S
O457 H460 0.980 . S
Co458 O457 2.042 . S
Co458 O466 2.286 . S
Co458 O467 2.069 . S
Co458 O468 2.015 . S
Co458 O471 2.264 . S
Co459 O457 2.122 . S
Co459 O470 1.976 . S
Co459 O471 2.327 . S
Co459 O472 2.073 . S
H460 O457 0.980 . S
O461 Co453 2.073 . S
O461 C476 1.245 . S
O462 Co452 2.264 . S
O462 Co453 2.327 . S
O462 C476 1.257 . S
O463 Co453 1.976 . S
O463 C475 1.251 . S
O464 Co454 2.112 . S
O464 C475 1.274 . S
O465 Co454 2.141 1_655 S
O465 C478 1.246 . S
O466 Co458 2.286 . S
O466 C477 1.259 . S
O467 Co458 2.069 . S
O467 C477 1.289 . S
O468 Co458 2.015 . S
O468 C478 1.257 . S
O469 Co454 2.111 1_655 S
O469 C479 1.274 . S
O470 Co459 1.976 . S
O470 C479 1.251 . S
O471 Co458 2.264 . S
O471 Co459 2.327 . S
O471 C480 1.257 . S
O472 Co459 2.073 . S
O472 C480 1.245 . S
C473 O481 1.259 . S
C473 O482 1.289 . S
C474 O483 1.246 . S
C474 O484 1.257 . S
C475 O463 1.251 . S
C475 O464 1.274 . S
C476 O461 1.245 . S
C476 O462 1.257 . S
C477 O466 1.259 . S
C477 O467 1.289 . S
C478 O465 1.246 . S
C478 O468 1.257 . S
C479 O469 1.274 . S
C479 O470 1.251 . S
C480 O471 1.257 . S
C480 O472 1.245 . S
O481 Co452 2.286 . S
O481 C473 1.259 . S
O482 Co452 2.069 . S
O482 C473 1.289 . S
O483 Co454 2.146 . S
O483 C474 1.246 . S
O484 Co452 2.015 . S
O484 C474 1.257 . S
Co485 O488 2.042 . S
Co485 O495 2.264 . S
Co485 O514 2.286 . S
Co485 O515 2.069 . S
Co485 O517 2.015 1_565 S
Co486 O488 2.122 . S
Co486 O494 2.073 . S
Co486 O495 2.327 . S
Co486 O496 1.976 1_565 S
Co487 O488 2.076 1_545 S
Co487 O490 2.098 . S
Co487 O497 2.118 . S
Co487 O498 2.142 1_545 S
Co487 O502 2.105 1_545 S
Co487 O516 2.145 . S
O488 Co485 2.042 . S
O488 Co486 2.122 . S
O488 Co487 2.076 1_565 S
O488 H489 0.980 . S
H489 O488 0.980 . S
O490 Co487 2.098 . S
O490 Co491 2.042 . S
O490 Co492 2.122 . S
O490 H493 0.980 . S
Co491 O490 2.042 . S
Co491 O499 2.286 . S
Co491 O500 2.069 . S
Co491 O501 2.015 1_545 S
Co491 O504 2.264 . S
Co492 O490 2.122 . S
Co492 O503 1.976 1_545 S
Co492 O504 2.327 . S
Co492 O505 2.073 . S
H493 O490 0.980 . S
O494 Co486 2.073 . S
O494 C509 1.245 . S
O495 Co485 2.264 . S
O495 Co486 2.327 . S
O495 C509 1.257 . S
O496 Co486 1.976 1_545 S
O496 C508 1.251 . S
O497 Co487 2.118 . S
O497 C508 1.274 . S
O498 Co487 2.142 1_565 S
O498 C511 1.246 . S
O499 Co491 2.286 . S
O499 C510 1.259 . S
O500 Co491 2.069 . S
O500 C510 1.289 . S
O501 Co491 2.015 1_565 S
O501 C511 1.257 . S
O502 Co487 2.105 1_565 S
O502 C512 1.274 . S
O503 Co492 1.976 1_565 S
O503 C512 1.251 . S
O504 Co491 2.264 . S
O504 Co492 2.327 . S
O504 C513 1.257 . S
O505 Co492 2.073 . S
O505 C513 1.245 . S
C506 O514 1.259 . S
C506 O515 1.289 . S
C507 O516 1.246 . S
C507 O517 1.257 . S
C508 O496 1.251 . S
C508 O497 1.274 . S
C509 O494 1.245 . S
C509 O495 1.257 . S
C510 O499 1.259 . S
C510 O500 1.289 . S
C511 O498 1.246 . S
C511 O501 1.257 . S
C512 O502 1.274 . S
C512 O503 1.251 . S
C513 O504 1.257 . S
C513 O505 1.245 . S
O514 Co485 2.286 . S
O514 C506 1.259 . S
O515 Co485 2.069 . S
O515 C506 1.289 . S
O516 Co487 2.145 . S
O516 C507 1.246 . S
O517 Co485 2.015 1_545 S
O517 C507 1.257 . S
C347 C2 2.208 . S
C348 C48 1.926 . S
C342 C97 2.643 . S
C149 C341 2.562 . S
C189 C344 1.926 . S
C346 C202 2.643 . S
C248 C345 2.562 . S
C297 C343 2.208 . S
C378 C31 4.347 . S
C52 C409 2.017 . S
C377 C88 2.176 . S
C412 C122 1.431 . S
C162 C375 2.422 . S
C407 C231 4.245 . S
C252 C380 1.600 . S
C288 C414 2.141 . S
C29 C410 2.142 . S
C191 C413 2.018 . S
C381 C229 2.176 . S
C408 C257 1.432 . S
C292 C374 4.347 . S
C92 C411 4.246 . S
C376 C151 1.599 . S
C57 C379 2.422 . S
C282 C446 2.054 . S
C168 C447 2.102 . S
C441 C217 2.172 . S
C440 C269 2.837 1_556 S
C69 C443 2.102 . S
C445 C82 2.171 . S
C128 C444 2.838 1_556 S
C17 C442 2.052 . S
C311 C480 4.435 . S
C512 C172 1.869 . S
C208 C473 1.305 . S
C242 C507 1.955 . S
C478 C42 1.194 . S
C111 C509 4.605 . S
C475 C132 2.810 . S
C510 C8 2.697 . S
C506 C309 2.697 . S
C71 C508 1.870 . S
C109 C477 1.305 . S
C511 C137 1.955 . S
C12 C476 4.435 . S
C212 C513 4.605 . S
C479 C271 2.811 . S
C474 C177 1.194 . S
