# Generated by pormake.
# Topology nia, (6,6)-cn, num edge types: 1
# Building blocks:
#     Node 0, Type 0, BuildingBlock: LEVNOQ01_clean_sbu_1, # of connection points: 6
#     Node 1, Type 0, BuildingBlock: LEVNOQ01_clean_sbu_1, # of connection points: 6
#     Node 2, Type 1, BuildingBlock: MIDCAF_clean_sbu_0, # of connection points: 6
#     Node 3, Type 1, BuildingBlock: MIDCAF_clean_sbu_0, # of connection points: 6
#     Edge 4, Type (0, 1), BuildingBlock: FUNLAD_clean_linker_0, # of connection points: 2
#     Edge 5, Type (0, 1), BuildingBlock: FUNLAD_clean_linker_0, # of connection points: 2
#     Edge 6, Type (0, 1), BuildingBlock: FUNLAD_clean_linker_0, # of connection points: 2
#     Edge 7, Type (0, 1), BuildingBlock: FUNLAD_clean_linker_0, # of connection points: 2
#     Edge 8, Type (0, 1), BuildingBlock: FUNLAD_clean_linker_0, # of connection points: 2
#     Edge 9, Type (0, 1), BuildingBlock: FUNLAD_clean_linker_0, # of connection points: 2
#     Edge 10, Type (0, 1), BuildingBlock: FUNLAD_clean_linker_0, # of connection points: 2
#     Edge 11, Type (0, 1), BuildingBlock: FUNLAD_clean_linker_0, # of connection points: 2
#     Edge 12, Type (0, 1), BuildingBlock: FUNLAD_clean_linker_0, # of connection points: 2
#     Edge 13, Type (0, 1), BuildingBlock: FUNLAD_clean_linker_0, # of connection points: 2
#     Edge 14, Type (0, 1), BuildingBlock: FUNLAD_clean_linker_0, # of connection points: 2
#     Edge 15, Type (0, 1), BuildingBlock: FUNLAD_clean_linker_0, # of connection points: 2
# Relax obj value: 0.122
# Max RMSD: 0.238
# Mean RMSD: 0.156
data_MOF--net-nia--node1-LEVNOQ01_clean_sbu_1--node2-MIDCAF_clean_sbu_0--edge1-FUNLAD_clean_linker_0
_symmetry_space_group_name_H-M    P1
_symmetry_Int_Tables_number       1
_symmetry_cell_setting            triclinic
loop_
_symmetry_equiv_pos_as_xyz
'x, y, z'
_cell_length_a     27.173894
_cell_length_b     27.255695
_cell_length_c     39.149906
_cell_angle_alpha  88.74708
_cell_angle_beta   89.846324
_cell_angle_gamma 127.95189
loop_
_atom_site_label
_atom_site_type_symbol
_atom_site_fract_x
_atom_site_fract_y
_atom_site_fract_z
_atom_type_partial_charge
O0 O 0.03236 0.12378 0.93556 0.0
Mg1 Mg 0.10412 0.1388 0.96544 0.0
O2 O 0.95855 0.04165 0.96736 0.0
Mg3 Mg 0.00469 0.00968 0.00303 0.0
O4 O 0.09476 0.0591 0.96985 0.0
O5 O 0.17434 0.1444 0.94162 0.0
O6 O 0.05083 0.97694 0.03872 0.0
O7 O 0.96877 0.92969 0.96454 0.0
Mg8 Mg 0.9067 0.8805 0.03405 0.0
O9 O 0.91213 0.95884 0.03565 0.0
O10 O 0.97411 0.88745 0.06404 0.0
O11 O 0.88826 0.83907 0.98647 0.0
O12 O 0.83413 0.8662 0.05967 0.0
C13 C 0.08625 0.15226 0.03946 0.0
C14 C 0.97531 0.08192 0.9433 0.0
C15 C 0.14537 0.08703 0.95122 0.0
C16 C 0.03175 0.93171 0.05987 0.0
C17 C 0.92528 0.87156 0.96175 0.0
C18 C 0.86017 0.92419 0.05347 0.0
O19 O 0.11917 0.18003 0.01261 0.0
O20 O 0.04332 0.0932 0.04037 0.0
O21 O 0.89026 0.02752 0.52828 0.0
Mg22 Mg 0.89762 0.95862 0.51141 0.0
O23 O 0.99146 0.08711 0.53469 0.0
Mg24 Mg 0.01636 0.0342 0.50399 0.0
O25 O 0.94958 0.94099 0.53902 0.0
O26 O 0.8458 0.88812 0.545 0.0
O27 O 0.04739 0.98578 0.47232 0.0
O28 O 0.08676 0.05879 0.54743 0.0
Mg29 Mg 0.16696 0.1399 0.47768 0.0
O30 O 0.0846 0.12364 0.47603 0.0
O31 O 0.14393 0.06035 0.4518 0.0
O32 O 0.18243 0.14181 0.5309 0.0
O33 O 0.16632 0.20861 0.45144 0.0
C34 C 0.90458 0.9693 0.44383 0.0
C35 C 0.93954 0.07666 0.53939 0.0
C36 C 0.89622 0.89694 0.55387 0.0
C37 C 0.09493 0.00376 0.45368 0.0
C38 C 0.14428 0.10187 0.55366 0.0
C39 C 0.10728 0.17326 0.45805 0.0
O40 O 0.87112 0.92164 0.46295 0.0
O41 O 0.95312 0.01853 0.45616 0.0
Zn42 Zn 0.302 0.69082 0.14797 0.0
Zn43 Zn 0.32258 0.68016 0.33255 0.0
Zn44 Zn 0.31607 0.68685 0.26764 0.0
C45 C 0.44618 0.75643 0.30449 0.0
C46 C 0.24931 0.55816 0.30927 0.0
O47 O 0.27369 0.72899 0.24957 0.0
O48 O 0.29063 0.70818 0.19935 0.0
C49 C 0.40345 0.74123 0.20828 0.0
O50 O 0.41668 0.74062 0.27622 0.0
O51 O 0.41634 0.73798 0.33272 0.0
O52 O 0.27447 0.5874 0.33634 0.0
O53 O 0.25904 0.58757 0.28086 0.0
O54 O 0.34889 0.71119 0.19565 0.0
O55 O 0.40625 0.73967 0.2409 0.0
O56 O 0.26042 0.59502 0.24567 0.0
O57 O 0.28296 0.64654 0.19738 0.0
C58 C 0.25486 0.59379 0.21321 0.0
O59 O 0.27488 0.72956 0.28584 0.0
O60 O 0.27597 0.71403 0.34141 0.0
C61 C 0.26974 0.73099 0.21704 0.0
C62 C 0.26171 0.73355 0.31671 0.0
Zn63 Zn 0.68409 0.32378 0.86803 0.0
Zn64 Zn 0.68859 0.31662 0.68431 0.0
Zn65 Zn 0.68588 0.32018 0.74821 0.0
C66 C 0.74845 0.44151 0.70119 0.0
C67 C 0.56184 0.23611 0.70603 0.0
O68 O 0.73057 0.28453 0.77261 0.0
O69 O 0.70651 0.307 0.8197 0.0
C70 C 0.73294 0.41535 0.80034 0.0
O71 O 0.73553 0.41801 0.73177 0.0
O72 O 0.73103 0.40688 0.6758 0.0
O73 O 0.5961 0.2525 0.6796 0.0
O74 O 0.58671 0.25805 0.73518 0.0
O75 O 0.70555 0.36338 0.81696 0.0
O76 O 0.73233 0.41315 0.7677 0.0
O77 O 0.59181 0.26106 0.77124 0.0
O78 O 0.64413 0.29783 0.81821 0.0
C79 C 0.59113 0.26184 0.80393 0.0
O80 O 0.73969 0.28645 0.7376 0.0
O81 O 0.74407 0.29269 0.6811 0.0
C82 C 0.72986 0.28362 0.80532 0.0
C83 C 0.75931 0.28164 0.70893 0.0
C84 C 0.05717 0.89873 0.11206 0.0
C85 C 0.0757 0.92783 0.07948 0.0
C86 C 0.0922 0.88463 0.12911 0.0
C87 C 0.14611 0.89779 0.1136 0.0
C88 C 0.16682 0.93052 0.08187 0.0
C89 C 0.132 0.94562 0.06495 0.0
C90 C 0.18075 0.87706 0.12949 0.0
C91 C 0.15486 0.83042 0.15335 0.0
C92 C 0.18737 0.80776 0.16932 0.0
C93 C 0.16686 0.77848 0.20186 0.0
C94 C 0.19393 0.75393 0.21742 0.0
C95 C 0.24169 0.75749 0.20061 0.0
H96 H 0.25091 0.8316 0.12687 0.0
C97 C 0.26174 0.78577 0.16783 0.0
C98 C 0.23511 0.81106 0.15235 0.0
H99 H 0.29824 0.78861 0.15424 0.0
H100 H 0.01448 0.88549 0.12414 0.0
H101 H 0.07597 0.86272 0.15424 0.0
H102 H 0.20876 0.94236 0.06955 0.0
H103 H 0.1473 0.96805 0.03981 0.0
H104 H 0.2283 0.89986 0.12053 0.0
H105 H 0.10723 0.80707 0.16218 0.0
H106 H 0.12955 0.77444 0.21531 0.0
H107 H 0.1765 0.73089 0.2423 0.0
C108 C 0.15446 0.05318 0.60541 0.0
C109 C 0.16887 0.10617 0.58785 0.0
C110 C 0.188 0.05975 0.63443 0.0
C111 C 0.23542 0.11938 0.64648 0.0
C112 C 0.24537 0.17152 0.63062 0.0
C113 C 0.21312 0.1651 0.60131 0.0
C114 C 0.28051 0.1304 0.67255 0.0
C115 C 0.3036 0.09861 0.67299 0.0
C116 C 0.36622 0.12564 0.68669 0.0
C117 C 0.40433 0.11632 0.6686 0.0
C118 C 0.46743 0.15037 0.67606 0.0
C119 C 0.49346 0.19345 0.70232 0.0
H120 H 0.36257 0.17271 0.72955 0.0
C121 C 0.4544 0.1992 0.72236 0.0
C122 C 0.39117 0.16564 0.71456 0.0
H123 H 0.47337 0.23205 0.7428 0.0
H124 H 0.1203 0.00723 0.59549 0.0
H125 H 0.17844 0.01855 0.64659 0.0
H126 H 0.28131 0.21789 0.6395 0.0
H127 H 0.22452 0.20659 0.58836 0.0
H128 H 0.30467 0.17363 0.68616 0.0
H129 H 0.28293 0.05871 0.65678 0.0
H130 H 0.38627 0.08555 0.64718 0.0
H131 H 0.4964 0.14456 0.66044 0.0
C132 C 0.14164 0.25643 0.06485 0.0
C133 C 0.09644 0.19143 0.0686 0.0
C134 C 0.14936 0.29558 0.09004 0.0
C135 C 0.11209 0.27128 0.11993 0.0
C136 C 0.06884 0.20627 0.12479 0.0
C137 C 0.06055 0.16651 0.09912 0.0
C138 C 0.12038 0.31451 0.14608 0.0
C139 C 0.13244 0.36889 0.13637 0.0
C140 C 0.15697 0.42306 0.15846 0.0
C141 C 0.17341 0.47826 0.14262 0.0
C142 C 0.20422 0.53328 0.16054 0.0
C143 C 0.21893 0.53448 0.19494 0.0
H144 H 0.15779 0.38241 0.20674 0.0
C145 C 0.20013 0.47881 0.21141 0.0
C146 C 0.16964 0.42361 0.19336 0.0
H147 H 0.21065 0.47821 0.23798 0.0
H148 H 0.17089 0.27776 0.04202 0.0
H149 H 0.18493 0.34528 0.08601 0.0
H150 H 0.04043 0.18638 0.14797 0.0
H151 H 0.02561 0.11666 0.10293 0.0
H152 H 0.11928 0.30242 0.17277 0.0
H153 H 0.12844 0.3762 0.10941 0.0
H154 H 0.1642 0.47946 0.11583 0.0
H155 H 0.21724 0.57508 0.14722 0.0
C156 C 0.87973 0.09213 0.57977 0.0
C157 C 0.93574 0.11675 0.562 0.0
C158 C 0.87762 0.12644 0.60471 0.0
C159 C 0.93132 0.18639 0.61214 0.0
C160 C 0.98662 0.21234 0.5933 0.0
C161 C 0.98914 0.17739 0.56874 0.0
C162 C 0.92814 0.22377 0.63746 0.0
C163 C 0.89348 0.19756 0.66646 0.0
C164 C 0.86936 0.22519 0.68583 0.0
C165 C 0.81346 0.18478 0.70493 0.0
C166 C 0.77946 0.20475 0.71562 0.0
C167 C 0.80145 0.26547 0.70752 0.0
H168 H 0.93899 0.32164 0.66849 0.0
C169 C 0.86039 0.3078 0.6919 0.0
C170 C 0.8947 0.28815 0.68155 0.0
H171 H 0.8782 0.35517 0.68584 0.0
H172 H 0.83789 0.0455 0.5752 0.0
H173 H 0.83364 0.10619 0.61793 0.0
H174 H 0.02809 0.25909 0.59808 0.0
H175 H 0.03289 0.1975 0.55529 0.0
H176 H 0.95002 0.27176 0.63007 0.0
H177 H 0.87381 0.14966 0.67306 0.0
H178 H 0.79333 0.13627 0.70906 0.0
H179 H 0.73394 0.17158 0.72771 0.0
C180 C 0.77752 0.93626 0.0513 0.0
C181 C 0.82953 0.94853 0.06786 0.0
C182 C 0.73167 0.93325 0.06988 0.0
C183 C 0.73687 0.94146 0.10544 0.0
C184 C 0.79252 0.96101 0.12103 0.0
C185 C 0.83834 0.96395 0.10242 0.0
C186 C 0.68269 0.92261 0.1274 0.0
C187 C 0.624 0.87269 0.12023 0.0
C188 C 0.56842 0.84319 0.14348 0.0
C189 C 0.50957 0.79599 0.13044 0.0
C190 C 0.45611 0.7634 0.15143 0.0
C191 C 0.46015 0.77691 0.18613 0.0
H192 H 0.61646 0.89264 0.18973 0.0
C193 C 0.51863 0.82463 0.19928 0.0
C194 C 0.57234 0.85739 0.17827 0.0
H195 H 0.52286 0.83689 0.22579 0.0
H196 H 0.76952 0.92342 0.02474 0.0
H197 H 0.69041 0.92047 0.05678 0.0
H198 H 0.79806 0.96838 0.14828 0.0
H199 H 0.87764 0.97234 0.11579 0.0
H200 H 0.69257 0.94578 0.15143 0.0
H201 H 0.61618 0.84934 0.09641 0.0
H202 H 0.50491 0.78358 0.10389 0.0
H203 H 0.41176 0.72676 0.14054 0.0
C204 C 0.93937 0.85277 0.58872 0.0
C205 C 0.89201 0.85816 0.58245 0.0
C206 C 0.93164 0.81237 0.61485 0.0
C207 C 0.87636 0.77696 0.63516 0.0
C208 C 0.83122 0.78573 0.63002 0.0
C209 C 0.8387 0.8254 0.60397 0.0
C210 C 0.86038 0.72665 0.65992 0.0
C211 C 0.88761 0.69889 0.65961 0.0
C212 C 0.85733 0.63589 0.67518 0.0
C213 C 0.86998 0.59849 0.66004 0.0
C214 C 0.83542 0.53575 0.66944 0.0
C215 C 0.78819 0.50918 0.69468 0.0
H216 H 0.80259 0.63784 0.71515 0.0
C217 C 0.77779 0.54698 0.71154 0.0
C218 C 0.81235 0.6101 0.70201 0.0
H219 H 0.74158 0.52729 0.73115 0.0
H220 H 0.98147 0.8784 0.57292 0.0
H221 H 0.96865 0.80866 0.61855 0.0
H222 H 0.78857 0.75988 0.64539 0.0
H223 H 0.80191 0.82964 0.60047 0.0
H224 H 0.81825 0.70574 0.67532 0.0
H225 H 0.92766 0.71736 0.64286 0.0
H226 H 0.90457 0.61702 0.63958 0.0
H227 H 0.84473 0.50751 0.65636 0.0
C228 C 0.12863 0.97996 0.40178 0.0
C229 C 0.09329 0.95886 0.43234 0.0
C230 C 0.132 0.93987 0.38236 0.0
C231 C 0.10087 0.87759 0.39342 0.0
C232 C 0.06275 0.85575 0.42311 0.0
C233 C 0.05866 0.8959 0.44233 0.0
C234 C 0.11081 0.83557 0.37672 0.0
C235 C 0.15428 0.85428 0.35198 0.0
C236 C 0.17461 0.81712 0.34143 0.0
C237 C 0.20808 0.83283 0.31041 0.0
C238 C 0.23532 0.80472 0.30179 0.0
C239 C 0.22961 0.76042 0.32409 0.0
H240 H 0.14463 0.75965 0.38805 0.0
C241 C 0.19517 0.74378 0.35476 0.0
C242 C 0.16805 0.7718 0.36341 0.0
H243 H 0.19017 0.70985 0.37253 0.0
H244 H 0.15447 0.02799 0.39296 0.0
H245 H 0.16032 0.95908 0.35927 0.0
H246 H 0.03776 0.80797 0.4322 0.0
H247 H 0.03057 0.87833 0.46566 0.0
H248 H 0.08413 0.78833 0.38717 0.0
H249 H 0.17939 0.90006 0.33994 0.0
H250 H 0.21472 0.86826 0.29324 0.0
H251 H 0.26277 0.81939 0.27835 0.0
C252 C 0.21421 0.05668 0.95488 0.0
C253 C 0.16812 0.05467 0.93742 0.0
C254 C 0.25648 0.05334 0.93677 0.0
C255 C 0.25375 0.04936 0.90087 0.0
C256 C 0.20228 0.0386 0.88438 0.0
C257 C 0.15999 0.04173 0.90251 0.0
C258 C 0.30815 0.06697 0.87956 0.0
C259 C 0.367 0.11278 0.88899 0.0
C260 C 0.42352 0.14688 0.86616 0.0
C261 C 0.47935 0.19888 0.87942 0.0
C262 C 0.53321 0.23599 0.85906 0.0
C263 C 0.533 0.2221 0.82476 0.0
H264 H 0.38177 0.09255 0.82036 0.0
C265 C 0.47768 0.16967 0.8113 0.0
C266 C 0.42331 0.13227 0.83177 0.0
H267 H 0.47657 0.15718 0.7851 0.0
H268 H 0.22148 0.06712 0.98179 0.0
H269 H 0.29415 0.05905 0.95051 0.0
H270 H 0.19849 0.03453 0.85687 0.0
H271 H 0.12508 0.04083 0.88853 0.0
H272 H 0.29902 0.04966 0.85386 0.0
H273 H 0.37397 0.13135 0.91431 0.0
H274 H 0.48123 0.21175 0.90566 0.0
H275 H 0.57485 0.27623 0.8702 0.0
C276 C 0.07448 0.23965 0.45215 0.0
C277 C 0.06844 0.1872 0.44219 0.0
C278 C 0.05714 0.26722 0.42999 0.0
C279 C 0.03573 0.24372 0.39727 0.0
C280 C 0.02267 0.18688 0.38908 0.0
C281 C 0.03907 0.15876 0.41152 0.0
C282 C 0.04266 0.28662 0.37038 0.0
C283 C 0.07759 0.29888 0.34222 0.0
C284 C 0.11865 0.36241 0.32685 0.0
C285 C 0.18249 0.39091 0.32279 0.0
C286 C 0.22533 0.45473 0.31559 0.0
C287 C 0.20449 0.49026 0.31126 0.0
H288 H 0.04845 0.37638 0.32344 0.0
C289 C 0.14034 0.46118 0.31259 0.0
C290 C 0.09752 0.39754 0.32066 0.0
H291 H 0.12373 0.48832 0.30928 0.0
H292 H 0.09767 0.26243 0.47564 0.0
H293 H 0.06749 0.31096 0.43685 0.0
H294 H 0.00535 0.16747 0.36414 0.0
H295 H 0.03462 0.11847 0.40337 0.0
H296 H 0.0361 0.32037 0.3781 0.0
H297 H 0.08969 0.26855 0.33653 0.0
H298 H 0.19974 0.36465 0.3276 0.0
H299 H 0.27477 0.47671 0.31468 0.0
C300 C 0.87923 0.07538 0.9409 0.0
C301 C 0.92895 0.08223 0.92412 0.0
C302 C 0.84296 0.08771 0.92315 0.0
C303 C 0.85539 0.10581 0.88827 0.0
C304 C 0.90211 0.108 0.87117 0.0
C305 C 0.93912 0.09727 0.88899 0.0
C306 C 0.8233 0.12585 0.86902 0.0
C307 C 0.80755 0.15933 0.88298 0.0
C308 C 0.78717 0.19031 0.86239 0.0
C309 C 0.75296 0.20656 0.87847 0.0
C310 C 0.73493 0.23763 0.86011 0.0
C311 C 0.75121 0.25347 0.82531 0.0
H312 H 0.83332 0.1986 0.81457 0.0
C313 C 0.78654 0.23848 0.8094 0.0
C314 C 0.80456 0.2075 0.82768 0.0
H315 H 0.80098 0.25136 0.78287 0.0
H316 H 0.87065 0.06391 0.96802 0.0
H317 H 0.80616 0.08418 0.93682 0.0
H318 H 0.91222 0.12128 0.84427 0.0
H319 H 0.97705 0.10254 0.87548 0.0
H320 H 0.8187 0.1182 0.84174 0.0
H321 H 0.81205 0.16661 0.91032 0.0
H322 H 0.73975 0.19481 0.90527 0.0
H323 H 0.70758 0.24844 0.87309 0.0
C324 C 0.8458 0.91444 0.39183 0.0
C325 C 0.88007 0.96934 0.41032 0.0
C326 C 0.8074 0.90672 0.36543 0.0
C327 C 0.8021 0.95384 0.35715 0.0
C328 C 0.84095 0.01095 0.37366 0.0
C329 C 0.87977 0.01874 0.4 0.0
C330 C 0.74875 0.94079 0.33722 0.0
C331 C 0.71051 0.88931 0.31885 0.0
C332 C 0.645 0.86343 0.31164 0.0
C333 C 0.61335 0.8218 0.28491 0.0
C334 C 0.54887 0.78883 0.28137 0.0
C335 C 0.51495 0.79627 0.30488 0.0
H336 H 0.63289 0.9022 0.35594 0.0
C337 C 0.54677 0.83893 0.33101 0.0
C338 C 0.61098 0.87231 0.33431 0.0
H339 H 0.5216 0.84528 0.34958 0.0
H340 H 0.84532 0.87565 0.3994 0.0
H341 H 0.77826 0.86172 0.35387 0.0
H342 H 0.83776 0.048 0.36799 0.0
H343 H 0.90483 0.06108 0.41429 0.0
H344 H 0.73616 0.97115 0.34133 0.0
H345 H 0.72497 0.86168 0.31148 0.0
H346 H 0.63815 0.81325 0.26745 0.0
H347 H 0.52515 0.75547 0.26128 0.0
C348 C 0.94881 0.80827 0.93324 0.0
C349 C 0.9225 0.83914 0.93159 0.0
C350 C 0.9351 0.76555 0.90858 0.0
C351 C 0.89427 0.75261 0.88201 0.0
C352 C 0.87204 0.78734 0.87886 0.0
C353 C 0.88556 0.83 0.90378 0.0
C354 C 0.87006 0.69934 0.8595 0.0
C355 C 0.85391 0.64489 0.87243 0.0
C356 C 0.82259 0.58725 0.85278 0.0
C357 C 0.78281 0.52977 0.87048 0.0
C358 C 0.75327 0.47409 0.85335 0.0
C359 C 0.76367 0.47462 0.81817 0.0
H360 H 0.865 0.63162 0.80332 0.0
C361 C 0.80434 0.53215 0.80048 0.0
C362 C 0.83321 0.58807 0.81754 0.0
H363 H 0.81498 0.53397 0.77367 0.0
H364 H 0.97736 0.81478 0.95463 0.0
H365 H 0.95434 0.74073 0.91111 0.0
H366 H 0.84092 0.77849 0.85844 0.0
H367 H 0.86451 0.85321 0.90233 0.0
H368 H 0.85892 0.70261 0.83333 0.0
H369 H 0.85929 0.64074 0.89962 0.0
H370 H 0.77414 0.52788 0.89769 0.0
H371 H 0.72222 0.43068 0.86777 0.0
loop_
_geom_bond_atom_site_label_1
_geom_bond_atom_site_label_2
_geom_bond_distance
_geom_bond_site_symmetry_2
_ccdc_geom_bond_type
O0 Mg1 1.990 . S
O0 C14 1.253 1_455 S
Mg1 O0 1.990 . S
Mg1 O4 2.180 . S
Mg1 O5 2.117 . S
Mg1 O19 2.030 1_556 S
O2 Mg3 2.072 1_656 S
O2 C14 1.260 . S
Mg3 O2 2.072 1_454 S
Mg3 O4 2.099 1_554 S
Mg3 O6 2.079 1_545 S
Mg3 O7 2.072 1_444 S
Mg3 O9 2.099 1_445 S
Mg3 O20 2.079 . S
O4 Mg1 2.180 . S
O4 Mg3 2.099 1_556 S
O4 C15 1.279 . S
O5 Mg1 2.117 . S
O5 C15 1.250 . S
O6 Mg3 2.079 1_565 S
O6 C16 1.264 . S
O7 Mg3 2.072 1_666 S
O7 C17 1.260 . S
Mg8 O9 2.180 . S
Mg8 O10 2.030 . S
Mg8 O11 1.990 1_554 S
Mg8 O12 2.117 . S
O9 Mg3 2.099 1_665 S
O9 Mg8 2.180 . S
O9 C18 1.279 . S
O10 Mg8 2.030 . S
O10 C16 1.248 1_655 S
O11 Mg8 1.990 1_556 S
O11 C17 1.253 . S
O12 Mg8 2.117 . S
O12 C18 1.250 . S
C13 O19 1.248 . S
C13 O20 1.264 . S
C14 O0 1.253 1_655 S
C14 O2 1.260 . S
C15 O4 1.279 . S
C15 O5 1.250 . S
C16 O6 1.264 . S
C16 O10 1.248 1_455 S
C17 O7 1.260 . S
C17 O11 1.253 . S
C18 O9 1.279 . S
C18 O12 1.250 . S
O19 Mg1 2.030 1_554 S
O19 C13 1.248 . S
O20 Mg3 2.079 . S
O20 C13 1.264 . S
O21 Mg22 1.990 . S
O21 C35 1.253 1_565 S
Mg22 O21 1.990 . S
Mg22 O25 2.180 . S
Mg22 O26 2.117 . S
Mg22 O40 2.030 . S
O23 Mg24 2.072 1_655 S
O23 C35 1.260 . S
Mg24 O23 2.072 1_455 S
Mg24 O25 2.099 1_445 S
Mg24 O27 2.079 1_545 S
Mg24 O28 2.072 . S
Mg24 O30 2.099 . S
Mg24 O41 2.079 1_445 S
O25 Mg22 2.180 . S
O25 Mg24 2.099 1_665 S
O25 C36 1.279 . S
O26 Mg22 2.117 . S
O26 C36 1.250 . S
O27 Mg24 2.079 1_565 S
O27 C37 1.264 . S
O28 Mg24 2.072 . S
O28 C38 1.260 . S
Mg29 O30 2.180 . S
Mg29 O31 2.030 . S
Mg29 O32 1.990 . S
Mg29 O33 2.117 . S
O30 Mg24 2.099 . S
O30 Mg29 2.180 . S
O30 C39 1.279 . S
O31 Mg29 2.030 . S
O31 C37 1.248 1_545 S
O32 Mg29 1.990 . S
O32 C38 1.253 . S
O33 Mg29 2.117 . S
O33 C39 1.250 . S
C34 O40 1.248 . S
C34 O41 1.264 . S
C35 O21 1.253 1_545 S
C35 O23 1.260 . S
C36 O25 1.279 . S
C36 O26 1.250 . S
C37 O27 1.264 . S
C37 O31 1.248 1_565 S
C38 O28 1.260 . S
C38 O32 1.253 . S
C39 O30 1.279 . S
C39 O33 1.250 . S
O40 Mg22 2.030 . S
O40 C34 1.248 . S
O41 Mg24 2.079 1_665 S
O41 C34 1.264 . S
Zn42 O48 1.920 . S
Zn42 O54 1.898 . S
Zn42 O57 1.905 . S
Zn43 O51 1.905 . S
Zn43 O52 1.898 . S
Zn43 O60 1.920 . S
Zn44 O47 2.080 . S
Zn44 O50 2.114 . S
Zn44 O53 2.120 . S
Zn44 O55 2.120 . S
Zn44 O56 2.114 . S
Zn44 O59 2.080 . S
C45 O50 1.166 . S
C45 O51 1.182 . S
C46 O52 1.167 . S
C46 O53 1.299 . S
O47 Zn44 2.080 . S
O47 C61 1.305 . S
O48 Zn42 1.920 . S
O48 C61 1.234 . S
C49 O54 1.167 . S
C49 O55 1.299 . S
O50 Zn44 2.114 . S
O50 C45 1.166 . S
O51 Zn43 1.905 . S
O51 C45 1.182 . S
O52 Zn43 1.898 . S
O52 C46 1.167 . S
O53 Zn44 2.120 . S
O53 C46 1.299 . S
O54 Zn42 1.898 . S
O54 C49 1.167 . S
O55 Zn44 2.120 . S
O55 C49 1.299 . S
O56 Zn44 2.114 . S
O56 C58 1.166 . S
O57 Zn42 1.905 . S
O57 C58 1.182 . S
C58 O56 1.166 . S
C58 O57 1.182 . S
O59 Zn44 2.080 . S
O59 C62 1.305 . S
O60 Zn43 1.920 . S
O60 C62 1.234 . S
C61 O47 1.305 . S
C61 O48 1.234 . S
C62 O59 1.305 . S
C62 O60 1.234 . S
Zn63 O69 1.920 . S
Zn63 O75 1.898 . S
Zn63 O78 1.905 . S
Zn64 O72 1.905 . S
Zn64 O73 1.898 . S
Zn64 O81 1.920 . S
Zn65 O68 2.080 . S
Zn65 O71 2.114 . S
Zn65 O74 2.120 . S
Zn65 O76 2.120 . S
Zn65 O77 2.114 . S
Zn65 O80 2.080 . S
C66 O71 1.166 . S
C66 O72 1.182 . S
C67 O73 1.167 . S
C67 O74 1.299 . S
O68 Zn65 2.080 . S
O68 C82 1.305 . S
O69 Zn63 1.920 . S
O69 C82 1.234 . S
C70 O75 1.167 . S
C70 O76 1.299 . S
O71 Zn65 2.114 . S
O71 C66 1.166 . S
O72 Zn64 1.905 . S
O72 C66 1.182 . S
O73 Zn64 1.898 . S
O73 C67 1.167 . S
O74 Zn65 2.120 . S
O74 C67 1.299 . S
O75 Zn63 1.898 . S
O75 C70 1.167 . S
O76 Zn65 2.120 . S
O76 C70 1.299 . S
O77 Zn65 2.114 . S
O77 C79 1.166 . S
O78 Zn63 1.905 . S
O78 C79 1.182 . S
C79 O77 1.166 . S
C79 O78 1.182 . S
O80 Zn65 2.080 . S
O80 C83 1.305 . S
O81 Zn64 1.920 . S
O81 C83 1.234 . S
C82 O68 1.305 . S
C82 O69 1.234 . S
C83 O80 1.305 . S
C83 O81 1.234 . S
C84 C85 1.386 . S
C84 C86 1.383 . S
C84 H100 0.951 . S
C85 C84 1.386 . S
C85 C89 1.383 . S
C86 C84 1.383 . S
C86 C87 1.402 . S
C86 H101 0.951 . S
C87 C86 1.402 . S
C87 C88 1.375 . S
C87 C90 1.481 . S
C88 C87 1.375 . S
C88 C89 1.367 . S
C88 H102 0.951 . S
C89 C85 1.383 . S
C89 C88 1.367 . S
C89 H103 0.950 . S
C90 C87 1.481 . S
C90 C91 1.297 . S
C90 H104 0.950 . S
C91 C90 1.297 . S
C91 C92 1.479 . S
C91 H105 0.950 . S
C92 C91 1.479 . S
C92 C93 1.375 . S
C92 C98 1.404 . S
C93 C92 1.375 . S
C93 C94 1.369 . S
C93 H106 0.950 . S
C94 C93 1.369 . S
C94 C95 1.392 . S
C94 H107 0.951 . S
C95 C94 1.392 . S
C95 C97 1.384 . S
H96 C98 0.949 . S
C97 C95 1.384 . S
C97 C98 1.385 . S
C97 H99 0.950 . S
C98 C92 1.404 . S
C98 H96 0.949 . S
C98 C97 1.385 . S
H99 C97 0.950 . S
H100 C84 0.951 . S
H101 C86 0.951 . S
H102 C88 0.951 . S
H103 C89 0.950 . S
H104 C90 0.950 . S
H105 C91 0.950 . S
H106 C93 0.950 . S
H107 C94 0.951 . S
C108 C109 1.386 . S
C108 C110 1.383 . S
C108 H124 0.946 1_545 S
C109 C108 1.386 . S
C109 C113 1.383 . S
C110 C108 1.383 . S
C110 C111 1.402 . S
C110 H125 0.951 . S
C111 C110 1.402 . S
C111 C112 1.375 . S
C111 C114 1.481 . S
C112 C111 1.375 . S
C112 C113 1.367 . S
C112 H126 0.951 . S
C113 C109 1.383 . S
C113 C112 1.367 . S
C113 H127 0.950 . S
C114 C111 1.481 . S
C114 C115 1.297 . S
C114 H128 0.950 . S
C115 C114 1.297 . S
C115 C116 1.479 . S
C115 H129 0.950 . S
C116 C115 1.479 . S
C116 C117 1.375 . S
C116 C122 1.404 . S
C117 C116 1.375 . S
C117 C118 1.369 . S
C117 H130 0.950 . S
C118 C117 1.369 . S
C118 C119 1.392 . S
C118 H131 0.951 . S
C119 C118 1.392 . S
C119 C121 1.384 . S
H120 C122 0.949 . S
C121 C119 1.384 . S
C121 C122 1.385 . S
C121 H123 0.950 . S
C122 C116 1.404 . S
C122 H120 0.949 . S
C122 C121 1.385 . S
H123 C121 0.950 . S
H124 C108 0.946 1_565 S
H125 C110 0.951 . S
H126 C112 0.951 . S
H127 C113 0.950 . S
H128 C114 0.950 . S
H129 C115 0.950 . S
H130 C117 0.950 . S
H131 C118 0.951 . S
C132 C133 1.386 . S
C132 C134 1.383 . S
C132 H148 0.951 . S
C133 C132 1.386 . S
C133 C137 1.383 . S
C134 C132 1.383 . S
C134 C135 1.402 . S
C134 H149 0.951 . S
C135 C134 1.402 . S
C135 C136 1.375 . S
C135 C138 1.481 . S
C136 C135 1.375 . S
C136 C137 1.367 . S
C136 H150 0.951 . S
C137 C133 1.383 . S
C137 C136 1.367 . S
C137 H151 0.950 . S
C138 C135 1.481 . S
C138 C139 1.297 . S
C138 H152 0.950 . S
C139 C138 1.297 . S
C139 C140 1.479 . S
C139 H153 0.950 . S
C140 C139 1.479 . S
C140 C141 1.375 . S
C140 C146 1.404 . S
C141 C140 1.375 . S
C141 C142 1.369 . S
C141 H154 0.950 . S
C142 C141 1.369 . S
C142 C143 1.392 . S
C142 H155 0.951 . S
C143 C142 1.392 . S
C143 C145 1.384 . S
H144 C146 0.949 . S
C145 C143 1.384 . S
C145 C146 1.385 . S
C145 H147 0.950 . S
C146 C140 1.404 . S
C146 H144 0.949 . S
C146 C145 1.385 . S
H147 C145 0.950 . S
H148 C132 0.951 . S
H149 C134 0.951 . S
H150 C136 0.951 . S
H151 C137 0.950 . S
H152 C138 0.950 . S
H153 C139 0.950 . S
H154 C141 0.950 . S
H155 C142 0.951 . S
C156 C157 1.386 . S
C156 C158 1.383 . S
C156 H172 0.951 . S
C157 C156 1.386 . S
C157 C161 1.383 . S
C158 C156 1.383 . S
C158 C159 1.402 . S
C158 H173 0.951 . S
C159 C158 1.402 . S
C159 C160 1.375 . S
C159 C162 1.481 . S
C160 C159 1.375 . S
C160 C161 1.367 . S
C160 H174 0.951 . S
C161 C157 1.383 . S
C161 C160 1.367 . S
C161 H175 0.950 . S
C162 C159 1.481 . S
C162 C163 1.297 . S
C162 H176 0.950 . S
C163 C162 1.297 . S
C163 C164 1.479 . S
C163 H177 0.950 . S
C164 C163 1.479 . S
C164 C165 1.375 . S
C164 C170 1.404 . S
C165 C164 1.375 . S
C165 C166 1.369 . S
C165 H178 0.950 . S
C166 C165 1.369 . S
C166 C167 1.392 . S
C166 H179 0.951 . S
C167 C166 1.392 . S
C167 C169 1.384 . S
H168 C170 0.949 . S
C169 C167 1.384 . S
C169 C170 1.385 . S
C169 H171 0.950 . S
C170 C164 1.404 . S
C170 H168 0.949 . S
C170 C169 1.385 . S
H171 C169 0.950 . S
H172 C156 0.951 . S
H173 C158 0.951 . S
H174 C160 0.951 . S
H175 C161 0.950 . S
H176 C162 0.950 . S
H177 C163 0.950 . S
H178 C165 0.950 . S
H179 C166 0.951 . S
C180 C181 1.386 . S
C180 C182 1.383 . S
C180 H196 0.951 . S
C181 C180 1.386 . S
C181 C185 1.383 . S
C182 C180 1.383 . S
C182 C183 1.402 . S
C182 H197 0.951 . S
C183 C182 1.402 . S
C183 C184 1.375 . S
C183 C186 1.481 . S
C184 C183 1.375 . S
C184 C185 1.367 . S
C184 H198 0.951 . S
C185 C181 1.383 . S
C185 C184 1.367 . S
C185 H199 0.950 . S
C186 C183 1.481 . S
C186 C187 1.297 . S
C186 H200 0.950 . S
C187 C186 1.297 . S
C187 C188 1.479 . S
C187 H201 0.950 . S
C188 C187 1.479 . S
C188 C189 1.375 . S
C188 C194 1.404 . S
C189 C188 1.375 . S
C189 C190 1.369 . S
C189 H202 0.950 . S
C190 C189 1.369 . S
C190 C191 1.392 . S
C190 H203 0.951 . S
C191 C190 1.392 . S
C191 C193 1.384 . S
H192 C194 0.949 . S
C193 C191 1.384 . S
C193 C194 1.385 . S
C193 H195 0.950 . S
C194 C188 1.404 . S
C194 H192 0.949 . S
C194 C193 1.385 . S
H195 C193 0.950 . S
H196 C180 0.951 . S
H197 C182 0.951 . S
H198 C184 0.951 . S
H199 C185 0.950 . S
H200 C186 0.950 . S
H201 C187 0.950 . S
H202 C189 0.950 . S
H203 C190 0.951 . S
C204 C205 1.386 . S
C204 C206 1.383 . S
C204 H220 0.965 . S
C205 C204 1.386 . S
C205 C209 1.383 . S
C206 C204 1.383 . S
C206 C207 1.402 . S
C206 H221 0.951 . S
C207 C206 1.402 . S
C207 C208 1.375 . S
C207 C210 1.481 . S
C208 C207 1.375 . S
C208 C209 1.367 . S
C208 H222 0.951 . S
C209 C205 1.383 . S
C209 C208 1.367 . S
C209 H223 0.950 . S
C210 C207 1.481 . S
C210 C211 1.297 . S
C210 H224 0.950 . S
C211 C210 1.297 . S
C211 C212 1.479 . S
C211 H225 0.950 . S
C212 C211 1.479 . S
C212 C213 1.375 . S
C212 C218 1.404 . S
C213 C212 1.375 . S
C213 C214 1.369 . S
C213 H226 0.950 . S
C214 C213 1.369 . S
C214 C215 1.392 . S
C214 H227 0.951 . S
C215 C214 1.392 . S
C215 C217 1.384 . S
H216 C218 0.949 . S
C217 C215 1.384 . S
C217 C218 1.385 . S
C217 H219 0.950 . S
C218 C212 1.404 . S
C218 H216 0.949 . S
C218 C217 1.385 . S
H219 C217 0.950 . S
H220 C204 0.965 . S
H221 C206 0.951 . S
H222 C208 0.951 . S
H223 C209 0.950 . S
H224 C210 0.950 . S
H225 C211 0.950 . S
H226 C213 0.950 . S
H227 C214 0.951 . S
C228 C229 1.386 . S
C228 C230 1.383 . S
C228 H244 0.951 . S
C229 C228 1.386 . S
C229 C233 1.383 . S
C230 C228 1.383 . S
C230 C231 1.402 . S
C230 H245 0.951 . S
C231 C230 1.402 . S
C231 C232 1.375 . S
C231 C234 1.481 . S
C232 C231 1.375 . S
C232 C233 1.367 . S
C232 H246 0.951 . S
C233 C229 1.383 . S
C233 C232 1.367 . S
C233 H247 0.950 . S
C234 C231 1.481 . S
C234 C235 1.297 . S
C234 H248 0.950 . S
C235 C234 1.297 . S
C235 C236 1.479 . S
C235 H249 0.950 . S
C236 C235 1.479 . S
C236 C237 1.375 . S
C236 C242 1.404 . S
C237 C236 1.375 . S
C237 C238 1.369 . S
C237 H250 0.950 . S
C238 C237 1.369 . S
C238 C239 1.392 . S
C238 H251 0.951 . S
C239 C238 1.392 . S
C239 C241 1.384 . S
H240 C242 0.949 . S
C241 C239 1.384 . S
C241 C242 1.385 . S
C241 H243 0.950 . S
C242 C236 1.404 . S
C242 H240 0.949 . S
C242 C241 1.385 . S
H243 C241 0.950 . S
H244 C228 0.951 . S
H245 C230 0.951 . S
H246 C232 0.951 . S
H247 C233 0.950 . S
H248 C234 0.950 . S
H249 C235 0.950 . S
H250 C237 0.950 . S
H251 C238 0.951 . S
C252 C253 1.386 . S
C252 C254 1.383 . S
C252 H268 0.951 . S
C253 C252 1.386 . S
C253 C257 1.383 . S
C254 C252 1.383 . S
C254 C255 1.402 . S
C254 H269 0.951 . S
C255 C254 1.402 . S
C255 C256 1.375 . S
C255 C258 1.481 . S
C256 C255 1.375 . S
C256 C257 1.367 . S
C256 H270 0.951 . S
C257 C253 1.383 . S
C257 C256 1.367 . S
C257 H271 0.950 . S
C258 C255 1.481 . S
C258 C259 1.297 . S
C258 H272 0.950 . S
C259 C258 1.297 . S
C259 C260 1.479 . S
C259 H273 0.950 . S
C260 C259 1.479 . S
C260 C261 1.375 . S
C260 C266 1.404 . S
C261 C260 1.375 . S
C261 C262 1.369 . S
C261 H274 0.950 . S
C262 C261 1.369 . S
C262 C263 1.392 . S
C262 H275 0.951 . S
C263 C262 1.392 . S
C263 C265 1.384 . S
H264 C266 0.949 . S
C265 C263 1.384 . S
C265 C266 1.385 . S
C265 H267 0.950 . S
C266 C260 1.404 . S
C266 H264 0.949 . S
C266 C265 1.385 . S
H267 C265 0.950 . S
H268 C252 0.951 . S
H269 C254 0.951 . S
H270 C256 0.951 . S
H271 C257 0.950 . S
H272 C258 0.950 . S
H273 C259 0.950 . S
H274 C261 0.950 . S
H275 C262 0.951 . S
C276 C277 1.386 . S
C276 C278 1.383 . S
C276 H292 0.951 . S
C277 C276 1.386 . S
C277 C281 1.383 . S
C278 C276 1.383 . S
C278 C279 1.402 . S
C278 H293 0.951 . S
C279 C278 1.402 . S
C279 C280 1.375 . S
C279 C282 1.481 . S
C280 C279 1.375 . S
C280 C281 1.367 . S
C280 H294 0.951 . S
C281 C277 1.383 . S
C281 C280 1.367 . S
C281 H295 0.950 . S
C282 C279 1.481 . S
C282 C283 1.297 . S
C282 H296 0.950 . S
C283 C282 1.297 . S
C283 C284 1.479 . S
C283 H297 0.950 . S
C284 C283 1.479 . S
C284 C285 1.375 . S
C284 C290 1.404 . S
C285 C284 1.375 . S
C285 C286 1.369 . S
C285 H298 0.950 . S
C286 C285 1.369 . S
C286 C287 1.392 . S
C286 H299 0.951 . S
C287 C286 1.392 . S
C287 C289 1.384 . S
H288 C290 0.949 . S
C289 C287 1.384 . S
C289 C290 1.385 . S
C289 H291 0.950 . S
C290 C284 1.404 . S
C290 H288 0.949 . S
C290 C289 1.385 . S
H291 C289 0.950 . S
H292 C276 0.951 . S
H293 C278 0.951 . S
H294 C280 0.951 . S
H295 C281 0.950 . S
H296 C282 0.950 . S
H297 C283 0.950 . S
H298 C285 0.950 . S
H299 C286 0.951 . S
C300 C301 1.386 . S
C300 C302 1.383 . S
C300 H316 0.951 . S
C301 C300 1.386 . S
C301 C305 1.383 . S
C302 C300 1.383 . S
C302 C303 1.402 . S
C302 H317 0.951 . S
C303 C302 1.402 . S
C303 C304 1.375 . S
C303 C306 1.481 . S
C304 C303 1.375 . S
C304 C305 1.367 . S
C304 H318 0.951 . S
C305 C301 1.383 . S
C305 C304 1.367 . S
C305 H319 0.950 1_655 S
C306 C303 1.481 . S
C306 C307 1.297 . S
C306 H320 0.950 . S
C307 C306 1.297 . S
C307 C308 1.479 . S
C307 H321 0.950 . S
C308 C307 1.479 . S
C308 C309 1.375 . S
C308 C314 1.404 . S
C309 C308 1.375 . S
C309 C310 1.369 . S
C309 H322 0.950 . S
C310 C309 1.369 . S
C310 C311 1.392 . S
C310 H323 0.951 . S
C311 C310 1.392 . S
C311 C313 1.384 . S
H312 C314 0.949 . S
C313 C311 1.384 . S
C313 C314 1.385 . S
C313 H315 0.950 . S
C314 C308 1.404 . S
C314 H312 0.949 . S
C314 C313 1.385 . S
H315 C313 0.950 . S
H316 C300 0.951 . S
H317 C302 0.951 . S
H318 C304 0.951 . S
H319 C305 0.950 1_455 S
H320 C306 0.950 . S
H321 C307 0.950 . S
H322 C309 0.950 . S
H323 C310 0.951 . S
C324 C325 1.386 . S
C324 C326 1.383 . S
C324 H340 0.951 . S
C325 C324 1.386 . S
C325 C329 1.383 . S
C326 C324 1.383 . S
C326 C327 1.402 . S
C326 H341 0.951 . S
C327 C326 1.402 . S
C327 C328 1.375 . S
C327 C330 1.481 . S
C328 C327 1.375 . S
C328 C329 1.367 . S
C328 H342 0.951 . S
C329 C325 1.383 . S
C329 C328 1.367 . S
C329 H343 0.950 . S
C330 C327 1.481 . S
C330 C331 1.297 . S
C330 H344 0.950 . S
C331 C330 1.297 . S
C331 C332 1.479 . S
C331 H345 0.950 . S
C332 C331 1.479 . S
C332 C333 1.375 . S
C332 C338 1.404 . S
C333 C332 1.375 . S
C333 C334 1.369 . S
C333 H346 0.950 . S
C334 C333 1.369 . S
C334 C335 1.392 . S
C334 H347 0.951 . S
C335 C334 1.392 . S
C335 C337 1.384 . S
H336 C338 0.949 . S
C337 C335 1.384 . S
C337 C338 1.385 . S
C337 H339 0.950 . S
C338 C332 1.404 . S
C338 H336 0.949 . S
C338 C337 1.385 . S
H339 C337 0.950 . S
H340 C324 0.951 . S
H341 C326 0.951 . S
H342 C328 0.951 . S
H343 C329 0.950 . S
H344 C330 0.950 . S
H345 C331 0.950 . S
H346 C333 0.950 . S
H347 C334 0.951 . S
C348 C349 1.386 . S
C348 C350 1.383 . S
C348 H364 0.951 . S
C349 C348 1.386 . S
C349 C353 1.383 . S
C350 C348 1.383 . S
C350 C351 1.402 . S
C350 H365 0.951 . S
C351 C350 1.402 . S
C351 C352 1.375 . S
C351 C354 1.481 . S
C352 C351 1.375 . S
C352 C353 1.367 . S
C352 H366 0.951 . S
C353 C349 1.383 . S
C353 C352 1.367 . S
C353 H367 0.950 . S
C354 C351 1.481 . S
C354 C355 1.297 . S
C354 H368 0.950 . S
C355 C354 1.297 . S
C355 C356 1.479 . S
C355 H369 0.950 . S
C356 C355 1.479 . S
C356 C357 1.375 . S
C356 C362 1.404 . S
C357 C356 1.375 . S
C357 C358 1.369 . S
C357 H370 0.950 . S
C358 C357 1.369 . S
C358 C359 1.392 . S
C358 H371 0.951 . S
C359 C358 1.392 . S
C359 C361 1.384 . S
H360 C362 0.949 . S
C361 C359 1.384 . S
C361 C362 1.385 . S
C361 H363 0.950 . S
C362 C356 1.404 . S
C362 H360 0.949 . S
C362 C361 1.385 . S
H363 C361 0.950 . S
H364 C348 0.951 . S
H365 C350 0.951 . S
H366 C352 0.951 . S
H367 C353 0.950 . S
H368 C354 0.950 . S
H369 C355 0.950 . S
H370 C357 0.950 . S
H371 C358 0.951 . S
C85 C16 1.375 . S
C95 C61 1.216 . S
C109 C38 1.452 . S
C119 C67 1.295 . S
C133 C13 1.341 . S
C143 C58 1.222 . S
C157 C35 1.540 . S
C167 C83 1.480 . S
C181 C18 1.351 . S
C191 C49 1.367 . S
C215 C66 1.437 . S
C205 C36 1.236 . S
C229 C37 1.352 . S
C239 C62 1.276 . S
C263 C79 1.363 . S
C253 C15 1.299 . S
C287 C46 1.385 . S
C277 C39 1.361 . S
C311 C82 1.330 . S
C301 C14 1.501 . S
C335 C45 1.218 . S
C325 C34 1.278 . S
C359 C70 1.330 . S
C349 C17 1.489 . S
