# Generated by pormake.
# Topology gar, (4,6)-cn, num edge types: 1
# Building blocks:
#     Node 0, Type 0, BuildingBlock: NAHDIM_clean_sbu_0, # of connection points: 4
#     Node 1, Type 0, BuildingBlock: NAHDIM_clean_sbu_0, # of connection points: 4
#     Node 2, Type 0, BuildingBlock: NAHDIM_clean_sbu_0, # of connection points: 4
#     Node 3, Type 0, BuildingBlock: NAHDIM_clean_sbu_0, # of connection points: 4
#     Node 4, Type 0, BuildingBlock: NAHDIM_clean_sbu_0, # of connection points: 4
#     Node 5, Type 0, BuildingBlock: NAHDIM_clean_sbu_0, # of connection points: 4
#     Node 6, Type 0, BuildingBlock: NAHDIM_clean_sbu_0, # of connection points: 4
#     Node 7, Type 0, BuildingBlock: NAHDIM_clean_sbu_0, # of connection points: 4
#     Node 8, Type 0, BuildingBlock: NAHDIM_clean_sbu_0, # of connection points: 4
#     Node 9, Type 0, BuildingBlock: NAHDIM_clean_sbu_0, # of connection points: 4
#     Node 10, Type 0, BuildingBlock: NAHDIM_clean_sbu_0, # of connection points: 4
#     Node 11, Type 0, BuildingBlock: NAHDIM_clean_sbu_0, # of connection points: 4
#     Node 12, Type 0, BuildingBlock: NAHDIM_clean_sbu_0, # of connection points: 4
#     Node 13, Type 0, BuildingBlock: NAHDIM_clean_sbu_0, # of connection points: 4
#     Node 14, Type 0, BuildingBlock: NAHDIM_clean_sbu_0, # of connection points: 4
#     Node 15, Type 0, BuildingBlock: NAHDIM_clean_sbu_0, # of connection points: 4
#     Node 16, Type 0, BuildingBlock: NAHDIM_clean_sbu_0, # of connection points: 4
#     Node 17, Type 0, BuildingBlock: NAHDIM_clean_sbu_0, # of connection points: 4
#     Node 18, Type 0, BuildingBlock: NAHDIM_clean_sbu_0, # of connection points: 4
#     Node 19, Type 0, BuildingBlock: NAHDIM_clean_sbu_0, # of connection points: 4
#     Node 20, Type 0, BuildingBlock: NAHDIM_clean_sbu_0, # of connection points: 4
#     Node 21, Type 0, BuildingBlock: NAHDIM_clean_sbu_0, # of connection points: 4
#     Node 22, Type 0, BuildingBlock: NAHDIM_clean_sbu_0, # of connection points: 4
#     Node 23, Type 0, BuildingBlock: NAHDIM_clean_sbu_0, # of connection points: 4
#     Node 24, Type 1, BuildingBlock: KUMBOL_clean_sbu_1, # of connection points: 6
#     Node 25, Type 1, BuildingBlock: KUMBOL_clean_sbu_1, # of connection points: 6
#     Node 26, Type 1, BuildingBlock: KUMBOL_clean_sbu_1, # of connection points: 6
#     Node 27, Type 1, BuildingBlock: KUMBOL_clean_sbu_1, # of connection points: 6
#     Node 28, Type 1, BuildingBlock: KUMBOL_clean_sbu_1, # of connection points: 6
#     Node 29, Type 1, BuildingBlock: KUMBOL_clean_sbu_1, # of connection points: 6
#     Node 30, Type 1, BuildingBlock: KUMBOL_clean_sbu_1, # of connection points: 6
#     Node 31, Type 1, BuildingBlock: KUMBOL_clean_sbu_1, # of connection points: 6
#     Node 32, Type 1, BuildingBlock: KUMBOL_clean_sbu_1, # of connection points: 6
#     Node 33, Type 1, BuildingBlock: KUMBOL_clean_sbu_1, # of connection points: 6
#     Node 34, Type 1, BuildingBlock: KUMBOL_clean_sbu_1, # of connection points: 6
#     Node 35, Type 1, BuildingBlock: KUMBOL_clean_sbu_1, # of connection points: 6
#     Node 36, Type 1, BuildingBlock: KUMBOL_clean_sbu_1, # of connection points: 6
#     Node 37, Type 1, BuildingBlock: KUMBOL_clean_sbu_1, # of connection points: 6
#     Node 38, Type 1, BuildingBlock: KUMBOL_clean_sbu_1, # of connection points: 6
#     Node 39, Type 1, BuildingBlock: KUMBOL_clean_sbu_1, # of connection points: 6
#     Edge 40, Type (0, 1), BuildingBlock: ZUJKAS_clean_linker_0, # of connection points: 2
#     Edge 41, Type (0, 1), BuildingBlock: ZUJKAS_clean_linker_0, # of connection points: 2
#     Edge 42, Type (0, 1), BuildingBlock: ZUJKAS_clean_linker_0, # of connection points: 2
#     Edge 43, Type (0, 1), BuildingBlock: ZUJKAS_clean_linker_0, # of connection points: 2
#     Edge 44, Type (0, 1), BuildingBlock: ZUJKAS_clean_linker_0, # of connection points: 2
#     Edge 45, Type (0, 1), BuildingBlock: ZUJKAS_clean_linker_0, # of connection points: 2
#     Edge 46, Type (0, 1), BuildingBlock: ZUJKAS_clean_linker_0, # of connection points: 2
#     Edge 47, Type (0, 1), BuildingBlock: ZUJKAS_clean_linker_0, # of connection points: 2
#     Edge 48, Type (0, 1), BuildingBlock: ZUJKAS_clean_linker_0, # of connection points: 2
#     Edge 49, Type (0, 1), BuildingBlock: ZUJKAS_clean_linker_0, # of connection points: 2
#     Edge 50, Type (0, 1), BuildingBlock: ZUJKAS_clean_linker_0, # of connection points: 2
#     Edge 51, Type (0, 1), BuildingBlock: ZUJKAS_clean_linker_0, # of connection points: 2
#     Edge 52, Type (0, 1), BuildingBlock: ZUJKAS_clean_linker_0, # of connection points: 2
#     Edge 53, Type (0, 1), BuildingBlock: ZUJKAS_clean_linker_0, # of connection points: 2
#     Edge 54, Type (0, 1), BuildingBlock: ZUJKAS_clean_linker_0, # of connection points: 2
#     Edge 55, Type (0, 1), BuildingBlock: ZUJKAS_clean_linker_0, # of connection points: 2
#     Edge 56, Type (0, 1), BuildingBlock: ZUJKAS_clean_linker_0, # of connection points: 2
#     Edge 57, Type (0, 1), BuildingBlock: ZUJKAS_clean_linker_0, # of connection points: 2
#     Edge 58, Type (0, 1), BuildingBlock: ZUJKAS_clean_linker_0, # of connection points: 2
#     Edge 59, Type (0, 1), BuildingBlock: ZUJKAS_clean_linker_0, # of connection points: 2
#     Edge 60, Type (0, 1), BuildingBlock: ZUJKAS_clean_linker_0, # of connection points: 2
#     Edge 61, Type (0, 1), BuildingBlock: ZUJKAS_clean_linker_0, # of connection points: 2
#     Edge 62, Type (0, 1), BuildingBlock: ZUJKAS_clean_linker_0, # of connection points: 2
#     Edge 63, Type (0, 1), BuildingBlock: ZUJKAS_clean_linker_0, # of connection points: 2
#     Edge 64, Type (0, 1), BuildingBlock: ZUJKAS_clean_linker_0, # of connection points: 2
#     Edge 65, Type (0, 1), BuildingBlock: ZUJKAS_clean_linker_0, # of connection points: 2
#     Edge 66, Type (0, 1), BuildingBlock: ZUJKAS_clean_linker_0, # of connection points: 2
#     Edge 67, Type (0, 1), BuildingBlock: ZUJKAS_clean_linker_0, # of connection points: 2
#     Edge 68, Type (0, 1), BuildingBlock: ZUJKAS_clean_linker_0, # of connection points: 2
#     Edge 69, Type (0, 1), BuildingBlock: ZUJKAS_clean_linker_0, # of connection points: 2
#     Edge 70, Type (0, 1), BuildingBlock: ZUJKAS_clean_linker_0, # of connection points: 2
#     Edge 71, Type (0, 1), BuildingBlock: ZUJKAS_clean_linker_0, # of connection points: 2
#     Edge 72, Type (0, 1), BuildingBlock: ZUJKAS_clean_linker_0, # of connection points: 2
#     Edge 73, Type (0, 1), BuildingBlock: ZUJKAS_clean_linker_0, # of connection points: 2
#     Edge 74, Type (0, 1), BuildingBlock: ZUJKAS_clean_linker_0, # of connection points: 2
#     Edge 75, Type (0, 1), BuildingBlock: ZUJKAS_clean_linker_0, # of connection points: 2
#     Edge 76, Type (0, 1), BuildingBlock: ZUJKAS_clean_linker_0, # of connection points: 2
#     Edge 77, Type (0, 1), BuildingBlock: ZUJKAS_clean_linker_0, # of connection points: 2
#     Edge 78, Type (0, 1), BuildingBlock: ZUJKAS_clean_linker_0, # of connection points: 2
#     Edge 79, Type (0, 1), BuildingBlock: ZUJKAS_clean_linker_0, # of connection points: 2
#     Edge 80, Type (0, 1), BuildingBlock: ZUJKAS_clean_linker_0, # of connection points: 2
#     Edge 81, Type (0, 1), BuildingBlock: ZUJKAS_clean_linker_0, # of connection points: 2
#     Edge 82, Type (0, 1), BuildingBlock: ZUJKAS_clean_linker_0, # of connection points: 2
#     Edge 83, Type (0, 1), BuildingBlock: ZUJKAS_clean_linker_0, # of connection points: 2
#     Edge 84, Type (0, 1), BuildingBlock: ZUJKAS_clean_linker_0, # of connection points: 2
#     Edge 85, Type (0, 1), BuildingBlock: ZUJKAS_clean_linker_0, # of connection points: 2
#     Edge 86, Type (0, 1), BuildingBlock: ZUJKAS_clean_linker_0, # of connection points: 2
#     Edge 87, Type (0, 1), BuildingBlock: ZUJKAS_clean_linker_0, # of connection points: 2
#     Edge 88, Type (0, 1), BuildingBlock: ZUJKAS_clean_linker_0, # of connection points: 2
#     Edge 89, Type (0, 1), BuildingBlock: ZUJKAS_clean_linker_0, # of connection points: 2
#     Edge 90, Type (0, 1), BuildingBlock: ZUJKAS_clean_linker_0, # of connection points: 2
#     Edge 91, Type (0, 1), BuildingBlock: ZUJKAS_clean_linker_0, # of connection points: 2
#     Edge 92, Type (0, 1), BuildingBlock: ZUJKAS_clean_linker_0, # of connection points: 2
#     Edge 93, Type (0, 1), BuildingBlock: ZUJKAS_clean_linker_0, # of connection points: 2
#     Edge 94, Type (0, 1), BuildingBlock: ZUJKAS_clean_linker_0, # of connection points: 2
#     Edge 95, Type (0, 1), BuildingBlock: ZUJKAS_clean_linker_0, # of connection points: 2
#     Edge 96, Type (0, 1), BuildingBlock: ZUJKAS_clean_linker_0, # of connection points: 2
#     Edge 97, Type (0, 1), BuildingBlock: ZUJKAS_clean_linker_0, # of connection points: 2
#     Edge 98, Type (0, 1), BuildingBlock: ZUJKAS_clean_linker_0, # of connection points: 2
#     Edge 99, Type (0, 1), BuildingBlock: ZUJKAS_clean_linker_0, # of connection points: 2
#     Edge 100, Type (0, 1), BuildingBlock: ZUJKAS_clean_linker_0, # of connection points: 2
#     Edge 101, Type (0, 1), BuildingBlock: ZUJKAS_clean_linker_0, # of connection points: 2
#     Edge 102, Type (0, 1), BuildingBlock: ZUJKAS_clean_linker_0, # of connection points: 2
#     Edge 103, Type (0, 1), BuildingBlock: ZUJKAS_clean_linker_0, # of connection points: 2
#     Edge 104, Type (0, 1), BuildingBlock: ZUJKAS_clean_linker_0, # of connection points: 2
#     Edge 105, Type (0, 1), BuildingBlock: ZUJKAS_clean_linker_0, # of connection points: 2
#     Edge 106, Type (0, 1), BuildingBlock: ZUJKAS_clean_linker_0, # of connection points: 2
#     Edge 107, Type (0, 1), BuildingBlock: ZUJKAS_clean_linker_0, # of connection points: 2
#     Edge 108, Type (0, 1), BuildingBlock: ZUJKAS_clean_linker_0, # of connection points: 2
#     Edge 109, Type (0, 1), BuildingBlock: ZUJKAS_clean_linker_0, # of connection points: 2
#     Edge 110, Type (0, 1), BuildingBlock: ZUJKAS_clean_linker_0, # of connection points: 2
#     Edge 111, Type (0, 1), BuildingBlock: ZUJKAS_clean_linker_0, # of connection points: 2
#     Edge 112, Type (0, 1), BuildingBlock: ZUJKAS_clean_linker_0, # of connection points: 2
#     Edge 113, Type (0, 1), BuildingBlock: ZUJKAS_clean_linker_0, # of connection points: 2
#     Edge 114, Type (0, 1), BuildingBlock: ZUJKAS_clean_linker_0, # of connection points: 2
#     Edge 115, Type (0, 1), BuildingBlock: ZUJKAS_clean_linker_0, # of connection points: 2
#     Edge 116, Type (0, 1), BuildingBlock: ZUJKAS_clean_linker_0, # of connection points: 2
#     Edge 117, Type (0, 1), BuildingBlock: ZUJKAS_clean_linker_0, # of connection points: 2
#     Edge 118, Type (0, 1), BuildingBlock: ZUJKAS_clean_linker_0, # of connection points: 2
#     Edge 119, Type (0, 1), BuildingBlock: ZUJKAS_clean_linker_0, # of connection points: 2
#     Edge 120, Type (0, 1), BuildingBlock: ZUJKAS_clean_linker_0, # of connection points: 2
#     Edge 121, Type (0, 1), BuildingBlock: ZUJKAS_clean_linker_0, # of connection points: 2
#     Edge 122, Type (0, 1), BuildingBlock: ZUJKAS_clean_linker_0, # of connection points: 2
#     Edge 123, Type (0, 1), BuildingBlock: ZUJKAS_clean_linker_0, # of connection points: 2
#     Edge 124, Type (0, 1), BuildingBlock: ZUJKAS_clean_linker_0, # of connection points: 2
#     Edge 125, Type (0, 1), BuildingBlock: ZUJKAS_clean_linker_0, # of connection points: 2
#     Edge 126, Type (0, 1), BuildingBlock: ZUJKAS_clean_linker_0, # of connection points: 2
#     Edge 127, Type (0, 1), BuildingBlock: ZUJKAS_clean_linker_0, # of connection points: 2
#     Edge 128, Type (0, 1), BuildingBlock: ZUJKAS_clean_linker_0, # of connection points: 2
#     Edge 129, Type (0, 1), BuildingBlock: ZUJKAS_clean_linker_0, # of connection points: 2
#     Edge 130, Type (0, 1), BuildingBlock: ZUJKAS_clean_linker_0, # of connection points: 2
#     Edge 131, Type (0, 1), BuildingBlock: ZUJKAS_clean_linker_0, # of connection points: 2
#     Edge 132, Type (0, 1), BuildingBlock: ZUJKAS_clean_linker_0, # of connection points: 2
#     Edge 133, Type (0, 1), BuildingBlock: ZUJKAS_clean_linker_0, # of connection points: 2
#     Edge 134, Type (0, 1), BuildingBlock: ZUJKAS_clean_linker_0, # of connection points: 2
#     Edge 135, Type (0, 1), BuildingBlock: ZUJKAS_clean_linker_0, # of connection points: 2
# Relax obj value: 0.070
# Max RMSD: 0.187
# Mean RMSD: 0.133
data_MOF--net-gar--node1-NAHDIM_clean_sbu_0--node2-KUMBOL_clean_sbu_1--edge1-ZUJKAS_clean_linker_0
_symmetry_space_group_name_H-M    P1
_symmetry_Int_Tables_number       1
_symmetry_cell_setting            triclinic
loop_
_symmetry_equiv_pos_as_xyz
'x, y, z'
_cell_length_a     77.61672
_cell_length_b     76.43432
_cell_length_c     70.513009
_cell_angle_alpha  95.792089
_cell_angle_beta   96.038458
_cell_angle_gamma 101.05924
loop_
_atom_site_label
_atom_site_type_symbol
_atom_site_fract_x
_atom_site_fract_y
_atom_site_fract_z
_atom_type_partial_charge
C0 C 0.07338 0.29107 0.34228 0.0
O1 O 0.07151 0.28165 0.35677 0.0
O2 O 0.0377 0.27571 0.36793 0.0
Zn3 Zn 0.03819 0.2979 0.35287 0.0
O4 O 0.04241 0.32122 0.37251 0.0
C5 C 0.99884 0.28392 0.33792 0.0
O6 O 1.00129 0.27045 0.34731 0.0
O7 O 0.06092 0.29927 0.33719 0.0
C8 C 0.02937 0.32694 0.37881 0.0
O9 O 0.01331 0.31758 0.373 0.0
C10 C 0.02876 0.27202 0.38173 0.0
O11 O 0.01858 0.28289 0.38739 0.0
O12 O 0.01243 0.29628 0.33691 0.0
C13 C 0.97781 0.7528 0.69659 0.0
O14 O 0.97752 0.75622 0.67868 0.0
O15 O 0.01271 0.72169 0.67241 0.0
Zn16 Zn 0.01425 0.74716 0.68831 0.0
O17 O 0.01409 0.76656 0.66952 0.0
C18 C 0.0527 0.74795 0.69693 0.0
O19 O 0.04916 0.74053 0.67895 0.0
O20 O 0.99185 0.74829 0.70436 0.0
C21 C 0.024 0.7822 0.67336 0.0
O22 O 0.03505 0.78583 0.68935 0.0
C23 C 0.00672 0.71658 0.65467 0.0
O24 O 0.99932 0.72753 0.64488 0.0
O25 O 0.03987 0.75252 0.70505 0.0
C26 C 0.57273 0.79031 0.84191 0.0
O27 O 0.57026 0.78035 0.8559 0.0
O28 O 0.53618 0.77586 0.86714 0.0
Zn29 Zn 0.53773 0.79837 0.85244 0.0
O30 O 0.54183 0.82202 0.87191 0.0
C31 C 0.49822 0.78742 0.84134 0.0
O32 O 0.50032 0.77878 0.85633 0.0
O33 O 0.56074 0.79921 0.83715 0.0
C34 C 0.5292 0.82701 0.87989 0.0
O35 O 0.51335 0.81668 0.87611 0.0
C36 C 0.53492 0.77551 0.88502 0.0
O37 O 0.53435 0.79049 0.89562 0.0
O38 O 0.51223 0.79635 0.83583 0.0
C39 C 0.47664 0.2492 0.19657 0.0
O40 O 0.47494 0.24771 0.17771 0.0
O41 O 0.51216 0.2237 0.17228 0.0
Zn42 Zn 0.51419 0.24893 0.18909 0.0
O43 O 0.51294 0.26952 0.17217 0.0
C44 C 0.55161 0.24545 0.20178 0.0
O45 O 0.54681 0.23171 0.18826 0.0
O46 O 0.49209 0.24942 0.20542 0.0
C47 C 0.52452 0.27621 0.1619 0.0
O48 O 0.53865 0.26922 0.16082 0.0
C49 C 0.50911 0.21991 0.15395 0.0
O50 O 0.50551 0.23245 0.14364 0.0
O51 O 0.54007 0.25493 0.20551 0.0
C52 C 0.01417 0.77862 0.12184 0.0
O53 O 0.01032 0.76997 0.10438 0.0
O54 O 0.04865 0.75977 0.09674 0.0
Zn55 Zn 0.05074 0.7861 0.11096 0.0
O56 O 0.0492 0.80726 0.09334 0.0
C57 C 0.0898 0.79153 0.12579 0.0
O58 O 0.09223 0.79272 0.10777 0.0
O59 O 0.03025 0.78614 0.12776 0.0
C60 C 0.05657 0.82382 0.09875 0.0
O61 O 0.0669 0.82772 0.11524 0.0
C62 C 0.03972 0.75093 0.08125 0.0
O63 O 0.02946 0.7589 0.07057 0.0
O64 O 0.07407 0.78983 0.13026 0.0
C65 C 0.53903 0.76996 0.41845 0.0
O66 O 0.54243 0.77973 0.43534 0.0
O67 O 0.50031 0.73787 0.4434 0.0
Zn68 Zn 0.50306 0.76187 0.42991 0.0
O69 O 0.50965 0.78697 0.44752 0.0
C70 C 0.46474 0.75317 0.41186 0.0
O71 O 0.46243 0.74219 0.42498 0.0
O72 O 0.52327 0.76114 0.41298 0.0
C73 C 0.49857 0.79691 0.45119 0.0
O74 O 0.4817 0.79064 0.44527 0.0
C75 C 0.51178 0.73397 0.4559 0.0
O76 O 0.52601 0.74629 0.46245 0.0
O77 O 0.48028 0.76225 0.41131 0.0
C78 C 0.51509 0.28178 0.62333 0.0
O79 O 0.51115 0.27494 0.60518 0.0
O80 O 0.54488 0.25966 0.59752 0.0
Zn81 Zn 0.55074 0.28643 0.61172 0.0
O82 O 0.54885 0.30718 0.59372 0.0
C83 C 0.58562 0.27895 0.62818 0.0
O84 O 0.58022 0.26437 0.61585 0.0
O85 O 0.53138 0.28767 0.6299 0.0
C86 C 0.55407 0.32382 0.60055 0.0
O87 O 0.56169 0.32753 0.61843 0.0
C88 C 0.5509 0.25306 0.58276 0.0
O89 O 0.56154 0.26399 0.57384 0.0
O90 O 0.57573 0.29059 0.62893 0.0
C91 C 0.03908 0.27119 0.91875 0.0
O92 O 0.04345 0.27893 0.93656 0.0
O93 O 0.00574 0.23814 0.94469 0.0
Zn94 Zn 0.00379 0.26214 0.93185 0.0
O95 O 0.00892 0.2872 0.9501 0.0
C96 C 0.96613 0.24804 0.90959 0.0
O97 O 0.96646 0.2322 0.91516 0.0
O98 O 0.02294 0.26357 0.91325 0.0
C99 C 1.00289 0.30004 0.94308 0.0
O100 O 0.99353 0.29635 0.92601 0.0
C101 C 0.99675 0.22947 0.9563 0.0
O102 O 0.98372 0.23598 0.96281 0.0
O103 O 0.97955 0.26082 0.91489 0.0
C104 C 0.36732 0.04735 0.3015 0.0
O105 O 0.38454 0.0502 0.3063 0.0
O106 O 0.38969 0.02164 0.272 0.0
Zn107 Zn 0.37423 0.01526 0.29139 0.0
O108 O 0.3891 0.0171 0.31574 0.0
C109 C 0.36076 0.98093 0.27045 0.0
O110 O 0.37097 0.98617 0.25753 0.0
O111 O 0.359 0.03198 0.29393 0.0
C112 C 0.39316 0.00395 0.32339 0.0
O113 O 0.38642 0.98743 0.31539 0.0
C114 C 0.40278 0.01407 0.27118 0.0
O115 O 0.40525 0.00218 0.28286 0.0
O116 O 0.36003 0.99147 0.28519 0.0
C117 C 0.29913 0.15157 0.50436 0.0
O118 O 0.30204 0.16736 0.4981 0.0
O119 O 0.26814 0.17518 0.53509 0.0
Zn120 Zn 0.26585 0.16085 0.50896 0.0
O121 O 0.26995 0.17629 0.48747 0.0
C122 C 0.22849 0.14964 0.50952 0.0
O123 O 0.23044 0.16618 0.51787 0.0
O124 O 0.28432 0.14576 0.51001 0.0
C125 C 0.25818 0.18212 0.47749 0.0
O126 O 0.2418 0.17878 0.48146 0.0
C127 C 0.26921 0.19202 0.53855 0.0
O128 O 0.26914 0.20173 0.5242 0.0
O129 O 0.24187 0.14431 0.50397 0.0
C130 C 0.1467 0.99908 0.78666 0.0
O131 O 0.13013 0.99548 0.78998 0.0
O132 O 0.12341 0.0293 0.75678 0.0
Zn133 Zn 0.13805 0.0334 0.78308 0.0
O134 O 0.12289 0.0297 0.80467 0.0
C135 C 0.14948 0.07127 0.77914 0.0
O136 O 0.13434 0.06838 0.76795 0.0
O137 O 0.15339 0.01482 0.78327 0.0
C138 C 0.11651 0.04176 0.81361 0.0
O139 O 0.11915 0.058 0.80843 0.0
C140 C 0.10842 0.03348 0.75319 0.0
O141 O 0.10125 0.04064 0.76732 0.0
O142 O 0.15384 0.05841 0.78739 0.0
C143 C 0.25365 0.93767 0.99113 0.0
O144 O 0.25351 0.92039 0.9895 0.0
O145 O 0.28244 0.92039 0.02128 0.0
Zn146 Zn 0.28708 0.93661 0.0014 0.0
O147 O 0.28853 0.92295 0.97695 0.0
C148 C 0.32094 0.94839 0.02026 0.0
O149 O 0.31643 0.93423 0.02912 0.0
O150 O 0.2679 0.94891 0.99691 0.0
C151 C 0.29938 0.91265 0.97544 0.0
O152 O 0.31026 0.9112 0.99051 0.0
C153 C 0.27763 0.90343 0.01827 0.0
O154 O 0.27372 0.89521 0.00062 0.0
O155 O 0.30952 0.95315 0.00882 0.0
C156 C 0.25259 0.39499 0.03096 0.0
O157 O 0.24854 0.37736 0.02783 0.0
O158 O 0.28811 0.37637 0.05742 0.0
Zn159 Zn 0.28757 0.38821 0.03308 0.0
O160 O 0.28209 0.37056 0.00864 0.0
C161 C 0.32495 0.40367 0.04308 0.0
O162 O 0.32424 0.39098 0.05439 0.0
O163 O 0.26877 0.40286 0.03355 0.0
C164 C 0.29458 0.36632 3e-05 0.0
O165 O 0.311 0.37255 0.00791 0.0
C166 C 0.28176 0.35999 0.0587 0.0
O167 O 0.27441 0.34918 0.04307 0.0
O168 O 0.31093 0.40507 0.0328 0.0
C169 C 0.80071 0.11288 0.04659 0.0
O170 O 0.80261 0.13017 0.04545 0.0
O171 O 0.77183 0.13489 0.06823 0.0
Zn172 Zn 0.76792 0.11821 0.04496 0.0
O173 O 0.77075 0.13307 0.02353 0.0
C174 C 0.73457 0.102 0.05493 0.0
O175 O 0.74036 0.11054 0.0722 0.0
O176 O 0.7855 0.10341 0.04664 0.0
C177 C 0.75821 0.13255 0.01034 0.0
O178 O 0.74299 0.12143 0.01 0.0
C179 C 0.76307 0.14723 0.06853 0.0
O180 O 0.75146 0.14782 0.05376 0.0
O181 O 0.74444 0.10315 0.04176 0.0
C182 C 0.18124 0.49633 0.24238 0.0
O183 O 0.16495 0.49507 0.24647 0.0
O184 O 0.15985 0.52832 0.22284 0.0
Zn185 Zn 0.17769 0.5305 0.24508 0.0
O186 O 0.16645 0.52858 0.26909 0.0
C187 C 0.18725 0.56615 0.24016 0.0
O188 O 0.17063 0.56312 0.23254 0.0
O189 O 0.19049 0.51149 0.24083 0.0
C190 C 0.15939 0.5411 0.27586 0.0
O191 O 0.16006 0.55563 0.26729 0.0
C192 C 0.14324 0.5242 0.22255 0.0
O193 O 0.13631 0.51913 0.23782 0.0
O194 O 0.19378 0.55366 0.24662 0.0
C195 C 0.75396 0.89986 0.54146 0.0
O196 O 0.75307 0.88784 0.55357 0.0
O197 O 0.78392 0.87489 0.55779 0.0
Zn198 Zn 0.78594 0.88741 0.53352 0.0
O199 O 0.78115 0.86995 0.50884 0.0
C200 C 0.82426 0.90288 0.54366 0.0
O201 O 0.82411 0.88964 0.55417 0.0
O202 O 0.76687 0.90214 0.53161 0.0
C203 C 0.79309 0.86352 0.50116 0.0
O204 O 0.80932 0.86722 0.51015 0.0
C205 C 0.79093 0.86196 0.56254 0.0
O206 O 0.80101 0.85524 0.55114 0.0
O207 O 0.80986 0.90449 0.53422 0.0
C208 C 0.90517 0.04782 0.25149 0.0
O209 O 0.91755 0.04934 0.24005 0.0
O210 O 0.92816 0.01651 0.23404 0.0
Zn211 Zn 0.91646 0.01468 0.25828 0.0
O212 O 0.9342 0.01825 0.28246 0.0
C213 C 0.90042 0.97642 0.24709 0.0
O214 O 0.91354 0.97645 0.23676 0.0
O215 O 0.90252 0.03427 0.26068 0.0
C216 C 0.9341 0.00575 0.29311 0.0
O217 O 0.9233 0.9902 0.28753 0.0
C218 C 0.94161 0.01027 0.23022 0.0
O219 O 0.9491 1.00151 0.24273 0.0
O220 O 0.89905 0.99097 0.25672 0.0
C221 C 0.29684 0.60499 0.55671 0.0
O222 O 0.29652 0.61507 0.57284 0.0
O223 O 0.27127 0.63486 0.56648 0.0
Zn224 Zn 0.26739 0.61851 0.54297 0.0
O225 O 0.26958 0.63318 0.52178 0.0
C226 C 0.23459 0.60101 0.55333 0.0
O227 O 0.24069 0.60864 0.57091 0.0
O228 O 0.28507 0.60409 0.54263 0.0
C229 C 0.2565 0.63347 0.50957 0.0
O230 O 0.24096 0.6234 0.51057 0.0
C231 C 0.26223 0.64693 0.56756 0.0
O232 O 0.25034 0.64776 0.55315 0.0
O233 O 0.24418 0.60306 0.53998 0.0
C234 C 0.40756 0.54958 0.7589 0.0
O235 O 0.42485 0.55447 0.75998 0.0
O236 O 0.4282 0.51696 0.73274 0.0
Zn237 Zn 0.41568 0.51437 0.75647 0.0
O238 O 0.43261 0.51896 0.78149 0.0
C239 C 0.40224 0.47514 0.7483 0.0
O240 O 0.41771 0.4746 0.74258 0.0
O241 O 0.40058 0.53297 0.75745 0.0
C242 C 0.43582 0.5062 0.7907 0.0
O243 O 0.42884 0.48958 0.78333 0.0
C244 C 0.44145 0.51035 0.72889 0.0
O245 O 0.44843 0.50103 0.74118 0.0
O246 O 0.39883 0.4902 0.75435 0.0
C247 C 0.6842 0.99898 0.74167 0.0
O248 O 0.667 0.99587 0.73663 0.0
O249 O 0.66126 0.0284 0.72464 0.0
Zn250 Zn 0.67865 0.0332 0.74771 0.0
O251 O 0.66752 0.03299 0.7714 0.0
C252 C 0.68958 0.06743 0.73642 0.0
O253 O 0.67492 0.06277 0.72436 0.0
O254 O 0.69264 0.01488 0.74704 0.0
C255 C 0.6577 0.04386 0.7756 0.0
O256 O 0.6547 0.05561 0.76393 0.0
C257 C 0.64456 0.02506 0.72358 0.0
O258 O 0.63683 0.02313 0.73914 0.0
O259 O 0.69389 0.05659 0.74762 0.0
C260 C 0.79851 0.65166 0.00543 0.0
O261 O 0.80065 0.66742 -0.0009 0.0
O262 O 0.76503 0.6756 0.03275 0.0
Zn263 Zn 0.76382 0.65876 0.00811 0.0
O264 O 0.76548 0.67132 0.98426 0.0
C265 C 0.72762 0.64595 0.01275 0.0
O266 O 0.73038 0.66165 0.02324 0.0
O267 O 0.78364 0.645 0.01052 0.0
C268 C 0.76462 0.68761 0.98305 0.0
O269 O 0.76238 0.69782 0.99835 0.0
C270 C 0.7775 0.68828 0.04088 0.0
O271 O 0.79205 0.69218 0.03283 0.0
O272 O 0.74013 0.6414 0.00442 0.0
C273 C 0.86728 0.5491 0.79914 0.0
O274 O 0.88445 0.5514 0.79875 0.0
O275 O 0.88636 0.52166 0.7714 0.0
Zn276 Zn 0.87246 0.51626 0.79276 0.0
O277 O 0.88792 0.51825 0.81688 0.0
C278 C 0.86325 0.48088 0.7763 0.0
O279 O 0.878 0.4853 0.76876 0.0
O280 O 0.8578 0.53347 0.79643 0.0
C281 C 0.89396 0.50531 0.82289 0.0
O282 O 0.88959 0.48929 0.81294 0.0
C283 C 0.90271 0.52133 0.77307 0.0
O284 O 0.91071 0.51863 0.78953 0.0
O285 O 0.85795 0.49251 0.78699 0.0
C286 C 0.7534 0.43953 0.4918 0.0
O287 O 0.7521 0.42291 0.48401 0.0
O288 O 0.78445 0.41993 0.5243 0.0
Zn289 Zn 0.7865 0.43456 0.50311 0.0
O290 O 0.78487 0.41872 0.47904 0.0
C291 C 0.82184 0.44162 0.51133 0.0
O292 O 0.81781 0.42458 0.51379 0.0
O293 O 0.76776 0.448 0.50147 0.0
C294 C 0.79504 0.42051 0.46617 0.0
O295 O 0.80836 0.43432 0.468 0.0
C296 C 0.77948 0.403 0.52132 0.0
O297 O 0.77385 0.39492 0.50382 0.0
O298 O 0.80966 0.45002 0.50724 0.0
C299 C 0.64841 0.5003 0.28879 0.0
O300 O 0.63461 0.49867 0.29826 0.0
O301 O 0.6242 0.53427 0.25796 0.0
Zn302 Zn 0.63923 0.53449 0.28326 0.0
O303 O 0.62522 0.53135 0.30567 0.0
C304 C 0.65064 0.57209 0.28301 0.0
O305 O 0.63418 0.56995 0.27501 0.0
O306 O 0.65292 0.51448 0.28093 0.0
C307 C 0.61229 0.53847 0.3095 0.0
O308 O 0.60653 0.54909 0.29789 0.0
C309 C 0.60935 0.52419 0.25133 0.0
O310 O 0.60198 0.51204 0.26155 0.0
O311 O 0.65619 0.55854 0.28839 0.0
C312 C 0.98569 0.96949 0.98642 0.0
C313 C 0.96998 0.95429 0.01013 0.0
C314 C 0.97962 0.97007 0.00441 0.0
C315 C 0.96623 0.93819 0.99756 0.0
C316 C 0.98178 0.95334 0.97375 0.0
C317 C 0.97199 0.93775 0.97939 0.0
N318 N 0.99558 0.98463 0.98141 0.0
C319 C 1.00102 0.98483 0.96363 0.0
C320 C 0.98775 0.95334 0.95568 0.0
C321 C 0.99734 0.96918 0.95058 0.0
Gd322 Gd 0.045 0.02993 0.03061 0.0
Gd323 Gd 0.99746 0.01064 0.00254 0.0
N324 N 0.98309 0.98596 0.01623 0.0
C325 C 0.9642 0.95516 0.02826 0.0
C326 C 0.97661 0.98698 0.03348 0.0
C327 C 0.96749 0.97158 0.03995 0.0
H328 H 0.97774 0.99962 0.04208 0.0
H329 H 0.9626 0.97248 0.05376 0.0
H330 H 0.06832 0.03996 0.99469 0.0
H331 H 0.00757 0.99716 0.95909 0.0
H332 H 0.0864 0.0666 0.9842 0.0
H333 H 0.95687 0.9433 0.03321 0.0
H334 H 0.95875 0.926 0.00171 0.0
H335 H 0.03598 0.04313 0.07519 0.0
H336 H 0.98484 0.94124 0.94549 0.0
H337 H 1.00162 0.96942 0.93648 0.0
H338 H 0.08743 0.11397 0.03469 0.0
H339 H 0.96883 0.92525 0.96982 0.0
H340 H 0.05789 0.09914 0.08895 0.0
H341 H 0.04113 0.07082 0.09764 0.0
N342 N 0.04775 0.05578 0.0528 0.0
C343 C 0.05772 0.07106 0.0481 0.0
C344 C 0.04221 0.05551 0.07056 0.0
C345 C 0.0551 0.0871 0.07868 0.0
C346 C 0.04556 0.07116 0.0836 0.0
C347 C 0.06153 0.08715 0.06087 0.0
H348 H 0.07515 0.11507 0.06544 0.0
N349 N 0.06186 0.05452 0.0193 0.0
C350 C 0.06501 0.0704 0.03091 0.0
C351 C 0.08323 0.08449 0.00866 0.0
C352 C 0.07579 0.08584 0.02587 0.0
C353 C 0.06983 0.05288 0.00305 0.0
C354 C 0.08033 0.06789 0.99727 0.0
O355 O 0.01552 0.99053 0.00872 0.0
O356 O 0.03039 0.00331 0.0378 0.0
O357 O 0.06746 0.01716 0.02765 0.0
O358 O 0.06508 0.03271 0.05494 0.0
O359 O 0.99681 0.02504 0.03219 0.0
O360 O 0.02304 0.02116 0.04805 0.0
O361 O 0.03345 0.04899 0.01241 0.0
O362 O 0.00333 0.04101 0.01246 0.0
O363 O 0.96899 0.00692 0.99721 0.0
O364 O 0.98503 0.01612 0.97532 0.0
O365 O 0.04323 0.01487 0.00082 0.0
O366 O 0.01864 0.02242 0.9855 0.0
C367 C 0.02435 0.98897 0.0253 0.0
C368 C 0.00724 0.02488 0.04814 0.0
C369 C 0.09035 0.01889 0.05453 0.0
C370 C 0.11618 0.00615 0.05134 0.0
C371 C 0.1105 0.01761 0.08288 0.0
C372 C 0.09522 0.0224 0.07453 0.0
C373 C 0.12097 0.00941 0.07133 0.0
C374 C 0.10087 0.01081 0.04306 0.0
C375 C 0.07396 0.02279 0.04556 0.0
C376 C 0.07913 0.10198 0.0383 0.0
C377 C 0.0721 0.10261 0.05579 0.0
H378 H 0.09156 0.09606 0.00426 0.0
C379 C 0.01766 0.05303 0.0108 0.0
C380 C 0.03428 0.0184 0.98528 0.0
C381 C 0.95607 0.02165 0.97324 0.0
C382 C 0.93465 0.04005 0.9797 0.0
C383 C 0.9356 0.02692 0.94707 0.0
C384 C 0.94947 0.01901 0.95366 0.0
C385 C 0.92809 0.03727 0.96001 0.0
C386 C 0.94891 0.03245 0.98617 0.0
C387 C 0.96914 0.01152 0.97992 0.0
H388 H 0.11422 0.02025 0.09828 0.0
H389 H 0.08713 0.0286 0.08369 0.0
H390 H 0.13291 0.00593 0.0779 0.0
H391 H 0.0971 0.00798 0.02763 0.0
H392 H 0.93035 0.02462 0.93199 0.0
H393 H 0.95479 0.01048 0.94355 0.0
H394 H 0.91681 0.0426 0.95469 0.0
H395 H 0.95409 0.0345 0.0013 0.0
C396 C 0.30446 0.74225 0.21681 0.0
C397 C 0.28016 0.72788 0.19227 0.0
C398 C 0.28751 0.74144 0.20764 0.0
C399 C 0.29005 0.71524 0.18626 0.0
C400 C 0.31445 0.72963 0.21075 0.0
C401 C 0.30716 0.71614 0.19544 0.0
N402 N 0.31075 0.75475 0.23236 0.0
C403 C 0.32727 0.75598 0.24184 0.0
C404 C 0.33132 0.73067 0.22058 0.0
C405 C 0.3378 0.74401 0.23609 0.0
Gd406 Gd 0.26331 0.76909 0.29208 0.0
Gd407 Gd 0.29168 0.77333 0.24213 0.0
N408 N 0.27787 0.75326 0.21455 0.0
C409 C 0.26294 0.72719 0.18363 0.0
C410 C 0.26137 0.7531 0.20552 0.0
C411 C 0.25361 0.74 0.19013 0.0
H412 H 0.25403 0.76302 0.20986 0.0
H413 H 0.2404 0.73979 0.18329 0.0
H414 H 0.3005 0.77689 0.32577 0.0
H415 H 0.33241 0.76626 0.25381 0.0
H416 H 0.31635 0.80101 0.35028 0.0
H417 H 0.25679 0.71692 0.17185 0.0
H418 H 0.28454 0.70463 0.17461 0.0
H419 H 0.22371 0.77824 0.28149 0.0
H420 H 0.33941 0.72123 0.21637 0.0
H421 H 0.35087 0.74498 0.24372 0.0
H422 H 0.27697 0.84193 0.35568 0.0
H423 H 0.31457 0.70621 0.19073 0.0
H424 H 0.22063 0.82647 0.31642 0.0
H425 H 0.20698 0.80147 0.29096 0.0
N426 N 0.24626 0.78973 0.30174 0.0
C427 C 0.25381 0.80302 0.3161 0.0
C428 C 0.22963 0.78896 0.29281 0.0
C429 C 0.2279 0.81617 0.31251 0.0
C430 C 0.22016 0.8021 0.29811 0.0
C431 C 0.24496 0.81681 0.32166 0.0
H432 H 0.24696 0.84168 0.34025 0.0
N433 N 0.27877 0.78952 0.3189 0.0
C434 C 0.2707 0.8031 0.32472 0.0
C435 C 0.296 0.81651 0.34815 0.0
C436 C 0.27918 0.81706 0.33929 0.0
C437 C 0.29464 0.78833 0.32859 0.0
C438 C 0.30361 0.80191 0.343 0.0
O439 O 0.28307 0.74418 0.2451 0.0
O440 O 0.27181 0.75909 0.2658 0.0
O441 O 0.26296 0.74702 0.30894 0.0
O442 O 0.23825 0.75286 0.29674 0.0
O443 O 0.26346 0.77979 0.24021 0.0
O444 O 0.24655 0.76567 0.2626 0.0
O445 O 0.26854 0.79643 0.28321 0.0
O446 O 0.29145 0.78883 0.27072 0.0
O447 O 0.29087 0.79419 0.22355 0.0
O448 O 0.31601 0.79008 0.23676 0.0
O449 O 0.29112 0.76203 0.2952 0.0
O450 O 0.30815 0.77338 0.27139 0.0
C451 C 0.2736 0.74345 0.25882 0.0
C452 C 0.2481 0.77399 0.24689 0.0
C453 C 0.23993 0.74385 0.3279 0.0
C454 C 0.24498 0.73654 0.3604 0.0
C455 C 0.22328 0.75449 0.35238 0.0
C456 C 0.22715 0.75346 0.33345 0.0
C457 C 0.2323 0.74623 0.3659 0.0
C458 C 0.24846 0.73507 0.34137 0.0
C459 C 0.24587 0.74408 0.30886 0.0
C460 C 0.27057 0.83103 0.34465 0.0
C461 C 0.25347 0.83087 0.33591 0.0
H462 H 0.303 0.82701 0.35932 0.0
C463 C 0.28184 0.80074 0.27371 0.0
C464 C 0.3064 0.7663 0.28787 0.0
C465 C 0.31514 0.79949 0.20591 0.0
C466 C 0.31387 0.81032 0.17483 0.0
C467 C 0.33616 0.7935 0.18408 0.0
C468 C 0.32963 0.79182 0.20167 0.0
C469 C 0.32829 0.80271 0.17063 0.0
C470 C 0.3074 0.8088 0.19242 0.0
C471 C 0.30805 0.79824 0.22431 0.0
H472 H 0.21347 0.76191 0.35664 0.0
H473 H 0.2204 0.76043 0.32333 0.0
H474 H 0.22928 0.74724 0.38058 0.0
H475 H 0.25838 0.72768 0.33722 0.0
H476 H 0.34732 0.78764 0.18087 0.0
H477 H 0.33592 0.78458 0.21187 0.0
H478 H 0.3334 0.80392 0.157 0.0
H479 H 0.29629 0.81485 0.19556 0.0
C480 C 0.56982 0.06437 0.48711 0.0
C481 C 0.58829 0.08444 0.51364 0.0
C482 C 0.5766 0.06798 0.50653 0.0
C483 C 0.59281 0.09729 0.50117 0.0
C484 C 0.57498 0.07705 0.47445 0.0
C485 C 0.58619 0.0936 0.48164 0.0
N486 N 0.55905 0.04818 0.4804 0.0
C487 C 0.55478 0.0432 0.46097 0.0
C488 C 0.56925 0.07253 0.45478 0.0
C489 C 0.55939 0.05541 0.44799 0.0
Gd490 Gd 0.50088 0.01961 0.52794 0.0
Gd491 Gd 0.55231 0.02912 0.50419 0.0
N492 N 0.57202 0.05539 0.51844 0.0
C493 C 0.59525 0.08745 0.53309 0.0
C494 C 0.57929 0.05802 0.53719 0.0
C495 C 0.59084 0.07411 0.54488 0.0
H496 H 0.57628 0.04771 0.54615 0.0
H497 H 0.59642 0.07616 0.55985 0.0
H498 H 0.47177 1.00097 0.49012 0.0
H499 H 0.54785 0.02972 0.45529 0.0
H500 H 0.45182 0.9716 0.47861 0.0
H501 H 0.60426 0.09991 0.53906 0.0
H502 H 0.60168 0.11001 0.50642 0.0
H503 H 0.51059 0.02101 0.5768 0.0
H504 H 0.57295 0.08191 0.44464 0.0
H505 H 0.55555 0.0515 0.43271 0.0
H506 H 0.45673 0.93795 0.5321 0.0
H507 H 0.59015 0.10351 0.47213 0.0
H508 H 0.49053 0.96849 0.59075 0.0
H509 H 0.50709 0.99963 0.60056 0.0
N510 N 0.49794 0.00164 0.55303 0.0
C511 C 0.48779 0.98484 0.54753 0.0
C512 C 0.50413 0.00724 0.57198 0.0
C513 C 0.49245 0.97767 0.58005 0.0
C514 C 0.50185 0.99523 0.58564 0.0
C515 C 0.4849 0.9724 0.56093 0.0
H516 H 0.47183 0.94561 0.56515 0.0
N517 N 0.48164 0.99265 0.5161 0.0
C518 C 0.47921 0.98035 0.52872 0.0
C519 C 0.45817 0.96021 0.50459 0.0
C520 C 0.46764 0.96358 0.52309 0.0
C521 C 0.4713 0.99015 0.49881 0.0
C522 C 0.45973 0.97372 0.49255 0.0
O523 O 0.54306 0.05385 0.51868 0.0
O524 O 0.51664 0.04877 0.53367 0.0
O525 O 0.48235 0.03357 0.51322 0.0
O526 O 0.47841 0.02466 0.5411 0.0
O527 O 0.54276 0.01704 0.53045 0.0
O528 O 0.52454 0.02832 0.54965 0.0
O529 O 0.5079 0.99508 0.51138 0.0
O530 O 0.53635 1.00002 0.50104 0.0
O531 O 0.57798 0.02144 0.513 0.0
O532 O 0.56431 0.01524 0.48343 0.0
O533 O 0.51789 0.02564 0.50636 0.0
O534 O 0.53027 0.02758 0.48085 0.0
C535 C 0.53083 0.05937 0.52859 0.0
C536 C 0.54043 0.02599 0.54664 0.0
C537 C 0.46783 0.05019 0.53467 0.0
C538 C 0.44516 0.068 0.53516 0.0
C539 C 0.47039 0.07494 0.55999 0.0
C540 C 0.47703 0.06077 0.55149 0.0
C541 C 0.45439 0.07845 0.55198 0.0
C542 C 0.45201 0.05403 0.52637 0.0
C543 C 0.47298 0.03351 0.5276 0.0
C544 C 0.46544 0.95096 0.53622 0.0
C545 C 0.47406 0.95534 0.55506 0.0
H546 H 0.4491 0.94752 0.49977 0.0
C547 C 0.52115 0.98956 0.50364 0.0
C548 C 0.51581 0.02657 0.4882 0.0
C549 C 0.59187 0.00579 0.48783 0.0
C550 C 0.61802 0.99262 0.49207 0.0
C551 C 0.60381 0.99363 0.45998 0.0
C552 C 0.59132 0.00202 0.46777 0.0
C553 C 0.6171 0.98897 0.47201 0.0
C554 C 0.60526 1.00094 0.50004 0.0
C555 C 0.57797 0.01425 0.49532 0.0
H556 H 0.47741 0.0829 0.57307 0.0
H557 H 0.48893 0.05756 0.55848 0.0
H558 H 0.44915 0.08924 0.55892 0.0
H559 H 0.44461 0.04565 0.51367 0.0
H560 H 0.60314 0.99067 0.44455 0.0
H561 H 0.58116 0.00549 0.45796 0.0
H562 H 0.62659 0.98227 0.46564 0.0
H563 H 0.60579 0.0036 0.5155 0.0
C564 C 0.23479 0.29294 0.72685 0.0
C565 C 0.21664 0.26559 0.70908 0.0
C566 C 0.22747 0.2747 0.72583 0.0
C567 C 0.2135 0.27494 0.69332 0.0
C568 C 0.23137 0.30244 0.7112 0.0
C569 C 0.22084 0.2933 0.69438 0.0
N570 N 0.24524 0.30138 0.74316 0.0
C571 C 0.25145 0.31951 0.74535 0.0
C572 C 0.23852 0.32088 0.71298 0.0
C573 C 0.24843 0.32948 0.73022 0.0
Gd574 Gd 0.29878 0.26912 0.77186 0.0
Gd575 Gd 0.24979 0.2833 0.76741 0.0
N576 N 0.23099 0.26589 0.7412 0.0
C577 C 0.20916 0.24736 0.70872 0.0
C578 C 0.22318 0.24833 0.7412 0.0
C579 C 0.21229 0.23876 0.72492 0.0
H580 H 0.22501 0.24174 0.75383 0.0
H581 H 0.20621 0.22478 0.72493 0.0
H582 H 0.32503 0.30935 0.78288 0.0
H583 H 0.25852 0.32643 0.75883 0.0
H584 H 0.34633 0.32645 0.81018 0.0
H585 H 0.20072 0.23989 0.69613 0.0
H586 H 0.20529 0.26812 0.68029 0.0
H587 H 0.29004 0.22577 0.78177 0.0
H588 H 0.23618 0.32865 0.70129 0.0
H589 H 0.25361 0.34382 0.73193 0.0
H590 H 0.34685 0.285 0.857 0.0
H591 H 0.21815 0.30036 0.68217 0.0
H592 H 0.31345 0.22503 0.83913 0.0
H593 H 0.29532 0.20928 0.80915 0.0
N594 N 0.3031 0.25136 0.79671 0.0
C595 C 0.31399 0.26007 0.81268 0.0
C596 C 0.29706 0.23318 0.79507 0.0
C597 C 0.31068 0.23255 0.82733 0.0
C598 C 0.3004 0.22362 0.81046 0.0
C599 C 0.31797 0.2509 0.82845 0.0
H600 H 0.33265 0.25331 0.85683 0.0
N601 N 0.31832 0.28643 0.79732 0.0
C602 C 0.32208 0.27798 0.81284 0.0
C603 C 0.34279 0.30484 0.82776 0.0
C604 C 0.33424 0.2871 0.82865 0.0
C605 C 0.32733 0.30332 0.79586 0.0
C606 C 0.33947 0.3129 0.81119 0.0
O607 O 0.26313 0.27801 0.7407 0.0
O608 O 0.2781 0.25563 0.74731 0.0
O609 O 0.31797 0.27663 0.75113 0.0
O610 O 0.31954 0.2547 0.76804 0.0
O611 O 0.25031 0.25634 0.77804 0.0
O612 O 0.27473 0.2459 0.7677 0.0
O613 O 0.29207 0.28745 0.79625 0.0
O614 O 0.26266 0.27588 0.79468 0.0
O615 O 0.22229 0.27853 0.77426 0.0
O616 O 0.24047 0.30438 0.78371 0.0
O617 O 0.29449 0.29351 0.75801 0.0
O618 O 0.27421 0.30581 0.774 0.0
C619 C 0.2695 0.26383 0.73513 0.0
C620 C 0.25924 0.24355 0.77444 0.0
C621 C 0.33914 0.25709 0.74392 0.0
C622 C 0.36525 0.2611 0.72648 0.0
C623 C 0.35217 0.23157 0.73416 0.0
C624 C 0.33929 0.23863 0.7429 0.0
C625 C 0.36502 0.24267 0.72605 0.0
C626 C 0.35231 0.26841 0.73561 0.0
C627 C 0.3268 0.26451 0.75586 0.0
C628 C 0.33767 0.27817 0.84464 0.0
C629 C 0.32955 0.26013 0.84455 0.0
H630 H 0.35222 0.31229 0.83961 0.0
C631 C 0.2774 0.28527 0.80424 0.0
C632 C 0.2887 0.30745 0.76544 0.0
C633 C 0.21061 0.30222 0.79208 0.0
C634 C 0.18457 0.29988 0.80951 0.0
C635 C 0.19784 0.32837 0.79937 0.0
C636 C 0.21061 0.32051 0.7914 0.0
C637 C 0.18501 0.31821 0.80842 0.0
C638 C 0.1973 0.29175 0.80095 0.0
C639 C 0.22464 0.29466 0.78338 0.0
H640 H 0.35228 0.2174 0.73379 0.0
H641 H 0.32967 0.22962 0.74931 0.0
H642 H 0.37491 0.23682 0.71937 0.0
H643 H 0.35261 0.2827 0.73646 0.0
H644 H 0.19795 0.34247 0.79864 0.0
H645 H 0.22048 0.32876 0.78452 0.0
H646 H 0.17532 0.32474 0.81464 0.0
H647 H 0.19718 0.27763 0.80169 0.0
C648 C 0.00551 0.06827 0.55918 0.0
C649 C 0.03129 0.08553 0.58016 0.0
C650 C 0.02376 0.0743 0.563 0.0
C651 C 0.02027 0.09057 0.59339 0.0
C652 C 0.99441 0.07357 0.57233 0.0
C653 C 1.00189 0.08461 0.58949 0.0
N654 N 0.99858 0.0575 0.54253 0.0
C655 C 0.9807 0.05261 0.53752 0.0
C656 C 0.97607 0.06777 0.56773 0.0
C657 C 0.96919 0.05741 0.55016 0.0
Gd658 Gd 0.03075 0.99832 0.51925 0.0
Gd659 Gd 0.01912 0.04991 0.52273 0.0
N660 N 0.03415 0.06894 0.5501 0.0
C661 C 0.04969 0.0913 0.58357 0.0
C662 C 0.05209 0.07471 0.55326 0.0
C663 C 0.06012 0.08592 0.57002 0.0
H664 H 0.06035 0.07074 0.54298 0.0
H665 H 0.07436 0.09039 0.57249 0.0
H666 H 0.99002 0.9733 0.51013 0.0
H667 H 0.97523 0.04531 0.52363 0.0
H668 H 0.97106 0.95293 0.48315 0.0
H669 H 0.05597 0.09993 0.59657 0.0
H670 H 0.02584 0.09914 0.60667 0.0
H671 H 0.0726 0.99979 0.50923 0.0
H672 H 0.96711 0.07153 0.57746 0.0
H673 H 0.95502 0.05328 0.54624 0.0
H674 H 0.00898 0.95066 0.43369 0.0
H675 H 0.99357 0.08873 0.59979 0.0
H676 H 0.0702 0.97839 0.45044 0.0
H677 H 0.08775 0.99359 0.481 0.0
N678 N 0.0468 0.99142 0.49394 0.0
C679 C 0.03701 0.98159 0.47788 0.0
C680 C 0.06484 0.99466 0.49555 0.0
C681 C 0.06348 0.98189 0.46256 0.0
C682 C 0.07344 0.99054 0.47975 0.0
C683 C 0.04509 0.97671 0.46168 0.0
H684 H 0.04069 0.96232 0.43291 0.0
N685 N 0.0118 0.97924 0.49439 0.0
C686 C 0.01909 0.97494 0.47826 0.0
C687 C 0.99127 0.95574 0.46424 0.0
C688 C 0.00887 0.96338 0.46256 0.0
C689 C 0.9951 0.97085 0.49666 0.0
C690 C 0.98446 0.95924 0.4815 0.0
O691 O 0.0251 0.03798 0.55049 0.0
O692 O 0.04473 0.01999 0.54275 0.0
O693 O 0.02456 0.98121 0.54227 0.0
O694 O 0.04169 0.97466 0.52177 0.0
O695 O 0.04652 0.04857 0.51609 0.0
O696 O 0.05532 0.02113 0.5196 0.0
O697 O 0.01213 0.00545 0.49577 0.0
O698 O 0.0263 0.03415 0.49726 0.0
O699 O 0.02757 0.07643 0.51395 0.0
O700 O 1.00199 0.06028 0.50203 0.0
O701 O 0.00749 0.00462 0.53366 0.0
O702 O 0.99605 0.0259 0.51786 0.0
C703 C 0.03702 0.02846 0.55547 0.0
C704 C 0.05847 0.03838 0.51651 0.0
C705 C 0.04264 0.95919 0.54938 0.0
C706 C 0.04115 0.93369 0.56837 0.0
C707 C 0.06938 0.94884 0.56007 0.0
C708 C 0.06108 0.96069 0.55051 0.0
C709 C 0.05954 0.93549 0.5689 0.0
C710 C 0.03265 0.94554 0.55839 0.0
C711 C 0.03369 0.96967 0.53616 0.0
C712 C 0.01667 0.95936 0.446 0.0
C713 C 0.03472 0.96605 0.44554 0.0
H714 H 0.983 0.94671 0.45253 0.0
C715 C 0.01529 0.02026 0.48785 0.0
C716 C 0.99403 0.01127 0.52665 0.0
C717 C 0.00613 0.09206 0.50129 0.0
C718 C 0.00454 0.11971 0.48656 0.0
C719 C 0.98636 0.11109 0.51163 0.0
C720 C 0.99346 0.09575 0.51303 0.0
C721 C 0.99177 0.12291 0.49852 0.0
C722 C 0.01182 0.1042 0.48818 0.0
C723 C 0.01321 0.07544 0.50222 0.0
H724 H 0.08352 0.94986 0.56042 0.0
H725 H 0.06905 0.97065 0.54343 0.0
H726 H 0.06632 0.92636 0.57606 0.0
H727 H 0.01839 0.94393 0.55733 0.0
H728 H 0.97656 0.11382 0.52074 0.0
H729 H 0.98899 0.08676 0.52322 0.0
H730 H 0.98604 0.13473 0.49789 0.0
H731 H 0.02156 0.10138 0.479 0.0
C732 C 0.23721 0.73373 0.80196 0.0
C733 C 0.22022 0.71073 0.77702 0.0
C734 C 0.23535 0.72423 0.7837 0.0
C735 C 0.20683 0.70703 0.78883 0.0
C736 C 0.22399 0.72961 0.81405 0.0
C737 C 0.20873 0.71642 0.80729 0.0
N738 N 0.25228 0.74625 0.80826 0.0
C739 C 0.25552 0.75392 0.82698 0.0
C740 C 0.22677 0.73845 0.83282 0.0
C741 C 0.2427 0.75047 0.83938 0.0
Gd742 Gd 0.27617 0.79676 0.76323 0.0
Gd743 Gd 0.27314 0.74992 0.78633 0.0
N744 N 0.24848 0.72809 0.7725 0.0
C745 C 0.21916 0.70112 0.75878 0.0
C746 C 0.24798 0.71818 0.75517 0.0
C747 C 0.23317 0.70476 0.74788 0.0
H748 H 0.25902 0.72067 0.74702 0.0
H749 H 0.23264 0.69712 0.73397 0.0
H750 H 0.29354 0.82248 0.80495 0.0
H751 H 0.26822 0.76216 0.83273 0.0
H752 H 0.32052 0.84521 0.81745 0.0
H753 H 0.20774 0.69064 0.75315 0.0
H754 H 0.1951 0.69671 0.78395 0.0
H755 H 0.27943 0.78443 0.71659 0.0
H756 H 0.21697 0.7356 0.84256 0.0
H757 H 0.2453 0.75677 0.85413 0.0
H758 H 0.35322 0.85058 0.76348 0.0
H759 H 0.19844 0.71314 0.81639 0.0
H760 H 0.32869 0.81383 0.70412 0.0
H761 H 0.30088 0.79147 0.69374 0.0
N762 N 0.29551 0.80156 0.74017 0.0
C763 C 0.31038 0.81445 0.74603 0.0
C764 C 0.2918 0.79367 0.72156 0.0
C765 C 0.31944 0.81057 0.71434 0.0
C766 C 0.3038 0.79787 0.70845 0.0
C767 C 0.32284 0.81914 0.73327 0.0
H768 H 0.34797 0.83596 0.73012 0.0
N769 N 0.30128 0.81785 0.77722 0.0
C770 C 0.31332 0.82284 0.76499 0.0
C771 C 0.33144 0.84391 0.79059 0.0
C772 C 0.32882 0.83592 0.77146 0.0
C773 C 0.30354 0.82585 0.79571 0.0
C774 C 0.31872 0.8389 0.80273 0.0
O775 O 0.24833 0.75417 0.76776 0.0
O776 O 0.25021 0.78451 0.77352 0.0
O777 O 0.27025 0.82358 0.76626 0.0
O778 O 0.26094 0.80529 0.73945 0.0
O779 O 0.28428 0.75403 0.75884 0.0
O780 O 0.26725 0.77112 0.74358 0.0
O781 O 0.30247 0.7872 0.77014 0.0
O782 O 0.2989 0.77044 0.79547 0.0
O783 O 0.28778 0.72855 0.77904 0.0
O784 O 0.27981 0.73341 0.80768 0.0
O785 O 0.26706 0.79577 0.79211 0.0
O786 O 0.2808 0.77544 0.8067 0.0
C787 C 0.24071 0.76821 0.76837 0.0
C788 C 0.27538 0.7576 0.74344 0.0
C789 C 0.25319 0.83477 0.74086 0.0
C790 C 0.23979 0.86115 0.74461 0.0
C791 C 0.24323 0.84785 0.71279 0.0
C792 C 0.25087 0.83479 0.72086 0.0
C793 C 0.23778 0.86098 0.72455 0.0
C794 C 0.24749 0.84794 0.75277 0.0
C795 C 0.26154 0.82097 0.74904 0.0
C796 C 0.34124 0.84055 0.75874 0.0
C797 C 0.33825 0.83221 0.73973 0.0
H798 H 0.34319 0.85402 0.79609 0.0
C799 C 0.30918 0.77968 0.78458 0.0
C800 C 0.27332 0.78943 0.80736 0.0
C801 C 0.29579 0.70954 0.8035 0.0
C802 C 0.31064 0.68442 0.79867 0.0
C803 C 0.30425 0.69414 0.83049 0.0
C804 C 0.29655 0.70749 0.82318 0.0
C805 C 0.31128 0.68266 0.81832 0.0
C806 C 0.3029 0.69788 0.79119 0.0
C807 C 0.28769 0.72398 0.79637 0.0
H808 H 0.24152 0.8478 0.69735 0.0
H809 H 0.25511 0.82479 0.71145 0.0
H810 H 0.23173 0.87089 0.71793 0.0
H811 H 0.24908 0.84797 0.76823 0.0
H812 H 0.3048 0.69272 0.84565 0.0
H813 H 0.29125 0.71627 0.83302 0.0
H814 H 0.31726 0.67236 0.82423 0.0
H815 H 0.30246 0.69925 0.776 0.0
C816 C 0.56161 0.99393 0.07163 0.0
C817 C 0.57391 0.01564 0.09965 0.0
C818 C 0.56129 0.00961 0.08327 0.0
C819 C 0.58694 0.00573 0.1041 0.0
C820 C 0.57437 0.98368 0.07637 0.0
C821 C 0.58713 0.98975 0.09254 0.0
N822 N 0.54942 0.98872 0.05572 0.0
C823 C 0.54841 0.97261 0.04489 0.0
C824 C 0.57386 0.96757 0.06479 0.0
C825 C 0.56067 0.96191 0.04914 0.0
Gd826 Gd 0.53257 0.0368 -0.00095 0.0
Gd827 Gd 0.52987 0.00817 0.04958 0.0
N828 N 0.54883 0.01918 0.07825 0.0
C829 C 0.57303 0.03147 0.11104 0.0
C830 C 0.54721 0.03395 0.08993 0.0
C831 C 0.55945 0.04052 0.1063 0.0
H832 H 0.53637 0.04058 0.0868 0.0
H833 H 0.55835 0.05249 0.11531 0.0
H834 H 0.52287 0.9983 0.96665 0.0
H835 H 0.53798 0.96767 0.03317 0.0
H836 H 0.49863 0.98285 0.9423 0.0
H837 H 0.58254 0.03662 0.12369 0.0
H838 H 0.59685 0.01022 0.11654 0.0
H839 H 0.52657 0.07845 0.00749 0.0
H840 H 0.58338 0.95926 0.06799 0.0
H841 H 0.55988 0.94923 0.0404 0.0
H842 H 0.46083 0.02519 0.93558 0.0
H843 H 0.59715 0.98214 0.09628 0.0
H844 H 0.47929 0.08312 0.97289 0.0
H845 H 0.50482 0.09656 0.9975 0.0
N846 N 0.51357 0.05517 0.98858 0.0
C847 C 0.49998 0.0477 0.97471 0.0
C848 C 0.51557 0.07254 0.9966 0.0
C849 C 0.48889 0.07519 0.97709 0.0
C850 C 0.50327 0.08282 0.99099 0.0
C851 C 0.48711 0.05742 0.96873 0.0
H852 H 0.46278 0.05629 0.95006 0.0
N853 N 0.51176 0.02143 0.97269 0.0
C854 C 0.49892 0.03021 0.96665 0.0
C855 C 0.48459 0.00453 0.94377 0.0
C856 C 0.48489 0.02195 0.95222 0.0
C857 C 0.51207 0.00487 0.96352 0.0
C858 C 0.4984 0.99609 0.94923 0.0
O859 O 0.55806 0.02181 0.04884 0.0
O860 O 0.54233 0.0265 0.02414 0.0
O861 O 0.55245 0.03636 0.98018 0.0
O862 O 0.55135 0.06146 0.99678 0.0
O863 O 0.52549 0.03757 0.05278 0.0
O864 O 0.53482 0.05466 0.0278 0.0
O865 O 0.50628 0.03217 0.00931 0.0
O866 O 0.51257 0.00806 0.02182 0.0
O867 O 0.50943 0.0088 0.06832 0.0
O868 O 0.51494 0.9834 0.0566 0.0
O869 O 0.53959 0.00868 0.99632 0.0
O870 O 0.52771 0.99159 0.01982 0.0
C871 C 0.55792 0.02896 0.03328 0.0
C872 C 0.52944 0.05297 0.04506 0.0
C873 C 0.5595 0.06208 0.96517 0.0
C874 C 0.5668 0.05971 0.93244 0.0
C875 C 0.55459 0.0849 0.94488 0.0
C876 C 0.55377 0.07811 0.96252 0.0
C877 C 0.56101 0.07575 0.92986 0.0
C878 C 0.56607 0.05309 0.95015 0.0
C879 C 0.55811 0.05369 0.9829 0.0
C880 C 0.47178 0.03139 0.94651 0.0
C881 C 0.4729 0.04911 0.95472 0.0
H882 H 0.47403 0.9977 0.93268 0.0
C883 C 0.50159 0.01877 0.019 0.0
C884 C 0.53488 0.9932 0.0035 0.0
C885 C 0.50614 0.98499 0.08752 0.0
C886 C 0.49408 0.98543 0.11784 0.0
C887 C 0.5137 0.9652 0.11053 0.0
C888 C 0.51533 0.97169 0.09286 0.0
C889 C 0.50307 0.97199 0.123 0.0
C890 C 0.49558 0.99176 0.10005 0.0
C891 C 0.50662 0.99146 0.06868 0.0
H892 H 0.55021 0.09727 0.94283 0.0
H893 H 0.54856 0.08527 0.9739 0.0
H894 H 0.56175 0.08137 0.9164 0.0
H895 H 0.5703 0.0406 0.95216 0.0
H896 H 0.52068 0.95489 0.11457 0.0
H897 H 0.5236 0.96619 0.08338 0.0
H898 H 0.50207 0.96693 0.13674 0.0
H899 H 0.48827 0.00179 0.0958 0.0
C900 C 0.32974 0.31278 0.30835 0.0
C901 C 0.34707 0.32757 0.28555 0.0
C902 C 0.33076 0.31843 0.2902 0.0
C903 C 0.36201 0.33175 0.29951 0.0
C904 C 0.34484 0.31683 0.32231 0.0
C905 C 0.36087 0.32649 0.31785 0.0
N906 N 0.31406 0.30339 0.31236 0.0
C907 C 0.31249 0.29836 0.33026 0.0
C908 C 0.34336 0.31127 0.34047 0.0
C909 C 0.32711 0.302 0.34445 0.0
Gd910 Gd 0.26832 0.25474 0.2618 0.0
Gd911 Gd 0.28979 0.30256 0.28925 0.0
N912 N 0.31598 0.31461 0.27699 0.0
C913 C 0.34796 0.33219 0.26694 0.0
C914 C 0.31691 0.31888 0.25875 0.0
C915 C 0.33286 0.32761 0.25343 0.0
H916 H 0.30555 0.31567 0.24815 0.0
H917 H 0.33346 0.33096 0.23893 0.0
H918 H 0.25651 0.23491 0.29976 0.0
H919 H 0.29981 0.29247 0.33415 0.0
H920 H 0.22951 0.2191 0.31113 0.0
H921 H 0.36026 0.33914 0.2628 0.0
H922 H 0.37455 0.339 0.29624 0.0
H923 H 0.2588 0.25089 0.21417 0.0
H924 H 0.35461 0.31428 0.35161 0.0
H925 H 0.32571 0.29808 0.35863 0.0
H926 H 0.18437 0.21469 0.2579 0.0
H927 H 0.37252 0.32988 0.32847 0.0
H928 H 0.20297 0.23286 0.19907 0.0
H929 H 0.23249 0.24399 0.18951 0.0
N930 N 0.24399 0.24769 0.2375 0.0
C931 C 0.2282 0.24017 0.24285 0.0
C932 C 0.24576 0.24818 0.21851 0.0
C933 C 0.21436 0.23701 0.20998 0.0
C934 C 0.23097 0.2434 0.20453 0.0
C935 C 0.21292 0.23471 0.22923 0.0
H936 H 0.18511 0.22191 0.22475 0.0
N937 N 0.24306 0.24016 0.27383 0.0
C938 C 0.22776 0.23602 0.26151 0.0
C939 C 0.21263 0.22082 0.28538 0.0
C940 C 0.21207 0.22641 0.26705 0.0
C941 C 0.24399 0.2334 0.29103 0.0
C942 C 0.22875 0.22407 0.29729 0.0
O943 O 0.30817 0.28331 0.2816 0.0
O944 O 0.29438 0.26838 0.25267 0.0
O945 O 0.28078 0.23318 0.26992 0.0
O946 O 0.26575 0.23088 0.24167 0.0
O947 O 0.2776 0.30481 0.25913 0.0
O948 O 0.27273 0.27619 0.24172 0.0
O949 O 0.25016 0.26793 0.2794 0.0
O950 O 0.25984 0.29841 0.27979 0.0
O951 O 0.29451 0.33167 0.29332 0.0
O952 O 0.28575 0.31645 0.31616 0.0
O953 O 0.28445 0.25735 0.29096 0.0
O954 O 0.27681 0.28177 0.30628 0.0
C955 C 0.309 0.27473 0.26461 0.0
C956 C 0.27398 0.29382 0.24283 0.0
C957 C 0.28874 0.21504 0.2449 0.0
C958 C 0.30489 0.1914 0.24713 0.0
C959 C 0.30516 0.2071 0.21903 0.0
C960 C 0.29423 0.21777 0.22686 0.0
C961 C 0.31032 0.19366 0.22905 0.0
C962 C 0.29442 0.20219 0.25505 0.0
C963 C 0.27574 0.22373 0.25314 0.0
C964 C 0.19657 0.22195 0.25386 0.0
C965 C 0.19699 0.2261 0.23499 0.0
H966 H 0.20088 0.21335 0.29014 0.0
C967 C 0.24719 0.2844 0.28109 0.0
C968 C 0.2809 0.26602 0.30654 0.0
C969 C 0.28126 0.34601 0.31782 0.0
C970 C 0.26518 0.36956 0.3121 0.0
C971 C 0.27477 0.36491 0.34477 0.0
C972 C 0.28232 0.35086 0.3377 0.0
C973 C 0.26632 0.37434 0.33206 0.0
C974 C 0.27244 0.35516 0.30507 0.0
C975 C 0.29059 0.33227 0.3109 0.0
H976 H 0.30927 0.20895 0.20505 0.0
H977 H 0.28983 0.22776 0.21875 0.0
H978 H 0.3183 0.18503 0.22274 0.0
H979 H 0.28993 0.19993 0.26886 0.0
H980 H 0.27576 0.36872 0.36012 0.0
H981 H 0.28926 0.34394 0.34773 0.0
H982 H 0.26106 0.38561 0.33783 0.0
H983 H 0.27143 0.35125 0.28971 0.0
C984 C 0.51065 0.56761 0.06207 0.0
C985 C 0.53779 0.58727 0.07802 0.0
C986 C 0.52857 0.57495 0.06232 0.0
C987 C 0.52891 0.59182 0.09358 0.0
C988 C 0.50164 0.57248 0.07751 0.0
C989 C 0.5109 0.58444 0.09333 0.0
N990 N 0.50199 0.55591 0.04665 0.0
C991 C 0.4841 0.54989 0.04505 0.0
C992 C 0.48349 0.56541 0.07646 0.0
C993 C 0.47465 0.55425 0.06004 0.0
Gd994 Gd 0.52999 0.49849 0.01908 0.0
Gd995 Gd 0.51928 0.54982 0.02238 0.0
N996 N 0.53697 0.57002 0.04724 0.0
C997 C 0.55567 0.5947 0.07758 0.0
C998 C 0.55427 0.57749 0.04653 0.0
C999 C 0.5639 0.58988 0.06171 0.0
H1000 H 0.56059 0.57418 0.03413 0.0
H1001 H 0.57766 0.59574 0.06115 0.0
H1002 H 0.48971 0.47348 0.00648 0.0
H1003 H 0.47687 0.54204 0.0321 0.0
H1004 H 0.47287 0.45277 0.97844 0.0
H1005 H 0.5632 0.60424 0.08935 0.0
H1006 H 0.53582 0.60117 0.10582 0.0
H1007 H 0.57329 0.50474 0.01119 0.0
H1008 H 0.4761 0.56885 0.08801 0.0
H1009 H 0.46051 0.54922 0.0588 0.0
H1010 H 0.51471 0.45196 0.93292 0.0
H1011 H 0.50421 0.58825 0.10536 0.0
H1012 H 0.57451 0.48285 0.95335 0.0
H1013 H 0.58999 0.49944 0.98425 0.0
N1014 N 0.54804 0.49346 0.99507 0.0
C1015 C 0.5394 0.4833 0.97858 0.0
C1016 C 0.56609 0.49846 0.9975 0.0
C1017 C 0.56695 0.48568 0.96495 0.0
C1018 C 0.57573 0.49509 0.98235 0.0
C1019 C 0.54864 0.47922 0.96306 0.0
H1020 H 0.54638 0.46513 0.93436 0.0
N1021 N 0.51286 0.47977 0.99289 0.0
C1022 C 0.52144 0.47591 0.97764 0.0
C1023 C 0.49466 0.45606 0.9616 0.0
C1024 C 0.51242 0.46422 0.96137 0.0
C1025 C 0.49589 0.47111 0.99371 0.0
C1026 C 0.48644 0.45934 0.97795 0.0
O1027 O 0.52608 0.53833 0.05036 0.0
O1028 O 0.54441 0.51807 0.04432 0.0
O1029 O 0.52017 0.47967 0.03895 0.0
O1030 O 0.54153 0.47528 0.0232 0.0
O1031 O 0.54516 0.54668 0.01178 0.0
O1032 O 0.55397 0.52175 0.02377 0.0
O1033 O 0.51257 0.50632 0.9946 0.0
O1034 O 0.52616 0.53548 0.99574 0.0
O1035 O 0.525 0.5772 0.01378 0.0
O1036 O 0.49895 0.55952 0.00564 0.0
O1037 O 0.50772 0.5062 0.03375 0.0
O1038 O 0.49605 0.5261 0.01659 0.0
C1039 C 0.53783 0.52885 0.05603 0.0
C1040 C 0.55721 0.53738 0.01686 0.0
C1041 C 0.53996 0.46218 0.05214 0.0
C1042 C 0.54123 0.43744 0.07165 0.0
C1043 C 0.56622 0.46263 0.07434 0.0
C1044 C 0.55707 0.47065 0.06071 0.0
C1045 C 0.55846 0.4461 0.07964 0.0
C1046 C 0.53192 0.44562 0.0579 0.0
C1047 C 0.53139 0.46941 0.03571 0.0
C1048 C 0.52146 0.46075 0.94564 0.0
C1049 C 0.5395 0.46828 0.94645 0.0
H1050 H 0.48731 0.44695 0.94941 0.0
C1051 C 0.51586 0.52104 0.98634 0.0
C1052 C 0.49411 0.5116 0.02546 0.0
C1053 C 0.50186 0.58928 0.99547 0.0
C1054 C 0.50512 0.61671 0.97952 0.0
C1055 C 0.47623 0.60205 0.98652 0.0
C1056 C 0.48362 0.58887 0.99461 0.0
C1057 C 0.48686 0.61586 0.97908 0.0
C1058 C 0.51271 0.60334 0.98781 0.0
C1059 C 0.509 0.57518 0.00501 0.0
H1060 H 0.57953 0.46912 0.08063 0.0
H1061 H 0.56353 0.48326 0.05647 0.0
H1062 H 0.56593 0.44003 0.09007 0.0
H1063 H 0.5188 0.43883 0.05123 0.0
H1064 H 0.46217 0.60161 0.98609 0.0
H1065 H 0.47502 0.57843 0.00048 0.0
H1066 H 0.48077 0.62596 0.97288 0.0
H1067 H 0.52682 0.60393 0.98838 0.0
C1068 C 0.73563 0.23289 0.30205 0.0
C1069 C 0.71677 0.21164 0.27663 0.0
C1070 C 0.73257 0.22429 0.2832 0.0
C1071 C 0.70381 0.20813 0.28898 0.0
C1072 C 0.72279 0.22889 0.3146 0.0
C1073 C 0.70679 0.21675 0.30786 0.0
N1074 N 0.75149 0.24421 0.30845 0.0
C1075 C 0.75579 0.25059 0.32753 0.0
C1076 C 0.72665 0.23665 0.33379 0.0
C1077 C 0.7433 0.24735 0.34032 0.0
Gd1078 Gd 0.77559 0.29605 0.26626 0.0
Gd1079 Gd 0.77135 0.2473 0.28547 0.0
N1080 N 0.7452 0.22802 0.27135 0.0
C1081 C 0.71461 0.20262 0.25795 0.0
C1082 C 0.74362 0.21865 0.25351 0.0
C1083 C 0.72817 0.20602 0.24641 0.0
H1084 H 0.75432 0.22098 0.24485 0.0
H1085 H 0.72678 0.19881 0.23213 0.0
H1086 H 0.79074 0.32425 0.30647 0.0
H1087 H 0.76897 0.2577 0.33324 0.0
H1088 H 0.81681 0.34836 0.31876 0.0
H1089 H 0.70268 0.19277 0.25243 0.0
H1090 H 0.69156 0.19851 0.28416 0.0
H1091 H 0.77921 0.28426 0.2193 0.0
H1092 H 0.71713 0.23389 0.34385 0.0
H1093 H 0.7467 0.25272 0.35534 0.0
H1094 H 0.8509 0.3528 0.26579 0.0
H1095 H 0.6968 0.21358 0.31732 0.0
H1096 H 0.82842 0.31388 0.20732 0.0
H1097 H 0.80091 0.29114 0.19686 0.0
N1098 N 0.7951 0.30122 0.2432 0.0
C1099 C 0.80958 0.3146 0.24892 0.0
C1100 C 0.79156 0.29338 0.22454 0.0
C1101 C 0.81912 0.31053 0.21748 0.0
C1102 C 0.80367 0.29762 0.21155 0.0
C1103 C 0.82211 0.31943 0.23624 0.0
H1104 H 0.84679 0.33699 0.233 0.0
N1105 N 0.7996 0.3188 0.27949 0.0
C1106 C 0.81183 0.3237 0.26748 0.0
C1107 C 0.82858 0.34639 0.29246 0.0
C1108 C 0.82674 0.33759 0.27373 0.0
C1109 C 0.80103 0.32761 0.29753 0.0
C1110 C 0.81563 0.34143 0.30437 0.0
O1111 O 0.74729 0.25425 0.26808 0.0
O1112 O 0.75064 0.28397 0.27835 0.0
O1113 O 0.76833 0.32251 0.26859 0.0
O1114 O 0.75896 0.30292 0.24281 0.0
O1115 O 0.78353 0.25344 0.25916 0.0
O1116 O 0.76659 0.27114 0.24534 0.0
O1117 O 0.80242 0.2876 0.27408 0.0
O1118 O 0.79898 0.26472 0.29392 0.0
O1119 O 0.78355 0.22536 0.27487 0.0
O1120 O 0.77488 0.2265 0.30308 0.0
O1121 O 0.76892 0.29366 0.29623 0.0
O1122 O 0.78156 0.27101 0.30785 0.0
C1123 C 0.74035 0.26858 0.27095 0.0
C1124 C 0.77483 0.25777 0.24417 0.0
C1125 C 0.74972 0.33144 0.24244 0.0
C1126 C 0.73613 0.35782 0.24411 0.0
C1127 C 0.73602 0.34026 0.21332 0.0
C1128 C 0.74503 0.32871 0.22242 0.0
C1129 C 0.73158 0.35468 0.22404 0.0
C1130 C 0.7452 0.34604 0.25332 0.0
C1131 C 0.75914 0.31883 0.25159 0.0
C1132 C 0.83934 0.3422 0.2612 0.0
C1133 C 0.83703 0.33316 0.24253 0.0
H1134 H 0.83986 0.35712 0.29781 0.0
C1135 C 0.80903 0.2772 0.2858 0.0
C1136 C 0.77693 0.28663 0.30998 0.0
C1137 C 0.79824 0.21152 0.29866 0.0
C1138 C 0.81566 0.18828 0.29733 0.0
C1139 C 0.82052 0.21075 0.32528 0.0
C1140 C 0.80746 0.2188 0.31685 0.0
C1141 C 0.82449 0.19544 0.31568 0.0
C1142 C 0.80263 0.19643 0.28877 0.0
C1143 C 0.78275 0.21809 0.29077 0.0
H1144 H 0.73241 0.338 0.19789 0.0
H1145 H 0.74837 0.31762 0.21373 0.0
H1146 H 0.72433 0.36329 0.2166 0.0
H1147 H 0.74874 0.34827 0.26878 0.0
H1148 H 0.8274 0.21623 0.33942 0.0
H1149 H 0.80429 0.23043 0.32475 0.0
H1150 H 0.83453 0.18922 0.32251 0.0
H1151 H 0.79548 0.19063 0.27481 0.0
C1152 C 0.05804 0.49338 0.57212 0.0
C1153 C 0.0697 0.51566 0.59986 0.0
C1154 C 0.05756 0.5094 0.58312 0.0
C1155 C 0.0823 0.50558 0.60541 0.0
C1156 C 0.07047 0.48309 0.57787 0.0
C1157 C 0.08263 0.48931 0.5945 0.0
N1158 N 0.04661 0.48809 0.55561 0.0
C1159 C 0.04608 0.47199 0.54501 0.0
C1160 C 0.07037 0.46686 0.56668 0.0
C1161 C 0.05798 0.46121 0.55031 0.0
Gd1162 Gd 0.03257 0.53615 0.49742 0.0
Gd1163 Gd 0.02744 0.50743 0.5479 0.0
N1164 N 0.04562 0.51921 0.57699 0.0
C1165 C 0.06892 0.53194 0.61043 0.0
C1166 C 0.04418 0.53458 0.58782 0.0
C1167 C 0.05596 0.54132 0.6045 0.0
H1168 H 0.0339 0.54167 0.58383 0.0
H1169 H 0.05499 0.55371 0.61282 0.0
H1170 H 0.02166 0.49767 0.46525 0.0
H1171 H 0.03633 0.46716 0.53262 0.0
H1172 H 0.997 0.48279 0.44101 0.0
H1173 H 0.07808 0.53725 0.62331 0.0
H1174 H 0.09182 0.51023 0.61815 0.0
H1175 H 0.02722 0.57786 0.50704 0.0
H1176 H 0.07966 0.45853 0.57065 0.0
H1177 H 0.05757 0.4485 0.54178 0.0
H1178 H 0.96037 0.52633 0.43509 0.0
H1179 H 0.09238 0.48165 0.59902 0.0
H1180 H 0.97997 0.58379 0.47323 0.0
H1181 H 0.00571 0.59652 0.49783 0.0
N1182 N 0.01389 0.55505 0.48766 0.0
C1183 C 1.00018 0.54797 0.47375 0.0
C1184 C 0.01614 0.57231 0.49612 0.0
C1185 C 0.98948 0.57564 0.47706 0.0
C1186 C 0.00398 0.58288 0.49096 0.0
C1187 C 0.98743 0.55798 0.46825 0.0
H1188 H 0.96298 0.55741 0.45004 0.0
N1189 N 0.01128 0.52125 0.47135 0.0
C1190 C 0.99871 0.53045 0.4655 0.0
C1191 C 0.98365 0.505 0.4427 0.0
C1192 C 0.98444 0.5225 0.45124 0.0
C1193 C 0.01109 0.50458 0.46216 0.0
C1194 C 0.99719 0.49612 0.44797 0.0
O1195 O 0.05611 0.51952 0.54765 0.0
O1196 O 0.04188 0.52488 0.52223 0.0
O1197 O 0.05095 0.53543 0.47679 0.0
O1198 O 0.05257 0.56004 0.49562 0.0
O1199 O 0.02377 0.53696 0.5503 0.0
O1200 O 0.03629 0.5538 0.52656 0.0
O1201 O 0.00613 0.53344 0.50738 0.0
O1202 O 0.01126 0.50907 0.51996 0.0
O1203 O 0.00677 0.50832 0.56623 0.0
O1204 O 0.01154 0.48276 0.55404 0.0
O1205 O 0.03846 0.50752 0.49522 0.0
O1206 O 0.02542 0.49058 0.51833 0.0
C1207 C 0.0571 0.52668 0.53212 0.0
C1208 C 0.02954 0.5523 0.54315 0.0
C1209 C 0.06091 0.56233 0.46414 0.0
C1210 C 0.06776 0.56205 0.43112 0.0
C1211 C 0.06675 0.5902 0.45005 0.0
C1212 C 0.0627 0.58106 0.46571 0.0
C1213 C 0.06941 0.58082 0.43289 0.0
C1214 C 0.06317 0.55296 0.44672 0.0
C1215 C 0.0582 0.55241 0.48078 0.0
C1216 C 0.97151 0.53229 0.44588 0.0
C1217 C 0.97301 0.55 0.45435 0.0
H1218 H 0.97289 0.49839 0.43173 0.0
C1219 C 1.00111 0.52064 0.51766 0.0
C1220 C 0.03298 0.49208 0.50224 0.0
C1221 C 1.00304 0.48429 0.58513 0.0
C1222 C 0.99468 0.48716 0.6173 0.0
C1223 C 0.00796 0.46225 0.60656 0.0
C1224 C 0.00907 0.46855 0.58875 0.0
C1225 C 1.0008 0.47149 0.62082 0.0
C1226 C 0.9959 0.49349 0.59948 0.0
C1227 C 0.00349 0.49093 0.56635 0.0
H1228 H 0.06829 0.60467 0.45136 0.0
H1229 H 0.06123 0.58865 0.47906 0.0
H1230 H 0.07331 0.58836 0.4213 0.0
H1231 H 0.06173 0.53849 0.44544 0.0
H1232 H 0.01246 0.45006 0.60924 0.0
H1233 H 0.01452 0.46104 0.57784 0.0
H1234 H 0.99961 0.46614 0.63439 0.0
H1235 H 0.99116 0.50557 0.59674 0.0
C1236 C 0.73515 0.79611 0.22746 0.0
C1237 C 0.71379 0.77064 0.21001 0.0
C1238 C 0.72608 0.7784 0.22628 0.0
C1239 C 0.71114 0.78071 0.19477 0.0
C1240 C 0.73216 0.80639 0.21236 0.0
C1241 C 0.72033 0.79852 0.19592 0.0
N1242 N 0.74657 0.80338 0.24354 0.0
C1243 C 0.7541 0.82127 0.2461 0.0
C1244 C 0.7409 0.8244 0.21437 0.0
C1245 C 0.75171 0.83193 0.23144 0.0
Gd1246 Gd 0.79968 0.76938 0.27178 0.0
Gd1247 Gd 0.74995 0.78399 0.26695 0.0
N1248 N 0.72925 0.76878 0.24102 0.0
C1249 C 0.70456 0.75294 0.20953 0.0
C1250 C 0.71976 0.75179 0.24095 0.0
C1251 C 0.70744 0.74354 0.22515 0.0
H1252 H 0.72125 0.74469 0.25326 0.0
H1253 H 0.70005 0.73 0.22512 0.0
H1254 H 0.82538 0.81008 0.28218 0.0
H1255 H 0.76163 0.82758 0.25956 0.0
H1256 H 0.84718 0.82753 0.30877 0.0
H1257 H 0.69502 0.7465 0.19729 0.0
H1258 H 0.7019 0.7749 0.18208 0.0
H1259 H 0.79262 0.72596 0.28168 0.0
H1260 H 0.73897 0.83273 0.20309 0.0
H1261 H 0.75798 0.84603 0.23345 0.0
H1262 H 0.85155 0.7858 0.35471 0.0
H1263 H 0.71799 0.80618 0.18413 0.0
H1264 H 0.81882 0.72548 0.33785 0.0
H1265 H 0.79964 0.70954 0.3086 0.0
N1266 N 0.80579 0.7517 0.29626 0.0
C1267 C 0.81729 0.76049 0.31172 0.0
C1268 C 0.80013 0.73345 0.29471 0.0
C1269 C 0.81532 0.73295 0.32627 0.0
C1270 C 0.80444 0.72392 0.30982 0.0
C1271 C 0.82224 0.75136 0.3272 0.0
H1272 H 0.8382 0.75393 0.35486 0.0
N1273 N 0.82016 0.78688 0.29642 0.0
C1274 C 0.82494 0.77846 0.31163 0.0
C1275 C 0.84536 0.80569 0.32605 0.0
C1276 C 0.83755 0.78774 0.32699 0.0
C1277 C 0.82842 0.80402 0.29492 0.0
C1278 C 0.8409 0.81381 0.30985 0.0
O1279 O 0.76121 0.77631 0.23934 0.0
O1280 O 0.77881 0.75616 0.24727 0.0
O1281 O 0.82024 0.77764 0.2526 0.0
O1282 O 0.81723 0.75215 0.26446 0.0
O1283 O 0.74895 0.75571 0.2739 0.0
O1284 O 0.77598 0.74649 0.27113 0.0
O1285 O 0.79317 0.78696 0.29696 0.0
O1286 O 0.76338 0.77635 0.294 0.0
O1287 O 0.72324 0.77841 0.27604 0.0
O1288 O 0.74038 0.8051 0.28284 0.0
O1289 O 0.79388 0.79285 0.25708 0.0
O1290 O 0.77489 0.80572 0.27418 0.0
C1291 C 0.77039 0.76401 0.23457 0.0
C1292 C 0.75903 0.74363 0.27357 0.0
C1293 C 0.84041 0.75687 0.24421 0.0
C1294 C 0.86611 0.76154 0.22626 0.0
C1295 C 0.85557 0.73243 0.23651 0.0
C1296 C 0.84221 0.73893 0.2448 0.0
C1297 C 0.8674 0.74359 0.22733 0.0
C1298 C 0.85255 0.76832 0.23483 0.0
C1299 C 0.82594 0.76277 0.25395 0.0
C1300 C 0.84201 0.77885 0.3427 0.0
C1301 C 0.83436 0.76071 0.34281 0.0
H1302 H 0.85507 0.81329 0.33759 0.0
C1303 C 0.77801 0.78562 0.30405 0.0
C1304 C 0.78923 0.80704 0.26547 0.0
C1305 C 0.71115 0.80228 0.29296 0.0
C1306 C 0.68557 0.79964 0.31107 0.0
C1307 C 0.69698 0.82767 0.29888 0.0
C1308 C 0.71006 0.82016 0.2911 0.0
C1309 C 0.68491 0.81757 0.30885 0.0
C1310 C 0.69862 0.79185 0.30278 0.0
C1311 C 0.72509 0.79488 0.28394 0.0
H1312 H 0.85675 0.71862 0.2372 0.0
H1313 H 0.83326 0.72973 0.25178 0.0
H1314 H 0.87769 0.73817 0.22099 0.0
H1315 H 0.85147 0.78217 0.23417 0.0
H1316 H 0.69622 0.84144 0.29721 0.0
H1317 H 0.71926 0.82832 0.28338 0.0
H1318 H 0.67493 0.82379 0.31485 0.0
H1319 H 0.69927 0.77802 0.30431 0.0
C1320 C 0.80445 0.23746 0.72006 0.0
C1321 C 0.78183 0.22518 0.69301 0.0
C1322 C 0.78855 0.23795 0.70926 0.0
C1323 C 0.79127 0.21187 0.68785 0.0
C1324 C 0.81416 0.22437 0.71463 0.0
C1325 C 0.80742 0.2115 0.69859 0.0
N1326 N 0.8104 0.24977 0.73585 0.0
C1327 C 0.8265 0.25043 0.74608 0.0
C1328 C 0.8304 0.22463 0.72546 0.0
C1329 C 0.83668 0.23784 0.74111 0.0
Gd1330 Gd 0.76402 0.26867 0.7939 0.0
Gd1331 Gd 0.79187 0.26979 0.74336 0.0
N1332 N 0.77948 0.25072 0.71492 0.0
C1333 C 0.76583 0.22619 0.68243 0.0
C1334 C 0.76441 0.25238 0.70402 0.0
C1335 C 0.75721 0.23999 0.68783 0.0
H1336 H 0.75793 0.2633 0.70757 0.0
H1337 H 0.74505 0.24117 0.67946 0.0
H1338 H 0.80148 0.27775 0.82704 0.0
H1339 H 0.83179 0.26081 0.75791 0.0
H1340 H 0.81727 0.30262 0.8508 0.0
H1341 H 0.76019 0.21659 0.66991 0.0
H1342 H 0.78626 0.20187 0.6755 0.0
H1343 H 0.72372 0.2765 0.78381 0.0
H1344 H 0.83829 0.21484 0.72171 0.0
H1345 H 0.8494 0.23838 0.74933 0.0
H1346 H 0.77765 0.34352 0.85436 0.0
H1347 H 0.81463 0.20124 0.69432 0.0
H1348 H 0.72094 0.3263 0.81589 0.0
H1349 H 0.70703 0.30007 0.792 0.0
N1350 N 0.74664 0.28911 0.80313 0.0
C1351 C 0.75435 0.30312 0.81661 0.0
C1352 C 0.72981 0.28777 0.79446 0.0
C1353 C 0.72823 0.31589 0.81252 0.0
C1354 C 0.72034 0.30111 0.79903 0.0
C1355 C 0.74545 0.31704 0.82151 0.0
H1356 H 0.74749 0.34259 0.83888 0.0
N1357 N 0.77939 0.28987 0.82002 0.0
C1358 C 0.77132 0.30361 0.8252 0.0
C1359 C 0.79674 0.31788 0.84808 0.0
C1360 C 0.77985 0.31809 0.83914 0.0
C1361 C 0.79544 0.28913 0.82963 0.0
C1362 C 0.80443 0.30319 0.84353 0.0
O1363 O 0.77815 0.24133 0.74496 0.0
O1364 O 0.77354 0.25841 0.76872 0.0
O1365 O 0.76437 0.24749 0.81162 0.0
O1366 O 0.73927 0.2513 0.79805 0.0
O1367 O 0.76347 0.27569 0.74054 0.0
O1368 O 0.74641 0.26563 0.76501 0.0
O1369 O 0.76983 0.29516 0.78326 0.0
O1370 O 0.7932 0.28755 0.77111 0.0
O1371 O 0.79114 0.29159 0.72608 0.0
O1372 O 0.8161 0.28422 0.73513 0.0
O1373 O 0.79146 0.26103 0.79727 0.0
O1374 O 0.80848 0.27063 0.77277 0.0
C1375 C 0.77102 0.24232 0.76042 0.0
C1376 C 0.74827 0.27172 0.74809 0.0
C1377 C 0.74062 0.24212 0.82935 0.0
C1378 C 0.74574 0.23567 0.86229 0.0
C1379 C 0.7201 0.2478 0.85178 0.0
C1380 C 0.72521 0.24806 0.83338 0.0
C1381 C 0.73036 0.24175 0.86625 0.0
C1382 C 0.75061 0.23568 0.8438 0.0
C1383 C 0.74723 0.24321 0.81066 0.0
C1384 C 0.77122 0.33221 0.84383 0.0
C1385 C 0.75404 0.33167 0.83505 0.0
H1386 H 0.80377 0.32876 0.85883 0.0
C1387 C 0.78315 0.29921 0.77361 0.0
C1388 C 0.80662 0.26442 0.78965 0.0
C1389 C 0.81338 0.29607 0.70561 0.0
C1390 C 0.81129 0.31071 0.67691 0.0
C1391 C 0.83249 0.29153 0.68116 0.0
C1392 C 0.82683 0.28807 0.69883 0.0
C1393 C 0.82481 0.30292 0.67023 0.0
C1394 C 0.8056 0.30728 0.69449 0.0
C1395 C 0.80804 0.29401 0.72468 0.0
H1396 H 0.70821 0.25234 0.85487 0.0
H1397 H 0.71723 0.25306 0.82245 0.0
H1398 H 0.72611 0.24151 0.88038 0.0
H1399 H 0.7625 0.23101 0.84076 0.0
H1400 H 0.8429 0.28547 0.676 0.0
H1401 H 0.83312 0.27936 0.70721 0.0
H1402 H 0.82927 0.30557 0.65655 0.0
H1403 H 0.79529 0.31362 0.69962 0.0
C1404 C 0.82958 0.81323 0.80288 0.0
C1405 C 0.84333 0.82972 0.77884 0.0
C1406 C 0.82819 0.8197 0.78507 0.0
C1407 C 0.85968 0.83315 0.7906 0.0
C1408 C 0.84589 0.81707 0.8149 0.0
C1409 C 0.86092 0.82698 0.80863 0.0
N1410 N 0.81488 0.80354 0.80866 0.0
C1411 C 0.81527 0.79834 0.82661 0.0
C1412 C 0.84653 0.81123 0.83312 0.0
C1413 C 0.83112 0.80193 0.83904 0.0
Gd1414 Gd 0.76865 0.75402 0.76087 0.0
Gd1415 Gd 0.7885 0.8017 0.78877 0.0
N1416 N 0.812 0.81692 0.77429 0.0
C1417 C 0.84153 0.83654 0.76123 0.0
C1418 C 0.81006 0.82468 0.75779 0.0
C1419 C 0.82481 0.83411 0.75074 0.0
H1420 H 0.79721 0.82444 0.75034 0.0
H1421 H 0.82318 0.83999 0.7375 0.0
H1422 H 0.75491 0.73264 0.79699 0.0
H1423 H 0.80328 0.792 0.83168 0.0
H1424 H 0.72715 0.71543 0.80565 0.0
H1425 H 0.85286 0.84423 0.75593 0.0
H1426 H 0.87139 0.84092 0.78607 0.0
H1427 H 0.75941 0.76238 0.71506 0.0
H1428 H 0.85876 0.81416 0.84287 0.0
H1429 H 0.83137 0.79784 0.8533 0.0
H1430 H 0.68409 0.71573 0.75169 0.0
H1431 H 0.87355 0.8301 0.8177 0.0
H1432 H 0.70409 0.74337 0.69783 0.0
H1433 H 0.73349 0.75823 0.69074 0.0
N1434 N 0.74468 0.7524 0.73694 0.0
C1435 C 0.72875 0.74347 0.74085 0.0
C1436 C 0.74655 0.75718 0.71899 0.0
C1437 C 0.71535 0.74588 0.70893 0.0
C1438 C 0.7319 0.75434 0.70489 0.0
C1439 C 0.71366 0.74003 0.72694 0.0
H1440 H 0.68583 0.72748 0.7206 0.0
N1441 N 0.74264 0.7394 0.77113 0.0
C1442 C 0.72774 0.73663 0.75834 0.0
C1443 C 0.71145 0.71909 0.77982 0.0
C1444 C 0.71168 0.72646 0.76242 0.0
C1445 C 0.74274 0.73143 0.78762 0.0
C1446 C 0.72709 0.72147 0.79241 0.0
O1447 O 0.80763 0.78247 0.78361 0.0
O1448 O 0.796 0.76704 0.75426 0.0
O1449 O 0.77685 0.72959 0.76647 0.0
O1450 O 0.76582 0.73236 0.73763 0.0
O1451 O 0.77439 0.80203 0.7589 0.0
O1452 O 0.77922 0.77581 0.74342 0.0
O1453 O 0.75045 0.76691 0.77891 0.0
O1454 O 0.75886 0.7972 0.77801 0.0
O1455 O 0.79412 0.83037 0.79624 0.0
O1456 O 0.78109 0.81328 0.81546 0.0
O1457 O 0.78351 0.75501 0.79048 0.0
O1458 O 0.77716 0.78027 0.80615 0.0
C1459 C 0.80988 0.77424 0.76695 0.0
C1460 C 0.77541 0.79176 0.74306 0.0
C1461 C 0.78691 0.71385 0.74088 0.0
C1462 C 0.8067 0.69354 0.74674 0.0
C1463 C 0.79926 0.70016 0.71431 0.0
C1464 C 0.78824 0.71122 0.72112 0.0
C1465 C 0.80825 0.69106 0.72702 0.0
C1466 C 0.7969 0.70573 0.75355 0.0
C1467 C 0.77344 0.72258 0.74851 0.0
C1468 C 0.69654 0.72353 0.74882 0.0
C1469 C 0.69753 0.73025 0.73113 0.0
H1470 H 0.69937 0.71119 0.78346 0.0
C1471 C 0.74671 0.78305 0.78001 0.0
C1472 C 0.7808 0.76423 0.80625 0.0
C1473 C 0.77603 0.84286 0.81625 0.0
C1474 C 0.76344 0.86783 0.80712 0.0
C1475 C 0.76424 0.86095 0.83997 0.0
C1476 C 0.77239 0.84664 0.83514 0.0
C1477 C 0.75999 0.87172 0.82606 0.0
C1478 C 0.77106 0.85322 0.80215 0.0
C1479 C 0.78689 0.82966 0.81206 0.0
H1480 H 0.80012 0.69795 0.69906 0.0
H1481 H 0.78047 0.71725 0.71094 0.0
H1482 H 0.81561 0.68148 0.72134 0.0
H1483 H 0.79592 0.70775 0.76882 0.0
H1484 H 0.7616 0.86396 0.85458 0.0
H1485 H 0.77629 0.83882 0.84623 0.0
H1486 H 0.75404 0.88305 0.83004 0.0
H1487 H 0.77387 0.85053 0.78751 0.0
C1488 C 0.48767 0.47113 0.48549 0.0
C1489 C 0.47215 0.45569 0.50916 0.0
C1490 C 0.48207 0.47143 0.50365 0.0
C1491 C 0.46798 0.43978 0.4963 0.0
C1492 C 0.48338 0.45517 0.47252 0.0
C1493 C 0.47351 0.43953 0.47802 0.0
N1494 N 0.49726 0.48643 0.48049 0.0
C1495 C 0.5026 0.48679 0.46267 0.0
C1496 C 0.48899 0.45541 0.4543 0.0
C1497 C 0.49862 0.47131 0.44935 0.0
Gd1498 Gd 0.54761 0.53268 0.53149 0.0
Gd1499 Gd 0.50075 0.51208 0.50285 0.0
N1500 N 0.48608 0.4871 0.51579 0.0
C1501 C 0.46639 0.45649 0.52731 0.0
C1502 C 0.47946 0.48816 0.53294 0.0
C1503 C 0.46994 0.47283 0.53918 0.0
H1504 H 0.48071 0.50083 0.54152 0.0
H1505 H 0.46492 0.47375 0.55292 0.0
H1506 H 0.56413 0.5459 0.49147 0.0
H1507 H 0.50917 0.49919 0.45834 0.0
H1508 H 0.5798 0.57347 0.48096 0.0
H1509 H 0.45876 0.44469 0.53207 0.0
H1510 H 0.4603 0.42761 0.50028 0.0
H1511 H 0.53943 0.54412 0.57662 0.0
H1512 H 0.48581 0.44346 0.44389 0.0
H1513 H 0.50271 0.47172 0.43517 0.0
H1514 H 0.58784 0.6173 0.53641 0.0
H1515 H 0.47003 0.42718 0.46821 0.0
H1516 H 0.56364 0.59947 0.59285 0.0
H1517 H 0.54655 0.57094 0.60073 0.0
N1518 N 0.55126 0.5576 0.55479 0.0
C1519 C 0.5608 0.57311 0.55016 0.0
C1520 C 0.54615 0.55667 0.57267 0.0
C1521 C 0.5602 0.58783 0.58203 0.0
C1522 C 0.55047 0.57177 0.58651 0.0
C1523 C 0.56549 0.58867 0.5637 0.0
H1524 H 0.57914 0.61655 0.56887 0.0
N1525 N 0.56093 0.55837 0.51881 0.0
C1526 C 0.56576 0.57351 0.53172 0.0
C1527 C 0.58025 0.58953 0.50797 0.0
C1528 C 0.57549 0.58951 0.52657 0.0
C1529 C 0.56631 0.55813 0.50101 0.0
C1530 C 0.5757 0.57374 0.49518 0.0
O1531 O 0.51785 0.49142 0.50968 0.0
O1532 O 0.53598 0.5044 0.53748 0.0
O1533 O 0.57331 0.52703 0.52732 0.0
O1534 O 0.56738 0.53458 0.55601 0.0
O1535 O 0.50181 0.52654 0.53301 0.0
O1536 O 0.52702 0.52074 0.54896 0.0
O1537 O 0.53033 0.55321 0.52518 0.0
O1538 O 0.5125 0.54048 0.49721 0.0
O1539 O 0.47533 0.51922 0.50552 0.0
O1540 O 0.48233 0.51071 0.47708 0.0
O1541 O 0.54667 0.51786 0.50156 0.0
O1542 O 0.52163 0.52391 0.48583 0.0
C1543 C 0.52788 0.49004 0.52558 0.0
C1544 C 0.51121 0.52434 0.54893 0.0
C1545 C 0.58709 0.51488 0.55282 0.0
C1546 C 0.60898 0.49659 0.54901 0.0
C1547 C 0.59288 0.49513 0.5766 0.0
C1548 C 0.58355 0.50772 0.56996 0.0
C1549 C 0.6057 0.48965 0.56624 0.0
C1550 C 0.59975 0.5092 0.54246 0.0
C1551 C 0.57858 0.5289 0.54574 0.0
C1552 C 0.58027 0.60495 0.5401 0.0
C1553 C 0.57532 0.60452 0.55861 0.0
H1554 H 0.58771 0.60155 0.50348 0.0
C1555 C 0.52014 0.55471 0.50948 0.0
C1556 C 0.53703 0.51949 0.4856 0.0
C1557 C 0.45365 0.51825 0.47789 0.0
C1558 C 0.4285 0.53253 0.47946 0.0
C1559 C 0.42975 0.51168 0.45153 0.0
C1560 C 0.4461 0.50907 0.45979 0.0
C1561 C 0.42089 0.52332 0.46134 0.0
C1562 C 0.44501 0.53015 0.48739 0.0
C1563 C 0.47071 0.51603 0.48694 0.0
H1564 H 0.59024 0.48971 0.58984 0.0
H1565 H 0.57378 0.51193 0.57829 0.0
H1566 H 0.61292 0.47995 0.57152 0.0
H1567 H 0.60273 0.51491 0.5294 0.0
H1568 H 0.42385 0.50452 0.43763 0.0
H1569 H 0.45275 0.49987 0.45214 0.0
H1570 H 0.40799 0.52478 0.455 0.0
H1571 H 0.45123 0.53765 0.50107 0.0
C1572 C 0.06969 0.56658 0.98744 0.0
C1573 C 0.09108 0.58402 0.01354 0.0
C1574 C 0.07872 0.56818 0.00593 0.0
C1575 C 0.09402 0.5984 0.00259 0.0
C1576 C 0.07327 0.58081 0.97616 0.0
C1577 C 0.08516 0.59679 0.98397 0.0
N1578 N 0.05826 0.55088 0.98011 0.0
C1579 C 0.05182 0.548 0.96093 0.0
C1580 C 0.06533 0.57838 0.95709 0.0
C1581 C 0.05486 0.56179 0.94936 0.0
Gd1582 Gd 0.00437 0.52436 0.02719 0.0
Gd1583 Gd 0.05448 0.52918 0.0019 0.0
N1584 N 0.07553 0.55419 0.01645 0.0
C1585 C 0.10032 0.58485 0.03189 0.0
C1586 C 0.08509 0.55455 0.03388 0.0
C1587 C 0.09745 0.56998 0.04201 0.0
H1588 H 0.08327 0.54287 0.0414 0.0
H1589 H 0.10484 0.57034 0.05599 0.0
H1590 H 0.97269 0.50926 0.98967 0.0
H1591 H 0.04473 0.53502 0.95402 0.0
H1592 H 0.95012 0.48181 0.97825 0.0
H1593 H 0.10993 0.59679 0.03821 0.0
H1594 H 0.10338 0.61071 0.00826 0.0
H1595 H 0.01879 0.52118 0.07432 0.0
H1596 H 0.06781 0.58896 0.94799 0.0
H1597 H 0.04941 0.55946 0.93433 0.0
H1598 H 0.95292 0.44578 0.02987 0.0
H1599 H 0.08792 0.60786 0.97553 0.0
H1600 H 0.99299 0.46995 0.0867 0.0
H1601 H 0.0142 0.49873 0.09662 0.0
N1602 N 1.00148 0.5048 0.05085 0.0
C1603 C 0.98888 0.48946 0.04545 0.0
C1604 C 0.01004 0.50845 0.06921 0.0
C1605 C 0.99518 0.47964 0.07655 0.0
C1606 C 0.00723 0.49584 0.08217 0.0
C1607 C 0.98564 0.47638 0.05814 0.0
H1608 H 0.97026 0.4504 0.06181 0.0
N1609 N 0.98178 0.49971 0.01529 0.0
C1610 C 0.97877 0.48689 0.02734 0.0
C1611 C 0.95555 0.46919 0.00359 0.0
C1612 C 0.96566 0.47116 0.02163 0.0
C1613 C 0.97132 0.49834 0.99822 0.0
C1614 C 0.95825 0.48295 0.99195 0.0
O1615 O 0.04825 0.55425 0.01959 0.0
O1616 O 0.01749 0.55055 0.01641 0.0
O1617 O 0.98062 0.53532 0.01922 0.0
O1618 O 0.99426 0.53929 0.04901 0.0
O1619 O 0.0449 0.51867 0.0286 0.0
O1620 O 0.02895 0.53327 0.04767 0.0
O1621 O 0.01013 0.49751 0.01388 0.0
O1622 O 0.03754 0.50064 0.00095 0.0
O1623 O 0.07768 0.51782 0.01078 0.0
O1624 O 0.0689 0.51907 0.98041 0.0
O1625 O 0.0205 0.52843 0.00413 0.0
O1626 O 0.03182 0.52267 0.97846 0.0
C1627 C 0.03362 0.56063 0.02173 0.0
C1628 C 0.04399 0.529 0.04431 0.0
C1629 C 0.96829 0.55207 0.04475 0.0
C1630 C 0.94196 0.56504 0.04076 0.0
C1631 C 0.95738 0.56555 0.07264 0.0
C1632 C 0.96961 0.55684 0.06475 0.0
C1633 C 0.94359 0.56956 0.06076 0.0
C1634 C 0.95446 0.55641 0.03267 0.0
C1635 C 0.98109 0.54197 0.03722 0.0
C1636 C 0.96289 0.45797 0.03408 0.0
C1637 C 0.9728 0.46059 0.05227 0.0
H1638 H 0.94536 0.4573 -0.0013 0.0
C1639 C 0.02256 0.49095 0.00536 0.0
C1640 C 0.01769 0.5242 0.98576 0.0
C1641 C 0.09445 0.50596 0.98647 0.0
C1642 C 0.11739 0.48881 0.99229 0.0
C1643 C 0.10933 0.49564 0.96013 0.0
C1644 C 0.09685 0.50474 0.96691 0.0
C1645 C 0.11949 0.4876 0.97272 0.0
C1646 C 0.10497 0.49814 -0.00075 0.0
C1647 C 0.08012 0.5143 0.99288 0.0
H1648 H 0.95852 0.5691 0.08804 0.0
H1649 H 0.98004 0.55369 0.07446 0.0
H1650 H 0.93417 0.57632 0.06719 0.0
H1651 H 0.95318 0.55281 0.01724 0.0
H1652 H 0.11102 0.49468 0.94504 0.0
H1653 H 0.08893 0.51062 0.95674 0.0
H1654 H 0.12907 0.48047 0.96721 0.0
H1655 H 0.10322 0.49885 0.01434 0.0
H1656 H 0.02171 0.20996 0.94505 0.0
H1657 H 0.02619 0.18068 0.95407 0.0
H1658 H 0.9845 0.17951 0.98995 0.0
H1659 H 0.9799 0.20847 0.98101 0.0
H1660 H 0.03461 0.16866 0.99065 0.0
H1661 H 0.96868 0.13108 0.95624 0.0
H1662 H 0.97799 0.15338 0.95118 0.0
H1663 H 0.96799 0.1503 0.97281 0.0
C1664 C 0.01348 0.2035 0.95487 0.0
C1665 C 1.00031 0.21177 0.96209 0.0
C1666 C 0.01608 0.18667 0.96007 0.0
C1667 C 0.00549 0.17745 0.9725 0.0
C1668 C 0.99264 0.1859 0.98002 0.0
H1669 H 0.99063 0.07157 0.01528 0.0
H1670 H 0.98869 0.10158 0.00682 0.0
C1671 C 0.99008 0.20267 0.97491 0.0
C1672 C 0.00768 0.15911 0.97767 0.0
H1673 H 0.98526 0.11554 0.97619 0.0
C1674 C 0.02384 0.15703 0.98737 0.0
C1675 C 0.9937 0.14374 0.97364 0.0
C1676 C 0.97615 0.14461 0.96275 0.0
C1677 C 0.02619 0.14043 0.99359 0.0
C1678 C 0.01218 0.12496 0.98949 0.0
C1679 C 0.9961 0.1271 0.97958 0.0
C1680 C 0.01373 0.10655 0.99525 0.0
C1681 C 0.04354 0.14001 0.00523 0.0
C1682 C 0.02829 0.09873 0.99157 0.0
C1683 C 0.02957 0.08164 0.99682 0.0
C1684 C 0.0161 0.0714 0.00546 0.0
C1685 C 1.00131 0.07894 0.00872 0.0
C1686 C 1.0002 0.09623 0.00381 0.0
H1687 H 0.05003 0.15354 0.0127 0.0
H1688 H 0.04174 0.13056 0.01616 0.0
H1689 H 0.05268 0.13572 0.99545 0.0
H1690 H 0.03866 0.10567 0.9843 0.0
H1691 H 0.04103 0.07629 0.99366 0.0
H1692 H 0.0899 0.77639 0.15983 0.0
H1693 H 0.11572 0.77335 0.18181 0.0
H1694 H 0.15053 0.80191 0.14643 0.0
H1695 H 0.12494 0.80465 0.12428 0.0
H1696 H 0.14725 0.75706 0.16941 0.0
H1697 H 0.16557 0.82758 0.20466 0.0
H1698 H 0.14331 0.81733 0.1938 0.0
H1699 H 0.16006 0.82443 0.17891 0.0
C1700 C 0.10304 0.7822 0.15684 0.0
C1701 C 0.10525 0.79086 0.14026 0.0
C1702 C 0.11782 0.78036 0.16939 0.0
C1703 C 0.13516 0.78748 0.1659 0.0
C1704 C 0.13735 0.79638 0.14956 0.0
H1705 H 0.24397 0.79508 0.21782 0.0
H1706 H 0.21649 0.79782 0.19883 0.0
C1707 C 0.12265 0.79793 0.13687 0.0
C1708 C 0.15105 0.78532 0.1789 0.0
H1709 H 0.18616 0.80903 0.21076 0.0
C1710 C 0.15566 0.76839 0.17859 0.0
C1711 C 0.16215 0.80007 0.19085 0.0
C1712 C 0.15756 0.8184 0.19229 0.0
C1713 C 0.17124 0.76595 0.18943 0.0
C1714 C 0.18247 0.78077 0.20125 0.0
C1715 C 0.1777 0.79765 0.20172 0.0
C1716 C 0.19928 0.77907 0.21303 0.0
C1717 C 0.17587 0.74762 0.18763 0.0
C1718 C 0.19895 0.76778 0.22762 0.0
C1719 C 0.21469 0.7662 0.23856 0.0
C1720 C 0.23129 0.77588 0.23529 0.0
C1721 C 0.23155 0.78731 0.22078 0.0
C1722 C 0.21578 0.78894 0.20989 0.0
H1723 H 0.16829 0.73881 0.17476 0.0
H1724 H 0.19023 0.74871 0.18675 0.0
H1725 H 0.17269 0.74105 0.20052 0.0
H1726 H 0.18647 0.76024 0.23067 0.0
H1727 H 0.21381 0.75724 0.24953 0.0
H1728 H 0.50174 0.82403 0.42909 0.0
H1729 H 0.50705 0.85648 0.43926 0.0
H1730 H 0.51272 0.84689 0.49856 0.0
H1731 H 0.50744 0.81427 0.48829 0.0
H1732 H 0.48609 0.87415 0.46187 0.0
H1733 H 0.55573 0.88809 0.49684 0.0
H1734 H 0.54625 0.86801 0.48044 0.0
H1735 H 0.54092 0.86987 0.50463 0.0
C1736 C 0.50451 0.82887 0.4443 0.0
C1737 C 0.5045 0.81657 0.45785 0.0
C1738 C 0.50744 0.84745 0.45013 0.0
C1739 C 0.51047 0.85436 0.46972 0.0
C1740 C 0.51077 0.84208 0.48335 0.0
H1741 H 0.5079 0.96265 0.52414 0.0
H1742 H 0.50524 0.93014 0.51637 0.0
C1743 C 0.50778 0.8234 0.47749 0.0
C1744 C 0.51222 0.87422 0.47561 0.0
H1745 H 0.54071 0.91227 0.49861 0.0
C1746 C 0.49805 0.88242 0.46992 0.0
C1747 C 0.52779 0.88523 0.48615 0.0
C1748 C 0.54364 0.87747 0.4923 0.0
C1749 C 0.499 0.90104 0.4745 0.0
C1750 C 0.51459 0.91202 0.48483 0.0
C1751 C 0.52875 0.90391 0.49063 0.0
C1752 C 0.5163 0.93193 0.48958 0.0
C1753 C 0.48334 0.90903 0.4682 0.0
C1754 C 0.5234 0.94393 0.47716 0.0
C1755 C 0.52494 0.96261 0.4816 0.0
C1756 C 0.51915 0.96972 0.49843 0.0
C1757 C 0.51201 0.95766 0.5108 0.0
C1758 C 0.51066 0.93903 0.50648 0.0
H1759 H 0.47193 0.89869 0.46077 0.0
H1760 H 0.4791 0.91612 0.48088 0.0
H1761 H 0.48724 0.91912 0.45834 0.0
H1762 H 0.52776 0.93882 0.46399 0.0
H1763 H 0.5305 0.97149 0.47177 0.0
H1764 H 0.51708 0.29694 0.66118 0.0
H1765 H 0.49257 0.29738 0.68066 0.0
H1766 H 0.45561 0.26877 0.63256 0.0
H1767 H 0.47976 0.26815 0.61323 0.0
H1768 H 0.4608 0.31127 0.67489 0.0
H1769 H 0.44516 0.23756 0.67544 0.0
H1770 H 0.46565 0.24913 0.66854 0.0
H1771 H 0.44577 0.24387 0.65165 0.0
C1772 C 0.50374 0.2907 0.65478 0.0
C1773 C 0.50051 0.2824 0.6356 0.0
C1774 C 0.48971 0.29102 0.66592 0.0
C1775 C 0.47219 0.28288 0.65821 0.0
C1776 C 0.46898 0.27487 0.63902 0.0
H1777 H 0.36643 0.2613 0.68832 0.0
H1778 H 0.39295 0.26957 0.67255 0.0
C1779 C 0.48289 0.27459 0.62792 0.0
C1780 C 0.45715 0.28245 0.67001 0.0
H1781 H 0.42325 0.25349 0.6848 0.0
C1782 C 0.45272 0.29864 0.67727 0.0
C1783 C 0.44656 0.26601 0.67326 0.0
C1784 C 0.4511 0.24816 0.66699 0.0
C1785 C 0.43764 0.29875 0.68693 0.0
C1786 C 0.42674 0.28227 0.68949 0.0
C1787 C 0.43146 0.26615 0.68268 0.0
C1788 C 0.41013 0.28113 0.69876 0.0
C1789 C 0.43308 0.31641 0.69378 0.0
C1790 C 0.41069 0.28552 0.71872 0.0
C1791 C 0.39541 0.28084 0.72778 0.0
C1792 C 0.37929 0.27179 0.71701 0.0
C1793 C 0.37854 0.26862 0.69692 0.0
C1794 C 0.39376 0.2732 0.68792 0.0
H1795 H 0.44156 0.32795 0.68865 0.0
H1796 H 0.41899 0.31627 0.68877 0.0
H1797 H 0.43481 0.31843 0.70973 0.0
H1798 H 0.42318 0.2914 0.72746 0.0
H1799 H 0.39651 0.28301 0.74332 0.0
H1800 H 0.04567 0.81531 0.67639 0.0
H1801 H 0.04376 0.83945 0.65665 0.0
H1802 H 0.99823 0.80622 0.62131 0.0
H1803 H 0.99994 0.78187 0.64129 0.0
H1804 H 0.04633 0.84057 0.61857 0.0
H1805 H 0.9805 0.85244 0.63402 0.0
H1806 H 0.99253 0.83896 0.64782 0.0
H1807 H 0.98089 0.82983 0.62447 0.0
C1808 C 0.03518 0.81305 0.66446 0.0
C1809 C 0.02291 0.79656 0.66056 0.0
C1810 C 0.03412 0.82694 0.65312 0.0
C1811 C 0.0207 0.8249 0.63758 0.0
C1812 C 0.00851 0.80837 0.63342 0.0
H1813 H 0.01832 0.90231 0.55228 0.0
H1814 H 0.01023 0.87508 0.56813 0.0
C1815 C 0.0096 0.79436 0.64478 0.0
C1816 C 0.01996 0.84005 0.6257 0.0
H1817 H 0.99486 0.87029 0.61244 0.0
C1818 C 0.03499 0.84692 0.61714 0.0
C1819 C 0.00521 0.84852 0.62378 0.0
C1820 C 0.98889 0.84221 0.63311 0.0
C1821 C 0.03577 0.86199 0.60704 0.0
C1822 C 0.0212 0.87062 0.60541 0.0
C1823 C 0.006 0.86362 0.61358 0.0
C1824 C 0.02245 0.88767 0.59646 0.0
C1825 C 0.05237 0.86893 0.59846 0.0
C1826 C 0.03138 0.90396 0.60719 0.0
C1827 C 0.03595 0.91943 0.5982 0.0
C1828 C 0.03162 0.91907 0.57826 0.0
C1829 C 0.02155 0.9031 0.56771 0.0
C1830 C 0.01701 0.88751 0.57674 0.0
H1831 H 0.06184 0.85973 0.59921 0.0
H1832 H 0.049 0.87081 0.5832 0.0
H1833 H 0.05902 0.88223 0.60632 0.0
H1834 H 0.0358 0.90441 0.62236 0.0
H1835 H 0.04392 0.93145 0.60663 0.0
H1836 H 0.48585 0.8055 0.81146 0.0
H1837 H 0.45475 0.8057 0.79957 0.0
H1838 H 0.43695 0.76912 0.83938 0.0
H1839 H 0.46743 0.76882 0.85117 0.0
H1840 H 0.42403 0.77694 0.78351 0.0
H1841 H 0.41249 0.8111 0.85261 0.0
H1842 H 0.43443 0.81069 0.84649 0.0
H1843 H 0.42177 0.79156 0.8552 0.0
C1844 C 0.47532 0.79743 0.81761 0.0
C1845 C 0.47947 0.78726 0.83249 0.0
C1846 C 0.45745 0.79754 0.81078 0.0
C1847 C 0.44323 0.78766 0.81875 0.0
C1848 C 0.44743 0.77717 0.83314 0.0
H1849 H 0.3281 0.7668 0.81355 0.0
H1850 H 0.36009 0.76927 0.82032 0.0
C1851 C 0.4651 0.77699 0.83986 0.0
C1852 C 0.42402 0.78833 0.81266 0.0
H1853 H 0.38685 0.79752 0.83072 0.0
C1854 C 0.41598 0.78168 0.79378 0.0
C1855 C 0.41321 0.79438 0.82592 0.0
C1856 C 0.4209 0.8025 0.84614 0.0
C1857 C 0.39757 0.78029 0.78813 0.0
C1858 C 0.38669 0.786 0.80157 0.0
C1859 C 0.39488 0.793 0.8203 0.0
C1860 C 0.36681 0.78438 0.79685 0.0
C1861 C 0.38983 0.77196 0.76799 0.0
C1862 C 0.35941 0.79213 0.78142 0.0
C1863 C 0.3409 0.79065 0.77742 0.0
C1864 C 0.32908 0.78158 0.78885 0.0
C1865 C 0.33655 0.77397 0.80436 0.0
C1866 C 0.35501 0.77539 0.8083 0.0
H1867 H 0.39864 0.76401 0.76123 0.0
H1868 H 0.3767 0.76307 0.7679 0.0
H1869 H 0.38808 0.78276 0.75903 0.0
H1870 H 0.36795 0.79953 0.7725 0.0
H1871 H 0.3359 0.79659 0.76527 0.0
H1872 H 0.49699 0.20566 0.11656 0.0
H1873 H 0.50017 0.1773 0.09941 0.0
H1874 H 0.52877 0.1653 0.15065 0.0
H1875 H 0.52488 0.1934 0.16814 0.0
H1876 H 0.52639 0.16499 0.08905 0.0
H1877 H 0.49703 0.11799 0.13717 0.0
H1878 H 0.49573 0.14138 0.13995 0.0
H1879 H 0.51543 0.1344 0.1496 0.0
C1880 C 0.50376 0.19691 0.12434 0.0
C1881 C 0.51049 0.20192 0.14392 0.0
C1882 C 0.50566 0.18059 0.1144 0.0
C1883 C 0.51447 0.16865 0.12358 0.0
C1884 C 0.52137 0.17372 0.14315 0.0
H1885 H 0.54768 0.06943 0.07997 0.0
H1886 H 0.54391 0.09694 0.09887 0.0
C1887 C 0.51924 0.18998 0.1532 0.0
C1888 C 0.51685 0.15139 0.11239 0.0
H1889 H 0.51218 0.1058 0.11303 0.0
C1890 C 0.52313 0.15208 0.09435 0.0
C1891 C 0.51266 0.13427 0.11897 0.0
C1892 C 0.50467 0.1319 0.13737 0.0
C1893 C 0.52548 0.13652 0.08305 0.0
C1894 C 0.5215 0.11951 0.08976 0.0
C1895 C 0.51535 0.11875 0.1078 0.0
C1896 C 0.52356 0.10241 0.07825 0.0
C1897 C 0.53254 0.13845 0.06408 0.0
C1898 C 0.51333 0.09597 0.0603 0.0
C1899 C 0.51527 0.07999 0.04963 0.0
C1900 C 0.52743 0.06992 0.05659 0.0
C1901 C 0.53774 0.07641 0.07446 0.0
C1902 C 0.53572 0.09233 0.08521 0.0
H1903 H 0.53847 0.15264 0.06277 0.0
H1904 H 0.54269 0.13016 0.06223 0.0
H1905 H 0.52155 0.13364 0.05221 0.0
H1906 H 0.50367 0.10322 0.05459 0.0
H1907 H 0.50703 0.07535 0.03601 0.0
H1908 H 0.09046 0.31667 0.32074 0.0
H1909 H 0.11922 0.3176 0.30826 0.0
H1910 H 0.12318 0.26776 0.33016 0.0
H1911 H 0.09496 0.26683 0.34264 0.0
H1912 H 0.15424 0.31679 0.32993 0.0
H1913 H 0.13248 0.25849 0.27346 0.0
H1914 H 0.1171 0.27048 0.2838 0.0
H1915 H 0.12608 0.25442 0.29663 0.0
C1916 C 0.09733 0.3058 0.32268 0.0
C1917 C 0.09009 0.29162 0.33271 0.0
C1918 C 0.11392 0.30639 0.31562 0.0
C1919 C 0.12356 0.29266 0.31803 0.0
C1920 C 0.11615 0.27846 0.32778 0.0
H1921 H 0.22136 0.26012 0.29382 0.0
H1922 H 0.19219 0.26326 0.30147 0.0
C1923 C 0.09986 0.27799 0.33501 0.0
C1924 C 0.14144 0.29304 0.31091 0.0
H1925 H 0.1635 0.26869 0.28176 0.0
C1926 C 0.15619 0.30641 0.31918 0.0
C1927 C 0.14432 0.27944 0.29703 0.0
C1928 C 0.12916 0.26496 0.28705 0.0
C1929 C 0.17356 0.30618 0.31456 0.0
C1930 C 0.17648 0.29244 0.3008 0.0
C1931 C 0.1616 0.27929 0.29228 0.0
C1932 C 0.19477 0.29085 0.29572 0.0
C1933 C 0.18875 0.32022 0.32525 0.0
C1934 C 0.20646 0.30515 0.28957 0.0
C1935 C 0.22342 0.30327 0.28496 0.0
C1936 C 0.22922 0.28696 0.2861 0.0
C1937 C 0.21747 0.27275 0.29222 0.0
C1938 C 0.20062 0.2746 0.29679 0.0
H1939 H 0.18517 0.32649 0.33881 0.0
H1940 H 0.20055 0.31437 0.32879 0.0
H1941 H 0.19236 0.33101 0.31611 0.0
H1942 H 0.20241 0.31777 0.28807 0.0
H1943 H 0.23191 0.31458 0.28031 0.0
H1944 H 0.96565 0.9935 0.214 0.0
H1945 H 0.97646 0.99724 0.1829 0.0
H1946 H 0.94387 0.03605 0.17329 0.0
H1947 H 0.93294 0.03238 0.20423 0.0
H1948 H 0.95481 0.99201 0.14541 0.0
H1949 H 0.99487 0.0613 0.16482 0.0
H1950 H 0.9882 0.0468 0.18259 0.0
H1951 H 0.97258 0.05794 0.17073 0.0
C1952 C 0.96086 0.0029 0.20531 0.0
C1953 C 0.94847 0.01267 0.21161 0.0
C1954 C 0.96701 0.00499 0.18755 0.0
C1955 C 0.96109 0.01705 0.17592 0.0
C1956 C 0.94876 0.02684 0.18217 0.0
H1957 H 0.98028 0.04057 0.05956 0.0
H1958 H 0.9683 0.03946 0.09057 0.0
C1959 C 0.94248 0.02465 0.19982 0.0
C1960 C 0.96745 0.01911 0.15701 0.0
H1961 H 0.99154 0.04905 0.13207 0.0
C1962 C 0.96282 0.00447 0.14248 0.0
C1963 C 0.97792 0.0354 0.15327 0.0
C1964 C 0.98385 0.05125 0.16868 0.0
C1965 C 0.96829 0.00574 0.12422 0.0
C1966 C 0.97872 0.02201 0.12049 0.0
C1967 C 0.98332 0.03669 0.13496 0.0
C1968 C 0.9861 0.02343 0.10207 0.0
C1969 C 0.96299 0.98968 0.109 0.0
C1970 C 1.00011 0.01498 0.09851 0.0
C1971 C 0.00695 0.01567 0.08106 0.0
C1972 C 0.9999 0.02482 0.06671 0.0
C1973 C 0.9859 0.03341 0.07032 0.0
C1974 C 0.97913 0.03283 0.08799 0.0
H1975 H 0.95237 0.97924 0.11295 0.0
H1976 H 0.95837 0.99382 0.09501 0.0
H1977 H 0.97468 0.98361 0.10703 0.0
H1978 H 0.00567 0.00771 0.10923 0.0
H1979 H 0.01764 0.00877 0.07873 0.0
H1980 H 0.23488 0.63174 0.47619 0.0
H1981 H 0.2396 0.65103 0.4508 0.0
H1982 H 0.28794 0.68122 0.48402 0.0
H1983 H 0.28359 0.66175 0.50925 0.0
H1984 H 0.24222 0.68767 0.45507 0.0
H1985 H 0.3033 0.66947 0.43113 0.0
H1986 H 0.28966 0.65606 0.44577 0.0
H1987 H 0.30434 0.67662 0.45638 0.0
C1988 C 0.24654 0.64243 0.47801 0.0
C1989 C 0.25895 0.64519 0.49451 0.0
C1990 C 0.24925 0.65335 0.46353 0.0
C1991 C 0.2643 0.66721 0.46549 0.0
C1992 C 0.27654 0.67023 0.4821 0.0
H1993 H 0.26432 0.75207 0.39427 0.0
H1994 H 0.27555 0.73643 0.42011 0.0
C1995 C 0.27395 0.65919 0.49649 0.0
C1996 C 0.26649 0.67914 0.45053 0.0
H1997 H 0.29214 0.69209 0.41595 0.0
C1998 C 0.25318 0.68875 0.44659 0.0
C1999 C 0.28088 0.68041 0.43966 0.0
C2000 C 0.29532 0.67001 0.44329 0.0
C2001 C 0.25356 0.69929 0.4316 0.0
C2002 C 0.26782 0.70046 0.42058 0.0
C2003 C 0.2814 0.6912 0.4247 0.0
C2004 C 0.26753 0.7101 0.40371 0.0
C2005 C 0.23834 0.70857 0.42714 0.0
C2006 C 0.26029 0.70039 0.3858 0.0
C2007 C 0.25384 0.70923 0.37115 0.0
C2008 C 0.25451 0.72778 0.37445 0.0
C2009 C 0.26336 0.73768 0.39172 0.0
C2010 C 0.27 0.72885 0.40628 0.0
H2011 H 0.22747 0.70476 0.43594 0.0
H2012 H 0.24315 0.72335 0.43001 0.0
H2013 H 0.23288 0.70523 0.41172 0.0
H2014 H 0.25817 0.68585 0.38376 0.0
H2015 H 0.24718 0.70144 0.35781 0.0
H2016 H 0.60941 0.0258 0.71613 0.0
H2017 H 0.59343 0.02841 0.68491 0.0
H2018 H 0.64109 0.02859 0.65847 0.0
H2019 H 0.65709 0.02586 0.68921 0.0
H2020 H 0.60873 0.05802 0.65642 0.0
H2021 H 0.5978 0.98468 0.63123 0.0
H2022 H 0.60063 0.9931 0.6565 0.0
H2023 H 0.61919 0.99628 0.64319 0.0
C2024 C 0.6164 0.02624 0.70362 0.0
C2025 C 0.6344 0.02546 0.70501 0.0
C2026 C 0.60735 0.0279 0.68596 0.0
C2027 C 0.61627 0.02872 0.66971 0.0
C2028 C 0.63417 0.028 0.67104 0.0
H2029 H 0.57049 0.01225 0.55061 0.0
H2030 H 0.5917 0.01583 0.57957 0.0
C2031 C 0.64319 0.02634 0.68857 0.0
C2032 C 0.60675 0.02945 0.65098 0.0
H2033 H 0.58699 0.00289 0.61004 0.0
C2034 C 0.60392 0.04606 0.64616 0.0
C2035 C 0.60116 0.01382 0.63772 0.0
C2036 C 0.60475 0.99589 0.64231 0.0
C2037 C 0.59524 0.04741 0.62813 0.0
C2038 C 0.58869 0.03155 0.61516 0.0
C2039 C 0.59199 0.01503 0.61998 0.0
C2040 C 0.57726 0.03137 0.59712 0.0
C2041 C 0.59348 0.06582 0.62322 0.0
C2042 C 0.56223 0.03896 0.59742 0.0
C2043 C 0.55064 0.03767 0.58077 0.0
C2044 C 0.55338 0.02797 0.56375 0.0
C2045 C 0.56815 0.0199 0.56353 0.0
C2046 C 0.58024 0.02195 0.58003 0.0
H2047 H 0.60483 0.07627 0.63058 0.0
H2048 H 0.59273 0.06651 0.60751 0.0
H2049 H 0.58131 0.06915 0.62832 0.0
H2050 H 0.5592 0.04554 0.61062 0.0
H2051 H 0.53932 0.04399 0.58139 0.0
H2052 H 0.31853 0.35876 0.9764 0.0
H2053 H 0.31269 0.34357 0.94359 0.0
H2054 H 0.25654 0.33465 0.94677 0.0
H2055 H 0.26228 0.35035 0.97959 0.0
H2056 H 0.29654 0.30986 0.92887 0.0
H2057 H 0.25958 0.35812 0.89813 0.0
H2058 H 0.27165 0.36264 0.92199 0.0
H2059 H 0.25028 0.3478 0.91752 0.0
C2060 C 0.30491 0.35356 0.97019 0.0
C2061 C 0.29087 0.3559 0.98061 0.0
C2062 C 0.3016 0.34485 0.95138 0.0
C2063 C 0.28417 0.33824 0.94253 0.0
C2064 C 0.27009 0.34003 0.95309 0.0
H2065 H 0.24953 0.28288 0.82536 0.0
H2066 H 0.24996 0.29506 0.85895 0.0
C2067 C 0.2734 0.34888 0.97192 0.0
C2068 C 0.28102 0.32951 0.92228 0.0
H2069 H 0.26256 0.33318 0.87697 0.0
C2070 C 0.28905 0.31494 0.91756 0.0
C2071 C 0.2712 0.3361 0.90747 0.0
C2072 C 0.2628 0.35211 0.91143 0.0
C2073 C 0.2878 0.30701 0.89848 0.0
C2074 C 0.27836 0.31385 0.88369 0.0
C2075 C 0.26983 0.32801 0.88839 0.0
C2076 C 0.27791 0.30696 0.86318 0.0
C2077 C 0.29669 0.29139 0.89423 0.0
C2078 C 0.29339 0.31001 0.85433 0.0
C2079 C 0.29315 0.30328 0.8351 0.0
C2080 C 0.2775 0.2931 0.82441 0.0
C2081 C 0.2619 0.29043 0.83323 0.0
C2082 C 0.26209 0.29739 0.85241 0.0
H2083 H 0.29996 0.28517 0.90737 0.0
H2084 H 0.28811 0.28096 0.88335 0.0
H2085 H 0.30918 0.29621 0.88828 0.0
H2086 H 0.30567 0.31766 0.8623 0.0
H2087 H 0.30524 0.30609 0.82866 0.0
H2088 H 0.93294 0.98318 0.32062 0.0
H2089 H 0.94882 0.98871 0.35298 0.0
H2090 H 0.97552 0.04083 0.34176 0.0
H2091 H 0.95918 0.03558 0.30927 0.0
H2092 H 0.98382 0.9948 0.36503 0.0
H2093 H 0.95657 0.05362 0.39153 0.0
H2094 H 0.94751 0.03974 0.36913 0.0
H2095 H 0.96778 0.05607 0.37064 0.0
C2096 C 0.94219 0.99584 0.32495 0.0
C2097 C 0.94472 0.00897 0.31235 0.0
C2098 C 0.95127 0.99898 0.34351 0.0
C2099 C 0.96317 0.01529 0.34995 0.0
C2100 C 0.9661 0.02831 0.33728 0.0
H2101 H 0.02305 0.047 0.46517 0.0
H2102 H 0.01136 0.04688 0.43148 0.0
C2103 C 0.95686 0.02523 0.31866 0.0
C2104 C 0.97249 0.01823 0.36989 0.0
H2105 H 0.97674 0.04387 0.4134 0.0
C2106 C 0.98232 0.00559 0.37557 0.0
C2107 C 0.97067 0.0324 0.38362 0.0
C2108 C 0.95996 0.04617 0.37854 0.0
C2109 C 0.99001 0.00645 0.39464 0.0
C2110 C 0.98762 0.02019 0.40851 0.0
C2111 C 0.97842 0.03328 0.40274 0.0
C2112 C 0.99405 0.02074 0.42917 0.0
C2113 C 1.0006 0.99258 0.39978 0.0
C2114 C 0.98777 0.00635 0.43919 0.0
C2115 C 0.99439 0.00639 0.45838 0.0
C2116 C 0.00741 0.02083 0.46795 0.0
C2117 C 0.01316 0.03558 0.45813 0.0
C2118 C 0.0065 0.03554 0.4389 0.0
H2119 H 0.00548 0.98645 0.38696 0.0
H2120 H 0.01212 0.99854 0.41077 0.0
H2121 H 0.99204 0.98168 0.40576 0.0
H2122 H 0.9778 0.99501 0.43211 0.0
H2123 H 0.98935 0.99506 0.46567 0.0
H2124 H 0.28858 0.65109 0.59702 0.0
H2125 H 0.29161 0.66974 0.62778 0.0
H2126 H 0.2444 0.6886 0.60925 0.0
H2127 H 0.24113 0.66989 0.57824 0.0
H2128 H 0.2924 0.70953 0.63274 0.0
H2129 H 0.23803 0.6658 0.66204 0.0
H2130 H 0.24942 0.65758 0.64303 0.0
H2131 H 0.23326 0.67095 0.63792 0.0
C2132 C 0.27885 0.65924 0.59944 0.0
C2133 C 0.26453 0.65903 0.58538 0.0
C2134 C 0.28064 0.66983 0.61694 0.0
C2135 C 0.2681 0.68019 0.62055 0.0
C2136 C 0.25402 0.6804 0.6065 0.0
H2137 H 0.25171 0.7539 0.71145 0.0
H2138 H 0.25086 0.73437 0.68152 0.0
C2139 C 0.25224 0.66985 0.58888 0.0
C2140 C 0.26983 0.69088 0.63912 0.0
H2141 H 0.25092 0.69386 0.68033 0.0
C2142 C 0.28343 0.70616 0.64324 0.0
C2143 C 0.25815 0.68601 0.65259 0.0
C2144 C 0.24394 0.66912 0.64884 0.0
C2145 C 0.28528 0.71726 0.66057 0.0
C2146 C 0.27326 0.71269 0.67377 0.0
C2147 C 0.25994 0.69717 0.66986 0.0
C2148 C 0.27394 0.72426 0.69153 0.0
C2149 C 0.29971 0.73398 0.66454 0.0
C2150 C 0.2872 0.72469 0.70667 0.0
C2151 C 0.28776 0.73576 0.72363 0.0
C2152 C 0.27504 0.74643 0.72545 0.0
C2153 C 0.26175 0.74592 0.7102 0.0
C2154 C 0.26118 0.73478 0.69327 0.0
H2155 H 0.30669 0.73658 0.65182 0.0
H2156 H 0.29407 0.74584 0.66898 0.0
H2157 H 0.30955 0.7325 0.67657 0.0
H2158 H 0.29702 0.71644 0.70534 0.0
H2159 H 0.29813 0.73597 0.73526 0.0
H2160 H 0.66934 0.03197 0.80844 0.0
H2161 H 0.65337 0.02689 0.8362 0.0
H2162 H 0.60922 0.04531 0.80823 0.0
H2163 H 0.62525 0.05075 0.78047 0.0
H2164 H 0.63707 0.05893 0.85485 0.0
H2165 H 0.59247 0.99239 0.83063 0.0
H2166 H 0.61391 0.99879 0.82258 0.0
H2167 H 0.59579 0.00822 0.81336 0.0
C2168 C 0.65621 0.0349 0.80823 0.0
C2169 C 0.64847 0.04182 0.79249 0.0
C2170 C 0.64712 0.03186 0.82395 0.0
C2171 C 0.63011 0.03539 0.82386 0.0
C2172 C 0.6223 0.04228 0.8082 0.0
H2173 H 0.55463 0.05329 0.89405 0.0
H2174 H 0.5697 0.04143 0.86837 0.0
C2175 C 0.6315 0.04559 0.79258 0.0
C2176 C 0.62121 0.03379 0.84104 0.0
H2177 H 0.58663 0.00903 0.85886 0.0
C2178 C 0.62624 0.04791 0.85597 0.0
C2179 C 0.60721 0.0193 0.84215 0.0
C2180 C 0.60199 0.00369 0.82641 0.0
C2181 C 0.61691 0.04846 0.87178 0.0
C2182 C 0.60243 0.0343 0.87268 0.0
C2183 C 0.59782 0.01975 0.85806 0.0
C2184 C 0.59096 0.03584 0.8877 0.0
C2185 C 0.62198 0.06468 0.8869 0.0
C2186 C 0.59766 0.03583 0.9069 0.0
C2187 C 0.58941 0.04303 0.92151 0.0
C2188 C 0.5742 0.05007 0.91706 0.0
C2189 C 0.56661 0.04844 0.89783 0.0
C2190 C 0.57497 0.04135 0.8832 0.0
H2191 H 0.63181 0.07561 0.88249 0.0
H2192 H 0.61012 0.07007 0.88997 0.0
H2193 H 0.62784 0.06069 0.90043 0.0
H2194 H 0.61005 0.03164 0.91051 0.0
H2195 H 0.59561 0.04409 0.93619 0.0
H2196 H 0.2686 0.32611 0.0671 0.0
H2197 H 0.26765 0.31602 0.09894 0.0
H2198 H 0.29439 0.36894 0.12536 0.0
H2199 H 0.29531 0.3792 0.0937 0.0
H2200 H 0.29604 0.31665 0.12846 0.0
H2201 H 0.24955 0.35876 0.15237 0.0
H2202 H 0.25294 0.35461 0.1275 0.0
H2203 H 0.26896 0.37073 0.14394 0.0
C2204 C 0.2743 0.3356 0.07968 0.0
C2205 C 0.28189 0.35351 0.07784 0.0
C2206 C 0.27374 0.32981 0.09786 0.0
C2207 C 0.28065 0.34183 0.11452 0.0
C2208 C 0.28864 0.35956 0.11271 0.0
H2209 H 0.28124 0.32976 0.23717 0.0
H2210 H 0.28391 0.34207 0.20657 0.0
C2211 C 0.28923 0.36536 0.09457 0.0
C2212 C 0.27958 0.3358 0.13381 0.0
H2213 H 0.26161 0.34258 0.17547 0.0
C2214 C 0.28851 0.32229 0.13875 0.0
C2215 C 0.26987 0.34331 0.14725 0.0
C2216 C 0.25965 0.35756 0.14252 0.0
C2217 C 0.28813 0.31616 0.15685 0.0
C2218 C 0.27808 0.32339 0.17022 0.0
C2219 C 0.26932 0.33706 0.16531 0.0
C2220 C 0.27582 0.3163 0.18892 0.0
C2221 C 0.29881 0.30223 0.16149 0.0
C2222 C 0.26972 0.29791 0.18924 0.0
C2223 C 0.26877 0.29086 0.20664 0.0
C2224 C 0.27317 0.30192 0.22434 0.0
C2225 C 0.27796 0.32063 0.22395 0.0
C2226 C 0.27948 0.32772 0.20642 0.0
H2227 H 0.31017 0.30289 0.15305 0.0
H2228 H 0.30395 0.30392 0.177 0.0
H2229 H 0.29029 0.28864 0.15763 0.0
H2230 H 0.26599 0.28884 0.17599 0.0
H2231 H 0.26492 0.27664 0.20594 0.0
H2232 H 0.22433 0.92394 0.00591 0.0
H2233 H 0.19807 0.93709 0.00733 0.0
H2234 H 0.22037 0.97873 0.97465 0.0
H2235 H 0.24693 0.96575 0.9735 0.0
H2236 H 0.20966 0.98701 0.01581 0.0
H2237 H 0.15842 0.94263 0.96134 0.0
H2238 H 0.17402 0.93237 0.97476 0.0
H2239 H 0.18165 0.94763 0.95829 0.0
C2240 C 0.22331 0.93555 0.99854 0.0
C2241 C 0.23724 0.94387 0.98941 0.0
C2242 C 0.20845 0.943 -0.00064 0.0
C2243 C 0.20743 0.95854 0.99074 0.0
C2244 C 0.22109 0.96656 0.98109 0.0
H2245 H 0.1282 0.0192 0.01988 0.0
H2246 H 0.14854 0.0075 0.0001 0.0
C2247 C 0.23609 0.95923 0.98048 0.0
C2248 C 0.19296 0.96744 0.99408 0.0
H2249 H 0.14814 0.96086 0.98552 0.0
C2250 C 0.19624 0.98175 0.00885 0.0
C2251 C 0.17569 0.96015 0.98498 0.0
C2252 C 0.17211 0.94489 0.96885 0.0
C2253 C 0.18226 0.98834 0.01568 0.0
C2254 C 0.16486 0.98039 0.00727 0.0
C2255 C 0.16164 0.96678 0.99175 0.0
C2256 C 0.14999 0.98501 0.01603 0.0
C2257 C 0.18597 0.00289 0.03262 0.0
C2258 C 0.14412 0.97582 0.0311 0.0
C2259 C 0.13279 0.98255 0.04254 0.0
C2260 C 0.12727 0.99839 0.0388 0.0
C2261 C 0.13241 0.00695 0.02297 0.0
C2262 C 0.14381 1.00028 0.01162 0.0
H2263 H 0.20037 0.00791 0.03715 0.0
H2264 H 0.17992 0.01434 0.02893 0.0
H2265 H 0.17986 0.99762 0.04499 0.0
H2266 H 0.14905 0.96404 0.03459 0.0
H2267 H 0.12863 0.97564 0.05448 0.0
H2268 H 0.71189 0.61948 0.98349 0.0
H2269 H 0.68233 0.60016 0.98093 0.0
H2270 H 0.6753 0.62494 0.03657 0.0
H2271 H 0.70422 0.64476 0.03871 0.0
H2272 H 0.6686 0.57551 0.00157 0.0
H2273 H 0.6305 0.62948 0.00672 0.0
H2274 H 0.65354 0.63383 0.00318 0.0
H2275 H 0.64721 0.63256 0.02698 0.0
C2276 C 0.70394 0.62082 0.99509 0.0
C2277 C 0.71022 0.63372 0.0112 0.0
C2278 C 0.68708 0.60982 0.99361 0.0
C2279 C 0.67639 0.61143 0.00833 0.0
C2280 C 0.68298 0.62391 0.0247 0.0
H2281 H 0.58441 0.55007 0.04516 0.0
H2282 H 0.61384 0.56738 0.04156 0.0
C2283 C 0.69959 0.63513 0.02598 0.0
C2284 C 0.65859 0.59973 0.00707 0.0
H2285 H 0.61575 0.60052 0.01368 0.0
C2286 C 0.65701 0.581 0.00395 0.0
C2287 C 0.64337 0.60687 0.00991 0.0
C2288 C 0.64371 0.62679 0.01166 0.0
C2289 C 0.64082 0.56928 0.00453 0.0
C2290 C 0.626 0.57649 0.00854 0.0
C2291 C 0.62733 0.59512 0.01096 0.0
C2292 C 0.60897 0.56488 0.01052 0.0
C2293 C 0.63959 0.54925 0.00128 0.0
C2294 C 0.59674 0.55779 0.99423 0.0
C2295 C 0.57998 0.54815 0.99629 0.0
C2296 C 0.57546 0.54529 0.01463 0.0
C2297 C 0.58789 0.55187 0.03089 0.0
C2298 C 0.60454 0.56179 0.02885 0.0
H2299 H 0.65251 0.54572 -0.00104 0.0
H2300 H 0.63479 0.54303 0.01382 0.0
H2301 H 0.6298 0.54339 0.98851 0.0
H2302 H 0.59998 0.56015 0.98001 0.0
H2303 H 0.57042 0.54323 0.98364 0.0
H2304 H 0.64595 0.47156 0.30916 0.0
H2305 H 0.66298 0.44778 0.30742 0.0
H2306 H 0.69048 0.4721 0.26355 0.0
H2307 H 0.67388 0.49622 0.2656 0.0
H2308 H 0.66436 0.42331 0.27789 0.0
H2309 H 0.7313 0.46511 0.30018 0.0
H2310 H 0.71144 0.47359 0.303 0.0
H2311 H 0.7199 0.47272 0.28017 0.0
C2312 C 0.65571 0.47192 0.29921 0.0
C2313 C 0.65866 0.48586 0.2876 0.0
C2314 C 0.66543 0.45832 0.29826 0.0
C2315 C 0.67828 0.45836 0.28567 0.0
C2316 C 0.68103 0.47209 0.27381 0.0
H2317 H 0.74009 0.39208 0.23541 0.0
H2318 H 0.72684 0.41602 0.24929 0.0
C2319 C 0.67143 0.4858 0.27489 0.0
C2320 C 0.68825 0.44364 0.28429 0.0
H2321 H 0.72995 0.43539 0.28445 0.0
C2322 C 0.67871 0.42589 0.27961 0.0
C2323 C 0.70697 0.44702 0.28676 0.0
C2324 C 0.718 0.46563 0.29301 0.0
C2325 C 0.68735 0.41155 0.27613 0.0
C2326 C 0.70607 0.41506 0.27766 0.0
C2327 C 0.71561 0.43272 0.28323 0.0
C2328 C 0.71583 0.40109 0.27123 0.0
C2329 C 0.67629 0.39295 0.26984 0.0
C2330 C 0.71471 0.38496 0.27945 0.0
C2331 C 0.72218 0.37109 0.27135 0.0
C2332 C 0.73094 0.37325 0.255 0.0
C2333 C 0.73312 0.3899 0.24776 0.0
C2334 C 0.72563 0.40364 0.25576 0.0
H2335 H 0.66212 0.39318 0.26577 0.0
H2336 H 0.68124 0.38627 0.2574 0.0
H2337 H 0.67713 0.3847 0.28185 0.0
H2338 H 0.70758 0.38287 0.2917 0.0
H2339 H 0.72034 0.35843 0.27728 0.0
H2340 H 0.83312 0.47002 0.49269 0.0
H2341 H 0.86372 0.48435 0.49096 0.0
H2342 H 0.882 0.44671 0.52595 0.0
H2343 H 0.85134 0.43201 0.52751 0.0
H2344 H 0.88704 0.49919 0.52536 0.0
H2345 H 0.91176 0.44779 0.4801 0.0
H2346 H 0.88849 0.44806 0.47972 0.0
H2347 H 0.89998 0.43957 0.49909 0.0
C2348 C 0.84368 0.4648 0.5 0.0
C2349 C 0.84007 0.45012 0.51045 0.0
C2350 C 0.86102 0.47285 0.49882 0.0
C2351 C 0.87481 0.46633 0.50813 0.0
C2352 C 0.87131 0.45155 0.51838 0.0
H2353 H 0.98501 0.4913 0.5321 0.0
H2354 H 0.9535 0.48074 0.53168 0.0
C2355 C 0.85393 0.44335 0.51942 0.0
C2356 C 0.89284 0.47618 0.5089 0.0
H2357 H 0.93332 0.47194 0.49761 0.0
C2358 C 0.89723 0.49341 0.51919 0.0
C2359 C 0.90573 0.46835 0.50069 0.0
C2360 C 0.90128 0.44998 0.48913 0.0
C2361 C 0.9147 0.50284 0.52241 0.0
C2362 C 0.92773 0.49479 0.5147 0.0
C2363 C 0.92315 0.47786 0.50365 0.0
C2364 C 0.94641 0.50321 0.51851 0.0
C2365 C 0.91912 0.52088 0.53464 0.0
C2366 C 0.95263 0.51972 0.51211 0.0
C2367 C 0.97071 0.52626 0.51334 0.0
C2368 C 0.98257 0.51596 0.52032 0.0
C2369 C 0.97622 0.49978 0.52736 0.0
C2370 C 0.95823 0.49359 0.52677 0.0
H2371 H 0.90839 0.52292 0.54336 0.0
H2372 H 0.93161 0.52237 0.54447 0.0
H2373 H 0.92089 0.53166 0.52517 0.0
H2374 H 0.94358 0.52706 0.50531 0.0
H2375 H 0.97533 0.53874 0.50767 0.0
H2376 H 0.33283 0.04597 0.28877 0.0
H2377 H 0.31846 0.07148 0.28667 0.0
H2378 H 0.3661 0.10715 0.31527 0.0
H2379 H 0.38082 0.08176 0.31721 0.0
H2380 H 0.31409 0.10156 0.31489 0.0
H2381 H 0.35714 0.11904 0.25833 0.0
H2382 H 0.35372 0.0973 0.26681 0.0
H2383 H 0.36872 0.1161 0.28085 0.0
C2384 C 0.34015 0.05919 0.29499 0.0
C2385 C 0.35799 0.06207 0.30293 0.0
C2386 C 0.33187 0.07364 0.2939 0.0
C2387 C 0.34137 0.09091 0.30084 0.0
C2388 C 0.35874 0.09371 0.30994 0.0
H2389 H 0.32859 0.19434 0.27851 0.0
H2390 H 0.33323 0.1702 0.29773 0.0
C2391 C 0.36709 0.0793 0.31093 0.0
C2392 C 0.3341 0.10618 0.29595 0.0
H2393 H 0.33949 0.13939 0.26737 0.0
C2394 C 0.31959 0.10999 0.30462 0.0
C2395 C 0.34123 0.11654 0.28211 0.0
C2396 C 0.35595 0.11199 0.27132 0.0
C2397 C 0.31219 0.12453 0.30001 0.0
C2398 C 0.31979 0.1352 0.28671 0.0
C2399 C 0.33412 0.1312 0.27793 0.0
C2400 C 0.31274 0.15008 0.28023 0.0
C2401 C 0.29642 0.12843 0.30913 0.0
C2402 C 0.29969 0.14643 0.26429 0.0
C2403 C 0.29756 0.1599 0.25299 0.0
C2404 C 0.30851 0.17694 0.25766 0.0
C2405 C 0.32065 0.18093 0.2744 0.0
C2406 C 0.32286 0.16744 0.28563 0.0
H2407 H 0.29293 0.11953 0.32027 0.0
H2408 H 0.29916 0.14264 0.31576 0.0
H2409 H 0.28486 0.12651 0.29788 0.0
H2410 H 0.29208 0.13292 0.25986 0.0
H2411 H 0.28753 0.15703 0.24055 0.0
H2412 H 0.30073 0.12238 0.52341 0.0
H2413 H 0.32452 0.10548 0.52528 0.0
H2414 H 0.35209 0.13909 0.4878 0.0
H2415 H 0.32874 0.1564 0.48638 0.0
H2416 H 0.33799 0.08601 0.49803 0.0
H2417 H 0.38928 0.14428 0.53348 0.0
H2418 H 0.36603 0.14476 0.53074 0.0
H2419 H 0.37867 0.14834 0.51098 0.0
C2420 C 0.31187 0.12616 0.51558 0.0
C2421 C 0.313 0.14083 0.50492 0.0
C2422 C 0.32541 0.11647 0.51662 0.0
C2423 C 0.34019 0.12127 0.50696 0.0
C2424 C 0.34101 0.13549 0.49576 0.0
H2425 H 0.43844 0.08399 0.50347 0.0
H2426 H 0.41124 0.09445 0.49345 0.0
C2427 C 0.32763 0.14531 0.49491 0.0
C2428 C 0.35492 0.11163 0.50888 0.0
H2429 H 0.39925 0.11795 0.52315 0.0
C2430 C 0.35139 0.09296 0.50353 0.0
C2431 C 0.37235 0.12077 0.51619 0.0
C2432 C 0.37681 0.14061 0.52336 0.0
C2433 C 0.36494 0.0832 0.50513 0.0
C2434 C 0.38232 0.09242 0.51221 0.0
C2435 C 0.38587 0.11104 0.51746 0.0
C2436 C 0.39702 0.08305 0.51559 0.0
C2437 C 0.36066 0.06317 0.49927 0.0
C2438 C 0.39776 0.073 0.53111 0.0
C2439 C 0.41329 0.0673 0.53697 0.0
C2440 C 0.4281 0.0715 0.52724 0.0
C2441 C 0.42704 0.08061 0.51103 0.0
C2442 C 0.41158 0.08651 0.50532 0.0
H2443 H 0.34753 0.05868 0.4904 0.0
H2444 H 0.37095 0.05899 0.49106 0.0
H2445 H 0.36045 0.05624 0.51236 0.0
H2446 H 0.38672 0.07048 0.53936 0.0
H2447 H 0.41399 0.06027 0.54954 0.0
H2448 H 0.64495 0.60108 0.26565 0.0
H2449 H 0.66525 0.62988 0.26668 0.0
H2450 H 0.70358 0.61246 0.30537 0.0
H2451 H 0.6835 0.58326 0.30389 0.0
H2452 H 0.67975 0.6558 0.29575 0.0
H2453 H 0.73271 0.62799 0.26362 0.0
H2454 H 0.71091 0.61467 0.26395 0.0
H2455 H 0.72687 0.61903 0.28517 0.0
C2456 C 0.65769 0.60334 0.2744 0.0
C2457 C 0.66269 0.58983 0.28456 0.0
C2458 C 0.66928 0.61984 0.27499 0.0
C2459 C 0.68605 0.62321 0.28582 0.0
C2460 C 0.69088 0.60997 0.29651 0.0
H2461 H 0.76277 0.72585 0.30464 0.0
H2462 H 0.74589 0.69607 0.30898 0.0
C2463 C 0.67936 0.59334 0.29574 0.0
C2464 C 0.6984 0.64059 0.28569 0.0
H2465 H 0.73871 0.65929 0.2734 0.0
C2466 C 0.69268 0.65654 0.29098 0.0
C2467 C 0.71523 0.64154 0.2793 0.0
C2468 C 0.72177 0.62491 0.27251 0.0
C2469 C 0.70326 0.67339 0.28988 0.0
C2470 C 0.71998 0.67426 0.28346 0.0
C2471 C 0.72589 0.65843 0.27848 0.0
C2472 C 0.73095 0.69154 0.28062 0.0
C2473 C 0.69644 0.69021 0.29512 0.0
C2474 C 0.72831 0.69847 0.26313 0.0
C2475 C 0.73801 0.71523 0.2606 0.0
C2476 C 0.75034 0.72528 0.27558 0.0
C2477 C 0.75336 0.71817 0.29291 0.0
C2478 C 0.74371 0.70131 0.29541 0.0
H2479 H 0.68363 0.68731 0.30105 0.0
H2480 H 0.70629 0.69961 0.30587 0.0
H2481 H 0.69461 0.6971 0.28214 0.0
H2482 H 0.71855 0.691 0.25157 0.0
H2483 H 0.73577 0.72042 0.24702 0.0
H2484 H 0.87424 0.45157 0.76057 0.0
H2485 H 0.86061 0.42012 0.76188 0.0
H2486 H 0.81969 0.43691 0.79183 0.0
H2487 H 0.83285 0.46819 0.7904 0.0
H2488 H 0.85183 0.40437 0.79856 0.0
H2489 H 0.79513 0.40195 0.74211 0.0
H2490 H 0.81537 0.41867 0.74443 0.0
H2491 H 0.7995 0.42056 0.7609 0.0
C2492 C 0.86222 0.44852 0.7672 0.0
C2493 C 0.8545 0.46218 0.77529 0.0
C2494 C 0.85463 0.43069 0.76808 0.0
C2495 C 0.83932 0.4266 0.77694 0.0
C2496 C 0.83153 0.44012 0.7849 0.0
H2497 H 0.76908 0.32757 0.78587 0.0
H2498 H 0.78375 0.35913 0.78994 0.0
C2499 C 0.83902 0.45788 0.78399 0.0
C2500 C 0.83105 0.40808 0.77747 0.0
H2501 H 0.79469 0.3766 0.75861 0.0
C2502 C 0.83937 0.39816 0.78986 0.0
C2503 C 0.81478 0.4005 0.76616 0.0
C2504 C 0.80568 0.41089 0.75253 0.0
C2505 C 0.83161 0.3804 0.79118 0.0
C2506 C 0.81545 0.37276 0.77961 0.0
C2507 C 0.80708 0.3828 0.76746 0.0
C2508 C 0.80745 0.35396 0.77874 0.0
C2509 C 0.84058 0.36997 0.80487 0.0
C2510 C 0.81599 0.34107 0.7707 0.0
C2511 C 0.80774 0.32314 0.76835 0.0
C2512 C 0.79082 0.31808 0.77385 0.0
C2513 C 0.78213 0.33116 0.78148 0.0
C2514 C 0.79049 0.34907 0.784 0.0
H2515 H 0.85035 0.37901 0.81603 0.0
H2516 H 0.83071 0.36135 0.81206 0.0
H2517 H 0.84774 0.36111 0.7967 0.0
H2518 H 0.82894 0.34491 0.76611 0.0
H2519 H 0.81478 0.31329 0.76263 0.0
H2520 H 0.0748 0.85873 0.10402 0.0
H2521 H 0.06832 0.88441 0.08883 0.0
H2522 H 0.02392 0.84997 0.05291 0.0
H2523 H 0.03025 0.82403 0.06844 0.0
H2524 H 0.06762 0.8938 0.05373 0.0
H2525 H 0.99962 0.88836 0.0733 0.0
H2526 H 0.01456 0.8751 0.08288 0.0
H2527 H 1.00291 0.86877 0.05899 0.0
C2528 C 0.06362 0.85647 0.09287 0.0
C2529 C 0.05303 0.83907 0.08769 0.0
C2530 C 0.05992 0.87132 0.08409 0.0
C2531 C 0.04535 0.86955 0.06985 0.0
C2532 C 0.03499 0.85208 0.06416 0.0
H2533 H 0.01007 0.95452 0.00642 0.0
H2534 H 0.01425 0.92555 0.01612 0.0
C2535 C 0.03875 0.83709 0.07294 0.0
C2536 C 0.04129 0.88606 0.06127 0.0
H2537 H 0.00942 0.91136 0.05452 0.0
C2538 C 0.05484 0.89752 0.05393 0.0
C2539 C 0.02465 0.89127 0.06132 0.0
C2540 C 0.00963 0.88036 0.06969 0.0
C2541 C 0.0523 0.91371 0.04692 0.0
C2542 C 0.0358 0.91903 0.0473 0.0
C2543 C 0.0221 0.90745 0.05417 0.0
C2544 C 0.03286 0.93687 0.04138 0.0
C2545 C 0.06735 0.92507 0.03903 0.0
C2546 C 0.0417 0.95319 0.05226 0.0
C2547 C 0.0389 0.96985 0.04701 0.0
C2548 C 0.02732 0.9709 0.03049 0.0
C2549 C 0.01875 0.95452 0.0194 0.0
C2550 C 0.02124 0.9378 0.02491 0.0
H2551 H 0.07774 0.91746 0.03575 0.0
H2552 H 0.06246 0.93022 0.02575 0.0
H2553 H 0.07349 0.93681 0.0498 0.0
H2554 H 0.05072 0.95305 0.06503 0.0
H2555 H 0.04596 0.982 0.05595 0.0
H2556 H 0.93609 0.22321 0.89458 0.0
H2557 H 0.91006 0.22758 0.8744 0.0
H2558 H 0.93338 0.28377 0.87653 0.0
H2559 H 0.95972 0.27941 0.89648 0.0
H2560 H 0.88629 0.24803 0.88157 0.0
H2561 H 0.9188 0.2711 0.81953 0.0
H2562 H 0.93007 0.2615 0.83831 0.0
H2563 H 0.92754 0.28444 0.84213 0.0
C2564 C 0.93581 0.23652 0.89071 0.0
C2565 C 0.95019 0.25091 0.89718 0.0
C2566 C 0.92082 0.239 0.87911 0.0
C2567 C 0.91969 0.25594 0.87352 0.0
C2568 C 0.93396 0.27043 0.88011 0.0
H2569 H 0.83656 0.29041 0.79964 0.0
H2570 H 0.86353 0.28901 0.82052 0.0
C2571 C 0.94903 0.26794 0.8917 0.0
C2572 C 0.90334 0.25832 0.86135 0.0
H2573 H 0.8883 0.27118 0.81849 0.0
C2574 C 0.88677 0.25307 0.86776 0.0
C2575 C 0.90379 0.26511 0.84337 0.0
C2576 C 0.92097 0.27073 0.8353 0.0
C2577 C 0.87083 0.25442 0.8569 0.0
C2578 C 0.87119 0.26067 0.83862 0.0
C2579 C 0.88781 0.26624 0.83235 0.0
C2580 C 0.85458 0.2615 0.82582 0.0
C2581 C 0.85383 0.24958 0.86555 0.0
C2582 C 0.84041 0.24653 0.82142 0.0
C2583 C 0.82476 0.24753 0.80994 0.0
C2584 C 0.82314 0.26328 0.80186 0.0
C2585 C 0.83746 0.27806 0.80562 0.0
C2586 C 0.85292 0.27724 0.81757 0.0
H2587 H 0.8563 0.25109 0.8815 0.0
H2588 H 0.84433 0.25807 0.86127 0.0
H2589 H 0.84764 0.2353 0.86059 0.0
H2590 H 0.84143 0.23395 0.8268 0.0
H2591 H 0.81404 0.23585 0.80705 0.0
H2592 H 0.53044 0.22528 0.59809 0.0
H2593 H 0.52656 0.19273 0.58867 0.0
H2594 H 0.55964 0.20282 0.54399 0.0
H2595 H 0.56361 0.23515 0.55327 0.0
H2596 H 0.51315 0.17036 0.55292 0.0
H2597 H 0.5837 0.16875 0.57368 0.0
H2598 H 0.57418 0.18763 0.58141 0.0
H2599 H 0.58014 0.18478 0.5575 0.0
C2600 C 0.53686 0.2206 0.58621 0.0
C2601 C 0.54746 0.23306 0.57659 0.0
C2602 C 0.53461 0.2019 0.58081 0.0
C2603 C 0.54305 0.19509 0.56578 0.0
C2604 C 0.55325 0.20753 0.55588 0.0
H2605 H 0.55123 0.08758 0.51411 0.0
H2606 H 0.5541 0.11989 0.523 0.0
C2607 C 0.55543 0.22615 0.56119 0.0
C2608 C 0.54137 0.17512 0.56048 0.0
H2609 H 0.56559 0.14202 0.55691 0.0
C2610 C 0.52462 0.16418 0.55393 0.0
C2611 C 0.55628 0.16685 0.56155 0.0
C2612 C 0.57459 0.17753 0.56907 0.0
C2613 C 0.52244 0.1455 0.54818 0.0
C2614 C 0.53735 0.1372 0.54942 0.0
C2615 C 0.5541 0.14817 0.55592 0.0
C2616 C 0.53586 0.11724 0.54423 0.0
C2617 C 0.5042 0.13491 0.54025 0.0
C2618 C 0.52502 0.10464 0.55339 0.0
C2619 C 0.52368 0.08604 0.54858 0.0
C2620 C 0.53306 0.07933 0.53438 0.0
C2621 C 0.54406 0.092 0.52537 0.0
C2622 C 0.54557 0.11062 0.53033 0.0
H2623 H 0.49543 0.14374 0.5349 0.0
H2624 H 0.50479 0.12447 0.52831 0.0
H2625 H 0.4981 0.12812 0.55181 0.0
H2626 H 0.51768 0.10917 0.5645 0.0
H2627 H 0.51536 0.07692 0.55619 0.0
H2628 H 0.57279 0.78978 0.42514 0.0
H2629 H 0.59678 0.78934 0.40551 0.0
H2630 H 0.56274 0.74829 0.36445 0.0
H2631 H 0.53838 0.74894 0.38394 0.0
H2632 H 0.61357 0.7626 0.39504 0.0
H2633 H 0.5817 0.78401 0.32938 0.0
H2634 H 0.57276 0.78544 0.35196 0.0
H2635 H 0.5696 0.76417 0.33725 0.0
C2636 C 0.57029 0.78067 0.4119 0.0
C2637 C 0.55353 0.76946 0.40614 0.0
C2638 C 0.58411 0.78042 0.40066 0.0
C2639 C 0.58163 0.76897 0.38329 0.0
C2640 C 0.56496 0.75757 0.37754 0.0
H2641 H 0.65896 0.76989 0.29913 0.0
H2642 H 0.63383 0.75874 0.31639 0.0
C2643 C 0.55104 0.75787 0.38878 0.0
C2644 C 0.59671 0.76901 0.37161 0.0
H2645 H 0.6104 0.7785 0.32849 0.0
C2646 C 0.6128 0.76596 0.38043 0.0
C2647 C 0.59578 0.77319 0.35244 0.0
C2648 C 0.5791 0.77704 0.34219 0.0
C2649 C 0.62799 0.76743 0.3709 0.0
C2650 C 0.6273 0.77242 0.35206 0.0
C2651 C 0.61101 0.77469 0.34291 0.0
C2652 C 0.64357 0.77715 0.34239 0.0
C2653 C 0.64466 0.76367 0.38123 0.0
C2654 C 0.65762 0.79095 0.35126 0.0
C2655 C 0.67191 0.79721 0.34148 0.0
C2656 C 0.67258 0.7899 0.32252 0.0
C2657 C 0.65897 0.77555 0.31385 0.0
C2658 C 0.64453 0.76931 0.32366 0.0
H2659 H 0.64158 0.75408 0.39183 0.0
H2660 H 0.65277 0.75808 0.37101 0.0
H2661 H 0.65267 0.77637 0.38923 0.0
H2662 H 0.65712 0.79758 0.36545 0.0
H2663 H 0.68207 0.80846 0.34841 0.0
H2664 H 0.00441 0.25522 0.40273 0.0
H2665 H 0.00466 0.22792 0.41805 0.0
H2666 H 0.05406 0.22342 0.39729 0.0
H2667 H 0.05383 0.25078 0.38159 0.0
H2668 H 0.01395 0.18995 0.39381 0.0
H2669 H 0.05319 0.22322 0.46314 0.0
H2670 H 0.03881 0.23497 0.44986 0.0
H2671 H 0.05832 0.23062 0.44045 0.0
C2672 C 0.01539 0.2485 0.40142 0.0
C2673 C 0.02912 0.25527 0.39091 0.0
C2674 C 0.01548 0.23285 0.41018 0.0
C2675 C 0.02939 0.22364 0.4089 0.0
C2676 C 0.04318 0.2303 0.39846 0.0
H2677 H 0.03811 0.13499 0.47929 0.0
H2678 H 0.04628 0.15875 0.4588 0.0
C2679 C 0.043 0.24591 0.38947 0.0
C2680 C 0.02914 0.20701 0.4184 0.0
H2681 H 0.03951 0.19271 0.46182 0.0
C2682 C 0.01973 0.19049 0.4086 0.0
C2683 C 0.03688 0.20763 0.43759 0.0
C2684 C 0.04744 0.225 0.44852 0.0
C2685 C 0.01728 0.17475 0.41771 0.0
C2686 C 0.02399 0.17558 0.43737 0.0
C2687 C 0.0342 0.19197 0.44685 0.0
C2688 C 0.0193 0.16011 0.44872 0.0
C2689 C 0.00744 0.15738 0.40612 0.0
C2690 C 1.00146 0.15282 0.44994 0.0
C2691 C 0.9968 0.13931 0.4616 0.0
C2692 C 0.00983 0.13267 0.47252 0.0
C2693 C 0.02773 0.13963 0.47096 0.0
C2694 C 0.03241 0.15331 0.45933 0.0
H2695 H 0.00891 0.15746 0.39062 0.0
H2696 H 0.0122 0.14565 0.41119 0.0
H2697 H 0.99313 0.15573 0.40751 0.0
H2698 H 0.99104 0.15797 0.4423 0.0
H2699 H 0.98289 0.13425 0.46234 0.0
H2700 H 0.57178 0.27702 0.22333 0.0
H2701 H 0.60355 0.283 0.23605 0.0
H2702 H 0.6058 0.22857 0.2155 0.0
H2703 H 0.57467 0.22273 0.20258 0.0
H2704 H 0.62459 0.26873 0.26222 0.0
H2705 H 0.64526 0.25502 0.19055 0.0
H2706 H 0.62308 0.25765 0.19361 0.0
H2707 H 0.62947 0.23645 0.19605 0.0
C2708 C 0.57903 0.26631 0.22162 0.0
C2709 C 0.57048 0.24942 0.21163 0.0
C2710 C 0.59729 0.26975 0.22888 0.0
C2711 C 0.60749 0.25642 0.22634 0.0
C2712 C 0.59867 0.23938 0.21719 0.0
H2713 H 0.7155 0.24005 0.25123 0.0
H2714 H 0.68392 0.23808 0.24183 0.0
C2715 C 0.58064 0.23601 0.20987 0.0
C2716 C 0.62725 0.26 0.23291 0.0
H2717 H 0.66689 0.25556 0.2174 0.0
C2718 C 0.63383 0.26604 0.25234 0.0
C2719 C 0.63962 0.25658 0.2202 0.0
C2720 C 0.63404 0.25125 0.19892 0.0
C2721 C 0.65201 0.268 0.25943 0.0
C2722 C 0.66427 0.2641 0.24678 0.0
C2723 C 0.65771 0.25843 0.22729 0.0
C2724 C 0.68378 0.26538 0.25335 0.0
C2725 C 0.65779 0.27357 0.28064 0.0
C2726 C 0.69472 0.2814 0.26293 0.0
C2727 C 0.71292 0.28243 0.26868 0.0
C2728 C 0.72087 0.26753 0.2649 0.0
C2729 C 0.70997 0.25166 0.25496 0.0
C2730 C 0.69178 0.25058 0.24935 0.0
H2731 H 0.64643 0.27139 0.28909 0.0
H2732 H 0.66773 0.26603 0.28618 0.0
H2733 H 0.66392 0.2881 0.28306 0.0
H2734 H 0.68926 0.29327 0.26577 0.0
H2735 H 0.72079 0.29501 0.276 0.0
H2736 H 0.50524 0.83859 0.90128 0.0
H2737 H 0.50845 0.86669 0.92229 0.0
H2738 H 0.56204 0.88293 0.91015 0.0
H2739 H 0.55892 0.85461 0.88886 0.0
H2740 H 0.53259 0.88091 0.95549 0.0
H2741 H 0.54008 0.92643 0.89893 0.0
H2742 H 0.53206 0.90248 0.89328 0.0
H2743 H 0.55524 0.91142 0.90037 0.0
C2744 C 0.51777 0.84807 0.90299 0.0
C2745 C 0.5318 0.84421 0.89319 0.0
C2746 C 0.51958 0.86422 0.91511 0.0
C2747 C 0.5354 0.87718 0.91774 0.0
C2748 C 0.54957 0.87335 0.90818 0.0
H2749 H 0.55932 0.98724 0.97933 0.0
H2750 H 0.56045 0.9592 0.95964 0.0
C2751 C 0.5478 0.85706 0.89607 0.0
C2752 C 0.53685 0.89448 0.93061 0.0
H2753 H 0.54144 0.93997 0.93068 0.0
C2754 C 0.5346 0.89383 0.95007 0.0
C2755 C 0.53957 0.91144 0.92369 0.0
C2756 C 0.54175 0.91311 0.90291 0.0
C2757 C 0.5351 0.90952 0.96274 0.0
C2758 C 0.53724 0.9265 0.95571 0.0
C2759 C 0.53974 0.92713 0.93626 0.0
C2760 C 0.53671 0.94366 0.96811 0.0
C2761 C 0.53378 0.9076 0.98367 0.0
C2762 C 0.52293 0.94469 0.97942 0.0
C2763 C 0.52257 0.96061 0.9911 0.0
C2764 C 0.53564 0.97621 0.99135 0.0
C2765 C 0.5491 0.97545 0.97958 0.0
C2766 C 0.54971 0.95937 0.96825 0.0
H2767 H 0.53864 0.8956 0.98785 0.0
H2768 H 0.54149 0.9196 0.99321 0.0
H2769 H 0.5197 0.90576 0.98614 0.0
H2770 H 0.51224 0.93323 0.9791 0.0
H2771 H 0.51177 0.9608 -0.00036 0.0
H2772 H 0.97143 0.74864 0.73483 0.0
H2773 H 0.94447 0.7518 0.74967 0.0
H2774 H 0.92066 0.76444 0.6962 0.0
H2775 H 0.94698 0.76127 0.68149 0.0
H2776 H 0.92573 0.78122 0.75447 0.0
H2777 H 0.88258 0.72366 0.70774 0.0
H2778 H 0.90642 0.72722 0.70999 0.0
H2779 H 0.89472 0.73956 0.69446 0.0
C2780 C 0.96044 0.75203 0.7262 0.0
C2781 C 0.96166 0.7545 0.70674 0.0
C2782 C 0.94494 0.7539 0.73476 0.0
C2783 C 0.93009 0.75811 0.7241 0.0
C2784 C 0.93151 0.76083 0.70485 0.0
H2785 H 0.8209 0.76971 0.73135 0.0
H2786 H 0.85 0.76663 0.723 0.0
C2787 C 0.94684 0.75904 0.69639 0.0
C2788 C 0.91303 0.75966 0.73257 0.0
H2789 H 0.86806 0.74362 0.72482 0.0
C2790 C 0.91313 0.77287 0.74809 0.0
C2791 C 0.89635 0.74892 0.72445 0.0
C2792 C 0.89495 0.73393 0.70836 0.0
C2793 C 0.89725 0.77617 0.75493 0.0
C2794 C 0.88045 0.76563 0.74648 0.0
C2795 C 0.88055 0.75203 0.73138 0.0
C2796 C 0.86261 0.76863 0.75228 0.0
C2797 C 0.89878 0.79158 0.77059 0.0
C2798 C 0.85928 0.77101 0.77166 0.0
C2799 C 0.84251 0.77336 0.7765 0.0
C2800 C 0.82819 0.77275 0.76217 0.0
C2801 C 0.83143 0.77018 0.74288 0.0
C2802 C 0.84825 0.76833 0.73806 0.0
H2803 H 0.91135 0.80155 0.77116 0.0
H2804 H 0.8876 0.79861 0.76853 0.0
H2805 H 0.89878 0.78632 0.7847 0.0
H2806 H 0.86951 0.77067 0.78319 0.0
H2807 H 0.84062 0.77511 0.79152 0.0
H2808 H 0.09849 0.06317 0.83386 0.0
H2809 H 0.08375 0.05685 0.86221 0.0
H2810 H 0.09809 0.00499 0.85954 0.0
H2811 H 0.11283 0.01112 0.83117 0.0
H2812 H 0.05546 0.0254 0.86607 0.0
H2813 H 0.11773 0.03092 0.91532 0.0
H2814 H 0.11741 0.04021 0.89275 0.0
H2815 H 0.11506 0.01642 0.89301 0.0
C2816 C 0.09848 0.0504 0.83926 0.0
C2817 C 0.10692 0.0377 0.83029 0.0
C2818 C 0.09003 0.04681 0.85544 0.0
C2819 C 0.09002 0.03055 0.86307 0.0
C2820 C 0.09815 0.01771 0.85399 0.0
H2821 H 0.05626 0.99766 0.97116 0.0
H2822 H 0.06868 0.99884 0.94056 0.0
C2823 C 0.1065 0.02122 0.83773 0.0
C2824 C 0.08162 0.02713 0.88064 0.0
H2825 H 0.09099 0.02368 0.92834 0.0
C2826 C 0.06318 0.02497 0.8797 0.0
C2827 C 0.09173 0.02636 0.8983 0.0
C2828 C 0.1116 0.0287 0.90008 0.0
C2829 C 0.05455 0.02207 0.896 0.0
C2830 C 0.06473 0.02197 0.91391 0.0
C2831 C 0.08317 0.0238 0.91469 0.0
C2832 C 0.0567 0.02073 0.93213 0.0
C2833 C 0.0346 0.01882 0.89368 0.0
C2834 C 0.04605 0.03275 0.93777 0.0
C2835 C 0.03871 0.03182 0.95497 0.0
C2836 C 0.04231 0.01923 0.96723 0.0
C2837 C 0.05335 0.00751 0.96195 0.0
C2838 C 0.06039 0.00817 0.94447 0.0
H2839 H 0.02885 0.01293 0.87877 0.0
H2840 H 0.029 0.00967 0.90376 0.0
H2841 H 0.03042 0.03182 0.89654 0.0
H2842 H 0.04355 0.04304 0.92897 0.0
H2843 H 0.03047 0.04123 0.95888 0.0
H2844 H 0.80155 0.41349 0.55447 0.0
H2845 H 0.80347 0.39726 0.58237 0.0
H2846 H 0.76329 0.3532 0.55261 0.0
H2847 H 0.76162 0.36923 0.52427 0.0
H2848 H 0.77604 0.38711 0.6033 0.0
H2849 H 0.80212 0.32862 0.57368 0.0
H2850 H 0.80289 0.34866 0.56203 0.0
H2851 H 0.78265 0.33215 0.55969 0.0
C2852 C 0.79315 0.40031 0.55385 0.0
C2853 C 0.7812 0.39265 0.53745 0.0
C2854 C 0.79431 0.39109 0.56974 0.0
C2855 C 0.78347 0.37416 0.56945 0.0
C2856 C 0.77186 0.36623 0.55291 0.0
H2857 H 0.77923 0.30203 0.65568 0.0
H2858 H 0.76754 0.31955 0.63189 0.0
C2859 C 0.77086 0.37538 0.53685 0.0
C2860 C 0.78387 0.36524 0.58685 0.0
H2861 H 0.79365 0.32819 0.60478 0.0
C2862 C 0.77977 0.37416 0.60367 0.0
C2863 C 0.7889 0.34849 0.58711 0.0
C2864 C 0.79456 0.33896 0.56973 0.0
C2865 C 0.78074 0.36673 0.62097 0.0
C2866 C 0.78574 0.34999 0.62116 0.0
C2867 C 0.78946 0.34091 0.60429 0.0
C2868 C 0.78939 0.34238 0.63897 0.0
C2869 C 0.77679 0.37686 0.63892 0.0
C2870 C 0.80519 0.34983 0.65101 0.0
C2871 C 0.812 0.33976 0.66419 0.0
C2872 C 0.80293 0.32231 0.66542 0.0
C2873 C 0.78636 0.31549 0.65465 0.0
C2874 C 0.77964 0.32548 0.64132 0.0
H2875 H 0.76952 0.38759 0.63558 0.0
H2876 H 0.76887 0.36757 0.64739 0.0
H2877 H 0.78942 0.38323 0.64802 0.0
H2878 H 0.81295 0.36277 0.6491 0.0
H2879 H 0.82473 0.34516 0.67268 0.0
H2880 H 0.41227 0.03663 0.33909 0.0
H2881 H 0.43436 0.04341 0.36734 0.0
H2882 H 0.42673 0.98706 0.37395 0.0
H2883 H 0.40445 0.97994 0.34546 0.0
H2884 H 0.42575 0.03239 0.40478 0.0
H2885 H 0.48206 0.00728 0.3769 0.0
H2886 H 0.46472 0.01355 0.36148 0.0
H2887 H 0.46079 0.99238 0.37089 0.0
C2888 C 0.41527 0.02561 0.34649 0.0
C2889 C 0.40656 0.00772 0.34024 0.0
C2890 C 0.42793 0.02956 0.36252 0.0
C2891 C 0.43206 0.0157 0.37239 0.0
C2892 C 0.42368 0.99781 0.36614 0.0
H2893 H 0.4973 0.99693 0.46669 0.0
H2894 H 0.47476 0.99618 0.43957 0.0
C2895 C 0.41096 0.9938 0.35004 0.0
C2896 C 0.4442 0.02004 0.39015 0.0
H2897 H 0.48348 0.01339 0.41078 0.0
C2898 C 0.43845 0.02838 0.40624 0.0
C2899 C 0.46075 0.01503 0.39152 0.0
C2900 C 0.46758 0.0067 0.37426 0.0
C2901 C 0.4484 0.03063 0.42431 0.0
C2902 C 0.46456 0.02468 0.42592 0.0
C2903 C 0.47083 0.01752 0.40947 0.0
C2904 C 0.47489 0.02469 0.4445 0.0
C2905 C 0.44113 0.03854 0.4415 0.0
C2906 C 0.48161 0.04076 0.45667 0.0
C2907 C 0.49368 0.0409 0.47274 0.0
C2908 C 0.49932 0.0251 0.47631 0.0
C2909 C 0.49243 0.00902 0.4644 0.0
C2910 C 0.47981 0.00869 0.44889 0.0
H2911 H 0.42667 0.03795 0.43849 0.0
H2912 H 0.44361 0.03146 0.45419 0.0
H2913 H 0.44774 0.05288 0.4452 0.0
H2914 H 0.47845 0.05333 0.45313 0.0
H2915 H 0.4997 0.05356 0.4814 0.0
H2916 H 0.8027 0.71352 0.06444 0.0
H2917 H 0.80053 0.72738 0.09672 0.0
H2918 H 0.74635 0.69891 0.09233 0.0
H2919 H 0.74854 0.68466 0.06033 0.0
H2920 H 0.77965 0.74884 0.11088 0.0
H2921 H 0.76706 0.68425 0.14158 0.0
H2922 H 0.77387 0.68588 0.11804 0.0
H2923 H 0.7511 0.68509 0.12154 0.0
C2924 C 0.79032 0.71021 0.07033 0.0
C2925 C 0.77588 0.69778 0.05987 0.0
C2926 C 0.78908 0.71817 0.0888 0.0
C2927 C 0.77341 0.71388 0.09719 0.0
C2928 C 0.75875 0.70205 0.08644 0.0
H2929 H 0.74255 0.75508 0.20585 0.0
H2930 H 0.74301 0.74393 0.17209 0.0
C2931 C 0.76 0.694 0.06805 0.0
C2932 C 0.77251 0.7216 0.11725 0.0
H2933 H 0.76431 0.71021 0.16164 0.0
C2934 C 0.77632 0.74037 0.12196 0.0
C2935 C 0.76827 0.71057 0.13181 0.0
C2936 C 0.76501 0.69034 0.12808 0.0
C2937 C 0.77584 0.74836 0.14072 0.0
C2938 C 0.77142 0.73732 0.1551 0.0
C2939 C 0.76758 0.7186 0.15048 0.0
C2940 C 0.77121 0.74497 0.17523 0.0
C2941 C 0.78007 0.76853 0.1452 0.0
C2942 C 0.78688 0.74918 0.18813 0.0
C2943 C 0.78657 0.75551 0.20741 0.0
C2944 C 0.77063 0.75795 0.21402 0.0
C2945 C 0.75502 0.75387 0.20102 0.0
C2946 C 0.75527 0.74734 0.18179 0.0
H2947 H 0.78215 0.77531 0.13217 0.0
H2948 H 0.76916 0.77314 0.15196 0.0
H2949 H 0.79225 0.77272 0.1557 0.0
H2950 H 0.7993 0.74736 0.18334 0.0
H2951 H 0.7988 0.75853 0.21715 0.0
H2952 H 0.11673 0.01486 0.72132 0.0
H2953 H 0.10355 0.0133 0.68787 0.0
H2954 H 0.06801 0.04677 0.70598 0.0
H2955 H 0.08096 0.0483 0.73945 0.0
H2956 H 0.06506 0.00168 0.67173 0.0
H2957 H 0.0955 0.07222 0.66391 0.0
H2958 H 0.10418 0.06009 0.68214 0.0
H2959 H 0.08466 0.06892 0.685 0.0
C2960 C 0.10605 0.02183 0.7182 0.0
C2961 C 0.09991 0.03174 0.73306 0.0
C2962 C 0.09854 0.0209 0.69909 0.0
C2963 C 0.08494 0.03005 0.69448 0.0
C2964 C 0.0786 0.03973 0.70926 0.0
H2965 H 0.0275 0.04689 0.58704 0.0
H2966 H 0.03846 0.04685 0.62091 0.0
C2967 C 0.08597 0.04052 0.72839 0.0
C2968 C 0.07745 0.02967 0.67418 0.0
H2969 H 0.0748 0.05608 0.63812 0.0
C2970 C 0.06719 0.01354 0.66434 0.0
C2971 C 0.08031 0.04516 0.66462 0.0
C2972 C 0.09186 0.06259 0.67433 0.0
C2973 C 0.05945 0.0126 0.64522 0.0
C2974 C 0.06226 0.02813 0.63568 0.0
C2975 C 0.07255 0.04424 0.64553 0.0
C2976 C 0.05519 0.0278 0.61523 0.0
C2977 C 0.04808 0.99508 0.63548 0.0
C2978 C 0.06105 0.01723 0.60083 0.0
C2979 C 0.055 0.01738 0.58151 0.0
C2980 C 0.04297 0.02818 0.57612 0.0
C2981 C 0.03692 0.03861 0.59061 0.0
C2982 C 0.04312 0.03855 0.60999 0.0
H2983 H 0.04366 0.98587 0.64605 0.0
H2984 H 0.03624 0.99743 0.62661 0.0
H2985 H 0.05585 0.98827 0.62584 0.0
H2986 H 0.07055 0.00903 0.60453 0.0
H2987 H 0.05986 0.00905 0.5708 0.0
H2988 H 0.81722 0.41547 0.43933 0.0
H2989 H 0.81307 0.38979 0.41422 0.0
H2990 H 0.76294 0.36753 0.43233 0.0
H2991 H 0.76674 0.39297 0.45711 0.0
H2992 H 0.80616 0.35129 0.4226 0.0
H2993 H 0.75311 0.36903 0.37304 0.0
H2994 H 0.76764 0.38553 0.39077 0.0
H2995 H 0.75009 0.36969 0.39801 0.0
C2996 C 0.80523 0.40521 0.43775 0.0
C2997 C 0.79232 0.40617 0.45011 0.0
C2998 C 0.80294 0.3906 0.42356 0.0
C2999 C 0.78769 0.37702 0.42159 0.0
C3000 C 0.77469 0.37807 0.43367 0.0
H3001 H 0.7506 0.2891 0.33128 0.0
H3002 H 0.753 0.30755 0.36229 0.0
C3003 C 0.77695 0.39258 0.4478 0.0
C3004 C 0.78546 0.3614 0.40719 0.0
H3005 H 0.76137 0.34156 0.36492 0.0
C3006 C 0.79639 0.34904 0.40995 0.0
C3007 C 0.77237 0.35851 0.39114 0.0
C3008 C 0.76016 0.37141 0.38791 0.0
C3009 C 0.7947 0.33374 0.39671 0.0
C3010 C 0.78217 0.33126 0.38011 0.0
C3011 C 0.77095 0.34347 0.3777 0.0
C3012 C 0.78137 0.31713 0.36414 0.0
C3013 C 0.80626 0.32042 0.40076 0.0
C3014 C 0.79661 0.31596 0.35538 0.0
C3015 C 0.7953 0.3049 0.33818 0.0
C3016 C 0.77867 0.29562 0.32929 0.0
C3017 C 0.76351 0.29628 0.33818 0.0
C3018 C 0.7649 0.30675 0.35576 0.0
H3019 H 0.80947 0.32031 0.41647 0.0
H3020 H 0.79984 0.30659 0.39414 0.0
H3021 H 0.81895 0.32444 0.39488 0.0
H3022 H 0.80932 0.32434 0.36121 0.0
H3023 H 0.80704 0.30454 0.33119 0.0
H3024 H 0.40826 0.04312 0.25193 0.0
H3025 H 0.4225 0.0457 0.2226 0.0
H3026 H 0.43381 0.9928 0.22482 0.0
H3027 H 0.41979 0.99013 0.25419 0.0
H3028 H 0.46256 0.03173 0.21929 0.0
H3029 H 0.40087 0.00378 0.16904 0.0
H3030 H 0.4009 0.01719 0.1917 0.0
H3031 H 0.40376 0.99444 0.19136 0.0
C3032 C 0.41397 0.03215 0.24622 0.0
C3033 C 0.41305 0.01645 0.25517 0.0
C3034 C 0.42198 0.03364 0.22956 0.0
C3035 C 0.42889 0.01936 0.22173 0.0
C3036 C 0.4284 0.00386 0.23086 0.0
H3037 H 0.46943 0.96714 0.13716 0.0
H3038 H 0.45208 0.97988 0.15991 0.0
C3039 C 0.42057 0.00243 0.24762 0.0
C3040 C 0.43679 0.02036 0.20395 0.0
H3041 H 0.42819 0.00373 0.15663 0.0
C3042 C 0.45513 0.02613 0.2054 0.0
C3043 C 0.42676 0.01302 0.18614 0.0
C3044 C 0.40694 0.0068 0.1843 0.0
C3045 C 0.46405 0.02328 0.18956 0.0
C3046 C 0.45415 0.01476 0.17195 0.0
C3047 C 0.43562 0.01032 0.1702 0.0
C3048 C 0.46293 0.00751 0.15647 0.0
C3049 C 0.48403 0.02798 0.19222 0.0
C3050 C 0.47442 0.01893 0.14693 0.0
C3051 C 0.48452 0.0117 0.13422 0.0
C3052 C 0.48308 0.99299 0.13087 0.0
C3053 C 0.471 0.9816 0.13987 0.0
C3054 C 0.46096 0.98883 0.15259 0.0
H3055 H 0.48963 0.03222 0.20752 0.0
H3056 H 0.4895 0.01631 0.18678 0.0
H3057 H 0.48854 0.03919 0.18389 0.0
H3058 H 0.47593 0.03338 0.14973 0.0
H3059 H 0.49377 0.02074 0.1274 0.0
H3060 H 0.76309 0.66903 0.94744 0.0
H3061 H 0.76686 0.68133 0.91702 0.0
H3062 H 0.77448 0.73504 0.94632 0.0
H3063 H 0.77052 0.7229 0.97682 0.0
H3064 H 0.74561 0.7091 0.90101 0.0
H3065 H 0.81908 0.73011 0.91439 0.0
H3066 H 0.80703 0.71208 0.92552 0.0
H3067 H 0.80661 0.73494 0.93376 0.0
C3068 C 0.76556 0.68347 0.94744 0.0
C3069 C 0.76655 0.69501 0.96457 0.0
C3070 C 0.76769 0.69044 0.93005 0.0
C3071 C 0.77107 0.70906 0.92952 0.0
C3072 C 0.77198 0.72062 0.94652 0.0
H3073 H 0.76925 0.77648 0.83935 0.0
H3074 H 0.76771 0.76251 0.86893 0.0
C3075 C 0.76966 0.71366 0.9639 0.0
C3076 C 0.77347 0.71643 0.91114 0.0
H3077 H 0.80473 0.73833 0.88633 0.0
C3078 C 0.75852 0.71543 0.89774 0.0
C3079 C 0.79036 0.72452 0.90693 0.0
C3080 C 0.80678 0.72547 0.9208 0.0
C3081 C 0.76 0.72273 0.88035 0.0
C3082 C 0.77684 0.73121 0.87632 0.0
C3083 C 0.79185 0.73184 0.88952 0.0
C3084 C 0.77886 0.74004 0.85872 0.0
C3085 C 0.74357 0.72146 0.86637 0.0
C3086 C 0.78595 0.73214 0.84331 0.0
C3087 C 0.78681 0.74006 0.82626 0.0
C3088 C 0.7807 0.75607 0.82446 0.0
C3089 C 0.77405 0.76414 0.84019 0.0
C3090 C 0.77312 0.75618 0.85712 0.0
H3091 H 0.73208 0.7119 0.87005 0.0
H3092 H 0.74012 0.73491 0.86656 0.0
H3093 H 0.74596 0.71718 0.85152 0.0
H3094 H 0.79048 0.71968 0.84434 0.0
H3095 H 0.79208 0.73356 0.81446 0.0
H3096 H 0.8222 0.1168 0.01949 0.0
H3097 H 0.84718 0.10222 0.01551 0.0
H3098 H 0.83724 0.07507 0.06532 0.0
H3099 H 0.81151 0.08909 0.06874 0.0
H3100 H 0.87626 0.10724 0.04473 0.0
H3101 H 0.84358 0.03513 0.02387 0.0
H3102 H 0.83162 0.05299 0.02126 0.0
H3103 H 0.83765 0.04714 0.04468 0.0
C3104 C 0.82541 0.1077 0.02952 0.0
C3105 C 0.81544 0.10415 0.04456 0.0
C3106 C 0.8395 0.09936 0.02721 0.0
C3107 C 0.84392 0.08771 0.04019 0.0
C3108 C 0.83377 0.0839 0.05511 0.0
H3109 H 0.92686 0.03078 0.01469 0.0
H3110 H 0.90822 0.04396 0.03544 0.0
C3111 C 0.81932 0.09195 0.05713 0.0
C3112 C 0.85993 0.08065 0.03844 0.0
H3113 H 0.87393 0.04325 0.02171 0.0
C3114 C 0.87592 0.09317 0.04012 0.0
C3115 C 0.85921 0.06232 0.03258 0.0
C3116 C 0.84212 0.04854 0.03037 0.0
C3117 C 0.89114 0.08804 0.03469 0.0
C3118 C 0.89018 0.06994 0.0275 0.0
C3119 C 0.87452 0.05713 0.02731 0.0
C3120 C 0.90418 0.06443 0.01739 0.0
C3121 C 0.90779 0.10221 0.03579 0.0
C3122 C 0.90828 0.07194 0.00068 0.0
C3123 C 0.91908 0.06465 0.98895 0.0
C3124 C 0.92564 0.04954 0.99359 0.0
C3125 C 0.92217 0.04257 0.01084 0.0
C3126 C 0.91148 0.04999 0.02267 0.0
H3127 H 0.90831 0.11324 0.04751 0.0
H3128 H 0.91982 0.09647 0.03818 0.0
H3129 H 0.90789 0.10818 0.02208 0.0
H3130 H 0.90238 0.08283 0.99615 0.0
H3131 H 0.92173 0.0704 0.97587 0.0
H3132 H 0.35726 0.40434 0.06308 0.0
H3133 H 0.38557 0.42376 0.06015 0.0
H3134 H 0.3597 0.44929 0.01682 0.0
H3135 H 0.33129 0.43011 0.01978 0.0
H3136 H 0.4025 0.42633 0.02714 0.0
H3137 H 0.38797 0.49195 0.05458 0.0
H3138 H 0.37464 0.47073 0.05818 0.0
H3139 H 0.37195 0.47926 0.03545 0.0
C3140 C 0.35755 0.41417 0.05302 0.0
C3141 C 0.34201 0.41572 0.04171 0.0
C3142 C 0.37374 0.42524 0.05137 0.0
C3143 C 0.37466 0.43811 0.03847 0.0
C3144 C 0.3592 0.43969 0.02714 0.0
H3145 H 0.4624 0.51358 0.00539 0.0
H3146 H 0.43309 0.49562 0.00797 0.0
C3147 C 0.34299 0.42865 0.02879 0.0
C3148 C 0.39192 0.44939 0.03632 0.0
H3149 H 0.4146 0.49283 0.04064 0.0
C3150 C 0.40518 0.44087 0.03014 0.0
C3151 C 0.39531 0.46834 0.0402 0.0
C3152 C 0.38179 0.47814 0.04764 0.0
C3153 C 0.42172 0.45082 0.02751 0.0
C3154 C 0.42513 0.46976 0.03145 0.0
C3155 C 0.41186 0.47831 0.03753 0.0
C3156 C 0.44266 0.48088 0.03008 0.0
C3157 C 0.43533 0.44097 0.02031 0.0
C3158 C 0.45756 0.47876 0.04194 0.0
C3159 C 0.4742 0.48892 0.04052 0.0
C3160 C 0.47624 0.50155 0.0273 0.0
C3161 C 0.46122 0.50398 0.01573 0.0
C3162 C 0.44452 0.49373 0.01715 0.0
H3163 H 0.42913 0.4273 0.01302 0.0
H3164 H 0.44291 0.44852 0.01016 0.0
H3165 H 0.4448 0.43949 0.03269 0.0
H3166 H 0.45633 0.4692 0.05232 0.0
H3167 H 0.48546 0.48682 0.04981 0.0
H3168 H 0.3714 0.54384 0.75519 0.0
H3169 H 0.35295 0.56642 0.7564 0.0
H3170 H 0.39977 0.60857 0.76533 0.0
H3171 H 0.41832 0.58613 0.76385 0.0
H3172 H 0.35312 0.59213 0.78675 0.0
H3173 H 0.36938 0.62442 0.72213 0.0
H3174 H 0.37431 0.60287 0.72632 0.0
H3175 H 0.38852 0.62327 0.73825 0.0
C3176 C 0.37779 0.55791 0.75726 0.0
C3177 C 0.39634 0.56319 0.75937 0.0
C3178 C 0.36722 0.57079 0.75792 0.0
C3179 C 0.37499 0.58915 0.76059 0.0
C3180 C 0.39349 0.59447 0.76275 0.0
H3181 H 0.34483 0.6884 0.79233 0.0
H3182 H 0.35925 0.66453 0.77983 0.0
C3183 C 0.40408 0.58161 0.76206 0.0
C3184 C 0.36383 0.60276 0.76236 0.0
H3185 H 0.35468 0.64025 0.7443 0.0
C3186 C 0.35325 0.60251 0.77731 0.0
C3187 C 0.36408 0.61627 0.75002 0.0
C3188 C 0.37455 0.61667 0.73316 0.0
C3189 C 0.34342 0.61583 0.78074 0.0
C3190 C 0.34398 0.62958 0.76866 0.0
C3191 C 0.35426 0.62964 0.75346 0.0
C3192 C 0.3349 0.64463 0.77256 0.0
C3193 C 0.33311 0.6155 0.79775 0.0
C3194 C 0.31639 0.64152 0.77172 0.0
C3195 C 0.30819 0.65514 0.77877 0.0
C3196 C 0.3184 0.67203 0.78652 0.0
C3197 C 0.33675 0.67551 0.7861 0.0
C3198 C 0.34495 0.6619 0.77906 0.0
H3199 H 0.33685 0.60609 0.80772 0.0
H3200 H 0.33523 0.62911 0.80589 0.0
H3201 H 0.31877 0.61109 0.79256 0.0
H3202 H 0.30842 0.62831 0.76657 0.0
H3203 H 0.29403 0.65218 0.77927 0.0
H3204 H 0.21918 0.58438 0.5183 0.0
H3205 H 0.18777 0.57391 0.50775 0.0
H3206 H 0.17624 0.58822 0.56513 0.0
H3207 H 0.20792 0.59915 0.576 0.0
H3208 H 0.16432 0.54697 0.52514 0.0
H3209 H 0.14597 0.61395 0.52689 0.0
H3210 H 0.16836 0.61088 0.52555 0.0
H3211 H 0.15931 0.61013 0.54792 0.0
C3212 C 0.21004 0.58523 0.52879 0.0
C3213 C 0.21594 0.59265 0.54798 0.0
C3214 C 0.19215 0.57932 0.52266 0.0
C3215 C 0.17999 0.58073 0.53563 0.0
C3216 C 0.18569 0.58747 0.55496 0.0
H3217 H 0.07864 0.5536 0.55512 0.0
H3218 H 0.10809 0.56856 0.54963 0.0
C3219 C 0.20369 0.59348 0.56115 0.0
C3220 C 0.16127 0.57443 0.52897 0.0
H3221 H 0.12235 0.58843 0.52297 0.0
C3222 C 0.15505 0.55593 0.52434 0.0
C3223 C 0.14965 0.58644 0.52771 0.0
C3224 C 0.15612 0.6065 0.53212 0.0
C3225 C 0.13698 0.54884 0.52006 0.0
C3226 C 0.12516 0.56082 0.51992 0.0
C3227 C 0.13159 0.57943 0.52301 0.0
C3228 C 0.10644 0.55434 0.52105 0.0
C3229 C 0.13073 0.52865 0.51733 0.0
C3230 C 0.09586 0.54178 0.5066 0.0
C3231 C 0.07937 0.53285 0.51007 0.0
C3232 C 0.07321 0.53714 0.52753 0.0
C3233 C 0.08333 0.5504 0.5415 0.0
C3234 C 0.09993 0.559 0.53827 0.0
H3235 H 0.14169 0.52154 0.52062 0.0
H3236 H 0.12041 0.52457 0.5267 0.0
H3237 H 0.1249 0.52411 0.50218 0.0
H3238 H 0.10075 0.53816 0.49323 0.0
H3239 H 0.07188 0.52208 0.49953 0.0
H3240 H 0.67212 0.96406 0.72637 0.0
H3241 H 0.68727 0.93907 0.73055 0.0
H3242 H 0.73196 0.97578 0.76371 0.0
H3243 H 0.71714 1.00072 0.75966 0.0
H3244 H 0.72892 0.93866 0.72463 0.0
H3245 H 0.70612 0.93427 0.79672 0.0
H3246 H 0.69439 0.94339 0.77782 0.0
H3247 H 0.7147 0.95636 0.79079 0.0
C3248 C 0.68525 0.96677 0.73434 0.0
C3249 C 0.69349 0.9842 0.74272 0.0
C3250 C 0.69386 0.95259 0.73658 0.0
C3251 C 0.71061 0.95586 0.74728 0.0
C3252 C 0.71905 0.97326 0.75523 0.0
H3253 H 0.77797 0.90293 0.80777 0.0
H3254 H 0.76787 0.92361 0.78685 0.0
C3255 C 0.71055 0.98741 0.75293 0.0
C3256 C 0.71881 0.941 0.75186 0.0
H3257 H 0.7278 0.91787 0.78901 0.0
C3258 C 0.72857 0.93382 0.73855 0.0
C3259 C 0.71817 0.93508 0.77009 0.0
C3260 C 0.70771 0.94255 0.7847 0.0
C3261 C 0.73836 0.92098 0.74341 0.0
C3262 C 0.73814 0.91551 0.76187 0.0
C3263 C 0.72791 0.92234 0.77488 0.0
C3264 C 0.74852 0.90287 0.76868 0.0
C3265 C 0.74928 0.91377 0.72924 0.0
C3266 C 0.74138 0.88444 0.76465 0.0
C3267 C 0.74709 0.87268 0.77658 0.0
C3268 C 0.7597 0.87945 0.79267 0.0
C3269 C 0.76797 0.89764 0.79558 0.0
C3270 C 0.76246 0.90932 0.78352 0.0
H3271 H 0.74841 0.9199 0.71563 0.0
H3272 H 0.76335 0.9164 0.7357 0.0
H3273 H 0.7447 0.89899 0.72591 0.0
H3274 H 0.73037 0.87941 0.75343 0.0
H3275 H 0.74075 0.85858 0.77413 0.0
H3276 H 0.728 0.90249 0.56426 0.0
H3277 H 0.70422 0.9192 0.55984 0.0
H3278 H 0.72388 0.93715 0.50869 0.0
H3279 H 0.74786 0.92065 0.51304 0.0
H3280 H 0.70988 0.96004 0.55398 0.0
H3281 H 0.66839 0.91067 0.49544 0.0
H3282 H 0.68426 0.90438 0.51274 0.0
H3283 H 0.69174 0.91678 0.49386 0.0
C3284 C 0.72731 0.91002 0.55208 0.0
C3285 C 0.73982 0.91025 0.53899 0.0
C3286 C 0.71374 0.91956 0.54962 0.0
C3287 C 0.71234 0.92928 0.53392 0.0
C3288 C 0.72479 0.92963 0.52086 0.0
H3289 H 0.65323 0.00163 0.49046 0.0
H3290 H 0.67606 0.98698 0.50449 0.0
C3291 C 0.73848 0.92025 0.5234 0.0
C3292 C 0.6978 0.93904 0.53112 0.0
H3293 H 0.65927 0.93815 0.50255 0.0
C3294 C 0.69872 0.95522 0.54287 0.0
C3295 C 0.68329 0.93258 0.51668 0.0
C3296 C 0.68168 0.9151 0.50396 0.0
C3297 C 0.68566 0.96546 0.54007 0.0
C3298 C 0.6714 0.95921 0.52532 0.0
C3299 C 0.67022 0.94278 0.51395 0.0
C3300 C 0.65841 0.97023 0.52018 0.0
C3301 C 0.68725 0.98305 0.55254 0.0
C3302 C 0.6411 0.96595 0.52489 0.0
C3303 C 0.62805 0.97444 0.51703 0.0
C3304 C 0.6322 0.98702 0.50415 0.0
C3305 C 0.64978 0.99199 0.50041 0.0
C3306 C 0.66279 0.98366 0.50838 0.0
H3307 H 0.69805 0.98511 0.56471 0.0
H3308 H 0.68997 0.99427 0.54373 0.0
H3309 H 0.67457 0.98359 0.55833 0.0
H3310 H 0.63754 0.95549 0.5339 0.0
H3311 H 0.61454 0.97028 0.51993 0.0
H3312 H 0.36687 0.47104 0.75115 0.0
H3313 H 0.34596 0.44319 0.7538 0.0
H3314 H 0.38774 0.41355 0.75055 0.0
H3315 H 0.40871 0.44123 0.74762 0.0
H3316 H 0.34192 0.40602 0.72481 0.0
H3317 H 0.36111 0.40652 0.80332 0.0
H3318 H 0.36339 0.42696 0.79211 0.0
H3319 H 0.37832 0.41211 0.78833 0.0
C3320 C 0.37159 0.45858 0.75093 0.0
C3321 C 0.38943 0.45831 0.74917 0.0
C3322 C 0.35964 0.44272 0.75242 0.0
C3323 C 0.3654 0.42644 0.75246 0.0
C3324 C 0.38312 0.42606 0.75057 0.0
H3325 H 0.31465 0.31553 0.74268 0.0
H3326 H 0.33205 0.34491 0.73957 0.0
C3327 C 0.39504 0.44186 0.74884 0.0
C3328 C 0.35291 0.40979 0.75459 0.0
H3329 H 0.34057 0.3812 0.78716 0.0
C3330 C 0.34151 0.4006 0.73843 0.0
C3331 C 0.35243 0.40294 0.77242 0.0
C3332 C 0.36438 0.4126 0.79014 0.0
C3333 C 0.32978 0.38441 0.73958 0.0
C3334 C 0.3296 0.37728 0.75734 0.0
C3335 C 0.34074 0.38674 0.7736 0.0
C3336 C 0.31861 0.35956 0.75909 0.0
C3337 C 0.31769 0.37506 0.7218 0.0
C3338 C 0.30552 0.35801 0.77149 0.0
C3339 C 0.29556 0.34111 0.77347 0.0
C3340 C 0.29863 0.32553 0.76313 0.0
C3341 C 0.31182 0.32722 0.75079 0.0
C3342 C 0.32174 0.34404 0.74887 0.0
H3343 H 0.31612 0.38439 0.71094 0.0
H3344 H 0.32341 0.36405 0.71519 0.0
H3345 H 0.30441 0.36909 0.72542 0.0
H3346 H 0.30304 0.36986 0.77964 0.0
H3347 H 0.28565 0.34024 0.78325 0.0
H3348 H 0.22149 0.57843 0.2362 0.0
H3349 H 0.23826 0.60938 0.2455 0.0
H3350 H 0.19185 0.62486 0.26507 0.0
H3351 H 0.17494 0.59417 0.25538 0.0
H3352 H 0.21758 0.64189 0.23094 0.0
H3353 H 0.24352 0.64125 0.30772 0.0
H3354 H 0.24063 0.62162 0.29018 0.0
H3355 H 0.22163 0.62875 0.29815 0.0
C3356 C 0.21499 0.58853 0.24249 0.0
C3357 C 0.19706 0.58436 0.2449 0.0
C3358 C 0.22452 0.60595 0.2479 0.0
C3359 C 0.21614 0.61893 0.25613 0.0
C3360 C 0.19833 0.61471 0.25884 0.0
H3361 H 0.24018 0.73261 0.26591 0.0
H3362 H 0.22626 0.70214 0.27016 0.0
C3363 C 0.18873 0.59742 0.25311 0.0
C3364 C 0.2254 0.63745 0.25997 0.0
H3365 H 0.24936 0.66903 0.29518 0.0
C3366 C 0.22459 0.64792 0.24491 0.0
C3367 C 0.23431 0.64483 0.27829 0.0
C3368 C 0.23519 0.6336 0.29461 0.0
C3369 C 0.23263 0.666 0.24776 0.0
C3370 C 0.24145 0.67348 0.26617 0.0
C3371 C 0.24237 0.66299 0.28121 0.0
C3372 C 0.25045 0.69212 0.26952 0.0
C3373 C 0.23183 0.67695 0.23111 0.0
C3374 C 0.26869 0.69631 0.26876 0.0
C3375 C 0.27669 0.71376 0.26681 0.0
C3376 C 0.26642 0.72687 0.26573 0.0
C3377 C 0.24841 0.72285 0.2677 0.0
C3378 C 0.24044 0.70548 0.26988 0.0
H3379 H 0.22617 0.66847 0.21729 0.0
H3380 H 0.22345 0.68694 0.23386 0.0
H3381 H 0.24527 0.68443 0.22959 0.0
H3382 H 0.27637 0.68588 0.26818 0.0
H3383 H 0.29059 0.71676 0.26492 0.0
H3384 H 0.53181 0.72342 0.48543 0.0
H3385 H 0.53132 0.69329 0.49435 0.0
H3386 H 0.48768 0.67184 0.44998 0.0
H3387 H 0.48824 0.70212 0.44078 0.0
H3388 H 0.50717 0.66839 0.50745 0.0
H3389 H 0.5212 0.63945 0.43683 0.0
H3390 H 0.52294 0.66327 0.44298 0.0
H3391 H 0.50162 0.64874 0.4357 0.0
C3392 C 0.52203 0.71236 0.4775 0.0
C3393 C 0.51015 0.71542 0.46219 0.0
C3394 C 0.52176 0.69499 0.4827 0.0
C3395 C 0.50975 0.67993 0.47267 0.0
C3396 C 0.49745 0.68298 0.45774 0.0
H3397 H 0.49908 0.56337 0.47919 0.0
H3398 H 0.49586 0.59307 0.47113 0.0
C3399 C 0.49765 0.70044 0.45258 0.0
C3400 C 0.51031 0.66123 0.47791 0.0
H3401 H 0.51586 0.61949 0.45996 0.0
C3402 C 0.50907 0.65772 0.49701 0.0
C3403 C 0.51274 0.64705 0.46447 0.0
C3404 C 0.51487 0.64978 0.44389 0.0
C3405 C 0.50991 0.64067 0.50291 0.0
C3406 C 0.51267 0.62653 0.48954 0.0
C3407 C 0.51378 0.63005 0.47039 0.0
C3408 C 0.51444 0.60812 0.49496 0.0
C3409 C 0.50727 0.63797 0.5234 0.0
C3410 C 0.526 0.60613 0.51107 0.0
C3411 C 0.52749 0.58901 0.51604 0.0
C3412 C 0.51806 0.57314 0.50466 0.0
C3413 C 0.5067 0.57512 0.48836 0.0
C3414 C 0.50488 0.59225 0.48366 0.0
H3415 H 0.49942 0.64737 0.52952 0.0
H3416 H 0.50042 0.62403 0.52448 0.0
H3417 H 0.52036 0.64077 0.53236 0.0
H3418 H 0.53409 0.61784 0.51985 0.0
H3419 H 0.53612 0.58831 0.52884 0.0
H3420 H 0.60939 0.25691 0.6271 0.0
H3421 H 0.63661 0.25848 0.64825 0.0
H3422 H 0.62894 0.30707 0.67987 0.0
H3423 H 0.60115 0.30537 0.65871 0.0
H3424 H 0.667 0.28234 0.65504 0.0
H3425 H 0.63826 0.27873 0.72371 0.0
H3426 H 0.62465 0.27453 0.7007 0.0
H3427 H 0.63432 0.29718 0.71119 0.0
C3428 C 0.61334 0.26798 0.63856 0.0
C3429 C 0.60279 0.28095 0.64113 0.0
C3430 C 0.62907 0.26886 0.65072 0.0
C3431 C 0.63493 0.2827 0.66604 0.0
C3432 C 0.62465 0.29595 0.66852 0.0
H3433 H 0.73009 0.29882 0.75275 0.0
H3434 H 0.7031 0.30259 0.73323 0.0
C3435 C 0.60877 0.29507 0.65626 0.0
C3436 C 0.65189 0.28306 0.67891 0.0
H3437 H 0.66924 0.28166 0.72547 0.0
C3438 C 0.66741 0.28222 0.67045 0.0
C3439 C 0.65273 0.283 0.69913 0.0
C3440 C 0.63659 0.28325 0.70927 0.0
C3441 C 0.68344 0.28118 0.68138 0.0
C3442 C 0.68416 0.28063 0.70149 0.0
C3443 C 0.66881 0.28197 0.71009 0.0
C3444 C 0.70055 0.27825 0.71367 0.0
C3445 C 0.69957 0.28092 0.67123 0.0
C3446 C 0.70812 0.26314 0.70962 0.0
C3447 C 0.72353 0.261 0.7208 0.0
C3448 C 0.7318 0.27387 0.73636 0.0
C3449 C 0.72407 0.28875 0.74075 0.0
C3450 C 0.70862 0.2909 0.72958 0.0
H3451 H 0.69837 0.28666 0.6574 0.0
H3452 H 0.71175 0.28857 0.68034 0.0
H3453 H 0.70106 0.26681 0.66799 0.0
H3454 H 0.702 0.25287 0.69786 0.0
H3455 H 0.72889 0.24916 0.71737 0.0
H3456 H 0.01631 0.31458 0.98134 0.0
H3457 H 0.02016 0.34625 0.9957 0.0
H3458 H 1.00198 0.36048 0.94062 0.0
H3459 H 0.99782 0.32949 0.92654 0.0
H3460 H 0.04001 0.37973 0.98776 0.0
H3461 H 0.9686 0.37956 0.97364 0.0
H3462 H 0.97703 0.3591 0.97231 0.0
H3463 H 0.97721 0.37208 0.95234 0.0
C3464 C 0.01315 0.32448 0.97232 0.0
C3465 C 0.00649 0.31919 0.95273 0.0
C3466 C 0.01536 0.34265 0.98055 0.0
C3467 C 0.01095 0.35592 0.96941 0.0
C3468 C 0.005 0.35065 0.9498 0.0
H3469 H 0.02906 0.47163 0.97295 0.0
H3470 H 0.02652 0.43896 0.96629 0.0
C3471 C 1.00268 0.33272 0.9417 0.0
C3472 C 0.01216 0.37523 0.97774 0.0
H3473 H 0.98804 0.40854 0.97945 0.0
C3474 C 0.02858 0.38592 0.98616 0.0
C3475 C 0.99729 0.38358 0.97595 0.0
C3476 C 0.979 0.37295 0.96826 0.0
C3477 C 0.03059 0.40463 0.99181 0.0
C3478 C 0.0159 0.41302 0.98904 0.0
C3479 C 0.99939 0.40225 0.98141 0.0
C3480 C 0.0175 0.43301 0.99335 0.0
C3481 C 0.04848 0.41551 0.00054 0.0
C3482 C 0.01293 0.4407 0.01064 0.0
C3483 C 0.01409 0.45941 0.01434 0.0
C3484 C 0.02002 0.47094 0.00092 0.0
C3485 C 0.02453 0.4632 0.98363 0.0
C3486 C 0.02314 0.44449 0.97983 0.0
H3487 H 0.05853 0.40705 0.00245 0.0
H3488 H 0.0531 0.42585 0.99121 0.0
H3489 H 0.04739 0.42267 0.01474 0.0
H3490 H 0.00856 0.43222 0.02134 0.0
H3491 H 0.01081 0.46491 0.02794 0.0
H3492 H 0.01566 0.79901 0.15697 0.0
H3493 H 0.9914 0.80052 0.17653 0.0
H3494 H 0.95571 0.76233 0.13403 0.0
H3495 H 0.97966 0.76073 0.11453 0.0
H3496 H 0.95684 0.80966 0.16664 0.0
H3497 H 0.95074 0.74006 0.18482 0.0
H3498 H 0.97009 0.75182 0.17585 0.0
H3499 H 0.95051 0.74163 0.15955 0.0
C3500 C 1.00266 0.79089 0.15182 0.0
C3501 C 0.99972 0.77966 0.13416 0.0
C3502 C 0.98877 0.79183 0.163 0.0
C3503 C 0.97171 0.7814 0.15689 0.0
C3504 C 0.96876 0.77034 0.13922 0.0
H3505 H 0.8669 0.75895 0.18785 0.0
H3506 H 0.89324 0.76695 0.17169 0.0
C3507 C 0.98253 0.76948 0.12803 0.0
C3508 C 0.9569 0.78178 0.16883 0.0
H3509 H 0.9268 0.75443 0.19059 0.0
C3510 C 0.95042 0.79766 0.1721 0.0
C3511 C 0.94851 0.76616 0.1761 0.0
C3512 C 0.95539 0.74899 0.1741 0.0
C3513 C 0.93536 0.79805 0.18169 0.0
C3514 C 0.9266 0.78221 0.18819 0.0
C3515 C 0.93342 0.76654 0.18545 0.0
C3516 C 0.90991 0.78119 0.1972 0.0
C3517 C 0.92848 0.81515 0.18431 0.0
C3518 C 0.91028 0.78715 0.2168 0.0
C3519 C 0.89511 0.78266 0.22607 0.0
C3520 C 0.87934 0.7722 0.21586 0.0
C3521 C 0.87871 0.76743 0.19596 0.0
C3522 C 0.89382 0.77183 0.18676 0.0
H3523 H 0.93639 0.82622 0.17788 0.0
H3524 H 0.91449 0.81273 0.17762 0.0
H3525 H 0.92875 0.81944 0.19988 0.0
H3526 H 0.92259 0.7942 0.22521 0.0
H3527 H 0.89615 0.78604 0.2415 0.0
H3528 H 0.50116 0.29892 0.16662 0.0
H3529 H 0.49901 0.3257 0.15059 0.0
H3530 H 0.54118 0.31638 0.11825 0.0
H3531 H 0.54358 0.28987 0.13428 0.0
H3532 H 0.5286 0.35724 0.14957 0.0
H3533 H 0.49939 0.32221 0.0773 0.0
H3534 H 0.49765 0.31154 0.09895 0.0
H3535 H 0.51786 0.31413 0.08827 0.0
C3536 C 0.5099 0.30249 0.156 0.0
C3537 C 0.52252 0.29212 0.15173 0.0
C3538 C 0.50868 0.31785 0.14688 0.0
C3539 C 0.51981 0.32299 0.13303 0.0
C3540 C 0.53229 0.3126 0.12869 0.0
H3541 H 0.55134 0.40569 0.06323 0.0
H3542 H 0.54328 0.37791 0.07777 0.0
C3543 C 0.53368 0.29743 0.13795 0.0
C3544 C 0.51893 0.33946 0.12343 0.0
H3545 H 0.51167 0.35349 0.07921 0.0
C3546 C 0.52464 0.35645 0.13424 0.0
C3547 C 0.51372 0.33846 0.10343 0.0
C3548 C 0.50665 0.32063 0.09126 0.0
C3549 C 0.52619 0.37239 0.12545 0.0
C3550 C 0.5216 0.37138 0.10528 0.0
C3551 C 0.51526 0.35436 0.09462 0.0
C3552 C 0.52469 0.38765 0.09486 0.0
C3553 C 0.53357 0.39013 0.13771 0.0
C3554 C 0.51642 0.40223 0.09891 0.0
C3555 C 0.52089 0.41809 0.09037 0.0
C3556 C 0.53371 0.41967 0.07762 0.0
C3557 C 0.54133 0.4048 0.0729 0.0
C3558 C 0.53676 0.38893 0.08128 0.0
H3559 H 0.53986 0.38836 0.1521 0.0
H3560 H 0.54352 0.39871 0.13057 0.0
H3561 H 0.52267 0.39735 0.13983 0.0
H3562 H 0.50683 0.40153 0.10905 0.0
H3563 H 0.51495 0.42941 0.09442 0.0
H3564 H 0.96852 0.25928 0.33931 0.0
H3565 H 0.93787 0.26048 0.32933 0.0
H3566 H 0.95472 0.31175 0.30949 0.0
H3567 H 0.98588 0.3106 0.31951 0.0
H3568 H 0.91852 0.28404 0.34215 0.0
H3569 H 0.91923 0.28603 0.2638 0.0
H3570 H 0.9371 0.28027 0.27883 0.0
H3571 H 0.93514 0.30333 0.27897 0.0
C3572 C 0.96592 0.27083 0.33266 0.0
C3573 C 0.98003 0.28481 0.33024 0.0
C3574 C 0.94816 0.2715 0.32695 0.0
C3575 C 0.9436 0.28609 0.31838 0.0
C3576 C 0.95762 0.30009 0.31568 0.0
H3577 H 0.83628 0.30337 0.27668 0.0
H3578 H 0.86831 0.30662 0.2848 0.0
C3579 C 0.97556 0.29946 0.32152 0.0
C3580 C 0.92419 0.28664 0.31325 0.0
H3581 H 0.89228 0.28776 0.27588 0.0
C3582 C 0.91287 0.28488 0.32762 0.0
C3583 C 0.91648 0.28789 0.29436 0.0
C3584 C 0.92752 0.28934 0.27802 0.0
C3585 C 0.89447 0.2843 0.32379 0.0
C3586 C 0.88661 0.28494 0.30478 0.0
C3587 C 0.89798 0.28713 0.29044 0.0
C3588 C 0.86672 0.28297 0.29954 0.0
C3589 C 0.88374 0.28342 0.34044 0.0
C3590 C 0.85465 0.26845 0.30463 0.0
C3591 C 0.83621 0.26678 0.30031 0.0
C3592 C 0.82896 0.27937 0.29034 0.0
C3593 C 0.84105 0.29356 0.28465 0.0
C3594 C 0.85956 0.29536 0.28921 0.0
H3595 H 0.89212 0.28915 0.35426 0.0
H3596 H 0.87279 0.29078 0.33851 0.0
H3597 H 0.87802 0.26916 0.3416 0.0
H3598 H 0.85948 0.25819 0.31189 0.0
H3599 H 0.82761 0.2554 0.30467 0.0
H3600 H 0.98874 0.69843 0.62062 0.0
H3601 H 0.99285 0.67063 0.60303 0.0
H3602 H 0.03466 0.6674 0.64711 0.0
H3603 H 0.02993 0.69482 0.66525 0.0
H3604 H 0.01775 0.66196 0.586 0.0
H3605 H 0.00993 0.61708 0.64265 0.0
H3606 H 0.00507 0.63925 0.64552 0.0
H3607 H 0.02756 0.63621 0.64992 0.0
C3608 C 0.99866 0.69169 0.62677 0.0
C3609 C 0.00884 0.69891 0.64457 0.0
C3610 C 1.00107 0.67571 0.61658 0.0
C3611 C 0.01388 0.66639 0.62367 0.0
C3612 C 0.02423 0.67371 0.6414 0.0
H3613 H 0.05132 0.57142 0.57465 0.0
H3614 H 0.04777 0.59896 0.59383 0.0
C3615 C 0.02159 0.68958 0.6518 0.0
C3616 C 0.01669 0.64954 0.61207 0.0
H3617 H 0.02068 0.60578 0.61452 0.0
C3618 C 0.01826 0.64969 0.59233 0.0
C3619 C 0.01744 0.63327 0.62 0.0
C3620 C 0.01473 0.63134 0.64062 0.0
C3621 C 0.02069 0.63444 0.58057 0.0
C3622 C 0.02152 0.61826 0.58855 0.0
C3623 C 0.02013 0.61809 0.60828 0.0
C3624 C 0.02372 0.6014 0.57667 0.0
C3625 C 0.02269 0.63594 0.55971 0.0
C3626 C 0.01139 0.59326 0.5606 0.0
C3627 C 0.01342 0.57748 0.54965 0.0
C3628 C 0.02776 0.56931 0.55454 0.0
C3629 C 0.04008 0.57734 0.57059 0.0
C3630 C 0.03804 0.59312 0.58156 0.0
H3631 H 0.02654 0.65016 0.55705 0.0
H3632 H 0.03275 0.62854 0.55488 0.0
H3633 H 0.00985 0.63003 0.55079 0.0
H3634 H 0.99999 0.59897 0.55663 0.0
H3635 H 0.00364 0.57152 0.53746 0.0
H3636 H 0.59444 0.76613 0.84304 0.0
H3637 H 0.62267 0.76675 0.83065 0.0
H3638 H 0.61856 0.81594 0.80734 0.0
H3639 H 0.58989 0.81537 0.8198 0.0
H3640 H 0.63196 0.76624 0.79342 0.0
H3641 H 0.66852 0.82895 0.83813 0.0
H3642 H 0.6474 0.817 0.84316 0.0
H3643 H 0.64844 0.8306 0.82381 0.0
C3644 C 0.59937 0.77715 0.83523 0.0
C3645 C 0.58959 0.79073 0.83258 0.0
C3646 C 0.6157 0.77746 0.82809 0.0
C3647 C 0.62322 0.7915 0.81819 0.0
C3648 C 0.61342 0.80503 0.81518 0.0
H3649 H 0.73001 0.81219 0.77785 0.0
H3650 H 0.70029 0.81457 0.78569 0.0
C3651 C 0.59683 0.80462 0.82218 0.0
C3652 C 0.64114 0.79161 0.81114 0.0
H3653 H 0.68443 0.81461 0.81691 0.0
C3654 C 0.64337 0.7769 0.79855 0.0
C3655 C 0.6563 0.80543 0.81759 0.0
C3656 C 0.65521 0.82136 0.83153 0.0
C3657 C 0.65994 0.77566 0.79227 0.0
C3658 C 0.67527 0.78922 0.79918 0.0
C3659 C 0.67296 0.80411 0.81151 0.0
C3660 C 0.69372 0.78792 0.79428 0.0
C3661 C 0.66063 0.75989 0.77786 0.0
C3662 C 0.70058 0.7724 0.79677 0.0
C3663 C 0.71755 0.77101 0.79219 0.0
C3664 C 0.72859 0.78512 0.78506 0.0
C3665 C 0.72201 0.80091 0.78308 0.0
C3666 C 0.70489 0.80228 0.78761 0.0
H3667 H 0.64758 0.75464 0.76905 0.0
H3668 H 0.67067 0.76353 0.76804 0.0
H3669 H 0.66406 0.74884 0.78562 0.0
H3670 H 0.6929 0.76129 0.80258 0.0
H3671 H 0.72213 0.75884 0.79461 0.0
H3672 H 0.4619 0.49027 0.71073 0.0
H3673 H 0.47299 0.49382 0.67973 0.0
H3674 H 0.44829 0.5393 0.67431 0.0
H3675 H 0.43691 0.5357 0.70514 0.0
H3676 H 0.44946 0.4958 0.64163 0.0
H3677 H 0.50392 0.5549 0.66791 0.0
H3678 H 0.49493 0.53918 0.68362 0.0
H3679 H 0.48249 0.5551 0.67553 0.0
C3680 C 0.45889 0.50107 0.70299 0.0
C3681 C 0.44856 0.51273 0.7104 0.0
C3682 C 0.46517 0.50303 0.68526 0.0
C3683 C 0.46149 0.51685 0.67482 0.0
C3684 C 0.45129 0.52858 0.68221 0.0
H3685 H 0.48619 0.54256 0.56075 0.0
H3686 H 0.47338 0.54155 0.59126 0.0
C3687 C 0.44479 0.52648 0.6998 0.0
C3688 C 0.46824 0.51895 0.65612 0.0
H3689 H 0.49968 0.54482 0.63465 0.0
C3690 C 0.46037 0.50655 0.64006 0.0
C3691 C 0.48251 0.53297 0.65419 0.0
C3692 C 0.4916 0.54631 0.67119 0.0
C3693 C 0.46644 0.50784 0.62206 0.0
C3694 C 0.48076 0.52179 0.62017 0.0
C3695 C 0.48857 0.53426 0.63618 0.0
C3696 C 0.48853 0.52282 0.60194 0.0
C3697 C 0.45775 0.49421 0.60514 0.0
C3698 C 0.5013 0.51272 0.59805 0.0
C3699 C 0.50871 0.51342 0.58088 0.0
C3700 C 0.50335 0.5241 0.56717 0.0
C3701 C 0.49049 0.53418 0.57104 0.0
C3702 C 0.48322 0.53364 0.58842 0.0
H3703 H 0.44574 0.48517 0.60848 0.0
H3704 H 0.45402 0.50115 0.5927 0.0
H3705 H 0.46729 0.48593 0.60077 0.0
H3706 H 0.50548 0.50424 0.6083 0.0
H3707 H 0.51845 0.50534 0.5782 0.0
H3708 H 0.77233 0.16822 0.01531 0.0
H3709 H 0.7765 0.188 0.99005 0.0
H3710 H 0.75573 0.14248 0.94688 0.0
H3711 H 0.75054 0.12301 0.9721 0.0
H3712 H 0.79562 0.18821 0.95913 0.0
H3713 H 0.72354 0.17631 0.93474 0.0
H3714 H 0.73226 0.16964 0.95699 0.0
H3715 H 0.73164 0.15587 0.93454 0.0
C3716 C 0.76864 0.16257 0.00038 0.0
C3717 C 0.76093 0.14429 0.99542 0.0
C3718 C 0.77111 0.17378 0.98605 0.0
C3719 C 0.7662 0.16667 0.96668 0.0
C3720 C 0.75918 0.14824 0.96179 0.0
H3721 H 0.75844 0.20487 0.85847 0.0
H3722 H 0.77073 0.19019 0.88434 0.0
C3723 C 0.75622 0.13717 0.9761 0.0
C3724 C 0.76748 0.17858 0.95154 0.0
H3725 H 0.74258 0.19101 0.91459 0.0
C3726 C 0.78406 0.18893 0.94941 0.0
C3727 C 0.75228 0.17961 0.93913 0.0
C3728 C 0.73391 0.16991 0.94157 0.0
C3729 C 0.78581 0.19999 0.9347 0.0
C3730 C 0.77068 0.20043 0.92202 0.0
C3731 C 0.75418 0.19028 0.92431 0.0
C3732 C 0.7709 0.21188 0.90659 0.0
C3733 C 0.80364 0.21103 0.93261 0.0
C3734 C 0.76765 0.22918 0.91062 0.0
C3735 C 0.76035 0.23749 0.89594 0.0
C3736 C 0.75632 0.22855 0.87715 0.0
C3737 C 0.76137 0.21203 0.87287 0.0
C3738 C 0.76858 0.20371 0.88756 0.0
H3739 H 0.81431 0.2086 0.9432 0.0
H3740 H 0.80693 0.20786 0.91787 0.0
H3741 H 0.80316 0.22552 0.93461 0.0
H3742 H 0.76916 0.2355 0.92533 0.0
H3743 H 0.75694 0.25043 0.89946 0.0
H3744 H 0.15308 0.54578 0.19595 0.0
H3745 H 0.13605 0.54834 0.16583 0.0
H3746 H 0.0917 0.51044 0.17963 0.0
H3747 H 0.1087 0.50805 0.21037 0.0
H3748 H 0.12325 0.51893 0.13777 0.0
H3749 H 0.07023 0.55251 0.16153 0.0
H3750 H 0.09049 0.55287 0.17687 0.0
H3751 H 0.07318 0.53311 0.17297 0.0
C3752 C 0.13964 0.53807 0.1927 0.0
C3753 C 0.13219 0.52651 0.2053 0.0
C3754 C 0.12997 0.53961 0.17554 0.0
C3755 C 0.11275 0.52958 0.17068 0.0
C3756 C 0.10498 0.51842 0.18341 0.0
H3757 H 0.05678 0.50144 0.05708 0.0
H3758 H 0.07497 0.50215 0.08773 0.0
C3759 C 0.11465 0.51701 0.20082 0.0
C3760 C 0.10355 0.52998 0.15162 0.0
H3761 H 0.06784 0.54202 0.12841 0.0
C3762 C 0.11115 0.52401 0.13563 0.0
C3763 C 0.08803 0.53693 0.14915 0.0
C3764 C 0.08003 0.54438 0.16601 0.0
C3765 C 0.10346 0.52467 0.117 0.0
C3766 C 0.08755 0.53101 0.11451 0.0
C3767 C 0.08005 0.53715 0.13051 0.0
C3768 C 0.07808 0.53087 0.09543 0.0
C3769 C 0.11254 0.51884 0.10025 0.0
C3770 C 0.07365 0.54674 0.08995 0.0
C3771 C 0.06282 0.54621 0.07284 0.0
C3772 C 0.05683 0.52992 0.06094 0.0
C3773 C 0.06175 0.51417 0.06602 0.0
C3774 C 0.07213 0.5146 0.08339 0.0
H3775 H 0.12689 0.5197 0.10461 0.0
H3776 H 0.10656 0.50463 0.09468 0.0
H3777 H 0.11099 0.52715 0.08839 0.0
H3778 H 0.07814 0.55937 0.09918 0.0
H3779 H 0.05897 0.55841 0.06896 0.0
H3780 H 0.81501 0.84654 0.48144 0.0
H3781 H 0.80949 0.83216 0.44817 0.0
H3782 H 0.75688 0.84315 0.44296 0.0
H3783 H 0.76232 0.8577 0.47622 0.0
H3784 H 0.78342 0.80297 0.42928 0.0
H3785 H 0.7785 0.86617 0.39832 0.0
H3786 H 0.78723 0.86598 0.42304 0.0
H3787 H 0.76375 0.8604 0.41577 0.0
C3788 C 0.80222 0.84584 0.47328 0.0
C3789 C 0.78917 0.85343 0.48151 0.0
C3790 C 0.79908 0.83758 0.45424 0.0
C3791 C 0.78289 0.83684 0.44293 0.0
C3792 C 0.7696 0.84386 0.45128 0.0
H3793 H 0.74922 0.79086 0.32176 0.0
H3794 H 0.74885 0.80284 0.35535 0.0
C3795 C 0.7727 0.85208 0.47036 0.0
C3796 C 0.78014 0.82903 0.42234 0.0
H3797 H 0.77379 0.83967 0.37646 0.0
C3798 C 0.78123 0.81098 0.41775 0.0
C3799 C 0.77731 0.83948 0.40725 0.0
C3800 C 0.77677 0.85913 0.41124 0.0
C3801 C 0.77967 0.80319 0.39854 0.0
C3802 C 0.7771 0.81371 0.38352 0.0
C3803 C 0.77566 0.83162 0.38804 0.0
C3804 C 0.77714 0.80666 0.3631 0.0
C3805 C 0.78097 0.78378 0.39432 0.0
C3806 C 0.79318 0.80521 0.35625 0.0
C3807 C 0.79347 0.79875 0.33704 0.0
C3808 C 0.7777 0.79317 0.3243 0.0
C3809 C 0.76161 0.79479 0.3312 0.0
C3810 C 0.76136 0.80164 0.35039 0.0
H3811 H 0.77994 0.77663 0.40724 0.0
H3812 H 0.77039 0.7767 0.38274 0.0
H3813 H 0.7939 0.78311 0.38921 0.0
H3814 H 0.80553 0.80918 0.36578 0.0
H3815 H 0.80607 0.79807 0.33226 0.0
H3816 H 0.4434 0.48175 0.81422 0.0
H3817 H 0.45842 0.48744 0.84703 0.0
H3818 H 0.46691 0.54452 0.84428 0.0
H3819 H 0.45144 0.53893 0.81139 0.0
H3820 H 0.49183 0.50418 0.86181 0.0
H3821 H 0.44357 0.54027 0.89288 0.0
H3822 H 0.43918 0.52816 0.86899 0.0
H3823 H 0.4535 0.55001 0.87349 0.0
C3824 C 0.44846 0.49555 0.82052 0.0
C3825 C 0.44608 0.50989 0.81018 0.0
C3826 C 0.45708 0.49877 0.83933 0.0
C3827 C 0.46354 0.5164 0.84829 0.0
C3828 C 0.46168 0.5308 0.83784 0.0
H3829 H 0.51977 0.54944 0.96523 0.0
H3830 H 0.50769 0.54969 0.93174 0.0
C3831 C 0.45295 0.52758 0.81898 0.0
C3832 C 0.47216 0.51944 0.86856 0.0
H3833 H 0.46816 0.53714 0.91405 0.0
C3834 C 0.48668 0.51146 0.8732 0.0
C3835 C 0.46546 0.52896 0.88346 0.0
C3836 C 0.44948 0.53722 0.87956 0.0
C3837 C 0.49447 0.51249 0.89228 0.0
C3838 C 0.48754 0.52166 0.90715 0.0
C3839 C 0.4734 0.53012 0.90256 0.0
C3840 C 0.49432 0.52178 0.92762 0.0
C3841 C 0.50996 0.50359 0.89653 0.0
C3842 C 0.49043 0.50612 0.93648 0.0
C3843 C 0.49709 0.50599 0.95567 0.0
C3844 C 0.50804 0.52141 0.96627 0.0
C3845 C 0.51158 0.53722 0.95743 0.0
C3846 C 0.50469 0.53742 0.9383 0.0
H3847 H 0.5158 0.49994 0.88333 0.0
H3848 H 0.5204 0.51258 0.90702 0.0
H3849 H 0.50546 0.49114 0.90304 0.0
H3850 H 0.48223 0.49398 0.92854 0.0
H3851 H 0.49363 0.49381 0.96213 0.0
H3852 H 0.79071 0.15446 0.09678 0.0
H3853 H 0.79347 0.17373 0.12718 0.0
H3854 H 0.74317 0.18737 0.11003 0.0
H3855 H 0.74024 0.1681 0.0794 0.0
H3856 H 0.78953 0.21343 0.13046 0.0
H3857 H 0.74281 0.16514 0.1647 0.0
H3858 H 0.75472 0.15804 0.14562 0.0
H3859 H 0.73619 0.16835 0.14023 0.0
C3860 C 0.78027 0.16162 0.09945 0.0
C3861 C 0.76521 0.15982 0.08592 0.0
C3862 C 0.78189 0.17256 0.11673 0.0
C3863 C 0.76842 0.18162 0.12061 0.0
C3864 C 0.75355 0.18022 0.10705 0.0
H3865 H 0.74976 0.25312 0.21329 0.0
H3866 H 0.74897 0.23452 0.18266 0.0
C3867 C 0.75197 0.16938 0.08965 0.0
C3868 C 0.76997 0.19266 0.13893 0.0
H3869 H 0.75358 0.19413 0.18176 0.0
C3870 C 0.78174 0.2093 0.14175 0.0
C3871 C 0.75988 0.18681 0.15343 0.0
C3872 C 0.74774 0.16856 0.15102 0.0
C3873 C 0.78331 0.22069 0.15884 0.0
C3874 C 0.77286 0.21505 0.17311 0.0
C3875 C 0.76135 0.19826 0.17046 0.0
C3876 C 0.77366 0.2265 0.191 0.0
C3877 C 0.79583 0.23873 0.16153 0.0
C3878 C 0.78782 0.22783 0.20538 0.0
C3879 C 0.78828 0.23827 0.22274 0.0
C3880 C 0.77459 0.24745 0.22569 0.0
C3881 C 0.7605 0.24623 0.21114 0.0
C3882 C 0.76 0.23565 0.19381 0.0
H3883 H 0.80166 0.24178 0.14821 0.0
H3884 H 0.78883 0.24951 0.16607 0.0
H3885 H 0.80675 0.23889 0.1731 0.0
H3886 H 0.79837 0.22066 0.20322 0.0
H3887 H 0.7993 0.23914 0.23383 0.0
H3888 H 0.13891 0.56301 0.29042 0.0
H3889 H 0.12066 0.55806 0.31633 0.0
H3890 H 0.13825 0.50871 0.32376 0.0
H3891 H 0.15658 0.51345 0.29775 0.0
H3892 H 0.09316 0.52179 0.31792 0.0
H3893 H 0.14863 0.54412 0.37779 0.0
H3894 H 0.15006 0.55224 0.35471 0.0
H3895 H 0.15117 0.52935 0.35711 0.0
C3896 C 0.13897 0.55114 0.29759 0.0
C3897 C 0.14915 0.53861 0.29209 0.0
C3898 C 0.12848 0.54829 0.31226 0.0
C3899 C 0.12814 0.53299 0.32169 0.0
C3900 C 0.13839 0.52054 0.31646 0.0
H3901 H 0.08496 0.53389 0.42945 0.0
H3902 H 0.09556 0.52003 0.40167 0.0
C3903 C 0.14884 0.52331 0.3017 0.0
C3904 C 0.11731 0.5305 0.33739 0.0
H3905 H 0.11979 0.53993 0.38581 0.0
C3906 C 0.0989 0.5254 0.33284 0.0
C3907 C 0.12501 0.53499 0.35669 0.0
C3908 C 0.1448 0.54052 0.36204 0.0
C3909 C 0.0878 0.5256 0.34725 0.0
C3910 C 0.09544 0.53149 0.36648 0.0
C3911 C 0.11394 0.53542 0.37105 0.0
C3912 C 0.08491 0.53618 0.38175 0.0
C3913 C 0.06806 0.51994 0.34168 0.0
C3914 C 0.07483 0.54943 0.3796 0.0
C3915 C 0.0684 0.5572 0.39544 0.0
C3916 C 0.07223 0.55208 0.41375 0.0
C3917 C 0.0815 0.53807 0.41557 0.0
C3918 C 0.08766 0.53012 0.3997 0.0
H3919 H 0.06486 0.50959 0.32888 0.0
H3920 H 0.06135 0.5145 0.35363 0.0
H3921 H 0.06268 0.53173 0.33783 0.0
H3922 H 0.07288 0.55461 0.36597 0.0
H3923 H 0.06103 0.5677 0.39346 0.0
H3924 H 0.7635 0.86399 0.5836 0.0
H3925 H 0.75891 0.85226 0.61425 0.0
H3926 H 0.80725 0.83244 0.61412 0.0
H3927 H 0.8118 0.84381 0.58332 0.0
H3928 H 0.7625 0.81038 0.62203 0.0
H3929 H 0.80541 0.86971 0.6678 0.0
H3930 H 0.79377 0.87165 0.64477 0.0
H3931 H 0.81263 0.86129 0.64579 0.0
C3932 C 0.77315 0.85712 0.59009 0.0
C3933 C 0.78802 0.85481 0.58102 0.0
C3934 C 0.77047 0.8504 0.60756 0.0
C3935 C 0.78275 0.84152 0.61642 0.0
C3936 C 0.79761 0.83922 0.60746 0.0
H3937 H 0.79606 0.78634 0.71519 0.0
H3938 H 0.79623 0.7984 0.68433 0.0
C3939 C 0.80017 0.8457 0.58986 0.0
C3940 C 0.78022 0.83479 0.63517 0.0
H3941 H 0.79384 0.84496 0.6834 0.0
C3942 C 0.76923 0.81797 0.63547 0.0
C3943 C 0.78901 0.84475 0.65264 0.0
C3944 C 0.80086 0.86291 0.65294 0.0
C3945 C 0.76712 0.8107 0.65285 0.0
C3946 C 0.77613 0.82056 0.67028 0.0
C3947 C 0.78686 0.83751 0.67 0.0
C3948 C 0.77547 0.813 0.68881 0.0
C3949 C 0.75551 0.79242 0.6526 0.0
C3950 C 0.76382 0.81739 0.70164 0.0
C3951 C 0.76381 0.81066 0.71944 0.0
C3952 C 0.77534 0.79932 0.72453 0.0
C3953 C 0.7869 0.79492 0.71157 0.0
C3954 C 0.78703 0.80178 0.69395 0.0
H3955 H 0.74872 0.78679 0.63798 0.0
H3956 H 0.76365 0.78301 0.65785 0.0
H3957 H 0.74539 0.79328 0.66249 0.0
H3958 H 0.75478 0.82604 0.69788 0.0
H3959 H 0.75467 0.81409 0.7291 0.0
H3960 H 0.72442 0.43035 0.46495 0.0
H3961 H 0.69789 0.44332 0.46408 0.0
H3962 H 0.72134 0.47959 0.51522 0.0
H3963 H 0.74796 0.46727 0.5157 0.0
H3964 H 0.67758 0.44108 0.49171 0.0
H3965 H 0.69975 0.51279 0.48455 0.0
H3966 H 0.71283 0.49629 0.47867 0.0
H3967 H 0.71399 0.50643 0.50313 0.0
C3968 C 0.72397 0.44136 0.47572 0.0
C3969 C 0.7381 0.44793 0.49034 0.0
C3970 C 0.70895 0.4488 0.47512 0.0
C3971 C 0.70796 0.46272 0.48924 0.0
C3972 C 0.72219 0.46939 0.50371 0.0
H3973 H 0.6437 0.49908 0.56128 0.0
H3974 H 0.66644 0.49212 0.54174 0.0
C3975 C 0.73728 0.4622 0.50412 0.0
C3976 C 0.69116 0.46835 0.49096 0.0
H3977 H 0.67491 0.50555 0.50355 0.0
C3978 C 0.67669 0.45513 0.4936 0.0
C3979 C 0.6902 0.48669 0.49342 0.0
C3980 C 0.70502 0.5013 0.48958 0.0
C3981 C 0.66184 0.45989 0.50049 0.0
C3982 C 0.66158 0.47827 0.50458 0.0
C3983 C 0.67538 0.49147 0.50046 0.0
C3984 C 0.64822 0.48386 0.51551 0.0
C3985 C 0.64717 0.44535 0.50484 0.0
C3986 C 0.63071 0.48144 0.507 0.0
C3987 C 0.6178 0.4852 0.5181 0.0
C3988 C 0.62236 0.49134 0.53778 0.0
C3989 C 0.63995 0.49395 0.54622 0.0
C3990 C 0.65288 0.49028 0.53507 0.0
H3991 H 0.65032 0.43177 0.50256 0.0
H3992 H 0.64458 0.44797 0.51995 0.0
H3993 H 0.63482 0.44537 0.49536 0.0
H3994 H 0.62705 0.47643 0.49189 0.0
H3995 H 0.60425 0.48332 0.51138 0.0
H3996 H 0.22089 0.11336 0.49816 0.0
H3997 H 0.19234 0.09261 0.49671 0.0
H3998 H 0.16836 0.13683 0.51491 0.0
H3999 H 0.1968 0.15768 0.51655 0.0
H4000 H 0.17113 0.09062 0.53124 0.0
H4001 H 0.13622 0.10718 0.46444 0.0
H4002 H 0.16009 0.11109 0.46914 0.0
H4003 H 0.14826 0.12564 0.48161 0.0
C4004 C 0.20951 0.1187 0.5017 0.0
C4005 C 0.21111 0.13717 0.5075 0.0
C4006 C 0.19325 0.10683 0.50088 0.0
C4007 C 0.17831 0.11327 0.50559 0.0
C4008 C 0.17976 0.13169 0.51106 0.0
H4009 H 0.06855 0.07299 0.50905 0.0
H4010 H 0.0978 0.08953 0.5066 0.0
C4011 C 0.19602 0.14354 0.51204 0.0
C4012 C 0.16135 0.10067 0.50573 0.0
H4013 H 0.11925 0.0879 0.48276 0.0
C4014 C 0.15976 0.08985 0.52061 0.0
C4015 C 0.14663 0.09996 0.49192 0.0
C4016 C 0.14778 0.11149 0.47576 0.0
C4017 C 0.14353 0.07876 0.52253 0.0
C4018 C 0.12869 0.07789 0.50861 0.0
C4019 C 0.13055 0.08845 0.49341 0.0
C4020 C 0.11082 0.06722 0.5102 0.0
C4021 C 0.14237 0.06892 0.54002 0.0
C4022 C 0.10812 0.049 0.51311 0.0
C4023 C 0.09129 0.03956 0.51552 0.0
C4024 C 0.07662 0.04784 0.51404 0.0
C4025 C 0.07937 0.06593 0.5104 0.0
C4026 C 0.0962 0.0755 0.50879 0.0
H4027 H 0.15308 0.07524 0.55181 0.0
H4028 H 0.12946 0.06861 0.54556 0.0
H4029 H 0.14389 0.05492 0.53615 0.0
H4030 H 0.11904 0.04206 0.51368 0.0
H4031 H 0.08997 0.02594 0.51879 0.0
H4032 H 0.13744 0.9655 0.79726 0.0
H4033 H 0.15445 0.9417 0.79646 0.0
H4034 H 0.19644 0.9763 0.77447 0.0
H4035 H 0.1797 1.00034 0.77566 0.0
H4036 H 0.16499 0.92502 0.76572 0.0
H4037 H 0.22392 0.9577 0.81717 0.0
H4038 H 0.20382 0.96635 0.81519 0.0
H4039 H 0.21957 0.9711 0.79845 0.0
C4040 C 0.15038 0.96812 0.79242 0.0
C4041 C 0.15725 0.98485 0.7866 0.0
C4042 C 0.16009 0.9545 0.792 0.0
C4043 C 0.17687 0.95731 0.78576 0.0
C4044 C 0.18375 0.97398 0.77986 0.0
H4045 H 0.24889 0.89727 0.74502 0.0
H4046 H 0.2339 0.91988 0.75899 0.0
C4047 C 0.1741 0.98767 0.78041 0.0
C4048 C 0.18666 0.94244 0.78423 0.0
H4049 H 0.22682 0.93177 0.79637 0.0
C4050 C 0.17841 0.92637 0.77268 0.0
C4051 C 0.20413 0.9442 0.7934 0.0
C4052 C 0.21332 0.9607 0.80691 0.0
C4053 C 0.18745 0.91236 0.76923 0.0
C4054 C 0.20517 0.91439 0.77779 0.0
C4055 C 0.21323 0.93023 0.78987 0.0
C4056 C 0.21606 0.90112 0.77254 0.0
C4057 C 0.17825 0.89587 0.75567 0.0
C4058 C 0.21157 0.88321 0.77632 0.0
C4059 C 0.22021 0.87024 0.76838 0.0
C4060 C 0.23337 0.87507 0.75652 0.0
C4061 C 0.23868 0.89322 0.75398 0.0
C4062 C 0.23015 0.90613 0.76198 0.0
H4063 H 0.16582 0.89784 0.74761 0.0
H4064 H 0.18706 0.89219 0.74517 0.0
H4065 H 0.17486 0.88442 0.76403 0.0
H4066 H 0.2009 0.87913 0.78469 0.0
H4067 H 0.21588 0.85633 0.77052 0.0
H4068 H 0.34927 0.94222 0.04282 0.0
H4069 H 0.3805 0.95234 0.03901 0.0
H4070 H 0.3654 0.97981 0.99134 0.0
H4071 H 0.3344 0.97023 0.99515 0.0
H4072 H 0.39763 0.94783 0.00231 0.0
H4073 H 0.39827 0.01799 0.03355 0.0
H4074 H 0.38147 0.99914 0.03709 0.0
H4075 H 0.38081 0.00812 0.01451 0.0
C4076 C 0.35267 0.95058 0.03169 0.0
C4077 C 0.33954 0.95571 0.0195 0.0
C4078 C 0.37036 0.9561 0.02941 0.0
C4079 C 0.37487 0.96668 0.01492 0.0
C4080 C 0.36187 0.97166 0.00262 0.0
H4081 H 0.47462 0.02978 -0.00127 0.0
H4082 H 0.44369 0.01466 0.99342 0.0
C4083 C 0.34427 0.96635 0.00499 0.0
C4084 C 0.39327 0.97372 0.01344 0.0
H4085 H 0.42407 0.01247 0.0217 0.0
C4086 C 0.40354 0.96194 0.00646 0.0
C4087 C 0.4005 0.99212 0.01876 0.0
C4088 C 0.38976 0.00511 0.02653 0.0
C4089 C 0.42131 0.96828 0.00471 0.0
C4090 C 0.42864 0.98666 0.01049 0.0
C4091 C 0.4182 0.9984 0.01716 0.0
C4092 C 0.44742 0.99399 0.01141 0.0
C4093 C 0.43198 0.95536 0.99673 0.0
C4094 C 0.45946 0.98731 0.02339 0.0
C4095 C 0.47714 0.99568 0.02616 0.0
C4096 C 0.48281 0.01112 0.01751 0.0
C4097 C 0.47061 0.01796 0.00574 0.0
C4098 C 0.45302 0.00927 0.00251 0.0
H4099 H 0.42337 0.94384 0.98718 0.0
H4100 H 0.44224 0.96211 0.98854 0.0
H4101 H 0.43869 0.94987 0.00878 0.0
H4102 H 0.45515 0.97586 0.03087 0.0
H4103 H 0.48634 0.98996 0.03491 0.0
H4104 H 0.83811 0.55197 0.81603 0.0
H4105 H 0.82221 0.57685 0.81515 0.0
H4106 H 0.86108 0.60425 0.7829 0.0
H4107 H 0.87712 0.57975 0.78401 0.0
H4108 H 0.84541 0.62129 0.82388 0.0
H4109 H 0.80282 0.59187 0.75521 0.0
H4110 H 0.81032 0.57818 0.77256 0.0
H4111 H 0.82527 0.58863 0.7573 0.0
C4112 C 0.84327 0.56348 0.809 0.0
C4113 C 0.85878 0.56431 0.80024 0.0
C4114 C 0.83426 0.57749 0.80852 0.0
C4115 C 0.84068 0.59206 0.79901 0.0
C4116 C 0.85622 0.59297 0.79042 0.0
H4117 H 0.83795 0.68181 0.74963 0.0
H4118 H 0.84517 0.65846 0.76876 0.0
C4119 C 0.86535 0.57915 0.79115 0.0
C4120 C 0.83125 0.60652 0.79739 0.0
H4121 H 0.80849 0.62382 0.76273 0.0
C4122 C 0.83678 0.62183 0.8109 0.0
C4123 C 0.82018 0.6068 0.78033 0.0
C4124 C 0.81417 0.59045 0.76552 0.0
C4125 C 0.83273 0.63817 0.80684 0.0
C4126 C 0.82301 0.63875 0.78902 0.0
C4127 C 0.81612 0.62308 0.77633 0.0
C4128 C 0.82109 0.65558 0.78212 0.0
C4129 C 0.83979 0.65488 0.82083 0.0
C4130 C 0.80535 0.66145 0.78375 0.0
C4131 C 0.80106 0.67431 0.77266 0.0
C4132 C 0.81258 0.68155 0.75994 0.0
C4133 C 0.82886 0.67633 0.75921 0.0
C4134 C 0.83309 0.66331 0.77029 0.0
H4135 H 0.84575 0.65179 0.83481 0.0
H4136 H 0.85002 0.66399 0.81459 0.0
H4137 H 0.82897 0.66212 0.82335 0.0
H4138 H 0.79588 0.65518 0.79254 0.0
H4139 H 0.78821 0.67774 0.77325 0.0
H4140 H 0.83096 0.66153 0.99358 0.0
H4141 H 0.85506 0.64516 0.99437 0.0
H4142 H 0.82371 0.60327 0.02016 0.0
H4143 H 0.79933 0.61941 0.01909 0.0
H4144 H 0.87345 0.63575 0.02536 0.0
H4145 H 0.84004 0.57466 0.97625 0.0
H4146 H 0.83122 0.59488 0.97824 0.0
H4147 H 0.82809 0.57953 0.99591 0.0
C4148 C 0.82911 0.64878 -0.00067 0.0
C4149 C 0.81316 0.64173 0.00618 0.0
C4150 C 0.84292 0.63944 -0.00025 0.0
C4151 C 0.84106 0.62283 0.00696 0.0
C4152 C 0.82525 0.61584 0.01405 0.0
H4153 H 0.90715 0.55242 0.04183 0.0
H4154 H 0.88273 0.56603 0.02992 0.0
C4155 C 0.81138 0.62515 0.01357 0.0
C4156 C 0.85601 0.61328 0.00787 0.0
H4157 H 0.86741 0.57326 0.99443 0.0
C4158 C 0.87222 0.62217 0.01839 0.0
C4159 C 0.85435 0.59558 -0.00126 0.0
C4160 C 0.83754 0.58564 0.98649 0.0
C4161 C 0.88662 0.6136 0.02069 0.0
C4162 C 0.88485 0.59575 0.01188 0.0
C4163 C 0.86876 0.58698 0.00103 0.0
C4164 C 0.89896 0.58545 0.0155 0.0
C4165 C 0.90332 0.62347 0.03323 0.0
C4166 C 0.91599 0.59119 0.01038 0.0
C4167 C 0.92996 0.58333 0.01713 0.0
C4168 C 0.92699 0.56964 0.02898 0.0
C4169 C 0.90969 0.56293 0.03265 0.0
C4170 C 0.89577 0.57073 0.02591 0.0
H4171 H 0.90123 0.63562 0.042 0.0
H4172 H 0.90834 0.61458 0.04306 0.0
H4173 H 0.91369 0.6278 0.02401 0.0
H4174 H 0.91864 0.60236 0.00208 0.0
H4175 H 0.94325 0.5888 0.01427 0.0
H4176 H 0.14546 0.0999 0.76018 0.0
H4177 H 0.16576 0.12887 0.76252 0.0
H4178 H 0.20083 0.11251 0.80576 0.0
H4179 H 0.18071 0.08319 0.80319 0.0
H4180 H 0.17802 0.1553 0.79284 0.0
H4181 H 0.23364 0.12775 0.7664 0.0
H4182 H 0.21155 0.1144 0.76468 0.0
H4183 H 0.22572 0.11885 0.78721 0.0
C4184 C 0.15747 0.10241 0.77022 0.0
C4185 C 0.16153 0.08914 0.78137 0.0
C4186 C 0.16906 0.11902 0.77156 0.0
C4187 C 0.18495 0.12276 0.78408 0.0
C4188 C 0.18884 0.10976 0.79568 0.0
H4189 H 0.25489 0.22949 0.80777 0.0
H4190 H 0.23776 0.19969 0.81161 0.0
C4191 C 0.17728 0.09305 0.79426 0.0
C4192 C 0.19742 0.14023 0.78467 0.0
H4193 H 0.23867 0.15914 0.77498 0.0
C4194 C 0.19134 0.15614 0.78911 0.0
C4195 C 0.21474 0.14129 0.7796 0.0
C4196 C 0.22181 0.12469 0.77404 0.0
C4197 C 0.20204 0.17305 0.78843 0.0
C4198 C 0.21926 0.17405 0.78325 0.0
C4199 C 0.22547 0.15823 0.77905 0.0
C4200 C 0.2306 0.19144 0.78108 0.0
C4201 C 0.19473 0.18975 0.79257 0.0
C4202 C 0.23258 0.19634 0.76266 0.0
C4203 C 0.24257 0.21312 0.76047 0.0
C4204 C 0.25049 0.22524 0.77669 0.0
C4205 C 0.2488 0.22025 0.79511 0.0
C4206 C 0.23903 0.20335 0.7973 0.0
H4207 H 0.1808 0.18663 0.79568 0.0
H4208 H 0.20292 0.19847 0.80513 0.0
H4209 H 0.19537 0.19751 0.78008 0.0
H4210 H 0.22607 0.18733 0.75 0.0
H4211 H 0.24361 0.21688 0.74616 0.0
H4212 H 0.37132 0.95178 0.25377 0.0
H4213 H 0.35954 0.92032 0.25771 0.0
H4214 H 0.32113 0.93712 0.29168 0.0
H4215 H 0.3325 0.96832 0.28768 0.0
H4216 H 0.35152 0.90608 0.29939 0.0
H4217 H 0.29688 0.90056 0.23954 0.0
H4218 H 0.31769 0.9163 0.24097 0.0
H4219 H 0.30179 0.92057 0.25663 0.0
C4220 C 0.36017 0.94864 0.26175 0.0
C4221 C 0.35258 0.96222 0.27022 0.0
C4222 C 0.35376 0.93088 0.26428 0.0
C4223 C 0.33977 0.92686 0.27514 0.0
C4224 C 0.33212 0.94032 0.28346 0.0
H4225 H 0.26784 0.82934 0.28536 0.0
H4226 H 0.28307 0.86084 0.2901 0.0
C4227 C 0.33845 0.95797 0.28095 0.0
C4228 C 0.3318 0.90842 0.27639 0.0
H4229 H 0.29575 0.87643 0.25787 0.0
C4230 C 0.33939 0.89942 0.29033 0.0
C4231 C 0.31593 0.90031 0.26461 0.0
C4232 C 0.30757 0.90984 0.24949 0.0
C4233 C 0.33126 0.88202 0.29275 0.0
C4234 C 0.31544 0.8739 0.28081 0.0
C4235 C 0.30783 0.88304 0.26706 0.0
C4236 C 0.30734 0.85523 0.28073 0.0
C4237 C 0.33947 0.87245 0.3079 0.0
C4238 C 0.31607 0.84215 0.27355 0.0
C4239 C 0.30747 0.82434 0.27066 0.0
C4240 C 0.29003 0.81956 0.27481 0.0
C4241 C 0.28127 0.83277 0.28193 0.0
C4242 C 0.28995 0.85062 0.28491 0.0
H4243 H 0.34899 0.88199 0.31887 0.0
H4244 H 0.32913 0.86459 0.31519 0.0
H4245 H 0.34675 0.86292 0.30097 0.0
H4246 H 0.32936 0.84576 0.26976 0.0
H4247 H 0.31461 0.81438 0.26549 0.0
H4248 H 0.56634 0.35976 0.61168 0.0
H4249 H 0.56083 0.38528 0.59579 0.0
H4250 H 0.52998 0.34933 0.54796 0.0
H4251 H 0.53516 0.32338 0.56424 0.0
H4252 H 0.56928 0.39761 0.56405 0.0
H4253 H 0.49588 0.3815 0.55654 0.0
H4254 H 0.50918 0.36931 0.57058 0.0
H4255 H 0.50566 0.36462 0.54479 0.0
C4256 C 0.55831 0.35709 0.59779 0.0
C4257 C 0.55114 0.33923 0.58946 0.0
C4258 C 0.55517 0.37189 0.58861 0.0
C4259 C 0.54465 0.36961 0.57067 0.0
C4260 C 0.53774 0.35176 0.56199 0.0
H4261 H 0.51469 0.45605 0.50518 0.0
H4262 H 0.51824 0.42672 0.51457 0.0
C4263 C 0.54089 0.33681 0.57126 0.0
C4264 C 0.54144 0.38605 0.56141 0.0
H4265 H 0.50914 0.4078 0.5444 0.0
C4266 C 0.55607 0.39971 0.55978 0.0
C4267 C 0.52428 0.38909 0.55544 0.0
C4268 C 0.50782 0.37545 0.55703 0.0
C4269 C 0.55412 0.41606 0.55281 0.0
C4270 C 0.53697 0.4194 0.54758 0.0
C4271 C 0.52232 0.40553 0.54851 0.0
C4272 C 0.53413 0.43738 0.54187 0.0
C4273 C 0.57061 0.42955 0.55091 0.0
C4274 C 0.54141 0.45344 0.55406 0.0
C4275 C 0.53934 0.47026 0.54874 0.0
C4276 C 0.52974 0.47176 0.53103 0.0
C4277 C 0.52212 0.45565 0.51894 0.0
C4278 C 0.52418 0.43874 0.52433 0.0
H4279 H 0.58202 0.42294 0.5492 0.0
H4280 H 0.56859 0.43703 0.53843 0.0
H4281 H 0.57416 0.43933 0.56414 0.0
H4282 H 0.54874 0.45302 0.56789 0.0
H4283 H 0.54531 0.48216 0.55865 0.0
H4284 H 0.46342 0.77619 0.38402 0.0
H4285 H 0.4374 0.77948 0.36261 0.0
H4286 H 0.40486 0.73758 0.38714 0.0
H4287 H 0.43054 0.7344 0.40862 0.0
H4288 H 0.41412 0.75551 0.3347 0.0
H4289 H 0.37731 0.77732 0.39274 0.0
H4290 H 0.40051 0.77668 0.39688 0.0
H4291 H 0.38395 0.75646 0.3958 0.0
C4292 C 0.45072 0.76769 0.38488 0.0
C4293 C 0.44917 0.75511 0.39825 0.0
C4294 C 0.43581 0.76958 0.37259 0.0
C4295 C 0.41896 0.75904 0.37342 0.0
C4296 C 0.41752 0.74623 0.38645 0.0
H4297 H 0.31075 0.74533 0.31693 0.0
H4298 H 0.33824 0.74394 0.33682 0.0
C4299 C 0.43234 0.74435 0.39872 0.0
C4300 C 0.40288 0.76118 0.36069 0.0
H4301 H 0.36083 0.7687 0.36165 0.0
C4302 C 0.40252 0.75854 0.3406 0.0
C4303 C 0.38766 0.76518 0.36825 0.0
C4304 C 0.38738 0.76926 0.38959 0.0
C4305 C 0.38726 0.75909 0.328 0.0
C4306 C 0.3719 0.76274 0.3356 0.0
C4307 C 0.37242 0.76572 0.35568 0.0
C4308 C 0.35514 0.76344 0.32309 0.0
C4309 C 0.38761 0.75513 0.30665 0.0
C4310 C 0.3552 0.77501 0.30879 0.0
C4311 C 0.33949 0.77572 0.29729 0.0
C4312 C 0.32314 0.76507 0.2999 0.0
C4313 C 0.32304 0.75368 0.31441 0.0
C4314 C 0.3388 0.7529 0.32584 0.0
H4315 H 0.39798 0.74746 0.30348 0.0
H4316 H 0.37463 0.74736 0.29934 0.0
H4317 H 0.39065 0.76799 0.30046 0.0
H4318 H 0.36739 0.78375 0.30666 0.0
H4319 H 0.34014 0.78496 0.28658 0.0
H4320 H 0.02091 0.72797 0.05018 0.0
H4321 H 0.02118 0.69635 0.04096 0.0
H4322 H 0.06067 0.69796 0.08923 0.0
H4323 H 0.06009 0.72957 0.09887 0.0
H4324 H 0.04498 0.67878 0.02964 0.0
H4325 H 0.02666 0.65418 0.09748 0.0
H4326 H 0.02576 0.67666 0.09242 0.0
H4327 H 0.04651 0.6712 0.1011 0.0
C4328 C 0.02964 0.72165 0.05896 0.0
C4329 C 0.04038 0.73152 0.07544 0.0
C4330 C 0.0298 0.70343 0.0536 0.0
C4331 C 0.04067 0.69434 0.06451 0.0
C4332 C 0.05172 0.70427 0.08076 0.0
H4333 H 0.06274 0.58526 0.04046 0.0
H4334 H 0.06518 0.61748 0.05053 0.0
C4335 C 0.0515 0.72251 0.08621 0.0
C4336 C 0.04048 0.67466 0.05865 0.0
H4337 H 0.03498 0.63321 0.07479 0.0
C4338 C 0.04277 0.6689 0.0396 0.0
C4339 C 0.0375 0.66142 0.07141 0.0
C4340 C 0.03379 0.66611 0.09167 0.0
C4341 C 0.04231 0.65065 0.03314 0.0
C4342 C 0.03951 0.63756 0.04595 0.0
C4343 C 0.03729 0.64321 0.06497 0.0
C4344 C 0.03819 0.6179 0.03958 0.0
C4345 C 0.04479 0.64532 0.01259 0.0
C4346 C 0.02223 0.60724 0.03006 0.0
C4347 C 0.02079 0.58877 0.02432 0.0
C4348 C 0.03533 0.58041 0.02776 0.0
C4349 C 0.05134 0.59117 0.03726 0.0
C4350 C 0.05272 0.60963 0.04316 0.0
H4351 H 0.04827 0.65715 0.00476 0.0
H4352 H 0.05537 0.63741 0.01215 0.0
H4353 H 0.03237 0.6366 0.005 0.0
H4354 H 0.01081 0.61321 0.02712 0.0
H4355 H 0.00823 0.58106 0.01706 0.0
H4356 H 0.03671 0.25219 0.88265 0.0
H4357 H 0.06053 0.25114 0.86239 0.0
H4358 H 0.09678 0.28884 0.90491 0.0
H4359 H 0.07336 0.28966 0.92523 0.0
H4360 H 0.08115 0.27689 0.84574 0.0
H4361 H 0.12454 0.24989 0.89734 0.0
H4362 H 0.10171 0.24997 0.90015 0.0
H4363 H 0.11863 0.2698 0.90813 0.0
C4364 C 0.04977 0.26024 0.88768 0.0
C4365 C 0.05308 0.2709 0.90571 0.0
C4366 C 0.06341 0.25961 0.87608 0.0
C4367 C 0.08067 0.26957 0.88226 0.0
C4368 C 0.0838 0.28057 0.89999 0.0
H4369 H 0.18016 0.30794 0.84675 0.0
H4370 H 0.15454 0.29702 0.86282 0.0
C4371 C 0.07028 0.28113 0.91159 0.0
C4372 C 0.09542 0.269 0.87019 0.0
H4373 H 0.13864 0.26457 0.87267 0.0
C4374 C 0.09362 0.27389 0.85149 0.0
C4375 C 0.1117 0.26486 0.8775 0.0
C4376 C 0.11421 0.25814 0.89679 0.0
C4377 C 0.10795 0.27598 0.84054 0.0
C4378 C 0.12455 0.2729 0.84836 0.0
C4379 C 0.12603 0.26709 0.86664 0.0
C4380 C 0.14098 0.2776 0.83889 0.0
C4381 C 0.10543 0.28244 0.82111 0.0
C4382 C 0.14243 0.26982 0.82027 0.0
C4383 C 0.15728 0.27605 0.81103 0.0
C4384 C 0.17092 0.29013 0.82027 0.0
C4385 C 0.16988 0.29706 0.83927 0.0
C4386 C 0.15518 0.29084 0.84846 0.0
H4387 H 0.09292 0.28741 0.81873 0.0
H4388 H 0.11665 0.29339 0.81949 0.0
H4389 H 0.10495 0.27116 0.80973 0.0
H4390 H 0.13188 0.25931 0.81267 0.0
H4391 H 0.15764 0.27055 0.79634 0.0
H4392 H 0.52948 0.77016 0.9219 0.0
H4393 H 0.5278 0.74255 0.93686 0.0
H4394 H 0.5362 0.7143 0.88367 0.0
H4395 H 0.53809 0.74207 0.86855 0.0
H4396 H 0.5041 0.71058 0.92713 0.0
H4397 H 0.57225 0.69962 0.92222 0.0
H4398 H 0.56597 0.72069 0.91846 0.0
H4399 H 0.56007 0.70196 0.89982 0.0
C4400 C 0.53109 0.75814 0.91333 0.0
C4401 C 0.53397 0.75846 0.89397 0.0
C4402 C 0.53011 0.74229 0.92195 0.0
C4403 C 0.53212 0.72629 0.91156 0.0
C4404 C 0.53497 0.7265 0.89218 0.0
H4405 H 0.51615 0.61661 0.94392 0.0
H4406 H 0.52456 0.64307 0.92708 0.0
C4407 C 0.5359 0.74239 0.88349 0.0
C4408 C 0.53044 0.70939 0.92096 0.0
H4409 H 0.55258 0.67691 0.93436 0.0
C4410 C 0.51474 0.70328 0.9287 0.0
C4411 C 0.54425 0.69968 0.92299 0.0
C4412 C 0.56166 0.70585 0.9156 0.0
C4413 C 0.51245 0.68789 0.93834 0.0
C4414 C 0.52635 0.67837 0.94071 0.0
C4415 C 0.54196 0.68423 0.93267 0.0
C4416 C 0.52468 0.66246 0.95167 0.0
C4417 C 0.49503 0.68181 0.94579 0.0
C4418 C 0.52279 0.6645 0.97134 0.0
C4419 C 0.51812 0.64943 0.98097 0.0
C4420 C 0.51545 0.63196 0.97123 0.0
C4421 C 0.51854 0.6299 0.9519 0.0
C4422 C 0.5232 0.64502 0.94223 0.0
H4423 H 0.48442 0.68793 0.93904 0.0
H4424 H 0.49075 0.66696 0.9431 0.0
H4425 H 0.49661 0.68585 0.96154 0.0
H4426 H 0.524 0.67778 0.97901 0.0
H4427 H 0.51548 0.65142 0.99573 0.0
H4428 H 0.07989 0.73457 0.68354 0.0
H4429 H 0.11049 0.73855 0.69773 0.0
H4430 H 0.0999 0.77154 0.74664 0.0
H4431 H 0.06869 0.76717 0.73253 0.0
H4432 H 0.13617 0.76647 0.70538 0.0
H4433 H 0.1264 0.74004 0.7747 0.0
H4434 H 0.10849 0.73748 0.75548 0.0
H4435 H 0.11574 0.75846 0.77085 0.0
C4436 C 0.08387 0.74263 0.69741 0.0
C4437 C 0.07149 0.75048 0.70679 0.0
C4438 C 0.1016 0.74493 0.70556 0.0
C4439 C 0.10788 0.7552 0.7235 0.0
C4440 C 0.09558 0.76316 0.73302 0.0
H4441 H 0.2191 0.79162 0.7774 0.0
H4442 H 0.1873 0.78856 0.7674 0.0
C4443 C 0.07764 0.76075 0.72485 0.0
C4444 C 0.12731 0.75778 0.7315 0.0
H4445 H 0.1559 0.75262 0.77034 0.0
C4446 C 0.14034 0.76338 0.71961 0.0
C4447 C 0.13319 0.75381 0.75009 0.0
C4448 C 0.12026 0.74695 0.76348 0.0
C4449 C 0.15864 0.76507 0.72563 0.0
C4450 C 0.16445 0.76105 0.74409 0.0
C4451 C 0.15157 0.75569 0.75615 0.0
C4452 C 0.18383 0.76242 0.75097 0.0
C4453 C 0.17181 0.77121 0.71218 0.0
C4454 C 0.19273 0.74869 0.74532 0.0
C4455 C 0.211 0.75032 0.75122 0.0
C4456 C 0.221 0.76584 0.76277 0.0
C4457 C 0.21199 0.77949 0.76848 0.0
C4458 C 0.1937 0.77775 0.76279 0.0
H4459 H 0.16545 0.77536 0.69898 0.0
H4460 H 0.18214 0.78267 0.7196 0.0
H4461 H 0.17853 0.76011 0.70795 0.0
H4462 H 0.18555 0.73673 0.73616 0.0
H4463 H 0.21738 0.73959 0.74634 0.0
H4464 H 0.00387 0.34072 0.39552 0.0
H4465 H 0.00694 0.36856 0.41689 0.0
H4466 H 0.06317 0.37999 0.41447 0.0
H4467 H 0.06019 0.35195 0.39277 0.0
H4468 H 0.02675 0.37953 0.4531 0.0
H4469 H 0.04883 0.42685 0.40143 0.0
H4470 H 0.03928 0.4034 0.39385 0.0
H4471 H 0.06176 0.41006 0.40517 0.0
C4472 C 0.01695 0.34909 0.39944 0.0
C4473 C 0.03178 0.34398 0.39226 0.0
C4474 C 0.01867 0.36508 0.41175 0.0
C4475 C 0.03524 0.37661 0.41721 0.0
C4476 C 0.05017 0.37154 0.41025 0.0
H4477 H 0.06037 0.4846 0.48348 0.0
H4478 H 0.06195 0.45646 0.46424 0.0
C4479 C 0.04847 0.35542 0.39792 0.0
C4480 C 0.03662 0.39369 0.43035 0.0
H4481 H 0.04627 0.43954 0.43255 0.0
C4482 C 0.03109 0.39266 0.44863 0.0
C4483 C 0.04241 0.41089 0.42468 0.0
C4484 C 0.0483 0.41299 0.40518 0.0
C4485 C 0.03121 0.40819 0.46134 0.0
C4486 C 0.03636 0.42546 0.45542 0.0
C4487 C 0.04221 0.42646 0.43723 0.0
C4488 C 0.03556 0.44259 0.46764 0.0
C4489 C 0.02618 0.40575 0.48115 0.0
C4490 C 0.0202 0.44455 0.47598 0.0
C4491 C 0.01954 0.46044 0.4875 0.0
C4492 C 0.03395 0.47512 0.49038 0.0
C4493 C 0.04908 0.47349 0.48156 0.0
C4494 C 0.04995 0.45738 0.4705 0.0
H4495 H 0.02896 0.39297 0.48572 0.0
H4496 H 0.03341 0.41698 0.49203 0.0
H4497 H 0.01175 0.40508 0.48093 0.0
H4498 H 0.00855 0.43385 0.47343 0.0
H4499 H 0.00756 0.46142 0.49377 0.0
H4500 H 0.44218 0.24309 0.1802 0.0
H4501 H 0.41578 0.2473 0.19435 0.0
H4502 H 0.4469 0.26371 0.24977 0.0
H4503 H 0.47379 0.25958 0.23546 0.0
H4504 H 0.39863 0.23157 0.22172 0.0
H4505 H 0.42026 0.30444 0.24711 0.0
H4506 H 0.43213 0.29277 0.23104 0.0
H4507 H 0.43446 0.29038 0.25622 0.0
C4508 C 0.44361 0.2476 0.19545 0.0
C4509 C 0.46046 0.25101 0.20652 0.0
C4510 C 0.42829 0.25001 0.20359 0.0
C4511 C 0.429 0.25616 0.2232 0.0
C4512 C 0.44575 0.25934 0.23452 0.0
H4513 H 0.34204 0.28352 0.28648 0.0
H4514 H 0.37063 0.27893 0.27751 0.0
C4515 C 0.46122 0.25678 0.22633 0.0
C4516 C 0.41208 0.25885 0.23132 0.0
H4517 H 0.39185 0.29047 0.25297 0.0
C4518 C 0.39726 0.2445 0.22857 0.0
C4519 C 0.40994 0.27558 0.24056 0.0
C4520 C 0.42495 0.29175 0.24383 0.0
C4521 C 0.38072 0.24632 0.23457 0.0
C4522 C 0.37833 0.26324 0.24308 0.0
C4523 C 0.39329 0.2775 0.24631 0.0
C4524 C 0.36052 0.26639 0.24854 0.0
C4525 C 0.36611 0.22979 0.23213 0.0
C4526 C 0.34487 0.26133 0.23537 0.0
C4527 C 0.32834 0.26396 0.24053 0.0
C4528 C 0.32677 0.272 0.25902 0.0
C4529 C 0.34248 0.27737 0.27209 0.0
C4530 C 0.35901 0.2747 0.26693 0.0
H4531 H 0.37153 0.21735 0.23196 0.0
H4532 H 0.35759 0.23008 0.24381 0.0
H4533 H 0.35777 0.22904 0.21817 0.0
H4534 H 0.34539 0.25543 0.22089 0.0
H4535 H 0.31676 0.25972 0.22991 0.0
H4536 H 0.58393 0.55061 0.32214 0.0
H4537 H 0.57118 0.54525 0.35192 0.0
H4538 H 0.60945 0.51315 0.36664 0.0
H4539 H 0.62231 0.51843 0.33706 0.0
H4540 H 0.55717 0.51091 0.36484 0.0
H4541 H 0.6147 0.55146 0.41426 0.0
H4542 H 0.6114 0.55369 0.38896 0.0
H4543 H 0.61976 0.53495 0.39686 0.0
C4544 C 0.58964 0.54241 0.33171 0.0
C4545 C 0.6042 0.53503 0.32725 0.0
C4546 C 0.58232 0.53935 0.34869 0.0
C4547 C 0.58953 0.529 0.36156 0.0
C4548 C 0.60388 0.52141 0.35703 0.0
H4549 H 0.56551 0.50537 0.47619 0.0
H4550 H 0.57792 0.5055 0.44551 0.0
C4551 C 0.61116 0.5244 0.34006 0.0
C4552 C 0.58202 0.52605 0.37972 0.0
H4553 H 0.59155 0.5352 0.42852 0.0
C4554 C 0.56466 0.51621 0.37878 0.0
C4555 C 0.5919 0.53286 0.39786 0.0
C4556 C 0.61043 0.54396 0.39966 0.0
C4557 C 0.55691 0.51295 0.39554 0.0
C4558 C 0.56667 0.52006 0.41369 0.0
C4559 C 0.58413 0.52967 0.41461 0.0
C4560 C 0.55866 0.51885 0.43183 0.0
C4561 C 0.53838 0.50181 0.39363 0.0
C4562 C 0.54389 0.52647 0.43435 0.0
C4563 C 0.53685 0.52641 0.45172 0.0
C4564 C 0.54448 0.51884 0.46708 0.0
C4565 C 0.55932 0.51124 0.46461 0.0
C4566 C 0.56638 0.51128 0.44711 0.0
H4567 H 0.53507 0.49277 0.37982 0.0
H4568 H 0.53667 0.49354 0.40564 0.0
H4569 H 0.5288 0.51087 0.39389 0.0
H4570 H 0.53803 0.53285 0.423 0.0
H4571 H 0.52555 0.53262 0.45319 0.0
H4572 H 0.26288 0.86811 0.01909 0.0
H4573 H 0.26432 0.85129 0.04685 0.0
H4574 H 0.29595 0.89858 0.08154 0.0
H4575 H 0.29417 0.91552 0.05429 0.0
H4576 H 0.29428 0.84538 0.06762 0.0
H4577 H 0.25754 0.8833 0.11469 0.0
H4578 H 0.25707 0.88512 0.08931 0.0
H4579 H 0.27559 0.89732 0.10606 0.0
C4580 C 0.26994 0.87492 0.03272 0.0
C4581 C 0.27812 0.89315 0.03468 0.0
C4582 C 0.27074 0.86534 0.04849 0.0
C4583 C 0.27978 0.87391 0.06628 0.0
C4584 C 0.28835 0.89196 0.06809 0.0
H4585 H 0.32179 0.84582 0.17192 0.0
H4586 H 0.30989 0.8612 0.14613 0.0
C4587 C 0.28739 0.90157 0.05247 0.0
C4588 C 0.28119 0.8638 0.08279 0.0
H4589 H 0.27447 0.86415 0.12982 0.0
C4590 C 0.28967 0.84923 0.08112 0.0
C4591 C 0.27531 0.86913 0.10037 0.0
C4592 C 0.26573 0.88448 0.10269 0.0
C4593 C 0.29304 0.84015 0.09688 0.0
C4594 C 0.28738 0.84562 0.11453 0.0
C4595 C 0.2786 0.85998 0.11614 0.0
C4596 C 0.29176 0.83728 0.13174 0.0
C4597 C 0.30331 0.82531 0.09477 0.0
C4598 C 0.28492 0.81902 0.13237 0.0
C4599 C 0.29184 0.81027 0.14685 0.0
C4600 C 0.30547 0.81982 0.1608 0.0
C4601 C 0.31142 0.83832 0.16099 0.0
C4602 C 0.30456 0.84706 0.14646 0.0
H4603 H 0.30977 0.82528 0.08143 0.0
H4604 H 0.31366 0.82663 0.10726 0.0
H4605 H 0.29415 0.81214 0.09418 0.0
H4606 H 0.27489 0.8114 0.12116 0.0
H4607 H 0.287 0.796 0.14682 0.0
H4608 H 0.90561 0.53722 0.84542 0.0
H4609 H 0.92699 0.54354 0.87433 0.0
H4610 H 0.933 0.48838 0.86829 0.0
H4611 H 0.91156 0.48178 0.83917 0.0
H4612 H 0.92189 0.52369 0.90744 0.0
H4613 H 0.98445 0.52086 0.87662 0.0
H4614 H 0.96498 0.52501 0.86283 0.0
H4615 H 0.9663 0.50257 0.86733 0.0
C4616 C 0.9115 0.5264 0.85017 0.0
C4617 C 0.90686 0.50894 0.84017 0.0
C4618 C 0.92371 0.5301 0.8666 0.0
C4619 C 0.93148 0.51643 0.8731 0.0
C4620 C 0.92714 0.49906 0.86312 0.0
H4621 H 1.00204 0.49507 0.96125 0.0
H4622 H 0.97808 0.49406 0.93542 0.0
C4623 C 0.91486 0.4953 0.84667 0.0
C4624 C 0.94319 0.51994 0.89118 0.0
H4625 H 0.98493 0.51896 0.91017 0.0
C4626 C 0.93574 0.52285 0.90818 0.0
C4627 C 0.96118 0.5191 0.89172 0.0
C4628 C 0.96979 0.51688 0.87365 0.0
C4629 C 0.94569 0.52369 0.92605 0.0
C4630 C 0.96342 0.52176 0.92656 0.0
C4631 C 0.97114 0.52 0.90953 0.0
C4632 C 0.97428 0.52086 0.94446 0.0
C4633 C 0.93703 0.52584 0.94409 0.0
C4634 C 0.97921 0.53591 0.9584 0.0
C4635 C 0.99246 0.53626 0.97336 0.0
C4636 C 1.0009 0.52167 0.97413 0.0
C4637 C 0.99535 0.50626 0.96083 0.0
C4638 C 0.98182 0.50574 0.94618 0.0
H4639 H 0.92237 0.52318 0.94096 0.0
H4640 H 0.94079 0.51667 0.95433 0.0
H4641 H 0.94158 0.53983 0.95125 0.0
H4642 H 0.97377 0.54781 0.95695 0.0
H4643 H 0.99708 0.54843 0.9833 0.0
H4644 H 0.27125 0.22753 0.55144 0.0
H4645 H 0.27172 0.24099 0.58459 0.0
H4646 H 0.26888 0.18894 0.60404 0.0
H4647 H 0.26857 0.1754 0.5711 0.0
H4648 H 0.24569 0.23214 0.60959 0.0
H4649 H 0.3111 0.22074 0.63954 0.0
H4650 H 0.30439 0.21928 0.61402 0.0
H4651 H 0.29633 0.201 0.62703 0.0
C4652 C 0.27084 0.21896 0.56278 0.0
C4653 C 0.26994 0.20039 0.5586 0.0
C4654 C 0.27109 0.22668 0.5817 0.0
C4655 C 0.27057 0.216 0.59679 0.0
C4656 C 0.26964 0.19748 0.59266 0.0
H4657 H 0.27054 0.23023 0.71937 0.0
H4658 H 0.26994 0.21944 0.68551 0.0
C4659 C 0.26938 0.18976 0.57379 0.0
C4660 C 0.27041 0.22408 0.61679 0.0
H4661 H 0.29297 0.23019 0.66196 0.0
C4662 C 0.25607 0.23186 0.62106 0.0
C4663 C 0.28394 0.2236 0.63169 0.0
C4664 C 0.2999 0.21585 0.62787 0.0
C4665 C 0.2546 0.23868 0.63996 0.0
C4666 C 0.2681 0.23812 0.65492 0.0
C4667 C 0.28259 0.23059 0.65053 0.0
C4668 C 0.26731 0.2447 0.67532 0.0
C4669 C 0.23827 0.24576 0.6438 0.0
C4670 C 0.26583 0.26249 0.68093 0.0
C4671 C 0.26589 0.26863 0.70035 0.0
C4672 C 0.26785 0.2572 0.71448 0.0
C4673 C 0.26916 0.2394 0.70881 0.0
C4674 C 0.26883 0.23321 0.68945 0.0
H4675 H 0.22714 0.24049 0.63215 0.0
H4676 H 0.23389 0.24217 0.65765 0.0
H4677 H 0.2413 0.26062 0.64453 0.0
H4678 H 0.26507 0.27175 0.67038 0.0
H4679 H 0.26502 0.28247 0.70433 0.0
H4680 H 0.62029 0.5493 0.22779 0.0
H4681 H 0.60699 0.55166 0.19543 0.0
H4682 H 0.56621 0.50528 0.19828 0.0
H4683 H 0.57925 0.50301 0.23086 0.0
H4684 H 0.60239 0.52742 0.16343 0.0
H4685 H 0.53737 0.54059 0.17966 0.0
H4686 H 0.5558 0.54228 0.19811 0.0
H4687 H 0.54234 0.52068 0.18853 0.0
C4688 C 0.6084 0.53966 0.22163 0.0
C4689 C 0.60083 0.52595 0.23195 0.0
C4690 C 0.60083 0.54104 0.20309 0.0
C4691 C 0.58548 0.5288 0.19448 0.0
C4692 C 0.57783 0.51513 0.20477 0.0
H4693 H 0.53293 0.50169 0.07792 0.0
H4694 H 0.54432 0.50245 0.11195 0.0
C4695 C 0.58537 0.51377 0.22336 0.0
C4696 C 0.57798 0.52987 0.17443 0.0
H4697 H 0.54021 0.53322 0.14655 0.0
C4698 C 0.58883 0.52882 0.15978 0.0
C4699 C 0.56031 0.53182 0.16966 0.0
C4700 C 0.54832 0.53409 0.18484 0.0
C4701 C 0.58236 0.5292 0.14049 0.0
C4702 C 0.56462 0.53069 0.13573 0.0
C4703 C 0.5538 0.53198 0.15031 0.0
C4704 C 0.55704 0.53056 0.11554 0.0
C4705 C 0.59438 0.52774 0.12518 0.0
C4706 C 0.56034 0.54615 0.10643 0.0
C4707 C 0.55369 0.54575 0.08712 0.0
C4708 C 0.54373 0.52978 0.07669 0.0
C4709 C 0.54044 0.5142 0.08581 0.0
C4710 C 0.54691 0.51463 0.10517 0.0
H4711 H 0.60745 0.52531 0.13105 0.0
H4712 H 0.58805 0.51663 0.11372 0.0
H4713 H 0.59653 0.54037 0.11845 0.0
H4714 H 0.56828 0.55852 0.11418 0.0
H4715 H 0.55687 0.55769 0.08017 0.0
H4716 H 0.28491 0.91736 0.94022 0.0
H4717 H 0.27761 0.89514 0.91162 0.0
H4718 H 0.30071 0.85764 0.94256 0.0
H4719 H 0.30818 0.87983 0.97134 0.0
H4720 H 0.30527 0.87635 0.89481 0.0
H4721 H 0.24656 0.8329 0.91729 0.0
H4722 H 0.25362 0.85651 0.92617 0.0
H4723 H 0.26575 0.84063 0.93501 0.0
C4724 C 0.28858 0.90443 0.94086 0.0
C4725 C 0.29717 0.90023 0.95785 0.0
C4726 C 0.28431 0.89182 0.92463 0.0
C4727 C 0.28845 0.87488 0.92535 0.0
C4728 C 0.29733 0.87071 0.94208 0.0
H4729 H 0.29437 0.78958 0.8408 0.0
H4730 H 0.29641 0.80998 0.87041 0.0
C4731 C 0.30176 0.8834 0.95831 0.0
C4732 C 0.28424 0.86181 0.90822 0.0
H4733 H 0.2571 0.82219 0.88892 0.0
C4734 C 0.29474 0.86452 0.89341 0.0
C4735 C 0.27027 0.8467 0.90664 0.0
C4736 C 0.25826 0.84395 0.92203 0.0
C4737 C 0.29197 0.85198 0.87707 0.0
C4738 C 0.27848 0.83652 0.87586 0.0
C4739 C 0.26759 0.83406 0.89034 0.0
C4740 C 0.27559 0.82283 0.85941 0.0
C4741 C 0.30345 0.85516 0.86124 0.0
C4742 C 0.2629 0.82334 0.84403 0.0
C4743 C 0.26163 0.81176 0.82728 0.0
C4744 C 0.27311 0.79968 0.82586 0.0
C4745 C 0.28531 0.7987 0.84167 0.0
C4746 C 0.28652 0.81029 0.85846 0.0
H4747 H 0.31254 0.86853 0.86389 0.0
H4748 H 0.31149 0.84464 0.85998 0.0
H4749 H 0.29503 0.85413 0.84726 0.0
H4750 H 0.25449 0.83313 0.84474 0.0
H4751 H 0.25206 0.81268 0.81526 0.0
H4752 H 0.93585 0.5154 0.77018 0.0
H4753 H 0.94982 0.5126 0.74086 0.0
H4754 H 0.9037 0.52309 0.70783 0.0
H4755 H 0.88957 0.52602 0.73703 0.0
H4756 H 0.93268 0.48709 0.70544 0.0
H4757 H 0.94865 0.55969 0.69546 0.0
H4758 H 0.94492 0.55238 0.71855 0.0
H4759 H 0.92665 0.55002 0.70005 0.0
C4760 C 0.92878 0.51737 0.75674 0.0
C4761 C 0.91172 0.52111 0.75587 0.0
C4762 C 0.93671 0.51568 0.74007 0.0
C4763 C 0.92774 0.51783 0.72245 0.0
C4764 C 0.91079 0.52164 0.72147 0.0
H4765 H 0.96385 0.49896 0.6114 0.0
H4766 H 0.94714 0.50982 0.63602 0.0
C4767 C 0.90281 0.52331 0.73812 0.0
C4768 C 0.93612 0.51568 0.70503 0.0
H4769 H 0.95845 0.53935 0.6736 0.0
C4770 C 0.93819 0.49845 0.69833 0.0
C4771 C 0.94301 0.53061 0.69588 0.0
C4772 C 0.94082 0.54928 0.7028 0.0
C4773 C 0.9476 0.4958 0.68287 0.0
C4774 C 0.95529 0.51085 0.67435 0.0
C4775 C 0.9526 0.52799 0.68048 0.0
C4776 C 0.96688 0.50875 0.65966 0.0
C4777 C 0.94966 0.47704 0.67601 0.0
C4778 C 0.98368 0.50532 0.66506 0.0
C4779 C 0.9932 0.49906 0.65114 0.0
C4780 C 0.98597 0.49626 0.63173 0.0
C4781 C 0.96971 0.50106 0.6263 0.0
C4782 C 0.96018 0.50729 0.64026 0.0
H4783 H 0.94026 0.46662 0.68175 0.0
H4784 H 0.94753 0.47455 0.66006 0.0
H4785 H 0.96333 0.47556 0.68084 0.0
H4786 H 0.98891 0.50647 0.6801 0.0
H4787 H 0.00586 0.49577 0.65558 0.0
H4788 H 0.28954 0.18702 0.46221 0.0
H4789 H 0.29666 0.2022 0.43418 0.0
H4790 H 0.24448 0.21419 0.42729 0.0
H4791 H 0.23718 0.19902 0.4552 0.0
H4792 H 0.27633 0.19328 0.39518 0.0
H4793 H 0.28002 0.26334 0.42779 0.0
H4794 H 0.28219 0.2453 0.44201 0.0
H4795 H 0.26073 0.24737 0.43136 0.0
C4796 C 0.2796 0.193 0.45482 0.0
C4797 C 0.26278 0.19186 0.46099 0.0
C4798 C 0.2837 0.20161 0.43879 0.0
C4799 C 0.27115 0.20944 0.42881 0.0
C4800 C 0.25441 0.20842 0.43497 0.0
H4801 H 0.25822 0.26772 0.33297 0.0
H4802 H 0.25757 0.25367 0.36258 0.0
C4803 C 0.25025 0.19969 0.45089 0.0
C4804 C 0.27525 0.21824 0.41159 0.0
H4805 H 0.27922 0.25853 0.39391 0.0
C4806 C 0.27714 0.20757 0.39486 0.0
C4807 C 0.27631 0.23686 0.41133 0.0
C4808 C 0.27486 0.24897 0.42911 0.0
C4809 C 0.27914 0.21488 0.37751 0.0
C4810 C 0.27981 0.23352 0.3771 0.0
C4811 C 0.27861 0.24426 0.39412 0.0
C4812 C 0.28055 0.242 0.35902 0.0
C4813 C 0.27961 0.20235 0.35968 0.0
C4814 C 0.29374 0.24029 0.34711 0.0
C4815 C 0.29375 0.24786 0.32983 0.0
C4816 C 0.28099 0.25784 0.32459 0.0
C4817 C 0.26822 0.2601 0.33678 0.0
C4818 C 0.26788 0.2521 0.3537 0.0
H4819 H 0.27405 0.18815 0.36133 0.0
H4820 H 0.27207 0.206 0.34692 0.0
H4821 H 0.29354 0.20319 0.35695 0.0
H4822 H 0.30406 0.23315 0.35117 0.0
H4823 H 0.30391 0.24623 0.32077 0.0
H4824 H 0.30295 0.58869 0.52296 0.0
H4825 H 0.32983 0.5791 0.51595 0.0
H4826 H 0.35257 0.5944 0.57519 0.0
H4827 H 0.32549 0.60443 0.58258 0.0
H4828 H 0.37113 0.60778 0.53627 0.0
H4829 H 0.34901 0.53501 0.54292 0.0
H4830 H 0.33307 0.54696 0.53286 0.0
H4831 H 0.34195 0.55238 0.55774 0.0
C4832 C 0.31352 0.58987 0.53465 0.0
C4833 C 0.31221 0.59733 0.55337 0.0
C4834 C 0.32884 0.58447 0.53054 0.0
C4835 C 0.34291 0.58625 0.5451 0.0
C4836 C 0.34164 0.59316 0.56391 0.0
H4837 H 0.42666 0.53401 0.5178 0.0
H4838 H 0.40999 0.55136 0.53674 0.0
C4839 C 0.32625 0.59872 0.56807 0.0
C4840 C 0.3589 0.58081 0.54014 0.0
H4841 H 0.37405 0.54326 0.52695 0.0
C4842 C 0.37218 0.59377 0.53468 0.0
C4843 C 0.35967 0.56251 0.53785 0.0
C4844 C 0.34522 0.54833 0.54319 0.0
C4845 C 0.38623 0.58866 0.52625 0.0
C4846 C 0.38665 0.57023 0.52328 0.0
C4847 C 0.37366 0.55741 0.52946 0.0
C4848 C 0.39971 0.56349 0.51275 0.0
C4849 C 0.40016 0.60284 0.52011 0.0
C4850 C 0.39959 0.56498 0.49309 0.0
C4851 C 0.40934 0.55526 0.48218 0.0
C4852 C 0.41905 0.54384 0.49087 0.0
C4853 C 0.41953 0.54292 0.51073 0.0
C4854 C 0.41005 0.5528 0.52161 0.0
H4855 H 0.40061 0.6163 0.52799 0.0
H4856 H 0.41345 0.59947 0.52249 0.0
H4857 H 0.39698 0.60362 0.50454 0.0
H4858 H 0.3913 0.57291 0.48602 0.0
H4859 H 0.40898 0.55636 0.46696 0.0
H4860 H 0.82941 0.9333 0.52549 0.0
H4861 H 0.85768 0.95289 0.52224 0.0
H4862 H 0.88564 0.92008 0.55513 0.0
H4863 H 0.85759 0.90047 0.55844 0.0
H4864 H 0.88537 0.97254 0.55185 0.0
H4865 H 0.90839 0.92154 0.5045 0.0
H4866 H 0.88553 0.91952 0.50852 0.0
H4867 H 0.90131 0.91399 0.52628 0.0
C4868 C 0.84158 0.93026 0.53205 0.0
C4869 C 0.84122 0.91523 0.54214 0.0
C4870 C 0.8577 0.94149 0.5302 0.0
C4871 C 0.87375 0.93779 0.53822 0.0
C4872 C 0.87342 0.92302 0.54858 0.0
H4873 H 0.98488 0.98476 0.54916 0.0
H4874 H 0.95532 0.9678 0.55161 0.0
C4875 C 0.85734 0.91187 0.55053 0.0
C4876 C 0.89091 0.94925 0.53572 0.0
H4877 H 0.92959 0.94808 0.51696 0.0
C4878 C 0.89498 0.96727 0.54407 0.0
C4879 C 0.90341 0.94233 0.52554 0.0
C4880 C 0.89944 0.92333 0.51553 0.0
C4881 C 0.91145 0.97838 0.54297 0.0
C4882 C 0.92403 0.97132 0.53312 0.0
C4883 C 0.91988 0.95341 0.52455 0.0
C4884 C 0.94179 0.98217 0.53197 0.0
C4885 C 0.91558 0.99744 0.55279 0.0
C4886 C 0.94395 0.99583 0.52002 0.0
C4887 C 0.96089 0.00547 0.51839 0.0
C4888 C 0.97594 0.00171 0.52883 0.0
C4889 C 0.97362 0.98809 0.54094 0.0
C4890 C 0.95674 0.97836 0.54238 0.0
H4891 H 0.90528 1.00022 0.5618 0.0
H4892 H 0.92857 1.00018 0.56197 0.0
H4893 H 0.91654 0.00686 0.54177 0.0
H4894 H 0.93256 0.99879 0.51168 0.0
H4895 H 0.96219 0.01557 0.50863 0.0
H4896 H 0.90498 0.07658 0.23135 0.0
H4897 H 0.88758 0.09993 0.23564 0.0
H4898 H 0.86384 0.07393 0.28079 0.0
H4899 H 0.88111 0.05055 0.27667 0.0
H4900 H 0.84834 0.09549 0.23455 0.0
H4901 H 0.88723 0.12701 0.3045 0.0
H4902 H 0.89548 0.11234 0.28754 0.0
H4903 H 0.87956 0.10307 0.30248 0.0
C4904 C 0.89604 0.07581 0.24218 0.0
C4905 C 0.89448 0.06176 0.25375 0.0
C4906 C 0.88608 0.0891 0.24454 0.0
C4907 C 0.87457 0.08863 0.25859 0.0
C4908 C 0.87278 0.07453 0.26996 0.0
H4909 H 0.81056 0.15507 0.30854 0.0
H4910 H 0.82263 0.12958 0.29577 0.0
C4911 C 0.88264 0.06119 0.26756 0.0
C4912 C 0.86475 0.10313 0.26184 0.0
H4913 H 0.86092 0.13702 0.2954 0.0
C4914 C 0.85111 0.1047 0.24776 0.0
C4915 C 0.86856 0.11509 0.27906 0.0
C4916 C 0.88359 0.11447 0.29423 0.0
C4917 C 0.84075 0.11767 0.2508 0.0
C4918 C 0.84429 0.12927 0.26826 0.0
C4919 C 0.85817 0.12792 0.2821 0.0
C4920 C 0.83379 0.14292 0.27288 0.0
C4921 C 0.82579 0.11857 0.2357 0.0
C4922 C 0.83564 0.15857 0.2638 0.0
C4923 C 0.82864 0.17307 0.27101 0.0
C4924 C 0.82 0.17208 0.28749 0.0
C4925 C 0.81729 0.15606 0.29586 0.0
C4926 C 0.8241 0.14155 0.28856 0.0
H4927 H 0.82358 0.10733 0.22386 0.0
H4928 H 0.81338 0.11827 0.24229 0.0
H4929 H 0.82883 0.13143 0.2295 0.0
H4930 H 0.84336 0.15997 0.2519 0.0
H4931 H 0.83094 0.18541 0.26448 0.0
H4932 H 0.72044 0.08009 0.02226 0.0
H4933 H 0.68916 0.06888 0.01094 0.0
H4934 H 0.67547 0.09324 0.06366 0.0
H4935 H 0.70694 0.10477 0.07524 0.0
H4936 H 0.66377 0.04697 0.03323 0.0
H4937 H 0.64825 0.11206 0.01557 0.0
H4938 H 0.67039 0.10763 0.01688 0.0
H4939 H 0.66092 0.11222 0.03853 0.0
C4940 C 0.7108 0.08297 0.03155 0.0
C4941 C 0.71601 0.09334 0.04959 0.0
C4942 C 0.69303 0.07664 0.025 0.0
C4943 C 0.68034 0.08066 0.03638 0.0
C4944 C 0.68536 0.09041 0.05469 0.0
H4945 H 0.57727 0.06003 0.05125 0.0
H4946 H 0.60673 0.07421 0.04482 0.0
C4947 C 0.70321 0.09675 0.06132 0.0
C4948 C 0.66175 0.07405 0.02929 0.0
H4949 H 0.62386 0.08782 0.01518 0.0
C4950 C 0.65498 0.05572 0.02894 0.0
C4951 C 0.65075 0.08575 0.02361 0.0
C4952 C 0.6579 0.10552 0.0235 0.0
C4953 C 0.6369 0.04884 0.02443 0.0
C4954 C 0.62565 0.06071 0.01959 0.0
C4955 C 0.63268 0.07886 0.01868 0.0
C4956 C 0.60662 0.05535 0.01964 0.0
C4957 C 0.62992 0.02932 0.02644 0.0
C4958 C 0.59678 0.04065 0.00708 0.0
C4959 C 0.58032 0.03229 0.01115 0.0
C4960 C 0.57345 0.03917 0.02721 0.0
C4961 C 0.58256 0.05476 0.03875 0.0
C4962 C 0.59916 0.0629 0.03495 0.0
H4963 H 0.64033 0.02286 0.03307 0.0
H4964 H 0.61891 0.02801 0.0354 0.0
H4965 H 0.62479 0.0218 0.01203 0.0
H4966 H 0.60243 0.03482 0.99516 0.0
H4967 H 0.57349 0.01995 0.00244 0.0
H4968 H 0.20549 0.4881 0.21996 0.0
H4969 H 0.22162 0.46358 0.22268 0.0
H4970 H 0.19319 0.44734 0.26956 0.0
H4971 H 0.17667 0.47125 0.26641 0.0
H4972 H 0.24271 0.45832 0.25648 0.0
H4973 H 0.1866 0.40088 0.23288 0.0
H4974 H 0.18622 0.42336 0.22716 0.0
H4975 H 0.18155 0.41724 0.25036 0.0
C4976 C 0.20254 0.47899 0.23054 0.0
C4977 C 0.1897 0.48105 0.24272 0.0
C4978 C 0.21172 0.46516 0.2321 0.0
C4979 C 0.20816 0.45356 0.24596 0.0
C4980 C 0.19556 0.45588 0.25834 0.0
H4981 H 0.23502 0.38231 0.31456 0.0
H4982 H 0.2228 0.40153 0.29351 0.0
C4983 C 0.18616 0.46942 0.25654 0.0
C4984 C 0.21803 0.43936 0.24839 0.0
H4985 H 0.21107 0.39504 0.25387 0.0
C4986 C 0.23606 0.44435 0.25539 0.0
C4987 C 0.20911 0.42128 0.24677 0.0
C4988 C 0.18983 0.41534 0.2387 0.0
C4989 C 0.24507 0.43183 0.26274 0.0
C4990 C 0.23568 0.41403 0.2626 0.0
C4991 C 0.2181 0.40876 0.25394 0.0
C4992 C 0.24274 0.40159 0.27419 0.0
C4993 C 0.264 0.43807 0.27202 0.0
C4994 C 0.2578 0.39522 0.27 0.0
C4995 C 0.26501 0.38455 0.28222 0.0
C4996 C 0.25706 0.38001 0.29859 0.0
C4997 C 0.24158 0.3859 0.30227 0.0
C4998 C 0.23451 0.39669 0.29017 0.0
H4999 H 0.26848 0.45288 0.27314 0.0
H5000 H 0.26559 0.43393 0.28665 0.0
H5001 H 0.27279 0.43174 0.26332 0.0
H5002 H 0.26412 0.39876 0.25754 0.0
H5003 H 0.27705 0.38027 0.27913 0.0
H5004 H 0.21693 0.38264 0.02202 0.0
H5005 H 0.19379 0.40029 0.02129 0.0
H5006 H 0.23312 0.44867 0.04035 0.0
H5007 H 0.25642 0.43121 0.04065 0.0
H5008 H 0.18349 0.42233 0.04944 0.0
H5009 H 0.20805 0.46078 0.99149 0.0
H5010 H 0.21612 0.44124 0.99775 0.0
H5011 H 0.22415 0.46262 0.0122 0.0
C5012 C 0.22067 0.39704 0.02606 0.0
C5013 C 0.23853 0.40555 0.03121 0.0
C5014 C 0.20743 0.40709 0.02569 0.0
C5015 C 0.21179 0.4258 0.03049 0.0
C5016 C 0.22953 0.43428 0.0362 0.0
H5017 H 0.14592 0.50504 0.01781 0.0
H5018 H 0.16877 0.49032 0.03206 0.0
C5019 C 0.24281 0.42427 0.03643 0.0
C5020 C 0.19777 0.43642 0.02904 0.0
H5021 H 0.18389 0.4689 0.00523 0.0
C5022 C 0.1836 0.43258 0.03985 0.0
C5023 C 0.19795 0.44973 0.01646 0.0
C5024 C 0.21228 0.45376 0.00367 0.0
C5025 C 0.16952 0.44166 0.03831 0.0
C5026 C 0.16968 0.45483 0.02563 0.0
C5027 C 0.184 0.45894 0.01515 0.0
C5028 C 0.15442 0.46336 0.02139 0.0
C5029 C 0.15452 0.43704 0.05008 0.0
C5030 C 0.13866 0.45299 0.01121 0.0
C5031 C 0.12575 0.46136 0.00303 0.0
C5032 C 0.12842 0.48016 0.00505 0.0
C5033 C 0.14357 0.4905 0.01639 0.0
C5034 C 0.15658 0.48213 0.02444 0.0
H5035 H 0.15846 0.43023 0.06255 0.0
H5036 H 0.14988 0.44929 0.05539 0.0
H5037 H 0.14325 0.42781 0.04093 0.0
H5038 H 0.13693 0.43852 0.00838 0.0
H5039 H 0.11422 0.45323 0.99408 0.0
H5040 H 0.90024 0.94281 0.22943 0.0
H5041 H 0.88045 0.91459 0.23288 0.0
H5042 H 0.85317 0.94312 0.27189 0.0
H5043 H 0.87274 0.97143 0.26839 0.0
H5044 H 0.87557 0.89898 0.2668 0.0
H5045 H 0.81278 0.9133 0.23268 0.0
H5046 H 0.83421 0.92623 0.22991 0.0
H5047 H 0.82455 0.9302 0.2516 0.0
C5048 C 0.88994 0.94313 0.23862 0.0
C5049 C 0.88802 0.95941 0.24856 0.0
C5050 C 0.87867 0.92698 0.2406 0.0
C5051 C 0.86522 0.9268 0.25244 0.0
C5052 C 0.86325 0.94301 0.26238 0.0
H5053 H 0.78819 0.83955 0.28539 0.0
H5054 H 0.80658 0.86895 0.28286 0.0
C5055 C 0.87451 0.95917 0.26042 0.0
C5056 C 0.8536 0.90958 0.25486 0.0
H5057 H 0.81056 0.88689 0.24802 0.0
C5058 C 0.86136 0.89632 0.26266 0.0
C5059 C 0.83507 0.90617 0.24948 0.0
C5060 C 0.82613 0.91964 0.24029 0.0
C5061 C 0.85105 0.87977 0.26537 0.0
C5062 C 0.83255 0.87635 0.25991 0.0
C5063 C 0.82475 0.88964 0.25227 0.0
C5064 C 0.8212 0.85873 0.26127 0.0
C5065 C 0.85999 0.8661 0.27419 0.0
C5066 C 0.82316 0.8434 0.24971 0.0
C5067 C 0.81259 0.8267 0.25095 0.0
C5068 C 0.79985 0.82499 0.26382 0.0
C5069 C 0.79779 0.84043 0.27526 0.0
C5070 C 0.80831 0.85721 0.27389 0.0
H5071 H 0.87339 0.87231 0.28178 0.0
H5072 H 0.85193 0.85935 0.2845 0.0
H5073 H 0.86144 0.85567 0.26267 0.0
H5074 H 0.83286 0.84436 0.23969 0.0
H5075 H 0.81451 0.81511 0.24187 0.0
H5076 H 0.68017 0.09625 0.72138 0.0
H5077 H 0.69414 0.12783 0.73145 0.0
H5078 H 0.73437 0.11178 0.76892 0.0
H5079 H 0.72088 0.08037 0.75877 0.0
H5080 H 0.69897 0.1433 0.77149 0.0
H5081 H 0.76163 0.14885 0.73863 0.0
H5082 H 0.74255 0.1311 0.73048 0.0
H5083 H 0.7568 0.13005 0.75195 0.0
C5084 C 0.69222 0.09948 0.73142 0.0
C5085 C 0.69938 0.08597 0.73949 0.0
C5086 C 0.70005 0.11742 0.73722 0.0
C5087 C 0.71509 0.12184 0.75094 0.0
C5088 C 0.72277 0.10842 0.75823 0.0
H5089 H 0.78213 0.2232 0.78729 0.0
H5090 H 0.76559 0.19487 0.79539 0.0
C5091 C 0.71503 0.09055 0.75244 0.0
C5092 C 0.7224 0.1405 0.75846 0.0
H5093 H 0.75908 0.17314 0.76058 0.0
C5094 C 0.71214 0.14993 0.76924 0.0
C5095 C 0.73959 0.14873 0.75553 0.0
C5096 C 0.75075 0.13924 0.74338 0.0
C5097 C 0.71865 0.16782 0.77694 0.0
C5098 C 0.73569 0.17614 0.77367 0.0
C5099 C 0.74613 0.16645 0.76345 0.0
C5100 C 0.74179 0.19556 0.77671 0.0
C5101 C 0.70717 0.17783 0.78799 0.0
C5102 C 0.73335 0.20558 0.76448 0.0
C5103 C 0.74279 0.22149 0.75974 0.0
C5104 C 0.76053 0.22736 0.76739 0.0
C5105 C 0.76841 0.21847 0.78119 0.0
C5106 C 0.75892 0.20263 0.78609 0.0
H5107 H 0.69754 0.16852 0.79477 0.0
H5108 H 0.71529 0.18819 0.79929 0.0
H5109 H 0.69955 0.18468 0.77794 0.0
H5110 H 0.72026 0.2001 0.75683 0.0
H5111 H 0.73666 0.22855 0.7492 0.0
loop_
_geom_bond_atom_site_label_1
_geom_bond_atom_site_label_2
_geom_bond_distance
_geom_bond_site_symmetry_2
_ccdc_geom_bond_type
C0 O1 1.160 . S
C0 O7 1.185 . S
O1 C0 1.160 . S
O2 Zn3 1.899 . S
O2 C10 1.284 . S
Zn3 O2 1.899 . S
Zn3 O4 2.032 . S
Zn3 O7 2.086 . S
Zn3 O12 1.977 . S
O4 Zn3 2.032 . S
O4 C8 1.278 . S
C5 O6 1.203 . S
C5 O12 1.267 1_655 S
O6 C5 1.203 . S
O7 C0 1.185 . S
O7 Zn3 2.086 . S
C8 O4 1.278 . S
C8 O9 1.211 . S
O9 C8 1.211 . S
C10 O2 1.284 . S
C10 O11 1.273 . S
O11 C10 1.273 . S
O12 Zn3 1.977 . S
O12 C5 1.267 1_455 S
C13 O14 1.160 . S
C13 O20 1.185 . S
O14 C13 1.160 . S
O15 Zn16 1.899 . S
O15 C23 1.284 . S
Zn16 O15 1.899 . S
Zn16 O17 2.032 . S
Zn16 O20 2.086 1_455 S
Zn16 O25 1.977 . S
O17 Zn16 2.032 . S
O17 C21 1.278 . S
C18 O19 1.203 . S
C18 O25 1.267 . S
O19 C18 1.203 . S
O20 C13 1.185 . S
O20 Zn16 2.086 1_655 S
C21 O17 1.278 . S
C21 O22 1.211 . S
O22 C21 1.211 . S
C23 O15 1.284 . S
C23 O24 1.273 . S
O24 C23 1.273 . S
O25 Zn16 1.977 . S
O25 C18 1.267 . S
C26 O27 1.160 . S
C26 O33 1.185 . S
O27 C26 1.160 . S
O28 Zn29 1.899 . S
O28 C36 1.284 . S
Zn29 O28 1.899 . S
Zn29 O30 2.032 . S
Zn29 O33 2.086 . S
Zn29 O38 1.977 . S
O30 Zn29 2.032 . S
O30 C34 1.278 . S
C31 O32 1.203 . S
C31 O38 1.267 . S
O32 C31 1.203 . S
O33 C26 1.185 . S
O33 Zn29 2.086 . S
C34 O30 1.278 . S
C34 O35 1.211 . S
O35 C34 1.211 . S
C36 O28 1.284 . S
C36 O37 1.273 . S
O37 C36 1.273 . S
O38 Zn29 1.977 . S
O38 C31 1.267 . S
C39 O40 1.160 . S
C39 O46 1.185 . S
O40 C39 1.160 . S
O41 Zn42 1.899 . S
O41 C49 1.284 . S
Zn42 O41 1.899 . S
Zn42 O43 2.032 . S
Zn42 O46 2.086 . S
Zn42 O51 1.977 . S
O43 Zn42 2.032 . S
O43 C47 1.278 . S
C44 O45 1.203 . S
C44 O51 1.267 . S
O45 C44 1.203 . S
O46 C39 1.185 . S
O46 Zn42 2.086 . S
C47 O43 1.278 . S
C47 O48 1.211 . S
O48 C47 1.211 . S
C49 O41 1.284 . S
C49 O50 1.273 . S
O50 C49 1.273 . S
O51 Zn42 1.977 . S
O51 C44 1.267 . S
C52 O53 1.160 . S
C52 O59 1.185 . S
O53 C52 1.160 . S
O54 Zn55 1.899 . S
O54 C62 1.284 . S
Zn55 O54 1.899 . S
Zn55 O56 2.032 . S
Zn55 O59 2.086 . S
Zn55 O64 1.977 . S
O56 Zn55 2.032 . S
O56 C60 1.278 . S
C57 O58 1.203 . S
C57 O64 1.267 . S
O58 C57 1.203 . S
O59 C52 1.185 . S
O59 Zn55 2.086 . S
C60 O56 1.278 . S
C60 O61 1.211 . S
O61 C60 1.211 . S
C62 O54 1.284 . S
C62 O63 1.273 . S
O63 C62 1.273 . S
O64 Zn55 1.977 . S
O64 C57 1.267 . S
C65 O66 1.160 . S
C65 O72 1.185 . S
O66 C65 1.160 . S
O67 Zn68 1.899 . S
O67 C75 1.284 . S
Zn68 O67 1.899 . S
Zn68 O69 2.032 . S
Zn68 O72 2.086 . S
Zn68 O77 1.977 . S
O69 Zn68 2.032 . S
O69 C73 1.278 . S
C70 O71 1.203 . S
C70 O77 1.267 . S
O71 C70 1.203 . S
O72 C65 1.185 . S
O72 Zn68 2.086 . S
C73 O69 1.278 . S
C73 O74 1.211 . S
O74 C73 1.211 . S
C75 O67 1.284 . S
C75 O76 1.273 . S
O76 C75 1.273 . S
O77 Zn68 1.977 . S
O77 C70 1.267 . S
C78 O79 1.160 . S
C78 O85 1.185 . S
O79 C78 1.160 . S
O80 Zn81 1.899 . S
O80 C88 1.284 . S
Zn81 O80 1.899 . S
Zn81 O82 2.032 . S
Zn81 O85 2.086 . S
Zn81 O90 1.977 . S
O82 Zn81 2.032 . S
O82 C86 1.278 . S
C83 O84 1.203 . S
C83 O90 1.267 . S
O84 C83 1.203 . S
O85 C78 1.185 . S
O85 Zn81 2.086 . S
C86 O82 1.278 . S
C86 O87 1.211 . S
O87 C86 1.211 . S
C88 O80 1.284 . S
C88 O89 1.273 . S
O89 C88 1.273 . S
O90 Zn81 1.977 . S
O90 C83 1.267 . S
C91 O92 1.160 . S
C91 O98 1.185 . S
O92 C91 1.160 . S
O93 Zn94 1.900 . S
O93 C101 1.285 1_455 S
Zn94 O93 1.900 . S
Zn94 O95 2.032 . S
Zn94 O98 2.086 . S
Zn94 O103 1.977 1_455 S
O95 Zn94 2.032 . S
O95 C99 1.278 . S
C96 O97 1.203 . S
C96 O103 1.267 . S
O97 C96 1.203 . S
O98 C91 1.185 . S
O98 Zn94 2.086 . S
C99 O95 1.278 . S
C99 O100 1.211 1_455 S
O100 C99 1.211 1_655 S
C101 O93 1.285 1_655 S
C101 O102 1.273 . S
O102 C101 1.273 . S
O103 Zn94 1.977 1_655 S
O103 C96 1.267 . S
C104 O105 1.160 . S
C104 O111 1.185 . S
O105 C104 1.160 . S
O106 Zn107 1.899 . S
O106 C114 1.284 . S
Zn107 O106 1.899 . S
Zn107 O108 2.032 . S
Zn107 O111 2.086 . S
Zn107 O116 1.977 1_545 S
O108 Zn107 2.032 . S
O108 C112 1.278 . S
C109 O110 1.203 . S
C109 O116 1.267 . S
O110 C109 1.203 . S
O111 C104 1.185 . S
O111 Zn107 2.086 . S
C112 O108 1.278 . S
C112 O113 1.211 1_545 S
O113 C112 1.211 1_565 S
C114 O106 1.284 . S
C114 O115 1.273 . S
O115 C114 1.273 . S
O116 Zn107 1.977 1_565 S
O116 C109 1.267 . S
C117 O118 1.160 . S
C117 O124 1.185 . S
O118 C117 1.160 . S
O119 Zn120 1.899 . S
O119 C127 1.284 . S
Zn120 O119 1.899 . S
Zn120 O121 2.032 . S
Zn120 O124 2.086 . S
Zn120 O129 1.977 . S
O121 Zn120 2.032 . S
O121 C125 1.278 . S
C122 O123 1.203 . S
C122 O129 1.267 . S
O123 C122 1.203 . S
O124 C117 1.185 . S
O124 Zn120 2.086 . S
C125 O121 1.278 . S
C125 O126 1.211 . S
O126 C125 1.211 . S
C127 O119 1.284 . S
C127 O128 1.273 . S
O128 C127 1.273 . S
O129 Zn120 1.977 . S
O129 C122 1.267 . S
C130 O131 1.160 . S
C130 O137 1.185 1_565 S
O131 C130 1.160 . S
O132 Zn133 1.899 . S
O132 C140 1.284 . S
Zn133 O132 1.899 . S
Zn133 O134 2.032 . S
Zn133 O137 2.086 . S
Zn133 O142 1.977 . S
O134 Zn133 2.032 . S
O134 C138 1.278 . S
C135 O136 1.203 . S
C135 O142 1.267 . S
O136 C135 1.203 . S
O137 C130 1.185 1_545 S
O137 Zn133 2.086 . S
C138 O134 1.278 . S
C138 O139 1.211 . S
O139 C138 1.211 . S
C140 O132 1.284 . S
C140 O141 1.273 . S
O141 C140 1.273 . S
O142 Zn133 1.977 . S
O142 C135 1.267 . S
C143 O144 1.160 . S
C143 O150 1.185 1_554 S
O144 C143 1.160 . S
O145 Zn146 1.899 . S
O145 C153 1.284 . S
Zn146 O145 1.899 . S
Zn146 O147 2.032 1_554 S
Zn146 O150 2.086 1_554 S
Zn146 O155 1.981 . S
O147 Zn146 2.032 1_556 S
O147 C151 1.278 . S
C148 O149 1.203 . S
C148 O155 1.271 . S
O149 C148 1.203 . S
O150 C143 1.185 1_556 S
O150 Zn146 2.086 1_556 S
C151 O147 1.278 . S
C151 O152 1.211 . S
O152 C151 1.211 . S
C153 O145 1.284 . S
C153 O154 1.273 . S
O154 C153 1.273 . S
O155 Zn146 1.981 . S
O155 C148 1.271 . S
C156 O157 1.160 . S
C156 O163 1.185 . S
O157 C156 1.160 . S
O158 Zn159 1.899 . S
O158 C166 1.284 . S
Zn159 O158 1.899 . S
Zn159 O160 2.032 . S
Zn159 O163 2.086 . S
Zn159 O168 1.977 . S
O160 Zn159 2.032 . S
O160 C164 1.278 . S
C161 O162 1.203 . S
C161 O168 1.267 . S
O162 C161 1.203 . S
O163 C156 1.185 . S
O163 Zn159 2.086 . S
C164 O160 1.278 . S
C164 O165 1.211 . S
O165 C164 1.211 . S
C166 O158 1.284 . S
C166 O167 1.273 . S
O167 C166 1.273 . S
O168 Zn159 1.977 . S
O168 C161 1.267 . S
C169 O170 1.160 . S
C169 O176 1.185 . S
O170 C169 1.160 . S
O171 Zn172 1.899 . S
O171 C179 1.284 . S
Zn172 O171 1.899 . S
Zn172 O173 2.032 . S
Zn172 O176 2.086 . S
Zn172 O181 1.977 . S
O173 Zn172 2.032 . S
O173 C177 1.278 . S
C174 O175 1.203 . S
C174 O181 1.267 . S
O175 C174 1.203 . S
O176 C169 1.185 . S
O176 Zn172 2.086 . S
C177 O173 1.278 . S
C177 O178 1.211 . S
O178 C177 1.211 . S
C179 O171 1.284 . S
C179 O180 1.273 . S
O180 C179 1.273 . S
O181 Zn172 1.977 . S
O181 C174 1.267 . S
C182 O183 1.160 . S
C182 O189 1.185 . S
O183 C182 1.160 . S
O184 Zn185 1.899 . S
O184 C192 1.284 . S
Zn185 O184 1.899 . S
Zn185 O186 2.032 . S
Zn185 O189 2.086 . S
Zn185 O194 1.977 . S
O186 Zn185 2.032 . S
O186 C190 1.278 . S
C187 O188 1.203 . S
C187 O194 1.267 . S
O188 C187 1.203 . S
O189 C182 1.185 . S
O189 Zn185 2.086 . S
C190 O186 1.278 . S
C190 O191 1.211 . S
O191 C190 1.211 . S
C192 O184 1.284 . S
C192 O193 1.273 . S
O193 C192 1.273 . S
O194 Zn185 1.977 . S
O194 C187 1.267 . S
C195 O196 1.160 . S
C195 O202 1.185 . S
O196 C195 1.160 . S
O197 Zn198 1.899 . S
O197 C205 1.284 . S
Zn198 O197 1.899 . S
Zn198 O199 2.032 . S
Zn198 O202 2.086 . S
Zn198 O207 1.977 . S
O199 Zn198 2.032 . S
O199 C203 1.278 . S
C200 O201 1.203 . S
C200 O207 1.267 . S
O201 C200 1.203 . S
O202 C195 1.185 . S
O202 Zn198 2.086 . S
C203 O199 1.278 . S
C203 O204 1.211 . S
O204 C203 1.211 . S
C205 O197 1.284 . S
C205 O206 1.273 . S
O206 C205 1.273 . S
O207 Zn198 1.977 . S
O207 C200 1.267 . S
C208 O209 1.160 . S
C208 O215 1.185 . S
O209 C208 1.160 . S
O210 Zn211 1.899 . S
O210 C218 1.284 . S
Zn211 O210 1.899 . S
Zn211 O212 2.032 . S
Zn211 O215 2.086 . S
Zn211 O220 1.977 1_545 S
O212 Zn211 2.032 . S
O212 C216 1.278 . S
C213 O214 1.203 . S
C213 O220 1.267 . S
O214 C213 1.203 . S
O215 C208 1.185 . S
O215 Zn211 2.086 . S
C216 O212 1.278 . S
C216 O217 1.211 1_545 S
O217 C216 1.211 1_565 S
C218 O210 1.284 . S
C218 O219 1.273 . S
O219 C218 1.273 . S
O220 Zn211 1.977 1_565 S
O220 C213 1.267 . S
C221 O222 1.160 . S
C221 O228 1.185 . S
O222 C221 1.160 . S
O223 Zn224 1.899 . S
O223 C231 1.284 . S
Zn224 O223 1.899 . S
Zn224 O225 2.032 . S
Zn224 O228 2.086 . S
Zn224 O233 1.977 . S
O225 Zn224 2.032 . S
O225 C229 1.278 . S
C226 O227 1.203 . S
C226 O233 1.267 . S
O227 C226 1.203 . S
O228 C221 1.185 . S
O228 Zn224 2.086 . S
C229 O225 1.278 . S
C229 O230 1.211 . S
O230 C229 1.211 . S
C231 O223 1.284 . S
C231 O232 1.273 . S
O232 C231 1.273 . S
O233 Zn224 1.977 . S
O233 C226 1.267 . S
C234 O235 1.160 . S
C234 O241 1.185 . S
O235 C234 1.160 . S
O236 Zn237 1.899 . S
O236 C244 1.284 . S
Zn237 O236 1.899 . S
Zn237 O238 2.032 . S
Zn237 O241 2.086 . S
Zn237 O246 1.977 . S
O238 Zn237 2.032 . S
O238 C242 1.278 . S
C239 O240 1.203 . S
C239 O246 1.267 . S
O240 C239 1.203 . S
O241 C234 1.185 . S
O241 Zn237 2.086 . S
C242 O238 1.278 . S
C242 O243 1.211 . S
O243 C242 1.211 . S
C244 O236 1.284 . S
C244 O245 1.273 . S
O245 C244 1.273 . S
O246 Zn237 1.977 . S
O246 C239 1.267 . S
C247 O248 1.153 1_545 S
C247 O254 1.185 . S
O248 C247 1.153 1_565 S
O249 Zn250 1.899 . S
O249 C257 1.284 . S
Zn250 O249 1.899 . S
Zn250 O251 2.032 . S
Zn250 O254 2.086 . S
Zn250 O259 1.977 . S
O251 Zn250 2.032 . S
O251 C255 1.278 . S
C252 O253 1.203 . S
C252 O259 1.267 . S
O253 C252 1.203 . S
O254 C247 1.185 . S
O254 Zn250 2.086 . S
C255 O251 1.278 . S
C255 O256 1.211 . S
O256 C255 1.211 . S
C257 O249 1.284 . S
C257 O258 1.273 . S
O258 C257 1.273 . S
O259 Zn250 1.977 . S
O259 C252 1.267 . S
C260 O261 1.160 . S
C260 O267 1.185 . S
O261 C260 1.160 . S
O262 Zn263 1.899 . S
O262 C270 1.284 . S
Zn263 O262 1.899 . S
Zn263 O264 2.032 1_554 S
Zn263 O267 2.086 . S
Zn263 O272 1.977 . S
O264 Zn263 2.032 1_556 S
O264 C268 1.278 . S
C265 O266 1.203 . S
C265 O272 1.267 . S
O266 C265 1.203 . S
O267 C260 1.185 . S
O267 Zn263 2.086 . S
C268 O264 1.278 . S
C268 O269 1.211 . S
O269 C268 1.211 . S
C270 O262 1.284 . S
C270 O271 1.273 . S
O271 C270 1.273 . S
O272 Zn263 1.977 . S
O272 C265 1.267 . S
C273 O274 1.160 . S
C273 O280 1.185 . S
O274 C273 1.160 . S
O275 Zn276 1.899 . S
O275 C283 1.284 . S
Zn276 O275 1.899 . S
Zn276 O277 2.032 . S
Zn276 O280 2.086 . S
Zn276 O285 1.977 . S
O277 Zn276 2.032 . S
O277 C281 1.278 . S
C278 O279 1.203 . S
C278 O285 1.267 . S
O279 C278 1.203 . S
O280 C273 1.185 . S
O280 Zn276 2.086 . S
C281 O277 1.278 . S
C281 O282 1.211 . S
O282 C281 1.211 . S
C283 O275 1.284 . S
C283 O284 1.273 . S
O284 C283 1.273 . S
O285 Zn276 1.977 . S
O285 C278 1.267 . S
C286 O287 1.160 . S
C286 O293 1.185 . S
O287 C286 1.160 . S
O288 Zn289 1.899 . S
O288 C296 1.284 . S
Zn289 O288 1.899 . S
Zn289 O290 2.032 . S
Zn289 O293 2.086 . S
Zn289 O298 1.977 . S
O290 Zn289 2.032 . S
O290 C294 1.278 . S
C291 O292 1.203 . S
C291 O298 1.267 . S
O292 C291 1.203 . S
O293 C286 1.185 . S
O293 Zn289 2.086 . S
C294 O290 1.278 . S
C294 O295 1.211 . S
O295 C294 1.211 . S
C296 O288 1.284 . S
C296 O297 1.273 . S
O297 C296 1.273 . S
O298 Zn289 1.977 . S
O298 C291 1.267 . S
C299 O300 1.160 . S
C299 O306 1.185 . S
O300 C299 1.160 . S
O301 Zn302 1.899 . S
O301 C309 1.284 . S
Zn302 O301 1.899 . S
Zn302 O303 2.032 . S
Zn302 O306 2.086 . S
Zn302 O311 1.977 . S
O303 Zn302 2.032 . S
O303 C307 1.278 . S
C304 O305 1.203 . S
C304 O311 1.267 . S
O305 C304 1.203 . S
O306 C299 1.185 . S
O306 Zn302 2.086 . S
C307 O303 1.278 . S
C307 O308 1.211 . S
O308 C307 1.211 . S
C309 O301 1.284 . S
C309 O310 1.273 . S
O310 C309 1.273 . S
O311 Zn302 1.977 . S
O311 C304 1.267 . S
C312 C314 1.447 . S
C312 C316 1.415 . S
C312 N318 1.369 . S
C313 C314 1.411 1_554 S
C313 C315 1.417 1_554 S
C313 C325 1.422 . S
C314 C312 1.447 . S
C314 C313 1.411 1_556 S
C314 N324 1.345 1_556 S
C315 C313 1.417 1_556 S
C315 C317 1.329 . S
C315 H334 0.930 . S
C316 C312 1.415 . S
C316 C317 1.437 . S
C316 C320 1.413 . S
C317 C315 1.329 . S
C317 C316 1.437 . S
C317 H339 0.929 . S
N318 C312 1.369 . S
N318 C319 1.338 . S
N318 Gd323 2.622 1_566 S
C319 N318 1.338 . S
C319 C321 1.378 . S
C319 H331 0.929 . S
C320 C316 1.413 . S
C320 C321 1.348 . S
C320 H336 0.931 . S
C321 C319 1.378 . S
C321 C320 1.348 . S
C321 H337 0.930 . S
Gd322 N342 2.622 . S
Gd322 N349 2.570 . S
Gd322 O356 2.353 1_545 S
Gd322 O357 2.468 . S
Gd322 O358 2.427 . S
Gd322 O360 2.388 . S
Gd322 O361 2.386 . S
Gd322 O365 2.277 1_554 S
Gd322 C375 2.805 . S
Gd323 N318 2.622 1_544 S
Gd323 N324 2.570 1_545 S
Gd323 O355 2.386 1_645 S
Gd323 O359 2.307 1_655 S
Gd323 O362 2.353 1_655 S
Gd323 O363 2.468 . S
Gd323 O364 2.427 1_554 S
Gd323 O366 2.388 1_654 S
Gd323 C387 2.805 1_554 S
N324 C314 1.345 1_554 S
N324 Gd323 2.570 1_565 S
N324 C326 1.343 . S
C325 C313 1.422 . S
C325 C327 1.321 . S
C325 H333 0.931 . S
C326 N324 1.343 . S
C326 C327 1.390 . S
C326 H328 0.931 . S
C327 C325 1.321 . S
C327 C326 1.390 . S
C327 H329 0.930 . S
H328 C326 0.931 . S
H329 C327 0.930 . S
H330 C353 0.931 1_556 S
H331 C319 0.929 . S
H332 C354 0.989 . S
H333 C325 0.931 . S
H334 C315 0.930 . S
H335 C344 0.929 . S
H336 C320 0.931 . S
H337 C321 0.930 . S
H338 C376 0.930 . S
H339 C317 0.929 . S
H340 C345 0.931 . S
H341 C346 0.930 . S
N342 Gd322 2.622 . S
N342 C343 1.369 . S
N342 C344 1.338 . S
C343 N342 1.369 . S
C343 C347 1.415 . S
C343 C350 1.422 . S
C344 H335 0.929 . S
C344 N342 1.338 . S
C344 C346 1.378 . S
C345 H340 0.931 . S
C345 C346 1.348 . S
C345 C347 1.413 . S
C346 H341 0.930 . S
C346 C344 1.378 . S
C346 C345 1.348 . S
C347 C343 1.415 . S
C347 C345 1.413 . S
C347 C377 1.437 . S
H348 C377 0.929 . S
N349 Gd322 2.570 . S
N349 C350 1.359 . S
N349 C353 1.343 . S
C350 C343 1.422 . S
C350 N349 1.359 . S
C350 C352 1.421 . S
C351 C352 1.422 . S
C351 C354 1.291 1_554 S
C351 H378 0.931 . S
C352 C350 1.421 . S
C352 C351 1.422 . S
C352 C376 1.417 . S
C353 H330 0.931 1_554 S
C353 N349 1.343 . S
C353 C354 1.365 1_554 S
C354 H332 0.989 . S
C354 C351 1.291 1_556 S
C354 C353 1.365 1_556 S
O355 Gd323 2.386 1_465 S
O355 C367 1.265 . S
O356 Gd322 2.353 1_565 S
O356 C367 1.242 . S
O357 Gd322 2.468 . S
O357 C375 1.263 . S
O358 Gd322 2.427 . S
O358 C375 1.252 . S
O359 Gd323 2.307 1_455 S
O359 C368 1.261 . S
O360 Gd322 2.388 . S
O360 C368 1.252 . S
O361 Gd322 2.386 . S
O361 C379 1.265 . S
O362 Gd323 2.353 1_455 S
O362 C379 1.242 . S
O363 Gd323 2.468 . S
O363 C387 1.263 1_554 S
O364 Gd323 2.427 1_556 S
O364 C387 1.252 . S
O365 Gd322 2.277 1_556 S
O365 C380 1.288 . S
O366 Gd323 2.388 1_456 S
O366 C380 1.252 . S
C367 O355 1.265 . S
C367 O356 1.242 . S
C368 O359 1.261 . S
C368 O360 1.252 . S
C369 C372 1.394 . S
C369 C374 1.370 . S
C369 C375 1.500 . S
C370 C373 1.383 . S
C370 C374 1.395 1_565 S
C371 C372 1.396 . S
C371 C373 1.365 1_545 S
C371 H388 0.929 . S
C372 C369 1.394 . S
C372 C371 1.396 . S
C372 H389 0.930 . S
C373 C370 1.383 . S
C373 C371 1.365 1_565 S
C373 H390 0.931 . S
C374 C369 1.370 . S
C374 C370 1.395 1_545 S
C374 H391 0.930 . S
C375 Gd322 2.805 . S
C375 O357 1.263 . S
C375 O358 1.252 . S
C375 C369 1.500 . S
C376 H338 0.930 . S
C376 C352 1.417 . S
C376 C377 1.329 . S
C377 C347 1.437 . S
C377 H348 0.929 . S
C377 C376 1.329 . S
H378 C351 0.931 . S
C379 O361 1.265 . S
C379 O362 1.242 . S
C380 O365 1.288 . S
C380 O366 1.252 . S
C381 C384 1.394 . S
C381 C386 1.370 1_556 S
C381 C387 1.500 . S
C382 C385 1.383 1_554 S
C382 C386 1.395 . S
C383 C384 1.396 . S
C383 C385 1.365 . S
C383 H392 0.929 . S
C384 C381 1.394 . S
C384 C383 1.396 . S
C384 H393 0.930 . S
C385 C382 1.383 1_556 S
C385 C383 1.365 . S
C385 H394 0.931 . S
C386 C381 1.370 1_554 S
C386 C382 1.395 . S
C386 H395 0.930 . S
C387 Gd323 2.805 1_556 S
C387 O363 1.263 1_556 S
C387 O364 1.252 . S
C387 C381 1.500 . S
H388 C371 0.929 . S
H389 C372 0.930 . S
H390 C373 0.931 . S
H391 C374 0.930 . S
H392 C383 0.929 . S
H393 C384 0.930 . S
H394 C385 0.931 . S
H395 C386 0.930 . S
C396 C398 1.422 . S
C396 C400 1.415 . S
C396 N402 1.369 . S
C397 C398 1.421 . S
C397 C399 1.417 . S
C397 C409 1.422 . S
C398 C396 1.422 . S
C398 C397 1.421 . S
C398 N408 1.359 . S
C399 C397 1.417 . S
C399 C401 1.329 . S
C399 H418 0.930 . S
C400 C396 1.415 . S
C400 C401 1.437 . S
C400 C404 1.413 . S
C401 C399 1.329 . S
C401 C400 1.437 . S
C401 H423 0.929 . S
N402 C396 1.369 . S
N402 C403 1.338 . S
N402 Gd407 2.622 . S
C403 N402 1.338 . S
C403 C405 1.378 . S
C403 H415 0.929 . S
C404 C400 1.413 . S
C404 C405 1.348 . S
C404 H420 0.931 . S
C405 C403 1.378 . S
C405 C404 1.348 . S
C405 H421 0.930 . S
Gd406 N426 2.622 . S
Gd406 N433 2.570 . S
Gd406 O440 2.353 . S
Gd406 O441 2.468 . S
Gd406 O442 2.427 . S
Gd406 O444 2.388 . S
Gd406 O445 2.386 . S
Gd406 O449 2.307 . S
Gd406 C459 2.805 . S
Gd407 N402 2.622 . S
Gd407 N408 2.570 . S
Gd407 O439 2.386 . S
Gd407 O443 2.307 . S
Gd407 O446 2.353 . S
Gd407 O447 2.468 . S
Gd407 O448 2.427 . S
Gd407 O450 2.388 . S
Gd407 C471 2.805 . S
N408 C398 1.359 . S
N408 Gd407 2.570 . S
N408 C410 1.343 . S
C409 C397 1.422 . S
C409 C411 1.321 . S
C409 H417 0.931 . S
C410 N408 1.343 . S
C410 C411 1.390 . S
C410 H412 0.931 . S
C411 C409 1.321 . S
C411 C410 1.390 . S
C411 H413 0.930 . S
H412 C410 0.931 . S
H413 C411 0.930 . S
H414 C437 0.931 . S
H415 C403 0.929 . S
H416 C438 0.930 . S
H417 C409 0.931 . S
H418 C399 0.930 . S
H419 C428 0.929 . S
H420 C404 0.931 . S
H421 C405 0.930 . S
H422 C460 0.930 . S
H423 C401 0.929 . S
H424 C429 0.931 . S
H425 C430 0.930 . S
N426 Gd406 2.622 . S
N426 C427 1.369 . S
N426 C428 1.338 . S
C427 N426 1.369 . S
C427 C431 1.415 . S
C427 C434 1.422 . S
C428 H419 0.929 . S
C428 N426 1.338 . S
C428 C430 1.378 . S
C429 H424 0.931 . S
C429 C430 1.348 . S
C429 C431 1.413 . S
C430 H425 0.930 . S
C430 C428 1.378 . S
C430 C429 1.348 . S
C431 C427 1.415 . S
C431 C429 1.413 . S
C431 C461 1.437 . S
H432 C461 0.929 . S
N433 Gd406 2.570 . S
N433 C434 1.359 . S
N433 C437 1.343 . S
C434 C427 1.422 . S
C434 N433 1.359 . S
C434 C436 1.421 . S
C435 C436 1.422 . S
C435 C438 1.321 . S
C435 H462 0.931 . S
C436 C434 1.421 . S
C436 C435 1.422 . S
C436 C460 1.417 . S
C437 H414 0.931 . S
C437 N433 1.343 . S
C437 C438 1.390 . S
C438 H416 0.930 . S
C438 C435 1.321 . S
C438 C437 1.390 . S
O439 Gd407 2.386 . S
O439 C451 1.265 . S
O440 Gd406 2.353 . S
O440 C451 1.242 . S
O441 Gd406 2.468 . S
O441 C459 1.263 . S
O442 Gd406 2.427 . S
O442 C459 1.252 . S
O443 Gd407 2.307 . S
O443 C452 1.261 . S
O444 Gd406 2.388 . S
O444 C452 1.252 . S
O445 Gd406 2.386 . S
O445 C463 1.265 . S
O446 Gd407 2.353 . S
O446 C463 1.242 . S
O447 Gd407 2.468 . S
O447 C471 1.263 . S
O448 Gd407 2.427 . S
O448 C471 1.252 . S
O449 Gd406 2.307 . S
O449 C464 1.261 . S
O450 Gd407 2.388 . S
O450 C464 1.252 . S
C451 O439 1.265 . S
C451 O440 1.242 . S
C452 O443 1.261 . S
C452 O444 1.252 . S
C453 C456 1.394 . S
C453 C458 1.370 . S
C453 C459 1.500 . S
C454 C457 1.383 . S
C454 C458 1.395 . S
C455 C456 1.396 . S
C455 C457 1.365 . S
C455 H472 0.929 . S
C456 C453 1.394 . S
C456 C455 1.396 . S
C456 H473 0.930 . S
C457 C454 1.383 . S
C457 C455 1.365 . S
C457 H474 0.931 . S
C458 C453 1.370 . S
C458 C454 1.395 . S
C458 H475 0.930 . S
C459 Gd406 2.805 . S
C459 O441 1.263 . S
C459 O442 1.252 . S
C459 C453 1.500 . S
C460 H422 0.930 . S
C460 C436 1.417 . S
C460 C461 1.329 . S
C461 C431 1.437 . S
C461 H432 0.929 . S
C461 C460 1.329 . S
H462 C435 0.931 . S
C463 O445 1.265 . S
C463 O446 1.242 . S
C464 O449 1.261 . S
C464 O450 1.252 . S
C465 C468 1.394 . S
C465 C470 1.370 . S
C465 C471 1.500 . S
C466 C469 1.383 . S
C466 C470 1.395 . S
C467 C468 1.396 . S
C467 C469 1.365 . S
C467 H476 0.929 . S
C468 C465 1.394 . S
C468 C467 1.396 . S
C468 H477 0.930 . S
C469 C466 1.383 . S
C469 C467 1.365 . S
C469 H478 0.931 . S
C470 C465 1.370 . S
C470 C466 1.395 . S
C470 H479 0.930 . S
C471 Gd407 2.805 . S
C471 O447 1.263 . S
C471 O448 1.252 . S
C471 C465 1.500 . S
H472 C455 0.929 . S
H473 C456 0.930 . S
H474 C457 0.931 . S
H475 C458 0.930 . S
H476 C467 0.929 . S
H477 C468 0.930 . S
H478 C469 0.931 . S
H479 C470 0.930 . S
C480 C482 1.422 . S
C480 C484 1.415 . S
C480 N486 1.369 . S
C481 C482 1.421 . S
C481 C483 1.417 . S
C481 C493 1.422 . S
C482 C480 1.422 . S
C482 C481 1.421 . S
C482 N492 1.359 . S
C483 C481 1.417 . S
C483 C485 1.329 . S
C483 H502 0.930 . S
C484 C480 1.415 . S
C484 C485 1.437 . S
C484 C488 1.413 . S
C485 C483 1.329 . S
C485 C484 1.437 . S
C485 H507 0.929 . S
N486 C480 1.369 . S
N486 C487 1.338 . S
N486 Gd491 2.622 . S
C487 N486 1.338 . S
C487 C489 1.378 . S
C487 H499 0.929 . S
C488 C484 1.413 . S
C488 C489 1.348 . S
C488 H504 0.931 . S
C489 C487 1.378 . S
C489 C488 1.348 . S
C489 H505 0.930 . S
Gd490 N510 2.636 . S
Gd490 N517 2.570 1_545 S
Gd490 O524 2.353 . S
Gd490 O525 2.468 . S
Gd490 O526 2.427 . S
Gd490 O528 2.388 . S
Gd490 O529 2.386 1_545 S
Gd490 O533 2.307 . S
Gd490 C543 2.805 . S
Gd491 N486 2.622 . S
Gd491 N492 2.570 . S
Gd491 O523 2.386 . S
Gd491 O527 2.307 . S
Gd491 O530 2.353 1_545 S
Gd491 O531 2.468 . S
Gd491 O532 2.427 . S
Gd491 O534 2.388 . S
Gd491 C555 2.805 . S
N492 C482 1.359 . S
N492 Gd491 2.570 . S
N492 C494 1.343 . S
C493 C481 1.422 . S
C493 C495 1.321 . S
C493 H501 0.931 . S
C494 N492 1.343 . S
C494 C495 1.390 . S
C494 H496 0.931 . S
C495 C493 1.321 . S
C495 C494 1.390 . S
C495 H497 0.930 . S
H496 C494 0.931 . S
H497 C495 0.930 . S
H498 C521 0.931 1_545 S
H499 C487 0.929 . S
H500 C522 0.930 . S
H501 C493 0.931 . S
H502 C483 0.930 . S
H503 C512 0.929 . S
H504 C488 0.931 . S
H505 C489 0.930 . S
H506 C544 0.930 . S
H507 C485 0.929 . S
H508 C513 0.931 . S
H509 C514 0.930 . S
N510 Gd490 2.636 . S
N510 C511 1.354 1_545 S
N510 C512 1.337 . S
C511 N510 1.354 1_565 S
C511 C515 1.415 . S
C511 C518 1.422 . S
C512 H503 0.929 . S
C512 N510 1.337 . S
C512 C514 1.378 1_545 S
C513 H508 0.931 . S
C513 C514 1.348 . S
C513 C515 1.413 . S
C514 H509 0.930 . S
C514 C512 1.378 1_565 S
C514 C513 1.348 . S
C515 C511 1.415 . S
C515 C513 1.413 . S
C515 C545 1.437 . S
H516 C545 0.929 . S
N517 Gd490 2.570 1_565 S
N517 C518 1.359 . S
N517 C521 1.343 . S
C518 C511 1.422 . S
C518 N517 1.359 . S
C518 C520 1.421 . S
C519 C520 1.422 . S
C519 C522 1.321 . S
C519 H546 0.931 . S
C520 C518 1.421 . S
C520 C519 1.422 . S
C520 C544 1.417 . S
C521 H498 0.931 1_565 S
C521 N517 1.343 . S
C521 C522 1.390 . S
C522 H500 0.930 . S
C522 C519 1.321 . S
C522 C521 1.390 . S
O523 Gd491 2.386 . S
O523 C535 1.265 . S
O524 Gd490 2.353 . S
O524 C535 1.242 . S
O525 Gd490 2.468 . S
O525 C543 1.263 . S
O526 Gd490 2.427 . S
O526 C543 1.252 . S
O527 Gd491 2.307 . S
O527 C536 1.261 . S
O528 Gd490 2.388 . S
O528 C536 1.252 . S
O529 Gd490 2.386 1_565 S
O529 C547 1.265 . S
O530 Gd491 2.353 1_565 S
O530 C547 1.242 . S
O531 Gd491 2.468 . S
O531 C555 1.263 . S
O532 Gd491 2.427 . S
O532 C555 1.252 . S
O533 Gd490 2.307 . S
O533 C548 1.261 . S
O534 Gd491 2.388 . S
O534 C548 1.252 . S
C535 O523 1.265 . S
C535 O524 1.242 . S
C536 O527 1.261 . S
C536 O528 1.252 . S
C537 C540 1.394 . S
C537 C542 1.370 . S
C537 C543 1.500 . S
C538 C541 1.383 . S
C538 C542 1.395 . S
C539 C540 1.396 . S
C539 C541 1.365 . S
C539 H556 0.929 . S
C540 C537 1.394 . S
C540 C539 1.396 . S
C540 H557 0.930 . S
C541 C538 1.383 . S
C541 C539 1.365 . S
C541 H558 0.931 . S
C542 C537 1.370 . S
C542 C538 1.395 . S
C542 H559 0.930 . S
C543 Gd490 2.805 . S
C543 O525 1.263 . S
C543 O526 1.252 . S
C543 C537 1.500 . S
C544 H506 0.930 . S
C544 C520 1.417 . S
C544 C545 1.329 . S
C545 C515 1.437 . S
C545 H516 0.929 . S
C545 C544 1.329 . S
H546 C519 0.931 . S
C547 O529 1.265 . S
C547 O530 1.242 . S
C548 O533 1.261 . S
C548 O534 1.252 . S
C549 C552 1.394 . S
C549 C554 1.370 . S
C549 C555 1.500 1_565 S
C550 C553 1.383 . S
C550 C554 1.395 . S
C551 C552 1.396 . S
C551 C553 1.365 . S
C551 H560 0.929 . S
C552 C549 1.394 . S
C552 C551 1.396 . S
C552 H561 0.951 . S
C553 C550 1.383 . S
C553 C551 1.365 . S
C553 H562 0.931 . S
C554 C549 1.370 . S
C554 C550 1.395 . S
C554 H563 0.930 . S
C555 Gd491 2.805 . S
C555 O531 1.263 . S
C555 O532 1.252 . S
C555 C549 1.500 1_545 S
H556 C539 0.929 . S
H557 C540 0.930 . S
H558 C541 0.931 . S
H559 C542 0.930 . S
H560 C551 0.929 . S
H561 C552 0.951 . S
H562 C553 0.931 . S
H563 C554 0.930 . S
C564 C566 1.422 . S
C564 C568 1.415 . S
C564 N570 1.369 . S
C565 C566 1.421 . S
C565 C567 1.417 . S
C565 C577 1.422 . S
C566 C564 1.422 . S
C566 C565 1.421 . S
C566 N576 1.359 . S
C567 C565 1.417 . S
C567 C569 1.329 . S
C567 H586 0.930 . S
C568 C564 1.415 . S
C568 C569 1.437 . S
C568 C572 1.413 . S
C569 C567 1.329 . S
C569 C568 1.437 . S
C569 H591 0.929 . S
N570 C564 1.369 . S
N570 C571 1.338 . S
N570 Gd575 2.622 . S
C571 N570 1.338 . S
C571 C573 1.378 . S
C571 H583 0.929 . S
C572 C568 1.413 . S
C572 C573 1.348 . S
C572 H588 0.931 . S
C573 C571 1.378 . S
C573 C572 1.348 . S
C573 H589 0.930 . S
Gd574 N594 2.622 . S
Gd574 N601 2.570 . S
Gd574 O608 2.353 . S
Gd574 O609 2.468 . S
Gd574 O610 2.427 . S
Gd574 O612 2.388 . S
Gd574 O613 2.386 . S
Gd574 O617 2.307 . S
Gd574 C627 2.805 . S
Gd575 N570 2.622 . S
Gd575 N576 2.570 . S
Gd575 O607 2.386 . S
Gd575 O611 2.307 . S
Gd575 O614 2.353 . S
Gd575 O615 2.468 . S
Gd575 O616 2.427 . S
Gd575 O618 2.388 . S
Gd575 C639 2.805 . S
N576 C566 1.359 . S
N576 Gd575 2.570 . S
N576 C578 1.343 . S
C577 C565 1.422 . S
C577 C579 1.321 . S
C577 H585 0.931 . S
C578 N576 1.343 . S
C578 C579 1.390 . S
C578 H580 0.931 . S
C579 C577 1.321 . S
C579 C578 1.390 . S
C579 H581 0.930 . S
H580 C578 0.931 . S
H581 C579 0.930 . S
H582 C605 0.931 . S
H583 C571 0.929 . S
H584 C606 0.930 . S
H585 C577 0.931 . S
H586 C567 0.930 . S
H587 C596 0.929 . S
H588 C572 0.931 . S
H589 C573 0.930 . S
H590 C628 0.930 . S
H591 C569 0.929 . S
H592 C597 0.931 . S
H593 C598 0.930 . S
N594 Gd574 2.622 . S
N594 C595 1.369 . S
N594 C596 1.338 . S
C595 N594 1.369 . S
C595 C599 1.415 . S
C595 C602 1.422 . S
C596 H587 0.929 . S
C596 N594 1.338 . S
C596 C598 1.378 . S
C597 H592 0.931 . S
C597 C598 1.348 . S
C597 C599 1.413 . S
C598 H593 0.930 . S
C598 C596 1.378 . S
C598 C597 1.348 . S
C599 C595 1.415 . S
C599 C597 1.413 . S
C599 C629 1.437 . S
H600 C629 0.929 . S
N601 Gd574 2.570 . S
N601 C602 1.359 . S
N601 C605 1.343 . S
C602 C595 1.422 . S
C602 N601 1.359 . S
C602 C604 1.421 . S
C603 C604 1.422 . S
C603 C606 1.321 . S
C603 H630 0.931 . S
C604 C602 1.421 . S
C604 C603 1.422 . S
C604 C628 1.417 . S
C605 H582 0.931 . S
C605 N601 1.343 . S
C605 C606 1.390 . S
C606 H584 0.930 . S
C606 C603 1.321 . S
C606 C605 1.390 . S
O607 Gd575 2.386 . S
O607 C619 1.265 . S
O608 Gd574 2.353 . S
O608 C619 1.242 . S
O609 Gd574 2.468 . S
O609 C627 1.263 . S
O610 Gd574 2.427 . S
O610 C627 1.252 . S
O611 Gd575 2.307 . S
O611 C620 1.261 . S
O612 Gd574 2.388 . S
O612 C620 1.252 . S
O613 Gd574 2.386 . S
O613 C631 1.265 . S
O614 Gd575 2.353 . S
O614 C631 1.242 . S
O615 Gd575 2.468 . S
O615 C639 1.263 . S
O616 Gd575 2.427 . S
O616 C639 1.252 . S
O617 Gd574 2.307 . S
O617 C632 1.261 . S
O618 Gd575 2.388 . S
O618 C632 1.252 . S
C619 O607 1.265 . S
C619 O608 1.242 . S
C620 O611 1.261 . S
C620 O612 1.252 . S
C621 C624 1.394 . S
C621 C626 1.370 . S
C621 C627 1.500 . S
C622 C625 1.383 . S
C622 C626 1.395 . S
C623 C624 1.396 . S
C623 C625 1.365 . S
C623 H640 0.929 . S
C624 C621 1.394 . S
C624 C623 1.396 . S
C624 H641 0.930 . S
C625 C622 1.383 . S
C625 C623 1.365 . S
C625 H642 0.931 . S
C626 C621 1.370 . S
C626 C622 1.395 . S
C626 H643 0.930 . S
C627 Gd574 2.805 . S
C627 O609 1.263 . S
C627 O610 1.252 . S
C627 C621 1.500 . S
C628 H590 0.930 . S
C628 C604 1.417 . S
C628 C629 1.329 . S
C629 C599 1.437 . S
C629 H600 0.929 . S
C629 C628 1.329 . S
H630 C603 0.931 . S
C631 O613 1.265 . S
C631 O614 1.242 . S
C632 O617 1.261 . S
C632 O618 1.252 . S
C633 C636 1.394 . S
C633 C638 1.370 . S
C633 C639 1.500 . S
C634 C637 1.383 . S
C634 C638 1.395 . S
C635 C636 1.396 . S
C635 C637 1.365 . S
C635 H644 0.929 . S
C636 C633 1.394 . S
C636 C635 1.396 . S
C636 H645 0.930 . S
C637 C634 1.383 . S
C637 C635 1.365 . S
C637 H646 0.931 . S
C638 C633 1.370 . S
C638 C634 1.395 . S
C638 H647 0.930 . S
C639 Gd575 2.805 . S
C639 O615 1.263 . S
C639 O616 1.252 . S
C639 C633 1.500 . S
H640 C623 0.929 . S
H641 C624 0.930 . S
H642 C625 0.931 . S
H643 C626 0.930 . S
H644 C635 0.929 . S
H645 C636 0.930 . S
H646 C637 0.931 . S
H647 C638 0.930 . S
C648 C650 1.422 . S
C648 C652 1.415 1_455 S
C648 N654 1.369 1_455 S
C649 C650 1.421 . S
C649 C651 1.417 . S
C649 C661 1.422 . S
C650 C648 1.422 . S
C650 C649 1.421 . S
C650 N660 1.359 . S
C651 C649 1.417 . S
C651 C653 1.329 . S
C651 H670 0.930 . S
C652 C648 1.415 1_655 S
C652 C653 1.437 1_655 S
C652 C656 1.413 . S
C653 C651 1.329 . S
C653 C652 1.437 1_455 S
C653 H675 0.929 1_455 S
N654 C648 1.369 1_655 S
N654 C655 1.338 . S
N654 Gd659 2.622 1_655 S
C655 N654 1.338 . S
C655 C657 1.378 . S
C655 H667 0.929 . S
C656 C652 1.413 . S
C656 C657 1.348 . S
C656 H672 0.931 . S
C657 C655 1.378 . S
C657 C656 1.348 . S
C657 H673 0.930 . S
Gd658 N678 2.626 . S
Gd658 N685 2.577 . S
Gd658 O692 2.349 1_565 S
Gd658 O693 2.478 . S
Gd658 O694 2.436 . S
Gd658 O696 2.380 1_565 S
Gd658 O697 2.379 1_565 S
Gd658 O701 2.303 1_565 S
Gd658 C711 2.816 . S
Gd659 N654 2.622 1_455 S
Gd659 N660 2.570 . S
Gd659 O691 2.386 . S
Gd659 O695 2.307 . S
Gd659 O698 2.353 . S
Gd659 O699 2.468 . S
Gd659 O700 2.427 1_455 S
Gd659 O702 2.388 1_455 S
Gd659 C723 2.805 . S
N660 C650 1.359 . S
N660 Gd659 2.570 . S
N660 C662 1.343 . S
C661 C649 1.422 . S
C661 C663 1.321 . S
C661 H669 0.931 . S
C662 N660 1.343 . S
C662 C663 1.390 . S
C662 H664 0.931 . S
C663 C661 1.321 . S
C663 C662 1.390 . S
C663 H665 0.930 . S
H664 C662 0.931 . S
H665 C663 0.930 . S
H666 C689 0.931 . S
H667 C655 0.929 . S
H668 C690 0.930 . S
H669 C661 0.931 . S
H670 C651 0.930 . S
H671 C680 0.929 1_545 S
H672 C656 0.931 . S
H673 C657 0.930 . S
H674 C712 0.930 . S
H675 C653 0.929 1_655 S
H676 C681 0.931 . S
H677 C682 0.930 . S
N678 Gd658 2.626 . S
N678 C679 1.369 . S
N678 C680 1.338 . S
C679 N678 1.369 . S
C679 C683 1.415 . S
C679 C686 1.422 . S
C680 H671 0.929 1_565 S
C680 N678 1.338 . S
C680 C682 1.378 . S
C681 H676 0.931 . S
C681 C682 1.348 . S
C681 C683 1.413 . S
C682 H677 0.930 . S
C682 C680 1.378 . S
C682 C681 1.348 . S
C683 C679 1.415 . S
C683 C681 1.413 . S
C683 C713 1.437 . S
H684 C713 0.929 . S
N685 Gd658 2.577 . S
N685 C686 1.359 . S
N685 C689 1.343 1_455 S
C686 C679 1.422 . S
C686 N685 1.359 . S
C686 C688 1.421 . S
C687 C688 1.422 1_655 S
C687 C690 1.321 . S
C687 H714 0.931 . S
C688 C686 1.421 . S
C688 C687 1.422 1_455 S
C688 C712 1.417 . S
C689 H666 0.931 . S
C689 N685 1.343 1_655 S
C689 C690 1.390 . S
C690 H668 0.930 . S
C690 C687 1.321 . S
C690 C689 1.390 . S
O691 Gd659 2.386 . S
O691 C703 1.265 . S
O692 Gd658 2.349 1_545 S
O692 C703 1.242 . S
O693 Gd658 2.478 . S
O693 C711 1.263 . S
O694 Gd658 2.436 . S
O694 C711 1.252 . S
O695 Gd659 2.307 . S
O695 C704 1.261 . S
O696 Gd658 2.380 1_545 S
O696 C704 1.252 . S
O697 Gd658 2.379 1_545 S
O697 C715 1.265 . S
O698 Gd659 2.353 . S
O698 C715 1.242 . S
O699 Gd659 2.468 . S
O699 C723 1.263 . S
O700 Gd659 2.427 1_655 S
O700 C723 1.252 1_655 S
O701 Gd658 2.303 1_545 S
O701 C716 1.261 1_455 S
O702 Gd659 2.388 1_655 S
O702 C716 1.252 . S
C703 O691 1.265 . S
C703 O692 1.242 . S
C704 O695 1.261 . S
C704 O696 1.252 . S
C705 C708 1.394 . S
C705 C710 1.370 . S
C705 C711 1.500 . S
C706 C709 1.383 . S
C706 C710 1.395 . S
C707 C708 1.396 . S
C707 C709 1.365 . S
C707 H724 0.929 . S
C708 C705 1.394 . S
C708 C707 1.396 . S
C708 H725 0.930 . S
C709 C706 1.383 . S
C709 C707 1.365 . S
C709 H726 0.931 . S
C710 C705 1.370 . S
C710 C706 1.395 . S
C710 H727 0.930 . S
C711 Gd658 2.816 . S
C711 O693 1.263 . S
C711 O694 1.252 . S
C711 C705 1.500 . S
C712 H674 0.930 . S
C712 C688 1.417 . S
C712 C713 1.329 . S
C713 C683 1.437 . S
C713 H684 0.929 . S
C713 C712 1.329 . S
H714 C687 0.931 . S
C715 O697 1.265 . S
C715 O698 1.242 . S
C716 O701 1.261 1_655 S
C716 O702 1.252 . S
C717 C720 1.394 1_455 S
C717 C722 1.370 . S
C717 C723 1.500 . S
C718 C721 1.383 1_455 S
C718 C722 1.395 . S
C719 C720 1.396 . S
C719 C721 1.365 . S
C719 H728 0.929 . S
C720 C717 1.394 1_655 S
C720 C719 1.396 . S
C720 H729 0.930 . S
C721 C718 1.383 1_655 S
C721 C719 1.365 . S
C721 H730 0.931 . S
C722 C717 1.370 . S
C722 C718 1.395 . S
C722 H731 0.930 . S
C723 Gd659 2.805 . S
C723 O699 1.263 . S
C723 O700 1.252 1_455 S
C723 C717 1.500 . S
H724 C707 0.929 . S
H725 C708 0.930 . S
H726 C709 0.931 . S
H727 C710 0.930 . S
H728 C719 0.929 . S
H729 C720 0.930 . S
H730 C721 0.931 . S
H731 C722 0.930 . S
C732 C734 1.422 . S
C732 C736 1.415 . S
C732 N738 1.369 . S
C733 C734 1.421 . S
C733 C735 1.417 . S
C733 C745 1.422 . S
C734 C732 1.422 . S
C734 C733 1.421 . S
C734 N744 1.359 . S
C735 C733 1.417 . S
C735 C737 1.329 . S
C735 H754 0.930 . S
C736 C732 1.415 . S
C736 C737 1.437 . S
C736 C740 1.413 . S
C737 C735 1.329 . S
C737 C736 1.437 . S
C737 H759 0.929 . S
N738 C732 1.369 . S
N738 C739 1.338 . S
N738 Gd743 2.622 . S
C739 N738 1.338 . S
C739 C741 1.378 . S
C739 H751 0.929 . S
C740 C736 1.413 . S
C740 C741 1.348 . S
C740 H756 0.931 . S
C741 C739 1.378 . S
C741 C740 1.348 . S
C741 H757 0.930 . S
Gd742 N762 2.622 . S
Gd742 N769 2.570 . S
Gd742 O776 2.353 . S
Gd742 O777 2.468 . S
Gd742 O778 2.427 . S
Gd742 O780 2.388 . S
Gd742 O781 2.386 . S
Gd742 O785 2.307 . S
Gd742 C795 2.805 . S
Gd743 N738 2.622 . S
Gd743 N744 2.570 . S
Gd743 O775 2.386 . S
Gd743 O779 2.307 . S
Gd743 O782 2.353 . S
Gd743 O783 2.468 . S
Gd743 O784 2.427 . S
Gd743 O786 2.388 . S
Gd743 C807 2.805 . S
N744 C734 1.359 . S
N744 Gd743 2.570 . S
N744 C746 1.343 . S
C745 C733 1.422 . S
C745 C747 1.321 . S
C745 H753 0.931 . S
C746 N744 1.343 . S
C746 C747 1.390 . S
C746 H748 0.931 . S
C747 C745 1.321 . S
C747 C746 1.390 . S
C747 H749 0.930 . S
H748 C746 0.931 . S
H749 C747 0.930 . S
H750 C773 0.931 . S
H751 C739 0.929 . S
H752 C774 0.930 . S
H753 C745 0.931 . S
H754 C735 0.930 . S
H755 C764 0.929 . S
H756 C740 0.931 . S
H757 C741 0.930 . S
H758 C796 0.930 . S
H759 C737 0.929 . S
H760 C765 0.931 . S
H761 C766 0.930 . S
N762 Gd742 2.622 . S
N762 C763 1.369 . S
N762 C764 1.338 . S
C763 N762 1.369 . S
C763 C767 1.415 . S
C763 C770 1.422 . S
C764 H755 0.929 . S
C764 N762 1.338 . S
C764 C766 1.378 . S
C765 H760 0.931 . S
C765 C766 1.348 . S
C765 C767 1.413 . S
C766 H761 0.930 . S
C766 C764 1.378 . S
C766 C765 1.348 . S
C767 C763 1.415 . S
C767 C765 1.413 . S
C767 C797 1.437 . S
H768 C797 0.929 . S
N769 Gd742 2.570 . S
N769 C770 1.359 . S
N769 C773 1.343 . S
C770 C763 1.422 . S
C770 N769 1.359 . S
C770 C772 1.421 . S
C771 C772 1.422 . S
C771 C774 1.321 . S
C771 H798 0.931 . S
C772 C770 1.421 . S
C772 C771 1.422 . S
C772 C796 1.417 . S
C773 H750 0.931 . S
C773 N769 1.343 . S
C773 C774 1.390 . S
C774 H752 0.930 . S
C774 C771 1.321 . S
C774 C773 1.390 . S
O775 Gd743 2.386 . S
O775 C787 1.265 . S
O776 Gd742 2.353 . S
O776 C787 1.242 . S
O777 Gd742 2.468 . S
O777 C795 1.263 . S
O778 Gd742 2.427 . S
O778 C795 1.252 . S
O779 Gd743 2.307 . S
O779 C788 1.261 . S
O780 Gd742 2.388 . S
O780 C788 1.252 . S
O781 Gd742 2.386 . S
O781 C799 1.265 . S
O782 Gd743 2.353 . S
O782 C799 1.242 . S
O783 Gd743 2.468 . S
O783 C807 1.263 . S
O784 Gd743 2.427 . S
O784 C807 1.252 . S
O785 Gd742 2.307 . S
O785 C800 1.261 . S
O786 Gd743 2.388 . S
O786 C800 1.252 . S
C787 O775 1.265 . S
C787 O776 1.242 . S
C788 O779 1.261 . S
C788 O780 1.252 . S
C789 C792 1.394 . S
C789 C794 1.370 . S
C789 C795 1.500 . S
C790 C793 1.383 . S
C790 C794 1.395 . S
C791 C792 1.396 . S
C791 C793 1.365 . S
C791 H808 0.929 . S
C792 C789 1.394 . S
C792 C791 1.396 . S
C792 H809 0.930 . S
C793 C790 1.383 . S
C793 C791 1.365 . S
C793 H810 0.931 . S
C794 C789 1.370 . S
C794 C790 1.395 . S
C794 H811 0.930 . S
C795 Gd742 2.805 . S
C795 O777 1.263 . S
C795 O778 1.252 . S
C795 C789 1.500 . S
C796 H758 0.930 . S
C796 C772 1.417 . S
C796 C797 1.329 . S
C797 C767 1.437 . S
C797 H768 0.929 . S
C797 C796 1.329 . S
H798 C771 0.931 . S
C799 O781 1.265 . S
C799 O782 1.242 . S
C800 O785 1.261 . S
C800 O786 1.252 . S
C801 C804 1.394 . S
C801 C806 1.370 . S
C801 C807 1.500 . S
C802 C805 1.383 . S
C802 C806 1.395 . S
C803 C804 1.396 . S
C803 C805 1.365 . S
C803 H812 0.929 . S
C804 C801 1.394 . S
C804 C803 1.396 . S
C804 H813 0.930 . S
C805 C802 1.383 . S
C805 C803 1.365 . S
C805 H814 0.931 . S
C806 C801 1.370 . S
C806 C802 1.395 . S
C806 H815 0.930 . S
C807 Gd743 2.805 . S
C807 O783 1.263 . S
C807 O784 1.252 . S
C807 C801 1.500 . S
H808 C791 0.929 . S
H809 C792 0.930 . S
H810 C793 0.931 . S
H811 C794 0.930 . S
H812 C803 0.929 . S
H813 C804 0.930 . S
H814 C805 0.931 . S
H815 C806 0.930 . S
C816 C818 1.422 1_565 S
C816 C820 1.415 . S
C816 N822 1.369 . S
C817 C818 1.421 . S
C817 C819 1.417 . S
C817 C829 1.422 . S
C818 C816 1.422 1_545 S
C818 C817 1.421 . S
C818 N828 1.359 . S
C819 C817 1.417 . S
C819 C821 1.329 1_545 S
C819 H838 0.930 . S
C820 C816 1.415 . S
C820 C821 1.437 . S
C820 C824 1.413 . S
C821 C819 1.329 1_565 S
C821 C820 1.437 . S
C821 H843 0.929 . S
N822 C816 1.369 . S
N822 C823 1.338 . S
N822 Gd827 2.622 1_565 S
C823 N822 1.338 . S
C823 C825 1.378 . S
C823 H835 0.929 . S
C824 C820 1.413 . S
C824 C825 1.348 . S
C824 H840 0.931 . S
C825 C823 1.378 . S
C825 C824 1.348 . S
C825 H841 0.930 . S
Gd826 N846 2.622 . S
Gd826 N853 2.570 . S
Gd826 O860 2.353 1_556 S
Gd826 O861 2.468 . S
Gd826 O862 2.427 . S
Gd826 O864 2.388 1_556 S
Gd826 O865 2.386 1_556 S
Gd826 O869 2.307 1_556 S
Gd826 C879 2.805 . S
Gd827 N822 2.622 1_545 S
Gd827 N828 2.570 . S
Gd827 O859 2.386 . S
Gd827 O863 2.307 . S
Gd827 O866 2.353 . S
Gd827 O867 2.468 . S
Gd827 O868 2.427 1_545 S
Gd827 O870 2.388 1_545 S
Gd827 C891 2.805 1_545 S
N828 C818 1.359 . S
N828 Gd827 2.570 . S
N828 C830 1.343 . S
C829 C817 1.422 . S
C829 C831 1.321 . S
C829 H837 0.931 . S
C830 N828 1.343 . S
C830 C831 1.390 . S
C830 H832 0.931 . S
C831 C829 1.321 . S
C831 C830 1.390 . S
C831 H833 0.930 . S
H832 C830 0.931 . S
H833 C831 0.930 . S
H834 C857 0.931 1_565 S
H835 C823 0.929 . S
H836 C858 0.930 . S
H837 C829 0.931 . S
H838 C819 0.930 . S
H839 C848 0.929 1_554 S
H840 C824 0.931 . S
H841 C825 0.930 . S
H842 C880 0.930 . S
H843 C821 0.929 . S
H844 C849 0.931 . S
H845 C850 0.930 . S
N846 Gd826 2.622 . S
N846 C847 1.369 . S
N846 C848 1.338 . S
C847 N846 1.369 . S
C847 C851 1.415 . S
C847 C854 1.422 . S
C848 H839 0.929 1_556 S
C848 N846 1.338 . S
C848 C850 1.378 . S
C849 H844 0.931 . S
C849 C850 1.348 . S
C849 C851 1.413 . S
C850 H845 0.930 . S
C850 C848 1.378 . S
C850 C849 1.348 . S
C851 C847 1.415 . S
C851 C849 1.413 . S
C851 C881 1.437 . S
H852 C881 0.929 . S
N853 Gd826 2.570 . S
N853 C854 1.359 . S
N853 C857 1.343 . S
C854 C847 1.422 . S
C854 N853 1.359 . S
C854 C856 1.421 . S
C855 C856 1.422 . S
C855 C858 1.321 1_545 S
C855 H882 0.931 1_545 S
C856 C854 1.421 . S
C856 C855 1.422 . S
C856 C880 1.417 . S
C857 H834 0.931 1_545 S
C857 N853 1.343 . S
C857 C858 1.390 1_545 S
C858 H836 0.930 . S
C858 C855 1.321 1_565 S
C858 C857 1.390 1_565 S
O859 Gd827 2.386 . S
O859 C871 1.265 . S
O860 Gd826 2.353 1_554 S
O860 C871 1.242 . S
O861 Gd826 2.468 . S
O861 C879 1.263 . S
O862 Gd826 2.427 . S
O862 C879 1.252 . S
O863 Gd827 2.307 . S
O863 C872 1.261 . S
O864 Gd826 2.388 1_554 S
O864 C872 1.252 . S
O865 Gd826 2.386 1_554 S
O865 C883 1.265 . S
O866 Gd827 2.353 . S
O866 C883 1.242 . S
O867 Gd827 2.468 . S
O867 C891 1.263 1_545 S
O868 Gd827 2.427 1_565 S
O868 C891 1.252 . S
O869 Gd826 2.307 1_554 S
O869 C884 1.261 1_545 S
O870 Gd827 2.388 1_565 S
O870 C884 1.252 . S
C871 O859 1.265 . S
C871 O860 1.242 . S
C872 O863 1.261 . S
C872 O864 1.252 . S
C873 C876 1.394 . S
C873 C878 1.370 . S
C873 C879 1.500 . S
C874 C877 1.383 . S
C874 C878 1.395 . S
C875 C876 1.396 . S
C875 C877 1.365 . S
C875 H892 0.929 . S
C876 C873 1.394 . S
C876 C875 1.396 . S
C876 H893 0.930 . S
C877 C874 1.383 . S
C877 C875 1.365 . S
C877 H894 0.931 . S
C878 C873 1.370 . S
C878 C874 1.395 . S
C878 H895 0.930 . S
C879 Gd826 2.805 . S
C879 O861 1.263 . S
C879 O862 1.252 . S
C879 C873 1.500 . S
C880 H842 0.930 . S
C880 C856 1.417 . S
C880 C881 1.329 . S
C881 C851 1.437 . S
C881 H852 0.929 . S
C881 C880 1.329 . S
H882 C855 0.931 1_565 S
C883 O865 1.265 . S
C883 O866 1.242 . S
C884 O869 1.261 1_565 S
C884 O870 1.252 . S
C885 C888 1.394 . S
C885 C890 1.370 1_565 S
C885 C891 1.500 . S
C886 C889 1.345 1_545 S
C886 C890 1.406 . S
C887 C888 1.396 . S
C887 C889 1.365 . S
C887 H896 0.929 . S
C888 C885 1.394 . S
C888 C887 1.396 . S
C888 H897 0.930 . S
C889 C886 1.345 1_565 S
C889 C887 1.365 . S
C889 H898 0.931 . S
C890 C885 1.370 1_545 S
C890 C886 1.406 . S
C890 H899 0.930 . S
C891 Gd827 2.805 1_565 S
C891 O867 1.263 1_565 S
C891 O868 1.252 . S
C891 C885 1.500 . S
H892 C875 0.929 . S
H893 C876 0.930 . S
H894 C877 0.931 . S
H895 C878 0.930 . S
H896 C887 0.929 . S
H897 C888 0.930 . S
H898 C889 0.931 . S
H899 C890 0.930 . S
C900 C902 1.422 . S
C900 C904 1.415 . S
C900 N906 1.369 . S
C901 C902 1.421 . S
C901 C903 1.417 . S
C901 C913 1.422 . S
C902 C900 1.422 . S
C902 C901 1.421 . S
C902 N912 1.359 . S
C903 C901 1.417 . S
C903 C905 1.329 . S
C903 H922 0.930 . S
C904 C900 1.415 . S
C904 C905 1.437 . S
C904 C908 1.413 . S
C905 C903 1.329 . S
C905 C904 1.437 . S
C905 H927 0.929 . S
N906 C900 1.369 . S
N906 C907 1.338 . S
N906 Gd911 2.622 . S
C907 N906 1.338 . S
C907 C909 1.378 . S
C907 H919 0.929 . S
C908 C904 1.413 . S
C908 C909 1.348 . S
C908 H924 0.931 . S
C909 C907 1.378 . S
C909 C908 1.348 . S
C909 H925 0.930 . S
Gd910 N930 2.622 . S
Gd910 N937 2.570 . S
Gd910 O944 2.353 . S
Gd910 O945 2.468 . S
Gd910 O946 2.427 . S
Gd910 O948 2.388 . S
Gd910 O949 2.386 . S
Gd910 O953 2.307 . S
Gd910 C963 2.805 . S
Gd911 N906 2.622 . S
Gd911 N912 2.570 . S
Gd911 O943 2.386 . S
Gd911 O947 2.307 . S
Gd911 O950 2.353 . S
Gd911 O951 2.468 . S
Gd911 O952 2.427 . S
Gd911 O954 2.388 . S
Gd911 C975 2.805 . S
N912 C902 1.359 . S
N912 Gd911 2.570 . S
N912 C914 1.343 . S
C913 C901 1.422 . S
C913 C915 1.321 . S
C913 H921 0.931 . S
C914 N912 1.343 . S
C914 C915 1.390 . S
C914 H916 0.931 . S
C915 C913 1.321 . S
C915 C914 1.390 . S
C915 H917 0.930 . S
H916 C914 0.931 . S
H917 C915 0.930 . S
H918 C941 0.931 . S
H919 C907 0.929 . S
H920 C942 0.930 . S
H921 C913 0.931 . S
H922 C903 0.930 . S
H923 C932 0.929 . S
H924 C908 0.931 . S
H925 C909 0.930 . S
H926 C964 0.930 . S
H927 C905 0.929 . S
H928 C933 0.931 . S
H929 C934 0.930 . S
N930 Gd910 2.622 . S
N930 C931 1.369 . S
N930 C932 1.338 . S
C931 N930 1.369 . S
C931 C935 1.415 . S
C931 C938 1.422 . S
C932 H923 0.929 . S
C932 N930 1.338 . S
C932 C934 1.378 . S
C933 H928 0.931 . S
C933 C934 1.348 . S
C933 C935 1.413 . S
C934 H929 0.930 . S
C934 C932 1.378 . S
C934 C933 1.348 . S
C935 C931 1.415 . S
C935 C933 1.413 . S
C935 C965 1.437 . S
H936 C965 0.929 . S
N937 Gd910 2.570 . S
N937 C938 1.359 . S
N937 C941 1.343 . S
C938 C931 1.422 . S
C938 N937 1.359 . S
C938 C940 1.421 . S
C939 C940 1.422 . S
C939 C942 1.321 . S
C939 H966 0.931 . S
C940 C938 1.421 . S
C940 C939 1.422 . S
C940 C964 1.417 . S
C941 H918 0.931 . S
C941 N937 1.343 . S
C941 C942 1.390 . S
C942 H920 0.930 . S
C942 C939 1.321 . S
C942 C941 1.390 . S
O943 Gd911 2.386 . S
O943 C955 1.265 . S
O944 Gd910 2.353 . S
O944 C955 1.242 . S
O945 Gd910 2.468 . S
O945 C963 1.263 . S
O946 Gd910 2.427 . S
O946 C963 1.252 . S
O947 Gd911 2.307 . S
O947 C956 1.261 . S
O948 Gd910 2.388 . S
O948 C956 1.252 . S
O949 Gd910 2.386 . S
O949 C967 1.265 . S
O950 Gd911 2.353 . S
O950 C967 1.242 . S
O951 Gd911 2.468 . S
O951 C975 1.263 . S
O952 Gd911 2.427 . S
O952 C975 1.252 . S
O953 Gd910 2.307 . S
O953 C968 1.261 . S
O954 Gd911 2.388 . S
O954 C968 1.252 . S
C955 O943 1.265 . S
C955 O944 1.242 . S
C956 O947 1.261 . S
C956 O948 1.252 . S
C957 C960 1.394 . S
C957 C962 1.370 . S
C957 C963 1.500 . S
C958 C961 1.383 . S
C958 C962 1.395 . S
C959 C960 1.396 . S
C959 C961 1.365 . S
C959 H976 0.929 . S
C960 C957 1.394 . S
C960 C959 1.396 . S
C960 H977 0.930 . S
C961 C958 1.383 . S
C961 C959 1.365 . S
C961 H978 0.931 . S
C962 C957 1.370 . S
C962 C958 1.395 . S
C962 H979 0.930 . S
C963 Gd910 2.805 . S
C963 O945 1.263 . S
C963 O946 1.252 . S
C963 C957 1.500 . S
C964 H926 0.930 . S
C964 C940 1.417 . S
C964 C965 1.329 . S
C965 C935 1.437 . S
C965 H936 0.929 . S
C965 C964 1.329 . S
H966 C939 0.931 . S
C967 O949 1.265 . S
C967 O950 1.242 . S
C968 O953 1.261 . S
C968 O954 1.252 . S
C969 C972 1.394 . S
C969 C974 1.370 . S
C969 C975 1.500 . S
C970 C973 1.383 . S
C970 C974 1.395 . S
C971 C972 1.396 . S
C971 C973 1.365 . S
C971 H980 0.929 . S
C972 C969 1.394 . S
C972 C971 1.396 . S
C972 H981 0.930 . S
C973 C970 1.383 . S
C973 C971 1.365 . S
C973 H982 0.931 . S
C974 C969 1.370 . S
C974 C970 1.395 . S
C974 H983 0.930 . S
C975 Gd911 2.805 . S
C975 O951 1.263 . S
C975 O952 1.252 . S
C975 C969 1.500 . S
H976 C959 0.929 . S
H977 C960 0.930 . S
H978 C961 0.931 . S
H979 C962 0.930 . S
H980 C971 0.929 . S
H981 C972 0.930 . S
H982 C973 0.931 . S
H983 C974 0.930 . S
C984 C986 1.422 . S
C984 C988 1.415 . S
C984 N990 1.369 . S
C985 C986 1.421 . S
C985 C987 1.417 . S
C985 C997 1.422 . S
C986 C984 1.422 . S
C986 C985 1.421 . S
C986 N996 1.359 . S
C987 C985 1.417 . S
C987 C989 1.329 . S
C987 H1006 0.930 . S
C988 C984 1.415 . S
C988 C989 1.437 . S
C988 C992 1.413 . S
C989 C987 1.329 . S
C989 C988 1.437 . S
C989 H1011 0.929 . S
N990 C984 1.369 . S
N990 C991 1.338 . S
N990 Gd995 2.622 . S
C991 N990 1.338 . S
C991 C993 1.378 . S
C991 H1003 0.929 . S
C992 C988 1.413 . S
C992 C993 1.348 . S
C992 H1008 0.931 . S
C993 C991 1.378 . S
C993 C992 1.348 . S
C993 H1009 0.930 . S
Gd994 N1014 2.622 1_554 S
Gd994 N1021 2.570 1_554 S
Gd994 O1028 2.353 . S
Gd994 O1029 2.468 . S
Gd994 O1030 2.427 . S
Gd994 O1032 2.388 . S
Gd994 O1033 2.386 1_554 S
Gd994 O1037 2.307 . S
Gd994 C1047 2.805 . S
Gd995 N990 2.622 . S
Gd995 N996 2.570 . S
Gd995 O1027 2.386 . S
Gd995 O1031 2.307 . S
Gd995 O1034 2.353 1_554 S
Gd995 O1035 2.468 . S
Gd995 O1036 2.427 . S
Gd995 O1038 2.388 . S
Gd995 C1059 2.805 . S
N996 C986 1.359 . S
N996 Gd995 2.570 . S
N996 C998 1.343 . S
C997 C985 1.422 . S
C997 C999 1.321 . S
C997 H1005 0.931 . S
C998 N996 1.343 . S
C998 C999 1.390 . S
C998 H1000 0.931 . S
C999 C997 1.321 . S
C999 C998 1.390 . S
C999 H1001 0.930 . S
H1000 C998 0.931 . S
H1001 C999 0.930 . S
H1002 C1025 0.931 1_554 S
H1003 C991 0.929 . S
H1004 C1026 0.930 . S
H1005 C997 0.931 . S
H1006 C987 0.930 . S
H1007 C1016 0.929 1_554 S
H1008 C992 0.931 . S
H1009 C993 0.930 . S
H1010 C1048 0.930 . S
H1011 C989 0.929 . S
H1012 C1017 0.931 . S
H1013 C1018 0.930 . S
N1014 Gd994 2.622 1_556 S
N1014 C1015 1.369 . S
N1014 C1016 1.338 . S
C1015 N1014 1.369 . S
C1015 C1019 1.415 . S
C1015 C1022 1.422 . S
C1016 H1007 0.929 1_556 S
C1016 N1014 1.338 . S
C1016 C1018 1.378 . S
C1017 H1012 0.931 . S
C1017 C1018 1.348 . S
C1017 C1019 1.413 . S
C1018 H1013 0.930 . S
C1018 C1016 1.378 . S
C1018 C1017 1.348 . S
C1019 C1015 1.415 . S
C1019 C1017 1.413 . S
C1019 C1049 1.437 . S
H1020 C1049 0.929 . S
N1021 Gd994 2.570 1_556 S
N1021 C1022 1.359 . S
N1021 C1025 1.343 . S
C1022 C1015 1.422 . S
C1022 N1021 1.359 . S
C1022 C1024 1.421 . S
C1023 C1024 1.422 . S
C1023 C1026 1.321 . S
C1023 H1050 0.931 . S
C1024 C1022 1.421 . S
C1024 C1023 1.422 . S
C1024 C1048 1.417 . S
C1025 H1002 0.931 1_556 S
C1025 N1021 1.343 . S
C1025 C1026 1.390 . S
C1026 H1004 0.930 . S
C1026 C1023 1.321 . S
C1026 C1025 1.390 . S
O1027 Gd995 2.386 . S
O1027 C1039 1.265 . S
O1028 Gd994 2.353 . S
O1028 C1039 1.242 . S
O1029 Gd994 2.468 . S
O1029 C1047 1.263 . S
O1030 Gd994 2.427 . S
O1030 C1047 1.252 . S
O1031 Gd995 2.307 . S
O1031 C1040 1.261 . S
O1032 Gd994 2.388 . S
O1032 C1040 1.252 . S
O1033 Gd994 2.386 1_556 S
O1033 C1051 1.265 . S
O1034 Gd995 2.353 1_556 S
O1034 C1051 1.242 . S
O1035 Gd995 2.468 . S
O1035 C1059 1.263 . S
O1036 Gd995 2.427 . S
O1036 C1059 1.252 . S
O1037 Gd994 2.307 . S
O1037 C1052 1.261 . S
O1038 Gd995 2.388 . S
O1038 C1052 1.252 . S
C1039 O1027 1.265 . S
C1039 O1028 1.242 . S
C1040 O1031 1.261 . S
C1040 O1032 1.252 . S
C1041 C1044 1.394 . S
C1041 C1046 1.370 . S
C1041 C1047 1.500 . S
C1042 C1045 1.383 . S
C1042 C1046 1.395 . S
C1043 C1044 1.396 . S
C1043 C1045 1.365 . S
C1043 H1060 0.929 . S
C1044 C1041 1.394 . S
C1044 C1043 1.396 . S
C1044 H1061 0.930 . S
C1045 C1042 1.383 . S
C1045 C1043 1.365 . S
C1045 H1062 0.931 . S
C1046 C1041 1.370 . S
C1046 C1042 1.395 . S
C1046 H1063 0.930 . S
C1047 Gd994 2.805 . S
C1047 O1029 1.263 . S
C1047 O1030 1.252 . S
C1047 C1041 1.500 . S
C1048 H1010 0.930 . S
C1048 C1024 1.417 . S
C1048 C1049 1.329 . S
C1049 C1019 1.437 . S
C1049 H1020 0.929 . S
C1049 C1048 1.329 . S
H1050 C1023 0.931 . S
C1051 O1033 1.265 . S
C1051 O1034 1.242 . S
C1052 O1037 1.261 . S
C1052 O1038 1.252 . S
C1053 C1056 1.394 . S
C1053 C1058 1.370 . S
C1053 C1059 1.500 1_556 S
C1054 C1057 1.383 . S
C1054 C1058 1.395 . S
C1055 C1056 1.396 . S
C1055 C1057 1.365 . S
C1055 H1064 0.929 . S
C1056 C1053 1.394 . S
C1056 C1055 1.396 . S
C1056 H1065 0.930 1_556 S
C1057 C1054 1.383 . S
C1057 C1055 1.365 . S
C1057 H1066 0.931 . S
C1058 C1053 1.370 . S
C1058 C1054 1.395 . S
C1058 H1067 0.930 . S
C1059 Gd995 2.805 . S
C1059 O1035 1.263 . S
C1059 O1036 1.252 . S
C1059 C1053 1.500 1_554 S
H1060 C1043 0.929 . S
H1061 C1044 0.930 . S
H1062 C1045 0.931 . S
H1063 C1046 0.930 . S
H1064 C1055 0.929 . S
H1065 C1056 0.930 1_554 S
H1066 C1057 0.931 . S
H1067 C1058 0.930 . S
C1068 C1070 1.422 . S
C1068 C1072 1.415 . S
C1068 N1074 1.369 . S
C1069 C1070 1.421 . S
C1069 C1071 1.417 . S
C1069 C1081 1.422 . S
C1070 C1068 1.422 . S
C1070 C1069 1.421 . S
C1070 N1080 1.359 . S
C1071 C1069 1.417 . S
C1071 C1073 1.329 . S
C1071 H1090 0.930 . S
C1072 C1068 1.415 . S
C1072 C1073 1.437 . S
C1072 C1076 1.413 . S
C1073 C1071 1.329 . S
C1073 C1072 1.437 . S
C1073 H1095 0.929 . S
N1074 C1068 1.369 . S
N1074 C1075 1.338 . S
N1074 Gd1079 2.622 . S
C1075 N1074 1.338 . S
C1075 C1077 1.378 . S
C1075 H1087 0.929 . S
C1076 C1072 1.413 . S
C1076 C1077 1.348 . S
C1076 H1092 0.931 . S
C1077 C1075 1.378 . S
C1077 C1076 1.348 . S
C1077 H1093 0.930 . S
Gd1078 N1098 2.622 . S
Gd1078 N1105 2.570 . S
Gd1078 O1112 2.353 . S
Gd1078 O1113 2.468 . S
Gd1078 O1114 2.427 . S
Gd1078 O1116 2.388 . S
Gd1078 O1117 2.386 . S
Gd1078 O1121 2.307 . S
Gd1078 C1131 2.805 . S
Gd1079 N1074 2.622 . S
Gd1079 N1080 2.570 . S
Gd1079 O1111 2.386 . S
Gd1079 O1115 2.307 . S
Gd1079 O1118 2.353 . S
Gd1079 O1119 2.468 . S
Gd1079 O1120 2.427 . S
Gd1079 O1122 2.388 . S
Gd1079 C1143 2.805 . S
N1080 C1070 1.359 . S
N1080 Gd1079 2.570 . S
N1080 C1082 1.343 . S
C1081 C1069 1.422 . S
C1081 C1083 1.321 . S
C1081 H1089 0.931 . S
C1082 N1080 1.343 . S
C1082 C1083 1.390 . S
C1082 H1084 0.931 . S
C1083 C1081 1.321 . S
C1083 C1082 1.390 . S
C1083 H1085 0.930 . S
H1084 C1082 0.931 . S
H1085 C1083 0.930 . S
H1086 C1109 0.931 . S
H1087 C1075 0.929 . S
H1088 C1110 0.930 . S
H1089 C1081 0.931 . S
H1090 C1071 0.930 . S
H1091 C1100 0.929 . S
H1092 C1076 0.931 . S
H1093 C1077 0.930 . S
H1094 C1132 0.930 . S
H1095 C1073 0.929 . S
H1096 C1101 0.931 . S
H1097 C1102 0.930 . S
N1098 Gd1078 2.622 . S
N1098 C1099 1.369 . S
N1098 C1100 1.338 . S
C1099 N1098 1.369 . S
C1099 C1103 1.415 . S
C1099 C1106 1.422 . S
C1100 H1091 0.929 . S
C1100 N1098 1.338 . S
C1100 C1102 1.378 . S
C1101 H1096 0.931 . S
C1101 C1102 1.348 . S
C1101 C1103 1.413 . S
C1102 H1097 0.930 . S
C1102 C1100 1.378 . S
C1102 C1101 1.348 . S
C1103 C1099 1.415 . S
C1103 C1101 1.413 . S
C1103 C1133 1.437 . S
H1104 C1133 0.929 . S
N1105 Gd1078 2.570 . S
N1105 C1106 1.359 . S
N1105 C1109 1.343 . S
C1106 C1099 1.422 . S
C1106 N1105 1.359 . S
C1106 C1108 1.421 . S
C1107 C1108 1.422 . S
C1107 C1110 1.321 . S
C1107 H1134 0.931 . S
C1108 C1106 1.421 . S
C1108 C1107 1.422 . S
C1108 C1132 1.417 . S
C1109 H1086 0.931 . S
C1109 N1105 1.343 . S
C1109 C1110 1.390 . S
C1110 H1088 0.930 . S
C1110 C1107 1.321 . S
C1110 C1109 1.390 . S
O1111 Gd1079 2.386 . S
O1111 C1123 1.265 . S
O1112 Gd1078 2.353 . S
O1112 C1123 1.242 . S
O1113 Gd1078 2.468 . S
O1113 C1131 1.263 . S
O1114 Gd1078 2.427 . S
O1114 C1131 1.252 . S
O1115 Gd1079 2.307 . S
O1115 C1124 1.261 . S
O1116 Gd1078 2.388 . S
O1116 C1124 1.252 . S
O1117 Gd1078 2.386 . S
O1117 C1135 1.265 . S
O1118 Gd1079 2.353 . S
O1118 C1135 1.242 . S
O1119 Gd1079 2.468 . S
O1119 C1143 1.263 . S
O1120 Gd1079 2.427 . S
O1120 C1143 1.252 . S
O1121 Gd1078 2.307 . S
O1121 C1136 1.261 . S
O1122 Gd1079 2.388 . S
O1122 C1136 1.252 . S
C1123 O1111 1.265 . S
C1123 O1112 1.242 . S
C1124 O1115 1.261 . S
C1124 O1116 1.252 . S
C1125 C1128 1.394 . S
C1125 C1130 1.370 . S
C1125 C1131 1.500 . S
C1126 C1129 1.383 . S
C1126 C1130 1.395 . S
C1127 C1128 1.396 . S
C1127 C1129 1.365 . S
C1127 H1144 0.929 . S
C1128 C1125 1.394 . S
C1128 C1127 1.396 . S
C1128 H1145 0.930 . S
C1129 C1126 1.383 . S
C1129 C1127 1.365 . S
C1129 H1146 0.931 . S
C1130 C1125 1.370 . S
C1130 C1126 1.395 . S
C1130 H1147 0.930 . S
C1131 Gd1078 2.805 . S
C1131 O1113 1.263 . S
C1131 O1114 1.252 . S
C1131 C1125 1.500 . S
C1132 H1094 0.930 . S
C1132 C1108 1.417 . S
C1132 C1133 1.329 . S
C1133 C1103 1.437 . S
C1133 H1104 0.929 . S
C1133 C1132 1.329 . S
H1134 C1107 0.931 . S
C1135 O1117 1.265 . S
C1135 O1118 1.242 . S
C1136 O1121 1.261 . S
C1136 O1122 1.252 . S
C1137 C1140 1.394 . S
C1137 C1142 1.370 . S
C1137 C1143 1.500 . S
C1138 C1141 1.383 . S
C1138 C1142 1.395 . S
C1139 C1140 1.396 . S
C1139 C1141 1.365 . S
C1139 H1148 0.929 . S
C1140 C1137 1.394 . S
C1140 C1139 1.396 . S
C1140 H1149 0.930 . S
C1141 C1138 1.383 . S
C1141 C1139 1.365 . S
C1141 H1150 0.931 . S
C1142 C1137 1.370 . S
C1142 C1138 1.395 . S
C1142 H1151 0.930 . S
C1143 Gd1079 2.805 . S
C1143 O1119 1.263 . S
C1143 O1120 1.252 . S
C1143 C1137 1.500 . S
H1144 C1127 0.929 . S
H1145 C1128 0.930 . S
H1146 C1129 0.931 . S
H1147 C1130 0.930 . S
H1148 C1139 0.929 . S
H1149 C1140 0.930 . S
H1150 C1141 0.931 . S
H1151 C1142 0.930 . S
C1152 C1154 1.422 . S
C1152 C1156 1.415 . S
C1152 N1158 1.369 . S
C1153 C1154 1.421 . S
C1153 C1155 1.417 . S
C1153 C1165 1.422 . S
C1154 C1152 1.422 . S
C1154 C1153 1.421 . S
C1154 N1164 1.359 . S
C1155 C1153 1.417 . S
C1155 C1157 1.329 . S
C1155 H1174 0.930 . S
C1156 C1152 1.415 . S
C1156 C1157 1.437 . S
C1156 C1160 1.413 . S
C1157 C1155 1.329 . S
C1157 C1156 1.437 . S
C1157 H1179 0.929 . S
N1158 C1152 1.369 . S
N1158 C1159 1.338 . S
N1158 Gd1163 2.622 . S
C1159 N1158 1.338 . S
C1159 C1161 1.378 . S
C1159 H1171 0.929 . S
C1160 C1156 1.413 . S
C1160 C1161 1.348 . S
C1160 H1176 0.931 . S
C1161 C1159 1.378 . S
C1161 C1160 1.348 . S
C1161 H1177 0.930 . S
Gd1162 N1182 2.622 . S
Gd1162 N1189 2.545 1_455 S
Gd1162 O1196 2.353 . S
Gd1162 O1197 2.468 . S
Gd1162 O1198 2.427 . S
Gd1162 O1200 2.388 . S
Gd1162 O1201 2.386 1_455 S
Gd1162 O1205 2.307 . S
Gd1162 C1215 2.805 . S
Gd1163 N1158 2.622 . S
Gd1163 N1164 2.570 . S
Gd1163 O1195 2.386 . S
Gd1163 O1199 2.307 . S
Gd1163 O1202 2.353 1_455 S
Gd1163 O1203 2.468 . S
Gd1163 O1204 2.427 . S
Gd1163 O1206 2.388 . S
Gd1163 C1227 2.805 . S
N1164 C1154 1.359 . S
N1164 Gd1163 2.570 . S
N1164 C1166 1.343 . S
C1165 C1153 1.422 . S
C1165 C1167 1.321 . S
C1165 H1173 0.931 . S
C1166 N1164 1.343 . S
C1166 C1167 1.390 . S
C1166 H1168 0.931 . S
C1167 C1165 1.321 . S
C1167 C1166 1.390 . S
C1167 H1169 0.930 . S
H1168 C1166 0.931 . S
H1169 C1167 0.930 . S
H1170 C1193 0.931 1_455 S
H1171 C1159 0.929 . S
H1172 C1194 0.930 . S
H1173 C1165 0.931 . S
H1174 C1155 0.930 . S
H1175 C1184 0.929 . S
H1176 C1160 0.931 . S
H1177 C1161 0.930 . S
H1178 C1216 0.930 . S
H1179 C1157 0.929 . S
H1180 C1185 0.931 . S
H1181 C1186 0.930 . S
N1182 Gd1162 2.622 . S
N1182 C1183 1.369 1_455 S
N1182 C1184 1.338 . S
C1183 N1182 1.369 1_655 S
C1183 C1187 1.415 . S
C1183 C1190 1.422 . S
C1184 H1175 0.929 . S
C1184 N1182 1.338 . S
C1184 C1186 1.378 1_455 S
C1185 H1180 0.931 . S
C1185 C1186 1.348 . S
C1185 C1187 1.413 . S
C1186 H1181 0.930 . S
C1186 C1184 1.378 1_655 S
C1186 C1185 1.348 . S
C1187 C1183 1.415 . S
C1187 C1185 1.413 . S
C1187 C1217 1.437 . S
H1188 C1217 0.929 . S
N1189 Gd1162 2.545 1_655 S
N1189 C1190 1.396 . S
N1189 C1193 1.337 . S
C1190 C1183 1.422 . S
C1190 N1189 1.396 . S
C1190 C1192 1.421 . S
C1191 C1192 1.422 . S
C1191 C1194 1.321 . S
C1191 H1218 0.931 . S
C1192 C1190 1.421 . S
C1192 C1191 1.422 . S
C1192 C1216 1.417 . S
C1193 H1170 0.931 1_655 S
C1193 N1189 1.337 . S
C1193 C1194 1.390 . S
C1194 H1172 0.930 . S
C1194 C1191 1.321 . S
C1194 C1193 1.390 . S
O1195 Gd1163 2.386 . S
O1195 C1207 1.265 . S
O1196 Gd1162 2.353 . S
O1196 C1207 1.242 . S
O1197 Gd1162 2.468 . S
O1197 C1215 1.263 . S
O1198 Gd1162 2.427 . S
O1198 C1215 1.252 . S
O1199 Gd1163 2.307 . S
O1199 C1208 1.261 . S
O1200 Gd1162 2.388 . S
O1200 C1208 1.252 . S
O1201 Gd1162 2.386 1_655 S
O1201 C1219 1.265 . S
O1202 Gd1163 2.353 1_655 S
O1202 C1219 1.242 . S
O1203 Gd1163 2.468 . S
O1203 C1227 1.263 . S
O1204 Gd1163 2.427 . S
O1204 C1227 1.252 . S
O1205 Gd1162 2.307 . S
O1205 C1220 1.261 . S
O1206 Gd1163 2.388 . S
O1206 C1220 1.252 . S
C1207 O1195 1.265 . S
C1207 O1196 1.242 . S
C1208 O1199 1.261 . S
C1208 O1200 1.252 . S
C1209 C1212 1.394 . S
C1209 C1214 1.370 . S
C1209 C1215 1.500 . S
C1210 C1213 1.383 . S
C1210 C1214 1.395 . S
C1211 C1212 1.396 . S
C1211 C1213 1.365 . S
C1211 H1228 0.929 . S
C1212 C1209 1.394 . S
C1212 C1211 1.396 . S
C1212 H1229 0.930 . S
C1213 C1210 1.383 . S
C1213 C1211 1.365 . S
C1213 H1230 0.931 . S
C1214 C1209 1.370 . S
C1214 C1210 1.395 . S
C1214 H1231 0.930 . S
C1215 Gd1162 2.805 . S
C1215 O1197 1.263 . S
C1215 O1198 1.252 . S
C1215 C1209 1.500 . S
C1216 H1178 0.930 . S
C1216 C1192 1.417 . S
C1216 C1217 1.329 . S
C1217 C1187 1.437 . S
C1217 H1188 0.929 . S
C1217 C1216 1.329 . S
H1218 C1191 0.931 . S
C1219 O1201 1.265 . S
C1219 O1202 1.242 . S
C1220 O1205 1.261 . S
C1220 O1206 1.252 . S
C1221 C1224 1.394 . S
C1221 C1226 1.370 . S
C1221 C1227 1.500 1_655 S
C1222 C1225 1.383 . S
C1222 C1226 1.395 . S
C1223 C1224 1.396 . S
C1223 C1225 1.365 . S
C1223 H1232 0.929 . S
C1224 C1221 1.394 . S
C1224 C1223 1.396 . S
C1224 H1233 0.930 . S
C1225 C1222 1.383 . S
C1225 C1223 1.365 . S
C1225 H1234 0.931 . S
C1226 C1221 1.370 . S
C1226 C1222 1.395 . S
C1226 H1235 0.930 . S
C1227 Gd1163 2.805 . S
C1227 O1203 1.263 . S
C1227 O1204 1.252 . S
C1227 C1221 1.500 1_455 S
H1228 C1211 0.929 . S
H1229 C1212 0.930 . S
H1230 C1213 0.931 . S
H1231 C1214 0.930 . S
H1232 C1223 0.929 . S
H1233 C1224 0.930 . S
H1234 C1225 0.931 . S
H1235 C1226 0.930 . S
C1236 C1238 1.422 . S
C1236 C1240 1.415 . S
C1236 N1242 1.369 . S
C1237 C1238 1.421 . S
C1237 C1239 1.417 . S
C1237 C1249 1.422 . S
C1238 C1236 1.422 . S
C1238 C1237 1.421 . S
C1238 N1248 1.359 . S
C1239 C1237 1.417 . S
C1239 C1241 1.329 . S
C1239 H1258 0.930 . S
C1240 C1236 1.415 . S
C1240 C1241 1.437 . S
C1240 C1244 1.413 . S
C1241 C1239 1.329 . S
C1241 C1240 1.437 . S
C1241 H1263 0.929 . S
N1242 C1236 1.369 . S
N1242 C1243 1.338 . S
N1242 Gd1247 2.622 . S
C1243 N1242 1.338 . S
C1243 C1245 1.378 . S
C1243 H1255 0.929 . S
C1244 C1240 1.413 . S
C1244 C1245 1.348 . S
C1244 H1260 0.931 . S
C1245 C1243 1.378 . S
C1245 C1244 1.348 . S
C1245 H1261 0.930 . S
Gd1246 N1266 2.622 . S
Gd1246 N1273 2.570 . S
Gd1246 O1280 2.353 . S
Gd1246 O1281 2.468 . S
Gd1246 O1282 2.427 . S
Gd1246 O1284 2.388 . S
Gd1246 O1285 2.386 . S
Gd1246 O1289 2.307 . S
Gd1246 C1299 2.805 . S
Gd1247 N1242 2.622 . S
Gd1247 N1248 2.570 . S
Gd1247 O1279 2.386 . S
Gd1247 O1283 2.307 . S
Gd1247 O1286 2.353 . S
Gd1247 O1287 2.468 . S
Gd1247 O1288 2.427 . S
Gd1247 O1290 2.388 . S
Gd1247 C1311 2.805 . S
N1248 C1238 1.359 . S
N1248 Gd1247 2.570 . S
N1248 C1250 1.343 . S
C1249 C1237 1.422 . S
C1249 C1251 1.321 . S
C1249 H1257 0.931 . S
C1250 N1248 1.343 . S
C1250 C1251 1.390 . S
C1250 H1252 0.931 . S
C1251 C1249 1.321 . S
C1251 C1250 1.390 . S
C1251 H1253 0.930 . S
H1252 C1250 0.931 . S
H1253 C1251 0.930 . S
H1254 C1277 0.931 . S
H1255 C1243 0.929 . S
H1256 C1278 0.930 . S
H1257 C1249 0.931 . S
H1258 C1239 0.930 . S
H1259 C1268 0.929 . S
H1260 C1244 0.931 . S
H1261 C1245 0.930 . S
H1262 C1300 0.930 . S
H1263 C1241 0.929 . S
H1264 C1269 0.931 . S
H1265 C1270 0.930 . S
N1266 Gd1246 2.622 . S
N1266 C1267 1.369 . S
N1266 C1268 1.338 . S
C1267 N1266 1.369 . S
C1267 C1271 1.415 . S
C1267 C1274 1.422 . S
C1268 H1259 0.929 . S
C1268 N1266 1.338 . S
C1268 C1270 1.378 . S
C1269 H1264 0.931 . S
C1269 C1270 1.348 . S
C1269 C1271 1.413 . S
C1270 H1265 0.930 . S
C1270 C1268 1.378 . S
C1270 C1269 1.348 . S
C1271 C1267 1.415 . S
C1271 C1269 1.413 . S
C1271 C1301 1.437 . S
H1272 C1301 0.929 . S
N1273 Gd1246 2.570 . S
N1273 C1274 1.359 . S
N1273 C1277 1.343 . S
C1274 C1267 1.422 . S
C1274 N1273 1.359 . S
C1274 C1276 1.421 . S
C1275 C1276 1.422 . S
C1275 C1278 1.321 . S
C1275 H1302 0.931 . S
C1276 C1274 1.421 . S
C1276 C1275 1.422 . S
C1276 C1300 1.417 . S
C1277 H1254 0.931 . S
C1277 N1273 1.343 . S
C1277 C1278 1.390 . S
C1278 H1256 0.930 . S
C1278 C1275 1.321 . S
C1278 C1277 1.390 . S
O1279 Gd1247 2.386 . S
O1279 C1291 1.265 . S
O1280 Gd1246 2.353 . S
O1280 C1291 1.242 . S
O1281 Gd1246 2.468 . S
O1281 C1299 1.263 . S
O1282 Gd1246 2.427 . S
O1282 C1299 1.252 . S
O1283 Gd1247 2.307 . S
O1283 C1292 1.261 . S
O1284 Gd1246 2.388 . S
O1284 C1292 1.252 . S
O1285 Gd1246 2.386 . S
O1285 C1303 1.265 . S
O1286 Gd1247 2.353 . S
O1286 C1303 1.242 . S
O1287 Gd1247 2.468 . S
O1287 C1311 1.263 . S
O1288 Gd1247 2.427 . S
O1288 C1311 1.252 . S
O1289 Gd1246 2.307 . S
O1289 C1304 1.261 . S
O1290 Gd1247 2.388 . S
O1290 C1304 1.252 . S
C1291 O1279 1.265 . S
C1291 O1280 1.242 . S
C1292 O1283 1.261 . S
C1292 O1284 1.252 . S
C1293 C1296 1.394 . S
C1293 C1298 1.370 . S
C1293 C1299 1.500 . S
C1294 C1297 1.383 . S
C1294 C1298 1.395 . S
C1295 C1296 1.396 . S
C1295 C1297 1.365 . S
C1295 H1312 0.929 . S
C1296 C1293 1.394 . S
C1296 C1295 1.396 . S
C1296 H1313 0.930 . S
C1297 C1294 1.383 . S
C1297 C1295 1.365 . S
C1297 H1314 0.931 . S
C1298 C1293 1.370 . S
C1298 C1294 1.395 . S
C1298 H1315 0.930 . S
C1299 Gd1246 2.805 . S
C1299 O1281 1.263 . S
C1299 O1282 1.252 . S
C1299 C1293 1.500 . S
C1300 H1262 0.930 . S
C1300 C1276 1.417 . S
C1300 C1301 1.329 . S
C1301 C1271 1.437 . S
C1301 H1272 0.929 . S
C1301 C1300 1.329 . S
H1302 C1275 0.931 . S
C1303 O1285 1.265 . S
C1303 O1286 1.242 . S
C1304 O1289 1.261 . S
C1304 O1290 1.252 . S
C1305 C1308 1.394 . S
C1305 C1310 1.370 . S
C1305 C1311 1.500 . S
C1306 C1309 1.383 . S
C1306 C1310 1.395 . S
C1307 C1308 1.396 . S
C1307 C1309 1.365 . S
C1307 H1316 0.929 . S
C1308 C1305 1.394 . S
C1308 C1307 1.396 . S
C1308 H1317 0.930 . S
C1309 C1306 1.383 . S
C1309 C1307 1.365 . S
C1309 H1318 0.931 . S
C1310 C1305 1.370 . S
C1310 C1306 1.395 . S
C1310 H1319 0.930 . S
C1311 Gd1247 2.805 . S
C1311 O1287 1.263 . S
C1311 O1288 1.252 . S
C1311 C1305 1.500 . S
H1312 C1295 0.929 . S
H1313 C1296 0.930 . S
H1314 C1297 0.931 . S
H1315 C1298 0.930 . S
H1316 C1307 0.929 . S
H1317 C1308 0.930 . S
H1318 C1309 0.931 . S
H1319 C1310 0.930 . S
C1320 C1322 1.422 . S
C1320 C1324 1.415 . S
C1320 N1326 1.369 . S
C1321 C1322 1.421 . S
C1321 C1323 1.417 . S
C1321 C1333 1.422 . S
C1322 C1320 1.422 . S
C1322 C1321 1.421 . S
C1322 N1332 1.359 . S
C1323 C1321 1.417 . S
C1323 C1325 1.329 . S
C1323 H1342 0.930 . S
C1324 C1320 1.415 . S
C1324 C1325 1.437 . S
C1324 C1328 1.413 . S
C1325 C1323 1.329 . S
C1325 C1324 1.437 . S
C1325 H1347 0.929 . S
N1326 C1320 1.369 . S
N1326 C1327 1.338 . S
N1326 Gd1331 2.622 . S
C1327 N1326 1.338 . S
C1327 C1329 1.378 . S
C1327 H1339 0.929 . S
C1328 C1324 1.413 . S
C1328 C1329 1.348 . S
C1328 H1344 0.931 . S
C1329 C1327 1.378 . S
C1329 C1328 1.348 . S
C1329 H1345 0.930 . S
Gd1330 N1350 2.622 . S
Gd1330 N1357 2.570 . S
Gd1330 O1364 2.353 . S
Gd1330 O1365 2.468 . S
Gd1330 O1366 2.427 . S
Gd1330 O1368 2.388 . S
Gd1330 O1369 2.386 . S
Gd1330 O1373 2.307 . S
Gd1330 C1383 2.805 . S
Gd1331 N1326 2.622 . S
Gd1331 N1332 2.570 . S
Gd1331 O1363 2.386 . S
Gd1331 O1367 2.307 . S
Gd1331 O1370 2.353 . S
Gd1331 O1371 2.468 . S
Gd1331 O1372 2.427 . S
Gd1331 O1374 2.388 . S
Gd1331 C1395 2.805 . S
N1332 C1322 1.359 . S
N1332 Gd1331 2.570 . S
N1332 C1334 1.343 . S
C1333 C1321 1.422 . S
C1333 C1335 1.321 . S
C1333 H1341 0.931 . S
C1334 N1332 1.343 . S
C1334 C1335 1.390 . S
C1334 H1336 0.931 . S
C1335 C1333 1.321 . S
C1335 C1334 1.390 . S
C1335 H1337 0.930 . S
H1336 C1334 0.931 . S
H1337 C1335 0.930 . S
H1338 C1361 0.931 . S
H1339 C1327 0.929 . S
H1340 C1362 0.930 . S
H1341 C1333 0.931 . S
H1342 C1323 0.930 . S
H1343 C1352 0.929 . S
H1344 C1328 0.931 . S
H1345 C1329 0.930 . S
H1346 C1384 0.930 . S
H1347 C1325 0.929 . S
H1348 C1353 0.931 . S
H1349 C1354 0.930 . S
N1350 Gd1330 2.622 . S
N1350 C1351 1.369 . S
N1350 C1352 1.338 . S
C1351 N1350 1.369 . S
C1351 C1355 1.415 . S
C1351 C1358 1.422 . S
C1352 H1343 0.929 . S
C1352 N1350 1.338 . S
C1352 C1354 1.378 . S
C1353 H1348 0.931 . S
C1353 C1354 1.348 . S
C1353 C1355 1.413 . S
C1354 H1349 0.930 . S
C1354 C1352 1.378 . S
C1354 C1353 1.348 . S
C1355 C1351 1.415 . S
C1355 C1353 1.413 . S
C1355 C1385 1.437 . S
H1356 C1385 0.929 . S
N1357 Gd1330 2.570 . S
N1357 C1358 1.359 . S
N1357 C1361 1.343 . S
C1358 C1351 1.422 . S
C1358 N1357 1.359 . S
C1358 C1360 1.421 . S
C1359 C1360 1.422 . S
C1359 C1362 1.321 . S
C1359 H1386 0.931 . S
C1360 C1358 1.421 . S
C1360 C1359 1.422 . S
C1360 C1384 1.417 . S
C1361 H1338 0.931 . S
C1361 N1357 1.343 . S
C1361 C1362 1.390 . S
C1362 H1340 0.930 . S
C1362 C1359 1.321 . S
C1362 C1361 1.390 . S
O1363 Gd1331 2.386 . S
O1363 C1375 1.265 . S
O1364 Gd1330 2.353 . S
O1364 C1375 1.242 . S
O1365 Gd1330 2.468 . S
O1365 C1383 1.263 . S
O1366 Gd1330 2.427 . S
O1366 C1383 1.252 . S
O1367 Gd1331 2.307 . S
O1367 C1376 1.261 . S
O1368 Gd1330 2.388 . S
O1368 C1376 1.252 . S
O1369 Gd1330 2.386 . S
O1369 C1387 1.265 . S
O1370 Gd1331 2.353 . S
O1370 C1387 1.242 . S
O1371 Gd1331 2.468 . S
O1371 C1395 1.263 . S
O1372 Gd1331 2.427 . S
O1372 C1395 1.252 . S
O1373 Gd1330 2.307 . S
O1373 C1388 1.261 . S
O1374 Gd1331 2.388 . S
O1374 C1388 1.252 . S
C1375 O1363 1.265 . S
C1375 O1364 1.242 . S
C1376 O1367 1.261 . S
C1376 O1368 1.252 . S
C1377 C1380 1.394 . S
C1377 C1382 1.370 . S
C1377 C1383 1.500 . S
C1378 C1381 1.383 . S
C1378 C1382 1.395 . S
C1379 C1380 1.396 . S
C1379 C1381 1.365 . S
C1379 H1396 0.929 . S
C1380 C1377 1.394 . S
C1380 C1379 1.396 . S
C1380 H1397 0.930 . S
C1381 C1378 1.383 . S
C1381 C1379 1.365 . S
C1381 H1398 0.931 . S
C1382 C1377 1.370 . S
C1382 C1378 1.395 . S
C1382 H1399 0.930 . S
C1383 Gd1330 2.805 . S
C1383 O1365 1.263 . S
C1383 O1366 1.252 . S
C1383 C1377 1.500 . S
C1384 H1346 0.930 . S
C1384 C1360 1.417 . S
C1384 C1385 1.329 . S
C1385 C1355 1.437 . S
C1385 H1356 0.929 . S
C1385 C1384 1.329 . S
H1386 C1359 0.931 . S
C1387 O1369 1.265 . S
C1387 O1370 1.242 . S
C1388 O1373 1.261 . S
C1388 O1374 1.252 . S
C1389 C1392 1.394 . S
C1389 C1394 1.370 . S
C1389 C1395 1.500 . S
C1390 C1393 1.383 . S
C1390 C1394 1.395 . S
C1391 C1392 1.396 . S
C1391 C1393 1.365 . S
C1391 H1400 0.929 . S
C1392 C1389 1.394 . S
C1392 C1391 1.396 . S
C1392 H1401 0.930 . S
C1393 C1390 1.383 . S
C1393 C1391 1.365 . S
C1393 H1402 0.931 . S
C1394 C1389 1.370 . S
C1394 C1390 1.395 . S
C1394 H1403 0.930 . S
C1395 Gd1331 2.805 . S
C1395 O1371 1.263 . S
C1395 O1372 1.252 . S
C1395 C1389 1.500 . S
H1396 C1379 0.929 . S
H1397 C1380 0.930 . S
H1398 C1381 0.931 . S
H1399 C1382 0.930 . S
H1400 C1391 0.929 . S
H1401 C1392 0.930 . S
H1402 C1393 0.931 . S
H1403 C1394 0.930 . S
C1404 C1406 1.422 . S
C1404 C1408 1.415 . S
C1404 N1410 1.369 . S
C1405 C1406 1.421 . S
C1405 C1407 1.417 . S
C1405 C1417 1.422 . S
C1406 C1404 1.422 . S
C1406 C1405 1.421 . S
C1406 N1416 1.359 . S
C1407 C1405 1.417 . S
C1407 C1409 1.329 . S
C1407 H1426 0.930 . S
C1408 C1404 1.415 . S
C1408 C1409 1.437 . S
C1408 C1412 1.413 . S
C1409 C1407 1.329 . S
C1409 C1408 1.437 . S
C1409 H1431 0.929 . S
N1410 C1404 1.369 . S
N1410 C1411 1.338 . S
N1410 Gd1415 2.622 . S
C1411 N1410 1.338 . S
C1411 C1413 1.378 . S
C1411 H1423 0.929 . S
C1412 C1408 1.413 . S
C1412 C1413 1.348 . S
C1412 H1428 0.931 . S
C1413 C1411 1.378 . S
C1413 C1412 1.348 . S
C1413 H1429 0.930 . S
Gd1414 N1434 2.622 . S
Gd1414 N1441 2.570 . S
Gd1414 O1448 2.353 . S
Gd1414 O1449 2.468 . S
Gd1414 O1450 2.427 . S
Gd1414 O1452 2.388 . S
Gd1414 O1453 2.386 . S
Gd1414 O1457 2.307 . S
Gd1414 C1467 2.805 . S
Gd1415 N1410 2.622 . S
Gd1415 N1416 2.570 . S
Gd1415 O1447 2.386 . S
Gd1415 O1451 2.307 . S
Gd1415 O1454 2.353 . S
Gd1415 O1455 2.468 . S
Gd1415 O1456 2.427 . S
Gd1415 O1458 2.388 . S
Gd1415 C1479 2.805 . S
N1416 C1406 1.359 . S
N1416 Gd1415 2.570 . S
N1416 C1418 1.343 . S
C1417 C1405 1.422 . S
C1417 C1419 1.321 . S
C1417 H1425 0.931 . S
C1418 N1416 1.343 . S
C1418 C1419 1.390 . S
C1418 H1420 0.931 . S
C1419 C1417 1.321 . S
C1419 C1418 1.390 . S
C1419 H1421 0.930 . S
H1420 C1418 0.931 . S
H1421 C1419 0.930 . S
H1422 C1445 0.931 . S
H1423 C1411 0.929 . S
H1424 C1446 0.930 . S
H1425 C1417 0.931 . S
H1426 C1407 0.930 . S
H1427 C1436 0.929 . S
H1428 C1412 0.931 . S
H1429 C1413 0.930 . S
H1430 C1468 0.930 . S
H1431 C1409 0.929 . S
H1432 C1437 0.931 . S
H1433 C1438 0.930 . S
N1434 Gd1414 2.622 . S
N1434 C1435 1.369 . S
N1434 C1436 1.338 . S
C1435 N1434 1.369 . S
C1435 C1439 1.415 . S
C1435 C1442 1.422 . S
C1436 H1427 0.929 . S
C1436 N1434 1.338 . S
C1436 C1438 1.378 . S
C1437 H1432 0.931 . S
C1437 C1438 1.348 . S
C1437 C1439 1.413 . S
C1438 H1433 0.930 . S
C1438 C1436 1.378 . S
C1438 C1437 1.348 . S
C1439 C1435 1.415 . S
C1439 C1437 1.413 . S
C1439 C1469 1.437 . S
H1440 C1469 0.929 . S
N1441 Gd1414 2.570 . S
N1441 C1442 1.359 . S
N1441 C1445 1.343 . S
C1442 C1435 1.422 . S
C1442 N1441 1.359 . S
C1442 C1444 1.421 . S
C1443 C1444 1.422 . S
C1443 C1446 1.321 . S
C1443 H1470 0.931 . S
C1444 C1442 1.421 . S
C1444 C1443 1.422 . S
C1444 C1468 1.417 . S
C1445 H1422 0.931 . S
C1445 N1441 1.343 . S
C1445 C1446 1.390 . S
C1446 H1424 0.930 . S
C1446 C1443 1.321 . S
C1446 C1445 1.390 . S
O1447 Gd1415 2.386 . S
O1447 C1459 1.265 . S
O1448 Gd1414 2.353 . S
O1448 C1459 1.242 . S
O1449 Gd1414 2.468 . S
O1449 C1467 1.263 . S
O1450 Gd1414 2.427 . S
O1450 C1467 1.252 . S
O1451 Gd1415 2.307 . S
O1451 C1460 1.261 . S
O1452 Gd1414 2.388 . S
O1452 C1460 1.252 . S
O1453 Gd1414 2.386 . S
O1453 C1471 1.265 . S
O1454 Gd1415 2.353 . S
O1454 C1471 1.242 . S
O1455 Gd1415 2.468 . S
O1455 C1479 1.263 . S
O1456 Gd1415 2.427 . S
O1456 C1479 1.252 . S
O1457 Gd1414 2.307 . S
O1457 C1472 1.261 . S
O1458 Gd1415 2.388 . S
O1458 C1472 1.252 . S
C1459 O1447 1.265 . S
C1459 O1448 1.242 . S
C1460 O1451 1.261 . S
C1460 O1452 1.252 . S
C1461 C1464 1.394 . S
C1461 C1466 1.370 . S
C1461 C1467 1.500 . S
C1462 C1465 1.383 . S
C1462 C1466 1.395 . S
C1463 C1464 1.396 . S
C1463 C1465 1.365 . S
C1463 H1480 0.929 . S
C1464 C1461 1.394 . S
C1464 C1463 1.396 . S
C1464 H1481 0.930 . S
C1465 C1462 1.383 . S
C1465 C1463 1.365 . S
C1465 H1482 0.931 . S
C1466 C1461 1.370 . S
C1466 C1462 1.395 . S
C1466 H1483 0.930 . S
C1467 Gd1414 2.805 . S
C1467 O1449 1.263 . S
C1467 O1450 1.252 . S
C1467 C1461 1.500 . S
C1468 H1430 0.930 . S
C1468 C1444 1.417 . S
C1468 C1469 1.329 . S
C1469 C1439 1.437 . S
C1469 H1440 0.929 . S
C1469 C1468 1.329 . S
H1470 C1443 0.931 . S
C1471 O1453 1.265 . S
C1471 O1454 1.242 . S
C1472 O1457 1.261 . S
C1472 O1458 1.252 . S
C1473 C1476 1.394 . S
C1473 C1478 1.370 . S
C1473 C1479 1.500 . S
C1474 C1477 1.383 . S
C1474 C1478 1.395 . S
C1475 C1476 1.396 . S
C1475 C1477 1.365 . S
C1475 H1484 0.929 . S
C1476 C1473 1.394 . S
C1476 C1475 1.396 . S
C1476 H1485 0.930 . S
C1477 C1474 1.383 . S
C1477 C1475 1.365 . S
C1477 H1486 0.931 . S
C1478 C1473 1.370 . S
C1478 C1474 1.395 . S
C1478 H1487 0.930 . S
C1479 Gd1415 2.805 . S
C1479 O1455 1.263 . S
C1479 O1456 1.252 . S
C1479 C1473 1.500 . S
H1480 C1463 0.929 . S
H1481 C1464 0.930 . S
H1482 C1465 0.931 . S
H1483 C1466 0.930 . S
H1484 C1475 0.929 . S
H1485 C1476 0.930 . S
H1486 C1477 0.931 . S
H1487 C1478 0.930 . S
C1488 C1490 1.422 . S
C1488 C1492 1.415 . S
C1488 N1494 1.369 . S
C1489 C1490 1.421 . S
C1489 C1491 1.417 . S
C1489 C1501 1.422 . S
C1490 C1488 1.422 . S
C1490 C1489 1.421 . S
C1490 N1500 1.359 . S
C1491 C1489 1.417 . S
C1491 C1493 1.329 . S
C1491 H1510 0.930 . S
C1492 C1488 1.415 . S
C1492 C1493 1.437 . S
C1492 C1496 1.413 . S
C1493 C1491 1.329 . S
C1493 C1492 1.437 . S
C1493 H1515 0.929 . S
N1494 C1488 1.369 . S
N1494 C1495 1.338 . S
N1494 Gd1499 2.622 . S
C1495 N1494 1.338 . S
C1495 C1497 1.378 . S
C1495 H1507 0.929 . S
C1496 C1492 1.413 . S
C1496 C1497 1.348 . S
C1496 H1512 0.931 . S
C1497 C1495 1.378 . S
C1497 C1496 1.348 . S
C1497 H1513 0.930 . S
Gd1498 N1518 2.622 . S
Gd1498 N1525 2.570 . S
Gd1498 O1532 2.353 . S
Gd1498 O1533 2.468 . S
Gd1498 O1534 2.427 . S
Gd1498 O1536 2.388 . S
Gd1498 O1537 2.386 . S
Gd1498 O1541 2.307 . S
Gd1498 C1551 2.805 . S
Gd1499 N1494 2.622 . S
Gd1499 N1500 2.570 . S
Gd1499 O1531 2.386 . S
Gd1499 O1535 2.307 . S
Gd1499 O1538 2.353 . S
Gd1499 O1539 2.468 . S
Gd1499 O1540 2.427 . S
Gd1499 O1542 2.388 . S
Gd1499 C1563 2.805 . S
N1500 C1490 1.359 . S
N1500 Gd1499 2.570 . S
N1500 C1502 1.343 . S
C1501 C1489 1.422 . S
C1501 C1503 1.321 . S
C1501 H1509 0.931 . S
C1502 N1500 1.343 . S
C1502 C1503 1.390 . S
C1502 H1504 0.931 . S
C1503 C1501 1.321 . S
C1503 C1502 1.390 . S
C1503 H1505 0.930 . S
H1504 C1502 0.931 . S
H1505 C1503 0.930 . S
H1506 C1529 0.931 . S
H1507 C1495 0.929 . S
H1508 C1530 0.930 . S
H1509 C1501 0.931 . S
H1510 C1491 0.930 . S
H1511 C1520 0.929 . S
H1512 C1496 0.931 . S
H1513 C1497 0.930 . S
H1514 C1552 0.930 . S
H1515 C1493 0.929 . S
H1516 C1521 0.931 . S
H1517 C1522 0.930 . S
N1518 Gd1498 2.622 . S
N1518 C1519 1.369 . S
N1518 C1520 1.338 . S
C1519 N1518 1.369 . S
C1519 C1523 1.415 . S
C1519 C1526 1.422 . S
C1520 H1511 0.929 . S
C1520 N1518 1.338 . S
C1520 C1522 1.378 . S
C1521 H1516 0.931 . S
C1521 C1522 1.348 . S
C1521 C1523 1.413 . S
C1522 H1517 0.930 . S
C1522 C1520 1.378 . S
C1522 C1521 1.348 . S
C1523 C1519 1.415 . S
C1523 C1521 1.413 . S
C1523 C1553 1.437 . S
H1524 C1553 0.929 . S
N1525 Gd1498 2.570 . S
N1525 C1526 1.359 . S
N1525 C1529 1.343 . S
C1526 C1519 1.422 . S
C1526 N1525 1.359 . S
C1526 C1528 1.421 . S
C1527 C1528 1.422 . S
C1527 C1530 1.321 . S
C1527 H1554 0.931 . S
C1528 C1526 1.421 . S
C1528 C1527 1.422 . S
C1528 C1552 1.417 . S
C1529 H1506 0.931 . S
C1529 N1525 1.343 . S
C1529 C1530 1.390 . S
C1530 H1508 0.930 . S
C1530 C1527 1.321 . S
C1530 C1529 1.390 . S
O1531 Gd1499 2.386 . S
O1531 C1543 1.265 . S
O1532 Gd1498 2.353 . S
O1532 C1543 1.242 . S
O1533 Gd1498 2.468 . S
O1533 C1551 1.263 . S
O1534 Gd1498 2.427 . S
O1534 C1551 1.252 . S
O1535 Gd1499 2.307 . S
O1535 C1544 1.261 . S
O1536 Gd1498 2.388 . S
O1536 C1544 1.252 . S
O1537 Gd1498 2.386 . S
O1537 C1555 1.265 . S
O1538 Gd1499 2.353 . S
O1538 C1555 1.242 . S
O1539 Gd1499 2.468 . S
O1539 C1563 1.263 . S
O1540 Gd1499 2.427 . S
O1540 C1563 1.252 . S
O1541 Gd1498 2.307 . S
O1541 C1556 1.261 . S
O1542 Gd1499 2.388 . S
O1542 C1556 1.252 . S
C1543 O1531 1.265 . S
C1543 O1532 1.242 . S
C1544 O1535 1.261 . S
C1544 O1536 1.252 . S
C1545 C1548 1.394 . S
C1545 C1550 1.370 . S
C1545 C1551 1.500 . S
C1546 C1549 1.383 . S
C1546 C1550 1.395 . S
C1547 C1548 1.396 . S
C1547 C1549 1.365 . S
C1547 H1564 0.929 . S
C1548 C1545 1.394 . S
C1548 C1547 1.396 . S
C1548 H1565 0.930 . S
C1549 C1546 1.383 . S
C1549 C1547 1.365 . S
C1549 H1566 0.931 . S
C1550 C1545 1.370 . S
C1550 C1546 1.395 . S
C1550 H1567 0.930 . S
C1551 Gd1498 2.805 . S
C1551 O1533 1.263 . S
C1551 O1534 1.252 . S
C1551 C1545 1.500 . S
C1552 H1514 0.930 . S
C1552 C1528 1.417 . S
C1552 C1553 1.329 . S
C1553 C1523 1.437 . S
C1553 H1524 0.929 . S
C1553 C1552 1.329 . S
H1554 C1527 0.931 . S
C1555 O1537 1.265 . S
C1555 O1538 1.242 . S
C1556 O1541 1.261 . S
C1556 O1542 1.252 . S
C1557 C1560 1.394 . S
C1557 C1562 1.370 . S
C1557 C1563 1.500 . S
C1558 C1561 1.383 . S
C1558 C1562 1.395 . S
C1559 C1560 1.396 . S
C1559 C1561 1.365 . S
C1559 H1568 0.929 . S
C1560 C1557 1.394 . S
C1560 C1559 1.396 . S
C1560 H1569 0.930 . S
C1561 C1558 1.383 . S
C1561 C1559 1.365 . S
C1561 H1570 0.931 . S
C1562 C1557 1.370 . S
C1562 C1558 1.395 . S
C1562 H1571 0.930 . S
C1563 Gd1499 2.805 . S
C1563 O1539 1.263 . S
C1563 O1540 1.252 . S
C1563 C1557 1.500 . S
H1564 C1547 0.929 . S
H1565 C1548 0.930 . S
H1566 C1549 0.931 . S
H1567 C1550 0.930 . S
H1568 C1559 0.929 . S
H1569 C1560 0.930 . S
H1570 C1561 0.931 . S
H1571 C1562 0.930 . S
C1572 C1574 1.422 1_556 S
C1572 C1576 1.415 . S
C1572 N1578 1.369 . S
C1573 C1574 1.421 . S
C1573 C1575 1.417 1_554 S
C1573 C1585 1.422 . S
C1574 C1572 1.422 1_554 S
C1574 C1573 1.421 . S
C1574 N1584 1.359 . S
C1575 C1573 1.417 1_556 S
C1575 C1577 1.329 . S
C1575 H1594 0.930 1_556 S
C1576 C1572 1.415 . S
C1576 C1577 1.437 . S
C1576 C1580 1.413 . S
C1577 C1575 1.329 . S
C1577 C1576 1.437 . S
C1577 H1599 0.929 . S
N1578 C1572 1.369 . S
N1578 C1579 1.338 . S
N1578 Gd1583 2.622 1_556 S
C1579 N1578 1.338 . S
C1579 C1581 1.378 . S
C1579 H1591 0.929 . S
C1580 C1576 1.413 . S
C1580 C1581 1.348 . S
C1580 H1596 0.931 . S
C1581 C1579 1.378 . S
C1581 C1580 1.348 . S
C1581 H1597 0.930 . S
Gd1582 N1602 2.622 1_455 S
Gd1582 N1609 2.570 1_455 S
Gd1582 O1616 2.353 . S
Gd1582 O1617 2.468 1_455 S
Gd1582 O1618 2.427 1_455 S
Gd1582 O1620 2.388 . S
Gd1582 O1621 2.386 . S
Gd1582 O1625 2.251 1_554 S
Gd1582 C1635 2.805 1_455 S
Gd1583 N1578 2.622 1_554 S
Gd1583 N1584 2.570 . S
Gd1583 O1615 2.386 . S
Gd1583 O1619 2.307 . S
Gd1583 O1622 2.353 . S
Gd1583 O1623 2.468 . S
Gd1583 O1624 2.427 1_554 S
Gd1583 O1626 2.388 1_554 S
Gd1583 C1647 2.805 1_554 S
N1584 C1574 1.359 . S
N1584 Gd1583 2.570 . S
N1584 C1586 1.343 . S
C1585 C1573 1.422 . S
C1585 C1587 1.321 . S
C1585 H1593 0.931 . S
C1586 N1584 1.343 . S
C1586 C1587 1.390 . S
C1586 H1588 0.931 . S
C1587 C1585 1.321 . S
C1587 C1586 1.390 . S
C1587 H1589 0.930 . S
H1588 C1586 0.931 . S
H1589 C1587 0.930 . S
H1590 C1613 0.931 1_556 S
H1591 C1579 0.929 . S
H1592 C1614 0.930 . S
H1593 C1585 0.931 . S
H1594 C1575 0.930 1_554 S
H1595 C1604 0.913 1_455 S
H1596 C1580 0.931 . S
H1597 C1581 0.930 . S
H1598 C1636 0.930 . S
H1599 C1577 0.929 . S
H1600 C1605 0.931 . S
H1601 C1606 0.930 1_455 S
N1602 Gd1582 2.622 1_655 S
N1602 C1603 1.369 . S
N1602 C1604 1.348 . S
C1603 N1602 1.369 . S
C1603 C1607 1.415 . S
C1603 C1610 1.422 . S
C1604 H1595 0.913 1_655 S
C1604 N1602 1.348 . S
C1604 C1606 1.384 . S
C1605 H1600 0.931 . S
C1605 C1606 1.348 . S
C1605 C1607 1.413 . S
C1606 H1601 0.930 1_655 S
C1606 C1604 1.384 . S
C1606 C1605 1.348 . S
C1607 C1603 1.415 . S
C1607 C1605 1.413 . S
C1607 C1637 1.437 . S
H1608 C1637 0.929 . S
N1609 Gd1582 2.570 1_655 S
N1609 C1610 1.359 . S
N1609 C1613 1.343 . S
C1610 C1603 1.422 . S
C1610 N1609 1.359 . S
C1610 C1612 1.421 . S
C1611 C1612 1.422 . S
C1611 C1614 1.321 1_554 S
C1611 H1638 0.939 . S
C1612 C1610 1.421 . S
C1612 C1611 1.422 . S
C1612 C1636 1.417 . S
C1613 H1590 0.931 1_554 S
C1613 N1609 1.343 . S
C1613 C1614 1.390 1_554 S
C1614 H1592 0.930 . S
C1614 C1611 1.321 1_556 S
C1614 C1613 1.390 1_556 S
O1615 Gd1583 2.386 . S
O1615 C1627 1.265 . S
O1616 Gd1582 2.353 . S
O1616 C1627 1.242 . S
O1617 Gd1582 2.468 1_655 S
O1617 C1635 1.263 . S
O1618 Gd1582 2.427 1_655 S
O1618 C1635 1.252 . S
O1619 Gd1583 2.307 . S
O1619 C1628 1.261 . S
O1620 Gd1582 2.388 . S
O1620 C1628 1.252 . S
O1621 Gd1582 2.386 . S
O1621 C1639 1.265 . S
O1622 Gd1583 2.353 . S
O1622 C1639 1.242 . S
O1623 Gd1583 2.468 . S
O1623 C1647 1.263 1_554 S
O1624 Gd1583 2.427 1_556 S
O1624 C1647 1.252 . S
O1625 Gd1582 2.251 1_556 S
O1625 C1640 1.315 . S
O1626 Gd1583 2.388 1_556 S
O1626 C1640 1.252 . S
C1627 O1615 1.265 . S
C1627 O1616 1.242 . S
C1628 O1619 1.261 . S
C1628 O1620 1.252 . S
C1629 C1632 1.394 . S
C1629 C1634 1.370 . S
C1629 C1635 1.500 . S
C1630 C1633 1.383 . S
C1630 C1634 1.395 . S
C1631 C1632 1.396 . S
C1631 C1633 1.365 . S
C1631 H1648 0.929 . S
C1632 C1629 1.394 . S
C1632 C1631 1.396 . S
C1632 H1649 0.930 . S
C1633 C1630 1.383 . S
C1633 C1631 1.365 . S
C1633 H1650 0.931 . S
C1634 C1629 1.370 . S
C1634 C1630 1.395 . S
C1634 H1651 0.930 . S
C1635 Gd1582 2.805 1_655 S
C1635 O1617 1.263 . S
C1635 O1618 1.252 . S
C1635 C1629 1.500 . S
C1636 H1598 0.930 . S
C1636 C1612 1.417 . S
C1636 C1637 1.329 . S
C1637 C1607 1.437 . S
C1637 H1608 0.929 . S
C1637 C1636 1.329 . S
H1638 C1611 0.939 . S
C1639 O1621 1.265 . S
C1639 O1622 1.242 . S
C1640 O1625 1.315 . S
C1640 O1626 1.252 . S
C1641 C1644 1.394 . S
C1641 C1646 1.370 1_556 S
C1641 C1647 1.500 . S
C1642 C1645 1.383 1_554 S
C1642 C1646 1.395 . S
C1643 C1644 1.396 . S
C1643 C1645 1.365 . S
C1643 H1652 0.929 . S
C1644 C1641 1.394 . S
C1644 C1643 1.396 . S
C1644 H1653 0.930 . S
C1645 C1642 1.383 1_556 S
C1645 C1643 1.365 . S
C1645 H1654 0.931 . S
C1646 C1641 1.370 1_554 S
C1646 C1642 1.395 . S
C1646 H1655 0.930 . S
C1647 Gd1583 2.805 1_556 S
C1647 O1623 1.263 1_556 S
C1647 O1624 1.252 . S
C1647 C1641 1.500 . S
H1648 C1631 0.929 . S
H1649 C1632 0.930 . S
H1650 C1633 0.931 . S
H1651 C1634 0.930 . S
H1652 C1643 0.929 . S
H1653 C1644 0.930 . S
H1654 C1645 0.931 . S
H1655 C1646 0.930 . S
H1656 C1664 0.929 . S
H1657 C1666 0.930 . S
H1658 C1668 0.930 . S
H1659 C1671 0.929 . S
H1660 C1674 0.930 . S
H1661 C1676 0.960 . S
H1662 C1676 0.960 . S
H1663 C1676 0.960 . S
C1664 H1656 0.929 . S
C1664 C1665 1.377 1_455 S
C1664 C1666 1.384 . S
C1665 C1664 1.377 1_655 S
C1665 C1671 1.390 . S
C1666 H1657 0.930 . S
C1666 C1664 1.384 . S
C1666 C1667 1.372 . S
C1667 C1666 1.372 . S
C1667 C1668 1.400 1_455 S
C1667 C1672 1.490 . S
C1668 H1658 0.930 . S
C1668 C1667 1.400 1_655 S
C1668 C1671 1.386 . S
H1669 C1685 0.898 1_655 S
H1670 C1686 0.931 1_655 S
C1671 H1659 0.929 . S
C1671 C1665 1.390 . S
C1671 C1668 1.386 . S
C1672 C1667 1.490 . S
C1672 C1674 1.395 . S
C1672 C1675 1.403 1_455 S
H1673 C1679 0.930 . S
C1674 H1660 0.930 . S
C1674 C1672 1.395 . S
C1674 C1677 1.403 . S
C1675 C1672 1.403 1_655 S
C1675 C1676 1.524 . S
C1675 C1679 1.400 . S
C1676 H1661 0.960 . S
C1676 H1662 0.960 . S
C1676 H1663 0.960 . S
C1676 C1675 1.524 . S
C1677 C1674 1.403 . S
C1677 C1678 1.392 . S
C1677 C1681 1.495 1_556 S
C1678 C1677 1.392 . S
C1678 C1679 1.385 1_455 S
C1678 C1680 1.478 . S
C1679 H1673 0.930 . S
C1679 C1675 1.400 . S
C1679 C1678 1.385 1_655 S
C1680 C1678 1.478 . S
C1680 C1682 1.381 . S
C1680 C1686 1.383 1_556 S
C1681 C1677 1.495 1_554 S
C1681 H1687 0.959 . S
C1681 H1688 0.961 . S
C1681 H1689 0.960 1_554 S
C1682 C1680 1.381 . S
C1682 C1683 1.394 . S
C1682 H1690 0.930 . S
C1683 C1682 1.394 . S
C1683 C1684 1.383 1_556 S
C1683 H1691 0.929 . S
C1684 C1683 1.383 1_554 S
C1684 C1685 1.377 . S
C1685 H1669 0.898 1_455 S
C1685 C1684 1.377 . S
C1685 C1686 1.379 . S
C1686 H1670 0.931 1_455 S
C1686 C1680 1.383 1_554 S
C1686 C1685 1.379 . S
H1687 C1681 0.959 . S
H1688 C1681 0.961 . S
H1689 C1681 0.960 1_556 S
H1690 C1682 0.930 . S
H1691 C1683 0.929 . S
H1692 C1700 0.929 . S
H1693 C1702 0.930 . S
H1694 C1704 0.930 . S
H1695 C1707 0.929 . S
H1696 C1710 0.930 . S
H1697 C1712 0.960 . S
H1698 C1712 0.960 . S
H1699 C1712 0.960 . S
C1700 H1692 0.929 . S
C1700 C1701 1.377 . S
C1700 C1702 1.384 . S
C1701 C1700 1.377 . S
C1701 C1707 1.390 . S
C1702 H1693 0.930 . S
C1702 C1700 1.384 . S
C1702 C1703 1.372 . S
C1703 C1702 1.372 . S
C1703 C1704 1.400 . S
C1703 C1708 1.490 . S
C1704 H1694 0.930 . S
C1704 C1703 1.400 . S
C1704 C1707 1.386 . S
H1705 C1721 0.930 . S
H1706 C1722 0.931 . S
C1707 H1695 0.929 . S
C1707 C1701 1.390 . S
C1707 C1704 1.386 . S
C1708 C1703 1.490 . S
C1708 C1710 1.395 . S
C1708 C1711 1.403 . S
H1709 C1715 0.930 . S
C1710 H1696 0.930 . S
C1710 C1708 1.395 . S
C1710 C1713 1.403 . S
C1711 C1708 1.403 . S
C1711 C1712 1.524 . S
C1711 C1715 1.400 . S
C1712 H1697 0.960 . S
C1712 H1698 0.960 . S
C1712 H1699 0.960 . S
C1712 C1711 1.524 . S
C1713 C1710 1.403 . S
C1713 C1714 1.392 . S
C1713 C1717 1.495 . S
C1714 C1713 1.392 . S
C1714 C1715 1.385 . S
C1714 C1716 1.478 . S
C1715 H1709 0.930 . S
C1715 C1711 1.400 . S
C1715 C1714 1.385 . S
C1716 C1714 1.478 . S
C1716 C1718 1.381 . S
C1716 C1722 1.383 . S
C1717 C1713 1.495 . S
C1717 H1723 0.959 . S
C1717 H1724 0.961 . S
C1717 H1725 0.960 . S
C1718 C1716 1.381 . S
C1718 C1719 1.394 . S
C1718 H1726 0.930 . S
C1719 C1718 1.394 . S
C1719 C1720 1.383 . S
C1719 H1727 0.929 . S
C1720 C1719 1.383 . S
C1720 C1721 1.377 . S
C1721 H1705 0.930 . S
C1721 C1720 1.377 . S
C1721 C1722 1.379 . S
C1722 H1706 0.931 . S
C1722 C1716 1.383 . S
C1722 C1721 1.379 . S
H1723 C1717 0.959 . S
H1724 C1717 0.961 . S
H1725 C1717 0.960 . S
H1726 C1718 0.930 . S
H1727 C1719 0.929 . S
H1728 C1736 0.929 . S
H1729 C1738 0.930 . S
H1730 C1740 0.930 . S
H1731 C1743 0.929 . S
H1732 C1746 0.930 . S
H1733 C1748 0.960 . S
H1734 C1748 0.960 . S
H1735 C1748 0.960 . S
C1736 H1728 0.929 . S
C1736 C1737 1.377 . S
C1736 C1738 1.384 . S
C1737 C1736 1.377 . S
C1737 C1743 1.390 . S
C1738 H1729 0.930 . S
C1738 C1736 1.384 . S
C1738 C1739 1.372 . S
C1739 C1738 1.372 . S
C1739 C1740 1.400 . S
C1739 C1744 1.490 . S
C1740 H1730 0.930 . S
C1740 C1739 1.400 . S
C1740 C1743 1.386 . S
H1741 C1757 0.930 . S
H1742 C1758 0.931 . S
C1743 H1731 0.929 . S
C1743 C1737 1.390 . S
C1743 C1740 1.386 . S
C1744 C1739 1.490 . S
C1744 C1746 1.395 . S
C1744 C1747 1.403 . S
H1745 C1751 0.930 . S
C1746 H1732 0.930 . S
C1746 C1744 1.395 . S
C1746 C1749 1.403 . S
C1747 C1744 1.403 . S
C1747 C1748 1.524 . S
C1747 C1751 1.400 . S
C1748 H1733 0.960 . S
C1748 H1734 0.960 . S
C1748 H1735 0.960 . S
C1748 C1747 1.524 . S
C1749 C1746 1.403 . S
C1749 C1750 1.392 . S
C1749 C1753 1.495 . S
C1750 C1749 1.392 . S
C1750 C1751 1.385 . S
C1750 C1752 1.478 . S
C1751 H1745 0.930 . S
C1751 C1747 1.400 . S
C1751 C1750 1.385 . S
C1752 C1750 1.478 . S
C1752 C1754 1.381 . S
C1752 C1758 1.383 . S
C1753 C1749 1.495 . S
C1753 H1759 0.959 . S
C1753 H1760 0.961 . S
C1753 H1761 0.960 . S
C1754 C1752 1.381 . S
C1754 C1755 1.394 . S
C1754 H1762 0.930 . S
C1755 C1754 1.394 . S
C1755 C1756 1.383 . S
C1755 H1763 0.929 . S
C1756 C1755 1.383 . S
C1756 C1757 1.377 . S
C1757 H1741 0.930 . S
C1757 C1756 1.377 . S
C1757 C1758 1.379 . S
C1758 H1742 0.931 . S
C1758 C1752 1.383 . S
C1758 C1757 1.379 . S
H1759 C1753 0.959 . S
H1760 C1753 0.961 . S
H1761 C1753 0.960 . S
H1762 C1754 0.930 . S
H1763 C1755 0.929 . S
H1764 C1772 0.929 . S
H1765 C1774 0.930 . S
H1766 C1776 0.930 . S
H1767 C1779 0.929 . S
H1768 C1782 0.930 . S
H1769 C1784 0.960 . S
H1770 C1784 0.960 . S
H1771 C1784 0.960 . S
C1772 H1764 0.929 . S
C1772 C1773 1.377 . S
C1772 C1774 1.384 . S
C1773 C1772 1.377 . S
C1773 C1779 1.390 . S
C1774 H1765 0.930 . S
C1774 C1772 1.384 . S
C1774 C1775 1.372 . S
C1775 C1774 1.372 . S
C1775 C1776 1.400 . S
C1775 C1780 1.490 . S
C1776 H1766 0.930 . S
C1776 C1775 1.400 . S
C1776 C1779 1.386 . S
H1777 C1793 0.930 . S
H1778 C1794 0.931 . S
C1779 H1767 0.929 . S
C1779 C1773 1.390 . S
C1779 C1776 1.386 . S
C1780 C1775 1.490 . S
C1780 C1782 1.395 . S
C1780 C1783 1.403 . S
H1781 C1787 0.930 . S
C1782 H1768 0.930 . S
C1782 C1780 1.395 . S
C1782 C1785 1.403 . S
C1783 C1780 1.403 . S
C1783 C1784 1.524 . S
C1783 C1787 1.400 . S
C1784 H1769 0.960 . S
C1784 H1770 0.960 . S
C1784 H1771 0.960 . S
C1784 C1783 1.524 . S
C1785 C1782 1.403 . S
C1785 C1786 1.392 . S
C1785 C1789 1.495 . S
C1786 C1785 1.392 . S
C1786 C1787 1.385 . S
C1786 C1788 1.478 . S
C1787 H1781 0.930 . S
C1787 C1783 1.400 . S
C1787 C1786 1.385 . S
C1788 C1786 1.478 . S
C1788 C1790 1.381 . S
C1788 C1794 1.383 . S
C1789 C1785 1.495 . S
C1789 H1795 0.959 . S
C1789 H1796 0.961 . S
C1789 H1797 0.960 . S
C1790 C1788 1.381 . S
C1790 C1791 1.394 . S
C1790 H1798 0.930 . S
C1791 C1790 1.394 . S
C1791 C1792 1.383 . S
C1791 H1799 0.929 . S
C1792 C1791 1.383 . S
C1792 C1793 1.377 . S
C1793 H1777 0.930 . S
C1793 C1792 1.377 . S
C1793 C1794 1.379 . S
C1794 H1778 0.931 . S
C1794 C1788 1.383 . S
C1794 C1793 1.379 . S
H1795 C1789 0.959 . S
H1796 C1789 0.961 . S
H1797 C1789 0.960 . S
H1798 C1790 0.930 . S
H1799 C1791 0.929 . S
H1800 C1808 0.929 . S
H1801 C1810 0.930 . S
H1802 C1812 0.930 1_655 S
H1803 C1815 0.929 1_655 S
H1804 C1818 0.930 . S
H1805 C1820 0.960 . S
H1806 C1820 0.960 . S
H1807 C1820 0.960 . S
C1808 H1800 0.929 . S
C1808 C1809 1.377 . S
C1808 C1810 1.384 . S
C1809 C1808 1.377 . S
C1809 C1815 1.390 . S
C1810 H1801 0.930 . S
C1810 C1808 1.384 . S
C1810 C1811 1.372 . S
C1811 C1810 1.372 . S
C1811 C1812 1.400 . S
C1811 C1816 1.490 . S
C1812 H1802 0.930 1_455 S
C1812 C1811 1.400 . S
C1812 C1815 1.386 . S
H1813 C1829 0.930 . S
H1814 C1830 0.931 . S
C1815 H1803 0.929 1_455 S
C1815 C1809 1.390 . S
C1815 C1812 1.386 . S
C1816 C1811 1.490 . S
C1816 C1818 1.395 . S
C1816 C1819 1.403 . S
H1817 C1823 0.930 1_655 S
C1818 H1804 0.930 . S
C1818 C1816 1.395 . S
C1818 C1821 1.403 . S
C1819 C1816 1.403 . S
C1819 C1820 1.524 1_455 S
C1819 C1823 1.400 . S
C1820 H1805 0.960 . S
C1820 H1806 0.960 . S
C1820 H1807 0.960 . S
C1820 C1819 1.524 1_655 S
C1821 C1818 1.403 . S
C1821 C1822 1.392 . S
C1821 C1825 1.495 . S
C1822 C1821 1.392 . S
C1822 C1823 1.385 . S
C1822 C1824 1.478 . S
C1823 H1817 0.930 1_455 S
C1823 C1819 1.400 . S
C1823 C1822 1.385 . S
C1824 C1822 1.478 . S
C1824 C1826 1.381 . S
C1824 C1830 1.383 . S
C1825 C1821 1.495 . S
C1825 H1831 0.959 . S
C1825 H1832 0.961 . S
C1825 H1833 0.960 . S
C1826 C1824 1.381 . S
C1826 C1827 1.394 . S
C1826 H1834 0.930 . S
C1827 C1826 1.394 . S
C1827 C1828 1.383 . S
C1827 H1835 0.929 . S
C1828 C1827 1.383 . S
C1828 C1829 1.377 . S
C1829 H1813 0.930 . S
C1829 C1828 1.377 . S
C1829 C1830 1.379 . S
C1830 H1814 0.931 . S
C1830 C1824 1.383 . S
C1830 C1829 1.379 . S
H1831 C1825 0.959 . S
H1832 C1825 0.961 . S
H1833 C1825 0.960 . S
H1834 C1826 0.930 . S
H1835 C1827 0.929 . S
H1836 C1844 0.929 . S
H1837 C1846 0.930 . S
H1838 C1848 0.930 . S
H1839 C1851 0.929 . S
H1840 C1854 0.930 . S
H1841 C1856 0.960 . S
H1842 C1856 0.960 . S
H1843 C1856 0.960 . S
C1844 H1836 0.929 . S
C1844 C1845 1.377 . S
C1844 C1846 1.384 . S
C1845 C1844 1.377 . S
C1845 C1851 1.390 . S
C1846 H1837 0.930 . S
C1846 C1844 1.384 . S
C1846 C1847 1.372 . S
C1847 C1846 1.372 . S
C1847 C1848 1.400 . S
C1847 C1852 1.490 . S
C1848 H1838 0.930 . S
C1848 C1847 1.400 . S
C1848 C1851 1.386 . S
H1849 C1865 0.930 . S
H1850 C1866 0.931 . S
C1851 H1839 0.929 . S
C1851 C1845 1.390 . S
C1851 C1848 1.386 . S
C1852 C1847 1.490 . S
C1852 C1854 1.395 . S
C1852 C1855 1.403 . S
H1853 C1859 0.930 . S
C1854 H1840 0.930 . S
C1854 C1852 1.395 . S
C1854 C1857 1.403 . S
C1855 C1852 1.403 . S
C1855 C1856 1.524 . S
C1855 C1859 1.400 . S
C1856 H1841 0.960 . S
C1856 H1842 0.960 . S
C1856 H1843 0.960 . S
C1856 C1855 1.524 . S
C1857 C1854 1.403 . S
C1857 C1858 1.392 . S
C1857 C1861 1.495 . S
C1858 C1857 1.392 . S
C1858 C1859 1.385 . S
C1858 C1860 1.478 . S
C1859 H1853 0.930 . S
C1859 C1855 1.400 . S
C1859 C1858 1.385 . S
C1860 C1858 1.478 . S
C1860 C1862 1.381 . S
C1860 C1866 1.383 . S
C1861 C1857 1.495 . S
C1861 H1867 0.959 . S
C1861 H1868 0.961 . S
C1861 H1869 0.960 . S
C1862 C1860 1.381 . S
C1862 C1863 1.394 . S
C1862 H1870 0.930 . S
C1863 C1862 1.394 . S
C1863 C1864 1.383 . S
C1863 H1871 0.929 . S
C1864 C1863 1.383 . S
C1864 C1865 1.377 . S
C1865 H1849 0.930 . S
C1865 C1864 1.377 . S
C1865 C1866 1.379 . S
C1866 H1850 0.931 . S
C1866 C1860 1.383 . S
C1866 C1865 1.379 . S
H1867 C1861 0.959 . S
H1868 C1861 0.961 . S
H1869 C1861 0.960 . S
H1870 C1862 0.930 . S
H1871 C1863 0.929 . S
H1872 C1880 0.929 . S
H1873 C1882 0.930 . S
H1874 C1884 0.930 . S
H1875 C1887 0.929 . S
H1876 C1890 0.930 . S
H1877 C1892 0.960 . S
H1878 C1892 0.960 . S
H1879 C1892 0.960 . S
C1880 H1872 0.929 . S
C1880 C1881 1.377 . S
C1880 C1882 1.384 . S
C1881 C1880 1.377 . S
C1881 C1887 1.390 . S
C1882 H1873 0.930 . S
C1882 C1880 1.384 . S
C1882 C1883 1.372 . S
C1883 C1882 1.372 . S
C1883 C1884 1.400 . S
C1883 C1888 1.490 . S
C1884 H1874 0.930 . S
C1884 C1883 1.400 . S
C1884 C1887 1.386 . S
H1885 C1901 0.930 . S
H1886 C1902 0.931 . S
C1887 H1875 0.929 . S
C1887 C1881 1.390 . S
C1887 C1884 1.386 . S
C1888 C1883 1.490 . S
C1888 C1890 1.395 . S
C1888 C1891 1.403 . S
H1889 C1895 0.930 . S
C1890 H1876 0.930 . S
C1890 C1888 1.395 . S
C1890 C1893 1.403 . S
C1891 C1888 1.403 . S
C1891 C1892 1.524 . S
C1891 C1895 1.400 . S
C1892 H1877 0.960 . S
C1892 H1878 0.960 . S
C1892 H1879 0.960 . S
C1892 C1891 1.524 . S
C1893 C1890 1.403 . S
C1893 C1894 1.392 . S
C1893 C1897 1.495 . S
C1894 C1893 1.392 . S
C1894 C1895 1.385 . S
C1894 C1896 1.478 . S
C1895 H1889 0.930 . S
C1895 C1891 1.400 . S
C1895 C1894 1.385 . S
C1896 C1894 1.478 . S
C1896 C1898 1.381 . S
C1896 C1902 1.383 . S
C1897 C1893 1.495 . S
C1897 H1903 0.959 . S
C1897 H1904 0.961 . S
C1897 H1905 0.960 . S
C1898 C1896 1.381 . S
C1898 C1899 1.394 . S
C1898 H1906 0.930 . S
C1899 C1898 1.394 . S
C1899 C1900 1.383 . S
C1899 H1907 0.929 . S
C1900 C1899 1.383 . S
C1900 C1901 1.377 . S
C1901 H1885 0.930 . S
C1901 C1900 1.377 . S
C1901 C1902 1.379 . S
C1902 H1886 0.931 . S
C1902 C1896 1.383 . S
C1902 C1901 1.379 . S
H1903 C1897 0.959 . S
H1904 C1897 0.961 . S
H1905 C1897 0.960 . S
H1906 C1898 0.930 . S
H1907 C1899 0.929 . S
H1908 C1916 0.929 . S
H1909 C1918 0.930 . S
H1910 C1920 0.930 . S
H1911 C1923 0.929 . S
H1912 C1926 0.930 . S
H1913 C1928 0.960 . S
H1914 C1928 0.960 . S
H1915 C1928 0.960 . S
C1916 H1908 0.929 . S
C1916 C1917 1.377 . S
C1916 C1918 1.384 . S
C1917 C1916 1.377 . S
C1917 C1923 1.390 . S
C1918 H1909 0.930 . S
C1918 C1916 1.384 . S
C1918 C1919 1.372 . S
C1919 C1918 1.372 . S
C1919 C1920 1.400 . S
C1919 C1924 1.490 . S
C1920 H1910 0.930 . S
C1920 C1919 1.400 . S
C1920 C1923 1.386 . S
H1921 C1937 0.930 . S
H1922 C1938 0.931 . S
C1923 H1911 0.929 . S
C1923 C1917 1.390 . S
C1923 C1920 1.386 . S
C1924 C1919 1.490 . S
C1924 C1926 1.395 . S
C1924 C1927 1.403 . S
H1925 C1931 0.930 . S
C1926 H1912 0.930 . S
C1926 C1924 1.395 . S
C1926 C1929 1.403 . S
C1927 C1924 1.403 . S
C1927 C1928 1.524 . S
C1927 C1931 1.400 . S
C1928 H1913 0.960 . S
C1928 H1914 0.960 . S
C1928 H1915 0.960 . S
C1928 C1927 1.524 . S
C1929 C1926 1.403 . S
C1929 C1930 1.392 . S
C1929 C1933 1.495 . S
C1930 C1929 1.392 . S
C1930 C1931 1.385 . S
C1930 C1932 1.478 . S
C1931 H1925 0.930 . S
C1931 C1927 1.400 . S
C1931 C1930 1.385 . S
C1932 C1930 1.478 . S
C1932 C1934 1.381 . S
C1932 C1938 1.383 . S
C1933 C1929 1.495 . S
C1933 H1939 0.959 . S
C1933 H1940 0.961 . S
C1933 H1941 0.960 . S
C1934 C1932 1.381 . S
C1934 C1935 1.394 . S
C1934 H1942 0.930 . S
C1935 C1934 1.394 . S
C1935 C1936 1.383 . S
C1935 H1943 0.929 . S
C1936 C1935 1.383 . S
C1936 C1937 1.377 . S
C1937 H1921 0.930 . S
C1937 C1936 1.377 . S
C1937 C1938 1.379 . S
C1938 H1922 0.931 . S
C1938 C1932 1.383 . S
C1938 C1937 1.379 . S
H1939 C1933 0.959 . S
H1940 C1933 0.961 . S
H1941 C1933 0.960 . S
H1942 C1934 0.930 . S
H1943 C1935 0.929 . S
H1944 C1952 0.929 1_565 S
H1945 C1954 0.930 1_565 S
H1946 C1956 0.930 . S
H1947 C1959 0.929 . S
H1948 C1962 0.930 1_565 S
H1949 C1964 0.960 . S
H1950 C1964 0.960 . S
H1951 C1964 0.960 . S
C1952 H1944 0.929 1_545 S
C1952 C1953 1.377 . S
C1952 C1954 1.384 . S
C1953 C1952 1.377 . S
C1953 C1959 1.390 . S
C1954 H1945 0.930 1_545 S
C1954 C1952 1.384 . S
C1954 C1955 1.372 . S
C1955 C1954 1.372 . S
C1955 C1956 1.400 . S
C1955 C1960 1.490 . S
C1956 H1946 0.930 . S
C1956 C1955 1.400 . S
C1956 C1959 1.386 . S
H1957 C1973 0.930 . S
H1958 C1974 0.931 . S
C1959 H1947 0.929 . S
C1959 C1953 1.390 . S
C1959 C1956 1.386 . S
C1960 C1955 1.490 . S
C1960 C1962 1.395 . S
C1960 C1963 1.403 . S
H1961 C1967 0.930 . S
C1962 H1948 0.930 1_545 S
C1962 C1960 1.395 . S
C1962 C1965 1.403 . S
C1963 C1960 1.403 . S
C1963 C1964 1.524 . S
C1963 C1967 1.400 . S
C1964 H1949 0.960 . S
C1964 H1950 0.960 . S
C1964 H1951 0.960 . S
C1964 C1963 1.524 . S
C1965 C1962 1.403 . S
C1965 C1966 1.392 . S
C1965 C1969 1.495 1_545 S
C1966 C1965 1.392 . S
C1966 C1967 1.385 . S
C1966 C1968 1.478 . S
C1967 H1961 0.930 . S
C1967 C1963 1.400 . S
C1967 C1966 1.385 . S
C1968 C1966 1.478 . S
C1968 C1970 1.381 . S
C1968 C1974 1.383 . S
C1969 C1965 1.495 1_565 S
C1969 H1975 0.959 . S
C1969 H1976 0.961 . S
C1969 H1977 0.960 . S
C1970 C1968 1.381 . S
C1970 C1971 1.394 1_655 S
C1970 H1978 0.931 1_545 S
C1971 C1970 1.394 1_455 S
C1971 C1972 1.390 . S
C1971 H1979 0.929 . S
C1972 C1971 1.390 . S
C1972 C1973 1.360 1_455 S
C1973 H1957 0.930 . S
C1973 C1972 1.360 1_655 S
C1973 C1974 1.379 . S
C1974 H1958 0.931 . S
C1974 C1968 1.383 . S
C1974 C1973 1.379 . S
H1975 C1969 0.959 . S
H1976 C1969 0.961 . S
H1977 C1969 0.960 . S
H1978 C1970 0.931 1_565 S
H1979 C1971 0.929 . S
H1980 C1988 0.929 . S
H1981 C1990 0.930 . S
H1982 C1992 0.930 . S
H1983 C1995 0.929 . S
H1984 C1998 0.930 . S
H1985 C2000 0.960 . S
H1986 C2000 0.960 . S
H1987 C2000 0.960 . S
C1988 H1980 0.929 . S
C1988 C1989 1.377 . S
C1988 C1990 1.384 . S
C1989 C1988 1.377 . S
C1989 C1995 1.390 . S
C1990 H1981 0.930 . S
C1990 C1988 1.384 . S
C1990 C1991 1.372 . S
C1991 C1990 1.372 . S
C1991 C1992 1.400 . S
C1991 C1996 1.490 . S
C1992 H1982 0.930 . S
C1992 C1991 1.400 . S
C1992 C1995 1.386 . S
H1993 C2009 0.930 . S
H1994 C2010 0.931 . S
C1995 H1983 0.929 . S
C1995 C1989 1.390 . S
C1995 C1992 1.386 . S
C1996 C1991 1.490 . S
C1996 C1998 1.395 . S
C1996 C1999 1.403 . S
H1997 C2003 0.930 . S
C1998 H1984 0.930 . S
C1998 C1996 1.395 . S
C1998 C2001 1.403 . S
C1999 C1996 1.403 . S
C1999 C2000 1.524 . S
C1999 C2003 1.400 . S
C2000 H1985 0.960 . S
C2000 H1986 0.960 . S
C2000 H1987 0.960 . S
C2000 C1999 1.524 . S
C2001 C1998 1.403 . S
C2001 C2002 1.392 . S
C2001 C2005 1.495 . S
C2002 C2001 1.392 . S
C2002 C2003 1.385 . S
C2002 C2004 1.478 . S
C2003 H1997 0.930 . S
C2003 C1999 1.400 . S
C2003 C2002 1.385 . S
C2004 C2002 1.478 . S
C2004 C2006 1.381 . S
C2004 C2010 1.383 . S
C2005 C2001 1.495 . S
C2005 H2011 0.959 . S
C2005 H2012 0.961 . S
C2005 H2013 0.960 . S
C2006 C2004 1.381 . S
C2006 C2007 1.394 . S
C2006 H2014 0.930 . S
C2007 C2006 1.394 . S
C2007 C2008 1.383 . S
C2007 H2015 0.929 . S
C2008 C2007 1.383 . S
C2008 C2009 1.377 . S
C2009 H1993 0.930 . S
C2009 C2008 1.377 . S
C2009 C2010 1.379 . S
C2010 H1994 0.931 . S
C2010 C2004 1.383 . S
C2010 C2009 1.379 . S
H2011 C2005 0.959 . S
H2012 C2005 0.961 . S
H2013 C2005 0.960 . S
H2014 C2006 0.930 . S
H2015 C2007 0.929 . S
H2016 C2024 0.929 . S
H2017 C2026 0.930 . S
H2018 C2028 0.930 . S
H2019 C2031 0.929 . S
H2020 C2034 0.930 . S
H2021 C2036 0.960 . S
H2022 C2036 0.960 . S
H2023 C2036 0.960 1_545 S
C2024 H2016 0.929 . S
C2024 C2025 1.377 . S
C2024 C2026 1.384 . S
C2025 C2024 1.377 . S
C2025 C2031 1.390 . S
C2026 H2017 0.930 . S
C2026 C2024 1.384 . S
C2026 C2027 1.372 . S
C2027 C2026 1.372 . S
C2027 C2028 1.400 . S
C2027 C2032 1.490 . S
C2028 H2018 0.930 . S
C2028 C2027 1.400 . S
C2028 C2031 1.386 . S
H2029 C2045 0.930 . S
H2030 C2046 0.931 . S
C2031 H2019 0.929 . S
C2031 C2025 1.390 . S
C2031 C2028 1.386 . S
C2032 C2027 1.490 . S
C2032 C2034 1.395 . S
C2032 C2035 1.403 . S
H2033 C2039 0.930 . S
C2034 H2020 0.930 . S
C2034 C2032 1.395 . S
C2034 C2037 1.403 . S
C2035 C2032 1.403 . S
C2035 C2036 1.524 1_545 S
C2035 C2039 1.400 . S
C2036 H2021 0.960 . S
C2036 H2022 0.960 . S
C2036 H2023 0.960 1_565 S
C2036 C2035 1.524 1_565 S
C2037 C2034 1.403 . S
C2037 C2038 1.392 . S
C2037 C2041 1.495 . S
C2038 C2037 1.392 . S
C2038 C2039 1.385 . S
C2038 C2040 1.478 . S
C2039 H2033 0.930 . S
C2039 C2035 1.400 . S
C2039 C2038 1.385 . S
C2040 C2038 1.478 . S
C2040 C2042 1.381 . S
C2040 C2046 1.383 . S
C2041 C2037 1.495 . S
C2041 H2047 0.959 . S
C2041 H2048 0.961 . S
C2041 H2049 0.960 . S
C2042 C2040 1.381 . S
C2042 C2043 1.394 . S
C2042 H2050 0.930 . S
C2043 C2042 1.394 . S
C2043 C2044 1.383 . S
C2043 H2051 0.929 . S
C2044 C2043 1.383 . S
C2044 C2045 1.377 . S
C2045 H2029 0.930 . S
C2045 C2044 1.377 . S
C2045 C2046 1.379 . S
C2046 H2030 0.931 . S
C2046 C2040 1.383 . S
C2046 C2045 1.379 . S
H2047 C2041 0.959 . S
H2048 C2041 0.961 . S
H2049 C2041 0.960 . S
H2050 C2042 0.930 . S
H2051 C2043 0.929 . S
H2052 C2060 0.929 . S
H2053 C2062 0.930 . S
H2054 C2064 0.930 . S
H2055 C2067 0.929 . S
H2056 C2070 0.930 . S
H2057 C2072 0.960 . S
H2058 C2072 0.960 . S
H2059 C2072 0.960 . S
C2060 H2052 0.929 . S
C2060 C2061 1.377 . S
C2060 C2062 1.384 . S
C2061 C2060 1.377 . S
C2061 C2067 1.390 . S
C2062 H2053 0.930 . S
C2062 C2060 1.384 . S
C2062 C2063 1.372 . S
C2063 C2062 1.372 . S
C2063 C2064 1.400 . S
C2063 C2068 1.490 . S
C2064 H2054 0.930 . S
C2064 C2063 1.400 . S
C2064 C2067 1.386 . S
H2065 C2081 0.930 . S
H2066 C2082 0.931 . S
C2067 H2055 0.929 . S
C2067 C2061 1.390 . S
C2067 C2064 1.386 . S
C2068 C2063 1.490 . S
C2068 C2070 1.395 . S
C2068 C2071 1.403 . S
H2069 C2075 0.930 . S
C2070 H2056 0.930 . S
C2070 C2068 1.395 . S
C2070 C2073 1.403 . S
C2071 C2068 1.403 . S
C2071 C2072 1.524 . S
C2071 C2075 1.400 . S
C2072 H2057 0.960 . S
C2072 H2058 0.960 . S
C2072 H2059 0.960 . S
C2072 C2071 1.524 . S
C2073 C2070 1.403 . S
C2073 C2074 1.392 . S
C2073 C2077 1.495 . S
C2074 C2073 1.392 . S
C2074 C2075 1.385 . S
C2074 C2076 1.478 . S
C2075 H2069 0.930 . S
C2075 C2071 1.400 . S
C2075 C2074 1.385 . S
C2076 C2074 1.478 . S
C2076 C2078 1.381 . S
C2076 C2082 1.383 . S
C2077 C2073 1.495 . S
C2077 H2083 0.959 . S
C2077 H2084 0.961 . S
C2077 H2085 0.960 . S
C2078 C2076 1.381 . S
C2078 C2079 1.394 . S
C2078 H2086 0.930 . S
C2079 C2078 1.394 . S
C2079 C2080 1.383 . S
C2079 H2087 0.929 . S
C2080 C2079 1.383 . S
C2080 C2081 1.377 . S
C2081 H2065 0.930 . S
C2081 C2080 1.377 . S
C2081 C2082 1.379 . S
C2082 H2066 0.931 . S
C2082 C2076 1.383 . S
C2082 C2081 1.379 . S
H2083 C2077 0.959 . S
H2084 C2077 0.961 . S
H2085 C2077 0.960 . S
H2086 C2078 0.930 . S
H2087 C2079 0.929 . S
H2088 C2096 0.929 1_565 S
H2089 C2098 0.930 1_565 S
H2090 C2100 0.930 . S
H2091 C2103 0.929 . S
H2092 C2106 0.930 1_565 S
H2093 C2108 0.960 . S
H2094 C2108 0.960 . S
H2095 C2108 0.960 . S
C2096 H2088 0.929 1_545 S
C2096 C2097 1.377 . S
C2096 C2098 1.384 . S
C2097 C2096 1.377 . S
C2097 C2103 1.390 . S
C2098 H2089 0.930 1_545 S
C2098 C2096 1.384 . S
C2098 C2099 1.372 . S
C2099 C2098 1.372 . S
C2099 C2100 1.400 . S
C2099 C2104 1.490 . S
C2100 H2090 0.930 . S
C2100 C2099 1.400 . S
C2100 C2103 1.386 . S
H2101 C2117 0.930 . S
H2102 C2118 0.931 . S
C2103 H2091 0.929 . S
C2103 C2097 1.390 . S
C2103 C2100 1.386 . S
C2104 C2099 1.490 . S
C2104 C2106 1.395 . S
C2104 C2107 1.403 . S
H2105 C2111 0.930 . S
C2106 H2092 0.930 1_545 S
C2106 C2104 1.395 . S
C2106 C2109 1.403 . S
C2107 C2104 1.403 . S
C2107 C2108 1.524 . S
C2107 C2111 1.400 . S
C2108 H2093 0.960 . S
C2108 H2094 0.960 . S
C2108 H2095 0.960 . S
C2108 C2107 1.524 . S
C2109 C2106 1.403 . S
C2109 C2110 1.392 . S
C2109 C2113 1.495 1_545 S
C2110 C2109 1.392 . S
C2110 C2111 1.385 . S
C2110 C2112 1.478 . S
C2111 H2105 0.930 . S
C2111 C2107 1.400 . S
C2111 C2110 1.385 . S
C2112 C2110 1.478 . S
C2112 C2114 1.381 . S
C2112 C2118 1.383 1_655 S
C2113 C2109 1.495 1_565 S
C2113 H2119 0.959 . S
C2113 H2120 0.961 1_655 S
C2113 H2121 0.960 . S
C2114 C2112 1.381 . S
C2114 C2115 1.394 . S
C2114 H2122 0.930 1_545 S
C2115 C2114 1.394 . S
C2115 C2116 1.383 1_655 S
C2115 H2123 0.929 1_545 S
C2116 C2115 1.383 1_455 S
C2116 C2117 1.377 . S
C2117 H2101 0.930 . S
C2117 C2116 1.377 . S
C2117 C2118 1.379 . S
C2118 H2102 0.931 . S
C2118 C2112 1.383 1_455 S
C2118 C2117 1.379 . S
H2119 C2113 0.959 . S
H2120 C2113 0.961 1_455 S
H2121 C2113 0.960 . S
H2122 C2114 0.930 1_565 S
H2123 C2115 0.929 1_565 S
H2124 C2132 0.929 . S
H2125 C2134 0.930 . S
H2126 C2136 0.930 . S
H2127 C2139 0.929 . S
H2128 C2142 0.930 . S
H2129 C2144 0.960 . S
H2130 C2144 0.960 . S
H2131 C2144 0.960 . S
C2132 H2124 0.929 . S
C2132 C2133 1.377 . S
C2132 C2134 1.384 . S
C2133 C2132 1.377 . S
C2133 C2139 1.390 . S
C2134 H2125 0.930 . S
C2134 C2132 1.384 . S
C2134 C2135 1.372 . S
C2135 C2134 1.372 . S
C2135 C2136 1.400 . S
C2135 C2140 1.490 . S
C2136 H2126 0.930 . S
C2136 C2135 1.400 . S
C2136 C2139 1.386 . S
H2137 C2153 0.930 . S
H2138 C2154 0.931 . S
C2139 H2127 0.929 . S
C2139 C2133 1.390 . S
C2139 C2136 1.386 . S
C2140 C2135 1.490 . S
C2140 C2142 1.395 . S
C2140 C2143 1.403 . S
H2141 C2147 0.930 . S
C2142 H2128 0.930 . S
C2142 C2140 1.395 . S
C2142 C2145 1.403 . S
C2143 C2140 1.403 . S
C2143 C2144 1.524 . S
C2143 C2147 1.400 . S
C2144 H2129 0.960 . S
C2144 H2130 0.960 . S
C2144 H2131 0.960 . S
C2144 C2143 1.524 . S
C2145 C2142 1.403 . S
C2145 C2146 1.392 . S
C2145 C2149 1.495 . S
C2146 C2145 1.392 . S
C2146 C2147 1.385 . S
C2146 C2148 1.478 . S
C2147 H2141 0.930 . S
C2147 C2143 1.400 . S
C2147 C2146 1.385 . S
C2148 C2146 1.478 . S
C2148 C2150 1.381 . S
C2148 C2154 1.383 . S
C2149 C2145 1.495 . S
C2149 H2155 0.959 . S
C2149 H2156 0.961 . S
C2149 H2157 0.960 . S
C2150 C2148 1.381 . S
C2150 C2151 1.394 . S
C2150 H2158 0.930 . S
C2151 C2150 1.394 . S
C2151 C2152 1.383 . S
C2151 H2159 0.929 . S
C2152 C2151 1.383 . S
C2152 C2153 1.377 . S
C2153 H2137 0.930 . S
C2153 C2152 1.377 . S
C2153 C2154 1.379 . S
C2154 H2138 0.931 . S
C2154 C2148 1.383 . S
C2154 C2153 1.379 . S
H2155 C2149 0.959 . S
H2156 C2149 0.961 . S
H2157 C2149 0.960 . S
H2158 C2150 0.930 . S
H2159 C2151 0.929 . S
H2160 C2168 0.929 . S
H2161 C2170 0.930 . S
H2162 C2172 0.930 . S
H2163 C2175 0.929 . S
H2164 C2178 0.930 . S
H2165 C2180 0.960 1_565 S
H2166 C2180 0.929 1_565 S
H2167 C2180 0.960 . S
C2168 H2160 0.929 . S
C2168 C2169 1.377 . S
C2168 C2170 1.384 . S
C2169 C2168 1.377 . S
C2169 C2175 1.390 . S
C2170 H2161 0.930 . S
C2170 C2168 1.384 . S
C2170 C2171 1.372 . S
C2171 C2170 1.372 . S
C2171 C2172 1.400 . S
C2171 C2176 1.490 . S
C2172 H2162 0.930 . S
C2172 C2171 1.400 . S
C2172 C2175 1.386 . S
H2173 C2189 0.930 . S
H2174 C2190 0.931 . S
C2175 H2163 0.929 . S
C2175 C2169 1.390 . S
C2175 C2172 1.386 . S
C2176 C2171 1.490 . S
C2176 C2178 1.395 . S
C2176 C2179 1.403 . S
H2177 C2183 0.930 . S
C2178 H2164 0.930 . S
C2178 C2176 1.395 . S
C2178 C2181 1.403 . S
C2179 C2176 1.403 . S
C2179 C2180 1.524 . S
C2179 C2183 1.400 . S
C2180 H2165 0.960 1_545 S
C2180 H2166 0.929 1_545 S
C2180 H2167 0.960 . S
C2180 C2179 1.524 . S
C2181 C2178 1.403 . S
C2181 C2182 1.392 . S
C2181 C2185 1.495 . S
C2182 C2181 1.392 . S
C2182 C2183 1.385 . S
C2182 C2184 1.478 . S
C2183 H2177 0.930 . S
C2183 C2179 1.400 . S
C2183 C2182 1.385 . S
C2184 C2182 1.478 . S
C2184 C2186 1.381 . S
C2184 C2190 1.383 . S
C2185 C2181 1.495 . S
C2185 H2191 0.959 . S
C2185 H2192 0.961 . S
C2185 H2193 0.960 . S
C2186 C2184 1.381 . S
C2186 C2187 1.394 . S
C2186 H2194 0.930 . S
C2187 C2186 1.394 . S
C2187 C2188 1.383 . S
C2187 H2195 0.929 . S
C2188 C2187 1.383 . S
C2188 C2189 1.377 . S
C2189 H2173 0.930 . S
C2189 C2188 1.377 . S
C2189 C2190 1.379 . S
C2190 H2174 0.931 . S
C2190 C2184 1.383 . S
C2190 C2189 1.379 . S
H2191 C2185 0.959 . S
H2192 C2185 0.961 . S
H2193 C2185 0.960 . S
H2194 C2186 0.930 . S
H2195 C2187 0.929 . S
H2196 C2204 0.929 . S
H2197 C2206 0.930 . S
H2198 C2208 0.930 . S
H2199 C2211 0.929 . S
H2200 C2214 0.930 . S
H2201 C2216 0.960 . S
H2202 C2216 0.960 . S
H2203 C2216 0.960 . S
C2204 H2196 0.929 . S
C2204 C2205 1.377 . S
C2204 C2206 1.384 . S
C2205 C2204 1.377 . S
C2205 C2211 1.390 . S
C2206 H2197 0.930 . S
C2206 C2204 1.384 . S
C2206 C2207 1.372 . S
C2207 C2206 1.372 . S
C2207 C2208 1.400 . S
C2207 C2212 1.490 . S
C2208 H2198 0.930 . S
C2208 C2207 1.400 . S
C2208 C2211 1.386 . S
H2209 C2225 0.930 . S
H2210 C2226 0.931 . S
C2211 H2199 0.929 . S
C2211 C2205 1.390 . S
C2211 C2208 1.386 . S
C2212 C2207 1.490 . S
C2212 C2214 1.395 . S
C2212 C2215 1.403 . S
H2213 C2219 0.930 . S
C2214 H2200 0.930 . S
C2214 C2212 1.395 . S
C2214 C2217 1.403 . S
C2215 C2212 1.403 . S
C2215 C2216 1.524 . S
C2215 C2219 1.400 . S
C2216 H2201 0.960 . S
C2216 H2202 0.960 . S
C2216 H2203 0.960 . S
C2216 C2215 1.524 . S
C2217 C2214 1.403 . S
C2217 C2218 1.392 . S
C2217 C2221 1.495 . S
C2218 C2217 1.392 . S
C2218 C2219 1.385 . S
C2218 C2220 1.478 . S
C2219 H2213 0.930 . S
C2219 C2215 1.400 . S
C2219 C2218 1.385 . S
C2220 C2218 1.478 . S
C2220 C2222 1.381 . S
C2220 C2226 1.383 . S
C2221 C2217 1.495 . S
C2221 H2227 0.959 . S
C2221 H2228 0.961 . S
C2221 H2229 0.960 . S
C2222 C2220 1.381 . S
C2222 C2223 1.394 . S
C2222 H2230 0.930 . S
C2223 C2222 1.394 . S
C2223 C2224 1.383 . S
C2223 H2231 0.929 . S
C2224 C2223 1.383 . S
C2224 C2225 1.377 . S
C2225 H2209 0.930 . S
C2225 C2224 1.377 . S
C2225 C2226 1.379 . S
C2226 H2210 0.931 . S
C2226 C2220 1.383 . S
C2226 C2225 1.379 . S
H2227 C2221 0.959 . S
H2228 C2221 0.961 . S
H2229 C2221 0.960 . S
H2230 C2222 0.930 . S
H2231 C2223 0.929 . S
H2232 C2240 0.929 . S
H2233 C2242 0.930 . S
H2234 C2244 0.930 . S
H2235 C2247 0.929 . S
H2236 C2250 0.930 . S
H2237 C2252 0.960 . S
H2238 C2252 0.960 . S
H2239 C2252 0.960 . S
C2240 H2232 0.929 . S
C2240 C2241 1.377 1_554 S
C2240 C2242 1.384 . S
C2241 C2240 1.377 1_556 S
C2241 C2247 1.390 . S
C2242 H2233 0.930 . S
C2242 C2240 1.384 . S
C2242 C2243 1.372 . S
C2243 C2242 1.372 . S
C2243 C2244 1.400 1_554 S
C2243 C2248 1.490 . S
C2244 H2234 0.930 . S
C2244 C2243 1.400 1_556 S
C2244 C2247 1.386 . S
H2245 C2261 0.892 1_546 S
H2246 C2262 0.931 1_556 S
C2247 H2235 0.929 . S
C2247 C2241 1.390 . S
C2247 C2244 1.386 . S
C2248 C2243 1.490 . S
C2248 C2250 1.395 . S
C2248 C2251 1.403 1_554 S
H2249 C2255 0.930 1_556 S
C2250 H2236 0.930 . S
C2250 C2248 1.395 . S
C2250 C2253 1.403 . S
C2251 C2248 1.403 1_556 S
C2251 C2252 1.524 . S
C2251 C2255 1.400 1_556 S
C2252 H2237 0.960 . S
C2252 H2238 0.960 . S
C2252 H2239 0.960 . S
C2252 C2251 1.524 . S
C2253 C2250 1.403 . S
C2253 C2254 1.392 . S
C2253 C2257 1.495 . S
C2254 C2253 1.392 . S
C2254 C2255 1.385 . S
C2254 C2256 1.478 . S
C2255 H2249 0.930 1_554 S
C2255 C2251 1.400 1_554 S
C2255 C2254 1.385 . S
C2256 C2254 1.478 . S
C2256 C2258 1.381 . S
C2256 C2262 1.383 . S
C2257 C2253 1.495 . S
C2257 H2263 0.959 . S
C2257 H2264 0.961 1_565 S
C2257 H2265 0.960 . S
C2258 C2256 1.381 . S
C2258 C2259 1.394 . S
C2258 H2266 0.930 . S
C2259 C2258 1.394 . S
C2259 C2260 1.383 . S
C2259 H2267 0.929 . S
C2260 C2259 1.383 . S
C2260 C2261 1.377 . S
C2261 H2245 0.892 1_564 S
C2261 C2260 1.377 . S
C2261 C2262 1.379 . S
C2262 H2246 0.931 1_554 S
C2262 C2256 1.383 . S
C2262 C2261 1.379 . S
H2263 C2257 0.959 . S
H2264 C2257 0.961 1_545 S
H2265 C2257 0.960 . S
H2266 C2258 0.930 . S
H2267 C2259 0.929 . S
H2268 C2276 0.929 . S
H2269 C2278 0.930 . S
H2270 C2280 0.930 . S
H2271 C2283 0.929 . S
H2272 C2286 0.945 . S
H2273 C2288 0.960 . S
H2274 C2288 0.960 . S
H2275 C2288 0.960 . S
C2276 H2268 0.929 . S
C2276 C2277 1.377 1_556 S
C2276 C2278 1.384 . S
C2277 C2276 1.377 1_554 S
C2277 C2283 1.390 . S
C2278 H2269 0.930 . S
C2278 C2276 1.384 . S
C2278 C2279 1.372 1_556 S
C2279 C2278 1.372 1_554 S
C2279 C2280 1.400 . S
C2279 C2284 1.490 . S
C2280 H2270 0.930 . S
C2280 C2279 1.400 . S
C2280 C2283 1.386 . S
H2281 C2297 0.930 . S
H2282 C2298 0.931 . S
C2283 H2271 0.929 . S
C2283 C2277 1.390 . S
C2283 C2280 1.386 . S
C2284 C2279 1.490 . S
C2284 C2286 1.395 . S
C2284 C2287 1.403 . S
H2285 C2291 0.930 . S
C2286 H2272 0.945 . S
C2286 C2284 1.395 . S
C2286 C2289 1.403 . S
C2287 C2284 1.403 . S
C2287 C2288 1.524 . S
C2287 C2291 1.400 . S
C2288 H2273 0.960 . S
C2288 H2274 0.960 . S
C2288 H2275 0.960 . S
C2288 C2287 1.524 . S
C2289 C2286 1.403 . S
C2289 C2290 1.392 . S
C2289 C2293 1.495 . S
C2290 C2289 1.392 . S
C2290 C2291 1.385 . S
C2290 C2292 1.478 . S
C2291 H2285 0.930 . S
C2291 C2287 1.400 . S
C2291 C2290 1.385 . S
C2292 C2290 1.478 . S
C2292 C2294 1.381 1_554 S
C2292 C2298 1.383 . S
C2293 C2289 1.495 . S
C2293 H2299 0.959 1_554 S
C2293 H2300 0.961 . S
C2293 H2301 0.960 1_554 S
C2294 C2292 1.381 1_556 S
C2294 C2295 1.394 . S
C2294 H2302 0.930 . S
C2295 C2294 1.394 . S
C2295 C2296 1.383 1_556 S
C2295 H2303 0.929 . S
C2296 C2295 1.383 1_554 S
C2296 C2297 1.377 . S
C2297 H2281 0.930 . S
C2297 C2296 1.377 . S
C2297 C2298 1.379 . S
C2298 H2282 0.931 . S
C2298 C2292 1.383 . S
C2298 C2297 1.379 . S
H2299 C2293 0.959 1_556 S
H2300 C2293 0.961 . S
H2301 C2293 0.960 1_556 S
H2302 C2294 0.930 . S
H2303 C2295 0.929 . S
H2304 C2312 0.929 . S
H2305 C2314 0.930 . S
H2306 C2316 0.930 . S
H2307 C2319 0.929 . S
H2308 C2322 0.930 . S
H2309 C2324 0.960 . S
H2310 C2324 0.960 . S
H2311 C2324 0.960 . S
C2312 H2304 0.929 . S
C2312 C2313 1.377 . S
C2312 C2314 1.384 . S
C2313 C2312 1.377 . S
C2313 C2319 1.390 . S
C2314 H2305 0.930 . S
C2314 C2312 1.384 . S
C2314 C2315 1.372 . S
C2315 C2314 1.372 . S
C2315 C2316 1.400 . S
C2315 C2320 1.490 . S
C2316 H2306 0.930 . S
C2316 C2315 1.400 . S
C2316 C2319 1.386 . S
H2317 C2333 0.930 . S
H2318 C2334 0.931 . S
C2319 H2307 0.929 . S
C2319 C2313 1.390 . S
C2319 C2316 1.386 . S
C2320 C2315 1.490 . S
C2320 C2322 1.395 . S
C2320 C2323 1.403 . S
H2321 C2327 0.930 . S
C2322 H2308 0.930 . S
C2322 C2320 1.395 . S
C2322 C2325 1.403 . S
C2323 C2320 1.403 . S
C2323 C2324 1.524 . S
C2323 C2327 1.400 . S
C2324 H2309 0.960 . S
C2324 H2310 0.960 . S
C2324 H2311 0.960 . S
C2324 C2323 1.524 . S
C2325 C2322 1.403 . S
C2325 C2326 1.392 . S
C2325 C2329 1.495 . S
C2326 C2325 1.392 . S
C2326 C2327 1.385 . S
C2326 C2328 1.478 . S
C2327 H2321 0.930 . S
C2327 C2323 1.400 . S
C2327 C2326 1.385 . S
C2328 C2326 1.478 . S
C2328 C2330 1.381 . S
C2328 C2334 1.383 . S
C2329 C2325 1.495 . S
C2329 H2335 0.959 . S
C2329 H2336 0.961 . S
C2329 H2337 0.960 . S
C2330 C2328 1.381 . S
C2330 C2331 1.394 . S
C2330 H2338 0.930 . S
C2331 C2330 1.394 . S
C2331 C2332 1.383 . S
C2331 H2339 0.929 . S
C2332 C2331 1.383 . S
C2332 C2333 1.377 . S
C2333 H2317 0.930 . S
C2333 C2332 1.377 . S
C2333 C2334 1.379 . S
C2334 H2318 0.931 . S
C2334 C2328 1.383 . S
C2334 C2333 1.379 . S
H2335 C2329 0.959 . S
H2336 C2329 0.961 . S
H2337 C2329 0.960 . S
H2338 C2330 0.930 . S
H2339 C2331 0.929 . S
H2340 C2348 0.929 . S
H2341 C2350 0.930 . S
H2342 C2352 0.930 . S
H2343 C2355 0.929 . S
H2344 C2358 0.930 . S
H2345 C2360 0.960 . S
H2346 C2360 0.960 . S
H2347 C2360 0.960 . S
C2348 H2340 0.929 . S
C2348 C2349 1.377 . S
C2348 C2350 1.384 . S
C2349 C2348 1.377 . S
C2349 C2355 1.390 . S
C2350 H2341 0.930 . S
C2350 C2348 1.384 . S
C2350 C2351 1.372 . S
C2351 C2350 1.372 . S
C2351 C2352 1.400 . S
C2351 C2356 1.490 . S
C2352 H2342 0.930 . S
C2352 C2351 1.400 . S
C2352 C2355 1.386 . S
H2353 C2369 0.930 . S
H2354 C2370 0.931 . S
C2355 H2343 0.929 . S
C2355 C2349 1.390 . S
C2355 C2352 1.386 . S
C2356 C2351 1.490 . S
C2356 C2358 1.395 . S
C2356 C2359 1.403 . S
H2357 C2363 0.930 . S
C2358 H2344 0.930 . S
C2358 C2356 1.395 . S
C2358 C2361 1.403 . S
C2359 C2356 1.403 . S
C2359 C2360 1.524 . S
C2359 C2363 1.400 . S
C2360 H2345 0.960 . S
C2360 H2346 0.960 . S
C2360 H2347 0.960 . S
C2360 C2359 1.524 . S
C2361 C2358 1.403 . S
C2361 C2362 1.392 . S
C2361 C2365 1.495 . S
C2362 C2361 1.392 . S
C2362 C2363 1.385 . S
C2362 C2364 1.478 . S
C2363 H2357 0.930 . S
C2363 C2359 1.400 . S
C2363 C2362 1.385 . S
C2364 C2362 1.478 . S
C2364 C2366 1.381 . S
C2364 C2370 1.383 . S
C2365 C2361 1.495 . S
C2365 H2371 0.959 . S
C2365 H2372 0.961 . S
C2365 H2373 0.960 . S
C2366 C2364 1.381 . S
C2366 C2367 1.394 . S
C2366 H2374 0.930 . S
C2367 C2366 1.394 . S
C2367 C2368 1.383 . S
C2367 H2375 0.929 . S
C2368 C2367 1.383 . S
C2368 C2369 1.377 . S
C2369 H2353 0.930 . S
C2369 C2368 1.377 . S
C2369 C2370 1.379 . S
C2370 H2354 0.931 . S
C2370 C2364 1.383 . S
C2370 C2369 1.379 . S
H2371 C2365 0.959 . S
H2372 C2365 0.961 . S
H2373 C2365 0.960 . S
H2374 C2366 0.930 . S
H2375 C2367 0.929 . S
H2376 C2384 0.929 . S
H2377 C2386 0.930 . S
H2378 C2388 0.930 . S
H2379 C2391 0.929 . S
H2380 C2394 0.930 . S
H2381 C2396 0.960 . S
H2382 C2396 0.960 . S
H2383 C2396 0.960 . S
C2384 H2376 0.929 . S
C2384 C2385 1.377 . S
C2384 C2386 1.384 . S
C2385 C2384 1.377 . S
C2385 C2391 1.390 . S
C2386 H2377 0.930 . S
C2386 C2384 1.384 . S
C2386 C2387 1.372 . S
C2387 C2386 1.372 . S
C2387 C2388 1.400 . S
C2387 C2392 1.490 . S
C2388 H2378 0.930 . S
C2388 C2387 1.400 . S
C2388 C2391 1.386 . S
H2389 C2405 0.930 . S
H2390 C2406 0.931 . S
C2391 H2379 0.929 . S
C2391 C2385 1.390 . S
C2391 C2388 1.386 . S
C2392 C2387 1.490 . S
C2392 C2394 1.395 . S
C2392 C2395 1.403 . S
H2393 C2399 0.930 . S
C2394 H2380 0.930 . S
C2394 C2392 1.395 . S
C2394 C2397 1.403 . S
C2395 C2392 1.403 . S
C2395 C2396 1.524 . S
C2395 C2399 1.400 . S
C2396 H2381 0.960 . S
C2396 H2382 0.960 . S
C2396 H2383 0.960 . S
C2396 C2395 1.524 . S
C2397 C2394 1.403 . S
C2397 C2398 1.392 . S
C2397 C2401 1.495 . S
C2398 C2397 1.392 . S
C2398 C2399 1.385 . S
C2398 C2400 1.478 . S
C2399 H2393 0.930 . S
C2399 C2395 1.400 . S
C2399 C2398 1.385 . S
C2400 C2398 1.478 . S
C2400 C2402 1.381 . S
C2400 C2406 1.383 . S
C2401 C2397 1.495 . S
C2401 H2407 0.959 . S
C2401 H2408 0.961 . S
C2401 H2409 0.960 . S
C2402 C2400 1.381 . S
C2402 C2403 1.394 . S
C2402 H2410 0.930 . S
C2403 C2402 1.394 . S
C2403 C2404 1.383 . S
C2403 H2411 0.929 . S
C2404 C2403 1.383 . S
C2404 C2405 1.377 . S
C2405 H2389 0.930 . S
C2405 C2404 1.377 . S
C2405 C2406 1.379 . S
C2406 H2390 0.931 . S
C2406 C2400 1.383 . S
C2406 C2405 1.379 . S
H2407 C2401 0.959 . S
H2408 C2401 0.961 . S
H2409 C2401 0.960 . S
H2410 C2402 0.930 . S
H2411 C2403 0.929 . S
H2412 C2420 0.929 . S
H2413 C2422 0.930 . S
H2414 C2424 0.930 . S
H2415 C2427 0.929 . S
H2416 C2430 0.930 . S
H2417 C2432 0.960 . S
H2418 C2432 0.960 . S
H2419 C2432 0.960 . S
C2420 H2412 0.929 . S
C2420 C2421 1.377 . S
C2420 C2422 1.384 . S
C2421 C2420 1.377 . S
C2421 C2427 1.390 . S
C2422 H2413 0.930 . S
C2422 C2420 1.384 . S
C2422 C2423 1.372 . S
C2423 C2422 1.372 . S
C2423 C2424 1.400 . S
C2423 C2428 1.490 . S
C2424 H2414 0.930 . S
C2424 C2423 1.400 . S
C2424 C2427 1.386 . S
H2425 C2441 0.930 . S
H2426 C2442 0.931 . S
C2427 H2415 0.929 . S
C2427 C2421 1.390 . S
C2427 C2424 1.386 . S
C2428 C2423 1.490 . S
C2428 C2430 1.395 . S
C2428 C2431 1.403 . S
H2429 C2435 0.930 . S
C2430 H2416 0.930 . S
C2430 C2428 1.395 . S
C2430 C2433 1.403 . S
C2431 C2428 1.403 . S
C2431 C2432 1.524 . S
C2431 C2435 1.400 . S
C2432 H2417 0.960 . S
C2432 H2418 0.960 . S
C2432 H2419 0.960 . S
C2432 C2431 1.524 . S
C2433 C2430 1.403 . S
C2433 C2434 1.392 . S
C2433 C2437 1.495 . S
C2434 C2433 1.392 . S
C2434 C2435 1.385 . S
C2434 C2436 1.478 . S
C2435 H2429 0.930 . S
C2435 C2431 1.400 . S
C2435 C2434 1.385 . S
C2436 C2434 1.478 . S
C2436 C2438 1.381 . S
C2436 C2442 1.383 . S
C2437 C2433 1.495 . S
C2437 H2443 0.959 . S
C2437 H2444 0.961 . S
C2437 H2445 0.960 . S
C2438 C2436 1.381 . S
C2438 C2439 1.394 . S
C2438 H2446 0.930 . S
C2439 C2438 1.394 . S
C2439 C2440 1.383 . S
C2439 H2447 0.929 . S
C2440 C2439 1.383 . S
C2440 C2441 1.377 . S
C2441 H2425 0.930 . S
C2441 C2440 1.377 . S
C2441 C2442 1.379 . S
C2442 H2426 0.931 . S
C2442 C2436 1.383 . S
C2442 C2441 1.379 . S
H2443 C2437 0.959 . S
H2444 C2437 0.961 . S
H2445 C2437 0.960 . S
H2446 C2438 0.930 . S
H2447 C2439 0.929 . S
H2448 C2456 0.929 . S
H2449 C2458 0.930 . S
H2450 C2460 0.930 . S
H2451 C2463 0.929 . S
H2452 C2466 0.930 . S
H2453 C2468 0.960 . S
H2454 C2468 0.960 . S
H2455 C2468 0.960 . S
C2456 H2448 0.929 . S
C2456 C2457 1.377 . S
C2456 C2458 1.384 . S
C2457 C2456 1.377 . S
C2457 C2463 1.390 . S
C2458 H2449 0.930 . S
C2458 C2456 1.384 . S
C2458 C2459 1.372 . S
C2459 C2458 1.372 . S
C2459 C2460 1.400 . S
C2459 C2464 1.490 . S
C2460 H2450 0.930 . S
C2460 C2459 1.400 . S
C2460 C2463 1.386 . S
H2461 C2477 0.930 . S
H2462 C2478 0.931 . S
C2463 H2451 0.929 . S
C2463 C2457 1.390 . S
C2463 C2460 1.386 . S
C2464 C2459 1.490 . S
C2464 C2466 1.395 . S
C2464 C2467 1.403 . S
H2465 C2471 0.930 . S
C2466 H2452 0.930 . S
C2466 C2464 1.395 . S
C2466 C2469 1.403 . S
C2467 C2464 1.403 . S
C2467 C2468 1.524 . S
C2467 C2471 1.400 . S
C2468 H2453 0.960 . S
C2468 H2454 0.960 . S
C2468 H2455 0.960 . S
C2468 C2467 1.524 . S
C2469 C2466 1.403 . S
C2469 C2470 1.392 . S
C2469 C2473 1.495 . S
C2470 C2469 1.392 . S
C2470 C2471 1.385 . S
C2470 C2472 1.478 . S
C2471 H2465 0.930 . S
C2471 C2467 1.400 . S
C2471 C2470 1.385 . S
C2472 C2470 1.478 . S
C2472 C2474 1.381 . S
C2472 C2478 1.383 . S
C2473 C2469 1.495 . S
C2473 H2479 0.959 . S
C2473 H2480 0.961 . S
C2473 H2481 0.960 . S
C2474 C2472 1.381 . S
C2474 C2475 1.394 . S
C2474 H2482 0.930 . S
C2475 C2474 1.394 . S
C2475 C2476 1.383 . S
C2475 H2483 0.929 . S
C2476 C2475 1.383 . S
C2476 C2477 1.377 . S
C2477 H2461 0.930 . S
C2477 C2476 1.377 . S
C2477 C2478 1.379 . S
C2478 H2462 0.931 . S
C2478 C2472 1.383 . S
C2478 C2477 1.379 . S
H2479 C2473 0.959 . S
H2480 C2473 0.961 . S
H2481 C2473 0.960 . S
H2482 C2474 0.930 . S
H2483 C2475 0.929 . S
H2484 C2492 0.929 . S
H2485 C2494 0.930 . S
H2486 C2496 0.930 . S
H2487 C2499 0.929 . S
H2488 C2502 0.930 . S
H2489 C2504 0.960 . S
H2490 C2504 0.960 . S
H2491 C2504 0.960 . S
C2492 H2484 0.929 . S
C2492 C2493 1.377 . S
C2492 C2494 1.384 . S
C2493 C2492 1.377 . S
C2493 C2499 1.390 . S
C2494 H2485 0.930 . S
C2494 C2492 1.384 . S
C2494 C2495 1.372 . S
C2495 C2494 1.372 . S
C2495 C2496 1.400 . S
C2495 C2500 1.490 . S
C2496 H2486 0.930 . S
C2496 C2495 1.400 . S
C2496 C2499 1.386 . S
H2497 C2513 0.930 . S
H2498 C2514 0.931 . S
C2499 H2487 0.929 . S
C2499 C2493 1.390 . S
C2499 C2496 1.386 . S
C2500 C2495 1.490 . S
C2500 C2502 1.395 . S
C2500 C2503 1.403 . S
H2501 C2507 0.930 . S
C2502 H2488 0.930 . S
C2502 C2500 1.395 . S
C2502 C2505 1.403 . S
C2503 C2500 1.403 . S
C2503 C2504 1.524 . S
C2503 C2507 1.400 . S
C2504 H2489 0.960 . S
C2504 H2490 0.960 . S
C2504 H2491 0.960 . S
C2504 C2503 1.524 . S
C2505 C2502 1.403 . S
C2505 C2506 1.392 . S
C2505 C2509 1.495 . S
C2506 C2505 1.392 . S
C2506 C2507 1.385 . S
C2506 C2508 1.478 . S
C2507 H2501 0.930 . S
C2507 C2503 1.400 . S
C2507 C2506 1.385 . S
C2508 C2506 1.478 . S
C2508 C2510 1.381 . S
C2508 C2514 1.383 . S
C2509 C2505 1.495 . S
C2509 H2515 0.959 . S
C2509 H2516 0.961 . S
C2509 H2517 0.960 . S
C2510 C2508 1.381 . S
C2510 C2511 1.394 . S
C2510 H2518 0.930 . S
C2511 C2510 1.394 . S
C2511 C2512 1.383 . S
C2511 H2519 0.929 . S
C2512 C2511 1.383 . S
C2512 C2513 1.377 . S
C2513 H2497 0.930 . S
C2513 C2512 1.377 . S
C2513 C2514 1.379 . S
C2514 H2498 0.931 . S
C2514 C2508 1.383 . S
C2514 C2513 1.379 . S
H2515 C2509 0.959 . S
H2516 C2509 0.961 . S
H2517 C2509 0.960 . S
H2518 C2510 0.930 . S
H2519 C2511 0.929 . S
H2520 C2528 0.929 . S
H2521 C2530 0.930 . S
H2522 C2532 0.930 . S
H2523 C2535 0.929 . S
H2524 C2538 0.930 . S
H2525 C2540 0.960 1_655 S
H2526 C2540 0.960 . S
H2527 C2540 0.960 . S
C2528 H2520 0.929 . S
C2528 C2529 1.377 . S
C2528 C2530 1.384 . S
C2529 C2528 1.377 . S
C2529 C2535 1.390 . S
C2530 H2521 0.930 . S
C2530 C2528 1.384 . S
C2530 C2531 1.372 . S
C2531 C2530 1.372 . S
C2531 C2532 1.400 . S
C2531 C2536 1.490 . S
C2532 H2522 0.930 . S
C2532 C2531 1.400 . S
C2532 C2535 1.386 . S
H2533 C2549 0.930 . S
H2534 C2550 0.931 . S
C2535 H2523 0.929 . S
C2535 C2529 1.390 . S
C2535 C2532 1.386 . S
C2536 C2531 1.490 . S
C2536 C2538 1.395 . S
C2536 C2539 1.403 . S
H2537 C2543 0.930 . S
C2538 H2524 0.930 . S
C2538 C2536 1.395 . S
C2538 C2541 1.403 . S
C2539 C2536 1.403 . S
C2539 C2540 1.524 . S
C2539 C2543 1.400 . S
C2540 H2525 0.960 1_455 S
C2540 H2526 0.960 . S
C2540 H2527 0.960 . S
C2540 C2539 1.524 . S
C2541 C2538 1.403 . S
C2541 C2542 1.392 . S
C2541 C2545 1.495 . S
C2542 C2541 1.392 . S
C2542 C2543 1.385 . S
C2542 C2544 1.478 . S
C2543 H2537 0.930 . S
C2543 C2539 1.400 . S
C2543 C2542 1.385 . S
C2544 C2542 1.478 . S
C2544 C2546 1.381 . S
C2544 C2550 1.383 . S
C2545 C2541 1.495 . S
C2545 H2551 0.959 . S
C2545 H2552 0.961 . S
C2545 H2553 0.960 . S
C2546 C2544 1.381 . S
C2546 C2547 1.394 . S
C2546 H2554 0.930 . S
C2547 C2546 1.394 . S
C2547 C2548 1.383 . S
C2547 H2555 0.929 . S
C2548 C2547 1.383 . S
C2548 C2549 1.377 . S
C2549 H2533 0.930 . S
C2549 C2548 1.377 . S
C2549 C2550 1.379 . S
C2550 H2534 0.931 . S
C2550 C2544 1.383 . S
C2550 C2549 1.379 . S
H2551 C2545 0.959 . S
H2552 C2545 0.961 . S
H2553 C2545 0.960 . S
H2554 C2546 0.930 . S
H2555 C2547 0.929 . S
H2556 C2564 0.929 . S
H2557 C2566 0.930 . S
H2558 C2568 0.930 . S
H2559 C2571 0.929 . S
H2560 C2574 0.930 . S
H2561 C2576 0.960 . S
H2562 C2576 0.960 . S
H2563 C2576 0.960 . S
C2564 H2556 0.929 . S
C2564 C2565 1.377 . S
C2564 C2566 1.384 . S
C2565 C2564 1.377 . S
C2565 C2571 1.390 . S
C2566 H2557 0.930 . S
C2566 C2564 1.384 . S
C2566 C2567 1.372 . S
C2567 C2566 1.372 . S
C2567 C2568 1.400 . S
C2567 C2572 1.490 . S
C2568 H2558 0.930 . S
C2568 C2567 1.400 . S
C2568 C2571 1.386 . S
H2569 C2585 0.930 . S
H2570 C2586 0.931 . S
C2571 H2559 0.929 . S
C2571 C2565 1.390 . S
C2571 C2568 1.386 . S
C2572 C2567 1.490 . S
C2572 C2574 1.395 . S
C2572 C2575 1.403 . S
H2573 C2579 0.930 . S
C2574 H2560 0.930 . S
C2574 C2572 1.395 . S
C2574 C2577 1.403 . S
C2575 C2572 1.403 . S
C2575 C2576 1.524 . S
C2575 C2579 1.400 . S
C2576 H2561 0.960 . S
C2576 H2562 0.960 . S
C2576 H2563 0.960 . S
C2576 C2575 1.524 . S
C2577 C2574 1.403 . S
C2577 C2578 1.392 . S
C2577 C2581 1.495 . S
C2578 C2577 1.392 . S
C2578 C2579 1.385 . S
C2578 C2580 1.478 . S
C2579 H2573 0.930 . S
C2579 C2575 1.400 . S
C2579 C2578 1.385 . S
C2580 C2578 1.478 . S
C2580 C2582 1.381 . S
C2580 C2586 1.383 . S
C2581 C2577 1.495 . S
C2581 H2587 0.959 . S
C2581 H2588 0.961 . S
C2581 H2589 0.960 . S
C2582 C2580 1.381 . S
C2582 C2583 1.394 . S
C2582 H2590 0.930 . S
C2583 C2582 1.394 . S
C2583 C2584 1.383 . S
C2583 H2591 0.929 . S
C2584 C2583 1.383 . S
C2584 C2585 1.377 . S
C2585 H2569 0.930 . S
C2585 C2584 1.377 . S
C2585 C2586 1.379 . S
C2586 H2570 0.931 . S
C2586 C2580 1.383 . S
C2586 C2585 1.379 . S
H2587 C2581 0.959 . S
H2588 C2581 0.961 . S
H2589 C2581 0.960 . S
H2590 C2582 0.930 . S
H2591 C2583 0.929 . S
H2592 C2600 0.929 . S
H2593 C2602 0.930 . S
H2594 C2604 0.930 . S
H2595 C2607 0.929 . S
H2596 C2610 0.930 . S
H2597 C2612 0.960 . S
H2598 C2612 0.960 . S
H2599 C2612 0.960 . S
C2600 H2592 0.929 . S
C2600 C2601 1.377 . S
C2600 C2602 1.384 . S
C2601 C2600 1.377 . S
C2601 C2607 1.390 . S
C2602 H2593 0.930 . S
C2602 C2600 1.384 . S
C2602 C2603 1.372 . S
C2603 C2602 1.372 . S
C2603 C2604 1.400 . S
C2603 C2608 1.490 . S
C2604 H2594 0.930 . S
C2604 C2603 1.400 . S
C2604 C2607 1.386 . S
H2605 C2621 0.930 . S
H2606 C2622 0.931 . S
C2607 H2595 0.929 . S
C2607 C2601 1.390 . S
C2607 C2604 1.386 . S
C2608 C2603 1.490 . S
C2608 C2610 1.395 . S
C2608 C2611 1.403 . S
H2609 C2615 0.930 . S
C2610 H2596 0.930 . S
C2610 C2608 1.395 . S
C2610 C2613 1.403 . S
C2611 C2608 1.403 . S
C2611 C2612 1.524 . S
C2611 C2615 1.400 . S
C2612 H2597 0.960 . S
C2612 H2598 0.960 . S
C2612 H2599 0.960 . S
C2612 C2611 1.524 . S
C2613 C2610 1.403 . S
C2613 C2614 1.392 . S
C2613 C2617 1.495 . S
C2614 C2613 1.392 . S
C2614 C2615 1.385 . S
C2614 C2616 1.478 . S
C2615 H2609 0.930 . S
C2615 C2611 1.400 . S
C2615 C2614 1.385 . S
C2616 C2614 1.478 . S
C2616 C2618 1.381 . S
C2616 C2622 1.383 . S
C2617 C2613 1.495 . S
C2617 H2623 0.959 . S
C2617 H2624 0.961 . S
C2617 H2625 0.960 . S
C2618 C2616 1.381 . S
C2618 C2619 1.394 . S
C2618 H2626 0.930 . S
C2619 C2618 1.394 . S
C2619 C2620 1.383 . S
C2619 H2627 0.929 . S
C2620 C2619 1.383 . S
C2620 C2621 1.377 . S
C2621 H2605 0.930 . S
C2621 C2620 1.377 . S
C2621 C2622 1.379 . S
C2622 H2606 0.931 . S
C2622 C2616 1.383 . S
C2622 C2621 1.379 . S
H2623 C2617 0.959 . S
H2624 C2617 0.961 . S
H2625 C2617 0.960 . S
H2626 C2618 0.930 . S
H2627 C2619 0.929 . S
H2628 C2636 0.929 . S
H2629 C2638 0.930 . S
H2630 C2640 0.930 . S
H2631 C2643 0.929 . S
H2632 C2646 0.930 . S
H2633 C2648 0.960 . S
H2634 C2648 0.960 . S
H2635 C2648 0.960 . S
C2636 H2628 0.929 . S
C2636 C2637 1.377 . S
C2636 C2638 1.384 . S
C2637 C2636 1.377 . S
C2637 C2643 1.390 . S
C2638 H2629 0.930 . S
C2638 C2636 1.384 . S
C2638 C2639 1.372 . S
C2639 C2638 1.372 . S
C2639 C2640 1.400 . S
C2639 C2644 1.490 . S
C2640 H2630 0.930 . S
C2640 C2639 1.400 . S
C2640 C2643 1.386 . S
H2641 C2657 0.930 . S
H2642 C2658 0.931 . S
C2643 H2631 0.929 . S
C2643 C2637 1.390 . S
C2643 C2640 1.386 . S
C2644 C2639 1.490 . S
C2644 C2646 1.395 . S
C2644 C2647 1.403 . S
H2645 C2651 0.930 . S
C2646 H2632 0.930 . S
C2646 C2644 1.395 . S
C2646 C2649 1.403 . S
C2647 C2644 1.403 . S
C2647 C2648 1.524 . S
C2647 C2651 1.400 . S
C2648 H2633 0.960 . S
C2648 H2634 0.960 . S
C2648 H2635 0.960 . S
C2648 C2647 1.524 . S
C2649 C2646 1.403 . S
C2649 C2650 1.392 . S
C2649 C2653 1.495 . S
C2650 C2649 1.392 . S
C2650 C2651 1.385 . S
C2650 C2652 1.478 . S
C2651 H2645 0.930 . S
C2651 C2647 1.400 . S
C2651 C2650 1.385 . S
C2652 C2650 1.478 . S
C2652 C2654 1.381 . S
C2652 C2658 1.383 . S
C2653 C2649 1.495 . S
C2653 H2659 0.959 . S
C2653 H2660 0.961 . S
C2653 H2661 0.960 . S
C2654 C2652 1.381 . S
C2654 C2655 1.394 . S
C2654 H2662 0.930 . S
C2655 C2654 1.394 . S
C2655 C2656 1.383 . S
C2655 H2663 0.929 . S
C2656 C2655 1.383 . S
C2656 C2657 1.377 . S
C2657 H2641 0.930 . S
C2657 C2656 1.377 . S
C2657 C2658 1.379 . S
C2658 H2642 0.931 . S
C2658 C2652 1.383 . S
C2658 C2657 1.379 . S
H2659 C2653 0.959 . S
H2660 C2653 0.961 . S
H2661 C2653 0.960 . S
H2662 C2654 0.930 . S
H2663 C2655 0.929 . S
H2664 C2672 0.929 . S
H2665 C2674 0.967 . S
H2666 C2676 0.930 . S
H2667 C2679 0.929 . S
H2668 C2682 0.930 . S
H2669 C2684 0.960 . S
H2670 C2684 0.960 . S
H2671 C2684 0.960 . S
C2672 H2664 0.929 . S
C2672 C2673 1.377 . S
C2672 C2674 1.384 . S
C2673 C2672 1.377 . S
C2673 C2679 1.390 . S
C2674 H2665 0.967 . S
C2674 C2672 1.384 . S
C2674 C2675 1.372 . S
C2675 C2674 1.372 . S
C2675 C2676 1.400 . S
C2675 C2680 1.490 . S
C2676 H2666 0.930 . S
C2676 C2675 1.400 . S
C2676 C2679 1.386 . S
H2677 C2693 0.930 . S
H2678 C2694 0.931 . S
C2679 H2667 0.929 . S
C2679 C2673 1.390 . S
C2679 C2676 1.386 . S
C2680 C2675 1.490 . S
C2680 C2682 1.395 . S
C2680 C2683 1.403 . S
H2681 C2687 0.930 . S
C2682 H2668 0.930 . S
C2682 C2680 1.395 . S
C2682 C2685 1.403 . S
C2683 C2680 1.403 . S
C2683 C2684 1.524 . S
C2683 C2687 1.400 . S
C2684 H2669 0.960 . S
C2684 H2670 0.960 . S
C2684 H2671 0.960 . S
C2684 C2683 1.524 . S
C2685 C2682 1.403 . S
C2685 C2686 1.392 . S
C2685 C2689 1.495 . S
C2686 C2685 1.392 . S
C2686 C2687 1.385 . S
C2686 C2688 1.478 . S
C2687 H2681 0.930 . S
C2687 C2683 1.400 . S
C2687 C2686 1.385 . S
C2688 C2686 1.478 . S
C2688 C2690 1.381 . S
C2688 C2694 1.383 . S
C2689 C2685 1.495 . S
C2689 H2695 0.959 1_455 S
C2689 H2696 0.961 . S
C2689 H2697 0.960 1_455 S
C2690 C2688 1.381 . S
C2690 C2691 1.394 . S
C2690 H2698 0.930 1_455 S
C2691 C2690 1.394 . S
C2691 C2692 1.383 . S
C2691 H2699 0.929 1_455 S
C2692 C2691 1.383 . S
C2692 C2693 1.377 . S
C2693 H2677 0.930 . S
C2693 C2692 1.377 . S
C2693 C2694 1.379 . S
C2694 H2678 0.931 . S
C2694 C2688 1.383 . S
C2694 C2693 1.379 . S
H2695 C2689 0.959 1_655 S
H2696 C2689 0.961 . S
H2697 C2689 0.960 1_655 S
H2698 C2690 0.930 1_655 S
H2699 C2691 0.929 1_655 S
H2700 C2708 0.929 . S
H2701 C2710 0.930 . S
H2702 C2712 0.930 . S
H2703 C2715 0.929 . S
H2704 C2718 0.930 . S
H2705 C2720 0.960 . S
H2706 C2720 0.960 . S
H2707 C2720 0.960 . S
C2708 H2700 0.929 . S
C2708 C2709 1.377 . S
C2708 C2710 1.384 . S
C2709 C2708 1.377 . S
C2709 C2715 1.390 . S
C2710 H2701 0.930 . S
C2710 C2708 1.384 . S
C2710 C2711 1.372 . S
C2711 C2710 1.372 . S
C2711 C2712 1.400 . S
C2711 C2716 1.490 . S
C2712 H2702 0.930 . S
C2712 C2711 1.400 . S
C2712 C2715 1.386 . S
H2713 C2729 0.930 . S
H2714 C2730 0.931 . S
C2715 H2703 0.929 . S
C2715 C2709 1.390 . S
C2715 C2712 1.386 . S
C2716 C2711 1.490 . S
C2716 C2718 1.395 . S
C2716 C2719 1.403 . S
H2717 C2723 0.930 . S
C2718 H2704 0.930 . S
C2718 C2716 1.395 . S
C2718 C2721 1.403 . S
C2719 C2716 1.403 . S
C2719 C2720 1.524 . S
C2719 C2723 1.400 . S
C2720 H2705 0.960 . S
C2720 H2706 0.960 . S
C2720 H2707 0.960 . S
C2720 C2719 1.524 . S
C2721 C2718 1.403 . S
C2721 C2722 1.392 . S
C2721 C2725 1.495 . S
C2722 C2721 1.392 . S
C2722 C2723 1.385 . S
C2722 C2724 1.478 . S
C2723 H2717 0.930 . S
C2723 C2719 1.400 . S
C2723 C2722 1.385 . S
C2724 C2722 1.478 . S
C2724 C2726 1.381 . S
C2724 C2730 1.383 . S
C2725 C2721 1.495 . S
C2725 H2731 0.959 . S
C2725 H2732 0.961 . S
C2725 H2733 0.960 . S
C2726 C2724 1.381 . S
C2726 C2727 1.394 . S
C2726 H2734 0.930 . S
C2727 C2726 1.394 . S
C2727 C2728 1.383 . S
C2727 H2735 0.929 . S
C2728 C2727 1.383 . S
C2728 C2729 1.377 . S
C2729 H2713 0.930 . S
C2729 C2728 1.377 . S
C2729 C2730 1.379 . S
C2730 H2714 0.931 . S
C2730 C2724 1.383 . S
C2730 C2729 1.379 . S
H2731 C2725 0.959 . S
H2732 C2725 0.961 . S
H2733 C2725 0.960 . S
H2734 C2726 0.930 . S
H2735 C2727 0.929 . S
H2736 C2744 0.929 . S
H2737 C2746 0.930 . S
H2738 C2748 0.930 . S
H2739 C2751 0.929 . S
H2740 C2754 0.930 . S
H2741 C2756 0.960 . S
H2742 C2756 0.960 . S
H2743 C2756 0.960 . S
C2744 H2736 0.929 . S
C2744 C2745 1.377 . S
C2744 C2746 1.384 . S
C2745 C2744 1.377 . S
C2745 C2751 1.390 . S
C2746 H2737 0.930 . S
C2746 C2744 1.384 . S
C2746 C2747 1.372 . S
C2747 C2746 1.372 . S
C2747 C2748 1.400 . S
C2747 C2752 1.490 . S
C2748 H2738 0.930 . S
C2748 C2747 1.400 . S
C2748 C2751 1.386 . S
H2749 C2765 0.930 . S
H2750 C2766 0.931 . S
C2751 H2739 0.929 . S
C2751 C2745 1.390 . S
C2751 C2748 1.386 . S
C2752 C2747 1.490 . S
C2752 C2754 1.395 . S
C2752 C2755 1.403 . S
H2753 C2759 0.930 . S
C2754 H2740 0.930 . S
C2754 C2752 1.395 . S
C2754 C2757 1.403 . S
C2755 C2752 1.403 . S
C2755 C2756 1.524 . S
C2755 C2759 1.400 . S
C2756 H2741 0.960 . S
C2756 H2742 0.960 . S
C2756 H2743 0.960 . S
C2756 C2755 1.524 . S
C2757 C2754 1.403 . S
C2757 C2758 1.392 . S
C2757 C2761 1.495 . S
C2758 C2757 1.392 . S
C2758 C2759 1.385 . S
C2758 C2760 1.478 . S
C2759 H2753 0.930 . S
C2759 C2755 1.400 . S
C2759 C2758 1.385 . S
C2760 C2758 1.478 . S
C2760 C2762 1.381 . S
C2760 C2766 1.383 . S
C2761 C2757 1.495 . S
C2761 H2767 0.959 . S
C2761 H2768 0.961 . S
C2761 H2769 0.960 . S
C2762 C2760 1.381 . S
C2762 C2763 1.394 . S
C2762 H2770 0.930 . S
C2763 C2762 1.394 . S
C2763 C2764 1.383 . S
C2763 H2771 0.929 . S
C2764 C2763 1.383 . S
C2764 C2765 1.377 . S
C2765 H2749 0.930 . S
C2765 C2764 1.377 . S
C2765 C2766 1.379 . S
C2766 H2750 0.931 . S
C2766 C2760 1.383 . S
C2766 C2765 1.379 . S
H2767 C2761 0.959 . S
H2768 C2761 0.961 . S
H2769 C2761 0.960 . S
H2770 C2762 0.930 . S
H2771 C2763 0.929 . S
H2772 C2780 0.929 . S
H2773 C2782 0.930 . S
H2774 C2784 0.930 . S
H2775 C2787 0.929 . S
H2776 C2790 0.930 . S
H2777 C2792 0.960 . S
H2778 C2792 0.960 . S
H2779 C2792 0.960 . S
C2780 H2772 0.929 . S
C2780 C2781 1.377 . S
C2780 C2782 1.384 . S
C2781 C2780 1.377 . S
C2781 C2787 1.390 . S
C2782 H2773 0.930 . S
C2782 C2780 1.384 . S
C2782 C2783 1.372 . S
C2783 C2782 1.372 . S
C2783 C2784 1.400 . S
C2783 C2788 1.490 . S
C2784 H2774 0.930 . S
C2784 C2783 1.400 . S
C2784 C2787 1.386 . S
H2785 C2801 0.930 . S
H2786 C2802 0.931 . S
C2787 H2775 0.929 . S
C2787 C2781 1.390 . S
C2787 C2784 1.386 . S
C2788 C2783 1.490 . S
C2788 C2790 1.395 . S
C2788 C2791 1.403 . S
H2789 C2795 0.930 . S
C2790 H2776 0.930 . S
C2790 C2788 1.395 . S
C2790 C2793 1.403 . S
C2791 C2788 1.403 . S
C2791 C2792 1.524 . S
C2791 C2795 1.400 . S
C2792 H2777 0.960 . S
C2792 H2778 0.960 . S
C2792 H2779 0.960 . S
C2792 C2791 1.524 . S
C2793 C2790 1.403 . S
C2793 C2794 1.392 . S
C2793 C2797 1.495 . S
C2794 C2793 1.392 . S
C2794 C2795 1.385 . S
C2794 C2796 1.478 . S
C2795 H2789 0.930 . S
C2795 C2791 1.400 . S
C2795 C2794 1.385 . S
C2796 C2794 1.478 . S
C2796 C2798 1.381 . S
C2796 C2802 1.383 . S
C2797 C2793 1.495 . S
C2797 H2803 0.959 . S
C2797 H2804 0.961 . S
C2797 H2805 0.960 . S
C2798 C2796 1.381 . S
C2798 C2799 1.394 . S
C2798 H2806 0.930 . S
C2799 C2798 1.394 . S
C2799 C2800 1.383 . S
C2799 H2807 0.929 . S
C2800 C2799 1.383 . S
C2800 C2801 1.377 . S
C2801 H2785 0.930 . S
C2801 C2800 1.377 . S
C2801 C2802 1.379 . S
C2802 H2786 0.931 . S
C2802 C2796 1.383 . S
C2802 C2801 1.379 . S
H2803 C2797 0.959 . S
H2804 C2797 0.961 . S
H2805 C2797 0.960 . S
H2806 C2798 0.930 . S
H2807 C2799 0.929 . S
H2808 C2816 0.929 . S
H2809 C2818 0.930 . S
H2810 C2820 0.930 . S
H2811 C2823 0.929 . S
H2812 C2826 0.930 . S
H2813 C2828 0.960 . S
H2814 C2828 0.960 . S
H2815 C2828 0.960 . S
C2816 H2808 0.929 . S
C2816 C2817 1.377 . S
C2816 C2818 1.384 . S
C2817 C2816 1.377 . S
C2817 C2823 1.390 . S
C2818 H2809 0.930 . S
C2818 C2816 1.384 . S
C2818 C2819 1.372 . S
C2819 C2818 1.372 . S
C2819 C2820 1.400 . S
C2819 C2824 1.490 . S
C2820 H2810 0.930 . S
C2820 C2819 1.400 . S
C2820 C2823 1.386 . S
H2821 C2837 0.894 1_565 S
H2822 C2838 0.931 1_565 S
C2823 H2811 0.929 . S
C2823 C2817 1.390 . S
C2823 C2820 1.386 . S
C2824 C2819 1.490 . S
C2824 C2826 1.395 . S
C2824 C2827 1.403 . S
H2825 C2831 0.930 . S
C2826 H2812 0.930 . S
C2826 C2824 1.395 . S
C2826 C2829 1.403 . S
C2827 C2824 1.403 . S
C2827 C2828 1.524 . S
C2827 C2831 1.400 . S
C2828 H2813 0.960 . S
C2828 H2814 0.960 . S
C2828 H2815 0.960 . S
C2828 C2827 1.524 . S
C2829 C2826 1.403 . S
C2829 C2830 1.392 . S
C2829 C2833 1.495 . S
C2830 C2829 1.392 . S
C2830 C2831 1.385 . S
C2830 C2832 1.478 . S
C2831 H2825 0.930 . S
C2831 C2827 1.400 . S
C2831 C2830 1.385 . S
C2832 C2830 1.478 . S
C2832 C2834 1.381 . S
C2832 C2838 1.383 . S
C2833 C2829 1.495 . S
C2833 H2839 0.959 . S
C2833 H2840 0.961 . S
C2833 H2841 0.960 . S
C2834 C2832 1.381 . S
C2834 C2835 1.394 . S
C2834 H2842 0.930 . S
C2835 C2834 1.394 . S
C2835 C2836 1.383 . S
C2835 H2843 0.929 . S
C2836 C2835 1.383 . S
C2836 C2837 1.407 . S
C2837 H2821 0.894 1_545 S
C2837 C2836 1.407 . S
C2837 C2838 1.385 . S
C2838 H2822 0.931 1_545 S
C2838 C2832 1.383 . S
C2838 C2837 1.385 . S
H2839 C2833 0.959 . S
H2840 C2833 0.961 . S
H2841 C2833 0.960 . S
H2842 C2834 0.930 . S
H2843 C2835 0.929 . S
H2844 C2852 0.929 . S
H2845 C2854 0.930 . S
H2846 C2856 0.930 . S
H2847 C2859 0.929 . S
H2848 C2862 0.930 . S
H2849 C2864 0.960 . S
H2850 C2864 0.960 . S
H2851 C2864 0.960 . S
C2852 H2844 0.929 . S
C2852 C2853 1.377 . S
C2852 C2854 1.384 . S
C2853 C2852 1.377 . S
C2853 C2859 1.390 . S
C2854 H2845 0.930 . S
C2854 C2852 1.384 . S
C2854 C2855 1.372 . S
C2855 C2854 1.372 . S
C2855 C2856 1.400 . S
C2855 C2860 1.490 . S
C2856 H2846 0.930 . S
C2856 C2855 1.400 . S
C2856 C2859 1.386 . S
H2857 C2873 0.930 . S
H2858 C2874 0.931 . S
C2859 H2847 0.929 . S
C2859 C2853 1.390 . S
C2859 C2856 1.386 . S
C2860 C2855 1.490 . S
C2860 C2862 1.395 . S
C2860 C2863 1.403 . S
H2861 C2867 0.930 . S
C2862 H2848 0.930 . S
C2862 C2860 1.395 . S
C2862 C2865 1.403 . S
C2863 C2860 1.403 . S
C2863 C2864 1.524 . S
C2863 C2867 1.400 . S
C2864 H2849 0.960 . S
C2864 H2850 0.960 . S
C2864 H2851 0.960 . S
C2864 C2863 1.524 . S
C2865 C2862 1.403 . S
C2865 C2866 1.392 . S
C2865 C2869 1.495 . S
C2866 C2865 1.392 . S
C2866 C2867 1.385 . S
C2866 C2868 1.478 . S
C2867 H2861 0.930 . S
C2867 C2863 1.400 . S
C2867 C2866 1.385 . S
C2868 C2866 1.478 . S
C2868 C2870 1.381 . S
C2868 C2874 1.383 . S
C2869 C2865 1.495 . S
C2869 H2875 0.959 . S
C2869 H2876 0.961 . S
C2869 H2877 0.960 . S
C2870 C2868 1.381 . S
C2870 C2871 1.394 . S
C2870 H2878 0.930 . S
C2871 C2870 1.394 . S
C2871 C2872 1.383 . S
C2871 H2879 0.929 . S
C2872 C2871 1.383 . S
C2872 C2873 1.377 . S
C2873 H2857 0.930 . S
C2873 C2872 1.377 . S
C2873 C2874 1.379 . S
C2874 H2858 0.931 . S
C2874 C2868 1.383 . S
C2874 C2873 1.379 . S
H2875 C2869 0.959 . S
H2876 C2869 0.961 . S
H2877 C2869 0.960 . S
H2878 C2870 0.930 . S
H2879 C2871 0.929 . S
H2880 C2888 0.929 . S
H2881 C2890 0.930 . S
H2882 C2892 0.931 . S
H2883 C2895 0.929 . S
H2884 C2898 0.930 . S
H2885 C2900 0.971 . S
H2886 C2900 0.948 1_545 S
H2887 C2900 0.972 . S
C2888 H2880 0.929 . S
C2888 C2889 1.377 . S
C2888 C2890 1.384 . S
C2889 C2888 1.377 . S
C2889 C2895 1.390 1_545 S
C2890 H2881 0.930 . S
C2890 C2888 1.384 . S
C2890 C2891 1.372 . S
C2891 C2890 1.372 . S
C2891 C2892 1.399 1_545 S
C2891 C2896 1.490 . S
C2892 H2882 0.931 . S
C2892 C2891 1.399 1_565 S
C2892 C2895 1.385 . S
H2893 C2909 0.972 . S
H2894 C2910 0.894 1_565 S
C2895 H2883 0.929 . S
C2895 C2889 1.390 1_565 S
C2895 C2892 1.385 . S
C2896 C2891 1.490 . S
C2896 C2898 1.395 . S
C2896 C2899 1.403 . S
H2897 C2903 0.930 . S
C2898 H2884 0.930 . S
C2898 C2896 1.395 . S
C2898 C2901 1.403 . S
C2899 C2896 1.403 . S
C2899 C2900 1.514 1_545 S
C2899 C2903 1.400 . S
C2900 H2885 0.971 . S
C2900 H2886 0.948 1_565 S
C2900 H2887 0.972 . S
C2900 C2899 1.514 1_565 S
C2901 C2898 1.403 . S
C2901 C2902 1.392 . S
C2901 C2905 1.495 . S
C2902 C2901 1.392 . S
C2902 C2903 1.385 . S
C2902 C2904 1.478 . S
C2903 H2897 0.930 . S
C2903 C2899 1.400 . S
C2903 C2902 1.385 . S
C2904 C2902 1.478 . S
C2904 C2906 1.381 . S
C2904 C2910 1.383 . S
C2905 C2901 1.495 . S
C2905 H2911 0.959 . S
C2905 H2912 0.961 . S
C2905 H2913 0.960 . S
C2906 C2904 1.381 . S
C2906 C2907 1.394 . S
C2906 H2914 0.930 . S
C2907 C2906 1.394 . S
C2907 C2908 1.383 . S
C2907 H2915 0.929 . S
C2908 C2907 1.383 . S
C2908 C2909 1.377 . S
C2909 H2893 0.972 . S
C2909 C2908 1.377 . S
C2909 C2910 1.379 . S
C2910 H2894 0.894 1_545 S
C2910 C2904 1.383 . S
C2910 C2909 1.379 . S
H2911 C2905 0.959 . S
H2912 C2905 0.961 . S
H2913 C2905 0.960 . S
H2914 C2906 0.930 . S
H2915 C2907 0.929 . S
H2916 C2924 0.929 . S
H2917 C2926 0.930 . S
H2918 C2928 0.930 . S
H2919 C2931 0.929 . S
H2920 C2934 0.930 . S
H2921 C2936 0.960 . S
H2922 C2936 0.960 . S
H2923 C2936 0.960 . S
C2924 H2916 0.929 . S
C2924 C2925 1.377 . S
C2924 C2926 1.384 . S
C2925 C2924 1.377 . S
C2925 C2931 1.390 . S
C2926 H2917 0.930 . S
C2926 C2924 1.384 . S
C2926 C2927 1.372 . S
C2927 C2926 1.372 . S
C2927 C2928 1.400 . S
C2927 C2932 1.490 . S
C2928 H2918 0.930 . S
C2928 C2927 1.400 . S
C2928 C2931 1.386 . S
H2929 C2945 0.930 . S
H2930 C2946 0.931 . S
C2931 H2919 0.929 . S
C2931 C2925 1.390 . S
C2931 C2928 1.386 . S
C2932 C2927 1.490 . S
C2932 C2934 1.395 . S
C2932 C2935 1.403 . S
H2933 C2939 0.930 . S
C2934 H2920 0.930 . S
C2934 C2932 1.395 . S
C2934 C2937 1.403 . S
C2935 C2932 1.403 . S
C2935 C2936 1.524 . S
C2935 C2939 1.400 . S
C2936 H2921 0.960 . S
C2936 H2922 0.960 . S
C2936 H2923 0.960 . S
C2936 C2935 1.524 . S
C2937 C2934 1.403 . S
C2937 C2938 1.392 . S
C2937 C2941 1.495 . S
C2938 C2937 1.392 . S
C2938 C2939 1.385 . S
C2938 C2940 1.478 . S
C2939 H2933 0.930 . S
C2939 C2935 1.400 . S
C2939 C2938 1.385 . S
C2940 C2938 1.478 . S
C2940 C2942 1.381 . S
C2940 C2946 1.383 . S
C2941 C2937 1.495 . S
C2941 H2947 0.959 . S
C2941 H2948 0.961 . S
C2941 H2949 0.960 . S
C2942 C2940 1.381 . S
C2942 C2943 1.394 . S
C2942 H2950 0.930 . S
C2943 C2942 1.394 . S
C2943 C2944 1.383 . S
C2943 H2951 0.929 . S
C2944 C2943 1.383 . S
C2944 C2945 1.377 . S
C2945 H2929 0.930 . S
C2945 C2944 1.377 . S
C2945 C2946 1.379 . S
C2946 H2930 0.931 . S
C2946 C2940 1.383 . S
C2946 C2945 1.379 . S
H2947 C2941 0.959 . S
H2948 C2941 0.961 . S
H2949 C2941 0.960 . S
H2950 C2942 0.930 . S
H2951 C2943 0.929 . S
H2952 C2960 0.929 . S
H2953 C2962 0.930 . S
H2954 C2964 0.930 . S
H2955 C2967 0.929 . S
H2956 C2970 0.930 . S
H2957 C2972 0.960 . S
H2958 C2972 0.960 . S
H2959 C2972 0.960 . S
C2960 H2952 0.929 . S
C2960 C2961 1.377 . S
C2960 C2962 1.384 . S
C2961 C2960 1.377 . S
C2961 C2967 1.390 . S
C2962 H2953 0.930 . S
C2962 C2960 1.384 . S
C2962 C2963 1.372 . S
C2963 C2962 1.372 . S
C2963 C2964 1.400 . S
C2963 C2968 1.490 . S
C2964 H2954 0.930 . S
C2964 C2963 1.400 . S
C2964 C2967 1.386 . S
H2965 C2981 0.930 . S
H2966 C2982 0.931 . S
C2967 H2955 0.929 . S
C2967 C2961 1.390 . S
C2967 C2964 1.386 . S
C2968 C2963 1.490 . S
C2968 C2970 1.395 . S
C2968 C2971 1.403 . S
H2969 C2975 0.930 . S
C2970 H2956 0.930 . S
C2970 C2968 1.395 . S
C2970 C2973 1.403 . S
C2971 C2968 1.403 . S
C2971 C2972 1.524 . S
C2971 C2975 1.400 . S
C2972 H2957 0.960 . S
C2972 H2958 0.960 . S
C2972 H2959 0.960 . S
C2972 C2971 1.524 . S
C2973 C2970 1.403 . S
C2973 C2974 1.392 . S
C2973 C2977 1.495 1_545 S
C2974 C2973 1.392 . S
C2974 C2975 1.385 . S
C2974 C2976 1.478 . S
C2975 H2969 0.930 . S
C2975 C2971 1.400 . S
C2975 C2974 1.385 . S
C2976 C2974 1.478 . S
C2976 C2978 1.381 . S
C2976 C2982 1.383 . S
C2977 C2973 1.495 1_565 S
C2977 H2983 0.959 . S
C2977 H2984 0.961 . S
C2977 H2985 0.960 . S
C2978 C2976 1.381 . S
C2978 C2979 1.394 . S
C2978 H2986 0.930 . S
C2979 C2978 1.394 . S
C2979 C2980 1.383 . S
C2979 H2987 0.929 . S
C2980 C2979 1.383 . S
C2980 C2981 1.377 . S
C2981 H2965 0.930 . S
C2981 C2980 1.377 . S
C2981 C2982 1.379 . S
C2982 H2966 0.931 . S
C2982 C2976 1.383 . S
C2982 C2981 1.379 . S
H2983 C2977 0.959 . S
H2984 C2977 0.961 . S
H2985 C2977 0.960 . S
H2986 C2978 0.930 . S
H2987 C2979 0.929 . S
H2988 C2996 0.929 . S
H2989 C2998 0.930 . S
H2990 C3000 0.930 . S
H2991 C3003 0.929 . S
H2992 C3006 0.930 . S
H2993 C3008 0.960 . S
H2994 C3008 0.960 . S
H2995 C3008 0.960 . S
C2996 H2988 0.929 . S
C2996 C2997 1.377 . S
C2996 C2998 1.384 . S
C2997 C2996 1.377 . S
C2997 C3003 1.390 . S
C2998 H2989 0.930 . S
C2998 C2996 1.384 . S
C2998 C2999 1.372 . S
C2999 C2998 1.372 . S
C2999 C3000 1.400 . S
C2999 C3004 1.490 . S
C3000 H2990 0.930 . S
C3000 C2999 1.400 . S
C3000 C3003 1.386 . S
H3001 C3017 0.930 . S
H3002 C3018 0.931 . S
C3003 H2991 0.929 . S
C3003 C2997 1.390 . S
C3003 C3000 1.386 . S
C3004 C2999 1.490 . S
C3004 C3006 1.395 . S
C3004 C3007 1.403 . S
H3005 C3011 0.930 . S
C3006 H2992 0.930 . S
C3006 C3004 1.395 . S
C3006 C3009 1.403 . S
C3007 C3004 1.403 . S
C3007 C3008 1.524 . S
C3007 C3011 1.400 . S
C3008 H2993 0.960 . S
C3008 H2994 0.960 . S
C3008 H2995 0.960 . S
C3008 C3007 1.524 . S
C3009 C3006 1.403 . S
C3009 C3010 1.392 . S
C3009 C3013 1.495 . S
C3010 C3009 1.392 . S
C3010 C3011 1.385 . S
C3010 C3012 1.478 . S
C3011 H3005 0.930 . S
C3011 C3007 1.400 . S
C3011 C3010 1.385 . S
C3012 C3010 1.478 . S
C3012 C3014 1.381 . S
C3012 C3018 1.383 . S
C3013 C3009 1.495 . S
C3013 H3019 0.959 . S
C3013 H3020 0.961 . S
C3013 H3021 0.960 . S
C3014 C3012 1.381 . S
C3014 C3015 1.394 . S
C3014 H3022 0.930 . S
C3015 C3014 1.394 . S
C3015 C3016 1.383 . S
C3015 H3023 0.929 . S
C3016 C3015 1.383 . S
C3016 C3017 1.377 . S
C3017 H3001 0.930 . S
C3017 C3016 1.377 . S
C3017 C3018 1.379 . S
C3018 H3002 0.931 . S
C3018 C3012 1.383 . S
C3018 C3017 1.379 . S
H3019 C3013 0.959 . S
H3020 C3013 0.961 . S
H3021 C3013 0.960 . S
H3022 C3014 0.930 . S
H3023 C3015 0.929 . S
H3024 C3032 0.929 . S
H3025 C3034 0.930 . S
H3026 C3036 0.930 . S
H3027 C3039 0.929 . S
H3028 C3042 0.930 . S
H3029 C3044 0.960 . S
H3030 C3044 0.962 . S
H3031 C3044 0.960 . S
C3032 H3024 0.929 . S
C3032 C3033 1.377 . S
C3032 C3034 1.384 . S
C3033 C3032 1.377 . S
C3033 C3039 1.390 1_545 S
C3034 H3025 0.930 . S
C3034 C3032 1.384 . S
C3034 C3035 1.372 . S
C3035 C3034 1.372 . S
C3035 C3036 1.400 1_545 S
C3035 C3040 1.490 . S
C3036 H3026 0.930 . S
C3036 C3035 1.400 1_565 S
C3036 C3039 1.386 . S
H3037 C3053 0.930 . S
H3038 C3054 0.931 . S
C3039 H3027 0.929 . S
C3039 C3033 1.390 1_565 S
C3039 C3036 1.386 . S
C3040 C3035 1.490 . S
C3040 C3042 1.395 . S
C3040 C3043 1.402 1_545 S
H3041 C3047 0.920 1_565 S
C3042 H3028 0.930 . S
C3042 C3040 1.395 . S
C3042 C3045 1.403 . S
C3043 C3040 1.402 1_565 S
C3043 C3044 1.524 . S
C3043 C3047 1.401 1_565 S
C3044 H3029 0.960 . S
C3044 H3030 0.962 . S
C3044 H3031 0.960 . S
C3044 C3043 1.524 . S
C3045 C3042 1.403 . S
C3045 C3046 1.392 . S
C3045 C3049 1.495 . S
C3046 C3045 1.392 . S
C3046 C3047 1.396 . S
C3046 C3048 1.478 . S
C3047 H3041 0.920 1_545 S
C3047 C3043 1.401 1_545 S
C3047 C3046 1.396 . S
C3048 C3046 1.478 . S
C3048 C3050 1.381 . S
C3048 C3054 1.383 1_545 S
C3049 C3045 1.495 . S
C3049 H3055 0.959 . S
C3049 H3056 0.961 . S
C3049 H3057 0.960 . S
C3050 C3048 1.381 . S
C3050 C3051 1.394 . S
C3050 H3058 0.930 . S
C3051 C3050 1.394 . S
C3051 C3052 1.383 . S
C3051 H3059 0.929 . S
C3052 C3051 1.383 . S
C3052 C3053 1.377 1_545 S
C3053 H3037 0.930 . S
C3053 C3052 1.377 1_565 S
C3053 C3054 1.379 . S
C3054 H3038 0.931 . S
C3054 C3048 1.383 1_565 S
C3054 C3053 1.379 . S
H3055 C3049 0.959 . S
H3056 C3049 0.961 . S
H3057 C3049 0.960 . S
H3058 C3050 0.930 . S
H3059 C3051 0.929 . S
H3060 C3068 0.929 . S
H3061 C3070 0.930 . S
H3062 C3072 0.930 . S
H3063 C3075 0.929 . S
H3064 C3078 0.930 . S
H3065 C3080 0.960 . S
H3066 C3080 0.960 . S
H3067 C3080 0.960 . S
C3068 H3060 0.929 . S
C3068 C3069 1.377 . S
C3068 C3070 1.384 . S
C3069 C3068 1.377 . S
C3069 C3075 1.390 . S
C3070 H3061 0.930 . S
C3070 C3068 1.384 . S
C3070 C3071 1.372 . S
C3071 C3070 1.372 . S
C3071 C3072 1.400 . S
C3071 C3076 1.490 . S
C3072 H3062 0.930 . S
C3072 C3071 1.400 . S
C3072 C3075 1.386 . S
H3073 C3089 0.930 . S
H3074 C3090 0.931 . S
C3075 H3063 0.929 . S
C3075 C3069 1.390 . S
C3075 C3072 1.386 . S
C3076 C3071 1.490 . S
C3076 C3078 1.395 . S
C3076 C3079 1.403 . S
H3077 C3083 0.930 . S
C3078 H3064 0.930 . S
C3078 C3076 1.395 . S
C3078 C3081 1.403 . S
C3079 C3076 1.403 . S
C3079 C3080 1.524 . S
C3079 C3083 1.400 . S
C3080 H3065 0.960 . S
C3080 H3066 0.960 . S
C3080 H3067 0.960 . S
C3080 C3079 1.524 . S
C3081 C3078 1.403 . S
C3081 C3082 1.392 . S
C3081 C3085 1.495 . S
C3082 C3081 1.392 . S
C3082 C3083 1.385 . S
C3082 C3084 1.478 . S
C3083 H3077 0.930 . S
C3083 C3079 1.400 . S
C3083 C3082 1.385 . S
C3084 C3082 1.478 . S
C3084 C3086 1.381 . S
C3084 C3090 1.383 . S
C3085 C3081 1.495 . S
C3085 H3091 0.959 . S
C3085 H3092 0.961 . S
C3085 H3093 0.960 . S
C3086 C3084 1.381 . S
C3086 C3087 1.394 . S
C3086 H3094 0.930 . S
C3087 C3086 1.394 . S
C3087 C3088 1.383 . S
C3087 H3095 0.929 . S
C3088 C3087 1.383 . S
C3088 C3089 1.377 . S
C3089 H3073 0.930 . S
C3089 C3088 1.377 . S
C3089 C3090 1.379 . S
C3090 H3074 0.931 . S
C3090 C3084 1.383 . S
C3090 C3089 1.379 . S
H3091 C3085 0.959 . S
H3092 C3085 0.961 . S
H3093 C3085 0.960 . S
H3094 C3086 0.930 . S
H3095 C3087 0.929 . S
H3096 C3104 0.929 . S
H3097 C3106 0.930 . S
H3098 C3108 0.930 . S
H3099 C3111 0.929 . S
H3100 C3114 0.930 . S
H3101 C3116 0.960 . S
H3102 C3116 0.960 . S
H3103 C3116 0.960 . S
C3104 H3096 0.929 . S
C3104 C3105 1.377 . S
C3104 C3106 1.384 . S
C3105 C3104 1.377 . S
C3105 C3111 1.390 . S
C3106 H3097 0.930 . S
C3106 C3104 1.384 . S
C3106 C3107 1.372 . S
C3107 C3106 1.372 . S
C3107 C3108 1.400 . S
C3107 C3112 1.490 . S
C3108 H3098 0.930 . S
C3108 C3107 1.400 . S
C3108 C3111 1.386 . S
H3109 C3125 0.930 . S
H3110 C3126 0.931 . S
C3111 H3099 0.929 . S
C3111 C3105 1.390 . S
C3111 C3108 1.386 . S
C3112 C3107 1.490 . S
C3112 C3114 1.395 . S
C3112 C3115 1.403 . S
H3113 C3119 0.930 . S
C3114 H3100 0.930 . S
C3114 C3112 1.395 . S
C3114 C3117 1.403 . S
C3115 C3112 1.403 . S
C3115 C3116 1.524 . S
C3115 C3119 1.400 . S
C3116 H3101 0.960 . S
C3116 H3102 0.960 . S
C3116 H3103 0.960 . S
C3116 C3115 1.524 . S
C3117 C3114 1.403 . S
C3117 C3118 1.392 . S
C3117 C3121 1.495 . S
C3118 C3117 1.392 . S
C3118 C3119 1.385 . S
C3118 C3120 1.478 . S
C3119 H3113 0.930 . S
C3119 C3115 1.400 . S
C3119 C3118 1.385 . S
C3120 C3118 1.478 . S
C3120 C3122 1.381 . S
C3120 C3126 1.383 . S
C3121 C3117 1.495 . S
C3121 H3127 0.959 . S
C3121 H3128 0.961 . S
C3121 H3129 0.960 . S
C3122 C3120 1.381 . S
C3122 C3123 1.394 1_554 S
C3122 H3130 0.930 1_554 S
C3123 C3122 1.394 1_556 S
C3123 C3124 1.383 1_556 S
C3123 H3131 0.929 . S
C3124 C3123 1.383 1_554 S
C3124 C3125 1.377 . S
C3125 H3109 0.930 . S
C3125 C3124 1.377 . S
C3125 C3126 1.379 . S
C3126 H3110 0.931 . S
C3126 C3120 1.383 . S
C3126 C3125 1.379 . S
H3127 C3121 0.959 . S
H3128 C3121 0.961 . S
H3129 C3121 0.960 . S
H3130 C3122 0.930 1_556 S
H3131 C3123 0.929 . S
H3132 C3140 0.929 . S
H3133 C3142 0.930 . S
H3134 C3144 0.930 . S
H3135 C3147 0.929 . S
H3136 C3150 0.930 . S
H3137 C3152 0.960 . S
H3138 C3152 0.960 . S
H3139 C3152 0.960 . S
C3140 H3132 0.929 . S
C3140 C3141 1.377 . S
C3140 C3142 1.384 . S
C3141 C3140 1.377 . S
C3141 C3147 1.390 . S
C3142 H3133 0.930 . S
C3142 C3140 1.384 . S
C3142 C3143 1.372 . S
C3143 C3142 1.372 . S
C3143 C3144 1.400 . S
C3143 C3148 1.490 . S
C3144 H3134 0.930 . S
C3144 C3143 1.400 . S
C3144 C3147 1.386 . S
H3145 C3161 0.930 . S
H3146 C3162 0.931 . S
C3147 H3135 0.929 . S
C3147 C3141 1.390 . S
C3147 C3144 1.386 . S
C3148 C3143 1.490 . S
C3148 C3150 1.395 . S
C3148 C3151 1.403 . S
H3149 C3155 0.930 . S
C3150 H3136 0.930 . S
C3150 C3148 1.395 . S
C3150 C3153 1.403 . S
C3151 C3148 1.403 . S
C3151 C3152 1.524 . S
C3151 C3155 1.400 . S
C3152 H3137 0.960 . S
C3152 H3138 0.960 . S
C3152 H3139 0.960 . S
C3152 C3151 1.524 . S
C3153 C3150 1.403 . S
C3153 C3154 1.392 . S
C3153 C3157 1.495 . S
C3154 C3153 1.392 . S
C3154 C3155 1.385 . S
C3154 C3156 1.478 . S
C3155 H3149 0.930 . S
C3155 C3151 1.400 . S
C3155 C3154 1.385 . S
C3156 C3154 1.478 . S
C3156 C3158 1.381 . S
C3156 C3162 1.383 . S
C3157 C3153 1.495 . S
C3157 H3163 0.959 . S
C3157 H3164 0.961 . S
C3157 H3165 0.960 . S
C3158 C3156 1.381 . S
C3158 C3159 1.394 . S
C3158 H3166 0.930 . S
C3159 C3158 1.394 . S
C3159 C3160 1.383 . S
C3159 H3167 0.929 . S
C3160 C3159 1.383 . S
C3160 C3161 1.377 . S
C3161 H3145 0.930 . S
C3161 C3160 1.377 . S
C3161 C3162 1.379 . S
C3162 H3146 0.931 . S
C3162 C3156 1.383 . S
C3162 C3161 1.379 . S
H3163 C3157 0.959 . S
H3164 C3157 0.961 . S
H3165 C3157 0.960 . S
H3166 C3158 0.930 . S
H3167 C3159 0.929 . S
H3168 C3176 0.929 . S
H3169 C3178 0.930 . S
H3170 C3180 0.930 . S
H3171 C3183 0.929 . S
H3172 C3186 0.930 . S
H3173 C3188 0.960 . S
H3174 C3188 0.960 . S
H3175 C3188 0.960 . S
C3176 H3168 0.929 . S
C3176 C3177 1.377 . S
C3176 C3178 1.384 . S
C3177 C3176 1.377 . S
C3177 C3183 1.390 . S
C3178 H3169 0.930 . S
C3178 C3176 1.384 . S
C3178 C3179 1.372 . S
C3179 C3178 1.372 . S
C3179 C3180 1.400 . S
C3179 C3184 1.490 . S
C3180 H3170 0.930 . S
C3180 C3179 1.400 . S
C3180 C3183 1.386 . S
H3181 C3197 0.930 . S
H3182 C3198 0.931 . S
C3183 H3171 0.929 . S
C3183 C3177 1.390 . S
C3183 C3180 1.386 . S
C3184 C3179 1.490 . S
C3184 C3186 1.395 . S
C3184 C3187 1.403 . S
H3185 C3191 0.930 . S
C3186 H3172 0.930 . S
C3186 C3184 1.395 . S
C3186 C3189 1.403 . S
C3187 C3184 1.403 . S
C3187 C3188 1.524 . S
C3187 C3191 1.400 . S
C3188 H3173 0.960 . S
C3188 H3174 0.960 . S
C3188 H3175 0.960 . S
C3188 C3187 1.524 . S
C3189 C3186 1.403 . S
C3189 C3190 1.392 . S
C3189 C3193 1.495 . S
C3190 C3189 1.392 . S
C3190 C3191 1.385 . S
C3190 C3192 1.478 . S
C3191 H3185 0.930 . S
C3191 C3187 1.400 . S
C3191 C3190 1.385 . S
C3192 C3190 1.478 . S
C3192 C3194 1.381 . S
C3192 C3198 1.383 . S
C3193 C3189 1.495 . S
C3193 H3199 0.959 . S
C3193 H3200 0.961 . S
C3193 H3201 0.960 . S
C3194 C3192 1.381 . S
C3194 C3195 1.394 . S
C3194 H3202 0.930 . S
C3195 C3194 1.394 . S
C3195 C3196 1.383 . S
C3195 H3203 0.929 . S
C3196 C3195 1.383 . S
C3196 C3197 1.377 . S
C3197 H3181 0.930 . S
C3197 C3196 1.377 . S
C3197 C3198 1.379 . S
C3198 H3182 0.931 . S
C3198 C3192 1.383 . S
C3198 C3197 1.379 . S
H3199 C3193 0.959 . S
H3200 C3193 0.961 . S
H3201 C3193 0.960 . S
H3202 C3194 0.930 . S
H3203 C3195 0.929 . S
H3204 C3212 0.929 . S
H3205 C3214 0.930 . S
H3206 C3216 0.930 . S
H3207 C3219 0.929 . S
H3208 C3222 0.930 . S
H3209 C3224 0.960 . S
H3210 C3224 0.960 . S
H3211 C3224 0.960 . S
C3212 H3204 0.929 . S
C3212 C3213 1.377 . S
C3212 C3214 1.384 . S
C3213 C3212 1.377 . S
C3213 C3219 1.390 . S
C3214 H3205 0.930 . S
C3214 C3212 1.384 . S
C3214 C3215 1.372 . S
C3215 C3214 1.372 . S
C3215 C3216 1.400 . S
C3215 C3220 1.490 . S
C3216 H3206 0.930 . S
C3216 C3215 1.400 . S
C3216 C3219 1.386 . S
H3217 C3233 0.930 . S
H3218 C3234 0.931 . S
C3219 H3207 0.929 . S
C3219 C3213 1.390 . S
C3219 C3216 1.386 . S
C3220 C3215 1.490 . S
C3220 C3222 1.395 . S
C3220 C3223 1.403 . S
H3221 C3227 0.930 . S
C3222 H3208 0.930 . S
C3222 C3220 1.395 . S
C3222 C3225 1.403 . S
C3223 C3220 1.403 . S
C3223 C3224 1.524 . S
C3223 C3227 1.400 . S
C3224 H3209 0.960 . S
C3224 H3210 0.960 . S
C3224 H3211 0.960 . S
C3224 C3223 1.524 . S
C3225 C3222 1.403 . S
C3225 C3226 1.392 . S
C3225 C3229 1.495 . S
C3226 C3225 1.392 . S
C3226 C3227 1.385 . S
C3226 C3228 1.478 . S
C3227 H3221 0.930 . S
C3227 C3223 1.400 . S
C3227 C3226 1.385 . S
C3228 C3226 1.478 . S
C3228 C3230 1.381 . S
C3228 C3234 1.383 . S
C3229 C3225 1.495 . S
C3229 H3235 0.959 . S
C3229 H3236 0.961 . S
C3229 H3237 0.960 . S
C3230 C3228 1.381 . S
C3230 C3231 1.394 . S
C3230 H3238 0.930 . S
C3231 C3230 1.394 . S
C3231 C3232 1.383 . S
C3231 H3239 0.929 . S
C3232 C3231 1.383 . S
C3232 C3233 1.377 . S
C3233 H3217 0.930 . S
C3233 C3232 1.377 . S
C3233 C3234 1.379 . S
C3234 H3218 0.931 . S
C3234 C3228 1.383 . S
C3234 C3233 1.379 . S
H3235 C3229 0.959 . S
H3236 C3229 0.961 . S
H3237 C3229 0.960 . S
H3238 C3230 0.930 . S
H3239 C3231 0.929 . S
H3240 C3248 0.929 . S
H3241 C3250 0.930 . S
H3242 C3252 0.930 . S
H3243 C3255 0.929 . S
H3244 C3258 0.930 . S
H3245 C3260 0.960 . S
H3246 C3260 0.960 . S
H3247 C3260 0.960 . S
C3248 H3240 0.929 . S
C3248 C3249 1.382 . S
C3248 C3250 1.384 . S
C3249 C3248 1.382 . S
C3249 C3255 1.391 1_565 S
C3250 H3241 0.930 . S
C3250 C3248 1.384 . S
C3250 C3251 1.372 . S
C3251 C3250 1.372 . S
C3251 C3252 1.400 . S
C3251 C3256 1.490 . S
C3252 H3242 0.930 . S
C3252 C3251 1.400 . S
C3252 C3255 1.386 1_565 S
H3253 C3269 0.930 . S
H3254 C3270 0.931 . S
C3255 H3243 0.929 . S
C3255 C3249 1.391 1_545 S
C3255 C3252 1.386 1_545 S
C3256 C3251 1.490 . S
C3256 C3258 1.395 . S
C3256 C3259 1.403 . S
H3257 C3263 0.930 . S
C3258 H3244 0.930 . S
C3258 C3256 1.395 . S
C3258 C3261 1.403 . S
C3259 C3256 1.403 . S
C3259 C3260 1.524 . S
C3259 C3263 1.400 . S
C3260 H3245 0.960 . S
C3260 H3246 0.960 . S
C3260 H3247 0.960 . S
C3260 C3259 1.524 . S
C3261 C3258 1.403 . S
C3261 C3262 1.392 . S
C3261 C3265 1.495 . S
C3262 C3261 1.392 . S
C3262 C3263 1.385 . S
C3262 C3264 1.478 . S
C3263 H3257 0.930 . S
C3263 C3259 1.400 . S
C3263 C3262 1.385 . S
C3264 C3262 1.478 . S
C3264 C3266 1.381 . S
C3264 C3270 1.383 . S
C3265 C3261 1.495 . S
C3265 H3271 0.959 . S
C3265 H3272 0.961 . S
C3265 H3273 0.960 . S
C3266 C3264 1.381 . S
C3266 C3267 1.394 . S
C3266 H3274 0.930 . S
C3267 C3266 1.394 . S
C3267 C3268 1.383 . S
C3267 H3275 0.929 . S
C3268 C3267 1.383 . S
C3268 C3269 1.377 . S
C3269 H3253 0.930 . S
C3269 C3268 1.377 . S
C3269 C3270 1.379 . S
C3270 H3254 0.931 . S
C3270 C3264 1.383 . S
C3270 C3269 1.379 . S
H3271 C3265 0.959 . S
H3272 C3265 0.961 . S
H3273 C3265 0.960 . S
H3274 C3266 0.930 . S
H3275 C3267 0.929 . S
H3276 C3284 0.929 . S
H3277 C3286 0.930 . S
H3278 C3288 0.930 . S
H3279 C3291 0.929 . S
H3280 C3294 0.930 . S
H3281 C3296 0.960 . S
H3282 C3296 0.960 . S
H3283 C3296 0.960 . S
C3284 H3276 0.929 . S
C3284 C3285 1.377 . S
C3284 C3286 1.384 . S
C3285 C3284 1.377 . S
C3285 C3291 1.390 . S
C3286 H3277 0.930 . S
C3286 C3284 1.384 . S
C3286 C3287 1.372 . S
C3287 C3286 1.372 . S
C3287 C3288 1.400 . S
C3287 C3292 1.490 . S
C3288 H3278 0.930 . S
C3288 C3287 1.400 . S
C3288 C3291 1.386 . S
H3289 C3305 0.930 . S
H3290 C3306 0.931 . S
C3291 H3279 0.929 . S
C3291 C3285 1.390 . S
C3291 C3288 1.386 . S
C3292 C3287 1.490 . S
C3292 C3294 1.395 . S
C3292 C3295 1.403 . S
H3293 C3299 0.930 . S
C3294 H3280 0.930 . S
C3294 C3292 1.395 . S
C3294 C3297 1.403 . S
C3295 C3292 1.403 . S
C3295 C3296 1.524 . S
C3295 C3299 1.400 . S
C3296 H3281 0.960 . S
C3296 H3282 0.960 . S
C3296 H3283 0.960 . S
C3296 C3295 1.524 . S
C3297 C3294 1.403 . S
C3297 C3298 1.392 . S
C3297 C3301 1.495 . S
C3298 C3297 1.392 . S
C3298 C3299 1.385 . S
C3298 C3300 1.478 . S
C3299 H3293 0.930 . S
C3299 C3295 1.400 . S
C3299 C3298 1.385 . S
C3300 C3298 1.478 . S
C3300 C3302 1.381 . S
C3300 C3306 1.383 . S
C3301 C3297 1.495 . S
C3301 H3307 0.959 . S
C3301 H3308 0.961 . S
C3301 H3309 0.960 . S
C3302 C3300 1.381 . S
C3302 C3303 1.394 . S
C3302 H3310 0.930 . S
C3303 C3302 1.394 . S
C3303 C3304 1.383 . S
C3303 H3311 0.929 . S
C3304 C3303 1.383 . S
C3304 C3305 1.377 . S
C3305 H3289 0.930 . S
C3305 C3304 1.377 . S
C3305 C3306 1.379 . S
C3306 H3290 0.931 . S
C3306 C3300 1.383 . S
C3306 C3305 1.379 . S
H3307 C3301 0.959 . S
H3308 C3301 0.961 . S
H3309 C3301 0.960 . S
H3310 C3302 0.930 . S
H3311 C3303 0.929 . S
H3312 C3320 0.929 . S
H3313 C3322 0.930 . S
H3314 C3324 0.930 . S
H3315 C3327 0.929 . S
H3316 C3330 0.930 . S
H3317 C3332 0.960 . S
H3318 C3332 0.960 . S
H3319 C3332 0.960 . S
C3320 H3312 0.929 . S
C3320 C3321 1.377 . S
C3320 C3322 1.384 . S
C3321 C3320 1.377 . S
C3321 C3327 1.390 . S
C3322 H3313 0.930 . S
C3322 C3320 1.384 . S
C3322 C3323 1.372 . S
C3323 C3322 1.372 . S
C3323 C3324 1.400 . S
C3323 C3328 1.490 . S
C3324 H3314 0.930 . S
C3324 C3323 1.400 . S
C3324 C3327 1.386 . S
H3325 C3341 0.930 . S
H3326 C3342 0.931 . S
C3327 H3315 0.929 . S
C3327 C3321 1.390 . S
C3327 C3324 1.386 . S
C3328 C3323 1.490 . S
C3328 C3330 1.395 . S
C3328 C3331 1.403 . S
H3329 C3335 0.930 . S
C3330 H3316 0.930 . S
C3330 C3328 1.395 . S
C3330 C3333 1.403 . S
C3331 C3328 1.403 . S
C3331 C3332 1.524 . S
C3331 C3335 1.400 . S
C3332 H3317 0.960 . S
C3332 H3318 0.960 . S
C3332 H3319 0.960 . S
C3332 C3331 1.524 . S
C3333 C3330 1.403 . S
C3333 C3334 1.392 . S
C3333 C3337 1.495 . S
C3334 C3333 1.392 . S
C3334 C3335 1.385 . S
C3334 C3336 1.478 . S
C3335 H3329 0.930 . S
C3335 C3331 1.400 . S
C3335 C3334 1.385 . S
C3336 C3334 1.478 . S
C3336 C3338 1.381 . S
C3336 C3342 1.383 . S
C3337 C3333 1.495 . S
C3337 H3343 0.959 . S
C3337 H3344 0.961 . S
C3337 H3345 0.960 . S
C3338 C3336 1.381 . S
C3338 C3339 1.394 . S
C3338 H3346 0.930 . S
C3339 C3338 1.394 . S
C3339 C3340 1.383 . S
C3339 H3347 0.929 . S
C3340 C3339 1.383 . S
C3340 C3341 1.377 . S
C3341 H3325 0.930 . S
C3341 C3340 1.377 . S
C3341 C3342 1.379 . S
C3342 H3326 0.931 . S
C3342 C3336 1.383 . S
C3342 C3341 1.379 . S
H3343 C3337 0.959 . S
H3344 C3337 0.961 . S
H3345 C3337 0.960 . S
H3346 C3338 0.930 . S
H3347 C3339 0.929 . S
H3348 C3356 0.929 . S
H3349 C3358 0.930 . S
H3350 C3360 0.930 . S
H3351 C3363 0.929 . S
H3352 C3366 0.930 . S
H3353 C3368 0.960 . S
H3354 C3368 0.960 . S
H3355 C3368 0.960 . S
C3356 H3348 0.929 . S
C3356 C3357 1.377 . S
C3356 C3358 1.384 . S
C3357 C3356 1.377 . S
C3357 C3363 1.390 . S
C3358 H3349 0.930 . S
C3358 C3356 1.384 . S
C3358 C3359 1.372 . S
C3359 C3358 1.372 . S
C3359 C3360 1.400 . S
C3359 C3364 1.490 . S
C3360 H3350 0.930 . S
C3360 C3359 1.400 . S
C3360 C3363 1.386 . S
H3361 C3377 0.930 . S
H3362 C3378 0.931 . S
C3363 H3351 0.929 . S
C3363 C3357 1.390 . S
C3363 C3360 1.386 . S
C3364 C3359 1.490 . S
C3364 C3366 1.395 . S
C3364 C3367 1.403 . S
H3365 C3371 0.930 . S
C3366 H3352 0.930 . S
C3366 C3364 1.395 . S
C3366 C3369 1.403 . S
C3367 C3364 1.403 . S
C3367 C3368 1.524 . S
C3367 C3371 1.400 . S
C3368 H3353 0.960 . S
C3368 H3354 0.960 . S
C3368 H3355 0.960 . S
C3368 C3367 1.524 . S
C3369 C3366 1.403 . S
C3369 C3370 1.392 . S
C3369 C3373 1.495 . S
C3370 C3369 1.392 . S
C3370 C3371 1.385 . S
C3370 C3372 1.478 . S
C3371 H3365 0.930 . S
C3371 C3367 1.400 . S
C3371 C3370 1.385 . S
C3372 C3370 1.478 . S
C3372 C3374 1.381 . S
C3372 C3378 1.383 . S
C3373 C3369 1.495 . S
C3373 H3379 0.959 . S
C3373 H3380 0.961 . S
C3373 H3381 0.960 . S
C3374 C3372 1.381 . S
C3374 C3375 1.394 . S
C3374 H3382 0.930 . S
C3375 C3374 1.394 . S
C3375 C3376 1.383 . S
C3375 H3383 0.929 . S
C3376 C3375 1.383 . S
C3376 C3377 1.377 . S
C3377 H3361 0.930 . S
C3377 C3376 1.377 . S
C3377 C3378 1.379 . S
C3378 H3362 0.931 . S
C3378 C3372 1.383 . S
C3378 C3377 1.379 . S
H3379 C3373 0.959 . S
H3380 C3373 0.961 . S
H3381 C3373 0.960 . S
H3382 C3374 0.930 . S
H3383 C3375 0.929 . S
H3384 C3392 0.929 . S
H3385 C3394 0.930 . S
H3386 C3396 0.930 . S
H3387 C3399 0.929 . S
H3388 C3402 0.930 . S
H3389 C3404 0.960 . S
H3390 C3404 0.960 . S
H3391 C3404 0.960 . S
C3392 H3384 0.929 . S
C3392 C3393 1.377 . S
C3392 C3394 1.384 . S
C3393 C3392 1.377 . S
C3393 C3399 1.390 . S
C3394 H3385 0.930 . S
C3394 C3392 1.384 . S
C3394 C3395 1.372 . S
C3395 C3394 1.372 . S
C3395 C3396 1.400 . S
C3395 C3400 1.490 . S
C3396 H3386 0.930 . S
C3396 C3395 1.400 . S
C3396 C3399 1.386 . S
H3397 C3413 0.930 . S
H3398 C3414 0.931 . S
C3399 H3387 0.929 . S
C3399 C3393 1.390 . S
C3399 C3396 1.386 . S
C3400 C3395 1.490 . S
C3400 C3402 1.395 . S
C3400 C3403 1.403 . S
H3401 C3407 0.930 . S
C3402 H3388 0.930 . S
C3402 C3400 1.395 . S
C3402 C3405 1.403 . S
C3403 C3400 1.403 . S
C3403 C3404 1.524 . S
C3403 C3407 1.400 . S
C3404 H3389 0.960 . S
C3404 H3390 0.960 . S
C3404 H3391 0.960 . S
C3404 C3403 1.524 . S
C3405 C3402 1.403 . S
C3405 C3406 1.392 . S
C3405 C3409 1.495 . S
C3406 C3405 1.392 . S
C3406 C3407 1.385 . S
C3406 C3408 1.478 . S
C3407 H3401 0.930 . S
C3407 C3403 1.400 . S
C3407 C3406 1.385 . S
C3408 C3406 1.478 . S
C3408 C3410 1.381 . S
C3408 C3414 1.383 . S
C3409 C3405 1.495 . S
C3409 H3415 0.959 . S
C3409 H3416 0.961 . S
C3409 H3417 0.960 . S
C3410 C3408 1.381 . S
C3410 C3411 1.394 . S
C3410 H3418 0.930 . S
C3411 C3410 1.394 . S
C3411 C3412 1.383 . S
C3411 H3419 0.929 . S
C3412 C3411 1.383 . S
C3412 C3413 1.377 . S
C3413 H3397 0.930 . S
C3413 C3412 1.377 . S
C3413 C3414 1.379 . S
C3414 H3398 0.931 . S
C3414 C3408 1.383 . S
C3414 C3413 1.379 . S
H3415 C3409 0.959 . S
H3416 C3409 0.961 . S
H3417 C3409 0.960 . S
H3418 C3410 0.930 . S
H3419 C3411 0.929 . S
H3420 C3428 0.929 . S
H3421 C3430 0.930 . S
H3422 C3432 0.930 . S
H3423 C3435 0.929 . S
H3424 C3438 0.930 . S
H3425 C3440 0.960 . S
H3426 C3440 0.960 . S
H3427 C3440 0.960 . S
C3428 H3420 0.929 . S
C3428 C3429 1.377 . S
C3428 C3430 1.384 . S
C3429 C3428 1.377 . S
C3429 C3435 1.390 . S
C3430 H3421 0.930 . S
C3430 C3428 1.384 . S
C3430 C3431 1.372 . S
C3431 C3430 1.372 . S
C3431 C3432 1.400 . S
C3431 C3436 1.490 . S
C3432 H3422 0.930 . S
C3432 C3431 1.400 . S
C3432 C3435 1.386 . S
H3433 C3449 0.930 . S
H3434 C3450 0.931 . S
C3435 H3423 0.929 . S
C3435 C3429 1.390 . S
C3435 C3432 1.386 . S
C3436 C3431 1.490 . S
C3436 C3438 1.395 . S
C3436 C3439 1.403 . S
H3437 C3443 0.930 . S
C3438 H3424 0.930 . S
C3438 C3436 1.395 . S
C3438 C3441 1.403 . S
C3439 C3436 1.403 . S
C3439 C3440 1.524 . S
C3439 C3443 1.400 . S
C3440 H3425 0.960 . S
C3440 H3426 0.960 . S
C3440 H3427 0.960 . S
C3440 C3439 1.524 . S
C3441 C3438 1.403 . S
C3441 C3442 1.392 . S
C3441 C3445 1.495 . S
C3442 C3441 1.392 . S
C3442 C3443 1.385 . S
C3442 C3444 1.478 . S
C3443 H3437 0.930 . S
C3443 C3439 1.400 . S
C3443 C3442 1.385 . S
C3444 C3442 1.478 . S
C3444 C3446 1.381 . S
C3444 C3450 1.383 . S
C3445 C3441 1.495 . S
C3445 H3451 0.959 . S
C3445 H3452 0.961 . S
C3445 H3453 0.960 . S
C3446 C3444 1.381 . S
C3446 C3447 1.394 . S
C3446 H3454 0.930 . S
C3447 C3446 1.394 . S
C3447 C3448 1.383 . S
C3447 H3455 0.929 . S
C3448 C3447 1.383 . S
C3448 C3449 1.377 . S
C3449 H3433 0.930 . S
C3449 C3448 1.377 . S
C3449 C3450 1.379 . S
C3450 H3434 0.931 . S
C3450 C3444 1.383 . S
C3450 C3449 1.379 . S
H3451 C3445 0.959 . S
H3452 C3445 0.961 . S
H3453 C3445 0.960 . S
H3454 C3446 0.930 . S
H3455 C3447 0.929 . S
H3456 C3464 0.929 . S
H3457 C3466 0.930 1_554 S
H3458 C3468 0.930 . S
H3459 C3471 0.927 1_655 S
H3460 C3474 0.930 . S
H3461 C3476 0.960 . S
H3462 C3476 0.960 . S
H3463 C3476 0.960 . S
C3464 H3456 0.929 . S
C3464 C3465 1.377 . S
C3464 C3466 1.384 . S
C3465 C3464 1.377 . S
C3465 C3471 1.390 . S
C3466 H3457 0.930 1_556 S
C3466 C3464 1.384 . S
C3466 C3467 1.372 . S
C3467 C3466 1.372 . S
C3467 C3468 1.400 . S
C3467 C3472 1.490 . S
C3468 H3458 0.930 . S
C3468 C3467 1.400 . S
C3468 C3471 1.386 . S
H3469 C3485 0.930 . S
H3470 C3486 0.931 . S
C3471 H3459 0.927 1_455 S
C3471 C3465 1.390 . S
C3471 C3468 1.386 . S
C3472 C3467 1.490 . S
C3472 C3474 1.395 . S
C3472 C3475 1.403 1_455 S
H3473 C3479 0.930 1_655 S
C3474 H3460 0.930 . S
C3474 C3472 1.395 . S
C3474 C3477 1.403 . S
C3475 C3472 1.403 1_655 S
C3475 C3476 1.524 . S
C3475 C3479 1.400 1_655 S
C3476 H3461 0.960 . S
C3476 H3462 0.960 . S
C3476 H3463 0.960 . S
C3476 C3475 1.524 . S
C3477 C3474 1.403 . S
C3477 C3478 1.392 . S
C3477 C3481 1.495 1_556 S
C3478 C3477 1.392 . S
C3478 C3479 1.385 . S
C3478 C3480 1.478 . S
C3479 H3473 0.930 1_455 S
C3479 C3475 1.400 1_455 S
C3479 C3478 1.385 . S
C3480 C3478 1.478 . S
C3480 C3482 1.381 1_556 S
C3480 C3486 1.383 . S
C3481 C3477 1.495 1_554 S
C3481 H3487 0.959 . S
C3481 H3488 0.961 1_554 S
C3481 H3489 0.960 . S
C3482 C3480 1.381 1_554 S
C3482 C3483 1.394 . S
C3482 H3490 0.930 . S
C3483 C3482 1.394 . S
C3483 C3484 1.383 . S
C3483 H3491 0.929 . S
C3484 C3483 1.383 . S
C3484 C3485 1.377 1_554 S
C3485 H3469 0.930 . S
C3485 C3484 1.377 1_556 S
C3485 C3486 1.379 . S
C3486 H3470 0.931 . S
C3486 C3480 1.383 . S
C3486 C3485 1.379 . S
H3487 C3481 0.959 . S
H3488 C3481 0.961 1_556 S
H3489 C3481 0.960 . S
H3490 C3482 0.930 . S
H3491 C3483 0.929 . S
H3492 C3500 0.929 1_455 S
H3493 C3502 0.930 . S
H3494 C3504 0.930 . S
H3495 C3507 0.929 . S
H3496 C3510 0.930 . S
H3497 C3512 0.960 . S
H3498 C3512 0.960 . S
H3499 C3512 0.960 . S
C3500 H3492 0.929 1_655 S
C3500 C3501 1.377 . S
C3500 C3502 1.384 . S
C3501 C3500 1.377 . S
C3501 C3507 1.390 . S
C3502 H3493 0.930 . S
C3502 C3500 1.384 . S
C3502 C3503 1.372 . S
C3503 C3502 1.372 . S
C3503 C3504 1.400 . S
C3503 C3508 1.490 . S
C3504 H3494 0.930 . S
C3504 C3503 1.400 . S
C3504 C3507 1.386 . S
H3505 C3521 0.930 . S
H3506 C3522 0.931 . S
C3507 H3495 0.929 . S
C3507 C3501 1.390 . S
C3507 C3504 1.386 . S
C3508 C3503 1.490 . S
C3508 C3510 1.395 . S
C3508 C3511 1.403 . S
H3509 C3515 0.930 . S
C3510 H3496 0.930 . S
C3510 C3508 1.395 . S
C3510 C3513 1.403 . S
C3511 C3508 1.403 . S
C3511 C3512 1.524 . S
C3511 C3515 1.400 . S
C3512 H3497 0.960 . S
C3512 H3498 0.960 . S
C3512 H3499 0.960 . S
C3512 C3511 1.524 . S
C3513 C3510 1.403 . S
C3513 C3514 1.392 . S
C3513 C3517 1.495 . S
C3514 C3513 1.392 . S
C3514 C3515 1.385 . S
C3514 C3516 1.478 . S
C3515 H3509 0.930 . S
C3515 C3511 1.400 . S
C3515 C3514 1.385 . S
C3516 C3514 1.478 . S
C3516 C3518 1.381 . S
C3516 C3522 1.383 . S
C3517 C3513 1.495 . S
C3517 H3523 0.959 . S
C3517 H3524 0.961 . S
C3517 H3525 0.960 . S
C3518 C3516 1.381 . S
C3518 C3519 1.394 . S
C3518 H3526 0.930 . S
C3519 C3518 1.394 . S
C3519 C3520 1.383 . S
C3519 H3527 0.929 . S
C3520 C3519 1.383 . S
C3520 C3521 1.377 . S
C3521 H3505 0.930 . S
C3521 C3520 1.377 . S
C3521 C3522 1.379 . S
C3522 H3506 0.931 . S
C3522 C3516 1.383 . S
C3522 C3521 1.379 . S
H3523 C3517 0.959 . S
H3524 C3517 0.961 . S
H3525 C3517 0.960 . S
H3526 C3518 0.930 . S
H3527 C3519 0.929 . S
H3528 C3536 0.929 . S
H3529 C3538 0.930 . S
H3530 C3540 0.930 . S
H3531 C3543 0.929 . S
H3532 C3546 0.930 . S
H3533 C3548 0.960 . S
H3534 C3548 0.960 . S
H3535 C3548 0.960 . S
C3536 H3528 0.929 . S
C3536 C3537 1.377 . S
C3536 C3538 1.384 . S
C3537 C3536 1.377 . S
C3537 C3543 1.390 . S
C3538 H3529 0.930 . S
C3538 C3536 1.384 . S
C3538 C3539 1.372 . S
C3539 C3538 1.372 . S
C3539 C3540 1.400 . S
C3539 C3544 1.490 . S
C3540 H3530 0.930 . S
C3540 C3539 1.400 . S
C3540 C3543 1.386 . S
H3541 C3557 0.930 . S
H3542 C3558 0.931 . S
C3543 H3531 0.929 . S
C3543 C3537 1.390 . S
C3543 C3540 1.386 . S
C3544 C3539 1.490 . S
C3544 C3546 1.395 . S
C3544 C3547 1.403 . S
H3545 C3551 0.930 . S
C3546 H3532 0.930 . S
C3546 C3544 1.395 . S
C3546 C3549 1.403 . S
C3547 C3544 1.403 . S
C3547 C3548 1.524 . S
C3547 C3551 1.400 . S
C3548 H3533 0.960 . S
C3548 H3534 0.960 . S
C3548 H3535 0.960 . S
C3548 C3547 1.524 . S
C3549 C3546 1.403 . S
C3549 C3550 1.392 . S
C3549 C3553 1.495 . S
C3550 C3549 1.392 . S
C3550 C3551 1.385 . S
C3550 C3552 1.478 . S
C3551 H3545 0.930 . S
C3551 C3547 1.400 . S
C3551 C3550 1.385 . S
C3552 C3550 1.478 . S
C3552 C3554 1.381 . S
C3552 C3558 1.383 . S
C3553 C3549 1.495 . S
C3553 H3559 0.959 . S
C3553 H3560 0.961 . S
C3553 H3561 0.960 . S
C3554 C3552 1.381 . S
C3554 C3555 1.394 . S
C3554 H3562 0.930 . S
C3555 C3554 1.394 . S
C3555 C3556 1.383 . S
C3555 H3563 0.929 . S
C3556 C3555 1.383 . S
C3556 C3557 1.377 . S
C3557 H3541 0.930 . S
C3557 C3556 1.377 . S
C3557 C3558 1.379 . S
C3558 H3542 0.931 . S
C3558 C3552 1.383 . S
C3558 C3557 1.379 . S
H3559 C3553 0.959 . S
H3560 C3553 0.961 . S
H3561 C3553 0.960 . S
H3562 C3554 0.930 . S
H3563 C3555 0.929 . S
H3564 C3572 0.929 . S
H3565 C3574 0.930 . S
H3566 C3576 0.930 . S
H3567 C3579 0.929 . S
H3568 C3582 0.930 . S
H3569 C3584 0.960 . S
H3570 C3584 0.960 . S
H3571 C3584 0.960 . S
C3572 H3564 0.929 . S
C3572 C3573 1.377 . S
C3572 C3574 1.384 . S
C3573 C3572 1.377 . S
C3573 C3579 1.390 . S
C3574 H3565 0.930 . S
C3574 C3572 1.384 . S
C3574 C3575 1.372 . S
C3575 C3574 1.372 . S
C3575 C3576 1.400 . S
C3575 C3580 1.490 . S
C3576 H3566 0.930 . S
C3576 C3575 1.400 . S
C3576 C3579 1.386 . S
H3577 C3593 0.930 . S
H3578 C3594 0.931 . S
C3579 H3567 0.929 . S
C3579 C3573 1.390 . S
C3579 C3576 1.386 . S
C3580 C3575 1.490 . S
C3580 C3582 1.395 . S
C3580 C3583 1.403 . S
H3581 C3587 0.930 . S
C3582 H3568 0.930 . S
C3582 C3580 1.395 . S
C3582 C3585 1.403 . S
C3583 C3580 1.403 . S
C3583 C3584 1.524 . S
C3583 C3587 1.400 . S
C3584 H3569 0.960 . S
C3584 H3570 0.960 . S
C3584 H3571 0.960 . S
C3584 C3583 1.524 . S
C3585 C3582 1.403 . S
C3585 C3586 1.392 . S
C3585 C3589 1.495 . S
C3586 C3585 1.392 . S
C3586 C3587 1.385 . S
C3586 C3588 1.478 . S
C3587 H3581 0.930 . S
C3587 C3583 1.400 . S
C3587 C3586 1.385 . S
C3588 C3586 1.478 . S
C3588 C3590 1.381 . S
C3588 C3594 1.383 . S
C3589 C3585 1.495 . S
C3589 H3595 0.959 . S
C3589 H3596 0.961 . S
C3589 H3597 0.960 . S
C3590 C3588 1.381 . S
C3590 C3591 1.394 . S
C3590 H3598 0.930 . S
C3591 C3590 1.394 . S
C3591 C3592 1.383 . S
C3591 H3599 0.929 . S
C3592 C3591 1.383 . S
C3592 C3593 1.377 . S
C3593 H3577 0.930 . S
C3593 C3592 1.377 . S
C3593 C3594 1.379 . S
C3594 H3578 0.931 . S
C3594 C3588 1.383 . S
C3594 C3593 1.379 . S
H3595 C3589 0.959 . S
H3596 C3589 0.961 . S
H3597 C3589 0.960 . S
H3598 C3590 0.930 . S
H3599 C3591 0.929 . S
H3600 C3608 0.929 . S
H3601 C3610 0.930 . S
H3602 C3612 0.930 . S
H3603 C3615 0.929 . S
H3604 C3618 0.930 . S
H3605 C3620 0.960 . S
H3606 C3620 0.953 1_655 S
H3607 C3620 0.960 . S
C3608 H3600 0.929 . S
C3608 C3609 1.377 1_655 S
C3608 C3610 1.384 . S
C3609 C3608 1.377 1_455 S
C3609 C3615 1.390 . S
C3610 H3601 0.930 . S
C3610 C3608 1.384 . S
C3610 C3611 1.372 1_655 S
C3611 C3610 1.372 1_455 S
C3611 C3612 1.400 . S
C3611 C3616 1.490 . S
C3612 H3602 0.930 . S
C3612 C3611 1.400 . S
C3612 C3615 1.386 . S
H3613 C3629 0.930 . S
H3614 C3630 0.931 . S
C3615 H3603 0.929 . S
C3615 C3609 1.390 . S
C3615 C3612 1.386 . S
C3616 C3611 1.490 . S
C3616 C3618 1.395 . S
C3616 C3619 1.403 . S
H3617 C3623 0.930 . S
C3618 H3604 0.930 . S
C3618 C3616 1.395 . S
C3618 C3621 1.403 . S
C3619 C3616 1.403 . S
C3619 C3620 1.524 . S
C3619 C3623 1.400 . S
C3620 H3605 0.960 . S
C3620 H3606 0.953 1_455 S
C3620 H3607 0.960 . S
C3620 C3619 1.524 . S
C3621 C3618 1.403 . S
C3621 C3622 1.392 . S
C3621 C3625 1.495 . S
C3622 C3621 1.392 . S
C3622 C3623 1.385 . S
C3622 C3624 1.478 . S
C3623 H3617 0.930 . S
C3623 C3619 1.400 . S
C3623 C3622 1.385 . S
C3624 C3622 1.478 . S
C3624 C3626 1.381 . S
C3624 C3630 1.383 . S
C3625 C3621 1.495 . S
C3625 H3631 0.959 . S
C3625 H3632 0.961 . S
C3625 H3633 0.960 . S
C3626 C3624 1.381 . S
C3626 C3627 1.394 . S
C3626 H3634 0.930 1_455 S
C3627 C3626 1.394 . S
C3627 C3628 1.383 . S
C3627 H3635 0.929 1_455 S
C3628 C3627 1.383 . S
C3628 C3629 1.377 . S
C3629 H3613 0.930 . S
C3629 C3628 1.377 . S
C3629 C3630 1.379 . S
C3630 H3614 0.931 . S
C3630 C3624 1.383 . S
C3630 C3629 1.379 . S
H3631 C3625 0.959 . S
H3632 C3625 0.961 . S
H3633 C3625 0.960 . S
H3634 C3626 0.930 1_655 S
H3635 C3627 0.929 1_655 S
H3636 C3644 0.929 . S
H3637 C3646 0.930 . S
H3638 C3648 0.930 . S
H3639 C3651 0.929 . S
H3640 C3654 0.930 . S
H3641 C3656 0.960 . S
H3642 C3656 0.960 . S
H3643 C3656 0.960 . S
C3644 H3636 0.929 . S
C3644 C3645 1.377 . S
C3644 C3646 1.384 . S
C3645 C3644 1.377 . S
C3645 C3651 1.390 . S
C3646 H3637 0.930 . S
C3646 C3644 1.384 . S
C3646 C3647 1.372 . S
C3647 C3646 1.372 . S
C3647 C3648 1.400 . S
C3647 C3652 1.490 . S
C3648 H3638 0.930 . S
C3648 C3647 1.400 . S
C3648 C3651 1.386 . S
H3649 C3665 0.930 . S
H3650 C3666 0.931 . S
C3651 H3639 0.929 . S
C3651 C3645 1.390 . S
C3651 C3648 1.386 . S
C3652 C3647 1.490 . S
C3652 C3654 1.395 . S
C3652 C3655 1.403 . S
H3653 C3659 0.930 . S
C3654 H3640 0.930 . S
C3654 C3652 1.395 . S
C3654 C3657 1.403 . S
C3655 C3652 1.403 . S
C3655 C3656 1.524 . S
C3655 C3659 1.400 . S
C3656 H3641 0.960 . S
C3656 H3642 0.960 . S
C3656 H3643 0.960 . S
C3656 C3655 1.524 . S
C3657 C3654 1.403 . S
C3657 C3658 1.392 . S
C3657 C3661 1.495 . S
C3658 C3657 1.392 . S
C3658 C3659 1.385 . S
C3658 C3660 1.478 . S
C3659 H3653 0.930 . S
C3659 C3655 1.400 . S
C3659 C3658 1.385 . S
C3660 C3658 1.478 . S
C3660 C3662 1.381 . S
C3660 C3666 1.383 . S
C3661 C3657 1.495 . S
C3661 H3667 0.959 . S
C3661 H3668 0.961 . S
C3661 H3669 0.960 . S
C3662 C3660 1.381 . S
C3662 C3663 1.394 . S
C3662 H3670 0.930 . S
C3663 C3662 1.394 . S
C3663 C3664 1.383 . S
C3663 H3671 0.929 . S
C3664 C3663 1.383 . S
C3664 C3665 1.377 . S
C3665 H3649 0.930 . S
C3665 C3664 1.377 . S
C3665 C3666 1.379 . S
C3666 H3650 0.931 . S
C3666 C3660 1.383 . S
C3666 C3665 1.379 . S
H3667 C3661 0.959 . S
H3668 C3661 0.961 . S
H3669 C3661 0.960 . S
H3670 C3662 0.930 . S
H3671 C3663 0.929 . S
H3672 C3680 0.929 . S
H3673 C3682 0.930 . S
H3674 C3684 0.930 . S
H3675 C3687 0.929 . S
H3676 C3690 0.930 . S
H3677 C3692 0.960 . S
H3678 C3692 0.960 . S
H3679 C3692 0.960 . S
C3680 H3672 0.929 . S
C3680 C3681 1.377 . S
C3680 C3682 1.384 . S
C3681 C3680 1.377 . S
C3681 C3687 1.390 . S
C3682 H3673 0.930 . S
C3682 C3680 1.384 . S
C3682 C3683 1.372 . S
C3683 C3682 1.372 . S
C3683 C3684 1.400 . S
C3683 C3688 1.490 . S
C3684 H3674 0.930 . S
C3684 C3683 1.400 . S
C3684 C3687 1.386 . S
H3685 C3701 0.930 . S
H3686 C3702 0.931 . S
C3687 H3675 0.929 . S
C3687 C3681 1.390 . S
C3687 C3684 1.386 . S
C3688 C3683 1.490 . S
C3688 C3690 1.395 . S
C3688 C3691 1.403 . S
H3689 C3695 0.930 . S
C3690 H3676 0.930 . S
C3690 C3688 1.395 . S
C3690 C3693 1.403 . S
C3691 C3688 1.403 . S
C3691 C3692 1.524 . S
C3691 C3695 1.400 . S
C3692 H3677 0.960 . S
C3692 H3678 0.960 . S
C3692 H3679 0.960 . S
C3692 C3691 1.524 . S
C3693 C3690 1.403 . S
C3693 C3694 1.392 . S
C3693 C3697 1.495 . S
C3694 C3693 1.392 . S
C3694 C3695 1.385 . S
C3694 C3696 1.478 . S
C3695 H3689 0.930 . S
C3695 C3691 1.400 . S
C3695 C3694 1.385 . S
C3696 C3694 1.478 . S
C3696 C3698 1.381 . S
C3696 C3702 1.383 . S
C3697 C3693 1.495 . S
C3697 H3703 0.959 . S
C3697 H3704 0.961 . S
C3697 H3705 0.960 . S
C3698 C3696 1.381 . S
C3698 C3699 1.394 . S
C3698 H3706 0.930 . S
C3699 C3698 1.394 . S
C3699 C3700 1.383 . S
C3699 H3707 0.929 . S
C3700 C3699 1.383 . S
C3700 C3701 1.377 . S
C3701 H3685 0.930 . S
C3701 C3700 1.377 . S
C3701 C3702 1.379 . S
C3702 H3686 0.931 . S
C3702 C3696 1.383 . S
C3702 C3701 1.379 . S
H3703 C3697 0.959 . S
H3704 C3697 0.961 . S
H3705 C3697 0.960 . S
H3706 C3698 0.930 . S
H3707 C3699 0.929 . S
H3708 C3716 0.929 . S
H3709 C3718 0.930 . S
H3710 C3720 0.930 . S
H3711 C3723 0.929 . S
H3712 C3726 0.930 . S
H3713 C3728 0.960 . S
H3714 C3728 0.960 . S
H3715 C3728 0.960 . S
C3716 H3708 0.929 . S
C3716 C3717 1.377 . S
C3716 C3718 1.384 1_554 S
C3717 C3716 1.377 . S
C3717 C3723 1.390 1_554 S
C3718 H3709 0.930 . S
C3718 C3716 1.384 1_556 S
C3718 C3719 1.372 . S
C3719 C3718 1.372 . S
C3719 C3720 1.400 . S
C3719 C3724 1.490 . S
C3720 H3710 0.930 . S
C3720 C3719 1.400 . S
C3720 C3723 1.386 . S
H3721 C3737 0.930 . S
H3722 C3738 0.931 . S
C3723 H3711 0.929 . S
C3723 C3717 1.390 1_556 S
C3723 C3720 1.386 . S
C3724 C3719 1.490 . S
C3724 C3726 1.395 . S
C3724 C3727 1.403 . S
H3725 C3731 0.930 . S
C3726 H3712 0.930 . S
C3726 C3724 1.395 . S
C3726 C3729 1.403 . S
C3727 C3724 1.403 . S
C3727 C3728 1.524 . S
C3727 C3731 1.400 . S
C3728 H3713 0.960 . S
C3728 H3714 0.960 . S
C3728 H3715 0.960 . S
C3728 C3727 1.524 . S
C3729 C3726 1.403 . S
C3729 C3730 1.392 . S
C3729 C3733 1.495 . S
C3730 C3729 1.392 . S
C3730 C3731 1.385 . S
C3730 C3732 1.478 . S
C3731 H3725 0.930 . S
C3731 C3727 1.400 . S
C3731 C3730 1.385 . S
C3732 C3730 1.478 . S
C3732 C3734 1.381 . S
C3732 C3738 1.383 . S
C3733 C3729 1.495 . S
C3733 H3739 0.959 . S
C3733 H3740 0.961 . S
C3733 H3741 0.960 . S
C3734 C3732 1.381 . S
C3734 C3735 1.394 . S
C3734 H3742 0.930 . S
C3735 C3734 1.394 . S
C3735 C3736 1.383 . S
C3735 H3743 0.929 . S
C3736 C3735 1.383 . S
C3736 C3737 1.377 . S
C3737 H3721 0.930 . S
C3737 C3736 1.377 . S
C3737 C3738 1.379 . S
C3738 H3722 0.931 . S
C3738 C3732 1.383 . S
C3738 C3737 1.379 . S
H3739 C3733 0.959 . S
H3740 C3733 0.961 . S
H3741 C3733 0.960 . S
H3742 C3734 0.930 . S
H3743 C3735 0.929 . S
H3744 C3752 0.929 . S
H3745 C3754 0.930 . S
H3746 C3756 0.930 . S
H3747 C3759 0.929 . S
H3748 C3762 0.930 . S
H3749 C3764 0.960 . S
H3750 C3764 0.960 . S
H3751 C3764 0.960 . S
C3752 H3744 0.929 . S
C3752 C3753 1.377 . S
C3752 C3754 1.384 . S
C3753 C3752 1.377 . S
C3753 C3759 1.390 . S
C3754 H3745 0.930 . S
C3754 C3752 1.384 . S
C3754 C3755 1.372 . S
C3755 C3754 1.372 . S
C3755 C3756 1.400 . S
C3755 C3760 1.490 . S
C3756 H3746 0.930 . S
C3756 C3755 1.400 . S
C3756 C3759 1.386 . S
H3757 C3773 0.930 . S
H3758 C3774 0.931 . S
C3759 H3747 0.929 . S
C3759 C3753 1.390 . S
C3759 C3756 1.386 . S
C3760 C3755 1.490 . S
C3760 C3762 1.395 . S
C3760 C3763 1.403 . S
H3761 C3767 0.930 . S
C3762 H3748 0.930 . S
C3762 C3760 1.395 . S
C3762 C3765 1.403 . S
C3763 C3760 1.403 . S
C3763 C3764 1.524 . S
C3763 C3767 1.400 . S
C3764 H3749 0.960 . S
C3764 H3750 0.960 . S
C3764 H3751 0.960 . S
C3764 C3763 1.524 . S
C3765 C3762 1.403 . S
C3765 C3766 1.392 . S
C3765 C3769 1.495 . S
C3766 C3765 1.392 . S
C3766 C3767 1.385 . S
C3766 C3768 1.478 . S
C3767 H3761 0.930 . S
C3767 C3763 1.400 . S
C3767 C3766 1.385 . S
C3768 C3766 1.478 . S
C3768 C3770 1.381 . S
C3768 C3774 1.383 . S
C3769 C3765 1.495 . S
C3769 H3775 0.959 . S
C3769 H3776 0.961 . S
C3769 H3777 0.960 . S
C3770 C3768 1.381 . S
C3770 C3771 1.394 . S
C3770 H3778 0.930 . S
C3771 C3770 1.394 . S
C3771 C3772 1.383 . S
C3771 H3779 0.929 . S
C3772 C3771 1.383 . S
C3772 C3773 1.377 . S
C3773 H3757 0.930 . S
C3773 C3772 1.377 . S
C3773 C3774 1.379 . S
C3774 H3758 0.931 . S
C3774 C3768 1.383 . S
C3774 C3773 1.379 . S
H3775 C3769 0.959 . S
H3776 C3769 0.961 . S
H3777 C3769 0.960 . S
H3778 C3770 0.930 . S
H3779 C3771 0.929 . S
H3780 C3788 0.929 . S
H3781 C3790 0.930 . S
H3782 C3792 0.930 . S
H3783 C3795 0.929 . S
H3784 C3798 0.930 . S
H3785 C3800 0.960 . S
H3786 C3800 0.960 . S
H3787 C3800 0.960 . S
C3788 H3780 0.929 . S
C3788 C3789 1.377 . S
C3788 C3790 1.384 . S
C3789 C3788 1.377 . S
C3789 C3795 1.390 . S
C3790 H3781 0.930 . S
C3790 C3788 1.384 . S
C3790 C3791 1.372 . S
C3791 C3790 1.372 . S
C3791 C3792 1.400 . S
C3791 C3796 1.490 . S
C3792 H3782 0.930 . S
C3792 C3791 1.400 . S
C3792 C3795 1.386 . S
H3793 C3809 0.930 . S
H3794 C3810 0.931 . S
C3795 H3783 0.929 . S
C3795 C3789 1.390 . S
C3795 C3792 1.386 . S
C3796 C3791 1.490 . S
C3796 C3798 1.395 . S
C3796 C3799 1.403 . S
H3797 C3803 0.930 . S
C3798 H3784 0.930 . S
C3798 C3796 1.395 . S
C3798 C3801 1.403 . S
C3799 C3796 1.403 . S
C3799 C3800 1.524 . S
C3799 C3803 1.400 . S
C3800 H3785 0.960 . S
C3800 H3786 0.960 . S
C3800 H3787 0.960 . S
C3800 C3799 1.524 . S
C3801 C3798 1.403 . S
C3801 C3802 1.392 . S
C3801 C3805 1.495 . S
C3802 C3801 1.392 . S
C3802 C3803 1.385 . S
C3802 C3804 1.478 . S
C3803 H3797 0.930 . S
C3803 C3799 1.400 . S
C3803 C3802 1.385 . S
C3804 C3802 1.478 . S
C3804 C3806 1.381 . S
C3804 C3810 1.383 . S
C3805 C3801 1.495 . S
C3805 H3811 0.959 . S
C3805 H3812 0.961 . S
C3805 H3813 0.960 . S
C3806 C3804 1.381 . S
C3806 C3807 1.394 . S
C3806 H3814 0.930 . S
C3807 C3806 1.394 . S
C3807 C3808 1.383 . S
C3807 H3815 0.929 . S
C3808 C3807 1.383 . S
C3808 C3809 1.377 . S
C3809 H3793 0.930 . S
C3809 C3808 1.377 . S
C3809 C3810 1.379 . S
C3810 H3794 0.931 . S
C3810 C3804 1.383 . S
C3810 C3809 1.379 . S
H3811 C3805 0.959 . S
H3812 C3805 0.961 . S
H3813 C3805 0.960 . S
H3814 C3806 0.930 . S
H3815 C3807 0.929 . S
H3816 C3824 0.929 . S
H3817 C3826 0.930 . S
H3818 C3828 0.930 . S
H3819 C3831 0.929 . S
H3820 C3834 0.930 . S
H3821 C3836 0.960 . S
H3822 C3836 0.960 . S
H3823 C3836 0.960 . S
C3824 H3816 0.929 . S
C3824 C3825 1.377 . S
C3824 C3826 1.384 . S
C3825 C3824 1.377 . S
C3825 C3831 1.390 . S
C3826 H3817 0.930 . S
C3826 C3824 1.384 . S
C3826 C3827 1.372 . S
C3827 C3826 1.372 . S
C3827 C3828 1.400 . S
C3827 C3832 1.490 . S
C3828 H3818 0.930 . S
C3828 C3827 1.400 . S
C3828 C3831 1.386 . S
H3829 C3845 0.930 . S
H3830 C3846 0.931 . S
C3831 H3819 0.929 . S
C3831 C3825 1.390 . S
C3831 C3828 1.386 . S
C3832 C3827 1.490 . S
C3832 C3834 1.395 . S
C3832 C3835 1.403 . S
H3833 C3839 0.930 . S
C3834 H3820 0.930 . S
C3834 C3832 1.395 . S
C3834 C3837 1.403 . S
C3835 C3832 1.403 . S
C3835 C3836 1.524 . S
C3835 C3839 1.400 . S
C3836 H3821 0.960 . S
C3836 H3822 0.960 . S
C3836 H3823 0.960 . S
C3836 C3835 1.524 . S
C3837 C3834 1.403 . S
C3837 C3838 1.392 . S
C3837 C3841 1.495 . S
C3838 C3837 1.392 . S
C3838 C3839 1.385 . S
C3838 C3840 1.478 . S
C3839 H3833 0.930 . S
C3839 C3835 1.400 . S
C3839 C3838 1.385 . S
C3840 C3838 1.478 . S
C3840 C3842 1.381 . S
C3840 C3846 1.383 . S
C3841 C3837 1.495 . S
C3841 H3847 0.959 . S
C3841 H3848 0.961 . S
C3841 H3849 0.960 . S
C3842 C3840 1.381 . S
C3842 C3843 1.394 . S
C3842 H3850 0.930 . S
C3843 C3842 1.394 . S
C3843 C3844 1.383 . S
C3843 H3851 0.929 . S
C3844 C3843 1.383 . S
C3844 C3845 1.377 . S
C3845 H3829 0.930 . S
C3845 C3844 1.377 . S
C3845 C3846 1.379 . S
C3846 H3830 0.931 . S
C3846 C3840 1.383 . S
C3846 C3845 1.379 . S
H3847 C3841 0.959 . S
H3848 C3841 0.961 . S
H3849 C3841 0.960 . S
H3850 C3842 0.930 . S
H3851 C3843 0.929 . S
H3852 C3860 0.929 . S
H3853 C3862 0.930 . S
H3854 C3864 0.930 . S
H3855 C3867 0.929 . S
H3856 C3870 0.930 . S
H3857 C3872 0.960 . S
H3858 C3872 0.960 . S
H3859 C3872 0.960 . S
C3860 H3852 0.929 . S
C3860 C3861 1.377 . S
C3860 C3862 1.384 . S
C3861 C3860 1.377 . S
C3861 C3867 1.390 . S
C3862 H3853 0.930 . S
C3862 C3860 1.384 . S
C3862 C3863 1.372 . S
C3863 C3862 1.372 . S
C3863 C3864 1.400 . S
C3863 C3868 1.490 . S
C3864 H3854 0.930 . S
C3864 C3863 1.400 . S
C3864 C3867 1.386 . S
H3865 C3881 0.930 . S
H3866 C3882 0.931 . S
C3867 H3855 0.929 . S
C3867 C3861 1.390 . S
C3867 C3864 1.386 . S
C3868 C3863 1.490 . S
C3868 C3870 1.395 . S
C3868 C3871 1.403 . S
H3869 C3875 0.930 . S
C3870 H3856 0.930 . S
C3870 C3868 1.395 . S
C3870 C3873 1.403 . S
C3871 C3868 1.403 . S
C3871 C3872 1.524 . S
C3871 C3875 1.400 . S
C3872 H3857 0.960 . S
C3872 H3858 0.960 . S
C3872 H3859 0.960 . S
C3872 C3871 1.524 . S
C3873 C3870 1.403 . S
C3873 C3874 1.392 . S
C3873 C3877 1.495 . S
C3874 C3873 1.392 . S
C3874 C3875 1.385 . S
C3874 C3876 1.478 . S
C3875 H3869 0.930 . S
C3875 C3871 1.400 . S
C3875 C3874 1.385 . S
C3876 C3874 1.478 . S
C3876 C3878 1.381 . S
C3876 C3882 1.383 . S
C3877 C3873 1.495 . S
C3877 H3883 0.959 . S
C3877 H3884 0.961 . S
C3877 H3885 0.960 . S
C3878 C3876 1.381 . S
C3878 C3879 1.394 . S
C3878 H3886 0.930 . S
C3879 C3878 1.394 . S
C3879 C3880 1.383 . S
C3879 H3887 0.929 . S
C3880 C3879 1.383 . S
C3880 C3881 1.377 . S
C3881 H3865 0.930 . S
C3881 C3880 1.377 . S
C3881 C3882 1.379 . S
C3882 H3866 0.931 . S
C3882 C3876 1.383 . S
C3882 C3881 1.379 . S
H3883 C3877 0.959 . S
H3884 C3877 0.961 . S
H3885 C3877 0.960 . S
H3886 C3878 0.930 . S
H3887 C3879 0.929 . S
H3888 C3896 0.929 . S
H3889 C3898 0.930 . S
H3890 C3900 0.930 . S
H3891 C3903 0.929 . S
H3892 C3906 0.930 . S
H3893 C3908 0.960 . S
H3894 C3908 0.960 . S
H3895 C3908 0.960 . S
C3896 H3888 0.929 . S
C3896 C3897 1.377 . S
C3896 C3898 1.384 . S
C3897 C3896 1.377 . S
C3897 C3903 1.390 . S
C3898 H3889 0.930 . S
C3898 C3896 1.384 . S
C3898 C3899 1.372 . S
C3899 C3898 1.372 . S
C3899 C3900 1.400 . S
C3899 C3904 1.490 . S
C3900 H3890 0.930 . S
C3900 C3899 1.400 . S
C3900 C3903 1.386 . S
H3901 C3917 0.930 . S
H3902 C3918 0.931 . S
C3903 H3891 0.929 . S
C3903 C3897 1.390 . S
C3903 C3900 1.386 . S
C3904 C3899 1.490 . S
C3904 C3906 1.395 . S
C3904 C3907 1.403 . S
H3905 C3911 0.930 . S
C3906 H3892 0.930 . S
C3906 C3904 1.395 . S
C3906 C3909 1.403 . S
C3907 C3904 1.403 . S
C3907 C3908 1.524 . S
C3907 C3911 1.400 . S
C3908 H3893 0.960 . S
C3908 H3894 0.960 . S
C3908 H3895 0.960 . S
C3908 C3907 1.524 . S
C3909 C3906 1.403 . S
C3909 C3910 1.392 . S
C3909 C3913 1.495 . S
C3910 C3909 1.392 . S
C3910 C3911 1.385 . S
C3910 C3912 1.478 . S
C3911 H3905 0.930 . S
C3911 C3907 1.400 . S
C3911 C3910 1.385 . S
C3912 C3910 1.478 . S
C3912 C3914 1.381 . S
C3912 C3918 1.383 . S
C3913 C3909 1.495 . S
C3913 H3919 0.959 . S
C3913 H3920 0.961 . S
C3913 H3921 0.960 . S
C3914 C3912 1.381 . S
C3914 C3915 1.394 . S
C3914 H3922 0.930 . S
C3915 C3914 1.394 . S
C3915 C3916 1.383 . S
C3915 H3923 0.929 . S
C3916 C3915 1.383 . S
C3916 C3917 1.377 . S
C3917 H3901 0.930 . S
C3917 C3916 1.377 . S
C3917 C3918 1.379 . S
C3918 H3902 0.931 . S
C3918 C3912 1.383 . S
C3918 C3917 1.379 . S
H3919 C3913 0.959 . S
H3920 C3913 0.961 . S
H3921 C3913 0.960 . S
H3922 C3914 0.930 . S
H3923 C3915 0.929 . S
H3924 C3932 0.929 . S
H3925 C3934 0.930 . S
H3926 C3936 0.930 . S
H3927 C3939 0.929 . S
H3928 C3942 0.930 . S
H3929 C3944 0.960 . S
H3930 C3944 0.960 . S
H3931 C3944 0.960 . S
C3932 H3924 0.929 . S
C3932 C3933 1.377 . S
C3932 C3934 1.384 . S
C3933 C3932 1.377 . S
C3933 C3939 1.390 . S
C3934 H3925 0.930 . S
C3934 C3932 1.384 . S
C3934 C3935 1.372 . S
C3935 C3934 1.372 . S
C3935 C3936 1.400 . S
C3935 C3940 1.490 . S
C3936 H3926 0.930 . S
C3936 C3935 1.400 . S
C3936 C3939 1.386 . S
H3937 C3953 0.930 . S
H3938 C3954 0.931 . S
C3939 H3927 0.929 . S
C3939 C3933 1.390 . S
C3939 C3936 1.386 . S
C3940 C3935 1.490 . S
C3940 C3942 1.395 . S
C3940 C3943 1.403 . S
H3941 C3947 0.930 . S
C3942 H3928 0.930 . S
C3942 C3940 1.395 . S
C3942 C3945 1.403 . S
C3943 C3940 1.403 . S
C3943 C3944 1.524 . S
C3943 C3947 1.400 . S
C3944 H3929 0.960 . S
C3944 H3930 0.960 . S
C3944 H3931 0.960 . S
C3944 C3943 1.524 . S
C3945 C3942 1.403 . S
C3945 C3946 1.392 . S
C3945 C3949 1.495 . S
C3946 C3945 1.392 . S
C3946 C3947 1.385 . S
C3946 C3948 1.478 . S
C3947 H3941 0.930 . S
C3947 C3943 1.400 . S
C3947 C3946 1.385 . S
C3948 C3946 1.478 . S
C3948 C3950 1.381 . S
C3948 C3954 1.383 . S
C3949 C3945 1.495 . S
C3949 H3955 0.959 . S
C3949 H3956 0.961 . S
C3949 H3957 0.960 . S
C3950 C3948 1.381 . S
C3950 C3951 1.394 . S
C3950 H3958 0.930 . S
C3951 C3950 1.394 . S
C3951 C3952 1.383 . S
C3951 H3959 0.929 . S
C3952 C3951 1.383 . S
C3952 C3953 1.377 . S
C3953 H3937 0.930 . S
C3953 C3952 1.377 . S
C3953 C3954 1.379 . S
C3954 H3938 0.931 . S
C3954 C3948 1.383 . S
C3954 C3953 1.379 . S
H3955 C3949 0.959 . S
H3956 C3949 0.961 . S
H3957 C3949 0.960 . S
H3958 C3950 0.930 . S
H3959 C3951 0.929 . S
H3960 C3968 0.929 . S
H3961 C3970 0.930 . S
H3962 C3972 0.930 . S
H3963 C3975 0.929 . S
H3964 C3978 0.930 . S
H3965 C3980 0.960 . S
H3966 C3980 0.960 . S
H3967 C3980 0.960 . S
C3968 H3960 0.929 . S
C3968 C3969 1.377 . S
C3968 C3970 1.384 . S
C3969 C3968 1.377 . S
C3969 C3975 1.390 . S
C3970 H3961 0.930 . S
C3970 C3968 1.384 . S
C3970 C3971 1.372 . S
C3971 C3970 1.372 . S
C3971 C3972 1.400 . S
C3971 C3976 1.490 . S
C3972 H3962 0.930 . S
C3972 C3971 1.400 . S
C3972 C3975 1.386 . S
H3973 C3989 0.930 . S
H3974 C3990 0.931 . S
C3975 H3963 0.929 . S
C3975 C3969 1.390 . S
C3975 C3972 1.386 . S
C3976 C3971 1.490 . S
C3976 C3978 1.395 . S
C3976 C3979 1.403 . S
H3977 C3983 0.930 . S
C3978 H3964 0.930 . S
C3978 C3976 1.395 . S
C3978 C3981 1.403 . S
C3979 C3976 1.403 . S
C3979 C3980 1.524 . S
C3979 C3983 1.400 . S
C3980 H3965 0.960 . S
C3980 H3966 0.960 . S
C3980 H3967 0.960 . S
C3980 C3979 1.524 . S
C3981 C3978 1.403 . S
C3981 C3982 1.392 . S
C3981 C3985 1.495 . S
C3982 C3981 1.392 . S
C3982 C3983 1.385 . S
C3982 C3984 1.478 . S
C3983 H3977 0.930 . S
C3983 C3979 1.400 . S
C3983 C3982 1.385 . S
C3984 C3982 1.478 . S
C3984 C3986 1.381 . S
C3984 C3990 1.383 . S
C3985 C3981 1.495 . S
C3985 H3991 0.959 . S
C3985 H3992 0.961 . S
C3985 H3993 0.960 . S
C3986 C3984 1.381 . S
C3986 C3987 1.394 . S
C3986 H3994 0.930 . S
C3987 C3986 1.394 . S
C3987 C3988 1.383 . S
C3987 H3995 0.929 . S
C3988 C3987 1.383 . S
C3988 C3989 1.377 . S
C3989 H3973 0.930 . S
C3989 C3988 1.377 . S
C3989 C3990 1.379 . S
C3990 H3974 0.931 . S
C3990 C3984 1.383 . S
C3990 C3989 1.379 . S
H3991 C3985 0.959 . S
H3992 C3985 0.961 . S
H3993 C3985 0.960 . S
H3994 C3986 0.930 . S
H3995 C3987 0.929 . S
H3996 C4004 0.929 . S
H3997 C4006 0.930 . S
H3998 C4008 0.930 . S
H3999 C4011 0.929 . S
H4000 C4014 0.930 . S
H4001 C4016 0.960 . S
H4002 C4016 0.960 . S
H4003 C4016 0.960 . S
C4004 H3996 0.929 . S
C4004 C4005 1.377 . S
C4004 C4006 1.384 . S
C4005 C4004 1.377 . S
C4005 C4011 1.390 . S
C4006 H3997 0.930 . S
C4006 C4004 1.384 . S
C4006 C4007 1.372 . S
C4007 C4006 1.372 . S
C4007 C4008 1.400 . S
C4007 C4012 1.490 . S
C4008 H3998 0.930 . S
C4008 C4007 1.400 . S
C4008 C4011 1.386 . S
H4009 C4025 0.930 . S
H4010 C4026 0.931 . S
C4011 H3999 0.929 . S
C4011 C4005 1.390 . S
C4011 C4008 1.386 . S
C4012 C4007 1.490 . S
C4012 C4014 1.395 . S
C4012 C4015 1.403 . S
H4013 C4019 0.930 . S
C4014 H4000 0.930 . S
C4014 C4012 1.395 . S
C4014 C4017 1.403 . S
C4015 C4012 1.403 . S
C4015 C4016 1.524 . S
C4015 C4019 1.400 . S
C4016 H4001 0.960 . S
C4016 H4002 0.960 . S
C4016 H4003 0.960 . S
C4016 C4015 1.524 . S
C4017 C4014 1.403 . S
C4017 C4018 1.392 . S
C4017 C4021 1.495 . S
C4018 C4017 1.392 . S
C4018 C4019 1.385 . S
C4018 C4020 1.478 . S
C4019 H4013 0.930 . S
C4019 C4015 1.400 . S
C4019 C4018 1.385 . S
C4020 C4018 1.478 . S
C4020 C4022 1.381 . S
C4020 C4026 1.383 . S
C4021 C4017 1.495 . S
C4021 H4027 0.959 . S
C4021 H4028 0.961 . S
C4021 H4029 0.960 . S
C4022 C4020 1.381 . S
C4022 C4023 1.394 . S
C4022 H4030 0.930 . S
C4023 C4022 1.394 . S
C4023 C4024 1.383 . S
C4023 H4031 0.929 . S
C4024 C4023 1.383 . S
C4024 C4025 1.377 . S
C4025 H4009 0.930 . S
C4025 C4024 1.377 . S
C4025 C4026 1.379 . S
C4026 H4010 0.931 . S
C4026 C4020 1.383 . S
C4026 C4025 1.379 . S
H4027 C4021 0.959 . S
H4028 C4021 0.961 . S
H4029 C4021 0.960 . S
H4030 C4022 0.930 . S
H4031 C4023 0.929 . S
H4032 C4040 0.929 . S
H4033 C4042 0.930 . S
H4034 C4044 0.930 . S
H4035 C4047 0.941 . S
H4036 C4050 0.930 . S
H4037 C4052 0.960 . S
H4038 C4052 0.960 . S
H4039 C4052 0.960 . S
C4040 H4032 0.929 . S
C4040 C4041 1.377 . S
C4040 C4042 1.384 . S
C4041 C4040 1.377 . S
C4041 C4047 1.390 . S
C4042 H4033 0.930 . S
C4042 C4040 1.384 . S
C4042 C4043 1.372 . S
C4043 C4042 1.372 . S
C4043 C4044 1.400 . S
C4043 C4048 1.490 . S
C4044 H4034 0.930 . S
C4044 C4043 1.400 . S
C4044 C4047 1.386 . S
H4045 C4061 0.930 . S
H4046 C4062 0.931 . S
C4047 H4035 0.941 . S
C4047 C4041 1.390 . S
C4047 C4044 1.386 . S
C4048 C4043 1.490 . S
C4048 C4050 1.395 . S
C4048 C4051 1.403 . S
H4049 C4055 0.930 . S
C4050 H4036 0.930 . S
C4050 C4048 1.395 . S
C4050 C4053 1.403 . S
C4051 C4048 1.403 . S
C4051 C4052 1.524 . S
C4051 C4055 1.400 . S
C4052 H4037 0.960 . S
C4052 H4038 0.960 . S
C4052 H4039 0.960 . S
C4052 C4051 1.524 . S
C4053 C4050 1.403 . S
C4053 C4054 1.392 . S
C4053 C4057 1.495 . S
C4054 C4053 1.392 . S
C4054 C4055 1.385 . S
C4054 C4056 1.478 . S
C4055 H4049 0.930 . S
C4055 C4051 1.400 . S
C4055 C4054 1.385 . S
C4056 C4054 1.478 . S
C4056 C4058 1.381 . S
C4056 C4062 1.383 . S
C4057 C4053 1.495 . S
C4057 H4063 0.959 . S
C4057 H4064 0.961 . S
C4057 H4065 0.960 . S
C4058 C4056 1.381 . S
C4058 C4059 1.394 . S
C4058 H4066 0.930 . S
C4059 C4058 1.394 . S
C4059 C4060 1.383 . S
C4059 H4067 0.929 . S
C4060 C4059 1.383 . S
C4060 C4061 1.377 . S
C4061 H4045 0.930 . S
C4061 C4060 1.377 . S
C4061 C4062 1.379 . S
C4062 H4046 0.931 . S
C4062 C4056 1.383 . S
C4062 C4061 1.379 . S
H4063 C4057 0.959 . S
H4064 C4057 0.961 . S
H4065 C4057 0.960 . S
H4066 C4058 0.930 . S
H4067 C4059 0.929 . S
H4068 C4076 0.929 . S
H4069 C4078 0.930 . S
H4070 C4080 0.930 . S
H4071 C4083 0.929 . S
H4072 C4086 0.930 . S
H4073 C4088 0.960 . S
H4074 C4088 0.960 1_565 S
H4075 C4088 0.960 . S
C4076 H4068 0.929 . S
C4076 C4077 1.377 . S
C4076 C4078 1.384 . S
C4077 C4076 1.377 . S
C4077 C4083 1.390 1_554 S
C4078 H4069 0.930 . S
C4078 C4076 1.384 . S
C4078 C4079 1.372 . S
C4079 C4078 1.372 . S
C4079 C4080 1.400 1_554 S
C4079 C4084 1.490 . S
C4080 H4070 0.930 . S
C4080 C4079 1.400 1_556 S
C4080 C4083 1.386 . S
H4081 C4097 0.930 1_556 S
H4082 C4098 0.929 1_546 S
C4083 H4071 0.929 . S
C4083 C4077 1.390 1_556 S
C4083 C4080 1.386 . S
C4084 C4079 1.490 . S
C4084 C4086 1.395 . S
C4084 C4087 1.403 . S
H4085 C4091 0.930 1_545 S
C4086 H4072 0.930 . S
C4086 C4084 1.395 . S
C4086 C4089 1.403 . S
C4087 C4084 1.403 . S
C4087 C4088 1.524 1_565 S
C4087 C4091 1.400 . S
C4088 H4073 0.960 . S
C4088 H4074 0.960 1_545 S
C4088 H4075 0.960 . S
C4088 C4087 1.524 1_545 S
C4089 C4086 1.403 . S
C4089 C4090 1.392 . S
C4089 C4093 1.495 . S
C4090 C4089 1.392 . S
C4090 C4091 1.385 . S
C4090 C4092 1.478 . S
C4091 H4085 0.930 1_565 S
C4091 C4087 1.400 . S
C4091 C4090 1.385 . S
C4092 C4090 1.478 . S
C4092 C4094 1.381 . S
C4092 C4098 1.386 . S
C4093 C4089 1.495 . S
C4093 H4099 0.959 1_554 S
C4093 H4100 0.961 1_554 S
C4093 H4101 0.960 . S
C4094 C4092 1.381 . S
C4094 C4095 1.394 . S
C4094 H4102 0.930 . S
C4095 C4094 1.394 . S
C4095 C4096 1.383 1_565 S
C4095 H4103 0.929 . S
C4096 C4095 1.383 1_545 S
C4096 C4097 1.377 . S
C4097 H4081 0.930 1_554 S
C4097 C4096 1.377 . S
C4097 C4098 1.378 1_545 S
C4098 H4082 0.929 1_564 S
C4098 C4092 1.386 . S
C4098 C4097 1.378 1_565 S
H4099 C4093 0.959 1_556 S
H4100 C4093 0.961 1_556 S
H4101 C4093 0.960 . S
H4102 C4094 0.930 . S
H4103 C4095 0.929 . S
H4104 C4112 0.929 . S
H4105 C4114 0.930 . S
H4106 C4116 0.930 . S
H4107 C4119 0.929 . S
H4108 C4122 0.930 . S
H4109 C4124 0.960 . S
H4110 C4124 0.960 . S
H4111 C4124 0.960 . S
C4112 H4104 0.929 . S
C4112 C4113 1.377 . S
C4112 C4114 1.384 . S
C4113 C4112 1.377 . S
C4113 C4119 1.390 . S
C4114 H4105 0.930 . S
C4114 C4112 1.384 . S
C4114 C4115 1.372 . S
C4115 C4114 1.372 . S
C4115 C4116 1.400 . S
C4115 C4120 1.490 . S
C4116 H4106 0.930 . S
C4116 C4115 1.400 . S
C4116 C4119 1.386 . S
H4117 C4133 0.930 . S
H4118 C4134 0.931 . S
C4119 H4107 0.929 . S
C4119 C4113 1.390 . S
C4119 C4116 1.386 . S
C4120 C4115 1.490 . S
C4120 C4122 1.395 . S
C4120 C4123 1.403 . S
H4121 C4127 0.930 . S
C4122 H4108 0.930 . S
C4122 C4120 1.395 . S
C4122 C4125 1.403 . S
C4123 C4120 1.403 . S
C4123 C4124 1.524 . S
C4123 C4127 1.400 . S
C4124 H4109 0.960 . S
C4124 H4110 0.960 . S
C4124 H4111 0.960 . S
C4124 C4123 1.524 . S
C4125 C4122 1.403 . S
C4125 C4126 1.392 . S
C4125 C4129 1.495 . S
C4126 C4125 1.392 . S
C4126 C4127 1.385 . S
C4126 C4128 1.478 . S
C4127 H4121 0.930 . S
C4127 C4123 1.400 . S
C4127 C4126 1.385 . S
C4128 C4126 1.478 . S
C4128 C4130 1.381 . S
C4128 C4134 1.383 . S
C4129 C4125 1.495 . S
C4129 H4135 0.959 . S
C4129 H4136 0.961 . S
C4129 H4137 0.960 . S
C4130 C4128 1.381 . S
C4130 C4131 1.394 . S
C4130 H4138 0.930 . S
C4131 C4130 1.394 . S
C4131 C4132 1.383 . S
C4131 H4139 0.929 . S
C4132 C4131 1.383 . S
C4132 C4133 1.377 . S
C4133 H4117 0.930 . S
C4133 C4132 1.377 . S
C4133 C4134 1.379 . S
C4134 H4118 0.931 . S
C4134 C4128 1.383 . S
C4134 C4133 1.379 . S
H4135 C4129 0.959 . S
H4136 C4129 0.961 . S
H4137 C4129 0.960 . S
H4138 C4130 0.930 . S
H4139 C4131 0.929 . S
H4140 C4148 0.949 . S
H4141 C4150 0.930 1_556 S
H4142 C4152 0.930 . S
H4143 C4155 0.929 . S
H4144 C4158 0.930 . S
H4145 C4160 0.960 . S
H4146 C4160 0.960 . S
H4147 C4160 0.928 1_554 S
C4148 H4140 0.949 . S
C4148 C4149 1.361 1_556 S
C4148 C4150 1.382 1_556 S
C4149 C4148 1.361 1_554 S
C4149 C4155 1.390 . S
C4150 H4141 0.930 1_554 S
C4150 C4148 1.382 1_554 S
C4150 C4151 1.372 . S
C4151 C4150 1.372 . S
C4151 C4152 1.400 . S
C4151 C4156 1.490 . S
C4152 H4142 0.930 . S
C4152 C4151 1.400 . S
C4152 C4155 1.386 . S
H4153 C4169 0.930 . S
H4154 C4170 0.931 . S
C4155 H4143 0.929 . S
C4155 C4149 1.390 . S
C4155 C4152 1.386 . S
C4156 C4151 1.490 . S
C4156 C4158 1.395 . S
C4156 C4159 1.403 . S
H4157 C4163 0.930 . S
C4158 H4144 0.930 . S
C4158 C4156 1.395 . S
C4158 C4161 1.403 . S
C4159 C4156 1.403 . S
C4159 C4160 1.524 1_554 S
C4159 C4163 1.400 . S
C4160 H4145 0.960 . S
C4160 H4146 0.960 . S
C4160 H4147 0.928 1_556 S
C4160 C4159 1.524 1_556 S
C4161 C4158 1.403 . S
C4161 C4162 1.392 . S
C4161 C4165 1.495 . S
C4162 C4161 1.392 . S
C4162 C4163 1.385 . S
C4162 C4164 1.478 . S
C4163 H4157 0.930 . S
C4163 C4159 1.400 . S
C4163 C4162 1.385 . S
C4164 C4162 1.478 . S
C4164 C4166 1.381 . S
C4164 C4170 1.383 . S
C4165 C4161 1.495 . S
C4165 H4171 0.959 . S
C4165 H4172 0.961 . S
C4165 H4173 0.960 . S
C4166 C4164 1.381 . S
C4166 C4167 1.394 . S
C4166 H4174 0.930 . S
C4167 C4166 1.394 . S
C4167 C4168 1.383 . S
C4167 H4175 0.929 . S
C4168 C4167 1.383 . S
C4168 C4169 1.377 . S
C4169 H4153 0.930 . S
C4169 C4168 1.377 . S
C4169 C4170 1.379 . S
C4170 H4154 0.931 . S
C4170 C4164 1.383 . S
C4170 C4169 1.379 . S
H4171 C4165 0.959 . S
H4172 C4165 0.961 . S
H4173 C4165 0.960 . S
H4174 C4166 0.930 . S
H4175 C4167 0.929 . S
H4176 C4184 0.929 . S
H4177 C4186 0.930 . S
H4178 C4188 0.930 . S
H4179 C4191 0.929 . S
H4180 C4194 0.930 . S
H4181 C4196 0.960 . S
H4182 C4196 0.960 . S
H4183 C4196 0.960 . S
C4184 H4176 0.929 . S
C4184 C4185 1.377 . S
C4184 C4186 1.384 . S
C4185 C4184 1.377 . S
C4185 C4191 1.390 . S
C4186 H4177 0.930 . S
C4186 C4184 1.384 . S
C4186 C4187 1.372 . S
C4187 C4186 1.372 . S
C4187 C4188 1.400 . S
C4187 C4192 1.490 . S
C4188 H4178 0.930 . S
C4188 C4187 1.400 . S
C4188 C4191 1.386 . S
H4189 C4205 0.930 . S
H4190 C4206 0.931 . S
C4191 H4179 0.929 . S
C4191 C4185 1.390 . S
C4191 C4188 1.386 . S
C4192 C4187 1.490 . S
C4192 C4194 1.395 . S
C4192 C4195 1.403 . S
H4193 C4199 0.930 . S
C4194 H4180 0.930 . S
C4194 C4192 1.395 . S
C4194 C4197 1.403 . S
C4195 C4192 1.403 . S
C4195 C4196 1.524 . S
C4195 C4199 1.400 . S
C4196 H4181 0.960 . S
C4196 H4182 0.960 . S
C4196 H4183 0.960 . S
C4196 C4195 1.524 . S
C4197 C4194 1.403 . S
C4197 C4198 1.392 . S
C4197 C4201 1.495 . S
C4198 C4197 1.392 . S
C4198 C4199 1.385 . S
C4198 C4200 1.478 . S
C4199 H4193 0.930 . S
C4199 C4195 1.400 . S
C4199 C4198 1.385 . S
C4200 C4198 1.478 . S
C4200 C4202 1.381 . S
C4200 C4206 1.383 . S
C4201 C4197 1.495 . S
C4201 H4207 0.959 . S
C4201 H4208 0.961 . S
C4201 H4209 0.960 . S
C4202 C4200 1.381 . S
C4202 C4203 1.394 . S
C4202 H4210 0.930 . S
C4203 C4202 1.394 . S
C4203 C4204 1.383 . S
C4203 H4211 0.929 . S
C4204 C4203 1.383 . S
C4204 C4205 1.377 . S
C4205 H4189 0.930 . S
C4205 C4204 1.377 . S
C4205 C4206 1.379 . S
C4206 H4190 0.931 . S
C4206 C4200 1.383 . S
C4206 C4205 1.379 . S
H4207 C4201 0.959 . S
H4208 C4201 0.961 . S
H4209 C4201 0.960 . S
H4210 C4202 0.930 . S
H4211 C4203 0.929 . S
H4212 C4220 0.929 . S
H4213 C4222 0.930 . S
H4214 C4224 0.930 . S
H4215 C4227 0.929 . S
H4216 C4230 0.930 . S
H4217 C4232 0.960 . S
H4218 C4232 0.960 . S
H4219 C4232 0.960 . S
C4220 H4212 0.929 . S
C4220 C4221 1.377 . S
C4220 C4222 1.384 . S
C4221 C4220 1.377 . S
C4221 C4227 1.390 . S
C4222 H4213 0.930 . S
C4222 C4220 1.384 . S
C4222 C4223 1.372 . S
C4223 C4222 1.372 . S
C4223 C4224 1.400 . S
C4223 C4228 1.490 . S
C4224 H4214 0.930 . S
C4224 C4223 1.400 . S
C4224 C4227 1.386 . S
H4225 C4241 0.930 . S
H4226 C4242 0.931 . S
C4227 H4215 0.929 . S
C4227 C4221 1.390 . S
C4227 C4224 1.386 . S
C4228 C4223 1.490 . S
C4228 C4230 1.395 . S
C4228 C4231 1.403 . S
H4229 C4235 0.930 . S
C4230 H4216 0.930 . S
C4230 C4228 1.395 . S
C4230 C4233 1.403 . S
C4231 C4228 1.403 . S
C4231 C4232 1.524 . S
C4231 C4235 1.400 . S
C4232 H4217 0.960 . S
C4232 H4218 0.960 . S
C4232 H4219 0.960 . S
C4232 C4231 1.524 . S
C4233 C4230 1.403 . S
C4233 C4234 1.392 . S
C4233 C4237 1.495 . S
C4234 C4233 1.392 . S
C4234 C4235 1.385 . S
C4234 C4236 1.478 . S
C4235 H4229 0.930 . S
C4235 C4231 1.400 . S
C4235 C4234 1.385 . S
C4236 C4234 1.478 . S
C4236 C4238 1.381 . S
C4236 C4242 1.383 . S
C4237 C4233 1.495 . S
C4237 H4243 0.959 . S
C4237 H4244 0.961 . S
C4237 H4245 0.960 . S
C4238 C4236 1.381 . S
C4238 C4239 1.394 . S
C4238 H4246 0.930 . S
C4239 C4238 1.394 . S
C4239 C4240 1.383 . S
C4239 H4247 0.929 . S
C4240 C4239 1.383 . S
C4240 C4241 1.377 . S
C4241 H4225 0.930 . S
C4241 C4240 1.377 . S
C4241 C4242 1.379 . S
C4242 H4226 0.931 . S
C4242 C4236 1.383 . S
C4242 C4241 1.379 . S
H4243 C4237 0.959 . S
H4244 C4237 0.961 . S
H4245 C4237 0.960 . S
H4246 C4238 0.930 . S
H4247 C4239 0.929 . S
H4248 C4256 0.929 . S
H4249 C4258 0.930 . S
H4250 C4260 0.930 . S
H4251 C4263 0.929 . S
H4252 C4266 0.930 . S
H4253 C4268 0.960 . S
H4254 C4268 0.960 . S
H4255 C4268 0.960 . S
C4256 H4248 0.929 . S
C4256 C4257 1.377 . S
C4256 C4258 1.384 . S
C4257 C4256 1.377 . S
C4257 C4263 1.390 . S
C4258 H4249 0.930 . S
C4258 C4256 1.384 . S
C4258 C4259 1.372 . S
C4259 C4258 1.372 . S
C4259 C4260 1.400 . S
C4259 C4264 1.490 . S
C4260 H4250 0.930 . S
C4260 C4259 1.400 . S
C4260 C4263 1.386 . S
H4261 C4277 0.930 . S
H4262 C4278 0.931 . S
C4263 H4251 0.929 . S
C4263 C4257 1.390 . S
C4263 C4260 1.386 . S
C4264 C4259 1.490 . S
C4264 C4266 1.395 . S
C4264 C4267 1.403 . S
H4265 C4271 0.930 . S
C4266 H4252 0.930 . S
C4266 C4264 1.395 . S
C4266 C4269 1.403 . S
C4267 C4264 1.403 . S
C4267 C4268 1.524 . S
C4267 C4271 1.400 . S
C4268 H4253 0.960 . S
C4268 H4254 0.960 . S
C4268 H4255 0.960 . S
C4268 C4267 1.524 . S
C4269 C4266 1.403 . S
C4269 C4270 1.392 . S
C4269 C4273 1.495 . S
C4270 C4269 1.392 . S
C4270 C4271 1.385 . S
C4270 C4272 1.478 . S
C4271 H4265 0.930 . S
C4271 C4267 1.400 . S
C4271 C4270 1.385 . S
C4272 C4270 1.478 . S
C4272 C4274 1.381 . S
C4272 C4278 1.383 . S
C4273 C4269 1.495 . S
C4273 H4279 0.959 . S
C4273 H4280 0.961 . S
C4273 H4281 0.960 . S
C4274 C4272 1.381 . S
C4274 C4275 1.394 . S
C4274 H4282 0.930 . S
C4275 C4274 1.394 . S
C4275 C4276 1.383 . S
C4275 H4283 0.929 . S
C4276 C4275 1.383 . S
C4276 C4277 1.377 . S
C4277 H4261 0.930 . S
C4277 C4276 1.377 . S
C4277 C4278 1.379 . S
C4278 H4262 0.931 . S
C4278 C4272 1.383 . S
C4278 C4277 1.379 . S
H4279 C4273 0.959 . S
H4280 C4273 0.961 . S
H4281 C4273 0.960 . S
H4282 C4274 0.930 . S
H4283 C4275 0.929 . S
H4284 C4292 0.929 . S
H4285 C4294 0.930 . S
H4286 C4296 0.930 . S
H4287 C4299 0.929 . S
H4288 C4302 0.930 . S
H4289 C4304 0.960 . S
H4290 C4304 0.960 . S
H4291 C4304 0.960 . S
C4292 H4284 0.929 . S
C4292 C4293 1.377 . S
C4292 C4294 1.384 . S
C4293 C4292 1.377 . S
C4293 C4299 1.390 . S
C4294 H4285 0.930 . S
C4294 C4292 1.384 . S
C4294 C4295 1.372 . S
C4295 C4294 1.372 . S
C4295 C4296 1.400 . S
C4295 C4300 1.490 . S
C4296 H4286 0.930 . S
C4296 C4295 1.400 . S
C4296 C4299 1.386 . S
H4297 C4313 0.930 . S
H4298 C4314 0.931 . S
C4299 H4287 0.929 . S
C4299 C4293 1.390 . S
C4299 C4296 1.386 . S
C4300 C4295 1.490 . S
C4300 C4302 1.395 . S
C4300 C4303 1.403 . S
H4301 C4307 0.930 . S
C4302 H4288 0.930 . S
C4302 C4300 1.395 . S
C4302 C4305 1.403 . S
C4303 C4300 1.403 . S
C4303 C4304 1.524 . S
C4303 C4307 1.400 . S
C4304 H4289 0.960 . S
C4304 H4290 0.960 . S
C4304 H4291 0.960 . S
C4304 C4303 1.524 . S
C4305 C4302 1.403 . S
C4305 C4306 1.392 . S
C4305 C4309 1.495 . S
C4306 C4305 1.392 . S
C4306 C4307 1.385 . S
C4306 C4308 1.478 . S
C4307 H4301 0.930 . S
C4307 C4303 1.400 . S
C4307 C4306 1.385 . S
C4308 C4306 1.478 . S
C4308 C4310 1.381 . S
C4308 C4314 1.383 . S
C4309 C4305 1.495 . S
C4309 H4315 0.959 . S
C4309 H4316 0.961 . S
C4309 H4317 0.960 . S
C4310 C4308 1.381 . S
C4310 C4311 1.394 . S
C4310 H4318 0.930 . S
C4311 C4310 1.394 . S
C4311 C4312 1.383 . S
C4311 H4319 0.929 . S
C4312 C4311 1.383 . S
C4312 C4313 1.377 . S
C4313 H4297 0.930 . S
C4313 C4312 1.377 . S
C4313 C4314 1.379 . S
C4314 H4298 0.931 . S
C4314 C4308 1.383 . S
C4314 C4313 1.379 . S
H4315 C4309 0.959 . S
H4316 C4309 0.961 . S
H4317 C4309 0.960 . S
H4318 C4310 0.930 . S
H4319 C4311 0.929 . S
H4320 C4328 0.929 . S
H4321 C4330 0.930 . S
H4322 C4332 0.930 . S
H4323 C4335 0.929 . S
H4324 C4338 0.930 . S
H4325 C4340 0.960 . S
H4326 C4340 0.960 . S
H4327 C4340 0.960 . S
C4328 H4320 0.929 . S
C4328 C4329 1.377 . S
C4328 C4330 1.384 . S
C4329 C4328 1.377 . S
C4329 C4335 1.390 . S
C4330 H4321 0.930 . S
C4330 C4328 1.384 . S
C4330 C4331 1.372 . S
C4331 C4330 1.372 . S
C4331 C4332 1.400 . S
C4331 C4336 1.490 . S
C4332 H4322 0.930 . S
C4332 C4331 1.400 . S
C4332 C4335 1.386 . S
H4333 C4349 0.930 . S
H4334 C4350 0.931 . S
C4335 H4323 0.929 . S
C4335 C4329 1.390 . S
C4335 C4332 1.386 . S
C4336 C4331 1.490 . S
C4336 C4338 1.395 . S
C4336 C4339 1.403 . S
H4337 C4343 0.930 . S
C4338 H4324 0.930 . S
C4338 C4336 1.395 . S
C4338 C4341 1.403 . S
C4339 C4336 1.403 . S
C4339 C4340 1.524 . S
C4339 C4343 1.400 . S
C4340 H4325 0.960 . S
C4340 H4326 0.960 . S
C4340 H4327 0.960 . S
C4340 C4339 1.524 . S
C4341 C4338 1.403 . S
C4341 C4342 1.392 . S
C4341 C4345 1.495 . S
C4342 C4341 1.392 . S
C4342 C4343 1.385 . S
C4342 C4344 1.478 . S
C4343 H4337 0.930 . S
C4343 C4339 1.400 . S
C4343 C4342 1.385 . S
C4344 C4342 1.478 . S
C4344 C4346 1.381 . S
C4344 C4350 1.383 . S
C4345 C4341 1.495 . S
C4345 H4351 0.959 . S
C4345 H4352 0.961 . S
C4345 H4353 0.960 . S
C4346 C4344 1.381 . S
C4346 C4347 1.394 . S
C4346 H4354 0.930 . S
C4347 C4346 1.394 . S
C4347 C4348 1.383 . S
C4347 H4355 0.929 . S
C4348 C4347 1.383 . S
C4348 C4349 1.377 . S
C4349 H4333 0.930 . S
C4349 C4348 1.377 . S
C4349 C4350 1.379 . S
C4350 H4334 0.931 . S
C4350 C4344 1.383 . S
C4350 C4349 1.379 . S
H4351 C4345 0.959 . S
H4352 C4345 0.961 . S
H4353 C4345 0.960 . S
H4354 C4346 0.930 . S
H4355 C4347 0.929 . S
H4356 C4364 0.929 . S
H4357 C4366 0.930 . S
H4358 C4368 0.930 . S
H4359 C4371 0.929 . S
H4360 C4374 0.930 . S
H4361 C4376 0.960 . S
H4362 C4376 0.960 . S
H4363 C4376 0.960 . S
C4364 H4356 0.929 . S
C4364 C4365 1.377 . S
C4364 C4366 1.384 . S
C4365 C4364 1.377 . S
C4365 C4371 1.390 . S
C4366 H4357 0.930 . S
C4366 C4364 1.384 . S
C4366 C4367 1.372 . S
C4367 C4366 1.372 . S
C4367 C4368 1.400 . S
C4367 C4372 1.490 . S
C4368 H4358 0.930 . S
C4368 C4367 1.400 . S
C4368 C4371 1.386 . S
H4369 C4385 0.930 . S
H4370 C4386 0.931 . S
C4371 H4359 0.929 . S
C4371 C4365 1.390 . S
C4371 C4368 1.386 . S
C4372 C4367 1.490 . S
C4372 C4374 1.395 . S
C4372 C4375 1.403 . S
H4373 C4379 0.930 . S
C4374 H4360 0.930 . S
C4374 C4372 1.395 . S
C4374 C4377 1.403 . S
C4375 C4372 1.403 . S
C4375 C4376 1.524 . S
C4375 C4379 1.400 . S
C4376 H4361 0.960 . S
C4376 H4362 0.960 . S
C4376 H4363 0.960 . S
C4376 C4375 1.524 . S
C4377 C4374 1.403 . S
C4377 C4378 1.392 . S
C4377 C4381 1.495 . S
C4378 C4377 1.392 . S
C4378 C4379 1.385 . S
C4378 C4380 1.478 . S
C4379 H4373 0.930 . S
C4379 C4375 1.400 . S
C4379 C4378 1.385 . S
C4380 C4378 1.478 . S
C4380 C4382 1.381 . S
C4380 C4386 1.383 . S
C4381 C4377 1.495 . S
C4381 H4387 0.959 . S
C4381 H4388 0.961 . S
C4381 H4389 0.960 . S
C4382 C4380 1.381 . S
C4382 C4383 1.394 . S
C4382 H4390 0.930 . S
C4383 C4382 1.394 . S
C4383 C4384 1.383 . S
C4383 H4391 0.929 . S
C4384 C4383 1.383 . S
C4384 C4385 1.377 . S
C4385 H4369 0.930 . S
C4385 C4384 1.377 . S
C4385 C4386 1.379 . S
C4386 H4370 0.931 . S
C4386 C4380 1.383 . S
C4386 C4385 1.379 . S
H4387 C4381 0.959 . S
H4388 C4381 0.961 . S
H4389 C4381 0.960 . S
H4390 C4382 0.930 . S
H4391 C4383 0.929 . S
H4392 C4400 0.929 . S
H4393 C4402 0.930 . S
H4394 C4404 0.930 . S
H4395 C4407 0.929 . S
H4396 C4410 0.930 . S
H4397 C4412 0.960 . S
H4398 C4412 0.960 . S
H4399 C4412 0.960 . S
C4400 H4392 0.929 . S
C4400 C4401 1.377 . S
C4400 C4402 1.384 . S
C4401 C4400 1.377 . S
C4401 C4407 1.390 . S
C4402 H4393 0.930 . S
C4402 C4400 1.384 . S
C4402 C4403 1.372 . S
C4403 C4402 1.372 . S
C4403 C4404 1.400 . S
C4403 C4408 1.490 . S
C4404 H4394 0.930 . S
C4404 C4403 1.400 . S
C4404 C4407 1.386 . S
H4405 C4421 0.930 . S
H4406 C4422 0.931 . S
C4407 H4395 0.929 . S
C4407 C4401 1.390 . S
C4407 C4404 1.386 . S
C4408 C4403 1.490 . S
C4408 C4410 1.395 . S
C4408 C4411 1.403 . S
H4409 C4415 0.930 . S
C4410 H4396 0.930 . S
C4410 C4408 1.395 . S
C4410 C4413 1.403 . S
C4411 C4408 1.403 . S
C4411 C4412 1.524 . S
C4411 C4415 1.400 . S
C4412 H4397 0.960 . S
C4412 H4398 0.960 . S
C4412 H4399 0.960 . S
C4412 C4411 1.524 . S
C4413 C4410 1.403 . S
C4413 C4414 1.392 . S
C4413 C4417 1.495 . S
C4414 C4413 1.392 . S
C4414 C4415 1.385 . S
C4414 C4416 1.478 . S
C4415 H4409 0.930 . S
C4415 C4411 1.400 . S
C4415 C4414 1.385 . S
C4416 C4414 1.478 . S
C4416 C4418 1.381 . S
C4416 C4422 1.383 . S
C4417 C4413 1.495 . S
C4417 H4423 0.959 . S
C4417 H4424 0.961 . S
C4417 H4425 0.960 . S
C4418 C4416 1.381 . S
C4418 C4419 1.394 . S
C4418 H4426 0.930 . S
C4419 C4418 1.394 . S
C4419 C4420 1.383 . S
C4419 H4427 0.929 . S
C4420 C4419 1.383 . S
C4420 C4421 1.377 . S
C4421 H4405 0.930 . S
C4421 C4420 1.377 . S
C4421 C4422 1.379 . S
C4422 H4406 0.931 . S
C4422 C4416 1.383 . S
C4422 C4421 1.379 . S
H4423 C4417 0.959 . S
H4424 C4417 0.961 . S
H4425 C4417 0.960 . S
H4426 C4418 0.930 . S
H4427 C4419 0.929 . S
H4428 C4436 0.929 . S
H4429 C4438 0.930 . S
H4430 C4440 0.930 . S
H4431 C4443 0.929 . S
H4432 C4446 0.930 . S
H4433 C4448 0.960 . S
H4434 C4448 0.960 . S
H4435 C4448 0.960 . S
C4436 H4428 0.929 . S
C4436 C4437 1.377 . S
C4436 C4438 1.384 . S
C4437 C4436 1.377 . S
C4437 C4443 1.390 . S
C4438 H4429 0.930 . S
C4438 C4436 1.384 . S
C4438 C4439 1.372 . S
C4439 C4438 1.372 . S
C4439 C4440 1.400 . S
C4439 C4444 1.490 . S
C4440 H4430 0.930 . S
C4440 C4439 1.400 . S
C4440 C4443 1.386 . S
H4441 C4457 0.930 . S
H4442 C4458 0.931 . S
C4443 H4431 0.929 . S
C4443 C4437 1.390 . S
C4443 C4440 1.386 . S
C4444 C4439 1.490 . S
C4444 C4446 1.395 . S
C4444 C4447 1.403 . S
H4445 C4451 0.930 . S
C4446 H4432 0.930 . S
C4446 C4444 1.395 . S
C4446 C4449 1.403 . S
C4447 C4444 1.403 . S
C4447 C4448 1.524 . S
C4447 C4451 1.400 . S
C4448 H4433 0.960 . S
C4448 H4434 0.960 . S
C4448 H4435 0.960 . S
C4448 C4447 1.524 . S
C4449 C4446 1.403 . S
C4449 C4450 1.392 . S
C4449 C4453 1.495 . S
C4450 C4449 1.392 . S
C4450 C4451 1.385 . S
C4450 C4452 1.478 . S
C4451 H4445 0.930 . S
C4451 C4447 1.400 . S
C4451 C4450 1.385 . S
C4452 C4450 1.478 . S
C4452 C4454 1.381 . S
C4452 C4458 1.383 . S
C4453 C4449 1.495 . S
C4453 H4459 0.959 . S
C4453 H4460 0.961 . S
C4453 H4461 0.960 . S
C4454 C4452 1.381 . S
C4454 C4455 1.394 . S
C4454 H4462 0.930 . S
C4455 C4454 1.394 . S
C4455 C4456 1.383 . S
C4455 H4463 0.929 . S
C4456 C4455 1.383 . S
C4456 C4457 1.377 . S
C4457 H4441 0.930 . S
C4457 C4456 1.377 . S
C4457 C4458 1.379 . S
C4458 H4442 0.931 . S
C4458 C4452 1.383 . S
C4458 C4457 1.379 . S
H4459 C4453 0.959 . S
H4460 C4453 0.961 . S
H4461 C4453 0.960 . S
H4462 C4454 0.930 . S
H4463 C4455 0.929 . S
H4464 C4472 0.929 . S
H4465 C4474 0.930 . S
H4466 C4476 0.930 . S
H4467 C4479 0.929 . S
H4468 C4482 0.930 . S
H4469 C4484 0.960 . S
H4470 C4484 0.960 . S
H4471 C4484 0.960 . S
C4472 H4464 0.929 . S
C4472 C4473 1.377 . S
C4472 C4474 1.384 . S
C4473 C4472 1.377 . S
C4473 C4479 1.390 . S
C4474 H4465 0.930 . S
C4474 C4472 1.384 . S
C4474 C4475 1.372 . S
C4475 C4474 1.372 . S
C4475 C4476 1.400 . S
C4475 C4480 1.490 . S
C4476 H4466 0.930 . S
C4476 C4475 1.400 . S
C4476 C4479 1.386 . S
H4477 C4493 0.930 . S
H4478 C4494 0.931 . S
C4479 H4467 0.929 . S
C4479 C4473 1.390 . S
C4479 C4476 1.386 . S
C4480 C4475 1.490 . S
C4480 C4482 1.395 . S
C4480 C4483 1.403 . S
H4481 C4487 0.930 . S
C4482 H4468 0.930 . S
C4482 C4480 1.395 . S
C4482 C4485 1.403 . S
C4483 C4480 1.403 . S
C4483 C4484 1.524 . S
C4483 C4487 1.400 . S
C4484 H4469 0.960 . S
C4484 H4470 0.960 . S
C4484 H4471 0.960 . S
C4484 C4483 1.524 . S
C4485 C4482 1.403 . S
C4485 C4486 1.392 . S
C4485 C4489 1.495 . S
C4486 C4485 1.392 . S
C4486 C4487 1.385 . S
C4486 C4488 1.478 . S
C4487 H4481 0.930 . S
C4487 C4483 1.400 . S
C4487 C4486 1.385 . S
C4488 C4486 1.478 . S
C4488 C4490 1.381 . S
C4488 C4494 1.383 . S
C4489 C4485 1.495 . S
C4489 H4495 0.959 . S
C4489 H4496 0.961 . S
C4489 H4497 0.960 . S
C4490 C4488 1.381 . S
C4490 C4491 1.394 . S
C4490 H4498 0.930 . S
C4491 C4490 1.394 . S
C4491 C4492 1.383 . S
C4491 H4499 0.929 . S
C4492 C4491 1.383 . S
C4492 C4493 1.377 . S
C4493 H4477 0.930 . S
C4493 C4492 1.377 . S
C4493 C4494 1.379 . S
C4494 H4478 0.931 . S
C4494 C4488 1.383 . S
C4494 C4493 1.379 . S
H4495 C4489 0.959 . S
H4496 C4489 0.961 . S
H4497 C4489 0.960 . S
H4498 C4490 0.930 . S
H4499 C4491 0.929 . S
H4500 C4508 0.929 . S
H4501 C4510 0.930 . S
H4502 C4512 0.930 . S
H4503 C4515 0.929 . S
H4504 C4518 0.930 . S
H4505 C4520 0.960 . S
H4506 C4520 0.960 . S
H4507 C4520 0.960 . S
C4508 H4500 0.929 . S
C4508 C4509 1.377 . S
C4508 C4510 1.384 . S
C4509 C4508 1.377 . S
C4509 C4515 1.390 . S
C4510 H4501 0.930 . S
C4510 C4508 1.384 . S
C4510 C4511 1.372 . S
C4511 C4510 1.372 . S
C4511 C4512 1.400 . S
C4511 C4516 1.490 . S
C4512 H4502 0.930 . S
C4512 C4511 1.400 . S
C4512 C4515 1.386 . S
H4513 C4529 0.930 . S
H4514 C4530 0.931 . S
C4515 H4503 0.929 . S
C4515 C4509 1.390 . S
C4515 C4512 1.386 . S
C4516 C4511 1.490 . S
C4516 C4518 1.395 . S
C4516 C4519 1.403 . S
H4517 C4523 0.930 . S
C4518 H4504 0.930 . S
C4518 C4516 1.395 . S
C4518 C4521 1.403 . S
C4519 C4516 1.403 . S
C4519 C4520 1.524 . S
C4519 C4523 1.400 . S
C4520 H4505 0.960 . S
C4520 H4506 0.960 . S
C4520 H4507 0.960 . S
C4520 C4519 1.524 . S
C4521 C4518 1.403 . S
C4521 C4522 1.392 . S
C4521 C4525 1.495 . S
C4522 C4521 1.392 . S
C4522 C4523 1.385 . S
C4522 C4524 1.478 . S
C4523 H4517 0.930 . S
C4523 C4519 1.400 . S
C4523 C4522 1.385 . S
C4524 C4522 1.478 . S
C4524 C4526 1.381 . S
C4524 C4530 1.383 . S
C4525 C4521 1.495 . S
C4525 H4531 0.959 . S
C4525 H4532 0.961 . S
C4525 H4533 0.960 . S
C4526 C4524 1.381 . S
C4526 C4527 1.394 . S
C4526 H4534 0.930 . S
C4527 C4526 1.394 . S
C4527 C4528 1.383 . S
C4527 H4535 0.929 . S
C4528 C4527 1.383 . S
C4528 C4529 1.377 . S
C4529 H4513 0.930 . S
C4529 C4528 1.377 . S
C4529 C4530 1.379 . S
C4530 H4514 0.931 . S
C4530 C4524 1.383 . S
C4530 C4529 1.379 . S
H4531 C4525 0.959 . S
H4532 C4525 0.961 . S
H4533 C4525 0.960 . S
H4534 C4526 0.930 . S
H4535 C4527 0.929 . S
H4536 C4544 0.929 . S
H4537 C4546 0.930 . S
H4538 C4548 0.930 . S
H4539 C4551 0.929 . S
H4540 C4554 0.930 . S
H4541 C4556 0.960 . S
H4542 C4556 0.960 . S
H4543 C4556 0.960 . S
C4544 H4536 0.929 . S
C4544 C4545 1.377 . S
C4544 C4546 1.384 . S
C4545 C4544 1.377 . S
C4545 C4551 1.390 . S
C4546 H4537 0.930 . S
C4546 C4544 1.384 . S
C4546 C4547 1.372 . S
C4547 C4546 1.372 . S
C4547 C4548 1.400 . S
C4547 C4552 1.490 . S
C4548 H4538 0.930 . S
C4548 C4547 1.400 . S
C4548 C4551 1.386 . S
H4549 C4565 0.930 . S
H4550 C4566 0.931 . S
C4551 H4539 0.929 . S
C4551 C4545 1.390 . S
C4551 C4548 1.386 . S
C4552 C4547 1.490 . S
C4552 C4554 1.395 . S
C4552 C4555 1.403 . S
H4553 C4559 0.930 . S
C4554 H4540 0.930 . S
C4554 C4552 1.395 . S
C4554 C4557 1.403 . S
C4555 C4552 1.403 . S
C4555 C4556 1.524 . S
C4555 C4559 1.400 . S
C4556 H4541 0.960 . S
C4556 H4542 0.960 . S
C4556 H4543 0.960 . S
C4556 C4555 1.524 . S
C4557 C4554 1.403 . S
C4557 C4558 1.392 . S
C4557 C4561 1.495 . S
C4558 C4557 1.392 . S
C4558 C4559 1.385 . S
C4558 C4560 1.478 . S
C4559 H4553 0.930 . S
C4559 C4555 1.400 . S
C4559 C4558 1.385 . S
C4560 C4558 1.478 . S
C4560 C4562 1.381 . S
C4560 C4566 1.383 . S
C4561 C4557 1.495 . S
C4561 H4567 0.959 . S
C4561 H4568 0.961 . S
C4561 H4569 0.960 . S
C4562 C4560 1.381 . S
C4562 C4563 1.394 . S
C4562 H4570 0.930 . S
C4563 C4562 1.394 . S
C4563 C4564 1.383 . S
C4563 H4571 0.929 . S
C4564 C4563 1.383 . S
C4564 C4565 1.377 . S
C4565 H4549 0.930 . S
C4565 C4564 1.377 . S
C4565 C4566 1.379 . S
C4566 H4550 0.931 . S
C4566 C4560 1.383 . S
C4566 C4565 1.379 . S
H4567 C4561 0.959 . S
H4568 C4561 0.961 . S
H4569 C4561 0.960 . S
H4570 C4562 0.930 . S
H4571 C4563 0.929 . S
H4572 C4580 0.929 . S
H4573 C4582 0.930 . S
H4574 C4584 0.930 . S
H4575 C4587 0.929 . S
H4576 C4590 0.930 . S
H4577 C4592 0.960 . S
H4578 C4592 0.960 . S
H4579 C4592 0.960 . S
C4580 H4572 0.929 . S
C4580 C4581 1.377 . S
C4580 C4582 1.384 . S
C4581 C4580 1.377 . S
C4581 C4587 1.390 . S
C4582 H4573 0.930 . S
C4582 C4580 1.384 . S
C4582 C4583 1.372 . S
C4583 C4582 1.372 . S
C4583 C4584 1.400 . S
C4583 C4588 1.490 . S
C4584 H4574 0.930 . S
C4584 C4583 1.400 . S
C4584 C4587 1.386 . S
H4585 C4601 0.930 . S
H4586 C4602 0.931 . S
C4587 H4575 0.929 . S
C4587 C4581 1.390 . S
C4587 C4584 1.386 . S
C4588 C4583 1.490 . S
C4588 C4590 1.395 . S
C4588 C4591 1.403 . S
H4589 C4595 0.930 . S
C4590 H4576 0.930 . S
C4590 C4588 1.395 . S
C4590 C4593 1.403 . S
C4591 C4588 1.403 . S
C4591 C4592 1.524 . S
C4591 C4595 1.400 . S
C4592 H4577 0.960 . S
C4592 H4578 0.960 . S
C4592 H4579 0.960 . S
C4592 C4591 1.524 . S
C4593 C4590 1.403 . S
C4593 C4594 1.392 . S
C4593 C4597 1.495 . S
C4594 C4593 1.392 . S
C4594 C4595 1.385 . S
C4594 C4596 1.478 . S
C4595 H4589 0.930 . S
C4595 C4591 1.400 . S
C4595 C4594 1.385 . S
C4596 C4594 1.478 . S
C4596 C4598 1.381 . S
C4596 C4602 1.383 . S
C4597 C4593 1.495 . S
C4597 H4603 0.959 . S
C4597 H4604 0.961 . S
C4597 H4605 0.960 . S
C4598 C4596 1.381 . S
C4598 C4599 1.394 . S
C4598 H4606 0.930 . S
C4599 C4598 1.394 . S
C4599 C4600 1.383 . S
C4599 H4607 0.929 . S
C4600 C4599 1.383 . S
C4600 C4601 1.377 . S
C4601 H4585 0.930 . S
C4601 C4600 1.377 . S
C4601 C4602 1.379 . S
C4602 H4586 0.931 . S
C4602 C4596 1.383 . S
C4602 C4601 1.379 . S
H4603 C4597 0.959 . S
H4604 C4597 0.961 . S
H4605 C4597 0.960 . S
H4606 C4598 0.930 . S
H4607 C4599 0.929 . S
H4608 C4616 0.929 . S
H4609 C4618 0.930 . S
H4610 C4620 0.930 . S
H4611 C4623 0.929 . S
H4612 C4626 0.930 . S
H4613 C4628 0.960 . S
H4614 C4628 0.960 . S
H4615 C4628 0.960 . S
C4616 H4608 0.929 . S
C4616 C4617 1.377 . S
C4616 C4618 1.384 . S
C4617 C4616 1.377 . S
C4617 C4623 1.390 . S
C4618 H4609 0.930 . S
C4618 C4616 1.384 . S
C4618 C4619 1.372 . S
C4619 C4618 1.372 . S
C4619 C4620 1.400 . S
C4619 C4624 1.490 . S
C4620 H4610 0.930 . S
C4620 C4619 1.400 . S
C4620 C4623 1.386 . S
H4621 C4637 0.930 . S
H4622 C4638 0.931 . S
C4623 H4611 0.929 . S
C4623 C4617 1.390 . S
C4623 C4620 1.386 . S
C4624 C4619 1.490 . S
C4624 C4626 1.395 . S
C4624 C4627 1.403 . S
H4625 C4631 0.930 . S
C4626 H4612 0.930 . S
C4626 C4624 1.395 . S
C4626 C4629 1.403 . S
C4627 C4624 1.403 . S
C4627 C4628 1.524 . S
C4627 C4631 1.400 . S
C4628 H4613 0.960 . S
C4628 H4614 0.960 . S
C4628 H4615 0.960 . S
C4628 C4627 1.524 . S
C4629 C4626 1.403 . S
C4629 C4630 1.392 . S
C4629 C4633 1.495 . S
C4630 C4629 1.392 . S
C4630 C4631 1.385 . S
C4630 C4632 1.478 . S
C4631 H4625 0.930 . S
C4631 C4627 1.400 . S
C4631 C4630 1.385 . S
C4632 C4630 1.478 . S
C4632 C4634 1.381 . S
C4632 C4638 1.383 . S
C4633 C4629 1.495 . S
C4633 H4639 0.959 . S
C4633 H4640 0.961 . S
C4633 H4641 0.960 . S
C4634 C4632 1.381 . S
C4634 C4635 1.394 . S
C4634 H4642 0.930 . S
C4635 C4634 1.394 . S
C4635 C4636 1.386 . S
C4635 H4643 0.929 . S
C4636 C4635 1.386 . S
C4636 C4637 1.378 . S
C4637 H4621 0.930 . S
C4637 C4636 1.378 . S
C4637 C4638 1.379 . S
C4638 H4622 0.931 . S
C4638 C4632 1.383 . S
C4638 C4637 1.379 . S
H4639 C4633 0.959 . S
H4640 C4633 0.961 . S
H4641 C4633 0.960 . S
H4642 C4634 0.930 . S
H4643 C4635 0.929 . S
H4644 C4652 0.929 . S
H4645 C4654 0.930 . S
H4646 C4656 0.930 . S
H4647 C4659 0.929 . S
H4648 C4662 0.930 . S
H4649 C4664 0.960 . S
H4650 C4664 0.960 . S
H4651 C4664 0.960 . S
C4652 H4644 0.929 . S
C4652 C4653 1.377 . S
C4652 C4654 1.384 . S
C4653 C4652 1.377 . S
C4653 C4659 1.390 . S
C4654 H4645 0.930 . S
C4654 C4652 1.384 . S
C4654 C4655 1.372 . S
C4655 C4654 1.372 . S
C4655 C4656 1.400 . S
C4655 C4660 1.490 . S
C4656 H4646 0.930 . S
C4656 C4655 1.400 . S
C4656 C4659 1.386 . S
H4657 C4673 0.930 . S
H4658 C4674 0.931 . S
C4659 H4647 0.929 . S
C4659 C4653 1.390 . S
C4659 C4656 1.386 . S
C4660 C4655 1.490 . S
C4660 C4662 1.395 . S
C4660 C4663 1.403 . S
H4661 C4667 0.930 . S
C4662 H4648 0.930 . S
C4662 C4660 1.395 . S
C4662 C4665 1.403 . S
C4663 C4660 1.403 . S
C4663 C4664 1.524 . S
C4663 C4667 1.400 . S
C4664 H4649 0.960 . S
C4664 H4650 0.960 . S
C4664 H4651 0.960 . S
C4664 C4663 1.524 . S
C4665 C4662 1.403 . S
C4665 C4666 1.392 . S
C4665 C4669 1.495 . S
C4666 C4665 1.392 . S
C4666 C4667 1.385 . S
C4666 C4668 1.478 . S
C4667 H4661 0.930 . S
C4667 C4663 1.400 . S
C4667 C4666 1.385 . S
C4668 C4666 1.478 . S
C4668 C4670 1.381 . S
C4668 C4674 1.383 . S
C4669 C4665 1.495 . S
C4669 H4675 0.959 . S
C4669 H4676 0.961 . S
C4669 H4677 0.960 . S
C4670 C4668 1.381 . S
C4670 C4671 1.394 . S
C4670 H4678 0.930 . S
C4671 C4670 1.394 . S
C4671 C4672 1.383 . S
C4671 H4679 0.929 . S
C4672 C4671 1.383 . S
C4672 C4673 1.377 . S
C4673 H4657 0.930 . S
C4673 C4672 1.377 . S
C4673 C4674 1.379 . S
C4674 H4658 0.931 . S
C4674 C4668 1.383 . S
C4674 C4673 1.379 . S
H4675 C4669 0.959 . S
H4676 C4669 0.961 . S
H4677 C4669 0.960 . S
H4678 C4670 0.930 . S
H4679 C4671 0.929 . S
H4680 C4688 0.929 . S
H4681 C4690 0.930 . S
H4682 C4692 0.930 . S
H4683 C4695 0.929 . S
H4684 C4698 0.930 . S
H4685 C4700 0.960 . S
H4686 C4700 0.960 . S
H4687 C4700 0.960 . S
C4688 H4680 0.929 . S
C4688 C4689 1.377 . S
C4688 C4690 1.384 . S
C4689 C4688 1.377 . S
C4689 C4695 1.390 . S
C4690 H4681 0.930 . S
C4690 C4688 1.384 . S
C4690 C4691 1.372 . S
C4691 C4690 1.372 . S
C4691 C4692 1.400 . S
C4691 C4696 1.490 . S
C4692 H4682 0.930 . S
C4692 C4691 1.400 . S
C4692 C4695 1.386 . S
H4693 C4709 0.930 . S
H4694 C4710 0.931 . S
C4695 H4683 0.929 . S
C4695 C4689 1.390 . S
C4695 C4692 1.386 . S
C4696 C4691 1.490 . S
C4696 C4698 1.395 . S
C4696 C4699 1.403 . S
H4697 C4703 0.930 . S
C4698 H4684 0.930 . S
C4698 C4696 1.395 . S
C4698 C4701 1.403 . S
C4699 C4696 1.403 . S
C4699 C4700 1.524 . S
C4699 C4703 1.400 . S
C4700 H4685 0.960 . S
C4700 H4686 0.960 . S
C4700 H4687 0.960 . S
C4700 C4699 1.524 . S
C4701 C4698 1.403 . S
C4701 C4702 1.392 . S
C4701 C4705 1.495 . S
C4702 C4701 1.392 . S
C4702 C4703 1.385 . S
C4702 C4704 1.478 . S
C4703 H4697 0.930 . S
C4703 C4699 1.400 . S
C4703 C4702 1.385 . S
C4704 C4702 1.478 . S
C4704 C4706 1.381 . S
C4704 C4710 1.383 . S
C4705 C4701 1.495 . S
C4705 H4711 0.959 . S
C4705 H4712 0.961 . S
C4705 H4713 0.960 . S
C4706 C4704 1.381 . S
C4706 C4707 1.394 . S
C4706 H4714 0.930 . S
C4707 C4706 1.394 . S
C4707 C4708 1.383 . S
C4707 H4715 0.929 . S
C4708 C4707 1.383 . S
C4708 C4709 1.377 . S
C4709 H4693 0.930 . S
C4709 C4708 1.377 . S
C4709 C4710 1.379 . S
C4710 H4694 0.931 . S
C4710 C4704 1.383 . S
C4710 C4709 1.379 . S
H4711 C4705 0.959 . S
H4712 C4705 0.961 . S
H4713 C4705 0.960 . S
H4714 C4706 0.930 . S
H4715 C4707 0.929 . S
H4716 C4724 0.929 . S
H4717 C4726 0.930 . S
H4718 C4728 0.930 . S
H4719 C4731 0.929 . S
H4720 C4734 0.930 . S
H4721 C4736 0.960 . S
H4722 C4736 0.960 . S
H4723 C4736 0.960 . S
C4724 H4716 0.929 . S
C4724 C4725 1.377 . S
C4724 C4726 1.384 . S
C4725 C4724 1.377 . S
C4725 C4731 1.390 . S
C4726 H4717 0.930 . S
C4726 C4724 1.384 . S
C4726 C4727 1.372 . S
C4727 C4726 1.372 . S
C4727 C4728 1.400 . S
C4727 C4732 1.490 . S
C4728 H4718 0.930 . S
C4728 C4727 1.400 . S
C4728 C4731 1.386 . S
H4729 C4745 0.930 . S
H4730 C4746 0.931 . S
C4731 H4719 0.929 . S
C4731 C4725 1.390 . S
C4731 C4728 1.386 . S
C4732 C4727 1.490 . S
C4732 C4734 1.395 . S
C4732 C4735 1.403 . S
H4733 C4739 0.930 . S
C4734 H4720 0.930 . S
C4734 C4732 1.395 . S
C4734 C4737 1.403 . S
C4735 C4732 1.403 . S
C4735 C4736 1.524 . S
C4735 C4739 1.400 . S
C4736 H4721 0.960 . S
C4736 H4722 0.960 . S
C4736 H4723 0.960 . S
C4736 C4735 1.524 . S
C4737 C4734 1.403 . S
C4737 C4738 1.392 . S
C4737 C4741 1.495 . S
C4738 C4737 1.392 . S
C4738 C4739 1.385 . S
C4738 C4740 1.478 . S
C4739 H4733 0.930 . S
C4739 C4735 1.400 . S
C4739 C4738 1.385 . S
C4740 C4738 1.478 . S
C4740 C4742 1.381 . S
C4740 C4746 1.383 . S
C4741 C4737 1.495 . S
C4741 H4747 0.959 . S
C4741 H4748 0.961 . S
C4741 H4749 0.960 . S
C4742 C4740 1.381 . S
C4742 C4743 1.394 . S
C4742 H4750 0.930 . S
C4743 C4742 1.394 . S
C4743 C4744 1.383 . S
C4743 H4751 0.929 . S
C4744 C4743 1.383 . S
C4744 C4745 1.377 . S
C4745 H4729 0.930 . S
C4745 C4744 1.377 . S
C4745 C4746 1.379 . S
C4746 H4730 0.931 . S
C4746 C4740 1.383 . S
C4746 C4745 1.379 . S
H4747 C4741 0.959 . S
H4748 C4741 0.961 . S
H4749 C4741 0.960 . S
H4750 C4742 0.930 . S
H4751 C4743 0.929 . S
H4752 C4760 0.929 . S
H4753 C4762 0.930 . S
H4754 C4764 0.930 . S
H4755 C4767 0.929 . S
H4756 C4770 0.930 . S
H4757 C4772 0.960 . S
H4758 C4772 0.960 . S
H4759 C4772 0.960 . S
C4760 H4752 0.929 . S
C4760 C4761 1.377 . S
C4760 C4762 1.384 . S
C4761 C4760 1.377 . S
C4761 C4767 1.390 . S
C4762 H4753 0.930 . S
C4762 C4760 1.384 . S
C4762 C4763 1.372 . S
C4763 C4762 1.372 . S
C4763 C4764 1.400 . S
C4763 C4768 1.490 . S
C4764 H4754 0.930 . S
C4764 C4763 1.400 . S
C4764 C4767 1.386 . S
H4765 C4781 0.930 . S
H4766 C4782 0.931 . S
C4767 H4755 0.929 . S
C4767 C4761 1.390 . S
C4767 C4764 1.386 . S
C4768 C4763 1.490 . S
C4768 C4770 1.395 . S
C4768 C4771 1.403 . S
H4769 C4775 0.930 . S
C4770 H4756 0.930 . S
C4770 C4768 1.395 . S
C4770 C4773 1.403 . S
C4771 C4768 1.403 . S
C4771 C4772 1.524 . S
C4771 C4775 1.400 . S
C4772 H4757 0.960 . S
C4772 H4758 0.960 . S
C4772 H4759 0.960 . S
C4772 C4771 1.524 . S
C4773 C4770 1.403 . S
C4773 C4774 1.392 . S
C4773 C4777 1.495 . S
C4774 C4773 1.392 . S
C4774 C4775 1.385 . S
C4774 C4776 1.478 . S
C4775 H4769 0.930 . S
C4775 C4771 1.400 . S
C4775 C4774 1.385 . S
C4776 C4774 1.478 . S
C4776 C4778 1.381 . S
C4776 C4782 1.383 . S
C4777 C4773 1.495 . S
C4777 H4783 0.959 . S
C4777 H4784 0.961 . S
C4777 H4785 0.960 . S
C4778 C4776 1.381 . S
C4778 C4779 1.394 . S
C4778 H4786 0.930 . S
C4779 C4778 1.394 . S
C4779 C4780 1.383 . S
C4779 H4787 0.929 . S
C4780 C4779 1.383 . S
C4780 C4781 1.377 . S
C4781 H4765 0.930 . S
C4781 C4780 1.377 . S
C4781 C4782 1.379 . S
C4782 H4766 0.931 . S
C4782 C4776 1.383 . S
C4782 C4781 1.379 . S
H4783 C4777 0.959 . S
H4784 C4777 0.961 . S
H4785 C4777 0.960 . S
H4786 C4778 0.930 . S
H4787 C4779 0.929 . S
H4788 C4796 0.929 . S
H4789 C4798 0.930 . S
H4790 C4800 0.930 . S
H4791 C4803 0.929 . S
H4792 C4806 0.930 . S
H4793 C4808 0.960 . S
H4794 C4808 0.960 . S
H4795 C4808 0.960 . S
C4796 H4788 0.929 . S
C4796 C4797 1.377 . S
C4796 C4798 1.384 . S
C4797 C4796 1.377 . S
C4797 C4803 1.390 . S
C4798 H4789 0.930 . S
C4798 C4796 1.384 . S
C4798 C4799 1.372 . S
C4799 C4798 1.372 . S
C4799 C4800 1.400 . S
C4799 C4804 1.490 . S
C4800 H4790 0.930 . S
C4800 C4799 1.400 . S
C4800 C4803 1.386 . S
H4801 C4817 0.930 . S
H4802 C4818 0.931 . S
C4803 H4791 0.929 . S
C4803 C4797 1.390 . S
C4803 C4800 1.386 . S
C4804 C4799 1.490 . S
C4804 C4806 1.395 . S
C4804 C4807 1.403 . S
H4805 C4811 0.930 . S
C4806 H4792 0.930 . S
C4806 C4804 1.395 . S
C4806 C4809 1.403 . S
C4807 C4804 1.403 . S
C4807 C4808 1.524 . S
C4807 C4811 1.400 . S
C4808 H4793 0.960 . S
C4808 H4794 0.960 . S
C4808 H4795 0.960 . S
C4808 C4807 1.524 . S
C4809 C4806 1.403 . S
C4809 C4810 1.392 . S
C4809 C4813 1.495 . S
C4810 C4809 1.392 . S
C4810 C4811 1.385 . S
C4810 C4812 1.478 . S
C4811 H4805 0.930 . S
C4811 C4807 1.400 . S
C4811 C4810 1.385 . S
C4812 C4810 1.478 . S
C4812 C4814 1.381 . S
C4812 C4818 1.383 . S
C4813 C4809 1.495 . S
C4813 H4819 0.959 . S
C4813 H4820 0.961 . S
C4813 H4821 0.960 . S
C4814 C4812 1.381 . S
C4814 C4815 1.394 . S
C4814 H4822 0.930 . S
C4815 C4814 1.394 . S
C4815 C4816 1.383 . S
C4815 H4823 0.929 . S
C4816 C4815 1.383 . S
C4816 C4817 1.377 . S
C4817 H4801 0.930 . S
C4817 C4816 1.377 . S
C4817 C4818 1.379 . S
C4818 H4802 0.931 . S
C4818 C4812 1.383 . S
C4818 C4817 1.379 . S
H4819 C4813 0.959 . S
H4820 C4813 0.961 . S
H4821 C4813 0.960 . S
H4822 C4814 0.930 . S
H4823 C4815 0.929 . S
H4824 C4832 0.929 . S
H4825 C4834 0.930 . S
H4826 C4836 0.930 . S
H4827 C4839 0.929 . S
H4828 C4842 0.930 . S
H4829 C4844 0.960 . S
H4830 C4844 0.960 . S
H4831 C4844 0.960 . S
C4832 H4824 0.929 . S
C4832 C4833 1.377 . S
C4832 C4834 1.384 . S
C4833 C4832 1.377 . S
C4833 C4839 1.390 . S
C4834 H4825 0.930 . S
C4834 C4832 1.384 . S
C4834 C4835 1.372 . S
C4835 C4834 1.372 . S
C4835 C4836 1.400 . S
C4835 C4840 1.490 . S
C4836 H4826 0.930 . S
C4836 C4835 1.400 . S
C4836 C4839 1.386 . S
H4837 C4853 0.930 . S
H4838 C4854 0.931 . S
C4839 H4827 0.929 . S
C4839 C4833 1.390 . S
C4839 C4836 1.386 . S
C4840 C4835 1.490 . S
C4840 C4842 1.395 . S
C4840 C4843 1.403 . S
H4841 C4847 0.930 . S
C4842 H4828 0.930 . S
C4842 C4840 1.395 . S
C4842 C4845 1.403 . S
C4843 C4840 1.403 . S
C4843 C4844 1.524 . S
C4843 C4847 1.400 . S
C4844 H4829 0.960 . S
C4844 H4830 0.960 . S
C4844 H4831 0.960 . S
C4844 C4843 1.524 . S
C4845 C4842 1.403 . S
C4845 C4846 1.392 . S
C4845 C4849 1.495 . S
C4846 C4845 1.392 . S
C4846 C4847 1.385 . S
C4846 C4848 1.478 . S
C4847 H4841 0.930 . S
C4847 C4843 1.400 . S
C4847 C4846 1.385 . S
C4848 C4846 1.478 . S
C4848 C4850 1.381 . S
C4848 C4854 1.383 . S
C4849 C4845 1.495 . S
C4849 H4855 0.959 . S
C4849 H4856 0.961 . S
C4849 H4857 0.960 . S
C4850 C4848 1.381 . S
C4850 C4851 1.394 . S
C4850 H4858 0.930 . S
C4851 C4850 1.394 . S
C4851 C4852 1.383 . S
C4851 H4859 0.929 . S
C4852 C4851 1.383 . S
C4852 C4853 1.377 . S
C4853 H4837 0.930 . S
C4853 C4852 1.377 . S
C4853 C4854 1.379 . S
C4854 H4838 0.931 . S
C4854 C4848 1.383 . S
C4854 C4853 1.379 . S
H4855 C4849 0.959 . S
H4856 C4849 0.961 . S
H4857 C4849 0.960 . S
H4858 C4850 0.930 . S
H4859 C4851 0.929 . S
H4860 C4868 0.929 . S
H4861 C4870 0.930 . S
H4862 C4872 0.930 . S
H4863 C4875 0.929 . S
H4864 C4878 0.930 . S
H4865 C4880 0.960 . S
H4866 C4880 0.960 . S
H4867 C4880 0.960 . S
C4868 H4860 0.929 . S
C4868 C4869 1.377 . S
C4868 C4870 1.384 . S
C4869 C4868 1.377 . S
C4869 C4875 1.390 . S
C4870 H4861 0.930 . S
C4870 C4868 1.384 . S
C4870 C4871 1.372 . S
C4871 C4870 1.372 . S
C4871 C4872 1.400 . S
C4871 C4876 1.490 . S
C4872 H4862 0.930 . S
C4872 C4871 1.400 . S
C4872 C4875 1.386 . S
H4873 C4889 0.930 . S
H4874 C4890 0.931 . S
C4875 H4863 0.929 . S
C4875 C4869 1.390 . S
C4875 C4872 1.386 . S
C4876 C4871 1.490 . S
C4876 C4878 1.395 . S
C4876 C4879 1.403 . S
H4877 C4883 0.930 . S
C4878 H4864 0.930 . S
C4878 C4876 1.395 . S
C4878 C4881 1.403 . S
C4879 C4876 1.403 . S
C4879 C4880 1.524 . S
C4879 C4883 1.400 . S
C4880 H4865 0.960 . S
C4880 H4866 0.960 . S
C4880 H4867 0.960 . S
C4880 C4879 1.524 . S
C4881 C4878 1.403 . S
C4881 C4882 1.392 . S
C4881 C4885 1.495 . S
C4882 C4881 1.392 . S
C4882 C4883 1.385 . S
C4882 C4884 1.478 . S
C4883 H4877 0.930 . S
C4883 C4879 1.400 . S
C4883 C4882 1.385 . S
C4884 C4882 1.478 . S
C4884 C4886 1.381 . S
C4884 C4890 1.383 . S
C4885 C4881 1.495 . S
C4885 H4891 0.959 . S
C4885 H4892 0.961 . S
C4885 H4893 0.960 1_565 S
C4886 C4884 1.381 . S
C4886 C4887 1.394 1_565 S
C4886 H4894 0.930 . S
C4887 C4886 1.394 1_545 S
C4887 C4888 1.383 1_545 S
C4887 H4895 0.929 . S
C4888 C4887 1.383 1_565 S
C4888 C4889 1.377 . S
C4889 H4873 0.930 . S
C4889 C4888 1.377 . S
C4889 C4890 1.379 . S
C4890 H4874 0.931 . S
C4890 C4884 1.383 . S
C4890 C4889 1.379 . S
H4891 C4885 0.959 . S
H4892 C4885 0.961 . S
H4893 C4885 0.960 1_545 S
H4894 C4886 0.930 . S
H4895 C4887 0.929 . S
H4896 C4904 0.929 . S
H4897 C4906 0.930 . S
H4898 C4908 0.930 . S
H4899 C4911 0.929 . S
H4900 C4914 0.930 . S
H4901 C4916 0.960 . S
H4902 C4916 0.960 . S
H4903 C4916 0.960 . S
C4904 H4896 0.929 . S
C4904 C4905 1.377 . S
C4904 C4906 1.384 . S
C4905 C4904 1.377 . S
C4905 C4911 1.390 . S
C4906 H4897 0.930 . S
C4906 C4904 1.384 . S
C4906 C4907 1.372 . S
C4907 C4906 1.372 . S
C4907 C4908 1.400 . S
C4907 C4912 1.490 . S
C4908 H4898 0.930 . S
C4908 C4907 1.400 . S
C4908 C4911 1.386 . S
H4909 C4925 0.930 . S
H4910 C4926 0.931 . S
C4911 H4899 0.929 . S
C4911 C4905 1.390 . S
C4911 C4908 1.386 . S
C4912 C4907 1.490 . S
C4912 C4914 1.395 . S
C4912 C4915 1.403 . S
H4913 C4919 0.930 . S
C4914 H4900 0.930 . S
C4914 C4912 1.395 . S
C4914 C4917 1.403 . S
C4915 C4912 1.403 . S
C4915 C4916 1.524 . S
C4915 C4919 1.400 . S
C4916 H4901 0.960 . S
C4916 H4902 0.960 . S
C4916 H4903 0.960 . S
C4916 C4915 1.524 . S
C4917 C4914 1.403 . S
C4917 C4918 1.392 . S
C4917 C4921 1.495 . S
C4918 C4917 1.392 . S
C4918 C4919 1.385 . S
C4918 C4920 1.478 . S
C4919 H4913 0.930 . S
C4919 C4915 1.400 . S
C4919 C4918 1.385 . S
C4920 C4918 1.478 . S
C4920 C4922 1.381 . S
C4920 C4926 1.383 . S
C4921 C4917 1.495 . S
C4921 H4927 0.959 . S
C4921 H4928 0.961 . S
C4921 H4929 0.960 . S
C4922 C4920 1.381 . S
C4922 C4923 1.394 . S
C4922 H4930 0.930 . S
C4923 C4922 1.394 . S
C4923 C4924 1.383 . S
C4923 H4931 0.929 . S
C4924 C4923 1.383 . S
C4924 C4925 1.377 . S
C4925 H4909 0.930 . S
C4925 C4924 1.377 . S
C4925 C4926 1.379 . S
C4926 H4910 0.931 . S
C4926 C4920 1.383 . S
C4926 C4925 1.379 . S
H4927 C4921 0.959 . S
H4928 C4921 0.961 . S
H4929 C4921 0.960 . S
H4930 C4922 0.930 . S
H4931 C4923 0.929 . S
H4932 C4940 0.929 . S
H4933 C4942 0.930 . S
H4934 C4944 0.930 . S
H4935 C4947 0.929 . S
H4936 C4950 0.930 . S
H4937 C4952 0.960 . S
H4938 C4952 0.960 . S
H4939 C4952 0.960 . S
C4940 H4932 0.929 . S
C4940 C4941 1.377 . S
C4940 C4942 1.384 . S
C4941 C4940 1.377 . S
C4941 C4947 1.390 . S
C4942 H4933 0.930 . S
C4942 C4940 1.384 . S
C4942 C4943 1.372 . S
C4943 C4942 1.372 . S
C4943 C4944 1.400 . S
C4943 C4948 1.490 . S
C4944 H4934 0.930 . S
C4944 C4943 1.400 . S
C4944 C4947 1.386 . S
H4945 C4961 0.930 . S
H4946 C4962 0.931 . S
C4947 H4935 0.929 . S
C4947 C4941 1.390 . S
C4947 C4944 1.386 . S
C4948 C4943 1.490 . S
C4948 C4950 1.395 . S
C4948 C4951 1.403 . S
H4949 C4955 0.930 . S
C4950 H4936 0.930 . S
C4950 C4948 1.395 . S
C4950 C4953 1.403 . S
C4951 C4948 1.403 . S
C4951 C4952 1.524 . S
C4951 C4955 1.400 . S
C4952 H4937 0.960 . S
C4952 H4938 0.960 . S
C4952 H4939 0.960 . S
C4952 C4951 1.524 . S
C4953 C4950 1.403 . S
C4953 C4954 1.392 . S
C4953 C4957 1.495 . S
C4954 C4953 1.392 . S
C4954 C4955 1.385 . S
C4954 C4956 1.478 . S
C4955 H4949 0.930 . S
C4955 C4951 1.400 . S
C4955 C4954 1.385 . S
C4956 C4954 1.478 . S
C4956 C4958 1.381 . S
C4956 C4962 1.383 . S
C4957 C4953 1.495 . S
C4957 H4963 0.959 . S
C4957 H4964 0.961 . S
C4957 H4965 0.960 . S
C4958 C4956 1.381 . S
C4958 C4959 1.394 . S
C4958 H4966 0.930 . S
C4959 C4958 1.394 . S
C4959 C4960 1.383 . S
C4959 H4967 0.929 . S
C4960 C4959 1.383 . S
C4960 C4961 1.377 . S
C4961 H4945 0.930 . S
C4961 C4960 1.377 . S
C4961 C4962 1.379 . S
C4962 H4946 0.931 . S
C4962 C4956 1.383 . S
C4962 C4961 1.379 . S
H4963 C4957 0.959 . S
H4964 C4957 0.961 . S
H4965 C4957 0.960 . S
H4966 C4958 0.930 . S
H4967 C4959 0.929 . S
H4968 C4976 0.929 . S
H4969 C4978 0.930 . S
H4970 C4980 0.930 . S
H4971 C4983 0.929 . S
H4972 C4986 0.930 . S
H4973 C4988 0.960 . S
H4974 C4988 0.960 . S
H4975 C4988 0.960 . S
C4976 H4968 0.929 . S
C4976 C4977 1.377 . S
C4976 C4978 1.384 . S
C4977 C4976 1.377 . S
C4977 C4983 1.390 . S
C4978 H4969 0.930 . S
C4978 C4976 1.384 . S
C4978 C4979 1.372 . S
C4979 C4978 1.372 . S
C4979 C4980 1.400 . S
C4979 C4984 1.490 . S
C4980 H4970 0.930 . S
C4980 C4979 1.400 . S
C4980 C4983 1.386 . S
H4981 C4997 0.930 . S
H4982 C4998 0.931 . S
C4983 H4971 0.929 . S
C4983 C4977 1.390 . S
C4983 C4980 1.386 . S
C4984 C4979 1.490 . S
C4984 C4986 1.395 . S
C4984 C4987 1.403 . S
H4985 C4991 0.930 . S
C4986 H4972 0.930 . S
C4986 C4984 1.395 . S
C4986 C4989 1.403 . S
C4987 C4984 1.403 . S
C4987 C4988 1.524 . S
C4987 C4991 1.400 . S
C4988 H4973 0.960 . S
C4988 H4974 0.960 . S
C4988 H4975 0.960 . S
C4988 C4987 1.524 . S
C4989 C4986 1.403 . S
C4989 C4990 1.392 . S
C4989 C4993 1.495 . S
C4990 C4989 1.392 . S
C4990 C4991 1.385 . S
C4990 C4992 1.478 . S
C4991 H4985 0.930 . S
C4991 C4987 1.400 . S
C4991 C4990 1.385 . S
C4992 C4990 1.478 . S
C4992 C4994 1.381 . S
C4992 C4998 1.383 . S
C4993 C4989 1.495 . S
C4993 H4999 0.959 . S
C4993 H5000 0.961 . S
C4993 H5001 0.960 . S
C4994 C4992 1.381 . S
C4994 C4995 1.394 . S
C4994 H5002 0.930 . S
C4995 C4994 1.394 . S
C4995 C4996 1.383 . S
C4995 H5003 0.929 . S
C4996 C4995 1.383 . S
C4996 C4997 1.377 . S
C4997 H4981 0.930 . S
C4997 C4996 1.377 . S
C4997 C4998 1.379 . S
C4998 H4982 0.931 . S
C4998 C4992 1.383 . S
C4998 C4997 1.379 . S
H4999 C4993 0.959 . S
H5000 C4993 0.961 . S
H5001 C4993 0.960 . S
H5002 C4994 0.930 . S
H5003 C4995 0.929 . S
H5004 C5012 0.929 . S
H5005 C5014 0.930 . S
H5006 C5016 0.930 . S
H5007 C5019 0.929 . S
H5008 C5022 0.930 . S
H5009 C5024 0.957 1_556 S
H5010 C5024 0.957 1_556 S
H5011 C5024 0.963 . S
C5012 H5004 0.929 . S
C5012 C5013 1.377 . S
C5012 C5014 1.384 . S
C5013 C5012 1.377 . S
C5013 C5019 1.390 . S
C5014 H5005 0.930 . S
C5014 C5012 1.384 . S
C5014 C5015 1.372 . S
C5015 C5014 1.372 . S
C5015 C5016 1.400 . S
C5015 C5020 1.490 . S
C5016 H5006 0.930 . S
C5016 C5015 1.400 . S
C5016 C5019 1.386 . S
H5017 C5033 0.930 . S
H5018 C5034 0.931 . S
C5019 H5007 0.929 . S
C5019 C5013 1.390 . S
C5019 C5016 1.386 . S
C5020 C5015 1.490 . S
C5020 C5022 1.395 . S
C5020 C5023 1.403 . S
H5021 C5027 0.930 . S
C5022 H5008 0.930 . S
C5022 C5020 1.395 . S
C5022 C5025 1.403 . S
C5023 C5020 1.403 . S
C5023 C5024 1.527 . S
C5023 C5027 1.400 . S
C5024 H5009 0.957 1_554 S
C5024 H5010 0.957 1_554 S
C5024 H5011 0.963 . S
C5024 C5023 1.527 . S
C5025 C5022 1.403 . S
C5025 C5026 1.392 . S
C5025 C5029 1.495 . S
C5026 C5025 1.392 . S
C5026 C5027 1.385 . S
C5026 C5028 1.478 . S
C5027 H5021 0.930 . S
C5027 C5023 1.400 . S
C5027 C5026 1.385 . S
C5028 C5026 1.478 . S
C5028 C5030 1.381 . S
C5028 C5034 1.383 . S
C5029 C5025 1.495 . S
C5029 H5035 0.959 . S
C5029 H5036 0.961 . S
C5029 H5037 0.960 . S
C5030 C5028 1.381 . S
C5030 C5031 1.394 . S
C5030 H5038 0.930 . S
C5031 C5030 1.394 . S
C5031 C5032 1.383 . S
C5031 H5039 0.929 . S
C5032 C5031 1.383 . S
C5032 C5033 1.377 . S
C5033 H5017 0.930 . S
C5033 C5032 1.377 . S
C5033 C5034 1.379 . S
C5034 H5018 0.931 . S
C5034 C5028 1.383 . S
C5034 C5033 1.379 . S
H5035 C5029 0.959 . S
H5036 C5029 0.961 . S
H5037 C5029 0.960 . S
H5038 C5030 0.930 . S
H5039 C5031 0.929 . S
H5040 C5048 0.929 . S
H5041 C5050 0.930 . S
H5042 C5052 0.930 . S
H5043 C5055 0.929 . S
H5044 C5058 0.930 . S
H5045 C5060 0.960 . S
H5046 C5060 0.960 . S
H5047 C5060 0.960 . S
C5048 H5040 0.929 . S
C5048 C5049 1.377 . S
C5048 C5050 1.384 . S
C5049 C5048 1.377 . S
C5049 C5055 1.390 . S
C5050 H5041 0.930 . S
C5050 C5048 1.384 . S
C5050 C5051 1.372 . S
C5051 C5050 1.372 . S
C5051 C5052 1.400 . S
C5051 C5056 1.490 . S
C5052 H5042 0.930 . S
C5052 C5051 1.400 . S
C5052 C5055 1.386 . S
H5053 C5069 0.930 . S
H5054 C5070 0.931 . S
C5055 H5043 0.929 . S
C5055 C5049 1.390 . S
C5055 C5052 1.386 . S
C5056 C5051 1.490 . S
C5056 C5058 1.395 . S
C5056 C5059 1.403 . S
H5057 C5063 0.930 . S
C5058 H5044 0.930 . S
C5058 C5056 1.395 . S
C5058 C5061 1.403 . S
C5059 C5056 1.403 . S
C5059 C5060 1.524 . S
C5059 C5063 1.400 . S
C5060 H5045 0.960 . S
C5060 H5046 0.960 . S
C5060 H5047 0.960 . S
C5060 C5059 1.524 . S
C5061 C5058 1.403 . S
C5061 C5062 1.392 . S
C5061 C5065 1.495 . S
C5062 C5061 1.392 . S
C5062 C5063 1.385 . S
C5062 C5064 1.478 . S
C5063 H5057 0.930 . S
C5063 C5059 1.400 . S
C5063 C5062 1.385 . S
C5064 C5062 1.478 . S
C5064 C5066 1.381 . S
C5064 C5070 1.383 . S
C5065 C5061 1.495 . S
C5065 H5071 0.959 . S
C5065 H5072 0.961 . S
C5065 H5073 0.960 . S
C5066 C5064 1.381 . S
C5066 C5067 1.394 . S
C5066 H5074 0.930 . S
C5067 C5066 1.394 . S
C5067 C5068 1.383 . S
C5067 H5075 0.929 . S
C5068 C5067 1.383 . S
C5068 C5069 1.377 . S
C5069 H5053 0.930 . S
C5069 C5068 1.377 . S
C5069 C5070 1.379 . S
C5070 H5054 0.931 . S
C5070 C5064 1.383 . S
C5070 C5069 1.379 . S
H5071 C5065 0.959 . S
H5072 C5065 0.961 . S
H5073 C5065 0.960 . S
H5074 C5066 0.930 . S
H5075 C5067 0.929 . S
H5076 C5084 0.929 . S
H5077 C5086 0.930 . S
H5078 C5088 0.930 . S
H5079 C5091 0.929 . S
H5080 C5094 0.930 . S
H5081 C5096 0.960 . S
H5082 C5096 0.960 . S
H5083 C5096 0.960 . S
C5084 H5076 0.929 . S
C5084 C5085 1.377 . S
C5084 C5086 1.384 . S
C5085 C5084 1.377 . S
C5085 C5091 1.390 . S
C5086 H5077 0.930 . S
C5086 C5084 1.384 . S
C5086 C5087 1.372 . S
C5087 C5086 1.372 . S
C5087 C5088 1.400 . S
C5087 C5092 1.490 . S
C5088 H5078 0.930 . S
C5088 C5087 1.400 . S
C5088 C5091 1.386 . S
H5089 C5105 0.930 . S
H5090 C5106 0.931 . S
C5091 H5079 0.929 . S
C5091 C5085 1.390 . S
C5091 C5088 1.386 . S
C5092 C5087 1.490 . S
C5092 C5094 1.395 . S
C5092 C5095 1.403 . S
H5093 C5099 0.930 . S
C5094 H5080 0.930 . S
C5094 C5092 1.395 . S
C5094 C5097 1.403 . S
C5095 C5092 1.403 . S
C5095 C5096 1.524 . S
C5095 C5099 1.400 . S
C5096 H5081 0.960 . S
C5096 H5082 0.960 . S
C5096 H5083 0.960 . S
C5096 C5095 1.524 . S
C5097 C5094 1.403 . S
C5097 C5098 1.392 . S
C5097 C5101 1.495 . S
C5098 C5097 1.392 . S
C5098 C5099 1.385 . S
C5098 C5100 1.478 . S
C5099 H5093 0.930 . S
C5099 C5095 1.400 . S
C5099 C5098 1.385 . S
C5100 C5098 1.478 . S
C5100 C5102 1.381 . S
C5100 C5106 1.383 . S
C5101 C5097 1.495 . S
C5101 H5107 0.959 . S
C5101 H5108 0.961 . S
C5101 H5109 0.960 . S
C5102 C5100 1.381 . S
C5102 C5103 1.394 . S
C5102 H5110 0.930 . S
C5103 C5102 1.394 . S
C5103 C5104 1.383 . S
C5103 H5111 0.929 . S
C5104 C5103 1.383 . S
C5104 C5105 1.377 . S
C5105 H5089 0.930 . S
C5105 C5104 1.377 . S
C5105 C5106 1.379 . S
C5106 H5090 0.931 . S
C5106 C5100 1.383 . S
C5106 C5105 1.379 . S
H5107 C5101 0.959 . S
H5108 C5101 0.961 . S
H5109 C5101 0.960 . S
H5110 C5102 0.930 . S
H5111 C5103 0.929 . S
C1665 C101 2.043 . S
C1684 C379 2.051 . S
C1701 C57 1.822 . S
C1720 C452 1.828 . S
C1737 C73 1.796 . S
C1756 C547 1.887 . S
C1792 C622 1.465 . S
C1773 C78 1.520 . S
C1809 C21 1.635 . S
C1828 C706 1.490 . S
C1864 C799 1.830 . S
C1845 C31 1.748 . S
C1900 C872 1.855 . S
C1881 C49 1.876 . S
C1917 C0 1.860 . S
C1936 C967 1.958 . S
C1972 C368 1.521 . S
C1953 C218 1.554 . S
C1989 C229 0.873 . S
C2008 C454 0.788 . S
C2044 C536 1.035 . S
C2025 C257 1.065 . S
C2080 C631 1.589 . S
C2061 C164 1.523 1_556 S
C2097 C216 1.510 . S
C2116 C715 1.577 . S
C2152 C788 1.079 . S
C2133 C231 1.082 . S
C2188 C874 0.794 . S
C2169 C255 0.877 . S
C2224 C956 1.476 . S
C2205 C166 1.535 . S
C2260 C370 0.814 . S
C2241 C143 0.853 1_556 S
C2277 C265 1.668 . S
C2296 C1040 1.673 . S
C2332 C1126 1.214 . S
C2313 C299 1.272 . S
C2368 C1219 0.802 . S
C2349 C291 0.808 . S
C2385 C104 0.789 . S
C2404 C958 0.835 . S
C2421 C117 1.302 . S
C2440 C538 1.272 . S
C2457 C304 1.595 . S
C2476 C1292 1.624 . S
C2512 C1387 0.711 . S
C2493 C278 0.700 . S
C2548 C367 1.967 . S
C2529 C60 1.944 . S
C2584 C1388 1.730 . S
C2565 C96 1.735 . S
C2601 C88 1.765 . S
C2620 C535 1.755 . S
C2637 C65 1.448 . S
C2656 C1306 1.374 . S
C2692 C718 1.429 . S
C2673 C10 1.561 . S
C2709 C44 1.647 . S
C2728 C1123 1.727 . S
C2764 C884 1.754 1_556 S
C2745 C34 1.714 . S
C2800 C1459 1.877 . S
C2781 C13 1.843 . S
C2836 C380 1.401 . S
C2817 C138 1.425 . S
C2872 C1390 0.805 . S
C2853 C296 0.784 . S
C2889 C112 0.967 . S
C2908 C548 0.987 . S
C2925 C270 1.491 . S
C2944 C1291 1.483 . S
C2961 C140 1.466 . S
C2980 C703 1.454 . S
C3016 C1136 0.950 . S
C2997 C294 0.970 . S
C3033 C114 0.792 . S
C3052 C886 0.827 . S
C3069 C268 1.414 . S
C3088 C1472 1.376 . S
C3105 C169 0.837 . S
C3124 C382 0.821 . S
C3141 C161 1.599 . S
C3160 C1052 1.595 . S
C3177 C234 1.249 . S
C3196 C802 1.154 . S
C3213 C226 0.709 . S
C3232 C1207 0.701 . S
C3268 C1474 0.808 . S
C3249 C247 0.744 1_565 S
C3285 C195 1.278 . S
C3304 C550 1.244 . S
C3340 C632 1.525 . S
C3321 C239 1.524 . S
C3376 C451 0.609 . S
C3357 C187 0.628 . S
C3393 C75 2.041 . S
C3412 C1555 2.046 . S
C3448 C1376 1.843 . S
C3429 C83 1.817 . S
C3465 C99 1.797 . S
C3484 C1639 1.877 . S
C3501 C52 1.521 1_655 S
C3520 C1294 1.464 . S
C3537 C47 1.639 . S
C3556 C1042 1.518 . S
C3592 C1135 1.838 . S
C3573 C5 1.749 . S
C3628 C1208 1.858 . S
C3609 C23 1.877 . S
C3664 C1471 1.966 . S
C3645 C26 1.851 . S
C3700 C1544 1.514 . S
C3681 C244 1.554 . S
C3717 C177 0.873 . S
C3736 C1378 0.908 . S
C3772 C1628 1.079 . S
C3753 C192 1.067 . S
C3808 C1303 1.586 . S
C3789 C203 1.522 . S
C3844 C1051 1.574 . S
C3825 C242 1.509 . S
C3861 C179 1.081 . S
C3880 C1124 1.075 . S
C3916 C1210 0.852 . S
C3897 C190 0.866 . S
C3933 C205 1.537 . S
C3952 C1460 1.495 . S
C3988 C1546 0.855 . S
C3969 C286 0.871 . S
C4005 C122 1.672 . S
C4024 C704 1.664 . S
C4060 C790 1.195 . S
C4041 C130 1.272 . S
C4096 C883 0.824 . S
C4077 C148 0.805 . S
C4132 C1462 0.845 . S
C4113 C273 0.804 . S
C4149 C260 1.312 . S
C4168 C1630 1.236 . S
C4204 C620 1.623 . S
C4185 C135 1.595 . S
C4240 C463 0.711 . S
C4221 C109 0.699 . S
C4257 C86 1.946 . S
C4276 C1543 1.966 . S
C4312 C464 1.718 . S
C4293 C70 1.733 . S
C4329 C62 1.766 . S
C4348 C1627 1.761 . S
C4365 C91 1.440 . S
C4384 C634 1.339 . S
C4401 C36 1.560 . S
C4420 C1054 1.405 . S
C4456 C787 1.728 . S
C4437 C18 1.647 . S
C4473 C8 1.714 . S
C4492 C1220 1.751 . S
C4509 C39 1.843 . S
C4528 C955 1.865 . S
C4564 C1556 1.415 . S
C4545 C307 1.426 . S
C4581 C153 0.783 . S
C4600 C466 0.730 . S
C4636 C1640 0.974 1_655 S
C4617 C281 0.969 . S
C4653 C127 1.490 . S
C4672 C619 1.490 . S
C4689 C309 1.465 . S
C4708 C1039 1.460 . S
C4744 C800 0.960 . S
C4725 C151 0.982 . S
C4761 C283 0.784 . S
C4780 C1222 0.712 . S
C4816 C968 1.409 . S
C4797 C125 1.418 . S
C4852 C1558 0.803 . S
C4833 C221 0.837 . S
C4888 C716 1.592 1_565 S
C4869 C200 1.600 . S
C4905 C208 1.249 . S
C4924 C1138 1.221 . S
C4960 C871 0.705 . S
C4941 C174 0.712 . S
C4977 C182 0.748 . S
C4996 C970 0.750 . S
C5013 C156 1.282 . S
C5032 C1642 1.245 . S
C5068 C1304 1.514 . S
C5049 C213 1.522 . S
C5104 C1375 0.591 . S
C5085 C252 0.612 . S
