# Generated by pormake.
# Topology cor, (4,6)-cn, num edge types: 1
# Building blocks:
#     Node 0, Type 0, BuildingBlock: NAHDIM_clean_sbu_0, # of connection points: 4
#     Node 1, Type 0, BuildingBlock: NAHDIM_clean_sbu_0, # of connection points: 4
#     Node 2, Type 0, BuildingBlock: NAHDIM_clean_sbu_0, # of connection points: 4
#     Node 3, Type 0, BuildingBlock: NAHDIM_clean_sbu_0, # of connection points: 4
#     Node 4, Type 0, BuildingBlock: NAHDIM_clean_sbu_0, # of connection points: 4
#     Node 5, Type 0, BuildingBlock: NAHDIM_clean_sbu_0, # of connection points: 4
#     Node 6, Type 0, BuildingBlock: NAHDIM_clean_sbu_0, # of connection points: 4
#     Node 7, Type 0, BuildingBlock: NAHDIM_clean_sbu_0, # of connection points: 4
#     Node 8, Type 0, BuildingBlock: NAHDIM_clean_sbu_0, # of connection points: 4
#     Node 9, Type 0, BuildingBlock: NAHDIM_clean_sbu_0, # of connection points: 4
#     Node 10, Type 0, BuildingBlock: NAHDIM_clean_sbu_0, # of connection points: 4
#     Node 11, Type 0, BuildingBlock: NAHDIM_clean_sbu_0, # of connection points: 4
#     Node 12, Type 0, BuildingBlock: NAHDIM_clean_sbu_0, # of connection points: 4
#     Node 13, Type 0, BuildingBlock: NAHDIM_clean_sbu_0, # of connection points: 4
#     Node 14, Type 0, BuildingBlock: NAHDIM_clean_sbu_0, # of connection points: 4
#     Node 15, Type 0, BuildingBlock: NAHDIM_clean_sbu_0, # of connection points: 4
#     Node 16, Type 0, BuildingBlock: NAHDIM_clean_sbu_0, # of connection points: 4
#     Node 17, Type 0, BuildingBlock: NAHDIM_clean_sbu_0, # of connection points: 4
#     Node 18, Type 1, BuildingBlock: MIDCAF_clean_sbu_0, # of connection points: 6
#     Node 19, Type 1, BuildingBlock: MIDCAF_clean_sbu_0, # of connection points: 6
#     Node 20, Type 1, BuildingBlock: MIDCAF_clean_sbu_0, # of connection points: 6
#     Node 21, Type 1, BuildingBlock: MIDCAF_clean_sbu_0, # of connection points: 6
#     Node 22, Type 1, BuildingBlock: MIDCAF_clean_sbu_0, # of connection points: 6
#     Node 23, Type 1, BuildingBlock: MIDCAF_clean_sbu_0, # of connection points: 6
#     Node 24, Type 1, BuildingBlock: MIDCAF_clean_sbu_0, # of connection points: 6
#     Node 25, Type 1, BuildingBlock: MIDCAF_clean_sbu_0, # of connection points: 6
#     Node 26, Type 1, BuildingBlock: MIDCAF_clean_sbu_0, # of connection points: 6
#     Node 27, Type 1, BuildingBlock: MIDCAF_clean_sbu_0, # of connection points: 6
#     Node 28, Type 1, BuildingBlock: MIDCAF_clean_sbu_0, # of connection points: 6
#     Node 29, Type 1, BuildingBlock: MIDCAF_clean_sbu_0, # of connection points: 6
#     Edge 30, Type (0, 1), BuildingBlock: TEMPAE_clean_linker_10, # of connection points: 2
#     Edge 31, Type (0, 1), BuildingBlock: TEMPAE_clean_linker_10, # of connection points: 2
#     Edge 32, Type (0, 1), BuildingBlock: TEMPAE_clean_linker_10, # of connection points: 2
#     Edge 33, Type (0, 1), BuildingBlock: TEMPAE_clean_linker_10, # of connection points: 2
#     Edge 34, Type (0, 1), BuildingBlock: TEMPAE_clean_linker_10, # of connection points: 2
#     Edge 35, Type (0, 1), BuildingBlock: TEMPAE_clean_linker_10, # of connection points: 2
#     Edge 36, Type (0, 1), BuildingBlock: TEMPAE_clean_linker_10, # of connection points: 2
#     Edge 37, Type (0, 1), BuildingBlock: TEMPAE_clean_linker_10, # of connection points: 2
#     Edge 38, Type (0, 1), BuildingBlock: TEMPAE_clean_linker_10, # of connection points: 2
#     Edge 39, Type (0, 1), BuildingBlock: TEMPAE_clean_linker_10, # of connection points: 2
#     Edge 40, Type (0, 1), BuildingBlock: TEMPAE_clean_linker_10, # of connection points: 2
#     Edge 41, Type (0, 1), BuildingBlock: TEMPAE_clean_linker_10, # of connection points: 2
#     Edge 42, Type (0, 1), BuildingBlock: TEMPAE_clean_linker_10, # of connection points: 2
#     Edge 43, Type (0, 1), BuildingBlock: TEMPAE_clean_linker_10, # of connection points: 2
#     Edge 44, Type (0, 1), BuildingBlock: TEMPAE_clean_linker_10, # of connection points: 2
#     Edge 45, Type (0, 1), BuildingBlock: TEMPAE_clean_linker_10, # of connection points: 2
#     Edge 46, Type (0, 1), BuildingBlock: TEMPAE_clean_linker_10, # of connection points: 2
#     Edge 47, Type (0, 1), BuildingBlock: TEMPAE_clean_linker_10, # of connection points: 2
#     Edge 48, Type (0, 1), BuildingBlock: TEMPAE_clean_linker_10, # of connection points: 2
#     Edge 49, Type (0, 1), BuildingBlock: TEMPAE_clean_linker_10, # of connection points: 2
#     Edge 50, Type (0, 1), BuildingBlock: TEMPAE_clean_linker_10, # of connection points: 2
#     Edge 51, Type (0, 1), BuildingBlock: TEMPAE_clean_linker_10, # of connection points: 2
#     Edge 52, Type (0, 1), BuildingBlock: TEMPAE_clean_linker_10, # of connection points: 2
#     Edge 53, Type (0, 1), BuildingBlock: TEMPAE_clean_linker_10, # of connection points: 2
#     Edge 54, Type (0, 1), BuildingBlock: TEMPAE_clean_linker_10, # of connection points: 2
#     Edge 55, Type (0, 1), BuildingBlock: TEMPAE_clean_linker_10, # of connection points: 2
#     Edge 56, Type (0, 1), BuildingBlock: TEMPAE_clean_linker_10, # of connection points: 2
#     Edge 57, Type (0, 1), BuildingBlock: TEMPAE_clean_linker_10, # of connection points: 2
#     Edge 58, Type (0, 1), BuildingBlock: TEMPAE_clean_linker_10, # of connection points: 2
#     Edge 59, Type (0, 1), BuildingBlock: TEMPAE_clean_linker_10, # of connection points: 2
#     Edge 60, Type (0, 1), BuildingBlock: TEMPAE_clean_linker_10, # of connection points: 2
#     Edge 61, Type (0, 1), BuildingBlock: TEMPAE_clean_linker_10, # of connection points: 2
#     Edge 62, Type (0, 1), BuildingBlock: TEMPAE_clean_linker_10, # of connection points: 2
#     Edge 63, Type (0, 1), BuildingBlock: TEMPAE_clean_linker_10, # of connection points: 2
#     Edge 64, Type (0, 1), BuildingBlock: TEMPAE_clean_linker_10, # of connection points: 2
#     Edge 65, Type (0, 1), BuildingBlock: TEMPAE_clean_linker_10, # of connection points: 2
#     Edge 66, Type (0, 1), BuildingBlock: TEMPAE_clean_linker_10, # of connection points: 2
#     Edge 67, Type (0, 1), BuildingBlock: TEMPAE_clean_linker_10, # of connection points: 2
#     Edge 68, Type (0, 1), BuildingBlock: TEMPAE_clean_linker_10, # of connection points: 2
#     Edge 69, Type (0, 1), BuildingBlock: TEMPAE_clean_linker_10, # of connection points: 2
#     Edge 70, Type (0, 1), BuildingBlock: TEMPAE_clean_linker_10, # of connection points: 2
#     Edge 71, Type (0, 1), BuildingBlock: TEMPAE_clean_linker_10, # of connection points: 2
#     Edge 72, Type (0, 1), BuildingBlock: TEMPAE_clean_linker_10, # of connection points: 2
#     Edge 73, Type (0, 1), BuildingBlock: TEMPAE_clean_linker_10, # of connection points: 2
#     Edge 74, Type (0, 1), BuildingBlock: TEMPAE_clean_linker_10, # of connection points: 2
#     Edge 75, Type (0, 1), BuildingBlock: TEMPAE_clean_linker_10, # of connection points: 2
#     Edge 76, Type (0, 1), BuildingBlock: TEMPAE_clean_linker_10, # of connection points: 2
#     Edge 77, Type (0, 1), BuildingBlock: TEMPAE_clean_linker_10, # of connection points: 2
#     Edge 78, Type (0, 1), BuildingBlock: TEMPAE_clean_linker_10, # of connection points: 2
#     Edge 79, Type (0, 1), BuildingBlock: TEMPAE_clean_linker_10, # of connection points: 2
#     Edge 80, Type (0, 1), BuildingBlock: TEMPAE_clean_linker_10, # of connection points: 2
#     Edge 81, Type (0, 1), BuildingBlock: TEMPAE_clean_linker_10, # of connection points: 2
#     Edge 82, Type (0, 1), BuildingBlock: TEMPAE_clean_linker_10, # of connection points: 2
#     Edge 83, Type (0, 1), BuildingBlock: TEMPAE_clean_linker_10, # of connection points: 2
#     Edge 84, Type (0, 1), BuildingBlock: TEMPAE_clean_linker_10, # of connection points: 2
#     Edge 85, Type (0, 1), BuildingBlock: TEMPAE_clean_linker_10, # of connection points: 2
#     Edge 86, Type (0, 1), BuildingBlock: TEMPAE_clean_linker_10, # of connection points: 2
#     Edge 87, Type (0, 1), BuildingBlock: TEMPAE_clean_linker_10, # of connection points: 2
#     Edge 88, Type (0, 1), BuildingBlock: TEMPAE_clean_linker_10, # of connection points: 2
#     Edge 89, Type (0, 1), BuildingBlock: TEMPAE_clean_linker_10, # of connection points: 2
#     Edge 90, Type (0, 1), BuildingBlock: TEMPAE_clean_linker_10, # of connection points: 2
#     Edge 91, Type (0, 1), BuildingBlock: TEMPAE_clean_linker_10, # of connection points: 2
#     Edge 92, Type (0, 1), BuildingBlock: TEMPAE_clean_linker_10, # of connection points: 2
#     Edge 93, Type (0, 1), BuildingBlock: TEMPAE_clean_linker_10, # of connection points: 2
#     Edge 94, Type (0, 1), BuildingBlock: TEMPAE_clean_linker_10, # of connection points: 2
#     Edge 95, Type (0, 1), BuildingBlock: TEMPAE_clean_linker_10, # of connection points: 2
#     Edge 96, Type (0, 1), BuildingBlock: TEMPAE_clean_linker_10, # of connection points: 2
#     Edge 97, Type (0, 1), BuildingBlock: TEMPAE_clean_linker_10, # of connection points: 2
#     Edge 98, Type (0, 1), BuildingBlock: TEMPAE_clean_linker_10, # of connection points: 2
#     Edge 99, Type (0, 1), BuildingBlock: TEMPAE_clean_linker_10, # of connection points: 2
#     Edge 100, Type (0, 1), BuildingBlock: TEMPAE_clean_linker_10, # of connection points: 2
#     Edge 101, Type (0, 1), BuildingBlock: TEMPAE_clean_linker_10, # of connection points: 2
# Relax obj value: 0.160
# Max RMSD: 0.189
# Mean RMSD: 0.174
data_MOF--net-cor--node1-NAHDIM_clean_sbu_0--node2-MIDCAF_clean_sbu_0--edge1-TEMPAE_clean_linker_10
_symmetry_space_group_name_H-M    P1
_symmetry_Int_Tables_number       1
_symmetry_cell_setting            triclinic
loop_
_symmetry_equiv_pos_as_xyz
'x, y, z'
_cell_length_a     39.157631
_cell_length_b     38.76544
_cell_length_c     99.718157
_cell_angle_alpha  91.436338
_cell_angle_beta   89.291531
_cell_angle_gamma 121.15298
loop_
_atom_site_label
_atom_site_type_symbol
_atom_site_fract_x
_atom_site_fract_y
_atom_site_fract_z
_atom_type_partial_charge
C0 C 0.68533 0.03577 0.25036 0.0
O1 O 0.66355 0.0016 0.24367 0.0
O2 O 0.67332 0.94109 0.26182 0.0
Zn3 Zn 0.72378 0.99453 0.25858 0.0
O4 O 0.74748 0.99578 0.24027 0.0
C5 C 0.74597 0.9973 0.2858 0.0
O6 O 0.7086 0.98736 0.28732 0.0
O7 O 0.71223 0.03926 0.25825 0.0
C8 C 0.78194 0.00109 0.2382 0.0
O9 O 0.80368 0.00317 0.24846 0.0
C10 C 0.676 0.91226 0.26645 0.0
O11 O 0.71148 0.91691 0.26784 0.0
O12 O 0.76085 0.00389 0.27404 0.0
C13 C 0.13998 0.80059 0.25547 0.0
O14 O 0.13865 0.8331 0.25841 0.0
O15 O 0.01871 0.72226 0.23877 0.0
Zn16 Zn 0.06713 0.77791 0.24135 0.0
O17 O 0.05654 0.80785 0.25607 0.0
C18 C 0.0671 0.78757 0.21255 0.0
O19 O 0.05917 0.75024 0.21221 0.0
O20 O 0.11408 0.77406 0.24747 0.0
C21 C 0.04836 0.79436 0.26791 0.0
O22 O 0.04425 0.75921 0.27028 0.0
C23 C 0.02153 0.69186 0.23558 0.0
O24 O 0.05703 0.69612 0.23477 0.0
O25 O 0.07492 0.80649 0.22379 0.0
C26 C 0.36205 0.27965 0.2426 0.0
O27 O 0.34224 0.24229 0.24671 0.0
O28 O 0.27637 0.317 0.2563 0.0
Zn29 Zn 0.2921 0.27608 0.25236 0.0
O30 O 0.25507 0.23557 0.23851 0.0
C31 C 0.2577 0.21751 0.27312 0.0
O32 O 0.23285 0.19607 0.26339 0.0
O33 O 0.34734 0.30184 0.24456 0.0
C34 C 0.26018 0.24621 0.22633 0.0
O35 O 0.28831 0.28311 0.22341 0.0
C36 C 0.30192 0.34969 0.26214 0.0
O37 O 0.33818 0.35687 0.26408 0.0
O38 O 0.28788 0.25168 0.27044 0.0
C39 C 0.30547 0.96926 0.76535 0.0
O40 O 0.3138 0.00333 0.77133 0.0
O41 O 0.32183 0.05217 0.74025 0.0
Zn42 Zn 0.27509 -0.00028 0.7467 0.0
O43 O 0.25047 0.01064 0.76288 0.0
C44 C 0.21616 0.9908 0.72843 0.0
O45 O 0.21929 0.01995 0.73633 0.0
O46 O 0.29094 0.96156 0.75355 0.0
C47 C 0.21635 0.98401 0.76715 0.0
O48 O 0.1945 0.95077 0.76003 0.0
C49 C 0.35218 0.05446 0.7346 0.0
O50 O 0.35464 0.02197 0.73349 0.0
O51 O 0.2366 0.97495 0.73114 0.0
C52 C 0.93211 0.26798 0.73295 0.0
O53 O 0.93715 0.23872 0.72853 0.0
O54 O 0.04632 0.3481 0.75502 0.0
Zn55 Zn 0.00642 0.29368 0.74725 0.0
O56 O 0.02985 0.28152 0.73084 0.0
C57 C 0.02359 0.24991 0.76596 0.0
O58 O 0.05606 0.2649 0.75862 0.0
O59 O 0.95695 0.29383 0.74136 0.0
C60 C 0.02111 0.24584 0.7278 0.0
O61 O 0.99723 0.21638 0.73573 0.0
C62 C 0.0836 0.36257 0.75372 0.0
O63 O 0.09629 0.34348 0.74603 0.0
O64 O 0.99581 0.25588 0.76261 0.0
C65 C 0.67307 0.73975 0.76766 0.0
O66 O 0.6947 0.72723 0.77335 0.0
O67 O 0.72935 0.711 0.74264 0.0
Zn68 Zn 0.73516 0.76389 0.74887 0.0
O69 O 0.77201 0.7862 0.76487 0.0
C70 C 0.79096 0.82884 0.73181 0.0
O71 O 0.81636 0.83318 0.74114 0.0
O72 O 0.68311 0.75525 0.75611 0.0
C73 C 0.7797 0.8196 0.77018 0.0
O74 O 0.76739 0.84123 0.76434 0.0
C75 C 0.75806 0.71089 0.73655 0.0
O76 O 0.79132 0.74537 0.73461 0.0
O77 O 0.75436 0.80183 0.73313 0.0
C78 C 0.4101 0.46591 0.58186 0.0
O79 O 0.37345 0.43559 0.58003 0.0
O80 O 0.36158 0.36502 0.59237 0.0
Zn81 Zn 0.42085 0.40163 0.58922 0.0
O82 O 0.43681 0.38731 0.57149 0.0
C83 C 0.43225 0.38443 0.61643 0.0
O84 O 0.39711 0.38053 0.61811 0.0
O85 O 0.43589 0.45933 0.58682 0.0
C86 C 0.46998 0.38908 0.57015 0.0
O87 O 0.49252 0.39658 0.58076 0.0
C88 C 0.34868 0.3277 0.59365 0.0
O89 O 0.3737 0.31492 0.59196 0.0
O90 O 0.44939 0.39507 0.60504 0.0
C91 C 0.72505 0.04012 0.59377 0.0
O92 O 0.6907 0.02807 0.59975 0.0
O93 O 0.64551 0.04714 0.57835 0.0
Zn94 Zn 0.70296 0.09042 0.58117 0.0
O95 O 0.71045 0.12508 0.59766 0.0
C96 C 0.7087 0.10237 0.55297 0.0
O97 O 0.69522 0.06351 0.55313 0.0
O98 O 0.73626 0.06588 0.58455 0.0
C99 C 0.68222 0.12041 0.6053 0.0
O100 O 0.64517 0.09349 0.60211 0.0
C101 C 0.62228 0.0561 0.57264 0.0
O102 O 0.63533 0.09401 0.57004 0.0
O103 O 0.71833 0.12223 0.56406 0.0
C104 C 0.05345 0.63848 0.58398 0.0
O105 O 0.05163 0.66973 0.58023 0.0
O106 O 0.00081 0.68024 0.59689 0.0
Zn107 Zn 0.98008 0.62095 0.59421 0.0
O108 O 0.94847 0.5987 0.57712 0.0
C109 C 0.95351 0.61038 0.62174 0.0
O110 O 0.98445 0.64714 0.62311 0.0
O111 O 0.02586 0.61224 0.59128 0.0
C112 C 0.91136 0.58432 0.57555 0.0
O113 O 0.89011 0.58538 0.58568 0.0
C114 C 0.97699 0.69273 0.59913 0.0
O115 O 0.93837 0.66673 0.59891 0.0
O116 O 0.94668 0.59217 0.61039 0.0
C117 C 0.95287 0.29731 0.10415 0.0
O118 O 0.96732 0.32962 0.11198 0.0
O119 O 0.99631 0.3939 0.08142 0.0
Zn120 Zn 0.94167 0.34858 0.08641 0.0
O121 O 0.92293 0.36976 0.10173 0.0
C122 C 0.87954 0.34039 0.06785 0.0
O123 O 0.86242 0.34526 0.07854 0.0
O124 O 0.94095 0.29844 0.09243 0.0
C125 C 0.89146 0.34682 0.10829 0.0
O126 O 0.86925 0.30878 0.10449 0.0
C127 C 0.99531 0.42344 0.07654 0.0
O128 O 0.96099 0.42182 0.07613 0.0
O129 O 0.91053 0.33814 0.0692 0.0
C130 C 0.55644 0.55631 0.07992 0.0
O131 O 0.56042 0.52692 0.0749 0.0
O132 O 0.67853 0.63506 0.09641 0.0
Zn133 Zn 0.63358 0.58066 0.08991 0.0
O134 O 0.64512 0.56987 0.07105 0.0
C135 C 0.63626 0.54676 0.115 0.0
O136 O 0.64674 0.58326 0.11927 0.0
O137 O 0.58318 0.58217 0.08786 0.0
C138 C 0.65414 0.54373 0.06779 0.0
O139 O 0.65989 0.52434 0.07728 0.0
C140 C 0.71317 0.64076 0.0983 0.0
O141 O 0.71938 0.61104 0.0957 0.0
O142 O 0.6273 0.53744 0.10267 0.0
C143 C 0.33529 0.06781 0.10655 0.0
O144 O 0.35795 0.06212 0.1147 0.0
O145 O 0.40053 0.0344 0.08776 0.0
Zn146 Zn 0.40169 0.08702 0.09009 0.0
O147 O 0.43534 0.11865 0.1061 0.0
C148 C 0.4165 0.09766 0.06173 0.0
O149 O 0.39005 0.05881 0.0616 0.0
O150 O 0.34675 0.07739 0.09448 0.0
C151 C 0.4717 0.1468 0.10643 0.0
O152 O 0.49259 0.15736 0.09528 0.0
C153 C 0.43173 0.03555 0.08331 0.0
O154 O 0.46419 0.07081 0.08148 0.0
O155 O 0.4247 0.1174 0.07283 0.0
C156 C 0.04479 0.75239 0.91735 0.0
O157 O 0.01456 0.71838 0.91268 0.0
O158 O 0.01374 0.65065 0.93046 0.0
Zn159 Zn 0.06871 0.69965 0.92754 0.0
O160 O 0.09191 0.69493 0.90994 0.0
C161 C 0.08651 0.69541 0.95506 0.0
O162 O 0.0496 0.68705 0.95646 0.0
O163 O 0.06963 0.75149 0.92519 0.0
C164 C 0.12005 0.68803 0.90833 0.0
O165 O 0.13405 0.67924 0.91878 0.0
C166 C 0.01332 0.61904 0.93395 0.0
O167 O 0.04725 0.61982 0.93435 0.0
O168 O 0.10256 0.70395 0.94348 0.0
C169 C 0.39304 0.38824 0.92659 0.0
O170 O 0.35758 0.35984 0.93059 0.0
O171 O 0.2986 0.36975 0.91223 0.0
Zn172 Zn 0.3486 0.42248 0.91723 0.0
O173 O 0.34321 0.44456 0.93516 0.0
C174 C 0.35327 0.44222 0.89008 0.0
O175 O 0.3492 0.4064 0.88914 0.0
O176 O 0.39623 0.41689 0.91971 0.0
C177 C 0.33413 0.47124 0.93731 0.0
O178 O 0.32464 0.48552 0.92712 0.0
C179 C 0.27112 0.37269 0.90666 0.0
O180 O 0.27468 0.40825 0.90619 0.0
O181 O 0.3575 0.45865 0.90166 0.0
C182 C 0.71185 0.97139 0.92233 0.0
O183 O 0.70564 -6e-05 0.91862 0.0
O184 O 0.63295 0.98802 0.93687 0.0
Zn185 Zn 0.63283 0.937 0.93267 0.0
O186 O 0.60488 0.91099 0.91534 0.0
C187 C 0.61702 0.92171 0.95998 0.0
O188 O 0.64808 0.95864 0.96029 0.0
O189 O 0.68652 0.94362 0.92977 0.0
C190 C 0.57307 0.90671 0.91052 0.0
O191 O 0.55255 0.91897 0.91754 0.0
C192 C 0.63497 0.01518 0.9295 0.0
O193 O 0.64017 0.01388 0.9165 0.0
O194 O 0.60545 0.90305 0.94871 0.0
C195 C 0.65011 0.62664 0.42982 0.0
O196 O 0.67781 0.66188 0.4347 0.0
O197 O 0.68164 0.72309 0.41273 0.0
Zn198 Zn 0.62708 0.67637 0.41731 0.0
O199 O 0.60864 0.68829 0.43476 0.0
C200 C 0.6045 0.67597 0.38998 0.0
O201 O 0.64147 0.68521 0.38793 0.0
O202 O 0.62607 0.62512 0.42104 0.0
C203 C 0.58456 0.70078 0.43609 0.0
O204 O 0.57122 0.70902 0.42535 0.0
C205 C 0.68287 0.75519 0.40937 0.0
O206 O 0.64989 0.75626 0.40991 0.0
O207 O 0.59049 0.6688 0.40186 0.0
C208 C 0.30268 0.98159 0.3979 0.0
O209 O 0.3311 0.98136 0.39083 0.0
O210 O 0.39584 0.00412 0.41786 0.0
Zn211 Zn 0.3388 0.95851 0.41653 0.0
O212 O 0.33171 0.9182 0.40212 0.0
C213 C 0.34004 0.954 0.44531 0.0
O214 O 0.35725 0.99328 0.44445 0.0
O215 O 0.30115 0.9761 0.41049 0.0
C216 C 0.35871 0.9173 0.39525 0.0
O217 O 0.39645 0.94175 0.39834 0.0
C218 C 0.40464 0.04027 0.41987 0.0
O219 O 0.37624 0.04873 0.41936 0.0
O220 O 0.32615 0.93221 0.43469 0.0
C221 C 0.00717 0.38978 0.44338 0.0
O222 O 0.03271 0.3871 0.45103 0.0
O223 O 0.06774 0.35233 0.42217 0.0
Zn224 Zn 0.06758 0.40378 0.4249 0.0
O225 O 0.10361 0.43636 0.44025 0.0
C226 C 0.07812 0.41403 0.39634 0.0
O227 O 0.05211 0.37509 0.39639 0.0
O228 O 0.01353 0.39403 0.43079 0.0
C229 C 0.13815 0.46769 0.44025 0.0
O230 O 0.15685 0.4816 0.42883 0.0
C231 C 0.1001 0.35592 0.41782 0.0
O232 O 0.13157 0.39225 0.41658 0.0
O233 O 0.08746 0.43385 0.40744 0.0
Zn234 Zn 0.99235 -0.00069 0.1194 0.0
Zn235 Zn 0.96905 0.98369 0.16546 0.0
Zn236 Zn 0.98496 0.99704 0.14345 0.0
C237 C 0.97323 0.92038 0.15797 0.0
C238 C 0.04238 0.05196 0.16515 0.0
O239 O 0.96045 0.03444 0.13727 0.0
O240 O 0.99157 0.05 0.11784 0.0
C241 C 0.93427 0.92178 0.12349 0.0
O242 O 0.96685 0.93313 0.147 0.0
O243 O 0.9803 0.94102 0.16864 0.0
O244 O 0.01021 0.03956 0.17159 0.0
O245 O 0.04174 0.03446 0.15395 0.0
O246 O 0.94431 0.94682 0.11421 0.0
O247 O 0.95055 0.93422 0.13516 0.0
O248 O 0.05011 0.02774 0.14069 0.0
O249 O 0.04457 0.00215 0.12027 0.0
C250 C 0.06562 0.01973 0.13053 0.0
O251 O 0.94314 0.0176 0.15006 0.0
O252 O 0.91245 0.96757 0.16395 0.0
C253 C 0.97241 0.05653 0.12682 0.0
C254 C 0.91315 0.99582 0.15775 0.0
Zn255 Zn 0.01315 0.04251 0.33722 0.0
Zn256 Zn 0.03091 0.01606 0.38436 0.0
Zn257 Zn 0.02252 0.02714 0.3591 0.0
C258 C 0.06834 0.09914 0.38126 0.0
C259 C 0.94934 0.97841 0.37967 0.0
O260 O 0.03716 0.99026 0.34597 0.0
O261 O 0.00099 0.98962 0.32913 0.0
C262 C 0.08277 0.10757 0.34399 0.0
O263 O 0.05892 0.08725 0.36893 0.0
O264 O 0.05943 0.07358 0.3903 0.0
O265 O 0.97371 0.98293 0.3887 0.0
O266 O 0.96208 0.99395 0.36806 0.0
O267 O 0.06522 0.08935 0.3333 0.0
O268 O 0.06826 0.09136 0.35538 0.0
O269 O 0.95845 0.00804 0.35538 0.0
O270 O 0.96951 0.05275 0.34012 0.0
C271 C 0.94585 0.02628 0.3481 0.0
O272 O 0.05285 0.99272 0.35882 0.0
O273 O 0.06159 0.98931 0.38054 0.0
C274 C 0.02019 0.97565 0.33455 0.0
C275 C 0.06696 0.98241 0.36849 0.0
Zn276 Zn 0.02991 0.03906 0.88399 0.0
Zn277 Zn 0.01633 0.01094 0.83872 0.0
Zn278 Zn 0.02032 0.0236 0.85997 0.0
C279 C 0.00614 0.07159 0.83886 0.0
C280 C 0.95629 0.94531 0.84636 0.0
O281 O 0.05777 -0.00029 0.86731 0.0
O282 O 0.06072 0.01436 0.88893 0.0
C283 C 0.05925 0.1129 0.87236 0.0
O284 O 0.02967 0.07739 0.84876 0.0
O285 O 0.98594 0.03652 0.8338 0.0
O286 O 0.98721 0.95121 0.84024 0.0
O287 O 0.95939 0.9735 0.85434 0.0
O288 O 0.05602 0.0979 0.88371 0.0
O289 O 0.04659 0.08993 0.86178 0.0
O290 O 0.95916 0.98794 0.868 0.0
O291 O 0.97341 0.00863 0.8891 0.0
C292 C 0.94792 0.98792 0.88017 0.0
O293 O 0.06635 0.0088 0.85355 0.0
O294 O 0.07427 0.04132 0.83503 0.0
C295 C 0.068 0.99726 0.87935 0.0
C296 C 0.08728 0.02625 0.84307 0.0
Zn297 Zn 0.03293 0.0352 0.66082 0.0
Zn298 Zn 0.02022 0.02617 0.61202 0.0
Zn299 Zn 0.02463 0.03012 0.63808 0.0
C300 C 0.04283 0.97203 0.61961 0.0
C301 C 0.07757 0.10594 0.61885 0.0
O302 O 0.0578 0.09525 0.64413 0.0
O303 O 0.03426 0.08551 0.66475 0.0
C304 C 0.95537 0.9799 0.65771 0.0
O305 O 0.04257 0.98709 0.63126 0.0
O306 O 0.03409 0.98415 0.6093 0.0
O307 O 0.06191 0.08306 0.60869 0.0
O308 O 0.06605 0.09193 0.63073 0.0
O309 O 0.98317 0.98428 0.66516 0.0
O310 O 0.96388 0.00047 0.64694 0.0
O311 O 0.05493 0.99766 0.64475 0.0
O312 O 0.08388 0.037 0.6624 0.0
C313 C 0.08082 0.01011 0.6543 0.0
O314 O 0.96155 0.00767 0.63328 0.0
O315 O 0.96301 0.00916 0.6111 0.0
C316 C 0.05228 0.10912 0.65529 0.0
C317 C 0.94386 0.00259 0.62196 0.0
Zn318 Zn 0.65268 0.3221 0.50737 0.0
Zn319 Zn 0.69605 0.35179 0.45853 0.0
Zn320 Zn 0.67539 0.34118 0.48342 0.0
C321 C 0.76659 0.38724 0.47256 0.0
C322 C 0.64799 0.26978 0.46067 0.0
O323 O 0.63353 0.36313 0.48827 0.0
O324 O 0.61033 0.33421 0.50783 0.0
C325 C 0.73377 0.3814 0.50847 0.0
O326 O 0.74167 0.37583 0.4824 0.0
O327 O 0.75423 0.38056 0.46061 0.0
O328 O 0.66772 0.29543 0.45185 0.0
O329 O 0.64904 0.28146 0.47298 0.0
O330 O 0.70416 0.36122 0.51603 0.0
O331 O 0.72967 0.37701 0.49564 0.0
O332 O 0.65243 0.27546 0.48675 0.0
O333 O 0.63647 0.26573 0.50821 0.0
C334 C 0.64052 0.25243 0.49704 0.0
O335 O 0.64834 0.37451 0.47502 0.0
O336 O 0.67185 0.38345 0.45433 0.0
C337 C 0.60959 0.3546 0.49832 0.0
C338 C 0.65186 0.38896 0.46322 0.0
Zn339 Zn 0.67722 0.3576 0.7176 0.0
Zn340 Zn 0.67337 0.36555 0.66618 0.0
Zn341 Zn 0.67494 0.35871 0.69121 0.0
C342 C 0.59535 0.32896 0.67299 0.0
C343 C 0.72175 0.44247 0.67471 0.0
O344 O 0.70565 0.32585 0.69619 0.0
O345 O 0.70927 0.33151 0.71835 0.0
C346 C 0.59662 0.31135 0.70978 0.0
O347 O 0.61183 0.33501 0.68464 0.0
O348 O 0.61623 0.33725 0.66252 0.0
O349 O 0.70364 0.42426 0.66408 0.0
O350 O 0.71444 0.42289 0.68569 0.0
O351 O 0.61892 0.32243 0.71999 0.0
O352 O 0.61199 0.32358 0.69808 0.0
O353 O 0.70592 0.42139 0.69962 0.0
O354 O 0.7027 0.41614 0.72167 0.0
C355 C 0.71256 0.43785 0.71145 0.0
O356 O 0.70101 0.32424 0.68216 0.0
O357 O 0.7016 0.33809 0.66079 0.0
C358 C 0.71706 0.31955 0.70748 0.0
C359 C 0.70944 0.32104 0.66982 0.0
Zn360 Zn 0.69313 0.36104 0.22696 0.0
Zn361 Zn 0.70788 0.32001 0.18573 0.0
Zn362 Zn 0.69981 0.35073 0.20362 0.0
C363 C 0.68455 0.37353 0.17661 0.0
C364 C 0.62911 0.28156 0.18849 0.0
O365 O 0.69412 0.29763 0.21178 0.0
O366 O 0.68309 0.30699 0.2328 0.0
C367 C 0.76733 0.42658 0.21856 0.0
O368 O 0.66723 0.36186 0.18812 0.0
O369 O 0.70906 0.36289 0.17307 0.0
O370 O 0.65355 0.26935 0.18809 0.0
O371 O 0.64185 0.31799 0.19274 0.0
O372 O 0.74738 0.41062 0.22906 0.0
O373 O 0.75381 0.40902 0.20714 0.0
O374 O 0.64641 0.35487 0.20186 0.0
O375 O 0.64703 0.36853 0.22355 0.0
C376 C 0.63162 0.36376 0.21205 0.0
O377 O 0.75958 0.38595 0.19493 0.0
O378 O 0.76093 0.33045 0.19241 0.0
C379 C 0.68651 0.28537 0.22379 0.0
C380 C 0.77919 0.36855 0.19195 0.0
Zn381 Zn 0.67056 0.34903 1.00225 0.0
Zn382 Zn 0.66894 0.33142 0.95107 0.0
Zn383 Zn 0.66837 0.34064 0.97715 0.0
C384 C 0.63161 0.25481 0.96151 0.0
C385 C 0.74828 0.38043 0.95874 0.0
O386 O 0.64396 0.38013 0.98206 0.0
O387 O 0.64389 0.37952 0.00422 0.0
C388 C 0.62283 0.26786 0.99831 0.0
O389 O 0.63714 0.27533 0.97247 0.0
O390 O 0.64346 0.27231 0.95045 0.0
O391 O 0.72717 0.36576 0.94831 0.0
O392 O 0.73156 0.37244 0.97039 0.0
O393 O 0.64007 0.29278 0.00784 0.0
O394 O 0.62942 0.27989 0.98609 0.0
O395 O 0.73109 0.36672 0.98442 0.0
O396 O 0.72764 0.37827 0.00605 0.0
C397 C 0.74794 0.37929 0.99601 0.0
O398 O 0.6367 0.36877 0.96833 0.0
O399 O 0.63557 0.35379 0.94675 0.0
C400 C 0.63658 0.39103 0.99351 0.0
C401 C 0.62555 0.36896 0.95622 0.0
Zn402 Zn 0.3341 0.67816 0.84412 0.0
Zn403 Zn 0.34971 0.69549 0.7968 0.0
Zn404 Zn 0.34317 0.68828 0.81963 0.0
C405 C 0.41712 0.70013 0.80381 0.0
C406 C 0.28524 0.62316 0.79881 0.0
O407 O 0.30914 0.71714 0.8268 0.0
O408 O 0.30734 0.7076 0.84861 0.0
C409 C 0.41567 0.72123 0.8405 0.0
O410 O 0.40679 0.71219 0.81441 0.0
O411 O 0.39242 0.68332 0.79435 0.0
O412 O 0.29523 0.65299 0.79149 0.0
O413 O 0.30463 0.62849 0.80978 0.0
O414 O 0.39012 0.70378 0.84959 0.0
O415 O 0.40433 0.71904 0.82827 0.0
O416 O 0.31148 0.62212 0.8232 0.0
O417 O 0.30225 0.6194 0.84512 0.0
C418 C 0.29878 0.6016 0.83402 0.0
O419 O 0.32434 0.73091 0.81385 0.0
O420 O 0.36417 0.75236 0.79635 0.0
C421 C 0.2985 0.72114 0.83874 0.0
C422 C 0.34243 0.75719 0.80468 0.0
Zn423 Zn 0.33763 0.68581 0.05975 0.0
Zn424 Zn 0.34313 0.69714 0.00836 0.0
Zn425 Zn 0.33983 0.68889 0.03332 0.0
C426 C 0.26453 0.66484 0.01374 0.0
C427 C 0.39438 0.77247 0.01738 0.0
O428 O 0.36151 0.64844 0.03886 0.0
O429 O 0.35893 0.6496 0.06104 0.0
C430 C 0.25927 0.65327 0.05089 0.0
O431 O 0.27921 0.6709 0.02567 0.0
O432 O 0.28656 0.67117 0.00366 0.0
O433 O 0.37577 0.75583 0.00666 0.0
O434 O 0.38529 0.75204 0.02822 0.0
O435 O 0.27933 0.66139 0.06155 0.0
O436 O 0.27696 0.66229 0.03942 0.0
O437 O 0.37673 0.75081 0.04219 0.0
O438 O 0.37238 0.74383 0.06418 0.0
C439 C 0.38512 0.76639 0.05416 0.0
O440 O 0.35886 0.64794 0.02467 0.0
O441 O 0.36944 0.66699 0.00359 0.0
C442 C 0.36701 0.63731 0.0503 0.0
C443 C 0.37003 0.64527 0.01267 0.0
Zn444 Zn 0.37365 0.73022 0.55117 0.0
Zn445 Zn 0.36668 0.71808 0.50115 0.0
Zn446 Zn 0.36835 0.72072 0.5256 0.0
C447 C 0.39449 0.79561 0.5054 0.0
C448 C 0.28932 0.66868 0.50793 0.0
O449 O 0.40955 0.70174 0.5329 0.0
O450 O 0.41577 0.71794 0.55447 0.0
C451 C 0.39428 0.80424 0.54227 0.0
O452 O 0.38342 0.7801 0.51712 0.0
O453 O 0.39632 0.77474 0.49585 0.0
O454 O 0.30879 0.68958 0.49807 0.0
O455 O 0.30687 0.67415 0.51931 0.0
O456 O 0.38675 0.78642 0.55329 0.0
O457 O 0.38955 0.78448 0.53117 0.0
O458 O 0.30801 0.67869 0.53351 0.0
O459 O 0.31887 0.68709 0.55534 0.0
C460 C 0.2953 0.66957 0.54563 0.0
O461 O 0.41115 0.7028 0.51861 0.0
O462 O 0.39238 0.68673 0.49749 0.0
C463 C 0.42418 0.70287 0.54454 0.0
C464 C 0.41379 0.68846 0.50711 0.0
Zn465 Zn 0.33565 0.65753 0.28841 0.0
Zn466 Zn 0.33466 0.65787 0.33887 0.0
Zn467 Zn 0.3338 0.65841 0.31427 0.0
C468 C 0.41206 0.6914 0.33337 0.0
C469 C 0.28539 0.57961 0.33284 0.0
O470 O 0.31253 0.69834 0.3073 0.0
O471 O 0.31919 0.69675 0.28528 0.0
C472 C 0.41353 0.68804 0.29613 0.0
O473 O 0.39538 0.67935 0.32174 0.0
O474 O 0.39156 0.68998 0.3434 0.0
O475 O 0.30737 0.60008 0.34256 0.0
O476 O 0.28987 0.59632 0.32139 0.0
O477 O 0.39265 0.67664 0.2856 0.0
O478 O 0.39664 0.68343 0.30768 0.0
O479 O 0.29574 0.59494 0.30715 0.0
O480 O 0.2969 0.59992 0.28513 0.0
C481 C 0.28517 0.5783 0.29538 0.0
O482 O 0.31305 0.69918 0.3214 0.0
O483 O 0.30333 0.68329 0.34274 0.0
C484 C 0.30979 0.70976 0.29553 0.0
C485 C 0.30106 0.70265 0.33317 0.0
C486 C 0.2071 0.17741 0.2184 0.0
C487 C 0.23411 0.218 0.21561 0.0
C488 C 0.18039 0.15102 0.20857 0.0
C489 C 0.18044 0.16568 0.1957 0.0
C490 C 0.20887 0.20613 0.19263 0.0
C491 C 0.23547 0.2318 0.20262 0.0
C492 C 0.15076 0.10795 0.2122 0.0
C493 C 0.20973 0.22293 0.17905 0.0
C494 C 0.11596 0.0862 0.16933 0.0
C495 C 0.07973 0.0848 0.17114 0.0
C496 C 0.14991 0.11373 0.17682 0.0
C497 C 0.14724 0.14027 0.18623 0.0
C498 C 0.11127 0.14041 0.18745 0.0
C499 C 0.07798 0.11259 0.17993 0.0
C500 C 0.18781 0.11286 0.17518 0.0
C501 C 0.10723 0.16854 0.19722 0.0
H502 H 0.20622 0.16637 0.22836 0.0
H503 H 0.25645 0.26308 0.20035 0.0
H504 H 0.12032 0.10329 0.21264 0.0
H505 H 0.15047 0.08684 0.20442 0.0
H506 H 0.1575 0.1001 0.22207 0.0
H507 H 0.2369 0.25305 0.17765 0.0
H508 H 0.20836 0.20219 0.17092 0.0
H509 H 0.18317 0.22586 0.17797 0.0
H510 H 0.11717 0.06437 0.16265 0.0
H511 H 0.05003 0.11177 0.18124 0.0
H512 H 0.19297 0.10042 0.18432 0.0
H513 H 0.21383 0.14382 0.17403 0.0
H514 H 0.18649 0.09404 0.16638 0.0
H515 H 0.10957 0.1606 0.20764 0.0
H516 H 0.07828 0.16704 0.19615 0.0
H517 H 0.13172 0.20011 0.19573 0.0
C518 C 0.78246 0.01842 0.21405 0.0
C519 C 0.79797 0.00636 0.22435 0.0
C520 C 0.79783 0.02391 0.20092 0.0
C521 C 0.82855 0.01591 0.19794 0.0
C522 C 0.84448 0.00407 0.20836 0.0
C523 C 0.82933 -8e-05 0.22143 0.0
C524 C 0.78063 0.03754 0.19026 0.0
C525 C 0.87697 0.99474 0.20565 0.0
C526 C 0.8459 0.97669 0.16537 0.0
C527 C 0.88482 0.00772 0.16245 0.0
C528 C 0.82462 0.98063 0.1761 0.0
C529 C 0.8426 0.01679 0.1839 0.0
C530 C 0.87882 0.05052 0.17946 0.0
C531 C 0.89973 0.04556 0.16873 0.0
C532 C 0.78577 0.94404 0.18024 0.0
C533 C 0.89805 0.09027 0.18707 0.0
H534 H 0.75852 0.02397 0.21627 0.0
H535 H 0.84147 0.99068 0.22934 0.0
H536 H 0.80431 0.05921 0.18347 0.0
H537 H 0.759 0.01111 0.18408 0.0
H538 H 0.7647 0.05187 0.19472 0.0
H539 H 0.88616 0.98604 0.21485 0.0
H540 H 0.86648 0.96969 0.19814 0.0
H541 H 0.90359 0.0214 0.2014 0.0
H542 H 0.8343 0.94745 0.16044 0.0
H543 H 0.92982 0.06968 0.16648 0.0
H544 H 0.76373 0.95248 0.18334 0.0
H545 H 0.79118 0.93031 0.18898 0.0
H546 H 0.77268 0.92094 0.17203 0.0
H547 H 0.87526 0.09702 0.1908 0.0
H548 H 0.91984 0.11538 0.18072 0.0
H549 H 0.91419 0.08873 0.19588 0.0
C550 C 0.06441 0.84296 0.20119 0.0
C551 C 0.0592 0.80437 0.20055 0.0
C552 C 0.05042 0.85654 0.19091 0.0
C553 C 0.03074 0.83094 0.17965 0.0
C554 C 0.02804 0.79317 0.17846 0.0
C555 C 0.04224 0.78028 0.18894 0.0
C556 C 0.05449 0.89737 0.19253 0.0
C557 C 0.00791 0.76524 0.16656 0.0
C558 C 0.95534 0.85562 0.16769 0.0
C559 C 0.97804 0.88535 0.15837 0.0
C560 C 0.97034 0.8337 0.17359 0.0
C561 C 0.00919 0.8423 0.17018 0.0
C562 C 0.02977 0.86837 0.15944 0.0
C563 C 0.01379 0.88963 0.1536 0.0
C564 C 0.94682 0.80542 0.18475 0.0
C565 C 0.07081 0.87774 0.15526 0.0
H566 H 0.07783 0.86197 0.21004 0.0
H567 H 0.0383 0.75047 0.18828 0.0
H568 H 0.06784 0.91529 0.18339 0.0
H569 H 0.02451 0.89346 0.19388 0.0
H570 H 0.07326 0.91482 0.2013 0.0
H571 H 0.01612 0.74181 0.16561 0.0
H572 H 0.97508 0.74985 0.1678 0.0
H573 H 0.01575 0.78222 0.15711 0.0
H574 H 0.92783 0.85266 0.17142 0.0
H575 H 0.03159 0.9131 0.14651 0.0
H576 H 0.96003 0.82032 0.19456 0.0
H577 H 0.94808 0.77752 0.18396 0.0
H578 H 0.91505 0.79702 0.18466 0.0
H579 H 0.09322 0.90036 0.16238 0.0
H580 H 0.07848 0.89041 0.14504 0.0
H581 H 0.07309 0.85041 0.15548 0.0
C582 C 0.21174 0.16878 0.29 0.0
C583 C 0.24588 0.20604 0.28726 0.0
C584 C 0.1948 0.16033 0.30284 0.0
C585 C 0.2126 0.1898 0.3133 0.0
C586 C 0.24911 0.22602 0.31092 0.0
C587 C 0.26526 0.23384 0.29789 0.0
C588 C 0.15611 0.12088 0.3049 0.0
C589 C 0.26987 0.25779 0.32181 0.0
C590 C 0.12656 0.17388 0.3344 0.0
C591 C 0.12272 0.14332 0.3426 0.0
C592 C 0.15981 0.19458 0.32602 0.0
C593 C 0.18949 0.18405 0.32589 0.0
C594 C 0.18915 0.15877 0.33597 0.0
C595 C 0.15549 0.13855 0.3443 0.0
C596 C 0.15969 0.22263 0.31582 0.0
C597 C 0.22124 0.14839 0.33666 0.0
H598 H 0.19692 0.14688 0.28191 0.0
H599 H 0.29191 0.26265 0.29592 0.0
H600 H 0.15865 0.1051 0.31361 0.0
H601 H 0.13172 0.12681 0.30709 0.0
H602 H 0.14747 0.10037 0.29597 0.0
H603 H 0.30258 0.27578 0.32003 0.0
H604 H 0.25854 0.27875 0.32178 0.0
H605 H 0.26434 0.24438 0.33188 0.0
H606 H 0.10118 0.17762 0.33318 0.0
H607 H 0.15254 0.11488 0.35067 0.0
H608 H 0.15024 0.20666 0.30594 0.0
H609 H 0.19001 0.24941 0.31464 0.0
H610 H 0.13882 0.23293 0.31868 0.0
H611 H 0.21446 0.12367 0.32931 0.0
H612 H 0.22274 0.13796 0.34679 0.0
H613 H 0.25085 0.17468 0.33409 0.0
C614 C 0.80979 0.01094 0.29614 0.0
C615 C 0.76928 0.99798 0.29752 0.0
C616 C 0.83204 0.01102 0.30707 0.0
C617 C 0.8133 0.99756 0.31971 0.0
C618 C 0.77234 0.98412 0.32116 0.0
C619 C 0.75083 0.98464 0.31006 0.0
C620 C 0.8758 0.02581 0.30508 0.0
C621 C 0.75132 0.96935 0.33443 0.0
C622 C 0.87797 0.97452 0.3408 0.0
C623 C 0.90342 0.01261 0.34661 0.0
C624 C 0.84486 0.96726 0.33318 0.0
C625 C 0.83757 -0.00096 0.33133 0.0
C626 C 0.86001 0.03562 0.33875 0.0
C627 C 0.89281 0.04197 0.3463 0.0
C628 C 0.82116 0.9275 0.32568 0.0
C629 C 0.85301 0.07014 0.33728 0.0
H630 H 0.82425 0.02121 0.2865 0.0
H631 H 0.71943 0.97428 0.3112 0.0
H632 H 0.8941 0.05209 0.31187 0.0
H633 H 0.88187 0.00182 0.30767 0.0
H634 H 0.88571 0.03491 0.2946 0.0
H635 H 0.71891 0.95812 0.33374 0.0
H636 H 0.75514 0.94473 0.33806 0.0
H637 H 0.76481 0.99413 0.34207 0.0
H638 H 0.88666 0.95212 0.34074 0.0
H639 H 0.91279 0.07158 0.35072 0.0
H640 H 0.83192 0.93109 0.31517 0.0
H641 H 0.78902 0.91748 0.32541 0.0
H642 H 0.82456 0.90362 0.33027 0.0
H643 H 0.86614 0.0853 0.32766 0.0
H644 H 0.86708 0.09283 0.34557 0.0
H645 H 0.82067 0.05922 0.33703 0.0
C646 C 0.06017 0.86011 0.27724 0.0
C647 C 0.04594 0.81909 0.27903 0.0
C648 C 0.05806 0.88402 0.28762 0.0
C649 C 0.04077 0.86639 0.30006 0.0
C650 C 0.02709 0.82519 0.30204 0.0
C651 C 0.03006 0.80207 0.29151 0.0
C652 C 0.07335 0.92795 0.28515 0.0
C653 C 0.00811 0.80524 0.3151 0.0
C654 C 0.05712 0.94029 0.32869 0.0
C655 C 0.0235 0.94381 0.32729 0.0
C656 C 0.06257 0.91384 0.32027 0.0
C657 C 0.03345 0.89024 0.31038 0.0
C658 C -0.00165 0.892 0.30955 0.0
C659 C 0.99395 0.91891 0.31795 0.0
C660 C 0.10045 0.91289 0.32145 0.0
C661 C 0.96622 0.86692 0.29932 0.0
H662 H 0.073 0.87364 0.26769 0.0
H663 H 0.01915 0.77041 0.29299 0.0
H664 H 0.04805 0.9332 0.28527 0.0
H665 H 0.09422 0.94712 0.29325 0.0
H666 H 0.08896 0.93783 0.27536 0.0
H667 H 0.00207 0.77395 0.31545 0.0
H668 H 0.02763 0.82296 0.32367 0.0
H669 H 0.97949 0.80433 0.31646 0.0
H670 H 0.0801 0.95966 0.33586 0.0
H671 H 0.96763 0.92118 0.31696 0.0
H672 H 0.11987 0.92791 0.31269 0.0
H673 H 0.09376 0.88137 0.32137 0.0
H674 H 0.11729 0.92855 0.33075 0.0
H675 H 0.97788 0.8773 0.28909 0.0
H676 H 0.93918 0.86899 0.30084 0.0
H677 H 0.95745 0.8348 0.2998 0.0
C678 C 0.83215 0.87102 0.78531 0.0
C679 C 0.79906 0.83229 0.78339 0.0
C680 C 0.85123 0.88341 0.79782 0.0
C681 C 0.8356 0.85694 0.8088 0.0
C682 C 0.80084 0.81841 0.80702 0.0
C683 C 0.78354 0.80614 0.79422 0.0
C684 C 0.88881 0.92441 0.79916 0.0
C685 C 0.7821 0.78994 0.81853 0.0
C686 C 0.91718 0.88122 0.83353 0.0
C687 C 0.91757 0.91239 0.84112 0.0
C688 C 0.88818 0.85994 0.82364 0.0
C689 C 0.85796 0.869 0.82171 0.0
C690 C 0.8545 0.89564 0.83084 0.0
C691 C 0.8848 0.91757 0.84038 0.0
C692 C 0.89319 0.83184 0.81417 0.0
C693 C 0.82122 0.90417 0.82966 0.0
H694 H 0.8438 0.89116 0.7769 0.0
H695 H 0.75735 0.77638 0.79272 0.0
H696 H 0.88455 0.94309 0.80682 0.0
H697 H 0.91383 0.92111 0.80258 0.0
H698 H 0.89751 0.94081 0.78956 0.0
H699 H 0.7503 0.76701 0.81647 0.0
H700 H 0.79823 0.77382 0.82009 0.0
H701 H 0.78392 0.80652 0.82799 0.0
H702 H 0.94213 0.87658 0.83425 0.0
H703 H 0.88473 0.94143 0.84622 0.0
H704 H 0.90349 0.84623 0.80428 0.0
H705 H 0.86438 0.80329 0.81257 0.0
H706 H 0.91532 0.82461 0.81793 0.0
H707 H 0.82856 0.92634 0.82166 0.0
H708 H 0.81694 0.91697 0.83918 0.0
H709 H 0.79274 0.87632 0.82689 0.0
C710 C 0.22945 0.00149 0.7915 0.0
C711 C 0.2031 0.98868 0.78058 0.0
C712 C 0.21709 0.00553 0.80442 0.0
C713 C 0.17812 0.99853 0.80628 0.0
C714 C 0.15132 0.98509 0.79525 0.0
C715 C 0.16393 0.97949 0.78259 0.0
C716 C 0.24611 0.01812 0.81594 0.0
C717 C 0.10975 0.97812 0.79668 0.0
C718 C 0.11863 0.9857 0.83779 0.0
C719 C 0.12155 0.02325 0.8385 0.0
C720 C 0.14116 0.97834 0.8283 0.0
C721 C 0.16607 0.00898 0.81925 0.0
C722 C 0.17298 0.04835 0.82125 0.0
C723 C 0.15096 0.05508 0.831 0.0
C724 C 0.13496 0.93664 0.82704 0.0
C725 C 0.19941 0.08209 0.81193 0.0
H726 H 0.25959 0.00778 0.78996 0.0
H727 H 0.14362 0.96934 0.77412 0.0
H728 H 0.2619 0.05132 0.81739 0.0
H729 H 0.23057 0.00413 0.82544 0.0
H730 H 0.26893 0.0098 0.81388 0.0
H731 H 0.09282 0.96803 0.7871 0.0
H732 H 0.09279 0.95499 0.80431 0.0
H733 H 0.11146 0.00638 0.80019 0.0
H734 H 0.09581 0.96094 0.8435 0.0
H735 H 0.15337 0.08425 0.83166 0.0
H736 H 0.16331 0.93812 0.82439 0.0
H737 H 0.11314 0.91947 0.81891 0.0
H738 H 0.12316 0.91982 0.83649 0.0
H739 H 0.22852 0.08418 0.81054 0.0
H740 H 0.20493 0.11175 0.81572 0.0
H741 H 0.18494 0.07579 0.80194 0.0
C742 C 0.04047 0.2067 0.77898 0.0
C743 C 0.02075 0.22815 0.7783 0.0
C744 C 0.03856 0.186 0.79057 0.0
C745 C 0.01743 0.18781 0.80195 0.0
C746 C -0.00114 0.2109 0.80151 0.0
C747 C 0.00013 0.23023 0.78959 0.0
C748 C 0.05787 0.16086 0.79044 0.0
C749 C 0.97722 0.21469 0.81356 0.0
C750 C 0.97465 0.09416 0.82264 0.0
C751 C 0.00531 0.10456 0.83195 0.0
C752 C 0.97722 0.12178 0.81333 0.0
C753 C 0.01081 0.1614 0.81352 0.0
C754 C 0.03992 0.1734 0.82377 0.0
C755 C 0.03703 0.14463 0.83283 0.0
C756 C 0.94565 0.10728 0.80253 0.0
C757 C 0.07541 0.21581 0.82465 0.0
H758 H 0.05658 0.20521 0.77028 0.0
H759 H 0.98555 0.24753 0.78918 0.0
H760 H 0.07915 0.1701 0.7989 0.0
H761 H 0.03471 0.12866 0.79176 0.0
H762 H 0.07412 0.16357 0.78094 0.0
H763 H 0.96911 0.23794 0.81222 0.0
H764 H 0.94949 0.1854 0.81533 0.0
H765 H 0.99601 0.22253 0.82268 0.0
H766 H 0.94959 0.06339 0.82204 0.0
H767 H 0.0607 0.15296 0.84003 0.0
H768 H 0.95896 0.10699 0.79267 0.0
H769 H 0.93418 0.12799 0.80182 0.0
H770 H 0.92005 0.07644 0.80437 0.0
H771 H 0.09745 0.21968 0.81683 0.0
H772 H 0.09032 0.22257 0.83459 0.0
H773 H 0.06635 0.23808 0.82281 0.0
C774 C 0.78068 0.84322 0.70818 0.0
C775 C 0.80569 0.85248 0.71937 0.0
C776 C 0.79585 0.86282 0.69593 0.0
C777 C 0.83697 0.89216 0.69486 0.0
C778 C 0.86181 0.90299 0.70632 0.0
C779 C 0.84588 0.88307 0.71839 0.0
C780 C 0.76829 0.85068 0.68402 0.0
C781 C 0.90582 0.93434 0.7057 0.0
C782 C 0.90286 0.91279 0.66478 0.0
C783 C 0.91435 0.95272 0.66228 0.0
C784 C 0.87347 0.89047 0.67432 0.0
C785 C 0.85568 0.90891 0.68164 0.0
C786 C 0.86349 0.94737 0.67785 0.0
C787 C 0.89296 0.96898 0.66816 0.0
C788 C 0.86557 0.84928 0.67779 0.0
C789 C 0.84449 0.96774 0.68515 0.0
H790 H 0.7495 0.81973 0.70884 0.0
H791 H 0.86536 0.89077 0.727 0.0
H792 H 0.77455 0.87742 0.67824 0.0
H793 H 0.77318 0.83057 0.67721 0.0
H794 H 0.73643 0.83429 0.6871 0.0
H795 H 0.92042 0.94105 0.71569 0.0
H796 H 0.92105 0.92357 0.69884 0.0
H797 H 0.91033 0.96279 0.70165 0.0
H798 H 0.91972 0.90044 0.66026 0.0
H799 H 0.90222 9e-05 0.66631 0.0
H800 H 0.83328 0.82803 0.67947 0.0
H801 H 0.88148 0.85162 0.68722 0.0
H802 H 0.87609 0.83653 0.66978 0.0
H803 H 0.81291 0.94574 0.68765 0.0
H804 H 0.84579 0.99209 0.67911 0.0
H805 H 0.86072 0.98139 0.69469 0.0
C806 C 0.19717 0.95747 0.70552 0.0
C807 C 0.19268 0.98014 0.71585 0.0
C808 C 0.17868 0.95183 0.69297 0.0
C809 C 0.15538 0.96944 0.69074 0.0
C810 C 0.14904 0.9904 0.7014 0.0
C811 C 0.16773 0.99545 0.71378 0.0
C812 C 0.18587 0.92888 0.68198 0.0
C813 C 0.12398 0.0093 0.69958 0.0
C814 C 0.14372 0.01402 0.65959 0.0
C815 C 0.10242 0.98994 0.65776 0.0
C816 C 0.16313 0.0043 0.66917 0.0
C817 C 0.14039 0.96991 0.67712 0.0
C818 C 0.10002 0.94218 0.67371 0.0
C819 C 0.08133 0.95267 0.66405 0.0
C820 C 0.20654 0.03414 0.67216 0.0
C821 C 0.07506 0.90439 0.68157 0.0
H822 H 0.21634 0.9454 0.70705 0.0
H823 H 0.16368 0.01255 0.72175 0.0
H824 H 0.15907 0.9112 0.67556 0.0
H825 H 0.21059 0.95055 0.6755 0.0
H826 H 0.19448 0.90812 0.68614 0.0
H827 H 0.12041 0.02278 0.70906 0.0
H828 H 0.13809 0.03334 0.69204 0.0
H829 H 0.0939 0.98641 0.69579 0.0
H830 H 0.15994 0.04296 0.65475 0.0
H831 H 0.04923 0.93426 0.66278 0.0
H832 H 0.22264 0.01837 0.67437 0.0
H833 H 0.20879 0.05269 0.68115 0.0
H834 H 0.22157 0.05469 0.66367 0.0
H835 H 0.09279 0.89087 0.68449 0.0
H836 H 0.04858 0.88167 0.67572 0.0
H837 H 0.06435 0.912 0.69089 0.0
C838 C 0.05742 0.26741 0.70576 0.0
C839 C 0.03537 0.23704 0.71506 0.0
C840 C 0.06902 0.2585 0.69335 0.0
C841 C 0.058 0.21825 0.69017 0.0
C842 C 0.03654 0.18773 0.69969 0.0
C843 C 0.02558 0.19753 0.71197 0.0
C844 C 0.09186 0.29195 0.68356 0.0
C845 C 0.02432 0.14433 0.69681 0.0
C846 C 0.03692 0.16248 0.65735 0.0
C847 C 0.06589 0.15169 0.65776 0.0
C848 C 0.03719 0.18994 0.66686 0.0
C849 C 0.06719 0.20661 0.67687 0.0
C850 C 0.10041 0.20155 0.67562 0.0
C851 C 0.09931 0.17387 0.66602 0.0
C852 C 0.00195 0.19569 0.66749 0.0
C853 C 0.1339 0.22009 0.68573 0.0
H854 H 0.06511 0.29809 0.70805 0.0
H855 H 0.00876 0.17391 0.7191 0.0
H856 H 0.11464 0.28826 0.67808 0.0
H857 H 0.07083 0.29119 0.67604 0.0
H858 H 0.10683 0.32204 0.68867 0.0
H859 H 0.0084 0.12449 0.70538 0.0
H860 H 0.00444 0.13255 0.68791 0.0
H861 H 0.05102 0.1423 0.6945 0.0
H862 H 0.011 0.14519 0.65095 0.0
H863 H 0.12175 0.16546 0.66632 0.0
H864 H 0.01144 0.22714 0.67049 0.0
H865 H 0.98054 0.17547 0.67514 0.0
H866 H 0.98618 0.18831 0.6577 0.0
H867 H 0.1412 0.25086 0.68883 0.0
H868 H 0.1612 0.22164 0.68167 0.0
H869 H 0.1245 0.20132 0.69481 0.0
C870 C 0.85113 0.54716 0.5608 0.0
C871 C 0.89168 0.56174 0.563 0.0
C872 C 0.83096 0.52139 0.54983 0.0
C873 C 0.85173 0.50955 0.54091 0.0
C874 C 0.89317 0.52602 0.54262 0.0
C875 C 0.9127 0.55207 0.55361 0.0
C876 C 0.78683 0.50501 0.54822 0.0
C877 C 0.91637 0.51414 0.53337 0.0
C878 C 0.7821 0.40449 0.52716 0.0
C879 C 0.77147 0.41238 0.51476 0.0
C880 C 0.81085 0.4358 0.53529 0.0
C881 C 0.82879 0.47608 0.53102 0.0
C882 C 0.82063 0.48387 0.518 0.0
C883 C 0.79214 0.45169 0.50992 0.0
C884 C 0.81947 0.42596 0.54894 0.0
C885 C 0.83919 0.52633 0.51305 0.0
H886 H 0.83479 0.55485 0.5679 0.0
H887 H 0.94414 0.56334 0.55517 0.0
H888 H 0.77996 0.50826 0.53773 0.0
H889 H 0.7699 0.47236 0.55043 0.0
H890 H 0.7761 0.52051 0.55504 0.0
H891 H 0.94911 0.53422 0.53472 0.0
H892 H 0.90825 0.48281 0.53546 0.0
H893 H 0.90879 0.51478 0.52273 0.0
H894 H 0.76621 0.37396 0.53084 0.0
H895 H 0.78367 0.45778 0.50035 0.0
H896 H 0.80611 0.4361 0.55681 0.0
H897 H 0.85209 0.4421 0.55079 0.0
H898 H 0.80705 0.39311 0.55002 0.0
H899 H 0.82417 0.541 0.51793 0.0
H900 H 0.83605 0.52686 0.50201 0.0
H901 H 0.8713 0.54453 0.51571 0.0
C902 C 0.47212 0.39644 0.54514 0.0
C903 C 0.48478 0.38609 0.55668 0.0
C904 C 0.48832 0.39638 0.53246 0.0
C905 C 0.51726 0.385 0.53129 0.0
C906 C 0.52948 0.37379 0.54291 0.0
C907 C 0.51344 0.37494 0.55545 0.0
C908 C 0.47537 0.40968 0.52043 0.0
C909 C 0.55966 0.36059 0.54215 0.0
C910 C 0.5416 0.34027 0.5016 0.0
C911 C 0.58203 0.36943 0.49997 0.0
C912 C 0.51776 0.34682 0.51068 0.0
C913 C 0.53483 0.38373 0.51805 0.0
C914 C 0.57341 0.41568 0.51458 0.0
C915 C 0.59688 0.40798 0.50565 0.0
C916 C 0.47663 0.31198 0.51387 0.0
C917 C 0.59209 0.45618 0.5217 0.0
H918 H 0.4504 0.40572 0.54608 0.0
H919 H 0.52325 0.36687 0.56433 0.0
H920 H 0.50008 0.43974 0.51737 0.0
H921 H 0.46869 0.38862 0.51177 0.0
H922 H 0.44868 0.41191 0.52261 0.0
H923 H 0.56473 0.35136 0.55203 0.0
H924 H 0.54943 0.33483 0.53494 0.0
H925 H 0.58861 0.38559 0.53846 0.0
H926 H 0.53021 0.31032 0.49728 0.0
H927 H 0.62829 0.43045 0.50456 0.0
H928 H 0.45544 0.32241 0.51581 0.0
H929 H 0.47819 0.29735 0.52309 0.0
H930 H 0.46474 0.28899 0.5056 0.0
H931 H 0.56966 0.465 0.52368 0.0
H932 H 0.61699 0.47998 0.51576 0.0
H933 H 0.60421 0.45446 0.5315 0.0
C934 C 0.71265 0.16032 0.54102 0.0
C935 C 0.70397 0.12042 0.54069 0.0
C936 C 0.70153 0.17559 0.53041 0.0
C937 C 0.6814 0.15045 0.51911 0.0
C938 C 0.67518 0.11112 0.51826 0.0
C939 C 0.68639 0.0965 0.52909 0.0
C940 C 0.70914 0.21794 0.53172 0.0
C941 C 0.65451 0.08348 0.50635 0.0
C942 C 0.61453 0.1845 0.50592 0.0
C943 C 0.6407 0.21452 0.49716 0.0
C944 C 0.62535 0.15929 0.51199 0.0
C945 C 0.66322 0.16441 0.50917 0.0
C946 C 0.68661 0.19 0.49867 0.0
C947 C 0.67492 0.21482 0.4927 0.0
C948 C 0.59874 0.13142 0.5228 0.0
C949 C 0.7264 0.19513 0.49496 0.0
H950 H 0.72645 0.17914 0.54987 0.0
H951 H 0.67971 0.06565 0.52867 0.0
H952 H 0.72483 0.23537 0.5227 0.0
H953 H 0.68027 0.21681 0.53246 0.0
H954 H 0.72732 0.23439 0.54071 0.0
H955 H 0.66202 0.05954 0.50538 0.0
H956 H 0.62174 0.0686 0.50767 0.0
H957 H 0.66252 0.10041 0.49688 0.0
H958 H 0.58782 0.18403 0.50927 0.0
H959 H 0.69521 0.23794 0.48588 0.0
H960 H 0.61147 0.14501 0.53279 0.0
H961 H 0.59698 0.10197 0.52201 0.0
H962 H 0.56804 0.12609 0.52228 0.0
H963 H 0.74927 0.21616 0.50228 0.0
H964 H 0.73603 0.20784 0.4848 0.0
H965 H 0.72526 0.16595 0.49527 0.0
C966 C 0.89553 0.55099 0.63234 0.0
C967 C 0.92452 0.59213 0.63284 0.0
C968 C 0.86559 0.53387 0.64211 0.0
C969 C 0.86424 0.55862 0.65257 0.0
C970 C 0.89423 0.59993 0.65342 0.0
C971 C 0.92415 0.61619 0.64355 0.0
C972 C 0.83454 0.48944 0.64094 0.0
C973 C 0.89372 0.62741 0.66431 0.0
C974 C 0.75741 0.50817 0.66346 0.0
C975 C 0.75707 0.48319 0.67342 0.0
C976 C 0.7934 0.53742 0.65768 0.0
C977 C 0.82955 0.54105 0.66188 0.0
C978 C 0.82971 0.52018 0.67331 0.0
C979 C 0.79323 0.49159 0.67908 0.0
C980 C 0.79203 0.56032 0.64589 0.0
C981 C 0.86766 0.52383 0.67831 0.0
H982 H 0.89584 0.5322 0.62416 0.0
H983 H 0.94639 0.64812 0.64397 0.0
H984 H 0.83231 0.47441 0.65051 0.0
H985 H 0.80489 0.48545 0.63892 0.0
H986 H 0.84141 0.47397 0.63276 0.0
H987 H 0.92304 0.65593 0.66528 0.0
H988 H 0.87089 0.63507 0.66185 0.0
H989 H 0.88559 0.61239 0.67414 0.0
H990 H 0.72937 0.50205 0.65923 0.0
H991 H 0.79303 0.47244 0.68686 0.0
H992 H 0.79447 0.54596 0.63644 0.0
H993 H 0.81738 0.59195 0.64622 0.0
H994 H 0.76367 0.56032 0.64561 0.0
H995 H 0.86443 0.51339 0.68878 0.0
H996 H 0.89304 0.55539 0.67785 0.0
H997 H 0.87507 0.50492 0.67182 0.0
C998 C 0.49026 0.38476 0.62686 0.0
C999 C 0.45004 0.37346 0.62736 0.0
C1000 C 0.50698 0.37306 0.63685 0.0
C1001 C 0.48273 0.34883 0.6475 0.0
C1002 C 0.44218 0.33767 0.64814 0.0
C1003 C 0.42638 0.35035 0.63811 0.0
C1004 C 0.55057 0.38616 0.63586 0.0
C1005 C 0.4152 0.31135 0.65917 0.0
C1006 C 0.53069 0.29435 0.66121 0.0
C1007 C 0.55488 0.32165 0.67129 0.0
C1008 C 0.50294 0.30001 0.65436 0.0
C1009 C 0.50011 0.33426 0.65753 0.0
C1010 C 0.52056 0.35864 0.66892 0.0
C1011 C 0.54749 0.35168 0.6758 0.0
C1012 C 0.48063 0.27231 0.64263 0.0
C1013 C 0.51829 0.3953 0.67275 0.0
H1014 H 0.50874 0.40273 0.61863 0.0
H1015 H 0.39514 0.3412 0.63852 0.0
H1016 H 0.56626 0.40176 0.64531 0.0
H1017 H 0.55352 0.35933 0.63445 0.0
H1018 H 0.56579 0.40672 0.62739 0.0
H1019 H 0.38548 0.3085 0.65898 0.0
H1020 H 0.41086 0.28078 0.65806 0.0
H1021 H 0.42904 0.32361 0.66913 0.0
H1022 H 0.53653 0.27116 0.65771 0.0
H1023 H 0.56651 0.37306 0.68351 0.0
H1024 H 0.49591 0.28698 0.63317 0.0
H1025 H 0.4497 0.26623 0.64214 0.0
H1026 H 0.47952 0.24316 0.6432 0.0
H1027 H 0.53752 0.42009 0.66587 0.0
H1028 H 0.52878 0.40584 0.68318 0.0
H1029 H 0.4874 0.38905 0.67176 0.0
C1030 C 0.72629 0.15851 0.62486 0.0
C1031 C 0.69107 0.14562 0.6176 0.0
C1032 C 0.73564 0.18388 0.63626 0.0
C1033 C 0.71004 0.19808 0.64008 0.0
C1034 C 0.6738 0.18401 0.63299 0.0
C1035 C 0.66446 0.15737 0.62199 0.0
C1036 C 0.77361 0.19642 0.64382 0.0
C1037 C 0.64588 0.19889 0.63651 0.0
C1038 C 0.70717 0.2555 0.67078 0.0
C1039 C 0.72336 0.29383 0.66534 0.0
C1040 C 0.70719 0.22424 0.66327 0.0
C1041 C 0.72296 0.23175 0.65008 0.0
C1042 C 0.7444 0.27179 0.64549 0.0
C1043 C 0.74474 0.30244 0.65328 0.0
C1044 C 0.6868 0.18248 0.66891 0.0
C1045 C 0.76246 0.28154 0.63162 0.0
H1046 H 0.74657 0.14876 0.62162 0.0
H1047 H 0.63717 0.14726 0.61641 0.0
H1048 H 0.79869 0.22364 0.63922 0.0
H1049 H 0.77149 0.20357 0.65454 0.0
H1050 H 0.78097 0.17232 0.64324 0.0
H1051 H 0.61868 0.1845 0.63014 0.0
H1052 H 0.63656 0.19272 0.64715 0.0
H1053 H 0.66152 0.23202 0.63527 0.0
H1054 H 0.69115 0.24887 0.68021 0.0
H1055 H 0.75816 0.33244 0.64924 0.0
H1056 H 0.70232 0.16647 0.6657 0.0
H1057 H 0.6557 0.16481 0.66511 0.0
H1058 H 0.68575 0.18347 0.68005 0.0
H1059 H 0.78124 0.26818 0.62982 0.0
H1060 H 0.78105 0.31455 0.63006 0.0
H1061 H 0.73826 0.26835 0.624 0.0
C1062 C 0.46552 0.16263 0.13052 0.0
C1063 C 0.48984 0.16756 0.11937 0.0
C1064 C 0.48214 0.18131 0.14295 0.0
C1065 C 0.52409 0.20492 0.14434 0.0
C1066 C 0.54878 0.21058 0.13307 0.0
C1067 C 0.53133 0.19205 0.1207 0.0
C1068 C 0.45488 0.17534 0.15465 0.0
C1069 C 0.59372 0.23541 0.13415 0.0
C1070 C 0.58017 0.28056 0.17246 0.0
C1071 C 0.59292 0.25935 0.18006 0.0
C1072 C 0.55492 0.26226 0.16134 0.0
C1073 C 0.54263 0.22193 0.15768 0.0
C1074 C 0.55248 0.19933 0.16604 0.0
C1075 C 0.57735 0.21829 0.17717 0.0
C1076 C 0.54456 0.28733 0.15288 0.0
C1077 C 0.53996 0.15624 0.16254 0.0
H1078 H 0.43335 0.14411 0.12955 0.0
H1079 H 0.55028 0.19605 0.11214 0.0
H1080 H 0.4592 0.15839 0.16258 0.0
H1081 H 0.4624 0.20496 0.15912 0.0
H1082 H 0.42292 0.15857 0.15168 0.0
H1083 H 0.60863 0.2375 0.1244 0.0
H1084 H 0.60336 0.26635 0.13785 0.0
H1085 H 0.60412 0.22185 0.14153 0.0
H1086 H 0.59256 0.3124 0.17442 0.0
H1087 H 0.58713 0.20175 0.18302 0.0
H1088 H 0.51321 0.2694 0.14934 0.0
H1089 H 0.56412 0.29755 0.14391 0.0
H1090 H 0.54892 0.31447 0.15849 0.0
H1091 H 0.50769 0.13825 0.1601 0.0
H1092 H 0.54607 0.14154 0.17082 0.0
H1093 H 0.55652 0.15562 0.15351 0.0
C1094 C 0.91056 0.39783 0.12708 0.0
C1095 C 0.88169 0.36184 0.12067 0.0
C1096 C 0.90259 0.41027 0.1395 0.0
C1097 C 0.8648 0.38628 0.14555 0.0
C1098 C 0.83502 0.3509 0.13881 0.0
C1099 C 0.84393 0.33902 0.12651 0.0
C1100 C 0.93513 0.44804 0.14636 0.0
C1101 C 0.794 0.32474 0.14479 0.0
C1102 C 0.83926 0.37203 0.18216 0.0
C1103 C 0.81468 0.38834 0.18324 0.0
C1104 C 0.8605 0.37577 0.17033 0.0
C1105 C 0.85645 0.39579 0.15933 0.0
C1106 C 0.83649 0.41736 0.16113 0.0
C1107 C 0.81615 0.41377 0.1732 0.0
C1108 C 0.88267 0.35356 0.16902 0.0
C1109 C 0.83183 0.43956 0.14976 0.0
H1110 H 0.9399 0.41562 0.12263 0.0
H1111 H 0.82138 0.31143 0.12156 0.0
H1112 H 0.92321 0.46646 0.15059 0.0
H1113 H 0.94728 0.43962 0.15483 0.0
H1114 H 0.96004 0.46682 0.13942 0.0
H1115 H 0.77352 0.29973 0.13787 0.0
H1116 H 0.79641 0.31153 0.15421 0.0
H1117 H 0.7805 0.34315 0.14734 0.0
H1118 H 0.8385 0.35272 0.18999 0.0
H1119 H 0.79732 0.42665 0.174 0.0
H1120 H 0.91086 0.37145 0.16336 0.0
H1121 H 0.86394 0.32474 0.16338 0.0
H1122 H 0.88971 0.34652 0.17898 0.0
H1123 H 0.85931 0.45493 0.14359 0.0
H1124 H 0.82451 0.46221 0.15352 0.0
H1125 H 0.80709 0.4176 0.14315 0.0
C1126 C 0.62152 0.4775 0.12076 0.0
C1127 C 0.6386 0.5185 0.1242 0.0
C1128 C 0.6255 0.45124 0.12923 0.0
C1129 C 0.64777 0.46654 0.14127 0.0
C1130 C 0.66461 0.50778 0.14485 0.0
C1131 C 0.65951 0.5331 0.13635 0.0
C1132 C 0.60644 0.40729 0.12519 0.0
C1133 C 0.6891 0.5255 0.15748 0.0
C1134 C 0.64025 0.399 0.16966 0.0
C1135 C 0.67377 0.39557 0.16727 0.0
C1136 C 0.63037 0.42051 0.16095 0.0
C1137 C 0.65534 0.44017 0.14984 0.0
C1138 C 0.68914 0.43666 0.14738 0.0
C1139 C 0.69769 0.41409 0.15604 0.0
C1140 C 0.59359 0.42272 0.16377 0.0
C1141 C 0.71701 0.45774 0.13582 0.0
H1142 H 0.60516 0.46593 0.11142 0.0
H1143 H 0.673 0.56475 0.13908 0.0
H1144 H 0.62994 0.40001 0.12311 0.0
H1145 H 0.58794 0.38797 0.13353 0.0
H1146 H 0.58741 0.39944 0.11613 0.0
H1147 H 0.69955 0.55799 0.15896 0.0
H1148 H 0.67131 0.50901 0.16636 0.0
H1149 H 0.71554 0.52208 0.15705 0.0
H1150 H 0.62167 0.38489 0.17834 0.0
H1151 H 0.72383 0.41184 0.15418 0.0
H1152 H 0.57471 0.41396 0.15464 0.0
H1153 H 0.60239 0.45416 0.16651 0.0
H1154 H 0.57543 0.40283 0.17207 0.0
H1155 H 0.70023 0.44833 0.12622 0.0
H1156 H 0.74152 0.45129 0.13511 0.0
H1157 H 0.73036 0.49082 0.13701 0.0
C1158 C 0.46538 0.15864 0.04902 0.0
C1159 C 0.44064 0.11667 0.04958 0.0
C1160 C 0.49154 0.17675 0.03821 0.0
C1161 C 0.49349 0.15229 0.02777 0.0
C1162 C 0.46756 0.10997 0.02802 0.0
C1163 C 0.44129 0.09267 0.03889 0.0
C1164 C 0.51827 0.22211 0.03825 0.0
C1165 C 0.46891 0.08281 0.01718 0.0
C1166 C 0.55127 0.21483 0.99796 0.0
C1167 C 0.59027 0.22737 1.00191 0.0
C1168 C 0.51846 0.18712 0.00564 0.0
C1169 C 0.52513 0.17134 0.01733 0.0
C1170 C 0.56411 0.17985 0.02021 0.0
C1171 C 0.5963 0.20814 0.01253 0.0
C1172 C 0.47741 0.17861 1.00212 0.0
C1173 C 0.57252 0.1628 0.03231 0.0
H1174 H 0.46489 0.17737 0.05719 0.0
H1175 H 0.42241 0.06015 0.03925 0.0
H1176 H 0.54983 0.23054 0.0394 0.0
H1177 H 0.51575 0.23412 0.02856 0.0
H1178 H 0.51088 0.23693 0.04651 0.0
H1179 H 0.44308 0.05145 0.01776 0.0
H1180 H 0.46943 0.0945 0.0071 0.0
H1181 H 0.49672 0.0821 0.01824 0.0
H1182 H 0.54663 0.23006 0.98983 0.0
H1183 H 0.62654 0.21799 0.01559 0.0
H1184 H 0.47 0.19729 0.00873 0.0
H1185 H 0.45446 0.14654 0.00375 0.0
H1186 H 0.4758 0.18597 0.99154 0.0
H1187 H 0.57085 0.17858 0.04151 0.0
H1188 H 0.60266 0.16662 0.03184 0.0
H1189 H 0.54995 0.13028 0.03325 0.0
C1190 C 0.82855 0.33718 0.05227 0.0
C1191 C 0.86698 0.34433 0.05431 0.0
C1192 C 0.81745 0.34491 0.0399 0.0
C1193 C 0.84579 0.36101 0.02935 0.0
C1194 C 0.88434 0.36718 0.0312 0.0
C1195 C 0.89441 0.35851 0.04365 0.0
C1196 C 0.77566 0.33705 0.03829 0.0
C1197 C 0.91565 0.38487 0.02036 0.0
C1198 C 0.79099 0.35089 0.99738 0.0
C1199 C 0.78715 0.38474 0.99888 0.0
C1200 C 0.81437 0.34453 0.00641 0.0
C1201 C 0.83495 0.37336 0.01683 0.0
C1202 C 0.83685 0.41084 0.01669 0.0
C1203 C 0.81249 0.41595 0.00776 0.0
C1204 C 0.81212 0.30449 0.00599 0.0
C1205 C 0.85994 0.44323 0.0272 0.0
H1206 H 0.80724 0.32608 0.06045 0.0
H1207 H 0.9244 0.36457 0.0452 0.0
H1208 H 0.77686 0.366 0.03697 0.0
H1209 H 0.76141 0.31798 0.0292 0.0
H1210 H 0.75648 0.3218 0.04709 0.0
H1211 H 0.94049 0.37958 0.02218 0.0
H1212 H 0.90264 0.37217 0.01033 0.0
H1213 H 0.92824 0.4179 0.02013 0.0
H1214 H 0.77129 0.32666 0.99052 0.0
H1215 H 0.80962 0.44225 0.00886 0.0
H1216 H 0.7897 0.28431 0.01342 0.0
H1217 H 0.84119 0.30805 0.00869 0.0
H1218 H 0.80296 0.28963 0.99593 0.0
H1219 H 0.84269 0.43508 0.03671 0.0
H1220 H 0.86529 0.47297 0.0241 0.0
H1221 H 0.88906 0.44603 0.02924 0.0
C1222 C 0.66347 0.50333 0.04985 0.0
C1223 C 0.6526 0.53143 0.05352 0.0
C1224 C 0.65783 0.48766 0.03671 0.0
C1225 C 0.6408 0.50036 0.02694 0.0
C1226 C 0.63155 0.53022 0.03039 0.0
C1227 C 0.63749 0.54535 0.04367 0.0
C1228 C 0.66868 0.45619 0.03347 0.0
C1229 C 0.61358 0.54487 0.02037 0.0
C1230 C 0.65797 0.46234 0.99435 0.0
C1231 C 0.62638 0.42231 0.995 0.0
C1232 C 0.66051 0.49135 0.00367 0.0
C1233 C 0.63043 0.47959 0.01355 0.0
C1234 C 0.59465 0.44171 0.01221 0.0
C1235 C 0.59309 0.41325 1.00289 0.0
C1236 C 0.69827 0.53219 0.00432 0.0
C1237 C 0.56087 0.42869 0.02207 0.0
H1238 H 0.67543 0.49267 0.05736 0.0
H1239 H 0.62895 0.56711 0.0464 0.0
H1240 H 0.6414 0.42712 0.03073 0.0
H1241 H 0.68919 0.46547 0.02475 0.0
H1242 H 0.68329 0.45107 0.04203 0.0
H1243 H 0.62047 0.57584 0.02302 0.0
H1244 H 0.62431 0.5447 0.01003 0.0
H1245 H 0.58066 0.52466 0.02042 0.0
H1246 H 0.68363 0.46942 0.98813 0.0
H1247 H 0.56841 0.38229 1.00325 0.0
H1248 H 0.71894 0.53166 0.01172 0.0
H1249 H 0.69195 0.55587 0.00763 0.0
H1250 H 0.71356 0.54028 0.99444 0.0
H1251 H 0.56855 0.4196 0.03151 0.0
H1252 H 0.53265 0.40261 0.0181 0.0
H1253 H 0.55594 0.45383 0.02455 0.0
C1254 C 0.58517 0.88276 0.88845 0.0
C1255 C 0.55881 0.88619 0.8973 0.0
C1256 C 0.57153 0.86036 0.87638 0.0
C1257 C 0.53041 0.84011 0.87327 0.0
C1258 C 0.50399 0.84499 0.88189 0.0
C1259 C 0.51862 0.86831 0.89373 0.0
C1260 C 0.60091 0.85698 0.86734 0.0
C1261 C 0.4598 0.8238 0.87897 0.0
C1262 C 0.47574 0.78979 0.84113 0.0
C1263 C 0.45692 0.74941 0.84486 0.0
C1264 C 0.50422 0.82049 0.84963 0.0
C1265 C 0.51357 0.81007 0.862 0.0
C1266 C 0.49929 0.7691 0.86463 0.0
C1267 C 0.47114 0.73918 0.85597 0.0
C1268 C 0.52033 0.86387 0.84615 0.0
C1269 C 0.50923 0.75654 0.87752 0.0
H1270 H 0.61649 0.89707 0.89105 0.0
H1271 H 0.4982 0.87101 0.9005 0.0
H1272 H 0.60014 0.82861 0.86942 0.0
H1273 H 0.59329 0.8561 0.85661 0.0
H1274 H 0.63188 0.88248 0.86909 0.0
H1275 H 0.44366 0.83216 0.88635 0.0
H1276 H 0.45473 0.83123 0.8688 0.0
H1277 H 0.44664 0.79066 0.87918 0.0
H1278 H 0.46486 0.79775 0.83249 0.0
H1279 H 0.45678 0.70781 0.85874 0.0
H1280 H 0.55179 0.88327 0.84946 0.0
H1281 H 0.50246 0.87485 0.85138 0.0
H1282 H 0.51855 0.86723 0.83519 0.0
H1283 H 0.54157 0.77539 0.87975 0.0
H1284 H 0.50067 0.72437 0.87712 0.0
H1285 H 0.49291 0.76087 0.88595 0.0
C1286 C 0.16624 0.68123 0.89248 0.0
C1287 C 0.14004 0.69497 0.89511 0.0
C1288 C 0.18806 0.69059 0.88048 0.0
C1289 C 0.18406 0.71485 0.87094 0.0
C1290 C 0.15677 0.72787 0.87336 0.0
C1291 C 0.13494 0.71762 0.8854 0.0
C1292 C 0.21636 0.67543 0.87822 0.0
C1293 C 0.15191 0.75414 0.86359 0.0
C1294 C 0.27955 0.76353 0.85146 0.0
C1295 C 0.26987 0.73411 0.84138 0.0
C1296 C 0.25014 0.76104 0.86024 0.0
C1297 C 0.21052 0.72801 0.85893 0.0
C1298 C 0.19969 0.70242 0.84739 0.0
C1299 C 0.22969 0.7061 0.83861 0.0
C1300 C 0.26274 0.79011 0.87206 0.0
C1301 C 0.15765 0.66742 0.8454 0.0
H1302 H 0.17013 0.66356 0.89989 0.0
H1303 H 0.11493 0.72865 0.8874 0.0
H1304 H 0.2101 0.65909 0.86842 0.0
H1305 H 0.24753 0.70132 0.87795 0.0
H1306 H 0.21411 0.6549 0.88622 0.0
H1307 H 0.12398 0.75435 0.86543 0.0
H1308 H 0.17745 0.78555 0.86469 0.0
H1309 H 0.15184 0.74406 0.85307 0.0
H1310 H 0.31071 0.78523 0.85358 0.0
H1311 H 0.22223 0.68322 0.83083 0.0
H1312 H 0.26618 0.77571 0.88102 0.0
H1313 H 0.23984 0.79803 0.87441 0.0
H1314 H 0.29169 0.81823 0.87019 0.0
H1315 H 0.15287 0.64223 0.85178 0.0
H1316 H 0.15211 0.65644 0.83479 0.0
H1317 H 0.13548 0.6758 0.84842 0.0
C1318 C 0.32217 0.43348 0.86754 0.0
C1319 C 0.34473 0.45898 0.8783 0.0
C1320 C 0.30945 0.44773 0.85705 0.0
C1321 C 0.31985 0.48853 0.8573 0.0
C1322 C 0.34413 0.51479 0.86785 0.0
C1323 C 0.35596 0.49959 0.87827 0.0
C1324 C 0.28313 0.41848 0.84619 0.0
C1325 C 0.35648 0.55875 0.86841 0.0
C1326 C 0.31987 0.55259 0.82965 0.0
C1327 C 0.29071 0.56018 0.83463 0.0
C1328 C 0.32687 0.52481 0.83595 0.0
C1329 C 0.30359 0.504 0.84722 0.0
C1330 C 0.26952 0.50621 0.85056 0.0
C1331 C 0.26359 0.53461 0.84424 0.0
C1332 C 0.36263 0.52221 0.83177 0.0
C1333 C 0.24274 0.48305 0.86209 0.0
H1334 H 0.31289 0.40184 0.86759 0.0
H1335 H 0.37344 0.51937 0.88654 0.0
H1336 H 0.25145 0.40716 0.84875 0.0
H1337 H 0.28922 0.4331 0.83632 0.0
H1338 H 0.28705 0.3921 0.84528 0.0
H1339 H 0.37744 0.57559 0.8768 0.0
H1340 H 0.37101 0.57338 0.85887 0.0
H1341 H 0.3297 0.56134 0.86971 0.0
H1342 H 0.34078 0.57223 0.82216 0.0
H1343 H 0.24075 0.54023 0.84799 0.0
H1344 H 0.35621 0.49088 0.83244 0.0
H1345 H 0.38789 0.54155 0.83863 0.0
H1346 H 0.37209 0.53273 0.82137 0.0
H1347 H 0.23682 0.45181 0.86207 0.0
H1348 H 0.21381 0.48189 0.86171 0.0
H1349 H 0.25775 0.498 0.87169 0.0
C1350 C 0.59753 0.93051 0.98324 0.0
C1351 C 0.59206 0.90518 0.97211 0.0
C1352 C 0.57048 0.91691 0.994 0.0
C1353 C 0.53736 0.87702 0.99361 0.0
C1354 C 0.53312 0.85062 0.98278 0.0
C1355 C 0.56042 0.86509 0.97214 0.0
C1356 C 0.57618 0.94605 0.0053 0.0
C1357 C 0.49854 0.80754 0.98207 0.0
C1358 C 0.46706 0.81501 0.02103 0.0
C1359 C 0.43188 0.81143 0.01622 0.0
C1360 C 0.50371 0.84057 0.01473 0.0
C1361 C 0.50473 0.86324 0.00366 0.0
C1362 C 0.47049 0.8649 1.00046 0.0
C1363 C 0.43423 0.83864 0.00676 0.0
C1364 C 0.53984 0.83891 0.01873 0.0
C1365 C 0.47068 0.89 0.9891 0.0
H1366 H 0.62193 0.96162 0.9833 0.0
H1367 H 0.55623 0.84529 0.96364 0.0
H1368 H 0.55706 0.95884 1.00348 0.0
H1369 H 0.56733 0.93079 0.01509 0.0
H1370 H 0.60764 0.97141 0.00597 0.0
H1371 H 0.50125 0.79018 0.97352 0.0
H1372 H 0.49652 0.79195 0.99149 0.0
H1373 H 0.47019 0.80717 0.98094 0.0
H1374 H 0.4653 0.79412 0.02843 0.0
H1375 H 0.40698 0.83622 1.0032 0.0
H1376 H 0.56749 0.86891 0.01795 0.0
H1377 H 0.54289 0.81773 0.01183 0.0
H1378 H 0.53709 0.82811 0.02913 0.0
H1379 H 0.49833 0.92017 0.98927 0.0
H1380 H 0.44449 0.89389 0.98956 0.0
H1381 H 0.46976 0.87487 0.9794 0.0
C1382 C 0.08569 0.66835 0.9777 0.0
C1383 C 0.10731 0.69041 0.96648 0.0
C1384 C 0.10441 0.66027 0.98807 0.0
C1385 C 0.14579 0.675 0.98725 0.0
C1386 C 0.16801 0.69863 0.9762 0.0
C1387 C 0.14845 0.70575 0.96591 0.0
C1388 C 0.0796 0.63456 0.99956 0.0
C1389 C 0.21237 0.71544 0.97502 0.0
C1390 C 0.21497 0.68603 0.01534 0.0
C1391 C 0.22425 0.65706 0.01121 0.0
C1392 C 0.18617 0.69 0.00841 0.0
C1393 C 0.16601 0.66384 0.99733 0.0
C1394 C 0.17142 0.63102 0.99446 0.0
C1395 C 0.20091 0.62833 1.00134 0.0
C1396 C 0.18107 0.72516 0.01191 0.0
C1397 C 0.14962 0.60157 0.98304 0.0
H1398 H 0.05378 0.65615 0.97818 0.0
H1399 H 0.16535 0.72299 0.95732 0.0
H1400 H 0.07657 0.60452 0.99864 0.0
H1401 H 0.09438 0.64822 0.00931 0.0
H1402 H 0.04924 0.63021 0.9997 0.0
H1403 H 0.2257 0.7355 0.96631 0.0
H1404 H 0.22781 0.73274 0.98428 0.0
H1405 H 0.21812 0.69034 0.97387 0.0
H1406 H 0.23334 0.70847 0.02291 0.0
H1407 H 0.20821 0.60592 0.99817 0.0
H1408 H 0.14936 0.71647 0.01112 0.0
H1409 H 0.19843 0.74966 0.00472 0.0
H1410 H 0.19197 0.73724 0.0222 0.0
H1411 H 0.11776 0.59268 0.98287 0.0
H1412 H 0.15139 0.57398 0.98373 0.0
H1413 H 0.16315 0.61611 0.97338 0.0
C1414 C 0.32702 0.51722 0.95364 0.0
C1415 C 0.33837 0.48889 0.95102 0.0
C1416 C 0.33418 0.53692 0.9662 0.0
C1417 C 0.35342 0.52829 0.97642 0.0
C1418 C 0.36355 0.49855 0.97403 0.0
C1419 C 0.35589 0.47918 0.96136 0.0
C1420 C 0.32241 0.56813 0.96837 0.0
C1421 C 0.38409 0.48844 0.98459 0.0
C1422 C 0.40569 0.62037 0.99888 0.0
C1423 C 0.37557 0.61204 0.00824 0.0
C1424 C 0.40113 0.59116 0.98932 0.0
C1425 C 0.36536 0.55302 0.98908 0.0
C1426 C 0.33772 0.54269 0.99976 0.0
C1427 C 0.34335 0.57245 0.00934 0.0
C1428 C 0.43207 0.60312 0.97841 0.0
C1429 C 0.29965 0.5021 1.00008 0.0
H1430 H 0.31323 0.5247 0.94578 0.0
H1431 H 0.36479 0.45728 0.95945 0.0
H1432 H 0.30372 0.56136 0.9775 0.0
H1433 H 0.34955 0.59832 0.96993 0.0
H1434 H 0.30558 0.56953 0.95972 0.0
H1435 H 0.38304 0.45978 0.98217 0.0
H1436 H 0.41584 0.51297 0.98533 0.0
H1437 H 0.37035 0.48603 0.99459 0.0
H1438 H 0.43067 0.65105 0.99808 0.0
H1439 H 0.31993 0.56604 0.01655 0.0
H1440 H 0.42118 0.60988 0.9692 0.0
H1441 H 0.43728 0.57818 0.97592 0.0
H1442 H 0.46092 0.63033 0.98135 0.0
H1443 H 0.27779 0.50186 0.99304 0.0
H1444 H 0.2862 0.49554 0.01027 0.0
H1445 H 0.30495 0.47768 0.99684 0.0
C1446 C 0.12963 0.48252 0.46422 0.0
C1447 C 0.15458 0.49067 0.453 0.0
C1448 C 0.14361 0.50626 0.47602 0.0
C1449 C 0.18359 0.53868 0.47664 0.0
C1450 C 0.20934 0.546 0.46553 0.0
C1451 C 0.19443 0.52208 0.45382 0.0
C1452 C 0.11512 0.49772 0.48754 0.0
C1453 C 0.25243 0.58 0.46586 0.0
C1454 C 0.22499 0.63632 0.49602 0.0
C1455 C 0.25023 0.63278 0.50496 0.0
C1456 C 0.19875 0.60366 0.48775 0.0
C1457 C 0.19845 0.56707 0.48838 0.0
C1458 C 0.21951 0.56173 0.49878 0.0
C1459 C 0.24504 0.59481 0.50711 0.0
C1460 C 0.17565 0.61023 0.47714 0.0
C1461 C 0.21948 0.523 0.49997 0.0
H1462 H 0.09865 0.45839 0.46367 0.0
H1463 H 0.21388 0.52834 0.44523 0.0
H1464 H 0.1292 0.49848 0.49721 0.0
H1465 H 0.10728 0.52142 0.48815 0.0
H1466 H 0.0871 0.468 0.4863 0.0
H1467 H 0.26909 0.58 0.45675 0.0
H1468 H 0.25391 0.60935 0.46662 0.0
H1469 H 0.26766 0.57772 0.4748 0.0
H1470 H 0.22896 0.66577 0.49445 0.0
H1471 H 0.26468 0.59214 0.51403 0.0
H1472 H 0.14539 0.58323 0.47585 0.0
H1473 H 0.19146 0.61562 0.4674 0.0
H1474 H 0.17276 0.6367 0.47964 0.0
H1475 H 0.18939 0.49639 0.49797 0.0
H1476 H 0.22949 0.52036 0.51007 0.0
H1477 H 0.24022 0.52241 0.49241 0.0
C1478 C 0.57725 0.68583 0.46064 0.0
C1479 C 0.56837 0.70149 0.44954 0.0
C1480 C 0.55858 0.68215 0.47309 0.0
C1481 C 0.53035 0.69436 0.47443 0.0
C1482 C 0.52289 0.71215 0.46345 0.0
C1483 C 0.54194 0.71543 0.45115 0.0
C1484 C 0.56757 0.66326 0.48452 0.0
C1485 C 0.4933 0.72607 0.46449 0.0
C1486 C 0.4377 0.64846 0.49534 0.0
C1487 C 0.44619 0.68115 0.50386 0.0
C1488 C 0.46701 0.64999 0.48677 0.0
C1489 C 0.50536 0.68535 0.48669 0.0
C1490 C 0.51559 0.71559 0.49675 0.0
C1491 C 0.48568 0.713 0.50536 0.0
C1492 C 0.45518 0.61634 0.47653 0.0
C1493 C 0.55647 0.75318 0.49727 0.0
H1494 H 0.5978 0.67509 0.45952 0.0
H1495 H 0.53521 0.72791 0.44268 0.0
H1496 H 0.56843 0.67817 0.49425 0.0
H1497 H 0.54365 0.63108 0.48514 0.0
H1498 H 0.59644 0.66468 0.48303 0.0
H1499 H 0.49292 0.74164 0.45534 0.0
H1500 H 0.46286 0.69974 0.46606 0.0
H1501 H 0.50051 0.74695 0.47324 0.0
H1502 H 0.40707 0.62369 0.4943 0.0
H1503 H 0.4922 0.7383 0.51198 0.0
H1504 H 0.47928 0.60958 0.47516 0.0
H1505 H 0.45001 0.62578 0.46671 0.0
H1506 H 0.42737 0.58834 0.47946 0.0
H1507 H 0.58003 0.74613 0.49499 0.0
H1508 H 0.56255 0.76864 0.50725 0.0
H1509 H 0.5583 0.77435 0.48961 0.0
C1510 C 0.36924 0.96142 0.4682 0.0
C1511 C 0.34424 0.93632 0.45776 0.0
C1512 C 0.37945 0.94551 0.4789 0.0
C1513 C 0.36426 0.90356 0.47917 0.0
C1514 C 0.33663 0.87783 0.46921 0.0
C1515 C 0.32702 0.89452 0.45863 0.0
C1516 C 0.40861 0.97398 0.48936 0.0
C1517 C 0.31919 0.83278 0.46921 0.0
C1518 C 0.42042 0.85539 0.49109 0.0
C1519 C 0.39714 0.8338 0.50207 0.0
C1520 C 0.4127 0.88188 0.48433 0.0
C1521 C 0.3807 0.88659 0.48863 0.0
C1522 C 0.36055 0.86888 0.50073 0.0
C1523 C 0.36919 0.8427 0.50739 0.0
C1524 C 0.43581 0.9011 0.47171 0.0
C1525 C 0.32697 0.87393 0.50586 0.0
H1526 H 0.3826 0.99379 0.46768 0.0
H1527 H 0.30737 0.87486 0.45071 0.0
H1528 H 0.40024 0.96096 0.4995 0.0
H1529 H 0.43873 0.97926 0.48706 0.0
H1530 H 0.41048 0.00358 0.48954 0.0
H1531 H 0.29543 0.8167 0.46153 0.0
H1532 H 0.34313 0.82609 0.46714 0.0
H1533 H 0.30648 0.8206 0.4792 0.0
H1534 H 0.44241 0.84888 0.48708 0.0
H1535 H 0.35118 0.82612 0.51591 0.0
H1536 H 0.44446 0.9332 0.47141 0.0
H1537 H 0.41668 0.88539 0.46284 0.0
H1538 H 0.4632 0.89935 0.47085 0.0
H1539 H 0.33372 0.90515 0.50444 0.0
H1540 H 0.32095 0.86662 0.51665 0.0
H1541 H 0.29941 0.85327 0.50012 0.0
C1542 C 0.12836 0.47465 0.38375 0.0
C1543 C 0.1009 0.43307 0.38395 0.0
C1544 C 0.15382 0.4923 0.37275 0.0
C1545 C 0.15202 0.46776 0.36166 0.0
C1546 C 0.12304 0.42608 0.36149 0.0
C1547 C 0.09778 0.40923 0.37263 0.0
C1548 C 0.18399 0.53703 0.3733 0.0
C1549 C 0.12007 0.39886 0.3499 0.0
C1550 C 0.2121 0.53238 0.33255 0.0
C1551 C 0.25009 0.54014 0.33594 0.0
C1552 C 0.17844 0.50543 0.34006 0.0
C1553 C 0.18317 0.48565 0.35102 0.0
C1554 C 0.22055 0.4892 0.35315 0.0
C1555 C 0.25365 0.51662 0.34562 0.0
C1556 C 0.13898 0.50191 0.33726 0.0
C1557 C 0.2268 0.46783 0.36445 0.0
H1558 H 0.13083 0.49335 0.3924 0.0
H1559 H 0.07667 0.37702 0.37266 0.0
H1560 H 0.21456 0.5421 0.37378 0.0
H1561 H 0.18211 0.5514 0.36407 0.0
H1562 H 0.17956 0.55231 0.38214 0.0
H1563 H 0.09172 0.36921 0.35012 0.0
H1564 H 0.12227 0.41313 0.34017 0.0
H1565 H 0.14524 0.3935 0.3504 0.0
H1566 H 0.2093 0.55066 0.32509 0.0
H1567 H 0.28306 0.52248 0.34818 0.0
H1568 H 0.13457 0.52145 0.34451 0.0
H1569 H 0.11387 0.47051 0.33852 0.0
H1570 H 0.1379 0.51158 0.32695 0.0
H1571 H 0.22737 0.48285 0.37414 0.0
H1572 H 0.25536 0.46839 0.36339 0.0
H1573 H 0.20196 0.43601 0.36489 0.0
C1574 C 0.53977 0.66089 0.38008 0.0
C1575 C 0.58111 0.67829 0.37886 0.0
C1576 C 0.51767 0.66551 0.37007 0.0
C1577 C 0.53748 0.68874 0.35867 0.0
C1578 C 0.57908 0.7055 0.3572 0.0
C1579 C 0.60038 0.69985 0.36729 0.0
C1580 C 0.47319 0.64655 0.37194 0.0
C1581 C 0.60137 0.73093 0.34533 0.0
C1582 C 0.46336 0.67226 0.33162 0.0
C1583 C 0.45272 0.70011 0.33591 0.0
C1584 C 0.49396 0.67039 0.33815 0.0
C1585 C 0.51457 0.69759 0.34896 0.0
C1586 C 0.50749 0.72924 0.35198 0.0
C1587 C 0.47624 0.72981 0.34551 0.0
C1588 C 0.50078 0.63642 0.33453 0.0
C1589 C 0.52972 0.75977 0.36309 0.0
H1590 H 0.52471 0.644 0.38894 0.0
H1591 H 0.63242 0.71363 0.36632 0.0
H1592 H 0.46584 0.67051 0.37325 0.0
H1593 H 0.45707 0.62829 0.3629 0.0
H1594 H 0.46194 0.62689 0.38081 0.0
H1595 H 0.63229 0.73684 0.34467 0.0
H1596 H 0.58551 0.71613 0.33583 0.0
H1597 H 0.60293 0.76029 0.34623 0.0
H1598 H 0.44502 0.64919 0.32421 0.0
H1599 H 0.46808 0.75152 0.34874 0.0
H1600 H 0.48531 0.61215 0.34194 0.0
H1601 H 0.53298 0.64672 0.33485 0.0
H1602 H 0.48895 0.62343 0.32439 0.0
H1603 H 0.51812 0.74548 0.37293 0.0
H1604 H 0.52606 0.78626 0.36251 0.0
H1605 H 0.56201 0.77039 0.36273 0.0
C1606 C 0.31467 0.88453 0.37539 0.0
C1607 C 0.3472 0.89104 0.38316 0.0
C1608 C 0.30203 0.85828 0.36417 0.0
C1609 C 0.32129 0.83668 0.36106 0.0
C1610 C 0.35503 0.84424 0.36866 0.0
C1611 C 0.36803 0.87196 0.37948 0.0
C1612 C 0.2672 0.8528 0.35606 0.0
C1613 C 0.37615 0.82142 0.36585 0.0
C1614 C 0.27 0.72981 0.34831 0.0
C1615 C 0.29225 0.73441 0.33666 0.0
C1616 C 0.27583 0.76346 0.35576 0.0
C1617 C 0.30373 0.80247 0.35119 0.0
C1618 C 0.32055 0.80698 0.33822 0.0
C1619 C 0.31492 0.77265 0.33109 0.0
C1620 C 0.25638 0.7571 0.36938 0.0
C1621 C 0.348 0.84809 0.33256 0.0
H1622 H 0.29899 0.89998 0.37809 0.0
H1623 H 0.39329 0.87724 0.38547 0.0
H1624 H 0.26872 0.84433 0.34545 0.0
H1625 H 0.23899 0.82856 0.36045 0.0
H1626 H 0.26595 0.8808 0.3563 0.0
H1627 H 0.40215 0.83126 0.37257 0.0
H1628 H 0.35505 0.78866 0.36716 0.0
H1629 H 0.38676 0.82569 0.35532 0.0
H1630 H 0.25165 0.70003 0.35244 0.0
H1631 H 0.33171 0.77633 0.32196 0.0
H1632 H 0.24323 0.77629 0.37076 0.0
H1633 H 0.27927 0.7659 0.37731 0.0
H1634 H 0.23255 0.72517 0.37083 0.0
H1635 H 0.33768 0.86913 0.33533 0.0
H1636 H 0.34997 0.84651 0.32146 0.0
H1637 H 0.37839 0.86065 0.33675 0.0
C1638 C 0.28599 0.05358 0.12499 0.0
C1639 C 0.29788 0.06437 0.11164 0.0
C1640 C 0.25038 0.04941 0.12999 0.0
C1641 C 0.22598 0.05617 0.12143 0.0
C1642 C 0.23843 0.06837 0.10808 0.0
C1643 C 0.27417 0.07224 0.10334 0.0
C1644 C 0.23812 0.03624 0.14425 0.0
C1645 C 0.21328 0.07601 0.09865 0.0
C1646 C 0.11383 0.99841 0.12544 0.0
C1647 C 0.10682 0.02809 0.13063 0.0
C1648 C 0.15262 0.00671 0.12309 0.0
C1649 C 0.18535 0.04594 0.12583 0.0
C1650 C 0.17858 0.07551 0.13182 0.0
C1651 C 0.13916 0.06615 0.13419 0.0
C1652 C 0.15836 0.97395 0.11701 0.0
C1653 C 0.2127 0.11755 0.13501 0.0
H1654 H 0.30423 0.04774 0.13155 0.0
H1655 H 0.28328 0.08098 0.09307 0.0
H1656 H 0.22938 0.05608 0.1495 0.0
H1657 H 0.21168 0.00519 0.14423 0.0
H1658 H 0.26233 0.03653 0.15004 0.0
H1659 H 0.2287 0.08862 0.089 0.0
H1660 H 0.18493 0.04734 0.0965 0.0
H1661 H 0.20549 0.09723 0.1034 0.0
H1662 H 0.08867 0.96882 0.12281 0.0
H1663 H 0.13362 0.08915 0.13811 0.0
H1664 H 0.18056 0.97097 0.12287 0.0
H1665 H 0.1701 0.98204 0.10665 0.0
H1666 H 0.13009 0.94421 0.1166 0.0
H1667 H 0.23692 0.11656 0.1403 0.0
H1668 H 0.20303 0.13503 0.14131 0.0
H1669 H 0.22538 0.13377 0.12553 0.0
C1670 C 0.9711 0.26167 0.12064 0.0
C1671 C 0.95063 0.26024 0.10898 0.0
C1672 C 0.97107 0.22743 0.12498 0.0
C1673 C 0.94964 0.19064 0.11759 0.0
C1674 C 0.92728 0.18851 0.1062 0.0
C1675 C 0.9283 0.22337 0.10197 0.0
C1676 C 0.99578 0.23126 0.13706 0.0
C1677 C 0.90362 0.14977 0.09813 0.0
C1678 C 0.9911 0.12137 0.11624 0.0
C1679 C 0.96621 0.09087 0.12513 0.0
C1680 C 0.98626 0.15405 0.11394 0.0
C1681 C 0.95533 0.15636 0.12055 0.0
C1682 C 0.93024 0.12599 0.12969 0.0
C1683 C 0.93615 0.09363 0.13195 0.0
C1684 C 0.01429 0.18605 0.10434 0.0
C1685 C 0.89672 0.12722 0.13685 0.0
H1686 H 0.98828 0.28995 0.12618 0.0
H1687 H 0.91192 0.2218 0.09307 0.0
H1688 H 0.97806 0.20635 0.14407 0.0
H1689 H 0.02173 0.22895 0.13378 0.0
H1690 H 0.00706 0.26044 0.14257 0.0
H1691 H 0.88392 0.15165 0.09064 0.0
H1692 H 0.92436 0.14279 0.09274 0.0
H1693 H 0.88504 0.12432 0.10486 0.0
H1694 H 0.01482 0.11988 0.11105 0.0
H1695 H 0.91675 0.07013 0.13878 0.0
H1696 H 0.02908 0.21614 0.10941 0.0
H1697 H 0.99723 0.18714 0.09572 0.0
H1698 H 0.03773 0.18051 0.10039 0.0
H1699 H 0.90811 0.1568 0.14206 0.0
H1700 H 0.8817 0.10298 0.14431 0.0
H1701 H 0.87425 0.12379 0.12941 0.0
C1702 C 0.78506 0.68774 0.10432 0.0
C1703 C 0.74605 0.6803 0.1034 0.0
C1704 C 0.81675 0.72557 0.10862 0.0
C1705 C 0.80925 0.75665 0.11215 0.0
C1706 C 0.76976 0.74892 0.11166 0.0
C1707 C 0.73867 0.7109 0.10726 0.0
C1708 C 0.85847 0.73269 0.10895 0.0
C1709 C 0.7605 0.78121 0.11541 0.0
C1710 C 0.88696 0.85113 0.13115 0.0
C1711 C 0.90401 0.87876 0.12074 0.0
C1712 C 0.85655 0.81096 0.12852 0.0
C1713 C 0.84301 0.79823 0.11518 0.0
C1714 C 0.86086 0.82573 0.10462 0.0
C1715 C 0.891 0.86557 0.10753 0.0
C1716 C 0.83825 0.78248 0.14004 0.0
C1717 C 0.84758 0.81333 0.09024 0.0
H1718 H 0.79104 0.66424 0.10142 0.0
H1719 H 0.7086 0.70534 0.1067 0.0
H1720 H 0.87716 0.75505 0.1013 0.0
H1721 H 0.87248 0.74544 0.11886 0.0
H1722 H 0.85889 0.7046 0.10693 0.0
H1723 H 0.72793 0.76952 0.11547 0.0
H1724 H 0.77282 0.7943 0.12547 0.0
H1725 H 0.77493 0.80603 0.10815 0.0
H1726 H 0.89669 0.86103 0.14139 0.0
H1727 H 0.90413 0.88655 0.09939 0.0
H1728 H 0.83861 0.75444 0.13794 0.0
H1729 H 0.80657 0.77375 0.14124 0.0
H1730 H 0.85411 0.79615 0.14966 0.0
H1731 H 0.84981 0.78678 0.08728 0.0
H1732 H 0.86562 0.83793 0.08313 0.0
H1733 H 0.81582 0.80434 0.0892 0.0
C1734 C 0.06632 0.28203 0.4126 0.0
C1735 C 0.10107 0.3203 0.41266 0.0
C1736 C 0.06609 0.2485 0.40688 0.0
C1737 C 0.10152 0.25331 0.40112 0.0
C1738 C 0.13686 0.29172 0.40131 0.0
C1739 C 0.13621 0.3248 0.40707 0.0
C1740 C 0.02776 0.20795 0.40689 0.0
C1741 C 0.17519 0.2979 0.39532 0.0
C1742 C 0.0997 0.15497 0.39836 0.0
C1743 C 0.08533 0.142 0.38525 0.0
C1744 C 0.10777 0.19253 0.40339 0.0
C1745 C 0.10123 0.21768 0.39512 0.0
C1746 C 0.0899 0.20623 0.38154 0.0
C1747 C 0.08214 0.16847 0.37675 0.0
C1748 C 0.12044 0.2039 0.41785 0.0
C1749 C 0.08297 0.23241 0.37237 0.0
H1750 H 0.03903 0.2783 0.41685 0.0
H1751 H 0.1632 0.35431 0.40704 0.0
H1752 H 0.01906 0.19631 0.39644 0.0
H1753 H 0.03222 0.18592 0.4123 0.0
H1754 H 0.00276 0.20937 0.4117 0.0
H1755 H 0.20024 0.32962 0.39643 0.0
H1756 H 0.18369 0.27801 0.4002 0.0
H1757 H 0.17086 0.28945 0.38449 0.0
H1758 H 0.10275 0.13489 0.40494 0.0
H1759 H 0.07111 0.15877 0.36661 0.0
H1760 H 0.09531 0.20187 0.42378 0.0
H1761 H 0.14577 0.23547 0.41873 0.0
H1762 H 0.12935 0.18379 0.42236 0.0
H1763 H 0.05508 0.23139 0.37536 0.0
H1764 H 0.08013 0.22224 0.3617 0.0
H1765 H 0.10768 0.26429 0.37323 0.0
C1766 C 0.75472 0.78818 0.40271 0.0
C1767 C 0.71993 0.78984 0.40404 0.0
C1768 C 0.78988 0.82076 0.39758 0.0
C1769 C 0.79029 0.8559 0.39371 0.0
C1770 C 0.75511 0.85752 0.3948 0.0
C1771 C 0.72035 0.82448 0.39996 0.0
C1772 C 0.82685 0.81788 0.39655 0.0
C1773 C 0.75444 0.89447 0.39079 0.0
C1774 C 0.89308 0.9494 0.39581 0.0
C1775 C 0.90636 0.95257 0.38253 0.0
C1776 C 0.85442 0.91945 0.39943 0.0
C1777 C 0.82845 0.89186 0.38952 0.0
C1778 C 0.84076 0.89663 0.37592 0.0
C1779 C 0.87976 0.92701 0.37258 0.0
C1780 C 0.84235 0.91578 0.41401 0.0
C1781 C 0.8138 0.86804 0.36504 0.0
H1782 H 0.75459 0.76145 0.40574 0.0
H1783 H 0.69352 0.82596 0.40087 0.0
H1784 H 0.83876 0.8242 0.38617 0.0
H1785 H 0.85039 0.84092 0.40329 0.0
H1786 H 0.82104 0.78772 0.39931 0.0
H1787 H 0.724 0.88986 0.39135 0.0
H1788 H 0.77443 0.92034 0.39748 0.0
H1789 H 0.76582 0.90285 0.38041 0.0
H1790 H 0.91358 0.96936 0.40352 0.0
H1791 H 0.89024 0.92891 0.36238 0.0
H1792 H 0.83949 0.88801 0.41807 0.0
H1793 H 0.81285 0.91312 0.41507 0.0
H1794 H 0.86444 0.94198 0.42021 0.0
H1795 H 0.81102 0.83828 0.36613 0.0
H1796 H 0.82552 0.87923 0.35486 0.0
H1797 H 0.78341 0.86332 0.36595 0.0
C1798 C 0.2476 0.99613 0.39718 0.0
C1799 C 0.26952 0.98116 0.39088 0.0
C1800 C 0.2148 0.99384 0.39073 0.0
C1801 C 0.20292 0.97483 0.37787 0.0
C1802 C 0.2251 0.95976 0.37145 0.0
C1803 C 0.25851 0.96363 0.37796 0.0
C1804 C 0.19248 0.01121 0.39778 0.0
C1805 C 0.21264 0.93811 0.35799 0.0
C1806 C 0.09423 0.93897 0.373 0.0
C1807 C 0.09697 0.97119 0.36605 0.0
C1808 C 0.12844 0.93729 0.37559 0.0
C1809 C 0.1662 0.96948 0.37157 0.0
C1810 C 0.16846 -0.00017 0.36333 0.0
C1811 C 0.1335 -6e-05 0.36048 0.0
C1812 C 0.12453 0.90337 0.38388 0.0
C1813 C 0.20805 0.03492 0.35892 0.0
H1814 H 0.25619 0.00975 0.40713 0.0
H1815 H 0.27514 0.95148 0.37314 0.0
H1816 H 0.18969 0.03207 0.39108 0.0
H1817 H 0.16185 0.98661 0.40026 0.0
H1818 H 0.20747 0.02783 0.4072 0.0
H1819 H 0.23509 0.93143 0.35381 0.0
H1820 H 0.18387 0.90925 0.35906 0.0
H1821 H 0.20776 0.95625 0.35068 0.0
H1822 H 0.0659 0.91692 0.37736 0.0
H1823 H 0.13557 0.0252 0.35527 0.0
H1824 H 0.13326 0.91419 0.39439 0.0
H1825 H 0.14464 0.89314 0.38006 0.0
H1826 H 0.09341 0.87721 0.38389 0.0
H1827 H 0.22254 0.05593 0.36759 0.0
H1828 H 0.20446 0.05182 0.35076 0.0
H1829 H 0.22841 0.02466 0.35542 0.0
C1830 C 0.7355 0.92879 0.91161 0.0
C1831 C 0.74329 0.96709 0.91571 0.0
C1832 C 0.76379 0.92433 0.90424 0.0
C1833 C 0.80115 0.95889 0.90134 0.0
C1834 C 0.80917 0.99761 0.90556 0.0
C1835 C 0.77979 0.00127 0.91249 0.0
C1836 C 0.75367 0.8828 0.89949 0.0
C1837 C 0.84907 0.03516 0.90296 0.0
C1838 C 0.89563 0.9566 0.89745 0.0
C1839 C 0.90561 0.96796 0.88407 0.0
C1840 C 0.86 0.95045 0.903 0.0
C1841 C 0.83326 0.95485 0.89484 0.0
C1842 C 0.84095 0.96146 0.88092 0.0
C1843 C 0.87748 0.96849 0.8757 0.0
C1844 C 0.85328 0.94378 0.9179 0.0
C1845 C 0.81239 0.96477 0.8718 0.0
H1846 H 0.70676 0.90239 0.91382 0.0
H1847 H 0.78555 0.03084 0.91557 0.0
H1848 H 0.75837 0.88258 0.88849 0.0
H1849 H 0.77378 0.87457 0.9043 0.0
H1850 H 0.72232 0.85939 0.90179 0.0
H1851 H 0.85058 0.06288 0.90701 0.0
H1852 H 0.87323 0.03259 0.90763 0.0
H1853 H 0.855 0.03852 0.89202 0.0
H1854 H 0.91731 0.95585 0.90391 0.0
H1855 H 0.88534 0.9779 0.86542 0.0
H1856 H 0.8224 0.91909 0.91999 0.0
H1857 H 0.85738 0.97158 0.92291 0.0
H1858 H 0.87439 0.93638 0.92247 0.0
H1859 H 0.78101 0.94188 0.87423 0.0
H1860 H 0.81809 0.96099 0.86107 0.0
H1861 H 0.81597 0.99495 0.87321 0.0
C1862 C 0.02368 0.79865 0.90902 0.0
C1863 C 0.0541 0.79083 0.91146 0.0
C1864 C 0.03202 0.83437 0.90285 0.0
C1865 C 0.07146 0.86207 0.89853 0.0
C1866 C 0.10205 0.85361 0.90063 0.0
C1867 C 0.09314 0.81842 0.90731 0.0
C1868 C -0.00129 0.84273 0.90114 0.0
C1869 C 0.14399 0.88142 0.89566 0.0
C1870 C 0.07259 0.93616 0.87409 0.0
C1871 C 0.08075 0.96856 0.88276 0.0
C1872 C 0.07312 0.9025 0.87878 0.0
C1873 C 0.08067 0.90081 0.89255 0.0
C1874 C 0.09226 0.9349 0.90103 0.0
C1875 C 0.09289 0.96859 0.89596 0.0
C1876 C 0.06243 0.86754 0.86925 0.0
C1877 C 0.10004 0.93436 0.91581 0.0
H1878 H 0.99347 0.77707 0.91213 0.0
H1879 H 0.1165 0.8118 0.90891 0.0
H1880 H 0.00677 0.87187 0.90616 0.0
H1881 H 0.99424 0.84541 0.89035 0.0
H1882 H 0.97003 0.81867 0.90538 0.0
H1883 H 0.16377 0.86929 0.89739 0.0
H1884 H 0.14349 0.88631 0.88477 0.0
H1885 H 0.15708 0.91131 0.9008 0.0
H1886 H 0.06274 0.93554 0.86394 0.0
H1887 H 0.09966 0.99368 0.90272 0.0
H1888 H 0.03071 0.8438 0.87071 0.0
H1889 H 0.08087 0.85406 0.87121 0.0
H1890 H 0.06647 0.87688 0.85862 0.0
H1891 H 0.07163 0.913 0.92087 0.0
H1892 H 0.11249 0.96454 0.92072 0.0
H1893 H 0.12103 0.92371 0.91739 0.0
C1894 C 0.22959 0.29873 0.90157 0.0
C1895 C 0.2383 0.33795 0.8993 0.0
C1896 C 0.19875 0.26566 0.89454 0.0
C1897 C 0.17641 0.27201 0.88486 0.0
C1898 C 0.18596 0.31169 0.88219 0.0
C1899 C 0.21656 0.34417 0.88954 0.0
C1900 C 0.18946 0.22376 0.89773 0.0
C1901 C 0.16339 0.31984 0.87182 0.0
C1902 C 0.11574 0.17702 0.86382 0.0
C1903 C 0.08141 0.15711 0.87175 0.0
C1904 C 0.14588 0.21681 0.86709 0.0
C1905 C 0.14115 0.23653 0.8785 0.0
C1906 C 0.1042 0.2182 0.88536 0.0
C1907 C 0.07478 0.17859 0.8819 0.0
C1908 C 0.18438 0.2358 0.85928 0.0
C1909 C 0.09748 0.23835 0.89741 0.0
H1910 H 0.24649 0.2938 0.90902 0.0
H1911 H 0.22365 0.37454 0.88754 0.0
H1912 H 0.15876 0.2059 0.90182 0.0
H1913 H 0.19064 0.20802 0.88845 0.0
H1914 H 0.21057 0.22411 0.90515 0.0
H1915 H 0.17914 0.35219 0.86917 0.0
H1916 H 0.15881 0.30151 0.86255 0.0
H1917 H 0.13349 0.31122 0.8758 0.0
H1918 H 0.12091 0.16028 0.85601 0.0
H1919 H 0.04804 0.16306 0.88798 0.0
H1920 H 0.20676 0.23232 0.86484 0.0
H1921 H 0.19666 0.26854 0.85807 0.0
H1922 H 0.18024 0.22127 0.8492 0.0
H1923 H 0.1146 0.23757 0.90606 0.0
H1924 H 0.06547 0.22303 0.90026 0.0
H1925 H 0.10828 0.27041 0.89543 0.0
C1926 C 0.03307 0.76123 0.60615 0.0
C1927 C 0.99259 0.73545 0.60292 0.0
C1928 C 0.04793 0.8016 0.61005 0.0
C1929 C 0.02178 0.81656 0.61055 0.0
C1930 C 0.98087 0.7906 0.60738 0.0
C1931 C 0.96675 0.75032 0.60367 0.0
C1932 C 0.09157 0.82828 0.61355 0.0
C1933 C 0.95205 0.80553 0.60769 0.0
C1934 C 0.03963 0.91109 0.62892 0.0
C1935 C 0.04781 0.93683 0.61816 0.0
C1936 C 0.03445 0.87271 0.62681 0.0
C1937 C 0.03706 0.85984 0.61362 0.0
C1938 C 0.04886 0.88711 0.60295 0.0
C1939 C 0.05427 0.92535 0.60537 0.0
C1940 C 0.02278 0.84484 0.63852 0.0
C1941 C 0.05219 0.87471 0.58874 0.0
H1942 H 0.05315 0.7498 0.60573 0.0
H1943 H 0.93546 0.73057 0.60122 0.0
H1944 H 0.10631 0.85314 0.60632 0.0
H1945 H 0.09486 0.8423 0.62366 0.0
H1946 H 0.10746 0.81143 0.61341 0.0
H1947 H 0.92106 0.78129 0.60517 0.0
H1948 H 0.95198 0.81815 0.61779 0.0
H1949 H 0.96167 0.83013 0.60043 0.0
H1950 H 0.03427 0.91955 0.63879 0.0
H1951 H 0.06109 0.94534 0.59703 0.0
H1952 H 0.03799 0.82737 0.63799 0.0
H1953 H 0.99015 0.82297 0.63819 0.0
H1954 H 0.03007 0.86164 0.64827 0.0
H1955 H 0.0695 0.85938 0.58843 0.0
H1956 H 0.06664 0.90086 0.58198 0.0
H1957 H 0.02191 0.85297 0.5848 0.0
C1958 C 0.29314 0.25824 0.59883 0.0
C1959 C 0.30716 0.29952 0.59806 0.0
C1960 C 0.25437 0.231 0.60328 0.0
C1961 C 0.22887 0.24533 0.60713 0.0
C1962 C 0.24291 0.28704 0.60654 0.0
C1963 C 0.28188 0.31367 0.60196 0.0
C1964 C 0.24052 0.18671 0.60368 0.0
C1965 C 0.21667 0.30343 0.61064 0.0
C1966 C 0.12057 0.16296 0.60386 0.0
C1967 C 0.11219 0.14712 0.6168 0.0
C1968 C 0.15754 0.19701 0.60081 0.0
C1969 C 0.18687 0.21587 0.61096 0.0
C1970 C 0.17726 0.20238 0.62432 0.0
C1971 C 0.13996 0.16804 0.6271 0.0
C1972 C 0.16631 0.21054 0.58645 0.0
C1973 C 0.20745 0.22208 0.63549 0.0
H1974 H 0.31245 0.24703 0.59589 0.0
H1975 H 0.2926 0.34559 0.60151 0.0
H1976 H 0.23036 0.17532 0.61394 0.0
H1977 H 0.21472 0.1693 0.59683 0.0
H1978 H 0.26437 0.18062 0.60069 0.0
H1979 H 0.23273 0.33685 0.61029 0.0
H1980 H 0.19038 0.29076 0.6039 0.0
H1981 H 0.20527 0.29404 0.62097 0.0
H1982 H 0.09904 0.14735 0.59588 0.0
H1983 H 0.13376 0.15616 0.63713 0.0
H1984 H 0.18734 0.20226 0.58204 0.0
H1985 H 0.1808 0.24377 0.58597 0.0
H1986 H 0.13889 0.19636 0.58018 0.0
H1987 H 0.22971 0.21259 0.63459 0.0
H1988 H 0.19321 0.21343 0.64553 0.0
H1989 H 0.22377 0.25539 0.63481 0.0
C1990 C 0.73824 0.99482 0.60745 0.0
C1991 C 0.75225 0.02749 0.59881 0.0
C1992 C 0.76437 0.98409 0.61287 0.0
C1993 C 0.8055 0.00703 0.60973 0.0
C1994 C 0.81974 0.04006 0.60103 0.0
C1995 C 0.79291 0.04962 0.59558 0.0
C1996 C 0.74803 0.94824 0.62188 0.0
C1997 C 0.86348 0.06555 0.59751 0.0
C1998 C 0.88946 0.01311 0.6301 0.0
C1999 C 0.90249 0.99363 0.62128 0.0
C2000 C 0.85552 0.01502 0.62707 0.0
C2001 C 0.83402 0.9963 0.61509 0.0
C2002 C 0.84451 0.97261 0.60704 0.0
C2003 C 0.87894 0.97196 0.61016 0.0
C2004 C 0.84537 0.0406 0.63592 0.0
C2005 C 0.82176 0.95118 0.59441 0.0
H2006 H 0.7068 0.97756 0.60997 0.0
H2007 H 0.80403 0.07511 0.58901 0.0
H2008 H 0.75469 0.9257 0.61756 0.0
H2009 H 0.76276 0.95773 0.63184 0.0
H2010 H 0.71526 0.93347 0.62332 0.0
H2011 H 0.8699 0.09115 0.59104 0.0
H2012 H 0.8816 0.07779 0.6068 0.0
H2013 H 0.87335 0.04675 0.59218 0.0
H2014 H 0.90774 0.02996 0.63869 0.0
H2015 H 0.88885 0.9565 0.6034 0.0
H2016 H 0.81265 0.02593 0.63729 0.0
H2017 H 0.85597 0.06991 0.63107 0.0
H2018 H 0.85974 0.04665 0.64594 0.0
H2019 H 0.78912 0.93598 0.59612 0.0
H2020 H 0.82899 0.92841 0.59071 0.0
H2021 H 0.82955 0.97353 0.58643 0.0
C2022 C 0.98052 0.41166 0.4624 0.0
C2023 C 0.97454 0.3928 0.44972 0.0
C2024 C 0.95051 0.416 0.46857 0.0
C2025 C 0.91323 0.3999 0.4621 0.0
C2026 C 0.90687 0.38024 0.44937 0.0
C2027 C 0.93792 0.37758 0.44322 0.0
C2028 C 0.95895 0.43844 0.48187 0.0
C2029 C 0.86719 0.36187 0.44226 0.0
C2030 C 0.81686 0.37201 0.48006 0.0
C2031 C 0.80851 0.39976 0.4746 0.0
C2032 C 0.8525 0.37325 0.47687 0.0
C2033 C 0.88072 0.40382 0.46841 0.0
C2034 C 0.87452 0.43497 0.46441 0.0
C2035 C 0.83804 0.43212 0.46735 0.0
C2036 C 0.85756 0.33912 0.48121 0.0
C2037 C 0.90458 0.46907 0.45588 0.0
H2038 H 0.00913 0.42398 0.46736 0.0
H2039 H 0.93333 0.36294 0.43345 0.0
H2040 H 0.95515 0.46472 0.48089 0.0
H2041 H 0.93733 0.4187 0.48954 0.0
H2042 H 0.98965 0.44936 0.48554 0.0
H2043 H 0.86638 0.34559 0.43283 0.0
H2044 H 0.84287 0.34046 0.44893 0.0
H2045 H 0.86093 0.38581 0.43979 0.0
H2046 H 0.79363 0.34658 0.48547 0.0
H2047 H 0.83133 0.45338 0.46305 0.0
H2048 H 0.88845 0.35054 0.4847 0.0
H2049 H 0.85192 0.31844 0.4725 0.0
H2050 H 0.83647 0.32154 0.48935 0.0
H2051 H 0.9354 0.48041 0.45946 0.0
H2052 H 0.89917 0.49453 0.45591 0.0
H2053 H 0.90252 0.45802 0.44538 0.0
C2054 C 0.67713 0.58797 0.44029 0.0
C2055 C 0.64431 0.58931 0.43562 0.0
C2056 C 0.67214 0.5529 0.44598 0.0
C2057 C 0.6332 0.51881 0.44743 0.0
C2058 C 0.59979 0.52069 0.44326 0.0
C2059 C 0.60579 0.5557 0.43716 0.0
C2060 C 0.70867 0.55187 0.44998 0.0
C2061 C 0.55781 0.48559 0.44511 0.0
C2062 C 0.63231 0.42105 0.44621 0.0
C2063 C 0.63651 0.41544 0.45981 0.0
C2064 C 0.62879 0.45329 0.44211 0.0
C2065 C 0.62828 0.48011 0.45187 0.0
C2066 C 0.62816 0.47213 0.46569 0.0
C2067 C 0.6328 0.44005 0.46952 0.0
C2068 C 0.62938 0.46067 0.42727 0.0
C2069 C 0.62606 0.49907 0.47643 0.0
H2070 H 0.70688 0.61408 0.43918 0.0
H2071 H 0.58027 0.55706 0.43383 0.0
H2072 H 0.70676 0.54407 0.4607 0.0
H2073 H 0.71023 0.52817 0.44401 0.0
H2074 H 0.73674 0.58115 0.44842 0.0
H2075 H 0.53506 0.49361 0.44289 0.0
H2076 H 0.55256 0.46012 0.43837 0.0
H2077 H 0.55352 0.47481 0.45555 0.0
H2078 H 0.63454 0.40172 0.43865 0.0
H2079 H 0.63628 0.43608 0.48 0.0
H2080 H 0.65778 0.48851 0.4247 0.0
H2081 H 0.6047 0.46533 0.42459 0.0
H2082 H 0.62679 0.43531 0.421 0.0
H2083 H 0.65591 0.52669 0.47769 0.0
H2084 H 0.61684 0.48386 0.48624 0.0
H2085 H 0.60484 0.50851 0.47358 0.0
C2086 C 0.47001 0.05865 0.43025 0.0
C2087 C 0.44445 0.07062 0.42521 0.0
C2088 C 0.50589 0.08652 0.4367 0.0
C2089 C 0.51658 0.12732 0.43801 0.0
C2090 C 0.49139 0.13973 0.43263 0.0
C2091 C 0.45557 0.1112 0.42635 0.0
C2092 C 0.5318 0.07215 0.44242 0.0
C2093 C 0.50199 0.18313 0.43368 0.0
C2094 C 0.58618 0.20259 0.46417 0.0
C2095 C 0.61941 0.22774 0.45626 0.0
C2096 C 0.55349 0.16747 0.45864 0.0
C2097 C 0.55413 0.15758 0.4449 0.0
C2098 C 0.58919 0.18062 0.43729 0.0
C2099 C 0.62148 0.21535 0.44308 0.0
C2100 C 0.51694 0.14315 0.46719 0.0
C2101 C 0.59132 0.17088 0.42265 0.0
H2102 H 0.46141 0.02722 0.42953 0.0
H2103 H 0.43598 0.12062 0.42248 0.0
H2104 H 0.56265 0.09022 0.43848 0.0
H2105 H 0.53356 0.0765 0.45348 0.0
H2106 H 0.52017 0.0398 0.44002 0.0
H2107 H 0.47954 0.18794 0.42876 0.0
H2108 H 0.50438 0.19263 0.44438 0.0
H2109 H 0.53148 0.20301 0.42897 0.0
H2110 H 0.58423 0.21181 0.47435 0.0
H2111 H 0.64732 0.23431 0.43695 0.0
H2112 H 0.50421 0.11037 0.4654 0.0
H2113 H 0.49376 0.15007 0.46446 0.0
H2114 H 0.52365 0.15016 0.47805 0.0
H2115 H 0.57918 0.13814 0.42104 0.0
H2116 H 0.62235 0.18774 0.41875 0.0
H2117 H 0.57283 0.17897 0.41668 0.0
C2118 C 0.71863 0.63568 0.73356 0.0
C2119 C 0.75427 0.67253 0.73171 0.0
C2120 C 0.71489 0.59914 0.72923 0.0
C2121 C 0.7476 0.59935 0.7229 0.0
C2122 C 0.78347 0.63645 0.72082 0.0
C2123 C 0.78638 0.67259 0.72524 0.0
C2124 C 0.67605 0.56019 0.7316 0.0
C2125 C 0.81894 0.63789 0.71409 0.0
C2126 C 0.74529 0.50078 0.7256 0.0
C2127 C 0.72791 0.4815 0.71333 0.0
C2128 C 0.75376 0.54001 0.72857 0.0
C2129 C 0.74453 0.56047 0.71904 0.0
C2130 C 0.72915 0.54209 0.70633 0.0
C2131 C 0.72081 0.5027 0.70366 0.0
C2132 C 0.77055 0.55865 0.74219 0.0
C2133 C 0.71916 0.56293 0.69585 0.0
H2134 H 0.69361 0.6353 0.73849 0.0
H2135 H 0.81402 0.7009 0.72372 0.0
H2136 H 0.66421 0.5433 0.72197 0.0
H2137 H 0.68122 0.54085 0.73827 0.0
H2138 H 0.65304 0.56527 0.73624 0.0
H2139 H 0.84404 0.66927 0.71266 0.0
H2140 H 0.82962 0.62186 0.72023 0.0
H2141 H 0.81016 0.62218 0.70416 0.0
H2142 H 0.75096 0.4846 0.73311 0.0
H2143 H 0.70648 0.48776 0.6943 0.0
H2144 H 0.7478 0.56139 0.74807 0.0
H2145 H 0.79687 0.58947 0.74113 0.0
H2146 H 0.77953 0.54044 0.74795 0.0
H2147 H 0.69216 0.56347 0.69901 0.0
H2148 H 0.71326 0.54738 0.68589 0.0
H2149 H 0.7438 0.59465 0.69481 0.0
C2150 C 0.42235 0.0996 0.72686 0.0
C2151 C 0.38419 0.09326 0.7292 0.0
C2152 C 0.45348 0.13678 0.7223 0.0
C2153 C 0.44608 0.16815 0.71975 0.0
C2154 C 0.40715 0.16131 0.72152 0.0
C2155 C 0.37676 0.12411 0.72639 0.0
C2156 C 0.49469 0.14297 0.72073 0.0
C2157 C 0.39782 0.19358 0.71857 0.0
C2158 C 0.5379 0.27173 0.72455 0.0
C2159 C 0.55389 0.28014 0.71154 0.0
C2160 C 0.50159 0.23643 0.72722 0.0
C2161 C 0.48013 0.20909 0.71657 0.0
C2162 C 0.4941 0.21924 0.70323 0.0
C2163 C 0.53109 0.25454 0.70087 0.0
C2164 C 0.48797 0.22691 0.74161 0.0
C2165 C 0.47149 0.19155 0.69153 0.0
H2166 H 0.42825 0.07587 0.72898 0.0
H2167 H 0.34713 0.11917 0.72799 0.0
H2168 H 0.50605 0.15305 0.71045 0.0
H2169 H 0.51557 0.16702 0.72784 0.0
H2170 H 0.49517 0.11511 0.72264 0.0
H2171 H 0.36526 0.18193 0.71887 0.0
H2172 H 0.4128 0.21866 0.72605 0.0
H2173 H 0.40945 0.2063 0.70854 0.0
H2174 H 0.55503 0.29157 0.73286 0.0
H2175 H 0.54315 0.26053 0.6908 0.0
H2176 H 0.4902 0.20091 0.74479 0.0
H2177 H 0.45629 0.21821 0.74261 0.0
H2178 H 0.50619 0.2528 0.74857 0.0
H2179 H 0.47656 0.1659 0.69119 0.0
H2180 H 0.48143 0.20732 0.68183 0.0
H2181 H 0.43894 0.17894 0.69266 0.0
C2182 C 0.86942 0.24135 0.71939 0.0
C2183 C 0.89891 0.2718 0.72768 0.0
C2184 C 0.83792 0.24469 0.7143 0.0
C2185 C 0.83598 0.2794 0.71751 0.0
C2186 C 0.86609 0.31057 0.72565 0.0
C2187 C 0.89702 0.3063 0.73068 0.0
C2188 C 0.80627 0.21072 0.70575 0.0
C2189 C 0.8653 0.34823 0.72925 0.0
C2190 C 0.77265 0.31097 0.69882 0.0
C2191 C 0.74215 0.30139 0.70816 0.0
C2192 C 0.80231 0.30167 0.70127 0.0
C2193 C 0.80113 0.28225 0.71329 0.0
C2194 C 0.76844 0.26957 0.72214 0.0
C2195 C 0.73953 0.27951 0.71951 0.0
C2196 C 0.83646 0.31548 0.69151 0.0
C2197 C 0.76545 0.24806 0.73492 0.0
H2198 H 0.87066 0.21461 0.71697 0.0
H2199 H 0.91981 0.33014 0.73697 0.0
H2200 H 0.77719 0.19664 0.71105 0.0
H2201 H 0.80249 0.22248 0.6962 0.0
H2202 H 0.81351 0.18704 0.7034 0.0
H2203 H 0.89212 0.37065 0.73501 0.0
H2204 H 0.86339 0.36253 0.72001 0.0
H2205 H 0.83843 0.34027 0.73536 0.0
H2206 H 0.77502 0.32826 0.69012 0.0
H2207 H 0.71575 0.27177 0.72669 0.0
H2208 H 0.8441 0.29186 0.68983 0.0
H2209 H 0.86326 0.34256 0.69576 0.0
H2210 H 0.82949 0.32336 0.68169 0.0
H2211 H 0.77067 0.2229 0.73288 0.0
H2212 H 0.73588 0.23584 0.73983 0.0
H2213 H 0.78879 0.26938 0.74207 0.0
C2214 C 0.41296 0.32591 0.2261 0.0
C2215 C 0.40025 0.29505 0.23541 0.0
C2216 C 0.44921 0.34046 0.21917 0.0
C2217 C 0.47376 0.32467 0.22199 0.0
C2218 C 0.46064 0.29306 0.23125 0.0
C2219 C 0.4238 0.27829 0.2377 0.0
C2220 C 0.46153 0.37317 0.20905 0.0
C2221 C 0.48619 0.27578 0.23474 0.0
C2222 C 0.56272 0.3355 0.20294 0.0
C2223 C 0.59372 0.36322 0.21133 0.0
C2224 C 0.52322 0.32559 0.20534 0.0
C2225 C 0.5149 0.34346 0.2165 0.0
C2226 C 0.54679 0.37481 0.22399 0.0
C2227 C 0.58584 0.38451 0.22122 0.0
C2228 C 0.49024 0.29315 0.19676 0.0
C2229 C 0.53949 0.39479 0.23597 0.0
H2230 H 0.3944 0.33842 0.22413 0.0
H2231 H 0.41395 0.25436 0.24486 0.0
H2232 H 0.4862 0.40213 0.21321 0.0
H2233 H 0.47275 0.366 0.19976 0.0
H2234 H 0.43648 0.37741 0.2064 0.0
H2235 H 0.47128 0.25083 0.24195 0.0
H2236 H 0.49352 0.26424 0.22554 0.0
H2237 H 0.51476 0.2998 0.23922 0.0
H2238 H 0.56859 0.31886 0.19535 0.0
H2239 H 0.60994 0.40647 0.22761 0.0
H2240 H 0.46625 0.29982 0.19515 0.0
H2241 H 0.47686 0.26392 0.20191 0.0
H2242 H 0.50164 0.28976 0.18685 0.0
H2243 H 0.51754 0.4036 0.23353 0.0
H2244 H 0.56738 0.42203 0.23958 0.0
H2245 H 0.5269 0.37313 0.24428 0.0
C2246 C 0.71275 0.11008 0.25117 0.0
C2247 C 0.68206 0.07118 0.24739 0.0
C2248 C 0.71204 0.14424 0.24729 0.0
C2249 C 0.67956 0.13936 0.23963 0.0
C2250 C 0.64788 0.10015 0.23615 0.0
C2251 C 0.64965 0.06651 0.23999 0.0
C2252 C 0.74656 0.1856 0.2511 0.0
C2253 C 0.61241 0.09377 0.2282 0.0
C2254 C 0.66531 0.229 0.23968 0.0
C2255 C 0.68264 0.24671 0.2274 0.0
C2256 C 0.66307 0.19341 0.24361 0.0
C2257 C 0.67913 0.17544 0.23516 0.0
C2258 C 0.6961 0.1928 0.22266 0.0
C2259 C 0.69736 0.22809 0.21887 0.0
C2260 C 0.64413 0.17542 0.2569 0.0
C2261 C 0.71393 0.17472 0.21344 0.0
H2262 H 0.73802 0.11396 0.25682 0.0
H2263 H 0.62577 0.03652 0.23708 0.0
H2264 H 0.76103 0.20277 0.24191 0.0
H2265 H 0.73564 0.20273 0.25693 0.0
H2266 H 0.76941 0.1842 0.25717 0.0
H2267 H 0.5894 0.06133 0.22683 0.0
H2268 H 0.59853 0.10925 0.23332 0.0
H2269 H 0.6223 0.10723 0.21817 0.0
H2270 H 0.65354 0.24305 0.24627 0.0
H2271 H 0.71087 0.2417 0.20939 0.0
H2272 H 0.66681 0.17628 0.26369 0.0
H2273 H 0.6204 0.14331 0.25545 0.0
H2274 H 0.63091 0.19173 0.26192 0.0
H2275 H 0.73908 0.17503 0.21857 0.0
H2276 H 0.7251 0.19131 0.20393 0.0
H2277 H 0.69138 0.14279 0.21101 0.0
C2278 C 0.98764 0.61823 0.22965 0.0
C2279 C 0.98543 0.65291 0.23185 0.0
C2280 C 0.95352 0.58109 0.22621 0.0
C2281 C 0.91639 0.57867 0.22485 0.0
C2282 C 0.91422 0.61382 0.22665 0.0
C2283 C 0.9487 0.65046 0.23019 0.0
C2284 C 0.95695 0.54419 0.22448 0.0
C2285 C 0.87521 0.61251 0.22522 0.0
C2286 C 0.82793 0.48599 0.20852 0.0
C2287 C 0.80627 0.46483 0.21984 0.0
C2288 C 0.86424 0.52295 0.20994 0.0
C2289 C 0.87914 0.53882 0.22295 0.0
C2290 C 0.85777 0.51712 0.23436 0.0
C2291 C 0.82167 0.48056 0.23266 0.0
C2292 C 0.88624 0.54534 0.19754 0.0
C2293 C 0.87273 0.53279 0.24841 0.0
H2294 H 0.01595 0.61991 0.23084 0.0
H2295 H 0.9468 0.6772 0.2317 0.0
H2296 H 0.94015 0.52273 0.23258 0.0
H2297 H 0.9435 0.52847 0.2148 0.0
H2298 H 0.98842 0.5517 0.22479 0.0
H2299 H 0.87918 0.64304 0.2258 0.0
H2300 H 0.86086 0.59795 0.2155 0.0
H2301 H 0.85443 0.59409 0.23329 0.0
H2302 H 0.81628 0.47401 0.19858 0.0
H2303 H 0.80537 0.46436 0.24149 0.0
H2304 H 0.91753 0.55239 0.1978 0.0
H2305 H 0.88729 0.57447 0.19727 0.0
H2306 H 0.8719 0.52787 0.18817 0.0
H2307 H 0.90332 0.53837 0.24965 0.0
H2308 H 0.85323 0.51151 0.25621 0.0
H2309 H 0.87437 0.56198 0.25018 0.0
C2310 C 0.64886 0.0857 0.93057 0.0
C2311 C 0.62938 0.04684 0.93571 0.0
C2312 C 0.6447 0.11622 0.93677 0.0
C2313 C 0.61932 0.10716 0.94809 0.0
C2314 C 0.59892 0.06767 0.95314 0.0
C2315 C 0.60471 0.03812 0.947 0.0
C2316 C 0.66774 0.15826 0.93128 0.0
C2317 C 0.57058 0.05652 0.96485 0.0
C2318 C 0.64141 0.20002 0.96853 0.0
C2319 C 0.6183 0.21185 0.96167 0.0
C2320 C 0.64014 0.16417 0.96486 0.0
C2321 C 0.61415 0.13929 0.95443 0.0
C2322 C 0.58719 0.14882 0.94872 0.0
C2323 C 0.59019 0.18553 0.95222 0.0
C2324 C 0.66983 0.15553 0.97107 0.0
C2325 C 0.55779 0.12222 0.938 0.0
H2326 H 0.66812 0.09246 0.9219 0.0
H2327 H 0.5893 0.00786 0.95091 0.0
H2328 H 0.64675 0.16698 0.92755 0.0
H2329 H 0.68587 0.18022 0.93936 0.0
H2330 H 0.68792 0.1608 0.92293 0.0
H2331 H 0.55725 0.02448 0.96762 0.0
H2332 H 0.5863 0.07592 0.97373 0.0
H2333 H 0.54615 0.0618 0.96234 0.0
H2334 H 0.66357 0.22081 0.9757 0.0
H2335 H 0.57248 0.19495 0.9469 0.0
H2336 H 0.69413 0.16265 0.96377 0.0
H2337 H 0.65567 0.1232 0.97348 0.0
H2338 H 0.68331 0.17391 0.98036 0.0
H2339 H 0.57372 0.12648 0.92834 0.0
H2340 H 0.53415 0.12952 0.93655 0.0
H2341 H 0.54351 0.08995 0.94056 0.0
C2342 C 0.93912 0.58018 0.93731 0.0
C2343 C 0.97607 0.58294 0.93855 0.0
C2344 C 0.90383 0.54612 0.94174 0.0
C2345 C 0.90556 0.51417 0.94764 0.0
C2346 C 0.94285 0.51712 0.94916 0.0
C2347 C 0.97761 0.55135 0.94455 0.0
C2348 C 0.86457 0.54401 0.93989 0.0
C2349 C 0.94597 0.48389 0.95552 0.0
C2350 C 0.81256 0.44031 0.96695 0.0
C2351 C 0.79137 0.41038 0.9571 0.0
C2352 C 0.85082 0.47338 0.96429 0.0
C2353 C 0.86799 0.47671 0.95144 0.0
C2354 C 0.84773 0.44533 0.94176 0.0
C2355 C 0.80979 0.41256 0.94472 0.0
C2356 C 0.87173 0.50588 0.97497 0.0
C2357 C 0.86506 0.44747 0.92797 0.0
H2358 H 0.93769 0.60449 0.93275 0.0
H2359 H 0.00607 0.55336 0.9457 0.0
H2360 H 0.8449 0.51806 0.93317 0.0
H2361 H 0.84905 0.53901 0.94967 0.0
H2362 H 0.86843 0.5719 0.93552 0.0
H2363 H 0.97743 0.49186 0.95669 0.0
H2364 H 0.93152 0.47707 0.96553 0.0
H2365 H 0.92995 0.45592 0.94926 0.0
H2366 H 0.79844 0.43928 0.97646 0.0
H2367 H 0.79374 0.38942 0.93708 0.0
H2368 H 0.87083 0.53294 0.9722 0.0
H2369 H 0.90356 0.51499 0.97575 0.0
H2370 H 0.85748 0.49596 0.98496 0.0
H2371 H 0.86656 0.47273 0.92245 0.0
H2372 H 0.847 0.41919 0.92198 0.0
H2373 H 0.89594 0.45357 0.92876 0.0
C2374 C 0.42779 0.35376 0.9345 0.0
C2375 C 0.42914 0.38947 0.93143 0.0
C2376 C 0.4617 0.35462 0.93937 0.0
C2377 C 0.4974 0.39219 0.94159 0.0
C2378 C 0.49853 0.42842 0.93888 0.0
C2379 C 0.46453 0.4266 0.93362 0.0
C2380 C 0.45959 0.31527 0.94183 0.0
C2381 C 0.53565 0.46902 0.94149 0.0
C2382 C 0.57322 0.38523 0.96296 0.0
C2383 C 0.59766 0.38273 0.95308 0.0
C2384 C 0.54189 0.39105 0.95947 0.0
C2385 C 0.53422 0.39316 0.94575 0.0
C2386 C 0.56003 0.39269 0.93581 0.0
C2387 C 0.59166 0.38803 0.93961 0.0
C2388 C 0.51574 0.39266 0.97041 0.0
C2389 C 0.55268 0.39434 0.92106 0.0
H2390 H 0.4004 0.32507 0.93285 0.0
H2391 H 0.4654 0.45433 0.93149 0.0
H2392 H 0.48167 0.31294 0.93539 0.0
H2393 H 0.46737 0.31421 0.9524 0.0
H2394 H 0.4295 0.28869 0.93969 0.0
H2395 H 0.53065 0.49432 0.93985 0.0
H2396 H 0.54594 0.47108 0.95196 0.0
H2397 H 0.56006 0.4727 0.93478 0.0
H2398 H 0.577 0.38038 0.97333 0.0
H2399 H 0.61057 0.38646 0.93188 0.0
H2400 H 0.48682 0.36364 0.97052 0.0
H2401 H 0.5093 0.41683 0.96854 0.0
H2402 H 0.52973 0.39797 0.98047 0.0
H2403 H 0.52404 0.36706 0.91804 0.0
H2404 H 0.57682 0.39587 0.91464 0.0
H2405 H 0.55008 0.42088 0.91905 0.0
C2406 C 0.61718 0.7533 0.76942 0.0
C2407 C 0.63873 0.73736 0.77493 0.0
C2408 C 0.58407 0.75034 0.77611 0.0
C2409 C 0.57209 0.73078 0.78859 0.0
C2410 C 0.59465 0.71607 0.79446 0.0
C2411 C 0.62771 0.71954 0.78756 0.0
C2412 C 0.56084 0.76658 0.76954 0.0
C2413 C 0.5828 0.69498 0.80773 0.0
C2414 C 0.49137 0.73962 0.80725 0.0
C2415 C 0.45704 0.70555 0.80211 0.0
C2416 C 0.52952 0.74764 0.80344 0.0
C2417 C 0.53295 0.72072 0.79441 0.0
C2418 C 0.49824 0.68494 0.78998 0.0
C2419 C 0.46082 0.6779 0.79386 0.0
C2420 C 0.56588 0.78595 0.80845 0.0
C2421 C 0.50045 0.65505 0.78053 0.0
H2422 H 0.6258 0.7676 0.75975 0.0
H2423 H 0.64446 0.70753 0.79199 0.0
H2424 H 0.53111 0.74114 0.7664 0.0
H2425 H 0.55585 0.78577 0.77677 0.0
H2426 H 0.57632 0.78457 0.76057 0.0
H2427 H 0.60619 0.68998 0.81175 0.0
H2428 H 0.57671 0.71273 0.81524 0.0
H2429 H 0.55488 0.66528 0.80644 0.0
H2430 H 0.48843 0.76105 0.8136 0.0
H2431 H 0.43423 0.65118 0.79004 0.0
H2432 H 0.57846 0.80775 0.80018 0.0
H2433 H 0.58935 0.78001 0.81167 0.0
H2434 H 0.55867 0.80013 0.81697 0.0
H2435 H 0.51223 0.66915 0.77067 0.0
H2436 H 0.47084 0.62728 0.77888 0.0
H2437 H 0.52121 0.64635 0.7845 0.0
C2438 C 0.32082 0.94593 0.78636 0.0
C2439 C 0.30931 0.93889 0.77281 0.0
C2440 C 0.32387 0.91718 0.79368 0.0
C2441 C 0.3154 0.88063 0.78728 0.0
C2442 C 0.30287 0.87294 0.7737 0.0
C2443 C 0.29998 0.90216 0.76663 0.0
C2444 C 0.33723 0.92642 0.80814 0.0
C2445 C 0.29365 0.83429 0.76652 0.0
C2446 C 0.36796 0.8264 0.79695 0.0
C2447 C 0.33719 0.79184 0.80301 0.0
C2448 C 0.36186 0.85674 0.79255 0.0
C2449 C 0.32388 0.85232 0.79419 0.0
C2450 C 0.29351 0.81894 0.80122 0.0
C2451 C 0.3006 0.78896 0.80562 0.0
C2452 C 0.39531 0.89213 0.78532 0.0
C2453 C 0.25277 0.81344 0.80327 0.0
H2454 H 0.32762 0.97403 0.79128 0.0
H2455 H 0.2907 0.89631 0.75621 0.0
H2456 H 0.31675 0.90085 0.81455 0.0
H2457 H 0.36733 0.93054 0.80908 0.0
H2458 H 0.33851 0.95416 0.81205 0.0
H2459 H 0.28154 0.83168 0.75628 0.0
H2460 H 0.32121 0.83293 0.76567 0.0
H2461 H 0.27169 0.8079 0.77234 0.0
H2462 H 0.39652 0.82892 0.7951 0.0
H2463 H 0.27679 0.76222 0.81031 0.0
H2464 H 0.39956 0.92091 0.78947 0.0
H2465 H 0.38753 0.89021 0.77456 0.0
H2466 H 0.42404 0.89302 0.78606 0.0
H2467 H 0.25528 0.8422 0.80659 0.0
H2468 H 0.23499 0.79006 0.81078 0.0
H2469 H 0.23631 0.80411 0.79361 0.0
C2470 C 0.15308 0.41904 0.75847 0.0
C2471 C 0.1123 0.39889 0.76154 0.0
C2472 C 0.18063 0.45358 0.7658 0.0
C2473 C 0.16708 0.46798 0.77655 0.0
C2474 C 0.12613 0.44701 0.77999 0.0
C2475 C 0.09915 0.41287 0.77237 0.0
C2476 C 0.22403 0.47547 0.76173 0.0
C2477 C 0.1107 0.46121 0.79149 0.0
C2478 C 0.2469 0.54747 0.79974 0.0
C2479 C 0.25273 0.58296 0.79418 0.0
C2480 C 0.21811 0.50951 0.79443 0.0
C2481 C 0.1951 0.50726 0.78321 0.0
C2482 C 0.20011 0.54298 0.77783 0.0
C2483 C 0.22867 0.58029 0.78341 0.0
C2484 C 0.21323 0.47198 0.80053 0.0
C2485 C 0.17623 0.54194 0.76587 0.0
H2486 H 0.16343 0.40827 0.75016 0.0
H2487 H 0.06772 0.39706 0.77493 0.0
H2488 H 0.23294 0.50581 0.75807 0.0
H2489 H 0.24313 0.47989 0.7705 0.0
H2490 H 0.2301 0.459 0.75368 0.0
H2491 H 0.07879 0.43937 0.7937 0.0
H2492 H 0.1285 0.46612 0.80068 0.0
H2493 H 0.11392 0.49052 0.78906 0.0
H2494 H 0.2656 0.5493 0.80794 0.0
H2495 H 0.2327 0.60755 0.7791 0.0
H2496 H 0.22384 0.45723 0.79335 0.0
H2497 H 0.18126 0.45006 0.80255 0.0
H2498 H 0.23027 0.4787 0.81004 0.0
H2499 H 0.18281 0.52825 0.75706 0.0
H2500 H 0.18293 0.57246 0.76316 0.0
H2501 H 0.14383 0.52291 0.76795 0.0
C2502 C 0.46371 -0.0001 0.07267 0.0
C2503 C 0.43037 0.99806 0.07884 0.0
C2504 C 0.46218 0.96486 0.06771 0.0
C2505 C 0.42649 0.92709 0.06896 0.0
C2506 C 0.39284 0.92501 0.07525 0.0
C2507 C 0.39519 0.96048 0.08011 0.0
C2508 C 0.49863 0.96827 0.06106 0.0
C2509 C 0.35419 0.88526 0.07681 0.0
C2510 C 0.39966 0.83443 0.04738 0.0
C2511 C 0.40459 0.81046 0.05653 0.0
C2512 C 0.40939 0.8738 0.05094 0.0
C2513 C 0.4241 0.88934 0.06399 0.0
C2514 C 0.43209 0.86643 0.07286 0.0
C2515 C 0.4222 0.82727 0.06903 0.0
C2516 C 0.40084 0.89737 0.04111 0.0
C2517 C 0.44826 0.88202 0.0868 0.0
H2518 H 0.491 0.02882 0.07157 0.0
H2519 H 0.36926 0.95874 0.08482 0.0
H2520 H 0.50809 0.9499 0.06645 0.0
H2521 H 0.49141 0.95615 0.05061 0.0
H2522 H 0.52408 -9e-05 0.06084 0.0
H2523 H 0.3307 0.88883 0.08184 0.0
H2524 H 0.34296 0.87067 0.06682 0.0
H2525 H 0.35935 0.86457 0.08276 0.0
H2526 H 0.38542 0.82152 0.03781 0.0
H2527 H 0.42628 0.80896 0.07612 0.0
H2528 H 0.42564 0.92925 0.04093 0.0
H2529 H 0.3735 0.89722 0.04428 0.0
H2530 H 0.3961 0.88426 0.03078 0.0
H2531 H 0.47411 0.91335 0.08647 0.0
H2532 H 0.45765 0.86292 0.09177 0.0
H2533 H 0.42487 0.88256 0.09304 0.0
C2534 C 0.06883 0.46227 0.07212 0.0
C2535 C 0.03152 0.45875 0.0711 0.0
C2536 C 0.10332 0.49613 0.06721 0.0
C2537 C 0.10034 0.52712 0.06111 0.0
C2538 C 0.06264 0.52324 0.05972 0.0
C2539 C 0.02867 0.48914 0.06477 0.0
C2540 C 0.1431 0.4992 0.06885 0.0
C2541 C 0.0583 0.5555 0.05318 0.0
C2542 C 0.19678 0.62726 0.06403 0.0
C2543 C 0.21544 0.62789 0.05187 0.0
C2544 C 0.1579 0.596 0.06677 0.0
C2545 C 0.13725 0.56469 0.05711 0.0
C2546 C 0.15442 0.56732 0.04431 0.0
C2547 C 0.19352 0.59897 0.04184 0.0
C2548 C 0.14043 0.5947 0.08047 0.0
C2549 C 0.13308 0.53494 0.03363 0.0
H2550 H 0.07122 0.43882 0.07692 0.0
H2551 H -0.00014 0.4865 0.06381 0.0
H2552 H 0.15817 0.50413 0.05898 0.0
H2553 H 0.16274 0.52551 0.07544 0.0
H2554 H 0.14009 0.47173 0.07326 0.0
H2555 H 0.02655 0.54635 0.05186 0.0
H2556 H 0.07328 0.58357 0.05943 0.0
H2557 H 0.0731 0.56275 0.04323 0.0
H2558 H 0.21356 0.64984 0.07176 0.0
H2559 H 0.20789 0.59899 0.03249 0.0
H2560 H 0.13982 0.57043 0.08634 0.0
H2561 H 0.10924 0.58766 0.0796 0.0
H2562 H 0.15804 0.62365 0.08617 0.0
H2563 H 0.13509 0.50829 0.0361 0.0
H2564 H 0.14649 0.54539 0.02356 0.0
H2565 H 0.10099 0.52505 0.0332 0.0
C2566 C 0.52458 0.59776 0.07815 0.0
C2567 C 0.52439 0.56227 0.07491 0.0
C2568 C 0.49641 0.60535 0.0726 0.0
C2569 C 0.46701 0.57659 0.06367 0.0
C2570 C 0.46632 0.54048 0.06046 0.0
C2571 C 0.49509 0.5338 0.06608 0.0
C2572 C 0.49821 0.64431 0.07628 0.0
C2573 C 0.43522 0.50897 0.0511 0.0
C2574 C 0.37741 0.58862 0.06255 0.0
C2575 C 0.38631 0.61338 0.05145 0.0
C2576 C 0.40175 0.57357 0.06601 0.0
C2577 C 0.43615 0.584 0.05827 0.0
C2578 C 0.44335 0.60608 0.04637 0.0
C2579 C 0.41812 0.62042 0.04305 0.0
C2580 C 0.39241 0.54938 0.0786 0.0
C2581 C 0.47956 0.61763 0.03779 0.0
H2582 H 0.54723 0.62006 0.08487 0.0
H2583 H 0.49477 0.50632 0.06348 0.0
H2584 H 0.50099 0.66107 0.06707 0.0
H2585 H 0.47017 0.63774 0.08136 0.0
H2586 H 0.52369 0.66408 0.08302 0.0
H2587 H 0.43905 0.48271 0.04948 0.0
H2588 H 0.40496 0.49809 0.05522 0.0
H2589 H 0.43671 0.52234 0.04124 0.0
H2590 H 0.35253 0.58281 0.06898 0.0
H2591 H 0.42524 0.63979 0.03452 0.0
H2592 H 0.41395 0.56831 0.08659 0.0
H2593 H 0.39552 0.52278 0.0768 0.0
H2594 H 0.36177 0.53887 0.08232 0.0
H2595 H 0.50647 0.6422 0.04294 0.0
H2596 H 0.47715 0.62838 0.02782 0.0
H2597 H 0.48403 0.59179 0.0363 0.0
C2598 C 0.12289 0.66621 0.57623 0.0
C2599 C 0.08514 0.63255 0.57853 0.0
C2600 C 0.15276 0.6621 0.56996 0.0
C2601 C 0.14425 0.62339 0.56552 0.0
C2602 C 0.10608 0.58915 0.56784 0.0
C2603 C 0.07698 0.5941 0.57449 0.0
C2604 C 0.19343 0.69938 0.56803 0.0
C2605 C 0.09549 0.54768 0.56287 0.0
C2606 C 0.22344 0.64195 0.54025 0.0
C2607 C 0.25248 0.64358 0.54874 0.0
C2608 C 0.18509 0.62961 0.54513 0.0
C2609 C 0.17633 0.61973 0.55883 0.0
C2610 C 0.20375 0.61601 0.56683 0.0
C2611 C 0.24146 0.62767 0.56163 0.0
C2612 C 0.15583 0.632 0.53609 0.0
C2613 C 0.19559 0.60521 0.58144 0.0
H2614 H 0.12904 0.6959 0.57935 0.0
H2615 H 0.04739 0.56816 0.57605 0.0
H2616 H 0.21679 0.69527 0.57258 0.0
H2617 H 0.20014 0.70445 0.55717 0.0
H2618 H 0.19552 0.72684 0.5726 0.0
H2619 H 0.06691 0.52365 0.56718 0.0
H2620 H 0.0925 0.54603 0.55179 0.0
H2621 H 0.11938 0.54153 0.5653 0.0
H2622 H 0.23163 0.65408 0.53029 0.0
H2623 H 0.26364 0.628 0.56813 0.0
H2624 H 0.15736 0.66109 0.53798 0.0
H2625 H 0.12485 0.60736 0.53814 0.0
H2626 H 0.16274 0.63032 0.52533 0.0
H2627 H 0.19973 0.63177 0.58734 0.0
H2628 H 0.21616 0.59629 0.58549 0.0
H2629 H 0.16443 0.58025 0.58295 0.0
C2630 C 0.39338 0.517 0.57539 0.0
C2631 C 0.42194 0.50585 0.57657 0.0
C2632 C 0.40281 0.5531 0.56932 0.0
C2633 C 0.44156 0.57828 0.56399 0.0
C2634 C 0.4707 0.56733 0.56523 0.0
C2635 C 0.46063 0.53136 0.57165 0.0
C2636 C 0.37104 0.56404 0.5685 0.0
C2637 C 0.51193 0.59278 0.55938 0.0
C2638 C 0.4349 0.64588 0.53897 0.0
C2639 C 0.44288 0.6789 0.5473 0.0
C2640 C 0.43912 0.61452 0.54378 0.0
C2641 C 0.45084 0.61606 0.55728 0.0
C2642 C 0.46384 0.65166 0.5651 0.0
C2643 C 0.46014 0.68288 0.55994 0.0
C2644 C 0.42657 0.57779 0.53491 0.0
C2645 C 0.47682 0.65486 0.5795 0.0
H2646 H 0.36348 0.49733 0.57919 0.0
H2647 H 0.48261 0.52245 0.57235 0.0
H2648 H 0.38207 0.59435 0.57311 0.0
H2649 H 0.36404 0.56533 0.55784 0.0
H2650 H 0.34301 0.54204 0.57364 0.0
H2651 H 0.53228 0.58232 0.56236 0.0
H2652 H 0.50987 0.59148 0.54827 0.0
H2653 H 0.52526 0.62483 0.56256 0.0
H2654 H 0.4216 0.64237 0.52921 0.0
H2655 H 0.4671 0.70869 0.56637 0.0
H2656 H 0.39567 0.55401 0.53751 0.0
H2657 H 0.44621 0.56546 0.53644 0.0
H2658 H 0.42716 0.58473 0.52413 0.0
H2659 H 0.45009 0.63693 0.58584 0.0
H2660 H 0.49273 0.68655 0.58334 0.0
H2661 H 0.49654 0.64246 0.58063 0.0
C2662 C 0.57024 0.98343 0.56973 0.0
C2663 C 0.58304 0.02386 0.56749 0.0
C2664 C 0.53497 0.95225 0.56396 0.0
C2665 C 0.51161 0.96166 0.5558 0.0
C2666 C 0.52373 0.00241 0.55376 0.0
C2667 C 0.55948 0.0331 0.55959 0.0
C2668 C 0.5231 0.90912 0.56644 0.0
C2669 C 0.49965 0.01367 0.54516 0.0
C2670 C 0.44783 0.87049 0.53399 0.0
C2671 C 0.4156 0.84863 0.54266 0.0
C2672 C 0.47769 0.91021 0.53729 0.0
C2673 C 0.47483 0.9281 0.54948 0.0
C2674 C 0.43937 0.90825 0.55713 0.0
C2675 C 0.41018 0.86848 0.55367 0.0
C2676 C 0.51462 0.93068 0.52867 0.0
C2677 C 0.43447 0.92688 0.56993 0.0
H2678 H 0.58823 0.97603 0.57582 0.0
H2679 H 0.56929 0.06432 0.55773 0.0
H2680 H 0.4933 0.89282 0.57126 0.0
H2681 H 0.52095 0.89334 0.55676 0.0
H2682 H 0.54472 0.90704 0.57297 0.0
H2683 H 0.50898 0.04589 0.54659 0.0
H2684 H 0.50381 0.0084 0.53444 0.0
H2685 H 0.46734 0.99469 0.54742 0.0
H2686 H 0.45224 0.85528 0.52548 0.0
H2687 H 0.38486 0.85175 0.56027 0.0
H2688 H 0.53834 0.92721 0.53326 0.0
H2689 H 0.52609 0.9634 0.52801 0.0
H2690 H 0.50882 0.91725 0.51837 0.0
H2691 H 0.45154 0.92357 0.57808 0.0
H2692 H 0.40269 0.91198 0.57304 0.0
H2693 H 0.44636 0.95955 0.56876 0.0
C2694 C 0.31924 0.41871 0.26936 0.0
C2695 C 0.29037 0.37783 0.2677 0.0
C2696 C 0.30937 0.44583 0.27504 0.0
C2697 C 0.26981 0.43148 0.27952 0.0
C2698 C 0.2406 0.39003 0.27808 0.0
C2699 C 0.25112 0.3637 0.272 0.0
C2700 C 0.34131 0.48998 0.27614 0.0
C2701 C 0.19856 0.37348 0.28313 0.0
C2702 C 0.27268 0.51139 0.30255 0.0
C2703 C 0.26658 0.53426 0.29327 0.0
C2704 C 0.26881 0.47446 0.29865 0.0
C2705 C 0.25946 0.46082 0.28513 0.0
C2706 C 0.24819 0.48117 0.27627 0.0
C2707 C 0.25142 0.51744 0.28053 0.0
C2708 C 0.27938 0.45272 0.30858 0.0
C2709 C 0.23793 0.46779 0.26178 0.0
H2710 H 0.34957 0.42961 0.26605 0.0
H2711 H 0.22891 0.33188 0.27093 0.0
H2712 H 0.33171 0.50831 0.27078 0.0
H2713 H 0.34602 0.50012 0.28681 0.0
H2714 H 0.37029 0.49627 0.27188 0.0
H2715 H 0.17929 0.34053 0.28113 0.0
H2716 H 0.1991 0.37933 0.2941 0.0
H2717 H 0.1849 0.38901 0.27835 0.0
H2718 H 0.28438 0.52399 0.31241 0.0
H2719 H 0.24592 0.53464 0.27337 0.0
H2720 H 0.31095 0.46139 0.3071 0.0
H2721 H 0.26052 0.41956 0.30709 0.0
H2722 H 0.27592 0.46073 0.31908 0.0
H2723 H 0.26577 0.47628 0.25617 0.0
H2724 H 0.22312 0.4822 0.25696 0.0
H2725 H 0.21815 0.4346 0.26084 0.0
C2726 C 0.64386 0.84706 0.27869 0.0
C2727 C 0.64013 0.87572 0.27155 0.0
C2728 C 0.61028 0.81337 0.28418 0.0
C2729 C 0.57208 0.80814 0.28241 0.0
C2730 C 0.56814 0.83689 0.27516 0.0
C2731 C 0.60218 0.87032 0.26985 0.0
C2732 C 0.61563 0.78349 0.29191 0.0
C2733 C 0.52787 0.83234 0.273 0.0
C2734 C 0.4749 0.70818 0.28282 0.0
C2735 C 0.4574 0.71219 0.29465 0.0
C2736 C 0.51379 0.73776 0.27921 0.0
C2737 C 0.53571 0.77213 0.28767 0.0
C2738 C 0.51973 0.77425 0.30029 0.0
C2739 C 0.48057 0.74429 0.3036 0.0
C2740 C 0.52983 0.734 0.26576 0.0
C2741 C 0.54237 0.80999 0.30973 0.0
H2742 H 0.67312 0.85114 0.28015 0.0
H2743 H 0.59902 0.89234 0.26438 0.0
H2744 H 0.60365 0.78086 0.30222 0.0
H2745 H 0.5985 0.75319 0.28703 0.0
H2746 H 0.64744 0.79225 0.29258 0.0
H2747 H 0.52997 0.85755 0.26725 0.0
H2748 H 0.50795 0.80364 0.26748 0.0
H2749 H 0.51363 0.83104 0.28281 0.0
H2750 H 0.45718 0.68322 0.27591 0.0
H2751 H 0.46712 0.74801 0.31265 0.0
H2752 H 0.56129 0.74191 0.26664 0.0
H2753 H 0.52919 0.75539 0.25872 0.0
H2754 H 0.51193 0.70307 0.26134 0.0
H2755 H 0.57435 0.81947 0.31018 0.0
H2756 H 0.52979 0.8033 0.32004 0.0
H2757 H 0.54063 0.83579 0.30602 0.0
C2758 C 0.16708 0.75633 0.26046 0.0
C2759 C 0.16827 0.7928 0.2626 0.0
C2760 C 0.1921 0.74751 0.26765 0.0
C2761 C 0.21916 0.77591 0.27721 0.0
C2762 C 0.2205 0.81276 0.27946 0.0
C2763 C 0.19503 0.82079 0.27213 0.0
C2764 C 0.18976 0.70783 0.26492 0.0
C2765 C 0.24902 0.84378 0.28954 0.0
C2766 C 0.25912 0.72915 0.30057 0.0
C2767 C 0.29268 0.73529 0.29337 0.0
C2768 C 0.23627 0.74505 0.29604 0.0
C2769 C 0.24755 0.76757 0.28411 0.0
C2770 C 0.28368 0.77714 0.27765 0.0
C2771 C 0.30569 0.76072 0.28234 0.0
C2772 C 0.19823 0.73462 0.30333 0.0
C2773 C 0.29728 0.80162 0.26506 0.0
H2774 H 0.14635 0.7344 0.2532 0.0
H2775 H 0.19601 0.84897 0.27392 0.0
H2776 H 0.21878 0.7134 0.26098 0.0
H2777 H 0.18377 0.69114 0.27438 0.0
H2778 H 0.16607 0.6884 0.25755 0.0
H2779 H 0.245 0.87006 0.2906 0.0
H2780 H 0.2448 0.82998 0.2995 0.0
H2781 H 0.28022 0.85473 0.28641 0.0
H2782 H 0.24891 0.70932 0.30907 0.0
H2783 H 0.33194 0.76582 0.27684 0.0
H2784 H 0.17244 0.71019 0.29768 0.0
H2785 H 0.19426 0.76094 0.30397 0.0
H2786 H 0.19773 0.72407 0.31363 0.0
H2787 H 0.2778 0.78321 0.25656 0.0
H2788 H 0.3286 0.81132 0.26244 0.0
H2789 H 0.29479 0.82877 0.26621 0.0
loop_
_geom_bond_atom_site_label_1
_geom_bond_atom_site_label_2
_geom_bond_distance
_geom_bond_site_symmetry_2
_ccdc_geom_bond_type
C0 O1 1.160 . S
C0 O7 1.185 . S
O1 C0 1.160 . S
O2 Zn3 1.899 1_565 S
O2 C10 1.284 . S
Zn3 O2 1.899 1_545 S
Zn3 O4 2.032 . S
Zn3 O7 2.086 . S
Zn3 O12 1.977 . S
O4 Zn3 2.032 . S
O4 C8 1.278 . S
C5 O6 1.203 1_545 S
C5 O12 1.267 . S
O6 C5 1.203 1_565 S
O7 C0 1.185 . S
O7 Zn3 2.086 . S
C8 O4 1.278 . S
C8 O9 1.211 1_545 S
O9 C8 1.211 1_565 S
C10 O2 1.284 . S
C10 O11 1.273 . S
O11 C10 1.273 . S
O12 Zn3 1.977 . S
O12 C5 1.267 . S
C13 O14 1.160 . S
C13 O20 1.185 . S
O14 C13 1.160 . S
O15 Zn16 1.899 1_655 S
O15 C23 1.284 . S
Zn16 O15 1.899 1_455 S
Zn16 O17 2.032 . S
Zn16 O20 2.086 . S
Zn16 O25 1.977 . S
O17 Zn16 2.032 . S
O17 C21 1.278 . S
C18 O19 1.203 1_455 S
C18 O25 1.267 . S
O19 C18 1.203 1_655 S
O20 C13 1.185 . S
O20 Zn16 2.086 . S
C21 O17 1.278 . S
C21 O22 1.211 1_455 S
O22 C21 1.211 1_655 S
C23 O15 1.284 . S
C23 O24 1.273 . S
O24 C23 1.273 . S
O25 Zn16 1.977 . S
O25 C18 1.267 . S
C26 O27 1.160 . S
C26 O33 1.185 . S
O27 C26 1.160 . S
O28 Zn29 1.899 . S
O28 C36 1.284 . S
Zn29 O28 1.899 . S
Zn29 O30 2.032 . S
Zn29 O33 2.086 . S
Zn29 O38 1.977 . S
O30 Zn29 2.032 . S
O30 C34 1.278 . S
C31 O32 1.203 . S
C31 O38 1.267 . S
O32 C31 1.203 . S
O33 C26 1.185 . S
O33 Zn29 2.086 . S
C34 O30 1.278 . S
C34 O35 1.211 . S
O35 C34 1.211 . S
C36 O28 1.284 . S
C36 O37 1.273 . S
O37 C36 1.273 . S
O38 Zn29 1.977 . S
O38 C31 1.267 . S
C39 O40 1.160 . S
C39 O46 1.185 . S
O40 C39 1.160 . S
O41 Zn42 1.899 . S
O41 C49 1.284 . S
Zn42 O41 1.899 . S
Zn42 O43 2.032 . S
Zn42 O46 2.086 1_545 S
Zn42 O51 1.977 1_545 S
O43 Zn42 2.032 . S
O43 C47 1.278 . S
C44 O45 1.203 . S
C44 O51 1.267 1_545 S
O45 C44 1.203 . S
O46 C39 1.185 . S
O46 Zn42 2.086 1_565 S
C47 O43 1.278 . S
C47 O48 1.211 . S
O48 C47 1.211 . S
C49 O41 1.284 . S
C49 O50 1.273 . S
O50 C49 1.273 . S
O51 Zn42 1.977 1_565 S
O51 C44 1.267 1_565 S
C52 O53 1.160 . S
C52 O59 1.185 . S
O53 C52 1.160 . S
O54 Zn55 1.899 . S
O54 C62 1.284 . S
Zn55 O54 1.899 . S
Zn55 O56 2.032 . S
Zn55 O59 2.086 1_455 S
Zn55 O64 1.977 1_455 S
O56 Zn55 2.032 . S
O56 C60 1.278 . S
C57 O58 1.203 . S
C57 O64 1.267 1_455 S
O58 C57 1.203 . S
O59 C52 1.185 . S
O59 Zn55 2.086 1_655 S
C60 O56 1.278 . S
C60 O61 1.211 . S
O61 C60 1.211 . S
C62 O54 1.284 . S
C62 O63 1.273 . S
O63 C62 1.273 . S
O64 Zn55 1.977 1_655 S
O64 C57 1.267 1_655 S
C65 O66 1.160 . S
C65 O72 1.185 . S
O66 C65 1.160 . S
O67 Zn68 1.899 . S
O67 C75 1.284 . S
Zn68 O67 1.899 . S
Zn68 O69 2.032 . S
Zn68 O72 2.086 . S
Zn68 O77 1.977 . S
O69 Zn68 2.032 . S
O69 C73 1.278 . S
C70 O71 1.203 . S
C70 O77 1.267 . S
O71 C70 1.203 . S
O72 C65 1.185 . S
O72 Zn68 2.086 . S
C73 O69 1.278 . S
C73 O74 1.211 . S
O74 C73 1.211 . S
C75 O67 1.284 . S
C75 O76 1.273 . S
O76 C75 1.273 . S
O77 Zn68 1.977 . S
O77 C70 1.267 . S
C78 O79 1.160 . S
C78 O85 1.185 . S
O79 C78 1.160 . S
O80 Zn81 1.899 . S
O80 C88 1.284 . S
Zn81 O80 1.899 . S
Zn81 O82 2.032 . S
Zn81 O85 2.086 . S
Zn81 O90 1.977 . S
O82 Zn81 2.032 . S
O82 C86 1.278 . S
C83 O84 1.203 . S
C83 O90 1.267 . S
O84 C83 1.203 . S
O85 C78 1.185 . S
O85 Zn81 2.086 . S
C86 O82 1.278 . S
C86 O87 1.211 . S
O87 C86 1.211 . S
C88 O80 1.284 . S
C88 O89 1.273 . S
O89 C88 1.273 . S
O90 Zn81 1.977 . S
O90 C83 1.267 . S
C91 O92 1.160 . S
C91 O98 1.185 . S
O92 C91 1.160 . S
O93 Zn94 1.899 . S
O93 C101 1.284 . S
Zn94 O93 1.899 . S
Zn94 O95 2.032 . S
Zn94 O98 2.086 . S
Zn94 O103 1.977 . S
O95 Zn94 2.032 . S
O95 C99 1.278 . S
C96 O97 1.203 . S
C96 O103 1.267 . S
O97 C96 1.203 . S
O98 C91 1.185 . S
O98 Zn94 2.086 . S
C99 O95 1.278 . S
C99 O100 1.211 . S
O100 C99 1.211 . S
C101 O93 1.284 . S
C101 O102 1.273 . S
O102 C101 1.273 . S
O103 Zn94 1.977 . S
O103 C96 1.267 . S
C104 O105 1.160 . S
C104 O111 1.185 . S
O105 C104 1.160 . S
O106 Zn107 1.899 . S
O106 C114 1.284 . S
Zn107 O106 1.899 . S
Zn107 O108 2.032 . S
Zn107 O111 2.086 1_655 S
Zn107 O116 1.977 . S
O108 Zn107 2.032 . S
O108 C112 1.278 . S
C109 O110 1.203 . S
C109 O116 1.267 . S
O110 C109 1.203 . S
O111 C104 1.185 . S
O111 Zn107 2.086 1_455 S
C112 O108 1.278 . S
C112 O113 1.211 . S
O113 C112 1.211 . S
C114 O106 1.284 . S
C114 O115 1.273 . S
O115 C114 1.273 . S
O116 Zn107 1.977 . S
O116 C109 1.267 . S
C117 O118 1.160 1_655 S
C117 O124 1.185 . S
O118 C117 1.160 1_455 S
O119 Zn120 1.899 1_455 S
O119 C127 1.284 . S
Zn120 O119 1.899 1_655 S
Zn120 O121 2.032 . S
Zn120 O124 2.086 . S
Zn120 O129 1.977 . S
O121 Zn120 2.032 . S
O121 C125 1.278 . S
C122 O123 1.203 . S
C122 O129 1.267 . S
O123 C122 1.203 . S
O124 C117 1.185 . S
O124 Zn120 2.086 . S
C125 O121 1.278 . S
C125 O126 1.211 . S
O126 C125 1.211 . S
C127 O119 1.284 . S
C127 O128 1.273 . S
O128 C127 1.273 . S
O129 Zn120 1.977 . S
O129 C122 1.267 . S
C130 O131 1.160 . S
C130 O137 1.185 . S
O131 C130 1.160 . S
O132 Zn133 1.899 . S
O132 C140 1.284 . S
Zn133 O132 1.899 . S
Zn133 O134 2.032 . S
Zn133 O137 2.086 . S
Zn133 O142 1.977 . S
O134 Zn133 2.032 . S
O134 C138 1.278 . S
C135 O136 1.203 . S
C135 O142 1.267 . S
O136 C135 1.203 . S
O137 C130 1.185 . S
O137 Zn133 2.086 . S
C138 O134 1.278 . S
C138 O139 1.211 . S
O139 C138 1.211 . S
C140 O132 1.284 . S
C140 O141 1.273 . S
O141 C140 1.273 . S
O142 Zn133 1.977 . S
O142 C135 1.267 . S
C143 O144 1.160 . S
C143 O150 1.185 . S
O144 C143 1.160 . S
O145 Zn146 1.899 . S
O145 C153 1.284 . S
Zn146 O145 1.899 . S
Zn146 O147 2.032 . S
Zn146 O150 2.086 . S
Zn146 O155 1.977 . S
O147 Zn146 2.032 . S
O147 C151 1.278 . S
C148 O149 1.203 . S
C148 O155 1.267 . S
O149 C148 1.203 . S
O150 C143 1.185 . S
O150 Zn146 2.086 . S
C151 O147 1.278 . S
C151 O152 1.211 . S
O152 C151 1.211 . S
C153 O145 1.284 . S
C153 O154 1.273 . S
O154 C153 1.273 . S
O155 Zn146 1.977 . S
O155 C148 1.267 . S
C156 O157 1.160 . S
C156 O163 1.185 . S
O157 C156 1.160 . S
O158 Zn159 1.899 . S
O158 C166 1.284 . S
Zn159 O158 1.899 . S
Zn159 O160 2.032 . S
Zn159 O163 2.086 . S
Zn159 O168 1.977 . S
O160 Zn159 2.032 . S
O160 C164 1.278 . S
C161 O162 1.203 . S
C161 O168 1.267 . S
O162 C161 1.203 . S
O163 C156 1.185 . S
O163 Zn159 2.086 . S
C164 O160 1.278 . S
C164 O165 1.211 . S
O165 C164 1.211 . S
C166 O158 1.284 . S
C166 O167 1.273 . S
O167 C166 1.273 . S
O168 Zn159 1.977 . S
O168 C161 1.267 . S
C169 O170 1.160 . S
C169 O176 1.185 . S
O170 C169 1.160 . S
O171 Zn172 1.899 . S
O171 C179 1.284 . S
Zn172 O171 1.899 . S
Zn172 O173 2.032 . S
Zn172 O176 2.086 . S
Zn172 O181 1.977 . S
O173 Zn172 2.032 . S
O173 C177 1.278 . S
C174 O175 1.203 . S
C174 O181 1.267 . S
O175 C174 1.203 . S
O176 C169 1.185 . S
O176 Zn172 2.086 . S
C177 O173 1.278 . S
C177 O178 1.211 . S
O178 C177 1.211 . S
C179 O171 1.284 . S
C179 O180 1.273 . S
O180 C179 1.273 . S
O181 Zn172 1.977 . S
O181 C174 1.267 . S
C182 O183 1.160 1_565 S
C182 O189 1.185 . S
O183 C182 1.160 1_545 S
O184 Zn185 1.899 1_545 S
O184 C192 1.284 . S
Zn185 O184 1.899 1_565 S
Zn185 O186 2.032 . S
Zn185 O189 2.086 . S
Zn185 O194 1.977 . S
O186 Zn185 2.032 . S
O186 C190 1.278 . S
C187 O188 1.203 . S
C187 O194 1.267 . S
O188 C187 1.203 . S
O189 C182 1.185 . S
O189 Zn185 2.086 . S
C190 O186 1.278 . S
C190 O191 1.211 . S
O191 C190 1.211 . S
C192 O184 1.284 . S
C192 O193 1.273 . S
O193 C192 1.273 . S
O194 Zn185 1.977 . S
O194 C187 1.267 . S
C195 O196 1.160 . S
C195 O202 1.185 . S
O196 C195 1.160 . S
O197 Zn198 1.899 . S
O197 C205 1.284 . S
Zn198 O197 1.899 . S
Zn198 O199 2.032 . S
Zn198 O202 2.086 . S
Zn198 O207 1.977 . S
O199 Zn198 2.032 . S
O199 C203 1.278 . S
C200 O201 1.203 . S
C200 O207 1.267 . S
O201 C200 1.203 . S
O202 C195 1.185 . S
O202 Zn198 2.086 . S
C203 O199 1.278 . S
C203 O204 1.211 . S
O204 C203 1.211 . S
C205 O197 1.284 . S
C205 O206 1.273 . S
O206 C205 1.273 . S
O207 Zn198 1.977 . S
O207 C200 1.267 . S
C208 O209 1.160 1_565 S
C208 O215 1.185 . S
O209 C208 1.160 1_545 S
O210 Zn211 1.899 1_545 S
O210 C218 1.284 . S
Zn211 O210 1.899 1_565 S
Zn211 O212 2.032 . S
Zn211 O215 2.086 . S
Zn211 O220 1.977 . S
O212 Zn211 2.032 . S
O212 C216 1.278 . S
C213 O214 1.203 . S
C213 O220 1.267 . S
O214 C213 1.203 . S
O215 C208 1.185 . S
O215 Zn211 2.086 . S
C216 O212 1.278 . S
C216 O217 1.211 . S
O217 C216 1.211 . S
C218 O210 1.284 . S
C218 O219 1.273 . S
O219 C218 1.273 . S
O220 Zn211 1.977 . S
O220 C213 1.267 . S
C221 O222 1.160 . S
C221 O228 1.185 1_655 S
O222 C221 1.160 . S
O223 Zn224 1.899 . S
O223 C231 1.284 . S
Zn224 O223 1.899 . S
Zn224 O225 2.032 . S
Zn224 O228 2.086 . S
Zn224 O233 1.977 . S
O225 Zn224 2.032 . S
O225 C229 1.278 . S
C226 O227 1.203 . S
C226 O233 1.267 . S
O227 C226 1.203 . S
O228 C221 1.185 1_455 S
O228 Zn224 2.086 . S
C229 O225 1.278 . S
C229 O230 1.211 . S
O230 C229 1.211 . S
C231 O223 1.284 . S
C231 O232 1.273 . S
O232 C231 1.273 . S
O233 Zn224 1.977 . S
O233 C226 1.267 . S
Zn234 O240 1.920 1_455 S
Zn234 O246 1.898 1_445 S
Zn234 O249 1.905 . S
Zn235 O243 1.905 1_445 S
Zn235 O244 1.898 . S
Zn235 O252 1.920 1_455 S
Zn236 O239 2.080 . S
Zn236 O242 2.114 1_545 S
Zn236 O245 2.120 . S
Zn236 O247 2.120 1_445 S
Zn236 O248 2.114 . S
Zn236 O251 2.080 1_455 S
C237 O242 1.166 . S
C237 O243 1.182 1_455 S
C238 O244 1.167 . S
C238 O245 1.299 . S
O239 Zn236 2.080 . S
O239 C253 1.305 1_455 S
O240 Zn234 1.920 1_655 S
O240 C253 1.234 . S
C241 O246 1.167 . S
C241 O247 1.299 . S
O242 Zn236 2.114 1_565 S
O242 C237 1.166 . S
O243 Zn235 1.905 1_665 S
O243 C237 1.182 1_655 S
O244 Zn235 1.898 . S
O244 C238 1.167 . S
O245 Zn236 2.120 . S
O245 C238 1.299 . S
O246 Zn234 1.898 1_665 S
O246 C241 1.167 . S
O247 Zn236 2.120 1_665 S
O247 C241 1.299 . S
O248 Zn236 2.114 . S
O248 C250 1.166 . S
O249 Zn234 1.905 . S
O249 C250 1.182 . S
C250 O248 1.166 . S
C250 O249 1.182 . S
O251 Zn236 2.080 1_655 S
O251 C254 1.305 . S
O252 Zn235 1.920 1_655 S
O252 C254 1.234 . S
C253 O239 1.305 1_655 S
C253 O240 1.234 . S
C254 O251 1.305 . S
C254 O252 1.234 . S
Zn255 O261 1.920 1_545 S
Zn255 O267 1.898 . S
Zn255 O270 1.905 1_455 S
Zn256 O264 1.905 . S
Zn256 O265 1.898 1_445 S
Zn256 O273 1.920 1_545 S
Zn257 O260 2.080 1_545 S
Zn257 O263 2.114 . S
Zn257 O266 2.120 1_445 S
Zn257 O268 2.120 . S
Zn257 O269 2.114 1_455 S
Zn257 O272 2.080 . S
C258 O263 1.166 . S
C258 O264 1.182 . S
C259 O265 1.167 . S
C259 O266 1.299 . S
O260 Zn257 2.080 1_565 S
O260 C274 1.305 . S
O261 Zn255 1.920 1_565 S
O261 C274 1.234 . S
C262 O267 1.167 . S
C262 O268 1.299 . S
O263 Zn257 2.114 . S
O263 C258 1.166 . S
O264 Zn256 1.905 . S
O264 C258 1.182 . S
O265 Zn256 1.898 1_665 S
O265 C259 1.167 . S
O266 Zn257 2.120 1_665 S
O266 C259 1.299 . S
O267 Zn255 1.898 . S
O267 C262 1.167 . S
O268 Zn257 2.120 . S
O268 C262 1.299 . S
O269 Zn257 2.114 1_655 S
O269 C271 1.166 . S
O270 Zn255 1.905 1_655 S
O270 C271 1.182 . S
C271 O269 1.166 . S
C271 O270 1.182 . S
O272 Zn257 2.080 . S
O272 C275 1.320 . S
O273 Zn256 1.920 1_565 S
O273 C275 1.237 1_565 S
C274 O260 1.305 . S
C274 O261 1.234 . S
C275 O272 1.320 . S
C275 O273 1.237 1_545 S
Zn276 O282 1.920 1_545 S
Zn276 O288 1.898 . S
Zn276 O291 1.903 1_455 S
Zn277 O285 1.905 . S
Zn277 O286 1.898 1_445 S
Zn277 O294 1.920 . S
Zn278 O281 2.080 1_545 S
Zn278 O284 2.114 . S
Zn278 O287 2.120 1_445 S
Zn278 O289 2.120 . S
Zn278 O290 2.114 1_455 S
Zn278 O293 2.080 . S
C279 O284 1.166 . S
C279 O285 1.182 . S
C280 O286 1.167 . S
C280 O287 1.299 . S
O281 Zn278 2.080 1_565 S
O281 C295 1.305 . S
O282 Zn276 1.920 1_565 S
O282 C295 1.234 . S
C283 O288 1.167 . S
C283 O289 1.299 . S
O284 Zn278 2.114 . S
O284 C279 1.166 . S
O285 Zn277 1.905 . S
O285 C279 1.182 . S
O286 Zn277 1.898 1_665 S
O286 C280 1.167 . S
O287 Zn278 2.120 1_665 S
O287 C280 1.299 . S
O288 Zn276 1.898 . S
O288 C283 1.167 . S
O289 Zn278 2.120 . S
O289 C283 1.299 . S
O290 Zn278 2.114 1_655 S
O290 C292 1.166 . S
O291 Zn276 1.903 1_655 S
O291 C292 1.186 . S
C292 O290 1.166 . S
C292 O291 1.186 . S
O293 Zn278 2.080 . S
O293 C296 1.305 . S
O294 Zn277 1.920 . S
O294 C296 1.234 . S
C295 O281 1.305 . S
C295 O282 1.234 . S
C296 O293 1.305 . S
C296 O294 1.234 . S
Zn297 O303 1.920 . S
Zn297 O309 1.898 1_445 S
Zn297 O312 1.905 . S
Zn298 O306 1.905 1_445 S
Zn298 O307 1.898 . S
Zn298 O315 1.920 1_455 S
Zn299 O302 2.080 . S
Zn299 O305 2.114 1_545 S
Zn299 O308 2.120 . S
Zn299 O310 2.120 1_445 S
Zn299 O311 2.114 . S
Zn299 O314 2.080 1_455 S
C300 O305 1.166 . S
C300 O306 1.182 1_455 S
C301 O307 1.167 . S
C301 O308 1.299 . S
O302 Zn299 2.080 . S
O302 C316 1.305 . S
O303 Zn297 1.920 . S
O303 C316 1.234 . S
C304 O309 1.167 . S
C304 O310 1.299 . S
O305 Zn299 2.114 1_565 S
O305 C300 1.166 . S
O306 Zn298 1.905 1_665 S
O306 C300 1.182 1_655 S
O307 Zn298 1.898 . S
O307 C301 1.167 . S
O308 Zn299 2.120 . S
O308 C301 1.299 . S
O309 Zn297 1.898 1_665 S
O309 C304 1.167 . S
O310 Zn299 2.120 1_665 S
O310 C304 1.299 . S
O311 Zn299 2.114 . S
O311 C313 1.166 . S
O312 Zn297 1.905 . S
O312 C313 1.182 . S
C313 O311 1.166 . S
C313 O312 1.182 . S
O314 Zn299 2.080 1_655 S
O314 C317 1.305 . S
O315 Zn298 1.920 1_655 S
O315 C317 1.234 . S
C316 O302 1.305 . S
C316 O303 1.234 . S
C317 O314 1.305 . S
C317 O315 1.234 . S
Zn318 O324 1.920 . S
Zn318 O330 1.898 . S
Zn318 O333 1.905 . S
Zn319 O327 1.905 . S
Zn319 O328 1.898 . S
Zn319 O336 1.920 . S
Zn320 O323 2.080 . S
Zn320 O326 2.114 . S
Zn320 O329 2.120 . S
Zn320 O331 2.120 . S
Zn320 O332 2.114 . S
Zn320 O335 2.080 . S
C321 O326 1.166 . S
C321 O327 1.182 . S
C322 O328 1.167 . S
C322 O329 1.299 . S
O323 Zn320 2.080 . S
O323 C337 1.305 . S
O324 Zn318 1.920 . S
O324 C337 1.234 . S
C325 O330 1.167 . S
C325 O331 1.299 . S
O326 Zn320 2.114 . S
O326 C321 1.166 . S
O327 Zn319 1.905 . S
O327 C321 1.182 . S
O328 Zn319 1.898 . S
O328 C322 1.167 . S
O329 Zn320 2.120 . S
O329 C322 1.299 . S
O330 Zn318 1.898 . S
O330 C325 1.167 . S
O331 Zn320 2.120 . S
O331 C325 1.299 . S
O332 Zn320 2.114 . S
O332 C334 1.166 . S
O333 Zn318 1.905 . S
O333 C334 1.182 . S
C334 O332 1.166 . S
C334 O333 1.182 . S
O335 Zn320 2.080 . S
O335 C338 1.305 . S
O336 Zn319 1.920 . S
O336 C338 1.234 . S
C337 O323 1.305 . S
C337 O324 1.234 . S
C338 O335 1.305 . S
C338 O336 1.234 . S
Zn339 O345 1.920 . S
Zn339 O351 1.898 . S
Zn339 O354 1.905 . S
Zn340 O348 1.905 . S
Zn340 O349 1.898 . S
Zn340 O357 1.920 . S
Zn341 O344 2.080 . S
Zn341 O347 2.114 . S
Zn341 O350 2.120 . S
Zn341 O352 2.120 . S
Zn341 O353 2.114 . S
Zn341 O356 2.080 . S
C342 O347 1.166 . S
C342 O348 1.182 . S
C343 O349 1.167 . S
C343 O350 1.299 . S
O344 Zn341 2.080 . S
O344 C358 1.305 . S
O345 Zn339 1.920 . S
O345 C358 1.234 . S
C346 O351 1.167 . S
C346 O352 1.299 . S
O347 Zn341 2.114 . S
O347 C342 1.166 . S
O348 Zn340 1.905 . S
O348 C342 1.182 . S
O349 Zn340 1.898 . S
O349 C343 1.167 . S
O350 Zn341 2.120 . S
O350 C343 1.299 . S
O351 Zn339 1.898 . S
O351 C346 1.167 . S
O352 Zn341 2.120 . S
O352 C346 1.299 . S
O353 Zn341 2.114 . S
O353 C355 1.166 . S
O354 Zn339 1.905 . S
O354 C355 1.182 . S
C355 O353 1.166 . S
C355 O354 1.182 . S
O356 Zn341 2.080 . S
O356 C359 1.305 . S
O357 Zn340 1.920 . S
O357 C359 1.234 . S
C358 O344 1.305 . S
C358 O345 1.234 . S
C359 O356 1.305 . S
C359 O357 1.234 . S
Zn360 O366 1.920 . S
Zn360 O372 1.898 . S
Zn360 O375 1.905 . S
Zn361 O369 1.905 . S
Zn361 O370 1.898 . S
Zn361 O378 1.920 . S
Zn362 O365 2.080 . S
Zn362 O368 2.114 . S
Zn362 O371 2.120 . S
Zn362 O373 2.120 . S
Zn362 O374 2.114 . S
Zn362 O377 2.080 . S
C363 O368 1.166 . S
C363 O369 1.182 . S
C364 O370 1.167 . S
C364 O371 1.299 . S
O365 Zn362 2.080 . S
O365 C379 1.305 . S
O366 Zn360 1.920 . S
O366 C379 1.234 . S
C367 O372 1.167 . S
C367 O373 1.299 . S
O368 Zn362 2.114 . S
O368 C363 1.166 . S
O369 Zn361 1.905 . S
O369 C363 1.182 . S
O370 Zn361 1.898 . S
O370 C364 1.167 . S
O371 Zn362 2.120 . S
O371 C364 1.299 . S
O372 Zn360 1.898 . S
O372 C367 1.167 . S
O373 Zn362 2.120 . S
O373 C367 1.299 . S
O374 Zn362 2.114 . S
O374 C376 1.166 . S
O375 Zn360 1.905 . S
O375 C376 1.182 . S
C376 O374 1.166 . S
C376 O375 1.182 . S
O377 Zn362 2.080 . S
O377 C380 1.305 . S
O378 Zn361 1.920 . S
O378 C380 1.234 . S
C379 O365 1.305 . S
C379 O366 1.234 . S
C380 O377 1.305 . S
C380 O378 1.234 . S
Zn381 O387 1.920 . S
Zn381 O393 1.898 . S
Zn381 O396 1.905 . S
Zn382 O390 1.905 . S
Zn382 O391 1.898 . S
Zn382 O399 1.920 . S
Zn383 O386 2.080 . S
Zn383 O389 2.114 . S
Zn383 O392 2.120 . S
Zn383 O394 2.120 . S
Zn383 O395 2.114 . S
Zn383 O398 2.080 . S
C384 O389 1.166 . S
C384 O390 1.182 . S
C385 O391 1.167 . S
C385 O392 1.299 . S
O386 Zn383 2.080 . S
O386 C400 1.305 1_556 S
O387 Zn381 1.920 . S
O387 C400 1.234 . S
C388 O393 1.167 . S
C388 O394 1.299 1_554 S
O389 Zn383 2.114 . S
O389 C384 1.166 . S
O390 Zn382 1.905 . S
O390 C384 1.182 . S
O391 Zn382 1.898 . S
O391 C385 1.167 . S
O392 Zn383 2.120 . S
O392 C385 1.299 . S
O393 Zn381 1.898 . S
O393 C388 1.167 . S
O394 Zn383 2.120 . S
O394 C388 1.299 1_556 S
O395 Zn383 2.114 . S
O395 C397 1.166 1_556 S
O396 Zn381 1.905 . S
O396 C397 1.182 . S
C397 O395 1.166 1_554 S
C397 O396 1.182 . S
O398 Zn383 2.080 . S
O398 C401 1.305 . S
O399 Zn382 1.920 . S
O399 C401 1.234 . S
C400 O386 1.305 1_554 S
C400 O387 1.234 . S
C401 O398 1.305 . S
C401 O399 1.234 . S
Zn402 O408 1.920 . S
Zn402 O414 1.898 . S
Zn402 O417 1.905 . S
Zn403 O411 1.905 . S
Zn403 O412 1.898 . S
Zn403 O420 1.920 . S
Zn404 O407 2.080 . S
Zn404 O410 2.114 . S
Zn404 O413 2.120 . S
Zn404 O415 2.120 . S
Zn404 O416 2.114 . S
Zn404 O419 2.080 . S
C405 O410 1.166 . S
C405 O411 1.182 . S
C406 O412 1.167 . S
C406 O413 1.299 . S
O407 Zn404 2.080 . S
O407 C421 1.305 . S
O408 Zn402 1.920 . S
O408 C421 1.234 . S
C409 O414 1.167 . S
C409 O415 1.299 . S
O410 Zn404 2.114 . S
O410 C405 1.166 . S
O411 Zn403 1.905 . S
O411 C405 1.182 . S
O412 Zn403 1.898 . S
O412 C406 1.167 . S
O413 Zn404 2.120 . S
O413 C406 1.299 . S
O414 Zn402 1.898 . S
O414 C409 1.167 . S
O415 Zn404 2.120 . S
O415 C409 1.299 . S
O416 Zn404 2.114 . S
O416 C418 1.166 . S
O417 Zn402 1.905 . S
O417 C418 1.182 . S
C418 O416 1.166 . S
C418 O417 1.182 . S
O419 Zn404 2.080 . S
O419 C422 1.305 . S
O420 Zn403 1.920 . S
O420 C422 1.234 . S
C421 O407 1.305 . S
C421 O408 1.234 . S
C422 O419 1.305 . S
C422 O420 1.234 . S
Zn423 O429 1.920 . S
Zn423 O435 1.898 . S
Zn423 O438 1.905 . S
Zn424 O432 1.905 . S
Zn424 O433 1.898 . S
Zn424 O441 1.920 . S
Zn425 O428 2.080 . S
Zn425 O431 2.114 . S
Zn425 O434 2.120 . S
Zn425 O436 2.120 . S
Zn425 O437 2.114 . S
Zn425 O440 2.080 . S
C426 O431 1.166 1_556 S
C426 O432 1.182 . S
C427 O433 1.167 . S
C427 O434 1.299 1_556 S
O428 Zn425 2.080 . S
O428 C442 1.305 . S
O429 Zn423 1.920 . S
O429 C442 1.234 . S
C430 O435 1.167 . S
C430 O436 1.299 . S
O431 Zn425 2.114 . S
O431 C426 1.166 1_554 S
O432 Zn424 1.905 . S
O432 C426 1.182 . S
O433 Zn424 1.898 . S
O433 C427 1.167 . S
O434 Zn425 2.120 . S
O434 C427 1.299 1_554 S
O435 Zn423 1.898 . S
O435 C430 1.167 . S
O436 Zn425 2.120 . S
O436 C430 1.299 . S
O437 Zn425 2.114 . S
O437 C439 1.166 . S
O438 Zn423 1.905 . S
O438 C439 1.182 . S
C439 O437 1.166 . S
C439 O438 1.182 . S
O440 Zn425 2.080 . S
O440 C443 1.305 1_554 S
O441 Zn424 1.920 . S
O441 C443 1.234 . S
C442 O428 1.305 . S
C442 O429 1.234 . S
C443 O440 1.305 1_556 S
C443 O441 1.234 . S
Zn444 O450 1.920 . S
Zn444 O456 1.898 . S
Zn444 O459 1.905 . S
Zn445 O453 1.905 . S
Zn445 O454 1.898 . S
Zn445 O462 1.920 . S
Zn446 O449 2.080 . S
Zn446 O452 2.114 . S
Zn446 O455 2.120 . S
Zn446 O457 2.120 . S
Zn446 O458 2.114 . S
Zn446 O461 2.080 . S
C447 O452 1.166 . S
C447 O453 1.182 . S
C448 O454 1.167 . S
C448 O455 1.299 . S
O449 Zn446 2.080 . S
O449 C463 1.305 . S
O450 Zn444 1.920 . S
O450 C463 1.234 . S
C451 O456 1.167 . S
C451 O457 1.299 . S
O452 Zn446 2.114 . S
O452 C447 1.166 . S
O453 Zn445 1.905 . S
O453 C447 1.182 . S
O454 Zn445 1.898 . S
O454 C448 1.167 . S
O455 Zn446 2.120 . S
O455 C448 1.299 . S
O456 Zn444 1.898 . S
O456 C451 1.167 . S
O457 Zn446 2.120 . S
O457 C451 1.299 . S
O458 Zn446 2.114 . S
O458 C460 1.166 . S
O459 Zn444 1.905 . S
O459 C460 1.182 . S
C460 O458 1.166 . S
C460 O459 1.182 . S
O461 Zn446 2.080 . S
O461 C464 1.305 . S
O462 Zn445 1.920 . S
O462 C464 1.234 . S
C463 O449 1.305 . S
C463 O450 1.234 . S
C464 O461 1.305 . S
C464 O462 1.234 . S
Zn465 O471 1.920 . S
Zn465 O477 1.898 . S
Zn465 O480 1.905 . S
Zn466 O474 1.905 . S
Zn466 O475 1.898 . S
Zn466 O483 1.920 . S
Zn467 O470 2.080 . S
Zn467 O473 2.114 . S
Zn467 O476 2.120 . S
Zn467 O478 2.120 . S
Zn467 O479 2.114 . S
Zn467 O482 2.080 . S
C468 O473 1.166 . S
C468 O474 1.182 . S
C469 O475 1.167 . S
C469 O476 1.299 . S
O470 Zn467 2.080 . S
O470 C484 1.305 . S
O471 Zn465 1.920 . S
O471 C484 1.234 . S
C472 O477 1.167 . S
C472 O478 1.299 . S
O473 Zn467 2.114 . S
O473 C468 1.166 . S
O474 Zn466 1.905 . S
O474 C468 1.182 . S
O475 Zn466 1.898 . S
O475 C469 1.167 . S
O476 Zn467 2.120 . S
O476 C469 1.299 . S
O477 Zn465 1.898 . S
O477 C472 1.167 . S
O478 Zn467 2.120 . S
O478 C472 1.299 . S
O479 Zn467 2.114 . S
O479 C481 1.166 . S
O480 Zn465 1.905 . S
O480 C481 1.182 . S
C481 O479 1.166 . S
C481 O480 1.182 . S
O482 Zn467 2.080 . S
O482 C485 1.305 . S
O483 Zn466 1.920 . S
O483 C485 1.234 . S
C484 O470 1.305 . S
C484 O471 1.234 . S
C485 O482 1.305 . S
C485 O483 1.234 . S
C486 C487 1.391 . S
C486 C488 1.394 . S
C486 H502 0.931 . S
C487 C486 1.391 . S
C487 C491 1.376 . S
C488 C486 1.394 . S
C488 C489 1.369 . S
C488 C492 1.531 . S
C489 C488 1.369 . S
C489 C490 1.410 . S
C489 C497 1.503 . S
C490 C489 1.410 . S
C490 C491 1.392 . S
C490 C493 1.511 . S
C491 C487 1.376 . S
C491 C490 1.392 . S
C491 H503 0.929 . S
C492 C488 1.531 . S
C492 H504 0.960 . S
C492 H505 0.962 . S
C492 H506 0.960 . S
C493 C490 1.511 . S
C493 H507 0.961 . S
C493 H508 0.961 . S
C493 H509 0.961 . S
C494 C495 1.370 . S
C494 C496 1.363 . S
C494 H510 0.931 . S
C495 C494 1.370 . S
C495 C499 1.408 . S
C496 C494 1.363 . S
C496 C497 1.370 . S
C496 C500 1.524 . S
C497 C489 1.503 . S
C497 C496 1.370 . S
C497 C498 1.403 . S
C498 C497 1.403 . S
C498 C499 1.404 . S
C498 C501 1.539 . S
C499 C495 1.408 . S
C499 C498 1.404 . S
C499 H511 0.930 . S
C500 C496 1.524 . S
C500 H512 0.956 . S
C500 H513 0.961 . S
C500 H514 0.961 . S
C501 C498 1.539 . S
C501 H515 0.958 . S
C501 H516 0.961 . S
C501 H517 0.960 . S
H502 C486 0.931 . S
H503 C491 0.929 . S
H504 C492 0.960 . S
H505 C492 0.962 . S
H506 C492 0.960 . S
H507 C493 0.961 . S
H508 C493 0.961 . S
H509 C493 0.961 . S
H510 C494 0.931 . S
H511 C499 0.930 . S
H512 C500 0.956 . S
H513 C500 0.961 . S
H514 C500 0.961 . S
H515 C501 0.958 . S
H516 C501 0.961 . S
H517 C501 0.960 . S
C518 C519 1.391 . S
C518 C520 1.394 . S
C518 H534 0.931 . S
C519 C518 1.391 . S
C519 C523 1.376 1_545 S
C520 C518 1.394 . S
C520 C521 1.369 . S
C520 C524 1.531 . S
C521 C520 1.369 . S
C521 C522 1.410 1_545 S
C521 C529 1.503 . S
C522 C521 1.410 1_565 S
C522 C523 1.392 . S
C522 C525 1.511 . S
C523 C519 1.376 1_565 S
C523 C522 1.392 . S
C523 H535 0.929 . S
C524 C520 1.531 . S
C524 H536 0.960 . S
C524 H537 0.962 . S
C524 H538 0.960 . S
C525 C522 1.511 . S
C525 H539 0.961 . S
C525 H540 0.961 . S
C525 H541 0.961 . S
C526 C527 1.370 . S
C526 C528 1.363 . S
C526 H542 0.931 1_545 S
C527 C526 1.370 . S
C527 C531 1.408 . S
C528 C526 1.363 . S
C528 C529 1.370 . S
C528 C532 1.524 1_545 S
C529 C521 1.503 . S
C529 C528 1.370 . S
C529 C530 1.403 . S
C530 C529 1.403 . S
C530 C531 1.404 . S
C530 C533 1.539 . S
C531 C527 1.408 . S
C531 C530 1.404 . S
C531 H543 0.930 . S
C532 C528 1.524 1_565 S
C532 H544 0.956 . S
C532 H545 0.961 . S
C532 H546 0.961 . S
C533 C530 1.539 . S
C533 H547 0.958 . S
C533 H548 0.961 . S
C533 H549 0.960 . S
H534 C518 0.931 . S
H535 C523 0.929 . S
H536 C524 0.960 . S
H537 C524 0.962 . S
H538 C524 0.960 . S
H539 C525 0.961 . S
H540 C525 0.961 . S
H541 C525 0.961 . S
H542 C526 0.931 1_565 S
H543 C531 0.930 . S
H544 C532 0.956 . S
H545 C532 0.961 . S
H546 C532 0.961 . S
H547 C533 0.958 . S
H548 C533 0.961 . S
H549 C533 0.960 . S
C550 C551 1.391 . S
C550 C552 1.394 . S
C550 H566 0.931 . S
C551 C550 1.391 . S
C551 C555 1.376 . S
C552 C550 1.394 . S
C552 C553 1.369 . S
C552 C556 1.531 . S
C553 C552 1.369 . S
C553 C554 1.410 . S
C553 C561 1.503 . S
C554 C553 1.410 . S
C554 C555 1.392 . S
C554 C557 1.511 . S
C555 C551 1.376 . S
C555 C554 1.392 . S
C555 H567 0.929 . S
C556 C552 1.531 . S
C556 H568 0.960 . S
C556 H569 0.962 1_455 S
C556 H570 0.960 . S
C557 C554 1.511 . S
C557 H571 0.961 . S
C557 H572 0.961 . S
C557 H573 0.961 . S
C558 C559 1.361 1_655 S
C558 C560 1.363 . S
C558 H574 0.931 . S
C559 C558 1.361 1_455 S
C559 C563 1.434 . S
C560 C558 1.363 . S
C560 C561 1.370 1_655 S
C560 C564 1.524 . S
C561 C553 1.503 . S
C561 C560 1.370 1_455 S
C561 C562 1.403 . S
C562 C561 1.403 . S
C562 C563 1.404 . S
C562 C565 1.539 . S
C563 C559 1.434 . S
C563 C562 1.404 . S
C563 H575 0.930 . S
C564 C560 1.524 . S
C564 H576 0.956 . S
C564 H577 0.961 . S
C564 H578 0.961 . S
C565 C562 1.539 . S
C565 H579 0.958 . S
C565 H580 0.961 . S
C565 H581 0.960 . S
H566 C550 0.931 . S
H567 C555 0.929 . S
H568 C556 0.960 . S
H569 C556 0.962 1_655 S
H570 C556 0.960 . S
H571 C557 0.961 . S
H572 C557 0.961 . S
H573 C557 0.961 . S
H574 C558 0.931 . S
H575 C563 0.930 . S
H576 C564 0.956 . S
H577 C564 0.961 . S
H578 C564 0.961 . S
H579 C565 0.958 . S
H580 C565 0.961 . S
H581 C565 0.960 . S
C582 C583 1.391 . S
C582 C584 1.394 . S
C582 H598 0.931 . S
C583 C582 1.391 . S
C583 C587 1.376 . S
C584 C582 1.394 . S
C584 C585 1.369 . S
C584 C588 1.531 . S
C585 C584 1.369 . S
C585 C586 1.410 . S
C585 C593 1.503 . S
C586 C585 1.410 . S
C586 C587 1.392 . S
C586 C589 1.511 . S
C587 C583 1.376 . S
C587 C586 1.392 . S
C587 H599 0.929 . S
C588 C584 1.531 . S
C588 H600 0.960 . S
C588 H601 0.962 . S
C588 H602 0.960 . S
C589 C586 1.511 . S
C589 H603 0.961 . S
C589 H604 0.961 . S
C589 H605 0.961 . S
C590 C591 1.370 . S
C590 C592 1.363 . S
C590 H606 0.931 . S
C591 C590 1.370 . S
C591 C595 1.408 . S
C592 C590 1.363 . S
C592 C593 1.370 . S
C592 C596 1.524 . S
C593 C585 1.503 . S
C593 C592 1.370 . S
C593 C594 1.403 . S
C594 C593 1.403 . S
C594 C595 1.404 . S
C594 C597 1.539 . S
C595 C591 1.408 . S
C595 C594 1.404 . S
C595 H607 0.930 . S
C596 C592 1.524 . S
C596 H608 0.956 . S
C596 H609 0.961 . S
C596 H610 0.961 . S
C597 C594 1.539 . S
C597 H611 0.958 . S
C597 H612 0.961 . S
C597 H613 0.960 . S
H598 C582 0.931 . S
H599 C587 0.929 . S
H600 C588 0.960 . S
H601 C588 0.962 . S
H602 C588 0.960 . S
H603 C589 0.961 . S
H604 C589 0.961 . S
H605 C589 0.961 . S
H606 C590 0.931 . S
H607 C595 0.930 . S
H608 C596 0.956 . S
H609 C596 0.961 . S
H610 C596 0.961 . S
H611 C597 0.958 . S
H612 C597 0.961 . S
H613 C597 0.960 . S
C614 C615 1.391 . S
C614 C616 1.394 . S
C614 H630 0.931 . S
C615 C614 1.391 . S
C615 C619 1.376 1_545 S
C616 C614 1.394 . S
C616 C617 1.369 . S
C616 C620 1.531 . S
C617 C616 1.369 . S
C617 C618 1.410 1_545 S
C617 C625 1.503 . S
C618 C617 1.410 1_565 S
C618 C619 1.392 . S
C618 C621 1.511 . S
C619 C615 1.376 1_565 S
C619 C618 1.392 . S
C619 H631 0.929 . S
C620 C616 1.531 . S
C620 H632 0.960 . S
C620 H633 0.962 . S
C620 H634 0.960 . S
C621 C618 1.511 . S
C621 H635 0.961 . S
C621 H636 0.961 . S
C621 H637 0.961 . S
C622 C623 1.370 1_565 S
C622 C624 1.363 1_565 S
C622 H638 0.931 . S
C623 C622 1.370 1_545 S
C623 C627 1.408 . S
C624 C622 1.363 1_545 S
C624 C625 1.370 . S
C624 C628 1.524 1_545 S
C625 C617 1.503 . S
C625 C624 1.370 . S
C625 C626 1.403 . S
C626 C625 1.403 . S
C626 C627 1.404 . S
C626 C629 1.539 . S
C627 C623 1.408 . S
C627 C626 1.404 . S
C627 H639 0.930 . S
C628 C624 1.524 1_565 S
C628 H640 0.956 1_565 S
C628 H641 0.961 . S
C628 H642 0.961 . S
C629 C626 1.539 . S
C629 H643 0.958 . S
C629 H644 0.961 . S
C629 H645 0.960 . S
H630 C614 0.931 . S
H631 C619 0.929 . S
H632 C620 0.960 . S
H633 C620 0.962 . S
H634 C620 0.960 . S
H635 C621 0.961 . S
H636 C621 0.961 . S
H637 C621 0.961 . S
H638 C622 0.931 . S
H639 C627 0.930 . S
H640 C628 0.956 1_545 S
H641 C628 0.961 . S
H642 C628 0.961 . S
H643 C629 0.958 . S
H644 C629 0.961 . S
H645 C629 0.960 . S
C646 C647 1.377 1_455 S
C646 C648 1.394 . S
C646 H662 0.931 . S
C647 C646 1.377 1_655 S
C647 C651 1.399 . S
C648 C646 1.394 . S
C648 C649 1.369 . S
C648 C652 1.531 . S
C649 C648 1.369 . S
C649 C650 1.410 1_455 S
C649 C657 1.503 . S
C650 C649 1.410 1_655 S
C650 C651 1.392 . S
C650 C653 1.511 . S
C651 C647 1.399 . S
C651 C650 1.392 . S
C651 H663 0.929 . S
C652 C648 1.531 . S
C652 H664 0.960 . S
C652 H665 0.962 . S
C652 H666 0.960 . S
C653 C650 1.511 . S
C653 H667 0.961 . S
C653 H668 0.961 . S
C653 H669 0.961 . S
C654 C655 1.370 . S
C654 C656 1.363 . S
C654 H670 0.931 . S
C655 C654 1.370 . S
C655 C659 1.408 . S
C656 C654 1.363 . S
C656 C657 1.370 . S
C656 C660 1.524 . S
C657 C649 1.503 . S
C657 C656 1.370 . S
C657 C658 1.403 . S
C658 C657 1.403 . S
C658 C659 1.404 . S
C658 C661 1.539 1_455 S
C659 C655 1.408 . S
C659 C658 1.404 . S
C659 H671 0.930 . S
C660 C656 1.524 . S
C660 H672 0.956 . S
C660 H673 0.961 . S
C660 H674 0.961 . S
C661 C658 1.539 1_655 S
C661 H675 0.958 1_655 S
C661 H676 0.961 . S
C661 H677 0.960 . S
H662 C646 0.931 . S
H663 C651 0.929 . S
H664 C652 0.960 . S
H665 C652 0.962 . S
H666 C652 0.960 . S
H667 C653 0.961 . S
H668 C653 0.961 . S
H669 C653 0.961 . S
H670 C654 0.931 . S
H671 C659 0.930 . S
H672 C660 0.956 . S
H673 C660 0.961 . S
H674 C660 0.961 . S
H675 C661 0.958 1_455 S
H676 C661 0.961 . S
H677 C661 0.960 . S
C678 C679 1.391 . S
C678 C680 1.394 . S
C678 H694 0.931 . S
C679 C678 1.391 . S
C679 C683 1.376 . S
C680 C678 1.394 . S
C680 C681 1.369 . S
C680 C684 1.531 . S
C681 C680 1.369 . S
C681 C682 1.410 . S
C681 C689 1.503 . S
C682 C681 1.410 . S
C682 C683 1.392 . S
C682 C685 1.511 . S
C683 C679 1.376 . S
C683 C682 1.392 . S
C683 H695 0.929 . S
C684 C680 1.531 . S
C684 H696 0.960 . S
C684 H697 0.962 . S
C684 H698 0.960 . S
C685 C682 1.511 . S
C685 H699 0.961 . S
C685 H700 0.961 . S
C685 H701 0.961 . S
C686 C687 1.370 . S
C686 C688 1.363 . S
C686 H702 0.931 . S
C687 C686 1.370 . S
C687 C691 1.408 . S
C688 C686 1.363 . S
C688 C689 1.370 . S
C688 C692 1.524 . S
C689 C681 1.503 . S
C689 C688 1.370 . S
C689 C690 1.403 . S
C690 C689 1.403 . S
C690 C691 1.404 . S
C690 C693 1.539 . S
C691 C687 1.408 . S
C691 C690 1.404 . S
C691 H703 0.930 . S
C692 C688 1.524 . S
C692 H704 0.956 . S
C692 H705 0.961 . S
C692 H706 0.961 . S
C693 C690 1.539 . S
C693 H707 0.958 . S
C693 H708 0.961 . S
C693 H709 0.960 . S
H694 C678 0.931 . S
H695 C683 0.929 . S
H696 C684 0.960 . S
H697 C684 0.962 . S
H698 C684 0.960 . S
H699 C685 0.961 . S
H700 C685 0.961 . S
H701 C685 0.961 . S
H702 C686 0.931 . S
H703 C691 0.930 . S
H704 C692 0.956 . S
H705 C692 0.961 . S
H706 C692 0.961 . S
H707 C693 0.958 . S
H708 C693 0.961 . S
H709 C693 0.960 . S
C710 C711 1.391 . S
C710 C712 1.394 . S
C710 H726 0.931 . S
C711 C710 1.391 . S
C711 C715 1.376 . S
C712 C710 1.394 . S
C712 C713 1.369 . S
C712 C716 1.531 . S
C713 C712 1.369 . S
C713 C714 1.410 . S
C713 C721 1.503 . S
C714 C713 1.410 . S
C714 C715 1.392 . S
C714 C717 1.511 . S
C715 C711 1.376 . S
C715 C714 1.392 . S
C715 H727 0.929 . S
C716 C712 1.531 . S
C716 H728 0.960 . S
C716 H729 0.962 . S
C716 H730 0.960 . S
C717 C714 1.511 . S
C717 H731 0.961 1_545 S
C717 H732 0.961 1_545 S
C717 H733 0.961 . S
C718 C719 1.370 1_565 S
C718 C720 1.363 . S
C718 H734 0.931 . S
C719 C718 1.370 1_545 S
C719 C723 1.408 . S
C720 C718 1.363 . S
C720 C721 1.370 1_565 S
C720 C724 1.524 . S
C721 C713 1.503 . S
C721 C720 1.370 1_545 S
C721 C722 1.403 . S
C722 C721 1.403 . S
C722 C723 1.404 . S
C722 C725 1.539 . S
C723 C719 1.408 . S
C723 C722 1.404 . S
C723 H735 0.930 . S
C724 C720 1.524 . S
C724 H736 0.956 . S
C724 H737 0.961 . S
C724 H738 0.961 . S
C725 C722 1.539 . S
C725 H739 0.958 . S
C725 H740 0.961 . S
C725 H741 0.960 . S
H726 C710 0.931 . S
H727 C715 0.929 . S
H728 C716 0.960 . S
H729 C716 0.962 . S
H730 C716 0.960 . S
H731 C717 0.961 1_565 S
H732 C717 0.961 1_565 S
H733 C717 0.961 . S
H734 C718 0.931 . S
H735 C723 0.930 . S
H736 C724 0.956 . S
H737 C724 0.961 . S
H738 C724 0.961 . S
H739 C725 0.958 . S
H740 C725 0.961 . S
H741 C725 0.960 . S
C742 C743 1.391 . S
C742 C744 1.394 . S
C742 H758 0.931 . S
C743 C742 1.391 . S
C743 C747 1.376 1_455 S
C744 C742 1.394 . S
C744 C745 1.369 . S
C744 C748 1.531 . S
C745 C744 1.369 . S
C745 C746 1.410 1_455 S
C745 C753 1.503 . S
C746 C745 1.410 1_655 S
C746 C747 1.392 . S
C746 C749 1.511 . S
C747 C743 1.376 1_655 S
C747 C746 1.392 . S
C747 H759 0.929 . S
C748 C744 1.531 . S
C748 H760 0.960 . S
C748 H761 0.962 . S
C748 H762 0.960 . S
C749 C746 1.511 . S
C749 H763 0.961 . S
C749 H764 0.961 . S
C749 H765 0.961 . S
C750 C751 1.370 . S
C750 C752 1.363 . S
C750 H766 0.931 1_455 S
C751 C750 1.370 . S
C751 C755 1.408 . S
C752 C750 1.363 . S
C752 C753 1.370 . S
C752 C756 1.524 1_455 S
C753 C745 1.503 . S
C753 C752 1.370 . S
C753 C754 1.403 . S
C754 C753 1.403 . S
C754 C755 1.404 . S
C754 C757 1.539 . S
C755 C751 1.408 . S
C755 C754 1.404 . S
C755 H767 0.930 . S
C756 C752 1.524 1_655 S
C756 H768 0.956 . S
C756 H769 0.961 . S
C756 H770 0.961 . S
C757 C754 1.539 . S
C757 H771 0.958 . S
C757 H772 0.961 . S
C757 H773 0.960 . S
H758 C742 0.931 . S
H759 C747 0.929 . S
H760 C748 0.960 . S
H761 C748 0.962 . S
H762 C748 0.960 . S
H763 C749 0.961 . S
H764 C749 0.961 . S
H765 C749 0.961 . S
H766 C750 0.931 1_655 S
H767 C755 0.930 . S
H768 C756 0.956 . S
H769 C756 0.961 . S
H770 C756 0.961 . S
H771 C757 0.958 . S
H772 C757 0.961 . S
H773 C757 0.960 . S
C774 C775 1.391 . S
C774 C776 1.394 . S
C774 H790 0.931 . S
C775 C774 1.391 . S
C775 C779 1.376 . S
C776 C774 1.394 . S
C776 C777 1.369 . S
C776 C780 1.531 . S
C777 C776 1.369 . S
C777 C778 1.410 . S
C777 C785 1.503 . S
C778 C777 1.410 . S
C778 C779 1.392 . S
C778 C781 1.511 . S
C779 C775 1.376 . S
C779 C778 1.392 . S
C779 H791 0.929 . S
C780 C776 1.531 . S
C780 H792 0.960 . S
C780 H793 0.962 . S
C780 H794 0.960 . S
C781 C778 1.511 . S
C781 H795 0.961 . S
C781 H796 0.961 . S
C781 H797 0.961 . S
C782 C783 1.370 . S
C782 C784 1.363 . S
C782 H798 0.931 . S
C783 C782 1.370 . S
C783 C787 1.408 . S
C784 C782 1.363 . S
C784 C785 1.370 . S
C784 C788 1.524 . S
C785 C777 1.503 . S
C785 C784 1.370 . S
C785 C786 1.403 . S
C786 C785 1.403 . S
C786 C787 1.404 . S
C786 C789 1.539 . S
C787 C783 1.408 . S
C787 C786 1.404 . S
C787 H799 0.930 . S
C788 C784 1.524 . S
C788 H800 0.956 . S
C788 H801 0.961 . S
C788 H802 0.961 . S
C789 C786 1.539 . S
C789 H803 0.958 . S
C789 H804 0.961 . S
C789 H805 0.960 . S
H790 C774 0.931 . S
H791 C779 0.929 . S
H792 C780 0.960 . S
H793 C780 0.962 . S
H794 C780 0.960 . S
H795 C781 0.961 . S
H796 C781 0.961 . S
H797 C781 0.961 . S
H798 C782 0.931 . S
H799 C787 0.930 . S
H800 C788 0.956 . S
H801 C788 0.961 . S
H802 C788 0.961 . S
H803 C789 0.958 . S
H804 C789 0.961 . S
H805 C789 0.960 . S
C806 C807 1.391 1_565 S
C806 C808 1.394 . S
C806 H822 0.931 . S
C807 C806 1.391 1_545 S
C807 C811 1.376 . S
C808 C806 1.394 . S
C808 C809 1.369 1_565 S
C808 C812 1.531 . S
C809 C808 1.369 1_545 S
C809 C810 1.410 . S
C809 C817 1.503 . S
C810 C809 1.410 . S
C810 C811 1.392 . S
C810 C813 1.511 . S
C811 C807 1.376 . S
C811 C810 1.392 . S
C811 H823 0.929 . S
C812 C808 1.531 . S
C812 H824 0.960 . S
C812 H825 0.962 . S
C812 H826 0.960 . S
C813 C810 1.511 . S
C813 H827 0.961 . S
C813 H828 0.961 . S
C813 H829 0.961 . S
C814 C815 1.370 . S
C814 C816 1.363 . S
C814 H830 0.931 . S
C815 C814 1.370 . S
C815 C819 1.408 1_545 S
C816 C814 1.363 . S
C816 C817 1.370 . S
C816 C820 1.524 . S
C817 C809 1.503 . S
C817 C816 1.370 . S
C817 C818 1.403 1_545 S
C818 C817 1.403 1_565 S
C818 C819 1.404 . S
C818 C821 1.539 . S
C819 C815 1.408 1_565 S
C819 C818 1.404 . S
C819 H831 0.930 . S
C820 C816 1.524 . S
C820 H832 0.956 . S
C820 H833 0.961 . S
C820 H834 0.961 . S
C821 C818 1.539 . S
C821 H835 0.958 . S
C821 H836 0.961 . S
C821 H837 0.960 . S
H822 C806 0.931 . S
H823 C811 0.929 . S
H824 C812 0.960 . S
H825 C812 0.962 . S
H826 C812 0.960 . S
H827 C813 0.961 . S
H828 C813 0.961 . S
H829 C813 0.961 . S
H830 C814 0.931 . S
H831 C819 0.930 . S
H832 C820 0.956 . S
H833 C820 0.961 . S
H834 C820 0.961 . S
H835 C821 0.958 . S
H836 C821 0.961 . S
H837 C821 0.960 . S
C838 C839 1.391 . S
C838 C840 1.394 . S
C838 H854 0.931 . S
C839 C838 1.391 . S
C839 C843 1.376 . S
C840 C838 1.394 . S
C840 C841 1.369 . S
C840 C844 1.531 1_455 S
C841 C840 1.369 . S
C841 C842 1.410 . S
C841 C849 1.503 . S
C842 C841 1.410 . S
C842 C843 1.392 . S
C842 C845 1.511 . S
C843 C839 1.376 . S
C843 C842 1.392 . S
C843 H855 0.929 . S
C844 C840 1.531 1_655 S
C844 H856 0.960 . S
C844 H857 0.962 . S
C844 H858 0.960 . S
C845 C842 1.511 . S
C845 H859 0.961 . S
C845 H860 0.961 . S
C845 H861 0.961 . S
C846 C847 1.370 1_655 S
C846 C848 1.363 . S
C846 H862 0.931 . S
C847 C846 1.370 1_455 S
C847 C851 1.408 . S
C848 C846 1.363 . S
C848 C849 1.370 1_655 S
C848 C852 1.524 . S
C849 C841 1.503 . S
C849 C848 1.370 1_455 S
C849 C850 1.403 . S
C850 C849 1.403 . S
C850 C851 1.404 . S
C850 C853 1.539 . S
C851 C847 1.408 . S
C851 C850 1.404 . S
C851 H863 0.930 . S
C852 C848 1.524 . S
C852 H864 0.956 . S
C852 H865 0.961 . S
C852 H866 0.961 . S
C853 C850 1.539 . S
C853 H867 0.958 . S
C853 H868 0.961 . S
C853 H869 0.960 . S
H854 C838 0.931 . S
H855 C843 0.929 . S
H856 C844 0.960 . S
H857 C844 0.962 . S
H858 C844 0.960 . S
H859 C845 0.961 . S
H860 C845 0.961 . S
H861 C845 0.961 . S
H862 C846 0.931 . S
H863 C851 0.930 . S
H864 C852 0.956 . S
H865 C852 0.961 . S
H866 C852 0.961 . S
H867 C853 0.958 . S
H868 C853 0.961 . S
H869 C853 0.960 . S
C870 C871 1.391 . S
C870 C872 1.394 . S
C870 H886 0.931 . S
C871 C870 1.391 . S
C871 C875 1.376 . S
C872 C870 1.394 . S
C872 C873 1.369 . S
C872 C876 1.531 . S
C873 C872 1.369 . S
C873 C874 1.410 . S
C873 C881 1.503 . S
C874 C873 1.410 . S
C874 C875 1.392 . S
C874 C877 1.511 . S
C875 C871 1.376 . S
C875 C874 1.392 . S
C875 H887 0.929 . S
C876 C872 1.531 . S
C876 H888 0.960 . S
C876 H889 0.962 . S
C876 H890 0.960 . S
C877 C874 1.511 . S
C877 H891 0.961 . S
C877 H892 0.961 . S
C877 H893 0.961 . S
C878 C879 1.370 . S
C878 C880 1.363 . S
C878 H894 0.931 . S
C879 C878 1.370 . S
C879 C883 1.408 . S
C880 C878 1.363 . S
C880 C881 1.370 . S
C880 C884 1.524 . S
C881 C873 1.503 . S
C881 C880 1.370 . S
C881 C882 1.403 . S
C882 C881 1.403 . S
C882 C883 1.404 . S
C882 C885 1.539 . S
C883 C879 1.408 . S
C883 C882 1.404 . S
C883 H895 0.930 . S
C884 C880 1.524 . S
C884 H896 0.956 . S
C884 H897 0.961 . S
C884 H898 0.961 . S
C885 C882 1.539 . S
C885 H899 0.958 . S
C885 H900 0.961 . S
C885 H901 0.960 . S
H886 C870 0.931 . S
H887 C875 0.929 . S
H888 C876 0.960 . S
H889 C876 0.962 . S
H890 C876 0.960 . S
H891 C877 0.961 . S
H892 C877 0.961 . S
H893 C877 0.961 . S
H894 C878 0.931 . S
H895 C883 0.930 . S
H896 C884 0.956 . S
H897 C884 0.961 . S
H898 C884 0.961 . S
H899 C885 0.958 . S
H900 C885 0.961 . S
H901 C885 0.960 . S
C902 C903 1.391 . S
C902 C904 1.394 . S
C902 H918 0.931 . S
C903 C902 1.391 . S
C903 C907 1.376 . S
C904 C902 1.394 . S
C904 C905 1.369 . S
C904 C908 1.531 . S
C905 C904 1.369 . S
C905 C906 1.410 . S
C905 C913 1.503 . S
C906 C905 1.410 . S
C906 C907 1.392 . S
C906 C909 1.511 . S
C907 C903 1.376 . S
C907 C906 1.392 . S
C907 H919 0.929 . S
C908 C904 1.531 . S
C908 H920 0.960 . S
C908 H921 0.962 . S
C908 H922 0.960 . S
C909 C906 1.511 . S
C909 H923 0.961 . S
C909 H924 0.961 . S
C909 H925 0.961 . S
C910 C911 1.370 . S
C910 C912 1.363 . S
C910 H926 0.931 . S
C911 C910 1.370 . S
C911 C915 1.408 . S
C912 C910 1.363 . S
C912 C913 1.370 . S
C912 C916 1.524 . S
C913 C905 1.503 . S
C913 C912 1.370 . S
C913 C914 1.403 . S
C914 C913 1.403 . S
C914 C915 1.404 . S
C914 C917 1.539 . S
C915 C911 1.408 . S
C915 C914 1.404 . S
C915 H927 0.930 . S
C916 C912 1.524 . S
C916 H928 0.956 . S
C916 H929 0.961 . S
C916 H930 0.961 . S
C917 C914 1.539 . S
C917 H931 0.958 . S
C917 H932 0.961 . S
C917 H933 0.960 . S
H918 C902 0.931 . S
H919 C907 0.929 . S
H920 C908 0.960 . S
H921 C908 0.962 . S
H922 C908 0.960 . S
H923 C909 0.961 . S
H924 C909 0.961 . S
H925 C909 0.961 . S
H926 C910 0.931 . S
H927 C915 0.930 . S
H928 C916 0.956 . S
H929 C916 0.961 . S
H930 C916 0.961 . S
H931 C917 0.958 . S
H932 C917 0.961 . S
H933 C917 0.960 . S
C934 C935 1.391 . S
C934 C936 1.394 . S
C934 H950 0.931 . S
C935 C934 1.391 . S
C935 C939 1.376 . S
C936 C934 1.394 . S
C936 C937 1.369 . S
C936 C940 1.531 . S
C937 C936 1.369 . S
C937 C938 1.410 . S
C937 C945 1.503 . S
C938 C937 1.410 . S
C938 C939 1.392 . S
C938 C941 1.511 . S
C939 C935 1.376 . S
C939 C938 1.392 . S
C939 H951 0.929 . S
C940 C936 1.531 . S
C940 H952 0.960 . S
C940 H953 0.962 . S
C940 H954 0.960 . S
C941 C938 1.511 . S
C941 H955 0.961 . S
C941 H956 0.961 . S
C941 H957 0.961 . S
C942 C943 1.370 . S
C942 C944 1.363 . S
C942 H958 0.931 . S
C943 C942 1.370 . S
C943 C947 1.408 . S
C944 C942 1.363 . S
C944 C945 1.370 . S
C944 C948 1.524 . S
C945 C937 1.503 . S
C945 C944 1.370 . S
C945 C946 1.403 . S
C946 C945 1.403 . S
C946 C947 1.404 . S
C946 C949 1.539 . S
C947 C943 1.408 . S
C947 C946 1.404 . S
C947 H959 0.930 . S
C948 C944 1.524 . S
C948 H960 0.956 . S
C948 H961 0.961 . S
C948 H962 0.961 . S
C949 C946 1.539 . S
C949 H963 0.958 . S
C949 H964 0.961 . S
C949 H965 0.960 . S
H950 C934 0.931 . S
H951 C939 0.929 . S
H952 C940 0.960 . S
H953 C940 0.962 . S
H954 C940 0.960 . S
H955 C941 0.961 . S
H956 C941 0.961 . S
H957 C941 0.961 . S
H958 C942 0.931 . S
H959 C947 0.930 . S
H960 C948 0.956 . S
H961 C948 0.961 . S
H962 C948 0.961 . S
H963 C949 0.958 . S
H964 C949 0.961 . S
H965 C949 0.960 . S
C966 C967 1.391 . S
C966 C968 1.394 . S
C966 H982 0.931 . S
C967 C966 1.391 . S
C967 C971 1.376 . S
C968 C966 1.394 . S
C968 C969 1.369 . S
C968 C972 1.531 . S
C969 C968 1.369 . S
C969 C970 1.410 . S
C969 C977 1.503 . S
C970 C969 1.410 . S
C970 C971 1.392 . S
C970 C973 1.511 . S
C971 C967 1.376 . S
C971 C970 1.392 . S
C971 H983 0.929 . S
C972 C968 1.531 . S
C972 H984 0.960 . S
C972 H985 0.962 . S
C972 H986 0.960 . S
C973 C970 1.511 . S
C973 H987 0.961 . S
C973 H988 0.961 . S
C973 H989 0.961 . S
C974 C975 1.370 . S
C974 C976 1.363 . S
C974 H990 0.931 . S
C975 C974 1.370 . S
C975 C979 1.408 . S
C976 C974 1.363 . S
C976 C977 1.370 . S
C976 C980 1.524 . S
C977 C969 1.503 . S
C977 C976 1.370 . S
C977 C978 1.403 . S
C978 C977 1.403 . S
C978 C979 1.404 . S
C978 C981 1.539 . S
C979 C975 1.408 . S
C979 C978 1.404 . S
C979 H991 0.930 . S
C980 C976 1.524 . S
C980 H992 0.956 . S
C980 H993 0.961 . S
C980 H994 0.961 . S
C981 C978 1.539 . S
C981 H995 0.958 . S
C981 H996 0.961 . S
C981 H997 0.960 . S
H982 C966 0.931 . S
H983 C971 0.929 . S
H984 C972 0.960 . S
H985 C972 0.962 . S
H986 C972 0.960 . S
H987 C973 0.961 . S
H988 C973 0.961 . S
H989 C973 0.961 . S
H990 C974 0.931 . S
H991 C979 0.930 . S
H992 C980 0.956 . S
H993 C980 0.961 . S
H994 C980 0.961 . S
H995 C981 0.958 . S
H996 C981 0.961 . S
H997 C981 0.960 . S
C998 C999 1.391 . S
C998 C1000 1.394 . S
C998 H1014 0.931 . S
C999 C998 1.391 . S
C999 C1003 1.376 . S
C1000 C998 1.394 . S
C1000 C1001 1.369 . S
C1000 C1004 1.531 . S
C1001 C1000 1.369 . S
C1001 C1002 1.410 . S
C1001 C1009 1.503 . S
C1002 C1001 1.410 . S
C1002 C1003 1.392 . S
C1002 C1005 1.511 . S
C1003 C999 1.376 . S
C1003 C1002 1.392 . S
C1003 H1015 0.929 . S
C1004 C1000 1.531 . S
C1004 H1016 0.960 . S
C1004 H1017 0.962 . S
C1004 H1018 0.960 . S
C1005 C1002 1.511 . S
C1005 H1019 0.961 . S
C1005 H1020 0.961 . S
C1005 H1021 0.961 . S
C1006 C1007 1.370 . S
C1006 C1008 1.363 . S
C1006 H1022 0.931 . S
C1007 C1006 1.370 . S
C1007 C1011 1.408 . S
C1008 C1006 1.363 . S
C1008 C1009 1.370 . S
C1008 C1012 1.524 . S
C1009 C1001 1.503 . S
C1009 C1008 1.370 . S
C1009 C1010 1.403 . S
C1010 C1009 1.403 . S
C1010 C1011 1.404 . S
C1010 C1013 1.539 . S
C1011 C1007 1.408 . S
C1011 C1010 1.404 . S
C1011 H1023 0.930 . S
C1012 C1008 1.524 . S
C1012 H1024 0.956 . S
C1012 H1025 0.961 . S
C1012 H1026 0.961 . S
C1013 C1010 1.539 . S
C1013 H1027 0.958 . S
C1013 H1028 0.961 . S
C1013 H1029 0.960 . S
H1014 C998 0.931 . S
H1015 C1003 0.929 . S
H1016 C1004 0.960 . S
H1017 C1004 0.962 . S
H1018 C1004 0.960 . S
H1019 C1005 0.961 . S
H1020 C1005 0.961 . S
H1021 C1005 0.961 . S
H1022 C1006 0.931 . S
H1023 C1011 0.930 . S
H1024 C1012 0.956 . S
H1025 C1012 0.961 . S
H1026 C1012 0.961 . S
H1027 C1013 0.958 . S
H1028 C1013 0.961 . S
H1029 C1013 0.960 . S
C1030 C1031 1.391 . S
C1030 C1032 1.394 . S
C1030 H1046 0.931 . S
C1031 C1030 1.391 . S
C1031 C1035 1.376 . S
C1032 C1030 1.394 . S
C1032 C1033 1.369 . S
C1032 C1036 1.531 . S
C1033 C1032 1.369 . S
C1033 C1034 1.410 . S
C1033 C1041 1.503 . S
C1034 C1033 1.410 . S
C1034 C1035 1.392 . S
C1034 C1037 1.511 . S
C1035 C1031 1.376 . S
C1035 C1034 1.392 . S
C1035 H1047 0.929 . S
C1036 C1032 1.531 . S
C1036 H1048 0.960 . S
C1036 H1049 0.962 . S
C1036 H1050 0.960 . S
C1037 C1034 1.511 . S
C1037 H1051 0.961 . S
C1037 H1052 0.961 . S
C1037 H1053 0.961 . S
C1038 C1039 1.370 . S
C1038 C1040 1.363 . S
C1038 H1054 0.931 . S
C1039 C1038 1.370 . S
C1039 C1043 1.408 . S
C1040 C1038 1.363 . S
C1040 C1041 1.370 . S
C1040 C1044 1.524 . S
C1041 C1033 1.503 . S
C1041 C1040 1.370 . S
C1041 C1042 1.403 . S
C1042 C1041 1.403 . S
C1042 C1043 1.404 . S
C1042 C1045 1.539 . S
C1043 C1039 1.408 . S
C1043 C1042 1.404 . S
C1043 H1055 0.930 . S
C1044 C1040 1.524 . S
C1044 H1056 0.956 . S
C1044 H1057 0.961 . S
C1044 H1058 0.961 . S
C1045 C1042 1.539 . S
C1045 H1059 0.958 . S
C1045 H1060 0.961 . S
C1045 H1061 0.960 . S
H1046 C1030 0.931 . S
H1047 C1035 0.929 . S
H1048 C1036 0.960 . S
H1049 C1036 0.962 . S
H1050 C1036 0.960 . S
H1051 C1037 0.961 . S
H1052 C1037 0.961 . S
H1053 C1037 0.961 . S
H1054 C1038 0.931 . S
H1055 C1043 0.930 . S
H1056 C1044 0.956 . S
H1057 C1044 0.961 . S
H1058 C1044 0.961 . S
H1059 C1045 0.958 . S
H1060 C1045 0.961 . S
H1061 C1045 0.960 . S
C1062 C1063 1.391 . S
C1062 C1064 1.394 . S
C1062 H1078 0.931 . S
C1063 C1062 1.391 . S
C1063 C1067 1.376 . S
C1064 C1062 1.394 . S
C1064 C1065 1.369 . S
C1064 C1068 1.531 . S
C1065 C1064 1.369 . S
C1065 C1066 1.410 . S
C1065 C1073 1.503 . S
C1066 C1065 1.410 . S
C1066 C1067 1.392 . S
C1066 C1069 1.511 . S
C1067 C1063 1.376 . S
C1067 C1066 1.392 . S
C1067 H1079 0.929 . S
C1068 C1064 1.531 . S
C1068 H1080 0.960 . S
C1068 H1081 0.962 . S
C1068 H1082 0.960 . S
C1069 C1066 1.511 . S
C1069 H1083 0.961 . S
C1069 H1084 0.961 . S
C1069 H1085 0.961 . S
C1070 C1071 1.370 . S
C1070 C1072 1.363 . S
C1070 H1086 0.931 . S
C1071 C1070 1.370 . S
C1071 C1075 1.408 . S
C1072 C1070 1.363 . S
C1072 C1073 1.370 . S
C1072 C1076 1.524 . S
C1073 C1065 1.503 . S
C1073 C1072 1.370 . S
C1073 C1074 1.403 . S
C1074 C1073 1.403 . S
C1074 C1075 1.404 . S
C1074 C1077 1.539 . S
C1075 C1071 1.408 . S
C1075 C1074 1.404 . S
C1075 H1087 0.930 . S
C1076 C1072 1.524 . S
C1076 H1088 0.956 . S
C1076 H1089 0.961 . S
C1076 H1090 0.961 . S
C1077 C1074 1.539 . S
C1077 H1091 0.958 . S
C1077 H1092 0.961 . S
C1077 H1093 0.960 . S
H1078 C1062 0.931 . S
H1079 C1067 0.929 . S
H1080 C1068 0.960 . S
H1081 C1068 0.962 . S
H1082 C1068 0.960 . S
H1083 C1069 0.961 . S
H1084 C1069 0.961 . S
H1085 C1069 0.961 . S
H1086 C1070 0.931 . S
H1087 C1075 0.930 . S
H1088 C1076 0.956 . S
H1089 C1076 0.961 . S
H1090 C1076 0.961 . S
H1091 C1077 0.958 . S
H1092 C1077 0.961 . S
H1093 C1077 0.960 . S
C1094 C1095 1.391 . S
C1094 C1096 1.394 . S
C1094 H1110 0.931 . S
C1095 C1094 1.391 . S
C1095 C1099 1.376 . S
C1096 C1094 1.394 . S
C1096 C1097 1.369 . S
C1096 C1100 1.531 . S
C1097 C1096 1.369 . S
C1097 C1098 1.410 . S
C1097 C1105 1.503 . S
C1098 C1097 1.410 . S
C1098 C1099 1.392 . S
C1098 C1101 1.511 . S
C1099 C1095 1.376 . S
C1099 C1098 1.392 . S
C1099 H1111 0.929 . S
C1100 C1096 1.531 . S
C1100 H1112 0.960 . S
C1100 H1113 0.962 . S
C1100 H1114 0.960 . S
C1101 C1098 1.511 . S
C1101 H1115 0.961 . S
C1101 H1116 0.961 . S
C1101 H1117 0.961 . S
C1102 C1103 1.370 . S
C1102 C1104 1.363 . S
C1102 H1118 0.931 . S
C1103 C1102 1.370 . S
C1103 C1107 1.408 . S
C1104 C1102 1.363 . S
C1104 C1105 1.370 . S
C1104 C1108 1.524 . S
C1105 C1097 1.503 . S
C1105 C1104 1.370 . S
C1105 C1106 1.403 . S
C1106 C1105 1.403 . S
C1106 C1107 1.404 . S
C1106 C1109 1.539 . S
C1107 C1103 1.408 . S
C1107 C1106 1.404 . S
C1107 H1119 0.930 . S
C1108 C1104 1.524 . S
C1108 H1120 0.956 . S
C1108 H1121 0.961 . S
C1108 H1122 0.961 . S
C1109 C1106 1.539 . S
C1109 H1123 0.958 . S
C1109 H1124 0.961 . S
C1109 H1125 0.960 . S
H1110 C1094 0.931 . S
H1111 C1099 0.929 . S
H1112 C1100 0.960 . S
H1113 C1100 0.962 . S
H1114 C1100 0.960 . S
H1115 C1101 0.961 . S
H1116 C1101 0.961 . S
H1117 C1101 0.961 . S
H1118 C1102 0.931 . S
H1119 C1107 0.930 . S
H1120 C1108 0.956 . S
H1121 C1108 0.961 . S
H1122 C1108 0.961 . S
H1123 C1109 0.958 . S
H1124 C1109 0.961 . S
H1125 C1109 0.960 . S
C1126 C1127 1.391 . S
C1126 C1128 1.394 . S
C1126 H1142 0.931 . S
C1127 C1126 1.391 . S
C1127 C1131 1.376 . S
C1128 C1126 1.394 . S
C1128 C1129 1.369 . S
C1128 C1132 1.531 . S
C1129 C1128 1.369 . S
C1129 C1130 1.410 . S
C1129 C1137 1.503 . S
C1130 C1129 1.410 . S
C1130 C1131 1.392 . S
C1130 C1133 1.511 . S
C1131 C1127 1.376 . S
C1131 C1130 1.392 . S
C1131 H1143 0.929 . S
C1132 C1128 1.531 . S
C1132 H1144 0.960 . S
C1132 H1145 0.962 . S
C1132 H1146 0.960 . S
C1133 C1130 1.511 . S
C1133 H1147 0.961 . S
C1133 H1148 0.961 . S
C1133 H1149 0.961 . S
C1134 C1135 1.370 . S
C1134 C1136 1.363 . S
C1134 H1150 0.931 . S
C1135 C1134 1.370 . S
C1135 C1139 1.408 . S
C1136 C1134 1.363 . S
C1136 C1137 1.370 . S
C1136 C1140 1.524 . S
C1137 C1129 1.503 . S
C1137 C1136 1.370 . S
C1137 C1138 1.403 . S
C1138 C1137 1.403 . S
C1138 C1139 1.404 . S
C1138 C1141 1.539 . S
C1139 C1135 1.408 . S
C1139 C1138 1.404 . S
C1139 H1151 0.930 . S
C1140 C1136 1.524 . S
C1140 H1152 0.956 . S
C1140 H1153 0.961 . S
C1140 H1154 0.961 . S
C1141 C1138 1.539 . S
C1141 H1155 0.958 . S
C1141 H1156 0.961 . S
C1141 H1157 0.960 . S
H1142 C1126 0.931 . S
H1143 C1131 0.929 . S
H1144 C1132 0.960 . S
H1145 C1132 0.962 . S
H1146 C1132 0.960 . S
H1147 C1133 0.961 . S
H1148 C1133 0.961 . S
H1149 C1133 0.961 . S
H1150 C1134 0.931 . S
H1151 C1139 0.930 . S
H1152 C1140 0.956 . S
H1153 C1140 0.961 . S
H1154 C1140 0.961 . S
H1155 C1141 0.958 . S
H1156 C1141 0.961 . S
H1157 C1141 0.960 . S
C1158 C1159 1.391 . S
C1158 C1160 1.394 . S
C1158 H1174 0.931 . S
C1159 C1158 1.391 . S
C1159 C1163 1.376 . S
C1160 C1158 1.394 . S
C1160 C1161 1.369 . S
C1160 C1164 1.531 . S
C1161 C1160 1.369 . S
C1161 C1162 1.410 . S
C1161 C1169 1.503 . S
C1162 C1161 1.410 . S
C1162 C1163 1.392 . S
C1162 C1165 1.511 . S
C1163 C1159 1.376 . S
C1163 C1162 1.392 . S
C1163 H1175 0.929 . S
C1164 C1160 1.531 . S
C1164 H1176 0.960 . S
C1164 H1177 0.962 . S
C1164 H1178 0.960 . S
C1165 C1162 1.511 . S
C1165 H1179 0.961 . S
C1165 H1180 0.961 . S
C1165 H1181 0.961 . S
C1166 C1167 1.370 . S
C1166 C1168 1.363 . S
C1166 H1182 0.931 . S
C1167 C1166 1.370 . S
C1167 C1171 1.408 . S
C1168 C1166 1.363 . S
C1168 C1169 1.370 . S
C1168 C1172 1.524 . S
C1169 C1161 1.503 . S
C1169 C1168 1.370 . S
C1169 C1170 1.403 . S
C1170 C1169 1.403 . S
C1170 C1171 1.404 . S
C1170 C1173 1.539 . S
C1171 C1167 1.408 . S
C1171 C1170 1.404 . S
C1171 H1183 0.944 . S
C1172 C1168 1.524 . S
C1172 H1184 0.956 . S
C1172 H1185 0.961 . S
C1172 H1186 0.961 . S
C1173 C1170 1.539 . S
C1173 H1187 0.958 . S
C1173 H1188 0.961 . S
C1173 H1189 0.960 . S
H1174 C1158 0.931 . S
H1175 C1163 0.929 . S
H1176 C1164 0.960 . S
H1177 C1164 0.962 . S
H1178 C1164 0.960 . S
H1179 C1165 0.961 . S
H1180 C1165 0.961 . S
H1181 C1165 0.961 . S
H1182 C1166 0.931 . S
H1183 C1171 0.944 . S
H1184 C1172 0.956 . S
H1185 C1172 0.961 . S
H1186 C1172 0.961 . S
H1187 C1173 0.958 . S
H1188 C1173 0.961 . S
H1189 C1173 0.960 . S
C1190 C1191 1.391 . S
C1190 C1192 1.394 . S
C1190 H1206 0.931 . S
C1191 C1190 1.391 . S
C1191 C1195 1.376 . S
C1192 C1190 1.394 . S
C1192 C1193 1.369 . S
C1192 C1196 1.531 . S
C1193 C1192 1.369 . S
C1193 C1194 1.410 . S
C1193 C1201 1.503 . S
C1194 C1193 1.410 . S
C1194 C1195 1.392 . S
C1194 C1197 1.511 . S
C1195 C1191 1.376 . S
C1195 C1194 1.392 . S
C1195 H1207 0.929 . S
C1196 C1192 1.531 . S
C1196 H1208 0.960 . S
C1196 H1209 0.962 . S
C1196 H1210 0.960 . S
C1197 C1194 1.511 . S
C1197 H1211 0.961 . S
C1197 H1212 0.961 . S
C1197 H1213 0.961 . S
C1198 C1199 1.370 . S
C1198 C1200 1.363 . S
C1198 H1214 0.931 . S
C1199 C1198 1.370 . S
C1199 C1203 1.408 . S
C1200 C1198 1.363 . S
C1200 C1201 1.370 . S
C1200 C1204 1.524 . S
C1201 C1193 1.503 . S
C1201 C1200 1.370 . S
C1201 C1202 1.403 . S
C1202 C1201 1.403 . S
C1202 C1203 1.404 . S
C1202 C1205 1.539 . S
C1203 C1199 1.408 . S
C1203 C1202 1.404 . S
C1203 H1215 0.930 1_554 S
C1204 C1200 1.524 . S
C1204 H1216 0.956 . S
C1204 H1217 0.961 . S
C1204 H1218 0.961 . S
C1205 C1202 1.539 . S
C1205 H1219 0.958 . S
C1205 H1220 0.961 . S
C1205 H1221 0.960 . S
H1206 C1190 0.931 . S
H1207 C1195 0.929 . S
H1208 C1196 0.960 . S
H1209 C1196 0.962 . S
H1210 C1196 0.960 . S
H1211 C1197 0.961 . S
H1212 C1197 0.961 . S
H1213 C1197 0.961 . S
H1214 C1198 0.931 . S
H1215 C1203 0.930 1_556 S
H1216 C1204 0.956 . S
H1217 C1204 0.961 . S
H1218 C1204 0.961 . S
H1219 C1205 0.958 . S
H1220 C1205 0.961 . S
H1221 C1205 0.960 . S
C1222 C1223 1.391 . S
C1222 C1224 1.394 . S
C1222 H1238 0.931 . S
C1223 C1222 1.391 . S
C1223 C1227 1.376 . S
C1224 C1222 1.394 . S
C1224 C1225 1.369 . S
C1224 C1228 1.531 . S
C1225 C1224 1.369 . S
C1225 C1226 1.410 . S
C1225 C1233 1.503 . S
C1226 C1225 1.410 . S
C1226 C1227 1.392 . S
C1226 C1229 1.511 . S
C1227 C1223 1.376 . S
C1227 C1226 1.392 . S
C1227 H1239 0.929 . S
C1228 C1224 1.531 . S
C1228 H1240 0.960 . S
C1228 H1241 0.962 . S
C1228 H1242 0.960 . S
C1229 C1226 1.511 . S
C1229 H1243 0.961 . S
C1229 H1244 0.961 . S
C1229 H1245 0.961 . S
C1230 C1231 1.370 . S
C1230 C1232 1.363 . S
C1230 H1246 0.931 1_554 S
C1231 C1230 1.370 . S
C1231 C1235 1.408 . S
C1232 C1230 1.363 . S
C1232 C1233 1.370 . S
C1232 C1236 1.524 . S
C1233 C1225 1.503 . S
C1233 C1232 1.370 . S
C1233 C1234 1.403 . S
C1234 C1233 1.403 . S
C1234 C1235 1.404 . S
C1234 C1237 1.539 . S
C1235 C1231 1.408 . S
C1235 C1234 1.404 . S
C1235 H1247 0.930 . S
C1236 C1232 1.524 . S
C1236 H1248 0.956 . S
C1236 H1249 0.961 . S
C1236 H1250 0.961 . S
C1237 C1234 1.539 . S
C1237 H1251 0.958 . S
C1237 H1252 0.961 . S
C1237 H1253 0.960 . S
H1238 C1222 0.931 . S
H1239 C1227 0.929 . S
H1240 C1228 0.960 . S
H1241 C1228 0.962 . S
H1242 C1228 0.960 . S
H1243 C1229 0.961 . S
H1244 C1229 0.961 . S
H1245 C1229 0.961 . S
H1246 C1230 0.931 1_556 S
H1247 C1235 0.930 . S
H1248 C1236 0.956 . S
H1249 C1236 0.961 . S
H1250 C1236 0.961 . S
H1251 C1237 0.958 . S
H1252 C1237 0.961 . S
H1253 C1237 0.960 . S
C1254 C1255 1.391 . S
C1254 C1256 1.394 . S
C1254 H1270 0.931 . S
C1255 C1254 1.391 . S
C1255 C1259 1.376 . S
C1256 C1254 1.394 . S
C1256 C1257 1.369 . S
C1256 C1260 1.531 . S
C1257 C1256 1.369 . S
C1257 C1258 1.410 . S
C1257 C1265 1.503 . S
C1258 C1257 1.410 . S
C1258 C1259 1.392 . S
C1258 C1261 1.511 . S
C1259 C1255 1.376 . S
C1259 C1258 1.392 . S
C1259 H1271 0.929 . S
C1260 C1256 1.531 . S
C1260 H1272 0.960 . S
C1260 H1273 0.962 . S
C1260 H1274 0.960 . S
C1261 C1258 1.511 . S
C1261 H1275 0.961 . S
C1261 H1276 0.961 . S
C1261 H1277 0.961 . S
C1262 C1263 1.370 . S
C1262 C1264 1.363 . S
C1262 H1278 0.931 . S
C1263 C1262 1.370 . S
C1263 C1267 1.408 . S
C1264 C1262 1.363 . S
C1264 C1265 1.370 . S
C1264 C1268 1.524 . S
C1265 C1257 1.503 . S
C1265 C1264 1.370 . S
C1265 C1266 1.403 . S
C1266 C1265 1.403 . S
C1266 C1267 1.404 . S
C1266 C1269 1.539 . S
C1267 C1263 1.408 . S
C1267 C1266 1.404 . S
C1267 H1279 0.930 . S
C1268 C1264 1.524 . S
C1268 H1280 0.956 . S
C1268 H1281 0.961 . S
C1268 H1282 0.961 . S
C1269 C1266 1.539 . S
C1269 H1283 0.958 . S
C1269 H1284 0.961 . S
C1269 H1285 0.960 . S
H1270 C1254 0.931 . S
H1271 C1259 0.929 . S
H1272 C1260 0.960 . S
H1273 C1260 0.962 . S
H1274 C1260 0.960 . S
H1275 C1261 0.961 . S
H1276 C1261 0.961 . S
H1277 C1261 0.961 . S
H1278 C1262 0.931 . S
H1279 C1267 0.930 . S
H1280 C1268 0.956 . S
H1281 C1268 0.961 . S
H1282 C1268 0.961 . S
H1283 C1269 0.958 . S
H1284 C1269 0.961 . S
H1285 C1269 0.960 . S
C1286 C1287 1.391 . S
C1286 C1288 1.394 . S
C1286 H1302 0.931 . S
C1287 C1286 1.391 . S
C1287 C1291 1.376 . S
C1288 C1286 1.394 . S
C1288 C1289 1.369 . S
C1288 C1292 1.531 . S
C1289 C1288 1.369 . S
C1289 C1290 1.410 . S
C1289 C1297 1.503 . S
C1290 C1289 1.410 . S
C1290 C1291 1.392 . S
C1290 C1293 1.511 . S
C1291 C1287 1.376 . S
C1291 C1290 1.392 . S
C1291 H1303 0.929 . S
C1292 C1288 1.531 . S
C1292 H1304 0.960 . S
C1292 H1305 0.962 . S
C1292 H1306 0.960 . S
C1293 C1290 1.511 . S
C1293 H1307 0.961 . S
C1293 H1308 0.961 . S
C1293 H1309 0.961 . S
C1294 C1295 1.370 . S
C1294 C1296 1.363 . S
C1294 H1310 0.931 . S
C1295 C1294 1.370 . S
C1295 C1299 1.408 . S
C1296 C1294 1.363 . S
C1296 C1297 1.370 . S
C1296 C1300 1.524 . S
C1297 C1289 1.503 . S
C1297 C1296 1.370 . S
C1297 C1298 1.403 . S
C1298 C1297 1.403 . S
C1298 C1299 1.404 . S
C1298 C1301 1.539 . S
C1299 C1295 1.408 . S
C1299 C1298 1.404 . S
C1299 H1311 0.930 . S
C1300 C1296 1.524 . S
C1300 H1312 0.956 . S
C1300 H1313 0.961 . S
C1300 H1314 0.961 . S
C1301 C1298 1.539 . S
C1301 H1315 0.958 . S
C1301 H1316 0.961 . S
C1301 H1317 0.960 . S
H1302 C1286 0.931 . S
H1303 C1291 0.929 . S
H1304 C1292 0.960 . S
H1305 C1292 0.962 . S
H1306 C1292 0.960 . S
H1307 C1293 0.961 . S
H1308 C1293 0.961 . S
H1309 C1293 0.961 . S
H1310 C1294 0.931 . S
H1311 C1299 0.930 . S
H1312 C1300 0.956 . S
H1313 C1300 0.961 . S
H1314 C1300 0.961 . S
H1315 C1301 0.958 . S
H1316 C1301 0.961 . S
H1317 C1301 0.960 . S
C1318 C1319 1.391 . S
C1318 C1320 1.394 . S
C1318 H1334 0.931 . S
C1319 C1318 1.391 . S
C1319 C1323 1.376 . S
C1320 C1318 1.394 . S
C1320 C1321 1.369 . S
C1320 C1324 1.531 . S
C1321 C1320 1.369 . S
C1321 C1322 1.410 . S
C1321 C1329 1.503 . S
C1322 C1321 1.410 . S
C1322 C1323 1.392 . S
C1322 C1325 1.511 . S
C1323 C1319 1.376 . S
C1323 C1322 1.392 . S
C1323 H1335 0.929 . S
C1324 C1320 1.531 . S
C1324 H1336 0.960 . S
C1324 H1337 0.962 . S
C1324 H1338 0.960 . S
C1325 C1322 1.511 . S
C1325 H1339 0.961 . S
C1325 H1340 0.961 . S
C1325 H1341 0.961 . S
C1326 C1327 1.370 . S
C1326 C1328 1.363 . S
C1326 H1342 0.931 . S
C1327 C1326 1.370 . S
C1327 C1331 1.408 . S
C1328 C1326 1.363 . S
C1328 C1329 1.370 . S
C1328 C1332 1.524 . S
C1329 C1321 1.503 . S
C1329 C1328 1.370 . S
C1329 C1330 1.403 . S
C1330 C1329 1.403 . S
C1330 C1331 1.404 . S
C1330 C1333 1.539 . S
C1331 C1327 1.408 . S
C1331 C1330 1.404 . S
C1331 H1343 0.930 . S
C1332 C1328 1.524 . S
C1332 H1344 0.956 . S
C1332 H1345 0.961 . S
C1332 H1346 0.961 . S
C1333 C1330 1.539 . S
C1333 H1347 0.958 . S
C1333 H1348 0.961 . S
C1333 H1349 0.960 . S
H1334 C1318 0.931 . S
H1335 C1323 0.929 . S
H1336 C1324 0.960 . S
H1337 C1324 0.962 . S
H1338 C1324 0.960 . S
H1339 C1325 0.961 . S
H1340 C1325 0.961 . S
H1341 C1325 0.961 . S
H1342 C1326 0.931 . S
H1343 C1331 0.930 . S
H1344 C1332 0.956 . S
H1345 C1332 0.961 . S
H1346 C1332 0.961 . S
H1347 C1333 0.958 . S
H1348 C1333 0.961 . S
H1349 C1333 0.960 . S
C1350 C1351 1.391 . S
C1350 C1352 1.394 . S
C1350 H1366 0.931 . S
C1351 C1350 1.391 . S
C1351 C1355 1.376 . S
C1352 C1350 1.394 . S
C1352 C1353 1.369 . S
C1352 C1356 1.531 . S
C1353 C1352 1.369 . S
C1353 C1354 1.410 . S
C1353 C1361 1.503 . S
C1354 C1353 1.410 . S
C1354 C1355 1.392 . S
C1354 C1357 1.511 . S
C1355 C1351 1.376 . S
C1355 C1354 1.392 . S
C1355 H1367 0.929 . S
C1356 C1352 1.531 . S
C1356 H1368 0.960 . S
C1356 H1369 0.962 . S
C1356 H1370 0.960 . S
C1357 C1354 1.511 . S
C1357 H1371 0.961 . S
C1357 H1372 0.961 . S
C1357 H1373 0.961 . S
C1358 C1359 1.370 . S
C1358 C1360 1.363 . S
C1358 H1374 0.931 . S
C1359 C1358 1.370 . S
C1359 C1363 1.408 . S
C1360 C1358 1.363 . S
C1360 C1361 1.370 . S
C1360 C1364 1.524 . S
C1361 C1353 1.503 . S
C1361 C1360 1.370 . S
C1361 C1362 1.403 . S
C1362 C1361 1.403 . S
C1362 C1363 1.404 . S
C1362 C1365 1.539 . S
C1363 C1359 1.408 . S
C1363 C1362 1.404 . S
C1363 H1375 0.930 . S
C1364 C1360 1.524 . S
C1364 H1376 0.956 . S
C1364 H1377 0.961 . S
C1364 H1378 0.961 . S
C1365 C1362 1.539 . S
C1365 H1379 0.958 . S
C1365 H1380 0.961 . S
C1365 H1381 0.960 . S
H1366 C1350 0.931 . S
H1367 C1355 0.929 . S
H1368 C1356 0.960 . S
H1369 C1356 0.962 . S
H1370 C1356 0.960 . S
H1371 C1357 0.961 . S
H1372 C1357 0.961 . S
H1373 C1357 0.961 . S
H1374 C1358 0.931 . S
H1375 C1363 0.930 . S
H1376 C1364 0.956 . S
H1377 C1364 0.961 . S
H1378 C1364 0.961 . S
H1379 C1365 0.958 . S
H1380 C1365 0.961 . S
H1381 C1365 0.960 . S
C1382 C1383 1.391 . S
C1382 C1384 1.394 . S
C1382 H1398 0.931 . S
C1383 C1382 1.391 . S
C1383 C1387 1.376 . S
C1384 C1382 1.394 . S
C1384 C1385 1.369 . S
C1384 C1388 1.531 . S
C1385 C1384 1.369 . S
C1385 C1386 1.410 . S
C1385 C1393 1.503 . S
C1386 C1385 1.410 . S
C1386 C1387 1.392 . S
C1386 C1389 1.511 . S
C1387 C1383 1.376 . S
C1387 C1386 1.392 . S
C1387 H1399 0.929 . S
C1388 C1384 1.531 . S
C1388 H1400 0.960 . S
C1388 H1401 0.962 . S
C1388 H1402 0.960 . S
C1389 C1386 1.511 . S
C1389 H1403 0.961 . S
C1389 H1404 0.961 . S
C1389 H1405 0.961 . S
C1390 C1391 1.370 . S
C1390 C1392 1.363 . S
C1390 H1406 0.931 1_556 S
C1391 C1390 1.370 . S
C1391 C1395 1.408 . S
C1392 C1390 1.363 . S
C1392 C1393 1.370 . S
C1392 C1396 1.524 . S
C1393 C1385 1.503 . S
C1393 C1392 1.370 . S
C1393 C1394 1.403 . S
C1394 C1393 1.403 . S
C1394 C1395 1.404 . S
C1394 C1397 1.539 . S
C1395 C1391 1.408 . S
C1395 C1394 1.404 . S
C1395 H1407 0.930 . S
C1396 C1392 1.524 . S
C1396 H1408 0.956 . S
C1396 H1409 0.961 . S
C1396 H1410 0.998 . S
C1397 C1394 1.539 . S
C1397 H1411 0.958 . S
C1397 H1412 0.961 . S
C1397 H1413 0.960 . S
H1398 C1382 0.931 . S
H1399 C1387 0.929 . S
H1400 C1388 0.960 . S
H1401 C1388 0.962 . S
H1402 C1388 0.960 . S
H1403 C1389 0.961 . S
H1404 C1389 0.961 . S
H1405 C1389 0.961 . S
H1406 C1390 0.931 1_554 S
H1407 C1395 0.930 . S
H1408 C1396 0.956 . S
H1409 C1396 0.961 . S
H1410 C1396 0.998 . S
H1411 C1397 0.958 . S
H1412 C1397 0.961 . S
H1413 C1397 0.960 . S
C1414 C1415 1.391 . S
C1414 C1416 1.394 . S
C1414 H1430 0.931 . S
C1415 C1414 1.391 . S
C1415 C1419 1.376 . S
C1416 C1414 1.394 . S
C1416 C1417 1.369 . S
C1416 C1420 1.531 . S
C1417 C1416 1.369 . S
C1417 C1418 1.410 . S
C1417 C1425 1.503 . S
C1418 C1417 1.410 . S
C1418 C1419 1.392 . S
C1418 C1421 1.511 . S
C1419 C1415 1.376 . S
C1419 C1418 1.392 . S
C1419 H1431 0.929 . S
C1420 C1416 1.531 . S
C1420 H1432 0.960 . S
C1420 H1433 0.962 . S
C1420 H1434 0.960 . S
C1421 C1418 1.511 . S
C1421 H1435 0.961 . S
C1421 H1436 0.961 . S
C1421 H1437 0.961 . S
C1422 C1423 1.370 . S
C1422 C1424 1.363 . S
C1422 H1438 0.931 . S
C1423 C1422 1.370 . S
C1423 C1427 1.408 . S
C1424 C1422 1.363 . S
C1424 C1425 1.370 . S
C1424 C1428 1.524 . S
C1425 C1417 1.503 . S
C1425 C1424 1.370 . S
C1425 C1426 1.403 . S
C1426 C1425 1.403 . S
C1426 C1427 1.404 . S
C1426 C1429 1.539 . S
C1427 C1423 1.408 . S
C1427 C1426 1.404 . S
C1427 H1439 0.930 . S
C1428 C1424 1.524 . S
C1428 H1440 0.956 . S
C1428 H1441 0.961 . S
C1428 H1442 0.961 . S
C1429 C1426 1.539 . S
C1429 H1443 0.958 . S
C1429 H1444 0.961 . S
C1429 H1445 0.960 . S
H1430 C1414 0.931 . S
H1431 C1419 0.929 . S
H1432 C1420 0.960 . S
H1433 C1420 0.962 . S
H1434 C1420 0.960 . S
H1435 C1421 0.961 . S
H1436 C1421 0.961 . S
H1437 C1421 0.961 . S
H1438 C1422 0.931 . S
H1439 C1427 0.930 . S
H1440 C1428 0.956 . S
H1441 C1428 0.961 . S
H1442 C1428 0.961 . S
H1443 C1429 0.958 . S
H1444 C1429 0.961 . S
H1445 C1429 0.960 . S
C1446 C1447 1.391 . S
C1446 C1448 1.394 . S
C1446 H1462 0.931 . S
C1447 C1446 1.391 . S
C1447 C1451 1.376 . S
C1448 C1446 1.394 . S
C1448 C1449 1.369 . S
C1448 C1452 1.531 . S
C1449 C1448 1.369 . S
C1449 C1450 1.410 . S
C1449 C1457 1.503 . S
C1450 C1449 1.410 . S
C1450 C1451 1.392 . S
C1450 C1453 1.511 . S
C1451 C1447 1.376 . S
C1451 C1450 1.392 . S
C1451 H1463 0.929 . S
C1452 C1448 1.531 . S
C1452 H1464 0.960 . S
C1452 H1465 0.962 . S
C1452 H1466 0.960 . S
C1453 C1450 1.511 . S
C1453 H1467 0.961 . S
C1453 H1468 0.961 . S
C1453 H1469 0.961 . S
C1454 C1455 1.370 . S
C1454 C1456 1.363 . S
C1454 H1470 0.931 . S
C1455 C1454 1.370 . S
C1455 C1459 1.408 . S
C1456 C1454 1.363 . S
C1456 C1457 1.370 . S
C1456 C1460 1.524 . S
C1457 C1449 1.503 . S
C1457 C1456 1.370 . S
C1457 C1458 1.403 . S
C1458 C1457 1.403 . S
C1458 C1459 1.404 . S
C1458 C1461 1.539 . S
C1459 C1455 1.408 . S
C1459 C1458 1.404 . S
C1459 H1471 0.930 . S
C1460 C1456 1.524 . S
C1460 H1472 0.956 . S
C1460 H1473 0.961 . S
C1460 H1474 0.961 . S
C1461 C1458 1.539 . S
C1461 H1475 0.958 . S
C1461 H1476 0.961 . S
C1461 H1477 0.960 . S
H1462 C1446 0.931 . S
H1463 C1451 0.929 . S
H1464 C1452 0.960 . S
H1465 C1452 0.962 . S
H1466 C1452 0.960 . S
H1467 C1453 0.961 . S
H1468 C1453 0.961 . S
H1469 C1453 0.961 . S
H1470 C1454 0.931 . S
H1471 C1459 0.930 . S
H1472 C1460 0.956 . S
H1473 C1460 0.961 . S
H1474 C1460 0.961 . S
H1475 C1461 0.958 . S
H1476 C1461 0.961 . S
H1477 C1461 0.960 . S
C1478 C1479 1.391 . S
C1478 C1480 1.394 . S
C1478 H1494 0.931 . S
C1479 C1478 1.391 . S
C1479 C1483 1.376 . S
C1480 C1478 1.394 . S
C1480 C1481 1.369 . S
C1480 C1484 1.531 . S
C1481 C1480 1.369 . S
C1481 C1482 1.410 . S
C1481 C1489 1.503 . S
C1482 C1481 1.410 . S
C1482 C1483 1.392 . S
C1482 C1485 1.511 . S
C1483 C1479 1.376 . S
C1483 C1482 1.392 . S
C1483 H1495 0.929 . S
C1484 C1480 1.531 . S
C1484 H1496 0.960 . S
C1484 H1497 0.962 . S
C1484 H1498 0.960 . S
C1485 C1482 1.511 . S
C1485 H1499 0.961 . S
C1485 H1500 0.961 . S
C1485 H1501 0.961 . S
C1486 C1487 1.370 . S
C1486 C1488 1.363 . S
C1486 H1502 0.931 . S
C1487 C1486 1.370 . S
C1487 C1491 1.408 . S
C1488 C1486 1.363 . S
C1488 C1489 1.370 . S
C1488 C1492 1.524 . S
C1489 C1481 1.503 . S
C1489 C1488 1.370 . S
C1489 C1490 1.403 . S
C1490 C1489 1.403 . S
C1490 C1491 1.404 . S
C1490 C1493 1.539 . S
C1491 C1487 1.408 . S
C1491 C1490 1.404 . S
C1491 H1503 0.930 . S
C1492 C1488 1.524 . S
C1492 H1504 0.956 . S
C1492 H1505 0.961 . S
C1492 H1506 0.961 . S
C1493 C1490 1.539 . S
C1493 H1507 0.958 . S
C1493 H1508 0.961 . S
C1493 H1509 0.960 . S
H1494 C1478 0.931 . S
H1495 C1483 0.929 . S
H1496 C1484 0.960 . S
H1497 C1484 0.962 . S
H1498 C1484 0.960 . S
H1499 C1485 0.961 . S
H1500 C1485 0.961 . S
H1501 C1485 0.961 . S
H1502 C1486 0.931 . S
H1503 C1491 0.930 . S
H1504 C1492 0.956 . S
H1505 C1492 0.961 . S
H1506 C1492 0.961 . S
H1507 C1493 0.958 . S
H1508 C1493 0.961 . S
H1509 C1493 0.960 . S
C1510 C1511 1.391 . S
C1510 C1512 1.394 . S
C1510 H1526 0.931 . S
C1511 C1510 1.391 . S
C1511 C1515 1.376 . S
C1512 C1510 1.394 . S
C1512 C1513 1.369 . S
C1512 C1516 1.531 . S
C1513 C1512 1.369 . S
C1513 C1514 1.410 . S
C1513 C1521 1.503 . S
C1514 C1513 1.410 . S
C1514 C1515 1.392 . S
C1514 C1517 1.511 . S
C1515 C1511 1.376 . S
C1515 C1514 1.392 . S
C1515 H1527 0.929 . S
C1516 C1512 1.531 . S
C1516 H1528 0.960 . S
C1516 H1529 0.962 . S
C1516 H1530 0.960 . S
C1517 C1514 1.511 . S
C1517 H1531 0.961 . S
C1517 H1532 0.961 . S
C1517 H1533 0.961 . S
C1518 C1519 1.370 . S
C1518 C1520 1.363 . S
C1518 H1534 0.931 . S
C1519 C1518 1.370 . S
C1519 C1523 1.408 . S
C1520 C1518 1.363 . S
C1520 C1521 1.370 . S
C1520 C1524 1.524 . S
C1521 C1513 1.503 . S
C1521 C1520 1.370 . S
C1521 C1522 1.403 . S
C1522 C1521 1.403 . S
C1522 C1523 1.404 . S
C1522 C1525 1.539 . S
C1523 C1519 1.408 . S
C1523 C1522 1.404 . S
C1523 H1535 0.930 . S
C1524 C1520 1.524 . S
C1524 H1536 0.956 . S
C1524 H1537 0.961 . S
C1524 H1538 0.961 . S
C1525 C1522 1.539 . S
C1525 H1539 0.958 . S
C1525 H1540 0.961 . S
C1525 H1541 0.960 . S
H1526 C1510 0.931 . S
H1527 C1515 0.929 . S
H1528 C1516 0.960 . S
H1529 C1516 0.962 . S
H1530 C1516 0.960 . S
H1531 C1517 0.961 . S
H1532 C1517 0.961 . S
H1533 C1517 0.961 . S
H1534 C1518 0.931 . S
H1535 C1523 0.930 . S
H1536 C1524 0.956 . S
H1537 C1524 0.961 . S
H1538 C1524 0.961 . S
H1539 C1525 0.958 . S
H1540 C1525 0.961 . S
H1541 C1525 0.960 . S
C1542 C1543 1.391 . S
C1542 C1544 1.394 . S
C1542 H1558 0.931 . S
C1543 C1542 1.391 . S
C1543 C1547 1.376 . S
C1544 C1542 1.394 . S
C1544 C1545 1.369 . S
C1544 C1548 1.531 . S
C1545 C1544 1.369 . S
C1545 C1546 1.410 . S
C1545 C1553 1.503 . S
C1546 C1545 1.410 . S
C1546 C1547 1.392 . S
C1546 C1549 1.511 . S
C1547 C1543 1.376 . S
C1547 C1546 1.392 . S
C1547 H1559 0.929 . S
C1548 C1544 1.531 . S
C1548 H1560 0.960 . S
C1548 H1561 0.962 . S
C1548 H1562 0.960 . S
C1549 C1546 1.511 . S
C1549 H1563 0.961 . S
C1549 H1564 0.961 . S
C1549 H1565 0.961 . S
C1550 C1551 1.370 . S
C1550 C1552 1.363 . S
C1550 H1566 0.931 . S
C1551 C1550 1.370 . S
C1551 C1555 1.408 . S
C1552 C1550 1.363 . S
C1552 C1553 1.370 . S
C1552 C1556 1.524 . S
C1553 C1545 1.503 . S
C1553 C1552 1.370 . S
C1553 C1554 1.403 . S
C1554 C1553 1.403 . S
C1554 C1555 1.404 . S
C1554 C1557 1.539 . S
C1555 C1551 1.408 . S
C1555 C1554 1.404 . S
C1555 H1567 0.930 . S
C1556 C1552 1.524 . S
C1556 H1568 0.956 . S
C1556 H1569 0.961 . S
C1556 H1570 0.961 . S
C1557 C1554 1.539 . S
C1557 H1571 0.958 . S
C1557 H1572 0.961 . S
C1557 H1573 0.960 . S
H1558 C1542 0.931 . S
H1559 C1547 0.929 . S
H1560 C1548 0.960 . S
H1561 C1548 0.962 . S
H1562 C1548 0.960 . S
H1563 C1549 0.961 . S
H1564 C1549 0.961 . S
H1565 C1549 0.961 . S
H1566 C1550 0.931 . S
H1567 C1555 0.930 . S
H1568 C1556 0.956 . S
H1569 C1556 0.961 . S
H1570 C1556 0.961 . S
H1571 C1557 0.958 . S
H1572 C1557 0.961 . S
H1573 C1557 0.960 . S
C1574 C1575 1.391 . S
C1574 C1576 1.394 . S
C1574 H1590 0.931 . S
C1575 C1574 1.391 . S
C1575 C1579 1.376 . S
C1576 C1574 1.394 . S
C1576 C1577 1.369 . S
C1576 C1580 1.531 . S
C1577 C1576 1.369 . S
C1577 C1578 1.410 . S
C1577 C1585 1.503 . S
C1578 C1577 1.410 . S
C1578 C1579 1.392 . S
C1578 C1581 1.511 . S
C1579 C1575 1.376 . S
C1579 C1578 1.392 . S
C1579 H1591 0.929 . S
C1580 C1576 1.531 . S
C1580 H1592 0.960 . S
C1580 H1593 0.962 . S
C1580 H1594 0.960 . S
C1581 C1578 1.511 . S
C1581 H1595 0.961 . S
C1581 H1596 0.961 . S
C1581 H1597 0.961 . S
C1582 C1583 1.370 . S
C1582 C1584 1.363 . S
C1582 H1598 0.931 . S
C1583 C1582 1.370 . S
C1583 C1587 1.408 . S
C1584 C1582 1.363 . S
C1584 C1585 1.370 . S
C1584 C1588 1.524 . S
C1585 C1577 1.503 . S
C1585 C1584 1.370 . S
C1585 C1586 1.403 . S
C1586 C1585 1.403 . S
C1586 C1587 1.404 . S
C1586 C1589 1.539 . S
C1587 C1583 1.408 . S
C1587 C1586 1.404 . S
C1587 H1599 0.930 . S
C1588 C1584 1.524 . S
C1588 H1600 0.956 . S
C1588 H1601 0.961 . S
C1588 H1602 0.961 . S
C1589 C1586 1.539 . S
C1589 H1603 0.958 . S
C1589 H1604 0.961 . S
C1589 H1605 0.960 . S
H1590 C1574 0.931 . S
H1591 C1579 0.929 . S
H1592 C1580 0.960 . S
H1593 C1580 0.962 . S
H1594 C1580 0.960 . S
H1595 C1581 0.961 . S
H1596 C1581 0.961 . S
H1597 C1581 0.961 . S
H1598 C1582 0.931 . S
H1599 C1587 0.930 . S
H1600 C1588 0.956 . S
H1601 C1588 0.961 . S
H1602 C1588 0.961 . S
H1603 C1589 0.958 . S
H1604 C1589 0.961 . S
H1605 C1589 0.960 . S
C1606 C1607 1.391 . S
C1606 C1608 1.394 . S
C1606 H1622 0.931 . S
C1607 C1606 1.391 . S
C1607 C1611 1.376 . S
C1608 C1606 1.394 . S
C1608 C1609 1.369 . S
C1608 C1612 1.531 . S
C1609 C1608 1.369 . S
C1609 C1610 1.410 . S
C1609 C1617 1.503 . S
C1610 C1609 1.410 . S
C1610 C1611 1.392 . S
C1610 C1613 1.511 . S
C1611 C1607 1.376 . S
C1611 C1610 1.392 . S
C1611 H1623 0.929 . S
C1612 C1608 1.531 . S
C1612 H1624 0.960 . S
C1612 H1625 0.962 . S
C1612 H1626 0.960 . S
C1613 C1610 1.511 . S
C1613 H1627 0.961 . S
C1613 H1628 0.961 . S
C1613 H1629 0.961 . S
C1614 C1615 1.370 . S
C1614 C1616 1.363 . S
C1614 H1630 0.931 . S
C1615 C1614 1.370 . S
C1615 C1619 1.408 . S
C1616 C1614 1.363 . S
C1616 C1617 1.370 . S
C1616 C1620 1.524 . S
C1617 C1609 1.503 . S
C1617 C1616 1.370 . S
C1617 C1618 1.403 . S
C1618 C1617 1.403 . S
C1618 C1619 1.404 . S
C1618 C1621 1.539 . S
C1619 C1615 1.408 . S
C1619 C1618 1.404 . S
C1619 H1631 0.930 . S
C1620 C1616 1.524 . S
C1620 H1632 0.956 . S
C1620 H1633 0.961 . S
C1620 H1634 0.961 . S
C1621 C1618 1.539 . S
C1621 H1635 0.958 . S
C1621 H1636 0.961 . S
C1621 H1637 0.960 . S
H1622 C1606 0.931 . S
H1623 C1611 0.929 . S
H1624 C1612 0.960 . S
H1625 C1612 0.962 . S
H1626 C1612 0.960 . S
H1627 C1613 0.961 . S
H1628 C1613 0.961 . S
H1629 C1613 0.961 . S
H1630 C1614 0.931 . S
H1631 C1619 0.930 . S
H1632 C1620 0.956 . S
H1633 C1620 0.961 . S
H1634 C1620 0.961 . S
H1635 C1621 0.958 . S
H1636 C1621 0.961 . S
H1637 C1621 0.960 . S
C1638 C1639 1.391 . S
C1638 C1640 1.394 . S
C1638 H1654 0.931 . S
C1639 C1638 1.391 . S
C1639 C1643 1.376 . S
C1640 C1638 1.394 . S
C1640 C1641 1.369 . S
C1640 C1644 1.531 . S
C1641 C1640 1.369 . S
C1641 C1642 1.410 . S
C1641 C1649 1.503 . S
C1642 C1641 1.410 . S
C1642 C1643 1.392 . S
C1642 C1645 1.511 . S
C1643 C1639 1.376 . S
C1643 C1642 1.392 . S
C1643 H1655 0.929 . S
C1644 C1640 1.531 . S
C1644 H1656 0.960 . S
C1644 H1657 0.962 1_545 S
C1644 H1658 0.960 . S
C1645 C1642 1.511 . S
C1645 H1659 0.961 . S
C1645 H1660 0.961 . S
C1645 H1661 0.961 . S
C1646 C1647 1.370 . S
C1646 C1648 1.363 . S
C1646 H1662 0.931 1_545 S
C1647 C1646 1.370 . S
C1647 C1651 1.408 . S
C1648 C1646 1.363 . S
C1648 C1649 1.370 . S
C1648 C1652 1.524 1_545 S
C1649 C1641 1.503 . S
C1649 C1648 1.370 . S
C1649 C1650 1.403 . S
C1650 C1649 1.403 . S
C1650 C1651 1.404 . S
C1650 C1653 1.539 . S
C1651 C1647 1.408 . S
C1651 C1650 1.404 . S
C1651 H1663 0.930 . S
C1652 C1648 1.524 1_565 S
C1652 H1664 0.956 . S
C1652 H1665 0.961 1_565 S
C1652 H1666 0.961 . S
C1653 C1650 1.539 . S
C1653 H1667 0.958 . S
C1653 H1668 0.961 . S
C1653 H1669 0.960 . S
H1654 C1638 0.931 . S
H1655 C1643 0.929 . S
H1656 C1644 0.960 . S
H1657 C1644 0.962 1_565 S
H1658 C1644 0.960 . S
H1659 C1645 0.961 . S
H1660 C1645 0.961 . S
H1661 C1645 0.961 . S
H1662 C1646 0.931 1_565 S
H1663 C1651 0.930 . S
H1664 C1652 0.956 . S
H1665 C1652 0.961 1_545 S
H1666 C1652 0.961 . S
H1667 C1653 0.958 . S
H1668 C1653 0.961 . S
H1669 C1653 0.960 . S
C1670 C1671 1.391 . S
C1670 C1672 1.394 . S
C1670 H1686 0.931 1_655 S
C1671 C1670 1.391 . S
C1671 C1675 1.376 . S
C1672 C1670 1.394 . S
C1672 C1673 1.369 . S
C1672 C1676 1.531 1_655 S
C1673 C1672 1.369 . S
C1673 C1674 1.410 . S
C1673 C1681 1.503 . S
C1674 C1673 1.410 . S
C1674 C1675 1.392 . S
C1674 C1677 1.511 . S
C1675 C1671 1.376 . S
C1675 C1674 1.392 . S
C1675 H1687 0.929 . S
C1676 C1672 1.531 1_455 S
C1676 H1688 0.960 . S
C1676 H1689 0.962 . S
C1676 H1690 0.960 . S
C1677 C1674 1.511 . S
C1677 H1691 0.961 . S
C1677 H1692 0.961 . S
C1677 H1693 0.961 . S
C1678 C1679 1.370 1_455 S
C1678 C1680 1.363 . S
C1678 H1694 0.931 . S
C1679 C1678 1.370 1_655 S
C1679 C1683 1.408 . S
C1680 C1678 1.363 . S
C1680 C1681 1.370 1_455 S
C1680 C1684 1.524 . S
C1681 C1673 1.503 . S
C1681 C1680 1.370 1_655 S
C1681 C1682 1.403 . S
C1682 C1681 1.403 . S
C1682 C1683 1.404 . S
C1682 C1685 1.539 . S
C1683 C1679 1.408 . S
C1683 C1682 1.404 . S
C1683 H1695 0.930 . S
C1684 C1680 1.524 . S
C1684 H1696 0.956 . S
C1684 H1697 0.961 . S
C1684 H1698 0.961 . S
C1685 C1682 1.539 . S
C1685 H1699 0.958 . S
C1685 H1700 0.961 . S
C1685 H1701 0.960 . S
H1686 C1670 0.931 1_455 S
H1687 C1675 0.929 . S
H1688 C1676 0.960 . S
H1689 C1676 0.962 . S
H1690 C1676 0.960 . S
H1691 C1677 0.961 . S
H1692 C1677 0.961 . S
H1693 C1677 0.961 . S
H1694 C1678 0.931 . S
H1695 C1683 0.930 . S
H1696 C1684 0.956 . S
H1697 C1684 0.961 . S
H1698 C1684 0.961 . S
H1699 C1685 0.958 . S
H1700 C1685 0.961 . S
H1701 C1685 0.960 . S
C1702 C1703 1.391 . S
C1702 C1704 1.394 . S
C1702 H1718 0.931 . S
C1703 C1702 1.391 . S
C1703 C1707 1.376 . S
C1704 C1702 1.394 . S
C1704 C1705 1.369 . S
C1704 C1708 1.531 . S
C1705 C1704 1.369 . S
C1705 C1706 1.410 . S
C1705 C1713 1.503 . S
C1706 C1705 1.410 . S
C1706 C1707 1.392 . S
C1706 C1709 1.511 . S
C1707 C1703 1.376 . S
C1707 C1706 1.392 . S
C1707 H1719 0.929 . S
C1708 C1704 1.531 . S
C1708 H1720 0.960 . S
C1708 H1721 0.962 . S
C1708 H1722 0.960 . S
C1709 C1706 1.511 . S
C1709 H1723 0.961 . S
C1709 H1724 0.961 . S
C1709 H1725 0.961 . S
C1710 C1711 1.370 . S
C1710 C1712 1.363 . S
C1710 H1726 0.931 . S
C1711 C1710 1.370 . S
C1711 C1715 1.408 . S
C1712 C1710 1.363 . S
C1712 C1713 1.370 . S
C1712 C1716 1.524 . S
C1713 C1705 1.503 . S
C1713 C1712 1.370 . S
C1713 C1714 1.403 . S
C1714 C1713 1.403 . S
C1714 C1715 1.404 . S
C1714 C1717 1.539 . S
C1715 C1711 1.408 . S
C1715 C1714 1.404 . S
C1715 H1727 0.930 . S
C1716 C1712 1.524 . S
C1716 H1728 0.956 . S
C1716 H1729 0.961 . S
C1716 H1730 0.961 . S
C1717 C1714 1.539 . S
C1717 H1731 0.958 . S
C1717 H1732 0.961 . S
C1717 H1733 0.960 . S
H1718 C1702 0.931 . S
H1719 C1707 0.929 . S
H1720 C1708 0.960 . S
H1721 C1708 0.962 . S
H1722 C1708 0.960 . S
H1723 C1709 0.961 . S
H1724 C1709 0.961 . S
H1725 C1709 0.961 . S
H1726 C1710 0.931 . S
H1727 C1715 0.930 . S
H1728 C1716 0.956 . S
H1729 C1716 0.961 . S
H1730 C1716 0.961 . S
H1731 C1717 0.958 . S
H1732 C1717 0.961 . S
H1733 C1717 0.960 . S
C1734 C1735 1.391 . S
C1734 C1736 1.394 . S
C1734 H1750 0.929 1_455 S
C1735 C1734 1.391 . S
C1735 C1739 1.376 . S
C1736 C1734 1.394 . S
C1736 C1737 1.369 . S
C1736 C1740 1.531 1_455 S
C1737 C1736 1.369 . S
C1737 C1738 1.410 . S
C1737 C1745 1.503 . S
C1738 C1737 1.410 . S
C1738 C1739 1.392 . S
C1738 C1741 1.511 . S
C1739 C1735 1.376 . S
C1739 C1738 1.392 . S
C1739 H1751 0.929 . S
C1740 C1736 1.531 1_655 S
C1740 H1752 0.960 . S
C1740 H1753 0.962 . S
C1740 H1754 0.960 . S
C1741 C1738 1.511 . S
C1741 H1755 0.961 . S
C1741 H1756 0.961 . S
C1741 H1757 0.961 . S
C1742 C1743 1.370 . S
C1742 C1744 1.363 . S
C1742 H1758 0.931 . S
C1743 C1742 1.370 . S
C1743 C1747 1.408 . S
C1744 C1742 1.363 . S
C1744 C1745 1.370 . S
C1744 C1748 1.524 . S
C1745 C1737 1.503 . S
C1745 C1744 1.370 . S
C1745 C1746 1.403 . S
C1746 C1745 1.403 . S
C1746 C1747 1.404 . S
C1746 C1749 1.539 . S
C1747 C1743 1.408 . S
C1747 C1746 1.404 . S
C1747 H1759 0.930 . S
C1748 C1744 1.524 . S
C1748 H1760 0.956 . S
C1748 H1761 0.961 . S
C1748 H1762 0.961 . S
C1749 C1746 1.539 . S
C1749 H1763 0.958 . S
C1749 H1764 0.961 . S
C1749 H1765 0.960 . S
H1750 C1734 0.929 1_655 S
H1751 C1739 0.929 . S
H1752 C1740 0.960 . S
H1753 C1740 0.962 . S
H1754 C1740 0.960 . S
H1755 C1741 0.961 . S
H1756 C1741 0.961 . S
H1757 C1741 0.961 . S
H1758 C1742 0.931 . S
H1759 C1747 0.930 . S
H1760 C1748 0.956 . S
H1761 C1748 0.961 . S
H1762 C1748 0.961 . S
H1763 C1749 0.958 . S
H1764 C1749 0.961 . S
H1765 C1749 0.960 . S
C1766 C1767 1.391 . S
C1766 C1768 1.394 . S
C1766 H1782 0.931 . S
C1767 C1766 1.391 . S
C1767 C1771 1.376 . S
C1768 C1766 1.394 . S
C1768 C1769 1.369 . S
C1768 C1772 1.531 . S
C1769 C1768 1.369 . S
C1769 C1770 1.410 . S
C1769 C1777 1.503 . S
C1770 C1769 1.410 . S
C1770 C1771 1.392 . S
C1770 C1773 1.511 . S
C1771 C1767 1.376 . S
C1771 C1770 1.392 . S
C1771 H1783 0.929 . S
C1772 C1768 1.531 . S
C1772 H1784 0.960 . S
C1772 H1785 0.962 . S
C1772 H1786 0.960 . S
C1773 C1770 1.511 . S
C1773 H1787 0.961 . S
C1773 H1788 0.961 . S
C1773 H1789 0.961 . S
C1774 C1775 1.370 . S
C1774 C1776 1.363 . S
C1774 H1790 0.931 . S
C1775 C1774 1.370 . S
C1775 C1779 1.408 . S
C1776 C1774 1.363 . S
C1776 C1777 1.370 . S
C1776 C1780 1.524 . S
C1777 C1769 1.503 . S
C1777 C1776 1.370 . S
C1777 C1778 1.403 . S
C1778 C1777 1.403 . S
C1778 C1779 1.404 . S
C1778 C1781 1.539 . S
C1779 C1775 1.408 . S
C1779 C1778 1.404 . S
C1779 H1791 0.930 . S
C1780 C1776 1.524 . S
C1780 H1792 0.956 . S
C1780 H1793 0.961 . S
C1780 H1794 0.961 . S
C1781 C1778 1.539 . S
C1781 H1795 0.958 . S
C1781 H1796 0.961 . S
C1781 H1797 0.960 . S
H1782 C1766 0.931 . S
H1783 C1771 0.929 . S
H1784 C1772 0.960 . S
H1785 C1772 0.962 . S
H1786 C1772 0.960 . S
H1787 C1773 0.961 . S
H1788 C1773 0.961 . S
H1789 C1773 0.961 . S
H1790 C1774 0.931 . S
H1791 C1779 0.930 . S
H1792 C1780 0.956 . S
H1793 C1780 0.961 . S
H1794 C1780 0.961 . S
H1795 C1781 0.958 . S
H1796 C1781 0.961 . S
H1797 C1781 0.960 . S
C1798 C1799 1.391 . S
C1798 C1800 1.394 1_565 S
C1798 H1814 0.931 1_565 S
C1799 C1798 1.391 . S
C1799 C1803 1.376 . S
C1800 C1798 1.394 1_545 S
C1800 C1801 1.369 1_545 S
C1800 C1804 1.531 . S
C1801 C1800 1.369 1_565 S
C1801 C1802 1.410 . S
C1801 C1809 1.503 . S
C1802 C1801 1.410 . S
C1802 C1803 1.392 . S
C1802 C1805 1.511 . S
C1803 C1799 1.376 . S
C1803 C1802 1.392 . S
C1803 H1815 0.929 . S
C1804 C1800 1.531 . S
C1804 H1816 0.960 . S
C1804 H1817 0.962 1_545 S
C1804 H1818 0.960 . S
C1805 C1802 1.511 . S
C1805 H1819 0.961 . S
C1805 H1820 0.961 . S
C1805 H1821 0.961 . S
C1806 C1807 1.370 . S
C1806 C1808 1.363 . S
C1806 H1822 0.931 . S
C1807 C1806 1.370 . S
C1807 C1811 1.408 1_565 S
C1808 C1806 1.363 . S
C1808 C1809 1.370 . S
C1808 C1812 1.524 . S
C1809 C1801 1.503 . S
C1809 C1808 1.370 . S
C1809 C1810 1.403 1_565 S
C1810 C1809 1.403 1_545 S
C1810 C1811 1.404 . S
C1810 C1813 1.539 . S
C1811 C1807 1.408 1_545 S
C1811 C1810 1.404 . S
C1811 H1823 0.930 . S
C1812 C1808 1.524 . S
C1812 H1824 0.956 . S
C1812 H1825 0.961 . S
C1812 H1826 0.961 . S
C1813 C1810 1.539 . S
C1813 H1827 0.958 . S
C1813 H1828 0.961 . S
C1813 H1829 0.960 . S
H1814 C1798 0.931 1_545 S
H1815 C1803 0.929 . S
H1816 C1804 0.960 . S
H1817 C1804 0.962 1_565 S
H1818 C1804 0.960 . S
H1819 C1805 0.961 . S
H1820 C1805 0.961 . S
H1821 C1805 0.961 . S
H1822 C1806 0.931 . S
H1823 C1811 0.930 . S
H1824 C1812 0.956 . S
H1825 C1812 0.961 . S
H1826 C1812 0.961 . S
H1827 C1813 0.958 . S
H1828 C1813 0.961 . S
H1829 C1813 0.960 . S
C1830 C1831 1.391 . S
C1830 C1832 1.394 . S
C1830 H1846 0.931 . S
C1831 C1830 1.391 . S
C1831 C1835 1.376 1_565 S
C1832 C1830 1.394 . S
C1832 C1833 1.369 . S
C1832 C1836 1.531 . S
C1833 C1832 1.369 . S
C1833 C1834 1.410 1_565 S
C1833 C1841 1.503 . S
C1834 C1833 1.410 1_545 S
C1834 C1835 1.392 . S
C1834 C1837 1.511 . S
C1835 C1831 1.376 1_545 S
C1835 C1834 1.392 . S
C1835 H1847 0.929 . S
C1836 C1832 1.531 . S
C1836 H1848 0.960 . S
C1836 H1849 0.962 . S
C1836 H1850 0.960 . S
C1837 C1834 1.511 . S
C1837 H1851 0.961 . S
C1837 H1852 0.961 . S
C1837 H1853 0.961 . S
C1838 C1839 1.370 . S
C1838 C1840 1.363 . S
C1838 H1854 0.931 . S
C1839 C1838 1.370 . S
C1839 C1843 1.408 1_565 S
C1840 C1838 1.363 . S
C1840 C1841 1.370 . S
C1840 C1844 1.524 . S
C1841 C1833 1.503 . S
C1841 C1840 1.370 . S
C1841 C1842 1.403 1_565 S
C1842 C1841 1.403 1_545 S
C1842 C1843 1.404 . S
C1842 C1845 1.539 . S
C1843 C1839 1.408 1_545 S
C1843 C1842 1.404 . S
C1843 H1855 0.930 . S
C1844 C1840 1.524 . S
C1844 H1856 0.956 . S
C1844 H1857 0.961 . S
C1844 H1858 0.961 . S
C1845 C1842 1.539 . S
C1845 H1859 0.958 1_545 S
C1845 H1860 0.961 . S
C1845 H1861 0.960 . S
H1846 C1830 0.931 . S
H1847 C1835 0.929 . S
H1848 C1836 0.960 . S
H1849 C1836 0.962 . S
H1850 C1836 0.960 . S
H1851 C1837 0.961 . S
H1852 C1837 0.961 . S
H1853 C1837 0.961 . S
H1854 C1838 0.931 . S
H1855 C1843 0.930 . S
H1856 C1844 0.956 . S
H1857 C1844 0.961 . S
H1858 C1844 0.961 . S
H1859 C1845 0.958 1_565 S
H1860 C1845 0.961 . S
H1861 C1845 0.960 . S
C1862 C1863 1.391 . S
C1862 C1864 1.394 . S
C1862 H1878 0.931 . S
C1863 C1862 1.391 . S
C1863 C1867 1.376 . S
C1864 C1862 1.394 . S
C1864 C1865 1.369 . S
C1864 C1868 1.531 1_455 S
C1865 C1864 1.369 . S
C1865 C1866 1.410 . S
C1865 C1873 1.503 . S
C1866 C1865 1.410 . S
C1866 C1867 1.392 . S
C1866 C1869 1.511 . S
C1867 C1863 1.376 . S
C1867 C1866 1.392 . S
C1867 H1879 0.929 . S
C1868 C1864 1.531 1_655 S
C1868 H1880 0.960 1_655 S
C1868 H1881 0.962 . S
C1868 H1882 0.960 . S
C1869 C1866 1.511 . S
C1869 H1883 0.961 . S
C1869 H1884 0.961 . S
C1869 H1885 0.961 . S
C1870 C1871 1.370 . S
C1870 C1872 1.363 . S
C1870 H1886 0.931 . S
C1871 C1870 1.370 . S
C1871 C1875 1.408 . S
C1872 C1870 1.363 . S
C1872 C1873 1.370 . S
C1872 C1876 1.524 . S
C1873 C1865 1.503 . S
C1873 C1872 1.370 . S
C1873 C1874 1.403 . S
C1874 C1873 1.403 . S
C1874 C1875 1.404 . S
C1874 C1877 1.539 . S
C1875 C1871 1.408 . S
C1875 C1874 1.404 . S
C1875 H1887 0.930 . S
C1876 C1872 1.524 . S
C1876 H1888 0.956 1_455 S
C1876 H1889 0.961 . S
C1876 H1890 0.961 . S
C1877 C1874 1.539 . S
C1877 H1891 0.958 . S
C1877 H1892 0.961 . S
C1877 H1893 0.960 . S
H1878 C1862 0.931 . S
H1879 C1867 0.929 . S
H1880 C1868 0.960 1_455 S
H1881 C1868 0.962 . S
H1882 C1868 0.960 . S
H1883 C1869 0.961 . S
H1884 C1869 0.961 . S
H1885 C1869 0.961 . S
H1886 C1870 0.931 . S
H1887 C1875 0.930 . S
H1888 C1876 0.956 1_655 S
H1889 C1876 0.961 . S
H1890 C1876 0.961 . S
H1891 C1877 0.958 . S
H1892 C1877 0.961 . S
H1893 C1877 0.960 . S
C1894 C1895 1.391 . S
C1894 C1896 1.394 . S
C1894 H1910 0.931 . S
C1895 C1894 1.391 . S
C1895 C1899 1.376 . S
C1896 C1894 1.394 . S
C1896 C1897 1.369 . S
C1896 C1900 1.531 . S
C1897 C1896 1.369 . S
C1897 C1898 1.410 . S
C1897 C1905 1.503 . S
C1898 C1897 1.410 . S
C1898 C1899 1.392 . S
C1898 C1901 1.511 . S
C1899 C1895 1.376 . S
C1899 C1898 1.392 . S
C1899 H1911 0.929 . S
C1900 C1896 1.531 . S
C1900 H1912 0.960 . S
C1900 H1913 0.962 . S
C1900 H1914 0.960 . S
C1901 C1898 1.511 . S
C1901 H1915 0.961 . S
C1901 H1916 0.961 . S
C1901 H1917 0.961 . S
C1902 C1903 1.370 . S
C1902 C1904 1.363 . S
C1902 H1918 0.931 . S
C1903 C1902 1.370 . S
C1903 C1907 1.408 . S
C1904 C1902 1.363 . S
C1904 C1905 1.370 . S
C1904 C1908 1.524 . S
C1905 C1897 1.503 . S
C1905 C1904 1.370 . S
C1905 C1906 1.403 . S
C1906 C1905 1.403 . S
C1906 C1907 1.404 . S
C1906 C1909 1.539 . S
C1907 C1903 1.408 . S
C1907 C1906 1.404 . S
C1907 H1919 0.930 . S
C1908 C1904 1.524 . S
C1908 H1920 0.956 . S
C1908 H1921 0.961 . S
C1908 H1922 0.961 . S
C1909 C1906 1.539 . S
C1909 H1923 0.958 . S
C1909 H1924 0.961 . S
C1909 H1925 0.960 . S
H1910 C1894 0.931 . S
H1911 C1899 0.929 . S
H1912 C1900 0.960 . S
H1913 C1900 0.962 . S
H1914 C1900 0.960 . S
H1915 C1901 0.961 . S
H1916 C1901 0.961 . S
H1917 C1901 0.961 . S
H1918 C1902 0.931 . S
H1919 C1907 0.930 . S
H1920 C1908 0.956 . S
H1921 C1908 0.961 . S
H1922 C1908 0.961 . S
H1923 C1909 0.958 . S
H1924 C1909 0.961 . S
H1925 C1909 0.960 . S
C1926 C1927 1.391 1_455 S
C1926 C1928 1.394 . S
C1926 H1942 0.931 . S
C1927 C1926 1.391 1_655 S
C1927 C1931 1.376 . S
C1928 C1926 1.394 . S
C1928 C1929 1.369 1_455 S
C1928 C1932 1.531 . S
C1929 C1928 1.369 1_655 S
C1929 C1930 1.410 . S
C1929 C1937 1.503 . S
C1930 C1929 1.410 . S
C1930 C1931 1.392 . S
C1930 C1933 1.511 . S
C1931 C1927 1.376 . S
C1931 C1930 1.392 . S
C1931 H1943 0.929 . S
C1932 C1928 1.531 . S
C1932 H1944 0.960 . S
C1932 H1945 0.962 . S
C1932 H1946 0.960 . S
C1933 C1930 1.511 . S
C1933 H1947 0.961 . S
C1933 H1948 0.961 . S
C1933 H1949 0.961 . S
C1934 C1935 1.370 . S
C1934 C1936 1.363 . S
C1934 H1950 0.931 . S
C1935 C1934 1.370 . S
C1935 C1939 1.408 1_655 S
C1936 C1934 1.363 . S
C1936 C1937 1.370 . S
C1936 C1940 1.524 . S
C1937 C1929 1.503 . S
C1937 C1936 1.370 . S
C1937 C1938 1.403 . S
C1938 C1937 1.403 . S
C1938 C1939 1.405 1_655 S
C1938 C1941 1.539 1_655 S
C1939 C1935 1.408 1_455 S
C1939 C1938 1.405 1_455 S
C1939 H1951 0.929 . S
C1940 C1936 1.524 . S
C1940 H1952 0.956 . S
C1940 H1953 0.961 . S
C1940 H1954 0.961 . S
C1941 C1938 1.539 1_455 S
C1941 H1955 0.958 . S
C1941 H1956 0.961 1_455 S
C1941 H1957 0.960 1_455 S
H1942 C1926 0.931 . S
H1943 C1931 0.929 . S
H1944 C1932 0.960 . S
H1945 C1932 0.962 . S
H1946 C1932 0.960 . S
H1947 C1933 0.961 . S
H1948 C1933 0.961 . S
H1949 C1933 0.961 . S
H1950 C1934 0.931 . S
H1951 C1939 0.929 . S
H1952 C1940 0.956 . S
H1953 C1940 0.961 . S
H1954 C1940 0.961 . S
H1955 C1941 0.958 . S
H1956 C1941 0.961 1_655 S
H1957 C1941 0.960 1_655 S
C1958 C1959 1.391 . S
C1958 C1960 1.394 . S
C1958 H1974 0.931 . S
C1959 C1958 1.391 . S
C1959 C1963 1.376 . S
C1960 C1958 1.394 . S
C1960 C1961 1.369 . S
C1960 C1964 1.531 . S
C1961 C1960 1.369 . S
C1961 C1962 1.410 . S
C1961 C1969 1.503 . S
C1962 C1961 1.410 . S
C1962 C1963 1.392 . S
C1962 C1965 1.511 . S
C1963 C1959 1.376 . S
C1963 C1962 1.392 . S
C1963 H1975 0.929 . S
C1964 C1960 1.531 . S
C1964 H1976 0.960 . S
C1964 H1977 0.962 . S
C1964 H1978 0.960 . S
C1965 C1962 1.511 . S
C1965 H1979 0.961 . S
C1965 H1980 0.961 . S
C1965 H1981 0.961 . S
C1966 C1967 1.370 . S
C1966 C1968 1.363 . S
C1966 H1982 0.931 . S
C1967 C1966 1.370 . S
C1967 C1971 1.408 . S
C1968 C1966 1.363 . S
C1968 C1969 1.370 . S
C1968 C1972 1.524 . S
C1969 C1961 1.503 . S
C1969 C1968 1.370 . S
C1969 C1970 1.403 . S
C1970 C1969 1.403 . S
C1970 C1971 1.404 . S
C1970 C1973 1.539 . S
C1971 C1967 1.408 . S
C1971 C1970 1.404 . S
C1971 H1983 0.930 . S
C1972 C1968 1.524 . S
C1972 H1984 0.956 . S
C1972 H1985 0.961 . S
C1972 H1986 0.961 . S
C1973 C1970 1.539 . S
C1973 H1987 0.958 . S
C1973 H1988 0.961 . S
C1973 H1989 0.960 . S
H1974 C1958 0.931 . S
H1975 C1963 0.929 . S
H1976 C1964 0.960 . S
H1977 C1964 0.962 . S
H1978 C1964 0.960 . S
H1979 C1965 0.961 . S
H1980 C1965 0.961 . S
H1981 C1965 0.961 . S
H1982 C1966 0.931 . S
H1983 C1971 0.930 . S
H1984 C1972 0.956 . S
H1985 C1972 0.961 . S
H1986 C1972 0.961 . S
H1987 C1973 0.958 . S
H1988 C1973 0.961 . S
H1989 C1973 0.960 . S
C1990 C1991 1.391 . S
C1990 C1992 1.394 . S
C1990 H2006 0.931 . S
C1991 C1990 1.391 . S
C1991 C1995 1.376 . S
C1992 C1990 1.394 . S
C1992 C1993 1.369 . S
C1992 C1996 1.531 . S
C1993 C1992 1.369 . S
C1993 C1994 1.410 . S
C1993 C2001 1.503 . S
C1994 C1993 1.410 . S
C1994 C1995 1.392 . S
C1994 C1997 1.511 . S
C1995 C1991 1.376 . S
C1995 C1994 1.392 . S
C1995 H2007 0.929 . S
C1996 C1992 1.531 . S
C1996 H2008 0.973 . S
C1996 H2009 0.962 . S
C1996 H2010 0.960 1_545 S
C1997 C1994 1.511 . S
C1997 H2011 0.961 . S
C1997 H2012 0.961 . S
C1997 H2013 0.961 . S
C1998 C1999 1.370 . S
C1998 C2000 1.363 . S
C1998 H2014 0.931 . S
C1999 C1998 1.370 . S
C1999 C2003 1.408 . S
C2000 C1998 1.363 . S
C2000 C2001 1.370 . S
C2000 C2004 1.524 . S
C2001 C1993 1.503 . S
C2001 C2000 1.370 . S
C2001 C2002 1.403 . S
C2002 C2001 1.403 . S
C2002 C2003 1.404 . S
C2002 C2005 1.539 1_545 S
C2003 C1999 1.408 . S
C2003 C2002 1.404 . S
C2003 H2015 0.930 1_545 S
C2004 C2000 1.524 . S
C2004 H2016 0.956 . S
C2004 H2017 0.961 . S
C2004 H2018 0.961 . S
C2005 C2002 1.539 1_565 S
C2005 H2019 0.958 . S
C2005 H2020 0.961 . S
C2005 H2021 0.960 . S
H2006 C1990 0.931 . S
H2007 C1995 0.929 . S
H2008 C1996 0.973 . S
H2009 C1996 0.962 . S
H2010 C1996 0.960 1_565 S
H2011 C1997 0.961 . S
H2012 C1997 0.961 . S
H2013 C1997 0.961 . S
H2014 C1998 0.931 . S
H2015 C2003 0.930 1_565 S
H2016 C2004 0.956 . S
H2017 C2004 0.961 . S
H2018 C2004 0.961 . S
H2019 C2005 0.958 . S
H2020 C2005 0.961 . S
H2021 C2005 0.960 . S
C2022 C2023 1.391 . S
C2022 C2024 1.394 . S
C2022 H2038 0.931 . S
C2023 C2022 1.391 . S
C2023 C2027 1.376 . S
C2024 C2022 1.394 . S
C2024 C2025 1.369 . S
C2024 C2028 1.531 . S
C2025 C2024 1.369 . S
C2025 C2026 1.410 . S
C2025 C2033 1.503 . S
C2026 C2025 1.410 . S
C2026 C2027 1.392 . S
C2026 C2029 1.511 . S
C2027 C2023 1.376 . S
C2027 C2026 1.392 . S
C2027 H2039 0.929 . S
C2028 C2024 1.531 . S
C2028 H2040 0.960 . S
C2028 H2041 0.962 . S
C2028 H2042 0.960 . S
C2029 C2026 1.511 . S
C2029 H2043 0.961 . S
C2029 H2044 0.961 . S
C2029 H2045 0.961 . S
C2030 C2031 1.370 . S
C2030 C2032 1.363 . S
C2030 H2046 0.931 . S
C2031 C2030 1.370 . S
C2031 C2035 1.408 . S
C2032 C2030 1.363 . S
C2032 C2033 1.370 . S
C2032 C2036 1.524 . S
C2033 C2025 1.503 . S
C2033 C2032 1.370 . S
C2033 C2034 1.403 . S
C2034 C2033 1.403 . S
C2034 C2035 1.404 . S
C2034 C2037 1.539 . S
C2035 C2031 1.408 . S
C2035 C2034 1.404 . S
C2035 H2047 0.930 . S
C2036 C2032 1.524 . S
C2036 H2048 0.956 . S
C2036 H2049 0.961 . S
C2036 H2050 0.961 . S
C2037 C2034 1.539 . S
C2037 H2051 0.958 . S
C2037 H2052 0.961 . S
C2037 H2053 0.960 . S
H2038 C2022 0.931 . S
H2039 C2027 0.929 . S
H2040 C2028 0.960 . S
H2041 C2028 0.962 . S
H2042 C2028 0.960 . S
H2043 C2029 0.961 . S
H2044 C2029 0.961 . S
H2045 C2029 0.961 . S
H2046 C2030 0.931 . S
H2047 C2035 0.930 . S
H2048 C2036 0.956 . S
H2049 C2036 0.961 . S
H2050 C2036 0.961 . S
H2051 C2037 0.958 . S
H2052 C2037 0.961 . S
H2053 C2037 0.960 . S
C2054 C2055 1.391 . S
C2054 C2056 1.394 . S
C2054 H2070 0.931 . S
C2055 C2054 1.391 . S
C2055 C2059 1.376 . S
C2056 C2054 1.394 . S
C2056 C2057 1.369 . S
C2056 C2060 1.531 . S
C2057 C2056 1.369 . S
C2057 C2058 1.410 . S
C2057 C2065 1.503 . S
C2058 C2057 1.410 . S
C2058 C2059 1.392 . S
C2058 C2061 1.511 . S
C2059 C2055 1.376 . S
C2059 C2058 1.392 . S
C2059 H2071 0.929 . S
C2060 C2056 1.531 . S
C2060 H2072 0.960 . S
C2060 H2073 0.962 . S
C2060 H2074 0.960 . S
C2061 C2058 1.511 . S
C2061 H2075 0.961 . S
C2061 H2076 0.961 . S
C2061 H2077 0.961 . S
C2062 C2063 1.370 . S
C2062 C2064 1.363 . S
C2062 H2078 0.931 . S
C2063 C2062 1.370 . S
C2063 C2067 1.408 . S
C2064 C2062 1.363 . S
C2064 C2065 1.370 . S
C2064 C2068 1.524 . S
C2065 C2057 1.503 . S
C2065 C2064 1.370 . S
C2065 C2066 1.403 . S
C2066 C2065 1.403 . S
C2066 C2067 1.404 . S
C2066 C2069 1.539 . S
C2067 C2063 1.408 . S
C2067 C2066 1.404 . S
C2067 H2079 0.930 . S
C2068 C2064 1.524 . S
C2068 H2080 0.956 . S
C2068 H2081 0.961 . S
C2068 H2082 0.961 . S
C2069 C2066 1.539 . S
C2069 H2083 0.958 . S
C2069 H2084 0.961 . S
C2069 H2085 0.960 . S
H2070 C2054 0.931 . S
H2071 C2059 0.929 . S
H2072 C2060 0.960 . S
H2073 C2060 0.962 . S
H2074 C2060 0.960 . S
H2075 C2061 0.961 . S
H2076 C2061 0.961 . S
H2077 C2061 0.961 . S
H2078 C2062 0.931 . S
H2079 C2067 0.930 . S
H2080 C2068 0.956 . S
H2081 C2068 0.961 . S
H2082 C2068 0.961 . S
H2083 C2069 0.958 . S
H2084 C2069 0.961 . S
H2085 C2069 0.960 . S
C2086 C2087 1.391 . S
C2086 C2088 1.394 . S
C2086 H2102 0.931 . S
C2087 C2086 1.391 . S
C2087 C2091 1.376 . S
C2088 C2086 1.394 . S
C2088 C2089 1.369 . S
C2088 C2092 1.531 . S
C2089 C2088 1.369 . S
C2089 C2090 1.410 . S
C2089 C2097 1.503 . S
C2090 C2089 1.410 . S
C2090 C2091 1.392 . S
C2090 C2093 1.511 . S
C2091 C2087 1.376 . S
C2091 C2090 1.392 . S
C2091 H2103 0.929 . S
C2092 C2088 1.531 . S
C2092 H2104 0.960 . S
C2092 H2105 0.962 . S
C2092 H2106 0.960 . S
C2093 C2090 1.511 . S
C2093 H2107 0.961 . S
C2093 H2108 0.961 . S
C2093 H2109 0.961 . S
C2094 C2095 1.370 . S
C2094 C2096 1.363 . S
C2094 H2110 0.931 . S
C2095 C2094 1.370 . S
C2095 C2099 1.408 . S
C2096 C2094 1.363 . S
C2096 C2097 1.370 . S
C2096 C2100 1.524 . S
C2097 C2089 1.503 . S
C2097 C2096 1.370 . S
C2097 C2098 1.403 . S
C2098 C2097 1.403 . S
C2098 C2099 1.404 . S
C2098 C2101 1.539 . S
C2099 C2095 1.408 . S
C2099 C2098 1.404 . S
C2099 H2111 0.930 . S
C2100 C2096 1.524 . S
C2100 H2112 0.956 . S
C2100 H2113 0.961 . S
C2100 H2114 0.961 . S
C2101 C2098 1.539 . S
C2101 H2115 0.958 . S
C2101 H2116 0.961 . S
C2101 H2117 0.960 . S
H2102 C2086 0.931 . S
H2103 C2091 0.929 . S
H2104 C2092 0.960 . S
H2105 C2092 0.962 . S
H2106 C2092 0.960 . S
H2107 C2093 0.961 . S
H2108 C2093 0.961 . S
H2109 C2093 0.961 . S
H2110 C2094 0.931 . S
H2111 C2099 0.930 . S
H2112 C2100 0.956 . S
H2113 C2100 0.961 . S
H2114 C2100 0.961 . S
H2115 C2101 0.958 . S
H2116 C2101 0.961 . S
H2117 C2101 0.960 . S
C2118 C2119 1.391 . S
C2118 C2120 1.394 . S
C2118 H2134 0.931 . S
C2119 C2118 1.391 . S
C2119 C2123 1.376 . S
C2120 C2118 1.394 . S
C2120 C2121 1.369 . S
C2120 C2124 1.531 . S
C2121 C2120 1.369 . S
C2121 C2122 1.410 . S
C2121 C2129 1.503 . S
C2122 C2121 1.410 . S
C2122 C2123 1.392 . S
C2122 C2125 1.511 . S
C2123 C2119 1.376 . S
C2123 C2122 1.392 . S
C2123 H2135 0.929 . S
C2124 C2120 1.531 . S
C2124 H2136 0.960 . S
C2124 H2137 0.962 . S
C2124 H2138 0.960 . S
C2125 C2122 1.511 . S
C2125 H2139 0.961 . S
C2125 H2140 0.961 . S
C2125 H2141 0.961 . S
C2126 C2127 1.370 . S
C2126 C2128 1.363 . S
C2126 H2142 0.931 . S
C2127 C2126 1.370 . S
C2127 C2131 1.408 . S
C2128 C2126 1.363 . S
C2128 C2129 1.370 . S
C2128 C2132 1.524 . S
C2129 C2121 1.503 . S
C2129 C2128 1.370 . S
C2129 C2130 1.403 . S
C2130 C2129 1.403 . S
C2130 C2131 1.404 . S
C2130 C2133 1.539 . S
C2131 C2127 1.408 . S
C2131 C2130 1.404 . S
C2131 H2143 0.930 . S
C2132 C2128 1.524 . S
C2132 H2144 0.956 . S
C2132 H2145 0.961 . S
C2132 H2146 0.961 . S
C2133 C2130 1.539 . S
C2133 H2147 0.958 . S
C2133 H2148 0.961 . S
C2133 H2149 0.960 . S
H2134 C2118 0.931 . S
H2135 C2123 0.929 . S
H2136 C2124 0.960 . S
H2137 C2124 0.962 . S
H2138 C2124 0.960 . S
H2139 C2125 0.961 . S
H2140 C2125 0.961 . S
H2141 C2125 0.961 . S
H2142 C2126 0.931 . S
H2143 C2131 0.930 . S
H2144 C2132 0.956 . S
H2145 C2132 0.961 . S
H2146 C2132 0.961 . S
H2147 C2133 0.958 . S
H2148 C2133 0.961 . S
H2149 C2133 0.960 . S
C2150 C2151 1.391 . S
C2150 C2152 1.394 . S
C2150 H2166 0.931 . S
C2151 C2150 1.391 . S
C2151 C2155 1.376 . S
C2152 C2150 1.394 . S
C2152 C2153 1.369 . S
C2152 C2156 1.531 . S
C2153 C2152 1.369 . S
C2153 C2154 1.410 . S
C2153 C2161 1.503 . S
C2154 C2153 1.410 . S
C2154 C2155 1.392 . S
C2154 C2157 1.511 . S
C2155 C2151 1.376 . S
C2155 C2154 1.392 . S
C2155 H2167 0.929 . S
C2156 C2152 1.531 . S
C2156 H2168 0.960 . S
C2156 H2169 0.962 . S
C2156 H2170 0.960 . S
C2157 C2154 1.511 . S
C2157 H2171 0.961 . S
C2157 H2172 0.961 . S
C2157 H2173 0.961 . S
C2158 C2159 1.370 . S
C2158 C2160 1.363 . S
C2158 H2174 0.931 . S
C2159 C2158 1.370 . S
C2159 C2163 1.408 . S
C2160 C2158 1.363 . S
C2160 C2161 1.370 . S
C2160 C2164 1.524 . S
C2161 C2153 1.503 . S
C2161 C2160 1.370 . S
C2161 C2162 1.403 . S
C2162 C2161 1.403 . S
C2162 C2163 1.404 . S
C2162 C2165 1.539 . S
C2163 C2159 1.408 . S
C2163 C2162 1.404 . S
C2163 H2175 0.930 . S
C2164 C2160 1.524 . S
C2164 H2176 0.956 . S
C2164 H2177 0.961 . S
C2164 H2178 0.961 . S
C2165 C2162 1.539 . S
C2165 H2179 0.958 . S
C2165 H2180 0.961 . S
C2165 H2181 0.960 . S
H2166 C2150 0.931 . S
H2167 C2155 0.929 . S
H2168 C2156 0.960 . S
H2169 C2156 0.962 . S
H2170 C2156 0.960 . S
H2171 C2157 0.961 . S
H2172 C2157 0.961 . S
H2173 C2157 0.961 . S
H2174 C2158 0.931 . S
H2175 C2163 0.930 . S
H2176 C2164 0.956 . S
H2177 C2164 0.961 . S
H2178 C2164 0.961 . S
H2179 C2165 0.958 . S
H2180 C2165 0.961 . S
H2181 C2165 0.960 . S
C2182 C2183 1.391 . S
C2182 C2184 1.394 . S
C2182 H2198 0.931 . S
C2183 C2182 1.391 . S
C2183 C2187 1.376 . S
C2184 C2182 1.394 . S
C2184 C2185 1.369 . S
C2184 C2188 1.531 . S
C2185 C2184 1.369 . S
C2185 C2186 1.410 . S
C2185 C2193 1.503 . S
C2186 C2185 1.410 . S
C2186 C2187 1.392 . S
C2186 C2189 1.511 . S
C2187 C2183 1.376 . S
C2187 C2186 1.392 . S
C2187 H2199 0.929 . S
C2188 C2184 1.531 . S
C2188 H2200 0.960 . S
C2188 H2201 0.962 . S
C2188 H2202 0.960 . S
C2189 C2186 1.511 . S
C2189 H2203 0.961 . S
C2189 H2204 0.961 . S
C2189 H2205 0.961 . S
C2190 C2191 1.370 . S
C2190 C2192 1.363 . S
C2190 H2206 0.931 . S
C2191 C2190 1.370 . S
C2191 C2195 1.408 . S
C2192 C2190 1.363 . S
C2192 C2193 1.370 . S
C2192 C2196 1.524 . S
C2193 C2185 1.503 . S
C2193 C2192 1.370 . S
C2193 C2194 1.403 . S
C2194 C2193 1.403 . S
C2194 C2195 1.404 . S
C2194 C2197 1.539 . S
C2195 C2191 1.408 . S
C2195 C2194 1.404 . S
C2195 H2207 0.930 . S
C2196 C2192 1.524 . S
C2196 H2208 0.956 . S
C2196 H2209 0.961 . S
C2196 H2210 0.961 . S
C2197 C2194 1.539 . S
C2197 H2211 0.958 . S
C2197 H2212 0.961 . S
C2197 H2213 0.960 . S
H2198 C2182 0.931 . S
H2199 C2187 0.929 . S
H2200 C2188 0.960 . S
H2201 C2188 0.962 . S
H2202 C2188 0.960 . S
H2203 C2189 0.961 . S
H2204 C2189 0.961 . S
H2205 C2189 0.961 . S
H2206 C2190 0.931 . S
H2207 C2195 0.930 . S
H2208 C2196 0.956 . S
H2209 C2196 0.961 . S
H2210 C2196 0.961 . S
H2211 C2197 0.958 . S
H2212 C2197 0.961 . S
H2213 C2197 0.960 . S
C2214 C2215 1.391 . S
C2214 C2216 1.394 . S
C2214 H2230 0.931 . S
C2215 C2214 1.391 . S
C2215 C2219 1.376 . S
C2216 C2214 1.394 . S
C2216 C2217 1.369 . S
C2216 C2220 1.531 . S
C2217 C2216 1.369 . S
C2217 C2218 1.410 . S
C2217 C2225 1.503 . S
C2218 C2217 1.410 . S
C2218 C2219 1.392 . S
C2218 C2221 1.511 . S
C2219 C2215 1.376 . S
C2219 C2218 1.392 . S
C2219 H2231 0.929 . S
C2220 C2216 1.531 . S
C2220 H2232 0.960 . S
C2220 H2233 0.962 . S
C2220 H2234 0.960 . S
C2221 C2218 1.511 . S
C2221 H2235 0.961 . S
C2221 H2236 0.961 . S
C2221 H2237 0.961 . S
C2222 C2223 1.370 . S
C2222 C2224 1.363 . S
C2222 H2238 0.931 . S
C2223 C2222 1.370 . S
C2223 C2227 1.408 . S
C2224 C2222 1.363 . S
C2224 C2225 1.370 . S
C2224 C2228 1.524 . S
C2225 C2217 1.503 . S
C2225 C2224 1.370 . S
C2225 C2226 1.403 . S
C2226 C2225 1.403 . S
C2226 C2227 1.404 . S
C2226 C2229 1.539 . S
C2227 C2223 1.408 . S
C2227 C2226 1.404 . S
C2227 H2239 0.930 . S
C2228 C2224 1.524 . S
C2228 H2240 0.956 . S
C2228 H2241 0.961 . S
C2228 H2242 0.961 . S
C2229 C2226 1.539 . S
C2229 H2243 0.958 . S
C2229 H2244 0.961 . S
C2229 H2245 0.960 . S
H2230 C2214 0.931 . S
H2231 C2219 0.929 . S
H2232 C2220 0.960 . S
H2233 C2220 0.962 . S
H2234 C2220 0.960 . S
H2235 C2221 0.961 . S
H2236 C2221 0.961 . S
H2237 C2221 0.961 . S
H2238 C2222 0.931 . S
H2239 C2227 0.930 . S
H2240 C2228 0.956 . S
H2241 C2228 0.961 . S
H2242 C2228 0.961 . S
H2243 C2229 0.958 . S
H2244 C2229 0.961 . S
H2245 C2229 0.960 . S
C2246 C2247 1.391 . S
C2246 C2248 1.394 . S
C2246 H2262 0.931 . S
C2247 C2246 1.391 . S
C2247 C2251 1.376 . S
C2248 C2246 1.394 . S
C2248 C2249 1.369 . S
C2248 C2252 1.531 . S
C2249 C2248 1.369 . S
C2249 C2250 1.410 . S
C2249 C2257 1.503 . S
C2250 C2249 1.410 . S
C2250 C2251 1.392 . S
C2250 C2253 1.511 . S
C2251 C2247 1.376 . S
C2251 C2250 1.392 . S
C2251 H2263 0.929 . S
C2252 C2248 1.531 . S
C2252 H2264 0.960 . S
C2252 H2265 0.962 . S
C2252 H2266 0.960 . S
C2253 C2250 1.511 . S
C2253 H2267 0.961 . S
C2253 H2268 0.961 . S
C2253 H2269 0.961 . S
C2254 C2255 1.370 . S
C2254 C2256 1.363 . S
C2254 H2270 0.931 . S
C2255 C2254 1.370 . S
C2255 C2259 1.408 . S
C2256 C2254 1.363 . S
C2256 C2257 1.370 . S
C2256 C2260 1.524 . S
C2257 C2249 1.503 . S
C2257 C2256 1.370 . S
C2257 C2258 1.403 . S
C2258 C2257 1.403 . S
C2258 C2259 1.404 . S
C2258 C2261 1.539 . S
C2259 C2255 1.408 . S
C2259 C2258 1.404 . S
C2259 H2271 0.930 . S
C2260 C2256 1.524 . S
C2260 H2272 0.956 . S
C2260 H2273 0.961 . S
C2260 H2274 0.961 . S
C2261 C2258 1.539 . S
C2261 H2275 0.958 . S
C2261 H2276 0.961 . S
C2261 H2277 0.960 . S
H2262 C2246 0.931 . S
H2263 C2251 0.929 . S
H2264 C2252 0.960 . S
H2265 C2252 0.962 . S
H2266 C2252 0.960 . S
H2267 C2253 0.961 . S
H2268 C2253 0.961 . S
H2269 C2253 0.961 . S
H2270 C2254 0.931 . S
H2271 C2259 0.930 . S
H2272 C2260 0.956 . S
H2273 C2260 0.961 . S
H2274 C2260 0.961 . S
H2275 C2261 0.958 . S
H2276 C2261 0.961 . S
H2277 C2261 0.960 . S
C2278 C2279 1.391 . S
C2278 C2280 1.394 . S
C2278 H2294 0.931 . S
C2279 C2278 1.391 . S
C2279 C2283 1.376 . S
C2280 C2278 1.394 . S
C2280 C2281 1.369 . S
C2280 C2284 1.531 . S
C2281 C2280 1.369 . S
C2281 C2282 1.410 . S
C2281 C2289 1.503 . S
C2282 C2281 1.410 . S
C2282 C2283 1.392 . S
C2282 C2285 1.511 . S
C2283 C2279 1.376 . S
C2283 C2282 1.392 . S
C2283 H2295 0.929 . S
C2284 C2280 1.531 . S
C2284 H2296 0.960 . S
C2284 H2297 0.962 . S
C2284 H2298 0.960 . S
C2285 C2282 1.511 . S
C2285 H2299 0.961 . S
C2285 H2300 0.961 . S
C2285 H2301 0.961 . S
C2286 C2287 1.370 . S
C2286 C2288 1.363 . S
C2286 H2302 0.931 . S
C2287 C2286 1.370 . S
C2287 C2291 1.408 . S
C2288 C2286 1.363 . S
C2288 C2289 1.370 . S
C2288 C2292 1.524 . S
C2289 C2281 1.503 . S
C2289 C2288 1.370 . S
C2289 C2290 1.403 . S
C2290 C2289 1.403 . S
C2290 C2291 1.404 . S
C2290 C2293 1.539 . S
C2291 C2287 1.408 . S
C2291 C2290 1.404 . S
C2291 H2303 0.930 . S
C2292 C2288 1.524 . S
C2292 H2304 0.956 . S
C2292 H2305 0.961 . S
C2292 H2306 0.961 . S
C2293 C2290 1.539 . S
C2293 H2307 0.958 . S
C2293 H2308 0.961 . S
C2293 H2309 0.960 . S
H2294 C2278 0.931 . S
H2295 C2283 0.929 . S
H2296 C2284 0.960 . S
H2297 C2284 0.962 . S
H2298 C2284 0.960 . S
H2299 C2285 0.961 . S
H2300 C2285 0.961 . S
H2301 C2285 0.961 . S
H2302 C2286 0.931 . S
H2303 C2291 0.930 . S
H2304 C2292 0.956 . S
H2305 C2292 0.961 . S
H2306 C2292 0.961 . S
H2307 C2293 0.958 . S
H2308 C2293 0.961 . S
H2309 C2293 0.960 . S
C2310 C2311 1.391 . S
C2310 C2312 1.394 . S
C2310 H2326 0.931 . S
C2311 C2310 1.391 . S
C2311 C2315 1.376 . S
C2312 C2310 1.394 . S
C2312 C2313 1.369 . S
C2312 C2316 1.531 . S
C2313 C2312 1.369 . S
C2313 C2314 1.410 . S
C2313 C2321 1.503 . S
C2314 C2313 1.410 . S
C2314 C2315 1.392 . S
C2314 C2317 1.511 . S
C2315 C2311 1.376 . S
C2315 C2314 1.392 . S
C2315 H2327 0.929 . S
C2316 C2312 1.531 . S
C2316 H2328 0.960 . S
C2316 H2329 0.962 . S
C2316 H2330 0.960 . S
C2317 C2314 1.511 . S
C2317 H2331 0.961 . S
C2317 H2332 0.961 . S
C2317 H2333 0.961 . S
C2318 C2319 1.370 . S
C2318 C2320 1.363 . S
C2318 H2334 0.931 . S
C2319 C2318 1.370 . S
C2319 C2323 1.408 . S
C2320 C2318 1.363 . S
C2320 C2321 1.370 . S
C2320 C2324 1.524 . S
C2321 C2313 1.503 . S
C2321 C2320 1.370 . S
C2321 C2322 1.403 . S
C2322 C2321 1.403 . S
C2322 C2323 1.404 . S
C2322 C2325 1.539 . S
C2323 C2319 1.408 . S
C2323 C2322 1.404 . S
C2323 H2335 0.930 . S
C2324 C2320 1.524 . S
C2324 H2336 0.956 . S
C2324 H2337 0.961 . S
C2324 H2338 0.961 . S
C2325 C2322 1.539 . S
C2325 H2339 0.958 . S
C2325 H2340 0.961 . S
C2325 H2341 0.960 . S
H2326 C2310 0.931 . S
H2327 C2315 0.929 . S
H2328 C2316 0.960 . S
H2329 C2316 0.962 . S
H2330 C2316 0.960 . S
H2331 C2317 0.961 . S
H2332 C2317 0.961 . S
H2333 C2317 0.961 . S
H2334 C2318 0.931 . S
H2335 C2323 0.930 . S
H2336 C2324 0.956 . S
H2337 C2324 0.961 . S
H2338 C2324 0.961 . S
H2339 C2325 0.958 . S
H2340 C2325 0.961 . S
H2341 C2325 0.960 . S
C2342 C2343 1.391 . S
C2342 C2344 1.394 . S
C2342 H2358 0.931 . S
C2343 C2342 1.391 . S
C2343 C2347 1.376 . S
C2344 C2342 1.394 . S
C2344 C2345 1.369 . S
C2344 C2348 1.531 . S
C2345 C2344 1.369 . S
C2345 C2346 1.410 . S
C2345 C2353 1.503 . S
C2346 C2345 1.410 . S
C2346 C2347 1.392 . S
C2346 C2349 1.511 . S
C2347 C2343 1.376 . S
C2347 C2346 1.392 . S
C2347 H2359 0.929 . S
C2348 C2344 1.531 . S
C2348 H2360 0.960 . S
C2348 H2361 0.962 . S
C2348 H2362 0.960 . S
C2349 C2346 1.511 . S
C2349 H2363 0.961 . S
C2349 H2364 0.961 . S
C2349 H2365 0.961 . S
C2350 C2351 1.370 . S
C2350 C2352 1.363 . S
C2350 H2366 0.931 . S
C2351 C2350 1.370 . S
C2351 C2355 1.408 . S
C2352 C2350 1.363 . S
C2352 C2353 1.370 . S
C2352 C2356 1.524 . S
C2353 C2345 1.503 . S
C2353 C2352 1.370 . S
C2353 C2354 1.403 . S
C2354 C2353 1.403 . S
C2354 C2355 1.404 . S
C2354 C2357 1.539 . S
C2355 C2351 1.408 . S
C2355 C2354 1.404 . S
C2355 H2367 0.930 . S
C2356 C2352 1.524 . S
C2356 H2368 0.956 . S
C2356 H2369 0.961 . S
C2356 H2370 0.961 . S
C2357 C2354 1.539 . S
C2357 H2371 0.958 . S
C2357 H2372 0.961 . S
C2357 H2373 0.960 . S
H2358 C2342 0.931 . S
H2359 C2347 0.929 . S
H2360 C2348 0.960 . S
H2361 C2348 0.962 . S
H2362 C2348 0.960 . S
H2363 C2349 0.961 . S
H2364 C2349 0.961 . S
H2365 C2349 0.961 . S
H2366 C2350 0.931 . S
H2367 C2355 0.930 . S
H2368 C2356 0.956 . S
H2369 C2356 0.961 . S
H2370 C2356 0.961 . S
H2371 C2357 0.958 . S
H2372 C2357 0.961 . S
H2373 C2357 0.960 . S
C2374 C2375 1.391 . S
C2374 C2376 1.394 . S
C2374 H2390 0.931 . S
C2375 C2374 1.391 . S
C2375 C2379 1.376 . S
C2376 C2374 1.394 . S
C2376 C2377 1.369 . S
C2376 C2380 1.531 . S
C2377 C2376 1.369 . S
C2377 C2378 1.410 . S
C2377 C2385 1.503 . S
C2378 C2377 1.410 . S
C2378 C2379 1.392 . S
C2378 C2381 1.511 . S
C2379 C2375 1.376 . S
C2379 C2378 1.392 . S
C2379 H2391 0.929 . S
C2380 C2376 1.531 . S
C2380 H2392 0.960 . S
C2380 H2393 0.962 . S
C2380 H2394 0.960 . S
C2381 C2378 1.511 . S
C2381 H2395 0.961 . S
C2381 H2396 0.961 . S
C2381 H2397 0.961 . S
C2382 C2383 1.370 . S
C2382 C2384 1.363 . S
C2382 H2398 0.931 . S
C2383 C2382 1.370 . S
C2383 C2387 1.408 . S
C2384 C2382 1.363 . S
C2384 C2385 1.370 . S
C2384 C2388 1.524 . S
C2385 C2377 1.503 . S
C2385 C2384 1.370 . S
C2385 C2386 1.403 . S
C2386 C2385 1.403 . S
C2386 C2387 1.404 . S
C2386 C2389 1.539 . S
C2387 C2383 1.408 . S
C2387 C2386 1.404 . S
C2387 H2399 0.930 . S
C2388 C2384 1.524 . S
C2388 H2400 0.956 . S
C2388 H2401 0.961 . S
C2388 H2402 0.961 . S
C2389 C2386 1.539 . S
C2389 H2403 0.958 . S
C2389 H2404 0.961 . S
C2389 H2405 0.960 . S
H2390 C2374 0.931 . S
H2391 C2379 0.929 . S
H2392 C2380 0.960 . S
H2393 C2380 0.962 . S
H2394 C2380 0.960 . S
H2395 C2381 0.961 . S
H2396 C2381 0.961 . S
H2397 C2381 0.961 . S
H2398 C2382 0.931 . S
H2399 C2387 0.930 . S
H2400 C2388 0.956 . S
H2401 C2388 0.961 . S
H2402 C2388 0.961 . S
H2403 C2389 0.958 . S
H2404 C2389 0.961 . S
H2405 C2389 0.960 . S
C2406 C2407 1.391 . S
C2406 C2408 1.394 . S
C2406 H2422 0.931 . S
C2407 C2406 1.391 . S
C2407 C2411 1.376 . S
C2408 C2406 1.394 . S
C2408 C2409 1.369 . S
C2408 C2412 1.531 . S
C2409 C2408 1.369 . S
C2409 C2410 1.410 . S
C2409 C2417 1.503 . S
C2410 C2409 1.410 . S
C2410 C2411 1.392 . S
C2410 C2413 1.511 . S
C2411 C2407 1.376 . S
C2411 C2410 1.392 . S
C2411 H2423 0.929 . S
C2412 C2408 1.531 . S
C2412 H2424 0.960 . S
C2412 H2425 0.962 . S
C2412 H2426 0.960 . S
C2413 C2410 1.511 . S
C2413 H2427 0.961 . S
C2413 H2428 0.961 . S
C2413 H2429 0.961 . S
C2414 C2415 1.370 . S
C2414 C2416 1.363 . S
C2414 H2430 0.931 . S
C2415 C2414 1.370 . S
C2415 C2419 1.408 . S
C2416 C2414 1.363 . S
C2416 C2417 1.370 . S
C2416 C2420 1.524 . S
C2417 C2409 1.503 . S
C2417 C2416 1.370 . S
C2417 C2418 1.403 . S
C2418 C2417 1.403 . S
C2418 C2419 1.404 . S
C2418 C2421 1.539 . S
C2419 C2415 1.408 . S
C2419 C2418 1.404 . S
C2419 H2431 0.930 . S
C2420 C2416 1.524 . S
C2420 H2432 0.956 . S
C2420 H2433 0.961 . S
C2420 H2434 0.961 . S
C2421 C2418 1.539 . S
C2421 H2435 0.958 . S
C2421 H2436 0.961 . S
C2421 H2437 0.960 . S
H2422 C2406 0.931 . S
H2423 C2411 0.929 . S
H2424 C2412 0.960 . S
H2425 C2412 0.962 . S
H2426 C2412 0.960 . S
H2427 C2413 0.961 . S
H2428 C2413 0.961 . S
H2429 C2413 0.961 . S
H2430 C2414 0.931 . S
H2431 C2419 0.930 . S
H2432 C2420 0.956 . S
H2433 C2420 0.961 . S
H2434 C2420 0.961 . S
H2435 C2421 0.958 . S
H2436 C2421 0.961 . S
H2437 C2421 0.960 . S
C2438 C2439 1.391 . S
C2438 C2440 1.394 . S
C2438 H2454 0.931 . S
C2439 C2438 1.391 . S
C2439 C2443 1.376 . S
C2440 C2438 1.394 . S
C2440 C2441 1.369 . S
C2440 C2444 1.531 . S
C2441 C2440 1.369 . S
C2441 C2442 1.410 . S
C2441 C2449 1.503 . S
C2442 C2441 1.410 . S
C2442 C2443 1.392 . S
C2442 C2445 1.511 . S
C2443 C2439 1.376 . S
C2443 C2442 1.392 . S
C2443 H2455 0.929 . S
C2444 C2440 1.531 . S
C2444 H2456 0.960 . S
C2444 H2457 0.962 . S
C2444 H2458 0.960 . S
C2445 C2442 1.511 . S
C2445 H2459 0.961 . S
C2445 H2460 0.961 . S
C2445 H2461 0.961 . S
C2446 C2447 1.370 . S
C2446 C2448 1.363 . S
C2446 H2462 0.931 . S
C2447 C2446 1.370 . S
C2447 C2451 1.408 . S
C2448 C2446 1.363 . S
C2448 C2449 1.370 . S
C2448 C2452 1.524 . S
C2449 C2441 1.503 . S
C2449 C2448 1.370 . S
C2449 C2450 1.403 . S
C2450 C2449 1.403 . S
C2450 C2451 1.404 . S
C2450 C2453 1.539 . S
C2451 C2447 1.408 . S
C2451 C2450 1.404 . S
C2451 H2463 0.930 . S
C2452 C2448 1.524 . S
C2452 H2464 0.956 . S
C2452 H2465 0.961 . S
C2452 H2466 0.961 . S
C2453 C2450 1.539 . S
C2453 H2467 0.958 . S
C2453 H2468 0.961 . S
C2453 H2469 0.960 . S
H2454 C2438 0.931 . S
H2455 C2443 0.929 . S
H2456 C2444 0.960 . S
H2457 C2444 0.962 . S
H2458 C2444 0.960 . S
H2459 C2445 0.961 . S
H2460 C2445 0.961 . S
H2461 C2445 0.961 . S
H2462 C2446 0.931 . S
H2463 C2451 0.930 . S
H2464 C2452 0.956 . S
H2465 C2452 0.961 . S
H2466 C2452 0.961 . S
H2467 C2453 0.958 . S
H2468 C2453 0.961 . S
H2469 C2453 0.960 . S
C2470 C2471 1.391 . S
C2470 C2472 1.394 . S
C2470 H2486 0.931 . S
C2471 C2470 1.391 . S
C2471 C2475 1.376 . S
C2472 C2470 1.394 . S
C2472 C2473 1.369 . S
C2472 C2476 1.531 . S
C2473 C2472 1.369 . S
C2473 C2474 1.410 . S
C2473 C2481 1.503 . S
C2474 C2473 1.410 . S
C2474 C2475 1.392 . S
C2474 C2477 1.511 . S
C2475 C2471 1.376 . S
C2475 C2474 1.392 . S
C2475 H2487 0.929 . S
C2476 C2472 1.531 . S
C2476 H2488 0.960 . S
C2476 H2489 0.962 . S
C2476 H2490 0.960 . S
C2477 C2474 1.511 . S
C2477 H2491 0.961 . S
C2477 H2492 0.961 . S
C2477 H2493 0.961 . S
C2478 C2479 1.370 . S
C2478 C2480 1.363 . S
C2478 H2494 0.931 . S
C2479 C2478 1.370 . S
C2479 C2483 1.408 . S
C2480 C2478 1.363 . S
C2480 C2481 1.370 . S
C2480 C2484 1.524 . S
C2481 C2473 1.503 . S
C2481 C2480 1.370 . S
C2481 C2482 1.403 . S
C2482 C2481 1.403 . S
C2482 C2483 1.404 . S
C2482 C2485 1.539 . S
C2483 C2479 1.408 . S
C2483 C2482 1.404 . S
C2483 H2495 0.930 . S
C2484 C2480 1.524 . S
C2484 H2496 0.956 . S
C2484 H2497 0.961 . S
C2484 H2498 0.961 . S
C2485 C2482 1.539 . S
C2485 H2499 0.958 . S
C2485 H2500 0.961 . S
C2485 H2501 0.960 . S
H2486 C2470 0.931 . S
H2487 C2475 0.929 . S
H2488 C2476 0.960 . S
H2489 C2476 0.962 . S
H2490 C2476 0.960 . S
H2491 C2477 0.961 . S
H2492 C2477 0.961 . S
H2493 C2477 0.961 . S
H2494 C2478 0.931 . S
H2495 C2483 0.930 . S
H2496 C2484 0.956 . S
H2497 C2484 0.961 . S
H2498 C2484 0.961 . S
H2499 C2485 0.958 . S
H2500 C2485 0.961 . S
H2501 C2485 0.960 . S
C2502 C2503 1.391 . S
C2502 C2504 1.394 . S
C2502 H2518 0.931 . S
C2503 C2502 1.391 . S
C2503 C2507 1.376 . S
C2504 C2502 1.394 . S
C2504 C2505 1.369 . S
C2504 C2508 1.531 . S
C2505 C2504 1.369 . S
C2505 C2506 1.410 . S
C2505 C2513 1.503 . S
C2506 C2505 1.410 . S
C2506 C2507 1.392 . S
C2506 C2509 1.511 . S
C2507 C2503 1.376 . S
C2507 C2506 1.392 . S
C2507 H2519 0.929 . S
C2508 C2504 1.531 . S
C2508 H2520 0.960 . S
C2508 H2521 0.962 . S
C2508 H2522 0.960 . S
C2509 C2506 1.511 . S
C2509 H2523 0.961 . S
C2509 H2524 0.961 . S
C2509 H2525 0.961 . S
C2510 C2511 1.370 . S
C2510 C2512 1.363 . S
C2510 H2526 0.931 . S
C2511 C2510 1.370 . S
C2511 C2515 1.408 . S
C2512 C2510 1.363 . S
C2512 C2513 1.370 . S
C2512 C2516 1.524 . S
C2513 C2505 1.503 . S
C2513 C2512 1.370 . S
C2513 C2514 1.403 . S
C2514 C2513 1.403 . S
C2514 C2515 1.404 . S
C2514 C2517 1.539 . S
C2515 C2511 1.408 . S
C2515 C2514 1.404 . S
C2515 H2527 0.930 . S
C2516 C2512 1.524 . S
C2516 H2528 0.956 . S
C2516 H2529 0.961 . S
C2516 H2530 0.961 . S
C2517 C2514 1.539 . S
C2517 H2531 0.958 . S
C2517 H2532 0.961 . S
C2517 H2533 0.960 . S
H2518 C2502 0.931 . S
H2519 C2507 0.929 . S
H2520 C2508 0.960 . S
H2521 C2508 0.962 . S
H2522 C2508 0.960 . S
H2523 C2509 0.961 . S
H2524 C2509 0.961 . S
H2525 C2509 0.961 . S
H2526 C2510 0.931 . S
H2527 C2515 0.930 . S
H2528 C2516 0.956 . S
H2529 C2516 0.961 . S
H2530 C2516 0.961 . S
H2531 C2517 0.958 . S
H2532 C2517 0.961 . S
H2533 C2517 0.960 . S
C2534 C2535 1.391 . S
C2534 C2536 1.394 . S
C2534 H2550 0.931 . S
C2535 C2534 1.391 . S
C2535 C2539 1.376 . S
C2536 C2534 1.394 . S
C2536 C2537 1.369 . S
C2536 C2540 1.531 . S
C2537 C2536 1.369 . S
C2537 C2538 1.410 . S
C2537 C2545 1.503 . S
C2538 C2537 1.410 . S
C2538 C2539 1.392 . S
C2538 C2541 1.511 . S
C2539 C2535 1.376 . S
C2539 C2538 1.392 . S
C2539 H2551 0.929 . S
C2540 C2536 1.531 . S
C2540 H2552 0.960 . S
C2540 H2553 0.962 . S
C2540 H2554 0.960 . S
C2541 C2538 1.511 . S
C2541 H2555 0.961 . S
C2541 H2556 0.961 . S
C2541 H2557 0.961 . S
C2542 C2543 1.370 . S
C2542 C2544 1.363 . S
C2542 H2558 0.931 . S
C2543 C2542 1.370 . S
C2543 C2547 1.408 . S
C2544 C2542 1.363 . S
C2544 C2545 1.370 . S
C2544 C2548 1.524 . S
C2545 C2537 1.503 . S
C2545 C2544 1.370 . S
C2545 C2546 1.403 . S
C2546 C2545 1.403 . S
C2546 C2547 1.404 . S
C2546 C2549 1.539 . S
C2547 C2543 1.408 . S
C2547 C2546 1.404 . S
C2547 H2559 0.930 . S
C2548 C2544 1.524 . S
C2548 H2560 0.956 . S
C2548 H2561 0.961 . S
C2548 H2562 0.961 . S
C2549 C2546 1.539 . S
C2549 H2563 0.958 . S
C2549 H2564 0.961 . S
C2549 H2565 0.960 . S
H2550 C2534 0.931 . S
H2551 C2539 0.929 . S
H2552 C2540 0.960 . S
H2553 C2540 0.962 . S
H2554 C2540 0.960 . S
H2555 C2541 0.961 . S
H2556 C2541 0.961 . S
H2557 C2541 0.961 . S
H2558 C2542 0.931 . S
H2559 C2547 0.930 . S
H2560 C2548 0.956 . S
H2561 C2548 0.961 . S
H2562 C2548 0.961 . S
H2563 C2549 0.958 . S
H2564 C2549 0.961 . S
H2565 C2549 0.960 . S
C2566 C2567 1.391 . S
C2566 C2568 1.394 . S
C2566 H2582 0.931 . S
C2567 C2566 1.391 . S
C2567 C2571 1.376 . S
C2568 C2566 1.394 . S
C2568 C2569 1.369 . S
C2568 C2572 1.531 . S
C2569 C2568 1.369 . S
C2569 C2570 1.410 . S
C2569 C2577 1.503 . S
C2570 C2569 1.410 . S
C2570 C2571 1.392 . S
C2570 C2573 1.511 . S
C2571 C2567 1.376 . S
C2571 C2570 1.392 . S
C2571 H2583 0.929 . S
C2572 C2568 1.531 . S
C2572 H2584 0.960 . S
C2572 H2585 0.962 . S
C2572 H2586 0.960 . S
C2573 C2570 1.511 . S
C2573 H2587 0.961 . S
C2573 H2588 0.961 . S
C2573 H2589 0.961 . S
C2574 C2575 1.370 . S
C2574 C2576 1.363 . S
C2574 H2590 0.931 . S
C2575 C2574 1.370 . S
C2575 C2579 1.408 . S
C2576 C2574 1.363 . S
C2576 C2577 1.370 . S
C2576 C2580 1.524 . S
C2577 C2569 1.503 . S
C2577 C2576 1.370 . S
C2577 C2578 1.403 . S
C2578 C2577 1.403 . S
C2578 C2579 1.404 . S
C2578 C2581 1.539 . S
C2579 C2575 1.408 . S
C2579 C2578 1.404 . S
C2579 H2591 0.930 . S
C2580 C2576 1.524 . S
C2580 H2592 0.956 . S
C2580 H2593 0.961 . S
C2580 H2594 0.961 . S
C2581 C2578 1.539 . S
C2581 H2595 0.958 . S
C2581 H2596 0.961 . S
C2581 H2597 0.960 . S
H2582 C2566 0.931 . S
H2583 C2571 0.929 . S
H2584 C2572 0.960 . S
H2585 C2572 0.962 . S
H2586 C2572 0.960 . S
H2587 C2573 0.961 . S
H2588 C2573 0.961 . S
H2589 C2573 0.961 . S
H2590 C2574 0.931 . S
H2591 C2579 0.930 . S
H2592 C2580 0.956 . S
H2593 C2580 0.961 . S
H2594 C2580 0.961 . S
H2595 C2581 0.958 . S
H2596 C2581 0.961 . S
H2597 C2581 0.960 . S
C2598 C2599 1.391 . S
C2598 C2600 1.394 . S
C2598 H2614 0.931 . S
C2599 C2598 1.391 . S
C2599 C2603 1.376 . S
C2600 C2598 1.394 . S
C2600 C2601 1.369 . S
C2600 C2604 1.531 . S
C2601 C2600 1.369 . S
C2601 C2602 1.410 . S
C2601 C2609 1.503 . S
C2602 C2601 1.410 . S
C2602 C2603 1.392 . S
C2602 C2605 1.511 . S
C2603 C2599 1.376 . S
C2603 C2602 1.392 . S
C2603 H2615 0.929 . S
C2604 C2600 1.531 . S
C2604 H2616 0.960 . S
C2604 H2617 0.962 . S
C2604 H2618 0.960 . S
C2605 C2602 1.511 . S
C2605 H2619 0.961 . S
C2605 H2620 0.961 . S
C2605 H2621 0.961 . S
C2606 C2607 1.370 . S
C2606 C2608 1.363 . S
C2606 H2622 0.931 . S
C2607 C2606 1.370 . S
C2607 C2611 1.408 . S
C2608 C2606 1.363 . S
C2608 C2609 1.370 . S
C2608 C2612 1.524 . S
C2609 C2601 1.503 . S
C2609 C2608 1.370 . S
C2609 C2610 1.403 . S
C2610 C2609 1.403 . S
C2610 C2611 1.404 . S
C2610 C2613 1.539 . S
C2611 C2607 1.408 . S
C2611 C2610 1.404 . S
C2611 H2623 0.930 . S
C2612 C2608 1.524 . S
C2612 H2624 0.956 . S
C2612 H2625 0.961 . S
C2612 H2626 0.961 . S
C2613 C2610 1.539 . S
C2613 H2627 0.958 . S
C2613 H2628 0.961 . S
C2613 H2629 0.960 . S
H2614 C2598 0.931 . S
H2615 C2603 0.929 . S
H2616 C2604 0.960 . S
H2617 C2604 0.962 . S
H2618 C2604 0.960 . S
H2619 C2605 0.961 . S
H2620 C2605 0.961 . S
H2621 C2605 0.961 . S
H2622 C2606 0.931 . S
H2623 C2611 0.930 . S
H2624 C2612 0.956 . S
H2625 C2612 0.961 . S
H2626 C2612 0.961 . S
H2627 C2613 0.958 . S
H2628 C2613 0.961 . S
H2629 C2613 0.960 . S
C2630 C2631 1.391 . S
C2630 C2632 1.394 . S
C2630 H2646 0.931 . S
C2631 C2630 1.391 . S
C2631 C2635 1.376 . S
C2632 C2630 1.394 . S
C2632 C2633 1.369 . S
C2632 C2636 1.531 . S
C2633 C2632 1.369 . S
C2633 C2634 1.410 . S
C2633 C2641 1.503 . S
C2634 C2633 1.410 . S
C2634 C2635 1.392 . S
C2634 C2637 1.511 . S
C2635 C2631 1.376 . S
C2635 C2634 1.392 . S
C2635 H2647 0.929 . S
C2636 C2632 1.531 . S
C2636 H2648 0.960 . S
C2636 H2649 0.962 . S
C2636 H2650 0.960 . S
C2637 C2634 1.511 . S
C2637 H2651 0.961 . S
C2637 H2652 0.961 . S
C2637 H2653 0.961 . S
C2638 C2639 1.370 . S
C2638 C2640 1.363 . S
C2638 H2654 0.931 . S
C2639 C2638 1.370 . S
C2639 C2643 1.408 . S
C2640 C2638 1.363 . S
C2640 C2641 1.370 . S
C2640 C2644 1.524 . S
C2641 C2633 1.503 . S
C2641 C2640 1.370 . S
C2641 C2642 1.403 . S
C2642 C2641 1.403 . S
C2642 C2643 1.404 . S
C2642 C2645 1.539 . S
C2643 C2639 1.408 . S
C2643 C2642 1.404 . S
C2643 H2655 0.930 . S
C2644 C2640 1.524 . S
C2644 H2656 0.956 . S
C2644 H2657 0.961 . S
C2644 H2658 0.961 . S
C2645 C2642 1.539 . S
C2645 H2659 0.958 . S
C2645 H2660 0.961 . S
C2645 H2661 0.960 . S
H2646 C2630 0.931 . S
H2647 C2635 0.929 . S
H2648 C2636 0.960 . S
H2649 C2636 0.962 . S
H2650 C2636 0.960 . S
H2651 C2637 0.961 . S
H2652 C2637 0.961 . S
H2653 C2637 0.961 . S
H2654 C2638 0.931 . S
H2655 C2643 0.930 . S
H2656 C2644 0.956 . S
H2657 C2644 0.961 . S
H2658 C2644 0.961 . S
H2659 C2645 0.958 . S
H2660 C2645 0.961 . S
H2661 C2645 0.960 . S
C2662 C2663 1.391 . S
C2662 C2664 1.394 . S
C2662 H2678 0.931 . S
C2663 C2662 1.391 . S
C2663 C2667 1.376 . S
C2664 C2662 1.394 . S
C2664 C2665 1.369 . S
C2664 C2668 1.531 . S
C2665 C2664 1.369 . S
C2665 C2666 1.410 . S
C2665 C2673 1.503 . S
C2666 C2665 1.410 . S
C2666 C2667 1.392 . S
C2666 C2669 1.511 . S
C2667 C2663 1.376 . S
C2667 C2666 1.392 . S
C2667 H2679 0.929 . S
C2668 C2664 1.531 . S
C2668 H2680 0.960 . S
C2668 H2681 0.962 . S
C2668 H2682 0.960 . S
C2669 C2666 1.511 . S
C2669 H2683 0.961 . S
C2669 H2684 0.961 . S
C2669 H2685 0.961 . S
C2670 C2671 1.370 . S
C2670 C2672 1.363 . S
C2670 H2686 0.931 . S
C2671 C2670 1.370 . S
C2671 C2675 1.408 . S
C2672 C2670 1.363 . S
C2672 C2673 1.370 . S
C2672 C2676 1.524 . S
C2673 C2665 1.503 . S
C2673 C2672 1.370 . S
C2673 C2674 1.403 . S
C2674 C2673 1.403 . S
C2674 C2675 1.404 . S
C2674 C2677 1.539 . S
C2675 C2671 1.408 . S
C2675 C2674 1.404 . S
C2675 H2687 0.930 . S
C2676 C2672 1.524 . S
C2676 H2688 0.956 . S
C2676 H2689 0.961 . S
C2676 H2690 0.961 . S
C2677 C2674 1.539 . S
C2677 H2691 0.958 . S
C2677 H2692 0.961 . S
C2677 H2693 0.960 . S
H2678 C2662 0.931 . S
H2679 C2667 0.929 . S
H2680 C2668 0.960 . S
H2681 C2668 0.962 . S
H2682 C2668 0.960 . S
H2683 C2669 0.961 . S
H2684 C2669 0.961 . S
H2685 C2669 0.961 . S
H2686 C2670 0.931 . S
H2687 C2675 0.930 . S
H2688 C2676 0.956 . S
H2689 C2676 0.961 . S
H2690 C2676 0.961 . S
H2691 C2677 0.958 . S
H2692 C2677 0.961 . S
H2693 C2677 0.960 . S
C2694 C2695 1.391 . S
C2694 C2696 1.394 . S
C2694 H2710 0.931 . S
C2695 C2694 1.391 . S
C2695 C2699 1.376 . S
C2696 C2694 1.394 . S
C2696 C2697 1.369 . S
C2696 C2700 1.531 . S
C2697 C2696 1.369 . S
C2697 C2698 1.410 . S
C2697 C2705 1.503 . S
C2698 C2697 1.410 . S
C2698 C2699 1.392 . S
C2698 C2701 1.511 . S
C2699 C2695 1.376 . S
C2699 C2698 1.392 . S
C2699 H2711 0.929 . S
C2700 C2696 1.531 . S
C2700 H2712 0.960 . S
C2700 H2713 0.962 . S
C2700 H2714 0.960 . S
C2701 C2698 1.511 . S
C2701 H2715 0.961 . S
C2701 H2716 0.961 . S
C2701 H2717 0.961 . S
C2702 C2703 1.370 . S
C2702 C2704 1.363 . S
C2702 H2718 0.931 . S
C2703 C2702 1.370 . S
C2703 C2707 1.408 . S
C2704 C2702 1.363 . S
C2704 C2705 1.370 . S
C2704 C2708 1.524 . S
C2705 C2697 1.503 . S
C2705 C2704 1.370 . S
C2705 C2706 1.403 . S
C2706 C2705 1.403 . S
C2706 C2707 1.404 . S
C2706 C2709 1.539 . S
C2707 C2703 1.408 . S
C2707 C2706 1.404 . S
C2707 H2719 0.930 . S
C2708 C2704 1.524 . S
C2708 H2720 0.956 . S
C2708 H2721 0.961 . S
C2708 H2722 0.961 . S
C2709 C2706 1.539 . S
C2709 H2723 0.958 . S
C2709 H2724 0.961 . S
C2709 H2725 0.960 . S
H2710 C2694 0.931 . S
H2711 C2699 0.929 . S
H2712 C2700 0.960 . S
H2713 C2700 0.962 . S
H2714 C2700 0.960 . S
H2715 C2701 0.961 . S
H2716 C2701 0.961 . S
H2717 C2701 0.961 . S
H2718 C2702 0.931 . S
H2719 C2707 0.930 . S
H2720 C2708 0.956 . S
H2721 C2708 0.961 . S
H2722 C2708 0.961 . S
H2723 C2709 0.958 . S
H2724 C2709 0.961 . S
H2725 C2709 0.960 . S
C2726 C2727 1.391 . S
C2726 C2728 1.394 . S
C2726 H2742 0.931 . S
C2727 C2726 1.391 . S
C2727 C2731 1.376 . S
C2728 C2726 1.394 . S
C2728 C2729 1.369 . S
C2728 C2732 1.531 . S
C2729 C2728 1.369 . S
C2729 C2730 1.410 . S
C2729 C2737 1.503 . S
C2730 C2729 1.410 . S
C2730 C2731 1.392 . S
C2730 C2733 1.511 . S
C2731 C2727 1.376 . S
C2731 C2730 1.392 . S
C2731 H2743 0.929 . S
C2732 C2728 1.531 . S
C2732 H2744 0.960 . S
C2732 H2745 0.962 . S
C2732 H2746 0.960 . S
C2733 C2730 1.511 . S
C2733 H2747 0.961 . S
C2733 H2748 0.961 . S
C2733 H2749 0.961 . S
C2734 C2735 1.370 . S
C2734 C2736 1.363 . S
C2734 H2750 0.931 . S
C2735 C2734 1.370 . S
C2735 C2739 1.408 . S
C2736 C2734 1.363 . S
C2736 C2737 1.370 . S
C2736 C2740 1.524 . S
C2737 C2729 1.503 . S
C2737 C2736 1.370 . S
C2737 C2738 1.403 . S
C2738 C2737 1.403 . S
C2738 C2739 1.404 . S
C2738 C2741 1.539 . S
C2739 C2735 1.408 . S
C2739 C2738 1.404 . S
C2739 H2751 0.930 . S
C2740 C2736 1.524 . S
C2740 H2752 0.956 . S
C2740 H2753 0.961 . S
C2740 H2754 0.961 . S
C2741 C2738 1.539 . S
C2741 H2755 0.958 . S
C2741 H2756 0.961 . S
C2741 H2757 0.960 . S
H2742 C2726 0.931 . S
H2743 C2731 0.929 . S
H2744 C2732 0.960 . S
H2745 C2732 0.962 . S
H2746 C2732 0.960 . S
H2747 C2733 0.961 . S
H2748 C2733 0.961 . S
H2749 C2733 0.961 . S
H2750 C2734 0.931 . S
H2751 C2739 0.930 . S
H2752 C2740 0.956 . S
H2753 C2740 0.961 . S
H2754 C2740 0.961 . S
H2755 C2741 0.958 . S
H2756 C2741 0.961 . S
H2757 C2741 0.960 . S
C2758 C2759 1.391 . S
C2758 C2760 1.394 . S
C2758 H2774 0.931 . S
C2759 C2758 1.391 . S
C2759 C2763 1.376 . S
C2760 C2758 1.394 . S
C2760 C2761 1.369 . S
C2760 C2764 1.531 . S
C2761 C2760 1.369 . S
C2761 C2762 1.410 . S
C2761 C2769 1.503 . S
C2762 C2761 1.410 . S
C2762 C2763 1.392 . S
C2762 C2765 1.511 . S
C2763 C2759 1.376 . S
C2763 C2762 1.392 . S
C2763 H2775 0.929 . S
C2764 C2760 1.531 . S
C2764 H2776 0.960 . S
C2764 H2777 0.962 . S
C2764 H2778 0.960 . S
C2765 C2762 1.511 . S
C2765 H2779 0.961 . S
C2765 H2780 0.961 . S
C2765 H2781 0.961 . S
C2766 C2767 1.370 . S
C2766 C2768 1.363 . S
C2766 H2782 0.931 . S
C2767 C2766 1.370 . S
C2767 C2771 1.408 . S
C2768 C2766 1.363 . S
C2768 C2769 1.370 . S
C2768 C2772 1.524 . S
C2769 C2761 1.503 . S
C2769 C2768 1.370 . S
C2769 C2770 1.403 . S
C2770 C2769 1.403 . S
C2770 C2771 1.404 . S
C2770 C2773 1.539 . S
C2771 C2767 1.408 . S
C2771 C2770 1.404 . S
C2771 H2783 0.930 . S
C2772 C2768 1.524 . S
C2772 H2784 0.956 . S
C2772 H2785 0.961 . S
C2772 H2786 0.961 . S
C2773 C2770 1.539 . S
C2773 H2787 0.958 . S
C2773 H2788 0.961 . S
C2773 H2789 0.960 . S
H2774 C2758 0.931 . S
H2775 C2763 0.929 . S
H2776 C2764 0.960 . S
H2777 C2764 0.962 . S
H2778 C2764 0.960 . S
H2779 C2765 0.961 . S
H2780 C2765 0.961 . S
H2781 C2765 0.961 . S
H2782 C2766 0.931 . S
H2783 C2771 0.930 . S
H2784 C2772 0.956 . S
H2785 C2772 0.961 . S
H2786 C2772 0.961 . S
H2787 C2773 0.958 . S
H2788 C2773 0.961 . S
H2789 C2773 0.960 . S
C487 C34 1.233 . S
C495 C238 1.115 . S
C519 C8 1.230 . S
C527 C254 1.135 . S
C559 C237 1.118 . S
C551 C18 1.288 . S
C591 C262 1.106 . S
C583 C31 1.278 . S
C615 C5 1.290 . S
C623 C271 1.187 . S
C655 C274 1.123 . S
C647 C21 1.231 1_655 S
C679 C73 1.272 . S
C687 C280 1.169 . S
C719 C296 1.132 . S
C711 C47 1.273 . S
C751 C279 1.169 . S
C743 C57 1.226 . S
C775 C70 1.269 . S
C783 C304 1.092 . S
C815 C313 1.139 . S
C807 C44 1.305 . S
C847 C316 1.156 . S
C839 C60 1.306 . S
C879 C325 1.172 . S
C871 C112 1.296 . S
C911 C337 1.156 . S
C903 C86 1.248 . S
C943 C334 1.167 . S
C935 C96 1.264 . S
C967 C109 1.230 . S
C975 C343 1.149 . S
C1007 C342 1.182 . S
C999 C83 1.302 . S
C1031 C99 1.233 . S
C1039 C359 1.123 . S
C1071 C364 1.151 . S
C1063 C151 1.305 . S
C1103 C380 1.128 . S
C1095 C125 1.262 . S
C1127 C135 1.270 . S
C1135 C363 1.114 . S
C1167 C388 1.143 . S
C1159 C148 1.203 . S
C1199 C397 1.187 . S
C1191 C122 1.238 . S
C1223 C138 1.229 . S
C1231 C400 1.139 . S
C1255 C190 1.259 . S
C1263 C409 1.157 . S
C1295 C421 1.161 . S
C1287 C164 1.303 . S
C1327 C418 1.113 . S
C1319 C174 1.256 . S
C1351 C187 1.197 . S
C1359 C427 1.121 . S
C1391 C426 1.144 . S
C1383 C161 1.240 . S
C1415 C177 1.278 . S
C1423 C443 1.140 . S
C1455 C448 1.147 . S
C1447 C229 1.302 . S
C1487 C464 1.161 . S
C1479 C203 1.309 . S
C1511 C213 1.258 . S
C1519 C447 1.165 . S
C1551 C469 1.134 . S
C1543 C226 1.197 . S
C1583 C468 1.136 . S
C1575 C200 1.275 . S
C1615 C485 1.180 . S
C1607 C216 1.297 . S
C1647 C250 1.379 . S
C1639 C143 1.447 . S
C1671 C117 1.468 . S
C1679 C253 1.394 . S
C1711 C241 1.302 . S
C1703 C140 1.417 . S
C1735 C231 1.457 . S
C1743 C258 1.396 . S
C1767 C205 1.470 . S
C1775 C259 1.399 . S
C1807 C275 1.387 1_565 S
C1799 C208 1.449 . S
C1839 C292 1.376 1_565 S
C1831 C182 1.424 . S
C1871 C295 1.372 . S
C1863 C156 1.472 . S
C1895 C179 1.408 . S
C1903 C283 1.315 . S
C1935 C300 1.363 1_655 S
C1927 C114 1.456 . S
C1959 C88 1.484 . S
C1967 C301 1.390 . S
C1991 C91 1.453 . S
C1999 C317 1.387 . S
C2023 C221 1.452 . S
C2031 C321 1.360 . S
C2055 C195 1.452 . S
C2063 C338 1.397 . S
C2095 C322 1.322 . S
C2087 C218 1.403 . S
C2127 C355 1.393 . S
C2119 C75 1.449 . S
C2159 C346 1.384 . S
C2151 C49 1.487 . S
C2183 C52 1.489 . S
C2191 C358 1.405 . S
C2223 C376 1.370 . S
C2215 C26 1.419 . S
C2255 C379 1.394 . S
C2247 C0 1.451 . S
C2279 C23 1.406 . S
C2287 C367 1.317 . S
C2319 C384 1.383 . S
C2311 C192 1.445 . S
C2351 C385 1.364 . S
C2343 C166 1.478 1_655 S
C2383 C401 1.384 . S
C2375 C169 1.462 . S
C2415 C405 1.348 . S
C2407 C65 1.425 . S
C2447 C422 1.385 . S
C2439 C39 1.476 . S
C2471 C62 1.426 . S
C2479 C406 1.311 . S
C2503 C153 1.455 1_565 S
C2511 C439 1.362 . S
C2535 C127 1.479 . S
C2543 C430 1.399 . S
C2575 C442 1.400 . S
C2567 C130 1.449 . S
C2599 C104 1.446 . S
C2607 C460 1.357 . S
C2631 C78 1.467 . S
C2639 C463 1.366 . S
C2671 C451 1.304 . S
C2663 C101 1.415 1_565 S
C2703 C481 1.375 . S
C2695 C36 1.447 . S
C2735 C472 1.392 . S
C2727 C10 1.482 . S
C2759 C13 1.480 . S
C2767 C484 1.419 . S
