# Generated by pormake.
# Topology gar, (4,6)-cn, num edge types: 1
# Building blocks:
#     Node 0, Type 0, BuildingBlock: NAHDIM_clean_sbu_0, # of connection points: 4
#     Node 1, Type 0, BuildingBlock: NAHDIM_clean_sbu_0, # of connection points: 4
#     Node 2, Type 0, BuildingBlock: NAHDIM_clean_sbu_0, # of connection points: 4
#     Node 3, Type 0, BuildingBlock: NAHDIM_clean_sbu_0, # of connection points: 4
#     Node 4, Type 0, BuildingBlock: NAHDIM_clean_sbu_0, # of connection points: 4
#     Node 5, Type 0, BuildingBlock: NAHDIM_clean_sbu_0, # of connection points: 4
#     Node 6, Type 0, BuildingBlock: NAHDIM_clean_sbu_0, # of connection points: 4
#     Node 7, Type 0, BuildingBlock: NAHDIM_clean_sbu_0, # of connection points: 4
#     Node 8, Type 0, BuildingBlock: NAHDIM_clean_sbu_0, # of connection points: 4
#     Node 9, Type 0, BuildingBlock: NAHDIM_clean_sbu_0, # of connection points: 4
#     Node 10, Type 0, BuildingBlock: NAHDIM_clean_sbu_0, # of connection points: 4
#     Node 11, Type 0, BuildingBlock: NAHDIM_clean_sbu_0, # of connection points: 4
#     Node 12, Type 0, BuildingBlock: NAHDIM_clean_sbu_0, # of connection points: 4
#     Node 13, Type 0, BuildingBlock: NAHDIM_clean_sbu_0, # of connection points: 4
#     Node 14, Type 0, BuildingBlock: NAHDIM_clean_sbu_0, # of connection points: 4
#     Node 15, Type 0, BuildingBlock: NAHDIM_clean_sbu_0, # of connection points: 4
#     Node 16, Type 0, BuildingBlock: NAHDIM_clean_sbu_0, # of connection points: 4
#     Node 17, Type 0, BuildingBlock: NAHDIM_clean_sbu_0, # of connection points: 4
#     Node 18, Type 0, BuildingBlock: NAHDIM_clean_sbu_0, # of connection points: 4
#     Node 19, Type 0, BuildingBlock: NAHDIM_clean_sbu_0, # of connection points: 4
#     Node 20, Type 0, BuildingBlock: NAHDIM_clean_sbu_0, # of connection points: 4
#     Node 21, Type 0, BuildingBlock: NAHDIM_clean_sbu_0, # of connection points: 4
#     Node 22, Type 0, BuildingBlock: NAHDIM_clean_sbu_0, # of connection points: 4
#     Node 23, Type 0, BuildingBlock: NAHDIM_clean_sbu_0, # of connection points: 4
#     Node 24, Type 1, BuildingBlock: PAMTOO_clean_sbu_0, # of connection points: 6
#     Node 25, Type 1, BuildingBlock: PAMTOO_clean_sbu_0, # of connection points: 6
#     Node 26, Type 1, BuildingBlock: PAMTOO_clean_sbu_0, # of connection points: 6
#     Node 27, Type 1, BuildingBlock: PAMTOO_clean_sbu_0, # of connection points: 6
#     Node 28, Type 1, BuildingBlock: PAMTOO_clean_sbu_0, # of connection points: 6
#     Node 29, Type 1, BuildingBlock: PAMTOO_clean_sbu_0, # of connection points: 6
#     Node 30, Type 1, BuildingBlock: PAMTOO_clean_sbu_0, # of connection points: 6
#     Node 31, Type 1, BuildingBlock: PAMTOO_clean_sbu_0, # of connection points: 6
#     Node 32, Type 1, BuildingBlock: PAMTOO_clean_sbu_0, # of connection points: 6
#     Node 33, Type 1, BuildingBlock: PAMTOO_clean_sbu_0, # of connection points: 6
#     Node 34, Type 1, BuildingBlock: PAMTOO_clean_sbu_0, # of connection points: 6
#     Node 35, Type 1, BuildingBlock: PAMTOO_clean_sbu_0, # of connection points: 6
#     Node 36, Type 1, BuildingBlock: PAMTOO_clean_sbu_0, # of connection points: 6
#     Node 37, Type 1, BuildingBlock: PAMTOO_clean_sbu_0, # of connection points: 6
#     Node 38, Type 1, BuildingBlock: PAMTOO_clean_sbu_0, # of connection points: 6
#     Node 39, Type 1, BuildingBlock: PAMTOO_clean_sbu_0, # of connection points: 6
#     Edge 40, Type (0, 1), BuildingBlock: CIFDUS_clean_linker_0, # of connection points: 2
#     Edge 41, Type (0, 1), BuildingBlock: CIFDUS_clean_linker_0, # of connection points: 2
#     Edge 42, Type (0, 1), BuildingBlock: CIFDUS_clean_linker_0, # of connection points: 2
#     Edge 43, Type (0, 1), BuildingBlock: CIFDUS_clean_linker_0, # of connection points: 2
#     Edge 44, Type (0, 1), BuildingBlock: CIFDUS_clean_linker_0, # of connection points: 2
#     Edge 45, Type (0, 1), BuildingBlock: CIFDUS_clean_linker_0, # of connection points: 2
#     Edge 46, Type (0, 1), BuildingBlock: CIFDUS_clean_linker_0, # of connection points: 2
#     Edge 47, Type (0, 1), BuildingBlock: CIFDUS_clean_linker_0, # of connection points: 2
#     Edge 48, Type (0, 1), BuildingBlock: CIFDUS_clean_linker_0, # of connection points: 2
#     Edge 49, Type (0, 1), BuildingBlock: CIFDUS_clean_linker_0, # of connection points: 2
#     Edge 50, Type (0, 1), BuildingBlock: CIFDUS_clean_linker_0, # of connection points: 2
#     Edge 51, Type (0, 1), BuildingBlock: CIFDUS_clean_linker_0, # of connection points: 2
#     Edge 52, Type (0, 1), BuildingBlock: CIFDUS_clean_linker_0, # of connection points: 2
#     Edge 53, Type (0, 1), BuildingBlock: CIFDUS_clean_linker_0, # of connection points: 2
#     Edge 54, Type (0, 1), BuildingBlock: CIFDUS_clean_linker_0, # of connection points: 2
#     Edge 55, Type (0, 1), BuildingBlock: CIFDUS_clean_linker_0, # of connection points: 2
#     Edge 56, Type (0, 1), BuildingBlock: CIFDUS_clean_linker_0, # of connection points: 2
#     Edge 57, Type (0, 1), BuildingBlock: CIFDUS_clean_linker_0, # of connection points: 2
#     Edge 58, Type (0, 1), BuildingBlock: CIFDUS_clean_linker_0, # of connection points: 2
#     Edge 59, Type (0, 1), BuildingBlock: CIFDUS_clean_linker_0, # of connection points: 2
#     Edge 60, Type (0, 1), BuildingBlock: CIFDUS_clean_linker_0, # of connection points: 2
#     Edge 61, Type (0, 1), BuildingBlock: CIFDUS_clean_linker_0, # of connection points: 2
#     Edge 62, Type (0, 1), BuildingBlock: CIFDUS_clean_linker_0, # of connection points: 2
#     Edge 63, Type (0, 1), BuildingBlock: CIFDUS_clean_linker_0, # of connection points: 2
#     Edge 64, Type (0, 1), BuildingBlock: CIFDUS_clean_linker_0, # of connection points: 2
#     Edge 65, Type (0, 1), BuildingBlock: CIFDUS_clean_linker_0, # of connection points: 2
#     Edge 66, Type (0, 1), BuildingBlock: CIFDUS_clean_linker_0, # of connection points: 2
#     Edge 67, Type (0, 1), BuildingBlock: CIFDUS_clean_linker_0, # of connection points: 2
#     Edge 68, Type (0, 1), BuildingBlock: CIFDUS_clean_linker_0, # of connection points: 2
#     Edge 69, Type (0, 1), BuildingBlock: CIFDUS_clean_linker_0, # of connection points: 2
#     Edge 70, Type (0, 1), BuildingBlock: CIFDUS_clean_linker_0, # of connection points: 2
#     Edge 71, Type (0, 1), BuildingBlock: CIFDUS_clean_linker_0, # of connection points: 2
#     Edge 72, Type (0, 1), BuildingBlock: CIFDUS_clean_linker_0, # of connection points: 2
#     Edge 73, Type (0, 1), BuildingBlock: CIFDUS_clean_linker_0, # of connection points: 2
#     Edge 74, Type (0, 1), BuildingBlock: CIFDUS_clean_linker_0, # of connection points: 2
#     Edge 75, Type (0, 1), BuildingBlock: CIFDUS_clean_linker_0, # of connection points: 2
#     Edge 76, Type (0, 1), BuildingBlock: CIFDUS_clean_linker_0, # of connection points: 2
#     Edge 77, Type (0, 1), BuildingBlock: CIFDUS_clean_linker_0, # of connection points: 2
#     Edge 78, Type (0, 1), BuildingBlock: CIFDUS_clean_linker_0, # of connection points: 2
#     Edge 79, Type (0, 1), BuildingBlock: CIFDUS_clean_linker_0, # of connection points: 2
#     Edge 80, Type (0, 1), BuildingBlock: CIFDUS_clean_linker_0, # of connection points: 2
#     Edge 81, Type (0, 1), BuildingBlock: CIFDUS_clean_linker_0, # of connection points: 2
#     Edge 82, Type (0, 1), BuildingBlock: CIFDUS_clean_linker_0, # of connection points: 2
#     Edge 83, Type (0, 1), BuildingBlock: CIFDUS_clean_linker_0, # of connection points: 2
#     Edge 84, Type (0, 1), BuildingBlock: CIFDUS_clean_linker_0, # of connection points: 2
#     Edge 85, Type (0, 1), BuildingBlock: CIFDUS_clean_linker_0, # of connection points: 2
#     Edge 86, Type (0, 1), BuildingBlock: CIFDUS_clean_linker_0, # of connection points: 2
#     Edge 87, Type (0, 1), BuildingBlock: CIFDUS_clean_linker_0, # of connection points: 2
#     Edge 88, Type (0, 1), BuildingBlock: CIFDUS_clean_linker_0, # of connection points: 2
#     Edge 89, Type (0, 1), BuildingBlock: CIFDUS_clean_linker_0, # of connection points: 2
#     Edge 90, Type (0, 1), BuildingBlock: CIFDUS_clean_linker_0, # of connection points: 2
#     Edge 91, Type (0, 1), BuildingBlock: CIFDUS_clean_linker_0, # of connection points: 2
#     Edge 92, Type (0, 1), BuildingBlock: CIFDUS_clean_linker_0, # of connection points: 2
#     Edge 93, Type (0, 1), BuildingBlock: CIFDUS_clean_linker_0, # of connection points: 2
#     Edge 94, Type (0, 1), BuildingBlock: CIFDUS_clean_linker_0, # of connection points: 2
#     Edge 95, Type (0, 1), BuildingBlock: CIFDUS_clean_linker_0, # of connection points: 2
#     Edge 96, Type (0, 1), BuildingBlock: CIFDUS_clean_linker_0, # of connection points: 2
#     Edge 97, Type (0, 1), BuildingBlock: CIFDUS_clean_linker_0, # of connection points: 2
#     Edge 98, Type (0, 1), BuildingBlock: CIFDUS_clean_linker_0, # of connection points: 2
#     Edge 99, Type (0, 1), BuildingBlock: CIFDUS_clean_linker_0, # of connection points: 2
#     Edge 100, Type (0, 1), BuildingBlock: CIFDUS_clean_linker_0, # of connection points: 2
#     Edge 101, Type (0, 1), BuildingBlock: CIFDUS_clean_linker_0, # of connection points: 2
#     Edge 102, Type (0, 1), BuildingBlock: CIFDUS_clean_linker_0, # of connection points: 2
#     Edge 103, Type (0, 1), BuildingBlock: CIFDUS_clean_linker_0, # of connection points: 2
#     Edge 104, Type (0, 1), BuildingBlock: CIFDUS_clean_linker_0, # of connection points: 2
#     Edge 105, Type (0, 1), BuildingBlock: CIFDUS_clean_linker_0, # of connection points: 2
#     Edge 106, Type (0, 1), BuildingBlock: CIFDUS_clean_linker_0, # of connection points: 2
#     Edge 107, Type (0, 1), BuildingBlock: CIFDUS_clean_linker_0, # of connection points: 2
#     Edge 108, Type (0, 1), BuildingBlock: CIFDUS_clean_linker_0, # of connection points: 2
#     Edge 109, Type (0, 1), BuildingBlock: CIFDUS_clean_linker_0, # of connection points: 2
#     Edge 110, Type (0, 1), BuildingBlock: CIFDUS_clean_linker_0, # of connection points: 2
#     Edge 111, Type (0, 1), BuildingBlock: CIFDUS_clean_linker_0, # of connection points: 2
#     Edge 112, Type (0, 1), BuildingBlock: CIFDUS_clean_linker_0, # of connection points: 2
#     Edge 113, Type (0, 1), BuildingBlock: CIFDUS_clean_linker_0, # of connection points: 2
#     Edge 114, Type (0, 1), BuildingBlock: CIFDUS_clean_linker_0, # of connection points: 2
#     Edge 115, Type (0, 1), BuildingBlock: CIFDUS_clean_linker_0, # of connection points: 2
#     Edge 116, Type (0, 1), BuildingBlock: CIFDUS_clean_linker_0, # of connection points: 2
#     Edge 117, Type (0, 1), BuildingBlock: CIFDUS_clean_linker_0, # of connection points: 2
#     Edge 118, Type (0, 1), BuildingBlock: CIFDUS_clean_linker_0, # of connection points: 2
#     Edge 119, Type (0, 1), BuildingBlock: CIFDUS_clean_linker_0, # of connection points: 2
#     Edge 120, Type (0, 1), BuildingBlock: CIFDUS_clean_linker_0, # of connection points: 2
#     Edge 121, Type (0, 1), BuildingBlock: CIFDUS_clean_linker_0, # of connection points: 2
#     Edge 122, Type (0, 1), BuildingBlock: CIFDUS_clean_linker_0, # of connection points: 2
#     Edge 123, Type (0, 1), BuildingBlock: CIFDUS_clean_linker_0, # of connection points: 2
#     Edge 124, Type (0, 1), BuildingBlock: CIFDUS_clean_linker_0, # of connection points: 2
#     Edge 125, Type (0, 1), BuildingBlock: CIFDUS_clean_linker_0, # of connection points: 2
#     Edge 126, Type (0, 1), BuildingBlock: CIFDUS_clean_linker_0, # of connection points: 2
#     Edge 127, Type (0, 1), BuildingBlock: CIFDUS_clean_linker_0, # of connection points: 2
#     Edge 128, Type (0, 1), BuildingBlock: CIFDUS_clean_linker_0, # of connection points: 2
#     Edge 129, Type (0, 1), BuildingBlock: CIFDUS_clean_linker_0, # of connection points: 2
#     Edge 130, Type (0, 1), BuildingBlock: CIFDUS_clean_linker_0, # of connection points: 2
#     Edge 131, Type (0, 1), BuildingBlock: CIFDUS_clean_linker_0, # of connection points: 2
#     Edge 132, Type (0, 1), BuildingBlock: CIFDUS_clean_linker_0, # of connection points: 2
#     Edge 133, Type (0, 1), BuildingBlock: CIFDUS_clean_linker_0, # of connection points: 2
#     Edge 134, Type (0, 1), BuildingBlock: CIFDUS_clean_linker_0, # of connection points: 2
#     Edge 135, Type (0, 1), BuildingBlock: CIFDUS_clean_linker_0, # of connection points: 2
# Relax obj value: 0.173
# Max RMSD: 0.267
# Mean RMSD: 0.185
data_MOF--net-gar--node1-NAHDIM_clean_sbu_0--node2-PAMTOO_clean_sbu_0--edge1-CIFDUS_clean_linker_0
_symmetry_space_group_name_H-M    P1
_symmetry_Int_Tables_number       1
_symmetry_cell_setting            triclinic
loop_
_symmetry_equiv_pos_as_xyz
'x, y, z'
_cell_length_a     54.204806
_cell_length_b     53.384491
_cell_length_c     50.02763
_cell_angle_alpha  96.823497
_cell_angle_beta   96.693063
_cell_angle_gamma 103.71675
loop_
_atom_site_label
_atom_site_type_symbol
_atom_site_fract_x
_atom_site_fract_y
_atom_site_fract_z
_atom_type_partial_charge
C0 C 0.11042 0.32669 0.3506 0.0
O1 O 0.11592 0.3355 0.37681 0.0
O2 O 0.04945 0.29417 0.38367 0.0
Zn3 Zn 0.05318 0.32407 0.36094 0.0
O4 O 0.05908 0.35771 0.39048 0.0
C5 C 0.99629 0.3249 0.34594 0.0
O6 O 1.00131 0.34097 0.36901 0.0
O7 O 0.08657 0.32169 0.33951 0.0
C8 C 0.05424 0.37974 0.38798 0.0
O9 O 0.04649 0.38423 0.36354 0.0
C10 C 0.03807 0.29535 0.40452 0.0
O11 O 0.02939 0.3159 0.41094 0.0
O12 O 0.01476 0.3161 0.33759 0.0
C13 C 0.97641 0.76832 0.73526 0.0
O14 O 0.98548 0.7888 0.72381 0.0
O15 O 0.02087 0.71538 0.69315 0.0
Zn16 Zn 0.02439 0.75232 0.71643 0.0
O17 O 0.02586 0.78201 0.69232 0.0
C18 C 0.08063 0.75325 0.73207 0.0
O19 O 0.07639 0.73998 0.70746 0.0
O20 O 0.98955 0.75099 0.73596 0.0
C21 C 0.04468 0.79287 0.68093 0.0
O22 O 0.0655 0.78427 0.68291 0.0
C23 C 0.02449 0.71099 0.66836 0.0
O24 O 0.02933 0.73081 0.65483 0.0
O25 O 0.0618 0.76056 0.74143 0.0
C26 C 0.60715 0.82647 0.84679 0.0
O27 O 0.61029 0.82849 0.87347 0.0
O28 O 0.55126 0.79958 0.88008 0.0
Zn29 Zn 0.55266 0.82989 0.85789 0.0
O30 O 0.56037 0.86604 0.885 0.0
C31 C 0.49446 0.8068 0.84368 0.0
O32 O 0.50068 0.79028 0.85901 0.0
O33 O 0.58486 0.82727 0.83476 0.0
C34 C 0.54171 0.87559 0.89096 0.0
O35 O 0.51822 0.86237 0.88057 0.0
C36 C 0.54556 0.7988 0.90402 0.0
O37 O 0.54077 0.81948 0.91725 0.0
O38 O 0.51303 0.824 0.83725 0.0
C39 C 0.47 0.24986 0.22821 0.0
O40 O 0.46251 0.22959 0.20885 0.0
O41 O 0.52082 0.21784 0.18747 0.0
Zn42 Zn 0.52658 0.25529 0.21185 0.0
O43 O 0.52922 0.28318 0.18581 0.0
C44 C 0.58274 0.25564 0.2243 0.0
O45 O 0.57748 0.24635 0.19823 0.0
O46 O 0.4943 0.26145 0.2334 0.0
C47 C 0.54777 0.30345 0.18745 0.0
O48 O 0.56755 0.30737 0.20669 0.0
C49 C 0.52757 0.21681 0.16369 0.0
O50 O 0.53465 0.23888 0.15414 0.0
O51 O 0.56452 0.26177 0.236 0.0
C52 C 0.02785 0.80129 0.12615 0.0
O53 O 0.02418 0.80396 0.10034 0.0
O54 O 0.08501 0.77751 0.09432 0.0
Zn55 Zn 0.08321 0.81277 0.11888 0.0
O56 O 0.08354 0.84992 0.10354 0.0
C57 C 0.13556 0.8118 0.1459 0.0
O58 O 0.13845 0.80477 0.12063 0.0
O59 O 0.05075 0.804 0.13785 0.0
C60 C 0.07124 0.85602 0.08256 0.0
O61 O 0.0565 0.83699 0.06436 0.0
C62 C 0.06717 0.75799 0.08143 0.0
O63 O 0.04341 0.76014 0.07847 0.0
O64 O 0.11456 0.81759 0.15023 0.0
C65 C 0.55622 0.79289 0.43794 0.0
O66 O 0.56462 0.80523 0.46286 0.0
O67 O 0.50757 0.74338 0.47655 0.0
Zn68 Zn 0.50667 0.77965 0.45895 0.0
O69 O 0.51873 0.81959 0.48025 0.0
C70 C 0.44906 0.77316 0.43989 0.0
O71 O 0.4458 0.76935 0.46485 0.0
O72 O 0.53261 0.78044 0.43179 0.0
C73 C 0.50624 0.83476 0.49136 0.0
O74 O 0.48251 0.82459 0.4949 0.0
C75 C 0.51574 0.73932 0.50054 0.0
O76 O 0.52405 0.75976 0.51966 0.0
O77 O 0.47174 0.77681 0.43364 0.0
C78 C 0.52625 0.28867 0.63022 0.0
O79 O 0.52286 0.27459 0.60611 0.0
O80 O 0.57545 0.27285 0.59302 0.0
Zn81 Zn 0.57841 0.31125 0.61629 0.0
O82 O 0.57534 0.34734 0.59876 0.0
C83 C 0.63049 0.30729 0.6439 0.0
O84 O 0.63012 0.29277 0.62067 0.0
O85 O 0.54784 0.3052 0.63868 0.0
C86 C 0.57128 0.35229 0.57418 0.0
O87 O 0.57006 0.33346 0.55422 0.0
C88 C 0.5609 0.25986 0.57119 0.0
O89 O 0.54604 0.2717 0.55759 0.0
O90 O 0.61178 0.31793 0.64638 0.0
C91 C 0.0533 0.2819 0.93674 0.0
O92 O 0.05717 0.26609 0.95409 0.0
O93 O 0.01193 0.24722 0.97867 0.0
Zn94 Zn 1.00512 0.28128 0.96044 0.0
O95 O 0.01361 0.31865 0.98584 0.0
C96 C 0.94776 0.27631 0.94135 0.0
O97 O 0.94643 0.28042 0.96751 0.0
O98 O 0.03276 0.28969 0.93549 0.0
C99 C 1.0042 0.33723 0.97854 0.0
O100 O 0.98683 0.33187 0.95667 0.0
C101 C 0.99701 0.22605 0.98367 0.0
O102 O 0.97209 0.22331 0.9789 0.0
O103 O 0.96941 0.27487 0.9342 0.0
C104 C 0.39108 0.08152 0.31528 0.0
O105 O 0.41616 0.08543 0.31831 0.0
O106 O 0.4094 0.02106 0.29617 0.0
Zn107 Zn 0.38788 0.02857 0.32431 0.0
O108 O 0.40763 0.03203 0.36018 0.0
C109 C 0.34434 0.99352 0.29554 0.0
O110 O 0.3508 0.00807 0.27677 0.0
O111 O 0.37698 0.05988 0.31857 0.0
C112 C 0.40515 0.01467 0.3756 0.0
O113 O 0.38654 0.99319 0.36903 0.0
C114 C 0.41164 -0.00185 0.28909 0.0
O115 O 0.40007 0.97897 0.30104 0.0
O116 O 0.35708 -0.00018 0.31927 0.0
C117 C 0.31622 0.18631 0.53468 0.0
O118 O 0.32564 0.21126 0.54397 0.0
O119 O 0.27997 0.22649 0.55854 0.0
Zn120 Zn 0.26989 0.20302 0.52191 0.0
O121 O 0.27711 0.22259 0.48955 0.0
C122 C 0.22867 0.16726 0.53772 0.0
O123 O 0.24768 0.16991 0.55759 0.0
O124 O 0.29283 0.17823 0.52361 0.0
C125 C 0.26142 0.234 0.47848 0.0
O126 O 0.24012 0.23385 0.48867 0.0
C127 C 0.26702 0.24026 0.57028 0.0
O128 O 0.24504 0.24179 0.55732 0.0
O129 O 0.23268 0.18077 0.51856 0.0
C130 C 0.15529 0.0221 0.78262 0.0
O131 O 0.13787 0.0191 0.76114 0.0
O132 O 0.11579 0.06123 0.76421 0.0
Zn133 Zn 0.13866 0.06871 0.80109 0.0
O134 O 0.12302 0.06657 0.8361 0.0
C135 C 0.15469 0.12311 0.7974 0.0
O136 O 0.12971 0.11938 0.7916 0.0
O137 O 0.159 0.04173 0.80107 0.0
C138 C 0.10004 0.06126 0.84107 0.0
O139 O 0.08098 0.05733 0.821 0.0
C140 C 0.09573 0.06686 0.75343 0.0
O141 O 0.08323 0.07978 0.76856 0.0
O142 O 0.16357 0.10407 0.80315 0.0
C143 C 0.25784 0.96211 0.00033 0.0
O144 O 0.24921 0.93676 0.99291 0.0
O145 O 0.29123 0.92271 0.02383 0.0
Zn146 Zn 0.30187 0.94775 0.99808 0.0
O147 O 0.29755 0.93085 0.96021 0.0
C148 C 0.35127 0.95987 0.02984 0.0
O149 O 0.34145 0.93924 0.04067 0.0
O150 O 0.28142 0.97261 0.00107 0.0
C151 C 0.31588 0.92204 0.95315 0.0
O152 O 0.33648 0.92459 0.97093 0.0
C153 C 0.29027 0.89857 0.02165 0.0
O154 O 0.29392 0.88628 -0.00132 0.0
O155 O 0.33778 0.96689 0.01109 0.0
C156 C 0.26407 0.40033 0.03194 0.0
O157 O 0.25341 0.37514 0.02624 0.0
O158 O 0.31259 0.3724 0.08211 0.0
Zn159 Zn 0.31309 0.38568 0.04519 0.0
O160 O 0.30632 0.35858 0.01072 0.0
C161 C 0.36875 0.40474 0.056 0.0
O162 O 0.36733 0.38322 0.06668 0.0
O163 O 0.28805 0.40832 0.04059 0.0
C164 C 0.32177 0.3454 0.00321 0.0
O165 O 0.34255 0.34626 0.02003 0.0
C166 C 0.29531 0.35493 0.08934 0.0
O167 O 0.27529 0.34218 0.07137 0.0
O168 O 0.34818 0.40987 0.04598 0.0
C169 C 0.83194 0.13976 0.0602 0.0
O170 O 0.83772 0.16511 0.06792 0.0
O171 O 0.80155 0.16939 0.10771 0.0
Zn172 Zn 0.7863 0.14591 0.07335 0.0
O173 O 0.7814 0.16675 0.04372 0.0
C174 C 0.73984 0.13324 0.09406 0.0
O175 O 0.75007 0.15625 0.10876 0.0
O176 O 0.81003 0.12593 0.06255 0.0
C177 C 0.76377 0.17862 0.04145 0.0
O178 O 0.74691 0.17625 0.05841 0.0
C179 C 0.80657 0.19397 0.10904 0.0
O180 O 0.80436 0.2045 0.08679 0.0
O181 O 0.75261 0.12359 0.07775 0.0
C182 C 0.20598 0.51735 0.25895 0.0
O183 O 0.18264 0.51249 0.26533 0.0
O184 O 0.16154 0.54997 0.22237 0.0
Zn185 Zn 0.1932 0.56254 0.24899 0.0
O186 O 0.18519 0.56966 0.2869 0.0
C187 C 0.21078 0.60128 0.21507 0.0
O188 O 0.19156 0.58822 0.19631 0.0
O189 O 0.21431 0.53772 0.24885 0.0
C190 C 0.18385 0.59203 0.29742 0.0
O191 O 0.1877 0.6115 0.28335 0.0
C192 C 0.14387 0.56158 0.22486 0.0
O193 O 0.14588 0.57885 0.24647 0.0
O194 O 0.21394 0.594 0.2382 0.0
C195 C 0.7588 0.89967 0.5316 0.0
O196 O 0.7508 0.87607 0.51762 0.0
O197 O 0.80641 0.87207 0.58629 0.0
Zn198 Zn 0.80715 0.886 0.54935 0.0
O199 O 0.79944 0.85907 0.51437 0.0
C200 C 0.86264 0.91462 0.56007 0.0
O201 O 0.86611 0.8967 0.57495 0.0
O202 O 0.78075 0.9066 0.54628 0.0
C203 C 0.81659 0.85774 0.49918 0.0
O204 O 0.84028 0.87146 0.50795 0.0
C205 C 0.79873 0.84808 0.58869 0.0
O206 O 0.79198 0.83071 0.5665 0.0
O207 O 0.84018 0.91333 0.54839 0.0
C208 C 0.93261 0.0763 0.3016 0.0
O209 O 0.9526 0.07768 0.3198 0.0
O210 O 0.95881 0.03133 0.24006 0.0
Zn211 Zn 0.94619 0.02979 0.27689 0.0
O212 O 0.97401 0.03622 0.31039 0.0
C213 C 0.92625 0.97367 0.26393 0.0
O214 O 0.9477 0.97572 0.25356 0.0
O215 O 0.92627 0.0577 0.28165 0.0
C216 C 0.97831 0.01865 0.32414 0.0
O217 O 0.96662 0.99412 0.31491 0.0
C218 C 0.98143 0.03653 0.23393 0.0
O219 O 1.00123 0.04174 0.25338 0.0
O220 O 0.92132 0.99426 0.27511 0.0
C221 C 0.33577 0.63588 0.582 0.0
O222 O 0.34 0.66011 0.5774 0.0
O223 O 0.29545 0.67217 0.61409 0.0
Zn224 Zn 0.28835 0.64448 0.58253 0.0
O225 O 0.29068 0.66071 0.54846 0.0
C226 C 0.23686 0.63239 0.589 0.0
O227 O 0.24393 0.65656 0.60152 0.0
O228 O 0.31372 0.62416 0.58615 0.0
C229 C 0.27839 0.67775 0.54449 0.0
O230 O 0.26376 0.68353 0.56219 0.0
C231 C 0.30844 0.69528 0.6141 0.0
O232 O 0.3194 0.70143 0.5929 0.0
O233 O 0.25334 0.62178 0.57984 0.0
C234 C 0.43594 0.57738 0.78464 0.0
O235 O 0.45977 0.58814 0.78184 0.0
O236 O 0.46395 0.53308 0.73806 0.0
Zn237 Zn 0.45008 0.52822 0.77424 0.0
O238 O 0.47698 0.53626 0.80871 0.0
C239 C 0.43085 0.4711 0.7624 0.0
O240 O 0.4533 0.4717 0.75467 0.0
O241 O 0.42794 0.5527 0.78129 0.0
C242 C 0.47967 0.51944 0.82416 0.0
O243 O 0.46685 0.49501 0.81628 0.0
C244 C 0.4876 0.53688 0.73557 0.0
O245 O 0.50427 0.53785 0.7572 0.0
O246 O 0.42584 0.49237 0.7712 0.0
C247 C 0.69214 -0.00157 0.76148 0.0
O248 O 0.66952 -0.00125 0.76829 0.0
O249 O 0.67107 0.04779 0.71413 0.0
Zn250 Zn 0.69107 0.04694 0.74863 0.0
O251 O 0.67099 0.05131 0.77875 0.0
C252 C 0.72842 0.08908 0.73793 0.0
O253 O 0.71881 0.07998 0.71231 0.0
O254 O 0.7029 0.01556 0.74827 0.0
C255 C 0.67362 0.07319 0.79339 0.0
O256 O 0.6898 0.09407 0.78845 0.0
C257 C 0.65929 0.0654 0.71147 0.0
O258 O 0.65949 0.08284 0.7324 0.0
O259 O 0.72141 0.07585 0.75624 0.0
C260 C 0.82712 0.69788 0.03074 0.0
O261 O 0.83211 0.72138 0.02392 0.0
O262 O 0.7734 0.72558 0.06095 0.0
Zn263 Zn 0.77458 0.70285 0.02507 0.0
O264 O 0.7802 0.72152 0.9916 0.0
C265 C 0.72201 0.6762 0.02671 0.0
O266 O 0.72271 0.69937 0.03952 0.0
O267 O 0.80409 0.6864 0.03248 0.0
C268 C 0.76894 0.73833 0.98373 0.0
O269 O 0.75213 0.74529 0.998 0.0
C270 C 0.77948 0.75018 0.06852 0.0
O271 O 0.78828 0.76575 0.05144 0.0
O272 O 0.74192 0.67284 0.01712 0.0
C273 C 0.88442 0.57849 0.80531 0.0
O274 O 0.90866 0.58268 0.80199 0.0
O275 O 0.91598 0.5285 0.80042 0.0
Zn276 Zn 0.89172 0.53399 0.82662 0.0
O277 O 0.90732 0.53924 0.86488 0.0
C278 C 0.85746 0.4919 0.79557 0.0
O279 O 0.86374 0.50543 0.77598 0.0
O280 O 0.87439 0.56017 0.8175 0.0
C281 C 0.90722 0.51936 0.87652 0.0
O282 O 0.89684 0.49584 0.86308 0.0
C283 C 0.92433 0.50811 0.79833 0.0
O284 O 0.91951 0.49159 0.81566 0.0
O285 O 0.86492 0.50235 0.8201 0.0
C286 C 0.74307 0.44921 0.5035 0.0
O287 O 0.74025 0.42387 0.50071 0.0
O288 O 0.79348 0.42947 0.53587 0.0
Zn289 Zn 0.79449 0.45053 0.50559 0.0
O290 O 0.79568 0.42817 0.47218 0.0
C291 C 0.84512 0.46983 0.52133 0.0
O292 O 0.84105 0.44492 0.52337 0.0
O293 O 0.76473 0.46423 0.5025 0.0
C294 C 0.81326 0.4326 0.45747 0.0
O295 O 0.83062 0.45505 0.46211 0.0
C296 C 0.79001 0.40487 0.53206 0.0
O297 O 0.78402 0.39194 0.50719 0.0
O298 O 0.82622 0.47896 0.51441 0.0
C299 C 0.64268 0.51286 0.28429 0.0
O300 O 0.61779 0.50593 0.28447 0.0
O301 O 0.61261 0.56919 0.26395 0.0
Zn302 Zn 0.63728 0.56666 0.29758 0.0
O303 O 0.6234 0.56517 0.33426 0.0
C304 C 0.65745 0.62106 0.30191 0.0
O305 O 0.63266 0.61901 0.30024 0.0
O306 O 0.65436 0.53698 0.28932 0.0
C307 C 0.60184 0.5528 0.33969 0.0
O308 O 0.58426 0.53894 0.31966 0.0
C309 C 0.59256 0.55374 0.24969 0.0
O310 O 0.58294 0.53111 0.25713 0.0
O311 O 0.66529 0.60044 0.30218 0.0
Dy312 Dy 0.06504 0.05828 0.04767 0.0
Dy313 Dy 0.00886 0.02622 0.02284 0.0
C314 C 0.04985 0.04277 0.98413 0.0
O315 O 0.04776 0.08982 0.03219 0.0
O316 O 1.00535 0.06829 0.02889 0.0
O317 O 0.10152 0.08457 0.04526 0.0
O318 O 0.09504 0.06848 0.08235 0.0
O319 O 0.01037 0.02829 0.06805 0.0
O320 O 0.04194 0.06591 0.08021 0.0
O321 O 0.03127 0.99556 0.02152 0.0
O322 O 0.06287 0.01644 0.0563 0.0
O323 O 0.97277 -0.0 0.02644 0.0
O324 O 0.97958 0.01186 0.98759 0.0
C325 C 0.02325 0.08991 0.02811 0.0
O326 O 0.06747 0.04266 0.00442 0.0
O327 O 0.02652 0.04209 0.98863 0.0
C328 C 0.13161 0.06454 0.06492 0.0
C329 C 0.15857 0.02603 0.06246 0.0
C330 C 0.14219 0.02808 0.03956 0.0
C331 C 0.12898 0.04725 0.0407 0.0
C332 C 0.14843 0.0629 0.08779 0.0
C333 C 0.16221 0.04386 0.08644 0.0
C334 C 0.11203 0.07884 0.0678 0.0
C335 C 0.0235 0.04792 0.08646 0.0
C336 C 0.04958 0.99451 0.04078 0.0
C337 C 0.94127 0.0148 0.00191 0.0
C338 C 0.90764 0.04703 0.99823 0.0
C339 C 0.92559 0.05032 0.02174 0.0
C340 C 0.94229 0.03449 0.02351 0.0
C341 C 0.92304 0.01095 0.97851 0.0
C342 C 0.90605 0.02694 0.97675 0.0
C343 C 0.96243 0.00235 0.00231 0.0
H344 H 0.13991 0.01506 0.02056 0.0
H345 H 0.11586 0.04774 0.02284 0.0
H346 H 0.15014 0.07563 0.10683 0.0
H347 H 0.17542 0.04282 0.10402 0.0
H348 H 0.92675 0.06516 0.03895 0.0
H349 H 0.9566 0.03833 0.04154 0.0
H350 H 0.92253 0.99625 0.9614 0.0
H351 H 0.8921 0.024 0.95857 0.0
Dy352 Dy 0.31856 0.79465 0.25982 0.0
Dy353 Dy 0.28079 0.78789 0.30573 0.0
C354 C 0.3062 0.84321 0.29268 0.0
O355 O 0.34581 0.80125 0.29896 0.0
O356 O 0.3178 0.78034 0.32518 0.0
O357 O 0.34967 0.81599 0.24163 0.0
O358 O 0.32781 0.77712 0.22248 0.0
O359 O 0.2717 0.75254 0.27434 0.0
O360 O 0.31288 0.7546 0.26936 0.0
O361 O 0.25644 0.79971 0.2721 0.0
O362 O 0.27829 0.78898 0.23756 0.0
O363 O 0.25318 0.76109 0.32307 0.0
O364 O 0.264 0.80209 0.33975 0.0
C365 C 0.3415 0.79039 0.3209 0.0
O366 O 0.3085 0.8321 0.26872 0.0
O367 O 0.30169 0.82976 0.31258 0.0
C368 C 0.33689 0.80858 0.19422 0.0
C369 C 0.31911 0.82341 0.1449 0.0
C370 C 0.31043 0.83135 0.16913 0.0
C371 C 0.31924 0.82402 0.19353 0.0
C372 C 0.34545 0.80033 0.17016 0.0
C373 C 0.33667 0.80776 0.14563 0.0
C374 C 0.34373 0.79878 0.21946 0.0
C375 C 0.28934 0.74106 0.26772 0.0
C376 C 0.25813 0.79565 0.24594 0.0
C377 C 0.25722 0.77163 0.37073 0.0
C378 C 0.26852 0.75764 0.42236 0.0
C379 C 0.25887 0.73837 0.39948 0.0
C380 C 0.25315 0.74526 0.37399 0.0
C381 C 0.26652 0.79098 0.39372 0.0
C382 C 0.27208 0.78402 0.41939 0.0
C383 C 0.25248 0.7786 0.34327 0.0
H384 H 0.29654 0.84297 0.16921 0.0
H385 H 0.31186 0.83 0.21181 0.0
H386 H 0.35864 0.78793 0.17028 0.0
H387 H 0.34385 0.8015 0.12733 0.0
H388 H 0.25534 0.71786 0.40135 0.0
H389 H 0.24567 0.72985 0.35679 0.0
H390 H 0.26968 0.81147 0.39187 0.0
H391 H 0.27935 0.7992 0.43684 0.0
Dy392 Dy 0.51172 0.04738 0.538 0.0
Dy393 Dy 0.57474 0.05016 0.51874 0.0
C394 C 0.53317 0.04642 0.47979 0.0
O395 O 0.51539 0.00548 0.53382 0.0
O396 O 0.5532 0.00663 0.51452 0.0
O397 O 0.47646 0.04812 0.51406 0.0
O398 O 0.47736 0.04268 0.55684 0.0
O399 O 0.56669 0.03907 0.55955 0.0
O400 O 0.53725 0.05867 0.57706 0.0
O401 O 0.57193 0.09237 0.53143 0.0
O402 O 0.52993 0.09054 0.54044 0.0
O403 O 0.61464 0.05718 0.53644 0.0
O404 O 0.603 0.04573 0.49294 0.0
C405 C 0.5319 0.99365 0.52297 0.0
O406 O 0.53264 0.04617 0.50523 0.0
O407 O 0.55647 0.04992 0.47563 0.0
C408 C 0.45017 0.06812 0.53979 0.0
C409 C 0.42218 0.10591 0.54793 0.0
C410 C 0.43489 0.1044 0.5252 0.0
C411 C 0.44869 0.08563 0.52108 0.0
C412 C 0.43771 0.06999 0.56281 0.0
C413 C 0.42373 0.08871 0.5668 0.0
C414 C 0.46426 0.04774 0.53522 0.0
C415 C 0.55946 0.05269 0.5797 0.0
C416 C 0.55356 0.10377 0.53833 0.0
C417 C 0.63516 0.02815 0.51292 0.0
C418 C 0.66022 0.98759 0.51103 0.0
C419 C 0.65469 -0.00156 0.53586 0.0
C420 C 0.64213 0.01845 0.53681 0.0
C421 C 0.64085 0.01725 0.48805 0.0
C422 C 0.65311 0.99697 0.48708 0.0
C423 C 0.62124 0.04885 0.51336 0.0
H424 H 0.4336 0.11736 0.51028 0.0
H425 H 0.45794 0.08473 0.50305 0.0
H426 H 0.43851 0.05677 0.57754 0.0
H427 H 0.4139 0.08959 0.58441 0.0
H428 H 0.6602 0.99145 0.55456 0.0
H429 H 0.63793 0.02629 0.55626 0.0
H430 H 0.63575 0.0244 0.46932 0.0
H431 H 0.65757 0.98901 0.4678 0.0
Dy432 Dy 0.318 0.28887 0.78565 0.0
Dy433 Dy 0.26508 0.31234 0.78596 0.0
C434 C 0.31881 0.34821 0.77724 0.0
O435 O 0.31004 0.29206 0.82922 0.0
O436 O 0.28974 0.32487 0.8262 0.0
O437 O 0.35837 0.29289 0.79939 0.0
O438 O 0.33706 0.26058 0.76875 0.0
O439 O 0.25515 0.27325 0.79942 0.0
O440 O 0.28555 0.25372 0.78395 0.0
O441 O 0.26342 0.29574 0.74255 0.0
O442 O 0.3051 0.29234 0.74231 0.0
O443 O 0.22419 0.30734 0.775 0.0
O444 O 0.2468 0.34151 0.80233 0.0
C445 C 0.30016 0.31019 0.84077 0.0
O446 O 0.33035 0.33208 0.78833 0.0
O447 O 0.29366 0.34297 0.77074 0.0
C448 C 0.38071 0.2782 0.76456 0.0
C449 C 0.42085 0.28618 0.73205 0.0
C450 C 0.41122 0.30709 0.74239 0.0
C451 C 0.39137 0.30313 0.75835 0.0
C452 C 0.3901 0.25727 0.7541 0.0
C453 C 0.40985 0.26117 0.73801 0.0
C454 C 0.35968 0.27352 0.78148 0.0
C455 C 0.26352 0.2525 0.7929 0.0
C456 C 0.28225 0.29179 0.7296 0.0
C457 C 0.20508 0.32266 0.81144 0.0
C458 C 0.16801 0.31021 0.84676 0.0
C459 C 0.19152 0.30314 0.85063 0.0
C460 C 0.20969 0.3091 0.83309 0.0
C461 C 0.1821 0.33046 0.80785 0.0
C462 C 0.16374 0.3243 0.82529 0.0
C463 C 0.2237 0.3276 0.79206 0.0
H464 H 0.41889 0.32655 0.73794 0.0
H465 H 0.38439 0.31959 0.76587 0.0
H466 H 0.38219 0.23783 0.75848 0.0
H467 H 0.41686 0.24463 0.73068 0.0
H468 H 0.19592 0.2928 0.86718 0.0
H469 H 0.22726 0.30281 0.83621 0.0
H470 H 0.17811 0.34087 0.79121 0.0
H471 H 0.14588 0.3299 0.82136 0.0
Dy472 Dy 0.05445 0.01846 0.54034 0.0
Dy473 Dy 0.02689 0.06814 0.53531 0.0
C474 C 0.99665 0.01341 0.54901 0.0
O475 O 0.03514 0.01358 0.49693 0.0
O476 O 0.03454 0.0559 0.49369 0.0
O477 O 0.04881 0.97675 0.53095 0.0
O478 O 0.08375 9e-05 0.55616 0.0
O479 O 0.06887 0.08484 0.53497 0.0
O480 O 0.08496 0.04851 0.52668 0.0
O481 O 0.03286 0.06509 0.57993 0.0
O482 O 0.06566 0.04453 0.58037 0.0
O483 O 0.02532 0.10778 0.54824 0.0
O484 O 0.9972 0.08338 0.51541 0.0
C485 C 0.03253 0.03199 0.48226 0.0
O486 O 0.01902 0.01084 0.55943 0.0
O487 O 0.99505 0.03183 0.53409 0.0
C488 C 0.06744 0.95664 0.56567 0.0
C489 C 0.06446 0.91484 0.59689 0.0
C490 C 0.04203 0.9212 0.58569 0.0
C491 C 0.04349 0.9418 0.57027 0.0
C492 C 0.08979 0.95104 0.5778 0.0
C493 C 0.08835 0.9306 0.59326 0.0
C494 C 0.06961 0.97655 0.54684 0.0
C495 C 0.08726 0.07388 0.52877 0.0
C496 C 0.05169 0.05762 0.59315 0.0
C497 C 0.01172 0.12794 0.51162 0.0
C498 C 0.02059 0.16796 0.47873 0.0
C499 C 0.03755 0.15179 0.48162 0.0
C500 C 0.03313 0.13198 0.49785 0.0
C501 C 0.9947 0.14386 0.50878 0.0
C502 C 0.99906 0.16366 0.49251 0.0
C503 C 1.0069 0.10695 0.52859 0.0
H504 H 0.02327 0.90963 0.58789 0.0
H505 H 0.02582 0.94561 0.56134 0.0
H506 H 0.10849 0.96213 0.57478 0.0
H507 H 0.10613 0.92692 0.60205 0.0
H508 H 0.05448 0.15466 0.47165 0.0
H509 H 0.04648 0.11983 0.49971 0.0
H510 H 0.97795 0.14093 0.51907 0.0
H511 H 0.98535 0.17539 0.49046 0.0
Dy512 Dy 0.29449 0.82844 0.78218 0.0
Dy513 Dy 0.28328 0.75919 0.79738 0.0
C514 C 0.28526 0.7995 0.83934 0.0
O515 O 0.33382 0.82007 0.79076 0.0
O516 O 0.32689 0.77877 0.80586 0.0
O517 O 0.29913 0.86525 0.80791 0.0
O518 O 0.29969 0.86369 0.76434 0.0
O519 O 0.28768 0.78419 0.76629 0.0
O520 O 0.29484 0.81181 0.73913 0.0
O521 O 0.24324 0.7666 0.78641 0.0
O522 O 0.25119 0.80953 0.77501 0.0
O523 O 0.28224 0.72505 0.76933 0.0
O524 O 0.27777 0.72176 0.81145 0.0
C525 C 0.34223 0.80079 0.80048 0.0
O526 O 0.28724 0.80467 0.8148 0.0
O527 O 0.28218 0.77485 0.84039 0.0
C528 C 0.27837 0.89263 0.78427 0.0
C529 C 0.23956 0.91893 0.77549 0.0
C530 C 0.23881 0.90231 0.79531 0.0
C531 C 0.25793 0.88906 0.7995 0.0
C532 C 0.27905 0.90921 0.76444 0.0
C533 C 0.25972 0.92211 0.75994 0.0
C534 C 0.29787 0.87765 0.78694 0.0
C535 C 0.29027 0.78742 0.74147 0.0
C536 C 0.23532 0.78687 0.77804 0.0
C537 C 0.30285 0.69643 0.79022 0.0
C538 C 0.34447 0.67313 0.79364 0.0
C539 C 0.33505 0.67984 0.76889 0.0
C540 C 0.31436 0.69117 0.76713 0.0
C541 C 0.31201 0.68926 0.81495 0.0
C542 C 0.33259 0.67758 0.81661 0.0
C543 C 0.28231 0.71045 0.7885 0.0
H544 H 0.22334 0.8995 0.80743 0.0
H545 H 0.25655 0.87591 0.81446 0.0
H546 H 0.29444 0.91197 0.7522 0.0
H547 H 0.26081 0.93503 0.74473 0.0
H548 H 0.34357 0.67607 0.75077 0.0
H549 H 0.3076 0.69612 0.74769 0.0
H550 H 0.30351 0.69292 0.8331 0.0
H551 H 0.33949 0.67241 0.83588 0.0
Dy552 Dy 0.5469 0.06211 0.01534 0.0
Dy553 Dy 0.54085 0.02283 0.06091 0.0
C554 C 0.55337 0.0025 0.00248 0.0
O555 O 0.5063 0.05374 0.02235 0.0
O556 O 0.50772 0.013 0.0281 0.0
O557 O 0.53478 0.071 0.97567 0.0
O558 O 0.56433 0.0993 0.00431 0.0
O559 O 0.52714 0.05748 0.07826 0.0
O560 O 0.54959 0.0878 0.05544 0.0
O561 O 0.58116 0.04627 0.0701 0.0
O562 O 0.5861 0.05776 0.02779 0.0
O563 O 0.5511 0.01107 0.09965 0.0
O564 O 0.51823 0.98741 0.07161 0.0
C565 C 0.49444 0.0299 0.02409 0.0
O566 O 0.54488 0.02156 0.99294 0.0
O567 O 0.5581 0.00232 0.02892 0.0
C568 C 0.56933 0.09604 0.95868 0.0
C569 C 0.6019 0.10091 0.91903 0.0
C570 C 0.60153 0.0816 0.93587 0.0
C571 C 0.58532 0.07914 0.95549 0.0
C572 C 0.57015 0.11591 0.94261 0.0
C573 C 0.58644 0.11838 0.92283 0.0
C574 C 0.55242 0.09304 0.97934 0.0
C575 C 0.53658 0.08204 0.07553 0.0
C576 C 0.59551 0.05472 0.05215 0.0
C577 C 0.51474 0.99207 0.11799 0.0
C578 C 0.488 0.99658 0.16241 0.0
C579 C 0.48626 0.01217 0.14187 0.0
C580 C 0.49951 0.00991 0.11982 0.0
C581 C 0.5158 0.97578 0.13782 0.0
C582 C 0.50241 0.97794 0.1599 0.0
C583 C 0.53062 0.99174 0.09629 0.0
H584 H 0.61353 0.06812 0.93356 0.0
H585 H 0.5851 0.06392 0.96806 0.0
H586 H 0.55803 0.12924 0.94514 0.0
H587 H 0.58634 0.13332 0.90996 0.0
H588 H 0.47493 0.02637 0.14303 0.0
H589 H 0.49831 0.02247 0.1045 0.0
H590 H 0.52747 0.96189 0.1366 0.0
H591 H 0.50412 0.96575 0.17549 0.0
Dy592 Dy 0.27377 0.26686 0.27437 0.0
Dy593 Dy 0.30984 0.32236 0.3011 0.0
C594 C 0.29734 0.27894 0.33772 0.0
O595 O 0.24206 0.28649 0.28174 0.0
O596 O 0.26871 0.32196 0.30969 0.0
O597 O 0.24711 0.23071 0.27781 0.0
O598 O 0.26401 0.23499 0.24095 0.0
O599 O 0.30215 0.32527 0.25626 0.0
O600 O 0.26819 0.28981 0.2412 0.0
O601 O 0.34163 0.30446 0.28951 0.0
O602 O 0.3153 0.26428 0.27125 0.0
O603 O 0.33551 0.3597 0.29932 0.0
O604 O 0.32014 0.35243 0.33637 0.0
C605 C 0.24512 0.30764 0.29949 0.0
O606 O 0.27696 0.26856 0.31953 0.0
O607 O 0.31648 0.29652 0.33193 0.0
C608 C 0.26476 0.19775 0.26003 0.0
C609 C 0.29519 0.16246 0.26525 0.0
C610 C 0.2986 0.18398 0.28555 0.0
C611 C 0.28364 0.20153 0.28289 0.0
C612 C 0.26095 0.17613 0.23983 0.0
C613 C 0.27606 0.15844 0.24248 0.0
C614 C 0.2525 0.21877 0.25581 0.0
C615 C 0.28396 0.31109 0.23692 0.0
C616 C 0.33863 0.28052 0.27718 0.0
C617 C 0.31655 0.39013 0.31969 0.0
C618 C 0.28506 0.42446 0.31649 0.0
C619 C 0.27796 0.40024 0.29977 0.0
C620 C 0.29362 0.38331 0.30125 0.0
C621 C 0.32399 0.41446 0.3364 0.0
C622 C 0.30834 0.43184 0.33453 0.0
C623 C 0.33043 0.37007 0.32229 0.0
H624 H 0.31284 0.18728 0.30356 0.0
H625 H 0.28735 0.2185 0.29842 0.0
H626 H 0.2469 0.17339 0.22176 0.0
H627 H 0.27319 0.14198 0.22653 0.0
H628 H 0.26035 0.39452 0.2853 0.0
H629 H 0.28757 0.3646 0.28817 0.0
H630 H 0.34153 0.41981 0.35089 0.0
H631 H 0.31412 0.45074 0.34727 0.0
Dy632 Dy 0.55391 0.52056 0.04014 0.0
Dy633 Dy 0.52742 0.57119 0.03663 0.0
C634 C 0.49385 0.51481 0.04339 0.0
O635 O 0.53562 0.51719 0.99698 0.0
O636 O 0.53685 0.56012 0.99506 0.0
O637 O 0.55088 0.47947 0.02867 0.0
O638 O 0.58422 0.50352 0.0558 0.0
O639 O 0.56952 0.58643 0.04824 0.0
O640 O 0.58429 0.55288 0.02872 0.0
O641 O 0.52687 0.56291 0.07982 0.0
O642 O 0.55938 0.54171 0.08245 0.0
O643 O 0.52757 0.6113 0.05024 0.0
O644 O 0.49948 0.58852 0.01657 0.0
C645 C 0.53389 0.53615 0.98291 0.0
O646 O 0.51488 0.50815 0.05216 0.0
O647 O 0.49445 0.5362 0.03267 0.0
C648 C 0.56981 0.45933 0.06271 0.0
C649 C 0.56743 0.41991 0.09663 0.0
C650 C 0.54712 0.43205 0.0927 0.0
C651 C 0.54835 0.45164 0.07602 0.0
C652 C 0.58983 0.447 0.06629 0.0
C653 C 0.5887 0.4276 0.08302 0.0
C654 C 0.57168 0.47984 0.04485 0.0
C655 C 0.58782 0.57777 0.03841 0.0
C656 C 0.54396 0.55375 0.09397 0.0
C657 C 0.51313 0.63403 0.016 0.0
C658 C 0.52042 0.67847 0.98896 0.0
C659 C 0.5364 0.66123 0.98645 0.0
C660 C 0.53283 0.63924 -9e-05 0.0
C661 C 0.49681 0.65075 0.01792 0.0
C662 C 0.50037 0.67265 0.00458 0.0
C663 C 0.50917 0.61148 0.03103 0.0
H664 H 0.53056 0.42681 0.10299 0.0
H665 H 0.53262 0.46087 0.07362 0.0
H666 H 0.60647 0.45242 0.05612 0.0
H667 H 0.60453 0.4185 0.0852 0.0
H668 H 0.55209 0.66513 0.97471 0.0
H669 H 0.54559 0.62648 0.99805 0.0
H670 H 0.48134 0.64697 0.02997 0.0
H671 H 0.48737 0.68513 0.00658 0.0
Dy672 Dy 0.79011 0.32347 0.28683 0.0
Dy673 Dy 0.78546 0.26463 0.30262 0.0
C674 C 0.79655 0.31233 0.34641 0.0
O675 O 0.83123 0.31985 0.28807 0.0
O676 O 0.82887 0.2827 0.30835 0.0
O677 O 0.79155 0.36289 0.30332 0.0
O678 O 0.79219 0.35303 0.26011 0.0
O679 O 0.79925 0.26718 0.26328 0.0
O680 O 0.77856 0.29619 0.24773 0.0
O681 O 0.74453 0.26503 0.28529 0.0
O682 O 0.74927 0.30908 0.2945 0.0
O683 O 0.77195 0.22288 0.29106 0.0
O684 O 0.79416 0.23913 0.3309 0.0
C685 C 0.84252 0.30342 0.29961 0.0
O686 O 0.80873 0.32392 0.32854 0.0
O687 O 0.77978 0.28989 0.33878 0.0
C688 C 0.77187 0.3865 0.27424 0.0
C689 C 0.74019 0.42158 0.27052 0.0
C690 C 0.73308 0.39942 0.28336 0.0
C691 C 0.74873 0.38205 0.28518 0.0
C692 C 0.77841 0.40785 0.26033 0.0
C693 C 0.76273 0.42517 0.25841 0.0
C694 C 0.79054 0.37085 0.27966 0.0
C695 C 0.78868 0.27645 0.2432 0.0
C696 C 0.7343 0.28526 0.28741 0.0
C697 C 0.80238 0.2013 0.30825 0.0
C698 C 0.83653 0.16944 0.30017 0.0
C699 C 0.83415 0.18803 0.28301 0.0
C700 C 0.81739 0.20397 0.28716 0.0
C701 C 0.80481 0.18287 0.32548 0.0
C702 C 0.82182 0.16715 0.32156 0.0
C703 C 0.78482 0.2182 0.31285 0.0
H704 H 0.71602 0.3961 0.29312 0.0
H705 H 0.74323 0.3657 0.29606 0.0
H706 H 0.79612 0.41164 0.25171 0.0
H707 H 0.76857 0.44173 0.24792 0.0
H708 H 0.84545 0.19043 0.26657 0.0
H709 H 0.81618 0.21841 0.27391 0.0
H710 H 0.79356 0.18064 0.34198 0.0
H711 H 0.82317 0.15288 0.33499 0.0
Dy712 Dy 0.044 0.55955 0.51327 0.0
Dy713 Dy 0.03908 0.52198 0.56037 0.0
C714 C 0.05018 0.50155 0.49962 0.0
O715 O 1.00607 0.53124 0.50194 0.0
O716 O 1.00046 0.52636 0.54574 0.0
O717 O 0.03371 0.57002 0.47394 0.0
O718 O 0.06333 0.59685 0.50359 0.0
O719 O 0.04188 0.56356 0.58113 0.0
O720 O 0.02436 0.5778 0.54392 0.0
O721 O 0.07997 0.5298 0.55472 0.0
O722 O 0.07942 0.56952 0.54331 0.0
O723 O 0.05104 0.51365 0.60031 0.0
O724 O 0.01856 0.48698 0.57378 0.0
C725 C 0.99139 0.52428 0.52001 0.0
O726 O 0.05855 0.52611 0.49641 0.0
O727 O 0.03919 0.49532 0.52108 0.0
C728 C 0.06879 0.5951 0.45786 0.0
C729 C 0.09861 0.59971 0.41556 0.0
C730 C 0.09891 0.58002 0.43188 0.0
C731 C 0.08414 0.57779 0.45293 0.0
C732 C 0.06913 0.61532 0.44243 0.0
C733 C 0.084 0.61768 0.42147 0.0
C734 C 0.05185 0.59163 0.4785 0.0
C735 C 0.03168 0.581 0.57032 0.0
C736 C 0.09211 0.55298 0.55094 0.0
C737 C 0.01559 0.49401 0.62024 0.0
C738 C 0.98399 0.49494 0.66104 0.0
C739 C 0.99173 0.5169 0.64811 0.0
C740 C 1.00724 0.51638 0.62782 0.0
C741 C 1.00796 0.47199 0.63292 0.0
C742 C 0.99227 0.47243 0.65323 0.0
C743 C 0.03139 0.4935 0.59837 0.0
H744 H 0.1098 0.56578 0.42779 0.0
H745 H 0.08419 0.56219 0.46493 0.0
H746 H 0.05757 0.62899 0.44628 0.0
H747 H 0.0838 0.63338 0.40965 0.0
H748 H 0.98612 0.53471 0.65393 0.0
H749 H 0.01276 0.53351 0.61807 0.0
H750 H 0.01402 0.45445 0.62704 0.0
H751 H 0.98643 0.45512 0.66261 0.0
Dy752 Dy 0.81925 0.78591 0.28231 0.0
Dy753 Dy 0.76636 0.80785 0.28478 0.0
C754 C 0.81946 0.8443 0.27481 0.0
O755 O 0.82217 0.80623 0.32494 0.0
O756 O 0.77951 0.80279 0.32749 0.0
O757 O 0.86047 0.79307 0.29234 0.0
O758 O 0.83859 0.75689 0.2677 0.0
O759 O 0.75461 0.76469 0.28189 0.0
O760 O 0.79197 0.75512 0.29915 0.0
O761 O 0.77142 0.80272 0.24036 0.0
O762 O 0.79366 0.77113 0.24259 0.0
O763 O 0.72557 0.80321 0.27312 0.0
O764 O 0.74801 0.83688 0.30138 0.0
C765 C 0.80346 0.80742 0.33925 0.0
O766 O 0.82606 0.82329 0.26509 0.0
O767 O 0.79933 0.84277 0.2874 0.0
C768 C 0.88137 0.77375 0.25951 0.0
C769 C 0.92182 0.77943 0.22753 0.0
C770 C 0.9022 0.79239 0.22306 0.0
C771 C 0.88223 0.78967 0.23899 0.0
C772 C 0.90049 0.76031 0.26349 0.0
C773 C 0.92048 0.76315 0.24777 0.0
C774 C 0.86144 0.77155 0.27767 0.0
C775 C 0.76674 0.74894 0.29278 0.0
C776 C 0.77976 0.78352 0.22855 0.0
C777 C 0.70522 0.81982 0.30862 0.0
C778 C 0.66877 0.81461 0.3452 0.0
C779 C 0.67833 0.79334 0.33611 0.0
C780 C 0.69654 0.79596 0.31813 0.0
C781 C 0.69539 0.84094 0.3175 0.0
C782 C 0.67748 0.83842 0.33574 0.0
C783 C 0.72502 0.82343 0.29025 0.0
H784 H 0.90271 0.80522 0.2078 0.0
H785 H 0.86771 0.8003 0.23559 0.0
H786 H 0.90018 0.74786 0.27911 0.0
H787 H 0.93501 0.75261 0.25155 0.0
H788 H 0.67213 0.77489 0.3434 0.0
H789 H 0.70402 0.77943 0.3119 0.0
H790 H 0.70181 0.85954 0.31056 0.0
H791 H 0.67046 0.85511 0.34254 0.0
Dy792 Dy 0.81306 0.28815 0.75715 0.0
Dy793 Dy 0.77977 0.29273 0.80805 0.0
C794 C 0.81874 0.34085 0.79365 0.0
O795 O 0.83782 0.28 0.79314 0.0
O796 O 0.81495 0.28334 0.82893 0.0
O797 O 0.84528 0.30612 0.73848 0.0
O798 O 0.82161 0.26768 0.72078 0.0
O799 O 0.77541 0.25112 0.7931 0.0
O800 O 0.78054 0.25353 0.74889 0.0
O801 O 0.75442 0.3018 0.77236 0.0
O802 O 0.77721 0.29599 0.7369 0.0
O803 O 0.74682 0.27638 0.82659 0.0
O804 O 0.77326 0.31298 0.84564 0.0
C805 C 0.83573 0.27997 0.8192 0.0
O806 O 0.81374 0.32907 0.76865 0.0
O807 O 0.81069 0.32906 0.81352 0.0
C808 C 0.83211 0.29829 0.69149 0.0
C809 C 0.81801 0.31696 0.64343 0.0
C810 C 0.81092 0.32636 0.66799 0.0
C811 C 0.81785 0.31709 0.69176 0.0
C812 C 0.8388 0.28838 0.66691 0.0
C813 C 0.83171 0.29766 0.64287 0.0
C814 C 0.83834 0.28838 0.71683 0.0
C815 C 0.77015 0.24125 0.76732 0.0
C816 C 0.75661 0.30051 0.74613 0.0
C817 C 0.76094 0.28152 0.87359 0.0
C818 C 0.7759 0.26128 0.92043 0.0
C819 C 0.77488 0.24746 0.8945 0.0
C820 C 0.76756 0.25751 0.87131 0.0
C821 C 0.76243 0.29564 0.89944 0.0
C822 C 0.76983 0.28556 0.92275 0.0
C823 C 0.75542 0.29294 0.84899 0.0
H824 H 0.80007 0.34101 0.66881 0.0
H825 H 0.8121 0.32472 0.71043 0.0
H826 H 0.84949 0.27361 0.66635 0.0
H827 H 0.83738 0.29025 0.62406 0.0
H828 H 0.77907 0.22852 0.89212 0.0
H829 H 0.7672 0.24647 0.85158 0.0
H830 H 0.7581 0.31451 0.90156 0.0
H831 H 0.77068 0.29664 0.94258 0.0
Dy832 Dy 0.77696 0.7709 0.77498 0.0
Dy833 Dy 0.80776 0.82715 0.80696 0.0
C834 C 0.79859 0.77859 0.83914 0.0
O835 O 0.74444 0.79096 0.78116 0.0
O836 O 0.76696 0.82263 0.816 0.0
O837 O 0.74718 0.73524 0.77238 0.0
O838 O 0.76956 0.74125 0.73965 0.0
O839 O 0.79255 0.83545 0.76573 0.0
O840 O 0.78511 0.79455 0.74194 0.0
O841 O 0.83836 0.81233 0.78865 0.0
O842 O 0.81938 0.76868 0.77759 0.0
O843 O 0.83542 0.86395 0.80829 0.0
O844 O 0.81727 0.85554 0.84352 0.0
C845 C 0.74472 0.80898 0.80189 0.0
O846 O 0.78105 0.76558 0.81884 0.0
O847 O 0.81447 0.80071 0.83701 0.0
C848 C 0.76542 0.702 0.75586 0.0
C849 C 0.80083 0.6721 0.76255 0.0
C850 C 0.79596 0.68715 0.78519 0.0
C851 C 0.77826 0.70188 0.78192 0.0
C852 C 0.76894 0.68544 0.73347 0.0
C853 C 0.7865 0.6703 0.73687 0.0
C854 C 0.75499 0.72424 0.75142 0.0
C855 C 0.78877 0.8197 0.74246 0.0
C856 C 0.84 0.78859 0.78013 0.0
C857 C 0.81953 0.89582 0.83024 0.0
C858 C 0.79599 0.93652 0.82609 0.0
C859 C 0.78373 0.91136 0.8125 0.0
C860 C 0.79533 0.89124 0.81466 0.0
C861 C 0.83233 0.92096 0.84358 0.0
C862 C 0.82055 0.94148 0.84136 0.0
C863 C 0.83033 0.87355 0.83157 0.0
H864 H 0.80653 0.68821 0.80524 0.0
H865 H 0.77618 0.71466 0.79954 0.0
H866 H 0.75958 0.68569 0.71319 0.0
H867 H 0.78996 0.65837 0.71931 0.0
H868 H 0.76517 0.90725 0.79982 0.0
H869 H 0.78535 0.87197 0.80402 0.0
H870 H 0.85117 0.92463 0.85551 0.0
H871 H 0.83037 0.96096 0.85154 0.0
Dy872 Dy 0.56416 0.56021 0.54946 0.0
Dy873 Dy 0.51017 0.52697 0.51807 0.0
C874 C 0.55619 0.53624 0.48567 0.0
O875 O 0.54226 0.59128 0.5458 0.0
O876 O 0.51629 0.56866 0.50749 0.0
O877 O 0.5993 0.58971 0.54973 0.0
O878 O 0.5931 0.57092 0.58516 0.0
O879 O 0.50124 0.54134 0.55922 0.0
O880 O 0.54167 0.5517 0.58307 0.0
O881 O 0.52568 0.49474 0.53457 0.0
O882 O 0.56742 0.5181 0.54948 0.0
O883 O 0.4724 0.50115 0.51563 0.0
O884 O 0.48376 0.51802 0.48037 0.0
C885 C 0.52671 0.59119 0.52352 0.0
O886 O 0.56721 0.55644 0.50446 0.0
O887 O 0.53738 0.51796 0.4908 0.0
C888 C 0.63154 0.57256 0.56941 0.0
C889 C 0.66497 0.54008 0.56706 0.0
C890 C 0.64674 0.53916 0.54445 0.0
C891 C 0.63015 0.55515 0.54564 0.0
C892 C 0.65013 0.57412 0.59191 0.0
C893 C 0.667 0.55801 0.59066 0.0
C894 C 0.60995 0.58396 0.57213 0.0
C895 C 0.51681 0.54658 0.58249 0.0
C896 C 0.54944 0.4957 0.54531 0.0
C897 C 0.44481 0.52132 0.49291 0.0
C898 C 0.40825 0.54916 0.50128 0.0
C899 C 0.43407 0.56047 0.51161 0.0
C900 C 0.45211 0.54658 0.50767 0.0
C901 C 0.41913 0.51026 0.48128 0.0
C902 C 0.40072 0.52428 0.48551 0.0
C903 C 0.46462 0.50711 0.49211 0.0
H904 H 0.64523 0.526 0.52574 0.0
H905 H 0.61548 0.55301 0.52826 0.0
H906 H 0.65088 0.58691 0.61066 0.0
H907 H 0.68113 0.55908 0.60823 0.0
H908 H 0.44009 0.5796 0.52398 0.0
H909 H 0.47168 0.55521 0.51728 0.0
H910 H 0.41328 0.49071 0.46992 0.0
H911 H 0.38066 0.51537 0.47766 0.0
Dy912 Dy 0.01382 0.54777 0.04319 0.0
Dy913 Dy 0.07685 0.55041 0.02299 0.0
C914 C 0.02924 0.54619 0.98517 0.0
O915 O 0.0162 0.50625 0.03008 0.0
O916 O 0.05784 0.5071 0.0207 0.0
O917 O 0.97501 0.54244 0.02287 0.0
O918 O 0.9837 0.55089 0.06696 0.0
O919 O 0.06344 0.54799 0.06142 0.0
O920 O 0.03154 0.5458 0.08477 0.0
O921 O 0.07364 0.59296 0.0303 0.0
O922 O 0.03637 0.5902 0.0511 0.0
O923 O 0.11413 0.55226 0.04471 0.0
O924 O 0.10893 0.55081 0.00071 0.0
C925 C 0.03404 0.49441 0.02299 0.0
O926 O 0.02767 0.56208 0.00646 0.0
O927 O 0.0504 0.53885 0.98432 0.0
C928 C 0.95038 0.56698 0.04666 0.0
C929 C 0.91791 0.60124 0.04948 0.0
C930 C 0.9306 0.59823 0.02675 0.0
C931 C 0.94673 0.58129 0.02538 0.0
C932 C 0.93809 0.57033 0.06953 0.0
C933 C 0.92214 0.58734 0.071 0.0
C934 C 0.9665 0.54822 0.04561 0.0
C935 C 0.05544 0.54654 0.08449 0.0
C936 C 0.05743 0.60384 0.04305 0.0
C937 C 0.13707 0.52735 0.01977 0.0
C938 C 0.1632 0.48736 0.01557 0.0
C939 C 0.14406 0.48658 0.03237 0.0
C940 C 0.13113 0.50635 0.03446 0.0
C941 C 0.15577 0.52786 0.00253 0.0
C942 C 0.16876 0.50808 0.00047 0.0
C943 C 0.12399 0.54874 0.02234 0.0
H944 H 0.92756 0.60843 0.00969 0.0
H945 H 0.9561 0.57923 0.00759 0.0
H946 H 0.9407 0.5596 0.08628 0.0
H947 H 0.91301 0.5895 0.08898 0.0
H948 H 0.13954 0.47103 0.04448 0.0
H949 H 0.11666 0.50527 0.0478 0.0
H950 H 0.16048 0.54369 0.99081 0.0
H951 H 0.18321 0.50903 0.98712 0.0
H952 H 0.96951 0.18031 0.99827 0.0
H953 H 0.04702 0.22005 0.99115 0.0
H954 H 0.06205 0.18276 0.00463 0.0
H955 H 0.05312 0.13755 0.01747 0.0
H956 H 0.97508 0.09861 0.02397 0.0
H957 H 0.96082 0.13643 0.01205 0.0
C958 C 0.98979 0.18107 -0.0003 0.0
C959 C 1.00694 0.20355 0.99345 0.0
C960 C 0.99837 0.15929 0.00745 0.0
C961 C 0.03313 0.20349 0.99571 0.0
C962 C 0.04178 0.18193 0.00343 0.0
C963 C 0.03298 0.13729 0.01646 0.0
C964 C 0.01535 0.11459 0.02181 0.0
C965 C 0.0246 0.15951 0.00923 0.0
C966 C 0.98934 0.11523 0.02008 0.0
C967 C 0.98105 0.13707 0.01317 0.0
H968 H 0.18405 0.80683 0.14204 0.0
H969 H 0.13354 0.8145 0.20128 0.0
H970 H 0.16643 0.81022 0.23739 0.0
H971 H 0.20985 0.80339 0.25218 0.0
H972 H 0.25937 0.79581 0.19165 0.0
H973 H 0.22685 0.80106 0.15654 0.0
C974 C 0.18014 0.80771 0.16285 0.0
C975 C 0.15611 0.81106 0.16869 0.0
C976 C 0.19915 0.80515 0.18352 0.0
C977 C 0.15175 0.81216 0.19597 0.0
C978 C 0.17061 0.80958 0.2167 0.0
C979 C 0.21354 0.80288 0.23132 0.0
C980 C 0.2373 0.79895 0.22487 0.0
C981 C 0.19443 0.80592 0.21075 0.0
C982 C 0.24145 0.79848 0.19754 0.0
C983 C 0.22277 0.80157 0.17727 0.0
H984 H 0.48987 0.87089 0.52434 0.0
H985 H 0.5456 0.8661 0.47044 0.0
H986 H 0.55871 0.9139 0.47532 0.0
H987 H 0.55324 0.95788 0.49361 0.0
H988 H 0.49739 0.96156 0.54785 0.0
H989 H 0.48605 0.91423 0.54435 0.0
C990 C 0.50509 0.88019 0.5138 0.0
C991 C 0.51663 0.86434 0.497 0.0
C992 C 0.51259 0.90795 0.51668 0.0
C993 C 0.53639 0.87731 0.48372 0.0
C994 C 0.54382 0.90486 0.48639 0.0
C995 C 0.5386 0.94842 0.50474 0.0
C996 C 0.52605 0.96397 0.52075 0.0
C997 C 0.5319 0.92054 0.5026 0.0
C998 C 0.50726 0.95073 0.53499 0.0
C999 C 0.50072 0.92337 0.53307 0.0
H1000 H 0.52134 0.31949 0.67663 0.0
H1001 H 0.48265 0.24902 0.62137 0.0
H1002 H 0.4471 0.24201 0.64754 0.0
H1003 H 0.42647 0.25574 0.68608 0.0
H1004 H 0.46438 0.32654 0.74105 0.0
H1005 H 0.50023 0.33359 0.71503 0.0
C1006 C 0.50518 0.30256 0.67037 0.0
C1007 C 0.50491 0.28482 0.647 0.0
C1008 C 0.48441 0.2987 0.68545 0.0
C1009 C 0.48357 0.2631 0.63917 0.0
C1010 C 0.46312 0.25901 0.65418 0.0
C1011 C 0.44264 0.27264 0.69251 0.0
C1012 C 0.44258 0.29052 0.71564 0.0
C1013 C 0.46328 0.27665 0.67736 0.0
C1014 C 0.46363 0.31253 0.72325 0.0
C1015 C 0.48429 0.31653 0.70843 0.0
H1016 H 0.07659 0.81327 0.64631 0.0
H1017 H 0.01102 0.82427 0.68293 0.0
H1018 H 0.01119 0.86281 0.66065 0.0
H1019 H 0.03063 0.89412 0.63109 0.0
H1020 H 0.09523 0.88111 0.59348 0.0
H1021 H 0.09478 0.84309 0.61589 0.0
C1022 C 0.06225 0.824 0.64942 0.0
C1023 C 0.04382 0.8157 0.66638 0.0
C1024 C 0.06237 0.84608 0.63641 0.0
C1025 C 0.02536 0.82997 0.66992 0.0
C1026 C 0.02551 0.85214 0.65721 0.0
C1027 C 0.04452 0.8829 0.62762 0.0
C1028 C 0.06325 0.89108 0.61078 0.0
C1029 C 0.04398 0.86048 0.64041 0.0
C1030 C 0.08103 0.87605 0.6068 0.0
C1031 C 0.08068 0.85401 0.61947 0.0
H1032 H 0.46446 0.82101 0.79993 0.0
H1033 H 0.45954 0.79226 0.87672 0.0
H1034 H 0.41354 0.7874 0.87057 0.0
H1035 H 0.37326 0.78945 0.84312 0.0
H1036 H 0.37689 0.81974 0.76731 0.0
H1037 H 0.42353 0.82517 0.77306 0.0
C1038 C 0.4534 0.81388 0.81541 0.0
C1039 C 0.46612 0.80676 0.83873 0.0
C1040 C 0.4261 0.81091 0.81176 0.0
C1041 C 0.45083 0.79755 0.85831 0.0
C1042 C 0.4242 0.79471 0.85487 0.0
C1043 C 0.3842 0.79721 0.8278 0.0
C1044 C 0.37113 0.80401 0.80469 0.0
C1045 C 0.41141 0.80091 0.83155 0.0
C1046 C 0.38611 0.81438 0.78539 0.0
C1047 C 0.41299 0.81751 0.78868 0.0
H1048 H 0.5005 0.16385 0.15743 0.0
H1049 H 0.56653 0.21555 0.13528 0.0
H1050 H 0.57534 0.17934 0.10714 0.0
H1051 H 0.56386 0.13327 0.08666 0.0
H1052 H 0.49845 0.08023 0.10792 0.0
H1053 H 0.48984 0.11615 0.13774 0.0
C1054 C 0.51691 0.16711 0.14663 0.0
C1055 C 0.53265 0.19279 0.14852 0.0
C1056 C 0.52192 0.14582 0.12982 0.0
C1057 C 0.55377 0.19633 0.13411 0.0
C1058 C 0.55893 0.17551 0.1179 0.0
C1059 C 0.54773 0.12945 0.09784 0.0
C1060 C 0.53188 0.10384 0.09481 0.0
C1061 C 0.54299 0.15024 0.1152 0.0
C1062 C 0.51118 0.09955 0.10981 0.0
C1063 C 0.50618 0.12022 0.12692 0.0
H1064 H 0.16274 0.34362 0.36788 0.0
H1065 H 0.10872 0.29864 0.29899 0.0
H1066 H 0.14449 0.28883 0.27715 0.0
H1067 H 0.19199 0.29172 0.27816 0.0
H1068 H 0.24498 0.33903 0.34681 0.0
H1069 H 0.20924 0.3488 0.36767 0.0
C1070 C 0.15853 0.33173 0.34797 0.0
C1071 C 0.13242 0.32191 0.33544 0.0
C1072 C 0.17942 0.32634 0.33531 0.0
C1073 C 0.12816 0.30667 0.30947 0.0
C1074 C 0.14883 0.30094 0.29692 0.0
C1075 C 0.19583 0.30433 0.29761 0.0
C1076 C 0.22186 0.31449 0.31063 0.0
C1077 C 0.17469 0.31045 0.30969 0.0
C1078 C 0.22573 0.33087 0.33587 0.0
C1079 C 0.20506 0.33648 0.34802 0.0
H1080 H 0.02659 0.05057 0.2135 0.0
H1081 H 0.94449 0.02423 0.18896 0.0
H1082 H 0.95009 0.02548 0.14143 0.0
H1083 H 0.97833 0.0336 0.10635 0.0
H1084 H 0.06011 0.0622 0.13109 0.0
H1085 H 0.05465 0.06027 0.17871 0.0
C1086 C 0.00991 0.04507 0.19778 0.0
C1087 C 0.98517 0.03719 0.20495 0.0
C1088 C 0.01321 0.04619 0.17037 0.0
C1089 C 0.9638 0.03028 0.18418 0.0
C1090 C 0.96695 0.03099 0.1569 0.0
C1091 C 0.99488 0.03955 0.12225 0.0
C1092 C 0.01955 0.04818 0.11528 0.0
C1093 C 0.99155 0.03887 0.14971 0.0
C1094 C 0.04088 0.05588 0.13602 0.0
C1095 C 0.03778 0.05463 0.16324 0.0
H1096 H 0.26187 0.7205 0.5358 0.0
H1097 H 0.30273 0.66734 0.50126 0.0
H1098 H 0.30642 0.69004 0.46174 0.0
H1099 H 0.29469 0.72249 0.43539 0.0
H1100 H 0.25284 0.77477 0.46939 0.0
H1101 H 0.25362 0.75543 0.5113 0.0
C1102 C 0.27163 0.71389 0.51966 0.0
C1103 C 0.2816 0.69201 0.52118 0.0
C1104 C 0.27367 0.72699 0.49708 0.0
C1105 C 0.29463 0.68397 0.50038 0.0
C1106 C 0.2968 0.69696 0.47783 0.0
C1107 C 0.28597 0.72976 0.45213 0.0
C1108 C 0.27336 0.74965 0.44929 0.0
C1109 C 0.28591 0.71812 0.47574 0.0
C1110 C 0.26265 0.75944 0.47122 0.0
C1111 C 0.26286 0.74822 0.49501 0.0
H1112 H 0.61589 0.0816 0.70082 0.0
H1113 H 0.6709 0.04831 0.66306 0.0
H1114 H 0.64432 0.04118 0.61886 0.0
H1115 H 0.605 0.04211 0.59173 0.0
H1116 H 0.54895 0.07493 0.62808 0.0
H1117 H 0.57638 0.0843 0.6724 0.0
C1118 C 0.62211 0.0732 0.68276 0.0
C1119 C 0.64498 0.06517 0.68494 0.0
C1120 C 0.60649 0.06867 0.65746 0.0
C1121 C 0.65307 0.05427 0.66167 0.0
C1122 C 0.63793 0.05013 0.63649 0.0
C1123 C 0.59863 0.05125 0.60928 0.0
C1124 C 0.57494 0.05758 0.60673 0.0
C1125 C 0.61441 0.05674 0.63431 0.0
C1126 C 0.5671 0.06964 0.62965 0.0
C1127 C 0.5828 0.07513 0.65492 0.0
H1128 H 0.28582 0.34709 0.96114 0.0
H1129 H 0.3512 0.31596 0.98005 0.0
H1130 H 0.3496 0.30046 0.93169 0.0
H1131 H 0.33151 0.2988 0.88315 0.0
H1132 H 0.26715 0.33197 0.86572 0.0
H1133 H 0.26648 0.34327 0.9139 0.0
C1134 C 0.29955 0.33661 0.95481 0.0
C1135 C 0.31867 0.33288 0.97433 0.0
C1136 C 0.29888 0.32823 0.92693 0.0
C1137 C 0.33628 0.31924 0.96554 0.0
C1138 C 0.33544 0.31042 0.9378 0.0
C1139 C 0.31725 0.30828 0.88996 0.0
C1140 C 0.29965 0.31476 0.87064 0.0
C1141 C 0.31715 0.31529 0.91816 0.0
C1142 C 0.28123 0.32702 0.87994 0.0
C1143 C 0.28074 0.3335 0.90763 0.0
H1144 H 0.99232 0.98624 0.35799 0.0
H1145 H 0.9966 0.06746 0.35396 0.0
H1146 H 0.015 0.07881 0.40206 0.0
H1147 H 0.0269 0.06539 0.44601 0.0
H1148 H 0.02246 0.98415 0.45033 0.0
H1149 H 1.00735 0.97323 0.40138 0.0
C1150 C 0.99755 0.00648 0.36752 0.0
C1151 C 0.99284 0.02591 0.35228 0.0
C1152 C 1.00798 0.01288 0.39534 0.0
C1153 C 0.99994 0.05205 0.36505 0.0
C1154 C 0.01038 0.05857 0.39265 0.0
C1155 C 0.02284 0.04527 0.4363 0.0
C1156 C 0.02563 0.02559 0.45207 0.0
C1157 C 0.014 0.03909 0.40813 0.0
C1158 C 0.02041 -0.00028 0.43888 0.0
C1159 C 0.01171 0.99344 0.41083 0.0
H1160 H 0.2788 0.69048 0.65368 0.0
H1161 H 0.33846 0.74519 0.62486 0.0
H1162 H 0.33809 0.77874 0.66249 0.0
H1163 H 0.3208 0.79216 0.70339 0.0
H1164 H 0.25892 0.73861 0.72976 0.0
H1165 H 0.26041 0.70432 0.69326 0.0
C1166 C 0.29191 0.70967 0.65572 0.0
C1167 C 0.30888 0.71538 0.63683 0.0
C1168 C 0.29131 0.72877 0.67697 0.0
C1169 C 0.32537 0.7404 0.63937 0.0
C1170 C 0.32515 0.75953 0.66078 0.0
C1171 C 0.30773 0.77291 0.70104 0.0
C1172 C 0.29055 0.76716 0.71957 0.0
C1173 C 0.3082 0.75387 0.67964 0.0
C1174 C 0.27323 0.74262 0.71638 0.0
C1175 C 0.27381 0.72332 0.69535 0.0
H1176 H 0.67303 0.11655 0.82794 0.0
H1177 H 0.64024 0.03322 0.80903 0.0
H1178 H 0.61507 0.03496 0.84594 0.0
H1179 H 0.6023 0.05963 0.88333 0.0
H1180 H 0.63448 0.14268 0.90363 0.0
H1181 H 0.65979 0.14168 0.86604 0.0
C1182 C 0.66035 0.09881 0.83192 0.0
C1183 C 0.65849 0.0748 0.81577 0.0
C1184 C 0.64582 0.0999 0.85326 0.0
C1185 C 0.64201 0.05197 0.82112 0.0
C1186 C 0.62759 0.0529 0.84222 0.0
C1187 C 0.61504 0.07749 0.87967 0.0
C1188 C 0.61685 0.10111 0.89625 0.0
C1189 C 0.6294 0.07668 0.85838 0.0
C1190 C 0.63285 0.12426 0.89098 0.0
C1191 C 0.64734 0.12366 0.86963 0.0
H1192 H 0.26272 0.31833 0.11119 0.0
H1193 H 0.33186 0.38082 0.13278 0.0
H1194 H 0.33402 0.37384 0.18033 0.0
H1195 H 0.3164 0.34957 0.21609 0.0
H1196 H 0.24725 0.287 0.19357 0.0
H1197 H 0.24508 0.29456 0.14653 0.0
C1198 C 0.2783 0.33046 0.12624 0.0
C1199 C 0.29708 0.35008 0.11822 0.0
C1200 C 0.27942 0.32639 0.15364 0.0
C1201 C 0.31714 0.3655 0.13819 0.0
C1202 C 0.31836 0.36157 0.1655 0.0
C1203 C 0.30071 0.33777 0.20097 0.0
C1204 C 0.28198 0.3178 0.20869 0.0
C1205 C 0.29958 0.34207 0.17353 0.0
C1206 C 0.26194 0.30259 0.18854 0.0
C1207 C 0.26068 0.30683 0.16145 0.0
H1208 H 0.20865 0.94466 0.00848 0.0
H1209 H 0.27306 0.0128 0.02405 0.0
H1210 H 0.2492 0.03663 0.05099 0.0
H1211 H 0.20918 0.0394 0.06674 0.0
H1212 H 0.14327 0.9733 0.0479 0.0
H1213 H 0.16897 0.94676 0.02659 0.0
C1214 C 0.21738 0.96475 0.01767 0.0
C1215 C 0.24239 0.97703 0.0141 0.0
C1216 C 0.20357 0.97841 0.03308 0.0
C1217 C 0.25364 0.00301 0.02624 0.0
C1218 C 0.24017 0.01659 0.0419 0.0
C1219 C 0.20083 0.01889 0.0589 0.0
C1220 C 0.17476 0.00804 0.05894 0.0
C1221 C 0.21511 0.00455 0.04524 0.0
C1222 C 0.1636 0.9817 0.04825 0.0
C1223 C 0.1781 0.96678 0.0357 0.0
H1224 H 0.68042 0.67721 0.05107 0.0
H1225 H 0.71169 0.62556 -0.00011 0.0
H1226 H 0.67341 0.58983 -0.00071 0.0
H1227 H 0.63021 0.5735 0.01327 0.0
H1228 H 0.60141 0.62704 0.06547 0.0
H1229 H 0.63944 0.66136 0.06566 0.0
C1230 C 0.67896 0.6582 0.03964 0.0
C1231 C 0.69888 0.65423 0.0254 0.0
C1232 C 0.65719 0.63786 0.03962 0.0
C1233 C 0.69659 0.62927 0.01096 0.0
C1234 C 0.6747 0.60879 0.01066 0.0
C1235 C 0.6324 0.59261 0.02481 0.0
C1236 C 0.61264 0.59745 0.03915 0.0
C1237 C 0.65476 0.61284 0.02496 0.0
C1238 C 0.61594 0.62248 0.05398 0.0
C1239 C 0.63781 0.64234 0.05418 0.0
H1240 H 0.69442 0.52018 0.2854 0.0
H1241 H 0.62329 0.46002 0.27119 0.0
H1242 H 0.64687 0.42662 0.26445 0.0
H1243 H 0.68788 0.41427 0.2642 0.0
H1244 H 0.75893 0.47459 0.27945 0.0
H1245 H 0.73518 0.50795 0.28372 0.0
C1246 C 0.68402 0.49978 0.28075 0.0
C1247 C 0.65709 0.4927 0.27907 0.0
C1248 C 0.69772 0.48059 0.27701 0.0
C1249 C 0.64402 0.46611 0.27284 0.0
C1250 C 0.65749 0.44694 0.26896 0.0
C1251 C 0.69819 0.43471 0.26851 0.0
C1252 C 0.72523 0.44178 0.27145 0.0
C1253 C 0.68438 0.45392 0.27132 0.0
C1254 C 0.73816 0.46845 0.27665 0.0
C1255 C 0.72458 0.48761 0.27934 0.0
H1256 H 0.88289 0.45072 0.50495 0.0
H1257 H 0.86457 0.5225 0.53409 0.0
H1258 H 0.90867 0.547 0.53244 0.0
H1259 H 0.95318 0.54678 0.52672 0.0
H1260 H 0.97052 0.47486 0.49671 0.0
H1261 H 0.9255 0.45122 0.4941 0.0
C1262 C 0.88861 0.47172 0.51107 0.0
C1263 C 0.87108 0.48489 0.5204 0.0
C1264 C 0.91348 0.48545 0.50952 0.0
C1265 C 0.87818 0.51212 0.52735 0.0
C1266 C 0.90321 0.52604 0.52628 0.0
C1267 C 0.9467 0.5261 0.51884 0.0
C1268 C 0.96442 0.51229 0.51166 0.0
C1269 C 0.92108 0.51279 0.51784 0.0
C1270 C 0.95662 0.48557 0.50181 0.0
C1271 C 0.93113 0.47213 0.50068 0.0
H1272 H 0.34303 0.07085 0.28941 0.0
H1273 H 0.41069 0.13424 0.31715 0.0
H1274 H 0.38725 0.16513 0.3012 0.0
H1275 H 0.34658 0.17378 0.28208 0.0
H1276 H 0.27909 0.10965 0.25662 0.0
H1277 H 0.30387 0.07894 0.26844 0.0
C1278 C 0.35275 0.09145 0.29207 0.0
C1279 C 0.37834 0.10047 0.30485 0.0
C1280 C 0.33929 0.10874 0.28305 0.0
C1281 C 0.39088 0.12702 0.30752 0.0
C1282 C 0.37751 0.14457 0.29844 0.0
C1283 C 0.33739 0.15305 0.27906 0.0
C1284 C 0.31104 0.1439 0.26876 0.0
C1285 C 0.35157 0.13562 0.28658 0.0
C1286 C 0.29938 0.11705 0.26432 0.0
C1287 C 0.31345 0.09955 0.27131 0.0
H1288 H 0.36756 0.19771 0.55316 0.0
H1289 H 0.30147 0.13318 0.52267 0.0
H1290 H 0.32826 0.10256 0.52642 0.0
H1291 H 0.37081 0.09411 0.53624 0.0
H1292 H 0.43723 0.15835 0.56448 0.0
H1293 H 0.41001 0.18916 0.56418 0.0
C1294 C 0.35899 0.17695 0.5474 0.0
C1295 C 0.33254 0.1678 0.53745 0.0
C1296 C 0.37457 0.15942 0.54933 0.0
C1297 C 0.32178 0.14081 0.53017 0.0
C1298 C 0.33707 0.12325 0.53237 0.0
C1299 C 0.37913 0.11486 0.54264 0.0
C1300 C 0.40575 0.12415 0.55054 0.0
C1301 C 0.36349 0.13234 0.54165 0.0
C1302 C 0.41666 0.15097 0.55848 0.0
C1303 C 0.40115 0.16849 0.55817 0.0
H1304 H 0.71036 0.63417 0.30874 0.0
H1305 H 0.64463 0.6659 0.29354 0.0
H1306 H 0.67271 0.70785 0.2902 0.0
H1307 H 0.71522 0.73528 0.2903 0.0
H1308 H 0.78199 0.70536 0.30566 0.0
H1309 H 0.75418 0.66305 0.31055 0.0
C1310 C 0.70223 0.65031 0.30482 0.0
C1311 C 0.67534 0.64675 0.30135 0.0
C1312 C 0.71862 0.67471 0.30295 0.0
C1313 C 0.66517 0.66795 0.29638 0.0
C1314 C 0.68123 0.69202 0.29439 0.0
C1315 C 0.72388 0.71959 0.29471 0.0
C1316 C 0.75073 0.7235 0.29732 0.0
C1317 C 0.70789 0.69555 0.29744 0.0
C1318 C 0.76141 0.70292 0.30345 0.0
C1319 C 0.74549 0.6787 0.30618 0.0
H1320 H 0.85444 0.45972 0.83304 0.0
H1321 H 0.84422 0.46065 0.74613 0.0
H1322 H 0.83501 0.41305 0.73804 0.0
H1323 H 0.82755 0.37207 0.75584 0.0
H1324 H 0.83734 0.3715 0.84279 0.0
H1325 H 0.85082 0.4191 0.85076 0.0
C1326 C 0.85008 0.44965 0.81225 0.0
C1327 C 0.84945 0.46352 0.79014 0.0
C1328 C 0.84534 0.42274 0.80786 0.0
C1329 C 0.84423 0.4502 0.76341 0.0
C1330 C 0.83927 0.42315 0.75881 0.0
C1331 C 0.83274 0.38232 0.77657 0.0
C1332 C 0.83063 0.36865 0.79876 0.0
C1333 C 0.83949 0.40934 0.78092 0.0
C1334 C 0.83814 0.38192 0.82547 0.0
C1335 C 0.84572 0.40898 0.83001 0.0
H1336 H 0.05152 0.87442 0.03758 0.0
H1337 H 0.09142 0.90201 0.11931 0.0
H1338 H 0.0894 0.9467 0.1139 0.0
H1339 H 0.07491 0.97859 0.08604 0.0
H1340 H 0.0346 0.94937 0.00456 0.0
H1341 H 0.03848 0.90566 0.00981 0.0
C1342 C 0.05999 0.89012 0.05431 0.0
C1343 C 0.07172 0.88423 0.07893 0.0
C1344 C 0.05868 0.916 0.05106 0.0
C1345 C 0.08242 0.90541 0.10005 0.0
C1346 C 0.08117 0.93118 0.09695 0.0
C1347 C 0.06715 0.96275 0.06931 0.0
C1348 C 0.05433 0.96793 0.04478 0.0
C1349 C 0.0692 0.93687 0.07256 0.0
C1350 C 0.0444 0.94659 0.02369 0.0
C1351 C 0.04661 0.92129 0.02668 0.0
H1352 H 0.94341 0.27678 0.88531 0.0
H1353 H 0.89873 0.27323 0.95134 0.0
H1354 H 0.86067 0.27336 0.92026 0.0
H1355 H 0.83958 0.27571 0.87427 0.0
H1356 H 0.88403 0.27926 0.80802 0.0
H1357 H 0.92188 0.27797 0.83886 0.0
C1358 C 0.92533 0.27582 0.8929 0.0
C1359 C 0.92434 0.27497 0.92096 0.0
C1360 C 0.90311 0.27602 0.8747 0.0
C1361 C 0.90049 0.27395 0.93009 0.0
C1362 C 0.8785 0.27404 0.91221 0.0
C1363 C 0.85745 0.276 0.86642 0.0
C1364 C 0.85848 0.27744 0.83846 0.0
C1365 C 0.87952 0.27525 0.88446 0.0
C1366 C 0.88217 0.27792 0.82915 0.0
C1367 C 0.90406 0.27727 0.84692 0.0
H1368 H 0.59329 0.22695 0.58391 0.0
H1369 H 0.52022 0.22588 0.53844 0.0
H1370 H 0.51161 0.17908 0.52457 0.0
H1371 H 0.52359 0.13722 0.52574 0.0
H1372 H 0.59785 0.13749 0.56722 0.0
H1373 H 0.60693 0.18478 0.5819 0.0
C1374 C 0.5755 0.21654 0.57094 0.0
C1375 C 0.55743 0.23062 0.56261 0.0
C1376 C 0.57069 0.18898 0.56217 0.0
C1377 C 0.53467 0.21622 0.54544 0.0
C1378 C 0.52959 0.18913 0.53741 0.0
C1379 C 0.54187 0.14759 0.53786 0.0
C1380 C 0.55991 0.13335 0.54531 0.0
C1381 C 0.54729 0.17515 0.54571 0.0
C1382 C 0.58355 0.14759 0.56087 0.0
C1383 C 0.58873 0.17481 0.56944 0.0
H1384 H 0.60704 0.8185 0.44477 0.0
H1385 H 0.54567 0.76999 0.38433 0.0
H1386 H 0.57497 0.77199 0.3505 0.0
H1387 H 0.61838 0.78756 0.33791 0.0
H1388 H 0.67897 0.83727 0.39804 0.0
H1389 H 0.64983 0.83461 0.43215 0.0
C1390 C 0.6 0.80829 0.42423 0.0
C1391 C 0.57409 0.79397 0.41727 0.0
C1392 C 0.61694 0.80967 0.40479 0.0
C1393 C 0.56547 0.78104 0.39041 0.0
C1394 C 0.58224 0.78218 0.371 0.0
C1395 C 0.6251 0.7977 0.35853 0.0
C1396 C 0.65077 0.81251 0.36558 0.0
C1397 C 0.60805 0.79639 0.37794 0.0
C1398 C 0.65929 0.82579 0.39223 0.0
C1399 C 0.64263 0.82426 0.4117 0.0
H1400 H 0.04668 0.24667 0.39397 0.0
H1401 H 0.02044 0.29593 0.45327 0.0
H1402 H 0.01283 0.26128 0.48115 0.0
H1403 H 0.01357 0.21703 0.48908 0.0
H1404 H 0.03851 0.16691 0.42953 0.0
H1405 H 0.04688 0.2018 0.40175 0.0
C1406 C 0.03937 0.24984 0.41303 0.0
C1407 C 0.03417 0.27398 0.42141 0.0
C1408 C 0.03481 0.22963 0.42906 0.0
C1409 C 0.02459 0.27762 0.44617 0.0
C1410 C 0.02021 0.25777 0.46221 0.0
C1411 C 0.02058 0.21357 0.46989 0.0
C1412 C 0.0254 0.18925 0.46156 0.0
C1413 C 0.02516 0.23367 0.45385 0.0
C1414 C 0.03493 0.18547 0.43677 0.0
C1415 C 0.0396 0.20541 0.42074 0.0
H1416 H 0.61757 0.29425 0.26341 0.0
H1417 H 0.6088 0.21888 0.21615 0.0
H1418 H 0.65334 0.22015 0.2321 0.0
H1419 H 0.69642 0.24356 0.2572 0.0
H1420 H 0.70646 0.31996 0.30272 0.0
H1421 H 0.66085 0.31722 0.29017 0.0
C1422 C 0.62522 0.27785 0.2571 0.0
C1423 C 0.60923 0.25628 0.23869 0.0
C1424 C 0.65164 0.27895 0.26593 0.0
C1425 C 0.62018 0.23567 0.23038 0.0
C1426 C 0.64591 0.2364 0.23944 0.0
C1427 C 0.68865 0.25951 0.26471 0.0
C1428 C 0.70542 0.28194 0.28108 0.0
C1429 C 0.66209 0.25807 0.25689 0.0
C1430 C 0.6945 0.3024 0.2901 0.0
C1431 C 0.66817 0.30087 0.28287 0.0
H1432 H 0.57319 0.89867 0.94021 0.0
H1433 H 0.51667 0.9118 0.8791 0.0
H1434 H 0.51638 0.95259 0.90661 0.0
H1435 H 0.52989 0.98373 0.94948 0.0
H1436 H 0.58402 0.96949 0.0124 0.0
H1437 H 0.58757 0.93077 0.98317 0.0
C1438 C 0.56123 0.91074 0.93272 0.0
C1439 C 0.54519 0.90211 0.90727 0.0
C1440 C 0.56048 0.93416 0.94927 0.0
C1441 C 0.52935 0.91787 0.8984 0.0
C1442 C 0.52908 0.94128 0.91423 0.0
C1443 C 0.54271 0.97237 0.95673 0.0
C1444 C 0.55667 0.97984 0.98331 0.0
C1445 C 0.54422 0.94952 0.93992 0.0
C1446 C 0.5729 0.9644 0.9922 0.0
C1447 C 0.57498 0.94212 0.9754 0.0
H1448 H 0.9522 0.80705 0.74556 0.0
H1449 H 0.94147 0.72501 0.7488 0.0
H1450 H 0.89866 0.72289 0.76221 0.0
H1451 H 0.86282 0.74495 0.7723 0.0
H1452 H 0.87728 0.82769 0.76905 0.0
H1453 H 0.91899 0.82848 0.75658 0.0
C1454 C 0.94073 0.78853 0.74923 0.0
C1455 C 0.95067 0.76623 0.74592 0.0
C1456 C 0.9161 0.78749 0.75698 0.0
C1457 C 0.93492 0.74269 0.75116 0.0
C1458 C 0.91014 0.74146 0.75875 0.0
C1459 C 0.87502 0.76314 0.76882 0.0
C1460 C 0.86597 0.78629 0.7719 0.0
C1461 C 0.90021 0.76378 0.76158 0.0
C1462 C 0.88286 0.80946 0.76728 0.0
C1463 C 0.90713 0.81005 0.75996 0.0
H1464 H 0.0545 0.05568 0.86066 0.0
H1465 H 0.13443 0.05931 0.88501 0.0
H1466 H 0.12626 0.05315 0.93109 0.0
H1467 H 0.09626 0.04718 0.96503 0.0
H1468 H 0.01643 0.04391 0.93971 0.0
H1469 H 0.02482 0.04946 0.89396 0.0
C1470 C 0.07017 0.05515 0.87602 0.0
C1471 C 0.09503 0.05808 0.86927 0.0
C1472 C 0.06538 0.05165 0.90255 0.0
C1473 C 0.11508 0.05733 0.88957 0.0
C1474 C 0.11043 0.05372 0.916 0.0
C1475 C 0.08071 0.04757 0.94947 0.0
C1476 C 0.05576 0.0451 0.95605 0.0
C1477 C 0.08563 0.05091 0.92281 0.0
C1478 C 0.03588 0.04571 0.93548 0.0
C1479 C 0.04061 0.04894 0.90915 0.0
H1480 H 0.77966 0.35264 0.53379 0.0
H1481 H 0.8158 0.42799 0.58195 0.0
H1482 H 0.82877 0.4071 0.61985 0.0
H1483 H 0.82946 0.36782 0.6397 0.0
H1484 H 0.79316 0.29215 0.59303 0.0
H1485 H 0.78077 0.31273 0.55393 0.0
C1486 C 0.79026 0.36442 0.55264 0.0
C1487 C 0.79649 0.39178 0.55517 0.0
C1488 C 0.79771 0.35227 0.5745 0.0
C1489 C 0.81037 0.40688 0.57962 0.0
C1490 C 0.81796 0.39498 0.60128 0.0
C1491 C 0.81885 0.35588 0.62091 0.0
C1492 C 0.8121 0.32866 0.61905 0.0
C1493 C 0.81165 0.36777 0.59896 0.0
C1494 C 0.79866 0.31321 0.59465 0.0
C1495 C 0.79147 0.32496 0.57247 0.0
H1496 H 0.45255 0.0452 0.38035 0.0
H1497 H 0.40443 0.98953 0.42053 0.0
H1498 H 0.44041 0.99487 0.4573 0.0
H1499 H 0.48584 0.01524 0.47705 0.0
H1500 H 0.5329 0.07012 0.43537 0.0
H1501 H 0.49678 0.06479 0.39929 0.0
C1502 C 0.44971 0.0344 0.39729 0.0
C1503 C 0.42586 0.01736 0.39813 0.0
C1504 C 0.47022 0.03736 0.41777 0.0
C1505 C 0.42269 0.00293 0.41972 0.0
C1506 C 0.44317 0.00598 0.44062 0.0
C1507 C 0.48776 0.02652 0.4604 0.0
C1508 C 0.51133 0.04377 0.45903 0.0
C1509 C 0.46699 0.02323 0.43982 0.0
C1510 C 0.51454 0.05717 0.4368 0.0
C1511 C 0.49402 0.05412 0.4163 0.0
H1512 H 0.76538 0.72326 0.10969 0.0
H1513 H 0.78939 0.8016 0.09151 0.0
H1514 H 0.78862 0.81925 0.13875 0.0
H1515 H 0.78421 0.81233 0.18651 0.0
H1516 H 0.76235 0.73368 0.20415 0.0
H1517 H 0.75882 0.7164 0.15609 0.0
C1518 C 0.77028 0.74422 0.11593 0.0
C1519 C 0.77761 0.76101 0.09694 0.0
C1520 C 0.7701 0.75425 0.14322 0.0
C1521 C 0.78383 0.78813 0.1056 0.0
C1522 C 0.78336 0.79828 0.13269 0.0
C1523 C 0.77807 0.79147 0.17963 0.0
C1524 C 0.77332 0.7743 0.19882 0.0
C1525 C 0.77688 0.78154 0.15185 0.0
C1526 C 0.76597 0.74727 0.18974 0.0
C1527 C 0.76409 0.73736 0.16226 0.0
H1528 H 0.05694 0.07956 0.72154 0.0
H1529 H 0.1201 0.0435 0.71709 0.0
H1530 H 0.11245 0.03844 0.66774 0.0
H1531 H 0.08875 0.04471 0.62586 0.0
H1532 H 0.02507 0.08004 0.62877 0.0
H1533 H 0.03218 0.08503 0.67861 0.0
C1534 C 0.06889 0.07041 0.70977 0.0
C1535 C 0.0891 0.06196 0.72323 0.0
C1536 C 0.06449 0.06761 0.68107 0.0
C1537 C 0.10438 0.05017 0.70751 0.0
C1538 C 0.10011 0.04734 0.67917 0.0
C1539 C 0.07638 0.0536 0.63726 0.0
C1540 C 0.05647 0.06211 0.62344 0.0
C1541 C 0.08039 0.05615 0.66577 0.0
C1542 C 0.04069 0.07349 0.63879 0.0
C1543 C 0.04467 0.07625 0.66732 0.0
H1544 H 0.78041 0.38503 0.44458 0.0
H1545 H 0.85179 0.43172 0.42699 0.0
H1546 H 0.85546 0.39512 0.39477 0.0
H1547 H 0.8364 0.35191 0.36912 0.0
H1548 H 0.76306 0.30687 0.38347 0.0
H1549 H 0.76294 0.34053 0.42121 0.0
C1550 C 0.79685 0.38725 0.43379 0.0
C1551 C 0.81561 0.41111 0.43774 0.0
C1552 C 0.79871 0.36635 0.41537 0.0
C1553 C 0.8369 0.41363 0.42386 0.0
C1554 C 0.83912 0.3927 0.40569 0.0
C1555 C 0.82055 0.34927 0.3808 0.0
C1556 C 0.79948 0.32741 0.37337 0.0
C1557 C 0.81989 0.36923 0.40101 0.0
C1558 C 0.7794 0.32369 0.38892 0.0
C1559 C 0.77917 0.34306 0.41012 0.0
H1560 H 0.44208 0.03396 0.2653 0.0
H1561 H 0.41275 0.9509 0.26189 0.0
H1562 H 0.43415 0.94293 0.22248 0.0
H1563 H 0.46 0.95981 0.18798 0.0
H1564 H 0.48915 0.04298 0.19209 0.0
H1565 H 0.46878 0.05065 0.23216 0.0
C1566 C 0.4404 0.01409 0.25601 0.0
C1567 C 0.42578 0.99307 0.26642 0.0
C1568 C 0.45258 0.00968 0.23337 0.0
C1569 C 0.42396 0.96744 0.25428 0.0
C1570 C 0.43611 0.96287 0.2317 0.0
C1571 C 0.46202 0.97957 0.19781 0.0
C1572 C 0.47583 0.0008 0.18697 0.0
C1573 C 0.4503 0.98387 0.22093 0.0
C1574 C 0.47819 0.02634 0.19977 0.0
C1575 C 0.46671 0.03075 0.22277 0.0
H1576 H 0.7947 0.72201 0.94352 0.0
H1577 H 0.75509 0.78049 0.96699 0.0
H1578 H 0.76247 0.79907 0.9255 0.0
H1579 H 0.77879 0.79803 0.88149 0.0
H1580 H 0.81572 0.73811 0.85607 0.0
H1581 H 0.81111 0.72098 0.89923 0.0
C1582 C 0.78782 0.73891 0.93964 0.0
C1583 C 0.77434 0.74979 0.95854 0.0
C1584 C 0.79176 0.74934 0.91532 0.0
C1585 C 0.76543 0.7716 0.95293 0.0
C1586 C 0.76968 0.78232 0.92916 0.0
C1587 C 0.78614 0.78145 0.88567 0.0
C1588 C 0.79801 0.76959 0.86599 0.0
C1589 C 0.78267 0.77129 0.91012 0.0
C1590 C 0.80687 0.74773 0.87117 0.0
C1591 C 0.8041 0.73789 0.89577 0.0
H1592 H 0.81925 0.09328 0.02815 0.0
H1593 H 0.88305 0.15988 0.05965 0.0
H1594 H 0.91177 0.13871 0.03647 0.0
H1595 H 0.91916 0.09922 0.01216 0.0
H1596 H 0.85577 0.03141 0.98477 0.0
H1597 H 0.82588 0.05585 -8e-05 0.0
C1598 C 0.83943 0.10322 0.0299 0.0
C1599 C 0.84926 0.12778 0.04592 0.0
C1600 C 0.85563 0.09098 0.01673 0.0
C1601 C 0.87524 0.14076 0.04759 0.0
C1602 C 0.89157 0.12877 0.03427 0.0
C1603 C 0.89869 0.09008 0.00898 0.0
C1604 C 0.88955 0.06355 0.99801 0.0
C1605 C 0.88201 0.10364 0.01936 0.0
C1606 C 0.8631 0.05185 0.99324 0.0
C1607 C 0.84613 0.06566 0.00234 0.0
H1608 H 0.37924 0.45593 0.04948 0.0
H1609 H 0.41506 0.3929 0.05962 0.0
H1610 H 0.45689 0.42141 0.05688 0.0
H1611 H 0.4833 0.46409 0.05133 0.0
H1612 H 0.44766 0.5273 0.04133 0.0
H1613 H 0.40587 0.49898 0.04462 0.0
C1614 C 0.39622 0.44846 0.05109 0.0
C1615 C 0.39405 0.42235 0.0548 0.0
C1616 C 0.42027 0.46502 0.04966 0.0
C1617 C 0.41623 0.41298 0.05701 0.0
C1618 C 0.44016 0.42925 0.05537 0.0
C1619 C 0.46642 0.47172 0.04998 0.0
C1620 C 0.46863 0.49776 0.04598 0.0
C1621 C 0.44242 0.4553 0.05173 0.0
C1622 C 0.4465 0.50727 0.04415 0.0
C1623 C 0.42258 0.49109 0.04607 0.0
H1624 H 0.43939 0.62751 0.77671 0.0
H1625 H 0.39302 0.5635 0.80825 0.0
H1626 H 0.36208 0.58891 0.81706 0.0
H1627 H 0.34618 0.62778 0.81193 0.0
H1628 H 0.39091 0.69057 0.77751 0.0
H1629 H 0.4246 0.6674 0.7739 0.0
C1630 C 0.42262 0.61926 0.78573 0.0
C1631 C 0.41833 0.5936 0.79152 0.0
C1632 C 0.40455 0.63373 0.7901 0.0
C1633 C 0.39653 0.5831 0.80322 0.0
C1634 C 0.37886 0.59763 0.80834 0.0
C1635 C 0.36353 0.63651 0.80409 0.0
C1636 C 0.36612 0.66068 0.79487 0.0
C1637 C 0.38238 0.62273 0.8013 0.0
C1638 C 0.38852 0.67181 0.78451 0.0
C1639 C 0.40772 0.65858 0.78241 0.0
H1640 H 0.21129 0.58279 0.59127 0.0
H1641 H 0.20277 0.65493 0.56534 0.0
H1642 H 0.15748 0.63515 0.5483 0.0
H1643 H 0.12056 0.59889 0.54319 0.0
H1644 H 0.12643 0.5273 0.57251 0.0
H1645 H 0.17295 0.54525 0.58571 0.0
C1646 C 0.1993 0.59402 0.58199 0.0
C1647 C 0.20979 0.62022 0.57985 0.0
C1648 C 0.17313 0.58274 0.573 0.0
C1649 C 0.19461 0.63484 0.56765 0.0
C1650 C 0.1689 0.62354 0.55778 0.0
C1651 C 0.13186 0.58709 0.55256 0.0
C1652 C 0.12012 0.56204 0.55737 0.0
C1653 C 0.15797 0.59773 0.5608 0.0
C1654 C 0.13515 0.54683 0.56891 0.0
C1655 C 0.16163 0.55708 0.57649 0.0
H1656 H 0.74376 0.00835 0.76629 0.0
H1657 H 0.6773 0.95937 0.79109 0.0
H1658 H 0.70537 0.94037 0.81978 0.0
H1659 H 0.74823 0.93574 0.8349 0.0
H1660 H 0.81404 0.98184 0.80684 0.0
H1661 H 0.78675 0.0058 0.78385 0.0
C1662 C 0.7353 0.99339 0.7778 0.0
C1663 C 0.70847 0.9849 0.77635 0.0
C1664 C 0.75144 0.98294 0.79438 0.0
C1665 C 0.69789 0.96588 0.79171 0.0
C1666 C 0.7139 0.95531 0.80831 0.0
C1667 C 0.7566 0.95162 0.82439 0.0
C1668 C 0.78282 0.95703 0.82215 0.0
C1669 C 0.74062 0.96363 0.80963 0.0
C1670 C 0.79384 0.9776 0.80883 0.0
C1671 C 0.77818 0.99079 0.79523 0.0
H1672 H 0.70939 0.89147 0.50613 0.0
H1673 H 0.77371 0.95143 0.55143 0.0
H1674 H 0.74906 0.98374 0.548 0.0
H1675 H 0.70903 0.99507 0.53353 0.0
H1676 H 0.64452 0.93634 0.4878 0.0
H1677 H 0.66932 0.90336 0.48999 0.0
C1678 C 0.71797 0.91159 0.51525 0.0
C1679 C 0.74328 0.9189 0.52927 0.0
C1680 C 0.70364 0.93026 0.51321 0.0
C1681 C 0.75417 0.94512 0.54083 0.0
C1682 C 0.74013 0.9637 0.53883 0.0
C1683 C 0.70053 0.97502 0.52402 0.0
C1684 C 0.67516 0.96789 0.51071 0.0
C1685 C 0.71485 0.95646 0.52532 0.0
C1686 C 0.66416 0.94206 0.49812 0.0
C1687 C 0.67829 0.9233 0.49946 0.0
H1688 H 0.37965 0.46235 0.76583 0.0
H1689 H 0.44037 0.42313 0.76002 0.0
H1690 H 0.41074 0.38179 0.76341 0.0
H1691 H 0.36831 0.35718 0.76966 0.0
H1692 H 0.30665 0.39508 0.77387 0.0
H1693 H 0.3359 0.43665 0.76922 0.0
C1694 C 0.38635 0.44473 0.76521 0.0
C1695 C 0.41227 0.44588 0.76286 0.0
C1696 C 0.36909 0.42088 0.76689 0.0
C1697 C 0.42057 0.42282 0.76178 0.0
C1698 C 0.40366 0.39918 0.7638 0.0
C1699 C 0.3612 0.3745 0.76952 0.0
C1700 C 0.33543 0.37311 0.77242 0.0
C1701 C 0.37799 0.39806 0.76662 0.0
C1702 C 0.32642 0.39565 0.7717 0.0
C1703 C 0.34316 0.4194 0.76914 0.0
H1704 H 0.26028 0.6211 0.23506 0.0
H1705 H 0.19574 0.63823 0.18868 0.0
H1706 H 0.21719 0.68487 0.19823 0.0
H1707 H 0.24958 0.72024 0.22823 0.0
H1708 H 0.31317 0.70293 0.2761 0.0
H1709 H 0.29675 0.65649 0.25773 0.0
C1710 C 0.25135 0.63508 0.22638 0.0
C1711 C 0.2264 0.62672 0.21189 0.0
C1712 C 0.26324 0.66161 0.23291 0.0
C1713 C 0.21496 0.64452 0.2001 0.0
C1714 C 0.22704 0.67112 0.20587 0.0
C1715 C 0.25991 0.7062 0.23426 0.0
C1716 C 0.2819 0.71431 0.25395 0.0
C1717 C 0.25036 0.67983 0.22367 0.0
C1718 C 0.29589 0.6966 0.26121 0.0
C1719 C 0.28655 0.67024 0.25072 0.0
H1720 H 0.50654 0.68954 0.46756 0.0
H1721 H 0.52838 0.72734 0.55104 0.0
H1722 H 0.53369 0.6868 0.56532 0.0
H1723 H 0.53355 0.64002 0.55502 0.0
H1724 H 0.51011 0.60085 0.47237 0.0
H1725 H 0.50445 0.64151 0.4575 0.0
C1726 C 0.51233 0.689 0.4889 0.0
C1727 C 0.51714 0.71238 0.50792 0.0
C1728 C 0.51537 0.66489 0.49745 0.0
C1729 C 0.52462 0.7104 0.5355 0.0
C1730 C 0.52773 0.68691 0.5439 0.0
C1731 C 0.52713 0.64022 0.53372 0.0
C1732 C 0.52239 0.61675 0.51503 0.0
C1733 C 0.52343 0.66395 0.52516 0.0
C1734 C 0.51389 0.61808 0.48754 0.0
C1735 C 0.51065 0.6416 0.47891 0.0
H1736 H 0.67653 0.29575 0.6406 0.0
H1737 H 0.63354 0.3239 0.69942 0.0
H1738 H 0.668 0.32448 0.73636 0.0
H1739 H 0.71075 0.31573 0.75229 0.0
H1740 H 0.75284 0.28908 0.69121 0.0
H1741 H 0.71872 0.28922 0.65562 0.0
C1742 C 0.67458 0.30219 0.66146 0.0
C1743 C 0.65215 0.30974 0.6669 0.0
C1744 C 0.69459 0.30267 0.68259 0.0
C1745 C 0.65045 0.31808 0.6943 0.0
C1746 C 0.67023 0.31831 0.71555 0.0
C1747 C 0.71255 0.3101 0.73121 0.0
C1748 C 0.73488 0.30241 0.72498 0.0
C1749 C 0.69248 0.31047 0.71005 0.0
C1750 C 0.73639 0.29525 0.69723 0.0
C1751 C 0.71666 0.29523 0.67654 0.0
H1752 H 0.97784 0.37482 0.97999 0.0
H1753 H 0.05234 0.36373 0.00707 0.0
H1754 H 0.06872 0.41095 0.02276 0.0
H1755 H 0.06217 0.45653 0.02684 0.0
H1756 H 0.98623 0.46539 0.00133 0.0
H1757 H 0.97051 0.41858 0.98713 0.0
C1758 C 0.99764 0.38258 0.98961 0.0
C1759 C 0.01372 0.36537 0.99219 0.0
C1760 C 1.00686 0.40978 -0.00126 0.0
C1761 C 0.0393 0.37616 0.00492 0.0
C1762 C 0.04876 0.40335 0.01371 0.0
C1763 C 0.04218 0.4482 0.01822 0.0
C1764 C 0.02553 0.465 0.01521 0.0
C1765 C 0.03283 0.42056 0.01039 0.0
C1766 C 0.99962 0.45341 0.00418 0.0
C1767 C 0.99051 0.42643 0.99592 0.0
H1768 H 0.02791 0.7997 0.18093 0.0
H1769 H 0.97686 0.79022 0.10544 0.0
H1770 H 0.93987 0.78268 0.12964 0.0
H1771 H 0.92162 0.77956 0.17257 0.0
H1772 H 0.97263 0.78874 0.24795 0.0
H1773 H 0.00963 0.79559 0.22363 0.0
C1774 C 0.00871 0.79593 0.16973 0.0
C1775 C 1.00539 0.79576 0.14132 0.0
C1776 C 0.98731 0.79163 0.18385 0.0
C1777 C 0.98021 0.79072 0.12729 0.0
C1778 C 0.95892 0.78639 0.14114 0.0
C1779 C 0.94085 0.78317 0.18368 0.0
C1780 C 0.94422 0.78359 0.21213 0.0
C1781 C 0.9622 0.78702 0.16948 0.0
C1782 C 0.96933 0.78801 0.22606 0.0
C1783 C 0.99058 0.79205 0.21216 0.0
H1784 H 0.58639 0.34492 0.18194 0.0
H1785 H 0.50736 0.3061 0.15002 0.0
H1786 H 0.50604 0.33878 0.11976 0.0
H1787 H 0.52757 0.3786 0.10202 0.0
H1788 H 0.60684 0.41648 0.13403 0.0
H1789 H 0.60776 0.38406 0.16431 0.0
C1790 C 0.56883 0.34352 0.16838 0.0
C1791 C 0.547 0.32295 0.1684 0.0
C1792 C 0.56824 0.36232 0.1509 0.0
C1793 C 0.5245 0.32158 0.15049 0.0
C1794 C 0.52372 0.34035 0.13318 0.0
C1795 C 0.54499 0.37985 0.11575 0.0
C1796 C 0.56716 0.40003 0.11551 0.0
C1797 C 0.54547 0.36087 0.13318 0.0
C1798 C 0.58959 0.40107 0.13336 0.0
C1799 C 0.59012 0.38255 0.15084 0.0
H1800 H 0.96195 0.3548 0.34113 0.0
H1801 H 0.96754 0.27606 0.31958 0.0
H1802 H 0.92094 0.26198 0.30368 0.0
H1803 H 0.87734 0.27183 0.29833 0.0
H1804 H 0.87389 0.35184 0.31646 0.0
H1805 H 0.92022 0.36536 0.33108 0.0
C1806 C 0.95313 0.33458 0.33254 0.0
C1807 C 0.96867 0.31663 0.33163 0.0
C1808 C 0.92628 0.32671 0.32299 0.0
C1809 C 0.9565 0.29051 0.32035 0.0
C1810 C 0.92963 0.28239 0.31145 0.0
C1811 C 0.88676 0.29225 0.30527 0.0
C1812 C 0.87164 0.31073 0.3063 0.0
C1813 C 0.9141 0.30023 0.31304 0.0
C1814 C 0.88461 0.33711 0.31519 0.0
C1815 C 0.91129 0.34491 0.3237 0.0
H1816 H 0.02556 0.69545 0.6148 0.0
H1817 H 0.02455 0.66607 0.69133 0.0
H1818 H 0.02727 0.62347 0.6688 0.0
H1819 H 0.03039 0.59416 0.62641 0.0
H1820 H 0.0301 0.62556 0.55067 0.0
H1821 H 0.02761 0.66711 0.57374 0.0
C1822 C 0.02585 0.67979 0.62671 0.0
C1823 C 0.02483 0.68427 0.65487 0.0
C1824 C 0.02729 0.65535 0.6136 0.0
C1825 C 0.02517 0.6634 0.66964 0.0
C1826 C 0.02683 0.63895 0.65671 0.0
C1827 C 0.02981 0.61011 0.61501 0.0
C1828 C 0.03035 0.60624 0.58654 0.0
C1829 C 0.02801 0.6346 0.62857 0.0
C1830 C 0.02946 0.6274 0.57236 0.0
C1831 C 0.02809 0.65146 0.58559 0.0
H1832 H 0.65725 0.83291 0.86954 0.0
H1833 H 0.60934 0.81117 0.79126 0.0
H1834 H 0.64628 0.80308 0.77024 0.0
H1835 H 0.69337 0.80153 0.77431 0.0
H1836 H 0.73966 0.82561 0.85368 0.0
H1837 H 0.7027 0.83295 0.8734 0.0
C1838 C 0.65459 0.82647 0.84778 0.0
C1839 C 0.62988 0.82274 0.83232 0.0
C1840 C 0.67609 0.82202 0.83577 0.0
C1841 C 0.62769 0.81444 0.80405 0.0
C1842 C 0.64903 0.80967 0.79196 0.0
C1843 C 0.69542 0.80838 0.79592 0.0
C1844 C 0.72005 0.81294 0.81223 0.0
C1845 C 0.67352 0.81324 0.80759 0.0
C1846 C 0.72162 0.82201 0.84021 0.0
C1847 C 0.70023 0.82623 0.85172 0.0
H1848 H 0.45872 0.53477 0.68568 0.0
H1849 H 0.53675 0.54612 0.72482 0.0
H1850 H 0.55226 0.55093 0.68154 0.0
H1851 H 0.54413 0.55125 0.6327 0.0
H1852 H 0.46658 0.53924 0.59215 0.0
H1853 H 0.45057 0.53557 0.6358 0.0
C1854 C 0.47912 0.53835 0.68475 0.0
C1855 C 0.49648 0.54004 0.7087 0.0
C1856 C 0.48807 0.54105 0.65951 0.0
C1857 C 0.52285 0.54468 0.70693 0.0
C1858 C 0.53181 0.54746 0.6821 0.0
C1859 C 0.52369 0.54799 0.63325 0.0
C1860 C 0.50664 0.54561 0.60897 0.0
C1861 C 0.51463 0.54562 0.65829 0.0
C1862 C 0.48022 0.54121 0.61039 0.0
C1863 C 0.47104 0.53905 0.63539 0.0
H1864 H 0.79716 0.18889 0.00545 0.0
H1865 H 0.73157 0.21019 0.03391 0.0
H1866 H 0.73198 0.24052 0.00106 0.0
H1867 H 0.74856 0.25806 0.96198 0.0
H1868 H 0.81334 0.23611 0.93257 0.0
H1869 H 0.81586 0.20903 0.96848 0.0
C1870 C 0.78295 0.20017 0.0045 0.0
C1871 C 0.76409 0.19702 0.02177 0.0
C1872 C 0.7832 0.21744 0.98553 0.0
C1873 C 0.74604 0.212 0.02054 0.0
C1874 C 0.74632 0.22942 0.00187 0.0
C1875 C 0.76362 0.24786 0.96386 0.0
C1876 C 0.78062 0.24888 0.94469 0.0
C1877 C 0.76454 0.23195 0.98401 0.0
C1878 C 0.79987 0.23533 0.94704 0.0
C1879 C 0.80127 0.21983 0.96745 0.0
H1880 H 0.14303 0.53959 0.17328 0.0
H1881 H 0.10114 0.57998 0.22423 0.0
H1882 H 0.06985 0.57919 0.18467 0.0
H1883 H 0.05435 0.56668 0.13585 0.0
H1884 H 0.09714 0.52765 0.08506 0.0
H1885 H 0.12858 0.52856 0.12442 0.0
C1886 C 0.12687 0.54789 0.17583 0.0
C1887 C 0.12403 0.55938 0.20161 0.0
C1888 C 0.10932 0.54773 0.15312 0.0
C1889 C 0.10342 0.57069 0.20454 0.0
C1890 C 0.08563 0.57035 0.182 0.0
C1891 C 0.07039 0.55808 0.1337 0.0
C1892 C 0.07339 0.54661 0.1082 0.0
C1893 C 0.08833 0.55879 0.15629 0.0
C1894 C 0.09461 0.53639 0.1049 0.0
C1895 C 0.11247 0.53683 0.12729 0.0
H1896 H 0.84896 0.85148 0.46272 0.0
H1897 H 0.76851 0.83358 0.4708 0.0
H1898 H 0.75728 0.81561 0.42233 0.0
H1899 H 0.77031 0.80728 0.37692 0.0
H1900 H 0.85103 0.82554 0.36965 0.0
H1901 H 0.86198 0.84105 0.41837 0.0
C1902 C 0.82894 0.84344 0.45402 0.0
C1903 C 0.80964 0.84403 0.47053 0.0
C1904 C 0.82261 0.83335 0.4261 0.0
C1905 C 0.78382 0.8334 0.45872 0.0
C1906 C 0.77736 0.82321 0.43091 0.0
C1907 C 0.79031 0.8145 0.38599 0.0
C1908 C 0.80977 0.81527 0.36939 0.0
C1909 C 0.79659 0.82346 0.41427 0.0
C1910 C 0.83558 0.82462 0.38171 0.0
C1911 C 0.84191 0.83357 0.40967 0.0
H1912 H 0.49332 0.48832 0.8594 0.0
H1913 H 0.49766 0.56902 0.8527 0.0
H1914 H 0.51599 0.58165 0.90089 0.0
H1915 H 0.528 0.56931 0.94587 0.0
H1916 H 0.52358 0.48832 0.95171 0.0
H1917 H 0.50822 0.47647 0.90312 0.0
C1918 C 0.49851 0.50873 0.86836 0.0
C1919 C 0.49393 0.52763 0.85238 0.0
C1920 C 0.50892 0.51585 0.89611 0.0
C1921 C 0.50099 0.55401 0.86441 0.0
C1922 C 0.51136 0.56125 0.89206 0.0
C1923 C 0.52393 0.5491 0.93649 0.0
C1924 C 0.52685 0.52977 0.9527 0.0
C1925 C 0.51499 0.54228 0.90827 0.0
C1926 C 0.5215 0.50369 0.93999 0.0
C1927 C 0.51264 0.49682 0.91209 0.0
H1928 H 0.78858 0.23647 0.11975 0.0
H1929 H 0.82723 0.18458 0.15725 0.0
H1930 H 0.82442 0.2058 0.20227 0.0
H1931 H 0.81006 0.23739 0.23018 0.0
H1932 H 0.7701 0.28923 0.19436 0.0
H1933 H 0.774 0.26919 0.14876 0.0
C1934 C 0.79695 0.23036 0.13785 0.0
C1935 C 0.80853 0.20945 0.13551 0.0
C1936 C 0.79468 0.2422 0.16358 0.0
C1937 C 0.81857 0.20093 0.15885 0.0
C1938 C 0.81681 0.21287 0.18445 0.0
C1939 C 0.80227 0.2446 0.21253 0.0
C1940 C 0.79008 0.26496 0.21555 0.0
C1941 C 0.80469 0.23326 0.18693 0.0
C1942 C 0.7798 0.27369 0.19242 0.0
C1943 C 0.78208 0.26232 0.16647 0.0
H1944 H 0.1399 0.60513 0.30306 0.0
H1945 H 0.20239 0.58286 0.34711 0.0
H1946 H 0.18207 0.58448 0.38846 0.0
H1947 H 0.14592 0.59139 0.41144 0.0
H1948 H 0.08148 0.60932 0.3654 0.0
H1949 H 0.10314 0.61032 0.32542 0.0
C1950 C 0.14912 0.60098 0.32189 0.0
C1951 C 0.17267 0.59441 0.32254 0.0
C1952 C 0.13693 0.60106 0.34506 0.0
C1953 C 0.1843 0.58826 0.34655 0.0
C1954 C 0.17268 0.58911 0.37004 0.0
C1955 C 0.13659 0.59541 0.39263 0.0
C1956 C 0.11227 0.60065 0.39156 0.0
C1957 C 0.14887 0.59531 0.36945 0.0
C1958 C 0.10048 0.60593 0.36703 0.0
C1959 C 0.11275 0.6063 0.34407 0.0
H1960 H 0.80175 0.87802 0.6387 0.0
H1961 H 0.79074 0.79855 0.60021 0.0
H1962 H 0.786 0.78321 0.64366 0.0
H1963 H 0.78498 0.79178 0.69236 0.0
H1964 H 0.79591 0.87066 0.73232 0.0
H1965 H 0.80033 0.88663 0.68861 0.0
C1966 C 0.7984 0.85736 0.63985 0.0
C1967 C 0.79666 0.83952 0.61597 0.0
C1968 C 0.79546 0.84847 0.66519 0.0
C1969 C 0.79215 0.81281 0.61801 0.0
C1970 C 0.78939 0.80395 0.64294 0.0
C1971 C 0.78819 0.81252 0.69171 0.0
C1972 C 0.79002 0.82993 0.71587 0.0
C1973 C 0.79094 0.82154 0.66662 0.0
C1974 C 0.79432 0.85672 0.71422 0.0
C1975 C 0.79694 0.86587 0.68917 0.0
H1976 H 0.75404 0.49483 0.53612 0.0
H1977 H 0.69115 0.42895 0.49976 0.0
H1978 H 0.66111 0.44979 0.52136 0.0
H1979 H 0.65305 0.48868 0.54697 0.0
H1980 H 0.71666 0.55477 0.58075 0.0
H1981 H 0.74671 0.53106 0.56477 0.0
C1982 C 0.73372 0.485 0.5327 0.0
C1983 C 0.72451 0.46082 0.5158 0.0
C1984 C 0.71701 0.49683 0.5452 0.0
C1985 C 0.69839 0.44786 0.51235 0.0
C1986 C 0.68138 0.45966 0.52479 0.0
C1987 C 0.67356 0.49762 0.55117 0.0
C1988 C 0.6828 0.52348 0.56451 0.0
C1989 C 0.69051 0.48438 0.54082 0.0
C1990 C 0.70927 0.53484 0.57056 0.0
C1991 C 0.72635 0.52148 0.56108 0.0
H1992 H 0.18112 0.16209 0.50754 0.0
H1993 H 0.22062 0.12781 0.56764 0.0
H1994 H 0.18125 0.09488 0.56842 0.0
H1995 H 0.13512 0.07597 0.55321 0.0
H1996 H 0.09402 0.11194 0.49658 0.0
H1997 H 0.13412 0.14348 0.49289 0.0
C1998 C 0.18109 0.14735 0.52069 0.0
C1999 C 0.20398 0.1475 0.53742 0.0
C2000 C 0.15799 0.12852 0.52154 0.0
C2001 C 0.20342 0.12833 0.55455 0.0
C2002 C 0.18085 0.10934 0.55499 0.0
C2003 C 0.13508 0.09052 0.53981 0.0
C2004 C 0.1118 0.09145 0.52492 0.0
C2005 C 0.15801 0.10922 0.53868 0.0
C2006 C 0.11181 0.11079 0.50812 0.0
C2007 C 0.13473 0.12888 0.50608 0.0
H2008 H 0.16274 0.98617 0.74305 0.0
H2009 H 0.18129 0.01423 0.82938 0.0
H2010 H 0.20712 0.98301 0.83493 0.0
H2011 H 0.22644 0.94959 0.81508 0.0
H2012 H 0.21048 0.92309 0.72858 0.0
H2013 H 0.18147 0.95171 0.72319 0.0
C2014 C 0.17234 0.98533 0.76308 0.0
C2015 C 0.17027 0.0026 0.78574 0.0
C2016 C 0.18763 0.96767 0.76606 0.0
C2017 C 0.18284 0.00135 0.81156 0.0
C2018 C 0.19754 0.98346 0.81479 0.0
C2019 C 0.21629 0.94986 0.79513 0.0
C2020 C 0.22042 0.93435 0.77228 0.0
C2021 C 0.20033 0.96679 0.79216 0.0
C2022 C 0.20756 0.93504 0.74642 0.0
C2023 C 0.19105 0.95137 0.74336 0.0
H2024 H 0.37517 0.0067 0.01827 0.0
H2025 H 0.38856 0.94115 0.05549 0.0
H2026 H 0.43478 0.95863 0.05851 0.0
H2027 H 0.47034 0.98944 0.04595 0.0
H2028 H 0.4578 0.05474 0.00785 0.0
H2029 H 0.41167 0.04031 0.00981 0.0
C2030 C 0.38825 0.99642 0.02731 0.0
C2031 C 0.37868 0.97251 0.03618 0.0
C2032 C 0.41463 0.00625 0.02844 0.0
C2033 C 0.39562 0.95956 0.04841 0.0
C2034 C 0.42196 0.96941 0.04996 0.0
C2035 C 0.45756 0.00053 0.03796 0.0
C2036 C 0.4671 0.0226 0.02599 0.0
C2037 C 0.4315 0.99219 0.03917 0.0
C2038 C 0.45058 0.03734 0.01664 0.0
C2039 C 0.42436 0.02916 0.01783 0.0
H2040 H 0.89478 0.62973 0.80138 0.0
H2041 H 0.83627 0.55721 0.7797 0.0
H2042 H 0.80584 0.57982 0.76066 0.0
H2043 H 0.7947 0.6206 0.75437 0.0
H2044 H 0.85146 0.69372 0.7801 0.0
H2045 H 0.88402 0.67069 0.79313 0.0
C2046 C 0.87549 0.61903 0.79205 0.0
C2047 C 0.86753 0.59215 0.7919 0.0
C2048 C 0.85787 0.63224 0.78199 0.0
C2049 C 0.84251 0.57813 0.78015 0.0
C2050 C 0.82518 0.59095 0.76924 0.0
C2051 C 0.81438 0.63129 0.76225 0.0
C2052 C 0.82102 0.65848 0.76624 0.0
C2053 C 0.83248 0.61804 0.77062 0.0
C2054 C 0.84628 0.67257 0.77689 0.0
C2055 C 0.86475 0.65949 0.7844 0.0
H2056 H 0.82494 0.65327 0.05252 0.0
H2057 H 0.87595 0.71212 0.01864 0.0
H2058 H 0.90904 0.6881 0.02262 0.0
H2059 H 0.92269 0.64919 0.03359 0.0
H2060 H 0.87123 0.59031 0.06702 0.0
H2061 H 0.83942 0.6158 0.06584 0.0
C2062 C 0.84332 0.6609 0.04606 0.0
C2063 C 0.84781 0.6843 0.03498 0.0
C2064 C 0.86224 0.64699 0.04837 0.0
C2065 C 0.8719 0.69409 0.02712 0.0
C2066 C 0.89084 0.68034 0.02933 0.0
C2067 C 0.90448 0.6419 0.04052 0.0
C2068 C 0.89934 0.61775 0.05017 0.0
C2069 C 0.88607 0.65655 0.03952 0.0
C2070 C 0.87584 0.60889 0.05966 0.0
C2071 C 0.85751 0.62337 0.05882 0.0
H2072 H 0.20729 0.13751 0.80646 0.0
H2073 H 0.14095 0.16671 0.78519 0.0
H2074 H 0.16875 0.20917 0.78252 0.0
H2075 H 0.21173 0.23818 0.78608 0.0
H2076 H 0.27842 0.20913 0.80512 0.0
H2077 H 0.25071 0.16658 0.80908 0.0
C2078 C 0.19893 0.15319 0.80134 0.0
C2079 C 0.17202 0.14891 0.79626 0.0
C2080 C 0.21509 0.17764 0.79954 0.0
C2081 C 0.16154 0.16943 0.78942 0.0
C2082 C 0.17743 0.19377 0.78785 0.0
C2083 C 0.2202 0.22256 0.79123 0.0
C2084 C 0.24705 0.22678 0.79545 0.0
C2085 C 0.20419 0.19811 0.79292 0.0
C2086 C 0.25777 0.20628 0.80168 0.0
C2087 C 0.24194 0.18199 0.80399 0.0
H2088 H 0.32021 0.96279 0.32832 0.0
H2089 H 0.33637 0.96368 0.2459 0.0
H2090 H 0.32403 0.91615 0.23739 0.0
H2091 H 0.31487 0.87526 0.2553 0.0
H2092 H 0.301 0.87389 0.33854 0.0
H2093 H 0.30643 0.92111 0.34491 0.0
C2094 C 0.32026 0.9525 0.30827 0.0
C2095 C 0.32928 0.9665 0.28782 0.0
C2096 C 0.31418 0.92531 0.30391 0.0
C2097 C 0.32923 0.95323 0.26186 0.0
C2098 C 0.32257 0.92609 0.25712 0.0
C2099 C 0.31282 0.88517 0.27483 0.0
C2100 C 0.30803 0.87126 0.29659 0.0
C2101 C 0.31608 0.91207 0.27835 0.0
C2102 C 0.30512 0.88433 0.32162 0.0
C2103 C 0.30807 0.91123 0.32523 0.0
H2104 H 0.58531 0.40465 0.60284 0.0
H2105 H 0.5434 0.35807 0.52761 0.0
H2106 H 0.53262 0.39626 0.51246 0.0
H2107 H 0.53435 0.44369 0.51957 0.0
H2108 H 0.57943 0.49186 0.59221 0.0
H2109 H 0.58909 0.45328 0.60884 0.0
C2110 C 0.5737 0.40273 0.58319 0.0
C2111 C 0.56513 0.37763 0.56675 0.0
C2112 C 0.56791 0.42556 0.57382 0.0
C2113 C 0.55044 0.37649 0.54112 0.0
C2114 C 0.54412 0.3986 0.53225 0.0
C2115 C 0.54637 0.44588 0.53904 0.0
C2116 C 0.556 0.47124 0.55445 0.0
C2117 C 0.55266 0.42336 0.54827 0.0
C2118 C 0.57175 0.47304 0.57955 0.0
C2119 C 0.57727 0.45073 0.58921 0.0
H2120 H 0.44847 0.78966 0.38943 0.0
H2121 H 0.39811 0.75888 0.445 0.0
H2122 H 0.36088 0.76126 0.41384 0.0
H2123 H 0.34204 0.77249 0.37069 0.0
H2124 H 0.39254 0.80427 0.31562 0.0
H2125 H 0.42964 0.80113 0.3464 0.0
C2126 C 0.42936 0.78334 0.3947 0.0
C2127 C 0.4264 0.77402 0.41975 0.0
C2128 C 0.40775 0.78504 0.37666 0.0
C2129 C 0.40128 0.76615 0.42605 0.0
C2130 C 0.37982 0.76752 0.40815 0.0
C2131 C 0.36114 0.77876 0.36536 0.0
C2132 C 0.36414 0.78865 0.34058 0.0
C2133 C 0.38274 0.77703 0.3834 0.0
C2134 C 0.38929 0.79665 0.33438 0.0
C2135 C 0.41069 0.79482 0.35205 0.0
H2136 H 0.03583 0.71587 0.04668 0.0
H2137 H 0.10937 0.73973 0.09815 0.0
H2138 H 0.11435 0.69507 0.0896 0.0
H2139 H 0.09598 0.64755 0.07008 0.0
H2140 H 0.02205 0.62503 0.01926 0.0
H2141 H 0.01938 0.67026 0.02459 0.0
C2142 C 0.05316 0.71151 0.05585 0.0
C2143 C 0.07212 0.73154 0.07321 0.0
C2144 C 0.05584 0.6856 0.05094 0.0
C2145 C 0.09442 0.72507 0.08462 0.0
C2146 C 0.09722 0.69932 0.07983 0.0
C2147 C 0.07954 0.65266 0.05979 0.0
C2148 C 0.05921 0.6326 0.04416 0.0
C2149 C 0.07785 0.67916 0.06337 0.0
C2150 C 0.03795 0.63981 0.03137 0.0
C2151 C 0.03635 0.6658 0.0345 0.0
H2152 H 0.08846 0.25724 0.91993 0.0
H2153 H 0.06307 0.32743 0.91502 0.0
H2154 H 0.0967 0.34297 0.88771 0.0
H2155 H 0.13344 0.33644 0.86504 0.0
H2156 H 0.15619 0.26437 0.86759 0.0
H2157 H 0.12383 0.25006 0.89609 0.0
C2158 C 0.09024 0.27593 0.91284 0.0
C2159 C 0.07318 0.29107 0.91944 0.0
C2160 C 0.10931 0.28451 0.89674 0.0
C2161 C 0.07574 0.31521 0.90998 0.0
C2162 C 0.09505 0.32416 0.89444 0.0
C2163 C 0.13122 0.31749 0.87158 0.0
C2164 C 0.14773 0.30177 0.86424 0.0
C2165 C 0.11192 0.30891 0.88756 0.0
C2166 C 0.14447 0.27736 0.87333 0.0
C2167 C 0.1257 0.26895 0.8895 0.0
H2168 H 0.53481 0.79104 0.95474 0.0
H2169 H 0.54908 0.75087 0.88034 0.0
H2170 H 0.54283 0.71027 0.89976 0.0
H2171 H 0.53277 0.68583 0.93801 0.0
H2172 H 0.51884 0.72678 0.0122 0.0
H2173 H 0.52535 0.76708 0.99269 0.0
C2174 C 0.53666 0.77346 0.94274 0.0
C2175 C 0.54253 0.77419 0.91611 0.0
C2176 C 0.533 0.75013 0.95401 0.0
C2177 C 0.54474 0.75106 0.90094 0.0
C2178 C 0.54111 0.72775 0.91203 0.0
C2179 C 0.53135 0.70362 0.94997 0.0
C2180 C 0.5251 0.70306 0.97656 0.0
C2181 C 0.53521 0.72701 0.93859 0.0
C2182 C 0.52315 0.72636 0.99158 0.0
C2183 C 0.52704 0.74955 0.98048 0.0
H2184 H 0.12144 0.79655 0.73772 0.0
H2185 H 0.10062 0.71944 0.75912 0.0
H2186 H 0.14585 0.72242 0.77552 0.0
H2187 H 0.19244 0.74599 0.78111 0.0
H2188 H 0.21244 0.82325 0.75895 0.0
H2189 H 0.16735 0.82106 0.74595 0.0
C2190 C 0.12669 0.78073 0.74681 0.0
C2191 C 0.10721 0.75811 0.74798 0.0
C2192 C 0.15309 0.78238 0.75573 0.0
C2193 C 0.11485 0.73743 0.75874 0.0
C2194 C 0.14091 0.73901 0.76783 0.0
C2195 C 0.18704 0.76245 0.77357 0.0
C2196 C 0.20661 0.78471 0.77102 0.0
C2197 C 0.16042 0.76123 0.766 0.0
C2198 C 0.1985 0.80568 0.7612 0.0
C2199 C 0.1724 0.80453 0.75369 0.0
H2200 H 0.05547 0.43134 0.38951 0.0
H2201 H 0.05401 0.37259 0.4418 0.0
H2202 H 0.05204 0.4042 0.48086 0.0
H2203 H 0.04994 0.44912 0.50034 0.0
H2204 H 0.05384 0.5075 0.44709 0.0
H2205 H 0.05555 0.47574 0.40884 0.0
C2206 C 0.05487 0.42538 0.40945 0.0
C2207 C 0.05493 0.39943 0.41246 0.0
C2208 C 0.05406 0.44379 0.43194 0.0
C2209 C 0.05421 0.39237 0.43868 0.0
C2210 C 0.05294 0.41049 0.46111 0.0
C2211 C 0.05121 0.45488 0.48039 0.0
C2212 C 0.05174 0.48097 0.47694 0.0
C2213 C 0.05273 0.43634 0.45804 0.0
C2214 C 0.05356 0.48784 0.45076 0.0
C2215 C 0.05448 0.46958 0.42864 0.0
H2216 H 0.41972 0.22341 0.22915 0.0
H2217 H 0.47252 0.29849 0.25792 0.0
H2218 H 0.43774 0.31455 0.27571 0.0
H2219 H 0.391 0.30782 0.28177 0.0
H2220 H 0.33949 0.23171 0.2535 0.0
H2221 H 0.37461 0.21598 0.23745 0.0
C2222 C 0.42389 0.2433 0.23948 0.0
C2223 C 0.4493 0.25953 0.24192 0.0
C2224 C 0.4036 0.25246 0.24986 0.0
C2225 C 0.45363 0.28522 0.25564 0.0
C2226 C 0.43349 0.29452 0.26578 0.0
C2227 C 0.38737 0.28773 0.27223 0.0
C2228 C 0.36186 0.27124 0.26891 0.0
C2229 C 0.40818 0.27843 0.26283 0.0
C2230 C 0.3583 0.24523 0.25642 0.0
C2231 C 0.37861 0.23608 0.24711 0.0
H2232 H 0.55983 0.52545 0.35871 0.0
H2233 H 0.63333 0.58059 0.386 0.0
H2234 H 0.62617 0.5802 0.43332 0.0
H2235 H 0.59886 0.56417 0.46738 0.0
H2236 H 0.52607 0.50793 0.43948 0.0
H2237 H 0.53317 0.50889 0.39241 0.0
C2238 C 0.57431 0.53745 0.37495 0.0
C2239 C 0.59709 0.55306 0.36857 0.0
C2240 C 0.57024 0.53688 0.40225 0.0
C2241 C 0.61558 0.56839 0.39011 0.0
C2242 C 0.61152 0.56816 0.41728 0.0
C2243 C 0.58466 0.55198 0.451 0.0
C2244 C 0.56206 0.53583 0.4572 0.0
C2245 C 0.58893 0.55243 0.42367 0.0
C2246 C 0.54385 0.52026 0.43557 0.0
C2247 C 0.54779 0.5209 0.4085 0.0
H2248 H 0.28848 0.84772 0.02671 0.0
H2249 H 0.29501 0.9231 0.07348 0.0
H2250 H 0.3039 0.90619 0.11545 0.0
H2251 H 0.3133 0.87141 0.1388 0.0
H2252 H 0.30555 0.79531 0.09341 0.0
H2253 H 0.29381 0.81119 0.051 0.0
C2254 C 0.29144 0.8603 0.04611 0.0
C2255 C 0.29128 0.88667 0.04683 0.0
C2256 C 0.29664 0.85047 0.07043 0.0
C2257 C 0.29501 0.9027 0.07219 0.0
C2258 C 0.30026 0.89312 0.0963 0.0
C2259 C 0.30858 0.8581 0.11973 0.0
C2260 C 0.31051 0.83229 0.11925 0.0
C2261 C 0.30163 0.86723 0.09562 0.0
C2262 C 0.30471 0.81545 0.09426 0.0
C2263 C 0.29783 0.82446 0.07004 0.0
H2264 H 0.9408 0.49145 0.88928 0.0
H2265 H 0.91163 0.55598 0.9199 0.0
H2266 H 0.94704 0.5692 0.95768 0.0
H2267 H 0.98858 0.56573 0.97793 0.0
H2268 H 0.01987 0.50299 0.94652 0.0
H2269 H 0.98138 0.48584 0.91229 0.0
C2270 C 0.94189 0.50788 0.9048 0.0
C2271 C 0.92397 0.52286 0.90221 0.0
C2272 C 0.96289 0.51602 0.92557 0.0
C2273 C 0.92545 0.54434 0.92186 0.0
C2274 C 0.9457 0.55196 0.94322 0.0
C2275 C 0.98686 0.54812 0.96379 0.0
C2276 C 1.00686 0.53569 0.96435 0.0
C2277 C 0.96497 0.53855 0.94456 0.0
C2278 C 1.00468 0.51304 0.94594 0.0
C2279 C 0.98267 0.50314 0.92666 0.0
H2280 H 0.24315 0.26875 0.60281 0.0
H2281 H 0.30922 0.23666 0.60381 0.0
H2282 H 0.32042 0.25088 0.65279 0.0
H2283 H 0.31013 0.27006 0.69589 0.0
H2284 H 0.24347 0.30111 0.69522 0.0
H2285 H 0.23405 0.28986 0.64571 0.0
C2286 C 0.26014 0.26507 0.61367 0.0
C2287 C 0.27518 0.25149 0.59953 0.0
C2288 C 0.26635 0.27302 0.64202 0.0
C2289 C 0.2972 0.24702 0.61405 0.0
C2290 C 0.30362 0.25509 0.64215 0.0
C2291 C 0.29365 0.27458 0.68492 0.0
C2292 C 0.27745 0.28626 0.69937 0.0
C2293 C 0.28812 0.26773 0.65643 0.0
C2294 C 0.25613 0.29187 0.68473 0.0
C2295 C 0.25074 0.28548 0.65636 0.0
H2296 H 0.55362 0.52327 0.21108 0.0
H2297 H 0.60848 0.5985 0.22792 0.0
H2298 H 0.59576 0.60685 0.18207 0.0
H2299 H 0.57257 0.59066 0.13523 0.0
H2300 H 0.5185 0.51526 0.11824 0.0
H2301 H 0.52715 0.50917 0.16587 0.0
C2302 C 0.56256 0.54166 0.20491 0.0
C2303 C 0.58227 0.56004 0.22299 0.0
C2304 C 0.55529 0.5463 0.1783 0.0
C2305 C 0.59347 0.58382 0.21449 0.0
C2306 C 0.58622 0.58864 0.18818 0.0
C2307 C 0.5621 0.57334 0.14229 0.0
C2308 C 0.54452 0.55366 0.12353 0.0
C2309 C 0.56761 0.56977 0.16966 0.0
C2310 C 0.53163 0.53091 0.13257 0.0
C2311 C 0.5368 0.52732 0.15973 0.0
H2312 H 0.32237 0.87413 0.95008 0.0
H2313 H 0.29638 0.92753 0.9023 0.0
H2314 H 0.2828 0.89317 0.86246 0.0
H2315 H 0.27653 0.84715 0.84256 0.0
H2316 H 0.30314 0.79444 0.89063 0.0
H2317 H 0.31622 0.8287 0.9302 0.0
C2318 C 0.31418 0.87825 0.93074 0.0
C2319 C 0.31075 0.90309 0.92856 0.0
C2320 C 0.30573 0.85837 0.90856 0.0
C2321 C 0.29936 0.90837 0.90395 0.0
C2322 C 0.29143 0.88877 0.88141 0.0
C2323 C 0.2862 0.84371 0.86139 0.0
C2324 C 0.29028 0.81911 0.8635 0.0
C2325 C 0.29436 0.86366 0.88362 0.0
C2326 C 0.3004 0.81362 0.88859 0.0
C2327 C 0.30807 0.83317 0.91106 0.0
H2328 H 0.91613 0.52184 0.74863 0.0
H2329 H 0.95893 0.47857 0.7947 0.0
H2330 H 0.97999 0.46881 0.75535 0.0
H2331 H 0.98835 0.47553 0.709 0.0
H2332 H 0.94342 0.51686 0.66254 0.0
H2333 H 0.92096 0.52437 0.70098 0.0
C2334 C 0.93019 0.51041 0.75009 0.0
C2335 C 0.9366 0.50156 0.77464 0.0
C2336 C 0.9418 0.50456 0.72738 0.0
C2337 C 0.95409 0.48595 0.77605 0.0
C2338 C 0.96606 0.48035 0.75359 0.0
C2339 C 0.97333 0.48576 0.70709 0.0
C2340 C 0.96801 0.49614 0.68311 0.0
C2341 C 0.96035 0.48992 0.72927 0.0
C2342 C 0.94843 0.50933 0.68103 0.0
C2343 C 0.9355 0.51356 0.70296 0.0
H2344 H 0.30529 0.2431 0.45422 0.0
H2345 H 0.22732 0.25082 0.44546 0.0
H2346 H 0.23213 0.26613 0.40202 0.0
H2347 H 0.25717 0.27481 0.36503 0.0
H2348 H 0.33581 0.26997 0.37352 0.0
H2349 H 0.33215 0.25618 0.41846 0.0
C2350 C 0.28941 0.24825 0.44285 0.0
C2351 C 0.2658 0.24536 0.45307 0.0
C2352 C 0.29237 0.2574 0.41772 0.0
C2353 C 0.24561 0.25257 0.43817 0.0
C2354 C 0.24831 0.26131 0.41321 0.0
C2355 C 0.27355 0.27079 0.37677 0.0
C2356 C 0.29658 0.27293 0.36585 0.0
C2357 C 0.27137 0.26335 0.40257 0.0
C2358 C 0.31784 0.26831 0.38149 0.0
C2359 C 0.31569 0.26035 0.40712 0.0
H2360 H 0.34329 0.62744 0.53085 0.0
H2361 H 0.36165 0.60761 0.61049 0.0
H2362 H 0.38404 0.57634 0.59132 0.0
H2363 H 0.39817 0.55523 0.55183 0.0
H2364 H 0.37898 0.57423 0.47199 0.0
H2365 H 0.35584 0.60487 0.49103 0.0
C2366 C 0.35261 0.61646 0.5439 0.0
C2367 C 0.35173 0.6199 0.57189 0.0
C2368 C 0.36434 0.59805 0.5326 0.0
C2369 C 0.36284 0.60531 0.5889 0.0
C2370 C 0.37527 0.58738 0.57793 0.0
C2371 C 0.38833 0.56571 0.53864 0.0
C2372 C 0.38968 0.56254 0.5107 0.0
C2373 C 0.3759 0.58351 0.54981 0.0
C2374 C 0.3775 0.57624 0.49351 0.0
C2375 C 0.36473 0.59392 0.50443 0.0
H2376 H 0.91289 0.92249 0.58107 0.0
H2377 H 0.8621 0.95428 0.52992 0.0
H2378 H 0.89863 0.98825 0.52246 0.0
H2379 H 0.94561 0.00843 0.52961 0.0
H2380 H 0.99547 0.97566 0.58108 0.0
H2381 H 0.95888 0.94293 0.5891 0.0
C2382 C 0.90973 0.93686 0.56834 0.0
C2383 C 0.88474 0.93569 0.55606 0.0
C2384 C 0.93079 0.95632 0.56408 0.0
C2385 C 0.88113 0.9546 0.53964 0.0
C2386 C 0.90204 0.97408 0.53533 0.0
C2387 C 0.94841 0.99424 0.5427 0.0
C2388 C 0.97342 0.99466 0.55458 0.0
C2389 C 0.92706 0.97509 0.54734 0.0
C2390 C 0.97659 0.97599 0.5715 0.0
C2391 C 0.95561 0.9571 0.57617 0.0
H2392 H 0.89842 0.08784 0.26331 0.0
H2393 H 0.9325 0.10869 0.34785 0.0
H2394 H 0.90624 0.13953 0.35479 0.0
H2395 H 0.87248 0.15969 0.33732 0.0
H2396 H 0.83969 0.1406 0.25246 0.0
H2397 H 0.86661 0.11024 0.2451 0.0
C2398 C 0.90007 0.09913 0.28324 0.0
C2399 C 0.91718 0.09569 0.30509 0.0
C2400 C 0.88511 0.11719 0.28704 0.0
C2401 C 0.91942 0.11083 0.33068 0.0
C2402 C 0.90436 0.12847 0.33471 0.0
C2403 C 0.87125 0.14883 0.31724 0.0
C2404 C 0.85394 0.15215 0.29554 0.0
C2405 C 0.88697 0.13163 0.31312 0.0
C2406 C 0.85288 0.13837 0.26949 0.0
C2407 C 0.86819 0.12094 0.2653 0.0
H2408 H 0.71504 0.08217 0.08312 0.0
H2409 H 0.70312 0.15944 0.09758 0.0
H2410 H 0.65682 0.14155 0.08546 0.0
H2411 H 0.62009 0.10425 0.06832 0.0
H2412 H 0.63109 0.0267 0.05569 0.0
H2413 H 0.67765 0.04422 0.06965 0.0
C2414 C 0.70217 0.09492 0.08402 0.0
C2415 C 0.7122 0.12193 0.09122 0.0
C2416 C 0.67564 0.0845 0.07717 0.0
C2417 C 0.69562 0.13849 0.09243 0.0
C2418 C 0.66924 0.12834 0.08527 0.0
C2419 C 0.63285 0.09135 0.06878 0.0
C2420 C 0.62288 0.06454 0.06086 0.0
C2421 C 0.65914 0.10148 0.07721 0.0
C2422 C 0.63893 0.04754 0.06161 0.0
C2423 C 0.66533 0.05752 0.06959 0.0
H2424 H 0.19558 0.4746 0.28374 0.0
H2425 H 0.25715 0.52763 0.25574 0.0
H2426 H 0.288 0.50575 0.27518 0.0
H2427 H 0.29721 0.47042 0.29854 0.0
H2428 H 0.23553 0.41628 0.32459 0.0
H2429 H 0.20495 0.44019 0.30817 0.0
C2430 C 0.21572 0.48129 0.2818 0.0
C2431 C 0.22404 0.50255 0.26829 0.0
C2432 C 0.23337 0.46876 0.29312 0.0
C2433 C 0.25021 0.51109 0.2659 0.0
C2434 C 0.26793 0.49877 0.2772 0.0
C2435 C 0.2772 0.46447 0.3013 0.0
C2436 C 0.26847 0.44213 0.31302 0.0
C2437 C 0.25971 0.47761 0.29086 0.0
C2438 C 0.24249 0.43385 0.31595 0.0
C2439 C 0.22504 0.44725 0.30629 0.0
H2440 H 0.21176 0.39101 0.0214 0.0
H2441 H 0.28156 0.45276 0.03276 0.0
H2442 H 0.25656 0.4846 0.02652 0.0
H2443 H 0.21496 0.49544 0.02009 0.0
H2444 H 0.14501 0.43433 0.01043 0.0
H2445 H 0.16992 0.40177 0.01362 0.0
C2446 C 0.22151 0.41141 0.02244 0.0
C2447 C 0.24854 0.41943 0.02774 0.0
C2448 C 0.20697 0.42979 0.01917 0.0
C2449 C 0.26081 0.446 0.02898 0.0
C2450 C 0.24652 0.46426 0.02533 0.0
C2451 C 0.20517 0.47495 0.0183 0.0
C2452 C 0.17819 0.46733 0.01509 0.0
C2453 C 0.21961 0.45645 0.0207 0.0
C2454 C 0.16578 0.44072 0.01316 0.0
C2455 C 0.18001 0.42211 0.01496 0.0
H2456 H 0.87813 0.96248 0.27819 0.0
H2457 H 0.93493 0.92608 0.24876 0.0
H2458 H 0.9067 0.88304 0.24866 0.0
H2459 H 0.86626 0.85561 0.25769 0.0
H2460 H 0.80941 0.89186 0.28731 0.0
H2461 H 0.83718 0.93493 0.2863 0.0
C2462 C 0.88433 0.94514 0.27171 0.0
C2463 C 0.90867 0.94759 0.26351 0.0
C2464 C 0.86794 0.92034 0.27163 0.0
C2465 C 0.9163 0.92485 0.2551 0.0
C2466 C 0.90016 0.90017 0.25505 0.0
C2467 C 0.8598 0.87289 0.26373 0.0
C2468 C 0.83572 0.87039 0.27257 0.0
C2469 C 0.87596 0.89767 0.26332 0.0
C2470 C 0.82784 0.89311 0.28047 0.0
C2471 C 0.84374 0.9178 0.27994 0.0
H2472 H 0.72493 0.12768 0.70858 0.0
H2473 H 0.7537 0.11256 0.78774 0.0
H2474 H 0.7641 0.15883 0.80549 0.0
H2475 H 0.76748 0.20333 0.79787 0.0
H2476 H 0.74188 0.21932 0.71822 0.0
H2477 H 0.72662 0.17255 0.70143 0.0
C2478 C 0.73405 0.13459 0.7295 0.0
C2479 C 0.73911 0.11696 0.74668 0.0
C2480 C 0.73993 0.16111 0.73959 0.0
C2481 C 0.75015 0.12599 0.77402 0.0
C2482 C 0.75578 0.15231 0.78429 0.0
C2483 C 0.7582 0.1965 0.77697 0.0
C2484 C 0.75621 0.21423 0.75904 0.0
C2485 C 0.75092 0.16998 0.7672 0.0
C2486 C 0.74395 0.20556 0.73209 0.0
C2487 C 0.73546 0.179 0.72248 0.0
loop_
_geom_bond_atom_site_label_1
_geom_bond_atom_site_label_2
_geom_bond_distance
_geom_bond_site_symmetry_2
_ccdc_geom_bond_type
C0 O1 1.160 . S
C0 O7 1.185 . S
O1 C0 1.160 . S
O2 Zn3 1.899 . S
O2 C10 1.284 . S
Zn3 O2 1.899 . S
Zn3 O4 2.032 . S
Zn3 O7 2.086 . S
Zn3 O12 1.977 . S
O4 Zn3 2.032 . S
O4 C8 1.278 . S
C5 O6 1.203 . S
C5 O12 1.267 1_655 S
O6 C5 1.203 . S
O7 C0 1.185 . S
O7 Zn3 2.086 . S
C8 O4 1.278 . S
C8 O9 1.211 . S
O9 C8 1.211 . S
C10 O2 1.284 . S
C10 O11 1.273 . S
O11 C10 1.273 . S
O12 Zn3 1.977 . S
O12 C5 1.267 1_455 S
C13 O14 1.160 . S
C13 O20 1.185 1_655 S
O14 C13 1.160 . S
O15 Zn16 1.899 . S
O15 C23 1.284 . S
Zn16 O15 1.899 . S
Zn16 O17 2.032 . S
Zn16 O20 2.086 . S
Zn16 O25 1.977 . S
O17 Zn16 2.032 . S
O17 C21 1.278 . S
C18 O19 1.203 . S
C18 O25 1.267 . S
O19 C18 1.203 . S
O20 C13 1.185 1_455 S
O20 Zn16 2.086 . S
C21 O17 1.278 . S
C21 O22 1.211 . S
O22 C21 1.211 . S
C23 O15 1.284 . S
C23 O24 1.273 . S
O24 C23 1.273 . S
O25 Zn16 1.977 . S
O25 C18 1.267 . S
C26 O27 1.160 . S
C26 O33 1.185 . S
O27 C26 1.160 . S
O28 Zn29 1.899 . S
O28 C36 1.284 . S
Zn29 O28 1.899 . S
Zn29 O30 2.032 . S
Zn29 O33 2.086 . S
Zn29 O38 1.977 . S
O30 Zn29 2.032 . S
O30 C34 1.278 . S
C31 O32 1.203 . S
C31 O38 1.267 . S
O32 C31 1.203 . S
O33 C26 1.185 . S
O33 Zn29 2.086 . S
C34 O30 1.278 . S
C34 O35 1.211 . S
O35 C34 1.211 . S
C36 O28 1.284 . S
C36 O37 1.273 . S
O37 C36 1.273 . S
O38 Zn29 1.977 . S
O38 C31 1.267 . S
C39 O40 1.160 . S
C39 O46 1.185 . S
O40 C39 1.160 . S
O41 Zn42 1.899 . S
O41 C49 1.284 . S
Zn42 O41 1.899 . S
Zn42 O43 2.032 . S
Zn42 O46 2.086 . S
Zn42 O51 1.977 . S
O43 Zn42 2.032 . S
O43 C47 1.278 . S
C44 O45 1.203 . S
C44 O51 1.267 . S
O45 C44 1.203 . S
O46 C39 1.185 . S
O46 Zn42 2.086 . S
C47 O43 1.278 . S
C47 O48 1.211 . S
O48 C47 1.211 . S
C49 O41 1.284 . S
C49 O50 1.273 . S
O50 C49 1.273 . S
O51 Zn42 1.977 . S
O51 C44 1.267 . S
C52 O53 1.160 . S
C52 O59 1.185 . S
O53 C52 1.160 . S
O54 Zn55 1.899 . S
O54 C62 1.284 . S
Zn55 O54 1.899 . S
Zn55 O56 2.032 . S
Zn55 O59 2.086 . S
Zn55 O64 1.977 . S
O56 Zn55 2.032 . S
O56 C60 1.278 . S
C57 O58 1.203 . S
C57 O64 1.267 . S
O58 C57 1.203 . S
O59 C52 1.185 . S
O59 Zn55 2.086 . S
C60 O56 1.278 . S
C60 O61 1.211 . S
O61 C60 1.211 . S
C62 O54 1.284 . S
C62 O63 1.273 . S
O63 C62 1.273 . S
O64 Zn55 1.977 . S
O64 C57 1.267 . S
C65 O66 1.160 . S
C65 O72 1.185 . S
O66 C65 1.160 . S
O67 Zn68 1.899 . S
O67 C75 1.284 . S
Zn68 O67 1.899 . S
Zn68 O69 2.032 . S
Zn68 O72 2.086 . S
Zn68 O77 1.977 . S
O69 Zn68 2.032 . S
O69 C73 1.278 . S
C70 O71 1.203 . S
C70 O77 1.267 . S
O71 C70 1.203 . S
O72 C65 1.185 . S
O72 Zn68 2.086 . S
C73 O69 1.278 . S
C73 O74 1.211 . S
O74 C73 1.211 . S
C75 O67 1.284 . S
C75 O76 1.273 . S
O76 C75 1.273 . S
O77 Zn68 1.977 . S
O77 C70 1.267 . S
C78 O79 1.160 . S
C78 O85 1.185 . S
O79 C78 1.160 . S
O80 Zn81 1.899 . S
O80 C88 1.284 . S
Zn81 O80 1.899 . S
Zn81 O82 2.032 . S
Zn81 O85 2.086 . S
Zn81 O90 1.977 . S
O82 Zn81 2.032 . S
O82 C86 1.278 . S
C83 O84 1.203 . S
C83 O90 1.267 . S
O84 C83 1.203 . S
O85 C78 1.185 . S
O85 Zn81 2.086 . S
C86 O82 1.278 . S
C86 O87 1.211 . S
O87 C86 1.211 . S
C88 O80 1.284 . S
C88 O89 1.273 . S
O89 C88 1.273 . S
O90 Zn81 1.977 . S
O90 C83 1.267 . S
C91 O92 1.160 . S
C91 O98 1.185 . S
O92 C91 1.160 . S
O93 Zn94 1.903 1_655 S
O93 C101 1.291 1_556 S
Zn94 O93 1.903 1_455 S
Zn94 O95 2.032 . S
Zn94 O98 2.086 . S
Zn94 O103 1.977 1_455 S
O95 Zn94 2.032 . S
O95 C99 1.278 1_556 S
C96 O97 1.203 . S
C96 O103 1.267 . S
O97 C96 1.203 . S
O98 C91 1.185 . S
O98 Zn94 2.086 . S
C99 O95 1.278 1_554 S
C99 O100 1.208 1_455 S
O100 C99 1.208 1_655 S
C101 O93 1.291 1_554 S
C101 O102 1.273 . S
O102 C101 1.273 . S
O103 Zn94 1.977 1_655 S
O103 C96 1.267 . S
C104 O105 1.160 . S
C104 O111 1.185 . S
O105 C104 1.160 . S
O106 Zn107 1.899 . S
O106 C114 1.295 . S
Zn107 O106 1.899 . S
Zn107 O108 2.032 . S
Zn107 O111 2.086 . S
Zn107 O116 1.977 1_545 S
O108 Zn107 2.032 . S
O108 C112 1.278 . S
C109 O110 1.203 . S
C109 O116 1.267 . S
O110 C109 1.203 . S
O111 C104 1.185 . S
O111 Zn107 2.086 . S
C112 O108 1.278 . S
C112 O113 1.211 1_545 S
O113 C112 1.211 1_565 S
C114 O106 1.295 . S
C114 O115 1.259 1_545 S
O115 C114 1.259 1_565 S
O116 Zn107 1.977 1_565 S
O116 C109 1.267 . S
C117 O118 1.160 . S
C117 O124 1.185 . S
O118 C117 1.160 . S
O119 Zn120 1.899 . S
O119 C127 1.284 . S
Zn120 O119 1.899 . S
Zn120 O121 2.032 . S
Zn120 O124 2.086 . S
Zn120 O129 1.977 . S
O121 Zn120 2.032 . S
O121 C125 1.278 . S
C122 O123 1.203 . S
C122 O129 1.267 . S
O123 C122 1.203 . S
O124 C117 1.185 . S
O124 Zn120 2.086 . S
C125 O121 1.278 . S
C125 O126 1.211 . S
O126 C125 1.211 . S
C127 O119 1.284 . S
C127 O128 1.273 . S
O128 C127 1.273 . S
O129 Zn120 1.977 . S
O129 C122 1.267 . S
C130 O131 1.160 . S
C130 O137 1.185 . S
O131 C130 1.160 . S
O132 Zn133 1.899 . S
O132 C140 1.284 . S
Zn133 O132 1.899 . S
Zn133 O134 2.032 . S
Zn133 O137 2.086 . S
Zn133 O142 1.977 . S
O134 Zn133 2.032 . S
O134 C138 1.278 . S
C135 O136 1.203 . S
C135 O142 1.267 . S
O136 C135 1.203 . S
O137 C130 1.185 . S
O137 Zn133 2.086 . S
C138 O134 1.278 . S
C138 O139 1.211 . S
O139 C138 1.211 . S
C140 O132 1.284 . S
C140 O141 1.273 . S
O141 C140 1.273 . S
O142 Zn133 1.977 . S
O142 C135 1.267 . S
C143 O144 1.160 . S
C143 O150 1.185 1_554 S
O144 C143 1.160 . S
O145 Zn146 1.899 . S
O145 C153 1.284 . S
Zn146 O145 1.899 . S
Zn146 O147 2.032 1_554 S
Zn146 O150 2.086 1_554 S
Zn146 O155 1.977 . S
O147 Zn146 2.032 1_556 S
O147 C151 1.278 . S
C148 O149 1.203 . S
C148 O155 1.267 . S
O149 C148 1.203 . S
O150 C143 1.185 1_556 S
O150 Zn146 2.086 1_556 S
C151 O147 1.278 . S
C151 O152 1.211 . S
O152 C151 1.211 . S
C153 O145 1.284 . S
C153 O154 1.273 . S
O154 C153 1.273 . S
O155 Zn146 1.977 . S
O155 C148 1.267 . S
C156 O157 1.160 . S
C156 O163 1.185 . S
O157 C156 1.160 . S
O158 Zn159 1.899 . S
O158 C166 1.284 . S
Zn159 O158 1.899 . S
Zn159 O160 2.032 . S
Zn159 O163 2.086 . S
Zn159 O168 1.977 . S
O160 Zn159 2.032 . S
O160 C164 1.278 1_554 S
C161 O162 1.203 . S
C161 O168 1.267 . S
O162 C161 1.203 . S
O163 C156 1.185 . S
O163 Zn159 2.086 . S
C164 O160 1.278 1_556 S
C164 O165 1.211 1_556 S
O165 C164 1.211 1_554 S
C166 O158 1.284 . S
C166 O167 1.273 . S
O167 C166 1.273 . S
O168 Zn159 1.977 . S
O168 C161 1.267 . S
C169 O170 1.160 . S
C169 O176 1.185 . S
O170 C169 1.160 . S
O171 Zn172 1.899 . S
O171 C179 1.284 . S
Zn172 O171 1.899 . S
Zn172 O173 2.032 . S
Zn172 O176 2.086 . S
Zn172 O181 1.977 . S
O173 Zn172 2.032 . S
O173 C177 1.278 . S
C174 O175 1.203 . S
C174 O181 1.267 . S
O175 C174 1.203 . S
O176 C169 1.185 . S
O176 Zn172 2.086 . S
C177 O173 1.278 . S
C177 O178 1.211 . S
O178 C177 1.211 . S
C179 O171 1.284 . S
C179 O180 1.273 . S
O180 C179 1.273 . S
O181 Zn172 1.977 . S
O181 C174 1.267 . S
C182 O183 1.160 . S
C182 O189 1.185 . S
O183 C182 1.160 . S
O184 Zn185 1.899 . S
O184 C192 1.284 . S
Zn185 O184 1.899 . S
Zn185 O186 2.032 . S
Zn185 O189 2.086 . S
Zn185 O194 1.977 . S
O186 Zn185 2.032 . S
O186 C190 1.278 . S
C187 O188 1.203 . S
C187 O194 1.267 . S
O188 C187 1.203 . S
O189 C182 1.185 . S
O189 Zn185 2.086 . S
C190 O186 1.278 . S
C190 O191 1.211 . S
O191 C190 1.211 . S
C192 O184 1.284 . S
C192 O193 1.273 . S
O193 C192 1.273 . S
O194 Zn185 1.977 . S
O194 C187 1.267 . S
C195 O196 1.160 . S
C195 O202 1.185 . S
O196 C195 1.160 . S
O197 Zn198 1.899 . S
O197 C205 1.284 . S
Zn198 O197 1.899 . S
Zn198 O199 2.032 . S
Zn198 O202 2.086 . S
Zn198 O207 1.977 . S
O199 Zn198 2.032 . S
O199 C203 1.278 . S
C200 O201 1.203 . S
C200 O207 1.267 . S
O201 C200 1.203 . S
O202 C195 1.185 . S
O202 Zn198 2.086 . S
C203 O199 1.278 . S
C203 O204 1.211 . S
O204 C203 1.211 . S
C205 O197 1.284 . S
C205 O206 1.273 . S
O206 C205 1.273 . S
O207 Zn198 1.977 . S
O207 C200 1.267 . S
C208 O209 1.160 . S
C208 O215 1.185 . S
O209 C208 1.160 . S
O210 Zn211 1.899 . S
O210 C218 1.284 . S
Zn211 O210 1.899 . S
Zn211 O212 2.032 . S
Zn211 O215 2.086 . S
Zn211 O220 1.977 . S
O212 Zn211 2.032 . S
O212 C216 1.278 . S
C213 O214 1.203 . S
C213 O220 1.267 1_565 S
O214 C213 1.203 . S
O215 C208 1.185 . S
O215 Zn211 2.086 . S
C216 O212 1.278 . S
C216 O217 1.211 . S
O217 C216 1.211 . S
C218 O210 1.284 . S
C218 O219 1.273 . S
O219 C218 1.273 . S
O220 Zn211 1.977 . S
O220 C213 1.267 1_545 S
C221 O222 1.160 . S
C221 O228 1.185 . S
O222 C221 1.160 . S
O223 Zn224 1.899 . S
O223 C231 1.284 . S
Zn224 O223 1.899 . S
Zn224 O225 2.032 . S
Zn224 O228 2.086 . S
Zn224 O233 1.977 . S
O225 Zn224 2.032 . S
O225 C229 1.278 . S
C226 O227 1.203 . S
C226 O233 1.267 . S
O227 C226 1.203 . S
O228 C221 1.185 . S
O228 Zn224 2.086 . S
C229 O225 1.278 . S
C229 O230 1.211 . S
O230 C229 1.211 . S
C231 O223 1.284 . S
C231 O232 1.273 . S
O232 C231 1.273 . S
O233 Zn224 1.977 . S
O233 C226 1.267 . S
C234 O235 1.160 . S
C234 O241 1.185 . S
O235 C234 1.160 . S
O236 Zn237 1.899 . S
O236 C244 1.284 . S
Zn237 O236 1.899 . S
Zn237 O238 2.032 . S
Zn237 O241 2.086 . S
Zn237 O246 1.977 . S
O238 Zn237 2.032 . S
O238 C242 1.278 . S
C239 O240 1.203 . S
C239 O246 1.267 . S
O240 C239 1.203 . S
O241 C234 1.185 . S
O241 Zn237 2.086 . S
C242 O238 1.278 . S
C242 O243 1.211 . S
O243 C242 1.211 . S
C244 O236 1.284 . S
C244 O245 1.273 . S
O245 C244 1.273 . S
O246 Zn237 1.977 . S
O246 C239 1.267 . S
C247 O248 1.160 . S
C247 O254 1.185 . S
O248 C247 1.160 . S
O249 Zn250 1.899 . S
O249 C257 1.284 . S
Zn250 O249 1.899 . S
Zn250 O251 2.032 . S
Zn250 O254 2.086 . S
Zn250 O259 1.977 . S
O251 Zn250 2.032 . S
O251 C255 1.278 . S
C252 O253 1.203 . S
C252 O259 1.267 . S
O253 C252 1.203 . S
O254 C247 1.185 . S
O254 Zn250 2.086 . S
C255 O251 1.278 . S
C255 O256 1.211 . S
O256 C255 1.211 . S
C257 O249 1.284 . S
C257 O258 1.273 . S
O258 C257 1.273 . S
O259 Zn250 1.977 . S
O259 C252 1.267 . S
C260 O261 1.160 . S
C260 O267 1.185 . S
O261 C260 1.160 . S
O262 Zn263 1.899 . S
O262 C270 1.284 . S
Zn263 O262 1.899 . S
Zn263 O264 2.032 . S
Zn263 O267 2.086 . S
Zn263 O272 1.977 . S
O264 Zn263 2.032 . S
O264 C268 1.278 1_554 S
C265 O266 1.203 . S
C265 O272 1.267 . S
O266 C265 1.203 . S
O267 C260 1.185 . S
O267 Zn263 2.086 . S
C268 O264 1.278 1_556 S
C268 O269 1.211 . S
O269 C268 1.211 . S
C270 O262 1.284 . S
C270 O271 1.273 . S
O271 C270 1.273 . S
O272 Zn263 1.977 . S
O272 C265 1.267 . S
C273 O274 1.160 . S
C273 O280 1.185 . S
O274 C273 1.160 . S
O275 Zn276 1.899 . S
O275 C283 1.284 . S
Zn276 O275 1.899 . S
Zn276 O277 2.032 . S
Zn276 O280 2.086 . S
Zn276 O285 1.977 . S
O277 Zn276 2.032 . S
O277 C281 1.278 . S
C278 O279 1.203 . S
C278 O285 1.267 . S
O279 C278 1.203 . S
O280 C273 1.185 . S
O280 Zn276 2.086 . S
C281 O277 1.278 . S
C281 O282 1.211 . S
O282 C281 1.211 . S
C283 O275 1.284 . S
C283 O284 1.273 . S
O284 C283 1.273 . S
O285 Zn276 1.977 . S
O285 C278 1.267 . S
C286 O287 1.160 . S
C286 O293 1.185 . S
O287 C286 1.160 . S
O288 Zn289 1.899 . S
O288 C296 1.284 . S
Zn289 O288 1.899 . S
Zn289 O290 2.032 . S
Zn289 O293 2.086 . S
Zn289 O298 1.977 . S
O290 Zn289 2.032 . S
O290 C294 1.278 . S
C291 O292 1.203 . S
C291 O298 1.267 . S
O292 C291 1.203 . S
O293 C286 1.185 . S
O293 Zn289 2.086 . S
C294 O290 1.278 . S
C294 O295 1.211 . S
O295 C294 1.211 . S
C296 O288 1.284 . S
C296 O297 1.273 . S
O297 C296 1.273 . S
O298 Zn289 1.977 . S
O298 C291 1.267 . S
C299 O300 1.160 . S
C299 O306 1.185 . S
O300 C299 1.160 . S
O301 Zn302 1.899 . S
O301 C309 1.284 . S
Zn302 O301 1.899 . S
Zn302 O303 2.032 . S
Zn302 O306 2.086 . S
Zn302 O311 1.977 . S
O303 Zn302 2.032 . S
O303 C307 1.278 . S
C304 O305 1.203 . S
C304 O311 1.267 . S
O305 C304 1.203 . S
O306 C299 1.185 . S
O306 Zn302 2.086 . S
C307 O303 1.278 . S
C307 O308 1.211 . S
O308 C307 1.211 . S
C309 O301 1.284 . S
C309 O310 1.273 . S
O310 C309 1.273 . S
O311 Zn302 1.977 . S
O311 C304 1.267 . S
Dy312 O315 2.307 . S
Dy312 O317 2.395 . S
Dy312 O318 2.379 . S
Dy312 O320 2.339 . S
Dy312 O322 2.298 . S
Dy312 O326 2.275 . S
Dy312 C334 2.738 . S
Dy313 O316 2.298 1_655 S
Dy313 O319 2.275 1_655 S
Dy313 O321 2.307 1_645 S
Dy313 O323 2.395 . S
Dy313 O324 2.379 1_554 S
Dy313 O327 2.339 1_654 S
Dy313 C343 2.738 . S
C314 O326 1.254 1_556 S
C314 O327 1.257 . S
O315 Dy312 2.307 . S
O315 C325 1.266 . S
O316 Dy313 2.298 1_455 S
O316 C325 1.236 . S
O317 Dy312 2.395 . S
O317 C334 1.255 . S
O318 Dy312 2.379 . S
O318 C334 1.249 . S
O319 Dy313 2.275 1_455 S
O319 C335 1.254 . S
O320 Dy312 2.339 . S
O320 C335 1.257 . S
O321 Dy313 2.307 1_465 S
O321 C336 1.266 . S
O322 Dy312 2.298 . S
O322 C336 1.236 1_545 S
O323 Dy313 2.395 . S
O323 C343 1.255 . S
O324 Dy313 2.379 1_556 S
O324 C343 1.249 1_556 S
C325 O315 1.266 . S
C325 O316 1.236 . S
O326 Dy312 2.275 . S
O326 C314 1.254 1_554 S
O327 Dy313 2.339 1_456 S
O327 C314 1.257 . S
C328 C331 1.344 . S
C328 C332 1.328 . S
C328 C334 1.516 . S
C329 C330 1.304 . S
C329 C333 1.323 . S
C330 C329 1.304 . S
C330 C331 1.371 . S
C330 H344 0.947 . S
C331 C328 1.344 . S
C331 C330 1.371 . S
C331 H345 0.931 . S
C332 C328 1.328 . S
C332 C333 1.433 . S
C332 H346 0.931 . S
C333 C329 1.323 . S
C333 C332 1.433 . S
C333 H347 0.933 . S
C334 Dy312 2.738 . S
C334 O317 1.255 . S
C334 O318 1.249 . S
C334 C328 1.516 . S
C335 O319 1.254 . S
C335 O320 1.257 . S
C336 O321 1.266 . S
C336 O322 1.236 1_565 S
C337 C340 1.344 . S
C337 C341 1.328 1_554 S
C337 C343 1.516 . S
C338 C339 1.304 . S
C338 C342 1.323 1_554 S
C339 C338 1.304 . S
C339 C340 1.371 . S
C339 H348 0.930 . S
C340 C337 1.344 . S
C340 C339 1.371 . S
C340 H349 0.931 . S
C341 C337 1.328 1_556 S
C341 C342 1.433 . S
C341 H350 0.931 . S
C342 C338 1.323 1_556 S
C342 C341 1.433 . S
C342 H351 0.933 . S
C343 Dy313 2.738 . S
C343 O323 1.255 . S
C343 O324 1.249 1_554 S
C343 C337 1.516 . S
H344 C330 0.947 . S
H345 C331 0.931 . S
H346 C332 0.931 . S
H347 C333 0.933 . S
H348 C339 0.930 . S
H349 C340 0.931 . S
H350 C341 0.931 . S
H351 C342 0.933 . S
Dy352 O355 2.307 . S
Dy352 O357 2.395 . S
Dy352 O358 2.379 . S
Dy352 O360 2.339 . S
Dy352 O362 2.298 . S
Dy352 O366 2.275 . S
Dy352 C374 2.738 . S
Dy353 O356 2.298 . S
Dy353 O359 2.275 . S
Dy353 O361 2.307 . S
Dy353 O363 2.395 . S
Dy353 O364 2.379 . S
Dy353 O367 2.339 . S
Dy353 C383 2.738 . S
C354 O366 1.254 . S
C354 O367 1.257 . S
O355 Dy352 2.307 . S
O355 C365 1.266 . S
O356 Dy353 2.298 . S
O356 C365 1.236 . S
O357 Dy352 2.395 . S
O357 C374 1.255 . S
O358 Dy352 2.379 . S
O358 C374 1.249 . S
O359 Dy353 2.275 . S
O359 C375 1.254 . S
O360 Dy352 2.339 . S
O360 C375 1.257 . S
O361 Dy353 2.307 . S
O361 C376 1.266 . S
O362 Dy352 2.298 . S
O362 C376 1.236 . S
O363 Dy353 2.395 . S
O363 C383 1.255 . S
O364 Dy353 2.379 . S
O364 C383 1.249 . S
C365 O355 1.266 . S
C365 O356 1.236 . S
O366 Dy352 2.275 . S
O366 C354 1.254 . S
O367 Dy353 2.339 . S
O367 C354 1.257 . S
C368 C371 1.344 . S
C368 C372 1.328 . S
C368 C374 1.516 . S
C369 C370 1.304 . S
C369 C373 1.323 . S
C370 C369 1.304 . S
C370 C371 1.371 . S
C370 H384 0.930 . S
C371 C368 1.344 . S
C371 C370 1.371 . S
C371 H385 0.931 . S
C372 C368 1.328 . S
C372 C373 1.433 . S
C372 H386 0.931 . S
C373 C369 1.323 . S
C373 C372 1.433 . S
C373 H387 0.933 . S
C374 Dy352 2.738 . S
C374 O357 1.255 . S
C374 O358 1.249 . S
C374 C368 1.516 . S
C375 O359 1.254 . S
C375 O360 1.257 . S
C376 O361 1.266 . S
C376 O362 1.236 . S
C377 C380 1.344 . S
C377 C381 1.328 . S
C377 C383 1.516 . S
C378 C379 1.304 . S
C378 C382 1.323 . S
C379 C378 1.304 . S
C379 C380 1.371 . S
C379 H388 0.930 . S
C380 C377 1.344 . S
C380 C379 1.371 . S
C380 H389 0.931 . S
C381 C377 1.328 . S
C381 C382 1.433 . S
C381 H390 0.931 . S
C382 C378 1.323 . S
C382 C381 1.433 . S
C382 H391 0.933 . S
C383 Dy353 2.738 . S
C383 O363 1.255 . S
C383 O364 1.249 . S
C383 C377 1.516 . S
H384 C370 0.930 . S
H385 C371 0.931 . S
H386 C372 0.931 . S
H387 C373 0.933 . S
H388 C379 0.930 . S
H389 C380 0.931 . S
H390 C381 0.931 . S
H391 C382 0.933 . S
Dy392 O395 2.307 . S
Dy392 O397 2.395 . S
Dy392 O398 2.379 . S
Dy392 O400 2.339 . S
Dy392 O402 2.298 . S
Dy392 O406 2.275 . S
Dy392 C414 2.738 . S
Dy393 O396 2.298 . S
Dy393 O399 2.275 . S
Dy393 O401 2.307 . S
Dy393 O403 2.395 . S
Dy393 O404 2.379 . S
Dy393 O407 2.339 . S
Dy393 C423 2.738 . S
C394 O406 1.254 . S
C394 O407 1.257 . S
O395 Dy392 2.307 . S
O395 C405 1.266 1_545 S
O396 Dy393 2.298 . S
O396 C405 1.236 1_545 S
O397 Dy392 2.395 . S
O397 C414 1.255 . S
O398 Dy392 2.379 . S
O398 C414 1.249 . S
O399 Dy393 2.275 . S
O399 C415 1.254 . S
O400 Dy392 2.339 . S
O400 C415 1.257 . S
O401 Dy393 2.307 . S
O401 C416 1.266 . S
O402 Dy392 2.298 . S
O402 C416 1.236 . S
O403 Dy393 2.395 . S
O403 C423 1.255 . S
O404 Dy393 2.379 . S
O404 C423 1.249 . S
C405 O395 1.266 1_565 S
C405 O396 1.236 1_565 S
O406 Dy392 2.275 . S
O406 C394 1.254 . S
O407 Dy393 2.339 . S
O407 C394 1.257 . S
C408 C411 1.344 . S
C408 C412 1.328 . S
C408 C414 1.516 . S
C409 C410 1.304 . S
C409 C413 1.323 . S
C410 C409 1.304 . S
C410 C411 1.371 . S
C410 H424 0.930 . S
C411 C408 1.344 . S
C411 C410 1.371 . S
C411 H425 0.931 . S
C412 C408 1.328 . S
C412 C413 1.433 . S
C412 H426 0.931 . S
C413 C409 1.323 . S
C413 C412 1.433 . S
C413 H427 0.933 . S
C414 Dy392 2.738 . S
C414 O397 1.255 . S
C414 O398 1.249 . S
C414 C408 1.516 . S
C415 O399 1.254 . S
C415 O400 1.257 . S
C416 O401 1.266 . S
C416 O402 1.236 . S
C417 C420 1.374 . S
C417 C421 1.328 . S
C417 C423 1.516 . S
C418 C419 1.304 . S
C418 C422 1.323 . S
C419 C418 1.304 . S
C419 C420 1.340 1_565 S
C419 H428 0.930 . S
C420 C417 1.374 . S
C420 C419 1.340 1_545 S
C420 H429 0.934 . S
C421 C417 1.328 . S
C421 C422 1.433 1_545 S
C421 H430 0.931 . S
C422 C418 1.323 . S
C422 C421 1.433 1_565 S
C422 H431 0.933 . S
C423 Dy393 2.738 . S
C423 O403 1.255 . S
C423 O404 1.249 . S
C423 C417 1.516 . S
H424 C410 0.930 . S
H425 C411 0.931 . S
H426 C412 0.931 . S
H427 C413 0.933 . S
H428 C419 0.930 . S
H429 C420 0.934 . S
H430 C421 0.931 . S
H431 C422 0.933 . S
Dy432 O435 2.307 . S
Dy432 O437 2.395 . S
Dy432 O438 2.379 . S
Dy432 O440 2.339 . S
Dy432 O442 2.298 . S
Dy432 O446 2.275 . S
Dy432 C454 2.738 . S
Dy433 O436 2.298 . S
Dy433 O439 2.275 . S
Dy433 O441 2.307 . S
Dy433 O443 2.395 . S
Dy433 O444 2.379 . S
Dy433 O447 2.339 . S
Dy433 C463 2.738 . S
C434 O446 1.254 . S
C434 O447 1.257 . S
O435 Dy432 2.307 . S
O435 C445 1.266 . S
O436 Dy433 2.298 . S
O436 C445 1.236 . S
O437 Dy432 2.395 . S
O437 C454 1.255 . S
O438 Dy432 2.379 . S
O438 C454 1.249 . S
O439 Dy433 2.275 . S
O439 C455 1.254 . S
O440 Dy432 2.339 . S
O440 C455 1.257 . S
O441 Dy433 2.307 . S
O441 C456 1.266 . S
O442 Dy432 2.298 . S
O442 C456 1.236 . S
O443 Dy433 2.395 . S
O443 C463 1.255 . S
O444 Dy433 2.379 . S
O444 C463 1.249 . S
C445 O435 1.266 . S
C445 O436 1.236 . S
O446 Dy432 2.275 . S
O446 C434 1.254 . S
O447 Dy433 2.339 . S
O447 C434 1.257 . S
C448 C451 1.344 . S
C448 C452 1.328 . S
C448 C454 1.516 . S
C449 C450 1.304 . S
C449 C453 1.323 . S
C450 C449 1.304 . S
C450 C451 1.371 . S
C450 H464 0.930 . S
C451 C448 1.344 . S
C451 C450 1.371 . S
C451 H465 0.931 . S
C452 C448 1.328 . S
C452 C453 1.433 . S
C452 H466 0.931 . S
C453 C449 1.323 . S
C453 C452 1.433 . S
C453 H467 0.933 . S
C454 Dy432 2.738 . S
C454 O437 1.255 . S
C454 O438 1.249 . S
C454 C448 1.516 . S
C455 O439 1.254 . S
C455 O440 1.257 . S
C456 O441 1.266 . S
C456 O442 1.236 . S
C457 C460 1.344 . S
C457 C461 1.328 . S
C457 C463 1.516 . S
C458 C459 1.304 . S
C458 C462 1.323 . S
C459 C458 1.304 . S
C459 C460 1.371 . S
C459 H468 0.930 . S
C460 C457 1.344 . S
C460 C459 1.371 . S
C460 H469 0.931 . S
C461 C457 1.328 . S
C461 C462 1.433 . S
C461 H470 0.931 . S
C462 C458 1.323 . S
C462 C461 1.433 . S
C462 H471 0.933 . S
C463 Dy433 2.738 . S
C463 O443 1.255 . S
C463 O444 1.249 . S
C463 C457 1.516 . S
H464 C450 0.930 . S
H465 C451 0.931 . S
H466 C452 0.931 . S
H467 C453 0.933 . S
H468 C459 0.930 . S
H469 C460 0.931 . S
H470 C461 0.931 . S
H471 C462 0.933 . S
Dy472 O475 2.307 . S
Dy472 O477 2.395 1_545 S
Dy472 O478 2.379 1_545 S
Dy472 O480 2.339 . S
Dy472 O482 2.298 . S
Dy472 O486 2.275 . S
Dy472 C494 2.738 1_545 S
Dy473 O476 2.298 . S
Dy473 O479 2.275 . S
Dy473 O481 2.307 . S
Dy473 O483 2.395 . S
Dy473 O484 2.379 1_455 S
Dy473 O487 2.339 1_455 S
Dy473 C503 2.738 . S
C474 O486 1.254 1_655 S
C474 O487 1.257 . S
O475 Dy472 2.307 . S
O475 C485 1.266 . S
O476 Dy473 2.298 . S
O476 C485 1.236 . S
O477 Dy472 2.395 1_565 S
O477 C494 1.255 . S
O478 Dy472 2.379 1_565 S
O478 C494 1.249 . S
O479 Dy473 2.275 . S
O479 C495 1.254 . S
O480 Dy472 2.339 . S
O480 C495 1.257 . S
O481 Dy473 2.307 . S
O481 C496 1.266 . S
O482 Dy472 2.298 . S
O482 C496 1.236 . S
O483 Dy473 2.395 . S
O483 C503 1.255 . S
O484 Dy473 2.379 1_655 S
O484 C503 1.249 1_655 S
C485 O475 1.266 . S
C485 O476 1.236 . S
O486 Dy472 2.275 . S
O486 C474 1.254 1_455 S
O487 Dy473 2.339 1_655 S
O487 C474 1.257 . S
C488 C491 1.344 . S
C488 C492 1.328 . S
C488 C494 1.516 . S
C489 C490 1.304 . S
C489 C493 1.323 . S
C490 C489 1.304 . S
C490 C491 1.371 . S
C490 H504 0.930 . S
C491 C488 1.344 . S
C491 C490 1.371 . S
C491 H505 0.931 . S
C492 C488 1.328 . S
C492 C493 1.433 . S
C492 H506 0.931 . S
C493 C489 1.323 . S
C493 C492 1.433 . S
C493 H507 0.933 . S
C494 Dy472 2.738 1_565 S
C494 O477 1.255 . S
C494 O478 1.249 . S
C494 C488 1.516 . S
C495 O479 1.254 . S
C495 O480 1.257 . S
C496 O481 1.266 . S
C496 O482 1.236 . S
C497 C500 1.344 . S
C497 C501 1.328 1_455 S
C497 C503 1.516 . S
C498 C499 1.304 . S
C498 C502 1.323 1_455 S
C499 C498 1.304 . S
C499 C500 1.371 . S
C499 H508 0.930 . S
C500 C497 1.344 . S
C500 C499 1.371 . S
C500 H509 0.931 . S
C501 C497 1.328 1_655 S
C501 C502 1.433 . S
C501 H510 0.931 . S
C502 C498 1.323 1_655 S
C502 C501 1.433 . S
C502 H511 0.933 . S
C503 Dy473 2.738 . S
C503 O483 1.255 . S
C503 O484 1.249 1_455 S
C503 C497 1.516 . S
H504 C490 0.930 . S
H505 C491 0.931 . S
H506 C492 0.931 . S
H507 C493 0.933 . S
H508 C499 0.930 . S
H509 C500 0.931 . S
H510 C501 0.931 . S
H511 C502 0.933 . S
Dy512 O515 2.307 . S
Dy512 O517 2.395 . S
Dy512 O518 2.379 . S
Dy512 O520 2.339 . S
Dy512 O522 2.298 . S
Dy512 O526 2.275 . S
Dy512 C534 2.738 . S
Dy513 O516 2.298 . S
Dy513 O519 2.275 . S
Dy513 O521 2.307 . S
Dy513 O523 2.395 . S
Dy513 O524 2.379 . S
Dy513 O527 2.339 . S
Dy513 C543 2.738 . S
C514 O526 1.254 . S
C514 O527 1.257 . S
O515 Dy512 2.307 . S
O515 C525 1.266 . S
O516 Dy513 2.298 . S
O516 C525 1.236 . S
O517 Dy512 2.395 . S
O517 C534 1.255 . S
O518 Dy512 2.379 . S
O518 C534 1.249 . S
O519 Dy513 2.275 . S
O519 C535 1.254 . S
O520 Dy512 2.339 . S
O520 C535 1.257 . S
O521 Dy513 2.307 . S
O521 C536 1.266 . S
O522 Dy512 2.298 . S
O522 C536 1.236 . S
O523 Dy513 2.395 . S
O523 C543 1.255 . S
O524 Dy513 2.379 . S
O524 C543 1.249 . S
C525 O515 1.266 . S
C525 O516 1.236 . S
O526 Dy512 2.275 . S
O526 C514 1.254 . S
O527 Dy513 2.339 . S
O527 C514 1.257 . S
C528 C531 1.344 . S
C528 C532 1.328 . S
C528 C534 1.516 . S
C529 C530 1.304 . S
C529 C533 1.323 . S
C530 C529 1.304 . S
C530 C531 1.371 . S
C530 H544 0.930 . S
C531 C528 1.344 . S
C531 C530 1.371 . S
C531 H545 0.931 . S
C532 C528 1.328 . S
C532 C533 1.433 . S
C532 H546 0.931 . S
C533 C529 1.323 . S
C533 C532 1.433 . S
C533 H547 0.933 . S
C534 Dy512 2.738 . S
C534 O517 1.255 . S
C534 O518 1.249 . S
C534 C528 1.516 . S
C535 O519 1.254 . S
C535 O520 1.257 . S
C536 O521 1.266 . S
C536 O522 1.236 . S
C537 C540 1.344 . S
C537 C541 1.328 . S
C537 C543 1.516 . S
C538 C539 1.304 . S
C538 C542 1.323 . S
C539 C538 1.304 . S
C539 C540 1.371 . S
C539 H548 0.930 . S
C540 C537 1.344 . S
C540 C539 1.371 . S
C540 H549 0.931 . S
C541 C537 1.328 . S
C541 C542 1.433 . S
C541 H550 0.931 . S
C542 C538 1.323 . S
C542 C541 1.433 . S
C542 H551 0.933 . S
C543 Dy513 2.738 . S
C543 O523 1.255 . S
C543 O524 1.249 . S
C543 C537 1.516 . S
H544 C530 0.930 . S
H545 C531 0.931 . S
H546 C532 0.931 . S
H547 C533 0.933 . S
H548 C539 0.930 . S
H549 C540 0.931 . S
H550 C541 0.931 . S
H551 C542 0.933 . S
Dy552 O555 2.307 . S
Dy552 O557 2.395 1_554 S
Dy552 O558 2.379 1_554 S
Dy552 O560 2.339 . S
Dy552 O562 2.298 . S
Dy552 O566 2.275 . S
Dy552 C574 2.738 1_554 S
Dy553 O556 2.298 . S
Dy553 O559 2.275 . S
Dy553 O561 2.307 . S
Dy553 O563 2.395 . S
Dy553 O564 2.379 1_545 S
Dy553 O567 2.339 1_545 S
Dy553 C583 2.738 . S
C554 O566 1.252 1_565 S
C554 O567 1.258 . S
O555 Dy552 2.307 . S
O555 C565 1.266 . S
O556 Dy553 2.298 . S
O556 C565 1.236 . S
O557 Dy552 2.395 1_556 S
O557 C574 1.255 . S
O558 Dy552 2.379 1_556 S
O558 C574 1.249 . S
O559 Dy553 2.275 . S
O559 C575 1.254 . S
O560 Dy552 2.339 . S
O560 C575 1.257 . S
O561 Dy553 2.307 . S
O561 C576 1.266 . S
O562 Dy552 2.298 . S
O562 C576 1.236 . S
O563 Dy553 2.395 . S
O563 C583 1.255 . S
O564 Dy553 2.379 1_565 S
O564 C583 1.249 1_565 S
C565 O555 1.266 . S
C565 O556 1.236 . S
O566 Dy552 2.275 . S
O566 C554 1.252 1_545 S
O567 Dy553 2.339 1_565 S
O567 C554 1.258 . S
C568 C571 1.344 . S
C568 C572 1.328 . S
C568 C574 1.516 . S
C569 C570 1.304 . S
C569 C573 1.323 . S
C570 C569 1.304 . S
C570 C571 1.371 . S
C570 H584 0.930 . S
C571 C568 1.344 . S
C571 C570 1.371 . S
C571 H585 0.931 . S
C572 C568 1.328 . S
C572 C573 1.433 . S
C572 H586 0.931 . S
C573 C569 1.323 . S
C573 C572 1.433 . S
C573 H587 0.933 . S
C574 Dy552 2.738 1_556 S
C574 O557 1.255 . S
C574 O558 1.249 . S
C574 C568 1.516 . S
C575 O559 1.254 . S
C575 O560 1.257 . S
C576 O561 1.266 . S
C576 O562 1.236 . S
C577 C580 1.344 . S
C577 C581 1.328 1_545 S
C577 C583 1.516 . S
C578 C579 1.304 1_565 S
C578 C582 1.323 . S
C579 C578 1.304 1_545 S
C579 C580 1.371 . S
C579 H588 0.930 . S
C580 C577 1.344 . S
C580 C579 1.371 . S
C580 H589 0.931 . S
C581 C577 1.328 1_565 S
C581 C582 1.433 . S
C581 H590 0.931 . S
C582 C578 1.323 . S
C582 C581 1.433 . S
C582 H591 0.933 . S
C583 Dy553 2.738 . S
C583 O563 1.255 . S
C583 O564 1.249 1_545 S
C583 C577 1.516 . S
H584 C570 0.930 . S
H585 C571 0.931 . S
H586 C572 0.931 . S
H587 C573 0.933 . S
H588 C579 0.930 . S
H589 C580 0.931 . S
H590 C581 0.931 . S
H591 C582 0.933 . S
Dy592 O595 2.307 . S
Dy592 O597 2.395 . S
Dy592 O598 2.379 . S
Dy592 O600 2.339 . S
Dy592 O602 2.298 . S
Dy592 O606 2.275 . S
Dy592 C614 2.738 . S
Dy593 O596 2.298 . S
Dy593 O599 2.275 . S
Dy593 O601 2.307 . S
Dy593 O603 2.395 . S
Dy593 O604 2.379 . S
Dy593 O607 2.339 . S
Dy593 C623 2.738 . S
C594 O606 1.254 . S
C594 O607 1.257 . S
O595 Dy592 2.307 . S
O595 C605 1.266 . S
O596 Dy593 2.298 . S
O596 C605 1.236 . S
O597 Dy592 2.395 . S
O597 C614 1.255 . S
O598 Dy592 2.379 . S
O598 C614 1.249 . S
O599 Dy593 2.275 . S
O599 C615 1.254 . S
O600 Dy592 2.339 . S
O600 C615 1.257 . S
O601 Dy593 2.307 . S
O601 C616 1.266 . S
O602 Dy592 2.298 . S
O602 C616 1.236 . S
O603 Dy593 2.395 . S
O603 C623 1.255 . S
O604 Dy593 2.379 . S
O604 C623 1.249 . S
C605 O595 1.266 . S
C605 O596 1.236 . S
O606 Dy592 2.275 . S
O606 C594 1.254 . S
O607 Dy593 2.339 . S
O607 C594 1.257 . S
C608 C611 1.344 . S
C608 C612 1.328 . S
C608 C614 1.516 . S
C609 C610 1.304 . S
C609 C613 1.323 . S
C610 C609 1.304 . S
C610 C611 1.371 . S
C610 H624 0.930 . S
C611 C608 1.344 . S
C611 C610 1.371 . S
C611 H625 0.931 . S
C612 C608 1.328 . S
C612 C613 1.433 . S
C612 H626 0.931 . S
C613 C609 1.323 . S
C613 C612 1.433 . S
C613 H627 0.933 . S
C614 Dy592 2.738 . S
C614 O597 1.255 . S
C614 O598 1.249 . S
C614 C608 1.516 . S
C615 O599 1.254 . S
C615 O600 1.257 . S
C616 O601 1.266 . S
C616 O602 1.236 . S
C617 C620 1.344 . S
C617 C621 1.328 . S
C617 C623 1.516 . S
C618 C619 1.304 . S
C618 C622 1.323 . S
C619 C618 1.304 . S
C619 C620 1.371 . S
C619 H628 0.930 . S
C620 C617 1.344 . S
C620 C619 1.371 . S
C620 H629 0.931 . S
C621 C617 1.328 . S
C621 C622 1.433 . S
C621 H630 0.931 . S
C622 C618 1.323 . S
C622 C621 1.433 . S
C622 H631 0.933 . S
C623 Dy593 2.738 . S
C623 O603 1.255 . S
C623 O604 1.249 . S
C623 C617 1.516 . S
H624 C610 0.930 . S
H625 C611 0.931 . S
H626 C612 0.931 . S
H627 C613 0.933 . S
H628 C619 0.930 . S
H629 C620 0.931 . S
H630 C621 0.931 . S
H631 C622 0.933 . S
Dy632 O635 2.307 1_554 S
Dy632 O637 2.395 . S
Dy632 O638 2.379 . S
Dy632 O640 2.339 . S
Dy632 O642 2.298 . S
Dy632 O646 2.275 . S
Dy632 C654 2.738 . S
Dy633 O636 2.293 . S
Dy633 O639 2.275 . S
Dy633 O641 2.307 . S
Dy633 O643 2.395 . S
Dy633 O644 2.379 . S
Dy633 O647 2.339 . S
Dy633 C663 2.738 . S
C634 O646 1.254 . S
C634 O647 1.257 . S
O635 Dy632 2.307 1_556 S
O635 C645 1.266 . S
O636 Dy633 2.293 . S
O636 C645 1.238 1_554 S
O637 Dy632 2.395 . S
O637 C654 1.255 . S
O638 Dy632 2.379 . S
O638 C654 1.249 . S
O639 Dy633 2.275 . S
O639 C655 1.254 . S
O640 Dy632 2.339 . S
O640 C655 1.257 . S
O641 Dy633 2.307 . S
O641 C656 1.266 . S
O642 Dy632 2.298 . S
O642 C656 1.236 . S
O643 Dy633 2.395 . S
O643 C663 1.255 . S
O644 Dy633 2.379 . S
O644 C663 1.249 . S
C645 O635 1.266 . S
C645 O636 1.238 1_556 S
O646 Dy632 2.275 . S
O646 C634 1.254 . S
O647 Dy633 2.339 . S
O647 C634 1.257 . S
C648 C651 1.344 . S
C648 C652 1.328 . S
C648 C654 1.516 . S
C649 C650 1.304 . S
C649 C653 1.323 . S
C650 C649 1.304 . S
C650 C651 1.371 . S
C650 H664 0.930 . S
C651 C648 1.344 . S
C651 C650 1.371 . S
C651 H665 0.931 . S
C652 C648 1.328 . S
C652 C653 1.433 . S
C652 H666 0.931 . S
C653 C649 1.323 . S
C653 C652 1.433 . S
C653 H667 0.933 . S
C654 Dy632 2.738 . S
C654 O637 1.255 . S
C654 O638 1.249 . S
C654 C648 1.516 . S
C655 O639 1.254 . S
C655 O640 1.257 . S
C656 O641 1.266 . S
C656 O642 1.236 . S
C657 C660 1.339 1_554 S
C657 C661 1.327 . S
C657 C663 1.520 . S
C658 C659 1.304 . S
C658 C662 1.323 . S
C659 C658 1.304 . S
C659 C660 1.371 . S
C659 H668 0.930 . S
C660 C657 1.339 1_556 S
C660 C659 1.371 . S
C660 H669 0.931 . S
C661 C657 1.327 . S
C661 C662 1.422 1_554 S
C661 H670 0.943 . S
C662 C658 1.323 . S
C662 C661 1.422 1_556 S
C662 H671 0.933 . S
C663 Dy633 2.738 . S
C663 O643 1.255 . S
C663 O644 1.249 . S
C663 C657 1.520 . S
H664 C650 0.930 . S
H665 C651 0.931 . S
H666 C652 0.931 . S
H667 C653 0.933 . S
H668 C659 0.930 . S
H669 C660 0.931 . S
H670 C661 0.943 . S
H671 C662 0.933 . S
Dy672 O675 2.307 . S
Dy672 O677 2.395 . S
Dy672 O678 2.379 . S
Dy672 O680 2.339 . S
Dy672 O682 2.298 . S
Dy672 O686 2.275 . S
Dy672 C694 2.738 . S
Dy673 O676 2.298 . S
Dy673 O679 2.275 . S
Dy673 O681 2.307 . S
Dy673 O683 2.395 . S
Dy673 O684 2.379 . S
Dy673 O687 2.339 . S
Dy673 C703 2.738 . S
C674 O686 1.254 . S
C674 O687 1.257 . S
O675 Dy672 2.307 . S
O675 C685 1.266 . S
O676 Dy673 2.298 . S
O676 C685 1.236 . S
O677 Dy672 2.395 . S
O677 C694 1.255 . S
O678 Dy672 2.379 . S
O678 C694 1.249 . S
O679 Dy673 2.275 . S
O679 C695 1.254 . S
O680 Dy672 2.339 . S
O680 C695 1.257 . S
O681 Dy673 2.307 . S
O681 C696 1.266 . S
O682 Dy672 2.298 . S
O682 C696 1.236 . S
O683 Dy673 2.395 . S
O683 C703 1.255 . S
O684 Dy673 2.379 . S
O684 C703 1.249 . S
C685 O675 1.266 . S
C685 O676 1.236 . S
O686 Dy672 2.275 . S
O686 C674 1.254 . S
O687 Dy673 2.339 . S
O687 C674 1.257 . S
C688 C691 1.344 . S
C688 C692 1.328 . S
C688 C694 1.516 . S
C689 C690 1.304 . S
C689 C693 1.323 . S
C690 C689 1.304 . S
C690 C691 1.371 . S
C690 H704 0.930 . S
C691 C688 1.344 . S
C691 C690 1.371 . S
C691 H705 0.931 . S
C692 C688 1.328 . S
C692 C693 1.433 . S
C692 H706 0.931 . S
C693 C689 1.323 . S
C693 C692 1.433 . S
C693 H707 0.933 . S
C694 Dy672 2.738 . S
C694 O677 1.255 . S
C694 O678 1.249 . S
C694 C688 1.516 . S
C695 O679 1.254 . S
C695 O680 1.257 . S
C696 O681 1.266 . S
C696 O682 1.236 . S
C697 C700 1.344 . S
C697 C701 1.328 . S
C697 C703 1.516 . S
C698 C699 1.304 . S
C698 C702 1.323 . S
C699 C698 1.304 . S
C699 C700 1.371 . S
C699 H708 0.930 . S
C700 C697 1.344 . S
C700 C699 1.371 . S
C700 H709 0.931 . S
C701 C697 1.328 . S
C701 C702 1.433 . S
C701 H710 0.931 . S
C702 C698 1.323 . S
C702 C701 1.433 . S
C702 H711 0.933 . S
C703 Dy673 2.738 . S
C703 O683 1.255 . S
C703 O684 1.249 . S
C703 C697 1.516 . S
H704 C690 0.930 . S
H705 C691 0.931 . S
H706 C692 0.931 . S
H707 C693 0.933 . S
H708 C699 0.930 . S
H709 C700 0.931 . S
H710 C701 0.931 . S
H711 C702 0.933 . S
Dy712 O715 2.307 1_455 S
Dy712 O717 2.395 . S
Dy712 O718 2.379 . S
Dy712 O720 2.339 . S
Dy712 O722 2.298 . S
Dy712 O726 2.275 . S
Dy712 C734 2.738 . S
Dy713 O716 2.298 1_455 S
Dy713 O719 2.275 . S
Dy713 O721 2.307 . S
Dy713 O723 2.395 . S
Dy713 O724 2.379 . S
Dy713 O727 2.339 . S
Dy713 C743 2.738 . S
C714 O726 1.254 . S
C714 O727 1.257 . S
O715 Dy712 2.307 1_655 S
O715 C725 1.266 . S
O716 Dy713 2.298 1_655 S
O716 C725 1.236 . S
O717 Dy712 2.395 . S
O717 C734 1.255 . S
O718 Dy712 2.379 . S
O718 C734 1.249 . S
O719 Dy713 2.275 . S
O719 C735 1.254 . S
O720 Dy712 2.339 . S
O720 C735 1.257 . S
O721 Dy713 2.307 . S
O721 C736 1.266 . S
O722 Dy712 2.298 . S
O722 C736 1.236 . S
O723 Dy713 2.395 . S
O723 C743 1.255 . S
O724 Dy713 2.379 . S
O724 C743 1.249 . S
C725 O715 1.266 . S
C725 O716 1.236 . S
O726 Dy712 2.275 . S
O726 C714 1.254 . S
O727 Dy713 2.339 . S
O727 C714 1.257 . S
C728 C731 1.344 . S
C728 C732 1.328 . S
C728 C734 1.516 . S
C729 C730 1.304 . S
C729 C733 1.323 . S
C730 C729 1.304 . S
C730 C731 1.371 . S
C730 H744 0.930 . S
C731 C728 1.344 . S
C731 C730 1.371 . S
C731 H745 0.931 . S
C732 C728 1.328 . S
C732 C733 1.433 . S
C732 H746 0.931 . S
C733 C729 1.323 . S
C733 C732 1.433 . S
C733 H747 0.933 . S
C734 Dy712 2.738 . S
C734 O717 1.255 . S
C734 O718 1.249 . S
C734 C728 1.516 . S
C735 O719 1.254 . S
C735 O720 1.257 . S
C736 O721 1.266 . S
C736 O722 1.236 . S
C737 C740 1.344 . S
C737 C741 1.328 . S
C737 C743 1.516 1_655 S
C738 C739 1.304 . S
C738 C742 1.323 . S
C739 C738 1.304 . S
C739 C740 1.371 . S
C739 H748 0.930 . S
C740 C737 1.344 . S
C740 C739 1.371 . S
C740 H749 0.931 . S
C741 C737 1.328 . S
C741 C742 1.433 . S
C741 H750 0.931 . S
C742 C738 1.323 . S
C742 C741 1.433 . S
C742 H751 0.933 . S
C743 Dy713 2.738 . S
C743 O723 1.255 . S
C743 O724 1.249 . S
C743 C737 1.516 1_455 S
H744 C730 0.930 . S
H745 C731 0.931 . S
H746 C732 0.931 . S
H747 C733 0.933 . S
H748 C739 0.930 . S
H749 C740 0.931 . S
H750 C741 0.931 . S
H751 C742 0.933 . S
Dy752 O755 2.307 . S
Dy752 O757 2.395 . S
Dy752 O758 2.379 . S
Dy752 O760 2.339 . S
Dy752 O762 2.298 . S
Dy752 O766 2.275 . S
Dy752 C774 2.738 . S
Dy753 O756 2.298 . S
Dy753 O759 2.275 . S
Dy753 O761 2.307 . S
Dy753 O763 2.395 . S
Dy753 O764 2.379 . S
Dy753 O767 2.339 . S
Dy753 C783 2.738 . S
C754 O766 1.254 . S
C754 O767 1.257 . S
O755 Dy752 2.307 . S
O755 C765 1.266 . S
O756 Dy753 2.298 . S
O756 C765 1.236 . S
O757 Dy752 2.395 . S
O757 C774 1.255 . S
O758 Dy752 2.379 . S
O758 C774 1.249 . S
O759 Dy753 2.275 . S
O759 C775 1.254 . S
O760 Dy752 2.339 . S
O760 C775 1.257 . S
O761 Dy753 2.307 . S
O761 C776 1.266 . S
O762 Dy752 2.298 . S
O762 C776 1.236 . S
O763 Dy753 2.395 . S
O763 C783 1.255 . S
O764 Dy753 2.379 . S
O764 C783 1.249 . S
C765 O755 1.266 . S
C765 O756 1.236 . S
O766 Dy752 2.275 . S
O766 C754 1.254 . S
O767 Dy753 2.339 . S
O767 C754 1.257 . S
C768 C771 1.344 . S
C768 C772 1.328 . S
C768 C774 1.516 . S
C769 C770 1.304 . S
C769 C773 1.323 . S
C770 C769 1.304 . S
C770 C771 1.371 . S
C770 H784 0.930 . S
C771 C768 1.344 . S
C771 C770 1.371 . S
C771 H785 0.931 . S
C772 C768 1.328 . S
C772 C773 1.433 . S
C772 H786 0.931 . S
C773 C769 1.323 . S
C773 C772 1.433 . S
C773 H787 0.933 . S
C774 Dy752 2.738 . S
C774 O757 1.255 . S
C774 O758 1.249 . S
C774 C768 1.516 . S
C775 O759 1.254 . S
C775 O760 1.257 . S
C776 O761 1.266 . S
C776 O762 1.236 . S
C777 C780 1.344 . S
C777 C781 1.328 . S
C777 C783 1.516 . S
C778 C779 1.304 . S
C778 C782 1.323 . S
C779 C778 1.304 . S
C779 C780 1.371 . S
C779 H788 0.930 . S
C780 C777 1.344 . S
C780 C779 1.371 . S
C780 H789 0.931 . S
C781 C777 1.328 . S
C781 C782 1.433 . S
C781 H790 0.931 . S
C782 C778 1.323 . S
C782 C781 1.433 . S
C782 H791 0.933 . S
C783 Dy753 2.738 . S
C783 O763 1.255 . S
C783 O764 1.249 . S
C783 C777 1.516 . S
H784 C770 0.930 . S
H785 C771 0.931 . S
H786 C772 0.931 . S
H787 C773 0.933 . S
H788 C779 0.930 . S
H789 C780 0.931 . S
H790 C781 0.931 . S
H791 C782 0.933 . S
Dy792 O795 2.307 . S
Dy792 O797 2.395 . S
Dy792 O798 2.379 . S
Dy792 O800 2.339 . S
Dy792 O802 2.298 . S
Dy792 O806 2.275 . S
Dy792 C814 2.738 . S
Dy793 O796 2.298 . S
Dy793 O799 2.275 . S
Dy793 O801 2.307 . S
Dy793 O803 2.395 . S
Dy793 O804 2.379 . S
Dy793 O807 2.339 . S
Dy793 C823 2.738 . S
C794 O806 1.254 . S
C794 O807 1.257 . S
O795 Dy792 2.307 . S
O795 C805 1.266 . S
O796 Dy793 2.298 . S
O796 C805 1.236 . S
O797 Dy792 2.395 . S
O797 C814 1.255 . S
O798 Dy792 2.379 . S
O798 C814 1.249 . S
O799 Dy793 2.275 . S
O799 C815 1.254 . S
O800 Dy792 2.339 . S
O800 C815 1.257 . S
O801 Dy793 2.307 . S
O801 C816 1.266 . S
O802 Dy792 2.298 . S
O802 C816 1.236 . S
O803 Dy793 2.395 . S
O803 C823 1.255 . S
O804 Dy793 2.379 . S
O804 C823 1.249 . S
C805 O795 1.266 . S
C805 O796 1.236 . S
O806 Dy792 2.275 . S
O806 C794 1.254 . S
O807 Dy793 2.339 . S
O807 C794 1.257 . S
C808 C811 1.344 . S
C808 C812 1.328 . S
C808 C814 1.516 . S
C809 C810 1.304 . S
C809 C813 1.323 . S
C810 C809 1.304 . S
C810 C811 1.371 . S
C810 H824 0.930 . S
C811 C808 1.344 . S
C811 C810 1.371 . S
C811 H825 0.931 . S
C812 C808 1.328 . S
C812 C813 1.433 . S
C812 H826 0.931 . S
C813 C809 1.323 . S
C813 C812 1.433 . S
C813 H827 0.933 . S
C814 Dy792 2.738 . S
C814 O797 1.255 . S
C814 O798 1.249 . S
C814 C808 1.516 . S
C815 O799 1.254 . S
C815 O800 1.257 . S
C816 O801 1.266 . S
C816 O802 1.236 . S
C817 C820 1.344 . S
C817 C821 1.328 . S
C817 C823 1.516 . S
C818 C819 1.304 . S
C818 C822 1.323 . S
C819 C818 1.304 . S
C819 C820 1.371 . S
C819 H828 0.930 . S
C820 C817 1.344 . S
C820 C819 1.371 . S
C820 H829 0.931 . S
C821 C817 1.328 . S
C821 C822 1.433 . S
C821 H830 0.931 . S
C822 C818 1.323 . S
C822 C821 1.433 . S
C822 H831 0.933 . S
C823 Dy793 2.738 . S
C823 O803 1.255 . S
C823 O804 1.249 . S
C823 C817 1.516 . S
H824 C810 0.930 . S
H825 C811 0.931 . S
H826 C812 0.931 . S
H827 C813 0.933 . S
H828 C819 0.930 . S
H829 C820 0.931 . S
H830 C821 0.931 . S
H831 C822 0.933 . S
Dy832 O835 2.307 . S
Dy832 O837 2.395 . S
Dy832 O838 2.379 . S
Dy832 O840 2.339 . S
Dy832 O842 2.298 . S
Dy832 O846 2.275 . S
Dy832 C854 2.738 . S
Dy833 O836 2.298 . S
Dy833 O839 2.275 . S
Dy833 O841 2.307 . S
Dy833 O843 2.395 . S
Dy833 O844 2.379 . S
Dy833 O847 2.339 . S
Dy833 C863 2.738 . S
C834 O846 1.254 . S
C834 O847 1.257 . S
O835 Dy832 2.307 . S
O835 C845 1.266 . S
O836 Dy833 2.298 . S
O836 C845 1.236 . S
O837 Dy832 2.395 . S
O837 C854 1.255 . S
O838 Dy832 2.379 . S
O838 C854 1.249 . S
O839 Dy833 2.275 . S
O839 C855 1.254 . S
O840 Dy832 2.339 . S
O840 C855 1.257 . S
O841 Dy833 2.307 . S
O841 C856 1.266 . S
O842 Dy832 2.298 . S
O842 C856 1.236 . S
O843 Dy833 2.395 . S
O843 C863 1.255 . S
O844 Dy833 2.379 . S
O844 C863 1.249 . S
C845 O835 1.266 . S
C845 O836 1.236 . S
O846 Dy832 2.275 . S
O846 C834 1.254 . S
O847 Dy833 2.339 . S
O847 C834 1.257 . S
C848 C851 1.344 . S
C848 C852 1.328 . S
C848 C854 1.516 . S
C849 C850 1.304 . S
C849 C853 1.323 . S
C850 C849 1.304 . S
C850 C851 1.371 . S
C850 H864 0.930 . S
C851 C848 1.344 . S
C851 C850 1.371 . S
C851 H865 0.931 . S
C852 C848 1.328 . S
C852 C853 1.433 . S
C852 H866 0.931 . S
C853 C849 1.323 . S
C853 C852 1.433 . S
C853 H867 0.933 . S
C854 Dy832 2.738 . S
C854 O837 1.255 . S
C854 O838 1.249 . S
C854 C848 1.516 . S
C855 O839 1.254 . S
C855 O840 1.257 . S
C856 O841 1.266 . S
C856 O842 1.236 . S
C857 C860 1.344 . S
C857 C861 1.328 . S
C857 C863 1.516 . S
C858 C859 1.304 . S
C858 C862 1.323 . S
C859 C858 1.304 . S
C859 C860 1.371 . S
C859 H868 0.930 . S
C860 C857 1.344 . S
C860 C859 1.371 . S
C860 H869 0.931 . S
C861 C857 1.328 . S
C861 C862 1.433 . S
C861 H870 0.931 . S
C862 C858 1.323 . S
C862 C861 1.433 . S
C862 H871 0.933 . S
C863 Dy833 2.738 . S
C863 O843 1.255 . S
C863 O844 1.249 . S
C863 C857 1.516 . S
H864 C850 0.930 . S
H865 C851 0.931 . S
H866 C852 0.931 . S
H867 C853 0.933 . S
H868 C859 0.930 . S
H869 C860 0.931 . S
H870 C861 0.931 . S
H871 C862 0.933 . S
Dy872 O875 2.307 . S
Dy872 O877 2.395 . S
Dy872 O878 2.379 . S
Dy872 O880 2.339 . S
Dy872 O882 2.298 . S
Dy872 O886 2.275 . S
Dy872 C894 2.738 . S
Dy873 O876 2.298 . S
Dy873 O879 2.275 . S
Dy873 O881 2.307 . S
Dy873 O883 2.395 . S
Dy873 O884 2.379 . S
Dy873 O887 2.339 . S
Dy873 C903 2.738 . S
C874 O886 1.254 . S
C874 O887 1.257 . S
O875 Dy872 2.307 . S
O875 C885 1.266 . S
O876 Dy873 2.298 . S
O876 C885 1.236 . S
O877 Dy872 2.395 . S
O877 C894 1.255 . S
O878 Dy872 2.379 . S
O878 C894 1.249 . S
O879 Dy873 2.275 . S
O879 C895 1.254 . S
O880 Dy872 2.339 . S
O880 C895 1.257 . S
O881 Dy873 2.307 . S
O881 C896 1.266 . S
O882 Dy872 2.298 . S
O882 C896 1.236 . S
O883 Dy873 2.395 . S
O883 C903 1.255 . S
O884 Dy873 2.379 . S
O884 C903 1.249 . S
C885 O875 1.266 . S
C885 O876 1.236 . S
O886 Dy872 2.275 . S
O886 C874 1.254 . S
O887 Dy873 2.339 . S
O887 C874 1.257 . S
C888 C891 1.344 . S
C888 C892 1.328 . S
C888 C894 1.516 . S
C889 C890 1.304 . S
C889 C893 1.323 . S
C890 C889 1.304 . S
C890 C891 1.371 . S
C890 H904 0.930 . S
C891 C888 1.344 . S
C891 C890 1.371 . S
C891 H905 0.931 . S
C892 C888 1.328 . S
C892 C893 1.433 . S
C892 H906 0.931 . S
C893 C889 1.323 . S
C893 C892 1.433 . S
C893 H907 0.933 . S
C894 Dy872 2.738 . S
C894 O877 1.255 . S
C894 O878 1.249 . S
C894 C888 1.516 . S
C895 O879 1.254 . S
C895 O880 1.257 . S
C896 O881 1.266 . S
C896 O882 1.236 . S
C897 C900 1.344 . S
C897 C901 1.328 . S
C897 C903 1.516 . S
C898 C899 1.304 . S
C898 C902 1.323 . S
C899 C898 1.304 . S
C899 C900 1.371 . S
C899 H908 0.930 . S
C900 C897 1.344 . S
C900 C899 1.371 . S
C900 H909 0.931 . S
C901 C897 1.328 . S
C901 C902 1.433 . S
C901 H910 0.931 . S
C902 C898 1.323 . S
C902 C901 1.433 . S
C902 H911 0.933 . S
C903 Dy873 2.738 . S
C903 O883 1.255 . S
C903 O884 1.249 . S
C903 C897 1.516 . S
H904 C890 0.930 . S
H905 C891 0.931 . S
H906 C892 0.931 . S
H907 C893 0.933 . S
H908 C899 0.930 . S
H909 C900 0.931 . S
H910 C901 0.931 . S
H911 C902 0.933 . S
Dy912 O915 2.307 . S
Dy912 O917 2.395 1_455 S
Dy912 O918 2.379 1_455 S
Dy912 O920 2.339 . S
Dy912 O922 2.298 . S
Dy912 O926 2.275 . S
Dy912 C934 2.738 1_455 S
Dy913 O916 2.298 . S
Dy913 O919 2.275 . S
Dy913 O921 2.307 . S
Dy913 O923 2.395 . S
Dy913 O924 2.379 1_554 S
Dy913 O927 2.339 1_554 S
Dy913 C943 2.738 . S
C914 O926 1.254 1_556 S
C914 O927 1.257 . S
O915 Dy912 2.307 . S
O915 C925 1.266 . S
O916 Dy913 2.298 . S
O916 C925 1.236 . S
O917 Dy912 2.395 1_655 S
O917 C934 1.255 . S
O918 Dy912 2.379 1_655 S
O918 C934 1.249 . S
O919 Dy913 2.275 . S
O919 C935 1.254 . S
O920 Dy912 2.339 . S
O920 C935 1.257 . S
O921 Dy913 2.307 . S
O921 C936 1.266 . S
O922 Dy912 2.298 . S
O922 C936 1.236 . S
O923 Dy913 2.395 . S
O923 C943 1.255 . S
O924 Dy913 2.379 1_556 S
O924 C943 1.249 1_556 S
C925 O915 1.266 . S
C925 O916 1.236 . S
O926 Dy912 2.275 . S
O926 C914 1.254 1_554 S
O927 Dy913 2.339 1_556 S
O927 C914 1.257 . S
C928 C931 1.344 . S
C928 C932 1.328 . S
C928 C934 1.516 . S
C929 C930 1.304 . S
C929 C933 1.323 . S
C930 C929 1.304 . S
C930 C931 1.371 . S
C930 H944 0.930 . S
C931 C928 1.344 . S
C931 C930 1.371 . S
C931 H945 0.931 . S
C932 C928 1.328 . S
C932 C933 1.433 . S
C932 H946 0.931 . S
C933 C929 1.323 . S
C933 C932 1.433 . S
C933 H947 0.933 . S
C934 Dy912 2.738 1_655 S
C934 O917 1.255 . S
C934 O918 1.249 . S
C934 C928 1.516 . S
C935 O919 1.254 . S
C935 O920 1.257 . S
C936 O921 1.266 . S
C936 O922 1.236 . S
C937 C940 1.344 . S
C937 C941 1.328 1_554 S
C937 C943 1.516 . S
C938 C939 1.304 1_556 S
C938 C942 1.323 . S
C939 C938 1.304 1_554 S
C939 C940 1.371 . S
C939 H948 0.930 . S
C940 C937 1.344 . S
C940 C939 1.371 . S
C940 H949 0.931 . S
C941 C937 1.328 1_556 S
C941 C942 1.433 . S
C941 H950 0.931 . S
C942 C938 1.323 . S
C942 C941 1.433 . S
C942 H951 0.933 . S
C943 Dy913 2.738 . S
C943 O923 1.255 . S
C943 O924 1.249 1_554 S
C943 C937 1.516 . S
H944 C930 0.930 . S
H945 C931 0.931 . S
H946 C932 0.931 . S
H947 C933 0.933 . S
H948 C939 0.930 . S
H949 C940 0.931 . S
H950 C941 0.931 . S
H951 C942 0.933 . S
H952 C958 0.930 . S
H953 C961 0.930 . S
H954 C962 0.930 . S
H955 C963 0.930 . S
H956 C966 0.930 . S
H957 C967 0.930 . S
C958 H952 0.930 . S
C958 C959 1.355 1_655 S
C958 C960 1.415 . S
C959 C958 1.355 1_455 S
C959 C961 1.419 . S
C960 C958 1.415 . S
C960 C965 1.425 1_655 S
C960 C967 1.409 . S
C961 H953 0.930 . S
C961 C959 1.419 . S
C961 C962 1.362 . S
C962 H954 0.930 . S
C962 C961 1.362 . S
C962 C965 1.409 . S
C963 H955 0.930 . S
C963 C964 1.355 . S
C963 C965 1.415 . S
C964 C963 1.355 . S
C964 C966 1.419 1_455 S
C965 C960 1.425 1_455 S
C965 C962 1.409 . S
C965 C963 1.415 . S
C966 H956 0.930 . S
C966 C964 1.419 1_655 S
C966 C967 1.362 . S
C967 H957 0.930 . S
C967 C960 1.409 . S
C967 C966 1.362 . S
H968 C974 0.930 . S
H969 C977 0.930 . S
H970 C978 0.930 . S
H971 C979 0.930 . S
H972 C982 0.930 . S
H973 C983 0.930 . S
C974 H968 0.930 . S
C974 C975 1.355 . S
C974 C976 1.415 . S
C975 C974 1.355 . S
C975 C977 1.419 . S
C976 C974 1.415 . S
C976 C981 1.425 . S
C976 C983 1.409 . S
C977 H969 0.930 . S
C977 C975 1.419 . S
C977 C978 1.362 . S
C978 H970 0.930 . S
C978 C977 1.362 . S
C978 C981 1.409 . S
C979 H971 0.930 . S
C979 C980 1.355 . S
C979 C981 1.415 . S
C980 C979 1.355 . S
C980 C982 1.419 . S
C981 C976 1.425 . S
C981 C978 1.409 . S
C981 C979 1.415 . S
C982 H972 0.930 . S
C982 C980 1.419 . S
C982 C983 1.362 . S
C983 H973 0.930 . S
C983 C976 1.409 . S
C983 C982 1.362 . S
H984 C990 0.930 . S
H985 C993 0.930 . S
H986 C994 0.930 . S
H987 C995 0.930 . S
H988 C998 0.930 . S
H989 C999 0.930 . S
C990 H984 0.930 . S
C990 C991 1.355 . S
C990 C992 1.415 . S
C991 C990 1.355 . S
C991 C993 1.419 . S
C992 C990 1.415 . S
C992 C997 1.425 . S
C992 C999 1.409 . S
C993 H985 0.930 . S
C993 C991 1.419 . S
C993 C994 1.362 . S
C994 H986 0.930 . S
C994 C993 1.362 . S
C994 C997 1.409 . S
C995 H987 0.930 . S
C995 C996 1.355 . S
C995 C997 1.415 . S
C996 C995 1.355 . S
C996 C998 1.419 . S
C997 C992 1.425 . S
C997 C994 1.409 . S
C997 C995 1.415 . S
C998 H988 0.930 . S
C998 C996 1.419 . S
C998 C999 1.362 . S
C999 H989 0.930 . S
C999 C992 1.409 . S
C999 C998 1.362 . S
H1000 C1006 0.930 . S
H1001 C1009 0.930 . S
H1002 C1010 0.930 . S
H1003 C1011 0.930 . S
H1004 C1014 0.930 . S
H1005 C1015 0.930 . S
C1006 H1000 0.930 . S
C1006 C1007 1.355 . S
C1006 C1008 1.415 . S
C1007 C1006 1.355 . S
C1007 C1009 1.419 . S
C1008 C1006 1.415 . S
C1008 C1013 1.425 . S
C1008 C1015 1.409 . S
C1009 H1001 0.930 . S
C1009 C1007 1.419 . S
C1009 C1010 1.362 . S
C1010 H1002 0.930 . S
C1010 C1009 1.362 . S
C1010 C1013 1.409 . S
C1011 H1003 0.930 . S
C1011 C1012 1.355 . S
C1011 C1013 1.415 . S
C1012 C1011 1.355 . S
C1012 C1014 1.419 . S
C1013 C1008 1.425 . S
C1013 C1010 1.409 . S
C1013 C1011 1.415 . S
C1014 H1004 0.930 . S
C1014 C1012 1.419 . S
C1014 C1015 1.362 . S
C1015 H1005 0.930 . S
C1015 C1008 1.409 . S
C1015 C1014 1.362 . S
H1016 C1022 0.930 . S
H1017 C1025 0.930 . S
H1018 C1026 0.930 . S
H1019 C1027 0.930 . S
H1020 C1030 0.930 . S
H1021 C1031 0.930 . S
C1022 H1016 0.930 . S
C1022 C1023 1.355 . S
C1022 C1024 1.415 . S
C1023 C1022 1.355 . S
C1023 C1025 1.419 . S
C1024 C1022 1.415 . S
C1024 C1029 1.425 . S
C1024 C1031 1.409 . S
C1025 H1017 0.930 . S
C1025 C1023 1.419 . S
C1025 C1026 1.362 . S
C1026 H1018 0.930 . S
C1026 C1025 1.362 . S
C1026 C1029 1.409 . S
C1027 H1019 0.930 . S
C1027 C1028 1.355 . S
C1027 C1029 1.415 . S
C1028 C1027 1.355 . S
C1028 C1030 1.419 . S
C1029 C1024 1.425 . S
C1029 C1026 1.409 . S
C1029 C1027 1.415 . S
C1030 H1020 0.930 . S
C1030 C1028 1.419 . S
C1030 C1031 1.362 . S
C1031 H1021 0.930 . S
C1031 C1024 1.409 . S
C1031 C1030 1.362 . S
H1032 C1038 0.930 . S
H1033 C1041 0.930 . S
H1034 C1042 0.930 . S
H1035 C1043 0.930 . S
H1036 C1046 0.930 . S
H1037 C1047 0.930 . S
C1038 H1032 0.930 . S
C1038 C1039 1.355 . S
C1038 C1040 1.415 . S
C1039 C1038 1.355 . S
C1039 C1041 1.419 . S
C1040 C1038 1.415 . S
C1040 C1045 1.425 . S
C1040 C1047 1.409 . S
C1041 H1033 0.930 . S
C1041 C1039 1.419 . S
C1041 C1042 1.362 . S
C1042 H1034 0.930 . S
C1042 C1041 1.362 . S
C1042 C1045 1.409 . S
C1043 H1035 0.930 . S
C1043 C1044 1.355 . S
C1043 C1045 1.415 . S
C1044 C1043 1.355 . S
C1044 C1046 1.419 . S
C1045 C1040 1.425 . S
C1045 C1042 1.409 . S
C1045 C1043 1.415 . S
C1046 H1036 0.930 . S
C1046 C1044 1.419 . S
C1046 C1047 1.362 . S
C1047 H1037 0.930 . S
C1047 C1040 1.409 . S
C1047 C1046 1.362 . S
H1048 C1054 0.930 . S
H1049 C1057 0.930 . S
H1050 C1058 0.930 . S
H1051 C1059 0.930 . S
H1052 C1062 0.930 . S
H1053 C1063 0.930 . S
C1054 H1048 0.930 . S
C1054 C1055 1.355 . S
C1054 C1056 1.415 . S
C1055 C1054 1.355 . S
C1055 C1057 1.419 . S
C1056 C1054 1.415 . S
C1056 C1061 1.425 . S
C1056 C1063 1.409 . S
C1057 H1049 0.930 . S
C1057 C1055 1.419 . S
C1057 C1058 1.362 . S
C1058 H1050 0.930 . S
C1058 C1057 1.362 . S
C1058 C1061 1.409 . S
C1059 H1051 0.930 . S
C1059 C1060 1.355 . S
C1059 C1061 1.415 . S
C1060 C1059 1.355 . S
C1060 C1062 1.419 . S
C1061 C1056 1.425 . S
C1061 C1058 1.409 . S
C1061 C1059 1.415 . S
C1062 H1052 0.930 . S
C1062 C1060 1.419 . S
C1062 C1063 1.362 . S
C1063 H1053 0.930 . S
C1063 C1056 1.409 . S
C1063 C1062 1.362 . S
H1064 C1070 0.930 . S
H1065 C1073 0.930 . S
H1066 C1074 0.930 . S
H1067 C1075 0.930 . S
H1068 C1078 0.930 . S
H1069 C1079 0.930 . S
C1070 H1064 0.930 . S
C1070 C1071 1.355 . S
C1070 C1072 1.415 . S
C1071 C1070 1.355 . S
C1071 C1073 1.419 . S
C1072 C1070 1.415 . S
C1072 C1077 1.425 . S
C1072 C1079 1.409 . S
C1073 H1065 0.930 . S
C1073 C1071 1.419 . S
C1073 C1074 1.362 . S
C1074 H1066 0.930 . S
C1074 C1073 1.362 . S
C1074 C1077 1.409 . S
C1075 H1067 0.930 . S
C1075 C1076 1.355 . S
C1075 C1077 1.415 . S
C1076 C1075 1.355 . S
C1076 C1078 1.419 . S
C1077 C1072 1.425 . S
C1077 C1074 1.409 . S
C1077 C1075 1.415 . S
C1078 H1068 0.930 . S
C1078 C1076 1.419 . S
C1078 C1079 1.362 . S
C1079 H1069 0.930 . S
C1079 C1072 1.409 . S
C1079 C1078 1.362 . S
H1080 C1086 0.930 . S
H1081 C1089 0.930 . S
H1082 C1090 0.930 . S
H1083 C1091 0.930 . S
H1084 C1094 0.930 . S
H1085 C1095 0.930 . S
C1086 H1080 0.930 . S
C1086 C1087 1.355 1_455 S
C1086 C1088 1.415 . S
C1087 C1086 1.355 1_655 S
C1087 C1089 1.419 . S
C1088 C1086 1.415 . S
C1088 C1093 1.425 1_455 S
C1088 C1095 1.409 . S
C1089 H1081 0.930 . S
C1089 C1087 1.419 . S
C1089 C1090 1.362 . S
C1090 H1082 0.930 . S
C1090 C1089 1.362 . S
C1090 C1093 1.409 . S
C1091 H1083 0.930 . S
C1091 C1092 1.355 1_655 S
C1091 C1093 1.415 . S
C1092 C1091 1.355 1_455 S
C1092 C1094 1.419 . S
C1093 C1088 1.425 1_655 S
C1093 C1090 1.409 . S
C1093 C1091 1.415 . S
C1094 H1084 0.930 . S
C1094 C1092 1.419 . S
C1094 C1095 1.362 . S
C1095 H1085 0.930 . S
C1095 C1088 1.409 . S
C1095 C1094 1.362 . S
H1096 C1102 0.930 . S
H1097 C1105 0.930 . S
H1098 C1106 0.930 . S
H1099 C1107 0.930 . S
H1100 C1110 0.930 . S
H1101 C1111 0.930 . S
C1102 H1096 0.930 . S
C1102 C1103 1.355 . S
C1102 C1104 1.415 . S
C1103 C1102 1.355 . S
C1103 C1105 1.419 . S
C1104 C1102 1.415 . S
C1104 C1109 1.425 . S
C1104 C1111 1.409 . S
C1105 H1097 0.930 . S
C1105 C1103 1.419 . S
C1105 C1106 1.362 . S
C1106 H1098 0.930 . S
C1106 C1105 1.362 . S
C1106 C1109 1.409 . S
C1107 H1099 0.930 . S
C1107 C1108 1.355 . S
C1107 C1109 1.415 . S
C1108 C1107 1.355 . S
C1108 C1110 1.419 . S
C1109 C1104 1.425 . S
C1109 C1106 1.409 . S
C1109 C1107 1.415 . S
C1110 H1100 0.930 . S
C1110 C1108 1.419 . S
C1110 C1111 1.362 . S
C1111 H1101 0.930 . S
C1111 C1104 1.409 . S
C1111 C1110 1.362 . S
H1112 C1118 0.930 . S
H1113 C1121 0.930 . S
H1114 C1122 0.930 . S
H1115 C1123 0.930 . S
H1116 C1126 0.930 . S
H1117 C1127 0.930 . S
C1118 H1112 0.930 . S
C1118 C1119 1.355 . S
C1118 C1120 1.415 . S
C1119 C1118 1.355 . S
C1119 C1121 1.419 . S
C1120 C1118 1.415 . S
C1120 C1125 1.425 . S
C1120 C1127 1.409 . S
C1121 H1113 0.930 . S
C1121 C1119 1.419 . S
C1121 C1122 1.362 . S
C1122 H1114 0.930 . S
C1122 C1121 1.362 . S
C1122 C1125 1.409 . S
C1123 H1115 0.930 . S
C1123 C1124 1.355 . S
C1123 C1125 1.415 . S
C1124 C1123 1.355 . S
C1124 C1126 1.419 . S
C1125 C1120 1.425 . S
C1125 C1122 1.409 . S
C1125 C1123 1.415 . S
C1126 H1116 0.930 . S
C1126 C1124 1.419 . S
C1126 C1127 1.362 . S
C1127 H1117 0.930 . S
C1127 C1120 1.409 . S
C1127 C1126 1.362 . S
H1128 C1134 0.930 . S
H1129 C1137 0.930 . S
H1130 C1138 0.930 . S
H1131 C1139 0.930 . S
H1132 C1142 0.930 . S
H1133 C1143 0.930 . S
C1134 H1128 0.930 . S
C1134 C1135 1.355 . S
C1134 C1136 1.415 . S
C1135 C1134 1.355 . S
C1135 C1137 1.419 . S
C1136 C1134 1.415 . S
C1136 C1141 1.425 . S
C1136 C1143 1.409 . S
C1137 H1129 0.930 . S
C1137 C1135 1.419 . S
C1137 C1138 1.362 . S
C1138 H1130 0.930 . S
C1138 C1137 1.362 . S
C1138 C1141 1.409 . S
C1139 H1131 0.930 . S
C1139 C1140 1.355 . S
C1139 C1141 1.415 . S
C1140 C1139 1.355 . S
C1140 C1142 1.419 . S
C1141 C1136 1.425 . S
C1141 C1138 1.409 . S
C1141 C1139 1.415 . S
C1142 H1132 0.930 . S
C1142 C1140 1.419 . S
C1142 C1143 1.362 . S
C1143 H1133 0.930 . S
C1143 C1136 1.409 . S
C1143 C1142 1.362 . S
H1144 C1150 0.930 . S
H1145 C1153 0.930 . S
H1146 C1154 0.938 1_455 S
H1147 C1155 0.930 . S
H1148 C1158 0.930 . S
H1149 C1159 0.926 1_565 S
C1150 H1144 0.930 . S
C1150 C1151 1.355 . S
C1150 C1152 1.415 . S
C1151 C1150 1.355 . S
C1151 C1153 1.419 . S
C1152 C1150 1.415 . S
C1152 C1157 1.425 1_655 S
C1152 C1159 1.409 1_655 S
C1153 H1145 0.930 . S
C1153 C1151 1.419 . S
C1153 C1154 1.367 . S
C1154 H1146 0.938 1_655 S
C1154 C1153 1.367 . S
C1154 C1157 1.399 1_655 S
C1155 H1147 0.930 . S
C1155 C1156 1.355 . S
C1155 C1157 1.415 . S
C1156 C1155 1.355 . S
C1156 C1158 1.419 . S
C1157 C1152 1.425 1_455 S
C1157 C1154 1.399 1_455 S
C1157 C1155 1.415 . S
C1158 H1148 0.930 . S
C1158 C1156 1.419 . S
C1158 C1159 1.362 . S
C1159 H1149 0.926 1_545 S
C1159 C1152 1.409 1_455 S
C1159 C1158 1.362 . S
H1160 C1166 0.930 . S
H1161 C1169 0.930 . S
H1162 C1170 0.930 . S
H1163 C1171 0.930 . S
H1164 C1174 0.930 . S
H1165 C1175 0.930 . S
C1166 H1160 0.930 . S
C1166 C1167 1.355 . S
C1166 C1168 1.415 . S
C1167 C1166 1.355 . S
C1167 C1169 1.419 . S
C1168 C1166 1.415 . S
C1168 C1173 1.425 . S
C1168 C1175 1.409 . S
C1169 H1161 0.930 . S
C1169 C1167 1.419 . S
C1169 C1170 1.362 . S
C1170 H1162 0.930 . S
C1170 C1169 1.362 . S
C1170 C1173 1.409 . S
C1171 H1163 0.930 . S
C1171 C1172 1.355 . S
C1171 C1173 1.415 . S
C1172 C1171 1.355 . S
C1172 C1174 1.419 . S
C1173 C1168 1.425 . S
C1173 C1170 1.409 . S
C1173 C1171 1.415 . S
C1174 H1164 0.930 . S
C1174 C1172 1.419 . S
C1174 C1175 1.362 . S
C1175 H1165 0.930 . S
C1175 C1168 1.409 . S
C1175 C1174 1.362 . S
H1176 C1182 0.930 . S
H1177 C1185 0.930 . S
H1178 C1186 0.930 . S
H1179 C1187 0.930 . S
H1180 C1190 0.930 . S
H1181 C1191 0.930 . S
C1182 H1176 0.930 . S
C1182 C1183 1.355 . S
C1182 C1184 1.415 . S
C1183 C1182 1.355 . S
C1183 C1185 1.419 . S
C1184 C1182 1.415 . S
C1184 C1189 1.425 . S
C1184 C1191 1.409 . S
C1185 H1177 0.930 . S
C1185 C1183 1.419 . S
C1185 C1186 1.362 . S
C1186 H1178 0.930 . S
C1186 C1185 1.362 . S
C1186 C1189 1.409 . S
C1187 H1179 0.930 . S
C1187 C1188 1.355 . S
C1187 C1189 1.415 . S
C1188 C1187 1.355 . S
C1188 C1190 1.419 . S
C1189 C1184 1.425 . S
C1189 C1186 1.409 . S
C1189 C1187 1.415 . S
C1190 H1180 0.930 . S
C1190 C1188 1.419 . S
C1190 C1191 1.362 . S
C1191 H1181 0.930 . S
C1191 C1184 1.409 . S
C1191 C1190 1.362 . S
H1192 C1198 0.930 . S
H1193 C1201 0.930 . S
H1194 C1202 0.930 . S
H1195 C1203 0.930 . S
H1196 C1206 0.930 . S
H1197 C1207 0.930 . S
C1198 H1192 0.930 . S
C1198 C1199 1.355 . S
C1198 C1200 1.415 . S
C1199 C1198 1.355 . S
C1199 C1201 1.419 . S
C1200 C1198 1.415 . S
C1200 C1205 1.425 . S
C1200 C1207 1.409 . S
C1201 H1193 0.930 . S
C1201 C1199 1.419 . S
C1201 C1202 1.362 . S
C1202 H1194 0.930 . S
C1202 C1201 1.362 . S
C1202 C1205 1.409 . S
C1203 H1195 0.930 . S
C1203 C1204 1.355 . S
C1203 C1205 1.415 . S
C1204 C1203 1.355 . S
C1204 C1206 1.419 . S
C1205 C1200 1.425 . S
C1205 C1202 1.409 . S
C1205 C1203 1.415 . S
C1206 H1196 0.930 . S
C1206 C1204 1.419 . S
C1206 C1207 1.362 . S
C1207 H1197 0.930 . S
C1207 C1200 1.409 . S
C1207 C1206 1.362 . S
H1208 C1214 0.951 . S
H1209 C1217 0.930 . S
H1210 C1218 0.937 . S
H1211 C1219 0.930 . S
H1212 C1222 0.930 . S
H1213 C1223 0.930 1_556 S
C1214 H1208 0.951 . S
C1214 C1215 1.354 1_556 S
C1214 C1216 1.395 1_556 S
C1215 C1214 1.354 1_554 S
C1215 C1217 1.419 . S
C1216 C1214 1.395 1_554 S
C1216 C1221 1.425 . S
C1216 C1223 1.409 . S
C1217 H1209 0.930 . S
C1217 C1215 1.419 . S
C1217 C1218 1.352 1_565 S
C1218 H1210 0.937 . S
C1218 C1217 1.352 1_545 S
C1218 C1221 1.413 1_545 S
C1219 H1211 0.930 . S
C1219 C1220 1.355 . S
C1219 C1221 1.415 1_545 S
C1220 C1219 1.355 . S
C1220 C1222 1.419 1_545 S
C1221 C1216 1.425 . S
C1221 C1218 1.413 1_565 S
C1221 C1219 1.415 1_565 S
C1222 H1212 0.930 . S
C1222 C1220 1.419 1_565 S
C1222 C1223 1.362 . S
C1223 H1213 0.930 1_554 S
C1223 C1216 1.409 . S
C1223 C1222 1.362 . S
H1224 C1230 0.930 . S
H1225 C1233 0.930 . S
H1226 C1234 0.930 . S
H1227 C1235 0.930 . S
H1228 C1238 0.930 . S
H1229 C1239 0.930 . S
C1230 H1224 0.930 . S
C1230 C1231 1.355 . S
C1230 C1232 1.415 . S
C1231 C1230 1.355 . S
C1231 C1233 1.419 . S
C1232 C1230 1.415 . S
C1232 C1237 1.425 . S
C1232 C1239 1.409 . S
C1233 H1225 0.930 . S
C1233 C1231 1.419 . S
C1233 C1234 1.362 . S
C1234 H1226 0.930 . S
C1234 C1233 1.362 . S
C1234 C1237 1.409 . S
C1235 H1227 0.930 . S
C1235 C1236 1.355 . S
C1235 C1237 1.415 . S
C1236 C1235 1.355 . S
C1236 C1238 1.419 . S
C1237 C1232 1.425 . S
C1237 C1234 1.409 . S
C1237 C1235 1.415 . S
C1238 H1228 0.930 . S
C1238 C1236 1.419 . S
C1238 C1239 1.362 . S
C1239 H1229 0.930 . S
C1239 C1232 1.409 . S
C1239 C1238 1.362 . S
H1240 C1246 0.930 . S
H1241 C1249 0.930 . S
H1242 C1250 0.930 . S
H1243 C1251 0.930 . S
H1244 C1254 0.930 . S
H1245 C1255 0.930 . S
C1246 H1240 0.930 . S
C1246 C1247 1.355 . S
C1246 C1248 1.415 . S
C1247 C1246 1.355 . S
C1247 C1249 1.419 . S
C1248 C1246 1.415 . S
C1248 C1253 1.425 . S
C1248 C1255 1.409 . S
C1249 H1241 0.930 . S
C1249 C1247 1.419 . S
C1249 C1250 1.362 . S
C1250 H1242 0.930 . S
C1250 C1249 1.362 . S
C1250 C1253 1.409 . S
C1251 H1243 0.930 . S
C1251 C1252 1.355 . S
C1251 C1253 1.415 . S
C1252 C1251 1.355 . S
C1252 C1254 1.419 . S
C1253 C1248 1.425 . S
C1253 C1250 1.409 . S
C1253 C1251 1.415 . S
C1254 H1244 0.930 . S
C1254 C1252 1.419 . S
C1254 C1255 1.362 . S
C1255 H1245 0.930 . S
C1255 C1248 1.409 . S
C1255 C1254 1.362 . S
H1256 C1262 0.930 . S
H1257 C1265 0.930 . S
H1258 C1266 0.930 . S
H1259 C1267 0.930 . S
H1260 C1270 0.930 . S
H1261 C1271 0.930 . S
C1262 H1256 0.930 . S
C1262 C1263 1.355 . S
C1262 C1264 1.415 . S
C1263 C1262 1.355 . S
C1263 C1265 1.419 . S
C1264 C1262 1.415 . S
C1264 C1269 1.425 . S
C1264 C1271 1.409 . S
C1265 H1257 0.930 . S
C1265 C1263 1.419 . S
C1265 C1266 1.362 . S
C1266 H1258 0.930 . S
C1266 C1265 1.362 . S
C1266 C1269 1.409 . S
C1267 H1259 0.930 . S
C1267 C1268 1.355 . S
C1267 C1269 1.415 . S
C1268 C1267 1.355 . S
C1268 C1270 1.419 . S
C1269 C1264 1.425 . S
C1269 C1266 1.409 . S
C1269 C1267 1.415 . S
C1270 H1260 0.930 . S
C1270 C1268 1.419 . S
C1270 C1271 1.362 . S
C1271 H1261 0.930 . S
C1271 C1264 1.409 . S
C1271 C1270 1.362 . S
H1272 C1278 0.930 . S
H1273 C1281 0.930 . S
H1274 C1282 0.930 . S
H1275 C1283 0.930 . S
H1276 C1286 0.930 . S
H1277 C1287 0.930 . S
C1278 H1272 0.930 . S
C1278 C1279 1.355 . S
C1278 C1280 1.415 . S
C1279 C1278 1.355 . S
C1279 C1281 1.419 . S
C1280 C1278 1.415 . S
C1280 C1285 1.425 . S
C1280 C1287 1.409 . S
C1281 H1273 0.930 . S
C1281 C1279 1.419 . S
C1281 C1282 1.362 . S
C1282 H1274 0.930 . S
C1282 C1281 1.362 . S
C1282 C1285 1.409 . S
C1283 H1275 0.930 . S
C1283 C1284 1.355 . S
C1283 C1285 1.415 . S
C1284 C1283 1.355 . S
C1284 C1286 1.419 . S
C1285 C1280 1.425 . S
C1285 C1282 1.409 . S
C1285 C1283 1.415 . S
C1286 H1276 0.930 . S
C1286 C1284 1.419 . S
C1286 C1287 1.362 . S
C1287 H1277 0.930 . S
C1287 C1280 1.409 . S
C1287 C1286 1.362 . S
H1288 C1294 0.930 . S
H1289 C1297 0.930 . S
H1290 C1298 0.930 . S
H1291 C1299 0.930 . S
H1292 C1302 0.930 . S
H1293 C1303 0.930 . S
C1294 H1288 0.930 . S
C1294 C1295 1.355 . S
C1294 C1296 1.415 . S
C1295 C1294 1.355 . S
C1295 C1297 1.419 . S
C1296 C1294 1.415 . S
C1296 C1301 1.425 . S
C1296 C1303 1.409 . S
C1297 H1289 0.930 . S
C1297 C1295 1.419 . S
C1297 C1298 1.362 . S
C1298 H1290 0.930 . S
C1298 C1297 1.362 . S
C1298 C1301 1.409 . S
C1299 H1291 0.930 . S
C1299 C1300 1.355 . S
C1299 C1301 1.415 . S
C1300 C1299 1.355 . S
C1300 C1302 1.419 . S
C1301 C1296 1.425 . S
C1301 C1298 1.409 . S
C1301 C1299 1.415 . S
C1302 H1292 0.930 . S
C1302 C1300 1.419 . S
C1302 C1303 1.362 . S
C1303 H1293 0.930 . S
C1303 C1296 1.409 . S
C1303 C1302 1.362 . S
H1304 C1310 0.930 . S
H1305 C1313 0.930 . S
H1306 C1314 0.930 . S
H1307 C1315 0.930 . S
H1308 C1318 0.930 . S
H1309 C1319 0.930 . S
C1310 H1304 0.930 . S
C1310 C1311 1.355 . S
C1310 C1312 1.415 . S
C1311 C1310 1.355 . S
C1311 C1313 1.419 . S
C1312 C1310 1.415 . S
C1312 C1317 1.425 . S
C1312 C1319 1.409 . S
C1313 H1305 0.930 . S
C1313 C1311 1.419 . S
C1313 C1314 1.362 . S
C1314 H1306 0.930 . S
C1314 C1313 1.362 . S
C1314 C1317 1.409 . S
C1315 H1307 0.930 . S
C1315 C1316 1.355 . S
C1315 C1317 1.415 . S
C1316 C1315 1.355 . S
C1316 C1318 1.419 . S
C1317 C1312 1.425 . S
C1317 C1314 1.409 . S
C1317 C1315 1.415 . S
C1318 H1308 0.930 . S
C1318 C1316 1.419 . S
C1318 C1319 1.362 . S
C1319 H1309 0.930 . S
C1319 C1312 1.409 . S
C1319 C1318 1.362 . S
H1320 C1326 0.930 . S
H1321 C1329 0.930 . S
H1322 C1330 0.930 . S
H1323 C1331 0.930 . S
H1324 C1334 0.930 . S
H1325 C1335 0.930 . S
C1326 H1320 0.930 . S
C1326 C1327 1.355 . S
C1326 C1328 1.415 . S
C1327 C1326 1.355 . S
C1327 C1329 1.419 . S
C1328 C1326 1.415 . S
C1328 C1333 1.425 . S
C1328 C1335 1.409 . S
C1329 H1321 0.930 . S
C1329 C1327 1.419 . S
C1329 C1330 1.362 . S
C1330 H1322 0.930 . S
C1330 C1329 1.362 . S
C1330 C1333 1.409 . S
C1331 H1323 0.930 . S
C1331 C1332 1.355 . S
C1331 C1333 1.415 . S
C1332 C1331 1.355 . S
C1332 C1334 1.419 . S
C1333 C1328 1.425 . S
C1333 C1330 1.409 . S
C1333 C1331 1.415 . S
C1334 H1324 0.930 . S
C1334 C1332 1.419 . S
C1334 C1335 1.362 . S
C1335 H1325 0.930 . S
C1335 C1328 1.409 . S
C1335 C1334 1.362 . S
H1336 C1342 0.930 . S
H1337 C1345 0.930 . S
H1338 C1346 0.930 . S
H1339 C1347 0.930 . S
H1340 C1350 0.930 1_556 S
H1341 C1351 0.930 1_556 S
C1342 H1336 0.930 . S
C1342 C1343 1.355 . S
C1342 C1344 1.415 . S
C1343 C1342 1.355 . S
C1343 C1345 1.419 . S
C1344 C1342 1.415 . S
C1344 C1349 1.425 . S
C1344 C1351 1.409 . S
C1345 H1337 0.930 . S
C1345 C1343 1.419 . S
C1345 C1346 1.362 . S
C1346 H1338 0.930 . S
C1346 C1345 1.362 . S
C1346 C1349 1.409 . S
C1347 H1339 0.930 . S
C1347 C1348 1.355 . S
C1347 C1349 1.415 . S
C1348 C1347 1.355 . S
C1348 C1350 1.419 . S
C1349 C1344 1.425 . S
C1349 C1346 1.409 . S
C1349 C1347 1.415 . S
C1350 H1340 0.930 1_554 S
C1350 C1348 1.419 . S
C1350 C1351 1.362 . S
C1351 H1341 0.930 1_554 S
C1351 C1344 1.409 . S
C1351 C1350 1.362 . S
H1352 C1358 0.930 . S
H1353 C1361 0.930 . S
H1354 C1362 0.930 . S
H1355 C1363 0.930 . S
H1356 C1366 0.930 . S
H1357 C1367 0.930 . S
C1358 H1352 0.930 . S
C1358 C1359 1.355 . S
C1358 C1360 1.415 . S
C1359 C1358 1.355 . S
C1359 C1361 1.419 . S
C1360 C1358 1.415 . S
C1360 C1365 1.425 . S
C1360 C1367 1.409 . S
C1361 H1353 0.930 . S
C1361 C1359 1.419 . S
C1361 C1362 1.362 . S
C1362 H1354 0.930 . S
C1362 C1361 1.362 . S
C1362 C1365 1.409 . S
C1363 H1355 0.930 . S
C1363 C1364 1.355 . S
C1363 C1365 1.415 . S
C1364 C1363 1.355 . S
C1364 C1366 1.419 . S
C1365 C1360 1.425 . S
C1365 C1362 1.409 . S
C1365 C1363 1.415 . S
C1366 H1356 0.930 . S
C1366 C1364 1.419 . S
C1366 C1367 1.362 . S
C1367 H1357 0.930 . S
C1367 C1360 1.409 . S
C1367 C1366 1.362 . S
H1368 C1374 0.930 . S
H1369 C1377 0.930 . S
H1370 C1378 0.930 . S
H1371 C1379 0.930 . S
H1372 C1382 0.930 . S
H1373 C1383 0.930 . S
C1374 H1368 0.930 . S
C1374 C1375 1.355 . S
C1374 C1376 1.415 . S
C1375 C1374 1.355 . S
C1375 C1377 1.419 . S
C1376 C1374 1.415 . S
C1376 C1381 1.425 . S
C1376 C1383 1.409 . S
C1377 H1369 0.930 . S
C1377 C1375 1.419 . S
C1377 C1378 1.362 . S
C1378 H1370 0.930 . S
C1378 C1377 1.362 . S
C1378 C1381 1.409 . S
C1379 H1371 0.930 . S
C1379 C1380 1.355 . S
C1379 C1381 1.415 . S
C1380 C1379 1.355 . S
C1380 C1382 1.419 . S
C1381 C1376 1.425 . S
C1381 C1378 1.409 . S
C1381 C1379 1.415 . S
C1382 H1372 0.930 . S
C1382 C1380 1.419 . S
C1382 C1383 1.362 . S
C1383 H1373 0.930 . S
C1383 C1376 1.409 . S
C1383 C1382 1.362 . S
H1384 C1390 0.930 . S
H1385 C1393 0.930 . S
H1386 C1394 0.930 . S
H1387 C1395 0.930 . S
H1388 C1398 0.930 . S
H1389 C1399 0.930 . S
C1390 H1384 0.930 . S
C1390 C1391 1.355 . S
C1390 C1392 1.415 . S
C1391 C1390 1.355 . S
C1391 C1393 1.419 . S
C1392 C1390 1.415 . S
C1392 C1397 1.425 . S
C1392 C1399 1.409 . S
C1393 H1385 0.930 . S
C1393 C1391 1.419 . S
C1393 C1394 1.362 . S
C1394 H1386 0.930 . S
C1394 C1393 1.362 . S
C1394 C1397 1.409 . S
C1395 H1387 0.930 . S
C1395 C1396 1.355 . S
C1395 C1397 1.415 . S
C1396 C1395 1.355 . S
C1396 C1398 1.419 . S
C1397 C1392 1.425 . S
C1397 C1394 1.409 . S
C1397 C1395 1.415 . S
C1398 H1388 0.930 . S
C1398 C1396 1.419 . S
C1398 C1399 1.362 . S
C1399 H1389 0.930 . S
C1399 C1392 1.409 . S
C1399 C1398 1.362 . S
H1400 C1406 0.930 . S
H1401 C1409 0.930 . S
H1402 C1410 0.959 . S
H1403 C1411 0.930 1_655 S
H1404 C1414 0.930 . S
H1405 C1415 0.930 . S
C1406 H1400 0.930 . S
C1406 C1407 1.355 . S
C1406 C1408 1.415 . S
C1407 C1406 1.355 . S
C1407 C1409 1.419 . S
C1408 C1406 1.415 . S
C1408 C1413 1.425 . S
C1408 C1415 1.409 . S
C1409 H1401 0.930 . S
C1409 C1407 1.419 . S
C1409 C1410 1.362 . S
C1410 H1402 0.959 . S
C1410 C1409 1.362 . S
C1410 C1413 1.409 . S
C1411 H1403 0.930 1_455 S
C1411 C1412 1.355 . S
C1411 C1413 1.415 . S
C1412 C1411 1.355 . S
C1412 C1414 1.419 . S
C1413 C1408 1.425 . S
C1413 C1410 1.409 . S
C1413 C1411 1.415 . S
C1414 H1404 0.930 . S
C1414 C1412 1.419 . S
C1414 C1415 1.362 . S
C1415 H1405 0.930 . S
C1415 C1408 1.409 . S
C1415 C1414 1.362 . S
H1416 C1422 0.930 . S
H1417 C1425 0.930 . S
H1418 C1426 0.930 . S
H1419 C1427 0.930 . S
H1420 C1430 0.930 . S
H1421 C1431 0.930 . S
C1422 H1416 0.930 . S
C1422 C1423 1.355 . S
C1422 C1424 1.415 . S
C1423 C1422 1.355 . S
C1423 C1425 1.419 . S
C1424 C1422 1.415 . S
C1424 C1429 1.425 . S
C1424 C1431 1.409 . S
C1425 H1417 0.930 . S
C1425 C1423 1.419 . S
C1425 C1426 1.362 . S
C1426 H1418 0.930 . S
C1426 C1425 1.362 . S
C1426 C1429 1.409 . S
C1427 H1419 0.930 . S
C1427 C1428 1.355 . S
C1427 C1429 1.415 . S
C1428 C1427 1.355 . S
C1428 C1430 1.419 . S
C1429 C1424 1.425 . S
C1429 C1426 1.409 . S
C1429 C1427 1.415 . S
C1430 H1420 0.930 . S
C1430 C1428 1.419 . S
C1430 C1431 1.362 . S
C1431 H1421 0.930 . S
C1431 C1424 1.409 . S
C1431 C1430 1.362 . S
H1432 C1438 0.930 . S
H1433 C1441 0.930 . S
H1434 C1442 0.930 . S
H1435 C1443 0.930 . S
H1436 C1446 0.930 . S
H1437 C1447 0.930 . S
C1438 H1432 0.930 . S
C1438 C1439 1.355 . S
C1438 C1440 1.415 . S
C1439 C1438 1.355 . S
C1439 C1441 1.419 . S
C1440 C1438 1.415 . S
C1440 C1445 1.425 . S
C1440 C1447 1.409 . S
C1441 H1433 0.930 . S
C1441 C1439 1.419 . S
C1441 C1442 1.362 . S
C1442 H1434 0.930 . S
C1442 C1441 1.362 . S
C1442 C1445 1.409 . S
C1443 H1435 0.930 . S
C1443 C1444 1.355 . S
C1443 C1445 1.415 . S
C1444 C1443 1.355 . S
C1444 C1446 1.419 1_556 S
C1445 C1440 1.425 . S
C1445 C1442 1.409 . S
C1445 C1443 1.415 . S
C1446 H1436 0.930 . S
C1446 C1444 1.419 1_554 S
C1446 C1447 1.362 1_554 S
C1447 H1437 0.930 . S
C1447 C1440 1.409 . S
C1447 C1446 1.362 1_556 S
H1448 C1454 0.930 . S
H1449 C1457 0.930 . S
H1450 C1458 0.930 . S
H1451 C1459 0.930 . S
H1452 C1462 0.930 . S
H1453 C1463 0.930 . S
C1454 H1448 0.930 . S
C1454 C1455 1.355 . S
C1454 C1456 1.415 . S
C1455 C1454 1.355 . S
C1455 C1457 1.419 . S
C1456 C1454 1.415 . S
C1456 C1461 1.425 . S
C1456 C1463 1.409 . S
C1457 H1449 0.930 . S
C1457 C1455 1.419 . S
C1457 C1458 1.362 . S
C1458 H1450 0.930 . S
C1458 C1457 1.362 . S
C1458 C1461 1.409 . S
C1459 H1451 0.930 . S
C1459 C1460 1.355 . S
C1459 C1461 1.415 . S
C1460 C1459 1.355 . S
C1460 C1462 1.419 . S
C1461 C1456 1.425 . S
C1461 C1458 1.409 . S
C1461 C1459 1.415 . S
C1462 H1452 0.930 . S
C1462 C1460 1.419 . S
C1462 C1463 1.362 . S
C1463 H1453 0.930 . S
C1463 C1456 1.409 . S
C1463 C1462 1.362 . S
H1464 C1470 0.930 . S
H1465 C1473 0.930 . S
H1466 C1474 0.930 . S
H1467 C1475 0.930 . S
H1468 C1478 0.930 . S
H1469 C1479 0.930 . S
C1470 H1464 0.930 . S
C1470 C1471 1.355 . S
C1470 C1472 1.415 . S
C1471 C1470 1.355 . S
C1471 C1473 1.419 . S
C1472 C1470 1.415 . S
C1472 C1477 1.425 . S
C1472 C1479 1.409 . S
C1473 H1465 0.930 . S
C1473 C1471 1.419 . S
C1473 C1474 1.362 . S
C1474 H1466 0.930 . S
C1474 C1473 1.362 . S
C1474 C1477 1.409 . S
C1475 H1467 0.930 . S
C1475 C1476 1.355 . S
C1475 C1477 1.415 . S
C1476 C1475 1.355 . S
C1476 C1478 1.419 . S
C1477 C1472 1.425 . S
C1477 C1474 1.409 . S
C1477 C1475 1.415 . S
C1478 H1468 0.930 . S
C1478 C1476 1.419 . S
C1478 C1479 1.362 . S
C1479 H1469 0.930 . S
C1479 C1472 1.409 . S
C1479 C1478 1.362 . S
H1480 C1486 0.930 . S
H1481 C1489 0.930 . S
H1482 C1490 0.930 . S
H1483 C1491 0.930 . S
H1484 C1494 0.930 . S
H1485 C1495 0.930 . S
C1486 H1480 0.930 . S
C1486 C1487 1.355 . S
C1486 C1488 1.415 . S
C1487 C1486 1.355 . S
C1487 C1489 1.419 . S
C1488 C1486 1.415 . S
C1488 C1493 1.425 . S
C1488 C1495 1.409 . S
C1489 H1481 0.930 . S
C1489 C1487 1.419 . S
C1489 C1490 1.362 . S
C1490 H1482 0.930 . S
C1490 C1489 1.362 . S
C1490 C1493 1.409 . S
C1491 H1483 0.930 . S
C1491 C1492 1.355 . S
C1491 C1493 1.415 . S
C1492 C1491 1.355 . S
C1492 C1494 1.419 . S
C1493 C1488 1.425 . S
C1493 C1490 1.409 . S
C1493 C1491 1.415 . S
C1494 H1484 0.930 . S
C1494 C1492 1.419 . S
C1494 C1495 1.362 . S
C1495 H1485 0.930 . S
C1495 C1488 1.409 . S
C1495 C1494 1.362 . S
H1496 C1502 0.930 . S
H1497 C1505 0.930 1_565 S
H1498 C1506 0.930 . S
H1499 C1507 0.930 . S
H1500 C1510 0.930 . S
H1501 C1511 0.930 . S
C1502 H1496 0.930 . S
C1502 C1503 1.355 . S
C1502 C1504 1.415 . S
C1503 C1502 1.355 . S
C1503 C1505 1.419 . S
C1504 C1502 1.415 . S
C1504 C1509 1.425 . S
C1504 C1511 1.409 . S
C1505 H1497 0.930 1_545 S
C1505 C1503 1.419 . S
C1505 C1506 1.362 . S
C1506 H1498 0.930 . S
C1506 C1505 1.362 . S
C1506 C1509 1.409 . S
C1507 H1499 0.930 . S
C1507 C1508 1.355 . S
C1507 C1509 1.415 . S
C1508 C1507 1.355 . S
C1508 C1510 1.419 . S
C1509 C1504 1.425 . S
C1509 C1506 1.409 . S
C1509 C1507 1.415 . S
C1510 H1500 0.930 . S
C1510 C1508 1.419 . S
C1510 C1511 1.362 . S
C1511 H1501 0.930 . S
C1511 C1504 1.409 . S
C1511 C1510 1.362 . S
H1512 C1518 0.930 . S
H1513 C1521 0.930 . S
H1514 C1522 0.930 . S
H1515 C1523 0.930 . S
H1516 C1526 0.930 . S
H1517 C1527 0.930 . S
C1518 H1512 0.930 . S
C1518 C1519 1.355 . S
C1518 C1520 1.415 . S
C1519 C1518 1.355 . S
C1519 C1521 1.419 . S
C1520 C1518 1.415 . S
C1520 C1525 1.425 . S
C1520 C1527 1.409 . S
C1521 H1513 0.930 . S
C1521 C1519 1.419 . S
C1521 C1522 1.362 . S
C1522 H1514 0.930 . S
C1522 C1521 1.362 . S
C1522 C1525 1.409 . S
C1523 H1515 0.930 . S
C1523 C1524 1.355 . S
C1523 C1525 1.415 . S
C1524 C1523 1.355 . S
C1524 C1526 1.419 . S
C1525 C1520 1.425 . S
C1525 C1522 1.409 . S
C1525 C1523 1.415 . S
C1526 H1516 0.930 . S
C1526 C1524 1.419 . S
C1526 C1527 1.362 . S
C1527 H1517 0.930 . S
C1527 C1520 1.409 . S
C1527 C1526 1.362 . S
H1528 C1534 0.930 . S
H1529 C1537 0.930 . S
H1530 C1538 0.930 . S
H1531 C1539 0.930 . S
H1532 C1542 0.930 . S
H1533 C1543 0.930 . S
C1534 H1528 0.930 . S
C1534 C1535 1.355 . S
C1534 C1536 1.415 . S
C1535 C1534 1.355 . S
C1535 C1537 1.419 . S
C1536 C1534 1.415 . S
C1536 C1541 1.425 . S
C1536 C1543 1.409 . S
C1537 H1529 0.930 . S
C1537 C1535 1.419 . S
C1537 C1538 1.362 . S
C1538 H1530 0.930 . S
C1538 C1537 1.362 . S
C1538 C1541 1.409 . S
C1539 H1531 0.930 . S
C1539 C1540 1.355 . S
C1539 C1541 1.415 . S
C1540 C1539 1.355 . S
C1540 C1542 1.419 . S
C1541 C1536 1.425 . S
C1541 C1538 1.409 . S
C1541 C1539 1.415 . S
C1542 H1532 0.930 . S
C1542 C1540 1.419 . S
C1542 C1543 1.362 . S
C1543 H1533 0.930 . S
C1543 C1536 1.409 . S
C1543 C1542 1.362 . S
H1544 C1550 0.930 . S
H1545 C1553 0.930 . S
H1546 C1554 0.930 . S
H1547 C1555 0.930 . S
H1548 C1558 0.930 . S
H1549 C1559 0.930 . S
C1550 H1544 0.930 . S
C1550 C1551 1.355 . S
C1550 C1552 1.415 . S
C1551 C1550 1.355 . S
C1551 C1553 1.419 . S
C1552 C1550 1.415 . S
C1552 C1557 1.425 . S
C1552 C1559 1.409 . S
C1553 H1545 0.930 . S
C1553 C1551 1.419 . S
C1553 C1554 1.362 . S
C1554 H1546 0.930 . S
C1554 C1553 1.362 . S
C1554 C1557 1.409 . S
C1555 H1547 0.930 . S
C1555 C1556 1.355 . S
C1555 C1557 1.415 . S
C1556 C1555 1.355 . S
C1556 C1558 1.419 . S
C1557 C1552 1.425 . S
C1557 C1554 1.409 . S
C1557 C1555 1.415 . S
C1558 H1548 0.930 . S
C1558 C1556 1.419 . S
C1558 C1559 1.362 . S
C1559 H1549 0.930 . S
C1559 C1552 1.409 . S
C1559 C1558 1.362 . S
H1560 C1566 0.930 . S
H1561 C1569 0.930 . S
H1562 C1570 0.930 . S
H1563 C1571 0.930 . S
H1564 C1574 0.930 . S
H1565 C1575 0.930 . S
C1566 H1560 0.930 . S
C1566 C1567 1.355 1_545 S
C1566 C1568 1.415 . S
C1567 C1566 1.355 1_565 S
C1567 C1569 1.419 . S
C1568 C1566 1.415 . S
C1568 C1573 1.425 1_545 S
C1568 C1575 1.409 . S
C1569 H1561 0.930 . S
C1569 C1567 1.419 . S
C1569 C1570 1.362 . S
C1570 H1562 0.930 . S
C1570 C1569 1.362 . S
C1570 C1573 1.409 . S
C1571 H1563 0.930 . S
C1571 C1572 1.355 . S
C1571 C1573 1.415 . S
C1572 C1571 1.355 . S
C1572 C1574 1.419 1_565 S
C1573 C1568 1.425 1_565 S
C1573 C1570 1.409 . S
C1573 C1571 1.415 . S
C1574 H1564 0.930 . S
C1574 C1572 1.419 1_545 S
C1574 C1575 1.362 . S
C1575 H1565 0.930 . S
C1575 C1568 1.409 . S
C1575 C1574 1.362 . S
H1576 C1582 0.930 . S
H1577 C1585 0.930 . S
H1578 C1586 0.930 . S
H1579 C1587 0.930 . S
H1580 C1590 0.930 . S
H1581 C1591 0.930 . S
C1582 H1576 0.930 . S
C1582 C1583 1.355 . S
C1582 C1584 1.415 . S
C1583 C1582 1.355 . S
C1583 C1585 1.419 . S
C1584 C1582 1.415 . S
C1584 C1589 1.425 . S
C1584 C1591 1.409 . S
C1585 H1577 0.930 . S
C1585 C1583 1.419 . S
C1585 C1586 1.362 . S
C1586 H1578 0.930 . S
C1586 C1585 1.362 . S
C1586 C1589 1.409 . S
C1587 H1579 0.930 . S
C1587 C1588 1.355 . S
C1587 C1589 1.415 . S
C1588 C1587 1.355 . S
C1588 C1590 1.419 . S
C1589 C1584 1.425 . S
C1589 C1586 1.409 . S
C1589 C1587 1.415 . S
C1590 H1580 0.930 . S
C1590 C1588 1.419 . S
C1590 C1591 1.362 . S
C1591 H1581 0.930 . S
C1591 C1584 1.409 . S
C1591 C1590 1.362 . S
H1592 C1598 0.930 . S
H1593 C1601 0.930 . S
H1594 C1602 0.930 . S
H1595 C1603 0.930 . S
H1596 C1606 0.930 1_556 S
H1597 C1607 0.930 . S
C1598 H1592 0.930 . S
C1598 C1599 1.355 . S
C1598 C1600 1.415 . S
C1599 C1598 1.355 . S
C1599 C1601 1.419 . S
C1600 C1598 1.415 . S
C1600 C1605 1.425 . S
C1600 C1607 1.409 . S
C1601 H1593 0.930 . S
C1601 C1599 1.419 . S
C1601 C1602 1.362 . S
C1602 H1594 0.930 . S
C1602 C1601 1.362 . S
C1602 C1605 1.409 . S
C1603 H1595 0.930 . S
C1603 C1604 1.355 . S
C1603 C1605 1.415 . S
C1604 C1603 1.355 . S
C1604 C1606 1.419 . S
C1605 C1600 1.425 . S
C1605 C1602 1.409 . S
C1605 C1603 1.415 . S
C1606 H1596 0.930 1_554 S
C1606 C1604 1.419 . S
C1606 C1607 1.362 . S
C1607 H1597 0.930 . S
C1607 C1600 1.409 . S
C1607 C1606 1.362 . S
H1608 C1614 0.930 . S
H1609 C1617 0.930 . S
H1610 C1618 0.930 . S
H1611 C1619 0.930 . S
H1612 C1622 0.930 . S
H1613 C1623 0.930 . S
C1614 H1608 0.930 . S
C1614 C1615 1.355 . S
C1614 C1616 1.415 . S
C1615 C1614 1.355 . S
C1615 C1617 1.419 . S
C1616 C1614 1.415 . S
C1616 C1621 1.425 . S
C1616 C1623 1.409 . S
C1617 H1609 0.930 . S
C1617 C1615 1.419 . S
C1617 C1618 1.362 . S
C1618 H1610 0.930 . S
C1618 C1617 1.362 . S
C1618 C1621 1.409 . S
C1619 H1611 0.930 . S
C1619 C1620 1.355 . S
C1619 C1621 1.415 . S
C1620 C1619 1.355 . S
C1620 C1622 1.419 . S
C1621 C1616 1.425 . S
C1621 C1618 1.409 . S
C1621 C1619 1.415 . S
C1622 H1612 0.930 . S
C1622 C1620 1.419 . S
C1622 C1623 1.362 . S
C1623 H1613 0.930 . S
C1623 C1616 1.409 . S
C1623 C1622 1.362 . S
H1624 C1630 0.930 . S
H1625 C1633 0.930 . S
H1626 C1634 0.930 . S
H1627 C1635 0.930 . S
H1628 C1638 0.930 . S
H1629 C1639 0.930 . S
C1630 H1624 0.930 . S
C1630 C1631 1.355 . S
C1630 C1632 1.415 . S
C1631 C1630 1.355 . S
C1631 C1633 1.419 . S
C1632 C1630 1.415 . S
C1632 C1637 1.425 . S
C1632 C1639 1.409 . S
C1633 H1625 0.930 . S
C1633 C1631 1.419 . S
C1633 C1634 1.362 . S
C1634 H1626 0.930 . S
C1634 C1633 1.362 . S
C1634 C1637 1.409 . S
C1635 H1627 0.930 . S
C1635 C1636 1.355 . S
C1635 C1637 1.415 . S
C1636 C1635 1.355 . S
C1636 C1638 1.419 . S
C1637 C1632 1.425 . S
C1637 C1634 1.409 . S
C1637 C1635 1.415 . S
C1638 H1628 0.930 . S
C1638 C1636 1.419 . S
C1638 C1639 1.362 . S
C1639 H1629 0.930 . S
C1639 C1632 1.409 . S
C1639 C1638 1.362 . S
H1640 C1646 0.930 . S
H1641 C1649 0.930 . S
H1642 C1650 0.930 . S
H1643 C1651 0.930 . S
H1644 C1654 0.930 . S
H1645 C1655 0.930 . S
C1646 H1640 0.930 . S
C1646 C1647 1.355 . S
C1646 C1648 1.415 . S
C1647 C1646 1.355 . S
C1647 C1649 1.419 . S
C1648 C1646 1.415 . S
C1648 C1653 1.425 . S
C1648 C1655 1.409 . S
C1649 H1641 0.930 . S
C1649 C1647 1.419 . S
C1649 C1650 1.362 . S
C1650 H1642 0.930 . S
C1650 C1649 1.362 . S
C1650 C1653 1.409 . S
C1651 H1643 0.930 . S
C1651 C1652 1.355 . S
C1651 C1653 1.415 . S
C1652 C1651 1.355 . S
C1652 C1654 1.419 . S
C1653 C1648 1.425 . S
C1653 C1650 1.409 . S
C1653 C1651 1.415 . S
C1654 H1644 0.930 . S
C1654 C1652 1.419 . S
C1654 C1655 1.362 . S
C1655 H1645 0.930 . S
C1655 C1648 1.409 . S
C1655 C1654 1.362 . S
H1656 C1662 0.930 . S
H1657 C1665 0.930 . S
H1658 C1666 0.939 . S
H1659 C1667 0.930 . S
H1660 C1670 0.930 . S
H1661 C1671 0.930 . S
C1662 H1656 0.930 . S
C1662 C1663 1.355 . S
C1662 C1664 1.415 . S
C1663 C1662 1.355 . S
C1663 C1665 1.419 . S
C1664 C1662 1.415 . S
C1664 C1669 1.424 1_545 S
C1664 C1671 1.409 . S
C1665 H1657 0.930 . S
C1665 C1663 1.419 . S
C1665 C1666 1.362 . S
C1666 H1658 0.939 . S
C1666 C1665 1.362 . S
C1666 C1669 1.406 1_545 S
C1667 H1659 0.930 . S
C1667 C1668 1.355 . S
C1667 C1669 1.419 . S
C1668 C1667 1.355 . S
C1668 C1670 1.419 . S
C1669 C1664 1.424 1_565 S
C1669 C1666 1.406 1_565 S
C1669 C1667 1.419 . S
C1670 H1660 0.930 . S
C1670 C1668 1.419 . S
C1670 C1671 1.362 1_565 S
C1671 H1661 0.930 . S
C1671 C1664 1.409 . S
C1671 C1670 1.362 1_545 S
H1672 C1678 0.930 . S
H1673 C1681 0.930 . S
H1674 C1682 0.930 . S
H1675 C1683 0.930 . S
H1676 C1686 0.930 . S
H1677 C1687 0.930 . S
C1678 H1672 0.930 . S
C1678 C1679 1.355 . S
C1678 C1680 1.415 . S
C1679 C1678 1.355 . S
C1679 C1681 1.419 . S
C1680 C1678 1.415 . S
C1680 C1685 1.425 . S
C1680 C1687 1.409 . S
C1681 H1673 0.930 . S
C1681 C1679 1.419 . S
C1681 C1682 1.362 . S
C1682 H1674 0.930 . S
C1682 C1681 1.362 . S
C1682 C1685 1.409 . S
C1683 H1675 0.930 . S
C1683 C1684 1.355 . S
C1683 C1685 1.415 . S
C1684 C1683 1.355 . S
C1684 C1686 1.419 . S
C1685 C1680 1.425 . S
C1685 C1682 1.409 . S
C1685 C1683 1.415 . S
C1686 H1676 0.930 . S
C1686 C1684 1.419 . S
C1686 C1687 1.362 . S
C1687 H1677 0.930 . S
C1687 C1680 1.409 . S
C1687 C1686 1.362 . S
H1688 C1694 0.930 . S
H1689 C1697 0.930 . S
H1690 C1698 0.930 . S
H1691 C1699 0.930 . S
H1692 C1702 0.930 . S
H1693 C1703 0.930 . S
C1694 H1688 0.930 . S
C1694 C1695 1.355 . S
C1694 C1696 1.415 . S
C1695 C1694 1.355 . S
C1695 C1697 1.419 . S
C1696 C1694 1.415 . S
C1696 C1701 1.425 . S
C1696 C1703 1.409 . S
C1697 H1689 0.930 . S
C1697 C1695 1.419 . S
C1697 C1698 1.362 . S
C1698 H1690 0.930 . S
C1698 C1697 1.362 . S
C1698 C1701 1.409 . S
C1699 H1691 0.930 . S
C1699 C1700 1.355 . S
C1699 C1701 1.415 . S
C1700 C1699 1.355 . S
C1700 C1702 1.419 . S
C1701 C1696 1.425 . S
C1701 C1698 1.409 . S
C1701 C1699 1.415 . S
C1702 H1692 0.930 . S
C1702 C1700 1.419 . S
C1702 C1703 1.362 . S
C1703 H1693 0.930 . S
C1703 C1696 1.409 . S
C1703 C1702 1.362 . S
H1704 C1710 0.930 . S
H1705 C1713 0.930 . S
H1706 C1714 0.930 . S
H1707 C1715 0.930 . S
H1708 C1718 0.930 . S
H1709 C1719 0.930 . S
C1710 H1704 0.930 . S
C1710 C1711 1.355 . S
C1710 C1712 1.415 . S
C1711 C1710 1.355 . S
C1711 C1713 1.419 . S
C1712 C1710 1.415 . S
C1712 C1717 1.425 . S
C1712 C1719 1.409 . S
C1713 H1705 0.930 . S
C1713 C1711 1.419 . S
C1713 C1714 1.362 . S
C1714 H1706 0.930 . S
C1714 C1713 1.362 . S
C1714 C1717 1.409 . S
C1715 H1707 0.930 . S
C1715 C1716 1.355 . S
C1715 C1717 1.415 . S
C1716 C1715 1.355 . S
C1716 C1718 1.419 . S
C1717 C1712 1.425 . S
C1717 C1714 1.409 . S
C1717 C1715 1.415 . S
C1718 H1708 0.930 . S
C1718 C1716 1.419 . S
C1718 C1719 1.362 . S
C1719 H1709 0.930 . S
C1719 C1712 1.409 . S
C1719 C1718 1.362 . S
H1720 C1726 0.930 . S
H1721 C1729 0.930 . S
H1722 C1730 0.930 . S
H1723 C1731 0.930 . S
H1724 C1734 0.930 . S
H1725 C1735 0.930 . S
C1726 H1720 0.930 . S
C1726 C1727 1.355 . S
C1726 C1728 1.415 . S
C1727 C1726 1.355 . S
C1727 C1729 1.419 . S
C1728 C1726 1.415 . S
C1728 C1733 1.425 . S
C1728 C1735 1.409 . S
C1729 H1721 0.930 . S
C1729 C1727 1.419 . S
C1729 C1730 1.362 . S
C1730 H1722 0.930 . S
C1730 C1729 1.362 . S
C1730 C1733 1.409 . S
C1731 H1723 0.930 . S
C1731 C1732 1.355 . S
C1731 C1733 1.415 . S
C1732 C1731 1.355 . S
C1732 C1734 1.419 . S
C1733 C1728 1.425 . S
C1733 C1730 1.409 . S
C1733 C1731 1.415 . S
C1734 H1724 0.930 . S
C1734 C1732 1.419 . S
C1734 C1735 1.362 . S
C1735 H1725 0.930 . S
C1735 C1728 1.409 . S
C1735 C1734 1.362 . S
H1736 C1742 0.930 . S
H1737 C1745 0.930 . S
H1738 C1746 0.930 . S
H1739 C1747 0.930 . S
H1740 C1750 0.930 . S
H1741 C1751 0.930 . S
C1742 H1736 0.930 . S
C1742 C1743 1.355 . S
C1742 C1744 1.415 . S
C1743 C1742 1.355 . S
C1743 C1745 1.419 . S
C1744 C1742 1.415 . S
C1744 C1749 1.425 . S
C1744 C1751 1.409 . S
C1745 H1737 0.930 . S
C1745 C1743 1.419 . S
C1745 C1746 1.362 . S
C1746 H1738 0.930 . S
C1746 C1745 1.362 . S
C1746 C1749 1.409 . S
C1747 H1739 0.930 . S
C1747 C1748 1.355 . S
C1747 C1749 1.415 . S
C1748 C1747 1.355 . S
C1748 C1750 1.419 . S
C1749 C1744 1.425 . S
C1749 C1746 1.409 . S
C1749 C1747 1.415 . S
C1750 H1740 0.930 . S
C1750 C1748 1.419 . S
C1750 C1751 1.362 . S
C1751 H1741 0.930 . S
C1751 C1744 1.409 . S
C1751 C1750 1.362 . S
H1752 C1758 0.930 1_656 S
H1753 C1761 0.930 . S
H1754 C1762 0.930 . S
H1755 C1763 0.930 . S
H1756 C1766 0.958 . S
H1757 C1767 0.930 1_556 S
C1758 H1752 0.930 1_454 S
C1758 C1759 1.355 . S
C1758 C1760 1.415 . S
C1759 C1758 1.355 . S
C1759 C1761 1.419 . S
C1760 C1758 1.415 . S
C1760 C1765 1.425 . S
C1760 C1767 1.409 1_455 S
C1761 H1753 0.930 . S
C1761 C1759 1.419 . S
C1761 C1762 1.362 . S
C1762 H1754 0.930 . S
C1762 C1761 1.362 . S
C1762 C1765 1.409 . S
C1763 H1755 0.930 . S
C1763 C1764 1.355 . S
C1763 C1765 1.415 . S
C1764 C1763 1.355 . S
C1764 C1766 1.395 1_455 S
C1765 C1760 1.425 . S
C1765 C1762 1.409 . S
C1765 C1763 1.415 . S
C1766 H1756 0.958 . S
C1766 C1764 1.395 1_655 S
C1766 C1767 1.360 . S
C1767 H1757 0.930 1_554 S
C1767 C1760 1.409 1_655 S
C1767 C1766 1.360 . S
H1768 C1774 0.926 1_455 S
H1769 C1777 0.930 . S
H1770 C1778 0.930 . S
H1771 C1779 0.930 . S
H1772 C1782 0.930 . S
H1773 C1783 0.930 . S
C1774 H1768 0.926 1_655 S
C1774 C1775 1.354 . S
C1774 C1776 1.418 . S
C1775 C1774 1.354 . S
C1775 C1777 1.419 . S
C1776 C1774 1.418 . S
C1776 C1781 1.425 . S
C1776 C1783 1.409 . S
C1777 H1769 0.930 . S
C1777 C1775 1.419 . S
C1777 C1778 1.362 . S
C1778 H1770 0.930 . S
C1778 C1777 1.362 . S
C1778 C1781 1.409 . S
C1779 H1771 0.930 . S
C1779 C1780 1.355 . S
C1779 C1781 1.415 . S
C1780 C1779 1.355 . S
C1780 C1782 1.419 . S
C1781 C1776 1.425 . S
C1781 C1778 1.409 . S
C1781 C1779 1.415 . S
C1782 H1772 0.930 . S
C1782 C1780 1.419 . S
C1782 C1783 1.362 . S
C1783 H1773 0.930 . S
C1783 C1776 1.409 . S
C1783 C1782 1.362 . S
H1784 C1790 0.930 . S
H1785 C1793 0.930 . S
H1786 C1794 0.930 . S
H1787 C1795 0.930 . S
H1788 C1798 0.930 . S
H1789 C1799 0.930 . S
C1790 H1784 0.930 . S
C1790 C1791 1.355 . S
C1790 C1792 1.415 . S
C1791 C1790 1.355 . S
C1791 C1793 1.419 . S
C1792 C1790 1.415 . S
C1792 C1797 1.425 . S
C1792 C1799 1.409 . S
C1793 H1785 0.930 . S
C1793 C1791 1.419 . S
C1793 C1794 1.362 . S
C1794 H1786 0.930 . S
C1794 C1793 1.362 . S
C1794 C1797 1.409 . S
C1795 H1787 0.930 . S
C1795 C1796 1.355 . S
C1795 C1797 1.415 . S
C1796 C1795 1.355 . S
C1796 C1798 1.419 . S
C1797 C1792 1.425 . S
C1797 C1794 1.409 . S
C1797 C1795 1.415 . S
C1798 H1788 0.930 . S
C1798 C1796 1.419 . S
C1798 C1799 1.362 . S
C1799 H1789 0.930 . S
C1799 C1792 1.409 . S
C1799 C1798 1.362 . S
H1800 C1806 0.930 . S
H1801 C1809 0.930 . S
H1802 C1810 0.930 . S
H1803 C1811 0.930 . S
H1804 C1814 0.930 . S
H1805 C1815 0.930 . S
C1806 H1800 0.930 . S
C1806 C1807 1.355 . S
C1806 C1808 1.415 . S
C1807 C1806 1.355 . S
C1807 C1809 1.419 . S
C1808 C1806 1.415 . S
C1808 C1813 1.425 . S
C1808 C1815 1.409 . S
C1809 H1801 0.930 . S
C1809 C1807 1.419 . S
C1809 C1810 1.362 . S
C1810 H1802 0.930 . S
C1810 C1809 1.362 . S
C1810 C1813 1.409 . S
C1811 H1803 0.930 . S
C1811 C1812 1.355 . S
C1811 C1813 1.415 . S
C1812 C1811 1.355 . S
C1812 C1814 1.419 . S
C1813 C1808 1.425 . S
C1813 C1810 1.409 . S
C1813 C1811 1.415 . S
C1814 H1804 0.930 . S
C1814 C1812 1.419 . S
C1814 C1815 1.362 . S
C1815 H1805 0.930 . S
C1815 C1808 1.409 . S
C1815 C1814 1.362 . S
H1816 C1822 0.930 . S
H1817 C1825 0.930 . S
H1818 C1826 0.930 . S
H1819 C1827 0.930 . S
H1820 C1830 0.930 . S
H1821 C1831 0.930 . S
C1822 H1816 0.930 . S
C1822 C1823 1.355 . S
C1822 C1824 1.415 . S
C1823 C1822 1.355 . S
C1823 C1825 1.419 . S
C1824 C1822 1.415 . S
C1824 C1829 1.425 . S
C1824 C1831 1.409 . S
C1825 H1817 0.930 . S
C1825 C1823 1.419 . S
C1825 C1826 1.362 . S
C1826 H1818 0.930 . S
C1826 C1825 1.362 . S
C1826 C1829 1.409 . S
C1827 H1819 0.930 . S
C1827 C1828 1.355 . S
C1827 C1829 1.415 . S
C1828 C1827 1.355 . S
C1828 C1830 1.419 . S
C1829 C1824 1.425 . S
C1829 C1826 1.409 . S
C1829 C1827 1.415 . S
C1830 H1820 0.930 . S
C1830 C1828 1.419 . S
C1830 C1831 1.362 . S
C1831 H1821 0.930 . S
C1831 C1824 1.409 . S
C1831 C1830 1.362 . S
H1832 C1838 0.930 . S
H1833 C1841 0.930 . S
H1834 C1842 0.930 . S
H1835 C1843 0.930 . S
H1836 C1846 0.930 . S
H1837 C1847 0.930 . S
C1838 H1832 0.930 . S
C1838 C1839 1.355 . S
C1838 C1840 1.415 . S
C1839 C1838 1.355 . S
C1839 C1841 1.419 . S
C1840 C1838 1.415 . S
C1840 C1845 1.425 . S
C1840 C1847 1.409 . S
C1841 H1833 0.930 . S
C1841 C1839 1.419 . S
C1841 C1842 1.362 . S
C1842 H1834 0.930 . S
C1842 C1841 1.362 . S
C1842 C1845 1.409 . S
C1843 H1835 0.930 . S
C1843 C1844 1.355 . S
C1843 C1845 1.415 . S
C1844 C1843 1.355 . S
C1844 C1846 1.419 . S
C1845 C1840 1.425 . S
C1845 C1842 1.409 . S
C1845 C1843 1.415 . S
C1846 H1836 0.930 . S
C1846 C1844 1.419 . S
C1846 C1847 1.362 . S
C1847 H1837 0.930 . S
C1847 C1840 1.409 . S
C1847 C1846 1.362 . S
H1848 C1854 0.930 . S
H1849 C1857 0.930 . S
H1850 C1858 0.930 . S
H1851 C1859 0.930 . S
H1852 C1862 0.930 . S
H1853 C1863 0.930 . S
C1854 H1848 0.930 . S
C1854 C1855 1.355 . S
C1854 C1856 1.415 . S
C1855 C1854 1.355 . S
C1855 C1857 1.419 . S
C1856 C1854 1.415 . S
C1856 C1861 1.425 . S
C1856 C1863 1.409 . S
C1857 H1849 0.930 . S
C1857 C1855 1.419 . S
C1857 C1858 1.362 . S
C1858 H1850 0.930 . S
C1858 C1857 1.362 . S
C1858 C1861 1.409 . S
C1859 H1851 0.930 . S
C1859 C1860 1.355 . S
C1859 C1861 1.415 . S
C1860 C1859 1.355 . S
C1860 C1862 1.419 . S
C1861 C1856 1.425 . S
C1861 C1858 1.409 . S
C1861 C1859 1.415 . S
C1862 H1852 0.930 . S
C1862 C1860 1.419 . S
C1862 C1863 1.362 . S
C1863 H1853 0.930 . S
C1863 C1856 1.409 . S
C1863 C1862 1.362 . S
H1864 C1870 0.939 . S
H1865 C1873 0.930 . S
H1866 C1874 0.930 . S
H1867 C1875 0.930 . S
H1868 C1878 0.930 . S
H1869 C1879 0.930 . S
C1870 H1864 0.939 . S
C1870 C1871 1.355 . S
C1870 C1872 1.415 1_554 S
C1871 C1870 1.355 . S
C1871 C1873 1.419 . S
C1872 C1870 1.415 1_556 S
C1872 C1877 1.425 . S
C1872 C1879 1.409 . S
C1873 H1865 0.930 . S
C1873 C1871 1.419 . S
C1873 C1874 1.362 . S
C1874 H1866 0.930 . S
C1874 C1873 1.362 . S
C1874 C1877 1.409 1_554 S
C1875 H1867 0.930 . S
C1875 C1876 1.355 . S
C1875 C1877 1.415 . S
C1876 C1875 1.355 . S
C1876 C1878 1.419 . S
C1877 C1872 1.425 . S
C1877 C1874 1.409 1_556 S
C1877 C1875 1.415 . S
C1878 H1868 0.930 . S
C1878 C1876 1.419 . S
C1878 C1879 1.362 . S
C1879 H1869 0.930 . S
C1879 C1872 1.409 . S
C1879 C1878 1.362 . S
H1880 C1886 0.930 . S
H1881 C1889 0.930 . S
H1882 C1890 0.930 . S
H1883 C1891 0.930 . S
H1884 C1894 0.930 . S
H1885 C1895 0.930 . S
C1886 H1880 0.930 . S
C1886 C1887 1.355 . S
C1886 C1888 1.415 . S
C1887 C1886 1.355 . S
C1887 C1889 1.419 . S
C1888 C1886 1.415 . S
C1888 C1893 1.425 . S
C1888 C1895 1.409 . S
C1889 H1881 0.930 . S
C1889 C1887 1.419 . S
C1889 C1890 1.362 . S
C1890 H1882 0.930 . S
C1890 C1889 1.362 . S
C1890 C1893 1.409 . S
C1891 H1883 0.930 . S
C1891 C1892 1.355 . S
C1891 C1893 1.415 . S
C1892 C1891 1.355 . S
C1892 C1894 1.419 . S
C1893 C1888 1.425 . S
C1893 C1890 1.409 . S
C1893 C1891 1.415 . S
C1894 H1884 0.930 . S
C1894 C1892 1.419 . S
C1894 C1895 1.362 . S
C1895 H1885 0.930 . S
C1895 C1888 1.409 . S
C1895 C1894 1.362 . S
H1896 C1902 0.930 . S
H1897 C1905 0.930 . S
H1898 C1906 0.930 . S
H1899 C1907 0.930 . S
H1900 C1910 0.930 . S
H1901 C1911 0.930 . S
C1902 H1896 0.930 . S
C1902 C1903 1.355 . S
C1902 C1904 1.415 . S
C1903 C1902 1.355 . S
C1903 C1905 1.419 . S
C1904 C1902 1.415 . S
C1904 C1909 1.425 . S
C1904 C1911 1.409 . S
C1905 H1897 0.930 . S
C1905 C1903 1.419 . S
C1905 C1906 1.362 . S
C1906 H1898 0.930 . S
C1906 C1905 1.362 . S
C1906 C1909 1.409 . S
C1907 H1899 0.930 . S
C1907 C1908 1.355 . S
C1907 C1909 1.415 . S
C1908 C1907 1.355 . S
C1908 C1910 1.419 . S
C1909 C1904 1.425 . S
C1909 C1906 1.409 . S
C1909 C1907 1.415 . S
C1910 H1900 0.930 . S
C1910 C1908 1.419 . S
C1910 C1911 1.362 . S
C1911 H1901 0.930 . S
C1911 C1904 1.409 . S
C1911 C1910 1.362 . S
H1912 C1918 0.930 . S
H1913 C1921 0.930 . S
H1914 C1922 0.930 . S
H1915 C1923 0.930 . S
H1916 C1926 0.930 . S
H1917 C1927 0.930 . S
C1918 H1912 0.930 . S
C1918 C1919 1.355 . S
C1918 C1920 1.415 . S
C1919 C1918 1.355 . S
C1919 C1921 1.419 . S
C1920 C1918 1.415 . S
C1920 C1925 1.425 . S
C1920 C1927 1.409 . S
C1921 H1913 0.930 . S
C1921 C1919 1.419 . S
C1921 C1922 1.362 . S
C1922 H1914 0.930 . S
C1922 C1921 1.362 . S
C1922 C1925 1.409 . S
C1923 H1915 0.930 . S
C1923 C1924 1.355 . S
C1923 C1925 1.415 . S
C1924 C1923 1.355 . S
C1924 C1926 1.419 . S
C1925 C1920 1.425 . S
C1925 C1922 1.409 . S
C1925 C1923 1.415 . S
C1926 H1916 0.930 . S
C1926 C1924 1.419 . S
C1926 C1927 1.362 . S
C1927 H1917 0.930 . S
C1927 C1920 1.409 . S
C1927 C1926 1.362 . S
H1928 C1934 0.930 . S
H1929 C1937 0.930 . S
H1930 C1938 0.930 . S
H1931 C1939 0.930 . S
H1932 C1942 0.930 . S
H1933 C1943 0.930 . S
C1934 H1928 0.930 . S
C1934 C1935 1.355 . S
C1934 C1936 1.415 . S
C1935 C1934 1.355 . S
C1935 C1937 1.419 . S
C1936 C1934 1.415 . S
C1936 C1941 1.425 . S
C1936 C1943 1.409 . S
C1937 H1929 0.930 . S
C1937 C1935 1.419 . S
C1937 C1938 1.362 . S
C1938 H1930 0.930 . S
C1938 C1937 1.362 . S
C1938 C1941 1.409 . S
C1939 H1931 0.930 . S
C1939 C1940 1.355 . S
C1939 C1941 1.415 . S
C1940 C1939 1.355 . S
C1940 C1942 1.419 . S
C1941 C1936 1.425 . S
C1941 C1938 1.409 . S
C1941 C1939 1.415 . S
C1942 H1932 0.930 . S
C1942 C1940 1.419 . S
C1942 C1943 1.362 . S
C1943 H1933 0.930 . S
C1943 C1936 1.409 . S
C1943 C1942 1.362 . S
H1944 C1950 0.930 . S
H1945 C1953 0.930 . S
H1946 C1954 0.930 . S
H1947 C1955 0.930 . S
H1948 C1958 0.930 . S
H1949 C1959 0.930 . S
C1950 H1944 0.930 . S
C1950 C1951 1.355 . S
C1950 C1952 1.415 . S
C1951 C1950 1.355 . S
C1951 C1953 1.419 . S
C1952 C1950 1.415 . S
C1952 C1957 1.425 . S
C1952 C1959 1.409 . S
C1953 H1945 0.930 . S
C1953 C1951 1.419 . S
C1953 C1954 1.362 . S
C1954 H1946 0.930 . S
C1954 C1953 1.362 . S
C1954 C1957 1.409 . S
C1955 H1947 0.930 . S
C1955 C1956 1.355 . S
C1955 C1957 1.415 . S
C1956 C1955 1.355 . S
C1956 C1958 1.419 . S
C1957 C1952 1.425 . S
C1957 C1954 1.409 . S
C1957 C1955 1.415 . S
C1958 H1948 0.930 . S
C1958 C1956 1.419 . S
C1958 C1959 1.362 . S
C1959 H1949 0.930 . S
C1959 C1952 1.409 . S
C1959 C1958 1.362 . S
H1960 C1966 0.930 . S
H1961 C1969 0.930 . S
H1962 C1970 0.930 . S
H1963 C1971 0.930 . S
H1964 C1974 0.930 . S
H1965 C1975 0.930 . S
C1966 H1960 0.930 . S
C1966 C1967 1.355 . S
C1966 C1968 1.415 . S
C1967 C1966 1.355 . S
C1967 C1969 1.419 . S
C1968 C1966 1.415 . S
C1968 C1973 1.425 . S
C1968 C1975 1.409 . S
C1969 H1961 0.930 . S
C1969 C1967 1.419 . S
C1969 C1970 1.362 . S
C1970 H1962 0.930 . S
C1970 C1969 1.362 . S
C1970 C1973 1.409 . S
C1971 H1963 0.930 . S
C1971 C1972 1.355 . S
C1971 C1973 1.415 . S
C1972 C1971 1.355 . S
C1972 C1974 1.419 . S
C1973 C1968 1.425 . S
C1973 C1970 1.409 . S
C1973 C1971 1.415 . S
C1974 H1964 0.930 . S
C1974 C1972 1.419 . S
C1974 C1975 1.362 . S
C1975 H1965 0.930 . S
C1975 C1968 1.409 . S
C1975 C1974 1.362 . S
H1976 C1982 0.930 . S
H1977 C1985 0.930 . S
H1978 C1986 0.930 . S
H1979 C1987 0.930 . S
H1980 C1990 0.930 . S
H1981 C1991 0.930 . S
C1982 H1976 0.930 . S
C1982 C1983 1.355 . S
C1982 C1984 1.415 . S
C1983 C1982 1.355 . S
C1983 C1985 1.419 . S
C1984 C1982 1.415 . S
C1984 C1989 1.425 . S
C1984 C1991 1.409 . S
C1985 H1977 0.930 . S
C1985 C1983 1.419 . S
C1985 C1986 1.362 . S
C1986 H1978 0.930 . S
C1986 C1985 1.362 . S
C1986 C1989 1.409 . S
C1987 H1979 0.930 . S
C1987 C1988 1.355 . S
C1987 C1989 1.415 . S
C1988 C1987 1.355 . S
C1988 C1990 1.419 . S
C1989 C1984 1.425 . S
C1989 C1986 1.409 . S
C1989 C1987 1.415 . S
C1990 H1980 0.930 . S
C1990 C1988 1.419 . S
C1990 C1991 1.362 . S
C1991 H1981 0.930 . S
C1991 C1984 1.409 . S
C1991 C1990 1.362 . S
H1992 C1998 0.930 . S
H1993 C2001 0.930 . S
H1994 C2002 0.930 . S
H1995 C2003 0.930 . S
H1996 C2006 0.930 . S
H1997 C2007 0.930 . S
C1998 H1992 0.930 . S
C1998 C1999 1.355 . S
C1998 C2000 1.415 . S
C1999 C1998 1.355 . S
C1999 C2001 1.419 . S
C2000 C1998 1.415 . S
C2000 C2005 1.425 . S
C2000 C2007 1.409 . S
C2001 H1993 0.930 . S
C2001 C1999 1.419 . S
C2001 C2002 1.362 . S
C2002 H1994 0.930 . S
C2002 C2001 1.362 . S
C2002 C2005 1.409 . S
C2003 H1995 0.930 . S
C2003 C2004 1.355 . S
C2003 C2005 1.415 . S
C2004 C2003 1.355 . S
C2004 C2006 1.419 . S
C2005 C2000 1.425 . S
C2005 C2002 1.409 . S
C2005 C2003 1.415 . S
C2006 H1996 0.930 . S
C2006 C2004 1.419 . S
C2006 C2007 1.362 . S
C2007 H1997 0.930 . S
C2007 C2000 1.409 . S
C2007 C2006 1.362 . S
H2008 C2014 0.930 . S
H2009 C2017 0.930 . S
H2010 C2018 0.930 . S
H2011 C2019 0.930 . S
H2012 C2022 0.930 . S
H2013 C2023 0.930 . S
C2014 H2008 0.930 . S
C2014 C2015 1.365 . S
C2014 C2016 1.415 . S
C2015 C2014 1.365 . S
C2015 C2017 1.443 . S
C2016 C2014 1.415 . S
C2016 C2021 1.425 . S
C2016 C2023 1.409 . S
C2017 H2009 0.930 . S
C2017 C2015 1.443 . S
C2017 C2018 1.362 . S
C2018 H2010 0.930 . S
C2018 C2017 1.362 . S
C2018 C2021 1.409 . S
C2019 H2011 0.930 . S
C2019 C2020 1.355 . S
C2019 C2021 1.415 . S
C2020 C2019 1.355 . S
C2020 C2022 1.419 . S
C2021 C2016 1.425 . S
C2021 C2018 1.409 . S
C2021 C2019 1.415 . S
C2022 H2012 0.930 . S
C2022 C2020 1.419 . S
C2022 C2023 1.362 . S
C2023 H2013 0.930 . S
C2023 C2016 1.409 . S
C2023 C2022 1.362 . S
H2024 C2030 0.937 1_545 S
H2025 C2033 0.930 . S
H2026 C2034 0.930 . S
H2027 C2035 0.934 . S
H2028 C2038 0.930 . S
H2029 C2039 0.930 . S
C2030 H2024 0.937 1_565 S
C2030 C2031 1.355 . S
C2030 C2032 1.415 1_565 S
C2031 C2030 1.355 . S
C2031 C2033 1.419 . S
C2032 C2030 1.415 1_545 S
C2032 C2037 1.425 1_545 S
C2032 C2039 1.409 . S
C2033 H2025 0.930 . S
C2033 C2031 1.419 . S
C2033 C2034 1.362 . S
C2034 H2026 0.930 . S
C2034 C2033 1.362 . S
C2034 C2037 1.409 . S
C2035 H2027 0.934 . S
C2035 C2036 1.351 1_565 S
C2035 C2037 1.415 . S
C2036 C2035 1.351 1_545 S
C2036 C2038 1.419 . S
C2037 C2032 1.425 1_565 S
C2037 C2034 1.409 . S
C2037 C2035 1.415 . S
C2038 H2028 0.930 . S
C2038 C2036 1.419 . S
C2038 C2039 1.362 . S
C2039 H2029 0.930 . S
C2039 C2032 1.409 . S
C2039 C2038 1.362 . S
H2040 C2046 0.930 . S
H2041 C2049 0.930 . S
H2042 C2050 0.930 . S
H2043 C2051 0.930 . S
H2044 C2054 0.930 . S
H2045 C2055 0.930 . S
C2046 H2040 0.930 . S
C2046 C2047 1.355 . S
C2046 C2048 1.415 . S
C2047 C2046 1.355 . S
C2047 C2049 1.419 . S
C2048 C2046 1.415 . S
C2048 C2053 1.425 . S
C2048 C2055 1.409 . S
C2049 H2041 0.930 . S
C2049 C2047 1.419 . S
C2049 C2050 1.362 . S
C2050 H2042 0.930 . S
C2050 C2049 1.362 . S
C2050 C2053 1.409 . S
C2051 H2043 0.930 . S
C2051 C2052 1.355 . S
C2051 C2053 1.415 . S
C2052 C2051 1.355 . S
C2052 C2054 1.419 . S
C2053 C2048 1.425 . S
C2053 C2050 1.409 . S
C2053 C2051 1.415 . S
C2054 H2044 0.930 . S
C2054 C2052 1.419 . S
C2054 C2055 1.362 . S
C2055 H2045 0.930 . S
C2055 C2048 1.409 . S
C2055 C2054 1.362 . S
H2056 C2062 0.930 . S
H2057 C2065 0.930 . S
H2058 C2066 0.930 . S
H2059 C2067 0.930 . S
H2060 C2070 0.930 . S
H2061 C2071 0.930 . S
C2062 H2056 0.930 . S
C2062 C2063 1.355 . S
C2062 C2064 1.415 . S
C2063 C2062 1.355 . S
C2063 C2065 1.419 . S
C2064 C2062 1.415 . S
C2064 C2069 1.425 . S
C2064 C2071 1.409 . S
C2065 H2057 0.930 . S
C2065 C2063 1.419 . S
C2065 C2066 1.362 . S
C2066 H2058 0.930 . S
C2066 C2065 1.362 . S
C2066 C2069 1.409 . S
C2067 H2059 0.930 . S
C2067 C2068 1.355 . S
C2067 C2069 1.415 . S
C2068 C2067 1.355 . S
C2068 C2070 1.419 . S
C2069 C2064 1.425 . S
C2069 C2066 1.409 . S
C2069 C2067 1.415 . S
C2070 H2060 0.930 . S
C2070 C2068 1.419 . S
C2070 C2071 1.362 . S
C2071 H2061 0.930 . S
C2071 C2064 1.409 . S
C2071 C2070 1.362 . S
H2072 C2078 0.930 . S
H2073 C2081 0.930 . S
H2074 C2082 0.930 . S
H2075 C2083 0.930 . S
H2076 C2086 0.930 . S
H2077 C2087 0.930 . S
C2078 H2072 0.930 . S
C2078 C2079 1.355 . S
C2078 C2080 1.415 . S
C2079 C2078 1.355 . S
C2079 C2081 1.419 . S
C2080 C2078 1.415 . S
C2080 C2085 1.425 . S
C2080 C2087 1.409 . S
C2081 H2073 0.930 . S
C2081 C2079 1.419 . S
C2081 C2082 1.362 . S
C2082 H2074 0.930 . S
C2082 C2081 1.362 . S
C2082 C2085 1.409 . S
C2083 H2075 0.930 . S
C2083 C2084 1.355 . S
C2083 C2085 1.415 . S
C2084 C2083 1.355 . S
C2084 C2086 1.419 . S
C2085 C2080 1.425 . S
C2085 C2082 1.409 . S
C2085 C2083 1.415 . S
C2086 H2076 0.930 . S
C2086 C2084 1.419 . S
C2086 C2087 1.362 . S
C2087 H2077 0.930 . S
C2087 C2080 1.409 . S
C2087 C2086 1.362 . S
H2088 C2094 0.930 . S
H2089 C2097 0.930 . S
H2090 C2098 0.930 . S
H2091 C2099 0.930 . S
H2092 C2102 0.930 . S
H2093 C2103 0.930 . S
C2094 H2088 0.930 . S
C2094 C2095 1.355 . S
C2094 C2096 1.415 . S
C2095 C2094 1.355 . S
C2095 C2097 1.419 . S
C2096 C2094 1.415 . S
C2096 C2101 1.425 . S
C2096 C2103 1.409 . S
C2097 H2089 0.930 . S
C2097 C2095 1.419 . S
C2097 C2098 1.362 . S
C2098 H2090 0.930 . S
C2098 C2097 1.362 . S
C2098 C2101 1.409 . S
C2099 H2091 0.930 . S
C2099 C2100 1.355 . S
C2099 C2101 1.415 . S
C2100 C2099 1.355 . S
C2100 C2102 1.419 . S
C2101 C2096 1.425 . S
C2101 C2098 1.409 . S
C2101 C2099 1.415 . S
C2102 H2092 0.930 . S
C2102 C2100 1.419 . S
C2102 C2103 1.362 . S
C2103 H2093 0.930 . S
C2103 C2096 1.409 . S
C2103 C2102 1.362 . S
H2104 C2110 0.930 . S
H2105 C2113 0.930 . S
H2106 C2114 0.930 . S
H2107 C2115 0.930 . S
H2108 C2118 0.930 . S
H2109 C2119 0.930 . S
C2110 H2104 0.930 . S
C2110 C2111 1.355 . S
C2110 C2112 1.415 . S
C2111 C2110 1.355 . S
C2111 C2113 1.419 . S
C2112 C2110 1.415 . S
C2112 C2117 1.425 . S
C2112 C2119 1.409 . S
C2113 H2105 0.930 . S
C2113 C2111 1.419 . S
C2113 C2114 1.362 . S
C2114 H2106 0.930 . S
C2114 C2113 1.362 . S
C2114 C2117 1.409 . S
C2115 H2107 0.930 . S
C2115 C2116 1.355 . S
C2115 C2117 1.415 . S
C2116 C2115 1.355 . S
C2116 C2118 1.419 . S
C2117 C2112 1.425 . S
C2117 C2114 1.409 . S
C2117 C2115 1.415 . S
C2118 H2108 0.930 . S
C2118 C2116 1.419 . S
C2118 C2119 1.362 . S
C2119 H2109 0.930 . S
C2119 C2112 1.409 . S
C2119 C2118 1.362 . S
H2120 C2126 0.930 . S
H2121 C2129 0.930 . S
H2122 C2130 0.930 . S
H2123 C2131 0.930 . S
H2124 C2134 0.930 . S
H2125 C2135 0.930 . S
C2126 H2120 0.930 . S
C2126 C2127 1.355 . S
C2126 C2128 1.415 . S
C2127 C2126 1.355 . S
C2127 C2129 1.419 . S
C2128 C2126 1.415 . S
C2128 C2133 1.425 . S
C2128 C2135 1.409 . S
C2129 H2121 0.930 . S
C2129 C2127 1.419 . S
C2129 C2130 1.362 . S
C2130 H2122 0.930 . S
C2130 C2129 1.362 . S
C2130 C2133 1.409 . S
C2131 H2123 0.930 . S
C2131 C2132 1.355 . S
C2131 C2133 1.415 . S
C2132 C2131 1.355 . S
C2132 C2134 1.419 . S
C2133 C2128 1.425 . S
C2133 C2130 1.409 . S
C2133 C2131 1.415 . S
C2134 H2124 0.930 . S
C2134 C2132 1.419 . S
C2134 C2135 1.362 . S
C2135 H2125 0.930 . S
C2135 C2128 1.409 . S
C2135 C2134 1.362 . S
H2136 C2142 0.930 . S
H2137 C2145 0.930 . S
H2138 C2146 0.930 . S
H2139 C2147 0.930 . S
H2140 C2150 0.930 . S
H2141 C2151 0.930 . S
C2142 H2136 0.930 . S
C2142 C2143 1.355 . S
C2142 C2144 1.415 . S
C2143 C2142 1.355 . S
C2143 C2145 1.419 . S
C2144 C2142 1.415 . S
C2144 C2149 1.425 . S
C2144 C2151 1.409 . S
C2145 H2137 0.930 . S
C2145 C2143 1.419 . S
C2145 C2146 1.362 . S
C2146 H2138 0.930 . S
C2146 C2145 1.362 . S
C2146 C2149 1.409 . S
C2147 H2139 0.930 . S
C2147 C2148 1.355 . S
C2147 C2149 1.415 . S
C2148 C2147 1.355 . S
C2148 C2150 1.419 . S
C2149 C2144 1.425 . S
C2149 C2146 1.409 . S
C2149 C2147 1.415 . S
C2150 H2140 0.930 . S
C2150 C2148 1.419 . S
C2150 C2151 1.362 . S
C2151 H2141 0.930 . S
C2151 C2144 1.409 . S
C2151 C2150 1.362 . S
H2152 C2158 0.930 . S
H2153 C2161 0.930 . S
H2154 C2162 0.930 . S
H2155 C2163 0.930 . S
H2156 C2166 0.930 . S
H2157 C2167 0.930 . S
C2158 H2152 0.930 . S
C2158 C2159 1.355 . S
C2158 C2160 1.415 . S
C2159 C2158 1.355 . S
C2159 C2161 1.419 . S
C2160 C2158 1.415 . S
C2160 C2165 1.425 . S
C2160 C2167 1.409 . S
C2161 H2153 0.930 . S
C2161 C2159 1.419 . S
C2161 C2162 1.362 . S
C2162 H2154 0.930 . S
C2162 C2161 1.362 . S
C2162 C2165 1.409 . S
C2163 H2155 0.930 . S
C2163 C2164 1.355 . S
C2163 C2165 1.415 . S
C2164 C2163 1.355 . S
C2164 C2166 1.419 . S
C2165 C2160 1.425 . S
C2165 C2162 1.409 . S
C2165 C2163 1.415 . S
C2166 H2156 0.930 . S
C2166 C2164 1.419 . S
C2166 C2167 1.362 . S
C2167 H2157 0.930 . S
C2167 C2160 1.409 . S
C2167 C2166 1.362 . S
H2168 C2174 0.930 . S
H2169 C2177 0.930 . S
H2170 C2178 0.930 . S
H2171 C2179 0.930 . S
H2172 C2182 0.930 1_554 S
H2173 C2183 0.930 . S
C2174 H2168 0.930 . S
C2174 C2175 1.355 . S
C2174 C2176 1.415 . S
C2175 C2174 1.355 . S
C2175 C2177 1.419 . S
C2176 C2174 1.415 . S
C2176 C2181 1.425 . S
C2176 C2183 1.409 . S
C2177 H2169 0.930 . S
C2177 C2175 1.419 . S
C2177 C2178 1.362 . S
C2178 H2170 0.930 . S
C2178 C2177 1.362 . S
C2178 C2181 1.409 . S
C2179 H2171 0.930 . S
C2179 C2180 1.355 . S
C2179 C2181 1.415 . S
C2180 C2179 1.355 . S
C2180 C2182 1.419 . S
C2181 C2176 1.425 . S
C2181 C2178 1.409 . S
C2181 C2179 1.415 . S
C2182 H2172 0.930 1_556 S
C2182 C2180 1.419 . S
C2182 C2183 1.362 . S
C2183 H2173 0.930 . S
C2183 C2176 1.409 . S
C2183 C2182 1.362 . S
H2184 C2190 0.930 . S
H2185 C2193 0.930 . S
H2186 C2194 0.930 . S
H2187 C2195 0.930 . S
H2188 C2198 0.930 . S
H2189 C2199 0.930 . S
C2190 H2184 0.930 . S
C2190 C2191 1.355 . S
C2190 C2192 1.415 . S
C2191 C2190 1.355 . S
C2191 C2193 1.419 . S
C2192 C2190 1.415 . S
C2192 C2197 1.425 . S
C2192 C2199 1.409 . S
C2193 H2185 0.930 . S
C2193 C2191 1.419 . S
C2193 C2194 1.362 . S
C2194 H2186 0.930 . S
C2194 C2193 1.362 . S
C2194 C2197 1.409 . S
C2195 H2187 0.930 . S
C2195 C2196 1.355 . S
C2195 C2197 1.415 . S
C2196 C2195 1.355 . S
C2196 C2198 1.419 . S
C2197 C2192 1.425 . S
C2197 C2194 1.409 . S
C2197 C2195 1.415 . S
C2198 H2188 0.930 . S
C2198 C2196 1.419 . S
C2198 C2199 1.362 . S
C2199 H2189 0.930 . S
C2199 C2192 1.409 . S
C2199 C2198 1.362 . S
H2200 C2206 0.930 . S
H2201 C2209 0.930 . S
H2202 C2210 0.930 . S
H2203 C2211 0.930 . S
H2204 C2214 0.930 . S
H2205 C2215 0.930 . S
C2206 H2200 0.930 . S
C2206 C2207 1.355 . S
C2206 C2208 1.415 . S
C2207 C2206 1.355 . S
C2207 C2209 1.419 . S
C2208 C2206 1.415 . S
C2208 C2213 1.425 . S
C2208 C2215 1.409 . S
C2209 H2201 0.930 . S
C2209 C2207 1.419 . S
C2209 C2210 1.362 . S
C2210 H2202 0.930 . S
C2210 C2209 1.362 . S
C2210 C2213 1.409 . S
C2211 H2203 0.930 . S
C2211 C2212 1.355 . S
C2211 C2213 1.415 . S
C2212 C2211 1.355 . S
C2212 C2214 1.419 . S
C2213 C2208 1.425 . S
C2213 C2210 1.409 . S
C2213 C2211 1.415 . S
C2214 H2204 0.930 . S
C2214 C2212 1.419 . S
C2214 C2215 1.362 . S
C2215 H2205 0.930 . S
C2215 C2208 1.409 . S
C2215 C2214 1.362 . S
H2216 C2222 0.930 . S
H2217 C2225 0.930 . S
H2218 C2226 0.930 . S
H2219 C2227 0.930 . S
H2220 C2230 0.930 . S
H2221 C2231 0.930 . S
C2222 H2216 0.930 . S
C2222 C2223 1.355 . S
C2222 C2224 1.415 . S
C2223 C2222 1.355 . S
C2223 C2225 1.419 . S
C2224 C2222 1.415 . S
C2224 C2229 1.425 . S
C2224 C2231 1.409 . S
C2225 H2217 0.930 . S
C2225 C2223 1.419 . S
C2225 C2226 1.362 . S
C2226 H2218 0.930 . S
C2226 C2225 1.362 . S
C2226 C2229 1.409 . S
C2227 H2219 0.930 . S
C2227 C2228 1.355 . S
C2227 C2229 1.415 . S
C2228 C2227 1.355 . S
C2228 C2230 1.419 . S
C2229 C2224 1.425 . S
C2229 C2226 1.409 . S
C2229 C2227 1.415 . S
C2230 H2220 0.930 . S
C2230 C2228 1.419 . S
C2230 C2231 1.362 . S
C2231 H2221 0.930 . S
C2231 C2224 1.409 . S
C2231 C2230 1.362 . S
H2232 C2238 0.930 . S
H2233 C2241 0.930 . S
H2234 C2242 0.930 . S
H2235 C2243 0.930 . S
H2236 C2246 0.930 . S
H2237 C2247 0.930 . S
C2238 H2232 0.930 . S
C2238 C2239 1.355 . S
C2238 C2240 1.415 . S
C2239 C2238 1.355 . S
C2239 C2241 1.419 . S
C2240 C2238 1.415 . S
C2240 C2245 1.425 . S
C2240 C2247 1.409 . S
C2241 H2233 0.930 . S
C2241 C2239 1.419 . S
C2241 C2242 1.362 . S
C2242 H2234 0.930 . S
C2242 C2241 1.362 . S
C2242 C2245 1.409 . S
C2243 H2235 0.930 . S
C2243 C2244 1.355 . S
C2243 C2245 1.415 . S
C2244 C2243 1.355 . S
C2244 C2246 1.419 . S
C2245 C2240 1.425 . S
C2245 C2242 1.409 . S
C2245 C2243 1.415 . S
C2246 H2236 0.930 . S
C2246 C2244 1.419 . S
C2246 C2247 1.362 . S
C2247 H2237 0.930 . S
C2247 C2240 1.409 . S
C2247 C2246 1.362 . S
H2248 C2254 0.930 . S
H2249 C2257 0.930 . S
H2250 C2258 0.930 . S
H2251 C2259 0.930 . S
H2252 C2262 0.930 . S
H2253 C2263 0.930 . S
C2254 H2248 0.930 . S
C2254 C2255 1.355 . S
C2254 C2256 1.415 . S
C2255 C2254 1.355 . S
C2255 C2257 1.419 . S
C2256 C2254 1.415 . S
C2256 C2261 1.425 . S
C2256 C2263 1.409 . S
C2257 H2249 0.930 . S
C2257 C2255 1.419 . S
C2257 C2258 1.362 . S
C2258 H2250 0.930 . S
C2258 C2257 1.362 . S
C2258 C2261 1.409 . S
C2259 H2251 0.930 . S
C2259 C2260 1.355 . S
C2259 C2261 1.415 . S
C2260 C2259 1.355 . S
C2260 C2262 1.419 . S
C2261 C2256 1.425 . S
C2261 C2258 1.409 . S
C2261 C2259 1.415 . S
C2262 H2252 0.930 . S
C2262 C2260 1.419 . S
C2262 C2263 1.362 . S
C2263 H2253 0.930 . S
C2263 C2256 1.409 . S
C2263 C2262 1.362 . S
H2264 C2270 0.930 . S
H2265 C2273 0.930 . S
H2266 C2274 0.930 . S
H2267 C2275 0.930 . S
H2268 C2278 0.930 . S
H2269 C2279 0.930 . S
C2270 H2264 0.930 . S
C2270 C2271 1.355 . S
C2270 C2272 1.415 . S
C2271 C2270 1.355 . S
C2271 C2273 1.419 . S
C2272 C2270 1.415 . S
C2272 C2277 1.425 . S
C2272 C2279 1.409 . S
C2273 H2265 0.930 . S
C2273 C2271 1.419 . S
C2273 C2274 1.362 . S
C2274 H2266 0.930 . S
C2274 C2273 1.362 . S
C2274 C2277 1.409 . S
C2275 H2267 0.930 . S
C2275 C2276 1.335 1_655 S
C2275 C2277 1.415 . S
C2276 C2275 1.335 1_455 S
C2276 C2278 1.428 . S
C2277 C2272 1.425 . S
C2277 C2274 1.409 . S
C2277 C2275 1.415 . S
C2278 H2268 0.930 . S
C2278 C2276 1.428 . S
C2278 C2279 1.362 1_455 S
C2279 H2269 0.930 . S
C2279 C2272 1.409 . S
C2279 C2278 1.362 1_655 S
H2280 C2286 0.930 . S
H2281 C2289 0.930 . S
H2282 C2290 0.930 . S
H2283 C2291 0.930 . S
H2284 C2294 0.930 . S
H2285 C2295 0.930 . S
C2286 H2280 0.930 . S
C2286 C2287 1.355 . S
C2286 C2288 1.415 . S
C2287 C2286 1.355 . S
C2287 C2289 1.419 . S
C2288 C2286 1.415 . S
C2288 C2293 1.425 . S
C2288 C2295 1.409 . S
C2289 H2281 0.930 . S
C2289 C2287 1.419 . S
C2289 C2290 1.362 . S
C2290 H2282 0.930 . S
C2290 C2289 1.362 . S
C2290 C2293 1.409 . S
C2291 H2283 0.930 . S
C2291 C2292 1.355 . S
C2291 C2293 1.415 . S
C2292 C2291 1.355 . S
C2292 C2294 1.419 . S
C2293 C2288 1.425 . S
C2293 C2290 1.409 . S
C2293 C2291 1.415 . S
C2294 H2284 0.930 . S
C2294 C2292 1.419 . S
C2294 C2295 1.362 . S
C2295 H2285 0.930 . S
C2295 C2288 1.409 . S
C2295 C2294 1.362 . S
H2296 C2302 0.930 . S
H2297 C2305 0.930 . S
H2298 C2306 0.930 . S
H2299 C2307 0.930 . S
H2300 C2310 0.930 . S
H2301 C2311 0.930 . S
C2302 H2296 0.930 . S
C2302 C2303 1.355 . S
C2302 C2304 1.415 . S
C2303 C2302 1.355 . S
C2303 C2305 1.419 . S
C2304 C2302 1.415 . S
C2304 C2309 1.425 . S
C2304 C2311 1.409 . S
C2305 H2297 0.930 . S
C2305 C2303 1.419 . S
C2305 C2306 1.362 . S
C2306 H2298 0.930 . S
C2306 C2305 1.362 . S
C2306 C2309 1.409 . S
C2307 H2299 0.930 . S
C2307 C2308 1.355 . S
C2307 C2309 1.415 . S
C2308 C2307 1.355 . S
C2308 C2310 1.419 . S
C2309 C2304 1.425 . S
C2309 C2306 1.409 . S
C2309 C2307 1.415 . S
C2310 H2300 0.930 . S
C2310 C2308 1.419 . S
C2310 C2311 1.362 . S
C2311 H2301 0.930 . S
C2311 C2304 1.409 . S
C2311 C2310 1.362 . S
H2312 C2318 0.930 . S
H2313 C2321 0.930 . S
H2314 C2322 0.930 . S
H2315 C2323 0.930 . S
H2316 C2326 0.930 . S
H2317 C2327 0.930 . S
C2318 H2312 0.930 . S
C2318 C2319 1.355 . S
C2318 C2320 1.415 . S
C2319 C2318 1.355 . S
C2319 C2321 1.419 . S
C2320 C2318 1.415 . S
C2320 C2325 1.425 . S
C2320 C2327 1.409 . S
C2321 H2313 0.930 . S
C2321 C2319 1.419 . S
C2321 C2322 1.362 . S
C2322 H2314 0.930 . S
C2322 C2321 1.362 . S
C2322 C2325 1.409 . S
C2323 H2315 0.930 . S
C2323 C2324 1.355 . S
C2323 C2325 1.415 . S
C2324 C2323 1.355 . S
C2324 C2326 1.419 . S
C2325 C2320 1.425 . S
C2325 C2322 1.409 . S
C2325 C2323 1.415 . S
C2326 H2316 0.930 . S
C2326 C2324 1.419 . S
C2326 C2327 1.362 . S
C2327 H2317 0.930 . S
C2327 C2320 1.409 . S
C2327 C2326 1.362 . S
H2328 C2334 0.930 . S
H2329 C2337 0.930 . S
H2330 C2338 0.930 . S
H2331 C2339 0.930 . S
H2332 C2342 0.930 . S
H2333 C2343 0.930 . S
C2334 H2328 0.930 . S
C2334 C2335 1.355 . S
C2334 C2336 1.415 . S
C2335 C2334 1.355 . S
C2335 C2337 1.419 . S
C2336 C2334 1.415 . S
C2336 C2341 1.425 . S
C2336 C2343 1.409 . S
C2337 H2329 0.930 . S
C2337 C2335 1.419 . S
C2337 C2338 1.362 . S
C2338 H2330 0.930 . S
C2338 C2337 1.362 . S
C2338 C2341 1.409 . S
C2339 H2331 0.930 . S
C2339 C2340 1.355 . S
C2339 C2341 1.415 . S
C2340 C2339 1.355 . S
C2340 C2342 1.419 . S
C2341 C2336 1.425 . S
C2341 C2338 1.409 . S
C2341 C2339 1.415 . S
C2342 H2332 0.930 . S
C2342 C2340 1.419 . S
C2342 C2343 1.362 . S
C2343 H2333 0.930 . S
C2343 C2336 1.409 . S
C2343 C2342 1.362 . S
H2344 C2350 0.930 . S
H2345 C2353 0.930 . S
H2346 C2354 0.930 . S
H2347 C2355 0.930 . S
H2348 C2358 0.930 . S
H2349 C2359 0.930 . S
C2350 H2344 0.930 . S
C2350 C2351 1.355 . S
C2350 C2352 1.415 . S
C2351 C2350 1.355 . S
C2351 C2353 1.419 . S
C2352 C2350 1.415 . S
C2352 C2357 1.425 . S
C2352 C2359 1.409 . S
C2353 H2345 0.930 . S
C2353 C2351 1.419 . S
C2353 C2354 1.362 . S
C2354 H2346 0.930 . S
C2354 C2353 1.362 . S
C2354 C2357 1.409 . S
C2355 H2347 0.930 . S
C2355 C2356 1.355 . S
C2355 C2357 1.415 . S
C2356 C2355 1.355 . S
C2356 C2358 1.419 . S
C2357 C2352 1.425 . S
C2357 C2354 1.409 . S
C2357 C2355 1.415 . S
C2358 H2348 0.930 . S
C2358 C2356 1.419 . S
C2358 C2359 1.362 . S
C2359 H2349 0.930 . S
C2359 C2352 1.409 . S
C2359 C2358 1.362 . S
H2360 C2366 0.930 . S
H2361 C2369 0.930 . S
H2362 C2370 0.930 . S
H2363 C2371 0.930 . S
H2364 C2374 0.930 . S
H2365 C2375 0.930 . S
C2366 H2360 0.930 . S
C2366 C2367 1.355 . S
C2366 C2368 1.415 . S
C2367 C2366 1.355 . S
C2367 C2369 1.419 . S
C2368 C2366 1.415 . S
C2368 C2373 1.425 . S
C2368 C2375 1.409 . S
C2369 H2361 0.930 . S
C2369 C2367 1.419 . S
C2369 C2370 1.362 . S
C2370 H2362 0.930 . S
C2370 C2369 1.362 . S
C2370 C2373 1.409 . S
C2371 H2363 0.930 . S
C2371 C2372 1.355 . S
C2371 C2373 1.415 . S
C2372 C2371 1.355 . S
C2372 C2374 1.419 . S
C2373 C2368 1.425 . S
C2373 C2370 1.409 . S
C2373 C2371 1.415 . S
C2374 H2364 0.930 . S
C2374 C2372 1.419 . S
C2374 C2375 1.362 . S
C2375 H2365 0.930 . S
C2375 C2368 1.409 . S
C2375 C2374 1.362 . S
H2376 C2382 0.930 . S
H2377 C2385 0.930 . S
H2378 C2386 0.930 . S
H2379 C2387 0.930 . S
H2380 C2390 0.930 . S
H2381 C2391 0.930 . S
C2382 H2376 0.930 . S
C2382 C2383 1.355 . S
C2382 C2384 1.415 . S
C2383 C2382 1.355 . S
C2383 C2385 1.419 . S
C2384 C2382 1.415 . S
C2384 C2389 1.425 . S
C2384 C2391 1.409 . S
C2385 H2377 0.930 . S
C2385 C2383 1.419 . S
C2385 C2386 1.362 . S
C2386 H2378 0.930 . S
C2386 C2385 1.362 . S
C2386 C2389 1.409 . S
C2387 H2379 0.930 . S
C2387 C2388 1.355 . S
C2387 C2389 1.415 1_545 S
C2388 C2387 1.355 . S
C2388 C2390 1.419 1_545 S
C2389 C2384 1.425 . S
C2389 C2386 1.409 . S
C2389 C2387 1.415 1_565 S
C2390 H2380 0.930 . S
C2390 C2388 1.419 1_565 S
C2390 C2391 1.362 . S
C2391 H2381 0.930 . S
C2391 C2384 1.409 . S
C2391 C2390 1.362 . S
H2392 C2398 0.930 . S
H2393 C2401 0.930 . S
H2394 C2402 0.930 . S
H2395 C2403 0.930 . S
H2396 C2406 0.930 . S
H2397 C2407 0.930 . S
C2398 H2392 0.930 . S
C2398 C2399 1.355 . S
C2398 C2400 1.415 . S
C2399 C2398 1.355 . S
C2399 C2401 1.419 . S
C2400 C2398 1.415 . S
C2400 C2405 1.425 . S
C2400 C2407 1.409 . S
C2401 H2393 0.930 . S
C2401 C2399 1.419 . S
C2401 C2402 1.362 . S
C2402 H2394 0.930 . S
C2402 C2401 1.362 . S
C2402 C2405 1.409 . S
C2403 H2395 0.930 . S
C2403 C2404 1.355 . S
C2403 C2405 1.415 . S
C2404 C2403 1.355 . S
C2404 C2406 1.419 . S
C2405 C2400 1.425 . S
C2405 C2402 1.409 . S
C2405 C2403 1.415 . S
C2406 H2396 0.930 . S
C2406 C2404 1.419 . S
C2406 C2407 1.362 . S
C2407 H2397 0.930 . S
C2407 C2400 1.409 . S
C2407 C2406 1.362 . S
H2408 C2414 0.930 . S
H2409 C2417 0.930 . S
H2410 C2418 0.930 . S
H2411 C2419 0.930 . S
H2412 C2422 0.930 . S
H2413 C2423 0.930 . S
C2414 H2408 0.930 . S
C2414 C2415 1.355 . S
C2414 C2416 1.415 . S
C2415 C2414 1.355 . S
C2415 C2417 1.419 . S
C2416 C2414 1.415 . S
C2416 C2421 1.425 . S
C2416 C2423 1.409 . S
C2417 H2409 0.930 . S
C2417 C2415 1.419 . S
C2417 C2418 1.362 . S
C2418 H2410 0.930 . S
C2418 C2417 1.362 . S
C2418 C2421 1.409 . S
C2419 H2411 0.930 . S
C2419 C2420 1.355 . S
C2419 C2421 1.415 . S
C2420 C2419 1.355 . S
C2420 C2422 1.419 . S
C2421 C2416 1.425 . S
C2421 C2418 1.409 . S
C2421 C2419 1.415 . S
C2422 H2412 0.930 . S
C2422 C2420 1.419 . S
C2422 C2423 1.362 . S
C2423 H2413 0.930 . S
C2423 C2416 1.409 . S
C2423 C2422 1.362 . S
H2424 C2430 0.930 . S
H2425 C2433 0.930 . S
H2426 C2434 0.930 . S
H2427 C2435 0.930 . S
H2428 C2438 0.930 . S
H2429 C2439 0.930 . S
C2430 H2424 0.930 . S
C2430 C2431 1.355 . S
C2430 C2432 1.415 . S
C2431 C2430 1.355 . S
C2431 C2433 1.419 . S
C2432 C2430 1.415 . S
C2432 C2437 1.425 . S
C2432 C2439 1.409 . S
C2433 H2425 0.930 . S
C2433 C2431 1.419 . S
C2433 C2434 1.362 . S
C2434 H2426 0.930 . S
C2434 C2433 1.362 . S
C2434 C2437 1.409 . S
C2435 H2427 0.930 . S
C2435 C2436 1.355 . S
C2435 C2437 1.415 . S
C2436 C2435 1.355 . S
C2436 C2438 1.419 . S
C2437 C2432 1.425 . S
C2437 C2434 1.409 . S
C2437 C2435 1.415 . S
C2438 H2428 0.930 . S
C2438 C2436 1.419 . S
C2438 C2439 1.362 . S
C2439 H2429 0.930 . S
C2439 C2432 1.409 . S
C2439 C2438 1.362 . S
H2440 C2446 0.930 . S
H2441 C2449 0.930 . S
H2442 C2450 0.930 . S
H2443 C2451 0.930 . S
H2444 C2454 0.930 1_556 S
H2445 C2455 0.930 . S
C2446 H2440 0.930 . S
C2446 C2447 1.355 . S
C2446 C2448 1.415 . S
C2447 C2446 1.355 . S
C2447 C2449 1.419 . S
C2448 C2446 1.415 . S
C2448 C2453 1.425 . S
C2448 C2455 1.409 . S
C2449 H2441 0.930 . S
C2449 C2447 1.419 . S
C2449 C2450 1.362 . S
C2450 H2442 0.930 . S
C2450 C2449 1.362 . S
C2450 C2453 1.409 . S
C2451 H2443 0.930 . S
C2451 C2452 1.355 1_554 S
C2451 C2453 1.415 . S
C2452 C2451 1.355 1_556 S
C2452 C2454 1.419 1_556 S
C2453 C2448 1.425 . S
C2453 C2450 1.409 . S
C2453 C2451 1.415 . S
C2454 H2444 0.930 1_554 S
C2454 C2452 1.419 1_554 S
C2454 C2455 1.362 . S
C2455 H2445 0.930 . S
C2455 C2448 1.409 . S
C2455 C2454 1.362 . S
H2456 C2462 0.930 . S
H2457 C2465 0.930 . S
H2458 C2466 0.930 . S
H2459 C2467 0.930 . S
H2460 C2470 0.930 . S
H2461 C2471 0.930 . S
C2462 H2456 0.930 . S
C2462 C2463 1.355 . S
C2462 C2464 1.415 . S
C2463 C2462 1.355 . S
C2463 C2465 1.419 . S
C2464 C2462 1.415 . S
C2464 C2469 1.425 . S
C2464 C2471 1.409 . S
C2465 H2457 0.930 . S
C2465 C2463 1.419 . S
C2465 C2466 1.362 . S
C2466 H2458 0.930 . S
C2466 C2465 1.362 . S
C2466 C2469 1.409 . S
C2467 H2459 0.930 . S
C2467 C2468 1.355 . S
C2467 C2469 1.415 . S
C2468 C2467 1.355 . S
C2468 C2470 1.419 . S
C2469 C2464 1.425 . S
C2469 C2466 1.409 . S
C2469 C2467 1.415 . S
C2470 H2460 0.930 . S
C2470 C2468 1.419 . S
C2470 C2471 1.362 . S
C2471 H2461 0.930 . S
C2471 C2464 1.409 . S
C2471 C2470 1.362 . S
H2472 C2478 0.930 . S
H2473 C2481 0.930 . S
H2474 C2482 0.930 . S
H2475 C2483 0.930 . S
H2476 C2486 0.930 . S
H2477 C2487 0.930 . S
C2478 H2472 0.930 . S
C2478 C2479 1.355 . S
C2478 C2480 1.415 . S
C2479 C2478 1.355 . S
C2479 C2481 1.419 . S
C2480 C2478 1.415 . S
C2480 C2485 1.425 . S
C2480 C2487 1.409 . S
C2481 H2473 0.930 . S
C2481 C2479 1.419 . S
C2481 C2482 1.362 . S
C2482 H2474 0.930 . S
C2482 C2481 1.362 . S
C2482 C2485 1.409 . S
C2483 H2475 0.930 . S
C2483 C2484 1.355 . S
C2483 C2485 1.415 . S
C2484 C2483 1.355 . S
C2484 C2486 1.419 . S
C2485 C2480 1.425 . S
C2485 C2482 1.409 . S
C2485 C2483 1.415 . S
C2486 H2476 0.930 . S
C2486 C2484 1.419 . S
C2486 C2487 1.362 . S
C2487 H2477 0.930 . S
C2487 C2480 1.409 . S
C2487 C2486 1.362 . S
C959 C101 2.348 1_455 S
C964 C325 2.353 . S
C975 C57 2.066 . S
C980 C376 2.096 . S
C991 C73 1.673 . S
C996 C405 1.840 . S
C1012 C449 1.355 . S
C1007 C78 1.356 . S
C1023 C21 1.365 . S
C1028 C489 1.381 . S
C1044 C525 1.768 . S
C1039 C31 1.625 . S
C1060 C575 1.931 . S
C1055 C49 1.879 . S
C1071 C0 2.250 . S
C1076 C605 2.354 . S
C1092 C335 1.965 . S
C1087 C218 2.014 . S
C1103 C229 0.671 . S
C1108 C378 0.750 . S
C1124 C415 1.236 . S
C1119 C257 1.257 . S
C1140 C445 1.474 . S
C1135 C164 1.403 . S
C1151 C216 1.451 . S
C1156 C485 1.521 . S
C1172 C535 0.928 . S
C1167 C231 0.891 . S
C1188 C569 0.946 . S
C1183 C255 0.939 . S
C1204 C615 1.950 . S
C1199 C166 1.995 . S
C1220 C329 1.147 . S
C1215 C143 1.150 . S
C1231 C265 1.708 . S
C1236 C655 1.724 . S
C1252 C689 1.379 . S
C1247 C299 1.362 . S
C1268 C725 0.797 . S
C1263 C291 0.863 . S
C1279 C104 1.281 . S
C1284 C609 1.371 . S
C1295 C117 1.483 . S
C1300 C409 1.467 . S
C1311 C304 1.560 . S
C1316 C775 1.578 . S
C1332 C794 0.156 . S
C1327 C278 0.369 . S
C1348 C336 2.329 . S
C1343 C60 2.299 . S
C1364 C805 2.015 . S
C1359 C96 2.019 . S
C1375 C88 1.728 . S
C1380 C416 1.695 . S
C1391 C65 1.420 . S
C1396 C778 1.319 . S
C1412 C498 1.255 . S
C1407 C10 1.312 . S
C1423 C44 1.540 . S
C1428 C696 1.677 . S
C1444 C554 1.859 1_556 S
C1439 C34 1.739 . S
C1460 C856 2.307 . S
C1455 C13 2.323 . S
C1476 C314 1.908 . S
C1471 C138 1.912 . S
C1492 C809 0.754 . S
C1487 C296 0.728 . S
C1503 C112 1.190 . S
C1508 C394 1.212 . S
C1519 C270 1.399 . S
C1524 C776 1.372 . S
C1535 C140 1.418 . S
C1540 C496 1.423 . S
C1556 C674 0.864 . S
C1551 C294 0.794 . S
C1567 C114 0.863 1_565 S
C1572 C578 0.803 . S
C1583 C268 1.902 . S
C1588 C834 1.912 . S
C1599 C169 1.331 . S
C1604 C338 1.270 . S
C1615 C161 1.645 . S
C1620 C634 1.649 . S
C1631 C234 1.511 . S
C1636 C538 1.365 . S
C1647 C226 0.749 . S
C1652 C736 0.783 . S
C1668 C858 1.351 . S
C1663 C247 1.437 . S
C1679 C195 1.586 . S
C1684 C418 1.445 . S
C1700 C434 1.514 . S
C1695 C239 1.513 . S
C1716 C375 0.323 . S
C1711 C187 0.180 . S
C1727 C75 2.369 . S
C1732 C885 2.355 . S
C1748 C816 2.089 . S
C1743 C83 2.076 . S
C1759 C99 1.744 . S
C1764 C925 1.824 . S
C1775 C52 1.371 1_655 S
C1780 C769 1.382 . S
C1791 C47 1.389 . S
C1796 C649 1.384 . S
C1812 C685 1.758 . S
C1807 C5 1.659 . S
C1828 C735 1.915 . S
C1823 C23 1.912 . S
C1844 C845 2.354 . S
C1839 C26 2.252 . S
C1860 C895 2.003 . S
C1855 C244 2.021 . S
C1871 C177 0.653 . S
C1876 C818 0.593 . S
C1892 C935 1.281 . S
C1887 C192 1.232 . S
C1908 C765 1.488 . S
C1903 C203 1.441 . S
C1924 C645 1.518 . S
C1919 C242 1.459 . S
C1935 C179 0.934 . S
C1940 C695 0.888 . S
C1956 C729 0.859 . S
C1951 C190 0.836 . S
C1967 C205 1.993 . S
C1972 C855 1.973 . S
C1988 C889 1.218 . S
C1983 C286 1.147 . S
C1999 C122 1.681 . S
C2004 C495 1.725 . S
C2020 C529 1.440 . S
C2015 C130 1.402 1_565 S
C2036 C565 0.865 . S
C2031 C148 0.770 . S
C2052 C849 1.314 . S
C2047 C273 1.288 . S
C2063 C260 1.479 . S
C2068 C929 1.496 . S
C2084 C455 1.580 . S
C2079 C135 1.554 . S
C2100 C354 0.187 . S
C2095 C109 0.296 . S
C2111 C86 2.331 . S
C2116 C896 2.295 . S
C2132 C365 2.010 . S
C2127 C70 2.020 . S
C2143 C62 1.704 . S
C2148 C936 1.722 . S
C2159 C91 1.428 . S
C2164 C458 1.308 . S
C2175 C36 1.360 . S
C2180 C658 1.328 . S
C2196 C536 1.660 . S
C2191 C18 1.566 . S
C2207 C8 1.778 . S
C2212 C714 1.856 . S
C2223 C39 2.322 . S
C2228 C616 2.305 . S
C2244 C874 1.923 . S
C2239 C307 1.909 . S
C2255 C153 0.726 . S
C2260 C369 0.757 . S
C2276 C914 1.196 . S
C2271 C281 1.220 . S
C2287 C127 1.404 . S
C2292 C456 1.398 . S
C2303 C309 1.406 . S
C2308 C656 1.414 . S
C2324 C514 0.843 . S
C2319 C151 0.827 . S
C2335 C283 0.843 . S
C2340 C738 0.778 . S
C2356 C594 1.913 . S
C2351 C125 1.895 . S
C2372 C898 1.261 . S
C2367 C221 1.344 . S
C2388 C474 1.661 . S
C2383 C200 1.663 . S
C2399 C208 1.511 . S
C2404 C698 1.373 . S
C2420 C576 0.813 . S
C2415 C174 0.725 . S
C2431 C182 1.462 . S
C2436 C618 1.310 . S
C2447 C156 1.586 . S
C2452 C938 1.438 . S
C2468 C754 1.514 . S
C2463 C213 1.513 . S
C2484 C815 0.109 . S
C2479 C252 0.445 . S
