# Generated by pormake.
# Topology gar, (4,6)-cn, num edge types: 1
# Building blocks:
#     Node 0, Type 0, BuildingBlock: GALJAG_clean_sbu_0, # of connection points: 4
#     Node 1, Type 0, BuildingBlock: GALJAG_clean_sbu_0, # of connection points: 4
#     Node 2, Type 0, BuildingBlock: GALJAG_clean_sbu_0, # of connection points: 4
#     Node 3, Type 0, BuildingBlock: GALJAG_clean_sbu_0, # of connection points: 4
#     Node 4, Type 0, BuildingBlock: GALJAG_clean_sbu_0, # of connection points: 4
#     Node 5, Type 0, BuildingBlock: GALJAG_clean_sbu_0, # of connection points: 4
#     Node 6, Type 0, BuildingBlock: GALJAG_clean_sbu_0, # of connection points: 4
#     Node 7, Type 0, BuildingBlock: GALJAG_clean_sbu_0, # of connection points: 4
#     Node 8, Type 0, BuildingBlock: GALJAG_clean_sbu_0, # of connection points: 4
#     Node 9, Type 0, BuildingBlock: GALJAG_clean_sbu_0, # of connection points: 4
#     Node 10, Type 0, BuildingBlock: GALJAG_clean_sbu_0, # of connection points: 4
#     Node 11, Type 0, BuildingBlock: GALJAG_clean_sbu_0, # of connection points: 4
#     Node 12, Type 0, BuildingBlock: GALJAG_clean_sbu_0, # of connection points: 4
#     Node 13, Type 0, BuildingBlock: GALJAG_clean_sbu_0, # of connection points: 4
#     Node 14, Type 0, BuildingBlock: GALJAG_clean_sbu_0, # of connection points: 4
#     Node 15, Type 0, BuildingBlock: GALJAG_clean_sbu_0, # of connection points: 4
#     Node 16, Type 0, BuildingBlock: GALJAG_clean_sbu_0, # of connection points: 4
#     Node 17, Type 0, BuildingBlock: GALJAG_clean_sbu_0, # of connection points: 4
#     Node 18, Type 0, BuildingBlock: GALJAG_clean_sbu_0, # of connection points: 4
#     Node 19, Type 0, BuildingBlock: GALJAG_clean_sbu_0, # of connection points: 4
#     Node 20, Type 0, BuildingBlock: GALJAG_clean_sbu_0, # of connection points: 4
#     Node 21, Type 0, BuildingBlock: GALJAG_clean_sbu_0, # of connection points: 4
#     Node 22, Type 0, BuildingBlock: GALJAG_clean_sbu_0, # of connection points: 4
#     Node 23, Type 0, BuildingBlock: GALJAG_clean_sbu_0, # of connection points: 4
#     Node 24, Type 1, BuildingBlock: MIFKUJ_clean_sbu_0, # of connection points: 6
#     Node 25, Type 1, BuildingBlock: MIFKUJ_clean_sbu_0, # of connection points: 6
#     Node 26, Type 1, BuildingBlock: MIFKUJ_clean_sbu_0, # of connection points: 6
#     Node 27, Type 1, BuildingBlock: MIFKUJ_clean_sbu_0, # of connection points: 6
#     Node 28, Type 1, BuildingBlock: MIFKUJ_clean_sbu_0, # of connection points: 6
#     Node 29, Type 1, BuildingBlock: MIFKUJ_clean_sbu_0, # of connection points: 6
#     Node 30, Type 1, BuildingBlock: MIFKUJ_clean_sbu_0, # of connection points: 6
#     Node 31, Type 1, BuildingBlock: MIFKUJ_clean_sbu_0, # of connection points: 6
#     Node 32, Type 1, BuildingBlock: MIFKUJ_clean_sbu_0, # of connection points: 6
#     Node 33, Type 1, BuildingBlock: MIFKUJ_clean_sbu_0, # of connection points: 6
#     Node 34, Type 1, BuildingBlock: MIFKUJ_clean_sbu_0, # of connection points: 6
#     Node 35, Type 1, BuildingBlock: MIFKUJ_clean_sbu_0, # of connection points: 6
#     Node 36, Type 1, BuildingBlock: MIFKUJ_clean_sbu_0, # of connection points: 6
#     Node 37, Type 1, BuildingBlock: MIFKUJ_clean_sbu_0, # of connection points: 6
#     Node 38, Type 1, BuildingBlock: MIFKUJ_clean_sbu_0, # of connection points: 6
#     Node 39, Type 1, BuildingBlock: MIFKUJ_clean_sbu_0, # of connection points: 6
#     Edge 40, Type (0, 1), BuildingBlock: XUDNAN_clean_linker_2, # of connection points: 2
#     Edge 41, Type (0, 1), BuildingBlock: XUDNAN_clean_linker_2, # of connection points: 2
#     Edge 42, Type (0, 1), BuildingBlock: XUDNAN_clean_linker_2, # of connection points: 2
#     Edge 43, Type (0, 1), BuildingBlock: XUDNAN_clean_linker_2, # of connection points: 2
#     Edge 44, Type (0, 1), BuildingBlock: XUDNAN_clean_linker_2, # of connection points: 2
#     Edge 45, Type (0, 1), BuildingBlock: XUDNAN_clean_linker_2, # of connection points: 2
#     Edge 46, Type (0, 1), BuildingBlock: XUDNAN_clean_linker_2, # of connection points: 2
#     Edge 47, Type (0, 1), BuildingBlock: XUDNAN_clean_linker_2, # of connection points: 2
#     Edge 48, Type (0, 1), BuildingBlock: XUDNAN_clean_linker_2, # of connection points: 2
#     Edge 49, Type (0, 1), BuildingBlock: XUDNAN_clean_linker_2, # of connection points: 2
#     Edge 50, Type (0, 1), BuildingBlock: XUDNAN_clean_linker_2, # of connection points: 2
#     Edge 51, Type (0, 1), BuildingBlock: XUDNAN_clean_linker_2, # of connection points: 2
#     Edge 52, Type (0, 1), BuildingBlock: XUDNAN_clean_linker_2, # of connection points: 2
#     Edge 53, Type (0, 1), BuildingBlock: XUDNAN_clean_linker_2, # of connection points: 2
#     Edge 54, Type (0, 1), BuildingBlock: XUDNAN_clean_linker_2, # of connection points: 2
#     Edge 55, Type (0, 1), BuildingBlock: XUDNAN_clean_linker_2, # of connection points: 2
#     Edge 56, Type (0, 1), BuildingBlock: XUDNAN_clean_linker_2, # of connection points: 2
#     Edge 57, Type (0, 1), BuildingBlock: XUDNAN_clean_linker_2, # of connection points: 2
#     Edge 58, Type (0, 1), BuildingBlock: XUDNAN_clean_linker_2, # of connection points: 2
#     Edge 59, Type (0, 1), BuildingBlock: XUDNAN_clean_linker_2, # of connection points: 2
#     Edge 60, Type (0, 1), BuildingBlock: XUDNAN_clean_linker_2, # of connection points: 2
#     Edge 61, Type (0, 1), BuildingBlock: XUDNAN_clean_linker_2, # of connection points: 2
#     Edge 62, Type (0, 1), BuildingBlock: XUDNAN_clean_linker_2, # of connection points: 2
#     Edge 63, Type (0, 1), BuildingBlock: XUDNAN_clean_linker_2, # of connection points: 2
#     Edge 64, Type (0, 1), BuildingBlock: XUDNAN_clean_linker_2, # of connection points: 2
#     Edge 65, Type (0, 1), BuildingBlock: XUDNAN_clean_linker_2, # of connection points: 2
#     Edge 66, Type (0, 1), BuildingBlock: XUDNAN_clean_linker_2, # of connection points: 2
#     Edge 67, Type (0, 1), BuildingBlock: XUDNAN_clean_linker_2, # of connection points: 2
#     Edge 68, Type (0, 1), BuildingBlock: XUDNAN_clean_linker_2, # of connection points: 2
#     Edge 69, Type (0, 1), BuildingBlock: XUDNAN_clean_linker_2, # of connection points: 2
#     Edge 70, Type (0, 1), BuildingBlock: XUDNAN_clean_linker_2, # of connection points: 2
#     Edge 71, Type (0, 1), BuildingBlock: XUDNAN_clean_linker_2, # of connection points: 2
#     Edge 72, Type (0, 1), BuildingBlock: XUDNAN_clean_linker_2, # of connection points: 2
#     Edge 73, Type (0, 1), BuildingBlock: XUDNAN_clean_linker_2, # of connection points: 2
#     Edge 74, Type (0, 1), BuildingBlock: XUDNAN_clean_linker_2, # of connection points: 2
#     Edge 75, Type (0, 1), BuildingBlock: XUDNAN_clean_linker_2, # of connection points: 2
#     Edge 76, Type (0, 1), BuildingBlock: XUDNAN_clean_linker_2, # of connection points: 2
#     Edge 77, Type (0, 1), BuildingBlock: XUDNAN_clean_linker_2, # of connection points: 2
#     Edge 78, Type (0, 1), BuildingBlock: XUDNAN_clean_linker_2, # of connection points: 2
#     Edge 79, Type (0, 1), BuildingBlock: XUDNAN_clean_linker_2, # of connection points: 2
#     Edge 80, Type (0, 1), BuildingBlock: XUDNAN_clean_linker_2, # of connection points: 2
#     Edge 81, Type (0, 1), BuildingBlock: XUDNAN_clean_linker_2, # of connection points: 2
#     Edge 82, Type (0, 1), BuildingBlock: XUDNAN_clean_linker_2, # of connection points: 2
#     Edge 83, Type (0, 1), BuildingBlock: XUDNAN_clean_linker_2, # of connection points: 2
#     Edge 84, Type (0, 1), BuildingBlock: XUDNAN_clean_linker_2, # of connection points: 2
#     Edge 85, Type (0, 1), BuildingBlock: XUDNAN_clean_linker_2, # of connection points: 2
#     Edge 86, Type (0, 1), BuildingBlock: XUDNAN_clean_linker_2, # of connection points: 2
#     Edge 87, Type (0, 1), BuildingBlock: XUDNAN_clean_linker_2, # of connection points: 2
#     Edge 88, Type (0, 1), BuildingBlock: XUDNAN_clean_linker_2, # of connection points: 2
#     Edge 89, Type (0, 1), BuildingBlock: XUDNAN_clean_linker_2, # of connection points: 2
#     Edge 90, Type (0, 1), BuildingBlock: XUDNAN_clean_linker_2, # of connection points: 2
#     Edge 91, Type (0, 1), BuildingBlock: XUDNAN_clean_linker_2, # of connection points: 2
#     Edge 92, Type (0, 1), BuildingBlock: XUDNAN_clean_linker_2, # of connection points: 2
#     Edge 93, Type (0, 1), BuildingBlock: XUDNAN_clean_linker_2, # of connection points: 2
#     Edge 94, Type (0, 1), BuildingBlock: XUDNAN_clean_linker_2, # of connection points: 2
#     Edge 95, Type (0, 1), BuildingBlock: XUDNAN_clean_linker_2, # of connection points: 2
#     Edge 96, Type (0, 1), BuildingBlock: XUDNAN_clean_linker_2, # of connection points: 2
#     Edge 97, Type (0, 1), BuildingBlock: XUDNAN_clean_linker_2, # of connection points: 2
#     Edge 98, Type (0, 1), BuildingBlock: XUDNAN_clean_linker_2, # of connection points: 2
#     Edge 99, Type (0, 1), BuildingBlock: XUDNAN_clean_linker_2, # of connection points: 2
#     Edge 100, Type (0, 1), BuildingBlock: XUDNAN_clean_linker_2, # of connection points: 2
#     Edge 101, Type (0, 1), BuildingBlock: XUDNAN_clean_linker_2, # of connection points: 2
#     Edge 102, Type (0, 1), BuildingBlock: XUDNAN_clean_linker_2, # of connection points: 2
#     Edge 103, Type (0, 1), BuildingBlock: XUDNAN_clean_linker_2, # of connection points: 2
#     Edge 104, Type (0, 1), BuildingBlock: XUDNAN_clean_linker_2, # of connection points: 2
#     Edge 105, Type (0, 1), BuildingBlock: XUDNAN_clean_linker_2, # of connection points: 2
#     Edge 106, Type (0, 1), BuildingBlock: XUDNAN_clean_linker_2, # of connection points: 2
#     Edge 107, Type (0, 1), BuildingBlock: XUDNAN_clean_linker_2, # of connection points: 2
#     Edge 108, Type (0, 1), BuildingBlock: XUDNAN_clean_linker_2, # of connection points: 2
#     Edge 109, Type (0, 1), BuildingBlock: XUDNAN_clean_linker_2, # of connection points: 2
#     Edge 110, Type (0, 1), BuildingBlock: XUDNAN_clean_linker_2, # of connection points: 2
#     Edge 111, Type (0, 1), BuildingBlock: XUDNAN_clean_linker_2, # of connection points: 2
#     Edge 112, Type (0, 1), BuildingBlock: XUDNAN_clean_linker_2, # of connection points: 2
#     Edge 113, Type (0, 1), BuildingBlock: XUDNAN_clean_linker_2, # of connection points: 2
#     Edge 114, Type (0, 1), BuildingBlock: XUDNAN_clean_linker_2, # of connection points: 2
#     Edge 115, Type (0, 1), BuildingBlock: XUDNAN_clean_linker_2, # of connection points: 2
#     Edge 116, Type (0, 1), BuildingBlock: XUDNAN_clean_linker_2, # of connection points: 2
#     Edge 117, Type (0, 1), BuildingBlock: XUDNAN_clean_linker_2, # of connection points: 2
#     Edge 118, Type (0, 1), BuildingBlock: XUDNAN_clean_linker_2, # of connection points: 2
#     Edge 119, Type (0, 1), BuildingBlock: XUDNAN_clean_linker_2, # of connection points: 2
#     Edge 120, Type (0, 1), BuildingBlock: XUDNAN_clean_linker_2, # of connection points: 2
#     Edge 121, Type (0, 1), BuildingBlock: XUDNAN_clean_linker_2, # of connection points: 2
#     Edge 122, Type (0, 1), BuildingBlock: XUDNAN_clean_linker_2, # of connection points: 2
#     Edge 123, Type (0, 1), BuildingBlock: XUDNAN_clean_linker_2, # of connection points: 2
#     Edge 124, Type (0, 1), BuildingBlock: XUDNAN_clean_linker_2, # of connection points: 2
#     Edge 125, Type (0, 1), BuildingBlock: XUDNAN_clean_linker_2, # of connection points: 2
#     Edge 126, Type (0, 1), BuildingBlock: XUDNAN_clean_linker_2, # of connection points: 2
#     Edge 127, Type (0, 1), BuildingBlock: XUDNAN_clean_linker_2, # of connection points: 2
#     Edge 128, Type (0, 1), BuildingBlock: XUDNAN_clean_linker_2, # of connection points: 2
#     Edge 129, Type (0, 1), BuildingBlock: XUDNAN_clean_linker_2, # of connection points: 2
#     Edge 130, Type (0, 1), BuildingBlock: XUDNAN_clean_linker_2, # of connection points: 2
#     Edge 131, Type (0, 1), BuildingBlock: XUDNAN_clean_linker_2, # of connection points: 2
#     Edge 132, Type (0, 1), BuildingBlock: XUDNAN_clean_linker_2, # of connection points: 2
#     Edge 133, Type (0, 1), BuildingBlock: XUDNAN_clean_linker_2, # of connection points: 2
#     Edge 134, Type (0, 1), BuildingBlock: XUDNAN_clean_linker_2, # of connection points: 2
#     Edge 135, Type (0, 1), BuildingBlock: XUDNAN_clean_linker_2, # of connection points: 2
# Relax obj value: 0.119
# Max RMSD: 0.277
# Mean RMSD: 0.153
data_MOF--net-gar--node1-GALJAG_clean_sbu_0--node2-MIFKUJ_clean_sbu_0--edge1-XUDNAN_clean_linker_2
_symmetry_space_group_name_H-M    P1
_symmetry_Int_Tables_number       1
_symmetry_cell_setting            triclinic
loop_
_symmetry_equiv_pos_as_xyz
'x, y, z'
_cell_length_a     56.523006
_cell_length_b     56.511485
_cell_length_c     54.215387
_cell_angle_alpha  94.436964
_cell_angle_beta   94.471282
_cell_angle_gamma 98.709931
loop_
_atom_site_label
_atom_site_type_symbol
_atom_site_fract_x
_atom_site_fract_y
_atom_site_fract_z
_atom_type_partial_charge
In0 In 0.03034 0.2779 0.39051 0.0
O1 O 0.04904 0.27611 0.35484 0.0
O2 O 0.06851 0.26958 0.38813 0.0
C3 C 0.98787 0.27845 0.36381 0.0
C4 C 0.02498 0.23887 0.41661 0.0
C5 C 0.03999 0.32226 0.41555 0.0
O6 O 0.00709 0.27722 0.35385 0.0
O7 O 0.99003 0.27932 0.38717 0.0
O8 O 0.02497 0.3055 0.42173 0.0
O9 O 0.05027 0.3168 0.3966 0.0
C10 C 0.06827 0.271 0.36496 0.0
O11 O 0.03436 0.25951 0.42617 0.0
O12 O 0.01863 0.2377 0.39366 0.0
In13 In 0.00385 0.75031 0.6362 0.0
O14 O 0.01959 0.76919 0.60369 0.0
O15 O 0.99119 0.78283 0.6205 0.0
C16 C 0.99601 0.70405 0.61729 0.0
C17 C 0.04687 0.75554 0.66303 0.0
C18 C 0.96711 0.7526 0.6644 0.0
O19 O 0.99881 0.72103 0.60335 0.0
O20 O 0.99606 0.71064 0.64003 0.0
O21 O 0.98872 0.75953 0.6728 0.0
O22 O 0.96406 0.7449 0.6417 0.0
C23 C 0.00616 0.7851 0.60449 0.0
O24 O 0.03489 0.77259 0.66202 0.0
O25 O 0.03736 0.73644 0.65038 0.0
In26 In 0.53562 0.77696 0.90081 0.0
O27 O 0.5671 0.7622 0.88487 0.0
O28 O 0.55782 0.79413 0.87139 0.0
C29 C 0.49494 0.77169 0.87017 0.0
C30 C 0.53732 0.74019 0.92916 0.0
C31 C 0.53889 0.81577 0.93405 0.0
O32 O 0.51054 0.75818 0.86779 0.0
O33 O 0.49946 0.78732 0.88845 0.0
O34 O 0.52855 0.79519 0.93777 0.0
O35 O 0.54813 0.81688 0.91363 0.0
C36 C 0.57105 0.7781 0.87001 0.0
O37 O 0.55479 0.75698 0.9288 0.0
O38 O 0.51884 0.74191 0.9151 0.0
In39 In 0.51482 0.2579 0.14394 0.0
O40 O 0.50654 0.22546 0.11424 0.0
O41 O 0.52783 0.22232 0.14745 0.0
C42 C 0.50982 0.29025 0.1105 0.0
C43 C 0.47703 0.25724 0.17186 0.0
C44 C 0.55918 0.27488 0.16659 0.0
O45 O 0.51901 0.2716 0.10554 0.0
O46 O 0.50256 0.29205 0.1319 0.0
O47 O 0.54491 0.25893 0.17528 0.0
O48 O 0.55096 0.28237 0.14692 0.0
C49 C 0.51844 0.2125 0.12664 0.0
O50 O 0.49744 0.26931 0.17865 0.0
O51 O 0.47565 0.24528 0.15103 0.0
In52 In 0.03535 0.78121 0.14819 0.0
O53 O 0.01649 0.7471 0.1249 0.0
O54 O 0.05461 0.75438 0.12721 0.0
C55 C 0.03428 0.81891 0.12017 0.0
C56 C 0.99819 0.78335 0.17632 0.0
C57 C 0.07348 0.78115 0.18146 0.0
O58 O 0.02358 0.79805 0.11276 0.0
O59 O 0.04584 0.82051 0.14119 0.0
O60 O 0.05214 0.77442 0.18617 0.0
O61 O 0.07564 0.78795 0.16001 0.0
C62 C 0.0357 0.74033 0.11887 0.0
O63 O 0.0136 0.80134 0.1736 0.0
O64 O 0.00132 0.76401 0.16463 0.0
In65 In 0.51564 0.74892 0.38271 0.0
O66 O 0.54113 0.73268 0.35793 0.0
O67 O 0.53571 0.76849 0.35341 0.0
C68 C 0.46846 0.7464 0.36723 0.0
C69 C 0.52638 0.71343 0.40999 0.0
C70 C 0.52429 0.79033 0.41264 0.0
O71 O 0.48321 0.7404 0.35254 0.0
O72 O 0.47736 0.75211 0.38922 0.0
O73 O 0.51746 0.77021 0.42043 0.0
O74 O 0.52772 0.78949 0.38991 0.0
C75 C 0.54647 0.75137 0.34692 0.0
O76 O 0.53971 0.73359 0.41084 0.0
O77 O 0.50781 0.71086 0.39481 0.0
In78 In 0.53172 0.28253 0.65623 0.0
O79 O 0.53019 0.26027 0.6192 0.0
O80 O 0.52348 0.24174 0.65136 0.0
C81 C 0.52668 0.32095 0.63057 0.0
C82 C 0.4966 0.28121 0.68751 0.0
C83 C 0.57728 0.28048 0.67451 0.0
O84 O 0.51404 0.30062 0.62509 0.0
O85 O 0.54168 0.3221 0.64926 0.0
O86 O 0.56123 0.28402 0.68865 0.0
O87 O 0.57054 0.27899 0.65171 0.0
C88 C 0.52541 0.24034 0.62823 0.0
O89 O 0.49533 0.26691 0.66828 0.0
O90 O 0.51563 0.29639 0.69107 0.0
In91 In 0.01539 0.25897 0.90001 0.0
O92 O 0.00248 0.23025 0.92578 0.0
O93 O 0.03903 0.23457 0.91844 0.0
C94 C 0.01615 0.29627 0.93452 0.0
C95 C 0.04958 0.26866 0.8682 0.0
C96 C 0.97472 0.25187 0.86851 0.0
O97 O 0.0347 0.29173 0.92475 0.0
O98 O 0.99735 0.28149 0.92754 0.0
O99 O 0.9835 0.27195 0.87979 0.0
O100 O 0.98667 0.23524 0.87266 0.0
C101 C 0.02257 0.22345 0.92946 0.0
O102 O 0.04004 0.24751 0.8712 0.0
O103 O 0.04147 0.28485 0.88076 0.0
In104 In 0.40051 0.03239 0.28917 0.0
O105 O 0.42079 0.05606 0.26322 0.0
O106 O 0.41809 0.01816 0.25599 0.0
C107 C 0.43298 0.03616 0.32915 0.0
C108 C 0.36843 0.06239 0.28166 0.0
C109 C 0.37353 0.98921 0.28937 0.0
O110 O 0.43613 0.02676 0.30812 0.0
O111 O 0.41325 0.04391 0.33025 0.0
O112 O 0.38411 0.99586 0.27083 0.0
O113 O 0.37669 0.0044 0.30817 0.0
C114 C 0.4258 0.03872 0.24961 0.0
O115 O 0.36291 0.03993 0.27762 0.0
O116 O 0.38989 0.06972 0.29031 0.0
In117 In 0.26595 0.13551 0.50169 0.0
O118 O 0.2643 0.17034 0.52555 0.0
O119 O 0.26847 0.13952 0.54437 0.0
C120 C 0.27779 0.16361 0.46465 0.0
C121 C 0.29954 0.10587 0.49889 0.0
C122 C 0.21919 0.11409 0.49682 0.0
O123 O 0.28719 0.16828 0.48672 0.0
O124 O 0.26275 0.14449 0.46108 0.0
O125 O 0.23578 0.10417 0.50639 0.0
O126 O 0.22623 0.13452 0.48983 0.0
C127 C 0.26651 0.16153 0.54611 0.0
O128 O 0.28067 0.10313 0.48427 0.0
O129 O 0.30157 0.12358 0.51497 0.0
In130 In 0.14643 0.01809 0.7944 0.0
O131 O 0.11144 0.01953 0.77105 0.0
O132 O 0.13683 0.00102 0.75427 0.0
C133 C 0.12044 0.01186 0.83408 0.0
C134 C 0.17884 0.98711 0.79412 0.0
C135 C 0.16562 0.0648 0.79167 0.0
O136 O 0.11581 0.99889 0.81378 0.0
O137 O 0.13865 0.02803 0.83474 0.0
O138 O 0.17612 0.05148 0.80503 0.0
O139 O 0.14569 0.0548 0.78101 0.0
C140 C 0.1168 0.00827 0.75183 0.0
O141 O 0.16174 0.9855 0.80781 0.0
O142 O 0.17982 0.0045 0.7808 0.0
In143 In 0.26296 0.89249 0.0132 0.0
O144 O 0.26656 0.85643 0.02832 0.0
O145 O 0.27318 0.88767 0.05385 0.0
C146 C 0.24995 0.8643 0.97036 0.0
C147 C 0.22669 0.91689 0.02354 0.0
C148 C 0.30517 0.92123 0.00979 0.0
O149 O 0.24055 0.85997 0.99024 0.0
O150 O 0.26504 0.88334 0.9719 0.0
O151 O 0.28589 0.92946 0.01215 0.0
O152 O 0.30318 0.89872 0.00952 0.0
C153 C 0.272 0.86516 0.05051 0.0
O154 O 0.23413 0.91522 0.00224 0.0
O155 O 0.23693 0.90563 0.03924 0.0
In156 In 0.27216 0.38996 0.04196 0.0
O157 O 0.26908 0.35725 0.06557 0.0
O158 O 0.26983 0.39201 0.08361 0.0
C159 C 0.27591 0.36314 0.99912 0.0
C160 C 0.2345 0.4132 0.0301 0.0
C161 C 0.31522 0.41864 0.05212 0.0
O162 O 0.25982 0.35692 0.01332 0.0
O163 O 0.28961 0.38244 0.00661 0.0
O164 O 0.29548 0.4264 0.05326 0.0
O165 O 0.31326 0.39624 0.04674 0.0
C166 C 0.26851 0.36982 0.08576 0.0
O167 O 0.25528 0.41937 0.02362 0.0
O168 O 0.23243 0.39496 0.04222 0.0
In169 In 0.79022 0.14659 0.02541 0.0
O170 O 0.81989 0.12821 0.00897 0.0
O171 O 0.81196 0.12242 0.04585 0.0
C172 C 0.747 0.11858 0.0231 0.0
C173 C 0.79408 0.17817 0.0661 0.0
C174 C 0.78678 0.17019 0.98427 0.0
O175 O 0.76639 0.11025 0.02638 0.0
O176 O 0.74947 0.1409 0.02109 0.0
O177 O 0.80153 0.17838 0.00274 0.0
O178 O 0.77515 0.14963 0.98601 0.0
C179 C 0.8242 0.11775 0.02819 0.0
O180 O 0.81015 0.17888 0.05118 0.0
O181 O 0.77655 0.16155 0.06059 0.0
In182 In 0.14759 0.50888 0.26636 0.0
O183 O 0.17099 0.49073 0.29251 0.0
O184 O 0.16028 0.47311 0.25643 0.0
C185 C 0.18079 0.54848 0.27637 0.0
C186 C 0.12744 0.51066 0.21995 0.0
C187 C 0.11049 0.51176 0.29416 0.0
O188 O 0.18266 0.53226 0.25959 0.0
O189 O 0.1627 0.54421 0.28854 0.0
O190 O 0.11947 0.49273 0.29099 0.0
O191 O 0.12015 0.5291 0.28325 0.0
C192 C 0.17188 0.47297 0.27728 0.0
O193 O 0.11887 0.4952 0.23379 0.0
O194 O 0.1466 0.52377 0.22899 0.0
In195 In 0.77304 0.88602 0.54756 0.0
O196 O 0.76845 0.85367 0.57149 0.0
O197 O 0.78016 0.88836 0.58972 0.0
C198 C 0.7656 0.85729 0.50414 0.0
C199 C 0.73688 0.91246 0.54959 0.0
C200 C 0.81452 0.91543 0.54228 0.0
O201 O 0.78581 0.8621 0.51648 0.0
O202 O 0.74929 0.86661 0.5138 0.0
O203 O 0.79399 0.92037 0.53599 0.0
O204 O 0.81432 0.89531 0.55102 0.0
C205 C 0.77469 0.86622 0.59183 0.0
O206 O 0.75858 0.92168 0.5492 0.0
O207 O 0.73334 0.88984 0.54935 0.0
In208 In 0.89004 0.01578 0.24994 0.0
O209 O 0.90335 0.00955 0.2114 0.0
O210 O 0.92481 0.03586 0.23705 0.0
C211 C 0.90578 0.01565 0.29834 0.0
C212 C 0.8603 0.04921 0.24479 0.0
C213 C 0.87309 0.96792 0.24617 0.0
O214 O 0.91988 0.02247 0.28238 0.0
O215 O 0.88401 0.01015 0.29004 0.0
O216 O 0.85914 0.98334 0.24452 0.0
O217 O 0.89513 0.97666 0.2483 0.0
C218 C 0.9222 0.0249 0.2156 0.0
O219 O 0.8586 0.03043 0.23015 0.0
O220 O 0.87698 0.0512 0.26201 0.0
In221 In 0.2864 0.65117 0.54241 0.0
O222 O 0.2965 0.62088 0.51649 0.0
O223 O 0.31616 0.62956 0.55178 0.0
C224 C 0.23904 0.63655 0.54511 0.0
C225 C 0.30021 0.67301 0.58825 0.0
C226 C 0.29259 0.68102 0.50617 0.0
O227 O 0.2529 0.62215 0.53857 0.0
O228 O 0.2492 0.65789 0.55074 0.0
O229 O 0.30954 0.67863 0.52189 0.0
O230 O 0.27279 0.66825 0.50864 0.0
C231 C 0.31322 0.61661 0.53146 0.0
O232 O 0.29959 0.6845 0.56921 0.0
O233 O 0.29407 0.65054 0.58412 0.0
In234 In 0.40082 0.51273 0.74967 0.0
O235 O 0.36772 0.52898 0.73584 0.0
O236 O 0.39012 0.54735 0.76673 0.0
C237 C 0.3809 0.46563 0.74704 0.0
C238 C 0.42774 0.524 0.71135 0.0
C239 C 0.42565 0.51353 0.79462 0.0
O240 O 0.36823 0.48217 0.74651 0.0
O241 O 0.40318 0.47283 0.74789 0.0
O242 O 0.43572 0.51445 0.77465 0.0
O243 O 0.40312 0.51253 0.79195 0.0
C244 C 0.37154 0.54668 0.7521 0.0
O245 O 0.43216 0.5346 0.7329 0.0
O246 O 0.40943 0.50789 0.70885 0.0
In247 In 0.63823 0.00804 0.77226 0.0
O248 O 0.65816 0.98453 0.79581 0.0
O249 O 0.65999 0.97988 0.75691 0.0
C250 C 0.66882 0.0498 0.78221 0.0
C251 C 0.60791 0.99858 0.73067 0.0
C252 C 0.60466 0.01388 0.8035 0.0
O253 O 0.66337 0.03543 0.79821 0.0
O254 O 0.65921 0.04297 0.76051 0.0
O255 O 0.61211 0.99405 0.7995 0.0
O256 O 0.61407 0.03067 0.79159 0.0
C257 C 0.66643 0.97388 0.778 0.0
O258 O 0.60264 0.99133 0.75124 0.0
O259 O 0.62897 0.00995 0.73065 0.0
In260 In 0.76769 0.63434 0.00732 0.0
O261 O 0.78422 0.6027 0.02154 0.0
O262 O 0.80273 0.62246 0.99549 0.0
C263 C 0.71994 0.61667 0.00297 0.0
C264 C 0.77589 0.66051 0.05215 0.0
C265 C 0.77099 0.66296 0.96951 0.0
O266 O 0.73515 0.60389 0.99612 0.0
O267 O 0.72884 0.6379 0.01093 0.0
O268 O 0.77681 0.67029 0.99203 0.0
O269 O 0.76373 0.64056 0.96553 0.0
C270 C 0.80228 0.60548 0.00928 0.0
O271 O 0.78343 0.66829 0.03258 0.0
O272 O 0.76497 0.63918 0.04938 0.0
In273 In 0.89087 0.52635 0.77999 0.0
O274 O 0.86322 0.54539 0.79879 0.0
O275 O 0.86757 0.55026 0.76087 0.0
C276 C 0.86566 0.4817 0.77392 0.0
C277 C 0.9192 0.53039 0.74224 0.0
C278 C 0.91975 0.53568 0.8229 0.0
O279 O 0.8869 0.48633 0.78408 0.0
O280 O 0.85738 0.4995 0.76605 0.0
O281 O 0.9228 0.54812 0.80477 0.0
O282 O 0.90188 0.51916 0.81959 0.0
C283 C 0.85663 0.55483 0.7796 0.0
O284 O 0.91075 0.51027 0.74912 0.0
O285 O 0.91364 0.54822 0.75458 0.0
In286 In 0.75714 0.38689 0.50786 0.0
O287 O 0.75604 0.351 0.52446 0.0
O288 O 0.76845 0.3825 0.54862 0.0
C289 C 0.74739 0.35746 0.46565 0.0
C290 C 0.72192 0.41393 0.51132 0.0
C291 C 0.79886 0.41652 0.50487 0.0
O292 O 0.76688 0.37162 0.47113 0.0
O293 O 0.7319 0.35876 0.48109 0.0
O294 O 0.7967 0.39399 0.50118 0.0
O295 O 0.78016 0.42423 0.51093 0.0
C296 C 0.76422 0.35986 0.54599 0.0
O297 O 0.72744 0.40099 0.52815 0.0
O298 O 0.7334 0.41236 0.49238 0.0
In299 In 0.65055 0.51672 0.29064 0.0
O300 O 0.66501 0.48314 0.30303 0.0
O301 O 0.67965 0.49943 0.27246 0.0
C302 C 0.67877 0.56066 0.29714 0.0
C303 C 0.62431 0.50615 0.24616 0.0
C304 C 0.61976 0.51492 0.32712 0.0
O305 O 0.68545 0.54188 0.30441 0.0
O306 O 0.65753 0.55753 0.28706 0.0
O307 O 0.61307 0.51465 0.30441 0.0
O308 O 0.64217 0.51637 0.33174 0.0
C309 C 0.67969 0.48276 0.28663 0.0
O310 O 0.62662 0.49075 0.26147 0.0
O311 O 0.63531 0.52702 0.25321 0.0
Zn312 Zn 0.05093 0.02173 0.03822 0.0
Zn313 Zn 0.00144 0.02717 0.01715 0.0
C314 C 0.04165 0.97884 0.05996 0.0
O315 O 0.05322 0.9941 0.078 0.0
C316 C 0.0065 0.0793 0.01888 0.0
O317 O 0.98483 0.07573 0.02643 0.0
O318 O 0.08611 0.02086 0.04797 0.0
O319 O 0.04916 0.03121 0.00278 0.0
O320 O 0.01524 0.00726 0.991 0.0
C321 C 0.09781 0.01301 0.03081 0.0
O322 O 0.08743 0.0089 0.00805 0.0
O323 O 0.03688 0.98657 0.03899 0.0
C324 C 0.95025 0.01708 0.0189 0.0
O325 O 0.95591 0.00101 0.03362 0.0
O326 O 0.96654 0.02836 0.00742 0.0
O327 O 0.00226 0.01772 0.05225 0.0
O328 O 0.03647 0.0405 0.06547 0.0
O329 O 0.01765 0.06152 0.01576 0.0
C330 C 0.03574 0.01741 0.98598 0.0
C331 C 0.01566 0.03047 0.06974 0.0
Zn332 Zn 0.2665 0.76683 0.30602 0.0
Zn333 Zn 0.27645 0.7736 0.2528 0.0
C334 C 0.24551 0.71953 0.29959 0.0
O335 O 0.23124 0.72996 0.3134 0.0
C336 C 0.29929 0.82147 0.25768 0.0
O337 O 0.313 0.81135 0.24294 0.0
O338 O 0.26696 0.76516 0.34315 0.0
O339 O 0.29835 0.78538 0.30108 0.0
O340 O 0.30435 0.76019 0.2705 0.0
C341 C 0.28465 0.75565 0.35136 0.0
O342 O 0.29895 0.74792 0.33572 0.0
O343 O 0.2636 0.73241 0.29233 0.0
C344 C 0.26801 0.7886 0.20591 0.0
O345 O 0.25417 0.79994 0.2194 0.0
O346 O 0.27989 0.77389 0.21593 0.0
O347 O 0.24144 0.76051 0.25556 0.0
O348 O 0.2376 0.7793 0.29195 0.0
O349 O 0.28127 0.80866 0.26512 0.0
C350 C 0.31245 0.77344 0.29032 0.0
C351 C 0.2286 0.77025 0.27044 0.0
Zn352 Zn 0.48887 0.02729 0.53355 0.0
Zn353 Zn 0.54433 0.99737 0.52147 0.0
C354 C 0.49886 0.07251 0.55813 0.0
O355 O 0.48528 0.06005 0.57272 0.0
C356 C 0.53653 0.95607 0.48636 0.0
O357 O 0.55096 0.97028 0.47403 0.0
O358 O 0.45323 0.02971 0.52978 0.0
O359 O 0.49813 0.01165 0.50167 0.0
O360 O 0.53671 0.0208 0.4975 0.0
C361 C 0.43915 0.02102 0.51071 0.0
O362 O 0.44697 0.00729 0.49349 0.0
O363 O 0.50435 0.06186 0.53837 0.0
C364 C 0.5855 0.97806 0.53654 0.0
O365 O 0.56816 0.96195 0.54265 0.0
O366 O 0.58008 0.99669 0.52707 0.0
O367 O 0.53184 0.0013 0.55436 0.0
O368 O 0.49832 0.01303 0.56545 0.0
O369 O 0.52996 0.96432 0.50672 0.0
C370 C 0.51505 0.02205 0.4903 0.0
C371 C 0.518 0.00548 0.57091 0.0
Zn372 Zn 0.29546 0.25592 0.76698 0.0
Zn373 Zn 0.24844 0.27807 0.78024 0.0
C374 C 0.28404 0.23068 0.71987 0.0
O375 O 0.2909 0.21433 0.7336 0.0
C376 C 0.25395 0.2758 0.83456 0.0
O377 O 0.23225 0.26318 0.83164 0.0
O378 O 0.3301 0.25049 0.76745 0.0
O379 O 0.29891 0.29034 0.78163 0.0
O380 O 0.2685 0.30309 0.76209 0.0
C381 C 0.342 0.2654 0.75484 0.0
O382 O 0.33095 0.28067 0.74315 0.0
O383 O 0.2836 0.2516 0.73024 0.0
C384 C 0.19759 0.26987 0.78602 0.0
O385 O 0.20132 0.24747 0.78365 0.0
O386 O 0.21498 0.28663 0.78401 0.0
O387 O 0.24366 0.24345 0.7654 0.0
O388 O 0.27479 0.23055 0.78376 0.0
O389 O 0.26424 0.28201 0.81549 0.0
C390 C 0.29053 0.30663 0.77044 0.0
C391 C 0.25299 0.22663 0.77468 0.0
Zn392 Zn 0.02585 0.99111 0.53002 0.0
Zn393 Zn 0.00707 0.04054 0.50999 0.0
C394 C 0.0535 0.9974 0.57674 0.0
O395 O 0.06691 0.98541 0.56334 0.0
C396 C 0.9753 0.02087 0.46934 0.0
O397 O 0.96147 0.02986 0.48475 0.0
O398 O 0.02945 0.95601 0.52931 0.0
O399 O 0.98967 0.98966 0.52231 0.0
O400 O 0.98437 0.02669 0.53371 0.0
C401 C 0.01659 0.94488 0.54433 0.0
O402 O 0.00304 0.95682 0.5576 0.0
O403 O 0.03475 0.00352 0.56613 0.0
C404 C 0.00724 0.08218 0.48412 0.0
O405 O 0.01448 0.06757 0.46732 0.0
O406 O 0.00218 0.07464 0.50491 0.0
O407 O 0.04207 0.04431 0.52073 0.0
O408 O 0.05053 0.00852 0.50914 0.0
O409 O 0.99757 0.02213 0.47603 0.0
C410 C 0.97646 0.00429 0.53053 0.0
C411 C 0.05631 0.03129 0.51187 0.0
Zn412 Zn 0.25793 0.79511 0.766 0.0
Zn413 Zn 0.28684 0.73468 0.78382 0.0
C414 C 0.20973 0.79652 0.74451 0.0
O415 O 0.21832 0.81873 0.7407 0.0
C416 C 0.3341 0.76408 0.79248 0.0
O417 O 0.32272 0.78106 0.80127 0.0
O418 O 0.2623 0.83139 0.77226 0.0
O419 O 0.26453 0.77867 0.79797 0.0
O420 O 0.27677 0.74832 0.81623 0.0
C421 C 0.24988 0.84002 0.7883 0.0
O422 O 0.23696 0.82514 0.80134 0.0
O423 O 0.22333 0.78363 0.75502 0.0
C424 C 0.29511 0.68814 0.79056 0.0
O425 O 0.30923 0.70133 0.80853 0.0
O426 O 0.2803 0.69817 0.7777 0.0
O427 O 0.27231 0.75325 0.75898 0.0
O428 O 0.27582 0.78357 0.73711 0.0
O429 O 0.32233 0.74373 0.7843 0.0
C430 C 0.26871 0.76828 0.81758 0.0
C431 C 0.28034 0.76266 0.74024 0.0
Zn432 Zn 0.52952 0.02211 0.00174 0.0
Zn433 Zn 0.51829 0.00901 0.05277 0.0
C434 C 0.57654 0.04839 0.00217 0.0
O435 O 0.56422 0.06364 0.99201 0.0
C436 C 0.47303 0.98789 0.03163 0.0
O437 O 0.48068 0.97078 0.04364 0.0
O438 O 0.52364 0.02797 0.96587 0.0
O439 O 0.52168 0.98573 0.00401 0.0
O440 O 0.5316 0.97968 0.04302 0.0
C441 C 0.51754 0.01083 0.94891 0.0
O442 O 0.51198 0.9888 0.95509 0.0
O443 O 0.5654 0.02875 0.00818 0.0
C444 C 0.498 0.02815 0.09224 0.0
O445 O 0.49333 0.04148 0.07425 0.0
O446 O 0.50891 0.01038 0.0878 0.0
O447 O 0.54187 0.03883 0.05211 0.0
O448 O 0.51793 0.04905 0.02298 0.0
O449 O 0.48679 0.0079 0.03179 0.0
C450 C 0.52761 0.97199 0.02022 0.0
C451 C 0.53193 0.055 0.04268 0.0
Zn452 Zn 0.27709 0.24359 0.26127 0.0
Zn453 Zn 0.26946 0.2894 0.28945 0.0
C454 C 0.31926 0.24963 0.23714 0.0
O455 O 0.30317 0.23834 0.21969 0.0
C456 C 0.22678 0.26995 0.30788 0.0
O457 O 0.24057 0.27918 0.32801 0.0
O458 O 0.27373 0.20853 0.24872 0.0
O459 O 0.27116 0.24113 0.2981 0.0
O460 O 0.29031 0.27616 0.31456 0.0
C461 C 0.28976 0.19983 0.2613 0.0
O462 O 0.30344 0.2136 0.27916 0.0
O463 O 0.31244 0.25562 0.25825 0.0
C464 C 0.24731 0.32872 0.28692 0.0
O465 O 0.23689 0.31344 0.26834 0.0
O466 O 0.26387 0.3226 0.30116 0.0
O467 O 0.28262 0.29394 0.25675 0.0
O468 O 0.25923 0.26271 0.23712 0.0
O469 O 0.2357 0.27029 0.28704 0.0
C470 C 0.28301 0.2541 0.31658 0.0
C471 C 0.26997 0.28423 0.23725 0.0
Zn472 Zn 0.52464 0.4916 0.0294 0.0
Zn473 Zn 0.51024 0.54215 0.01722 0.0
C474 C 0.55287 0.49219 0.07444 0.0
O475 O 0.56491 0.48108 0.05869 0.0
C476 C 0.48566 0.52616 0.97045 0.0
O477 O 0.46894 0.53445 0.98256 0.0
O478 O 0.52669 0.45594 0.02559 0.0
O479 O 0.48826 0.49191 0.02267 0.0
O480 O 0.48343 0.52861 0.03593 0.0
C481 C 0.5134 0.44504 0.04045 0.0
O482 O 0.5003 0.45744 0.05382 0.0
O483 O 0.53404 0.50001 0.06637 0.0
C484 C 0.5256 0.58591 0.99963 0.0
O485 O 0.54012 0.57206 0.99064 0.0
O486 O 0.50925 0.57711 0.01264 0.0
O487 O 0.54231 0.54171 0.03512 0.0
O488 O 0.55106 0.51155 0.01191 0.0
O489 O 0.50613 0.52607 0.98202 0.0
C490 C 0.47533 0.50634 0.03194 0.0
C491 C 0.5574 0.53254 0.02291 0.0
Zn492 Zn 0.76711 0.2931 0.26546 0.0
Zn493 Zn 0.77453 0.23804 0.27012 0.0
C494 C 0.7277 0.29491 0.23376 0.0
O495 O 0.74588 0.30734 0.22435 0.0
C496 C 0.81934 0.255 0.2993 0.0
O497 O 0.80755 0.24486 0.31668 0.0
O498 O 0.77035 0.32965 0.26841 0.0
O499 O 0.77367 0.28399 0.30015 0.0
O500 O 0.75459 0.24665 0.29793 0.0
C501 C 0.75651 0.3381 0.2831 0.0
O502 O 0.74419 0.32334 0.29674 0.0
O503 O 0.73195 0.28394 0.25286 0.0
C504 C 0.77672 0.19008 0.24699 0.0
O505 O 0.76948 0.1997 0.22705 0.0
O506 O 0.77883 0.20244 0.26796 0.0
O507 O 0.76245 0.24623 0.2365 0.0
O508 O 0.7863 0.28103 0.23853 0.0
O509 O 0.80857 0.25522 0.27788 0.0
C510 C 0.7613 0.26711 0.30992 0.0
C511 C 0.7762 0.26162 0.22613 0.0
Zn512 Zn 0.03307 0.52829 0.49275 0.0
Zn513 Zn 0.00566 0.50079 0.54098 0.0
C514 C 0.06941 0.56911 0.5051 0.0
O515 O 0.0511 0.58035 0.50024 0.0
C516 C 0.96538 0.48269 0.50495 0.0
O517 O 0.97569 0.46336 0.50389 0.0
O518 O 0.02742 0.53045 0.45594 0.0
O519 O 0.03504 0.49387 0.49917 0.0
O520 O 0.02171 0.47327 0.52958 0.0
C521 C 0.02549 0.51173 0.44085 0.0
O522 O 0.02422 0.4906 0.4496 0.0
O523 O 0.06625 0.54628 0.50259 0.0
C524 C 0.98016 0.51433 0.5792 0.0
O525 O 0.97464 0.52734 0.5612 0.0
O526 O 0.99348 0.49845 0.57505 0.0
O527 O 0.02764 0.53251 0.54493 0.0
O528 O 0.01187 0.54684 0.51234 0.0
O529 O 0.97621 0.50157 0.51768 0.0
C530 C 0.0326 0.4746 0.50999 0.0
C531 C 0.01853 0.54922 0.53541 0.0
Zn532 Zn 0.80328 0.75774 0.26983 0.0
Zn533 Zn 0.75104 0.77219 0.28073 0.0
C534 C 0.7868 0.73191 0.22384 0.0
O535 O 0.79312 0.71501 0.23709 0.0
C536 C 0.76938 0.78096 0.33595 0.0
O537 O 0.78992 0.77381 0.33201 0.0
O538 O 0.83822 0.75617 0.26553 0.0
O539 O 0.80369 0.79053 0.28665 0.0
O540 O 0.77234 0.79918 0.26511 0.0
C541 C 0.84702 0.77277 0.25278 0.0
O542 O 0.83316 0.78746 0.24414 0.0
O543 O 0.78801 0.75306 0.23434 0.0
C544 C 0.70243 0.75905 0.28363 0.0
O545 O 0.7125 0.74425 0.29704 0.0
O546 O 0.71586 0.77416 0.27251 0.0
O547 O 0.75237 0.73595 0.27461 0.0
O548 O 0.78888 0.7312 0.28877 0.0
O549 O 0.75367 0.78113 0.31787 0.0
C550 C 0.79369 0.80558 0.27517 0.0
C551 C 0.76667 0.72298 0.28405 0.0
Zn552 Zn 0.76835 0.26272 0.79493 0.0
Zn553 Zn 0.78271 0.26282 0.74467 0.0
C554 C 0.73935 0.21898 0.7986 0.0
O555 O 0.72643 0.23429 0.80802 0.0
C556 C 0.807 0.31033 0.76169 0.0
O557 O 0.82585 0.30098 0.75549 0.0
O558 O 0.76173 0.26936 0.83065 0.0
O559 O 0.80505 0.26914 0.7943 0.0
O560 O 0.80696 0.24539 0.7607 0.0
C561 C 0.77817 0.27176 0.84847 0.0
O562 O 0.80071 0.27676 0.84369 0.0
O563 O 0.75915 0.22678 0.79025 0.0
C564 C 0.77669 0.28288 0.70039 0.0
O565 O 0.76292 0.29337 0.71473 0.0
O566 O 0.78795 0.26691 0.7088 0.0
O567 O 0.74903 0.24686 0.74422 0.0
O568 O 0.74295 0.27501 0.77188 0.0
O569 O 0.7866 0.29709 0.76008 0.0
C570 C 0.81627 0.25518 0.78176 0.0
C571 C 0.73516 0.2604 0.75289 0.0
Zn572 Zn 0.77308 0.73558 0.76474 0.0
Zn573 Zn 0.75826 0.78941 0.78837 0.0
C574 C 0.81396 0.73558 0.73926 0.0
O575 O 0.79687 0.72536 0.72225 0.0
C576 C 0.71038 0.75909 0.78296 0.0
O577 O 0.72073 0.7429 0.79387 0.0
O578 O 0.76436 0.69973 0.75589 0.0
O579 O 0.77016 0.74036 0.80225 0.0
O580 O 0.76607 0.77579 0.82007 0.0
C581 C 0.77475 0.68887 0.77223 0.0
O582 O 0.78873 0.70144 0.79062 0.0
O583 O 0.80832 0.74202 0.7607 0.0
C584 C 0.74828 0.83436 0.77759 0.0
O585 O 0.74006 0.82102 0.75689 0.0
O586 O 0.75853 0.82481 0.79511 0.0
O587 O 0.78132 0.78531 0.76297 0.0
O588 O 0.75932 0.75617 0.73908 0.0
O589 O 0.72337 0.77753 0.77648 0.0
C590 C 0.76867 0.75405 0.82164 0.0
C591 C 0.77108 0.7774 0.74172 0.0
Zn592 Zn 0.54933 0.51562 0.53196 0.0
Zn593 Zn 0.49695 0.52611 0.50733 0.0
C594 C 0.53417 0.47587 0.55961 0.0
O595 O 0.5394 0.49299 0.57788 0.0
C596 C 0.52985 0.57437 0.50737 0.0
O597 O 0.54789 0.56646 0.51907 0.0
O598 O 0.58541 0.51815 0.53829 0.0
O599 O 0.54728 0.51997 0.49517 0.0
O600 O 0.50979 0.50639 0.48042 0.0
C601 C 0.59727 0.50774 0.55386 0.0
O602 O 0.58644 0.49766 0.57181 0.0
O603 O 0.53593 0.48116 0.53736 0.0
C604 C 0.45321 0.53821 0.51674 0.0
O605 O 0.46827 0.54943 0.53512 0.0
O606 O 0.46122 0.52518 0.50013 0.0
O607 O 0.49991 0.51732 0.54278 0.0
O608 O 0.53527 0.53761 0.55653 0.0
O609 O 0.50963 0.56083 0.50277 0.0
C610 C 0.53191 0.51167 0.47703 0.0
C611 C 0.51349 0.53027 0.56003 0.0
Zn612 Zn 0.99819 0.52516 0.02774 0.0
Zn613 Zn 0.04854 0.51204 0.01403 0.0
C614 C 0.00471 0.57372 0.04787 0.0
O615 O 0.98678 0.5643 0.05982 0.0
C616 C 0.03586 0.46533 0.99269 0.0
O617 O 0.05073 0.4755 0.97773 0.0
O618 O 0.96241 0.52553 0.03008 0.0
O619 O 0.00047 0.51135 0.99257 0.0
O620 O 0.03632 0.53009 0.98671 0.0
C621 C 0.95294 0.53808 0.01466 0.0
O622 O 0.96633 0.54821 0.99841 0.0
O623 O 0.01353 0.56036 0.03221 0.0
C624 C 0.09044 0.49176 0.02444 0.0
O625 O 0.07613 0.48221 0.04025 0.0
O626 O 0.08311 0.50697 0.01069 0.0
O627 O 0.04856 0.52838 0.04771 0.0
O628 O 0.01335 0.51051 0.05708 0.0
O629 O 0.02992 0.47817 0.01079 0.0
C630 C 0.01452 0.52279 0.9788 0.0
C631 C 0.03476 0.52082 0.06373 0.0
H632 H 0.9918 0.2013 0.96031 0.0
H633 H 0.06173 0.20043 0.93277 0.0
H634 H 0.06711 0.16558 0.9563 0.0
H635 H 0.00879 0.18352 0.02283 0.0
H636 H 0.9798 0.16563 0.02444 0.0
H637 H 0.98234 0.19172 0.00709 0.0
H638 H 0.96133 0.16544 0.96784 0.0
H639 H 0.95865 0.1394 0.98511 0.0
H640 H 0.97344 0.13923 0.95683 0.0
H641 H 0.0632 0.12863 0.97974 0.0
H642 H 0.05027 0.09246 0.00108 0.0
H643 H 0.98341 0.11824 0.01437 0.0
C644 C 0.00837 0.19395 0.95949 0.0
C645 C 0.02636 0.20355 0.94474 0.0
C646 C 0.04777 0.19342 0.94407 0.0
C647 C 0.051 0.17365 0.9574 0.0
C648 C 0.03282 0.16447 0.97161 0.0
C649 C 0.01199 0.1744 0.9729 0.0
C650 C 0.99481 0.16058 0.98874 0.0
C651 C 0.99123 0.1763 0.01217 0.0
C652 C 0.97064 0.15056 0.97372 0.0
C653 C 0.00874 0.14069 0.99523 0.0
C654 C 0.03076 0.14343 0.98547 0.0
C655 C 0.04617 0.1265 0.98779 0.0
C656 C 0.03866 0.106 0.99997 0.0
C657 C 0.01589 0.10256 0.00958 0.0
C658 C 0.00106 0.12047 0.00759 0.0
H659 H 0.1201 0.78139 0.17151 0.0
H660 H 0.07369 0.77876 0.23163 0.0
H661 H 0.10857 0.77652 0.26147 0.0
H662 H 0.15517 0.73857 0.19293 0.0
H663 H 0.18289 0.75353 0.18312 0.0
H664 H 0.15464 0.75656 0.16689 0.0
H665 H 0.16517 0.80296 0.17463 0.0
H666 H 0.1935 0.80004 0.19081 0.0
H667 H 0.17304 0.81666 0.20592 0.0
H668 H 0.14892 0.77521 0.28475 0.0
H669 H 0.19098 0.77212 0.29911 0.0
H670 H 0.20973 0.77235 0.22304 0.0
C671 C 0.11734 0.78058 0.191 0.0
C672 C 0.09431 0.78043 0.19937 0.0
C673 C 0.09126 0.77894 0.22491 0.0
C674 C 0.11094 0.77773 0.24196 0.0
C675 C 0.13343 0.77773 0.23308 0.0
C676 C 0.13667 0.77894 0.20816 0.0
C677 C 0.1624 0.77748 0.20316 0.0
C678 C 0.16384 0.75521 0.18548 0.0
C679 C 0.17422 0.80067 0.19304 0.0
C680 C 0.1731 0.77512 0.22912 0.0
C681 C 0.15624 0.77568 0.24621 0.0
C682 C 0.16224 0.77459 0.27151 0.0
C683 C 0.18611 0.77286 0.27949 0.0
C684 C 0.20346 0.77178 0.26215 0.0
C685 C 0.19676 0.77283 0.23668 0.0
H686 H 0.53908 0.83586 0.40004 0.0
H687 H 0.51223 0.79622 0.46024 0.0
H688 H 0.51111 0.83447 0.48511 0.0
H689 H 0.57728 0.88398 0.43888 0.0
H690 H 0.57106 0.9067 0.41881 0.0
H691 H 0.56996 0.87615 0.406 0.0
H692 H 0.52638 0.87579 0.38688 0.0
H693 H 0.52725 0.90624 0.39991 0.0
H694 H 0.50385 0.88293 0.40676 0.0
H695 H 0.51143 0.87682 0.5027 0.0
H696 H 0.5168 0.9206 0.51357 0.0
H697 H 0.5443 0.93267 0.44223 0.0
C698 C 0.53319 0.83524 0.41855 0.0
C699 C 0.52577 0.81312 0.42826 0.0
C700 C 0.51809 0.81301 0.45251 0.0
C701 C 0.51727 0.83461 0.46671 0.0
C702 C 0.5243 0.85611 0.45641 0.0
C703 C 0.53237 0.85662 0.43302 0.0
C704 C 0.53912 0.88216 0.42642 0.0
C705 C 0.56595 0.88756 0.42229 0.0
C706 C 0.5232 0.88706 0.40364 0.0
C707 C 0.53363 0.89593 0.44978 0.0
C708 C 0.52487 0.88056 0.46674 0.0
C709 C 0.51836 0.88905 0.48962 0.0
C710 C 0.52136 0.91396 0.49556 0.0
C711 C 0.53099 0.93004 0.47874 0.0
C712 C 0.53692 0.92083 0.45547 0.0
H713 H 0.4561 0.24759 0.68516 0.0
H714 H 0.49266 0.31327 0.72694 0.0
H715 H 0.45857 0.31315 0.75291 0.0
H716 H 0.39866 0.26243 0.68226 0.0
H717 H 0.38339 0.23263 0.68568 0.0
H718 H 0.41177 0.23649 0.67245 0.0
H719 H 0.4291 0.21159 0.70568 0.0
H720 H 0.40073 0.20777 0.71914 0.0
H721 H 0.42793 0.22053 0.73816 0.0
H722 H 0.41878 0.30846 0.77084 0.0
H723 H 0.37609 0.29975 0.77913 0.0
H724 H 0.36574 0.23655 0.72663 0.0
C725 C 0.45711 0.26174 0.70004 0.0
C726 C 0.47702 0.28043 0.70411 0.0
C727 C 0.47761 0.29872 0.72361 0.0
C728 C 0.45838 0.29875 0.73849 0.0
C729 C 0.43888 0.28017 0.73381 0.0
C730 C 0.43817 0.26193 0.71514 0.0
C731 C 0.41448 0.24494 0.71286 0.0
C732 C 0.4013 0.2441 0.68677 0.0
C733 C 0.4183 0.21971 0.71935 0.0
C734 C 0.40153 0.25704 0.73246 0.0
C735 C 0.41607 0.27715 0.74459 0.0
C736 C 0.40745 0.29244 0.76194 0.0
C737 C 0.38324 0.28735 0.76659 0.0
C738 C 0.36806 0.26712 0.75406 0.0
C739 C 0.37737 0.25156 0.73712 0.0
H740 H 0.98442 0.82474 0.6098 0.0
H741 H 0.03505 0.79317 0.56653 0.0
H742 H 0.04207 0.8301 0.54452 0.0
H743 H 0.95894 0.85726 0.56167 0.0
H744 H 0.95692 0.88277 0.58307 0.0
H745 H 0.95465 0.85319 0.59377 0.0
H746 H 0.98971 0.86857 0.62767 0.0
H747 H 0.99213 0.89816 0.61704 0.0
H748 H 0.01801 0.88304 0.61871 0.0
H749 H 0.04495 0.87183 0.52891 0.0
H750 H 0.04343 0.91428 0.5213 0.0
H751 H 0.99129 0.91765 0.57566 0.0
C752 C 0.99667 0.82537 0.59537 0.0
C753 C 0.00903 0.80603 0.58967 0.0
C754 C 0.02527 0.80776 0.57103 0.0
C755 C 0.02937 0.82865 0.55847 0.0
C756 C 0.01713 0.84758 0.56486 0.0
C757 C 0.00109 0.84605 0.58288 0.0
C758 C 0.9912 0.86925 0.58741 0.0
C759 C 0.9638 0.86538 0.58109 0.0
C760 C 0.99819 0.88041 0.6143 0.0
C761 C 0.00413 0.88412 0.56911 0.0
C762 C 0.019 0.87141 0.5562 0.0
C763 C 0.03324 0.88188 0.53881 0.0
C764 C 0.03228 0.90599 0.53462 0.0
C765 C 0.01722 0.91927 0.54783 0.0
C766 C 0.00293 0.90802 0.56515 0.0
H767 H 0.45845 0.79806 0.87278 0.0
H768 H 0.4829 0.741 0.82811 0.0
H769 H 0.4463 0.73735 0.79917 0.0
H770 H 0.39863 0.77203 0.86906 0.0
H771 H 0.38665 0.79974 0.8676 0.0
H772 H 0.41614 0.79997 0.88271 0.0
H773 H 0.4339 0.83139 0.85392 0.0
H774 H 0.40438 0.83106 0.83855 0.0
H775 H 0.42869 0.82487 0.82069 0.0
H776 H 0.40561 0.73677 0.77806 0.0
H777 H 0.36258 0.73776 0.76742 0.0
H778 H 0.36472 0.79562 0.82543 0.0
C779 C 0.45626 0.78505 0.85669 0.0
C780 C 0.47343 0.76982 0.8526 0.0
C781 C 0.46989 0.75283 0.83154 0.0
C782 C 0.44929 0.75077 0.81491 0.0
C783 C 0.43259 0.76596 0.81957 0.0
C784 C 0.43584 0.78278 0.83994 0.0
C785 C 0.4142 0.79539 0.84199 0.0
C786 C 0.40327 0.79153 0.8668 0.0
C787 C 0.42069 0.82227 0.83858 0.0
C788 C 0.39785 0.7823 0.82019 0.0
C789 C 0.40899 0.76572 0.80723 0.0
C790 C 0.39681 0.74996 0.78775 0.0
C791 C 0.37239 0.75062 0.7819 0.0
C792 C 0.36046 0.76685 0.79557 0.0
C793 C 0.37355 0.7834 0.81437 0.0
H794 H 0.50015 0.18589 0.08235 0.0
H795 H 0.54565 0.18422 0.1504 0.0
H796 H 0.5542 0.1445 0.13554 0.0
H797 H 0.47504 0.1221 0.07637 0.0
H798 H 0.47462 0.11897 0.04299 0.0
H799 H 0.47166 0.14744 0.05887 0.0
H800 H 0.50798 0.16808 0.03787 0.0
H801 H 0.51115 0.13963 0.02209 0.0
H802 H 0.53625 0.15702 0.04127 0.0
H803 H 0.55906 0.10624 0.11374 0.0
H804 H 0.55821 0.06923 0.0868 0.0
H805 H 0.50887 0.09368 0.03238 0.0
C806 C 0.5118 0.17706 0.09411 0.0
C807 C 0.52227 0.18818 0.11753 0.0
C808 C 0.53742 0.17609 0.13241 0.0
C809 C 0.54244 0.15352 0.12413 0.0
C810 C 0.53211 0.14316 0.10094 0.0
C811 C 0.51696 0.1543 0.08615 0.0
C812 C 0.5082 0.13878 0.06205 0.0
C813 C 0.48075 0.13139 0.05996 0.0
C814 C 0.51639 0.15165 0.03949 0.0
C815 C 0.52097 0.11734 0.06569 0.0
C816 C 0.53469 0.12046 0.08827 0.0
C817 C 0.54833 0.10349 0.09604 0.0
C818 C 0.54774 0.08251 0.08049 0.0
C819 C 0.53345 0.07846 0.05742 0.0
C820 C 0.52001 0.09626 0.04985 0.0
H821 H 0.11206 0.26134 0.38299 0.0
H822 H 0.07123 0.27269 0.31498 0.0
H823 H 0.10631 0.26817 0.29153 0.0
H824 H 0.16607 0.2951 0.37132 0.0
H825 H 0.18499 0.27562 0.38483 0.0
H826 H 0.15583 0.27688 0.39545 0.0
H827 H 0.14452 0.23071 0.38556 0.0
H828 H 0.17366 0.22938 0.37467 0.0
H829 H 0.14683 0.21743 0.3547 0.0
H830 H 0.14699 0.26557 0.27611 0.0
H831 H 0.19038 0.26813 0.27083 0.0
H832 H 0.20433 0.25876 0.34899 0.0
C833 C 0.11038 0.2625 0.3631 0.0
C834 C 0.08891 0.26726 0.35078 0.0
C835 C 0.0875 0.26896 0.32478 0.0
C836 C 0.10729 0.26628 0.31128 0.0
C837 C 0.12829 0.26176 0.32403 0.0
C838 C 0.12994 0.2599 0.34938 0.0
C839 C 0.15503 0.25682 0.35901 0.0
C840 C 0.16612 0.27733 0.37881 0.0
C841 C 0.155 0.23211 0.36908 0.0
C842 C 0.16751 0.25825 0.33535 0.0
C843 C 0.15171 0.26056 0.31523 0.0
C844 C 0.15946 0.26346 0.29167 0.0
C845 C 0.18411 0.26478 0.2888 0.0
C846 C 0.20066 0.26356 0.30948 0.0
C847 C 0.19206 0.2596 0.33282 0.0
H848 H 0.92195 0.00053 0.16984 0.0
H849 H 0.96247 0.05933 0.21919 0.0
H850 H 0.99186 0.06671 0.18797 0.0
H851 H 0.97363 0.97881 0.14589 0.0
H852 H 0.95891 0.9709 0.11502 0.0
H853 H 0.94145 0.97011 0.14145 0.0
H854 H 0.91522 0.99909 0.12206 0.0
H855 H 0.93254 0.99965 0.09557 0.0
H856 H 0.9296 0.02739 0.11295 0.0
H857 H 0.01678 0.06776 0.15043 0.0
H858 H 0.03396 0.0629 0.10993 0.0
H859 H 0.97668 0.00347 0.08594 0.0
C860 C 0.937 0.01497 0.17411 0.0
C861 C 0.93989 0.02939 0.19696 0.0
C862 C 0.9599 0.04804 0.20182 0.0
C863 C 0.9767 0.05235 0.18421 0.0
C864 C 0.97332 0.03777 0.16185 0.0
C865 C 0.95394 0.01943 0.15681 0.0
C866 C 0.95423 0.00637 0.13141 0.0
C867 C 0.95723 0.97999 0.13358 0.0
C868 C 0.93155 0.00827 0.11451 0.0
C869 C 0.97646 0.02054 0.12266 0.0
C870 C 0.98745 0.03842 0.14049 0.0
C871 C 0.00831 0.05376 0.13637 0.0
C872 C 0.01798 0.05086 0.11335 0.0
C873 C 0.00666 0.03289 0.09469 0.0
C874 C 0.98575 0.0175 0.09969 0.0
H875 H 0.25782 0.69 0.47185 0.0
H876 H 0.33404 0.7083 0.4953 0.0
H877 H 0.33919 0.73385 0.4605 0.0
H878 H 0.26327 0.68447 0.40809 0.0
H879 H 0.23677 0.69716 0.3994 0.0
H880 H 0.23871 0.68239 0.42753 0.0
H881 H 0.23062 0.72076 0.45275 0.0
H882 H 0.22876 0.73572 0.42464 0.0
H883 H 0.24964 0.74903 0.45061 0.0
H884 H 0.33697 0.75301 0.42079 0.0
H885 H 0.32741 0.76515 0.37884 0.0
H886 H 0.25232 0.73634 0.38206 0.0
C887 C 0.27553 0.69967 0.46988 0.0
C888 C 0.29556 0.69725 0.48623 0.0
C889 C 0.31848 0.70999 0.48298 0.0
C890 C 0.32154 0.7246 0.46335 0.0
C891 C 0.30146 0.72642 0.4474 0.0
C892 C 0.27887 0.71442 0.45051 0.0
C893 C 0.26054 0.7182 0.42986 0.0
C894 C 0.24917 0.69413 0.41537 0.0
C895 C 0.24125 0.73174 0.44008 0.0
C896 C 0.2765 0.73366 0.41422 0.0
C897 C 0.30002 0.73828 0.42478 0.0
C898 C 0.31855 0.75006 0.41264 0.0
C899 C 0.31299 0.75687 0.38887 0.0
C900 C 0.2891 0.75214 0.37771 0.0
C901 C 0.27055 0.74089 0.39071 0.0
H902 H 0.61571 0.99598 0.68145 0.0
H903 H 0.55963 0.99591 0.73165 0.0
H904 H 0.52945 0.99559 0.69601 0.0
H905 H 0.5951 0.03373 0.63971 0.0
H906 H 0.60234 0.01735 0.61217 0.0
H907 H 0.61914 0.01611 0.64147 0.0
H908 H 0.6089 0.96957 0.63675 0.0
H909 H 0.59213 0.97076 0.60733 0.0
H910 H 0.57792 0.95542 0.63154 0.0
H911 H 0.50629 0.99987 0.65509 0.0
H912 H 0.49154 0.00452 0.6117 0.0
H913 H 0.56249 0.99865 0.58872 0.0
C914 C 0.59702 0.99557 0.68482 0.0
C915 C 0.5899 0.99603 0.70915 0.0
C916 C 0.56533 0.9954 0.71302 0.0
C917 C 0.5481 0.99528 0.69294 0.0
C918 C 0.5557 0.99516 0.66912 0.0
C919 C 0.57951 0.99478 0.66495 0.0
C920 C 0.58303 0.99479 0.63761 0.0
C921 C 0.60095 0.01681 0.63246 0.0
C922 C 0.59096 0.97123 0.62773 0.0
C923 C 0.55775 0.99631 0.62724 0.0
C924 C 0.54217 0.99646 0.64559 0.0
C925 C 0.51821 0.9993 0.64045 0.0
C926 C 0.51 0.002 0.61582 0.0
C927 C 0.52574 0.00167 0.59678 0.0
C928 C 0.54982 0.99859 0.60272 0.0
H929 H 0.24665 0.3228 0.97563 0.0
H930 H 0.31113 0.3734 0.96847 0.0
H931 H 0.31509 0.35307 0.92754 0.0
H932 H 0.26686 0.26991 0.94262 0.0
H933 H 0.23718 0.25859 0.92789 0.0
H934 H 0.2408 0.27523 0.95806 0.0
H935 H 0.21433 0.30515 0.94126 0.0
H936 H 0.21057 0.28857 0.91116 0.0
H937 H 0.22232 0.32025 0.91428 0.0
H938 H 0.3105 0.32983 0.88624 0.0
H939 H 0.29639 0.30641 0.84621 0.0
H940 H 0.23464 0.27071 0.87929 0.0
C941 C 0.26181 0.32929 0.96561 0.0
C942 C 0.27863 0.34961 0.9753 0.0
C943 C 0.29805 0.3578 0.96148 0.0
C944 C 0.30055 0.34631 0.93824 0.0
C945 C 0.28357 0.3265 0.92906 0.0
C946 C 0.26458 0.31798 0.94226 0.0
C947 C 0.24796 0.29739 0.92726 0.0
C948 C 0.24822 0.27389 0.9397 0.0
C949 C 0.22228 0.30321 0.92325 0.0
C950 C 0.25994 0.29654 0.90318 0.0
C951 C 0.28076 0.31312 0.90487 0.0
C952 C 0.29438 0.31656 0.88474 0.0
C953 C 0.2862 0.30314 0.86205 0.0
C954 C 0.2644 0.28666 0.85955 0.0
C955 C 0.25147 0.28297 0.88062 0.0
H956 H 0.94934 0.03397 0.32506 0.0
H957 H 0.88065 0.98912 0.32993 0.0
H958 H 0.89356 0.98169 0.37264 0.0
H959 H 0.98649 0.99979 0.36265 0.0
H960 H 0.00538 0.02621 0.37804 0.0
H961 H 0.99177 0.02683 0.34695 0.0
H962 H 0.97235 0.06364 0.3613 0.0
H963 H 0.98612 0.06328 0.39232 0.0
H964 H 0.95404 0.06188 0.38708 0.0
H965 H 0.912 0.98112 0.4152 0.0
H966 H 0.93442 0.98967 0.45668 0.0
H967 H 0.99181 0.03427 0.42545 0.0
C968 C 0.93715 0.02247 0.33512 0.0
C969 C 0.91398 0.0121 0.32418 0.0
C970 C 0.89841 0.99736 0.33797 0.0
C971 C 0.90565 0.99286 0.36219 0.0
C972 C 0.92851 0.00329 0.37249 0.0
C973 C 0.94402 0.01797 0.35958 0.0
C974 C 0.96694 0.02827 0.37587 0.0
C975 C 0.98895 0.01975 0.36524 0.0
C976 C 0.97003 0.0559 0.37935 0.0
C977 C 0.96167 0.01725 0.39993 0.0
C978 C 0.93945 0.00275 0.39739 0.0
C979 C 0.9296 0.99208 0.41737 0.0
C980 C 0.94245 0.99694 0.4408 0.0
C981 C 0.96498 0.01207 0.44398 0.0
C982 C 0.97499 0.02192 0.42323 0.0
H983 H 0.3006 0.72035 0.60315 0.0
H984 H 0.31133 0.65231 0.63052 0.0
H985 H 0.31554 0.67111 0.67359 0.0
H986 H 0.34019 0.76081 0.65415 0.0
H987 H 0.31948 0.78213 0.65467 0.0
H988 H 0.32272 0.76497 0.62601 0.0
H989 H 0.27687 0.74958 0.62096 0.0
H990 H 0.27351 0.76661 0.64947 0.0
H991 H 0.26303 0.73467 0.64565 0.0
H992 H 0.31171 0.69474 0.71288 0.0
H993 H 0.29844 0.72078 0.74543 0.0
H994 H 0.28977 0.77393 0.69347 0.0
C995 C 0.30469 0.70967 0.6182 0.0
C996 C 0.3059 0.68498 0.6136 0.0
C997 C 0.3105 0.67131 0.63372 0.0
C998 C 0.31307 0.68188 0.65821 0.0
C999 C 0.31107 0.70614 0.66222 0.0
C1000 C 0.30705 0.71992 0.64278 0.0
C1001 C 0.30224 0.74455 0.65218 0.0
C1002 C 0.32236 0.76428 0.64641 0.0
C1003 C 0.27744 0.74909 0.64144 0.0
C1004 C 0.30284 0.74198 0.67982 0.0
C1005 C 0.3086 0.71991 0.68522 0.0
C1006 C 0.30777 0.7123 0.70897 0.0
C1007 C 0.30012 0.72727 0.72748 0.0
C1008 C 0.29327 0.74955 0.72228 0.0
C1009 C 0.29546 0.75728 0.69826 0.0
H1010 H 0.58019 0.97988 0.82914 0.0
H1011 H 0.58932 0.05587 0.81821 0.0
H1012 H 0.56195 0.06231 0.85056 0.0
H1013 H 0.51596 0.9738 0.84321 0.0
H1014 H 0.52041 0.95315 0.86625 0.0
H1015 H 0.53786 0.95394 0.83978 0.0
H1016 H 0.5772 0.96135 0.86922 0.0
H1017 H 0.55988 0.96042 0.89563 0.0
H1018 H 0.58211 0.98631 0.89282 0.0
H1019 H 0.5389 0.0615 0.88794 0.0
H1020 H 0.52199 0.05345 0.92767 0.0
H1021 H 0.52638 0.97774 0.91303 0.0
C1022 C 0.576 0.99777 0.83318 0.0
C1023 C 0.58676 0.01737 0.82119 0.0
C1024 C 0.58112 0.04059 0.82713 0.0
C1025 C 0.56553 0.0444 0.84538 0.0
C1026 C 0.55549 0.02474 0.85719 0.0
C1027 C 0.56036 0.00184 0.8512 0.0
C1028 C 0.54903 0.98417 0.86811 0.0
C1029 C 0.52966 0.96514 0.85346 0.0
C1030 C 0.5682 0.9724 0.88229 0.0
C1031 C 0.53796 0.00092 0.88527 0.0
C1032 C 0.5416 0.02419 0.87848 0.0
C1033 C 0.53537 0.04327 0.89311 0.0
C1034 C 0.52581 0.03855 0.91564 0.0
C1035 C 0.52259 0.01494 0.92321 0.0
C1036 C 0.528 0.99585 0.9074 0.0
H1037 H 0.26394 0.32212 0.09681 0.0
H1038 H 0.26923 0.39536 0.13022 0.0
H1039 H 0.26745 0.38053 0.17149 0.0
H1040 H 0.22238 0.29453 0.13961 0.0
H1041 H 0.23624 0.26791 0.14102 0.0
H1042 H 0.23682 0.28378 0.11342 0.0
H1043 H 0.28322 0.28782 0.11643 0.0
H1044 H 0.28277 0.27195 0.14399 0.0
H1045 H 0.30053 0.30135 0.1447 0.0
H1046 H 0.26856 0.35936 0.20885 0.0
H1047 H 0.27125 0.33225 0.24158 0.0
H1048 H 0.26267 0.27112 0.18613 0.0
C1049 C 0.26453 0.33495 0.11284 0.0
C1050 C 0.26674 0.35996 0.11023 0.0
C1051 C 0.26754 0.37617 0.13165 0.0
C1052 C 0.26649 0.36793 0.15524 0.0
C1053 C 0.26446 0.34333 0.15723 0.0
C1054 C 0.26335 0.32695 0.13675 0.0
C1055 C 0.26175 0.30149 0.14466 0.0
C1056 C 0.23787 0.28601 0.13404 0.0
C1057 C 0.28336 0.28998 0.13699 0.0
C1058 C 0.26267 0.30634 0.17277 0.0
C1059 C 0.2642 0.33069 0.17935 0.0
C1060 C 0.26691 0.34021 0.20397 0.0
C1061 C 0.26834 0.32455 0.22248 0.0
C1062 C 0.26657 0.29943 0.21653 0.0
C1063 C 0.26343 0.29014 0.19125 0.0
H1064 H 0.2031 0.94393 0.99313 0.0
H1065 H 0.20955 0.92408 0.06882 0.0
H1066 H 0.18031 0.95048 0.08026 0.0
H1067 H 0.19662 0.00653 0.00871 0.0
H1068 H 0.17504 0.00693 0.98251 0.0
H1069 H 0.19757 0.98761 0.98058 0.0
H1070 H 0.16434 0.95058 0.96883 0.0
H1071 H 0.14184 0.96987 0.97036 0.0
H1072 H 0.14043 0.94452 0.98874 0.0
H1073 H 0.1492 0.97794 0.08305 0.0
H1074 H 0.11591 0.00112 0.07584 0.0
H1075 H 0.13004 0.00284 0.99841 0.0
C1076 C 0.19841 0.9452 0.01212 0.0
C1077 C 0.20858 0.93201 0.0301 0.0
C1078 C 0.20195 0.93406 0.05475 0.0
C1079 C 0.18549 0.94912 0.06147 0.0
C1080 C 0.17593 0.96207 0.04335 0.0
C1081 C 0.18204 0.96014 0.01914 0.0
C1082 C 0.16829 0.97498 0.0029 0.0
C1083 C 0.18541 0.99521 0.9931 0.0
C1084 C 0.1528 0.95903 0.98145 0.0
C1085 C 0.15298 0.98498 0.02156 0.0
C1086 C 0.15794 0.97772 0.04491 0.0
C1087 C 0.1453 0.98393 0.0649 0.0
C1088 C 0.12654 0.99722 0.06069 0.0
C1089 C 0.12049 0.00382 0.03661 0.0
C1090 C 0.13437 0.99816 0.01706 0.0
H1091 H 0.69472 0.5703 0.99064 0.0
H1092 H 0.68659 0.64267 0.01816 0.0
H1093 H 0.64468 0.62847 0.02491 0.0
H1094 H 0.63288 0.55467 0.95872 0.0
H1095 H 0.62929 0.52398 0.96655 0.0
H1096 H 0.65874 0.53967 0.96238 0.0
H1097 H 0.67411 0.53037 0.00625 0.0
H1098 H 0.64468 0.51486 0.01066 0.0
H1099 H 0.65899 0.53934 0.03269 0.0
H1100 H 0.60631 0.60701 0.03346 0.0
H1101 H 0.56943 0.57984 0.03809 0.0
H1102 H 0.59858 0.52033 0.00245 0.0
C1103 C 0.68393 0.58315 0.99769 0.0
C1104 C 0.69404 0.60764 0.00396 0.0
C1105 C 0.67939 0.62387 0.01326 0.0
C1106 C 0.6555 0.61598 0.01721 0.0
C1107 C 0.64627 0.59179 0.01151 0.0
C1108 C 0.65967 0.57557 0.00153 0.0
C1109 C 0.6448 0.55049 0.99737 0.0
C1110 C 0.64122 0.54169 0.96959 0.0
C1111 C 0.65634 0.53272 0.01266 0.0
C1112 C 0.62124 0.55527 0.0071 0.0
C1113 C 0.62286 0.57927 0.01529 0.0
C1114 C 0.60451 0.58827 0.02658 0.0
C1115 C 0.58358 0.57251 0.0292 0.0
C1116 C 0.58072 0.54789 0.02019 0.0
C1117 C 0.59997 0.5391 0.00908 0.0
H1118 H 0.68272 0.4445 0.31453 0.0
H1119 H 0.71193 0.47867 0.25211 0.0
H1120 H 0.73725 0.44702 0.2463 0.0
H1121 H 0.73829 0.42467 0.33837 0.0
H1122 H 0.72277 0.39671 0.34706 0.0
H1123 H 0.70805 0.42286 0.34728 0.0
H1124 H 0.6727 0.39906 0.31774 0.0
H1125 H 0.68725 0.37285 0.31755 0.0
H1126 H 0.67883 0.3845 0.28867 0.0
H1127 H 0.75801 0.41037 0.246 0.0
H1128 H 0.77135 0.37107 0.25048 0.0
H1129 H 0.7287 0.36105 0.31316 0.0
C1130 C 0.69462 0.44545 0.2998 0.0
C1131 C 0.6954 0.46411 0.28382 0.0
C1132 C 0.71108 0.4646 0.26464 0.0
C1133 C 0.72558 0.44672 0.26122 0.0
C1134 C 0.72432 0.4285 0.27721 0.0
C1135 C 0.70925 0.42775 0.29614 0.0
C1136 C 0.71055 0.40572 0.31013 0.0
C1137 C 0.72051 0.41293 0.33732 0.0
C1138 C 0.68587 0.38958 0.3084 0.0
C1139 C 0.72826 0.39391 0.29575 0.0
C1140 C 0.73622 0.40744 0.27701 0.0
C1141 C 0.75206 0.39972 0.26077 0.0
C1142 C 0.75961 0.3774 0.2635 0.0
C1143 C 0.7512 0.36298 0.28222 0.0
C1144 C 0.73562 0.37166 0.29874 0.0
H1145 H 0.83825 0.40383 0.48482 0.0
H1146 H 0.81013 0.46505 0.5176 0.0
H1147 H 0.84874 0.4911 0.51365 0.0
H1148 H 0.89443 0.41629 0.51504 0.0
H1149 H 0.91009 0.40654 0.48933 0.0
H1150 H 0.8792 0.39403 0.4911 0.0
H1151 H 0.86838 0.40701 0.4473 0.0
H1152 H 0.89936 0.41983 0.44554 0.0
H1153 H 0.87606 0.43806 0.44135 0.0
H1154 H 0.89183 0.50895 0.51126 0.0
H1155 H 0.93608 0.51646 0.5134 0.0
H1156 H 0.93567 0.44358 0.48135 0.0
C1157 C 0.84009 0.4228 0.4908 0.0
C1158 C 0.82132 0.43247 0.50157 0.0
C1159 C 0.82435 0.45734 0.50925 0.0
C1160 C 0.84613 0.47227 0.5069 0.0
C1161 C 0.86444 0.46209 0.49642 0.0
C1162 C 0.86155 0.43793 0.48837 0.0
C1163 C 0.8846 0.43087 0.47996 0.0
C1164 C 0.89254 0.41077 0.49476 0.0
C1165 C 0.88193 0.42351 0.45187 0.0
C1166 C 0.90139 0.45443 0.48617 0.0
C1167 C 0.8893 0.47243 0.49494 0.0
C1168 C 0.90142 0.49515 0.50398 0.0
C1169 C 0.92659 0.49924 0.5051 0.0
C1170 C 0.93935 0.48056 0.49759 0.0
C1171 C 0.92644 0.45828 0.487 0.0
H1172 H 0.37998 0.10909 0.2728 0.0
H1173 H 0.31929 0.05255 0.27499 0.0
H1174 H 0.29143 0.08065 0.26347 0.0
H1175 H 0.35539 0.15611 0.29942 0.0
H1176 H 0.3685 0.17807 0.27995 0.0
H1177 H 0.38301 0.15269 0.28599 0.0
H1178 H 0.38196 0.14154 0.2385 0.0
H1179 H 0.36699 0.16676 0.23239 0.0
H1180 H 0.35365 0.13688 0.21966 0.0
H1181 H 0.27037 0.11653 0.25578 0.0
H1182 H 0.25853 0.15711 0.25499 0.0
H1183 H 0.33341 0.18862 0.25624 0.0
C1184 C 0.36082 0.1026 0.27074 0.0
C1185 C 0.35167 0.07884 0.27495 0.0
C1186 C 0.32656 0.07082 0.27185 0.0
C1187 C 0.31066 0.08656 0.26515 0.0
C1188 C 0.3203 0.11 0.26109 0.0
C1189 C 0.34485 0.11788 0.26363 0.0
C1190 C 0.35079 0.14414 0.25959 0.0
C1191 C 0.36525 0.15859 0.28261 0.0
C1192 C 0.36414 0.14752 0.23614 0.0
C1193 C 0.32575 0.15022 0.25585 0.0
C1194 C 0.30829 0.13029 0.25616 0.0
C1195 C 0.28386 0.13217 0.255 0.0
C1196 C 0.27725 0.15516 0.25439 0.0
C1197 C 0.29514 0.17565 0.25533 0.0
C1198 C 0.31947 0.17302 0.2552 0.0
H1199 H 0.33987 0.10592 0.53073 0.0
H1200 H 0.30044 0.06924 0.46317 0.0
H1201 H 0.33092 0.04238 0.45986 0.0
H1202 H 0.3988 0.10435 0.5119 0.0
H1203 H 0.41157 0.09912 0.54213 0.0
H1204 H 0.38633 0.11503 0.53948 0.0
H1205 H 0.36244 0.08438 0.56514 0.0
H1206 H 0.38761 0.06832 0.56777 0.0
H1207 H 0.35849 0.05276 0.55505 0.0
H1208 H 0.36633 0.02027 0.4632 0.0
H1209 H 0.40423 0.00476 0.47273 0.0
H1210 H 0.42045 0.05545 0.53845 0.0
C1211 C 0.33762 0.09219 0.51528 0.0
C1212 C 0.31776 0.08966 0.49719 0.0
C1213 C 0.31547 0.07147 0.47727 0.0
C1214 C 0.33268 0.05611 0.47524 0.0
C1215 C 0.35203 0.05906 0.49338 0.0
C1216 C 0.35458 0.07661 0.51305 0.0
C1217 C 0.37722 0.07614 0.52986 0.0
C1218 C 0.3945 0.10008 0.53089 0.0
C1219 C 0.37106 0.07003 0.556 0.0
C1220 C 0.38718 0.05584 0.51636 0.0
C1221 C 0.37232 0.04616 0.49543 0.0
C1222 C 0.37802 0.02761 0.47964 0.0
C1223 C 0.3996 0.01889 0.48524 0.0
C1224 C 0.41532 0.02876 0.50641 0.0
C1225 C 0.40877 0.04731 0.52227 0.0
H1226 H 0.66876 0.60416 0.28288 0.0
H1227 H 0.72595 0.56974 0.31515 0.0
H1228 H 0.75428 0.60761 0.31596 0.0
H1229 H 0.70404 0.6393 0.2434 0.0
H1230 H 0.68948 0.66538 0.24783 0.0
H1231 H 0.67323 0.63592 0.2508 0.0
H1232 H 0.66372 0.64993 0.29509 0.0
H1233 H 0.67986 0.67946 0.29215 0.0
H1234 H 0.68801 0.66307 0.31789 0.0
H1235 H 0.7769 0.64847 0.31165 0.0
H1236 H 0.79208 0.69021 0.30379 0.0
H1237 H 0.72034 0.69857 0.27452 0.0
C1238 C 0.68718 0.60469 0.29035 0.0
C1239 C 0.69513 0.58398 0.299 0.0
C1240 C 0.71942 0.58537 0.30851 0.0
C1241 C 0.73567 0.6068 0.30902 0.0
C1242 C 0.72737 0.62679 0.30011 0.0
C1243 C 0.70367 0.62604 0.29112 0.0
C1244 C 0.69957 0.65007 0.28229 0.0
C1245 C 0.69109 0.6475 0.25442 0.0
C1246 C 0.68174 0.66129 0.29778 0.0
C1247 C 0.72475 0.66426 0.28737 0.0
C1248 C 0.74046 0.65049 0.29772 0.0
C1249 C 0.76474 0.65949 0.30369 0.0
C1250 C 0.77321 0.68324 0.29909 0.0
C1251 C 0.75746 0.69779 0.28858 0.0
C1252 C 0.73289 0.68803 0.28266 0.0
H1253 H 0.87916 0.4417 0.79219 0.0
H1254 H 0.82008 0.46713 0.75172 0.0
H1255 H 0.7964 0.4263 0.74876 0.0
H1256 H 0.87529 0.38683 0.75772 0.0
H1257 H 0.88227 0.37021 0.7837 0.0
H1258 H 0.89322 0.40188 0.78503 0.0
H1259 H 0.87298 0.40862 0.82576 0.0
H1260 H 0.86179 0.37688 0.82443 0.0
H1261 H 0.84126 0.3983 0.82627 0.0
H1262 H 0.78014 0.38238 0.74837 0.0
H1263 H 0.77409 0.33803 0.74688 0.0
H1264 H 0.84453 0.34134 0.7861 0.0
C1265 C 0.86116 0.43872 0.78289 0.0
C1266 C 0.8514 0.45748 0.77217 0.0
C1267 C 0.82783 0.45294 0.76008 0.0
C1268 C 0.81421 0.42989 0.75847 0.0
C1269 C 0.82439 0.41174 0.76924 0.0
C1270 C 0.84736 0.4159 0.78116 0.0
C1271 C 0.85478 0.39304 0.7897 0.0
C1272 C 0.87774 0.38768 0.77834 0.0
C1273 C 0.85788 0.39429 0.81823 0.0
C1274 C 0.833 0.3751 0.77937 0.0
C1275 C 0.81532 0.38634 0.76841 0.0
C1276 C 0.79375 0.37341 0.75709 0.0
C1277 C 0.79044 0.34828 0.75641 0.0
C1278 C 0.80889 0.33649 0.76641 0.0
C1279 C 0.83019 0.35006 0.7784 0.0
H1280 H 0.04749 0.86594 0.13741 0.0
H1281 H 0.01692 0.81972 0.07149 0.0
H1282 H 0.0139 0.85569 0.04864 0.0
H1283 H 0.01015 0.91178 0.12895 0.0
H1284 H 0.03379 0.93596 0.14091 0.0
H1285 H 0.03332 0.90657 0.15175 0.0
H1286 H 0.07652 0.90578 0.13901 0.0
H1287 H 0.07715 0.93519 0.12827 0.0
H1288 H 0.08286 0.9106 0.10754 0.0
H1289 H 0.01549 0.89751 0.03291 0.0
H1290 H 0.02155 0.94081 0.02598 0.0
H1291 H 0.04983 0.95845 0.10304 0.0
C1292 C 0.04022 0.86334 0.11814 0.0
C1293 C 0.03259 0.84008 0.10613 0.0
C1294 C 0.02292 0.83744 0.08099 0.0
C1295 C 0.02111 0.85774 0.06791 0.0
C1296 C 0.02878 0.88049 0.08037 0.0
C1297 C 0.03803 0.88331 0.10499 0.0
C1298 C 0.04495 0.90954 0.11432 0.0
C1299 C 0.02964 0.91635 0.13521 0.0
C1300 C 0.07197 0.91563 0.12277 0.0
C1301 C 0.03869 0.92112 0.09098 0.0
C1302 C 0.02926 0.9042 0.07158 0.0
C1303 C 0.02273 0.9109 0.04805 0.0
C1304 C 0.02619 0.93551 0.04428 0.0
C1305 C 0.03614 0.95303 0.06395 0.0
C1306 C 0.04214 0.94558 0.08759 0.0
H1307 H 0.94186 0.28256 0.86494 0.0
H1308 H 0.95569 0.21254 0.83648 0.0
H1309 H 0.91693 0.20614 0.8104 0.0
H1310 H 0.87892 0.26485 0.86929 0.0
H1311 H 0.87087 0.29283 0.86028 0.0
H1312 H 0.90011 0.2923 0.87579 0.0
H1313 H 0.92016 0.3122 0.83949 0.0
H1314 H 0.89095 0.31279 0.82389 0.0
H1315 H 0.91264 0.29837 0.80821 0.0
H1316 H 0.87697 0.20777 0.78699 0.0
H1317 H 0.83754 0.2161 0.76992 0.0
H1318 H 0.84891 0.2841 0.81552 0.0
C1319 C 0.93682 0.26595 0.85307 0.0
C1320 C 0.95184 0.2481 0.85253 0.0
C1321 C 0.94447 0.22647 0.83706 0.0
C1322 C 0.92253 0.2227 0.82219 0.0
C1323 C 0.90812 0.24066 0.8232 0.0
C1324 C 0.91487 0.26178 0.83839 0.0
C1325 C 0.89575 0.27786 0.83671 0.0
C1326 C 0.88583 0.2822 0.86202 0.0
C1327 C 0.90546 0.30172 0.82647 0.0
C1328 C 0.87713 0.26245 0.81827 0.0
C1329 C 0.88472 0.24119 0.81047 0.0
C1330 C 0.87081 0.22431 0.79303 0.0
C1331 C 0.84849 0.22923 0.78338 0.0
C1332 C 0.84018 0.25069 0.79148 0.0
C1333 C 0.85473 0.26746 0.80916 0.0
H1334 H 0.50878 0.19589 0.642 0.0
H1335 H 0.53679 0.23253 0.58046 0.0
H1336 H 0.53418 0.19335 0.55579 0.0
H1337 H 0.53879 0.14487 0.63477 0.0
H1338 H 0.51374 0.12392 0.64258 0.0
H1339 H 0.51793 0.15482 0.65528 0.0
H1340 H 0.47487 0.15851 0.63737 0.0
H1341 H 0.47048 0.12757 0.62479 0.0
H1342 H 0.46624 0.15081 0.60467 0.0
H1343 H 0.52914 0.14976 0.53826 0.0
H1344 H 0.5196 0.10563 0.52844 0.0
H1345 H 0.4942 0.09843 0.60144 0.0
C1346 C 0.51436 0.19568 0.62333 0.0
C1347 C 0.52306 0.21715 0.61312 0.0
C1348 C 0.53003 0.2162 0.58858 0.0
C1349 C 0.52869 0.19407 0.57448 0.0
C1350 C 0.52019 0.17316 0.58519 0.0
C1351 C 0.51294 0.17383 0.60897 0.0
C1352 C 0.50398 0.14893 0.61605 0.0
C1353 C 0.51955 0.14278 0.6385 0.0
C1354 C 0.47731 0.14631 0.621 0.0
C1355 C 0.50744 0.13409 0.59259 0.0
C1356 C 0.51691 0.1483 0.57501 0.0
C1357 C 0.52166 0.13845 0.55188 0.0
C1358 C 0.51628 0.1134 0.5465 0.0
C1359 C 0.50613 0.09864 0.56416 0.0
C1360 C 0.50189 0.10922 0.58751 0.0
H1361 H 0.57834 0.72067 0.33793 0.0
H1362 H 0.55867 0.78859 0.31856 0.0
H1363 H 0.59422 0.79551 0.29468 0.0
H1364 H 0.63873 0.74124 0.34996 0.0
H1365 H 0.64866 0.71414 0.33793 0.0
H1366 H 0.61962 0.71258 0.34959 0.0
H1367 H 0.59958 0.69097 0.30753 0.0
H1368 H 0.62868 0.69245 0.29576 0.0
H1369 H 0.60513 0.7047 0.27917 0.0
H1370 H 0.63466 0.7973 0.27736 0.0
H1371 H 0.67671 0.79422 0.2694 0.0
H1372 H 0.66965 0.7254 0.30074 0.0
C1373 C 0.58109 0.73663 0.32801 0.0
C1374 C 0.56564 0.75397 0.32984 0.0
C1375 C 0.5702 0.77497 0.31719 0.0
C1376 C 0.59031 0.77902 0.30353 0.0
C1377 C 0.60561 0.76186 0.30265 0.0
C1378 C 0.60114 0.74101 0.31449 0.0
C1379 C 0.62159 0.72666 0.31305 0.0
C1380 C 0.63281 0.72349 0.33918 0.0
C1381 C 0.61324 0.70225 0.29797 0.0
C1382 C 0.63861 0.74305 0.29931 0.0
C1383 C 0.62898 0.76307 0.29305 0.0
C1384 C 0.64222 0.78149 0.28179 0.0
C1385 C 0.66607 0.7796 0.27731 0.0
C1386 C 0.67642 0.75957 0.2844 0.0
C1387 C 0.66222 0.74088 0.29495 0.0
H1388 H 0.01474 0.1913 0.39931 0.0
H1389 H 0.02733 0.23928 0.46708 0.0
H1390 H 0.02117 0.20434 0.49191 0.0
H1391 H 0.96923 0.14643 0.42017 0.0
H1392 H 0.98036 0.12153 0.40467 0.0
H1393 H 0.98408 0.15037 0.39219 0.0
H1394 H 0.03008 0.15065 0.39342 0.0
H1395 H 0.02643 0.12179 0.40577 0.0
H1396 H 0.04662 0.14677 0.42224 0.0
H1397 H 0.014 0.16403 0.50935 0.0
H1398 H 0.01011 0.12131 0.51809 0.0
H1399 H 0.00414 0.09998 0.43894 0.0
C1400 C 0.01599 0.19443 0.41936 0.0
C1401 C 0.02135 0.21794 0.43131 0.0
C1402 C 0.02321 0.22136 0.45759 0.0
C1403 C 0.01963 0.20166 0.47183 0.0
C1404 C 0.01436 0.17868 0.45949 0.0
C1405 C 0.01278 0.17496 0.43386 0.0
C1406 C 0.00839 0.14843 0.42522 0.0
C1407 C 0.98407 0.14127 0.40964 0.0
C1408 C 0.02912 0.14151 0.41083 0.0
C1409 C 0.00802 0.13782 0.45 0.0
C1410 C 0.0111 0.15552 0.46955 0.0
C1411 C 0.01154 0.15 0.4942 0.0
C1412 C 0.00922 0.12573 0.49899 0.0
C1413 C 0.00688 0.10743 0.4792 0.0
C1414 C 0.00598 0.11363 0.45445 0.0
H1415 H 0.58611 0.25327 0.20004 0.0
H1416 H 0.58842 0.31515 0.15706 0.0
H1417 H 0.63111 0.32789 0.17189 0.0
H1418 H 0.62813 0.28267 0.25316 0.0
H1419 H 0.64204 0.25632 0.25679 0.0
H1420 H 0.61095 0.25317 0.24485 0.0
H1421 H 0.61997 0.22783 0.20582 0.0
H1422 H 0.65109 0.23104 0.21753 0.0
H1423 H 0.64313 0.24014 0.18724 0.0
H1424 H 0.67355 0.33225 0.18799 0.0
H1425 H 0.7141 0.32894 0.20571 0.0
H1426 H 0.68555 0.26429 0.2389 0.0
C1427 C 0.59553 0.26976 0.19422 0.0
C1428 C 0.584 0.28335 0.17753 0.0
C1429 C 0.59695 0.30454 0.16986 0.0
C1430 C 0.62117 0.31193 0.17822 0.0
C1431 C 0.63218 0.29792 0.1942 0.0
C1432 C 0.61988 0.27734 0.20227 0.0
C1433 C 0.63657 0.26488 0.21827 0.0
C1434 C 0.62897 0.26423 0.24485 0.0
C1435 C 0.63776 0.23947 0.2065 0.0
C1436 C 0.6602 0.28153 0.2176 0.0
C1437 C 0.65709 0.30047 0.20363 0.0
C1438 C 0.67622 0.31765 0.19916 0.0
C1439 C 0.69922 0.31549 0.20919 0.0
C1440 C 0.70299 0.29632 0.22364 0.0
C1441 C 0.68315 0.27921 0.22808 0.0
H1442 H 0.54575 0.86311 0.92459 0.0
H1443 H 0.53074 0.81602 0.98288 0.0
H1444 H 0.5275 0.85111 0.01184 0.0
H1445 H 0.5803 0.91413 0.96383 0.0
H1446 H 0.56761 0.93602 0.94669 0.0
H1447 H 0.57064 0.9074 0.93122 0.0
H1448 H 0.52511 0.90003 0.91678 0.0
H1449 H 0.52201 0.92855 0.93237 0.0
H1450 H 0.50365 0.90144 0.93955 0.0
H1451 H 0.52524 0.89117 0.03424 0.0
H1452 H 0.52256 0.93339 0.04801 0.0
H1453 H 0.53687 0.9539 0.97445 0.0
C1454 C 0.54219 0.86028 0.94357 0.0
C1455 C 0.53875 0.83695 0.95165 0.0
C1456 C 0.53356 0.83381 0.97642 0.0
C1457 C 0.53171 0.85361 0.99299 0.0
C1458 C 0.53486 0.87636 0.98438 0.0
C1459 C 0.5399 0.87981 0.96024 0.0
C1460 C 0.54118 0.90597 0.95532 0.0
C1461 C 0.56644 0.9165 0.9489 0.0
C1462 C 0.52183 0.90917 0.9348 0.0
C1463 C 0.53594 0.91662 0.98042 0.0
C1464 C 0.53261 0.8993 0.99701 0.0
C1465 C 0.52779 0.90491 0.02142 0.0
C1466 C 0.52634 0.92889 0.02909 0.0
C1467 C 0.52935 0.94681 0.01225 0.0
C1468 C 0.53419 0.94051 0.98764 0.0
H1469 H 0.91995 0.73433 0.65127 0.0
H1470 H 0.96888 0.77095 0.71286 0.0
H1471 H 0.935 0.77032 0.7392 0.0
H1472 H 0.86991 0.76417 0.66308 0.0
H1473 H 0.84787 0.73768 0.65442 0.0
H1474 H 0.876 0.74116 0.64061 0.0
H1475 H 0.88408 0.70023 0.65518 0.0
H1476 H 0.85599 0.69666 0.66908 0.0
H1477 H 0.88356 0.69532 0.68762 0.0
H1478 H 0.89555 0.76568 0.75864 0.0
H1479 H 0.85361 0.75758 0.76958 0.0
H1480 H 0.83116 0.72367 0.69509 0.0
C1481 C 0.92354 0.74231 0.67027 0.0
C1482 C 0.94696 0.75277 0.68005 0.0
C1483 C 0.951 0.76288 0.70503 0.0
C1484 C 0.9319 0.76258 0.72011 0.0
C1485 C 0.909 0.75202 0.7099 0.0
C1486 C 0.90477 0.74205 0.68556 0.0
C1487 C 0.87858 0.73168 0.67906 0.0
C1488 C 0.86744 0.74444 0.65805 0.0
C1489 C 0.87538 0.70435 0.67235 0.0
C1490 C 0.86865 0.73756 0.70348 0.0
C1491 C 0.88645 0.74923 0.72108 0.0
C1492 C 0.88147 0.75652 0.74502 0.0
C1493 C 0.85762 0.75184 0.75105 0.0
C1494 C 0.83914 0.74001 0.73318 0.0
C1495 C 0.84486 0.73275 0.70917 0.0
H1496 H 0.12686 0.03638 0.88074 0.0
H1497 H 0.07907 0.9801 0.83434 0.0
H1498 H 0.05222 0.97533 0.86797 0.0
H1499 H 0.11976 0.00891 0.93896 0.0
H1500 H 0.12076 0.03722 0.95705 0.0
H1501 H 0.13656 0.03591 0.9295 0.0
H1502 H 0.11371 0.06831 0.91186 0.0
H1503 H 0.09778 0.06962 0.93931 0.0
H1504 H 0.08131 0.06333 0.90909 0.0
H1505 H 0.0298 0.97739 0.90625 0.0
H1506 H 0.01442 0.98522 0.94708 0.0
H1507 H 0.07686 0.03986 0.96864 0.0
C1508 C 0.11081 0.02298 0.87773 0.0
C1509 C 0.10506 0.00863 0.85489 0.0
C1510 C 0.08388 0.99129 0.85167 0.0
C1511 C 0.06847 0.98845 0.87066 0.0
C1512 C 0.07452 0.00299 0.89286 0.0
C1513 C 0.09525 0.0198 0.89658 0.0
C1514 C 0.0975 0.03315 0.92222 0.0
C1515 C 0.11998 0.02851 0.93785 0.0
C1516 C 0.09757 0.06021 0.9205 0.0
C1517 C 0.07468 0.02141 0.93216 0.0
C1518 C 0.06168 0.00405 0.91497 0.0
C1519 C 0.03988 0.9909 0.91991 0.0
C1520 C 0.03124 0.99552 0.94312 0.0
C1521 C 0.0444 0.01311 0.96112 0.0
C1522 C 0.06636 0.02623 0.95537 0.0
H1523 H 0.76842 0.37287 0.59594 0.0
H1524 H 0.76973 0.3127 0.54159 0.0
H1525 H 0.77673 0.28698 0.57545 0.0
H1526 H 0.81336 0.35848 0.6424 0.0
H1527 H 0.7973 0.36736 0.66813 0.0
H1528 H 0.79485 0.38164 0.63964 0.0
H1529 H 0.74846 0.37016 0.63666 0.0
H1530 H 0.7508 0.35597 0.66514 0.0
H1531 H 0.73529 0.33913 0.63744 0.0
H1532 H 0.78287 0.26763 0.61545 0.0
H1533 H 0.78327 0.25523 0.65839 0.0
H1534 H 0.77515 0.3274 0.6859 0.0
C1535 C 0.77051 0.35437 0.59121 0.0
C1536 C 0.76876 0.34476 0.56625 0.0
C1537 C 0.77107 0.32036 0.56068 0.0
C1538 C 0.77519 0.30567 0.57975 0.0
C1539 C 0.77671 0.31564 0.60424 0.0
C1540 C 0.77419 0.33937 0.61001 0.0
C1541 C 0.7746 0.34518 0.63775 0.0
C1542 C 0.79632 0.3643 0.64755 0.0
C1543 C 0.75087 0.35306 0.64464 0.0
C1544 C 0.7773 0.32093 0.64662 0.0
C1545 C 0.77903 0.30424 0.62712 0.0
C1546 C 0.78155 0.28055 0.63089 0.0
C1547 C 0.78184 0.27367 0.65525 0.0
C1548 C 0.77909 0.29035 0.67522 0.0
C1549 C 0.77711 0.31428 0.67083 0.0
H1550 H 0.42827 0.05018 0.37793 0.0
H1551 H 0.47737 0.02314 0.32912 0.0
H1552 H 0.50602 0.0212 0.36529 0.0
H1553 H 0.47581 0.08563 0.42395 0.0
H1554 H 0.45876 0.07835 0.44984 0.0
H1555 H 0.44342 0.0808 0.41993 0.0
H1556 H 0.41991 0.03771 0.42047 0.0
H1557 H 0.43517 0.03543 0.45032 0.0
H1558 H 0.43633 0.01315 0.42497 0.0
H1559 H 0.52784 0.01906 0.40645 0.0
H1560 H 0.5403 0.01459 0.45027 0.0
H1561 H 0.47679 0.0419 0.4727 0.0
C1562 C 0.44527 0.04433 0.37486 0.0
C1563 C 0.4507 0.03695 0.35076 0.0
C1564 C 0.47292 0.029 0.34745 0.0
C1565 C 0.48937 0.02793 0.36785 0.0
C1566 C 0.48337 0.035 0.39142 0.0
C1567 C 0.46189 0.04307 0.39508 0.0
C1568 C 0.45909 0.04783 0.4225 0.0
C1569 C 0.45928 0.07475 0.42946 0.0
C1570 C 0.43627 0.03259 0.42997 0.0
C1571 C 0.48168 0.03985 0.4336 0.0
C1572 C 0.49576 0.0332 0.41535 0.0
C1573 C 0.51714 0.02448 0.42095 0.0
C1574 C 0.5241 0.02206 0.44587 0.0
C1575 C 0.50943 0.02788 0.46474 0.0
C1576 C 0.48821 0.03727 0.45854 0.0
H1577 H 0.76633 0.64634 0.09804 0.0
H1578 H 0.79046 0.70908 0.05988 0.0
H1579 H 0.79246 0.73491 0.09918 0.0
H1580 H 0.73 0.67482 0.14006 0.0
H1581 H 0.73848 0.6586 0.16583 0.0
H1582 H 0.73776 0.6452 0.13446 0.0
H1583 H 0.78218 0.6391 0.14237 0.0
H1584 H 0.78291 0.65218 0.1738 0.0
H1585 H 0.8047 0.66451 0.15375 0.0
H1586 H 0.79177 0.75391 0.14294 0.0
H1587 H 0.79314 0.7638 0.18838 0.0
H1588 H 0.77102 0.6884 0.1979 0.0
C1589 C 0.77199 0.66552 0.09795 0.0
C1590 C 0.77817 0.67574 0.07592 0.0
C1591 C 0.78568 0.70088 0.07658 0.0
C1592 C 0.78671 0.71571 0.09877 0.0
C1593 C 0.78029 0.7051 0.12015 0.0
C1594 C 0.77335 0.68054 0.11997 0.0
C1595 C 0.76861 0.67345 0.1457 0.0
C1596 C 0.74214 0.66236 0.14655 0.0
C1597 C 0.78562 0.65631 0.15442 0.0
C1598 C 0.77436 0.69778 0.16047 0.0
C1599 C 0.7806 0.7159 0.14536 0.0
C1600 C 0.78688 0.73987 0.15494 0.0
C1601 C 0.78745 0.74535 0.18073 0.0
C1602 C 0.78216 0.72687 0.1966 0.0
C1603 C 0.77512 0.70289 0.18619 0.0
H1604 H 0.12555 0.98671 0.70703 0.0
H1605 H 0.07513 0.02616 0.74216 0.0
H1606 H 0.05292 0.02718 0.70129 0.0
H1607 H 0.12913 0.01789 0.65363 0.0
H1608 H 0.13052 0.99199 0.63251 0.0
H1609 H 0.1414 0.9926 0.66469 0.0
H1610 H 0.11284 0.95291 0.6687 0.0
H1611 H 0.10208 0.95199 0.63642 0.0
H1612 H 0.08114 0.95089 0.65988 0.0
H1613 H 0.0377 0.02616 0.65614 0.0
H1614 H 0.02941 0.02118 0.61041 0.0
H1615 H 0.08985 0.98249 0.60496 0.0
C1616 C 0.1096 0.9952 0.70617 0.0
C1617 C 0.10203 0.0063 0.72777 0.0
C1618 C 0.08119 0.01742 0.72585 0.0
C1619 C 0.06848 0.01815 0.70271 0.0
C1620 C 0.07674 0.00754 0.68168 0.0
C1621 C 0.09665 0.99603 0.68322 0.0
C1622 C 0.10213 0.98654 0.65774 0.0
C1623 C 0.12728 0.99795 0.6518 0.0
C1624 C 0.09938 0.95895 0.65556 0.0
C1625 C 0.08256 0.99504 0.6416 0.0
C1626 C 0.06801 0.00699 0.65574 0.0
C1627 C 0.04889 0.0167 0.64488 0.0
C1628 C 0.04438 0.01387 0.61889 0.0
C1629 C 0.05899 0.00151 0.60405 0.0
C1630 C 0.07837 0.99211 0.6157 0.0
H1631 H 0.78167 0.34769 0.43605 0.0
H1632 H 0.70626 0.32687 0.44625 0.0
H1633 H 0.70233 0.29683 0.4096 0.0
H1634 H 0.77601 0.34513 0.37159 0.0
H1635 H 0.8037 0.33358 0.36801 0.0
H1636 H 0.80031 0.35156 0.39594 0.0
H1637 H 0.81074 0.31727 0.42204 0.0
H1638 H 0.81381 0.29905 0.39404 0.0
H1639 H 0.79335 0.28762 0.41579 0.0
H1640 H 0.70677 0.27081 0.36972 0.0
H1641 H 0.71835 0.25408 0.32946 0.0
H1642 H 0.79072 0.29257 0.34722 0.0
C1643 C 0.7643 0.33677 0.4307 0.0
C1644 C 0.74422 0.33963 0.44384 0.0
C1645 C 0.72185 0.32493 0.43632 0.0
C1646 C 0.71952 0.30776 0.41568 0.0
C1647 C 0.73982 0.3054 0.40313 0.0
C1648 C 0.76176 0.31958 0.41048 0.0
C1649 C 0.78065 0.31473 0.39341 0.0
C1650 C 0.79073 0.3376 0.38153 0.0
C1651 C 0.80082 0.30403 0.40714 0.0
C1652 C 0.76575 0.29629 0.37459 0.0
C1653 C 0.74235 0.29065 0.38063 0.0
C1654 C 0.72511 0.27487 0.36502 0.0
C1655 C 0.73184 0.26533 0.34233 0.0
C1656 C 0.75541 0.27201 0.33553 0.0
C1657 C 0.77262 0.28708 0.35218 0.0
H1658 H 0.44054 0.00412 0.219 0.0
H1659 H 0.44106 0.08109 0.23059 0.0
H1660 H 0.46215 0.08683 0.19278 0.0
H1661 H 0.49959 0.00739 0.19512 0.0
H1662 H 0.49014 0.98174 0.17275 0.0
H1663 H 0.47624 0.98377 0.20148 0.0
H1664 H 0.43433 0.97882 0.17687 0.0
H1665 H 0.44808 0.97676 0.1481 0.0
H1666 H 0.42903 0.9991 0.15369 0.0
H1667 H 0.48014 0.08396 0.1525 0.0
H1668 H 0.49503 0.0728 0.11233 0.0
H1669 H 0.4843 0.99781 0.12745 0.0
C1670 C 0.44532 0.0222 0.2137 0.0
C1671 C 0.43925 0.04219 0.22766 0.0
C1672 C 0.44564 0.06556 0.22014 0.0
C1673 C 0.45763 0.06899 0.19875 0.0
C1674 C 0.46321 0.04889 0.18529 0.0
C1675 C 0.4574 0.02596 0.19249 0.0
C1676 C 0.46475 0.00735 0.17424 0.0
C1677 C 0.48382 0.9943 0.18665 0.0
C1678 C 0.44274 0.98946 0.16253 0.0
C1679 C 0.47526 0.02339 0.15543 0.0
C1680 C 0.47417 0.04728 0.16221 0.0
C1681 C 0.48138 0.06537 0.14713 0.0
C1682 C 0.48971 0.05885 0.12436 0.0
C1683 C 0.49092 0.0345 0.11705 0.0
C1684 C 0.48395 0.01659 0.13292 0.0
H1685 H 0.76477 0.65288 0.91824 0.0
H1686 H 0.77917 0.7116 0.97667 0.0
H1687 H 0.78003 0.7408 0.94531 0.0
H1688 H 0.80361 0.6821 0.87537 0.0
H1689 H 0.78385 0.67046 0.84801 0.0
H1690 H 0.78411 0.65366 0.87492 0.0
H1691 H 0.73827 0.65284 0.87592 0.0
H1692 H 0.7379 0.66957 0.84896 0.0
H1693 H 0.72637 0.68072 0.87692 0.0
H1694 H 0.77837 0.76388 0.90834 0.0
H1695 H 0.77607 0.77962 0.86721 0.0
H1696 H 0.76385 0.70659 0.83194 0.0
C1697 C 0.76813 0.67188 0.92436 0.0
C1698 C 0.77188 0.67993 0.94995 0.0
C1699 C 0.7763 0.70496 0.95722 0.0
C1700 C 0.77679 0.72174 0.93954 0.0
C1701 C 0.773 0.71331 0.91455 0.0
C1702 C 0.76892 0.68902 0.90684 0.0
C1703 C 0.7657 0.68502 0.87865 0.0
C1704 C 0.7855 0.67204 0.86866 0.0
C1705 C 0.74056 0.67123 0.86959 0.0
C1706 C 0.76848 0.71084 0.87193 0.0
C1707 C 0.77258 0.72681 0.89296 0.0
C1708 C 0.7753 0.75159 0.89168 0.0
C1709 C 0.77392 0.76036 0.86822 0.0
C1710 C 0.77 0.74441 0.8463 0.0
C1711 C 0.76721 0.7193 0.8483 0.0
H1712 H 0.85966 0.11057 0.99764 0.0
H1713 H 0.82618 0.08498 0.06204 0.0
H1714 H 0.85254 0.05408 0.06412 0.0
H1715 H 0.86895 0.05265 0.9697 0.0
H1716 H 0.89798 0.06389 0.95993 0.0
H1717 H 0.87571 0.08343 0.9625 0.0
H1718 H 0.90566 0.11391 0.99244 0.0
H1719 H 0.92807 0.0946 0.98973 0.0
H1720 H 0.91962 0.10385 0.01993 0.0
H1721 H 0.88207 0.02596 0.05934 0.0
H1722 H 0.91652 0.00549 0.05124 0.0
H1723 H 0.93247 0.05026 0.99114 0.0
C1724 C 0.85787 0.09838 0.01209 0.0
C1725 C 0.84081 0.10003 0.02959 0.0
C1726 C 0.83915 0.08401 0.04845 0.0
C1727 C 0.85392 0.0663 0.04969 0.0
C1728 C 0.87041 0.06498 0.03208 0.0
C1729 C 0.87278 0.08078 0.01386 0.0
C1730 C 0.89297 0.07627 0.99816 0.0
C1731 C 0.88332 0.0686 0.97096 0.0
C1732 C 0.91275 0.09847 0.0002 0.0
C1733 C 0.90164 0.05561 0.01056 0.0
C1734 C 0.88809 0.04915 0.02981 0.0
C1735 C 0.89281 0.03081 0.04429 0.0
C1736 C 0.91238 0.0192 0.03945 0.0
C1737 C 0.92721 0.02623 0.02055 0.0
C1738 C 0.92139 0.04436 0.00561 0.0
H1739 H 0.35834 0.40831 0.03801 0.0
H1740 H 0.32453 0.46578 0.07051 0.0
H1741 H 0.36238 0.49409 0.07036 0.0
H1742 H 0.41883 0.42788 0.07001 0.0
H1743 H 0.43363 0.41961 0.04311 0.0
H1744 H 0.40461 0.4034 0.04793 0.0
H1745 H 0.38792 0.41246 0.00437 0.0
H1746 H 0.41681 0.42887 0.9995 0.0
H1747 H 0.39044 0.4432 0.99679 0.0
H1748 H 0.40285 0.51666 0.06415 0.0
H1749 H 0.44361 0.5319 0.05338 0.0
H1750 H 0.4511 0.45988 0.02421 0.0
C1751 C 0.35908 0.42673 0.04559 0.0
C1752 C 0.33857 0.43485 0.05447 0.0
C1753 C 0.34006 0.45919 0.06373 0.0
C1754 C 0.36148 0.47539 0.06371 0.0
C1755 C 0.38121 0.46696 0.0543 0.0
C1756 C 0.38027 0.44319 0.04551 0.0
C1757 C 0.40363 0.43909 0.03513 0.0
C1758 C 0.4159 0.42145 0.04993 0.0
C1759 C 0.39944 0.4304 0.0073 0.0
C1760 C 0.41775 0.46431 0.03929 0.0
C1761 C 0.4045 0.48008 0.05043 0.0
C1762 C 0.41346 0.50446 0.05557 0.0
C1763 C 0.43663 0.51296 0.04928 0.0
C1764 C 0.45063 0.49713 0.03792 0.0
C1765 C 0.44094 0.47247 0.03291 0.0
H1766 H 0.37534 0.58423 0.78781 0.0
H1767 H 0.33152 0.55066 0.72143 0.0
H1768 H 0.30512 0.58175 0.72533 0.0
H1769 H 0.32661 0.60117 0.82147 0.0
H1770 H 0.34402 0.62918 0.83504 0.0
H1771 H 0.35879 0.60385 0.8273 0.0
H1772 H 0.38633 0.62961 0.80009 0.0
H1773 H 0.37176 0.65502 0.80787 0.0
H1774 H 0.37295 0.64468 0.77576 0.0
H1775 H 0.28466 0.61821 0.73577 0.0
H1776 H 0.27258 0.65658 0.75139 0.0
H1777 H 0.32949 0.66484 0.81143 0.0
C1778 C 0.36014 0.58333 0.77412 0.0
C1779 C 0.35549 0.56504 0.75429 0.0
C1780 C 0.33541 0.56452 0.73678 0.0
C1781 C 0.3203 0.58207 0.73888 0.0
C1782 C 0.32543 0.5999 0.7587 0.0
C1783 C 0.34487 0.60056 0.77601 0.0
C1784 C 0.34695 0.62183 0.79523 0.0
C1785 C 0.3439 0.6135 0.8213 0.0
C1786 C 0.37091 0.63878 0.79469 0.0
C1787 C 0.32583 0.63327 0.78591 0.0
C1788 C 0.31353 0.62039 0.76486 0.0
C1789 C 0.29403 0.62827 0.75239 0.0
C1790 C 0.28723 0.65005 0.76145 0.0
C1791 C 0.2999 0.66367 0.78277 0.0
C1792 C 0.31917 0.6548 0.79527 0.0
H1793 H 0.21216 0.59236 0.53046 0.0
H1794 H 0.2066 0.66558 0.55709 0.0
H1795 H 0.1624 0.6557 0.5515 0.0
H1796 H 0.16478 0.58498 0.48343 0.0
H1797 H 0.15381 0.55404 0.48763 0.0
H1798 H 0.18502 0.56611 0.49571 0.0
H1799 H 0.18176 0.55342 0.54041 0.0
H1800 H 0.15055 0.5411 0.53239 0.0
H1801 H 0.15907 0.56329 0.55854 0.0
H1802 H 0.11925 0.63913 0.53949 0.0
H1803 H 0.07949 0.616 0.52424 0.0
H1804 H 0.1129 0.55326 0.50634 0.0
C1805 C 0.20162 0.60616 0.53554 0.0
C1806 C 0.21275 0.62971 0.54424 0.0
C1807 C 0.1984 0.64739 0.55046 0.0
C1808 C 0.1733 0.64197 0.54734 0.0
C1809 C 0.16286 0.61874 0.53819 0.0
C1810 C 0.17651 0.60103 0.53264 0.0
C1811 C 0.16077 0.57776 0.5222 0.0
C1812 C 0.16644 0.5703 0.49567 0.0
C1813 C 0.16318 0.55771 0.53942 0.0
C1814 C 0.13622 0.58535 0.5223 0.0
C1815 C 0.13783 0.60905 0.53161 0.0
C1816 C 0.11769 0.62046 0.53244 0.0
C1817 C 0.09523 0.60723 0.5236 0.0
C1818 C 0.09316 0.58285 0.51419 0.0
C1819 C 0.11393 0.5718 0.51367 0.0
H1820 H 0.67818 0.94053 0.74356 0.0
H1821 H 0.69122 0.96743 0.82135 0.0
H1822 H 0.71787 0.9374 0.82859 0.0
H1823 H 0.67359 0.87961 0.75382 0.0
H1824 H 0.68789 0.87098 0.72668 0.0
H1825 H 0.67228 0.89645 0.72696 0.0
H1826 H 0.71085 0.9233 0.71623 0.0
H1827 H 0.72661 0.89785 0.71607 0.0
H1828 H 0.73845 0.92488 0.73578 0.0
H1829 H 0.74071 0.90292 0.82813 0.0
H1830 H 0.75575 0.86443 0.8206 0.0
H1831 H 0.72712 0.8594 0.74335 0.0
C1832 C 0.68698 0.94031 0.762 0.0
C1833 C 0.6828 0.95631 0.78188 0.0
C1834 C 0.69422 0.95527 0.80587 0.0
C1835 C 0.70951 0.93841 0.81013 0.0
C1836 C 0.71312 0.92271 0.79021 0.0
C1837 C 0.7021 0.9234 0.76663 0.0
C1838 C 0.70726 0.9031 0.74899 0.0
C1839 C 0.68387 0.88656 0.73851 0.0
C1840 C 0.72165 0.91288 0.72803 0.0
C1841 C 0.72239 0.89061 0.76649 0.0
C1842 C 0.72592 0.90243 0.79006 0.0
C1843 C 0.73829 0.8936 0.80969 0.0
C1844 C 0.74679 0.87175 0.80523 0.0
C1845 C 0.74259 0.85893 0.78142 0.0
C1846 C 0.73072 0.86883 0.76174 0.0
H1847 H 0.68844 0.89642 0.54809 0.0
H1848 H 0.74079 0.96131 0.54986 0.0
H1849 H 0.7079 0.98554 0.54736 0.0
H1850 H 0.64501 0.91384 0.50438 0.0
H1851 H 0.61947 0.90018 0.51905 0.0
H1852 H 0.64717 0.88808 0.52158 0.0
H1853 H 0.64811 0.89285 0.56962 0.0
H1854 H 0.62037 0.9049 0.56721 0.0
H1855 H 0.64647 0.92184 0.58522 0.0
H1856 H 0.66888 0.00252 0.54276 0.0
H1857 H 0.627 0.01081 0.53829 0.0
H1858 H 0.60066 0.93489 0.54075 0.0
C1859 C 0.69299 0.91575 0.54815 0.0
C1860 C 0.71717 0.927 0.54922 0.0
C1861 C 0.72238 0.95232 0.54909 0.0
C1862 C 0.70382 0.96623 0.54765 0.0
C1863 C 0.68015 0.95456 0.5464 0.0
C1864 C 0.67471 0.92989 0.54675 0.0
C1865 C 0.64781 0.9217 0.54488 0.0
C1866 C 0.63938 0.90496 0.52106 0.0
C1867 C 0.64026 0.90961 0.56812 0.0
C1868 C 0.63898 0.94559 0.54358 0.0
C1869 C 0.65785 0.96434 0.54426 0.0
C1870 C 0.65397 0.98798 0.5424 0.0
C1871 C 0.63016 0.99253 0.5398 0.0
C1872 C 0.61063 0.97355 0.53938 0.0
C1873 C 0.61522 0.94985 0.54137 0.0
H1874 H 0.33356 0.44284 0.73866 0.0
H1875 H 0.40596 0.43098 0.76112 0.0
H1876 H 0.39028 0.38949 0.76892 0.0
H1877 H 0.30337 0.40856 0.78243 0.0
H1878 H 0.27753 0.3956 0.76146 0.0
H1879 H 0.29412 0.42444 0.75667 0.0
H1880 H 0.30049 0.40869 0.71193 0.0
H1881 H 0.28374 0.37983 0.71651 0.0
H1882 H 0.3138 0.38186 0.70704 0.0
H1883 H 0.36734 0.35125 0.77793 0.0
H1884 H 0.33853 0.31555 0.78333 0.0
H1885 H 0.28019 0.34917 0.75202 0.0
C1886 C 0.34607 0.43137 0.74495 0.0
C1887 C 0.37101 0.44016 0.74931 0.0
C1888 C 0.38684 0.42464 0.75753 0.0
C1889 C 0.3781 0.40105 0.76211 0.0
C1890 C 0.35349 0.39303 0.75801 0.0
C1891 C 0.33765 0.40743 0.7492 0.0
C1892 C 0.31203 0.39387 0.7462 0.0
C1893 C 0.29581 0.40637 0.76268 0.0
C1894 C 0.30192 0.39089 0.71879 0.0
C1895 C 0.31601 0.36985 0.75529 0.0
C1896 C 0.34012 0.37002 0.7621 0.0
C1897 C 0.34847 0.35068 0.77222 0.0
C1898 C 0.33185 0.33041 0.77518 0.0
C1899 C 0.30705 0.32919 0.76763 0.0
C1900 C 0.29903 0.34934 0.75763 0.0
H1901 H 0.17416 0.58836 0.30448 0.0
H1902 H 0.22241 0.56168 0.2545 0.0
H1903 H 0.24586 0.60264 0.25623 0.0
H1904 H 0.17124 0.64193 0.27724 0.0
H1905 H 0.16967 0.65969 0.30597 0.0
H1906 H 0.15852 0.62796 0.30303 0.0
H1907 H 0.18659 0.62243 0.34164 0.0
H1908 H 0.19762 0.65424 0.3449 0.0
H1909 H 0.21839 0.63309 0.34245 0.0
H1910 H 0.2623 0.64743 0.26158 0.0
H1911 H 0.27048 0.69172 0.27051 0.0
H1912 H 0.21009 0.68794 0.31567 0.0
C1913 C 0.18999 0.59098 0.29434 0.0
C1914 C 0.19666 0.57189 0.27956 0.0
C1915 C 0.21716 0.57612 0.26611 0.0
C1916 C 0.23053 0.59928 0.26695 0.0
C1917 C 0.22304 0.61788 0.28126 0.0
C1918 C 0.20328 0.61389 0.29476 0.0
C1919 C 0.19785 0.63698 0.30735 0.0
C1920 C 0.17285 0.64192 0.29782 0.0
C1921 C 0.20027 0.63666 0.33577 0.0
C1922 C 0.21759 0.65468 0.29877 0.0
C1923 C 0.23205 0.64343 0.28383 0.0
C1924 C 0.25116 0.6564 0.27338 0.0
C1925 C 0.25563 0.68151 0.27849 0.0
C1926 C 0.24091 0.69324 0.29376 0.0
C1927 C 0.22169 0.67954 0.30392 0.0
H1928 H 0.49777 0.67094 0.41585 0.0
H1929 H 0.56672 0.71413 0.4415 0.0
H1930 H 0.57495 0.6838 0.47017 0.0
H1931 H 0.48367 0.65136 0.47517 0.0
H1932 H 0.46962 0.62163 0.46265 0.0
H1933 H 0.46935 0.64655 0.4439 0.0
H1934 H 0.48925 0.62401 0.40967 0.0
H1935 H 0.48941 0.59896 0.42825 0.0
H1936 H 0.51703 0.6132 0.41762 0.0
H1937 H 0.57577 0.64823 0.49576 0.0
H1938 H 0.56905 0.61024 0.51593 0.0
H1939 H 0.49908 0.59138 0.47418 0.0
C1940 C 0.51466 0.67395 0.42739 0.0
C1941 C 0.53166 0.69481 0.42638 0.0
C1942 C 0.55347 0.69821 0.44193 0.0
C1943 C 0.55829 0.68112 0.4583 0.0
C1944 C 0.54106 0.66081 0.45898 0.0
C1945 C 0.51968 0.65717 0.44393 0.0
C1946 C 0.5041 0.63391 0.44829 0.0
C1947 C 0.48028 0.63866 0.45809 0.0
C1948 C 0.4997 0.6165 0.42455 0.0
C1949 C 0.52008 0.62499 0.46807 0.0
C1950 C 0.54134 0.64069 0.47399 0.0
C1951 C 0.55913 0.63585 0.49134 0.0
C1952 C 0.55516 0.61425 0.50272 0.0
C1953 C 0.53351 0.59788 0.49677 0.0
C1954 C 0.51574 0.60358 0.47937 0.0
H1955 H 0.60521 0.29774 0.71839 0.0
H1956 H 0.60284 0.25115 0.65041 0.0
H1957 H 0.6419 0.24025 0.66432 0.0
H1958 H 0.66937 0.3199 0.72045 0.0
H1959 H 0.67433 0.32158 0.75383 0.0
H1960 H 0.64548 0.32522 0.73931 0.0
H1961 H 0.62487 0.29071 0.76278 0.0
H1962 H 0.65367 0.28689 0.77729 0.0
H1963 H 0.63456 0.26173 0.75986 0.0
H1964 H 0.67981 0.23348 0.68495 0.0
H1965 H 0.71779 0.23361 0.70987 0.0
H1966 H 0.69871 0.28643 0.76439 0.0
C1967 C 0.61301 0.28524 0.70657 0.0
C1968 C 0.60107 0.2752 0.68336 0.0
C1969 C 0.61181 0.25913 0.66817 0.0
C1970 C 0.6339 0.25272 0.67596 0.0
C1971 C 0.64527 0.26286 0.69883 0.0
C1972 C 0.63553 0.27903 0.71384 0.0
C1973 C 0.65248 0.28806 0.73696 0.0
C1974 C 0.66091 0.31531 0.73767 0.0
C1975 C 0.64069 0.28145 0.76062 0.0
C1976 C 0.673 0.27412 0.73261 0.0
C1977 C 0.66816 0.25961 0.71054 0.0
C1978 C 0.68395 0.24484 0.70222 0.0
C1979 C 0.70552 0.24506 0.71663 0.0
C1980 C 0.71139 0.26011 0.73913 0.0
C1981 C 0.69478 0.27477 0.7473 0.0
H1982 H 0.05277 0.33379 0.94527 0.0
H1983 H 0.97853 0.30988 0.95815 0.0
H1984 H 0.97655 0.34997 0.97901 0.0
H1985 H 0.06928 0.37547 0.00327 0.0
H1986 H 0.0878 0.39688 0.98715 0.0
H1987 H 0.08457 0.36522 0.97749 0.0
H1988 H 0.07033 0.3735 0.9328 0.0
H1989 H 0.07328 0.40505 0.94232 0.0
H1990 H 0.04494 0.38899 0.92799 0.0
H1991 H 0.98173 0.39425 0.99481 0.0
H1992 H 0.99334 0.43859 0.00256 0.0
H1993 H 0.06314 0.43294 0.97683 0.0
C1994 C 0.03632 0.33674 0.95316 0.0
C1995 C 0.01588 0.31871 0.95032 0.0
C1996 C 0.99448 0.32343 0.96035 0.0
C1997 C 0.99321 0.34612 0.97225 0.0
C1998 C 0.0135 0.36381 0.97403 0.0
C1999 C 0.03471 0.35927 0.96486 0.0
C2000 C 0.05318 0.38182 0.96668 0.0
C2001 C 0.075 0.37971 0.98472 0.0
C2002 C 0.06086 0.38767 0.94092 0.0
C2003 C 0.03875 0.39995 0.97728 0.0
C2004 C 0.01612 0.38925 0.98204 0.0
C2005 C 0.99948 0.40276 0.99134 0.0
C2006 C 0.00616 0.42786 0.99565 0.0
C2007 C 0.02897 0.43902 0.99001 0.0
C2008 C 0.04546 0.42482 0.98102 0.0
H2009 H 0.96062 0.74799 0.18307 0.0
H2010 H 0.99071 0.82266 0.20506 0.0
H2011 H 0.95711 0.82647 0.23065 0.0
H2012 H 0.89992 0.75669 0.17695 0.0
H2013 H 0.88814 0.72882 0.18885 0.0
H2014 H 0.91559 0.73126 0.17384 0.0
H2015 H 0.93758 0.71798 0.21293 0.0
H2016 H 0.91017 0.71562 0.22812 0.0
H2017 H 0.93703 0.73437 0.24271 0.0
H2018 H 0.91893 0.82364 0.25036 0.0
H2019 H 0.87792 0.81413 0.2633 0.0
H2020 H 0.87253 0.74094 0.23044 0.0
C2021 C 0.96025 0.76503 0.19353 0.0
C2022 C 0.97829 0.78503 0.19214 0.0
C2023 C 0.97709 0.80711 0.20586 0.0
C2024 C 0.95814 0.80943 0.22054 0.0
C2025 C 0.94057 0.78947 0.22141 0.0
C2026 C 0.9414 0.76766 0.20835 0.0
C2027 C 0.9194 0.74949 0.21147 0.0
C2028 C 0.90491 0.74108 0.18628 0.0
C2029 C 0.92648 0.7281 0.22459 0.0
C2030 C 0.90592 0.76465 0.22796 0.0
C2031 C 0.91857 0.78763 0.2335 0.0
C2032 C 0.90906 0.80559 0.24662 0.0
C2033 C 0.88581 0.80006 0.25389 0.0
C2034 C 0.87251 0.77673 0.24833 0.0
C2035 C 0.88279 0.75867 0.2356 0.0
H2036 H 0.49267 0.33234 0.11901 0.0
H2037 H 0.52782 0.29266 0.06493 0.0
H2038 H 0.53144 0.32746 0.03955 0.0
H2039 H 0.45914 0.36354 0.07548 0.0
H2040 H 0.46343 0.39081 0.09598 0.0
H2041 H 0.46234 0.36217 0.10867 0.0
H2042 H 0.50391 0.37703 0.13321 0.0
H2043 H 0.50518 0.40563 0.12049 0.0
H2044 H 0.52912 0.38831 0.1167 0.0
H2045 H 0.53381 0.36853 0.02181 0.0
H2046 H 0.5328 0.41081 0.01272 0.0
H2047 H 0.49552 0.42197 0.07862 0.0
C2048 C 0.50077 0.33077 0.10162 0.0
C2049 C 0.50985 0.30977 0.09385 0.0
C2050 C 0.52059 0.30856 0.07113 0.0
C2051 C 0.52278 0.32825 0.05664 0.0
C2052 C 0.51404 0.34891 0.06513 0.0
C2053 C 0.50309 0.35015 0.08704 0.0
C2054 C 0.49599 0.37456 0.09273 0.0
C2055 C 0.4686 0.37264 0.09324 0.0
C2056 C 0.50935 0.38711 0.11722 0.0
C2057 C 0.50462 0.38694 0.07065 0.0
C2058 C 0.51512 0.37204 0.05491 0.0
C2059 C 0.52537 0.38024 0.03388 0.0
C2060 C 0.52477 0.40425 0.02888 0.0
C2061 C 0.51387 0.4196 0.04479 0.0
C2062 C 0.50366 0.41064 0.06582 0.0
H2063 H 0.94428 0.28039 0.38174 0.0
H2064 H 0.97894 0.27578 0.31326 0.0
H2065 H 0.9396 0.27357 0.28908 0.0
H2066 H 0.89339 0.2385 0.36219 0.0
H2067 H 0.87274 0.2542 0.37814 0.0
H2068 H 0.90385 0.25822 0.3899 0.0
H2069 H 0.90684 0.3043 0.38819 0.0
H2070 H 0.87567 0.30038 0.37634 0.0
H2071 H 0.89841 0.31605 0.35938 0.0
H2072 H 0.89619 0.26936 0.27247 0.0
H2073 H 0.85194 0.26083 0.26467 0.0
H2074 H 0.84576 0.26712 0.3441 0.0
C2075 C 0.94364 0.27927 0.36166 0.0
C2076 C 0.96463 0.27835 0.34934 0.0
C2077 C 0.96306 0.27663 0.32305 0.0
C2078 C 0.94083 0.27546 0.30918 0.0
C2079 C 0.92042 0.2762 0.32191 0.0
C2080 C 0.92164 0.27808 0.34757 0.0
C2081 C 0.89691 0.2769 0.35674 0.0
C2082 C 0.89141 0.25569 0.37267 0.0
C2083 C 0.89431 0.30083 0.37101 0.0
C2084 C 0.88149 0.27297 0.33224 0.0
C2085 C 0.89539 0.27322 0.31236 0.0
C2086 C 0.88513 0.26932 0.28788 0.0
C2087 C 0.85999 0.26455 0.28364 0.0
C2088 C 0.84548 0.26329 0.3038 0.0
C2089 C 0.85642 0.26797 0.32835 0.0
H2090 H 0.99251 0.68292 0.56914 0.0
H2091 H 0.00083 0.66799 0.64647 0.0
H2092 H 0.00693 0.62687 0.63361 0.0
H2093 H 0.95983 0.62229 0.54646 0.0
H2094 H 0.9739 0.62177 0.51775 0.0
H2095 H 0.96907 0.64996 0.53288 0.0
H2096 H 0.01449 0.66638 0.53317 0.0
H2097 H 0.01949 0.63816 0.51834 0.0
H2098 H 0.03625 0.65016 0.54741 0.0
H2099 H 0.0172 0.58972 0.61327 0.0
H2100 H 0.02404 0.5551 0.58596 0.0
H2101 H 0.00578 0.59176 0.52123 0.0
C2102 C 0.99521 0.67082 0.58328 0.0
C2103 C 0.99627 0.67866 0.60879 0.0
C2104 C 0.99987 0.66237 0.62681 0.0
C2105 C 0.00348 0.63899 0.61973 0.0
C2106 C 0.00299 0.632 0.59453 0.0
C2107 C 0.99839 0.64712 0.5765 0.0
C2108 C 0.99873 0.63475 0.5507 0.0
C2109 C 0.9739 0.63203 0.53609 0.0
C2110 C 0.01841 0.64817 0.53658 0.0
C2111 C 0.00474 0.61058 0.55719 0.0
C2112 C 0.00743 0.60961 0.58261 0.0
C2113 C 0.01464 0.58999 0.59331 0.0
C2114 C 0.01856 0.57044 0.5776 0.0
C2115 C 0.01496 0.57051 0.55145 0.0
C2116 C 0.00814 0.59097 0.54115 0.0
H2117 H 0.60071 0.74467 0.86374 0.0
H2118 H 0.58141 0.80925 0.83465 0.0
H2119 H 0.61101 0.80717 0.80359 0.0
H2120 H 0.66225 0.75891 0.86025 0.0
H2121 H 0.66671 0.72856 0.85159 0.0
H2122 H 0.6421 0.7338 0.86924 0.0
H2123 H 0.61244 0.70727 0.83557 0.0
H2124 H 0.63705 0.70228 0.8176 0.0
H2125 H 0.61202 0.71447 0.80373 0.0
H2126 H 0.64513 0.80013 0.77848 0.0
H2127 H 0.68344 0.79115 0.76421 0.0
H2128 H 0.67996 0.73075 0.80937 0.0
C2129 C 0.60252 0.75823 0.85065 0.0
C2130 C 0.5888 0.77712 0.85155 0.0
C2131 C 0.59179 0.79463 0.83426 0.0
C2132 C 0.60839 0.79347 0.81643 0.0
C2133 C 0.62164 0.77456 0.81603 0.0
C2134 C 0.61893 0.7573 0.83276 0.0
C2135 C 0.63674 0.74004 0.82988 0.0
C2136 C 0.65291 0.74037 0.85417 0.0
C2137 C 0.62378 0.7145 0.82117 0.0
C2138 C 0.65066 0.7509 0.80966 0.0
C2139 C 0.64133 0.77048 0.80152 0.0
C2140 C 0.65239 0.78463 0.78444 0.0
C2141 C 0.67413 0.77934 0.77639 0.0
C2142 C 0.68472 0.76022 0.78566 0.0
C2143 C 0.67219 0.74524 0.80162 0.0
H2144 H 0.42078 0.50519 0.66252 0.0
H2145 H 0.47033 0.55483 0.7145 0.0
H2146 H 0.49757 0.56255 0.6815 0.0
H2147 H 0.46484 0.47956 0.63056 0.0
H2148 H 0.44838 0.47714 0.6004 0.0
H2149 H 0.43248 0.47607 0.6279 0.0
H2150 H 0.41149 0.51157 0.61491 0.0
H2151 H 0.42733 0.51271 0.58734 0.0
H2152 H 0.42956 0.53921 0.60864 0.0
H2153 H 0.5204 0.5635 0.64287 0.0
H2154 H 0.53585 0.55864 0.60153 0.0
H2155 H 0.47076 0.50923 0.57496 0.0
C2156 C 0.43728 0.51781 0.66691 0.0
C2157 C 0.44342 0.5294 0.69111 0.0
C2158 C 0.46521 0.54576 0.6961 0.0
C2159 C 0.48083 0.55025 0.67747 0.0
C2160 C 0.47436 0.53838 0.65386 0.0
C2161 C 0.453 0.52263 0.64849 0.0
C2162 C 0.45031 0.51207 0.62168 0.0
C2163 C 0.44893 0.48458 0.62006 0.0
C2164 C 0.42837 0.51933 0.6073 0.0
C2165 C 0.47357 0.52412 0.61291 0.0
C2166 C 0.48725 0.53921 0.63169 0.0
C2167 C 0.50974 0.55182 0.62799 0.0
C2168 C 0.5184 0.54893 0.60446 0.0
C2169 C 0.50455 0.53363 0.58493 0.0
C2170 C 0.48182 0.52119 0.58938 0.0
H2171 H 0.8148 0.20939 0.96869 0.0
H2172 H 0.74534 0.16372 0.9541 0.0
H2173 H 0.73356 0.18934 0.92197 0.0
H2174 H 0.79455 0.26661 0.95741 0.0
H2175 H 0.82054 0.27752 0.94186 0.0
H2176 H 0.82297 0.25716 0.96562 0.0
H2177 H 0.83956 0.22766 0.93486 0.0
H2178 H 0.83763 0.24815 0.91127 0.0
H2179 H 0.82271 0.21746 0.90536 0.0
H2180 H 0.72919 0.21933 0.89157 0.0
H2181 H 0.73528 0.24664 0.85871 0.0
H2182 H 0.80867 0.27137 0.8904 0.0
C2183 C 0.79711 0.20491 0.95875 0.0
C2184 C 0.78092 0.1847 0.96389 0.0
C2185 C 0.75803 0.17911 0.95035 0.0
C2186 C 0.75106 0.19371 0.9323 0.0
C2187 C 0.76727 0.2137 0.92786 0.0
C2188 C 0.79001 0.21906 0.94027 0.0
C2189 C 0.80476 0.24018 0.93008 0.0
C2190 C 0.81107 0.26164 0.94993 0.0
C2191 C 0.8275 0.23292 0.91977 0.0
C2192 C 0.78697 0.24534 0.90955 0.0
C2193 C 0.76521 0.23036 0.90921 0.0
C2194 C 0.74614 0.23118 0.89161 0.0
C2195 C 0.74978 0.24687 0.87303 0.0
C2196 C 0.77256 0.261 0.87177 0.0
C2197 C 0.79104 0.26087 0.89089 0.0
H2198 H 0.08889 0.48255 0.19178 0.0
H2199 H 0.13678 0.55086 0.19621 0.0
H2200 H 0.11367 0.56247 0.16015 0.0
H2201 H 0.08362 0.4735 0.12524 0.0
H2202 H 0.0525 0.45971 0.12254 0.0
H2203 H 0.07162 0.45736 0.15009 0.0
H2204 H 0.04163 0.47556 0.17686 0.0
H2205 H 0.02268 0.47842 0.14927 0.0
H2206 H 0.03367 0.50441 0.17079 0.0
H2207 H 0.08668 0.56714 0.12438 0.0
H2208 H 0.06129 0.5617 0.08484 0.0
H2209 H 0.03119 0.48977 0.10062 0.0
C2210 C 0.09442 0.49992 0.18508 0.0
C2211 C 0.11452 0.51588 0.19686 0.0
C2212 C 0.12146 0.53834 0.18747 0.0
C2213 C 0.1083 0.54524 0.16717 0.0
C2214 C 0.08834 0.5294 0.15627 0.0
C2215 C 0.08165 0.50699 0.1644 0.0
C2216 C 0.06067 0.49276 0.14766 0.0
C2217 C 0.06752 0.46946 0.13567 0.0
C2218 C 0.03834 0.48748 0.16201 0.0
C2219 C 0.05711 0.51054 0.1286 0.0
C2220 C 0.07293 0.53177 0.13452 0.0
C2221 C 0.07412 0.55069 0.11953 0.0
C2222 C 0.05961 0.54745 0.09717 0.0
C2223 C 0.04431 0.52539 0.08989 0.0
C2224 C 0.04236 0.50696 0.10613 0.0
H2225 H 0.79907 0.84058 0.47591 0.0
H2226 H 0.72259 0.84192 0.47718 0.0
H2227 H 0.71525 0.8202 0.4354 0.0
H2228 H 0.80225 0.85147 0.41289 0.0
H2229 H 0.82392 0.83189 0.40685 0.0
H2230 H 0.82315 0.84576 0.43775 0.0
H2231 H 0.81804 0.80388 0.4548 0.0
H2232 H 0.81886 0.78987 0.42393 0.0
H2233 H 0.79375 0.78091 0.44152 0.0
H2234 H 0.71628 0.80114 0.39274 0.0
H2235 H 0.72549 0.78531 0.35159 0.0
H2236 H 0.80136 0.79574 0.37735 0.0
C2237 C 0.78076 0.83595 0.46753 0.0
C2238 C 0.76137 0.84284 0.47982 0.0
C2239 C 0.7377 0.83677 0.46813 0.0
C2240 C 0.73334 0.8244 0.44441 0.0
C2241 C 0.75284 0.81817 0.43263 0.0
C2242 C 0.77608 0.82362 0.44376 0.0
C2243 C 0.79388 0.81583 0.42645 0.0
C2244 C 0.81185 0.83753 0.42064 0.0
C2245 C 0.8069 0.79647 0.43733 0.0
C2246 C 0.77702 0.80553 0.40373 0.0
C2247 C 0.75343 0.80699 0.40782 0.0
C2248 C 0.73465 0.79968 0.38937 0.0
C2249 C 0.7401 0.79079 0.36601 0.0
C2250 C 0.76415 0.78922 0.36125 0.0
C2251 C 0.78279 0.79645 0.38051 0.0
H2252 H 0.40771 0.51295 0.84008 0.0
H2253 H 0.474 0.51395 0.80459 0.0
H2254 H 0.49645 0.51405 0.84566 0.0
H2255 H 0.43188 0.55284 0.89246 0.0
H2256 H 0.41366 0.53732 0.91389 0.0
H2257 H 0.40286 0.53574 0.8816 0.0
H2258 H 0.39705 0.4892 0.87929 0.0
H2259 H 0.40799 0.49065 0.91158 0.0
H2260 H 0.4221 0.47449 0.8884 0.0
H2261 H 0.51183 0.51545 0.89113 0.0
H2262 H 0.51899 0.52044 0.93701 0.0
H2263 H 0.44257 0.51893 0.94226 0.0
C2264 C 0.42693 0.51302 0.84092 0.0
C2265 C 0.43911 0.51339 0.81914 0.0
C2266 C 0.4643 0.51363 0.82105 0.0
C2267 C 0.47718 0.5136 0.84428 0.0
C2268 C 0.46461 0.51326 0.86541 0.0
C2269 C 0.44004 0.51303 0.86391 0.0
C2270 C 0.4309 0.51374 0.88943 0.0
C2271 C 0.41914 0.53625 0.89464 0.0
C2272 C 0.41348 0.49064 0.89234 0.0
C2273 C 0.45422 0.515 0.90558 0.0
C2274 C 0.47344 0.51434 0.89143 0.0
C2275 C 0.49687 0.51584 0.90238 0.0
C2276 C 0.50076 0.51858 0.92845 0.0
C2277 C 0.48135 0.52006 0.94323 0.0
C2278 C 0.45779 0.51782 0.93151 0.0
H2279 H 0.76204 0.17755 0.10087 0.0
H2280 H 0.82873 0.21734 0.08127 0.0
H2281 H 0.83012 0.2456 0.11891 0.0
H2282 H 0.73678 0.22849 0.12583 0.0
H2283 H 0.72377 0.21243 0.15023 0.0
H2284 H 0.7276 0.19637 0.12117 0.0
H2285 H 0.7523 0.16846 0.14461 0.0
H2286 H 0.74821 0.18431 0.17363 0.0
H2287 H 0.77808 0.18164 0.16556 0.0
H2288 H 0.82469 0.26836 0.16012 0.0
H2289 H 0.81389 0.28224 0.20167 0.0
H2290 H 0.75057 0.22725 0.19261 0.0
C2291 C 0.77688 0.1923 0.10435 0.0
C2292 C 0.79526 0.19534 0.08821 0.0
C2293 C 0.81446 0.21475 0.09348 0.0
C2294 C 0.81534 0.2309 0.11472 0.0
C2295 C 0.79686 0.22733 0.13031 0.0
C2296 C 0.77803 0.20844 0.12533 0.0
C2297 C 0.76092 0.20771 0.14538 0.0
C2298 C 0.73578 0.21148 0.13502 0.0
C2299 C 0.75984 0.18414 0.15804 0.0
C2300 C 0.77316 0.22899 0.16266 0.0
C2301 C 0.79378 0.24025 0.1537 0.0
C2302 C 0.80849 0.25977 0.16721 0.0
C2303 C 0.80219 0.26757 0.19072 0.0
C2304 C 0.7815 0.2557 0.20038 0.0
C2305 C 0.76661 0.23659 0.18582 0.0
H2306 H 0.08918 0.47799 0.32231 0.0
H2307 H 0.08967 0.55151 0.30425 0.0
H2308 H 0.06178 0.55749 0.33615 0.0
H2309 H 0.02502 0.46674 0.33842 0.0
H2310 H 0.0328 0.44924 0.36338 0.0
H2311 H 0.04918 0.44943 0.33614 0.0
H2312 H 0.08911 0.46296 0.36396 0.0
H2313 H 0.07291 0.46289 0.39117 0.0
H2314 H 0.09233 0.48976 0.38505 0.0
H2315 H 0.03972 0.5576 0.37418 0.0
H2316 H 0.02487 0.55162 0.41525 0.0
H2317 H 0.0378 0.47774 0.40792 0.0
C2318 C 0.08284 0.49511 0.32458 0.0
C2319 C 0.09146 0.51426 0.31081 0.0
C2320 C 0.08316 0.53656 0.31456 0.0
C2321 C 0.06724 0.5401 0.33256 0.0
C2322 C 0.05959 0.52106 0.34638 0.0
C2323 C 0.06693 0.49891 0.34243 0.0
C2324 C 0.05818 0.48223 0.36147 0.0
C2325 C 0.04022 0.46063 0.34911 0.0
C2326 C 0.07939 0.474 0.37628 0.0
C2327 C 0.04583 0.49884 0.37748 0.0
C2328 C 0.04649 0.52103 0.36825 0.0
C2329 C 0.03852 0.54012 0.38128 0.0
C2330 C 0.03016 0.53658 0.4046 0.0
C2331 C 0.02993 0.51415 0.41463 0.0
C2332 C 0.0372 0.49492 0.4005 0.0
H2333 H 0.75879 0.81968 0.60295 0.0
H2334 H 0.79279 0.89028 0.63609 0.0
H2335 H 0.79488 0.87481 0.67722 0.0
H2336 H 0.72263 0.80505 0.65395 0.0
H2337 H 0.72596 0.77375 0.65181 0.0
H2338 H 0.72707 0.79001 0.62451 0.0
H2339 H 0.7687 0.77821 0.6174 0.0
H2340 H 0.7677 0.76191 0.64468 0.0
H2341 H 0.79273 0.78516 0.64198 0.0
H2342 H 0.79463 0.85247 0.71405 0.0
H2343 H 0.79093 0.82442 0.74616 0.0
H2344 H 0.75552 0.76738 0.69118 0.0
C2345 C 0.7667 0.83181 0.6189 0.0
C2346 C 0.77571 0.85622 0.61629 0.0
C2347 C 0.78579 0.87157 0.63759 0.0
C2348 C 0.78707 0.86294 0.66106 0.0
C2349 C 0.77807 0.83891 0.66305 0.0
C2350 C 0.76797 0.82349 0.64269 0.0
C2351 C 0.75952 0.79848 0.65045 0.0
C2352 C 0.73217 0.79141 0.64484 0.0
C2353 C 0.77297 0.77984 0.63787 0.0
C2354 C 0.76663 0.80236 0.67829 0.0
C2355 C 0.77737 0.82587 0.68491 0.0
C2356 C 0.78611 0.83405 0.70918 0.0
C2357 C 0.7839 0.81784 0.72732 0.0
C2358 C 0.77267 0.79362 0.72138 0.0
C2359 C 0.76392 0.78579 0.69641 0.0
H2360 H 0.69346 0.41927 0.54944 0.0
H2361 H 0.71239 0.44773 0.48025 0.0
H2362 H 0.6859 0.47823 0.48639 0.0
H2363 H 0.63163 0.42546 0.54183 0.0
H2364 H 0.62965 0.43353 0.57435 0.0
H2365 H 0.65117 0.41495 0.56502 0.0
H2366 H 0.68531 0.4453 0.58997 0.0
H2367 H 0.66388 0.46418 0.59901 0.0
H2368 H 0.68942 0.47639 0.58346 0.0
H2369 H 0.65661 0.50478 0.49932 0.0
H2370 H 0.62323 0.52266 0.51571 0.0
H2371 H 0.62316 0.47683 0.57646 0.0
C2372 C 0.69204 0.43195 0.53561 0.0
C2373 C 0.70498 0.43119 0.51438 0.0
C2374 C 0.70258 0.44798 0.49662 0.0
C2375 C 0.68774 0.46549 0.50005 0.0
C2376 C 0.67545 0.46595 0.52133 0.0
C2377 C 0.67723 0.44948 0.53868 0.0
C2378 C 0.66103 0.45302 0.55918 0.0
C2379 C 0.64226 0.43041 0.56013 0.0
C2380 C 0.6758 0.46015 0.5844 0.0
C2381 C 0.64951 0.47375 0.55036 0.0
C2382 C 0.65837 0.48118 0.5287 0.0
C2383 C 0.64965 0.49925 0.51637 0.0
C2384 C 0.63072 0.50937 0.52591 0.0
C2385 C 0.62056 0.5012 0.54742 0.0
C2386 C 0.63069 0.48371 0.56018 0.0
H2387 H 0.19852 0.07059 0.51182 0.0
H2388 H 0.18172 0.13308 0.47632 0.0
H2389 H 0.13867 0.11643 0.47322 0.0
H2390 H 0.15089 0.02653 0.47567 0.0
H2391 H 0.14446 0.00957 0.50183 0.0
H2392 H 0.17435 0.02537 0.49985 0.0
H2393 H 0.17332 0.04799 0.54306 0.0
H2394 H 0.14348 0.03225 0.54519 0.0
H2395 H 0.14912 0.06465 0.54843 0.0
H2396 H 0.09788 0.0955 0.47693 0.0
H2397 H 0.0608 0.0709 0.48709 0.0
H2398 H 0.10246 0.02047 0.51895 0.0
C2399 C 0.18576 0.08058 0.50314 0.0
C2400 C 0.1935 0.10314 0.49426 0.0
C2401 C 0.17626 0.11578 0.48321 0.0
C2402 C 0.15174 0.10644 0.48129 0.0
C2403 C 0.14467 0.08432 0.49034 0.0
C2404 C 0.16107 0.07143 0.50098 0.0
C2405 C 0.14831 0.04855 0.51018 0.0
C2406 C 0.1549 0.02618 0.49603 0.0
C2407 C 0.15389 0.04836 0.53839 0.0
C2408 C 0.12221 0.05097 0.50358 0.0
C2409 C 0.1207 0.07174 0.49202 0.0
C2410 C 0.09879 0.07899 0.48558 0.0
C2411 C 0.07782 0.0649 0.49143 0.0
C2412 C 0.07876 0.04363 0.50341 0.0
C2413 C 0.10124 0.03632 0.5092 0.0
H2414 H 0.17993 0.9483 0.82125 0.0
H2415 H 0.21484 0.98519 0.76338 0.0
H2416 H 0.24027 0.95347 0.75861 0.0
H2417 H 0.23393 0.92554 0.84801 0.0
H2418 H 0.21651 0.89752 0.85415 0.0
H2419 H 0.20317 0.92457 0.85506 0.0
H2420 H 0.16869 0.90363 0.82265 0.0
H2421 H 0.18191 0.87661 0.82174 0.0
H2422 H 0.17597 0.89033 0.79345 0.0
H2423 H 0.25929 0.91569 0.75759 0.0
H2424 H 0.26947 0.87483 0.75977 0.0
H2425 H 0.22176 0.86278 0.81808 0.0
C2426 C 0.19324 0.94994 0.8079 0.0
C2427 C 0.19548 0.96926 0.79275 0.0
C2428 C 0.21292 0.97062 0.77529 0.0
C2429 C 0.22748 0.95271 0.77249 0.0
C2430 C 0.22456 0.93368 0.78746 0.0
C2431 C 0.20795 0.93228 0.80494 0.0
C2432 C 0.20719 0.90921 0.81756 0.0
C2433 C 0.21571 0.91454 0.84534 0.0
C2434 C 0.18195 0.89406 0.81359 0.0
C2435 C 0.22519 0.89739 0.80373 0.0
C2436 C 0.23537 0.91194 0.78677 0.0
C2437 C 0.25166 0.90429 0.77105 0.0
C2438 C 0.25734 0.88103 0.77242 0.0
C2439 C 0.24656 0.8656 0.78922 0.0
C2440 C 0.2306 0.87418 0.80529 0.0
H2441 H 0.34768 0.90645 0.00171 0.0
H2442 H 0.31503 0.97053 0.01399 0.0
H2443 H 0.35486 0.99576 0.01385 0.0
H2444 H 0.3977 0.92441 0.04174 0.0
H2445 H 0.4181 0.91099 0.02311 0.0
H2446 H 0.38671 0.89865 0.01989 0.0
H2447 H 0.3849 0.90373 0.97267 0.0
H2448 H 0.4164 0.91625 0.9758 0.0
H2449 H 0.39464 0.93285 0.96224 0.0
H2450 H 0.39904 0.01351 0.01743 0.0
H2451 H 0.44325 0.02169 0.0272 0.0
H2452 H 0.44617 0.94572 0.013 0.0
C2453 C 0.34881 0.92581 0.00387 0.0
C2454 C 0.32836 0.93658 0.00784 0.0
C2455 C 0.33055 0.96195 0.01082 0.0
C2456 C 0.35305 0.97641 0.01061 0.0
C2457 C 0.37301 0.96516 0.00707 0.0
C2458 C 0.37101 0.9404 0.00364 0.0
C2459 C 0.3953 0.93249 0.00273 0.0
C2460 C 0.3997 0.91566 0.02309 0.0
C2461 C 0.39796 0.92063 0.97682 0.0
C2462 C 0.41143 0.95654 0.00775 0.0
C2463 C 0.39833 0.97529 0.00945 0.0
C2464 C 0.40948 0.99901 0.01571 0.0
C2465 C 0.43456 0.00352 0.02115 0.0
C2466 C 0.44794 0.98429 0.02078 0.0
C2467 C 0.43629 0.96072 0.01326 0.0
H2468 H 0.84711 0.58538 0.74487 0.0
H2469 H 0.82347 0.55851 0.81312 0.0
H2470 H 0.79247 0.58499 0.81286 0.0
H2471 H 0.84418 0.64465 0.76201 0.0
H2472 H 0.83444 0.65204 0.7315 0.0
H2473 H 0.85143 0.62789 0.73471 0.0
H2474 H 0.81752 0.59897 0.70775 0.0
H2475 H 0.80024 0.6231 0.70484 0.0
H2476 H 0.78726 0.59566 0.7168 0.0
H2477 H 0.76884 0.61807 0.80897 0.0
H2478 H 0.75684 0.65773 0.80374 0.0
H2479 H 0.795 0.6633 0.73779 0.0
C2480 C 0.83499 0.58467 0.75941 0.0
C2481 C 0.83747 0.56982 0.77892 0.0
C2482 C 0.82177 0.56976 0.79799 0.0
C2483 C 0.80398 0.58454 0.79785 0.0
C2484 C 0.80213 0.59921 0.77848 0.0
C2485 C 0.8173 0.5995 0.75966 0.0
C2486 C 0.81383 0.61921 0.74296 0.0
C2487 C 0.83735 0.637 0.74282 0.0
C2488 C 0.80413 0.60859 0.71652 0.0
C2489 C 0.79504 0.63065 0.75594 0.0
C2490 C 0.78813 0.61846 0.77606 0.0
C2491 C 0.77345 0.62733 0.79285 0.0
C2492 C 0.76657 0.64976 0.78967 0.0
C2493 C 0.77427 0.66287 0.76984 0.0
C2494 C 0.7879 0.65287 0.75227 0.0
H2495 H 0.84373 0.60916 0.9856 0.0
H2496 H 0.80538 0.56916 0.03936 0.0
H2497 H 0.83905 0.54635 0.04571 0.0
H2498 H 0.87037 0.55965 0.95834 0.0
H2499 H 0.89832 0.57849 0.95452 0.0
H2500 H 0.87077 0.59092 0.95354 0.0
H2501 H 0.88955 0.62363 0.98871 0.0
H2502 H 0.91712 0.61129 0.9898 0.0
H2503 H 0.90191 0.61469 0.01756 0.0
H2504 H 0.87814 0.52923 0.04767 0.0
H2505 H 0.91885 0.51881 0.04428 0.0
H2506 H 0.93097 0.56961 0.98874 0.0
C2507 C 0.8423 0.59543 0.99852 0.0
C2508 C 0.82188 0.59088 0.01193 0.0
C2509 C 0.82081 0.57289 0.0288 0.0
C2510 C 0.83986 0.55984 0.03255 0.0
C2511 C 0.85984 0.56492 0.01921 0.0
C2512 C 0.86112 0.58221 0.00244 0.0
C2513 C 0.88482 0.58463 0.99087 0.0
C2514 C 0.88082 0.57802 0.96264 0.0
C2515 C 0.89919 0.61006 0.99712 0.0
C2516 C 0.89673 0.56613 0.00385 0.0
C2517 C 0.88209 0.55494 0.02015 0.0
C2518 C 0.88967 0.53775 0.03479 0.0
C2519 C 0.91282 0.53194 0.03276 0.0
C2520 C 0.92808 0.54324 0.01614 0.0
C2521 C 0.91972 0.56043 0.00146 0.0
H2522 H 0.20808 0.0932 0.81286 0.0
H2523 H 0.14663 0.09224 0.75915 0.0
H2524 H 0.1634 0.13232 0.74846 0.0
H2525 H 0.21352 0.15669 0.83405 0.0
H2526 H 0.24591 0.16166 0.83769 0.0
H2527 H 0.22946 0.13242 0.8413 0.0
H2528 H 0.25283 0.11345 0.80774 0.0
H2529 H 0.26924 0.14267 0.80392 0.0
H2530 H 0.2527 0.1246 0.77746 0.0
H2531 H 0.18584 0.17169 0.74295 0.0
H2532 H 0.21243 0.21041 0.74436 0.0
H2533 H 0.26016 0.18809 0.80178 0.0
C2534 C 0.19819 0.10153 0.79894 0.0
C2535 C 0.176 0.08952 0.78686 0.0
C2536 C 0.16358 0.10102 0.76875 0.0
C2537 C 0.173 0.1238 0.76243 0.0
C2538 C 0.19486 0.13508 0.77445 0.0
C2539 C 0.20732 0.12458 0.79245 0.0
C2540 C 0.23025 0.14129 0.80271 0.0
C2541 C 0.22974 0.14844 0.8306 0.0
C2542 C 0.25257 0.12981 0.79765 0.0
C2543 C 0.22861 0.16263 0.78754 0.0
C2544 C 0.20801 0.15843 0.77135 0.0
C2545 C 0.20202 0.17528 0.75557 0.0
C2546 C 0.21728 0.19727 0.75656 0.0
C2547 C 0.23836 0.20238 0.77324 0.0
C2548 C 0.24425 0.18465 0.78874 0.0
H2549 H 0.36776 0.95333 0.25211 0.0
H2550 H 0.3458 0.97156 0.32521 0.0
H2551 H 0.3214 0.93109 0.32383 0.0
H2552 H 0.31111 0.91644 0.22633 0.0
H2553 H 0.32617 0.8954 0.20933 0.0
H2554 H 0.33992 0.92644 0.21535 0.0
H2555 H 0.37817 0.91325 0.23613 0.0
H2556 H 0.36448 0.88226 0.23021 0.0
H2557 H 0.37545 0.8944 0.26144 0.0
H2558 H 0.30067 0.88794 0.31475 0.0
H2559 H 0.28751 0.84501 0.29994 0.0
H2560 H 0.32464 0.85571 0.23364 0.0
C2561 C 0.35762 0.94894 0.26774 0.0
C2562 C 0.35854 0.96549 0.28874 0.0
C2563 C 0.34525 0.95904 0.30894 0.0
C2564 C 0.33129 0.9362 0.30825 0.0
C2565 C 0.33089 0.92021 0.28725 0.0
C2566 C 0.34378 0.92632 0.2674 0.0
C2567 C 0.34165 0.90556 0.24767 0.0
C2568 C 0.32895 0.91131 0.22323 0.0
C2569 C 0.36641 0.89845 0.24365 0.0
C2570 C 0.32606 0.88655 0.25978 0.0
C2571 C 0.31963 0.89538 0.28237 0.0
C2572 C 0.30552 0.88086 0.29705 0.0
C2573 C 0.2981 0.85659 0.2885 0.0
C2574 C 0.30523 0.84721 0.26577 0.0
C2575 C 0.31911 0.86245 0.25118 0.0
H2576 H 0.54657 0.36794 0.64283 0.0
H2577 H 0.50185 0.32034 0.58512 0.0
H2578 H 0.49888 0.35473 0.56007 0.0
H2579 H 0.51477 0.41785 0.63805 0.0
H2580 H 0.54149 0.44009 0.64378 0.0
H2581 H 0.54055 0.41159 0.65668 0.0
H2582 H 0.57879 0.40446 0.63549 0.0
H2583 H 0.57983 0.43297 0.62255 0.0
H2584 H 0.57911 0.40591 0.60241 0.0
H2585 H 0.50211 0.39455 0.54074 0.0
H2586 H 0.50908 0.43689 0.53025 0.0
H2587 H 0.54957 0.45798 0.60189 0.0
C2588 C 0.53616 0.36476 0.62492 0.0
C2589 C 0.52448 0.34153 0.61586 0.0
C2590 C 0.51091 0.33806 0.5924 0.0
C2591 C 0.50917 0.35745 0.57803 0.0
C2592 C 0.52095 0.38017 0.5875 0.0
C2593 C 0.53403 0.38391 0.6105 0.0
C2594 C 0.54457 0.41009 0.61673 0.0
C2595 C 0.53475 0.42051 0.6402 0.0
C2596 C 0.57221 0.41355 0.61945 0.0
C2597 C 0.53525 0.42055 0.59376 0.0
C2598 C 0.52194 0.40303 0.57691 0.0
C2599 C 0.51231 0.40845 0.55391 0.0
C2600 C 0.51635 0.43246 0.54809 0.0
C2601 C 0.52952 0.45064 0.56541 0.0
C2602 C 0.53901 0.44451 0.58847 0.0
H2603 H 0.44102 0.73177 0.32217 0.0
H2604 H 0.44038 0.7703 0.39464 0.0
H2605 H 0.40163 0.78186 0.38159 0.0
H2606 H 0.41384 0.77218 0.28595 0.0
H2607 H 0.39507 0.74942 0.26493 0.0
H2608 H 0.42301 0.74331 0.27946 0.0
H2609 H 0.40053 0.70591 0.29727 0.0
H2610 H 0.37256 0.71171 0.28249 0.0
H2611 H 0.37564 0.70911 0.31547 0.0
H2612 H 0.3662 0.79307 0.36053 0.0
H2613 H 0.3299 0.79712 0.33488 0.0
H2614 H 0.34895 0.74827 0.27631 0.0
C2615 C 0.4325 0.74237 0.3353 0.0
C2616 C 0.44382 0.75025 0.35939 0.0
C2617 C 0.43212 0.76402 0.37612 0.0
C2618 C 0.41013 0.77084 0.36886 0.0
C2619 C 0.39974 0.76339 0.34493 0.0
C2620 C 0.41002 0.74895 0.32852 0.0
C2621 C 0.39411 0.743 0.30417 0.0
C2622 C 0.4073 0.75255 0.28234 0.0
C2623 C 0.38518 0.71581 0.29959 0.0
C2624 C 0.37363 0.75672 0.30954 0.0
C2625 C 0.37773 0.76861 0.33307 0.0
C2626 C 0.36245 0.78349 0.34224 0.0
C2627 C 0.34186 0.78572 0.32734 0.0
C2628 C 0.33621 0.77265 0.30364 0.0
C2629 C 0.35259 0.75824 0.29442 0.0
H2630 H 0.99727 0.7074 0.09848 0.0
H2631 H 0.07522 0.72061 0.10735 0.0
H2632 H 0.07599 0.68043 0.08616 0.0
H2633 H 0.98961 0.64788 0.11153 0.0
H2634 H 0.96433 0.63775 0.08885 0.0
H2635 H 0.97004 0.66852 0.10188 0.0
H2636 H 0.97126 0.68285 0.05764 0.0
H2637 H 0.96553 0.65203 0.04445 0.0
H2638 H 0.99153 0.67193 0.03703 0.0
H2639 H 0.06805 0.63752 0.06628 0.0
H2640 H 0.05186 0.59503 0.05157 0.0
H2641 H 0.97942 0.60995 0.0573 0.0
C2642 C 0.01451 0.702 0.09558 0.0
C2643 C 0.03618 0.71715 0.10442 0.0
C2644 C 0.05838 0.70935 0.10053 0.0
C2645 C 0.05901 0.68658 0.08847 0.0
C2646 C 0.03728 0.67193 0.08024 0.0
C2647 C 0.01544 0.67939 0.08357 0.0
C2648 C 0.99464 0.65974 0.07444 0.0
C2649 C 0.97874 0.65308 0.09544 0.0
C2650 C 0.97987 0.66708 0.05206 0.0
C2651 C 0.00816 0.63967 0.06664 0.0
C2652 C 0.03273 0.64718 0.06945 0.0
C2653 C 0.04883 0.63152 0.06379 0.0
C2654 C 0.03954 0.6075 0.05539 0.0
C2655 C 0.01448 0.59941 0.05335 0.0
C2656 C 0.99868 0.61578 0.05875 0.0
H2657 H 0.07246 0.23656 0.84246 0.0
H2658 H 0.07301 0.3129 0.85972 0.0
H2659 H 0.10918 0.32189 0.83713 0.0
H2660 H 0.13452 0.23822 0.85169 0.0
H2661 H 0.13613 0.21568 0.82673 0.0
H2662 H 0.1089 0.2154 0.84187 0.0
H2663 H 0.08491 0.21689 0.79941 0.0
H2664 H 0.11213 0.21713 0.78413 0.0
H2665 H 0.09421 0.2406 0.78015 0.0
H2666 H 0.14746 0.32236 0.81572 0.0
H2667 H 0.18452 0.31415 0.79751 0.0
H2668 H 0.15851 0.23755 0.79421 0.0
C2669 C 0.07991 0.25518 0.84107 0.0
C2670 C 0.06984 0.27404 0.85272 0.0
C2671 C 0.08034 0.29816 0.85081 0.0
C2672 C 0.10087 0.30345 0.83799 0.0
C2673 C 0.11062 0.28441 0.82706 0.0
C2674 C 0.10039 0.26076 0.82837 0.0
C2675 C 0.11513 0.24357 0.81639 0.0
C2676 C 0.12421 0.22727 0.8353 0.0
C2677 C 0.10074 0.22867 0.79367 0.0
C2678 C 0.13557 0.26121 0.8087 0.0
C2679 C 0.13257 0.2847 0.81477 0.0
C2680 C 0.14983 0.30404 0.81059 0.0
C2681 C 0.17083 0.29921 0.80022 0.0
C2682 C 0.17442 0.27523 0.79429 0.0
C2683 C 0.15629 0.2561 0.79829 0.0
H2684 H 0.50202 0.70201 0.93376 0.0
H2685 H 0.57593 0.73249 0.95897 0.0
H2686 H 0.57936 0.6978 0.98317 0.0
H2687 H 0.48702 0.67587 0.99201 0.0
H2688 H 0.46872 0.64942 0.97601 0.0
H2689 H 0.47128 0.67756 0.96213 0.0
H2690 H 0.4856 0.65737 0.92264 0.0
H2691 H 0.48302 0.6292 0.93635 0.0
H2692 H 0.51116 0.64184 0.92554 0.0
H2693 H 0.57644 0.65844 0.00069 0.0
H2694 H 0.56683 0.61672 0.01168 0.0
H2695 H 0.49427 0.61195 0.97734 0.0
C2696 C 0.51881 0.70151 0.94465 0.0
C2697 C 0.53872 0.71993 0.94454 0.0
C2698 C 0.56044 0.71859 0.95884 0.0
C2699 C 0.56255 0.699 0.9727 0.0
C2700 C 0.54269 0.68103 0.97225 0.0
C2701 C 0.52117 0.68211 0.95875 0.0
C2702 C 0.50301 0.65975 0.96054 0.0
C2703 C 0.48122 0.66603 0.97345 0.0
C2704 C 0.49526 0.64625 0.93473 0.0
C2705 C 0.51792 0.64571 0.97665 0.0
C2706 C 0.54073 0.65842 0.98321 0.0
C2707 C 0.5585 0.64851 0.99617 0.0
C2708 C 0.55292 0.62485 0.00231 0.0
C2709 C 0.52974 0.61155 0.99581 0.0
C2710 C 0.51188 0.62216 0.98317 0.0
H2711 H 0.07694 0.7964 0.68307 0.0
H2712 H 0.06926 0.71851 0.67577 0.0
H2713 H 0.10896 0.72072 0.69882 0.0
H2714 H 0.13805 0.80687 0.6726 0.0
H2715 H 0.14601 0.83298 0.69463 0.0
H2716 H 0.11584 0.82546 0.67998 0.0
H2717 H 0.09921 0.82483 0.72319 0.0
H2718 H 0.12939 0.83242 0.73799 0.0
H2719 H 0.11014 0.80596 0.74539 0.0
H2720 H 0.14972 0.73102 0.72064 0.0
H2721 H 0.19057 0.74898 0.73824 0.0
H2722 H 0.17292 0.82032 0.73004 0.0
C2723 C 0.08352 0.77986 0.68671 0.0
C2724 C 0.07009 0.75729 0.67781 0.0
C2725 C 0.07933 0.73598 0.68248 0.0
C2726 C 0.10177 0.73703 0.69565 0.0
C2727 C 0.11474 0.75953 0.70393 0.0
C2728 C 0.10606 0.78059 0.69962 0.0
C2729 C 0.12445 0.80241 0.70905 0.0
C2730 C 0.1315 0.81783 0.68779 0.0
C2731 C 0.11524 0.81728 0.73016 0.0
C2732 C 0.14498 0.79026 0.71865 0.0
C2733 C 0.13878 0.76554 0.71593 0.0
C2734 C 0.1548 0.75036 0.72303 0.0
C2735 C 0.17794 0.76073 0.733 0.0
C2736 C 0.18487 0.78602 0.73542 0.0
C2737 C 0.1681 0.80093 0.72833 0.0
H2738 H 0.01704 0.33837 0.45456 0.0
H2739 H 0.07341 0.36053 0.40734 0.0
H2740 H 0.08037 0.4012 0.42959 0.0
H2741 H 0.99268 0.39229 0.45596 0.0
H2742 H 0.98557 0.39187 0.48777 0.0
H2743 H 0.98645 0.3641 0.46949 0.0
H2744 H 0.01751 0.35308 0.50267 0.0
H2745 H 0.01681 0.38092 0.52101 0.0
H2746 H 0.04499 0.37365 0.51174 0.0
H2747 H 0.07902 0.43995 0.45459 0.0
H2748 H 0.069 0.47453 0.48005 0.0
H2749 H 0.01393 0.42709 0.51165 0.0
C2750 C 0.03107 0.35169 0.44911 0.0
C2751 C 0.04479 0.34632 0.42931 0.0
C2752 C 0.06276 0.36429 0.42251 0.0
C2753 C 0.06689 0.38738 0.43509 0.0
C2754 C 0.05295 0.39212 0.45446 0.0
C2755 C 0.03539 0.3748 0.46144 0.0
C2756 C 0.02194 0.38493 0.48187 0.0
C2757 C 0.99507 0.3832 0.47325 0.0
C2758 C 0.02554 0.37239 0.50574 0.0
C2759 C 0.03446 0.41077 0.48507 0.0
C2760 C 0.05237 0.41448 0.46915 0.0
C2761 C 0.06532 0.4372 0.4674 0.0
C2762 C 0.05949 0.45671 0.48193 0.0
C2763 C 0.04093 0.45339 0.49805 0.0
C2764 C 0.02863 0.43003 0.49999 0.0
H2765 H 0.43139 0.23242 0.16113 0.0
H2766 H 0.47566 0.28381 0.21593 0.0
H2767 H 0.44042 0.28659 0.23967 0.0
H2768 H 0.37947 0.25983 0.16032 0.0
H2769 H 0.35859 0.23207 0.15721 0.0
H2770 H 0.3876 0.23291 0.14549 0.0
H2771 H 0.39637 0.19855 0.17221 0.0
H2772 H 0.36731 0.19755 0.18396 0.0
H2773 H 0.39405 0.20192 0.20523 0.0
H2774 H 0.39973 0.28481 0.25663 0.0
H2775 H 0.35688 0.27864 0.26513 0.0
H2776 H 0.33967 0.22896 0.19876 0.0
C2777 C 0.43372 0.24409 0.17824 0.0
C2778 C 0.45624 0.25789 0.18671 0.0
C2779 C 0.45856 0.27302 0.20914 0.0
C2780 C 0.43866 0.27471 0.22276 0.0
C2781 C 0.41662 0.26105 0.21375 0.0
C2782 C 0.41408 0.24594 0.19207 0.0
C2783 C 0.38834 0.23367 0.18604 0.0
C2784 C 0.37789 0.24001 0.16077 0.0
C2785 C 0.38641 0.2063 0.18692 0.0
C2786 C 0.37667 0.24479 0.20729 0.0
C2787 C 0.39327 0.26029 0.22329 0.0
C2788 C 0.38657 0.27266 0.24425 0.0
C2789 C 0.36223 0.26909 0.24892 0.0
C2790 C 0.34493 0.25351 0.23252 0.0
C2791 C 0.3524 0.2412 0.21154 0.0
H2792 H 0.62974 0.51732 0.37788 0.0
H2793 H 0.5708 0.5087 0.32 0.0
H2794 H 0.54174 0.50552 0.35178 0.0
H2795 H 0.60062 0.47606 0.41828 0.0
H2796 H 0.61313 0.49422 0.44642 0.0
H2797 H 0.62929 0.49522 0.41907 0.0
H2798 H 0.63094 0.54144 0.42112 0.0
H2799 H 0.61485 0.5405 0.4485 0.0
H2800 H 0.60341 0.55384 0.42182 0.0
H2801 H 0.51892 0.50336 0.39009 0.0
H2802 H 0.50444 0.50419 0.43204 0.0
H2803 H 0.5783 0.51483 0.46474 0.0
C2804 C 0.61073 0.51471 0.37191 0.0
C2805 C 0.60254 0.51322 0.34644 0.0
C2806 C 0.5775 0.5099 0.33939 0.0
C2807 C 0.56083 0.50801 0.35731 0.0
C2808 C 0.56946 0.50951 0.38225 0.0
C2809 C 0.59382 0.51288 0.38958 0.0
C2810 C 0.59837 0.51443 0.41762 0.0
C2811 C 0.6111 0.49375 0.42582 0.0
C2812 C 0.61274 0.53902 0.42786 0.0
C2813 C 0.57281 0.51159 0.42489 0.0
C2814 C 0.55636 0.50859 0.40425 0.0
C2815 C 0.53165 0.50568 0.4064 0.0
C2816 C 0.52358 0.5061 0.4303 0.0
C2817 C 0.54017 0.50959 0.45172 0.0
C2818 C 0.56509 0.51218 0.44879 0.0
H2819 H 0.27129 0.8779 0.09993 0.0
H2820 H 0.27917 0.81822 0.04756 0.0
H2821 H 0.28188 0.79232 0.08217 0.0
H2822 H 0.31056 0.86335 0.15201 0.0
H2823 H 0.29121 0.87225 0.17472 0.0
H2824 H 0.29277 0.88659 0.14621 0.0
H2825 H 0.24652 0.87527 0.13703 0.0
H2826 H 0.2449 0.86083 0.16541 0.0
H2827 H 0.23278 0.84424 0.13629 0.0
H2828 H 0.28248 0.77266 0.12289 0.0
H2829 H 0.27799 0.76046 0.16556 0.0
H2830 H 0.2669 0.83256 0.1898 0.0
C2831 C 0.27405 0.85951 0.0958 0.0
C2832 C 0.27528 0.85008 0.07116 0.0
C2833 C 0.27833 0.82579 0.06639 0.0
C2834 C 0.27996 0.81099 0.08591 0.0
C2835 C 0.27833 0.82076 0.11001 0.0
C2836 C 0.27534 0.84446 0.11496 0.0
C2837 C 0.27217 0.85018 0.1421 0.0
C2838 C 0.29292 0.86922 0.15448 0.0
C2839 C 0.24763 0.85809 0.14538 0.0
C2840 C 0.27336 0.82589 0.15157 0.0
C2841 C 0.27741 0.80923 0.13298 0.0
C2842 C 0.27928 0.78557 0.13757 0.0
C2843 C 0.27673 0.77879 0.16177 0.0
C2844 C 0.27182 0.79551 0.18072 0.0
C2845 C 0.2703 0.81932 0.17551 0.0
H2846 H 0.91908 0.50703 0.86101 0.0
H2847 H 0.95854 0.57121 0.83559 0.0
H2848 H 0.98792 0.57474 0.87259 0.0
H2849 H 0.927 0.52591 0.92628 0.0
H2850 H 0.93041 0.49642 0.93508 0.0
H2851 H 0.91255 0.49951 0.90689 0.0
H2852 H 0.93851 0.4739 0.88189 0.0
H2853 H 0.95659 0.47094 0.91 0.0
H2854 H 0.97063 0.48301 0.88396 0.0
H2855 H 0.01365 0.57021 0.91197 0.0
H2856 H 0.03206 0.55947 0.95171 0.0
H2857 H 0.97501 0.49859 0.95071 0.0
C2858 C 0.93377 0.52198 0.86331 0.0
C2859 C 0.93654 0.53891 0.84554 0.0
C2860 C 0.95611 0.55807 0.84907 0.0
C2861 C 0.97289 0.56018 0.86996 0.0
C2862 C 0.9698 0.54292 0.88697 0.0
C2863 C 0.95063 0.52427 0.88389 0.0
C2864 C 0.95141 0.5079 0.90459 0.0
C2865 C 0.92902 0.50743 0.91907 0.0
C2866 C 0.95447 0.48243 0.8945 0.0
C2867 C 0.97378 0.52046 0.92009 0.0
C2868 C 0.98435 0.54046 0.90953 0.0
C2869 C 0.00549 0.55462 0.92042 0.0
C2870 C 0.01589 0.54832 0.94287 0.0
C2871 C 0.00491 0.52824 0.95421 0.0
C2872 C 0.98371 0.51412 0.94251 0.0
H2873 H 0.27149 0.14652 0.59292 0.0
H2874 H 0.2629 0.20924 0.55379 0.0
H2875 H 0.26458 0.23363 0.59395 0.0
H2876 H 0.23573 0.16021 0.6436 0.0
H2877 H 0.25508 0.14914 0.66652 0.0
H2878 H 0.25225 0.1365 0.63469 0.0
H2879 H 0.29845 0.14627 0.63353 0.0
H2880 H 0.30141 0.15888 0.66535 0.0
H2881 H 0.31349 0.17667 0.6417 0.0
H2882 H 0.26841 0.25149 0.63882 0.0
H2883 H 0.27494 0.2613 0.6844 0.0
H2884 H 0.28102 0.1868 0.69373 0.0
C2885 C 0.26982 0.16535 0.5928 0.0
C2886 C 0.26702 0.17597 0.57022 0.0
C2887 C 0.26501 0.2007 0.57086 0.0
C2888 C 0.26591 0.2147 0.59359 0.0
C2889 C 0.26876 0.2037 0.61553 0.0
C2890 C 0.27067 0.17957 0.6153 0.0
C2891 C 0.27422 0.1722 0.64142 0.0
C2892 C 0.25306 0.1534 0.64687 0.0
C2893 C 0.29833 0.16297 0.64574 0.0
C2894 C 0.2744 0.196 0.65639 0.0
C2895 C 0.27104 0.21395 0.64118 0.0
C2896 C 0.27096 0.23754 0.6509 0.0
C2897 C 0.27464 0.24295 0.67681 0.0
C2898 C 0.27849 0.22486 0.69268 0.0
C2899 C 0.27812 0.20108 0.68218 0.0
H2900 H 0.61492 0.5365 0.21057 0.0
H2901 H 0.60171 0.46183 0.22667 0.0
H2902 H 0.57914 0.4509 0.18554 0.0
H2903 H 0.55635 0.53632 0.17562 0.0
H2904 H 0.56898 0.55585 0.15361 0.0
H2905 H 0.58285 0.55817 0.18497 0.0
H2906 H 0.62337 0.55189 0.16824 0.0
H2907 H 0.60965 0.54959 0.13688 0.0
H2908 H 0.62456 0.5257 0.14744 0.0
H2909 H 0.56095 0.44741 0.1418 0.0
H2910 H 0.54785 0.4518 0.098 0.0
H2911 H 0.5713 0.52874 0.11018 0.0
C2912 C 0.60707 0.5179 0.20551 0.0
C2913 C 0.61006 0.5 0.22182 0.0
C2914 C 0.59962 0.47584 0.2145 0.0
C2915 C 0.58671 0.46946 0.1912 0.0
C2916 C 0.58422 0.48748 0.1755 0.0
C2917 C 0.59397 0.51123 0.18233 0.0
C2918 C 0.58938 0.5269 0.16153 0.0
C2919 C 0.57344 0.54541 0.16941 0.0
C2920 C 0.61315 0.53923 0.15302 0.0
C2921 C 0.57606 0.50815 0.14172 0.0
C2922 C 0.57318 0.48554 0.15028 0.0
C2923 C 0.56276 0.46505 0.13501 0.0
C2924 C 0.5554 0.46769 0.11024 0.0
C2925 C 0.55829 0.49061 0.10111 0.0
C2926 C 0.56844 0.51114 0.11706 0.0
H2927 H 0.26398 0.87199 0.92415 0.0
H2928 H 0.22839 0.81735 0.96663 0.0
H2929 H 0.22794 0.78682 0.93133 0.0
H2930 H 0.23238 0.84776 0.86268 0.0
H2931 H 0.25909 0.8561 0.84717 0.0
H2932 H 0.25409 0.87352 0.87496 0.0
H2933 H 0.29585 0.86705 0.89443 0.0
H2934 H 0.30027 0.84899 0.86686 0.0
H2935 H 0.30203 0.83686 0.89662 0.0
H2936 H 0.23633 0.76152 0.89372 0.0
H2937 H 0.24798 0.74407 0.85398 0.0
H2938 H 0.27571 0.81553 0.83507 0.0
C2939 C 0.25559 0.8537 0.9258 0.0
C2940 C 0.24617 0.847 0.94806 0.0
C2941 C 0.23553 0.82288 0.94964 0.0
C2942 C 0.23529 0.80541 0.92975 0.0
C2943 C 0.24542 0.81247 0.90832 0.0
C2944 C 0.25492 0.83613 0.90602 0.0
C2945 C 0.26535 0.83889 0.88132 0.0
C2946 C 0.2519 0.85502 0.86561 0.0
C2947 C 0.29248 0.84851 0.88505 0.0
C2948 C 0.26055 0.81303 0.87022 0.0
C2949 C 0.24927 0.79802 0.8862 0.0
C2950 C 0.2447 0.77313 0.88083 0.0
C2951 C 0.25151 0.76337 0.85837 0.0
C2952 C 0.26237 0.77854 0.84149 0.0
C2953 C 0.26692 0.80364 0.84751 0.0
H2954 H 0.93618 0.49517 0.71388 0.0
H2955 H 0.93221 0.57152 0.72055 0.0
H2956 H 0.95019 0.57571 0.68092 0.0
H2957 H 0.99432 0.5012 0.68423 0.0
H2958 H 0.98503 0.4737 0.66443 0.0
H2959 H 0.97411 0.47695 0.69468 0.0
H2960 H 0.93034 0.46676 0.67443 0.0
H2961 H 0.94107 0.46377 0.64413 0.0
H2962 H 0.92044 0.4844 0.65045 0.0
H2963 H 0.96156 0.57069 0.63837 0.0
H2964 H 0.97163 0.55796 0.59675 0.0
H2965 H 0.97292 0.48562 0.61794 0.0
C2966 C 0.93959 0.51283 0.7072 0.0
C2967 C 0.93273 0.53302 0.72019 0.0
C2968 C 0.93734 0.55583 0.71091 0.0
C2969 C 0.94754 0.5584 0.68842 0.0
C2970 C 0.95345 0.53808 0.67569 0.0
C2971 C 0.95017 0.51581 0.68489 0.0
C2972 C 0.95738 0.49682 0.66685 0.0
C2973 C 0.979 0.48657 0.67823 0.0
C2974 C 0.93603 0.47676 0.65847 0.0
C2975 C 0.96427 0.51178 0.6457 0.0
C2976 C 0.96172 0.53551 0.65131 0.0
C2977 C 0.96442 0.55238 0.63401 0.0
C2978 C 0.97012 0.54493 0.61038 0.0
C2979 C 0.97376 0.52099 0.60436 0.0
C2980 C 0.97089 0.50419 0.62231 0.0
H2981 H 0.26214 0.15602 0.41492 0.0
H2982 H 0.30492 0.2083 0.46997 0.0
H2983 H 0.31182 0.2367 0.43789 0.0
H2984 H 0.29871 0.17003 0.36351 0.0
H2985 H 0.27312 0.16567 0.3407 0.0
H2986 H 0.27226 0.14908 0.36778 0.0
H2987 H 0.23343 0.16521 0.37864 0.0
H2988 H 0.23421 0.18186 0.35163 0.0
H2989 H 0.23337 0.1972 0.38188 0.0
H2990 H 0.31241 0.2602 0.40033 0.0
H2991 H 0.30779 0.27662 0.35964 0.0
H2992 H 0.26532 0.20879 0.32869 0.0
C2993 C 0.27313 0.17336 0.42016 0.0
C2994 C 0.28302 0.17995 0.44496 0.0
C2995 C 0.29725 0.20283 0.45109 0.0
C2996 C 0.30124 0.2191 0.433 0.0
C2997 C 0.29106 0.21216 0.40879 0.0
C2998 C 0.27745 0.18977 0.40227 0.0
C2999 C 0.26834 0.18692 0.37497 0.0
C3000 C 0.27873 0.16673 0.36091 0.0
C3001 C 0.2407 0.18254 0.3716 0.0
C3002 C 0.27856 0.21136 0.36729 0.0
C3003 C 0.29166 0.22562 0.38705 0.0
C3004 C 0.30235 0.24913 0.38466 0.0
C3005 C 0.29958 0.25832 0.36146 0.0
C3006 C 0.28624 0.24403 0.3409 0.0
C3007 C 0.27572 0.22019 0.34397 0.0
H3008 H 0.34935 0.60469 0.56176 0.0
H3009 H 0.31341 0.58925 0.48734 0.0
H3010 H 0.34297 0.56284 0.47646 0.0
H3011 H 0.40717 0.61033 0.54487 0.0
H3012 H 0.41932 0.59677 0.57105 0.0
H3013 H 0.39344 0.61141 0.57377 0.0
H3014 H 0.36954 0.57236 0.5873 0.0
H3015 H 0.39549 0.55764 0.58467 0.0
H3016 H 0.36718 0.54461 0.56782 0.0
H3017 H 0.37945 0.54176 0.47266 0.0
H3018 H 0.41949 0.5288 0.4762 0.0
H3019 H 0.43051 0.55834 0.55325 0.0
C3020 C 0.34736 0.59536 0.54332 0.0
C3021 C 0.32909 0.59892 0.5254 0.0
C3022 C 0.32725 0.58663 0.50138 0.0
C3023 C 0.3439 0.57156 0.49508 0.0
C3024 C 0.36207 0.56885 0.51309 0.0
C3025 C 0.36373 0.58031 0.53679 0.0
C3026 C 0.38591 0.57616 0.55222 0.0
C3027 C 0.40242 0.60008 0.56097 0.0
C3028 C 0.37911 0.56184 0.5743 0.0
C3029 C 0.39701 0.56132 0.53326 0.0
C3030 C 0.38291 0.55691 0.51089 0.0
C3031 C 0.39044 0.54481 0.49021 0.0
C3032 C 0.41317 0.5375 0.49237 0.0
C3033 C 0.42807 0.54262 0.51497 0.0
C3034 C 0.41953 0.55415 0.53572 0.0
H3035 H 0.86124 0.9065 0.54542 0.0
H3036 H 0.81804 0.96275 0.5344 0.0
H3037 H 0.85482 0.99176 0.53168 0.0
H3038 H 0.91164 0.9435 0.58225 0.0
H3039 H 0.93395 0.92871 0.56808 0.0
H3040 H 0.90431 0.9124 0.57014 0.0
H3041 H 0.89967 0.90155 0.5225 0.0
H3042 H 0.92932 0.91776 0.52039 0.0
H3043 H 0.90394 0.92523 0.50205 0.0
H3044 H 0.89618 0.01503 0.53149 0.0
H3045 H 0.93925 0.03018 0.52962 0.0
H3046 H 0.9557 0.95843 0.53771 0.0
C3047 C 0.85958 0.92494 0.54252 0.0
C3048 C 0.83679 0.93242 0.54026 0.0
C3049 C 0.83531 0.95663 0.5362 0.0
C3050 C 0.8561 0.97328 0.53472 0.0
C3051 C 0.87828 0.9654 0.5371 0.0
C3052 C 0.88019 0.94177 0.54062 0.0
C3053 C 0.90621 0.93786 0.54158 0.0
C3054 C 0.91451 0.93017 0.56703 0.0
C3055 C 0.91 0.91952 0.52036 0.0
C3056 C 0.91854 0.96295 0.53792 0.0
C3057 C 0.90211 0.97862 0.53578 0.0
C3058 C 0.90921 0.0029 0.53296 0.0
C3059 C 0.93373 0.01135 0.53199 0.0
C3060 C 0.95084 0.99547 0.53332 0.0
C3061 C 0.94304 0.97098 0.53644 0.0
H3062 H 0.85696 0.08849 0.27705 0.0
H3063 H 0.82748 0.05137 0.20567 0.0
H3064 H 0.80143 0.08221 0.19978 0.0
H3065 H 0.80069 0.10689 0.29463 0.0
H3066 H 0.81526 0.13556 0.30957 0.0
H3067 H 0.83112 0.11019 0.30866 0.0
H3068 H 0.86545 0.13467 0.28796 0.0
H3069 H 0.84974 0.16011 0.28885 0.0
H3070 H 0.8585 0.14815 0.25975 0.0
H3071 H 0.78029 0.118 0.20043 0.0
H3072 H 0.76485 0.15619 0.20774 0.0
H3073 H 0.80672 0.17003 0.27941 0.0
C3074 C 0.84492 0.0868 0.26025 0.0
C3075 C 0.84426 0.0675 0.24178 0.0
C3076 C 0.82826 0.06593 0.22007 0.0
C3077 C 0.81338 0.08336 0.21657 0.0
C3078 C 0.81449 0.10218 0.23506 0.0
C3079 C 0.82973 0.10397 0.25655 0.0
C3080 C 0.82759 0.12624 0.27331 0.0
C3081 C 0.8181 0.1193 0.29801 0.0
C3082 C 0.85176 0.1433 0.27771 0.0
C3083 C 0.80915 0.13694 0.25763 0.0
C3084 C 0.80181 0.12267 0.23568 0.0
C3085 C 0.7857 0.12918 0.21766 0.0
C3086 C 0.77703 0.15096 0.222 0.0
C3087 C 0.78435 0.16605 0.24424 0.0
C3088 C 0.80043 0.15871 0.26242 0.0
H3089 H 0.7045 0.12996 0.00444 0.0
H3090 H 0.73593 0.07335 0.03801 0.0
H3091 H 0.69555 0.04869 0.03601 0.0
H3092 H 0.65068 0.12422 0.03454 0.0
H3093 H 0.63208 0.12961 0.00766 0.0
H3094 H 0.66343 0.14246 0.01154 0.0
H3095 H 0.66943 0.12223 0.96837 0.0
H3096 H 0.63806 0.10935 0.96433 0.0
H3097 H 0.66069 0.0902 0.96185 0.0
H3098 H 0.65143 0.03097 0.03139 0.0
H3099 H 0.60727 0.0209 0.02329 0.0
H3100 H 0.60547 0.08901 0.99174 0.0
C3101 C 0.70288 0.11237 0.01138 0.0
C3102 C 0.7232 0.10353 0.02151 0.0
C3103 C 0.72049 0.08037 0.03016 0.0
C3104 C 0.69767 0.06629 0.02913 0.0
C3105 C 0.67794 0.0756 0.0191 0.0
C3106 C 0.68038 0.09803 0.01019 0.0
C3107 C 0.65646 0.10382 1.00001 0.0
C3108 C 0.65031 0.12636 0.0143 0.0
C3109 C 0.65615 0.10655 0.97198 0.0
C3110 C 0.64005 0.08139 0.00512 0.0
C3111 C 0.65274 0.06527 0.01604 0.0
C3112 C 0.64132 0.04339 0.02272 0.0
C3113 C 0.61625 0.03785 0.01806 0.0
C3114 C 0.60294 0.05416 0.00685 0.0
C3115 C 0.61511 0.07614 0.0003 0.0
H3116 H 0.17462 0.4318 0.24844 0.0
H3117 H 0.20022 0.47078 0.31999 0.0
H3118 H 0.22349 0.4386 0.33023 0.0
H3119 H 0.16719 0.37317 0.26978 0.0
H3120 H 0.17691 0.3591 0.24219 0.0
H3121 H 0.1629 0.38555 0.24039 0.0
H3122 H 0.1999 0.40688 0.22083 0.0
H3123 H 0.21406 0.3805 0.22266 0.0
H3124 H 0.22942 0.40915 0.23691 0.0
H3125 H 0.2439 0.40174 0.33257 0.0
H3126 H 0.25852 0.3626 0.32714 0.0
H3127 H 0.21882 0.3484 0.25432 0.0
C3128 C 0.18517 0.4336 0.26623 0.0
C3129 C 0.18568 0.45374 0.28341 0.0
C3130 C 0.19961 0.45543 0.30656 0.0
C3131 C 0.21291 0.4373 0.31252 0.0
C3132 C 0.21203 0.41764 0.29514 0.0
C3133 C 0.19846 0.41568 0.27249 0.0
C3134 C 0.20011 0.39255 0.25726 0.0
C3135 C 0.1753 0.37666 0.25212 0.0
C3136 C 0.21156 0.39758 0.23298 0.0
C3137 C 0.2166 0.38175 0.27492 0.0
C3138 C 0.22345 0.39647 0.29662 0.0
C3139 C 0.23865 0.39005 0.31565 0.0
C3140 C 0.24689 0.36787 0.31241 0.0
C3141 C 0.23971 0.35247 0.2904 0.0
C3142 C 0.22452 0.35969 0.27146 0.0
H3143 H 0.19001 0.40756 0.04803 0.0
H3144 H 0.2343 0.4503 0.00068 0.0
H3145 H 0.2021 0.47472 0.99335 0.0
H3146 H 0.1326 0.40779 0.01262 0.0
H3147 H 0.11649 0.41016 0.03988 0.0
H3148 H 0.14256 0.39533 0.04051 0.0
H3149 H 0.16216 0.42395 0.07872 0.0
H3150 H 0.13618 0.43889 0.07826 0.0
H3151 H 0.16561 0.456 0.07695 0.0
H3152 H 0.16515 0.49507 0.99181 0.0
H3153 H 0.12655 0.50983 0.99661 0.0
H3154 H 0.10704 0.45437 0.04577 0.0
C3155 C 0.19282 0.42189 0.03591 0.0
C3156 C 0.21463 0.42696 0.02482 0.0
C3157 C 0.21772 0.44606 0.00931 0.0
C3158 C 0.19953 0.46002 0.00503 0.0
C3159 C 0.17834 0.45473 0.01644 0.0
C3160 C 0.1749 0.43611 0.03156 0.0
C3161 C 0.15075 0.43461 0.04218 0.0
C3162 C 0.13465 0.41054 0.03326 0.0
C3163 C 0.15388 0.43861 0.07072 0.0
C3164 C 0.14127 0.45541 0.03086 0.0
C3165 C 0.15735 0.4667 0.01594 0.0
C3166 C 0.15243 0.48636 0.00347 0.0
C3167 C 0.13048 0.49464 0.00633 0.0
C3168 C 0.11382 0.48339 0.02167 0.0
C3169 C 0.11943 0.46352 0.03404 0.0
H3170 H 0.82694 0.94163 0.23727 0.0
H3171 H 0.90062 0.93608 0.26238 0.0
H3172 H 0.8877 0.89468 0.27215 0.0
H3173 H 0.79822 0.90753 0.28213 0.0
H3174 H 0.77345 0.89193 0.2612 0.0
H3175 H 0.78806 0.92123 0.25513 0.0
H3176 H 0.79647 0.90431 0.21149 0.0
H3177 H 0.78166 0.87499 0.21733 0.0
H3178 H 0.81203 0.87879 0.20859 0.0
H3179 H 0.86732 0.85625 0.28318 0.0
H3180 H 0.84115 0.81911 0.28953 0.0
H3181 H 0.77994 0.84589 0.25427 0.0
C3182 C 0.84033 0.93153 0.2445 0.0
C3183 C 0.86484 0.94217 0.24908 0.0
C3184 C 0.88181 0.92838 0.25858 0.0
C3185 C 0.87464 0.90483 0.26433 0.0
C3186 C 0.85043 0.89503 0.26009 0.0
C3187 C 0.83351 0.90758 0.24992 0.0
C3188 C 0.80869 0.89217 0.24701 0.0
C3189 C 0.79107 0.90392 0.26228 0.0
C3190 C 0.79915 0.88728 0.21946 0.0
C3191 C 0.81439 0.86931 0.25767 0.0
C3192 C 0.83861 0.87169 0.26526 0.0
C3193 C 0.8484 0.85391 0.27688 0.0
C3194 C 0.83322 0.83282 0.28045 0.0
C3195 C 0.80841 0.82918 0.27202 0.0
C3196 C 0.79884 0.84788 0.2606 0.0
H3197 H 0.68944 0.08237 0.75167 0.0
H3198 H 0.68009 0.07126 0.82891 0.0
H3199 H 0.70013 0.11261 0.84152 0.0
H3200 H 0.74962 0.12131 0.76481 0.0
H3201 H 0.74353 0.1401 0.74044 0.0
H3202 H 0.7303 0.1088 0.73741 0.0
H3203 H 0.68797 0.12078 0.73044 0.0
H3204 H 0.70104 0.15206 0.73362 0.0
H3205 H 0.67823 0.14124 0.75328 0.0
H3206 H 0.71539 0.156 0.84542 0.0
H3207 H 0.72943 0.19882 0.84071 0.0
H3208 H 0.73263 0.18204 0.76178 0.0
C3209 C 0.69205 0.08857 0.77124 0.0
C3210 C 0.68321 0.07368 0.78932 0.0
C3211 C 0.68683 0.08234 0.81476 0.0
C3212 C 0.69819 0.10581 0.82214 0.0
C3213 C 0.70628 0.12021 0.8039 0.0
C3214 C 0.70385 0.1119 0.77903 0.0
C3215 C 0.71365 0.13153 0.76328 0.0
C3216 C 0.73558 0.12504 0.75074 0.0
C3217 C 0.69405 0.1367 0.74403 0.0
C3218 C 0.72091 0.15235 0.7831 0.0
C3219 C 0.71648 0.14532 0.8064 0.0
C3220 C 0.71954 0.16165 0.82742 0.0
C3221 C 0.72738 0.18587 0.82458 0.0
C3222 C 0.73238 0.19335 0.80102 0.0
C3223 C 0.72942 0.17644 0.78006 0.0
loop_
_geom_bond_atom_site_label_1
_geom_bond_atom_site_label_2
_geom_bond_distance
_geom_bond_site_symmetry_2
_ccdc_geom_bond_type
In0 O1 2.294 . S
In0 O2 2.326 . S
In0 O6 2.262 1_455 S
In0 O7 2.326 1_455 S
In0 O8 2.266 . S
In0 O9 2.326 . S
In0 O11 2.294 . S
In0 O12 2.326 . S
O1 In0 2.294 . S
O1 C10 1.240 . S
O2 In0 2.326 . S
O2 C10 1.252 . S
C3 O6 1.258 . S
C3 O7 1.260 . S
C4 O11 1.240 . S
C4 O12 1.252 . S
C5 O8 1.252 . S
C5 O9 1.260 . S
O6 In0 2.262 1_655 S
O6 C3 1.258 . S
O7 In0 2.326 1_655 S
O7 C3 1.260 . S
O8 In0 2.266 . S
O8 C5 1.252 . S
O9 In0 2.326 . S
O9 C5 1.260 . S
C10 O1 1.240 . S
C10 O2 1.252 . S
O11 In0 2.294 . S
O11 C4 1.240 . S
O12 In0 2.326 . S
O12 C4 1.252 . S
In13 O14 2.294 . S
In13 O15 2.326 . S
In13 O19 2.266 . S
In13 O20 2.326 . S
In13 O21 2.266 1_455 S
In13 O22 2.326 1_455 S
In13 O24 2.294 . S
In13 O25 2.326 . S
O14 In13 2.294 . S
O14 C23 1.240 . S
O15 In13 2.326 . S
O15 C23 1.252 . S
C16 O19 1.252 . S
C16 O20 1.260 . S
C17 O24 1.240 . S
C17 O25 1.252 . S
C18 O21 1.252 . S
C18 O22 1.260 . S
O19 In13 2.266 . S
O19 C16 1.252 . S
O20 In13 2.326 . S
O20 C16 1.260 . S
O21 In13 2.266 1_655 S
O21 C18 1.252 . S
O22 In13 2.326 1_655 S
O22 C18 1.260 . S
C23 O14 1.240 . S
C23 O15 1.252 . S
O24 In13 2.294 . S
O24 C17 1.240 . S
O25 In13 2.326 . S
O25 C17 1.252 . S
In26 O27 2.294 . S
In26 O28 2.326 . S
In26 O32 2.266 . S
In26 O33 2.326 . S
In26 O34 2.266 . S
In26 O35 2.326 . S
In26 O37 2.294 . S
In26 O38 2.326 . S
O27 In26 2.294 . S
O27 C36 1.240 . S
O28 In26 2.326 . S
O28 C36 1.252 . S
C29 O32 1.252 . S
C29 O33 1.260 . S
C30 O37 1.240 . S
C30 O38 1.252 . S
C31 O34 1.252 . S
C31 O35 1.260 . S
O32 In26 2.266 . S
O32 C29 1.252 . S
O33 In26 2.326 . S
O33 C29 1.260 . S
O34 In26 2.266 . S
O34 C31 1.252 . S
O35 In26 2.326 . S
O35 C31 1.260 . S
C36 O27 1.240 . S
C36 O28 1.252 . S
O37 In26 2.294 . S
O37 C30 1.240 . S
O38 In26 2.326 . S
O38 C30 1.252 . S
In39 O40 2.294 . S
In39 O41 2.326 . S
In39 O45 2.266 . S
In39 O46 2.326 . S
In39 O47 2.266 . S
In39 O48 2.326 . S
In39 O50 2.294 . S
In39 O51 2.326 . S
O40 In39 2.294 . S
O40 C49 1.240 . S
O41 In39 2.326 . S
O41 C49 1.252 . S
C42 O45 1.252 . S
C42 O46 1.260 . S
C43 O50 1.240 . S
C43 O51 1.252 . S
C44 O47 1.252 . S
C44 O48 1.260 . S
O45 In39 2.266 . S
O45 C42 1.252 . S
O46 In39 2.326 . S
O46 C42 1.260 . S
O47 In39 2.266 . S
O47 C44 1.252 . S
O48 In39 2.326 . S
O48 C44 1.260 . S
C49 O40 1.240 . S
C49 O41 1.252 . S
O50 In39 2.294 . S
O50 C43 1.240 . S
O51 In39 2.326 . S
O51 C43 1.252 . S
In52 O53 2.294 . S
In52 O54 2.326 . S
In52 O58 2.266 . S
In52 O59 2.326 . S
In52 O60 2.266 . S
In52 O61 2.326 . S
In52 O63 2.294 . S
In52 O64 2.326 1_455 S
O53 In52 2.294 . S
O53 C62 1.240 . S
O54 In52 2.326 . S
O54 C62 1.252 . S
C55 O58 1.252 . S
C55 O59 1.260 . S
C56 O63 1.240 1_655 S
C56 O64 1.252 . S
C57 O60 1.252 . S
C57 O61 1.260 . S
O58 In52 2.266 . S
O58 C55 1.252 . S
O59 In52 2.326 . S
O59 C55 1.260 . S
O60 In52 2.266 . S
O60 C57 1.252 . S
O61 In52 2.326 . S
O61 C57 1.260 . S
C62 O53 1.240 . S
C62 O54 1.252 . S
O63 In52 2.294 . S
O63 C56 1.240 1_455 S
O64 In52 2.326 1_655 S
O64 C56 1.252 . S
In65 O66 2.294 . S
In65 O67 2.326 . S
In65 O71 2.266 . S
In65 O72 2.326 . S
In65 O73 2.266 . S
In65 O74 2.326 . S
In65 O76 2.294 . S
In65 O77 2.326 . S
O66 In65 2.294 . S
O66 C75 1.240 . S
O67 In65 2.326 . S
O67 C75 1.252 . S
C68 O71 1.252 . S
C68 O72 1.260 . S
C69 O76 1.240 . S
C69 O77 1.252 . S
C70 O73 1.252 . S
C70 O74 1.260 . S
O71 In65 2.266 . S
O71 C68 1.252 . S
O72 In65 2.326 . S
O72 C68 1.260 . S
O73 In65 2.266 . S
O73 C70 1.252 . S
O74 In65 2.326 . S
O74 C70 1.260 . S
C75 O66 1.240 . S
C75 O67 1.252 . S
O76 In65 2.294 . S
O76 C69 1.240 . S
O77 In65 2.326 . S
O77 C69 1.252 . S
In78 O79 2.294 . S
In78 O80 2.326 . S
In78 O84 2.266 . S
In78 O85 2.326 . S
In78 O86 2.266 . S
In78 O87 2.326 . S
In78 O89 2.294 . S
In78 O90 2.326 . S
O79 In78 2.294 . S
O79 C88 1.240 . S
O80 In78 2.326 . S
O80 C88 1.252 . S
C81 O84 1.252 . S
C81 O85 1.260 . S
C82 O89 1.240 . S
C82 O90 1.252 . S
C83 O86 1.252 . S
C83 O87 1.260 . S
O84 In78 2.266 . S
O84 C81 1.252 . S
O85 In78 2.326 . S
O85 C81 1.260 . S
O86 In78 2.266 . S
O86 C83 1.252 . S
O87 In78 2.326 . S
O87 C83 1.260 . S
C88 O79 1.240 . S
C88 O80 1.252 . S
O89 In78 2.294 . S
O89 C82 1.240 . S
O90 In78 2.326 . S
O90 C82 1.252 . S
In91 O92 2.294 . S
In91 O93 2.326 . S
In91 O97 2.266 . S
In91 O98 2.326 . S
In91 O99 2.266 1_455 S
In91 O100 2.326 1_455 S
In91 O102 2.294 . S
In91 O103 2.326 . S
O92 In91 2.294 . S
O92 C101 1.240 . S
O93 In91 2.326 . S
O93 C101 1.252 . S
C94 O97 1.252 . S
C94 O98 1.260 . S
C95 O102 1.240 . S
C95 O103 1.252 . S
C96 O99 1.252 . S
C96 O100 1.260 . S
O97 In91 2.266 . S
O97 C94 1.252 . S
O98 In91 2.326 . S
O98 C94 1.260 . S
O99 In91 2.266 1_655 S
O99 C96 1.252 . S
O100 In91 2.326 1_655 S
O100 C96 1.260 . S
C101 O92 1.240 . S
C101 O93 1.252 . S
O102 In91 2.294 . S
O102 C95 1.240 . S
O103 In91 2.326 . S
O103 C95 1.252 . S
In104 O105 2.294 . S
In104 O106 2.326 . S
In104 O110 2.266 . S
In104 O111 2.326 . S
In104 O112 2.266 1_545 S
In104 O113 2.326 1_545 S
In104 O115 2.294 . S
In104 O116 2.326 . S
O105 In104 2.294 . S
O105 C114 1.240 . S
O106 In104 2.326 . S
O106 C114 1.252 . S
C107 O110 1.252 . S
C107 O111 1.260 . S
C108 O115 1.240 . S
C108 O116 1.252 . S
C109 O112 1.252 . S
C109 O113 1.260 . S
O110 In104 2.266 . S
O110 C107 1.252 . S
O111 In104 2.326 . S
O111 C107 1.260 . S
O112 In104 2.266 1_565 S
O112 C109 1.252 . S
O113 In104 2.326 1_565 S
O113 C109 1.260 . S
C114 O105 1.240 . S
C114 O106 1.252 . S
O115 In104 2.294 . S
O115 C108 1.240 . S
O116 In104 2.326 . S
O116 C108 1.252 . S
In117 O118 2.294 . S
In117 O119 2.326 . S
In117 O123 2.266 . S
In117 O124 2.326 . S
In117 O125 2.266 . S
In117 O126 2.326 . S
In117 O128 2.294 . S
In117 O129 2.326 . S
O118 In117 2.294 . S
O118 C127 1.240 . S
O119 In117 2.326 . S
O119 C127 1.252 . S
C120 O123 1.252 . S
C120 O124 1.260 . S
C121 O128 1.240 . S
C121 O129 1.252 . S
C122 O125 1.252 . S
C122 O126 1.260 . S
O123 In117 2.266 . S
O123 C120 1.252 . S
O124 In117 2.326 . S
O124 C120 1.260 . S
O125 In117 2.266 . S
O125 C122 1.252 . S
O126 In117 2.326 . S
O126 C122 1.260 . S
C127 O118 1.240 . S
C127 O119 1.252 . S
O128 In117 2.294 . S
O128 C121 1.240 . S
O129 In117 2.326 . S
O129 C121 1.252 . S
In130 O131 2.294 . S
In130 O132 2.326 . S
In130 O136 2.266 . S
In130 O137 2.326 . S
In130 O138 2.266 . S
In130 O139 2.326 . S
In130 O141 2.294 1_545 S
In130 O142 2.326 1_545 S
O131 In130 2.294 . S
O131 C140 1.240 . S
O132 In130 2.326 . S
O132 C140 1.252 . S
C133 O136 1.252 . S
C133 O137 1.260 . S
C134 O141 1.240 . S
C134 O142 1.252 . S
C135 O138 1.252 . S
C135 O139 1.260 . S
O136 In130 2.266 . S
O136 C133 1.252 . S
O137 In130 2.326 . S
O137 C133 1.260 . S
O138 In130 2.266 . S
O138 C135 1.252 . S
O139 In130 2.326 . S
O139 C135 1.260 . S
C140 O131 1.240 . S
C140 O132 1.252 . S
O141 In130 2.294 1_565 S
O141 C134 1.240 . S
O142 In130 2.326 1_565 S
O142 C134 1.252 . S
In143 O144 2.294 . S
In143 O145 2.326 . S
In143 O149 2.266 1_554 S
In143 O150 2.326 1_554 S
In143 O151 2.266 . S
In143 O152 2.326 . S
In143 O154 2.294 . S
In143 O155 2.326 . S
O144 In143 2.294 . S
O144 C153 1.240 . S
O145 In143 2.326 . S
O145 C153 1.252 . S
C146 O149 1.252 . S
C146 O150 1.260 . S
C147 O154 1.240 . S
C147 O155 1.252 . S
C148 O151 1.252 . S
C148 O152 1.260 . S
O149 In143 2.266 1_556 S
O149 C146 1.252 . S
O150 In143 2.326 1_556 S
O150 C146 1.260 . S
O151 In143 2.266 . S
O151 C148 1.252 . S
O152 In143 2.326 . S
O152 C148 1.260 . S
C153 O144 1.240 . S
C153 O145 1.252 . S
O154 In143 2.294 . S
O154 C147 1.240 . S
O155 In143 2.326 . S
O155 C147 1.252 . S
In156 O157 2.294 . S
In156 O158 2.326 . S
In156 O162 2.266 . S
In156 O163 2.326 . S
In156 O164 2.266 . S
In156 O165 2.326 . S
In156 O167 2.294 . S
In156 O168 2.326 . S
O157 In156 2.294 . S
O157 C166 1.240 . S
O158 In156 2.326 . S
O158 C166 1.252 . S
C159 O162 1.252 1_556 S
C159 O163 1.260 1_556 S
C160 O167 1.240 . S
C160 O168 1.252 . S
C161 O164 1.252 . S
C161 O165 1.260 . S
O162 In156 2.266 . S
O162 C159 1.252 1_554 S
O163 In156 2.326 . S
O163 C159 1.260 1_554 S
O164 In156 2.266 . S
O164 C161 1.252 . S
O165 In156 2.326 . S
O165 C161 1.260 . S
C166 O157 1.240 . S
C166 O158 1.252 . S
O167 In156 2.294 . S
O167 C160 1.240 . S
O168 In156 2.326 . S
O168 C160 1.252 . S
In169 O170 2.294 . S
In169 O171 2.326 . S
In169 O175 2.266 . S
In169 O176 2.326 . S
In169 O177 2.266 . S
In169 O178 2.326 1_554 S
In169 O180 2.294 . S
In169 O181 2.326 . S
O170 In169 2.294 . S
O170 C179 1.240 . S
O171 In169 2.326 . S
O171 C179 1.252 . S
C172 O175 1.252 . S
C172 O176 1.260 . S
C173 O180 1.240 . S
C173 O181 1.252 . S
C174 O177 1.252 1_556 S
C174 O178 1.260 . S
O175 In169 2.266 . S
O175 C172 1.252 . S
O176 In169 2.326 . S
O176 C172 1.260 . S
O177 In169 2.266 . S
O177 C174 1.252 1_554 S
O178 In169 2.326 1_556 S
O178 C174 1.260 . S
C179 O170 1.240 . S
C179 O171 1.252 . S
O180 In169 2.294 . S
O180 C173 1.240 . S
O181 In169 2.326 . S
O181 C173 1.252 . S
In182 O183 2.294 . S
In182 O184 2.326 . S
In182 O188 2.266 . S
In182 O189 2.326 . S
In182 O190 2.266 . S
In182 O191 2.326 . S
In182 O193 2.294 . S
In182 O194 2.326 . S
O183 In182 2.294 . S
O183 C192 1.240 . S
O184 In182 2.326 . S
O184 C192 1.252 . S
C185 O188 1.252 . S
C185 O189 1.260 . S
C186 O193 1.240 . S
C186 O194 1.252 . S
C187 O190 1.252 . S
C187 O191 1.260 . S
O188 In182 2.266 . S
O188 C185 1.252 . S
O189 In182 2.326 . S
O189 C185 1.260 . S
O190 In182 2.266 . S
O190 C187 1.252 . S
O191 In182 2.326 . S
O191 C187 1.260 . S
C192 O183 1.240 . S
C192 O184 1.252 . S
O193 In182 2.294 . S
O193 C186 1.240 . S
O194 In182 2.326 . S
O194 C186 1.252 . S
In195 O196 2.294 . S
In195 O197 2.326 . S
In195 O201 2.266 . S
In195 O202 2.326 . S
In195 O203 2.266 . S
In195 O204 2.326 . S
In195 O206 2.294 . S
In195 O207 2.326 . S
O196 In195 2.294 . S
O196 C205 1.240 . S
O197 In195 2.326 . S
O197 C205 1.252 . S
C198 O201 1.252 . S
C198 O202 1.260 . S
C199 O206 1.240 . S
C199 O207 1.252 . S
C200 O203 1.252 . S
C200 O204 1.260 . S
O201 In195 2.266 . S
O201 C198 1.252 . S
O202 In195 2.326 . S
O202 C198 1.260 . S
O203 In195 2.266 . S
O203 C200 1.252 . S
O204 In195 2.326 . S
O204 C200 1.260 . S
C205 O196 1.240 . S
C205 O197 1.252 . S
O206 In195 2.294 . S
O206 C199 1.240 . S
O207 In195 2.326 . S
O207 C199 1.252 . S
In208 O209 2.294 . S
In208 O210 2.326 . S
In208 O214 2.266 . S
In208 O215 2.326 . S
In208 O216 2.266 1_545 S
In208 O217 2.326 1_545 S
In208 O219 2.294 . S
In208 O220 2.326 . S
O209 In208 2.294 . S
O209 C218 1.240 . S
O210 In208 2.326 . S
O210 C218 1.252 . S
C211 O214 1.252 . S
C211 O215 1.260 . S
C212 O219 1.240 . S
C212 O220 1.252 . S
C213 O216 1.252 . S
C213 O217 1.260 . S
O214 In208 2.266 . S
O214 C211 1.252 . S
O215 In208 2.326 . S
O215 C211 1.260 . S
O216 In208 2.266 1_565 S
O216 C213 1.252 . S
O217 In208 2.326 1_565 S
O217 C213 1.260 . S
C218 O209 1.240 . S
C218 O210 1.252 . S
O219 In208 2.294 . S
O219 C212 1.240 . S
O220 In208 2.326 . S
O220 C212 1.252 . S
In221 O222 2.294 . S
In221 O223 2.326 . S
In221 O227 2.266 . S
In221 O228 2.326 . S
In221 O229 2.266 . S
In221 O230 2.326 . S
In221 O232 2.294 . S
In221 O233 2.326 . S
O222 In221 2.294 . S
O222 C231 1.240 . S
O223 In221 2.326 . S
O223 C231 1.252 . S
C224 O227 1.252 . S
C224 O228 1.260 . S
C225 O232 1.240 . S
C225 O233 1.252 . S
C226 O229 1.252 . S
C226 O230 1.260 . S
O227 In221 2.266 . S
O227 C224 1.252 . S
O228 In221 2.326 . S
O228 C224 1.260 . S
O229 In221 2.266 . S
O229 C226 1.252 . S
O230 In221 2.326 . S
O230 C226 1.260 . S
C231 O222 1.240 . S
C231 O223 1.252 . S
O232 In221 2.294 . S
O232 C225 1.240 . S
O233 In221 2.326 . S
O233 C225 1.252 . S
In234 O235 2.294 . S
In234 O236 2.326 . S
In234 O240 2.266 . S
In234 O241 2.326 . S
In234 O242 2.266 . S
In234 O243 2.326 . S
In234 O245 2.294 . S
In234 O246 2.326 . S
O235 In234 2.294 . S
O235 C244 1.240 . S
O236 In234 2.326 . S
O236 C244 1.252 . S
C237 O240 1.252 . S
C237 O241 1.260 . S
C238 O245 1.240 . S
C238 O246 1.252 . S
C239 O242 1.252 . S
C239 O243 1.260 . S
O240 In234 2.266 . S
O240 C237 1.252 . S
O241 In234 2.326 . S
O241 C237 1.260 . S
O242 In234 2.266 . S
O242 C239 1.252 . S
O243 In234 2.326 . S
O243 C239 1.260 . S
C244 O235 1.240 . S
C244 O236 1.252 . S
O245 In234 2.294 . S
O245 C238 1.240 . S
O246 In234 2.326 . S
O246 C238 1.252 . S
In247 O248 2.294 1_545 S
In247 O249 2.326 1_545 S
In247 O253 2.266 . S
In247 O254 2.326 . S
In247 O255 2.266 . S
In247 O256 2.326 . S
In247 O258 2.294 1_545 S
In247 O259 2.327 . S
O248 In247 2.294 1_565 S
O248 C257 1.240 . S
O249 In247 2.326 1_565 S
O249 C257 1.252 . S
C250 O253 1.252 . S
C250 O254 1.260 . S
C251 O258 1.240 . S
C251 O259 1.252 1_565 S
C252 O255 1.252 . S
C252 O256 1.260 . S
O253 In247 2.266 . S
O253 C250 1.252 . S
O254 In247 2.326 . S
O254 C250 1.260 . S
O255 In247 2.266 . S
O255 C252 1.252 . S
O256 In247 2.326 . S
O256 C252 1.260 . S
C257 O248 1.240 . S
C257 O249 1.252 . S
O258 In247 2.294 1_565 S
O258 C251 1.240 . S
O259 In247 2.327 . S
O259 C251 1.252 1_545 S
In260 O261 2.294 . S
In260 O262 2.326 . S
In260 O266 2.266 1_554 S
In260 O267 2.325 1_554 S
In260 O268 2.264 1_554 S
In260 O269 2.322 1_554 S
In260 O271 2.296 . S
In260 O272 2.330 . S
O261 In260 2.294 . S
O261 C270 1.240 . S
O262 In260 2.326 . S
O262 C270 1.252 . S
C263 O266 1.252 . S
C263 O267 1.260 . S
C264 O271 1.240 . S
C264 O272 1.252 . S
C265 O268 1.252 . S
C265 O269 1.260 . S
O266 In260 2.266 1_556 S
O266 C263 1.252 . S
O267 In260 2.325 1_556 S
O267 C263 1.260 . S
O268 In260 2.264 1_556 S
O268 C265 1.252 . S
O269 In260 2.322 1_556 S
O269 C265 1.260 . S
C270 O261 1.240 . S
C270 O262 1.252 . S
O271 In260 2.296 . S
O271 C264 1.240 . S
O272 In260 2.330 . S
O272 C264 1.252 . S
In273 O274 2.294 . S
In273 O275 2.326 . S
In273 O279 2.266 . S
In273 O280 2.326 . S
In273 O281 2.266 . S
In273 O282 2.326 . S
In273 O284 2.294 . S
In273 O285 2.326 . S
O274 In273 2.294 . S
O274 C283 1.240 . S
O275 In273 2.326 . S
O275 C283 1.252 . S
C276 O279 1.252 . S
C276 O280 1.260 . S
C277 O284 1.240 . S
C277 O285 1.252 . S
C278 O281 1.252 . S
C278 O282 1.260 . S
O279 In273 2.266 . S
O279 C276 1.252 . S
O280 In273 2.326 . S
O280 C276 1.260 . S
O281 In273 2.266 . S
O281 C278 1.252 . S
O282 In273 2.326 . S
O282 C278 1.260 . S
C283 O274 1.240 . S
C283 O275 1.252 . S
O284 In273 2.294 . S
O284 C277 1.240 . S
O285 In273 2.326 . S
O285 C277 1.252 . S
In286 O287 2.294 . S
In286 O288 2.326 . S
In286 O292 2.266 . S
In286 O293 2.326 . S
In286 O294 2.266 . S
In286 O295 2.326 . S
In286 O297 2.294 . S
In286 O298 2.326 . S
O287 In286 2.294 . S
O287 C296 1.240 . S
O288 In286 2.326 . S
O288 C296 1.252 . S
C289 O292 1.252 . S
C289 O293 1.260 . S
C290 O297 1.240 . S
C290 O298 1.252 . S
C291 O294 1.252 . S
C291 O295 1.260 . S
O292 In286 2.266 . S
O292 C289 1.252 . S
O293 In286 2.326 . S
O293 C289 1.260 . S
O294 In286 2.266 . S
O294 C291 1.252 . S
O295 In286 2.326 . S
O295 C291 1.260 . S
C296 O287 1.240 . S
C296 O288 1.252 . S
O297 In286 2.294 . S
O297 C290 1.240 . S
O298 In286 2.326 . S
O298 C290 1.252 . S
In299 O300 2.294 . S
In299 O301 2.326 . S
In299 O305 2.266 . S
In299 O306 2.326 . S
In299 O307 2.266 . S
In299 O308 2.326 . S
In299 O310 2.294 . S
In299 O311 2.326 . S
O300 In299 2.294 . S
O300 C309 1.240 . S
O301 In299 2.326 . S
O301 C309 1.252 . S
C302 O305 1.252 . S
C302 O306 1.260 . S
C303 O310 1.240 . S
C303 O311 1.252 . S
C304 O307 1.252 . S
C304 O308 1.260 . S
O305 In299 2.266 . S
O305 C302 1.252 . S
O306 In299 2.326 . S
O306 C302 1.260 . S
O307 In299 2.266 . S
O307 C304 1.252 . S
O308 In299 2.326 . S
O308 C304 1.260 . S
C309 O300 1.240 . S
C309 O301 1.252 . S
O310 In299 2.294 . S
O310 C303 1.240 . S
O311 In299 2.326 . S
O311 C303 1.252 . S
Zn312 O318 1.969 . S
Zn312 O319 1.965 . S
Zn312 O323 2.024 1_545 S
Zn312 O328 1.969 . S
Zn313 O320 1.979 . S
Zn313 O326 1.969 1_455 S
Zn313 O327 1.965 . S
Zn313 O329 2.024 . S
C314 O315 1.229 . S
C314 O323 1.058 . S
O315 C314 1.229 . S
C316 O317 1.229 . S
C316 O329 1.058 . S
O317 C316 1.229 . S
O318 Zn312 1.969 . S
O318 C321 1.267 . S
O319 Zn312 1.965 . S
O319 C330 1.260 . S
O320 Zn313 1.979 . S
O320 C330 1.259 . S
C321 O318 1.267 . S
C321 O322 1.228 1_545 S
O322 C321 1.228 1_565 S
O323 Zn312 2.024 1_565 S
O323 C314 1.058 . S
C324 O325 1.228 . S
C324 O326 1.267 . S
O325 C324 1.228 . S
O326 Zn313 1.969 1_655 S
O326 C324 1.267 . S
O327 Zn313 1.965 . S
O327 C331 1.260 . S
O328 Zn312 1.969 . S
O328 C331 1.258 . S
O329 Zn313 2.024 . S
O329 C316 1.058 . S
C330 O319 1.260 . S
C330 O320 1.259 . S
C331 O327 1.260 . S
C331 O328 1.258 . S
Zn332 O338 1.969 . S
Zn332 O339 1.965 . S
Zn332 O343 2.024 . S
Zn332 O348 1.969 . S
Zn333 O340 1.969 . S
Zn333 O346 1.969 . S
Zn333 O347 1.965 . S
Zn333 O349 2.024 . S
C334 O335 1.229 . S
C334 O343 1.058 . S
O335 C334 1.229 . S
C336 O337 1.229 . S
C336 O349 1.058 . S
O337 C336 1.229 . S
O338 Zn332 1.969 . S
O338 C341 1.267 . S
O339 Zn332 1.965 . S
O339 C350 1.260 . S
O340 Zn333 1.969 . S
O340 C350 1.258 . S
C341 O338 1.267 . S
C341 O342 1.228 . S
O342 C341 1.228 . S
O343 Zn332 2.024 . S
O343 C334 1.058 . S
C344 O345 1.228 . S
C344 O346 1.267 . S
O345 C344 1.228 . S
O346 Zn333 1.969 . S
O346 C344 1.267 . S
O347 Zn333 1.965 . S
O347 C351 1.260 . S
O348 Zn332 1.969 . S
O348 C351 1.258 . S
O349 Zn333 2.024 . S
O349 C336 1.058 . S
C350 O339 1.260 . S
C350 O340 1.258 . S
C351 O347 1.260 . S
C351 O348 1.258 . S
Zn352 O358 1.969 . S
Zn352 O359 1.965 . S
Zn352 O363 2.024 . S
Zn352 O368 1.969 . S
Zn353 O360 1.969 . S
Zn353 O366 1.969 . S
Zn353 O367 1.960 1_565 S
Zn353 O369 2.024 . S
C354 O355 1.229 . S
C354 O363 1.058 . S
O355 C354 1.229 . S
C356 O357 1.229 . S
C356 O369 1.058 . S
O357 C356 1.229 . S
O358 Zn352 1.969 . S
O358 C361 1.267 . S
O359 Zn352 1.965 . S
O359 C370 1.260 . S
O360 Zn353 1.969 . S
O360 C370 1.258 1_565 S
C361 O358 1.267 . S
C361 O362 1.228 . S
O362 C361 1.228 . S
O363 Zn352 2.024 . S
O363 C354 1.058 . S
C364 O365 1.228 . S
C364 O366 1.267 . S
O365 C364 1.228 . S
O366 Zn353 1.969 . S
O366 C364 1.267 . S
O367 Zn353 1.960 1_545 S
O367 C371 1.261 . S
O368 Zn352 1.969 . S
O368 C371 1.258 . S
O369 Zn353 2.024 . S
O369 C356 1.058 . S
C370 O359 1.260 . S
C370 O360 1.258 1_545 S
C371 O367 1.261 . S
C371 O368 1.258 . S
Zn372 O378 1.969 . S
Zn372 O379 1.965 . S
Zn372 O383 2.024 . S
Zn372 O388 1.969 . S
Zn373 O380 1.969 . S
Zn373 O386 1.969 . S
Zn373 O387 1.965 . S
Zn373 O389 2.024 . S
C374 O375 1.229 . S
C374 O383 1.058 . S
O375 C374 1.229 . S
C376 O377 1.229 . S
C376 O389 1.058 . S
O377 C376 1.229 . S
O378 Zn372 1.969 . S
O378 C381 1.267 . S
O379 Zn372 1.965 . S
O379 C390 1.260 . S
O380 Zn373 1.969 . S
O380 C390 1.258 . S
C381 O378 1.267 . S
C381 O382 1.228 . S
O382 C381 1.228 . S
O383 Zn372 2.024 . S
O383 C374 1.058 . S
C384 O385 1.228 . S
C384 O386 1.267 . S
O385 C384 1.228 . S
O386 Zn373 1.969 . S
O386 C384 1.267 . S
O387 Zn373 1.965 . S
O387 C391 1.260 . S
O388 Zn372 1.969 . S
O388 C391 1.258 . S
O389 Zn373 2.024 . S
O389 C376 1.058 . S
C390 O379 1.260 . S
C390 O380 1.258 . S
C391 O387 1.260 . S
C391 O388 1.258 . S
Zn392 O398 1.969 . S
Zn392 O399 1.965 . S
Zn392 O403 2.024 1_565 S
Zn392 O408 1.969 1_565 S
Zn393 O400 1.969 1_455 S
Zn393 O406 1.969 . S
Zn393 O407 1.965 . S
Zn393 O409 2.024 . S
C394 O395 1.229 1_545 S
C394 O403 1.058 . S
O395 C394 1.229 1_565 S
C396 O397 1.229 1_455 S
C396 O409 1.058 . S
O397 C396 1.229 1_655 S
O398 Zn392 1.969 . S
O398 C401 1.267 . S
O399 Zn392 1.965 . S
O399 C410 1.260 1_455 S
O400 Zn393 1.969 1_655 S
O400 C410 1.258 1_545 S
C401 O398 1.267 . S
C401 O402 1.228 . S
O402 C401 1.228 . S
O403 Zn392 2.024 1_545 S
O403 C394 1.058 . S
C404 O405 1.228 . S
C404 O406 1.267 . S
O405 C404 1.228 . S
O406 Zn393 1.969 . S
O406 C404 1.267 . S
O407 Zn393 1.965 . S
O407 C411 1.260 . S
O408 Zn392 1.969 1_545 S
O408 C411 1.258 . S
O409 Zn393 2.024 . S
O409 C396 1.058 . S
C410 O399 1.260 1_655 S
C410 O400 1.258 1_565 S
C411 O407 1.260 . S
C411 O408 1.258 . S
Zn412 O418 1.969 . S
Zn412 O419 1.965 . S
Zn412 O423 2.024 . S
Zn412 O428 1.969 . S
Zn413 O420 1.969 . S
Zn413 O426 1.969 . S
Zn413 O427 1.965 . S
Zn413 O429 2.024 . S
C414 O415 1.229 . S
C414 O423 1.058 . S
O415 C414 1.229 . S
C416 O417 1.229 . S
C416 O429 1.058 . S
O417 C416 1.229 . S
O418 Zn412 1.969 . S
O418 C421 1.267 . S
O419 Zn412 1.965 . S
O419 C430 1.260 . S
O420 Zn413 1.969 . S
O420 C430 1.258 . S
C421 O418 1.267 . S
C421 O422 1.228 . S
O422 C421 1.228 . S
O423 Zn412 2.024 . S
O423 C414 1.058 . S
C424 O425 1.228 . S
C424 O426 1.267 . S
O425 C424 1.228 . S
O426 Zn413 1.969 . S
O426 C424 1.267 . S
O427 Zn413 1.965 . S
O427 C431 1.260 . S
O428 Zn412 1.969 . S
O428 C431 1.258 . S
O429 Zn413 2.024 . S
O429 C416 1.058 . S
C430 O419 1.260 . S
C430 O420 1.258 . S
C431 O427 1.260 . S
C431 O428 1.258 . S
Zn432 O438 1.969 . S
Zn432 O439 1.965 . S
Zn432 O443 2.024 1_556 S
Zn432 O448 1.969 1_556 S
Zn433 O440 1.969 1_545 S
Zn433 O446 1.969 . S
Zn433 O447 1.965 . S
Zn433 O449 2.024 . S
C434 O435 1.229 1_554 S
C434 O443 1.058 . S
O435 C434 1.229 1_556 S
C436 O437 1.256 . S
C436 O449 1.034 1_565 S
O437 C436 1.256 . S
O438 Zn432 1.969 . S
O438 C441 1.267 . S
O439 Zn432 1.965 . S
O439 C450 1.260 1_545 S
O440 Zn433 1.969 1_565 S
O440 C450 1.258 1_554 S
C441 O438 1.267 . S
C441 O442 1.228 . S
O442 C441 1.228 . S
O443 Zn432 2.024 1_554 S
O443 C434 1.058 . S
C444 O445 1.228 . S
C444 O446 1.267 . S
O445 C444 1.228 . S
O446 Zn433 1.969 . S
O446 C444 1.267 . S
O447 Zn433 1.965 . S
O447 C451 1.260 . S
O448 Zn432 1.969 1_554 S
O448 C451 1.258 . S
O449 Zn433 2.024 . S
O449 C436 1.034 1_545 S
C450 O439 1.260 1_565 S
C450 O440 1.258 1_556 S
C451 O447 1.260 . S
C451 O448 1.258 . S
Zn452 O458 1.969 . S
Zn452 O459 1.965 . S
Zn452 O463 2.024 . S
Zn452 O468 1.969 . S
Zn453 O460 1.969 . S
Zn453 O466 1.969 . S
Zn453 O467 1.965 . S
Zn453 O469 2.024 . S
C454 O455 1.229 . S
C454 O463 1.058 . S
O455 C454 1.229 . S
C456 O457 1.229 . S
C456 O469 1.058 . S
O457 C456 1.229 . S
O458 Zn452 1.969 . S
O458 C461 1.267 . S
O459 Zn452 1.965 . S
O459 C470 1.260 . S
O460 Zn453 1.969 . S
O460 C470 1.258 . S
C461 O458 1.267 . S
C461 O462 1.228 . S
O462 C461 1.228 . S
O463 Zn452 2.024 . S
O463 C454 1.058 . S
C464 O465 1.228 . S
C464 O466 1.267 . S
O465 C464 1.228 . S
O466 Zn453 1.969 . S
O466 C464 1.267 . S
O467 Zn453 1.965 . S
O467 C471 1.260 . S
O468 Zn452 1.969 . S
O468 C471 1.258 . S
O469 Zn453 2.024 . S
O469 C456 1.058 . S
C470 O459 1.260 . S
C470 O460 1.258 . S
C471 O467 1.260 . S
C471 O468 1.258 . S
Zn472 O478 1.969 . S
Zn472 O479 1.965 . S
Zn472 O483 2.024 . S
Zn472 O488 1.969 . S
Zn473 O480 1.969 1_556 S
Zn473 O486 1.969 . S
Zn473 O487 1.965 1_556 S
Zn473 O489 2.024 . S
C474 O475 1.229 . S
C474 O483 1.058 . S
O475 C474 1.229 . S
C476 O477 1.229 . S
C476 O489 1.058 . S
O477 C476 1.229 . S
O478 Zn472 1.969 . S
O478 C481 1.267 . S
O479 Zn472 1.965 . S
O479 C490 1.260 . S
O480 Zn473 1.969 1_554 S
O480 C490 1.258 . S
C481 O478 1.267 . S
C481 O482 1.228 . S
O482 C481 1.228 . S
O483 Zn472 2.024 . S
O483 C474 1.058 . S
C484 O485 1.228 . S
C484 O486 1.267 . S
O485 C484 1.228 . S
O486 Zn473 1.969 . S
O486 C484 1.267 . S
O487 Zn473 1.965 1_554 S
O487 C491 1.260 . S
O488 Zn472 1.969 . S
O488 C491 1.258 . S
O489 Zn473 2.024 . S
O489 C476 1.058 . S
C490 O479 1.260 . S
C490 O480 1.258 . S
C491 O487 1.260 . S
C491 O488 1.258 . S
Zn492 O498 1.969 . S
Zn492 O499 1.965 . S
Zn492 O503 2.024 . S
Zn492 O508 1.969 . S
Zn493 O500 1.969 . S
Zn493 O506 1.969 . S
Zn493 O507 1.965 . S
Zn493 O509 2.024 . S
C494 O495 1.229 . S
C494 O503 1.058 . S
O495 C494 1.229 . S
C496 O497 1.229 . S
C496 O509 1.058 . S
O497 C496 1.229 . S
O498 Zn492 1.969 . S
O498 C501 1.267 . S
O499 Zn492 1.965 . S
O499 C510 1.260 . S
O500 Zn493 1.969 . S
O500 C510 1.258 . S
C501 O498 1.267 . S
C501 O502 1.228 . S
O502 C501 1.228 . S
O503 Zn492 2.024 . S
O503 C494 1.058 . S
C504 O505 1.228 . S
C504 O506 1.267 . S
O505 C504 1.228 . S
O506 Zn493 1.969 . S
O506 C504 1.267 . S
O507 Zn493 1.965 . S
O507 C511 1.260 . S
O508 Zn492 1.969 . S
O508 C511 1.258 . S
O509 Zn493 2.024 . S
O509 C496 1.058 . S
C510 O499 1.260 . S
C510 O500 1.258 . S
C511 O507 1.260 . S
C511 O508 1.258 . S
Zn512 O518 1.969 . S
Zn512 O519 1.965 . S
Zn512 O523 2.024 . S
Zn512 O528 1.969 . S
Zn513 O520 1.969 . S
Zn513 O526 1.969 . S
Zn513 O527 1.965 1_655 S
Zn513 O529 2.024 . S
C514 O515 1.229 . S
C514 O523 1.058 . S
O515 C514 1.229 . S
C516 O517 1.229 . S
C516 O529 1.058 . S
O517 C516 1.229 . S
O518 Zn512 1.969 . S
O518 C521 1.267 . S
O519 Zn512 1.965 . S
O519 C530 1.260 . S
O520 Zn513 1.969 . S
O520 C530 1.258 1_655 S
C521 O518 1.267 . S
C521 O522 1.228 . S
O522 C521 1.228 . S
O523 Zn512 2.024 . S
O523 C514 1.058 . S
C524 O525 1.228 . S
C524 O526 1.267 . S
O525 C524 1.228 . S
O526 Zn513 1.969 . S
O526 C524 1.267 . S
O527 Zn513 1.965 1_455 S
O527 C531 1.260 . S
O528 Zn512 1.969 . S
O528 C531 1.258 . S
O529 Zn513 2.024 . S
O529 C516 1.058 . S
C530 O519 1.260 . S
C530 O520 1.258 1_455 S
C531 O527 1.260 . S
C531 O528 1.258 . S
Zn532 O538 1.969 . S
Zn532 O539 1.965 . S
Zn532 O543 2.024 . S
Zn532 O548 1.969 . S
Zn533 O540 1.969 . S
Zn533 O546 1.969 . S
Zn533 O547 1.965 . S
Zn533 O549 2.024 . S
C534 O535 1.229 . S
C534 O543 1.058 . S
O535 C534 1.229 . S
C536 O537 1.229 . S
C536 O549 1.058 . S
O537 C536 1.229 . S
O538 Zn532 1.969 . S
O538 C541 1.267 . S
O539 Zn532 1.965 . S
O539 C550 1.260 . S
O540 Zn533 1.969 . S
O540 C550 1.258 . S
C541 O538 1.267 . S
C541 O542 1.228 . S
O542 C541 1.228 . S
O543 Zn532 2.024 . S
O543 C534 1.058 . S
C544 O545 1.228 . S
C544 O546 1.267 . S
O545 C544 1.228 . S
O546 Zn533 1.969 . S
O546 C544 1.267 . S
O547 Zn533 1.965 . S
O547 C551 1.260 . S
O548 Zn532 1.969 . S
O548 C551 1.258 . S
O549 Zn533 2.024 . S
O549 C536 1.058 . S
C550 O539 1.260 . S
C550 O540 1.258 . S
C551 O547 1.260 . S
C551 O548 1.258 . S
Zn552 O558 1.969 . S
Zn552 O559 1.965 . S
Zn552 O563 2.024 . S
Zn552 O568 1.969 . S
Zn553 O560 1.969 . S
Zn553 O566 1.969 . S
Zn553 O567 1.965 . S
Zn553 O569 2.024 . S
C554 O555 1.229 . S
C554 O563 1.058 . S
O555 C554 1.229 . S
C556 O557 1.229 . S
C556 O569 1.058 . S
O557 C556 1.229 . S
O558 Zn552 1.969 . S
O558 C561 1.267 . S
O559 Zn552 1.965 . S
O559 C570 1.260 . S
O560 Zn553 1.969 . S
O560 C570 1.258 . S
C561 O558 1.267 . S
C561 O562 1.228 . S
O562 C561 1.228 . S
O563 Zn552 2.024 . S
O563 C554 1.058 . S
C564 O565 1.228 . S
C564 O566 1.267 . S
O565 C564 1.228 . S
O566 Zn553 1.969 . S
O566 C564 1.267 . S
O567 Zn553 1.965 . S
O567 C571 1.260 . S
O568 Zn552 1.969 . S
O568 C571 1.258 . S
O569 Zn553 2.024 . S
O569 C556 1.058 . S
C570 O559 1.260 . S
C570 O560 1.258 . S
C571 O567 1.260 . S
C571 O568 1.258 . S
Zn572 O578 1.969 . S
Zn572 O579 1.965 . S
Zn572 O583 2.024 . S
Zn572 O588 1.969 . S
Zn573 O580 1.969 . S
Zn573 O586 1.969 . S
Zn573 O587 1.965 . S
Zn573 O589 2.024 . S
C574 O575 1.229 . S
C574 O583 1.058 . S
O575 C574 1.229 . S
C576 O577 1.229 . S
C576 O589 1.058 . S
O577 C576 1.229 . S
O578 Zn572 1.969 . S
O578 C581 1.267 . S
O579 Zn572 1.965 . S
O579 C590 1.260 . S
O580 Zn573 1.969 . S
O580 C590 1.258 . S
C581 O578 1.267 . S
C581 O582 1.228 . S
O582 C581 1.228 . S
O583 Zn572 2.024 . S
O583 C574 1.058 . S
C584 O585 1.228 . S
C584 O586 1.267 . S
O585 C584 1.228 . S
O586 Zn573 1.969 . S
O586 C584 1.267 . S
O587 Zn573 1.965 . S
O587 C591 1.260 . S
O588 Zn572 1.969 . S
O588 C591 1.258 . S
O589 Zn573 2.024 . S
O589 C576 1.058 . S
C590 O579 1.260 . S
C590 O580 1.258 . S
C591 O587 1.260 . S
C591 O588 1.258 . S
Zn592 O598 1.969 . S
Zn592 O599 1.965 . S
Zn592 O603 2.024 . S
Zn592 O608 1.969 . S
Zn593 O600 1.969 . S
Zn593 O606 1.969 . S
Zn593 O607 1.965 . S
Zn593 O609 2.024 . S
C594 O595 1.229 . S
C594 O603 1.058 . S
O595 C594 1.229 . S
C596 O597 1.229 . S
C596 O609 1.058 . S
O597 C596 1.229 . S
O598 Zn592 1.969 . S
O598 C601 1.267 . S
O599 Zn592 1.965 . S
O599 C610 1.260 . S
O600 Zn593 1.969 . S
O600 C610 1.258 . S
C601 O598 1.267 . S
C601 O602 1.228 . S
O602 C601 1.228 . S
O603 Zn592 2.024 . S
O603 C594 1.058 . S
C604 O605 1.228 . S
C604 O606 1.267 . S
O605 C604 1.228 . S
O606 Zn593 1.969 . S
O606 C604 1.267 . S
O607 Zn593 1.965 . S
O607 C611 1.260 . S
O608 Zn592 1.969 . S
O608 C611 1.258 . S
O609 Zn593 2.024 . S
O609 C596 1.058 . S
C610 O599 1.260 . S
C610 O600 1.258 . S
C611 O607 1.260 . S
C611 O608 1.258 . S
Zn612 O618 1.969 . S
Zn612 O619 1.965 . S
Zn612 O623 2.024 1_655 S
Zn612 O628 1.969 1_655 S
Zn613 O620 1.969 1_554 S
Zn613 O626 1.969 . S
Zn613 O627 1.965 . S
Zn613 O629 2.024 . S
C614 O615 1.229 1_455 S
C614 O623 1.058 . S
O615 C614 1.229 1_655 S
C616 O617 1.229 1_554 S
C616 O629 1.058 . S
O617 C616 1.229 1_556 S
O618 Zn612 1.969 . S
O618 C621 1.267 . S
O619 Zn612 1.965 . S
O619 C630 1.260 1_554 S
O620 Zn613 1.969 1_556 S
O620 C630 1.258 1_455 S
C621 O618 1.267 . S
C621 O622 1.228 . S
O622 C621 1.228 . S
O623 Zn612 2.024 1_455 S
O623 C614 1.058 . S
C624 O625 1.228 . S
C624 O626 1.267 . S
O625 C624 1.228 . S
O626 Zn613 1.969 . S
O626 C624 1.267 . S
O627 Zn613 1.965 . S
O627 C631 1.260 . S
O628 Zn612 1.969 1_455 S
O628 C631 1.258 . S
O629 Zn613 2.024 . S
O629 C616 1.058 . S
C630 O619 1.260 1_556 S
C630 O620 1.258 1_655 S
C631 O627 1.260 . S
C631 O628 1.258 . S
H632 C644 0.930 . S
H633 C646 0.930 1_655 S
H634 C647 0.930 1_655 S
H635 C651 0.948 1_556 S
H636 C651 0.979 . S
H637 C651 0.955 1_556 S
H638 C652 0.960 . S
H639 C652 0.961 . S
H640 C652 0.965 . S
H641 C655 0.929 . S
H642 C656 0.931 . S
H643 C658 0.930 . S
C644 H632 0.930 . S
C644 C645 1.399 . S
C644 C649 1.399 . S
C645 C644 1.399 . S
C645 C646 1.376 . S
C646 H633 0.930 1_455 S
C646 C645 1.376 . S
C646 C647 1.388 . S
C647 H634 0.930 1_455 S
C647 C646 1.388 . S
C647 C648 1.390 . S
C648 C647 1.390 . S
C648 C649 1.394 . S
C648 C654 1.465 . S
C649 C644 1.399 . S
C649 C648 1.394 . S
C649 C650 1.516 . S
C650 C649 1.516 . S
C650 C651 1.499 1_556 S
C650 C652 1.561 1_556 S
C650 C653 1.526 . S
C651 H635 0.948 1_554 S
C651 H636 0.979 . S
C651 H637 0.955 1_554 S
C651 C650 1.499 1_554 S
C652 H638 0.960 . S
C652 H639 0.961 . S
C652 H640 0.965 . S
C652 C650 1.561 1_554 S
C653 C650 1.526 . S
C653 C654 1.396 . S
C653 C658 1.390 1_556 S
C654 C648 1.465 . S
C654 C653 1.396 . S
C654 C655 1.399 . S
C655 H641 0.929 . S
C655 C654 1.399 . S
C655 C656 1.385 . S
C656 H642 0.931 . S
C656 C655 1.385 . S
C656 C657 1.389 1_556 S
C657 C656 1.389 1_554 S
C657 C658 1.387 . S
C658 H643 0.930 . S
C658 C653 1.390 1_554 S
C658 C657 1.387 . S
H659 C671 0.930 . S
H660 C673 0.930 . S
H661 C674 0.930 . S
H662 C678 0.959 . S
H663 C678 0.959 . S
H664 C678 0.961 . S
H665 C679 0.960 . S
H666 C679 0.961 . S
H667 C679 0.959 . S
H668 C682 0.929 . S
H669 C683 0.931 . S
H670 C685 0.930 . S
C671 H659 0.930 . S
C671 C672 1.399 . S
C671 C676 1.399 . S
C672 C671 1.399 . S
C672 C673 1.376 . S
C673 H660 0.930 . S
C673 C672 1.376 . S
C673 C674 1.388 . S
C674 H661 0.930 . S
C674 C673 1.388 . S
C674 C675 1.390 . S
C675 C674 1.390 . S
C675 C676 1.394 . S
C675 C681 1.465 . S
C676 C671 1.399 . S
C676 C675 1.394 . S
C676 C677 1.516 . S
C677 C676 1.516 . S
C677 C678 1.502 . S
C677 C679 1.561 . S
C677 C680 1.526 . S
C678 H662 0.959 . S
C678 H663 0.959 . S
C678 H664 0.961 . S
C678 C677 1.502 . S
C679 H665 0.960 . S
C679 H666 0.961 . S
C679 H667 0.959 . S
C679 C677 1.561 . S
C680 C677 1.526 . S
C680 C681 1.396 . S
C680 C685 1.390 . S
C681 C675 1.465 . S
C681 C680 1.396 . S
C681 C682 1.399 . S
C682 H668 0.929 . S
C682 C681 1.399 . S
C682 C683 1.385 . S
C683 H669 0.931 . S
C683 C682 1.385 . S
C683 C684 1.389 . S
C684 C683 1.389 . S
C684 C685 1.387 . S
C685 H670 0.930 . S
C685 C680 1.390 . S
C685 C684 1.387 . S
H686 C698 0.930 . S
H687 C700 0.930 . S
H688 C701 0.930 . S
H689 C705 0.959 . S
H690 C705 0.959 . S
H691 C705 0.961 . S
H692 C706 0.960 . S
H693 C706 0.961 . S
H694 C706 0.959 . S
H695 C709 0.929 . S
H696 C710 0.931 . S
H697 C712 0.930 . S
C698 H686 0.930 . S
C698 C699 1.399 . S
C698 C703 1.399 . S
C699 C698 1.399 . S
C699 C700 1.376 . S
C700 H687 0.930 . S
C700 C699 1.376 . S
C700 C701 1.388 . S
C701 H688 0.930 . S
C701 C700 1.388 . S
C701 C702 1.390 . S
C702 C701 1.390 . S
C702 C703 1.394 . S
C702 C708 1.465 . S
C703 C698 1.399 . S
C703 C702 1.394 . S
C703 C704 1.516 . S
C704 C703 1.516 . S
C704 C705 1.502 . S
C704 C706 1.561 . S
C704 C707 1.526 . S
C705 H689 0.959 . S
C705 H690 0.959 . S
C705 H691 0.961 . S
C705 C704 1.502 . S
C706 H692 0.960 . S
C706 H693 0.961 . S
C706 H694 0.959 . S
C706 C704 1.561 . S
C707 C704 1.526 . S
C707 C708 1.396 . S
C707 C712 1.390 . S
C708 C702 1.465 . S
C708 C707 1.396 . S
C708 C709 1.399 . S
C709 H695 0.929 . S
C709 C708 1.399 . S
C709 C710 1.385 . S
C710 H696 0.931 . S
C710 C709 1.385 . S
C710 C711 1.389 . S
C711 C710 1.389 . S
C711 C712 1.387 . S
C712 H697 0.930 . S
C712 C707 1.390 . S
C712 C711 1.387 . S
H713 C725 0.930 . S
H714 C727 0.930 . S
H715 C728 0.930 . S
H716 C732 0.959 . S
H717 C732 0.959 . S
H718 C732 0.961 . S
H719 C733 0.960 . S
H720 C733 0.961 . S
H721 C733 0.959 . S
H722 C736 0.929 . S
H723 C737 0.931 . S
H724 C739 0.930 . S
C725 H713 0.930 . S
C725 C726 1.399 . S
C725 C730 1.399 . S
C726 C725 1.399 . S
C726 C727 1.376 . S
C727 H714 0.930 . S
C727 C726 1.376 . S
C727 C728 1.388 . S
C728 H715 0.930 . S
C728 C727 1.388 . S
C728 C729 1.390 . S
C729 C728 1.390 . S
C729 C730 1.394 . S
C729 C735 1.465 . S
C730 C725 1.399 . S
C730 C729 1.394 . S
C730 C731 1.516 . S
C731 C730 1.516 . S
C731 C732 1.502 . S
C731 C733 1.561 . S
C731 C734 1.526 . S
C732 H716 0.959 . S
C732 H717 0.959 . S
C732 H718 0.961 . S
C732 C731 1.502 . S
C733 H719 0.960 . S
C733 H720 0.961 . S
C733 H721 0.959 . S
C733 C731 1.561 . S
C734 C731 1.526 . S
C734 C735 1.396 . S
C734 C739 1.390 . S
C735 C729 1.465 . S
C735 C734 1.396 . S
C735 C736 1.399 . S
C736 H722 0.929 . S
C736 C735 1.399 . S
C736 C737 1.385 . S
C737 H723 0.931 . S
C737 C736 1.385 . S
C737 C738 1.389 . S
C738 C737 1.389 . S
C738 C739 1.387 . S
C739 H724 0.930 . S
C739 C734 1.390 . S
C739 C738 1.387 . S
H740 C752 0.930 . S
H741 C754 0.930 . S
H742 C755 0.930 . S
H743 C759 0.959 . S
H744 C759 0.959 . S
H745 C759 0.961 . S
H746 C760 0.960 . S
H747 C760 0.961 . S
H748 C760 0.959 . S
H749 C763 0.929 . S
H750 C764 0.931 . S
H751 C766 0.930 . S
C752 H740 0.930 . S
C752 C753 1.399 . S
C752 C757 1.399 . S
C753 C752 1.399 . S
C753 C754 1.376 . S
C754 H741 0.930 . S
C754 C753 1.376 . S
C754 C755 1.388 . S
C755 H742 0.930 . S
C755 C754 1.388 . S
C755 C756 1.390 . S
C756 C755 1.390 . S
C756 C757 1.394 . S
C756 C762 1.465 . S
C757 C752 1.399 . S
C757 C756 1.394 . S
C757 C758 1.516 . S
C758 C757 1.516 . S
C758 C759 1.502 1_455 S
C758 C760 1.561 . S
C758 C761 1.526 . S
C759 H743 0.959 . S
C759 H744 0.959 . S
C759 H745 0.961 . S
C759 C758 1.502 1_655 S
C760 H746 0.960 . S
C760 H747 0.961 . S
C760 H748 0.959 . S
C760 C758 1.561 . S
C761 C758 1.526 . S
C761 C762 1.396 . S
C761 C766 1.390 . S
C762 C756 1.465 . S
C762 C761 1.396 . S
C762 C763 1.399 . S
C763 H749 0.929 . S
C763 C762 1.399 . S
C763 C764 1.385 . S
C764 H750 0.931 . S
C764 C763 1.385 . S
C764 C765 1.389 . S
C765 C764 1.389 . S
C765 C766 1.387 . S
C766 H751 0.930 . S
C766 C761 1.390 . S
C766 C765 1.387 . S
H767 C779 0.930 . S
H768 C781 0.930 . S
H769 C782 0.930 . S
H770 C786 0.959 . S
H771 C786 0.959 . S
H772 C786 0.961 . S
H773 C787 0.960 . S
H774 C787 0.961 . S
H775 C787 0.959 . S
H776 C790 0.929 . S
H777 C791 0.931 . S
H778 C793 0.930 . S
C779 H767 0.930 . S
C779 C780 1.399 . S
C779 C784 1.399 . S
C780 C779 1.399 . S
C780 C781 1.376 . S
C781 H768 0.930 . S
C781 C780 1.376 . S
C781 C782 1.388 . S
C782 H769 0.930 . S
C782 C781 1.388 . S
C782 C783 1.390 . S
C783 C782 1.390 . S
C783 C784 1.394 . S
C783 C789 1.465 . S
C784 C779 1.399 . S
C784 C783 1.394 . S
C784 C785 1.516 . S
C785 C784 1.516 . S
C785 C786 1.502 . S
C785 C787 1.561 . S
C785 C788 1.526 . S
C786 H770 0.959 . S
C786 H771 0.959 . S
C786 H772 0.961 . S
C786 C785 1.502 . S
C787 H773 0.960 . S
C787 H774 0.961 . S
C787 H775 0.959 . S
C787 C785 1.561 . S
C788 C785 1.526 . S
C788 C789 1.396 . S
C788 C793 1.390 . S
C789 C783 1.465 . S
C789 C788 1.396 . S
C789 C790 1.399 . S
C790 H776 0.929 . S
C790 C789 1.399 . S
C790 C791 1.385 . S
C791 H777 0.931 . S
C791 C790 1.385 . S
C791 C792 1.389 . S
C792 C791 1.389 . S
C792 C793 1.387 . S
C793 H778 0.930 . S
C793 C788 1.390 . S
C793 C792 1.387 . S
H794 C806 0.930 . S
H795 C808 0.930 . S
H796 C809 0.930 . S
H797 C813 0.959 . S
H798 C813 0.959 . S
H799 C813 0.961 . S
H800 C814 0.960 . S
H801 C814 0.961 . S
H802 C814 0.959 . S
H803 C817 0.929 . S
H804 C818 0.931 . S
H805 C820 0.930 . S
C806 H794 0.930 . S
C806 C807 1.399 . S
C806 C811 1.399 . S
C807 C806 1.399 . S
C807 C808 1.376 . S
C808 H795 0.930 . S
C808 C807 1.376 . S
C808 C809 1.388 . S
C809 H796 0.930 . S
C809 C808 1.388 . S
C809 C810 1.390 . S
C810 C809 1.390 . S
C810 C811 1.394 . S
C810 C816 1.465 . S
C811 C806 1.399 . S
C811 C810 1.394 . S
C811 C812 1.516 . S
C812 C811 1.516 . S
C812 C813 1.502 . S
C812 C814 1.561 . S
C812 C815 1.526 . S
C813 H797 0.959 . S
C813 H798 0.959 . S
C813 H799 0.961 . S
C813 C812 1.502 . S
C814 H800 0.960 . S
C814 H801 0.961 . S
C814 H802 0.959 . S
C814 C812 1.561 . S
C815 C812 1.526 . S
C815 C816 1.396 . S
C815 C820 1.390 . S
C816 C810 1.465 . S
C816 C815 1.396 . S
C816 C817 1.399 . S
C817 H803 0.929 . S
C817 C816 1.399 . S
C817 C818 1.385 . S
C818 H804 0.931 . S
C818 C817 1.385 . S
C818 C819 1.389 . S
C819 C818 1.389 . S
C819 C820 1.387 . S
C820 H805 0.930 . S
C820 C815 1.390 . S
C820 C819 1.387 . S
H821 C833 0.930 . S
H822 C835 0.930 . S
H823 C836 0.930 . S
H824 C840 0.959 . S
H825 C840 0.959 . S
H826 C840 0.961 . S
H827 C841 0.960 . S
H828 C841 0.961 . S
H829 C841 0.959 . S
H830 C844 0.929 . S
H831 C845 0.931 . S
H832 C847 0.930 . S
C833 H821 0.930 . S
C833 C834 1.399 . S
C833 C838 1.399 . S
C834 C833 1.399 . S
C834 C835 1.376 . S
C835 H822 0.930 . S
C835 C834 1.376 . S
C835 C836 1.388 . S
C836 H823 0.930 . S
C836 C835 1.388 . S
C836 C837 1.390 . S
C837 C836 1.390 . S
C837 C838 1.394 . S
C837 C843 1.465 . S
C838 C833 1.399 . S
C838 C837 1.394 . S
C838 C839 1.516 . S
C839 C838 1.516 . S
C839 C840 1.502 . S
C839 C841 1.561 . S
C839 C842 1.526 . S
C840 H824 0.959 . S
C840 H825 0.959 . S
C840 H826 0.961 . S
C840 C839 1.502 . S
C841 H827 0.960 . S
C841 H828 0.961 . S
C841 H829 0.959 . S
C841 C839 1.561 . S
C842 C839 1.526 . S
C842 C843 1.396 . S
C842 C847 1.390 . S
C843 C837 1.465 . S
C843 C842 1.396 . S
C843 C844 1.399 . S
C844 H830 0.929 . S
C844 C843 1.399 . S
C844 C845 1.385 . S
C845 H831 0.931 . S
C845 C844 1.385 . S
C845 C846 1.389 . S
C846 C845 1.389 . S
C846 C847 1.387 . S
C847 H832 0.930 . S
C847 C842 1.390 . S
C847 C846 1.387 . S
H848 C860 0.930 1_565 S
H849 C862 0.930 . S
H850 C863 0.930 . S
H851 C867 0.959 1_445 S
H852 C867 0.959 1_455 S
H853 C867 0.961 . S
H854 C868 0.960 . S
H855 C868 0.961 . S
H856 C868 0.959 . S
H857 C871 0.929 . S
H858 C872 0.931 . S
H859 C874 0.930 . S
C860 H848 0.930 1_545 S
C860 C861 1.399 . S
C860 C865 1.399 . S
C861 C860 1.399 . S
C861 C862 1.376 . S
C862 H849 0.930 . S
C862 C861 1.376 . S
C862 C863 1.388 . S
C863 H850 0.930 . S
C863 C862 1.388 . S
C863 C864 1.390 . S
C864 C863 1.390 . S
C864 C865 1.394 . S
C864 C870 1.465 . S
C865 C860 1.399 . S
C865 C864 1.394 . S
C865 C866 1.516 . S
C866 C865 1.516 . S
C866 C867 1.502 1_545 S
C866 C868 1.561 1_545 S
C866 C869 1.526 . S
C867 H851 0.959 1_665 S
C867 H852 0.959 1_655 S
C867 H853 0.961 . S
C867 C866 1.502 1_565 S
C868 H854 0.960 . S
C868 H855 0.961 . S
C868 H856 0.959 . S
C868 C866 1.561 1_565 S
C869 C866 1.526 . S
C869 C870 1.396 . S
C869 C874 1.390 1_655 S
C870 C864 1.465 . S
C870 C869 1.396 . S
C870 C871 1.399 . S
C871 H857 0.929 . S
C871 C870 1.399 . S
C871 C872 1.385 1_655 S
C872 H858 0.931 . S
C872 C871 1.385 1_455 S
C872 C873 1.389 . S
C873 C872 1.389 . S
C873 C874 1.387 . S
C874 H859 0.930 . S
C874 C869 1.390 1_455 S
C874 C873 1.387 . S
H875 C887 0.930 . S
H876 C889 0.930 . S
H877 C890 0.930 . S
H878 C894 0.959 . S
H879 C894 0.959 . S
H880 C894 0.961 . S
H881 C895 0.960 . S
H882 C895 0.961 . S
H883 C895 0.959 . S
H884 C898 0.929 . S
H885 C899 0.931 . S
H886 C901 0.930 . S
C887 H875 0.930 . S
C887 C888 1.399 . S
C887 C892 1.399 . S
C888 C887 1.399 . S
C888 C889 1.376 . S
C889 H876 0.930 . S
C889 C888 1.376 . S
C889 C890 1.388 . S
C890 H877 0.930 . S
C890 C889 1.388 . S
C890 C891 1.390 . S
C891 C890 1.390 . S
C891 C892 1.394 . S
C891 C897 1.465 . S
C892 C887 1.399 . S
C892 C891 1.394 . S
C892 C893 1.516 . S
C893 C892 1.516 . S
C893 C894 1.502 . S
C893 C895 1.561 . S
C893 C896 1.526 . S
C894 H878 0.959 . S
C894 H879 0.959 . S
C894 H880 0.961 . S
C894 C893 1.502 . S
C895 H881 0.960 . S
C895 H882 0.961 . S
C895 H883 0.959 . S
C895 C893 1.561 . S
C896 C893 1.526 . S
C896 C897 1.396 . S
C896 C901 1.390 . S
C897 C891 1.465 . S
C897 C896 1.396 . S
C897 C898 1.399 . S
C898 H884 0.929 . S
C898 C897 1.399 . S
C898 C899 1.385 . S
C899 H885 0.931 . S
C899 C898 1.385 . S
C899 C900 1.389 . S
C900 C899 1.389 . S
C900 C901 1.387 . S
C901 H886 0.930 . S
C901 C896 1.390 . S
C901 C900 1.387 . S
H902 C914 0.930 . S
H903 C916 0.930 . S
H904 C917 0.930 . S
H905 C921 0.959 . S
H906 C921 0.959 . S
H907 C921 0.961 . S
H908 C922 0.960 . S
H909 C922 0.961 . S
H910 C922 0.959 . S
H911 C925 0.929 . S
H912 C926 0.931 . S
H913 C928 0.930 . S
C914 H902 0.930 . S
C914 C915 1.399 . S
C914 C919 1.399 . S
C915 C914 1.399 . S
C915 C916 1.376 1_565 S
C916 H903 0.930 . S
C916 C915 1.376 1_545 S
C916 C917 1.388 . S
C917 H904 0.930 . S
C917 C916 1.388 . S
C917 C918 1.390 . S
C918 C917 1.390 . S
C918 C919 1.394 1_545 S
C918 C924 1.465 . S
C919 C914 1.399 . S
C919 C918 1.394 1_565 S
C919 C920 1.516 . S
C920 C919 1.516 . S
C920 C921 1.502 . S
C920 C922 1.561 . S
C920 C923 1.526 . S
C921 H905 0.959 . S
C921 H906 0.959 . S
C921 H907 0.961 . S
C921 C920 1.502 . S
C922 H908 0.960 . S
C922 H909 0.961 . S
C922 H910 0.959 . S
C922 C920 1.561 . S
C923 C920 1.526 . S
C923 C924 1.396 1_565 S
C923 C928 1.390 . S
C924 C918 1.465 . S
C924 C923 1.396 1_545 S
C924 C925 1.399 . S
C925 H911 0.929 . S
C925 C924 1.399 . S
C925 C926 1.385 . S
C926 H912 0.931 . S
C926 C925 1.385 . S
C926 C927 1.368 1_545 S
C927 C926 1.368 1_565 S
C927 C928 1.409 . S
C928 H913 0.930 . S
C928 C923 1.390 . S
C928 C927 1.409 . S
H929 C941 0.930 . S
H930 C943 0.930 . S
H931 C944 0.930 . S
H932 C948 0.959 . S
H933 C948 0.959 . S
H934 C948 0.961 . S
H935 C949 0.960 . S
H936 C949 0.961 . S
H937 C949 0.959 . S
H938 C952 0.929 . S
H939 C953 0.931 . S
H940 C955 0.930 . S
C941 H929 0.930 . S
C941 C942 1.399 . S
C941 C946 1.399 . S
C942 C941 1.399 . S
C942 C943 1.376 . S
C943 H930 0.930 . S
C943 C942 1.376 . S
C943 C944 1.388 . S
C944 H931 0.930 . S
C944 C943 1.388 . S
C944 C945 1.390 . S
C945 C944 1.390 . S
C945 C946 1.394 . S
C945 C951 1.465 . S
C946 C941 1.399 . S
C946 C945 1.394 . S
C946 C947 1.516 . S
C947 C946 1.516 . S
C947 C948 1.502 . S
C947 C949 1.561 . S
C947 C950 1.526 . S
C948 H932 0.959 . S
C948 H933 0.959 . S
C948 H934 0.961 . S
C948 C947 1.502 . S
C949 H935 0.960 . S
C949 H936 0.961 . S
C949 H937 0.959 . S
C949 C947 1.561 . S
C950 C947 1.526 . S
C950 C951 1.396 . S
C950 C955 1.390 . S
C951 C945 1.465 . S
C951 C950 1.396 . S
C951 C952 1.399 . S
C952 H938 0.929 . S
C952 C951 1.399 . S
C952 C953 1.385 . S
C953 H939 0.931 . S
C953 C952 1.385 . S
C953 C954 1.389 . S
C954 C953 1.389 . S
C954 C955 1.387 . S
C955 H940 0.930 . S
C955 C950 1.390 . S
C955 C954 1.387 . S
H956 C968 0.930 . S
H957 C970 0.930 . S
H958 C971 0.930 . S
H959 C975 0.959 . S
H960 C975 0.959 . S
H961 C975 0.961 . S
H962 C976 0.960 . S
H963 C976 0.961 . S
H964 C976 0.959 . S
H965 C979 0.929 . S
H966 C980 0.931 . S
H967 C982 0.961 . S
C968 H956 0.930 . S
C968 C969 1.399 . S
C968 C973 1.399 . S
C969 C968 1.399 . S
C969 C970 1.376 1_545 S
C970 H957 0.930 . S
C970 C969 1.376 1_565 S
C970 C971 1.388 . S
C971 H958 0.930 . S
C971 C970 1.388 . S
C971 C972 1.390 1_565 S
C972 C971 1.390 1_545 S
C972 C973 1.394 . S
C972 C978 1.465 . S
C973 C968 1.399 . S
C973 C972 1.394 . S
C973 C974 1.516 . S
C974 C973 1.516 . S
C974 C975 1.502 1_655 S
C974 C976 1.561 . S
C974 C977 1.526 . S
C975 H959 0.959 . S
C975 H960 0.959 . S
C975 H961 0.961 . S
C975 C974 1.502 1_455 S
C976 H962 0.960 . S
C976 H963 0.961 . S
C976 H964 0.959 . S
C976 C974 1.561 . S
C977 C974 1.526 . S
C977 C978 1.396 . S
C977 C982 1.363 1_655 S
C978 C972 1.465 . S
C978 C977 1.396 . S
C978 C979 1.399 1_545 S
C979 H965 0.929 . S
C979 C978 1.399 1_565 S
C979 C980 1.385 . S
C980 H966 0.931 . S
C980 C979 1.385 . S
C980 C981 1.389 1_565 S
C981 C980 1.389 1_545 S
C981 C982 1.382 1_655 S
C982 H967 0.961 . S
C982 C977 1.363 1_455 S
C982 C981 1.382 1_455 S
H983 C995 0.930 . S
H984 C997 0.930 . S
H985 C998 0.930 . S
H986 C1002 0.959 . S
H987 C1002 0.959 . S
H988 C1002 0.961 . S
H989 C1003 0.960 . S
H990 C1003 0.961 . S
H991 C1003 0.959 . S
H992 C1006 0.929 . S
H993 C1007 0.931 . S
H994 C1009 0.930 . S
C995 H983 0.930 . S
C995 C996 1.399 . S
C995 C1000 1.399 . S
C996 C995 1.399 . S
C996 C997 1.376 . S
C997 H984 0.930 . S
C997 C996 1.376 . S
C997 C998 1.388 . S
C998 H985 0.930 . S
C998 C997 1.388 . S
C998 C999 1.390 . S
C999 C998 1.390 . S
C999 C1000 1.394 . S
C999 C1005 1.465 . S
C1000 C995 1.399 . S
C1000 C999 1.394 . S
C1000 C1001 1.516 . S
C1001 C1000 1.516 . S
C1001 C1002 1.502 . S
C1001 C1003 1.561 . S
C1001 C1004 1.526 . S
C1002 H986 0.959 . S
C1002 H987 0.959 . S
C1002 H988 0.961 . S
C1002 C1001 1.502 . S
C1003 H989 0.960 . S
C1003 H990 0.961 . S
C1003 H991 0.959 . S
C1003 C1001 1.561 . S
C1004 C1001 1.526 . S
C1004 C1005 1.396 . S
C1004 C1009 1.390 . S
C1005 C999 1.465 . S
C1005 C1004 1.396 . S
C1005 C1006 1.399 . S
C1006 H992 0.929 . S
C1006 C1005 1.399 . S
C1006 C1007 1.385 . S
C1007 H993 0.931 . S
C1007 C1006 1.385 . S
C1007 C1008 1.389 . S
C1008 C1007 1.389 . S
C1008 C1009 1.387 . S
C1009 H994 0.930 . S
C1009 C1004 1.390 . S
C1009 C1008 1.387 . S
H1010 C1022 0.970 . S
H1011 C1024 0.930 . S
H1012 C1025 0.930 . S
H1013 C1029 0.959 . S
H1014 C1029 0.959 . S
H1015 C1029 0.961 . S
H1016 C1030 0.960 . S
H1017 C1030 0.961 . S
H1018 C1030 0.959 . S
H1019 C1033 0.929 . S
H1020 C1034 0.931 . S
H1021 C1036 0.930 . S
C1022 H1010 0.970 . S
C1022 C1023 1.377 1_565 S
C1022 C1027 1.382 1_565 S
C1023 C1022 1.377 1_545 S
C1023 C1024 1.376 . S
C1024 H1011 0.930 . S
C1024 C1023 1.376 . S
C1024 C1025 1.388 . S
C1025 H1012 0.930 . S
C1025 C1024 1.388 . S
C1025 C1026 1.390 . S
C1026 C1025 1.390 . S
C1026 C1027 1.394 . S
C1026 C1032 1.465 . S
C1027 C1022 1.382 1_545 S
C1027 C1026 1.394 . S
C1027 C1028 1.516 1_545 S
C1028 C1027 1.516 1_565 S
C1028 C1029 1.502 . S
C1028 C1030 1.561 . S
C1028 C1031 1.526 1_565 S
C1029 H1013 0.959 . S
C1029 H1014 0.959 . S
C1029 H1015 0.961 . S
C1029 C1028 1.502 . S
C1030 H1016 0.960 . S
C1030 H1017 0.961 . S
C1030 H1018 0.959 . S
C1030 C1028 1.561 . S
C1031 C1028 1.526 1_545 S
C1031 C1032 1.396 . S
C1031 C1036 1.390 . S
C1032 C1026 1.465 . S
C1032 C1031 1.396 . S
C1032 C1033 1.399 . S
C1033 H1019 0.929 . S
C1033 C1032 1.399 . S
C1033 C1034 1.385 . S
C1034 H1020 0.931 . S
C1034 C1033 1.385 . S
C1034 C1035 1.389 . S
C1035 C1034 1.389 . S
C1035 C1036 1.387 . S
C1036 H1021 0.930 . S
C1036 C1031 1.390 . S
C1036 C1035 1.387 . S
H1037 C1049 0.930 . S
H1038 C1051 0.930 . S
H1039 C1052 0.930 . S
H1040 C1056 0.959 . S
H1041 C1056 0.959 . S
H1042 C1056 0.961 . S
H1043 C1057 0.960 . S
H1044 C1057 0.961 . S
H1045 C1057 0.959 . S
H1046 C1060 0.929 . S
H1047 C1061 0.931 . S
H1048 C1063 0.930 . S
C1049 H1037 0.930 . S
C1049 C1050 1.399 . S
C1049 C1054 1.399 . S
C1050 C1049 1.399 . S
C1050 C1051 1.376 . S
C1051 H1038 0.930 . S
C1051 C1050 1.376 . S
C1051 C1052 1.388 . S
C1052 H1039 0.930 . S
C1052 C1051 1.388 . S
C1052 C1053 1.390 . S
C1053 C1052 1.390 . S
C1053 C1054 1.394 . S
C1053 C1059 1.465 . S
C1054 C1049 1.399 . S
C1054 C1053 1.394 . S
C1054 C1055 1.516 . S
C1055 C1054 1.516 . S
C1055 C1056 1.502 . S
C1055 C1057 1.561 . S
C1055 C1058 1.526 . S
C1056 H1040 0.959 . S
C1056 H1041 0.959 . S
C1056 H1042 0.961 . S
C1056 C1055 1.502 . S
C1057 H1043 0.960 . S
C1057 H1044 0.961 . S
C1057 H1045 0.959 . S
C1057 C1055 1.561 . S
C1058 C1055 1.526 . S
C1058 C1059 1.396 . S
C1058 C1063 1.390 . S
C1059 C1053 1.465 . S
C1059 C1058 1.396 . S
C1059 C1060 1.399 . S
C1060 H1046 0.929 . S
C1060 C1059 1.399 . S
C1060 C1061 1.385 . S
C1061 H1047 0.931 . S
C1061 C1060 1.385 . S
C1061 C1062 1.389 . S
C1062 C1061 1.389 . S
C1062 C1063 1.387 . S
C1063 H1048 0.930 . S
C1063 C1058 1.390 . S
C1063 C1062 1.387 . S
H1064 C1076 0.937 . S
H1065 C1078 0.930 . S
H1066 C1079 0.930 . S
H1067 C1083 0.959 . S
H1068 C1083 0.963 . S
H1069 C1083 0.961 1_556 S
H1070 C1084 0.960 . S
H1071 C1084 0.961 . S
H1072 C1084 0.959 . S
H1073 C1087 0.929 . S
H1074 C1088 0.931 . S
H1075 C1090 0.930 1_545 S
C1076 H1064 0.937 . S
C1076 C1077 1.399 . S
C1076 C1081 1.399 . S
C1077 C1076 1.399 . S
C1077 C1078 1.376 . S
C1078 H1065 0.930 . S
C1078 C1077 1.376 . S
C1078 C1079 1.388 . S
C1079 H1066 0.930 . S
C1079 C1078 1.388 . S
C1079 C1080 1.390 . S
C1080 C1079 1.390 . S
C1080 C1081 1.394 . S
C1080 C1086 1.465 . S
C1081 C1076 1.399 . S
C1081 C1080 1.394 . S
C1081 C1082 1.516 . S
C1082 C1081 1.516 . S
C1082 C1083 1.502 . S
C1082 C1084 1.561 1_554 S
C1082 C1085 1.526 . S
C1083 H1067 0.959 . S
C1083 H1068 0.963 . S
C1083 H1069 0.961 1_554 S
C1083 C1082 1.502 . S
C1084 H1070 0.960 . S
C1084 H1071 0.961 . S
C1084 H1072 0.959 . S
C1084 C1082 1.561 1_556 S
C1085 C1082 1.526 . S
C1085 C1086 1.396 . S
C1085 C1090 1.390 . S
C1086 C1080 1.465 . S
C1086 C1085 1.396 . S
C1086 C1087 1.399 . S
C1087 H1073 0.929 . S
C1087 C1086 1.399 . S
C1087 C1088 1.385 . S
C1088 H1074 0.931 . S
C1088 C1087 1.385 . S
C1088 C1089 1.389 . S
C1089 C1088 1.389 . S
C1089 C1090 1.387 . S
C1090 H1075 0.930 1_565 S
C1090 C1085 1.390 . S
C1090 C1089 1.387 . S
H1091 C1103 0.930 . S
H1092 C1105 0.930 . S
H1093 C1106 0.930 . S
H1094 C1110 0.959 . S
H1095 C1110 0.959 . S
H1096 C1110 0.961 . S
H1097 C1111 0.960 . S
H1098 C1111 0.961 . S
H1099 C1111 0.959 1_554 S
H1100 C1114 0.929 . S
H1101 C1115 0.931 . S
H1102 C1117 0.930 . S
C1103 H1091 0.930 . S
C1103 C1104 1.399 . S
C1103 C1108 1.399 . S
C1104 C1103 1.399 . S
C1104 C1105 1.376 1_556 S
C1105 H1092 0.930 . S
C1105 C1104 1.376 1_554 S
C1105 C1106 1.388 . S
C1106 H1093 0.930 . S
C1106 C1105 1.388 . S
C1106 C1107 1.390 . S
C1107 C1106 1.390 . S
C1107 C1108 1.394 1_554 S
C1107 C1113 1.465 . S
C1108 C1103 1.399 . S
C1108 C1107 1.394 1_556 S
C1108 C1109 1.516 . S
C1109 C1108 1.516 . S
C1109 C1110 1.502 . S
C1109 C1111 1.561 . S
C1109 C1112 1.526 . S
C1110 H1094 0.959 . S
C1110 H1095 0.959 . S
C1110 H1096 0.961 . S
C1110 C1109 1.502 . S
C1111 H1097 0.960 . S
C1111 H1098 0.961 . S
C1111 H1099 0.959 1_556 S
C1111 C1109 1.561 . S
C1112 C1109 1.526 . S
C1112 C1113 1.396 1_556 S
C1112 C1117 1.390 . S
C1113 C1107 1.465 . S
C1113 C1112 1.396 1_554 S
C1113 C1114 1.399 . S
C1114 H1100 0.929 . S
C1114 C1113 1.399 . S
C1114 C1115 1.385 . S
C1115 H1101 0.931 . S
C1115 C1114 1.385 . S
C1115 C1116 1.389 . S
C1116 C1115 1.389 . S
C1116 C1117 1.387 1_554 S
C1117 H1102 0.930 . S
C1117 C1112 1.390 . S
C1117 C1116 1.387 1_556 S
H1118 C1130 0.930 . S
H1119 C1132 0.930 . S
H1120 C1133 0.930 . S
H1121 C1137 0.959 . S
H1122 C1137 0.959 . S
H1123 C1137 0.961 . S
H1124 C1138 0.960 . S
H1125 C1138 0.961 . S
H1126 C1138 0.959 . S
H1127 C1141 0.929 . S
H1128 C1142 0.931 . S
H1129 C1144 0.930 . S
C1130 H1118 0.930 . S
C1130 C1131 1.399 . S
C1130 C1135 1.399 . S
C1131 C1130 1.399 . S
C1131 C1132 1.376 . S
C1132 H1119 0.930 . S
C1132 C1131 1.376 . S
C1132 C1133 1.388 . S
C1133 H1120 0.930 . S
C1133 C1132 1.388 . S
C1133 C1134 1.390 . S
C1134 C1133 1.390 . S
C1134 C1135 1.394 . S
C1134 C1140 1.465 . S
C1135 C1130 1.399 . S
C1135 C1134 1.394 . S
C1135 C1136 1.516 . S
C1136 C1135 1.516 . S
C1136 C1137 1.502 . S
C1136 C1138 1.561 . S
C1136 C1139 1.526 . S
C1137 H1121 0.959 . S
C1137 H1122 0.959 . S
C1137 H1123 0.961 . S
C1137 C1136 1.502 . S
C1138 H1124 0.960 . S
C1138 H1125 0.961 . S
C1138 H1126 0.959 . S
C1138 C1136 1.561 . S
C1139 C1136 1.526 . S
C1139 C1140 1.396 . S
C1139 C1144 1.390 . S
C1140 C1134 1.465 . S
C1140 C1139 1.396 . S
C1140 C1141 1.399 . S
C1141 H1127 0.929 . S
C1141 C1140 1.399 . S
C1141 C1142 1.385 . S
C1142 H1128 0.931 . S
C1142 C1141 1.385 . S
C1142 C1143 1.389 . S
C1143 C1142 1.389 . S
C1143 C1144 1.387 . S
C1144 H1129 0.930 . S
C1144 C1139 1.390 . S
C1144 C1143 1.387 . S
H1145 C1157 0.930 . S
H1146 C1159 0.930 . S
H1147 C1160 0.930 . S
H1148 C1164 0.959 . S
H1149 C1164 0.959 . S
H1150 C1164 0.961 . S
H1151 C1165 0.960 . S
H1152 C1165 0.961 . S
H1153 C1165 0.959 . S
H1154 C1168 0.929 . S
H1155 C1169 0.931 . S
H1156 C1171 0.930 . S
C1157 H1145 0.930 . S
C1157 C1158 1.399 . S
C1157 C1162 1.399 . S
C1158 C1157 1.399 . S
C1158 C1159 1.376 . S
C1159 H1146 0.930 . S
C1159 C1158 1.376 . S
C1159 C1160 1.388 . S
C1160 H1147 0.930 . S
C1160 C1159 1.388 . S
C1160 C1161 1.390 . S
C1161 C1160 1.390 . S
C1161 C1162 1.394 . S
C1161 C1167 1.465 . S
C1162 C1157 1.399 . S
C1162 C1161 1.394 . S
C1162 C1163 1.516 . S
C1163 C1162 1.516 . S
C1163 C1164 1.502 . S
C1163 C1165 1.561 . S
C1163 C1166 1.526 . S
C1164 H1148 0.959 . S
C1164 H1149 0.959 . S
C1164 H1150 0.961 . S
C1164 C1163 1.502 . S
C1165 H1151 0.960 . S
C1165 H1152 0.961 . S
C1165 H1153 0.959 . S
C1165 C1163 1.561 . S
C1166 C1163 1.526 . S
C1166 C1167 1.396 . S
C1166 C1171 1.390 . S
C1167 C1161 1.465 . S
C1167 C1166 1.396 . S
C1167 C1168 1.399 . S
C1168 H1154 0.929 . S
C1168 C1167 1.399 . S
C1168 C1169 1.385 . S
C1169 H1155 0.931 . S
C1169 C1168 1.385 . S
C1169 C1170 1.389 . S
C1170 C1169 1.389 . S
C1170 C1171 1.387 . S
C1171 H1156 0.930 . S
C1171 C1166 1.390 . S
C1171 C1170 1.387 . S
H1172 C1184 0.930 . S
H1173 C1186 0.930 . S
H1174 C1187 0.930 . S
H1175 C1191 0.959 . S
H1176 C1191 0.959 . S
H1177 C1191 0.961 . S
H1178 C1192 0.960 . S
H1179 C1192 0.961 . S
H1180 C1192 0.959 . S
H1181 C1195 0.929 . S
H1182 C1196 0.931 . S
H1183 C1198 0.930 . S
C1184 H1172 0.930 . S
C1184 C1185 1.399 . S
C1184 C1189 1.399 . S
C1185 C1184 1.399 . S
C1185 C1186 1.376 . S
C1186 H1173 0.930 . S
C1186 C1185 1.376 . S
C1186 C1187 1.388 . S
C1187 H1174 0.930 . S
C1187 C1186 1.388 . S
C1187 C1188 1.390 . S
C1188 C1187 1.390 . S
C1188 C1189 1.394 . S
C1188 C1194 1.465 . S
C1189 C1184 1.399 . S
C1189 C1188 1.394 . S
C1189 C1190 1.516 . S
C1190 C1189 1.516 . S
C1190 C1191 1.502 . S
C1190 C1192 1.561 . S
C1190 C1193 1.526 . S
C1191 H1175 0.959 . S
C1191 H1176 0.959 . S
C1191 H1177 0.961 . S
C1191 C1190 1.502 . S
C1192 H1178 0.960 . S
C1192 H1179 0.961 . S
C1192 H1180 0.959 . S
C1192 C1190 1.561 . S
C1193 C1190 1.526 . S
C1193 C1194 1.396 . S
C1193 C1198 1.390 . S
C1194 C1188 1.465 . S
C1194 C1193 1.396 . S
C1194 C1195 1.399 . S
C1195 H1181 0.929 . S
C1195 C1194 1.399 . S
C1195 C1196 1.385 . S
C1196 H1182 0.931 . S
C1196 C1195 1.385 . S
C1196 C1197 1.389 . S
C1197 C1196 1.389 . S
C1197 C1198 1.387 . S
C1198 H1183 0.930 . S
C1198 C1193 1.390 . S
C1198 C1197 1.387 . S
H1199 C1211 0.930 . S
H1200 C1213 0.930 . S
H1201 C1214 0.930 . S
H1202 C1218 0.959 . S
H1203 C1218 0.959 . S
H1204 C1218 0.961 . S
H1205 C1219 0.960 . S
H1206 C1219 0.961 . S
H1207 C1219 0.959 . S
H1208 C1222 0.929 . S
H1209 C1223 0.931 . S
H1210 C1225 0.930 . S
C1211 H1199 0.930 . S
C1211 C1212 1.399 . S
C1211 C1216 1.399 . S
C1212 C1211 1.399 . S
C1212 C1213 1.376 . S
C1213 H1200 0.930 . S
C1213 C1212 1.376 . S
C1213 C1214 1.388 . S
C1214 H1201 0.930 . S
C1214 C1213 1.388 . S
C1214 C1215 1.390 . S
C1215 C1214 1.390 . S
C1215 C1216 1.394 . S
C1215 C1221 1.465 . S
C1216 C1211 1.399 . S
C1216 C1215 1.394 . S
C1216 C1217 1.516 . S
C1217 C1216 1.516 . S
C1217 C1218 1.502 . S
C1217 C1219 1.561 . S
C1217 C1220 1.526 . S
C1218 H1202 0.959 . S
C1218 H1203 0.959 . S
C1218 H1204 0.961 . S
C1218 C1217 1.502 . S
C1219 H1205 0.960 . S
C1219 H1206 0.961 . S
C1219 H1207 0.959 . S
C1219 C1217 1.561 . S
C1220 C1217 1.526 . S
C1220 C1221 1.396 . S
C1220 C1225 1.390 . S
C1221 C1215 1.465 . S
C1221 C1220 1.396 . S
C1221 C1222 1.399 . S
C1222 H1208 0.929 . S
C1222 C1221 1.399 . S
C1222 C1223 1.385 . S
C1223 H1209 0.931 . S
C1223 C1222 1.385 . S
C1223 C1224 1.389 . S
C1224 C1223 1.389 . S
C1224 C1225 1.387 . S
C1225 H1210 0.930 . S
C1225 C1220 1.390 . S
C1225 C1224 1.387 . S
H1226 C1238 0.930 . S
H1227 C1240 0.930 . S
H1228 C1241 0.930 . S
H1229 C1245 0.959 . S
H1230 C1245 0.959 . S
H1231 C1245 0.961 . S
H1232 C1246 0.960 . S
H1233 C1246 0.961 . S
H1234 C1246 0.959 . S
H1235 C1249 0.929 . S
H1236 C1250 0.931 . S
H1237 C1252 0.930 . S
C1238 H1226 0.930 . S
C1238 C1239 1.399 . S
C1238 C1243 1.399 . S
C1239 C1238 1.399 . S
C1239 C1240 1.376 . S
C1240 H1227 0.930 . S
C1240 C1239 1.376 . S
C1240 C1241 1.388 . S
C1241 H1228 0.930 . S
C1241 C1240 1.388 . S
C1241 C1242 1.390 . S
C1242 C1241 1.390 . S
C1242 C1243 1.394 . S
C1242 C1248 1.465 . S
C1243 C1238 1.399 . S
C1243 C1242 1.394 . S
C1243 C1244 1.516 . S
C1244 C1243 1.516 . S
C1244 C1245 1.502 . S
C1244 C1246 1.561 . S
C1244 C1247 1.526 . S
C1245 H1229 0.959 . S
C1245 H1230 0.959 . S
C1245 H1231 0.961 . S
C1245 C1244 1.502 . S
C1246 H1232 0.960 . S
C1246 H1233 0.961 . S
C1246 H1234 0.959 . S
C1246 C1244 1.561 . S
C1247 C1244 1.526 . S
C1247 C1248 1.396 . S
C1247 C1252 1.390 . S
C1248 C1242 1.465 . S
C1248 C1247 1.396 . S
C1248 C1249 1.399 . S
C1249 H1235 0.929 . S
C1249 C1248 1.399 . S
C1249 C1250 1.385 . S
C1250 H1236 0.931 . S
C1250 C1249 1.385 . S
C1250 C1251 1.389 . S
C1251 C1250 1.389 . S
C1251 C1252 1.387 . S
C1252 H1237 0.930 . S
C1252 C1247 1.390 . S
C1252 C1251 1.387 . S
H1253 C1265 0.930 . S
H1254 C1267 0.930 . S
H1255 C1268 0.930 . S
H1256 C1272 0.959 . S
H1257 C1272 0.959 . S
H1258 C1272 0.961 . S
H1259 C1273 0.960 . S
H1260 C1273 0.961 . S
H1261 C1273 0.959 . S
H1262 C1276 0.929 . S
H1263 C1277 0.931 . S
H1264 C1279 0.930 . S
C1265 H1253 0.930 . S
C1265 C1266 1.399 . S
C1265 C1270 1.399 . S
C1266 C1265 1.399 . S
C1266 C1267 1.376 . S
C1267 H1254 0.930 . S
C1267 C1266 1.376 . S
C1267 C1268 1.388 . S
C1268 H1255 0.930 . S
C1268 C1267 1.388 . S
C1268 C1269 1.390 . S
C1269 C1268 1.390 . S
C1269 C1270 1.394 . S
C1269 C1275 1.465 . S
C1270 C1265 1.399 . S
C1270 C1269 1.394 . S
C1270 C1271 1.516 . S
C1271 C1270 1.516 . S
C1271 C1272 1.502 . S
C1271 C1273 1.561 . S
C1271 C1274 1.526 . S
C1272 H1256 0.959 . S
C1272 H1257 0.959 . S
C1272 H1258 0.961 . S
C1272 C1271 1.502 . S
C1273 H1259 0.960 . S
C1273 H1260 0.961 . S
C1273 H1261 0.959 . S
C1273 C1271 1.561 . S
C1274 C1271 1.526 . S
C1274 C1275 1.396 . S
C1274 C1279 1.390 . S
C1275 C1269 1.465 . S
C1275 C1274 1.396 . S
C1275 C1276 1.399 . S
C1276 H1262 0.929 . S
C1276 C1275 1.399 . S
C1276 C1277 1.385 . S
C1277 H1263 0.931 . S
C1277 C1276 1.385 . S
C1277 C1278 1.389 . S
C1278 C1277 1.389 . S
C1278 C1279 1.387 . S
C1279 H1264 0.930 . S
C1279 C1274 1.390 . S
C1279 C1278 1.387 . S
H1280 C1292 0.930 . S
H1281 C1294 0.930 . S
H1282 C1295 0.930 . S
H1283 C1299 0.959 1_655 S
H1284 C1299 0.959 . S
H1285 C1299 0.961 . S
H1286 C1300 0.960 . S
H1287 C1300 0.961 . S
H1288 C1300 0.959 . S
H1289 C1303 0.929 . S
H1290 C1304 0.931 . S
H1291 C1306 0.930 . S
C1292 H1280 0.930 . S
C1292 C1293 1.399 . S
C1292 C1297 1.399 . S
C1293 C1292 1.399 . S
C1293 C1294 1.376 . S
C1294 H1281 0.930 . S
C1294 C1293 1.376 . S
C1294 C1295 1.388 . S
C1295 H1282 0.930 . S
C1295 C1294 1.388 . S
C1295 C1296 1.390 . S
C1296 C1295 1.390 . S
C1296 C1297 1.394 . S
C1296 C1302 1.465 . S
C1297 C1292 1.399 . S
C1297 C1296 1.394 . S
C1297 C1298 1.516 . S
C1298 C1297 1.516 . S
C1298 C1299 1.502 . S
C1298 C1300 1.561 . S
C1298 C1301 1.526 . S
C1299 H1283 0.959 1_455 S
C1299 H1284 0.959 . S
C1299 H1285 0.961 . S
C1299 C1298 1.502 . S
C1300 H1286 0.960 . S
C1300 H1287 0.961 . S
C1300 H1288 0.959 . S
C1300 C1298 1.561 . S
C1301 C1298 1.526 . S
C1301 C1302 1.396 . S
C1301 C1306 1.390 . S
C1302 C1296 1.465 . S
C1302 C1301 1.396 . S
C1302 C1303 1.399 . S
C1303 H1289 0.929 . S
C1303 C1302 1.399 . S
C1303 C1304 1.385 . S
C1304 H1290 0.931 . S
C1304 C1303 1.385 . S
C1304 C1305 1.389 . S
C1305 C1304 1.389 . S
C1305 C1306 1.387 . S
C1306 H1291 0.930 . S
C1306 C1301 1.390 . S
C1306 C1305 1.387 . S
H1307 C1319 0.930 . S
H1308 C1321 0.930 . S
H1309 C1322 0.930 . S
H1310 C1326 0.959 . S
H1311 C1326 0.959 . S
H1312 C1326 0.961 . S
H1313 C1327 0.960 . S
H1314 C1327 0.961 . S
H1315 C1327 0.959 . S
H1316 C1330 0.929 . S
H1317 C1331 0.931 . S
H1318 C1333 0.930 . S
C1319 H1307 0.930 . S
C1319 C1320 1.399 . S
C1319 C1324 1.399 . S
C1320 C1319 1.399 . S
C1320 C1321 1.376 . S
C1321 H1308 0.930 . S
C1321 C1320 1.376 . S
C1321 C1322 1.388 . S
C1322 H1309 0.930 . S
C1322 C1321 1.388 . S
C1322 C1323 1.390 . S
C1323 C1322 1.390 . S
C1323 C1324 1.394 . S
C1323 C1329 1.465 . S
C1324 C1319 1.399 . S
C1324 C1323 1.394 . S
C1324 C1325 1.516 . S
C1325 C1324 1.516 . S
C1325 C1326 1.502 . S
C1325 C1327 1.561 . S
C1325 C1328 1.526 . S
C1326 H1310 0.959 . S
C1326 H1311 0.959 . S
C1326 H1312 0.961 . S
C1326 C1325 1.502 . S
C1327 H1313 0.960 . S
C1327 H1314 0.961 . S
C1327 H1315 0.959 . S
C1327 C1325 1.561 . S
C1328 C1325 1.526 . S
C1328 C1329 1.396 . S
C1328 C1333 1.390 . S
C1329 C1323 1.465 . S
C1329 C1328 1.396 . S
C1329 C1330 1.399 . S
C1330 H1316 0.929 . S
C1330 C1329 1.399 . S
C1330 C1331 1.385 . S
C1331 H1317 0.931 . S
C1331 C1330 1.385 . S
C1331 C1332 1.389 . S
C1332 C1331 1.389 . S
C1332 C1333 1.387 . S
C1333 H1318 0.930 . S
C1333 C1328 1.390 . S
C1333 C1332 1.387 . S
H1334 C1346 0.930 . S
H1335 C1348 0.930 . S
H1336 C1349 0.930 . S
H1337 C1353 0.959 . S
H1338 C1353 0.959 . S
H1339 C1353 0.961 . S
H1340 C1354 0.960 . S
H1341 C1354 0.961 . S
H1342 C1354 0.959 . S
H1343 C1357 0.929 . S
H1344 C1358 0.931 . S
H1345 C1360 0.930 . S
C1346 H1334 0.930 . S
C1346 C1347 1.399 . S
C1346 C1351 1.399 . S
C1347 C1346 1.399 . S
C1347 C1348 1.376 . S
C1348 H1335 0.930 . S
C1348 C1347 1.376 . S
C1348 C1349 1.388 . S
C1349 H1336 0.930 . S
C1349 C1348 1.388 . S
C1349 C1350 1.390 . S
C1350 C1349 1.390 . S
C1350 C1351 1.394 . S
C1350 C1356 1.465 . S
C1351 C1346 1.399 . S
C1351 C1350 1.394 . S
C1351 C1352 1.516 . S
C1352 C1351 1.516 . S
C1352 C1353 1.502 . S
C1352 C1354 1.561 . S
C1352 C1355 1.526 . S
C1353 H1337 0.959 . S
C1353 H1338 0.959 . S
C1353 H1339 0.961 . S
C1353 C1352 1.502 . S
C1354 H1340 0.960 . S
C1354 H1341 0.961 . S
C1354 H1342 0.959 . S
C1354 C1352 1.561 . S
C1355 C1352 1.526 . S
C1355 C1356 1.396 . S
C1355 C1360 1.390 . S
C1356 C1350 1.465 . S
C1356 C1355 1.396 . S
C1356 C1357 1.399 . S
C1357 H1343 0.929 . S
C1357 C1356 1.399 . S
C1357 C1358 1.385 . S
C1358 H1344 0.931 . S
C1358 C1357 1.385 . S
C1358 C1359 1.389 . S
C1359 C1358 1.389 . S
C1359 C1360 1.387 . S
C1360 H1345 0.930 . S
C1360 C1355 1.390 . S
C1360 C1359 1.387 . S
H1361 C1373 0.930 . S
H1362 C1375 0.930 . S
H1363 C1376 0.930 . S
H1364 C1380 0.959 . S
H1365 C1380 0.959 . S
H1366 C1380 0.961 . S
H1367 C1381 0.960 . S
H1368 C1381 0.961 . S
H1369 C1381 0.959 . S
H1370 C1384 0.929 . S
H1371 C1385 0.931 . S
H1372 C1387 0.930 . S
C1373 H1361 0.930 . S
C1373 C1374 1.399 . S
C1373 C1378 1.399 . S
C1374 C1373 1.399 . S
C1374 C1375 1.376 . S
C1375 H1362 0.930 . S
C1375 C1374 1.376 . S
C1375 C1376 1.388 . S
C1376 H1363 0.930 . S
C1376 C1375 1.388 . S
C1376 C1377 1.390 . S
C1377 C1376 1.390 . S
C1377 C1378 1.394 . S
C1377 C1383 1.465 . S
C1378 C1373 1.399 . S
C1378 C1377 1.394 . S
C1378 C1379 1.516 . S
C1379 C1378 1.516 . S
C1379 C1380 1.502 . S
C1379 C1381 1.561 . S
C1379 C1382 1.526 . S
C1380 H1364 0.959 . S
C1380 H1365 0.959 . S
C1380 H1366 0.961 . S
C1380 C1379 1.502 . S
C1381 H1367 0.960 . S
C1381 H1368 0.961 . S
C1381 H1369 0.959 . S
C1381 C1379 1.561 . S
C1382 C1379 1.526 . S
C1382 C1383 1.396 . S
C1382 C1387 1.390 . S
C1383 C1377 1.465 . S
C1383 C1382 1.396 . S
C1383 C1384 1.399 . S
C1384 H1370 0.929 . S
C1384 C1383 1.399 . S
C1384 C1385 1.385 . S
C1385 H1371 0.931 . S
C1385 C1384 1.385 . S
C1385 C1386 1.389 . S
C1386 C1385 1.389 . S
C1386 C1387 1.387 . S
C1387 H1372 0.930 . S
C1387 C1382 1.390 . S
C1387 C1386 1.387 . S
H1388 C1400 0.930 . S
H1389 C1402 0.930 . S
H1390 C1403 0.930 . S
H1391 C1407 0.959 . S
H1392 C1407 0.959 . S
H1393 C1407 0.961 . S
H1394 C1408 0.960 . S
H1395 C1408 0.961 . S
H1396 C1408 0.959 . S
H1397 C1411 0.929 . S
H1398 C1412 0.931 . S
H1399 C1414 0.930 . S
C1400 H1388 0.930 . S
C1400 C1401 1.399 . S
C1400 C1405 1.399 . S
C1401 C1400 1.399 . S
C1401 C1402 1.376 . S
C1402 H1389 0.930 . S
C1402 C1401 1.376 . S
C1402 C1403 1.388 . S
C1403 H1390 0.930 . S
C1403 C1402 1.388 . S
C1403 C1404 1.390 . S
C1404 C1403 1.390 . S
C1404 C1405 1.394 . S
C1404 C1410 1.465 . S
C1405 C1400 1.399 . S
C1405 C1404 1.394 . S
C1405 C1406 1.516 . S
C1406 C1405 1.516 . S
C1406 C1407 1.502 1_455 S
C1406 C1408 1.561 . S
C1406 C1409 1.526 . S
C1407 H1391 0.959 . S
C1407 H1392 0.959 . S
C1407 H1393 0.961 . S
C1407 C1406 1.502 1_655 S
C1408 H1394 0.960 . S
C1408 H1395 0.961 . S
C1408 H1396 0.959 . S
C1408 C1406 1.561 . S
C1409 C1406 1.526 . S
C1409 C1410 1.396 . S
C1409 C1414 1.390 . S
C1410 C1404 1.465 . S
C1410 C1409 1.396 . S
C1410 C1411 1.399 . S
C1411 H1397 0.929 . S
C1411 C1410 1.399 . S
C1411 C1412 1.385 . S
C1412 H1398 0.931 . S
C1412 C1411 1.385 . S
C1412 C1413 1.389 . S
C1413 C1412 1.389 . S
C1413 C1414 1.387 . S
C1414 H1399 0.930 . S
C1414 C1409 1.390 . S
C1414 C1413 1.387 . S
H1415 C1427 0.930 . S
H1416 C1429 0.930 . S
H1417 C1430 0.930 . S
H1418 C1434 0.959 . S
H1419 C1434 0.959 . S
H1420 C1434 0.961 . S
H1421 C1435 0.960 . S
H1422 C1435 0.961 . S
H1423 C1435 0.959 . S
H1424 C1438 0.929 . S
H1425 C1439 0.931 . S
H1426 C1441 0.930 . S
C1427 H1415 0.930 . S
C1427 C1428 1.399 . S
C1427 C1432 1.399 . S
C1428 C1427 1.399 . S
C1428 C1429 1.376 . S
C1429 H1416 0.930 . S
C1429 C1428 1.376 . S
C1429 C1430 1.388 . S
C1430 H1417 0.930 . S
C1430 C1429 1.388 . S
C1430 C1431 1.390 . S
C1431 C1430 1.390 . S
C1431 C1432 1.394 . S
C1431 C1437 1.465 . S
C1432 C1427 1.399 . S
C1432 C1431 1.394 . S
C1432 C1433 1.516 . S
C1433 C1432 1.516 . S
C1433 C1434 1.502 . S
C1433 C1435 1.561 . S
C1433 C1436 1.526 . S
C1434 H1418 0.959 . S
C1434 H1419 0.959 . S
C1434 H1420 0.961 . S
C1434 C1433 1.502 . S
C1435 H1421 0.960 . S
C1435 H1422 0.961 . S
C1435 H1423 0.959 . S
C1435 C1433 1.561 . S
C1436 C1433 1.526 . S
C1436 C1437 1.396 . S
C1436 C1441 1.390 . S
C1437 C1431 1.465 . S
C1437 C1436 1.396 . S
C1437 C1438 1.399 . S
C1438 H1424 0.929 . S
C1438 C1437 1.399 . S
C1438 C1439 1.385 . S
C1439 H1425 0.931 . S
C1439 C1438 1.385 . S
C1439 C1440 1.389 . S
C1440 C1439 1.389 . S
C1440 C1441 1.387 . S
C1441 H1426 0.930 . S
C1441 C1436 1.390 . S
C1441 C1440 1.387 . S
H1442 C1454 0.930 . S
H1443 C1456 0.930 . S
H1444 C1457 0.930 . S
H1445 C1461 0.959 . S
H1446 C1461 0.959 . S
H1447 C1461 0.961 . S
H1448 C1462 0.960 . S
H1449 C1462 0.961 . S
H1450 C1462 0.959 . S
H1451 C1465 0.929 . S
H1452 C1466 0.923 1_554 S
H1453 C1468 0.930 . S
C1454 H1442 0.930 . S
C1454 C1455 1.399 . S
C1454 C1459 1.399 . S
C1455 C1454 1.399 . S
C1455 C1456 1.376 . S
C1456 H1443 0.930 . S
C1456 C1455 1.376 . S
C1456 C1457 1.388 . S
C1457 H1444 0.930 . S
C1457 C1456 1.388 . S
C1457 C1458 1.390 . S
C1458 C1457 1.390 . S
C1458 C1459 1.394 . S
C1458 C1464 1.465 . S
C1459 C1454 1.399 . S
C1459 C1458 1.394 . S
C1459 C1460 1.516 . S
C1460 C1459 1.516 . S
C1460 C1461 1.502 . S
C1460 C1462 1.561 . S
C1460 C1463 1.526 . S
C1461 H1445 0.959 . S
C1461 H1446 0.959 . S
C1461 H1447 0.961 . S
C1461 C1460 1.502 . S
C1462 H1448 0.960 . S
C1462 H1449 0.961 . S
C1462 H1450 0.959 . S
C1462 C1460 1.561 . S
C1463 C1460 1.526 . S
C1463 C1464 1.396 . S
C1463 C1468 1.390 . S
C1464 C1458 1.465 . S
C1464 C1463 1.396 . S
C1464 C1465 1.399 . S
C1465 H1451 0.929 . S
C1465 C1464 1.399 . S
C1465 C1466 1.385 . S
C1466 H1452 0.923 1_556 S
C1466 C1465 1.385 . S
C1466 C1467 1.389 . S
C1467 C1466 1.389 . S
C1467 C1468 1.387 . S
C1468 H1453 0.930 . S
C1468 C1463 1.390 . S
C1468 C1467 1.387 . S
H1469 C1481 0.930 . S
H1470 C1483 0.930 . S
H1471 C1484 0.930 . S
H1472 C1488 0.959 . S
H1473 C1488 0.959 . S
H1474 C1488 0.961 . S
H1475 C1489 0.960 . S
H1476 C1489 0.961 . S
H1477 C1489 0.959 . S
H1478 C1492 0.929 . S
H1479 C1493 0.931 . S
H1480 C1495 0.930 . S
C1481 H1469 0.930 . S
C1481 C1482 1.399 . S
C1481 C1486 1.399 . S
C1482 C1481 1.399 . S
C1482 C1483 1.376 . S
C1483 H1470 0.930 . S
C1483 C1482 1.376 . S
C1483 C1484 1.388 . S
C1484 H1471 0.930 . S
C1484 C1483 1.388 . S
C1484 C1485 1.390 . S
C1485 C1484 1.390 . S
C1485 C1486 1.394 . S
C1485 C1491 1.465 . S
C1486 C1481 1.399 . S
C1486 C1485 1.394 . S
C1486 C1487 1.516 . S
C1487 C1486 1.516 . S
C1487 C1488 1.502 . S
C1487 C1489 1.561 . S
C1487 C1490 1.526 . S
C1488 H1472 0.959 . S
C1488 H1473 0.959 . S
C1488 H1474 0.961 . S
C1488 C1487 1.502 . S
C1489 H1475 0.960 . S
C1489 H1476 0.961 . S
C1489 H1477 0.959 . S
C1489 C1487 1.561 . S
C1490 C1487 1.526 . S
C1490 C1491 1.396 . S
C1490 C1495 1.390 . S
C1491 C1485 1.465 . S
C1491 C1490 1.396 . S
C1491 C1492 1.399 . S
C1492 H1478 0.929 . S
C1492 C1491 1.399 . S
C1492 C1493 1.385 . S
C1493 H1479 0.931 . S
C1493 C1492 1.385 . S
C1493 C1494 1.389 . S
C1494 C1493 1.389 . S
C1494 C1495 1.387 . S
C1495 H1480 0.930 . S
C1495 C1490 1.390 . S
C1495 C1494 1.387 . S
H1496 C1508 0.930 . S
H1497 C1510 0.953 . S
H1498 C1511 0.930 . S
H1499 C1515 0.959 . S
H1500 C1515 0.959 . S
H1501 C1515 0.961 . S
H1502 C1516 0.960 . S
H1503 C1516 0.961 . S
H1504 C1516 0.959 . S
H1505 C1519 0.929 . S
H1506 C1520 0.931 . S
H1507 C1522 0.930 . S
C1508 H1496 0.930 . S
C1508 C1509 1.399 . S
C1508 C1513 1.399 . S
C1509 C1508 1.399 . S
C1509 C1510 1.348 1_545 S
C1510 H1497 0.953 . S
C1510 C1509 1.348 1_565 S
C1510 C1511 1.395 . S
C1511 H1498 0.930 . S
C1511 C1510 1.395 . S
C1511 C1512 1.390 1_565 S
C1512 C1511 1.390 1_545 S
C1512 C1513 1.394 . S
C1512 C1518 1.465 . S
C1513 C1508 1.399 . S
C1513 C1512 1.394 . S
C1513 C1514 1.516 . S
C1514 C1513 1.516 . S
C1514 C1515 1.502 . S
C1514 C1516 1.561 . S
C1514 C1517 1.526 . S
C1515 H1499 0.959 . S
C1515 H1500 0.959 . S
C1515 H1501 0.961 . S
C1515 C1514 1.502 . S
C1516 H1502 0.960 . S
C1516 H1503 0.961 . S
C1516 H1504 0.959 . S
C1516 C1514 1.561 . S
C1517 C1514 1.526 . S
C1517 C1518 1.396 . S
C1517 C1522 1.390 . S
C1518 C1512 1.465 . S
C1518 C1517 1.396 . S
C1518 C1519 1.399 1_545 S
C1519 H1505 0.929 . S
C1519 C1518 1.399 1_565 S
C1519 C1520 1.385 . S
C1520 H1506 0.931 . S
C1520 C1519 1.385 . S
C1520 C1521 1.389 1_565 S
C1521 C1520 1.389 1_545 S
C1521 C1522 1.387 . S
C1522 H1507 0.930 . S
C1522 C1517 1.390 . S
C1522 C1521 1.387 . S
H1523 C1535 0.930 . S
H1524 C1537 0.930 . S
H1525 C1538 0.930 . S
H1526 C1542 0.959 . S
H1527 C1542 0.959 . S
H1528 C1542 0.961 . S
H1529 C1543 0.960 . S
H1530 C1543 0.961 . S
H1531 C1543 0.959 . S
H1532 C1546 0.929 . S
H1533 C1547 0.931 . S
H1534 C1549 0.930 . S
C1535 H1523 0.930 . S
C1535 C1536 1.399 . S
C1535 C1540 1.399 . S
C1536 C1535 1.399 . S
C1536 C1537 1.376 . S
C1537 H1524 0.930 . S
C1537 C1536 1.376 . S
C1537 C1538 1.388 . S
C1538 H1525 0.930 . S
C1538 C1537 1.388 . S
C1538 C1539 1.390 . S
C1539 C1538 1.390 . S
C1539 C1540 1.394 . S
C1539 C1545 1.465 . S
C1540 C1535 1.399 . S
C1540 C1539 1.394 . S
C1540 C1541 1.516 . S
C1541 C1540 1.516 . S
C1541 C1542 1.502 . S
C1541 C1543 1.561 . S
C1541 C1544 1.526 . S
C1542 H1526 0.959 . S
C1542 H1527 0.959 . S
C1542 H1528 0.961 . S
C1542 C1541 1.502 . S
C1543 H1529 0.960 . S
C1543 H1530 0.961 . S
C1543 H1531 0.959 . S
C1543 C1541 1.561 . S
C1544 C1541 1.526 . S
C1544 C1545 1.396 . S
C1544 C1549 1.390 . S
C1545 C1539 1.465 . S
C1545 C1544 1.396 . S
C1545 C1546 1.399 . S
C1546 H1532 0.929 . S
C1546 C1545 1.399 . S
C1546 C1547 1.385 . S
C1547 H1533 0.931 . S
C1547 C1546 1.385 . S
C1547 C1548 1.389 . S
C1548 C1547 1.389 . S
C1548 C1549 1.387 . S
C1549 H1534 0.930 . S
C1549 C1544 1.390 . S
C1549 C1548 1.387 . S
H1550 C1562 0.930 . S
H1551 C1564 0.930 . S
H1552 C1565 0.930 . S
H1553 C1569 0.959 . S
H1554 C1569 0.959 . S
H1555 C1569 0.961 . S
H1556 C1570 0.960 . S
H1557 C1570 0.961 . S
H1558 C1570 0.959 . S
H1559 C1573 0.929 . S
H1560 C1574 0.931 . S
H1561 C1576 0.930 . S
C1562 H1550 0.930 . S
C1562 C1563 1.399 . S
C1562 C1567 1.399 . S
C1563 C1562 1.399 . S
C1563 C1564 1.376 1_545 S
C1564 H1551 0.930 . S
C1564 C1563 1.376 1_565 S
C1564 C1565 1.388 . S
C1565 H1552 0.930 . S
C1565 C1564 1.388 . S
C1565 C1566 1.390 1_565 S
C1566 C1565 1.390 1_545 S
C1566 C1567 1.394 . S
C1566 C1572 1.465 . S
C1567 C1562 1.399 . S
C1567 C1566 1.394 . S
C1567 C1568 1.516 . S
C1568 C1567 1.516 . S
C1568 C1569 1.502 . S
C1568 C1570 1.561 . S
C1568 C1571 1.526 . S
C1569 H1553 0.959 . S
C1569 H1554 0.959 . S
C1569 H1555 0.961 . S
C1569 C1568 1.502 . S
C1570 H1556 0.960 . S
C1570 H1557 0.961 . S
C1570 H1558 0.959 . S
C1570 C1568 1.561 . S
C1571 C1568 1.526 . S
C1571 C1572 1.396 . S
C1571 C1576 1.390 . S
C1572 C1566 1.465 . S
C1572 C1571 1.396 . S
C1572 C1573 1.399 1_545 S
C1573 H1559 0.929 . S
C1573 C1572 1.399 1_565 S
C1573 C1574 1.385 . S
C1574 H1560 0.931 . S
C1574 C1573 1.385 . S
C1574 C1575 1.389 1_565 S
C1575 C1574 1.389 1_545 S
C1575 C1576 1.387 . S
C1576 H1561 0.930 . S
C1576 C1571 1.390 . S
C1576 C1575 1.387 . S
H1577 C1589 0.930 . S
H1578 C1591 0.930 . S
H1579 C1592 0.930 . S
H1580 C1596 0.959 . S
H1581 C1596 0.959 . S
H1582 C1596 0.961 . S
H1583 C1597 0.960 . S
H1584 C1597 0.961 . S
H1585 C1597 0.959 . S
H1586 C1600 0.929 . S
H1587 C1601 0.931 . S
H1588 C1603 0.930 . S
C1589 H1577 0.930 . S
C1589 C1590 1.399 . S
C1589 C1594 1.399 . S
C1590 C1589 1.399 . S
C1590 C1591 1.376 . S
C1591 H1578 0.930 . S
C1591 C1590 1.376 . S
C1591 C1592 1.388 . S
C1592 H1579 0.930 . S
C1592 C1591 1.388 . S
C1592 C1593 1.390 . S
C1593 C1592 1.390 . S
C1593 C1594 1.394 . S
C1593 C1599 1.465 . S
C1594 C1589 1.399 . S
C1594 C1593 1.394 . S
C1594 C1595 1.516 . S
C1595 C1594 1.516 . S
C1595 C1596 1.502 . S
C1595 C1597 1.561 . S
C1595 C1598 1.526 . S
C1596 H1580 0.959 . S
C1596 H1581 0.959 . S
C1596 H1582 0.961 . S
C1596 C1595 1.502 . S
C1597 H1583 0.960 . S
C1597 H1584 0.961 . S
C1597 H1585 0.959 . S
C1597 C1595 1.561 . S
C1598 C1595 1.526 . S
C1598 C1599 1.396 . S
C1598 C1603 1.390 . S
C1599 C1593 1.465 . S
C1599 C1598 1.396 . S
C1599 C1600 1.399 . S
C1600 H1586 0.929 . S
C1600 C1599 1.399 . S
C1600 C1601 1.385 . S
C1601 H1587 0.931 . S
C1601 C1600 1.385 . S
C1601 C1602 1.389 . S
C1602 C1601 1.389 . S
C1602 C1603 1.387 . S
C1603 H1588 0.930 . S
C1603 C1598 1.390 . S
C1603 C1602 1.387 . S
H1604 C1616 0.930 . S
H1605 C1618 0.930 . S
H1606 C1619 0.930 . S
H1607 C1623 0.959 . S
H1608 C1623 0.959 . S
H1609 C1623 0.961 . S
H1610 C1624 0.960 . S
H1611 C1624 0.961 . S
H1612 C1624 0.959 . S
H1613 C1627 0.929 . S
H1614 C1628 0.931 . S
H1615 C1630 0.930 . S
C1616 H1604 0.930 . S
C1616 C1617 1.399 1_565 S
C1616 C1621 1.399 . S
C1617 C1616 1.399 1_545 S
C1617 C1618 1.376 . S
C1618 H1605 0.930 . S
C1618 C1617 1.376 . S
C1618 C1619 1.388 . S
C1619 H1606 0.930 . S
C1619 C1618 1.388 . S
C1619 C1620 1.390 . S
C1620 C1619 1.390 . S
C1620 C1621 1.394 1_545 S
C1620 C1626 1.465 . S
C1621 C1616 1.399 . S
C1621 C1620 1.394 1_565 S
C1621 C1622 1.516 . S
C1622 C1621 1.516 . S
C1622 C1623 1.502 . S
C1622 C1624 1.561 . S
C1622 C1625 1.526 . S
C1623 H1607 0.959 . S
C1623 H1608 0.959 . S
C1623 H1609 0.961 . S
C1623 C1622 1.502 . S
C1624 H1610 0.960 . S
C1624 H1611 0.961 . S
C1624 H1612 0.959 . S
C1624 C1622 1.561 . S
C1625 C1622 1.526 . S
C1625 C1626 1.396 1_565 S
C1625 C1630 1.390 . S
C1626 C1620 1.465 . S
C1626 C1625 1.396 1_545 S
C1626 C1627 1.399 . S
C1627 H1613 0.929 . S
C1627 C1626 1.399 . S
C1627 C1628 1.385 . S
C1628 H1614 0.931 . S
C1628 C1627 1.385 . S
C1628 C1629 1.389 . S
C1629 C1628 1.389 . S
C1629 C1630 1.387 1_545 S
C1630 H1615 0.930 . S
C1630 C1625 1.390 . S
C1630 C1629 1.387 1_565 S
H1631 C1643 0.930 . S
H1632 C1645 0.930 . S
H1633 C1646 0.930 . S
H1634 C1650 0.959 . S
H1635 C1650 0.959 . S
H1636 C1650 0.961 . S
H1637 C1651 0.960 . S
H1638 C1651 0.961 . S
H1639 C1651 0.959 . S
H1640 C1654 0.929 . S
H1641 C1655 0.931 . S
H1642 C1657 0.930 . S
C1643 H1631 0.930 . S
C1643 C1644 1.399 . S
C1643 C1648 1.399 . S
C1644 C1643 1.399 . S
C1644 C1645 1.376 . S
C1645 H1632 0.930 . S
C1645 C1644 1.376 . S
C1645 C1646 1.388 . S
C1646 H1633 0.930 . S
C1646 C1645 1.388 . S
C1646 C1647 1.390 . S
C1647 C1646 1.390 . S
C1647 C1648 1.394 . S
C1647 C1653 1.465 . S
C1648 C1643 1.399 . S
C1648 C1647 1.394 . S
C1648 C1649 1.516 . S
C1649 C1648 1.516 . S
C1649 C1650 1.502 . S
C1649 C1651 1.561 . S
C1649 C1652 1.526 . S
C1650 H1634 0.959 . S
C1650 H1635 0.959 . S
C1650 H1636 0.961 . S
C1650 C1649 1.502 . S
C1651 H1637 0.960 . S
C1651 H1638 0.961 . S
C1651 H1639 0.959 . S
C1651 C1649 1.561 . S
C1652 C1649 1.526 . S
C1652 C1653 1.396 . S
C1652 C1657 1.390 . S
C1653 C1647 1.465 . S
C1653 C1652 1.396 . S
C1653 C1654 1.399 . S
C1654 H1640 0.929 . S
C1654 C1653 1.399 . S
C1654 C1655 1.385 . S
C1655 H1641 0.931 . S
C1655 C1654 1.385 . S
C1655 C1656 1.389 . S
C1656 C1655 1.389 . S
C1656 C1657 1.387 . S
C1657 H1642 0.930 . S
C1657 C1652 1.390 . S
C1657 C1656 1.387 . S
H1658 C1670 0.930 . S
H1659 C1672 0.930 . S
H1660 C1673 0.930 . S
H1661 C1677 0.959 1_545 S
H1662 C1677 0.959 . S
H1663 C1677 0.961 . S
H1664 C1678 0.960 . S
H1665 C1678 0.961 . S
H1666 C1678 0.959 . S
H1667 C1681 0.929 . S
H1668 C1682 0.931 . S
H1669 C1684 0.930 1_565 S
C1670 H1658 0.930 . S
C1670 C1671 1.399 . S
C1670 C1675 1.399 . S
C1671 C1670 1.399 . S
C1671 C1672 1.376 . S
C1672 H1659 0.930 . S
C1672 C1671 1.376 . S
C1672 C1673 1.388 . S
C1673 H1660 0.930 . S
C1673 C1672 1.388 . S
C1673 C1674 1.390 . S
C1674 C1673 1.390 . S
C1674 C1675 1.394 . S
C1674 C1680 1.465 . S
C1675 C1670 1.399 . S
C1675 C1674 1.394 . S
C1675 C1676 1.516 1_545 S
C1676 C1675 1.516 1_565 S
C1676 C1677 1.502 . S
C1676 C1678 1.561 . S
C1676 C1679 1.526 1_565 S
C1677 H1661 0.959 1_565 S
C1677 H1662 0.959 . S
C1677 H1663 0.961 . S
C1677 C1676 1.502 . S
C1678 H1664 0.960 . S
C1678 H1665 0.961 . S
C1678 H1666 0.959 . S
C1678 C1676 1.561 . S
C1679 C1676 1.526 1_545 S
C1679 C1680 1.396 . S
C1679 C1684 1.390 . S
C1680 C1674 1.465 . S
C1680 C1679 1.396 . S
C1680 C1681 1.399 . S
C1681 H1667 0.929 . S
C1681 C1680 1.399 . S
C1681 C1682 1.385 . S
C1682 H1668 0.931 . S
C1682 C1681 1.385 . S
C1682 C1683 1.389 . S
C1683 C1682 1.389 . S
C1683 C1684 1.387 . S
C1684 H1669 0.930 1_545 S
C1684 C1679 1.390 . S
C1684 C1683 1.387 . S
H1685 C1697 0.930 . S
H1686 C1699 0.930 . S
H1687 C1700 0.930 . S
H1688 C1704 0.959 . S
H1689 C1704 0.959 . S
H1690 C1704 0.961 . S
H1691 C1705 0.960 . S
H1692 C1705 0.961 . S
H1693 C1705 0.959 . S
H1694 C1708 0.929 . S
H1695 C1709 0.931 . S
H1696 C1711 0.930 . S
C1697 H1685 0.930 . S
C1697 C1698 1.399 . S
C1697 C1702 1.399 . S
C1698 C1697 1.399 . S
C1698 C1699 1.376 . S
C1699 H1686 0.930 . S
C1699 C1698 1.376 . S
C1699 C1700 1.388 . S
C1700 H1687 0.930 . S
C1700 C1699 1.388 . S
C1700 C1701 1.390 . S
C1701 C1700 1.390 . S
C1701 C1702 1.394 . S
C1701 C1707 1.465 . S
C1702 C1697 1.399 . S
C1702 C1701 1.394 . S
C1702 C1703 1.516 . S
C1703 C1702 1.516 . S
C1703 C1704 1.502 . S
C1703 C1705 1.561 . S
C1703 C1706 1.526 . S
C1704 H1688 0.959 . S
C1704 H1689 0.959 . S
C1704 H1690 0.961 . S
C1704 C1703 1.502 . S
C1705 H1691 0.960 . S
C1705 H1692 0.961 . S
C1705 H1693 0.959 . S
C1705 C1703 1.561 . S
C1706 C1703 1.526 . S
C1706 C1707 1.396 . S
C1706 C1711 1.390 . S
C1707 C1701 1.465 . S
C1707 C1706 1.396 . S
C1707 C1708 1.399 . S
C1708 H1694 0.929 . S
C1708 C1707 1.399 . S
C1708 C1709 1.385 . S
C1709 H1695 0.931 . S
C1709 C1708 1.385 . S
C1709 C1710 1.389 . S
C1710 C1709 1.389 . S
C1710 C1711 1.387 . S
C1711 H1696 0.930 . S
C1711 C1706 1.390 . S
C1711 C1710 1.387 . S
H1712 C1724 0.930 . S
H1713 C1726 0.930 . S
H1714 C1727 0.930 . S
H1715 C1731 0.972 . S
H1716 C1731 0.959 . S
H1717 C1731 0.961 . S
H1718 C1732 0.960 . S
H1719 C1732 0.961 . S
H1720 C1732 0.959 . S
H1721 C1735 0.929 . S
H1722 C1736 0.931 . S
H1723 C1738 0.930 1_556 S
C1724 H1712 0.930 . S
C1724 C1725 1.399 . S
C1724 C1729 1.399 . S
C1725 C1724 1.399 . S
C1725 C1726 1.376 . S
C1726 H1713 0.930 . S
C1726 C1725 1.376 . S
C1726 C1727 1.388 . S
C1727 H1714 0.930 . S
C1727 C1726 1.388 . S
C1727 C1728 1.390 . S
C1728 C1727 1.390 . S
C1728 C1729 1.394 . S
C1728 C1734 1.465 . S
C1729 C1724 1.399 . S
C1729 C1728 1.394 . S
C1729 C1730 1.516 1_554 S
C1730 C1729 1.516 1_556 S
C1730 C1731 1.502 . S
C1730 C1732 1.561 . S
C1730 C1733 1.526 1_556 S
C1731 H1715 0.972 . S
C1731 H1716 0.959 . S
C1731 H1717 0.961 . S
C1731 C1730 1.502 . S
C1732 H1718 0.960 . S
C1732 H1719 0.961 . S
C1732 H1720 0.959 . S
C1732 C1730 1.561 . S
C1733 C1730 1.526 1_554 S
C1733 C1734 1.396 . S
C1733 C1738 1.390 . S
C1734 C1728 1.465 . S
C1734 C1733 1.396 . S
C1734 C1735 1.399 . S
C1735 H1721 0.929 . S
C1735 C1734 1.399 . S
C1735 C1736 1.385 . S
C1736 H1722 0.931 . S
C1736 C1735 1.385 . S
C1736 C1737 1.389 . S
C1737 C1736 1.389 . S
C1737 C1738 1.387 . S
C1738 H1723 0.930 1_554 S
C1738 C1733 1.390 . S
C1738 C1737 1.387 . S
H1739 C1751 0.930 . S
H1740 C1753 0.930 . S
H1741 C1754 0.930 . S
H1742 C1758 0.985 . S
H1743 C1758 0.959 . S
H1744 C1758 0.961 . S
H1745 C1759 0.960 . S
H1746 C1759 0.961 . S
H1747 C1759 0.959 . S
H1748 C1762 0.929 . S
H1749 C1763 0.931 . S
H1750 C1765 0.930 1_556 S
C1751 H1739 0.930 . S
C1751 C1752 1.399 . S
C1751 C1756 1.399 . S
C1752 C1751 1.399 . S
C1752 C1753 1.376 . S
C1753 H1740 0.930 . S
C1753 C1752 1.376 . S
C1753 C1754 1.388 . S
C1754 H1741 0.930 . S
C1754 C1753 1.388 . S
C1754 C1755 1.390 . S
C1755 C1754 1.390 . S
C1755 C1756 1.394 . S
C1755 C1761 1.465 . S
C1756 C1751 1.399 . S
C1756 C1755 1.394 . S
C1756 C1757 1.516 . S
C1757 C1756 1.516 . S
C1757 C1758 1.502 1_554 S
C1757 C1759 1.561 1_554 S
C1757 C1760 1.526 . S
C1758 H1742 0.985 . S
C1758 H1743 0.959 . S
C1758 H1744 0.961 . S
C1758 C1757 1.502 1_556 S
C1759 H1745 0.960 . S
C1759 H1746 0.961 . S
C1759 H1747 0.959 . S
C1759 C1757 1.561 1_556 S
C1760 C1757 1.526 . S
C1760 C1761 1.396 . S
C1760 C1765 1.390 . S
C1761 C1755 1.465 . S
C1761 C1760 1.396 . S
C1761 C1762 1.399 . S
C1762 H1748 0.929 . S
C1762 C1761 1.399 . S
C1762 C1763 1.385 . S
C1763 H1749 0.931 . S
C1763 C1762 1.385 . S
C1763 C1764 1.389 . S
C1764 C1763 1.389 . S
C1764 C1765 1.387 . S
C1765 H1750 0.930 1_554 S
C1765 C1760 1.390 . S
C1765 C1764 1.387 . S
H1766 C1778 0.930 . S
H1767 C1780 0.930 . S
H1768 C1781 0.930 . S
H1769 C1785 0.959 . S
H1770 C1785 0.959 . S
H1771 C1785 0.961 . S
H1772 C1786 0.960 . S
H1773 C1786 0.961 . S
H1774 C1786 0.959 . S
H1775 C1789 0.929 . S
H1776 C1790 0.931 . S
H1777 C1792 0.930 . S
C1778 H1766 0.930 . S
C1778 C1779 1.399 . S
C1778 C1783 1.399 . S
C1779 C1778 1.399 . S
C1779 C1780 1.376 . S
C1780 H1767 0.930 . S
C1780 C1779 1.376 . S
C1780 C1781 1.388 . S
C1781 H1768 0.930 . S
C1781 C1780 1.388 . S
C1781 C1782 1.390 . S
C1782 C1781 1.390 . S
C1782 C1783 1.394 . S
C1782 C1788 1.465 . S
C1783 C1778 1.399 . S
C1783 C1782 1.394 . S
C1783 C1784 1.516 . S
C1784 C1783 1.516 . S
C1784 C1785 1.502 . S
C1784 C1786 1.561 . S
C1784 C1787 1.526 . S
C1785 H1769 0.959 . S
C1785 H1770 0.959 . S
C1785 H1771 0.961 . S
C1785 C1784 1.502 . S
C1786 H1772 0.960 . S
C1786 H1773 0.961 . S
C1786 H1774 0.959 . S
C1786 C1784 1.561 . S
C1787 C1784 1.526 . S
C1787 C1788 1.396 . S
C1787 C1792 1.390 . S
C1788 C1782 1.465 . S
C1788 C1787 1.396 . S
C1788 C1789 1.399 . S
C1789 H1775 0.929 . S
C1789 C1788 1.399 . S
C1789 C1790 1.385 . S
C1790 H1776 0.931 . S
C1790 C1789 1.385 . S
C1790 C1791 1.389 . S
C1791 C1790 1.389 . S
C1791 C1792 1.387 . S
C1792 H1777 0.930 . S
C1792 C1787 1.390 . S
C1792 C1791 1.387 . S
H1793 C1805 0.930 . S
H1794 C1807 0.930 . S
H1795 C1808 0.930 . S
H1796 C1812 0.959 . S
H1797 C1812 0.959 . S
H1798 C1812 0.961 . S
H1799 C1813 0.960 . S
H1800 C1813 0.961 . S
H1801 C1813 0.959 . S
H1802 C1816 0.929 . S
H1803 C1817 0.931 . S
H1804 C1819 0.930 . S
C1805 H1793 0.930 . S
C1805 C1806 1.399 . S
C1805 C1810 1.399 . S
C1806 C1805 1.399 . S
C1806 C1807 1.376 . S
C1807 H1794 0.930 . S
C1807 C1806 1.376 . S
C1807 C1808 1.388 . S
C1808 H1795 0.930 . S
C1808 C1807 1.388 . S
C1808 C1809 1.390 . S
C1809 C1808 1.390 . S
C1809 C1810 1.394 . S
C1809 C1815 1.465 . S
C1810 C1805 1.399 . S
C1810 C1809 1.394 . S
C1810 C1811 1.516 . S
C1811 C1810 1.516 . S
C1811 C1812 1.502 . S
C1811 C1813 1.561 . S
C1811 C1814 1.526 . S
C1812 H1796 0.959 . S
C1812 H1797 0.959 . S
C1812 H1798 0.961 . S
C1812 C1811 1.502 . S
C1813 H1799 0.960 . S
C1813 H1800 0.961 . S
C1813 H1801 0.959 . S
C1813 C1811 1.561 . S
C1814 C1811 1.526 . S
C1814 C1815 1.396 . S
C1814 C1819 1.390 . S
C1815 C1809 1.465 . S
C1815 C1814 1.396 . S
C1815 C1816 1.399 . S
C1816 H1802 0.929 . S
C1816 C1815 1.399 . S
C1816 C1817 1.385 . S
C1817 H1803 0.931 . S
C1817 C1816 1.385 . S
C1817 C1818 1.389 . S
C1818 C1817 1.389 . S
C1818 C1819 1.387 . S
C1819 H1804 0.930 . S
C1819 C1814 1.390 . S
C1819 C1818 1.387 . S
H1820 C1832 0.930 . S
H1821 C1834 0.930 . S
H1822 C1835 0.930 . S
H1823 C1839 0.959 . S
H1824 C1839 0.959 . S
H1825 C1839 0.961 . S
H1826 C1840 0.960 . S
H1827 C1840 0.961 . S
H1828 C1840 0.959 . S
H1829 C1843 0.929 . S
H1830 C1844 0.931 . S
H1831 C1846 0.930 . S
C1832 H1820 0.930 . S
C1832 C1833 1.399 . S
C1832 C1837 1.399 . S
C1833 C1832 1.399 . S
C1833 C1834 1.376 . S
C1834 H1821 0.930 . S
C1834 C1833 1.376 . S
C1834 C1835 1.388 . S
C1835 H1822 0.930 . S
C1835 C1834 1.388 . S
C1835 C1836 1.390 . S
C1836 C1835 1.390 . S
C1836 C1837 1.394 . S
C1836 C1842 1.465 . S
C1837 C1832 1.399 . S
C1837 C1836 1.394 . S
C1837 C1838 1.516 . S
C1838 C1837 1.516 . S
C1838 C1839 1.502 . S
C1838 C1840 1.561 . S
C1838 C1841 1.526 . S
C1839 H1823 0.959 . S
C1839 H1824 0.959 . S
C1839 H1825 0.961 . S
C1839 C1838 1.502 . S
C1840 H1826 0.960 . S
C1840 H1827 0.961 . S
C1840 H1828 0.959 . S
C1840 C1838 1.561 . S
C1841 C1838 1.526 . S
C1841 C1842 1.396 . S
C1841 C1846 1.390 . S
C1842 C1836 1.465 . S
C1842 C1841 1.396 . S
C1842 C1843 1.399 . S
C1843 H1829 0.929 . S
C1843 C1842 1.399 . S
C1843 C1844 1.385 . S
C1844 H1830 0.931 . S
C1844 C1843 1.385 . S
C1844 C1845 1.389 . S
C1845 C1844 1.389 . S
C1845 C1846 1.387 . S
C1846 H1831 0.930 . S
C1846 C1841 1.390 . S
C1846 C1845 1.387 . S
H1847 C1859 0.930 . S
H1848 C1861 0.930 . S
H1849 C1862 0.930 . S
H1850 C1866 0.959 . S
H1851 C1866 0.959 . S
H1852 C1866 0.961 . S
H1853 C1867 0.960 . S
H1854 C1867 0.961 . S
H1855 C1867 0.959 . S
H1856 C1870 0.929 . S
H1857 C1871 0.931 . S
H1858 C1873 0.930 . S
C1859 H1847 0.930 . S
C1859 C1860 1.399 . S
C1859 C1864 1.399 . S
C1860 C1859 1.399 . S
C1860 C1861 1.376 . S
C1861 H1848 0.930 . S
C1861 C1860 1.376 . S
C1861 C1862 1.388 . S
C1862 H1849 0.930 . S
C1862 C1861 1.388 . S
C1862 C1863 1.390 . S
C1863 C1862 1.390 . S
C1863 C1864 1.394 . S
C1863 C1869 1.465 . S
C1864 C1859 1.399 . S
C1864 C1863 1.394 . S
C1864 C1865 1.516 . S
C1865 C1864 1.516 . S
C1865 C1866 1.502 . S
C1865 C1867 1.561 . S
C1865 C1868 1.526 . S
C1866 H1850 0.959 . S
C1866 H1851 0.959 . S
C1866 H1852 0.961 . S
C1866 C1865 1.502 . S
C1867 H1853 0.960 . S
C1867 H1854 0.961 . S
C1867 H1855 0.959 . S
C1867 C1865 1.561 . S
C1868 C1865 1.526 . S
C1868 C1869 1.396 . S
C1868 C1873 1.390 . S
C1869 C1863 1.465 . S
C1869 C1868 1.396 . S
C1869 C1870 1.399 . S
C1870 H1856 0.929 . S
C1870 C1869 1.399 . S
C1870 C1871 1.385 . S
C1871 H1857 0.931 . S
C1871 C1870 1.385 . S
C1871 C1872 1.389 . S
C1872 C1871 1.389 . S
C1872 C1873 1.387 . S
C1873 H1858 0.930 . S
C1873 C1868 1.390 . S
C1873 C1872 1.387 . S
H1874 C1886 0.930 . S
H1875 C1888 0.930 . S
H1876 C1889 0.930 . S
H1877 C1893 0.959 . S
H1878 C1893 0.959 . S
H1879 C1893 0.961 . S
H1880 C1894 0.960 . S
H1881 C1894 0.961 . S
H1882 C1894 0.959 . S
H1883 C1897 0.929 . S
H1884 C1898 0.931 . S
H1885 C1900 0.930 . S
C1886 H1874 0.930 . S
C1886 C1887 1.399 . S
C1886 C1891 1.399 . S
C1887 C1886 1.399 . S
C1887 C1888 1.376 . S
C1888 H1875 0.930 . S
C1888 C1887 1.376 . S
C1888 C1889 1.388 . S
C1889 H1876 0.930 . S
C1889 C1888 1.388 . S
C1889 C1890 1.390 . S
C1890 C1889 1.390 . S
C1890 C1891 1.394 . S
C1890 C1896 1.465 . S
C1891 C1886 1.399 . S
C1891 C1890 1.394 . S
C1891 C1892 1.516 . S
C1892 C1891 1.516 . S
C1892 C1893 1.502 . S
C1892 C1894 1.561 . S
C1892 C1895 1.526 . S
C1893 H1877 0.959 . S
C1893 H1878 0.959 . S
C1893 H1879 0.961 . S
C1893 C1892 1.502 . S
C1894 H1880 0.960 . S
C1894 H1881 0.961 . S
C1894 H1882 0.959 . S
C1894 C1892 1.561 . S
C1895 C1892 1.526 . S
C1895 C1896 1.396 . S
C1895 C1900 1.390 . S
C1896 C1890 1.465 . S
C1896 C1895 1.396 . S
C1896 C1897 1.399 . S
C1897 H1883 0.929 . S
C1897 C1896 1.399 . S
C1897 C1898 1.385 . S
C1898 H1884 0.931 . S
C1898 C1897 1.385 . S
C1898 C1899 1.389 . S
C1899 C1898 1.389 . S
C1899 C1900 1.387 . S
C1900 H1885 0.930 . S
C1900 C1895 1.390 . S
C1900 C1899 1.387 . S
H1901 C1913 0.930 . S
H1902 C1915 0.930 . S
H1903 C1916 0.930 . S
H1904 C1920 0.959 . S
H1905 C1920 0.959 . S
H1906 C1920 0.961 . S
H1907 C1921 0.960 . S
H1908 C1921 0.961 . S
H1909 C1921 0.959 . S
H1910 C1924 0.929 . S
H1911 C1925 0.931 . S
H1912 C1927 0.930 . S
C1913 H1901 0.930 . S
C1913 C1914 1.399 . S
C1913 C1918 1.399 . S
C1914 C1913 1.399 . S
C1914 C1915 1.376 . S
C1915 H1902 0.930 . S
C1915 C1914 1.376 . S
C1915 C1916 1.388 . S
C1916 H1903 0.930 . S
C1916 C1915 1.388 . S
C1916 C1917 1.390 . S
C1917 C1916 1.390 . S
C1917 C1918 1.394 . S
C1917 C1923 1.465 . S
C1918 C1913 1.399 . S
C1918 C1917 1.394 . S
C1918 C1919 1.516 . S
C1919 C1918 1.516 . S
C1919 C1920 1.502 . S
C1919 C1921 1.561 . S
C1919 C1922 1.526 . S
C1920 H1904 0.959 . S
C1920 H1905 0.959 . S
C1920 H1906 0.961 . S
C1920 C1919 1.502 . S
C1921 H1907 0.960 . S
C1921 H1908 0.961 . S
C1921 H1909 0.959 . S
C1921 C1919 1.561 . S
C1922 C1919 1.526 . S
C1922 C1923 1.396 . S
C1922 C1927 1.390 . S
C1923 C1917 1.465 . S
C1923 C1922 1.396 . S
C1923 C1924 1.399 . S
C1924 H1910 0.929 . S
C1924 C1923 1.399 . S
C1924 C1925 1.385 . S
C1925 H1911 0.931 . S
C1925 C1924 1.385 . S
C1925 C1926 1.389 . S
C1926 C1925 1.389 . S
C1926 C1927 1.387 . S
C1927 H1912 0.930 . S
C1927 C1922 1.390 . S
C1927 C1926 1.387 . S
H1928 C1940 0.930 . S
H1929 C1942 0.930 . S
H1930 C1943 0.930 . S
H1931 C1947 0.959 . S
H1932 C1947 0.959 . S
H1933 C1947 0.961 . S
H1934 C1948 0.960 . S
H1935 C1948 0.961 . S
H1936 C1948 0.959 . S
H1937 C1951 0.929 . S
H1938 C1952 0.931 . S
H1939 C1954 0.930 . S
C1940 H1928 0.930 . S
C1940 C1941 1.399 . S
C1940 C1945 1.399 . S
C1941 C1940 1.399 . S
C1941 C1942 1.376 . S
C1942 H1929 0.930 . S
C1942 C1941 1.376 . S
C1942 C1943 1.388 . S
C1943 H1930 0.930 . S
C1943 C1942 1.388 . S
C1943 C1944 1.390 . S
C1944 C1943 1.390 . S
C1944 C1945 1.394 . S
C1944 C1950 1.465 . S
C1945 C1940 1.399 . S
C1945 C1944 1.394 . S
C1945 C1946 1.516 . S
C1946 C1945 1.516 . S
C1946 C1947 1.502 . S
C1946 C1948 1.561 . S
C1946 C1949 1.526 . S
C1947 H1931 0.959 . S
C1947 H1932 0.959 . S
C1947 H1933 0.961 . S
C1947 C1946 1.502 . S
C1948 H1934 0.960 . S
C1948 H1935 0.961 . S
C1948 H1936 0.959 . S
C1948 C1946 1.561 . S
C1949 C1946 1.526 . S
C1949 C1950 1.396 . S
C1949 C1954 1.390 . S
C1950 C1944 1.465 . S
C1950 C1949 1.396 . S
C1950 C1951 1.399 . S
C1951 H1937 0.929 . S
C1951 C1950 1.399 . S
C1951 C1952 1.385 . S
C1952 H1938 0.931 . S
C1952 C1951 1.385 . S
C1952 C1953 1.389 . S
C1953 C1952 1.389 . S
C1953 C1954 1.387 . S
C1954 H1939 0.930 . S
C1954 C1949 1.390 . S
C1954 C1953 1.387 . S
H1955 C1967 0.930 . S
H1956 C1969 0.930 . S
H1957 C1970 0.930 . S
H1958 C1974 0.959 . S
H1959 C1974 0.959 . S
H1960 C1974 0.961 . S
H1961 C1975 0.960 . S
H1962 C1975 0.961 . S
H1963 C1975 0.959 . S
H1964 C1978 0.929 . S
H1965 C1979 0.931 . S
H1966 C1981 0.930 . S
C1967 H1955 0.930 . S
C1967 C1968 1.399 . S
C1967 C1972 1.399 . S
C1968 C1967 1.399 . S
C1968 C1969 1.376 . S
C1969 H1956 0.930 . S
C1969 C1968 1.376 . S
C1969 C1970 1.388 . S
C1970 H1957 0.930 . S
C1970 C1969 1.388 . S
C1970 C1971 1.390 . S
C1971 C1970 1.390 . S
C1971 C1972 1.394 . S
C1971 C1977 1.465 . S
C1972 C1967 1.399 . S
C1972 C1971 1.394 . S
C1972 C1973 1.516 . S
C1973 C1972 1.516 . S
C1973 C1974 1.502 . S
C1973 C1975 1.561 . S
C1973 C1976 1.526 . S
C1974 H1958 0.959 . S
C1974 H1959 0.959 . S
C1974 H1960 0.961 . S
C1974 C1973 1.502 . S
C1975 H1961 0.960 . S
C1975 H1962 0.961 . S
C1975 H1963 0.959 . S
C1975 C1973 1.561 . S
C1976 C1973 1.526 . S
C1976 C1977 1.396 . S
C1976 C1981 1.390 . S
C1977 C1971 1.465 . S
C1977 C1976 1.396 . S
C1977 C1978 1.399 . S
C1978 H1964 0.929 . S
C1978 C1977 1.399 . S
C1978 C1979 1.385 . S
C1979 H1965 0.931 . S
C1979 C1978 1.385 . S
C1979 C1980 1.389 . S
C1980 C1979 1.389 . S
C1980 C1981 1.387 . S
C1981 H1966 0.930 . S
C1981 C1976 1.390 . S
C1981 C1980 1.387 . S
H1982 C1994 0.930 . S
H1983 C1996 0.930 . S
H1984 C1997 0.930 . S
H1985 C2001 0.959 1_554 S
H1986 C2001 0.939 1_554 S
H1987 C2001 0.961 . S
H1988 C2002 0.960 . S
H1989 C2002 0.961 . S
H1990 C2002 0.959 . S
H1991 C2005 0.929 . S
H1992 C2006 0.931 . S
H1993 C2008 0.930 1_554 S
C1994 H1982 0.930 . S
C1994 C1995 1.399 . S
C1994 C1999 1.399 . S
C1995 C1994 1.399 . S
C1995 C1996 1.376 1_455 S
C1996 H1983 0.930 . S
C1996 C1995 1.376 1_655 S
C1996 C1997 1.388 . S
C1997 H1984 0.930 . S
C1997 C1996 1.388 . S
C1997 C1998 1.390 . S
C1998 C1997 1.390 . S
C1998 C1999 1.394 1_655 S
C1998 C2004 1.465 . S
C1999 C1994 1.399 . S
C1999 C1998 1.394 1_455 S
C1999 C2000 1.516 . S
C2000 C1999 1.516 . S
C2000 C2001 1.502 . S
C2000 C2002 1.561 . S
C2000 C2003 1.526 . S
C2001 H1985 0.959 1_556 S
C2001 H1986 0.939 1_556 S
C2001 H1987 0.961 . S
C2001 C2000 1.502 . S
C2002 H1988 0.960 . S
C2002 H1989 0.961 . S
C2002 H1990 0.959 . S
C2002 C2000 1.561 . S
C2003 C2000 1.526 . S
C2003 C2004 1.396 1_455 S
C2003 C2008 1.390 . S
C2004 C1998 1.465 . S
C2004 C2003 1.396 1_655 S
C2004 C2005 1.399 . S
C2005 H1991 0.929 . S
C2005 C2004 1.399 . S
C2005 C2006 1.385 . S
C2006 H1992 0.931 . S
C2006 C2005 1.385 . S
C2006 C2007 1.416 1_556 S
C2007 C2006 1.416 1_554 S
C2007 C2008 1.359 1_654 S
C2008 H1993 0.930 1_556 S
C2008 C2003 1.390 . S
C2008 C2007 1.359 1_456 S
H2009 C2021 0.930 . S
H2010 C2023 0.930 . S
H2011 C2024 0.930 . S
H2012 C2028 0.959 . S
H2013 C2028 0.959 . S
H2014 C2028 0.961 . S
H2015 C2029 0.960 . S
H2016 C2029 0.961 . S
H2017 C2029 0.959 . S
H2018 C2032 0.929 . S
H2019 C2033 0.931 . S
H2020 C2035 0.930 . S
C2021 H2009 0.930 . S
C2021 C2022 1.399 . S
C2021 C2026 1.399 . S
C2022 C2021 1.399 . S
C2022 C2023 1.376 . S
C2023 H2010 0.930 . S
C2023 C2022 1.376 . S
C2023 C2024 1.388 . S
C2024 H2011 0.930 . S
C2024 C2023 1.388 . S
C2024 C2025 1.390 . S
C2025 C2024 1.390 . S
C2025 C2026 1.394 . S
C2025 C2031 1.465 . S
C2026 C2021 1.399 . S
C2026 C2025 1.394 . S
C2026 C2027 1.516 . S
C2027 C2026 1.516 . S
C2027 C2028 1.502 . S
C2027 C2029 1.561 . S
C2027 C2030 1.526 . S
C2028 H2012 0.959 . S
C2028 H2013 0.959 . S
C2028 H2014 0.961 . S
C2028 C2027 1.502 . S
C2029 H2015 0.960 . S
C2029 H2016 0.961 . S
C2029 H2017 0.959 . S
C2029 C2027 1.561 . S
C2030 C2027 1.526 . S
C2030 C2031 1.396 . S
C2030 C2035 1.390 . S
C2031 C2025 1.465 . S
C2031 C2030 1.396 . S
C2031 C2032 1.399 . S
C2032 H2018 0.929 . S
C2032 C2031 1.399 . S
C2032 C2033 1.385 . S
C2033 H2019 0.931 . S
C2033 C2032 1.385 . S
C2033 C2034 1.389 . S
C2034 C2033 1.389 . S
C2034 C2035 1.387 . S
C2035 H2020 0.930 . S
C2035 C2030 1.390 . S
C2035 C2034 1.387 . S
H2036 C2048 0.930 . S
H2037 C2050 0.930 . S
H2038 C2051 0.930 . S
H2039 C2055 0.959 . S
H2040 C2055 0.959 . S
H2041 C2055 0.961 . S
H2042 C2056 0.960 . S
H2043 C2056 0.961 . S
H2044 C2056 0.959 . S
H2045 C2059 0.929 . S
H2046 C2060 0.931 . S
H2047 C2062 0.930 . S
C2048 H2036 0.930 . S
C2048 C2049 1.399 . S
C2048 C2053 1.399 . S
C2049 C2048 1.399 . S
C2049 C2050 1.376 . S
C2050 H2037 0.930 . S
C2050 C2049 1.376 . S
C2050 C2051 1.388 . S
C2051 H2038 0.930 . S
C2051 C2050 1.388 . S
C2051 C2052 1.390 . S
C2052 C2051 1.390 . S
C2052 C2053 1.394 . S
C2052 C2058 1.465 . S
C2053 C2048 1.399 . S
C2053 C2052 1.394 . S
C2053 C2054 1.516 . S
C2054 C2053 1.516 . S
C2054 C2055 1.502 . S
C2054 C2056 1.561 . S
C2054 C2057 1.526 . S
C2055 H2039 0.959 . S
C2055 H2040 0.959 . S
C2055 H2041 0.961 . S
C2055 C2054 1.502 . S
C2056 H2042 0.960 . S
C2056 H2043 0.961 . S
C2056 H2044 0.959 . S
C2056 C2054 1.561 . S
C2057 C2054 1.526 . S
C2057 C2058 1.396 . S
C2057 C2062 1.390 . S
C2058 C2052 1.465 . S
C2058 C2057 1.396 . S
C2058 C2059 1.399 . S
C2059 H2045 0.929 . S
C2059 C2058 1.399 . S
C2059 C2060 1.385 . S
C2060 H2046 0.931 . S
C2060 C2059 1.385 . S
C2060 C2061 1.389 . S
C2061 C2060 1.389 . S
C2061 C2062 1.387 . S
C2062 H2047 0.930 . S
C2062 C2057 1.390 . S
C2062 C2061 1.387 . S
H2063 C2075 0.930 . S
H2064 C2077 0.930 . S
H2065 C2078 0.930 . S
H2066 C2082 0.959 . S
H2067 C2082 0.959 . S
H2068 C2082 0.961 . S
H2069 C2083 0.960 . S
H2070 C2083 0.961 . S
H2071 C2083 0.959 . S
H2072 C2086 0.929 . S
H2073 C2087 0.931 . S
H2074 C2089 0.930 . S
C2075 H2063 0.930 . S
C2075 C2076 1.399 . S
C2075 C2080 1.399 . S
C2076 C2075 1.399 . S
C2076 C2077 1.376 . S
C2077 H2064 0.930 . S
C2077 C2076 1.376 . S
C2077 C2078 1.388 . S
C2078 H2065 0.930 . S
C2078 C2077 1.388 . S
C2078 C2079 1.390 . S
C2079 C2078 1.390 . S
C2079 C2080 1.394 . S
C2079 C2085 1.465 . S
C2080 C2075 1.399 . S
C2080 C2079 1.394 . S
C2080 C2081 1.516 . S
C2081 C2080 1.516 . S
C2081 C2082 1.502 . S
C2081 C2083 1.561 . S
C2081 C2084 1.526 . S
C2082 H2066 0.959 . S
C2082 H2067 0.959 . S
C2082 H2068 0.961 . S
C2082 C2081 1.502 . S
C2083 H2069 0.960 . S
C2083 H2070 0.961 . S
C2083 H2071 0.959 . S
C2083 C2081 1.561 . S
C2084 C2081 1.526 . S
C2084 C2085 1.396 . S
C2084 C2089 1.390 . S
C2085 C2079 1.465 . S
C2085 C2084 1.396 . S
C2085 C2086 1.399 . S
C2086 H2072 0.929 . S
C2086 C2085 1.399 . S
C2086 C2087 1.385 . S
C2087 H2073 0.931 . S
C2087 C2086 1.385 . S
C2087 C2088 1.389 . S
C2088 C2087 1.389 . S
C2088 C2089 1.387 . S
C2089 H2074 0.930 . S
C2089 C2084 1.390 . S
C2089 C2088 1.387 . S
H2090 C2102 0.934 . S
H2091 C2104 0.930 . S
H2092 C2105 0.930 . S
H2093 C2109 0.959 . S
H2094 C2109 0.959 . S
H2095 C2109 0.961 . S
H2096 C2110 0.960 . S
H2097 C2110 0.961 . S
H2098 C2110 0.959 . S
H2099 C2113 0.929 . S
H2100 C2114 0.931 . S
H2101 C2116 0.930 . S
C2102 H2090 0.934 . S
C2102 C2103 1.399 . S
C2102 C2107 1.399 . S
C2103 C2102 1.399 . S
C2103 C2104 1.376 . S
C2104 H2091 0.930 . S
C2104 C2103 1.376 . S
C2104 C2105 1.388 . S
C2105 H2092 0.930 . S
C2105 C2104 1.388 . S
C2105 C2106 1.390 . S
C2106 C2105 1.390 . S
C2106 C2107 1.394 . S
C2106 C2112 1.465 . S
C2107 C2102 1.399 . S
C2107 C2106 1.394 . S
C2107 C2108 1.516 . S
C2108 C2107 1.516 . S
C2108 C2109 1.502 1_455 S
C2108 C2110 1.561 . S
C2108 C2111 1.526 . S
C2109 H2093 0.959 . S
C2109 H2094 0.959 . S
C2109 H2095 0.961 . S
C2109 C2108 1.502 1_655 S
C2110 H2096 0.960 . S
C2110 H2097 0.961 . S
C2110 H2098 0.959 . S
C2110 C2108 1.561 . S
C2111 C2108 1.526 . S
C2111 C2112 1.396 . S
C2111 C2116 1.390 . S
C2112 C2106 1.465 . S
C2112 C2111 1.396 . S
C2112 C2113 1.399 . S
C2113 H2099 0.929 . S
C2113 C2112 1.399 . S
C2113 C2114 1.385 . S
C2114 H2100 0.931 . S
C2114 C2113 1.385 . S
C2114 C2115 1.389 . S
C2115 C2114 1.389 . S
C2115 C2116 1.387 . S
C2116 H2101 0.930 . S
C2116 C2111 1.390 . S
C2116 C2115 1.387 . S
H2117 C2129 0.930 . S
H2118 C2131 0.930 . S
H2119 C2132 0.930 . S
H2120 C2136 0.959 . S
H2121 C2136 0.959 . S
H2122 C2136 0.961 . S
H2123 C2137 0.960 . S
H2124 C2137 0.961 . S
H2125 C2137 0.959 . S
H2126 C2140 0.929 . S
H2127 C2141 0.931 . S
H2128 C2143 0.930 . S
C2129 H2117 0.930 . S
C2129 C2130 1.399 . S
C2129 C2134 1.399 . S
C2130 C2129 1.399 . S
C2130 C2131 1.376 . S
C2131 H2118 0.930 . S
C2131 C2130 1.376 . S
C2131 C2132 1.388 . S
C2132 H2119 0.930 . S
C2132 C2131 1.388 . S
C2132 C2133 1.390 . S
C2133 C2132 1.390 . S
C2133 C2134 1.394 . S
C2133 C2139 1.465 . S
C2134 C2129 1.399 . S
C2134 C2133 1.394 . S
C2134 C2135 1.516 . S
C2135 C2134 1.516 . S
C2135 C2136 1.502 . S
C2135 C2137 1.561 . S
C2135 C2138 1.526 . S
C2136 H2120 0.959 . S
C2136 H2121 0.959 . S
C2136 H2122 0.961 . S
C2136 C2135 1.502 . S
C2137 H2123 0.960 . S
C2137 H2124 0.961 . S
C2137 H2125 0.959 . S
C2137 C2135 1.561 . S
C2138 C2135 1.526 . S
C2138 C2139 1.396 . S
C2138 C2143 1.390 . S
C2139 C2133 1.465 . S
C2139 C2138 1.396 . S
C2139 C2140 1.399 . S
C2140 H2126 0.929 . S
C2140 C2139 1.399 . S
C2140 C2141 1.385 . S
C2141 H2127 0.931 . S
C2141 C2140 1.385 . S
C2141 C2142 1.389 . S
C2142 C2141 1.389 . S
C2142 C2143 1.387 . S
C2143 H2128 0.930 . S
C2143 C2138 1.390 . S
C2143 C2142 1.387 . S
H2144 C2156 0.930 . S
H2145 C2158 0.930 . S
H2146 C2159 0.930 . S
H2147 C2163 0.959 . S
H2148 C2163 0.959 . S
H2149 C2163 0.961 . S
H2150 C2164 0.960 . S
H2151 C2164 0.961 . S
H2152 C2164 0.959 . S
H2153 C2167 0.929 . S
H2154 C2168 0.931 . S
H2155 C2170 0.930 . S
C2156 H2144 0.930 . S
C2156 C2157 1.399 . S
C2156 C2161 1.399 . S
C2157 C2156 1.399 . S
C2157 C2158 1.376 . S
C2158 H2145 0.930 . S
C2158 C2157 1.376 . S
C2158 C2159 1.388 . S
C2159 H2146 0.930 . S
C2159 C2158 1.388 . S
C2159 C2160 1.390 . S
C2160 C2159 1.390 . S
C2160 C2161 1.394 . S
C2160 C2166 1.465 . S
C2161 C2156 1.399 . S
C2161 C2160 1.394 . S
C2161 C2162 1.516 . S
C2162 C2161 1.516 . S
C2162 C2163 1.502 . S
C2162 C2164 1.561 . S
C2162 C2165 1.526 . S
C2163 H2147 0.959 . S
C2163 H2148 0.959 . S
C2163 H2149 0.961 . S
C2163 C2162 1.502 . S
C2164 H2150 0.960 . S
C2164 H2151 0.961 . S
C2164 H2152 0.959 . S
C2164 C2162 1.561 . S
C2165 C2162 1.526 . S
C2165 C2166 1.396 . S
C2165 C2170 1.390 . S
C2166 C2160 1.465 . S
C2166 C2165 1.396 . S
C2166 C2167 1.399 . S
C2167 H2153 0.929 . S
C2167 C2166 1.399 . S
C2167 C2168 1.385 . S
C2168 H2154 0.931 . S
C2168 C2167 1.385 . S
C2168 C2169 1.389 . S
C2169 C2168 1.389 . S
C2169 C2170 1.387 . S
C2170 H2155 0.930 . S
C2170 C2165 1.390 . S
C2170 C2169 1.387 . S
H2171 C2183 0.930 . S
H2172 C2185 0.930 . S
H2173 C2186 0.930 . S
H2174 C2190 0.959 . S
H2175 C2190 0.959 . S
H2176 C2190 0.961 . S
H2177 C2191 0.960 . S
H2178 C2191 0.961 . S
H2179 C2191 0.959 . S
H2180 C2194 0.929 . S
H2181 C2195 0.931 . S
H2182 C2197 0.930 . S
C2183 H2171 0.930 . S
C2183 C2184 1.399 . S
C2183 C2188 1.399 . S
C2184 C2183 1.399 . S
C2184 C2185 1.376 . S
C2185 H2172 0.930 . S
C2185 C2184 1.376 . S
C2185 C2186 1.388 . S
C2186 H2173 0.930 . S
C2186 C2185 1.388 . S
C2186 C2187 1.390 . S
C2187 C2186 1.390 . S
C2187 C2188 1.394 . S
C2187 C2193 1.465 . S
C2188 C2183 1.399 . S
C2188 C2187 1.394 . S
C2188 C2189 1.516 . S
C2189 C2188 1.516 . S
C2189 C2190 1.502 . S
C2189 C2191 1.561 . S
C2189 C2192 1.526 . S
C2190 H2174 0.959 . S
C2190 H2175 0.959 . S
C2190 H2176 0.961 . S
C2190 C2189 1.502 . S
C2191 H2177 0.960 . S
C2191 H2178 0.961 . S
C2191 H2179 0.959 . S
C2191 C2189 1.561 . S
C2192 C2189 1.526 . S
C2192 C2193 1.396 . S
C2192 C2197 1.390 . S
C2193 C2187 1.465 . S
C2193 C2192 1.396 . S
C2193 C2194 1.399 . S
C2194 H2180 0.929 . S
C2194 C2193 1.399 . S
C2194 C2195 1.385 . S
C2195 H2181 0.931 . S
C2195 C2194 1.385 . S
C2195 C2196 1.389 . S
C2196 C2195 1.389 . S
C2196 C2197 1.387 . S
C2197 H2182 0.930 . S
C2197 C2192 1.390 . S
C2197 C2196 1.387 . S
H2198 C2210 0.930 . S
H2199 C2212 0.930 . S
H2200 C2213 0.930 . S
H2201 C2217 0.959 . S
H2202 C2217 0.959 . S
H2203 C2217 0.961 . S
H2204 C2218 0.960 . S
H2205 C2218 0.961 . S
H2206 C2218 0.959 . S
H2207 C2221 0.929 . S
H2208 C2222 0.931 . S
H2209 C2224 0.930 . S
C2210 H2198 0.930 . S
C2210 C2211 1.399 . S
C2210 C2215 1.399 . S
C2211 C2210 1.399 . S
C2211 C2212 1.376 . S
C2212 H2199 0.930 . S
C2212 C2211 1.376 . S
C2212 C2213 1.388 . S
C2213 H2200 0.930 . S
C2213 C2212 1.388 . S
C2213 C2214 1.390 . S
C2214 C2213 1.390 . S
C2214 C2215 1.394 . S
C2214 C2220 1.465 . S
C2215 C2210 1.399 . S
C2215 C2214 1.394 . S
C2215 C2216 1.516 . S
C2216 C2215 1.516 . S
C2216 C2217 1.502 . S
C2216 C2218 1.561 . S
C2216 C2219 1.526 . S
C2217 H2201 0.959 . S
C2217 H2202 0.959 . S
C2217 H2203 0.961 . S
C2217 C2216 1.502 . S
C2218 H2204 0.960 . S
C2218 H2205 0.961 . S
C2218 H2206 0.959 . S
C2218 C2216 1.561 . S
C2219 C2216 1.526 . S
C2219 C2220 1.396 . S
C2219 C2224 1.390 . S
C2220 C2214 1.465 . S
C2220 C2219 1.396 . S
C2220 C2221 1.399 . S
C2221 H2207 0.929 . S
C2221 C2220 1.399 . S
C2221 C2222 1.385 . S
C2222 H2208 0.931 . S
C2222 C2221 1.385 . S
C2222 C2223 1.389 . S
C2223 C2222 1.389 . S
C2223 C2224 1.387 . S
C2224 H2209 0.930 . S
C2224 C2219 1.390 . S
C2224 C2223 1.387 . S
H2225 C2237 0.930 . S
H2226 C2239 0.930 . S
H2227 C2240 0.930 . S
H2228 C2244 0.959 . S
H2229 C2244 0.959 . S
H2230 C2244 0.961 . S
H2231 C2245 0.960 . S
H2232 C2245 0.961 . S
H2233 C2245 0.959 . S
H2234 C2248 0.929 . S
H2235 C2249 0.931 . S
H2236 C2251 0.930 . S
C2237 H2225 0.930 . S
C2237 C2238 1.399 . S
C2237 C2242 1.399 . S
C2238 C2237 1.399 . S
C2238 C2239 1.376 . S
C2239 H2226 0.930 . S
C2239 C2238 1.376 . S
C2239 C2240 1.388 . S
C2240 H2227 0.930 . S
C2240 C2239 1.388 . S
C2240 C2241 1.390 . S
C2241 C2240 1.390 . S
C2241 C2242 1.394 . S
C2241 C2247 1.465 . S
C2242 C2237 1.399 . S
C2242 C2241 1.394 . S
C2242 C2243 1.516 . S
C2243 C2242 1.516 . S
C2243 C2244 1.502 . S
C2243 C2245 1.561 . S
C2243 C2246 1.526 . S
C2244 H2228 0.959 . S
C2244 H2229 0.959 . S
C2244 H2230 0.961 . S
C2244 C2243 1.502 . S
C2245 H2231 0.960 . S
C2245 H2232 0.961 . S
C2245 H2233 0.959 . S
C2245 C2243 1.561 . S
C2246 C2243 1.526 . S
C2246 C2247 1.396 . S
C2246 C2251 1.390 . S
C2247 C2241 1.465 . S
C2247 C2246 1.396 . S
C2247 C2248 1.399 . S
C2248 H2234 0.929 . S
C2248 C2247 1.399 . S
C2248 C2249 1.385 . S
C2249 H2235 0.931 . S
C2249 C2248 1.385 . S
C2249 C2250 1.389 . S
C2250 C2249 1.389 . S
C2250 C2251 1.387 . S
C2251 H2236 0.930 . S
C2251 C2246 1.390 . S
C2251 C2250 1.387 . S
H2252 C2264 0.930 . S
H2253 C2266 0.930 . S
H2254 C2267 0.930 . S
H2255 C2271 0.959 . S
H2256 C2271 0.959 . S
H2257 C2271 0.961 . S
H2258 C2272 0.960 . S
H2259 C2272 0.961 . S
H2260 C2272 0.959 . S
H2261 C2275 0.929 . S
H2262 C2276 0.931 . S
H2263 C2278 0.930 . S
C2264 H2252 0.930 . S
C2264 C2265 1.399 . S
C2264 C2269 1.399 . S
C2265 C2264 1.399 . S
C2265 C2266 1.376 . S
C2266 H2253 0.930 . S
C2266 C2265 1.376 . S
C2266 C2267 1.388 . S
C2267 H2254 0.930 . S
C2267 C2266 1.388 . S
C2267 C2268 1.390 . S
C2268 C2267 1.390 . S
C2268 C2269 1.394 . S
C2268 C2274 1.465 . S
C2269 C2264 1.399 . S
C2269 C2268 1.394 . S
C2269 C2270 1.516 . S
C2270 C2269 1.516 . S
C2270 C2271 1.502 . S
C2270 C2272 1.561 . S
C2270 C2273 1.526 . S
C2271 H2255 0.959 . S
C2271 H2256 0.959 . S
C2271 H2257 0.961 . S
C2271 C2270 1.502 . S
C2272 H2258 0.960 . S
C2272 H2259 0.961 . S
C2272 H2260 0.959 . S
C2272 C2270 1.561 . S
C2273 C2270 1.526 . S
C2273 C2274 1.396 . S
C2273 C2278 1.390 . S
C2274 C2268 1.465 . S
C2274 C2273 1.396 . S
C2274 C2275 1.399 . S
C2275 H2261 0.929 . S
C2275 C2274 1.399 . S
C2275 C2276 1.385 . S
C2276 H2262 0.931 . S
C2276 C2275 1.385 . S
C2276 C2277 1.389 . S
C2277 C2276 1.389 . S
C2277 C2278 1.387 . S
C2278 H2263 0.930 . S
C2278 C2273 1.390 . S
C2278 C2277 1.387 . S
H2279 C2291 0.930 . S
H2280 C2293 0.930 . S
H2281 C2294 0.930 . S
H2282 C2298 0.959 . S
H2283 C2298 0.959 . S
H2284 C2298 0.961 . S
H2285 C2299 0.960 . S
H2286 C2299 0.961 . S
H2287 C2299 0.959 . S
H2288 C2302 0.929 . S
H2289 C2303 0.931 . S
H2290 C2305 0.930 . S
C2291 H2279 0.930 . S
C2291 C2292 1.399 . S
C2291 C2296 1.399 . S
C2292 C2291 1.399 . S
C2292 C2293 1.376 . S
C2293 H2280 0.930 . S
C2293 C2292 1.376 . S
C2293 C2294 1.388 . S
C2294 H2281 0.930 . S
C2294 C2293 1.388 . S
C2294 C2295 1.390 . S
C2295 C2294 1.390 . S
C2295 C2296 1.394 . S
C2295 C2301 1.465 . S
C2296 C2291 1.399 . S
C2296 C2295 1.394 . S
C2296 C2297 1.516 . S
C2297 C2296 1.516 . S
C2297 C2298 1.502 . S
C2297 C2299 1.561 . S
C2297 C2300 1.526 . S
C2298 H2282 0.959 . S
C2298 H2283 0.959 . S
C2298 H2284 0.961 . S
C2298 C2297 1.502 . S
C2299 H2285 0.960 . S
C2299 H2286 0.961 . S
C2299 H2287 0.959 . S
C2299 C2297 1.561 . S
C2300 C2297 1.526 . S
C2300 C2301 1.396 . S
C2300 C2305 1.390 . S
C2301 C2295 1.465 . S
C2301 C2300 1.396 . S
C2301 C2302 1.399 . S
C2302 H2288 0.929 . S
C2302 C2301 1.399 . S
C2302 C2303 1.385 . S
C2303 H2289 0.931 . S
C2303 C2302 1.385 . S
C2303 C2304 1.389 . S
C2304 C2303 1.389 . S
C2304 C2305 1.387 . S
C2305 H2290 0.930 . S
C2305 C2300 1.390 . S
C2305 C2304 1.387 . S
H2306 C2318 0.930 . S
H2307 C2320 0.930 . S
H2308 C2321 0.930 . S
H2309 C2325 0.959 . S
H2310 C2325 0.959 . S
H2311 C2325 0.961 . S
H2312 C2326 0.960 . S
H2313 C2326 0.961 . S
H2314 C2326 0.959 . S
H2315 C2329 0.929 . S
H2316 C2330 0.931 . S
H2317 C2332 0.930 . S
C2318 H2306 0.930 . S
C2318 C2319 1.399 . S
C2318 C2323 1.399 . S
C2319 C2318 1.399 . S
C2319 C2320 1.376 . S
C2320 H2307 0.930 . S
C2320 C2319 1.376 . S
C2320 C2321 1.388 . S
C2321 H2308 0.930 . S
C2321 C2320 1.388 . S
C2321 C2322 1.390 . S
C2322 C2321 1.390 . S
C2322 C2323 1.394 . S
C2322 C2328 1.465 . S
C2323 C2318 1.399 . S
C2323 C2322 1.394 . S
C2323 C2324 1.516 . S
C2324 C2323 1.516 . S
C2324 C2325 1.502 . S
C2324 C2326 1.561 . S
C2324 C2327 1.526 . S
C2325 H2309 0.959 . S
C2325 H2310 0.959 . S
C2325 H2311 0.961 . S
C2325 C2324 1.502 . S
C2326 H2312 0.960 . S
C2326 H2313 0.961 . S
C2326 H2314 0.959 . S
C2326 C2324 1.561 . S
C2327 C2324 1.526 . S
C2327 C2328 1.396 . S
C2327 C2332 1.390 . S
C2328 C2322 1.465 . S
C2328 C2327 1.396 . S
C2328 C2329 1.399 . S
C2329 H2315 0.929 . S
C2329 C2328 1.399 . S
C2329 C2330 1.385 . S
C2330 H2316 0.931 . S
C2330 C2329 1.385 . S
C2330 C2331 1.389 . S
C2331 C2330 1.389 . S
C2331 C2332 1.387 . S
C2332 H2317 0.930 . S
C2332 C2327 1.390 . S
C2332 C2331 1.387 . S
H2333 C2345 0.930 . S
H2334 C2347 0.930 . S
H2335 C2348 0.930 . S
H2336 C2352 0.959 . S
H2337 C2352 0.959 . S
H2338 C2352 0.961 . S
H2339 C2353 0.960 . S
H2340 C2353 0.961 . S
H2341 C2353 0.959 . S
H2342 C2356 0.929 . S
H2343 C2357 0.931 . S
H2344 C2359 0.930 . S
C2345 H2333 0.930 . S
C2345 C2346 1.399 . S
C2345 C2350 1.399 . S
C2346 C2345 1.399 . S
C2346 C2347 1.376 . S
C2347 H2334 0.930 . S
C2347 C2346 1.376 . S
C2347 C2348 1.388 . S
C2348 H2335 0.930 . S
C2348 C2347 1.388 . S
C2348 C2349 1.390 . S
C2349 C2348 1.390 . S
C2349 C2350 1.394 . S
C2349 C2355 1.465 . S
C2350 C2345 1.399 . S
C2350 C2349 1.394 . S
C2350 C2351 1.516 . S
C2351 C2350 1.516 . S
C2351 C2352 1.502 . S
C2351 C2353 1.561 . S
C2351 C2354 1.526 . S
C2352 H2336 0.959 . S
C2352 H2337 0.959 . S
C2352 H2338 0.961 . S
C2352 C2351 1.502 . S
C2353 H2339 0.960 . S
C2353 H2340 0.961 . S
C2353 H2341 0.959 . S
C2353 C2351 1.561 . S
C2354 C2351 1.526 . S
C2354 C2355 1.396 . S
C2354 C2359 1.390 . S
C2355 C2349 1.465 . S
C2355 C2354 1.396 . S
C2355 C2356 1.399 . S
C2356 H2342 0.929 . S
C2356 C2355 1.399 . S
C2356 C2357 1.385 . S
C2357 H2343 0.931 . S
C2357 C2356 1.385 . S
C2357 C2358 1.389 . S
C2358 C2357 1.389 . S
C2358 C2359 1.387 . S
C2359 H2344 0.930 . S
C2359 C2354 1.390 . S
C2359 C2358 1.387 . S
H2360 C2372 0.930 . S
H2361 C2374 0.930 . S
H2362 C2375 0.930 . S
H2363 C2379 0.959 . S
H2364 C2379 0.959 . S
H2365 C2379 0.961 . S
H2366 C2380 0.960 . S
H2367 C2380 0.961 . S
H2368 C2380 0.959 . S
H2369 C2383 0.929 . S
H2370 C2384 0.931 . S
H2371 C2386 0.930 . S
C2372 H2360 0.930 . S
C2372 C2373 1.399 . S
C2372 C2377 1.399 . S
C2373 C2372 1.399 . S
C2373 C2374 1.376 . S
C2374 H2361 0.930 . S
C2374 C2373 1.376 . S
C2374 C2375 1.388 . S
C2375 H2362 0.930 . S
C2375 C2374 1.388 . S
C2375 C2376 1.390 . S
C2376 C2375 1.390 . S
C2376 C2377 1.394 . S
C2376 C2382 1.465 . S
C2377 C2372 1.399 . S
C2377 C2376 1.394 . S
C2377 C2378 1.516 . S
C2378 C2377 1.516 . S
C2378 C2379 1.502 . S
C2378 C2380 1.561 . S
C2378 C2381 1.526 . S
C2379 H2363 0.959 . S
C2379 H2364 0.959 . S
C2379 H2365 0.961 . S
C2379 C2378 1.502 . S
C2380 H2366 0.960 . S
C2380 H2367 0.961 . S
C2380 H2368 0.959 . S
C2380 C2378 1.561 . S
C2381 C2378 1.526 . S
C2381 C2382 1.396 . S
C2381 C2386 1.390 . S
C2382 C2376 1.465 . S
C2382 C2381 1.396 . S
C2382 C2383 1.399 . S
C2383 H2369 0.929 . S
C2383 C2382 1.399 . S
C2383 C2384 1.385 . S
C2384 H2370 0.931 . S
C2384 C2383 1.385 . S
C2384 C2385 1.389 . S
C2385 C2384 1.389 . S
C2385 C2386 1.387 . S
C2386 H2371 0.930 . S
C2386 C2381 1.390 . S
C2386 C2385 1.387 . S
H2387 C2399 0.930 . S
H2388 C2401 0.930 . S
H2389 C2402 0.930 . S
H2390 C2406 0.959 . S
H2391 C2406 0.959 . S
H2392 C2406 0.961 . S
H2393 C2407 0.960 . S
H2394 C2407 0.961 . S
H2395 C2407 0.959 . S
H2396 C2410 0.929 . S
H2397 C2411 0.931 . S
H2398 C2413 0.930 . S
C2399 H2387 0.930 . S
C2399 C2400 1.399 . S
C2399 C2404 1.399 . S
C2400 C2399 1.399 . S
C2400 C2401 1.376 . S
C2401 H2388 0.930 . S
C2401 C2400 1.376 . S
C2401 C2402 1.388 . S
C2402 H2389 0.930 . S
C2402 C2401 1.388 . S
C2402 C2403 1.390 . S
C2403 C2402 1.390 . S
C2403 C2404 1.394 . S
C2403 C2409 1.465 . S
C2404 C2399 1.399 . S
C2404 C2403 1.394 . S
C2404 C2405 1.516 . S
C2405 C2404 1.516 . S
C2405 C2406 1.502 . S
C2405 C2407 1.561 . S
C2405 C2408 1.526 . S
C2406 H2390 0.959 . S
C2406 H2391 0.959 . S
C2406 H2392 0.961 . S
C2406 C2405 1.502 . S
C2407 H2393 0.960 . S
C2407 H2394 0.961 . S
C2407 H2395 0.959 . S
C2407 C2405 1.561 . S
C2408 C2405 1.526 . S
C2408 C2409 1.396 . S
C2408 C2413 1.390 . S
C2409 C2403 1.465 . S
C2409 C2408 1.396 . S
C2409 C2410 1.399 . S
C2410 H2396 0.929 . S
C2410 C2409 1.399 . S
C2410 C2411 1.385 . S
C2411 H2397 0.931 . S
C2411 C2410 1.385 . S
C2411 C2412 1.389 . S
C2412 C2411 1.389 . S
C2412 C2413 1.387 . S
C2413 H2398 0.930 . S
C2413 C2408 1.390 . S
C2413 C2412 1.387 . S
H2414 C2426 0.930 . S
H2415 C2428 0.930 . S
H2416 C2429 0.930 . S
H2417 C2433 0.959 . S
H2418 C2433 0.959 . S
H2419 C2433 0.961 . S
H2420 C2434 0.960 . S
H2421 C2434 0.961 . S
H2422 C2434 0.959 . S
H2423 C2437 0.929 . S
H2424 C2438 0.931 . S
H2425 C2440 0.930 . S
C2426 H2414 0.930 . S
C2426 C2427 1.399 . S
C2426 C2431 1.399 . S
C2427 C2426 1.399 . S
C2427 C2428 1.376 . S
C2428 H2415 0.930 . S
C2428 C2427 1.376 . S
C2428 C2429 1.388 . S
C2429 H2416 0.930 . S
C2429 C2428 1.388 . S
C2429 C2430 1.390 . S
C2430 C2429 1.390 . S
C2430 C2431 1.394 . S
C2430 C2436 1.465 . S
C2431 C2426 1.399 . S
C2431 C2430 1.394 . S
C2431 C2432 1.516 . S
C2432 C2431 1.516 . S
C2432 C2433 1.502 . S
C2432 C2434 1.561 . S
C2432 C2435 1.526 . S
C2433 H2417 0.959 . S
C2433 H2418 0.959 . S
C2433 H2419 0.961 . S
C2433 C2432 1.502 . S
C2434 H2420 0.960 . S
C2434 H2421 0.961 . S
C2434 H2422 0.959 . S
C2434 C2432 1.561 . S
C2435 C2432 1.526 . S
C2435 C2436 1.396 . S
C2435 C2440 1.390 . S
C2436 C2430 1.465 . S
C2436 C2435 1.396 . S
C2436 C2437 1.399 . S
C2437 H2423 0.929 . S
C2437 C2436 1.399 . S
C2437 C2438 1.385 . S
C2438 H2424 0.931 . S
C2438 C2437 1.385 . S
C2438 C2439 1.389 . S
C2439 C2438 1.389 . S
C2439 C2440 1.387 . S
C2440 H2425 0.930 . S
C2440 C2435 1.390 . S
C2440 C2439 1.387 . S
H2441 C2453 0.930 . S
H2442 C2455 0.930 . S
H2443 C2456 0.930 . S
H2444 C2460 0.959 . S
H2445 C2460 0.959 . S
H2446 C2460 0.961 . S
H2447 C2461 0.960 . S
H2448 C2461 0.961 . S
H2449 C2461 0.959 . S
H2450 C2464 0.929 . S
H2451 C2465 0.960 . S
H2452 C2467 0.930 . S
C2453 H2441 0.930 . S
C2453 C2454 1.399 1_556 S
C2453 C2458 1.399 1_556 S
C2454 C2453 1.399 1_554 S
C2454 C2455 1.376 . S
C2455 H2442 0.930 . S
C2455 C2454 1.376 . S
C2455 C2456 1.388 . S
C2456 H2443 0.930 . S
C2456 C2455 1.388 . S
C2456 C2457 1.390 . S
C2457 C2456 1.390 . S
C2457 C2458 1.408 . S
C2457 C2463 1.465 . S
C2458 C2453 1.399 1_554 S
C2458 C2457 1.408 . S
C2458 C2459 1.504 1_554 S
C2459 C2458 1.504 1_556 S
C2459 C2460 1.502 . S
C2459 C2461 1.561 . S
C2459 C2462 1.526 . S
C2460 H2444 0.959 . S
C2460 H2445 0.959 . S
C2460 H2446 0.961 . S
C2460 C2459 1.502 . S
C2461 H2447 0.960 . S
C2461 H2448 0.961 . S
C2461 H2449 0.959 . S
C2461 C2459 1.561 . S
C2462 C2459 1.526 . S
C2462 C2463 1.396 1_556 S
C2462 C2467 1.390 . S
C2463 C2457 1.465 . S
C2463 C2462 1.396 1_554 S
C2463 C2464 1.399 . S
C2464 H2450 0.929 . S
C2464 C2463 1.399 . S
C2464 C2465 1.366 1_565 S
C2465 H2451 0.960 . S
C2465 C2464 1.366 1_545 S
C2465 C2466 1.382 1_545 S
C2466 C2465 1.382 1_565 S
C2466 C2467 1.387 1_554 S
C2467 H2452 0.930 . S
C2467 C2462 1.390 . S
C2467 C2466 1.387 1_556 S
H2468 C2480 0.930 . S
H2469 C2482 0.930 . S
H2470 C2483 0.930 . S
H2471 C2487 0.959 . S
H2472 C2487 0.959 . S
H2473 C2487 0.961 . S
H2474 C2488 0.960 . S
H2475 C2488 0.961 . S
H2476 C2488 0.959 . S
H2477 C2491 0.929 . S
H2478 C2492 0.931 . S
H2479 C2494 0.930 . S
C2480 H2468 0.930 . S
C2480 C2481 1.399 . S
C2480 C2485 1.399 . S
C2481 C2480 1.399 . S
C2481 C2482 1.376 . S
C2482 H2469 0.930 . S
C2482 C2481 1.376 . S
C2482 C2483 1.388 . S
C2483 H2470 0.930 . S
C2483 C2482 1.388 . S
C2483 C2484 1.390 . S
C2484 C2483 1.390 . S
C2484 C2485 1.394 . S
C2484 C2490 1.465 . S
C2485 C2480 1.399 . S
C2485 C2484 1.394 . S
C2485 C2486 1.516 . S
C2486 C2485 1.516 . S
C2486 C2487 1.502 . S
C2486 C2488 1.561 . S
C2486 C2489 1.526 . S
C2487 H2471 0.959 . S
C2487 H2472 0.959 . S
C2487 H2473 0.961 . S
C2487 C2486 1.502 . S
C2488 H2474 0.960 . S
C2488 H2475 0.961 . S
C2488 H2476 0.959 . S
C2488 C2486 1.561 . S
C2489 C2486 1.526 . S
C2489 C2490 1.396 . S
C2489 C2494 1.390 . S
C2490 C2484 1.465 . S
C2490 C2489 1.396 . S
C2490 C2491 1.399 . S
C2491 H2477 0.929 . S
C2491 C2490 1.399 . S
C2491 C2492 1.385 . S
C2492 H2478 0.931 . S
C2492 C2491 1.385 . S
C2492 C2493 1.389 . S
C2493 C2492 1.389 . S
C2493 C2494 1.387 . S
C2494 H2479 0.930 . S
C2494 C2489 1.390 . S
C2494 C2493 1.387 . S
H2495 C2507 0.977 . S
H2496 C2509 0.930 . S
H2497 C2510 0.930 . S
H2498 C2514 0.959 . S
H2499 C2514 0.959 . S
H2500 C2514 0.961 . S
H2501 C2515 0.960 . S
H2502 C2515 0.961 . S
H2503 C2515 0.959 1_554 S
H2504 C2518 0.929 . S
H2505 C2519 0.931 . S
H2506 C2521 0.930 . S
C2507 H2495 0.977 . S
C2507 C2508 1.372 1_556 S
C2507 C2512 1.379 1_556 S
C2508 C2507 1.372 1_554 S
C2508 C2509 1.376 . S
C2509 H2496 0.930 . S
C2509 C2508 1.376 . S
C2509 C2510 1.388 . S
C2510 H2497 0.930 . S
C2510 C2509 1.388 . S
C2510 C2511 1.390 . S
C2511 C2510 1.390 . S
C2511 C2512 1.394 . S
C2511 C2517 1.465 . S
C2512 C2507 1.379 1_554 S
C2512 C2511 1.394 . S
C2512 C2513 1.501 1_554 S
C2513 C2512 1.501 1_556 S
C2513 C2514 1.532 . S
C2513 C2515 1.570 . S
C2513 C2516 1.498 1_556 S
C2514 H2498 0.959 . S
C2514 H2499 0.959 . S
C2514 H2500 0.961 . S
C2514 C2513 1.532 . S
C2515 H2501 0.960 . S
C2515 H2502 0.961 . S
C2515 H2503 0.959 1_556 S
C2515 C2513 1.570 . S
C2516 C2513 1.498 1_554 S
C2516 C2517 1.396 . S
C2516 C2521 1.390 . S
C2517 C2511 1.465 . S
C2517 C2516 1.396 . S
C2517 C2518 1.399 . S
C2518 H2504 0.929 . S
C2518 C2517 1.399 . S
C2518 C2519 1.385 . S
C2519 H2505 0.931 . S
C2519 C2518 1.385 . S
C2519 C2520 1.389 . S
C2520 C2519 1.389 . S
C2520 C2521 1.387 . S
C2521 H2506 0.930 . S
C2521 C2516 1.390 . S
C2521 C2520 1.387 . S
H2522 C2534 0.930 . S
H2523 C2536 0.930 . S
H2524 C2537 0.930 . S
H2525 C2541 0.959 . S
H2526 C2541 0.959 . S
H2527 C2541 0.961 . S
H2528 C2542 0.960 . S
H2529 C2542 0.961 . S
H2530 C2542 0.959 . S
H2531 C2545 0.929 . S
H2532 C2546 0.931 . S
H2533 C2548 0.930 . S
C2534 H2522 0.930 . S
C2534 C2535 1.399 . S
C2534 C2539 1.399 . S
C2535 C2534 1.399 . S
C2535 C2536 1.376 . S
C2536 H2523 0.930 . S
C2536 C2535 1.376 . S
C2536 C2537 1.388 . S
C2537 H2524 0.930 . S
C2537 C2536 1.388 . S
C2537 C2538 1.390 . S
C2538 C2537 1.390 . S
C2538 C2539 1.394 . S
C2538 C2544 1.465 . S
C2539 C2534 1.399 . S
C2539 C2538 1.394 . S
C2539 C2540 1.516 . S
C2540 C2539 1.516 . S
C2540 C2541 1.502 . S
C2540 C2542 1.561 . S
C2540 C2543 1.526 . S
C2541 H2525 0.959 . S
C2541 H2526 0.959 . S
C2541 H2527 0.961 . S
C2541 C2540 1.502 . S
C2542 H2528 0.960 . S
C2542 H2529 0.961 . S
C2542 H2530 0.959 . S
C2542 C2540 1.561 . S
C2543 C2540 1.526 . S
C2543 C2544 1.396 . S
C2543 C2548 1.390 . S
C2544 C2538 1.465 . S
C2544 C2543 1.396 . S
C2544 C2545 1.399 . S
C2545 H2531 0.929 . S
C2545 C2544 1.399 . S
C2545 C2546 1.385 . S
C2546 H2532 0.931 . S
C2546 C2545 1.385 . S
C2546 C2547 1.389 . S
C2547 C2546 1.389 . S
C2547 C2548 1.387 . S
C2548 H2533 0.930 . S
C2548 C2543 1.390 . S
C2548 C2547 1.387 . S
H2549 C2561 0.930 . S
H2550 C2563 0.930 . S
H2551 C2564 0.930 . S
H2552 C2568 0.959 . S
H2553 C2568 0.959 . S
H2554 C2568 0.961 . S
H2555 C2569 0.960 . S
H2556 C2569 0.961 . S
H2557 C2569 0.959 . S
H2558 C2572 0.929 . S
H2559 C2573 0.931 . S
H2560 C2575 0.930 . S
C2561 H2549 0.930 . S
C2561 C2562 1.399 . S
C2561 C2566 1.399 . S
C2562 C2561 1.399 . S
C2562 C2563 1.376 . S
C2563 H2550 0.930 . S
C2563 C2562 1.376 . S
C2563 C2564 1.388 . S
C2564 H2551 0.930 . S
C2564 C2563 1.388 . S
C2564 C2565 1.390 . S
C2565 C2564 1.390 . S
C2565 C2566 1.394 . S
C2565 C2571 1.465 . S
C2566 C2561 1.399 . S
C2566 C2565 1.394 . S
C2566 C2567 1.516 . S
C2567 C2566 1.516 . S
C2567 C2568 1.502 . S
C2567 C2569 1.561 . S
C2567 C2570 1.526 . S
C2568 H2552 0.959 . S
C2568 H2553 0.959 . S
C2568 H2554 0.961 . S
C2568 C2567 1.502 . S
C2569 H2555 0.960 . S
C2569 H2556 0.961 . S
C2569 H2557 0.959 . S
C2569 C2567 1.561 . S
C2570 C2567 1.526 . S
C2570 C2571 1.396 . S
C2570 C2575 1.390 . S
C2571 C2565 1.465 . S
C2571 C2570 1.396 . S
C2571 C2572 1.399 . S
C2572 H2558 0.929 . S
C2572 C2571 1.399 . S
C2572 C2573 1.385 . S
C2573 H2559 0.931 . S
C2573 C2572 1.385 . S
C2573 C2574 1.389 . S
C2574 C2573 1.389 . S
C2574 C2575 1.387 . S
C2575 H2560 0.930 . S
C2575 C2570 1.390 . S
C2575 C2574 1.387 . S
H2576 C2588 0.930 . S
H2577 C2590 0.930 . S
H2578 C2591 0.930 . S
H2579 C2595 0.959 . S
H2580 C2595 0.959 . S
H2581 C2595 0.961 . S
H2582 C2596 0.960 . S
H2583 C2596 0.961 . S
H2584 C2596 0.959 . S
H2585 C2599 0.929 . S
H2586 C2600 0.931 . S
H2587 C2602 0.930 . S
C2588 H2576 0.930 . S
C2588 C2589 1.399 . S
C2588 C2593 1.399 . S
C2589 C2588 1.399 . S
C2589 C2590 1.376 . S
C2590 H2577 0.930 . S
C2590 C2589 1.376 . S
C2590 C2591 1.388 . S
C2591 H2578 0.930 . S
C2591 C2590 1.388 . S
C2591 C2592 1.390 . S
C2592 C2591 1.390 . S
C2592 C2593 1.394 . S
C2592 C2598 1.465 . S
C2593 C2588 1.399 . S
C2593 C2592 1.394 . S
C2593 C2594 1.516 . S
C2594 C2593 1.516 . S
C2594 C2595 1.502 . S
C2594 C2596 1.561 . S
C2594 C2597 1.526 . S
C2595 H2579 0.959 . S
C2595 H2580 0.959 . S
C2595 H2581 0.961 . S
C2595 C2594 1.502 . S
C2596 H2582 0.960 . S
C2596 H2583 0.961 . S
C2596 H2584 0.959 . S
C2596 C2594 1.561 . S
C2597 C2594 1.526 . S
C2597 C2598 1.396 . S
C2597 C2602 1.390 . S
C2598 C2592 1.465 . S
C2598 C2597 1.396 . S
C2598 C2599 1.399 . S
C2599 H2585 0.929 . S
C2599 C2598 1.399 . S
C2599 C2600 1.385 . S
C2600 H2586 0.931 . S
C2600 C2599 1.385 . S
C2600 C2601 1.389 . S
C2601 C2600 1.389 . S
C2601 C2602 1.387 . S
C2602 H2587 0.930 . S
C2602 C2597 1.390 . S
C2602 C2601 1.387 . S
H2603 C2615 0.930 . S
H2604 C2617 0.930 . S
H2605 C2618 0.930 . S
H2606 C2622 0.959 . S
H2607 C2622 0.959 . S
H2608 C2622 0.961 . S
H2609 C2623 0.960 . S
H2610 C2623 0.961 . S
H2611 C2623 0.959 . S
H2612 C2626 0.929 . S
H2613 C2627 0.931 . S
H2614 C2629 0.930 . S
C2615 H2603 0.930 . S
C2615 C2616 1.399 . S
C2615 C2620 1.399 . S
C2616 C2615 1.399 . S
C2616 C2617 1.376 . S
C2617 H2604 0.930 . S
C2617 C2616 1.376 . S
C2617 C2618 1.388 . S
C2618 H2605 0.930 . S
C2618 C2617 1.388 . S
C2618 C2619 1.390 . S
C2619 C2618 1.390 . S
C2619 C2620 1.394 . S
C2619 C2625 1.465 . S
C2620 C2615 1.399 . S
C2620 C2619 1.394 . S
C2620 C2621 1.516 . S
C2621 C2620 1.516 . S
C2621 C2622 1.502 . S
C2621 C2623 1.561 . S
C2621 C2624 1.526 . S
C2622 H2606 0.959 . S
C2622 H2607 0.959 . S
C2622 H2608 0.961 . S
C2622 C2621 1.502 . S
C2623 H2609 0.960 . S
C2623 H2610 0.961 . S
C2623 H2611 0.959 . S
C2623 C2621 1.561 . S
C2624 C2621 1.526 . S
C2624 C2625 1.396 . S
C2624 C2629 1.390 . S
C2625 C2619 1.465 . S
C2625 C2624 1.396 . S
C2625 C2626 1.399 . S
C2626 H2612 0.929 . S
C2626 C2625 1.399 . S
C2626 C2627 1.385 . S
C2627 H2613 0.931 . S
C2627 C2626 1.385 . S
C2627 C2628 1.389 . S
C2628 C2627 1.389 . S
C2628 C2629 1.387 . S
C2629 H2614 0.930 . S
C2629 C2624 1.390 . S
C2629 C2628 1.387 . S
H2630 C2642 0.930 . S
H2631 C2644 0.930 . S
H2632 C2645 0.930 . S
H2633 C2649 0.959 . S
H2634 C2649 0.959 . S
H2635 C2649 0.961 . S
H2636 C2650 0.960 . S
H2637 C2650 0.961 . S
H2638 C2650 0.959 . S
H2639 C2653 0.929 . S
H2640 C2654 0.931 . S
H2641 C2656 0.930 1_655 S
C2642 H2630 0.930 . S
C2642 C2643 1.399 . S
C2642 C2647 1.399 . S
C2643 C2642 1.399 . S
C2643 C2644 1.376 . S
C2644 H2631 0.930 . S
C2644 C2643 1.376 . S
C2644 C2645 1.388 . S
C2645 H2632 0.930 . S
C2645 C2644 1.388 . S
C2645 C2646 1.390 . S
C2646 C2645 1.390 . S
C2646 C2647 1.394 . S
C2646 C2652 1.465 . S
C2647 C2642 1.399 . S
C2647 C2646 1.394 . S
C2647 C2648 1.516 . S
C2648 C2647 1.516 . S
C2648 C2649 1.502 1_455 S
C2648 C2650 1.561 . S
C2648 C2651 1.526 . S
C2649 H2633 0.959 . S
C2649 H2634 0.959 . S
C2649 H2635 0.961 . S
C2649 C2648 1.502 1_655 S
C2650 H2636 0.960 . S
C2650 H2637 0.961 . S
C2650 H2638 0.959 . S
C2650 C2648 1.561 . S
C2651 C2648 1.526 . S
C2651 C2652 1.396 . S
C2651 C2656 1.390 . S
C2652 C2646 1.465 . S
C2652 C2651 1.396 . S
C2652 C2653 1.399 . S
C2653 H2639 0.929 . S
C2653 C2652 1.399 . S
C2653 C2654 1.385 . S
C2654 H2640 0.931 . S
C2654 C2653 1.385 . S
C2654 C2655 1.389 . S
C2655 C2654 1.389 . S
C2655 C2656 1.387 . S
C2656 H2641 0.930 1_455 S
C2656 C2651 1.390 . S
C2656 C2655 1.387 . S
H2657 C2669 0.930 . S
H2658 C2671 0.930 . S
H2659 C2672 0.930 . S
H2660 C2676 0.959 . S
H2661 C2676 0.959 . S
H2662 C2676 0.961 . S
H2663 C2677 0.960 . S
H2664 C2677 0.961 . S
H2665 C2677 0.959 . S
H2666 C2680 0.929 . S
H2667 C2681 0.931 . S
H2668 C2683 0.930 . S
C2669 H2657 0.930 . S
C2669 C2670 1.399 . S
C2669 C2674 1.399 . S
C2670 C2669 1.399 . S
C2670 C2671 1.376 . S
C2671 H2658 0.930 . S
C2671 C2670 1.376 . S
C2671 C2672 1.388 . S
C2672 H2659 0.930 . S
C2672 C2671 1.388 . S
C2672 C2673 1.390 . S
C2673 C2672 1.390 . S
C2673 C2674 1.394 . S
C2673 C2679 1.465 . S
C2674 C2669 1.399 . S
C2674 C2673 1.394 . S
C2674 C2675 1.516 . S
C2675 C2674 1.516 . S
C2675 C2676 1.502 . S
C2675 C2677 1.561 . S
C2675 C2678 1.526 . S
C2676 H2660 0.959 . S
C2676 H2661 0.959 . S
C2676 H2662 0.961 . S
C2676 C2675 1.502 . S
C2677 H2663 0.960 . S
C2677 H2664 0.961 . S
C2677 H2665 0.959 . S
C2677 C2675 1.561 . S
C2678 C2675 1.526 . S
C2678 C2679 1.396 . S
C2678 C2683 1.390 . S
C2679 C2673 1.465 . S
C2679 C2678 1.396 . S
C2679 C2680 1.399 . S
C2680 H2666 0.929 . S
C2680 C2679 1.399 . S
C2680 C2681 1.385 . S
C2681 H2667 0.931 . S
C2681 C2680 1.385 . S
C2681 C2682 1.389 . S
C2682 C2681 1.389 . S
C2682 C2683 1.387 . S
C2683 H2668 0.930 . S
C2683 C2678 1.390 . S
C2683 C2682 1.387 . S
H2684 C2696 0.930 . S
H2685 C2698 0.930 . S
H2686 C2699 0.930 . S
H2687 C2703 0.959 . S
H2688 C2703 0.959 . S
H2689 C2703 0.961 . S
H2690 C2704 0.960 . S
H2691 C2704 0.961 . S
H2692 C2704 0.959 . S
H2693 C2707 0.929 . S
H2694 C2708 0.931 . S
H2695 C2710 0.930 . S
C2696 H2684 0.930 . S
C2696 C2697 1.399 . S
C2696 C2701 1.399 . S
C2697 C2696 1.399 . S
C2697 C2698 1.376 . S
C2698 H2685 0.930 . S
C2698 C2697 1.376 . S
C2698 C2699 1.388 . S
C2699 H2686 0.930 . S
C2699 C2698 1.388 . S
C2699 C2700 1.390 . S
C2700 C2699 1.390 . S
C2700 C2701 1.394 . S
C2700 C2706 1.465 . S
C2701 C2696 1.399 . S
C2701 C2700 1.394 . S
C2701 C2702 1.516 . S
C2702 C2701 1.516 . S
C2702 C2703 1.502 . S
C2702 C2704 1.561 . S
C2702 C2705 1.526 . S
C2703 H2687 0.959 . S
C2703 H2688 0.959 . S
C2703 H2689 0.961 . S
C2703 C2702 1.502 . S
C2704 H2690 0.960 . S
C2704 H2691 0.961 . S
C2704 H2692 0.959 . S
C2704 C2702 1.561 . S
C2705 C2702 1.526 . S
C2705 C2706 1.396 . S
C2705 C2710 1.390 . S
C2706 C2700 1.465 . S
C2706 C2705 1.396 . S
C2706 C2707 1.399 . S
C2707 H2693 0.929 . S
C2707 C2706 1.399 . S
C2707 C2708 1.385 . S
C2708 H2694 0.931 . S
C2708 C2707 1.385 . S
C2708 C2709 1.389 . S
C2709 C2708 1.389 . S
C2709 C2710 1.387 . S
C2710 H2695 0.930 . S
C2710 C2705 1.390 . S
C2710 C2709 1.387 . S
H2711 C2723 0.930 . S
H2712 C2725 0.930 . S
H2713 C2726 0.930 . S
H2714 C2730 0.959 . S
H2715 C2730 0.959 . S
H2716 C2730 0.961 . S
H2717 C2731 0.960 . S
H2718 C2731 0.961 . S
H2719 C2731 0.959 . S
H2720 C2734 0.929 . S
H2721 C2735 0.931 . S
H2722 C2737 0.930 . S
C2723 H2711 0.930 . S
C2723 C2724 1.399 . S
C2723 C2728 1.399 . S
C2724 C2723 1.399 . S
C2724 C2725 1.376 . S
C2725 H2712 0.930 . S
C2725 C2724 1.376 . S
C2725 C2726 1.388 . S
C2726 H2713 0.930 . S
C2726 C2725 1.388 . S
C2726 C2727 1.390 . S
C2727 C2726 1.390 . S
C2727 C2728 1.394 . S
C2727 C2733 1.465 . S
C2728 C2723 1.399 . S
C2728 C2727 1.394 . S
C2728 C2729 1.516 . S
C2729 C2728 1.516 . S
C2729 C2730 1.502 . S
C2729 C2731 1.561 . S
C2729 C2732 1.526 . S
C2730 H2714 0.959 . S
C2730 H2715 0.959 . S
C2730 H2716 0.961 . S
C2730 C2729 1.502 . S
C2731 H2717 0.960 . S
C2731 H2718 0.961 . S
C2731 H2719 0.959 . S
C2731 C2729 1.561 . S
C2732 C2729 1.526 . S
C2732 C2733 1.396 . S
C2732 C2737 1.390 . S
C2733 C2727 1.465 . S
C2733 C2732 1.396 . S
C2733 C2734 1.399 . S
C2734 H2720 0.929 . S
C2734 C2733 1.399 . S
C2734 C2735 1.385 . S
C2735 H2721 0.931 . S
C2735 C2734 1.385 . S
C2735 C2736 1.389 . S
C2736 C2735 1.389 . S
C2736 C2737 1.387 . S
C2737 H2722 0.930 . S
C2737 C2732 1.390 . S
C2737 C2736 1.387 . S
H2738 C2750 0.930 . S
H2739 C2752 0.930 . S
H2740 C2753 0.930 . S
H2741 C2757 0.959 . S
H2742 C2757 0.959 . S
H2743 C2757 0.961 . S
H2744 C2758 0.960 . S
H2745 C2758 0.961 . S
H2746 C2758 0.959 . S
H2747 C2761 0.929 . S
H2748 C2762 0.931 . S
H2749 C2764 0.930 . S
C2750 H2738 0.930 . S
C2750 C2751 1.399 . S
C2750 C2755 1.399 . S
C2751 C2750 1.399 . S
C2751 C2752 1.376 . S
C2752 H2739 0.930 . S
C2752 C2751 1.376 . S
C2752 C2753 1.388 . S
C2753 H2740 0.930 . S
C2753 C2752 1.388 . S
C2753 C2754 1.390 . S
C2754 C2753 1.390 . S
C2754 C2755 1.394 . S
C2754 C2760 1.465 . S
C2755 C2750 1.399 . S
C2755 C2754 1.394 . S
C2755 C2756 1.516 . S
C2756 C2755 1.516 . S
C2756 C2757 1.502 1_455 S
C2756 C2758 1.561 . S
C2756 C2759 1.526 . S
C2757 H2741 0.959 . S
C2757 H2742 0.959 . S
C2757 H2743 0.961 . S
C2757 C2756 1.502 1_655 S
C2758 H2744 0.960 . S
C2758 H2745 0.961 . S
C2758 H2746 0.959 . S
C2758 C2756 1.561 . S
C2759 C2756 1.526 . S
C2759 C2760 1.396 . S
C2759 C2764 1.390 . S
C2760 C2754 1.465 . S
C2760 C2759 1.396 . S
C2760 C2761 1.399 . S
C2761 H2747 0.929 . S
C2761 C2760 1.399 . S
C2761 C2762 1.385 . S
C2762 H2748 0.931 . S
C2762 C2761 1.385 . S
C2762 C2763 1.389 . S
C2763 C2762 1.389 . S
C2763 C2764 1.387 . S
C2764 H2749 0.930 . S
C2764 C2759 1.390 . S
C2764 C2763 1.387 . S
H2765 C2777 0.930 . S
H2766 C2779 0.930 . S
H2767 C2780 0.930 . S
H2768 C2784 0.959 . S
H2769 C2784 0.959 . S
H2770 C2784 0.961 . S
H2771 C2785 0.960 . S
H2772 C2785 0.961 . S
H2773 C2785 0.959 . S
H2774 C2788 0.929 . S
H2775 C2789 0.931 . S
H2776 C2791 0.930 . S
C2777 H2765 0.930 . S
C2777 C2778 1.399 . S
C2777 C2782 1.399 . S
C2778 C2777 1.399 . S
C2778 C2779 1.376 . S
C2779 H2766 0.930 . S
C2779 C2778 1.376 . S
C2779 C2780 1.388 . S
C2780 H2767 0.930 . S
C2780 C2779 1.388 . S
C2780 C2781 1.390 . S
C2781 C2780 1.390 . S
C2781 C2782 1.394 . S
C2781 C2787 1.465 . S
C2782 C2777 1.399 . S
C2782 C2781 1.394 . S
C2782 C2783 1.516 . S
C2783 C2782 1.516 . S
C2783 C2784 1.502 . S
C2783 C2785 1.561 . S
C2783 C2786 1.526 . S
C2784 H2768 0.959 . S
C2784 H2769 0.959 . S
C2784 H2770 0.961 . S
C2784 C2783 1.502 . S
C2785 H2771 0.960 . S
C2785 H2772 0.961 . S
C2785 H2773 0.959 . S
C2785 C2783 1.561 . S
C2786 C2783 1.526 . S
C2786 C2787 1.396 . S
C2786 C2791 1.390 . S
C2787 C2781 1.465 . S
C2787 C2786 1.396 . S
C2787 C2788 1.399 . S
C2788 H2774 0.929 . S
C2788 C2787 1.399 . S
C2788 C2789 1.385 . S
C2789 H2775 0.931 . S
C2789 C2788 1.385 . S
C2789 C2790 1.389 . S
C2790 C2789 1.389 . S
C2790 C2791 1.387 . S
C2791 H2776 0.930 . S
C2791 C2786 1.390 . S
C2791 C2790 1.387 . S
H2792 C2804 0.930 . S
H2793 C2806 0.930 . S
H2794 C2807 0.930 . S
H2795 C2811 0.959 . S
H2796 C2811 0.959 . S
H2797 C2811 0.961 . S
H2798 C2812 0.960 . S
H2799 C2812 0.961 . S
H2800 C2812 0.959 . S
H2801 C2815 0.929 . S
H2802 C2816 0.931 . S
H2803 C2818 0.930 . S
C2804 H2792 0.930 . S
C2804 C2805 1.399 . S
C2804 C2809 1.399 . S
C2805 C2804 1.399 . S
C2805 C2806 1.376 . S
C2806 H2793 0.930 . S
C2806 C2805 1.376 . S
C2806 C2807 1.388 . S
C2807 H2794 0.930 . S
C2807 C2806 1.388 . S
C2807 C2808 1.390 . S
C2808 C2807 1.390 . S
C2808 C2809 1.394 . S
C2808 C2814 1.465 . S
C2809 C2804 1.399 . S
C2809 C2808 1.394 . S
C2809 C2810 1.516 . S
C2810 C2809 1.516 . S
C2810 C2811 1.502 . S
C2810 C2812 1.561 . S
C2810 C2813 1.526 . S
C2811 H2795 0.959 . S
C2811 H2796 0.959 . S
C2811 H2797 0.961 . S
C2811 C2810 1.502 . S
C2812 H2798 0.960 . S
C2812 H2799 0.961 . S
C2812 H2800 0.959 . S
C2812 C2810 1.561 . S
C2813 C2810 1.526 . S
C2813 C2814 1.396 . S
C2813 C2818 1.390 . S
C2814 C2808 1.465 . S
C2814 C2813 1.396 . S
C2814 C2815 1.399 . S
C2815 H2801 0.929 . S
C2815 C2814 1.399 . S
C2815 C2816 1.385 . S
C2816 H2802 0.931 . S
C2816 C2815 1.385 . S
C2816 C2817 1.389 . S
C2817 C2816 1.389 . S
C2817 C2818 1.387 . S
C2818 H2803 0.930 . S
C2818 C2813 1.390 . S
C2818 C2817 1.387 . S
H2819 C2831 0.930 . S
H2820 C2833 0.930 . S
H2821 C2834 0.930 . S
H2822 C2838 0.959 . S
H2823 C2838 0.959 . S
H2824 C2838 0.961 . S
H2825 C2839 0.960 . S
H2826 C2839 0.961 . S
H2827 C2839 0.959 . S
H2828 C2842 0.929 . S
H2829 C2843 0.931 . S
H2830 C2845 0.930 . S
C2831 H2819 0.930 . S
C2831 C2832 1.399 . S
C2831 C2836 1.399 . S
C2832 C2831 1.399 . S
C2832 C2833 1.376 . S
C2833 H2820 0.930 . S
C2833 C2832 1.376 . S
C2833 C2834 1.388 . S
C2834 H2821 0.930 . S
C2834 C2833 1.388 . S
C2834 C2835 1.390 . S
C2835 C2834 1.390 . S
C2835 C2836 1.394 . S
C2835 C2841 1.465 . S
C2836 C2831 1.399 . S
C2836 C2835 1.394 . S
C2836 C2837 1.516 . S
C2837 C2836 1.516 . S
C2837 C2838 1.502 . S
C2837 C2839 1.561 . S
C2837 C2840 1.526 . S
C2838 H2822 0.959 . S
C2838 H2823 0.959 . S
C2838 H2824 0.961 . S
C2838 C2837 1.502 . S
C2839 H2825 0.960 . S
C2839 H2826 0.961 . S
C2839 H2827 0.959 . S
C2839 C2837 1.561 . S
C2840 C2837 1.526 . S
C2840 C2841 1.396 . S
C2840 C2845 1.390 . S
C2841 C2835 1.465 . S
C2841 C2840 1.396 . S
C2841 C2842 1.399 . S
C2842 H2828 0.929 . S
C2842 C2841 1.399 . S
C2842 C2843 1.385 . S
C2843 H2829 0.931 . S
C2843 C2842 1.385 . S
C2843 C2844 1.389 . S
C2844 C2843 1.389 . S
C2844 C2845 1.387 . S
C2845 H2830 0.930 . S
C2845 C2840 1.390 . S
C2845 C2844 1.387 . S
H2846 C2858 0.930 . S
H2847 C2860 0.930 . S
H2848 C2861 0.930 . S
H2849 C2865 0.959 . S
H2850 C2865 0.959 . S
H2851 C2865 0.961 . S
H2852 C2866 0.960 . S
H2853 C2866 0.961 . S
H2854 C2866 0.959 . S
H2855 C2869 0.929 . S
H2856 C2870 0.931 1_455 S
H2857 C2872 0.930 . S
C2858 H2846 0.930 . S
C2858 C2859 1.399 . S
C2858 C2863 1.399 . S
C2859 C2858 1.399 . S
C2859 C2860 1.376 . S
C2860 H2847 0.930 . S
C2860 C2859 1.376 . S
C2860 C2861 1.388 . S
C2861 H2848 0.930 . S
C2861 C2860 1.388 . S
C2861 C2862 1.390 . S
C2862 C2861 1.390 . S
C2862 C2863 1.394 . S
C2862 C2868 1.465 . S
C2863 C2858 1.399 . S
C2863 C2862 1.394 . S
C2863 C2864 1.516 . S
C2864 C2863 1.516 . S
C2864 C2865 1.502 . S
C2864 C2866 1.561 . S
C2864 C2867 1.526 . S
C2865 H2849 0.959 . S
C2865 H2850 0.959 . S
C2865 H2851 0.961 . S
C2865 C2864 1.502 . S
C2866 H2852 0.960 . S
C2866 H2853 0.961 . S
C2866 H2854 0.959 . S
C2866 C2864 1.561 . S
C2867 C2864 1.526 . S
C2867 C2868 1.396 . S
C2867 C2872 1.390 . S
C2868 C2862 1.465 . S
C2868 C2867 1.396 . S
C2868 C2869 1.399 . S
C2869 H2855 0.929 . S
C2869 C2868 1.399 . S
C2869 C2870 1.385 . S
C2870 H2856 0.931 1_655 S
C2870 C2869 1.385 . S
C2870 C2871 1.389 . S
C2871 C2870 1.389 . S
C2871 C2872 1.387 . S
C2872 H2857 0.930 . S
C2872 C2867 1.390 . S
C2872 C2871 1.387 . S
H2873 C2885 0.930 . S
H2874 C2887 0.930 . S
H2875 C2888 0.930 . S
H2876 C2892 0.959 . S
H2877 C2892 0.959 . S
H2878 C2892 0.961 . S
H2879 C2893 0.960 . S
H2880 C2893 0.961 . S
H2881 C2893 0.959 . S
H2882 C2896 0.929 . S
H2883 C2897 0.931 . S
H2884 C2899 0.930 . S
C2885 H2873 0.930 . S
C2885 C2886 1.399 . S
C2885 C2890 1.399 . S
C2886 C2885 1.399 . S
C2886 C2887 1.376 . S
C2887 H2874 0.930 . S
C2887 C2886 1.376 . S
C2887 C2888 1.388 . S
C2888 H2875 0.930 . S
C2888 C2887 1.388 . S
C2888 C2889 1.390 . S
C2889 C2888 1.390 . S
C2889 C2890 1.394 . S
C2889 C2895 1.465 . S
C2890 C2885 1.399 . S
C2890 C2889 1.394 . S
C2890 C2891 1.516 . S
C2891 C2890 1.516 . S
C2891 C2892 1.502 . S
C2891 C2893 1.561 . S
C2891 C2894 1.526 . S
C2892 H2876 0.959 . S
C2892 H2877 0.959 . S
C2892 H2878 0.961 . S
C2892 C2891 1.502 . S
C2893 H2879 0.960 . S
C2893 H2880 0.961 . S
C2893 H2881 0.959 . S
C2893 C2891 1.561 . S
C2894 C2891 1.526 . S
C2894 C2895 1.396 . S
C2894 C2899 1.390 . S
C2895 C2889 1.465 . S
C2895 C2894 1.396 . S
C2895 C2896 1.399 . S
C2896 H2882 0.929 . S
C2896 C2895 1.399 . S
C2896 C2897 1.385 . S
C2897 H2883 0.931 . S
C2897 C2896 1.385 . S
C2897 C2898 1.389 . S
C2898 C2897 1.389 . S
C2898 C2899 1.387 . S
C2899 H2884 0.930 . S
C2899 C2894 1.390 . S
C2899 C2898 1.387 . S
H2900 C2912 0.930 . S
H2901 C2914 0.930 . S
H2902 C2915 0.930 . S
H2903 C2919 0.959 . S
H2904 C2919 0.959 . S
H2905 C2919 0.961 . S
H2906 C2920 0.960 . S
H2907 C2920 0.961 . S
H2908 C2920 0.959 . S
H2909 C2923 0.929 . S
H2910 C2924 0.931 . S
H2911 C2926 0.930 . S
C2912 H2900 0.930 . S
C2912 C2913 1.399 . S
C2912 C2917 1.399 . S
C2913 C2912 1.399 . S
C2913 C2914 1.376 . S
C2914 H2901 0.930 . S
C2914 C2913 1.376 . S
C2914 C2915 1.388 . S
C2915 H2902 0.930 . S
C2915 C2914 1.388 . S
C2915 C2916 1.390 . S
C2916 C2915 1.390 . S
C2916 C2917 1.394 . S
C2916 C2922 1.465 . S
C2917 C2912 1.399 . S
C2917 C2916 1.394 . S
C2917 C2918 1.516 . S
C2918 C2917 1.516 . S
C2918 C2919 1.502 . S
C2918 C2920 1.561 . S
C2918 C2921 1.526 . S
C2919 H2903 0.959 . S
C2919 H2904 0.959 . S
C2919 H2905 0.961 . S
C2919 C2918 1.502 . S
C2920 H2906 0.960 . S
C2920 H2907 0.961 . S
C2920 H2908 0.959 . S
C2920 C2918 1.561 . S
C2921 C2918 1.526 . S
C2921 C2922 1.396 . S
C2921 C2926 1.390 . S
C2922 C2916 1.465 . S
C2922 C2921 1.396 . S
C2922 C2923 1.399 . S
C2923 H2909 0.929 . S
C2923 C2922 1.399 . S
C2923 C2924 1.385 . S
C2924 H2910 0.931 . S
C2924 C2923 1.385 . S
C2924 C2925 1.389 . S
C2925 C2924 1.389 . S
C2925 C2926 1.387 . S
C2926 H2911 0.930 . S
C2926 C2921 1.390 . S
C2926 C2925 1.387 . S
H2927 C2939 0.930 . S
H2928 C2941 0.930 . S
H2929 C2942 0.930 . S
H2930 C2946 0.959 . S
H2931 C2946 0.959 . S
H2932 C2946 0.961 . S
H2933 C2947 0.960 . S
H2934 C2947 0.961 . S
H2935 C2947 0.959 . S
H2936 C2950 0.929 . S
H2937 C2951 0.931 . S
H2938 C2953 0.930 . S
C2939 H2927 0.930 . S
C2939 C2940 1.399 . S
C2939 C2944 1.399 . S
C2940 C2939 1.399 . S
C2940 C2941 1.376 . S
C2941 H2928 0.930 . S
C2941 C2940 1.376 . S
C2941 C2942 1.388 . S
C2942 H2929 0.930 . S
C2942 C2941 1.388 . S
C2942 C2943 1.390 . S
C2943 C2942 1.390 . S
C2943 C2944 1.394 . S
C2943 C2949 1.465 . S
C2944 C2939 1.399 . S
C2944 C2943 1.394 . S
C2944 C2945 1.516 . S
C2945 C2944 1.516 . S
C2945 C2946 1.502 . S
C2945 C2947 1.561 . S
C2945 C2948 1.526 . S
C2946 H2930 0.959 . S
C2946 H2931 0.959 . S
C2946 H2932 0.961 . S
C2946 C2945 1.502 . S
C2947 H2933 0.960 . S
C2947 H2934 0.961 . S
C2947 H2935 0.959 . S
C2947 C2945 1.561 . S
C2948 C2945 1.526 . S
C2948 C2949 1.396 . S
C2948 C2953 1.390 . S
C2949 C2943 1.465 . S
C2949 C2948 1.396 . S
C2949 C2950 1.399 . S
C2950 H2936 0.929 . S
C2950 C2949 1.399 . S
C2950 C2951 1.385 . S
C2951 H2937 0.931 . S
C2951 C2950 1.385 . S
C2951 C2952 1.389 . S
C2952 C2951 1.389 . S
C2952 C2953 1.387 . S
C2953 H2938 0.930 . S
C2953 C2948 1.390 . S
C2953 C2952 1.387 . S
H2954 C2966 0.930 . S
H2955 C2968 0.930 . S
H2956 C2969 0.930 . S
H2957 C2973 0.959 . S
H2958 C2973 0.959 . S
H2959 C2973 0.961 . S
H2960 C2974 0.960 . S
H2961 C2974 0.961 . S
H2962 C2974 0.959 . S
H2963 C2977 0.929 . S
H2964 C2978 0.931 . S
H2965 C2980 0.930 . S
C2966 H2954 0.930 . S
C2966 C2967 1.399 . S
C2966 C2971 1.399 . S
C2967 C2966 1.399 . S
C2967 C2968 1.376 . S
C2968 H2955 0.930 . S
C2968 C2967 1.376 . S
C2968 C2969 1.388 . S
C2969 H2956 0.930 . S
C2969 C2968 1.388 . S
C2969 C2970 1.390 . S
C2970 C2969 1.390 . S
C2970 C2971 1.394 . S
C2970 C2976 1.465 . S
C2971 C2966 1.399 . S
C2971 C2970 1.394 . S
C2971 C2972 1.516 . S
C2972 C2971 1.516 . S
C2972 C2973 1.502 . S
C2972 C2974 1.561 . S
C2972 C2975 1.526 . S
C2973 H2957 0.959 . S
C2973 H2958 0.959 . S
C2973 H2959 0.961 . S
C2973 C2972 1.502 . S
C2974 H2960 0.960 . S
C2974 H2961 0.961 . S
C2974 H2962 0.959 . S
C2974 C2972 1.561 . S
C2975 C2972 1.526 . S
C2975 C2976 1.396 . S
C2975 C2980 1.390 . S
C2976 C2970 1.465 . S
C2976 C2975 1.396 . S
C2976 C2977 1.399 . S
C2977 H2963 0.929 . S
C2977 C2976 1.399 . S
C2977 C2978 1.385 . S
C2978 H2964 0.931 . S
C2978 C2977 1.385 . S
C2978 C2979 1.389 . S
C2979 C2978 1.389 . S
C2979 C2980 1.387 . S
C2980 H2965 0.930 . S
C2980 C2975 1.390 . S
C2980 C2979 1.387 . S
H2981 C2993 0.930 . S
H2982 C2995 0.930 . S
H2983 C2996 0.930 . S
H2984 C3000 0.959 . S
H2985 C3000 0.959 . S
H2986 C3000 0.961 . S
H2987 C3001 0.960 . S
H2988 C3001 0.961 . S
H2989 C3001 0.959 . S
H2990 C3004 0.929 . S
H2991 C3005 0.931 . S
H2992 C3007 0.930 . S
C2993 H2981 0.930 . S
C2993 C2994 1.399 . S
C2993 C2998 1.399 . S
C2994 C2993 1.399 . S
C2994 C2995 1.376 . S
C2995 H2982 0.930 . S
C2995 C2994 1.376 . S
C2995 C2996 1.388 . S
C2996 H2983 0.930 . S
C2996 C2995 1.388 . S
C2996 C2997 1.390 . S
C2997 C2996 1.390 . S
C2997 C2998 1.394 . S
C2997 C3003 1.465 . S
C2998 C2993 1.399 . S
C2998 C2997 1.394 . S
C2998 C2999 1.516 . S
C2999 C2998 1.516 . S
C2999 C3000 1.502 . S
C2999 C3001 1.561 . S
C2999 C3002 1.526 . S
C3000 H2984 0.959 . S
C3000 H2985 0.959 . S
C3000 H2986 0.961 . S
C3000 C2999 1.502 . S
C3001 H2987 0.960 . S
C3001 H2988 0.961 . S
C3001 H2989 0.959 . S
C3001 C2999 1.561 . S
C3002 C2999 1.526 . S
C3002 C3003 1.396 . S
C3002 C3007 1.390 . S
C3003 C2997 1.465 . S
C3003 C3002 1.396 . S
C3003 C3004 1.399 . S
C3004 H2990 0.929 . S
C3004 C3003 1.399 . S
C3004 C3005 1.385 . S
C3005 H2991 0.931 . S
C3005 C3004 1.385 . S
C3005 C3006 1.389 . S
C3006 C3005 1.389 . S
C3006 C3007 1.387 . S
C3007 H2992 0.930 . S
C3007 C3002 1.390 . S
C3007 C3006 1.387 . S
H3008 C3020 0.930 . S
H3009 C3022 0.930 . S
H3010 C3023 0.930 . S
H3011 C3027 0.959 . S
H3012 C3027 0.959 . S
H3013 C3027 0.961 . S
H3014 C3028 0.960 . S
H3015 C3028 0.961 . S
H3016 C3028 0.959 . S
H3017 C3031 0.929 . S
H3018 C3032 0.931 . S
H3019 C3034 0.930 . S
C3020 H3008 0.930 . S
C3020 C3021 1.399 . S
C3020 C3025 1.399 . S
C3021 C3020 1.399 . S
C3021 C3022 1.376 . S
C3022 H3009 0.930 . S
C3022 C3021 1.376 . S
C3022 C3023 1.388 . S
C3023 H3010 0.930 . S
C3023 C3022 1.388 . S
C3023 C3024 1.390 . S
C3024 C3023 1.390 . S
C3024 C3025 1.394 . S
C3024 C3030 1.465 . S
C3025 C3020 1.399 . S
C3025 C3024 1.394 . S
C3025 C3026 1.516 . S
C3026 C3025 1.516 . S
C3026 C3027 1.502 . S
C3026 C3028 1.561 . S
C3026 C3029 1.526 . S
C3027 H3011 0.959 . S
C3027 H3012 0.959 . S
C3027 H3013 0.961 . S
C3027 C3026 1.502 . S
C3028 H3014 0.960 . S
C3028 H3015 0.961 . S
C3028 H3016 0.959 . S
C3028 C3026 1.561 . S
C3029 C3026 1.526 . S
C3029 C3030 1.396 . S
C3029 C3034 1.390 . S
C3030 C3024 1.465 . S
C3030 C3029 1.396 . S
C3030 C3031 1.399 . S
C3031 H3017 0.929 . S
C3031 C3030 1.399 . S
C3031 C3032 1.385 . S
C3032 H3018 0.931 . S
C3032 C3031 1.385 . S
C3032 C3033 1.389 . S
C3033 C3032 1.389 . S
C3033 C3034 1.387 . S
C3034 H3019 0.930 . S
C3034 C3029 1.390 . S
C3034 C3033 1.387 . S
H3035 C3047 0.930 . S
H3036 C3049 0.930 . S
H3037 C3050 0.930 . S
H3038 C3054 0.959 . S
H3039 C3054 0.959 . S
H3040 C3054 0.961 . S
H3041 C3055 0.960 . S
H3042 C3055 0.961 . S
H3043 C3055 0.959 . S
H3044 C3058 0.929 . S
H3045 C3059 0.931 . S
H3046 C3061 0.930 . S
C3047 H3035 0.930 . S
C3047 C3048 1.399 . S
C3047 C3052 1.399 . S
C3048 C3047 1.399 . S
C3048 C3049 1.376 . S
C3049 H3036 0.930 . S
C3049 C3048 1.376 . S
C3049 C3050 1.388 . S
C3050 H3037 0.930 . S
C3050 C3049 1.388 . S
C3050 C3051 1.390 . S
C3051 C3050 1.390 . S
C3051 C3052 1.394 . S
C3051 C3057 1.465 . S
C3052 C3047 1.399 . S
C3052 C3051 1.394 . S
C3052 C3053 1.516 . S
C3053 C3052 1.516 . S
C3053 C3054 1.502 . S
C3053 C3055 1.561 . S
C3053 C3056 1.526 . S
C3054 H3038 0.959 . S
C3054 H3039 0.959 . S
C3054 H3040 0.961 . S
C3054 C3053 1.502 . S
C3055 H3041 0.960 . S
C3055 H3042 0.961 . S
C3055 H3043 0.959 . S
C3055 C3053 1.561 . S
C3056 C3053 1.526 . S
C3056 C3057 1.396 . S
C3056 C3061 1.390 . S
C3057 C3051 1.465 . S
C3057 C3056 1.396 . S
C3057 C3058 1.399 . S
C3058 H3044 0.929 . S
C3058 C3057 1.399 . S
C3058 C3059 1.385 . S
C3059 H3045 0.931 . S
C3059 C3058 1.385 . S
C3059 C3060 1.389 . S
C3060 C3059 1.389 . S
C3060 C3061 1.387 . S
C3061 H3046 0.930 . S
C3061 C3056 1.390 . S
C3061 C3060 1.387 . S
H3062 C3074 0.930 . S
H3063 C3076 0.930 . S
H3064 C3077 0.930 . S
H3065 C3081 0.959 . S
H3066 C3081 0.959 . S
H3067 C3081 0.961 . S
H3068 C3082 0.960 . S
H3069 C3082 0.961 . S
H3070 C3082 0.959 . S
H3071 C3085 0.929 . S
H3072 C3086 0.931 . S
H3073 C3088 0.930 . S
C3074 H3062 0.930 . S
C3074 C3075 1.399 . S
C3074 C3079 1.399 . S
C3075 C3074 1.399 . S
C3075 C3076 1.376 . S
C3076 H3063 0.930 . S
C3076 C3075 1.376 . S
C3076 C3077 1.388 . S
C3077 H3064 0.930 . S
C3077 C3076 1.388 . S
C3077 C3078 1.390 . S
C3078 C3077 1.390 . S
C3078 C3079 1.394 . S
C3078 C3084 1.465 . S
C3079 C3074 1.399 . S
C3079 C3078 1.394 . S
C3079 C3080 1.516 . S
C3080 C3079 1.516 . S
C3080 C3081 1.502 . S
C3080 C3082 1.561 . S
C3080 C3083 1.526 . S
C3081 H3065 0.959 . S
C3081 H3066 0.959 . S
C3081 H3067 0.961 . S
C3081 C3080 1.502 . S
C3082 H3068 0.960 . S
C3082 H3069 0.961 . S
C3082 H3070 0.959 . S
C3082 C3080 1.561 . S
C3083 C3080 1.526 . S
C3083 C3084 1.396 . S
C3083 C3088 1.390 . S
C3084 C3078 1.465 . S
C3084 C3083 1.396 . S
C3084 C3085 1.399 . S
C3085 H3071 0.929 . S
C3085 C3084 1.399 . S
C3085 C3086 1.385 . S
C3086 H3072 0.931 . S
C3086 C3085 1.385 . S
C3086 C3087 1.389 . S
C3087 C3086 1.389 . S
C3087 C3088 1.387 . S
C3088 H3073 0.930 . S
C3088 C3083 1.390 . S
C3088 C3087 1.387 . S
H3089 C3101 0.900 1_556 S
H3090 C3103 0.930 . S
H3091 C3104 0.930 . S
H3092 C3108 0.959 . S
H3093 C3108 0.959 . S
H3094 C3108 0.961 . S
H3095 C3109 0.960 . S
H3096 C3109 0.961 . S
H3097 C3109 0.959 . S
H3098 C3112 0.929 . S
H3099 C3113 0.931 . S
H3100 C3115 0.930 . S
C3101 H3089 0.900 1_554 S
C3101 C3102 1.421 . S
C3101 C3106 1.408 . S
C3102 C3101 1.421 . S
C3102 C3103 1.376 . S
C3103 H3090 0.930 . S
C3103 C3102 1.376 . S
C3103 C3104 1.388 . S
C3104 H3091 0.930 . S
C3104 C3103 1.388 . S
C3104 C3105 1.390 . S
C3105 C3104 1.390 . S
C3105 C3106 1.394 . S
C3105 C3111 1.465 . S
C3106 C3101 1.408 . S
C3106 C3105 1.394 . S
C3106 C3107 1.516 1_554 S
C3107 C3106 1.516 1_556 S
C3107 C3108 1.502 . S
C3107 C3109 1.561 . S
C3107 C3110 1.526 1_556 S
C3108 H3092 0.959 . S
C3108 H3093 0.959 . S
C3108 H3094 0.961 . S
C3108 C3107 1.502 . S
C3109 H3095 0.960 . S
C3109 H3096 0.961 . S
C3109 H3097 0.959 . S
C3109 C3107 1.561 . S
C3110 C3107 1.526 1_554 S
C3110 C3111 1.396 . S
C3110 C3115 1.390 1_554 S
C3111 C3105 1.465 . S
C3111 C3110 1.396 . S
C3111 C3112 1.399 . S
C3112 H3098 0.929 . S
C3112 C3111 1.399 . S
C3112 C3113 1.385 . S
C3113 H3099 0.931 . S
C3113 C3112 1.385 . S
C3113 C3114 1.389 . S
C3114 C3113 1.389 . S
C3114 C3115 1.387 1_554 S
C3115 H3100 0.930 . S
C3115 C3110 1.390 1_556 S
C3115 C3114 1.387 1_556 S
H3116 C3128 0.930 . S
H3117 C3130 0.930 . S
H3118 C3131 0.930 . S
H3119 C3135 0.959 . S
H3120 C3135 0.959 . S
H3121 C3135 0.961 . S
H3122 C3136 0.960 . S
H3123 C3136 0.961 . S
H3124 C3136 0.959 . S
H3125 C3139 0.929 . S
H3126 C3140 0.931 . S
H3127 C3142 0.930 . S
C3128 H3116 0.930 . S
C3128 C3129 1.399 . S
C3128 C3133 1.399 . S
C3129 C3128 1.399 . S
C3129 C3130 1.376 . S
C3130 H3117 0.930 . S
C3130 C3129 1.376 . S
C3130 C3131 1.388 . S
C3131 H3118 0.930 . S
C3131 C3130 1.388 . S
C3131 C3132 1.390 . S
C3132 C3131 1.390 . S
C3132 C3133 1.394 . S
C3132 C3138 1.465 . S
C3133 C3128 1.399 . S
C3133 C3132 1.394 . S
C3133 C3134 1.516 . S
C3134 C3133 1.516 . S
C3134 C3135 1.502 . S
C3134 C3136 1.561 . S
C3134 C3137 1.526 . S
C3135 H3119 0.959 . S
C3135 H3120 0.959 . S
C3135 H3121 0.961 . S
C3135 C3134 1.502 . S
C3136 H3122 0.960 . S
C3136 H3123 0.961 . S
C3136 H3124 0.959 . S
C3136 C3134 1.561 . S
C3137 C3134 1.526 . S
C3137 C3138 1.396 . S
C3137 C3142 1.390 . S
C3138 C3132 1.465 . S
C3138 C3137 1.396 . S
C3138 C3139 1.399 . S
C3139 H3125 0.929 . S
C3139 C3138 1.399 . S
C3139 C3140 1.385 . S
C3140 H3126 0.931 . S
C3140 C3139 1.385 . S
C3140 C3141 1.389 . S
C3141 C3140 1.389 . S
C3141 C3142 1.387 . S
C3142 H3127 0.930 . S
C3142 C3137 1.390 . S
C3142 C3141 1.387 . S
H3143 C3155 0.930 . S
H3144 C3157 0.930 . S
H3145 C3158 0.930 1_556 S
H3146 C3162 0.959 . S
H3147 C3162 0.959 . S
H3148 C3162 0.961 . S
H3149 C3163 0.960 . S
H3150 C3163 0.961 . S
H3151 C3163 0.959 . S
H3152 C3166 0.929 . S
H3153 C3167 0.931 . S
H3154 C3169 0.930 . S
C3155 H3143 0.930 . S
C3155 C3156 1.399 . S
C3155 C3160 1.399 . S
C3156 C3155 1.399 . S
C3156 C3157 1.376 . S
C3157 H3144 0.930 . S
C3157 C3156 1.376 . S
C3157 C3158 1.388 . S
C3158 H3145 0.930 1_554 S
C3158 C3157 1.388 . S
C3158 C3159 1.390 . S
C3159 C3158 1.390 . S
C3159 C3160 1.394 . S
C3159 C3165 1.465 . S
C3160 C3155 1.399 . S
C3160 C3159 1.394 . S
C3160 C3161 1.516 . S
C3161 C3160 1.516 . S
C3161 C3162 1.502 . S
C3161 C3163 1.561 . S
C3161 C3164 1.526 . S
C3162 H3146 0.959 . S
C3162 H3147 0.959 . S
C3162 H3148 0.961 . S
C3162 C3161 1.502 . S
C3163 H3149 0.960 . S
C3163 H3150 0.961 . S
C3163 H3151 0.959 . S
C3163 C3161 1.561 . S
C3164 C3161 1.526 . S
C3164 C3165 1.396 . S
C3164 C3169 1.390 . S
C3165 C3159 1.465 . S
C3165 C3164 1.396 . S
C3165 C3166 1.399 1_554 S
C3166 H3152 0.929 . S
C3166 C3165 1.399 1_556 S
C3166 C3167 1.385 . S
C3167 H3153 0.931 . S
C3167 C3166 1.385 . S
C3167 C3168 1.389 1_556 S
C3168 C3167 1.389 1_554 S
C3168 C3169 1.387 . S
C3169 H3154 0.930 . S
C3169 C3164 1.390 . S
C3169 C3168 1.387 . S
H3170 C3182 0.930 . S
H3171 C3184 0.930 . S
H3172 C3185 0.930 . S
H3173 C3189 0.959 . S
H3174 C3189 0.959 . S
H3175 C3189 0.961 . S
H3176 C3190 0.960 . S
H3177 C3190 0.961 . S
H3178 C3190 0.959 . S
H3179 C3193 0.929 . S
H3180 C3194 0.931 . S
H3181 C3196 0.930 . S
C3182 H3170 0.930 . S
C3182 C3183 1.399 . S
C3182 C3187 1.399 . S
C3183 C3182 1.399 . S
C3183 C3184 1.376 . S
C3184 H3171 0.930 . S
C3184 C3183 1.376 . S
C3184 C3185 1.388 . S
C3185 H3172 0.930 . S
C3185 C3184 1.388 . S
C3185 C3186 1.390 . S
C3186 C3185 1.390 . S
C3186 C3187 1.394 . S
C3186 C3192 1.465 . S
C3187 C3182 1.399 . S
C3187 C3186 1.394 . S
C3187 C3188 1.516 . S
C3188 C3187 1.516 . S
C3188 C3189 1.502 . S
C3188 C3190 1.561 . S
C3188 C3191 1.526 . S
C3189 H3173 0.959 . S
C3189 H3174 0.959 . S
C3189 H3175 0.961 . S
C3189 C3188 1.502 . S
C3190 H3176 0.960 . S
C3190 H3177 0.961 . S
C3190 H3178 0.959 . S
C3190 C3188 1.561 . S
C3191 C3188 1.526 . S
C3191 C3192 1.396 . S
C3191 C3196 1.390 . S
C3192 C3186 1.465 . S
C3192 C3191 1.396 . S
C3192 C3193 1.399 . S
C3193 H3179 0.929 . S
C3193 C3192 1.399 . S
C3193 C3194 1.385 . S
C3194 H3180 0.931 . S
C3194 C3193 1.385 . S
C3194 C3195 1.389 . S
C3195 C3194 1.389 . S
C3195 C3196 1.387 . S
C3196 H3181 0.930 . S
C3196 C3191 1.390 . S
C3196 C3195 1.387 . S
H3197 C3209 0.930 . S
H3198 C3211 0.930 . S
H3199 C3212 0.930 . S
H3200 C3216 0.959 . S
H3201 C3216 0.959 . S
H3202 C3216 0.961 . S
H3203 C3217 0.960 . S
H3204 C3217 0.961 . S
H3205 C3217 0.959 . S
H3206 C3220 0.929 . S
H3207 C3221 0.931 . S
H3208 C3223 0.930 . S
C3209 H3197 0.930 . S
C3209 C3210 1.399 . S
C3209 C3214 1.399 . S
C3210 C3209 1.399 . S
C3210 C3211 1.376 . S
C3211 H3198 0.930 . S
C3211 C3210 1.376 . S
C3211 C3212 1.388 . S
C3212 H3199 0.930 . S
C3212 C3211 1.388 . S
C3212 C3213 1.390 . S
C3213 C3212 1.390 . S
C3213 C3214 1.394 . S
C3213 C3219 1.465 . S
C3214 C3209 1.399 . S
C3214 C3213 1.394 . S
C3214 C3215 1.516 . S
C3215 C3214 1.516 . S
C3215 C3216 1.502 . S
C3215 C3217 1.561 . S
C3215 C3218 1.526 . S
C3216 H3200 0.959 . S
C3216 H3201 0.959 . S
C3216 H3202 0.961 . S
C3216 C3215 1.502 . S
C3217 H3203 0.960 . S
C3217 H3204 0.961 . S
C3217 H3205 0.959 . S
C3217 C3215 1.561 . S
C3218 C3215 1.526 . S
C3218 C3219 1.396 . S
C3218 C3223 1.390 . S
C3219 C3213 1.465 . S
C3219 C3218 1.396 . S
C3219 C3220 1.399 . S
C3220 H3206 0.929 . S
C3220 C3219 1.399 . S
C3220 C3221 1.385 . S
C3221 H3207 0.931 . S
C3221 C3220 1.385 . S
C3221 C3222 1.389 . S
C3222 C3221 1.389 . S
C3222 C3223 1.387 . S
C3223 H3208 0.930 . S
C3223 C3218 1.390 . S
C3223 C3222 1.387 . S
C645 C101 1.457 . S
C657 C316 1.139 . S
C672 C57 1.435 . S
C684 C351 1.407 . S
C699 C70 1.000 . S
C711 C356 1.022 . S
C738 C381 1.313 . S
C726 C82 1.419 . S
C753 C23 1.414 . S
C765 C401 1.376 . S
C792 C416 0.951 . S
C780 C29 0.995 . S
C819 C451 1.364 . S
C807 C49 1.446 . S
C834 C10 1.407 . S
C846 C456 1.226 . S
C873 C331 1.512 . S
C861 C218 1.586 . S
C888 C226 1.002 . S
C900 C341 0.885 . S
C927 C371 1.355 1_565 S
C915 C251 1.404 . S
C954 C376 0.957 . S
C942 C159 1.160 . S
C969 C211 1.160 . S
C981 C396 1.038 1_655 S
C1008 C431 1.342 . S
C996 C225 1.428 . S
C1035 C441 0.937 . S
C1023 C252 0.999 . S
C1062 C471 1.454 . S
C1050 C166 1.591 . S
C1089 C321 1.303 1_565 S
C1077 C147 1.490 . S
C1104 C263 1.675 . S
C1116 C491 1.623 . S
C1143 C501 1.407 . S
C1131 C309 1.534 . S
C1170 C516 0.881 . S
C1158 C291 0.998 . S
C1185 C108 1.456 . S
C1197 C461 1.334 . S
C1212 C121 1.531 . S
C1224 C361 1.396 . S
C1239 C302 1.678 . S
C1251 C551 1.668 . S
C1278 C556 0.854 . S
C1266 C276 1.008 . S
C1305 C314 1.376 . S
C1293 C55 1.519 . S
C1332 C570 1.679 . S
C1320 C96 1.692 . S
C1347 C88 1.245 . S
C1359 C354 1.209 . S
C1374 C75 1.631 . S
C1386 C544 1.584 . S
C1413 C404 1.580 . S
C1401 C4 1.638 . S
C1428 C44 1.268 . S
C1440 C494 1.096 . S
C1467 C450 1.630 . S
C1455 C31 1.680 . S
C1494 C574 1.425 . S
C1482 C18 1.501 . S
C1521 C330 1.715 1_556 S
C1509 C133 1.736 . S
C1548 C564 1.188 . S
C1536 C296 1.226 . S
C1563 C107 1.623 . S
C1575 C370 1.563 . S
C1590 C264 1.403 . S
C1602 C534 1.260 . S
C1617 C140 1.384 . S
C1629 C394 1.345 . S
C1656 C510 1.612 . S
C1644 C289 1.634 . S
C1671 C114 1.233 . S
C1683 C444 1.108 . S
C1698 C265 1.745 . S
C1710 C590 1.684 . S
C1725 C179 1.557 . S
C1737 C324 1.385 . S
C1752 C161 1.928 . S
C1764 C490 1.913 . S
C1779 C244 1.720 . S
C1791 C424 1.583 . S
C1806 C224 1.244 . S
C1818 C514 1.113 . S
C1845 C584 1.475 . S
C1833 C257 1.526 . S
C1860 C199 1.716 . S
C1872 C364 1.606 . S
C1899 C390 1.869 . S
C1887 C237 1.921 . S
C1926 C334 1.216 . S
C1914 C185 1.231 . S
C1941 C69 1.409 . S
C1953 C596 1.297 . S
C1980 C571 1.373 . S
C1968 C83 1.444 . S
C1995 C94 1.031 . S
C2007 C616 0.974 1_655 S
C2022 C56 1.416 . S
C2034 C541 1.327 . S
C2049 C42 1.422 . S
C2061 C481 1.386 . S
C2088 C496 0.899 . S
C2076 C3 1.003 . S
C2115 C531 1.386 . S
C2103 C16 1.463 . S
C2142 C576 1.171 . S
C2130 C36 1.427 . S
C2169 C611 1.531 . S
C2157 C238 1.574 . S
C2184 C174 1.023 . S
C2196 C561 0.845 . S
C2223 C631 1.343 . S
C2211 C186 1.411 . S
C2250 C536 0.959 . S
C2238 C198 1.150 . S
C2277 C476 1.061 . S
C2265 C239 1.128 . S
C2292 C173 1.441 . S
C2304 C511 1.416 . S
C2331 C521 0.925 . S
C2319 C187 1.004 . S
C2346 C205 1.586 . S
C2358 C591 1.442 . S
C2385 C601 1.265 . S
C2373 C290 1.481 . S
C2400 C122 1.697 . S
C2412 C411 1.653 . S
C2439 C421 1.415 . S
C2427 C134 1.535 . S
C2466 C436 0.901 . S
C2454 C148 0.993 . S
C2493 C581 1.304 . S
C2481 C283 1.463 . S
C2508 C270 1.521 . S
C2520 C621 1.441 . S
C2547 C391 1.626 . S
C2535 C135 1.668 . S
C2574 C336 0.993 . S
C2562 C109 1.024 . S
C2589 C81 1.506 . S
C2601 C594 1.417 . S
C2628 C350 1.630 . S
C2616 C68 1.686 . S
C2643 C62 1.246 . S
C2655 C614 1.172 . S
C2670 C95 1.631 . S
C2682 C384 1.568 . S
C2697 C30 1.641 . S
C2709 C484 1.542 . S
C2736 C414 1.202 . S
C2724 C17 1.242 . S
C2751 C5 1.693 . S
C2763 C530 1.658 . S
C2778 C43 1.493 . S
C2790 C454 1.416 . S
C2817 C610 1.656 . S
C2805 C304 1.749 . S
C2832 C153 1.226 . S
C2844 C344 1.183 . S
C2871 C630 1.620 . S
C2859 C278 1.631 . S
C2886 C127 1.395 . S
C2898 C374 1.306 . S
C2913 C303 1.398 . S
C2925 C474 1.222 . S
C2952 C430 1.603 . S
C2940 C146 1.623 . S
C2967 C277 1.229 . S
C2979 C524 1.106 . S
C3006 C470 1.666 . S
C2994 C120 1.745 . S
C3033 C604 1.473 . S
C3021 C231 1.527 . S
C3060 C410 1.868 . S
C3048 C200 1.918 . S
C3075 C212 1.721 . S
C3087 C504 1.582 . S
C3114 C434 1.219 . S
C3102 C172 1.229 . S
C3129 C192 1.524 . S
C3141 C464 1.476 . S
C3156 C160 1.691 . S
C3168 C624 1.638 . S
C3195 C550 1.869 . S
C3183 C213 1.922 . S
C3222 C554 1.089 . S
C3210 C250 1.251 . S
