# Generated by pormake.
# Topology gar, (4,6)-cn, num edge types: 1
# Building blocks:
#     Node 0, Type 0, BuildingBlock: UXUYUI_clean_sbu_0, # of connection points: 4
#     Node 1, Type 0, BuildingBlock: UXUYUI_clean_sbu_0, # of connection points: 4
#     Node 2, Type 0, BuildingBlock: UXUYUI_clean_sbu_0, # of connection points: 4
#     Node 3, Type 0, BuildingBlock: UXUYUI_clean_sbu_0, # of connection points: 4
#     Node 4, Type 0, BuildingBlock: UXUYUI_clean_sbu_0, # of connection points: 4
#     Node 5, Type 0, BuildingBlock: UXUYUI_clean_sbu_0, # of connection points: 4
#     Node 6, Type 0, BuildingBlock: UXUYUI_clean_sbu_0, # of connection points: 4
#     Node 7, Type 0, BuildingBlock: UXUYUI_clean_sbu_0, # of connection points: 4
#     Node 8, Type 0, BuildingBlock: UXUYUI_clean_sbu_0, # of connection points: 4
#     Node 9, Type 0, BuildingBlock: UXUYUI_clean_sbu_0, # of connection points: 4
#     Node 10, Type 0, BuildingBlock: UXUYUI_clean_sbu_0, # of connection points: 4
#     Node 11, Type 0, BuildingBlock: UXUYUI_clean_sbu_0, # of connection points: 4
#     Node 12, Type 0, BuildingBlock: UXUYUI_clean_sbu_0, # of connection points: 4
#     Node 13, Type 0, BuildingBlock: UXUYUI_clean_sbu_0, # of connection points: 4
#     Node 14, Type 0, BuildingBlock: UXUYUI_clean_sbu_0, # of connection points: 4
#     Node 15, Type 0, BuildingBlock: UXUYUI_clean_sbu_0, # of connection points: 4
#     Node 16, Type 0, BuildingBlock: UXUYUI_clean_sbu_0, # of connection points: 4
#     Node 17, Type 0, BuildingBlock: UXUYUI_clean_sbu_0, # of connection points: 4
#     Node 18, Type 0, BuildingBlock: UXUYUI_clean_sbu_0, # of connection points: 4
#     Node 19, Type 0, BuildingBlock: UXUYUI_clean_sbu_0, # of connection points: 4
#     Node 20, Type 0, BuildingBlock: UXUYUI_clean_sbu_0, # of connection points: 4
#     Node 21, Type 0, BuildingBlock: UXUYUI_clean_sbu_0, # of connection points: 4
#     Node 22, Type 0, BuildingBlock: UXUYUI_clean_sbu_0, # of connection points: 4
#     Node 23, Type 0, BuildingBlock: UXUYUI_clean_sbu_0, # of connection points: 4
#     Node 24, Type 1, BuildingBlock: BETDIP_clean_sbu_0, # of connection points: 6
#     Node 25, Type 1, BuildingBlock: BETDIP_clean_sbu_0, # of connection points: 6
#     Node 26, Type 1, BuildingBlock: BETDIP_clean_sbu_0, # of connection points: 6
#     Node 27, Type 1, BuildingBlock: BETDIP_clean_sbu_0, # of connection points: 6
#     Node 28, Type 1, BuildingBlock: BETDIP_clean_sbu_0, # of connection points: 6
#     Node 29, Type 1, BuildingBlock: BETDIP_clean_sbu_0, # of connection points: 6
#     Node 30, Type 1, BuildingBlock: BETDIP_clean_sbu_0, # of connection points: 6
#     Node 31, Type 1, BuildingBlock: BETDIP_clean_sbu_0, # of connection points: 6
#     Node 32, Type 1, BuildingBlock: BETDIP_clean_sbu_0, # of connection points: 6
#     Node 33, Type 1, BuildingBlock: BETDIP_clean_sbu_0, # of connection points: 6
#     Node 34, Type 1, BuildingBlock: BETDIP_clean_sbu_0, # of connection points: 6
#     Node 35, Type 1, BuildingBlock: BETDIP_clean_sbu_0, # of connection points: 6
#     Node 36, Type 1, BuildingBlock: BETDIP_clean_sbu_0, # of connection points: 6
#     Node 37, Type 1, BuildingBlock: BETDIP_clean_sbu_0, # of connection points: 6
#     Node 38, Type 1, BuildingBlock: BETDIP_clean_sbu_0, # of connection points: 6
#     Node 39, Type 1, BuildingBlock: BETDIP_clean_sbu_0, # of connection points: 6
#     Edge 40, Type (0, 1), BuildingBlock: ZUJKAS_clean_linker_0, # of connection points: 2
#     Edge 41, Type (0, 1), BuildingBlock: ZUJKAS_clean_linker_0, # of connection points: 2
#     Edge 42, Type (0, 1), BuildingBlock: ZUJKAS_clean_linker_0, # of connection points: 2
#     Edge 43, Type (0, 1), BuildingBlock: ZUJKAS_clean_linker_0, # of connection points: 2
#     Edge 44, Type (0, 1), BuildingBlock: ZUJKAS_clean_linker_0, # of connection points: 2
#     Edge 45, Type (0, 1), BuildingBlock: ZUJKAS_clean_linker_0, # of connection points: 2
#     Edge 46, Type (0, 1), BuildingBlock: ZUJKAS_clean_linker_0, # of connection points: 2
#     Edge 47, Type (0, 1), BuildingBlock: ZUJKAS_clean_linker_0, # of connection points: 2
#     Edge 48, Type (0, 1), BuildingBlock: ZUJKAS_clean_linker_0, # of connection points: 2
#     Edge 49, Type (0, 1), BuildingBlock: ZUJKAS_clean_linker_0, # of connection points: 2
#     Edge 50, Type (0, 1), BuildingBlock: ZUJKAS_clean_linker_0, # of connection points: 2
#     Edge 51, Type (0, 1), BuildingBlock: ZUJKAS_clean_linker_0, # of connection points: 2
#     Edge 52, Type (0, 1), BuildingBlock: ZUJKAS_clean_linker_0, # of connection points: 2
#     Edge 53, Type (0, 1), BuildingBlock: ZUJKAS_clean_linker_0, # of connection points: 2
#     Edge 54, Type (0, 1), BuildingBlock: ZUJKAS_clean_linker_0, # of connection points: 2
#     Edge 55, Type (0, 1), BuildingBlock: ZUJKAS_clean_linker_0, # of connection points: 2
#     Edge 56, Type (0, 1), BuildingBlock: ZUJKAS_clean_linker_0, # of connection points: 2
#     Edge 57, Type (0, 1), BuildingBlock: ZUJKAS_clean_linker_0, # of connection points: 2
#     Edge 58, Type (0, 1), BuildingBlock: ZUJKAS_clean_linker_0, # of connection points: 2
#     Edge 59, Type (0, 1), BuildingBlock: ZUJKAS_clean_linker_0, # of connection points: 2
#     Edge 60, Type (0, 1), BuildingBlock: ZUJKAS_clean_linker_0, # of connection points: 2
#     Edge 61, Type (0, 1), BuildingBlock: ZUJKAS_clean_linker_0, # of connection points: 2
#     Edge 62, Type (0, 1), BuildingBlock: ZUJKAS_clean_linker_0, # of connection points: 2
#     Edge 63, Type (0, 1), BuildingBlock: ZUJKAS_clean_linker_0, # of connection points: 2
#     Edge 64, Type (0, 1), BuildingBlock: ZUJKAS_clean_linker_0, # of connection points: 2
#     Edge 65, Type (0, 1), BuildingBlock: ZUJKAS_clean_linker_0, # of connection points: 2
#     Edge 66, Type (0, 1), BuildingBlock: ZUJKAS_clean_linker_0, # of connection points: 2
#     Edge 67, Type (0, 1), BuildingBlock: ZUJKAS_clean_linker_0, # of connection points: 2
#     Edge 68, Type (0, 1), BuildingBlock: ZUJKAS_clean_linker_0, # of connection points: 2
#     Edge 69, Type (0, 1), BuildingBlock: ZUJKAS_clean_linker_0, # of connection points: 2
#     Edge 70, Type (0, 1), BuildingBlock: ZUJKAS_clean_linker_0, # of connection points: 2
#     Edge 71, Type (0, 1), BuildingBlock: ZUJKAS_clean_linker_0, # of connection points: 2
#     Edge 72, Type (0, 1), BuildingBlock: ZUJKAS_clean_linker_0, # of connection points: 2
#     Edge 73, Type (0, 1), BuildingBlock: ZUJKAS_clean_linker_0, # of connection points: 2
#     Edge 74, Type (0, 1), BuildingBlock: ZUJKAS_clean_linker_0, # of connection points: 2
#     Edge 75, Type (0, 1), BuildingBlock: ZUJKAS_clean_linker_0, # of connection points: 2
#     Edge 76, Type (0, 1), BuildingBlock: ZUJKAS_clean_linker_0, # of connection points: 2
#     Edge 77, Type (0, 1), BuildingBlock: ZUJKAS_clean_linker_0, # of connection points: 2
#     Edge 78, Type (0, 1), BuildingBlock: ZUJKAS_clean_linker_0, # of connection points: 2
#     Edge 79, Type (0, 1), BuildingBlock: ZUJKAS_clean_linker_0, # of connection points: 2
#     Edge 80, Type (0, 1), BuildingBlock: ZUJKAS_clean_linker_0, # of connection points: 2
#     Edge 81, Type (0, 1), BuildingBlock: ZUJKAS_clean_linker_0, # of connection points: 2
#     Edge 82, Type (0, 1), BuildingBlock: ZUJKAS_clean_linker_0, # of connection points: 2
#     Edge 83, Type (0, 1), BuildingBlock: ZUJKAS_clean_linker_0, # of connection points: 2
#     Edge 84, Type (0, 1), BuildingBlock: ZUJKAS_clean_linker_0, # of connection points: 2
#     Edge 85, Type (0, 1), BuildingBlock: ZUJKAS_clean_linker_0, # of connection points: 2
#     Edge 86, Type (0, 1), BuildingBlock: ZUJKAS_clean_linker_0, # of connection points: 2
#     Edge 87, Type (0, 1), BuildingBlock: ZUJKAS_clean_linker_0, # of connection points: 2
#     Edge 88, Type (0, 1), BuildingBlock: ZUJKAS_clean_linker_0, # of connection points: 2
#     Edge 89, Type (0, 1), BuildingBlock: ZUJKAS_clean_linker_0, # of connection points: 2
#     Edge 90, Type (0, 1), BuildingBlock: ZUJKAS_clean_linker_0, # of connection points: 2
#     Edge 91, Type (0, 1), BuildingBlock: ZUJKAS_clean_linker_0, # of connection points: 2
#     Edge 92, Type (0, 1), BuildingBlock: ZUJKAS_clean_linker_0, # of connection points: 2
#     Edge 93, Type (0, 1), BuildingBlock: ZUJKAS_clean_linker_0, # of connection points: 2
#     Edge 94, Type (0, 1), BuildingBlock: ZUJKAS_clean_linker_0, # of connection points: 2
#     Edge 95, Type (0, 1), BuildingBlock: ZUJKAS_clean_linker_0, # of connection points: 2
#     Edge 96, Type (0, 1), BuildingBlock: ZUJKAS_clean_linker_0, # of connection points: 2
#     Edge 97, Type (0, 1), BuildingBlock: ZUJKAS_clean_linker_0, # of connection points: 2
#     Edge 98, Type (0, 1), BuildingBlock: ZUJKAS_clean_linker_0, # of connection points: 2
#     Edge 99, Type (0, 1), BuildingBlock: ZUJKAS_clean_linker_0, # of connection points: 2
#     Edge 100, Type (0, 1), BuildingBlock: ZUJKAS_clean_linker_0, # of connection points: 2
#     Edge 101, Type (0, 1), BuildingBlock: ZUJKAS_clean_linker_0, # of connection points: 2
#     Edge 102, Type (0, 1), BuildingBlock: ZUJKAS_clean_linker_0, # of connection points: 2
#     Edge 103, Type (0, 1), BuildingBlock: ZUJKAS_clean_linker_0, # of connection points: 2
#     Edge 104, Type (0, 1), BuildingBlock: ZUJKAS_clean_linker_0, # of connection points: 2
#     Edge 105, Type (0, 1), BuildingBlock: ZUJKAS_clean_linker_0, # of connection points: 2
#     Edge 106, Type (0, 1), BuildingBlock: ZUJKAS_clean_linker_0, # of connection points: 2
#     Edge 107, Type (0, 1), BuildingBlock: ZUJKAS_clean_linker_0, # of connection points: 2
#     Edge 108, Type (0, 1), BuildingBlock: ZUJKAS_clean_linker_0, # of connection points: 2
#     Edge 109, Type (0, 1), BuildingBlock: ZUJKAS_clean_linker_0, # of connection points: 2
#     Edge 110, Type (0, 1), BuildingBlock: ZUJKAS_clean_linker_0, # of connection points: 2
#     Edge 111, Type (0, 1), BuildingBlock: ZUJKAS_clean_linker_0, # of connection points: 2
#     Edge 112, Type (0, 1), BuildingBlock: ZUJKAS_clean_linker_0, # of connection points: 2
#     Edge 113, Type (0, 1), BuildingBlock: ZUJKAS_clean_linker_0, # of connection points: 2
#     Edge 114, Type (0, 1), BuildingBlock: ZUJKAS_clean_linker_0, # of connection points: 2
#     Edge 115, Type (0, 1), BuildingBlock: ZUJKAS_clean_linker_0, # of connection points: 2
#     Edge 116, Type (0, 1), BuildingBlock: ZUJKAS_clean_linker_0, # of connection points: 2
#     Edge 117, Type (0, 1), BuildingBlock: ZUJKAS_clean_linker_0, # of connection points: 2
#     Edge 118, Type (0, 1), BuildingBlock: ZUJKAS_clean_linker_0, # of connection points: 2
#     Edge 119, Type (0, 1), BuildingBlock: ZUJKAS_clean_linker_0, # of connection points: 2
#     Edge 120, Type (0, 1), BuildingBlock: ZUJKAS_clean_linker_0, # of connection points: 2
#     Edge 121, Type (0, 1), BuildingBlock: ZUJKAS_clean_linker_0, # of connection points: 2
#     Edge 122, Type (0, 1), BuildingBlock: ZUJKAS_clean_linker_0, # of connection points: 2
#     Edge 123, Type (0, 1), BuildingBlock: ZUJKAS_clean_linker_0, # of connection points: 2
#     Edge 124, Type (0, 1), BuildingBlock: ZUJKAS_clean_linker_0, # of connection points: 2
#     Edge 125, Type (0, 1), BuildingBlock: ZUJKAS_clean_linker_0, # of connection points: 2
#     Edge 126, Type (0, 1), BuildingBlock: ZUJKAS_clean_linker_0, # of connection points: 2
#     Edge 127, Type (0, 1), BuildingBlock: ZUJKAS_clean_linker_0, # of connection points: 2
#     Edge 128, Type (0, 1), BuildingBlock: ZUJKAS_clean_linker_0, # of connection points: 2
#     Edge 129, Type (0, 1), BuildingBlock: ZUJKAS_clean_linker_0, # of connection points: 2
#     Edge 130, Type (0, 1), BuildingBlock: ZUJKAS_clean_linker_0, # of connection points: 2
#     Edge 131, Type (0, 1), BuildingBlock: ZUJKAS_clean_linker_0, # of connection points: 2
#     Edge 132, Type (0, 1), BuildingBlock: ZUJKAS_clean_linker_0, # of connection points: 2
#     Edge 133, Type (0, 1), BuildingBlock: ZUJKAS_clean_linker_0, # of connection points: 2
#     Edge 134, Type (0, 1), BuildingBlock: ZUJKAS_clean_linker_0, # of connection points: 2
#     Edge 135, Type (0, 1), BuildingBlock: ZUJKAS_clean_linker_0, # of connection points: 2
# Relax obj value: 0.167
# Max RMSD: 0.255
# Mean RMSD: 0.182
data_MOF--net-gar--node1-UXUYUI_clean_sbu_0--node2-BETDIP_clean_sbu_0--edge1-ZUJKAS_clean_linker_0
_symmetry_space_group_name_H-M    P1
_symmetry_Int_Tables_number       1
_symmetry_cell_setting            triclinic
loop_
_symmetry_equiv_pos_as_xyz
'x, y, z'
_cell_length_a     91.701045
_cell_length_b     85.803097
_cell_length_c     83.384807
_cell_angle_alpha  96.514
_cell_angle_beta   97.560552
_cell_angle_gamma 99.944647
loop_
_atom_site_label
_atom_site_type_symbol
_atom_site_fract_x
_atom_site_fract_y
_atom_site_fract_z
_atom_type_partial_charge
Li0 Li 0.01398 0.28782 0.36539 0.0
Li1 Li 0.02799 0.30578 0.38904 0.0
Li2 Li 0.04034 0.29408 0.36844 0.0
Li3 Li 0.02881 0.27832 0.38692 0.0
C4 C 0.03362 0.31952 0.35753 0.0
N5 N 0.05004 0.34032 0.3407 0.0
C6 C 0.04265 0.33366 0.36588 0.0
C7 C 0.03281 0.31601 0.34062 0.0
C8 C 0.05089 0.34402 0.35714 0.0
C9 C 0.04125 0.32666 0.33234 0.0
C10 C 1.00216 0.29401 0.39809 0.0
C11 C 0.99732 0.30368 0.42482 0.0
N12 N 0.98453 0.30779 0.41782 0.0
C13 C 0.98893 0.29825 0.39117 0.0
C14 C 1.00635 0.29665 0.41506 0.0
C15 C 0.98018 0.30522 0.40135 0.0
C16 C 0.98626 0.26947 0.35161 0.0
N17 N 0.99577 0.28341 0.35139 0.0
C18 C 0.97727 0.2927 0.33418 0.0
C19 C 0.99171 0.29488 0.34277 0.0
C20 C 0.96705 0.2785 0.3344 0.0
C21 C 0.97189 0.26658 0.34281 0.0
H22 H 0.98967 0.26084 0.35906 0.0
H23 H 0.99944 0.30603 0.34326 0.0
C24 C 0.03745 0.32836 0.41722 0.0
N25 N 0.02746 0.324 0.40322 0.0
C26 C 0.03585 0.34091 0.42858 0.0
C27 C 0.01396 0.34433 0.4106 0.0
C28 C 0.01613 0.3319 0.3995 0.0
C29 C 0.02381 0.34877 0.42539 0.0
H30 H 0.04642 0.32189 0.41971 0.0
H31 H 0.0085 0.32816 0.38813 0.0
C32 C 0.01968 0.26065 0.35175 0.0
N33 N 1.00241 0.23661 0.32865 0.0
C34 C 0.01432 0.24572 0.35617 0.0
C35 C 0.01634 0.2633 0.33554 0.0
C36 C 1.00559 0.23374 0.34431 0.0
C37 C 0.00757 0.25101 0.32406 0.0
C38 C 0.05565 0.29056 0.40278 0.0
C39 C 0.06783 0.28497 0.3973 0.0
C40 C 0.05316 0.2895 0.41884 0.0
C41 C 0.07724 0.27828 0.40797 0.0
C42 C 0.06281 0.2827 0.42912 0.0
N43 N 0.07455 0.27727 0.42352 0.0
C44 C 0.06835 0.30949 0.36218 0.0
C45 C 0.05602 0.28664 0.34347 0.0
C46 C 0.08033 0.31152 0.35342 0.0
N47 N 0.05654 0.29724 0.35699 0.0
C48 C 0.06767 0.28821 0.33437 0.0
C49 C 0.08 0.30077 0.33931 0.0
H50 H 0.06847 0.31759 0.37315 0.0
H51 H 0.04667 0.27683 0.33989 0.0
C52 C 0.01864 0.25773 0.40793 0.0
N53 N 0.02936 0.26107 0.3984 0.0
C54 C 0.0183 0.24473 0.41644 0.0
C55 C 0.03992 0.2387 0.40488 0.0
C56 C 0.03981 0.25184 0.39656 0.0
C57 C 0.02903 0.23507 0.41493 0.0
H58 H 0.01024 0.26503 0.40877 0.0
H59 H 0.0479 0.2546 0.38847 0.0
O60 O 0.02579 0.30904 0.3659 0.0
O61 O 0.01102 0.2874 0.3883 0.0
O62 O 0.0282 0.27258 0.3632 0.0
O63 O 0.04621 0.29698 0.39246 0.0
H64 H 0.04344 0.3365 0.37898 0.0
H65 H 0.02589 0.30508 0.33402 0.0
H66 H 0.05801 0.35496 0.36344 0.0
H67 H 0.04084 0.32404 0.31927 0.0
H68 H 1.0005 0.30591 0.43795 0.0
H69 H 0.98549 0.29634 0.37808 0.0
H70 H 0.01659 0.29353 0.42063 0.0
H71 H 0.96996 0.30865 0.39615 0.0
H72 H 0.97396 0.30238 0.3282 0.0
H73 H 0.96451 0.25535 0.34311 0.0
H74 H 0.04364 0.34412 0.43991 0.0
H75 H 1.00468 0.35033 0.40773 0.0
H76 H 0.01673 0.24342 0.36862 0.0
H77 H 0.02026 0.27482 0.33193 0.0
H78 H 1.00131 0.22216 0.34758 0.0
H79 H 1.00481 0.25295 0.31152 0.0
H80 H 0.0699 0.28562 0.3849 0.0
H81 H 0.04373 0.29366 0.42325 0.0
H82 H 0.08666 0.27382 0.40388 0.0
H83 H 0.06095 0.28169 0.44153 0.0
H84 H 0.08972 0.3213 0.35763 0.0
H85 H 0.06721 0.2794 0.32383 0.0
H86 H 0.00979 0.24231 0.42416 0.0
H87 H 0.04821 0.23131 0.40324 0.0
Li88 Li 0.04045 0.76514 0.65679 0.0
Li89 Li 0.05121 0.75185 0.67668 0.0
Li90 Li 0.03893 0.73645 0.6522 0.0
Li91 Li 0.02503 0.74765 0.67308 0.0
C92 C 0.06132 0.7547 0.63987 0.0
N93 N 0.07001 0.757 0.60956 0.0
C94 C 0.07649 0.75682 0.63823 0.0
C95 C 0.05058 0.75368 0.62605 0.0
C96 C 0.08066 0.75797 0.62282 0.0
C97 C 0.05519 0.75489 0.61085 0.0
C98 C 0.04641 0.77703 0.69426 0.0
C99 C 0.05049 0.78251 0.72365 0.0
N100 N 0.06245 0.79417 0.72307 0.0
C101 C 0.05864 0.78916 0.69391 0.0
C102 C 0.04222 0.77373 0.70921 0.0
C103 C 0.06664 0.79765 0.70863 0.0
C104 C 0.02891 0.78789 0.64068 0.0
N105 N 0.04171 0.78353 0.6471 0.0
C106 C 0.05676 0.80522 0.63801 0.0
C107 C 0.05547 0.79195 0.64621 0.0
C108 C 0.04372 0.80979 0.63085 0.0
C109 C 0.02965 0.80111 0.6324 0.0
H110 H 0.01816 0.78099 0.64188 0.0
H111 H 0.06543 0.78817 0.65162 0.0
C112 C 0.06822 0.75098 0.70809 0.0
N113 N 0.06843 0.7549 0.69276 0.0
C114 C 0.08158 0.75297 0.7189 0.0
C115 C 0.09484 0.76412 0.69832 0.0
C116 C 0.08131 0.7617 0.68789 0.0
C117 C 0.09507 0.75947 0.71392 0.0
H118 H 0.05775 0.74624 0.71191 0.0
H119 H 0.08107 0.76522 0.67586 0.0
C120 C 0.00933 0.74181 0.63857 0.0
N121 N 0.98302 0.72834 0.61777 0.0
C122 C 0.99924 0.72942 0.64291 0.0
C123 C 1.00598 0.7474 0.62366 0.0
C124 C 0.98601 0.72275 0.63223 0.0
C125 C 0.99265 0.74042 0.6133 0.0
C126 C 0.04435 0.72232 0.68436 0.0
C127 C 0.05743 0.71745 0.68064 0.0
C128 C 0.03875 0.71833 0.69846 0.0
C129 C 0.06478 0.70876 0.69118 0.0
C130 C 0.04641 0.7096 0.70868 0.0
N131 N 0.05917 0.70504 0.70487 0.0
C132 C 0.05332 0.71592 0.63495 0.0
C133 C 0.02699 0.71022 0.62679 0.0
C134 C 0.05504 0.70359 0.62346 0.0
N135 N 0.03948 0.71905 0.63637 0.0
C136 C 0.02817 0.69777 0.6151 0.0
C137 C 0.04235 0.69436 0.61336 0.0
H138 H 0.06309 0.72306 0.64271 0.0
H139 H 0.01611 0.71275 0.62811 0.0
C140 C 1.00268 0.75924 0.68651 0.0
N141 N 0.0079 0.7456 0.6829 0.0
C142 C 0.99028 0.75894 0.69449 0.0
C143 C 0.98877 0.73049 0.69461 0.0
C144 C 1.00129 0.73137 0.68672 0.0
C145 C 0.98319 0.74442 0.69866 0.0
H146 H 0.00832 0.77037 0.68336 0.0
H147 H 1.0057 0.72073 0.68354 0.0
O148 O 0.05715 0.75353 0.65497 0.0
O149 O 0.03867 0.76831 0.68002 0.0
O150 O 0.02223 0.7487 0.649 0.0
O151 O 0.03699 0.73085 0.67419 0.0
H152 H 0.08499 0.7575 0.64872 0.0
H153 H 0.03883 0.75195 0.62697 0.0
H154 H 0.09236 0.75962 0.6214 0.0
H155 H 0.04698 0.75413 0.60008 0.0
H156 H 0.04746 0.78001 0.73533 0.0
H157 H 0.06202 0.79183 0.68242 0.0
H158 H 0.0328 0.76433 0.70964 0.0
H159 H 0.07622 0.80698 0.70858 0.0
H160 H 0.06779 0.81157 0.63695 0.0
H161 H 0.01936 0.80448 0.62726 0.0
H162 H 0.08139 0.74943 0.73095 0.0
H163 H 0.10506 0.76909 0.69403 0.0
H164 H 1.0018 0.72465 0.65414 0.0
H165 H 0.0136 0.75702 0.62007 0.0
H166 H 0.97818 0.71306 0.63539 0.0
H167 H 0.98994 0.74461 0.60172 0.0
H168 H 0.06203 0.72062 0.66994 0.0
H169 H 0.02873 0.72214 0.70164 0.0
H170 H 0.07499 0.70502 0.68852 0.0
H171 H 0.04225 0.7065 0.71969 0.0
H172 H 0.06615 0.70117 0.62266 0.0
H173 H 0.01812 0.69098 0.60743 0.0
H174 H 0.98647 0.77 0.69765 0.0
H175 H 0.98349 0.71904 0.69743 0.0
Li176 Li 0.50819 0.78251 0.86455 0.0
Li177 Li 0.52172 0.79996 0.88724 0.0
Li178 Li 0.53441 0.78608 0.86839 0.0
Li179 Li 0.52003 0.77198 0.88643 0.0
C180 C 0.51561 0.81478 0.8601 0.0
N181 N 0.50202 0.83987 0.85241 0.0
C182 C 0.50131 0.81553 0.86385 0.0
C183 C 0.52299 0.82679 0.85243 0.0
C184 C 0.49463 0.82831 0.85987 0.0
C185 C 0.51594 0.83938 0.84864 0.0
C186 C 0.49937 0.78421 0.90204 0.0
C187 C 0.50557 0.7876 0.93142 0.0
N188 N 0.49072 0.78503 0.93261 0.0
C189 C 0.48418 0.7816 0.90357 0.0
C190 C 0.51017 0.78724 0.91609 0.0
C191 C 0.48003 0.78207 0.91912 0.0
C192 C 0.47843 0.77039 0.85419 0.0
N193 N 0.49066 0.77867 0.8493 0.0
C194 C 0.47591 0.7841 0.82563 0.0
C195 C 0.48981 0.78509 0.83512 0.0
C196 C 0.46298 0.77653 0.831 0.0
C197 C 0.46435 0.76918 0.84516 0.0
H198 H 0.4796 0.76532 0.86548 0.0
H199 H 0.4998 0.79163 0.83163 0.0
C200 C 0.53565 0.82818 0.90795 0.0
N201 N 0.52227 0.81898 0.90094 0.0
C202 C 0.53607 0.84201 0.91868 0.0
C203 C 0.50894 0.83647 0.91465 0.0
C204 C 0.50906 0.82289 0.90397 0.0
C205 C 0.52255 0.84622 0.92214 0.0
H206 H 0.54595 0.82472 0.90524 0.0
H207 H 0.49857 0.81535 0.89828 0.0
C208 C 0.51398 0.75755 0.84801 0.0
N209 N 0.50066 0.74193 0.81742 0.0
C210 C 0.50414 0.74289 0.84644 0.0
C211 C 0.51711 0.76422 0.83401 0.0
C212 C 0.49749 0.73519 0.83087 0.0
C213 C 0.51026 0.75614 0.81866 0.0
C214 C 0.55105 0.78304 0.89768 0.0
C215 C 0.55265 0.76791 0.89079 0.0
C216 C 0.56244 0.79222 0.9095 0.0
C217 C 0.56564 0.76223 0.89586 0.0
C218 C 0.57527 0.78612 0.91425 0.0
N219 N 0.57659 0.77137 0.90738 0.0
C220 C 0.5599 0.80105 0.85695 0.0
C221 C 0.55428 0.7727 0.85172 0.0
C222 C 0.57234 0.80139 0.84893 0.0
N223 N 0.55124 0.78682 0.85812 0.0
C224 C 0.56652 0.77247 0.84361 0.0
C225 C 0.57573 0.78694 0.84216 0.0
H226 H 0.55711 0.81206 0.86223 0.0
H227 H 0.54711 0.76159 0.85283 0.0
C228 C 0.50432 0.74457 0.89366 0.0
N229 N 0.51735 0.75519 0.89868 0.0
C230 C 0.50059 0.73179 0.90211 0.0
C231 C 0.52366 0.74142 0.92102 0.0
C232 C 0.52684 0.75413 0.91229 0.0
C233 C 0.51041 0.73004 0.91588 0.0
H234 H 0.49669 0.74629 0.88325 0.0
H235 H 0.53675 0.76319 0.91651 0.0
O236 O 0.5225 0.80246 0.86392 0.0
O237 O 0.5035 0.78364 0.88682 0.0
O238 O 0.52036 0.76547 0.86314 0.0
O239 O 0.53857 0.78906 0.89278 0.0
H240 H 0.49539 0.80634 0.86973 0.0
H241 H 0.53408 0.82637 0.84946 0.0
H242 H 0.48357 0.82903 0.86271 0.0
H243 H 0.52153 0.84876 0.84271 0.0
H244 H 0.51381 0.78993 0.94238 0.0
H245 H 0.47567 0.77926 0.89283 0.0
H246 H 0.52198 0.78932 0.91523 0.0
H247 H 0.4683 0.78008 0.92047 0.0
H248 H 0.47518 0.78995 0.81478 0.0
H249 H 0.45458 0.76307 0.84949 0.0
H250 H 0.54679 0.84935 0.92409 0.0
H251 H 0.49829 0.83913 0.9172 0.0
H252 H 0.50166 0.73748 0.8571 0.0
H253 H 0.52456 0.77565 0.83501 0.0
H254 H 0.48982 0.72386 0.82948 0.0
H255 H 0.5125 0.76122 0.80774 0.0
H256 H 0.54391 0.76055 0.88176 0.0
H257 H 0.56139 0.80397 0.91494 0.0
H258 H 0.56701 0.75054 0.89064 0.0
H259 H 0.58417 0.7931 0.92338 0.0
H260 H 0.57927 0.81277 0.84814 0.0
H261 H 0.56862 0.7611 0.83832 0.0
H262 H 0.49008 0.72349 0.89803 0.0
H263 H 0.53154 0.74047 0.93157 0.0
Li264 Li 0.53527 0.26556 0.15781 0.0
Li265 Li 0.54946 0.2523 0.17748 0.0
Li266 Li 0.5343 0.23729 0.15359 0.0
Li267 Li 0.52323 0.24724 0.17537 0.0
C268 C 0.55805 0.25071 0.14144 0.0
N269 N 0.57021 0.24152 0.11412 0.0
C270 C 0.57005 0.24264 0.14285 0.0
C271 C 0.55227 0.25418 0.12617 0.0
C272 C 0.57603 0.23807 0.12887 0.0
C273 C 0.55857 0.24942 0.1125 0.0
C274 C 0.54644 0.27833 0.19435 0.0
C275 C 0.5591 0.28394 0.22222 0.0
N276 N 0.5668 0.29793 0.21892 0.0
C277 C 0.55439 0.29283 0.19129 0.0
C278 C 0.54872 0.2739 0.20999 0.0
C279 C 0.56466 0.30255 0.20385 0.0
C280 C 0.52273 0.28996 0.14575 0.0
N281 N 0.53549 0.28407 0.14859 0.0
C282 C 0.54957 0.30557 0.13826 0.0
C283 C 0.54878 0.29152 0.14515 0.0
C284 C 0.53654 0.31187 0.13498 0.0
C285 C 0.52298 0.30396 0.1388 0.0
H286 H 0.51241 0.28372 0.14885 0.0
H287 H 0.55874 0.28655 0.14781 0.0
C288 C 0.57037 0.2455 0.2023 0.0
N289 N 0.56799 0.25499 0.19064 0.0
C290 C 0.58451 0.24736 0.21151 0.0
C291 C 0.59333 0.2687 0.19642 0.0
C292 C 0.57903 0.26645 0.18757 0.0
C293 C 0.59622 0.25898 0.20847 0.0
H294 H 0.56137 0.23636 0.20428 0.0
H295 H 0.57672 0.27365 0.17804 0.0
C296 C 0.50762 0.24109 0.13814 0.0
N297 N 0.48835 0.22593 0.11032 0.0
C298 C 0.49969 0.22557 0.13772 0.0
C299 C 0.50572 0.24894 0.12441 0.0
C300 C 0.49002 0.2181 0.12354 0.0
C301 C 0.49593 0.24106 0.11046 0.0
C302 C 0.52866 0.22024 0.18338 0.0
C303 C 0.51994 0.20625 0.17432 0.0
C304 C 0.52913 0.22285 0.20031 0.0
C305 C 0.51176 0.19514 0.18236 0.0
C306 C 0.52077 0.21146 0.20789 0.0
N307 N 0.51233 0.19796 0.19883 0.0
C308 C 0.54298 0.20948 0.14337 0.0
C309 C 0.52974 0.21919 0.12145 0.0
C310 C 0.54544 0.19681 0.13283 0.0
N311 N 0.53502 0.22017 0.13761 0.0
C312 C 0.5318 0.20659 0.11046 0.0
C313 C 0.53969 0.19518 0.11617 0.0
H314 H 0.54766 0.21099 0.15617 0.0
H315 H 0.52426 0.22832 0.11696 0.0
C316 C 0.50802 0.25633 0.20011 0.0
N317 N 0.50734 0.2446 0.18752 0.0
C318 C 0.49701 0.25535 0.21007 0.0
C319 C 0.48452 0.23033 0.1937 0.0
C320 C 0.49583 0.23182 0.18403 0.0
C321 C 0.48513 0.24218 0.20695 0.0
H322 H 0.51704 0.26657 0.20235 0.0
H323 H 0.49547 0.22273 0.17387 0.0
O324 O 0.55185 0.25498 0.15492 0.0
O325 O 0.53662 0.26842 0.18209 0.0
O326 O 0.51703 0.24868 0.15196 0.0
O327 O 0.53668 0.23133 0.17573 0.0
H328 H 0.5746 0.23984 0.1546 0.0
H329 H 0.54285 0.26023 0.12485 0.0
H330 H 0.58527 0.23175 0.12975 0.0
H331 H 0.55415 0.25193 0.10058 0.0
H332 H 0.56107 0.28058 0.23432 0.0
H333 H 0.55273 0.29652 0.17933 0.0
H334 H 0.54271 0.2627 0.21258 0.0
H335 H 0.57096 0.31376 0.20161 0.0
H336 H 0.56018 0.31129 0.13532 0.0
H337 H 0.51276 0.30862 0.13655 0.0
H338 H 0.58632 0.2397 0.22076 0.0
H339 H 0.60213 0.27758 0.19348 0.0
H340 H 0.50118 0.21923 0.14809 0.0
H341 H 0.51183 0.2609 0.12445 0.0
H342 H 0.48388 0.20605 0.12302 0.0
H343 H 0.4944 0.24695 0.09973 0.0
H344 H 0.51932 0.20404 0.16121 0.0
H345 H 0.53567 0.23367 0.20751 0.0
H346 H 0.50491 0.18431 0.17548 0.0
H347 H 0.52094 0.2134 0.22096 0.0
H348 H 0.55195 0.18851 0.13765 0.0
H349 H 0.52722 0.20578 0.09767 0.0
H350 H 0.49762 0.26497 0.21989 0.0
H351 H 0.47547 0.22003 0.19092 0.0
Li352 Li 0.04885 0.79836 0.11956 0.0
Li353 Li 0.06361 0.78616 0.14131 0.0
Li354 Li 0.04664 0.76926 0.11879 0.0
Li355 Li 0.03616 0.78296 0.14003 0.0
C356 C 0.07037 0.77772 0.10555 0.0
N357 N 0.0805 0.76 0.08109 0.0
C358 C 0.08074 0.76806 0.10952 0.0
C359 C 0.06523 0.77849 0.08918 0.0
C360 C 0.0857 0.75915 0.09696 0.0
C361 C 0.07047 0.76941 0.07698 0.0
C362 C 0.06042 0.81465 0.15558 0.0
C363 C 0.07103 0.8246 0.18363 0.0
N364 N 0.07951 0.83725 0.17866 0.0
C365 C 0.06916 0.82779 0.15074 0.0
C366 C 0.06128 0.81306 0.17215 0.0
C367 C 0.07877 0.83908 0.1626 0.0
C368 C 0.03606 0.82341 0.10832 0.0
N369 N 0.04842 0.81665 0.10836 0.0
C370 C 0.05989 0.83691 0.09399 0.0
C371 C 0.06021 0.82304 0.10132 0.0
C372 C 0.0473 0.84429 0.09386 0.0
C373 C 0.03523 0.83721 0.10107 0.0
H374 H 0.02685 0.81808 0.11403 0.0
H375 H 0.06998 0.81752 0.10165 0.0
C376 C 0.0853 0.77455 0.16166 0.0
N377 N 0.08295 0.78757 0.1545 0.0
C378 C 0.09946 0.77391 0.16986 0.0
C379 C 0.10872 0.80009 0.16322 0.0
C380 C 0.09435 0.80021 0.15508 0.0
C381 C 0.1115 0.78672 0.17063 0.0
H382 H 0.07626 0.76441 0.16063 0.0
H383 H 0.09244 0.81017 0.14879 0.0
C384 C 0.02089 0.77464 0.10189 0.0
N385 N 1.0019 0.76051 0.07351 0.0
C386 C 0.01008 0.76102 0.10201 0.0
C387 C 0.02202 0.78111 0.08735 0.0
C388 C 1.0006 0.75404 0.08753 0.0
C389 C 0.01232 0.77378 0.07313 0.0
C390 C 0.0431 0.75799 0.15308 0.0
C391 C 0.03326 0.74342 0.14779 0.0
C392 C 0.04675 0.76364 0.16977 0.0
C393 C 0.02711 0.73479 0.15932 0.0
C394 C 0.04038 0.75466 0.18092 0.0
N395 N 0.03076 0.74054 0.17551 0.0
C396 C 0.05245 0.7386 0.11381 0.0
C397 C 0.0384 0.74423 0.08998 0.0
C398 C 0.05235 0.72317 0.10641 0.0
N399 N 0.04533 0.74873 0.10571 0.0
C400 C 0.03787 0.72876 0.08213 0.0
C401 C 0.04487 0.71799 0.0904 0.0
H402 H 0.05822 0.74252 0.12615 0.0
H403 H 0.03334 0.75256 0.08343 0.0
C404 C 0.01812 0.79514 0.16226 0.0
N405 N 0.01944 0.78211 0.15203 0.0
C406 C 1.00552 0.79498 0.17015 0.0
C407 C 0.99593 0.76794 0.15699 0.0
C408 C 0.00863 0.76868 0.14929 0.0
C409 C 0.99411 0.78126 0.16749 0.0
H410 H 0.02671 0.80581 0.16405 0.0
H411 H 0.00974 0.75852 0.14099 0.0
O412 O 0.06495 0.78602 0.11765 0.0
O413 O 0.05111 0.80337 0.14415 0.0
O414 O 0.03016 0.78177 0.11598 0.0
O415 O 0.04911 0.76671 0.14198 0.0
H416 H 0.08474 0.76729 0.12216 0.0
H417 H 0.05715 0.78587 0.08595 0.0
H418 H 0.09364 0.75152 0.09983 0.0
H419 H 0.06653 0.7698 0.06425 0.0
H420 H 0.07185 0.8235 0.1965 0.0
H421 H 0.06863 0.82918 0.13795 0.0
H422 H 0.05448 0.80303 0.17608 0.0
H423 H 0.08567 0.84927 0.15904 0.0
H424 H 0.06956 0.84199 0.08882 0.0
H425 H 0.02517 0.84221 0.10106 0.0
H426 H 0.10095 0.76339 0.17546 0.0
H427 H 0.11766 0.81013 0.1632 0.0
H428 H 0.00913 0.75577 0.11308 0.0
H429 H 0.03032 0.79163 0.08701 0.0
H430 H 0.99223 0.74345 0.08743 0.0
H431 H 0.01309 0.77863 0.06178 0.0
H432 H 0.03019 0.73894 0.1349 0.0
H433 H 0.05442 0.77485 0.17405 0.0
H434 H 0.01939 0.72355 0.1554 0.0
H435 H 0.04307 0.7589 0.19387 0.0
H436 H 0.05785 0.71527 0.11329 0.0
H437 H 0.03222 0.72535 0.06965 0.0
H438 H 1.00457 0.80565 0.1779 0.0
H439 H 0.98764 0.75699 0.15471 0.0
Li440 Li 0.51317 0.77005 0.41921 0.0
Li441 Li 0.49522 0.75441 0.39686 0.0
Li442 Li 0.5104 0.74084 0.41805 0.0
Li443 Li 0.52294 0.75575 0.3973 0.0
C444 C 0.48887 0.75899 0.43421 0.0
N445 N 0.47668 0.76868 0.46138 0.0
C446 C 0.47896 0.76965 0.43329 0.0
C447 C 0.4925 0.75316 0.44893 0.0
C448 C 0.47295 0.77445 0.44718 0.0
C449 C 0.48623 0.75822 0.46253 0.0
C450 C 0.50792 0.77944 0.38211 0.0
C451 C 0.50635 0.77865 0.35293 0.0
N452 N 0.50077 0.79236 0.35391 0.0
C453 C 0.5023 0.79359 0.38285 0.0
C454 C 0.51006 0.77195 0.36706 0.0
C455 C 0.49869 0.7999 0.36844 0.0
C456 C 0.52315 0.80308 0.42519 0.0
N457 N 0.51692 0.79081 0.43258 0.0
C458 C 0.51435 0.80928 0.45537 0.0
C459 C 0.51306 0.79361 0.44771 0.0
C460 C 0.5201 0.82228 0.44765 0.0
C461 C 0.52494 0.81889 0.43253 0.0
H462 H 0.52657 0.80061 0.41338 0.0
H463 H 0.50867 0.7838 0.45376 0.0
C464 C 0.46758 0.74098 0.37416 0.0
N465 N 0.47576 0.7541 0.38414 0.0
C466 C 0.45337 0.74145 0.36576 0.0
C467 C 0.45618 0.76883 0.37812 0.0
C468 C 0.47029 0.76784 0.3862 0.0
C469 C 0.44741 0.75551 0.36774 0.0
H470 H 0.47197 0.73007 0.37287 0.0
H471 H 0.47687 0.77809 0.39428 0.0
C472 C 0.53835 0.76623 0.43435 0.0
N473 N 0.55577 0.7861 0.46087 0.0
C474 C 0.54914 0.77903 0.43195 0.0
C475 C 0.53647 0.76345 0.4502 0.0
C476 C 0.55782 0.78897 0.44553 0.0
C477 C 0.54538 0.77364 0.46346 0.0
C478 C 0.50703 0.72493 0.38098 0.0
C479 C 0.51276 0.71139 0.38438 0.0
C480 C 0.50192 0.72654 0.36482 0.0
C481 C 0.51358 0.69982 0.3715 0.0
C482 C 0.50291 0.7147 0.35228 0.0
N483 N 0.50869 0.70171 0.35584 0.0
C484 C 0.49847 0.71358 0.43295 0.0
C485 C 0.52452 0.71785 0.43205 0.0
C486 C 0.49928 0.69984 0.44042 0.0
N487 N 0.511 0.72228 0.42898 0.0
C488 C 0.52581 0.7041 0.43924 0.0
C489 C 0.5131 0.6948 0.44359 0.0
H490 H 0.48782 0.7173 0.43033 0.0
H491 H 0.5343 0.72488 0.42859 0.0
C492 C 0.54703 0.77098 0.38291 0.0
N493 N 0.53964 0.75644 0.38523 0.0
C494 C 0.55994 0.77229 0.37548 0.0
C495 C 0.55741 0.74362 0.3728 0.0
C496 C 0.54464 0.74289 0.38043 0.0
C497 C 0.5654 0.75848 0.37033 0.0
H498 H 0.54306 0.78165 0.38717 0.0
H499 H 0.53894 0.7315 0.38279 0.0
O500 O 0.49475 0.75403 0.42073 0.0
O501 O 0.51136 0.77302 0.39609 0.0
O502 O 0.52935 0.75675 0.42124 0.0
O503 O 0.50611 0.73635 0.39345 0.0
H504 H 0.47601 0.77426 0.42202 0.0
H505 H 0.50018 0.74496 0.44989 0.0
H506 H 0.46534 0.78276 0.44666 0.0
H507 H 0.48899 0.75386 0.47401 0.0
H508 H 0.50792 0.77295 0.3412 0.0
H509 H 0.50061 0.79956 0.39442 0.0
H510 H 0.51458 0.76111 0.36629 0.0
H511 H 0.49423 0.81079 0.36882 0.0
H512 H 0.51043 0.81111 0.467 0.0
H513 H 0.52998 0.82833 0.42628 0.0
H514 H 0.44698 0.7308 0.35807 0.0
H515 H 0.45225 0.78 0.37992 0.0
H516 H 0.55065 0.78139 0.41974 0.0
H517 H 0.52814 0.75359 0.45223 0.0
H518 H 0.56615 0.799 0.44387 0.0
H519 H 0.54401 0.77169 0.47581 0.0
H520 H 0.51665 0.70989 0.39683 0.0
H521 H 0.49714 0.73676 0.36199 0.0
H522 H 0.5181 0.68934 0.37394 0.0
H523 H 0.49904 0.71582 0.33971 0.0
H524 H 0.48917 0.69334 0.44373 0.0
H525 H 0.53666 0.70067 0.44104 0.0
H526 H 0.56579 0.78406 0.37421 0.0
H527 H 0.56098 0.73259 0.36893 0.0
Li528 Li 0.55276 0.29949 0.62231 0.0
Li529 Li 0.56829 0.28623 0.64315 0.0
Li530 Li 0.55016 0.27049 0.62106 0.0
Li531 Li 0.54012 0.28422 0.64267 0.0
C532 C 0.57301 0.27896 0.60595 0.0
N533 N 0.58137 0.26266 0.57921 0.0
C534 C 0.58604 0.27254 0.60773 0.0
C535 C 0.56434 0.27728 0.59055 0.0
C536 C 0.59004 0.26429 0.59406 0.0
C537 C 0.56872 0.26895 0.57718 0.0
C538 C 0.5581 0.31075 0.66296 0.0
C539 C 0.56103 0.30843 0.69169 0.0
N540 N 0.56112 0.32434 0.69514 0.0
C541 C 0.55817 0.32704 0.66676 0.0
C542 C 0.55949 0.30133 0.67549 0.0
C543 C 0.55973 0.3337 0.68312 0.0
C544 C 0.54446 0.32895 0.61807 0.0
N545 N 0.55219 0.3182 0.6117 0.0
C546 C 0.55855 0.33465 0.59131 0.0
C547 C 0.55918 0.32077 0.59856 0.0
C548 C 0.55074 0.34607 0.59771 0.0
C549 C 0.54362 0.34301 0.61128 0.0
H550 H 0.53894 0.32659 0.62848 0.0
H551 H 0.56534 0.31211 0.59375 0.0
C552 C 0.59314 0.2731 0.65371 0.0
N553 N 0.58756 0.28674 0.65599 0.0
C554 C 0.60712 0.27204 0.66205 0.0
C555 C 0.6095 0.29912 0.67513 0.0
C556 C 0.59545 0.29968 0.66644 0.0
C557 C 0.61557 0.28516 0.67295 0.0
H558 H 0.5867 0.26298 0.64531 0.0
H559 H 0.59092 0.31049 0.66796 0.0
C560 C 0.52176 0.27732 0.60759 0.0
N561 N 0.49681 0.26492 0.58442 0.0
C562 C 0.50952 0.26732 0.61174 0.0
C563 C 0.52116 0.28136 0.59177 0.0
C564 C 0.49705 0.26108 0.59982 0.0
C565 C 0.50848 0.27487 0.5802 0.0
C566 C 0.5484 0.25252 0.64729 0.0
C567 C 0.53444 0.24361 0.63988 0.0
C568 C 0.55797 0.2456 0.65754 0.0
C569 C 0.53035 0.22782 0.64267 0.0
C570 C 0.55346 0.22979 0.66008 0.0
N571 N 0.53987 0.22129 0.65263 0.0
C572 C 0.55874 0.24159 0.61213 0.0
C573 C 0.53619 0.24331 0.59562 0.0
C574 C 0.55804 0.22601 0.60472 0.0
N575 N 0.54785 0.24988 0.60768 0.0
C576 C 0.535 0.22767 0.58788 0.0
C577 C 0.54593 0.2187 0.59256 0.0
H578 H 0.56789 0.24701 0.62177 0.0
H579 H 0.5276 0.24995 0.59217 0.0
C580 C 0.5146 0.29434 0.65235 0.0
N581 N 0.5239 0.28387 0.6551 0.0
C582 C 0.50189 0.29395 0.66004 0.0
C583 C 0.50858 0.27205 0.67334 0.0
C584 C 0.52124 0.27296 0.6655 0.0
C585 C 0.49859 0.28257 0.67059 0.0
H586 H 0.51696 0.30287 0.64398 0.0
H587 H 0.52878 0.26475 0.66752 0.0
O588 O 0.56864 0.28667 0.61926 0.0
O589 O 0.55648 0.30402 0.64703 0.0
O590 O 0.53409 0.28351 0.61906 0.0
O591 O 0.55271 0.26795 0.64457 0.0
H592 H 0.59295 0.27385 0.61952 0.0
H593 H 0.55423 0.28216 0.58898 0.0
H594 H 0.60005 0.25916 0.59527 0.0
H595 H 0.56204 0.26745 0.56522 0.0
H596 H 0.56214 0.30131 0.70153 0.0
H597 H 0.55706 0.33446 0.65717 0.0
H598 H 0.5594 0.28868 0.67274 0.0
H599 H 0.55984 0.3463 0.68626 0.0
H600 H 0.56435 0.33654 0.58099 0.0
H601 H 0.53728 0.3513 0.6165 0.0
H602 H 0.61116 0.26094 0.66009 0.0
H603 H 0.61565 0.3096 0.68326 0.0
H604 H 0.50959 0.26446 0.62405 0.0
H605 H 0.53036 0.28943 0.58847 0.0
H606 H 0.48754 0.25322 0.60283 0.0
H607 H 0.5079 0.27778 0.56787 0.0
H608 H 0.52694 0.24877 0.63189 0.0
H609 H 0.56872 0.2524 0.66358 0.0
H610 H 0.51963 0.22076 0.63691 0.0
H611 H 0.56077 0.22428 0.66798 0.0
H612 H 0.5669 0.21975 0.60856 0.0
H613 H 0.52539 0.22253 0.57868 0.0
H614 H 0.49476 0.30252 0.65771 0.0
H615 H 0.50649 0.26293 0.68116 0.0
Li616 Li 0.01397 0.26961 0.91997 0.0
Li617 Li 0.99737 0.25325 0.89731 0.0
Li618 Li 0.01168 0.24075 0.9189 0.0
Li619 Li 0.02512 0.25588 0.89904 0.0
C620 C 0.98865 0.2559 0.93391 0.0
N621 N 0.97426 0.26088 0.96063 0.0
C622 C 0.9761 0.26315 0.93264 0.0
C623 C 0.99375 0.25096 0.94871 0.0
C624 C 0.96902 0.26563 0.94631 0.0
C625 C 0.98636 0.25364 0.96209 0.0
C626 C 1.0064 0.28477 0.89223 0.0
C627 C 1.00486 0.30616 0.87606 0.0
N628 N 0.99331 0.30985 0.8835 0.0
C629 C 0.99452 0.28875 0.8997 0.0
C630 C 0.01163 0.29351 0.88031 0.0
C631 C 0.98805 0.30148 0.89512 0.0
C632 C 0.02591 0.30241 0.92803 0.0
N633 N 0.01697 0.29034 0.93339 0.0
C634 C 0.01142 0.30888 0.9544 0.0
C635 C 0.01004 0.29328 0.94658 0.0
C636 C 0.02015 0.32163 0.94873 0.0
C637 C 0.02767 0.31817 0.93553 0.0
H638 H 0.0314 0.29984 0.91759 0.0
H639 H 1.00327 0.28366 0.95101 0.0
C640 C 0.96564 0.24539 0.88911 0.0
N641 N 0.97834 0.25157 0.88343 0.0
C642 C 0.95151 0.24586 0.88065 0.0
C643 C 0.9637 0.25857 0.86027 0.0
C644 C 0.97759 0.25789 0.86916 0.0
C645 C 0.95035 0.25273 0.86609 0.0
H646 H 0.96649 0.24051 0.90053 0.0
H647 H 0.98779 0.26281 0.86486 0.0
C648 C 0.04004 0.26782 0.93497 0.0
N649 N 0.0586 0.29032 0.95864 0.0
C650 C 0.052 0.27821 0.93079 0.0
C651 C 0.03759 0.26879 0.95122 0.0
C652 C 0.06124 0.28953 0.94293 0.0
C653 C 0.04708 0.28027 0.963 0.0
C654 C 1.00664 0.22905 0.87833 0.0
C655 C 1.00202 0.21252 0.87422 0.0
C656 C 0.00849 0.23866 0.86601 0.0
C657 C 0.9993 0.20586 0.85778 0.0
C658 C 1.00565 0.23154 0.84972 0.0
N659 N 1.00115 0.21543 0.84597 0.0
C660 C 1.00088 0.20894 0.92408 0.0
C661 C 0.02251 0.22219 0.94248 0.0
C662 C 1.00104 0.19489 0.9311 0.0
N663 N 0.01155 0.2222 0.9298 0.0
C664 C 0.02301 0.20847 0.94997 0.0
C665 C 0.01226 0.19446 0.94423 0.0
H666 H 0.9924 0.2092 0.91384 0.0
H667 H 0.03097 0.23282 0.9467 0.0
C668 C 0.04857 0.27072 0.88342 0.0
N669 N 0.04181 0.25655 0.88728 0.0
C670 C 0.06133 0.27161 0.87575 0.0
C671 C 0.0598 0.24325 0.87596 0.0
C672 C 0.04711 0.24292 0.88367 0.0
C673 C 0.06719 0.25776 0.87198 0.0
H674 H 0.04421 0.28141 0.88657 0.0
H675 H 0.0416 0.23183 0.88702 0.0
O676 O 0.99568 0.2533 0.92065 0.0
O677 O 0.0129 0.27234 0.89649 0.0
O678 O 0.0306 0.257 0.92316 0.0
O679 O 0.00927 0.23575 0.89434 0.0
H680 H 0.97185 0.26686 0.92125 0.0
H681 H 1.00335 0.24521 0.9499 0.0
H682 H 0.95935 0.27131 0.94552 0.0
H683 H 0.99025 0.24997 0.97363 0.0
H684 H 0.00878 0.31304 0.86685 0.0
H685 H 0.99038 0.28211 0.90895 0.0
H686 H 0.02078 0.29052 0.87437 0.0
H687 H 0.97885 0.30471 0.90082 0.0
H688 H 1.00566 0.31095 0.96474 0.0
H689 H 0.03445 0.32759 0.93066 0.0
H690 H 0.94164 0.24136 0.88578 0.0
H691 H 0.96344 0.26372 0.849 0.0
H692 H 0.05404 0.27766 0.91828 0.0
H693 H 0.02834 0.26093 0.95467 0.0
H694 H 0.07048 0.29771 0.93984 0.0
H695 H 0.04524 0.28122 0.9756 0.0
H696 H 1.00054 0.20494 0.88364 0.0
H697 H 0.01207 0.25147 0.86899 0.0
H698 H 0.99571 0.19308 0.8544 0.0
H699 H 0.00701 0.23883 0.84006 0.0
H700 H 0.99266 0.18439 0.92601 0.0
H701 H 0.03175 0.20889 0.96018 0.0
H702 H 0.06651 0.28303 0.87278 0.0
H703 H 0.06398 0.2323 0.87351 0.0
Li704 Li 0.41718 0.04092 0.27458 0.0
Li705 Li 0.39543 0.02358 0.25653 0.0
Li706 Li 0.41567 0.03916 0.24228 0.0
Li707 Li 0.39632 0.05462 0.25783 0.0
C708 C 0.42757 0.0145 0.26319 0.0
N709 N 0.44933 0.99883 0.27601 0.0
C710 C 0.42488 1.00504 0.27547 0.0
C711 C 0.44127 0.01592 0.25735 0.0
C712 C 0.43604 0.99723 0.28181 0.0
C713 C 0.45214 1.00791 0.264 0.0
C714 C 0.38408 0.03387 0.28369 0.0
C715 C 0.35927 0.03261 0.29071 0.0
N716 N 0.3614 0.0206 0.29958 0.0
C717 C 0.38606 0.02156 0.29291 0.0
C718 C 0.37062 0.0395 0.2826 0.0
C719 C 0.37445 0.015 0.30085 0.0
C720 C 0.42307 0.04283 0.31056 0.0
N721 N 0.43003 0.04168 0.29706 0.0
C722 C 0.45256 0.03888 0.31454 0.0
C723 C 0.44466 0.03986 0.29898 0.0
C724 C 0.4455 0.03959 0.32863 0.0
C725 C 0.43048 0.04172 0.32626 0.0
H726 H 0.41156 0.04443 0.3092 0.0
H727 H 0.45026 0.03879 0.28841 0.0
C728 C 0.38935 0.98855 0.25066 0.0
N729 N 0.3827 1.00111 0.25509 0.0
C730 C 0.38223 0.97258 0.25069 0.0
C731 C 0.36112 0.98221 0.25946 0.0
C732 C 0.36861 0.99804 0.25913 0.0
C733 C 0.3679 0.96897 0.25538 0.0
H734 H 0.40039 0.99088 0.2472 0.0
H735 H 0.36316 1.00787 0.26245 0.0
C736 C 0.43267 0.06943 0.26087 0.0
N737 N 0.45929 0.09054 0.262 0.0
C738 C 0.43255 0.08539 0.25901 0.0
C739 C 0.44628 0.06418 0.26324 0.0
C740 C 0.44614 0.09589 0.25963 0.0
C741 C 0.45963 0.07504 0.2638 0.0
C742 C 0.37982 0.02782 0.22923 0.0
C743 C 0.38041 0.01703 0.21557 0.0
C744 C 0.36611 0.02843 0.23462 0.0
C745 C 0.36721 1.00703 0.20747 0.0
C746 C 0.35316 0.01824 0.22618 0.0
N747 N 0.35397 1.00784 0.2129 0.0
C748 C 0.42447 0.02417 0.21166 0.0
C749 C 0.43702 0.05086 0.21901 0.0
C750 C 0.43153 0.0227 0.19754 0.0
N751 N 0.42708 0.03815 0.22219 0.0
C752 C 0.4445 0.0498 0.20514 0.0
C753 C 0.44182 0.03559 0.19388 0.0
H754 H 0.41684 0.01397 0.21418 0.0
H755 H 0.43918 0.062 0.22717 0.0
C756 C 0.39162 0.08804 0.26923 0.0
N757 N 0.38559 0.07453 0.2584 0.0
C758 C 0.38483 0.10178 0.26997 0.0
C759 C 0.36544 0.08794 0.24852 0.0
C760 C 0.37264 0.07449 0.24811 0.0
C761 C 0.37141 0.10213 0.25954 0.0
H762 H 0.40183 0.08827 0.27747 0.0
H763 H 0.36777 0.064 0.23936 0.0
O764 O 0.41691 0.02247 0.25704 0.0
O765 O 0.39526 0.04041 0.27577 0.0
O766 O 0.4195 0.05894 0.26016 0.0
O767 O 0.39266 0.03734 0.23768 0.0
H768 H 0.41432 1.00384 0.28011 0.0
H769 H 0.4435 0.0232 0.24784 0.0
H770 H 0.43415 0.98994 0.29138 0.0
H771 H 0.46282 0.00894 0.25966 0.0
H772 H 0.34877 0.03681 0.28994 0.0
H773 H 0.3964 0.01704 0.29382 0.0
H774 H 0.36896 0.04906 0.27555 0.0
H775 H 0.37579 1.00541 0.30796 0.0
H776 H 0.46402 0.03712 0.31539 0.0
H777 H 0.42443 0.04266 0.33652 0.0
H778 H 0.38803 0.96315 0.24695 0.0
H779 H 0.35021 0.98052 0.2633 0.0
H780 H 0.42208 0.08959 0.25705 0.0
H781 H 0.44651 0.05181 0.26447 0.0
H782 H 0.44624 0.10828 0.2582 0.0
H783 H 0.47026 0.07114 0.26561 0.0
H784 H 0.39094 0.01636 0.21129 0.0
H785 H 0.36551 0.03651 0.24535 0.0
H786 H 0.3675 0.99861 0.19688 0.0
H787 H 0.34248 0.01854 0.23026 0.0
H788 H 0.42906 0.01133 0.18968 0.0
H789 H 0.45215 0.06025 0.20312 0.0
H790 H 0.39008 0.11199 0.27893 0.0
H791 H 0.35534 0.08721 0.23993 0.0
Li792 Li 0.27056 0.16317 0.51703 0.0
Li793 Li 0.28059 0.14321 0.50237 0.0
Li794 Li 0.26897 0.16219 0.48731 0.0
Li795 Li 0.25296 0.14044 0.50077 0.0
C796 C 0.29711 0.18044 0.50875 0.0
N797 N 0.3174 0.20879 0.5187 0.0
C798 C 0.31053 0.18068 0.519 0.0
C799 C 0.29415 0.19456 0.50332 0.0
C800 C 0.3206 0.19515 0.52397 0.0
C801 C 0.30451 0.20879 0.50854 0.0
C802 C 0.27622 0.13641 0.53315 0.0
C803 C 0.27985 0.11851 0.55298 0.0
N804 N 0.29293 0.1284 0.55995 0.0
C805 C 0.28969 0.14638 0.5405 0.0
C806 C 0.27123 0.12236 0.53942 0.0
C807 C 0.29798 0.14214 0.55405 0.0
C808 C 0.26325 0.16905 0.54811 0.0
N809 N 0.27189 0.17618 0.53793 0.0
C810 C 0.28085 0.19902 0.55839 0.0
C811 C 0.28053 0.19098 0.54273 0.0
C812 C 0.27208 0.19184 0.56918 0.0
C813 C 0.26316 0.17666 0.56379 0.0
H814 H 0.25639 0.15734 0.54404 0.0
H815 H 0.28719 0.19662 0.53452 0.0
C816 C 0.30978 0.13924 0.49754 0.0
N817 N 0.29723 0.13201 0.50279 0.0
C818 C 0.32253 0.13229 0.49823 0.0
C819 C 0.30925 0.11045 0.50965 0.0
C820 C 0.2967 0.11777 0.5086 0.0
C821 C 0.3225 0.11773 0.50452 0.0
H822 H 0.30991 0.1505 0.49283 0.0
H823 H 0.28658 0.11214 0.51259 0.0
C824 C 0.24641 0.17493 0.50904 0.0
N825 N 0.2347 0.1976 0.52684 0.0
C826 C 0.23566 0.17022 0.51884 0.0
C827 C 0.25107 0.19114 0.50811 0.0
C828 C 0.22992 0.18187 0.5278 0.0
C829 C 0.24505 0.20243 0.51725 0.0
C830 C 0.26973 0.12534 0.47496 0.0
C831 C 0.28049 0.12772 0.46463 0.0
C832 C 0.26459 0.10999 0.47848 0.0
C833 C 0.28602 0.11464 0.45802 0.0
C834 C 0.27039 0.09722 0.47161 0.0
N835 N 0.2809 0.09979 0.46163 0.0
C836 C 0.28212 0.17496 0.46157 0.0
C837 C 0.25749 0.17948 0.46262 0.0
C838 C 0.28295 0.18274 0.44776 0.0
N839 N 0.2695 0.17342 0.46866 0.0
C840 C 0.25785 0.18741 0.44884 0.0
C841 C 0.2707 0.18909 0.44113 0.0
H842 H 0.29153 0.17005 0.46663 0.0
H843 H 0.2476 0.17814 0.46851 0.0
C844 C 0.23012 0.12309 0.51479 0.0
N845 N 0.23358 0.1272 0.50028 0.0
C846 C 0.21585 0.11467 0.51582 0.0
C847 C 0.20886 0.11474 0.4869 0.0
C848 C 0.22332 0.12316 0.48642 0.0
C849 C 0.2049 0.11044 0.50178 0.0
H850 H 0.23834 0.12676 0.52572 0.0
H851 H 0.22627 0.12672 0.47505 0.0
O852 O 0.28717 0.16636 0.50369 0.0
O853 O 0.268 0.14023 0.51975 0.0
O854 O 0.25251 0.16372 0.5006 0.0
O855 O 0.2646 0.13804 0.48207 0.0
H856 H 0.3132 0.16981 0.52302 0.0
H857 H 0.28395 0.19459 0.49522 0.0
H858 H 0.33098 0.19553 0.53197 0.0
H859 H 0.30231 0.21982 0.50452 0.0
H860 H 0.27615 0.10765 0.55794 0.0
H861 H 0.29366 0.1573 0.53583 0.0
H862 H 0.26087 0.11445 0.53378 0.0
H863 H 0.30842 0.14977 0.55987 0.0
H864 H 0.28775 0.2108 0.56196 0.0
H865 H 0.25636 0.17056 0.5717 0.0
H866 H 0.33227 0.13825 0.49377 0.0
H867 H 0.30863 0.09935 0.51477 0.0
H868 H 0.23195 0.15771 0.5197 0.0
H869 H 0.25928 0.19497 0.50048 0.0
H870 H 0.22169 0.1784 0.53556 0.0
H871 H 0.24861 0.21503 0.51672 0.0
H872 H 0.28464 0.13956 0.46191 0.0
H873 H 0.25634 0.10802 0.48657 0.0
H874 H 0.29442 0.11629 0.45008 0.0
H875 H 0.26658 0.08528 0.47427 0.0
H876 H 0.29302 0.1835 0.44219 0.0
H877 H 0.24821 0.19229 0.4444 0.0
H878 H 0.21332 0.11194 0.52763 0.0
H879 H 0.20088 0.11165 0.47572 0.0
Li880 Li 0.15109 0.05214 0.79203 0.0
Li881 Li 0.13177 0.03456 0.8057 0.0
Li882 Li 0.14962 0.02322 0.79076 0.0
Li883 Li 0.12999 0.03289 0.77615 0.0
C884 C 0.16737 0.03578 0.81761 0.0
N885 N 0.19335 0.0265 0.83042 0.0
C886 C 0.1672 0.02614 0.83004 0.0
C887 C 0.18075 0.04076 0.81174 0.0
C888 C 0.18045 0.02155 0.83634 0.0
C889 C 0.19377 0.03594 0.81837 0.0
C890 C 0.11732 0.0569 0.78373 0.0
C891 C 0.09077 0.05381 0.77479 0.0
N892 N 0.09347 0.06579 0.76557 0.0
C893 C 0.11985 0.06927 0.77429 0.0
C894 C 0.10268 0.04918 0.78409 0.0
C895 C 0.10763 0.07356 0.76515 0.0
C896 C 0.16376 0.07772 0.77762 0.0
N897 N 0.16375 0.07215 0.79223 0.0
C898 C 0.18247 0.09457 0.8052 0.0
C899 C 0.17279 0.08023 0.80594 0.0
C900 C 0.18275 0.10064 0.79023 0.0
C901 C 0.17312 0.09203 0.77635 0.0
H902 H 0.1565 0.07095 0.7669 0.0
H903 H 0.17266 0.07541 0.81737 0.0
C904 C 0.1237 0.02032 0.83243 0.0
N905 N 0.12187 0.03281 0.8242 0.0
C906 C 0.11712 0.01835 0.84642 0.0
C907 C 0.10646 0.04184 0.84291 0.0
C908 C 0.11342 0.04348 0.82907 0.0
C909 C 0.10839 0.0292 0.85185 0.0
H910 H 0.13028 0.01187 0.82809 0.0
H911 H 0.11214 0.05329 0.82226 0.0
C912 C 0.15572 0.0296 0.7597 0.0
N913 N 0.16503 0.0155 0.73237 0.0
C914 C 0.14763 0.01499 0.75134 0.0
C915 C 0.16851 0.03708 0.75415 0.0
C916 C 0.15252 1.00805 0.73755 0.0
C917 C 0.17305 0.02974 0.74032 0.0
C918 C 0.11643 1.00298 0.78457 0.0
C919 C 0.11813 0.98962 0.77425 0.0
C920 C 0.10268 1.00342 0.78996 0.0
C921 C 0.10589 0.97709 0.76909 0.0
C922 C 0.09071 0.99065 0.78453 0.0
N923 N 0.09254 0.97787 0.77427 0.0
C924 C 0.15541 0.99402 0.79835 0.0
C925 C 0.17344 1.00714 0.78397 0.0
C926 C 0.16272 0.9811 0.79883 0.0
N927 N 0.16078 1.00661 0.7909 0.0
C928 C 0.18104 0.9944 0.78404 0.0
C929 C 0.17565 0.9811 0.79147 0.0
H930 H 0.14543 0.99407 0.80396 0.0
H931 H 0.17764 0.01743 0.77841 0.0
C932 C 0.12297 0.04046 0.74509 0.0
N933 N 0.11739 0.03049 0.75531 0.0
C934 C 0.11567 0.03958 0.72918 0.0
C935 C 0.09678 0.01826 0.73448 0.0
C936 C 0.10444 0.01962 0.75039 0.0
C937 C 0.10245 0.02828 0.72362 0.0
H938 H 0.13328 0.04901 0.74929 0.0
H939 H 0.10002 0.01193 0.75865 0.0
O940 O 0.15442 0.03994 0.81085 0.0
O941 O 0.12914 0.05215 0.7923 0.0
O942 O 0.15119 0.03663 0.77324 0.0
O943 O 0.1283 0.01534 0.7898 0.0
H944 H 0.15694 0.02215 0.8347 0.0
H945 H 0.18102 0.04802 0.80195 0.0
H946 H 0.18048 0.01403 0.8459 0.0
H947 H 0.20419 0.03962 0.81387 0.0
H948 H 0.07938 0.04786 0.77487 0.0
H949 H 0.13111 0.07539 0.7739 0.0
H950 H 0.10055 0.03961 0.79136 0.0
H951 H 0.10942 0.08303 0.75769 0.0
H952 H 0.18984 0.10063 0.81617 0.0
H953 H 0.17272 0.09631 0.7646 0.0
H954 H 0.11871 0.00831 0.85281 0.0
H955 H 0.09987 0.05051 0.84673 0.0
H956 H 0.13765 0.00915 0.7554 0.0
H957 H 0.1749 0.04839 0.76052 0.0
H958 H 0.14635 0.99675 0.73095 0.0
H959 H 0.18296 0.03537 0.73591 0.0
H960 H 0.12879 0.98886 0.77032 0.0
H961 H 0.10125 0.01351 0.79822 0.0
H962 H 0.10701 0.96672 0.76102 0.0
H963 H 0.07997 0.99088 0.78849 0.0
H964 H 0.15834 0.97129 0.80501 0.0
H965 H 0.1909 0.99488 0.77811 0.0
H966 H 0.12055 0.04742 0.72119 0.0
H967 H 0.08652 0.00951 0.73075 0.0
Li968 Li 0.23981 0.86766 0.01417 0.0
Li969 Li 0.25678 0.84929 0.01896 0.0
Li970 Li 0.26471 0.87522 0.01057 0.0
Li971 Li 0.24731 0.85404 0.99141 0.0
C972 C 0.26739 0.88105 0.04277 0.0
N973 N 0.28826 0.90238 0.06544 0.0
C974 C 0.27729 0.87546 0.05395 0.0
C975 C 0.26795 0.8975 0.0433 0.0
C976 C 0.2878 0.88643 0.06528 0.0
C977 C 0.27863 0.90809 0.0548 0.0
C978 C 0.23085 0.82805 1.00368 0.0
C979 C 0.2352 0.80202 0.99371 0.0
N980 N 0.22133 0.79535 0.99641 0.0
C981 C 0.21665 0.82095 0.00638 0.0
C982 C 0.24022 0.81852 0.99732 0.0
C983 C 0.21203 0.8044 1.00261 0.0
C984 C 0.20995 0.87033 0.01105 0.0
N985 N 0.22345 0.87522 0.02074 0.0
C986 C 0.21427 0.89497 0.03676 0.0
C987 C 0.22568 0.88683 0.03376 0.0
C988 C 0.20053 0.89099 0.02623 0.0
C989 C 0.19822 0.87818 0.01355 0.0
H990 H 0.20863 0.86099 1.0008 0.0
H991 H 0.23653 0.89033 0.04128 0.0
C992 C 0.27909 0.83572 0.03259 0.0
N993 N 0.26401 0.83456 0.03086 0.0
C994 C 0.28588 0.82521 0.04106 0.0
C995 C 0.26139 0.81248 0.04577 0.0
C996 C 0.25507 0.82334 0.03724 0.0
C997 C 0.277 0.81343 0.0478 0.0
H998 H 0.28585 0.845 0.02754 0.0
H999 H 0.2431 0.82284 0.03572 0.0
C1000 C 0.23657 0.88566 0.9908 0.0
N1001 N 0.21448 0.90278 0.98251 0.0
C1002 C 0.22487 0.87927 0.97799 0.0
C1003 C 0.23715 0.90083 0.99925 0.0
C1004 C 0.21379 0.88811 0.97401 0.0
C1005 C 0.22583 0.90927 0.99493 0.0
C1006 C 0.27857 0.8507 0.99217 0.0
C1007 C 0.28582 0.86232 0.98392 0.0
C1008 C 0.28238 0.83556 0.99105 0.0
C1009 C 0.29657 0.85852 0.9745 0.0
C1010 C 0.29319 0.83223 0.98152 0.0
N1011 N 0.3 0.84368 0.9735 0.0
C1012 C 0.29456 0.88875 0.02117 0.0
C1013 C 0.28123 0.90468 1.00549 0.0
C1014 C 0.30765 0.90013 0.02305 0.0
N1015 N 0.28174 0.8913 0.01262 0.0
C1016 C 0.29415 0.91629 0.00683 0.0
C1017 C 0.30761 0.91405 0.01566 0.0
H1018 H 0.29456 0.87784 0.02651 0.0
H1019 H 0.27088 0.90619 0.99855 0.0
C1020 C 0.22991 0.83297 0.96411 0.0
N1021 N 0.24212 0.84476 0.9694 0.0
C1022 C 0.22772 0.8249 0.94827 0.0
C1023 C 0.24977 0.84245 0.9432 0.0
C1024 C 0.25151 0.85013 0.95911 0.0
C1025 C 0.23802 0.82933 0.93781 0.0
H1026 H 0.22206 0.82953 0.97221 0.0
H1027 H 0.26057 0.86014 0.96338 0.0
O1028 O 0.25716 0.87048 0.03144 0.0
O1029 O 0.23553 0.84423 0.00749 0.0
O1030 O 0.24734 0.87705 0.99508 0.0
O1031 O 0.26821 0.85428 1.00173 0.0
H1032 H 0.27687 0.86279 0.05392 0.0
H1033 H 0.26043 0.90206 0.03471 0.0
H1034 H 0.29558 0.88227 0.07394 0.0
H1035 H 0.27929 0.92084 0.05521 0.0
H1036 H 0.24233 0.79451 0.98874 0.0
H1037 H 0.20927 0.82818 0.01134 0.0
H1038 H 0.25116 0.82385 0.99507 0.0
H1039 H 0.20106 0.79874 1.00462 0.0
H1040 H 0.21649 0.90489 0.04657 0.0
H1041 H 0.18769 0.87472 1.0053 0.0
H1042 H 0.29797 0.82658 0.04271 0.0
H1043 H 0.25419 0.80351 0.05079 0.0
H1044 H 0.22425 0.86755 0.97132 0.0
H1045 H 0.24613 0.90595 0.00917 0.0
H1046 H 0.20462 0.88327 0.96421 0.0
H1047 H 0.22605 0.92096 1.00148 0.0
H1048 H 0.28302 0.87408 0.98453 0.0
H1049 H 0.27713 0.82646 0.99755 0.0
H1050 H 0.30217 0.86738 0.96797 0.0
H1051 H 0.29621 0.82055 0.98054 0.0
H1052 H 0.3177 0.898 0.03015 0.0
H1053 H 0.29368 0.92667 1.00065 0.0
H1054 H 0.21829 0.8151 0.94439 0.0
H1055 H 0.25796 0.84628 0.93551 0.0
Li1056 Li 0.28541 0.39894 0.03694 0.0
Li1057 Li 0.29716 0.379 0.05194 0.0
Li1058 Li 0.31297 0.4 0.03821 0.0
Li1059 Li 0.29538 0.37801 0.02215 0.0
C1060 C 0.29787 0.41374 0.06833 0.0
N1061 N 0.29032 0.43524 0.09159 0.0
C1062 C 0.28983 0.40825 0.08035 0.0
C1063 C 0.30226 0.43016 0.06827 0.0
C1064 C 0.28607 0.41931 0.09197 0.0
C1065 C 0.29828 0.44084 0.0801 0.0
C1066 C 0.26889 0.36386 0.025 0.0
C1067 C 0.25965 0.33614 0.01408 0.0
N1068 N 0.24993 0.34058 1.00249 0.0
C1069 C 0.25878 0.36816 0.01301 0.0
C1070 C 0.26934 0.34773 0.02558 0.0
C1071 C 0.24929 0.35621 1.00172 0.0
C1072 C 0.26465 0.41669 0.02257 0.0
N1073 N 0.26883 0.41029 0.03626 0.0
C1074 C 0.24802 0.41763 0.04795 0.0
C1075 C 0.26066 0.41047 0.04876 0.0
C1076 C 0.24349 0.42448 0.03402 0.0
C1077 C 0.25206 0.42394 0.02122 0.0
H1078 H 0.27092 0.41591 0.01249 0.0
H1079 H 0.26369 0.40466 0.05918 0.0
C1080 C 0.30849 0.37138 0.08301 0.0
N1081 N 0.29648 0.36809 0.07088 0.0
C1082 C 0.30812 0.36397 0.09712 0.0
C1083 C 0.28307 0.34984 0.08598 0.0
C1084 C 0.28388 0.3576 0.07215 0.0
C1085 C 0.29528 0.353 0.09877 0.0
H1086 H 0.31834 0.37985 0.08175 0.0
H1087 H 0.27437 0.35538 0.06249 0.0
C1088 C 0.30338 0.41431 0.01334 0.0
N1089 N 0.31576 0.44182 1.00195 0.0
C1090 C 0.31066 0.41334 0.99965 0.0
C1091 C 0.30234 0.42926 0.02118 0.0
C1092 C 0.31688 0.42739 0.9941 0.0
C1093 C 0.30866 0.44303 0.01524 0.0
C1094 C 0.31784 0.3629 0.03332 0.0
C1095 C 0.32754 0.3626 0.02173 0.0
C1096 C 0.31305 0.349 0.03997 0.0
C1097 C 0.33219 0.34835 0.01689 0.0
C1098 C 0.31798 0.335 0.03483 0.0
N1099 N 0.32735 0.33497 0.02348 0.0
C1100 C 0.33969 0.42455 0.05113 0.0
C1101 C 0.33965 0.40932 0.02564 0.0
C1102 C 0.35414 0.43308 0.05069 0.0
N1103 N 0.33274 0.41289 0.03868 0.0
C1104 C 0.35403 0.41747 0.02472 0.0
C1105 C 0.36158 0.4295 0.03738 0.0
H1106 H 0.3341 0.42713 0.06149 0.0
H1107 H 0.33393 0.40014 0.01582 0.0
C1108 C 0.28826 0.37247 0.98813 0.0
N1109 N 0.2921 0.36483 1.00102 0.0
C1110 C 0.28705 0.36497 0.97214 0.0
C1111 C 0.29283 0.34138 0.98278 0.0
C1112 C 0.29388 0.34935 0.99862 0.0
C1113 C 0.28971 0.34933 0.96926 0.0
H1114 H 0.28631 0.38453 0.99025 0.0
H1115 H 0.29634 0.3432 0.00893 0.0
O1116 O 0.30166 0.4031 0.05686 0.0
O1117 O 0.2786 0.37542 0.03579 0.0
O1118 O 0.29755 0.4007 0.01921 0.0
O1119 O 0.31323 0.37675 0.03832 0.0
H1120 H 0.28636 0.39559 0.0806 0.0
H1121 H 0.30871 0.43462 0.05923 0.0
H1122 H 0.27974 0.41523 0.10127 0.0
H1123 H 0.30155 0.45358 0.08016 0.0
H1124 H 0.25994 0.32361 0.01432 0.0
H1125 H 0.2584 0.3806 0.01232 0.0
H1126 H 0.27725 0.34421 0.03463 0.0
H1127 H 0.24146 0.35936 0.99232 0.0
H1128 H 0.2416 0.41736 0.05796 0.0
H1129 H 0.24909 0.42906 0.01025 0.0
H1130 H 0.31785 0.3667 0.10656 0.0
H1131 H 0.27285 0.34168 0.08679 0.0
H1132 H 0.31171 0.40187 0.99351 0.0
H1133 H 0.29669 0.43021 0.03174 0.0
H1134 H 0.32264 0.42682 0.9836 0.0
H1135 H 0.30794 0.45468 0.02122 0.0
H1136 H 0.33135 0.37317 0.01641 0.0
H1137 H 0.30553 0.34894 0.0489 0.0
H1138 H 0.33963 0.34794 0.00786 0.0
H1139 H 0.3143 0.32416 0.03983 0.0
H1140 H 0.35953 0.44215 0.06083 0.0
H1141 H 0.3591 0.41444 0.01406 0.0
H1142 H 0.28413 0.37143 0.96213 0.0
H1143 H 0.29488 0.32929 0.9812 0.0
Li1144 Li 0.81522 0.18741 0.05011 0.0
Li1145 Li 0.82619 0.17237 0.03054 0.0
Li1146 Li 0.80624 0.18591 0.02198 0.0
Li1147 Li 0.80153 0.16216 0.03487 0.0
C1148 C 0.83657 0.20836 0.04146 0.0
N1149 N 0.85678 0.23396 0.05951 0.0
C1150 C 0.85163 0.20729 0.04545 0.0
C1151 C 0.83182 0.2225 0.04652 0.0
C1152 C 0.86166 0.22036 0.05461 0.0
C1153 C 0.8422 0.23529 0.05568 0.0
C1154 C 0.81608 0.15447 0.06028 0.0
C1155 C 0.81115 0.12669 0.06403 0.0
N1156 N 0.80633 0.13079 0.07839 0.0
C1157 C 0.81113 0.15842 0.0751 0.0
C1158 C 0.81616 0.13849 0.05472 0.0
C1159 C 0.80624 0.14627 0.08407 0.0
C1160 C 0.80677 0.20493 0.07603 0.0
N1161 N 0.81871 0.20003 0.07049 0.0
C1162 C 0.83499 0.21306 0.09472 0.0
C1163 C 0.8326 0.20357 0.07956 0.0
C1164 C 0.82288 0.21855 0.10061 0.0
C1165 C 0.80859 0.21425 0.09113 0.0
H1166 H 0.79576 0.20134 0.06886 0.0
H1167 H 0.84177 0.19903 0.07501 0.0
C1168 C 0.84998 0.17028 0.0126 0.0
N1169 N 0.84388 0.16619 0.02588 0.0
C1170 C 0.86158 0.16319 0.00782 0.0
C1171 C 0.86117 0.14908 0.03138 0.0
C1172 C 0.84951 0.15629 0.03557 0.0
C1173 C 0.86702 0.15217 0.0171 0.0
H1174 H 0.84533 0.1784 1.00529 0.0
H1175 H 0.84455 0.15347 0.04618 0.0
C1176 C 0.78186 0.1881 0.03493 0.0
N1177 N 0.75702 0.20023 0.02362 0.0
C1178 C 0.76879 0.17779 0.02692 0.0
C1179 C 0.78226 0.20458 0.03727 0.0
C1180 C 0.75636 0.18416 0.02129 0.0
C1181 C 0.7696 0.21048 0.03143 0.0
C1182 C 0.81394 0.15739 1.00107 0.0
C1183 C 0.81555 0.1653 0.98746 0.0
C1184 C 0.81865 0.14278 1.0017 0.0
C1185 C 0.82191 0.15847 0.97472 0.0
C1186 C 0.82498 0.13637 0.98873 0.0
N1187 N 0.82646 0.14428 0.97561 0.0
C1188 C 0.80092 0.21243 0.00666 0.0
C1189 C 0.78535 0.18737 0.9958 0.0
C1190 C 0.79202 0.22024 0.99673 0.0
N1191 N 0.79721 0.19636 0.0062 0.0
C1192 C 0.77613 0.19466 0.98572 0.0
C1193 C 0.77929 0.21132 0.98634 0.0
H1194 H 0.8104 0.2192 0.01515 0.0
H1195 H 0.78265 0.17461 0.99598 0.0
C1196 C 0.77791 0.14429 0.04686 0.0
N1197 N 0.78686 0.14404 0.03513 0.0
C1198 C 0.76577 0.13187 0.0462 0.0
C1199 C 0.77265 0.11899 0.02171 0.0
C1200 C 0.78456 0.13172 0.02277 0.0
C1201 C 0.76289 0.11912 0.03334 0.0
H1202 H 0.77988 0.15446 0.05633 0.0
H1203 H 0.79167 0.13202 0.01345 0.0
O1204 O 0.82656 0.19566 0.03258 0.0
O1205 O 0.82052 0.16612 0.05109 0.0
O1206 O 0.79431 0.18214 0.04016 0.0
O1207 O 0.80783 0.16394 0.01372 0.0
H1208 H 0.85552 0.19646 0.04164 0.0
H1209 H 0.8202 0.22349 0.04368 0.0
H1210 H 0.87332 0.21967 0.05786 0.0
H1211 H 0.83866 0.24625 0.05981 0.0
H1212 H 0.81103 0.11427 0.0598 0.0
H1213 H 0.81092 0.17069 0.07958 0.0
H1214 H 0.81981 0.13521 0.04319 0.0
H1215 H 0.80231 0.14914 0.09553 0.0
H1216 H 0.84617 0.21606 0.1017 0.0
H1217 H 0.79885 0.21774 0.09548 0.0
H1218 H 0.86594 0.16588 0.99679 0.0
H1219 H 0.86499 0.14052 0.03875 0.0
H1220 H 0.76832 0.16504 0.02479 0.0
H1221 H 0.79233 0.21276 0.04325 0.0
H1222 H 0.74621 0.17633 0.01497 0.0
H1223 H 0.7698 0.2232 0.03301 0.0
H1224 H 0.81207 0.17665 0.9868 0.0
H1225 H 0.81772 0.13662 0.01225 0.0
H1226 H 0.82328 0.16448 0.96414 0.0
H1227 H 0.8288 0.12516 0.98913 0.0
H1228 H 0.79496 0.23309 0.9973 0.0
H1229 H 0.76635 0.1874 0.97797 0.0
H1230 H 0.75837 0.13261 0.05525 0.0
H1231 H 0.77092 0.10933 0.01169 0.0
Li1232 Li 0.16965 0.51955 0.28327 0.0
Li1233 Li 0.15027 0.50393 0.29715 0.0
Li1234 Li 0.16897 0.48852 0.28201 0.0
Li1235 Li 0.14781 0.50222 0.26427 0.0
C1236 C 0.18431 0.51377 0.31353 0.0
N1237 N 0.20772 0.52949 0.33733 0.0
C1238 C 0.18142 0.52232 0.32768 0.0
C1239 C 0.19911 0.51317 0.31152 0.0
C1240 C 0.19341 0.53022 0.33955 0.0
C1241 C 0.21079 0.52118 0.3237 0.0
C1242 C 0.14556 0.53516 0.28645 0.0
C1243 C 0.13513 0.55822 0.28066 0.0
N1244 N 0.14182 0.56599 0.29564 0.0
C1245 C 0.15221 0.54331 0.30183 0.0
C1246 C 0.13685 0.5426 0.2758 0.0
C1247 C 0.15024 0.55891 0.30624 0.0
C1248 C 0.17631 0.55063 0.27177 0.0
N1249 N 0.18186 0.54219 0.28333 0.0
C1250 C 0.20154 0.56531 0.29366 0.0
C1251 C 0.19434 0.54941 0.2942 0.0
C1252 C 0.19594 0.57435 0.28194 0.0
C1253 C 0.18308 0.56654 0.27088 0.0
H1254 H 0.16642 0.54504 0.26315 0.0
H1255 H 0.19874 0.54303 0.30354 0.0
C1256 C 0.14348 0.49799 0.33065 0.0
N1257 N 0.13873 0.50443 0.31707 0.0
C1258 C 0.1363 0.49898 0.34474 0.0
C1259 C 0.11917 0.51307 0.33101 0.0
C1260 C 0.12668 0.51185 0.31719 0.0
C1261 C 0.12386 0.50668 0.34533 0.0
H1262 H 0.15303 0.49213 0.33071 0.0
H1263 H 0.1229 0.51709 0.30657 0.0
C1264 C 0.18224 0.50955 0.25749 0.0
N1265 N 0.20704 0.52372 0.24526 0.0
C1266 C 0.18069 0.51981 0.24577 0.0
C1267 C 0.19635 0.5063 0.26282 0.0
C1268 C 0.19338 0.52693 0.2398 0.0
C1269 C 0.20877 0.51362 0.25652 0.0
C1270 C 0.13463 0.47408 0.28401 0.0
C1271 C 0.13824 0.46324 0.29448 0.0
C1272 C 0.11965 0.47496 0.27921 0.0
C1273 C 0.12671 0.45336 0.29997 0.0
C1274 C 0.10845 0.46487 0.28497 0.0
N1275 N 0.11218 0.45437 0.29514 0.0
C1276 C 0.19286 0.46864 0.29119 0.0
C1277 C 0.173 0.4547 0.27126 0.0
C1278 C 0.19994 0.4551 0.29076 0.0
N1279 N 0.17956 0.46847 0.28148 0.0
C1280 C 0.17967 0.44086 0.27052 0.0
C1281 C 0.19348 0.44067 0.28031 0.0
H1282 H 0.19813 0.47927 0.29953 0.0
H1283 H 0.16246 0.45432 0.26354 0.0
C1284 C 0.13676 0.51588 0.23545 0.0
N1285 N 0.13523 0.50189 0.24197 0.0
C1286 C 0.12909 0.5169 0.21987 0.0
C1287 C 0.11818 0.48907 0.21743 0.0
C1288 C 0.12604 0.48859 0.23317 0.0
C1289 C 0.11959 0.50338 0.21031 0.0
H1290 H 0.14408 0.52641 0.24233 0.0
H1291 H 0.12489 0.47744 0.23821 0.0
O1292 O 0.17272 0.50585 0.30183 0.0
O1293 O 0.14767 0.52001 0.28181 0.0
O1294 O 0.17005 0.5028 0.26384 0.0
O1295 O 0.14575 0.48408 0.27881 0.0
H1296 H 0.17004 0.52278 0.32953 0.0
H1297 H 0.20158 0.50685 0.30056 0.0
H1298 H 0.19133 0.5369 0.35054 0.0
H1299 H 0.22229 0.52089 0.32225 0.0
H1300 H 0.12847 0.56416 0.27251 0.0
H1301 H 0.15897 0.5377 0.31019 0.0
H1302 H 0.13144 0.53639 0.26394 0.0
H1303 H 0.15541 0.5654 0.31808 0.0
H1304 H 0.21125 0.57057 0.30269 0.0
H1305 H 0.17825 0.57259 0.26139 0.0
H1306 H 0.14049 0.49356 0.35506 0.0
H1307 H 0.10989 0.51936 0.33048 0.0
H1308 H 0.16983 0.52236 0.24144 0.0
H1309 H 0.19769 0.49821 0.2717 0.0
H1310 H 0.19236 0.535 0.23083 0.0
H1311 H 0.21977 0.51127 0.26059 0.0
H1312 H 0.14982 0.46253 0.29837 0.0
H1313 H 0.11673 0.48339 0.27118 0.0
H1314 H 0.12931 0.44491 0.30809 0.0
H1315 H 0.09679 0.4654 0.28137 0.0
H1316 H 0.21035 0.45597 0.29888 0.0
H1317 H 0.174 0.43043 0.26204 0.0
H1318 H 0.13058 0.52837 0.21549 0.0
H1319 H 0.11129 0.47813 0.21083 0.0
Li1320 Li 0.78269 0.89753 0.53631 0.0
Li1321 Li 0.79493 0.878 0.55158 0.0
Li1322 Li 0.81065 0.89959 0.53808 0.0
Li1323 Li 0.79301 0.87731 0.52216 0.0
C1324 C 0.79659 0.9114 0.56983 0.0
N1325 N 0.79257 0.9301 0.59751 0.0
C1326 C 0.78723 0.90494 0.58032 0.0
C1327 C 0.80411 0.92728 0.57355 0.0
C1328 C 0.78528 0.91461 0.59421 0.0
C1329 C 0.80187 0.93657 0.58757 0.0
C1330 C 0.76712 0.86199 0.52489 0.0
C1331 C 0.75976 0.83401 0.51416 0.0
N1332 N 0.74936 0.83757 0.50264 0.0
C1333 C 0.75634 0.86538 0.51299 0.0
C1334 C 0.76886 0.84619 0.52552 0.0
C1335 C 0.74748 0.85286 0.50184 0.0
C1336 C 0.76087 0.91358 0.5211 0.0
N1337 N 0.76595 0.9087 0.53543 0.0
C1338 C 0.74602 0.91755 0.54766 0.0
C1339 C 0.75868 0.91042 0.54854 0.0
C1340 C 0.7406 0.92288 0.53308 0.0
C1341 C 0.7483 0.92083 0.5197 0.0
H1342 H 0.76643 0.91161 0.5106 0.0
H1343 H 0.76242 0.90588 0.55958 0.0
C1344 C 0.80689 0.87034 0.58232 0.0
N1345 N 0.79479 0.86689 0.5703 0.0
C1346 C 0.8068 0.8628 0.59636 0.0
C1347 C 0.78186 0.84825 0.58535 0.0
C1348 C 0.78239 0.85614 0.57159 0.0
C1349 C 0.79416 0.85156 0.59803 0.0
H1350 H 0.81656 0.87904 0.58104 0.0
H1351 H 0.7728 0.85384 0.56203 0.0
C1352 C 0.79744 0.91514 0.51479 0.0
N1353 N 0.80186 0.94583 0.50687 0.0
C1354 C 0.79955 0.91777 0.49895 0.0
C1355 C 0.79762 0.92812 0.52661 0.0
C1356 C 0.80177 0.93337 0.49519 0.0
C1357 C 0.79983 0.94354 0.52236 0.0
C1358 C 0.8183 0.86525 0.53202 0.0
C1359 C 0.82691 0.86829 0.51969 0.0
C1360 C 0.81732 0.85066 0.53814 0.0
C1361 C 0.83428 0.85653 0.51351 0.0
C1362 C 0.82488 0.83922 0.53164 0.0
N1363 N 0.83312 0.84236 0.51955 0.0
C1364 C 0.83931 0.919 0.55327 0.0
C1365 C 0.83485 0.91468 0.52436 0.0
C1366 C 0.85379 0.92759 0.55322 0.0
N1367 N 0.83017 0.91274 0.53895 0.0
C1368 C 0.84914 0.92322 0.52373 0.0
C1369 C 0.85891 0.9298 0.53827 0.0
H1370 H 0.83543 0.91714 0.56474 0.0
H1371 H 0.82756 0.90927 0.51313 0.0
C1372 C 0.78493 0.87075 0.48828 0.0
N1373 N 0.7901 0.86391 0.50127 0.0
C1374 C 0.78342 0.86289 0.47238 0.0
C1375 C 0.79216 0.84074 0.48342 0.0
C1376 C 0.79333 0.84898 0.49914 0.0
C1377 C 0.78732 0.84779 0.46977 0.0
H1378 H 0.7821 0.88246 0.49025 0.0
H1379 H 0.7969 0.84345 0.50958 0.0
O1380 O 0.7988 0.90208 0.55627 0.0
O1381 O 0.77621 0.87413 0.53557 0.0
O1382 O 0.79551 0.89993 0.51869 0.0
O1383 O 0.81103 0.87658 0.53828 0.0
H1384 H 0.78137 0.89265 0.57765 0.0
H1385 H 0.81162 0.93239 0.56572 0.0
H1386 H 0.77796 0.90981 0.60237 0.0
H1387 H 0.80756 0.9489 0.59057 0.0
H1388 H 0.76104 0.82174 0.51442 0.0
H1389 H 0.75495 0.87757 0.51228 0.0
H1390 H 0.77733 0.8434 0.53448 0.0
H1391 H 0.73914 0.85531 0.49251 0.0
H1392 H 0.7403 0.91846 0.5582 0.0
H1393 H 0.74468 0.92477 0.50821 0.0
H1394 H 0.81659 0.86564 0.60572 0.0
H1395 H 0.77177 0.83991 0.58619 0.0
H1396 H 0.79961 0.90787 0.48969 0.0
H1397 H 0.79592 0.92631 0.53887 0.0
H1398 H 0.80345 0.93558 0.48298 0.0
H1399 H 0.79994 0.95368 0.53138 0.0
H1400 H 0.82775 0.87952 0.51485 0.0
H1401 H 0.81072 0.84819 0.54773 0.0
H1402 H 0.84092 0.85865 0.50389 0.0
H1403 H 0.82418 0.82784 0.53618 0.0
H1404 H 0.86088 0.93251 0.56474 0.0
H1405 H 0.85262 0.92431 0.51193 0.0
H1406 H 0.77965 0.86877 0.46222 0.0
H1407 H 0.79499 0.82897 0.48195 0.0
Li1408 Li 0.93385 0.00945 0.26668 0.0
Li1409 Li 0.91338 0.9916 0.24992 0.0
Li1410 Li 0.9338 1.00794 0.23772 0.0
Li1411 Li 0.91562 0.02063 0.25156 0.0
C1412 C 0.94451 0.98217 0.25826 0.0
N1413 N 0.96432 0.96553 0.27331 0.0
C1414 C 0.94064 0.97379 0.27098 0.0
C1415 C 0.95835 0.98195 0.25304 0.0
C1416 C 0.95085 0.96549 0.27848 0.0
C1417 C 0.96824 0.9735 0.26084 0.0
C1418 C 0.89778 1.00582 0.27132 0.0
C1419 C 0.87145 1.00188 0.26058 0.0
N1420 N 0.86819 1.0028 0.27606 0.0
C1421 C 0.89415 1.00667 0.28712 0.0
C1422 C 0.88632 1.00334 0.25793 0.0
C1423 C 0.87914 1.00512 0.28927 0.0
C1424 C 0.93913 0.01802 0.30034 0.0
N1425 N 0.94587 0.01226 0.28798 0.0
C1426 C 0.96709 0.01012 0.30708 0.0
C1427 C 0.95977 0.00867 0.29102 0.0
C1428 C 0.96008 0.01541 0.32012 0.0
C1429 C 0.94601 0.01964 0.31654 0.0
H1430 H 0.92831 0.0213 0.29762 0.0
H1431 H 0.96517 1.00452 0.28107 0.0
C1432 C 0.89388 0.96261 0.23393 0.0
N1433 N 0.90019 0.97159 0.24847 0.0
C1434 C 0.88433 0.94791 0.23356 0.0
C1435 C 0.88793 0.95214 0.26308 0.0
C1436 C 0.89742 0.96664 0.26288 0.0
C1437 C 0.8813 0.94247 0.2483 0.0
H1438 H 0.89635 0.9668 0.22266 0.0
H1439 H 0.9026 0.97401 0.27427 0.0
C1440 C 0.95127 0.03505 0.26259 0.0
N1441 N 0.97861 0.04939 0.28098 0.0
C1442 C 0.95223 0.04817 0.27452 0.0
C1443 C 0.96423 0.02923 0.26002 0.0
C1444 C 0.96614 0.05524 0.28371 0.0
C1445 C 0.97795 0.03667 0.2694 0.0
C1446 C 0.90811 0.00998 0.21699 0.0
C1447 C 0.91548 0.02505 0.21465 0.0
C1448 C 0.89763 1.00063 0.20437 0.0
C1449 C 0.9122 0.03051 0.19968 0.0
C1450 C 0.89465 1.00652 0.18959 0.0
N1451 N 0.90195 0.02121 0.18756 0.0
C1452 C 0.94095 0.99593 0.20726 0.0
C1453 C 0.95315 0.0225 0.2176 0.0
C1454 C 0.94697 0.99689 0.19275 0.0
N1455 N 0.94409 0.00865 0.21927 0.0
C1456 C 0.95959 0.02389 0.20345 0.0
C1457 C 0.95639 0.01107 0.19063 0.0
H1458 H 0.93337 0.98522 0.20874 0.0
H1459 H 0.95508 0.03264 0.22707 0.0
C1460 C 0.9081 0.04891 0.26502 0.0
N1461 N 0.90448 0.03741 0.25179 0.0
C1462 C 0.9007 0.06181 0.266 0.0
C1463 C 0.88561 0.0505 0.23996 0.0
C1464 C 0.89322 0.03776 0.23956 0.0
C1465 C 0.8894 0.06282 0.25325 0.0
H1466 H 0.91664 0.04795 0.27489 0.0
H1467 H 0.89004 0.02818 0.22949 0.0
O1468 O 0.93473 0.99038 0.25078 0.0
O1469 O 0.91249 1.00727 0.26913 0.0
O1470 O 0.93771 0.02769 0.2537 0.0
O1471 O 0.91132 1.00426 0.23143 0.0
H1472 H 0.92998 0.97388 0.27516 0.0
H1473 H 0.96142 0.98831 0.24312 0.0
H1474 H 0.94808 0.95905 0.28843 0.0
H1475 H 0.97903 0.97329 0.25701 0.0
H1476 H 0.8625 0.99999 0.25032 0.0
H1477 H 0.90282 0.00842 0.29765 0.0
H1478 H 0.88878 1.00249 0.24559 0.0
H1479 H 0.87618 1.00576 0.30143 0.0
H1480 H 0.97795 1.00674 0.30925 0.0
H1481 H 0.94035 0.02419 0.32616 0.0
H1482 H 0.87959 0.94079 0.22188 0.0
H1483 H 0.88573 0.94864 0.27473 0.0
H1484 H 0.94237 0.05286 0.27672 0.0
H1485 H 0.96368 0.01891 0.25107 0.0
H1486 H 0.96703 0.06536 0.29301 0.0
H1487 H 0.98804 0.03224 0.26758 0.0
H1488 H 0.9236 0.03246 0.22431 0.0
H1489 H 0.89185 0.98894 0.206 0.0
H1490 H 0.91782 0.04213 0.1977 0.0
H1491 H 0.88656 0.99941 0.17971 0.0
H1492 H 0.9439 0.98678 0.18315 0.0
H1493 H 0.96691 0.03499 0.20256 0.0
H1494 H 0.90371 0.07078 0.27672 0.0
H1495 H 0.877 0.05075 0.22983 0.0
Li1496 Li 0.31891 0.68262 0.55792 0.0
Li1497 Li 0.32785 0.66312 0.54118 0.0
Li1498 Li 0.31649 0.68315 0.53046 0.0
Li1499 Li 0.30122 0.66171 0.54077 0.0
C1500 C 0.34377 0.69773 0.53821 0.0
N1501 N 0.35959 0.72054 0.52288 0.0
C1502 C 0.35551 0.69419 0.53021 0.0
C1503 C 0.3403 0.713 0.53871 0.0
C1504 C 0.36331 0.70584 0.52245 0.0
C1505 C 0.34836 0.72433 0.5308 0.0
C1506 C 0.32468 0.65629 0.57275 0.0
C1507 C 0.32846 0.641 0.59498 0.0
N1508 N 0.3422 0.65039 0.60015 0.0
C1509 C 0.33884 0.66581 0.57831 0.0
C1510 C 0.31943 0.64381 0.58117 0.0
C1511 C 0.34752 0.66263 0.59217 0.0
C1512 C 0.31252 0.6897 0.58873 0.0
N1513 N 0.32177 0.69496 0.57825 0.0
C1514 C 0.33135 0.7194 0.59586 0.0
C1515 C 0.33146 0.7092 0.58168 0.0
C1516 C 0.32115 0.71471 0.60634 0.0
C1517 C 0.31199 0.6995 0.60296 0.0
H1518 H 0.30502 0.67824 0.58556 0.0
H1519 H 0.33876 0.71291 0.5731 0.0
C1520 C 0.34574 0.65051 0.52201 0.0
N1521 N 0.34171 0.65014 0.53708 0.0
C1522 C 0.35422 0.63984 0.51616 0.0
C1523 C 0.35462 0.62889 0.54169 0.0
C1524 C 0.34595 0.63964 0.54695 0.0
C1525 C 0.35863 0.62875 0.526 0.0
H1526 H 0.34179 0.65869 0.51427 0.0
H1527 H 0.34223 0.63913 0.55863 0.0
C1528 C 0.2934 0.69317 0.55377 0.0
N1529 N 0.2796 0.71041 0.57526 0.0
C1530 C 0.2815 0.68544 0.5606 0.0
C1531 C 0.29814 0.70972 0.55771 0.0
C1532 C 0.2747 0.69436 0.57146 0.0
C1533 C 0.29107 0.7182 0.56865 0.0
C1534 C 0.30926 0.64492 0.51426 0.0
C1535 C 0.30711 0.64206 0.4972 0.0
C1536 C 0.30834 0.63204 0.5232 0.0
C1537 C 0.30408 0.62632 0.48935 0.0
C1538 C 0.30528 0.61649 0.5149 0.0
N1539 N 0.30324 0.61397 0.49829 0.0
C1540 C 0.32121 0.68932 0.49974 0.0
C1541 C 0.30624 0.70541 0.51262 0.0
C1542 C 0.31713 0.69441 0.48484 0.0
N1543 N 0.31533 0.69452 0.513 0.0
C1544 C 0.30191 0.71086 0.49802 0.0
C1545 C 0.30688 0.70479 0.48381 0.0
H1546 H 0.32817 0.68038 0.50051 0.0
H1547 H 0.30148 0.70893 0.52331 0.0
C1548 C 0.27796 0.63938 0.54882 0.0
N1549 N 0.28266 0.64784 0.53703 0.0
C1550 C 0.26429 0.62872 0.5456 0.0
C1551 C 0.26077 0.63561 0.51816 0.0
C1552 C 0.27441 0.64628 0.52198 0.0
C1553 C 0.2556 0.62671 0.53006 0.0
H1554 H 0.28485 0.64094 0.56066 0.0
H1555 H 0.27852 0.65324 0.51291 0.0
O1556 O 0.33588 0.68641 0.54573 0.0
O1557 O 0.31578 0.65926 0.55938 0.0
O1558 O 0.30038 0.68457 0.54333 0.0
O1559 O 0.31228 0.66031 0.52206 0.0
H1560 H 0.35865 0.68262 0.53007 0.0
H1561 H 0.33129 0.71599 0.54487 0.0
H1562 H 0.37236 0.70321 0.51613 0.0
H1563 H 0.34565 0.73612 0.53093 0.0
H1564 H 0.32455 0.63137 0.60159 0.0
H1565 H 0.34315 0.67552 0.57201 0.0
H1566 H 0.30849 0.63636 0.57706 0.0
H1567 H 0.3585 0.66988 0.59659 0.0
H1568 H 0.33857 0.73109 0.5982 0.0
H1569 H 0.30417 0.69545 0.61097 0.0
H1570 H 0.35681 0.63991 0.50386 0.0
H1571 H 0.35793 0.6206 0.5497 0.0
H1572 H 0.27763 0.67268 0.55768 0.0
H1573 H 0.30733 0.71593 0.5526 0.0
H1574 H 0.26555 0.6885 0.57691 0.0
H1575 H 0.29474 0.73098 0.57194 0.0
H1576 H 0.30778 0.65191 0.49011 0.0
H1577 H 0.30998 0.63401 0.53641 0.0
H1578 H 0.30239 0.62393 0.47615 0.0
H1579 H 0.30455 0.60641 0.52166 0.0
H1580 H 0.32121 0.68957 0.47409 0.0
H1581 H 0.29379 0.71866 0.4976 0.0
H1582 H 0.26064 0.62195 0.55503 0.0
H1583 H 0.25427 0.63447 0.50611 0.0
Li1584 Li 0.4127 0.49444 0.74792 0.0
Li1585 Li 0.43354 0.51115 0.76465 0.0
Li1586 Li 0.41457 0.52332 0.75008 0.0
Li1587 Li 0.43255 0.50927 0.73511 0.0
C1588 C 0.4061 0.50275 0.77904 0.0
N1589 N 0.39325 0.48806 0.80294 0.0
C1590 C 0.41218 0.49067 0.78578 0.0
C1591 C 0.39353 0.50743 0.78449 0.0
C1592 C 0.40551 0.48337 0.79784 0.0
C1593 C 0.38718 0.49984 0.79657 0.0
C1594 C 0.44504 0.48431 0.75301 0.0
C1595 C 0.47045 0.48051 0.75258 0.0
N1596 N 0.46801 0.46845 0.76174 0.0
C1597 C 0.44273 0.47174 0.76224 0.0
C1598 C 0.45896 0.48865 0.74799 0.0
C1599 C 0.45451 0.46393 0.76661 0.0
C1600 C 0.40317 0.46099 0.74038 0.0
N1601 N 0.39883 0.4747 0.74596 0.0
C1602 C 0.37547 0.46 0.7505 0.0
C1603 C 0.38517 0.47449 0.75069 0.0
C1604 C 0.37976 0.44555 0.74517 0.0
C1605 C 0.39376 0.44622 0.73983 0.0
H1606 H 0.41402 0.46152 0.7365 0.0
H1607 H 0.38189 0.48558 0.75485 0.0
C1608 C 0.44044 0.52246 0.79798 0.0
N1609 N 0.44587 0.51432 0.78585 0.0
C1610 C 0.44756 0.52445 0.81413 0.0
C1611 C 0.46617 0.5102 0.80507 0.0
C1612 C 0.45873 0.50858 0.78906 0.0
C1613 C 0.46047 0.51803 0.81789 0.0
H1614 H 0.43038 0.52722 0.79515 0.0
H1615 H 0.46324 0.50265 0.77933 0.0
C1616 C 0.3979 0.49817 0.72044 0.0
N1617 N 0.37287 0.47801 0.7026 0.0
C1618 C 0.39951 0.48575 0.70883 0.0
C1619 C 0.3836 0.50041 0.72295 0.0
C1620 C 0.3867 0.47567 0.69995 0.0
C1621 C 0.37107 0.49007 0.7138 0.0
C1622 C 0.44917 0.53836 0.76096 0.0
C1623 C 0.44752 0.55006 0.77333 0.0
C1624 C 0.46348 0.5358 0.75886 0.0
C1625 C 0.46025 0.55888 0.78358 0.0
C1626 C 0.47593 0.54488 0.76935 0.0
N1627 N 0.47408 0.55611 0.7814 0.0
C1628 C 0.40287 0.54837 0.76492 0.0
C1629 C 0.39854 0.54452 0.73593 0.0
C1630 C 0.39543 0.56125 0.76535 0.0
N1631 N 0.40427 0.54038 0.75035 0.0
C1632 C 0.39097 0.55728 0.73578 0.0
C1633 C 0.38937 0.56584 0.75064 0.0
H1634 H 0.40756 0.54473 0.77618 0.0
H1635 H 0.39992 0.53793 0.72456 0.0
C1636 C 0.44511 0.49646 0.70822 0.0
N1637 N 0.44262 0.51001 0.71666 0.0
C1638 C 0.45187 0.49723 0.69417 0.0
C1639 C 0.45317 0.52583 0.69771 0.0
C1640 C 0.44651 0.52452 0.71175 0.0
C1641 C 0.45588 0.51205 0.68868 0.0
H1642 H 0.44169 0.48505 0.71231 0.0
H1643 H 0.44427 0.53507 0.71866 0.0
O1644 O 0.41233 0.50996 0.76711 0.0
O1645 O 0.4336 0.49198 0.74847 0.0
O1646 O 0.41029 0.50781 0.72963 0.0
O1647 O 0.43683 0.52921 0.75119 0.0
H1648 H 0.42194 0.48701 0.78174 0.0
H1649 H 0.3887 0.51677 0.77936 0.0
H1650 H 0.41009 0.47399 0.80315 0.0
H1651 H 0.37742 0.5033 0.80087 0.0
H1652 H 0.48131 0.48382 0.74889 0.0
H1653 H 0.43194 0.468 0.76594 0.0
H1654 H 0.46094 0.49828 0.74077 0.0
H1655 H 0.4529 0.45423 0.77382 0.0
H1656 H 0.36489 0.46014 0.75488 0.0
H1657 H 0.39744 0.43546 0.73529 0.0
H1658 H 0.44274 0.53055 0.82362 0.0
H1659 H 0.47628 0.50537 0.8074 0.0
H1660 H 0.41053 0.48382 0.70686 0.0
H1661 H 0.38219 0.50988 0.73202 0.0
H1662 H 0.38776 0.46594 0.69098 0.0
H1663 H 0.35992 0.49159 0.71567 0.0
H1664 H 0.4365 0.55215 0.77513 0.0
H1665 H 0.46493 0.52685 0.74928 0.0
H1666 H 0.45914 0.56787 0.7933 0.0
H1667 H 0.48707 0.54296 0.76793 0.0
H1668 H 0.39428 0.56742 0.77706 0.0
H1669 H 0.38662 0.56055 0.72418 0.0
H1670 H 0.4536 0.4863 0.68747 0.0
H1671 H 0.45622 0.5375 0.694 0.0
Li1672 Li 0.65018 1.00291 0.79571 0.0
Li1673 Li 0.66979 0.01845 0.78268 0.0
Li1674 Li 0.64735 1.00098 0.76348 0.0
Li1675 Li 0.66864 0.98745 0.78108 0.0
C1676 C 0.64002 0.02986 0.78637 0.0
N1677 N 0.62323 0.051 0.79834 0.0
C1678 C 0.64635 0.04162 0.79961 0.0
C1679 C 0.62519 0.02885 0.77916 0.0
C1680 C 0.63767 0.0522 0.8055 0.0
C1681 C 0.61687 0.03965 0.78541 0.0
C1682 C 0.68475 0.01285 0.81145 0.0
C1683 C 0.71119 0.01752 0.82167 0.0
N1684 N 0.70954 0.02989 0.83258 0.0
C1685 C 0.68327 0.02553 0.82282 0.0
C1686 C 0.69878 0.00872 0.81089 0.0
C1687 C 0.69596 0.03403 0.83338 0.0
C1688 C 0.64597 1.00208 0.83078 0.0
N1689 N 0.63881 1.00387 0.81584 0.0
C1690 C 0.61716 1.00806 0.82868 0.0
C1691 C 0.6245 1.00669 0.81474 0.0
C1692 C 0.62428 1.0064 0.84438 0.0
C1693 C 0.639 1.00323 0.845 0.0
H1694 H 0.65726 0.99977 0.8318 0.0
H1695 H 0.61866 1.00803 0.803 0.0
C1696 C 0.67481 0.05108 0.77525 0.0
N1697 N 0.68218 0.04089 0.78309 0.0
C1698 C 0.6818 0.06696 0.77463 0.0
C1699 C 0.70423 0.062 0.78983 0.0
C1700 C 0.69677 0.04616 0.79024 0.0
C1701 C 0.69679 0.07288 0.78203 0.0
H1702 H 0.66336 0.04687 0.76933 0.0
H1703 H 0.70276 0.03813 0.79625 0.0
C1704 C 0.63239 0.9757 0.78292 0.0
N1705 N 0.6066 0.9625 0.79403 0.0
C1706 C 0.63327 0.96702 0.7961 0.0
C1707 C 0.61843 0.97778 0.77545 0.0
C1708 C 0.62009 0.96041 0.80152 0.0
C1709 C 0.60551 0.97097 0.78123 0.0
C1710 C 0.68077 0.01063 0.75635 0.0
C1711 C 0.67702 0.0189 0.74338 0.0
C1712 C 0.69579 0.01209 0.76313 0.0
C1713 C 0.6884 0.02846 0.73735 0.0
C1714 C 0.70685 0.02174 0.75675 0.0
N1715 N 0.70296 0.02967 0.7441 0.0
C1716 C 0.63351 0.01553 0.73656 0.0
C1717 C 0.62789 0.98745 0.73095 0.0
C1718 C 0.62581 0.01683 0.72106 0.0
N1719 N 0.63459 1.00101 0.74135 0.0
C1720 C 0.62 0.98821 0.71532 0.0
C1721 C 0.61888 1.00307 0.70991 0.0
H1722 H 0.63886 0.02629 0.74475 0.0
H1723 H 0.62881 0.97592 0.73463 0.0
C1724 C 0.67368 0.9542 0.78676 0.0
N1725 N 0.67957 0.96763 0.78059 0.0
C1726 C 0.6806 0.94056 0.78648 0.0
C1727 C 0.69978 0.95424 0.77351 0.0
C1728 C 0.69249 0.96763 0.774 0.0
C1729 C 0.69398 0.94016 0.77978 0.0
H1730 H 0.66349 0.95393 0.79198 0.0
H1731 H 0.69725 0.97801 0.7689 0.0
O1732 O 0.64829 0.01932 0.78051 0.0
O1733 O 0.67251 1.00447 0.80093 0.0
O1734 O 0.64516 0.9828 0.77782 0.0
O1735 O 0.66977 1.00177 0.76288 0.0
H1736 H 0.65785 0.04259 0.80524 0.0
H1737 H 0.62014 0.01974 0.76893 0.0
H1738 H 0.64241 0.06137 0.81575 0.0
H1739 H 0.60536 0.03899 0.78 0.0
H1740 H 0.72214 0.01451 0.82134 0.0
H1741 H 0.67245 0.02875 0.82349 0.0
H1742 H 0.70006 0.99886 0.80221 0.0
H1743 H 0.695 0.04391 0.84221 0.0
H1744 H 0.60599 0.01069 0.82703 0.0
H1745 H 0.64522 1.00144 0.85636 0.0
H1746 H 0.67547 0.07446 0.76812 0.0
H1747 H 0.71571 0.06572 0.79585 0.0
H1748 H 0.64401 0.96564 0.80225 0.0
H1749 H 0.6176 0.98469 0.7654 0.0
H1750 H 0.62059 0.9537 0.81174 0.0
H1751 H 0.59462 0.97249 0.77559 0.0
H1752 H 0.66544 0.01802 0.73809 0.0
H1753 H 0.69885 1.0061 0.77344 0.0
H1754 H 0.68566 0.03496 0.72734 0.0
H1755 H 0.71852 0.02304 0.76193 0.0
H1756 H 0.62524 0.02863 0.71796 0.0
H1757 H 0.61513 0.97714 0.7074 0.0
H1758 H 0.67546 0.93045 0.79177 0.0
H1759 H 0.70982 0.95494 0.76792 0.0
Li1760 Li 0.77192 0.66425 0.01716 0.0
Li1761 Li 0.78257 0.64364 1.00309 0.0
Li1762 Li 0.77052 0.66336 0.98748 0.0
Li1763 Li 0.75464 0.64171 1.00036 0.0
C1764 C 0.79867 0.68086 0.01134 0.0
N1765 N 0.81869 0.70833 0.02566 0.0
C1766 C 0.80917 0.6805 0.025 0.0
C1767 C 0.79839 0.69519 1.00493 0.0
C1768 C 0.81918 0.69452 0.03207 0.0
C1769 C 0.8086 0.70895 0.01235 0.0
C1770 C 0.77388 0.63302 0.03162 0.0
C1771 C 0.77264 0.60832 0.04303 0.0
N1772 N 0.78325 0.61584 0.05579 0.0
C1773 C 0.78466 0.64054 0.04492 0.0
C1774 C 0.76772 0.61681 0.03071 0.0
C1775 C 0.7893 0.63164 0.05698 0.0
C1776 C 0.76486 0.66978 0.04845 0.0
N1777 N 0.77289 0.67728 0.03799 0.0
C1778 C 0.78072 0.70066 0.05795 0.0
C1779 C 0.78047 0.69261 0.04232 0.0
C1780 C 0.77283 0.69299 0.06912 0.0
C1781 C 0.76472 0.67738 0.06411 0.0
H1782 H 0.75856 0.65777 0.04463 0.0
H1783 H 0.78622 0.69872 0.0337 0.0
C1784 C 0.8012 0.62267 0.99046 0.0
N1785 N 0.7991 0.63213 1.00388 0.0
C1786 C 0.81356 0.61501 0.99097 0.0
C1787 C 0.82159 0.62721 0.01896 0.0
C1788 C 0.80909 0.63455 0.01792 0.0
C1789 C 0.82401 0.61724 1.00539 0.0
H1790 H 0.79343 0.62119 0.97923 0.0
H1791 H 0.80759 0.64244 0.0283 0.0
C1792 C 0.74894 0.67711 0.00844 0.0
N1793 N 0.73958 0.70191 0.02579 0.0
C1794 C 0.73812 0.67387 0.01854 0.0
C1795 C 0.75493 0.69292 0.00702 0.0
C1796 C 0.73356 0.68659 0.02726 0.0
C1797 C 0.75006 0.7053 0.01592 0.0
C1798 C 0.7631 0.62478 0.97312 0.0
C1799 C 0.75958 0.62383 0.95618 0.0
C1800 C 0.76221 0.61081 0.98035 0.0
C1801 C 0.75527 0.60882 0.9467 0.0
C1802 C 0.75784 0.59603 0.97046 0.0
N1803 N 0.7545 0.59535 0.95397 0.0
C1804 C 0.78421 0.6771 0.9625 0.0
C1805 C 0.75869 0.67906 0.96174 0.0
C1806 C 0.78507 0.68491 0.94871 0.0
N1807 N 0.77118 0.67439 0.96874 0.0
C1808 C 0.75902 0.68681 0.94785 0.0
C1809 C 0.77234 0.68985 0.94108 0.0
H1810 H 0.79398 0.67325 0.9683 0.0
H1811 H 0.74843 0.67665 0.96688 0.0
C1812 C 0.73089 0.62574 0.01391 0.0
N1813 N 0.73522 0.62836 0.9993 0.0
C1814 C 0.71651 0.61743 0.01462 0.0
C1815 C 0.71118 0.61449 0.98519 0.0
C1816 C 0.72573 0.62287 0.98505 0.0
C1817 C 0.70629 0.61179 1.00015 0.0
H1818 H 0.73854 0.63042 0.0251 0.0
H1819 H 0.72931 0.62531 0.97358 0.0
O1820 O 0.7889 0.66723 1.00411 0.0
O1821 O 0.76903 0.64157 0.01978 0.0
O1822 O 0.754 0.66487 1.00034 0.0
O1823 O 0.7674 0.63935 0.98257 0.0
H1824 H 0.8095 0.66959 0.0302 0.0
H1825 H 0.79033 0.69574 0.99442 0.0
H1826 H 0.82731 0.69441 0.04269 0.0
H1827 H 0.80847 0.72013 0.00755 0.0
H1828 H 0.76799 0.59576 0.04247 0.0
H1829 H 0.78953 0.65309 0.04583 0.0
H1830 H 0.75917 0.61086 0.02065 0.0
H1831 H 0.79772 0.63728 0.06728 0.0
H1832 H 0.78686 0.71282 0.06119 0.0
H1833 H 0.75851 0.67096 0.0723 0.0
H1834 H 0.81485 0.60739 0.98018 0.0
H1835 H 0.82946 0.62968 0.03023 0.0
H1836 H 0.73345 0.66168 0.01981 0.0
H1837 H 0.76335 0.69558 0.99927 0.0
H1838 H 0.72527 0.68429 0.03524 0.0
H1839 H 0.75466 0.71761 0.01504 0.0
H1840 H 0.76023 0.63458 0.95044 0.0
H1841 H 0.76499 0.61141 0.99344 0.0
H1842 H 0.75255 0.60788 0.93356 0.0
H1843 H 0.75713 0.5851 0.97588 0.0
H1844 H 0.79567 0.68718 0.9442 0.0
H1845 H 0.74884 0.69012 0.94233 0.0
H1846 H 0.71345 0.61548 0.02644 0.0
H1847 H 0.70372 0.6106 0.97372 0.0
Li1848 Li 0.89454 0.52247 0.75729 0.0
Li1849 Li 0.91737 0.54051 0.77545 0.0
Li1850 Li 0.89689 0.55386 0.75806 0.0
Li1851 Li 0.91526 0.53947 0.74328 0.0
C1852 C 0.88394 0.53432 0.7845 0.0
N1853 N 0.86088 0.52254 0.80063 0.0
C1854 C 0.88712 0.52972 0.79993 0.0
C1855 C 0.86907 0.53296 0.77728 0.0
C1856 C 0.8753 0.52378 0.80788 0.0
C1857 C 0.85755 0.52698 0.78563 0.0
C1858 C 0.92815 0.51458 0.76124 0.0
C1859 C 0.95472 0.51495 0.76547 0.0
N1860 N 0.95203 0.49969 0.76892 0.0
C1861 C 0.92562 0.4989 0.76478 0.0
C1862 C 0.94279 0.52268 0.76155 0.0
C1863 C 0.93786 0.49158 0.76867 0.0
C1864 C 0.8732 0.49149 0.74366 0.0
N1865 N 0.88215 0.50025 0.75722 0.0
C1866 C 0.87677 0.47771 0.77204 0.0
C1867 C 0.88395 0.4935 0.77125 0.0
C1868 C 0.8675 0.46826 0.75825 0.0
C1869 C 0.86581 0.4756 0.74392 0.0
H1870 H 0.87192 0.49671 0.73247 0.0
H1871 H 0.89134 0.50025 0.78187 0.0
C1872 C 0.93869 0.55355 0.80697 0.0
N1873 N 0.93004 0.54024 0.79757 0.0
C1874 C 0.94658 0.55272 0.82258 0.0
C1875 C 0.93676 0.52454 0.81887 0.0
C1876 C 0.92906 0.5259 0.80341 0.0
C1877 C 0.94572 0.53805 0.829 0.0
H1878 H 0.93933 0.56497 0.80252 0.0
H1879 H 0.92205 0.51538 0.79613 0.0
C1880 C 0.88161 0.54007 0.72797 0.0
N1881 N 0.8597 0.54916 0.70704 0.0
C1882 C 0.88557 0.55135 0.7177 0.0
C1883 C 0.86654 0.53335 0.72758 0.0
C1884 C 0.87432 0.55581 0.70721 0.0
C1885 C 0.85562 0.53812 0.71691 0.0
C1886 C 0.93115 0.56922 0.75695 0.0
C1887 C 0.92798 0.57805 0.74428 0.0
C1888 C 0.94587 0.57089 0.7648 0.0
C1889 C 0.93966 0.58846 0.73965 0.0
C1890 C 0.95724 0.58143 0.75981 0.0
N1891 N 0.95393 0.58991 0.74744 0.0
C1892 C 0.89421 0.58883 0.76134 0.0
C1893 C 0.87062 0.57189 0.7556 0.0
C1894 C 0.88741 0.60255 0.76172 0.0
N1895 N 0.88591 0.57363 0.75828 0.0
C1896 C 0.86337 0.58531 0.75602 0.0
C1897 C 0.87161 0.60124 0.75911 0.0
H1898 H 0.9063 0.59046 0.76353 0.0
H1899 H 0.86384 0.56002 0.75316 0.0
C1900 C 0.91854 0.53107 0.7082 0.0
N1901 N 0.9264 0.53843 0.72299 0.0
C1902 C 0.92548 0.52965 0.69398 0.0
C1903 C 0.94869 0.54346 0.70994 0.0
C1904 C 0.94134 0.54455 0.72389 0.0
C1905 C 0.94092 0.53586 0.69445 0.0
H1906 H 0.90675 0.52609 0.70735 0.0
H1907 H 0.94774 0.55033 0.73548 0.0
O1908 O 0.89533 0.53986 0.77636 0.0
O1909 O 0.91637 0.52208 0.75777 0.0
O1910 O 0.89243 0.53579 0.73853 0.0
O1911 O 0.91991 0.55882 0.7615 0.0
H1912 H 0.89859 0.53069 0.80567 0.0
H1913 H 0.86645 0.53633 0.76528 0.0
H1914 H 0.87758 0.52013 0.81982 0.0
H1915 H 0.84598 0.52583 0.78018 0.0
H1916 H 0.96612 0.52109 0.7658 0.0
H1917 H 0.91435 0.49248 0.76461 0.0
H1918 H 0.9449 0.53486 0.75894 0.0
H1919 H 0.93609 0.47947 0.77149 0.0
H1920 H 0.87889 0.47286 0.78335 0.0
H1921 H 0.85876 0.46917 0.73291 0.0
H1922 H 0.95302 0.56365 0.82968 0.0
H1923 H 0.93569 0.51284 0.82275 0.0
H1924 H 0.89721 0.55663 0.71788 0.0
H1925 H 0.86332 0.5246 0.73548 0.0
H1926 H 0.8772 0.56455 0.69921 0.0
H1927 H 0.8439 0.53306 0.7165 0.0
H1928 H 0.91663 0.57683 0.73807 0.0
H1929 H 0.9485 0.56405 0.77456 0.0
H1930 H 0.93739 0.59536 0.72984 0.0
H1931 H 0.96871 0.58282 0.76574 0.0
H1932 H 0.89471 0.61414 0.7639 0.0
H1933 H 0.85126 0.583 0.75412 0.0
H1934 H 0.9187 0.5234 0.68275 0.0
H1935 H 0.96045 0.54878 0.71143 0.0
Li1936 Li 0.75244 0.35366 0.51744 0.0
Li1937 Li 0.73374 0.37061 0.51002 0.0
Li1938 Li 0.74234 0.35491 0.48978 0.0
Li1939 Li 0.75901 0.37794 0.50498 0.0
C1940 C 0.72098 0.33482 0.4976 0.0
N1941 N 0.70099 0.31065 0.47713 0.0
C1942 C 0.70779 0.33799 0.48929 0.0
C1943 C 0.72396 0.31934 0.4956 0.0
C1944 C 0.69784 0.32561 0.47897 0.0
C1945 C 0.71372 0.30729 0.48518 0.0
C1946 C 0.75757 0.39053 0.53557 0.0
C1947 C 0.75871 0.41899 0.54009 0.0
N1948 N 0.76907 0.42012 0.55365 0.0
C1949 C 0.76822 0.39195 0.54954 0.0
C1950 C 0.75275 0.40413 0.53078 0.0
C1951 C 0.7739 0.40703 0.55852 0.0
C1952 C 0.77559 0.34807 0.53811 0.0
N1953 N 0.76097 0.34205 0.53218 0.0
C1954 C 0.76167 0.31902 0.54545 0.0
C1955 C 0.75381 0.32795 0.53572 0.0
C1956 C 0.77692 0.32484 0.5515 0.0
C1957 C 0.78384 0.33964 0.5479 0.0
H1958 H 0.7809 0.35928 0.5349 0.0
H1959 H 0.74214 0.32352 0.53074 0.0
C1960 C 0.70825 0.38331 0.50469 0.0
N1961 N 0.71797 0.3792 0.51645 0.0
C1962 C 0.69742 0.39176 0.50905 0.0
C1963 C 0.70677 0.39128 0.53753 0.0
C1964 C 0.71732 0.38267 0.53259 0.0
C1965 C 0.69686 0.39619 0.52567 0.0
H1966 H 0.70924 0.38043 0.49196 0.0
H1967 H 0.7254 0.37934 0.54159 0.0
C1968 C 0.77465 0.34949 0.49543 0.0
N1969 N 0.7981 0.33492 0.4883 0.0
C1970 C 0.78647 0.35779 0.48891 0.0
C1971 C 0.77481 0.3338 0.49839 0.0
C1972 C 0.79821 0.35021 0.48536 0.0
C1973 C 0.78674 0.32663 0.49467 0.0
C1974 C 0.74366 0.38344 0.47601 0.0
C1975 C 0.7548 0.37818 0.46808 0.0
C1976 C 0.73603 0.39466 0.46961 0.0
C1977 C 0.75815 0.38426 0.45388 0.0
C1978 C 0.7397 0.40046 0.45538 0.0
N1979 N 0.75059 0.39519 0.44787 0.0
C1980 C 0.72739 0.3466 0.45718 0.0
C1981 C 0.74284 0.32899 0.46664 0.0
C1982 C 0.7243 0.33778 0.44163 0.0
N1983 N 0.73686 0.34229 0.46913 0.0
C1984 C 0.73993 0.31973 0.45141 0.0
C1985 C 0.7308 0.3243 0.43862 0.0
H1986 H 0.72247 0.35702 0.45965 0.0
H1987 H 0.74991 0.32558 0.47648 0.0
C1988 C 0.78781 0.39243 0.51648 0.0
N1989 N 0.77575 0.3944 0.50616 0.0
C1990 C 0.80123 0.40331 0.51848 0.0
C1991 C 0.78957 0.41819 0.49917 0.0
C1992 C 0.77623 0.40713 0.4978 0.0
C1993 C 0.80235 0.41622 0.50949 0.0
H1994 H 0.787 0.38229 0.52309 0.0
H1995 H 0.7664 0.40863 0.48992 0.0
O1996 O 0.73105 0.34689 0.50736 0.0
O1997 O 0.75218 0.37594 0.52637 0.0
O1998 O 0.76325 0.3569 0.49934 0.0
O1999 O 0.7401 0.37773 0.48995 0.0
H2000 H 0.70535 0.34991 0.49064 0.0
H2001 H 0.73422 0.31672 0.50174 0.0
H2002 H 0.68764 0.32792 0.47237 0.0
H2003 H 0.71595 0.29529 0.4834 0.0
H2004 H 0.75513 0.42963 0.53651 0.0
H2005 H 0.7721 0.38153 0.55335 0.0
H2006 H 0.74465 0.40323 0.51987 0.0
H2007 H 0.78218 0.40834 0.56934 0.0
H2008 H 0.75598 0.30761 0.54795 0.0
H2009 H 0.79548 0.3447 0.55263 0.0
H2010 H 0.68982 0.39513 0.49955 0.0
H2011 H 0.70682 0.39465 0.55046 0.0
H2012 H 0.78661 0.36996 0.4866 0.0
H2013 H 0.76575 0.32715 0.50338 0.0
H2014 H 0.80742 0.35649 0.4803 0.0
H2015 H 0.78697 0.31449 0.49687 0.0
H2016 H 0.76075 0.36944 0.47273 0.0
H2017 H 0.72737 0.39885 0.4756 0.0
H2018 H 0.76673 0.38027 0.44762 0.0
H2019 H 0.7339 0.40917 0.4503 0.0
H2020 H 0.71712 0.34155 0.43203 0.0
H2021 H 0.74524 0.30948 0.44951 0.0
H2022 H 0.81063 0.40151 0.52691 0.0
H2023 H 0.78994 0.42791 0.49192 0.0
Li2024 Li 0.62827 0.53213 0.30302 0.0
Li2025 Li 0.6479 0.54952 0.28971 0.0
Li2026 Li 0.627 0.53047 0.27359 0.0
Li2027 Li 0.64622 0.52074 0.2886 0.0
C2028 C 0.61507 0.55552 0.28067 0.0
N2029 N 0.59293 0.56669 0.26207 0.0
C2030 C 0.61891 0.56721 0.27078 0.0
C2031 C 0.59999 0.5497 0.28132 0.0
C2032 C 0.60755 0.57265 0.2614 0.0
C2033 C 0.58896 0.55545 0.27177 0.0
C2034 C 0.66301 0.53267 0.31626 0.0
C2035 C 0.68962 0.53319 0.32039 0.0
N2036 N 0.68768 0.52225 0.3309 0.0
C2037 C 0.66127 0.5215 0.32715 0.0
C2038 C 0.67728 0.53862 0.31286 0.0
C2039 C 0.67389 0.51635 0.3344 0.0
C2040 C 0.61756 0.51712 0.32829 0.0
N2041 N 0.61846 0.53089 0.32158 0.0
C2042 C 0.60672 0.54266 0.34256 0.0
C2043 C 0.61314 0.54354 0.3283 0.0
C2044 C 0.60585 0.52865 0.34995 0.0
C2045 C 0.61127 0.51572 0.34253 0.0
H2046 H 0.62187 0.50725 0.32262 0.0
H2047 H 0.6141 0.55438 0.32271 0.0
C2048 C 0.66271 0.57442 0.27587 0.0
N2049 N 0.66068 0.56948 0.29046 0.0
C2050 C 0.67214 0.58889 0.27529 0.0
C2051 C 0.67736 0.59285 0.30481 0.0
C2052 C 0.66773 0.57831 0.30481 0.0
C2053 C 0.67968 0.59832 0.28988 0.0
H2054 H 0.65693 0.56711 0.26466 0.0
H2055 H 0.66598 0.57399 0.31623 0.0
C2056 C 0.61187 0.50161 0.28256 0.0
N2057 N 0.58583 0.47894 0.27353 0.0
C2058 C 0.612 0.48713 0.27306 0.0
C2059 C 0.59854 0.50441 0.28773 0.0
C2060 C 0.59871 0.47587 0.26854 0.0
C2061 C 0.58548 0.49284 0.28297 0.0
C2062 C 0.65194 0.52559 0.25755 0.0
C2063 C 0.6434 0.51061 0.25088 0.0
C2064 C 0.66422 0.53201 0.25049 0.0
C2065 C 0.64727 0.50228 0.23718 0.0
C2066 C 0.66775 0.5233 0.23681 0.0
N2067 N 0.65927 0.50874 0.23049 0.0
C2068 C 0.62076 0.53797 0.24236 0.0
C2069 C 0.60193 0.51722 0.24722 0.0
C2070 C 0.61399 0.53686 0.2262 0.0
N2071 N 0.61479 0.52814 0.25249 0.0
C2072 C 0.59486 0.51556 0.23104 0.0
C2073 C 0.60099 0.52533 0.2202 0.0
H2074 H 0.63098 0.54658 0.24682 0.0
H2075 H 0.59723 0.50954 0.25534 0.0
C2076 C 0.6514 0.4907 0.29436 0.0
N2077 N 0.6575 0.5043 0.28891 0.0
C2078 C 0.65901 0.478 0.29472 0.0
C2079 C 0.67916 0.49368 0.28408 0.0
C2080 C 0.67113 0.50607 0.28389 0.0
C2081 C 0.67307 0.47939 0.2895 0.0
H2082 H 0.64059 0.48972 0.2984 0.0
H2083 H 0.67578 0.51713 0.27983 0.0
O2084 O 0.62602 0.54972 0.28956 0.0
O2085 O 0.65076 0.53745 0.30859 0.0
O2086 O 0.6248 0.51274 0.28714 0.0
O2087 O 0.64843 0.53396 0.27101 0.0
H2088 H 0.63052 0.57189 0.2702 0.0
H2089 H 0.59684 0.54085 0.2891 0.0
H2090 H 0.61035 0.58158 0.25357 0.0
H2091 H 0.57724 0.55098 0.27208 0.0
H2092 H 0.70072 0.53761 0.31781 0.0
H2093 H 0.65029 0.51671 0.32982 0.0
H2094 H 0.67879 0.54714 0.30432 0.0
H2095 H 0.67271 0.50763 0.34278 0.0
H2096 H 0.60283 0.55297 0.34795 0.0
H2097 H 0.61062 0.50461 0.34765 0.0
H2098 H 0.67336 0.5927 0.26351 0.0
H2099 H 0.6831 0.59959 0.31635 0.0
H2100 H 0.62227 0.48458 0.26922 0.0
H2101 H 0.59824 0.51539 0.2953 0.0
H2102 H 0.59864 0.46467 0.26111 0.0
H2103 H 0.57507 0.49492 0.2868 0.0
H2104 H 0.63387 0.50553 0.25618 0.0
H2105 H 0.67099 0.54358 0.25557 0.0
H2106 H 0.64073 0.49068 0.23188 0.0
H2107 H 0.67723 0.52811 0.23122 0.0
H2108 H 0.61897 0.54494 0.21849 0.0
H2109 H 0.58493 0.50639 0.22698 0.0
H2110 H 0.65384 0.46714 0.29883 0.0
H2111 H 0.69007 0.49534 0.28019 0.0
Tb2112 Tb 0.01425 0.01159 0.01099 0.0
Tb2113 Tb 0.04463 0.02719 0.0278 0.0
C2114 C 0.98655 1.00486 1.00192 0.0
C2115 C 0.9758 0.01547 0.99963 0.0
C2116 C 0.97768 0.02985 0.0102 0.0
C2117 C 0.96841 0.04073 0.00714 0.0
C2118 C 0.95718 0.03747 0.9934 0.0
C2119 C 0.95517 0.02297 0.98293 0.0
C2120 C 0.96448 0.01204 0.98603 0.0
C2121 C 0.0356 0.00953 0.99304 0.0
C2122 C 0.02546 0.04936 0.01221 0.0
C2123 C 0.0723 0.03445 0.03707 0.0
C2124 C 0.08375 0.02469 0.03607 0.0
C2125 C 0.08124 0.01131 0.02401 0.0
C2126 C 0.0917 1.00141 0.0235 0.0
C2127 C 0.10482 1.00475 0.03502 0.0
C2128 C 0.10734 0.01818 0.04707 0.0
C2129 C 0.09681 0.02812 0.04759 0.0
C2130 C 0.02313 0.02904 0.04563 0.0
C2131 C 0.03358 0.98942 0.02604 0.0
O2132 O 0.99282 1.0051 0.01703 0.0
O2133 O 0.99625 1.00545 0.99172 0.0
O2134 O 0.03457 0.02138 1.00291 0.0
O2135 O 0.02389 0.99843 0.99239 0.0
O2136 O 0.01399 0.03724 0.01056 0.0
O2137 O 0.03921 0.04783 0.01766 0.0
O2138 O 0.06578 0.03709 0.02298 0.0
O2139 O 0.06271 0.03027 0.04683 0.0
O2140 O 0.02442 0.01728 0.03584 0.0
O2141 O 0.03472 0.04027 0.04629 0.0
O2142 O 0.04506 1.00141 0.02688 0.0
O2143 O 0.0197 0.99114 0.0215 0.0
H2144 H 0.98646 0.03285 0.02071 0.0
H2145 H 0.97003 0.05167 0.01558 0.0
H2146 H 0.94663 0.02024 0.97221 0.0
H2147 H 0.96305 1.00109 0.97764 0.0
H2148 H 0.07111 0.00839 0.01509 0.0
H2149 H 0.08936 0.99095 0.0143 0.0
H2150 H 0.11742 0.02099 0.05605 0.0
H2151 H 0.09879 0.03834 0.05704 0.0
Tb2152 Tb 0.28313 0.76557 0.25013 0.0
Tb2153 Tb 0.27644 0.77852 0.28252 0.0
C2154 C 0.2811 0.75761 0.22012 0.0
C2155 C 0.2915 0.75892 0.20833 0.0
C2156 C 0.30383 0.77158 0.21056 0.0
C2157 C 0.31314 0.77298 0.19864 0.0
C2158 C 0.31026 0.76164 0.1845 0.0
C2159 C 0.29839 0.7485 0.18286 0.0
C2160 C 0.28907 0.74718 0.19471 0.0
C2161 C 0.30697 0.76575 0.27211 0.0
C2162 C 0.29549 0.80282 0.26439 0.0
C2163 C 0.27145 0.78435 0.31107 0.0
C2164 C 0.26578 0.7738 0.32229 0.0
C2165 C 0.27066 0.75931 0.32343 0.0
C2166 C 0.26449 0.74887 0.33338 0.0
C2167 C 0.25319 0.75265 0.34218 0.0
C2168 C 0.24798 0.76693 0.34054 0.0
C2169 C 0.25428 0.77747 0.33068 0.0
C2170 C 0.25775 0.782 0.25677 0.0
C2171 C 0.26657 0.74062 0.27033 0.0
O2172 O 0.27783 0.77105 0.22653 0.0
O2173 O 0.28374 0.74805 0.23085 0.0
O2174 O 0.29495 0.77022 0.27451 0.0
O2175 O 0.30585 0.76112 0.25663 0.0
O2176 O 0.29168 0.79173 0.25122 0.0
O2177 O 0.29219 0.79949 0.27878 0.0
O2178 O 0.28484 0.78351 0.30752 0.0
O2179 O 0.26171 0.78449 0.29821 0.0
O2180 O 0.26323 0.76978 0.25904 0.0
O2181 O 0.26297 0.79291 0.26919 0.0
O2182 O 0.26878 0.75245 0.2827 0.0
O2183 O 0.27031 0.74344 0.25599 0.0
H2184 H 0.30601 0.78058 0.22125 0.0
H2185 H 0.32222 0.7832 0.20015 0.0
H2186 H 0.29573 0.73975 0.17196 0.0
H2187 H 0.2797 0.73723 0.19301 0.0
H2188 H 0.2793 0.75607 0.31674 0.0
H2189 H 0.26902 0.73814 0.33463 0.0
H2190 H 0.23922 0.77008 0.34709 0.0
H2191 H 0.25015 0.78844 0.32954 0.0
Tb2192 Tb 0.5468 0.02331 0.51558 0.0
Tb2193 Tb 0.51649 0.01789 0.52301 0.0
C2194 C 0.57408 0.02315 0.51386 0.0
C2195 C 0.58521 0.01253 0.51526 0.0
C2196 C 0.5885 1.0056 0.52949 0.0
C2197 C 0.60023 0.99706 0.53108 0.0
C2198 C 0.60892 0.99526 0.5185 0.0
C2199 C 0.60528 1.00185 0.50412 0.0
C2200 C 0.5936 0.01038 0.50255 0.0
C2201 C 0.52673 0.02854 0.49122 0.0
C2202 C 0.52819 0.98786 0.51084 0.0
C2203 C 0.48921 0.01754 0.5253 0.0
C2204 C 0.47755 0.02743 0.52406 0.0
C2205 C 0.47833 0.0403 0.51497 0.0
C2206 C 0.4664 0.0486 0.51317 0.0
C2207 C 0.4535 0.04412 0.52038 0.0
C2208 C 0.45305 0.03148 0.52978 0.0
C2209 C 0.46492 0.02325 0.53157 0.0
C2210 C 0.5368 0.01271 0.54724 0.0
C2211 C 0.53499 0.05331 0.52753 0.0
O2212 O 0.56912 0.02806 0.52717 0.0
O2213 O 0.56347 0.01963 0.50121 0.0
O2214 O 0.52496 0.01746 0.5001 0.0
O2215 O 0.54026 0.03661 0.49569 0.0
O2216 O 0.54154 0.99724 0.51396 0.0
O2217 O 0.51594 0.99368 0.51202 0.0
O2218 O 0.49402 0.01293 0.51181 0.0
O2219 O 0.50006 0.02168 0.53768 0.0
O2220 O 0.53829 0.02385 0.53843 0.0
O2221 O 0.52337 1.00445 0.54276 0.0
O2222 O 0.52163 0.04394 0.52414 0.0
O2223 O 0.54726 0.04744 0.52671 0.0
H2224 H 0.58222 1.00702 0.53952 0.0
H2225 H 0.60254 0.99196 0.54223 0.0
H2226 H 0.6118 1.0009 0.49425 0.0
H2227 H 0.59137 0.0157 0.49152 0.0
H2228 H 0.48799 0.04372 0.50904 0.0
H2229 H 0.46711 0.05823 0.50579 0.0
H2230 H 0.44349 0.02789 0.53579 0.0
H2231 H 0.46412 0.01339 0.53866 0.0
Tb2232 Tb 0.26428 0.2745 0.76623 0.0
Tb2233 Tb 0.29915 0.27293 0.7709 0.0
C2234 C 0.2369 0.27293 0.76789 0.0
C2235 C 0.22578 0.27093 0.77928 0.0
C2236 C 0.21927 0.25574 0.78249 0.0
C2237 C 0.20738 0.25399 0.79154 0.0
C2238 C 0.20165 0.26737 0.79749 0.0
C2239 C 0.20846 0.28256 0.79458 0.0
C2240 C 0.22032 0.28431 0.78559 0.0
C2241 C 0.28315 0.29878 0.75956 0.0
C2242 C 0.28439 0.28196 0.8018 0.0
C2243 C 0.32654 0.28197 0.76981 0.0
C2244 C 0.33865 0.27905 0.76031 0.0
C2245 C 0.34348 0.2901 0.74998 0.0
C2246 C 0.35578 0.28871 0.74203 0.0
C2247 C 0.36368 0.27625 0.74421 0.0
C2248 C 0.35872 0.26502 0.75437 0.0
C2249 C 0.34635 0.26642 0.76236 0.0
C2250 C 0.28173 0.24537 0.77331 0.0
C2251 C 0.27808 0.26094 0.73627 0.0
O2252 O 0.24262 0.26054 0.76291 0.0
O2253 O 0.24678 0.28634 0.77059 0.0
O2254 O 0.28532 0.29053 0.77084 0.0
O2255 O 0.26958 0.29404 0.75184 0.0
O2256 O 0.27086 0.27737 0.79282 0.0
O2257 O 0.29703 0.28268 0.79553 0.0
O2258 O 0.31579 0.28801 0.76228 0.0
O2259 O 0.32155 0.2714 0.77905 0.0
O2260 O 0.27844 0.25849 0.7708 0.0
O2261 O 0.29623 0.24722 0.77432 0.0
O2262 O 0.29179 0.26624 0.7446 0.0
O2263 O 0.26566 0.26138 0.74277 0.0
H2264 H 0.2231 0.24515 0.7777 0.0
H2265 H 0.20257 0.24212 0.79371 0.0
H2266 H 0.20425 0.29312 0.79869 0.0
H2267 H 0.2249 0.29614 0.78311 0.0
H2268 H 0.33797 0.30014 0.74836 0.0
H2269 H 0.35939 0.29776 0.73459 0.0
H2270 H 0.36442 0.25517 0.7562 0.0
H2271 H 0.34301 0.25778 0.77034 0.0
Tb2272 Tb 0.03042 0.03659 0.52452 0.0
Tb2273 Tb 0.03395 1.00376 0.51804 0.0
C2274 C 0.03385 0.06611 0.53292 0.0
C2275 C 0.03325 0.07934 0.5236 0.0
C2276 C 0.03353 0.07703 0.50675 0.0
C2277 C 0.0324 0.08952 0.49771 0.0
C2278 C 0.03105 0.10448 0.50547 0.0
C2279 C 0.03078 0.10674 0.52237 0.0
C2280 C 0.03184 0.09418 0.5314 0.0
C2281 C 1.00537 0.01571 0.52279 0.0
C2282 C 0.02248 0.02134 0.4887 0.0
C2283 C 0.03121 0.97433 0.50981 0.0
C2284 C 0.03558 0.96194 0.51886 0.0
C2285 C 0.02927 0.94594 0.51324 0.0
C2286 C 0.0325 0.93416 0.52258 0.0
C2287 C 0.04209 0.93834 0.53765 0.0
C2288 C 0.04859 0.95442 0.54309 0.0
C2289 C 0.04532 0.96617 0.53376 0.0
C2290 C 0.059 0.02481 0.51994 0.0
C2291 C 0.04183 0.01887 0.55408 0.0
O2292 O 0.04497 0.05867 0.53115 0.0
O2293 O 0.02109 0.0563 0.53195 0.0
O2294 O 0.01816 0.01454 0.52969 0.0
O2295 O 1.00625 0.0292 0.5171 0.0
O2296 O 0.02761 0.03508 0.49818 0.0
O2297 O 0.02222 1.0077 0.49464 0.0
O2298 O 0.02067 0.98093 0.51527 0.0
O2299 O 0.0423 0.98482 0.50683 0.0
O2300 O 0.04622 0.02584 0.5129 0.0
O2301 O 0.05811 0.01135 0.52573 0.0
O2302 O 0.03804 1.00512 0.54437 0.0
O2303 O 0.04075 0.03247 0.54847 0.0
H2304 H 0.03457 0.06559 0.50057 0.0
H2305 H 0.03243 0.08743 0.48465 0.0
H2306 H 0.0299 0.11824 0.52863 0.0
H2307 H 0.03154 0.09603 0.54441 0.0
H2308 H 0.02159 0.9426 0.50183 0.0
H2309 H 0.02714 0.92186 0.51826 0.0
H2310 H 0.0561 0.95793 0.5546 0.0
H2311 H 0.05021 0.97856 0.53828 0.0
Tb2312 Tb 0.27869 0.75472 0.7628 0.0
Tb2313 Tb 0.28074 0.78794 0.78123 0.0
C2314 C 0.28188 0.73076 0.74428 0.0
C2315 C 0.29205 0.71936 0.74515 0.0
C2316 C 0.29346 0.70986 0.73088 0.0
C2317 C 0.30254 0.69841 0.73157 0.0
C2318 C 0.31031 0.6962 0.74661 0.0
C2319 C 0.30916 0.70609 0.76088 0.0
C2320 C 0.30014 0.71763 0.76014 0.0
C2321 C 0.27704 0.75597 0.79421 0.0
C2322 C 0.31032 0.77631 0.77835 0.0
C2323 C 0.27772 0.81187 0.79989 0.0
C2324 C 0.2681 0.82376 0.79868 0.0
C2325 C 0.26725 0.83402 0.81266 0.0
C2326 C 0.25873 0.84596 0.81156 0.0
C2327 C 0.25095 0.84782 0.79641 0.0
C2328 C 0.2516 0.83727 0.78244 0.0
C2329 C 0.26009 0.82529 0.78357 0.0
C2330 C 0.28231 0.78681 0.74984 0.0
C2331 C 0.24902 0.76627 0.76545 0.0
O2332 O 0.28801 0.74541 0.74299 0.0
O2333 O 0.27253 0.73016 0.75487 0.0
O2334 O 0.28506 0.76575 0.7875 0.0
O2335 O 0.27041 0.74404 0.78336 0.0
O2336 O 0.30266 0.76494 0.76675 0.0
O2337 O 0.30355 0.78486 0.78816 0.0
O2338 O 0.27093 0.7973 0.80061 0.0
O2339 O 0.28756 0.8123 0.78985 0.0
O2340 O 0.27437 0.77695 0.75655 0.0
O2341 O 0.28884 0.79879 0.76068 0.0
O2342 O 0.25665 0.77786 0.7769 0.0
O2343 O 0.25584 0.75751 0.7559 0.0
H2344 H 0.28739 0.71119 0.7192 0.0
H2345 H 0.30343 0.69124 0.72031 0.0
H2346 H 0.31489 0.70462 0.77267 0.0
H2347 H 0.29923 0.72498 0.77129 0.0
H2348 H 0.27337 0.83295 0.82439 0.0
H2349 H 0.25857 0.854 0.8225 0.0
H2350 H 0.24557 0.8383 0.77065 0.0
H2351 H 0.26058 0.81736 0.77265 0.0
Tb2352 Tb 0.51929 0.02187 0.00822 0.0
Tb2353 Tb 0.5473 0.02172 0.03066 0.0
C2354 C 0.49306 0.01551 0.99323 0.0
C2355 C 0.47821 0.01237 0.99829 0.0
C2356 C 0.47448 1.00035 0.00797 0.0
C2357 C 0.46016 0.99716 0.01214 0.0
C2358 C 0.44936 1.00609 0.00694 0.0
C2359 C 0.45336 0.01855 0.99783 0.0
C2360 C 0.46764 0.02158 0.99345 0.0
C2361 C 0.53622 0.0499 0.01858 0.0
C2362 C 0.51851 0.02257 0.04743 0.0
C2363 C 0.57345 0.02822 0.04596 0.0
C2364 C 0.58846 0.0294 0.04145 0.0
C2365 C 0.59225 0.037 0.02811 0.0
C2366 C 0.60687 0.03892 0.02467 0.0
C2367 C 0.61789 0.03314 0.03442 0.0
C2368 C 0.61384 0.02486 0.04728 0.0
C2369 C 0.59925 0.02308 0.05079 0.0
C2370 C 0.53042 0.99362 0.02006 0.0
C2371 C 0.54807 0.02086 0.9913 0.0
O2372 O 0.50138 1.00472 0.99537 0.0
O2373 O 0.50063 0.03011 0.99747 0.0
O2374 O 0.53353 0.03862 0.02675 0.0
O2375 O 0.52851 0.04599 1.00405 0.0
O2376 O 0.51092 0.01928 0.03222 0.0
O2377 O 0.53339 0.02561 0.04977 0.0
O2378 O 0.56592 0.03906 0.04145 0.0
O2379 O 0.56523 0.01385 0.04355 0.0
O2380 O 0.53314 1.00504 0.01209 0.0
O2381 O 0.53815 0.99743 0.03459 0.0
O2382 O 0.55566 0.02323 0.00651 0.0
O2383 O 0.5332 0.01876 0.98894 0.0
H2384 H 0.4825 0.99319 0.01208 0.0
H2385 H 0.45743 0.98732 0.01896 0.0
H2386 H 0.44541 0.02584 0.99388 0.0
H2387 H 0.47039 0.03105 0.98616 0.0
H2388 H 0.58405 0.04184 0.0206 0.0
H2389 H 0.60963 0.04551 0.0148 0.0
H2390 H 0.62202 0.02003 0.05482 0.0
H2391 H 0.59644 0.017 0.061 0.0
Tb2392 Tb 0.26812 0.26046 0.26351 0.0
Tb2393 Tb 0.29627 0.28206 0.27634 0.0
C2394 C 0.24198 0.24464 0.26019 0.0
C2395 C 0.22734 0.24901 0.26068 0.0
C2396 C 0.21634 0.23884 0.26664 0.0
C2397 C 0.2033 0.24396 0.26992 0.0
C2398 C 0.2012 0.25941 0.26746 0.0
C2399 C 0.21192 0.26926 0.26064 0.0
C2400 C 0.22491 0.26407 0.25724 0.0
C2401 C 0.28186 0.27284 0.24079 0.0
C2402 C 0.26785 0.29837 0.2742 0.0
C2403 C 0.32241 0.29795 0.27995 0.0
C2404 C 0.33721 0.29378 0.28073 0.0
C2405 C 0.34881 0.30431 0.27611 0.0
C2406 C 0.36231 0.29952 0.27424 0.0
C2407 C 0.36427 0.28403 0.27675 0.0
C2408 C 0.35284 0.27379 0.28218 0.0
C2409 C 0.3394 0.27867 0.28421 0.0
C2410 C 0.28245 0.26949 0.29899 0.0
C2411 C 0.29658 0.24414 0.26554 0.0
O2412 O 0.251 0.2482 0.27415 0.0
O2413 O 0.24867 0.24846 0.24788 0.0
O2414 O 0.28081 0.27997 0.25454 0.0
O2415 O 0.27462 0.25824 0.23923 0.0
O2416 O 0.26011 0.28336 0.27079 0.0
O2417 O 0.28268 0.30088 0.27572 0.0
O2418 O 0.31387 0.29345 0.26575 0.0
O2419 O 0.31526 0.2949 0.29215 0.0
O2420 O 0.28365 0.26251 0.28524 0.0
O2421 O 0.28963 0.28412 0.30063 0.0
O2422 O 0.30433 0.25912 0.26937 0.0
O2423 O 0.28173 0.24162 0.26364 0.0
H2424 H 0.21811 0.2272 0.26938 0.0
H2425 H 0.19508 0.23601 0.27488 0.0
H2426 H 0.21063 0.28126 0.2587 0.0
H2427 H 0.23333 0.27207 0.25259 0.0
H2428 H 0.34724 0.31602 0.27338 0.0
H2429 H 0.37106 0.30778 0.27036 0.0
H2430 H 0.35399 0.26175 0.2841 0.0
H2431 H 0.33052 0.27043 0.28789 0.0
Tb2432 Tb 0.53321 0.53908 0.0229 0.0
Tb2433 Tb 0.53531 0.50398 0.0133 0.0
C2434 C 0.53961 0.56879 0.02679 0.0
C2435 C 0.53173 0.58073 0.02071 0.0
C2436 C 0.53897 0.5967 0.02301 0.0
C2437 C 0.53203 0.60793 0.01585 0.0
C2438 C 0.51774 0.60327 0.00634 0.0
C2439 C 0.51035 0.58727 1.00448 0.0
C2440 C 0.51734 0.57603 0.01159 0.0
C2441 C 0.5071 0.52021 0.02421 0.0
C2442 C 0.5211 0.52169 0.98657 0.0
C2443 C 0.53507 0.47467 0.01029 0.0
C2444 C 0.53451 0.46287 0.02147 0.0
C2445 C 0.52901 0.4656 0.03625 0.0
C2446 C 0.53004 0.45498 0.0476 0.0
C2447 C 0.53661 0.4416 0.04424 0.0
C2448 C 0.54183 0.4388 0.02928 0.0
C2449 C 0.54081 0.44942 0.01798 0.0
C2450 C 0.55755 0.52589 0.00789 0.0
C2451 C 0.54349 0.51989 0.05047 0.0
O2452 O 0.54412 0.55975 0.01539 0.0
O2453 O 0.53318 0.56067 0.03723 0.0
O2454 O 0.51899 0.5165 0.0204 0.0
O2455 O 0.50968 0.53567 0.02739 0.0
O2456 O 0.52626 0.5354 0.99636 0.0
O2457 O 0.52182 0.50766 0.99137 0.0
O2458 O 0.52296 0.4807 0.00727 0.0
O2459 O 0.54739 0.4855 0.01318 0.0
O2460 O 0.55081 0.5262 0.0201 0.0
O2461 O 0.55208 0.51264 0.99831 0.0
O2462 O 0.53879 0.50651 0.04009 0.0
O2463 O 0.54413 0.53413 0.04578 0.0
H2464 H 0.55016 0.60036 0.02991 0.0
H2465 H 0.53812 0.62012 0.01719 0.0
H2466 H 0.49931 0.5834 0.99727 0.0
H2467 H 0.51171 0.56363 0.00964 0.0
H2468 H 0.52421 0.47607 0.03914 0.0
H2469 H 0.52604 0.4574 0.05912 0.0
H2470 H 0.54672 0.42841 0.02634 0.0
H2471 H 0.54521 0.44731 0.00664 0.0
Tb2472 Tb 0.77973 0.25436 0.26403 0.0
Tb2473 Tb 0.78366 0.28896 0.27963 0.0
C2474 C 0.78239 0.22851 0.24837 0.0
C2475 C 0.792 0.21651 0.25022 0.0
C2476 C 0.80732 0.21993 0.24893 0.0
C2477 C 0.81596 0.20806 0.25 0.0
C2478 C 0.80944 0.19259 0.25243 0.0
C2479 C 0.7942 0.18935 0.2541 0.0
C2480 C 0.78557 0.20116 0.25291 0.0
C2481 C 0.77223 0.25855 0.29321 0.0
C2482 C 0.81117 0.27293 0.28447 0.0
C2483 C 0.78114 0.31512 0.29475 0.0
C2484 C 0.77103 0.32664 0.29296 0.0
C2485 C 0.75611 0.32309 0.29576 0.0
C2486 C 0.74696 0.33446 0.29447 0.0
C2487 C 0.75255 0.34953 0.29029 0.0
C2488 C 0.7674 0.35296 0.28729 0.0
C2489 C 0.77656 0.34165 0.28868 0.0
C2490 C 0.7911 0.28452 0.25041 0.0
C2491 C 0.75217 0.27033 0.25958 0.0
O2492 O 0.78863 0.24256 0.24532 0.0
O2493 O 0.77316 0.22948 0.25898 0.0
O2494 O 0.78309 0.2666 0.28829 0.0
O2495 O 0.76573 0.2468 0.28205 0.0
O2496 O 0.80378 0.26095 0.27332 0.0
O2497 O 0.80463 0.28416 0.29093 0.0
O2498 O 0.77563 0.30123 0.29877 0.0
O2499 O 0.78968 0.31389 0.28347 0.0
O2500 O 0.7802 0.2767 0.25543 0.0
O2501 O 0.79786 0.2961 0.26161 0.0
O2502 O 0.75953 0.28202 0.27106 0.0
O2503 O 0.75887 0.25948 0.25267 0.0
H2504 H 0.81262 0.23168 0.24688 0.0
H2505 H 0.82764 0.2109 0.24853 0.0
H2506 H 0.78891 0.17767 0.25633 0.0
H2507 H 0.77379 0.19823 0.25399 0.0
H2508 H 0.7515 0.3116 0.29904 0.0
H2509 H 0.7355 0.33147 0.2967 0.0
H2510 H 0.77207 0.36454 0.28426 0.0
H2511 H 0.78804 0.34471 0.28654 0.0
Tb2512 Tb 0.01818 0.52168 0.50826 0.0
Tb2513 Tb 0.04556 0.51976 0.53083 0.0
C2514 C 0.99216 0.51674 0.49278 0.0
C2515 C 0.97712 0.51289 0.49711 0.0
C2516 C 0.97373 0.50148 0.50754 0.0
C2517 C 0.95916 0.49738 0.51083 0.0
C2518 C 0.94777 0.50481 0.50395 0.0
C2519 C 0.95141 0.51677 0.49414 0.0
C2520 C 0.96596 0.5207 0.49067 0.0
C2521 C 0.03662 0.54887 0.5183 0.0
C2522 C 0.01694 0.52185 0.54744 0.0
C2523 C 0.07178 0.52465 0.54571 0.0
C2524 C 0.08633 0.52822 0.54015 0.0
C2525 C 0.0884 0.53811 0.52802 0.0
C2526 C 0.10228 0.54148 0.52282 0.0
C2527 C 0.11431 0.5349 0.52958 0.0
C2528 C 0.11204 0.5246 0.54137 0.0
C2529 C 0.09815 0.52132 0.54664 0.0
C2530 C 0.0271 0.49261 0.5205 0.0
C2531 C 0.04686 0.51971 0.49167 0.0
O2532 O 1.00031 0.50564 0.4938 0.0
O2533 O 0.99975 0.53104 0.49873 0.0
O2534 O 0.03319 0.53788 0.52666 0.0
O2535 O 0.02883 0.54519 0.50379 0.0
O2536 O 0.00952 0.51961 0.53216 0.0
O2537 O 0.03176 0.52356 0.55 0.0
O2538 O 0.06366 0.53578 0.54495 0.0
O2539 O 0.06397 0.51033 0.5403 0.0
O2540 O 0.03066 0.50369 0.51234 0.0
O2541 O 0.03477 0.49614 0.53509 0.0
O2542 O 0.05422 0.52176 0.50694 0.0
O2543 O 0.03205 0.51809 0.48907 0.0
H2544 H 0.98225 0.49545 0.51286 0.0
H2545 H 0.95674 0.48799 0.51828 0.0
H2546 H 0.94298 0.52294 0.48893 0.0
H2547 H 0.96846 0.52971 0.4828 0.0
H2548 H 0.07936 0.54344 0.52268 0.0
H2549 H 0.10369 0.54964 0.5139 0.0
H2550 H 0.12103 0.51917 0.54662 0.0
H2551 H 0.09664 0.51346 0.55583 0.0
Tb2552 Tb 0.76331 0.7716 0.2663 0.0
Tb2553 Tb 0.79657 0.76976 0.27218 0.0
C2554 C 0.73544 0.76752 0.26657 0.0
C2555 C 0.724 0.76915 0.27728 0.0
C2556 C 0.72484 0.7639 0.29269 0.0
C2557 C 0.71293 0.76407 0.30166 0.0
C2558 C 0.69993 0.76947 0.2954 0.0
C2559 C 0.69937 0.77504 0.28013 0.0
C2560 C 0.71125 0.77489 0.27123 0.0
C2561 C 0.78194 0.79667 0.26091 0.0
C2562 C 0.78238 0.78088 0.30245 0.0
C2563 C 0.82435 0.7728 0.27176 0.0
C2564 C 0.83572 0.77378 0.26058 0.0
C2565 C 0.84565 0.7883 0.26102 0.0
C2566 C 0.85773 0.78911 0.25231 0.0
C2567 C 0.86028 0.77538 0.24301 0.0
C2568 C 0.85002 0.76094 0.24212 0.0
C2569 C 0.8379 0.76013 0.25083 0.0
C2570 C 0.77782 0.74487 0.27765 0.0
C2571 C 0.77762 0.76099 0.23616 0.0
O2572 O 0.74346 0.75649 0.26881 0.0
O2573 O 0.74334 0.78066 0.26325 0.0
O2574 O 0.78397 0.78831 0.27214 0.0
O2575 O 0.76854 0.7918 0.25277 0.0
O2576 O 0.76907 0.77687 0.29304 0.0
O2577 O 0.79506 0.78046 0.29659 0.0
O2578 O 0.81744 0.78487 0.27367 0.0
O2579 O 0.81542 0.75904 0.27137 0.0
O2580 O 0.77594 0.75311 0.2663 0.0
O2581 O 0.79112 0.74984 0.28598 0.0
O2582 O 0.79089 0.76637 0.24538 0.0
O2583 O 0.76498 0.75998 0.24234 0.0
H2584 H 0.73457 0.7594 0.29767 0.0
H2585 H 0.71388 0.7599 0.31346 0.0
H2586 H 0.68951 0.77904 0.27473 0.0
H2587 H 0.71028 0.77886 0.25931 0.0
H2588 H 0.84433 0.799 0.2685 0.0
H2589 H 0.86521 0.8005 0.25306 0.0
H2590 H 0.85168 0.75009 0.23519 0.0
H2591 H 0.83054 0.7487 0.2503 0.0
Tb2592 Tb 0.78474 0.26411 0.75276 0.0
Tb2593 Tb 0.78197 0.27577 0.78799 0.0
C2594 C 0.78336 0.25879 0.72245 0.0
C2595 C 0.79324 0.26354 0.71084 0.0
C2596 C 0.80385 0.27784 0.71426 0.0
C2597 C 0.81294 0.28227 0.70275 0.0
C2598 C 0.81163 0.27233 0.68784 0.0
C2599 C 0.80142 0.25771 0.68483 0.0
C2600 C 0.79229 0.25336 0.69627 0.0
C2601 C 0.80692 0.26086 0.77517 0.0
C2602 C 0.79696 0.30149 0.76697 0.0
C2603 C 0.78699 0.28178 0.81831 0.0
C2604 C 0.77803 0.27826 0.8312 0.0
C2605 C 0.78359 0.27009 0.84351 0.0
C2606 C 0.7751 0.26605 0.85559 0.0
C2607 C 0.76094 0.27021 0.85556 0.0
C2608 C 0.75538 0.27851 0.84332 0.0
C2609 C 0.76383 0.28241 0.8311 0.0
C2610 C 0.75613 0.27478 0.76856 0.0
C2611 C 0.76837 0.23928 0.7728 0.0
O2612 O 0.7776 0.27009 0.72977 0.0
O2613 O 0.78831 0.24952 0.73242 0.0
O2614 O 0.80004 0.27234 0.77511 0.0
O2615 O 0.80222 0.25135 0.76161 0.0
O2616 O 0.79461 0.28996 0.75421 0.0
O2617 O 0.79343 0.29835 0.78137 0.0
O2618 O 0.79062 0.26933 0.81022 0.0
O2619 O 0.78273 0.29193 0.80886 0.0
O2620 O 0.76808 0.27105 0.76513 0.0
O2621 O 0.75847 0.27944 0.78416 0.0
O2622 O 0.77443 0.24947 0.78625 0.0
O2623 O 0.76891 0.24377 0.75813 0.0
H2624 H 0.80492 0.28567 0.72564 0.0
H2625 H 0.82073 0.2936 0.70533 0.0
H2626 H 0.79998 0.24996 0.67331 0.0
H2627 H 0.78426 0.24218 0.69361 0.0
H2628 H 0.79449 0.26677 0.84374 0.0
H2629 H 0.77972 0.25987 0.8651 0.0
H2630 H 0.74448 0.28181 0.84311 0.0
H2631 H 0.7592 0.28859 0.8216 0.0
Tb2632 Tb 0.7693 0.7606 0.764 0.0
Tb2633 Tb 0.79786 0.78223 0.77589 0.0
C2634 C 0.74298 0.74577 0.76224 0.0
C2635 C 0.72941 0.75122 0.76607 0.0
C2636 C 0.73042 0.76404 0.77846 0.0
C2637 C 0.71759 0.76941 0.78198 0.0
C2638 C 0.70348 0.76189 0.77335 0.0
C2639 C 0.70249 0.74916 0.7608 0.0
C2640 C 0.71542 0.74389 0.75715 0.0
C2641 C 0.78263 0.77222 0.7407 0.0
C2642 C 0.7697 0.79877 0.77415 0.0
C2643 C 0.82419 0.79714 0.77812 0.0
C2644 C 0.83864 0.79207 0.77926 0.0
C2645 C 0.8499 0.80011 0.77178 0.0
C2646 C 0.86284 0.79398 0.77036 0.0
C2647 C 0.8647 0.77969 0.77644 0.0
C2648 C 0.85363 0.77201 0.78455 0.0
C2649 C 0.84065 0.77814 0.78591 0.0
C2650 C 0.78447 0.77048 0.7992 0.0
C2651 C 0.79758 0.74401 0.76545 0.0
O2652 O 0.75342 0.74659 0.77479 0.0
O2653 O 0.74833 0.75116 0.74973 0.0
O2654 O 0.78193 0.77962 0.75443 0.0
O2655 O 0.77514 0.75772 0.73942 0.0
O2656 O 0.76194 0.78378 0.77168 0.0
O2657 O 0.78446 0.80119 0.7748 0.0
O2658 O 0.81539 0.79192 0.76418 0.0
O2659 O 0.81713 0.79576 0.79069 0.0
O2660 O 0.78525 0.7632 0.78546 0.0
O2661 O 0.79201 0.78494 0.80052 0.0
O2662 O 0.80545 0.7589 0.76972 0.0
O2663 O 0.78271 0.74157 0.76303 0.0
H2664 H 0.7411 0.76987 0.78555 0.0
H2665 H 0.71872 0.77942 0.79152 0.0
H2666 H 0.69173 0.74305 0.75406 0.0
H2667 H 0.71449 0.73404 0.74749 0.0
H2668 H 0.84838 0.81074 0.76638 0.0
H2669 H 0.87103 0.80001 0.76377 0.0
H2670 H 0.85482 0.76105 0.78945 0.0
H2671 H 0.83197 0.77169 0.79163 0.0
Tb2672 Tb 0.51708 0.51412 0.51482 0.0
Tb2673 Tb 0.54925 0.52738 0.52692 0.0
C2674 C 0.48986 0.50147 0.5104 0.0
C2675 C 0.47655 0.50679 0.50319 0.0
C2676 C 0.47799 0.52179 0.49786 0.0
C2677 C 0.4653 0.52785 0.49284 0.0
C2678 C 0.45094 0.51887 0.49286 0.0
C2679 C 0.44959 0.5034 0.4973 0.0
C2680 C 0.46235 0.49743 0.50254 0.0
C2681 C 0.53389 0.51671 0.49186 0.0
C2682 C 0.52803 0.54992 0.51242 0.0
C2683 C 0.57664 0.53878 0.53195 0.0
C2684 C 0.58875 0.53212 0.5402 0.0
C2685 C 0.60195 0.53222 0.53347 0.0
C2686 C 0.61195 0.52262 0.5387 0.0
C2687 C 0.60882 0.5128 0.55072 0.0
C2688 C 0.59608 0.51359 0.5582 0.0
C2689 C 0.58607 0.52309 0.55291 0.0
C2690 C 0.53216 0.52477 0.54978 0.0
C2691 C 0.53848 0.4916 0.5293 0.0
O2692 O 0.49685 0.51018 0.52406 0.0
O2693 O 0.49902 0.49828 0.50026 0.0
O2694 O 0.5375 0.51226 0.50551 0.0
O2695 O 0.52021 0.51895 0.49038 0.0
O2696 O 0.51614 0.53908 0.51338 0.0
O2697 O 0.54179 0.54713 0.51572 0.0
O2698 O 0.56979 0.53016 0.5182 0.0
O2699 O 0.56729 0.54357 0.54115 0.0
O2700 O 0.52881 0.52927 0.53614 0.0
O2701 O 0.54581 0.52245 0.55137 0.0
O2702 O 0.55035 0.50256 0.52873 0.0
O2703 O 0.52472 0.49426 0.52567 0.0
H2704 H 0.48893 0.52908 0.49819 0.0
H2705 H 0.46681 0.53991 0.48981 0.0
H2706 H 0.43867 0.49613 0.49723 0.0
H2707 H 0.46114 0.48576 0.50654 0.0
H2708 H 0.60404 0.53889 0.52346 0.0
H2709 H 0.62157 0.52208 0.53252 0.0
H2710 H 0.59348 0.50627 0.5676 0.0
H2711 H 0.57583 0.52263 0.55814 0.0
Tb2712 Tb 0.04821 0.52274 0.01564 0.0
Tb2713 Tb 0.01776 0.51733 0.02289 0.0
C2714 C 0.07552 0.5226 0.01397 0.0
C2715 C 0.08675 0.5121 0.01544 0.0
C2716 C 0.09014 0.50527 0.02972 0.0
C2717 C 0.10196 0.49685 0.03134 0.0
C2718 C 0.11065 0.49506 0.01875 0.0
C2719 C 0.10694 0.50158 1.00435 0.0
C2720 C 0.09516 0.50999 1.00274 0.0
C2721 C 0.02813 0.52783 0.99124 0.0
C2722 C 0.02957 0.48733 0.01094 0.0
C2723 C 0.99044 0.51699 0.02486 0.0
C2724 C 0.97895 0.5271 0.02385 0.0
C2725 C 0.97944 0.53954 0.01421 0.0
C2726 C 0.96769 0.54809 0.01275 0.0
C2727 C 0.95527 0.54436 0.02092 0.0
C2728 C 0.95504 0.53202 0.03071 0.0
C2729 C 0.96674 0.52354 0.03216 0.0
C2730 C 0.03797 0.51228 0.04725 0.0
C2731 C 0.03631 0.55274 0.02745 0.0
O2732 O 0.07054 0.52756 0.02725 0.0
O2733 O 0.06491 0.51896 1.00132 0.0
O2734 O 0.02644 0.51677 1.00013 0.0
O2735 O 0.04162 0.536 0.99569 0.0
O2736 O 0.04294 0.49669 0.0144 0.0
O2737 O 0.01731 0.49321 0.01172 0.0
O2738 O 0.99541 0.51275 0.01136 0.0
O2739 O 1.00113 0.52064 0.03742 0.0
O2740 O 0.03951 0.52335 0.03837 0.0
O2741 O 0.02453 0.50401 0.04278 0.0
O2742 O 0.02295 0.54337 0.02403 0.0
O2743 O 0.0486 0.54687 0.02674 0.0
H2744 H 0.08387 0.50667 0.03975 0.0
H2745 H 0.10433 0.4918 0.04251 0.0
H2746 H 0.11345 0.50068 0.99447 0.0
H2747 H 0.09287 0.51524 0.99168 0.0
H2748 H 0.98879 0.5425 0.00769 0.0
H2749 H 0.96834 0.55763 1.00525 0.0
H2750 H 0.9456 0.52857 0.03695 0.0
H2751 H 0.9661 0.51392 0.03957 0.0
H2752 H 0.03721 0.18318 0.95639 0.0
H2753 H 0.03821 0.15875 0.96859 0.0
H2754 H 0.98996 0.14702 0.96093 0.0
H2755 H 0.98877 0.17162 0.94908 0.0
H2756 H 0.0259 0.14913 0.99606 0.0
H2757 H 1.00192 0.10628 0.93991 0.0
H2758 H 0.00876 0.12722 0.93937 0.0
H2759 H 0.99076 0.12078 0.94522 0.0
C2760 C 0.02677 0.17554 0.95742 0.0
C2761 C 0.0129 0.17948 0.95167 0.0
C2762 C 0.02738 0.16149 0.96431 0.0
C2763 C 0.01417 0.15094 0.96545 0.0
C2764 C 1.00031 0.15482 0.95986 0.0
H2765 H 0.99901 0.05773 0.99992 0.0
H2766 H 0.9957 0.08268 0.98954 0.0
C2767 C 0.99967 0.16891 0.95305 0.0
C2768 C 0.01494 0.13606 0.97281 0.0
H2769 H 1.00645 0.09533 0.96442 0.0
C2770 C 0.02165 0.13736 0.98916 0.0
C2771 C 0.00931 0.12072 0.96381 0.0
C2772 C 1.00239 0.11858 0.94606 0.0
C2773 C 0.02279 0.12375 0.99679 0.0
C2774 C 0.0174 0.10838 0.98771 0.0
C2775 C 0.01054 0.10709 0.9714 0.0
C2776 C 0.01927 0.0935 0.99467 0.0
C2777 C 0.02954 0.12602 0.01461 0.0
C2778 C 0.0336 0.09121 1.00091 0.0
C2779 C 0.03549 0.07707 0.00702 0.0
C2780 C 0.02312 0.06475 0.00678 0.0
C2781 C 0.00876 0.06701 1.00045 0.0
C2782 C 1.00686 0.08125 0.99444 0.0
H2783 H 0.02845 0.13777 0.02096 0.0
H2784 H 0.02416 0.11645 0.02102 0.0
H2785 H 0.04167 0.12571 0.0156 0.0
H2786 H 0.04341 0.10024 1.00078 0.0
H2787 H 0.04675 0.07572 0.0116 0.0
H2788 H 0.13262 0.81077 0.18957 0.0
H2789 H 0.15778 0.80927 0.20261 0.0
H2790 H 0.15029 0.75923 0.18355 0.0
H2791 H 0.12538 0.76073 0.17001 0.0
H2792 H 0.16593 0.79071 0.22596 0.0
H2793 H 0.1906 0.7756 0.17025 0.0
H2794 H 0.17324 0.7829 0.16954 0.0
H2795 H 0.17353 0.76233 0.17164 0.0
C2796 C 0.13638 0.79949 0.18794 0.0
C2797 C 0.12689 0.78589 0.17867 0.0
C2798 C 0.15076 0.79863 0.19549 0.0
C2799 C 0.15607 0.7842 0.19388 0.0
C2800 C 0.14661 0.77058 0.18473 0.0
H2801 H 0.23956 0.75696 0.23587 0.0
H2802 H 0.21484 0.75702 0.22025 0.0
C2803 C 0.13224 0.77142 0.17717 0.0
C2804 C 0.17126 0.78329 0.20225 0.0
H2805 H 0.2052 0.77449 0.19565 0.0
C2806 C 0.17452 0.78722 0.21931 0.0
C2807 C 0.18247 0.7786 0.19361 0.0
C2808 C 0.17988 0.77475 0.17524 0.0
C2809 C 0.18858 0.78651 0.22797 0.0
C2810 C 0.19987 0.78205 0.21932 0.0
C2811 C 0.19657 0.77791 0.20228 0.0
C2812 C 0.21526 0.78211 0.22778 0.0
C2813 C 0.1911 0.79028 0.24636 0.0
C2814 C 0.22395 0.79627 0.23672 0.0
C2815 C 0.23799 0.79625 0.24561 0.0
C2816 C 0.24374 0.78209 0.24566 0.0
C2817 C 0.2354 0.76805 0.23608 0.0
C2818 C 0.22127 0.76807 0.22719 0.0
H2819 H 0.18035 0.78889 0.25131 0.0
H2820 H 0.19811 0.78243 0.25205 0.0
H2821 H 0.19699 0.80286 0.25001 0.0
H2822 H 0.21977 0.80734 0.23704 0.0
H2823 H 0.2442 0.80729 0.25275 0.0
H2824 H 0.52454 0.83499 0.4803 0.0
H2825 H 0.52439 0.86231 0.49198 0.0
H2826 H 0.51827 0.87574 0.44361 0.0
H2827 H 0.51697 0.84826 0.43176 0.0
H2828 H 0.54199 0.88903 0.49199 0.0
H2829 H 0.4864 0.89467 0.46123 0.0
H2830 H 0.49255 0.87578 0.46043 0.0
H2831 H 0.49802 0.88959 0.44655 0.0
C2832 C 0.52279 0.84361 0.47207 0.0
C2833 C 0.52066 0.83918 0.455 0.0
C2834 C 0.52288 0.85934 0.47881 0.0
C2835 C 0.52098 0.8711 0.4687 0.0
C2836 C 0.51927 0.86685 0.45171 0.0
H2837 H 0.54948 0.97299 0.49938 0.0
H2838 H 0.5474 0.94469 0.4897 0.0
C2839 C 0.51887 0.85108 0.44494 0.0
C2840 C 0.5213 0.88789 0.47592 0.0
H2841 H 0.50298 0.91918 0.4732 0.0
C2842 C 0.53336 0.89555 0.48799 0.0
C2843 C 0.50991 0.8964 0.471 0.0
C2844 C 0.49592 0.88861 0.45923 0.0
C2845 C 0.53456 0.91151 0.49494 0.0
C2846 C 0.52371 0.92032 0.4892 0.0
C2847 C 0.51144 0.91255 0.47745 0.0
C2848 C 0.52492 0.93762 0.49508 0.0
C2849 C 0.54731 0.91858 0.50859 0.0
C2850 C 0.51275 0.94331 0.50069 0.0
C2851 C 0.51377 0.95963 0.50585 0.0
C2852 C 0.52704 0.97055 0.50564 0.0
C2853 C 0.53918 0.96486 0.49996 0.0
C2854 C 0.53805 0.94862 0.49453 0.0
H2855 H 0.55117 0.90916 0.51524 0.0
H2856 H 0.55694 0.9246 0.50337 0.0
H2857 H 0.54404 0.92746 0.51751 0.0
H2858 H 0.50244 0.93512 0.50112 0.0
H2859 H 0.50419 0.96365 0.51009 0.0
H2860 H 0.47078 0.28751 0.65778 0.0
H2861 H 0.44834 0.28618 0.67077 0.0
H2862 H 0.472 0.2728 0.71369 0.0
H2863 H 0.49477 0.27504 0.70123 0.0
H2864 H 0.43172 0.26152 0.68115 0.0
H2865 H 0.45454 0.30854 0.73408 0.0
H2866 H 0.4643 0.3056 0.71689 0.0
H2867 H 0.46515 0.29287 0.73259 0.0
C2868 C 0.47137 0.28461 0.67012 0.0
C2869 C 0.48475 0.28156 0.67847 0.0
C2870 C 0.45843 0.28369 0.67748 0.0
C2871 C 0.4585 0.27967 0.69335 0.0
C2872 C 0.47172 0.27632 0.70161 0.0
H2873 H 0.39012 0.26817 0.75701 0.0
H2874 H 0.41276 0.26804 0.74443 0.0
C2875 C 0.48472 0.27737 0.69433 0.0
C2876 C 0.44463 0.27864 0.70103 0.0
H2877 H 0.43052 0.29308 0.73445 0.0
C2878 C 0.43146 0.26847 0.69278 0.0
C2879 C 0.44425 0.28767 0.71624 0.0
C2880 C 0.45777 0.2994 0.7254 0.0
C2881 C 0.41801 0.26694 0.69937 0.0
C2882 C 0.41763 0.276 0.71455 0.0
C2883 C 0.43082 0.28609 0.72285 0.0
C2884 C 0.40362 0.27544 0.72188 0.0
C2885 C 0.40441 0.25539 0.69013 0.0
C2886 C 0.39093 0.27968 0.71344 0.0
C2887 C 0.3779 0.27956 0.7205 0.0
C2888 C 0.37729 0.27541 0.7363 0.0
C2889 C 0.39005 0.27116 0.74473 0.0
C2890 C 0.40307 0.27122 0.73761 0.0
H2891 H 0.40758 0.24616 0.6815 0.0
H2892 H 0.39773 0.24932 0.6986 0.0
H2893 H 0.39721 0.26205 0.68289 0.0
H2894 H 0.39116 0.28331 0.70144 0.0
H2895 H 0.3683 0.28278 0.71357 0.0
H2896 H 0.02735 0.81136 0.60164 0.0
H2897 H 0.02897 0.83398 0.5862 0.0
H2898 H 0.06416 0.86126 0.62339 0.0
H2899 H 0.06253 0.83872 0.63903 0.0
H2900 H 0.02468 0.86466 0.59755 0.0
H2901 H 0.08129 0.86504 0.58028 0.0
H2902 H 0.07084 0.84813 0.58754 0.0
H2903 H 0.08039 0.86533 0.60171 0.0
C2904 C 0.03537 0.82221 0.60656 0.0
C2905 C 0.0448 0.82337 0.62152 0.0
C2906 C 0.03635 0.83502 0.5977 0.0
C2907 C 0.04681 0.84908 0.60364 0.0
C2908 C 0.05624 0.85032 0.61854 0.0
H2909 H 0.04232 0.94014 0.5705 0.0
H2910 H 0.04474 0.91892 0.58731 0.0
C2911 C 0.05528 0.83749 0.62743 0.0
C2912 C 0.0473 0.86271 0.59453 0.0
H2913 H 0.06948 0.88651 0.57378 0.0
C2914 C 0.03445 0.86947 0.59233 0.0
C2915 C 0.06007 0.86873 0.58772 0.0
C2916 C 0.07391 0.86137 0.58928 0.0
C2917 C 0.03401 0.88222 0.5834 0.0
C2918 C 0.04688 0.88846 0.57687 0.0
C2919 C 0.05973 0.88169 0.57903 0.0
C2920 C 0.04696 0.90165 0.5672 0.0
C2921 C 0.0197 0.88868 0.58072 0.0
C2922 C 0.04802 0.89897 0.55055 0.0
C2923 C 0.04688 0.91109 0.54099 0.0
C2924 C 0.04465 0.926 0.54799 0.0
C2925 C 0.04415 0.9288 0.56483 0.0
C2926 C 0.04538 0.91669 0.57439 0.0
H2927 H 0.00994 0.88026 0.58337 0.0
H2928 H 0.02094 0.90007 0.58897 0.0
H2929 H 0.01727 0.89113 0.56794 0.0
H2930 H 0.04932 0.88738 0.54491 0.0
H2931 H 0.04752 0.90874 0.52808 0.0
H2932 H 0.45194 0.76981 0.79839 0.0
H2933 H 0.42673 0.77159 0.78526 0.0
H2934 H 0.41563 0.78765 0.83227 0.0
H2935 H 0.44061 0.78592 0.84539 0.0
H2936 H 0.39836 0.7546 0.79641 0.0
H2937 H 0.40468 0.8206 0.80014 0.0
H2938 H 0.42039 0.81045 0.79991 0.0
H2939 H 0.41224 0.81326 0.8182 0.0
C2940 C 0.4441 0.7738 0.80583 0.0
C2941 C 0.44805 0.77759 0.82285 0.0
C2942 C 0.42981 0.77482 0.79837 0.0
C2943 C 0.41956 0.77992 0.80787 0.0
C2944 C 0.42355 0.78387 0.82481 0.0
H2945 H 0.32964 0.79159 0.80548 0.0
H2946 H 0.35674 0.79296 0.81068 0.0
C2947 C 0.43771 0.78272 0.83226 0.0
C2948 C 0.40426 0.78026 0.80043 0.0
H2949 H 0.37977 0.8055 0.79477 0.0
C2950 C 0.39427 0.76567 0.7957 0.0
C2951 C 0.39914 0.7948 0.79983 0.0
C2952 C 0.40967 0.8107 0.80467 0.0
C2953 C 0.37897 0.76522 0.79109 0.0
C2954 C 0.37376 0.7798 0.7908 0.0
C2955 C 0.38388 0.79439 0.795 0.0
C2956 C 0.35771 0.78009 0.78706 0.0
C2957 C 0.36845 0.7492 0.78744 0.0
C2958 C 0.3495 0.77279 0.77193 0.0
C2959 C 0.33406 0.77181 0.76903 0.0
C2960 C 0.32669 0.77836 0.78113 0.0
C2961 C 0.33505 0.78639 0.79598 0.0
C2962 C 0.35049 0.7872 0.79895 0.0
H2963 H 0.37378 0.73955 0.79205 0.0
H2964 H 0.35812 0.7496 0.79298 0.0
H2965 H 0.36514 0.74601 0.77402 0.0
H2966 H 0.35499 0.7676 0.7625 0.0
H2967 H 0.32789 0.76579 0.75736 0.0
H2968 H 0.53775 0.16433 0.12179 0.0
H2969 H 0.54081 0.14157 0.10311 0.0
H2970 H 0.5485 0.17205 0.06611 0.0
H2971 H 0.54623 0.19515 0.08506 0.0
H2972 H 0.52279 0.13066 0.0734 0.0
H2973 H 0.58277 0.14695 0.06609 0.0
H2974 H 0.57501 0.15658 0.08249 0.0
H2975 H 0.57155 0.16175 0.06225 0.0
C2976 C 0.54043 0.16628 0.10981 0.0
C2977 C 0.54181 0.18152 0.10489 0.0
C2978 C 0.54207 0.15326 0.09914 0.0
C2979 C 0.54504 0.15525 0.08337 0.0
C2980 C 0.54648 0.17041 0.07837 0.0
H2981 H 0.53583 0.07703 1.00457 0.0
H2982 H 0.54 0.10431 0.01913 0.0
C2983 C 0.54496 0.18351 0.08911 0.0
C2984 C 0.5456 0.14114 0.07191 0.0
H2985 H 0.56871 0.12311 0.05029 0.0
C2986 C 0.53279 0.12904 0.06826 0.0
C2987 C 0.55871 0.13918 0.06531 0.0
C2988 C 0.57285 0.15173 0.0693 0.0
C2989 C 0.53281 0.11481 0.05836 0.0
C2990 C 0.54595 0.11277 0.05196 0.0
C2991 C 0.55868 0.12494 0.05525 0.0
C2992 C 0.54673 0.09747 0.04276 0.0
C2993 C 0.51895 0.10184 0.05513 0.0
C2994 C 0.54965 0.08497 0.05132 0.0
C2995 C 0.54717 0.06949 0.04314 0.0
C2996 C 0.5418 0.06641 0.02631 0.0
C2997 C 0.53998 0.07916 0.01755 0.0
C2998 C 0.54239 0.09468 0.02579 0.0
H2999 H 0.50927 0.10588 0.0599 0.0
H3000 H 0.51579 0.09776 0.04181 0.0
H3001 H 0.52132 0.0914 0.06106 0.0
H3002 H 0.55289 0.08704 0.06448 0.0
H3003 H 0.54857 0.05984 0.05018 0.0
H3004 H 0.07917 0.29729 0.30631 0.0
H3005 H 0.09996 0.29378 0.29149 0.0
H3006 H 0.13038 0.30282 0.33702 0.0
H3007 H 0.10964 0.30611 0.35199 0.0
H3008 H 0.14131 0.31678 0.30817 0.0
H3009 H 0.11694 0.25161 0.29802 0.0
H3010 H 0.10458 0.26482 0.2921 0.0
H3011 H 0.11177 0.26541 0.31328 0.0
C3012 C 0.09034 0.29878 0.31313 0.0
C3013 C 0.09282 0.30177 0.33029 0.0
C3014 C 0.10215 0.29685 0.30466 0.0
C3015 C 0.11654 0.29791 0.31326 0.0
C3016 C 0.11928 0.30202 0.33027 0.0
H3017 H 0.19053 0.25551 0.29592 0.0
H3018 H 0.16968 0.26582 0.30573 0.0
C3019 C 0.10746 0.30393 0.33877 0.0
C3020 C 0.12833 0.2929 0.30479 0.0
H3021 H 0.13919 0.25969 0.28758 0.0
C3022 C 0.14085 0.30435 0.30348 0.0
C3023 C 0.12761 0.27662 0.29898 0.0
C3024 C 0.11458 0.26383 0.30072 0.0
C3025 C 0.15286 0.29985 0.29655 0.0
C3026 C 0.15213 0.28357 0.29079 0.0
C3027 C 0.13953 0.27218 0.29192 0.0
C3028 C 0.16483 0.27783 0.28476 0.0
C3029 C 0.16646 0.31234 0.29592 0.0
C3030 C 0.16881 0.28116 0.26969 0.0
C3031 C 0.18061 0.2751 0.26392 0.0
C3032 C 0.18849 0.26563 0.27318 0.0
C3033 C 0.18445 0.26245 0.28834 0.0
C3034 C 0.17267 0.26845 0.29404 0.0
H3035 H 0.16605 0.32407 0.30284 0.0
H3036 H 0.17682 0.30839 0.30096 0.0
H3037 H 0.16717 0.31398 0.28301 0.0
H3038 H 0.16268 0.28826 0.26234 0.0
H3039 H 0.18345 0.27766 0.25216 0.0
H3040 H 0.96121 0.03773 0.17517 0.0
H3041 H 0.97186 0.04046 0.15006 0.0
H3042 H 0.9755 0.99082 0.14507 0.0
H3043 H 0.9655 0.98803 0.17061 0.0
H3044 H 1.00249 0.02895 0.14401 0.0
H3045 H 0.95053 1.0021 0.10021 0.0
H3046 H 0.94985 0.01195 0.12038 0.0
H3047 H 0.95517 0.99279 0.11806 0.0
C3048 C 0.96446 0.0274 0.16893 0.0
C3049 C 0.96255 0.01265 0.17507 0.0
C3050 C 0.97041 0.02898 0.15449 0.0
C3051 C 0.97436 0.01583 0.14575 0.0
C3052 C 0.97239 1.00107 0.15165 0.0
H3053 H 1.00612 1.00206 0.05262 0.0
H3054 H 0.99424 0.99901 0.07697 0.0
C3055 C 0.96658 0.9995 0.1662 0.0
C3056 C 0.98087 0.01766 0.13063 0.0
H3057 H 0.97237 0.01058 0.08907 0.0
C3058 C 0.99595 0.02497 0.13197 0.0
C3059 C 0.97228 0.01229 0.11505 0.0
C3060 C 0.95602 1.00437 0.11317 0.0
C3061 C 1.00277 0.02694 0.11803 0.0
C3062 C 0.99408 0.02194 0.10234 0.0
C3063 C 0.97899 0.01452 0.10107 0.0
C3064 C 1.00052 0.02404 0.08711 0.0
C3065 C 0.01931 0.03393 0.12032 0.0
C3066 C 0.00757 0.0392 0.08441 0.0
C3067 C 0.01452 0.04093 0.0706 0.0
C3068 C 0.01427 0.02758 0.05909 0.0
C3069 C 1.0065 0.01256 0.06132 0.0
C3070 C 0.99973 0.0108 0.07524 0.0
H3071 H 0.02507 0.0325 0.13249 0.0
H3072 H 0.02483 0.02823 0.11078 0.0
H3073 H 0.02083 0.04692 0.1195 0.0
H3074 H 0.0079 0.04968 0.09311 0.0
H3075 H 0.02034 0.05265 0.06908 0.0
H3076 H 0.29596 0.68239 0.45735 0.0
H3077 H 0.28154 0.68602 0.43167 0.0
H3078 H 0.28616 0.73621 0.44891 0.0
H3079 H 0.30088 0.7328 0.4746 0.0
H3080 H 0.25341 0.71061 0.43321 0.0
H3081 H 0.30185 0.71977 0.39885 0.0
H3082 H 0.30095 0.70579 0.4135 0.0
H3083 H 0.30414 0.72679 0.42044 0.0
C3084 C 0.29419 0.69427 0.45553 0.0
C3085 C 0.29965 0.70739 0.46782 0.0
C3086 C 0.28579 0.69623 0.44102 0.0
C3087 C 0.28279 0.7113 0.4387 0.0
C3088 C 0.28836 0.72448 0.45075 0.0
H3089 H 0.24872 0.76322 0.3728 0.0
H3090 H 0.25014 0.74842 0.39588 0.0
C3091 C 0.29677 0.72254 0.46529 0.0
C3092 C 0.27416 0.7134 0.4234 0.0
H3093 H 0.27838 0.72238 0.38547 0.0
C3094 C 0.25873 0.71297 0.42264 0.0
C3095 C 0.28133 0.71641 0.40985 0.0
C3096 C 0.29799 0.71725 0.41054 0.0
C3097 C 0.25026 0.71605 0.40852 0.0
C3098 C 0.25752 0.71952 0.39513 0.0
C3099 C 0.27286 0.71936 0.39576 0.0
C3100 C 0.2503 0.72594 0.38134 0.0
C3101 C 0.23379 0.71604 0.40807 0.0
C3102 C 0.24896 0.71783 0.36552 0.0
C3103 C 0.24793 0.72622 0.35221 0.0
C3104 C 0.24865 0.74283 0.35473 0.0
C3105 C 0.24808 0.75043 0.37042 0.0
C3106 C 0.24886 0.74198 0.38366 0.0
H3107 H 0.22925 0.71 0.41796 0.0
H3108 H 0.23202 0.72857 0.40962 0.0
H3109 H 0.2274 0.71003 0.39608 0.0
H3110 H 0.25016 0.70544 0.36363 0.0
H3111 H 0.24803 0.72002 0.34016 0.0
H3112 H 0.59416 0.98255 0.6908 0.0
H3113 H 0.58143 0.98457 0.6636 0.0
H3114 H 0.61176 0.0287 0.66292 0.0
H3115 H 0.62488 0.0265 0.68977 0.0
H3116 H 0.56595 1.00573 0.65179 0.0
H3117 H 0.61457 1.00686 0.61882 0.0
H3118 H 0.61515 1.00187 0.6393 0.0
H3119 H 0.61768 0.02243 0.63585 0.0
C3120 C 0.59836 0.99261 0.68487 0.0
C3121 C 0.6108 1.00429 0.69289 0.0
C3122 C 0.59091 0.99382 0.66918 0.0
C3123 C 0.59562 1.00666 0.66068 0.0
C3124 C 0.60792 0.01841 0.66871 0.0
H3125 H 0.5627 0.03348 0.56368 0.0
H3126 H 0.57672 0.03242 0.59078 0.0
C3127 C 0.61536 0.01723 0.6844 0.0
C3128 C 0.58747 1.00793 0.64379 0.0
H3129 H 0.59251 0.01251 0.60423 0.0
C3130 C 0.57183 1.00713 0.64143 0.0
C3131 C 0.59488 0.0099 0.62996 0.0
C3132 C 0.61146 0.01017 0.63101 0.0
C3133 C 0.56361 0.00848 0.62612 0.0
C3134 C 0.57098 0.01026 0.61223 0.0
C3135 C 0.58664 0.01117 0.61461 0.0
C3136 C 0.56262 0.01083 0.59523 0.0
C3137 C 0.54706 0.00847 0.62521 0.0
C3138 C 0.55013 0.99893 0.58806 0.0
C3139 C 0.54208 0.99959 0.57259 0.0
C3140 C 0.54624 0.01205 0.56344 0.0
C3141 C 0.55903 0.02372 0.57028 0.0
C3142 C 0.5671 0.0231 0.58588 0.0
H3143 H 0.54422 0.01248 0.63736 0.0
H3144 H 0.54329 0.01635 0.61649 0.0
H3145 H 0.54071 0.99612 0.62111 0.0
H3146 H 0.54655 0.98897 0.59441 0.0
H3147 H 0.53244 0.99024 0.56779 0.0
H3148 H 0.27862 0.31803 0.95585 0.0
H3149 H 0.27832 0.3057 0.92782 0.0
H3150 H 0.30001 0.35081 0.91616 0.0
H3151 H 0.3005 0.36319 0.94411 0.0
H3152 H 0.27571 0.33639 0.89331 0.0
H3153 H 0.31323 0.29362 0.9065 0.0
H3154 H 0.29756 0.29202 0.91747 0.0
H3155 H 0.31165 0.30995 0.92145 0.0
C3156 C 0.2835 0.32529 0.94739 0.0
C3157 C 0.28956 0.34163 0.95227 0.0
C3158 C 0.28333 0.31821 0.93137 0.0
C3159 C 0.28931 0.32729 0.91995 0.0
C3160 C 0.29535 0.34357 0.92477 0.0
H3161 H 0.30956 0.29411 0.82438 0.0
H3162 H 0.31072 0.30487 0.85307 0.0
C3163 C 0.29552 0.35065 0.94075 0.0
C3164 C 0.28886 0.32004 0.90281 0.0
H3165 H 0.30069 0.29091 0.87922 0.0
C3166 C 0.28119 0.32646 0.89023 0.0
C3167 C 0.29619 0.30723 0.89881 0.0
C3168 C 0.30525 0.30037 0.91174 0.0
C3169 C 0.28049 0.32031 0.87376 0.0
C3170 C 0.2874 0.30716 0.86977 0.0
C3171 C 0.29526 0.30087 0.88233 0.0
C3172 C 0.28671 0.29991 0.85261 0.0
C3173 C 0.2726 0.32816 0.86076 0.0
C3174 C 0.27285 0.2932 0.84295 0.0
C3175 C 0.27213 0.28708 0.82655 0.0
C3176 C 0.28528 0.28741 0.8195 0.0
C3177 C 0.2992 0.29367 0.82937 0.0
C3178 C 0.2999 0.29983 0.84579 0.0
H3179 H 0.27146 0.34044 0.86552 0.0
H3180 H 0.2787 0.32877 0.85012 0.0
H3181 H 0.26117 0.32103 0.85643 0.0
H3182 H 0.26255 0.29283 0.84806 0.0
H3183 H 0.26122 0.28227 0.81938 0.0
H3184 H 0.94654 1.0067 0.3459 0.0
H3185 H 0.95802 0.00838 0.37432 0.0
H3186 H 1.00112 0.02739 0.36187 0.0
H3187 H 0.9897 0.02577 0.33332 0.0
H3188 H 1.00251 1.00406 0.38162 0.0
H3189 H 0.97159 0.04871 0.40712 0.0
H3190 H 0.95947 0.03133 0.39544 0.0
H3191 H 0.97188 0.04428 0.3855 0.0
C3192 C 0.95844 0.01143 0.34922 0.0
C3193 C 0.96718 0.01627 0.33736 0.0
C3194 C 0.96498 0.01238 0.36548 0.0
C3195 C 0.98036 0.01832 0.37027 0.0
C3196 C 0.9892 0.02287 0.35844 0.0
H3197 H 0.02241 0.04677 0.47164 0.0
H3198 H 0.01307 0.04613 0.44267 0.0
C3199 C 0.98267 0.02188 0.34213 0.0
C3200 C 0.98725 0.01951 0.38758 0.0
H3201 H 0.98498 0.03569 0.42629 0.0
C3202 C 0.99876 0.01106 0.39139 0.0
C3203 C 0.98247 0.02883 0.40028 0.0
C3204 C 0.97078 0.03893 0.3969 0.0
C3205 C 1.00541 0.01139 0.40761 0.0
C3206 C 1.00017 0.02014 0.42036 0.0
C3207 C 0.98889 0.02887 0.41651 0.0
C3208 C 1.00618 0.0204 0.43779 0.0
C3209 C 0.0181 1.00251 0.4109 0.0
C3210 C 1.00526 1.00616 0.4447 0.0
C3211 C 0.01066 1.00647 0.46121 0.0
C3212 C 0.01693 0.02107 0.47119 0.0
C3213 C 0.0177 0.03533 0.46428 0.0
C3214 C 0.01235 0.03499 0.44774 0.0
H3215 H 0.02364 1.00058 0.39996 0.0
H3216 H 0.02666 0.00907 0.42122 0.0
H3217 H 0.01359 0.99062 0.41413 0.0
H3218 H 1.00019 0.99481 0.43736 0.0
H3219 H 0.00979 0.99527 0.46615 0.0
H3220 H 0.34302 0.73278 0.6297 0.0
H3221 H 0.33937 0.74994 0.65395 0.0
H3222 H 0.29155 0.73876 0.63815 0.0
H3223 H 0.29511 0.72186 0.61391 0.0
H3224 H 0.30526 0.77271 0.65096 0.0
H3225 H 0.31918 0.72731 0.69043 0.0
H3226 H 0.33223 0.73404 0.67717 0.0
H3227 H 0.31411 0.72248 0.66854 0.0
C3228 C 0.33179 0.73422 0.63136 0.0
C3229 C 0.31931 0.72589 0.62023 0.0
C3230 C 0.32973 0.74394 0.64513 0.0
C3231 C 0.31521 0.74541 0.64772 0.0
C3232 C 0.30282 0.73768 0.63624 0.0
H3233 H 0.26863 0.76276 0.72595 0.0
H3234 H 0.27786 0.75454 0.70069 0.0
C3235 C 0.30485 0.72796 0.62256 0.0
C3236 C 0.31262 0.75389 0.66299 0.0
H3237 H 0.3104 0.74917 0.70263 0.0
C3238 C 0.30663 0.76781 0.66237 0.0
C3239 C 0.31425 0.74714 0.67764 0.0
C3240 C 0.32021 0.73187 0.6786 0.0
C3241 C 0.30183 0.77501 0.67612 0.0
C3242 C 0.30314 0.76804 0.69062 0.0
C3243 C 0.30953 0.7544 0.69138 0.0
C3244 C 0.29698 0.77401 0.70488 0.0
C3245 C 0.29477 0.78955 0.67495 0.0
C3246 C 0.30467 0.78776 0.71525 0.0
C3247 C 0.29949 0.79241 0.72969 0.0
C3248 C 0.28664 0.78327 0.7338 0.0
C3249 C 0.27862 0.76991 0.72301 0.0
C3250 C 0.28384 0.76522 0.70866 0.0
H3251 H 0.29367 0.79285 0.66241 0.0
H3252 H 0.28349 0.78733 0.67869 0.0
H3253 H 0.30171 0.79982 0.68347 0.0
H3254 H 0.3149 0.79453 0.71243 0.0
H3255 H 0.30584 0.80274 0.7379 0.0
H3256 H 0.59361 1.00212 0.84718 0.0
H3257 H 0.58163 1.0052 0.87149 0.0
H3258 H 0.62486 0.01613 0.90175 0.0
H3259 H 0.637 0.01419 0.87756 0.0
H3260 H 0.57871 0.9908 0.8966 0.0
H3261 H 0.60931 0.05126 0.92335 0.0
H3262 H 0.61093 0.04254 0.90311 0.0
H3263 H 0.62184 0.03762 0.92081 0.0
C3264 C 0.60077 1.00554 0.85888 0.0
C3265 C 0.61658 1.008 0.85979 0.0
C3266 C 0.59374 1.00715 0.87303 0.0
C3267 C 0.6021 0.01133 0.88892 0.0
C3268 C 0.61785 0.01345 0.88992 0.0
H3269 H 0.57871 0.02371 0.98991 0.0
H3270 H 0.59136 0.02116 0.96576 0.0
C3271 C 0.62489 0.01199 0.87578 0.0
C3272 C 0.59437 0.01299 0.9042 0.0
H3273 H 0.59474 0.03703 0.94046 0.0
C3274 C 0.58225 1.00103 0.90606 0.0
C3275 C 0.59868 0.0262 0.91699 0.0
C3276 C 0.61079 0.0402 0.91592 0.0
C3277 C 0.57476 1.00169 0.92 0.0
C3278 C 0.5791 0.01489 0.93277 0.0
C3279 C 0.59123 0.02682 0.93097 0.0
C3280 C 0.57119 0.01661 0.94788 0.0
C3281 C 0.56249 0.98783 0.92104 0.0
C3282 C 0.55548 0.0153 0.94645 0.0
C3283 C 0.54818 0.01674 0.96036 0.0
C3284 C 0.55621 0.01973 0.97644 0.0
C3285 C 0.57196 0.02136 0.97791 0.0
C3286 C 0.57928 0.0199 0.96395 0.0
H3287 H 0.56377 0.97675 0.91351 0.0
H3288 H 0.56235 0.98544 0.93384 0.0
H3289 H 0.5515 0.99064 0.9163 0.0
H3290 H 0.54875 0.01331 0.93448 0.0
H3291 H 0.5361 0.01549 0.95843 0.0
H3292 H 0.28334 0.32178 0.10081 0.0
H3293 H 0.28188 0.30885 0.12542 0.0
H3294 H 0.30444 0.35294 0.15521 0.0
H3295 H 0.30565 0.36608 0.13072 0.0
H3296 H 0.306 0.30567 0.14953 0.0
H3297 H 0.26661 0.33984 0.1762 0.0
H3298 H 0.26924 0.33928 0.15507 0.0
H3299 H 0.28292 0.35172 0.17084 0.0
C3300 C 0.28785 0.32879 0.1126 0.0
C3301 C 0.29456 0.34502 0.11375 0.0
C3302 C 0.28709 0.32135 0.12665 0.0
C3303 C 0.29288 0.32997 0.14217 0.0
C3304 C 0.29969 0.34611 0.14338 0.0
H3305 H 0.29308 0.30457 0.24091 0.0
H3306 H 0.29676 0.31851 0.21722 0.0
C3307 C 0.30051 0.35356 0.12934 0.0
C3308 C 0.29202 0.32198 0.15705 0.0
H3309 H 0.2768 0.32223 0.19233 0.0
C3310 C 0.29961 0.30926 0.15889 0.0
C3311 C 0.28375 0.32676 0.1693 0.0
C3312 C 0.27505 0.34006 0.16777 0.0
C3313 C 0.2993 0.30131 0.17273 0.0
C3314 C 0.29082 0.30588 0.18488 0.0
C3315 C 0.28332 0.3187 0.18307 0.0
C3316 C 0.28925 0.2973 0.19934 0.0
C3317 C 0.30837 0.28831 0.17431 0.0
C3318 C 0.28376 0.28075 0.19725 0.0
C3319 C 0.28187 0.27275 0.21077 0.0
C3320 C 0.28514 0.28117 0.22667 0.0
C3321 C 0.29059 0.29774 0.2288 0.0
C3322 C 0.29263 0.30573 0.21526 0.0
H3323 H 0.31781 0.28986 0.16718 0.0
H3324 H 0.31298 0.28807 0.18726 0.0
H3325 H 0.30108 0.27656 0.16942 0.0
H3326 H 0.28064 0.27403 0.18512 0.0
H3327 H 0.27747 0.26001 0.20871 0.0
H3328 H 0.18523 0.90246 1.00148 0.0
H3329 H 0.16864 0.92175 1.00381 0.0
H3330 H 0.17443 0.92237 0.05609 0.0
H3331 H 0.19101 0.90296 0.05387 0.0
H3332 H 0.14189 0.91989 0.0177 0.0
H3333 H 0.18722 0.96957 0.04973 0.0
H3334 H 0.19099 0.95145 0.03924 0.0
H3335 H 0.18533 0.95161 0.05907 0.0
C3336 C 0.18272 0.90646 0.01343 0.0
C3337 C 0.18932 0.90124 0.02752 0.0
C3338 C 0.17337 0.91754 0.01474 0.0
C3339 C 0.17059 0.92356 0.03013 0.0
C3340 C 0.17674 0.918 0.04416 0.0
H3341 H 0.11864 0.99316 0.06079 0.0
H3342 H 0.13497 0.97342 0.05976 0.0
C3343 C 0.18612 0.90693 0.04287 0.0
C3344 C 0.16136 0.93584 0.03146 0.0
H3345 H 0.16253 0.97469 0.04659 0.0
C3346 C 0.14636 0.93188 0.024 0.0
C3347 C 0.16738 0.95141 0.03966 0.0
C3348 C 0.18364 0.95637 0.04727 0.0
C3349 C 0.13705 0.94315 0.02468 0.0
C3350 C 0.14308 0.95872 0.03284 0.0
C3351 C 0.15806 0.96267 0.04038 0.0
C3352 C 0.134 0.97117 0.03352 0.0
C3353 C 0.12084 0.93827 0.01685 0.0
C3354 C 0.12854 0.97661 0.01913 0.0
C3355 C 0.11934 0.98789 0.01968 0.0
C3356 C 0.11557 0.99388 0.03465 0.0
C3357 C 0.1215 0.9888 0.04913 0.0
C3358 C 0.13072 0.97751 0.04855 0.0
H3359 H 0.11717 0.92507 0.01458 0.0
H3360 H 0.11343 0.94343 0.02462 0.0
H3361 H 0.11939 0.94283 1.00492 0.0
H3362 H 0.13129 0.97201 0.00748 0.0
H3363 H 0.11508 0.99183 0.00839 0.0
H3364 H 0.68806 0.61813 0.02285 0.0
H3365 H 0.66286 0.60404 0.02437 0.0
H3366 H 0.66322 0.5731 0.97998 0.0
H3367 H 0.68872 0.58661 0.97877 0.0
H3368 H 0.63664 0.6002 1.00384 0.0
H3369 H 0.65118 0.54083 0.00968 0.0
H3370 H 0.66524 0.55875 0.01174 0.0
H3371 H 0.65651 0.54865 0.9918 0.0
C3372 C 0.68293 0.60815 0.01353 0.0
C3373 C 0.69063 0.60344 1.00079 0.0
C3374 C 0.66841 0.60019 0.01434 0.0
C3375 C 0.66117 0.58728 1.00247 0.0
C3376 C 0.66865 0.58277 0.98953 0.0
H3377 H 0.57466 0.5235 0.98382 0.0
H3378 H 0.5994 0.53913 0.98279 0.0
C3379 C 0.68321 0.59068 0.98873 0.0
C3380 C 0.64578 0.57869 1.00357 0.0
H3381 H 0.62523 0.54174 1.00502 0.0
C3382 C 0.63417 0.58743 1.00419 0.0
C3383 C 0.6425 0.56202 1.00412 0.0
C3384 C 0.65454 0.55202 1.00447 0.0
C3385 C 0.61938 0.57991 1.00488 0.0
C3386 C 0.61609 0.56322 1.00518 0.0
C3387 C 0.62771 0.55452 1.00471 0.0
C3388 C 0.60065 0.55442 1.00561 0.0
C3389 C 0.60731 0.58985 1.00484 0.0
C3390 C 0.59301 0.55779 0.01878 0.0
C3391 C 0.5788 0.54884 0.01939 0.0
C3392 C 0.572 0.5363 0.00686 0.0
C3393 C 0.57958 0.5331 0.99363 0.0
C3394 C 0.59375 0.54201 0.99304 0.0
H3395 H 0.61083 0.60151 1.00053 0.0
H3396 H 0.59681 0.5834 0.99695 0.0
H3397 H 0.60485 0.59229 0.01746 0.0
H3398 H 0.59819 0.5671 0.02879 0.0
H3399 H 0.57328 0.5515 0.0298 0.0
H3400 H 0.67578 0.45974 0.31292 0.0
H3401 H 0.68898 0.43729 0.3128 0.0
H3402 H 0.70206 0.44622 0.26637 0.0
H3403 H 0.68874 0.46857 0.26625 0.0
H3404 H 0.68409 0.40983 0.2891 0.0
H3405 H 0.74181 0.44517 0.29518 0.0
H3406 H 0.72604 0.45415 0.29932 0.0
H3407 H 0.72889 0.44899 0.27862 0.0
C3408 C 0.6814 0.45688 0.30264 0.0
C3409 C 0.68127 0.46596 0.28962 0.0
C3410 C 0.68898 0.44411 0.30264 0.0
C3411 C 0.69663 0.4403 0.28969 0.0
C3412 C 0.69646 0.44923 0.27663 0.0
H3413 H 0.74969 0.36922 0.26703 0.0
H3414 H 0.73534 0.39074 0.2667 0.0
C3415 C 0.68888 0.46199 0.2766 0.0
C3416 C 0.70453 0.42672 0.28969 0.0
H3417 H 0.73904 0.41701 0.28982 0.0
C3418 C 0.69611 0.41136 0.28933 0.0
C3419 C 0.72019 0.42885 0.28996 0.0
C3420 C 0.72981 0.44519 0.29094 0.0
C3421 C 0.70294 0.39794 0.28889 0.0
C3422 C 0.71861 0.40007 0.28915 0.0
C3423 C 0.72702 0.41545 0.28958 0.0
C3424 C 0.72658 0.38653 0.28902 0.0
C3425 C 0.69328 0.38161 0.28779 0.0
C3426 C 0.72639 0.3771 0.3017 0.0
C3427 C 0.73454 0.36479 0.3019 0.0
C3428 C 0.74314 0.36186 0.28952 0.0
C3429 C 0.74324 0.37129 0.27679 0.0
C3430 C 0.73503 0.38353 0.27656 0.0
H3431 H 0.68135 0.38161 0.28316 0.0
H3432 H 0.69724 0.37258 0.27967 0.0
H3433 H 0.69384 0.37791 0.30015 0.0
H3434 H 0.72023 0.37949 0.31164 0.0
H3435 H 0.73448 0.35789 0.312 0.0
H3436 H 0.83009 0.40836 0.51212 0.0
H3437 H 0.85411 0.42595 0.5134 0.0
H3438 H 0.83188 0.46597 0.50869 0.0
H3439 H 0.80773 0.44862 0.50864 0.0
H3440 H 0.86301 0.44176 0.49015 0.0
H3441 H 0.86523 0.48467 0.54586 0.0
H3442 H 0.85168 0.46623 0.54087 0.0
H3443 H 0.84881 0.48332 0.53106 0.0
C3444 C 0.83027 0.42097 0.51183 0.0
C3445 C 0.81696 0.4271 0.51043 0.0
C3446 C 0.84403 0.43099 0.5124 0.0
C3447 C 0.84478 0.44728 0.51136 0.0
C3448 C 0.83156 0.45348 0.50989 0.0
H3449 H 0.9227 0.50139 0.48118 0.0
H3450 H 0.89713 0.48946 0.48351 0.0
C3451 C 0.81775 0.4435 0.50958 0.0
C3452 C 0.85937 0.45741 0.51073 0.0
H3453 H 0.88411 0.49095 0.52931 0.0
C3454 C 0.86764 0.4525 0.49873 0.0
C3455 C 0.86541 0.4713 0.52207 0.0
C3456 C 0.8574 0.47663 0.5358 0.0
C3457 C 0.88186 0.46103 0.49781 0.0
C3458 C 0.88769 0.47522 0.50878 0.0
C3459 C 0.87945 0.48017 0.52079 0.0
C3460 C 0.90261 0.48468 0.50829 0.0
C3461 C 0.89065 0.45444 0.48541 0.0
C3462 C 0.91392 0.48685 0.52184 0.0
C3463 C 0.92851 0.49412 0.52074 0.0
C3464 C 0.93201 0.4992 0.506 0.0
C3465 C 0.92042 0.49775 0.49275 0.0
C3466 C 0.90582 0.49072 0.49397 0.0
H3467 H 0.88643 0.44147 0.48128 0.0
H3468 H 0.88954 0.46073 0.47453 0.0
H3469 H 0.90273 0.45621 0.4905 0.0
H3470 H 0.91158 0.48239 0.53307 0.0
H3471 H 0.9371 0.49539 0.53128 0.0
H3472 H 0.34108 0.10415 0.25144 0.0
H3473 H 0.32927 0.12765 0.25209 0.0
H3474 H 0.37209 0.15795 0.27038 0.0
H3475 H 0.38409 0.13466 0.26915 0.0
H3476 H 0.32512 0.14975 0.27497 0.0
H3477 H 0.35955 0.18324 0.23597 0.0
H3478 H 0.36031 0.16272 0.23816 0.0
H3479 H 0.37064 0.17866 0.25353 0.0
C3480 C 0.34818 0.11576 0.25537 0.0
C3481 C 0.36383 0.11698 0.2601 0.0
C3482 C 0.34126 0.12941 0.25587 0.0
C3483 C 0.34958 0.14509 0.26097 0.0
C3484 C 0.36515 0.14634 0.26592 0.0
H3485 H 0.32718 0.24313 0.27142 0.0
H3486 H 0.33944 0.21982 0.27071 0.0
C3487 C 0.37209 0.13271 0.26544 0.0
C3488 C 0.34196 0.15984 0.26146 0.0
H3489 H 0.34369 0.19737 0.24967 0.0
C3490 C 0.32922 0.16008 0.26931 0.0
C3491 C 0.34702 0.17374 0.25428 0.0
C3492 C 0.36003 0.17458 0.24487 0.0
C3493 C 0.32185 0.17345 0.2705 0.0
C3494 C 0.32683 0.18731 0.26319 0.0
C3495 C 0.33959 0.18707 0.25536 0.0
C3496 C 0.31909 0.20199 0.26352 0.0
C3497 C 0.30906 0.17268 0.28023 0.0
C3498 C 0.30338 0.20046 0.2594 0.0
C3499 C 0.29629 0.21394 0.25998 0.0
C3500 C 0.30451 0.22975 0.2644 0.0
C3501 C 0.32026 0.23136 0.26805 0.0
C3502 C 0.32736 0.21783 0.2676 0.0
H3503 H 0.30997 0.16437 0.28946 0.0
H3504 H 0.30865 0.18461 0.28666 0.0
H3505 H 0.29834 0.1681 0.27187 0.0
H3506 H 0.29645 0.18875 0.25554 0.0
H3507 H 0.2842 0.21189 0.25689 0.0
H3508 H 0.35214 0.13278 0.51153 0.0
H3509 H 0.3744 0.12068 0.51305 0.0
H3510 H 0.34641 0.07378 0.50329 0.0
H3511 H 0.3241 0.08574 0.50067 0.0
H3512 H 0.38452 0.10183 0.53325 0.0
H3513 H 0.37391 0.06893 0.47048 0.0
H3514 H 0.36324 0.08369 0.47679 0.0
H3515 H 0.35878 0.06366 0.48164 0.0
C3516 C 0.35065 0.11989 0.50934 0.0
C3517 C 0.33619 0.1103 0.50578 0.0
C3518 C 0.36345 0.11297 0.51039 0.0
C3519 C 0.36216 0.09629 0.50796 0.0
C3520 C 0.34777 0.08667 0.50477 0.0
H3521 H 0.42368 0.03045 0.51495 0.0
H3522 H 0.40213 0.04367 0.51219 0.0
C3523 C 0.33496 0.09357 0.50354 0.0
C3524 C 0.37587 0.08902 0.5092 0.0
H3525 H 0.39338 0.06251 0.48896 0.0
C3526 C 0.3865 0.09334 0.5235 0.0
C3527 C 0.37853 0.07792 0.49649 0.0
C3528 C 0.36809 0.07339 0.48043 0.0
C3529 C 0.39946 0.08661 0.52558 0.0
C3530 C 0.40199 0.07537 0.51296 0.0
C3531 C 0.39143 0.07111 0.49864 0.0
C3532 C 0.41529 0.06752 0.51454 0.0
C3533 C 0.41013 0.09127 0.54148 0.0
C3534 C 0.42993 0.07648 0.51654 0.0
C3535 C 0.44235 0.06895 0.51825 0.0
C3536 C 0.44038 0.05227 0.51796 0.0
C3537 C 0.42567 0.04333 0.51558 0.0
C3538 C 0.4133 0.05086 0.51387 0.0
H3539 H 0.40489 0.09703 0.55126 0.0
H3540 H 0.41408 0.08068 0.54569 0.0
H3541 H 0.42005 0.09991 0.53963 0.0
H3542 H 0.43175 0.08932 0.51677 0.0
H3543 H 0.45349 0.07621 0.52009 0.0
H3544 H 0.699 0.60514 0.26807 0.0
H3545 H 0.71526 0.63055 0.26693 0.0
H3546 H 0.70043 0.65162 0.30986 0.0
H3547 H 0.68351 0.62643 0.31063 0.0
H3548 H 0.70103 0.67102 0.2862 0.0
H3549 H 0.75463 0.64938 0.29606 0.0
H3550 H 0.74173 0.63796 0.27903 0.0
H3551 H 0.73713 0.63787 0.29935 0.0
C3552 C 0.69907 0.61519 0.27721 0.0
C3553 C 0.68993 0.61369 0.28947 0.0
C3554 C 0.70854 0.62966 0.27666 0.0
C3555 C 0.70927 0.64288 0.28849 0.0
C3556 C 0.70013 0.64151 0.30069 0.0
H3557 H 0.7793 0.72791 0.30324 0.0
H3558 H 0.76208 0.70369 0.30661 0.0
C3559 C 0.69056 0.62705 0.30119 0.0
C3560 C 0.71932 0.65825 0.28791 0.0
H3561 H 0.75578 0.675 0.28734 0.0
C3562 C 0.71302 0.67193 0.28657 0.0
C3563 C 0.73498 0.65945 0.28859 0.0
C3564 C 0.74255 0.64542 0.291 0.0
C3565 C 0.72193 0.68673 0.28554 0.0
C3566 C 0.73749 0.68775 0.28553 0.0
C3567 C 0.74382 0.67415 0.28721 0.0
C3568 C 0.74746 0.70279 0.28377 0.0
C3569 C 0.71461 0.70114 0.28469 0.0
C3570 C 0.745 0.71023 0.26977 0.0
C3571 C 0.7548 0.72404 0.26786 0.0
C3572 C 0.76725 0.73058 0.27988 0.0
C3573 C 0.76974 0.72312 0.29384 0.0
C3574 C 0.75992 0.70932 0.29577 0.0
H3575 H 0.70384 0.69945 0.2896 0.0
H3576 H 0.72207 0.71208 0.29161 0.0
H3577 H 0.71219 0.70305 0.27175 0.0
H3578 H 0.73568 0.70517 0.26017 0.0
H3579 H 0.75278 0.72943 0.25684 0.0
H3580 H 0.86024 0.44217 0.73345 0.0
H3581 H 0.84818 0.41462 0.73455 0.0
H3582 H 0.84605 0.42678 0.78561 0.0
H3583 H 0.85745 0.45443 0.78447 0.0
H3584 H 0.85588 0.39132 0.75066 0.0
H3585 H 0.8038 0.40421 0.77129 0.0
H3586 H 0.81694 0.41923 0.76443 0.0
H3587 H 0.82025 0.41451 0.78495 0.0
C3588 C 0.857 0.43918 0.74491 0.0
C3589 C 0.85991 0.45099 0.75883 0.0
C3590 C 0.85015 0.4232 0.74555 0.0
C3591 C 0.84578 0.41831 0.76009 0.0
C3592 C 0.84883 0.43 0.77405 0.0
H3593 H 0.80413 0.328 0.79067 0.0
H3594 H 0.81594 0.35535 0.7886 0.0
C3595 C 0.85565 0.44597 0.77342 0.0
C3596 C 0.83841 0.40106 0.76073 0.0
H3597 H 0.80804 0.37775 0.77206 0.0
C3598 C 0.84536 0.38843 0.75525 0.0
C3599 C 0.82463 0.39688 0.76673 0.0
C3600 C 0.81588 0.4094 0.77203 0.0
C3601 C 0.83928 0.37216 0.75597 0.0
C3602 C 0.82552 0.368 0.76202 0.0
C3603 C 0.81855 0.38063 0.76744 0.0
C3604 C 0.8183 0.35082 0.7631 0.0
C3605 C 0.84803 0.35963 0.75074 0.0
C3606 C 0.81529 0.33869 0.74948 0.0
C3607 C 0.8085 0.32281 0.75066 0.0
C3608 C 0.8043 0.31845 0.76547 0.0
C3609 C 0.80716 0.33065 0.77902 0.0
C3610 C 0.81395 0.34647 0.77784 0.0
H3611 H 0.86008 0.36484 0.75125 0.0
H3612 H 0.84714 0.34995 0.75854 0.0
H3613 H 0.84352 0.35429 0.73792 0.0
H3614 H 0.81801 0.34151 0.73778 0.0
H3615 H 0.80645 0.31397 0.73987 0.0
H3616 H 0.05844 0.85297 0.06639 0.0
H3617 H 0.05777 0.87772 0.05463 0.0
H3618 H 0.03358 0.89408 0.09215 0.0
H3619 H 0.0349 0.86983 0.1045 0.0
H3620 H 0.03439 0.88971 0.04185 0.0
H3621 H 0.06637 0.93243 0.09468 0.0
H3622 H 0.0656 0.91116 0.09344 0.0
H3623 H 0.05044 0.91986 0.09991 0.0
C3624 C 0.05321 0.86193 0.07235 0.0
C3625 C 0.0468 0.85934 0.08649 0.0
C3626 C 0.05273 0.87605 0.0655 0.0
C3627 C 0.04586 0.88793 0.07264 0.0
C3628 C 0.03927 0.8853 0.08662 0.0
H3629 H 0.0125 0.96289 0.02671 0.0
H3630 H 0.01615 0.93836 0.0374 0.0
C3631 C 0.03983 0.87125 0.09353 0.0
C3632 C 0.04517 0.90281 0.06518 0.0
H3633 H 0.05319 0.94358 0.07356 0.0
C3634 C 0.03862 0.90149 0.04876 0.0
C3635 C 0.05086 0.91821 0.0741 0.0
C3636 C 0.05885 0.92054 0.09145 0.0
C3637 C 0.03727 0.91508 0.04114 0.0
C3638 C 0.04233 0.93046 0.05028 0.0
C3639 C 0.04921 0.9318 0.06658 0.0
C3640 C 0.04027 0.94529 0.04331 0.0
C3641 C 0.03057 0.91279 0.02331 0.0
C3642 C 0.05259 0.95761 0.04339 0.0
C3643 C 0.05054 0.97182 0.03739 0.0
C3644 C 0.0361 0.97401 0.03129 0.0
C3645 C 0.02381 0.9616 0.03116 0.0
C3646 C 0.02587 0.94747 0.0372 0.0
H3647 H 0.03173 0.90106 0.01696 0.0
H3648 H 0.01844 0.91307 0.02227 0.0
H3649 H 0.03595 0.92239 0.01694 0.0
H3650 H 0.0638 0.95625 0.04816 0.0
H3651 H 0.06023 0.98116 0.03779 0.0
H3652 H 0.92354 0.23138 0.86205 0.0
H3653 H 0.89916 0.23394 0.84784 0.0
H3654 H 0.91868 0.27976 0.83595 0.0
H3655 H 0.94305 0.27746 0.85032 0.0
H3656 H 0.88159 0.25744 0.85302 0.0
H3657 H 0.8984 0.25514 0.79133 0.0
H3658 H 0.9095 0.24952 0.80849 0.0
H3659 H 0.91013 0.27026 0.8065 0.0
C3660 C 0.92268 0.24207 0.85654 0.0
C3661 C 0.9354 0.25415 0.85729 0.0
C3662 C 0.9087 0.24349 0.84835 0.0
C3663 C 0.90709 0.25694 0.84062 0.0
C3664 C 0.91968 0.26911 0.84152 0.0
H3665 H 0.82147 0.28269 0.80167 0.0
H3666 H 0.84561 0.28239 0.81841 0.0
C3667 C 0.93366 0.26773 0.84972 0.0
C3668 C 0.89227 0.25817 0.83155 0.0
H3669 H 0.87428 0.26058 0.79355 0.0
C3670 C 0.87998 0.25816 0.84002 0.0
C3671 C 0.89013 0.25897 0.81455 0.0
C3672 C 0.90268 0.25834 0.80461 0.0
C3673 C 0.86567 0.25896 0.83198 0.0
C3674 C 0.8636 0.25996 0.81502 0.0
C3675 C 0.87588 0.25996 0.80657 0.0
C3676 C 0.84864 0.26007 0.80555 0.0
C3677 C 0.8528 0.2583 0.84159 0.0
C3678 C 0.84232 0.24772 0.79273 0.0
C3679 C 0.82862 0.24789 0.78321 0.0
C3680 C 0.82093 0.26048 0.78618 0.0
C3681 C 0.82712 0.27279 0.79914 0.0
C3682 C 0.84088 0.2726 0.80874 0.0
H3683 H 0.85549 0.25407 0.85355 0.0
H3684 H 0.85022 0.27044 0.84395 0.0
H3685 H 0.84259 0.25027 0.83459 0.0
H3686 H 0.84807 0.23794 0.79001 0.0
H3687 H 0.82416 0.23822 0.77333 0.0
H3688 H 0.53588 0.20515 0.56062 0.0
H3689 H 0.53343 0.17718 0.54886 0.0
H3690 H 0.55112 0.16601 0.5958 0.0
H3691 H 0.55293 0.19367 0.60782 0.0
H3692 H 0.55472 0.15867 0.54653 0.0
H3693 H 0.51318 0.13253 0.58343 0.0
H3694 H 0.51764 0.15371 0.58255 0.0
H3695 H 0.52975 0.14448 0.59568 0.0
C3696 C 0.53905 0.19671 0.56851 0.0
C3697 C 0.54457 0.20172 0.5852 0.0
C3698 C 0.53775 0.18074 0.56173 0.0
C3699 C 0.54188 0.16943 0.57149 0.0
C3700 C 0.54758 0.17443 0.58808 0.0
H3701 H 0.56044 0.07595 0.53834 0.0
H3702 H 0.56213 0.10418 0.5484 0.0
C3703 C 0.54881 0.19034 0.59489 0.0
C3704 C 0.54046 0.15247 0.5643 0.0
H3705 H 0.52478 0.11428 0.56827 0.0
C3706 C 0.54811 0.14896 0.55121 0.0
C3707 C 0.53167 0.13981 0.57028 0.0
C3708 C 0.52247 0.1428 0.58365 0.0
C3709 C 0.54742 0.13313 0.54414 0.0
C3710 C 0.5391 0.12044 0.55055 0.0
C3711 C 0.53126 0.12398 0.56345 0.0
C3712 C 0.5382 0.1034 0.54397 0.0
C3713 C 0.5554 0.13019 0.52968 0.0
C3714 C 0.52417 0.09344 0.53847 0.0
C3715 C 0.52315 0.07724 0.53289 0.0
C3716 C 0.53615 0.07064 0.53272 0.0
C3717 C 0.5502 0.08066 0.53816 0.0
C3718 C 0.5512 0.09685 0.54383 0.0
H3719 H 0.55735 0.14092 0.52336 0.0
H3720 H 0.56648 0.12735 0.534 0.0
H3721 H 0.54891 0.11999 0.52072 0.0
H3722 H 0.51397 0.0982 0.53854 0.0
H3723 H 0.51214 0.06988 0.52885 0.0
H3724 H 0.57587 0.77959 0.34997 0.0
H3725 H 0.599 0.78149 0.33807 0.0
H3726 H 0.60992 0.74175 0.36133 0.0
H3727 H 0.58711 0.74001 0.37371 0.0
H3728 H 0.62946 0.786 0.35473 0.0
H3729 H 0.61271 0.72885 0.31247 0.0
H3730 H 0.59932 0.73849 0.32186 0.0
H3731 H 0.61079 0.72744 0.33347 0.0
C3732 C 0.58321 0.77132 0.35272 0.0
C3733 C 0.57945 0.75958 0.3628 0.0
C3734 C 0.59641 0.77238 0.3458 0.0
C3735 C 0.60609 0.76163 0.34862 0.0
C3736 C 0.60248 0.74998 0.35872 0.0
H3737 H 0.68867 0.74637 0.31328 0.0
H3738 H 0.66658 0.74499 0.32698 0.0
C3739 C 0.58934 0.74897 0.36574 0.0
C3740 C 0.62008 0.76276 0.34121 0.0
H3741 H 0.63769 0.74256 0.31431 0.0
C3742 C 0.63126 0.77653 0.34585 0.0
C3743 C 0.62245 0.75036 0.32972 0.0
C3744 C 0.61066 0.73548 0.32394 0.0
C3745 C 0.64484 0.77814 0.33951 0.0
C3746 C 0.64716 0.76581 0.32784 0.0
C3747 C 0.63597 0.75201 0.32325 0.0
C3748 C 0.661 0.76705 0.32007 0.0
C3749 C 0.6567 0.79287 0.34571 0.0
C3750 C 0.66528 0.77989 0.31155 0.0
C3751 C 0.67806 0.78086 0.30394 0.0
C3752 C 0.68679 0.76887 0.30438 0.0
C3753 C 0.68244 0.75599 0.31289 0.0
C3754 C 0.66969 0.75509 0.32062 0.0
H3755 H 0.65524 0.79846 0.35793 0.0
H3756 H 0.66813 0.79006 0.34654 0.0
H3757 H 0.6558 0.80181 0.33717 0.0
H3758 H 0.6586 0.78908 0.31058 0.0
H3759 H 0.68108 0.79104 0.29766 0.0
H3760 H 0.05274 0.2259 0.43191 0.0
H3761 H 0.05215 0.2029 0.44685 0.0
H3762 H 1.0041 0.1905 0.43327 0.0
H3763 H 1.00463 0.21313 0.41785 0.0
H3764 H 0.03566 0.19724 0.47295 0.0
H3765 H 0.01926 0.14892 0.41985 0.0
H3766 H 0.02668 0.16937 0.41774 0.0
H3767 H 0.00753 0.16367 0.42066 0.0
C3768 C 0.0421 0.21811 0.43193 0.0
C3769 C 0.02874 0.22118 0.42373 0.0
C3770 C 0.04177 0.20512 0.44051 0.0
C3771 C 0.02811 0.19507 0.44092 0.0
C3772 C 0.01475 0.1981 0.43283 0.0
H3773 H 0.0122 0.12569 0.50738 0.0
H3774 H 0.01097 0.14802 0.49173 0.0
C3775 C 0.01506 0.21106 0.4242 0.0
C3776 C 0.02783 0.1816 0.45022 0.0
H3777 H 0.02028 0.14099 0.44619 0.0
C3778 C 0.03231 0.18493 0.46716 0.0
C3779 C 0.0235 0.16567 0.44244 0.0
C3780 C 0.01908 0.16162 0.42415 0.0
C3781 C 0.03261 0.17257 0.47666 0.0
C3782 C 0.0281 0.15664 0.46891 0.0
C3783 C 0.0236 0.15331 0.45197 0.0
C3784 C 0.0286 0.14319 0.47812 0.0
C3785 C 0.03802 0.17659 0.4948 0.0
C3786 C 0.03875 0.13313 0.47528 0.0
C3787 C 0.03953 0.12048 0.48418 0.0
C3788 C 0.03008 0.11774 0.49594 0.0
C3789 C 0.01976 0.12775 0.49856 0.0
C3790 C 0.01902 0.14041 0.48966 0.0
H3791 H 0.04391 0.18922 0.49825 0.0
H3792 H 0.02828 0.17471 0.50144 0.0
H3793 H 0.04573 0.16867 0.49893 0.0
H3794 H 0.0462 0.13521 0.46635 0.0
H3795 H 0.04767 0.11302 0.48206 0.0
H3796 H 0.61057 0.23465 0.2152 0.0
H3797 H 0.63697 0.23676 0.22625 0.0
H3798 H 0.64321 0.28816 0.23118 0.0
H3799 H 0.61671 0.28622 0.22047 0.0
H3800 H 0.66257 0.2728 0.21188 0.0
H3801 H 0.66106 0.25349 0.27328 0.0
H3802 H 0.64832 0.24116 0.25656 0.0
H3803 H 0.64591 0.26117 0.2627 0.0
C3804 C 0.61745 0.24641 0.21908 0.0
C3805 C 0.61163 0.26029 0.21695 0.0
C3806 C 0.6325 0.24758 0.22533 0.0
C3807 C 0.64187 0.2626 0.22955 0.0
C3808 C 0.63602 0.27648 0.22798 0.0
H3809 H 0.73437 0.2889 0.27283 0.0
H3810 H 0.70741 0.28671 0.2652 0.0
C3811 C 0.62096 0.27534 0.2218 0.0
C3812 C 0.65804 0.26379 0.23416 0.0
H3813 H 0.68452 0.2569 0.26378 0.0
C3814 C 0.66742 0.26939 0.22324 0.0
C3815 C 0.66414 0.25929 0.24898 0.0
C3816 C 0.65439 0.25353 0.26116 0.0
C3817 C 0.68292 0.27052 0.22674 0.0
C3818 C 0.68901 0.26584 0.24145 0.0
C3819 C 0.67965 0.26036 0.25245 0.0
C3820 C 0.70518 0.26702 0.24585 0.0
C3821 C 0.69272 0.27686 0.21483 0.0
C3822 C 0.71265 0.2566 0.23741 0.0
C3823 C 0.72805 0.2578 0.24169 0.0
C3824 C 0.73609 0.26945 0.25447 0.0
C3825 C 0.7285 0.27988 0.26285 0.0
C3826 C 0.71312 0.27862 0.25859 0.0
H3827 H 0.6865 0.28237 0.20534 0.0
H3828 H 0.70248 0.28588 0.22136 0.0
H3829 H 0.69709 0.26689 0.20862 0.0
H3830 H 0.70655 0.24751 0.2276 0.0
H3831 H 0.73359 0.24954 0.23508 0.0
H3832 H 0.54109 0.85738 0.9511 0.0
H3833 H 0.54057 0.8811 0.97018 0.0
H3834 H 0.5033 0.891 0.93828 0.0
H3835 H 0.50393 0.86761 0.91897 0.0
H3836 H 0.54336 0.91305 0.96218 0.0
H3837 H 0.48958 0.89212 0.98401 0.0
H3838 H 0.49988 0.8786 0.97424 0.0
H3839 H 0.48874 0.88963 0.96219 0.0
C3840 C 0.53286 0.86468 0.9481 0.0
C3841 C 0.52251 0.86063 0.93359 0.0
C3842 C 0.5325 0.87808 0.95905 0.0
C3843 C 0.5217 0.88747 0.95569 0.0
C3844 C 0.51146 0.88359 0.94119 0.0
H3845 H 0.51934 0.98402 0.98808 0.0
H3846 H 0.51571 0.95703 0.97347 0.0
C3847 C 0.51185 0.87026 0.9302 0.0
C3848 C 0.52171 0.90196 0.96685 0.0
H3849 H 0.50022 0.9199 0.99082 0.0
C3850 C 0.53404 0.91451 0.96861 0.0
C3851 C 0.50947 0.90368 0.97514 0.0
C3852 C 0.4962 0.89026 0.97395 0.0
C3853 C 0.53427 0.92904 0.97815 0.0
C3854 C 0.52182 0.93093 0.986 0.0
C3855 C 0.50967 0.91827 0.98465 0.0
C3856 C 0.52122 0.94631 0.99518 0.0
C3857 C 0.54765 0.9424 0.97956 0.0
C3858 C 0.5249 0.94887 0.01223 0.0
C3859 C 0.52692 0.96428 0.02066 0.0
C3860 C 0.5253 0.97715 0.01201 0.0
C3861 C 0.52059 0.97429 0.99504 0.0
C3862 C 0.51856 0.95893 0.98667 0.0
H3863 H 0.55729 0.93818 0.97486 0.0
H3864 H 0.54451 0.95178 0.9724 0.0
H3865 H 0.55125 0.94796 0.99248 0.0
H3866 H 0.52699 0.93914 0.01887 0.0
H3867 H 0.53055 0.96624 0.03374 0.0
H3868 H 0.97728 0.72794 0.72397 0.0
H3869 H 0.9562 0.72808 0.73913 0.0
H3870 H 0.93937 0.76077 0.70902 0.0
H3871 H 0.95991 0.76005 0.6933 0.0
H3872 H 0.94983 0.75353 0.75703 0.0
H3873 H 0.9021 0.72779 0.7082 0.0
H3874 H 0.92119 0.72644 0.70599 0.0
H3875 H 0.9141 0.74423 0.70225 0.0
C3876 C 0.96888 0.73484 0.72034 0.0
C3877 C 0.97019 0.74395 0.70742 0.0
C3878 C 0.95693 0.73498 0.72906 0.0
C3879 C 0.94614 0.74419 0.72497 0.0
C3880 C 0.9474 0.75326 0.71208 0.0
H3881 H 0.89374 0.79451 0.77781 0.0
H3882 H 0.91374 0.78304 0.76745 0.0
C3883 C 0.95925 0.75303 0.70328 0.0
C3884 C 0.9341 0.74533 0.73484 0.0
H3885 H 0.89653 0.74408 0.73141 0.0
C3886 C 0.93813 0.75114 0.75154 0.0
C3887 C 0.91886 0.74192 0.72769 0.0
C3888 C 0.9138 0.73458 0.71008 0.0
C3889 C 0.92734 0.75463 0.76109 0.0
C3890 C 0.91226 0.75258 0.75357 0.0
C3891 C 0.90813 0.74578 0.73713 0.0
C3892 C 0.90087 0.75888 0.76192 0.0
C3893 C 0.93226 0.76082 0.779 0.0
C3894 C 0.88696 0.74913 0.7621 0.0
C3895 C 0.87536 0.75576 0.7676 0.0
C3896 C 0.87754 0.77225 0.77303 0.0
C3897 C 0.89171 0.78181 0.77357 0.0
C3898 C 0.90322 0.77521 0.76789 0.0
H3899 H 0.9422 0.75607 0.78395 0.0
H3900 H 0.93554 0.77403 0.78057 0.0
H3901 H 0.92316 0.75756 0.78626 0.0
H3902 H 0.88489 0.73653 0.75736 0.0
H3903 H 0.86449 0.74813 0.76679 0.0
H3904 H 0.12116 0.0226 0.88119 0.0
H3905 H 0.10955 0.01926 0.90566 0.0
H3906 H 0.06807 0.02791 0.8806 0.0
H3907 H 0.07978 0.03167 0.85622 0.0
H3908 H 0.07377 0.04342 0.91047 0.0
H3909 H 0.0812 0.98114 0.9137 0.0
H3910 H 0.09868 0.99446 0.91427 0.0
H3911 H 0.08469 0.9911 0.89629 0.0
C3912 C 0.10954 0.02368 0.88087 0.0
C3913 C 0.10135 0.0273 0.86675 0.0
C3914 C 0.10289 0.0217 0.89484 0.0
C3915 C 0.08782 0.02296 0.89488 0.0
C3916 C 0.07969 0.02679 0.88085 0.0
H3917 H 0.03287 0.98846 0.9653 0.0
H3918 H 0.04575 0.99209 0.94172 0.0
C3919 C 0.08639 0.02897 0.86694 0.0
C3920 C 0.08061 0.02059 0.90961 0.0
H3921 H 0.07365 0.99448 0.93694 0.0
C3922 C 0.07369 0.03268 0.91622 0.0
C3923 C 0.08028 1.00648 0.91698 0.0
C3924 C 0.08647 0.99249 0.90984 0.0
C3925 C 0.06656 0.03112 0.93002 0.0
C3926 C 0.06682 0.01731 0.93781 0.0
C3927 C 0.07363 1.00517 0.93112 0.0
C3928 C 0.05958 0.0149 0.95252 0.0
C3929 C 0.05846 0.0441 0.93577 0.0
C3930 C 0.06334 0.02628 0.96663 0.0
C3931 C 0.05582 0.02433 0.98003 0.0
C3932 C 0.04466 0.01078 0.97969 0.0
C3933 C 0.04143 0.99903 0.9659 0.0
C3934 C 0.04878 1.0011 0.95242 0.0
H3935 H 0.05548 0.05114 0.92585 0.0
H3936 H 0.04805 0.03906 0.94031 0.0
H3937 H 0.06589 0.05246 0.94588 0.0
H3938 H 0.07194 0.03679 0.96723 0.0
H3939 H 0.05854 0.03358 0.99049 0.0
H3940 H 0.80568 0.3205 0.55073 0.0
H3941 H 0.82076 0.30793 0.57006 0.0
H3942 H 0.78281 0.29656 0.5951 0.0
H3943 H 0.76779 0.30922 0.57609 0.0
H3944 H 0.82724 0.31782 0.60315 0.0
H3945 H 0.79817 0.25487 0.59114 0.0
H3946 H 0.79596 0.26866 0.57653 0.0
H3947 H 0.7849 0.26781 0.59286 0.0
C3948 C 0.80054 0.31518 0.56029 0.0
C3949 C 0.78557 0.31582 0.56195 0.0
C3950 C 0.80913 0.30793 0.57119 0.0
C3951 C 0.80278 0.30107 0.58372 0.0
C3952 C 0.78776 0.30138 0.58517 0.0
H3953 H 0.81311 0.30139 0.67785 0.0
H3954 H 0.81841 0.30803 0.65149 0.0
C3955 C 0.77919 0.30864 0.57433 0.0
C3956 C 0.81205 0.29511 0.59651 0.0
H3957 H 0.8094 0.26496 0.61962 0.0
C3958 C 0.82376 0.30604 0.60651 0.0
C3959 C 0.80779 0.27965 0.60059 0.0
C3960 C 0.79612 0.26704 0.58957 0.0
C3961 C 0.83003 0.30254 0.6216 0.0
C3962 C 0.82415 0.28795 0.62677 0.0
C3963 C 0.81382 0.27627 0.6158 0.0
C3964 C 0.82571 0.2859 0.64419 0.0
C3965 C 0.84212 0.31494 0.63229 0.0
C3966 C 0.82839 0.27141 0.6491 0.0
C3967 C 0.8251 0.26748 0.66416 0.0
C3968 C 0.81914 0.27802 0.67447 0.0
C3969 C 0.8179 0.29314 0.67024 0.0
C3970 C 0.82104 0.297 0.65516 0.0
H3971 H 0.84978 0.32113 0.62475 0.0
H3972 H 0.83691 0.32412 0.63865 0.0
H3973 H 0.84878 0.3096 0.64156 0.0
H3974 H 0.83187 0.26265 0.64075 0.0
H3975 H 0.82623 0.25577 0.66726 0.0
H3976 H 0.47545 0.05055 0.3424 0.0
H3977 H 0.4882 0.04808 0.36952 0.0
H3978 H 0.44687 0.02283 0.38083 0.0
H3979 H 0.43408 0.02506 0.35374 0.0
H3980 H 0.48289 0.05916 0.4011 0.0
H3981 H 0.47557 0.99313 0.39363 0.0
H3982 H 0.47275 1.00397 0.37649 0.0
H3983 H 0.45857 1.00066 0.38935 0.0
C3984 C 0.46901 0.0443 0.35052 0.0
C3985 C 0.45357 0.03801 0.3455 0.0
C3986 C 0.47638 0.04296 0.36621 0.0
C3987 C 0.46871 0.03504 0.37747 0.0
C3988 C 0.4533 0.02877 0.37252 0.0
H3989 H 0.498 0.01197 0.47731 0.0
H3990 H 0.48371 0.01374 0.45057 0.0
C3991 C 0.44589 0.03024 0.35691 0.0
C3992 C 0.47669 0.03371 0.39439 0.0
H3993 H 0.48589 1.00689 0.41996 0.0
C3994 C 0.48355 0.04769 0.40514 0.0
C3995 C 0.47756 0.01883 0.40009 0.0
C3996 C 0.47084 1.00326 0.38929 0.0
C3997 C 0.49091 0.04727 0.42115 0.0
C3998 C 0.49215 0.03238 0.42675 0.0
C3999 C 0.48516 0.01838 0.41601 0.0
C4000 C 0.50087 0.03113 0.4434 0.0
C4001 C 0.49678 0.06298 0.43207 0.0
C4002 C 0.51553 0.03995 0.44864 0.0
C4003 C 0.52357 0.03915 0.46407 0.0
C4004 C 0.51755 0.02915 0.47485 0.0
C4005 C 0.50306 0.01991 0.46952 0.0
C4006 C 0.49486 0.0209 0.45408 0.0
H4007 H 0.49037 0.07227 0.42858 0.0
H4008 H 0.49619 0.06179 0.4451 0.0
H4009 H 0.50863 0.06729 0.43073 0.0
H4010 H 0.52095 0.04745 0.44072 0.0
H4011 H 0.53473 0.04633 0.46746 0.0
H4012 H 0.79684 0.71129 0.08996 0.0
H4013 H 0.79742 0.72339 0.11814 0.0
H4014 H 0.75003 0.70526 0.1144 0.0
H4015 H 0.74939 0.69303 0.08632 0.0
H4016 H 0.78291 0.74567 0.13116 0.0
H4017 H 0.7662 0.68857 0.15507 0.0
H4018 H 0.77162 0.6893 0.1351 0.0
H4019 H 0.75301 0.69148 0.13832 0.0
C4020 C 0.78652 0.70997 0.09511 0.0
C4021 C 0.7731 0.70106 0.08594 0.0
C4022 C 0.78688 0.71683 0.11124 0.0
C4023 C 0.77384 0.71492 0.11851 0.0
C4024 C 0.76033 0.70648 0.10922 0.0
H4025 H 0.75286 0.74684 0.2139 0.0
H4026 H 0.75202 0.7363 0.18523 0.0
C4027 C 0.75997 0.69954 0.09315 0.0
C4028 C 0.77434 0.72187 0.13577 0.0
H4029 H 0.76679 0.71239 0.17292 0.0
C4030 C 0.77946 0.73838 0.14031 0.0
C4031 C 0.76985 0.71234 0.14771 0.0
C4032 C 0.765 0.69442 0.14387 0.0
C4033 C 0.77995 0.74566 0.15638 0.0
C4034 C 0.77535 0.73615 0.16825 0.0
C4035 C 0.77024 0.71965 0.16374 0.0
C4036 C 0.77591 0.74303 0.18549 0.0
C4037 C 0.7851 0.76353 0.16045 0.0
C4038 C 0.78964 0.75021 0.19517 0.0
C4039 C 0.79018 0.75627 0.21157 0.0
C4040 C 0.77699 0.75518 0.21862 0.0
C4041 C 0.76324 0.74797 0.20886 0.0
C4042 C 0.76272 0.7419 0.19247 0.0
H4043 H 0.78464 0.76952 0.14931 0.0
H4044 H 0.77816 0.76874 0.16879 0.0
H4045 H 0.79688 0.76616 0.16671 0.0
H4046 H 0.79998 0.75091 0.1901 0.0
H4047 H 0.80097 0.76165 0.21873 0.0
H4048 H 0.09765 0.05235 0.7059 0.0
H4049 H 0.08644 0.04995 0.67725 0.0
H4050 H 0.07924 0.99858 0.67382 0.0
H4051 H 0.09039 1.00089 0.70251 0.0
H4052 H 0.09617 0.03633 0.65065 0.0
H4053 H 0.0385 1.00538 0.65396 0.0
H4054 H 0.05169 0.01455 0.67194 0.0
H4055 H 0.05282 0.99521 0.66187 0.0
C4056 C 0.09363 0.04054 0.69906 0.0
C4057 C 0.09487 0.02681 0.70649 0.0
C4058 C 0.08718 0.03918 0.68271 0.0
C4059 C 0.08181 0.02409 0.67346 0.0
C4060 C 0.08297 0.01034 0.68083 0.0
H4061 H 0.04565 0.99364 0.57059 0.0
H4062 H 0.05559 0.99473 0.59953 0.0
C4063 C 0.08936 0.01168 0.69723 0.0
C4064 C 0.0757 0.02281 0.65589 0.0
H4065 H 0.04469 1.00757 0.62741 0.0
C4066 C 0.08489 0.0301 0.64558 0.0
C4067 C 0.061 0.01461 0.6493 0.0
C4068 C 0.05037 1.00712 0.65986 0.0
C4069 C 0.07985 0.0293 0.62884 0.0
C4070 C 0.06515 0.02116 0.62227 0.0
C4071 C 0.05597 0.01376 0.63252 0.0
C4072 C 0.05898 0.02049 0.60485 0.0
C4073 C 0.09038 0.03699 0.61827 0.0
C4074 C 0.05736 0.03459 0.59838 0.0
C4075 C 0.05171 0.03401 0.58191 0.0
C4076 C 0.04746 0.0193 0.5716 0.0
C4077 C 0.04885 1.00515 0.57819 0.0
C4078 C 0.05452 1.00575 0.5947 0.0
H4079 H 0.10226 0.03894 0.62417 0.0
H4080 H 0.08913 0.02956 0.60619 0.0
H4081 H 0.0877 0.0488 0.61621 0.0
H4082 H 0.06046 0.04605 0.6061 0.0
H4083 H 0.05073 0.04515 0.57729 0.0
H4084 H 0.73435 0.33742 0.41095 0.0
H4085 H 0.73702 0.32351 0.38461 0.0
H4086 H 0.72725 0.27824 0.40263 0.0
H4087 H 0.72468 0.29213 0.42911 0.0
H4088 H 0.75401 0.28333 0.39154 0.0
H4089 H 0.70943 0.29585 0.34589 0.0
H4090 H 0.71991 0.31358 0.35859 0.0
H4091 H 0.70875 0.29853 0.36757 0.0
C4092 C 0.73224 0.32447 0.40909 0.0
C4093 C 0.72933 0.3158 0.42199 0.0
C4094 C 0.73374 0.31655 0.39405 0.0
C4095 C 0.73216 0.29987 0.39169 0.0
C4096 C 0.72841 0.29113 0.40426 0.0
H4097 H 0.74477 0.24735 0.30057 0.0
H4098 H 0.73436 0.25628 0.32485 0.0
C4099 C 0.72699 0.29904 0.41933 0.0
C4100 C 0.73655 0.29186 0.37705 0.0
H4101 H 0.73055 0.2875 0.33547 0.0
C4102 C 0.74872 0.284 0.37927 0.0
C4103 C 0.72961 0.29278 0.36113 0.0
C4104 C 0.7161 0.30051 0.35813 0.0
C4105 C 0.75446 0.27743 0.36591 0.0
C4106 C 0.748 0.27907 0.35002 0.0
C4107 C 0.73551 0.28643 0.34775 0.0
C4108 C 0.75432 0.27356 0.33562 0.0
C4109 C 0.76745 0.26891 0.36892 0.0
C4110 C 0.76891 0.28044 0.33378 0.0
C4111 C 0.77491 0.27525 0.3201 0.0
C4112 C 0.76626 0.26335 0.30801 0.0
C4113 C 0.75165 0.25649 0.30985 0.0
C4114 C 0.74569 0.26162 0.32358 0.0
H4115 H 0.76837 0.26493 0.38118 0.0
H4116 H 0.76632 0.25834 0.35951 0.0
H4117 H 0.77803 0.27719 0.36833 0.0
H4118 H 0.77561 0.28988 0.34286 0.0
H4119 H 0.78622 0.28067 0.31888 0.0
H4120 H 0.4707 0.04955 0.18954 0.0
H4121 H 0.48294 0.04721 0.16514 0.0
H4122 H 0.44323 0.01591 0.13868 0.0
H4123 H 0.43087 0.0183 0.16291 0.0
H4124 H 0.49 0.02084 0.14659 0.0
H4125 H 0.45104 0.04756 0.10643 0.0
H4126 H 0.4514 0.04932 0.12827 0.0
H4127 H 0.44213 0.03111 0.11542 0.0
C4128 C 0.46441 0.04227 0.17854 0.0
C4129 C 0.44956 0.0342 0.17858 0.0
C4130 C 0.47155 0.04085 0.16445 0.0
C4131 C 0.46413 0.03155 0.14961 0.0
C4132 C 0.44934 0.02344 0.14962 0.0
H4133 H 0.48805 0.01345 0.04935 0.0
H4134 H 0.47537 0.01509 0.07354 0.0
C4135 C 0.44225 0.0247 0.16375 0.0
C4136 C 0.4719 0.0301 0.1344 0.0
H4137 H 0.46918 0.03614 0.09401 0.0
C4138 C 0.48542 0.02428 0.13514 0.0
C4139 C 0.46611 0.03431 0.11913 0.0
C4140 C 0.45195 0.04105 0.1172 0.0
C4141 C 0.49295 0.02227 0.12135 0.0
C4142 C 0.48735 0.02681 0.1061 0.0
C4143 C 0.47378 0.03261 0.1054 0.0
C4144 C 0.4953 0.02571 0.09092 0.0
C4145 C 0.50657 0.01459 0.12328 0.0
C4146 C 0.51087 0.03131 0.09191 0.0
C4147 C 0.51822 0.03009 0.07801 0.0
C4148 C 0.51033 0.0236 0.06228 0.0
C4149 C 0.49468 0.01842 0.06111 0.0
C4150 C 0.48735 0.01943 0.07511 0.0
H4151 H 0.50617 1.00674 0.13301 0.0
H4152 H 0.50762 1.00731 0.11175 0.0
H4153 H 0.51676 0.02404 0.12696 0.0
H4154 H 0.51749 0.03689 0.10348 0.0
H4155 H 0.53019 0.03451 0.07964 0.0
H4156 H 0.75804 0.71406 0.93241 0.0
H4157 H 0.75906 0.72723 0.90798 0.0
H4158 H 0.78931 0.69779 0.89163 0.0
H4159 H 0.78812 0.68426 0.9158 0.0
H4160 H 0.79871 0.73016 0.8897 0.0
H4161 H 0.73939 0.70909 0.86089 0.0
H4162 H 0.74182 0.71868 0.88162 0.0
H4163 H 0.74806 0.70013 0.8773 0.0
C4164 C 0.76474 0.71017 0.92353 0.0
C4165 C 0.77295 0.698 0.92616 0.0
C4166 C 0.76532 0.71776 0.90955 0.0
C4167 C 0.7741 0.71336 0.89785 0.0
C4168 C 0.78242 0.70136 0.90047 0.0
H4169 H 0.77396 0.73869 0.79948 0.0
H4170 H 0.77123 0.72485 0.82339 0.0
C4171 C 0.7818 0.6937 0.9144 0.0
C4172 C 0.77495 0.72154 0.88309 0.0
H4173 H 0.7539 0.7289 0.84877 0.0
C4174 C 0.78892 0.72986 0.88074 0.0
C4175 C 0.7622 0.72099 0.8713 0.0
C4176 C 0.74703 0.71162 0.87276 0.0
C4177 C 0.79044 0.73786 0.86707 0.0
C4178 C 0.77761 0.73771 0.85552 0.0
C4179 C 0.76369 0.72915 0.85772 0.0
C4180 C 0.77849 0.74625 0.84101 0.0
C4181 C 0.80582 0.7462 0.86496 0.0
C4182 C 0.78308 0.76292 0.84294 0.0
C4183 C 0.78455 0.77086 0.8293 0.0
C4184 C 0.78143 0.76228 0.81347 0.0
C4185 C 0.77639 0.74564 0.81152 0.0
C4186 C 0.77487 0.73771 0.82517 0.0
H4187 H 0.81483 0.74192 0.87252 0.0
H4188 H 0.80747 0.74434 0.85197 0.0
H4189 H 0.80702 0.75922 0.8688 0.0
H4190 H 0.78567 0.76979 0.85502 0.0
H4191 H 0.78843 0.78369 0.83119 0.0
H4192 H 0.86561 0.13678 0.98644 0.0
H4193 H 0.8806 0.1172 0.97794 0.0
H4194 H 0.90677 0.12607 0.02612 0.0
H4195 H 0.89187 0.14568 0.03471 0.0
H4196 H 0.91233 0.11876 0.9788 0.0
H4197 H 0.88709 0.07794 0.01908 0.0
H4198 H 0.87946 0.09504 0.01375 0.0
H4199 H 0.89547 0.09758 0.02944 0.0
C4200 C 0.87483 0.13486 0.99507 0.0
C4201 C 0.87761 0.14263 0.01123 0.0
C4202 C 0.88328 0.12364 0.99023 0.0
C4203 C 0.89452 0.1201 1.00153 0.0
C4204 C 0.89792 0.12854 0.01737 0.0
H4205 H 0.96553 0.06982 0.99605 0.0
H4206 H 0.94909 0.08928 0.99499 0.0
C4207 C 0.88947 0.13971 0.02222 0.0
C4208 C 0.90215 0.10692 0.99713 0.0
H4209 H 0.9083 0.07134 0.0081 0.0
C4210 C 0.91137 0.10828 0.98503 0.0
C4211 C 0.90051 0.09318 1.00507 0.0
C4212 C 0.88998 0.09072 0.01745 0.0
C4213 C 0.91964 0.09647 0.9812 0.0
C4214 C 0.91874 0.08323 0.98992 0.0
C4215 C 0.90898 0.08156 1.00148 0.0
C4216 C 0.92863 0.07155 0.98828 0.0
C4217 C 0.92931 0.09836 0.96799 0.0
C4218 C 0.92253 0.05516 0.985 0.0
C4219 C 0.93188 0.044 0.98601 0.0
C4220 C 0.94744 0.04913 0.99034 0.0
C4221 C 0.95355 0.06556 0.99289 0.0
C4222 C 0.9442 0.07668 0.99202 0.0
H4223 H 0.92491 0.10567 0.95899 0.0
H4224 H 0.94078 0.10462 0.97361 0.0
H4225 H 0.93007 0.08659 0.96143 0.0
H4226 H 0.91051 0.05102 0.98226 0.0
H4227 H 0.92688 0.03142 0.98415 0.0
H4228 H 0.37373 0.46149 0.04644 0.0
H4229 H 0.39885 0.47552 0.04414 0.0
H4230 H 0.40982 0.43108 0.02445 0.0
H4231 H 0.38478 0.41702 0.02664 0.0
H4232 H 0.42657 0.47239 0.05774 0.0
H4233 H 0.42135 0.45864 0.99041 0.0
H4234 H 0.40547 0.45511 1.00107 0.0
H4235 H 0.41803 0.44118 1.00036 0.0
C4236 C 0.3815 0.45467 0.0417 0.0
C4237 C 0.3771 0.43811 0.03658 0.0
C4238 C 0.39587 0.46273 0.04031 0.0
C4239 C 0.4062 0.45446 0.03376 0.0
C4240 C 0.40197 0.43787 0.02906 0.0
H4241 H 0.49941 0.48719 0.01807 0.0
H4242 H 0.47536 0.4704 0.02055 0.0
C4243 C 0.38761 0.42982 0.03037 0.0
C4244 C 0.42145 0.46314 0.03213 0.0
H4245 H 0.44546 0.47105 1.00461 0.0
C4246 C 0.43065 0.4721 0.0461 0.0
C4247 C 0.4269 0.46276 0.01696 0.0
C4248 C 0.41739 0.45404 1.00132 0.0
C4249 C 0.44508 0.48058 0.04536 0.0
C4250 C 0.45047 0.48032 0.03019 0.0
C4251 C 0.44139 0.47118 0.01625 0.0
C4252 C 0.46509 0.49027 0.02842 0.0
C4253 C 0.4545 0.48969 0.06088 0.0
C4254 C 0.46726 0.50698 0.03172 0.0
C4255 C 0.48089 0.5165 0.03022 0.0
C4256 C 0.49273 0.50959 0.02534 0.0
C4257 C 0.49054 0.49286 0.02184 0.0
C4258 C 0.47679 0.48327 0.02327 0.0
H4259 H 0.45066 0.48519 0.0719 0.0
H4260 H 0.46649 0.4889 0.06112 0.0
H4261 H 0.4536 0.50247 0.06158 0.0
H4262 H 0.45835 0.5127 0.0354 0.0
H4263 H 0.48216 0.52935 0.03295 0.0
H4264 H 0.39741 0.59471 0.77021 0.0
H4265 H 0.38417 0.61717 0.77045 0.0
H4266 H 0.35064 0.59055 0.73123 0.0
H4267 H 0.36351 0.56787 0.73123 0.0
H4268 H 0.37713 0.63432 0.74422 0.0
H4269 H 0.32609 0.60488 0.76615 0.0
H4270 H 0.34327 0.59718 0.76788 0.0
H4271 H 0.33095 0.59383 0.74867 0.0
C4272 C 0.3871 0.59356 0.76179 0.0
C4273 C 0.38145 0.57949 0.75077 0.0
C4274 C 0.37963 0.60643 0.76187 0.0
C4275 C 0.36635 0.60538 0.75102 0.0
C4276 C 0.36075 0.59145 0.73989 0.0
H4277 H 0.303 0.66601 0.72977 0.0
H4278 H 0.31742 0.6447 0.73088 0.0
C4279 C 0.3682 0.57859 0.73979 0.0
C4280 C 0.35849 0.619 0.75109 0.0
H4281 H 0.3253 0.62987 0.75679 0.0
C4282 C 0.36584 0.63344 0.74706 0.0
C4283 C 0.34377 0.6177 0.7548 0.0
C4284 C 0.33557 0.60262 0.75976 0.0
C4285 C 0.35866 0.64655 0.74619 0.0
C4286 C 0.34389 0.64522 0.7498 0.0
C4287 C 0.33662 0.63082 0.75402 0.0
C4288 C 0.33556 0.65846 0.7489 0.0
C4289 C 0.36679 0.6615 0.74092 0.0
C4290 C 0.34096 0.67325 0.75875 0.0
C4291 C 0.33286 0.68559 0.75794 0.0
C4292 C 0.31913 0.68327 0.7474 0.0
C4293 C 0.31369 0.66834 0.73774 0.0
C4294 C 0.32184 0.65608 0.73847 0.0
H4295 H 0.3762 0.6591 0.73447 0.0
H4296 H 0.35906 0.66684 0.73276 0.0
H4297 H 0.37153 0.67042 0.75188 0.0
H4298 H 0.35137 0.6752 0.76716 0.0
H4299 H 0.3374 0.69696 0.76549 0.0
H4300 H 0.24546 0.60425 0.50324 0.0
H4301 H 0.22126 0.58561 0.49714 0.0
H4302 H 0.20909 0.60533 0.5423 0.0
H4303 H 0.23319 0.62395 0.54848 0.0
H4304 H 0.20951 0.56316 0.52122 0.0
H4305 H 0.1741 0.60647 0.50259 0.0
H4306 H 0.19386 0.60921 0.50112 0.0
H4307 H 0.18791 0.6133 0.52058 0.0
C4308 C 0.23756 0.60464 0.51179 0.0
C4309 C 0.24112 0.61548 0.52633 0.0
C4310 C 0.22383 0.59401 0.50831 0.0
C4311 C 0.21349 0.59429 0.51923 0.0
C4312 C 0.21699 0.6051 0.53372 0.0
H4313 H 0.14098 0.54178 0.55004 0.0
H4314 H 0.16542 0.55312 0.54374 0.0
C4315 C 0.23074 0.61561 0.53727 0.0
C4316 C 0.19911 0.58303 0.5159 0.0
H4317 H 0.16151 0.582 0.5095 0.0
C4318 C 0.19898 0.56712 0.51831 0.0
C4319 C 0.18552 0.58832 0.51194 0.0
C4320 C 0.18525 0.60523 0.50877 0.0
C4321 C 0.18544 0.55654 0.51794 0.0
C4322 C 0.17186 0.56216 0.51517 0.0
C4323 C 0.17199 0.57777 0.51164 0.0
C4324 C 0.15762 0.55289 0.51805 0.0
C4325 C 0.18578 0.53964 0.52111 0.0
C4326 C 0.1452 0.54895 0.50563 0.0
C4327 C 0.13119 0.54232 0.50915 0.0
C4328 C 0.12939 0.53978 0.52522 0.0
C4329 C 0.14202 0.54327 0.53749 0.0
C4330 C 0.15601 0.54977 0.53392 0.0
H4331 H 0.19616 0.53582 0.518 0.0
H4332 H 0.18553 0.53895 0.53429 0.0
H4333 H 0.17591 0.53117 0.51399 0.0
H4334 H 0.14629 0.55143 0.49334 0.0
H4335 H 0.1217 0.53957 0.4994 0.0
H4336 H 0.72425 0.93818 0.77916 0.0
H4337 H 0.73618 0.91479 0.77801 0.0
H4338 H 0.6938 0.88456 0.77909 0.0
H4339 H 0.68163 0.9077 0.77944 0.0
H4340 H 0.74137 0.89359 0.7973 0.0
H4341 H 0.70509 0.85796 0.74272 0.0
H4342 H 0.70429 0.87858 0.74888 0.0
H4343 H 0.69463 0.86302 0.7586 0.0
C4344 C 0.71725 0.9266 0.77885 0.0
C4345 C 0.70166 0.92537 0.77927 0.0
C4346 C 0.72425 0.91302 0.77834 0.0
C4347 C 0.7161 0.89738 0.77807 0.0
C4348 C 0.7006 0.89612 0.77875 0.0
H4349 H 0.7393 0.79971 0.7741 0.0
H4350 H 0.72691 0.82294 0.77551 0.0
C4351 C 0.69358 0.90968 0.77925 0.0
C4352 C 0.72381 0.88269 0.77751 0.0
H4353 H 0.72162 0.84452 0.75772 0.0
C4354 C 0.737 0.88295 0.78853 0.0
C4355 C 0.71843 0.86838 0.76624 0.0
C4356 C 0.70493 0.86697 0.75334 0.0
C4357 C 0.74451 0.86968 0.78888 0.0
C4358 C 0.73918 0.85541 0.77754 0.0
C4359 C 0.72598 0.85514 0.76653 0.0
C4360 C 0.74703 0.8408 0.77682 0.0
C4361 C 0.75785 0.87106 0.80198 0.0
C4362 C 0.76265 0.84238 0.77679 0.0
C4363 C 0.76983 0.82896 0.77618 0.0
C4364 C 0.76177 0.81316 0.77526 0.0
C4365 C 0.74611 0.8115 0.77494 0.0
C4366 C 0.73892 0.82497 0.77569 0.0
H4367 H 0.75734 0.87976 0.81273 0.0
H4368 H 0.75863 0.85937 0.80619 0.0
H4369 H 0.76823 0.87546 0.79706 0.0
H4370 H 0.76942 0.85406 0.77697 0.0
H4371 H 0.78182 0.83104 0.77621 0.0
H4372 H 0.73154 0.94284 0.55644 0.0
H4373 H 0.70882 0.95422 0.55432 0.0
H4374 H 0.69616 0.93167 0.50434 0.0
H4375 H 0.7184 0.91957 0.50658 0.0
H4376 H 0.69973 0.97472 0.53459 0.0
H4377 H 0.65803 0.91808 0.52225 0.0
H4378 H 0.67765 0.91875 0.52913 0.0
H4379 H 0.67104 0.91941 0.50796 0.0
C4380 C 0.72382 0.94005 0.54507 0.0
C4381 C 0.72686 0.93015 0.53172 0.0
C4382 C 0.71086 0.94669 0.54384 0.0
C4383 C 0.70059 0.94359 0.52927 0.0
C4384 C 0.70369 0.93395 0.51584 0.0
H4385 H 0.61815 0.97511 0.49552 0.0
H4386 H 0.64049 0.96308 0.4984 0.0
C4387 C 0.71659 0.92723 0.51708 0.0
C4388 C 0.68689 0.95082 0.52799 0.0
H4389 H 0.64866 0.94184 0.51872 0.0
C4390 C 0.68856 0.96752 0.53123 0.0
C4391 C 0.67228 0.94144 0.52356 0.0
C4392 C 0.66959 0.92342 0.52068 0.0
C4393 C 0.67611 0.9751 0.52985 0.0
C4394 C 0.66152 0.96572 0.52536 0.0
C4395 C 0.65984 0.94903 0.52214 0.0
C4396 C 0.64787 0.97298 0.52379 0.0
C4397 C 0.67875 0.99311 0.5328 0.0
C4398 C 0.64438 0.98234 0.53718 0.0
C4399 C 0.63166 0.98937 0.53555 0.0
C4400 C 0.62205 0.98709 0.52049 0.0
C4401 C 0.6254 0.97736 0.50722 0.0
C4402 C 0.63813 0.97038 0.50887 0.0
H4403 H 0.69044 0.99853 0.53177 0.0
H4404 H 0.67097 0.99778 0.52402 0.0
H4405 H 0.67676 0.99705 0.54534 0.0
H4406 H 0.65153 0.98426 0.54892 0.0
H4407 H 0.62955 0.99687 0.54601 0.0
H4408 H 0.38804 0.41773 0.75291 0.0
H4409 H 0.37177 0.39229 0.75413 0.0
H4410 H 0.33287 0.41252 0.74036 0.0
H4411 H 0.34901 0.4379 0.73856 0.0
H4412 H 0.33266 0.3959 0.76903 0.0
H4413 H 0.34602 0.36014 0.71483 0.0
H4414 H 0.36181 0.37129 0.72909 0.0
H4415 H 0.34956 0.38173 0.71773 0.0
C4416 C 0.37605 0.41673 0.74982 0.0
C4417 C 0.36988 0.42992 0.74556 0.0
C4418 C 0.36677 0.40218 0.7506 0.0
C4419 C 0.35116 0.40052 0.74719 0.0
C4420 C 0.34492 0.41359 0.743 0.0
H4421 H 0.28143 0.31571 0.73389 0.0
H4422 H 0.29821 0.34041 0.73078 0.0
C4423 C 0.35418 0.42812 0.74209 0.0
C4424 C 0.3413 0.38529 0.74851 0.0
H4425 H 0.33092 0.34614 0.73152 0.0
C4426 C 0.33224 0.38502 0.76083 0.0
C4427 C 0.34075 0.37119 0.73771 0.0
C4428 C 0.34995 0.37102 0.72399 0.0
C4429 C 0.32275 0.37089 0.76276 0.0
C4430 C 0.32241 0.35672 0.75214 0.0
C4431 C 0.33131 0.35704 0.73969 0.0
C4432 C 0.31272 0.34149 0.75371 0.0
C4433 C 0.31304 0.37125 0.77602 0.0
C4434 C 0.31552 0.33387 0.76749 0.0
C4435 C 0.30599 0.31983 0.76928 0.0
C4436 C 0.29357 0.31315 0.75725 0.0
C4437 C 0.29093 0.32064 0.74332 0.0
C4438 C 0.3005 0.33469 0.74152 0.0
H4439 H 0.31235 0.38365 0.78093 0.0
H4440 H 0.30153 0.36445 0.77136 0.0
H4441 H 0.31784 0.36553 0.78623 0.0
H4442 H 0.325 0.33887 0.77693 0.0
H4443 H 0.30822 0.31432 0.78018 0.0
H4444 H 0.18261 0.59962 0.2734 0.0
H4445 H 0.19423 0.62717 0.27204 0.0
H4446 H 0.23772 0.61666 0.28758 0.0
H4447 H 0.22612 0.58906 0.28919 0.0
H4448 H 0.23739 0.645 0.30202 0.0
H4449 H 0.21436 0.64529 0.23752 0.0
H4450 H 0.19973 0.64078 0.24949 0.0
H4451 H 0.2125 0.62723 0.24681 0.0
C4452 C 0.19468 0.60299 0.27635 0.0
C4453 C 0.20327 0.59166 0.28125 0.0
C4454 C 0.2014 0.61894 0.27551 0.0
C4455 C 0.21707 0.62431 0.27926 0.0
C4456 C 0.22566 0.61313 0.28447 0.0
H4457 H 0.26313 0.71292 0.24869 0.0
H4458 H 0.25177 0.68562 0.25146 0.0
C4459 C 0.21893 0.59717 0.28544 0.0
C4460 C 0.22441 0.64146 0.278 0.0
H4461 H 0.22573 0.67059 0.25275 0.0
C4462 C 0.23482 0.6505 0.29117 0.0
C4463 C 0.22151 0.64896 0.26383 0.0
C4464 C 0.21155 0.64002 0.24855 0.0
C4465 C 0.24205 0.66647 0.29071 0.0
C4466 C 0.23864 0.6742 0.27682 0.0
C4467 C 0.22839 0.66508 0.26357 0.0
C4468 C 0.24588 0.69137 0.27545 0.0
C4469 C 0.25371 0.67465 0.30503 0.0
C4470 C 0.24648 0.70429 0.28784 0.0
C4471 C 0.25326 0.7201 0.28635 0.0
C4472 C 0.25945 0.72371 0.27227 0.0
C4473 C 0.25859 0.71084 0.25978 0.0
C4474 C 0.25198 0.69505 0.26135 0.0
H4475 H 0.25847 0.66585 0.31189 0.0
H4476 H 0.26304 0.68258 0.30103 0.0
H4477 H 0.24843 0.68196 0.31358 0.0
H4478 H 0.24152 0.70225 0.29867 0.0
H4479 H 0.25347 0.72955 0.29621 0.0
H4480 H 0.53678 0.68857 0.46437 0.0
H4481 H 0.539 0.66394 0.47561 0.0
H4482 H 0.4939 0.64292 0.45264 0.0
H4483 H 0.49197 0.66699 0.44023 0.0
H4484 H 0.52489 0.6491 0.4963 0.0
H4485 H 0.51439 0.60798 0.43808 0.0
H4486 H 0.51735 0.62938 0.43871 0.0
H4487 H 0.4992 0.61824 0.44043 0.0
C4488 C 0.52741 0.67863 0.46135 0.0
C4489 C 0.51424 0.67989 0.45114 0.0
C4490 C 0.52866 0.66455 0.46798 0.0
C4491 C 0.51675 0.65135 0.46472 0.0
C4492 C 0.50344 0.6527 0.45497 0.0
H4493 H 0.50205 0.5582 0.49871 0.0
H4494 H 0.49925 0.58297 0.48765 0.0
C4495 C 0.50226 0.66668 0.44811 0.0
C4496 C 0.51818 0.6364 0.47189 0.0
H4497 H 0.51434 0.59588 0.4624 0.0
C4498 C 0.52265 0.63749 0.48884 0.0
C4499 C 0.51532 0.62117 0.46221 0.0
C4500 C 0.51146 0.61911 0.44384 0.0
C4501 C 0.52412 0.62386 0.49636 0.0
C4502 C 0.52106 0.60868 0.4867 0.0
C4503 C 0.51656 0.60753 0.4698 0.0
C4504 C 0.52273 0.59387 0.49387 0.0
C4505 C 0.52874 0.62576 0.51463 0.0
C4506 C 0.53687 0.59174 0.50095 0.0
C4507 C 0.53852 0.5776 0.50724 0.0
C4508 C 0.52604 0.56527 0.50659 0.0
C4509 C 0.51187 0.56748 0.49956 0.0
C4510 C 0.51025 0.58161 0.49317 0.0
H4511 H 0.52729 0.63749 0.5207 0.0
H4512 H 0.52215 0.6161 0.51998 0.0
H4513 H 0.54075 0.625 0.51736 0.0
H4514 H 0.54669 0.60093 0.50137 0.0
H4515 H 0.54962 0.5763 0.51248 0.0
H4516 H 0.63761 0.27105 0.66145 0.0
H4517 H 0.66163 0.26841 0.67651 0.0
H4518 H 0.65184 0.29471 0.71969 0.0
H4519 H 0.62762 0.29706 0.70486 0.0
H4520 H 0.68605 0.29209 0.69299 0.0
H4521 H 0.66166 0.2536 0.73565 0.0
H4522 H 0.6508 0.2571 0.71718 0.0
H4523 H 0.65476 0.27191 0.73503 0.0
C4524 C 0.64048 0.27616 0.6742 0.0
C4525 C 0.63055 0.28416 0.68195 0.0
C4526 C 0.65429 0.27473 0.68276 0.0
C4527 C 0.65848 0.28114 0.69931 0.0
C4528 C 0.64876 0.28942 0.70701 0.0
H4529 H 0.732 0.28633 0.77639 0.0
H4530 H 0.70895 0.28737 0.7586 0.0
C4531 C 0.63496 0.2909 0.69845 0.0
C4532 C 0.67296 0.27915 0.70854 0.0
H4533 H 0.68783 0.26368 0.74158 0.0
C4534 C 0.68646 0.28579 0.70355 0.0
C4535 C 0.67351 0.27085 0.72227 0.0
C4536 C 0.65942 0.26282 0.7278 0.0
C4537 C 0.70047 0.2849 0.7123 0.0
C4538 C 0.70102 0.27683 0.72622 0.0
C4539 C 0.68748 0.26989 0.73095 0.0
C4540 C 0.71539 0.27623 0.7367 0.0
C4541 C 0.71453 0.29315 0.7069 0.0
C4542 C 0.72679 0.26949 0.73042 0.0
C4543 C 0.74014 0.26897 0.74065 0.0
C4544 C 0.74224 0.27506 0.75734 0.0
C4545 C 0.73075 0.28158 0.76358 0.0
C4546 C 0.71753 0.28217 0.75341 0.0
H4547 H 0.71218 0.30205 0.6987 0.0
H4548 H 0.7229 0.29931 0.71758 0.0
H4549 H 0.71958 0.28412 0.70009 0.0
H4550 H 0.72531 0.26446 0.71768 0.0
H4551 H 0.74871 0.26369 0.73555 0.0
H4552 H 0.04482 0.34583 0.95575 0.0
H4553 H 0.04601 0.37364 0.96721 0.0
H4554 H 0.99868 0.36344 0.9696 0.0
H4555 H 0.99742 0.3356 0.95829 0.0
H4556 H 0.03195 0.39587 0.95513 0.0
H4557 H 0.01491 0.3859 0.01511 0.0
H4558 H 0.01994 0.37035 1.00169 0.0
H4559 H 1.00155 0.37518 0.9981 0.0
C4560 C 0.03467 0.34949 0.95875 0.0
C4561 C 0.02105 0.33845 0.9562 0.0
C4562 C 0.03537 0.36539 0.96535 0.0
C4563 C 0.0225 0.37059 0.96956 0.0
C4564 C 0.00886 0.35963 0.96691 0.0
H4565 H 1.00421 0.46402 1.00384 0.0
H4566 H 1.00238 0.4357 0.99374 0.0
C4567 C 0.00816 0.3437 0.96041 0.0
C4568 C 0.02325 0.38762 0.97608 0.0
H4569 H 0.01624 0.41221 0.00823 0.0
C4570 C 0.0286 0.39943 0.96679 0.0
C4571 C 0.01881 0.39229 0.99127 0.0
C4572 C 0.01362 0.38028 1.0022 0.0
C4573 C 0.02947 0.41572 0.97216 0.0
C4574 C 0.02505 0.42036 0.98733 0.0
C4575 C 0.0196 0.40859 0.99659 0.0
C4576 C 0.02621 0.4374 0.9939 0.0
C4577 C 0.03489 0.42784 0.96143 0.0
C4578 C 0.04025 0.44764 0.99764 0.0
C4579 C 0.04135 0.4638 1.00344 0.0
C4580 C 0.02842 0.47002 1.00565 0.0
C4581 C 0.01439 0.45964 1.00223 0.0
C4582 C 0.01331 0.44345 0.99646 0.0
H4583 H 0.03427 0.42226 0.9486 0.0
H4584 H 0.02823 0.43749 0.96152 0.0
H4585 H 0.04677 0.43336 0.96614 0.0
H4586 H 0.05037 0.44314 0.99604 0.0
H4587 H 0.05233 0.47143 0.00599 0.0
H4588 H 0.96517 0.76666 0.1545 0.0
H4589 H 0.94268 0.76575 0.16738 0.0
H4590 H 0.96887 0.79423 0.21089 0.0
H4591 H 0.99155 0.79494 0.19827 0.0
H4592 H 0.93663 0.75393 0.19648 0.0
H4593 H 0.93478 0.81857 0.20018 0.0
H4594 H 0.94621 0.80915 0.1875 0.0
H4595 H 0.95226 0.81419 0.20915 0.0
C4596 C 0.96625 0.77262 0.16688 0.0
C4597 C 0.98029 0.78088 0.17531 0.0
C4598 C 0.95331 0.77216 0.17418 0.0
C4599 C 0.95404 0.78009 0.19001 0.0
C4600 C 0.96799 0.78829 0.19853 0.0
H4601 H 0.88878 0.7918 0.25483 0.0
H4602 H 0.91118 0.7926 0.2418 0.0
C4603 C 0.98096 0.78871 0.19126 0.0
C4604 C 0.94022 0.77952 0.19767 0.0
H4605 H 0.91742 0.8029 0.21337 0.0
C4606 C 0.93238 0.76462 0.20012 0.0
C4607 C 0.93471 0.79348 0.20244 0.0
C4608 C 0.94232 0.80975 0.19958 0.0
C4609 C 0.91936 0.76333 0.20749 0.0
C4610 C 0.91381 0.7773 0.21222 0.0
C4611 C 0.92165 0.79219 0.20974 0.0
C4612 C 0.90002 0.77677 0.21995 0.0
C4613 C 0.91193 0.74706 0.21056 0.0
C4614 C 0.88617 0.7678 0.21192 0.0
C4615 C 0.87327 0.76735 0.21934 0.0
C4616 C 0.87391 0.77601 0.23488 0.0
C4617 C 0.88778 0.78515 0.24277 0.0
C4618 C 0.90065 0.78556 0.23537 0.0
H4619 H 0.91973 0.73849 0.21051 0.0
H4620 H 0.90769 0.74776 0.22244 0.0
H4621 H 0.90228 0.74221 0.20073 0.0
H4622 H 0.88529 0.76124 0.19984 0.0
H4623 H 0.86277 0.76038 0.21279 0.0
H4624 H 0.51689 0.31719 0.10978 0.0
H4625 H 0.51837 0.3411 0.09623 0.0
H4626 H 0.55907 0.36301 0.12889 0.0
H4627 H 0.55746 0.33929 0.14284 0.0
H4628 H 0.53683 0.38285 0.12383 0.0
H4629 H 0.55041 0.35313 0.06636 0.0
H4630 H 0.53418 0.34279 0.07334 0.0
H4631 H 0.55234 0.34494 0.08538 0.0
C4632 C 0.52603 0.32719 0.1142 0.0
C4633 C 0.53709 0.32646 0.12728 0.0
C4634 C 0.52693 0.34071 0.10638 0.0
C4635 C 0.53893 0.35356 0.11151 0.0
C4636 C 0.5498 0.35306 0.12479 0.0
H4637 H 0.56108 0.42907 0.05372 0.0
H4638 H 0.56282 0.40879 0.07186 0.0
C4639 C 0.54891 0.33954 0.13263 0.0
C4640 C 0.54017 0.3675 0.10287 0.0
H4641 H 0.5443 0.37888 0.06573 0.0
C4642 C 0.53858 0.3821 0.11118 0.0
C4643 C 0.54267 0.36632 0.08648 0.0
C4644 C 0.54514 0.35099 0.07737 0.0
C4645 C 0.53898 0.39562 0.10323 0.0
C4646 C 0.54081 0.39425 0.08663 0.0
C4647 C 0.54283 0.37976 0.07849 0.0
C4648 C 0.54022 0.40756 0.0772 0.0
C4649 C 0.53744 0.4112 0.11262 0.0
C4650 C 0.52694 0.41348 0.07439 0.0
C4651 C 0.52589 0.42497 0.06401 0.0
C4652 C 0.53807 0.4305 0.05625 0.0
C4653 C 0.55148 0.42482 0.05943 0.0
C4654 C 0.55253 0.41336 0.06982 0.0
H4655 H 0.54024 0.41134 0.12601 0.0
H4656 H 0.5448 0.42146 0.10896 0.0
H4657 H 0.52568 0.41287 0.10994 0.0
H4658 H 0.51724 0.40881 0.07975 0.0
H4659 H 0.51539 0.42907 0.06157 0.0
H4660 H 0.94264 0.26416 0.34641 0.0
H4661 H 0.91643 0.26274 0.33601 0.0
H4662 H 0.92884 0.28925 0.29731 0.0
H4663 H 0.95524 0.28948 0.30675 0.0
H4664 H 0.90294 0.2872 0.33484 0.0
H4665 H 0.89659 0.25414 0.27234 0.0
H4666 H 0.91294 0.25533 0.28738 0.0
H4667 H 0.91099 0.27175 0.27612 0.0
C4668 C 0.93988 0.26918 0.33532 0.0
C4669 C 0.9511 0.2768 0.32733 0.0
C4670 C 0.92486 0.26855 0.32954 0.0
C4671 C 0.92073 0.27577 0.31584 0.0
C4672 C 0.93181 0.28331 0.30771 0.0
H4673 H 0.83198 0.29927 0.29781 0.0
H4674 H 0.85892 0.30081 0.30514 0.0
C4675 C 0.9469 0.28364 0.31329 0.0
C4676 C 0.90482 0.27618 0.31084 0.0
H4677 H 0.87602 0.26556 0.2791 0.0
C4678 C 0.89702 0.28242 0.32267 0.0
C4679 C 0.89719 0.26986 0.29498 0.0
C4680 C 0.90482 0.26225 0.28202 0.0
C4681 C 0.88166 0.28221 0.31919 0.0
C4682 C 0.8741 0.2762 0.30323 0.0
C4683 C 0.88194 0.27022 0.2913 0.0
C4684 C 0.85791 0.27542 0.29878 0.0
C4685 C 0.87366 0.28791 0.33279 0.0
C4686 C 0.84858 0.26071 0.29235 0.0
C4687 C 0.83328 0.25985 0.28783 0.0
C4688 C 0.82713 0.27368 0.28988 0.0
C4689 C 0.83646 0.28839 0.2964 0.0
C4690 C 0.85181 0.28929 0.30062 0.0
H4691 H 0.88004 0.28762 0.34501 0.0
H4692 H 0.87245 0.30045 0.33198 0.0
H4693 H 0.86231 0.2805 0.3319 0.0
H4694 H 0.85314 0.24989 0.29083 0.0
H4695 H 0.82629 0.24838 0.28279 0.0
H4696 H 0.06342 0.69399 0.59312 0.0
H4697 H 0.0662 0.67157 0.57355 0.0
H4698 H 0.02766 0.64244 0.58696 0.0
H4699 H 0.02488 0.66466 0.60661 0.0
H4700 H 0.07057 0.64126 0.58002 0.0
H4701 H 0.01823 0.63774 0.53705 0.0
H4702 H 0.02616 0.655 0.5521 0.0
H4703 H 0.0151 0.63766 0.55784 0.0
C4704 C 0.05557 0.68279 0.59189 0.0
C4705 C 0.04388 0.68105 0.60128 0.0
C4706 C 0.05713 0.67007 0.58069 0.0
C4707 C 0.04697 0.65555 0.57868 0.0
C4708 C 0.03537 0.65374 0.5881 0.0
H4709 H 0.04672 0.55945 0.55037 0.0
H4710 H 0.05273 0.58712 0.56335 0.0
C4711 C 0.03379 0.66642 0.59929 0.0
C4712 C 0.04874 0.64196 0.5672 0.0
H4713 H 0.0294 0.61436 0.53573 0.0
C4714 C 0.06173 0.63552 0.5701 0.0
C4715 C 0.03728 0.63473 0.55418 0.0
C4716 C 0.02347 0.64173 0.54999 0.0
C4717 C 0.06315 0.62134 0.56085 0.0
C4718 C 0.05117 0.61344 0.54865 0.0
C4719 C 0.03858 0.62044 0.54514 0.0
C4720 C 0.05055 0.59711 0.54062 0.0
C4721 C 0.07728 0.61479 0.56452 0.0
C4722 C 0.04743 0.59358 0.52353 0.0
C4723 C 0.0438 0.57773 0.51609 0.0
C4724 C 0.0432 0.5653 0.52568 0.0
C4725 C 0.04722 0.56885 0.5427 0.0
C4726 C 0.05076 0.58466 0.55013 0.0
H4727 H 0.08702 0.62454 0.56946 0.0
H4728 H 0.07587 0.60673 0.57394 0.0
H4729 H 0.07981 0.60791 0.55346 0.0
H4730 H 0.04709 0.60307 0.51604 0.0
H4731 H 0.04073 0.57523 0.50293 0.0
H4732 H 0.58497 0.80651 0.8203 0.0
H4733 H 0.60576 0.805 0.80479 0.0
H4734 H 0.61621 0.76546 0.82881 0.0
H4735 H 0.59574 0.76703 0.84452 0.0
H4736 H 0.63701 0.80667 0.8173 0.0
H4737 H 0.61061 0.74899 0.77907 0.0
H4738 H 0.60005 0.76135 0.79004 0.0
H4739 H 0.61048 0.74862 0.80055 0.0
C4740 C 0.59182 0.79762 0.82238 0.0
C4741 C 0.5887 0.78678 0.83347 0.0
C4742 C 0.60357 0.79672 0.81346 0.0
C4743 C 0.61218 0.78491 0.81548 0.0
C4744 C 0.60938 0.77439 0.82687 0.0
H4745 H 0.69756 0.76944 0.80409 0.0
H4746 H 0.67498 0.77735 0.81199 0.0
C4747 C 0.59771 0.77531 0.8358 0.0
C4748 C 0.6244 0.78361 0.80599 0.0
H4749 H 0.63725 0.75694 0.78064 0.0
C4750 C 0.637 0.79596 0.80902 0.0
C4751 C 0.62415 0.7697 0.79506 0.0
C4752 C 0.61053 0.75647 0.79084 0.0
C4753 C 0.64985 0.79428 0.80214 0.0
C4754 C 0.65002 0.77984 0.79223 0.0
C4755 C 0.63706 0.76795 0.78835 0.0
C4756 C 0.66392 0.77614 0.78718 0.0
C4757 C 0.66329 0.80775 0.80594 0.0
C4758 C 0.66495 0.7725 0.7706 0.0
C4759 C 0.67788 0.76799 0.76602 0.0
C4760 C 0.68985 0.76694 0.77799 0.0
C4761 C 0.68867 0.77051 0.79458 0.0
C4762 C 0.6758 0.77505 0.79913 0.0
H4763 H 0.65994 0.81942 0.80912 0.0
H4764 H 0.67093 0.80563 0.8166 0.0
H4765 H 0.66956 0.80849 0.79544 0.0
H4766 H 0.65574 0.7731 0.76126 0.0
H4767 H 0.67853 0.76539 0.75314 0.0
H4768 H 0.4492 0.52956 0.66419 0.0
H4769 H 0.46029 0.53126 0.63916 0.0
H4770 H 0.48917 0.49909 0.65404 0.0
H4771 H 0.47796 0.49714 0.67895 0.0
H4772 H 0.4884 0.54191 0.63478 0.0
H4773 H 0.47196 0.47807 0.60845 0.0
H4774 H 0.46442 0.48639 0.6257 0.0
H4775 H 0.48255 0.48081 0.62857 0.0
C4776 C 0.45792 0.52285 0.66213 0.0
C4777 C 0.46265 0.51313 0.67351 0.0
C4778 C 0.46421 0.52379 0.64779 0.0
C4779 C 0.47534 0.51505 0.64454 0.0
C4780 C 0.48027 0.50556 0.65602 0.0
H4781 H 0.53722 0.51076 0.57686 0.0
H4782 H 0.52222 0.50864 0.59893 0.0
C4783 C 0.47389 0.5045 0.67029 0.0
C4784 C 0.48215 0.51627 0.62941 0.0
H4785 H 0.4905 0.49402 0.59641 0.0
C4786 C 0.48869 0.53146 0.62627 0.0
C4787 C 0.48245 0.50263 0.61827 0.0
C4788 C 0.47483 0.48608 0.62031 0.0
C4789 C 0.49601 0.53331 0.61264 0.0
C4790 C 0.49671 0.51962 0.60184 0.0
C4791 C 0.48993 0.50448 0.60476 0.0
C4792 C 0.50533 0.52066 0.58806 0.0
C4793 C 0.5034 0.5498 0.61018 0.0
C4794 C 0.50065 0.52792 0.57451 0.0
C4795 C 0.50921 0.52909 0.56179 0.0
C4796 C 0.52255 0.52307 0.56256 0.0
C4797 C 0.52703 0.5156 0.57602 0.0
C4798 C 0.51847 0.51434 0.58861 0.0
H4799 H 0.50378 0.55884 0.62095 0.0
H4800 H 0.515 0.54981 0.6077 0.0
H4801 H 0.49703 0.55345 0.59942 0.0
H4802 H 0.49044 0.5327 0.5738 0.0
H4803 H 0.50553 0.53491 0.55154 0.0
H4804 H 0.76955 0.23903 0.99493 0.0
H4805 H 0.7548 0.25326 0.977 0.0
H4806 H 0.75218 0.21582 0.93693 0.0
H4807 H 0.76687 0.20171 0.95459 0.0
H4808 H 0.76507 0.26415 0.95111 0.0
H4809 H 0.71039 0.22485 0.9293 0.0
H4810 H 0.72215 0.22271 0.94781 0.0
H4811 H 0.72489 0.2134 0.9282 0.0
C4812 C 0.76564 0.23379 0.98233 0.0
C4813 C 0.76939 0.21932 0.97609 0.0
C4814 C 0.75707 0.2418 0.97221 0.0
C4815 C 0.75205 0.23537 0.95579 0.0
C4816 C 0.75541 0.22069 0.94972 0.0
H4817 H 0.75509 0.24158 0.86639 0.0
H4818 H 0.74651 0.23662 0.89209 0.0
C4819 C 0.76395 0.2127 0.95979 0.0
C4820 C 0.74588 0.24508 0.94411 0.0
H4821 H 0.72161 0.23976 0.90853 0.0
C4822 C 0.75518 0.25929 0.94214 0.0
C4823 C 0.73289 0.23877 0.93258 0.0
C4824 C 0.72195 0.22416 0.93472 0.0
C4825 C 0.75313 0.26598 0.92767 0.0
C4826 C 0.74125 0.25835 0.91515 0.0
C4827 C 0.73074 0.2455 0.91814 0.0
C4828 C 0.74221 0.2605 0.89806 0.0
C4829 C 0.76479 0.27985 0.92512 0.0
C4830 C 0.74191 0.27531 0.89259 0.0
C4831 C 0.74704 0.27822 0.87797 0.0
C4832 C 0.7524 0.26629 0.86877 0.0
C4833 C 0.75124 0.25102 0.87348 0.0
C4834 C 0.74619 0.24815 0.88804 0.0
H4835 H 0.77374 0.28378 0.93588 0.0
H4836 H 0.77011 0.27651 0.91434 0.0
H4837 H 0.75939 0.29015 0.92277 0.0
H4838 H 0.73873 0.28491 0.90015 0.0
H4839 H 0.74784 0.2901 0.8745 0.0
H4840 H 0.12784 0.52354 0.18759 0.0
H4841 H 0.11446 0.52551 0.16082 0.0
H4842 H 0.07971 0.48662 0.16617 0.0
H4843 H 0.09253 0.48516 0.19336 0.0
H4844 H 0.10699 0.50718 0.13269 0.0
H4845 H 0.05337 0.51602 0.15219 0.0
H4846 H 0.0699 0.51655 0.16672 0.0
H4847 H 0.05831 0.49772 0.1574 0.0
C4848 C 0.1172 0.51554 0.18338 0.0
C4849 C 0.1114 0.50429 0.19324 0.0
C4850 C 0.10955 0.5166 0.16776 0.0
C4851 C 0.09571 0.5065 0.16121 0.0
C4852 C 0.09005 0.495 0.17081 0.0
H4853 H 0.03231 0.49154 0.0693 0.0
H4854 H 0.04655 0.49059 0.09599 0.0
C4855 C 0.09765 0.49398 0.18649 0.0
C4856 C 0.08748 0.50783 0.14437 0.0
H4857 H 0.05322 0.51061 0.12357 0.0
C4858 C 0.09524 0.50804 0.13082 0.0
C4859 C 0.07208 0.50902 0.14148 0.0
C4860 C 0.06297 0.50999 0.15524 0.0
C4861 C 0.08814 0.5089 0.11479 0.0
C4862 C 0.07271 0.5099 0.1119 0.0
C4863 C 0.06497 0.50981 0.12546 0.0
C4864 C 0.06423 0.51056 0.09502 0.0
C4865 C 0.09721 0.50819 0.10099 0.0
C4866 C 0.06908 0.52217 0.0851 0.0
C4867 C 0.06083 0.52273 0.06959 0.0
C4868 C 0.04739 0.51175 0.06349 0.0
C4869 C 0.04258 0.5002 0.07342 0.0
C4870 C 0.05077 0.49967 0.08885 0.0
H4871 H 0.10724 0.50285 0.10415 0.0
H4872 H 0.0904 0.50112 0.08968 0.0
H4873 H 0.10115 0.5205 0.09843 0.0
H4874 H 0.07915 0.53105 0.08945 0.0
H4875 H 0.06491 0.53188 0.06246 0.0
H4876 H 0.76505 0.84491 0.44372 0.0
H4877 H 0.76447 0.83248 0.41569 0.0
H4878 H 0.80779 0.82058 0.42949 0.0
H4879 H 0.80827 0.83267 0.45761 0.0
H4880 H 0.78245 0.84026 0.39427 0.0
H4881 H 0.78538 0.7784 0.40571 0.0
H4882 H 0.78193 0.79325 0.42113 0.0
H4883 H 0.80073 0.79288 0.41721 0.0
C4884 C 0.77441 0.83955 0.44079 0.0
C4885 C 0.78666 0.83967 0.4529 0.0
C4886 C 0.77406 0.83243 0.42478 0.0
C4887 C 0.78596 0.82532 0.42051 0.0
C4888 C 0.79826 0.82553 0.43256 0.0
H4889 H 0.80687 0.78744 0.32655 0.0
H4890 H 0.80795 0.79823 0.35527 0.0
C4891 C 0.79854 0.8325 0.44863 0.0
C4892 C 0.78575 0.81836 0.4033 0.0
H4893 H 0.78859 0.78443 0.37905 0.0
C4894 C 0.78371 0.82802 0.39097 0.0
C4895 C 0.78742 0.80238 0.39895 0.0
C4896 C 0.78884 0.79108 0.41143 0.0
C4897 C 0.7834 0.8222 0.37448 0.0
C4898 C 0.78515 0.8063 0.37021 0.0
C4899 C 0.78732 0.79665 0.38246 0.0
C4900 C 0.78442 0.79941 0.35298 0.0
C4901 C 0.78133 0.8331 0.36172 0.0
C4902 C 0.77078 0.79631 0.34232 0.0
C4903 C 0.77008 0.79006 0.32596 0.0
C4904 C 0.78305 0.78686 0.31995 0.0
C4905 C 0.79669 0.78981 0.33076 0.0
C4906 C 0.79734 0.79596 0.34716 0.0
H4907 H 0.78287 0.8458 0.36724 0.0
H4908 H 0.78935 0.83209 0.35295 0.0
H4909 H 0.76983 0.82948 0.35474 0.0
H4910 H 0.76067 0.79877 0.34666 0.0
H4911 H 0.75939 0.78795 0.31801 0.0
H4912 H 0.46583 0.54379 0.84192 0.0
H4913 H 0.47681 0.54514 0.87055 0.0
H4914 H 0.48179 0.49598 0.86154 0.0
H4915 H 0.471 0.4946 0.83289 0.0
H4916 H 0.46687 0.52823 0.89362 0.0
H4917 H 0.52311 0.51691 0.88446 0.0
H4918 H 0.51014 0.5215 0.86825 0.0
H4919 H 0.50821 0.50154 0.87351 0.0
C4920 C 0.46932 0.53329 0.84604 0.0
C4921 C 0.46765 0.51912 0.83512 0.0
C4922 C 0.47562 0.53409 0.86238 0.0
C4923 C 0.48037 0.52075 0.86813 0.0
C4924 C 0.47861 0.50656 0.85729 0.0
H4925 H 0.51299 0.4965 0.962 0.0
H4926 H 0.50291 0.4969 0.93352 0.0
C4927 C 0.47242 0.50578 0.84092 0.0
C4928 C 0.4866 0.52151 0.8856 0.0
H4929 H 0.51681 0.51558 0.91118 0.0
C4930 C 0.47785 0.52561 0.89747 0.0
C4931 C 0.50093 0.51807 0.8906 0.0
C4932 C 0.51121 0.51441 0.87855 0.0
C4933 C 0.48289 0.526 0.91417 0.0
C4934 C 0.4971 0.52234 0.91911 0.0
C4935 C 0.5059 0.51834 0.9073 0.0
C4936 C 0.50294 0.52227 0.93649 0.0
C4937 C 0.47285 0.52993 0.9264 0.0
C4938 C 0.50637 0.53646 0.94755 0.0
C4939 C 0.51218 0.53631 0.9639 0.0
C4940 C 0.51464 0.52195 0.96941 0.0
C4941 C 0.51116 0.50777 0.95823 0.0
C4942 C 0.50543 0.50795 0.94192 0.0
H4943 H 0.46113 0.52922 0.92046 0.0
H4944 H 0.47284 0.52169 0.93576 0.0
H4945 H 0.47713 0.54227 0.93276 0.0
H4946 H 0.50472 0.54767 0.94351 0.0
H4947 H 0.51477 0.54744 0.97217 0.0
H4948 H 0.80987 0.24384 0.10926 0.0
H4949 H 0.80988 0.2568 0.13674 0.0
H4950 H 0.84073 0.22841 0.15617 0.0
H4951 H 0.83997 0.21455 0.12873 0.0
H4952 H 0.81748 0.22659 0.17153 0.0
H4953 H 0.83844 0.2902 0.16818 0.0
H4954 H 0.82322 0.28226 0.15197 0.0
H4955 H 0.84032 0.27448 0.15268 0.0
C4956 C 0.81673 0.24042 0.11936 0.0
C4957 C 0.82481 0.22808 0.11688 0.0
C4958 C 0.81694 0.24804 0.13503 0.0
C4959 C 0.82554 0.24376 0.14843 0.0
C4960 C 0.83416 0.23197 0.14592 0.0
H4961 H 0.81941 0.29331 0.24418 0.0
H4962 H 0.82995 0.28295 0.22056 0.0
C4963 C 0.83379 0.22415 0.13025 0.0
C4964 C 0.82394 0.2502 0.16509 0.0
H4965 H 0.82218 0.28477 0.18857 0.0
C4966 C 0.81885 0.23933 0.17543 0.0
C4967 C 0.82592 0.2668 0.17023 0.0
C4968 C 0.83244 0.27907 0.16021 0.0
C4969 C 0.8148 0.24462 0.1904 0.0
C4970 C 0.81547 0.26114 0.19479 0.0
C4971 C 0.82145 0.27207 0.18497 0.0
C4972 C 0.80923 0.26727 0.20903 0.0
C4973 C 0.8096 0.23245 0.20119 0.0
C4974 C 0.79405 0.26212 0.21003 0.0
C4975 C 0.78805 0.26799 0.22343 0.0
C4976 C 0.79715 0.27917 0.23587 0.0
C4977 C 0.81222 0.28468 0.23465 0.0
C4978 C 0.81824 0.27874 0.22128 0.0
H4979 H 0.81444 0.22153 0.19893 0.0
H4980 H 0.81273 0.23741 0.21433 0.0
H4981 H 0.79722 0.22883 0.19843 0.0
H4982 H 0.78684 0.2536 0.20043 0.0
H4983 H 0.77636 0.2637 0.22413 0.0
H4984 H 0.13546 0.50792 0.37842 0.0
H4985 H 0.12285 0.5098 0.40246 0.0
H4986 H 0.08172 0.51145 0.3718 0.0
H4987 H 0.09402 0.50887 0.34765 0.0
H4988 H 0.10993 0.53145 0.41745 0.0
H4989 H 0.06493 0.47841 0.39746 0.0
H4990 H 0.08064 0.48263 0.38667 0.0
H4991 H 0.065 0.49262 0.38328 0.0
C4992 C 0.12366 0.50838 0.37657 0.0
C4993 C 0.11598 0.50805 0.36057 0.0
C4994 C 0.11639 0.50963 0.39057 0.0
C4995 C 0.10103 0.51046 0.38936 0.0
C4996 C 0.09339 0.51039 0.37346 0.0
H4997 H 0.03578 0.5172 0.45869 0.0
H4998 H 0.04898 0.51547 0.43508 0.0
C4999 C 0.10064 0.50915 0.35945 0.0
C5000 C 0.09321 0.51173 0.40459 0.0
H5001 H 0.06236 0.49546 0.42094 0.0
C5002 C 0.09956 0.52346 0.41815 0.0
C5003 C 0.07956 0.50149 0.40597 0.0
C5004 C 0.0722 0.48798 0.39265 0.0
C5005 C 0.09267 0.52551 0.43243 0.0
C5006 C 0.07901 0.51527 0.43382 0.0
C5007 C 0.07271 0.50348 0.42027 0.0
C5008 C 0.07095 0.51663 0.44888 0.0
C5009 C 0.09996 0.53917 0.44564 0.0
C5010 C 0.07848 0.51773 0.46506 0.0
C5011 C 0.07086 0.51893 0.4788 0.0
C5012 C 0.05529 0.5188 0.47702 0.0
C5013 C 0.04773 0.51744 0.46085 0.0
C5014 C 0.05536 0.51638 0.44715 0.0
H5015 H 0.10708 0.54876 0.4407 0.0
H5016 H 0.09148 0.54447 0.45161 0.0
H5017 H 0.10731 0.53472 0.45503 0.0
H5018 H 0.0903 0.5174 0.46717 0.0
H5019 H 0.07721 0.51976 0.49087 0.0
H5020 H 0.80458 0.86451 0.63 0.0
H5021 H 0.80379 0.85111 0.65437 0.0
H5022 H 0.78149 0.80705 0.62434 0.0
H5023 H 0.78259 0.8202 0.59987 0.0
H5024 H 0.77836 0.83541 0.66596 0.0
H5025 H 0.81652 0.79376 0.65199 0.0
H5026 H 0.81535 0.81098 0.64164 0.0
H5027 H 0.80122 0.79317 0.63597 0.0
C5028 C 0.79969 0.85191 0.62853 0.0
C5029 C 0.79373 0.84343 0.61292 0.0
C5030 C 0.79916 0.8443 0.6425 0.0
C5031 C 0.79277 0.82803 0.64116 0.0
C5032 C 0.78671 0.81955 0.62564 0.0
H5033 H 0.77733 0.75924 0.70857 0.0
H5034 H 0.77997 0.77326 0.68482 0.0
C5035 C 0.78721 0.82714 0.61168 0.0
C5036 C 0.79214 0.82001 0.65603 0.0
H5037 H 0.80362 0.78966 0.67444 0.0
C5038 C 0.78395 0.82546 0.66789 0.0
C5039 C 0.79938 0.807 0.65848 0.0
C5040 C 0.80873 0.80093 0.64643 0.0
C5041 C 0.7825 0.81802 0.68193 0.0
C5042 C 0.78979 0.805 0.68441 0.0
C5043 C 0.79805 0.79963 0.67258 0.0
C5044 C 0.78871 0.79653 0.69898 0.0
C5045 C 0.77276 0.82385 0.69366 0.0
C5046 C 0.7931 0.80484 0.71488 0.0
C5047 C 0.79149 0.79686 0.72848 0.0
C5048 C 0.78568 0.78036 0.72643 0.0
C5049 C 0.78184 0.77195 0.71053 0.0
C5050 C 0.78333 0.77996 0.69695 0.0
H5051 H 0.76468 0.83052 0.68773 0.0
H5052 H 0.76638 0.81376 0.69862 0.0
H5053 H 0.77995 0.83209 0.70402 0.0
H5054 H 0.79768 0.81753 0.71681 0.0
H5055 H 0.79458 0.80365 0.74059 0.0
H5056 H 0.68042 0.39456 0.55076 0.0
H5057 H 0.66415 0.41285 0.55912 0.0
H5058 H 0.67419 0.43987 0.52005 0.0
H5059 H 0.69071 0.42203 0.51188 0.0
H5060 H 0.67291 0.4483 0.56722 0.0
H5061 H 0.62718 0.42698 0.5146 0.0
H5062 H 0.64088 0.41517 0.52088 0.0
H5063 H 0.64567 0.43117 0.50923 0.0
C5064 C 0.67919 0.40444 0.54401 0.0
C5065 C 0.68668 0.40678 0.53056 0.0
C5066 C 0.6699 0.41479 0.54877 0.0
C5067 C 0.66792 0.42746 0.54002 0.0
C5068 C 0.67545 0.42993 0.52672 0.0
H5069 H 0.63926 0.51554 0.55383 0.0
H5070 H 0.65325 0.49376 0.55422 0.0
C5071 C 0.68479 0.41968 0.52202 0.0
C5072 C 0.65811 0.43836 0.54479 0.0
H5073 H 0.62702 0.45202 0.53016 0.0
C5074 C 0.66272 0.449 0.55932 0.0
C5075 C 0.64484 0.43902 0.53443 0.0
C5076 C 0.63924 0.42739 0.51897 0.0
C5077 C 0.65465 0.46092 0.56343 0.0
C5078 C 0.64184 0.46217 0.55259 0.0
C5079 C 0.63689 0.45102 0.53843 0.0
C5080 C 0.6339 0.47553 0.55496 0.0
C5081 C 0.66002 0.4722 0.57915 0.0
C5082 C 0.61844 0.47241 0.55521 0.0
C5083 C 0.6104 0.48474 0.55466 0.0
C5084 C 0.61773 0.50039 0.55387 0.0
C5085 C 0.63334 0.50359 0.55437 0.0
C5086 C 0.64136 0.49121 0.55481 0.0
H5087 H 0.66683 0.46676 0.58821 0.0
H5088 H 0.6672 0.48316 0.5766 0.0
H5089 H 0.65047 0.47572 0.58463 0.0
H5090 H 0.6125 0.46032 0.55512 0.0
H5091 H 0.59833 0.48182 0.55395 0.0
H5092 H 0.19661 0.08664 0.52012 0.0
H5093 H 0.17132 0.07342 0.52257 0.0
H5094 H 0.15269 0.10171 0.48855 0.0
H5095 H 0.17795 0.11503 0.48603 0.0
H5096 H 0.14855 0.08599 0.53344 0.0
H5097 H 0.1304 0.05729 0.46919 0.0
H5098 H 0.1497 0.06602 0.4772 0.0
H5099 H 0.13664 0.07853 0.47135 0.0
C5100 C 0.18715 0.0901 0.51315 0.0
C5101 C 0.18941 0.10191 0.50282 0.0
C5102 C 0.17267 0.08246 0.51453 0.0
C5103 C 0.16003 0.08635 0.50557 0.0
C5104 C 0.16221 0.09816 0.49528 0.0
H5105 H 0.06356 0.05023 0.50264 0.0
H5106 H 0.08771 0.06624 0.49941 0.0
C5107 C 0.17672 0.10579 0.49386 0.0
C5108 C 0.14464 0.07839 0.50748 0.0
H5109 H 0.11189 0.05548 0.48659 0.0
C5110 C 0.14056 0.07931 0.52318 0.0
C5111 C 0.13411 0.06972 0.4941 0.0
C5112 C 0.13794 0.06767 0.47703 0.0
C5113 C 0.12634 0.07186 0.52587 0.0
C5114 C 0.1159 0.06301 0.51255 0.0
C5115 C 0.11986 0.0623 0.4968 0.0
C5116 C 0.10117 0.05372 0.51484 0.0
C5117 C 0.12257 0.07367 0.54298 0.0
C5118 C 0.10066 0.04131 0.5245 0.0
C5119 C 0.08693 0.03218 0.52633 0.0
C5120 C 0.07337 0.03517 0.51848 0.0
C5121 C 0.07382 0.04766 0.50888 0.0
C5122 C 0.08762 0.05679 0.50699 0.0
H5123 H 0.12975 0.08435 0.55071 0.0
H5124 H 0.11064 0.07466 0.54288 0.0
H5125 H 0.12448 0.06299 0.54872 0.0
H5126 H 0.11092 0.03849 0.53043 0.0
H5127 H 0.08696 0.02262 0.53376 0.0
H5128 H 0.20588 0.98155 0.79527 0.0
H5129 H 0.21852 0.95872 0.79484 0.0
H5130 H 0.17578 0.92667 0.78849 0.0
H5131 H 0.16299 0.94931 0.78788 0.0
H5132 H 0.21867 0.93672 0.81523 0.0
H5133 H 0.19486 0.90696 0.75245 0.0
H5134 H 0.19307 0.92707 0.75968 0.0
H5135 H 0.18075 0.91025 0.76475 0.0
C5136 C 0.19914 0.96964 0.79346 0.0
C5137 C 0.18341 0.96728 0.7915 0.0
C5138 C 0.20639 0.95661 0.79336 0.0
C5139 C 0.19807 0.941 0.79135 0.0
C5140 C 0.1824 0.9386 0.78966 0.0
H5141 H 0.23257 0.85781 0.81705 0.0
H5142 H 0.21979 0.88051 0.81577 0.0
C5143 C 0.17512 0.95159 0.78958 0.0
C5144 C 0.20583 0.92728 0.79154 0.0
H5145 H 0.20794 0.89186 0.76966 0.0
C5146 C 0.2164 0.92695 0.80523 0.0
C5147 C 0.20296 0.91466 0.77838 0.0
C5148 C 0.1924 0.91479 0.76292 0.0
C5149 C 0.22404 0.91421 0.80624 0.0
C5150 C 0.22071 0.90129 0.79338 0.0
C5151 C 0.21032 0.90172 0.77957 0.0
C5152 C 0.22805 0.88729 0.79391 0.0
C5153 C 0.23578 0.91486 0.82092 0.0
C5154 C 0.23647 0.88328 0.78172 0.0
C5155 C 0.2437 0.87027 0.78236 0.0
C5156 C 0.24259 0.86105 0.7952 0.0
C5157 C 0.23384 0.86488 0.80717 0.0
C5158 C 0.22657 0.87784 0.80648 0.0
H5159 H 0.23989 0.92728 0.82721 0.0
H5160 H 0.23082 0.90765 0.82979 0.0
H5161 H 0.24549 0.9099 0.81739 0.0
H5162 H 0.23768 0.89041 0.77187 0.0
H5163 H 0.25047 0.8677 0.77304 0.0
H5164 H 0.31138 0.94673 0.01872 0.0
H5165 H 0.3344 0.96571 0.01796 0.0
H5166 H 0.35872 0.92697 0.01485 0.0
H5167 H 0.33572 0.90787 0.01451 0.0
H5168 H 0.36175 0.97302 0.0377 0.0
H5169 H 0.36739 0.94783 0.97517 0.0
H5170 H 0.35054 0.94253 0.98391 0.0
H5171 H 0.3663 0.93301 0.98871 0.0
C5172 C 0.3216 0.94224 0.01769 0.0
C5173 C 0.32167 0.92577 0.01651 0.0
C5174 C 0.33474 0.95311 0.01742 0.0
C5175 C 0.34813 0.94766 0.01602 0.0
C5176 C 0.34839 0.93134 0.01557 0.0
H5177 H 0.43959 0.99533 0.03417 0.0
H5178 H 0.41406 0.98336 0.03676 0.0
C5179 C 0.33526 0.92046 0.01562 0.0
C5180 C 0.36182 0.95891 0.01463 0.0
H5181 H 0.38903 0.96521 0.99074 0.0
C5182 C 0.36766 0.97149 0.02736 0.0
C5183 C 0.36928 0.95703 1.00095 0.0
C5184 C 0.36297 0.94447 0.98634 0.0
C5185 C 0.38117 0.98191 0.02705 0.0
C5186 C 0.38912 0.97935 0.01387 0.0
C5187 C 0.38296 0.96711 1.00089 0.0
C5188 C 0.40415 0.98864 0.01343 0.0
C5189 C 0.38674 0.99551 0.04081 0.0
C5190 C 0.40708 0.99549 0.99942 0.0
C5191 C 0.42172 1.00179 0.99763 0.0
C5192 C 0.43371 1.00152 0.00991 0.0
C5193 C 0.43064 0.99549 0.02436 0.0
C5194 C 0.416 0.98891 0.026 0.0
H5195 H 0.37731 0.99914 0.04648 0.0
H5196 H 0.39427 0.99157 0.05044 0.0
H5197 H 0.39307 1.00608 0.03653 0.0
H5198 H 0.39809 0.9953 0.98952 0.0
H5199 H 0.42366 1.00609 0.98623 0.0
H5200 H 0.88301 0.6333 0.7733 0.0
H5201 H 0.87094 0.6565 0.77391 0.0
H5202 H 0.83031 0.62727 0.74709 0.0
H5203 H 0.84228 0.60403 0.74602 0.0
H5204 H 0.85916 0.67311 0.75165 0.0
H5205 H 0.81234 0.64868 0.78258 0.0
H5206 H 0.82808 0.63891 0.78081 0.0
H5207 H 0.81309 0.63645 0.7639 0.0
C5208 C 0.87154 0.63153 0.76733 0.0
C5209 C 0.86393 0.61609 0.75965 0.0
C5210 C 0.8645 0.6451 0.76781 0.0
C5211 C 0.84938 0.64405 0.76088 0.0
C5212 C 0.84177 0.62876 0.75307 0.0
H5213 H 0.7856 0.71186 0.75455 0.0
H5214 H 0.79812 0.68883 0.75317 0.0
C5215 C 0.84882 0.6152 0.75247 0.0
C5216 C 0.84181 0.65883 0.76156 0.0
H5217 H 0.8109 0.67304 0.77223 0.0
C5218 C 0.84863 0.67301 0.75624 0.0
C5219 C 0.82793 0.65921 0.76744 0.0
C5220 C 0.81998 0.64507 0.77416 0.0
C5221 C 0.84203 0.68694 0.7562 0.0
C5222 C 0.82817 0.68737 0.76219 0.0
C5223 C 0.8214 0.67318 0.76756 0.0
C5224 C 0.82046 0.7021 0.76285 0.0
C5225 C 0.84986 0.70083 0.74901 0.0
C5226 C 0.82835 0.71783 0.76891 0.0
C5227 C 0.82112 0.73124 0.76944 0.0
C5228 C 0.80554 0.72964 0.7643 0.0
C5229 C 0.79758 0.71391 0.75856 0.0
C5230 C 0.80484 0.70053 0.75783 0.0
H5231 H 0.85694 0.69686 0.74011 0.0
H5232 H 0.84173 0.70719 0.7427 0.0
H5233 H 0.85736 0.70936 0.75893 0.0
H5234 H 0.84019 0.71985 0.77358 0.0
H5235 H 0.82779 0.74292 0.77418 0.0
H5236 H 0.83729 0.60491 0.03134 0.0
H5237 H 0.85989 0.59337 0.03323 0.0
H5238 H 0.86352 0.59959 0.98323 0.0
H5239 H 0.84134 0.6119 0.98146 0.0
H5240 H 0.8656 0.56689 0.01635 0.0
H5241 H 0.90532 0.61985 1.00567 0.0
H5242 H 0.88669 0.62096 0.00986 0.0
H5243 H 0.88955 0.61347 0.9897 0.0
C5244 C 0.84299 0.60408 0.02079 0.0
C5245 C 0.83748 0.60952 0.00629 0.0
C5246 C 0.85588 0.59734 0.02186 0.0
C5247 C 0.86361 0.59586 0.00848 0.0
C5248 C 0.85799 0.60094 0.99386 0.0
H5249 H 0.94238 0.55464 0.99327 0.0
H5250 H 0.92027 0.56713 0.99005 0.0
C5251 C 0.84513 0.60777 0.9928 0.0
C5252 C 0.87732 0.58865 0.00978 0.0
H5253 H 0.91459 0.59574 0.00639 0.0
C5254 C 0.87631 0.57323 0.01421 0.0
C5255 C 0.89133 0.59689 0.00698 0.0
C5256 C 0.89338 0.61376 1.00294 0.0
C5257 C 0.88883 0.56578 0.01576 0.0
C5258 C 0.90284 0.57405 0.01302 0.0
C5259 C 0.90385 0.5894 0.00845 0.0
C5260 C 0.91662 0.56705 0.01514 0.0
C5261 C 0.88689 0.54901 0.02008 0.0
C5262 C 0.92217 0.56328 0.03043 0.0
C5263 C 0.93488 0.55629 0.03236 0.0
C5264 C 0.94237 0.55291 0.01904 0.0
C5265 C 0.93702 0.55716 1.00384 0.0
C5266 C 0.92431 0.56421 1.00193 0.0
H5267 H 0.87496 0.54287 0.01751 0.0
H5268 H 0.89357 0.54177 0.0132 0.0
H5269 H 0.89085 0.54951 0.03332 0.0
H5270 H 0.91666 0.56573 0.0409 0.0
H5271 H 0.93884 0.55355 0.04434 0.0
H5272 H 0.19806 0.10767 0.76499 0.0
H5273 H 0.21454 0.13261 0.76266 0.0
H5274 H 0.20779 0.15273 0.81026 0.0
H5275 H 0.19092 0.12796 0.81258 0.0
H5276 H 0.20753 0.16404 0.76446 0.0
H5277 H 0.2541 0.15951 0.81261 0.0
H5278 H 0.23965 0.14258 0.80351 0.0
H5279 H 0.23582 0.15732 0.81864 0.0
C5280 C 0.19992 0.11742 0.77493 0.0
C5281 C 0.1931 0.11575 0.78898 0.0
C5282 C 0.20944 0.13164 0.7736 0.0
C5283 C 0.21249 0.14444 0.78635 0.0
C5284 C 0.20576 0.14288 0.80039 0.0
H5285 H 0.2536 0.24296 0.78115 0.0
H5286 H 0.23626 0.21861 0.7839 0.0
C5287 C 0.19615 0.12868 0.80171 0.0
C5288 C 0.22253 0.15948 0.78476 0.0
H5289 H 0.25628 0.18338 0.80071 0.0
C5290 C 0.21819 0.1683 0.77238 0.0
C5291 C 0.23647 0.16489 0.79503 0.0
C5292 C 0.24191 0.15556 0.80813 0.0
C5293 C 0.2274 0.18247 0.77005 0.0
C5294 C 0.24124 0.18801 0.78048 0.0
C5295 C 0.24561 0.17914 0.7928 0.0
C5296 C 0.25154 0.20278 0.77857 0.0
C5297 C 0.22238 0.19122 0.75623 0.0
C5298 C 0.26597 0.20202 0.77502 0.0
C5299 C 0.27579 0.21591 0.7733 0.0
C5300 C 0.27133 0.23076 0.77509 0.0
C5301 C 0.25702 0.23157 0.77898 0.0
C5302 C 0.24718 0.21769 0.78069 0.0
H5303 H 0.21334 0.18351 0.7471 0.0
H5304 H 0.21796 0.2017 0.76123 0.0
H5305 H 0.2319 0.19562 0.74993 0.0
H5306 H 0.26959 0.19064 0.77348 0.0
H5307 H 0.28684 0.21501 0.77046 0.0
H5308 H 0.38081 0.94244 0.26079 0.0
H5309 H 0.36873 0.91492 0.26125 0.0
H5310 H 0.32544 0.92824 0.25355 0.0
H5311 H 0.33735 0.95558 0.25192 0.0
H5312 H 0.35294 0.90024 0.27991 0.0
H5313 H 0.31595 0.89006 0.22038 0.0
H5314 H 0.33029 0.90773 0.22656 0.0
H5315 H 0.31239 0.90651 0.23355 0.0
C5316 C 0.36869 0.93963 0.25878 0.0
C5317 C 0.36027 0.95172 0.25606 0.0
C5318 C 0.36172 0.92368 0.25925 0.0
C5319 C 0.34598 0.91899 0.25708 0.0
C5320 C 0.33753 0.93106 0.25476 0.0
H5321 H 0.30193 0.8293 0.28802 0.0
H5322 H 0.31377 0.85664 0.28621 0.0
C5323 C 0.34449 0.947 0.25412 0.0
C5324 C 0.33861 0.90172 0.25773 0.0
H5325 H 0.31107 0.87043 0.238 0.0
C5326 C 0.34383 0.89379 0.27064 0.0
C5327 C 0.3268 0.89279 0.24563 0.0
C5328 C 0.32113 0.89964 0.23067 0.0
C5329 C 0.3376 0.87772 0.27192 0.0
C5330 C 0.32534 0.86904 0.26023 0.0
C5331 C 0.32028 0.87685 0.24717 0.0
C5332 C 0.31772 0.85197 0.26123 0.0
C5333 C 0.34465 0.8701 0.28566 0.0
C5334 C 0.31517 0.83983 0.24766 0.0
C5335 C 0.30807 0.82399 0.24859 0.0
C5336 C 0.30322 0.81968 0.26314 0.0
C5337 C 0.30561 0.83188 0.27662 0.0
C5338 C 0.31258 0.84769 0.27564 0.0
H5339 H 0.35652 0.876 0.28991 0.0
H5340 H 0.3385 0.87143 0.29618 0.0
H5341 H 0.34427 0.85719 0.28189 0.0
H5342 H 0.31881 0.84255 0.23628 0.0
H5343 H 0.30642 0.81511 0.23787 0.0
H5344 H 0.55273 0.37639 0.61352 0.0
H5345 H 0.55107 0.40082 0.6015 0.0
H5346 H 0.54552 0.37435 0.55325 0.0
H5347 H 0.54725 0.34984 0.5652 0.0
H5348 H 0.56474 0.40226 0.55563 0.0
H5349 H 0.51369 0.41341 0.58023 0.0
H5350 H 0.52859 0.41208 0.59595 0.0
H5351 H 0.52028 0.39486 0.58112 0.0
C5352 C 0.55101 0.3757 0.60034 0.0
C5353 C 0.55 0.36106 0.59035 0.0
C5354 C 0.55004 0.38971 0.59347 0.0
C5355 C 0.54785 0.38941 0.57644 0.0
C5356 C 0.54713 0.3749 0.56643 0.0
H5357 H 0.51715 0.46469 0.52756 0.0
H5358 H 0.51994 0.4399 0.53831 0.0
C5359 C 0.54818 0.36088 0.57329 0.0
C5360 C 0.54649 0.40424 0.56908 0.0
H5361 H 0.52666 0.43448 0.56827 0.0
C5362 C 0.55636 0.40927 0.55833 0.0
C5363 C 0.53542 0.4133 0.57239 0.0
C5364 C 0.52379 0.40807 0.58291 0.0
C5365 C 0.55561 0.42315 0.55099 0.0
C5366 C 0.54493 0.43254 0.55482 0.0
C5367 C 0.53495 0.42741 0.56543 0.0
C5368 C 0.54359 0.4475 0.54769 0.0
C5369 C 0.56605 0.42734 0.5389 0.0
C5370 C 0.55593 0.46015 0.54934 0.0
C5371 C 0.55442 0.4743 0.54295 0.0
C5372 C 0.54045 0.47624 0.53506 0.0
C5373 C 0.5281 0.4636 0.53351 0.0
C5374 C 0.52966 0.44941 0.5397 0.0
H5375 H 0.57009 0.41669 0.53363 0.0
H5376 H 0.56049 0.43261 0.52876 0.0
H5377 H 0.57599 0.4362 0.54524 0.0
H5378 H 0.5667 0.45922 0.55585 0.0
H5379 H 0.56411 0.48388 0.54459 0.0
H5380 H 0.42605 0.77053 0.37966 0.0
H5381 H 0.40137 0.7723 0.36562 0.0
H5382 H 0.40945 0.74448 0.32243 0.0
H5383 H 0.43413 0.74259 0.3364 0.0
H5384 H 0.39304 0.78524 0.33873 0.0
H5385 H 0.369 0.72054 0.32761 0.0
H5386 H 0.38634 0.72866 0.34116 0.0
H5387 H 0.38611 0.72512 0.31941 0.0
C5388 C 0.42263 0.7648 0.36715 0.0
C5389 C 0.43216 0.75635 0.35922 0.0
C5390 C 0.40844 0.76578 0.35914 0.0
C5391 C 0.40334 0.75829 0.34302 0.0
C5392 C 0.41287 0.74999 0.33501 0.0
H5393 H 0.33123 0.75377 0.26584 0.0
H5394 H 0.35364 0.75262 0.2845 0.0
C5395 C 0.42705 0.74894 0.34303 0.0
C5396 C 0.38824 0.75951 0.33447 0.0
H5397 H 0.35563 0.73724 0.31268 0.0
C5398 C 0.38479 0.77473 0.33322 0.0
C5399 C 0.37735 0.74583 0.32735 0.0
C5400 C 0.37981 0.72912 0.32908 0.0
C5401 C 0.37111 0.77662 0.32444 0.0
C5402 C 0.36049 0.76294 0.31684 0.0
C5403 C 0.36376 0.74774 0.31849 0.0
C5404 C 0.34657 0.76404 0.30583 0.0
C5405 C 0.36839 0.79325 0.32278 0.0
C5406 C 0.33494 0.77081 0.31156 0.0
C5407 C 0.3219 0.77145 0.30079 0.0
C5408 C 0.32036 0.76536 0.28414 0.0
C5409 C 0.33203 0.75861 0.27857 0.0
C5410 C 0.34489 0.7579 0.28925 0.0
H5411 H 0.37866 0.80249 0.32712 0.0
H5412 H 0.36429 0.79417 0.30985 0.0
H5413 H 0.35963 0.79585 0.33013 0.0
H5414 H 0.33587 0.77545 0.32436 0.0
H5415 H 0.31311 0.77669 0.30545 0.0
H5416 H 0.02081 0.69709 0.07226 0.0
H5417 H 0.01969 0.66921 0.06093 0.0
H5418 H 0.06667 0.67363 0.07924 0.0
H5419 H 0.06779 0.70135 0.09082 0.0
H5420 H 0.03381 0.6554 0.03863 0.0
H5421 H 0.04939 0.63485 0.09809 0.0
H5422 H 0.04472 0.65428 0.09666 0.0
H5423 H 0.06317 0.65088 0.09409 0.0
C5424 C 0.03092 0.69214 0.07378 0.0
C5425 C 0.04435 0.70139 0.08259 0.0
C5426 C 0.03025 0.67619 0.06736 0.0
C5427 C 0.04301 0.66918 0.06957 0.0
C5428 C 0.05656 0.67858 0.07782 0.0
H5429 H 0.06168 0.57519 0.0392 0.0
H5430 H 0.06333 0.60358 0.04876 0.0
C5431 C 0.0572 0.69446 0.08438 0.0
C5432 C 0.04216 0.6521 0.06315 0.0
H5433 H 0.04881 0.61652 0.07428 0.0
C5434 C 0.03702 0.64689 0.04645 0.0
C5435 C 0.04631 0.64095 0.07336 0.0
C5436 C 0.05106 0.64547 0.09157 0.0
C5437 C 0.03617 0.63095 0.03965 0.0
C5438 C 0.04047 0.6199 0.04983 0.0
C5439 C 0.04561 0.62507 0.0665 0.0
C5440 C 0.03946 0.60284 0.04349 0.0
C5441 C 0.03089 0.62608 0.02157 0.0
C5442 C 0.02548 0.59301 0.03745 0.0
C5443 C 0.02448 0.57679 0.03201 0.0
C5444 C 0.03746 0.57007 0.03253 0.0
C5445 C 0.05147 0.57999 0.03852 0.0
C5446 C 0.05244 0.5962 0.04403 0.0
H5447 H 0.03135 0.63659 0.01487 0.0
H5448 H 0.03778 0.61797 0.01627 0.0
H5449 H 0.01911 0.61957 0.0196 0.0
H5450 H 0.01531 0.59785 0.03719 0.0
H5451 H 0.01351 0.5695 0.02753 0.0
H5452 H 0.09259 0.28112 0.87822 0.0
H5453 H 0.11523 0.28224 0.86547 0.0
H5454 H 0.0962 0.23688 0.83602 0.0
H5455 H 0.07331 0.23591 0.84826 0.0
H5456 H 0.13503 0.26105 0.86517 0.0
H5457 H 0.10918 0.2647 0.80199 0.0
H5458 H 0.09978 0.26806 0.81941 0.0
H5459 H 0.10031 0.24805 0.81071 0.0
C5460 C 0.0931 0.27149 0.86884 0.0
C5461 C 0.08102 0.25847 0.86421 0.0
C5462 C 0.10611 0.27209 0.86166 0.0
C5463 C 0.10734 0.25977 0.84961 0.0
C5464 C 0.09541 0.24669 0.84506 0.0
H5465 H 0.17651 0.24364 0.79072 0.0
H5466 H 0.15414 0.24131 0.80399 0.0
C5467 C 0.08238 0.24607 0.85223 0.0
C5468 C 0.12123 0.26047 0.84205 0.0
H5469 H 0.13442 0.26125 0.80562 0.0
C5470 C 0.13491 0.26115 0.85216 0.0
C5471 C 0.12107 0.26054 0.82506 0.0
C5472 C 0.10683 0.26044 0.81365 0.0
C5473 C 0.14838 0.26163 0.84572 0.0
C5474 C 0.14824 0.2618 0.82873 0.0
C5475 C 0.13455 0.26108 0.81863 0.0
C5476 C 0.16218 0.26291 0.82119 0.0
C5477 C 0.16257 0.26158 0.85715 0.0
C5478 C 0.17417 0.27584 0.82639 0.0
C5479 C 0.18709 0.27706 0.81901 0.0
C5480 C 0.18825 0.26552 0.80605 0.0
C5481 C 0.17618 0.25259 0.80085 0.0
C5482 C 0.1633 0.25132 0.80832 0.0
H5483 H 0.16012 0.2566 0.86845 0.0
H5484 H 0.16993 0.25452 0.85118 0.0
H5485 H 0.16879 0.27404 0.86081 0.0
H5486 H 0.17347 0.28514 0.83602 0.0
H5487 H 0.19616 0.28712 0.82345 0.0
H5488 H 0.51462 0.72981 0.94886 0.0
H5489 H 0.51112 0.70647 0.9632 0.0
H5490 H 0.49422 0.67609 0.91732 0.0
H5491 H 0.49845 0.69919 0.90277 0.0
H5492 H 0.48553 0.68294 0.96388 0.0
H5493 H 0.5304 0.65825 0.93651 0.0
H5494 H 0.52771 0.67846 0.9354 0.0
H5495 H 0.51554 0.66209 0.9221 0.0
C5496 C 0.51024 0.71815 0.94183 0.0
C5497 C 0.50699 0.71626 0.9247 0.0
C5498 C 0.50809 0.7049 0.95003 0.0
C5499 C 0.5026 0.68967 0.94122 0.0
C5500 C 0.49866 0.68781 0.92422 0.0
H5501 H 0.50372 0.59829 0.97481 0.0
H5502 H 0.4964 0.61842 0.95861 0.0
C5503 C 0.50095 0.70101 0.91598 0.0
C5504 C 0.50188 0.67565 0.94978 0.0
H5505 H 0.51787 0.64314 0.95412 0.0
C5506 C 0.49248 0.67412 0.9617 0.0
C5507 C 0.51106 0.66433 0.94684 0.0
C5508 C 0.52185 0.66587 0.93463 0.0
C5509 C 0.49207 0.66147 0.97093 0.0
C5510 C 0.50143 0.65032 0.96817 0.0
C5511 C 0.51059 0.65168 0.95601 0.0
C5512 C 0.50298 0.63787 0.97859 0.0
C5513 C 0.48176 0.66022 0.98359 0.0
C5514 C 0.50878 0.64221 0.99521 0.0
C5515 C 0.51277 0.63074 1.00454 0.0
C5516 C 0.51124 0.61484 0.99729 0.0
C5517 C 0.50481 0.61041 0.98079 0.0
C5518 C 0.50069 0.62187 0.97151 0.0
H5519 H 0.47225 0.66642 0.98074 0.0
H5520 H 0.47723 0.64755 0.98455 0.0
H5521 H 0.48811 0.66599 0.99567 0.0
H5522 H 0.51095 0.65459 1.00076 0.0
H5523 H 0.51759 0.63441 0.01727 0.0
H5524 H 0.11819 0.78489 0.72119 0.0
H5525 H 0.14386 0.78463 0.73353 0.0
H5526 H 0.13035 0.73587 0.7418 0.0
H5527 H 0.10459 0.73605 0.7295 0.0
H5528 H 0.15238 0.7568 0.76772 0.0
H5529 H 0.16697 0.75686 0.70511 0.0
H5530 H 0.1578 0.77282 0.71163 0.0
H5531 H 0.14787 0.7525 0.70896 0.0
C5532 C 0.12066 0.77425 0.72596 0.0
C5533 C 0.10955 0.76044 0.72429 0.0
C5534 C 0.13526 0.77411 0.73297 0.0
C5535 C 0.1389 0.76014 0.73825 0.0
C5536 C 0.12764 0.74672 0.73773 0.0
H5537 H 0.22959 0.7426 0.74471 0.0
H5538 H 0.20232 0.73916 0.73936 0.0
C5539 C 0.11298 0.74687 0.73077 0.0
C5540 C 0.15468 0.75908 0.74268 0.0
H5541 H 0.1872 0.76055 0.72689 0.0
C5542 C 0.16003 0.75751 0.75883 0.0
C5543 C 0.16442 0.75964 0.73088 0.0
C5544 C 0.15899 0.76039 0.71313 0.0
C5545 C 0.17516 0.75711 0.76367 0.0
C5546 C 0.18506 0.75855 0.75204 0.0
C5547 C 0.17956 0.75955 0.73577 0.0
C5548 C 0.2013 0.75973 0.7565 0.0
C5549 C 0.18042 0.75513 0.7811 0.0
C5550 C 0.20965 0.77246 0.76786 0.0
C5551 C 0.22519 0.77445 0.77098 0.0
C5552 C 0.2326 0.76385 0.76259 0.0
C5553 C 0.22419 0.75101 0.75131 0.0
C5554 C 0.20863 0.74897 0.74829 0.0
H5555 H 0.17103 0.74941 0.78692 0.0
H5556 H 0.18931 0.74782 0.78181 0.0
H5557 H 0.1851 0.76706 0.78826 0.0
H5558 H 0.20418 0.78112 0.77398 0.0
H5559 H 0.23139 0.78449 0.7797 0.0
H5560 H 0.04407 0.37488 0.44036 0.0
H5561 H 0.03982 0.39649 0.45987 0.0
H5562 H 0.99397 0.37251 0.45752 0.0
H5563 H 0.99807 0.35115 0.43746 0.0
H5564 H 0.99491 0.40253 0.4554 0.0
H5565 H 0.03739 0.39841 0.50723 0.0
H5566 H 0.04607 0.40056 0.48939 0.0
H5567 H 0.03207 0.38307 0.48973 0.0
C5568 C 0.03315 0.3742 0.44417 0.0
C5569 C 0.02139 0.36146 0.43754 0.0
C5570 C 0.03076 0.38643 0.45539 0.0
C5571 C 0.01669 0.38586 0.46047 0.0
C5572 C 1.00494 0.37307 0.45387 0.0
H5573 H 0.02024 0.46634 0.53559 0.0
H5574 H 0.01316 0.43853 0.52238 0.0
C5575 C 0.00726 0.36096 0.44242 0.0
C5576 C 0.01406 0.39923 0.47177 0.0
H5577 H 0.03025 0.42439 0.50642 0.0
C5578 C 1.0024 0.40711 0.46678 0.0
C5579 C 0.02357 0.40494 0.4868 0.0
C5580 C 0.03535 0.39616 0.49366 0.0
C5581 C 1.00071 0.42126 0.47584 0.0
C5582 C 0.01129 0.42792 0.4899 0.0
C5583 C 0.02224 0.4194 0.49552 0.0
C5584 C 0.01248 0.44448 0.49777 0.0
C5585 C 0.98783 0.42906 0.47 0.0
C5586 C 0.01408 0.457 0.48829 0.0
C5587 C 0.01782 0.47278 0.49576 0.0
C5588 C 0.02045 0.47628 0.51286 0.0
C5589 C 0.01826 0.46386 0.52237 0.0
C5590 C 0.01423 0.44803 0.51485 0.0
H5591 H 0.97788 0.41991 0.46417 0.0
H5592 H 0.9846 0.43663 0.48015 0.0
H5593 H 0.99108 0.43661 0.46061 0.0
H5594 H 0.01332 0.45459 0.47514 0.0
H5595 H 0.01956 0.48215 0.48815 0.0
H5596 H 0.48811 0.24852 0.24007 0.0
H5597 H 0.46821 0.25165 0.25631 0.0
H5598 H 0.43524 0.2378 0.21277 0.0
H5599 H 0.45506 0.23469 0.19646 0.0
H5600 H 0.45078 0.27388 0.25046 0.0
H5601 H 0.41524 0.2139 0.24614 0.0
H5602 H 0.43417 0.21677 0.24156 0.0
H5603 H 0.41894 0.2191 0.22661 0.0
C5604 C 0.47658 0.24585 0.23404 0.0
C5605 C 0.47308 0.24145 0.21703 0.0
C5606 C 0.46526 0.24755 0.24332 0.0
C5607 C 0.45031 0.24476 0.23573 0.0
C5608 C 0.44671 0.23961 0.21888 0.0
H5609 H 0.37786 0.28917 0.25024 0.0
H5610 H 0.39974 0.27932 0.24272 0.0
C5611 C 0.45802 0.23788 0.20958 0.0
C5612 C 0.43878 0.24949 0.2449 0.0
H5613 H 0.40375 0.23648 0.25337 0.0
C5614 C 0.44063 0.26564 0.25143 0.0
C5615 C 0.42562 0.23868 0.24611 0.0
C5616 C 0.42342 0.22111 0.23986 0.0
C5617 C 0.42927 0.27145 0.25844 0.0
C5618 C 0.41576 0.26083 0.25874 0.0
C5619 C 0.41417 0.24454 0.253 0.0
C5620 C 0.40271 0.26675 0.26362 0.0
C5621 C 0.4316 0.28897 0.26501 0.0
C5622 C 0.39714 0.26267 0.27773 0.0
C5623 C 0.38471 0.26844 0.2822 0.0
C5624 C 0.3777 0.27823 0.2725 0.0
C5625 C 0.38327 0.28203 0.25822 0.0
C5626 C 0.39568 0.27635 0.25383 0.0
H5627 H 0.44369 0.29454 0.26773 0.0
H5628 H 0.42611 0.29528 0.25573 0.0
H5629 H 0.42652 0.29077 0.27629 0.0
H5630 H 0.40247 0.25516 0.28532 0.0
H5631 H 0.38067 0.26534 0.29328 0.0
H5632 H 0.5812 0.53957 0.35854 0.0
H5633 H 0.57099 0.53785 0.38406 0.0
H5634 H 0.60593 0.51351 0.40188 0.0
H5635 H 0.61623 0.51519 0.3764 0.0
H5636 H 0.57822 0.49907 0.40711 0.0
H5637 H 0.58776 0.56413 0.42825 0.0
H5638 H 0.57709 0.55857 0.40816 0.0
H5639 H 0.59622 0.55585 0.4117 0.0
C5640 C 0.58682 0.53401 0.36795 0.0
C5641 C 0.59957 0.52758 0.36544 0.0
C5642 C 0.58098 0.53306 0.38255 0.0
C5643 C 0.58787 0.52582 0.395 0.0
C5644 C 0.60049 0.51922 0.39247 0.0
H5645 H 0.561 0.50755 0.49003 0.0
H5646 H 0.57564 0.50975 0.4674 0.0
C5647 C 0.60631 0.52013 0.37786 0.0
C5648 C 0.58167 0.52477 0.41048 0.0
H5649 H 0.57172 0.5473 0.44221 0.0
C5650 C 0.57695 0.50961 0.41491 0.0
C5651 C 0.58011 0.53855 0.42066 0.0
C5652 C 0.5857 0.5552 0.41706 0.0
C5653 C 0.57012 0.50783 0.42888 0.0
C5654 C 0.56818 0.5216 0.43878 0.0
C5655 C 0.57324 0.53677 0.43458 0.0
C5656 C 0.55985 0.52054 0.45281 0.0
C5657 C 0.5645 0.49124 0.43259 0.0
C5658 C 0.54639 0.52623 0.45224 0.0
C5659 C 0.53814 0.52508 0.46509 0.0
C5660 C 0.54322 0.51828 0.47881 0.0
C5661 C 0.55686 0.51285 0.47958 0.0
C5662 C 0.56515 0.51399 0.46664 0.0
H5663 H 0.56432 0.48192 0.42212 0.0
H5664 H 0.57198 0.48879 0.44322 0.0
H5665 H 0.55303 0.49021 0.4358 0.0
H5666 H 0.54214 0.53139 0.44172 0.0
H5667 H 0.5277 0.52946 0.46422 0.0
H5668 H 0.2702 0.80525 0.0768 0.0
H5669 H 0.28359 0.79039 0.09497 0.0
H5670 H 0.31375 0.78372 0.06028 0.0
H5671 H 0.30021 0.79853 0.04178 0.0
H5672 H 0.28999 0.75868 0.08901 0.0
H5673 H 0.34084 0.80705 0.1036 0.0
H5674 H 0.32319 0.81069 0.09394 0.0
H5675 H 0.33373 0.79889 0.0826 0.0
C5676 C 0.27945 0.80032 0.07284 0.0
C5677 C 0.28418 0.80303 0.05791 0.0
C5678 C 0.28713 0.79192 0.08325 0.0
C5679 C 0.29967 0.78611 0.07892 0.0
C5680 C 0.30417 0.78829 0.06381 0.0
H5681 H 0.32135 0.7407 0.16425 0.0
H5682 H 0.32547 0.74393 0.13626 0.0
C5683 C 0.29646 0.79673 0.05333 0.0
C5684 C 0.30821 0.77855 0.09092 0.0
H5685 H 0.33769 0.78849 0.12194 0.0
C5686 C 0.30069 0.76478 0.09598 0.0
C5687 C 0.32216 0.78669 0.09978 0.0
C5688 C 0.33052 0.80168 0.09482 0.0
C5689 C 0.3058 0.76 0.11084 0.0
C5690 C 0.31911 0.76901 0.1205 0.0
C5691 C 0.32757 0.78162 0.11441 0.0
C5692 C 0.32199 0.76833 0.13818 0.0
C5693 C 0.29595 0.7466 0.11687 0.0
C5694 C 0.32007 0.78145 0.14882 0.0
C5695 C 0.31794 0.77972 0.16476 0.0
C5696 C 0.3176 0.7648 0.17021 0.0
C5697 C 0.32136 0.75225 0.16019 0.0
C5698 C 0.32367 0.75405 0.14424 0.0
H5699 H 0.28527 0.74197 0.1084 0.0
H5700 H 0.30196 0.73654 0.11814 0.0
H5701 H 0.29319 0.75073 0.12902 0.0
H5702 H 0.31875 0.79259 0.14437 0.0
H5703 H 0.31499 0.78957 0.17216 0.0
H5704 H 0.97237 0.55653 0.84663 0.0
H5705 H 0.9852 0.55434 0.8737 0.0
H5706 H 0.95069 0.51468 0.8777 0.0
H5707 H 0.9377 0.51685 0.85082 0.0
H5708 H 0.97823 0.55738 0.90395 0.0
H5709 H 0.98624 0.49512 0.89026 0.0
H5710 H 0.97998 0.50624 0.87446 0.0
H5711 H 0.96695 0.49695 0.88652 0.0
C5712 C 0.96735 0.54734 0.85318 0.0
C5713 C 0.95384 0.5368 0.84599 0.0
C5714 C 0.97485 0.54604 0.86882 0.0
C5715 C 0.96929 0.53408 0.87796 0.0
C5716 C 0.9557 0.52372 0.87097 0.0
H5717 H 1.00117 0.50834 0.97581 0.0
H5718 H 0.98667 0.50987 0.9491 0.0
C5719 C 0.94819 0.52501 0.85536 0.0
C5720 C 0.97745 0.53274 0.89483 0.0
H5721 H 0.99211 0.50674 0.9181 0.0
C5722 C 0.98129 0.54628 0.90691 0.0
C5723 C 0.98154 0.51831 0.89916 0.0
C5724 C 0.97861 0.50336 0.88689 0.0
C5725 C 0.98869 0.54579 0.92289 0.0
C5726 C 0.99291 0.53141 0.92718 0.0
C5727 C 0.98898 0.51782 0.91513 0.0
C5728 C 1.00171 0.53038 0.94379 0.0
C5729 C 0.99151 0.56072 0.93517 0.0
C5730 C 0.01525 0.54113 0.95003 0.0
C5731 C 0.02348 0.54031 0.96536 0.0
C5732 C 0.01869 0.52857 0.97508 0.0
C5733 C 1.00524 0.51763 0.96883 0.0
C5734 C 0.99694 0.51848 0.95343 0.0
H5735 H 0.98344 0.56861 0.93206 0.0
H5736 H 0.99066 0.55784 0.9477 0.0
H5737 H 1.00293 0.56755 0.9351 0.0
H5738 H 0.01967 0.55014 0.94293 0.0
H5739 H 0.0338 0.54889 0.96953 0.0
H5740 H 0.24834 0.19305 0.58579 0.0
H5741 H 0.2488 0.2055 0.61376 0.0
H5742 H 0.29665 0.22121 0.61873 0.0
H5743 H 0.29629 0.20883 0.59074 0.0
H5744 H 0.26304 0.19914 0.6421 0.0
H5745 H 0.28368 0.2621 0.63457 0.0
H5746 H 0.27715 0.24656 0.61738 0.0
H5747 H 0.2958 0.24896 0.62847 0.0
C5748 C 0.25898 0.19916 0.59282 0.0
C5749 C 0.27228 0.19998 0.58598 0.0
C5750 C 0.2592 0.20633 0.6088 0.0
C5751 C 0.27271 0.21452 0.61828 0.0
C5752 C 0.28603 0.21533 0.61152 0.0
H5753 H 0.30069 0.25927 0.71815 0.0
H5754 H 0.29866 0.24782 0.68963 0.0
C5755 C 0.28581 0.20822 0.59551 0.0
C5756 C 0.27292 0.22166 0.63542 0.0
H5757 H 0.28341 0.25649 0.66186 0.0
C5758 C 0.26738 0.21171 0.64639 0.0
C5759 C 0.27859 0.23807 0.64102 0.0
C5760 C 0.28401 0.24958 0.62971 0.0
C5761 C 0.26769 0.21761 0.66288 0.0
C5762 C 0.27352 0.23396 0.66849 0.0
C5763 C 0.27896 0.24395 0.65752 0.0
C5764 C 0.2745 0.24089 0.68582 0.0
C5765 C 0.26217 0.2062 0.67424 0.0
C5766 C 0.26156 0.24096 0.69311 0.0
C5767 C 0.26266 0.24749 0.70949 0.0
C5768 C 0.27674 0.25414 0.71885 0.0
C5769 C 0.28965 0.2542 0.71139 0.0
C5770 C 0.28853 0.24769 0.69505 0.0
H5771 H 0.26144 0.19354 0.669 0.0
H5772 H 0.26965 0.20862 0.68621 0.0
H5773 H 0.25081 0.20778 0.67642 0.0
H5774 H 0.25059 0.23605 0.68611 0.0
H5775 H 0.25247 0.2473 0.71479 0.0
H5776 H 0.5711 0.51784 0.20704 0.0
H5777 H 0.56009 0.51436 0.17824 0.0
H5778 H 0.6042 0.52592 0.16501 0.0
H5779 H 0.61535 0.52832 0.19353 0.0
H5780 H 0.56058 0.53521 0.15728 0.0
H5781 H 0.58739 0.4862 0.13361 0.0
H5782 H 0.58798 0.49213 0.15519 0.0
H5783 H 0.60102 0.503 0.14414 0.0
C5784 C 0.5785 0.51931 0.19799 0.0
C5785 C 0.59414 0.52333 0.20269 0.0
C5786 C 0.57216 0.51745 0.18153 0.0
C5787 C 0.58133 0.51958 0.16942 0.0
C5788 C 0.59691 0.52378 0.17407 0.0
H5789 H 0.55709 0.54467 0.07407 0.0
H5790 H 0.56532 0.54372 0.10282 0.0
C5791 C 0.60326 0.52545 0.19047 0.0
C5792 C 0.57458 0.51813 0.15201 0.0
H5793 H 0.5765 0.50062 0.11366 0.0
C5794 C 0.56394 0.5275 0.14776 0.0
C5795 C 0.57877 0.50788 0.13959 0.0
C5796 C 0.58929 0.49661 0.14338 0.0
C5797 C 0.55772 0.52731 0.13143 0.0
C5798 C 0.56262 0.51782 0.11896 0.0
C5799 C 0.57288 0.50804 0.12322 0.0
C5800 C 0.55759 0.51823 0.1014 0.0
C5801 C 0.54591 0.5372 0.12775 0.0
C5802 C 0.55102 0.50409 0.09085 0.0
C5803 C 0.54648 0.50453 0.07425 0.0
C5804 C 0.54845 0.51913 0.06793 0.0
C5805 C 0.55523 0.53322 0.07852 0.0
C5806 C 0.55986 0.53274 0.09503 0.0
H5807 H 0.53995 0.53928 0.13834 0.0
H5808 H 0.55134 0.54904 0.12516 0.0
H5809 H 0.53752 0.53137 0.11697 0.0
H5810 H 0.54931 0.49273 0.0955 0.0
H5811 H 0.54134 0.49347 0.06642 0.0
H5812 H 0.23238 0.79685 0.93116 0.0
H5813 H 0.2354 0.78074 0.90614 0.0
H5814 H 0.24626 0.82356 0.88411 0.0
H5815 H 0.24267 0.83973 0.90882 0.0
H5816 H 0.22812 0.79746 0.86264 0.0
H5817 H 0.27864 0.7817 0.89693 0.0
H5818 H 0.26153 0.77667 0.90512 0.0
H5819 H 0.26961 0.79728 0.90504 0.0
C5820 C 0.23495 0.8028 0.92081 0.0
C5821 C 0.23742 0.81955 0.92194 0.0
C5822 C 0.23682 0.7936 0.90663 0.0
C5823 C 0.24131 0.80106 0.89352 0.0
C5824 C 0.24287 0.81766 0.89421 0.0
H5825 H 0.29115 0.77939 0.81849 0.0
H5826 H 0.28142 0.78868 0.84305 0.0
C5827 C 0.24092 0.82686 0.90834 0.0
C5828 C 0.24561 0.79182 0.87959 0.0
H5829 H 0.27253 0.77154 0.86899 0.0
C5830 C 0.2377 0.79161 0.86398 0.0
C5831 C 0.2583 0.7845 0.88154 0.0
C5832 C 0.26762 0.78511 0.89802 0.0
C5833 C 0.24233 0.78442 0.8501 0.0
C5834 C 0.25498 0.77709 0.85207 0.0
C5835 C 0.26272 0.77705 0.86769 0.0
C5836 C 0.26115 0.77062 0.83796 0.0
C5837 C 0.2341 0.78535 0.83342 0.0
C5838 C 0.25307 0.75717 0.82736 0.0
C5839 C 0.25859 0.75187 0.81335 0.0
C5840 C 0.27222 0.75999 0.80991 0.0
C5841 C 0.2806 0.77298 0.82095 0.0
C5842 C 0.27507 0.77829 0.83491 0.0
H5843 H 0.22611 0.79369 0.83397 0.0
H5844 H 0.24216 0.7893 0.82517 0.0
H5845 H 0.2277 0.77332 0.82797 0.0
H5846 H 0.24239 0.75104 0.82975 0.0
H5847 H 0.25196 0.74182 0.80495 0.0
H5848 H 0.92881 0.53232 0.66115 0.0
H5849 H 0.94113 0.52935 0.63706 0.0
H5850 H 0.98355 0.53414 0.66797 0.0
H5851 H 0.97126 0.5361 0.69209 0.0
H5852 H 0.96073 0.54695 0.62376 0.0
H5853 H 0.98778 0.4966 0.63861 0.0
H5854 H 0.97427 0.50329 0.65027 0.0
H5855 H 0.99357 0.5135 0.65426 0.0
C5856 C 0.94072 0.53243 0.66305 0.0
C5857 C 0.94873 0.53434 0.67913 0.0
C5858 C 0.94789 0.53087 0.649 0.0
C5859 C 0.96344 0.53109 0.65021 0.0
C5860 C 0.97153 0.53334 0.66621 0.0
H5861 H 0.02848 0.52631 0.58042 0.0
H5862 H 0.01553 0.52859 0.60419 0.0
C5863 C 0.96437 0.53479 0.68027 0.0
C5864 C 0.97111 0.52935 0.63489 0.0
H5865 H 0.99574 0.50961 0.61671 0.0
C5866 C 0.96829 0.53865 0.62228 0.0
C5867 C 0.98114 0.51861 0.63246 0.0
C5868 C 0.98426 0.50732 0.64453 0.0
C5869 C 0.97527 0.53786 0.60796 0.0
C5870 C 0.98535 0.52719 0.6056 0.0
C5871 C 0.98815 0.51787 0.61818 0.0
C5872 C 0.99327 0.52568 0.59048 0.0
C5873 C 0.97208 0.549 0.59575 0.0
C5874 C 0.9854 0.52296 0.57431 0.0
C5875 C 0.9929 0.52166 0.56048 0.0
C5876 C 0.00862 0.52289 0.56217 0.0
C5877 C 0.01643 0.52533 0.57833 0.0
C5878 C 0.00894 0.52663 0.59212 0.0
H5879 H 0.9681 0.55952 0.60142 0.0
H5880 H 0.98219 0.55332 0.59032 0.0
H5881 H 0.96312 0.54254 0.58579 0.0
H5882 H 0.97333 0.52165 0.57229 0.0
H5883 H 0.98632 0.51967 0.54841 0.0
H5884 H 0.24802 0.18821 0.41569 0.0
H5885 H 0.24916 0.20138 0.39126 0.0
H5886 H 0.29578 0.22164 0.40815 0.0
H5887 H 0.29473 0.20872 0.43272 0.0
H5888 H 0.25597 0.23314 0.38786 0.0
H5889 H 0.29679 0.20068 0.36213 0.0
H5890 H 0.28739 0.19441 0.37867 0.0
H5891 H 0.30333 0.21055 0.38261 0.0
C5892 C 0.25851 0.19556 0.41432 0.0
C5893 C 0.27131 0.19728 0.42623 0.0
C5894 C 0.25916 0.20302 0.40026 0.0
C5895 C 0.27262 0.21227 0.39769 0.0
C5896 C 0.28536 0.21423 0.40963 0.0
H5897 H 0.28422 0.28245 0.33075 0.0
H5898 H 0.28119 0.26834 0.35437 0.0
C5899 C 0.28472 0.2068 0.42371 0.0
C5900 C 0.27326 0.22011 0.38267 0.0
H5901 H 0.29133 0.22296 0.34947 0.0
C5902 C 0.26365 0.23086 0.37943 0.0
C5903 C 0.28313 0.21698 0.37151 0.0
C5904 C 0.29315 0.20491 0.37378 0.0
C5905 C 0.26387 0.23879 0.36557 0.0
C5906 C 0.27415 0.23613 0.35476 0.0
C5907 C 0.28354 0.22512 0.35781 0.0
C5908 C 0.27546 0.24473 0.34031 0.0
C5909 C 0.25293 0.24979 0.36253 0.0
C5910 C 0.27349 0.23618 0.32453 0.0
C5911 C 0.2753 0.24424 0.311 0.0
C5912 C 0.27923 0.26101 0.31302 0.0
C5913 C 0.28107 0.26955 0.32879 0.0
C5914 C 0.27928 0.26149 0.3423 0.0
H5915 H 0.24315 0.24699 0.36899 0.0
H5916 H 0.25862 0.26229 0.36715 0.0
H5917 H 0.2488 0.24902 0.34928 0.0
H5918 H 0.27064 0.22325 0.32268 0.0
H5919 H 0.27392 0.23732 0.29901 0.0
H5920 H 0.3546 0.59728 0.53002 0.0
H5921 H 0.36877 0.57753 0.52022 0.0
H5922 H 0.39443 0.61283 0.49677 0.0
H5923 H 0.381 0.63295 0.50741 0.0
H5924 H 0.37206 0.56592 0.48925 0.0
H5925 H 0.4266 0.59738 0.52538 0.0
H5926 H 0.40903 0.60286 0.52878 0.0
H5927 H 0.41795 0.60933 0.51208 0.0
C5928 C 0.36344 0.60091 0.52302 0.0
C5929 C 0.36688 0.61671 0.51969 0.0
C5930 C 0.37136 0.58958 0.51726 0.0
C5931 C 0.38273 0.59386 0.50801 0.0
C5932 C 0.38585 0.60945 0.50418 0.0
H5933 H 0.44509 0.53929 0.47085 0.0
H5934 H 0.42655 0.55661 0.47149 0.0
C5935 C 0.37808 0.62085 0.51012 0.0
C5936 C 0.39158 0.58207 0.50277 0.0
H5937 H 0.427 0.57444 0.50699 0.0
C5938 C 0.38408 0.56777 0.49304 0.0
C5939 C 0.40721 0.58458 0.50793 0.0
C5940 C 0.41567 0.59929 0.51925 0.0
C5941 C 0.3919 0.55581 0.48837 0.0
C5942 C 0.40748 0.5584 0.49347 0.0
C5943 C 0.41502 0.57275 0.50295 0.0
C5944 C 0.41616 0.54589 0.49043 0.0
C5945 C 0.38357 0.5404 0.47827 0.0
C5946 C 0.41606 0.53405 0.50065 0.0
C5947 C 0.4268 0.52441 0.50061 0.0
C5948 C 0.43771 0.52649 0.49027 0.0
C5949 C 0.43697 0.53758 0.47912 0.0
C5950 C 0.42634 0.54737 0.47934 0.0
H5951 H 0.37181 0.54105 0.47356 0.0
H5952 H 0.38939 0.53735 0.4678 0.0
H5953 H 0.38345 0.53058 0.48588 0.0
H5954 H 0.40836 0.53303 0.50945 0.0
H5955 H 0.42718 0.5162 0.50953 0.0
H5956 H 0.88533 0.92854 0.55758 0.0
H5957 H 0.91067 0.9426 0.55598 0.0
H5958 H 0.89288 0.96474 0.51579 0.0
H5959 H 0.86757 0.95104 0.5175 0.0
H5960 H 0.92664 0.94135 0.52842 0.0
H5961 H 0.91824 1.00272 0.54815 0.0
H5962 H 0.90577 0.9851 0.55157 0.0
H5963 H 0.90438 0.99156 0.53176 0.0
C5964 C 0.88678 0.93657 0.54854 0.0
C5965 C 0.87435 0.93867 0.53771 0.0
C5966 C 0.90129 0.9445 0.54756 0.0
C5967 C 0.90368 0.95486 0.53588 0.0
C5968 C 0.89132 0.95699 0.52506 0.0
H5969 H 0.97764 0.01687 0.50754 0.0
H5970 H 0.95359 1.00122 0.51088 0.0
C5971 C 0.87684 0.94902 0.52597 0.0
C5972 C 0.91908 0.9633 0.53477 0.0
H5973 H 0.94057 1.0005 0.53738 0.0
C5974 C 0.92975 0.95428 0.53049 0.0
C5975 C 0.92312 0.98017 0.53745 0.0
C5976 C 0.91234 0.99049 0.54263 0.0
C5977 C 0.94417 0.96168 0.52826 0.0
C5978 C 0.94818 0.97859 0.53079 0.0
C5979 C 0.93755 0.98756 0.53537 0.0
C5980 C 0.96308 0.98734 0.52823 0.0
C5981 C 0.95474 0.95131 0.52263 0.0
C5982 C 0.97656 0.98476 0.53678 0.0
C5983 C 0.9904 0.99361 0.53471 0.0
C5984 C 0.991 1.00541 0.52428 0.0
C5985 C 0.97754 1.00789 0.51568 0.0
C5986 C 0.96377 0.99896 0.51762 0.0
H5987 H 0.94866 0.9392 0.5169 0.0
H5988 H 0.96127 0.95679 0.5137 0.0
H5989 H 0.96273 0.94986 0.53332 0.0
H5990 H 0.97638 0.97616 0.54533 0.0
H5991 H 1.00059 0.99152 0.54157 0.0
H5992 H 0.85969 0.06267 0.24323 0.0
H5993 H 0.84713 0.08553 0.24328 0.0
H5994 H 0.88857 0.1169 0.26551 0.0
H5995 H 0.90145 0.09426 0.26462 0.0
H5996 H 0.84343 0.10609 0.26886 0.0
H5997 H 0.8758 0.13914 0.22738 0.0
H5998 H 0.87667 0.11867 0.2298 0.0
H5999 H 0.88723 0.13473 0.24483 0.0
C6000 C 0.86622 0.07445 0.24786 0.0
C6001 C 0.88162 0.07663 0.25378 0.0
C6002 C 0.85899 0.08749 0.24801 0.0
C6003 C 0.86699 0.10293 0.25413 0.0
C6004 C 0.88228 0.10513 0.26038 0.0
H6005 H 0.83857 0.1947 0.26676 0.0
H6006 H 0.8529 0.17313 0.26757 0.0
C6007 C 0.88956 0.09212 0.26009 0.0
C6008 C 0.8592 0.11663 0.2543 0.0
H6009 H 0.85904 0.15253 0.2404 0.0
C6010 C 0.84682 0.11623 0.26261 0.0
C6011 C 0.86369 0.12984 0.24615 0.0
C6012 C 0.87648 0.13061 0.2364 0.0
C6013 C 0.83882 0.12874 0.26306 0.0
C6014 C 0.84327 0.14188 0.25485 0.0
C6015 C 0.85574 0.14241 0.24671 0.0
C6016 C 0.83476 0.15494 0.25411 0.0
C6017 C 0.82574 0.12786 0.2724 0.0
C6018 C 0.81999 0.15182 0.24595 0.0
C6019 C 0.81184 0.16408 0.24532 0.0
C6020 C 0.81833 0.1797 0.25285 0.0
C6021 C 0.83327 0.18283 0.26076 0.0
C6022 C 0.84144 0.17054 0.26132 0.0
H6023 H 0.82612 0.11915 0.28127 0.0
H6024 H 0.82551 0.13975 0.27909 0.0
H6025 H 0.81515 0.12396 0.26367 0.0
H6026 H 0.81478 0.1399 0.24 0.0
H6027 H 0.80049 0.16134 0.23879 0.0
H6028 H 0.74438 0.10538 1.00502 0.0
H6029 H 0.72083 0.08632 1.00205 0.0
H6030 H 0.72635 0.08638 0.05423 0.0
H6031 H 0.75036 0.10482 0.05729 0.0
H6032 H 0.71567 0.05605 0.0364 0.0
H6033 H 0.68337 0.1009 0.01467 0.0
H6034 H 0.69756 0.09673 1.00279 0.0
H6035 H 0.70287 0.10616 0.02362 0.0
C6036 C 0.74079 0.10107 0.01585 0.0
C6037 C 0.74921 0.10667 0.03142 0.0
C6038 C 0.72724 0.09034 0.01412 0.0
C6039 C 0.72179 0.08523 0.02795 0.0
C6040 C 0.73038 0.0903 0.04344 0.0
H6041 H 0.64242 0.04208 0.05804 0.0
H6042 H 0.66818 0.0517 0.05445 0.0
C6043 C 0.74401 0.10093 0.04517 0.0
C6044 C 0.7068 0.07518 0.02642 0.0
H6045 H 0.66962 0.07543 0.01617 0.0
C6046 C 0.70559 0.0602 0.03186 0.0
C6047 C 0.69373 0.08072 0.0205 0.0
C6048 C 0.69437 0.09705 0.01519 0.0
C6049 C 0.69155 0.05066 0.03178 0.0
C6050 C 0.67851 0.05636 0.02621 0.0
C6051 C 0.67972 0.0711 0.02028 0.0
C6052 C 0.66349 0.04814 0.02804 0.0
C6053 C 0.69073 0.03468 0.03786 0.0
C6054 C 0.6524 0.04291 0.01433 0.0
C6055 C 0.63764 0.03725 0.01632 0.0
C6056 C 0.63376 0.03699 0.03208 0.0
C6057 C 0.64506 0.04179 0.04574 0.0
C6058 C 0.6598 0.04732 0.04373 0.0
H6059 H 0.70131 0.03012 0.03733 0.0
H6060 H 0.68884 0.03599 0.05078 0.0
H6061 H 0.68129 0.02571 0.03061 0.0
H6062 H 0.6551 0.04361 1.00214 0.0
H6063 H 0.62921 0.03346 1.00556 0.0
H6064 H 0.22391 0.43856 0.28698 0.0
H6065 H 0.23562 0.41501 0.28595 0.0
H6066 H 0.19222 0.38466 0.27165 0.0
H6067 H 0.18044 0.40809 0.27249 0.0
H6068 H 0.23641 0.39064 0.30109 0.0
H6069 H 0.21117 0.36341 0.23826 0.0
H6070 H 0.2092 0.38317 0.24642 0.0
H6071 H 0.19712 0.36578 0.25087 0.0
C6072 C 0.2167 0.42695 0.28361 0.0
C6073 C 0.20097 0.42576 0.27969 0.0
C6074 C 0.22355 0.41325 0.28296 0.0
C6075 C 0.21511 0.39756 0.27828 0.0
C6076 C 0.19939 0.39632 0.27469 0.0
H6077 H 0.2372 0.29931 0.26986 0.0
H6078 H 0.22489 0.32261 0.27108 0.0
C6079 C 0.19253 0.41001 0.27525 0.0
C6080 C 0.22268 0.38275 0.27763 0.0
H6081 H 0.22384 0.34715 0.25423 0.0
C6082 C 0.23363 0.38126 0.29071 0.0
C6083 C 0.21939 0.37005 0.26426 0.0
C6084 C 0.2087 0.37073 0.24909 0.0
C6085 C 0.24089 0.36781 0.291 0.0
C6086 C 0.23755 0.35511 0.27766 0.0
C6087 C 0.22659 0.35656 0.2646 0.0
C6088 C 0.2453 0.34047 0.27696 0.0
C6089 C 0.25181 0.3672 0.306 0.0
C6090 C 0.26108 0.34209 0.27956 0.0
C6091 C 0.26819 0.32863 0.27884 0.0
C6092 C 0.25993 0.31277 0.27539 0.0
C6093 C 0.24414 0.31111 0.27263 0.0
C6094 C 0.23701 0.32462 0.2733 0.0
H6095 H 0.24959 0.37464 0.31688 0.0
H6096 H 0.25131 0.35477 0.30875 0.0
H6097 H 0.26334 0.37198 0.30393 0.0
H6098 H 0.26806 0.35389 0.28191 0.0
H6099 H 0.28032 0.33073 0.28091 0.0
H6100 H 0.22229 0.42287 0.00697 0.0
H6101 H 0.19994 0.43492 1.00484 0.0
H6102 H 0.21066 0.45396 0.05597 0.0
H6103 H 0.23334 0.44248 0.0581 0.0
H6104 H 0.17546 0.42985 0.02089 0.0
H6105 H 0.20415 0.49334 0.03534 0.0
H6106 H 0.21398 0.47738 0.03037 0.0
H6107 H 0.20924 0.48118 0.05052 0.0
C6108 C 0.22006 0.42983 0.01773 0.0
C6109 C 0.22976 0.43178 0.03269 0.0
C6110 C 0.20718 0.43661 0.01651 0.0
C6111 C 0.20371 0.44558 0.03017 0.0
C6112 C 0.21324 0.44738 0.04517 0.0
H6113 H 0.13128 0.4966 0.04628 0.0
H6114 H 0.15327 0.48398 0.0492 0.0
C6115 C 0.22614 0.44063 0.04641 0.0
C6116 C 0.18996 0.45274 0.02878 0.0
H6117 H 0.17771 0.48817 0.03372 0.0
C6118 C 0.17595 0.44261 0.02364 0.0
C6119 C 0.19058 0.46939 0.0324 0.0
C6120 C 0.20529 0.481 0.03732 0.0
C6121 C 0.16257 0.44862 0.02229 0.0
C6122 C 0.16319 0.46528 0.02585 0.0
C6123 C 0.1772 0.47541 0.03103 0.0
C6124 C 0.14948 0.4725 0.02414 0.0
C6125 C 0.14787 0.43699 0.01741 0.0
C6126 C 0.14001 0.47034 0.00907 0.0
C6127 C 0.1273 0.47737 0.00741 0.0
C6128 C 0.12383 0.48692 0.02074 0.0
C6129 C 0.13339 0.48911 0.03582 0.0
C6130 C 0.14608 0.48201 0.03748 0.0
H6131 H 0.14898 0.42475 0.01983 0.0
H6132 H 0.13906 0.44081 0.02404 0.0
H6133 H 0.14412 0.43642 1.00412 0.0
H6134 H 0.14254 0.46337 0.99849 0.0
H6135 H 0.12018 0.4753 0.99564 0.0
H6136 H 0.88473 0.92068 0.26943 0.0
H6137 H 0.86784 0.89564 0.27052 0.0
H6138 H 0.83856 0.90351 0.22858 0.0
H6139 H 0.85527 0.9288 0.22755 0.0
H6140 H 0.83726 0.89195 0.27431 0.0
H6141 H 0.8451 0.85745 0.21655 0.0
H6142 H 0.85791 0.8755 0.22614 0.0
H6143 H 0.84024 0.87663 0.2146 0.0
C6144 C 0.87467 0.91716 0.26046 0.0
C6145 C 0.87135 0.92682 0.24842 0.0
C6146 C 0.86508 0.90278 0.26106 0.0
C6147 C 0.85205 0.89765 0.24954 0.0
C6148 C 0.84872 0.90712 0.2374 0.0
H6149 H 0.77965 0.81494 0.23637 0.0
H6150 H 0.7966 0.83962 0.23364 0.0
C6151 C 0.8583 0.92157 0.23682 0.0
C6152 C 0.84167 0.88269 0.25071 0.0
H6153 H 0.82634 0.84535 0.23062 0.0
C6154 C 0.83489 0.88173 0.26479 0.0
C6155 C 0.83857 0.86944 0.23822 0.0
C6156 C 0.84591 0.86967 0.22306 0.0
C6157 C 0.82491 0.86793 0.26665 0.0
C6158 C 0.82193 0.85459 0.25424 0.0
C6159 C 0.82866 0.85558 0.24012 0.0
C6160 C 0.81188 0.83948 0.25573 0.0
C6161 C 0.81743 0.86793 0.28173 0.0
C6162 C 0.81498 0.8311 0.26889 0.0
C6163 C 0.80524 0.81716 0.27055 0.0
C6164 C 0.79239 0.81117 0.2589 0.0
C6165 C 0.78947 0.81934 0.24553 0.0
C6166 C 0.79915 0.83339 0.24394 0.0
H6167 H 0.81744 0.88028 0.28747 0.0
H6168 H 0.80568 0.8613 0.27885 0.0
H6169 H 0.82366 0.86205 0.29085 0.0
H6170 H 0.82491 0.83538 0.27793 0.0
H6171 H 0.80766 0.81122 0.2811 0.0
H6172 H 0.72671 0.08516 0.78047 0.0
H6173 H 0.73869 0.11267 0.77921 0.0
H6174 H 0.69648 0.1278 0.7812 0.0
H6175 H 0.68441 0.10033 0.78228 0.0
H6176 H 0.70919 0.14282 0.76024 0.0
H6177 H 0.75345 0.14966 0.81363 0.0
H6178 H 0.75454 0.13343 0.79857 0.0
H6179 H 0.73839 0.13253 0.80889 0.0
C6180 C 0.71993 0.0943 0.78087 0.0
C6181 C 0.70443 0.09013 0.78155 0.0
C6182 C 0.72689 0.11024 0.7802 0.0
C6183 C 0.71873 0.12279 0.78044 0.0
C6184 C 0.70325 0.11863 0.78101 0.0
H6185 H 0.76174 0.22561 0.80028 0.0
H6186 H 0.74958 0.19812 0.80191 0.0
C6187 C 0.69627 0.1027 0.78158 0.0
C6188 C 0.72608 0.14005 0.77965 0.0
H6189 H 0.75598 0.17006 0.79652 0.0
C6190 C 0.7194 0.14871 0.76827 0.0
C6191 C 0.73934 0.14824 0.79019 0.0
C6192 C 0.74677 0.14056 0.80362 0.0
C6193 C 0.72552 0.16482 0.76699 0.0
C6194 C 0.73914 0.17278 0.77703 0.0
C6195 C 0.74571 0.16421 0.78858 0.0
C6196 C 0.74662 0.18991 0.77595 0.0
C6197 C 0.71692 0.17325 0.75513 0.0
C6198 C 0.74942 0.19491 0.7609 0.0
C6199 C 0.75624 0.21078 0.75993 0.0
C6200 C 0.76084 0.22232 0.774 0.0
C6201 C 0.75835 0.21726 0.78911 0.0
C6202 C 0.75138 0.20139 0.79006 0.0
H6203 H 0.70481 0.16776 0.75266 0.0
H6204 H 0.71807 0.18611 0.75978 0.0
H6205 H 0.72127 0.17218 0.74333 0.0
H6206 H 0.7465 0.18646 0.74979 0.0
H6207 H 0.75807 0.21395 0.74805 0.0
loop_
_geom_bond_atom_site_label_1
_geom_bond_atom_site_label_2
_geom_bond_distance
_geom_bond_site_symmetry_2
_ccdc_geom_bond_type
Li0 N17 1.990 . S
Li0 O60 1.956 1_655 S
Li0 O61 1.970 . S
Li0 O62 1.961 . S
Li1 N25 1.990 . S
Li1 O60 1.970 . S
Li1 O61 1.956 1_455 S
Li1 O63 1.961 . S
Li2 N47 1.990 . S
Li2 O60 1.961 . S
Li2 O62 1.956 1_455 S
Li2 O63 1.970 . S
Li3 N53 1.990 . S
Li3 O61 1.918 1_455 S
Li3 O62 1.972 1_455 S
Li3 O63 1.991 . S
C4 C6 1.348 1_455 S
C4 C7 1.356 . S
C4 O60 1.325 . S
N5 C8 1.302 1_455 S
N5 C9 1.296 . S
C6 C4 1.348 1_655 S
C6 C8 1.353 . S
C6 H64 0.929 . S
C7 C4 1.356 . S
C7 C9 1.358 . S
C7 H65 0.930 . S
C8 N5 1.302 1_655 S
C8 C6 1.353 . S
C8 H66 0.930 . S
C9 N5 1.296 . S
C9 C7 1.358 . S
C9 H67 0.930 . S
C10 C13 1.348 . S
C10 C14 1.356 . S
C10 O61 1.325 . S
C11 N12 1.279 . S
C11 C14 1.358 . S
C11 H68 0.930 . S
N12 C11 1.279 . S
N12 C15 1.314 . S
C13 C10 1.348 . S
C13 C15 1.353 . S
C13 H69 0.929 . S
C14 C10 1.356 . S
C14 C11 1.358 . S
C14 H70 0.930 . S
C15 N12 1.314 . S
C15 C13 1.353 . S
C15 H71 0.930 . S
C16 N17 1.314 . S
C16 C21 1.353 . S
C16 H22 0.930 . S
N17 Li0 1.990 . S
N17 C16 1.314 . S
N17 C19 1.279 . S
C18 C19 1.358 . S
C18 C20 1.356 . S
C18 H72 0.930 . S
C19 N17 1.279 . S
C19 C18 1.358 . S
C19 H23 0.930 . S
C20 C18 1.356 . S
C20 C21 1.348 . S
C21 C16 1.353 . S
C21 C20 1.348 . S
C21 H73 0.929 . S
H22 C16 0.930 . S
H23 C19 0.930 . S
C24 N25 1.314 . S
C24 C26 1.353 . S
C24 H30 0.930 . S
N25 Li1 1.990 . S
N25 C24 1.314 . S
N25 C28 1.279 1_455 S
C26 C24 1.353 . S
C26 C29 1.348 . S
C26 H74 0.929 . S
C27 C28 1.358 . S
C27 C29 1.356 1_655 S
C27 H75 0.930 . S
C28 N25 1.279 1_655 S
C28 C27 1.358 . S
C28 H31 0.930 . S
C29 C26 1.348 . S
C29 C27 1.356 1_455 S
H30 C24 0.930 . S
H31 C28 0.930 . S
C32 C34 1.370 . S
C32 C35 1.356 . S
C32 O62 1.325 . S
N33 C36 1.314 . S
N33 C37 1.279 . S
C34 C32 1.370 . S
C34 C36 1.348 . S
C34 H76 0.917 1_655 S
C35 C32 1.356 . S
C35 C37 1.358 . S
C35 H77 0.930 . S
C36 N33 1.314 . S
C36 C34 1.348 . S
C36 H78 0.952 . S
C37 N33 1.279 . S
C37 C35 1.358 . S
C37 H79 0.930 . S
C38 C39 1.348 . S
C38 C40 1.356 . S
C38 O63 1.325 . S
C39 C38 1.348 . S
C39 C41 1.353 . S
C39 H80 0.929 . S
C40 C38 1.356 . S
C40 C42 1.358 . S
C40 H81 0.930 . S
C41 C39 1.353 . S
C41 N43 1.314 . S
C41 H82 0.930 . S
C42 C40 1.358 . S
C42 N43 1.279 . S
C42 H83 0.930 . S
N43 C41 1.314 . S
N43 C42 1.279 . S
C44 C46 1.353 . S
C44 N47 1.314 . S
C44 H50 0.930 . S
C45 N47 1.279 . S
C45 C48 1.358 . S
C45 H51 0.930 . S
C46 C44 1.353 . S
C46 C49 1.348 . S
C46 H84 0.929 . S
N47 Li2 1.990 . S
N47 C44 1.314 . S
N47 C45 1.279 . S
C48 C45 1.358 . S
C48 C49 1.356 . S
C48 H85 0.930 . S
C49 C46 1.348 . S
C49 C48 1.356 . S
H50 C44 0.930 . S
H51 C45 0.930 . S
C52 N53 1.279 1_655 S
C52 C54 1.353 . S
C52 H58 0.930 . S
N53 Li3 1.990 . S
N53 C52 1.279 1_455 S
N53 C56 1.317 . S
C54 C52 1.353 . S
C54 C57 1.409 . S
C54 H86 0.929 . S
C55 C56 1.358 . S
C55 C57 1.302 1_455 S
C55 H87 0.930 . S
C56 N53 1.317 . S
C56 C55 1.358 . S
C56 H59 0.930 . S
C57 C54 1.409 . S
C57 C55 1.302 1_655 S
H58 C52 0.930 . S
H59 C56 0.930 . S
O60 Li0 1.956 1_455 S
O60 Li1 1.970 . S
O60 Li2 1.961 . S
O60 C4 1.325 . S
O61 Li0 1.970 . S
O61 Li1 1.956 1_655 S
O61 Li3 1.918 1_655 S
O61 C10 1.325 . S
O62 Li0 1.961 . S
O62 Li2 1.956 1_655 S
O62 Li3 1.972 1_655 S
O62 C32 1.325 . S
O63 Li1 1.961 . S
O63 Li2 1.970 . S
O63 Li3 1.991 . S
O63 C38 1.325 . S
H64 C6 0.929 . S
H65 C7 0.930 . S
H66 C8 0.930 . S
H67 C9 0.930 . S
H68 C11 0.930 . S
H69 C13 0.929 . S
H70 C14 0.930 . S
H71 C15 0.930 . S
H72 C18 0.930 . S
H73 C21 0.929 . S
H74 C26 0.929 . S
H75 C27 0.930 . S
H76 C34 0.917 1_455 S
H77 C35 0.930 . S
H78 C36 0.952 . S
H79 C37 0.930 . S
H80 C39 0.929 . S
H81 C40 0.930 . S
H82 C41 0.930 . S
H83 C42 0.930 . S
H84 C46 0.929 . S
H85 C48 0.930 . S
H86 C54 0.929 . S
H87 C55 0.930 . S
Li88 N105 1.990 . S
Li88 O148 1.956 . S
Li88 O149 1.970 . S
Li88 O150 1.961 . S
Li89 N113 1.990 . S
Li89 O148 1.970 . S
Li89 O149 1.956 . S
Li89 O151 1.961 . S
Li90 N135 1.990 . S
Li90 O148 1.961 . S
Li90 O150 1.956 . S
Li90 O151 1.970 . S
Li91 N141 1.990 . S
Li91 O149 1.961 . S
Li91 O150 1.970 . S
Li91 O151 1.956 . S
C92 C94 1.348 . S
C92 C95 1.356 . S
C92 O148 1.325 . S
N93 C96 1.314 . S
N93 C97 1.279 . S
C94 C92 1.348 . S
C94 C96 1.353 . S
C94 H152 0.929 . S
C95 C92 1.356 . S
C95 C97 1.358 . S
C95 H153 0.930 . S
C96 N93 1.314 . S
C96 C94 1.353 . S
C96 H154 0.930 . S
C97 N93 1.279 . S
C97 C95 1.358 . S
C97 H155 0.930 . S
C98 C101 1.348 . S
C98 C102 1.356 . S
C98 O149 1.325 . S
C99 N100 1.279 . S
C99 C102 1.358 . S
C99 H156 0.930 . S
N100 C99 1.279 . S
N100 C103 1.314 . S
C101 C98 1.348 . S
C101 C103 1.353 . S
C101 H157 0.929 . S
C102 C98 1.356 . S
C102 C99 1.358 . S
C102 H158 0.930 . S
C103 N100 1.314 . S
C103 C101 1.353 . S
C103 H159 0.930 . S
C104 N105 1.314 . S
C104 C109 1.353 . S
C104 H110 0.930 . S
N105 Li88 1.990 . S
N105 C104 1.314 . S
N105 C107 1.279 . S
C106 C107 1.358 . S
C106 C108 1.356 . S
C106 H160 0.930 . S
C107 N105 1.279 . S
C107 C106 1.358 . S
C107 H111 0.930 . S
C108 C106 1.356 . S
C108 C109 1.348 . S
C109 C104 1.353 . S
C109 C108 1.348 . S
C109 H161 0.929 . S
H110 C104 0.930 . S
H111 C107 0.930 . S
C112 N113 1.314 . S
C112 C114 1.353 . S
C112 H118 0.930 . S
N113 Li89 1.990 . S
N113 C112 1.314 . S
N113 C116 1.279 . S
C114 C112 1.353 . S
C114 C117 1.348 . S
C114 H162 0.929 . S
C115 C116 1.358 . S
C115 C117 1.356 . S
C115 H163 0.930 . S
C116 N113 1.279 . S
C116 C115 1.358 . S
C116 H119 0.930 . S
C117 C114 1.348 . S
C117 C115 1.356 . S
H118 C112 0.930 . S
H119 C116 0.930 . S
C120 C122 1.348 . S
C120 C123 1.356 . S
C120 O150 1.325 . S
N121 C124 1.314 . S
N121 C125 1.279 1_655 S
C122 C120 1.348 . S
C122 C124 1.353 1_455 S
C122 H164 0.929 . S
C123 C120 1.356 . S
C123 C125 1.358 . S
C123 H165 0.930 . S
C124 N121 1.314 . S
C124 C122 1.353 1_655 S
C124 H166 0.930 . S
C125 N121 1.279 1_455 S
C125 C123 1.358 . S
C125 H167 0.930 . S
C126 C127 1.348 . S
C126 C128 1.356 . S
C126 O151 1.325 . S
C127 C126 1.348 . S
C127 C129 1.353 . S
C127 H168 0.929 . S
C128 C126 1.356 . S
C128 C130 1.358 . S
C128 H169 0.930 . S
C129 C127 1.353 . S
C129 N131 1.314 . S
C129 H170 0.930 . S
C130 C128 1.358 . S
C130 N131 1.279 . S
C130 H171 0.930 . S
N131 C129 1.314 . S
N131 C130 1.279 . S
C132 C134 1.353 . S
C132 N135 1.314 . S
C132 H138 0.930 . S
C133 N135 1.279 . S
C133 C136 1.358 . S
C133 H139 0.930 . S
C134 C132 1.353 . S
C134 C137 1.348 . S
C134 H172 0.929 . S
N135 Li90 1.990 . S
N135 C132 1.314 . S
N135 C133 1.279 . S
C136 C133 1.358 . S
C136 C137 1.356 . S
C136 H173 0.930 . S
C137 C134 1.348 . S
C137 C136 1.356 . S
H138 C132 0.930 . S
H139 C133 0.930 . S
C140 N141 1.314 . S
C140 C142 1.353 . S
C140 H146 0.930 . S
N141 Li91 1.990 . S
N141 C140 1.314 . S
N141 C144 1.279 . S
C142 C140 1.353 . S
C142 C145 1.348 1_455 S
C142 H174 0.929 1_455 S
C143 C144 1.358 . S
C143 C145 1.356 1_455 S
C143 H175 0.929 1_455 S
C144 N141 1.279 . S
C144 C143 1.358 . S
C144 H147 0.930 . S
C145 C142 1.348 1_655 S
C145 C143 1.356 1_655 S
H146 C140 0.930 . S
H147 C144 0.930 . S
O148 Li88 1.956 . S
O148 Li89 1.970 . S
O148 Li90 1.961 . S
O148 C92 1.325 . S
O149 Li88 1.970 . S
O149 Li89 1.956 . S
O149 Li91 1.961 . S
O149 C98 1.325 . S
O150 Li88 1.961 . S
O150 Li90 1.956 . S
O150 Li91 1.970 . S
O150 C120 1.325 . S
O151 Li89 1.961 . S
O151 Li90 1.970 . S
O151 Li91 1.956 . S
O151 C126 1.325 . S
H152 C94 0.929 . S
H153 C95 0.930 . S
H154 C96 0.930 . S
H155 C97 0.930 . S
H156 C99 0.930 . S
H157 C101 0.929 . S
H158 C102 0.930 . S
H159 C103 0.930 . S
H160 C106 0.930 . S
H161 C109 0.929 . S
H162 C114 0.929 . S
H163 C115 0.930 . S
H164 C122 0.929 . S
H165 C123 0.930 . S
H166 C124 0.930 . S
H167 C125 0.930 . S
H168 C127 0.929 . S
H169 C128 0.930 . S
H170 C129 0.930 . S
H171 C130 0.930 . S
H172 C134 0.929 . S
H173 C136 0.930 . S
H174 C142 0.929 1_655 S
H175 C143 0.929 1_655 S
Li176 N193 1.990 . S
Li176 O236 1.956 . S
Li176 O237 1.970 . S
Li176 O238 1.961 . S
Li177 N201 1.990 . S
Li177 O236 1.970 . S
Li177 O237 1.956 . S
Li177 O239 1.961 . S
Li178 N223 1.990 . S
Li178 O236 1.961 . S
Li178 O238 1.956 . S
Li178 O239 1.970 . S
Li179 N229 1.990 . S
Li179 O237 1.961 . S
Li179 O238 1.970 . S
Li179 O239 1.956 . S
C180 C182 1.348 . S
C180 C183 1.356 . S
C180 O236 1.325 . S
N181 C184 1.314 . S
N181 C185 1.279 . S
C182 C180 1.348 . S
C182 C184 1.353 . S
C182 H240 0.929 . S
C183 C180 1.356 . S
C183 C185 1.358 . S
C183 H241 0.930 . S
C184 N181 1.314 . S
C184 C182 1.353 . S
C184 H242 0.930 . S
C185 N181 1.279 . S
C185 C183 1.358 . S
C185 H243 0.930 . S
C186 C189 1.348 . S
C186 C190 1.356 . S
C186 O237 1.325 . S
C187 N188 1.279 . S
C187 C190 1.358 . S
C187 H244 0.930 . S
N188 C187 1.279 . S
N188 C191 1.314 . S
C189 C186 1.348 . S
C189 C191 1.353 . S
C189 H245 0.929 . S
C190 C186 1.356 . S
C190 C187 1.358 . S
C190 H246 0.930 . S
C191 N188 1.314 . S
C191 C189 1.353 . S
C191 H247 0.930 . S
C192 N193 1.314 . S
C192 C197 1.353 . S
C192 H198 0.930 . S
N193 Li176 1.990 . S
N193 C192 1.314 . S
N193 C195 1.279 . S
C194 C195 1.358 . S
C194 C196 1.356 . S
C194 H248 0.930 . S
C195 N193 1.279 . S
C195 C194 1.358 . S
C195 H199 0.930 . S
C196 C194 1.356 . S
C196 C197 1.348 . S
C197 C192 1.353 . S
C197 C196 1.348 . S
C197 H249 0.929 . S
H198 C192 0.930 . S
H199 C195 0.930 . S
C200 N201 1.314 . S
C200 C202 1.353 . S
C200 H206 0.930 . S
N201 Li177 1.990 . S
N201 C200 1.314 . S
N201 C204 1.279 . S
C202 C200 1.353 . S
C202 C205 1.348 . S
C202 H250 0.929 . S
C203 C204 1.358 . S
C203 C205 1.356 . S
C203 H251 0.930 . S
C204 N201 1.279 . S
C204 C203 1.358 . S
C204 H207 0.930 . S
C205 C202 1.348 . S
C205 C203 1.356 . S
H206 C200 0.930 . S
H207 C204 0.930 . S
C208 C210 1.348 . S
C208 C211 1.356 . S
C208 O238 1.325 . S
N209 C212 1.314 . S
N209 C213 1.279 . S
C210 C208 1.348 . S
C210 C212 1.353 . S
C210 H252 0.929 . S
C211 C208 1.356 . S
C211 C213 1.358 . S
C211 H253 0.930 . S
C212 N209 1.314 . S
C212 C210 1.353 . S
C212 H254 0.930 . S
C213 N209 1.279 . S
C213 C211 1.358 . S
C213 H255 0.930 . S
C214 C215 1.348 . S
C214 C216 1.356 . S
C214 O239 1.325 . S
C215 C214 1.348 . S
C215 C217 1.353 . S
C215 H256 0.929 . S
C216 C214 1.356 . S
C216 C218 1.358 . S
C216 H257 0.930 . S
C217 C215 1.353 . S
C217 N219 1.314 . S
C217 H258 0.930 . S
C218 C216 1.358 . S
C218 N219 1.279 . S
C218 H259 0.930 . S
N219 C217 1.314 . S
N219 C218 1.279 . S
C220 C222 1.353 . S
C220 N223 1.314 . S
C220 H226 0.930 . S
C221 N223 1.279 . S
C221 C224 1.358 . S
C221 H227 0.930 . S
C222 C220 1.353 . S
C222 C225 1.348 . S
C222 H260 0.929 . S
N223 Li178 1.990 . S
N223 C220 1.314 . S
N223 C221 1.279 . S
C224 C221 1.358 . S
C224 C225 1.356 . S
C224 H261 0.930 . S
C225 C222 1.348 . S
C225 C224 1.356 . S
H226 C220 0.930 . S
H227 C221 0.930 . S
C228 N229 1.314 . S
C228 C230 1.353 . S
C228 H234 0.930 . S
N229 Li179 1.990 . S
N229 C228 1.314 . S
N229 C232 1.279 . S
C230 C228 1.353 . S
C230 C233 1.348 . S
C230 H262 0.929 . S
C231 C232 1.358 . S
C231 C233 1.356 . S
C231 H263 0.930 . S
C232 N229 1.279 . S
C232 C231 1.358 . S
C232 H235 0.930 . S
C233 C230 1.348 . S
C233 C231 1.356 . S
H234 C228 0.930 . S
H235 C232 0.930 . S
O236 Li176 1.956 . S
O236 Li177 1.970 . S
O236 Li178 1.961 . S
O236 C180 1.325 . S
O237 Li176 1.970 . S
O237 Li177 1.956 . S
O237 Li179 1.961 . S
O237 C186 1.325 . S
O238 Li176 1.961 . S
O238 Li178 1.956 . S
O238 Li179 1.970 . S
O238 C208 1.325 . S
O239 Li177 1.961 . S
O239 Li178 1.970 . S
O239 Li179 1.956 . S
O239 C214 1.325 . S
H240 C182 0.929 . S
H241 C183 0.930 . S
H242 C184 0.930 . S
H243 C185 0.930 . S
H244 C187 0.930 . S
H245 C189 0.929 . S
H246 C190 0.930 . S
H247 C191 0.930 . S
H248 C194 0.930 . S
H249 C197 0.929 . S
H250 C202 0.929 . S
H251 C203 0.930 . S
H252 C210 0.929 . S
H253 C211 0.930 . S
H254 C212 0.930 . S
H255 C213 0.930 . S
H256 C215 0.929 . S
H257 C216 0.930 . S
H258 C217 0.930 . S
H259 C218 0.930 . S
H260 C222 0.929 . S
H261 C224 0.930 . S
H262 C230 0.929 . S
H263 C231 0.930 . S
Li264 N281 1.990 . S
Li264 O324 1.956 . S
Li264 O325 1.970 . S
Li264 O326 1.961 . S
Li265 N289 1.990 . S
Li265 O324 1.970 . S
Li265 O325 1.956 . S
Li265 O327 1.961 . S
Li266 N311 1.990 . S
Li266 O324 1.961 . S
Li266 O326 1.956 . S
Li266 O327 1.970 . S
Li267 N317 1.990 . S
Li267 O325 1.961 . S
Li267 O326 1.970 . S
Li267 O327 1.956 . S
C268 C270 1.348 . S
C268 C271 1.356 . S
C268 O324 1.325 . S
N269 C272 1.314 . S
N269 C273 1.279 . S
C270 C268 1.348 . S
C270 C272 1.353 . S
C270 H328 0.929 . S
C271 C268 1.356 . S
C271 C273 1.358 . S
C271 H329 0.930 . S
C272 N269 1.314 . S
C272 C270 1.353 . S
C272 H330 0.930 . S
C273 N269 1.279 . S
C273 C271 1.358 . S
C273 H331 0.930 . S
C274 C277 1.348 . S
C274 C278 1.356 . S
C274 O325 1.325 . S
C275 N276 1.279 . S
C275 C278 1.358 . S
C275 H332 0.930 . S
N276 C275 1.279 . S
N276 C279 1.314 . S
C277 C274 1.348 . S
C277 C279 1.353 . S
C277 H333 0.929 . S
C278 C274 1.356 . S
C278 C275 1.358 . S
C278 H334 0.930 . S
C279 N276 1.314 . S
C279 C277 1.353 . S
C279 H335 0.930 . S
C280 N281 1.314 . S
C280 C285 1.353 . S
C280 H286 0.930 . S
N281 Li264 1.990 . S
N281 C280 1.314 . S
N281 C283 1.279 . S
C282 C283 1.358 . S
C282 C284 1.356 . S
C282 H336 0.930 . S
C283 N281 1.279 . S
C283 C282 1.358 . S
C283 H287 0.930 . S
C284 C282 1.356 . S
C284 C285 1.348 . S
C285 C280 1.353 . S
C285 C284 1.348 . S
C285 H337 0.929 . S
H286 C280 0.930 . S
H287 C283 0.930 . S
C288 N289 1.314 . S
C288 C290 1.353 . S
C288 H294 0.930 . S
N289 Li265 1.990 . S
N289 C288 1.314 . S
N289 C292 1.279 . S
C290 C288 1.353 . S
C290 C293 1.348 . S
C290 H338 0.929 . S
C291 C292 1.358 . S
C291 C293 1.356 . S
C291 H339 0.930 . S
C292 N289 1.279 . S
C292 C291 1.358 . S
C292 H295 0.930 . S
C293 C290 1.348 . S
C293 C291 1.356 . S
H294 C288 0.930 . S
H295 C292 0.930 . S
C296 C298 1.348 . S
C296 C299 1.356 . S
C296 O326 1.325 . S
N297 C300 1.314 . S
N297 C301 1.279 . S
C298 C296 1.348 . S
C298 C300 1.353 . S
C298 H340 0.929 . S
C299 C296 1.356 . S
C299 C301 1.358 . S
C299 H341 0.930 . S
C300 N297 1.314 . S
C300 C298 1.353 . S
C300 H342 0.930 . S
C301 N297 1.279 . S
C301 C299 1.358 . S
C301 H343 0.930 . S
C302 C303 1.348 . S
C302 C304 1.356 . S
C302 O327 1.325 . S
C303 C302 1.348 . S
C303 C305 1.353 . S
C303 H344 0.929 . S
C304 C302 1.356 . S
C304 C306 1.358 . S
C304 H345 0.930 . S
C305 C303 1.353 . S
C305 N307 1.314 . S
C305 H346 0.930 . S
C306 C304 1.358 . S
C306 N307 1.279 . S
C306 H347 0.930 . S
N307 C305 1.314 . S
N307 C306 1.279 . S
C308 C310 1.353 . S
C308 N311 1.314 . S
C308 H314 0.930 . S
C309 N311 1.279 . S
C309 C312 1.358 . S
C309 H315 0.930 . S
C310 C308 1.353 . S
C310 C313 1.348 . S
C310 H348 0.929 . S
N311 Li266 1.990 . S
N311 C308 1.314 . S
N311 C309 1.279 . S
C312 C309 1.358 . S
C312 C313 1.356 . S
C312 H349 0.930 . S
C313 C310 1.348 . S
C313 C312 1.356 . S
H314 C308 0.930 . S
H315 C309 0.930 . S
C316 N317 1.314 . S
C316 C318 1.353 . S
C316 H322 0.930 . S
N317 Li267 1.990 . S
N317 C316 1.314 . S
N317 C320 1.279 . S
C318 C316 1.353 . S
C318 C321 1.348 . S
C318 H350 0.929 . S
C319 C320 1.358 . S
C319 C321 1.356 . S
C319 H351 0.930 . S
C320 N317 1.279 . S
C320 C319 1.358 . S
C320 H323 0.930 . S
C321 C318 1.348 . S
C321 C319 1.356 . S
H322 C316 0.930 . S
H323 C320 0.930 . S
O324 Li264 1.956 . S
O324 Li265 1.970 . S
O324 Li266 1.961 . S
O324 C268 1.325 . S
O325 Li264 1.970 . S
O325 Li265 1.956 . S
O325 Li267 1.961 . S
O325 C274 1.325 . S
O326 Li264 1.961 . S
O326 Li266 1.956 . S
O326 Li267 1.970 . S
O326 C296 1.325 . S
O327 Li265 1.961 . S
O327 Li266 1.970 . S
O327 Li267 1.956 . S
O327 C302 1.325 . S
H328 C270 0.929 . S
H329 C271 0.930 . S
H330 C272 0.930 . S
H331 C273 0.930 . S
H332 C275 0.930 . S
H333 C277 0.929 . S
H334 C278 0.930 . S
H335 C279 0.930 . S
H336 C282 0.930 . S
H337 C285 0.929 . S
H338 C290 0.929 . S
H339 C291 0.930 . S
H340 C298 0.929 . S
H341 C299 0.930 . S
H342 C300 0.930 . S
H343 C301 0.930 . S
H344 C303 0.929 . S
H345 C304 0.930 . S
H346 C305 0.930 . S
H347 C306 0.930 . S
H348 C310 0.929 . S
H349 C312 0.930 . S
H350 C318 0.929 . S
H351 C319 0.930 . S
Li352 N369 1.990 . S
Li352 O412 1.956 . S
Li352 O413 1.970 . S
Li352 O414 1.961 . S
Li353 N377 1.990 . S
Li353 O412 1.970 . S
Li353 O413 1.956 . S
Li353 O415 1.961 . S
Li354 N399 1.990 . S
Li354 O412 1.961 . S
Li354 O414 1.956 . S
Li354 O415 1.970 . S
Li355 N405 1.990 . S
Li355 O413 1.961 . S
Li355 O414 1.970 . S
Li355 O415 1.956 . S
C356 C358 1.348 . S
C356 C359 1.356 . S
C356 O412 1.325 . S
N357 C360 1.314 . S
N357 C361 1.279 . S
C358 C356 1.348 . S
C358 C360 1.353 . S
C358 H416 0.929 . S
C359 C356 1.356 . S
C359 C361 1.358 . S
C359 H417 0.930 . S
C360 N357 1.314 . S
C360 C358 1.353 . S
C360 H418 0.930 . S
C361 N357 1.279 . S
C361 C359 1.358 . S
C361 H419 0.930 . S
C362 C365 1.348 . S
C362 C366 1.356 . S
C362 O413 1.325 . S
C363 N364 1.279 . S
C363 C366 1.358 . S
C363 H420 0.930 . S
N364 C363 1.279 . S
N364 C367 1.314 . S
C365 C362 1.348 . S
C365 C367 1.353 . S
C365 H421 0.929 . S
C366 C362 1.356 . S
C366 C363 1.358 . S
C366 H422 0.930 . S
C367 N364 1.314 . S
C367 C365 1.353 . S
C367 H423 0.930 . S
C368 N369 1.314 . S
C368 C373 1.353 . S
C368 H374 0.930 . S
N369 Li352 1.990 . S
N369 C368 1.314 . S
N369 C371 1.279 . S
C370 C371 1.358 . S
C370 C372 1.356 . S
C370 H424 0.930 . S
C371 N369 1.279 . S
C371 C370 1.358 . S
C371 H375 0.930 . S
C372 C370 1.356 . S
C372 C373 1.348 . S
C373 C368 1.353 . S
C373 C372 1.348 . S
C373 H425 0.929 . S
H374 C368 0.930 . S
H375 C371 0.930 . S
C376 N377 1.314 . S
C376 C378 1.353 . S
C376 H382 0.930 . S
N377 Li353 1.990 . S
N377 C376 1.314 . S
N377 C380 1.279 . S
C378 C376 1.353 . S
C378 C381 1.348 . S
C378 H426 0.929 . S
C379 C380 1.358 . S
C379 C381 1.356 . S
C379 H427 0.930 . S
C380 N377 1.279 . S
C380 C379 1.358 . S
C380 H383 0.930 . S
C381 C378 1.348 . S
C381 C379 1.356 . S
H382 C376 0.930 . S
H383 C380 0.930 . S
C384 C386 1.348 1_455 S
C384 C387 1.356 . S
C384 O414 1.325 . S
N385 C388 1.314 . S
N385 C389 1.279 . S
C386 C384 1.348 1_655 S
C386 C388 1.353 . S
C386 H428 0.929 . S
C387 C384 1.356 . S
C387 C389 1.358 1_455 S
C387 H429 0.930 . S
C388 N385 1.314 . S
C388 C386 1.353 . S
C388 H430 0.930 . S
C389 N385 1.279 . S
C389 C387 1.358 1_655 S
C389 H431 0.930 . S
C390 C391 1.348 . S
C390 C392 1.356 . S
C390 O415 1.325 . S
C391 C390 1.348 . S
C391 C393 1.353 . S
C391 H432 0.929 . S
C392 C390 1.356 . S
C392 C394 1.358 . S
C392 H433 0.930 . S
C393 C391 1.353 . S
C393 N395 1.314 . S
C393 H434 0.930 . S
C394 C392 1.358 . S
C394 N395 1.279 . S
C394 H435 0.930 . S
N395 C393 1.314 . S
N395 C394 1.279 . S
C396 C398 1.353 . S
C396 N399 1.314 . S
C396 H402 0.930 . S
C397 N399 1.279 . S
C397 C400 1.358 . S
C397 H403 0.930 . S
C398 C396 1.353 . S
C398 C401 1.348 . S
C398 H436 0.929 . S
N399 Li354 1.990 . S
N399 C396 1.314 . S
N399 C397 1.279 . S
C400 C397 1.358 . S
C400 C401 1.356 . S
C400 H437 0.930 . S
C401 C398 1.348 . S
C401 C400 1.356 . S
H402 C396 0.930 . S
H403 C397 0.930 . S
C404 N405 1.359 . S
C404 C406 1.295 1_455 S
C404 H410 0.948 . S
N405 Li355 1.990 . S
N405 C404 1.359 . S
N405 C408 1.279 . S
C406 C404 1.295 1_655 S
C406 C409 1.348 . S
C406 H438 0.929 . S
C407 C408 1.358 1_655 S
C407 C409 1.356 . S
C407 H439 0.930 . S
C408 N405 1.279 . S
C408 C407 1.358 1_455 S
C408 H411 0.930 . S
C409 C406 1.348 . S
C409 C407 1.356 . S
H410 C404 0.948 . S
H411 C408 0.930 . S
O412 Li352 1.956 . S
O412 Li353 1.970 . S
O412 Li354 1.961 . S
O412 C356 1.325 . S
O413 Li352 1.970 . S
O413 Li353 1.956 . S
O413 Li355 1.961 . S
O413 C362 1.325 . S
O414 Li352 1.961 . S
O414 Li354 1.956 . S
O414 Li355 1.970 . S
O414 C384 1.325 . S
O415 Li353 1.961 . S
O415 Li354 1.970 . S
O415 Li355 1.956 . S
O415 C390 1.325 . S
H416 C358 0.929 . S
H417 C359 0.930 . S
H418 C360 0.930 . S
H419 C361 0.930 . S
H420 C363 0.930 . S
H421 C365 0.929 . S
H422 C366 0.930 . S
H423 C367 0.930 . S
H424 C370 0.930 . S
H425 C373 0.929 . S
H426 C378 0.929 . S
H427 C379 0.930 . S
H428 C386 0.929 . S
H429 C387 0.930 . S
H430 C388 0.930 . S
H431 C389 0.930 . S
H432 C391 0.929 . S
H433 C392 0.930 . S
H434 C393 0.930 . S
H435 C394 0.930 . S
H436 C398 0.929 . S
H437 C400 0.930 . S
H438 C406 0.929 . S
H439 C407 0.930 . S
Li440 N457 1.990 . S
Li440 O500 1.956 . S
Li440 O501 1.970 . S
Li440 O502 1.961 . S
Li441 N465 1.990 . S
Li441 O500 1.970 . S
Li441 O501 1.956 . S
Li441 O503 1.961 . S
Li442 N487 1.990 . S
Li442 O500 1.961 . S
Li442 O502 1.956 . S
Li442 O503 1.970 . S
Li443 N493 1.990 . S
Li443 O501 1.961 . S
Li443 O502 1.970 . S
Li443 O503 1.956 . S
C444 C446 1.348 . S
C444 C447 1.356 . S
C444 O500 1.325 . S
N445 C448 1.314 . S
N445 C449 1.279 . S
C446 C444 1.348 . S
C446 C448 1.353 . S
C446 H504 0.929 . S
C447 C444 1.356 . S
C447 C449 1.358 . S
C447 H505 0.930 . S
C448 N445 1.314 . S
C448 C446 1.353 . S
C448 H506 0.930 . S
C449 N445 1.279 . S
C449 C447 1.358 . S
C449 H507 0.930 . S
C450 C453 1.348 . S
C450 C454 1.356 . S
C450 O501 1.325 . S
C451 N452 1.279 . S
C451 C454 1.358 . S
C451 H508 0.930 . S
N452 C451 1.279 . S
N452 C455 1.314 . S
C453 C450 1.348 . S
C453 C455 1.353 . S
C453 H509 0.929 . S
C454 C450 1.356 . S
C454 C451 1.358 . S
C454 H510 0.930 . S
C455 N452 1.314 . S
C455 C453 1.353 . S
C455 H511 0.930 . S
C456 N457 1.314 . S
C456 C461 1.353 . S
C456 H462 0.930 . S
N457 Li440 1.990 . S
N457 C456 1.314 . S
N457 C459 1.279 . S
C458 C459 1.358 . S
C458 C460 1.356 . S
C458 H512 0.930 . S
C459 N457 1.279 . S
C459 C458 1.358 . S
C459 H463 0.930 . S
C460 C458 1.356 . S
C460 C461 1.348 . S
C461 C456 1.353 . S
C461 C460 1.348 . S
C461 H513 0.929 . S
H462 C456 0.930 . S
H463 C459 0.930 . S
C464 N465 1.314 . S
C464 C466 1.353 . S
C464 H470 0.930 . S
N465 Li441 1.990 . S
N465 C464 1.314 . S
N465 C468 1.279 . S
C466 C464 1.353 . S
C466 C469 1.348 . S
C466 H514 0.929 . S
C467 C468 1.358 . S
C467 C469 1.356 . S
C467 H515 0.930 . S
C468 N465 1.279 . S
C468 C467 1.358 . S
C468 H471 0.930 . S
C469 C466 1.348 . S
C469 C467 1.356 . S
H470 C464 0.930 . S
H471 C468 0.930 . S
C472 C474 1.348 . S
C472 C475 1.356 . S
C472 O502 1.325 . S
N473 C476 1.314 . S
N473 C477 1.279 . S
C474 C472 1.348 . S
C474 C476 1.353 . S
C474 H516 0.929 . S
C475 C472 1.356 . S
C475 C477 1.358 . S
C475 H517 0.930 . S
C476 N473 1.314 . S
C476 C474 1.353 . S
C476 H518 0.930 . S
C477 N473 1.279 . S
C477 C475 1.358 . S
C477 H519 0.930 . S
C478 C479 1.348 . S
C478 C480 1.356 . S
C478 O503 1.325 . S
C479 C478 1.348 . S
C479 C481 1.353 . S
C479 H520 0.929 . S
C480 C478 1.356 . S
C480 C482 1.358 . S
C480 H521 0.930 . S
C481 C479 1.353 . S
C481 N483 1.314 . S
C481 H522 0.930 . S
C482 C480 1.358 . S
C482 N483 1.279 . S
C482 H523 0.930 . S
N483 C481 1.314 . S
N483 C482 1.279 . S
C484 C486 1.353 . S
C484 N487 1.314 . S
C484 H490 0.930 . S
C485 N487 1.279 . S
C485 C488 1.358 . S
C485 H491 0.930 . S
C486 C484 1.353 . S
C486 C489 1.348 . S
C486 H524 0.929 . S
N487 Li442 1.990 . S
N487 C484 1.314 . S
N487 C485 1.279 . S
C488 C485 1.358 . S
C488 C489 1.356 . S
C488 H525 0.930 . S
C489 C486 1.348 . S
C489 C488 1.356 . S
H490 C484 0.930 . S
H491 C485 0.930 . S
C492 N493 1.314 . S
C492 C494 1.353 . S
C492 H498 0.930 . S
N493 Li443 1.990 . S
N493 C492 1.314 . S
N493 C496 1.279 . S
C494 C492 1.353 . S
C494 C497 1.348 . S
C494 H526 0.929 . S
C495 C496 1.358 . S
C495 C497 1.356 . S
C495 H527 0.930 . S
C496 N493 1.279 . S
C496 C495 1.358 . S
C496 H499 0.930 . S
C497 C494 1.348 . S
C497 C495 1.356 . S
H498 C492 0.930 . S
H499 C496 0.930 . S
O500 Li440 1.956 . S
O500 Li441 1.970 . S
O500 Li442 1.961 . S
O500 C444 1.325 . S
O501 Li440 1.970 . S
O501 Li441 1.956 . S
O501 Li443 1.961 . S
O501 C450 1.325 . S
O502 Li440 1.961 . S
O502 Li442 1.956 . S
O502 Li443 1.970 . S
O502 C472 1.325 . S
O503 Li441 1.961 . S
O503 Li442 1.970 . S
O503 Li443 1.956 . S
O503 C478 1.325 . S
H504 C446 0.929 . S
H505 C447 0.930 . S
H506 C448 0.930 . S
H507 C449 0.930 . S
H508 C451 0.930 . S
H509 C453 0.929 . S
H510 C454 0.930 . S
H511 C455 0.930 . S
H512 C458 0.930 . S
H513 C461 0.929 . S
H514 C466 0.929 . S
H515 C467 0.930 . S
H516 C474 0.929 . S
H517 C475 0.930 . S
H518 C476 0.930 . S
H519 C477 0.930 . S
H520 C479 0.929 . S
H521 C480 0.930 . S
H522 C481 0.930 . S
H523 C482 0.930 . S
H524 C486 0.929 . S
H525 C488 0.930 . S
H526 C494 0.929 . S
H527 C495 0.930 . S
Li528 N545 1.990 . S
Li528 O588 1.956 . S
Li528 O589 1.970 . S
Li528 O590 1.961 . S
Li529 N553 1.990 . S
Li529 O588 1.970 . S
Li529 O589 1.956 . S
Li529 O591 1.961 . S
Li530 N575 1.990 . S
Li530 O588 1.961 . S
Li530 O590 1.956 . S
Li530 O591 1.970 . S
Li531 N581 1.990 . S
Li531 O589 1.961 . S
Li531 O590 1.970 . S
Li531 O591 1.956 . S
C532 C534 1.348 . S
C532 C535 1.356 . S
C532 O588 1.325 . S
N533 C536 1.314 . S
N533 C537 1.279 . S
C534 C532 1.348 . S
C534 C536 1.353 . S
C534 H592 0.929 . S
C535 C532 1.356 . S
C535 C537 1.358 . S
C535 H593 0.930 . S
C536 N533 1.314 . S
C536 C534 1.353 . S
C536 H594 0.930 . S
C537 N533 1.279 . S
C537 C535 1.358 . S
C537 H595 0.930 . S
C538 C541 1.348 . S
C538 C542 1.356 . S
C538 O589 1.325 . S
C539 N540 1.279 . S
C539 C542 1.358 . S
C539 H596 0.930 . S
N540 C539 1.279 . S
N540 C543 1.314 . S
C541 C538 1.348 . S
C541 C543 1.353 . S
C541 H597 0.929 . S
C542 C538 1.356 . S
C542 C539 1.358 . S
C542 H598 0.930 . S
C543 N540 1.314 . S
C543 C541 1.353 . S
C543 H599 0.930 . S
C544 N545 1.314 . S
C544 C549 1.353 . S
C544 H550 0.930 . S
N545 Li528 1.990 . S
N545 C544 1.314 . S
N545 C547 1.279 . S
C546 C547 1.358 . S
C546 C548 1.356 . S
C546 H600 0.930 . S
C547 N545 1.279 . S
C547 C546 1.358 . S
C547 H551 0.930 . S
C548 C546 1.356 . S
C548 C549 1.348 . S
C549 C544 1.353 . S
C549 C548 1.348 . S
C549 H601 0.929 . S
H550 C544 0.930 . S
H551 C547 0.930 . S
C552 N553 1.314 . S
C552 C554 1.353 . S
C552 H558 0.930 . S
N553 Li529 1.990 . S
N553 C552 1.314 . S
N553 C556 1.279 . S
C554 C552 1.353 . S
C554 C557 1.348 . S
C554 H602 0.929 . S
C555 C556 1.358 . S
C555 C557 1.356 . S
C555 H603 0.930 . S
C556 N553 1.279 . S
C556 C555 1.358 . S
C556 H559 0.930 . S
C557 C554 1.348 . S
C557 C555 1.356 . S
H558 C552 0.930 . S
H559 C556 0.930 . S
C560 C562 1.348 . S
C560 C563 1.356 . S
C560 O590 1.325 . S
N561 C564 1.314 . S
N561 C565 1.279 . S
C562 C560 1.348 . S
C562 C564 1.353 . S
C562 H604 0.929 . S
C563 C560 1.356 . S
C563 C565 1.358 . S
C563 H605 0.930 . S
C564 N561 1.314 . S
C564 C562 1.353 . S
C564 H606 0.930 . S
C565 N561 1.279 . S
C565 C563 1.358 . S
C565 H607 0.930 . S
C566 C567 1.348 . S
C566 C568 1.356 . S
C566 O591 1.325 . S
C567 C566 1.348 . S
C567 C569 1.353 . S
C567 H608 0.929 . S
C568 C566 1.356 . S
C568 C570 1.358 . S
C568 H609 0.930 . S
C569 C567 1.353 . S
C569 N571 1.314 . S
C569 H610 0.930 . S
C570 C568 1.358 . S
C570 N571 1.279 . S
C570 H611 0.930 . S
N571 C569 1.314 . S
N571 C570 1.279 . S
C572 C574 1.353 . S
C572 N575 1.314 . S
C572 H578 0.930 . S
C573 N575 1.279 . S
C573 C576 1.358 . S
C573 H579 0.930 . S
C574 C572 1.353 . S
C574 C577 1.348 . S
C574 H612 0.929 . S
N575 Li530 1.990 . S
N575 C572 1.314 . S
N575 C573 1.279 . S
C576 C573 1.358 . S
C576 C577 1.356 . S
C576 H613 0.930 . S
C577 C574 1.348 . S
C577 C576 1.356 . S
H578 C572 0.930 . S
H579 C573 0.930 . S
C580 N581 1.314 . S
C580 C582 1.353 . S
C580 H586 0.930 . S
N581 Li531 1.990 . S
N581 C580 1.314 . S
N581 C584 1.279 . S
C582 C580 1.353 . S
C582 C585 1.348 . S
C582 H614 0.929 . S
C583 C584 1.358 . S
C583 C585 1.356 . S
C583 H615 0.930 . S
C584 N581 1.279 . S
C584 C583 1.358 . S
C584 H587 0.930 . S
C585 C582 1.348 . S
C585 C583 1.356 . S
H586 C580 0.930 . S
H587 C584 0.930 . S
O588 Li528 1.956 . S
O588 Li529 1.970 . S
O588 Li530 1.961 . S
O588 C532 1.325 . S
O589 Li528 1.970 . S
O589 Li529 1.956 . S
O589 Li531 1.961 . S
O589 C538 1.325 . S
O590 Li528 1.961 . S
O590 Li530 1.956 . S
O590 Li531 1.970 . S
O590 C560 1.325 . S
O591 Li529 1.961 . S
O591 Li530 1.970 . S
O591 Li531 1.956 . S
O591 C566 1.325 . S
H592 C534 0.929 . S
H593 C535 0.930 . S
H594 C536 0.930 . S
H595 C537 0.930 . S
H596 C539 0.930 . S
H597 C541 0.929 . S
H598 C542 0.930 . S
H599 C543 0.930 . S
H600 C546 0.930 . S
H601 C549 0.929 . S
H602 C554 0.929 . S
H603 C555 0.930 . S
H604 C562 0.929 . S
H605 C563 0.930 . S
H606 C564 0.930 . S
H607 C565 0.930 . S
H608 C567 0.929 . S
H609 C568 0.930 . S
H610 C569 0.930 . S
H611 C570 0.930 . S
H612 C574 0.929 . S
H613 C576 0.930 . S
H614 C582 0.929 . S
H615 C583 0.930 . S
Li616 N633 1.990 . S
Li616 O676 1.956 1_455 S
Li616 O677 1.970 . S
Li616 O678 1.961 . S
Li617 N641 1.990 . S
Li617 O676 1.970 . S
Li617 O677 1.956 1_655 S
Li617 O679 1.961 1_655 S
Li618 N663 1.990 . S
Li618 O676 1.961 1_455 S
Li618 O678 1.956 . S
Li618 O679 1.970 . S
Li619 N669 1.990 . S
Li619 O677 1.961 . S
Li619 O678 1.970 . S
Li619 O679 1.956 . S
C620 C622 1.348 . S
C620 C623 1.356 . S
C620 O676 1.325 . S
N621 C624 1.314 . S
N621 C625 1.279 . S
C622 C620 1.348 . S
C622 C624 1.353 . S
C622 H680 0.929 . S
C623 C620 1.356 . S
C623 C625 1.358 . S
C623 H681 0.930 . S
C624 N621 1.314 . S
C624 C622 1.353 . S
C624 H682 0.930 . S
C625 N621 1.279 . S
C625 C623 1.358 . S
C625 H683 0.930 . S
C626 C629 1.348 . S
C626 C630 1.356 . S
C626 O677 1.325 . S
C627 N628 1.279 . S
C627 C630 1.358 . S
C627 H684 0.930 . S
N628 C627 1.279 . S
N628 C631 1.314 . S
C629 C626 1.348 . S
C629 C631 1.353 . S
C629 H685 0.929 . S
C630 C626 1.356 . S
C630 C627 1.358 . S
C630 H686 0.930 . S
C631 N628 1.314 . S
C631 C629 1.353 . S
C631 H687 0.930 . S
C632 N633 1.314 . S
C632 C637 1.353 . S
C632 H638 0.930 . S
N633 Li616 1.990 . S
N633 C632 1.314 . S
N633 C635 1.279 . S
C634 C635 1.358 . S
C634 C636 1.356 . S
C634 H688 0.930 . S
C635 N633 1.279 . S
C635 C634 1.358 . S
C635 H639 0.930 1_455 S
C636 C634 1.356 . S
C636 C637 1.348 . S
C637 C632 1.353 . S
C637 C636 1.348 . S
C637 H689 0.929 . S
H638 C632 0.930 . S
H639 C635 0.930 1_655 S
C640 N641 1.314 . S
C640 C642 1.353 . S
C640 H646 0.930 . S
N641 Li617 1.990 . S
N641 C640 1.314 . S
N641 C644 1.279 . S
C642 C640 1.353 . S
C642 C645 1.348 . S
C642 H690 0.929 . S
C643 C644 1.358 . S
C643 C645 1.356 . S
C643 H691 0.930 . S
C644 N641 1.279 . S
C644 C643 1.358 . S
C644 H647 0.930 . S
C645 C642 1.348 . S
C645 C643 1.356 . S
H646 C640 0.930 . S
H647 C644 0.930 . S
C648 C650 1.348 . S
C648 C651 1.356 . S
C648 O678 1.325 . S
N649 C652 1.314 . S
N649 C653 1.279 . S
C650 C648 1.348 . S
C650 C652 1.353 . S
C650 H692 0.929 . S
C651 C648 1.356 . S
C651 C653 1.358 . S
C651 H693 0.930 . S
C652 N649 1.314 . S
C652 C650 1.353 . S
C652 H694 0.930 . S
C653 N649 1.279 . S
C653 C651 1.358 . S
C653 H695 0.930 . S
C654 C655 1.348 . S
C654 C656 1.356 . S
C654 O679 1.325 . S
C655 C654 1.348 . S
C655 C657 1.353 . S
C655 H696 0.929 . S
C656 C654 1.356 . S
C656 C658 1.358 . S
C656 H697 0.930 . S
C657 C655 1.353 . S
C657 N659 1.314 . S
C657 H698 0.930 . S
C658 C656 1.358 . S
C658 N659 1.279 . S
C658 H699 0.918 1_455 S
N659 C657 1.314 . S
N659 C658 1.279 . S
C660 C662 1.355 1_455 S
C660 N663 1.342 . S
C660 H666 0.899 1_455 S
C661 N663 1.279 . S
C661 C664 1.358 . S
C661 H667 0.930 . S
C662 C660 1.355 1_655 S
C662 C665 1.283 1_655 S
C662 H700 0.997 . S
N663 Li618 1.990 . S
N663 C660 1.342 . S
N663 C661 1.279 . S
C664 C661 1.358 . S
C664 C665 1.356 . S
C664 H701 0.930 . S
C665 C662 1.283 1_455 S
C665 C664 1.356 . S
H666 C660 0.899 1_655 S
H667 C661 0.930 . S
C668 N669 1.314 . S
C668 C670 1.353 . S
C668 H674 0.930 . S
N669 Li619 1.990 . S
N669 C668 1.314 . S
N669 C672 1.279 . S
C670 C668 1.353 . S
C670 C673 1.348 . S
C670 H702 0.929 . S
C671 C672 1.358 . S
C671 C673 1.356 . S
C671 H703 0.930 . S
C672 N669 1.279 . S
C672 C671 1.358 . S
C672 H675 0.930 . S
C673 C670 1.348 . S
C673 C671 1.356 . S
H674 C668 0.930 . S
H675 C672 0.930 . S
O676 Li616 1.956 1_655 S
O676 Li617 1.970 . S
O676 Li618 1.961 1_655 S
O676 C620 1.325 . S
O677 Li616 1.970 . S
O677 Li617 1.956 1_455 S
O677 Li619 1.961 . S
O677 C626 1.325 . S
O678 Li616 1.961 . S
O678 Li618 1.956 . S
O678 Li619 1.970 . S
O678 C648 1.325 . S
O679 Li617 1.961 1_455 S
O679 Li618 1.970 . S
O679 Li619 1.956 . S
O679 C654 1.325 . S
H680 C622 0.929 . S
H681 C623 0.930 . S
H682 C624 0.930 . S
H683 C625 0.930 . S
H684 C627 0.930 . S
H685 C629 0.929 . S
H686 C630 0.930 . S
H687 C631 0.930 . S
H688 C634 0.930 . S
H689 C637 0.929 . S
H690 C642 0.929 . S
H691 C643 0.930 . S
H692 C650 0.929 . S
H693 C651 0.930 . S
H694 C652 0.930 . S
H695 C653 0.930 . S
H696 C655 0.929 . S
H697 C656 0.930 . S
H698 C657 0.930 . S
H699 C658 0.918 1_655 S
H700 C662 0.997 . S
H701 C664 0.930 . S
H702 C670 0.929 . S
H703 C671 0.930 . S
Li704 N721 1.990 . S
Li704 O764 1.956 1_545 S
Li704 O765 1.970 . S
Li704 O766 1.961 . S
Li705 N729 1.990 . S
Li705 O764 1.970 . S
Li705 O765 1.956 1_565 S
Li705 O767 1.961 1_565 S
Li706 N751 1.990 . S
Li706 O764 1.961 1_545 S
Li706 O766 1.956 . S
Li706 O767 1.970 . S
Li707 N757 1.990 . S
Li707 O765 1.961 . S
Li707 O766 1.970 . S
Li707 O767 1.956 . S
C708 C710 1.348 . S
C708 C711 1.356 . S
C708 O764 1.325 . S
N709 C712 1.314 . S
N709 C713 1.279 . S
C710 C708 1.348 . S
C710 C712 1.353 . S
C710 H768 0.929 . S
C711 C708 1.356 . S
C711 C713 1.358 . S
C711 H769 0.931 1_565 S
C712 N709 1.314 . S
C712 C710 1.353 . S
C712 H770 0.930 . S
C713 N709 1.279 . S
C713 C711 1.358 . S
C713 H771 0.930 . S
C714 C717 1.348 . S
C714 C718 1.356 . S
C714 O765 1.325 . S
C715 N716 1.279 . S
C715 C718 1.358 . S
C715 H772 0.930 . S
N716 C715 1.279 . S
N716 C719 1.314 . S
C717 C714 1.348 . S
C717 C719 1.353 . S
C717 H773 0.929 . S
C718 C714 1.356 . S
C718 C715 1.358 . S
C718 H774 0.930 . S
C719 N716 1.314 . S
C719 C717 1.353 . S
C719 H775 0.930 . S
C720 N721 1.314 . S
C720 C725 1.353 . S
C720 H726 0.930 . S
N721 Li704 1.990 . S
N721 C720 1.314 . S
N721 C723 1.279 . S
C722 C723 1.358 . S
C722 C724 1.356 . S
C722 H776 0.930 . S
C723 N721 1.279 . S
C723 C722 1.358 . S
C723 H727 0.930 1_545 S
C724 C722 1.356 . S
C724 C725 1.348 . S
C725 C720 1.353 . S
C725 C724 1.348 . S
C725 H777 0.929 . S
H726 C720 0.930 . S
H727 C723 0.930 1_565 S
C728 N729 1.314 . S
C728 C730 1.353 . S
C728 H734 0.930 . S
N729 Li705 1.990 . S
N729 C728 1.314 . S
N729 C732 1.279 . S
C730 C728 1.353 . S
C730 C733 1.348 . S
C730 H778 0.929 . S
C731 C732 1.358 . S
C731 C733 1.356 . S
C731 H779 0.930 . S
C732 N729 1.279 . S
C732 C731 1.358 . S
C732 H735 0.930 . S
C733 C730 1.348 . S
C733 C731 1.356 . S
H734 C728 0.930 . S
H735 C732 0.930 . S
C736 C738 1.348 . S
C736 C739 1.356 . S
C736 O766 1.325 . S
N737 C740 1.314 . S
N737 C741 1.279 . S
C738 C736 1.348 . S
C738 C740 1.353 . S
C738 H780 0.929 . S
C739 C736 1.356 . S
C739 C741 1.358 . S
C739 H781 0.930 . S
C740 N737 1.314 . S
C740 C738 1.353 . S
C740 H782 0.930 . S
C741 N737 1.279 . S
C741 C739 1.358 . S
C741 H783 0.930 . S
C742 C743 1.348 . S
C742 C744 1.356 . S
C742 O767 1.325 . S
C743 C742 1.348 . S
C743 C745 1.353 . S
C743 H784 0.929 . S
C744 C742 1.356 . S
C744 C746 1.358 . S
C744 H785 0.930 . S
C745 C743 1.353 . S
C745 N747 1.314 . S
C745 H786 0.930 . S
C746 C744 1.358 . S
C746 N747 1.279 . S
C746 H787 0.929 . S
N747 C745 1.314 . S
N747 C746 1.279 . S
C748 C750 1.353 . S
C748 N751 1.314 . S
C748 H754 0.930 1_545 S
C749 N751 1.279 . S
C749 C752 1.358 . S
C749 H755 0.930 . S
C750 C748 1.353 . S
C750 C753 1.348 . S
C750 H788 0.929 1_545 S
N751 Li706 1.990 . S
N751 C748 1.314 . S
N751 C749 1.279 . S
C752 C749 1.358 . S
C752 C753 1.356 . S
C752 H789 0.930 . S
C753 C750 1.348 . S
C753 C752 1.356 . S
H754 C748 0.930 1_565 S
H755 C749 0.930 . S
C756 N757 1.314 . S
C756 C758 1.353 . S
C756 H762 0.930 . S
N757 Li707 1.990 . S
N757 C756 1.314 . S
N757 C760 1.279 . S
C758 C756 1.353 . S
C758 C761 1.348 . S
C758 H790 0.929 . S
C759 C760 1.358 . S
C759 C761 1.356 . S
C759 H791 0.930 . S
C760 N757 1.279 . S
C760 C759 1.358 . S
C760 H763 0.930 . S
C761 C758 1.348 . S
C761 C759 1.356 . S
H762 C756 0.930 . S
H763 C760 0.930 . S
O764 Li704 1.956 1_565 S
O764 Li705 1.970 . S
O764 Li706 1.961 1_565 S
O764 C708 1.325 . S
O765 Li704 1.970 . S
O765 Li705 1.956 1_545 S
O765 Li707 1.961 . S
O765 C714 1.325 . S
O766 Li704 1.961 . S
O766 Li706 1.956 . S
O766 Li707 1.970 . S
O766 C736 1.325 . S
O767 Li705 1.961 1_545 S
O767 Li706 1.970 . S
O767 Li707 1.956 . S
O767 C742 1.325 . S
H768 C710 0.929 . S
H769 C711 0.931 1_545 S
H770 C712 0.930 . S
H771 C713 0.930 . S
H772 C715 0.930 . S
H773 C717 0.929 . S
H774 C718 0.930 . S
H775 C719 0.930 . S
H776 C722 0.930 . S
H777 C725 0.929 . S
H778 C730 0.929 . S
H779 C731 0.930 . S
H780 C738 0.929 . S
H781 C739 0.930 . S
H782 C740 0.930 . S
H783 C741 0.930 . S
H784 C743 0.929 . S
H785 C744 0.930 . S
H786 C745 0.930 . S
H787 C746 0.929 . S
H788 C750 0.929 1_565 S
H789 C752 0.930 . S
H790 C758 0.929 . S
H791 C759 0.930 . S
Li792 N809 1.990 . S
Li792 O852 1.956 . S
Li792 O853 1.970 . S
Li792 O854 1.961 . S
Li793 N817 1.990 . S
Li793 O852 1.970 . S
Li793 O853 1.956 . S
Li793 O855 1.961 . S
Li794 N839 1.990 . S
Li794 O852 1.961 . S
Li794 O854 1.956 . S
Li794 O855 1.970 . S
Li795 N845 1.990 . S
Li795 O853 1.961 . S
Li795 O854 1.970 . S
Li795 O855 1.956 . S
C796 C798 1.348 . S
C796 C799 1.356 . S
C796 O852 1.325 . S
N797 C800 1.314 . S
N797 C801 1.279 . S
C798 C796 1.348 . S
C798 C800 1.353 . S
C798 H856 0.929 . S
C799 C796 1.356 . S
C799 C801 1.358 . S
C799 H857 0.930 . S
C800 N797 1.314 . S
C800 C798 1.353 . S
C800 H858 0.930 . S
C801 N797 1.279 . S
C801 C799 1.358 . S
C801 H859 0.930 . S
C802 C805 1.348 . S
C802 C806 1.356 . S
C802 O853 1.325 . S
C803 N804 1.279 . S
C803 C806 1.358 . S
C803 H860 0.930 . S
N804 C803 1.279 . S
N804 C807 1.314 . S
C805 C802 1.348 . S
C805 C807 1.353 . S
C805 H861 0.929 . S
C806 C802 1.356 . S
C806 C803 1.358 . S
C806 H862 0.930 . S
C807 N804 1.314 . S
C807 C805 1.353 . S
C807 H863 0.930 . S
C808 N809 1.314 . S
C808 C813 1.353 . S
C808 H814 0.930 . S
N809 Li792 1.990 . S
N809 C808 1.314 . S
N809 C811 1.279 . S
C810 C811 1.358 . S
C810 C812 1.356 . S
C810 H864 0.930 . S
C811 N809 1.279 . S
C811 C810 1.358 . S
C811 H815 0.930 . S
C812 C810 1.356 . S
C812 C813 1.348 . S
C813 C808 1.353 . S
C813 C812 1.348 . S
C813 H865 0.929 . S
H814 C808 0.930 . S
H815 C811 0.930 . S
C816 N817 1.314 . S
C816 C818 1.353 . S
C816 H822 0.930 . S
N817 Li793 1.990 . S
N817 C816 1.314 . S
N817 C820 1.279 . S
C818 C816 1.353 . S
C818 C821 1.348 . S
C818 H866 0.929 . S
C819 C820 1.358 . S
C819 C821 1.356 . S
C819 H867 0.930 . S
C820 N817 1.279 . S
C820 C819 1.358 . S
C820 H823 0.930 . S
C821 C818 1.348 . S
C821 C819 1.356 . S
H822 C816 0.930 . S
H823 C820 0.930 . S
C824 C826 1.348 . S
C824 C827 1.356 . S
C824 O854 1.325 . S
N825 C828 1.314 . S
N825 C829 1.279 . S
C826 C824 1.348 . S
C826 C828 1.353 . S
C826 H868 0.929 . S
C827 C824 1.356 . S
C827 C829 1.358 . S
C827 H869 0.930 . S
C828 N825 1.314 . S
C828 C826 1.353 . S
C828 H870 0.930 . S
C829 N825 1.279 . S
C829 C827 1.358 . S
C829 H871 0.930 . S
C830 C831 1.348 . S
C830 C832 1.356 . S
C830 O855 1.325 . S
C831 C830 1.348 . S
C831 C833 1.353 . S
C831 H872 0.929 . S
C832 C830 1.356 . S
C832 C834 1.358 . S
C832 H873 0.930 . S
C833 C831 1.353 . S
C833 N835 1.314 . S
C833 H874 0.930 . S
C834 C832 1.358 . S
C834 N835 1.279 . S
C834 H875 0.930 . S
N835 C833 1.314 . S
N835 C834 1.279 . S
C836 C838 1.353 . S
C836 N839 1.314 . S
C836 H842 0.930 . S
C837 N839 1.279 . S
C837 C840 1.358 . S
C837 H843 0.930 . S
C838 C836 1.353 . S
C838 C841 1.348 . S
C838 H876 0.929 . S
N839 Li794 1.990 . S
N839 C836 1.314 . S
N839 C837 1.279 . S
C840 C837 1.358 . S
C840 C841 1.356 . S
C840 H877 0.930 . S
C841 C838 1.348 . S
C841 C840 1.356 . S
H842 C836 0.930 . S
H843 C837 0.930 . S
C844 N845 1.314 . S
C844 C846 1.353 . S
C844 H850 0.930 . S
N845 Li795 1.990 . S
N845 C844 1.314 . S
N845 C848 1.279 . S
C846 C844 1.353 . S
C846 C849 1.348 . S
C846 H878 0.929 . S
C847 C848 1.358 . S
C847 C849 1.356 . S
C847 H879 0.930 . S
C848 N845 1.279 . S
C848 C847 1.358 . S
C848 H851 0.930 . S
C849 C846 1.348 . S
C849 C847 1.356 . S
H850 C844 0.930 . S
H851 C848 0.930 . S
O852 Li792 1.956 . S
O852 Li793 1.970 . S
O852 Li794 1.961 . S
O852 C796 1.325 . S
O853 Li792 1.970 . S
O853 Li793 1.956 . S
O853 Li795 1.961 . S
O853 C802 1.325 . S
O854 Li792 1.961 . S
O854 Li794 1.956 . S
O854 Li795 1.970 . S
O854 C824 1.325 . S
O855 Li793 1.961 . S
O855 Li794 1.970 . S
O855 Li795 1.956 . S
O855 C830 1.325 . S
H856 C798 0.929 . S
H857 C799 0.930 . S
H858 C800 0.930 . S
H859 C801 0.930 . S
H860 C803 0.930 . S
H861 C805 0.929 . S
H862 C806 0.930 . S
H863 C807 0.930 . S
H864 C810 0.930 . S
H865 C813 0.929 . S
H866 C818 0.929 . S
H867 C819 0.930 . S
H868 C826 0.929 . S
H869 C827 0.930 . S
H870 C828 0.930 . S
H871 C829 0.930 . S
H872 C831 0.929 . S
H873 C832 0.930 . S
H874 C833 0.930 . S
H875 C834 0.930 . S
H876 C838 0.929 . S
H877 C840 0.930 . S
H878 C846 0.929 . S
H879 C847 0.930 . S
Li880 N897 1.990 . S
Li880 O940 1.956 . S
Li880 O941 1.970 . S
Li880 O942 1.961 . S
Li881 N905 1.990 . S
Li881 O940 1.970 . S
Li881 O941 1.956 . S
Li881 O943 1.961 1_545 S
Li882 N927 1.933 1_545 S
Li882 O940 2.003 . S
Li882 O942 2.007 . S
Li882 O943 1.971 1_545 S
Li883 N933 1.990 . S
Li883 O941 1.961 . S
Li883 O942 1.970 . S
Li883 O943 1.956 1_545 S
C884 C886 1.348 . S
C884 C887 1.356 . S
C884 O940 1.325 . S
N885 C888 1.314 . S
N885 C889 1.279 . S
C886 C884 1.348 . S
C886 C888 1.353 . S
C886 H944 0.929 . S
C887 C884 1.356 . S
C887 C889 1.358 . S
C887 H945 0.930 . S
C888 N885 1.314 . S
C888 C886 1.353 . S
C888 H946 0.930 . S
C889 N885 1.279 . S
C889 C887 1.358 . S
C889 H947 0.930 . S
C890 C893 1.348 . S
C890 C894 1.356 . S
C890 O941 1.325 . S
C891 N892 1.279 . S
C891 C894 1.358 . S
C891 H948 0.930 . S
N892 C891 1.279 . S
N892 C895 1.314 . S
C893 C890 1.348 . S
C893 C895 1.353 . S
C893 H949 0.929 . S
C894 C890 1.356 . S
C894 C891 1.358 . S
C894 H950 0.930 . S
C895 N892 1.314 . S
C895 C893 1.353 . S
C895 H951 0.930 . S
C896 N897 1.314 . S
C896 C901 1.353 . S
C896 H902 0.930 . S
N897 Li880 1.990 . S
N897 C896 1.314 . S
N897 C899 1.279 . S
C898 C899 1.358 . S
C898 C900 1.356 . S
C898 H952 0.930 . S
C899 N897 1.279 . S
C899 C898 1.358 . S
C899 H903 0.930 . S
C900 C898 1.356 . S
C900 C901 1.348 . S
C901 C896 1.353 . S
C901 C900 1.348 . S
C901 H953 0.929 . S
H902 C896 0.930 . S
H903 C899 0.930 . S
C904 N905 1.314 . S
C904 C906 1.353 . S
C904 H910 0.930 1_545 S
N905 Li881 1.990 . S
N905 C904 1.314 . S
N905 C908 1.279 . S
C906 C904 1.353 . S
C906 C909 1.348 . S
C906 H954 0.929 1_545 S
C907 C908 1.358 . S
C907 C909 1.356 . S
C907 H955 0.930 . S
C908 N905 1.279 . S
C908 C907 1.358 . S
C908 H911 0.930 . S
C909 C906 1.348 . S
C909 C907 1.356 . S
H910 C904 0.930 1_565 S
H911 C908 0.930 . S
C912 C914 1.348 . S
C912 C915 1.356 . S
C912 O942 1.325 . S
N913 C916 1.314 . S
N913 C917 1.279 . S
C914 C912 1.348 . S
C914 C916 1.353 . S
C914 H956 0.929 . S
C915 C912 1.356 . S
C915 C917 1.358 . S
C915 H957 0.930 . S
C916 N913 1.314 . S
C916 C914 1.353 . S
C916 H958 0.930 . S
C917 N913 1.279 . S
C917 C915 1.358 . S
C917 H959 0.930 . S
C918 C919 1.348 . S
C918 C920 1.356 . S
C918 O943 1.325 . S
C919 C918 1.348 . S
C919 C921 1.353 . S
C919 H960 0.929 . S
C920 C918 1.356 . S
C920 C922 1.358 . S
C920 H961 0.930 . S
C921 C919 1.353 . S
C921 N923 1.314 . S
C921 H962 0.930 . S
C922 C920 1.358 . S
C922 N923 1.279 . S
C922 H963 0.930 . S
N923 C921 1.314 . S
N923 C922 1.279 . S
C924 C926 1.353 . S
C924 N927 1.314 . S
C924 H930 0.930 . S
C925 N927 1.279 . S
C925 C928 1.358 . S
C925 H931 0.930 . S
C926 C924 1.353 . S
C926 C929 1.348 . S
C926 H964 0.929 . S
N927 Li882 1.933 1_565 S
N927 C924 1.314 . S
N927 C925 1.279 . S
C928 C925 1.358 . S
C928 C929 1.356 . S
C928 H965 0.930 . S
C929 C926 1.348 . S
C929 C928 1.356 . S
H930 C924 0.930 . S
H931 C925 0.930 . S
C932 N933 1.314 . S
C932 C934 1.353 . S
C932 H938 0.930 . S
N933 Li883 1.990 . S
N933 C932 1.314 . S
N933 C936 1.279 1_545 S
C934 C932 1.353 . S
C934 C937 1.348 . S
C934 H966 0.929 . S
C935 C936 1.358 . S
C935 C937 1.356 1_565 S
C935 H967 0.930 . S
C936 N933 1.279 1_565 S
C936 C935 1.358 . S
C936 H939 0.930 . S
C937 C934 1.348 . S
C937 C935 1.356 1_545 S
H938 C932 0.930 . S
H939 C936 0.930 . S
O940 Li880 1.956 . S
O940 Li881 1.970 . S
O940 Li882 2.003 . S
O940 C884 1.325 . S
O941 Li880 1.970 . S
O941 Li881 1.956 . S
O941 Li883 1.961 . S
O941 C890 1.325 . S
O942 Li880 1.961 . S
O942 Li882 2.007 . S
O942 Li883 1.970 . S
O942 C912 1.325 . S
O943 Li881 1.961 1_565 S
O943 Li882 1.971 1_565 S
O943 Li883 1.956 1_565 S
O943 C918 1.325 . S
H944 C886 0.929 . S
H945 C887 0.930 . S
H946 C888 0.930 . S
H947 C889 0.930 . S
H948 C891 0.930 . S
H949 C893 0.929 . S
H950 C894 0.930 . S
H951 C895 0.930 . S
H952 C898 0.930 . S
H953 C901 0.929 . S
H954 C906 0.929 1_565 S
H955 C907 0.930 . S
H956 C914 0.929 . S
H957 C915 0.930 . S
H958 C916 0.930 . S
H959 C917 0.930 . S
H960 C919 0.929 . S
H961 C920 0.930 . S
H962 C921 0.930 . S
H963 C922 0.930 . S
H964 C926 0.929 . S
H965 C928 0.930 . S
H966 C934 0.929 . S
H967 C935 0.930 . S
Li968 N985 1.990 . S
Li968 O1028 1.974 . S
Li968 O1029 1.971 1_554 S
Li968 O1030 1.939 1_554 S
Li969 N993 1.990 . S
Li969 O1028 1.970 . S
Li969 O1029 1.956 1_554 S
Li969 O1031 2.004 . S
Li970 N1015 1.990 . S
Li970 O1028 1.961 . S
Li970 O1030 1.956 1_554 S
Li970 O1031 1.966 . S
Li971 N1021 1.990 . S
Li971 O1029 1.961 . S
Li971 O1030 1.970 . S
Li971 O1031 1.918 1_556 S
C972 C974 1.348 . S
C972 C975 1.356 . S
C972 O1028 1.325 . S
N973 C976 1.314 . S
N973 C977 1.279 . S
C974 C972 1.348 . S
C974 C976 1.353 . S
C974 H1032 0.929 . S
C975 C972 1.356 . S
C975 C977 1.358 . S
C975 H1033 0.930 . S
C976 N973 1.314 . S
C976 C974 1.353 . S
C976 H1034 0.930 . S
C977 N973 1.279 . S
C977 C975 1.358 . S
C977 H1035 0.930 . S
C978 C981 1.349 . S
C978 C982 1.356 . S
C978 O1029 1.325 . S
C979 N980 1.279 . S
C979 C982 1.358 . S
C979 H1036 0.930 . S
N980 C979 1.279 . S
N980 C983 1.314 . S
C981 C978 1.349 . S
C981 C983 1.353 . S
C981 H1037 0.929 1_556 S
C982 C978 1.356 . S
C982 C979 1.358 . S
C982 H1038 0.930 . S
C983 N980 1.314 . S
C983 C981 1.353 . S
C983 H1039 0.924 1_556 S
C984 N985 1.283 1_556 S
C984 C989 1.353 . S
C984 H990 0.930 . S
N985 Li968 1.990 . S
N985 C984 1.283 1_554 S
N985 C987 1.312 . S
C986 C987 1.358 . S
C986 C988 1.322 1_554 S
C986 H1040 0.930 . S
C987 N985 1.312 . S
C987 C986 1.358 . S
C987 H991 0.930 . S
C988 C986 1.322 1_556 S
C988 C989 1.384 . S
C989 C984 1.353 . S
C989 C988 1.384 . S
C989 H1041 0.929 . S
H990 C984 0.930 . S
H991 C987 0.930 . S
C992 N993 1.314 . S
C992 C994 1.353 . S
C992 H998 0.930 . S
N993 Li969 1.990 . S
N993 C992 1.314 . S
N993 C996 1.279 . S
C994 C992 1.353 . S
C994 C997 1.348 . S
C994 H1042 0.929 . S
C995 C996 1.358 . S
C995 C997 1.356 . S
C995 H1043 0.930 . S
C996 N993 1.279 . S
C996 C995 1.358 . S
C996 H999 0.930 . S
C997 C994 1.348 . S
C997 C995 1.356 . S
H998 C992 0.930 . S
H999 C996 0.930 . S
C1000 C1002 1.348 . S
C1000 C1003 1.356 . S
C1000 O1030 1.325 . S
N1001 C1004 1.314 . S
N1001 C1005 1.279 . S
C1002 C1000 1.348 . S
C1002 C1004 1.353 . S
C1002 H1044 0.929 . S
C1003 C1000 1.356 . S
C1003 C1005 1.358 . S
C1003 H1045 0.930 . S
C1004 N1001 1.314 . S
C1004 C1002 1.353 . S
C1004 H1046 0.930 . S
C1005 N1001 1.279 . S
C1005 C1003 1.358 . S
C1005 H1047 0.930 . S
C1006 C1007 1.335 1_554 S
C1006 C1008 1.364 . S
C1006 O1031 1.324 . S
C1007 C1006 1.335 1_556 S
C1007 C1009 1.353 . S
C1007 H1048 0.929 . S
C1008 C1006 1.364 . S
C1008 C1010 1.358 . S
C1008 H1049 0.930 . S
C1009 C1007 1.353 . S
C1009 N1011 1.325 . S
C1009 H1050 0.930 . S
C1010 C1008 1.358 . S
C1010 N1011 1.267 1_554 S
C1010 H1051 0.930 . S
N1011 C1009 1.325 . S
N1011 C1010 1.267 1_556 S
C1012 C1014 1.353 . S
C1012 N1015 1.314 . S
C1012 H1018 0.930 . S
C1013 N1015 1.279 1_556 S
C1013 C1016 1.358 . S
C1013 H1019 0.930 . S
C1014 C1012 1.353 . S
C1014 C1017 1.348 . S
C1014 H1052 0.929 . S
N1015 Li970 1.990 . S
N1015 C1012 1.314 . S
N1015 C1013 1.279 1_554 S
C1016 C1013 1.358 . S
C1016 C1017 1.356 1_556 S
C1016 H1053 0.930 . S
C1017 C1014 1.348 . S
C1017 C1016 1.356 1_554 S
H1018 C1012 0.930 . S
H1019 C1013 0.930 . S
C1020 N1021 1.314 . S
C1020 C1022 1.353 . S
C1020 H1026 0.930 . S
N1021 Li971 1.990 . S
N1021 C1020 1.314 . S
N1021 C1024 1.279 . S
C1022 C1020 1.353 . S
C1022 C1025 1.348 . S
C1022 H1054 0.929 . S
C1023 C1024 1.358 . S
C1023 C1025 1.356 . S
C1023 H1055 0.930 . S
C1024 N1021 1.279 . S
C1024 C1023 1.358 . S
C1024 H1027 0.930 . S
C1025 C1022 1.348 . S
C1025 C1023 1.356 . S
H1026 C1020 0.930 . S
H1027 C1024 0.930 . S
O1028 Li968 1.974 . S
O1028 Li969 1.970 . S
O1028 Li970 1.961 . S
O1028 C972 1.325 . S
O1029 Li968 1.971 1_556 S
O1029 Li969 1.956 1_556 S
O1029 Li971 1.961 . S
O1029 C978 1.325 . S
O1030 Li968 1.939 1_556 S
O1030 Li970 1.956 1_556 S
O1030 Li971 1.970 . S
O1030 C1000 1.325 . S
O1031 Li969 2.004 . S
O1031 Li970 1.966 . S
O1031 Li971 1.918 1_554 S
O1031 C1006 1.324 . S
H1032 C974 0.929 . S
H1033 C975 0.930 . S
H1034 C976 0.930 . S
H1035 C977 0.930 . S
H1036 C979 0.930 . S
H1037 C981 0.929 1_554 S
H1038 C982 0.930 . S
H1039 C983 0.924 1_554 S
H1040 C986 0.930 . S
H1041 C989 0.929 . S
H1042 C994 0.929 . S
H1043 C995 0.930 . S
H1044 C1002 0.929 . S
H1045 C1003 0.930 . S
H1046 C1004 0.930 . S
H1047 C1005 0.930 . S
H1048 C1007 0.929 . S
H1049 C1008 0.930 . S
H1050 C1009 0.930 . S
H1051 C1010 0.930 . S
H1052 C1014 0.929 . S
H1053 C1016 0.930 . S
H1054 C1022 0.929 . S
H1055 C1023 0.930 . S
Li1056 N1073 1.990 . S
Li1056 O1116 1.956 . S
Li1056 O1117 1.970 . S
Li1056 O1118 1.961 1_554 S
Li1057 N1081 1.990 . S
Li1057 O1116 1.970 . S
Li1057 O1117 1.956 . S
Li1057 O1119 1.961 . S
Li1058 N1103 1.990 . S
Li1058 O1116 1.961 . S
Li1058 O1118 1.956 1_554 S
Li1058 O1119 1.970 . S
Li1059 N1109 1.990 . S
Li1059 O1117 1.961 1_556 S
Li1059 O1118 1.970 . S
Li1059 O1119 1.956 1_556 S
C1060 C1062 1.348 . S
C1060 C1063 1.356 . S
C1060 O1116 1.325 . S
N1061 C1064 1.314 . S
N1061 C1065 1.279 . S
C1062 C1060 1.348 . S
C1062 C1064 1.353 . S
C1062 H1120 0.929 . S
C1063 C1060 1.356 . S
C1063 C1065 1.358 . S
C1063 H1121 0.930 . S
C1064 N1061 1.314 . S
C1064 C1062 1.353 . S
C1064 H1122 0.930 . S
C1065 N1061 1.279 . S
C1065 C1063 1.358 . S
C1065 H1123 0.930 . S
C1066 C1069 1.348 . S
C1066 C1070 1.356 . S
C1066 O1117 1.325 . S
C1067 N1068 1.279 . S
C1067 C1070 1.358 . S
C1067 H1124 0.930 . S
N1068 C1067 1.279 . S
N1068 C1071 1.314 . S
C1069 C1066 1.348 . S
C1069 C1071 1.353 . S
C1069 H1125 0.929 . S
C1070 C1066 1.356 . S
C1070 C1067 1.358 . S
C1070 H1126 0.930 . S
C1071 N1068 1.314 . S
C1071 C1069 1.353 . S
C1071 H1127 0.930 . S
C1072 N1073 1.314 . S
C1072 C1077 1.354 . S
C1072 H1078 0.930 1_554 S
N1073 Li1056 1.990 . S
N1073 C1072 1.314 . S
N1073 C1075 1.279 . S
C1074 C1075 1.358 . S
C1074 C1076 1.356 . S
C1074 H1128 0.930 . S
C1075 N1073 1.279 . S
C1075 C1074 1.358 . S
C1075 H1079 0.930 . S
C1076 C1074 1.356 . S
C1076 C1077 1.369 . S
C1077 C1072 1.354 . S
C1077 C1076 1.369 . S
C1077 H1129 0.907 1_554 S
H1078 C1072 0.930 1_556 S
H1079 C1075 0.930 . S
C1080 N1081 1.314 . S
C1080 C1082 1.353 . S
C1080 H1086 0.930 . S
N1081 Li1057 1.990 . S
N1081 C1080 1.314 . S
N1081 C1084 1.279 . S
C1082 C1080 1.353 . S
C1082 C1085 1.348 . S
C1082 H1130 0.929 . S
C1083 C1084 1.358 . S
C1083 C1085 1.356 . S
C1083 H1131 0.930 . S
C1084 N1081 1.279 . S
C1084 C1083 1.358 . S
C1084 H1087 0.930 . S
C1085 C1082 1.348 . S
C1085 C1083 1.356 . S
H1086 C1080 0.930 . S
H1087 C1084 0.930 . S
C1088 C1090 1.348 . S
C1088 C1091 1.356 . S
C1088 O1118 1.325 . S
N1089 C1092 1.314 . S
N1089 C1093 1.279 . S
C1090 C1088 1.348 . S
C1090 C1092 1.353 . S
C1090 H1132 0.929 . S
C1091 C1088 1.356 . S
C1091 C1093 1.358 . S
C1091 H1133 0.930 . S
C1092 N1089 1.314 . S
C1092 C1090 1.353 . S
C1092 H1134 0.930 . S
C1093 N1089 1.279 . S
C1093 C1091 1.358 . S
C1093 H1135 0.930 . S
C1094 C1095 1.348 . S
C1094 C1096 1.356 . S
C1094 O1119 1.325 . S
C1095 C1094 1.348 . S
C1095 C1097 1.353 . S
C1095 H1136 0.929 . S
C1096 C1094 1.356 . S
C1096 C1098 1.358 . S
C1096 H1137 0.930 . S
C1097 C1095 1.353 . S
C1097 N1099 1.314 . S
C1097 H1138 0.930 . S
C1098 C1096 1.358 . S
C1098 N1099 1.279 . S
C1098 H1139 0.930 . S
N1099 C1097 1.314 . S
N1099 C1098 1.279 . S
C1100 C1102 1.353 . S
C1100 N1103 1.314 . S
C1100 H1106 0.930 . S
C1101 N1103 1.279 . S
C1101 C1104 1.358 . S
C1101 H1107 0.930 1_554 S
C1102 C1100 1.353 . S
C1102 C1105 1.348 . S
C1102 H1140 0.929 . S
N1103 Li1058 1.990 . S
N1103 C1100 1.314 . S
N1103 C1101 1.279 . S
C1104 C1101 1.358 . S
C1104 C1105 1.356 . S
C1104 H1141 0.968 . S
C1105 C1102 1.348 . S
C1105 C1104 1.356 . S
H1106 C1100 0.930 . S
H1107 C1101 0.930 1_556 S
C1108 N1109 1.314 . S
C1108 C1110 1.353 . S
C1108 H1114 0.930 . S
N1109 Li1059 1.990 . S
N1109 C1108 1.314 . S
N1109 C1112 1.279 . S
C1110 C1108 1.353 . S
C1110 C1113 1.348 . S
C1110 H1142 0.929 . S
C1111 C1112 1.358 . S
C1111 C1113 1.356 . S
C1111 H1143 0.930 . S
C1112 N1109 1.279 . S
C1112 C1111 1.358 . S
C1112 H1115 0.930 . S
C1113 C1110 1.348 . S
C1113 C1111 1.356 . S
H1114 C1108 0.930 . S
H1115 C1112 0.930 . S
O1116 Li1056 1.956 . S
O1116 Li1057 1.970 . S
O1116 Li1058 1.961 . S
O1116 C1060 1.325 . S
O1117 Li1056 1.970 . S
O1117 Li1057 1.956 . S
O1117 Li1059 1.961 1_554 S
O1117 C1066 1.325 . S
O1118 Li1056 1.961 1_556 S
O1118 Li1058 1.956 1_556 S
O1118 Li1059 1.970 . S
O1118 C1088 1.325 . S
O1119 Li1057 1.961 . S
O1119 Li1058 1.970 . S
O1119 Li1059 1.956 1_554 S
O1119 C1094 1.325 . S
H1120 C1062 0.929 . S
H1121 C1063 0.930 . S
H1122 C1064 0.930 . S
H1123 C1065 0.930 . S
H1124 C1067 0.930 . S
H1125 C1069 0.929 . S
H1126 C1070 0.930 . S
H1127 C1071 0.930 . S
H1128 C1074 0.930 . S
H1129 C1077 0.907 1_556 S
H1130 C1082 0.929 . S
H1131 C1083 0.930 . S
H1132 C1090 0.929 . S
H1133 C1091 0.930 . S
H1134 C1092 0.930 . S
H1135 C1093 0.930 . S
H1136 C1095 0.929 . S
H1137 C1096 0.930 . S
H1138 C1097 0.930 . S
H1139 C1098 0.930 . S
H1140 C1102 0.929 . S
H1141 C1104 0.968 . S
H1142 C1110 0.929 . S
H1143 C1111 0.930 . S
Li1144 N1161 1.990 . S
Li1144 O1204 1.956 . S
Li1144 O1205 1.970 . S
Li1144 O1206 1.961 . S
Li1145 N1169 1.990 . S
Li1145 O1204 1.970 . S
Li1145 O1205 1.956 . S
Li1145 O1207 1.961 . S
Li1146 N1191 1.990 1_554 S
Li1146 O1204 1.961 . S
Li1146 O1206 1.956 . S
Li1146 O1207 1.970 . S
Li1147 N1197 1.990 . S
Li1147 O1205 1.961 . S
Li1147 O1206 1.970 . S
Li1147 O1207 1.956 . S
C1148 C1150 1.348 . S
C1148 C1151 1.356 . S
C1148 O1204 1.325 . S
N1149 C1152 1.314 . S
N1149 C1153 1.279 . S
C1150 C1148 1.348 . S
C1150 C1152 1.353 . S
C1150 H1208 0.929 . S
C1151 C1148 1.356 . S
C1151 C1153 1.358 . S
C1151 H1209 0.930 . S
C1152 N1149 1.314 . S
C1152 C1150 1.353 . S
C1152 H1210 0.930 . S
C1153 N1149 1.279 . S
C1153 C1151 1.358 . S
C1153 H1211 0.930 . S
C1154 C1157 1.348 . S
C1154 C1158 1.356 . S
C1154 O1205 1.325 . S
C1155 N1156 1.279 . S
C1155 C1158 1.358 . S
C1155 H1212 0.930 . S
N1156 C1155 1.279 . S
N1156 C1159 1.314 . S
C1157 C1154 1.348 . S
C1157 C1159 1.353 . S
C1157 H1213 0.929 . S
C1158 C1154 1.356 . S
C1158 C1155 1.358 . S
C1158 H1214 0.930 . S
C1159 N1156 1.314 . S
C1159 C1157 1.353 . S
C1159 H1215 0.930 . S
C1160 N1161 1.314 . S
C1160 C1165 1.353 . S
C1160 H1166 0.930 . S
N1161 Li1144 1.990 . S
N1161 C1160 1.314 . S
N1161 C1163 1.279 . S
C1162 C1163 1.358 . S
C1162 C1164 1.356 . S
C1162 H1216 0.930 . S
C1163 N1161 1.279 . S
C1163 C1162 1.358 . S
C1163 H1167 0.930 . S
C1164 C1162 1.356 . S
C1164 C1165 1.348 . S
C1165 C1160 1.353 . S
C1165 C1164 1.348 . S
C1165 H1217 0.929 . S
H1166 C1160 0.930 . S
H1167 C1163 0.930 . S
C1168 N1169 1.314 . S
C1168 C1170 1.353 . S
C1168 H1174 0.930 . S
N1169 Li1145 1.990 . S
N1169 C1168 1.314 . S
N1169 C1172 1.279 . S
C1170 C1168 1.353 . S
C1170 C1173 1.348 . S
C1170 H1218 0.929 . S
C1171 C1172 1.358 . S
C1171 C1173 1.356 . S
C1171 H1219 0.930 . S
C1172 N1169 1.279 . S
C1172 C1171 1.358 . S
C1172 H1175 0.930 . S
C1173 C1170 1.348 . S
C1173 C1171 1.356 . S
H1174 C1168 0.930 . S
H1175 C1172 0.930 . S
C1176 C1178 1.348 . S
C1176 C1179 1.356 . S
C1176 O1206 1.325 . S
N1177 C1180 1.314 . S
N1177 C1181 1.279 . S
C1178 C1176 1.348 . S
C1178 C1180 1.353 . S
C1178 H1220 0.929 . S
C1179 C1176 1.356 . S
C1179 C1181 1.358 . S
C1179 H1221 0.930 . S
C1180 N1177 1.314 . S
C1180 C1178 1.353 . S
C1180 H1222 0.930 . S
C1181 N1177 1.279 . S
C1181 C1179 1.358 . S
C1181 H1223 0.930 . S
C1182 C1183 1.348 . S
C1182 C1184 1.356 . S
C1182 O1207 1.325 1_556 S
C1183 C1182 1.348 . S
C1183 C1185 1.353 . S
C1183 H1224 0.929 . S
C1184 C1182 1.356 . S
C1184 C1186 1.358 . S
C1184 H1225 0.930 1_556 S
C1185 C1183 1.353 . S
C1185 N1187 1.314 . S
C1185 H1226 0.930 . S
C1186 C1184 1.358 . S
C1186 N1187 1.279 . S
C1186 H1227 0.930 . S
N1187 C1185 1.314 . S
N1187 C1186 1.279 . S
C1188 C1190 1.353 . S
C1188 N1191 1.314 . S
C1188 H1194 0.930 . S
C1189 N1191 1.279 . S
C1189 C1192 1.358 . S
C1189 H1195 0.930 . S
C1190 C1188 1.353 . S
C1190 C1193 1.348 . S
C1190 H1228 0.929 . S
N1191 Li1146 1.990 1_556 S
N1191 C1188 1.314 . S
N1191 C1189 1.279 . S
C1192 C1189 1.358 . S
C1192 C1193 1.356 . S
C1192 H1229 0.930 . S
C1193 C1190 1.348 . S
C1193 C1192 1.356 . S
H1194 C1188 0.930 . S
H1195 C1189 0.930 . S
C1196 N1197 1.314 . S
C1196 C1198 1.353 . S
C1196 H1202 0.930 . S
N1197 Li1147 1.990 . S
N1197 C1196 1.314 . S
N1197 C1200 1.279 . S
C1198 C1196 1.353 . S
C1198 C1201 1.348 . S
C1198 H1230 0.929 . S
C1199 C1200 1.358 . S
C1199 C1201 1.356 . S
C1199 H1231 0.930 1_554 S
C1200 N1197 1.279 . S
C1200 C1199 1.358 . S
C1200 H1203 0.958 . S
C1201 C1198 1.348 . S
C1201 C1199 1.356 . S
H1202 C1196 0.930 . S
H1203 C1200 0.958 . S
O1204 Li1144 1.956 . S
O1204 Li1145 1.970 . S
O1204 Li1146 1.961 . S
O1204 C1148 1.325 . S
O1205 Li1144 1.970 . S
O1205 Li1145 1.956 . S
O1205 Li1147 1.961 . S
O1205 C1154 1.325 . S
O1206 Li1144 1.961 . S
O1206 Li1146 1.956 . S
O1206 Li1147 1.970 . S
O1206 C1176 1.325 . S
O1207 Li1145 1.961 . S
O1207 Li1146 1.970 . S
O1207 Li1147 1.956 . S
O1207 C1182 1.325 1_554 S
H1208 C1150 0.929 . S
H1209 C1151 0.930 . S
H1210 C1152 0.930 . S
H1211 C1153 0.930 . S
H1212 C1155 0.930 . S
H1213 C1157 0.929 . S
H1214 C1158 0.930 . S
H1215 C1159 0.930 . S
H1216 C1162 0.930 . S
H1217 C1165 0.929 . S
H1218 C1170 0.929 . S
H1219 C1171 0.930 . S
H1220 C1178 0.929 . S
H1221 C1179 0.930 . S
H1222 C1180 0.930 . S
H1223 C1181 0.930 . S
H1224 C1183 0.929 . S
H1225 C1184 0.930 1_554 S
H1226 C1185 0.930 . S
H1227 C1186 0.930 . S
H1228 C1190 0.929 . S
H1229 C1192 0.930 . S
H1230 C1198 0.929 . S
H1231 C1199 0.930 1_556 S
Li1232 N1249 1.990 . S
Li1232 O1292 1.956 . S
Li1232 O1293 1.970 . S
Li1232 O1294 1.961 . S
Li1233 N1257 1.990 . S
Li1233 O1292 1.970 . S
Li1233 O1293 1.956 . S
Li1233 O1295 1.961 . S
Li1234 N1279 1.990 . S
Li1234 O1292 1.961 . S
Li1234 O1294 1.956 . S
Li1234 O1295 1.970 . S
Li1235 N1285 1.990 . S
Li1235 O1293 1.961 . S
Li1235 O1294 1.970 . S
Li1235 O1295 1.956 . S
C1236 C1238 1.348 . S
C1236 C1239 1.356 . S
C1236 O1292 1.325 . S
N1237 C1240 1.314 . S
N1237 C1241 1.279 . S
C1238 C1236 1.348 . S
C1238 C1240 1.353 . S
C1238 H1296 0.929 . S
C1239 C1236 1.356 . S
C1239 C1241 1.358 . S
C1239 H1297 0.930 . S
C1240 N1237 1.314 . S
C1240 C1238 1.353 . S
C1240 H1298 0.930 . S
C1241 N1237 1.279 . S
C1241 C1239 1.358 . S
C1241 H1299 0.930 . S
C1242 C1245 1.348 . S
C1242 C1246 1.356 . S
C1242 O1293 1.325 . S
C1243 N1244 1.279 . S
C1243 C1246 1.358 . S
C1243 H1300 0.930 . S
N1244 C1243 1.279 . S
N1244 C1247 1.314 . S
C1245 C1242 1.348 . S
C1245 C1247 1.353 . S
C1245 H1301 0.929 . S
C1246 C1242 1.356 . S
C1246 C1243 1.358 . S
C1246 H1302 0.930 . S
C1247 N1244 1.314 . S
C1247 C1245 1.353 . S
C1247 H1303 0.930 . S
C1248 N1249 1.314 . S
C1248 C1253 1.353 . S
C1248 H1254 0.930 . S
N1249 Li1232 1.990 . S
N1249 C1248 1.314 . S
N1249 C1251 1.279 . S
C1250 C1251 1.358 . S
C1250 C1252 1.356 . S
C1250 H1304 0.930 . S
C1251 N1249 1.279 . S
C1251 C1250 1.358 . S
C1251 H1255 0.930 . S
C1252 C1250 1.356 . S
C1252 C1253 1.348 . S
C1253 C1248 1.353 . S
C1253 C1252 1.348 . S
C1253 H1305 0.929 . S
H1254 C1248 0.930 . S
H1255 C1251 0.930 . S
C1256 N1257 1.314 . S
C1256 C1258 1.353 . S
C1256 H1262 0.930 . S
N1257 Li1233 1.990 . S
N1257 C1256 1.314 . S
N1257 C1260 1.279 . S
C1258 C1256 1.353 . S
C1258 C1261 1.348 . S
C1258 H1306 0.929 . S
C1259 C1260 1.358 . S
C1259 C1261 1.356 . S
C1259 H1307 0.930 . S
C1260 N1257 1.279 . S
C1260 C1259 1.358 . S
C1260 H1263 0.930 . S
C1261 C1258 1.348 . S
C1261 C1259 1.356 . S
H1262 C1256 0.930 . S
H1263 C1260 0.930 . S
C1264 C1266 1.348 . S
C1264 C1267 1.356 . S
C1264 O1294 1.325 . S
N1265 C1268 1.314 . S
N1265 C1269 1.279 . S
C1266 C1264 1.348 . S
C1266 C1268 1.353 . S
C1266 H1308 0.929 . S
C1267 C1264 1.356 . S
C1267 C1269 1.358 . S
C1267 H1309 0.930 . S
C1268 N1265 1.314 . S
C1268 C1266 1.353 . S
C1268 H1310 0.930 . S
C1269 N1265 1.279 . S
C1269 C1267 1.358 . S
C1269 H1311 0.930 . S
C1270 C1271 1.348 . S
C1270 C1272 1.356 . S
C1270 O1295 1.325 . S
C1271 C1270 1.348 . S
C1271 C1273 1.353 . S
C1271 H1312 0.929 . S
C1272 C1270 1.356 . S
C1272 C1274 1.358 . S
C1272 H1313 0.930 . S
C1273 C1271 1.353 . S
C1273 N1275 1.314 . S
C1273 H1314 0.930 . S
C1274 C1272 1.358 . S
C1274 N1275 1.279 . S
C1274 H1315 0.930 . S
N1275 C1273 1.314 . S
N1275 C1274 1.279 . S
C1276 C1278 1.353 . S
C1276 N1279 1.314 . S
C1276 H1282 0.930 . S
C1277 N1279 1.279 . S
C1277 C1280 1.358 . S
C1277 H1283 0.930 . S
C1278 C1276 1.353 . S
C1278 C1281 1.348 . S
C1278 H1316 0.929 . S
N1279 Li1234 1.990 . S
N1279 C1276 1.314 . S
N1279 C1277 1.279 . S
C1280 C1277 1.358 . S
C1280 C1281 1.356 . S
C1280 H1317 0.930 . S
C1281 C1278 1.348 . S
C1281 C1280 1.356 . S
H1282 C1276 0.930 . S
H1283 C1277 0.930 . S
C1284 N1285 1.314 . S
C1284 C1286 1.353 . S
C1284 H1290 0.930 . S
N1285 Li1235 1.990 . S
N1285 C1284 1.314 . S
N1285 C1288 1.279 . S
C1286 C1284 1.353 . S
C1286 C1289 1.348 . S
C1286 H1318 0.929 . S
C1287 C1288 1.358 . S
C1287 C1289 1.356 . S
C1287 H1319 0.930 . S
C1288 N1285 1.279 . S
C1288 C1287 1.358 . S
C1288 H1291 0.930 . S
C1289 C1286 1.348 . S
C1289 C1287 1.356 . S
H1290 C1284 0.930 . S
H1291 C1288 0.930 . S
O1292 Li1232 1.956 . S
O1292 Li1233 1.970 . S
O1292 Li1234 1.961 . S
O1292 C1236 1.325 . S
O1293 Li1232 1.970 . S
O1293 Li1233 1.956 . S
O1293 Li1235 1.961 . S
O1293 C1242 1.325 . S
O1294 Li1232 1.961 . S
O1294 Li1234 1.956 . S
O1294 Li1235 1.970 . S
O1294 C1264 1.325 . S
O1295 Li1233 1.961 . S
O1295 Li1234 1.970 . S
O1295 Li1235 1.956 . S
O1295 C1270 1.325 . S
H1296 C1238 0.929 . S
H1297 C1239 0.930 . S
H1298 C1240 0.930 . S
H1299 C1241 0.930 . S
H1300 C1243 0.930 . S
H1301 C1245 0.929 . S
H1302 C1246 0.930 . S
H1303 C1247 0.930 . S
H1304 C1250 0.930 . S
H1305 C1253 0.929 . S
H1306 C1258 0.929 . S
H1307 C1259 0.930 . S
H1308 C1266 0.929 . S
H1309 C1267 0.930 . S
H1310 C1268 0.930 . S
H1311 C1269 0.930 . S
H1312 C1271 0.929 . S
H1313 C1272 0.930 . S
H1314 C1273 0.930 . S
H1315 C1274 0.930 . S
H1316 C1278 0.929 . S
H1317 C1280 0.930 . S
H1318 C1286 0.929 . S
H1319 C1287 0.930 . S
Li1320 N1337 1.990 . S
Li1320 O1380 1.956 . S
Li1320 O1381 1.970 . S
Li1320 O1382 1.961 . S
Li1321 N1345 1.990 . S
Li1321 O1380 1.970 . S
Li1321 O1381 1.956 . S
Li1321 O1383 1.961 . S
Li1322 N1367 1.990 . S
Li1322 O1380 1.961 . S
Li1322 O1382 1.956 . S
Li1322 O1383 1.970 . S
Li1323 N1373 1.990 . S
Li1323 O1381 1.961 . S
Li1323 O1382 1.970 . S
Li1323 O1383 1.956 . S
C1324 C1326 1.348 . S
C1324 C1327 1.356 . S
C1324 O1380 1.325 . S
N1325 C1328 1.314 . S
N1325 C1329 1.279 . S
C1326 C1324 1.348 . S
C1326 C1328 1.353 . S
C1326 H1384 0.929 . S
C1327 C1324 1.356 . S
C1327 C1329 1.358 . S
C1327 H1385 0.930 . S
C1328 N1325 1.314 . S
C1328 C1326 1.353 . S
C1328 H1386 0.930 . S
C1329 N1325 1.279 . S
C1329 C1327 1.358 . S
C1329 H1387 0.930 . S
C1330 C1333 1.348 . S
C1330 C1334 1.356 . S
C1330 O1381 1.325 . S
C1331 N1332 1.279 . S
C1331 C1334 1.358 . S
C1331 H1388 0.930 . S
N1332 C1331 1.279 . S
N1332 C1335 1.314 . S
C1333 C1330 1.348 . S
C1333 C1335 1.353 . S
C1333 H1389 0.929 . S
C1334 C1330 1.356 . S
C1334 C1331 1.358 . S
C1334 H1390 0.930 . S
C1335 N1332 1.314 . S
C1335 C1333 1.353 . S
C1335 H1391 0.930 . S
C1336 N1337 1.314 . S
C1336 C1341 1.353 . S
C1336 H1342 0.930 . S
N1337 Li1320 1.990 . S
N1337 C1336 1.314 . S
N1337 C1339 1.279 . S
C1338 C1339 1.358 . S
C1338 C1340 1.356 . S
C1338 H1392 0.930 . S
C1339 N1337 1.279 . S
C1339 C1338 1.358 . S
C1339 H1343 0.930 . S
C1340 C1338 1.356 . S
C1340 C1341 1.348 . S
C1341 C1336 1.353 . S
C1341 C1340 1.348 . S
C1341 H1393 0.929 . S
H1342 C1336 0.930 . S
H1343 C1339 0.930 . S
C1344 N1345 1.314 . S
C1344 C1346 1.353 . S
C1344 H1350 0.930 . S
N1345 Li1321 1.990 . S
N1345 C1344 1.314 . S
N1345 C1348 1.279 . S
C1346 C1344 1.353 . S
C1346 C1349 1.348 . S
C1346 H1394 0.929 . S
C1347 C1348 1.358 . S
C1347 C1349 1.356 . S
C1347 H1395 0.930 . S
C1348 N1345 1.279 . S
C1348 C1347 1.358 . S
C1348 H1351 0.930 . S
C1349 C1346 1.348 . S
C1349 C1347 1.356 . S
H1350 C1344 0.930 . S
H1351 C1348 0.930 . S
C1352 C1354 1.348 . S
C1352 C1355 1.356 . S
C1352 O1382 1.325 . S
N1353 C1356 1.314 . S
N1353 C1357 1.279 . S
C1354 C1352 1.348 . S
C1354 C1356 1.353 . S
C1354 H1396 0.929 . S
C1355 C1352 1.356 . S
C1355 C1357 1.358 . S
C1355 H1397 0.930 . S
C1356 N1353 1.314 . S
C1356 C1354 1.353 . S
C1356 H1398 0.930 . S
C1357 N1353 1.279 . S
C1357 C1355 1.358 . S
C1357 H1399 0.930 . S
C1358 C1359 1.348 . S
C1358 C1360 1.356 . S
C1358 O1383 1.325 . S
C1359 C1358 1.348 . S
C1359 C1361 1.353 . S
C1359 H1400 0.929 . S
C1360 C1358 1.356 . S
C1360 C1362 1.358 . S
C1360 H1401 0.930 . S
C1361 C1359 1.353 . S
C1361 N1363 1.314 . S
C1361 H1402 0.930 . S
C1362 C1360 1.358 . S
C1362 N1363 1.279 . S
C1362 H1403 0.930 . S
N1363 C1361 1.314 . S
N1363 C1362 1.279 . S
C1364 C1366 1.353 . S
C1364 N1367 1.314 . S
C1364 H1370 0.930 . S
C1365 N1367 1.279 . S
C1365 C1368 1.358 . S
C1365 H1371 0.930 . S
C1366 C1364 1.353 . S
C1366 C1369 1.348 . S
C1366 H1404 0.929 . S
N1367 Li1322 1.990 . S
N1367 C1364 1.314 . S
N1367 C1365 1.279 . S
C1368 C1365 1.358 . S
C1368 C1369 1.356 . S
C1368 H1405 0.930 . S
C1369 C1366 1.348 . S
C1369 C1368 1.356 . S
H1370 C1364 0.930 . S
H1371 C1365 0.930 . S
C1372 N1373 1.314 . S
C1372 C1374 1.353 . S
C1372 H1378 0.930 . S
N1373 Li1323 1.990 . S
N1373 C1372 1.314 . S
N1373 C1376 1.279 . S
C1374 C1372 1.353 . S
C1374 C1377 1.348 . S
C1374 H1406 0.929 . S
C1375 C1376 1.358 . S
C1375 C1377 1.356 . S
C1375 H1407 0.930 . S
C1376 N1373 1.279 . S
C1376 C1375 1.358 . S
C1376 H1379 0.930 . S
C1377 C1374 1.348 . S
C1377 C1375 1.356 . S
H1378 C1372 0.930 . S
H1379 C1376 0.930 . S
O1380 Li1320 1.956 . S
O1380 Li1321 1.970 . S
O1380 Li1322 1.961 . S
O1380 C1324 1.325 . S
O1381 Li1320 1.970 . S
O1381 Li1321 1.956 . S
O1381 Li1323 1.961 . S
O1381 C1330 1.325 . S
O1382 Li1320 1.961 . S
O1382 Li1322 1.956 . S
O1382 Li1323 1.970 . S
O1382 C1352 1.325 . S
O1383 Li1321 1.961 . S
O1383 Li1322 1.970 . S
O1383 Li1323 1.956 . S
O1383 C1358 1.325 . S
H1384 C1326 0.929 . S
H1385 C1327 0.930 . S
H1386 C1328 0.930 . S
H1387 C1329 0.930 . S
H1388 C1331 0.930 . S
H1389 C1333 0.929 . S
H1390 C1334 0.930 . S
H1391 C1335 0.930 . S
H1392 C1338 0.930 . S
H1393 C1341 0.929 . S
H1394 C1346 0.929 . S
H1395 C1347 0.930 . S
H1396 C1354 0.929 . S
H1397 C1355 0.930 . S
H1398 C1356 0.930 . S
H1399 C1357 0.930 . S
H1400 C1359 0.929 . S
H1401 C1360 0.930 . S
H1402 C1361 0.930 . S
H1403 C1362 0.930 . S
H1404 C1366 0.929 . S
H1405 C1368 0.930 . S
H1406 C1374 0.929 . S
H1407 C1375 0.930 . S
Li1408 N1425 1.990 . S
Li1408 O1468 1.956 1_545 S
Li1408 O1469 1.970 . S
Li1408 O1470 1.961 . S
Li1409 N1433 1.990 . S
Li1409 O1468 1.970 . S
Li1409 O1469 1.956 1_565 S
Li1409 O1471 1.961 1_565 S
Li1410 N1455 1.990 . S
Li1410 O1468 1.961 1_545 S
Li1410 O1470 1.956 . S
Li1410 O1471 1.970 . S
Li1411 N1461 1.990 . S
Li1411 O1469 1.961 . S
Li1411 O1470 1.970 . S
Li1411 O1471 1.956 . S
C1412 C1414 1.348 . S
C1412 C1415 1.356 . S
C1412 O1468 1.325 . S
N1413 C1416 1.314 . S
N1413 C1417 1.279 . S
C1414 C1412 1.348 . S
C1414 C1416 1.353 . S
C1414 H1472 0.929 . S
C1415 C1412 1.356 . S
C1415 C1417 1.358 . S
C1415 H1473 0.930 . S
C1416 N1413 1.314 . S
C1416 C1414 1.353 . S
C1416 H1474 0.930 . S
C1417 N1413 1.279 . S
C1417 C1415 1.358 . S
C1417 H1475 0.930 . S
C1418 C1421 1.348 . S
C1418 C1422 1.356 . S
C1418 O1469 1.325 . S
C1419 N1420 1.279 . S
C1419 C1422 1.358 . S
C1419 H1476 0.930 . S
N1420 C1419 1.279 . S
N1420 C1423 1.314 . S
C1421 C1418 1.348 . S
C1421 C1423 1.353 . S
C1421 H1477 0.929 . S
C1422 C1418 1.356 . S
C1422 C1419 1.358 . S
C1422 H1478 0.930 . S
C1423 N1420 1.314 . S
C1423 C1421 1.353 . S
C1423 H1479 0.930 . S
C1424 N1425 1.314 . S
C1424 C1429 1.353 . S
C1424 H1430 0.930 . S
N1425 Li1408 1.990 . S
N1425 C1424 1.314 . S
N1425 C1427 1.279 . S
C1426 C1427 1.358 . S
C1426 C1428 1.356 . S
C1426 H1480 0.930 1_545 S
C1427 N1425 1.279 . S
C1427 C1426 1.358 . S
C1427 H1431 0.930 1_545 S
C1428 C1426 1.356 . S
C1428 C1429 1.348 . S
C1429 C1424 1.353 . S
C1429 C1428 1.348 . S
C1429 H1481 0.929 . S
H1430 C1424 0.930 . S
H1431 C1427 0.930 1_565 S
C1432 N1433 1.314 . S
C1432 C1434 1.353 . S
C1432 H1438 0.930 . S
N1433 Li1409 1.990 . S
N1433 C1432 1.314 . S
N1433 C1436 1.279 . S
C1434 C1432 1.353 . S
C1434 C1437 1.348 . S
C1434 H1482 0.929 . S
C1435 C1436 1.358 . S
C1435 C1437 1.356 . S
C1435 H1483 0.930 . S
C1436 N1433 1.279 . S
C1436 C1435 1.358 . S
C1436 H1439 0.930 . S
C1437 C1434 1.348 . S
C1437 C1435 1.356 . S
H1438 C1432 0.930 . S
H1439 C1436 0.930 . S
C1440 C1442 1.348 . S
C1440 C1443 1.356 . S
C1440 O1470 1.325 . S
N1441 C1444 1.314 . S
N1441 C1445 1.279 . S
C1442 C1440 1.348 . S
C1442 C1444 1.353 . S
C1442 H1484 0.929 . S
C1443 C1440 1.356 . S
C1443 C1445 1.358 . S
C1443 H1485 0.930 . S
C1444 N1441 1.314 . S
C1444 C1442 1.353 . S
C1444 H1486 0.930 . S
C1445 N1441 1.279 . S
C1445 C1443 1.358 . S
C1445 H1487 0.930 . S
C1446 C1447 1.348 . S
C1446 C1448 1.353 1_545 S
C1446 O1471 1.325 . S
C1447 C1446 1.348 . S
C1447 C1449 1.353 . S
C1447 H1488 0.929 . S
C1448 C1446 1.353 1_565 S
C1448 C1450 1.355 . S
C1448 H1489 0.938 . S
C1449 C1447 1.353 . S
C1449 N1451 1.314 . S
C1449 H1490 0.930 . S
C1450 C1448 1.355 . S
C1450 N1451 1.279 1_565 S
C1450 H1491 0.930 . S
N1451 C1449 1.314 . S
N1451 C1450 1.279 1_545 S
C1452 C1454 1.353 . S
C1452 N1455 1.314 1_565 S
C1452 H1458 0.930 . S
C1453 N1455 1.279 . S
C1453 C1456 1.358 . S
C1453 H1459 0.930 . S
C1454 C1452 1.353 . S
C1454 C1457 1.348 1_565 S
C1454 H1492 0.929 . S
N1455 Li1410 1.990 . S
N1455 C1452 1.314 1_545 S
N1455 C1453 1.279 . S
C1456 C1453 1.358 . S
C1456 C1457 1.356 . S
C1456 H1493 0.930 . S
C1457 C1454 1.348 1_545 S
C1457 C1456 1.356 . S
H1458 C1452 0.930 . S
H1459 C1453 0.930 . S
C1460 N1461 1.314 . S
C1460 C1462 1.353 . S
C1460 H1466 0.930 . S
N1461 Li1411 1.990 . S
N1461 C1460 1.314 . S
N1461 C1464 1.279 . S
C1462 C1460 1.353 . S
C1462 C1465 1.348 . S
C1462 H1494 0.929 . S
C1463 C1464 1.358 . S
C1463 C1465 1.356 . S
C1463 H1495 0.930 . S
C1464 N1461 1.279 . S
C1464 C1463 1.358 . S
C1464 H1467 0.930 . S
C1465 C1462 1.348 . S
C1465 C1463 1.356 . S
H1466 C1460 0.930 . S
H1467 C1464 0.930 . S
O1468 Li1408 1.956 1_565 S
O1468 Li1409 1.970 . S
O1468 Li1410 1.961 1_565 S
O1468 C1412 1.325 . S
O1469 Li1408 1.970 . S
O1469 Li1409 1.956 1_545 S
O1469 Li1411 1.961 . S
O1469 C1418 1.325 . S
O1470 Li1408 1.961 . S
O1470 Li1410 1.956 . S
O1470 Li1411 1.970 . S
O1470 C1440 1.325 . S
O1471 Li1409 1.961 1_545 S
O1471 Li1410 1.970 . S
O1471 Li1411 1.956 . S
O1471 C1446 1.325 . S
H1472 C1414 0.929 . S
H1473 C1415 0.930 . S
H1474 C1416 0.930 . S
H1475 C1417 0.930 . S
H1476 C1419 0.930 . S
H1477 C1421 0.929 . S
H1478 C1422 0.930 . S
H1479 C1423 0.930 . S
H1480 C1426 0.930 1_565 S
H1481 C1429 0.929 . S
H1482 C1434 0.929 . S
H1483 C1435 0.930 . S
H1484 C1442 0.929 . S
H1485 C1443 0.930 . S
H1486 C1444 0.930 . S
H1487 C1445 0.930 . S
H1488 C1447 0.929 . S
H1489 C1448 0.938 . S
H1490 C1449 0.930 . S
H1491 C1450 0.930 . S
H1492 C1454 0.929 . S
H1493 C1456 0.930 . S
H1494 C1462 0.929 . S
H1495 C1463 0.930 . S
Li1496 N1513 1.990 . S
Li1496 O1556 1.956 . S
Li1496 O1557 1.970 . S
Li1496 O1558 1.961 . S
Li1497 N1521 1.990 . S
Li1497 O1556 1.970 . S
Li1497 O1557 1.956 . S
Li1497 O1559 1.961 . S
Li1498 N1543 1.990 . S
Li1498 O1556 1.961 . S
Li1498 O1558 1.956 . S
Li1498 O1559 1.970 . S
Li1499 N1549 1.990 . S
Li1499 O1557 1.961 . S
Li1499 O1558 1.970 . S
Li1499 O1559 1.956 . S
C1500 C1502 1.348 . S
C1500 C1503 1.356 . S
C1500 O1556 1.325 . S
N1501 C1504 1.314 . S
N1501 C1505 1.279 . S
C1502 C1500 1.348 . S
C1502 C1504 1.353 . S
C1502 H1560 0.929 . S
C1503 C1500 1.356 . S
C1503 C1505 1.358 . S
C1503 H1561 0.930 . S
C1504 N1501 1.314 . S
C1504 C1502 1.353 . S
C1504 H1562 0.930 . S
C1505 N1501 1.279 . S
C1505 C1503 1.358 . S
C1505 H1563 0.930 . S
C1506 C1509 1.348 . S
C1506 C1510 1.356 . S
C1506 O1557 1.325 . S
C1507 N1508 1.279 . S
C1507 C1510 1.358 . S
C1507 H1564 0.930 . S
N1508 C1507 1.279 . S
N1508 C1511 1.314 . S
C1509 C1506 1.348 . S
C1509 C1511 1.353 . S
C1509 H1565 0.929 . S
C1510 C1506 1.356 . S
C1510 C1507 1.358 . S
C1510 H1566 0.930 . S
C1511 N1508 1.314 . S
C1511 C1509 1.353 . S
C1511 H1567 0.930 . S
C1512 N1513 1.314 . S
C1512 C1517 1.353 . S
C1512 H1518 0.930 . S
N1513 Li1496 1.990 . S
N1513 C1512 1.314 . S
N1513 C1515 1.279 . S
C1514 C1515 1.358 . S
C1514 C1516 1.356 . S
C1514 H1568 0.930 . S
C1515 N1513 1.279 . S
C1515 C1514 1.358 . S
C1515 H1519 0.930 . S
C1516 C1514 1.356 . S
C1516 C1517 1.348 . S
C1517 C1512 1.353 . S
C1517 C1516 1.348 . S
C1517 H1569 0.929 . S
H1518 C1512 0.930 . S
H1519 C1515 0.930 . S
C1520 N1521 1.314 . S
C1520 C1522 1.353 . S
C1520 H1526 0.930 . S
N1521 Li1497 1.990 . S
N1521 C1520 1.314 . S
N1521 C1524 1.279 . S
C1522 C1520 1.353 . S
C1522 C1525 1.348 . S
C1522 H1570 0.929 . S
C1523 C1524 1.358 . S
C1523 C1525 1.356 . S
C1523 H1571 0.930 . S
C1524 N1521 1.279 . S
C1524 C1523 1.358 . S
C1524 H1527 0.930 . S
C1525 C1522 1.348 . S
C1525 C1523 1.356 . S
H1526 C1520 0.930 . S
H1527 C1524 0.930 . S
C1528 C1530 1.348 . S
C1528 C1531 1.356 . S
C1528 O1558 1.325 . S
N1529 C1532 1.314 . S
N1529 C1533 1.279 . S
C1530 C1528 1.348 . S
C1530 C1532 1.353 . S
C1530 H1572 0.929 . S
C1531 C1528 1.356 . S
C1531 C1533 1.358 . S
C1531 H1573 0.930 . S
C1532 N1529 1.314 . S
C1532 C1530 1.353 . S
C1532 H1574 0.930 . S
C1533 N1529 1.279 . S
C1533 C1531 1.358 . S
C1533 H1575 0.930 . S
C1534 C1535 1.348 . S
C1534 C1536 1.356 . S
C1534 O1559 1.325 . S
C1535 C1534 1.348 . S
C1535 C1537 1.353 . S
C1535 H1576 0.929 . S
C1536 C1534 1.356 . S
C1536 C1538 1.358 . S
C1536 H1577 0.930 . S
C1537 C1535 1.353 . S
C1537 N1539 1.314 . S
C1537 H1578 0.930 . S
C1538 C1536 1.358 . S
C1538 N1539 1.279 . S
C1538 H1579 0.930 . S
N1539 C1537 1.314 . S
N1539 C1538 1.279 . S
C1540 C1542 1.353 . S
C1540 N1543 1.314 . S
C1540 H1546 0.930 . S
C1541 N1543 1.279 . S
C1541 C1544 1.358 . S
C1541 H1547 0.930 . S
C1542 C1540 1.353 . S
C1542 C1545 1.348 . S
C1542 H1580 0.929 . S
N1543 Li1498 1.990 . S
N1543 C1540 1.314 . S
N1543 C1541 1.279 . S
C1544 C1541 1.358 . S
C1544 C1545 1.356 . S
C1544 H1581 0.930 . S
C1545 C1542 1.348 . S
C1545 C1544 1.356 . S
H1546 C1540 0.930 . S
H1547 C1541 0.930 . S
C1548 N1549 1.314 . S
C1548 C1550 1.353 . S
C1548 H1554 0.930 . S
N1549 Li1499 1.990 . S
N1549 C1548 1.314 . S
N1549 C1552 1.279 . S
C1550 C1548 1.353 . S
C1550 C1553 1.348 . S
C1550 H1582 0.929 . S
C1551 C1552 1.358 . S
C1551 C1553 1.356 . S
C1551 H1583 0.930 . S
C1552 N1549 1.279 . S
C1552 C1551 1.358 . S
C1552 H1555 0.930 . S
C1553 C1550 1.348 . S
C1553 C1551 1.356 . S
H1554 C1548 0.930 . S
H1555 C1552 0.930 . S
O1556 Li1496 1.956 . S
O1556 Li1497 1.970 . S
O1556 Li1498 1.961 . S
O1556 C1500 1.325 . S
O1557 Li1496 1.970 . S
O1557 Li1497 1.956 . S
O1557 Li1499 1.961 . S
O1557 C1506 1.325 . S
O1558 Li1496 1.961 . S
O1558 Li1498 1.956 . S
O1558 Li1499 1.970 . S
O1558 C1528 1.325 . S
O1559 Li1497 1.961 . S
O1559 Li1498 1.970 . S
O1559 Li1499 1.956 . S
O1559 C1534 1.325 . S
H1560 C1502 0.929 . S
H1561 C1503 0.930 . S
H1562 C1504 0.930 . S
H1563 C1505 0.930 . S
H1564 C1507 0.930 . S
H1565 C1509 0.929 . S
H1566 C1510 0.930 . S
H1567 C1511 0.930 . S
H1568 C1514 0.930 . S
H1569 C1517 0.929 . S
H1570 C1522 0.929 . S
H1571 C1523 0.930 . S
H1572 C1530 0.929 . S
H1573 C1531 0.930 . S
H1574 C1532 0.930 . S
H1575 C1533 0.930 . S
H1576 C1535 0.929 . S
H1577 C1536 0.930 . S
H1578 C1537 0.930 . S
H1579 C1538 0.930 . S
H1580 C1542 0.929 . S
H1581 C1544 0.930 . S
H1582 C1550 0.929 . S
H1583 C1551 0.930 . S
Li1584 N1601 1.990 . S
Li1584 O1644 1.956 . S
Li1584 O1645 1.970 . S
Li1584 O1646 1.961 . S
Li1585 N1609 1.990 . S
Li1585 O1644 1.970 . S
Li1585 O1645 1.956 . S
Li1585 O1647 1.961 . S
Li1586 N1631 1.990 . S
Li1586 O1644 1.961 . S
Li1586 O1646 1.956 . S
Li1586 O1647 1.970 . S
Li1587 N1637 1.990 . S
Li1587 O1645 1.961 . S
Li1587 O1646 1.970 . S
Li1587 O1647 1.956 . S
C1588 C1590 1.348 . S
C1588 C1591 1.356 . S
C1588 O1644 1.325 . S
N1589 C1592 1.314 . S
N1589 C1593 1.279 . S
C1590 C1588 1.348 . S
C1590 C1592 1.353 . S
C1590 H1648 0.929 . S
C1591 C1588 1.356 . S
C1591 C1593 1.358 . S
C1591 H1649 0.930 . S
C1592 N1589 1.314 . S
C1592 C1590 1.353 . S
C1592 H1650 0.930 . S
C1593 N1589 1.279 . S
C1593 C1591 1.358 . S
C1593 H1651 0.930 . S
C1594 C1597 1.348 . S
C1594 C1598 1.356 . S
C1594 O1645 1.325 . S
C1595 N1596 1.279 . S
C1595 C1598 1.358 . S
C1595 H1652 0.930 . S
N1596 C1595 1.279 . S
N1596 C1599 1.314 . S
C1597 C1594 1.348 . S
C1597 C1599 1.353 . S
C1597 H1653 0.929 . S
C1598 C1594 1.356 . S
C1598 C1595 1.358 . S
C1598 H1654 0.930 . S
C1599 N1596 1.314 . S
C1599 C1597 1.353 . S
C1599 H1655 0.930 . S
C1600 N1601 1.314 . S
C1600 C1605 1.353 . S
C1600 H1606 0.930 . S
N1601 Li1584 1.990 . S
N1601 C1600 1.314 . S
N1601 C1603 1.279 . S
C1602 C1603 1.358 . S
C1602 C1604 1.356 . S
C1602 H1656 0.930 . S
C1603 N1601 1.279 . S
C1603 C1602 1.358 . S
C1603 H1607 0.930 . S
C1604 C1602 1.356 . S
C1604 C1605 1.348 . S
C1605 C1600 1.353 . S
C1605 C1604 1.348 . S
C1605 H1657 0.929 . S
H1606 C1600 0.930 . S
H1607 C1603 0.930 . S
C1608 N1609 1.314 . S
C1608 C1610 1.353 . S
C1608 H1614 0.930 . S
N1609 Li1585 1.990 . S
N1609 C1608 1.314 . S
N1609 C1612 1.279 . S
C1610 C1608 1.353 . S
C1610 C1613 1.348 . S
C1610 H1658 0.929 . S
C1611 C1612 1.358 . S
C1611 C1613 1.356 . S
C1611 H1659 0.930 . S
C1612 N1609 1.279 . S
C1612 C1611 1.358 . S
C1612 H1615 0.930 . S
C1613 C1610 1.348 . S
C1613 C1611 1.356 . S
H1614 C1608 0.930 . S
H1615 C1612 0.930 . S
C1616 C1618 1.348 . S
C1616 C1619 1.356 . S
C1616 O1646 1.325 . S
N1617 C1620 1.314 . S
N1617 C1621 1.279 . S
C1618 C1616 1.348 . S
C1618 C1620 1.353 . S
C1618 H1660 0.929 . S
C1619 C1616 1.356 . S
C1619 C1621 1.358 . S
C1619 H1661 0.930 . S
C1620 N1617 1.314 . S
C1620 C1618 1.353 . S
C1620 H1662 0.930 . S
C1621 N1617 1.279 . S
C1621 C1619 1.358 . S
C1621 H1663 0.930 . S
C1622 C1623 1.348 . S
C1622 C1624 1.356 . S
C1622 O1647 1.325 . S
C1623 C1622 1.348 . S
C1623 C1625 1.353 . S
C1623 H1664 0.929 . S
C1624 C1622 1.356 . S
C1624 C1626 1.358 . S
C1624 H1665 0.930 . S
C1625 C1623 1.353 . S
C1625 N1627 1.314 . S
C1625 H1666 0.930 . S
C1626 C1624 1.358 . S
C1626 N1627 1.279 . S
C1626 H1667 0.930 . S
N1627 C1625 1.314 . S
N1627 C1626 1.279 . S
C1628 C1630 1.353 . S
C1628 N1631 1.314 . S
C1628 H1634 0.930 . S
C1629 N1631 1.279 . S
C1629 C1632 1.358 . S
C1629 H1635 0.930 . S
C1630 C1628 1.353 . S
C1630 C1633 1.348 . S
C1630 H1668 0.929 . S
N1631 Li1586 1.990 . S
N1631 C1628 1.314 . S
N1631 C1629 1.279 . S
C1632 C1629 1.358 . S
C1632 C1633 1.356 . S
C1632 H1669 0.930 . S
C1633 C1630 1.348 . S
C1633 C1632 1.356 . S
H1634 C1628 0.930 . S
H1635 C1629 0.930 . S
C1636 N1637 1.314 . S
C1636 C1638 1.353 . S
C1636 H1642 0.930 . S
N1637 Li1587 1.990 . S
N1637 C1636 1.314 . S
N1637 C1640 1.279 . S
C1638 C1636 1.353 . S
C1638 C1641 1.348 . S
C1638 H1670 0.929 . S
C1639 C1640 1.358 . S
C1639 C1641 1.356 . S
C1639 H1671 0.930 . S
C1640 N1637 1.279 . S
C1640 C1639 1.358 . S
C1640 H1643 0.930 . S
C1641 C1638 1.348 . S
C1641 C1639 1.356 . S
H1642 C1636 0.930 . S
H1643 C1640 0.930 . S
O1644 Li1584 1.956 . S
O1644 Li1585 1.970 . S
O1644 Li1586 1.961 . S
O1644 C1588 1.325 . S
O1645 Li1584 1.970 . S
O1645 Li1585 1.956 . S
O1645 Li1587 1.961 . S
O1645 C1594 1.325 . S
O1646 Li1584 1.961 . S
O1646 Li1586 1.956 . S
O1646 Li1587 1.970 . S
O1646 C1616 1.325 . S
O1647 Li1585 1.961 . S
O1647 Li1586 1.970 . S
O1647 Li1587 1.956 . S
O1647 C1622 1.325 . S
H1648 C1590 0.929 . S
H1649 C1591 0.930 . S
H1650 C1592 0.930 . S
H1651 C1593 0.930 . S
H1652 C1595 0.930 . S
H1653 C1597 0.929 . S
H1654 C1598 0.930 . S
H1655 C1599 0.930 . S
H1656 C1602 0.930 . S
H1657 C1605 0.929 . S
H1658 C1610 0.929 . S
H1659 C1611 0.930 . S
H1660 C1618 0.929 . S
H1661 C1619 0.930 . S
H1662 C1620 0.930 . S
H1663 C1621 0.930 . S
H1664 C1623 0.929 . S
H1665 C1624 0.930 . S
H1666 C1625 0.930 . S
H1667 C1626 0.930 . S
H1668 C1630 0.929 . S
H1669 C1632 0.930 . S
H1670 C1638 0.929 . S
H1671 C1639 0.930 . S
Li1672 N1689 1.990 . S
Li1672 O1732 1.956 . S
Li1672 O1733 1.970 . S
Li1672 O1734 1.961 1_545 S
Li1673 N1697 1.990 . S
Li1673 O1732 1.970 . S
Li1673 O1733 1.956 . S
Li1673 O1735 1.961 . S
Li1674 N1719 1.990 . S
Li1674 O1732 1.961 . S
Li1674 O1734 1.956 1_545 S
Li1674 O1735 1.970 . S
Li1675 N1725 1.990 . S
Li1675 O1733 1.961 1_565 S
Li1675 O1734 1.970 . S
Li1675 O1735 1.956 1_565 S
C1676 C1678 1.348 . S
C1676 C1679 1.356 . S
C1676 O1732 1.325 . S
N1677 C1680 1.314 . S
N1677 C1681 1.279 . S
C1678 C1676 1.348 . S
C1678 C1680 1.353 . S
C1678 H1736 0.929 . S
C1679 C1676 1.356 . S
C1679 C1681 1.358 . S
C1679 H1737 0.930 . S
C1680 N1677 1.314 . S
C1680 C1678 1.353 . S
C1680 H1738 0.930 . S
C1681 N1677 1.279 . S
C1681 C1679 1.358 . S
C1681 H1739 0.930 . S
C1682 C1685 1.348 . S
C1682 C1686 1.356 . S
C1682 O1733 1.325 . S
C1683 N1684 1.279 . S
C1683 C1686 1.358 . S
C1683 H1740 0.930 . S
N1684 C1683 1.279 . S
N1684 C1687 1.314 . S
C1685 C1682 1.348 . S
C1685 C1687 1.353 . S
C1685 H1741 0.929 . S
C1686 C1682 1.356 . S
C1686 C1683 1.358 . S
C1686 H1742 0.930 . S
C1687 N1684 1.314 . S
C1687 C1685 1.353 . S
C1687 H1743 0.930 . S
C1688 N1689 1.314 1_565 S
C1688 C1693 1.353 . S
C1688 H1694 0.930 . S
N1689 Li1672 1.990 . S
N1689 C1688 1.314 1_545 S
N1689 C1691 1.279 . S
C1690 C1691 1.358 . S
C1690 C1692 1.356 . S
C1690 H1744 0.930 . S
C1691 N1689 1.279 . S
C1691 C1690 1.358 . S
C1691 H1695 0.930 . S
C1692 C1690 1.356 . S
C1692 C1693 1.348 1_545 S
C1693 C1688 1.353 . S
C1693 C1692 1.348 1_565 S
C1693 H1745 0.929 . S
H1694 C1688 0.930 . S
H1695 C1691 0.930 . S
C1696 N1697 1.314 . S
C1696 C1698 1.353 . S
C1696 H1702 0.930 . S
N1697 Li1673 1.990 . S
N1697 C1696 1.314 . S
N1697 C1700 1.279 . S
C1698 C1696 1.353 . S
C1698 C1701 1.348 . S
C1698 H1746 0.929 . S
C1699 C1700 1.358 . S
C1699 C1701 1.356 . S
C1699 H1747 0.930 . S
C1700 N1697 1.279 . S
C1700 C1699 1.358 . S
C1700 H1703 0.930 . S
C1701 C1698 1.348 . S
C1701 C1699 1.356 . S
H1702 C1696 0.930 . S
H1703 C1700 0.930 . S
C1704 C1706 1.348 . S
C1704 C1707 1.356 . S
C1704 O1734 1.325 . S
N1705 C1708 1.314 . S
N1705 C1709 1.279 . S
C1706 C1704 1.348 . S
C1706 C1708 1.353 . S
C1706 H1748 0.929 . S
C1707 C1704 1.356 . S
C1707 C1709 1.358 . S
C1707 H1749 0.930 . S
C1708 N1705 1.314 . S
C1708 C1706 1.353 . S
C1708 H1750 0.930 . S
C1709 N1705 1.279 . S
C1709 C1707 1.358 . S
C1709 H1751 0.930 . S
C1710 C1711 1.348 . S
C1710 C1712 1.356 . S
C1710 O1735 1.325 . S
C1711 C1710 1.348 . S
C1711 C1713 1.353 . S
C1711 H1752 0.929 1_545 S
C1712 C1710 1.356 . S
C1712 C1714 1.358 . S
C1712 H1753 0.930 . S
C1713 C1711 1.353 . S
C1713 N1715 1.314 . S
C1713 H1754 0.928 1_545 S
C1714 C1712 1.358 . S
C1714 N1715 1.279 . S
C1714 H1755 0.930 . S
N1715 C1713 1.314 . S
N1715 C1714 1.279 . S
C1716 C1718 1.353 . S
C1716 N1719 1.314 . S
C1716 H1722 0.930 . S
C1717 N1719 1.279 1_565 S
C1717 C1720 1.358 . S
C1717 H1723 0.930 . S
C1718 C1716 1.353 . S
C1718 C1721 1.316 1_545 S
C1718 H1756 0.929 . S
N1719 Li1674 1.990 . S
N1719 C1716 1.314 . S
N1719 C1717 1.279 1_545 S
C1720 C1717 1.358 . S
C1720 C1721 1.392 . S
C1720 H1757 0.930 . S
C1721 C1718 1.316 1_565 S
C1721 C1720 1.392 . S
H1722 C1716 0.930 . S
H1723 C1717 0.930 . S
C1724 N1725 1.314 . S
C1724 C1726 1.353 . S
C1724 H1730 0.930 . S
N1725 Li1675 1.990 . S
N1725 C1724 1.314 . S
N1725 C1728 1.279 . S
C1726 C1724 1.353 . S
C1726 C1729 1.348 . S
C1726 H1758 0.929 . S
C1727 C1728 1.358 . S
C1727 C1729 1.356 . S
C1727 H1759 0.930 . S
C1728 N1725 1.279 . S
C1728 C1727 1.358 . S
C1728 H1731 0.930 . S
C1729 C1726 1.348 . S
C1729 C1727 1.356 . S
H1730 C1724 0.930 . S
H1731 C1728 0.930 . S
O1732 Li1672 1.956 . S
O1732 Li1673 1.970 . S
O1732 Li1674 1.961 . S
O1732 C1676 1.325 . S
O1733 Li1672 1.970 . S
O1733 Li1673 1.956 . S
O1733 Li1675 1.961 1_545 S
O1733 C1682 1.325 . S
O1734 Li1672 1.961 1_565 S
O1734 Li1674 1.956 1_565 S
O1734 Li1675 1.970 . S
O1734 C1704 1.325 . S
O1735 Li1673 1.961 . S
O1735 Li1674 1.970 . S
O1735 Li1675 1.956 1_545 S
O1735 C1710 1.325 . S
H1736 C1678 0.929 . S
H1737 C1679 0.930 . S
H1738 C1680 0.930 . S
H1739 C1681 0.930 . S
H1740 C1683 0.930 . S
H1741 C1685 0.929 . S
H1742 C1686 0.930 . S
H1743 C1687 0.930 . S
H1744 C1690 0.930 . S
H1745 C1693 0.929 . S
H1746 C1698 0.929 . S
H1747 C1699 0.930 . S
H1748 C1706 0.929 . S
H1749 C1707 0.930 . S
H1750 C1708 0.930 . S
H1751 C1709 0.930 . S
H1752 C1711 0.929 1_565 S
H1753 C1712 0.930 . S
H1754 C1713 0.928 1_565 S
H1755 C1714 0.930 . S
H1756 C1718 0.929 . S
H1757 C1720 0.930 . S
H1758 C1726 0.929 . S
H1759 C1727 0.930 . S
Li1760 N1777 1.990 . S
Li1760 O1820 1.956 . S
Li1760 O1821 1.970 . S
Li1760 O1822 1.961 . S
Li1761 N1785 1.990 . S
Li1761 O1820 1.970 . S
Li1761 O1821 1.956 . S
Li1761 O1823 1.961 1_554 S
Li1762 N1807 2.041 . S
Li1762 O1820 1.925 1_556 S
Li1762 O1822 1.911 1_556 S
Li1762 O1823 1.973 . S
Li1763 N1813 1.990 . S
Li1763 O1821 1.961 . S
Li1763 O1822 1.970 . S
Li1763 O1823 1.956 1_554 S
C1764 C1766 1.348 . S
C1764 C1767 1.356 . S
C1764 O1820 1.325 . S
N1765 C1768 1.314 . S
N1765 C1769 1.279 . S
C1766 C1764 1.348 . S
C1766 C1768 1.353 . S
C1766 H1824 0.929 . S
C1767 C1764 1.356 . S
C1767 C1769 1.358 . S
C1767 H1825 0.930 . S
C1768 N1765 1.314 . S
C1768 C1766 1.353 . S
C1768 H1826 0.930 . S
C1769 N1765 1.279 . S
C1769 C1767 1.358 . S
C1769 H1827 0.930 . S
C1770 C1773 1.348 . S
C1770 C1774 1.356 . S
C1770 O1821 1.325 . S
C1771 N1772 1.279 . S
C1771 C1774 1.358 . S
C1771 H1828 0.930 . S
N1772 C1771 1.279 . S
N1772 C1775 1.314 . S
C1773 C1770 1.348 . S
C1773 C1775 1.353 . S
C1773 H1829 0.929 . S
C1774 C1770 1.356 . S
C1774 C1771 1.358 . S
C1774 H1830 0.930 . S
C1775 N1772 1.314 . S
C1775 C1773 1.353 . S
C1775 H1831 0.930 . S
C1776 N1777 1.314 . S
C1776 C1781 1.353 . S
C1776 H1782 0.930 . S
N1777 Li1760 1.990 . S
N1777 C1776 1.314 . S
N1777 C1779 1.279 . S
C1778 C1779 1.358 . S
C1778 C1780 1.356 . S
C1778 H1832 0.930 . S
C1779 N1777 1.279 . S
C1779 C1778 1.358 . S
C1779 H1783 0.930 . S
C1780 C1778 1.356 . S
C1780 C1781 1.348 . S
C1781 C1776 1.353 . S
C1781 C1780 1.348 . S
C1781 H1833 0.929 . S
H1782 C1776 0.930 . S
H1783 C1779 0.930 . S
C1784 N1785 1.314 . S
C1784 C1786 1.353 . S
C1784 H1790 0.930 1_554 S
N1785 Li1761 1.990 . S
N1785 C1784 1.314 . S
N1785 C1788 1.279 . S
C1786 C1784 1.353 . S
C1786 C1789 1.348 . S
C1786 H1834 0.929 1_554 S
C1787 C1788 1.358 . S
C1787 C1789 1.356 . S
C1787 H1835 0.930 . S
C1788 N1785 1.279 . S
C1788 C1787 1.358 . S
C1788 H1791 0.930 . S
C1789 C1786 1.348 . S
C1789 C1787 1.356 . S
H1790 C1784 0.930 1_556 S
H1791 C1788 0.930 . S
C1792 C1794 1.348 . S
C1792 C1795 1.356 . S
C1792 O1822 1.325 . S
N1793 C1796 1.314 . S
N1793 C1797 1.279 . S
C1794 C1792 1.348 . S
C1794 C1796 1.353 . S
C1794 H1836 0.929 . S
C1795 C1792 1.356 . S
C1795 C1797 1.358 . S
C1795 H1837 0.930 . S
C1796 N1793 1.314 . S
C1796 C1794 1.353 . S
C1796 H1838 0.930 . S
C1797 N1793 1.279 . S
C1797 C1795 1.358 . S
C1797 H1839 0.930 . S
C1798 C1799 1.348 . S
C1798 C1800 1.356 . S
C1798 O1823 1.325 . S
C1799 C1798 1.348 . S
C1799 C1801 1.353 . S
C1799 H1840 0.929 . S
C1800 C1798 1.356 . S
C1800 C1802 1.358 . S
C1800 H1841 0.930 . S
C1801 C1799 1.353 . S
C1801 N1803 1.314 . S
C1801 H1842 0.930 . S
C1802 C1800 1.358 . S
C1802 N1803 1.279 . S
C1802 H1843 0.930 . S
N1803 C1801 1.314 . S
N1803 C1802 1.279 . S
C1804 C1806 1.353 . S
C1804 N1807 1.314 . S
C1804 H1810 0.930 . S
C1805 N1807 1.279 . S
C1805 C1808 1.358 . S
C1805 H1811 0.930 . S
C1806 C1804 1.353 . S
C1806 C1809 1.348 . S
C1806 H1844 0.929 . S
N1807 Li1762 2.041 . S
N1807 C1804 1.314 . S
N1807 C1805 1.279 . S
C1808 C1805 1.358 . S
C1808 C1809 1.356 . S
C1808 H1845 0.930 . S
C1809 C1806 1.348 . S
C1809 C1808 1.356 . S
H1810 C1804 0.930 . S
H1811 C1805 0.930 . S
C1812 N1813 1.314 . S
C1812 C1814 1.353 . S
C1812 H1818 0.930 . S
N1813 Li1763 1.990 . S
N1813 C1812 1.314 . S
N1813 C1816 1.279 1_554 S
C1814 C1812 1.353 . S
C1814 C1817 1.348 . S
C1814 H1846 0.929 . S
C1815 C1816 1.358 . S
C1815 C1817 1.356 1_556 S
C1815 H1847 0.930 . S
C1816 N1813 1.279 1_556 S
C1816 C1815 1.358 . S
C1816 H1819 0.930 . S
C1817 C1814 1.348 . S
C1817 C1815 1.356 1_554 S
H1818 C1812 0.930 . S
H1819 C1816 0.930 . S
O1820 Li1760 1.956 . S
O1820 Li1761 1.970 . S
O1820 Li1762 1.925 1_554 S
O1820 C1764 1.325 . S
O1821 Li1760 1.970 . S
O1821 Li1761 1.956 . S
O1821 Li1763 1.961 . S
O1821 C1770 1.325 . S
O1822 Li1760 1.961 . S
O1822 Li1762 1.911 1_554 S
O1822 Li1763 1.970 . S
O1822 C1792 1.325 . S
O1823 Li1761 1.961 1_556 S
O1823 Li1762 1.973 . S
O1823 Li1763 1.956 1_556 S
O1823 C1798 1.325 . S
H1824 C1766 0.929 . S
H1825 C1767 0.930 . S
H1826 C1768 0.930 . S
H1827 C1769 0.930 . S
H1828 C1771 0.930 . S
H1829 C1773 0.929 . S
H1830 C1774 0.930 . S
H1831 C1775 0.930 . S
H1832 C1778 0.930 . S
H1833 C1781 0.929 . S
H1834 C1786 0.929 1_556 S
H1835 C1787 0.930 . S
H1836 C1794 0.929 . S
H1837 C1795 0.930 . S
H1838 C1796 0.930 . S
H1839 C1797 0.930 . S
H1840 C1799 0.929 . S
H1841 C1800 0.930 . S
H1842 C1801 0.930 . S
H1843 C1802 0.930 . S
H1844 C1806 0.929 . S
H1845 C1808 0.930 . S
H1846 C1814 0.929 . S
H1847 C1815 0.930 . S
Li1848 N1865 1.990 . S
Li1848 O1908 1.956 . S
Li1848 O1909 1.970 . S
Li1848 O1910 1.961 . S
Li1849 N1873 1.990 . S
Li1849 O1908 1.970 . S
Li1849 O1909 1.956 . S
Li1849 O1911 1.961 . S
Li1850 N1895 1.990 . S
Li1850 O1908 1.961 . S
Li1850 O1910 1.956 . S
Li1850 O1911 1.970 . S
Li1851 N1901 1.990 . S
Li1851 O1909 1.961 . S
Li1851 O1910 1.970 . S
Li1851 O1911 1.956 . S
C1852 C1854 1.348 . S
C1852 C1855 1.356 . S
C1852 O1908 1.325 . S
N1853 C1856 1.314 . S
N1853 C1857 1.279 . S
C1854 C1852 1.348 . S
C1854 C1856 1.353 . S
C1854 H1912 0.929 . S
C1855 C1852 1.356 . S
C1855 C1857 1.358 . S
C1855 H1913 0.930 . S
C1856 N1853 1.314 . S
C1856 C1854 1.353 . S
C1856 H1914 0.930 . S
C1857 N1853 1.279 . S
C1857 C1855 1.358 . S
C1857 H1915 0.930 . S
C1858 C1861 1.348 . S
C1858 C1862 1.356 . S
C1858 O1909 1.325 . S
C1859 N1860 1.279 . S
C1859 C1862 1.358 . S
C1859 H1916 0.930 . S
N1860 C1859 1.279 . S
N1860 C1863 1.314 . S
C1861 C1858 1.348 . S
C1861 C1863 1.353 . S
C1861 H1917 0.929 . S
C1862 C1858 1.356 . S
C1862 C1859 1.358 . S
C1862 H1918 0.930 . S
C1863 N1860 1.314 . S
C1863 C1861 1.353 . S
C1863 H1919 0.930 . S
C1864 N1865 1.314 . S
C1864 C1869 1.353 . S
C1864 H1870 0.930 . S
N1865 Li1848 1.990 . S
N1865 C1864 1.314 . S
N1865 C1867 1.279 . S
C1866 C1867 1.358 . S
C1866 C1868 1.356 . S
C1866 H1920 0.930 . S
C1867 N1865 1.279 . S
C1867 C1866 1.358 . S
C1867 H1871 0.930 . S
C1868 C1866 1.356 . S
C1868 C1869 1.348 . S
C1869 C1864 1.353 . S
C1869 C1868 1.348 . S
C1869 H1921 0.929 . S
H1870 C1864 0.930 . S
H1871 C1867 0.930 . S
C1872 N1873 1.314 . S
C1872 C1874 1.353 . S
C1872 H1878 0.930 . S
N1873 Li1849 1.990 . S
N1873 C1872 1.314 . S
N1873 C1876 1.279 . S
C1874 C1872 1.353 . S
C1874 C1877 1.348 . S
C1874 H1922 0.929 . S
C1875 C1876 1.358 . S
C1875 C1877 1.356 . S
C1875 H1923 0.930 . S
C1876 N1873 1.279 . S
C1876 C1875 1.358 . S
C1876 H1879 0.930 . S
C1877 C1874 1.348 . S
C1877 C1875 1.356 . S
H1878 C1872 0.930 . S
H1879 C1876 0.930 . S
C1880 C1882 1.348 . S
C1880 C1883 1.356 . S
C1880 O1910 1.325 . S
N1881 C1884 1.314 . S
N1881 C1885 1.279 . S
C1882 C1880 1.348 . S
C1882 C1884 1.353 . S
C1882 H1924 0.929 . S
C1883 C1880 1.356 . S
C1883 C1885 1.358 . S
C1883 H1925 0.930 . S
C1884 N1881 1.314 . S
C1884 C1882 1.353 . S
C1884 H1926 0.930 . S
C1885 N1881 1.279 . S
C1885 C1883 1.358 . S
C1885 H1927 0.930 . S
C1886 C1887 1.348 . S
C1886 C1888 1.356 . S
C1886 O1911 1.325 . S
C1887 C1886 1.348 . S
C1887 C1889 1.353 . S
C1887 H1928 0.929 . S
C1888 C1886 1.356 . S
C1888 C1890 1.358 . S
C1888 H1929 0.930 . S
C1889 C1887 1.353 . S
C1889 N1891 1.314 . S
C1889 H1930 0.930 . S
C1890 C1888 1.358 . S
C1890 N1891 1.279 . S
C1890 H1931 0.930 . S
N1891 C1889 1.314 . S
N1891 C1890 1.279 . S
C1892 C1894 1.353 . S
C1892 N1895 1.314 . S
C1892 H1898 0.930 . S
C1893 N1895 1.279 . S
C1893 C1896 1.358 . S
C1893 H1899 0.930 . S
C1894 C1892 1.353 . S
C1894 C1897 1.348 . S
C1894 H1932 0.929 . S
N1895 Li1850 1.990 . S
N1895 C1892 1.314 . S
N1895 C1893 1.279 . S
C1896 C1893 1.358 . S
C1896 C1897 1.356 . S
C1896 H1933 0.930 . S
C1897 C1894 1.348 . S
C1897 C1896 1.356 . S
H1898 C1892 0.930 . S
H1899 C1893 0.930 . S
C1900 N1901 1.314 . S
C1900 C1902 1.353 . S
C1900 H1906 0.930 . S
N1901 Li1851 1.990 . S
N1901 C1900 1.314 . S
N1901 C1904 1.279 . S
C1902 C1900 1.353 . S
C1902 C1905 1.348 . S
C1902 H1934 0.929 . S
C1903 C1904 1.358 . S
C1903 C1905 1.356 . S
C1903 H1935 0.930 . S
C1904 N1901 1.279 . S
C1904 C1903 1.358 . S
C1904 H1907 0.930 . S
C1905 C1902 1.348 . S
C1905 C1903 1.356 . S
H1906 C1900 0.930 . S
H1907 C1904 0.930 . S
O1908 Li1848 1.956 . S
O1908 Li1849 1.970 . S
O1908 Li1850 1.961 . S
O1908 C1852 1.325 . S
O1909 Li1848 1.970 . S
O1909 Li1849 1.956 . S
O1909 Li1851 1.961 . S
O1909 C1858 1.325 . S
O1910 Li1848 1.961 . S
O1910 Li1850 1.956 . S
O1910 Li1851 1.970 . S
O1910 C1880 1.325 . S
O1911 Li1849 1.961 . S
O1911 Li1850 1.970 . S
O1911 Li1851 1.956 . S
O1911 C1886 1.325 . S
H1912 C1854 0.929 . S
H1913 C1855 0.930 . S
H1914 C1856 0.930 . S
H1915 C1857 0.930 . S
H1916 C1859 0.930 . S
H1917 C1861 0.929 . S
H1918 C1862 0.930 . S
H1919 C1863 0.930 . S
H1920 C1866 0.930 . S
H1921 C1869 0.929 . S
H1922 C1874 0.929 . S
H1923 C1875 0.930 . S
H1924 C1882 0.929 . S
H1925 C1883 0.930 . S
H1926 C1884 0.930 . S
H1927 C1885 0.930 . S
H1928 C1887 0.929 . S
H1929 C1888 0.930 . S
H1930 C1889 0.930 . S
H1931 C1890 0.930 . S
H1932 C1894 0.929 . S
H1933 C1896 0.930 . S
H1934 C1902 0.929 . S
H1935 C1903 0.930 . S
Li1936 N1953 1.990 . S
Li1936 O1996 1.956 . S
Li1936 O1997 1.970 . S
Li1936 O1998 1.961 . S
Li1937 N1961 1.990 . S
Li1937 O1996 1.970 . S
Li1937 O1997 1.956 . S
Li1937 O1999 1.961 . S
Li1938 N1983 1.990 . S
Li1938 O1996 1.961 . S
Li1938 O1998 1.956 . S
Li1938 O1999 1.970 . S
Li1939 N1989 1.990 . S
Li1939 O1997 1.961 . S
Li1939 O1998 1.970 . S
Li1939 O1999 1.956 . S
C1940 C1942 1.348 . S
C1940 C1943 1.356 . S
C1940 O1996 1.325 . S
N1941 C1944 1.314 . S
N1941 C1945 1.279 . S
C1942 C1940 1.348 . S
C1942 C1944 1.353 . S
C1942 H2000 0.929 . S
C1943 C1940 1.356 . S
C1943 C1945 1.358 . S
C1943 H2001 0.930 . S
C1944 N1941 1.314 . S
C1944 C1942 1.353 . S
C1944 H2002 0.930 . S
C1945 N1941 1.279 . S
C1945 C1943 1.358 . S
C1945 H2003 0.930 . S
C1946 C1949 1.348 . S
C1946 C1950 1.356 . S
C1946 O1997 1.325 . S
C1947 N1948 1.279 . S
C1947 C1950 1.358 . S
C1947 H2004 0.930 . S
N1948 C1947 1.279 . S
N1948 C1951 1.314 . S
C1949 C1946 1.348 . S
C1949 C1951 1.353 . S
C1949 H2005 0.929 . S
C1950 C1946 1.356 . S
C1950 C1947 1.358 . S
C1950 H2006 0.930 . S
C1951 N1948 1.314 . S
C1951 C1949 1.353 . S
C1951 H2007 0.930 . S
C1952 N1953 1.314 . S
C1952 C1957 1.353 . S
C1952 H1958 0.930 . S
N1953 Li1936 1.990 . S
N1953 C1952 1.314 . S
N1953 C1955 1.279 . S
C1954 C1955 1.358 . S
C1954 C1956 1.356 . S
C1954 H2008 0.930 . S
C1955 N1953 1.279 . S
C1955 C1954 1.358 . S
C1955 H1959 0.930 . S
C1956 C1954 1.356 . S
C1956 C1957 1.348 . S
C1957 C1952 1.353 . S
C1957 C1956 1.348 . S
C1957 H2009 0.929 . S
H1958 C1952 0.930 . S
H1959 C1955 0.930 . S
C1960 N1961 1.314 . S
C1960 C1962 1.353 . S
C1960 H1966 0.930 . S
N1961 Li1937 1.990 . S
N1961 C1960 1.314 . S
N1961 C1964 1.279 . S
C1962 C1960 1.353 . S
C1962 C1965 1.348 . S
C1962 H2010 0.929 . S
C1963 C1964 1.358 . S
C1963 C1965 1.356 . S
C1963 H2011 0.930 . S
C1964 N1961 1.279 . S
C1964 C1963 1.358 . S
C1964 H1967 0.930 . S
C1965 C1962 1.348 . S
C1965 C1963 1.356 . S
H1966 C1960 0.930 . S
H1967 C1964 0.930 . S
C1968 C1970 1.348 . S
C1968 C1971 1.356 . S
C1968 O1998 1.325 . S
N1969 C1972 1.314 . S
N1969 C1973 1.279 . S
C1970 C1968 1.348 . S
C1970 C1972 1.353 . S
C1970 H2012 0.929 . S
C1971 C1968 1.356 . S
C1971 C1973 1.358 . S
C1971 H2013 0.930 . S
C1972 N1969 1.314 . S
C1972 C1970 1.353 . S
C1972 H2014 0.930 . S
C1973 N1969 1.279 . S
C1973 C1971 1.358 . S
C1973 H2015 0.930 . S
C1974 C1975 1.348 . S
C1974 C1976 1.356 . S
C1974 O1999 1.325 . S
C1975 C1974 1.348 . S
C1975 C1977 1.353 . S
C1975 H2016 0.929 . S
C1976 C1974 1.356 . S
C1976 C1978 1.358 . S
C1976 H2017 0.930 . S
C1977 C1975 1.353 . S
C1977 N1979 1.314 . S
C1977 H2018 0.930 . S
C1978 C1976 1.358 . S
C1978 N1979 1.279 . S
C1978 H2019 0.930 . S
N1979 C1977 1.314 . S
N1979 C1978 1.279 . S
C1980 C1982 1.353 . S
C1980 N1983 1.314 . S
C1980 H1986 0.930 . S
C1981 N1983 1.279 . S
C1981 C1984 1.358 . S
C1981 H1987 0.930 . S
C1982 C1980 1.353 . S
C1982 C1985 1.348 . S
C1982 H2020 0.929 . S
N1983 Li1938 1.990 . S
N1983 C1980 1.314 . S
N1983 C1981 1.279 . S
C1984 C1981 1.358 . S
C1984 C1985 1.356 . S
C1984 H2021 0.930 . S
C1985 C1982 1.348 . S
C1985 C1984 1.356 . S
H1986 C1980 0.930 . S
H1987 C1981 0.930 . S
C1988 N1989 1.314 . S
C1988 C1990 1.353 . S
C1988 H1994 0.930 . S
N1989 Li1939 1.990 . S
N1989 C1988 1.314 . S
N1989 C1992 1.279 . S
C1990 C1988 1.353 . S
C1990 C1993 1.348 . S
C1990 H2022 0.929 . S
C1991 C1992 1.358 . S
C1991 C1993 1.356 . S
C1991 H2023 0.930 . S
C1992 N1989 1.279 . S
C1992 C1991 1.358 . S
C1992 H1995 0.930 . S
C1993 C1990 1.348 . S
C1993 C1991 1.356 . S
H1994 C1988 0.930 . S
H1995 C1992 0.930 . S
O1996 Li1936 1.956 . S
O1996 Li1937 1.970 . S
O1996 Li1938 1.961 . S
O1996 C1940 1.325 . S
O1997 Li1936 1.970 . S
O1997 Li1937 1.956 . S
O1997 Li1939 1.961 . S
O1997 C1946 1.325 . S
O1998 Li1936 1.961 . S
O1998 Li1938 1.956 . S
O1998 Li1939 1.970 . S
O1998 C1968 1.325 . S
O1999 Li1937 1.961 . S
O1999 Li1938 1.970 . S
O1999 Li1939 1.956 . S
O1999 C1974 1.325 . S
H2000 C1942 0.929 . S
H2001 C1943 0.930 . S
H2002 C1944 0.930 . S
H2003 C1945 0.930 . S
H2004 C1947 0.930 . S
H2005 C1949 0.929 . S
H2006 C1950 0.930 . S
H2007 C1951 0.930 . S
H2008 C1954 0.930 . S
H2009 C1957 0.929 . S
H2010 C1962 0.929 . S
H2011 C1963 0.930 . S
H2012 C1970 0.929 . S
H2013 C1971 0.930 . S
H2014 C1972 0.930 . S
H2015 C1973 0.930 . S
H2016 C1975 0.929 . S
H2017 C1976 0.930 . S
H2018 C1977 0.930 . S
H2019 C1978 0.930 . S
H2020 C1982 0.929 . S
H2021 C1984 0.930 . S
H2022 C1990 0.929 . S
H2023 C1991 0.930 . S
Li2024 N2041 1.990 . S
Li2024 O2084 1.956 . S
Li2024 O2085 1.970 . S
Li2024 O2086 1.961 . S
Li2025 N2049 1.990 . S
Li2025 O2084 1.970 . S
Li2025 O2085 1.956 . S
Li2025 O2087 1.961 . S
Li2026 N2071 1.990 . S
Li2026 O2084 1.961 . S
Li2026 O2086 1.956 . S
Li2026 O2087 1.970 . S
Li2027 N2077 1.990 . S
Li2027 O2085 1.961 . S
Li2027 O2086 1.970 . S
Li2027 O2087 1.956 . S
C2028 C2030 1.348 . S
C2028 C2031 1.356 . S
C2028 O2084 1.325 . S
N2029 C2032 1.314 . S
N2029 C2033 1.279 . S
C2030 C2028 1.348 . S
C2030 C2032 1.353 . S
C2030 H2088 0.929 . S
C2031 C2028 1.356 . S
C2031 C2033 1.358 . S
C2031 H2089 0.930 . S
C2032 N2029 1.314 . S
C2032 C2030 1.353 . S
C2032 H2090 0.930 . S
C2033 N2029 1.279 . S
C2033 C2031 1.358 . S
C2033 H2091 0.930 . S
C2034 C2037 1.348 . S
C2034 C2038 1.356 . S
C2034 O2085 1.325 . S
C2035 N2036 1.279 . S
C2035 C2038 1.358 . S
C2035 H2092 0.930 . S
N2036 C2035 1.279 . S
N2036 C2039 1.314 . S
C2037 C2034 1.348 . S
C2037 C2039 1.353 . S
C2037 H2093 0.929 . S
C2038 C2034 1.356 . S
C2038 C2035 1.358 . S
C2038 H2094 0.930 . S
C2039 N2036 1.314 . S
C2039 C2037 1.353 . S
C2039 H2095 0.930 . S
C2040 N2041 1.314 . S
C2040 C2045 1.353 . S
C2040 H2046 0.930 . S
N2041 Li2024 1.990 . S
N2041 C2040 1.314 . S
N2041 C2043 1.279 . S
C2042 C2043 1.358 . S
C2042 C2044 1.356 . S
C2042 H2096 0.930 . S
C2043 N2041 1.279 . S
C2043 C2042 1.358 . S
C2043 H2047 0.930 . S
C2044 C2042 1.356 . S
C2044 C2045 1.348 . S
C2045 C2040 1.353 . S
C2045 C2044 1.348 . S
C2045 H2097 0.929 . S
H2046 C2040 0.930 . S
H2047 C2043 0.930 . S
C2048 N2049 1.314 . S
C2048 C2050 1.353 . S
C2048 H2054 0.930 . S
N2049 Li2025 1.990 . S
N2049 C2048 1.314 . S
N2049 C2052 1.279 . S
C2050 C2048 1.353 . S
C2050 C2053 1.348 . S
C2050 H2098 0.929 . S
C2051 C2052 1.358 . S
C2051 C2053 1.356 . S
C2051 H2099 0.930 . S
C2052 N2049 1.279 . S
C2052 C2051 1.358 . S
C2052 H2055 0.930 . S
C2053 C2050 1.348 . S
C2053 C2051 1.356 . S
H2054 C2048 0.930 . S
H2055 C2052 0.930 . S
C2056 C2058 1.348 . S
C2056 C2059 1.356 . S
C2056 O2086 1.325 . S
N2057 C2060 1.314 . S
N2057 C2061 1.279 . S
C2058 C2056 1.348 . S
C2058 C2060 1.353 . S
C2058 H2100 0.929 . S
C2059 C2056 1.356 . S
C2059 C2061 1.358 . S
C2059 H2101 0.930 . S
C2060 N2057 1.314 . S
C2060 C2058 1.353 . S
C2060 H2102 0.930 . S
C2061 N2057 1.279 . S
C2061 C2059 1.358 . S
C2061 H2103 0.930 . S
C2062 C2063 1.348 . S
C2062 C2064 1.356 . S
C2062 O2087 1.325 . S
C2063 C2062 1.348 . S
C2063 C2065 1.353 . S
C2063 H2104 0.929 . S
C2064 C2062 1.356 . S
C2064 C2066 1.358 . S
C2064 H2105 0.930 . S
C2065 C2063 1.353 . S
C2065 N2067 1.314 . S
C2065 H2106 0.930 . S
C2066 C2064 1.358 . S
C2066 N2067 1.279 . S
C2066 H2107 0.930 . S
N2067 C2065 1.314 . S
N2067 C2066 1.279 . S
C2068 C2070 1.353 . S
C2068 N2071 1.314 . S
C2068 H2074 0.930 . S
C2069 N2071 1.279 . S
C2069 C2072 1.358 . S
C2069 H2075 0.930 . S
C2070 C2068 1.353 . S
C2070 C2073 1.348 . S
C2070 H2108 0.929 . S
N2071 Li2026 1.990 . S
N2071 C2068 1.314 . S
N2071 C2069 1.279 . S
C2072 C2069 1.358 . S
C2072 C2073 1.356 . S
C2072 H2109 0.930 . S
C2073 C2070 1.348 . S
C2073 C2072 1.356 . S
H2074 C2068 0.930 . S
H2075 C2069 0.930 . S
C2076 N2077 1.314 . S
C2076 C2078 1.353 . S
C2076 H2082 0.930 . S
N2077 Li2027 1.990 . S
N2077 C2076 1.314 . S
N2077 C2080 1.279 . S
C2078 C2076 1.353 . S
C2078 C2081 1.348 . S
C2078 H2110 0.929 . S
C2079 C2080 1.358 . S
C2079 C2081 1.356 . S
C2079 H2111 0.930 . S
C2080 N2077 1.279 . S
C2080 C2079 1.358 . S
C2080 H2083 0.930 . S
C2081 C2078 1.348 . S
C2081 C2079 1.356 . S
H2082 C2076 0.930 . S
H2083 C2080 0.930 . S
O2084 Li2024 1.956 . S
O2084 Li2025 1.970 . S
O2084 Li2026 1.961 . S
O2084 C2028 1.325 . S
O2085 Li2024 1.970 . S
O2085 Li2025 1.956 . S
O2085 Li2027 1.961 . S
O2085 C2034 1.325 . S
O2086 Li2024 1.961 . S
O2086 Li2026 1.956 . S
O2086 Li2027 1.970 . S
O2086 C2056 1.325 . S
O2087 Li2025 1.961 . S
O2087 Li2026 1.970 . S
O2087 Li2027 1.956 . S
O2087 C2062 1.325 . S
H2088 C2030 0.929 . S
H2089 C2031 0.930 . S
H2090 C2032 0.930 . S
H2091 C2033 0.930 . S
H2092 C2035 0.930 . S
H2093 C2037 0.929 . S
H2094 C2038 0.930 . S
H2095 C2039 0.930 . S
H2096 C2042 0.930 . S
H2097 C2045 0.929 . S
H2098 C2050 0.929 . S
H2099 C2051 0.930 . S
H2100 C2058 0.929 . S
H2101 C2059 0.930 . S
H2102 C2060 0.930 . S
H2103 C2061 0.930 . S
H2104 C2063 0.929 . S
H2105 C2064 0.930 . S
H2106 C2065 0.930 . S
H2107 C2066 0.930 . S
H2108 C2070 0.929 . S
H2109 C2072 0.930 . S
H2110 C2078 0.929 . S
H2111 C2079 0.930 . S
Tb2112 C2114 2.811 1_455 S
Tb2112 O2132 2.484 1_455 S
Tb2112 O2133 2.440 1_454 S
Tb2112 O2134 2.636 1_554 S
Tb2112 O2135 2.409 1_554 S
Tb2112 O2136 2.378 . S
Tb2112 O2140 2.325 . S
Tb2112 O2143 2.341 1_545 S
Tb2113 C2123 2.809 1_545 S
Tb2113 O2134 2.268 1_554 S
Tb2113 O2137 2.341 . S
Tb2113 O2138 2.484 1_545 S
Tb2113 O2139 2.440 . S
Tb2113 O2140 2.658 . S
Tb2113 O2141 2.409 . S
Tb2113 O2142 2.378 1_545 S
C2114 Tb2112 2.811 1_655 S
C2114 C2115 1.511 1_554 S
C2114 O2132 1.265 . S
C2114 O2133 1.252 1_554 S
C2115 C2114 1.511 1_556 S
C2115 C2116 1.359 1_556 S
C2115 C2120 1.348 . S
C2116 C2115 1.359 1_554 S
C2116 C2117 1.380 . S
C2116 H2144 0.929 . S
C2117 C2116 1.380 . S
C2117 C2118 1.347 1_554 S
C2117 H2145 0.931 . S
C2118 C2117 1.347 1_556 S
C2118 C2119 1.369 . S
C2119 C2118 1.369 . S
C2119 C2120 1.408 . S
C2119 H2146 0.930 . S
C2120 C2115 1.348 . S
C2120 C2119 1.408 . S
C2120 H2147 0.930 . S
C2121 O2134 1.352 . S
C2121 O2135 1.254 . S
C2122 O2136 1.236 . S
C2122 O2137 1.266 . S
C2123 Tb2113 2.809 1_565 S
C2123 C2124 1.514 . S
C2123 O2138 1.248 . S
C2123 O2139 1.266 1_565 S
C2124 C2123 1.514 . S
C2124 C2125 1.359 . S
C2124 C2129 1.348 . S
C2125 C2124 1.359 . S
C2125 C2126 1.380 . S
C2125 H2148 0.929 . S
C2126 C2125 1.380 . S
C2126 C2127 1.347 . S
C2126 H2149 0.931 . S
C2127 C2126 1.347 . S
C2127 C2128 1.369 . S
C2128 C2127 1.369 . S
C2128 C2129 1.408 . S
C2128 H2150 0.930 . S
C2129 C2124 1.348 . S
C2129 C2128 1.408 . S
C2129 H2151 0.930 . S
C2130 O2140 1.281 . S
C2130 O2141 1.254 . S
C2131 O2142 1.236 . S
C2131 O2143 1.266 . S
O2132 Tb2112 2.484 1_655 S
O2132 C2114 1.265 . S
O2133 Tb2112 2.440 1_656 S
O2133 C2114 1.252 1_556 S
O2134 Tb2112 2.636 1_556 S
O2134 Tb2113 2.268 1_556 S
O2134 C2121 1.352 . S
O2135 Tb2112 2.409 1_556 S
O2135 C2121 1.254 . S
O2136 Tb2112 2.378 . S
O2136 C2122 1.236 . S
O2137 Tb2113 2.341 . S
O2137 C2122 1.266 . S
O2138 Tb2113 2.484 1_565 S
O2138 C2123 1.248 . S
O2139 Tb2113 2.440 . S
O2139 C2123 1.266 1_545 S
O2140 Tb2112 2.325 . S
O2140 Tb2113 2.658 . S
O2140 C2130 1.281 . S
O2141 Tb2113 2.409 . S
O2141 C2130 1.254 . S
O2142 Tb2113 2.378 1_565 S
O2142 C2131 1.236 . S
O2143 Tb2112 2.341 1_565 S
O2143 C2131 1.266 . S
H2144 C2116 0.929 . S
H2145 C2117 0.931 . S
H2146 C2119 0.930 . S
H2147 C2120 0.930 . S
H2148 C2125 0.929 . S
H2149 C2126 0.931 . S
H2150 C2128 0.930 . S
H2151 C2129 0.930 . S
Tb2152 C2154 2.809 . S
Tb2152 O2172 2.484 . S
Tb2152 O2173 2.440 . S
Tb2152 O2174 2.658 . S
Tb2152 O2175 2.409 . S
Tb2152 O2176 2.378 . S
Tb2152 O2180 2.325 . S
Tb2152 O2183 2.341 . S
Tb2153 C2163 2.809 . S
Tb2153 O2174 2.325 . S
Tb2153 O2177 2.341 . S
Tb2153 O2178 2.484 . S
Tb2153 O2179 2.440 . S
Tb2153 O2180 2.658 . S
Tb2153 O2181 2.409 . S
Tb2153 O2182 2.378 . S
C2154 Tb2152 2.809 . S
C2154 C2155 1.514 . S
C2154 O2172 1.248 . S
C2154 O2173 1.266 . S
C2155 C2154 1.514 . S
C2155 C2156 1.359 . S
C2155 C2160 1.348 . S
C2156 C2155 1.359 . S
C2156 C2157 1.380 . S
C2156 H2184 0.929 . S
C2157 C2156 1.380 . S
C2157 C2158 1.347 . S
C2157 H2185 0.931 . S
C2158 C2157 1.347 . S
C2158 C2159 1.369 . S
C2159 C2158 1.369 . S
C2159 C2160 1.408 . S
C2159 H2186 0.930 . S
C2160 C2155 1.348 . S
C2160 C2159 1.408 . S
C2160 H2187 0.930 . S
C2161 O2174 1.281 . S
C2161 O2175 1.254 . S
C2162 O2176 1.236 . S
C2162 O2177 1.266 . S
C2163 Tb2153 2.809 . S
C2163 C2164 1.514 . S
C2163 O2178 1.248 . S
C2163 O2179 1.266 . S
C2164 C2163 1.514 . S
C2164 C2165 1.359 . S
C2164 C2169 1.348 . S
C2165 C2164 1.359 . S
C2165 C2166 1.380 . S
C2165 H2188 0.929 . S
C2166 C2165 1.380 . S
C2166 C2167 1.347 . S
C2166 H2189 0.931 . S
C2167 C2166 1.347 . S
C2167 C2168 1.369 . S
C2168 C2167 1.369 . S
C2168 C2169 1.408 . S
C2168 H2190 0.930 . S
C2169 C2164 1.348 . S
C2169 C2168 1.408 . S
C2169 H2191 0.930 . S
C2170 O2180 1.281 . S
C2170 O2181 1.254 . S
C2171 O2182 1.236 . S
C2171 O2183 1.266 . S
O2172 Tb2152 2.484 . S
O2172 C2154 1.248 . S
O2173 Tb2152 2.440 . S
O2173 C2154 1.266 . S
O2174 Tb2152 2.658 . S
O2174 Tb2153 2.325 . S
O2174 C2161 1.281 . S
O2175 Tb2152 2.409 . S
O2175 C2161 1.254 . S
O2176 Tb2152 2.378 . S
O2176 C2162 1.236 . S
O2177 Tb2153 2.341 . S
O2177 C2162 1.266 . S
O2178 Tb2153 2.484 . S
O2178 C2163 1.248 . S
O2179 Tb2153 2.440 . S
O2179 C2163 1.266 . S
O2180 Tb2152 2.325 . S
O2180 Tb2153 2.658 . S
O2180 C2170 1.281 . S
O2181 Tb2153 2.409 . S
O2181 C2170 1.254 . S
O2182 Tb2153 2.378 . S
O2182 C2171 1.236 . S
O2183 Tb2152 2.341 . S
O2183 C2171 1.266 . S
H2184 C2156 0.929 . S
H2185 C2157 0.931 . S
H2186 C2159 0.930 . S
H2187 C2160 0.930 . S
H2188 C2165 0.929 . S
H2189 C2166 0.931 . S
H2190 C2168 0.930 . S
H2191 C2169 0.930 . S
Tb2192 C2194 2.809 1_545 S
Tb2192 O2212 2.484 1_545 S
Tb2192 O2213 2.440 . S
Tb2192 O2214 2.658 . S
Tb2192 O2215 2.409 . S
Tb2192 O2216 2.378 1_545 S
Tb2192 O2220 2.325 . S
Tb2192 O2223 2.341 . S
Tb2193 C2203 2.809 . S
Tb2193 O2214 2.325 . S
Tb2193 O2217 2.341 1_545 S
Tb2193 O2218 2.484 . S
Tb2193 O2219 2.440 . S
Tb2193 O2220 2.658 . S
Tb2193 O2221 2.409 . S
Tb2193 O2222 2.378 . S
C2194 Tb2192 2.809 1_565 S
C2194 C2195 1.514 . S
C2194 O2212 1.248 . S
C2194 O2213 1.266 1_565 S
C2195 C2194 1.514 . S
C2195 C2196 1.359 . S
C2195 C2200 1.348 . S
C2196 C2195 1.359 . S
C2196 C2197 1.380 . S
C2196 H2224 0.929 . S
C2197 C2196 1.380 . S
C2197 C2198 1.347 . S
C2197 H2225 0.931 . S
C2198 C2197 1.347 . S
C2198 C2199 1.369 . S
C2199 C2198 1.369 . S
C2199 C2200 1.408 . S
C2199 H2226 0.930 . S
C2200 C2195 1.348 . S
C2200 C2199 1.408 . S
C2200 H2227 0.930 . S
C2201 O2214 1.281 . S
C2201 O2215 1.254 . S
C2202 O2216 1.236 . S
C2202 O2217 1.266 . S
C2203 Tb2193 2.809 . S
C2203 C2204 1.514 . S
C2203 O2218 1.248 . S
C2203 O2219 1.266 . S
C2204 C2203 1.514 . S
C2204 C2205 1.359 . S
C2204 C2209 1.348 . S
C2205 C2204 1.359 . S
C2205 C2206 1.380 . S
C2205 H2228 0.929 . S
C2206 C2205 1.380 . S
C2206 C2207 1.347 . S
C2206 H2229 0.931 . S
C2207 C2206 1.347 . S
C2207 C2208 1.369 . S
C2208 C2207 1.369 . S
C2208 C2209 1.408 . S
C2208 H2230 0.930 . S
C2209 C2204 1.348 . S
C2209 C2208 1.408 . S
C2209 H2231 0.930 . S
C2210 O2220 1.281 . S
C2210 O2221 1.254 . S
C2211 O2222 1.236 . S
C2211 O2223 1.266 . S
O2212 Tb2192 2.484 1_565 S
O2212 C2194 1.248 . S
O2213 Tb2192 2.440 . S
O2213 C2194 1.266 1_545 S
O2214 Tb2192 2.658 . S
O2214 Tb2193 2.325 . S
O2214 C2201 1.281 . S
O2215 Tb2192 2.409 . S
O2215 C2201 1.254 . S
O2216 Tb2192 2.378 1_565 S
O2216 C2202 1.236 . S
O2217 Tb2193 2.341 1_565 S
O2217 C2202 1.266 . S
O2218 Tb2193 2.484 . S
O2218 C2203 1.248 . S
O2219 Tb2193 2.440 . S
O2219 C2203 1.266 . S
O2220 Tb2192 2.325 . S
O2220 Tb2193 2.658 . S
O2220 C2210 1.281 . S
O2221 Tb2193 2.409 . S
O2221 C2210 1.254 . S
O2222 Tb2193 2.378 . S
O2222 C2211 1.236 . S
O2223 Tb2192 2.341 . S
O2223 C2211 1.266 . S
H2224 C2196 0.929 . S
H2225 C2197 0.931 . S
H2226 C2199 0.930 . S
H2227 C2200 0.930 . S
H2228 C2205 0.929 . S
H2229 C2206 0.931 . S
H2230 C2208 0.930 . S
H2231 C2209 0.930 . S
Tb2232 C2234 2.809 . S
Tb2232 O2252 2.484 . S
Tb2232 O2253 2.440 . S
Tb2232 O2254 2.658 . S
Tb2232 O2255 2.409 . S
Tb2232 O2256 2.378 . S
Tb2232 O2260 2.325 . S
Tb2232 O2263 2.341 . S
Tb2233 C2243 2.809 . S
Tb2233 O2254 2.325 . S
Tb2233 O2257 2.341 . S
Tb2233 O2258 2.484 . S
Tb2233 O2259 2.440 . S
Tb2233 O2260 2.658 . S
Tb2233 O2261 2.409 . S
Tb2233 O2262 2.378 . S
C2234 Tb2232 2.809 . S
C2234 C2235 1.514 . S
C2234 O2252 1.248 . S
C2234 O2253 1.266 . S
C2235 C2234 1.514 . S
C2235 C2236 1.359 . S
C2235 C2240 1.348 . S
C2236 C2235 1.359 . S
C2236 C2237 1.380 . S
C2236 H2264 0.929 . S
C2237 C2236 1.380 . S
C2237 C2238 1.347 . S
C2237 H2265 0.931 . S
C2238 C2237 1.347 . S
C2238 C2239 1.369 . S
C2239 C2238 1.369 . S
C2239 C2240 1.408 . S
C2239 H2266 0.930 . S
C2240 C2235 1.348 . S
C2240 C2239 1.408 . S
C2240 H2267 0.930 . S
C2241 O2254 1.281 . S
C2241 O2255 1.254 . S
C2242 O2256 1.236 . S
C2242 O2257 1.266 . S
C2243 Tb2233 2.809 . S
C2243 C2244 1.514 . S
C2243 O2258 1.248 . S
C2243 O2259 1.266 . S
C2244 C2243 1.514 . S
C2244 C2245 1.359 . S
C2244 C2249 1.348 . S
C2245 C2244 1.359 . S
C2245 C2246 1.380 . S
C2245 H2268 0.929 . S
C2246 C2245 1.380 . S
C2246 C2247 1.347 . S
C2246 H2269 0.931 . S
C2247 C2246 1.347 . S
C2247 C2248 1.369 . S
C2248 C2247 1.369 . S
C2248 C2249 1.408 . S
C2248 H2270 0.930 . S
C2249 C2244 1.348 . S
C2249 C2248 1.408 . S
C2249 H2271 0.930 . S
C2250 O2260 1.281 . S
C2250 O2261 1.254 . S
C2251 O2262 1.236 . S
C2251 O2263 1.266 . S
O2252 Tb2232 2.484 . S
O2252 C2234 1.248 . S
O2253 Tb2232 2.440 . S
O2253 C2234 1.266 . S
O2254 Tb2232 2.658 . S
O2254 Tb2233 2.325 . S
O2254 C2241 1.281 . S
O2255 Tb2232 2.409 . S
O2255 C2241 1.254 . S
O2256 Tb2232 2.378 . S
O2256 C2242 1.236 . S
O2257 Tb2233 2.341 . S
O2257 C2242 1.266 . S
O2258 Tb2233 2.484 . S
O2258 C2243 1.248 . S
O2259 Tb2233 2.440 . S
O2259 C2243 1.266 . S
O2260 Tb2232 2.325 . S
O2260 Tb2233 2.658 . S
O2260 C2250 1.281 . S
O2261 Tb2233 2.409 . S
O2261 C2250 1.254 . S
O2262 Tb2233 2.378 . S
O2262 C2251 1.236 . S
O2263 Tb2232 2.341 . S
O2263 C2251 1.266 . S
H2264 C2236 0.929 . S
H2265 C2237 0.931 . S
H2266 C2239 0.930 . S
H2267 C2240 0.930 . S
H2268 C2245 0.929 . S
H2269 C2246 0.931 . S
H2270 C2248 0.930 . S
H2271 C2249 0.930 . S
Tb2272 C2274 2.809 . S
Tb2272 O2292 2.484 . S
Tb2272 O2293 2.440 . S
Tb2272 O2294 2.658 . S
Tb2272 O2295 2.409 1_455 S
Tb2272 O2296 2.378 . S
Tb2272 O2300 2.325 . S
Tb2272 O2303 2.341 . S
Tb2273 C2283 2.809 . S
Tb2273 O2294 2.325 1_565 S
Tb2273 O2297 2.354 . S
Tb2273 O2298 2.484 . S
Tb2273 O2299 2.440 . S
Tb2273 O2300 2.658 1_565 S
Tb2273 O2301 2.409 1_565 S
Tb2273 O2302 2.378 1_565 S
C2274 Tb2272 2.809 . S
C2274 C2275 1.514 . S
C2274 O2292 1.248 . S
C2274 O2293 1.266 . S
C2275 C2274 1.514 . S
C2275 C2276 1.359 . S
C2275 C2280 1.348 1_455 S
C2276 C2275 1.359 . S
C2276 C2277 1.380 . S
C2276 H2304 0.929 . S
C2277 C2276 1.380 . S
C2277 C2278 1.347 . S
C2277 H2305 0.931 . S
C2278 C2277 1.347 . S
C2278 C2279 1.369 1_455 S
C2279 C2278 1.369 1_655 S
C2279 C2280 1.408 . S
C2279 H2306 0.930 . S
C2280 C2275 1.348 1_655 S
C2280 C2279 1.408 . S
C2280 H2307 0.930 . S
C2281 O2294 1.281 1_655 S
C2281 O2295 1.254 . S
C2282 O2296 1.236 . S
C2282 O2297 1.243 1_545 S
C2283 Tb2273 2.809 . S
C2283 C2284 1.514 . S
C2283 O2298 1.248 . S
C2283 O2299 1.266 . S
C2284 C2283 1.514 . S
C2284 C2285 1.359 . S
C2284 C2289 1.348 . S
C2285 C2284 1.359 . S
C2285 C2286 1.380 . S
C2285 H2308 0.929 . S
C2286 C2285 1.380 . S
C2286 C2287 1.347 . S
C2286 H2309 0.931 . S
C2287 C2286 1.347 . S
C2287 C2288 1.369 . S
C2288 C2287 1.369 . S
C2288 C2289 1.408 . S
C2288 H2310 0.930 . S
C2289 C2284 1.348 . S
C2289 C2288 1.408 . S
C2289 H2311 0.930 . S
C2290 O2300 1.281 . S
C2290 O2301 1.254 . S
C2291 O2302 1.236 . S
C2291 O2303 1.266 . S
O2292 Tb2272 2.484 . S
O2292 C2274 1.248 . S
O2293 Tb2272 2.440 . S
O2293 C2274 1.266 . S
O2294 Tb2272 2.658 . S
O2294 Tb2273 2.325 1_545 S
O2294 C2281 1.281 1_455 S
O2295 Tb2272 2.409 1_655 S
O2295 C2281 1.254 . S
O2296 Tb2272 2.378 . S
O2296 C2282 1.236 . S
O2297 Tb2273 2.354 . S
O2297 C2282 1.243 1_565 S
O2298 Tb2273 2.484 . S
O2298 C2283 1.248 . S
O2299 Tb2273 2.440 . S
O2299 C2283 1.266 . S
O2300 Tb2272 2.325 . S
O2300 Tb2273 2.658 1_545 S
O2300 C2290 1.281 . S
O2301 Tb2273 2.409 1_545 S
O2301 C2290 1.254 . S
O2302 Tb2273 2.378 1_545 S
O2302 C2291 1.236 . S
O2303 Tb2272 2.341 . S
O2303 C2291 1.266 . S
H2304 C2276 0.929 . S
H2305 C2277 0.931 . S
H2306 C2279 0.930 . S
H2307 C2280 0.930 . S
H2308 C2285 0.929 . S
H2309 C2286 0.931 . S
H2310 C2288 0.930 . S
H2311 C2289 0.930 . S
Tb2312 C2314 2.809 . S
Tb2312 O2332 2.484 . S
Tb2312 O2333 2.440 . S
Tb2312 O2334 2.658 . S
Tb2312 O2335 2.409 . S
Tb2312 O2336 2.378 . S
Tb2312 O2340 2.325 . S
Tb2312 O2343 2.341 . S
Tb2313 C2323 2.809 . S
Tb2313 O2334 2.325 . S
Tb2313 O2337 2.341 . S
Tb2313 O2338 2.484 . S
Tb2313 O2339 2.440 . S
Tb2313 O2340 2.658 . S
Tb2313 O2341 2.409 . S
Tb2313 O2342 2.378 . S
C2314 Tb2312 2.809 . S
C2314 C2315 1.514 . S
C2314 O2332 1.248 . S
C2314 O2333 1.266 . S
C2315 C2314 1.514 . S
C2315 C2316 1.359 . S
C2315 C2320 1.348 . S
C2316 C2315 1.359 . S
C2316 C2317 1.380 . S
C2316 H2344 0.929 . S
C2317 C2316 1.380 . S
C2317 C2318 1.347 . S
C2317 H2345 0.931 . S
C2318 C2317 1.347 . S
C2318 C2319 1.369 . S
C2319 C2318 1.369 . S
C2319 C2320 1.408 . S
C2319 H2346 0.930 . S
C2320 C2315 1.348 . S
C2320 C2319 1.408 . S
C2320 H2347 0.930 . S
C2321 O2334 1.281 . S
C2321 O2335 1.254 . S
C2322 O2336 1.236 . S
C2322 O2337 1.266 . S
C2323 Tb2313 2.809 . S
C2323 C2324 1.514 . S
C2323 O2338 1.248 . S
C2323 O2339 1.266 . S
C2324 C2323 1.514 . S
C2324 C2325 1.359 . S
C2324 C2329 1.348 . S
C2325 C2324 1.359 . S
C2325 C2326 1.380 . S
C2325 H2348 0.929 . S
C2326 C2325 1.380 . S
C2326 C2327 1.347 . S
C2326 H2349 0.931 . S
C2327 C2326 1.347 . S
C2327 C2328 1.369 . S
C2328 C2327 1.369 . S
C2328 C2329 1.408 . S
C2328 H2350 0.930 . S
C2329 C2324 1.348 . S
C2329 C2328 1.408 . S
C2329 H2351 0.930 . S
C2330 O2340 1.281 . S
C2330 O2341 1.254 . S
C2331 O2342 1.236 . S
C2331 O2343 1.266 . S
O2332 Tb2312 2.484 . S
O2332 C2314 1.248 . S
O2333 Tb2312 2.440 . S
O2333 C2314 1.266 . S
O2334 Tb2312 2.658 . S
O2334 Tb2313 2.325 . S
O2334 C2321 1.281 . S
O2335 Tb2312 2.409 . S
O2335 C2321 1.254 . S
O2336 Tb2312 2.378 . S
O2336 C2322 1.236 . S
O2337 Tb2313 2.341 . S
O2337 C2322 1.266 . S
O2338 Tb2313 2.484 . S
O2338 C2323 1.248 . S
O2339 Tb2313 2.440 . S
O2339 C2323 1.266 . S
O2340 Tb2312 2.325 . S
O2340 Tb2313 2.658 . S
O2340 C2330 1.281 . S
O2341 Tb2313 2.409 . S
O2341 C2330 1.254 . S
O2342 Tb2313 2.378 . S
O2342 C2331 1.236 . S
O2343 Tb2312 2.341 . S
O2343 C2331 1.266 . S
H2344 C2316 0.929 . S
H2345 C2317 0.931 . S
H2346 C2319 0.930 . S
H2347 C2320 0.930 . S
H2348 C2325 0.929 . S
H2349 C2326 0.931 . S
H2350 C2328 0.930 . S
H2351 C2329 0.930 . S
Tb2352 C2354 2.809 1_545 S
Tb2352 O2372 2.484 1_545 S
Tb2352 O2373 2.440 . S
Tb2352 O2374 2.658 . S
Tb2352 O2375 2.409 . S
Tb2352 O2376 2.378 . S
Tb2352 O2380 2.325 1_545 S
Tb2352 O2383 2.341 1_554 S
Tb2353 C2363 2.809 . S
Tb2353 O2374 2.325 . S
Tb2353 O2377 2.341 . S
Tb2353 O2378 2.484 . S
Tb2353 O2379 2.440 . S
Tb2353 O2380 2.658 1_545 S
Tb2353 O2381 2.409 1_545 S
Tb2353 O2382 2.339 1_554 S
C2354 Tb2352 2.809 1_565 S
C2354 C2355 1.514 . S
C2354 O2372 1.248 . S
C2354 O2373 1.266 1_565 S
C2355 C2354 1.514 . S
C2355 C2356 1.359 . S
C2355 C2360 1.348 1_565 S
C2356 C2355 1.359 . S
C2356 C2357 1.380 . S
C2356 H2384 0.929 . S
C2357 C2356 1.380 . S
C2357 C2358 1.347 . S
C2357 H2385 0.931 . S
C2358 C2357 1.347 . S
C2358 C2359 1.369 . S
C2359 C2358 1.369 . S
C2359 C2360 1.408 1_565 S
C2359 H2386 0.930 1_565 S
C2360 C2355 1.348 1_545 S
C2360 C2359 1.408 1_545 S
C2360 H2387 0.930 . S
C2361 O2374 1.281 . S
C2361 O2375 1.254 . S
C2362 O2376 1.236 . S
C2362 O2377 1.266 . S
C2363 Tb2353 2.809 . S
C2363 C2364 1.514 . S
C2363 O2378 1.248 . S
C2363 O2379 1.266 . S
C2364 C2363 1.514 . S
C2364 C2365 1.359 . S
C2364 C2369 1.348 . S
C2365 C2364 1.359 . S
C2365 C2366 1.380 . S
C2365 H2388 0.929 . S
C2366 C2365 1.380 . S
C2366 C2367 1.347 . S
C2366 H2389 0.931 . S
C2367 C2366 1.347 . S
C2367 C2368 1.369 . S
C2368 C2367 1.369 . S
C2368 C2369 1.408 . S
C2368 H2390 0.930 . S
C2369 C2364 1.348 . S
C2369 C2368 1.408 . S
C2369 H2391 0.930 . S
C2370 O2380 1.281 . S
C2370 O2381 1.254 . S
C2371 O2382 1.264 . S
C2371 O2383 1.266 . S
O2372 Tb2352 2.484 1_565 S
O2372 C2354 1.248 . S
O2373 Tb2352 2.440 . S
O2373 C2354 1.266 1_545 S
O2374 Tb2352 2.658 . S
O2374 Tb2353 2.325 . S
O2374 C2361 1.281 . S
O2375 Tb2352 2.409 . S
O2375 C2361 1.254 . S
O2376 Tb2352 2.378 . S
O2376 C2362 1.236 . S
O2377 Tb2353 2.341 . S
O2377 C2362 1.266 . S
O2378 Tb2353 2.484 . S
O2378 C2363 1.248 . S
O2379 Tb2353 2.440 . S
O2379 C2363 1.266 . S
O2380 Tb2352 2.325 1_565 S
O2380 Tb2353 2.658 1_565 S
O2380 C2370 1.281 . S
O2381 Tb2353 2.409 1_565 S
O2381 C2370 1.254 . S
O2382 Tb2353 2.339 1_556 S
O2382 C2371 1.264 . S
O2383 Tb2352 2.341 1_556 S
O2383 C2371 1.266 . S
H2384 C2356 0.929 . S
H2385 C2357 0.931 . S
H2386 C2359 0.930 1_545 S
H2387 C2360 0.930 . S
H2388 C2365 0.929 . S
H2389 C2366 0.931 . S
H2390 C2368 0.930 . S
H2391 C2369 0.930 . S
Tb2392 C2394 2.809 . S
Tb2392 O2412 2.484 . S
Tb2392 O2413 2.440 . S
Tb2392 O2414 2.658 . S
Tb2392 O2415 2.409 . S
Tb2392 O2416 2.378 . S
Tb2392 O2420 2.325 . S
Tb2392 O2423 2.341 . S
Tb2393 C2403 2.809 . S
Tb2393 O2414 2.325 . S
Tb2393 O2417 2.341 . S
Tb2393 O2418 2.484 . S
Tb2393 O2419 2.440 . S
Tb2393 O2420 2.658 . S
Tb2393 O2421 2.409 . S
Tb2393 O2422 2.378 . S
C2394 Tb2392 2.809 . S
C2394 C2395 1.514 . S
C2394 O2412 1.248 . S
C2394 O2413 1.266 . S
C2395 C2394 1.514 . S
C2395 C2396 1.359 . S
C2395 C2400 1.348 . S
C2396 C2395 1.359 . S
C2396 C2397 1.380 . S
C2396 H2424 0.929 . S
C2397 C2396 1.380 . S
C2397 C2398 1.347 . S
C2397 H2425 0.931 . S
C2398 C2397 1.347 . S
C2398 C2399 1.369 . S
C2399 C2398 1.369 . S
C2399 C2400 1.408 . S
C2399 H2426 0.930 . S
C2400 C2395 1.348 . S
C2400 C2399 1.408 . S
C2400 H2427 0.930 . S
C2401 O2414 1.281 . S
C2401 O2415 1.254 . S
C2402 O2416 1.236 . S
C2402 O2417 1.266 . S
C2403 Tb2393 2.809 . S
C2403 C2404 1.514 . S
C2403 O2418 1.248 . S
C2403 O2419 1.266 . S
C2404 C2403 1.514 . S
C2404 C2405 1.359 . S
C2404 C2409 1.348 . S
C2405 C2404 1.359 . S
C2405 C2406 1.380 . S
C2405 H2428 0.929 . S
C2406 C2405 1.380 . S
C2406 C2407 1.347 . S
C2406 H2429 0.931 . S
C2407 C2406 1.347 . S
C2407 C2408 1.369 . S
C2408 C2407 1.369 . S
C2408 C2409 1.408 . S
C2408 H2430 0.930 . S
C2409 C2404 1.348 . S
C2409 C2408 1.408 . S
C2409 H2431 0.930 . S
C2410 O2420 1.281 . S
C2410 O2421 1.254 . S
C2411 O2422 1.236 . S
C2411 O2423 1.266 . S
O2412 Tb2392 2.484 . S
O2412 C2394 1.248 . S
O2413 Tb2392 2.440 . S
O2413 C2394 1.266 . S
O2414 Tb2392 2.658 . S
O2414 Tb2393 2.325 . S
O2414 C2401 1.281 . S
O2415 Tb2392 2.409 . S
O2415 C2401 1.254 . S
O2416 Tb2392 2.378 . S
O2416 C2402 1.236 . S
O2417 Tb2393 2.341 . S
O2417 C2402 1.266 . S
O2418 Tb2393 2.484 . S
O2418 C2403 1.248 . S
O2419 Tb2393 2.440 . S
O2419 C2403 1.266 . S
O2420 Tb2392 2.325 . S
O2420 Tb2393 2.658 . S
O2420 C2410 1.281 . S
O2421 Tb2393 2.409 . S
O2421 C2410 1.254 . S
O2422 Tb2393 2.378 . S
O2422 C2411 1.236 . S
O2423 Tb2392 2.341 . S
O2423 C2411 1.266 . S
H2424 C2396 0.929 . S
H2425 C2397 0.931 . S
H2426 C2399 0.930 . S
H2427 C2400 0.930 . S
H2428 C2405 0.929 . S
H2429 C2406 0.931 . S
H2430 C2408 0.930 . S
H2431 C2409 0.930 . S
Tb2432 C2434 2.806 1_554 S
Tb2432 O2452 2.501 . S
Tb2432 O2453 2.440 . S
Tb2432 O2454 2.658 . S
Tb2432 O2455 2.409 . S
Tb2432 O2456 2.378 1_554 S
Tb2432 O2460 2.325 . S
Tb2432 O2463 2.341 . S
Tb2433 C2443 2.809 . S
Tb2433 O2454 2.325 . S
Tb2433 O2457 2.341 1_554 S
Tb2433 O2458 2.484 . S
Tb2433 O2459 2.440 . S
Tb2433 O2460 2.658 . S
Tb2433 O2461 2.409 . S
Tb2433 O2462 2.378 . S
C2434 Tb2432 2.806 1_556 S
C2434 C2435 1.516 . S
C2434 O2452 1.250 1_556 S
C2434 O2453 1.263 1_556 S
C2435 C2434 1.516 . S
C2435 C2436 1.359 . S
C2435 C2440 1.348 . S
C2436 C2435 1.359 . S
C2436 C2437 1.380 . S
C2436 H2464 0.929 . S
C2437 C2436 1.380 . S
C2437 C2438 1.347 . S
C2437 H2465 0.931 . S
C2438 C2437 1.347 . S
C2438 C2439 1.369 . S
C2439 C2438 1.369 . S
C2439 C2440 1.408 . S
C2439 H2466 0.930 . S
C2440 C2435 1.348 . S
C2440 C2439 1.408 . S
C2440 H2467 0.930 . S
C2441 O2454 1.281 . S
C2441 O2455 1.254 . S
C2442 O2456 1.236 . S
C2442 O2457 1.266 . S
C2443 Tb2433 2.809 . S
C2443 C2444 1.514 . S
C2443 O2458 1.248 . S
C2443 O2459 1.266 . S
C2444 C2443 1.514 . S
C2444 C2445 1.359 . S
C2444 C2449 1.348 . S
C2445 C2444 1.359 . S
C2445 C2446 1.380 . S
C2445 H2468 0.929 . S
C2446 C2445 1.380 . S
C2446 C2447 1.347 . S
C2446 H2469 0.931 . S
C2447 C2446 1.347 . S
C2447 C2448 1.369 . S
C2448 C2447 1.369 . S
C2448 C2449 1.408 . S
C2448 H2470 0.930 . S
C2449 C2444 1.348 . S
C2449 C2448 1.408 . S
C2449 H2471 0.930 . S
C2450 O2460 1.281 . S
C2450 O2461 1.254 . S
C2451 O2462 1.236 . S
C2451 O2463 1.266 . S
O2452 Tb2432 2.501 . S
O2452 C2434 1.250 1_554 S
O2453 Tb2432 2.440 . S
O2453 C2434 1.263 1_554 S
O2454 Tb2432 2.658 . S
O2454 Tb2433 2.325 . S
O2454 C2441 1.281 . S
O2455 Tb2432 2.409 . S
O2455 C2441 1.254 . S
O2456 Tb2432 2.378 1_556 S
O2456 C2442 1.236 . S
O2457 Tb2433 2.341 1_556 S
O2457 C2442 1.266 . S
O2458 Tb2433 2.484 . S
O2458 C2443 1.248 . S
O2459 Tb2433 2.440 . S
O2459 C2443 1.266 . S
O2460 Tb2432 2.325 . S
O2460 Tb2433 2.658 . S
O2460 C2450 1.281 . S
O2461 Tb2433 2.409 . S
O2461 C2450 1.254 . S
O2462 Tb2433 2.378 . S
O2462 C2451 1.236 . S
O2463 Tb2432 2.341 . S
O2463 C2451 1.266 . S
H2464 C2436 0.929 . S
H2465 C2437 0.931 . S
H2466 C2439 0.930 . S
H2467 C2440 0.930 . S
H2468 C2445 0.929 . S
H2469 C2446 0.931 . S
H2470 C2448 0.930 . S
H2471 C2449 0.930 . S
Tb2472 C2474 2.809 . S
Tb2472 O2492 2.484 . S
Tb2472 O2493 2.440 . S
Tb2472 O2494 2.658 . S
Tb2472 O2495 2.409 . S
Tb2472 O2496 2.378 . S
Tb2472 O2500 2.325 . S
Tb2472 O2503 2.341 . S
Tb2473 C2483 2.809 . S
Tb2473 O2494 2.325 . S
Tb2473 O2497 2.341 . S
Tb2473 O2498 2.484 . S
Tb2473 O2499 2.440 . S
Tb2473 O2500 2.658 . S
Tb2473 O2501 2.409 . S
Tb2473 O2502 2.378 . S
C2474 Tb2472 2.809 . S
C2474 C2475 1.514 . S
C2474 O2492 1.248 . S
C2474 O2493 1.266 . S
C2475 C2474 1.514 . S
C2475 C2476 1.359 . S
C2475 C2480 1.348 . S
C2476 C2475 1.359 . S
C2476 C2477 1.380 . S
C2476 H2504 0.929 . S
C2477 C2476 1.380 . S
C2477 C2478 1.347 . S
C2477 H2505 0.931 . S
C2478 C2477 1.347 . S
C2478 C2479 1.369 . S
C2479 C2478 1.369 . S
C2479 C2480 1.408 . S
C2479 H2506 0.930 . S
C2480 C2475 1.348 . S
C2480 C2479 1.408 . S
C2480 H2507 0.930 . S
C2481 O2494 1.281 . S
C2481 O2495 1.254 . S
C2482 O2496 1.236 . S
C2482 O2497 1.266 . S
C2483 Tb2473 2.809 . S
C2483 C2484 1.514 . S
C2483 O2498 1.248 . S
C2483 O2499 1.266 . S
C2484 C2483 1.514 . S
C2484 C2485 1.359 . S
C2484 C2489 1.348 . S
C2485 C2484 1.359 . S
C2485 C2486 1.380 . S
C2485 H2508 0.929 . S
C2486 C2485 1.380 . S
C2486 C2487 1.347 . S
C2486 H2509 0.931 . S
C2487 C2486 1.347 . S
C2487 C2488 1.369 . S
C2488 C2487 1.369 . S
C2488 C2489 1.408 . S
C2488 H2510 0.930 . S
C2489 C2484 1.348 . S
C2489 C2488 1.408 . S
C2489 H2511 0.930 . S
C2490 O2500 1.281 . S
C2490 O2501 1.254 . S
C2491 O2502 1.236 . S
C2491 O2503 1.266 . S
O2492 Tb2472 2.484 . S
O2492 C2474 1.248 . S
O2493 Tb2472 2.440 . S
O2493 C2474 1.266 . S
O2494 Tb2472 2.658 . S
O2494 Tb2473 2.325 . S
O2494 C2481 1.281 . S
O2495 Tb2472 2.409 . S
O2495 C2481 1.254 . S
O2496 Tb2472 2.378 . S
O2496 C2482 1.236 . S
O2497 Tb2473 2.341 . S
O2497 C2482 1.266 . S
O2498 Tb2473 2.484 . S
O2498 C2483 1.248 . S
O2499 Tb2473 2.440 . S
O2499 C2483 1.266 . S
O2500 Tb2472 2.325 . S
O2500 Tb2473 2.658 . S
O2500 C2490 1.281 . S
O2501 Tb2473 2.409 . S
O2501 C2490 1.254 . S
O2502 Tb2473 2.378 . S
O2502 C2491 1.236 . S
O2503 Tb2472 2.341 . S
O2503 C2491 1.266 . S
H2504 C2476 0.929 . S
H2505 C2477 0.931 . S
H2506 C2479 0.930 . S
H2507 C2480 0.930 . S
H2508 C2485 0.929 . S
H2509 C2486 0.931 . S
H2510 C2488 0.930 . S
H2511 C2489 0.930 . S
Tb2512 C2514 2.809 1_455 S
Tb2512 O2532 2.484 1_455 S
Tb2512 O2533 2.440 1_455 S
Tb2512 O2534 2.658 . S
Tb2512 O2535 2.409 . S
Tb2512 O2536 2.378 . S
Tb2512 O2540 2.325 . S
Tb2512 O2543 2.341 . S
Tb2513 C2523 2.809 . S
Tb2513 O2534 2.325 . S
Tb2513 O2537 2.341 . S
Tb2513 O2538 2.484 . S
Tb2513 O2539 2.440 . S
Tb2513 O2540 2.658 . S
Tb2513 O2541 2.409 . S
Tb2513 O2542 2.378 . S
C2514 Tb2512 2.809 1_655 S
C2514 C2515 1.514 . S
C2514 O2532 1.248 . S
C2514 O2533 1.266 . S
C2515 C2514 1.514 . S
C2515 C2516 1.359 . S
C2515 C2520 1.348 . S
C2516 C2515 1.359 . S
C2516 C2517 1.380 . S
C2516 H2544 0.929 . S
C2517 C2516 1.380 . S
C2517 C2518 1.347 . S
C2517 H2545 0.931 . S
C2518 C2517 1.347 . S
C2518 C2519 1.369 . S
C2519 C2518 1.369 . S
C2519 C2520 1.408 . S
C2519 H2546 0.930 . S
C2520 C2515 1.348 . S
C2520 C2519 1.408 . S
C2520 H2547 0.930 . S
C2521 O2534 1.281 . S
C2521 O2535 1.254 . S
C2522 O2536 1.236 . S
C2522 O2537 1.266 . S
C2523 Tb2513 2.809 . S
C2523 C2524 1.514 . S
C2523 O2538 1.248 . S
C2523 O2539 1.266 . S
C2524 C2523 1.514 . S
C2524 C2525 1.359 . S
C2524 C2529 1.348 . S
C2525 C2524 1.359 . S
C2525 C2526 1.380 . S
C2525 H2548 0.929 . S
C2526 C2525 1.380 . S
C2526 C2527 1.347 . S
C2526 H2549 0.931 . S
C2527 C2526 1.347 . S
C2527 C2528 1.369 . S
C2528 C2527 1.369 . S
C2528 C2529 1.408 . S
C2528 H2550 0.930 . S
C2529 C2524 1.348 . S
C2529 C2528 1.408 . S
C2529 H2551 0.930 . S
C2530 O2540 1.281 . S
C2530 O2541 1.254 . S
C2531 O2542 1.236 . S
C2531 O2543 1.266 . S
O2532 Tb2512 2.484 1_655 S
O2532 C2514 1.248 . S
O2533 Tb2512 2.440 1_655 S
O2533 C2514 1.266 . S
O2534 Tb2512 2.658 . S
O2534 Tb2513 2.325 . S
O2534 C2521 1.281 . S
O2535 Tb2512 2.409 . S
O2535 C2521 1.254 . S
O2536 Tb2512 2.378 . S
O2536 C2522 1.236 . S
O2537 Tb2513 2.341 . S
O2537 C2522 1.266 . S
O2538 Tb2513 2.484 . S
O2538 C2523 1.248 . S
O2539 Tb2513 2.440 . S
O2539 C2523 1.266 . S
O2540 Tb2512 2.325 . S
O2540 Tb2513 2.658 . S
O2540 C2530 1.281 . S
O2541 Tb2513 2.409 . S
O2541 C2530 1.254 . S
O2542 Tb2513 2.378 . S
O2542 C2531 1.236 . S
O2543 Tb2512 2.341 . S
O2543 C2531 1.266 . S
H2544 C2516 0.929 . S
H2545 C2517 0.931 . S
H2546 C2519 0.930 . S
H2547 C2520 0.930 . S
H2548 C2525 0.929 . S
H2549 C2526 0.931 . S
H2550 C2528 0.930 . S
H2551 C2529 0.930 . S
Tb2552 C2554 2.809 . S
Tb2552 O2572 2.484 . S
Tb2552 O2573 2.440 . S
Tb2552 O2574 2.658 . S
Tb2552 O2575 2.409 . S
Tb2552 O2576 2.378 . S
Tb2552 O2580 2.325 . S
Tb2552 O2583 2.341 . S
Tb2553 C2563 2.809 . S
Tb2553 O2574 2.325 . S
Tb2553 O2577 2.341 . S
Tb2553 O2578 2.484 . S
Tb2553 O2579 2.440 . S
Tb2553 O2580 2.658 . S
Tb2553 O2581 2.409 . S
Tb2553 O2582 2.378 . S
C2554 Tb2552 2.809 . S
C2554 C2555 1.514 . S
C2554 O2572 1.248 . S
C2554 O2573 1.266 . S
C2555 C2554 1.514 . S
C2555 C2556 1.359 . S
C2555 C2560 1.348 . S
C2556 C2555 1.359 . S
C2556 C2557 1.380 . S
C2556 H2584 0.929 . S
C2557 C2556 1.380 . S
C2557 C2558 1.347 . S
C2557 H2585 0.931 . S
C2558 C2557 1.347 . S
C2558 C2559 1.369 . S
C2559 C2558 1.369 . S
C2559 C2560 1.408 . S
C2559 H2586 0.930 . S
C2560 C2555 1.348 . S
C2560 C2559 1.408 . S
C2560 H2587 0.930 . S
C2561 O2574 1.281 . S
C2561 O2575 1.254 . S
C2562 O2576 1.236 . S
C2562 O2577 1.266 . S
C2563 Tb2553 2.809 . S
C2563 C2564 1.514 . S
C2563 O2578 1.248 . S
C2563 O2579 1.266 . S
C2564 C2563 1.514 . S
C2564 C2565 1.359 . S
C2564 C2569 1.348 . S
C2565 C2564 1.359 . S
C2565 C2566 1.380 . S
C2565 H2588 0.929 . S
C2566 C2565 1.380 . S
C2566 C2567 1.347 . S
C2566 H2589 0.931 . S
C2567 C2566 1.347 . S
C2567 C2568 1.369 . S
C2568 C2567 1.369 . S
C2568 C2569 1.408 . S
C2568 H2590 0.930 . S
C2569 C2564 1.348 . S
C2569 C2568 1.408 . S
C2569 H2591 0.930 . S
C2570 O2580 1.281 . S
C2570 O2581 1.254 . S
C2571 O2582 1.236 . S
C2571 O2583 1.266 . S
O2572 Tb2552 2.484 . S
O2572 C2554 1.248 . S
O2573 Tb2552 2.440 . S
O2573 C2554 1.266 . S
O2574 Tb2552 2.658 . S
O2574 Tb2553 2.325 . S
O2574 C2561 1.281 . S
O2575 Tb2552 2.409 . S
O2575 C2561 1.254 . S
O2576 Tb2552 2.378 . S
O2576 C2562 1.236 . S
O2577 Tb2553 2.341 . S
O2577 C2562 1.266 . S
O2578 Tb2553 2.484 . S
O2578 C2563 1.248 . S
O2579 Tb2553 2.440 . S
O2579 C2563 1.266 . S
O2580 Tb2552 2.325 . S
O2580 Tb2553 2.658 . S
O2580 C2570 1.281 . S
O2581 Tb2553 2.409 . S
O2581 C2570 1.254 . S
O2582 Tb2553 2.378 . S
O2582 C2571 1.236 . S
O2583 Tb2552 2.341 . S
O2583 C2571 1.266 . S
H2584 C2556 0.929 . S
H2585 C2557 0.931 . S
H2586 C2559 0.930 . S
H2587 C2560 0.930 . S
H2588 C2565 0.929 . S
H2589 C2566 0.931 . S
H2590 C2568 0.930 . S
H2591 C2569 0.930 . S
Tb2592 C2594 2.809 . S
Tb2592 O2612 2.484 . S
Tb2592 O2613 2.440 . S
Tb2592 O2614 2.658 . S
Tb2592 O2615 2.409 . S
Tb2592 O2616 2.378 . S
Tb2592 O2620 2.325 . S
Tb2592 O2623 2.341 . S
Tb2593 C2603 2.809 . S
Tb2593 O2614 2.325 . S
Tb2593 O2617 2.341 . S
Tb2593 O2618 2.484 . S
Tb2593 O2619 2.440 . S
Tb2593 O2620 2.658 . S
Tb2593 O2621 2.409 . S
Tb2593 O2622 2.378 . S
C2594 Tb2592 2.809 . S
C2594 C2595 1.514 . S
C2594 O2612 1.248 . S
C2594 O2613 1.266 . S
C2595 C2594 1.514 . S
C2595 C2596 1.359 . S
C2595 C2600 1.348 . S
C2596 C2595 1.359 . S
C2596 C2597 1.380 . S
C2596 H2624 0.929 . S
C2597 C2596 1.380 . S
C2597 C2598 1.347 . S
C2597 H2625 0.931 . S
C2598 C2597 1.347 . S
C2598 C2599 1.369 . S
C2599 C2598 1.369 . S
C2599 C2600 1.408 . S
C2599 H2626 0.930 . S
C2600 C2595 1.348 . S
C2600 C2599 1.408 . S
C2600 H2627 0.930 . S
C2601 O2614 1.281 . S
C2601 O2615 1.254 . S
C2602 O2616 1.236 . S
C2602 O2617 1.266 . S
C2603 Tb2593 2.809 . S
C2603 C2604 1.514 . S
C2603 O2618 1.248 . S
C2603 O2619 1.266 . S
C2604 C2603 1.514 . S
C2604 C2605 1.359 . S
C2604 C2609 1.348 . S
C2605 C2604 1.359 . S
C2605 C2606 1.380 . S
C2605 H2628 0.929 . S
C2606 C2605 1.380 . S
C2606 C2607 1.347 . S
C2606 H2629 0.931 . S
C2607 C2606 1.347 . S
C2607 C2608 1.369 . S
C2608 C2607 1.369 . S
C2608 C2609 1.408 . S
C2608 H2630 0.930 . S
C2609 C2604 1.348 . S
C2609 C2608 1.408 . S
C2609 H2631 0.930 . S
C2610 O2620 1.281 . S
C2610 O2621 1.254 . S
C2611 O2622 1.236 . S
C2611 O2623 1.266 . S
O2612 Tb2592 2.484 . S
O2612 C2594 1.248 . S
O2613 Tb2592 2.440 . S
O2613 C2594 1.266 . S
O2614 Tb2592 2.658 . S
O2614 Tb2593 2.325 . S
O2614 C2601 1.281 . S
O2615 Tb2592 2.409 . S
O2615 C2601 1.254 . S
O2616 Tb2592 2.378 . S
O2616 C2602 1.236 . S
O2617 Tb2593 2.341 . S
O2617 C2602 1.266 . S
O2618 Tb2593 2.484 . S
O2618 C2603 1.248 . S
O2619 Tb2593 2.440 . S
O2619 C2603 1.266 . S
O2620 Tb2592 2.325 . S
O2620 Tb2593 2.658 . S
O2620 C2610 1.281 . S
O2621 Tb2593 2.409 . S
O2621 C2610 1.254 . S
O2622 Tb2593 2.378 . S
O2622 C2611 1.236 . S
O2623 Tb2592 2.341 . S
O2623 C2611 1.266 . S
H2624 C2596 0.929 . S
H2625 C2597 0.931 . S
H2626 C2599 0.930 . S
H2627 C2600 0.930 . S
H2628 C2605 0.929 . S
H2629 C2606 0.931 . S
H2630 C2608 0.930 . S
H2631 C2609 0.930 . S
Tb2632 C2634 2.809 . S
Tb2632 O2652 2.484 . S
Tb2632 O2653 2.440 . S
Tb2632 O2654 2.658 . S
Tb2632 O2655 2.409 . S
Tb2632 O2656 2.378 . S
Tb2632 O2660 2.325 . S
Tb2632 O2663 2.341 . S
Tb2633 C2643 2.809 . S
Tb2633 O2654 2.325 . S
Tb2633 O2657 2.341 . S
Tb2633 O2658 2.484 . S
Tb2633 O2659 2.440 . S
Tb2633 O2660 2.658 . S
Tb2633 O2661 2.409 . S
Tb2633 O2662 2.378 . S
C2634 Tb2632 2.809 . S
C2634 C2635 1.514 . S
C2634 O2652 1.248 . S
C2634 O2653 1.266 . S
C2635 C2634 1.514 . S
C2635 C2636 1.359 . S
C2635 C2640 1.348 . S
C2636 C2635 1.359 . S
C2636 C2637 1.380 . S
C2636 H2664 0.929 . S
C2637 C2636 1.380 . S
C2637 C2638 1.347 . S
C2637 H2665 0.931 . S
C2638 C2637 1.347 . S
C2638 C2639 1.369 . S
C2639 C2638 1.369 . S
C2639 C2640 1.408 . S
C2639 H2666 0.930 . S
C2640 C2635 1.348 . S
C2640 C2639 1.408 . S
C2640 H2667 0.930 . S
C2641 O2654 1.281 . S
C2641 O2655 1.254 . S
C2642 O2656 1.236 . S
C2642 O2657 1.266 . S
C2643 Tb2633 2.809 . S
C2643 C2644 1.514 . S
C2643 O2658 1.248 . S
C2643 O2659 1.266 . S
C2644 C2643 1.514 . S
C2644 C2645 1.359 . S
C2644 C2649 1.348 . S
C2645 C2644 1.359 . S
C2645 C2646 1.380 . S
C2645 H2668 0.929 . S
C2646 C2645 1.380 . S
C2646 C2647 1.347 . S
C2646 H2669 0.931 . S
C2647 C2646 1.347 . S
C2647 C2648 1.369 . S
C2648 C2647 1.369 . S
C2648 C2649 1.408 . S
C2648 H2670 0.930 . S
C2649 C2644 1.348 . S
C2649 C2648 1.408 . S
C2649 H2671 0.930 . S
C2650 O2660 1.281 . S
C2650 O2661 1.254 . S
C2651 O2662 1.236 . S
C2651 O2663 1.266 . S
O2652 Tb2632 2.484 . S
O2652 C2634 1.248 . S
O2653 Tb2632 2.440 . S
O2653 C2634 1.266 . S
O2654 Tb2632 2.658 . S
O2654 Tb2633 2.325 . S
O2654 C2641 1.281 . S
O2655 Tb2632 2.409 . S
O2655 C2641 1.254 . S
O2656 Tb2632 2.378 . S
O2656 C2642 1.236 . S
O2657 Tb2633 2.341 . S
O2657 C2642 1.266 . S
O2658 Tb2633 2.484 . S
O2658 C2643 1.248 . S
O2659 Tb2633 2.440 . S
O2659 C2643 1.266 . S
O2660 Tb2632 2.325 . S
O2660 Tb2633 2.658 . S
O2660 C2650 1.281 . S
O2661 Tb2633 2.409 . S
O2661 C2650 1.254 . S
O2662 Tb2633 2.378 . S
O2662 C2651 1.236 . S
O2663 Tb2632 2.341 . S
O2663 C2651 1.266 . S
H2664 C2636 0.929 . S
H2665 C2637 0.931 . S
H2666 C2639 0.930 . S
H2667 C2640 0.930 . S
H2668 C2645 0.929 . S
H2669 C2646 0.931 . S
H2670 C2648 0.930 . S
H2671 C2649 0.930 . S
Tb2672 C2674 2.809 . S
Tb2672 O2692 2.484 . S
Tb2672 O2693 2.440 . S
Tb2672 O2694 2.658 . S
Tb2672 O2695 2.409 . S
Tb2672 O2696 2.378 . S
Tb2672 O2700 2.325 . S
Tb2672 O2703 2.341 . S
Tb2673 C2683 2.809 . S
Tb2673 O2694 2.325 . S
Tb2673 O2697 2.341 . S
Tb2673 O2698 2.484 . S
Tb2673 O2699 2.440 . S
Tb2673 O2700 2.658 . S
Tb2673 O2701 2.409 . S
Tb2673 O2702 2.378 . S
C2674 Tb2672 2.809 . S
C2674 C2675 1.514 . S
C2674 O2692 1.248 . S
C2674 O2693 1.266 . S
C2675 C2674 1.514 . S
C2675 C2676 1.359 . S
C2675 C2680 1.348 . S
C2676 C2675 1.359 . S
C2676 C2677 1.380 . S
C2676 H2704 0.929 . S
C2677 C2676 1.380 . S
C2677 C2678 1.347 . S
C2677 H2705 0.931 . S
C2678 C2677 1.347 . S
C2678 C2679 1.369 . S
C2679 C2678 1.369 . S
C2679 C2680 1.408 . S
C2679 H2706 0.930 . S
C2680 C2675 1.348 . S
C2680 C2679 1.408 . S
C2680 H2707 0.930 . S
C2681 O2694 1.281 . S
C2681 O2695 1.254 . S
C2682 O2696 1.236 . S
C2682 O2697 1.266 . S
C2683 Tb2673 2.809 . S
C2683 C2684 1.514 . S
C2683 O2698 1.248 . S
C2683 O2699 1.266 . S
C2684 C2683 1.514 . S
C2684 C2685 1.359 . S
C2684 C2689 1.348 . S
C2685 C2684 1.359 . S
C2685 C2686 1.380 . S
C2685 H2708 0.929 . S
C2686 C2685 1.380 . S
C2686 C2687 1.347 . S
C2686 H2709 0.931 . S
C2687 C2686 1.347 . S
C2687 C2688 1.369 . S
C2688 C2687 1.369 . S
C2688 C2689 1.408 . S
C2688 H2710 0.930 . S
C2689 C2684 1.348 . S
C2689 C2688 1.408 . S
C2689 H2711 0.930 . S
C2690 O2700 1.281 . S
C2690 O2701 1.254 . S
C2691 O2702 1.236 . S
C2691 O2703 1.266 . S
O2692 Tb2672 2.484 . S
O2692 C2674 1.248 . S
O2693 Tb2672 2.440 . S
O2693 C2674 1.266 . S
O2694 Tb2672 2.658 . S
O2694 Tb2673 2.325 . S
O2694 C2681 1.281 . S
O2695 Tb2672 2.409 . S
O2695 C2681 1.254 . S
O2696 Tb2672 2.378 . S
O2696 C2682 1.236 . S
O2697 Tb2673 2.341 . S
O2697 C2682 1.266 . S
O2698 Tb2673 2.484 . S
O2698 C2683 1.248 . S
O2699 Tb2673 2.440 . S
O2699 C2683 1.266 . S
O2700 Tb2672 2.325 . S
O2700 Tb2673 2.658 . S
O2700 C2690 1.281 . S
O2701 Tb2673 2.409 . S
O2701 C2690 1.254 . S
O2702 Tb2673 2.378 . S
O2702 C2691 1.236 . S
O2703 Tb2672 2.341 . S
O2703 C2691 1.266 . S
H2704 C2676 0.929 . S
H2705 C2677 0.931 . S
H2706 C2679 0.930 . S
H2707 C2680 0.930 . S
H2708 C2685 0.929 . S
H2709 C2686 0.931 . S
H2710 C2688 0.930 . S
H2711 C2689 0.930 . S
Tb2712 C2714 2.809 . S
Tb2712 O2732 2.484 . S
Tb2712 O2733 2.440 1_554 S
Tb2712 O2734 2.658 1_554 S
Tb2712 O2735 2.409 1_554 S
Tb2712 O2736 2.372 1_554 S
Tb2712 O2740 2.325 . S
Tb2712 O2743 2.341 . S
Tb2713 C2723 2.809 1_455 S
Tb2713 O2734 2.325 1_554 S
Tb2713 O2737 2.341 . S
Tb2713 O2738 2.484 1_455 S
Tb2713 O2739 2.440 1_455 S
Tb2713 O2740 2.658 . S
Tb2713 O2741 2.409 . S
Tb2713 O2742 2.378 . S
C2714 Tb2712 2.809 . S
C2714 C2715 1.521 . S
C2714 O2732 1.248 . S
C2714 O2733 1.266 1_554 S
C2715 C2714 1.521 . S
C2715 C2716 1.383 . S
C2715 C2720 1.317 1_554 S
C2716 C2715 1.383 . S
C2716 C2717 1.380 . S
C2716 H2744 0.929 . S
C2717 C2716 1.380 . S
C2717 C2718 1.347 1_554 S
C2717 H2745 0.931 . S
C2718 C2717 1.347 1_556 S
C2718 C2719 1.369 . S
C2719 C2718 1.369 . S
C2719 C2720 1.408 . S
C2719 H2746 0.930 . S
C2720 C2715 1.317 1_556 S
C2720 C2719 1.408 . S
C2720 H2747 0.930 . S
C2721 O2734 1.281 . S
C2721 O2735 1.254 . S
C2722 O2736 1.212 1_554 S
C2722 O2737 1.266 . S
C2723 Tb2713 2.809 1_655 S
C2723 C2724 1.514 . S
C2723 O2738 1.248 . S
C2723 O2739 1.266 . S
C2724 C2723 1.514 . S
C2724 C2725 1.359 . S
C2724 C2729 1.348 . S
C2725 C2724 1.359 . S
C2725 C2726 1.380 . S
C2725 H2748 0.929 . S
C2726 C2725 1.380 . S
C2726 C2727 1.347 . S
C2726 H2749 0.931 . S
C2727 C2726 1.347 . S
C2727 C2728 1.369 . S
C2728 C2727 1.369 . S
C2728 C2729 1.408 . S
C2728 H2750 0.930 . S
C2729 C2724 1.348 . S
C2729 C2728 1.408 . S
C2729 H2751 0.930 . S
C2730 O2740 1.281 . S
C2730 O2741 1.254 . S
C2731 O2742 1.236 . S
C2731 O2743 1.266 . S
O2732 Tb2712 2.484 . S
O2732 C2714 1.248 . S
O2733 Tb2712 2.440 1_556 S
O2733 C2714 1.266 1_556 S
O2734 Tb2712 2.658 1_556 S
O2734 Tb2713 2.325 1_556 S
O2734 C2721 1.281 . S
O2735 Tb2712 2.409 1_556 S
O2735 C2721 1.254 . S
O2736 Tb2712 2.372 1_556 S
O2736 C2722 1.212 1_556 S
O2737 Tb2713 2.341 . S
O2737 C2722 1.266 . S
O2738 Tb2713 2.484 1_655 S
O2738 C2723 1.248 . S
O2739 Tb2713 2.440 1_655 S
O2739 C2723 1.266 . S
O2740 Tb2712 2.325 . S
O2740 Tb2713 2.658 . S
O2740 C2730 1.281 . S
O2741 Tb2713 2.409 . S
O2741 C2730 1.254 . S
O2742 Tb2713 2.378 . S
O2742 C2731 1.236 . S
O2743 Tb2712 2.341 . S
O2743 C2731 1.266 . S
H2744 C2716 0.929 . S
H2745 C2717 0.931 . S
H2746 C2719 0.930 . S
H2747 C2720 0.930 . S
H2748 C2725 0.929 . S
H2749 C2726 0.931 . S
H2750 C2728 0.930 . S
H2751 C2729 0.930 . S
H2752 C2760 0.929 . S
H2753 C2762 0.930 . S
H2754 C2764 0.930 1_655 S
H2755 C2767 0.885 1_655 S
H2756 C2770 0.920 1_554 S
H2757 C2772 0.960 . S
H2758 C2772 0.960 1_455 S
H2759 C2772 0.960 . S
C2760 H2752 0.929 . S
C2760 C2761 1.377 . S
C2760 C2762 1.384 . S
C2761 C2760 1.377 . S
C2761 C2767 1.424 . S
C2762 H2753 0.930 . S
C2762 C2760 1.384 . S
C2762 C2763 1.372 . S
C2763 C2762 1.372 . S
C2763 C2764 1.400 . S
C2763 C2768 1.490 . S
C2764 H2754 0.930 1_455 S
C2764 C2763 1.400 . S
C2764 C2767 1.397 . S
H2765 C2781 0.930 . S
H2766 C2782 0.931 . S
C2767 H2755 0.885 1_455 S
C2767 C2761 1.424 . S
C2767 C2764 1.397 . S
C2768 C2763 1.490 . S
C2768 C2770 1.395 . S
C2768 C2771 1.403 . S
H2769 C2775 0.930 . S
C2770 H2756 0.920 1_556 S
C2770 C2768 1.395 . S
C2770 C2773 1.403 1_556 S
C2771 C2768 1.403 . S
C2771 C2772 1.524 1_455 S
C2771 C2775 1.400 . S
C2772 H2757 0.960 . S
C2772 H2758 0.960 1_655 S
C2772 H2759 0.960 . S
C2772 C2771 1.524 1_655 S
C2773 C2770 1.403 1_554 S
C2773 C2774 1.392 1_554 S
C2773 C2777 1.495 . S
C2774 C2773 1.392 1_556 S
C2774 C2775 1.385 . S
C2774 C2776 1.503 . S
C2775 H2769 0.930 . S
C2775 C2771 1.400 . S
C2775 C2774 1.385 . S
C2776 C2774 1.503 . S
C2776 C2778 1.392 . S
C2776 C2782 1.352 1_556 S
C2777 C2773 1.495 . S
C2777 H2783 0.959 . S
C2777 H2784 0.961 . S
C2777 H2785 0.960 . S
C2778 C2776 1.392 . S
C2778 C2779 1.394 1_556 S
C2778 H2786 0.930 . S
C2779 C2778 1.394 1_554 S
C2779 C2780 1.383 . S
C2779 H2787 0.928 1_554 S
C2780 C2779 1.383 . S
C2780 C2781 1.377 . S
C2781 H2765 0.930 . S
C2781 C2780 1.377 . S
C2781 C2782 1.379 . S
C2782 H2766 0.931 . S
C2782 C2776 1.352 1_554 S
C2782 C2781 1.379 . S
H2783 C2777 0.959 . S
H2784 C2777 0.961 . S
H2785 C2777 0.960 . S
H2786 C2778 0.930 . S
H2787 C2779 0.928 1_556 S
H2788 C2796 0.929 . S
H2789 C2798 0.930 . S
H2790 C2800 0.930 . S
H2791 C2803 0.929 . S
H2792 C2806 0.930 . S
H2793 C2808 0.960 . S
H2794 C2808 0.960 . S
H2795 C2808 0.960 . S
C2796 H2788 0.929 . S
C2796 C2797 1.377 . S
C2796 C2798 1.384 . S
C2797 C2796 1.377 . S
C2797 C2803 1.390 . S
C2798 H2789 0.930 . S
C2798 C2796 1.384 . S
C2798 C2799 1.372 . S
C2799 C2798 1.372 . S
C2799 C2800 1.400 . S
C2799 C2804 1.490 . S
C2800 H2790 0.930 . S
C2800 C2799 1.400 . S
C2800 C2803 1.386 . S
H2801 C2817 0.930 . S
H2802 C2818 0.931 . S
C2803 H2791 0.929 . S
C2803 C2797 1.390 . S
C2803 C2800 1.386 . S
C2804 C2799 1.490 . S
C2804 C2806 1.395 . S
C2804 C2807 1.403 . S
H2805 C2811 0.930 . S
C2806 H2792 0.930 . S
C2806 C2804 1.395 . S
C2806 C2809 1.403 . S
C2807 C2804 1.403 . S
C2807 C2808 1.524 . S
C2807 C2811 1.400 . S
C2808 H2793 0.960 . S
C2808 H2794 0.960 . S
C2808 H2795 0.960 . S
C2808 C2807 1.524 . S
C2809 C2806 1.403 . S
C2809 C2810 1.392 . S
C2809 C2813 1.495 . S
C2810 C2809 1.392 . S
C2810 C2811 1.385 . S
C2810 C2812 1.478 . S
C2811 H2805 0.930 . S
C2811 C2807 1.400 . S
C2811 C2810 1.385 . S
C2812 C2810 1.478 . S
C2812 C2814 1.381 . S
C2812 C2818 1.383 . S
C2813 C2809 1.495 . S
C2813 H2819 0.959 . S
C2813 H2820 0.961 . S
C2813 H2821 0.960 . S
C2814 C2812 1.381 . S
C2814 C2815 1.394 . S
C2814 H2822 0.930 . S
C2815 C2814 1.394 . S
C2815 C2816 1.383 . S
C2815 H2823 0.929 . S
C2816 C2815 1.383 . S
C2816 C2817 1.377 . S
C2817 H2801 0.930 . S
C2817 C2816 1.377 . S
C2817 C2818 1.379 . S
C2818 H2802 0.931 . S
C2818 C2812 1.383 . S
C2818 C2817 1.379 . S
H2819 C2813 0.959 . S
H2820 C2813 0.961 . S
H2821 C2813 0.960 . S
H2822 C2814 0.930 . S
H2823 C2815 0.929 . S
H2824 C2832 0.929 . S
H2825 C2834 0.930 . S
H2826 C2836 0.930 . S
H2827 C2839 0.929 . S
H2828 C2842 0.930 . S
H2829 C2844 0.960 . S
H2830 C2844 0.960 . S
H2831 C2844 0.960 . S
C2832 H2824 0.929 . S
C2832 C2833 1.377 . S
C2832 C2834 1.384 . S
C2833 C2832 1.377 . S
C2833 C2839 1.390 . S
C2834 H2825 0.930 . S
C2834 C2832 1.384 . S
C2834 C2835 1.372 . S
C2835 C2834 1.372 . S
C2835 C2836 1.400 . S
C2835 C2840 1.490 . S
C2836 H2826 0.930 . S
C2836 C2835 1.400 . S
C2836 C2839 1.386 . S
H2837 C2853 0.930 . S
H2838 C2854 0.931 . S
C2839 H2827 0.929 . S
C2839 C2833 1.390 . S
C2839 C2836 1.386 . S
C2840 C2835 1.490 . S
C2840 C2842 1.395 . S
C2840 C2843 1.403 . S
H2841 C2847 0.930 . S
C2842 H2828 0.930 . S
C2842 C2840 1.395 . S
C2842 C2845 1.403 . S
C2843 C2840 1.403 . S
C2843 C2844 1.524 . S
C2843 C2847 1.400 . S
C2844 H2829 0.960 . S
C2844 H2830 0.960 . S
C2844 H2831 0.960 . S
C2844 C2843 1.524 . S
C2845 C2842 1.403 . S
C2845 C2846 1.392 . S
C2845 C2849 1.495 . S
C2846 C2845 1.392 . S
C2846 C2847 1.385 . S
C2846 C2848 1.478 . S
C2847 H2841 0.930 . S
C2847 C2843 1.400 . S
C2847 C2846 1.385 . S
C2848 C2846 1.478 . S
C2848 C2850 1.381 . S
C2848 C2854 1.383 . S
C2849 C2845 1.495 . S
C2849 H2855 0.959 . S
C2849 H2856 0.961 . S
C2849 H2857 0.960 . S
C2850 C2848 1.381 . S
C2850 C2851 1.394 . S
C2850 H2858 0.930 . S
C2851 C2850 1.394 . S
C2851 C2852 1.383 . S
C2851 H2859 0.929 . S
C2852 C2851 1.383 . S
C2852 C2853 1.377 . S
C2853 H2837 0.930 . S
C2853 C2852 1.377 . S
C2853 C2854 1.379 . S
C2854 H2838 0.931 . S
C2854 C2848 1.383 . S
C2854 C2853 1.379 . S
H2855 C2849 0.959 . S
H2856 C2849 0.961 . S
H2857 C2849 0.960 . S
H2858 C2850 0.930 . S
H2859 C2851 0.929 . S
H2860 C2868 0.929 . S
H2861 C2870 0.930 . S
H2862 C2872 0.930 . S
H2863 C2875 0.929 . S
H2864 C2878 0.930 . S
H2865 C2880 0.960 . S
H2866 C2880 0.960 . S
H2867 C2880 0.960 . S
C2868 H2860 0.929 . S
C2868 C2869 1.377 . S
C2868 C2870 1.384 . S
C2869 C2868 1.377 . S
C2869 C2875 1.390 . S
C2870 H2861 0.930 . S
C2870 C2868 1.384 . S
C2870 C2871 1.372 . S
C2871 C2870 1.372 . S
C2871 C2872 1.400 . S
C2871 C2876 1.490 . S
C2872 H2862 0.930 . S
C2872 C2871 1.400 . S
C2872 C2875 1.386 . S
H2873 C2889 0.930 . S
H2874 C2890 0.931 . S
C2875 H2863 0.929 . S
C2875 C2869 1.390 . S
C2875 C2872 1.386 . S
C2876 C2871 1.490 . S
C2876 C2878 1.395 . S
C2876 C2879 1.403 . S
H2877 C2883 0.930 . S
C2878 H2864 0.930 . S
C2878 C2876 1.395 . S
C2878 C2881 1.403 . S
C2879 C2876 1.403 . S
C2879 C2880 1.524 . S
C2879 C2883 1.400 . S
C2880 H2865 0.960 . S
C2880 H2866 0.960 . S
C2880 H2867 0.960 . S
C2880 C2879 1.524 . S
C2881 C2878 1.403 . S
C2881 C2882 1.392 . S
C2881 C2885 1.495 . S
C2882 C2881 1.392 . S
C2882 C2883 1.385 . S
C2882 C2884 1.478 . S
C2883 H2877 0.930 . S
C2883 C2879 1.400 . S
C2883 C2882 1.385 . S
C2884 C2882 1.478 . S
C2884 C2886 1.381 . S
C2884 C2890 1.383 . S
C2885 C2881 1.495 . S
C2885 H2891 0.959 . S
C2885 H2892 0.961 . S
C2885 H2893 0.960 . S
C2886 C2884 1.381 . S
C2886 C2887 1.394 . S
C2886 H2894 0.930 . S
C2887 C2886 1.394 . S
C2887 C2888 1.383 . S
C2887 H2895 0.929 . S
C2888 C2887 1.383 . S
C2888 C2889 1.377 . S
C2889 H2873 0.930 . S
C2889 C2888 1.377 . S
C2889 C2890 1.379 . S
C2890 H2874 0.931 . S
C2890 C2884 1.383 . S
C2890 C2889 1.379 . S
H2891 C2885 0.959 . S
H2892 C2885 0.961 . S
H2893 C2885 0.960 . S
H2894 C2886 0.930 . S
H2895 C2887 0.929 . S
H2896 C2904 0.929 . S
H2897 C2906 0.930 . S
H2898 C2908 0.930 . S
H2899 C2911 0.929 . S
H2900 C2914 0.930 . S
H2901 C2916 0.960 . S
H2902 C2916 0.960 . S
H2903 C2916 0.960 . S
C2904 H2896 0.929 . S
C2904 C2905 1.377 . S
C2904 C2906 1.384 . S
C2905 C2904 1.377 . S
C2905 C2911 1.390 . S
C2906 H2897 0.930 . S
C2906 C2904 1.384 . S
C2906 C2907 1.372 . S
C2907 C2906 1.372 . S
C2907 C2908 1.400 . S
C2907 C2912 1.490 . S
C2908 H2898 0.930 . S
C2908 C2907 1.400 . S
C2908 C2911 1.386 . S
H2909 C2925 0.930 . S
H2910 C2926 0.931 . S
C2911 H2899 0.929 . S
C2911 C2905 1.390 . S
C2911 C2908 1.386 . S
C2912 C2907 1.490 . S
C2912 C2914 1.395 . S
C2912 C2915 1.403 . S
H2913 C2919 0.930 . S
C2914 H2900 0.930 . S
C2914 C2912 1.395 . S
C2914 C2917 1.403 . S
C2915 C2912 1.403 . S
C2915 C2916 1.524 . S
C2915 C2919 1.400 . S
C2916 H2901 0.960 . S
C2916 H2902 0.960 . S
C2916 H2903 0.960 . S
C2916 C2915 1.524 . S
C2917 C2914 1.403 . S
C2917 C2918 1.392 . S
C2917 C2921 1.495 . S
C2918 C2917 1.392 . S
C2918 C2919 1.385 . S
C2918 C2920 1.478 . S
C2919 H2913 0.930 . S
C2919 C2915 1.400 . S
C2919 C2918 1.385 . S
C2920 C2918 1.478 . S
C2920 C2922 1.381 . S
C2920 C2926 1.383 . S
C2921 C2917 1.495 . S
C2921 H2927 0.959 . S
C2921 H2928 0.961 . S
C2921 H2929 0.960 . S
C2922 C2920 1.381 . S
C2922 C2923 1.394 . S
C2922 H2930 0.930 . S
C2923 C2922 1.394 . S
C2923 C2924 1.383 . S
C2923 H2931 0.929 . S
C2924 C2923 1.383 . S
C2924 C2925 1.377 . S
C2925 H2909 0.930 . S
C2925 C2924 1.377 . S
C2925 C2926 1.379 . S
C2926 H2910 0.931 . S
C2926 C2920 1.383 . S
C2926 C2925 1.379 . S
H2927 C2921 0.959 . S
H2928 C2921 0.961 . S
H2929 C2921 0.960 . S
H2930 C2922 0.930 . S
H2931 C2923 0.929 . S
H2932 C2940 0.929 . S
H2933 C2942 0.930 . S
H2934 C2944 0.930 . S
H2935 C2947 0.929 . S
H2936 C2950 0.930 . S
H2937 C2952 0.960 . S
H2938 C2952 0.960 . S
H2939 C2952 0.960 . S
C2940 H2932 0.929 . S
C2940 C2941 1.377 . S
C2940 C2942 1.384 . S
C2941 C2940 1.377 . S
C2941 C2947 1.390 . S
C2942 H2933 0.930 . S
C2942 C2940 1.384 . S
C2942 C2943 1.372 . S
C2943 C2942 1.372 . S
C2943 C2944 1.400 . S
C2943 C2948 1.490 . S
C2944 H2934 0.930 . S
C2944 C2943 1.400 . S
C2944 C2947 1.386 . S
H2945 C2961 0.930 . S
H2946 C2962 0.931 . S
C2947 H2935 0.929 . S
C2947 C2941 1.390 . S
C2947 C2944 1.386 . S
C2948 C2943 1.490 . S
C2948 C2950 1.395 . S
C2948 C2951 1.403 . S
H2949 C2955 0.930 . S
C2950 H2936 0.930 . S
C2950 C2948 1.395 . S
C2950 C2953 1.403 . S
C2951 C2948 1.403 . S
C2951 C2952 1.524 . S
C2951 C2955 1.400 . S
C2952 H2937 0.960 . S
C2952 H2938 0.960 . S
C2952 H2939 0.960 . S
C2952 C2951 1.524 . S
C2953 C2950 1.403 . S
C2953 C2954 1.392 . S
C2953 C2957 1.495 . S
C2954 C2953 1.392 . S
C2954 C2955 1.385 . S
C2954 C2956 1.478 . S
C2955 H2949 0.930 . S
C2955 C2951 1.400 . S
C2955 C2954 1.385 . S
C2956 C2954 1.478 . S
C2956 C2958 1.381 . S
C2956 C2962 1.383 . S
C2957 C2953 1.495 . S
C2957 H2963 0.959 . S
C2957 H2964 0.961 . S
C2957 H2965 0.960 . S
C2958 C2956 1.381 . S
C2958 C2959 1.394 . S
C2958 H2966 0.930 . S
C2959 C2958 1.394 . S
C2959 C2960 1.383 . S
C2959 H2967 0.929 . S
C2960 C2959 1.383 . S
C2960 C2961 1.377 . S
C2961 H2945 0.930 . S
C2961 C2960 1.377 . S
C2961 C2962 1.379 . S
C2962 H2946 0.931 . S
C2962 C2956 1.383 . S
C2962 C2961 1.379 . S
H2963 C2957 0.959 . S
H2964 C2957 0.961 . S
H2965 C2957 0.960 . S
H2966 C2958 0.930 . S
H2967 C2959 0.929 . S
H2968 C2976 0.929 . S
H2969 C2978 0.930 . S
H2970 C2980 0.930 . S
H2971 C2983 0.929 . S
H2972 C2986 0.930 . S
H2973 C2988 0.960 . S
H2974 C2988 0.960 . S
H2975 C2988 0.960 . S
C2976 H2968 0.929 . S
C2976 C2977 1.377 . S
C2976 C2978 1.384 . S
C2977 C2976 1.377 . S
C2977 C2983 1.390 . S
C2978 H2969 0.930 . S
C2978 C2976 1.384 . S
C2978 C2979 1.372 . S
C2979 C2978 1.372 . S
C2979 C2980 1.400 . S
C2979 C2984 1.490 . S
C2980 H2970 0.930 . S
C2980 C2979 1.400 . S
C2980 C2983 1.386 . S
H2981 C2997 0.930 . S
H2982 C2998 0.931 . S
C2983 H2971 0.929 . S
C2983 C2977 1.390 . S
C2983 C2980 1.386 . S
C2984 C2979 1.490 . S
C2984 C2986 1.395 . S
C2984 C2987 1.403 . S
H2985 C2991 0.930 . S
C2986 H2972 0.930 . S
C2986 C2984 1.395 . S
C2986 C2989 1.403 . S
C2987 C2984 1.403 . S
C2987 C2988 1.524 . S
C2987 C2991 1.400 . S
C2988 H2973 0.960 . S
C2988 H2974 0.960 . S
C2988 H2975 0.960 . S
C2988 C2987 1.524 . S
C2989 C2986 1.403 . S
C2989 C2990 1.392 . S
C2989 C2993 1.495 . S
C2990 C2989 1.392 . S
C2990 C2991 1.385 . S
C2990 C2992 1.478 . S
C2991 H2985 0.930 . S
C2991 C2987 1.400 . S
C2991 C2990 1.385 . S
C2992 C2990 1.478 . S
C2992 C2994 1.381 . S
C2992 C2998 1.383 . S
C2993 C2989 1.495 . S
C2993 H2999 0.959 . S
C2993 H3000 0.961 . S
C2993 H3001 0.960 . S
C2994 C2992 1.381 . S
C2994 C2995 1.394 . S
C2994 H3002 0.930 . S
C2995 C2994 1.394 . S
C2995 C2996 1.383 . S
C2995 H3003 0.929 . S
C2996 C2995 1.383 . S
C2996 C2997 1.377 . S
C2997 H2981 0.930 . S
C2997 C2996 1.377 . S
C2997 C2998 1.379 . S
C2998 H2982 0.931 . S
C2998 C2992 1.383 . S
C2998 C2997 1.379 . S
H2999 C2993 0.959 . S
H3000 C2993 0.961 . S
H3001 C2993 0.960 . S
H3002 C2994 0.930 . S
H3003 C2995 0.929 . S
H3004 C3012 0.929 . S
H3005 C3014 0.930 . S
H3006 C3016 0.930 . S
H3007 C3019 0.929 . S
H3008 C3022 0.930 . S
H3009 C3024 0.960 . S
H3010 C3024 0.960 . S
H3011 C3024 0.960 . S
C3012 H3004 0.929 . S
C3012 C3013 1.377 . S
C3012 C3014 1.384 . S
C3013 C3012 1.377 . S
C3013 C3019 1.390 . S
C3014 H3005 0.930 . S
C3014 C3012 1.384 . S
C3014 C3015 1.372 . S
C3015 C3014 1.372 . S
C3015 C3016 1.400 . S
C3015 C3020 1.490 . S
C3016 H3006 0.930 . S
C3016 C3015 1.400 . S
C3016 C3019 1.386 . S
H3017 C3033 0.930 . S
H3018 C3034 0.931 . S
C3019 H3007 0.929 . S
C3019 C3013 1.390 . S
C3019 C3016 1.386 . S
C3020 C3015 1.490 . S
C3020 C3022 1.395 . S
C3020 C3023 1.403 . S
H3021 C3027 0.930 . S
C3022 H3008 0.930 . S
C3022 C3020 1.395 . S
C3022 C3025 1.403 . S
C3023 C3020 1.403 . S
C3023 C3024 1.524 . S
C3023 C3027 1.400 . S
C3024 H3009 0.960 . S
C3024 H3010 0.960 . S
C3024 H3011 0.960 . S
C3024 C3023 1.524 . S
C3025 C3022 1.403 . S
C3025 C3026 1.392 . S
C3025 C3029 1.495 . S
C3026 C3025 1.392 . S
C3026 C3027 1.385 . S
C3026 C3028 1.478 . S
C3027 H3021 0.930 . S
C3027 C3023 1.400 . S
C3027 C3026 1.385 . S
C3028 C3026 1.478 . S
C3028 C3030 1.381 . S
C3028 C3034 1.383 . S
C3029 C3025 1.495 . S
C3029 H3035 0.959 . S
C3029 H3036 0.961 . S
C3029 H3037 0.960 . S
C3030 C3028 1.381 . S
C3030 C3031 1.394 . S
C3030 H3038 0.930 . S
C3031 C3030 1.394 . S
C3031 C3032 1.383 . S
C3031 H3039 0.929 . S
C3032 C3031 1.383 . S
C3032 C3033 1.377 . S
C3033 H3017 0.930 . S
C3033 C3032 1.377 . S
C3033 C3034 1.379 . S
C3034 H3018 0.931 . S
C3034 C3028 1.383 . S
C3034 C3033 1.379 . S
H3035 C3029 0.959 . S
H3036 C3029 0.961 . S
H3037 C3029 0.960 . S
H3038 C3030 0.930 . S
H3039 C3031 0.929 . S
H3040 C3048 0.929 . S
H3041 C3050 0.930 . S
H3042 C3052 0.930 . S
H3043 C3055 0.929 . S
H3044 C3058 0.930 . S
H3045 C3060 0.960 1_565 S
H3046 C3060 0.960 . S
H3047 C3060 0.960 1_565 S
C3048 H3040 0.929 . S
C3048 C3049 1.377 . S
C3048 C3050 1.384 . S
C3049 C3048 1.377 . S
C3049 C3055 1.390 1_545 S
C3050 H3041 0.930 . S
C3050 C3048 1.384 . S
C3050 C3051 1.372 . S
C3051 C3050 1.372 . S
C3051 C3052 1.400 1_545 S
C3051 C3056 1.490 . S
C3052 H3042 0.930 . S
C3052 C3051 1.400 1_565 S
C3052 C3055 1.386 . S
H3053 C3069 0.930 1_565 S
H3054 C3070 0.931 1_565 S
C3055 H3043 0.929 . S
C3055 C3049 1.390 1_565 S
C3055 C3052 1.386 . S
C3056 C3051 1.490 . S
C3056 C3058 1.395 1_655 S
C3056 C3059 1.403 . S
H3057 C3063 0.930 . S
C3058 H3044 0.930 . S
C3058 C3056 1.395 1_455 S
C3058 C3061 1.403 . S
C3059 C3056 1.403 . S
C3059 C3060 1.524 . S
C3059 C3063 1.400 . S
C3060 H3045 0.960 1_545 S
C3060 H3046 0.960 . S
C3060 H3047 0.960 1_545 S
C3060 C3059 1.524 . S
C3061 C3058 1.403 . S
C3061 C3062 1.392 . S
C3061 C3065 1.495 . S
C3062 C3061 1.392 . S
C3062 C3063 1.385 1_455 S
C3062 C3064 1.478 . S
C3063 H3057 0.930 . S
C3063 C3059 1.400 . S
C3063 C3062 1.385 1_655 S
C3064 C3062 1.478 . S
C3064 C3066 1.381 . S
C3064 C3070 1.383 . S
C3065 C3061 1.495 . S
C3065 H3071 0.959 . S
C3065 H3072 0.961 . S
C3065 H3073 0.960 . S
C3066 C3064 1.381 . S
C3066 C3067 1.394 . S
C3066 H3074 0.930 . S
C3067 C3066 1.394 . S
C3067 C3068 1.383 . S
C3067 H3075 0.929 . S
C3068 C3067 1.383 . S
C3068 C3069 1.377 . S
C3069 H3053 0.930 1_545 S
C3069 C3068 1.377 . S
C3069 C3070 1.379 . S
C3070 H3054 0.931 1_545 S
C3070 C3064 1.383 . S
C3070 C3069 1.379 . S
H3071 C3065 0.959 . S
H3072 C3065 0.961 . S
H3073 C3065 0.960 . S
H3074 C3066 0.930 . S
H3075 C3067 0.929 . S
H3076 C3084 0.929 . S
H3077 C3086 0.930 . S
H3078 C3088 0.930 . S
H3079 C3091 0.929 . S
H3080 C3094 0.930 . S
H3081 C3096 0.960 . S
H3082 C3096 0.960 . S
H3083 C3096 0.960 . S
C3084 H3076 0.929 . S
C3084 C3085 1.377 . S
C3084 C3086 1.384 . S
C3085 C3084 1.377 . S
C3085 C3091 1.390 . S
C3086 H3077 0.930 . S
C3086 C3084 1.384 . S
C3086 C3087 1.372 . S
C3087 C3086 1.372 . S
C3087 C3088 1.400 . S
C3087 C3092 1.490 . S
C3088 H3078 0.930 . S
C3088 C3087 1.400 . S
C3088 C3091 1.386 . S
H3089 C3105 0.930 . S
H3090 C3106 0.931 . S
C3091 H3079 0.929 . S
C3091 C3085 1.390 . S
C3091 C3088 1.386 . S
C3092 C3087 1.490 . S
C3092 C3094 1.395 . S
C3092 C3095 1.403 . S
H3093 C3099 0.930 . S
C3094 H3080 0.930 . S
C3094 C3092 1.395 . S
C3094 C3097 1.403 . S
C3095 C3092 1.403 . S
C3095 C3096 1.524 . S
C3095 C3099 1.400 . S
C3096 H3081 0.960 . S
C3096 H3082 0.960 . S
C3096 H3083 0.960 . S
C3096 C3095 1.524 . S
C3097 C3094 1.403 . S
C3097 C3098 1.392 . S
C3097 C3101 1.495 . S
C3098 C3097 1.392 . S
C3098 C3099 1.385 . S
C3098 C3100 1.478 . S
C3099 H3093 0.930 . S
C3099 C3095 1.400 . S
C3099 C3098 1.385 . S
C3100 C3098 1.478 . S
C3100 C3102 1.381 . S
C3100 C3106 1.383 . S
C3101 C3097 1.495 . S
C3101 H3107 0.959 . S
C3101 H3108 0.961 . S
C3101 H3109 0.960 . S
C3102 C3100 1.381 . S
C3102 C3103 1.394 . S
C3102 H3110 0.930 . S
C3103 C3102 1.394 . S
C3103 C3104 1.383 . S
C3103 H3111 0.929 . S
C3104 C3103 1.383 . S
C3104 C3105 1.377 . S
C3105 H3089 0.930 . S
C3105 C3104 1.377 . S
C3105 C3106 1.379 . S
C3106 H3090 0.931 . S
C3106 C3100 1.383 . S
C3106 C3105 1.379 . S
H3107 C3101 0.959 . S
H3108 C3101 0.961 . S
H3109 C3101 0.960 . S
H3110 C3102 0.930 . S
H3111 C3103 0.929 . S
H3112 C3120 0.937 . S
H3113 C3122 0.932 . S
H3114 C3124 0.930 . S
H3115 C3127 0.920 . S
H3116 C3130 0.930 . S
H3117 C3132 0.960 . S
H3118 C3132 0.960 . S
H3119 C3132 0.960 . S
C3120 H3112 0.937 . S
C3120 C3121 1.384 . S
C3120 C3122 1.364 1_565 S
C3121 C3120 1.384 . S
C3121 C3127 1.386 1_565 S
C3122 H3113 0.932 . S
C3122 C3120 1.364 1_545 S
C3122 C3123 1.374 . S
C3123 C3122 1.374 . S
C3123 C3124 1.400 . S
C3123 C3128 1.490 . S
C3124 H3114 0.930 . S
C3124 C3123 1.400 . S
C3124 C3127 1.404 . S
H3125 C3141 0.930 . S
H3126 C3142 0.931 . S
C3127 H3115 0.920 . S
C3127 C3121 1.386 1_545 S
C3127 C3124 1.404 . S
C3128 C3123 1.490 . S
C3128 C3130 1.395 . S
C3128 C3131 1.403 1_545 S
H3129 C3135 0.930 . S
C3130 H3116 0.930 . S
C3130 C3128 1.395 . S
C3130 C3133 1.403 . S
C3131 C3128 1.403 1_565 S
C3131 C3132 1.524 . S
C3131 C3135 1.400 . S
C3132 H3117 0.960 . S
C3132 H3118 0.960 . S
C3132 H3119 0.960 . S
C3132 C3131 1.524 . S
C3133 C3130 1.403 . S
C3133 C3134 1.392 . S
C3133 C3137 1.495 . S
C3134 C3133 1.392 . S
C3134 C3135 1.385 1_545 S
C3134 C3136 1.478 . S
C3135 H3129 0.930 . S
C3135 C3131 1.400 . S
C3135 C3134 1.385 1_565 S
C3136 C3134 1.478 . S
C3136 C3138 1.381 . S
C3136 C3142 1.383 . S
C3137 C3133 1.495 . S
C3137 H3143 0.959 . S
C3137 H3144 0.961 . S
C3137 H3145 0.960 . S
C3138 C3136 1.381 . S
C3138 C3139 1.394 . S
C3138 H3146 0.930 . S
C3139 C3138 1.394 . S
C3139 C3140 1.383 . S
C3139 H3147 0.929 . S
C3140 C3139 1.383 . S
C3140 C3141 1.377 . S
C3141 H3125 0.930 . S
C3141 C3140 1.377 . S
C3141 C3142 1.379 . S
C3142 H3126 0.931 . S
C3142 C3136 1.383 . S
C3142 C3141 1.379 . S
H3143 C3137 0.959 . S
H3144 C3137 0.961 . S
H3145 C3137 0.960 . S
H3146 C3138 0.930 . S
H3147 C3139 0.929 . S
H3148 C3156 0.929 . S
H3149 C3158 0.930 . S
H3150 C3160 0.930 . S
H3151 C3163 0.929 . S
H3152 C3166 0.930 . S
H3153 C3168 0.960 . S
H3154 C3168 0.960 . S
H3155 C3168 0.960 . S
C3156 H3148 0.929 . S
C3156 C3157 1.377 . S
C3156 C3158 1.384 . S
C3157 C3156 1.377 . S
C3157 C3163 1.390 . S
C3158 H3149 0.930 . S
C3158 C3156 1.384 . S
C3158 C3159 1.372 . S
C3159 C3158 1.372 . S
C3159 C3160 1.400 . S
C3159 C3164 1.490 . S
C3160 H3150 0.930 . S
C3160 C3159 1.400 . S
C3160 C3163 1.386 . S
H3161 C3177 0.930 . S
H3162 C3178 0.931 . S
C3163 H3151 0.929 . S
C3163 C3157 1.390 . S
C3163 C3160 1.386 . S
C3164 C3159 1.490 . S
C3164 C3166 1.395 . S
C3164 C3167 1.403 . S
H3165 C3171 0.930 . S
C3166 H3152 0.930 . S
C3166 C3164 1.395 . S
C3166 C3169 1.403 . S
C3167 C3164 1.403 . S
C3167 C3168 1.524 . S
C3167 C3171 1.400 . S
C3168 H3153 0.960 . S
C3168 H3154 0.960 . S
C3168 H3155 0.960 . S
C3168 C3167 1.524 . S
C3169 C3166 1.403 . S
C3169 C3170 1.392 . S
C3169 C3173 1.495 . S
C3170 C3169 1.392 . S
C3170 C3171 1.385 . S
C3170 C3172 1.478 . S
C3171 H3165 0.930 . S
C3171 C3167 1.400 . S
C3171 C3170 1.385 . S
C3172 C3170 1.478 . S
C3172 C3174 1.381 . S
C3172 C3178 1.383 . S
C3173 C3169 1.495 . S
C3173 H3179 0.959 . S
C3173 H3180 0.961 . S
C3173 H3181 0.960 . S
C3174 C3172 1.381 . S
C3174 C3175 1.394 . S
C3174 H3182 0.930 . S
C3175 C3174 1.394 . S
C3175 C3176 1.383 . S
C3175 H3183 0.929 . S
C3176 C3175 1.383 . S
C3176 C3177 1.377 . S
C3177 H3161 0.930 . S
C3177 C3176 1.377 . S
C3177 C3178 1.379 . S
C3178 H3162 0.931 . S
C3178 C3172 1.383 . S
C3178 C3177 1.379 . S
H3179 C3173 0.959 . S
H3180 C3173 0.961 . S
H3181 C3173 0.960 . S
H3182 C3174 0.930 . S
H3183 C3175 0.929 . S
H3184 C3192 0.929 . S
H3185 C3194 0.930 . S
H3186 C3196 0.930 1_455 S
H3187 C3199 0.961 . S
H3188 C3202 0.881 1_565 S
H3189 C3204 0.960 1_455 S
H3190 C3204 0.960 . S
H3191 C3204 0.960 1_455 S
C3192 H3184 0.929 . S
C3192 C3193 1.377 . S
C3192 C3194 1.384 . S
C3193 C3192 1.377 . S
C3193 C3199 1.390 . S
C3194 H3185 0.930 . S
C3194 C3192 1.384 . S
C3194 C3195 1.372 . S
C3195 C3194 1.372 . S
C3195 C3196 1.400 . S
C3195 C3200 1.490 . S
C3196 H3186 0.930 1_655 S
C3196 C3195 1.400 . S
C3196 C3199 1.386 . S
H3197 C3213 0.930 . S
H3198 C3214 0.931 . S
C3199 H3187 0.961 . S
C3199 C3193 1.390 . S
C3199 C3196 1.386 . S
C3200 C3195 1.490 . S
C3200 C3202 1.467 . S
C3200 C3203 1.403 . S
H3201 C3207 0.935 . S
C3202 H3188 0.881 1_545 S
C3202 C3200 1.467 . S
C3202 C3205 1.382 1_545 S
C3203 C3200 1.403 . S
C3203 C3204 1.524 . S
C3203 C3207 1.395 1_655 S
C3204 H3189 0.960 1_655 S
C3204 H3190 0.960 . S
C3204 H3191 0.960 1_655 S
C3204 C3203 1.524 . S
C3205 C3202 1.382 1_565 S
C3205 C3206 1.392 1_565 S
C3205 C3209 1.495 . S
C3206 C3205 1.392 1_545 S
C3206 C3207 1.386 1_655 S
C3206 C3208 1.478 1_655 S
C3207 H3201 0.935 . S
C3207 C3203 1.395 1_455 S
C3207 C3206 1.386 1_455 S
C3208 C3206 1.478 1_455 S
C3208 C3210 1.381 1_455 S
C3208 C3214 1.383 . S
C3209 C3205 1.495 . S
C3209 H3215 0.959 . S
C3209 H3216 0.892 1_655 S
C3209 H3217 0.960 . S
C3210 C3208 1.381 1_655 S
C3210 C3211 1.394 . S
C3210 H3218 0.930 . S
C3211 C3210 1.394 . S
C3211 C3212 1.383 1_655 S
C3211 H3219 0.929 . S
C3212 C3211 1.383 1_455 S
C3212 C3213 1.377 . S
C3213 H3197 0.930 . S
C3213 C3212 1.377 . S
C3213 C3214 1.379 . S
C3214 H3198 0.931 . S
C3214 C3208 1.383 . S
C3214 C3213 1.379 . S
H3215 C3209 0.959 . S
H3216 C3209 0.892 1_455 S
H3217 C3209 0.960 . S
H3218 C3210 0.930 . S
H3219 C3211 0.929 . S
H3220 C3228 0.929 . S
H3221 C3230 0.930 . S
H3222 C3232 0.930 . S
H3223 C3235 0.929 . S
H3224 C3238 0.930 . S
H3225 C3240 0.960 . S
H3226 C3240 0.960 . S
H3227 C3240 0.960 . S
C3228 H3220 0.929 . S
C3228 C3229 1.377 . S
C3228 C3230 1.384 . S
C3229 C3228 1.377 . S
C3229 C3235 1.390 . S
C3230 H3221 0.930 . S
C3230 C3228 1.384 . S
C3230 C3231 1.372 . S
C3231 C3230 1.372 . S
C3231 C3232 1.400 . S
C3231 C3236 1.490 . S
C3232 H3222 0.930 . S
C3232 C3231 1.400 . S
C3232 C3235 1.386 . S
H3233 C3249 0.930 . S
H3234 C3250 0.931 . S
C3235 H3223 0.929 . S
C3235 C3229 1.390 . S
C3235 C3232 1.386 . S
C3236 C3231 1.490 . S
C3236 C3238 1.395 . S
C3236 C3239 1.403 . S
H3237 C3243 0.930 . S
C3238 H3224 0.930 . S
C3238 C3236 1.395 . S
C3238 C3241 1.403 . S
C3239 C3236 1.403 . S
C3239 C3240 1.524 . S
C3239 C3243 1.400 . S
C3240 H3225 0.960 . S
C3240 H3226 0.960 . S
C3240 H3227 0.960 . S
C3240 C3239 1.524 . S
C3241 C3238 1.403 . S
C3241 C3242 1.392 . S
C3241 C3245 1.495 . S
C3242 C3241 1.392 . S
C3242 C3243 1.385 . S
C3242 C3244 1.478 . S
C3243 H3237 0.930 . S
C3243 C3239 1.400 . S
C3243 C3242 1.385 . S
C3244 C3242 1.478 . S
C3244 C3246 1.381 . S
C3244 C3250 1.383 . S
C3245 C3241 1.495 . S
C3245 H3251 0.959 . S
C3245 H3252 0.961 . S
C3245 H3253 0.960 . S
C3246 C3244 1.381 . S
C3246 C3247 1.394 . S
C3246 H3254 0.930 . S
C3247 C3246 1.394 . S
C3247 C3248 1.383 . S
C3247 H3255 0.929 . S
C3248 C3247 1.383 . S
C3248 C3249 1.377 . S
C3249 H3233 0.930 . S
C3249 C3248 1.377 . S
C3249 C3250 1.379 . S
C3250 H3234 0.931 . S
C3250 C3244 1.383 . S
C3250 C3249 1.379 . S
H3251 C3245 0.959 . S
H3252 C3245 0.961 . S
H3253 C3245 0.960 . S
H3254 C3246 0.930 . S
H3255 C3247 0.929 . S
H3256 C3264 0.929 . S
H3257 C3266 0.930 . S
H3258 C3268 0.930 1_565 S
H3259 C3271 0.884 1_565 S
H3260 C3274 0.930 . S
H3261 C3276 0.960 . S
H3262 C3276 0.960 . S
H3263 C3276 0.960 . S
C3264 H3256 0.929 . S
C3264 C3265 1.377 . S
C3264 C3266 1.384 . S
C3265 C3264 1.377 . S
C3265 C3271 1.430 . S
C3266 H3257 0.930 . S
C3266 C3264 1.384 . S
C3266 C3267 1.372 . S
C3267 C3266 1.372 . S
C3267 C3268 1.400 . S
C3267 C3272 1.490 . S
C3268 H3258 0.930 1_545 S
C3268 C3267 1.400 . S
C3268 C3271 1.394 . S
H3269 C3285 0.930 . S
H3270 C3286 0.941 . S
C3271 H3259 0.884 1_545 S
C3271 C3265 1.430 . S
C3271 C3268 1.394 . S
C3272 C3267 1.490 . S
C3272 C3274 1.395 . S
C3272 C3275 1.403 . S
H3273 C3279 0.930 . S
C3274 H3260 0.930 . S
C3274 C3272 1.395 . S
C3274 C3277 1.403 . S
C3275 C3272 1.403 . S
C3275 C3276 1.524 . S
C3275 C3279 1.400 . S
C3276 H3261 0.960 . S
C3276 H3262 0.960 . S
C3276 H3263 0.960 . S
C3276 C3275 1.524 . S
C3277 C3274 1.403 . S
C3277 C3278 1.392 . S
C3277 C3281 1.495 . S
C3278 C3277 1.392 . S
C3278 C3279 1.385 . S
C3278 C3280 1.478 . S
C3279 H3273 0.930 . S
C3279 C3275 1.400 . S
C3279 C3278 1.385 . S
C3280 C3278 1.478 . S
C3280 C3282 1.381 . S
C3280 C3286 1.383 . S
C3281 C3277 1.495 . S
C3281 H3287 0.959 . S
C3281 H3288 0.961 1_545 S
C3281 H3289 0.960 . S
C3282 C3280 1.381 . S
C3282 C3283 1.394 . S
C3282 H3290 0.930 . S
C3283 C3282 1.394 . S
C3283 C3284 1.383 . S
C3283 H3291 0.929 . S
C3284 C3283 1.383 . S
C3284 C3285 1.377 . S
C3285 H3269 0.930 . S
C3285 C3284 1.377 . S
C3285 C3286 1.379 . S
C3286 H3270 0.941 . S
C3286 C3280 1.383 . S
C3286 C3285 1.379 . S
H3287 C3281 0.959 . S
H3288 C3281 0.961 1_565 S
H3289 C3281 0.960 . S
H3290 C3282 0.930 . S
H3291 C3283 0.929 . S
H3292 C3300 0.929 . S
H3293 C3302 0.930 . S
H3294 C3304 0.930 . S
H3295 C3307 0.929 . S
H3296 C3310 0.930 . S
H3297 C3312 0.960 . S
H3298 C3312 0.960 . S
H3299 C3312 0.960 . S
C3300 H3292 0.929 . S
C3300 C3301 1.377 . S
C3300 C3302 1.384 . S
C3301 C3300 1.377 . S
C3301 C3307 1.390 . S
C3302 H3293 0.930 . S
C3302 C3300 1.384 . S
C3302 C3303 1.372 . S
C3303 C3302 1.372 . S
C3303 C3304 1.400 . S
C3303 C3308 1.490 . S
C3304 H3294 0.930 . S
C3304 C3303 1.400 . S
C3304 C3307 1.386 . S
H3305 C3321 0.930 . S
H3306 C3322 0.931 . S
C3307 H3295 0.929 . S
C3307 C3301 1.390 . S
C3307 C3304 1.386 . S
C3308 C3303 1.490 . S
C3308 C3310 1.395 . S
C3308 C3311 1.403 . S
H3309 C3315 0.930 . S
C3310 H3296 0.930 . S
C3310 C3308 1.395 . S
C3310 C3313 1.403 . S
C3311 C3308 1.403 . S
C3311 C3312 1.524 . S
C3311 C3315 1.400 . S
C3312 H3297 0.960 . S
C3312 H3298 0.960 . S
C3312 H3299 0.960 . S
C3312 C3311 1.524 . S
C3313 C3310 1.403 . S
C3313 C3314 1.392 . S
C3313 C3317 1.495 . S
C3314 C3313 1.392 . S
C3314 C3315 1.385 . S
C3314 C3316 1.478 . S
C3315 H3309 0.930 . S
C3315 C3311 1.400 . S
C3315 C3314 1.385 . S
C3316 C3314 1.478 . S
C3316 C3318 1.381 . S
C3316 C3322 1.383 . S
C3317 C3313 1.495 . S
C3317 H3323 0.959 . S
C3317 H3324 0.961 . S
C3317 H3325 0.960 . S
C3318 C3316 1.381 . S
C3318 C3319 1.394 . S
C3318 H3326 0.930 . S
C3319 C3318 1.394 . S
C3319 C3320 1.383 . S
C3319 H3327 0.929 . S
C3320 C3319 1.383 . S
C3320 C3321 1.377 . S
C3321 H3305 0.930 . S
C3321 C3320 1.377 . S
C3321 C3322 1.379 . S
C3322 H3306 0.931 . S
C3322 C3316 1.383 . S
C3322 C3321 1.379 . S
H3323 C3317 0.959 . S
H3324 C3317 0.961 . S
H3325 C3317 0.960 . S
H3326 C3318 0.930 . S
H3327 C3319 0.929 . S
H3328 C3336 0.929 . S
H3329 C3338 0.930 . S
H3330 C3340 0.930 . S
H3331 C3343 0.929 . S
H3332 C3346 0.930 1_556 S
H3333 C3348 0.960 . S
H3334 C3348 0.960 . S
H3335 C3348 0.960 . S
C3336 H3328 0.929 . S
C3336 C3337 1.393 . S
C3336 C3338 1.384 . S
C3337 C3336 1.393 . S
C3337 C3343 1.368 1_556 S
C3338 H3329 0.930 . S
C3338 C3336 1.384 . S
C3338 C3339 1.372 1_556 S
C3339 C3338 1.372 1_554 S
C3339 C3340 1.400 . S
C3339 C3344 1.490 . S
C3340 H3330 0.930 . S
C3340 C3339 1.400 . S
C3340 C3343 1.386 . S
H3341 C3357 0.930 . S
H3342 C3358 0.931 . S
C3343 H3331 0.929 . S
C3343 C3337 1.368 1_554 S
C3343 C3340 1.386 . S
C3344 C3339 1.490 . S
C3344 C3346 1.395 . S
C3344 C3347 1.403 . S
H3345 C3351 0.930 . S
C3346 H3332 0.930 1_554 S
C3346 C3344 1.395 . S
C3346 C3349 1.403 . S
C3347 C3344 1.403 . S
C3347 C3348 1.524 . S
C3347 C3351 1.400 . S
C3348 H3333 0.960 . S
C3348 H3334 0.960 . S
C3348 H3335 0.960 . S
C3348 C3347 1.524 . S
C3349 C3346 1.403 . S
C3349 C3350 1.392 . S
C3349 C3353 1.492 1_554 S
C3350 C3349 1.392 . S
C3350 C3351 1.385 . S
C3350 C3352 1.478 . S
C3351 H3345 0.930 . S
C3351 C3347 1.400 . S
C3351 C3350 1.385 . S
C3352 C3350 1.478 . S
C3352 C3354 1.381 . S
C3352 C3358 1.383 . S
C3353 C3349 1.492 1_556 S
C3353 H3359 0.965 . S
C3353 H3360 0.953 1_556 S
C3353 H3361 0.965 . S
C3354 C3352 1.381 . S
C3354 C3355 1.394 . S
C3354 H3362 0.930 . S
C3355 C3354 1.394 . S
C3355 C3356 1.383 . S
C3355 H3363 0.929 . S
C3356 C3355 1.383 . S
C3356 C3357 1.377 . S
C3357 H3341 0.930 . S
C3357 C3356 1.377 . S
C3357 C3358 1.379 . S
C3358 H3342 0.931 . S
C3358 C3352 1.383 . S
C3358 C3357 1.379 . S
H3359 C3353 0.965 . S
H3360 C3353 0.953 1_554 S
H3361 C3353 0.965 . S
H3362 C3354 0.930 . S
H3363 C3355 0.929 . S
H3364 C3372 0.929 . S
H3365 C3374 0.930 . S
H3366 C3376 0.930 . S
H3367 C3379 0.929 . S
H3368 C3382 0.908 1_556 S
H3369 C3384 0.960 . S
H3370 C3384 0.960 . S
H3371 C3384 0.960 . S
C3372 H3364 0.929 . S
C3372 C3373 1.377 . S
C3372 C3374 1.384 . S
C3373 C3372 1.377 . S
C3373 C3379 1.390 1_554 S
C3374 H3365 0.930 . S
C3374 C3372 1.384 . S
C3374 C3375 1.372 . S
C3375 C3374 1.372 . S
C3375 C3376 1.400 1_554 S
C3375 C3380 1.490 . S
C3376 H3366 0.930 . S
C3376 C3375 1.400 1_556 S
C3376 C3379 1.386 . S
H3377 C3393 0.940 . S
H3378 C3394 0.931 . S
C3379 H3367 0.929 . S
C3379 C3373 1.390 1_556 S
C3379 C3376 1.386 . S
C3380 C3375 1.490 . S
C3380 C3382 1.395 . S
C3380 C3383 1.403 . S
H3381 C3387 0.930 . S
C3382 H3368 0.908 1_554 S
C3382 C3380 1.395 . S
C3382 C3385 1.403 . S
C3383 C3380 1.403 . S
C3383 C3384 1.524 . S
C3383 C3387 1.400 . S
C3384 H3369 0.960 . S
C3384 H3370 0.960 . S
C3384 H3371 0.960 . S
C3384 C3383 1.524 . S
C3385 C3382 1.403 . S
C3385 C3386 1.392 . S
C3385 C3389 1.495 1_554 S
C3386 C3385 1.392 . S
C3386 C3387 1.385 . S
C3386 C3388 1.478 . S
C3387 H3381 0.930 . S
C3387 C3383 1.400 . S
C3387 C3386 1.385 . S
C3388 C3386 1.478 . S
C3388 C3390 1.381 . S
C3388 C3394 1.383 1_554 S
C3389 C3385 1.495 1_556 S
C3389 H3395 0.959 . S
C3389 H3396 0.961 . S
C3389 H3397 0.960 1_556 S
C3390 C3388 1.381 . S
C3390 C3391 1.394 . S
C3390 H3398 0.930 . S
C3391 C3390 1.394 . S
C3391 C3392 1.383 . S
C3391 H3399 0.929 . S
C3392 C3391 1.383 . S
C3392 C3393 1.361 1_554 S
C3393 H3377 0.940 . S
C3393 C3392 1.361 1_556 S
C3393 C3394 1.385 . S
C3394 H3378 0.931 . S
C3394 C3388 1.383 1_556 S
C3394 C3393 1.385 . S
H3395 C3389 0.959 . S
H3396 C3389 0.961 . S
H3397 C3389 0.960 1_554 S
H3398 C3390 0.930 . S
H3399 C3391 0.929 . S
H3400 C3408 0.929 . S
H3401 C3410 0.930 . S
H3402 C3412 0.930 . S
H3403 C3415 0.929 . S
H3404 C3418 0.930 . S
H3405 C3420 0.960 . S
H3406 C3420 0.960 . S
H3407 C3420 0.960 . S
C3408 H3400 0.929 . S
C3408 C3409 1.377 . S
C3408 C3410 1.384 . S
C3409 C3408 1.377 . S
C3409 C3415 1.390 . S
C3410 H3401 0.930 . S
C3410 C3408 1.384 . S
C3410 C3411 1.372 . S
C3411 C3410 1.372 . S
C3411 C3412 1.400 . S
C3411 C3416 1.490 . S
C3412 H3402 0.930 . S
C3412 C3411 1.400 . S
C3412 C3415 1.386 . S
H3413 C3429 0.930 . S
H3414 C3430 0.931 . S
C3415 H3403 0.929 . S
C3415 C3409 1.390 . S
C3415 C3412 1.386 . S
C3416 C3411 1.490 . S
C3416 C3418 1.395 . S
C3416 C3419 1.403 . S
H3417 C3423 0.930 . S
C3418 H3404 0.930 . S
C3418 C3416 1.395 . S
C3418 C3421 1.403 . S
C3419 C3416 1.403 . S
C3419 C3420 1.524 . S
C3419 C3423 1.400 . S
C3420 H3405 0.960 . S
C3420 H3406 0.960 . S
C3420 H3407 0.960 . S
C3420 C3419 1.524 . S
C3421 C3418 1.403 . S
C3421 C3422 1.392 . S
C3421 C3425 1.495 . S
C3422 C3421 1.392 . S
C3422 C3423 1.385 . S
C3422 C3424 1.478 . S
C3423 H3417 0.930 . S
C3423 C3419 1.400 . S
C3423 C3422 1.385 . S
C3424 C3422 1.478 . S
C3424 C3426 1.381 . S
C3424 C3430 1.383 . S
C3425 C3421 1.495 . S
C3425 H3431 0.959 . S
C3425 H3432 0.961 . S
C3425 H3433 0.960 . S
C3426 C3424 1.381 . S
C3426 C3427 1.394 . S
C3426 H3434 0.930 . S
C3427 C3426 1.394 . S
C3427 C3428 1.383 . S
C3427 H3435 0.929 . S
C3428 C3427 1.383 . S
C3428 C3429 1.377 . S
C3429 H3413 0.930 . S
C3429 C3428 1.377 . S
C3429 C3430 1.379 . S
C3430 H3414 0.931 . S
C3430 C3424 1.383 . S
C3430 C3429 1.379 . S
H3431 C3425 0.959 . S
H3432 C3425 0.961 . S
H3433 C3425 0.960 . S
H3434 C3426 0.930 . S
H3435 C3427 0.929 . S
H3436 C3444 0.929 . S
H3437 C3446 0.930 . S
H3438 C3448 0.930 . S
H3439 C3451 0.929 . S
H3440 C3454 0.930 . S
H3441 C3456 0.960 . S
H3442 C3456 0.960 . S
H3443 C3456 0.960 . S
C3444 H3436 0.929 . S
C3444 C3445 1.377 . S
C3444 C3446 1.384 . S
C3445 C3444 1.377 . S
C3445 C3451 1.390 . S
C3446 H3437 0.930 . S
C3446 C3444 1.384 . S
C3446 C3447 1.372 . S
C3447 C3446 1.372 . S
C3447 C3448 1.400 . S
C3447 C3452 1.490 . S
C3448 H3438 0.930 . S
C3448 C3447 1.400 . S
C3448 C3451 1.386 . S
H3449 C3465 0.930 . S
H3450 C3466 0.931 . S
C3451 H3439 0.929 . S
C3451 C3445 1.390 . S
C3451 C3448 1.386 . S
C3452 C3447 1.490 . S
C3452 C3454 1.395 . S
C3452 C3455 1.403 . S
H3453 C3459 0.930 . S
C3454 H3440 0.930 . S
C3454 C3452 1.395 . S
C3454 C3457 1.403 . S
C3455 C3452 1.403 . S
C3455 C3456 1.524 . S
C3455 C3459 1.400 . S
C3456 H3441 0.960 . S
C3456 H3442 0.960 . S
C3456 H3443 0.960 . S
C3456 C3455 1.524 . S
C3457 C3454 1.403 . S
C3457 C3458 1.392 . S
C3457 C3461 1.495 . S
C3458 C3457 1.392 . S
C3458 C3459 1.385 . S
C3458 C3460 1.478 . S
C3459 H3453 0.930 . S
C3459 C3455 1.400 . S
C3459 C3458 1.385 . S
C3460 C3458 1.478 . S
C3460 C3462 1.381 . S
C3460 C3466 1.383 . S
C3461 C3457 1.495 . S
C3461 H3467 0.959 . S
C3461 H3468 0.961 . S
C3461 H3469 0.960 . S
C3462 C3460 1.381 . S
C3462 C3463 1.394 . S
C3462 H3470 0.930 . S
C3463 C3462 1.394 . S
C3463 C3464 1.383 . S
C3463 H3471 0.929 . S
C3464 C3463 1.383 . S
C3464 C3465 1.377 . S
C3465 H3449 0.930 . S
C3465 C3464 1.377 . S
C3465 C3466 1.379 . S
C3466 H3450 0.931 . S
C3466 C3460 1.383 . S
C3466 C3465 1.379 . S
H3467 C3461 0.959 . S
H3468 C3461 0.961 . S
H3469 C3461 0.960 . S
H3470 C3462 0.930 . S
H3471 C3463 0.929 . S
H3472 C3480 0.929 . S
H3473 C3482 0.930 . S
H3474 C3484 0.930 . S
H3475 C3487 0.929 . S
H3476 C3490 0.930 . S
H3477 C3492 0.960 . S
H3478 C3492 0.960 . S
H3479 C3492 0.960 . S
C3480 H3472 0.929 . S
C3480 C3481 1.377 . S
C3480 C3482 1.384 . S
C3481 C3480 1.377 . S
C3481 C3487 1.390 . S
C3482 H3473 0.930 . S
C3482 C3480 1.384 . S
C3482 C3483 1.372 . S
C3483 C3482 1.372 . S
C3483 C3484 1.400 . S
C3483 C3488 1.490 . S
C3484 H3474 0.930 . S
C3484 C3483 1.400 . S
C3484 C3487 1.386 . S
H3485 C3501 0.930 . S
H3486 C3502 0.931 . S
C3487 H3475 0.929 . S
C3487 C3481 1.390 . S
C3487 C3484 1.386 . S
C3488 C3483 1.490 . S
C3488 C3490 1.395 . S
C3488 C3491 1.403 . S
H3489 C3495 0.930 . S
C3490 H3476 0.930 . S
C3490 C3488 1.395 . S
C3490 C3493 1.403 . S
C3491 C3488 1.403 . S
C3491 C3492 1.524 . S
C3491 C3495 1.400 . S
C3492 H3477 0.960 . S
C3492 H3478 0.960 . S
C3492 H3479 0.960 . S
C3492 C3491 1.524 . S
C3493 C3490 1.403 . S
C3493 C3494 1.392 . S
C3493 C3497 1.495 . S
C3494 C3493 1.392 . S
C3494 C3495 1.385 . S
C3494 C3496 1.478 . S
C3495 H3489 0.930 . S
C3495 C3491 1.400 . S
C3495 C3494 1.385 . S
C3496 C3494 1.478 . S
C3496 C3498 1.381 . S
C3496 C3502 1.383 . S
C3497 C3493 1.495 . S
C3497 H3503 0.959 . S
C3497 H3504 0.961 . S
C3497 H3505 0.960 . S
C3498 C3496 1.381 . S
C3498 C3499 1.394 . S
C3498 H3506 0.930 . S
C3499 C3498 1.394 . S
C3499 C3500 1.383 . S
C3499 H3507 0.929 . S
C3500 C3499 1.383 . S
C3500 C3501 1.377 . S
C3501 H3485 0.930 . S
C3501 C3500 1.377 . S
C3501 C3502 1.379 . S
C3502 H3486 0.931 . S
C3502 C3496 1.383 . S
C3502 C3501 1.379 . S
H3503 C3497 0.959 . S
H3504 C3497 0.961 . S
H3505 C3497 0.960 . S
H3506 C3498 0.930 . S
H3507 C3499 0.929 . S
H3508 C3516 0.929 . S
H3509 C3518 0.930 . S
H3510 C3520 0.930 . S
H3511 C3523 0.929 . S
H3512 C3526 0.930 . S
H3513 C3528 0.960 . S
H3514 C3528 0.960 . S
H3515 C3528 0.960 . S
C3516 H3508 0.929 . S
C3516 C3517 1.377 . S
C3516 C3518 1.384 . S
C3517 C3516 1.377 . S
C3517 C3523 1.390 . S
C3518 H3509 0.930 . S
C3518 C3516 1.384 . S
C3518 C3519 1.372 . S
C3519 C3518 1.372 . S
C3519 C3520 1.400 . S
C3519 C3524 1.490 . S
C3520 H3510 0.930 . S
C3520 C3519 1.400 . S
C3520 C3523 1.386 . S
H3521 C3537 0.930 . S
H3522 C3538 0.931 . S
C3523 H3511 0.929 . S
C3523 C3517 1.390 . S
C3523 C3520 1.386 . S
C3524 C3519 1.490 . S
C3524 C3526 1.395 . S
C3524 C3527 1.403 . S
H3525 C3531 0.930 . S
C3526 H3512 0.930 . S
C3526 C3524 1.395 . S
C3526 C3529 1.403 . S
C3527 C3524 1.403 . S
C3527 C3528 1.524 . S
C3527 C3531 1.400 . S
C3528 H3513 0.960 . S
C3528 H3514 0.960 . S
C3528 H3515 0.960 . S
C3528 C3527 1.524 . S
C3529 C3526 1.403 . S
C3529 C3530 1.392 . S
C3529 C3533 1.495 . S
C3530 C3529 1.392 . S
C3530 C3531 1.385 . S
C3530 C3532 1.478 . S
C3531 H3525 0.930 . S
C3531 C3527 1.400 . S
C3531 C3530 1.385 . S
C3532 C3530 1.478 . S
C3532 C3534 1.381 . S
C3532 C3538 1.383 . S
C3533 C3529 1.495 . S
C3533 H3539 0.959 . S
C3533 H3540 0.961 . S
C3533 H3541 0.960 . S
C3534 C3532 1.381 . S
C3534 C3535 1.394 . S
C3534 H3542 0.930 . S
C3535 C3534 1.394 . S
C3535 C3536 1.383 . S
C3535 H3543 0.929 . S
C3536 C3535 1.383 . S
C3536 C3537 1.377 . S
C3537 H3521 0.930 . S
C3537 C3536 1.377 . S
C3537 C3538 1.379 . S
C3538 H3522 0.931 . S
C3538 C3532 1.383 . S
C3538 C3537 1.379 . S
H3539 C3533 0.959 . S
H3540 C3533 0.961 . S
H3541 C3533 0.960 . S
H3542 C3534 0.930 . S
H3543 C3535 0.929 . S
H3544 C3552 0.929 . S
H3545 C3554 0.930 . S
H3546 C3556 0.930 . S
H3547 C3559 0.929 . S
H3548 C3562 0.930 . S
H3549 C3564 0.960 . S
H3550 C3564 0.960 . S
H3551 C3564 0.960 . S
C3552 H3544 0.929 . S
C3552 C3553 1.377 . S
C3552 C3554 1.384 . S
C3553 C3552 1.377 . S
C3553 C3559 1.390 . S
C3554 H3545 0.930 . S
C3554 C3552 1.384 . S
C3554 C3555 1.372 . S
C3555 C3554 1.372 . S
C3555 C3556 1.400 . S
C3555 C3560 1.490 . S
C3556 H3546 0.930 . S
C3556 C3555 1.400 . S
C3556 C3559 1.386 . S
H3557 C3573 0.930 . S
H3558 C3574 0.931 . S
C3559 H3547 0.929 . S
C3559 C3553 1.390 . S
C3559 C3556 1.386 . S
C3560 C3555 1.490 . S
C3560 C3562 1.395 . S
C3560 C3563 1.403 . S
H3561 C3567 0.930 . S
C3562 H3548 0.930 . S
C3562 C3560 1.395 . S
C3562 C3565 1.403 . S
C3563 C3560 1.403 . S
C3563 C3564 1.524 . S
C3563 C3567 1.400 . S
C3564 H3549 0.960 . S
C3564 H3550 0.960 . S
C3564 H3551 0.960 . S
C3564 C3563 1.524 . S
C3565 C3562 1.403 . S
C3565 C3566 1.392 . S
C3565 C3569 1.495 . S
C3566 C3565 1.392 . S
C3566 C3567 1.385 . S
C3566 C3568 1.478 . S
C3567 H3561 0.930 . S
C3567 C3563 1.400 . S
C3567 C3566 1.385 . S
C3568 C3566 1.478 . S
C3568 C3570 1.381 . S
C3568 C3574 1.383 . S
C3569 C3565 1.495 . S
C3569 H3575 0.959 . S
C3569 H3576 0.961 . S
C3569 H3577 0.960 . S
C3570 C3568 1.381 . S
C3570 C3571 1.394 . S
C3570 H3578 0.930 . S
C3571 C3570 1.394 . S
C3571 C3572 1.383 . S
C3571 H3579 0.929 . S
C3572 C3571 1.383 . S
C3572 C3573 1.377 . S
C3573 H3557 0.930 . S
C3573 C3572 1.377 . S
C3573 C3574 1.379 . S
C3574 H3558 0.931 . S
C3574 C3568 1.383 . S
C3574 C3573 1.379 . S
H3575 C3569 0.959 . S
H3576 C3569 0.961 . S
H3577 C3569 0.960 . S
H3578 C3570 0.930 . S
H3579 C3571 0.929 . S
H3580 C3588 0.929 . S
H3581 C3590 0.930 . S
H3582 C3592 0.930 . S
H3583 C3595 0.929 . S
H3584 C3598 0.930 . S
H3585 C3600 0.960 . S
H3586 C3600 0.960 . S
H3587 C3600 0.960 . S
C3588 H3580 0.929 . S
C3588 C3589 1.377 . S
C3588 C3590 1.384 . S
C3589 C3588 1.377 . S
C3589 C3595 1.390 . S
C3590 H3581 0.930 . S
C3590 C3588 1.384 . S
C3590 C3591 1.372 . S
C3591 C3590 1.372 . S
C3591 C3592 1.400 . S
C3591 C3596 1.490 . S
C3592 H3582 0.930 . S
C3592 C3591 1.400 . S
C3592 C3595 1.386 . S
H3593 C3609 0.930 . S
H3594 C3610 0.931 . S
C3595 H3583 0.929 . S
C3595 C3589 1.390 . S
C3595 C3592 1.386 . S
C3596 C3591 1.490 . S
C3596 C3598 1.395 . S
C3596 C3599 1.403 . S
H3597 C3603 0.930 . S
C3598 H3584 0.930 . S
C3598 C3596 1.395 . S
C3598 C3601 1.403 . S
C3599 C3596 1.403 . S
C3599 C3600 1.524 . S
C3599 C3603 1.400 . S
C3600 H3585 0.960 . S
C3600 H3586 0.960 . S
C3600 H3587 0.960 . S
C3600 C3599 1.524 . S
C3601 C3598 1.403 . S
C3601 C3602 1.392 . S
C3601 C3605 1.495 . S
C3602 C3601 1.392 . S
C3602 C3603 1.385 . S
C3602 C3604 1.478 . S
C3603 H3597 0.930 . S
C3603 C3599 1.400 . S
C3603 C3602 1.385 . S
C3604 C3602 1.478 . S
C3604 C3606 1.381 . S
C3604 C3610 1.383 . S
C3605 C3601 1.495 . S
C3605 H3611 0.959 . S
C3605 H3612 0.961 . S
C3605 H3613 0.960 . S
C3606 C3604 1.381 . S
C3606 C3607 1.394 . S
C3606 H3614 0.930 . S
C3607 C3606 1.394 . S
C3607 C3608 1.383 . S
C3607 H3615 0.929 . S
C3608 C3607 1.383 . S
C3608 C3609 1.377 . S
C3609 H3593 0.930 . S
C3609 C3608 1.377 . S
C3609 C3610 1.379 . S
C3610 H3594 0.931 . S
C3610 C3604 1.383 . S
C3610 C3609 1.379 . S
H3611 C3605 0.959 . S
H3612 C3605 0.961 . S
H3613 C3605 0.960 . S
H3614 C3606 0.930 . S
H3615 C3607 0.929 . S
H3616 C3624 0.929 . S
H3617 C3626 0.930 . S
H3618 C3628 0.930 . S
H3619 C3631 0.929 . S
H3620 C3634 0.930 . S
H3621 C3636 0.960 . S
H3622 C3636 0.960 . S
H3623 C3636 0.960 . S
C3624 H3616 0.929 . S
C3624 C3625 1.377 . S
C3624 C3626 1.384 . S
C3625 C3624 1.377 . S
C3625 C3631 1.390 . S
C3626 H3617 0.930 . S
C3626 C3624 1.384 . S
C3626 C3627 1.372 . S
C3627 C3626 1.372 . S
C3627 C3628 1.400 . S
C3627 C3632 1.490 . S
C3628 H3618 0.930 . S
C3628 C3627 1.400 . S
C3628 C3631 1.386 . S
H3629 C3645 0.930 . S
H3630 C3646 0.931 . S
C3631 H3619 0.929 . S
C3631 C3625 1.390 . S
C3631 C3628 1.386 . S
C3632 C3627 1.490 . S
C3632 C3634 1.395 . S
C3632 C3635 1.403 . S
H3633 C3639 0.930 . S
C3634 H3620 0.930 . S
C3634 C3632 1.395 . S
C3634 C3637 1.403 . S
C3635 C3632 1.403 . S
C3635 C3636 1.524 . S
C3635 C3639 1.400 . S
C3636 H3621 0.960 . S
C3636 H3622 0.960 . S
C3636 H3623 0.960 . S
C3636 C3635 1.524 . S
C3637 C3634 1.403 . S
C3637 C3638 1.392 . S
C3637 C3641 1.495 . S
C3638 C3637 1.392 . S
C3638 C3639 1.385 . S
C3638 C3640 1.478 . S
C3639 H3633 0.930 . S
C3639 C3635 1.400 . S
C3639 C3638 1.385 . S
C3640 C3638 1.478 . S
C3640 C3642 1.381 . S
C3640 C3646 1.383 . S
C3641 C3637 1.495 . S
C3641 H3647 0.959 . S
C3641 H3648 0.951 1_455 S
C3641 H3649 0.960 . S
C3642 C3640 1.381 . S
C3642 C3643 1.394 . S
C3642 H3650 0.930 . S
C3643 C3642 1.394 . S
C3643 C3644 1.383 . S
C3643 H3651 0.956 . S
C3644 C3643 1.383 . S
C3644 C3645 1.377 . S
C3645 H3629 0.930 . S
C3645 C3644 1.377 . S
C3645 C3646 1.379 . S
C3646 H3630 0.931 . S
C3646 C3640 1.383 . S
C3646 C3645 1.379 . S
H3647 C3641 0.959 . S
H3648 C3641 0.951 1_655 S
H3649 C3641 0.960 . S
H3650 C3642 0.930 . S
H3651 C3643 0.956 . S
H3652 C3660 0.929 . S
H3653 C3662 0.930 . S
H3654 C3664 0.930 . S
H3655 C3667 0.929 . S
H3656 C3670 0.930 . S
H3657 C3672 0.960 . S
H3658 C3672 0.960 . S
H3659 C3672 0.960 . S
C3660 H3652 0.929 . S
C3660 C3661 1.377 . S
C3660 C3662 1.384 . S
C3661 C3660 1.377 . S
C3661 C3667 1.390 . S
C3662 H3653 0.930 . S
C3662 C3660 1.384 . S
C3662 C3663 1.372 . S
C3663 C3662 1.372 . S
C3663 C3664 1.400 . S
C3663 C3668 1.490 . S
C3664 H3654 0.930 . S
C3664 C3663 1.400 . S
C3664 C3667 1.386 . S
H3665 C3681 0.930 . S
H3666 C3682 0.931 . S
C3667 H3655 0.929 . S
C3667 C3661 1.390 . S
C3667 C3664 1.386 . S
C3668 C3663 1.490 . S
C3668 C3670 1.395 . S
C3668 C3671 1.403 . S
H3669 C3675 0.930 . S
C3670 H3656 0.930 . S
C3670 C3668 1.395 . S
C3670 C3673 1.403 . S
C3671 C3668 1.403 . S
C3671 C3672 1.524 . S
C3671 C3675 1.400 . S
C3672 H3657 0.960 . S
C3672 H3658 0.960 . S
C3672 H3659 0.960 . S
C3672 C3671 1.524 . S
C3673 C3670 1.403 . S
C3673 C3674 1.392 . S
C3673 C3677 1.495 . S
C3674 C3673 1.392 . S
C3674 C3675 1.385 . S
C3674 C3676 1.478 . S
C3675 H3669 0.930 . S
C3675 C3671 1.400 . S
C3675 C3674 1.385 . S
C3676 C3674 1.478 . S
C3676 C3678 1.381 . S
C3676 C3682 1.383 . S
C3677 C3673 1.495 . S
C3677 H3683 0.959 . S
C3677 H3684 0.961 . S
C3677 H3685 0.960 . S
C3678 C3676 1.381 . S
C3678 C3679 1.394 . S
C3678 H3686 0.930 . S
C3679 C3678 1.394 . S
C3679 C3680 1.383 . S
C3679 H3687 0.929 . S
C3680 C3679 1.383 . S
C3680 C3681 1.377 . S
C3681 H3665 0.930 . S
C3681 C3680 1.377 . S
C3681 C3682 1.379 . S
C3682 H3666 0.931 . S
C3682 C3676 1.383 . S
C3682 C3681 1.379 . S
H3683 C3677 0.959 . S
H3684 C3677 0.961 . S
H3685 C3677 0.960 . S
H3686 C3678 0.930 . S
H3687 C3679 0.929 . S
H3688 C3696 0.929 . S
H3689 C3698 0.930 . S
H3690 C3700 0.930 . S
H3691 C3703 0.929 . S
H3692 C3706 0.930 . S
H3693 C3708 0.960 . S
H3694 C3708 0.960 . S
H3695 C3708 0.960 . S
C3696 H3688 0.929 . S
C3696 C3697 1.377 . S
C3696 C3698 1.384 . S
C3697 C3696 1.377 . S
C3697 C3703 1.390 . S
C3698 H3689 0.930 . S
C3698 C3696 1.384 . S
C3698 C3699 1.372 . S
C3699 C3698 1.372 . S
C3699 C3700 1.400 . S
C3699 C3704 1.490 . S
C3700 H3690 0.930 . S
C3700 C3699 1.400 . S
C3700 C3703 1.386 . S
H3701 C3717 0.930 . S
H3702 C3718 0.931 . S
C3703 H3691 0.929 . S
C3703 C3697 1.390 . S
C3703 C3700 1.386 . S
C3704 C3699 1.490 . S
C3704 C3706 1.395 . S
C3704 C3707 1.403 . S
H3705 C3711 0.930 . S
C3706 H3692 0.930 . S
C3706 C3704 1.395 . S
C3706 C3709 1.403 . S
C3707 C3704 1.403 . S
C3707 C3708 1.524 . S
C3707 C3711 1.400 . S
C3708 H3693 0.960 . S
C3708 H3694 0.960 . S
C3708 H3695 0.960 . S
C3708 C3707 1.524 . S
C3709 C3706 1.403 . S
C3709 C3710 1.392 . S
C3709 C3713 1.495 . S
C3710 C3709 1.392 . S
C3710 C3711 1.385 . S
C3710 C3712 1.478 . S
C3711 H3705 0.930 . S
C3711 C3707 1.400 . S
C3711 C3710 1.385 . S
C3712 C3710 1.478 . S
C3712 C3714 1.381 . S
C3712 C3718 1.383 . S
C3713 C3709 1.495 . S
C3713 H3719 0.959 . S
C3713 H3720 0.961 . S
C3713 H3721 0.960 . S
C3714 C3712 1.381 . S
C3714 C3715 1.394 . S
C3714 H3722 0.930 . S
C3715 C3714 1.394 . S
C3715 C3716 1.383 . S
C3715 H3723 0.929 . S
C3716 C3715 1.383 . S
C3716 C3717 1.377 . S
C3717 H3701 0.930 . S
C3717 C3716 1.377 . S
C3717 C3718 1.379 . S
C3718 H3702 0.931 . S
C3718 C3712 1.383 . S
C3718 C3717 1.379 . S
H3719 C3713 0.959 . S
H3720 C3713 0.961 . S
H3721 C3713 0.960 . S
H3722 C3714 0.930 . S
H3723 C3715 0.929 . S
H3724 C3732 0.929 . S
H3725 C3734 0.930 . S
H3726 C3736 0.930 . S
H3727 C3739 0.929 . S
H3728 C3742 0.930 . S
H3729 C3744 0.960 . S
H3730 C3744 0.960 . S
H3731 C3744 0.960 . S
C3732 H3724 0.929 . S
C3732 C3733 1.377 . S
C3732 C3734 1.384 . S
C3733 C3732 1.377 . S
C3733 C3739 1.390 . S
C3734 H3725 0.930 . S
C3734 C3732 1.384 . S
C3734 C3735 1.372 . S
C3735 C3734 1.372 . S
C3735 C3736 1.400 . S
C3735 C3740 1.490 . S
C3736 H3726 0.930 . S
C3736 C3735 1.400 . S
C3736 C3739 1.386 . S
H3737 C3753 0.930 . S
H3738 C3754 0.931 . S
C3739 H3727 0.929 . S
C3739 C3733 1.390 . S
C3739 C3736 1.386 . S
C3740 C3735 1.490 . S
C3740 C3742 1.395 . S
C3740 C3743 1.403 . S
H3741 C3747 0.930 . S
C3742 H3728 0.930 . S
C3742 C3740 1.395 . S
C3742 C3745 1.403 . S
C3743 C3740 1.403 . S
C3743 C3744 1.524 . S
C3743 C3747 1.400 . S
C3744 H3729 0.960 . S
C3744 H3730 0.960 . S
C3744 H3731 0.960 . S
C3744 C3743 1.524 . S
C3745 C3742 1.403 . S
C3745 C3746 1.392 . S
C3745 C3749 1.495 . S
C3746 C3745 1.392 . S
C3746 C3747 1.385 . S
C3746 C3748 1.478 . S
C3747 H3741 0.930 . S
C3747 C3743 1.400 . S
C3747 C3746 1.385 . S
C3748 C3746 1.478 . S
C3748 C3750 1.381 . S
C3748 C3754 1.383 . S
C3749 C3745 1.495 . S
C3749 H3755 0.959 . S
C3749 H3756 0.961 . S
C3749 H3757 0.960 . S
C3750 C3748 1.381 . S
C3750 C3751 1.394 . S
C3750 H3758 0.930 . S
C3751 C3750 1.394 . S
C3751 C3752 1.383 . S
C3751 H3759 0.929 . S
C3752 C3751 1.383 . S
C3752 C3753 1.377 . S
C3753 H3737 0.930 . S
C3753 C3752 1.377 . S
C3753 C3754 1.379 . S
C3754 H3738 0.931 . S
C3754 C3748 1.383 . S
C3754 C3753 1.379 . S
H3755 C3749 0.959 . S
H3756 C3749 0.961 . S
H3757 C3749 0.960 . S
H3758 C3750 0.930 . S
H3759 C3751 0.929 . S
H3760 C3768 0.929 . S
H3761 C3770 0.930 . S
H3762 C3772 0.930 . S
H3763 C3775 0.929 . S
H3764 C3778 0.930 . S
H3765 C3780 0.960 . S
H3766 C3780 0.960 1_455 S
H3767 C3780 0.960 . S
C3768 H3760 0.929 . S
C3768 C3769 1.377 1_455 S
C3768 C3770 1.384 . S
C3769 C3768 1.377 1_655 S
C3769 C3775 1.390 . S
C3770 H3761 0.930 . S
C3770 C3768 1.384 . S
C3770 C3771 1.379 . S
C3771 C3770 1.379 . S
C3771 C3772 1.391 1_455 S
C3771 C3776 1.486 . S
C3772 H3762 0.930 . S
C3772 C3771 1.391 1_655 S
C3772 C3775 1.386 . S
H3773 C3789 0.930 . S
H3774 C3790 0.931 . S
C3775 H3763 0.929 . S
C3775 C3769 1.390 . S
C3775 C3772 1.386 . S
C3776 C3771 1.486 . S
C3776 C3778 1.393 . S
C3776 C3779 1.418 1_455 S
H3777 C3783 0.928 . S
C3778 H3764 0.930 . S
C3778 C3776 1.393 . S
C3778 C3781 1.403 . S
C3779 C3776 1.418 1_655 S
C3779 C3780 1.521 . S
C3779 C3783 1.399 . S
C3780 H3765 0.960 . S
C3780 H3766 0.960 1_655 S
C3780 H3767 0.960 . S
C3780 C3779 1.521 . S
C3781 C3778 1.403 . S
C3781 C3782 1.392 . S
C3781 C3785 1.495 . S
C3782 C3781 1.392 . S
C3782 C3783 1.386 1_455 S
C3782 C3784 1.478 . S
C3783 H3777 0.928 . S
C3783 C3779 1.399 . S
C3783 C3782 1.386 1_655 S
C3784 C3782 1.478 . S
C3784 C3786 1.381 . S
C3784 C3790 1.383 1_455 S
C3785 C3781 1.495 . S
C3785 H3791 0.959 . S
C3785 H3792 0.961 1_455 S
C3785 H3793 0.960 . S
C3786 C3784 1.381 . S
C3786 C3787 1.394 . S
C3786 H3794 0.930 . S
C3787 C3786 1.394 . S
C3787 C3788 1.383 . S
C3787 H3795 0.929 . S
C3788 C3787 1.383 . S
C3788 C3789 1.377 1_455 S
C3789 H3773 0.930 . S
C3789 C3788 1.377 1_655 S
C3789 C3790 1.379 . S
C3790 H3774 0.931 . S
C3790 C3784 1.383 1_655 S
C3790 C3789 1.379 . S
H3791 C3785 0.959 . S
H3792 C3785 0.961 1_655 S
H3793 C3785 0.960 . S
H3794 C3786 0.930 . S
H3795 C3787 0.929 . S
H3796 C3804 0.929 . S
H3797 C3806 0.930 . S
H3798 C3808 0.930 . S
H3799 C3811 0.929 . S
H3800 C3814 0.930 . S
H3801 C3816 0.960 . S
H3802 C3816 0.960 . S
H3803 C3816 0.960 . S
C3804 H3796 0.929 . S
C3804 C3805 1.377 . S
C3804 C3806 1.384 . S
C3805 C3804 1.377 . S
C3805 C3811 1.390 . S
C3806 H3797 0.930 . S
C3806 C3804 1.384 . S
C3806 C3807 1.372 . S
C3807 C3806 1.372 . S
C3807 C3808 1.400 . S
C3807 C3812 1.490 . S
C3808 H3798 0.930 . S
C3808 C3807 1.400 . S
C3808 C3811 1.386 . S
H3809 C3825 0.930 . S
H3810 C3826 0.931 . S
C3811 H3799 0.929 . S
C3811 C3805 1.390 . S
C3811 C3808 1.386 . S
C3812 C3807 1.490 . S
C3812 C3814 1.395 . S
C3812 C3815 1.403 . S
H3813 C3819 0.930 . S
C3814 H3800 0.930 . S
C3814 C3812 1.395 . S
C3814 C3817 1.403 . S
C3815 C3812 1.403 . S
C3815 C3816 1.524 . S
C3815 C3819 1.400 . S
C3816 H3801 0.960 . S
C3816 H3802 0.960 . S
C3816 H3803 0.960 . S
C3816 C3815 1.524 . S
C3817 C3814 1.403 . S
C3817 C3818 1.392 . S
C3817 C3821 1.495 . S
C3818 C3817 1.392 . S
C3818 C3819 1.385 . S
C3818 C3820 1.478 . S
C3819 H3813 0.930 . S
C3819 C3815 1.400 . S
C3819 C3818 1.385 . S
C3820 C3818 1.478 . S
C3820 C3822 1.381 . S
C3820 C3826 1.383 . S
C3821 C3817 1.495 . S
C3821 H3827 0.959 . S
C3821 H3828 0.961 . S
C3821 H3829 0.960 . S
C3822 C3820 1.381 . S
C3822 C3823 1.394 . S
C3822 H3830 0.930 . S
C3823 C3822 1.394 . S
C3823 C3824 1.383 . S
C3823 H3831 0.929 . S
C3824 C3823 1.383 . S
C3824 C3825 1.377 . S
C3825 H3809 0.930 . S
C3825 C3824 1.377 . S
C3825 C3826 1.379 . S
C3826 H3810 0.931 . S
C3826 C3820 1.383 . S
C3826 C3825 1.379 . S
H3827 C3821 0.959 . S
H3828 C3821 0.961 . S
H3829 C3821 0.960 . S
H3830 C3822 0.930 . S
H3831 C3823 0.929 . S
H3832 C3840 0.929 . S
H3833 C3842 0.930 . S
H3834 C3844 0.930 . S
H3835 C3847 0.929 . S
H3836 C3850 0.930 . S
H3837 C3852 0.960 . S
H3838 C3852 0.960 . S
H3839 C3852 0.960 . S
C3840 H3832 0.929 . S
C3840 C3841 1.377 . S
C3840 C3842 1.384 . S
C3841 C3840 1.377 . S
C3841 C3847 1.390 . S
C3842 H3833 0.930 . S
C3842 C3840 1.384 . S
C3842 C3843 1.372 . S
C3843 C3842 1.372 . S
C3843 C3844 1.400 . S
C3843 C3848 1.490 . S
C3844 H3834 0.930 . S
C3844 C3843 1.400 . S
C3844 C3847 1.386 . S
H3845 C3861 0.930 . S
H3846 C3862 0.931 . S
C3847 H3835 0.929 . S
C3847 C3841 1.390 . S
C3847 C3844 1.386 . S
C3848 C3843 1.490 . S
C3848 C3850 1.395 . S
C3848 C3851 1.403 . S
H3849 C3855 0.930 . S
C3850 H3836 0.930 . S
C3850 C3848 1.395 . S
C3850 C3853 1.403 . S
C3851 C3848 1.403 . S
C3851 C3852 1.524 . S
C3851 C3855 1.400 . S
C3852 H3837 0.960 . S
C3852 H3838 0.960 . S
C3852 H3839 0.960 . S
C3852 C3851 1.524 . S
C3853 C3850 1.403 . S
C3853 C3854 1.392 . S
C3853 C3857 1.495 . S
C3854 C3853 1.392 . S
C3854 C3855 1.385 . S
C3854 C3856 1.478 . S
C3855 H3849 0.930 . S
C3855 C3851 1.400 . S
C3855 C3854 1.385 . S
C3856 C3854 1.478 . S
C3856 C3858 1.381 . S
C3856 C3862 1.383 . S
C3857 C3853 1.495 . S
C3857 H3863 0.959 . S
C3857 H3864 0.961 . S
C3857 H3865 0.960 . S
C3858 C3856 1.381 . S
C3858 C3859 1.394 . S
C3858 H3866 0.930 . S
C3859 C3858 1.394 . S
C3859 C3860 1.383 . S
C3859 H3867 0.929 . S
C3860 C3859 1.383 . S
C3860 C3861 1.377 . S
C3861 H3845 0.930 . S
C3861 C3860 1.377 . S
C3861 C3862 1.379 . S
C3862 H3846 0.931 . S
C3862 C3856 1.383 . S
C3862 C3861 1.379 . S
H3863 C3857 0.959 . S
H3864 C3857 0.961 . S
H3865 C3857 0.960 . S
H3866 C3858 0.930 . S
H3867 C3859 0.929 . S
H3868 C3876 0.929 . S
H3869 C3878 0.930 . S
H3870 C3880 0.930 . S
H3871 C3883 0.929 . S
H3872 C3886 0.930 . S
H3873 C3888 0.960 . S
H3874 C3888 0.960 . S
H3875 C3888 0.960 . S
C3876 H3868 0.929 . S
C3876 C3877 1.377 . S
C3876 C3878 1.384 . S
C3877 C3876 1.377 . S
C3877 C3883 1.390 . S
C3878 H3869 0.930 . S
C3878 C3876 1.384 . S
C3878 C3879 1.372 . S
C3879 C3878 1.372 . S
C3879 C3880 1.400 . S
C3879 C3884 1.490 . S
C3880 H3870 0.930 . S
C3880 C3879 1.400 . S
C3880 C3883 1.386 . S
H3881 C3897 0.930 . S
H3882 C3898 0.931 . S
C3883 H3871 0.929 . S
C3883 C3877 1.390 . S
C3883 C3880 1.386 . S
C3884 C3879 1.490 . S
C3884 C3886 1.395 . S
C3884 C3887 1.403 . S
H3885 C3891 0.930 . S
C3886 H3872 0.930 . S
C3886 C3884 1.395 . S
C3886 C3889 1.403 . S
C3887 C3884 1.403 . S
C3887 C3888 1.524 . S
C3887 C3891 1.400 . S
C3888 H3873 0.960 . S
C3888 H3874 0.960 . S
C3888 H3875 0.960 . S
C3888 C3887 1.524 . S
C3889 C3886 1.403 . S
C3889 C3890 1.392 . S
C3889 C3893 1.495 . S
C3890 C3889 1.392 . S
C3890 C3891 1.385 . S
C3890 C3892 1.478 . S
C3891 H3885 0.930 . S
C3891 C3887 1.400 . S
C3891 C3890 1.385 . S
C3892 C3890 1.478 . S
C3892 C3894 1.381 . S
C3892 C3898 1.383 . S
C3893 C3889 1.495 . S
C3893 H3899 0.959 . S
C3893 H3900 0.961 . S
C3893 H3901 0.960 . S
C3894 C3892 1.381 . S
C3894 C3895 1.394 . S
C3894 H3902 0.930 . S
C3895 C3894 1.394 . S
C3895 C3896 1.383 . S
C3895 H3903 0.929 . S
C3896 C3895 1.383 . S
C3896 C3897 1.377 . S
C3897 H3881 0.930 . S
C3897 C3896 1.377 . S
C3897 C3898 1.379 . S
C3898 H3882 0.931 . S
C3898 C3892 1.383 . S
C3898 C3897 1.379 . S
H3899 C3893 0.959 . S
H3900 C3893 0.961 . S
H3901 C3893 0.960 . S
H3902 C3894 0.930 . S
H3903 C3895 0.929 . S
H3904 C3912 0.929 . S
H3905 C3914 0.930 . S
H3906 C3916 0.930 . S
H3907 C3919 0.929 . S
H3908 C3922 0.930 . S
H3909 C3924 0.960 . S
H3910 C3924 0.960 . S
H3911 C3924 0.960 . S
C3912 H3904 0.929 . S
C3912 C3913 1.377 . S
C3912 C3914 1.384 . S
C3913 C3912 1.377 . S
C3913 C3919 1.390 . S
C3914 H3905 0.930 . S
C3914 C3912 1.384 . S
C3914 C3915 1.372 . S
C3915 C3914 1.372 . S
C3915 C3916 1.400 . S
C3915 C3920 1.490 . S
C3916 H3906 0.930 . S
C3916 C3915 1.400 . S
C3916 C3919 1.386 . S
H3917 C3933 0.930 . S
H3918 C3934 0.931 . S
C3919 H3907 0.929 . S
C3919 C3913 1.390 . S
C3919 C3916 1.386 . S
C3920 C3915 1.490 . S
C3920 C3922 1.395 . S
C3920 C3923 1.389 1_545 S
H3921 C3927 0.918 1_565 S
C3922 H3908 0.930 . S
C3922 C3920 1.395 . S
C3922 C3925 1.403 . S
C3923 C3920 1.389 1_565 S
C3923 C3924 1.538 . S
C3923 C3927 1.401 1_565 S
C3924 H3909 0.960 . S
C3924 H3910 0.960 . S
C3924 H3911 0.960 . S
C3924 C3923 1.538 . S
C3925 C3922 1.403 . S
C3925 C3926 1.392 . S
C3925 C3929 1.495 . S
C3926 C3925 1.392 . S
C3926 C3927 1.397 . S
C3926 C3928 1.478 . S
C3927 H3921 0.918 1_545 S
C3927 C3923 1.401 1_545 S
C3927 C3926 1.397 . S
C3928 C3926 1.478 . S
C3928 C3930 1.381 . S
C3928 C3934 1.383 . S
C3929 C3925 1.495 . S
C3929 H3935 0.959 . S
C3929 H3936 0.961 . S
C3929 H3937 0.960 . S
C3930 C3928 1.381 . S
C3930 C3931 1.394 . S
C3930 H3938 0.930 . S
C3931 C3930 1.394 . S
C3931 C3932 1.383 . S
C3931 H3939 0.929 . S
C3932 C3931 1.383 . S
C3932 C3933 1.377 . S
C3933 H3917 0.930 . S
C3933 C3932 1.377 . S
C3933 C3934 1.379 . S
C3934 H3918 0.931 . S
C3934 C3928 1.383 . S
C3934 C3933 1.379 . S
H3935 C3929 0.959 . S
H3936 C3929 0.961 . S
H3937 C3929 0.960 . S
H3938 C3930 0.930 . S
H3939 C3931 0.929 . S
H3940 C3948 0.929 . S
H3941 C3950 0.930 . S
H3942 C3952 0.930 . S
H3943 C3955 0.929 . S
H3944 C3958 0.930 . S
H3945 C3960 0.960 . S
H3946 C3960 0.960 . S
H3947 C3960 0.960 . S
C3948 H3940 0.929 . S
C3948 C3949 1.377 . S
C3948 C3950 1.384 . S
C3949 C3948 1.377 . S
C3949 C3955 1.390 . S
C3950 H3941 0.930 . S
C3950 C3948 1.384 . S
C3950 C3951 1.372 . S
C3951 C3950 1.372 . S
C3951 C3952 1.400 . S
C3951 C3956 1.490 . S
C3952 H3942 0.930 . S
C3952 C3951 1.400 . S
C3952 C3955 1.386 . S
H3953 C3969 0.930 . S
H3954 C3970 0.931 . S
C3955 H3943 0.929 . S
C3955 C3949 1.390 . S
C3955 C3952 1.386 . S
C3956 C3951 1.490 . S
C3956 C3958 1.395 . S
C3956 C3959 1.403 . S
H3957 C3963 0.930 . S
C3958 H3944 0.930 . S
C3958 C3956 1.395 . S
C3958 C3961 1.403 . S
C3959 C3956 1.403 . S
C3959 C3960 1.524 . S
C3959 C3963 1.400 . S
C3960 H3945 0.960 . S
C3960 H3946 0.960 . S
C3960 H3947 0.960 . S
C3960 C3959 1.524 . S
C3961 C3958 1.403 . S
C3961 C3962 1.392 . S
C3961 C3965 1.495 . S
C3962 C3961 1.392 . S
C3962 C3963 1.385 . S
C3962 C3964 1.478 . S
C3963 H3957 0.930 . S
C3963 C3959 1.400 . S
C3963 C3962 1.385 . S
C3964 C3962 1.478 . S
C3964 C3966 1.381 . S
C3964 C3970 1.383 . S
C3965 C3961 1.495 . S
C3965 H3971 0.959 . S
C3965 H3972 0.961 . S
C3965 H3973 0.960 . S
C3966 C3964 1.381 . S
C3966 C3967 1.394 . S
C3966 H3974 0.930 . S
C3967 C3966 1.394 . S
C3967 C3968 1.383 . S
C3967 H3975 0.929 . S
C3968 C3967 1.383 . S
C3968 C3969 1.377 . S
C3969 H3953 0.930 . S
C3969 C3968 1.377 . S
C3969 C3970 1.379 . S
C3970 H3954 0.931 . S
C3970 C3964 1.383 . S
C3970 C3969 1.379 . S
H3971 C3965 0.959 . S
H3972 C3965 0.961 . S
H3973 C3965 0.960 . S
H3974 C3966 0.930 . S
H3975 C3967 0.929 . S
H3976 C3984 0.929 . S
H3977 C3986 0.930 . S
H3978 C3988 0.930 . S
H3979 C3991 0.929 . S
H3980 C3994 0.930 . S
H3981 C3996 0.960 . S
H3982 C3996 0.960 . S
H3983 C3996 0.960 . S
C3984 H3976 0.929 . S
C3984 C3985 1.377 . S
C3984 C3986 1.384 . S
C3985 C3984 1.377 . S
C3985 C3991 1.390 . S
C3986 H3977 0.930 . S
C3986 C3984 1.384 . S
C3986 C3987 1.372 . S
C3987 C3986 1.372 . S
C3987 C3988 1.400 . S
C3987 C3992 1.490 . S
C3988 H3978 0.930 . S
C3988 C3987 1.400 . S
C3988 C3991 1.386 . S
H3989 C4005 0.930 . S
H3990 C4006 0.931 . S
C3991 H3979 0.929 . S
C3991 C3985 1.390 . S
C3991 C3988 1.386 . S
C3992 C3987 1.490 . S
C3992 C3994 1.395 . S
C3992 C3995 1.403 . S
H3993 C3999 0.939 . S
C3994 H3980 0.930 . S
C3994 C3992 1.395 . S
C3994 C3997 1.403 . S
C3995 C3992 1.403 . S
C3995 C3996 1.524 1_545 S
C3995 C3999 1.400 . S
C3996 H3981 0.960 . S
C3996 H3982 0.960 . S
C3996 H3983 0.960 . S
C3996 C3995 1.524 1_565 S
C3997 C3994 1.403 . S
C3997 C3998 1.392 . S
C3997 C4001 1.495 . S
C3998 C3997 1.392 . S
C3998 C3999 1.385 . S
C3998 C4000 1.478 . S
C3999 H3993 0.939 . S
C3999 C3995 1.400 . S
C3999 C3998 1.385 . S
C4000 C3998 1.478 . S
C4000 C4002 1.381 . S
C4000 C4006 1.383 . S
C4001 C3997 1.495 . S
C4001 H4007 0.959 . S
C4001 H4008 0.961 . S
C4001 H4009 0.960 . S
C4002 C4000 1.381 . S
C4002 C4003 1.394 . S
C4002 H4010 0.930 . S
C4003 C4002 1.394 . S
C4003 C4004 1.383 . S
C4003 H4011 0.929 . S
C4004 C4003 1.383 . S
C4004 C4005 1.377 . S
C4005 H3989 0.930 . S
C4005 C4004 1.377 . S
C4005 C4006 1.379 . S
C4006 H3990 0.931 . S
C4006 C4000 1.383 . S
C4006 C4005 1.379 . S
H4007 C4001 0.959 . S
H4008 C4001 0.961 . S
H4009 C4001 0.960 . S
H4010 C4002 0.930 . S
H4011 C4003 0.929 . S
H4012 C4020 0.929 . S
H4013 C4022 0.930 . S
H4014 C4024 0.930 . S
H4015 C4027 0.929 . S
H4016 C4030 0.930 . S
H4017 C4032 0.960 . S
H4018 C4032 0.960 . S
H4019 C4032 0.960 . S
C4020 H4012 0.929 . S
C4020 C4021 1.377 . S
C4020 C4022 1.384 . S
C4021 C4020 1.377 . S
C4021 C4027 1.390 . S
C4022 H4013 0.930 . S
C4022 C4020 1.384 . S
C4022 C4023 1.372 . S
C4023 C4022 1.372 . S
C4023 C4024 1.400 . S
C4023 C4028 1.490 . S
C4024 H4014 0.930 . S
C4024 C4023 1.400 . S
C4024 C4027 1.386 . S
H4025 C4041 0.930 . S
H4026 C4042 0.931 . S
C4027 H4015 0.929 . S
C4027 C4021 1.390 . S
C4027 C4024 1.386 . S
C4028 C4023 1.490 . S
C4028 C4030 1.395 . S
C4028 C4031 1.403 . S
H4029 C4035 0.930 . S
C4030 H4016 0.930 . S
C4030 C4028 1.395 . S
C4030 C4033 1.403 . S
C4031 C4028 1.403 . S
C4031 C4032 1.524 . S
C4031 C4035 1.400 . S
C4032 H4017 0.960 . S
C4032 H4018 0.960 . S
C4032 H4019 0.960 . S
C4032 C4031 1.524 . S
C4033 C4030 1.403 . S
C4033 C4034 1.392 . S
C4033 C4037 1.495 . S
C4034 C4033 1.392 . S
C4034 C4035 1.385 . S
C4034 C4036 1.478 . S
C4035 H4029 0.930 . S
C4035 C4031 1.400 . S
C4035 C4034 1.385 . S
C4036 C4034 1.478 . S
C4036 C4038 1.381 . S
C4036 C4042 1.383 . S
C4037 C4033 1.495 . S
C4037 H4043 0.959 . S
C4037 H4044 0.961 . S
C4037 H4045 0.960 . S
C4038 C4036 1.381 . S
C4038 C4039 1.394 . S
C4038 H4046 0.930 . S
C4039 C4038 1.394 . S
C4039 C4040 1.383 . S
C4039 H4047 0.929 . S
C4040 C4039 1.383 . S
C4040 C4041 1.377 . S
C4041 H4025 0.930 . S
C4041 C4040 1.377 . S
C4041 C4042 1.379 . S
C4042 H4026 0.931 . S
C4042 C4036 1.383 . S
C4042 C4041 1.379 . S
H4043 C4037 0.959 . S
H4044 C4037 0.961 . S
H4045 C4037 0.960 . S
H4046 C4038 0.930 . S
H4047 C4039 0.929 . S
H4048 C4056 0.929 . S
H4049 C4058 0.930 . S
H4050 C4060 0.959 . S
H4051 C4063 0.929 . S
H4052 C4066 0.930 . S
H4053 C4068 0.960 . S
H4054 C4068 0.960 . S
H4055 C4068 0.960 . S
C4056 H4048 0.929 . S
C4056 C4057 1.377 . S
C4056 C4058 1.384 . S
C4057 C4056 1.377 . S
C4057 C4063 1.390 1_545 S
C4058 H4049 0.930 . S
C4058 C4056 1.384 . S
C4058 C4059 1.372 . S
C4059 C4058 1.372 . S
C4059 C4060 1.359 1_545 S
C4059 C4064 1.490 . S
C4060 H4050 0.959 . S
C4060 C4059 1.359 1_565 S
C4060 C4063 1.403 . S
H4061 C4077 0.930 . S
H4062 C4078 0.931 . S
C4063 H4051 0.929 . S
C4063 C4057 1.390 1_565 S
C4063 C4060 1.403 . S
C4064 C4059 1.490 . S
C4064 C4066 1.395 . S
C4064 C4067 1.403 1_545 S
H4065 C4071 0.930 . S
C4066 H4052 0.930 . S
C4066 C4064 1.395 . S
C4066 C4069 1.403 . S
C4067 C4064 1.403 1_565 S
C4067 C4068 1.524 . S
C4067 C4071 1.400 . S
C4068 H4053 0.960 . S
C4068 H4054 0.960 . S
C4068 H4055 0.960 . S
C4068 C4067 1.524 . S
C4069 C4066 1.403 . S
C4069 C4070 1.392 . S
C4069 C4073 1.495 . S
C4070 C4069 1.392 . S
C4070 C4071 1.385 1_545 S
C4070 C4072 1.478 . S
C4071 H4065 0.930 . S
C4071 C4067 1.400 . S
C4071 C4070 1.385 1_565 S
C4072 C4070 1.478 . S
C4072 C4074 1.381 . S
C4072 C4078 1.383 . S
C4073 C4069 1.495 . S
C4073 H4079 0.959 . S
C4073 H4080 0.961 . S
C4073 H4081 0.960 . S
C4074 C4072 1.381 . S
C4074 C4075 1.394 . S
C4074 H4082 0.930 . S
C4075 C4074 1.394 . S
C4075 C4076 1.383 . S
C4075 H4083 0.929 . S
C4076 C4075 1.383 . S
C4076 C4077 1.377 . S
C4077 H4061 0.930 . S
C4077 C4076 1.377 . S
C4077 C4078 1.379 . S
C4078 H4062 0.931 . S
C4078 C4072 1.383 . S
C4078 C4077 1.379 . S
H4079 C4073 0.959 . S
H4080 C4073 0.961 . S
H4081 C4073 0.960 . S
H4082 C4074 0.930 . S
H4083 C4075 0.929 . S
H4084 C4092 0.929 . S
H4085 C4094 0.930 . S
H4086 C4096 0.930 . S
H4087 C4099 0.929 . S
H4088 C4102 0.930 . S
H4089 C4104 0.960 . S
H4090 C4104 0.960 . S
H4091 C4104 0.960 . S
C4092 H4084 0.929 . S
C4092 C4093 1.377 . S
C4092 C4094 1.384 . S
C4093 C4092 1.377 . S
C4093 C4099 1.390 . S
C4094 H4085 0.930 . S
C4094 C4092 1.384 . S
C4094 C4095 1.372 . S
C4095 C4094 1.372 . S
C4095 C4096 1.400 . S
C4095 C4100 1.490 . S
C4096 H4086 0.930 . S
C4096 C4095 1.400 . S
C4096 C4099 1.386 . S
H4097 C4113 0.930 . S
H4098 C4114 0.931 . S
C4099 H4087 0.929 . S
C4099 C4093 1.390 . S
C4099 C4096 1.386 . S
C4100 C4095 1.490 . S
C4100 C4102 1.395 . S
C4100 C4103 1.403 . S
H4101 C4107 0.930 . S
C4102 H4088 0.930 . S
C4102 C4100 1.395 . S
C4102 C4105 1.403 . S
C4103 C4100 1.403 . S
C4103 C4104 1.524 . S
C4103 C4107 1.400 . S
C4104 H4089 0.960 . S
C4104 H4090 0.960 . S
C4104 H4091 0.960 . S
C4104 C4103 1.524 . S
C4105 C4102 1.403 . S
C4105 C4106 1.392 . S
C4105 C4109 1.495 . S
C4106 C4105 1.392 . S
C4106 C4107 1.385 . S
C4106 C4108 1.478 . S
C4107 H4101 0.930 . S
C4107 C4103 1.400 . S
C4107 C4106 1.385 . S
C4108 C4106 1.478 . S
C4108 C4110 1.381 . S
C4108 C4114 1.383 . S
C4109 C4105 1.495 . S
C4109 H4115 0.959 . S
C4109 H4116 0.961 . S
C4109 H4117 0.960 . S
C4110 C4108 1.381 . S
C4110 C4111 1.394 . S
C4110 H4118 0.930 . S
C4111 C4110 1.394 . S
C4111 C4112 1.383 . S
C4111 H4119 0.929 . S
C4112 C4111 1.383 . S
C4112 C4113 1.377 . S
C4113 H4097 0.930 . S
C4113 C4112 1.377 . S
C4113 C4114 1.379 . S
C4114 H4098 0.931 . S
C4114 C4108 1.383 . S
C4114 C4113 1.379 . S
H4115 C4109 0.959 . S
H4116 C4109 0.961 . S
H4117 C4109 0.960 . S
H4118 C4110 0.930 . S
H4119 C4111 0.929 . S
H4120 C4128 0.929 . S
H4121 C4130 0.930 . S
H4122 C4132 0.930 . S
H4123 C4135 0.929 . S
H4124 C4138 0.930 . S
H4125 C4140 0.956 1_565 S
H4126 C4140 0.982 . S
H4127 C4140 0.942 1_565 S
C4128 H4120 0.929 . S
C4128 C4129 1.377 . S
C4128 C4130 1.384 . S
C4129 C4128 1.377 . S
C4129 C4135 1.391 1_545 S
C4130 H4121 0.930 . S
C4130 C4128 1.384 . S
C4130 C4131 1.372 . S
C4131 C4130 1.372 . S
C4131 C4132 1.400 1_545 S
C4131 C4136 1.490 . S
C4132 H4122 0.930 . S
C4132 C4131 1.400 1_565 S
C4132 C4135 1.386 . S
H4133 C4149 0.930 . S
H4134 C4150 0.931 . S
C4135 H4123 0.929 . S
C4135 C4129 1.391 1_565 S
C4135 C4132 1.386 . S
C4136 C4131 1.490 . S
C4136 C4138 1.395 . S
C4136 C4139 1.403 . S
H4137 C4143 0.925 1_565 S
C4138 H4124 0.930 . S
C4138 C4136 1.395 . S
C4138 C4141 1.403 . S
C4139 C4136 1.403 . S
C4139 C4140 1.525 . S
C4139 C4143 1.400 . S
C4140 H4125 0.956 1_545 S
C4140 H4126 0.982 . S
C4140 H4127 0.942 1_545 S
C4140 C4139 1.525 . S
C4141 C4138 1.403 . S
C4141 C4142 1.392 . S
C4141 C4145 1.495 . S
C4142 C4141 1.392 . S
C4142 C4143 1.385 . S
C4142 C4144 1.478 . S
C4143 H4137 0.925 1_545 S
C4143 C4139 1.400 . S
C4143 C4142 1.385 . S
C4144 C4142 1.478 . S
C4144 C4146 1.381 . S
C4144 C4150 1.383 1_545 S
C4145 C4141 1.495 . S
C4145 H4151 0.959 . S
C4145 H4152 0.961 . S
C4145 H4153 0.960 . S
C4146 C4144 1.381 . S
C4146 C4147 1.394 . S
C4146 H4154 0.930 . S
C4147 C4146 1.394 . S
C4147 C4148 1.383 . S
C4147 H4155 0.929 . S
C4148 C4147 1.383 . S
C4148 C4149 1.377 1_545 S
C4149 H4133 0.930 . S
C4149 C4148 1.377 1_565 S
C4149 C4150 1.379 . S
C4150 H4134 0.931 . S
C4150 C4144 1.383 1_565 S
C4150 C4149 1.379 . S
H4151 C4145 0.959 . S
H4152 C4145 0.961 . S
H4153 C4145 0.960 . S
H4154 C4146 0.930 . S
H4155 C4147 0.929 . S
H4156 C4164 0.929 . S
H4157 C4166 0.930 . S
H4158 C4168 0.930 . S
H4159 C4171 0.929 . S
H4160 C4174 0.930 . S
H4161 C4176 0.960 . S
H4162 C4176 0.960 . S
H4163 C4176 0.960 . S
C4164 H4156 0.929 . S
C4164 C4165 1.377 . S
C4164 C4166 1.384 . S
C4165 C4164 1.377 . S
C4165 C4171 1.390 . S
C4166 H4157 0.930 . S
C4166 C4164 1.384 . S
C4166 C4167 1.372 . S
C4167 C4166 1.372 . S
C4167 C4168 1.400 . S
C4167 C4172 1.490 . S
C4168 H4158 0.930 . S
C4168 C4167 1.400 . S
C4168 C4171 1.386 . S
H4169 C4185 0.930 . S
H4170 C4186 0.931 . S
C4171 H4159 0.929 . S
C4171 C4165 1.390 . S
C4171 C4168 1.386 . S
C4172 C4167 1.490 . S
C4172 C4174 1.395 . S
C4172 C4175 1.403 . S
H4173 C4179 0.930 . S
C4174 H4160 0.930 . S
C4174 C4172 1.395 . S
C4174 C4177 1.403 . S
C4175 C4172 1.403 . S
C4175 C4176 1.524 . S
C4175 C4179 1.400 . S
C4176 H4161 0.960 . S
C4176 H4162 0.960 . S
C4176 H4163 0.960 . S
C4176 C4175 1.524 . S
C4177 C4174 1.403 . S
C4177 C4178 1.392 . S
C4177 C4181 1.495 . S
C4178 C4177 1.392 . S
C4178 C4179 1.385 . S
C4178 C4180 1.478 . S
C4179 H4173 0.930 . S
C4179 C4175 1.400 . S
C4179 C4178 1.385 . S
C4180 C4178 1.478 . S
C4180 C4182 1.381 . S
C4180 C4186 1.383 . S
C4181 C4177 1.495 . S
C4181 H4187 0.959 . S
C4181 H4188 0.961 . S
C4181 H4189 0.960 . S
C4182 C4180 1.381 . S
C4182 C4183 1.394 . S
C4182 H4190 0.930 . S
C4183 C4182 1.394 . S
C4183 C4184 1.383 . S
C4183 H4191 0.929 . S
C4184 C4183 1.383 . S
C4184 C4185 1.377 . S
C4185 H4169 0.930 . S
C4185 C4184 1.377 . S
C4185 C4186 1.379 . S
C4186 H4170 0.931 . S
C4186 C4180 1.383 . S
C4186 C4185 1.379 . S
H4187 C4181 0.959 . S
H4188 C4181 0.961 . S
H4189 C4181 0.960 . S
H4190 C4182 0.930 . S
H4191 C4183 0.929 . S
H4192 C4200 0.929 . S
H4193 C4202 0.930 . S
H4194 C4204 0.930 . S
H4195 C4207 0.929 . S
H4196 C4210 0.930 . S
H4197 C4212 0.960 . S
H4198 C4212 0.960 . S
H4199 C4212 0.960 . S
C4200 H4192 0.929 . S
C4200 C4201 1.377 . S
C4200 C4202 1.384 . S
C4201 C4200 1.377 . S
C4201 C4207 1.390 . S
C4202 H4193 0.930 . S
C4202 C4200 1.384 . S
C4202 C4203 1.372 . S
C4203 C4202 1.372 . S
C4203 C4204 1.400 . S
C4203 C4208 1.490 . S
C4204 H4194 0.930 . S
C4204 C4203 1.400 . S
C4204 C4207 1.386 . S
H4205 C4221 0.930 . S
H4206 C4222 0.931 . S
C4207 H4195 0.929 . S
C4207 C4201 1.390 . S
C4207 C4204 1.386 . S
C4208 C4203 1.490 . S
C4208 C4210 1.395 1_554 S
C4208 C4211 1.403 . S
H4209 C4215 0.930 . S
C4210 H4196 0.930 . S
C4210 C4208 1.395 1_556 S
C4210 C4213 1.403 . S
C4211 C4208 1.403 . S
C4211 C4212 1.524 . S
C4211 C4215 1.400 . S
C4212 H4197 0.960 . S
C4212 H4198 0.960 . S
C4212 H4199 0.960 . S
C4212 C4211 1.524 . S
C4213 C4210 1.403 . S
C4213 C4214 1.392 1_556 S
C4213 C4217 1.495 . S
C4214 C4213 1.392 1_554 S
C4214 C4215 1.385 . S
C4214 C4216 1.478 1_554 S
C4215 H4209 0.930 . S
C4215 C4211 1.400 . S
C4215 C4214 1.385 . S
C4216 C4214 1.478 1_556 S
C4216 C4218 1.381 . S
C4216 C4222 1.383 1_556 S
C4217 C4213 1.495 . S
C4217 H4223 0.959 . S
C4217 H4224 0.961 . S
C4217 H4225 0.960 . S
C4218 C4216 1.381 . S
C4218 C4219 1.394 . S
C4218 H4226 0.930 . S
C4219 C4218 1.394 . S
C4219 C4220 1.383 . S
C4219 H4227 0.929 . S
C4220 C4219 1.383 . S
C4220 C4221 1.377 1_556 S
C4221 H4205 0.930 . S
C4221 C4220 1.377 1_554 S
C4221 C4222 1.379 . S
C4222 H4206 0.931 . S
C4222 C4216 1.383 1_554 S
C4222 C4221 1.379 . S
H4223 C4217 0.959 . S
H4224 C4217 0.961 . S
H4225 C4217 0.960 . S
H4226 C4218 0.930 . S
H4227 C4219 0.929 . S
H4228 C4236 0.929 . S
H4229 C4238 0.930 . S
H4230 C4240 0.930 . S
H4231 C4243 0.929 . S
H4232 C4246 0.930 . S
H4233 C4248 0.960 . S
H4234 C4248 0.960 . S
H4235 C4248 0.960 . S
C4236 H4228 0.929 . S
C4236 C4237 1.377 . S
C4236 C4238 1.384 . S
C4237 C4236 1.377 . S
C4237 C4243 1.390 . S
C4238 H4229 0.930 . S
C4238 C4236 1.384 . S
C4238 C4239 1.372 . S
C4239 C4238 1.372 . S
C4239 C4240 1.400 . S
C4239 C4244 1.490 . S
C4240 H4230 0.930 . S
C4240 C4239 1.400 . S
C4240 C4243 1.386 . S
H4241 C4257 0.930 . S
H4242 C4258 0.931 . S
C4243 H4231 0.929 . S
C4243 C4237 1.390 . S
C4243 C4240 1.386 . S
C4244 C4239 1.490 . S
C4244 C4246 1.395 . S
C4244 C4247 1.403 . S
H4245 C4251 0.901 1_556 S
C4246 H4232 0.930 . S
C4246 C4244 1.395 . S
C4246 C4249 1.403 . S
C4247 C4244 1.403 . S
C4247 C4248 1.524 1_554 S
C4247 C4251 1.400 . S
C4248 H4233 0.960 . S
C4248 H4234 0.960 . S
C4248 H4235 0.960 . S
C4248 C4247 1.524 1_556 S
C4249 C4246 1.403 . S
C4249 C4250 1.392 . S
C4249 C4253 1.495 . S
C4250 C4249 1.392 . S
C4250 C4251 1.385 . S
C4250 C4252 1.478 . S
C4251 H4245 0.901 1_554 S
C4251 C4247 1.400 . S
C4251 C4250 1.385 . S
C4252 C4250 1.478 . S
C4252 C4254 1.381 . S
C4252 C4258 1.383 . S
C4253 C4249 1.495 . S
C4253 H4259 0.959 . S
C4253 H4260 0.961 . S
C4253 H4261 0.960 . S
C4254 C4252 1.381 . S
C4254 C4255 1.394 . S
C4254 H4262 0.930 . S
C4255 C4254 1.394 . S
C4255 C4256 1.383 . S
C4255 H4263 0.929 . S
C4256 C4255 1.383 . S
C4256 C4257 1.377 . S
C4257 H4241 0.930 . S
C4257 C4256 1.377 . S
C4257 C4258 1.379 . S
C4258 H4242 0.931 . S
C4258 C4252 1.383 . S
C4258 C4257 1.379 . S
H4259 C4253 0.959 . S
H4260 C4253 0.961 . S
H4261 C4253 0.960 . S
H4262 C4254 0.930 . S
H4263 C4255 0.929 . S
H4264 C4272 0.929 . S
H4265 C4274 0.930 . S
H4266 C4276 0.930 . S
H4267 C4279 0.929 . S
H4268 C4282 0.930 . S
H4269 C4284 0.960 . S
H4270 C4284 0.960 . S
H4271 C4284 0.960 . S
C4272 H4264 0.929 . S
C4272 C4273 1.377 . S
C4272 C4274 1.384 . S
C4273 C4272 1.377 . S
C4273 C4279 1.390 . S
C4274 H4265 0.930 . S
C4274 C4272 1.384 . S
C4274 C4275 1.372 . S
C4275 C4274 1.372 . S
C4275 C4276 1.400 . S
C4275 C4280 1.490 . S
C4276 H4266 0.930 . S
C4276 C4275 1.400 . S
C4276 C4279 1.386 . S
H4277 C4293 0.930 . S
H4278 C4294 0.931 . S
C4279 H4267 0.929 . S
C4279 C4273 1.390 . S
C4279 C4276 1.386 . S
C4280 C4275 1.490 . S
C4280 C4282 1.395 . S
C4280 C4283 1.403 . S
H4281 C4287 0.930 . S
C4282 H4268 0.930 . S
C4282 C4280 1.395 . S
C4282 C4285 1.403 . S
C4283 C4280 1.403 . S
C4283 C4284 1.524 . S
C4283 C4287 1.400 . S
C4284 H4269 0.960 . S
C4284 H4270 0.960 . S
C4284 H4271 0.960 . S
C4284 C4283 1.524 . S
C4285 C4282 1.403 . S
C4285 C4286 1.392 . S
C4285 C4289 1.495 . S
C4286 C4285 1.392 . S
C4286 C4287 1.385 . S
C4286 C4288 1.478 . S
C4287 H4281 0.930 . S
C4287 C4283 1.400 . S
C4287 C4286 1.385 . S
C4288 C4286 1.478 . S
C4288 C4290 1.381 . S
C4288 C4294 1.383 . S
C4289 C4285 1.495 . S
C4289 H4295 0.959 . S
C4289 H4296 0.961 . S
C4289 H4297 0.960 . S
C4290 C4288 1.381 . S
C4290 C4291 1.394 . S
C4290 H4298 0.930 . S
C4291 C4290 1.394 . S
C4291 C4292 1.383 . S
C4291 H4299 0.929 . S
C4292 C4291 1.383 . S
C4292 C4293 1.377 . S
C4293 H4277 0.930 . S
C4293 C4292 1.377 . S
C4293 C4294 1.379 . S
C4294 H4278 0.931 . S
C4294 C4288 1.383 . S
C4294 C4293 1.379 . S
H4295 C4289 0.959 . S
H4296 C4289 0.961 . S
H4297 C4289 0.960 . S
H4298 C4290 0.930 . S
H4299 C4291 0.929 . S
H4300 C4308 0.929 . S
H4301 C4310 0.930 . S
H4302 C4312 0.930 . S
H4303 C4315 0.929 . S
H4304 C4318 0.930 . S
H4305 C4320 0.960 . S
H4306 C4320 0.960 . S
H4307 C4320 0.960 . S
C4308 H4300 0.929 . S
C4308 C4309 1.377 . S
C4308 C4310 1.384 . S
C4309 C4308 1.377 . S
C4309 C4315 1.390 . S
C4310 H4301 0.930 . S
C4310 C4308 1.384 . S
C4310 C4311 1.372 . S
C4311 C4310 1.372 . S
C4311 C4312 1.400 . S
C4311 C4316 1.490 . S
C4312 H4302 0.930 . S
C4312 C4311 1.400 . S
C4312 C4315 1.386 . S
H4313 C4329 0.930 . S
H4314 C4330 0.931 . S
C4315 H4303 0.929 . S
C4315 C4309 1.390 . S
C4315 C4312 1.386 . S
C4316 C4311 1.490 . S
C4316 C4318 1.395 . S
C4316 C4319 1.403 . S
H4317 C4323 0.930 . S
C4318 H4304 0.930 . S
C4318 C4316 1.395 . S
C4318 C4321 1.403 . S
C4319 C4316 1.403 . S
C4319 C4320 1.524 . S
C4319 C4323 1.400 . S
C4320 H4305 0.960 . S
C4320 H4306 0.960 . S
C4320 H4307 0.960 . S
C4320 C4319 1.524 . S
C4321 C4318 1.403 . S
C4321 C4322 1.392 . S
C4321 C4325 1.495 . S
C4322 C4321 1.392 . S
C4322 C4323 1.385 . S
C4322 C4324 1.478 . S
C4323 H4317 0.930 . S
C4323 C4319 1.400 . S
C4323 C4322 1.385 . S
C4324 C4322 1.478 . S
C4324 C4326 1.381 . S
C4324 C4330 1.383 . S
C4325 C4321 1.495 . S
C4325 H4331 0.959 . S
C4325 H4332 0.961 . S
C4325 H4333 0.960 . S
C4326 C4324 1.381 . S
C4326 C4327 1.394 . S
C4326 H4334 0.930 . S
C4327 C4326 1.394 . S
C4327 C4328 1.383 . S
C4327 H4335 0.929 . S
C4328 C4327 1.383 . S
C4328 C4329 1.377 . S
C4329 H4313 0.930 . S
C4329 C4328 1.377 . S
C4329 C4330 1.379 . S
C4330 H4314 0.931 . S
C4330 C4324 1.383 . S
C4330 C4329 1.379 . S
H4331 C4325 0.959 . S
H4332 C4325 0.961 . S
H4333 C4325 0.960 . S
H4334 C4326 0.930 . S
H4335 C4327 0.929 . S
H4336 C4344 0.929 . S
H4337 C4346 0.930 . S
H4338 C4348 0.930 . S
H4339 C4351 0.929 . S
H4340 C4354 0.930 . S
H4341 C4356 0.960 . S
H4342 C4356 0.960 . S
H4343 C4356 0.960 . S
C4344 H4336 0.929 . S
C4344 C4345 1.377 . S
C4344 C4346 1.384 . S
C4345 C4344 1.377 . S
C4345 C4351 1.390 . S
C4346 H4337 0.930 . S
C4346 C4344 1.384 . S
C4346 C4347 1.372 . S
C4347 C4346 1.372 . S
C4347 C4348 1.400 . S
C4347 C4352 1.490 . S
C4348 H4338 0.930 . S
C4348 C4347 1.400 . S
C4348 C4351 1.386 . S
H4349 C4365 0.930 . S
H4350 C4366 0.931 . S
C4351 H4339 0.929 . S
C4351 C4345 1.390 . S
C4351 C4348 1.386 . S
C4352 C4347 1.490 . S
C4352 C4354 1.395 . S
C4352 C4355 1.403 . S
H4353 C4359 0.930 . S
C4354 H4340 0.930 . S
C4354 C4352 1.395 . S
C4354 C4357 1.403 . S
C4355 C4352 1.403 . S
C4355 C4356 1.524 . S
C4355 C4359 1.400 . S
C4356 H4341 0.960 . S
C4356 H4342 0.960 . S
C4356 H4343 0.960 . S
C4356 C4355 1.524 . S
C4357 C4354 1.403 . S
C4357 C4358 1.392 . S
C4357 C4361 1.495 . S
C4358 C4357 1.392 . S
C4358 C4359 1.385 . S
C4358 C4360 1.478 . S
C4359 H4353 0.930 . S
C4359 C4355 1.400 . S
C4359 C4358 1.385 . S
C4360 C4358 1.478 . S
C4360 C4362 1.381 . S
C4360 C4366 1.383 . S
C4361 C4357 1.495 . S
C4361 H4367 0.959 . S
C4361 H4368 0.961 . S
C4361 H4369 0.960 . S
C4362 C4360 1.381 . S
C4362 C4363 1.394 . S
C4362 H4370 0.930 . S
C4363 C4362 1.394 . S
C4363 C4364 1.383 . S
C4363 H4371 0.929 . S
C4364 C4363 1.383 . S
C4364 C4365 1.377 . S
C4365 H4349 0.930 . S
C4365 C4364 1.377 . S
C4365 C4366 1.379 . S
C4366 H4350 0.931 . S
C4366 C4360 1.383 . S
C4366 C4365 1.379 . S
H4367 C4361 0.959 . S
H4368 C4361 0.961 . S
H4369 C4361 0.960 . S
H4370 C4362 0.930 . S
H4371 C4363 0.929 . S
H4372 C4380 0.929 . S
H4373 C4382 0.930 . S
H4374 C4384 0.930 . S
H4375 C4387 0.929 . S
H4376 C4390 0.930 . S
H4377 C4392 0.960 . S
H4378 C4392 0.960 . S
H4379 C4392 0.960 . S
C4380 H4372 0.929 . S
C4380 C4381 1.377 . S
C4380 C4382 1.384 . S
C4381 C4380 1.377 . S
C4381 C4387 1.390 . S
C4382 H4373 0.930 . S
C4382 C4380 1.384 . S
C4382 C4383 1.372 . S
C4383 C4382 1.372 . S
C4383 C4384 1.400 . S
C4383 C4388 1.490 . S
C4384 H4374 0.930 . S
C4384 C4383 1.400 . S
C4384 C4387 1.386 . S
H4385 C4401 0.930 . S
H4386 C4402 0.931 . S
C4387 H4375 0.929 . S
C4387 C4381 1.390 . S
C4387 C4384 1.386 . S
C4388 C4383 1.490 . S
C4388 C4390 1.395 . S
C4388 C4391 1.403 . S
H4389 C4395 0.930 . S
C4390 H4376 0.930 . S
C4390 C4388 1.395 . S
C4390 C4393 1.403 . S
C4391 C4388 1.403 . S
C4391 C4392 1.524 . S
C4391 C4395 1.400 . S
C4392 H4377 0.960 . S
C4392 H4378 0.960 . S
C4392 H4379 0.960 . S
C4392 C4391 1.524 . S
C4393 C4390 1.403 . S
C4393 C4394 1.392 . S
C4393 C4397 1.495 . S
C4394 C4393 1.392 . S
C4394 C4395 1.385 . S
C4394 C4396 1.478 . S
C4395 H4389 0.930 . S
C4395 C4391 1.400 . S
C4395 C4394 1.385 . S
C4396 C4394 1.478 . S
C4396 C4398 1.381 . S
C4396 C4402 1.383 . S
C4397 C4393 1.495 . S
C4397 H4403 0.959 . S
C4397 H4404 0.961 . S
C4397 H4405 0.960 . S
C4398 C4396 1.381 . S
C4398 C4399 1.394 . S
C4398 H4406 0.930 . S
C4399 C4398 1.394 . S
C4399 C4400 1.383 . S
C4399 H4407 0.929 . S
C4400 C4399 1.383 . S
C4400 C4401 1.377 . S
C4401 H4385 0.930 . S
C4401 C4400 1.377 . S
C4401 C4402 1.379 . S
C4402 H4386 0.931 . S
C4402 C4396 1.383 . S
C4402 C4401 1.379 . S
H4403 C4397 0.959 . S
H4404 C4397 0.961 . S
H4405 C4397 0.960 . S
H4406 C4398 0.930 . S
H4407 C4399 0.929 . S
H4408 C4416 0.929 . S
H4409 C4418 0.930 . S
H4410 C4420 0.930 . S
H4411 C4423 0.929 . S
H4412 C4426 0.930 . S
H4413 C4428 0.960 . S
H4414 C4428 0.960 . S
H4415 C4428 0.960 . S
C4416 H4408 0.929 . S
C4416 C4417 1.377 . S
C4416 C4418 1.384 . S
C4417 C4416 1.377 . S
C4417 C4423 1.390 . S
C4418 H4409 0.930 . S
C4418 C4416 1.384 . S
C4418 C4419 1.372 . S
C4419 C4418 1.372 . S
C4419 C4420 1.400 . S
C4419 C4424 1.490 . S
C4420 H4410 0.930 . S
C4420 C4419 1.400 . S
C4420 C4423 1.386 . S
H4421 C4437 0.930 . S
H4422 C4438 0.931 . S
C4423 H4411 0.929 . S
C4423 C4417 1.390 . S
C4423 C4420 1.386 . S
C4424 C4419 1.490 . S
C4424 C4426 1.395 . S
C4424 C4427 1.403 . S
H4425 C4431 0.930 . S
C4426 H4412 0.930 . S
C4426 C4424 1.395 . S
C4426 C4429 1.403 . S
C4427 C4424 1.403 . S
C4427 C4428 1.524 . S
C4427 C4431 1.400 . S
C4428 H4413 0.960 . S
C4428 H4414 0.960 . S
C4428 H4415 0.960 . S
C4428 C4427 1.524 . S
C4429 C4426 1.403 . S
C4429 C4430 1.392 . S
C4429 C4433 1.495 . S
C4430 C4429 1.392 . S
C4430 C4431 1.385 . S
C4430 C4432 1.478 . S
C4431 H4425 0.930 . S
C4431 C4427 1.400 . S
C4431 C4430 1.385 . S
C4432 C4430 1.478 . S
C4432 C4434 1.381 . S
C4432 C4438 1.383 . S
C4433 C4429 1.495 . S
C4433 H4439 0.959 . S
C4433 H4440 0.961 . S
C4433 H4441 0.960 . S
C4434 C4432 1.381 . S
C4434 C4435 1.394 . S
C4434 H4442 0.930 . S
C4435 C4434 1.394 . S
C4435 C4436 1.383 . S
C4435 H4443 0.929 . S
C4436 C4435 1.383 . S
C4436 C4437 1.377 . S
C4437 H4421 0.930 . S
C4437 C4436 1.377 . S
C4437 C4438 1.379 . S
C4438 H4422 0.931 . S
C4438 C4432 1.383 . S
C4438 C4437 1.379 . S
H4439 C4433 0.959 . S
H4440 C4433 0.961 . S
H4441 C4433 0.960 . S
H4442 C4434 0.930 . S
H4443 C4435 0.929 . S
H4444 C4452 0.929 . S
H4445 C4454 0.930 . S
H4446 C4456 0.930 . S
H4447 C4459 0.929 . S
H4448 C4462 0.930 . S
H4449 C4464 0.960 . S
H4450 C4464 0.960 . S
H4451 C4464 0.960 . S
C4452 H4444 0.929 . S
C4452 C4453 1.377 . S
C4452 C4454 1.384 . S
C4453 C4452 1.377 . S
C4453 C4459 1.390 . S
C4454 H4445 0.930 . S
C4454 C4452 1.384 . S
C4454 C4455 1.372 . S
C4455 C4454 1.372 . S
C4455 C4456 1.400 . S
C4455 C4460 1.490 . S
C4456 H4446 0.930 . S
C4456 C4455 1.400 . S
C4456 C4459 1.386 . S
H4457 C4473 0.930 . S
H4458 C4474 0.931 . S
C4459 H4447 0.929 . S
C4459 C4453 1.390 . S
C4459 C4456 1.386 . S
C4460 C4455 1.490 . S
C4460 C4462 1.395 . S
C4460 C4463 1.403 . S
H4461 C4467 0.930 . S
C4462 H4448 0.930 . S
C4462 C4460 1.395 . S
C4462 C4465 1.403 . S
C4463 C4460 1.403 . S
C4463 C4464 1.524 . S
C4463 C4467 1.400 . S
C4464 H4449 0.960 . S
C4464 H4450 0.960 . S
C4464 H4451 0.960 . S
C4464 C4463 1.524 . S
C4465 C4462 1.403 . S
C4465 C4466 1.392 . S
C4465 C4469 1.495 . S
C4466 C4465 1.392 . S
C4466 C4467 1.385 . S
C4466 C4468 1.478 . S
C4467 H4461 0.930 . S
C4467 C4463 1.400 . S
C4467 C4466 1.385 . S
C4468 C4466 1.478 . S
C4468 C4470 1.381 . S
C4468 C4474 1.383 . S
C4469 C4465 1.495 . S
C4469 H4475 0.959 . S
C4469 H4476 0.961 . S
C4469 H4477 0.960 . S
C4470 C4468 1.381 . S
C4470 C4471 1.394 . S
C4470 H4478 0.930 . S
C4471 C4470 1.394 . S
C4471 C4472 1.383 . S
C4471 H4479 0.929 . S
C4472 C4471 1.383 . S
C4472 C4473 1.377 . S
C4473 H4457 0.930 . S
C4473 C4472 1.377 . S
C4473 C4474 1.379 . S
C4474 H4458 0.931 . S
C4474 C4468 1.383 . S
C4474 C4473 1.379 . S
H4475 C4469 0.959 . S
H4476 C4469 0.961 . S
H4477 C4469 0.960 . S
H4478 C4470 0.930 . S
H4479 C4471 0.929 . S
H4480 C4488 0.929 . S
H4481 C4490 0.930 . S
H4482 C4492 0.930 . S
H4483 C4495 0.929 . S
H4484 C4498 0.930 . S
H4485 C4500 0.960 . S
H4486 C4500 0.960 . S
H4487 C4500 0.960 . S
C4488 H4480 0.929 . S
C4488 C4489 1.377 . S
C4488 C4490 1.384 . S
C4489 C4488 1.377 . S
C4489 C4495 1.390 . S
C4490 H4481 0.930 . S
C4490 C4488 1.384 . S
C4490 C4491 1.372 . S
C4491 C4490 1.372 . S
C4491 C4492 1.400 . S
C4491 C4496 1.490 . S
C4492 H4482 0.930 . S
C4492 C4491 1.400 . S
C4492 C4495 1.386 . S
H4493 C4509 0.930 . S
H4494 C4510 0.931 . S
C4495 H4483 0.929 . S
C4495 C4489 1.390 . S
C4495 C4492 1.386 . S
C4496 C4491 1.490 . S
C4496 C4498 1.395 . S
C4496 C4499 1.403 . S
H4497 C4503 0.930 . S
C4498 H4484 0.930 . S
C4498 C4496 1.395 . S
C4498 C4501 1.403 . S
C4499 C4496 1.403 . S
C4499 C4500 1.524 . S
C4499 C4503 1.400 . S
C4500 H4485 0.960 . S
C4500 H4486 0.960 . S
C4500 H4487 0.960 . S
C4500 C4499 1.524 . S
C4501 C4498 1.403 . S
C4501 C4502 1.392 . S
C4501 C4505 1.495 . S
C4502 C4501 1.392 . S
C4502 C4503 1.385 . S
C4502 C4504 1.478 . S
C4503 H4497 0.930 . S
C4503 C4499 1.400 . S
C4503 C4502 1.385 . S
C4504 C4502 1.478 . S
C4504 C4506 1.381 . S
C4504 C4510 1.383 . S
C4505 C4501 1.495 . S
C4505 H4511 0.959 . S
C4505 H4512 0.961 . S
C4505 H4513 0.960 . S
C4506 C4504 1.381 . S
C4506 C4507 1.394 . S
C4506 H4514 0.930 . S
C4507 C4506 1.394 . S
C4507 C4508 1.383 . S
C4507 H4515 0.929 . S
C4508 C4507 1.383 . S
C4508 C4509 1.377 . S
C4509 H4493 0.930 . S
C4509 C4508 1.377 . S
C4509 C4510 1.379 . S
C4510 H4494 0.931 . S
C4510 C4504 1.383 . S
C4510 C4509 1.379 . S
H4511 C4505 0.959 . S
H4512 C4505 0.961 . S
H4513 C4505 0.960 . S
H4514 C4506 0.930 . S
H4515 C4507 0.929 . S
H4516 C4524 0.929 . S
H4517 C4526 0.930 . S
H4518 C4528 0.930 . S
H4519 C4531 0.929 . S
H4520 C4534 0.930 . S
H4521 C4536 0.960 . S
H4522 C4536 0.960 . S
H4523 C4536 0.960 . S
C4524 H4516 0.929 . S
C4524 C4525 1.377 . S
C4524 C4526 1.384 . S
C4525 C4524 1.377 . S
C4525 C4531 1.390 . S
C4526 H4517 0.930 . S
C4526 C4524 1.384 . S
C4526 C4527 1.372 . S
C4527 C4526 1.372 . S
C4527 C4528 1.400 . S
C4527 C4532 1.490 . S
C4528 H4518 0.930 . S
C4528 C4527 1.400 . S
C4528 C4531 1.386 . S
H4529 C4545 0.930 . S
H4530 C4546 0.931 . S
C4531 H4519 0.929 . S
C4531 C4525 1.390 . S
C4531 C4528 1.386 . S
C4532 C4527 1.490 . S
C4532 C4534 1.395 . S
C4532 C4535 1.403 . S
H4533 C4539 0.930 . S
C4534 H4520 0.930 . S
C4534 C4532 1.395 . S
C4534 C4537 1.403 . S
C4535 C4532 1.403 . S
C4535 C4536 1.524 . S
C4535 C4539 1.400 . S
C4536 H4521 0.960 . S
C4536 H4522 0.960 . S
C4536 H4523 0.960 . S
C4536 C4535 1.524 . S
C4537 C4534 1.403 . S
C4537 C4538 1.392 . S
C4537 C4541 1.495 . S
C4538 C4537 1.392 . S
C4538 C4539 1.385 . S
C4538 C4540 1.478 . S
C4539 H4533 0.930 . S
C4539 C4535 1.400 . S
C4539 C4538 1.385 . S
C4540 C4538 1.478 . S
C4540 C4542 1.381 . S
C4540 C4546 1.383 . S
C4541 C4537 1.495 . S
C4541 H4547 0.959 . S
C4541 H4548 0.961 . S
C4541 H4549 0.960 . S
C4542 C4540 1.381 . S
C4542 C4543 1.394 . S
C4542 H4550 0.930 . S
C4543 C4542 1.394 . S
C4543 C4544 1.383 . S
C4543 H4551 0.929 . S
C4544 C4543 1.383 . S
C4544 C4545 1.377 . S
C4545 H4529 0.930 . S
C4545 C4544 1.377 . S
C4545 C4546 1.379 . S
C4546 H4530 0.931 . S
C4546 C4540 1.383 . S
C4546 C4545 1.379 . S
H4547 C4541 0.959 . S
H4548 C4541 0.961 . S
H4549 C4541 0.960 . S
H4550 C4542 0.930 . S
H4551 C4543 0.929 . S
H4552 C4560 0.929 . S
H4553 C4562 0.930 . S
H4554 C4564 0.930 . S
H4555 C4567 0.929 . S
H4556 C4570 0.930 . S
H4557 C4572 0.960 . S
H4558 C4572 0.960 . S
H4559 C4572 0.960 . S
C4560 H4552 0.929 . S
C4560 C4561 1.377 . S
C4560 C4562 1.384 . S
C4561 C4560 1.377 . S
C4561 C4567 1.390 . S
C4562 H4553 0.930 . S
C4562 C4560 1.384 . S
C4562 C4563 1.372 . S
C4563 C4562 1.372 . S
C4563 C4564 1.400 . S
C4563 C4568 1.490 . S
C4564 H4554 0.930 . S
C4564 C4563 1.400 . S
C4564 C4567 1.386 . S
H4565 C4581 0.930 . S
H4566 C4582 0.931 . S
C4567 H4555 0.929 . S
C4567 C4561 1.390 . S
C4567 C4564 1.386 . S
C4568 C4563 1.490 . S
C4568 C4570 1.395 . S
C4568 C4571 1.403 . S
H4569 C4575 0.904 1_554 S
C4570 H4556 0.930 . S
C4570 C4568 1.395 . S
C4570 C4573 1.403 . S
C4571 C4568 1.403 . S
C4571 C4572 1.524 1_556 S
C4571 C4575 1.401 . S
C4572 H4557 0.960 . S
C4572 H4558 0.960 . S
C4572 H4559 0.960 . S
C4572 C4571 1.524 1_554 S
C4573 C4570 1.403 . S
C4573 C4574 1.392 . S
C4573 C4577 1.495 . S
C4574 C4573 1.392 . S
C4574 C4575 1.409 . S
C4574 C4576 1.478 . S
C4575 H4569 0.904 1_556 S
C4575 C4571 1.401 . S
C4575 C4574 1.409 . S
C4576 C4574 1.478 . S
C4576 C4578 1.381 . S
C4576 C4582 1.383 . S
C4577 C4573 1.495 . S
C4577 H4583 0.959 . S
C4577 H4584 0.961 . S
C4577 H4585 0.960 . S
C4578 C4576 1.381 . S
C4578 C4579 1.394 1_556 S
C4578 H4586 0.930 . S
C4579 C4578 1.394 1_554 S
C4579 C4580 1.383 . S
C4579 H4587 0.929 . S
C4580 C4579 1.383 . S
C4580 C4581 1.377 1_554 S
C4581 H4565 0.930 . S
C4581 C4580 1.377 1_556 S
C4581 C4582 1.379 . S
C4582 H4566 0.931 . S
C4582 C4576 1.383 . S
C4582 C4581 1.379 . S
H4583 C4577 0.959 . S
H4584 C4577 0.961 . S
H4585 C4577 0.960 . S
H4586 C4578 0.930 . S
H4587 C4579 0.929 . S
H4588 C4596 0.929 . S
H4589 C4598 0.930 . S
H4590 C4600 0.930 . S
H4591 C4603 0.929 . S
H4592 C4606 0.930 . S
H4593 C4608 0.960 . S
H4594 C4608 0.960 . S
H4595 C4608 0.960 . S
C4596 H4588 0.929 . S
C4596 C4597 1.377 . S
C4596 C4598 1.384 . S
C4597 C4596 1.377 . S
C4597 C4603 1.390 . S
C4598 H4589 0.930 . S
C4598 C4596 1.384 . S
C4598 C4599 1.372 . S
C4599 C4598 1.372 . S
C4599 C4600 1.400 . S
C4599 C4604 1.490 . S
C4600 H4590 0.930 . S
C4600 C4599 1.400 . S
C4600 C4603 1.386 . S
H4601 C4617 0.930 . S
H4602 C4618 0.931 . S
C4603 H4591 0.929 . S
C4603 C4597 1.390 . S
C4603 C4600 1.386 . S
C4604 C4599 1.490 . S
C4604 C4606 1.395 . S
C4604 C4607 1.403 . S
H4605 C4611 0.930 . S
C4606 H4592 0.930 . S
C4606 C4604 1.395 . S
C4606 C4609 1.403 . S
C4607 C4604 1.403 . S
C4607 C4608 1.524 . S
C4607 C4611 1.400 . S
C4608 H4593 0.960 . S
C4608 H4594 0.960 . S
C4608 H4595 0.960 . S
C4608 C4607 1.524 . S
C4609 C4606 1.403 . S
C4609 C4610 1.392 . S
C4609 C4613 1.495 . S
C4610 C4609 1.392 . S
C4610 C4611 1.385 . S
C4610 C4612 1.478 . S
C4611 H4605 0.930 . S
C4611 C4607 1.400 . S
C4611 C4610 1.385 . S
C4612 C4610 1.478 . S
C4612 C4614 1.381 . S
C4612 C4618 1.383 . S
C4613 C4609 1.495 . S
C4613 H4619 0.959 . S
C4613 H4620 0.961 . S
C4613 H4621 0.960 . S
C4614 C4612 1.381 . S
C4614 C4615 1.394 . S
C4614 H4622 0.930 . S
C4615 C4614 1.394 . S
C4615 C4616 1.383 . S
C4615 H4623 0.929 . S
C4616 C4615 1.383 . S
C4616 C4617 1.377 . S
C4617 H4601 0.930 . S
C4617 C4616 1.377 . S
C4617 C4618 1.379 . S
C4618 H4602 0.931 . S
C4618 C4612 1.383 . S
C4618 C4617 1.379 . S
H4619 C4613 0.959 . S
H4620 C4613 0.961 . S
H4621 C4613 0.960 . S
H4622 C4614 0.930 . S
H4623 C4615 0.929 . S
H4624 C4632 0.929 . S
H4625 C4634 0.930 . S
H4626 C4636 0.930 . S
H4627 C4639 0.929 . S
H4628 C4642 0.930 . S
H4629 C4644 0.960 . S
H4630 C4644 0.960 . S
H4631 C4644 0.960 . S
C4632 H4624 0.929 . S
C4632 C4633 1.377 . S
C4632 C4634 1.384 . S
C4633 C4632 1.377 . S
C4633 C4639 1.390 . S
C4634 H4625 0.930 . S
C4634 C4632 1.384 . S
C4634 C4635 1.372 . S
C4635 C4634 1.372 . S
C4635 C4636 1.400 . S
C4635 C4640 1.490 . S
C4636 H4626 0.930 . S
C4636 C4635 1.400 . S
C4636 C4639 1.386 . S
H4637 C4653 0.930 . S
H4638 C4654 0.931 . S
C4639 H4627 0.929 . S
C4639 C4633 1.390 . S
C4639 C4636 1.386 . S
C4640 C4635 1.490 . S
C4640 C4642 1.395 . S
C4640 C4643 1.403 . S
H4641 C4647 0.930 . S
C4642 H4628 0.930 . S
C4642 C4640 1.395 . S
C4642 C4645 1.403 . S
C4643 C4640 1.403 . S
C4643 C4644 1.524 . S
C4643 C4647 1.400 . S
C4644 H4629 0.960 . S
C4644 H4630 0.960 . S
C4644 H4631 0.960 . S
C4644 C4643 1.524 . S
C4645 C4642 1.403 . S
C4645 C4646 1.392 . S
C4645 C4649 1.495 . S
C4646 C4645 1.392 . S
C4646 C4647 1.385 . S
C4646 C4648 1.478 . S
C4647 H4641 0.930 . S
C4647 C4643 1.400 . S
C4647 C4646 1.385 . S
C4648 C4646 1.478 . S
C4648 C4650 1.381 . S
C4648 C4654 1.383 . S
C4649 C4645 1.495 . S
C4649 H4655 0.959 . S
C4649 H4656 0.961 . S
C4649 H4657 0.960 . S
C4650 C4648 1.381 . S
C4650 C4651 1.394 . S
C4650 H4658 0.930 . S
C4651 C4650 1.394 . S
C4651 C4652 1.383 . S
C4651 H4659 0.929 . S
C4652 C4651 1.383 . S
C4652 C4653 1.377 . S
C4653 H4637 0.930 . S
C4653 C4652 1.377 . S
C4653 C4654 1.379 . S
C4654 H4638 0.931 . S
C4654 C4648 1.383 . S
C4654 C4653 1.379 . S
H4655 C4649 0.959 . S
H4656 C4649 0.961 . S
H4657 C4649 0.960 . S
H4658 C4650 0.930 . S
H4659 C4651 0.929 . S
H4660 C4668 0.929 . S
H4661 C4670 0.930 . S
H4662 C4672 0.930 . S
H4663 C4675 0.929 . S
H4664 C4678 0.930 . S
H4665 C4680 0.960 . S
H4666 C4680 0.960 . S
H4667 C4680 0.960 . S
C4668 H4660 0.929 . S
C4668 C4669 1.377 . S
C4668 C4670 1.384 . S
C4669 C4668 1.377 . S
C4669 C4675 1.390 . S
C4670 H4661 0.930 . S
C4670 C4668 1.384 . S
C4670 C4671 1.372 . S
C4671 C4670 1.372 . S
C4671 C4672 1.400 . S
C4671 C4676 1.490 . S
C4672 H4662 0.930 . S
C4672 C4671 1.400 . S
C4672 C4675 1.386 . S
H4673 C4689 0.930 . S
H4674 C4690 0.931 . S
C4675 H4663 0.929 . S
C4675 C4669 1.390 . S
C4675 C4672 1.386 . S
C4676 C4671 1.490 . S
C4676 C4678 1.395 . S
C4676 C4679 1.403 . S
H4677 C4683 0.930 . S
C4678 H4664 0.930 . S
C4678 C4676 1.395 . S
C4678 C4681 1.403 . S
C4679 C4676 1.403 . S
C4679 C4680 1.524 . S
C4679 C4683 1.400 . S
C4680 H4665 0.960 . S
C4680 H4666 0.960 . S
C4680 H4667 0.960 . S
C4680 C4679 1.524 . S
C4681 C4678 1.403 . S
C4681 C4682 1.392 . S
C4681 C4685 1.495 . S
C4682 C4681 1.392 . S
C4682 C4683 1.385 . S
C4682 C4684 1.478 . S
C4683 H4677 0.930 . S
C4683 C4679 1.400 . S
C4683 C4682 1.385 . S
C4684 C4682 1.478 . S
C4684 C4686 1.381 . S
C4684 C4690 1.383 . S
C4685 C4681 1.495 . S
C4685 H4691 0.959 . S
C4685 H4692 0.961 . S
C4685 H4693 0.960 . S
C4686 C4684 1.381 . S
C4686 C4687 1.394 . S
C4686 H4694 0.930 . S
C4687 C4686 1.394 . S
C4687 C4688 1.383 . S
C4687 H4695 0.929 . S
C4688 C4687 1.383 . S
C4688 C4689 1.377 . S
C4689 H4673 0.930 . S
C4689 C4688 1.377 . S
C4689 C4690 1.379 . S
C4690 H4674 0.931 . S
C4690 C4684 1.383 . S
C4690 C4689 1.379 . S
H4691 C4685 0.959 . S
H4692 C4685 0.961 . S
H4693 C4685 0.960 . S
H4694 C4686 0.930 . S
H4695 C4687 0.929 . S
H4696 C4704 0.929 . S
H4697 C4706 0.930 . S
H4698 C4708 0.930 . S
H4699 C4711 0.929 . S
H4700 C4714 0.930 . S
H4701 C4716 0.960 . S
H4702 C4716 0.960 . S
H4703 C4716 0.960 . S
C4704 H4696 0.929 . S
C4704 C4705 1.377 . S
C4704 C4706 1.384 . S
C4705 C4704 1.377 . S
C4705 C4711 1.390 . S
C4706 H4697 0.930 . S
C4706 C4704 1.384 . S
C4706 C4707 1.372 . S
C4707 C4706 1.372 . S
C4707 C4708 1.400 . S
C4707 C4712 1.490 . S
C4708 H4698 0.930 . S
C4708 C4707 1.400 . S
C4708 C4711 1.386 . S
H4709 C4725 0.930 . S
H4710 C4726 0.931 . S
C4711 H4699 0.929 . S
C4711 C4705 1.390 . S
C4711 C4708 1.386 . S
C4712 C4707 1.490 . S
C4712 C4714 1.395 . S
C4712 C4715 1.403 . S
H4713 C4719 0.930 . S
C4714 H4700 0.930 . S
C4714 C4712 1.395 . S
C4714 C4717 1.403 . S
C4715 C4712 1.403 . S
C4715 C4716 1.524 . S
C4715 C4719 1.400 . S
C4716 H4701 0.960 . S
C4716 H4702 0.960 . S
C4716 H4703 0.960 . S
C4716 C4715 1.524 . S
C4717 C4714 1.403 . S
C4717 C4718 1.392 . S
C4717 C4721 1.495 . S
C4718 C4717 1.392 . S
C4718 C4719 1.385 . S
C4718 C4720 1.478 . S
C4719 H4713 0.930 . S
C4719 C4715 1.400 . S
C4719 C4718 1.385 . S
C4720 C4718 1.478 . S
C4720 C4722 1.381 . S
C4720 C4726 1.383 . S
C4721 C4717 1.495 . S
C4721 H4727 0.959 . S
C4721 H4728 0.961 . S
C4721 H4729 0.960 . S
C4722 C4720 1.381 . S
C4722 C4723 1.394 . S
C4722 H4730 0.930 . S
C4723 C4722 1.394 . S
C4723 C4724 1.383 . S
C4723 H4731 0.929 . S
C4724 C4723 1.383 . S
C4724 C4725 1.377 . S
C4725 H4709 0.930 . S
C4725 C4724 1.377 . S
C4725 C4726 1.379 . S
C4726 H4710 0.931 . S
C4726 C4720 1.383 . S
C4726 C4725 1.379 . S
H4727 C4721 0.959 . S
H4728 C4721 0.961 . S
H4729 C4721 0.960 . S
H4730 C4722 0.930 . S
H4731 C4723 0.929 . S
H4732 C4740 0.929 . S
H4733 C4742 0.930 . S
H4734 C4744 0.930 . S
H4735 C4747 0.929 . S
H4736 C4750 0.930 . S
H4737 C4752 0.960 . S
H4738 C4752 0.960 . S
H4739 C4752 0.960 . S
C4740 H4732 0.929 . S
C4740 C4741 1.377 . S
C4740 C4742 1.384 . S
C4741 C4740 1.377 . S
C4741 C4747 1.390 . S
C4742 H4733 0.930 . S
C4742 C4740 1.384 . S
C4742 C4743 1.372 . S
C4743 C4742 1.372 . S
C4743 C4744 1.400 . S
C4743 C4748 1.490 . S
C4744 H4734 0.930 . S
C4744 C4743 1.400 . S
C4744 C4747 1.386 . S
H4745 C4761 0.930 . S
H4746 C4762 0.931 . S
C4747 H4735 0.929 . S
C4747 C4741 1.390 . S
C4747 C4744 1.386 . S
C4748 C4743 1.490 . S
C4748 C4750 1.395 . S
C4748 C4751 1.403 . S
H4749 C4755 0.930 . S
C4750 H4736 0.930 . S
C4750 C4748 1.395 . S
C4750 C4753 1.403 . S
C4751 C4748 1.403 . S
C4751 C4752 1.524 . S
C4751 C4755 1.400 . S
C4752 H4737 0.960 . S
C4752 H4738 0.960 . S
C4752 H4739 0.960 . S
C4752 C4751 1.524 . S
C4753 C4750 1.403 . S
C4753 C4754 1.392 . S
C4753 C4757 1.495 . S
C4754 C4753 1.392 . S
C4754 C4755 1.385 . S
C4754 C4756 1.478 . S
C4755 H4749 0.930 . S
C4755 C4751 1.400 . S
C4755 C4754 1.385 . S
C4756 C4754 1.478 . S
C4756 C4758 1.381 . S
C4756 C4762 1.383 . S
C4757 C4753 1.495 . S
C4757 H4763 0.959 . S
C4757 H4764 0.961 . S
C4757 H4765 0.960 . S
C4758 C4756 1.381 . S
C4758 C4759 1.394 . S
C4758 H4766 0.930 . S
C4759 C4758 1.394 . S
C4759 C4760 1.383 . S
C4759 H4767 0.929 . S
C4760 C4759 1.383 . S
C4760 C4761 1.377 . S
C4761 H4745 0.930 . S
C4761 C4760 1.377 . S
C4761 C4762 1.379 . S
C4762 H4746 0.931 . S
C4762 C4756 1.383 . S
C4762 C4761 1.379 . S
H4763 C4757 0.959 . S
H4764 C4757 0.961 . S
H4765 C4757 0.960 . S
H4766 C4758 0.930 . S
H4767 C4759 0.929 . S
H4768 C4776 0.929 . S
H4769 C4778 0.930 . S
H4770 C4780 0.930 . S
H4771 C4783 0.929 . S
H4772 C4786 0.930 . S
H4773 C4788 0.960 . S
H4774 C4788 0.960 . S
H4775 C4788 0.960 . S
C4776 H4768 0.929 . S
C4776 C4777 1.377 . S
C4776 C4778 1.384 . S
C4777 C4776 1.377 . S
C4777 C4783 1.390 . S
C4778 H4769 0.930 . S
C4778 C4776 1.384 . S
C4778 C4779 1.372 . S
C4779 C4778 1.372 . S
C4779 C4780 1.400 . S
C4779 C4784 1.490 . S
C4780 H4770 0.930 . S
C4780 C4779 1.400 . S
C4780 C4783 1.386 . S
H4781 C4797 0.930 . S
H4782 C4798 0.931 . S
C4783 H4771 0.929 . S
C4783 C4777 1.390 . S
C4783 C4780 1.386 . S
C4784 C4779 1.490 . S
C4784 C4786 1.395 . S
C4784 C4787 1.403 . S
H4785 C4791 0.930 . S
C4786 H4772 0.930 . S
C4786 C4784 1.395 . S
C4786 C4789 1.403 . S
C4787 C4784 1.403 . S
C4787 C4788 1.524 . S
C4787 C4791 1.400 . S
C4788 H4773 0.960 . S
C4788 H4774 0.960 . S
C4788 H4775 0.960 . S
C4788 C4787 1.524 . S
C4789 C4786 1.403 . S
C4789 C4790 1.392 . S
C4789 C4793 1.495 . S
C4790 C4789 1.392 . S
C4790 C4791 1.385 . S
C4790 C4792 1.478 . S
C4791 H4785 0.930 . S
C4791 C4787 1.400 . S
C4791 C4790 1.385 . S
C4792 C4790 1.478 . S
C4792 C4794 1.381 . S
C4792 C4798 1.383 . S
C4793 C4789 1.495 . S
C4793 H4799 0.959 . S
C4793 H4800 0.961 . S
C4793 H4801 0.960 . S
C4794 C4792 1.381 . S
C4794 C4795 1.394 . S
C4794 H4802 0.930 . S
C4795 C4794 1.394 . S
C4795 C4796 1.383 . S
C4795 H4803 0.929 . S
C4796 C4795 1.383 . S
C4796 C4797 1.377 . S
C4797 H4781 0.930 . S
C4797 C4796 1.377 . S
C4797 C4798 1.379 . S
C4798 H4782 0.931 . S
C4798 C4792 1.383 . S
C4798 C4797 1.379 . S
H4799 C4793 0.959 . S
H4800 C4793 0.961 . S
H4801 C4793 0.960 . S
H4802 C4794 0.930 . S
H4803 C4795 0.929 . S
H4804 C4812 0.929 . S
H4805 C4814 0.930 . S
H4806 C4816 0.930 . S
H4807 C4819 0.929 . S
H4808 C4822 0.930 . S
H4809 C4824 0.960 . S
H4810 C4824 0.960 . S
H4811 C4824 0.960 . S
C4812 H4804 0.929 . S
C4812 C4813 1.377 . S
C4812 C4814 1.384 . S
C4813 C4812 1.377 . S
C4813 C4819 1.390 . S
C4814 H4805 0.930 . S
C4814 C4812 1.384 . S
C4814 C4815 1.372 . S
C4815 C4814 1.372 . S
C4815 C4816 1.400 . S
C4815 C4820 1.490 . S
C4816 H4806 0.930 . S
C4816 C4815 1.400 . S
C4816 C4819 1.386 . S
H4817 C4833 0.930 . S
H4818 C4834 0.931 . S
C4819 H4807 0.929 . S
C4819 C4813 1.390 . S
C4819 C4816 1.386 . S
C4820 C4815 1.490 . S
C4820 C4822 1.395 . S
C4820 C4823 1.403 . S
H4821 C4827 0.930 . S
C4822 H4808 0.930 . S
C4822 C4820 1.395 . S
C4822 C4825 1.403 . S
C4823 C4820 1.403 . S
C4823 C4824 1.524 . S
C4823 C4827 1.400 . S
C4824 H4809 0.960 . S
C4824 H4810 0.960 . S
C4824 H4811 0.960 . S
C4824 C4823 1.524 . S
C4825 C4822 1.403 . S
C4825 C4826 1.392 . S
C4825 C4829 1.495 . S
C4826 C4825 1.392 . S
C4826 C4827 1.385 . S
C4826 C4828 1.478 . S
C4827 H4821 0.930 . S
C4827 C4823 1.400 . S
C4827 C4826 1.385 . S
C4828 C4826 1.478 . S
C4828 C4830 1.381 . S
C4828 C4834 1.383 . S
C4829 C4825 1.495 . S
C4829 H4835 0.959 . S
C4829 H4836 0.961 . S
C4829 H4837 0.960 . S
C4830 C4828 1.381 . S
C4830 C4831 1.394 . S
C4830 H4838 0.930 . S
C4831 C4830 1.394 . S
C4831 C4832 1.383 . S
C4831 H4839 0.929 . S
C4832 C4831 1.383 . S
C4832 C4833 1.377 . S
C4833 H4817 0.930 . S
C4833 C4832 1.377 . S
C4833 C4834 1.379 . S
C4834 H4818 0.931 . S
C4834 C4828 1.383 . S
C4834 C4833 1.379 . S
H4835 C4829 0.959 . S
H4836 C4829 0.961 . S
H4837 C4829 0.960 . S
H4838 C4830 0.930 . S
H4839 C4831 0.929 . S
H4840 C4848 0.929 . S
H4841 C4850 0.930 . S
H4842 C4852 0.930 . S
H4843 C4855 0.929 . S
H4844 C4858 0.930 . S
H4845 C4860 0.960 . S
H4846 C4860 0.960 . S
H4847 C4860 0.960 . S
C4848 H4840 0.929 . S
C4848 C4849 1.377 . S
C4848 C4850 1.384 . S
C4849 C4848 1.377 . S
C4849 C4855 1.390 . S
C4850 H4841 0.930 . S
C4850 C4848 1.384 . S
C4850 C4851 1.372 . S
C4851 C4850 1.372 . S
C4851 C4852 1.400 . S
C4851 C4856 1.490 . S
C4852 H4842 0.930 . S
C4852 C4851 1.400 . S
C4852 C4855 1.386 . S
H4853 C4869 0.930 . S
H4854 C4870 0.931 . S
C4855 H4843 0.929 . S
C4855 C4849 1.390 . S
C4855 C4852 1.386 . S
C4856 C4851 1.490 . S
C4856 C4858 1.395 . S
C4856 C4859 1.403 . S
H4857 C4863 0.930 . S
C4858 H4844 0.930 . S
C4858 C4856 1.395 . S
C4858 C4861 1.403 . S
C4859 C4856 1.403 . S
C4859 C4860 1.524 . S
C4859 C4863 1.400 . S
C4860 H4845 0.960 . S
C4860 H4846 0.960 . S
C4860 H4847 0.960 . S
C4860 C4859 1.524 . S
C4861 C4858 1.403 . S
C4861 C4862 1.392 . S
C4861 C4865 1.495 . S
C4862 C4861 1.392 . S
C4862 C4863 1.385 . S
C4862 C4864 1.478 . S
C4863 H4857 0.930 . S
C4863 C4859 1.400 . S
C4863 C4862 1.385 . S
C4864 C4862 1.478 . S
C4864 C4866 1.381 . S
C4864 C4870 1.383 . S
C4865 C4861 1.495 . S
C4865 H4871 0.959 . S
C4865 H4872 0.961 . S
C4865 H4873 0.960 . S
C4866 C4864 1.381 . S
C4866 C4867 1.394 . S
C4866 H4874 0.930 . S
C4867 C4866 1.394 . S
C4867 C4868 1.383 . S
C4867 H4875 0.929 . S
C4868 C4867 1.383 . S
C4868 C4869 1.377 . S
C4869 H4853 0.930 . S
C4869 C4868 1.377 . S
C4869 C4870 1.379 . S
C4870 H4854 0.931 . S
C4870 C4864 1.383 . S
C4870 C4869 1.379 . S
H4871 C4865 0.959 . S
H4872 C4865 0.961 . S
H4873 C4865 0.960 . S
H4874 C4866 0.930 . S
H4875 C4867 0.929 . S
H4876 C4884 0.929 . S
H4877 C4886 0.930 . S
H4878 C4888 0.930 . S
H4879 C4891 0.929 . S
H4880 C4894 0.930 . S
H4881 C4896 0.960 . S
H4882 C4896 0.960 . S
H4883 C4896 0.960 . S
C4884 H4876 0.929 . S
C4884 C4885 1.377 . S
C4884 C4886 1.384 . S
C4885 C4884 1.377 . S
C4885 C4891 1.390 . S
C4886 H4877 0.930 . S
C4886 C4884 1.384 . S
C4886 C4887 1.372 . S
C4887 C4886 1.372 . S
C4887 C4888 1.400 . S
C4887 C4892 1.490 . S
C4888 H4878 0.930 . S
C4888 C4887 1.400 . S
C4888 C4891 1.386 . S
H4889 C4905 0.930 . S
H4890 C4906 0.931 . S
C4891 H4879 0.929 . S
C4891 C4885 1.390 . S
C4891 C4888 1.386 . S
C4892 C4887 1.490 . S
C4892 C4894 1.395 . S
C4892 C4895 1.403 . S
H4893 C4899 0.930 . S
C4894 H4880 0.930 . S
C4894 C4892 1.395 . S
C4894 C4897 1.403 . S
C4895 C4892 1.403 . S
C4895 C4896 1.524 . S
C4895 C4899 1.400 . S
C4896 H4881 0.960 . S
C4896 H4882 0.960 . S
C4896 H4883 0.960 . S
C4896 C4895 1.524 . S
C4897 C4894 1.403 . S
C4897 C4898 1.392 . S
C4897 C4901 1.495 . S
C4898 C4897 1.392 . S
C4898 C4899 1.385 . S
C4898 C4900 1.478 . S
C4899 H4893 0.930 . S
C4899 C4895 1.400 . S
C4899 C4898 1.385 . S
C4900 C4898 1.478 . S
C4900 C4902 1.381 . S
C4900 C4906 1.383 . S
C4901 C4897 1.495 . S
C4901 H4907 0.959 . S
C4901 H4908 0.961 . S
C4901 H4909 0.960 . S
C4902 C4900 1.381 . S
C4902 C4903 1.394 . S
C4902 H4910 0.930 . S
C4903 C4902 1.394 . S
C4903 C4904 1.383 . S
C4903 H4911 0.929 . S
C4904 C4903 1.383 . S
C4904 C4905 1.377 . S
C4905 H4889 0.930 . S
C4905 C4904 1.377 . S
C4905 C4906 1.379 . S
C4906 H4890 0.931 . S
C4906 C4900 1.383 . S
C4906 C4905 1.379 . S
H4907 C4901 0.959 . S
H4908 C4901 0.961 . S
H4909 C4901 0.960 . S
H4910 C4902 0.930 . S
H4911 C4903 0.929 . S
H4912 C4920 0.929 . S
H4913 C4922 0.930 . S
H4914 C4924 0.930 . S
H4915 C4927 0.929 . S
H4916 C4930 0.930 . S
H4917 C4932 0.960 . S
H4918 C4932 0.960 . S
H4919 C4932 0.960 . S
C4920 H4912 0.929 . S
C4920 C4921 1.377 . S
C4920 C4922 1.384 . S
C4921 C4920 1.377 . S
C4921 C4927 1.390 . S
C4922 H4913 0.930 . S
C4922 C4920 1.384 . S
C4922 C4923 1.372 . S
C4923 C4922 1.372 . S
C4923 C4924 1.400 . S
C4923 C4928 1.490 . S
C4924 H4914 0.930 . S
C4924 C4923 1.400 . S
C4924 C4927 1.386 . S
H4925 C4941 0.930 . S
H4926 C4942 0.931 . S
C4927 H4915 0.929 . S
C4927 C4921 1.390 . S
C4927 C4924 1.386 . S
C4928 C4923 1.490 . S
C4928 C4930 1.395 . S
C4928 C4931 1.403 . S
H4929 C4935 0.930 . S
C4930 H4916 0.930 . S
C4930 C4928 1.395 . S
C4930 C4933 1.403 . S
C4931 C4928 1.403 . S
C4931 C4932 1.524 . S
C4931 C4935 1.400 . S
C4932 H4917 0.960 . S
C4932 H4918 0.960 . S
C4932 H4919 0.960 . S
C4932 C4931 1.524 . S
C4933 C4930 1.403 . S
C4933 C4934 1.392 . S
C4933 C4937 1.495 . S
C4934 C4933 1.392 . S
C4934 C4935 1.385 . S
C4934 C4936 1.478 . S
C4935 H4929 0.930 . S
C4935 C4931 1.400 . S
C4935 C4934 1.385 . S
C4936 C4934 1.478 . S
C4936 C4938 1.381 . S
C4936 C4942 1.383 . S
C4937 C4933 1.495 . S
C4937 H4943 0.959 . S
C4937 H4944 0.961 . S
C4937 H4945 0.960 . S
C4938 C4936 1.381 . S
C4938 C4939 1.394 . S
C4938 H4946 0.930 . S
C4939 C4938 1.394 . S
C4939 C4940 1.383 . S
C4939 H4947 0.929 . S
C4940 C4939 1.383 . S
C4940 C4941 1.377 . S
C4941 H4925 0.930 . S
C4941 C4940 1.377 . S
C4941 C4942 1.379 . S
C4942 H4926 0.931 . S
C4942 C4936 1.383 . S
C4942 C4941 1.379 . S
H4943 C4937 0.959 . S
H4944 C4937 0.961 . S
H4945 C4937 0.960 . S
H4946 C4938 0.930 . S
H4947 C4939 0.929 . S
H4948 C4956 0.929 . S
H4949 C4958 0.930 . S
H4950 C4960 0.930 . S
H4951 C4963 0.929 . S
H4952 C4966 0.930 . S
H4953 C4968 0.960 . S
H4954 C4968 0.960 . S
H4955 C4968 0.960 . S
C4956 H4948 0.929 . S
C4956 C4957 1.377 . S
C4956 C4958 1.384 . S
C4957 C4956 1.377 . S
C4957 C4963 1.390 . S
C4958 H4949 0.930 . S
C4958 C4956 1.384 . S
C4958 C4959 1.372 . S
C4959 C4958 1.372 . S
C4959 C4960 1.400 . S
C4959 C4964 1.490 . S
C4960 H4950 0.930 . S
C4960 C4959 1.400 . S
C4960 C4963 1.386 . S
H4961 C4977 0.930 . S
H4962 C4978 0.931 . S
C4963 H4951 0.929 . S
C4963 C4957 1.390 . S
C4963 C4960 1.386 . S
C4964 C4959 1.490 . S
C4964 C4966 1.395 . S
C4964 C4967 1.403 . S
H4965 C4971 0.930 . S
C4966 H4952 0.930 . S
C4966 C4964 1.395 . S
C4966 C4969 1.403 . S
C4967 C4964 1.403 . S
C4967 C4968 1.524 . S
C4967 C4971 1.400 . S
C4968 H4953 0.960 . S
C4968 H4954 0.960 . S
C4968 H4955 0.960 . S
C4968 C4967 1.524 . S
C4969 C4966 1.403 . S
C4969 C4970 1.392 . S
C4969 C4973 1.495 . S
C4970 C4969 1.392 . S
C4970 C4971 1.385 . S
C4970 C4972 1.478 . S
C4971 H4965 0.930 . S
C4971 C4967 1.400 . S
C4971 C4970 1.385 . S
C4972 C4970 1.478 . S
C4972 C4974 1.381 . S
C4972 C4978 1.383 . S
C4973 C4969 1.495 . S
C4973 H4979 0.959 . S
C4973 H4980 0.961 . S
C4973 H4981 0.960 . S
C4974 C4972 1.381 . S
C4974 C4975 1.394 . S
C4974 H4982 0.930 . S
C4975 C4974 1.394 . S
C4975 C4976 1.383 . S
C4975 H4983 0.929 . S
C4976 C4975 1.383 . S
C4976 C4977 1.377 . S
C4977 H4961 0.930 . S
C4977 C4976 1.377 . S
C4977 C4978 1.379 . S
C4978 H4962 0.931 . S
C4978 C4972 1.383 . S
C4978 C4977 1.379 . S
H4979 C4973 0.959 . S
H4980 C4973 0.961 . S
H4981 C4973 0.960 . S
H4982 C4974 0.930 . S
H4983 C4975 0.929 . S
H4984 C4992 0.929 . S
H4985 C4994 0.930 . S
H4986 C4996 0.930 . S
H4987 C4999 0.929 . S
H4988 C5002 0.930 . S
H4989 C5004 0.960 . S
H4990 C5004 0.960 . S
H4991 C5004 0.960 . S
C4992 H4984 0.929 . S
C4992 C4993 1.377 . S
C4992 C4994 1.384 . S
C4993 C4992 1.377 . S
C4993 C4999 1.390 . S
C4994 H4985 0.930 . S
C4994 C4992 1.384 . S
C4994 C4995 1.372 . S
C4995 C4994 1.372 . S
C4995 C4996 1.400 . S
C4995 C5000 1.490 . S
C4996 H4986 0.930 . S
C4996 C4995 1.400 . S
C4996 C4999 1.386 . S
H4997 C5013 0.930 . S
H4998 C5014 0.931 . S
C4999 H4987 0.929 . S
C4999 C4993 1.390 . S
C4999 C4996 1.386 . S
C5000 C4995 1.490 . S
C5000 C5002 1.395 . S
C5000 C5003 1.403 . S
H5001 C5007 0.930 . S
C5002 H4988 0.930 . S
C5002 C5000 1.395 . S
C5002 C5005 1.403 . S
C5003 C5000 1.403 . S
C5003 C5004 1.524 . S
C5003 C5007 1.400 . S
C5004 H4989 0.960 . S
C5004 H4990 0.960 . S
C5004 H4991 0.960 . S
C5004 C5003 1.524 . S
C5005 C5002 1.403 . S
C5005 C5006 1.392 . S
C5005 C5009 1.495 . S
C5006 C5005 1.392 . S
C5006 C5007 1.385 . S
C5006 C5008 1.478 . S
C5007 H5001 0.930 . S
C5007 C5003 1.400 . S
C5007 C5006 1.385 . S
C5008 C5006 1.478 . S
C5008 C5010 1.381 . S
C5008 C5014 1.383 . S
C5009 C5005 1.495 . S
C5009 H5015 0.959 . S
C5009 H5016 0.961 . S
C5009 H5017 0.960 . S
C5010 C5008 1.381 . S
C5010 C5011 1.394 . S
C5010 H5018 0.930 . S
C5011 C5010 1.394 . S
C5011 C5012 1.383 . S
C5011 H5019 0.929 . S
C5012 C5011 1.383 . S
C5012 C5013 1.377 . S
C5013 H4997 0.930 . S
C5013 C5012 1.377 . S
C5013 C5014 1.379 . S
C5014 H4998 0.931 . S
C5014 C5008 1.383 . S
C5014 C5013 1.379 . S
H5015 C5009 0.959 . S
H5016 C5009 0.961 . S
H5017 C5009 0.960 . S
H5018 C5010 0.930 . S
H5019 C5011 0.929 . S
H5020 C5028 0.929 . S
H5021 C5030 0.930 . S
H5022 C5032 0.930 . S
H5023 C5035 0.929 . S
H5024 C5038 0.930 . S
H5025 C5040 0.960 . S
H5026 C5040 0.960 . S
H5027 C5040 0.960 . S
C5028 H5020 0.929 . S
C5028 C5029 1.377 . S
C5028 C5030 1.384 . S
C5029 C5028 1.377 . S
C5029 C5035 1.390 . S
C5030 H5021 0.930 . S
C5030 C5028 1.384 . S
C5030 C5031 1.372 . S
C5031 C5030 1.372 . S
C5031 C5032 1.400 . S
C5031 C5036 1.490 . S
C5032 H5022 0.930 . S
C5032 C5031 1.400 . S
C5032 C5035 1.386 . S
H5033 C5049 0.930 . S
H5034 C5050 0.931 . S
C5035 H5023 0.929 . S
C5035 C5029 1.390 . S
C5035 C5032 1.386 . S
C5036 C5031 1.490 . S
C5036 C5038 1.395 . S
C5036 C5039 1.403 . S
H5037 C5043 0.930 . S
C5038 H5024 0.930 . S
C5038 C5036 1.395 . S
C5038 C5041 1.403 . S
C5039 C5036 1.403 . S
C5039 C5040 1.524 . S
C5039 C5043 1.400 . S
C5040 H5025 0.960 . S
C5040 H5026 0.960 . S
C5040 H5027 0.960 . S
C5040 C5039 1.524 . S
C5041 C5038 1.403 . S
C5041 C5042 1.392 . S
C5041 C5045 1.495 . S
C5042 C5041 1.392 . S
C5042 C5043 1.385 . S
C5042 C5044 1.478 . S
C5043 H5037 0.930 . S
C5043 C5039 1.400 . S
C5043 C5042 1.385 . S
C5044 C5042 1.478 . S
C5044 C5046 1.381 . S
C5044 C5050 1.383 . S
C5045 C5041 1.495 . S
C5045 H5051 0.959 . S
C5045 H5052 0.961 . S
C5045 H5053 0.960 . S
C5046 C5044 1.381 . S
C5046 C5047 1.394 . S
C5046 H5054 0.930 . S
C5047 C5046 1.394 . S
C5047 C5048 1.383 . S
C5047 H5055 0.929 . S
C5048 C5047 1.383 . S
C5048 C5049 1.377 . S
C5049 H5033 0.930 . S
C5049 C5048 1.377 . S
C5049 C5050 1.379 . S
C5050 H5034 0.931 . S
C5050 C5044 1.383 . S
C5050 C5049 1.379 . S
H5051 C5045 0.959 . S
H5052 C5045 0.961 . S
H5053 C5045 0.960 . S
H5054 C5046 0.930 . S
H5055 C5047 0.929 . S
H5056 C5064 0.929 . S
H5057 C5066 0.930 . S
H5058 C5068 0.930 . S
H5059 C5071 0.929 . S
H5060 C5074 0.930 . S
H5061 C5076 0.960 . S
H5062 C5076 0.960 . S
H5063 C5076 0.960 . S
C5064 H5056 0.929 . S
C5064 C5065 1.377 . S
C5064 C5066 1.384 . S
C5065 C5064 1.377 . S
C5065 C5071 1.390 . S
C5066 H5057 0.930 . S
C5066 C5064 1.384 . S
C5066 C5067 1.372 . S
C5067 C5066 1.372 . S
C5067 C5068 1.400 . S
C5067 C5072 1.490 . S
C5068 H5058 0.930 . S
C5068 C5067 1.400 . S
C5068 C5071 1.386 . S
H5069 C5085 0.930 . S
H5070 C5086 0.931 . S
C5071 H5059 0.929 . S
C5071 C5065 1.390 . S
C5071 C5068 1.386 . S
C5072 C5067 1.490 . S
C5072 C5074 1.395 . S
C5072 C5075 1.403 . S
H5073 C5079 0.930 . S
C5074 H5060 0.930 . S
C5074 C5072 1.395 . S
C5074 C5077 1.403 . S
C5075 C5072 1.403 . S
C5075 C5076 1.524 . S
C5075 C5079 1.400 . S
C5076 H5061 0.960 . S
C5076 H5062 0.960 . S
C5076 H5063 0.960 . S
C5076 C5075 1.524 . S
C5077 C5074 1.403 . S
C5077 C5078 1.392 . S
C5077 C5081 1.495 . S
C5078 C5077 1.392 . S
C5078 C5079 1.385 . S
C5078 C5080 1.478 . S
C5079 H5073 0.930 . S
C5079 C5075 1.400 . S
C5079 C5078 1.385 . S
C5080 C5078 1.478 . S
C5080 C5082 1.381 . S
C5080 C5086 1.383 . S
C5081 C5077 1.495 . S
C5081 H5087 0.959 . S
C5081 H5088 0.961 . S
C5081 H5089 0.960 . S
C5082 C5080 1.381 . S
C5082 C5083 1.394 . S
C5082 H5090 0.930 . S
C5083 C5082 1.394 . S
C5083 C5084 1.383 . S
C5083 H5091 0.929 . S
C5084 C5083 1.383 . S
C5084 C5085 1.377 . S
C5085 H5069 0.930 . S
C5085 C5084 1.377 . S
C5085 C5086 1.379 . S
C5086 H5070 0.931 . S
C5086 C5080 1.383 . S
C5086 C5085 1.379 . S
H5087 C5081 0.959 . S
H5088 C5081 0.961 . S
H5089 C5081 0.960 . S
H5090 C5082 0.930 . S
H5091 C5083 0.929 . S
H5092 C5100 0.929 . S
H5093 C5102 0.930 . S
H5094 C5104 0.930 . S
H5095 C5107 0.929 . S
H5096 C5110 0.930 . S
H5097 C5112 0.960 . S
H5098 C5112 0.960 . S
H5099 C5112 0.960 . S
C5100 H5092 0.929 . S
C5100 C5101 1.377 . S
C5100 C5102 1.384 . S
C5101 C5100 1.377 . S
C5101 C5107 1.390 . S
C5102 H5093 0.930 . S
C5102 C5100 1.384 . S
C5102 C5103 1.372 . S
C5103 C5102 1.372 . S
C5103 C5104 1.400 . S
C5103 C5108 1.490 . S
C5104 H5094 0.930 . S
C5104 C5103 1.400 . S
C5104 C5107 1.386 . S
H5105 C5121 0.930 . S
H5106 C5122 0.931 . S
C5107 H5095 0.929 . S
C5107 C5101 1.390 . S
C5107 C5104 1.386 . S
C5108 C5103 1.490 . S
C5108 C5110 1.395 . S
C5108 C5111 1.403 . S
H5109 C5115 0.930 . S
C5110 H5096 0.930 . S
C5110 C5108 1.395 . S
C5110 C5113 1.403 . S
C5111 C5108 1.403 . S
C5111 C5112 1.524 . S
C5111 C5115 1.400 . S
C5112 H5097 0.960 . S
C5112 H5098 0.960 . S
C5112 H5099 0.960 . S
C5112 C5111 1.524 . S
C5113 C5110 1.403 . S
C5113 C5114 1.392 . S
C5113 C5117 1.495 . S
C5114 C5113 1.392 . S
C5114 C5115 1.385 . S
C5114 C5116 1.478 . S
C5115 H5109 0.930 . S
C5115 C5111 1.400 . S
C5115 C5114 1.385 . S
C5116 C5114 1.478 . S
C5116 C5118 1.381 . S
C5116 C5122 1.383 . S
C5117 C5113 1.495 . S
C5117 H5123 0.959 . S
C5117 H5124 0.961 . S
C5117 H5125 0.960 . S
C5118 C5116 1.381 . S
C5118 C5119 1.394 . S
C5118 H5126 0.930 . S
C5119 C5118 1.394 . S
C5119 C5120 1.383 . S
C5119 H5127 0.929 . S
C5120 C5119 1.383 . S
C5120 C5121 1.377 . S
C5121 H5105 0.930 . S
C5121 C5120 1.377 . S
C5121 C5122 1.379 . S
C5122 H5106 0.931 . S
C5122 C5116 1.383 . S
C5122 C5121 1.379 . S
H5123 C5117 0.959 . S
H5124 C5117 0.961 . S
H5125 C5117 0.960 . S
H5126 C5118 0.930 . S
H5127 C5119 0.929 . S
H5128 C5136 0.929 . S
H5129 C5138 0.930 . S
H5130 C5140 0.930 . S
H5131 C5143 0.929 . S
H5132 C5146 0.930 . S
H5133 C5148 0.960 . S
H5134 C5148 0.960 . S
H5135 C5148 0.960 . S
C5136 H5128 0.929 . S
C5136 C5137 1.377 . S
C5136 C5138 1.384 . S
C5137 C5136 1.377 . S
C5137 C5143 1.390 . S
C5138 H5129 0.930 . S
C5138 C5136 1.384 . S
C5138 C5139 1.372 . S
C5139 C5138 1.372 . S
C5139 C5140 1.400 . S
C5139 C5144 1.490 . S
C5140 H5130 0.930 . S
C5140 C5139 1.400 . S
C5140 C5143 1.386 . S
H5141 C5157 0.930 . S
H5142 C5158 0.931 . S
C5143 H5131 0.929 . S
C5143 C5137 1.390 . S
C5143 C5140 1.386 . S
C5144 C5139 1.490 . S
C5144 C5146 1.395 . S
C5144 C5147 1.403 . S
H5145 C5151 0.930 . S
C5146 H5132 0.930 . S
C5146 C5144 1.395 . S
C5146 C5149 1.403 . S
C5147 C5144 1.403 . S
C5147 C5148 1.524 . S
C5147 C5151 1.400 . S
C5148 H5133 0.960 . S
C5148 H5134 0.960 . S
C5148 H5135 0.960 . S
C5148 C5147 1.524 . S
C5149 C5146 1.403 . S
C5149 C5150 1.392 . S
C5149 C5153 1.495 . S
C5150 C5149 1.392 . S
C5150 C5151 1.385 . S
C5150 C5152 1.478 . S
C5151 H5145 0.930 . S
C5151 C5147 1.400 . S
C5151 C5150 1.385 . S
C5152 C5150 1.478 . S
C5152 C5154 1.381 . S
C5152 C5158 1.383 . S
C5153 C5149 1.495 . S
C5153 H5159 0.959 . S
C5153 H5160 0.961 . S
C5153 H5161 0.960 . S
C5154 C5152 1.381 . S
C5154 C5155 1.394 . S
C5154 H5162 0.930 . S
C5155 C5154 1.394 . S
C5155 C5156 1.383 . S
C5155 H5163 0.929 . S
C5156 C5155 1.383 . S
C5156 C5157 1.377 . S
C5157 H5141 0.930 . S
C5157 C5156 1.377 . S
C5157 C5158 1.379 . S
C5158 H5142 0.931 . S
C5158 C5152 1.383 . S
C5158 C5157 1.379 . S
H5159 C5153 0.959 . S
H5160 C5153 0.961 . S
H5161 C5153 0.960 . S
H5162 C5154 0.930 . S
H5163 C5155 0.929 . S
H5164 C5172 0.929 . S
H5165 C5174 0.930 . S
H5166 C5176 0.930 . S
H5167 C5179 0.929 . S
H5168 C5182 0.930 . S
H5169 C5184 0.960 . S
H5170 C5184 0.960 1_556 S
H5171 C5184 0.960 . S
C5172 H5164 0.929 . S
C5172 C5173 1.377 1_556 S
C5172 C5174 1.384 . S
C5173 C5172 1.377 1_554 S
C5173 C5179 1.390 . S
C5174 H5165 0.930 . S
C5174 C5172 1.384 . S
C5174 C5175 1.372 1_556 S
C5175 C5174 1.372 1_554 S
C5175 C5176 1.400 . S
C5175 C5180 1.490 . S
C5176 H5166 0.930 . S
C5176 C5175 1.400 . S
C5176 C5179 1.386 . S
H5177 C5193 0.930 . S
H5178 C5194 0.931 . S
C5179 H5167 0.929 . S
C5179 C5173 1.390 . S
C5179 C5176 1.386 . S
C5180 C5175 1.490 . S
C5180 C5182 1.395 . S
C5180 C5183 1.403 . S
H5181 C5187 0.930 . S
C5182 H5168 0.930 . S
C5182 C5180 1.395 . S
C5182 C5185 1.403 . S
C5183 C5180 1.403 . S
C5183 C5184 1.524 . S
C5183 C5187 1.400 . S
C5184 H5169 0.960 . S
C5184 H5170 0.960 1_554 S
C5184 H5171 0.960 . S
C5184 C5183 1.524 . S
C5185 C5182 1.403 . S
C5185 C5186 1.392 . S
C5185 C5189 1.495 . S
C5186 C5185 1.392 . S
C5186 C5187 1.385 . S
C5186 C5188 1.478 . S
C5187 H5181 0.930 . S
C5187 C5183 1.400 . S
C5187 C5186 1.385 . S
C5188 C5186 1.478 . S
C5188 C5190 1.381 1_554 S
C5188 C5194 1.383 . S
C5189 C5185 1.495 . S
C5189 H5195 0.959 . S
C5189 H5196 0.961 . S
C5189 H5197 0.960 . S
C5190 C5188 1.381 1_556 S
C5190 C5191 1.394 . S
C5190 H5198 0.930 . S
C5191 C5190 1.394 . S
C5191 C5192 1.383 1_556 S
C5191 H5199 0.929 . S
C5192 C5191 1.383 1_554 S
C5192 C5193 1.377 . S
C5193 H5177 0.930 . S
C5193 C5192 1.377 . S
C5193 C5194 1.379 . S
C5194 H5178 0.931 . S
C5194 C5188 1.383 . S
C5194 C5193 1.379 . S
H5195 C5189 0.959 . S
H5196 C5189 0.961 . S
H5197 C5189 0.960 . S
H5198 C5190 0.930 . S
H5199 C5191 0.929 . S
H5200 C5208 0.929 . S
H5201 C5210 0.930 . S
H5202 C5212 0.930 . S
H5203 C5215 0.929 . S
H5204 C5218 0.930 . S
H5205 C5220 0.960 . S
H5206 C5220 0.960 . S
H5207 C5220 0.960 . S
C5208 H5200 0.929 . S
C5208 C5209 1.377 . S
C5208 C5210 1.384 . S
C5209 C5208 1.377 . S
C5209 C5215 1.390 . S
C5210 H5201 0.930 . S
C5210 C5208 1.384 . S
C5210 C5211 1.372 . S
C5211 C5210 1.372 . S
C5211 C5212 1.400 . S
C5211 C5216 1.490 . S
C5212 H5202 0.930 . S
C5212 C5211 1.400 . S
C5212 C5215 1.386 . S
H5213 C5229 0.930 . S
H5214 C5230 0.931 . S
C5215 H5203 0.929 . S
C5215 C5209 1.390 . S
C5215 C5212 1.386 . S
C5216 C5211 1.490 . S
C5216 C5218 1.395 . S
C5216 C5219 1.403 . S
H5217 C5223 0.930 . S
C5218 H5204 0.930 . S
C5218 C5216 1.395 . S
C5218 C5221 1.403 . S
C5219 C5216 1.403 . S
C5219 C5220 1.524 . S
C5219 C5223 1.400 . S
C5220 H5205 0.960 . S
C5220 H5206 0.960 . S
C5220 H5207 0.960 . S
C5220 C5219 1.524 . S
C5221 C5218 1.403 . S
C5221 C5222 1.392 . S
C5221 C5225 1.495 . S
C5222 C5221 1.392 . S
C5222 C5223 1.385 . S
C5222 C5224 1.478 . S
C5223 H5217 0.930 . S
C5223 C5219 1.400 . S
C5223 C5222 1.385 . S
C5224 C5222 1.478 . S
C5224 C5226 1.381 . S
C5224 C5230 1.383 . S
C5225 C5221 1.495 . S
C5225 H5231 0.959 . S
C5225 H5232 0.961 . S
C5225 H5233 0.960 . S
C5226 C5224 1.381 . S
C5226 C5227 1.394 . S
C5226 H5234 0.930 . S
C5227 C5226 1.394 . S
C5227 C5228 1.383 . S
C5227 H5235 0.929 . S
C5228 C5227 1.383 . S
C5228 C5229 1.377 . S
C5229 H5213 0.930 . S
C5229 C5228 1.377 . S
C5229 C5230 1.379 . S
C5230 H5214 0.931 . S
C5230 C5224 1.383 . S
C5230 C5229 1.379 . S
H5231 C5225 0.959 . S
H5232 C5225 0.961 . S
H5233 C5225 0.960 . S
H5234 C5226 0.930 . S
H5235 C5227 0.929 . S
H5236 C5244 0.929 . S
H5237 C5246 0.930 . S
H5238 C5248 0.930 1_556 S
H5239 C5251 0.929 1_556 S
H5240 C5254 0.930 . S
H5241 C5256 0.960 . S
H5242 C5256 0.960 . S
H5243 C5256 0.960 . S
C5244 H5236 0.929 . S
C5244 C5245 1.377 . S
C5244 C5246 1.384 . S
C5245 C5244 1.377 . S
C5245 C5251 1.390 . S
C5246 H5237 0.930 . S
C5246 C5244 1.384 . S
C5246 C5247 1.372 . S
C5247 C5246 1.372 . S
C5247 C5248 1.400 . S
C5247 C5252 1.490 . S
C5248 H5238 0.930 1_554 S
C5248 C5247 1.400 . S
C5248 C5251 1.386 . S
H5249 C5265 0.930 . S
H5250 C5266 0.931 . S
C5251 H5239 0.929 1_554 S
C5251 C5245 1.390 . S
C5251 C5248 1.386 . S
C5252 C5247 1.490 . S
C5252 C5254 1.395 . S
C5252 C5255 1.403 . S
H5253 C5259 0.930 . S
C5254 H5240 0.930 . S
C5254 C5252 1.395 . S
C5254 C5257 1.403 . S
C5255 C5252 1.403 . S
C5255 C5256 1.524 . S
C5255 C5259 1.400 . S
C5256 H5241 0.960 . S
C5256 H5242 0.960 . S
C5256 H5243 0.960 . S
C5256 C5255 1.524 . S
C5257 C5254 1.403 . S
C5257 C5258 1.392 . S
C5257 C5261 1.495 . S
C5258 C5257 1.392 . S
C5258 C5259 1.385 . S
C5258 C5260 1.478 . S
C5259 H5253 0.930 . S
C5259 C5255 1.400 . S
C5259 C5258 1.385 . S
C5260 C5258 1.478 . S
C5260 C5262 1.381 . S
C5260 C5266 1.383 . S
C5261 C5257 1.495 . S
C5261 H5267 0.959 . S
C5261 H5268 0.961 . S
C5261 H5269 0.960 . S
C5262 C5260 1.381 . S
C5262 C5263 1.394 . S
C5262 H5270 0.930 . S
C5263 C5262 1.394 . S
C5263 C5264 1.383 . S
C5263 H5271 0.929 . S
C5264 C5263 1.383 . S
C5264 C5265 1.377 . S
C5265 H5249 0.930 . S
C5265 C5264 1.377 . S
C5265 C5266 1.379 . S
C5266 H5250 0.931 . S
C5266 C5260 1.383 . S
C5266 C5265 1.379 . S
H5267 C5261 0.959 . S
H5268 C5261 0.961 . S
H5269 C5261 0.960 . S
H5270 C5262 0.930 . S
H5271 C5263 0.929 . S
H5272 C5280 0.929 . S
H5273 C5282 0.930 . S
H5274 C5284 0.930 . S
H5275 C5287 0.929 . S
H5276 C5290 0.930 . S
H5277 C5292 0.960 . S
H5278 C5292 0.960 . S
H5279 C5292 0.960 . S
C5280 H5272 0.929 . S
C5280 C5281 1.377 . S
C5280 C5282 1.384 . S
C5281 C5280 1.377 . S
C5281 C5287 1.390 . S
C5282 H5273 0.930 . S
C5282 C5280 1.384 . S
C5282 C5283 1.372 . S
C5283 C5282 1.372 . S
C5283 C5284 1.400 . S
C5283 C5288 1.490 . S
C5284 H5274 0.930 . S
C5284 C5283 1.400 . S
C5284 C5287 1.386 . S
H5285 C5301 0.930 . S
H5286 C5302 0.931 . S
C5287 H5275 0.929 . S
C5287 C5281 1.390 . S
C5287 C5284 1.386 . S
C5288 C5283 1.490 . S
C5288 C5290 1.395 . S
C5288 C5291 1.403 . S
H5289 C5295 0.930 . S
C5290 H5276 0.930 . S
C5290 C5288 1.395 . S
C5290 C5293 1.403 . S
C5291 C5288 1.403 . S
C5291 C5292 1.524 . S
C5291 C5295 1.400 . S
C5292 H5277 0.960 . S
C5292 H5278 0.960 . S
C5292 H5279 0.960 . S
C5292 C5291 1.524 . S
C5293 C5290 1.403 . S
C5293 C5294 1.392 . S
C5293 C5297 1.495 . S
C5294 C5293 1.392 . S
C5294 C5295 1.385 . S
C5294 C5296 1.478 . S
C5295 H5289 0.930 . S
C5295 C5291 1.400 . S
C5295 C5294 1.385 . S
C5296 C5294 1.478 . S
C5296 C5298 1.381 . S
C5296 C5302 1.383 . S
C5297 C5293 1.495 . S
C5297 H5303 0.959 . S
C5297 H5304 0.961 . S
C5297 H5305 0.960 . S
C5298 C5296 1.381 . S
C5298 C5299 1.394 . S
C5298 H5306 0.930 . S
C5299 C5298 1.394 . S
C5299 C5300 1.383 . S
C5299 H5307 0.929 . S
C5300 C5299 1.383 . S
C5300 C5301 1.377 . S
C5301 H5285 0.930 . S
C5301 C5300 1.377 . S
C5301 C5302 1.379 . S
C5302 H5286 0.931 . S
C5302 C5296 1.383 . S
C5302 C5301 1.379 . S
H5303 C5297 0.959 . S
H5304 C5297 0.961 . S
H5305 C5297 0.960 . S
H5306 C5298 0.930 . S
H5307 C5299 0.929 . S
H5308 C5316 0.929 . S
H5309 C5318 0.930 . S
H5310 C5320 0.930 . S
H5311 C5323 0.929 . S
H5312 C5326 0.930 . S
H5313 C5328 0.960 . S
H5314 C5328 0.960 . S
H5315 C5328 0.960 . S
C5316 H5308 0.929 . S
C5316 C5317 1.377 . S
C5316 C5318 1.384 . S
C5317 C5316 1.377 . S
C5317 C5323 1.390 . S
C5318 H5309 0.930 . S
C5318 C5316 1.384 . S
C5318 C5319 1.372 . S
C5319 C5318 1.372 . S
C5319 C5320 1.400 . S
C5319 C5324 1.490 . S
C5320 H5310 0.930 . S
C5320 C5319 1.400 . S
C5320 C5323 1.386 . S
H5321 C5337 0.930 . S
H5322 C5338 0.931 . S
C5323 H5311 0.929 . S
C5323 C5317 1.390 . S
C5323 C5320 1.386 . S
C5324 C5319 1.490 . S
C5324 C5326 1.395 . S
C5324 C5327 1.403 . S
H5325 C5331 0.930 . S
C5326 H5312 0.930 . S
C5326 C5324 1.395 . S
C5326 C5329 1.403 . S
C5327 C5324 1.403 . S
C5327 C5328 1.524 . S
C5327 C5331 1.400 . S
C5328 H5313 0.960 . S
C5328 H5314 0.960 . S
C5328 H5315 0.960 . S
C5328 C5327 1.524 . S
C5329 C5326 1.403 . S
C5329 C5330 1.392 . S
C5329 C5333 1.495 . S
C5330 C5329 1.392 . S
C5330 C5331 1.385 . S
C5330 C5332 1.478 . S
C5331 H5325 0.930 . S
C5331 C5327 1.400 . S
C5331 C5330 1.385 . S
C5332 C5330 1.478 . S
C5332 C5334 1.381 . S
C5332 C5338 1.383 . S
C5333 C5329 1.495 . S
C5333 H5339 0.959 . S
C5333 H5340 0.961 . S
C5333 H5341 0.960 . S
C5334 C5332 1.381 . S
C5334 C5335 1.394 . S
C5334 H5342 0.930 . S
C5335 C5334 1.394 . S
C5335 C5336 1.383 . S
C5335 H5343 0.929 . S
C5336 C5335 1.383 . S
C5336 C5337 1.377 . S
C5337 H5321 0.930 . S
C5337 C5336 1.377 . S
C5337 C5338 1.379 . S
C5338 H5322 0.931 . S
C5338 C5332 1.383 . S
C5338 C5337 1.379 . S
H5339 C5333 0.959 . S
H5340 C5333 0.961 . S
H5341 C5333 0.960 . S
H5342 C5334 0.930 . S
H5343 C5335 0.929 . S
H5344 C5352 0.929 . S
H5345 C5354 0.930 . S
H5346 C5356 0.930 . S
H5347 C5359 0.929 . S
H5348 C5362 0.930 . S
H5349 C5364 0.960 . S
H5350 C5364 0.960 . S
H5351 C5364 0.960 . S
C5352 H5344 0.929 . S
C5352 C5353 1.377 . S
C5352 C5354 1.384 . S
C5353 C5352 1.377 . S
C5353 C5359 1.390 . S
C5354 H5345 0.930 . S
C5354 C5352 1.384 . S
C5354 C5355 1.372 . S
C5355 C5354 1.372 . S
C5355 C5356 1.400 . S
C5355 C5360 1.490 . S
C5356 H5346 0.930 . S
C5356 C5355 1.400 . S
C5356 C5359 1.386 . S
H5357 C5373 0.930 . S
H5358 C5374 0.931 . S
C5359 H5347 0.929 . S
C5359 C5353 1.390 . S
C5359 C5356 1.386 . S
C5360 C5355 1.490 . S
C5360 C5362 1.395 . S
C5360 C5363 1.403 . S
H5361 C5367 0.930 . S
C5362 H5348 0.930 . S
C5362 C5360 1.395 . S
C5362 C5365 1.403 . S
C5363 C5360 1.403 . S
C5363 C5364 1.524 . S
C5363 C5367 1.400 . S
C5364 H5349 0.960 . S
C5364 H5350 0.960 . S
C5364 H5351 0.960 . S
C5364 C5363 1.524 . S
C5365 C5362 1.403 . S
C5365 C5366 1.392 . S
C5365 C5369 1.495 . S
C5366 C5365 1.392 . S
C5366 C5367 1.385 . S
C5366 C5368 1.478 . S
C5367 H5361 0.930 . S
C5367 C5363 1.400 . S
C5367 C5366 1.385 . S
C5368 C5366 1.478 . S
C5368 C5370 1.381 . S
C5368 C5374 1.383 . S
C5369 C5365 1.495 . S
C5369 H5375 0.959 . S
C5369 H5376 0.961 . S
C5369 H5377 0.960 . S
C5370 C5368 1.381 . S
C5370 C5371 1.394 . S
C5370 H5378 0.930 . S
C5371 C5370 1.394 . S
C5371 C5372 1.383 . S
C5371 H5379 0.929 . S
C5372 C5371 1.383 . S
C5372 C5373 1.377 . S
C5373 H5357 0.930 . S
C5373 C5372 1.377 . S
C5373 C5374 1.379 . S
C5374 H5358 0.931 . S
C5374 C5368 1.383 . S
C5374 C5373 1.379 . S
H5375 C5369 0.959 . S
H5376 C5369 0.961 . S
H5377 C5369 0.960 . S
H5378 C5370 0.930 . S
H5379 C5371 0.929 . S
H5380 C5388 0.929 . S
H5381 C5390 0.930 . S
H5382 C5392 0.930 . S
H5383 C5395 0.929 . S
H5384 C5398 0.930 . S
H5385 C5400 0.960 . S
H5386 C5400 0.960 . S
H5387 C5400 0.960 . S
C5388 H5380 0.929 . S
C5388 C5389 1.377 . S
C5388 C5390 1.384 . S
C5389 C5388 1.377 . S
C5389 C5395 1.390 . S
C5390 H5381 0.930 . S
C5390 C5388 1.384 . S
C5390 C5391 1.372 . S
C5391 C5390 1.372 . S
C5391 C5392 1.400 . S
C5391 C5396 1.490 . S
C5392 H5382 0.930 . S
C5392 C5391 1.400 . S
C5392 C5395 1.386 . S
H5393 C5409 0.930 . S
H5394 C5410 0.931 . S
C5395 H5383 0.929 . S
C5395 C5389 1.390 . S
C5395 C5392 1.386 . S
C5396 C5391 1.490 . S
C5396 C5398 1.395 . S
C5396 C5399 1.403 . S
H5397 C5403 0.930 . S
C5398 H5384 0.930 . S
C5398 C5396 1.395 . S
C5398 C5401 1.403 . S
C5399 C5396 1.403 . S
C5399 C5400 1.524 . S
C5399 C5403 1.400 . S
C5400 H5385 0.960 . S
C5400 H5386 0.960 . S
C5400 H5387 0.960 . S
C5400 C5399 1.524 . S
C5401 C5398 1.403 . S
C5401 C5402 1.392 . S
C5401 C5405 1.495 . S
C5402 C5401 1.392 . S
C5402 C5403 1.385 . S
C5402 C5404 1.478 . S
C5403 H5397 0.930 . S
C5403 C5399 1.400 . S
C5403 C5402 1.385 . S
C5404 C5402 1.478 . S
C5404 C5406 1.381 . S
C5404 C5410 1.383 . S
C5405 C5401 1.495 . S
C5405 H5411 0.959 . S
C5405 H5412 0.961 . S
C5405 H5413 0.960 . S
C5406 C5404 1.381 . S
C5406 C5407 1.394 . S
C5406 H5414 0.930 . S
C5407 C5406 1.394 . S
C5407 C5408 1.383 . S
C5407 H5415 0.929 . S
C5408 C5407 1.383 . S
C5408 C5409 1.377 . S
C5409 H5393 0.930 . S
C5409 C5408 1.377 . S
C5409 C5410 1.379 . S
C5410 H5394 0.931 . S
C5410 C5404 1.383 . S
C5410 C5409 1.379 . S
H5411 C5405 0.959 . S
H5412 C5405 0.961 . S
H5413 C5405 0.960 . S
H5414 C5406 0.930 . S
H5415 C5407 0.929 . S
H5416 C5424 0.929 . S
H5417 C5426 0.930 . S
H5418 C5428 0.930 . S
H5419 C5431 0.929 . S
H5420 C5434 0.930 . S
H5421 C5436 0.960 . S
H5422 C5436 0.960 . S
H5423 C5436 0.960 . S
C5424 H5416 0.929 . S
C5424 C5425 1.377 . S
C5424 C5426 1.384 . S
C5425 C5424 1.377 . S
C5425 C5431 1.390 . S
C5426 H5417 0.930 . S
C5426 C5424 1.384 . S
C5426 C5427 1.372 . S
C5427 C5426 1.372 . S
C5427 C5428 1.400 . S
C5427 C5432 1.490 . S
C5428 H5418 0.930 . S
C5428 C5427 1.400 . S
C5428 C5431 1.386 . S
H5429 C5445 0.930 . S
H5430 C5446 0.931 . S
C5431 H5419 0.929 . S
C5431 C5425 1.390 . S
C5431 C5428 1.386 . S
C5432 C5427 1.490 . S
C5432 C5434 1.395 . S
C5432 C5435 1.403 . S
H5433 C5439 0.930 . S
C5434 H5420 0.930 . S
C5434 C5432 1.395 . S
C5434 C5437 1.403 . S
C5435 C5432 1.403 . S
C5435 C5436 1.524 . S
C5435 C5439 1.400 . S
C5436 H5421 0.960 . S
C5436 H5422 0.960 . S
C5436 H5423 0.960 . S
C5436 C5435 1.524 . S
C5437 C5434 1.403 . S
C5437 C5438 1.392 . S
C5437 C5441 1.495 1_455 S
C5438 C5437 1.392 . S
C5438 C5439 1.385 . S
C5438 C5440 1.478 . S
C5439 H5433 0.930 . S
C5439 C5435 1.400 . S
C5439 C5438 1.385 . S
C5440 C5438 1.478 . S
C5440 C5442 1.381 . S
C5440 C5446 1.383 . S
C5441 C5437 1.495 1_655 S
C5441 H5447 0.959 . S
C5441 H5448 0.961 . S
C5441 H5449 0.960 . S
C5442 C5440 1.381 . S
C5442 C5443 1.394 . S
C5442 H5450 0.930 . S
C5443 C5442 1.394 . S
C5443 C5444 1.383 . S
C5443 H5451 0.929 . S
C5444 C5443 1.383 . S
C5444 C5445 1.377 . S
C5445 H5429 0.930 . S
C5445 C5444 1.377 . S
C5445 C5446 1.379 . S
C5446 H5430 0.931 . S
C5446 C5440 1.383 . S
C5446 C5445 1.379 . S
H5447 C5441 0.959 . S
H5448 C5441 0.961 . S
H5449 C5441 0.960 . S
H5450 C5442 0.930 . S
H5451 C5443 0.929 . S
H5452 C5460 0.929 . S
H5453 C5462 0.930 . S
H5454 C5464 0.930 . S
H5455 C5467 0.929 . S
H5456 C5470 0.930 . S
H5457 C5472 0.960 . S
H5458 C5472 0.960 . S
H5459 C5472 0.960 . S
C5460 H5452 0.929 . S
C5460 C5461 1.377 . S
C5460 C5462 1.384 . S
C5461 C5460 1.377 . S
C5461 C5467 1.390 . S
C5462 H5453 0.930 . S
C5462 C5460 1.384 . S
C5462 C5463 1.372 . S
C5463 C5462 1.372 . S
C5463 C5464 1.400 . S
C5463 C5468 1.490 . S
C5464 H5454 0.930 . S
C5464 C5463 1.400 . S
C5464 C5467 1.386 . S
H5465 C5481 0.930 . S
H5466 C5482 0.931 . S
C5467 H5455 0.929 . S
C5467 C5461 1.390 . S
C5467 C5464 1.386 . S
C5468 C5463 1.490 . S
C5468 C5470 1.395 . S
C5468 C5471 1.403 . S
H5469 C5475 0.930 . S
C5470 H5456 0.930 . S
C5470 C5468 1.395 . S
C5470 C5473 1.403 . S
C5471 C5468 1.403 . S
C5471 C5472 1.524 . S
C5471 C5475 1.400 . S
C5472 H5457 0.960 . S
C5472 H5458 0.960 . S
C5472 H5459 0.960 . S
C5472 C5471 1.524 . S
C5473 C5470 1.403 . S
C5473 C5474 1.392 . S
C5473 C5477 1.495 . S
C5474 C5473 1.392 . S
C5474 C5475 1.385 . S
C5474 C5476 1.478 . S
C5475 H5469 0.930 . S
C5475 C5471 1.400 . S
C5475 C5474 1.385 . S
C5476 C5474 1.478 . S
C5476 C5478 1.381 . S
C5476 C5482 1.383 . S
C5477 C5473 1.495 . S
C5477 H5483 0.959 . S
C5477 H5484 0.961 . S
C5477 H5485 0.960 . S
C5478 C5476 1.381 . S
C5478 C5479 1.394 . S
C5478 H5486 0.930 . S
C5479 C5478 1.394 . S
C5479 C5480 1.383 . S
C5479 H5487 0.929 . S
C5480 C5479 1.383 . S
C5480 C5481 1.377 . S
C5481 H5465 0.930 . S
C5481 C5480 1.377 . S
C5481 C5482 1.379 . S
C5482 H5466 0.931 . S
C5482 C5476 1.383 . S
C5482 C5481 1.379 . S
H5483 C5477 0.959 . S
H5484 C5477 0.961 . S
H5485 C5477 0.960 . S
H5486 C5478 0.930 . S
H5487 C5479 0.929 . S
H5488 C5496 0.929 . S
H5489 C5498 0.930 . S
H5490 C5500 0.930 . S
H5491 C5503 0.929 . S
H5492 C5506 0.930 . S
H5493 C5508 0.960 . S
H5494 C5508 0.960 . S
H5495 C5508 0.960 . S
C5496 H5488 0.929 . S
C5496 C5497 1.377 . S
C5496 C5498 1.384 . S
C5497 C5496 1.377 . S
C5497 C5503 1.390 . S
C5498 H5489 0.930 . S
C5498 C5496 1.384 . S
C5498 C5499 1.372 . S
C5499 C5498 1.372 . S
C5499 C5500 1.400 . S
C5499 C5504 1.490 . S
C5500 H5490 0.930 . S
C5500 C5499 1.400 . S
C5500 C5503 1.386 . S
H5501 C5517 0.930 . S
H5502 C5518 0.931 . S
C5503 H5491 0.929 . S
C5503 C5497 1.390 . S
C5503 C5500 1.386 . S
C5504 C5499 1.490 . S
C5504 C5506 1.395 . S
C5504 C5507 1.403 . S
H5505 C5511 0.930 . S
C5506 H5492 0.930 . S
C5506 C5504 1.395 . S
C5506 C5509 1.403 . S
C5507 C5504 1.403 . S
C5507 C5508 1.524 . S
C5507 C5511 1.400 . S
C5508 H5493 0.960 . S
C5508 H5494 0.960 . S
C5508 H5495 0.960 . S
C5508 C5507 1.524 . S
C5509 C5506 1.403 . S
C5509 C5510 1.392 . S
C5509 C5513 1.495 . S
C5510 C5509 1.392 . S
C5510 C5511 1.385 . S
C5510 C5512 1.478 . S
C5511 H5505 0.930 . S
C5511 C5507 1.400 . S
C5511 C5510 1.385 . S
C5512 C5510 1.478 . S
C5512 C5514 1.381 . S
C5512 C5518 1.383 . S
C5513 C5509 1.495 . S
C5513 H5519 0.959 . S
C5513 H5520 0.961 . S
C5513 H5521 0.960 . S
C5514 C5512 1.381 . S
C5514 C5515 1.394 . S
C5514 H5522 0.930 . S
C5515 C5514 1.394 . S
C5515 C5516 1.383 . S
C5515 H5523 0.929 . S
C5516 C5515 1.383 . S
C5516 C5517 1.377 . S
C5517 H5501 0.930 . S
C5517 C5516 1.377 . S
C5517 C5518 1.379 . S
C5518 H5502 0.931 . S
C5518 C5512 1.383 . S
C5518 C5517 1.379 . S
H5519 C5513 0.959 . S
H5520 C5513 0.961 . S
H5521 C5513 0.960 . S
H5522 C5514 0.930 . S
H5523 C5515 0.929 . S
H5524 C5532 0.929 . S
H5525 C5534 0.930 . S
H5526 C5536 0.930 . S
H5527 C5539 0.929 . S
H5528 C5542 0.930 . S
H5529 C5544 0.960 . S
H5530 C5544 0.960 . S
H5531 C5544 0.960 . S
C5532 H5524 0.929 . S
C5532 C5533 1.377 . S
C5532 C5534 1.384 . S
C5533 C5532 1.377 . S
C5533 C5539 1.390 . S
C5534 H5525 0.930 . S
C5534 C5532 1.384 . S
C5534 C5535 1.372 . S
C5535 C5534 1.372 . S
C5535 C5536 1.400 . S
C5535 C5540 1.490 . S
C5536 H5526 0.930 . S
C5536 C5535 1.400 . S
C5536 C5539 1.386 . S
H5537 C5553 0.930 . S
H5538 C5554 0.931 . S
C5539 H5527 0.929 . S
C5539 C5533 1.390 . S
C5539 C5536 1.386 . S
C5540 C5535 1.490 . S
C5540 C5542 1.395 . S
C5540 C5543 1.403 . S
H5541 C5547 0.930 . S
C5542 H5528 0.930 . S
C5542 C5540 1.395 . S
C5542 C5545 1.403 . S
C5543 C5540 1.403 . S
C5543 C5544 1.524 . S
C5543 C5547 1.400 . S
C5544 H5529 0.960 . S
C5544 H5530 0.960 . S
C5544 H5531 0.960 . S
C5544 C5543 1.524 . S
C5545 C5542 1.403 . S
C5545 C5546 1.392 . S
C5545 C5549 1.495 . S
C5546 C5545 1.392 . S
C5546 C5547 1.385 . S
C5546 C5548 1.478 . S
C5547 H5541 0.930 . S
C5547 C5543 1.400 . S
C5547 C5546 1.385 . S
C5548 C5546 1.478 . S
C5548 C5550 1.381 . S
C5548 C5554 1.383 . S
C5549 C5545 1.495 . S
C5549 H5555 0.959 . S
C5549 H5556 0.961 . S
C5549 H5557 0.960 . S
C5550 C5548 1.381 . S
C5550 C5551 1.394 . S
C5550 H5558 0.930 . S
C5551 C5550 1.394 . S
C5551 C5552 1.383 . S
C5551 H5559 0.929 . S
C5552 C5551 1.383 . S
C5552 C5553 1.377 . S
C5553 H5537 0.930 . S
C5553 C5552 1.377 . S
C5553 C5554 1.379 . S
C5554 H5538 0.931 . S
C5554 C5548 1.383 . S
C5554 C5553 1.379 . S
H5555 C5549 0.959 . S
H5556 C5549 0.961 . S
H5557 C5549 0.960 . S
H5558 C5550 0.930 . S
H5559 C5551 0.929 . S
H5560 C5568 0.929 . S
H5561 C5570 0.930 . S
H5562 C5572 0.930 1_655 S
H5563 C5575 0.929 1_655 S
H5564 C5578 0.930 . S
H5565 C5580 0.960 . S
H5566 C5580 0.960 . S
H5567 C5580 0.960 . S
C5568 H5560 0.929 . S
C5568 C5569 1.377 . S
C5568 C5570 1.384 . S
C5569 C5568 1.377 . S
C5569 C5575 1.390 . S
C5570 H5561 0.930 . S
C5570 C5568 1.384 . S
C5570 C5571 1.372 . S
C5571 C5570 1.372 . S
C5571 C5572 1.400 . S
C5571 C5576 1.490 . S
C5572 H5562 0.930 1_455 S
C5572 C5571 1.400 . S
C5572 C5575 1.386 . S
H5573 C5589 0.930 . S
H5574 C5590 0.975 . S
C5575 H5563 0.929 1_455 S
C5575 C5569 1.390 . S
C5575 C5572 1.386 . S
C5576 C5571 1.490 . S
C5576 C5578 1.395 . S
C5576 C5579 1.403 . S
H5577 C5583 0.930 . S
C5578 H5564 0.930 . S
C5578 C5576 1.395 . S
C5578 C5581 1.403 . S
C5579 C5576 1.403 . S
C5579 C5580 1.524 . S
C5579 C5583 1.400 . S
C5580 H5565 0.960 . S
C5580 H5566 0.960 . S
C5580 H5567 0.960 . S
C5580 C5579 1.524 . S
C5581 C5578 1.403 . S
C5581 C5582 1.392 . S
C5581 C5585 1.495 . S
C5582 C5581 1.392 . S
C5582 C5583 1.385 . S
C5582 C5584 1.478 . S
C5583 H5577 0.930 . S
C5583 C5579 1.400 . S
C5583 C5582 1.385 . S
C5584 C5582 1.478 . S
C5584 C5586 1.381 . S
C5584 C5590 1.383 . S
C5585 C5581 1.495 . S
C5585 H5591 0.959 . S
C5585 H5592 0.961 . S
C5585 H5593 0.960 . S
C5586 C5584 1.381 . S
C5586 C5587 1.394 . S
C5586 H5594 0.930 . S
C5587 C5586 1.394 . S
C5587 C5588 1.383 . S
C5587 H5595 0.929 . S
C5588 C5587 1.383 . S
C5588 C5589 1.377 . S
C5589 H5573 0.930 . S
C5589 C5588 1.377 . S
C5589 C5590 1.379 . S
C5590 H5574 0.975 . S
C5590 C5584 1.383 . S
C5590 C5589 1.379 . S
H5591 C5585 0.959 . S
H5592 C5585 0.961 . S
H5593 C5585 0.960 . S
H5594 C5586 0.930 . S
H5595 C5587 0.929 . S
H5596 C5604 0.929 . S
H5597 C5606 0.930 . S
H5598 C5608 0.930 . S
H5599 C5611 0.929 . S
H5600 C5614 0.930 . S
H5601 C5616 0.960 . S
H5602 C5616 0.960 . S
H5603 C5616 0.960 . S
C5604 H5596 0.929 . S
C5604 C5605 1.377 . S
C5604 C5606 1.384 . S
C5605 C5604 1.377 . S
C5605 C5611 1.390 . S
C5606 H5597 0.930 . S
C5606 C5604 1.384 . S
C5606 C5607 1.372 . S
C5607 C5606 1.372 . S
C5607 C5608 1.400 . S
C5607 C5612 1.490 . S
C5608 H5598 0.930 . S
C5608 C5607 1.400 . S
C5608 C5611 1.386 . S
H5609 C5625 0.930 . S
H5610 C5626 0.931 . S
C5611 H5599 0.929 . S
C5611 C5605 1.390 . S
C5611 C5608 1.386 . S
C5612 C5607 1.490 . S
C5612 C5614 1.395 . S
C5612 C5615 1.403 . S
H5613 C5619 0.930 . S
C5614 H5600 0.930 . S
C5614 C5612 1.395 . S
C5614 C5617 1.403 . S
C5615 C5612 1.403 . S
C5615 C5616 1.524 . S
C5615 C5619 1.400 . S
C5616 H5601 0.960 . S
C5616 H5602 0.960 . S
C5616 H5603 0.960 . S
C5616 C5615 1.524 . S
C5617 C5614 1.403 . S
C5617 C5618 1.392 . S
C5617 C5621 1.495 . S
C5618 C5617 1.392 . S
C5618 C5619 1.385 . S
C5618 C5620 1.478 . S
C5619 H5613 0.930 . S
C5619 C5615 1.400 . S
C5619 C5618 1.385 . S
C5620 C5618 1.478 . S
C5620 C5622 1.381 . S
C5620 C5626 1.383 . S
C5621 C5617 1.495 . S
C5621 H5627 0.959 . S
C5621 H5628 0.961 . S
C5621 H5629 0.960 . S
C5622 C5620 1.381 . S
C5622 C5623 1.394 . S
C5622 H5630 0.930 . S
C5623 C5622 1.394 . S
C5623 C5624 1.383 . S
C5623 H5631 0.929 . S
C5624 C5623 1.383 . S
C5624 C5625 1.377 . S
C5625 H5609 0.930 . S
C5625 C5624 1.377 . S
C5625 C5626 1.379 . S
C5626 H5610 0.931 . S
C5626 C5620 1.383 . S
C5626 C5625 1.379 . S
H5627 C5621 0.959 . S
H5628 C5621 0.961 . S
H5629 C5621 0.960 . S
H5630 C5622 0.930 . S
H5631 C5623 0.929 . S
H5632 C5640 0.929 . S
H5633 C5642 0.930 . S
H5634 C5644 0.930 . S
H5635 C5647 0.929 . S
H5636 C5650 0.930 . S
H5637 C5652 0.960 . S
H5638 C5652 0.960 . S
H5639 C5652 0.960 . S
C5640 H5632 0.929 . S
C5640 C5641 1.377 . S
C5640 C5642 1.384 . S
C5641 C5640 1.377 . S
C5641 C5647 1.390 . S
C5642 H5633 0.930 . S
C5642 C5640 1.384 . S
C5642 C5643 1.372 . S
C5643 C5642 1.372 . S
C5643 C5644 1.400 . S
C5643 C5648 1.490 . S
C5644 H5634 0.930 . S
C5644 C5643 1.400 . S
C5644 C5647 1.386 . S
H5645 C5661 0.930 . S
H5646 C5662 0.931 . S
C5647 H5635 0.929 . S
C5647 C5641 1.390 . S
C5647 C5644 1.386 . S
C5648 C5643 1.490 . S
C5648 C5650 1.395 . S
C5648 C5651 1.403 . S
H5649 C5655 0.930 . S
C5650 H5636 0.930 . S
C5650 C5648 1.395 . S
C5650 C5653 1.403 . S
C5651 C5648 1.403 . S
C5651 C5652 1.524 . S
C5651 C5655 1.400 . S
C5652 H5637 0.960 . S
C5652 H5638 0.960 . S
C5652 H5639 0.960 . S
C5652 C5651 1.524 . S
C5653 C5650 1.403 . S
C5653 C5654 1.392 . S
C5653 C5657 1.495 . S
C5654 C5653 1.392 . S
C5654 C5655 1.385 . S
C5654 C5656 1.478 . S
C5655 H5649 0.930 . S
C5655 C5651 1.400 . S
C5655 C5654 1.385 . S
C5656 C5654 1.478 . S
C5656 C5658 1.381 . S
C5656 C5662 1.383 . S
C5657 C5653 1.495 . S
C5657 H5663 0.959 . S
C5657 H5664 0.961 . S
C5657 H5665 0.960 . S
C5658 C5656 1.381 . S
C5658 C5659 1.394 . S
C5658 H5666 0.930 . S
C5659 C5658 1.394 . S
C5659 C5660 1.383 . S
C5659 H5667 0.929 . S
C5660 C5659 1.383 . S
C5660 C5661 1.377 . S
C5661 H5645 0.930 . S
C5661 C5660 1.377 . S
C5661 C5662 1.379 . S
C5662 H5646 0.931 . S
C5662 C5656 1.383 . S
C5662 C5661 1.379 . S
H5663 C5657 0.959 . S
H5664 C5657 0.961 . S
H5665 C5657 0.960 . S
H5666 C5658 0.930 . S
H5667 C5659 0.929 . S
H5668 C5676 0.929 . S
H5669 C5678 0.930 . S
H5670 C5680 0.930 . S
H5671 C5683 0.929 . S
H5672 C5686 0.930 . S
H5673 C5688 0.960 . S
H5674 C5688 0.960 . S
H5675 C5688 0.960 . S
C5676 H5668 0.929 . S
C5676 C5677 1.377 . S
C5676 C5678 1.384 . S
C5677 C5676 1.377 . S
C5677 C5683 1.390 . S
C5678 H5669 0.930 . S
C5678 C5676 1.384 . S
C5678 C5679 1.372 . S
C5679 C5678 1.372 . S
C5679 C5680 1.400 . S
C5679 C5684 1.490 . S
C5680 H5670 0.930 . S
C5680 C5679 1.400 . S
C5680 C5683 1.386 . S
H5681 C5697 0.930 . S
H5682 C5698 0.931 . S
C5683 H5671 0.929 . S
C5683 C5677 1.390 . S
C5683 C5680 1.386 . S
C5684 C5679 1.490 . S
C5684 C5686 1.395 . S
C5684 C5687 1.403 . S
H5685 C5691 0.930 . S
C5686 H5672 0.930 . S
C5686 C5684 1.395 . S
C5686 C5689 1.403 . S
C5687 C5684 1.403 . S
C5687 C5688 1.524 . S
C5687 C5691 1.400 . S
C5688 H5673 0.960 . S
C5688 H5674 0.960 . S
C5688 H5675 0.960 . S
C5688 C5687 1.524 . S
C5689 C5686 1.403 . S
C5689 C5690 1.392 . S
C5689 C5693 1.495 . S
C5690 C5689 1.392 . S
C5690 C5691 1.385 . S
C5690 C5692 1.478 . S
C5691 H5685 0.930 . S
C5691 C5687 1.400 . S
C5691 C5690 1.385 . S
C5692 C5690 1.478 . S
C5692 C5694 1.381 . S
C5692 C5698 1.383 . S
C5693 C5689 1.495 . S
C5693 H5699 0.959 . S
C5693 H5700 0.961 . S
C5693 H5701 0.960 . S
C5694 C5692 1.381 . S
C5694 C5695 1.394 . S
C5694 H5702 0.930 . S
C5695 C5694 1.394 . S
C5695 C5696 1.383 . S
C5695 H5703 0.929 . S
C5696 C5695 1.383 . S
C5696 C5697 1.377 . S
C5697 H5681 0.930 . S
C5697 C5696 1.377 . S
C5697 C5698 1.379 . S
C5698 H5682 0.931 . S
C5698 C5692 1.383 . S
C5698 C5697 1.379 . S
H5699 C5693 0.959 . S
H5700 C5693 0.961 . S
H5701 C5693 0.960 . S
H5702 C5694 0.930 . S
H5703 C5695 0.929 . S
H5704 C5712 0.929 . S
H5705 C5714 0.930 . S
H5706 C5716 0.930 . S
H5707 C5719 0.929 . S
H5708 C5722 0.930 . S
H5709 C5724 0.960 . S
H5710 C5724 0.960 . S
H5711 C5724 0.960 . S
C5712 H5704 0.929 . S
C5712 C5713 1.377 . S
C5712 C5714 1.384 . S
C5713 C5712 1.377 . S
C5713 C5719 1.390 . S
C5714 H5705 0.930 . S
C5714 C5712 1.384 . S
C5714 C5715 1.372 . S
C5715 C5714 1.372 . S
C5715 C5716 1.400 . S
C5715 C5720 1.490 . S
C5716 H5706 0.930 . S
C5716 C5715 1.400 . S
C5716 C5719 1.386 . S
H5717 C5733 0.930 . S
H5718 C5734 0.931 . S
C5719 H5707 0.929 . S
C5719 C5713 1.390 . S
C5719 C5716 1.386 . S
C5720 C5715 1.490 . S
C5720 C5722 1.395 . S
C5720 C5723 1.403 . S
H5721 C5727 0.930 . S
C5722 H5708 0.930 . S
C5722 C5720 1.395 . S
C5722 C5725 1.403 . S
C5723 C5720 1.403 . S
C5723 C5724 1.524 . S
C5723 C5727 1.400 . S
C5724 H5709 0.960 . S
C5724 H5710 0.960 . S
C5724 H5711 0.960 . S
C5724 C5723 1.524 . S
C5725 C5722 1.403 . S
C5725 C5726 1.392 . S
C5725 C5729 1.495 . S
C5726 C5725 1.392 . S
C5726 C5727 1.385 . S
C5726 C5728 1.478 . S
C5727 H5721 0.930 . S
C5727 C5723 1.400 . S
C5727 C5726 1.385 . S
C5728 C5726 1.478 . S
C5728 C5730 1.381 1_655 S
C5728 C5734 1.383 . S
C5729 C5725 1.495 . S
C5729 H5735 0.959 . S
C5729 H5736 0.961 . S
C5729 H5737 0.960 1_655 S
C5730 C5728 1.381 1_455 S
C5730 C5731 1.394 . S
C5730 H5738 0.930 . S
C5731 C5730 1.394 . S
C5731 C5732 1.383 . S
C5731 H5739 0.929 . S
C5732 C5731 1.383 . S
C5732 C5733 1.377 1_455 S
C5733 H5717 0.930 . S
C5733 C5732 1.377 1_655 S
C5733 C5734 1.379 . S
C5734 H5718 0.931 . S
C5734 C5728 1.383 . S
C5734 C5733 1.379 . S
H5735 C5729 0.959 . S
H5736 C5729 0.961 . S
H5737 C5729 0.960 1_455 S
H5738 C5730 0.930 . S
H5739 C5731 0.929 . S
H5740 C5748 0.929 . S
H5741 C5750 0.930 . S
H5742 C5752 0.930 . S
H5743 C5755 0.929 . S
H5744 C5758 0.930 . S
H5745 C5760 0.960 . S
H5746 C5760 0.960 . S
H5747 C5760 0.960 . S
C5748 H5740 0.929 . S
C5748 C5749 1.377 . S
C5748 C5750 1.384 . S
C5749 C5748 1.377 . S
C5749 C5755 1.390 . S
C5750 H5741 0.930 . S
C5750 C5748 1.384 . S
C5750 C5751 1.372 . S
C5751 C5750 1.372 . S
C5751 C5752 1.400 . S
C5751 C5756 1.490 . S
C5752 H5742 0.930 . S
C5752 C5751 1.400 . S
C5752 C5755 1.386 . S
H5753 C5769 0.930 . S
H5754 C5770 0.931 . S
C5755 H5743 0.929 . S
C5755 C5749 1.390 . S
C5755 C5752 1.386 . S
C5756 C5751 1.490 . S
C5756 C5758 1.395 . S
C5756 C5759 1.403 . S
H5757 C5763 0.930 . S
C5758 H5744 0.930 . S
C5758 C5756 1.395 . S
C5758 C5761 1.403 . S
C5759 C5756 1.403 . S
C5759 C5760 1.524 . S
C5759 C5763 1.400 . S
C5760 H5745 0.960 . S
C5760 H5746 0.960 . S
C5760 H5747 0.960 . S
C5760 C5759 1.524 . S
C5761 C5758 1.403 . S
C5761 C5762 1.392 . S
C5761 C5765 1.495 . S
C5762 C5761 1.392 . S
C5762 C5763 1.385 . S
C5762 C5764 1.478 . S
C5763 H5757 0.930 . S
C5763 C5759 1.400 . S
C5763 C5762 1.385 . S
C5764 C5762 1.478 . S
C5764 C5766 1.381 . S
C5764 C5770 1.383 . S
C5765 C5761 1.495 . S
C5765 H5771 0.959 . S
C5765 H5772 0.961 . S
C5765 H5773 0.960 . S
C5766 C5764 1.381 . S
C5766 C5767 1.394 . S
C5766 H5774 0.930 . S
C5767 C5766 1.394 . S
C5767 C5768 1.383 . S
C5767 H5775 0.929 . S
C5768 C5767 1.383 . S
C5768 C5769 1.377 . S
C5769 H5753 0.930 . S
C5769 C5768 1.377 . S
C5769 C5770 1.379 . S
C5770 H5754 0.931 . S
C5770 C5764 1.383 . S
C5770 C5769 1.379 . S
H5771 C5765 0.959 . S
H5772 C5765 0.961 . S
H5773 C5765 0.960 . S
H5774 C5766 0.930 . S
H5775 C5767 0.929 . S
H5776 C5784 0.929 . S
H5777 C5786 0.930 . S
H5778 C5788 0.930 . S
H5779 C5791 0.929 . S
H5780 C5794 0.930 . S
H5781 C5796 0.960 . S
H5782 C5796 0.960 . S
H5783 C5796 0.960 . S
C5784 H5776 0.929 . S
C5784 C5785 1.377 . S
C5784 C5786 1.384 . S
C5785 C5784 1.377 . S
C5785 C5791 1.390 . S
C5786 H5777 0.930 . S
C5786 C5784 1.384 . S
C5786 C5787 1.372 . S
C5787 C5786 1.372 . S
C5787 C5788 1.400 . S
C5787 C5792 1.490 . S
C5788 H5778 0.930 . S
C5788 C5787 1.400 . S
C5788 C5791 1.386 . S
H5789 C5805 0.930 . S
H5790 C5806 0.931 . S
C5791 H5779 0.929 . S
C5791 C5785 1.390 . S
C5791 C5788 1.386 . S
C5792 C5787 1.490 . S
C5792 C5794 1.395 . S
C5792 C5795 1.403 . S
H5793 C5799 0.930 . S
C5794 H5780 0.930 . S
C5794 C5792 1.395 . S
C5794 C5797 1.403 . S
C5795 C5792 1.403 . S
C5795 C5796 1.524 . S
C5795 C5799 1.400 . S
C5796 H5781 0.960 . S
C5796 H5782 0.960 . S
C5796 H5783 0.960 . S
C5796 C5795 1.524 . S
C5797 C5794 1.403 . S
C5797 C5798 1.392 . S
C5797 C5801 1.495 . S
C5798 C5797 1.392 . S
C5798 C5799 1.385 . S
C5798 C5800 1.478 . S
C5799 H5793 0.930 . S
C5799 C5795 1.400 . S
C5799 C5798 1.385 . S
C5800 C5798 1.478 . S
C5800 C5802 1.381 . S
C5800 C5806 1.383 . S
C5801 C5797 1.495 . S
C5801 H5807 0.959 . S
C5801 H5808 0.961 . S
C5801 H5809 0.960 . S
C5802 C5800 1.381 . S
C5802 C5803 1.394 . S
C5802 H5810 0.930 . S
C5803 C5802 1.394 . S
C5803 C5804 1.383 . S
C5803 H5811 0.929 . S
C5804 C5803 1.383 . S
C5804 C5805 1.377 . S
C5805 H5789 0.930 . S
C5805 C5804 1.377 . S
C5805 C5806 1.379 . S
C5806 H5790 0.931 . S
C5806 C5800 1.383 . S
C5806 C5805 1.379 . S
H5807 C5801 0.959 . S
H5808 C5801 0.961 . S
H5809 C5801 0.960 . S
H5810 C5802 0.930 . S
H5811 C5803 0.929 . S
H5812 C5820 0.929 . S
H5813 C5822 0.930 . S
H5814 C5824 0.930 . S
H5815 C5827 0.929 . S
H5816 C5830 0.930 . S
H5817 C5832 0.960 . S
H5818 C5832 0.960 . S
H5819 C5832 0.960 . S
C5820 H5812 0.929 . S
C5820 C5821 1.377 . S
C5820 C5822 1.384 . S
C5821 C5820 1.377 . S
C5821 C5827 1.390 . S
C5822 H5813 0.930 . S
C5822 C5820 1.384 . S
C5822 C5823 1.372 . S
C5823 C5822 1.372 . S
C5823 C5824 1.400 . S
C5823 C5828 1.490 . S
C5824 H5814 0.930 . S
C5824 C5823 1.400 . S
C5824 C5827 1.386 . S
H5825 C5841 0.930 . S
H5826 C5842 0.931 . S
C5827 H5815 0.929 . S
C5827 C5821 1.390 . S
C5827 C5824 1.386 . S
C5828 C5823 1.490 . S
C5828 C5830 1.395 . S
C5828 C5831 1.403 . S
H5829 C5835 0.930 . S
C5830 H5816 0.930 . S
C5830 C5828 1.395 . S
C5830 C5833 1.403 . S
C5831 C5828 1.403 . S
C5831 C5832 1.524 . S
C5831 C5835 1.400 . S
C5832 H5817 0.960 . S
C5832 H5818 0.960 . S
C5832 H5819 0.960 . S
C5832 C5831 1.524 . S
C5833 C5830 1.403 . S
C5833 C5834 1.392 . S
C5833 C5837 1.495 . S
C5834 C5833 1.392 . S
C5834 C5835 1.385 . S
C5834 C5836 1.478 . S
C5835 H5829 0.930 . S
C5835 C5831 1.400 . S
C5835 C5834 1.385 . S
C5836 C5834 1.478 . S
C5836 C5838 1.381 . S
C5836 C5842 1.383 . S
C5837 C5833 1.495 . S
C5837 H5843 0.959 . S
C5837 H5844 0.961 . S
C5837 H5845 0.960 . S
C5838 C5836 1.381 . S
C5838 C5839 1.394 . S
C5838 H5846 0.930 . S
C5839 C5838 1.394 . S
C5839 C5840 1.383 . S
C5839 H5847 0.929 . S
C5840 C5839 1.383 . S
C5840 C5841 1.377 . S
C5841 H5825 0.930 . S
C5841 C5840 1.377 . S
C5841 C5842 1.379 . S
C5842 H5826 0.931 . S
C5842 C5836 1.383 . S
C5842 C5841 1.379 . S
H5843 C5837 0.959 . S
H5844 C5837 0.961 . S
H5845 C5837 0.960 . S
H5846 C5838 0.930 . S
H5847 C5839 0.929 . S
H5848 C5856 0.929 . S
H5849 C5858 0.930 . S
H5850 C5860 0.930 . S
H5851 C5863 0.929 . S
H5852 C5866 0.930 . S
H5853 C5868 0.960 . S
H5854 C5868 0.960 . S
H5855 C5868 0.960 . S
C5856 H5848 0.929 . S
C5856 C5857 1.377 . S
C5856 C5858 1.384 . S
C5857 C5856 1.377 . S
C5857 C5863 1.390 . S
C5858 H5849 0.930 . S
C5858 C5856 1.384 . S
C5858 C5859 1.372 . S
C5859 C5858 1.372 . S
C5859 C5860 1.400 . S
C5859 C5864 1.490 . S
C5860 H5850 0.930 . S
C5860 C5859 1.400 . S
C5860 C5863 1.386 . S
H5861 C5877 0.930 . S
H5862 C5878 0.930 1_455 S
C5863 H5851 0.929 . S
C5863 C5857 1.390 . S
C5863 C5860 1.386 . S
C5864 C5859 1.490 . S
C5864 C5866 1.395 . S
C5864 C5867 1.403 . S
H5865 C5871 0.930 . S
C5866 H5852 0.930 . S
C5866 C5864 1.395 . S
C5866 C5869 1.403 . S
C5867 C5864 1.403 . S
C5867 C5868 1.524 . S
C5867 C5871 1.400 . S
C5868 H5853 0.960 . S
C5868 H5854 0.960 . S
C5868 H5855 0.960 . S
C5868 C5867 1.524 . S
C5869 C5866 1.403 . S
C5869 C5870 1.392 . S
C5869 C5873 1.495 . S
C5870 C5869 1.392 . S
C5870 C5871 1.385 . S
C5870 C5872 1.478 . S
C5871 H5865 0.930 . S
C5871 C5867 1.400 . S
C5871 C5870 1.385 . S
C5872 C5870 1.478 . S
C5872 C5874 1.381 . S
C5872 C5878 1.383 . S
C5873 C5869 1.495 . S
C5873 H5879 0.959 . S
C5873 H5880 0.961 . S
C5873 H5881 0.960 . S
C5874 C5872 1.381 . S
C5874 C5875 1.394 . S
C5874 H5882 0.930 . S
C5875 C5874 1.394 . S
C5875 C5876 1.383 1_655 S
C5875 H5883 0.929 . S
C5876 C5875 1.383 1_455 S
C5876 C5877 1.377 . S
C5877 H5861 0.930 . S
C5877 C5876 1.377 . S
C5877 C5878 1.379 1_455 S
C5878 H5862 0.930 1_655 S
C5878 C5872 1.383 . S
C5878 C5877 1.379 1_655 S
H5879 C5873 0.959 . S
H5880 C5873 0.961 . S
H5881 C5873 0.960 . S
H5882 C5874 0.930 . S
H5883 C5875 0.929 . S
H5884 C5892 0.929 . S
H5885 C5894 0.930 . S
H5886 C5896 0.930 . S
H5887 C5899 0.929 . S
H5888 C5902 0.930 . S
H5889 C5904 0.960 . S
H5890 C5904 0.960 . S
H5891 C5904 0.960 . S
C5892 H5884 0.929 . S
C5892 C5893 1.377 . S
C5892 C5894 1.384 . S
C5893 C5892 1.377 . S
C5893 C5899 1.390 . S
C5894 H5885 0.930 . S
C5894 C5892 1.384 . S
C5894 C5895 1.372 . S
C5895 C5894 1.372 . S
C5895 C5896 1.400 . S
C5895 C5900 1.490 . S
C5896 H5886 0.930 . S
C5896 C5895 1.400 . S
C5896 C5899 1.386 . S
H5897 C5913 0.930 . S
H5898 C5914 0.931 . S
C5899 H5887 0.929 . S
C5899 C5893 1.390 . S
C5899 C5896 1.386 . S
C5900 C5895 1.490 . S
C5900 C5902 1.395 . S
C5900 C5903 1.403 . S
H5901 C5907 0.930 . S
C5902 H5888 0.930 . S
C5902 C5900 1.395 . S
C5902 C5905 1.403 . S
C5903 C5900 1.403 . S
C5903 C5904 1.524 . S
C5903 C5907 1.400 . S
C5904 H5889 0.960 . S
C5904 H5890 0.960 . S
C5904 H5891 0.960 . S
C5904 C5903 1.524 . S
C5905 C5902 1.403 . S
C5905 C5906 1.392 . S
C5905 C5909 1.495 . S
C5906 C5905 1.392 . S
C5906 C5907 1.385 . S
C5906 C5908 1.478 . S
C5907 H5901 0.930 . S
C5907 C5903 1.400 . S
C5907 C5906 1.385 . S
C5908 C5906 1.478 . S
C5908 C5910 1.381 . S
C5908 C5914 1.383 . S
C5909 C5905 1.495 . S
C5909 H5915 0.959 . S
C5909 H5916 0.961 . S
C5909 H5917 0.960 . S
C5910 C5908 1.381 . S
C5910 C5911 1.394 . S
C5910 H5918 0.930 . S
C5911 C5910 1.394 . S
C5911 C5912 1.383 . S
C5911 H5919 0.929 . S
C5912 C5911 1.383 . S
C5912 C5913 1.377 . S
C5913 H5897 0.930 . S
C5913 C5912 1.377 . S
C5913 C5914 1.379 . S
C5914 H5898 0.931 . S
C5914 C5908 1.383 . S
C5914 C5913 1.379 . S
H5915 C5909 0.959 . S
H5916 C5909 0.961 . S
H5917 C5909 0.960 . S
H5918 C5910 0.930 . S
H5919 C5911 0.929 . S
H5920 C5928 0.929 . S
H5921 C5930 0.930 . S
H5922 C5932 0.930 . S
H5923 C5935 0.929 . S
H5924 C5938 0.930 . S
H5925 C5940 0.960 . S
H5926 C5940 0.960 . S
H5927 C5940 0.960 . S
C5928 H5920 0.929 . S
C5928 C5929 1.377 . S
C5928 C5930 1.384 . S
C5929 C5928 1.377 . S
C5929 C5935 1.390 . S
C5930 H5921 0.930 . S
C5930 C5928 1.384 . S
C5930 C5931 1.372 . S
C5931 C5930 1.372 . S
C5931 C5932 1.400 . S
C5931 C5936 1.490 . S
C5932 H5922 0.930 . S
C5932 C5931 1.400 . S
C5932 C5935 1.386 . S
H5933 C5949 0.930 . S
H5934 C5950 0.931 . S
C5935 H5923 0.929 . S
C5935 C5929 1.390 . S
C5935 C5932 1.386 . S
C5936 C5931 1.490 . S
C5936 C5938 1.395 . S
C5936 C5939 1.403 . S
H5937 C5943 0.930 . S
C5938 H5924 0.930 . S
C5938 C5936 1.395 . S
C5938 C5941 1.403 . S
C5939 C5936 1.403 . S
C5939 C5940 1.524 . S
C5939 C5943 1.400 . S
C5940 H5925 0.960 . S
C5940 H5926 0.960 . S
C5940 H5927 0.960 . S
C5940 C5939 1.524 . S
C5941 C5938 1.403 . S
C5941 C5942 1.392 . S
C5941 C5945 1.495 . S
C5942 C5941 1.392 . S
C5942 C5943 1.385 . S
C5942 C5944 1.478 . S
C5943 H5937 0.930 . S
C5943 C5939 1.400 . S
C5943 C5942 1.385 . S
C5944 C5942 1.478 . S
C5944 C5946 1.381 . S
C5944 C5950 1.383 . S
C5945 C5941 1.495 . S
C5945 H5951 0.959 . S
C5945 H5952 0.961 . S
C5945 H5953 0.960 . S
C5946 C5944 1.381 . S
C5946 C5947 1.394 . S
C5946 H5954 0.930 . S
C5947 C5946 1.394 . S
C5947 C5948 1.383 . S
C5947 H5955 0.929 . S
C5948 C5947 1.383 . S
C5948 C5949 1.377 . S
C5949 H5933 0.930 . S
C5949 C5948 1.377 . S
C5949 C5950 1.379 . S
C5950 H5934 0.931 . S
C5950 C5944 1.383 . S
C5950 C5949 1.379 . S
H5951 C5945 0.959 . S
H5952 C5945 0.961 . S
H5953 C5945 0.960 . S
H5954 C5946 0.930 . S
H5955 C5947 0.929 . S
H5956 C5964 0.929 . S
H5957 C5966 0.930 . S
H5958 C5968 0.930 . S
H5959 C5971 0.929 . S
H5960 C5974 0.930 . S
H5961 C5976 0.960 . S
H5962 C5976 0.960 . S
H5963 C5976 0.960 . S
C5964 H5956 0.929 . S
C5964 C5965 1.377 . S
C5964 C5966 1.384 . S
C5965 C5964 1.377 . S
C5965 C5971 1.390 . S
C5966 H5957 0.930 . S
C5966 C5964 1.384 . S
C5966 C5967 1.372 . S
C5967 C5966 1.372 . S
C5967 C5968 1.400 . S
C5967 C5972 1.490 . S
C5968 H5958 0.930 . S
C5968 C5967 1.400 . S
C5968 C5971 1.386 . S
H5969 C5985 0.930 1_545 S
H5970 C5986 0.931 . S
C5971 H5959 0.929 . S
C5971 C5965 1.390 . S
C5971 C5968 1.386 . S
C5972 C5967 1.490 . S
C5972 C5974 1.395 . S
C5972 C5975 1.403 . S
H5973 C5979 0.930 . S
C5974 H5960 0.930 . S
C5974 C5972 1.395 . S
C5974 C5977 1.403 . S
C5975 C5972 1.403 . S
C5975 C5976 1.524 . S
C5975 C5979 1.400 . S
C5976 H5961 0.960 . S
C5976 H5962 0.960 . S
C5976 H5963 0.960 . S
C5976 C5975 1.524 . S
C5977 C5974 1.403 . S
C5977 C5978 1.392 . S
C5977 C5981 1.495 . S
C5978 C5977 1.392 . S
C5978 C5979 1.385 . S
C5978 C5980 1.478 . S
C5979 H5973 0.930 . S
C5979 C5975 1.400 . S
C5979 C5978 1.385 . S
C5980 C5978 1.478 . S
C5980 C5982 1.381 . S
C5980 C5986 1.383 . S
C5981 C5977 1.495 . S
C5981 H5987 0.959 . S
C5981 H5988 0.961 . S
C5981 H5989 0.960 . S
C5982 C5980 1.381 . S
C5982 C5983 1.394 . S
C5982 H5990 0.930 . S
C5983 C5982 1.394 . S
C5983 C5984 1.383 . S
C5983 H5991 0.929 . S
C5984 C5983 1.383 . S
C5984 C5985 1.377 . S
C5985 H5969 0.930 1_565 S
C5985 C5984 1.377 . S
C5985 C5986 1.379 . S
C5986 H5970 0.931 . S
C5986 C5980 1.383 . S
C5986 C5985 1.379 . S
H5987 C5981 0.959 . S
H5988 C5981 0.961 . S
H5989 C5981 0.960 . S
H5990 C5982 0.930 . S
H5991 C5983 0.929 . S
H5992 C6000 0.929 . S
H5993 C6002 0.930 . S
H5994 C6004 0.930 . S
H5995 C6007 0.929 . S
H5996 C6010 0.930 . S
H5997 C6012 0.960 . S
H5998 C6012 0.960 . S
H5999 C6012 0.960 . S
C6000 H5992 0.929 . S
C6000 C6001 1.377 . S
C6000 C6002 1.384 . S
C6001 C6000 1.377 . S
C6001 C6007 1.390 . S
C6002 H5993 0.930 . S
C6002 C6000 1.384 . S
C6002 C6003 1.372 . S
C6003 C6002 1.372 . S
C6003 C6004 1.400 . S
C6003 C6008 1.490 . S
C6004 H5994 0.930 . S
C6004 C6003 1.400 . S
C6004 C6007 1.386 . S
H6005 C6021 0.930 . S
H6006 C6022 0.931 . S
C6007 H5995 0.929 . S
C6007 C6001 1.390 . S
C6007 C6004 1.386 . S
C6008 C6003 1.490 . S
C6008 C6010 1.395 . S
C6008 C6011 1.403 . S
H6009 C6015 0.930 . S
C6010 H5996 0.930 . S
C6010 C6008 1.395 . S
C6010 C6013 1.403 . S
C6011 C6008 1.403 . S
C6011 C6012 1.524 . S
C6011 C6015 1.400 . S
C6012 H5997 0.960 . S
C6012 H5998 0.960 . S
C6012 H5999 0.960 . S
C6012 C6011 1.524 . S
C6013 C6010 1.403 . S
C6013 C6014 1.392 . S
C6013 C6017 1.495 . S
C6014 C6013 1.392 . S
C6014 C6015 1.385 . S
C6014 C6016 1.478 . S
C6015 H6009 0.930 . S
C6015 C6011 1.400 . S
C6015 C6014 1.385 . S
C6016 C6014 1.478 . S
C6016 C6018 1.381 . S
C6016 C6022 1.383 . S
C6017 C6013 1.495 . S
C6017 H6023 0.959 . S
C6017 H6024 0.961 . S
C6017 H6025 0.960 . S
C6018 C6016 1.381 . S
C6018 C6019 1.394 . S
C6018 H6026 0.930 . S
C6019 C6018 1.394 . S
C6019 C6020 1.383 . S
C6019 H6027 0.929 . S
C6020 C6019 1.383 . S
C6020 C6021 1.377 . S
C6021 H6005 0.930 . S
C6021 C6020 1.377 . S
C6021 C6022 1.379 . S
C6022 H6006 0.931 . S
C6022 C6016 1.383 . S
C6022 C6021 1.379 . S
H6023 C6017 0.959 . S
H6024 C6017 0.961 . S
H6025 C6017 0.960 . S
H6026 C6018 0.930 . S
H6027 C6019 0.929 . S
H6028 C6036 0.929 1_556 S
H6029 C6038 0.930 1_556 S
H6030 C6040 0.930 . S
H6031 C6043 0.929 . S
H6032 C6046 0.930 . S
H6033 C6048 0.960 . S
H6034 C6048 0.960 . S
H6035 C6048 0.960 . S
C6036 H6028 0.929 1_554 S
C6036 C6037 1.377 . S
C6036 C6038 1.384 . S
C6037 C6036 1.377 . S
C6037 C6043 1.390 . S
C6038 H6029 0.930 1_554 S
C6038 C6036 1.384 . S
C6038 C6039 1.372 . S
C6039 C6038 1.372 . S
C6039 C6040 1.400 . S
C6039 C6044 1.490 . S
C6040 H6030 0.930 . S
C6040 C6039 1.400 . S
C6040 C6043 1.386 . S
H6041 C6057 0.930 . S
H6042 C6058 0.931 . S
C6043 H6031 0.929 . S
C6043 C6037 1.390 . S
C6043 C6040 1.386 . S
C6044 C6039 1.490 . S
C6044 C6046 1.395 . S
C6044 C6047 1.403 . S
H6045 C6051 0.930 . S
C6046 H6032 0.930 . S
C6046 C6044 1.395 . S
C6046 C6049 1.403 . S
C6047 C6044 1.403 . S
C6047 C6048 1.524 . S
C6047 C6051 1.400 . S
C6048 H6033 0.960 . S
C6048 H6034 0.960 . S
C6048 H6035 0.960 . S
C6048 C6047 1.524 . S
C6049 C6046 1.403 . S
C6049 C6050 1.392 . S
C6049 C6053 1.495 . S
C6050 C6049 1.392 . S
C6050 C6051 1.385 . S
C6050 C6052 1.478 . S
C6051 H6045 0.930 . S
C6051 C6047 1.400 . S
C6051 C6050 1.385 . S
C6052 C6050 1.478 . S
C6052 C6054 1.381 . S
C6052 C6058 1.383 . S
C6053 C6049 1.495 . S
C6053 H6059 0.959 1_554 S
C6053 H6060 0.961 . S
C6053 H6061 0.960 1_554 S
C6054 C6052 1.381 . S
C6054 C6055 1.394 . S
C6054 H6062 0.930 1_554 S
C6055 C6054 1.394 . S
C6055 C6056 1.383 . S
C6055 H6063 0.929 1_554 S
C6056 C6055 1.383 . S
C6056 C6057 1.377 . S
C6057 H6041 0.930 . S
C6057 C6056 1.377 . S
C6057 C6058 1.379 . S
C6058 H6042 0.931 . S
C6058 C6052 1.383 . S
C6058 C6057 1.379 . S
H6059 C6053 0.959 1_556 S
H6060 C6053 0.961 . S
H6061 C6053 0.960 1_556 S
H6062 C6054 0.930 1_556 S
H6063 C6055 0.929 1_556 S
H6064 C6072 0.929 . S
H6065 C6074 0.930 . S
H6066 C6076 0.930 . S
H6067 C6079 0.929 . S
H6068 C6082 0.930 . S
H6069 C6084 0.960 . S
H6070 C6084 0.960 . S
H6071 C6084 0.960 . S
C6072 H6064 0.929 . S
C6072 C6073 1.377 . S
C6072 C6074 1.384 . S
C6073 C6072 1.377 . S
C6073 C6079 1.390 . S
C6074 H6065 0.930 . S
C6074 C6072 1.384 . S
C6074 C6075 1.372 . S
C6075 C6074 1.372 . S
C6075 C6076 1.400 . S
C6075 C6080 1.490 . S
C6076 H6066 0.930 . S
C6076 C6075 1.400 . S
C6076 C6079 1.386 . S
H6077 C6093 0.930 . S
H6078 C6094 0.931 . S
C6079 H6067 0.929 . S
C6079 C6073 1.390 . S
C6079 C6076 1.386 . S
C6080 C6075 1.490 . S
C6080 C6082 1.395 . S
C6080 C6083 1.403 . S
H6081 C6087 0.930 . S
C6082 H6068 0.930 . S
C6082 C6080 1.395 . S
C6082 C6085 1.403 . S
C6083 C6080 1.403 . S
C6083 C6084 1.524 . S
C6083 C6087 1.400 . S
C6084 H6069 0.960 . S
C6084 H6070 0.960 . S
C6084 H6071 0.960 . S
C6084 C6083 1.524 . S
C6085 C6082 1.403 . S
C6085 C6086 1.392 . S
C6085 C6089 1.495 . S
C6086 C6085 1.392 . S
C6086 C6087 1.385 . S
C6086 C6088 1.478 . S
C6087 H6081 0.930 . S
C6087 C6083 1.400 . S
C6087 C6086 1.385 . S
C6088 C6086 1.478 . S
C6088 C6090 1.381 . S
C6088 C6094 1.383 . S
C6089 C6085 1.495 . S
C6089 H6095 0.959 . S
C6089 H6096 0.961 . S
C6089 H6097 0.960 . S
C6090 C6088 1.381 . S
C6090 C6091 1.394 . S
C6090 H6098 0.930 . S
C6091 C6090 1.394 . S
C6091 C6092 1.383 . S
C6091 H6099 0.929 . S
C6092 C6091 1.383 . S
C6092 C6093 1.377 . S
C6093 H6077 0.930 . S
C6093 C6092 1.377 . S
C6093 C6094 1.379 . S
C6094 H6078 0.931 . S
C6094 C6088 1.383 . S
C6094 C6093 1.379 . S
H6095 C6089 0.959 . S
H6096 C6089 0.961 . S
H6097 C6089 0.960 . S
H6098 C6090 0.930 . S
H6099 C6091 0.929 . S
H6100 C6108 0.903 1_556 S
H6101 C6110 0.930 . S
H6102 C6112 0.930 . S
H6103 C6115 0.929 . S
H6104 C6118 0.930 . S
H6105 C6120 0.960 . S
H6106 C6120 0.960 . S
H6107 C6120 0.960 1_554 S
C6108 H6100 0.903 1_554 S
C6108 C6109 1.410 . S
C6108 C6110 1.381 1_554 S
C6109 C6108 1.410 . S
C6109 C6115 1.390 . S
C6110 H6101 0.930 . S
C6110 C6108 1.381 1_556 S
C6110 C6111 1.372 1_556 S
C6111 C6110 1.372 1_554 S
C6111 C6112 1.400 . S
C6111 C6116 1.490 . S
C6112 H6102 0.930 . S
C6112 C6111 1.400 . S
C6112 C6115 1.386 . S
H6113 C6129 0.930 . S
H6114 C6130 0.931 . S
C6115 H6103 0.929 . S
C6115 C6109 1.390 . S
C6115 C6112 1.386 . S
C6116 C6111 1.490 . S
C6116 C6118 1.395 . S
C6116 C6119 1.425 . S
H6117 C6123 0.949 . S
C6118 H6104 0.930 . S
C6118 C6116 1.395 . S
C6118 C6121 1.403 . S
C6119 C6116 1.425 . S
C6119 C6120 1.503 1_554 S
C6119 C6123 1.403 1_554 S
C6120 H6105 0.960 . S
C6120 H6106 0.960 . S
C6120 H6107 0.960 1_556 S
C6120 C6119 1.503 1_556 S
C6121 C6118 1.403 . S
C6121 C6122 1.392 . S
C6121 C6125 1.495 . S
C6122 C6121 1.392 . S
C6122 C6123 1.369 1_554 S
C6122 C6124 1.478 1_554 S
C6123 H6117 0.949 . S
C6123 C6119 1.403 1_556 S
C6123 C6122 1.369 1_556 S
C6124 C6122 1.478 1_556 S
C6124 C6126 1.379 . S
C6124 C6130 1.385 1_556 S
C6125 C6121 1.495 . S
C6125 H6131 0.959 . S
C6125 H6132 0.961 . S
C6125 H6133 0.941 1_554 S
C6126 C6124 1.379 . S
C6126 C6127 1.394 . S
C6126 H6134 0.930 . S
C6127 C6126 1.394 . S
C6127 C6128 1.383 . S
C6127 H6135 0.929 . S
C6128 C6127 1.383 . S
C6128 C6129 1.377 1_556 S
C6129 H6113 0.930 . S
C6129 C6128 1.377 1_554 S
C6129 C6130 1.379 . S
C6130 H6114 0.931 . S
C6130 C6124 1.385 1_554 S
C6130 C6129 1.379 . S
H6131 C6125 0.959 . S
H6132 C6125 0.961 . S
H6133 C6125 0.941 1_556 S
H6134 C6126 0.930 . S
H6135 C6127 0.929 . S
H6136 C6144 0.929 . S
H6137 C6146 0.930 . S
H6138 C6148 0.930 . S
H6139 C6151 0.929 . S
H6140 C6154 0.930 . S
H6141 C6156 0.960 . S
H6142 C6156 0.960 . S
H6143 C6156 0.960 . S
C6144 H6136 0.929 . S
C6144 C6145 1.377 . S
C6144 C6146 1.384 . S
C6145 C6144 1.377 . S
C6145 C6151 1.390 . S
C6146 H6137 0.930 . S
C6146 C6144 1.384 . S
C6146 C6147 1.372 . S
C6147 C6146 1.372 . S
C6147 C6148 1.400 . S
C6147 C6152 1.490 . S
C6148 H6138 0.930 . S
C6148 C6147 1.400 . S
C6148 C6151 1.386 . S
H6149 C6165 0.930 . S
H6150 C6166 0.931 . S
C6151 H6139 0.929 . S
C6151 C6145 1.390 . S
C6151 C6148 1.386 . S
C6152 C6147 1.490 . S
C6152 C6154 1.395 . S
C6152 C6155 1.403 . S
H6153 C6159 0.930 . S
C6154 H6140 0.930 . S
C6154 C6152 1.395 . S
C6154 C6157 1.403 . S
C6155 C6152 1.403 . S
C6155 C6156 1.524 . S
C6155 C6159 1.400 . S
C6156 H6141 0.960 . S
C6156 H6142 0.960 . S
C6156 H6143 0.960 . S
C6156 C6155 1.524 . S
C6157 C6154 1.403 . S
C6157 C6158 1.392 . S
C6157 C6161 1.495 . S
C6158 C6157 1.392 . S
C6158 C6159 1.385 . S
C6158 C6160 1.478 . S
C6159 H6153 0.930 . S
C6159 C6155 1.400 . S
C6159 C6158 1.385 . S
C6160 C6158 1.478 . S
C6160 C6162 1.381 . S
C6160 C6166 1.383 . S
C6161 C6157 1.495 . S
C6161 H6167 0.959 . S
C6161 H6168 0.961 . S
C6161 H6169 0.960 . S
C6162 C6160 1.381 . S
C6162 C6163 1.394 . S
C6162 H6170 0.930 . S
C6163 C6162 1.394 . S
C6163 C6164 1.383 . S
C6163 H6171 0.929 . S
C6164 C6163 1.383 . S
C6164 C6165 1.377 . S
C6165 H6149 0.930 . S
C6165 C6164 1.377 . S
C6165 C6166 1.379 . S
C6166 H6150 0.931 . S
C6166 C6160 1.383 . S
C6166 C6165 1.379 . S
H6167 C6161 0.959 . S
H6168 C6161 0.961 . S
H6169 C6161 0.960 . S
H6170 C6162 0.930 . S
H6171 C6163 0.929 . S
H6172 C6180 0.929 . S
H6173 C6182 0.930 . S
H6174 C6184 0.930 . S
H6175 C6187 0.929 . S
H6176 C6190 0.930 . S
H6177 C6192 0.960 . S
H6178 C6192 0.960 . S
H6179 C6192 0.960 . S
C6180 H6172 0.929 . S
C6180 C6181 1.377 . S
C6180 C6182 1.384 . S
C6181 C6180 1.377 . S
C6181 C6187 1.390 . S
C6182 H6173 0.930 . S
C6182 C6180 1.384 . S
C6182 C6183 1.372 . S
C6183 C6182 1.372 . S
C6183 C6184 1.400 . S
C6183 C6188 1.490 . S
C6184 H6174 0.930 . S
C6184 C6183 1.400 . S
C6184 C6187 1.386 . S
H6185 C6201 0.930 . S
H6186 C6202 0.931 . S
C6187 H6175 0.929 . S
C6187 C6181 1.390 . S
C6187 C6184 1.386 . S
C6188 C6183 1.490 . S
C6188 C6190 1.395 . S
C6188 C6191 1.403 . S
H6189 C6195 0.930 . S
C6190 H6176 0.930 . S
C6190 C6188 1.395 . S
C6190 C6193 1.403 . S
C6191 C6188 1.403 . S
C6191 C6192 1.524 . S
C6191 C6195 1.400 . S
C6192 H6177 0.960 . S
C6192 H6178 0.960 . S
C6192 H6179 0.960 . S
C6192 C6191 1.524 . S
C6193 C6190 1.403 . S
C6193 C6194 1.392 . S
C6193 C6197 1.495 . S
C6194 C6193 1.392 . S
C6194 C6195 1.385 . S
C6194 C6196 1.478 . S
C6195 H6189 0.930 . S
C6195 C6191 1.400 . S
C6195 C6194 1.385 . S
C6196 C6194 1.478 . S
C6196 C6198 1.381 . S
C6196 C6202 1.383 . S
C6197 C6193 1.495 . S
C6197 H6203 0.959 . S
C6197 H6204 0.961 . S
C6197 H6205 0.960 . S
C6198 C6196 1.381 . S
C6198 C6199 1.394 . S
C6198 H6206 0.930 . S
C6199 C6198 1.394 . S
C6199 C6200 1.383 . S
C6199 H6207 0.929 . S
C6200 C6199 1.383 . S
C6200 C6201 1.377 . S
C6201 H6185 0.930 . S
C6201 C6200 1.377 . S
C6201 C6202 1.379 . S
C6202 H6186 0.931 . S
C6202 C6196 1.383 . S
C6202 C6201 1.379 . S
H6203 C6197 0.959 . S
H6204 C6197 0.961 . S
H6205 C6197 0.960 . S
H6206 C6198 0.930 . S
H6207 C6199 0.929 . S
C2761 C665 2.171 . S
C2780 C2122 2.158 . S
C2797 C381 1.955 . S
C2816 C2170 1.919 . S
C2833 C460 0.987 . S
C2852 C2202 1.006 . S
C2888 C2247 1.521 . S
C2869 C585 1.541 . S
C2905 C108 0.835 . S
C2924 C2287 0.817 . S
C2960 C2322 0.603 . S
C2941 C196 0.610 . S
C2996 C2361 1.015 . S
C2977 C313 1.050 . S
C3013 C49 1.120 . S
C3032 C2398 1.128 . S
C3068 C2130 1.841 . S
C3049 C1457 1.878 . S
C3085 C1545 0.583 . S
C3104 C2167 0.661 . S
C3140 C2210 2.483 . S
C3121 C1721 2.518 . S
C3176 C2242 0.913 . S
C3157 C1113 0.895 . S
C3193 C1428 0.997 . S
C3212 C2282 0.999 . S
C3248 C2330 0.619 . S
C3229 C1516 0.652 . S
C3284 C2371 1.580 . S
C3265 C1692 1.662 . S
C3320 C2401 1.851 . S
C3301 C1085 1.870 . S
C3356 C2127 0.928 . S
C3337 C988 0.961 . S
C3373 C1817 2.154 . S
C3392 C2450 2.124 . S
C3428 C2487 1.062 . S
C3409 C2081 1.080 . S
C3464 C2518 0.185 . S
C3445 C1993 0.148 . S
C3481 C761 2.814 . S
C3500 C2411 2.750 . S
C3517 C821 1.334 . S
C3536 C2207 1.330 . S
C3553 C2053 1.761 . S
C3572 C2570 1.752 . S
C3608 C2602 1.635 . S
C3589 C1868 1.639 . S
C3644 C2131 2.151 . S
C3625 C372 2.173 . S
C3680 C2601 1.934 . S
C3661 C645 1.948 . S
C3697 C577 0.979 . S
C3716 C2211 1.000 . S
C3733 C497 1.537 . S
C3752 C2558 1.520 . S
C3788 C2278 0.820 . S
C3769 C57 0.824 . S
C3805 C293 0.594 . S
C3824 C2491 0.567 . S
C3860 C2370 1.032 1_556 S
C3841 C205 1.049 . S
C3896 C2647 1.130 . S
C3877 C145 1.118 . S
C3932 C2121 1.858 . S
C3913 C909 1.875 . S
C3968 C2598 0.685 . S
C3949 C1956 0.562 . S
C3985 C724 2.512 . S
C4004 C2201 2.471 . S
C4021 C1780 0.882 . S
C4040 C2571 0.901 . S
C4057 C937 1.000 . S
C4076 C2291 0.991 . S
C4112 C2481 0.675 . S
C4093 C1985 0.650 . S
C4129 C753 1.659 . S
C4148 C2362 1.578 . S
C4165 C1809 1.870 . S
C4184 C2650 1.831 . S
C4201 C1173 0.962 . S
C4220 C2118 0.981 . S
C4237 C1105 2.148 . S
C4256 C2441 2.103 . S
C4273 C1633 1.075 . S
C4292 C2318 1.057 . S
C4309 C1553 0.135 . S
C4328 C2527 0.351 . S
C4364 C2642 2.752 . S
C4345 C1729 2.809 . S
C4381 C1340 1.331 . S
C4400 C2198 1.308 . S
C4436 C2241 1.746 . S
C4417 C1604 1.757 . S
C4472 C2171 1.635 . S
C4453 C1252 1.631 . S
C4489 C489 2.172 . S
C4508 C2682 2.162 . S
C4544 C2610 1.930 . S
C4525 C557 1.952 . S
C4561 C636 0.990 . S
C4580 C2722 0.982 . S
C4597 C409 1.538 . S
C4616 C2567 1.530 . S
C4633 C284 0.835 . S
C4652 C2447 0.815 . S
C4688 C2482 0.571 . S
C4669 C20 0.609 . S
C4724 C2521 1.054 . S
C4705 C137 1.051 . S
C4760 C2638 1.124 . S
C4741 C225 1.122 . S
C4796 C2690 1.853 . S
C4777 C1641 1.878 . S
C4813 C1193 0.561 . S
C4832 C2607 0.595 . S
C4868 C2730 2.495 . S
C4849 C1289 2.519 . S
C4904 C2562 0.894 . S
C4885 C1377 0.900 . S
C4940 C2442 0.999 . S
C4921 C1613 1.006 . S
C4957 C1164 0.667 . S
C4976 C2490 0.708 . S
C5012 C2531 1.588 . S
C4993 C1261 1.664 . S
C5029 C1349 1.871 . S
C5048 C2641 1.852 . S
C5084 C2687 0.979 . S
C5065 C1965 0.961 . S
C5101 C849 2.156 . S
C5120 C2290 2.117 . S
C5156 C2327 1.060 . S
C5137 C929 1.077 . S
C5192 C2358 0.351 . S
C5173 C1017 0.114 . S
C5228 C2651 2.759 . S
C5209 C1897 2.814 . S
C5245 C1789 1.331 . S
C5264 C2727 1.315 . S
C5300 C2250 1.751 . S
C5281 C900 1.761 . S
C5336 C2162 1.636 . S
C5317 C733 1.639 . S
C5353 C548 2.170 . S
C5372 C2691 2.142 . S
C5408 C2161 1.929 . S
C5389 C469 1.946 . S
C5425 C401 0.973 . S
C5444 C2731 0.994 . S
C5461 C673 1.537 . S
C5480 C2238 1.514 . S
C5497 C233 0.827 . S
C5516 C2438 0.829 . S
C5552 C2331 0.614 . S
C5533 C117 0.595 . S
C5569 C29 1.049 . S
C5588 C2530 1.039 . S
C5605 C321 1.121 . S
C5624 C2407 1.118 . S
C5660 C2681 1.849 . S
C5641 C2044 1.878 . S
C5677 C997 0.562 . S
C5696 C2158 0.616 . S
C5732 C2721 2.477 . S
C5713 C1877 2.514 . S
C5749 C812 0.892 . S
C5768 C2251 0.874 . S
C5785 C2073 0.996 . S
C5804 C2451 1.011 . S
C5840 C2321 0.626 . S
C5821 C1025 0.663 . S
C5857 C1905 1.657 . S
C5876 C2522 1.575 . S
C5912 C2410 1.851 . S
C5893 C841 1.866 . S
C5948 C2678 0.984 . S
C5929 C1525 0.964 . S
C5984 C2281 2.123 1_565 S
C5965 C1369 2.149 . S
C6001 C1465 1.078 . S
C6020 C2478 1.084 . S
C6056 C2367 0.352 . S
C6037 C1201 0.132 . S
C6073 C1281 2.810 . S
C6092 C2402 2.770 . S
C6109 C1076 1.329 . S
C6128 C2718 1.311 . S
C6164 C2561 1.725 . S
C6145 C1437 1.754 . S
C6200 C2611 1.645 . S
C6181 C1701 1.638 . S
