# Generated by pormake.
# Topology pts, (4,4)-cn, num edge types: 1
# Building blocks:
#     Node 0, Type 0, BuildingBlock: KOZSID_clean_sbu_0, # of connection points: 4
#     Node 1, Type 0, BuildingBlock: KOZSID_clean_sbu_0, # of connection points: 4
#     Node 2, Type 1, BuildingBlock: UXUYUI_clean_sbu_0, # of connection points: 4
#     Node 3, Type 1, BuildingBlock: UXUYUI_clean_sbu_0, # of connection points: 4
#     Edge 4, Type (0, 1), BuildingBlock: XIVTED_clean_linker_0, # of connection points: 2
#     Edge 5, Type (0, 1), BuildingBlock: XIVTED_clean_linker_0, # of connection points: 2
#     Edge 6, Type (0, 1), BuildingBlock: XIVTED_clean_linker_0, # of connection points: 2
#     Edge 7, Type (0, 1), BuildingBlock: XIVTED_clean_linker_0, # of connection points: 2
#     Edge 8, Type (0, 1), BuildingBlock: XIVTED_clean_linker_0, # of connection points: 2
#     Edge 9, Type (0, 1), BuildingBlock: XIVTED_clean_linker_0, # of connection points: 2
#     Edge 10, Type (0, 1), BuildingBlock: XIVTED_clean_linker_0, # of connection points: 2
#     Edge 11, Type (0, 1), BuildingBlock: XIVTED_clean_linker_0, # of connection points: 2
# Relax obj value: 0.000
# Max RMSD: 0.022
# Mean RMSD: 0.015
data_MOF--net-pts--node1-KOZSID_clean_sbu_0--node2-UXUYUI_clean_sbu_0--edge1-XIVTED_clean_linker_0
_symmetry_space_group_name_H-M    P1
_symmetry_Int_Tables_number       1
_symmetry_cell_setting            triclinic
loop_
_symmetry_equiv_pos_as_xyz
'x, y, z'
_cell_length_a     33.102514
_cell_length_b     33.118366
_cell_length_c     48.105858
_cell_angle_alpha  86.777685
_cell_angle_beta   93.221651
_cell_angle_gamma 90.024701
loop_
_atom_site_label
_atom_site_type_symbol
_atom_site_fract_x
_atom_site_fract_y
_atom_site_fract_z
_atom_type_partial_charge
C0 C 0.6073 0.08371 0.04711 0.0
C1 C 0.62091 0.12086 0.05579 0.0
C2 C 0.59886 0.14972 0.04032 0.0
C3 C 0.57307 0.12866 0.02322 0.0
N4 N 0.57683 0.08802 0.02708 0.0
Co5 Co 0.5463 0.0461 0.00587 0.0
N6 N 0.51545 0.08867 0.98195 0.0
C7 C 0.51878 0.12924 0.98343 0.0
C8 C 0.49213 0.15082 0.96555 0.0
C9 C 0.46999 0.12242 0.95205 0.0
C10 C 0.48466 0.08492 0.96239 0.0
N11 N 0.5162 0.00419 0.98441 0.0
C12 C 0.48592 0.00844 0.96424 0.0
C13 C 0.47348 0.97132 0.95482 0.0
C14 C 0.49599 0.94253 0.97001 0.0
C15 C 0.52098 0.9636 0.98763 0.0
N16 N 0.57668 0.00352 0.03005 0.0
C17 C 0.57264 0.96295 0.02903 0.0
C18 C 0.59826 0.94134 0.04764 0.0
C19 C 0.62033 0.96971 0.06122 0.0
C20 C 0.60675 0.00721 0.05011 0.0
N21 N 0.50277 0.04559 0.03283 0.0
C22 C 0.43751 0.04516 0.06831 0.0
C23 C 0.45355 0.00907 0.05987 0.0
C24 C 0.48587 0.00997 0.04231 0.0
C25 C 0.45541 0.08139 0.05918 0.0
C26 C 0.48775 0.08091 0.04172 0.0
N27 N 0.58988 0.04664 0.97891 0.0
C28 C 0.64033 0.01143 0.95475 0.0
C29 C 0.65568 0.04792 0.94377 0.0
C30 C 0.63668 0.08368 0.95014 0.0
C31 C 0.60419 0.08236 0.96754 0.0
C32 C 0.60768 0.01148 0.972 0.0
H33 H 0.59145 0.11073 0.97169 0.0
H34 H 0.59782 0.98267 0.97982 0.0
H35 H 0.49626 0.98146 0.03638 0.0
H36 H 0.49983 0.10956 0.03551 0.0
C37 C 0.54585 0.14613 0.00281 0.0
C38 C 0.62496 0.04531 0.05812 0.0
C39 C 0.46706 0.04668 0.95402 0.0
C40 C 0.54695 0.94608 0.00881 0.0
H41 H 0.64471 0.12651 0.07144 0.0
H42 H 0.60175 0.1822 0.04111 0.0
H43 H 0.48844 0.18333 0.9632 0.0
H44 H 0.44518 0.12875 0.93684 0.0
H45 H 0.44997 0.96561 0.93898 0.0
H46 H 0.49363 0.91006 0.96888 0.0
H47 H 0.60148 0.90881 0.05033 0.0
H48 H 0.64447 0.96339 0.07696 0.0
H49 H 0.44064 0.98017 0.0662 0.0
H50 H 0.44466 0.11015 0.06554 0.0
H51 H 0.65401 0.98281 0.95069 0.0
H52 H 0.64672 0.11277 0.94173 0.0
C53 C 0.08745 0.48512 0.54989 0.0
C54 C 0.12494 0.47199 0.56127 0.0
C55 C 0.15327 0.49437 0.54783 0.0
C56 C 0.13156 0.51987 0.52917 0.0
N57 N 0.091 0.51552 0.53009 0.0
Co58 Co 0.04821 0.54562 0.50596 0.0
N59 N 0.08998 0.5761 0.48456 0.0
C60 C 0.13066 0.57207 0.48807 0.0
C61 C 0.15154 0.59756 0.47066 0.0
C62 C 0.12254 0.61963 0.45534 0.0
C63 C 0.08548 0.60638 0.46444 0.0
N64 N 0.00542 0.57588 0.48191 0.0
C65 C 0.00896 0.60635 0.46212 0.0
C66 C 0.97137 0.62024 0.45137 0.0
C67 C 0.94309 0.59796 0.46491 0.0
C68 C 0.96486 0.57197 0.48316 0.0
N69 N 0.00644 0.51497 0.5273 0.0
C70 C 0.96576 0.51851 0.52348 0.0
C71 C 0.94486 0.49247 0.5405 0.0
C72 C 0.97386 0.47052 0.5559 0.0
C73 C 0.01096 0.48461 0.54739 0.0
N74 N 0.04829 0.58923 0.53285 0.0
C75 C 0.04836 0.65459 0.56822 0.0
C76 C 0.01218 0.63662 0.55903 0.0
C77 C 0.01282 0.60431 0.54152 0.0
C78 C 0.08453 0.63858 0.5599 0.0
C79 C 0.08381 0.60614 0.5425 0.0
N80 N 0.04816 0.50198 0.4791 0.0
C81 C 0.012 0.45366 0.45106 0.0
C82 C 0.04824 0.43614 0.44412 0.0
C83 C 0.08442 0.45296 0.45441 0.0
C84 C 0.08369 0.48557 0.4716 0.0
C85 C 0.01265 0.48626 0.46838 0.0
H86 H 0.11232 0.49668 0.47879 0.0
H87 H 0.984 0.49781 0.47313 0.0
H88 H 0.98419 0.59244 0.53497 0.0
H89 H 0.11243 0.59554 0.53695 0.0
C90 C 0.14836 0.54604 0.50918 0.0
C91 C 0.04948 0.46679 0.55796 0.0
C92 C 0.04703 0.62448 0.45393 0.0
C93 C 0.94811 0.54516 0.50277 0.0
H94 H 0.13113 0.44812 0.57725 0.0
H95 H 0.18583 0.49159 0.55076 0.0
H96 H 0.18402 0.60051 0.46975 0.0
H97 H 0.12803 0.64337 0.43962 0.0
H98 H 0.96494 0.64461 0.43583 0.0
H99 H 0.91053 0.60112 0.46232 0.0
H100 H 0.91239 0.48909 0.5411 0.0
H101 H 0.9683 0.44625 0.57121 0.0
H102 H 0.98329 0.64803 0.56472 0.0
H103 H 0.11344 0.6509 0.56686 0.0
H104 H 0.9831 0.44169 0.44378 0.0
H105 H 0.11337 0.4411 0.44921 0.0
Li106 Li 0.04397 0.07753 0.27384 0.0
Li107 Li 0.04162 0.00282 0.27534 0.0
Li108 Li 0.07841 0.04334 0.23807 0.0
Li109 Li 0.00365 0.04082 0.23644 0.0
C110 C 0.11518 0.05311 0.29983 0.0
N111 N 0.16517 0.08354 0.34156 0.0
C112 C 0.1165 0.03479 0.32676 0.0
C113 C 0.13973 0.08652 0.29403 0.0
C114 C 0.14186 0.05071 0.34759 0.0
C115 C 0.16466 0.10157 0.31543 0.0
C116 C 0.96769 0.0261 0.29456 0.0
C117 C 0.91291 0.98009 0.30379 0.0
N118 N 0.91092 0.99435 0.32964 0.0
C119 C 0.96473 0.04068 0.32109 0.0
C120 C 0.94127 0.99589 0.28572 0.0
C121 C 0.93597 0.0241 0.33857 0.0
C122 C 0.03874 0.16124 0.2829 0.0
N123 N 0.04475 0.1241 0.29601 0.0
C124 C 0.05124 0.15357 0.34037 0.0
C125 C 0.05064 0.11973 0.32423 0.0
C126 C 0.04536 0.1924 0.3274 0.0
C127 C 0.03898 0.19591 0.29822 0.0
H128 H 0.0336 0.164 0.26049 0.0
H129 H 0.05453 0.08991 0.33431 0.0
C130 C 0.0545 0.91909 0.28815 0.0
N131 N 0.04251 0.95395 0.29893 0.0
C132 C 0.05519 0.88268 0.30436 0.0
C133 C 0.03217 0.91872 0.34279 0.0
C134 C 0.03189 0.95441 0.32582 0.0
C135 C 0.04379 0.88208 0.3321 0.0
H136 H 0.06372 0.91956 0.26694 0.0
H137 H 0.02351 0.98256 0.33424 0.0
C138 C 0.05392 0.11468 0.21228 0.0
N139 N 0.08449 0.16519 0.17089 0.0
C140 C 0.03548 0.11659 0.18538 0.0
C141 C 0.08753 0.1389 0.21823 0.0
C142 C 0.05147 0.14221 0.16472 0.0
C143 C 0.10265 0.1641 0.197 0.0
C144 C 0.02723 0.96704 0.21716 0.0
C145 C 0.04207 0.96402 0.19072 0.0
C146 C 0.99689 0.94068 0.22589 0.0
C147 C 0.02564 0.93526 0.1732 0.0
C148 C 0.98125 0.9123 0.20778 0.0
N149 N 0.99577 0.91025 0.182 0.0
C150 C 0.1622 0.0384 0.22879 0.0
C151 C 0.12028 0.05052 0.18765 0.0
C152 C 0.19674 0.03894 0.21331 0.0
N153 N 0.12493 0.04437 0.21585 0.0
C154 C 0.15398 0.05149 0.17137 0.0
C155 C 0.19294 0.04567 0.18416 0.0
H156 H 0.16516 0.03307 0.25119 0.0
H157 H 0.09035 0.05437 0.17772 0.0
C158 C 0.91988 0.05345 0.22318 0.0
N159 N 0.955 0.04172 0.21262 0.0
C160 C 0.88373 0.0543 0.20666 0.0
C161 C 0.92057 0.03185 0.16842 0.0
C162 C 0.95599 0.03143 0.1857 0.0
C163 C 0.88368 0.0433 0.17884 0.0
H164 H 0.91995 0.0624 0.24445 0.0
H165 H 0.98434 0.02325 0.17747 0.0
O166 O 0.09024 0.03816 0.27922 0.0
O167 O 0.99588 0.04182 0.27725 0.0
O168 O 0.03892 0.08946 0.23271 0.0
O169 O 0.04279 0.99525 0.23451 0.0
H170 H 0.098 0.00871 0.33157 0.0
H171 H 0.13957 0.10066 0.27324 0.0
H172 H 0.143 0.03699 0.36857 0.0
H173 H 0.18365 0.12756 0.31126 0.0
H174 H 0.89238 0.95659 0.29722 0.0
H175 H 0.98456 0.06436 0.32818 0.0
H176 H 0.94234 0.98503 0.26503 0.0
H177 H 0.93358 0.0349 0.35922 0.0
H178 H 0.05555 0.14926 0.36282 0.0
H179 H 0.03464 0.22518 0.28726 0.0
H180 H 0.06516 0.85541 0.29536 0.0
H181 H 0.02295 0.9198 0.36398 0.0
H182 H 0.00924 0.09836 0.18046 0.0
H183 H 0.10178 0.13827 0.23901 0.0
H184 H 0.03765 0.14381 0.14377 0.0
H185 H 0.12879 0.18284 0.20129 0.0
H186 H 0.06585 0.98381 0.18372 0.0
H187 H 0.98582 0.9418 0.24652 0.0
H188 H 0.03664 0.93281 0.15261 0.0
H189 H 0.95766 0.89182 0.21425 0.0
H190 H 0.22614 0.0346 0.22411 0.0
H191 H 0.14946 0.05607 0.14895 0.0
H192 H 0.85624 0.06412 0.21548 0.0
H193 H 0.92209 0.02291 0.1472 0.0
Li194 Li 0.0153 0.05042 0.77412 0.0
Li195 Li 0.08973 0.04786 0.77414 0.0
Li196 Li 0.04951 0.08837 0.73599 0.0
Li197 Li 0.05171 0.0136 0.73792 0.0
C198 C 0.03982 0.12767 0.79055 0.0
N199 N 0.01033 0.1917 0.81792 0.0
C200 C 0.0554 0.13549 0.81732 0.0
C201 C 0.00974 0.15289 0.77754 0.0
C202 C 0.03994 0.16786 0.83087 0.0
C203 C 0.99511 0.18498 0.79174 0.0
C204 C 0.06986 0.97971 0.80093 0.0
C205 C 0.12285 0.93431 0.81959 0.0
N206 N 0.10882 0.9367 0.84548 0.0
C207 C 0.05577 0.98147 0.82768 0.0
C208 C 0.10347 0.9557 0.79678 0.0
C209 C 0.07594 0.95957 0.84995 0.0
C210 C 0.93394 0.03354 0.78601 0.0
N211 N 0.96901 0.04952 0.79657 0.0
C212 C 0.93767 0.0637 0.83863 0.0
C213 C 0.97154 0.06403 0.8225 0.0
C214 C 0.90073 0.04809 0.82807 0.0
C215 C 0.89928 0.03274 0.80136 0.0
H216 H 0.93281 0.02157 0.76553 0.0
H217 H 0.99999 0.0754 0.83088 0.0
C218 C 0.17482 0.04507 0.78567 0.0
N219 N 0.13869 0.04701 0.79764 0.0
C220 C 0.21104 0.04447 0.80209 0.0
C221 C 0.17236 0.0483 0.84296 0.0
C222 C 0.13688 0.04865 0.82573 0.0
C223 C 0.21024 0.04624 0.83121 0.0
H224 H 0.17559 0.0441 0.7633 0.0
H225 H 0.10783 0.05031 0.83479 0.0
C226 C 0.97097 0.06387 0.71638 0.0
N227 N 0.90522 0.09214 0.68291 0.0
C228 C 0.96356 0.04957 0.68979 0.0
C229 C 0.94445 0.092 0.72612 0.0
C230 C 0.93031 0.06439 0.67313 0.0
C231 C 0.91152 0.10607 0.70885 0.0
C232 C 0.1178 0.03787 0.71214 0.0
C233 C 0.1155 0.05798 0.68576 0.0
C234 C 0.1409 0.00254 0.71664 0.0
C235 C 0.13594 0.04207 0.6642 0.0
C236 C 0.16083 0.98755 0.69453 0.0
N237 N 0.15793 0.00744 0.66898 0.0
C238 C 0.06778 0.17018 0.72241 0.0
C239 C 0.03074 0.13847 0.68619 0.0
C240 C 0.06823 0.20661 0.70628 0.0
N241 N 0.04881 0.13716 0.71233 0.0
C242 C 0.03058 0.17424 0.66929 0.0
C243 C 0.04938 0.20906 0.67931 0.0
H244 H 0.08267 0.16819 0.74303 0.0
H245 H 0.01682 0.11167 0.67826 0.0
C246 C 0.04888 0.9296 0.72858 0.0
N247 N 0.05011 0.96712 0.71563 0.0
C248 C 0.04862 0.89514 0.71303 0.0
C249 C 0.05055 0.93849 0.67105 0.0
C250 C 0.05054 0.97207 0.68739 0.0
C251 C 0.04969 0.8993 0.68383 0.0
H252 H 0.04825 0.92638 0.75103 0.0
H253 H 0.05109 0.00216 0.6775 0.0
O254 O 0.05457 0.09598 0.77703 0.0
O255 O 0.05096 1.00152 0.77895 0.0
O256 O 0.00343 0.04961 0.73297 0.0
O257 O 0.09761 0.05276 0.73342 0.0
H258 H 0.07903 0.11668 0.82762 0.0
H259 H 0.9982 0.14814 0.75655 0.0
H260 H 0.05153 0.17405 0.85167 0.0
H261 H 0.97177 0.20466 0.7819 0.0
H262 H 0.14907 0.91584 0.81671 0.0
H263 H 0.02972 0.99975 0.83124 0.0
H264 H 0.11462 0.95382 0.7762 0.0
H265 H 0.0655 0.96084 0.87079 0.0
H266 H 0.94064 0.07499 0.85933 0.0
H267 H 0.87153 0.0207 0.79218 0.0
H268 H 0.23934 0.04228 0.79203 0.0
H269 H 0.17007 0.05031 0.86519 0.0
H270 H 0.98336 0.02743 0.682 0.0
H271 H 0.94883 0.10246 0.74693 0.0
H272 H 0.92443 0.05378 0.65243 0.0
H273 H 0.89084 0.1279 0.71614 0.0
H274 H 0.09802 0.08547 0.68193 0.0
H275 H 0.14314 0.98667 0.73692 0.0
H276 H 0.13425 0.05722 0.64365 0.0
H277 H 0.17856 0.96008 0.69767 0.0
H278 H 0.08374 0.23241 0.7147 0.0
H279 H 0.01555 0.17469 0.6487 0.0
H280 H 0.04826 0.86556 0.72381 0.0
H281 H 0.05078 0.94322 0.6486 0.0
H282 H 0.42135 0.99308 0.11289 0.0
H283 H 0.20888 0.09667 0.13912 0.0
H284 H 0.37247 0.09701 0.06418 0.0
H285 H 0.25991 0.9962 0.1904 0.0
H286 H 0.26824 0.09668 0.11114 0.0
H287 H 0.36222 0.99313 0.14118 0.0
C288 C 0.39814 0.01583 0.10806 0.0
C289 C 0.40201 0.0451 0.08607 0.0
C290 C 0.26651 0.07464 0.12853 0.0
C291 C 0.3342 0.0455 0.11858 0.0
C292 C 0.23247 0.07447 0.14444 0.0
C293 C 0.22926 0.04634 0.16717 0.0
C294 C 0.29769 0.04639 0.13526 0.0
C295 C 0.2612 0.01874 0.1733 0.0
C296 C 0.36446 0.01598 0.12433 0.0
C297 C 0.37115 0.07418 0.0811 0.0
N298 N 0.29397 0.0194 0.15742 0.0
N299 N 0.33859 0.07357 0.09715 0.0
H300 H 0.06477 0.3907 0.54266 0.0
H301 H 0.03907 0.28654 0.69535 0.0
H302 H 0.03579 0.45694 0.61343 0.0
H303 H 0.06016 0.21951 0.62312 0.0
H304 H 0.03986 0.34934 0.66615 0.0
H305 H 0.06515 0.32767 0.57212 0.0
C306 C 0.05853 0.39175 0.56448 0.0
C307 C 0.05011 0.42866 0.57578 0.0
C308 C 0.04429 0.3209 0.65667 0.0
C309 C 0.05051 0.35715 0.6096 0.0
C310 C 0.04408 0.285 0.67338 0.0
C311 C 0.04957 0.24756 0.66172 0.0
C312 C 0.05018 0.31954 0.62804 0.0
C313 C 0.0553 0.24754 0.63299 0.0
C314 C 0.05869 0.35593 0.58127 0.0
C315 C 0.04227 0.42884 0.60408 0.0
N316 N 0.05553 0.28291 0.61719 0.0
N317 N 0.04265 0.3936 0.62006 0.0
H318 H 0.63398 0.02501 0.11401 0.0
H319 H 0.87293 0.06763 0.12332 0.0
H320 H 0.70101 0.06559 0.04359 0.0
H321 H 0.80718 0.02086 0.19309 0.0
H322 H 0.81022 0.06812 0.09404 0.0
H323 H 0.69684 0.02466 0.14372 0.0
C324 C 0.66209 0.03379 0.10491 0.0
C325 C 0.66268 0.04512 0.07645 0.0
C326 C 0.80948 0.05774 0.11576 0.0
C327 C 0.73446 0.04508 0.11005 0.0
C328 C 0.84539 0.05722 0.13249 0.0
C329 C 0.84552 0.04409 0.16078 0.0
C330 C 0.77322 0.04507 0.12731 0.0
C331 C 0.80858 0.03171 0.17152 0.0
C332 C 0.6979 0.03363 0.12178 0.0
C333 C 0.69958 0.05656 0.0655 0.0
N334 N 0.77402 0.03246 0.1548 0.0
N335 N 0.73404 0.05622 0.08231 0.0
H336 H 1.0009 0.668 0.61195 0.0
H337 H 0.09415 0.88692 0.63858 0.0
H338 H 0.0958 0.72247 0.56471 0.0
H339 H 0.0061 0.829 0.69024 0.0
H340 H 0.09385 0.82757 0.61062 0.0
H341 H 1.00105 0.72724 0.64016 0.0
C342 C 0.02168 0.69245 0.60743 0.0
C343 C 0.04841 0.69014 0.5859 0.0
C344 C 0.0746 0.82778 0.62809 0.0
C345 C 0.0489 0.75808 0.61827 0.0
C346 C 0.07457 0.86181 0.64398 0.0
C347 C 0.05004 0.86309 0.66681 0.0
C348 C 0.04979 0.79467 0.63492 0.0
C349 C 0.02582 0.82926 0.67303 0.0
C350 C 0.0219 0.72619 0.62366 0.0
C351 C 0.07502 0.7226 0.58129 0.0
N352 N 0.02622 0.79654 0.65715 0.0
N353 N 0.07451 0.75518 0.59726 0.0
H354 H 0.39274 0.02015 0.9684 0.0
H355 H 0.28261 0.08274 0.81967 0.0
H356 H 0.45545 0.072 0.89898 0.0
H357 H 0.22571 0.01012 0.88375 0.0
H358 H 0.34509 0.08223 0.84913 0.0
H359 H 0.33005 0.01948 0.9386 0.0
C360 C 0.39311 0.03142 0.94683 0.0
C361 C 0.42896 0.0464 0.93605 0.0
C362 C 0.31895 0.06635 0.85673 0.0
C363 C 0.35771 0.04588 0.90188 0.0
C364 C 0.28322 0.06641 0.83983 0.0
C365 C 0.2486 0.04633 0.8491 0.0
C366 C 0.32024 0.04629 0.88327 0.0
C367 C 0.25127 0.0265 0.87577 0.0
C368 C 0.35747 0.03103 0.92984 0.0
C369 C 0.42819 0.06054 0.90801 0.0
N370 N 0.28638 0.02703 0.89188 0.0
N371 N 0.39309 0.0601 0.8919 0.0
H372 H 0.09824 0.36975 0.45047 0.0
H373 H 0.99598 0.25936 0.32018 0.0
H374 H 0.99848 0.42034 0.39821 0.0
H375 H 0.09516 0.20881 0.37302 0.0
H376 H 0.99693 0.31888 0.34804 0.0
H377 H 0.09805 0.31109 0.42193 0.0
C378 C 0.07646 0.36872 0.43287 0.0
C379 C 0.0484 0.40025 0.42674 0.0
C380 C 0.0185 0.29478 0.35355 0.0
C381 C 0.04771 0.33261 0.39405 0.0
C382 C 0.01814 0.26083 0.33753 0.0
C383 C 0.04556 0.2289 0.3442 0.0
C384 C 0.04652 0.29701 0.37645 0.0
C385 C 0.07311 0.23236 0.36726 0.0
C386 C 0.0762 0.33501 0.41666 0.0
C387 C 0.0204 0.39666 0.40395 0.0
N388 N 0.0729 0.26574 0.38248 0.0
N389 N 0.02081 0.36355 0.38844 0.0
H390 H 0.7181 0.10272 0.94319 0.0
H391 H 0.84178 0.98964 0.83193 0.0
H392 H 0.67563 0.99486 0.90453 0.0
H393 H 0.87583 0.10562 0.86258 0.0
H394 H 0.78186 0.98995 0.85931 0.0
H395 H 0.77693 0.10325 0.91479 0.0
C396 C 0.72088 0.0793 0.92858 0.0
C397 C 0.69158 0.04874 0.92629 0.0
C398 C 0.80242 0.01536 0.86003 0.0
C399 C 0.7596 0.04884 0.89391 0.0
C400 C 0.83662 0.01533 0.84425 0.0
C401 C 0.8641 0.04769 0.84483 0.0
C402 C 0.79553 0.04791 0.87667 0.0
C403 C 0.85596 0.07971 0.8617 0.0
C404 C 0.75471 0.0795 0.91247 0.0
C405 C 0.69754 0.01875 0.90735 0.0
N406 N 0.82252 0.07898 0.87691 0.0
N407 N 0.73081 0.01955 0.89195 0.0
H408 H 0.06815 0.69981 0.46934 0.0
H409 H 0.02117 0.80616 0.31691 0.0
H410 H 0.02586 0.63518 0.3982 0.0
H411 H 0.06745 0.87002 0.38769 0.0
H412 H 0.02247 0.74342 0.34621 0.0
H413 H 0.06775 0.76271 0.43979 0.0
C414 C 0.05877 0.69907 0.44743 0.0
C415 C 0.04682 0.66263 0.43607 0.0
C416 C 0.03236 0.77115 0.35534 0.0
C417 C 0.04625 0.73408 0.40214 0.0
C418 C 0.03184 0.80702 0.33856 0.0
C419 C 0.04425 0.84359 0.34978 0.0
C420 C 0.04539 0.77166 0.38362 0.0
C421 C 0.05708 0.84276 0.37816 0.0
C422 C 0.05851 0.73484 0.43058 0.0
C423 C 0.03504 0.6629 0.40763 0.0
N424 N 0.05735 0.80745 0.39405 0.0
N425 N 0.03498 0.69811 0.39161 0.0
loop_
_geom_bond_atom_site_label_1
_geom_bond_atom_site_label_2
_geom_bond_distance
_geom_bond_site_symmetry_2
_ccdc_geom_bond_type
C0 C1 1.443 . S
C0 N4 1.376 . S
C0 C38 1.389 . S
C1 C0 1.443 . S
C1 C2 1.340 . S
C1 H41 0.951 . S
C2 C1 1.340 . S
C2 C3 1.439 . S
C2 H42 0.950 . S
C3 C2 1.439 . S
C3 N4 1.374 . S
C3 C37 1.395 1_554 S
N4 C0 1.376 . S
N4 C3 1.374 . S
N4 Co5 2.008 . S
Co5 N4 2.008 . S
Co5 N6 1.995 1_554 S
Co5 N11 2.008 1_554 S
Co5 N16 2.003 . S
Co5 N21 2.282 . S
Co5 N27 2.282 1_554 S
N6 Co5 1.995 1_556 S
N6 C7 1.376 . S
N6 C10 1.383 . S
C7 N6 1.376 . S
C7 C8 1.446 . S
C7 C37 1.391 . S
C8 C7 1.446 . S
C8 C9 1.339 . S
C8 H43 0.949 . S
C9 C8 1.339 . S
C9 C10 1.439 . S
C9 H44 0.950 . S
C10 N6 1.383 . S
C10 C9 1.439 . S
C10 C39 1.392 . S
N11 Co5 2.008 1_556 S
N11 C12 1.376 . S
N11 C15 1.374 1_545 S
C12 N11 1.376 . S
C12 C13 1.443 1_545 S
C12 C39 1.389 . S
C13 C12 1.443 1_565 S
C13 C14 1.340 . S
C13 H45 0.951 . S
C14 C13 1.340 . S
C14 C15 1.439 . S
C14 H46 0.950 . S
C15 N11 1.374 1_565 S
C15 C14 1.439 . S
C15 C40 1.395 1_556 S
N16 Co5 2.003 . S
N16 C17 1.364 1_545 S
N16 C20 1.385 . S
C17 N16 1.364 1_565 S
C17 C18 1.446 . S
C17 C40 1.391 . S
C18 C17 1.446 . S
C18 C19 1.339 . S
C18 H47 0.949 . S
C19 C18 1.339 . S
C19 C20 1.439 1_565 S
C19 H48 0.950 . S
C20 N16 1.385 . S
C20 C19 1.439 1_545 S
C20 C38 1.392 . S
N21 Co5 2.282 . S
N21 C24 1.332 . S
N21 C26 1.332 . S
C22 C23 1.386 . S
C22 C25 1.388 . S
C23 C22 1.386 . S
C23 C24 1.382 . S
C23 H49 0.950 1_545 S
C24 N21 1.332 . S
C24 C23 1.382 . S
C24 H35 0.952 1_545 S
C25 C22 1.388 . S
C25 C26 1.382 . S
C25 H50 0.950 . S
C26 N21 1.332 . S
C26 C25 1.382 . S
C26 H36 0.948 . S
N27 Co5 2.282 1_556 S
N27 C31 1.332 . S
N27 C32 1.332 . S
C28 C29 1.388 . S
C28 C32 1.382 . S
C28 H51 0.950 1_545 S
C29 C28 1.388 . S
C29 C30 1.386 . S
C30 C29 1.386 . S
C30 C31 1.382 . S
C30 H52 0.950 . S
C31 N27 1.332 . S
C31 C30 1.382 . S
C31 H33 0.952 . S
C32 N27 1.332 . S
C32 C28 1.382 . S
C32 H34 0.948 1_545 S
H33 C31 0.952 . S
H34 C32 0.948 1_565 S
H35 C24 0.952 1_565 S
H36 C26 0.948 . S
C37 C3 1.395 1_556 S
C37 C7 1.391 . S
C38 C0 1.389 . S
C38 C20 1.392 . S
C39 C10 1.392 . S
C39 C12 1.389 . S
C40 C15 1.395 1_554 S
C40 C17 1.391 . S
H41 C1 0.951 . S
H42 C2 0.950 . S
H43 C8 0.949 . S
H44 C9 0.950 . S
H45 C13 0.951 . S
H46 C14 0.950 . S
H47 C18 0.949 . S
H48 C19 0.950 . S
H49 C23 0.950 1_565 S
H50 C25 0.950 . S
H51 C28 0.950 1_565 S
H52 C30 0.950 . S
C53 C54 1.443 . S
C53 N57 1.376 . S
C53 C91 1.389 . S
C54 C53 1.443 . S
C54 C55 1.340 . S
C54 H94 0.951 . S
C55 C54 1.340 . S
C55 C56 1.439 . S
C55 H95 0.950 . S
C56 C55 1.439 . S
C56 N57 1.374 . S
C56 C90 1.395 . S
N57 C53 1.376 . S
N57 C56 1.374 . S
N57 Co58 2.008 . S
Co58 N57 2.008 . S
Co58 N59 1.995 . S
Co58 N64 2.002 1_455 S
Co58 N69 1.995 . S
Co58 N74 2.282 . S
Co58 N80 2.282 . S
N59 Co58 1.995 . S
N59 C60 1.376 . S
N59 C63 1.383 . S
C60 N59 1.376 . S
C60 C61 1.446 . S
C60 C90 1.391 . S
C61 C60 1.446 . S
C61 C62 1.339 . S
C61 H96 0.949 . S
C62 C61 1.339 . S
C62 C63 1.439 . S
C62 H97 0.950 . S
C63 N59 1.383 . S
C63 C62 1.439 . S
C63 C92 1.392 . S
N64 Co58 2.002 1_655 S
N64 C65 1.375 1_655 S
N64 C68 1.383 . S
C65 N64 1.375 1_455 S
C65 C66 1.443 1_455 S
C65 C92 1.389 . S
C66 C65 1.443 1_655 S
C66 C67 1.340 . S
C66 H98 0.951 . S
C67 C66 1.340 . S
C67 C68 1.439 . S
C67 H99 0.950 . S
C68 N64 1.383 . S
C68 C67 1.439 . S
C68 C93 1.395 . S
N69 Co58 1.995 . S
N69 C70 1.376 1_455 S
N69 C73 1.383 . S
C70 N69 1.376 1_655 S
C70 C71 1.446 . S
C70 C93 1.391 . S
C71 C70 1.446 . S
C71 C72 1.339 . S
C71 H100 0.949 . S
C72 C71 1.339 . S
C72 C73 1.439 1_655 S
C72 H101 0.950 . S
C73 N69 1.383 . S
C73 C72 1.439 1_455 S
C73 C91 1.392 . S
N74 Co58 2.282 . S
N74 C77 1.332 . S
N74 C79 1.332 . S
C75 C76 1.386 . S
C75 C78 1.388 . S
C76 C75 1.386 . S
C76 C77 1.382 . S
C76 H102 0.950 1_455 S
C77 N74 1.332 . S
C77 C76 1.382 . S
C77 H88 0.952 1_455 S
C78 C75 1.388 . S
C78 C79 1.382 . S
C78 H103 0.950 . S
C79 N74 1.332 . S
C79 C78 1.382 . S
C79 H89 0.948 . S
N80 Co58 2.282 . S
N80 C84 1.332 . S
N80 C85 1.332 . S
C81 C82 1.388 . S
C81 C85 1.382 . S
C81 H104 0.950 1_455 S
C82 C81 1.388 . S
C82 C83 1.386 . S
C83 C82 1.386 . S
C83 C84 1.382 . S
C83 H105 0.950 . S
C84 N80 1.332 . S
C84 C83 1.382 . S
C84 H86 0.952 . S
C85 N80 1.332 . S
C85 C81 1.382 . S
C85 H87 0.948 1_455 S
H86 C84 0.952 . S
H87 C85 0.948 1_655 S
H88 C77 0.952 1_655 S
H89 C79 0.948 . S
C90 C56 1.395 . S
C90 C60 1.391 . S
C91 C53 1.389 . S
C91 C73 1.392 . S
C92 C63 1.392 . S
C92 C65 1.389 . S
C93 C68 1.395 . S
C93 C70 1.391 . S
H94 C54 0.951 . S
H95 C55 0.950 . S
H96 C61 0.949 . S
H97 C62 0.950 . S
H98 C66 0.951 . S
H99 C67 0.950 . S
H100 C71 0.949 . S
H101 C72 0.950 . S
H102 C76 0.950 1_655 S
H103 C78 0.950 . S
H104 C81 0.950 1_655 S
H105 C83 0.950 . S
Li106 N123 1.990 . S
Li106 O166 1.956 . S
Li106 O167 1.970 1_455 S
Li106 O168 1.961 . S
Li107 N131 1.990 . S
Li107 O166 1.970 1_565 S
Li107 O167 1.956 1_465 S
Li107 O169 1.961 . S
Li108 N153 1.990 . S
Li108 O166 1.961 . S
Li108 O168 1.956 . S
Li108 O169 1.970 1_545 S
Li109 N159 1.990 . S
Li109 O167 1.961 . S
Li109 O168 1.970 1_655 S
Li109 O169 1.956 1_645 S
C110 C112 1.348 . S
C110 C113 1.356 . S
C110 O166 1.325 . S
N111 C114 1.314 . S
N111 C115 1.279 . S
C112 C110 1.348 . S
C112 C114 1.353 . S
C112 H170 0.929 1_545 S
C113 C110 1.356 . S
C113 C115 1.358 . S
C113 H171 0.930 . S
C114 N111 1.314 . S
C114 C112 1.353 . S
C114 H172 0.930 1_545 S
C115 N111 1.279 . S
C115 C113 1.358 . S
C115 H173 0.930 . S
C116 C119 1.348 . S
C116 C120 1.356 . S
C116 O167 1.325 . S
C117 N118 1.279 . S
C117 C120 1.358 . S
C117 H174 0.930 1_545 S
N118 C117 1.279 . S
N118 C121 1.314 . S
C119 C116 1.348 . S
C119 C121 1.353 . S
C119 H175 0.929 . S
C120 C116 1.356 . S
C120 C117 1.358 . S
C120 H176 0.930 1_545 S
C121 N118 1.314 . S
C121 C119 1.353 . S
C121 H177 0.930 . S
C122 N123 1.314 . S
C122 C127 1.353 . S
C122 H128 0.917 1_455 S
N123 Li106 1.990 . S
N123 C122 1.314 . S
N123 C125 1.279 . S
C124 C125 1.358 . S
C124 C126 1.356 . S
C124 H178 0.930 . S
C125 N123 1.279 . S
C125 C124 1.358 . S
C125 H129 0.930 . S
C126 C124 1.356 . S
C126 C127 1.348 . S
C127 C122 1.353 . S
C127 C126 1.348 . S
C127 H179 0.929 1_455 S
H128 C122 0.917 1_655 S
H129 C125 0.930 . S
C130 N131 1.314 . S
C130 C132 1.353 . S
C130 H136 0.930 . S
N131 Li107 1.990 . S
N131 C130 1.314 . S
N131 C134 1.279 . S
C132 C130 1.353 . S
C132 C135 1.348 . S
C132 H180 0.929 . S
C133 C134 1.358 . S
C133 C135 1.356 . S
C133 H181 0.930 1_455 S
C134 N131 1.279 . S
C134 C133 1.358 . S
C134 H137 0.930 1_455 S
C135 C132 1.348 . S
C135 C133 1.356 . S
H136 C130 0.930 . S
H137 C134 0.930 1_655 S
C138 C140 1.348 . S
C138 C141 1.356 . S
C138 O168 1.325 . S
N139 C142 1.314 . S
N139 C143 1.279 . S
C140 C138 1.348 . S
C140 C142 1.353 . S
C140 H182 0.929 1_455 S
C141 C138 1.356 . S
C141 C143 1.358 . S
C141 H183 0.930 . S
C142 N139 1.314 . S
C142 C140 1.353 . S
C142 H184 0.930 1_455 S
C143 N139 1.279 . S
C143 C141 1.358 . S
C143 H185 0.930 . S
C144 C145 1.348 . S
C144 C146 1.356 . S
C144 O169 1.325 . S
C145 C144 1.348 . S
C145 C147 1.353 . S
C145 H186 0.929 . S
C146 C144 1.356 . S
C146 C148 1.358 . S
C146 H187 0.930 1_455 S
C147 C145 1.353 . S
C147 N149 1.314 . S
C147 H188 0.930 . S
C148 C146 1.358 . S
C148 N149 1.279 . S
C148 H189 0.930 1_455 S
N149 C147 1.314 . S
N149 C148 1.279 . S
C150 C152 1.353 . S
C150 N153 1.314 . S
C150 H156 0.917 1_545 S
C151 N153 1.279 . S
C151 C154 1.358 . S
C151 H157 0.930 . S
C152 C150 1.353 . S
C152 C155 1.348 . S
C152 H190 0.929 1_545 S
N153 Li108 1.990 . S
N153 C150 1.314 . S
N153 C151 1.279 . S
C154 C151 1.358 . S
C154 C155 1.356 . S
C154 H191 0.930 . S
C155 C152 1.348 . S
C155 C154 1.356 . S
H156 C150 0.917 1_565 S
H157 C151 0.930 . S
C158 N159 1.314 . S
C158 C160 1.353 . S
C158 H164 0.930 . S
N159 Li109 1.990 . S
N159 C158 1.314 . S
N159 C162 1.279 . S
C160 C158 1.353 . S
C160 C163 1.348 . S
C160 H192 0.929 . S
C161 C162 1.358 . S
C161 C163 1.356 . S
C161 H193 0.930 1_545 S
C162 N159 1.279 . S
C162 C161 1.358 . S
C162 H165 0.930 1_545 S
C163 C160 1.348 . S
C163 C161 1.356 . S
H164 C158 0.930 . S
H165 C162 0.930 1_565 S
O166 Li106 1.956 . S
O166 Li107 1.970 1_545 S
O166 Li108 1.961 . S
O166 C110 1.325 . S
O167 Li106 1.970 1_655 S
O167 Li107 1.956 1_645 S
O167 Li109 1.961 . S
O167 C116 1.325 . S
O168 Li106 1.961 . S
O168 Li108 1.956 . S
O168 Li109 1.970 1_455 S
O168 C138 1.325 . S
O169 Li107 1.961 . S
O169 Li108 1.970 1_565 S
O169 Li109 1.956 1_465 S
O169 C144 1.325 . S
H170 C112 0.929 1_565 S
H171 C113 0.930 . S
H172 C114 0.930 1_565 S
H173 C115 0.930 . S
H174 C117 0.930 1_565 S
H175 C119 0.929 . S
H176 C120 0.930 1_565 S
H177 C121 0.930 . S
H178 C124 0.930 . S
H179 C127 0.929 1_655 S
H180 C132 0.929 . S
H181 C133 0.930 1_655 S
H182 C140 0.929 1_655 S
H183 C141 0.930 . S
H184 C142 0.930 1_655 S
H185 C143 0.930 . S
H186 C145 0.929 . S
H187 C146 0.930 1_655 S
H188 C147 0.930 . S
H189 C148 0.930 1_655 S
H190 C152 0.929 1_565 S
H191 C154 0.930 . S
H192 C160 0.929 . S
H193 C161 0.930 1_565 S
Li194 N211 1.990 1_455 S
Li194 O254 1.956 . S
Li194 O255 1.970 . S
Li194 O256 1.961 . S
Li195 N219 1.990 . S
Li195 O254 1.970 . S
Li195 O255 1.956 . S
Li195 O257 1.961 . S
Li196 N241 1.990 . S
Li196 O254 1.961 . S
Li196 O256 1.956 . S
Li196 O257 1.970 . S
Li197 N247 1.990 1_545 S
Li197 O255 1.961 . S
Li197 O256 1.970 . S
Li197 O257 1.956 . S
C198 C200 1.348 . S
C198 C201 1.356 . S
C198 O254 1.325 . S
N199 C202 1.314 . S
N199 C203 1.279 . S
C200 C198 1.348 . S
C200 C202 1.353 . S
C200 H258 0.929 . S
C201 C198 1.356 . S
C201 C203 1.358 . S
C201 H259 0.930 . S
C202 N199 1.314 . S
C202 C200 1.353 . S
C202 H260 0.930 . S
C203 N199 1.279 . S
C203 C201 1.358 . S
C203 H261 0.930 . S
C204 C207 1.348 . S
C204 C208 1.356 . S
C204 O255 1.325 1_565 S
C205 N206 1.279 . S
C205 C208 1.358 . S
C205 H262 0.930 . S
N206 C205 1.279 . S
N206 C209 1.314 . S
C207 C204 1.348 . S
C207 C209 1.353 . S
C207 H263 0.929 . S
C208 C204 1.356 . S
C208 C205 1.358 . S
C208 H264 0.930 . S
C209 N206 1.314 . S
C209 C207 1.353 . S
C209 H265 0.930 . S
C210 N211 1.314 . S
C210 C215 1.353 . S
C210 H216 0.930 . S
N211 Li194 1.990 1_655 S
N211 C210 1.314 . S
N211 C213 1.279 . S
C212 C213 1.358 . S
C212 C214 1.356 . S
C212 H266 0.930 . S
C213 N211 1.279 . S
C213 C212 1.358 . S
C213 H217 0.930 . S
C214 C212 1.356 . S
C214 C215 1.348 . S
C215 C210 1.353 . S
C215 C214 1.348 . S
C215 H267 0.929 . S
H216 C210 0.930 . S
H217 C213 0.930 . S
C218 N219 1.314 . S
C218 C220 1.353 . S
C218 H224 0.930 . S
N219 Li195 1.990 . S
N219 C218 1.314 . S
N219 C222 1.279 . S
C220 C218 1.353 . S
C220 C223 1.348 . S
C220 H268 0.929 . S
C221 C222 1.358 . S
C221 C223 1.356 . S
C221 H269 0.930 . S
C222 N219 1.279 . S
C222 C221 1.358 . S
C222 H225 0.930 . S
C223 C220 1.348 . S
C223 C221 1.356 . S
H224 C218 0.930 . S
H225 C222 0.930 . S
C226 C228 1.348 . S
C226 C229 1.356 . S
C226 O256 1.325 1_655 S
N227 C230 1.314 . S
N227 C231 1.279 . S
C228 C226 1.348 . S
C228 C230 1.353 . S
C228 H270 0.929 . S
C229 C226 1.356 . S
C229 C231 1.358 . S
C229 H271 0.930 . S
C230 N227 1.314 . S
C230 C228 1.353 . S
C230 H272 0.930 . S
C231 N227 1.279 . S
C231 C229 1.358 . S
C231 H273 0.930 . S
C232 C233 1.348 . S
C232 C234 1.356 . S
C232 O257 1.325 . S
C233 C232 1.348 . S
C233 C235 1.353 . S
C233 H274 0.929 . S
C234 C232 1.356 . S
C234 C236 1.358 . S
C234 H275 0.930 . S
C235 C233 1.353 . S
C235 N237 1.314 . S
C235 H276 0.930 . S
C236 C234 1.358 . S
C236 N237 1.279 . S
C236 H277 0.930 . S
N237 C235 1.314 . S
N237 C236 1.279 . S
C238 C240 1.353 . S
C238 N241 1.314 . S
C238 H244 0.930 . S
C239 N241 1.279 . S
C239 C242 1.358 . S
C239 H245 0.930 . S
C240 C238 1.353 . S
C240 C243 1.348 . S
C240 H278 0.929 . S
N241 Li196 1.990 . S
N241 C238 1.314 . S
N241 C239 1.279 . S
C242 C239 1.358 . S
C242 C243 1.356 . S
C242 H279 0.930 . S
C243 C240 1.348 . S
C243 C242 1.356 . S
H244 C238 0.930 . S
H245 C239 0.930 . S
C246 N247 1.314 . S
C246 C248 1.353 . S
C246 H252 0.930 . S
N247 Li197 1.990 1_565 S
N247 C246 1.314 . S
N247 C250 1.279 . S
C248 C246 1.353 . S
C248 C251 1.348 . S
C248 H280 0.929 . S
C249 C250 1.358 . S
C249 C251 1.356 . S
C249 H281 0.930 . S
C250 N247 1.279 . S
C250 C249 1.358 . S
C250 H253 0.930 . S
C251 C248 1.348 . S
C251 C249 1.356 . S
H252 C246 0.930 . S
H253 C250 0.930 . S
O254 Li194 1.956 . S
O254 Li195 1.970 . S
O254 Li196 1.961 . S
O254 C198 1.325 . S
O255 Li194 1.970 . S
O255 Li195 1.956 . S
O255 Li197 1.961 . S
O255 C204 1.325 1_545 S
O256 Li194 1.961 . S
O256 Li196 1.956 . S
O256 Li197 1.970 . S
O256 C226 1.325 1_455 S
O257 Li195 1.961 . S
O257 Li196 1.970 . S
O257 Li197 1.956 . S
O257 C232 1.325 . S
H258 C200 0.929 . S
H259 C201 0.930 . S
H260 C202 0.930 . S
H261 C203 0.930 . S
H262 C205 0.930 . S
H263 C207 0.929 . S
H264 C208 0.930 . S
H265 C209 0.930 . S
H266 C212 0.930 . S
H267 C215 0.929 . S
H268 C220 0.929 . S
H269 C221 0.930 . S
H270 C228 0.929 . S
H271 C229 0.930 . S
H272 C230 0.930 . S
H273 C231 0.930 . S
H274 C233 0.929 . S
H275 C234 0.930 . S
H276 C235 0.930 . S
H277 C236 0.930 . S
H278 C240 0.929 . S
H279 C242 0.930 . S
H280 C248 0.929 . S
H281 C249 0.930 . S
H282 C288 0.930 1_565 S
H283 C292 0.930 . S
H284 C297 0.929 . S
H285 C295 0.929 1_565 S
H286 C290 0.929 . S
H287 C296 0.929 1_565 S
C288 H282 0.930 1_545 S
C288 C289 1.367 . S
C288 C296 1.378 . S
C289 C288 1.367 . S
C289 C297 1.433 . S
C290 H286 0.929 . S
C290 C292 1.378 . S
C290 C294 1.350 . S
C291 C294 1.463 . S
C291 C296 1.350 . S
C291 N299 1.427 . S
C292 H283 0.930 . S
C292 C290 1.378 . S
C292 C293 1.367 . S
C293 C292 1.367 . S
C293 C295 1.433 . S
C294 C290 1.350 . S
C294 C291 1.463 . S
C294 N298 1.427 . S
C295 H285 0.929 1_545 S
C295 C293 1.433 . S
C295 N298 1.384 . S
C296 H287 0.929 1_545 S
C296 C288 1.378 . S
C296 C291 1.350 . S
C297 H284 0.929 . S
C297 C289 1.433 . S
C297 N299 1.384 . S
N298 C294 1.427 . S
N298 C295 1.384 . S
N299 C291 1.427 . S
N299 C297 1.384 . S
H300 C306 0.930 . S
H301 C310 0.930 . S
H302 C315 0.929 . S
H303 C313 0.929 . S
H304 C308 0.929 . S
H305 C314 0.929 . S
C306 H300 0.930 . S
C306 C307 1.367 . S
C306 C314 1.378 . S
C307 C306 1.367 . S
C307 C315 1.433 . S
C308 H304 0.929 . S
C308 C310 1.378 . S
C308 C312 1.350 . S
C309 C312 1.463 . S
C309 C314 1.350 . S
C309 N317 1.427 . S
C310 H301 0.930 . S
C310 C308 1.378 . S
C310 C311 1.367 . S
C311 C310 1.367 . S
C311 C313 1.433 . S
C312 C308 1.350 . S
C312 C309 1.463 . S
C312 N316 1.427 . S
C313 H303 0.929 . S
C313 C311 1.433 . S
C313 N316 1.384 . S
C314 H305 0.929 . S
C314 C306 1.378 . S
C314 C309 1.350 . S
C315 H302 0.929 . S
C315 C307 1.433 . S
C315 N317 1.384 . S
N316 C312 1.427 . S
N316 C313 1.384 . S
N317 C309 1.427 . S
N317 C315 1.384 . S
H318 C324 0.930 . S
H319 C328 0.930 . S
H320 C333 0.929 . S
H321 C331 0.929 . S
H322 C326 0.929 . S
H323 C332 0.929 . S
C324 H318 0.930 . S
C324 C325 1.367 . S
C324 C332 1.378 . S
C325 C324 1.367 . S
C325 C333 1.433 . S
C326 H322 0.929 . S
C326 C328 1.378 . S
C326 C330 1.350 . S
C327 C330 1.463 . S
C327 C332 1.350 . S
C327 N335 1.427 . S
C328 H319 0.930 . S
C328 C326 1.378 . S
C328 C329 1.367 . S
C329 C328 1.367 . S
C329 C331 1.433 . S
C330 C326 1.350 . S
C330 C327 1.463 . S
C330 N334 1.427 . S
C331 H321 0.929 . S
C331 C329 1.433 . S
C331 N334 1.384 . S
C332 H323 0.929 . S
C332 C324 1.378 . S
C332 C327 1.350 . S
C333 H320 0.929 . S
C333 C325 1.433 . S
C333 N335 1.384 . S
N334 C330 1.427 . S
N334 C331 1.384 . S
N335 C327 1.427 . S
N335 C333 1.384 . S
H336 C342 0.930 1_655 S
H337 C346 0.930 . S
H338 C351 0.929 . S
H339 C349 0.929 1_655 S
H340 C344 0.929 . S
H341 C350 0.929 1_655 S
C342 H336 0.930 1_455 S
C342 C343 1.367 . S
C342 C350 1.378 . S
C343 C342 1.367 . S
C343 C351 1.433 . S
C344 H340 0.929 . S
C344 C346 1.378 . S
C344 C348 1.350 . S
C345 C348 1.463 . S
C345 C350 1.350 . S
C345 N353 1.427 . S
C346 H337 0.930 . S
C346 C344 1.378 . S
C346 C347 1.367 . S
C347 C346 1.367 . S
C347 C349 1.433 . S
C348 C344 1.350 . S
C348 C345 1.463 . S
C348 N352 1.427 . S
C349 H339 0.929 1_455 S
C349 C347 1.433 . S
C349 N352 1.384 . S
C350 H341 0.929 1_455 S
C350 C342 1.378 . S
C350 C345 1.350 . S
C351 H338 0.929 . S
C351 C343 1.433 . S
C351 N353 1.384 . S
N352 C348 1.427 . S
N352 C349 1.384 . S
N353 C345 1.427 . S
N353 C351 1.384 . S
H354 C360 0.930 1_565 S
H355 C364 0.930 . S
H356 C369 0.929 . S
H357 C367 0.929 1_565 S
H358 C362 0.929 . S
H359 C368 0.929 1_565 S
C360 H354 0.930 1_545 S
C360 C361 1.367 . S
C360 C368 1.378 . S
C361 C360 1.367 . S
C361 C369 1.433 . S
C362 H358 0.929 . S
C362 C364 1.378 . S
C362 C366 1.350 . S
C363 C366 1.463 . S
C363 C368 1.350 . S
C363 N371 1.427 . S
C364 H355 0.930 . S
C364 C362 1.378 . S
C364 C365 1.367 . S
C365 C364 1.367 . S
C365 C367 1.433 . S
C366 C362 1.350 . S
C366 C363 1.463 . S
C366 N370 1.427 . S
C367 H357 0.929 1_545 S
C367 C365 1.433 . S
C367 N370 1.384 . S
C368 H359 0.929 1_545 S
C368 C360 1.378 . S
C368 C363 1.350 . S
C369 H356 0.929 . S
C369 C361 1.433 . S
C369 N371 1.384 . S
N370 C366 1.427 . S
N370 C367 1.384 . S
N371 C363 1.427 . S
N371 C369 1.384 . S
H372 C378 0.930 . S
H373 C382 0.930 1_655 S
H374 C387 0.929 1_655 S
H375 C385 0.929 . S
H376 C380 0.929 1_655 S
H377 C386 0.929 . S
C378 H372 0.930 . S
C378 C379 1.367 . S
C378 C386 1.378 . S
C379 C378 1.367 . S
C379 C387 1.433 . S
C380 H376 0.929 1_455 S
C380 C382 1.378 . S
C380 C384 1.350 . S
C381 C384 1.463 . S
C381 C386 1.350 . S
C381 N389 1.427 . S
C382 H373 0.930 1_455 S
C382 C380 1.378 . S
C382 C383 1.367 . S
C383 C382 1.367 . S
C383 C385 1.433 . S
C384 C380 1.350 . S
C384 C381 1.463 . S
C384 N388 1.427 . S
C385 H375 0.929 . S
C385 C383 1.433 . S
C385 N388 1.384 . S
C386 H377 0.929 . S
C386 C378 1.378 . S
C386 C381 1.350 . S
C387 H374 0.929 1_455 S
C387 C379 1.433 . S
C387 N389 1.384 . S
N388 C384 1.427 . S
N388 C385 1.384 . S
N389 C381 1.427 . S
N389 C387 1.384 . S
H390 C396 0.930 . S
H391 C400 0.930 . S
H392 C405 0.930 . S
H393 C403 0.929 . S
H394 C398 0.929 . S
H395 C404 0.929 . S
C396 H390 0.930 . S
C396 C397 1.367 . S
C396 C404 1.378 . S
C397 C396 1.367 . S
C397 C405 1.433 . S
C398 H394 0.929 . S
C398 C400 1.378 . S
C398 C402 1.350 . S
C399 C402 1.463 . S
C399 C404 1.350 . S
C399 N407 1.427 . S
C400 H391 0.930 . S
C400 C398 1.378 . S
C400 C401 1.367 . S
C401 C400 1.367 . S
C401 C403 1.433 . S
C402 C398 1.350 . S
C402 C399 1.463 . S
C402 N406 1.427 . S
C403 H393 0.929 . S
C403 C401 1.433 . S
C403 N406 1.384 . S
C404 H395 0.929 . S
C404 C396 1.378 . S
C404 C399 1.350 . S
C405 H392 0.930 . S
C405 C397 1.433 . S
C405 N407 1.384 . S
N406 C402 1.427 . S
N406 C403 1.384 . S
N407 C399 1.427 . S
N407 C405 1.384 . S
H408 C414 0.930 . S
H409 C418 0.930 . S
H410 C423 0.929 . S
H411 C421 0.929 . S
H412 C416 0.929 . S
H413 C422 0.929 . S
C414 H408 0.930 . S
C414 C415 1.367 . S
C414 C422 1.378 . S
C415 C414 1.367 . S
C415 C423 1.433 . S
C416 H412 0.929 . S
C416 C418 1.378 . S
C416 C420 1.350 . S
C417 C420 1.463 . S
C417 C422 1.350 . S
C417 N425 1.427 . S
C418 H409 0.930 . S
C418 C416 1.378 . S
C418 C419 1.367 . S
C419 C418 1.367 . S
C419 C421 1.433 . S
C420 C416 1.350 . S
C420 C417 1.463 . S
C420 N424 1.427 . S
C421 H411 0.929 . S
C421 C419 1.433 . S
C421 N424 1.384 . S
C422 H413 0.929 . S
C422 C414 1.378 . S
C422 C417 1.350 . S
C423 H410 0.929 . S
C423 C415 1.433 . S
C423 N425 1.384 . S
N424 C420 1.427 . S
N424 C421 1.384 . S
N425 C417 1.427 . S
N425 C423 1.384 . S
C293 C155 1.491 . S
C289 C22 1.491 . S
C311 C243 1.490 . S
C307 C91 1.490 . S
C329 C163 1.489 . S
C325 C38 1.488 . S
C347 C251 1.491 . S
C343 C75 1.491 . S
C365 C223 1.490 . S
C361 C39 1.489 . S
C383 C126 1.492 . S
C379 C82 1.492 . S
C401 C214 1.492 . S
C397 C29 1.492 . S
C415 C92 1.490 . S
C419 C135 1.489 . S
