# Generated by pormake.
# Topology ocu, (6,8)-cn, num edge types: 1
# Building blocks:
#     Node 0, Type 0, BuildingBlock: KUMJIN_clean_sbu_1, # of connection points: 6
#     Node 1, Type 0, BuildingBlock: KUMJIN_clean_sbu_1, # of connection points: 6
#     Node 2, Type 0, BuildingBlock: KUMJIN_clean_sbu_1, # of connection points: 6
#     Node 3, Type 0, BuildingBlock: KUMJIN_clean_sbu_1, # of connection points: 6
#     Node 4, Type 0, BuildingBlock: KUMJIN_clean_sbu_1, # of connection points: 6
#     Node 5, Type 0, BuildingBlock: KUMJIN_clean_sbu_1, # of connection points: 6
#     Node 6, Type 0, BuildingBlock: KUMJIN_clean_sbu_1, # of connection points: 6
#     Node 7, Type 0, BuildingBlock: KUMJIN_clean_sbu_1, # of connection points: 6
#     Node 8, Type 1, BuildingBlock: GIZVER_clean_sbu_0, # of connection points: 8
#     Node 9, Type 1, BuildingBlock: GIZVER_clean_sbu_0, # of connection points: 8
#     Node 10, Type 1, BuildingBlock: GIZVER_clean_sbu_0, # of connection points: 8
#     Node 11, Type 1, BuildingBlock: GIZVER_clean_sbu_0, # of connection points: 8
#     Node 12, Type 1, BuildingBlock: GIZVER_clean_sbu_0, # of connection points: 8
#     Node 13, Type 1, BuildingBlock: GIZVER_clean_sbu_0, # of connection points: 8
#     Edge 14, Type (0, 1), BuildingBlock: TEMPAE_clean_linker_10, # of connection points: 2
#     Edge 15, Type (0, 1), BuildingBlock: TEMPAE_clean_linker_10, # of connection points: 2
#     Edge 16, Type (0, 1), BuildingBlock: TEMPAE_clean_linker_10, # of connection points: 2
#     Edge 17, Type (0, 1), BuildingBlock: TEMPAE_clean_linker_10, # of connection points: 2
#     Edge 18, Type (0, 1), BuildingBlock: TEMPAE_clean_linker_10, # of connection points: 2
#     Edge 19, Type (0, 1), BuildingBlock: TEMPAE_clean_linker_10, # of connection points: 2
#     Edge 20, Type (0, 1), BuildingBlock: TEMPAE_clean_linker_10, # of connection points: 2
#     Edge 21, Type (0, 1), BuildingBlock: TEMPAE_clean_linker_10, # of connection points: 2
#     Edge 22, Type (0, 1), BuildingBlock: TEMPAE_clean_linker_10, # of connection points: 2
#     Edge 23, Type (0, 1), BuildingBlock: TEMPAE_clean_linker_10, # of connection points: 2
#     Edge 24, Type (0, 1), BuildingBlock: TEMPAE_clean_linker_10, # of connection points: 2
#     Edge 25, Type (0, 1), BuildingBlock: TEMPAE_clean_linker_10, # of connection points: 2
#     Edge 26, Type (0, 1), BuildingBlock: TEMPAE_clean_linker_10, # of connection points: 2
#     Edge 27, Type (0, 1), BuildingBlock: TEMPAE_clean_linker_10, # of connection points: 2
#     Edge 28, Type (0, 1), BuildingBlock: TEMPAE_clean_linker_10, # of connection points: 2
#     Edge 29, Type (0, 1), BuildingBlock: TEMPAE_clean_linker_10, # of connection points: 2
#     Edge 30, Type (0, 1), BuildingBlock: TEMPAE_clean_linker_10, # of connection points: 2
#     Edge 31, Type (0, 1), BuildingBlock: TEMPAE_clean_linker_10, # of connection points: 2
#     Edge 32, Type (0, 1), BuildingBlock: TEMPAE_clean_linker_10, # of connection points: 2
#     Edge 33, Type (0, 1), BuildingBlock: TEMPAE_clean_linker_10, # of connection points: 2
#     Edge 34, Type (0, 1), BuildingBlock: TEMPAE_clean_linker_10, # of connection points: 2
#     Edge 35, Type (0, 1), BuildingBlock: TEMPAE_clean_linker_10, # of connection points: 2
#     Edge 36, Type (0, 1), BuildingBlock: TEMPAE_clean_linker_10, # of connection points: 2
#     Edge 37, Type (0, 1), BuildingBlock: TEMPAE_clean_linker_10, # of connection points: 2
#     Edge 38, Type (0, 1), BuildingBlock: TEMPAE_clean_linker_10, # of connection points: 2
#     Edge 39, Type (0, 1), BuildingBlock: TEMPAE_clean_linker_10, # of connection points: 2
#     Edge 40, Type (0, 1), BuildingBlock: TEMPAE_clean_linker_10, # of connection points: 2
#     Edge 41, Type (0, 1), BuildingBlock: TEMPAE_clean_linker_10, # of connection points: 2
#     Edge 42, Type (0, 1), BuildingBlock: TEMPAE_clean_linker_10, # of connection points: 2
#     Edge 43, Type (0, 1), BuildingBlock: TEMPAE_clean_linker_10, # of connection points: 2
#     Edge 44, Type (0, 1), BuildingBlock: TEMPAE_clean_linker_10, # of connection points: 2
#     Edge 45, Type (0, 1), BuildingBlock: TEMPAE_clean_linker_10, # of connection points: 2
#     Edge 46, Type (0, 1), BuildingBlock: TEMPAE_clean_linker_10, # of connection points: 2
#     Edge 47, Type (0, 1), BuildingBlock: TEMPAE_clean_linker_10, # of connection points: 2
#     Edge 48, Type (0, 1), BuildingBlock: TEMPAE_clean_linker_10, # of connection points: 2
#     Edge 49, Type (0, 1), BuildingBlock: TEMPAE_clean_linker_10, # of connection points: 2
#     Edge 50, Type (0, 1), BuildingBlock: TEMPAE_clean_linker_10, # of connection points: 2
#     Edge 51, Type (0, 1), BuildingBlock: TEMPAE_clean_linker_10, # of connection points: 2
#     Edge 52, Type (0, 1), BuildingBlock: TEMPAE_clean_linker_10, # of connection points: 2
#     Edge 53, Type (0, 1), BuildingBlock: TEMPAE_clean_linker_10, # of connection points: 2
#     Edge 54, Type (0, 1), BuildingBlock: TEMPAE_clean_linker_10, # of connection points: 2
#     Edge 55, Type (0, 1), BuildingBlock: TEMPAE_clean_linker_10, # of connection points: 2
#     Edge 56, Type (0, 1), BuildingBlock: TEMPAE_clean_linker_10, # of connection points: 2
#     Edge 57, Type (0, 1), BuildingBlock: TEMPAE_clean_linker_10, # of connection points: 2
#     Edge 58, Type (0, 1), BuildingBlock: TEMPAE_clean_linker_10, # of connection points: 2
#     Edge 59, Type (0, 1), BuildingBlock: TEMPAE_clean_linker_10, # of connection points: 2
#     Edge 60, Type (0, 1), BuildingBlock: TEMPAE_clean_linker_10, # of connection points: 2
#     Edge 61, Type (0, 1), BuildingBlock: TEMPAE_clean_linker_10, # of connection points: 2
# Relax obj value: 0.164
# Max RMSD: 0.210
# Mean RMSD: 0.171
data_MOF--net-ocu--node1-KUMJIN_clean_sbu_1--node2-GIZVER_clean_sbu_0--edge1-TEMPAE_clean_linker_10
_symmetry_space_group_name_H-M    P1
_symmetry_Int_Tables_number       1
_symmetry_cell_setting            triclinic
loop_
_symmetry_equiv_pos_as_xyz
'x, y, z'
_cell_length_a     43.447913
_cell_length_b     45.04756
_cell_length_c     35.302354
_cell_angle_alpha  101.70357
_cell_angle_beta   79.256914
_cell_angle_gamma 111.81956
loop_
_atom_site_label
_atom_site_type_symbol
_atom_site_fract_x
_atom_site_fract_y
_atom_site_fract_z
_atom_type_partial_charge
Eu0 Eu 0.25311 0.25914 0.2199 0.0
C1 C 0.33941 0.36256 0.34147 0.0
N2 N 0.34864 0.34405 0.30906 0.0
C3 C 0.39445 0.39049 0.29013 0.0
C4 C 0.35668 0.3962 0.34842 0.0
C5 C 0.37684 0.35724 0.28469 0.0
C6 C 0.38399 0.41016 0.32174 0.0
C7 C 0.30462 0.36605 0.40354 0.0
C8 C 0.3136 0.34765 0.36883 0.0
C9 C 0.32093 0.39967 0.40971 0.0
C10 C 0.34685 0.4147 0.38222 0.0
Eu11 Eu 0.31489 0.28851 0.30139 0.0
N12 N 0.29792 0.31506 0.36203 0.0
C13 C 0.28005 0.35001 0.43151 0.0
C14 C 0.27558 0.29915 0.39026 0.0
C15 C 0.26592 0.31635 0.42511 0.0
H16 H 0.38633 0.34213 0.26146 0.0
H17 H 0.24786 0.30361 0.4472 0.0
H18 H 0.18632 0.19445 0.24392 0.0
H19 H 0.32761 0.27923 0.07865 0.0
H20 H 0.26567 0.27316 0.38651 0.0
H21 H 0.27258 0.36327 0.45861 0.0
H22 H 0.30625 0.29476 0.14675 0.0
H23 H 0.4164 0.40084 0.27027 0.0
H24 H 0.31417 0.4142 0.43607 0.0
H25 H 0.3597 0.44059 0.38785 0.0
H26 H 0.15831 0.13798 0.2152 0.0
H27 H 0.39788 0.43589 0.32606 0.0
H28 H 0.30558 0.22241 0.04718 0.0
N29 N 0.22406 0.20472 0.19553 0.0
C30 C 0.23498 0.19426 0.15841 0.0
C31 C 0.18002 0.15342 0.19905 0.0
C32 C 0.21929 0.16235 0.14061 0.0
C33 C 0.19614 0.1853 0.21535 0.0
C34 C 0.19187 0.14177 0.16168 0.0
N35 N 0.27444 0.24698 0.15449 0.0
C36 C 0.29724 0.26985 0.13359 0.0
C37 C 0.27167 0.20612 0.09819 0.0
C38 C 0.26076 0.21596 0.13728 0.0
C39 C 0.29653 0.22905 0.07725 0.0
C40 C 0.30907 0.26114 0.09491 0.0
H41 H 0.17913 0.11712 0.14898 0.0
H42 H 0.21911 0.12777 0.08801 0.0
H43 H 0.26506 0.16602 0.05099 0.0
O44 O 0.24009 0.28835 0.18627 0.0
O45 O 0.30014 0.24572 0.19963 0.0
O46 O 0.31678 0.24337 0.25719 0.0
O47 O 0.20118 0.25057 0.21626 0.0
O48 O 0.2921 0.3094 0.22561 0.0
O49 O 0.33638 0.30027 0.24046 0.0
O50 O 0.32242 0.25861 0.33804 0.0
O51 O 0.28215 0.31842 0.30233 0.0
O52 O 0.23455 0.28007 0.28079 0.0
O53 O 0.36351 0.30013 0.32016 0.0
O54 O 0.26331 0.25318 0.31853 0.0
O55 O 0.24526 0.22293 0.26064 0.0
C56 C 0.31588 0.23482 0.21907 0.0
C57 C 0.1816 0.27864 0.17981 0.0
C58 C 0.16297 0.30453 0.13877 0.0
C59 C 0.12971 0.28592 0.15008 0.0
C60 C 0.14805 0.26044 0.19093 0.0
C61 C 0.12234 0.26417 0.17619 0.0
C62 C 0.189 0.30115 0.15397 0.0
C63 C 0.32429 0.31506 0.22173 0.0
C64 C 0.20825 0.27234 0.19372 0.0
C65 C 0.23077 0.15224 0.10205 0.0
C66 C 0.25692 0.17404 0.08094 0.0
C67 C 0.24989 0.30845 0.30034 0.0
C68 C 0.37561 0.25417 0.32282 0.0
C69 C 0.39979 0.21701 0.33577 0.0
C70 C 0.41394 0.21428 0.29657 0.0
C71 C 0.38999 0.25126 0.28379 0.0
C72 C 0.38068 0.23716 0.3488 0.0
C73 C 0.40917 0.23151 0.27088 0.0
C74 C 0.24524 0.22639 0.29855 0.0
C75 C 0.35452 0.27411 0.33611 0.0
H76 H 0.10937 0.28857 0.139 0.0
H77 H 0.14159 0.24297 0.21075 0.0
H78 H 0.09662 0.25003 0.18489 0.0
H79 H 0.2147 0.31542 0.14513 0.0
H80 H 0.42902 0.19912 0.28594 0.0
H81 H 0.38622 0.26408 0.26319 0.0
H82 H 0.36937 0.23921 0.37887 0.0
H83 H 0.4202 0.22947 0.24082 0.0
Eu84 Eu 0.75304 0.30114 0.27093 0.0
C85 C 0.85823 0.24635 0.17183 0.0
N86 N 0.82584 0.23115 0.18569 0.0
C87 C 0.81567 0.20051 0.12236 0.0
C88 C 0.87021 0.24008 0.13216 0.0
C89 C 0.80512 0.20716 0.16203 0.0
C90 C 0.84819 0.21743 0.10719 0.0
C91 C 0.91414 0.28169 0.18507 0.0
C92 C 0.87999 0.26694 0.19781 0.0
C93 C 0.92589 0.27647 0.14536 0.0
C94 C 0.90395 0.25579 0.11894 0.0
Eu95 Eu 0.81036 0.24599 0.253 0.0
N96 N 0.86778 0.27214 0.23586 0.0
C97 C 0.93547 0.30099 0.21276 0.0
C98 C 0.88846 0.29005 0.26322 0.0
C99 C 0.92259 0.30499 0.25206 0.0
H100 H 0.78065 0.1924 0.17354 0.0
H101 H 0.93891 0.31958 0.27373 0.0
H102 H 0.77732 0.35232 0.35174 0.0
H103 H 0.63036 0.21018 0.24526 0.0
H104 H 0.8785 0.29287 0.29361 0.0
H105 H 0.96189 0.3127 0.20414 0.0
H106 H 0.68698 0.24686 0.22617 0.0
H107 H 0.79886 0.18191 0.10365 0.0
H108 H 0.95197 0.28792 0.13487 0.0
H109 H 0.9135 0.25148 0.0885 0.0
H110 H 0.75584 0.36104 0.42135 0.0
H111 H 0.85639 0.21196 0.07652 0.0
H112 H 0.60626 0.21289 0.31456 0.0
N113 N 0.73366 0.31283 0.33713 0.0
C114 C 0.70172 0.29488 0.34927 0.0
C115 C 0.74048 0.34215 0.40148 0.0
C116 C 0.68849 0.29886 0.38881 0.0
C117 C 0.75272 0.33695 0.36211 0.0
C118 C 0.70837 0.32277 0.415 0.0
N119 N 0.69636 0.26816 0.28422 0.0
C120 C 0.67748 0.24741 0.25656 0.0
C121 C 0.65003 0.25166 0.33434 0.0
C122 C 0.68273 0.27161 0.3222 0.0
C123 C 0.6314 0.22879 0.30638 0.0
C124 C 0.645 0.22704 0.26725 0.0
H125 H 0.69909 0.32662 0.44561 0.0
H126 H 0.64565 0.28117 0.43133 0.0
H127 H 0.61206 0.23975 0.38375 0.0
O128 O 0.72192 0.32181 0.25162 0.0
O129 O 0.7487 0.26862 0.31525 0.0
O130 O 0.75585 0.22523 0.27461 0.0
O131 O 0.76869 0.35394 0.27469 0.0
O132 O 0.74837 0.2667 0.21375 0.0
O133 O 0.76118 0.2248 0.22723 0.0
O134 O 0.82429 0.23068 0.30039 0.0
O135 O 0.8336 0.29561 0.23387 0.0
O136 O 0.78905 0.3014 0.21485 0.0
O137 O 0.81604 0.19923 0.24532 0.0
O138 O 0.81301 0.2816 0.3093 0.0
O139 O 0.80326 0.32416 0.29273 0.0
C140 C 0.74123 0.23731 0.30636 0.0
C141 C 0.73591 0.37876 0.25133 0.0
C142 C 0.7127 0.40062 0.21074 0.0
C143 C 0.72866 0.43192 0.22959 0.0
C144 C 0.75171 0.41007 0.27004 0.0
C145 C 0.74786 0.43653 0.25931 0.0
C146 C 0.71604 0.3741 0.22209 0.0
C147 C 0.74721 0.2365 0.20659 0.0
C148 C 0.7426 0.35124 0.25925 0.0
C149 C 0.65612 0.27872 0.40099 0.0
C150 C 0.637 0.25511 0.37388 0.0
C151 C 0.82146 0.3092 0.21366 0.0
C152 C 0.85726 0.19777 0.27846 0.0
C153 C 0.88992 0.17812 0.30909 0.0
C154 C 0.91376 0.18139 0.27593 0.0
C155 C 0.88143 0.20126 0.24549 0.0
C156 C 0.86182 0.18662 0.31051 0.0
C157 C 0.90962 0.19319 0.24438 0.0
C158 C 0.81728 0.31259 0.31334 0.0
C159 C 0.82656 0.20421 0.279 0.0
H160 H 0.72601 0.45273 0.22152 0.0
H161 H 0.76732 0.41409 0.29252 0.0
H162 H 0.76006 0.46068 0.27375 0.0
H163 H 0.7042 0.35002 0.20703 0.0
H164 H 0.93547 0.17462 0.27445 0.0
H165 H 0.87825 0.20958 0.22031 0.0
H166 H 0.84311 0.18357 0.33588 0.0
H167 H 0.92799 0.19561 0.2188 0.0
Eu168 Eu 0.77405 0.7434 0.29046 0.0
C169 C 0.87324 0.81076 0.15872 0.0
N170 N 0.86206 0.8256 0.19319 0.0
C171 C 0.91694 0.86469 0.19868 0.0
C172 C 0.90717 0.82228 0.14322 0.0
C173 C 0.88314 0.85243 0.21299 0.0
C174 C 0.92905 0.84952 0.16372 0.0
C175 C 0.86181 0.76794 0.10326 0.0
C176 C 0.85071 0.78377 0.1389 0.0
C177 C 0.89565 0.77931 0.08796 0.0
C178 C 0.91822 0.80641 0.10782 0.0
Eu179 Eu 0.80442 0.80377 0.21336 0.0
N180 N 0.81806 0.77287 0.1546 0.0
C181 C 0.83849 0.74132 0.08378 0.0
C182 C 0.795 0.74814 0.13466 0.0
C183 C 0.80489 0.73162 0.09935 0.0
H184 H 0.8738 0.86497 0.23928 0.0
H185 H 0.7865 0.7117 0.08389 0.0
H186 H 0.71212 0.67714 0.25552 0.0
H187 H 0.77895 0.81645 0.43395 0.0
H188 H 0.76893 0.74162 0.14521 0.0
H189 H 0.84606 0.72853 0.05633 0.0
H190 H 0.80087 0.79906 0.36684 0.0
H191 H 0.93358 0.88602 0.21443 0.0
H192 H 0.90459 0.76743 0.06062 0.0
H193 H 0.94421 0.81495 0.09549 0.0
H194 H 0.65307 0.64688 0.27573 0.0
H195 H 0.95527 0.85916 0.15266 0.0
H196 H 0.72008 0.78869 0.45918 0.0
N197 N 0.71763 0.71191 0.30693 0.0
C198 C 0.70342 0.72073 0.34307 0.0
C199 C 0.66687 0.66775 0.29483 0.0
C200 C 0.67002 0.70335 0.35637 0.0
C201 C 0.70023 0.68533 0.28318 0.0
C202 C 0.65163 0.67689 0.33149 0.0
N203 N 0.75465 0.76311 0.35372 0.0
C204 C 0.77507 0.78734 0.3773 0.0
C205 C 0.70908 0.75551 0.40565 0.0
C206 C 0.72261 0.74666 0.36739 0.0
C207 C 0.72954 0.78117 0.4296 0.0
C208 C 0.76276 0.797 0.41543 0.0
H209 H 0.62587 0.66299 0.34059 0.0
H210 H 0.63059 0.69952 0.40483 0.0
H211 H 0.66483 0.74506 0.448 0.0
O212 O 0.81448 0.73631 0.31181 0.0
O213 O 0.74865 0.78222 0.30477 0.0
O214 O 0.77708 0.82382 0.26776 0.0
O215 O 0.76625 0.69799 0.31015 0.0
O216 O 0.8243 0.78423 0.29398 0.0
O217 O 0.82294 0.82845 0.27203 0.0
O218 O 0.77768 0.81156 0.17167 0.0
O219 O 0.83469 0.77143 0.21564 0.0
O220 O 0.79322 0.72496 0.22929 0.0
O221 O 0.82008 0.85065 0.19376 0.0
O222 O 0.75029 0.76846 0.21556 0.0
O223 O 0.75522 0.72415 0.23191 0.0
C224 C 0.75411 0.81118 0.29589 0.0
C225 C 0.79864 0.70135 0.35879 0.0
C226 C 0.82957 0.68784 0.39949 0.0
C227 C 0.80519 0.68974 0.43134 0.0
C228 C 0.77441 0.703 0.39077 0.0
C229 C 0.77775 0.69721 0.42689 0.0
C230 C 0.82608 0.69364 0.36321 0.0
C231 C 0.8334 0.81571 0.29538 0.0
C232 C 0.79606 0.70773 0.3206 0.0
C233 C 0.65622 0.71257 0.39417 0.0
C234 C 0.67572 0.73848 0.41878 0.0
C235 C 0.82356 0.73976 0.21358 0.0
C236 C 0.77705 0.86457 0.17742 0.0
C237 C 0.73811 0.88183 0.15367 0.0
C238 C 0.74356 0.90826 0.18367 0.0
C239 C 0.78219 0.89122 0.20731 0.0
C240 C 0.75486 0.85997 0.15054 0.0
C241 C 0.76554 0.91292 0.21025 0.0
C242 C 0.73923 0.73717 0.21627 0.0
C243 C 0.79551 0.84217 0.17302 0.0
H244 H 0.80705 0.68487 0.45949 0.0
H245 H 0.7529 0.70857 0.38786 0.0
H246 H 0.75893 0.69835 0.45145 0.0
H247 H 0.84482 0.69237 0.3385 0.0
H248 H 0.73111 0.92554 0.18614 0.0
H249 H 0.79926 0.89551 0.22823 0.0
H250 H 0.75106 0.83984 0.12697 0.0
H251 H 0.77001 0.93366 0.2329 0.0
Eu252 Eu 0.25622 0.79177 0.24303 0.0
C253 C 0.30682 0.71491 0.3346 0.0
N254 N 0.32159 0.74492 0.32415 0.0
C255 C 0.34142 0.76614 0.38644 0.0
C256 C 0.30854 0.70947 0.37199 0.0
C257 C 0.3394 0.77027 0.34891 0.0
C258 C 0.32578 0.73564 0.39813 0.0
C259 C 0.27492 0.65806 0.31773 0.0
C260 C 0.28967 0.68961 0.3079 0.0
C261 C 0.27657 0.65258 0.35495 0.0
C262 C 0.29315 0.67823 0.38207 0.0
Eu263 Eu 0.31713 0.74975 0.2605 0.0
N264 N 0.28827 0.69561 0.27207 0.0
C265 C 0.25956 0.63275 0.28955 0.0
C266 C 0.27468 0.67064 0.24401 0.0
C267 C 0.25951 0.63908 0.25255 0.0
H268 H 0.35251 0.79356 0.33947 0.0
H269 H 0.24857 0.6195 0.23021 0.0
H270 H 0.23433 0.75014 0.15615 0.0
H271 H 0.32337 0.92184 0.28375 0.0
H272 H 0.27661 0.67431 0.21441 0.0
H273 H 0.24841 0.60812 0.29574 0.0
H274 H 0.29173 0.86667 0.2961 0.0
H275 H 0.35531 0.7864 0.40618 0.0
H276 H 0.26522 0.62852 0.36301 0.0
H277 H 0.29412 0.6736 0.41068 0.0
H278 H 0.23843 0.76075 0.08913 0.0
H279 H 0.32752 0.73246 0.42717 0.0
H280 H 0.332 0.93546 0.21742 0.0
N281 N 0.2622 0.79862 0.1773 0.0
C282 C 0.27724 0.82958 0.16975 0.0
C283 C 0.24973 0.78024 0.11137 0.0
C284 C 0.27931 0.83686 0.13208 0.0
C285 C 0.24794 0.77415 0.14909 0.0
C286 C 0.26553 0.81172 0.10279 0.0
N287 N 0.2883 0.84664 0.23609 0.0
C288 C 0.29831 0.87096 0.26631 0.0
C289 C 0.30678 0.8862 0.19192 0.0
C290 C 0.29113 0.854 0.19956 0.0
C291 C 0.31966 0.91053 0.22226 0.0
C292 C 0.31511 0.9029 0.25966 0.0
H293 H 0.26668 0.81643 0.07355 0.0
H294 H 0.29636 0.87494 0.09614 0.0
H295 H 0.31915 0.91816 0.14881 0.0
O296 O 0.21949 0.81244 0.27561 0.0
O297 O 0.29883 0.78772 0.19593 0.0
O298 O 0.33948 0.79523 0.23217 0.0
O299 O 0.2093 0.78232 0.22035 0.0
O300 O 0.28129 0.81263 0.29953 0.0
O301 O 0.33108 0.8033 0.28143 0.0
O302 O 0.3456 0.72207 0.22317 0.0
O303 O 0.27451 0.74954 0.30953 0.0
O304 O 0.23261 0.75014 0.27854 0.0
O305 O 0.36974 0.76084 0.26653 0.0
O306 O 0.28862 0.72868 0.20643 0.0
O307 O 0.23976 0.73804 0.22984 0.0
C308 C 0.33015 0.80069 0.20193 0.0
C309 C 0.19622 0.82959 0.23254 0.0
C310 C 0.20179 0.88461 0.2537 0.0
C311 C 0.17522 0.88098 0.23354 0.0
C312 C 0.16796 0.8242 0.21471 0.0
C313 C 0.15886 0.85065 0.21285 0.0
C314 C 0.21671 0.86133 0.24341 0.0
C315 C 0.31252 0.81834 0.30468 0.0
C316 C 0.20143 0.80358 0.24681 0.0
C317 C 0.29481 0.86887 0.12478 0.0
C318 C 0.3082 0.89344 0.15466 0.0
C319 C 0.24268 0.74149 0.30622 0.0
C320 C 0.39827 0.75807 0.20261 0.0
C321 C 0.41298 0.75737 0.13239 0.0
C322 C 0.436 0.78886 0.1385 0.0
C323 C 0.42056 0.7901 0.20858 0.0
C324 C 0.39547 0.74201 0.16462 0.0
C325 C 0.43962 0.8052 0.17661 0.0
C326 C 0.25637 0.72171 0.20578 0.0
C327 C 0.374 0.74231 0.23412 0.0
H328 H 0.16377 0.89935 0.23934 0.0
H329 H 0.15226 0.79991 0.20434 0.0
H330 H 0.13685 0.84687 0.19971 0.0
H331 H 0.23835 0.86539 0.25703 0.0
H332 H 0.45113 0.80048 0.11401 0.0
H333 H 0.42289 0.80357 0.23766 0.0
H334 H 0.37879 0.71714 0.16006 0.0
H335 H 0.45707 0.82968 0.18146 0.0
Eu336 Eu 0.26198 0.79221 0.76337 0.0
C337 C 0.36514 0.74236 0.65226 0.0
N338 N 0.33351 0.72645 0.66794 0.0
C339 C 0.32051 0.69652 0.60496 0.0
C340 C 0.37513 0.73695 0.61184 0.0
C341 C 0.312 0.7023 0.64526 0.0
C342 C 0.35202 0.71434 0.58805 0.0
C343 C 0.42182 0.77785 0.66214 0.0
C344 C 0.38834 0.76246 0.67701 0.0
C345 C 0.43145 0.77364 0.62176 0.0
C346 C 0.40817 0.75325 0.59667 0.0
Eu347 Eu 0.32193 0.73892 0.73657 0.0
N348 N 0.3783 0.76633 0.7159 0.0
C349 C 0.44473 0.79647 0.68845 0.0
C350 C 0.40068 0.78297 0.74184 0.0
C351 C 0.43418 0.79874 0.72852 0.0
H352 H 0.28861 0.68662 0.65807 0.0
H353 H 0.45179 0.81258 0.7491 0.0
H354 H 0.29122 0.84247 0.8434 0.0
H355 H 0.13946 0.69844 0.74578 0.0
H356 H 0.39248 0.78422 0.77277 0.0
H357 H 0.4707 0.8087 0.67817 0.0
H358 H 0.19569 0.73402 0.72348 0.0
H359 H 0.30303 0.6778 0.5871 0.0
H360 H 0.45702 0.78546 0.60971 0.0
H361 H 0.4162 0.74954 0.56567 0.0
H362 H 0.27303 0.85094 0.91383 0.0
H363 H 0.35873 0.70945 0.55688 0.0
H364 H 0.11729 0.7043 0.81555 0.0
N365 N 0.24677 0.80306 0.83089 0.0
C366 C 0.21521 0.78532 0.8447 0.0
C367 C 0.25663 0.83223 0.89479 0.0
C368 C 0.20357 0.78982 0.88475 0.0
C369 C 0.26707 0.82701 0.8549 0.0
C370 C 0.22485 0.81339 0.90986 0.0
N371 N 0.20698 0.75743 0.78036 0.0
C372 C 0.1872 0.73567 0.75415 0.0
C373 C 0.16234 0.74265 0.83271 0.0
C374 C 0.19486 0.76182 0.81883 0.0
C375 C 0.14247 0.71937 0.80609 0.0
C376 C 0.15492 0.71593 0.76667 0.0
H377 H 0.21684 0.81748 0.94082 0.0
H378 H 0.1619 0.77374 0.92918 0.0
H379 H 0.12566 0.73297 0.8837 0.0
O380 O 0.22684 0.80965 0.74535 0.0
O381 O 0.25952 0.75682 0.8038 0.0
O382 O 0.26859 0.71471 0.76131 0.0
O383 O 0.26903 0.84348 0.77356 0.0
O384 O 0.25675 0.75993 0.70485 0.0
O385 O 0.2711 0.71812 0.71545 0.0
O386 O 0.33865 0.72132 0.77993 0.0
O387 O 0.34285 0.78944 0.72108 0.0
O388 O 0.29754 0.79727 0.70641 0.0
O389 O 0.33382 0.69501 0.72042 0.0
O390 O 0.32569 0.7733 0.79419 0.0
O391 O 0.3136 0.81638 0.78216 0.0
C392 C 0.254 0.72565 0.7941 0.0
C393 C 0.25271 0.86076 0.72379 0.0
C394 C 0.23484 0.88183 0.67617 0.0
C395 C 0.2684 0.90088 0.66651 0.0
C396 C 0.28602 0.87973 0.71296 0.0
C397 C 0.29363 0.89979 0.68479 0.0
C398 C 0.22714 0.86189 0.70525 0.0
C399 C 0.2569 0.73025 0.69581 0.0
C400 C 0.24471 0.83996 0.75435 0.0
C401 C 0.17124 0.77066 0.8985 0.0
C402 C 0.15065 0.74731 0.87257 0.0
C403 C 0.32993 0.8033 0.70227 0.0
C404 C 0.35222 0.672 0.7638 0.0
C405 C 0.3859 0.6571 0.79881 0.0
C406 C 0.3771 0.62628 0.77624 0.0
C407 C 0.34355 0.64116 0.7414 0.0
C408 C 0.37295 0.67973 0.79295 0.0
C409 C 0.35583 0.61834 0.74784 0.0
C410 C 0.3292 0.80423 0.80005 0.0
C411 C 0.34169 0.69671 0.75472 0.0
H412 H 0.27522 0.91727 0.6453 0.0
H413 H 0.30631 0.87931 0.72636 0.0
H414 H 0.3192 0.91481 0.67731 0.0
H415 H 0.20144 0.84716 0.71328 0.0
H416 H 0.38643 0.60826 0.78089 0.0
H417 H 0.32751 0.6348 0.71874 0.0
H418 H 0.37999 0.70363 0.81004 0.0
H419 H 0.34908 0.59458 0.73058 0.0
Eu420 Eu 0.2804 0.24086 0.79253 0.0
C421 C 0.37795 0.30508 0.66001 0.0
N422 N 0.36532 0.31842 0.69475 0.0
C423 C 0.42014 0.35639 0.70488 0.0
C424 C 0.41258 0.31621 0.64734 0.0
C425 C 0.38564 0.34511 0.7158 0.0
C426 C 0.43375 0.34152 0.67086 0.0
C427 C 0.36828 0.26944 0.59821 0.0
C428 C 0.35609 0.28181 0.63555 0.0
C429 C 0.40281 0.27956 0.58638 0.0
C430 C 0.42489 0.30279 0.61091 0.0
Eu431 Eu 0.30634 0.297 0.70918 0.0
N432 N 0.32275 0.27184 0.64783 0.0
C433 C 0.3453 0.24774 0.57352 0.0
C434 C 0.30012 0.25181 0.62341 0.0
C435 C 0.31107 0.23914 0.58605 0.0
H436 H 0.37557 0.35864 0.74045 0.0
H437 H 0.29313 0.22284 0.56693 0.0
H438 H 0.20921 0.18254 0.76185 0.0
H439 H 0.30078 0.31725 0.93316 0.0
H440 H 0.27367 0.24556 0.63305 0.0
H441 H 0.35372 0.23786 0.54456 0.0
H442 H 0.31692 0.29546 0.86557 0.0
H443 H 0.43612 0.37708 0.72223 0.0
H444 H 0.41266 0.27008 0.55795 0.0
H445 H 0.45142 0.31095 0.60091 0.0
H446 H 0.15002 0.16084 0.78679 0.0
H447 H 0.46045 0.35074 0.66213 0.0
H448 H 0.24202 0.29639 0.96292 0.0
N449 N 0.22236 0.21823 0.81178 0.0
C450 C 0.21203 0.22878 0.84926 0.0
C451 C 0.16707 0.18028 0.80443 0.0
C452 C 0.17831 0.21593 0.86522 0.0
C453 C 0.20074 0.19336 0.78996 0.0
C454 C 0.15572 0.19181 0.84207 0.0
N455 N 0.26755 0.26504 0.85604 0.0
C456 C 0.29105 0.2875 0.87761 0.0
C457 C 0.22508 0.26333 0.91107 0.0
C458 C 0.23526 0.25231 0.87211 0.0
C459 C 0.24891 0.28723 0.93298 0.0
C460 C 0.28205 0.29927 0.9162 0.0
H461 H 0.12965 0.18136 0.8533 0.0
H462 H 0.14238 0.21754 0.91649 0.0
H463 H 0.18322 0.25901 0.9565 0.0
O464 O 0.30025 0.22699 0.83629 0.0
O465 O 0.25359 0.27851 0.80267 0.0
O466 O 0.28145 0.31934 0.7643 0.0
O467 O 0.26978 0.18967 0.79457 0.0
O468 O 0.33153 0.28007 0.79189 0.0
O469 O 0.32634 0.32146 0.76724 0.0
O470 O 0.27255 0.30487 0.67669 0.0
O471 O 0.31586 0.24856 0.69433 0.0
O472 O 0.32845 0.2434 0.75181 0.0
O473 O 0.32211 0.34008 0.68134 0.0
O474 O 0.25372 0.26151 0.71884 0.0
O475 O 0.26024 0.21758 0.73425 0.0
C476 C 0.25846 0.30696 0.79264 0.0
C477 C 0.28938 0.17115 0.84251 0.0
C478 C 0.32092 0.15192 0.87618 0.0
C479 C 0.29367 0.12282 0.878 0.0
C480 C 0.26259 0.14185 0.84442 0.0
C481 C 0.26467 0.11794 0.86241 0.0
C482 C 0.31847 0.1764 0.85901 0.0
C483 C 0.33942 0.31086 0.79008 0.0
C484 C 0.28617 0.19635 0.82446 0.0
C485 C 0.16819 0.22713 0.90387 0.0
C486 C 0.19148 0.25066 0.92673 0.0
C487 C 0.33078 0.23681 0.71366 0.0
C488 C 0.27922 0.35925 0.67807 0.0
C489 C 0.24155 0.38239 0.66286 0.0
C490 C 0.25092 0.40771 0.69367 0.0
C491 C 0.28854 0.38471 0.7089 0.0
C492 C 0.25584 0.35829 0.65495 0.0
C493 C 0.27443 0.40886 0.71654 0.0
C494 C 0.24622 0.2302 0.71487 0.0
C495 C 0.2932 0.33328 0.66981 0.0
H496 H 0.29493 0.10377 0.89143 0.0
H497 H 0.23984 0.13763 0.83247 0.0
H498 H 0.24381 0.09548 0.86408 0.0
H499 H 0.33937 0.19892 0.85749 0.0
H500 H 0.24013 0.42659 0.69989 0.0
H501 H 0.30639 0.38577 0.72731 0.0
H502 H 0.24868 0.33881 0.63098 0.0
H503 H 0.28154 0.42837 0.74038 0.0
Eu504 Eu 0.75586 0.28719 0.75606 0.0
C505 C 0.80461 0.20829 0.83693 0.0
N506 N 0.81849 0.23966 0.8309 0.0
C507 C 0.82543 0.25676 0.89865 0.0
C508 C 0.79846 0.20019 0.87485 0.0
C509 C 0.83059 0.26367 0.86064 0.0
C510 C 0.80869 0.22496 0.90593 0.0
C511 C 0.7823 0.15154 0.81046 0.0
C512 C 0.79678 0.1843 0.80497 0.0
C513 C 0.77464 0.14347 0.84837 0.0
C514 C 0.78277 0.16772 0.88047 0.0
Eu515 Eu 0.82353 0.24922 0.7661 0.0
N516 N 0.8045 0.19282 0.76856 0.0
C517 C 0.77666 0.12779 0.77762 0.0
C518 C 0.80166 0.16964 0.73646 0.0
C519 C 0.787 0.13686 0.74047 0.0
H520 H 0.8435 0.28822 0.8551 0.0
H521 H 0.78376 0.11861 0.7149 0.0
H522 H 0.71071 0.25092 0.68091 0.0
H523 H 0.80394 0.41697 0.81173 0.0
H524 H 0.81019 0.17632 0.70757 0.0
H525 H 0.76538 0.10238 0.78061 0.0
H526 H 0.7809 0.35946 0.81785 0.0
H527 H 0.83426 0.27596 0.92229 0.0
H528 H 0.76321 0.11845 0.8531 0.0
H529 H 0.77737 0.16105 0.90944 0.0
H530 H 0.70383 0.26505 0.61949 0.0
H531 H 0.80451 0.21969 0.93546 0.0
H532 H 0.8059 0.4348 0.74929 0.0
N533 N 0.74265 0.29835 0.70011 0.0
C534 C 0.75559 0.32985 0.69465 0.0
C535 C 0.71877 0.28343 0.64016 0.0
C536 C 0.75229 0.33907 0.66018 0.0
C537 C 0.72282 0.27547 0.67476 0.0
C538 C 0.7342 0.31524 0.63243 0.0
N539 N 0.77148 0.3438 0.75846 0.0
C540 C 0.78216 0.36634 0.78999 0.0
C541 C 0.78305 0.3862 0.72011 0.0
C542 C 0.7705 0.35321 0.72455 0.0
C543 C 0.79596 0.40924 0.75158 0.0
C544 C 0.79495 0.39927 0.78685 0.0
H545 H 0.73107 0.32135 0.60558 0.0
H546 H 0.76447 0.37921 0.6284 0.0
H547 H 0.79168 0.42042 0.68073 0.0
O548 O 0.7143 0.30342 0.78269 0.0
O549 O 0.80641 0.30897 0.72282 0.0
O550 O 0.83468 0.27233 0.70964 0.0
O551 O 0.70539 0.25229 0.76661 0.0
O552 O 0.78503 0.30841 0.80971 0.0
O553 O 0.83269 0.3019 0.77822 0.0
O554 O 0.86611 0.23339 0.7443 0.0
O555 O 0.78216 0.2509 0.81505 0.0
O556 O 0.74502 0.23871 0.77387 0.0
O557 O 0.87268 0.2798 0.78266 0.0
O558 O 0.78806 0.2199 0.71982 0.0
O559 O 0.76479 0.25334 0.70179 0.0
C560 C 0.83115 0.29932 0.70441 0.0
C561 C 0.68263 0.2695 0.82848 0.0
C562 C 0.69365 0.29249 0.89477 0.0
C563 C 0.66052 0.27433 0.9081 0.0
C564 C 0.64955 0.25195 0.84133 0.0
C565 C 0.63895 0.25333 0.88142 0.0
C566 C 0.70518 0.28582 0.85563 0.0
C567 C 0.81763 0.31608 0.80708 0.0
C568 C 0.69425 0.27421 0.78773 0.0
C569 C 0.76625 0.37174 0.65499 0.0
C570 C 0.7817 0.39523 0.68482 0.0
C571 C 0.75165 0.23644 0.80728 0.0
C572 C 0.92214 0.26572 0.76024 0.0
C573 C 0.96811 0.27194 0.70907 0.0
C574 C 0.98873 0.29814 0.73222 0.0
C575 C 0.94239 0.292 0.78406 0.0
C576 C 0.93654 0.25356 0.72517 0.0
C577 C 0.97609 0.30732 0.77052 0.0
C578 C 0.7701 0.22582 0.69755 0.0
C579 C 0.8865 0.25967 0.76223 0.0
H580 H 0.65035 0.27835 0.93831 0.0
H581 H 0.63196 0.23814 0.82068 0.0
H582 H 0.61329 0.24013 0.89167 0.0
H583 H 0.73088 0.29838 0.84555 0.0
H584 H 1.01362 0.31205 0.72032 0.0
H585 H 0.93167 0.30216 0.81148 0.0
H586 H 0.92099 0.2331 0.70688 0.0
H587 H 0.99151 0.32797 0.78847 0.0
Eu588 Eu 0.76096 0.75315 0.71338 0.0
C589 C 0.83968 0.85547 0.84291 0.0
N590 N 0.85205 0.84002 0.80982 0.0
C591 C 0.89756 0.88901 0.79908 0.0
C592 C 0.85578 0.88871 0.85506 0.0
C593 C 0.88091 0.856 0.78832 0.0
C594 C 0.88489 0.90548 0.8325 0.0
C595 C 0.79737 0.85342 0.89914 0.0
C596 C 0.81075 0.83801 0.86479 0.0
C597 C 0.81335 0.88654 0.91122 0.0
C598 C 0.84243 0.90411 0.88925 0.0
Eu599 Eu 0.82178 0.78452 0.79441 0.0
N600 N 0.79518 0.80613 0.85181 0.0
C601 C 0.7683 0.83505 0.92034 0.0
C602 C 0.76763 0.78783 0.87307 0.0
C603 C 0.75354 0.80207 0.9074 0.0
H604 H 0.8915 0.84318 0.76329 0.0
H605 H 0.73142 0.78757 0.92397 0.0
H606 H 0.69415 0.68899 0.73542 0.0
H607 H 0.85708 0.76527 0.58695 0.0
H608 H 0.75658 0.7623 0.86373 0.0
H609 H 0.75726 0.84601 0.94691 0.0
H610 H 0.8269 0.78448 0.64707 0.0
H611 H 0.92032 0.90166 0.78181 0.0
H612 H 0.80341 0.89879 0.93754 0.0
H613 H 0.85447 0.92964 0.89903 0.0
H614 H 0.66975 0.63098 0.71009 0.0
H615 H 0.89795 0.93104 0.84084 0.0
H616 H 0.83714 0.70749 0.5586 0.0
N617 N 0.73536 0.69785 0.69111 0.0
C618 C 0.75041 0.68577 0.65741 0.0
C619 C 0.69258 0.64605 0.69517 0.0
C620 C 0.73717 0.65289 0.64159 0.0
C621 C 0.70665 0.67877 0.7098 0.0
C622 C 0.70797 0.633 0.66101 0.0
N623 N 0.79195 0.73786 0.65511 0.0
C624 C 0.81878 0.75911 0.63623 0.0
C625 C 0.79546 0.69434 0.60386 0.0
C626 C 0.77935 0.70632 0.6388 0.0
C627 C 0.8241 0.71574 0.58552 0.0
C628 C 0.83556 0.74834 0.60156 0.0
H629 H 0.69698 0.60763 0.64972 0.0
H630 H 0.74356 0.6157 0.59446 0.0
H631 H 0.79451 0.65194 0.56145 0.0
O632 O 0.75475 0.78362 0.67661 0.0
O633 O 0.79337 0.72281 0.71527 0.0
O634 O 0.84178 0.75959 0.73722 0.0
O635 O 0.71349 0.74088 0.69112 0.0
O636 O 0.7998 0.80366 0.71622 0.0
O637 O 0.84441 0.79757 0.73498 0.0
O638 O 0.82697 0.75403 0.83192 0.0
O639 O 0.78739 0.8134 0.79473 0.0
O640 O 0.73977 0.77649 0.7709 0.0
O641 O 0.86855 0.79678 0.81812 0.0
O642 O 0.78105 0.7351 0.79581 0.0
O643 O 0.73627 0.73687 0.77135 0.0
C644 C 0.82564 0.73159 0.71741 0.0
C645 C 0.70117 0.78698 0.68794 0.0
C646 C 0.67958 0.82593 0.67397 0.0
C647 C 0.66254 0.82679 0.71203 0.0
C648 C 0.68394 0.78822 0.72574 0.0
C649 C 0.66479 0.80807 0.73765 0.0
C650 C 0.69896 0.80587 0.66213 0.0
C651 C 0.83196 0.81275 0.7176 0.0
C652 C 0.72291 0.76748 0.6761 0.0
C653 C 0.75337 0.64091 0.607 0.0
C654 C 0.7824 0.66155 0.58821 0.0
C655 C 0.7553 0.80428 0.79143 0.0
C656 C 0.88078 0.75171 0.82492 0.0
C657 C 0.90438 0.71704 0.84474 0.0
C658 C 0.92044 0.71278 0.80672 0.0
C659 C 0.89734 0.74769 0.78711 0.0
C660 C 0.88461 0.73659 0.85383 0.0
C661 C 0.91708 0.72827 0.77811 0.0
C662 C 0.7488 0.72564 0.79409 0.0
C663 C 0.85855 0.7706 0.83404 0.0
H664 H 0.64697 0.84155 0.72183 0.0
H665 H 0.68528 0.77388 0.74613 0.0
H666 H 0.65152 0.8088 0.76678 0.0
H667 H 0.7127 0.80529 0.63317 0.0
H668 H 0.93582 0.69772 0.79936 0.0
H669 H 0.89497 0.75953 0.76461 0.0
H670 H 0.87188 0.73961 0.88308 0.0
H671 H 0.92977 0.72523 0.74893 0.0
Co672 Co 0.07265 0.96588 0.49934 0.0
Co673 Co 0.06791 1.0007 0.56628 0.0
Co674 Co 1.03507 1.02113 0.51248 0.0
O675 O 0.07128 1.00735 0.51574 0.0
H676 H 0.09254 0.02392 0.50972 0.0
O677 O 0.99883 0.03603 0.51066 0.0
Co678 Co 1.00461 0.08058 0.52548 0.0
Co679 Co 1.00141 0.04099 0.45939 0.0
H680 H 0.97706 1.02154 0.5196 0.0
O681 O 0.10403 1.00335 0.58675 0.0
O682 O 0.068 0.95874 0.55525 0.0
O683 O 1.02933 1.0028 0.60152 0.0
O684 O 1.00264 0.99228 0.55021 0.0
O685 O 0.05116 0.05601 0.55599 0.0
O686 O 1.00566 0.11998 0.53878 0.0
O687 O 0.96052 0.07423 0.53178 0.0
O688 O 0.05284 0.09408 0.52448 0.0
O689 O 0.06778 0.04984 0.47356 0.0
O690 O 0.03953 0.03854 0.42336 0.0
O691 O 1.00674 0.08419 0.46925 0.0
O692 O 0.96527 0.04196 0.44166 0.0
C693 C 0.11065 0.9497 0.48534 0.0
C694 C 1.01057 0.9558 0.47189 0.0
C695 C 1.00244 0.99153 0.58624 0.0
C696 C 0.09311 0.97221 0.57611 0.0
C697 C 0.97363 0.10559 0.53918 0.0
C698 C 0.06337 0.08527 0.55029 0.0
C699 C 0.06677 0.05143 0.43801 0.0
C700 C 0.98013 0.07283 0.45111 0.0
O701 O 0.08045 0.92895 0.48281 0.0
O702 O 0.11585 0.97991 0.49858 0.0
O703 O 1.01881 0.98564 0.46931 0.0
O704 O 1.02445 0.94639 0.49409 0.0
Co705 Co 0.5787 0.96421 0.96211 0.0
Co706 Co 0.57609 0.98629 0.03414 0.0
Co707 Co 0.5376 1.02137 1.0037 0.0
O708 O 0.57694 1.00531 0.99297 0.0
H709 H 0.59805 0.02271 0.98946 0.0
O710 O 0.49844 0.03792 0.01455 0.0
Co711 Co 0.49793 0.07944 0.04658 0.0
Co712 Co 0.49867 0.05711 0.97287 0.0
H713 H 0.47725 1.02074 0.01864 0.0
O714 O 0.61441 0.98974 0.04816 0.0
O715 O 0.58003 0.94738 0.01058 0.0
O716 O 0.53799 0.97698 0.07237 0.0
O717 O 0.50698 0.98734 0.03713 0.0
O718 O 0.55735 0.05172 0.04949 0.0
O719 O 0.49403 0.11586 0.07631 0.0
O720 O 0.45186 0.07132 0.05744 0.0
O721 O 0.54536 0.09435 0.0422 0.0
O722 O 0.56785 0.05527 0.97006 0.0
O723 O 0.53674 0.06499 0.93414 0.0
O724 O 0.49885 0.09722 0.99886 0.0
O725 O 0.46034 0.05973 0.96224 0.0
C726 C 0.61542 0.944 0.93206 0.0
C727 C 0.51295 0.96009 0.95312 0.0
C728 C 0.50977 0.9741 0.06443 0.0
C729 C 0.60387 0.95926 0.03344 0.0
C730 C 0.46202 0.10092 0.0763 0.0
C731 C 0.56292 0.08211 0.05492 0.0
C732 C 0.56503 0.06794 0.94218 0.0
C733 C 0.47289 0.08892 0.98027 0.0
O734 O 0.58359 0.92795 0.93216 0.0
O735 O 0.62478 0.97348 0.95127 0.0
O736 O 0.51828 0.99052 0.95791 0.0
O737 O 0.53076 0.94854 0.96687 0.0
Co738 Co 0.07227 0.45939 0.9636 0.0
Co739 Co 0.07195 0.48161 0.03768 0.0
Co740 Co 1.0373 0.52047 0.00678 0.0
O741 O 0.07373 0.50106 0.99542 0.0
H742 H 0.09555 0.51739 0.99133 0.0
O743 O 1.00089 0.53979 0.01904 0.0
Co744 Co 1.00407 0.58269 0.04789 0.0
Co745 Co 1.00038 0.55592 0.97561 0.0
H746 H 0.97918 0.52391 0.02518 0.0
O747 O 0.11015 0.47954 0.04882 0.0
O748 O 0.07194 0.44186 0.01159 0.0
O749 O 1.03314 0.4733 0.07635 0.0
O750 O 1.00527 0.48794 0.04128 0.0
O751 O 0.05933 0.55063 0.05138 0.0
O752 O 1.00247 0.62122 0.07486 0.0
O753 O 0.95891 0.57631 0.06025 0.0
O754 O 0.0525 0.59541 0.04204 0.0
O755 O 0.06866 0.55316 0.97178 0.0
O756 O 1.03672 0.55979 0.93445 0.0
O757 O 1.00391 0.59749 0.99816 0.0
O758 O 0.9624 0.55924 0.96582 0.0
C759 C 0.10738 0.43702 0.93343 0.0
C760 C 1.0059 0.45966 0.95895 0.0
C761 C 1.00605 0.47392 0.06888 0.0
C762 C 0.09805 0.45051 0.03022 0.0
C763 C 0.97025 0.60651 0.07665 0.0
C764 C 0.06948 0.58142 0.05325 0.0
C765 C 0.06538 0.56403 0.94253 0.0
C766 C 0.97739 0.58907 0.98039 0.0
O767 O 0.07523 0.42242 0.93363 0.0
O768 O 0.11795 0.46655 0.95225 0.0
O769 O 1.01533 0.49048 0.96201 0.0
O770 O 1.0237 0.4457 0.96853 0.0
Co771 Co 0.57358 0.46663 0.99239 0.0
Co772 Co 0.56505 0.49726 0.06113 0.0
Co773 Co 0.53631 0.5214 0.00954 0.0
O774 O 0.57318 0.50833 0.01246 0.0
H775 H 0.59468 0.52526 0.00906 0.0
O776 O 0.49893 0.53372 0.0062 0.0
Co777 Co 0.49288 0.57073 0.03538 0.0
Co778 Co 0.5045 0.55146 0.96295 0.0
H779 H 0.47845 0.51524 1.00603 0.0
O780 O 0.59849 0.49829 0.08396 0.0
O781 O 0.56432 0.45541 0.04699 0.0
O782 O 0.52466 0.49746 0.09465 0.0
O783 O 0.50209 0.48729 0.04055 0.0
O784 O 0.54776 0.55228 0.05852 0.0
O785 O 0.4815 0.60267 0.06368 0.0
O786 O 0.4488 0.55445 0.03502 0.0
O787 O 0.53972 0.59254 0.04035 0.0
O788 O 0.57063 0.55557 0.9788 0.0
O789 O 0.54639 0.55909 0.93053 0.0
O790 O 0.49868 0.58976 0.98645 0.0
O791 O 0.46883 0.55012 0.94271 0.0
C792 C 0.60976 0.44742 0.97963 0.0
C793 C 0.51559 0.4603 0.9612 0.0
C794 C 0.49927 0.48511 0.07661 0.0
C795 C 0.58603 0.46733 0.07235 0.0
C796 C 0.45208 0.58226 0.05643 0.0
C797 C 0.55466 0.58244 0.0599 0.0
C798 C 0.57227 0.56403 0.94585 0.0
C799 C 0.47715 0.57956 0.96116 0.0
O800 O 0.57918 0.42977 0.97358 0.0
O801 O 0.61715 0.47778 0.99438 0.0
O802 O 0.52541 0.49061 0.96088 0.0
O803 O 0.52659 0.44939 0.98459 0.0
Co804 Co 0.09527 0.48691 0.50956 0.0
Co805 Co 0.08615 0.48537 0.44287 0.0
Co806 Co 1.03818 0.52025 0.50605 0.0
O807 O 0.05715 0.48419 0.48748 0.0
H808 H 0.03987 0.46312 0.48736 0.0
O809 O 1.01846 0.55586 0.52505 0.0
Co810 Co 0.97969 0.55222 0.50297 0.0
Co811 Co 0.98799 0.55256 0.56963 0.0
H812 H 1.03536 0.57716 0.52569 0.0
O813 O 0.08733 0.44813 0.41047 0.0
O814 O 0.12077 0.47642 0.45723 0.0
O815 O 0.10047 0.52547 0.42375 0.0
O816 O 0.06768 0.54913 0.46539 0.0
O817 O 1.00412 0.49714 0.46979 0.0
O818 O 0.94653 0.55139 0.48064 0.0
O819 O 0.99293 0.59386 0.49459 0.0
O820 O 0.96131 0.50758 0.50673 0.0
O821 O 1.00919 0.49115 0.54632 0.0
O822 O 0.97244 0.51079 0.5866 0.0
O823 O 0.95407 0.56297 0.55565 0.0
O824 O 0.98625 0.58894 0.60414 0.0
C825 C 0.10872 0.45696 0.53348 0.0
C826 C 0.10351 0.55102 0.53063 0.0
C827 C 0.09068 0.5494 0.43637 0.0
C828 C 0.113 0.4529 0.42789 0.0
C829 C 0.96454 0.58163 0.47993 0.0
C830 C 0.97292 0.48893 0.48103 0.0
C831 C 0.98492 0.48867 0.57398 0.0
C832 C 0.96139 0.58555 0.58609 0.0
O833 O 0.1276 0.48696 0.5326 0.0
O834 O 0.08122 0.445 0.51706 0.0
O835 O 0.0724 0.54358 0.54218 0.0
O836 O 0.11456 0.53141 0.50603 0.0
Co837 Co 0.59561 0.98564 0.50892 0.0
Co838 Co 0.58469 0.98386 0.442 0.0
Co839 Co 0.53845 1.02086 0.50509 0.0
O840 O 0.55658 0.98392 0.48855 0.0
H841 H 0.53887 0.96317 0.48932 0.0
O842 O 0.52099 0.05794 0.52111 0.0
Co843 Co 0.48231 0.05718 0.50163 0.0
Co844 Co 0.49626 0.06136 0.56913 0.0
H845 H 0.53905 0.07831 0.51898 0.0
O846 O 0.58506 0.94514 0.4111 0.0
O847 O 0.61961 0.97508 0.45562 0.0
O848 O 0.60186 0.02455 0.42278 0.0
O849 O 0.56843 0.04773 0.46382 0.0
O850 O 0.50315 0.99681 0.46883 0.0
O851 O 0.44899 0.06003 0.48216 0.0
O852 O 0.49775 0.09924 0.49597 0.0
O853 O 0.46202 1.01226 0.50318 0.0
O854 O 0.50781 0.99449 0.54674 0.0
O855 O 0.48165 0.02268 0.59223 0.0
O856 O 0.45933 0.06704 0.55565 0.0
O857 O 0.49552 0.10165 0.59612 0.0
C858 C 0.61016 0.95416 0.52886 0.0
C859 C 0.60505 0.04986 0.53238 0.0
C860 C 0.59189 0.04833 0.43566 0.0
C861 C 0.611 0.95018 0.42811 0.0
C862 C 0.46906 0.08983 0.48261 0.0
C863 C 0.47193 0.9926 0.47712 0.0
C864 C 0.48761 0.99677 0.57794 0.0
C865 C 0.4682 0.09367 0.58055 0.0
O866 O 0.62913 0.9843 0.5293 0.0
O867 O 0.58126 0.94372 0.5156 0.0
O868 O 0.57373 0.04488 0.54141 0.0
O869 O 0.61506 0.0304 0.50614 0.0
C870 C 0.2103 0.20581 0.35944 0.0
C871 C 0.22196 0.19961 0.31986 0.0
C872 C 0.18711 0.18102 0.37946 0.0
C873 C 0.17477 0.14916 0.35934 0.0
C874 C 0.1869 0.14261 0.31954 0.0
C875 C 0.21046 0.16781 0.30042 0.0
C876 C 0.17483 0.18927 0.42179 0.0
C877 C 0.17437 0.1091 0.29684 0.0
C878 C 0.12828 0.08039 0.41988 0.0
C879 C 0.09491 0.07514 0.41681 0.0
C880 C 0.15463 0.10385 0.4006 0.0
C881 C 0.14737 0.12335 0.37905 0.0
C882 C 0.11363 0.11851 0.37664 0.0
C883 C 0.08794 0.09423 0.39498 0.0
C884 C 0.19022 0.10781 0.40331 0.0
C885 C 0.10459 0.13942 0.35527 0.0
H886 H 0.2184 0.23028 0.37462 0.0
H887 H 0.21975 0.16258 0.27007 0.0
H888 H 0.14803 0.1864 0.42474 0.0
H889 H 0.1769 0.17249 0.43945 0.0
H890 H 0.18899 0.21444 0.43412 0.0
H891 H 0.18795 0.10745 0.26697 0.0
H892 H 0.17697 0.09125 0.3124 0.0
H893 H 0.14742 0.10219 0.29441 0.0
H894 H 0.13374 0.06589 0.43697 0.0
H895 H 0.06217 0.09088 0.39326 0.0
H896 H 0.20324 0.13241 0.41811 0.0
H897 H 0.20383 0.10523 0.37363 0.0
H898 H 0.19171 0.0898 0.41958 0.0
H899 H 0.1154 0.1652 0.36793 0.0
H900 H 0.07714 0.13295 0.3567 0.0
H901 H 0.11533 0.1371 0.3242 0.0
C902 C 0.90313 0.18337 0.37629 0.0
C903 C 0.89388 0.16403 0.34102 0.0
C904 C 0.91323 0.17139 0.40372 0.0
C905 C 0.91423 0.13965 0.39503 0.0
C906 C 0.9016 0.11916 0.36111 0.0
C907 C 0.89175 0.13176 0.33431 0.0
C908 C 0.92495 0.1934 0.44047 0.0
C909 C 0.90087 0.08468 0.35158 0.0
C910 C 0.98334 0.11771 0.4185 0.0
C911 C 0.96519 0.09461 0.44286 0.0
C912 C 0.96741 0.13472 0.40495 0.0
C913 C 0.93296 0.12906 0.41732 0.0
C914 C 0.91563 0.10827 0.44534 0.0
C915 C 0.93168 0.09031 0.45672 0.0
C916 C 0.98668 0.1565 0.37476 0.0
C917 C 0.87965 0.1032 0.46147 0.0
H918 H 0.90426 0.2083 0.38139 0.0
H919 H 0.8839 0.11686 0.30715 0.0
H920 H 0.95242 0.20551 0.43565 0.0
H921 H 0.91347 0.21247 0.44847 0.0
H922 H 0.91902 0.17966 0.46526 0.0
H923 H 0.88862 0.07158 0.32509 0.0
H924 H 0.92676 0.08441 0.34682 0.0
H925 H 0.88728 0.07132 0.37631 0.0
H926 H 1.0093 0.12082 0.40801 0.0
H927 H 0.91794 0.07267 0.4762 0.0
H928 H 0.98372 0.18046 0.38344 0.0
H929 H 0.97658 0.14577 0.34648 0.0
H930 H 1.01374 0.16005 0.37038 0.0
H931 H 0.87464 0.09799 0.49191 0.0
H932 H 0.86318 0.08207 0.4437 0.0
H933 H 0.87293 0.12459 0.46101 0.0
C934 C 0.87006 0.87075 0.32572 0.0
C935 C 0.85905 0.83687 0.32169 0.0
C936 C 0.89442 0.89034 0.35047 0.0
C937 C 0.90794 0.87582 0.37222 0.0
C938 C 0.89649 0.84168 0.3687 0.0
C939 C 0.87252 0.82278 0.34352 0.0
C940 C 0.90576 0.92661 0.35328 0.0
C941 C 0.90969 0.82499 0.39151 0.0
C942 C 0.99327 0.92229 0.40858 0.0
C943 C 0.98447 0.93243 0.448 0.0
C944 C 0.96872 0.90415 0.38362 0.0
C945 C 0.93434 0.89603 0.39828 0.0
C946 C 0.92536 0.9064 0.43812 0.0
C947 C 0.95049 0.92464 0.46234 0.0
C948 C 0.97956 0.89398 0.34138 0.0
C949 C 0.88915 0.89844 0.45513 0.0
H950 H 0.85966 0.88205 0.30956 0.0
H951 H 0.86426 0.7967 0.34111 0.0
H952 H 0.9007 0.93747 0.38386 0.0
H953 H 0.93313 0.93656 0.34471 0.0
H954 H 0.89308 0.9342 0.3344 0.0
H955 H 0.89777 0.79826 0.3862 0.0
H956 H 0.93706 0.83136 0.38351 0.0
H957 H 0.9053 0.83338 0.42317 0.0
H958 H 1.0195 0.9292 0.39705 0.0
H959 H 0.94352 0.93348 0.49227 0.0
H960 H 0.96885 0.90344 0.32232 0.0
H961 H 0.96992 0.86723 0.33442 0.0
H962 H 1.00717 0.90275 0.33423 0.0
H963 H 0.87581 0.90678 0.43794 0.0
H964 H 0.88621 0.9097 0.48601 0.0
H965 H 0.87682 0.87186 0.45352 0.0
C966 C 0.16847 0.87747 0.31713 0.0
C967 C 0.19869 0.89424 0.29627 0.0
C968 C 0.16541 0.87861 0.35719 0.0
C969 C 0.1927 0.89897 0.37747 0.0
C970 C 0.22466 0.91112 0.35638 0.0
C971 C 0.22726 0.9094 0.31582 0.0
C972 C 0.1324 0.8589 0.37749 0.0
C973 C 0.2556 0.92776 0.37669 0.0
C974 C 0.15952 0.95946 0.43806 0.0
C975 C 0.13923 0.94114 0.46649 0.0
C976 C 0.18156 0.94809 0.41104 0.0
C977 C 0.18426 0.91818 0.4142 0.0
C978 C 0.16847 0.90311 0.44779 0.0
C979 C 0.14469 0.91408 0.473 0.0
C980 C 0.1974 0.96585 0.37623 0.0
C981 C 0.17365 0.8736 0.45512 0.0
H982 H 0.14734 0.86214 0.30177 0.0
H983 H 0.25154 0.91929 0.29938 0.0
H984 H 0.13654 0.84216 0.39342 0.0
H985 H 0.12084 0.87478 0.39852 0.0
H986 H 0.11423 0.84395 0.35673 0.0
H987 H 0.27176 0.91273 0.36874 0.0
H988 H 0.27025 0.95139 0.36651 0.0
H989 H 0.24987 0.93147 0.40893 0.0
H990 H 0.15533 0.9809 0.43414 0.0
H991 H 0.12958 0.90085 0.4964 0.0
H992 H 0.19204 0.98852 0.37897 0.0
H993 H 0.18776 0.95032 0.34929 0.0
H994 H 0.22488 0.97245 0.37279 0.0
H995 H 0.14944 0.85328 0.45713 0.0
H996 H 0.18278 0.87873 0.48378 0.0
H997 H 0.19196 0.86615 0.43263 0.0
C998 C 0.17865 0.88692 0.67839 0.0
C999 C 0.2084 0.88445 0.6568 0.0
C1000 C 0.15666 0.89549 0.66175 0.0
C1001 C 0.16473 0.90203 0.62276 0.0
C1002 C 0.19354 0.89731 0.60014 0.0
C1003 C 0.21462 0.8881 0.61724 0.0
C1004 C 0.12629 0.90032 0.68696 0.0
C1005 C 0.20427 0.90425 0.55875 0.0
C1006 C 0.10039 0.91931 0.57819 0.0
C1007 C 0.1114 0.95321 0.58591 0.0
C1008 C 0.11789 0.90209 0.58903 0.0
C1009 C 0.14661 0.91917 0.60847 0.0
C1010 C 0.15846 0.95333 0.61476 0.0
C1011 C 0.14081 0.96981 0.60345 0.0
C1012 C 0.10593 0.86575 0.57952 0.0
C1013 C 0.18997 0.97266 0.63343 0.0
H1014 H 0.17354 0.88418 0.70897 0.0
H1015 H 0.23704 0.88534 0.59989 0.0
H1016 H 0.12996 0.9265 0.69313 0.0
H1017 H 0.10386 0.888 0.67147 0.0
H1018 H 0.12151 0.89104 0.71513 0.0
H1019 H 0.20861 0.88288 0.53992 0.0
H1020 H 0.18599 0.91044 0.54672 0.0
H1021 H 0.2285 0.9246 0.55735 0.0
H1022 H 0.07814 0.90629 0.56387 0.0
H1023 H 0.15021 0.99599 0.60868 0.0
H1024 H 0.09754 0.85495 0.60689 0.0
H1025 H 0.12682 0.85787 0.56361 0.0
H1026 H 0.08498 0.8562 0.56146 0.0
H1027 H 0.18788 0.96561 0.66241 0.0
H1028 H 0.19534 0.99912 0.63719 0.0
H1029 H 0.21155 0.96737 0.61509 0.0
C1030 C 0.19459 0.21889 0.68465 0.0
C1031 C 0.22053 0.20901 0.6893 0.0
C1032 C 0.16989 0.19934 0.66067 0.0
C1033 C 0.17165 0.16954 0.63971 0.0
C1034 C 0.19839 0.15985 0.6435 0.0
C1035 C 0.22218 0.17945 0.66875 0.0
C1036 C 0.14137 0.21022 0.65862 0.0
C1037 C 0.20187 0.12878 0.62087 0.0
C1038 C 0.09082 0.1037 0.61107 0.0
C1039 C 0.0909 0.10778 0.57268 0.0
C1040 C 0.1168 0.12365 0.63307 0.0
C1041 C 0.14434 0.14773 0.61593 0.0
C1042 C 0.14497 0.15153 0.57677 0.0
C1043 C 0.11794 0.13188 0.55582 0.0
C1044 C 0.11448 0.1192 0.67492 0.0
C1045 C 0.17437 0.17608 0.5569 0.0
H1046 H 0.19314 0.2417 0.70057 0.0
H1047 H 0.24247 0.17195 0.67183 0.0
H1048 H 0.14028 0.21193 0.62804 0.0
H1049 H 0.11733 0.19211 0.66885 0.0
H1050 H 0.14365 0.23405 0.67663 0.0
H1051 H 0.22558 0.12613 0.62433 0.0
H1052 H 0.18073 0.10783 0.63089 0.0
H1053 H 0.20094 0.12783 0.58943 0.0
H1054 H 0.07001 0.08505 0.62423 0.0
H1055 H 0.11842 0.13472 0.52592 0.0
H1056 H 0.11581 0.14218 0.69447 0.0
H1057 H 0.13588 0.11286 0.67892 0.0
H1058 H 0.09098 0.09996 0.68422 0.0
H1059 H 0.17621 0.20083 0.57145 0.0
H1060 H 0.17234 0.17429 0.52554 0.0
H1061 H 0.19791 0.17273 0.55946 0.0
C1062 C 0.9966 0.24639 0.65349 0.0
C1063 C 0.9758 0.26443 0.66686 0.0
C1064 C 0.98953 0.22216 0.62137 0.0
C1065 C 0.96063 0.21601 0.60339 0.0
C1066 C 0.94282 0.23754 0.61308 0.0
C1067 C 0.95174 0.26272 0.64392 0.0
C1068 C 1.01025 0.20048 0.61037 0.0
C1069 C 0.91137 0.23112 0.59553 0.0
C1070 C 0.96482 0.15159 0.52367 0.0
C1071 C 0.95361 0.12605 0.54551 0.0
C1072 C 0.96113 0.18105 0.53993 0.0
C1073 C 0.94705 0.18463 0.57908 0.0
C1074 C 0.92945 0.15705 0.59797 0.0
C1075 C 0.933 0.12751 0.58062 0.0
C1076 C 0.97833 0.20965 0.51827 0.0
C1077 C 0.91242 0.15991 0.63921 0.0
H1078 H 1.0153 0.24809 0.67115 0.0
H1079 H 0.93578 0.27709 0.65456 0.0
H1080 H 0.99568 0.17662 0.61995 0.0
H1081 H 1.01681 0.19643 0.57832 0.0
H1082 H 1.03373 0.21083 0.62416 0.0
H1083 H 0.90732 0.25386 0.59502 0.0
H1084 H 0.91166 0.21768 0.56552 0.0
H1085 H 0.88958 0.21642 0.61384 0.0
H1086 H 0.98097 0.15031 0.49652 0.0
H1087 H 0.92417 0.10743 0.59712 0.0
H1088 H 1.00225 0.22473 0.52992 0.0
H1089 H 0.96264 0.22493 0.52245 0.0
H1090 H 0.98391 0.20195 0.48659 0.0
H1091 H 0.93152 0.16929 0.65975 0.0
H1092 H 0.89461 0.13611 0.64649 0.0
H1093 H 0.8988 0.17708 0.6437 0.0
C1094 C 0.88621 0.84084 0.68096 0.0
C1095 C 0.85455 0.8405 0.69881 0.0
C1096 C 0.90808 0.8671 0.66283 0.0
C1097 C 0.89819 0.89385 0.66354 0.0
C1098 C 0.86624 0.89365 0.68179 0.0
C1099 C 0.84454 0.86667 0.69886 0.0
C1100 C 0.94169 0.86615 0.64285 0.0
C1101 C 0.85525 0.92208 0.68377 0.0
C1102 C 0.97132 0.97036 0.64773 0.0
C1103 C 0.97238 0.97062 0.60783 0.0
C1104 C 0.94602 0.94647 0.66688 0.0
C1105 C 0.92162 0.92208 0.64541 0.0
C1106 C 0.92146 0.92325 0.60573 0.0
C1107 C 0.94663 0.94783 0.58759 0.0
C1108 C 0.94651 0.94626 0.7095 0.0
C1109 C 0.89615 0.89733 0.58172 0.0
H1110 H 0.89366 0.82034 0.68072 0.0
H1111 H 0.82004 0.86633 0.71302 0.0
H1112 H 0.94488 0.86987 0.61203 0.0
H1113 H 0.96192 0.88604 0.65726 0.0
H1114 H 0.94482 0.84287 0.64345 0.0
H1115 H 0.82956 0.91803 0.69904 0.0
H1116 H 0.87269 0.94408 0.69926 0.0
H1117 H 0.85608 0.92694 0.65397 0.0
H1118 H 0.991 0.98809 0.66368 0.0
H1119 H 0.94723 0.94802 0.55692 0.0
H1120 H 0.95365 0.92575 0.71267 0.0
H1121 H 0.92128 0.94278 0.72583 0.0
H1122 H 0.9645 0.96898 0.72307 0.0
H1123 H 0.90026 0.87402 0.57864 0.0
H1124 H 0.89791 0.90317 0.55213 0.0
H1125 H 0.87044 0.89378 0.5965 0.0
C1126 C 0.34319 0.19313 0.2159 0.0
C1127 C 0.33508 0.21338 0.19693 0.0
C1128 C 0.36198 0.17357 0.19582 0.0
C1129 C 0.37359 0.17414 0.15546 0.0
C1130 C 0.36529 0.19443 0.13608 0.0
C1131 C 0.34603 0.21339 0.15679 0.0
C1132 C 0.36974 0.15245 0.21806 0.0
C1133 C 0.37777 0.197 0.0936 0.0
C1134 C 0.45156 0.15043 0.11622 0.0
C1135 C 0.4385 0.11877 0.09639 0.0
C1136 C 0.43103 0.16859 0.13473 0.0
C1137 C 0.3959 0.15505 0.1343 0.0
C1138 C 0.3824 0.12313 0.11419 0.0
C1139 C 0.40369 0.10548 0.09559 0.0
C1140 C 0.44733 0.2022 0.15551 0.0
C1141 C 0.34531 0.10754 0.11244 0.0
H1142 H 0.33478 0.19252 0.24673 0.0
H1143 H 0.34033 0.22899 0.14162 0.0
H1144 H 0.36122 0.12701 0.20348 0.0
H1145 H 0.39714 0.16027 0.21816 0.0
H1146 H 0.35772 0.15341 0.24874 0.0
H1147 H 0.36842 0.21294 0.08226 0.0
H1148 H 0.40549 0.2068 0.08963 0.0
H1149 H 0.36996 0.17273 0.07581 0.0
H1150 H 0.47825 0.16134 0.11743 0.0
H1151 H 0.39302 0.08125 0.08037 0.0
H1152 H 0.44489 0.20114 0.18706 0.0
H1153 H 0.43523 0.21906 0.15188 0.0
H1154 H 0.47438 0.21223 0.14498 0.0
H1155 H 0.33178 0.10727 0.14239 0.0
H1156 H 0.33837 0.08239 0.09679 0.0
H1157 H 0.33671 0.12188 0.09741 0.0
C1158 C 0.83439 0.35077 0.16866 0.0
C1159 C 0.8453 0.33527 0.19144 0.0
C1160 C 0.85743 0.37538 0.14788 0.0
C1161 C 0.89221 0.38419 0.14921 0.0
C1162 C 0.90316 0.36885 0.17252 0.0
C1163 C 0.87968 0.34517 0.19367 0.0
C1164 C 0.84455 0.39176 0.12436 0.0
C1165 C 0.93988 0.37699 0.17466 0.0
C1166 C 0.95932 0.42115 0.06909 0.0
C1167 C 0.97432 0.4527 0.08756 0.0
C1168 C 0.93128 0.39906 0.08792 0.0
C1169 C 0.91766 0.4089 0.12601 0.0
C1170 C 0.93162 0.44145 0.14372 0.0
C1171 C 0.96006 0.46288 0.12444 0.0
C1172 C 0.91754 0.36468 0.06794 0.0
C1173 C 0.91752 0.45321 0.18384 0.0
H1174 H 0.8079 0.34378 0.1671 0.0
H1175 H 0.88851 0.33443 0.21212 0.0
H1176 H 0.85639 0.41841 0.1308 0.0
H1177 H 0.85123 0.38461 0.09284 0.0
H1178 H 0.81699 0.38526 0.1303 0.0
H1179 H 0.94423 0.36448 0.1961 0.0
H1180 H 0.9522 0.36993 0.14557 0.0
H1181 H 0.9522 0.40339 0.18285 0.0
H1182 H 0.97039 0.41338 0.04044 0.0
H1183 H 0.9716 0.48736 0.13854 0.0
H1184 H 0.89003 0.35678 0.06894 0.0
H1185 H 0.92284 0.34838 0.08353 0.0
H1186 H 0.92864 0.3617 0.03701 0.0
H1187 H 0.88991 0.44551 0.18605 0.0
H1188 H 0.92797 0.47994 0.19118 0.0
H1189 H 0.92339 0.44235 0.20588 0.0
C1190 C 0.68195 0.86233 0.13118 0.0
C1191 C 0.71635 0.87897 0.12473 0.0
C1192 C 0.65989 0.86693 0.11029 0.0
C1193 C 0.67273 0.88913 0.08306 0.0
C1194 C 0.70784 0.90359 0.07411 0.0
C1195 C 0.72919 0.89816 0.09502 0.0
C1196 C 0.62279 0.85098 0.12069 0.0
C1197 C 0.72352 0.92782 0.04592 0.0
C1198 C 0.619 0.90899 0.02463 0.0
C1199 C 0.61753 0.93811 0.04683 0.0
C1200 C 0.63597 0.89173 0.03643 0.0
C1201 C 0.65046 0.9034 0.07184 0.0
C1202 C 0.64671 0.93148 0.09552 0.0
C1203 C 0.63054 0.94846 0.08263 0.0
C1204 C 0.63924 0.86173 0.01057 0.0
C1205 C 0.66135 0.94477 0.1337 0.0
H1206 H 0.67216 0.84761 0.15444 0.0
H1207 H 0.75588 0.91109 0.09027 0.0
H1208 H 0.61261 0.8688 0.13992 0.0
H1209 H 0.60983 0.8426 0.09419 0.0
H1210 H 0.617 0.83009 0.13628 0.0
H1211 H 0.74198 0.92011 0.02389 0.0
H1212 H 0.7053 0.93118 0.0306 0.0
H1213 H 0.73744 0.95161 0.06193 0.0
H1214 H 0.60834 0.90056 0.99734 0.0
H1215 H 0.62861 0.97042 0.10061 0.0
H1216 H 0.62295 0.84017 0.02426 0.0
H1217 H 0.66529 0.86207 0.00715 0.0
H1218 H 0.63187 0.85908 0.98123 0.0
H1219 H 0.65355 0.92557 0.15243 0.0
H1220 H 0.65365 0.96518 0.15016 0.0
H1221 H 0.68903 0.95351 0.12796 0.0
C1222 C 0.24542 0.69146 0.13863 0.0
C1223 C 0.23638 0.69456 0.17907 0.0
C1224 C 0.22161 0.6721 0.11315 0.0
C1225 C 0.18829 0.65555 0.12871 0.0
C1226 C 0.17999 0.65705 0.16961 0.0
C1227 C 0.20413 0.67631 0.19409 0.0
C1228 C 0.23164 0.67117 0.0698 0.0
C1229 C 0.14497 0.63993 0.18777 0.0
C1230 C 0.11172 0.63492 0.07729 0.0
C1231 C 0.10201 0.60113 0.06834 0.0
C1232 C 0.14103 0.65329 0.09467 0.0
C1233 C 0.1613 0.63758 0.10312 0.0
C1234 C 0.15272 0.60378 0.0919 0.0
C1235 C 0.12319 0.58598 0.07489 0.0
C1236 C 0.14932 0.68933 0.10592 0.0
C1237 C 0.17394 0.58616 0.0996 0.0
H1238 H 0.27015 0.70601 0.12694 0.0
H1239 H 0.19717 0.67863 0.2254 0.0
H1240 H 0.22007 0.64657 0.054 0.0
H1241 H 0.22278 0.68785 0.05931 0.0
H1242 H 0.2592 0.67887 0.0623 0.0
H1243 H 0.14301 0.64259 0.22003 0.0
H1244 H 0.12742 0.64992 0.18028 0.0
H1245 H 0.13672 0.6138 0.17602 0.0
H1246 H 0.09582 0.64697 0.072 0.0
H1247 H 0.11638 0.55998 0.06747 0.0
H1248 H 0.17577 0.70237 0.09545 0.0
H1249 H 0.14615 0.69535 0.13816 0.0
H1250 H 0.13309 0.69834 0.09393 0.0
H1251 H 0.20065 0.59877 0.08964 0.0
H1252 H 0.16637 0.56073 0.08481 0.0
H1253 H 0.17169 0.58607 0.13141 0.0
C1254 C 0.34974 0.8301 0.86407 0.0
C1255 C 0.35509 0.82697 0.82343 0.0
C1256 C 0.37412 0.85281 0.88648 0.0
C1257 C 0.40498 0.8715 0.86749 0.0
C1258 C 0.41044 0.86797 0.82626 0.0
C1259 C 0.38494 0.84636 0.80479 0.0
C1260 C 0.36681 0.85691 0.93036 0.0
C1261 C 0.44334 0.88649 0.80476 0.0
C1262 C 0.46198 0.94851 0.92101 0.0
C1263 C 0.48468 0.93739 0.93217 0.0
C1264 C 0.43552 0.92723 0.90055 0.0
C1265 C 0.43192 0.89414 0.89062 0.0
C1266 C 0.45461 0.88274 0.90194 0.0
C1267 C 0.48057 0.90443 0.92276 0.0
C1268 C 0.41154 0.94019 0.88937 0.0
C1269 C 0.45189 0.84771 0.89131 0.0
H1270 H 0.32627 0.81528 0.87826 0.0
H1271 H 0.38861 0.84407 0.77332 0.0
H1272 H 0.38397 0.84945 0.94281 0.0
H1273 H 0.3712 0.88274 0.94217 0.0
H1274 H 0.34067 0.84241 0.94042 0.0
H1275 H 0.44378 0.88006 0.77261 0.0
H1276 H 0.44841 0.91284 0.81256 0.0
H1277 H 0.46397 0.88146 0.81351 0.0
H1278 H 0.46484 0.97388 0.92826 0.0
H1279 H 0.49797 0.89557 0.93114 0.0
H1280 H 0.38543 0.92584 0.89959 0.0
H1281 H 0.41371 0.93787 0.85719 0.0
H1282 H 0.41634 0.96601 0.90173 0.0
H1283 H 0.42711 0.8319 0.90339 0.0
H1284 H 0.47154 0.8427 0.90235 0.0
H1285 H 0.45397 0.84095 0.85915 0.0
C1286 C 0.23187 0.34939 0.79653 0.0
C1287 C 0.23712 0.32668 0.81437 0.0
C1288 C 0.21163 0.36778 0.81582 0.0
C1289 C 0.19638 0.36426 0.85473 0.0
C1290 C 0.20175 0.34153 0.87301 0.0
C1291 C 0.2217 0.32313 0.8527 0.0
C1292 C 0.20702 0.39111 0.79406 0.0
C1293 C 0.18628 0.33651 0.91421 0.0
C1294 C 0.16543 0.43191 0.91587 0.0
C1295 C 0.13086 0.41915 0.91318 0.0
C1296 C 0.18685 0.41434 0.89766 0.0
C1297 C 0.17383 0.38321 0.87559 0.0
C1298 C 0.13907 0.37045 0.87251 0.0
C1299 C 0.11823 0.38827 0.89131 0.0
C1300 C 0.22359 0.42917 0.90187 0.0
C1301 C 0.12384 0.33798 0.84861 0.0
H1302 H 0.24306 0.35238 0.76687 0.0
H1303 H 0.22561 0.3063 0.86724 0.0
H1304 H 0.18286 0.395 0.80388 0.0
H1305 H 0.22742 0.41478 0.7989 0.0
H1306 H 0.20831 0.38236 0.76226 0.0
H1307 H 0.1936 0.3189 0.92504 0.0
H1308 H 0.19391 0.35986 0.9339 0.0
H1309 H 0.15865 0.3277 0.91585 0.0
H1310 H 0.17581 0.45563 0.93243 0.0
H1311 H 0.09177 0.37789 0.88857 0.0
H1312 H 0.23825 0.43207 0.87269 0.0
H1313 H 0.2313 0.41286 0.9147 0.0
H1314 H 0.22998 0.45313 0.92057 0.0
H1315 H 0.13558 0.3385 0.81788 0.0
H1316 H 0.09643 0.33108 0.8492 0.0
H1317 H 0.12883 0.31901 0.8596 0.0
C1318 C 0.72387 0.2146 0.86925 0.0
C1319 C 0.72925 0.20985 0.8285 0.0
C1320 C 0.7001 0.1903 0.8895 0.0
C1321 C 0.68206 0.16036 0.86836 0.0
C1322 C 0.68937 0.15482 0.82728 0.0
C1323 C 0.71243 0.17985 0.8078 0.0
C1324 C 0.69281 0.1975 0.9332 0.0
C1325 C 0.67168 0.12298 0.80365 0.0
C1326 C 0.62714 0.08942 0.92201 0.0
C1327 C 0.59526 0.09064 0.92245 0.0
C1328 C 0.65581 0.11196 0.90463 0.0
C1329 C 0.65252 0.13668 0.88819 0.0
C1330 C 0.62045 0.13834 0.88936 0.0
C1331 C 0.59228 0.11516 0.90598 0.0
C1332 C 0.68946 0.10894 0.9032 0.0
C1333 C 0.61589 0.1649 0.87336 0.0
H1334 H 0.73714 0.23784 0.88513 0.0
H1335 H 0.71719 0.17601 0.77625 0.0
H1336 H 0.66815 0.2007 0.94064 0.0
H1337 H 0.69144 0.17708 0.94727 0.0
H1338 H 0.71199 0.21984 0.94566 0.0
H1339 H 0.68365 0.12093 0.77299 0.0
H1340 H 0.67139 0.10255 0.81692 0.0
H1341 H 0.64535 0.12056 0.80345 0.0
H1342 H 0.62964 0.07066 0.93489 0.0
H1343 H 0.56786 0.11678 0.9069 0.0
H1344 H 0.7077 0.13235 0.9147 0.0
H1345 H 0.69911 0.10252 0.87245 0.0
H1346 H 0.68822 0.09016 0.92011 0.0
H1347 H 0.63182 0.18876 0.88705 0.0
H1348 H 0.58956 0.16401 0.87863 0.0
H1349 H 0.62399 0.16309 0.84151 0.0
C1350 C 0.92904 0.71876 0.90358 0.0
C1351 C 0.90855 0.70092 0.87464 0.0
C1352 C 0.93792 0.70302 0.92796 0.0
C1353 C 0.92576 0.66881 0.92311 0.0
C1354 C 0.90275 0.65093 0.89603 0.0
C1355 C 0.89467 0.66728 0.87176 0.0
C1356 C 0.96224 0.72282 0.95675 0.0
C1357 C 0.88882 0.61445 0.89028 0.0
C1358 C 0.98308 0.62683 0.93618 0.0
C1359 C 0.96735 0.61368 0.97026 0.0
C1360 C 0.97005 0.64542 0.921 0.0
C1361 C 0.94119 0.65169 0.94121 0.0
C1362 C 0.92617 0.63964 0.97678 0.0
C1363 C 0.93896 0.61988 0.99034 0.0
C1364 C 0.9861 0.65681 0.88224 0.0
C1365 C 0.8959 0.64644 0.99956 0.0
H1366 H 0.93961 0.74487 0.9056 0.0
H1367 H 0.87859 0.65373 0.84941 0.0
H1368 H 0.9539 0.71379 0.98526 0.0
H1369 H 0.98702 0.72048 0.94583 0.0
H1370 H 0.96528 0.74884 0.96124 0.0
H1371 H 0.86717 0.60468 0.87327 0.0
H1372 H 0.90855 0.60493 0.87432 0.0
H1373 H 0.88085 0.60526 0.91869 0.0
H1374 H 1.00453 0.62104 0.92027 0.0
H1375 H 0.92629 0.6086 0.01598 0.0
H1376 H 0.99308 0.68341 0.88507 0.0
H1377 H 0.96801 0.64573 0.86054 0.0
H1378 H 1.0088 0.65041 0.87076 0.0
H1379 H 0.90042 0.67276 1.00423 0.0
H1380 H 0.88933 0.6378 0.02831 0.0
H1381 H 0.87419 0.63429 0.98285 0.0
C1382 C 0.17825 0.36099 0.12696 0.0
C1383 C 0.16924 0.32807 0.11219 0.0
C1384 C 0.17324 0.38242 0.1069 0.0
C1385 C 0.15915 0.37039 0.0713 0.0
C1386 C 0.15424 0.33801 0.05402 0.0
C1387 C 0.15896 0.31705 0.07498 0.0
C1388 C 0.17918 0.41686 0.12624 0.0
C1389 C 0.14028 0.32445 0.01559 0.0
C1390 C 0.09373 0.4033 0.05866 0.0
C1391 C 0.11208 0.42668 0.0347 0.0
C1392 C 0.10891 0.38478 0.07058 0.0
C1393 C 0.14294 0.38909 0.05697 0.0
C1394 C 0.16107 0.41164 0.03104 0.0
C1395 C 0.14555 0.43078 0.02093 0.0
C1396 C 0.08893 0.3617 0.09921 0.0
C1397 C 0.19691 0.41607 0.0148 0.0
H1398 H 0.18614 0.36937 0.15582 0.0
H1399 H 0.15214 0.29151 0.0636 0.0
H1400 H 0.19006 0.43392 0.10465 0.0
H1401 H 0.15494 0.41928 0.14011 0.0
H1402 H 0.19607 0.42402 0.14913 0.0
H1403 H 0.14672 0.3028 1.00126 0.0
H1404 H 0.11266 0.31716 0.02076 0.0
H1405 H 0.14964 0.34275 0.99549 0.0
H1406 H 0.06806 0.4009 0.06999 0.0
H1407 H 0.15973 0.44948 1.00303 0.0
H1408 H 0.10123 0.36847 0.12613 0.0
H1409 H 0.08795 0.33677 0.08657 0.0
H1410 H 0.06294 0.36162 0.10738 0.0
H1411 H 0.21262 0.42344 0.03884 0.0
H1412 H 0.20734 0.4345 0.99476 0.0
H1413 H 0.19868 0.39278 0.99878 0.0
C1414 C 0.21472 0.66955 0.80147 0.0
C1415 C 0.22908 0.70184 0.81836 0.0
C1416 C 0.19019 0.6466 0.82288 0.0
C1417 C 0.17974 0.65589 0.86251 0.0
C1418 C 0.19495 0.68822 0.88019 0.0
C1419 C 0.2194 0.71079 0.8579 0.0
C1420 C 0.17465 0.6126 0.8026 0.0
C1421 C 0.18473 0.69923 0.92234 0.0
C1422 C 0.0906 0.60714 0.89958 0.0
C1423 C 0.09509 0.58642 0.92124 0.0
C1424 C 0.11789 0.63014 0.8813 0.0
C1425 C 0.15083 0.63249 0.884 0.0
C1426 C 0.1557 0.61156 0.90559 0.0
C1427 C 0.12779 0.589 0.92428 0.0
C1428 C 0.1114 0.65219 0.85928 0.0
C1429 C 0.19034 0.61281 0.90866 0.0
H1430 H 0.22211 0.66222 0.77103 0.0
H1431 H 0.23088 0.73546 0.87143 0.0
H1432 H 0.17568 0.59484 0.81955 0.0
H1433 H 0.14793 0.60768 0.80081 0.0
H1434 H 0.18725 0.60857 0.77259 0.0
H1435 H 0.20117 0.72406 0.93279 0.0
H1436 H 0.1587 0.69893 0.92595 0.0
H1437 H 0.18527 0.68246 0.94108 0.0
H1438 H 0.06556 0.60592 0.89751 0.0
H1439 H 0.13158 0.57329 0.94113 0.0
H1440 H 0.12185 0.64874 0.82822 0.0
H1441 H 0.12422 0.67764 0.87148 0.0
H1442 H 0.08437 0.64804 0.8608 0.0
H1443 H 0.20294 0.60713 0.87919 0.0
H1444 H 0.19001 0.5955 0.92724 0.0
H1445 H 0.20557 0.63755 0.92094 0.0
C1446 C 0.36458 0.17877 0.92204 0.0
C1447 C 0.35204 0.15521 0.89068 0.0
C1448 C 0.39003 0.17742 0.94053 0.0
C1449 C 0.40281 0.15189 0.92726 0.0
C1450 C 0.39211 0.12989 0.89342 0.0
C1451 C 0.36686 0.13184 0.87566 0.0
C1452 C 0.40145 0.20187 0.97579 0.0
C1453 C 0.40531 0.10253 0.87772 0.0
C1454 C 0.47536 0.13769 0.95554 0.0
C1455 C 0.45789 0.11258 0.97758 0.0
C1456 C 0.45821 0.15378 0.94207 0.0
C1457 C 0.42304 0.14446 0.9513 0.0
C1458 C 0.40625 0.12191 0.97766 0.0
C1459 C 0.42384 0.10581 0.9899 0.0
C1460 C 0.4772 0.17813 0.91475 0.0
C1461 C 0.369 0.11195 0.9894 0.0
H1462 H 0.3532 0.197 0.93351 0.0
H1463 H 0.35741 0.11397 0.85101 0.0
H1464 H 0.38816 0.19129 1.00258 0.0
H1465 H 0.42862 0.20844 0.97657 0.0
H1466 H 0.39597 0.22417 0.97638 0.0
H1467 H 0.39662 0.08941 0.84928 0.0
H1468 H 0.433 0.1118 0.87394 0.0
H1469 H 0.39679 0.08502 0.89882 0.0
H1470 H 0.50177 0.14271 0.94589 0.0
H1471 H 0.4105 0.08629 0.00691 0.0
H1472 H 0.4669 0.19791 0.91938 0.0
H1473 H 0.4749 0.16602 0.88421 0.0
H1474 H 0.50418 0.1887 0.91846 0.0
H1475 H 0.36125 0.13346 0.99779 0.0
H1476 H 0.36075 0.09788 0.01419 0.0
H1477 H 0.35588 0.09676 0.96426 0.0
C1478 C 0.82949 0.35057 0.87287 0.0
C1479 C 0.83969 0.34215 0.83338 0.0
C1480 C 0.85325 0.37074 0.89818 0.0
C1481 C 0.88778 0.38213 0.88361 0.0
C1482 C 0.89774 0.37445 0.84351 0.0
C1483 C 0.87366 0.35533 0.81902 0.0
C1484 C 0.84163 0.37898 0.94065 0.0
C1485 C 0.93413 0.38531 0.82646 0.0
C1486 C 0.95573 0.45459 0.92897 0.0
C1487 C 0.97347 0.43981 0.94366 0.0
C1488 C 0.92635 0.43622 0.91191 0.0
C1489 C 0.91413 0.40213 0.90941 0.0
C1490 C 0.93088 0.38716 0.92602 0.0
C1491 C 0.96032 0.40614 0.94288 0.0
C1492 C 0.90955 0.45323 0.89437 0.0
C1493 C 0.91889 0.35088 0.92389 0.0
H1494 H 0.8034 0.34037 0.88423 0.0
H1495 H 0.88189 0.34951 0.78839 0.0
H1496 H 0.85106 0.36739 0.95858 0.0
H1497 H 0.85198 0.40547 0.94994 0.0
H1498 H 0.81395 0.37076 0.94677 0.0
H1499 H 0.93764 0.37706 0.79461 0.0
H1500 H 0.94532 0.41206 0.83168 0.0
H1501 H 0.94823 0.37566 0.84095 0.0
H1502 H 0.96535 0.48058 0.92961 0.0
H1503 H 0.97346 0.39444 0.95459 0.0
H1504 H 0.88211 0.44385 0.9027 0.0
H1505 H 0.91419 0.44844 0.86211 0.0
H1506 H 0.91902 0.47981 0.90359 0.0
H1507 H 0.89152 0.34109 0.93244 0.0
H1508 H 0.9315 0.34336 0.94293 0.0
H1509 H 0.92402 0.3398 0.89341 0.0
C1510 C 0.75139 0.8596 0.81777 0.0
C1511 C 0.73605 0.8258 0.81257 0.0
C1512 C 0.73341 0.88029 0.83624 0.0
C1513 C 0.69935 0.86713 0.85207 0.0
C1514 C 0.68419 0.83287 0.84821 0.0
C1515 C 0.70235 0.8128 0.82786 0.0
C1516 C 0.75138 0.91629 0.83842 0.0
C1517 C 0.64875 0.8172 0.866 0.0
C1518 C 0.66297 0.9233 0.93013 0.0
C1519 C 0.63981 0.92774 0.91083 0.0
C1520 C 0.68202 0.90343 0.91169 0.0
C1521 C 0.67948 0.88889 0.87213 0.0
C1522 C 0.65747 0.89493 0.85196 0.0
C1523 C 0.6373 0.91321 0.87178 0.0
C1524 C 0.70407 0.89706 0.935 0.0
C1525 C 0.65476 0.88189 0.80935 0.0
H1526 H 0.77744 0.87006 0.80636 0.0
H1527 H 0.69028 0.78676 0.82465 0.0
H1528 H 0.73413 0.92943 0.83905 0.0
H1529 H 0.76387 0.92549 0.86527 0.0
H1530 H 0.7711 0.92204 0.81326 0.0
H1531 H 0.64252 0.791 0.86641 0.0
H1532 H 0.64462 0.82916 0.8963 0.0
H1533 H 0.63121 0.8199 0.84893 0.0
H1534 H 0.66512 0.93415 0.96029 0.0
H1535 H 0.6195 0.91628 0.85647 0.0
H1536 H 0.73063 0.90792 0.92325 0.0
H1537 H 0.69835 0.87064 0.93273 0.0
H1538 H 0.70086 0.90727 0.96614 0.0
H1539 H 0.67936 0.88234 0.79308 0.0
H1540 H 0.64475 0.89589 0.7955 0.0
H1541 H 0.6374 0.8565 0.80645 0.0
C1542 C 0.8322 0.69358 0.16426 0.0
C1543 C 0.84485 0.72056 0.19217 0.0
C1544 C 0.85198 0.67513 0.14388 0.0
C1545 C 0.88485 0.68259 0.1529 0.0
C1546 C 0.89746 0.70969 0.18163 0.0
C1547 C 0.87774 0.72876 0.19996 0.0
C1548 C 0.83799 0.64829 0.11171 0.0
C1549 C 0.9318 0.71876 0.19342 0.0
C1550 C 0.92224 0.61435 0.12597 0.0
C1551 C 0.94729 0.62492 0.09526 0.0
C1552 C 0.90229 0.63303 0.14532 0.0
C1553 C 0.90595 0.66224 0.13238 0.0
C1554 C 0.93051 0.67234 0.10041 0.0
C1555 C 0.95147 0.65425 0.08328 0.0
C1556 C 0.87801 0.62204 0.18054 0.0
C1557 C 0.93473 0.70229 0.08411 0.0
H1558 H 0.80697 0.68737 0.15762 0.0
H1559 H 0.88773 0.74958 0.22145 0.0
H1560 H 0.85341 0.65419 0.08362 0.0
H1561 H 0.83914 0.62521 0.11663 0.0
H1562 H 0.81172 0.64474 0.10908 0.0
H1563 H 0.934 0.73356 0.22275 0.0
H1564 H 0.93797 0.69701 0.19369 0.0
H1565 H 0.95064 0.7333 0.17226 0.0
H1566 H 0.91914 0.59206 0.13593 0.0
H1567 H 0.9708 0.66274 0.05968 0.0
H1568 H 0.85209 0.61662 0.1748 0.0
H1569 H 0.88301 0.6417 0.20576 0.0
H1570 H 0.87962 0.60014 0.18868 0.0
H1571 H 0.91007 0.70281 0.08062 0.0
H1572 H 0.95054 0.70378 0.05546 0.0
H1573 H 0.94668 0.72408 0.10458 0.0
C1574 C 0.35091 0.82655 0.14075 0.0
C1575 C 0.35355 0.82671 0.17978 0.0
C1576 C 0.37274 0.85176 0.12025 0.0
C1577 C 0.39791 0.87765 0.13922 0.0
C1578 C 0.4 0.87818 0.17893 0.0
C1579 C 0.37827 0.85252 0.19841 0.0
C1580 C 0.3695 0.85018 0.07803 0.0
C1581 C 0.42574 0.90562 0.20074 0.0
C1582 C 0.48228 0.91994 0.0851 0.0
C1583 C 0.48011 0.9496 0.08204 0.0
C1584 C 0.455 0.89584 0.10151 0.0
C1585 C 0.42497 0.90179 0.11676 0.0
C1586 C 0.42246 0.93164 0.11315 0.0
C1587 C 0.44986 0.95492 0.09493 0.0
C1588 C 0.45875 0.86428 0.10356 0.0
C1589 C 0.39109 0.9392 0.12861 0.0
H1590 H 0.33204 0.80648 0.12609 0.0
H1591 H 0.38061 0.85276 0.22846 0.0
H1592 H 0.36801 0.87314 0.07318 0.0
H1593 H 0.392 0.84703 0.05947 0.0
H1594 H 0.34705 0.82994 0.06844 0.0
H1595 H 0.42214 0.90392 0.23232 0.0
H1596 H 0.45112 0.9055 0.18842 0.0
H1597 H 0.42455 0.92912 0.19732 0.0
H1598 H 0.50543 0.91542 0.07423 0.0
H1599 H 0.44801 0.97766 0.09192 0.0
H1600 H 0.4371 0.84363 0.09292 0.0
H1601 H 0.45932 0.86277 0.13434 0.0
H1602 H 0.48202 0.86183 0.08622 0.0
H1603 H 0.37214 0.9257 0.10838 0.0
H1604 H 0.3954 0.96537 0.13089 0.0
H1605 H 0.38087 0.93161 0.15773 0.0
C1606 C 0.70724 0.18135 0.18788 0.0
C1607 C 0.72356 0.21322 0.18028 0.0
C1608 C 0.68174 0.15972 0.16654 0.0
C1609 C 0.67332 0.1698 0.13568 0.0
C1610 C 0.69091 0.20145 0.12648 0.0
C1611 C 0.71552 0.22303 0.14937 0.0
C1612 C 0.66281 0.12662 0.17829 0.0
C1613 C 0.68327 0.21268 0.09298 0.0
C1614 C 0.62316 0.10257 0.06371 0.0
C1615 C 0.59115 0.10412 0.07548 0.0
C1616 C 0.65046 0.12453 0.0823 0.0
C1617 C 0.64514 0.14758 0.11422 0.0
C1618 C 0.61262 0.14873 0.12655 0.0
C1619 C 0.58608 0.12735 0.10645 0.0
C1620 C 0.68494 0.12321 0.06776 0.0
C1621 C 0.60571 0.172 0.1615 0.0
H1622 H 0.71351 0.17356 0.21155 0.0
H1623 H 0.72832 0.24761 0.14328 0.0
H1624 H 0.63671 0.12474 0.18995 0.0
H1625 H 0.66174 0.10752 0.1527 0.0
H1626 H 0.67421 0.12172 0.20094 0.0
H1627 H 0.70115 0.23695 0.08753 0.0
H1628 H 0.68398 0.1952 0.06598 0.0
H1629 H 0.65769 0.21375 0.09926 0.0
H1630 H 0.62692 0.08472 0.03938 0.0
H1631 H 0.56114 0.12827 0.11547 0.0
H1632 H 0.6949 0.11729 0.09089 0.0
H1633 H 0.70222 0.14723 0.06073 0.0
H1634 H 0.68506 0.10492 0.04141 0.0
H1635 H 0.61271 0.16725 0.18775 0.0
H1636 H 0.579 0.16987 0.16713 0.0
H1637 H 0.62114 0.19724 0.15726 0.0
C1638 C 0.73812 0.68811 0.8426 0.0
C1639 C 0.72573 0.70136 0.81864 0.0
C1640 C 0.71638 0.66527 0.86615 0.0
C1641 C 0.68154 0.65485 0.8649 0.0
C1642 C 0.66894 0.66808 0.84075 0.0
C1643 C 0.69112 0.69164 0.81864 0.0
C1644 C 0.73066 0.65233 0.89232 0.0
C1645 C 0.63194 0.65743 0.83832 0.0
C1646 C 0.61998 0.57522 0.89323 0.0
C1647 C 0.60401 0.58571 0.9287 0.0
C1648 C 0.64709 0.59725 0.87331 0.0
C1649 C 0.6578 0.63049 0.88908 0.0
C1650 C 0.6426 0.64083 0.9259 0.0
C1651 C 0.61577 0.61822 0.94524 0.0
C1652 C 0.66272 0.58531 0.83421 0.0
C1653 C 0.65331 0.67604 0.94367 0.0
H1654 H 0.76481 0.69574 0.84325 0.0
H1655 H 0.68115 0.70247 0.80139 0.0
H1656 H 0.71889 0.65576 0.92283 0.0
H1657 H 0.72497 0.62598 0.88321 0.0
H1658 H 0.75815 0.66434 0.89162 0.0
H1659 H 0.6264 0.66886 0.81656 0.0
H1660 H 0.62149 0.6308 0.83028 0.0
H1661 H 0.61881 0.66371 0.86719 0.0
H1662 H 0.61047 0.55002 0.88044 0.0
H1663 H 0.60261 0.62626 0.97213 0.0
H1664 H 0.69036 0.59512 0.83257 0.0
H1665 H 0.65581 0.59398 0.81087 0.0
H1666 H 0.65439 0.55849 0.82831 0.0
H1667 H 0.68057 0.68568 0.94556 0.0
H1668 H 0.63991 0.67986 0.97324 0.0
H1669 H 0.64842 0.69035 0.92484 0.0
C1670 C 0.43781 0.6584 0.8195 0.0
C1671 C 0.40806 0.66493 0.82893 0.0
C1672 C 0.45435 0.65658 0.8488 0.0
C1673 C 0.44022 0.66088 0.88816 0.0
C1674 C 0.41353 0.673 0.89782 0.0
C1675 C 0.39745 0.67465 0.86781 0.0
C1676 C 0.48362 0.64487 0.8371 0.0
C1677 C 0.39891 0.68011 0.93935 0.0
C1678 C 0.436 0.58941 0.93035 0.0
C1679 C 0.46434 0.60207 0.9499 0.0
C1680 C 0.42633 0.60914 0.91293 0.0
C1681 C 0.44562 0.64251 0.91503 0.0
C1682 C 0.47275 0.656 0.93736 0.0
C1683 C 0.48189 0.63549 0.95466 0.0
C1684 C 0.39634 0.59378 0.89062 0.0
C1685 C 0.49299 0.69164 0.94125 0.0
H1686 H 0.44656 0.65204 0.78918 0.0
H1687 H 0.37482 0.68058 0.87499 0.0
H1688 H 0.50258 0.65682 0.85762 0.0
H1689 H 0.4747 0.61844 0.83772 0.0
H1690 H 0.49572 0.64938 0.80717 0.0
H1691 H 0.39061 0.70116 0.94298 0.0
H1692 H 0.37649 0.65904 0.94648 0.0
H1693 H 0.41698 0.68519 0.96029 0.0
H1694 H 0.42192 0.56368 0.92747 0.0
H1695 H 0.50367 0.64537 0.97017 0.0
H1696 H 0.40445 0.59486 0.85905 0.0
H1697 H 0.37867 0.60712 0.90042 0.0
H1698 H 0.38274 0.56807 0.89449 0.0
H1699 H 0.50533 0.69844 0.91225 0.0
H1700 H 0.51245 0.69854 0.96099 0.0
H1701 H 0.47633 0.7059 0.95266 0.0
C1702 C 0.3568 0.35552 0.84522 0.0
C1703 C 0.36526 0.33437 0.81369 0.0
C1704 C 0.38036 0.37555 0.87047 0.0
C1705 C 0.41368 0.37574 0.86263 0.0
C1706 C 0.42255 0.35533 0.82963 0.0
C1707 C 0.39801 0.33427 0.80619 0.0
C1708 C 0.36937 0.39589 0.90601 0.0
C1709 C 0.45797 0.35572 0.81904 0.0
C1710 C 0.4822 0.44973 0.90591 0.0
C1711 C 0.48934 0.43839 0.93636 0.0
C1712 C 0.45773 0.42968 0.88185 0.0
C1713 C 0.43935 0.39749 0.88859 0.0
C1714 C 0.44599 0.38601 0.91969 0.0
C1715 C 0.47106 0.40647 0.94295 0.0
C1716 C 0.45187 0.44285 0.84881 0.0
C1717 C 0.42651 0.3521 0.92845 0.0
H1718 H 0.33131 0.3553 0.85111 0.0
H1719 H 0.40447 0.31793 0.78164 0.0
H1720 H 0.37512 0.39046 0.93264 0.0
H1721 H 0.38334 0.42189 0.90437 0.0
H1722 H 0.34219 0.39161 0.90912 0.0
H1723 H 0.46118 0.33984 0.7912 0.0
H1724 H 0.47532 0.38072 0.81631 0.0
H1725 H 0.46535 0.34762 0.8425 0.0
H1726 H 0.49611 0.47432 0.90046 0.0
H1727 H 0.47607 0.39754 0.96659 0.0
H1728 H 0.42558 0.44176 0.85244 0.0
H1729 H 0.45607 0.42776 0.82069 0.0
H1730 H 0.46851 0.46827 0.84709 0.0
H1731 H 0.39932 0.34785 0.93264 0.0
H1732 H 0.43328 0.34741 0.95493 0.0
H1733 H 0.43121 0.33435 0.90341 0.0
C1734 C 0.72376 0.35151 0.89527 0.0
C1735 C 0.71099 0.32493 0.91611 0.0
C1736 C 0.72123 0.38132 0.91268 0.0
C1737 C 0.70659 0.38436 0.95176 0.0
C1738 C 0.7037 0.36112 0.97514 0.0
C1739 C 0.70549 0.33105 0.95677 0.0
C1740 C 0.72593 0.40577 0.88649 0.0
C1741 C 0.69301 0.36537 0.01833 0.0
C1742 C 0.66726 0.44919 0.98347 0.0
C1743 C 0.63521 0.43222 0.97237 0.0
C1744 C 0.69091 0.43389 0.9779 0.0
C1745 C 0.68202 0.40106 0.96097 0.0
C1746 C 0.64949 0.38393 0.94989 0.0
C1747 C 0.62666 0.39982 0.95568 0.0
C1748 C 0.72519 0.45269 0.99011 0.0
C1749 C 0.63836 0.34872 0.93182 0.0
H1750 H 0.72972 0.34808 0.86392 0.0
H1751 H 0.69811 0.31133 0.97359 0.0
H1752 H 0.70248 0.39946 0.87352 0.0
H1753 H 0.73177 0.4306 0.90264 0.0
H1754 H 0.74618 0.40542 0.86218 0.0
H1755 H 0.71362 0.36671 0.03379 0.0
H1756 H 0.6868 0.38755 0.0288 0.0
H1757 H 0.67117 0.34403 0.02612 0.0
H1758 H 0.67378 0.4743 0.99671 0.0
H1759 H 0.60186 0.38663 0.94719 0.0
H1760 H 0.74439 0.45459 0.96431 0.0
H1761 H 0.73098 0.43971 0.00983 0.0
H1762 H 0.72742 0.47748 1.00504 0.0
H1763 H 0.65434 0.34539 0.90408 0.0
H1764 H 0.61205 0.33933 0.92542 0.0
H1765 H 0.64043 0.33378 0.95193 0.0
C1766 C 0.65865 0.37595 0.18265 0.0
C1767 C 0.69233 0.39586 0.17954 0.0
C1768 C 0.63724 0.37722 0.15826 0.0
C1769 C 0.65013 0.39886 0.13051 0.0
C1770 C 0.68504 0.41537 0.12378 0.0
C1771 C 0.70573 0.41384 0.14869 0.0
C1772 C 0.60031 0.35879 0.16566 0.0
C1773 C 0.70033 0.43849 0.09429 0.0
C1774 C 0.59716 0.41595 0.06912 0.0
C1775 C 0.59706 0.44617 0.089 0.0
C1776 C 0.6126 0.39864 0.08319 0.0
C1777 C 0.62764 0.41194 0.11807 0.0
C1778 C 0.62439 0.44085 0.14003 0.0
C1779 C 0.60948 0.45769 0.125 0.0
C1780 C 0.61308 0.36683 0.05986 0.0
C1781 C 0.63825 0.45513 0.17858 0.0
H1782 H 0.64849 0.36154 0.2062 0.0
H1783 H 0.73206 0.42847 0.14567 0.0
H1784 H 0.58744 0.37572 0.18146 0.0
H1785 H 0.58969 0.34792 0.13773 0.0
H1786 H 0.59495 0.33935 0.18348 0.0
H1787 H 0.72472 0.43667 0.07997 0.0
H1788 H 0.68393 0.43413 0.07165 0.0
H1789 H 0.70523 0.46361 0.10951 0.0
H1790 H 0.58652 0.40643 0.04187 0.0
H1791 H 0.60831 0.48051 0.14121 0.0
H1792 H 0.587 0.35001 0.05791 0.0
H1793 H 0.62646 0.35523 0.0725 0.0
H1794 H 0.6247 0.37045 0.02962 0.0
H1795 H 0.63145 0.43621 0.19752 0.0
H1796 H 0.62896 0.47468 0.19454 0.0
H1797 H 0.6659 0.4655 0.17343 0.0
C1798 C 0.68402 0.72309 0.19183 0.0
C1799 C 0.71223 0.71538 0.19281 0.0
C1800 C 0.6579 0.70164 0.17066 0.0
C1801 C 0.66071 0.67244 0.14873 0.0
C1802 C 0.68973 0.66514 0.14877 0.0
C1803 C 0.71472 0.68631 0.17145 0.0
C1804 C 0.62704 0.70995 0.17231 0.0
C1805 C 0.69468 0.6352 0.1244 0.0
C1806 C 0.58356 0.60076 0.11998 0.0
C1807 C 0.58148 0.60565 0.08271 0.0
C1808 C 0.60863 0.62277 0.14218 0.0
C1809 C 0.63329 0.64941 0.12591 0.0
C1810 C 0.63188 0.65377 0.08769 0.0
C1811 C 0.60542 0.63242 0.06709 0.0
C1812 C 0.60847 0.61774 0.18323 0.0
C1813 C 0.65847 0.68074 0.06827 0.0
H1814 H 0.68199 0.74545 0.20849 0.0
H1815 H 0.73673 0.68047 0.17173 0.0
H1816 H 0.62423 0.71284 0.14284 0.0
H1817 H 0.60452 0.68993 0.18204 0.0
H1818 H 0.62787 0.7326 0.19241 0.0
H1819 H 0.71959 0.63413 0.12572 0.0
H1820 H 0.67522 0.61326 0.13453 0.0
H1821 H 0.69203 0.63451 0.09353 0.0
H1822 H 0.565 0.58012 0.13218 0.0
H1823 H 0.60398 0.6362 0.03829 0.0
H1824 H 0.60839 0.63989 0.20387 0.0
H1825 H 0.63144 0.6133 0.18559 0.0
H1826 H 0.58646 0.59702 0.19242 0.0
H1827 H 0.65542 0.70414 0.08156 0.0
H1828 H 0.6571 0.67733 0.0365 0.0
H1829 H 0.68375 0.68236 0.07256 0.0
C1830 C 0.43646 0.72886 0.07483 0.0
C1831 C 0.40918 0.73756 0.09362 0.0
C1832 C 0.43165 0.6965 0.05954 0.0
C1833 C 0.399 0.67314 0.06429 0.0
C1834 C 0.37116 0.68342 0.07468 0.0
C1835 C 0.37685 0.71641 0.08682 0.0
C1836 C 0.46209 0.68687 0.04574 0.0
C1837 C 0.33565 0.66006 0.07882 0.0
C1838 C 0.40626 0.59182 0.03586 0.0
C1839 C 0.42394 0.59355 0.06599 0.0
C1840 C 0.39264 0.61566 0.03684 0.0
C1841 C 0.3961 0.64034 0.0692 0.0
C1842 C 0.40647 0.6369 0.10333 0.0
C1843 C 0.42145 0.61395 0.10092 0.0
C1844 C 0.37983 0.6174 1.001 0.0
C1845 C 0.40625 0.66029 0.14047 0.0
H1846 H 0.4616 0.74562 0.07828 0.0
H1847 H 0.35571 0.72398 0.09951 0.0
H1848 H 0.45634 0.66444 0.02438 0.0
H1849 H 0.48286 0.70643 0.03234 0.0
H1850 H 0.47077 0.68244 0.07103 0.0
H1851 H 0.32232 0.66236 0.05624 0.0
H1852 H 0.33375 0.63448 0.07575 0.0
H1853 H 0.32239 0.66642 0.10764 0.0
H1854 H 0.40729 0.57497 0.00936 0.0
H1855 H 0.43415 0.61421 0.12475 0.0
H1856 H 0.40011 0.63513 0.98471 0.0
H1857 H 0.35828 0.62591 0.0086 0.0
H1858 H 0.37243 0.59366 0.98191 0.0
H1859 H 0.42739 0.68334 0.13759 0.0
H1860 H 0.40875 0.65057 0.16583 0.0
H1861 H 0.38262 0.66543 0.14626 0.0
C1862 C 0.37965 0.33932 0.18309 0.0
C1863 C 0.34731 0.33938 0.19719 0.0
C1864 C 0.4021 0.36291 0.161 0.0
C1865 C 0.39188 0.38705 0.15255 0.0
C1866 C 0.35886 0.38655 0.16554 0.0
C1867 C 0.33696 0.3627 0.18769 0.0
C1868 C 0.43703 0.36247 0.14754 0.0
C1869 C 0.34703 0.41183 0.15715 0.0
C1870 C 0.46284 0.46548 0.13638 0.0
C1871 C 0.46861 0.46259 0.0956 0.0
C1872 C 0.43698 0.44173 0.1552 0.0
C1873 C 0.4166 0.4141 0.13272 0.0
C1874 C 0.42136 0.41166 0.09152 0.0
C1875 C 0.44719 0.43611 0.07343 0.0
C1876 C 0.43256 0.44548 0.19918 0.0
C1877 C 0.40034 0.38249 0.0665 0.0
H1878 H 0.38756 0.32094 0.18963 0.0
H1879 H 0.31189 0.36275 0.19825 0.0
H1880 H 0.443 0.36278 0.11563 0.0
H1881 H 0.45534 0.38446 0.16187 0.0
H1882 H 0.44037 0.34092 0.15435 0.0
H1883 H 0.31996 0.40675 0.16686 0.0
H1884 H 0.36123 0.43589 0.17226 0.0
H1885 H 0.35183 0.41329 0.12547 0.0
H1886 H 0.47924 0.48597 0.15365 0.0
H1887 H 0.45169 0.4336 0.04187 0.0
H1888 H 0.44008 0.42731 0.20844 0.0
H1889 H 0.40596 0.44105 0.21092 0.0
H1890 H 0.44785 0.46991 0.21242 0.0
H1891 H 0.40589 0.3609 0.06913 0.0
H1892 H 0.40516 0.38558 0.03524 0.0
H1893 H 0.3734 0.37754 0.07662 0.0
C1894 C 0.82794 0.67668 0.68421 0.0
C1895 C 0.84457 0.70986 0.69564 0.0
C1896 C 0.84556 0.65582 0.66501 0.0
C1897 C 0.8809 0.6682 0.65618 0.0
C1898 C 0.89765 0.70191 0.66643 0.0
C1899 C 0.87946 0.72211 0.68608 0.0
C1900 C 0.82628 0.62032 0.65473 0.0
C1901 C 0.93495 0.71677 0.6564 0.0
C1902 C 0.93409 0.61405 0.64412 0.0
C1903 C 0.93935 0.60536 0.60347 0.0
C1904 C 0.9145 0.63347 0.6614 0.0
C1905 C 0.9005 0.64593 0.63769 0.0
C1906 C 0.906 0.63748 0.59654 0.0
C1907 C 0.92466 0.6169 0.58015 0.0
C1908 C 0.90884 0.64071 0.70527 0.0
C1909 C 0.89255 0.65036 0.56949 0.0
H1910 H 0.80104 0.66676 0.69099 0.0
H1911 H 0.89269 0.74774 0.69369 0.0
H1912 H 0.8291 0.61336 0.62265 0.0
H1913 H 0.83645 0.60576 0.66736 0.0
H1914 H 0.79922 0.61406 0.66538 0.0
H1915 H 0.94413 0.7435 0.66421 0.0
H1916 H 0.94793 0.70676 0.67199 0.0
H1917 H 0.94195 0.71056 0.6247 0.0
H1918 H 0.94507 0.60527 0.66268 0.0
H1919 H 0.92876 0.61079 0.5489 0.0
H1920 H 0.88173 0.63464 0.71537 0.0
H1921 H 0.92118 0.66689 0.71487 0.0
H1922 H 0.91881 0.62706 0.71974 0.0
H1923 H 0.86569 0.63599 0.56813 0.0
H1924 H 0.90581 0.64867 0.53948 0.0
H1925 H 0.89482 0.67595 0.57999 0.0
C1926 C 0.3873 0.842 0.68575 0.0
C1927 C 0.35336 0.82952 0.68033 0.0
C1928 C 0.41014 0.86769 0.66735 0.0
C1929 C 0.39898 0.88145 0.64247 0.0
C1930 C 0.36499 0.86845 0.63566 0.0
C1931 C 0.34247 0.84269 0.65485 0.0
C1932 C 0.44607 0.88072 0.67557 0.0
C1933 C 0.35244 0.88197 0.60836 0.0
C1934 C 0.448 0.96954 0.63206 0.0
C1935 C 0.46737 0.96717 0.59577 0.0
C1936 C 0.42574 0.94184 0.64744 0.0
C1937 C 0.42249 0.91087 0.62599 0.0
C1938 C 0.44247 0.90818 0.58975 0.0
C1939 C 0.46473 0.93635 0.5751 0.0
C1940 C 0.4054 0.94577 0.68656 0.0
C1941 C 0.44001 0.87558 0.56622 0.0
H1942 H 0.39614 0.83229 0.70532 0.0
H1943 H 0.31642 0.83304 0.65008 0.0
H1944 H 0.46305 0.88075 0.64789 0.0
H1945 H 0.45246 0.90611 0.69025 0.0
H1946 H 0.45101 0.86643 0.69443 0.0
H1947 H 0.32518 0.86981 0.6069 0.0
H1948 H 0.35779 0.90826 0.61778 0.0
H1949 H 0.36583 0.8791 0.57863 0.0
H1950 H 0.44985 0.99316 0.64835 0.0
H1951 H 0.47935 0.93419 0.5469 0.0
H1952 H 0.41036 0.93286 0.70707 0.0
H1953 H 0.37841 0.9348 0.68334 0.0
H1954 H 0.41097 0.97153 0.69967 0.0
H1955 H 0.44544 0.86062 0.58368 0.0
H1956 H 0.45754 0.8776 0.5388 0.0
H1957 H 0.41419 0.86253 0.55875 0.0
C1958 C 0.18344 0.3712 0.65109 0.0
C1959 C 0.21765 0.38199 0.63824 0.0
C1960 C 0.16091 0.37553 0.63085 0.0
C1961 C 0.17328 0.3918 0.59781 0.0
C1962 C 0.20771 0.40058 0.58327 0.0
C1963 C 0.22947 0.39521 0.6036 0.0
C1964 C 0.12437 0.36517 0.64672 0.0
C1965 C 0.22205 0.41702 0.5474 0.0
C1966 C 0.11785 0.40574 0.53649 0.0
C1967 C 0.11976 0.43733 0.55281 0.0
C1968 C 0.13431 0.38981 0.55149 0.0
C1969 C 0.15216 0.40575 0.58388 0.0
C1970 C 0.1523 0.43692 0.6017 0.0
C1971 C 0.13624 0.45232 0.58579 0.0
C1972 C 0.13395 0.35673 0.53172 0.0
C1973 C 0.17128 0.45498 0.63606 0.0
H1974 H 0.17455 0.36064 0.67783 0.0
H1975 H 0.25604 0.403 0.59365 0.0
H1976 H 0.11831 0.38663 0.66251 0.0
H1977 H 0.10851 0.3543 0.62272 0.0
H1978 H 0.11789 0.34745 0.66727 0.0
H1979 H 0.21655 0.39852 0.52119 0.0
H1980 H 0.2109 0.43531 0.54635 0.0
H1981 H 0.2496 0.42907 0.54573 0.0
H1982 H 0.10527 0.39433 0.51075 0.0
H1983 H 0.1375 0.47672 0.59849 0.0
H1984 H 0.12416 0.33946 0.55314 0.0
H1985 H 0.1598 0.35764 0.52025 0.0
H1986 H 0.1185 0.34742 0.50722 0.0
H1987 H 0.1635 0.44008 0.65994 0.0
H1988 H 0.16738 0.47832 0.64767 0.0
H1989 H 0.19842 0.46001 0.62713 0.0
C1990 C 0.74255 0.20616 0.63636 0.0
C1991 C 0.75118 0.19914 0.66906 0.0
C1992 C 0.71932 0.18241 0.61323 0.0
C1993 C 0.7046 0.15054 0.62253 0.0
C1994 C 0.71435 0.14295 0.65451 0.0
C1995 C 0.73738 0.16733 0.67743 0.0
C1996 C 0.70962 0.19179 0.57967 0.0
C1997 C 0.69959 0.1093 0.66539 0.0
C1998 C 0.62058 0.09628 0.58742 0.0
C1999 C 0.6303 0.07674 0.55466 0.0
C2000 C 0.64442 0.12043 0.60965 0.0
C2001 C 0.67891 0.12528 0.59896 0.0
C2002 C 0.68887 0.10598 0.5656 0.0
C2003 C 0.66458 0.08209 0.54394 0.0
C2004 C 0.63267 0.14059 0.64482 0.0
C2005 C 0.72527 0.11036 0.55297 0.0
H2006 H 0.75331 0.23061 0.62947 0.0
H2007 H 0.74326 0.16178 0.70307 0.0
H2008 H 0.71285 0.1754 0.55239 0.0
H2009 H 0.68283 0.18924 0.58544 0.0
H2010 H 0.72459 0.21708 0.57499 0.0
H2011 H 0.71103 0.10689 0.68973 0.0
H2012 H 0.67232 0.10311 0.67423 0.0
H2013 H 0.70306 0.0914 0.63984 0.0
H2014 H 0.59426 0.09245 0.59605 0.0
H2015 H 0.67257 0.06734 0.51865 0.0
H2016 H 0.64465 0.16662 0.64191 0.0
H2017 H 0.64026 0.1371 0.67145 0.0
H2018 H 0.60512 0.13433 0.64888 0.0
H2019 H 0.73941 0.13552 0.54729 0.0
H2020 H 0.72901 0.09355 0.52624 0.0
H2021 H 0.73614 0.10627 0.57667 0.0
C2022 C 0.85084 0.32567 0.36893 0.0
C2023 C 0.83962 0.33595 0.34091 0.0
C2024 C 0.87208 0.34819 0.39502 0.0
C2025 C 0.88219 0.38156 0.39276 0.0
C2026 C 0.87083 0.39201 0.36463 0.0
C2027 C 0.84979 0.3691 0.33902 0.0
C2028 C 0.88393 0.33639 0.42473 0.0
C2029 C 0.88123 0.42744 0.3612 0.0
C2030 C 0.91572 0.44823 0.47452 0.0
C2031 C 0.94994 0.45918 0.46111 0.0
C2032 C 0.89344 0.42151 0.45377 0.0
C2033 C 0.90572 0.40584 0.4186 0.0
C2034 C 0.94038 0.41594 0.4058 0.0
C2035 C 0.96211 0.44238 0.42739 0.0
C2036 C 0.85661 0.4111 0.46843 0.0
C2037 C 0.95432 0.40003 0.36814 0.0
H2038 H 0.84302 0.30009 0.37054 0.0
H2039 H 0.84147 0.37729 0.31725 0.0
H2040 H 0.91156 0.34373 0.41992 0.0
H2041 H 0.87716 0.34771 0.45452 0.0
H2042 H 0.87309 0.3097 0.42333 0.0
H2043 H 0.86958 0.43149 0.33815 0.0
H2044 H 0.87418 0.44093 0.38935 0.0
H2045 H 0.90877 0.43784 0.35438 0.0
H2046 H 0.90622 0.46095 0.50077 0.0
H2047 H 0.98856 0.45061 0.41691 0.0
H2048 H 0.84601 0.38456 0.46823 0.0
H2049 H 0.84325 0.41704 0.44877 0.0
H2050 H 0.85163 0.42322 0.49843 0.0
H2051 H 0.94479 0.3734 0.36711 0.0
H2052 H 0.98206 0.40875 0.36424 0.0
H2053 H 0.94595 0.40522 0.34315 0.0
C2054 C 0.73769 0.86117 0.30779 0.0
C2055 C 0.73401 0.83163 0.31904 0.0
C2056 C 0.71889 0.8806 0.32796 0.0
C2057 C 0.69533 0.87071 0.36077 0.0
C2058 C 0.6919 0.84128 0.37291 0.0
C2059 C 0.71086 0.82211 0.35182 0.0
C2060 C 0.7238 0.91126 0.31282 0.0
C2061 C 0.66775 0.82972 0.40798 0.0
C2062 C 0.66258 0.93518 0.42703 0.0
C2063 C 0.63227 0.92919 0.41289 0.0
C2064 C 0.68288 0.91601 0.41126 0.0
C2065 C 0.67292 0.89001 0.3804 0.0
C2066 C 0.64216 0.88367 0.36651 0.0
C2067 C 0.6224 0.90305 0.38281 0.0
C2068 C 0.7155 0.92412 0.42691 0.0
C2069 C 0.63038 0.85674 0.33352 0.0
H2070 H 0.75508 0.86915 0.28255 0.0
H2071 H 0.70722 0.79948 0.36094 0.0
H2072 H 0.70632 0.90563 0.29096 0.0
H2073 H 0.71893 0.93005 0.33624 0.0
H2074 H 0.74963 0.92148 0.29832 0.0
H2075 H 0.66962 0.80773 0.41555 0.0
H2076 H 0.67248 0.84902 0.43356 0.0
H2077 H 0.64182 0.8242 0.40214 0.0
H2078 H 0.67079 0.95523 0.45004 0.0
H2079 H 0.59916 0.89784 0.3714 0.0
H2080 H 0.73649 0.93024 0.40316 0.0
H2081 H 0.7159 0.90279 0.43768 0.0
H2082 H 0.71978 0.94477 0.45103 0.0
H2083 H 0.6483 0.86183 0.30676 0.0
H2084 H 0.60522 0.85374 0.32714 0.0
H2085 H 0.62958 0.83356 0.34065 0.0
C2086 C 0.18586 0.69962 0.31746 0.0
C2087 C 0.21721 0.71771 0.33019 0.0
C2088 C 0.16275 0.67435 0.3367 0.0
C2089 C 0.17089 0.66692 0.36982 0.0
C2090 C 0.20176 0.68616 0.38407 0.0
C2091 C 0.22445 0.71138 0.36419 0.0
C2092 C 0.13036 0.65444 0.32017 0.0
C2093 C 0.21141 0.67926 0.4194 0.0
C2094 C 0.1035 0.60864 0.43327 0.0
C2095 C 0.1089 0.57937 0.41817 0.0
C2096 C 0.12314 0.63736 0.4177 0.0
C2097 C 0.14893 0.63687 0.38656 0.0
C2098 C 0.15388 0.60727 0.37084 0.0
C2099 C 0.13391 0.5791 0.38662 0.0
C2100 C 0.11658 0.66827 0.43478 0.0
C2101 C 0.18129 0.60551 0.33824 0.0
H2102 H 0.17973 0.70433 0.29141 0.0
H2103 H 0.24812 0.72578 0.37493 0.0
H2104 H 0.13096 0.63007 0.30702 0.0
H2105 H 0.10898 0.65116 0.34362 0.0
H2106 H 0.12593 0.66563 0.29737 0.0
H2107 H 0.23498 0.69791 0.42865 0.0
H2108 H 0.19127 0.678 0.44413 0.0
H2109 H 0.2147 0.65539 0.41283 0.0
H2110 H 0.08435 0.60927 0.45766 0.0
H2111 H 0.13854 0.55681 0.37453 0.0
H2112 H 0.11184 0.67874 0.41153 0.0
H2113 H 0.13894 0.6863 0.44741 0.0
H2114 H 0.09486 0.66448 0.45788 0.0
H2115 H 0.17975 0.6163 0.31337 0.0
H2116 H 0.18066 0.58036 0.32752 0.0
H2117 H 0.2056 0.61975 0.34915 0.0
C2118 C 0.40095 0.16618 0.35202 0.0
C2119 C 0.40547 0.19905 0.36291 0.0
C2120 C 0.40925 0.14943 0.37558 0.0
C2121 C 0.42266 0.1661 0.41068 0.0
C2122 C 0.42573 0.19891 0.42278 0.0
C2123 C 0.41701 0.21504 0.3987 0.0
C2124 C 0.40491 0.11423 0.36207 0.0
C2125 C 0.43953 0.2173 0.46028 0.0
C2126 C 0.42591 0.11228 0.47838 0.0
C2127 C 0.45873 0.11259 0.46821 0.0
C2128 C 0.41427 0.13111 0.46156 0.0
C2129 C 0.43574 0.14971 0.43296 0.0
C2130 C 0.46929 0.15079 0.4235 0.0
C2131 C 0.48056 0.13249 0.44176 0.0
C2132 C 0.37868 0.13006 0.47327 0.0
C2133 C 0.49277 0.17 0.39272 0.0
H2134 H 0.3914 0.15371 0.32466 0.0
H2135 H 0.42049 0.24049 0.40711 0.0
H2136 H 0.42976 0.11142 0.3554 0.0
H2137 H 0.39052 0.09962 0.38549 0.0
H2138 H 0.39182 0.10428 0.33563 0.0
H2139 H 0.43696 0.24151 0.46755 0.0
H2140 H 0.42663 0.20349 0.48483 0.0
H2141 H 0.46641 0.22055 0.45761 0.0
H2142 H 0.40923 0.09696 0.4992 0.0
H2143 H 0.50586 0.13239 0.43381 0.0
H2144 H 0.36377 0.11687 0.44884 0.0
H2145 H 0.3777 0.15486 0.47964 0.0
H2146 H 0.36677 0.1178 0.49933 0.0
H2147 H 0.48318 0.1601 0.36406 0.0
H2148 H 0.51844 0.1694 0.38998 0.0
H2149 H 0.49403 0.19554 0.39962 0.0
C2150 C 0.67625 0.87694 0.66048 0.0
C2151 C 0.67623 0.84547 0.64679 0.0
C2152 C 0.66843 0.89419 0.63712 0.0
C2153 C 0.66076 0.87974 0.59891 0.0
C2154 C 0.6632 0.84899 0.5838 0.0
C2155 C 0.67072 0.83207 0.60805 0.0
C2156 C 0.66666 0.9272 0.65413 0.0
C2157 C 0.65621 0.83326 0.54277 0.0
C2158 C 0.60033 0.90756 0.56312 0.0
C2159 C 0.62232 0.93227 0.54262 0.0
C2160 C 0.61254 0.88949 0.5806 0.0
C2161 C 0.64742 0.89579 0.57641 0.0
C2162 C 0.66948 0.91939 0.55359 0.0
C2163 C 0.65668 0.9377 0.53747 0.0
C2164 C 0.5883 0.86483 0.60523 0.0
C2165 C 0.70664 0.92601 0.54726 0.0
H2166 H 0.68148 0.88778 0.69001 0.0
H2167 H 0.67077 0.80779 0.59721 0.0
H2168 H 0.68194 0.94512 0.63451 0.0
H2169 H 0.64047 0.9263 0.65693 0.0
H2170 H 0.67551 0.93584 0.68332 0.0
H2171 H 0.66431 0.81194 0.53345 0.0
H2172 H 0.629 0.82519 0.5411 0.0
H2173 H 0.669 0.85075 0.52188 0.0
H2174 H 0.57379 0.9035 0.56719 0.0
H2175 H 0.67367 0.95663 0.52119 0.0
H2176 H 0.59364 0.8723 0.63597 0.0
H2177 H 0.59141 0.84102 0.59518 0.0
H2178 H 0.5619 0.86192 0.60434 0.0
H2179 H 0.71702 0.935 0.57551 0.0
H2180 H 0.72014 0.94416 0.52725 0.0
H2181 H 0.71165 0.90333 0.53493 0.0
C2182 C 0.69569 0.1845 0.30978 0.0
C2183 C 0.71376 0.21466 0.32913 0.0
C2184 C 0.67265 0.16033 0.33028 0.0
C2185 C 0.66754 0.16633 0.37144 0.0
C2186 C 0.68398 0.19755 0.39119 0.0
C2187 C 0.707 0.2215 0.36969 0.0
C2188 C 0.65544 0.12766 0.30782 0.0
C2189 C 0.67901 0.2051 0.43503 0.0
C2190 C 0.59472 0.09999 0.41627 0.0
C2191 C 0.61079 0.07929 0.42073 0.0
C2192 C 0.61302 0.12941 0.40194 0.0
C2193 C 0.64818 0.13857 0.39303 0.0
C2194 C 0.66458 0.11855 0.3998 0.0
C2195 C 0.64565 0.08897 0.41299 0.0
C2196 C 0.59469 0.15003 0.39484 0.0
C2197 C 0.7021 0.12783 0.39181 0.0
H2198 H 0.70029 0.17937 0.2784 0.0
H2199 H 0.72084 0.24491 0.38472 0.0
H2200 H 0.66538 0.10974 0.31338 0.0
H2201 H 0.62821 0.11917 0.31762 0.0
H2202 H 0.65929 0.1281 0.27591 0.0
H2203 H 0.68673 0.23157 0.44501 0.0
H2204 H 0.65256 0.19352 0.44682 0.0
H2205 H 0.69439 0.19544 0.44746 0.0
H2206 H 0.56778 0.09274 0.42288 0.0
H2207 H 0.65821 0.07345 0.41764 0.0
H2208 H 0.59644 0.14988 0.36304 0.0
H2209 H 0.6064 0.1755 0.4081 0.0
H2210 H 0.56788 0.14126 0.4068 0.0
H2211 H 0.70998 0.12707 0.35997 0.0
H2212 H 0.7112 0.1114 0.40255 0.0
H2213 H 0.71439 0.1529 0.40589 0.0
C2214 C 0.86533 0.65345 0.37865 0.0
C2215 C 0.85794 0.67878 0.40416 0.0
C2216 C 0.88857 0.64132 0.38647 0.0
C2217 C 0.9047 0.65497 0.42053 0.0
C2218 C 0.89952 0.68249 0.44429 0.0
C2219 C 0.87599 0.69389 0.43594 0.0
C2220 C 0.89371 0.61223 0.36009 0.0
C2221 C 0.91615 0.69836 0.48072 0.0
C2222 C 0.91606 0.59474 0.47203 0.0
C2223 C 0.95064 0.60172 0.46519 0.0
C2224 C 0.90114 0.6124 0.45826 0.0
C2225 C 0.92112 0.63675 0.43537 0.0
C2226 C 0.95611 0.64364 0.42765 0.0
C2227 C 0.97066 0.62635 0.44336 0.0
C2228 C 0.86396 0.60515 0.46867 0.0
C2229 C 0.97792 0.669 0.40266 0.0
H2230 H 0.85147 0.64182 0.35391 0.0
H2231 H 0.87076 0.71394 0.45524 0.0
H2232 H 0.92057 0.61505 0.35472 0.0
H2233 H 0.88021 0.59036 0.37441 0.0
H2234 H 0.88422 0.60815 0.33166 0.0
H2235 H 0.92184 0.7249 0.48499 0.0
H2236 H 0.89859 0.68896 0.50621 0.0
H2237 H 0.93958 0.69376 0.48023 0.0
H2238 H 0.90059 0.57578 0.48912 0.0
H2239 H 0.99738 0.63138 0.43764 0.0
H2240 H 0.85146 0.59668 0.44183 0.0
H2241 H 0.85906 0.62745 0.48347 0.0
H2242 H 0.85239 0.58639 0.48823 0.0
H2243 H 0.96988 0.66235 0.37311 0.0
H2244 H 1.00473 0.67186 0.39989 0.0
H2245 H 0.97504 0.69263 0.4152 0.0
C2246 C 0.32673 0.84343 0.37226 0.0
C2247 C 0.33013 0.84614 0.33274 0.0
C2248 C 0.34905 0.86651 0.39721 0.0
C2249 C 0.37453 0.8936 0.38263 0.0
C2250 C 0.37681 0.89714 0.34312 0.0
C2251 C 0.35531 0.87294 0.31855 0.0
C2252 C 0.34641 0.86108 0.43867 0.0
C2253 C 0.40269 0.9259 0.3262 0.0
C2254 C 0.41529 0.96838 0.45379 0.0
C2255 C 0.4468 0.96637 0.45403 0.0
C2256 C 0.3916 0.94487 0.431 0.0
C2257 C 0.39907 0.91807 0.40833 0.0
C2258 C 0.43055 0.9155 0.409 0.0
C2259 C 0.45413 0.93979 0.43148 0.0
C2260 C 0.35891 0.94923 0.43025 0.0
C2261 C 0.43949 0.88721 0.38563 0.0
H2262 H 0.30795 0.82223 0.38304 0.0
H2263 H 0.35862 0.87474 0.28787 0.0
H2264 H 0.36986 0.85872 0.44351 0.0
H2265 H 0.34326 0.88218 0.45927 0.0
H2266 H 0.32519 0.83899 0.44566 0.0
H2267 H 0.397 0.92817 0.29773 0.0
H2268 H 0.40438 0.94864 0.34641 0.0
H2269 H 0.42753 0.92321 0.32167 0.0
H2270 H 0.40934 0.98889 0.47075 0.0
H2271 H 0.47827 0.93789 0.43151 0.0
H2272 H 0.33767 0.92792 0.43926 0.0
H2273 H 0.35652 0.95098 0.40008 0.0
H2274 H 0.35673 0.97125 0.4497 0.0
H2275 H 0.41969 0.86414 0.39215 0.0
H2276 H 0.46372 0.8873 0.39168 0.0
H2277 H 0.44113 0.88787 0.35406 0.0
C2278 C 0.2468 0.36361 0.32866 0.0
C2279 C 0.23068 0.32992 0.32131 0.0
C2280 C 0.22911 0.38447 0.34713 0.0
C2281 C 0.19445 0.37149 0.36013 0.0
C2282 C 0.17833 0.33737 0.35402 0.0
C2283 C 0.1964 0.31715 0.33416 0.0
C2284 C 0.24745 0.42051 0.35176 0.0
C2285 C 0.14183 0.32215 0.36843 0.0
C2286 C 0.15342 0.4258 0.43431 0.0
C2287 C 0.13526 0.43343 0.41103 0.0
C2288 C 0.17242 0.4055 0.41846 0.0
C2289 C 0.17464 0.39351 0.37791 0.0
C2290 C 0.1574 0.40231 0.35413 0.0
C2291 C 0.13757 0.42146 0.37098 0.0
C2292 C 0.18933 0.39615 0.44538 0.0
C2293 C 0.1599 0.39152 0.31063 0.0
H2294 H 0.27326 0.37386 0.31894 0.0
H2295 H 0.18371 0.2912 0.32917 0.0
H2296 H 0.23486 0.43226 0.33804 0.0
H2297 H 0.24693 0.43073 0.38311 0.0
H2298 H 0.27393 0.42687 0.33845 0.0
H2299 H 0.13368 0.29537 0.36486 0.0
H2300 H 0.13682 0.33145 0.39971 0.0
H2301 H 0.1264 0.32878 0.35217 0.0
H2302 H 0.15199 0.43492 0.46517 0.0
H2303 H 0.12408 0.42746 0.35248 0.0
H2304 H 0.21663 0.40378 0.43617 0.0
H2305 H 0.17985 0.36947 0.44389 0.0
H2306 H 0.18493 0.40718 0.47607 0.0
H2307 H 0.18653 0.39835 0.29791 0.0
H2308 H 0.14707 0.40228 0.29577 0.0
H2309 H 0.14863 0.36482 0.30438 0.0
C2310 C 0.34925 0.20414 0.65183 0.0
C2311 C 0.34964 0.21486 0.69214 0.0
C2312 C 0.36744 0.18425 0.63113 0.0
C2313 C 0.38603 0.17365 0.65116 0.0
C2314 C 0.38579 0.18362 0.69206 0.0
C2315 C 0.36795 0.2041 0.71183 0.0
C2316 C 0.36714 0.17496 0.58759 0.0
C2317 C 0.40453 0.17264 0.71508 0.0
C2318 C 0.4117 0.09944 0.60549 0.0
C2319 C 0.44614 0.11369 0.59435 0.0
C2320 C 0.3918 0.11849 0.62354 0.0
C2321 C 0.40626 0.15281 0.62953 0.0
C2322 C 0.44066 0.1672 0.61621 0.0
C2323 C 0.46017 0.1476 0.59965 0.0
C2324 C 0.35553 0.1018 0.63764 0.0
C2325 C 0.45712 0.20347 0.62016 0.0
H2326 H 0.33451 0.21115 0.63627 0.0
H2327 H 0.36839 0.2117 0.74295 0.0
H2328 H 0.39276 0.18531 0.57257 0.0
H2329 H 0.35922 0.14832 0.57957 0.0
H2330 H 0.35021 0.18365 0.57646 0.0
H2331 H 0.40086 0.18125 0.74682 0.0
H2332 H 0.39617 0.14585 0.71046 0.0
H2333 H 0.43163 0.18175 0.70467 0.0
H2334 H 0.40061 0.0733 0.60183 0.0
H2335 H 0.48666 0.15889 0.59089 0.0
H2336 H 0.33943 0.11042 0.62495 0.0
H2337 H 0.35113 0.10794 0.66979 0.0
H2338 H 0.34768 0.07509 0.63 0.0
H2339 H 0.44268 0.21399 0.60745 0.0
H2340 H 0.48322 0.21096 0.60553 0.0
H2341 H 0.45738 0.21388 0.65145 0.0
C2342 C 0.8614 0.35667 0.69475 0.0
C2343 C 0.85862 0.32404 0.68335 0.0
C2344 C 0.88504 0.3813 0.67532 0.0
C2345 C 0.90709 0.3736 0.64338 0.0
C2346 C 0.90568 0.34101 0.63253 0.0
C2347 C 0.88144 0.31648 0.65271 0.0
C2348 C 0.88572 0.41562 0.68855 0.0
C2349 C 0.92898 0.33199 0.59874 0.0
C2350 C 0.937 0.43705 0.57566 0.0
C2351 C 0.96768 0.45723 0.58831 0.0
C2352 C 0.91824 0.40832 0.59115 0.0
C2353 C 0.93012 0.39988 0.62074 0.0
C2354 C 0.96194 0.41956 0.63235 0.0
C2355 C 0.98046 0.44799 0.6158 0.0
C2356 C 0.88484 0.38796 0.5773 0.0
C2357 C 0.97551 0.41161 0.66385 0.0
H2358 H 0.84484 0.36326 0.7192 0.0
H2359 H 0.87983 0.29152 0.64389 0.0
H2360 H 0.91137 0.43203 0.69371 0.0
H2361 H 0.87825 0.42402 0.66542 0.0
H2362 H 0.8686 0.4179 0.71571 0.0
H2363 H 0.93057 0.30818 0.59955 0.0
H2364 H 0.91978 0.33097 0.57105 0.0
H2365 H 0.95453 0.35026 0.59857 0.0
H2366 H 0.92728 0.44419 0.55421 0.0
H2367 H 1.00427 0.46364 0.62547 0.0
H2368 H 0.86452 0.39027 0.60064 0.0
H2369 H 0.88236 0.36207 0.57093 0.0
H2370 H 0.88126 0.39537 0.55073 0.0
H2371 H 0.96081 0.41587 0.69237 0.0
H2372 H 1.00218 0.42662 0.66592 0.0
H2373 H 0.973 0.38572 0.65844 0.0
C2374 C 0.23213 0.71525 0.63329 0.0
C2375 C 0.23408 0.70732 0.66885 0.0
C2376 C 0.21165 0.69224 0.6068 0.0
C2377 C 0.19241 0.66116 0.61689 0.0
C2378 C 0.19377 0.65352 0.65333 0.0
C2379 C 0.21485 0.67664 0.67869 0.0
C2380 C 0.21107 0.70084 0.56785 0.0
C2381 C 0.17322 0.62083 0.66548 0.0
C2382 C 0.11532 0.60505 0.57172 0.0
C2383 C 0.12715 0.58143 0.54844 0.0
C2384 C 0.13688 0.63244 0.5923 0.0
C2385 C 0.17095 0.63612 0.58955 0.0
C2386 C 0.18343 0.61334 0.56437 0.0
C2387 C 0.16134 0.58624 0.54395 0.0
C2388 C 0.12278 0.65635 0.61886 0.0
C2389 C 0.21966 0.61648 0.56091 0.0
H2390 H 0.2473 0.73902 0.62581 0.0
H2391 H 0.21617 0.67077 0.7065 0.0
H2392 H 0.2202 0.68474 0.54406 0.0
H2393 H 0.18509 0.69698 0.56371 0.0
H2394 H 0.22681 0.72632 0.56494 0.0
H2395 H 0.17649 0.61929 0.69543 0.0
H2396 H 0.14634 0.61561 0.66435 0.0
H2397 H 0.18044 0.60167 0.64496 0.0
H2398 H 0.08898 0.60169 0.5748 0.0
H2399 H 0.17067 0.56815 0.52582 0.0
H2400 H 0.13849 0.68143 0.61419 0.0
H2401 H 0.12289 0.65445 0.64969 0.0
H2402 H 0.09675 0.65203 0.61427 0.0
H2403 H 0.23626 0.64131 0.55619 0.0
H2404 H 0.22619 0.59899 0.53669 0.0
H2405 H 0.22483 0.61206 0.58849 0.0
loop_
_geom_bond_atom_site_label_1
_geom_bond_atom_site_label_2
_geom_bond_distance
_geom_bond_site_symmetry_2
_ccdc_geom_bond_type
Eu0 N29 2.600 . S
Eu0 N35 2.562 . S
Eu0 O44 2.462 . S
Eu0 O45 2.373 . S
Eu0 O47 2.432 . S
Eu0 O48 2.291 . S
Eu0 O52 2.335 . S
Eu0 O55 2.372 . S
Eu0 C64 2.787 . S
C1 N2 1.365 . S
C1 C4 1.405 . S
C1 C8 1.448 . S
N2 C1 1.365 . S
N2 C5 1.319 . S
N2 Eu11 2.600 . S
C3 C5 1.397 . S
C3 C6 1.367 . S
C3 H23 0.931 . S
C4 C1 1.405 . S
C4 C6 1.403 . S
C4 C10 1.439 . S
C5 N2 1.319 . S
C5 C3 1.397 . S
C5 H16 0.930 . S
C6 C3 1.367 . S
C6 C4 1.403 . S
C6 H27 0.929 . S
C7 C8 1.430 . S
C7 C9 1.387 . S
C7 C13 1.404 . S
C8 C1 1.448 . S
C8 C7 1.430 . S
C8 N12 1.351 . S
C9 C7 1.387 . S
C9 C10 1.374 . S
C9 H24 0.931 . S
C10 C4 1.439 . S
C10 C9 1.374 . S
C10 H25 0.931 . S
Eu11 N2 2.600 . S
Eu11 N12 2.562 . S
Eu11 O46 2.335 . S
Eu11 O49 2.372 . S
Eu11 O50 2.462 . S
Eu11 O51 2.373 . S
Eu11 O53 2.432 . S
Eu11 O54 2.291 . S
Eu11 C75 2.787 . S
N12 C8 1.351 . S
N12 Eu11 2.562 . S
N12 C14 1.325 . S
C13 C7 1.404 . S
C13 C15 1.366 . S
C13 H21 0.930 . S
C14 N12 1.325 . S
C14 C15 1.416 . S
C14 H20 0.929 . S
C15 C13 1.366 . S
C15 C14 1.416 . S
C15 H17 0.930 . S
H16 C5 0.930 . S
H17 C15 0.930 . S
H18 C33 0.930 . S
H19 C40 0.930 . S
H20 C14 0.929 . S
H21 C13 0.930 . S
H22 C36 0.929 . S
H23 C3 0.931 . S
H24 C9 0.931 . S
H25 C10 0.931 . S
H26 C31 0.931 . S
H27 C6 0.929 . S
H28 C39 0.930 . S
N29 Eu0 2.600 . S
N29 C30 1.365 . S
N29 C33 1.319 . S
C30 N29 1.365 . S
C30 C32 1.405 . S
C30 C38 1.448 . S
C31 H26 0.931 . S
C31 C33 1.397 . S
C31 C34 1.367 . S
C32 C30 1.405 . S
C32 C34 1.403 . S
C32 C65 1.439 . S
C33 H18 0.930 . S
C33 N29 1.319 . S
C33 C31 1.397 . S
C34 C31 1.367 . S
C34 C32 1.403 . S
C34 H41 0.929 . S
N35 Eu0 2.562 . S
N35 C36 1.325 . S
N35 C38 1.351 . S
C36 H22 0.929 . S
C36 N35 1.325 . S
C36 C40 1.416 . S
C37 C38 1.430 . S
C37 C39 1.404 . S
C37 C66 1.387 . S
C38 C30 1.448 . S
C38 N35 1.351 . S
C38 C37 1.430 . S
C39 H28 0.930 . S
C39 C37 1.404 . S
C39 C40 1.366 . S
C40 H19 0.930 . S
C40 C36 1.416 . S
C40 C39 1.366 . S
H41 C34 0.929 . S
H42 C65 0.931 . S
H43 C66 0.931 . S
O44 Eu0 2.462 . S
O44 C64 1.252 . S
O45 Eu0 2.373 . S
O45 C56 1.249 . S
O46 Eu11 2.335 . S
O46 C56 1.264 . S
O47 Eu0 2.432 . S
O47 C64 1.268 . S
O48 Eu0 2.291 . S
O48 C63 1.255 . S
O49 Eu11 2.372 . S
O49 C63 1.257 . S
O50 Eu11 2.462 . S
O50 C75 1.252 . S
O51 Eu11 2.373 . S
O51 C67 1.249 . S
O52 Eu0 2.335 . S
O52 C67 1.264 . S
O53 Eu11 2.432 . S
O53 C75 1.268 . S
O54 Eu11 2.291 . S
O54 C74 1.255 . S
O55 Eu0 2.372 . S
O55 C74 1.257 . S
C56 O45 1.249 . S
C56 O46 1.264 . S
C57 C60 1.382 . S
C57 C62 1.390 . S
C57 C64 1.506 . S
C58 C59 1.398 . S
C58 C62 1.392 . S
C59 C58 1.398 . S
C59 C61 1.372 . S
C59 H76 0.931 . S
C60 C57 1.382 . S
C60 C61 1.390 . S
C60 H77 0.931 . S
C61 C59 1.372 . S
C61 C60 1.390 . S
C61 H78 0.929 . S
C62 C57 1.390 . S
C62 C58 1.392 . S
C62 H79 0.930 . S
C63 O48 1.255 . S
C63 O49 1.257 . S
C64 Eu0 2.787 . S
C64 O44 1.252 . S
C64 O47 1.268 . S
C64 C57 1.506 . S
C65 C32 1.439 . S
C65 H42 0.931 . S
C65 C66 1.374 . S
C66 C37 1.387 . S
C66 H43 0.931 . S
C66 C65 1.374 . S
C67 O51 1.249 . S
C67 O52 1.264 . S
C68 C71 1.382 . S
C68 C72 1.390 . S
C68 C75 1.506 . S
C69 C70 1.398 . S
C69 C72 1.392 . S
C70 C69 1.398 . S
C70 C73 1.372 . S
C70 H80 0.931 . S
C71 C68 1.382 . S
C71 C73 1.390 . S
C71 H81 0.931 . S
C72 C68 1.390 . S
C72 C69 1.392 . S
C72 H82 0.930 . S
C73 C70 1.372 . S
C73 C71 1.390 . S
C73 H83 0.929 . S
C74 O54 1.255 . S
C74 O55 1.257 . S
C75 Eu11 2.787 . S
C75 O50 1.252 . S
C75 O53 1.268 . S
C75 C68 1.506 . S
H76 C59 0.931 . S
H77 C60 0.931 . S
H78 C61 0.929 . S
H79 C62 0.930 . S
H80 C70 0.931 . S
H81 C71 0.931 . S
H82 C72 0.930 . S
H83 C73 0.929 . S
Eu84 N113 2.600 . S
Eu84 N119 2.562 . S
Eu84 O128 2.462 . S
Eu84 O129 2.373 . S
Eu84 O131 2.432 . S
Eu84 O132 2.291 . S
Eu84 O136 2.335 . S
Eu84 O139 2.372 . S
Eu84 C148 2.787 . S
C85 N86 1.365 . S
C85 C88 1.405 . S
C85 C92 1.448 . S
N86 C85 1.365 . S
N86 C89 1.319 . S
N86 Eu95 2.600 . S
C87 C89 1.397 . S
C87 C90 1.367 . S
C87 H107 0.931 . S
C88 C85 1.405 . S
C88 C90 1.403 . S
C88 C94 1.439 . S
C89 N86 1.319 . S
C89 C87 1.397 . S
C89 H100 0.930 . S
C90 C87 1.367 . S
C90 C88 1.403 . S
C90 H111 0.929 . S
C91 C92 1.430 . S
C91 C93 1.387 . S
C91 C97 1.404 . S
C92 C85 1.448 . S
C92 C91 1.430 . S
C92 N96 1.351 . S
C93 C91 1.387 . S
C93 C94 1.374 . S
C93 H108 0.931 . S
C94 C88 1.439 . S
C94 C93 1.374 . S
C94 H109 0.931 . S
Eu95 N86 2.600 . S
Eu95 N96 2.562 . S
Eu95 O130 2.335 . S
Eu95 O133 2.372 . S
Eu95 O134 2.462 . S
Eu95 O135 2.373 . S
Eu95 O137 2.432 . S
Eu95 O138 2.291 . S
Eu95 C159 2.787 . S
N96 C92 1.351 . S
N96 Eu95 2.562 . S
N96 C98 1.325 . S
C97 C91 1.404 . S
C97 C99 1.366 . S
C97 H105 0.930 . S
C98 N96 1.325 . S
C98 C99 1.416 . S
C98 H104 0.929 . S
C99 C97 1.366 . S
C99 C98 1.416 . S
C99 H101 0.930 . S
H100 C89 0.930 . S
H101 C99 0.930 . S
H102 C117 0.930 . S
H103 C124 0.930 . S
H104 C98 0.929 . S
H105 C97 0.930 . S
H106 C120 0.929 . S
H107 C87 0.931 . S
H108 C93 0.931 . S
H109 C94 0.931 . S
H110 C115 0.931 . S
H111 C90 0.929 . S
H112 C123 0.930 . S
N113 Eu84 2.600 . S
N113 C114 1.365 . S
N113 C117 1.319 . S
C114 N113 1.365 . S
C114 C116 1.405 . S
C114 C122 1.448 . S
C115 H110 0.931 . S
C115 C117 1.397 . S
C115 C118 1.367 . S
C116 C114 1.405 . S
C116 C118 1.403 . S
C116 C149 1.439 . S
C117 H102 0.930 . S
C117 N113 1.319 . S
C117 C115 1.397 . S
C118 C115 1.367 . S
C118 C116 1.403 . S
C118 H125 0.929 . S
N119 Eu84 2.562 . S
N119 C120 1.325 . S
N119 C122 1.351 . S
C120 H106 0.929 . S
C120 N119 1.325 . S
C120 C124 1.416 . S
C121 C122 1.430 . S
C121 C123 1.404 . S
C121 C150 1.387 . S
C122 C114 1.448 . S
C122 N119 1.351 . S
C122 C121 1.430 . S
C123 H112 0.930 . S
C123 C121 1.404 . S
C123 C124 1.366 . S
C124 H103 0.930 . S
C124 C120 1.416 . S
C124 C123 1.366 . S
H125 C118 0.929 . S
H126 C149 0.931 . S
H127 C150 0.931 . S
O128 Eu84 2.462 . S
O128 C148 1.252 . S
O129 Eu84 2.373 . S
O129 C140 1.249 . S
O130 Eu95 2.335 . S
O130 C140 1.264 . S
O131 Eu84 2.432 . S
O131 C148 1.268 . S
O132 Eu84 2.291 . S
O132 C147 1.255 . S
O133 Eu95 2.372 . S
O133 C147 1.257 . S
O134 Eu95 2.462 . S
O134 C159 1.252 . S
O135 Eu95 2.373 . S
O135 C151 1.249 . S
O136 Eu84 2.335 . S
O136 C151 1.264 . S
O137 Eu95 2.432 . S
O137 C159 1.268 . S
O138 Eu95 2.291 . S
O138 C158 1.255 . S
O139 Eu84 2.372 . S
O139 C158 1.257 . S
C140 O129 1.249 . S
C140 O130 1.264 . S
C141 C144 1.382 . S
C141 C146 1.390 . S
C141 C148 1.506 . S
C142 C143 1.398 . S
C142 C146 1.392 . S
C143 C142 1.398 . S
C143 C145 1.372 . S
C143 H160 0.931 . S
C144 C141 1.382 . S
C144 C145 1.390 . S
C144 H161 0.931 . S
C145 C143 1.372 . S
C145 C144 1.390 . S
C145 H162 0.929 . S
C146 C141 1.390 . S
C146 C142 1.392 . S
C146 H163 0.930 . S
C147 O132 1.255 . S
C147 O133 1.257 . S
C148 Eu84 2.787 . S
C148 O128 1.252 . S
C148 O131 1.268 . S
C148 C141 1.506 . S
C149 C116 1.439 . S
C149 H126 0.931 . S
C149 C150 1.374 . S
C150 C121 1.387 . S
C150 H127 0.931 . S
C150 C149 1.374 . S
C151 O135 1.249 . S
C151 O136 1.264 . S
C152 C155 1.382 . S
C152 C156 1.390 . S
C152 C159 1.506 . S
C153 C154 1.398 . S
C153 C156 1.392 . S
C154 C153 1.398 . S
C154 C157 1.372 . S
C154 H164 0.931 . S
C155 C152 1.382 . S
C155 C157 1.390 . S
C155 H165 0.931 . S
C156 C152 1.390 . S
C156 C153 1.392 . S
C156 H166 0.930 . S
C157 C154 1.372 . S
C157 C155 1.390 . S
C157 H167 0.929 . S
C158 O138 1.255 . S
C158 O139 1.257 . S
C159 Eu95 2.787 . S
C159 O134 1.252 . S
C159 O137 1.268 . S
C159 C152 1.506 . S
H160 C143 0.931 . S
H161 C144 0.931 . S
H162 C145 0.929 . S
H163 C146 0.930 . S
H164 C154 0.931 . S
H165 C155 0.931 . S
H166 C156 0.930 . S
H167 C157 0.929 . S
Eu168 N197 2.600 . S
Eu168 N203 2.562 . S
Eu168 O212 2.462 . S
Eu168 O213 2.373 . S
Eu168 O215 2.432 . S
Eu168 O216 2.291 . S
Eu168 O220 2.335 . S
Eu168 O223 2.372 . S
Eu168 C232 2.787 . S
C169 N170 1.365 . S
C169 C172 1.405 . S
C169 C176 1.448 . S
N170 C169 1.365 . S
N170 C173 1.319 . S
N170 Eu179 2.600 . S
C171 C173 1.397 . S
C171 C174 1.367 . S
C171 H191 0.931 . S
C172 C169 1.405 . S
C172 C174 1.403 . S
C172 C178 1.439 . S
C173 N170 1.319 . S
C173 C171 1.397 . S
C173 H184 0.930 . S
C174 C171 1.367 . S
C174 C172 1.403 . S
C174 H195 0.929 . S
C175 C176 1.430 . S
C175 C177 1.387 . S
C175 C181 1.404 . S
C176 C169 1.448 . S
C176 C175 1.430 . S
C176 N180 1.351 . S
C177 C175 1.387 . S
C177 C178 1.374 . S
C177 H192 0.931 . S
C178 C172 1.439 . S
C178 C177 1.374 . S
C178 H193 0.931 . S
Eu179 N170 2.600 . S
Eu179 N180 2.562 . S
Eu179 O214 2.335 . S
Eu179 O217 2.372 . S
Eu179 O218 2.462 . S
Eu179 O219 2.373 . S
Eu179 O221 2.432 . S
Eu179 O222 2.291 . S
Eu179 C243 2.787 . S
N180 C176 1.351 . S
N180 Eu179 2.562 . S
N180 C182 1.325 . S
C181 C175 1.404 . S
C181 C183 1.366 . S
C181 H189 0.930 . S
C182 N180 1.325 . S
C182 C183 1.416 . S
C182 H188 0.929 . S
C183 C181 1.366 . S
C183 C182 1.416 . S
C183 H185 0.930 . S
H184 C173 0.930 . S
H185 C183 0.930 . S
H186 C201 0.930 . S
H187 C208 0.930 . S
H188 C182 0.929 . S
H189 C181 0.930 . S
H190 C204 0.929 . S
H191 C171 0.931 . S
H192 C177 0.931 . S
H193 C178 0.931 . S
H194 C199 0.931 . S
H195 C174 0.929 . S
H196 C207 0.930 . S
N197 Eu168 2.600 . S
N197 C198 1.365 . S
N197 C201 1.319 . S
C198 N197 1.365 . S
C198 C200 1.405 . S
C198 C206 1.448 . S
C199 H194 0.931 . S
C199 C201 1.397 . S
C199 C202 1.367 . S
C200 C198 1.405 . S
C200 C202 1.403 . S
C200 C233 1.439 . S
C201 H186 0.930 . S
C201 N197 1.319 . S
C201 C199 1.397 . S
C202 C199 1.367 . S
C202 C200 1.403 . S
C202 H209 0.929 . S
N203 Eu168 2.562 . S
N203 C204 1.325 . S
N203 C206 1.351 . S
C204 H190 0.929 . S
C204 N203 1.325 . S
C204 C208 1.416 . S
C205 C206 1.430 . S
C205 C207 1.404 . S
C205 C234 1.387 . S
C206 C198 1.448 . S
C206 N203 1.351 . S
C206 C205 1.430 . S
C207 H196 0.930 . S
C207 C205 1.404 . S
C207 C208 1.366 . S
C208 H187 0.930 . S
C208 C204 1.416 . S
C208 C207 1.366 . S
H209 C202 0.929 . S
H210 C233 0.931 . S
H211 C234 0.931 . S
O212 Eu168 2.462 . S
O212 C232 1.252 . S
O213 Eu168 2.373 . S
O213 C224 1.249 . S
O214 Eu179 2.335 . S
O214 C224 1.264 . S
O215 Eu168 2.432 . S
O215 C232 1.268 . S
O216 Eu168 2.291 . S
O216 C231 1.255 . S
O217 Eu179 2.372 . S
O217 C231 1.257 . S
O218 Eu179 2.462 . S
O218 C243 1.252 . S
O219 Eu179 2.373 . S
O219 C235 1.249 . S
O220 Eu168 2.335 . S
O220 C235 1.264 . S
O221 Eu179 2.432 . S
O221 C243 1.268 . S
O222 Eu179 2.291 . S
O222 C242 1.255 . S
O223 Eu168 2.372 . S
O223 C242 1.257 . S
C224 O213 1.249 . S
C224 O214 1.264 . S
C225 C228 1.382 . S
C225 C230 1.390 . S
C225 C232 1.506 . S
C226 C227 1.398 . S
C226 C230 1.392 . S
C227 C226 1.398 . S
C227 C229 1.372 . S
C227 H244 0.931 . S
C228 C225 1.382 . S
C228 C229 1.390 . S
C228 H245 0.931 . S
C229 C227 1.372 . S
C229 C228 1.390 . S
C229 H246 0.929 . S
C230 C225 1.390 . S
C230 C226 1.392 . S
C230 H247 0.930 . S
C231 O216 1.255 . S
C231 O217 1.257 . S
C232 Eu168 2.787 . S
C232 O212 1.252 . S
C232 O215 1.268 . S
C232 C225 1.506 . S
C233 C200 1.439 . S
C233 H210 0.931 . S
C233 C234 1.374 . S
C234 C205 1.387 . S
C234 H211 0.931 . S
C234 C233 1.374 . S
C235 O219 1.249 . S
C235 O220 1.264 . S
C236 C239 1.382 . S
C236 C240 1.390 . S
C236 C243 1.506 . S
C237 C238 1.398 . S
C237 C240 1.392 . S
C238 C237 1.398 . S
C238 C241 1.372 . S
C238 H248 0.931 . S
C239 C236 1.382 . S
C239 C241 1.390 . S
C239 H249 0.931 . S
C240 C236 1.390 . S
C240 C237 1.392 . S
C240 H250 0.930 . S
C241 C238 1.372 . S
C241 C239 1.390 . S
C241 H251 0.929 . S
C242 O222 1.255 . S
C242 O223 1.257 . S
C243 Eu179 2.787 . S
C243 O218 1.252 . S
C243 O221 1.268 . S
C243 C236 1.506 . S
H244 C227 0.931 . S
H245 C228 0.931 . S
H246 C229 0.929 . S
H247 C230 0.930 . S
H248 C238 0.931 . S
H249 C239 0.931 . S
H250 C240 0.930 . S
H251 C241 0.929 . S
Eu252 N281 2.600 . S
Eu252 N287 2.562 . S
Eu252 O296 2.462 . S
Eu252 O297 2.373 . S
Eu252 O299 2.432 . S
Eu252 O300 2.291 . S
Eu252 O304 2.335 . S
Eu252 O307 2.372 . S
Eu252 C316 2.787 . S
C253 N254 1.365 . S
C253 C256 1.405 . S
C253 C260 1.448 . S
N254 C253 1.365 . S
N254 C257 1.319 . S
N254 Eu263 2.600 . S
C255 C257 1.397 . S
C255 C258 1.367 . S
C255 H275 0.931 . S
C256 C253 1.405 . S
C256 C258 1.403 . S
C256 C262 1.439 . S
C257 N254 1.319 . S
C257 C255 1.397 . S
C257 H268 0.930 . S
C258 C255 1.367 . S
C258 C256 1.403 . S
C258 H279 0.929 . S
C259 C260 1.430 . S
C259 C261 1.387 . S
C259 C265 1.404 . S
C260 C253 1.448 . S
C260 C259 1.430 . S
C260 N264 1.351 . S
C261 C259 1.387 . S
C261 C262 1.374 . S
C261 H276 0.931 . S
C262 C256 1.439 . S
C262 C261 1.374 . S
C262 H277 0.931 . S
Eu263 N254 2.600 . S
Eu263 N264 2.562 . S
Eu263 O298 2.335 . S
Eu263 O301 2.372 . S
Eu263 O302 2.462 . S
Eu263 O303 2.373 . S
Eu263 O305 2.432 . S
Eu263 O306 2.291 . S
Eu263 C327 2.787 . S
N264 C260 1.351 . S
N264 Eu263 2.562 . S
N264 C266 1.325 . S
C265 C259 1.404 . S
C265 C267 1.366 . S
C265 H273 0.930 . S
C266 N264 1.325 . S
C266 C267 1.416 . S
C266 H272 0.929 . S
C267 C265 1.366 . S
C267 C266 1.416 . S
C267 H269 0.930 . S
H268 C257 0.930 . S
H269 C267 0.930 . S
H270 C285 0.930 . S
H271 C292 0.930 . S
H272 C266 0.929 . S
H273 C265 0.930 . S
H274 C288 0.929 . S
H275 C255 0.931 . S
H276 C261 0.931 . S
H277 C262 0.931 . S
H278 C283 0.931 . S
H279 C258 0.929 . S
H280 C291 0.930 . S
N281 Eu252 2.600 . S
N281 C282 1.365 . S
N281 C285 1.319 . S
C282 N281 1.365 . S
C282 C284 1.405 . S
C282 C290 1.448 . S
C283 H278 0.931 . S
C283 C285 1.397 . S
C283 C286 1.367 . S
C284 C282 1.405 . S
C284 C286 1.403 . S
C284 C317 1.439 . S
C285 H270 0.930 . S
C285 N281 1.319 . S
C285 C283 1.397 . S
C286 C283 1.367 . S
C286 C284 1.403 . S
C286 H293 0.929 . S
N287 Eu252 2.562 . S
N287 C288 1.325 . S
N287 C290 1.351 . S
C288 H274 0.929 . S
C288 N287 1.325 . S
C288 C292 1.416 . S
C289 C290 1.430 . S
C289 C291 1.404 . S
C289 C318 1.387 . S
C290 C282 1.448 . S
C290 N287 1.351 . S
C290 C289 1.430 . S
C291 H280 0.930 . S
C291 C289 1.404 . S
C291 C292 1.366 . S
C292 H271 0.930 . S
C292 C288 1.416 . S
C292 C291 1.366 . S
H293 C286 0.929 . S
H294 C317 0.931 . S
H295 C318 0.931 . S
O296 Eu252 2.462 . S
O296 C316 1.252 . S
O297 Eu252 2.373 . S
O297 C308 1.249 . S
O298 Eu263 2.335 . S
O298 C308 1.264 . S
O299 Eu252 2.432 . S
O299 C316 1.268 . S
O300 Eu252 2.291 . S
O300 C315 1.255 . S
O301 Eu263 2.372 . S
O301 C315 1.257 . S
O302 Eu263 2.462 . S
O302 C327 1.252 . S
O303 Eu263 2.373 . S
O303 C319 1.249 . S
O304 Eu252 2.335 . S
O304 C319 1.264 . S
O305 Eu263 2.432 . S
O305 C327 1.268 . S
O306 Eu263 2.291 . S
O306 C326 1.255 . S
O307 Eu252 2.372 . S
O307 C326 1.257 . S
C308 O297 1.249 . S
C308 O298 1.264 . S
C309 C312 1.382 . S
C309 C314 1.390 . S
C309 C316 1.506 . S
C310 C311 1.398 . S
C310 C314 1.392 . S
C311 C310 1.398 . S
C311 C313 1.372 . S
C311 H328 0.931 . S
C312 C309 1.382 . S
C312 C313 1.390 . S
C312 H329 0.931 . S
C313 C311 1.372 . S
C313 C312 1.390 . S
C313 H330 0.929 . S
C314 C309 1.390 . S
C314 C310 1.392 . S
C314 H331 0.930 . S
C315 O300 1.255 . S
C315 O301 1.257 . S
C316 Eu252 2.787 . S
C316 O296 1.252 . S
C316 O299 1.268 . S
C316 C309 1.506 . S
C317 C284 1.439 . S
C317 H294 0.931 . S
C317 C318 1.374 . S
C318 C289 1.387 . S
C318 H295 0.931 . S
C318 C317 1.374 . S
C319 O303 1.249 . S
C319 O304 1.264 . S
C320 C323 1.382 . S
C320 C324 1.390 . S
C320 C327 1.506 . S
C321 C322 1.398 . S
C321 C324 1.392 . S
C322 C321 1.398 . S
C322 C325 1.372 . S
C322 H332 0.931 . S
C323 C320 1.382 . S
C323 C325 1.390 . S
C323 H333 0.931 . S
C324 C320 1.390 . S
C324 C321 1.392 . S
C324 H334 0.930 . S
C325 C322 1.372 . S
C325 C323 1.390 . S
C325 H335 0.929 . S
C326 O306 1.255 . S
C326 O307 1.257 . S
C327 Eu263 2.787 . S
C327 O302 1.252 . S
C327 O305 1.268 . S
C327 C320 1.506 . S
H328 C311 0.931 . S
H329 C312 0.931 . S
H330 C313 0.929 . S
H331 C314 0.930 . S
H332 C322 0.931 . S
H333 C323 0.931 . S
H334 C324 0.930 . S
H335 C325 0.929 . S
Eu336 N365 2.600 . S
Eu336 N371 2.562 . S
Eu336 O380 2.462 . S
Eu336 O381 2.373 . S
Eu336 O383 2.432 . S
Eu336 O384 2.291 . S
Eu336 O388 2.335 . S
Eu336 O391 2.372 . S
Eu336 C400 2.787 . S
C337 N338 1.365 . S
C337 C340 1.405 . S
C337 C344 1.448 . S
N338 C337 1.365 . S
N338 C341 1.319 . S
N338 Eu347 2.600 . S
C339 C341 1.397 . S
C339 C342 1.367 . S
C339 H359 0.931 . S
C340 C337 1.405 . S
C340 C342 1.403 . S
C340 C346 1.439 . S
C341 N338 1.319 . S
C341 C339 1.397 . S
C341 H352 0.930 . S
C342 C339 1.367 . S
C342 C340 1.403 . S
C342 H363 0.929 . S
C343 C344 1.430 . S
C343 C345 1.387 . S
C343 C349 1.404 . S
C344 C337 1.448 . S
C344 C343 1.430 . S
C344 N348 1.351 . S
C345 C343 1.387 . S
C345 C346 1.374 . S
C345 H360 0.931 . S
C346 C340 1.439 . S
C346 C345 1.374 . S
C346 H361 0.931 . S
Eu347 N338 2.600 . S
Eu347 N348 2.562 . S
Eu347 O382 2.335 . S
Eu347 O385 2.372 . S
Eu347 O386 2.462 . S
Eu347 O387 2.373 . S
Eu347 O389 2.432 . S
Eu347 O390 2.291 . S
Eu347 C411 2.787 . S
N348 C344 1.351 . S
N348 Eu347 2.562 . S
N348 C350 1.325 . S
C349 C343 1.404 . S
C349 C351 1.366 . S
C349 H357 0.930 . S
C350 N348 1.325 . S
C350 C351 1.416 . S
C350 H356 0.929 . S
C351 C349 1.366 . S
C351 C350 1.416 . S
C351 H353 0.930 . S
H352 C341 0.930 . S
H353 C351 0.930 . S
H354 C369 0.930 . S
H355 C376 0.930 . S
H356 C350 0.929 . S
H357 C349 0.930 . S
H358 C372 0.929 . S
H359 C339 0.931 . S
H360 C345 0.931 . S
H361 C346 0.931 . S
H362 C367 0.931 . S
H363 C342 0.929 . S
H364 C375 0.930 . S
N365 Eu336 2.600 . S
N365 C366 1.365 . S
N365 C369 1.319 . S
C366 N365 1.365 . S
C366 C368 1.405 . S
C366 C374 1.448 . S
C367 H362 0.931 . S
C367 C369 1.397 . S
C367 C370 1.367 . S
C368 C366 1.405 . S
C368 C370 1.403 . S
C368 C401 1.439 . S
C369 H354 0.930 . S
C369 N365 1.319 . S
C369 C367 1.397 . S
C370 C367 1.367 . S
C370 C368 1.403 . S
C370 H377 0.929 . S
N371 Eu336 2.562 . S
N371 C372 1.325 . S
N371 C374 1.351 . S
C372 H358 0.929 . S
C372 N371 1.325 . S
C372 C376 1.416 . S
C373 C374 1.430 . S
C373 C375 1.404 . S
C373 C402 1.387 . S
C374 C366 1.448 . S
C374 N371 1.351 . S
C374 C373 1.430 . S
C375 H364 0.930 . S
C375 C373 1.404 . S
C375 C376 1.366 . S
C376 H355 0.930 . S
C376 C372 1.416 . S
C376 C375 1.366 . S
H377 C370 0.929 . S
H378 C401 0.931 . S
H379 C402 0.931 . S
O380 Eu336 2.462 . S
O380 C400 1.252 . S
O381 Eu336 2.373 . S
O381 C392 1.249 . S
O382 Eu347 2.335 . S
O382 C392 1.264 . S
O383 Eu336 2.432 . S
O383 C400 1.268 . S
O384 Eu336 2.291 . S
O384 C399 1.255 . S
O385 Eu347 2.372 . S
O385 C399 1.257 . S
O386 Eu347 2.462 . S
O386 C411 1.252 . S
O387 Eu347 2.373 . S
O387 C403 1.249 . S
O388 Eu336 2.335 . S
O388 C403 1.264 . S
O389 Eu347 2.432 . S
O389 C411 1.268 . S
O390 Eu347 2.291 . S
O390 C410 1.255 . S
O391 Eu336 2.372 . S
O391 C410 1.257 . S
C392 O381 1.249 . S
C392 O382 1.264 . S
C393 C396 1.382 . S
C393 C398 1.390 . S
C393 C400 1.506 . S
C394 C395 1.398 . S
C394 C398 1.392 . S
C395 C394 1.398 . S
C395 C397 1.372 . S
C395 H412 0.931 . S
C396 C393 1.382 . S
C396 C397 1.390 . S
C396 H413 0.931 . S
C397 C395 1.372 . S
C397 C396 1.390 . S
C397 H414 0.929 . S
C398 C393 1.390 . S
C398 C394 1.392 . S
C398 H415 0.930 . S
C399 O384 1.255 . S
C399 O385 1.257 . S
C400 Eu336 2.787 . S
C400 O380 1.252 . S
C400 O383 1.268 . S
C400 C393 1.506 . S
C401 C368 1.439 . S
C401 H378 0.931 . S
C401 C402 1.374 . S
C402 C373 1.387 . S
C402 H379 0.931 . S
C402 C401 1.374 . S
C403 O387 1.249 . S
C403 O388 1.264 . S
C404 C407 1.382 . S
C404 C408 1.390 . S
C404 C411 1.506 . S
C405 C406 1.398 . S
C405 C408 1.392 . S
C406 C405 1.398 . S
C406 C409 1.372 . S
C406 H416 0.931 . S
C407 C404 1.382 . S
C407 C409 1.390 . S
C407 H417 0.931 . S
C408 C404 1.390 . S
C408 C405 1.392 . S
C408 H418 0.930 . S
C409 C406 1.372 . S
C409 C407 1.390 . S
C409 H419 0.929 . S
C410 O390 1.255 . S
C410 O391 1.257 . S
C411 Eu347 2.787 . S
C411 O386 1.252 . S
C411 O389 1.268 . S
C411 C404 1.506 . S
H412 C395 0.931 . S
H413 C396 0.931 . S
H414 C397 0.929 . S
H415 C398 0.930 . S
H416 C406 0.931 . S
H417 C407 0.931 . S
H418 C408 0.930 . S
H419 C409 0.929 . S
Eu420 N449 2.600 . S
Eu420 N455 2.562 . S
Eu420 O464 2.462 . S
Eu420 O465 2.373 . S
Eu420 O467 2.432 . S
Eu420 O468 2.291 . S
Eu420 O472 2.335 . S
Eu420 O475 2.372 . S
Eu420 C484 2.787 . S
C421 N422 1.365 . S
C421 C424 1.405 . S
C421 C428 1.448 . S
N422 C421 1.365 . S
N422 C425 1.319 . S
N422 Eu431 2.600 . S
C423 C425 1.397 . S
C423 C426 1.367 . S
C423 H443 0.931 . S
C424 C421 1.405 . S
C424 C426 1.403 . S
C424 C430 1.439 . S
C425 N422 1.319 . S
C425 C423 1.397 . S
C425 H436 0.930 . S
C426 C423 1.367 . S
C426 C424 1.403 . S
C426 H447 0.929 . S
C427 C428 1.430 . S
C427 C429 1.387 . S
C427 C433 1.404 . S
C428 C421 1.448 . S
C428 C427 1.430 . S
C428 N432 1.351 . S
C429 C427 1.387 . S
C429 C430 1.374 . S
C429 H444 0.931 . S
C430 C424 1.439 . S
C430 C429 1.374 . S
C430 H445 0.931 . S
Eu431 N422 2.600 . S
Eu431 N432 2.562 . S
Eu431 O466 2.335 . S
Eu431 O469 2.372 . S
Eu431 O470 2.462 . S
Eu431 O471 2.373 . S
Eu431 O473 2.432 . S
Eu431 O474 2.291 . S
Eu431 C495 2.787 . S
N432 C428 1.351 . S
N432 Eu431 2.562 . S
N432 C434 1.325 . S
C433 C427 1.404 . S
C433 C435 1.366 . S
C433 H441 0.930 . S
C434 N432 1.325 . S
C434 C435 1.416 . S
C434 H440 0.929 . S
C435 C433 1.366 . S
C435 C434 1.416 . S
C435 H437 0.930 . S
H436 C425 0.930 . S
H437 C435 0.930 . S
H438 C453 0.930 . S
H439 C460 0.930 . S
H440 C434 0.929 . S
H441 C433 0.930 . S
H442 C456 0.929 . S
H443 C423 0.931 . S
H444 C429 0.931 . S
H445 C430 0.931 . S
H446 C451 0.931 . S
H447 C426 0.929 . S
H448 C459 0.930 . S
N449 Eu420 2.600 . S
N449 C450 1.365 . S
N449 C453 1.319 . S
C450 N449 1.365 . S
C450 C452 1.405 . S
C450 C458 1.448 . S
C451 H446 0.931 . S
C451 C453 1.397 . S
C451 C454 1.367 . S
C452 C450 1.405 . S
C452 C454 1.403 . S
C452 C485 1.439 . S
C453 H438 0.930 . S
C453 N449 1.319 . S
C453 C451 1.397 . S
C454 C451 1.367 . S
C454 C452 1.403 . S
C454 H461 0.929 . S
N455 Eu420 2.562 . S
N455 C456 1.325 . S
N455 C458 1.351 . S
C456 H442 0.929 . S
C456 N455 1.325 . S
C456 C460 1.416 . S
C457 C458 1.430 . S
C457 C459 1.404 . S
C457 C486 1.387 . S
C458 C450 1.448 . S
C458 N455 1.351 . S
C458 C457 1.430 . S
C459 H448 0.930 . S
C459 C457 1.404 . S
C459 C460 1.366 . S
C460 H439 0.930 . S
C460 C456 1.416 . S
C460 C459 1.366 . S
H461 C454 0.929 . S
H462 C485 0.931 . S
H463 C486 0.931 . S
O464 Eu420 2.462 . S
O464 C484 1.252 . S
O465 Eu420 2.373 . S
O465 C476 1.249 . S
O466 Eu431 2.335 . S
O466 C476 1.264 . S
O467 Eu420 2.432 . S
O467 C484 1.268 . S
O468 Eu420 2.291 . S
O468 C483 1.255 . S
O469 Eu431 2.372 . S
O469 C483 1.257 . S
O470 Eu431 2.462 . S
O470 C495 1.252 . S
O471 Eu431 2.373 . S
O471 C487 1.249 . S
O472 Eu420 2.335 . S
O472 C487 1.264 . S
O473 Eu431 2.432 . S
O473 C495 1.268 . S
O474 Eu431 2.291 . S
O474 C494 1.255 . S
O475 Eu420 2.372 . S
O475 C494 1.257 . S
C476 O465 1.249 . S
C476 O466 1.264 . S
C477 C480 1.382 . S
C477 C482 1.390 . S
C477 C484 1.506 . S
C478 C479 1.398 . S
C478 C482 1.392 . S
C479 C478 1.398 . S
C479 C481 1.372 . S
C479 H496 0.931 . S
C480 C477 1.382 . S
C480 C481 1.390 . S
C480 H497 0.931 . S
C481 C479 1.372 . S
C481 C480 1.390 . S
C481 H498 0.929 . S
C482 C477 1.390 . S
C482 C478 1.392 . S
C482 H499 0.930 . S
C483 O468 1.255 . S
C483 O469 1.257 . S
C484 Eu420 2.787 . S
C484 O464 1.252 . S
C484 O467 1.268 . S
C484 C477 1.506 . S
C485 C452 1.439 . S
C485 H462 0.931 . S
C485 C486 1.374 . S
C486 C457 1.387 . S
C486 H463 0.931 . S
C486 C485 1.374 . S
C487 O471 1.249 . S
C487 O472 1.264 . S
C488 C491 1.382 . S
C488 C492 1.390 . S
C488 C495 1.506 . S
C489 C490 1.398 . S
C489 C492 1.392 . S
C490 C489 1.398 . S
C490 C493 1.372 . S
C490 H500 0.931 . S
C491 C488 1.382 . S
C491 C493 1.390 . S
C491 H501 0.931 . S
C492 C488 1.390 . S
C492 C489 1.392 . S
C492 H502 0.930 . S
C493 C490 1.372 . S
C493 C491 1.390 . S
C493 H503 0.929 . S
C494 O474 1.255 . S
C494 O475 1.257 . S
C495 Eu431 2.787 . S
C495 O470 1.252 . S
C495 O473 1.268 . S
C495 C488 1.506 . S
H496 C479 0.931 . S
H497 C480 0.931 . S
H498 C481 0.929 . S
H499 C482 0.930 . S
H500 C490 0.931 . S
H501 C491 0.931 . S
H502 C492 0.930 . S
H503 C493 0.929 . S
Eu504 N533 2.600 . S
Eu504 N539 2.562 . S
Eu504 O548 2.462 . S
Eu504 O549 2.373 . S
Eu504 O551 2.432 . S
Eu504 O552 2.291 . S
Eu504 O556 2.335 . S
Eu504 O559 2.372 . S
Eu504 C568 2.787 . S
C505 N506 1.365 . S
C505 C508 1.405 . S
C505 C512 1.448 . S
N506 C505 1.365 . S
N506 C509 1.319 . S
N506 Eu515 2.600 . S
C507 C509 1.397 . S
C507 C510 1.367 . S
C507 H527 0.931 . S
C508 C505 1.405 . S
C508 C510 1.403 . S
C508 C514 1.439 . S
C509 N506 1.319 . S
C509 C507 1.397 . S
C509 H520 0.930 . S
C510 C507 1.367 . S
C510 C508 1.403 . S
C510 H531 0.929 . S
C511 C512 1.430 . S
C511 C513 1.387 . S
C511 C517 1.404 . S
C512 C505 1.448 . S
C512 C511 1.430 . S
C512 N516 1.351 . S
C513 C511 1.387 . S
C513 C514 1.374 . S
C513 H528 0.931 . S
C514 C508 1.439 . S
C514 C513 1.374 . S
C514 H529 0.931 . S
Eu515 N506 2.600 . S
Eu515 N516 2.562 . S
Eu515 O550 2.335 . S
Eu515 O553 2.372 . S
Eu515 O554 2.462 . S
Eu515 O555 2.373 . S
Eu515 O557 2.432 . S
Eu515 O558 2.291 . S
Eu515 C579 2.787 . S
N516 C512 1.351 . S
N516 Eu515 2.562 . S
N516 C518 1.325 . S
C517 C511 1.404 . S
C517 C519 1.366 . S
C517 H525 0.930 . S
C518 N516 1.325 . S
C518 C519 1.416 . S
C518 H524 0.929 . S
C519 C517 1.366 . S
C519 C518 1.416 . S
C519 H521 0.930 . S
H520 C509 0.930 . S
H521 C519 0.930 . S
H522 C537 0.930 . S
H523 C544 0.930 . S
H524 C518 0.929 . S
H525 C517 0.930 . S
H526 C540 0.929 . S
H527 C507 0.931 . S
H528 C513 0.931 . S
H529 C514 0.931 . S
H530 C535 0.931 . S
H531 C510 0.929 . S
H532 C543 0.930 . S
N533 Eu504 2.600 . S
N533 C534 1.365 . S
N533 C537 1.319 . S
C534 N533 1.365 . S
C534 C536 1.405 . S
C534 C542 1.448 . S
C535 H530 0.931 . S
C535 C537 1.397 . S
C535 C538 1.367 . S
C536 C534 1.405 . S
C536 C538 1.403 . S
C536 C569 1.439 . S
C537 H522 0.930 . S
C537 N533 1.319 . S
C537 C535 1.397 . S
C538 C535 1.367 . S
C538 C536 1.403 . S
C538 H545 0.929 . S
N539 Eu504 2.562 . S
N539 C540 1.325 . S
N539 C542 1.351 . S
C540 H526 0.929 . S
C540 N539 1.325 . S
C540 C544 1.416 . S
C541 C542 1.430 . S
C541 C543 1.404 . S
C541 C570 1.387 . S
C542 C534 1.448 . S
C542 N539 1.351 . S
C542 C541 1.430 . S
C543 H532 0.930 . S
C543 C541 1.404 . S
C543 C544 1.366 . S
C544 H523 0.930 . S
C544 C540 1.416 . S
C544 C543 1.366 . S
H545 C538 0.929 . S
H546 C569 0.931 . S
H547 C570 0.931 . S
O548 Eu504 2.462 . S
O548 C568 1.252 . S
O549 Eu504 2.373 . S
O549 C560 1.249 . S
O550 Eu515 2.335 . S
O550 C560 1.264 . S
O551 Eu504 2.432 . S
O551 C568 1.268 . S
O552 Eu504 2.291 . S
O552 C567 1.255 . S
O553 Eu515 2.372 . S
O553 C567 1.257 . S
O554 Eu515 2.462 . S
O554 C579 1.252 . S
O555 Eu515 2.373 . S
O555 C571 1.249 . S
O556 Eu504 2.335 . S
O556 C571 1.264 . S
O557 Eu515 2.432 . S
O557 C579 1.268 . S
O558 Eu515 2.291 . S
O558 C578 1.255 . S
O559 Eu504 2.372 . S
O559 C578 1.257 . S
C560 O549 1.249 . S
C560 O550 1.264 . S
C561 C564 1.382 . S
C561 C566 1.390 . S
C561 C568 1.506 . S
C562 C563 1.398 . S
C562 C566 1.392 . S
C563 C562 1.398 . S
C563 C565 1.372 . S
C563 H580 0.931 . S
C564 C561 1.382 . S
C564 C565 1.390 . S
C564 H581 0.931 . S
C565 C563 1.372 . S
C565 C564 1.390 . S
C565 H582 0.929 . S
C566 C561 1.390 . S
C566 C562 1.392 . S
C566 H583 0.930 . S
C567 O552 1.255 . S
C567 O553 1.257 . S
C568 Eu504 2.787 . S
C568 O548 1.252 . S
C568 O551 1.268 . S
C568 C561 1.506 . S
C569 C536 1.439 . S
C569 H546 0.931 . S
C569 C570 1.374 . S
C570 C541 1.387 . S
C570 H547 0.931 . S
C570 C569 1.374 . S
C571 O555 1.249 . S
C571 O556 1.264 . S
C572 C575 1.382 . S
C572 C576 1.390 . S
C572 C579 1.506 . S
C573 C574 1.398 . S
C573 C576 1.392 . S
C574 C573 1.398 . S
C574 C577 1.372 . S
C574 H584 0.931 . S
C575 C572 1.382 . S
C575 C577 1.390 . S
C575 H585 0.931 . S
C576 C572 1.390 . S
C576 C573 1.392 . S
C576 H586 0.930 . S
C577 C574 1.372 . S
C577 C575 1.390 . S
C577 H587 0.929 . S
C578 O558 1.255 . S
C578 O559 1.257 . S
C579 Eu515 2.787 . S
C579 O554 1.252 . S
C579 O557 1.268 . S
C579 C572 1.506 . S
H580 C563 0.931 . S
H581 C564 0.931 . S
H582 C565 0.929 . S
H583 C566 0.930 . S
H584 C574 0.931 . S
H585 C575 0.931 . S
H586 C576 0.930 . S
H587 C577 0.929 . S
Eu588 N617 2.600 . S
Eu588 N623 2.562 . S
Eu588 O632 2.462 . S
Eu588 O633 2.373 . S
Eu588 O635 2.432 . S
Eu588 O636 2.291 . S
Eu588 O640 2.335 . S
Eu588 O643 2.372 . S
Eu588 C652 2.787 . S
C589 N590 1.365 . S
C589 C592 1.405 . S
C589 C596 1.448 . S
N590 C589 1.365 . S
N590 C593 1.319 . S
N590 Eu599 2.600 . S
C591 C593 1.397 . S
C591 C594 1.367 . S
C591 H611 0.931 . S
C592 C589 1.405 . S
C592 C594 1.403 . S
C592 C598 1.439 . S
C593 N590 1.319 . S
C593 C591 1.397 . S
C593 H604 0.930 . S
C594 C591 1.367 . S
C594 C592 1.403 . S
C594 H615 0.929 . S
C595 C596 1.430 . S
C595 C597 1.387 . S
C595 C601 1.404 . S
C596 C589 1.448 . S
C596 C595 1.430 . S
C596 N600 1.351 . S
C597 C595 1.387 . S
C597 C598 1.374 . S
C597 H612 0.931 . S
C598 C592 1.439 . S
C598 C597 1.374 . S
C598 H613 0.931 . S
Eu599 N590 2.600 . S
Eu599 N600 2.562 . S
Eu599 O634 2.335 . S
Eu599 O637 2.372 . S
Eu599 O638 2.462 . S
Eu599 O639 2.373 . S
Eu599 O641 2.432 . S
Eu599 O642 2.291 . S
Eu599 C663 2.787 . S
N600 C596 1.351 . S
N600 Eu599 2.562 . S
N600 C602 1.325 . S
C601 C595 1.404 . S
C601 C603 1.366 . S
C601 H609 0.930 . S
C602 N600 1.325 . S
C602 C603 1.416 . S
C602 H608 0.929 . S
C603 C601 1.366 . S
C603 C602 1.416 . S
C603 H605 0.930 . S
H604 C593 0.930 . S
H605 C603 0.930 . S
H606 C621 0.930 . S
H607 C628 0.930 . S
H608 C602 0.929 . S
H609 C601 0.930 . S
H610 C624 0.929 . S
H611 C591 0.931 . S
H612 C597 0.931 . S
H613 C598 0.931 . S
H614 C619 0.931 . S
H615 C594 0.929 . S
H616 C627 0.930 . S
N617 Eu588 2.600 . S
N617 C618 1.365 . S
N617 C621 1.319 . S
C618 N617 1.365 . S
C618 C620 1.405 . S
C618 C626 1.448 . S
C619 H614 0.931 . S
C619 C621 1.397 . S
C619 C622 1.367 . S
C620 C618 1.405 . S
C620 C622 1.403 . S
C620 C653 1.439 . S
C621 H606 0.930 . S
C621 N617 1.319 . S
C621 C619 1.397 . S
C622 C619 1.367 . S
C622 C620 1.403 . S
C622 H629 0.929 . S
N623 Eu588 2.562 . S
N623 C624 1.325 . S
N623 C626 1.351 . S
C624 H610 0.929 . S
C624 N623 1.325 . S
C624 C628 1.416 . S
C625 C626 1.430 . S
C625 C627 1.404 . S
C625 C654 1.387 . S
C626 C618 1.448 . S
C626 N623 1.351 . S
C626 C625 1.430 . S
C627 H616 0.930 . S
C627 C625 1.404 . S
C627 C628 1.366 . S
C628 H607 0.930 . S
C628 C624 1.416 . S
C628 C627 1.366 . S
H629 C622 0.929 . S
H630 C653 0.931 . S
H631 C654 0.931 . S
O632 Eu588 2.462 . S
O632 C652 1.252 . S
O633 Eu588 2.373 . S
O633 C644 1.249 . S
O634 Eu599 2.335 . S
O634 C644 1.264 . S
O635 Eu588 2.432 . S
O635 C652 1.268 . S
O636 Eu588 2.291 . S
O636 C651 1.255 . S
O637 Eu599 2.372 . S
O637 C651 1.257 . S
O638 Eu599 2.462 . S
O638 C663 1.252 . S
O639 Eu599 2.373 . S
O639 C655 1.249 . S
O640 Eu588 2.335 . S
O640 C655 1.264 . S
O641 Eu599 2.432 . S
O641 C663 1.268 . S
O642 Eu599 2.291 . S
O642 C662 1.255 . S
O643 Eu588 2.372 . S
O643 C662 1.257 . S
C644 O633 1.249 . S
C644 O634 1.264 . S
C645 C648 1.382 . S
C645 C650 1.390 . S
C645 C652 1.506 . S
C646 C647 1.398 . S
C646 C650 1.392 . S
C647 C646 1.398 . S
C647 C649 1.372 . S
C647 H664 0.931 . S
C648 C645 1.382 . S
C648 C649 1.390 . S
C648 H665 0.931 . S
C649 C647 1.372 . S
C649 C648 1.390 . S
C649 H666 0.929 . S
C650 C645 1.390 . S
C650 C646 1.392 . S
C650 H667 0.930 . S
C651 O636 1.255 . S
C651 O637 1.257 . S
C652 Eu588 2.787 . S
C652 O632 1.252 . S
C652 O635 1.268 . S
C652 C645 1.506 . S
C653 C620 1.439 . S
C653 H630 0.931 . S
C653 C654 1.374 . S
C654 C625 1.387 . S
C654 H631 0.931 . S
C654 C653 1.374 . S
C655 O639 1.249 . S
C655 O640 1.264 . S
C656 C659 1.382 . S
C656 C660 1.390 . S
C656 C663 1.506 . S
C657 C658 1.398 . S
C657 C660 1.392 . S
C658 C657 1.398 . S
C658 C661 1.372 . S
C658 H668 0.931 . S
C659 C656 1.382 . S
C659 C661 1.390 . S
C659 H669 0.931 . S
C660 C656 1.390 . S
C660 C657 1.392 . S
C660 H670 0.930 . S
C661 C658 1.372 . S
C661 C659 1.390 . S
C661 H671 0.929 . S
C662 O642 1.255 . S
C662 O643 1.257 . S
C663 Eu599 2.787 . S
C663 O638 1.252 . S
C663 O641 1.268 . S
C663 C656 1.506 . S
H664 C647 0.931 . S
H665 C648 0.931 . S
H666 C649 0.929 . S
H667 C650 0.930 . S
H668 C658 0.931 . S
H669 C659 0.931 . S
H670 C660 0.930 . S
H671 C661 0.929 . S
Co672 O675 2.042 . S
Co672 O682 2.264 . S
Co672 O701 2.286 . S
Co672 O702 2.069 . S
Co672 O704 2.015 1_455 S
Co673 O675 2.122 . S
Co673 O681 2.073 . S
Co673 O682 2.327 . S
Co673 O683 1.976 1_455 S
Co674 O675 2.095 1_545 S
Co674 O677 2.079 1_455 S
Co674 O684 2.107 1_445 S
Co674 O685 2.147 . S
Co674 O689 2.115 . S
Co674 O703 2.140 1_445 S
O675 Co672 2.042 . S
O675 Co673 2.122 . S
O675 Co674 2.095 1_565 S
O675 H676 0.980 . S
H676 O675 0.980 . S
O677 Co674 2.079 1_655 S
O677 Co678 2.042 . S
O677 Co679 2.122 . S
O677 H680 0.980 . S
Co678 O677 2.042 . S
Co678 O686 2.286 . S
Co678 O687 2.069 . S
Co678 O688 2.015 1_655 S
Co678 O691 2.264 . S
Co679 O677 2.122 . S
Co679 O690 1.976 1_655 S
Co679 O691 2.327 . S
Co679 O692 2.073 . S
H680 O677 0.980 . S
O681 Co673 2.073 . S
O681 C696 1.245 . S
O682 Co672 2.264 . S
O682 Co673 2.327 . S
O682 C696 1.257 . S
O683 Co673 1.976 1_655 S
O683 C695 1.251 . S
O684 Co674 2.107 1_665 S
O684 C695 1.274 . S
O685 Co674 2.147 . S
O685 C698 1.246 . S
O686 Co678 2.286 . S
O686 C697 1.259 . S
O687 Co678 2.069 . S
O687 C697 1.289 . S
O688 Co678 2.015 1_455 S
O688 C698 1.257 . S
O689 Co674 2.115 . S
O689 C699 1.274 . S
O690 Co679 1.976 1_455 S
O690 C699 1.251 . S
O691 Co678 2.264 . S
O691 Co679 2.327 . S
O691 C700 1.257 . S
O692 Co679 2.073 . S
O692 C700 1.245 . S
C693 O701 1.259 . S
C693 O702 1.289 . S
C694 O703 1.246 . S
C694 O704 1.257 . S
C695 O683 1.251 . S
C695 O684 1.274 . S
C696 O681 1.245 . S
C696 O682 1.257 . S
C697 O686 1.259 . S
C697 O687 1.289 . S
C698 O685 1.246 . S
C698 O688 1.257 . S
C699 O689 1.274 . S
C699 O690 1.251 . S
C700 O691 1.257 . S
C700 O692 1.245 . S
O701 Co672 2.286 . S
O701 C693 1.259 . S
O702 Co672 2.069 . S
O702 C693 1.289 . S
O703 Co674 2.140 1_665 S
O703 C694 1.246 . S
O704 Co672 2.015 1_655 S
O704 C694 1.257 . S
Co705 O708 2.042 1_556 S
Co705 O715 2.264 1_556 S
Co705 O734 2.286 . S
Co705 O735 2.069 . S
Co705 O737 2.015 . S
Co706 O708 2.122 . S
Co706 O714 2.073 . S
Co706 O715 2.327 . S
Co706 O716 1.976 . S
Co707 O708 2.087 1_545 S
Co707 O710 2.087 1_554 S
Co707 O717 2.111 1_545 S
Co707 O718 2.143 . S
Co707 O722 2.111 1_554 S
Co707 O736 2.143 1_544 S
O708 Co705 2.042 1_554 S
O708 Co706 2.122 . S
O708 Co707 2.087 1_565 S
O708 H709 0.980 . S
H709 O708 0.980 . S
O710 Co707 2.087 1_556 S
O710 Co711 2.042 1_556 S
O710 Co712 2.122 . S
O710 H713 0.980 . S
Co711 O710 2.042 1_554 S
Co711 O719 2.286 . S
Co711 O720 2.069 . S
Co711 O721 2.015 . S
Co711 O724 2.264 1_554 S
Co712 O710 2.122 . S
Co712 O723 1.976 . S
Co712 O724 2.327 . S
Co712 O725 2.073 . S
H713 O710 0.980 . S
O714 Co706 2.073 . S
O714 C729 1.245 . S
O715 Co705 2.264 1_554 S
O715 Co706 2.327 . S
O715 C729 1.257 . S
O716 Co706 1.976 . S
O716 C728 1.251 . S
O717 Co707 2.111 1_565 S
O717 C728 1.274 . S
O718 Co707 2.143 . S
O718 C731 1.246 . S
O719 Co711 2.286 . S
O719 C730 1.259 . S
O720 Co711 2.069 . S
O720 C730 1.289 . S
O721 Co711 2.015 . S
O721 C731 1.257 . S
O722 Co707 2.111 1_556 S
O722 C732 1.274 . S
O723 Co712 1.976 . S
O723 C732 1.251 . S
O724 Co711 2.264 1_556 S
O724 Co712 2.327 . S
O724 C733 1.257 . S
O725 Co712 2.073 . S
O725 C733 1.245 . S
C726 O734 1.259 . S
C726 O735 1.289 . S
C727 O736 1.246 . S
C727 O737 1.257 . S
C728 O716 1.251 . S
C728 O717 1.274 . S
C729 O714 1.245 . S
C729 O715 1.257 . S
C730 O719 1.259 . S
C730 O720 1.289 . S
C731 O718 1.246 . S
C731 O721 1.257 . S
C732 O722 1.274 . S
C732 O723 1.251 . S
C733 O724 1.257 . S
C733 O725 1.245 . S
O734 Co705 2.286 . S
O734 C726 1.259 . S
O735 Co705 2.069 . S
O735 C726 1.289 . S
O736 Co707 2.143 1_566 S
O736 C727 1.246 . S
O737 Co705 2.015 . S
O737 C727 1.257 . S
Co738 O741 2.042 1_556 S
Co738 O748 2.264 1_556 S
Co738 O767 2.286 . S
Co738 O768 2.069 . S
Co738 O770 2.015 1_455 S
Co739 O741 2.122 . S
Co739 O747 2.073 . S
Co739 O748 2.327 . S
Co739 O749 1.976 1_455 S
Co740 O741 2.094 . S
Co740 O743 2.079 1_454 S
Co740 O750 2.107 1_455 S
Co740 O751 2.147 . S
Co740 O755 2.115 1_554 S
Co740 O769 2.140 1_454 S
O741 Co738 2.042 1_554 S
O741 Co739 2.122 . S
O741 Co740 2.094 . S
O741 H742 0.980 . S
H742 O741 0.980 . S
O743 Co740 2.079 1_656 S
O743 Co744 2.042 1_556 S
O743 Co745 2.122 . S
O743 H746 0.980 . S
Co744 O743 2.042 1_554 S
Co744 O752 2.286 . S
Co744 O753 2.069 . S
Co744 O754 2.015 1_655 S
Co744 O757 2.264 1_554 S
Co745 O743 2.122 . S
Co745 O756 1.976 1_655 S
Co745 O757 2.327 . S
Co745 O758 2.073 . S
H746 O743 0.980 . S
O747 Co739 2.073 . S
O747 C762 1.245 . S
O748 Co738 2.264 1_554 S
O748 Co739 2.327 . S
O748 C762 1.257 . S
O749 Co739 1.976 1_655 S
O749 C761 1.251 . S
O750 Co740 2.107 1_655 S
O750 C761 1.274 . S
O751 Co740 2.147 . S
O751 C764 1.246 . S
O752 Co744 2.286 . S
O752 C763 1.259 . S
O753 Co744 2.069 . S
O753 C763 1.289 . S
O754 Co744 2.015 1_455 S
O754 C764 1.257 . S
O755 Co740 2.115 1_556 S
O755 C765 1.274 . S
O756 Co745 1.976 1_455 S
O756 C765 1.251 . S
O757 Co744 2.264 1_556 S
O757 Co745 2.327 . S
O757 C766 1.257 . S
O758 Co745 2.073 . S
O758 C766 1.245 . S
C759 O767 1.259 . S
C759 O768 1.289 . S
C760 O769 1.246 . S
C760 O770 1.257 . S
C761 O749 1.251 . S
C761 O750 1.274 . S
C762 O747 1.245 . S
C762 O748 1.257 . S
C763 O752 1.259 . S
C763 O753 1.289 . S
C764 O751 1.246 . S
C764 O754 1.257 . S
C765 O755 1.274 . S
C765 O756 1.251 . S
C766 O757 1.257 . S
C766 O758 1.245 . S
O767 Co738 2.286 . S
O767 C759 1.259 . S
O768 Co738 2.069 . S
O768 C759 1.289 . S
O769 Co740 2.140 1_656 S
O769 C760 1.246 . S
O770 Co738 2.015 1_655 S
O770 C760 1.257 . S
Co771 O774 2.042 1_556 S
Co771 O781 2.264 1_556 S
Co771 O800 2.286 . S
Co771 O801 2.069 . S
Co771 O803 2.015 . S
Co772 O774 2.122 . S
Co772 O780 2.073 . S
Co772 O781 2.327 . S
Co772 O782 1.976 . S
Co773 O774 2.087 . S
Co773 O776 2.087 1_554 S
Co773 O783 2.111 . S
Co773 O784 2.143 . S
Co773 O788 2.111 1_554 S
Co773 O802 2.143 1_554 S
O774 Co771 2.042 1_554 S
O774 Co772 2.122 . S
O774 Co773 2.087 . S
O774 H775 0.980 . S
H775 O774 0.980 . S
O776 Co773 2.087 1_556 S
O776 Co777 2.042 1_556 S
O776 Co778 2.122 . S
O776 H779 0.980 . S
Co777 O776 2.042 1_554 S
Co777 O785 2.286 . S
Co777 O786 2.069 . S
Co777 O787 2.015 . S
Co777 O790 2.264 1_554 S
Co778 O776 2.122 . S
Co778 O789 1.976 . S
Co778 O790 2.327 . S
Co778 O791 2.073 . S
H779 O776 0.980 . S
O780 Co772 2.073 . S
O780 C795 1.245 . S
O781 Co771 2.264 1_554 S
O781 Co772 2.327 . S
O781 C795 1.257 . S
O782 Co772 1.976 . S
O782 C794 1.251 . S
O783 Co773 2.111 . S
O783 C794 1.274 . S
O784 Co773 2.143 . S
O784 C797 1.246 . S
O785 Co777 2.286 . S
O785 C796 1.259 . S
O786 Co777 2.069 . S
O786 C796 1.289 . S
O787 Co777 2.015 . S
O787 C797 1.257 . S
O788 Co773 2.111 1_556 S
O788 C798 1.274 . S
O789 Co778 1.976 . S
O789 C798 1.251 . S
O790 Co777 2.264 1_556 S
O790 Co778 2.327 . S
O790 C799 1.257 . S
O791 Co778 2.073 . S
O791 C799 1.245 . S
C792 O800 1.259 . S
C792 O801 1.289 . S
C793 O802 1.246 . S
C793 O803 1.257 . S
C794 O782 1.251 . S
C794 O783 1.274 . S
C795 O780 1.245 . S
C795 O781 1.257 . S
C796 O785 1.259 . S
C796 O786 1.289 . S
C797 O784 1.246 . S
C797 O787 1.257 . S
C798 O788 1.274 . S
C798 O789 1.251 . S
C799 O790 1.257 . S
C799 O791 1.245 . S
O800 Co771 2.286 . S
O800 C792 1.259 . S
O801 Co771 2.069 . S
O801 C792 1.289 . S
O802 Co773 2.143 1_556 S
O802 C793 1.246 . S
O803 Co771 2.015 . S
O803 C793 1.257 . S
Co804 O807 2.042 . S
Co804 O814 2.264 . S
Co804 O833 2.286 . S
Co804 O834 2.069 . S
Co804 O836 2.015 . S
Co805 O807 2.122 . S
Co805 O813 2.073 . S
Co805 O814 2.327 . S
Co805 O815 1.976 . S
Co806 O807 2.094 . S
Co806 O809 2.080 1_455 S
Co806 O816 2.113 . S
Co806 O817 2.139 1_455 S
Co806 O821 2.110 1_455 S
Co806 O835 2.148 . S
O807 Co804 2.042 . S
O807 Co805 2.122 . S
O807 Co806 2.094 . S
O807 H808 0.980 . S
H808 O807 0.980 . S
O809 Co806 2.080 1_655 S
O809 Co810 2.042 . S
O809 Co811 2.122 . S
O809 H812 0.980 . S
Co810 O809 2.042 . S
Co810 O818 2.286 . S
Co810 O819 2.069 . S
Co810 O820 2.015 . S
Co810 O823 2.264 . S
Co811 O809 2.122 . S
Co811 O822 1.976 . S
Co811 O823 2.327 . S
Co811 O824 2.073 . S
H812 O809 0.980 . S
O813 Co805 2.073 . S
O813 C828 1.245 . S
O814 Co804 2.264 . S
O814 Co805 2.327 . S
O814 C828 1.257 . S
O815 Co805 1.976 . S
O815 C827 1.251 . S
O816 Co806 2.113 . S
O816 C827 1.274 . S
O817 Co806 2.139 1_655 S
O817 C830 1.246 . S
O818 Co810 2.286 . S
O818 C829 1.259 . S
O819 Co810 2.069 . S
O819 C829 1.289 . S
O820 Co810 2.015 . S
O820 C830 1.257 . S
O821 Co806 2.110 1_655 S
O821 C831 1.274 . S
O822 Co811 1.976 . S
O822 C831 1.251 . S
O823 Co810 2.264 . S
O823 Co811 2.327 . S
O823 C832 1.257 . S
O824 Co811 2.073 . S
O824 C832 1.245 . S
C825 O833 1.259 . S
C825 O834 1.289 . S
C826 O835 1.246 . S
C826 O836 1.257 . S
C827 O815 1.251 . S
C827 O816 1.274 . S
C828 O813 1.245 . S
C828 O814 1.257 . S
C829 O818 1.259 . S
C829 O819 1.289 . S
C830 O817 1.246 . S
C830 O820 1.257 . S
C831 O821 1.274 . S
C831 O822 1.251 . S
C832 O823 1.257 . S
C832 O824 1.245 . S
O833 Co804 2.286 . S
O833 C825 1.259 . S
O834 Co804 2.069 . S
O834 C825 1.289 . S
O835 Co806 2.148 . S
O835 C826 1.246 . S
O836 Co804 2.015 . S
O836 C826 1.257 . S
Co837 O840 2.042 . S
Co837 O847 2.264 . S
Co837 O866 2.286 . S
Co837 O867 2.069 . S
Co837 O869 2.015 1_565 S
Co838 O840 2.122 . S
Co838 O846 2.073 . S
Co838 O847 2.327 . S
Co838 O848 1.976 1_565 S
Co839 O840 2.087 1_545 S
Co839 O842 2.087 . S
Co839 O849 2.111 . S
Co839 O850 2.143 1_545 S
Co839 O854 2.111 1_545 S
Co839 O868 2.143 . S
O840 Co837 2.042 . S
O840 Co838 2.122 . S
O840 Co839 2.087 1_565 S
O840 H841 0.980 . S
H841 O840 0.980 . S
O842 Co839 2.087 . S
O842 Co843 2.042 . S
O842 Co844 2.122 . S
O842 H845 0.980 . S
Co843 O842 2.042 . S
Co843 O851 2.286 . S
Co843 O852 2.069 . S
Co843 O853 2.015 1_545 S
Co843 O856 2.264 . S
Co844 O842 2.122 . S
Co844 O855 1.976 1_545 S
Co844 O856 2.327 . S
Co844 O857 2.073 . S
H845 O842 0.980 . S
O846 Co838 2.073 . S
O846 C861 1.245 . S
O847 Co837 2.264 . S
O847 Co838 2.327 . S
O847 C861 1.257 . S
O848 Co838 1.976 1_545 S
O848 C860 1.251 . S
O849 Co839 2.111 . S
O849 C860 1.274 . S
O850 Co839 2.143 1_565 S
O850 C863 1.246 . S
O851 Co843 2.286 . S
O851 C862 1.259 . S
O852 Co843 2.069 . S
O852 C862 1.289 . S
O853 Co843 2.015 1_565 S
O853 C863 1.257 . S
O854 Co839 2.111 1_565 S
O854 C864 1.274 . S
O855 Co844 1.976 1_565 S
O855 C864 1.251 . S
O856 Co843 2.264 . S
O856 Co844 2.327 . S
O856 C865 1.257 . S
O857 Co844 2.073 . S
O857 C865 1.245 . S
C858 O866 1.259 . S
C858 O867 1.289 . S
C859 O868 1.246 . S
C859 O869 1.257 . S
C860 O848 1.251 . S
C860 O849 1.274 . S
C861 O846 1.245 . S
C861 O847 1.257 . S
C862 O851 1.259 . S
C862 O852 1.289 . S
C863 O850 1.246 . S
C863 O853 1.257 . S
C864 O854 1.274 . S
C864 O855 1.251 . S
C865 O856 1.257 . S
C865 O857 1.245 . S
O866 Co837 2.286 . S
O866 C858 1.259 . S
O867 Co837 2.069 . S
O867 C858 1.289 . S
O868 Co839 2.143 . S
O868 C859 1.246 . S
O869 Co837 2.015 1_545 S
O869 C859 1.257 . S
C870 C871 1.391 . S
C870 C872 1.394 . S
C870 H886 0.931 . S
C871 C870 1.391 . S
C871 C875 1.376 . S
C872 C870 1.394 . S
C872 C873 1.369 . S
C872 C876 1.531 . S
C873 C872 1.369 . S
C873 C874 1.410 . S
C873 C881 1.503 . S
C874 C873 1.410 . S
C874 C875 1.392 . S
C874 C877 1.511 . S
C875 C871 1.376 . S
C875 C874 1.392 . S
C875 H887 0.929 . S
C876 C872 1.531 . S
C876 H888 0.960 . S
C876 H889 0.962 . S
C876 H890 0.960 . S
C877 C874 1.511 . S
C877 H891 0.961 . S
C877 H892 0.961 . S
C877 H893 0.961 . S
C878 C879 1.370 . S
C878 C880 1.363 . S
C878 H894 0.931 . S
C879 C878 1.370 . S
C879 C883 1.408 . S
C880 C878 1.363 . S
C880 C881 1.370 . S
C880 C884 1.524 . S
C881 C873 1.503 . S
C881 C880 1.370 . S
C881 C882 1.403 . S
C882 C881 1.403 . S
C882 C883 1.404 . S
C882 C885 1.539 . S
C883 C879 1.408 . S
C883 C882 1.404 . S
C883 H895 0.930 . S
C884 C880 1.524 . S
C884 H896 0.956 . S
C884 H897 0.961 . S
C884 H898 0.961 . S
C885 C882 1.539 . S
C885 H899 0.958 . S
C885 H900 0.961 . S
C885 H901 0.960 . S
H886 C870 0.931 . S
H887 C875 0.929 . S
H888 C876 0.960 . S
H889 C876 0.962 . S
H890 C876 0.960 . S
H891 C877 0.961 . S
H892 C877 0.961 . S
H893 C877 0.961 . S
H894 C878 0.931 . S
H895 C883 0.930 . S
H896 C884 0.956 . S
H897 C884 0.961 . S
H898 C884 0.961 . S
H899 C885 0.958 . S
H900 C885 0.961 . S
H901 C885 0.960 . S
C902 C903 1.391 . S
C902 C904 1.394 . S
C902 H918 0.931 . S
C903 C902 1.391 . S
C903 C907 1.376 . S
C904 C902 1.394 . S
C904 C905 1.369 . S
C904 C908 1.531 . S
C905 C904 1.369 . S
C905 C906 1.410 . S
C905 C913 1.503 . S
C906 C905 1.410 . S
C906 C907 1.392 . S
C906 C909 1.511 . S
C907 C903 1.376 . S
C907 C906 1.392 . S
C907 H919 0.929 . S
C908 C904 1.531 . S
C908 H920 0.960 . S
C908 H921 0.962 . S
C908 H922 0.960 . S
C909 C906 1.511 . S
C909 H923 0.961 . S
C909 H924 0.961 . S
C909 H925 0.961 . S
C910 C911 1.370 . S
C910 C912 1.363 . S
C910 H926 0.931 . S
C911 C910 1.370 . S
C911 C915 1.408 . S
C912 C910 1.363 . S
C912 C913 1.370 . S
C912 C916 1.524 . S
C913 C905 1.503 . S
C913 C912 1.370 . S
C913 C914 1.403 . S
C914 C913 1.403 . S
C914 C915 1.404 . S
C914 C917 1.539 . S
C915 C911 1.408 . S
C915 C914 1.404 . S
C915 H927 0.930 . S
C916 C912 1.524 . S
C916 H928 0.956 . S
C916 H929 0.961 . S
C916 H930 0.961 . S
C917 C914 1.539 . S
C917 H931 0.958 . S
C917 H932 0.961 . S
C917 H933 0.960 . S
H918 C902 0.931 . S
H919 C907 0.929 . S
H920 C908 0.960 . S
H921 C908 0.962 . S
H922 C908 0.960 . S
H923 C909 0.961 . S
H924 C909 0.961 . S
H925 C909 0.961 . S
H926 C910 0.931 . S
H927 C915 0.930 . S
H928 C916 0.956 . S
H929 C916 0.961 . S
H930 C916 0.961 . S
H931 C917 0.958 . S
H932 C917 0.961 . S
H933 C917 0.960 . S
C934 C935 1.391 . S
C934 C936 1.394 . S
C934 H950 0.931 . S
C935 C934 1.391 . S
C935 C939 1.376 . S
C936 C934 1.394 . S
C936 C937 1.369 . S
C936 C940 1.531 . S
C937 C936 1.369 . S
C937 C938 1.410 . S
C937 C945 1.503 . S
C938 C937 1.410 . S
C938 C939 1.392 . S
C938 C941 1.511 . S
C939 C935 1.376 . S
C939 C938 1.392 . S
C939 H951 0.929 . S
C940 C936 1.531 . S
C940 H952 0.960 . S
C940 H953 0.962 . S
C940 H954 0.960 . S
C941 C938 1.511 . S
C941 H955 0.961 . S
C941 H956 0.961 . S
C941 H957 0.961 . S
C942 C943 1.370 . S
C942 C944 1.363 . S
C942 H958 0.931 . S
C943 C942 1.370 . S
C943 C947 1.408 . S
C944 C942 1.363 . S
C944 C945 1.370 . S
C944 C948 1.524 . S
C945 C937 1.503 . S
C945 C944 1.370 . S
C945 C946 1.403 . S
C946 C945 1.403 . S
C946 C947 1.404 . S
C946 C949 1.539 . S
C947 C943 1.408 . S
C947 C946 1.404 . S
C947 H959 0.930 . S
C948 C944 1.524 . S
C948 H960 0.956 . S
C948 H961 0.961 . S
C948 H962 0.961 . S
C949 C946 1.539 . S
C949 H963 0.958 . S
C949 H964 0.961 . S
C949 H965 0.960 . S
H950 C934 0.931 . S
H951 C939 0.929 . S
H952 C940 0.960 . S
H953 C940 0.962 . S
H954 C940 0.960 . S
H955 C941 0.961 . S
H956 C941 0.961 . S
H957 C941 0.961 . S
H958 C942 0.931 . S
H959 C947 0.930 . S
H960 C948 0.956 . S
H961 C948 0.961 . S
H962 C948 0.961 . S
H963 C949 0.958 . S
H964 C949 0.961 . S
H965 C949 0.960 . S
C966 C967 1.391 . S
C966 C968 1.394 . S
C966 H982 0.931 . S
C967 C966 1.391 . S
C967 C971 1.376 . S
C968 C966 1.394 . S
C968 C969 1.369 . S
C968 C972 1.531 . S
C969 C968 1.369 . S
C969 C970 1.410 . S
C969 C977 1.503 . S
C970 C969 1.410 . S
C970 C971 1.392 . S
C970 C973 1.511 . S
C971 C967 1.376 . S
C971 C970 1.392 . S
C971 H983 0.929 . S
C972 C968 1.531 . S
C972 H984 0.960 . S
C972 H985 0.962 . S
C972 H986 0.960 . S
C973 C970 1.511 . S
C973 H987 0.961 . S
C973 H988 0.961 . S
C973 H989 0.961 . S
C974 C975 1.370 . S
C974 C976 1.363 . S
C974 H990 0.931 . S
C975 C974 1.370 . S
C975 C979 1.408 . S
C976 C974 1.363 . S
C976 C977 1.370 . S
C976 C980 1.524 . S
C977 C969 1.503 . S
C977 C976 1.370 . S
C977 C978 1.403 . S
C978 C977 1.403 . S
C978 C979 1.404 . S
C978 C981 1.539 . S
C979 C975 1.408 . S
C979 C978 1.404 . S
C979 H991 0.930 . S
C980 C976 1.524 . S
C980 H992 0.956 . S
C980 H993 0.961 . S
C980 H994 0.961 . S
C981 C978 1.539 . S
C981 H995 0.958 . S
C981 H996 0.961 . S
C981 H997 0.960 . S
H982 C966 0.931 . S
H983 C971 0.929 . S
H984 C972 0.960 . S
H985 C972 0.962 . S
H986 C972 0.960 . S
H987 C973 0.961 . S
H988 C973 0.961 . S
H989 C973 0.961 . S
H990 C974 0.931 . S
H991 C979 0.930 . S
H992 C980 0.956 . S
H993 C980 0.961 . S
H994 C980 0.961 . S
H995 C981 0.958 . S
H996 C981 0.961 . S
H997 C981 0.960 . S
C998 C999 1.391 . S
C998 C1000 1.394 . S
C998 H1014 0.931 . S
C999 C998 1.391 . S
C999 C1003 1.376 . S
C1000 C998 1.394 . S
C1000 C1001 1.369 . S
C1000 C1004 1.531 . S
C1001 C1000 1.369 . S
C1001 C1002 1.410 . S
C1001 C1009 1.503 . S
C1002 C1001 1.410 . S
C1002 C1003 1.392 . S
C1002 C1005 1.511 . S
C1003 C999 1.376 . S
C1003 C1002 1.392 . S
C1003 H1015 0.929 . S
C1004 C1000 1.531 . S
C1004 H1016 0.960 . S
C1004 H1017 0.962 . S
C1004 H1018 0.960 . S
C1005 C1002 1.511 . S
C1005 H1019 0.961 . S
C1005 H1020 0.961 . S
C1005 H1021 0.961 . S
C1006 C1007 1.370 . S
C1006 C1008 1.363 . S
C1006 H1022 0.931 . S
C1007 C1006 1.370 . S
C1007 C1011 1.408 . S
C1008 C1006 1.363 . S
C1008 C1009 1.370 . S
C1008 C1012 1.524 . S
C1009 C1001 1.503 . S
C1009 C1008 1.370 . S
C1009 C1010 1.403 . S
C1010 C1009 1.403 . S
C1010 C1011 1.404 . S
C1010 C1013 1.539 . S
C1011 C1007 1.408 . S
C1011 C1010 1.404 . S
C1011 H1023 0.930 . S
C1012 C1008 1.524 . S
C1012 H1024 0.956 . S
C1012 H1025 0.961 . S
C1012 H1026 0.961 . S
C1013 C1010 1.539 . S
C1013 H1027 0.958 . S
C1013 H1028 0.961 . S
C1013 H1029 0.960 . S
H1014 C998 0.931 . S
H1015 C1003 0.929 . S
H1016 C1004 0.960 . S
H1017 C1004 0.962 . S
H1018 C1004 0.960 . S
H1019 C1005 0.961 . S
H1020 C1005 0.961 . S
H1021 C1005 0.961 . S
H1022 C1006 0.931 . S
H1023 C1011 0.930 . S
H1024 C1012 0.956 . S
H1025 C1012 0.961 . S
H1026 C1012 0.961 . S
H1027 C1013 0.958 . S
H1028 C1013 0.961 . S
H1029 C1013 0.960 . S
C1030 C1031 1.391 . S
C1030 C1032 1.394 . S
C1030 H1046 0.931 . S
C1031 C1030 1.391 . S
C1031 C1035 1.376 . S
C1032 C1030 1.394 . S
C1032 C1033 1.369 . S
C1032 C1036 1.531 . S
C1033 C1032 1.369 . S
C1033 C1034 1.410 . S
C1033 C1041 1.503 . S
C1034 C1033 1.410 . S
C1034 C1035 1.392 . S
C1034 C1037 1.511 . S
C1035 C1031 1.376 . S
C1035 C1034 1.392 . S
C1035 H1047 0.929 . S
C1036 C1032 1.531 . S
C1036 H1048 0.960 . S
C1036 H1049 0.962 . S
C1036 H1050 0.960 . S
C1037 C1034 1.511 . S
C1037 H1051 0.961 . S
C1037 H1052 0.961 . S
C1037 H1053 0.961 . S
C1038 C1039 1.370 . S
C1038 C1040 1.363 . S
C1038 H1054 0.931 . S
C1039 C1038 1.370 . S
C1039 C1043 1.408 . S
C1040 C1038 1.363 . S
C1040 C1041 1.370 . S
C1040 C1044 1.524 . S
C1041 C1033 1.503 . S
C1041 C1040 1.370 . S
C1041 C1042 1.403 . S
C1042 C1041 1.403 . S
C1042 C1043 1.404 . S
C1042 C1045 1.539 . S
C1043 C1039 1.408 . S
C1043 C1042 1.404 . S
C1043 H1055 0.930 . S
C1044 C1040 1.524 . S
C1044 H1056 0.956 . S
C1044 H1057 0.961 . S
C1044 H1058 0.961 . S
C1045 C1042 1.539 . S
C1045 H1059 0.958 . S
C1045 H1060 0.961 . S
C1045 H1061 0.960 . S
H1046 C1030 0.931 . S
H1047 C1035 0.929 . S
H1048 C1036 0.960 . S
H1049 C1036 0.962 . S
H1050 C1036 0.960 . S
H1051 C1037 0.961 . S
H1052 C1037 0.961 . S
H1053 C1037 0.961 . S
H1054 C1038 0.931 . S
H1055 C1043 0.930 . S
H1056 C1044 0.956 . S
H1057 C1044 0.961 . S
H1058 C1044 0.961 . S
H1059 C1045 0.958 . S
H1060 C1045 0.961 . S
H1061 C1045 0.960 . S
C1062 C1063 1.391 . S
C1062 C1064 1.394 . S
C1062 H1078 0.931 . S
C1063 C1062 1.391 . S
C1063 C1067 1.376 . S
C1064 C1062 1.394 . S
C1064 C1065 1.369 . S
C1064 C1068 1.531 . S
C1065 C1064 1.369 . S
C1065 C1066 1.410 . S
C1065 C1073 1.503 . S
C1066 C1065 1.410 . S
C1066 C1067 1.392 . S
C1066 C1069 1.511 . S
C1067 C1063 1.376 . S
C1067 C1066 1.392 . S
C1067 H1079 0.929 . S
C1068 C1064 1.531 . S
C1068 H1080 0.960 . S
C1068 H1081 0.962 . S
C1068 H1082 0.960 . S
C1069 C1066 1.511 . S
C1069 H1083 0.961 . S
C1069 H1084 0.961 . S
C1069 H1085 0.961 . S
C1070 C1071 1.370 . S
C1070 C1072 1.363 . S
C1070 H1086 0.931 . S
C1071 C1070 1.370 . S
C1071 C1075 1.408 . S
C1072 C1070 1.363 . S
C1072 C1073 1.370 . S
C1072 C1076 1.524 . S
C1073 C1065 1.503 . S
C1073 C1072 1.370 . S
C1073 C1074 1.403 . S
C1074 C1073 1.403 . S
C1074 C1075 1.404 . S
C1074 C1077 1.539 . S
C1075 C1071 1.408 . S
C1075 C1074 1.404 . S
C1075 H1087 0.930 . S
C1076 C1072 1.524 . S
C1076 H1088 0.956 . S
C1076 H1089 0.961 . S
C1076 H1090 0.961 . S
C1077 C1074 1.539 . S
C1077 H1091 0.958 . S
C1077 H1092 0.961 . S
C1077 H1093 0.960 . S
H1078 C1062 0.931 . S
H1079 C1067 0.929 . S
H1080 C1068 0.960 . S
H1081 C1068 0.962 . S
H1082 C1068 0.960 . S
H1083 C1069 0.961 . S
H1084 C1069 0.961 . S
H1085 C1069 0.961 . S
H1086 C1070 0.931 . S
H1087 C1075 0.930 . S
H1088 C1076 0.956 . S
H1089 C1076 0.961 . S
H1090 C1076 0.961 . S
H1091 C1077 0.958 . S
H1092 C1077 0.961 . S
H1093 C1077 0.960 . S
C1094 C1095 1.391 . S
C1094 C1096 1.394 . S
C1094 H1110 0.931 . S
C1095 C1094 1.391 . S
C1095 C1099 1.376 . S
C1096 C1094 1.394 . S
C1096 C1097 1.369 . S
C1096 C1100 1.531 . S
C1097 C1096 1.369 . S
C1097 C1098 1.410 . S
C1097 C1105 1.503 . S
C1098 C1097 1.410 . S
C1098 C1099 1.392 . S
C1098 C1101 1.511 . S
C1099 C1095 1.376 . S
C1099 C1098 1.392 . S
C1099 H1111 0.929 . S
C1100 C1096 1.531 . S
C1100 H1112 0.960 . S
C1100 H1113 0.962 . S
C1100 H1114 0.960 . S
C1101 C1098 1.511 . S
C1101 H1115 0.961 . S
C1101 H1116 0.961 . S
C1101 H1117 0.961 . S
C1102 C1103 1.370 . S
C1102 C1104 1.363 . S
C1102 H1118 0.931 . S
C1103 C1102 1.370 . S
C1103 C1107 1.408 . S
C1104 C1102 1.363 . S
C1104 C1105 1.370 . S
C1104 C1108 1.524 . S
C1105 C1097 1.503 . S
C1105 C1104 1.370 . S
C1105 C1106 1.403 . S
C1106 C1105 1.403 . S
C1106 C1107 1.404 . S
C1106 C1109 1.539 . S
C1107 C1103 1.408 . S
C1107 C1106 1.404 . S
C1107 H1119 0.930 . S
C1108 C1104 1.524 . S
C1108 H1120 0.956 . S
C1108 H1121 0.961 . S
C1108 H1122 0.961 . S
C1109 C1106 1.539 . S
C1109 H1123 0.958 . S
C1109 H1124 0.961 . S
C1109 H1125 0.960 . S
H1110 C1094 0.931 . S
H1111 C1099 0.929 . S
H1112 C1100 0.960 . S
H1113 C1100 0.962 . S
H1114 C1100 0.960 . S
H1115 C1101 0.961 . S
H1116 C1101 0.961 . S
H1117 C1101 0.961 . S
H1118 C1102 0.931 . S
H1119 C1107 0.930 . S
H1120 C1108 0.956 . S
H1121 C1108 0.961 . S
H1122 C1108 0.961 . S
H1123 C1109 0.958 . S
H1124 C1109 0.961 . S
H1125 C1109 0.960 . S
C1126 C1127 1.391 . S
C1126 C1128 1.394 . S
C1126 H1142 0.931 . S
C1127 C1126 1.391 . S
C1127 C1131 1.376 . S
C1128 C1126 1.394 . S
C1128 C1129 1.369 . S
C1128 C1132 1.531 . S
C1129 C1128 1.369 . S
C1129 C1130 1.410 . S
C1129 C1137 1.503 . S
C1130 C1129 1.410 . S
C1130 C1131 1.392 . S
C1130 C1133 1.511 . S
C1131 C1127 1.376 . S
C1131 C1130 1.392 . S
C1131 H1143 0.929 . S
C1132 C1128 1.531 . S
C1132 H1144 0.960 . S
C1132 H1145 0.962 . S
C1132 H1146 0.960 . S
C1133 C1130 1.511 . S
C1133 H1147 0.961 . S
C1133 H1148 0.961 . S
C1133 H1149 0.961 . S
C1134 C1135 1.370 . S
C1134 C1136 1.363 . S
C1134 H1150 0.931 . S
C1135 C1134 1.370 . S
C1135 C1139 1.408 . S
C1136 C1134 1.363 . S
C1136 C1137 1.370 . S
C1136 C1140 1.524 . S
C1137 C1129 1.503 . S
C1137 C1136 1.370 . S
C1137 C1138 1.403 . S
C1138 C1137 1.403 . S
C1138 C1139 1.404 . S
C1138 C1141 1.539 . S
C1139 C1135 1.408 . S
C1139 C1138 1.404 . S
C1139 H1151 0.930 . S
C1140 C1136 1.524 . S
C1140 H1152 0.956 . S
C1140 H1153 0.961 . S
C1140 H1154 0.961 . S
C1141 C1138 1.539 . S
C1141 H1155 0.958 . S
C1141 H1156 0.961 . S
C1141 H1157 0.960 . S
H1142 C1126 0.931 . S
H1143 C1131 0.929 . S
H1144 C1132 0.960 . S
H1145 C1132 0.962 . S
H1146 C1132 0.960 . S
H1147 C1133 0.961 . S
H1148 C1133 0.961 . S
H1149 C1133 0.961 . S
H1150 C1134 0.931 . S
H1151 C1139 0.930 . S
H1152 C1140 0.956 . S
H1153 C1140 0.961 . S
H1154 C1140 0.961 . S
H1155 C1141 0.958 . S
H1156 C1141 0.961 . S
H1157 C1141 0.960 . S
C1158 C1159 1.391 . S
C1158 C1160 1.394 . S
C1158 H1174 0.931 . S
C1159 C1158 1.391 . S
C1159 C1163 1.376 . S
C1160 C1158 1.394 . S
C1160 C1161 1.369 . S
C1160 C1164 1.531 . S
C1161 C1160 1.369 . S
C1161 C1162 1.410 . S
C1161 C1169 1.503 . S
C1162 C1161 1.410 . S
C1162 C1163 1.392 . S
C1162 C1165 1.511 . S
C1163 C1159 1.376 . S
C1163 C1162 1.392 . S
C1163 H1175 0.929 . S
C1164 C1160 1.531 . S
C1164 H1176 0.960 . S
C1164 H1177 0.962 . S
C1164 H1178 0.960 . S
C1165 C1162 1.511 . S
C1165 H1179 0.961 . S
C1165 H1180 0.961 . S
C1165 H1181 0.961 . S
C1166 C1167 1.370 . S
C1166 C1168 1.363 . S
C1166 H1182 0.931 . S
C1167 C1166 1.370 . S
C1167 C1171 1.408 . S
C1168 C1166 1.363 . S
C1168 C1169 1.370 . S
C1168 C1172 1.524 . S
C1169 C1161 1.503 . S
C1169 C1168 1.370 . S
C1169 C1170 1.403 . S
C1170 C1169 1.403 . S
C1170 C1171 1.404 . S
C1170 C1173 1.539 . S
C1171 C1167 1.408 . S
C1171 C1170 1.404 . S
C1171 H1183 0.930 . S
C1172 C1168 1.524 . S
C1172 H1184 0.956 . S
C1172 H1185 0.961 . S
C1172 H1186 0.961 . S
C1173 C1170 1.539 . S
C1173 H1187 0.958 . S
C1173 H1188 0.961 . S
C1173 H1189 0.960 . S
H1174 C1158 0.931 . S
H1175 C1163 0.929 . S
H1176 C1164 0.960 . S
H1177 C1164 0.962 . S
H1178 C1164 0.960 . S
H1179 C1165 0.961 . S
H1180 C1165 0.961 . S
H1181 C1165 0.961 . S
H1182 C1166 0.931 . S
H1183 C1171 0.930 . S
H1184 C1172 0.956 . S
H1185 C1172 0.961 . S
H1186 C1172 0.961 . S
H1187 C1173 0.958 . S
H1188 C1173 0.961 . S
H1189 C1173 0.960 . S
C1190 C1191 1.391 . S
C1190 C1192 1.394 . S
C1190 H1206 0.931 . S
C1191 C1190 1.391 . S
C1191 C1195 1.376 . S
C1192 C1190 1.394 . S
C1192 C1193 1.369 . S
C1192 C1196 1.531 . S
C1193 C1192 1.369 . S
C1193 C1194 1.410 . S
C1193 C1201 1.503 . S
C1194 C1193 1.410 . S
C1194 C1195 1.392 . S
C1194 C1197 1.511 . S
C1195 C1191 1.376 . S
C1195 C1194 1.392 . S
C1195 H1207 0.929 . S
C1196 C1192 1.531 . S
C1196 H1208 0.960 . S
C1196 H1209 0.962 . S
C1196 H1210 0.960 . S
C1197 C1194 1.511 . S
C1197 H1211 0.961 . S
C1197 H1212 0.961 . S
C1197 H1213 0.961 . S
C1198 C1199 1.370 . S
C1198 C1200 1.363 . S
C1198 H1214 0.931 . S
C1199 C1198 1.370 . S
C1199 C1203 1.408 . S
C1200 C1198 1.363 . S
C1200 C1201 1.370 . S
C1200 C1204 1.524 . S
C1201 C1193 1.503 . S
C1201 C1200 1.370 . S
C1201 C1202 1.403 . S
C1202 C1201 1.403 . S
C1202 C1203 1.404 . S
C1202 C1205 1.539 . S
C1203 C1199 1.408 . S
C1203 C1202 1.404 . S
C1203 H1215 0.930 . S
C1204 C1200 1.524 . S
C1204 H1216 0.956 . S
C1204 H1217 0.961 . S
C1204 H1218 0.961 1_554 S
C1205 C1202 1.539 . S
C1205 H1219 0.958 . S
C1205 H1220 0.961 . S
C1205 H1221 0.960 . S
H1206 C1190 0.931 . S
H1207 C1195 0.929 . S
H1208 C1196 0.960 . S
H1209 C1196 0.962 . S
H1210 C1196 0.960 . S
H1211 C1197 0.961 . S
H1212 C1197 0.961 . S
H1213 C1197 0.961 . S
H1214 C1198 0.931 . S
H1215 C1203 0.930 . S
H1216 C1204 0.956 . S
H1217 C1204 0.961 . S
H1218 C1204 0.961 1_556 S
H1219 C1205 0.958 . S
H1220 C1205 0.961 . S
H1221 C1205 0.960 . S
C1222 C1223 1.391 . S
C1222 C1224 1.394 . S
C1222 H1238 0.931 . S
C1223 C1222 1.391 . S
C1223 C1227 1.376 . S
C1224 C1222 1.394 . S
C1224 C1225 1.369 . S
C1224 C1228 1.531 . S
C1225 C1224 1.369 . S
C1225 C1226 1.410 . S
C1225 C1233 1.503 . S
C1226 C1225 1.410 . S
C1226 C1227 1.392 . S
C1226 C1229 1.511 . S
C1227 C1223 1.376 . S
C1227 C1226 1.392 . S
C1227 H1239 0.929 . S
C1228 C1224 1.531 . S
C1228 H1240 0.960 . S
C1228 H1241 0.962 . S
C1228 H1242 0.960 . S
C1229 C1226 1.511 . S
C1229 H1243 0.961 . S
C1229 H1244 0.961 . S
C1229 H1245 0.961 . S
C1230 C1231 1.370 . S
C1230 C1232 1.363 . S
C1230 H1246 0.931 . S
C1231 C1230 1.370 . S
C1231 C1235 1.408 . S
C1232 C1230 1.363 . S
C1232 C1233 1.370 . S
C1232 C1236 1.524 . S
C1233 C1225 1.503 . S
C1233 C1232 1.370 . S
C1233 C1234 1.403 . S
C1234 C1233 1.403 . S
C1234 C1235 1.404 . S
C1234 C1237 1.539 . S
C1235 C1231 1.408 . S
C1235 C1234 1.404 . S
C1235 H1247 0.930 . S
C1236 C1232 1.524 . S
C1236 H1248 0.956 . S
C1236 H1249 0.961 . S
C1236 H1250 0.961 . S
C1237 C1234 1.539 . S
C1237 H1251 0.958 . S
C1237 H1252 0.961 . S
C1237 H1253 0.960 . S
H1238 C1222 0.931 . S
H1239 C1227 0.929 . S
H1240 C1228 0.960 . S
H1241 C1228 0.962 . S
H1242 C1228 0.960 . S
H1243 C1229 0.961 . S
H1244 C1229 0.961 . S
H1245 C1229 0.961 . S
H1246 C1230 0.931 . S
H1247 C1235 0.930 . S
H1248 C1236 0.956 . S
H1249 C1236 0.961 . S
H1250 C1236 0.961 . S
H1251 C1237 0.958 . S
H1252 C1237 0.961 . S
H1253 C1237 0.960 . S
C1254 C1255 1.391 . S
C1254 C1256 1.394 . S
C1254 H1270 0.931 . S
C1255 C1254 1.391 . S
C1255 C1259 1.376 . S
C1256 C1254 1.394 . S
C1256 C1257 1.369 . S
C1256 C1260 1.531 . S
C1257 C1256 1.369 . S
C1257 C1258 1.410 . S
C1257 C1265 1.503 . S
C1258 C1257 1.410 . S
C1258 C1259 1.392 . S
C1258 C1261 1.511 . S
C1259 C1255 1.376 . S
C1259 C1258 1.392 . S
C1259 H1271 0.929 . S
C1260 C1256 1.531 . S
C1260 H1272 0.960 . S
C1260 H1273 0.962 . S
C1260 H1274 0.960 . S
C1261 C1258 1.511 . S
C1261 H1275 0.961 . S
C1261 H1276 0.961 . S
C1261 H1277 0.961 . S
C1262 C1263 1.370 . S
C1262 C1264 1.363 . S
C1262 H1278 0.931 . S
C1263 C1262 1.370 . S
C1263 C1267 1.408 . S
C1264 C1262 1.363 . S
C1264 C1265 1.370 . S
C1264 C1268 1.524 . S
C1265 C1257 1.503 . S
C1265 C1264 1.370 . S
C1265 C1266 1.403 . S
C1266 C1265 1.403 . S
C1266 C1267 1.404 . S
C1266 C1269 1.539 . S
C1267 C1263 1.408 . S
C1267 C1266 1.404 . S
C1267 H1279 0.930 . S
C1268 C1264 1.524 . S
C1268 H1280 0.956 . S
C1268 H1281 0.961 . S
C1268 H1282 0.961 . S
C1269 C1266 1.539 . S
C1269 H1283 0.958 . S
C1269 H1284 0.961 . S
C1269 H1285 0.960 . S
H1270 C1254 0.931 . S
H1271 C1259 0.929 . S
H1272 C1260 0.960 . S
H1273 C1260 0.962 . S
H1274 C1260 0.960 . S
H1275 C1261 0.961 . S
H1276 C1261 0.961 . S
H1277 C1261 0.961 . S
H1278 C1262 0.931 . S
H1279 C1267 0.930 . S
H1280 C1268 0.956 . S
H1281 C1268 0.961 . S
H1282 C1268 0.961 . S
H1283 C1269 0.958 . S
H1284 C1269 0.961 . S
H1285 C1269 0.960 . S
C1286 C1287 1.391 . S
C1286 C1288 1.394 . S
C1286 H1302 0.931 . S
C1287 C1286 1.391 . S
C1287 C1291 1.376 . S
C1288 C1286 1.394 . S
C1288 C1289 1.369 . S
C1288 C1292 1.531 . S
C1289 C1288 1.369 . S
C1289 C1290 1.410 . S
C1289 C1297 1.503 . S
C1290 C1289 1.410 . S
C1290 C1291 1.392 . S
C1290 C1293 1.511 . S
C1291 C1287 1.376 . S
C1291 C1290 1.392 . S
C1291 H1303 0.929 . S
C1292 C1288 1.531 . S
C1292 H1304 0.960 . S
C1292 H1305 0.962 . S
C1292 H1306 0.960 . S
C1293 C1290 1.511 . S
C1293 H1307 0.961 . S
C1293 H1308 0.961 . S
C1293 H1309 0.961 . S
C1294 C1295 1.370 . S
C1294 C1296 1.363 . S
C1294 H1310 0.931 . S
C1295 C1294 1.370 . S
C1295 C1299 1.408 . S
C1296 C1294 1.363 . S
C1296 C1297 1.370 . S
C1296 C1300 1.524 . S
C1297 C1289 1.503 . S
C1297 C1296 1.370 . S
C1297 C1298 1.403 . S
C1298 C1297 1.403 . S
C1298 C1299 1.404 . S
C1298 C1301 1.539 . S
C1299 C1295 1.408 . S
C1299 C1298 1.404 . S
C1299 H1311 0.930 . S
C1300 C1296 1.524 . S
C1300 H1312 0.956 . S
C1300 H1313 0.961 . S
C1300 H1314 0.961 . S
C1301 C1298 1.539 . S
C1301 H1315 0.958 . S
C1301 H1316 0.961 . S
C1301 H1317 0.960 . S
H1302 C1286 0.931 . S
H1303 C1291 0.929 . S
H1304 C1292 0.960 . S
H1305 C1292 0.962 . S
H1306 C1292 0.960 . S
H1307 C1293 0.961 . S
H1308 C1293 0.961 . S
H1309 C1293 0.961 . S
H1310 C1294 0.931 . S
H1311 C1299 0.930 . S
H1312 C1300 0.956 . S
H1313 C1300 0.961 . S
H1314 C1300 0.961 . S
H1315 C1301 0.958 . S
H1316 C1301 0.961 . S
H1317 C1301 0.960 . S
C1318 C1319 1.391 . S
C1318 C1320 1.394 . S
C1318 H1334 0.931 . S
C1319 C1318 1.391 . S
C1319 C1323 1.376 . S
C1320 C1318 1.394 . S
C1320 C1321 1.369 . S
C1320 C1324 1.531 . S
C1321 C1320 1.369 . S
C1321 C1322 1.410 . S
C1321 C1329 1.503 . S
C1322 C1321 1.410 . S
C1322 C1323 1.392 . S
C1322 C1325 1.511 . S
C1323 C1319 1.376 . S
C1323 C1322 1.392 . S
C1323 H1335 0.929 . S
C1324 C1320 1.531 . S
C1324 H1336 0.960 . S
C1324 H1337 0.962 . S
C1324 H1338 0.960 . S
C1325 C1322 1.511 . S
C1325 H1339 0.961 . S
C1325 H1340 0.961 . S
C1325 H1341 0.961 . S
C1326 C1327 1.370 . S
C1326 C1328 1.363 . S
C1326 H1342 0.931 . S
C1327 C1326 1.370 . S
C1327 C1331 1.408 . S
C1328 C1326 1.363 . S
C1328 C1329 1.370 . S
C1328 C1332 1.524 . S
C1329 C1321 1.503 . S
C1329 C1328 1.370 . S
C1329 C1330 1.403 . S
C1330 C1329 1.403 . S
C1330 C1331 1.404 . S
C1330 C1333 1.539 . S
C1331 C1327 1.408 . S
C1331 C1330 1.404 . S
C1331 H1343 0.930 . S
C1332 C1328 1.524 . S
C1332 H1344 0.956 . S
C1332 H1345 0.961 . S
C1332 H1346 0.961 . S
C1333 C1330 1.539 . S
C1333 H1347 0.958 . S
C1333 H1348 0.961 . S
C1333 H1349 0.960 . S
H1334 C1318 0.931 . S
H1335 C1323 0.929 . S
H1336 C1324 0.960 . S
H1337 C1324 0.962 . S
H1338 C1324 0.960 . S
H1339 C1325 0.961 . S
H1340 C1325 0.961 . S
H1341 C1325 0.961 . S
H1342 C1326 0.931 . S
H1343 C1331 0.930 . S
H1344 C1332 0.956 . S
H1345 C1332 0.961 . S
H1346 C1332 0.961 . S
H1347 C1333 0.958 . S
H1348 C1333 0.961 . S
H1349 C1333 0.960 . S
C1350 C1351 1.391 . S
C1350 C1352 1.394 . S
C1350 H1366 0.931 . S
C1351 C1350 1.391 . S
C1351 C1355 1.376 . S
C1352 C1350 1.394 . S
C1352 C1353 1.369 . S
C1352 C1356 1.531 . S
C1353 C1352 1.369 . S
C1353 C1354 1.410 . S
C1353 C1361 1.503 . S
C1354 C1353 1.410 . S
C1354 C1355 1.392 . S
C1354 C1357 1.511 . S
C1355 C1351 1.376 . S
C1355 C1354 1.392 . S
C1355 H1367 0.929 . S
C1356 C1352 1.531 . S
C1356 H1368 0.960 . S
C1356 H1369 0.962 . S
C1356 H1370 0.960 . S
C1357 C1354 1.511 . S
C1357 H1371 0.961 . S
C1357 H1372 0.961 . S
C1357 H1373 0.961 . S
C1358 C1359 1.370 . S
C1358 C1360 1.363 . S
C1358 H1374 0.931 . S
C1359 C1358 1.370 . S
C1359 C1363 1.408 . S
C1360 C1358 1.363 . S
C1360 C1361 1.370 . S
C1360 C1364 1.524 . S
C1361 C1353 1.503 . S
C1361 C1360 1.370 . S
C1361 C1362 1.403 . S
C1362 C1361 1.403 . S
C1362 C1363 1.404 . S
C1362 C1365 1.539 1_556 S
C1363 C1359 1.408 . S
C1363 C1362 1.404 . S
C1363 H1375 0.930 1_556 S
C1364 C1360 1.524 . S
C1364 H1376 0.956 . S
C1364 H1377 0.961 . S
C1364 H1378 0.961 . S
C1365 C1362 1.539 1_554 S
C1365 H1379 0.958 . S
C1365 H1380 0.961 . S
C1365 H1381 0.960 1_554 S
H1366 C1350 0.931 . S
H1367 C1355 0.929 . S
H1368 C1356 0.960 . S
H1369 C1356 0.962 . S
H1370 C1356 0.960 . S
H1371 C1357 0.961 . S
H1372 C1357 0.961 . S
H1373 C1357 0.961 . S
H1374 C1358 0.931 . S
H1375 C1363 0.930 1_554 S
H1376 C1364 0.956 . S
H1377 C1364 0.961 . S
H1378 C1364 0.961 . S
H1379 C1365 0.958 . S
H1380 C1365 0.961 . S
H1381 C1365 0.960 1_556 S
C1382 C1383 1.391 . S
C1382 C1384 1.394 . S
C1382 H1398 0.931 . S
C1383 C1382 1.391 . S
C1383 C1387 1.376 . S
C1384 C1382 1.394 . S
C1384 C1385 1.369 . S
C1384 C1388 1.531 . S
C1385 C1384 1.369 . S
C1385 C1386 1.410 . S
C1385 C1393 1.503 . S
C1386 C1385 1.410 . S
C1386 C1387 1.392 . S
C1386 C1389 1.511 . S
C1387 C1383 1.376 . S
C1387 C1386 1.392 . S
C1387 H1399 0.929 . S
C1388 C1384 1.531 . S
C1388 H1400 0.960 . S
C1388 H1401 0.962 . S
C1388 H1402 0.960 . S
C1389 C1386 1.511 . S
C1389 H1403 0.961 . S
C1389 H1404 0.961 . S
C1389 H1405 0.961 . S
C1390 C1391 1.370 . S
C1390 C1392 1.363 . S
C1390 H1406 0.931 . S
C1391 C1390 1.370 . S
C1391 C1395 1.408 . S
C1392 C1390 1.363 . S
C1392 C1393 1.370 . S
C1392 C1396 1.524 . S
C1393 C1385 1.503 . S
C1393 C1392 1.370 . S
C1393 C1394 1.403 . S
C1394 C1393 1.403 . S
C1394 C1395 1.404 . S
C1394 C1397 1.539 . S
C1395 C1391 1.408 . S
C1395 C1394 1.404 . S
C1395 H1407 0.930 1_554 S
C1396 C1392 1.524 . S
C1396 H1408 0.956 . S
C1396 H1409 0.961 . S
C1396 H1410 0.961 . S
C1397 C1394 1.539 . S
C1397 H1411 0.958 . S
C1397 H1412 0.961 1_554 S
C1397 H1413 0.960 . S
H1398 C1382 0.931 . S
H1399 C1387 0.929 . S
H1400 C1388 0.960 . S
H1401 C1388 0.962 . S
H1402 C1388 0.960 . S
H1403 C1389 0.961 . S
H1404 C1389 0.961 . S
H1405 C1389 0.961 . S
H1406 C1390 0.931 . S
H1407 C1395 0.930 1_556 S
H1408 C1396 0.956 . S
H1409 C1396 0.961 . S
H1410 C1396 0.961 . S
H1411 C1397 0.958 . S
H1412 C1397 0.961 1_556 S
H1413 C1397 0.960 . S
C1414 C1415 1.391 . S
C1414 C1416 1.394 . S
C1414 H1430 0.931 . S
C1415 C1414 1.391 . S
C1415 C1419 1.376 . S
C1416 C1414 1.394 . S
C1416 C1417 1.369 . S
C1416 C1420 1.531 . S
C1417 C1416 1.369 . S
C1417 C1418 1.410 . S
C1417 C1425 1.503 . S
C1418 C1417 1.410 . S
C1418 C1419 1.392 . S
C1418 C1421 1.511 . S
C1419 C1415 1.376 . S
C1419 C1418 1.392 . S
C1419 H1431 0.929 . S
C1420 C1416 1.531 . S
C1420 H1432 0.960 . S
C1420 H1433 0.962 . S
C1420 H1434 0.960 . S
C1421 C1418 1.511 . S
C1421 H1435 0.961 . S
C1421 H1436 0.961 . S
C1421 H1437 0.961 . S
C1422 C1423 1.370 . S
C1422 C1424 1.363 . S
C1422 H1438 0.931 . S
C1423 C1422 1.370 . S
C1423 C1427 1.408 . S
C1424 C1422 1.363 . S
C1424 C1425 1.370 . S
C1424 C1428 1.524 . S
C1425 C1417 1.503 . S
C1425 C1424 1.370 . S
C1425 C1426 1.403 . S
C1426 C1425 1.403 . S
C1426 C1427 1.404 . S
C1426 C1429 1.539 . S
C1427 C1423 1.408 . S
C1427 C1426 1.404 . S
C1427 H1439 0.930 . S
C1428 C1424 1.524 . S
C1428 H1440 0.956 . S
C1428 H1441 0.961 . S
C1428 H1442 0.961 . S
C1429 C1426 1.539 . S
C1429 H1443 0.958 . S
C1429 H1444 0.961 . S
C1429 H1445 0.960 . S
H1430 C1414 0.931 . S
H1431 C1419 0.929 . S
H1432 C1420 0.960 . S
H1433 C1420 0.962 . S
H1434 C1420 0.960 . S
H1435 C1421 0.961 . S
H1436 C1421 0.961 . S
H1437 C1421 0.961 . S
H1438 C1422 0.931 . S
H1439 C1427 0.930 . S
H1440 C1428 0.956 . S
H1441 C1428 0.961 . S
H1442 C1428 0.961 . S
H1443 C1429 0.958 . S
H1444 C1429 0.961 . S
H1445 C1429 0.960 . S
C1446 C1447 1.391 . S
C1446 C1448 1.394 . S
C1446 H1462 0.931 . S
C1447 C1446 1.391 . S
C1447 C1451 1.376 . S
C1448 C1446 1.394 . S
C1448 C1449 1.369 . S
C1448 C1452 1.531 . S
C1449 C1448 1.369 . S
C1449 C1450 1.410 . S
C1449 C1457 1.503 . S
C1450 C1449 1.410 . S
C1450 C1451 1.392 . S
C1450 C1453 1.511 . S
C1451 C1447 1.376 . S
C1451 C1450 1.392 . S
C1451 H1463 0.929 . S
C1452 C1448 1.531 . S
C1452 H1464 0.960 . S
C1452 H1465 0.962 . S
C1452 H1466 0.960 . S
C1453 C1450 1.511 . S
C1453 H1467 0.961 . S
C1453 H1468 0.961 . S
C1453 H1469 0.961 . S
C1454 C1455 1.370 . S
C1454 C1456 1.363 . S
C1454 H1470 0.931 . S
C1455 C1454 1.370 . S
C1455 C1459 1.408 . S
C1456 C1454 1.363 . S
C1456 C1457 1.370 . S
C1456 C1460 1.524 . S
C1457 C1449 1.503 . S
C1457 C1456 1.370 . S
C1457 C1458 1.403 . S
C1458 C1457 1.403 . S
C1458 C1459 1.404 . S
C1458 C1461 1.539 . S
C1459 C1455 1.408 . S
C1459 C1458 1.404 . S
C1459 H1471 0.908 1_556 S
C1460 C1456 1.524 . S
C1460 H1472 0.956 . S
C1460 H1473 0.961 . S
C1460 H1474 0.961 . S
C1461 C1458 1.539 . S
C1461 H1475 0.958 1_556 S
C1461 H1476 0.961 . S
C1461 H1477 0.960 . S
H1462 C1446 0.931 . S
H1463 C1451 0.929 . S
H1464 C1452 0.960 . S
H1465 C1452 0.962 . S
H1466 C1452 0.960 . S
H1467 C1453 0.961 . S
H1468 C1453 0.961 . S
H1469 C1453 0.961 . S
H1470 C1454 0.931 . S
H1471 C1459 0.908 1_554 S
H1472 C1460 0.956 . S
H1473 C1460 0.961 . S
H1474 C1460 0.961 . S
H1475 C1461 0.958 1_554 S
H1476 C1461 0.961 . S
H1477 C1461 0.960 . S
C1478 C1479 1.391 . S
C1478 C1480 1.394 . S
C1478 H1494 0.931 . S
C1479 C1478 1.391 . S
C1479 C1483 1.376 . S
C1480 C1478 1.394 . S
C1480 C1481 1.369 . S
C1480 C1484 1.531 . S
C1481 C1480 1.369 . S
C1481 C1482 1.410 . S
C1481 C1489 1.503 . S
C1482 C1481 1.410 . S
C1482 C1483 1.392 . S
C1482 C1485 1.511 . S
C1483 C1479 1.376 . S
C1483 C1482 1.392 . S
C1483 H1495 0.929 . S
C1484 C1480 1.531 . S
C1484 H1496 0.960 . S
C1484 H1497 0.962 . S
C1484 H1498 0.960 . S
C1485 C1482 1.511 . S
C1485 H1499 0.961 . S
C1485 H1500 0.961 . S
C1485 H1501 0.961 . S
C1486 C1487 1.370 . S
C1486 C1488 1.363 . S
C1486 H1502 0.931 . S
C1487 C1486 1.370 . S
C1487 C1491 1.408 . S
C1488 C1486 1.363 . S
C1488 C1489 1.370 . S
C1488 C1492 1.524 . S
C1489 C1481 1.503 . S
C1489 C1488 1.370 . S
C1489 C1490 1.403 . S
C1490 C1489 1.403 . S
C1490 C1491 1.404 . S
C1490 C1493 1.539 . S
C1491 C1487 1.408 . S
C1491 C1490 1.404 . S
C1491 H1503 0.930 . S
C1492 C1488 1.524 . S
C1492 H1504 0.956 . S
C1492 H1505 0.961 . S
C1492 H1506 0.961 . S
C1493 C1490 1.539 . S
C1493 H1507 0.958 . S
C1493 H1508 0.961 . S
C1493 H1509 0.960 . S
H1494 C1478 0.931 . S
H1495 C1483 0.929 . S
H1496 C1484 0.960 . S
H1497 C1484 0.962 . S
H1498 C1484 0.960 . S
H1499 C1485 0.961 . S
H1500 C1485 0.961 . S
H1501 C1485 0.961 . S
H1502 C1486 0.931 . S
H1503 C1491 0.930 . S
H1504 C1492 0.956 . S
H1505 C1492 0.961 . S
H1506 C1492 0.961 . S
H1507 C1493 0.958 . S
H1508 C1493 0.961 . S
H1509 C1493 0.960 . S
C1510 C1511 1.391 . S
C1510 C1512 1.394 . S
C1510 H1526 0.931 . S
C1511 C1510 1.391 . S
C1511 C1515 1.376 . S
C1512 C1510 1.394 . S
C1512 C1513 1.369 . S
C1512 C1516 1.531 . S
C1513 C1512 1.369 . S
C1513 C1514 1.410 . S
C1513 C1521 1.503 . S
C1514 C1513 1.410 . S
C1514 C1515 1.392 . S
C1514 C1517 1.511 . S
C1515 C1511 1.376 . S
C1515 C1514 1.392 . S
C1515 H1527 0.929 . S
C1516 C1512 1.531 . S
C1516 H1528 0.960 . S
C1516 H1529 0.962 . S
C1516 H1530 0.960 . S
C1517 C1514 1.511 . S
C1517 H1531 0.961 . S
C1517 H1532 0.961 . S
C1517 H1533 0.961 . S
C1518 C1519 1.370 . S
C1518 C1520 1.363 . S
C1518 H1534 0.931 . S
C1519 C1518 1.370 . S
C1519 C1523 1.408 . S
C1520 C1518 1.363 . S
C1520 C1521 1.370 . S
C1520 C1524 1.524 . S
C1521 C1513 1.503 . S
C1521 C1520 1.370 . S
C1521 C1522 1.403 . S
C1522 C1521 1.403 . S
C1522 C1523 1.404 . S
C1522 C1525 1.539 . S
C1523 C1519 1.408 . S
C1523 C1522 1.404 . S
C1523 H1535 0.930 . S
C1524 C1520 1.524 . S
C1524 H1536 0.956 . S
C1524 H1537 0.961 . S
C1524 H1538 0.961 . S
C1525 C1522 1.539 . S
C1525 H1539 0.958 . S
C1525 H1540 0.961 . S
C1525 H1541 0.960 . S
H1526 C1510 0.931 . S
H1527 C1515 0.929 . S
H1528 C1516 0.960 . S
H1529 C1516 0.962 . S
H1530 C1516 0.960 . S
H1531 C1517 0.961 . S
H1532 C1517 0.961 . S
H1533 C1517 0.961 . S
H1534 C1518 0.931 . S
H1535 C1523 0.930 . S
H1536 C1524 0.956 . S
H1537 C1524 0.961 . S
H1538 C1524 0.961 . S
H1539 C1525 0.958 . S
H1540 C1525 0.961 . S
H1541 C1525 0.960 . S
C1542 C1543 1.391 . S
C1542 C1544 1.394 . S
C1542 H1558 0.931 . S
C1543 C1542 1.391 . S
C1543 C1547 1.376 . S
C1544 C1542 1.394 . S
C1544 C1545 1.369 . S
C1544 C1548 1.531 . S
C1545 C1544 1.369 . S
C1545 C1546 1.410 . S
C1545 C1553 1.503 . S
C1546 C1545 1.410 . S
C1546 C1547 1.392 . S
C1546 C1549 1.511 . S
C1547 C1543 1.376 . S
C1547 C1546 1.392 . S
C1547 H1559 0.929 . S
C1548 C1544 1.531 . S
C1548 H1560 0.960 . S
C1548 H1561 0.962 . S
C1548 H1562 0.960 . S
C1549 C1546 1.511 . S
C1549 H1563 0.961 . S
C1549 H1564 0.961 . S
C1549 H1565 0.961 . S
C1550 C1551 1.370 . S
C1550 C1552 1.363 . S
C1550 H1566 0.931 . S
C1551 C1550 1.370 . S
C1551 C1555 1.408 . S
C1552 C1550 1.363 . S
C1552 C1553 1.370 . S
C1552 C1556 1.524 . S
C1553 C1545 1.503 . S
C1553 C1552 1.370 . S
C1553 C1554 1.403 . S
C1554 C1553 1.403 . S
C1554 C1555 1.404 . S
C1554 C1557 1.539 . S
C1555 C1551 1.408 . S
C1555 C1554 1.404 . S
C1555 H1567 0.930 . S
C1556 C1552 1.524 . S
C1556 H1568 0.956 . S
C1556 H1569 0.961 . S
C1556 H1570 0.961 . S
C1557 C1554 1.539 . S
C1557 H1571 0.958 . S
C1557 H1572 0.961 . S
C1557 H1573 0.960 . S
H1558 C1542 0.931 . S
H1559 C1547 0.929 . S
H1560 C1548 0.960 . S
H1561 C1548 0.962 . S
H1562 C1548 0.960 . S
H1563 C1549 0.961 . S
H1564 C1549 0.961 . S
H1565 C1549 0.961 . S
H1566 C1550 0.931 . S
H1567 C1555 0.930 . S
H1568 C1556 0.956 . S
H1569 C1556 0.961 . S
H1570 C1556 0.961 . S
H1571 C1557 0.958 . S
H1572 C1557 0.961 . S
H1573 C1557 0.960 . S
C1574 C1575 1.391 . S
C1574 C1576 1.394 . S
C1574 H1590 0.931 . S
C1575 C1574 1.391 . S
C1575 C1579 1.376 . S
C1576 C1574 1.394 . S
C1576 C1577 1.369 . S
C1576 C1580 1.531 . S
C1577 C1576 1.369 . S
C1577 C1578 1.410 . S
C1577 C1585 1.503 . S
C1578 C1577 1.410 . S
C1578 C1579 1.392 . S
C1578 C1581 1.511 . S
C1579 C1575 1.376 . S
C1579 C1578 1.392 . S
C1579 H1591 0.929 . S
C1580 C1576 1.531 . S
C1580 H1592 0.960 . S
C1580 H1593 0.962 . S
C1580 H1594 0.960 . S
C1581 C1578 1.511 . S
C1581 H1595 0.961 . S
C1581 H1596 0.961 . S
C1581 H1597 0.961 . S
C1582 C1583 1.370 . S
C1582 C1584 1.363 . S
C1582 H1598 0.931 . S
C1583 C1582 1.370 . S
C1583 C1587 1.408 . S
C1584 C1582 1.363 . S
C1584 C1585 1.370 . S
C1584 C1588 1.524 . S
C1585 C1577 1.503 . S
C1585 C1584 1.370 . S
C1585 C1586 1.403 . S
C1586 C1585 1.403 . S
C1586 C1587 1.404 . S
C1586 C1589 1.539 . S
C1587 C1583 1.408 . S
C1587 C1586 1.404 . S
C1587 H1599 0.930 . S
C1588 C1584 1.524 . S
C1588 H1600 0.956 . S
C1588 H1601 0.961 . S
C1588 H1602 0.961 . S
C1589 C1586 1.539 . S
C1589 H1603 0.958 . S
C1589 H1604 0.961 . S
C1589 H1605 0.960 . S
H1590 C1574 0.931 . S
H1591 C1579 0.929 . S
H1592 C1580 0.960 . S
H1593 C1580 0.962 . S
H1594 C1580 0.960 . S
H1595 C1581 0.961 . S
H1596 C1581 0.961 . S
H1597 C1581 0.961 . S
H1598 C1582 0.931 . S
H1599 C1587 0.930 . S
H1600 C1588 0.956 . S
H1601 C1588 0.961 . S
H1602 C1588 0.961 . S
H1603 C1589 0.958 . S
H1604 C1589 0.961 . S
H1605 C1589 0.960 . S
C1606 C1607 1.391 . S
C1606 C1608 1.394 . S
C1606 H1622 0.931 . S
C1607 C1606 1.391 . S
C1607 C1611 1.376 . S
C1608 C1606 1.394 . S
C1608 C1609 1.369 . S
C1608 C1612 1.531 . S
C1609 C1608 1.369 . S
C1609 C1610 1.410 . S
C1609 C1617 1.503 . S
C1610 C1609 1.410 . S
C1610 C1611 1.392 . S
C1610 C1613 1.511 . S
C1611 C1607 1.376 . S
C1611 C1610 1.392 . S
C1611 H1623 0.929 . S
C1612 C1608 1.531 . S
C1612 H1624 0.960 . S
C1612 H1625 0.962 . S
C1612 H1626 0.960 . S
C1613 C1610 1.511 . S
C1613 H1627 0.961 . S
C1613 H1628 0.961 . S
C1613 H1629 0.961 . S
C1614 C1615 1.370 . S
C1614 C1616 1.363 . S
C1614 H1630 0.931 . S
C1615 C1614 1.370 . S
C1615 C1619 1.408 . S
C1616 C1614 1.363 . S
C1616 C1617 1.370 . S
C1616 C1620 1.524 . S
C1617 C1609 1.503 . S
C1617 C1616 1.370 . S
C1617 C1618 1.403 . S
C1618 C1617 1.403 . S
C1618 C1619 1.404 . S
C1618 C1621 1.539 . S
C1619 C1615 1.408 . S
C1619 C1618 1.404 . S
C1619 H1631 0.930 . S
C1620 C1616 1.524 . S
C1620 H1632 0.956 . S
C1620 H1633 0.961 . S
C1620 H1634 0.961 . S
C1621 C1618 1.539 . S
C1621 H1635 0.958 . S
C1621 H1636 0.961 . S
C1621 H1637 0.960 . S
H1622 C1606 0.931 . S
H1623 C1611 0.929 . S
H1624 C1612 0.960 . S
H1625 C1612 0.962 . S
H1626 C1612 0.960 . S
H1627 C1613 0.961 . S
H1628 C1613 0.961 . S
H1629 C1613 0.961 . S
H1630 C1614 0.931 . S
H1631 C1619 0.930 . S
H1632 C1620 0.956 . S
H1633 C1620 0.961 . S
H1634 C1620 0.961 . S
H1635 C1621 0.958 . S
H1636 C1621 0.961 . S
H1637 C1621 0.960 . S
C1638 C1639 1.391 . S
C1638 C1640 1.394 . S
C1638 H1654 0.931 . S
C1639 C1638 1.391 . S
C1639 C1643 1.376 . S
C1640 C1638 1.394 . S
C1640 C1641 1.369 . S
C1640 C1644 1.531 . S
C1641 C1640 1.369 . S
C1641 C1642 1.410 . S
C1641 C1649 1.503 . S
C1642 C1641 1.410 . S
C1642 C1643 1.392 . S
C1642 C1645 1.511 . S
C1643 C1639 1.376 . S
C1643 C1642 1.392 . S
C1643 H1655 0.929 . S
C1644 C1640 1.531 . S
C1644 H1656 0.960 . S
C1644 H1657 0.962 . S
C1644 H1658 0.960 . S
C1645 C1642 1.511 . S
C1645 H1659 0.961 . S
C1645 H1660 0.961 . S
C1645 H1661 0.961 . S
C1646 C1647 1.370 . S
C1646 C1648 1.363 . S
C1646 H1662 0.931 . S
C1647 C1646 1.370 . S
C1647 C1651 1.408 . S
C1648 C1646 1.363 . S
C1648 C1649 1.370 . S
C1648 C1652 1.524 . S
C1649 C1641 1.503 . S
C1649 C1648 1.370 . S
C1649 C1650 1.403 . S
C1650 C1649 1.403 . S
C1650 C1651 1.404 . S
C1650 C1653 1.539 . S
C1651 C1647 1.408 . S
C1651 C1650 1.404 . S
C1651 H1663 0.930 . S
C1652 C1648 1.524 . S
C1652 H1664 0.956 . S
C1652 H1665 0.961 . S
C1652 H1666 0.961 . S
C1653 C1650 1.539 . S
C1653 H1667 0.958 . S
C1653 H1668 0.961 . S
C1653 H1669 0.960 . S
H1654 C1638 0.931 . S
H1655 C1643 0.929 . S
H1656 C1644 0.960 . S
H1657 C1644 0.962 . S
H1658 C1644 0.960 . S
H1659 C1645 0.961 . S
H1660 C1645 0.961 . S
H1661 C1645 0.961 . S
H1662 C1646 0.931 . S
H1663 C1651 0.930 . S
H1664 C1652 0.956 . S
H1665 C1652 0.961 . S
H1666 C1652 0.961 . S
H1667 C1653 0.958 . S
H1668 C1653 0.961 . S
H1669 C1653 0.960 . S
C1670 C1671 1.391 . S
C1670 C1672 1.394 . S
C1670 H1686 0.931 . S
C1671 C1670 1.391 . S
C1671 C1675 1.376 . S
C1672 C1670 1.394 . S
C1672 C1673 1.369 . S
C1672 C1676 1.531 . S
C1673 C1672 1.369 . S
C1673 C1674 1.410 . S
C1673 C1681 1.503 . S
C1674 C1673 1.410 . S
C1674 C1675 1.392 . S
C1674 C1677 1.511 . S
C1675 C1671 1.376 . S
C1675 C1674 1.392 . S
C1675 H1687 0.929 . S
C1676 C1672 1.531 . S
C1676 H1688 0.960 . S
C1676 H1689 0.962 . S
C1676 H1690 0.960 . S
C1677 C1674 1.511 . S
C1677 H1691 0.961 . S
C1677 H1692 0.961 . S
C1677 H1693 0.961 . S
C1678 C1679 1.370 . S
C1678 C1680 1.363 . S
C1678 H1694 0.931 . S
C1679 C1678 1.370 . S
C1679 C1683 1.408 . S
C1680 C1678 1.363 . S
C1680 C1681 1.370 . S
C1680 C1684 1.524 . S
C1681 C1673 1.503 . S
C1681 C1680 1.370 . S
C1681 C1682 1.403 . S
C1682 C1681 1.403 . S
C1682 C1683 1.404 . S
C1682 C1685 1.539 . S
C1683 C1679 1.408 . S
C1683 C1682 1.404 . S
C1683 H1695 0.930 . S
C1684 C1680 1.524 . S
C1684 H1696 0.956 . S
C1684 H1697 0.961 . S
C1684 H1698 0.961 . S
C1685 C1682 1.539 . S
C1685 H1699 0.958 . S
C1685 H1700 0.961 . S
C1685 H1701 0.960 . S
H1686 C1670 0.931 . S
H1687 C1675 0.929 . S
H1688 C1676 0.960 . S
H1689 C1676 0.962 . S
H1690 C1676 0.960 . S
H1691 C1677 0.961 . S
H1692 C1677 0.961 . S
H1693 C1677 0.961 . S
H1694 C1678 0.931 . S
H1695 C1683 0.930 . S
H1696 C1684 0.956 . S
H1697 C1684 0.961 . S
H1698 C1684 0.961 . S
H1699 C1685 0.958 . S
H1700 C1685 0.961 . S
H1701 C1685 0.960 . S
C1702 C1703 1.391 . S
C1702 C1704 1.394 . S
C1702 H1718 0.931 . S
C1703 C1702 1.391 . S
C1703 C1707 1.376 . S
C1704 C1702 1.394 . S
C1704 C1705 1.369 . S
C1704 C1708 1.531 . S
C1705 C1704 1.369 . S
C1705 C1706 1.410 . S
C1705 C1713 1.503 . S
C1706 C1705 1.410 . S
C1706 C1707 1.392 . S
C1706 C1709 1.511 . S
C1707 C1703 1.376 . S
C1707 C1706 1.392 . S
C1707 H1719 0.929 . S
C1708 C1704 1.531 . S
C1708 H1720 0.960 . S
C1708 H1721 0.962 . S
C1708 H1722 0.960 . S
C1709 C1706 1.511 . S
C1709 H1723 0.961 . S
C1709 H1724 0.961 . S
C1709 H1725 0.961 . S
C1710 C1711 1.370 . S
C1710 C1712 1.363 . S
C1710 H1726 0.931 . S
C1711 C1710 1.370 . S
C1711 C1715 1.408 . S
C1712 C1710 1.363 . S
C1712 C1713 1.370 . S
C1712 C1716 1.524 . S
C1713 C1705 1.503 . S
C1713 C1712 1.370 . S
C1713 C1714 1.403 . S
C1714 C1713 1.403 . S
C1714 C1715 1.404 . S
C1714 C1717 1.539 . S
C1715 C1711 1.408 . S
C1715 C1714 1.404 . S
C1715 H1727 0.930 . S
C1716 C1712 1.524 . S
C1716 H1728 0.956 . S
C1716 H1729 0.961 . S
C1716 H1730 0.961 . S
C1717 C1714 1.539 . S
C1717 H1731 0.958 . S
C1717 H1732 0.961 . S
C1717 H1733 0.960 . S
H1718 C1702 0.931 . S
H1719 C1707 0.929 . S
H1720 C1708 0.960 . S
H1721 C1708 0.962 . S
H1722 C1708 0.960 . S
H1723 C1709 0.961 . S
H1724 C1709 0.961 . S
H1725 C1709 0.961 . S
H1726 C1710 0.931 . S
H1727 C1715 0.930 . S
H1728 C1716 0.956 . S
H1729 C1716 0.961 . S
H1730 C1716 0.961 . S
H1731 C1717 0.958 . S
H1732 C1717 0.961 . S
H1733 C1717 0.960 . S
C1734 C1735 1.391 . S
C1734 C1736 1.394 . S
C1734 H1750 0.931 . S
C1735 C1734 1.391 . S
C1735 C1739 1.376 . S
C1736 C1734 1.394 . S
C1736 C1737 1.369 . S
C1736 C1740 1.531 . S
C1737 C1736 1.369 . S
C1737 C1738 1.410 . S
C1737 C1745 1.503 . S
C1738 C1737 1.410 . S
C1738 C1739 1.392 . S
C1738 C1741 1.511 . S
C1739 C1735 1.376 . S
C1739 C1738 1.392 . S
C1739 H1751 0.929 . S
C1740 C1736 1.531 . S
C1740 H1752 0.960 . S
C1740 H1753 0.962 . S
C1740 H1754 0.960 . S
C1741 C1738 1.511 . S
C1741 H1755 0.961 1_556 S
C1741 H1756 0.961 . S
C1741 H1757 0.961 . S
C1742 C1743 1.370 . S
C1742 C1744 1.363 . S
C1742 H1758 0.931 . S
C1743 C1742 1.370 . S
C1743 C1747 1.408 . S
C1744 C1742 1.363 . S
C1744 C1745 1.370 . S
C1744 C1748 1.524 . S
C1745 C1737 1.503 . S
C1745 C1744 1.370 . S
C1745 C1746 1.403 . S
C1746 C1745 1.403 . S
C1746 C1747 1.404 . S
C1746 C1749 1.539 . S
C1747 C1743 1.408 . S
C1747 C1746 1.404 . S
C1747 H1759 0.930 . S
C1748 C1744 1.524 . S
C1748 H1760 0.956 . S
C1748 H1761 0.961 . S
C1748 H1762 0.961 . S
C1749 C1746 1.539 . S
C1749 H1763 0.958 . S
C1749 H1764 0.961 . S
C1749 H1765 0.960 . S
H1750 C1734 0.931 . S
H1751 C1739 0.929 . S
H1752 C1740 0.960 . S
H1753 C1740 0.962 . S
H1754 C1740 0.960 . S
H1755 C1741 0.961 1_554 S
H1756 C1741 0.961 . S
H1757 C1741 0.961 . S
H1758 C1742 0.931 . S
H1759 C1747 0.930 . S
H1760 C1748 0.956 . S
H1761 C1748 0.961 . S
H1762 C1748 0.961 . S
H1763 C1749 0.958 . S
H1764 C1749 0.961 . S
H1765 C1749 0.960 . S
C1766 C1767 1.391 . S
C1766 C1768 1.394 . S
C1766 H1782 0.931 . S
C1767 C1766 1.391 . S
C1767 C1771 1.376 . S
C1768 C1766 1.394 . S
C1768 C1769 1.369 . S
C1768 C1772 1.531 . S
C1769 C1768 1.369 . S
C1769 C1770 1.410 . S
C1769 C1777 1.503 . S
C1770 C1769 1.410 . S
C1770 C1771 1.392 . S
C1770 C1773 1.511 . S
C1771 C1767 1.376 . S
C1771 C1770 1.392 . S
C1771 H1783 0.929 . S
C1772 C1768 1.531 . S
C1772 H1784 0.960 . S
C1772 H1785 0.962 . S
C1772 H1786 0.960 . S
C1773 C1770 1.511 . S
C1773 H1787 0.961 . S
C1773 H1788 0.961 . S
C1773 H1789 0.961 . S
C1774 C1775 1.370 . S
C1774 C1776 1.363 . S
C1774 H1790 0.931 . S
C1775 C1774 1.370 . S
C1775 C1779 1.408 . S
C1776 C1774 1.363 . S
C1776 C1777 1.370 . S
C1776 C1780 1.524 . S
C1777 C1769 1.503 . S
C1777 C1776 1.370 . S
C1777 C1778 1.403 . S
C1778 C1777 1.403 . S
C1778 C1779 1.404 . S
C1778 C1781 1.539 . S
C1779 C1775 1.408 . S
C1779 C1778 1.404 . S
C1779 H1791 0.930 . S
C1780 C1776 1.524 . S
C1780 H1792 0.956 . S
C1780 H1793 0.961 . S
C1780 H1794 0.961 . S
C1781 C1778 1.539 . S
C1781 H1795 0.958 . S
C1781 H1796 0.961 . S
C1781 H1797 0.960 . S
H1782 C1766 0.931 . S
H1783 C1771 0.929 . S
H1784 C1772 0.960 . S
H1785 C1772 0.962 . S
H1786 C1772 0.960 . S
H1787 C1773 0.961 . S
H1788 C1773 0.961 . S
H1789 C1773 0.961 . S
H1790 C1774 0.931 . S
H1791 C1779 0.930 . S
H1792 C1780 0.956 . S
H1793 C1780 0.961 . S
H1794 C1780 0.961 . S
H1795 C1781 0.958 . S
H1796 C1781 0.961 . S
H1797 C1781 0.960 . S
C1798 C1799 1.391 . S
C1798 C1800 1.394 . S
C1798 H1814 0.931 . S
C1799 C1798 1.391 . S
C1799 C1803 1.376 . S
C1800 C1798 1.394 . S
C1800 C1801 1.369 . S
C1800 C1804 1.531 . S
C1801 C1800 1.369 . S
C1801 C1802 1.410 . S
C1801 C1809 1.503 . S
C1802 C1801 1.410 . S
C1802 C1803 1.392 . S
C1802 C1805 1.511 . S
C1803 C1799 1.376 . S
C1803 C1802 1.392 . S
C1803 H1815 0.929 . S
C1804 C1800 1.531 . S
C1804 H1816 0.960 . S
C1804 H1817 0.962 . S
C1804 H1818 0.960 . S
C1805 C1802 1.511 . S
C1805 H1819 0.961 . S
C1805 H1820 0.961 . S
C1805 H1821 0.961 . S
C1806 C1807 1.370 . S
C1806 C1808 1.363 . S
C1806 H1822 0.931 . S
C1807 C1806 1.370 . S
C1807 C1811 1.408 . S
C1808 C1806 1.363 . S
C1808 C1809 1.370 . S
C1808 C1812 1.524 . S
C1809 C1801 1.503 . S
C1809 C1808 1.370 . S
C1809 C1810 1.403 . S
C1810 C1809 1.403 . S
C1810 C1811 1.404 . S
C1810 C1813 1.539 . S
C1811 C1807 1.408 . S
C1811 C1810 1.404 . S
C1811 H1823 0.930 . S
C1812 C1808 1.524 . S
C1812 H1824 0.956 . S
C1812 H1825 0.961 . S
C1812 H1826 0.961 . S
C1813 C1810 1.539 . S
C1813 H1827 0.958 . S
C1813 H1828 0.961 . S
C1813 H1829 0.960 . S
H1814 C1798 0.931 . S
H1815 C1803 0.929 . S
H1816 C1804 0.960 . S
H1817 C1804 0.962 . S
H1818 C1804 0.960 . S
H1819 C1805 0.961 . S
H1820 C1805 0.961 . S
H1821 C1805 0.961 . S
H1822 C1806 0.931 . S
H1823 C1811 0.930 . S
H1824 C1812 0.956 . S
H1825 C1812 0.961 . S
H1826 C1812 0.961 . S
H1827 C1813 0.958 . S
H1828 C1813 0.961 . S
H1829 C1813 0.960 . S
C1830 C1831 1.391 . S
C1830 C1832 1.394 . S
C1830 H1846 0.931 . S
C1831 C1830 1.391 . S
C1831 C1835 1.376 . S
C1832 C1830 1.394 . S
C1832 C1833 1.369 . S
C1832 C1836 1.531 . S
C1833 C1832 1.369 . S
C1833 C1834 1.410 . S
C1833 C1841 1.503 . S
C1834 C1833 1.410 . S
C1834 C1835 1.392 . S
C1834 C1837 1.511 . S
C1835 C1831 1.376 . S
C1835 C1834 1.392 . S
C1835 H1847 0.929 . S
C1836 C1832 1.531 . S
C1836 H1848 0.960 . S
C1836 H1849 0.962 . S
C1836 H1850 0.960 . S
C1837 C1834 1.511 . S
C1837 H1851 0.961 . S
C1837 H1852 0.961 . S
C1837 H1853 0.961 . S
C1838 C1839 1.370 . S
C1838 C1840 1.363 . S
C1838 H1854 0.931 . S
C1839 C1838 1.370 . S
C1839 C1843 1.408 . S
C1840 C1838 1.363 . S
C1840 C1841 1.370 . S
C1840 C1844 1.524 . S
C1841 C1833 1.503 . S
C1841 C1840 1.370 . S
C1841 C1842 1.403 . S
C1842 C1841 1.403 . S
C1842 C1843 1.404 . S
C1842 C1845 1.539 . S
C1843 C1839 1.408 . S
C1843 C1842 1.404 . S
C1843 H1855 0.930 . S
C1844 C1840 1.524 . S
C1844 H1856 0.956 . S
C1844 H1857 0.961 . S
C1844 H1858 0.961 1_554 S
C1845 C1842 1.539 . S
C1845 H1859 0.958 . S
C1845 H1860 0.961 . S
C1845 H1861 0.960 . S
H1846 C1830 0.931 . S
H1847 C1835 0.929 . S
H1848 C1836 0.960 . S
H1849 C1836 0.962 . S
H1850 C1836 0.960 . S
H1851 C1837 0.961 . S
H1852 C1837 0.961 . S
H1853 C1837 0.961 . S
H1854 C1838 0.931 . S
H1855 C1843 0.930 . S
H1856 C1844 0.956 . S
H1857 C1844 0.961 . S
H1858 C1844 0.961 1_556 S
H1859 C1845 0.958 . S
H1860 C1845 0.961 . S
H1861 C1845 0.960 . S
C1862 C1863 1.391 . S
C1862 C1864 1.394 . S
C1862 H1878 0.931 . S
C1863 C1862 1.391 . S
C1863 C1867 1.376 . S
C1864 C1862 1.394 . S
C1864 C1865 1.369 . S
C1864 C1868 1.531 . S
C1865 C1864 1.369 . S
C1865 C1866 1.410 . S
C1865 C1873 1.503 . S
C1866 C1865 1.410 . S
C1866 C1867 1.392 . S
C1866 C1869 1.511 . S
C1867 C1863 1.376 . S
C1867 C1866 1.392 . S
C1867 H1879 0.929 . S
C1868 C1864 1.531 . S
C1868 H1880 0.960 . S
C1868 H1881 0.962 . S
C1868 H1882 0.960 . S
C1869 C1866 1.511 . S
C1869 H1883 0.961 . S
C1869 H1884 0.961 . S
C1869 H1885 0.961 . S
C1870 C1871 1.370 . S
C1870 C1872 1.363 . S
C1870 H1886 0.931 . S
C1871 C1870 1.370 . S
C1871 C1875 1.408 . S
C1872 C1870 1.363 . S
C1872 C1873 1.370 . S
C1872 C1876 1.524 . S
C1873 C1865 1.503 . S
C1873 C1872 1.370 . S
C1873 C1874 1.403 . S
C1874 C1873 1.403 . S
C1874 C1875 1.404 . S
C1874 C1877 1.539 . S
C1875 C1871 1.408 . S
C1875 C1874 1.404 . S
C1875 H1887 0.930 . S
C1876 C1872 1.524 . S
C1876 H1888 0.956 . S
C1876 H1889 0.961 . S
C1876 H1890 0.961 . S
C1877 C1874 1.539 . S
C1877 H1891 0.958 . S
C1877 H1892 0.961 . S
C1877 H1893 0.960 . S
H1878 C1862 0.931 . S
H1879 C1867 0.929 . S
H1880 C1868 0.960 . S
H1881 C1868 0.962 . S
H1882 C1868 0.960 . S
H1883 C1869 0.961 . S
H1884 C1869 0.961 . S
H1885 C1869 0.961 . S
H1886 C1870 0.931 . S
H1887 C1875 0.930 . S
H1888 C1876 0.956 . S
H1889 C1876 0.961 . S
H1890 C1876 0.961 . S
H1891 C1877 0.958 . S
H1892 C1877 0.961 . S
H1893 C1877 0.960 . S
C1894 C1895 1.391 . S
C1894 C1896 1.394 . S
C1894 H1910 0.931 . S
C1895 C1894 1.391 . S
C1895 C1899 1.376 . S
C1896 C1894 1.394 . S
C1896 C1897 1.369 . S
C1896 C1900 1.531 . S
C1897 C1896 1.369 . S
C1897 C1898 1.410 . S
C1897 C1905 1.503 . S
C1898 C1897 1.410 . S
C1898 C1899 1.392 . S
C1898 C1901 1.511 . S
C1899 C1895 1.376 . S
C1899 C1898 1.392 . S
C1899 H1911 0.929 . S
C1900 C1896 1.531 . S
C1900 H1912 0.960 . S
C1900 H1913 0.962 . S
C1900 H1914 0.960 . S
C1901 C1898 1.511 . S
C1901 H1915 0.961 . S
C1901 H1916 0.961 . S
C1901 H1917 0.961 . S
C1902 C1903 1.370 . S
C1902 C1904 1.363 . S
C1902 H1918 0.931 . S
C1903 C1902 1.370 . S
C1903 C1907 1.408 . S
C1904 C1902 1.363 . S
C1904 C1905 1.370 . S
C1904 C1908 1.524 . S
C1905 C1897 1.503 . S
C1905 C1904 1.370 . S
C1905 C1906 1.403 . S
C1906 C1905 1.403 . S
C1906 C1907 1.404 . S
C1906 C1909 1.539 . S
C1907 C1903 1.408 . S
C1907 C1906 1.404 . S
C1907 H1919 0.930 . S
C1908 C1904 1.524 . S
C1908 H1920 0.956 . S
C1908 H1921 0.961 . S
C1908 H1922 0.961 . S
C1909 C1906 1.539 . S
C1909 H1923 0.958 . S
C1909 H1924 0.961 . S
C1909 H1925 0.960 . S
H1910 C1894 0.931 . S
H1911 C1899 0.929 . S
H1912 C1900 0.960 . S
H1913 C1900 0.962 . S
H1914 C1900 0.960 . S
H1915 C1901 0.961 . S
H1916 C1901 0.961 . S
H1917 C1901 0.961 . S
H1918 C1902 0.931 . S
H1919 C1907 0.930 . S
H1920 C1908 0.956 . S
H1921 C1908 0.961 . S
H1922 C1908 0.961 . S
H1923 C1909 0.958 . S
H1924 C1909 0.961 . S
H1925 C1909 0.960 . S
C1926 C1927 1.391 . S
C1926 C1928 1.394 . S
C1926 H1942 0.931 . S
C1927 C1926 1.391 . S
C1927 C1931 1.376 . S
C1928 C1926 1.394 . S
C1928 C1929 1.369 . S
C1928 C1932 1.531 . S
C1929 C1928 1.369 . S
C1929 C1930 1.410 . S
C1929 C1937 1.503 . S
C1930 C1929 1.410 . S
C1930 C1931 1.392 . S
C1930 C1933 1.511 . S
C1931 C1927 1.376 . S
C1931 C1930 1.392 . S
C1931 H1943 0.929 . S
C1932 C1928 1.531 . S
C1932 H1944 0.960 . S
C1932 H1945 0.962 . S
C1932 H1946 0.960 . S
C1933 C1930 1.511 . S
C1933 H1947 0.961 . S
C1933 H1948 0.961 . S
C1933 H1949 0.961 . S
C1934 C1935 1.370 . S
C1934 C1936 1.363 . S
C1934 H1950 0.931 . S
C1935 C1934 1.370 . S
C1935 C1939 1.408 . S
C1936 C1934 1.363 . S
C1936 C1937 1.370 . S
C1936 C1940 1.524 . S
C1937 C1929 1.503 . S
C1937 C1936 1.370 . S
C1937 C1938 1.403 . S
C1938 C1937 1.403 . S
C1938 C1939 1.404 . S
C1938 C1941 1.539 . S
C1939 C1935 1.408 . S
C1939 C1938 1.404 . S
C1939 H1951 0.930 . S
C1940 C1936 1.524 . S
C1940 H1952 0.956 . S
C1940 H1953 0.961 . S
C1940 H1954 0.961 . S
C1941 C1938 1.539 . S
C1941 H1955 0.958 . S
C1941 H1956 0.961 . S
C1941 H1957 0.960 . S
H1942 C1926 0.931 . S
H1943 C1931 0.929 . S
H1944 C1932 0.960 . S
H1945 C1932 0.962 . S
H1946 C1932 0.960 . S
H1947 C1933 0.961 . S
H1948 C1933 0.961 . S
H1949 C1933 0.961 . S
H1950 C1934 0.931 . S
H1951 C1939 0.930 . S
H1952 C1940 0.956 . S
H1953 C1940 0.961 . S
H1954 C1940 0.961 . S
H1955 C1941 0.958 . S
H1956 C1941 0.961 . S
H1957 C1941 0.960 . S
C1958 C1959 1.391 . S
C1958 C1960 1.394 . S
C1958 H1974 0.931 . S
C1959 C1958 1.391 . S
C1959 C1963 1.376 . S
C1960 C1958 1.394 . S
C1960 C1961 1.369 . S
C1960 C1964 1.531 . S
C1961 C1960 1.369 . S
C1961 C1962 1.410 . S
C1961 C1969 1.503 . S
C1962 C1961 1.410 . S
C1962 C1963 1.392 . S
C1962 C1965 1.511 . S
C1963 C1959 1.376 . S
C1963 C1962 1.392 . S
C1963 H1975 0.929 . S
C1964 C1960 1.531 . S
C1964 H1976 0.960 . S
C1964 H1977 0.962 . S
C1964 H1978 0.960 . S
C1965 C1962 1.511 . S
C1965 H1979 0.961 . S
C1965 H1980 0.961 . S
C1965 H1981 0.961 . S
C1966 C1967 1.370 . S
C1966 C1968 1.363 . S
C1966 H1982 0.931 . S
C1967 C1966 1.370 . S
C1967 C1971 1.408 . S
C1968 C1966 1.363 . S
C1968 C1969 1.370 . S
C1968 C1972 1.524 . S
C1969 C1961 1.503 . S
C1969 C1968 1.370 . S
C1969 C1970 1.403 . S
C1970 C1969 1.403 . S
C1970 C1971 1.404 . S
C1970 C1973 1.539 . S
C1971 C1967 1.408 . S
C1971 C1970 1.404 . S
C1971 H1983 0.930 . S
C1972 C1968 1.524 . S
C1972 H1984 0.956 . S
C1972 H1985 0.961 . S
C1972 H1986 0.961 . S
C1973 C1970 1.539 . S
C1973 H1987 0.958 . S
C1973 H1988 0.961 . S
C1973 H1989 0.960 . S
H1974 C1958 0.931 . S
H1975 C1963 0.929 . S
H1976 C1964 0.960 . S
H1977 C1964 0.962 . S
H1978 C1964 0.960 . S
H1979 C1965 0.961 . S
H1980 C1965 0.961 . S
H1981 C1965 0.961 . S
H1982 C1966 0.931 . S
H1983 C1971 0.930 . S
H1984 C1972 0.956 . S
H1985 C1972 0.961 . S
H1986 C1972 0.961 . S
H1987 C1973 0.958 . S
H1988 C1973 0.961 . S
H1989 C1973 0.960 . S
C1990 C1991 1.391 . S
C1990 C1992 1.394 . S
C1990 H2006 0.931 . S
C1991 C1990 1.391 . S
C1991 C1995 1.376 . S
C1992 C1990 1.394 . S
C1992 C1993 1.369 . S
C1992 C1996 1.531 . S
C1993 C1992 1.369 . S
C1993 C1994 1.410 . S
C1993 C2001 1.503 . S
C1994 C1993 1.410 . S
C1994 C1995 1.392 . S
C1994 C1997 1.511 . S
C1995 C1991 1.376 . S
C1995 C1994 1.392 . S
C1995 H2007 0.929 . S
C1996 C1992 1.531 . S
C1996 H2008 0.960 . S
C1996 H2009 0.962 . S
C1996 H2010 0.960 . S
C1997 C1994 1.511 . S
C1997 H2011 0.961 . S
C1997 H2012 0.961 . S
C1997 H2013 0.961 . S
C1998 C1999 1.370 . S
C1998 C2000 1.363 . S
C1998 H2014 0.931 . S
C1999 C1998 1.370 . S
C1999 C2003 1.408 . S
C2000 C1998 1.363 . S
C2000 C2001 1.370 . S
C2000 C2004 1.524 . S
C2001 C1993 1.503 . S
C2001 C2000 1.370 . S
C2001 C2002 1.403 . S
C2002 C2001 1.403 . S
C2002 C2003 1.404 . S
C2002 C2005 1.539 . S
C2003 C1999 1.408 . S
C2003 C2002 1.404 . S
C2003 H2015 0.930 . S
C2004 C2000 1.524 . S
C2004 H2016 0.956 . S
C2004 H2017 0.961 . S
C2004 H2018 0.961 . S
C2005 C2002 1.539 . S
C2005 H2019 0.958 . S
C2005 H2020 0.961 . S
C2005 H2021 0.960 . S
H2006 C1990 0.931 . S
H2007 C1995 0.929 . S
H2008 C1996 0.960 . S
H2009 C1996 0.962 . S
H2010 C1996 0.960 . S
H2011 C1997 0.961 . S
H2012 C1997 0.961 . S
H2013 C1997 0.961 . S
H2014 C1998 0.931 . S
H2015 C2003 0.930 . S
H2016 C2004 0.956 . S
H2017 C2004 0.961 . S
H2018 C2004 0.961 . S
H2019 C2005 0.958 . S
H2020 C2005 0.961 . S
H2021 C2005 0.960 . S
C2022 C2023 1.391 . S
C2022 C2024 1.394 . S
C2022 H2038 0.931 . S
C2023 C2022 1.391 . S
C2023 C2027 1.376 . S
C2024 C2022 1.394 . S
C2024 C2025 1.369 . S
C2024 C2028 1.531 . S
C2025 C2024 1.369 . S
C2025 C2026 1.410 . S
C2025 C2033 1.503 . S
C2026 C2025 1.410 . S
C2026 C2027 1.392 . S
C2026 C2029 1.511 . S
C2027 C2023 1.376 . S
C2027 C2026 1.392 . S
C2027 H2039 0.929 . S
C2028 C2024 1.531 . S
C2028 H2040 0.960 . S
C2028 H2041 0.962 . S
C2028 H2042 0.960 . S
C2029 C2026 1.511 . S
C2029 H2043 0.961 . S
C2029 H2044 0.961 . S
C2029 H2045 0.961 . S
C2030 C2031 1.370 . S
C2030 C2032 1.363 . S
C2030 H2046 0.931 . S
C2031 C2030 1.370 . S
C2031 C2035 1.408 . S
C2032 C2030 1.363 . S
C2032 C2033 1.370 . S
C2032 C2036 1.524 . S
C2033 C2025 1.503 . S
C2033 C2032 1.370 . S
C2033 C2034 1.403 . S
C2034 C2033 1.403 . S
C2034 C2035 1.404 . S
C2034 C2037 1.539 . S
C2035 C2031 1.408 . S
C2035 C2034 1.404 . S
C2035 H2047 0.930 . S
C2036 C2032 1.524 . S
C2036 H2048 0.956 . S
C2036 H2049 0.961 . S
C2036 H2050 0.961 . S
C2037 C2034 1.539 . S
C2037 H2051 0.958 . S
C2037 H2052 0.961 . S
C2037 H2053 0.960 . S
H2038 C2022 0.931 . S
H2039 C2027 0.929 . S
H2040 C2028 0.960 . S
H2041 C2028 0.962 . S
H2042 C2028 0.960 . S
H2043 C2029 0.961 . S
H2044 C2029 0.961 . S
H2045 C2029 0.961 . S
H2046 C2030 0.931 . S
H2047 C2035 0.930 . S
H2048 C2036 0.956 . S
H2049 C2036 0.961 . S
H2050 C2036 0.961 . S
H2051 C2037 0.958 . S
H2052 C2037 0.961 . S
H2053 C2037 0.960 . S
C2054 C2055 1.391 . S
C2054 C2056 1.394 . S
C2054 H2070 0.931 . S
C2055 C2054 1.391 . S
C2055 C2059 1.376 . S
C2056 C2054 1.394 . S
C2056 C2057 1.369 . S
C2056 C2060 1.531 . S
C2057 C2056 1.369 . S
C2057 C2058 1.410 . S
C2057 C2065 1.503 . S
C2058 C2057 1.410 . S
C2058 C2059 1.392 . S
C2058 C2061 1.511 . S
C2059 C2055 1.376 . S
C2059 C2058 1.392 . S
C2059 H2071 0.929 . S
C2060 C2056 1.531 . S
C2060 H2072 0.960 . S
C2060 H2073 0.962 . S
C2060 H2074 0.960 . S
C2061 C2058 1.511 . S
C2061 H2075 0.961 . S
C2061 H2076 0.961 . S
C2061 H2077 0.961 . S
C2062 C2063 1.370 . S
C2062 C2064 1.363 . S
C2062 H2078 0.931 . S
C2063 C2062 1.370 . S
C2063 C2067 1.408 . S
C2064 C2062 1.363 . S
C2064 C2065 1.370 . S
C2064 C2068 1.524 . S
C2065 C2057 1.503 . S
C2065 C2064 1.370 . S
C2065 C2066 1.403 . S
C2066 C2065 1.403 . S
C2066 C2067 1.404 . S
C2066 C2069 1.539 . S
C2067 C2063 1.408 . S
C2067 C2066 1.404 . S
C2067 H2079 0.930 . S
C2068 C2064 1.524 . S
C2068 H2080 0.956 . S
C2068 H2081 0.961 . S
C2068 H2082 0.961 . S
C2069 C2066 1.539 . S
C2069 H2083 0.958 . S
C2069 H2084 0.961 . S
C2069 H2085 0.960 . S
H2070 C2054 0.931 . S
H2071 C2059 0.929 . S
H2072 C2060 0.960 . S
H2073 C2060 0.962 . S
H2074 C2060 0.960 . S
H2075 C2061 0.961 . S
H2076 C2061 0.961 . S
H2077 C2061 0.961 . S
H2078 C2062 0.931 . S
H2079 C2067 0.930 . S
H2080 C2068 0.956 . S
H2081 C2068 0.961 . S
H2082 C2068 0.961 . S
H2083 C2069 0.958 . S
H2084 C2069 0.961 . S
H2085 C2069 0.960 . S
C2086 C2087 1.391 . S
C2086 C2088 1.394 . S
C2086 H2102 0.931 . S
C2087 C2086 1.391 . S
C2087 C2091 1.376 . S
C2088 C2086 1.394 . S
C2088 C2089 1.369 . S
C2088 C2092 1.531 . S
C2089 C2088 1.369 . S
C2089 C2090 1.410 . S
C2089 C2097 1.503 . S
C2090 C2089 1.410 . S
C2090 C2091 1.392 . S
C2090 C2093 1.511 . S
C2091 C2087 1.376 . S
C2091 C2090 1.392 . S
C2091 H2103 0.929 . S
C2092 C2088 1.531 . S
C2092 H2104 0.960 . S
C2092 H2105 0.962 . S
C2092 H2106 0.960 . S
C2093 C2090 1.511 . S
C2093 H2107 0.961 . S
C2093 H2108 0.961 . S
C2093 H2109 0.961 . S
C2094 C2095 1.370 . S
C2094 C2096 1.363 . S
C2094 H2110 0.931 . S
C2095 C2094 1.370 . S
C2095 C2099 1.408 . S
C2096 C2094 1.363 . S
C2096 C2097 1.370 . S
C2096 C2100 1.524 . S
C2097 C2089 1.503 . S
C2097 C2096 1.370 . S
C2097 C2098 1.403 . S
C2098 C2097 1.403 . S
C2098 C2099 1.404 . S
C2098 C2101 1.539 . S
C2099 C2095 1.408 . S
C2099 C2098 1.404 . S
C2099 H2111 0.930 . S
C2100 C2096 1.524 . S
C2100 H2112 0.956 . S
C2100 H2113 0.961 . S
C2100 H2114 0.961 . S
C2101 C2098 1.539 . S
C2101 H2115 0.958 . S
C2101 H2116 0.961 . S
C2101 H2117 0.960 . S
H2102 C2086 0.931 . S
H2103 C2091 0.929 . S
H2104 C2092 0.960 . S
H2105 C2092 0.962 . S
H2106 C2092 0.960 . S
H2107 C2093 0.961 . S
H2108 C2093 0.961 . S
H2109 C2093 0.961 . S
H2110 C2094 0.931 . S
H2111 C2099 0.930 . S
H2112 C2100 0.956 . S
H2113 C2100 0.961 . S
H2114 C2100 0.961 . S
H2115 C2101 0.958 . S
H2116 C2101 0.961 . S
H2117 C2101 0.960 . S
C2118 C2119 1.391 . S
C2118 C2120 1.394 . S
C2118 H2134 0.931 . S
C2119 C2118 1.391 . S
C2119 C2123 1.376 . S
C2120 C2118 1.394 . S
C2120 C2121 1.369 . S
C2120 C2124 1.531 . S
C2121 C2120 1.369 . S
C2121 C2122 1.410 . S
C2121 C2129 1.503 . S
C2122 C2121 1.410 . S
C2122 C2123 1.392 . S
C2122 C2125 1.511 . S
C2123 C2119 1.376 . S
C2123 C2122 1.392 . S
C2123 H2135 0.929 . S
C2124 C2120 1.531 . S
C2124 H2136 0.960 . S
C2124 H2137 0.962 . S
C2124 H2138 0.960 . S
C2125 C2122 1.511 . S
C2125 H2139 0.961 . S
C2125 H2140 0.961 . S
C2125 H2141 0.961 . S
C2126 C2127 1.370 . S
C2126 C2128 1.363 . S
C2126 H2142 0.931 . S
C2127 C2126 1.370 . S
C2127 C2131 1.408 . S
C2128 C2126 1.363 . S
C2128 C2129 1.370 . S
C2128 C2132 1.524 . S
C2129 C2121 1.503 . S
C2129 C2128 1.370 . S
C2129 C2130 1.403 . S
C2130 C2129 1.403 . S
C2130 C2131 1.404 . S
C2130 C2133 1.539 . S
C2131 C2127 1.408 . S
C2131 C2130 1.404 . S
C2131 H2143 0.930 . S
C2132 C2128 1.524 . S
C2132 H2144 0.956 . S
C2132 H2145 0.961 . S
C2132 H2146 0.961 . S
C2133 C2130 1.539 . S
C2133 H2147 0.958 . S
C2133 H2148 0.961 . S
C2133 H2149 0.960 . S
H2134 C2118 0.931 . S
H2135 C2123 0.929 . S
H2136 C2124 0.960 . S
H2137 C2124 0.962 . S
H2138 C2124 0.960 . S
H2139 C2125 0.961 . S
H2140 C2125 0.961 . S
H2141 C2125 0.961 . S
H2142 C2126 0.931 . S
H2143 C2131 0.930 . S
H2144 C2132 0.956 . S
H2145 C2132 0.961 . S
H2146 C2132 0.961 . S
H2147 C2133 0.958 . S
H2148 C2133 0.961 . S
H2149 C2133 0.960 . S
C2150 C2151 1.391 . S
C2150 C2152 1.394 . S
C2150 H2166 0.931 . S
C2151 C2150 1.391 . S
C2151 C2155 1.376 . S
C2152 C2150 1.394 . S
C2152 C2153 1.369 . S
C2152 C2156 1.531 . S
C2153 C2152 1.369 . S
C2153 C2154 1.410 . S
C2153 C2161 1.503 . S
C2154 C2153 1.410 . S
C2154 C2155 1.392 . S
C2154 C2157 1.511 . S
C2155 C2151 1.376 . S
C2155 C2154 1.392 . S
C2155 H2167 0.929 . S
C2156 C2152 1.531 . S
C2156 H2168 0.960 . S
C2156 H2169 0.962 . S
C2156 H2170 0.960 . S
C2157 C2154 1.511 . S
C2157 H2171 0.961 . S
C2157 H2172 0.961 . S
C2157 H2173 0.961 . S
C2158 C2159 1.370 . S
C2158 C2160 1.363 . S
C2158 H2174 0.931 . S
C2159 C2158 1.370 . S
C2159 C2163 1.408 . S
C2160 C2158 1.363 . S
C2160 C2161 1.370 . S
C2160 C2164 1.524 . S
C2161 C2153 1.503 . S
C2161 C2160 1.370 . S
C2161 C2162 1.403 . S
C2162 C2161 1.403 . S
C2162 C2163 1.404 . S
C2162 C2165 1.539 . S
C2163 C2159 1.408 . S
C2163 C2162 1.404 . S
C2163 H2175 0.930 . S
C2164 C2160 1.524 . S
C2164 H2176 0.956 . S
C2164 H2177 0.961 . S
C2164 H2178 0.961 . S
C2165 C2162 1.539 . S
C2165 H2179 0.958 . S
C2165 H2180 0.961 . S
C2165 H2181 0.960 . S
H2166 C2150 0.931 . S
H2167 C2155 0.929 . S
H2168 C2156 0.960 . S
H2169 C2156 0.962 . S
H2170 C2156 0.960 . S
H2171 C2157 0.961 . S
H2172 C2157 0.961 . S
H2173 C2157 0.961 . S
H2174 C2158 0.931 . S
H2175 C2163 0.930 . S
H2176 C2164 0.956 . S
H2177 C2164 0.961 . S
H2178 C2164 0.961 . S
H2179 C2165 0.958 . S
H2180 C2165 0.961 . S
H2181 C2165 0.960 . S
C2182 C2183 1.391 . S
C2182 C2184 1.394 . S
C2182 H2198 0.931 . S
C2183 C2182 1.391 . S
C2183 C2187 1.376 . S
C2184 C2182 1.394 . S
C2184 C2185 1.369 . S
C2184 C2188 1.531 . S
C2185 C2184 1.369 . S
C2185 C2186 1.410 . S
C2185 C2193 1.503 . S
C2186 C2185 1.410 . S
C2186 C2187 1.392 . S
C2186 C2189 1.511 . S
C2187 C2183 1.376 . S
C2187 C2186 1.392 . S
C2187 H2199 0.929 . S
C2188 C2184 1.531 . S
C2188 H2200 0.960 . S
C2188 H2201 0.962 . S
C2188 H2202 0.960 . S
C2189 C2186 1.511 . S
C2189 H2203 0.961 . S
C2189 H2204 0.961 . S
C2189 H2205 0.961 . S
C2190 C2191 1.370 . S
C2190 C2192 1.363 . S
C2190 H2206 0.931 . S
C2191 C2190 1.370 . S
C2191 C2195 1.408 . S
C2192 C2190 1.363 . S
C2192 C2193 1.370 . S
C2192 C2196 1.524 . S
C2193 C2185 1.503 . S
C2193 C2192 1.370 . S
C2193 C2194 1.403 . S
C2194 C2193 1.403 . S
C2194 C2195 1.404 . S
C2194 C2197 1.539 . S
C2195 C2191 1.408 . S
C2195 C2194 1.404 . S
C2195 H2207 0.930 . S
C2196 C2192 1.524 . S
C2196 H2208 0.956 . S
C2196 H2209 0.961 . S
C2196 H2210 0.961 . S
C2197 C2194 1.539 . S
C2197 H2211 0.958 . S
C2197 H2212 0.961 . S
C2197 H2213 0.960 . S
H2198 C2182 0.931 . S
H2199 C2187 0.929 . S
H2200 C2188 0.960 . S
H2201 C2188 0.962 . S
H2202 C2188 0.960 . S
H2203 C2189 0.961 . S
H2204 C2189 0.961 . S
H2205 C2189 0.961 . S
H2206 C2190 0.931 . S
H2207 C2195 0.930 . S
H2208 C2196 0.956 . S
H2209 C2196 0.961 . S
H2210 C2196 0.961 . S
H2211 C2197 0.958 . S
H2212 C2197 0.961 . S
H2213 C2197 0.960 . S
C2214 C2215 1.391 . S
C2214 C2216 1.394 . S
C2214 H2230 0.931 . S
C2215 C2214 1.391 . S
C2215 C2219 1.376 . S
C2216 C2214 1.394 . S
C2216 C2217 1.369 . S
C2216 C2220 1.531 . S
C2217 C2216 1.369 . S
C2217 C2218 1.410 . S
C2217 C2225 1.503 . S
C2218 C2217 1.410 . S
C2218 C2219 1.392 . S
C2218 C2221 1.511 . S
C2219 C2215 1.376 . S
C2219 C2218 1.392 . S
C2219 H2231 0.929 . S
C2220 C2216 1.531 . S
C2220 H2232 0.960 . S
C2220 H2233 0.962 . S
C2220 H2234 0.960 . S
C2221 C2218 1.511 . S
C2221 H2235 0.961 . S
C2221 H2236 0.961 . S
C2221 H2237 0.961 . S
C2222 C2223 1.370 . S
C2222 C2224 1.363 . S
C2222 H2238 0.931 . S
C2223 C2222 1.370 . S
C2223 C2227 1.408 . S
C2224 C2222 1.363 . S
C2224 C2225 1.370 . S
C2224 C2228 1.524 . S
C2225 C2217 1.503 . S
C2225 C2224 1.370 . S
C2225 C2226 1.403 . S
C2226 C2225 1.403 . S
C2226 C2227 1.404 . S
C2226 C2229 1.539 . S
C2227 C2223 1.408 . S
C2227 C2226 1.404 . S
C2227 H2239 0.930 . S
C2228 C2224 1.524 . S
C2228 H2240 0.956 . S
C2228 H2241 0.961 . S
C2228 H2242 0.961 . S
C2229 C2226 1.539 . S
C2229 H2243 0.958 . S
C2229 H2244 0.961 . S
C2229 H2245 0.960 . S
H2230 C2214 0.931 . S
H2231 C2219 0.929 . S
H2232 C2220 0.960 . S
H2233 C2220 0.962 . S
H2234 C2220 0.960 . S
H2235 C2221 0.961 . S
H2236 C2221 0.961 . S
H2237 C2221 0.961 . S
H2238 C2222 0.931 . S
H2239 C2227 0.930 . S
H2240 C2228 0.956 . S
H2241 C2228 0.961 . S
H2242 C2228 0.961 . S
H2243 C2229 0.958 . S
H2244 C2229 0.961 . S
H2245 C2229 0.960 . S
C2246 C2247 1.391 . S
C2246 C2248 1.394 . S
C2246 H2262 0.931 . S
C2247 C2246 1.391 . S
C2247 C2251 1.376 . S
C2248 C2246 1.394 . S
C2248 C2249 1.369 . S
C2248 C2252 1.531 . S
C2249 C2248 1.369 . S
C2249 C2250 1.410 . S
C2249 C2257 1.503 . S
C2250 C2249 1.410 . S
C2250 C2251 1.392 . S
C2250 C2253 1.511 . S
C2251 C2247 1.376 . S
C2251 C2250 1.392 . S
C2251 H2263 0.929 . S
C2252 C2248 1.531 . S
C2252 H2264 0.960 . S
C2252 H2265 0.962 . S
C2252 H2266 0.960 . S
C2253 C2250 1.511 . S
C2253 H2267 0.961 . S
C2253 H2268 0.961 . S
C2253 H2269 0.961 . S
C2254 C2255 1.370 . S
C2254 C2256 1.363 . S
C2254 H2270 0.931 . S
C2255 C2254 1.370 . S
C2255 C2259 1.408 . S
C2256 C2254 1.363 . S
C2256 C2257 1.370 . S
C2256 C2260 1.524 . S
C2257 C2249 1.503 . S
C2257 C2256 1.370 . S
C2257 C2258 1.403 . S
C2258 C2257 1.403 . S
C2258 C2259 1.404 . S
C2258 C2261 1.539 . S
C2259 C2255 1.408 . S
C2259 C2258 1.404 . S
C2259 H2271 0.930 . S
C2260 C2256 1.524 . S
C2260 H2272 0.956 . S
C2260 H2273 0.961 . S
C2260 H2274 0.961 . S
C2261 C2258 1.539 . S
C2261 H2275 0.958 . S
C2261 H2276 0.961 . S
C2261 H2277 0.960 . S
H2262 C2246 0.931 . S
H2263 C2251 0.929 . S
H2264 C2252 0.960 . S
H2265 C2252 0.962 . S
H2266 C2252 0.960 . S
H2267 C2253 0.961 . S
H2268 C2253 0.961 . S
H2269 C2253 0.961 . S
H2270 C2254 0.931 . S
H2271 C2259 0.930 . S
H2272 C2260 0.956 . S
H2273 C2260 0.961 . S
H2274 C2260 0.961 . S
H2275 C2261 0.958 . S
H2276 C2261 0.961 . S
H2277 C2261 0.960 . S
C2278 C2279 1.391 . S
C2278 C2280 1.394 . S
C2278 H2294 0.931 . S
C2279 C2278 1.391 . S
C2279 C2283 1.376 . S
C2280 C2278 1.394 . S
C2280 C2281 1.369 . S
C2280 C2284 1.531 . S
C2281 C2280 1.369 . S
C2281 C2282 1.410 . S
C2281 C2289 1.503 . S
C2282 C2281 1.410 . S
C2282 C2283 1.392 . S
C2282 C2285 1.511 . S
C2283 C2279 1.376 . S
C2283 C2282 1.392 . S
C2283 H2295 0.929 . S
C2284 C2280 1.531 . S
C2284 H2296 0.960 . S
C2284 H2297 0.962 . S
C2284 H2298 0.960 . S
C2285 C2282 1.511 . S
C2285 H2299 0.961 . S
C2285 H2300 0.961 . S
C2285 H2301 0.961 . S
C2286 C2287 1.370 . S
C2286 C2288 1.363 . S
C2286 H2302 0.931 . S
C2287 C2286 1.370 . S
C2287 C2291 1.408 . S
C2288 C2286 1.363 . S
C2288 C2289 1.370 . S
C2288 C2292 1.524 . S
C2289 C2281 1.503 . S
C2289 C2288 1.370 . S
C2289 C2290 1.403 . S
C2290 C2289 1.403 . S
C2290 C2291 1.404 . S
C2290 C2293 1.539 . S
C2291 C2287 1.408 . S
C2291 C2290 1.404 . S
C2291 H2303 0.930 . S
C2292 C2288 1.524 . S
C2292 H2304 0.956 . S
C2292 H2305 0.961 . S
C2292 H2306 0.961 . S
C2293 C2290 1.539 . S
C2293 H2307 0.958 . S
C2293 H2308 0.961 . S
C2293 H2309 0.960 . S
H2294 C2278 0.931 . S
H2295 C2283 0.929 . S
H2296 C2284 0.960 . S
H2297 C2284 0.962 . S
H2298 C2284 0.960 . S
H2299 C2285 0.961 . S
H2300 C2285 0.961 . S
H2301 C2285 0.961 . S
H2302 C2286 0.931 . S
H2303 C2291 0.930 . S
H2304 C2292 0.956 . S
H2305 C2292 0.961 . S
H2306 C2292 0.961 . S
H2307 C2293 0.958 . S
H2308 C2293 0.961 . S
H2309 C2293 0.960 . S
C2310 C2311 1.391 . S
C2310 C2312 1.394 . S
C2310 H2326 0.931 . S
C2311 C2310 1.391 . S
C2311 C2315 1.376 . S
C2312 C2310 1.394 . S
C2312 C2313 1.369 . S
C2312 C2316 1.531 . S
C2313 C2312 1.369 . S
C2313 C2314 1.410 . S
C2313 C2321 1.503 . S
C2314 C2313 1.410 . S
C2314 C2315 1.392 . S
C2314 C2317 1.511 . S
C2315 C2311 1.376 . S
C2315 C2314 1.392 . S
C2315 H2327 0.929 . S
C2316 C2312 1.531 . S
C2316 H2328 0.960 . S
C2316 H2329 0.962 . S
C2316 H2330 0.960 . S
C2317 C2314 1.511 . S
C2317 H2331 0.961 . S
C2317 H2332 0.961 . S
C2317 H2333 0.961 . S
C2318 C2319 1.370 . S
C2318 C2320 1.363 . S
C2318 H2334 0.931 . S
C2319 C2318 1.370 . S
C2319 C2323 1.408 . S
C2320 C2318 1.363 . S
C2320 C2321 1.370 . S
C2320 C2324 1.524 . S
C2321 C2313 1.503 . S
C2321 C2320 1.370 . S
C2321 C2322 1.403 . S
C2322 C2321 1.403 . S
C2322 C2323 1.404 . S
C2322 C2325 1.539 . S
C2323 C2319 1.408 . S
C2323 C2322 1.404 . S
C2323 H2335 0.930 . S
C2324 C2320 1.524 . S
C2324 H2336 0.956 . S
C2324 H2337 0.961 . S
C2324 H2338 0.961 . S
C2325 C2322 1.539 . S
C2325 H2339 0.958 . S
C2325 H2340 0.961 . S
C2325 H2341 0.960 . S
H2326 C2310 0.931 . S
H2327 C2315 0.929 . S
H2328 C2316 0.960 . S
H2329 C2316 0.962 . S
H2330 C2316 0.960 . S
H2331 C2317 0.961 . S
H2332 C2317 0.961 . S
H2333 C2317 0.961 . S
H2334 C2318 0.931 . S
H2335 C2323 0.930 . S
H2336 C2324 0.956 . S
H2337 C2324 0.961 . S
H2338 C2324 0.961 . S
H2339 C2325 0.958 . S
H2340 C2325 0.961 . S
H2341 C2325 0.960 . S
C2342 C2343 1.391 . S
C2342 C2344 1.394 . S
C2342 H2358 0.931 . S
C2343 C2342 1.391 . S
C2343 C2347 1.376 . S
C2344 C2342 1.394 . S
C2344 C2345 1.369 . S
C2344 C2348 1.531 . S
C2345 C2344 1.369 . S
C2345 C2346 1.410 . S
C2345 C2353 1.503 . S
C2346 C2345 1.410 . S
C2346 C2347 1.392 . S
C2346 C2349 1.511 . S
C2347 C2343 1.376 . S
C2347 C2346 1.392 . S
C2347 H2359 0.929 . S
C2348 C2344 1.531 . S
C2348 H2360 0.960 . S
C2348 H2361 0.962 . S
C2348 H2362 0.960 . S
C2349 C2346 1.511 . S
C2349 H2363 0.961 . S
C2349 H2364 0.961 . S
C2349 H2365 0.961 . S
C2350 C2351 1.370 . S
C2350 C2352 1.363 . S
C2350 H2366 0.931 . S
C2351 C2350 1.370 . S
C2351 C2355 1.408 . S
C2352 C2350 1.363 . S
C2352 C2353 1.370 . S
C2352 C2356 1.524 . S
C2353 C2345 1.503 . S
C2353 C2352 1.370 . S
C2353 C2354 1.403 . S
C2354 C2353 1.403 . S
C2354 C2355 1.404 . S
C2354 C2357 1.539 . S
C2355 C2351 1.408 . S
C2355 C2354 1.404 . S
C2355 H2367 0.930 . S
C2356 C2352 1.524 . S
C2356 H2368 0.956 . S
C2356 H2369 0.961 . S
C2356 H2370 0.961 . S
C2357 C2354 1.539 . S
C2357 H2371 0.958 . S
C2357 H2372 0.961 . S
C2357 H2373 0.960 . S
H2358 C2342 0.931 . S
H2359 C2347 0.929 . S
H2360 C2348 0.960 . S
H2361 C2348 0.962 . S
H2362 C2348 0.960 . S
H2363 C2349 0.961 . S
H2364 C2349 0.961 . S
H2365 C2349 0.961 . S
H2366 C2350 0.931 . S
H2367 C2355 0.930 . S
H2368 C2356 0.956 . S
H2369 C2356 0.961 . S
H2370 C2356 0.961 . S
H2371 C2357 0.958 . S
H2372 C2357 0.961 . S
H2373 C2357 0.960 . S
C2374 C2375 1.391 . S
C2374 C2376 1.394 . S
C2374 H2390 0.931 . S
C2375 C2374 1.391 . S
C2375 C2379 1.376 . S
C2376 C2374 1.394 . S
C2376 C2377 1.369 . S
C2376 C2380 1.531 . S
C2377 C2376 1.369 . S
C2377 C2378 1.410 . S
C2377 C2385 1.503 . S
C2378 C2377 1.410 . S
C2378 C2379 1.392 . S
C2378 C2381 1.511 . S
C2379 C2375 1.376 . S
C2379 C2378 1.392 . S
C2379 H2391 0.929 . S
C2380 C2376 1.531 . S
C2380 H2392 0.960 . S
C2380 H2393 0.962 . S
C2380 H2394 0.960 . S
C2381 C2378 1.511 . S
C2381 H2395 0.961 . S
C2381 H2396 0.961 . S
C2381 H2397 0.961 . S
C2382 C2383 1.370 . S
C2382 C2384 1.363 . S
C2382 H2398 0.931 . S
C2383 C2382 1.370 . S
C2383 C2387 1.408 . S
C2384 C2382 1.363 . S
C2384 C2385 1.370 . S
C2384 C2388 1.524 . S
C2385 C2377 1.503 . S
C2385 C2384 1.370 . S
C2385 C2386 1.403 . S
C2386 C2385 1.403 . S
C2386 C2387 1.404 . S
C2386 C2389 1.539 . S
C2387 C2383 1.408 . S
C2387 C2386 1.404 . S
C2387 H2399 0.930 . S
C2388 C2384 1.524 . S
C2388 H2400 0.956 . S
C2388 H2401 0.961 . S
C2388 H2402 0.961 . S
C2389 C2386 1.539 . S
C2389 H2403 0.958 . S
C2389 H2404 0.961 . S
C2389 H2405 0.960 . S
H2390 C2374 0.931 . S
H2391 C2379 0.929 . S
H2392 C2380 0.960 . S
H2393 C2380 0.962 . S
H2394 C2380 0.960 . S
H2395 C2381 0.961 . S
H2396 C2381 0.961 . S
H2397 C2381 0.961 . S
H2398 C2382 0.931 . S
H2399 C2387 0.930 . S
H2400 C2388 0.956 . S
H2401 C2388 0.961 . S
H2402 C2388 0.961 . S
H2403 C2389 0.958 . S
H2404 C2389 0.961 . S
H2405 C2389 0.960 . S
C879 C699 1.345 . S
C871 C74 1.448 . S
C911 C700 1.616 . S
C903 C153 1.543 . S
C943 C694 1.593 . S
C935 C231 1.580 . S
C967 C310 0.975 . S
C975 C693 0.286 . S
C999 C394 1.483 . S
C1007 C696 1.602 . S
C1039 C698 1.591 . S
C1031 C494 1.595 . S
C1063 C573 0.906 . S
C1071 C697 0.312 . S
C1095 C651 1.472 . S
C1103 C695 1.380 . S
C1135 C730 2.617 . S
C1127 C56 2.611 . S
C1159 C151 1.617 . S
C1167 C761 1.487 . S
C1199 C729 1.364 . S
C1191 C237 1.235 . S
C1231 C764 1.375 . S
C1223 C326 1.344 . S
C1255 C410 1.656 . S
C1263 C727 1.634 . S
C1295 C759 2.618 . S
C1287 C476 2.618 . S
C1319 C571 1.350 . S
C1327 C732 1.224 . S
C1351 C657 1.277 . S
C1359 C766 1.351 . S
C1383 C58 1.296 . S
C1391 C762 1.351 . S
C1415 C392 1.620 . S
C1423 C765 1.512 . S
C1455 C733 1.383 . S
C1447 C478 1.262 . S
C1487 C760 1.367 . S
C1479 C567 1.341 . S
C1511 C655 2.599 . S
C1519 C726 2.613 . S
C1543 C235 2.626 . S
C1551 C763 2.620 . S
C1583 C728 1.256 . S
C1575 C308 1.332 . S
C1607 C147 1.636 . S
C1615 C731 1.627 . S
C1639 C662 1.492 . S
C1647 C798 1.412 . S
C1671 C405 1.284 . S
C1679 C799 1.263 . S
C1711 C793 1.406 . S
C1703 C483 1.439 . S
C1743 C792 0.275 . S
C1735 C562 0.690 . S
C1767 C142 1.188 . S
C1775 C795 1.240 . S
C1807 C797 1.420 . S
C1799 C242 1.417 . S
C1831 C321 0.686 . S
C1839 C796 0.326 . S
C1863 C63 1.506 . S
C1871 C794 1.429 . S
C1895 C644 2.817 . S
C1903 C832 2.740 . S
C1935 C864 1.337 . S
C1927 C403 1.397 . S
C1959 C489 1.098 . S
C1967 C825 1.307 . S
C1991 C578 1.659 . S
C1999 C859 1.626 . S
C2031 C830 1.353 . S
C2023 C158 1.326 . S
C2055 C224 2.836 . S
C2063 C861 2.757 . S
C2095 C827 1.640 . S
C2087 C319 1.700 . S
C2127 C862 1.317 . S
C2119 C69 1.162 . S
C2159 C858 1.318 . S
C2151 C646 1.259 . S
C2183 C140 1.389 . S
C2191 C860 1.320 . S
C2215 C226 1.161 . S
C2223 C829 1.311 . S
C2255 C863 1.636 . S
C2247 C315 1.606 . S
C2279 C67 2.808 . S
C2287 C828 2.726 . S
C2311 C487 2.840 . S
C2319 C865 2.762 . S
C2351 C831 1.638 . S
C2343 C560 1.720 . S
C2383 C826 1.342 . S
C2375 C399 1.324 . S
