# Generated by pormake.
# Topology nia, (6,6)-cn, num edge types: 1
# Building blocks:
#     Node 0, Type 0, BuildingBlock: BETDIP_clean_sbu_0, # of connection points: 6
#     Node 1, Type 0, BuildingBlock: BETDIP_clean_sbu_0, # of connection points: 6
#     Node 2, Type 1, BuildingBlock: MIDCAF_clean_sbu_0, # of connection points: 6
#     Node 3, Type 1, BuildingBlock: MIDCAF_clean_sbu_0, # of connection points: 6
#     Edge 4, Type (0, 1), BuildingBlock: XIVTED_clean_linker_0, # of connection points: 2
#     Edge 5, Type (0, 1), BuildingBlock: XIVTED_clean_linker_0, # of connection points: 2
#     Edge 6, Type (0, 1), BuildingBlock: XIVTED_clean_linker_0, # of connection points: 2
#     Edge 7, Type (0, 1), BuildingBlock: XIVTED_clean_linker_0, # of connection points: 2
#     Edge 8, Type (0, 1), BuildingBlock: XIVTED_clean_linker_0, # of connection points: 2
#     Edge 9, Type (0, 1), BuildingBlock: XIVTED_clean_linker_0, # of connection points: 2
#     Edge 10, Type (0, 1), BuildingBlock: XIVTED_clean_linker_0, # of connection points: 2
#     Edge 11, Type (0, 1), BuildingBlock: XIVTED_clean_linker_0, # of connection points: 2
#     Edge 12, Type (0, 1), BuildingBlock: XIVTED_clean_linker_0, # of connection points: 2
#     Edge 13, Type (0, 1), BuildingBlock: XIVTED_clean_linker_0, # of connection points: 2
#     Edge 14, Type (0, 1), BuildingBlock: XIVTED_clean_linker_0, # of connection points: 2
#     Edge 15, Type (0, 1), BuildingBlock: XIVTED_clean_linker_0, # of connection points: 2
# Relax obj value: 0.307
# Max RMSD: 0.271
# Mean RMSD: 0.242
data_MOF--net-nia--node1-BETDIP_clean_sbu_0--node2-MIDCAF_clean_sbu_0--edge1-XIVTED_clean_linker_0
_symmetry_space_group_name_H-M    P1
_symmetry_Int_Tables_number       1
_symmetry_cell_setting            triclinic
loop_
_symmetry_equiv_pos_as_xyz
'x, y, z'
_cell_length_a     28.230238
_cell_length_b     25.471056
_cell_length_c     34.470691
_cell_angle_alpha  102.0535
_cell_angle_beta   70.826074
_cell_angle_gamma 129.04689
loop_
_atom_site_label
_atom_site_type_symbol
_atom_site_fract_x
_atom_site_fract_y
_atom_site_fract_z
_atom_type_partial_charge
Tb0 Tb 0.99835 0.06838 1.00134 0.0
Tb1 Tb 0.02911 0.98975 0.02614 0.0
C2 C 0.96032 0.13147 0.9938 0.0
C3 C 0.94623 0.14578 0.96124 0.0
C4 C 0.88346 0.11676 0.96363 0.0
C5 C 0.86952 0.13472 0.93563 0.0
C6 C 0.91815 0.1826 0.90475 0.0
C7 C 0.98084 0.20989 0.90148 0.0
C8 C 0.99477 0.19172 0.92939 0.0
C9 C 0.10633 0.09245 0.95621 0.0
C10 C 0.05863 0.11689 0.07722 0.0
C11 C 0.0664 0.92427 0.03065 0.0
C12 C 0.07841 0.9025 0.06022 0.0
C13 C 0.08616 0.8519 0.04802 0.0
C14 C 0.09776 0.82932 0.07473 0.0
C15 C 0.10168 0.85674 0.11446 0.0
C16 C 0.09428 0.90805 0.12668 0.0
C17 C 0.08242 0.93063 0.09975 0.0
C18 C 0.92181 0.96659 0.07178 0.0
C19 C 0.97067 0.94265 0.94946 0.0
O20 O 0.01949 0.1598 0.99038 0.0
O21 O 0.92243 0.06902 1.00672 0.0
O22 O 0.08432 0.08279 0.99446 0.0
O23 O 0.069 0.0926 0.94235 0.0
O24 O 0.0213 0.11441 0.06033 0.0
O25 O 0.07528 0.07673 0.06495 0.0
O26 O 0.00742 0.89683 0.03437 0.0
O27 O 0.10432 0.98882 0.02221 0.0
O28 O 0.94317 0.97557 0.03341 0.0
O29 O 0.95912 0.96593 0.08534 0.0
O30 O 0.00821 0.94575 0.96643 0.0
O31 O 0.95285 0.98168 0.96217 0.0
H32 H 0.84514 0.08159 0.98798 0.0
H33 H 0.82082 0.11333 0.93937 0.0
H34 H 0.01933 0.24629 0.87775 0.0
H35 H 0.0437 0.21499 0.92653 0.0
H36 H 0.08346 0.82983 0.01758 0.0
H37 H 0.10447 0.79078 0.06397 0.0
H38 H 0.09679 0.92996 0.15714 0.0
H39 H 0.07635 0.96976 0.1097 0.0
Tb40 Tb 0.06721 0.07327 0.55122 0.0
Tb41 Tb 0.00429 0.02115 0.4839 0.0
C42 C 0.10864 0.09155 0.61071 0.0
C43 C 0.12615 0.06303 0.63056 0.0
C44 C 0.14381 0.09267 0.66712 0.0
C45 C 0.16826 0.07288 0.68459 0.0
C46 C 0.17572 0.02304 0.66561 0.0
C47 C 0.15282 0.9894 0.63063 0.0
C48 C 0.12837 0.00954 0.61306 0.0
C49 C 0.11373 0.16574 0.49755 0.0
C50 C 0.10691 0.00613 0.47386 0.0
C51 C 0.96046 1.00418 0.42581 0.0
C52 C 0.89894 0.977 0.42131 0.0
C53 C 0.88858 0.96048 0.38211 0.0
C54 C 0.82928 0.93127 0.3773 0.0
C55 C 0.77943 0.91811 0.41174 0.0
C56 C 0.79036 0.93564 0.45106 0.0
C57 C 0.84973 0.96474 0.45582 0.0
C58 C 0.95757 0.92708 0.53618 0.0
C59 C 0.96461 0.09159 0.56211 0.0
O60 O 0.04856 0.05535 0.61284 0.0
O61 O 0.1451 0.11888 0.57451 0.0
O62 O 0.09527 0.10607 0.48964 0.0
O63 O 0.11148 0.17724 0.5362 0.0
O64 O 0.09487 0.01069 0.5144 0.0
O65 O 0.0871 0.02477 0.45379 0.0
O66 O 0.98797 0.06061 0.44659 0.0
O67 O 0.96358 0.96008 0.43606 0.0
O68 O 0.97571 0.98668 0.5453 0.0
O69 O 0.95993 0.91733 0.49753 0.0
O70 O 0.95892 0.06481 0.52506 0.0
O71 O 0.00145 0.09572 0.58002 0.0
H72 H 0.14175 0.1337 0.68109 0.0
H73 H 0.18615 0.10091 0.71103 0.0
H74 H 0.15725 0.95037 0.61551 0.0
H75 H 0.11383 0.98554 0.58502 0.0
H76 H 0.92611 0.96917 0.35525 0.0
H77 H 0.82207 0.91738 0.34671 0.0
H78 H 0.75305 0.92676 0.47811 0.0
H79 H 0.85703 0.97699 0.48638 0.0
Zn80 Zn 0.35095 0.66861 0.20211 0.0
Zn81 Zn 0.2263 0.61393 0.38283 0.0
Zn82 Zn 0.33061 0.67288 0.27936 0.0
C83 C 0.35121 0.68084 0.3715 0.0
C84 C 0.23667 0.52389 0.32998 0.0
O85 O 0.28218 0.70594 0.26472 0.0
O86 O 0.28808 0.67823 0.19907 0.0
C87 C 0.46811 0.76291 0.21368 0.0
O88 O 0.34313 0.67767 0.33666 0.0
O89 O 0.30332 0.65248 0.40186 0.0
O90 O 0.19269 0.52769 0.35047 0.0
O91 O 0.28697 0.57293 0.30623 0.0
O92 O 0.44018 0.7458 0.18627 0.0
O93 O 0.43523 0.73817 0.24998 0.0
O94 O 0.28304 0.56893 0.25661 0.0
O95 O 0.33053 0.57812 0.19078 0.0
C96 C 0.29216 0.54174 0.22216 0.0
O97 O 0.2833 0.72354 0.30713 0.0
O98 O 0.22164 0.68282 0.37043 0.0
C99 C 0.26781 0.69974 0.2314 0.0
C100 C 0.24569 0.72286 0.34152 0.0
Zn101 Zn 0.68955 0.40407 0.82242 0.0
Zn102 Zn 0.71307 0.37846 0.67009 0.0
Zn103 Zn 0.69958 0.38838 0.74566 0.0
C104 C 0.77329 0.51243 0.68017 0.0
C105 C 0.58465 0.29157 0.7037 0.0
O106 O 0.74633 0.3528 0.76075 0.0
O107 O 0.74129 0.3795 0.82657 0.0
C108 C 0.75369 0.53126 0.79377 0.0
O109 O 0.75431 0.49226 0.71742 0.0
O110 O 0.76116 0.47003 0.65125 0.0
O111 O 0.6245 0.3153 0.66955 0.0
O112 O 0.60284 0.3142 0.73713 0.0
O113 O 0.72744 0.50047 0.82733 0.0
O114 O 0.7503 0.49866 0.7594 0.0
O115 O 0.59526 0.32989 0.77991 0.0
O116 O 0.59787 0.34144 0.84465 0.0
C117 C 0.56629 0.31757 0.81856 0.0
O118 O 0.74758 0.3387 0.71896 0.0
O119 O 0.75497 0.33614 0.6529 0.0
C120 C 0.75902 0.35588 0.79423 0.0
C121 C 0.76351 0.32197 0.68163 0.0
H122 H 0.04931 0.72582 0.12664 0.0
H123 H 0.28422 0.81896 0.25435 0.0
H124 H 0.18167 0.92923 0.16568 0.0
H125 H 0.16729 0.62494 0.19952 0.0
H126 H 0.23323 0.85644 0.23491 0.0
H127 H 0.07884 0.68491 0.16493 0.0
C128 C 0.08446 0.76195 0.14348 0.0
C129 C 0.11385 0.83126 0.14229 0.0
C130 C 0.2178 0.8052 0.22797 0.0
C131 C 0.14783 0.78447 0.18673 0.0
C132 C 0.24617 0.78357 0.23965 0.0
C133 C 0.22916 0.71861 0.22896 0.0
C134 C 0.17245 0.76134 0.2054 0.0
C135 C 0.18144 0.67536 0.20844 0.0
C136 C 0.10116 0.73848 0.16554 0.0
C137 C 0.15792 0.87539 0.16565 0.0
N138 N 0.15514 0.69761 0.1971 0.0
N139 N 0.1742 0.85137 0.18653 0.0
H140 H 0.2646 0.01012 0.6136 0.0
H141 H 0.48879 0.19559 0.76354 0.0
H142 H 0.19016 0.02953 0.74251 0.0
H143 H 0.53191 0.25516 0.64089 0.0
H144 H 0.38003 0.10094 0.75907 0.0
H145 H 0.36269 0.05458 0.62746 0.0
C146 C 0.26749 0.02083 0.64518 0.0
C147 C 0.21997 0.0191 0.67667 0.0
C148 C 0.41392 0.13484 0.73326 0.0
C149 C 0.33313 0.07201 0.6922 0.0
C150 C 0.47517 0.18965 0.73615 0.0
C151 C 0.51856 0.23515 0.70334 0.0
C152 C 0.39774 0.12414 0.69651 0.0
C153 C 0.49991 0.2223 0.66733 0.0
C154 C 0.32406 0.04705 0.65293 0.0
C155 C 0.22691 0.03317 0.717 0.0
N156 N 0.4411 0.16808 0.66492 0.0
N157 N 0.28364 0.06156 0.72353 0.0
H158 H 0.01741 0.18921 0.12295 0.0
H159 H 0.33398 0.46926 0.18228 0.0
H160 H 0.15955 0.16187 0.10425 0.0
H161 H 0.16423 0.4488 0.24754 0.0
H162 H 0.26997 0.35379 0.15651 0.0
H163 H 0.06829 0.28213 0.17047 0.0
C164 C 0.05889 0.20223 0.12918 0.0
C165 C 0.08462 0.16814 0.1093 0.0
C166 C 0.24645 0.37373 0.1773 0.0
C167 C 0.14316 0.27455 0.16339 0.0
C168 C 0.28296 0.43945 0.19209 0.0
C169 C 0.25407 0.4681 0.21686 0.0
C170 C 0.18077 0.33741 0.18628 0.0
C171 C 0.18799 0.42802 0.22856 0.0
C172 C 0.08762 0.25494 0.15653 0.0
C173 C 0.13819 0.18687 0.11877 0.0
N174 N 0.15342 0.36502 0.21229 0.0
N175 N 0.1663 0.23956 0.14459 0.0
H176 H 0.97814 0.1672 0.63288 0.0
H177 H 0.7293 0.21944 0.62754 0.0
H178 H 0.87436 0.08265 0.54062 0.0
H179 H 0.85143 0.33272 0.70917 0.0
H180 H 0.77429 0.1593 0.60133 0.0
H181 H 0.92556 0.21903 0.66633 0.0
C182 C 0.94389 0.15894 0.61981 0.0
C183 C 0.93052 0.12017 0.58384 0.0
C184 C 0.79103 0.19669 0.62528 0.0
C185 C 0.87029 0.17962 0.62215 0.0
C186 C 0.76523 0.23102 0.64038 0.0
C187 C 0.78638 0.28083 0.67083 0.0
C188 C 0.83891 0.21219 0.64048 0.0
C189 C 0.8329 0.29368 0.68635 0.0
C190 C 0.9141 0.18883 0.63892 0.0
C191 C 0.88617 0.11191 0.56823 0.0
N192 N 0.858 0.25974 0.67081 0.0
N193 N 0.85775 0.14136 0.58747 0.0
H194 H 0.86395 0.92409 0.15161 0.0
H195 H 0.5441 0.85104 0.15038 0.0
H196 H 0.83177 0.95312 0.04668 0.0
H197 H 0.55242 0.77121 0.24464 0.0
H198 H 0.65505 0.90396 0.11789 0.0
H199 H 0.75574 0.88086 0.19051 0.0
C200 C 0.83428 0.92188 0.13683 0.0
C201 C 0.85714 0.94269 0.09583 0.0
C202 C 0.63313 0.87554 0.14588 0.0
C203 C 0.73339 0.89382 0.14039 0.0
C204 C 0.5696 0.84554 0.16476 0.0
C205 C 0.53842 0.80624 0.20038 0.0
C206 C 0.66685 0.86685 0.16253 0.0
C207 C 0.57444 0.80139 0.21745 0.0
C208 C 0.7725 0.89707 0.15907 0.0
C209 C 0.81652 0.93838 0.07824 0.0
N210 N 0.63674 0.8309 0.19816 0.0
N211 N 0.75686 0.91465 0.10061 0.0
H212 H 0.96559 0.82539 0.51161 0.0
H213 H 0.76175 0.61304 0.71923 0.0
H214 H 0.90823 0.91049 0.62122 0.0
H215 H 0.87009 0.57419 0.61361 0.0
H216 H 0.81365 0.72293 0.68853 0.0
H217 H 0.92866 0.73301 0.55165 0.0
C218 C 0.94535 0.82473 0.54438 0.0
C219 C 0.93967 0.87552 0.56301 0.0
C220 C 0.8267 0.69066 0.67262 0.0
C221 C 0.89611 0.76825 0.60981 0.0
C222 C 0.79751 0.62834 0.69026 0.0
C223 C 0.81143 0.5843 0.66878 0.0
C224 C 0.86962 0.70823 0.6334 0.0
C225 C 0.85741 0.60611 0.63111 0.0
C226 C 0.92429 0.7718 0.56744 0.0
C227 C 0.91346 0.87218 0.60573 0.0
N228 N 0.88409 0.66571 0.61465 0.0
N229 N 0.89175 0.81876 0.62776 0.0
H230 H 0.17626 0.02529 0.39357 0.0
H231 H 0.12967 0.68708 0.38051 0.0
H232 H 0.10299 0.9109 0.502 0.0
H233 H 0.31689 0.85834 0.32258 0.0
H234 H 0.10159 0.76236 0.4109 0.0
H235 H 0.21467 0.96031 0.35473 0.0
C236 C 0.16889 0.98708 0.40925 0.0
C237 C 0.13659 0.97347 0.45107 0.0
C238 C 0.14845 0.78328 0.39094 0.0
C239 C 0.17846 0.89852 0.40677 0.0
C240 C 0.16447 0.74049 0.37327 0.0
C241 C 0.22586 0.76656 0.34909 0.0
C242 C 0.1936 0.85282 0.3839 0.0
C243 C 0.26892 0.8362 0.34072 0.0
C244 C 0.19089 0.9504 0.38713 0.0
C245 C 0.12806 0.92339 0.46993 0.0
N246 N 0.25205 0.87738 0.35835 0.0
N247 N 0.14786 0.88689 0.44746 0.0
H248 H 0.16579 0.13608 0.87658 0.0
H249 H 0.49476 0.23996 0.88679 0.0
H250 H 0.1972 0.11188 0.98368 0.0
H251 H 0.47902 0.30315 0.7879 0.0
H252 H 0.38259 0.18181 0.91859 0.0
H253 H 0.27644 0.18659 0.8401 0.0
C254 C 0.19586 0.14095 0.89233 0.0
C255 C 0.17217 0.11959 0.93325 0.0
C256 C 0.40322 0.20781 0.88978 0.0
C257 C 0.29882 0.17722 0.89162 0.0
C258 C 0.46744 0.241 0.87146 0.0
C259 C 0.49644 0.27615 0.83437 0.0
C260 C 0.36689 0.20944 0.87112 0.0
C261 C 0.45847 0.27587 0.81615 0.0
C262 C 0.25905 0.16995 0.8715 0.0
C263 C 0.21326 0.12725 0.95215 0.0
N264 N 0.39557 0.24304 0.83473 0.0
N265 N 0.27442 0.15538 0.93122 0.0
H266 H 0.10874 0.14629 0.41705 0.0
H267 H 0.31294 0.53761 0.36898 0.0
H268 H 0.17857 0.3018 0.50873 0.0
H269 H 0.15114 0.38786 0.32084 0.0
H270 H 0.28866 0.44841 0.40697 0.0
H271 H 0.14609 0.23201 0.36922 0.0
C272 C 0.13187 0.19834 0.42711 0.0
C273 C 0.13941 0.2168 0.46719 0.0
C274 C 0.25957 0.43494 0.38717 0.0
C275 C 0.18494 0.31508 0.41212 0.0
C276 C 0.2739 0.48551 0.36505 0.0
C277 C 0.23445 0.46962 0.34132 0.0
C278 C 0.20616 0.36796 0.38484 0.0
C279 C 0.18312 0.40171 0.33836 0.0
C280 C 0.15346 0.24712 0.39975 0.0
C281 C 0.17123 0.2853 0.47825 0.0
N282 N 0.17034 0.35319 0.35992 0.0
N283 N 0.19313 0.33203 0.45083 0.0
H284 H 0.98318 0.3132 0.8824 0.0
H285 H 0.73114 0.23084 0.77441 0.0
H286 H 0.82003 0.11025 0.86777 0.0
H287 H 0.86313 0.42608 0.82193 0.0
H288 H 0.77756 0.18715 0.7933 0.0
H289 H 0.95381 0.35602 0.84519 0.0
C290 C 0.94176 0.27743 0.87073 0.0
C291 C 0.90389 0.20797 0.87843 0.0
C292 C 0.79701 0.23983 0.79888 0.0
C293 C 0.86945 0.25698 0.83613 0.0
C294 C 0.77098 0.26477 0.78778 0.0
C295 C 0.79382 0.33206 0.79652 0.0
C296 C 0.84609 0.28279 0.81865 0.0
C297 C 0.84457 0.37392 0.81457 0.0
C298 C 0.92475 0.30202 0.84972 0.0
C299 C 0.85013 0.16427 0.86304 0.0
N300 N 0.86881 0.34858 0.8252 0.0
N301 N 0.83427 0.18951 0.84282 0.0
H302 H 0.66557 0.81748 0.45897 0.0
H303 H 0.46476 0.76984 0.31886 0.0
H304 H 0.74842 0.94037 0.35262 0.0
H305 H 0.38168 0.67065 0.43544 0.0
H306 H 0.56962 0.82772 0.32805 0.0
H307 H 0.56127 0.7592 0.44887 0.0
C308 C 0.66176 0.83268 0.43373 0.0
C309 C 0.71576 0.88399 0.40666 0.0
C310 C 0.52845 0.79327 0.35161 0.0
C311 C 0.5966 0.81676 0.39454 0.0
C312 C 0.46864 0.75988 0.34621 0.0
C313 C 0.41462 0.71532 0.37634 0.0
C314 C 0.53409 0.78176 0.38738 0.0
C315 C 0.42219 0.70493 0.41154 0.0
C316 C 0.60224 0.79908 0.42782 0.0
C317 C 0.70809 0.90059 0.37395 0.0
N318 N 0.4809 0.73789 0.41607 0.0
N319 N 0.64956 0.867 0.36878 0.0
H320 H 0.01474 0.8729 0.90392 0.0
H321 H 0.71332 0.60771 0.82182 0.0
H322 H 0.87354 0.90007 0.91857 0.0
H323 H 0.88127 0.6198 0.77524 0.0
H324 H 0.77461 0.72116 0.85104 0.0
H325 H 0.9702 0.7852 0.85264 0.0
C326 C 0.97468 0.86084 0.89613 0.0
C327 C 0.94747 0.89348 0.9159 0.0
C328 C 0.79871 0.70014 0.8333 0.0
C329 C 0.89605 0.79281 0.85721 0.0
C330 C 0.76384 0.63577 0.81621 0.0
C331 C 0.7927 0.6052 0.79577 0.0
C332 C 0.86236 0.73298 0.83099 0.0
C333 C 0.85776 0.64243 0.79028 0.0
C334 C 0.94951 0.81103 0.8666 0.0
C335 C 0.89591 0.87608 0.90425 0.0
N336 N 0.89023 0.70387 0.80866 0.0
N337 N 0.8713 0.82626 0.87613 0.0
loop_
_geom_bond_atom_site_label_1
_geom_bond_atom_site_label_2
_geom_bond_distance
_geom_bond_site_symmetry_2
_ccdc_geom_bond_type
Tb0 C2 2.809 . S
Tb0 O20 2.484 . S
Tb0 O21 2.440 1_655 S
Tb0 O22 2.658 1_655 S
Tb0 O23 2.409 1_655 S
Tb0 O24 2.378 1_656 S
Tb0 O28 2.325 1_546 S
Tb0 O31 2.341 1_545 S
Tb1 C11 2.809 . S
Tb1 O22 2.325 1_564 S
Tb1 O25 2.341 1_565 S
Tb1 O26 2.484 . S
Tb1 O27 2.440 . S
Tb1 O28 2.658 1_455 S
Tb1 O29 2.409 1_455 S
Tb1 O30 2.378 1_455 S
C2 Tb0 2.809 . S
C2 C3 1.514 . S
C2 O20 1.248 . S
C2 O21 1.266 1_655 S
C3 C2 1.514 . S
C3 C4 1.359 . S
C3 C8 1.348 1_655 S
C4 C3 1.359 . S
C4 C5 1.380 . S
C4 H32 0.929 . S
C5 C4 1.380 . S
C5 C6 1.347 . S
C5 H33 0.931 . S
C6 C5 1.347 . S
C6 C7 1.369 . S
C7 C6 1.369 . S
C7 C8 1.408 1_655 S
C7 H34 0.930 1_655 S
C8 C3 1.348 1_455 S
C8 C7 1.408 1_455 S
C8 H35 0.930 . S
C9 O22 1.281 . S
C9 O23 1.254 . S
C10 O24 1.236 . S
C10 O25 1.266 . S
C11 Tb1 2.809 . S
C11 C12 1.514 . S
C11 O26 1.248 . S
C11 O27 1.266 . S
C12 C11 1.514 . S
C12 C13 1.359 . S
C12 C17 1.348 . S
C13 C12 1.359 . S
C13 C14 1.380 . S
C13 H36 0.929 . S
C14 C13 1.380 . S
C14 C15 1.347 . S
C14 H37 0.931 . S
C15 C14 1.347 . S
C15 C16 1.369 . S
C16 C15 1.369 . S
C16 C17 1.408 . S
C16 H38 0.930 1_455 S
C17 C12 1.348 . S
C17 C16 1.408 . S
C17 H39 0.930 1_455 S
C18 O28 1.281 . S
C18 O29 1.254 . S
C19 O30 1.236 1_556 S
C19 O31 1.266 . S
O20 Tb0 2.484 . S
O20 C2 1.248 . S
O21 Tb0 2.440 1_455 S
O21 C2 1.266 1_455 S
O22 Tb0 2.658 1_455 S
O22 Tb1 2.325 1_546 S
O22 C9 1.281 . S
O23 Tb0 2.409 1_455 S
O23 C9 1.254 . S
O24 Tb0 2.378 1_454 S
O24 C10 1.236 . S
O25 Tb1 2.341 1_545 S
O25 C10 1.266 . S
O26 Tb1 2.484 . S
O26 C11 1.248 . S
O27 Tb1 2.440 . S
O27 C11 1.266 . S
O28 Tb0 2.325 1_564 S
O28 Tb1 2.658 1_655 S
O28 C18 1.281 . S
O29 Tb1 2.409 1_655 S
O29 C18 1.254 . S
O30 Tb1 2.378 1_655 S
O30 C19 1.236 1_554 S
O31 Tb0 2.341 1_565 S
O31 C19 1.266 . S
H32 C4 0.929 . S
H33 C5 0.931 . S
H34 C7 0.930 1_455 S
H35 C8 0.930 . S
H36 C13 0.929 . S
H37 C14 0.931 . S
H38 C16 0.930 1_655 S
H39 C17 0.930 1_655 S
Tb40 C42 2.809 . S
Tb40 O60 2.484 . S
Tb40 O61 2.440 . S
Tb40 O62 2.658 . S
Tb40 O63 2.409 . S
Tb40 O64 2.378 . S
Tb40 O68 2.325 1_445 S
Tb40 O71 2.341 1_455 S
Tb41 C51 2.809 . S
Tb41 O62 2.325 1_665 S
Tb41 O65 2.341 1_655 S
Tb41 O66 2.484 . S
Tb41 O67 2.440 . S
Tb41 O68 2.658 . S
Tb41 O69 2.409 . S
Tb41 O70 2.378 . S
C42 Tb40 2.809 . S
C42 C43 1.514 . S
C42 O60 1.248 . S
C42 O61 1.266 . S
C43 C42 1.514 . S
C43 C44 1.359 . S
C43 C48 1.348 . S
C44 C43 1.359 . S
C44 C45 1.380 . S
C44 H72 0.929 . S
C45 C44 1.380 . S
C45 C46 1.347 . S
C45 H73 0.931 . S
C46 C45 1.347 . S
C46 C47 1.369 . S
C47 C46 1.369 . S
C47 C48 1.408 . S
C47 H74 0.930 . S
C48 C43 1.348 . S
C48 C47 1.408 . S
C48 H75 0.930 . S
C49 O62 1.281 . S
C49 O63 1.254 . S
C50 O64 1.236 1_565 S
C50 O65 1.266 . S
C51 Tb41 2.809 . S
C51 C52 1.514 . S
C51 O66 1.248 . S
C51 O67 1.266 . S
C52 C51 1.514 . S
C52 C53 1.359 . S
C52 C57 1.348 . S
C53 C52 1.359 . S
C53 C54 1.380 . S
C53 H76 0.929 1_565 S
C54 C53 1.380 . S
C54 C55 1.347 . S
C54 H77 0.931 . S
C55 C54 1.347 . S
C55 C56 1.369 . S
C56 C55 1.369 . S
C56 C57 1.408 . S
C56 H78 0.930 . S
C57 C52 1.348 . S
C57 C56 1.408 . S
C57 H79 0.930 . S
C58 O68 1.281 . S
C58 O69 1.254 . S
C59 O70 1.236 1_545 S
C59 O71 1.266 . S
O60 Tb40 2.484 . S
O60 C42 1.248 . S
O61 Tb40 2.440 . S
O61 C42 1.266 . S
O62 Tb40 2.658 . S
O62 Tb41 2.325 1_445 S
O62 C49 1.281 . S
O63 Tb40 2.409 . S
O63 C49 1.254 . S
O64 Tb40 2.378 . S
O64 C50 1.236 1_545 S
O65 Tb41 2.341 1_455 S
O65 C50 1.266 . S
O66 Tb41 2.484 . S
O66 C51 1.248 . S
O67 Tb41 2.440 . S
O67 C51 1.266 . S
O68 Tb40 2.325 1_665 S
O68 Tb41 2.658 . S
O68 C58 1.281 . S
O69 Tb41 2.409 . S
O69 C58 1.254 . S
O70 Tb41 2.378 . S
O70 C59 1.236 1_565 S
O71 Tb40 2.341 1_655 S
O71 C59 1.266 . S
H72 C44 0.929 . S
H73 C45 0.931 . S
H74 C47 0.930 . S
H75 C48 0.930 . S
H76 C53 0.929 1_545 S
H77 C54 0.931 . S
H78 C56 0.930 . S
H79 C57 0.930 . S
Zn80 O86 1.920 . S
Zn80 O92 1.898 . S
Zn80 O95 1.905 . S
Zn81 O89 1.905 . S
Zn81 O90 1.898 . S
Zn81 O98 1.920 . S
Zn82 O85 2.080 . S
Zn82 O88 2.114 . S
Zn82 O91 2.120 . S
Zn82 O93 2.120 . S
Zn82 O94 2.114 . S
Zn82 O97 2.080 . S
C83 O88 1.166 . S
C83 O89 1.182 . S
C84 O90 1.167 . S
C84 O91 1.299 . S
O85 Zn82 2.080 . S
O85 C99 1.305 . S
O86 Zn80 1.920 . S
O86 C99 1.234 . S
C87 O92 1.167 . S
C87 O93 1.299 . S
O88 Zn82 2.114 . S
O88 C83 1.166 . S
O89 Zn81 1.905 . S
O89 C83 1.182 . S
O90 Zn81 1.898 . S
O90 C84 1.167 . S
O91 Zn82 2.120 . S
O91 C84 1.299 . S
O92 Zn80 1.898 . S
O92 C87 1.167 . S
O93 Zn82 2.120 . S
O93 C87 1.299 . S
O94 Zn82 2.114 . S
O94 C96 1.166 . S
O95 Zn80 1.905 . S
O95 C96 1.182 . S
C96 O94 1.166 . S
C96 O95 1.182 . S
O97 Zn82 2.080 . S
O97 C100 1.305 . S
O98 Zn81 1.920 . S
O98 C100 1.234 . S
C99 O85 1.305 . S
C99 O86 1.234 . S
C100 O97 1.305 . S
C100 O98 1.234 . S
Zn101 O107 1.920 . S
Zn101 O113 1.898 . S
Zn101 O116 1.905 . S
Zn102 O110 1.905 . S
Zn102 O111 1.898 . S
Zn102 O119 1.920 . S
Zn103 O106 2.080 . S
Zn103 O109 2.114 . S
Zn103 O112 2.120 . S
Zn103 O114 2.120 . S
Zn103 O115 2.114 . S
Zn103 O118 2.080 . S
C104 O109 1.166 . S
C104 O110 1.182 . S
C105 O111 1.167 . S
C105 O112 1.299 . S
O106 Zn103 2.080 . S
O106 C120 1.305 . S
O107 Zn101 1.920 . S
O107 C120 1.234 . S
C108 O113 1.167 . S
C108 O114 1.299 . S
O109 Zn103 2.114 . S
O109 C104 1.166 . S
O110 Zn102 1.905 . S
O110 C104 1.182 . S
O111 Zn102 1.898 . S
O111 C105 1.167 . S
O112 Zn103 2.120 . S
O112 C105 1.299 . S
O113 Zn101 1.898 . S
O113 C108 1.167 . S
O114 Zn103 2.120 . S
O114 C108 1.299 . S
O115 Zn103 2.114 . S
O115 C117 1.166 . S
O116 Zn101 1.905 . S
O116 C117 1.182 . S
C117 O115 1.166 . S
C117 O116 1.182 . S
O118 Zn103 2.080 . S
O118 C121 1.305 . S
O119 Zn102 1.920 . S
O119 C121 1.234 . S
C120 O106 1.305 . S
C120 O107 1.234 . S
C121 O118 1.305 . S
C121 O119 1.234 . S
H122 C128 0.930 . S
H123 C132 0.930 . S
H124 C137 0.929 . S
H125 C135 0.929 . S
H126 C130 0.929 . S
H127 C136 0.929 . S
C128 H122 0.930 . S
C128 C129 1.367 . S
C128 C136 1.378 . S
C129 C128 1.367 . S
C129 C137 1.433 . S
C130 H126 0.929 . S
C130 C132 1.378 . S
C130 C134 1.350 . S
C131 C134 1.463 . S
C131 C136 1.350 . S
C131 N139 1.427 . S
C132 H123 0.930 . S
C132 C130 1.378 . S
C132 C133 1.367 . S
C133 C132 1.367 . S
C133 C135 1.433 . S
C134 C130 1.350 . S
C134 C131 1.463 . S
C134 N138 1.427 . S
C135 H125 0.929 . S
C135 C133 1.433 . S
C135 N138 1.384 . S
C136 H127 0.929 . S
C136 C128 1.378 . S
C136 C131 1.350 . S
C137 H124 0.929 . S
C137 C129 1.433 . S
C137 N139 1.384 . S
N138 C134 1.427 . S
N138 C135 1.384 . S
N139 C131 1.427 . S
N139 C137 1.384 . S
H140 C146 0.930 . S
H141 C150 0.930 . S
H142 C155 0.929 . S
H143 C153 0.929 . S
H144 C148 0.929 . S
H145 C154 0.929 . S
C146 H140 0.930 . S
C146 C147 1.367 . S
C146 C154 1.378 . S
C147 C146 1.367 . S
C147 C155 1.433 . S
C148 H144 0.929 . S
C148 C150 1.378 . S
C148 C152 1.350 . S
C149 C152 1.463 . S
C149 C154 1.350 . S
C149 N157 1.427 . S
C150 H141 0.930 . S
C150 C148 1.378 . S
C150 C151 1.367 . S
C151 C150 1.367 . S
C151 C153 1.433 . S
C152 C148 1.350 . S
C152 C149 1.463 . S
C152 N156 1.427 . S
C153 H143 0.929 . S
C153 C151 1.433 . S
C153 N156 1.384 . S
C154 H145 0.929 . S
C154 C146 1.378 . S
C154 C149 1.350 . S
C155 H142 0.929 . S
C155 C147 1.433 . S
C155 N157 1.384 . S
N156 C152 1.427 . S
N156 C153 1.384 . S
N157 C149 1.427 . S
N157 C155 1.384 . S
H158 C164 0.930 . S
H159 C168 0.930 . S
H160 C173 0.929 . S
H161 C171 0.929 . S
H162 C166 0.929 . S
H163 C172 0.929 . S
C164 H158 0.930 . S
C164 C165 1.367 . S
C164 C172 1.378 . S
C165 C164 1.367 . S
C165 C173 1.433 . S
C166 H162 0.929 . S
C166 C168 1.378 . S
C166 C170 1.350 . S
C167 C170 1.463 . S
C167 C172 1.350 . S
C167 N175 1.427 . S
C168 H159 0.930 . S
C168 C166 1.378 . S
C168 C169 1.367 . S
C169 C168 1.367 . S
C169 C171 1.433 . S
C170 C166 1.350 . S
C170 C167 1.463 . S
C170 N174 1.427 . S
C171 H161 0.929 . S
C171 C169 1.433 . S
C171 N174 1.384 . S
C172 H163 0.929 . S
C172 C164 1.378 . S
C172 C167 1.350 . S
C173 H160 0.929 . S
C173 C165 1.433 . S
C173 N175 1.384 . S
N174 C170 1.427 . S
N174 C171 1.384 . S
N175 C167 1.427 . S
N175 C173 1.384 . S
H176 C182 0.930 . S
H177 C186 0.930 . S
H178 C191 0.929 . S
H179 C189 0.929 . S
H180 C184 0.929 . S
H181 C190 0.929 . S
C182 H176 0.930 . S
C182 C183 1.367 . S
C182 C190 1.378 . S
C183 C182 1.367 . S
C183 C191 1.433 . S
C184 H180 0.929 . S
C184 C186 1.378 . S
C184 C188 1.350 . S
C185 C188 1.463 . S
C185 C190 1.350 . S
C185 N193 1.427 . S
C186 H177 0.930 . S
C186 C184 1.378 . S
C186 C187 1.367 . S
C187 C186 1.367 . S
C187 C189 1.433 . S
C188 C184 1.350 . S
C188 C185 1.463 . S
C188 N192 1.427 . S
C189 H179 0.929 . S
C189 C187 1.433 . S
C189 N192 1.384 . S
C190 H181 0.929 . S
C190 C182 1.378 . S
C190 C185 1.350 . S
C191 H178 0.929 . S
C191 C183 1.433 . S
C191 N193 1.384 . S
N192 C188 1.427 . S
N192 C189 1.384 . S
N193 C185 1.427 . S
N193 C191 1.384 . S
H194 C200 0.930 . S
H195 C204 0.930 . S
H196 C209 0.929 . S
H197 C207 0.929 . S
H198 C202 0.929 . S
H199 C208 0.929 . S
C200 H194 0.930 . S
C200 C201 1.367 . S
C200 C208 1.378 . S
C201 C200 1.367 . S
C201 C209 1.433 . S
C202 H198 0.929 . S
C202 C204 1.378 . S
C202 C206 1.350 . S
C203 C206 1.463 . S
C203 C208 1.350 . S
C203 N211 1.427 . S
C204 H195 0.930 . S
C204 C202 1.378 . S
C204 C205 1.367 . S
C205 C204 1.367 . S
C205 C207 1.433 . S
C206 C202 1.350 . S
C206 C203 1.463 . S
C206 N210 1.427 . S
C207 H197 0.929 . S
C207 C205 1.433 . S
C207 N210 1.384 . S
C208 H199 0.929 . S
C208 C200 1.378 . S
C208 C203 1.350 . S
C209 H196 0.929 . S
C209 C201 1.433 . S
C209 N211 1.384 . S
N210 C206 1.427 . S
N210 C207 1.384 . S
N211 C203 1.427 . S
N211 C209 1.384 . S
H212 C218 0.930 . S
H213 C222 0.930 . S
H214 C227 0.929 . S
H215 C225 0.929 . S
H216 C220 0.929 . S
H217 C226 0.929 . S
C218 H212 0.930 . S
C218 C219 1.367 . S
C218 C226 1.378 . S
C219 C218 1.367 . S
C219 C227 1.433 . S
C220 H216 0.929 . S
C220 C222 1.378 . S
C220 C224 1.350 . S
C221 C224 1.463 . S
C221 C226 1.350 . S
C221 N229 1.427 . S
C222 H213 0.930 . S
C222 C220 1.378 . S
C222 C223 1.367 . S
C223 C222 1.367 . S
C223 C225 1.433 . S
C224 C220 1.350 . S
C224 C221 1.463 . S
C224 N228 1.427 . S
C225 H215 0.929 . S
C225 C223 1.433 . S
C225 N228 1.384 . S
C226 H217 0.929 . S
C226 C218 1.378 . S
C226 C221 1.350 . S
C227 H214 0.929 . S
C227 C219 1.433 . S
C227 N229 1.384 . S
N228 C224 1.427 . S
N228 C225 1.384 . S
N229 C221 1.427 . S
N229 C227 1.384 . S
H230 C236 0.930 . S
H231 C240 0.930 . S
H232 C245 0.929 . S
H233 C243 0.929 . S
H234 C238 0.929 . S
H235 C244 0.929 . S
C236 H230 0.930 . S
C236 C237 1.367 . S
C236 C244 1.378 . S
C237 C236 1.367 . S
C237 C245 1.433 . S
C238 H234 0.929 . S
C238 C240 1.378 . S
C238 C242 1.350 . S
C239 C242 1.463 . S
C239 C244 1.350 . S
C239 N247 1.427 . S
C240 H231 0.930 . S
C240 C238 1.378 . S
C240 C241 1.367 . S
C241 C240 1.367 . S
C241 C243 1.433 . S
C242 C238 1.350 . S
C242 C239 1.463 . S
C242 N246 1.427 . S
C243 H233 0.929 . S
C243 C241 1.433 . S
C243 N246 1.384 . S
C244 H235 0.929 . S
C244 C236 1.378 . S
C244 C239 1.350 . S
C245 H232 0.929 . S
C245 C237 1.433 . S
C245 N247 1.384 . S
N246 C242 1.427 . S
N246 C243 1.384 . S
N247 C239 1.427 . S
N247 C245 1.384 . S
H248 C254 0.930 . S
H249 C258 0.930 . S
H250 C263 0.929 . S
H251 C261 0.929 . S
H252 C256 0.929 . S
H253 C262 0.929 . S
C254 H248 0.930 . S
C254 C255 1.367 . S
C254 C262 1.378 . S
C255 C254 1.367 . S
C255 C263 1.433 . S
C256 H252 0.929 . S
C256 C258 1.378 . S
C256 C260 1.350 . S
C257 C260 1.463 . S
C257 C262 1.350 . S
C257 N265 1.427 . S
C258 H249 0.930 . S
C258 C256 1.378 . S
C258 C259 1.367 . S
C259 C258 1.367 . S
C259 C261 1.433 . S
C260 C256 1.350 . S
C260 C257 1.463 . S
C260 N264 1.427 . S
C261 H251 0.929 . S
C261 C259 1.433 . S
C261 N264 1.384 . S
C262 H253 0.929 . S
C262 C254 1.378 . S
C262 C257 1.350 . S
C263 H250 0.929 . S
C263 C255 1.433 . S
C263 N265 1.384 . S
N264 C260 1.427 . S
N264 C261 1.384 . S
N265 C257 1.427 . S
N265 C263 1.384 . S
H266 C272 0.930 . S
H267 C276 0.930 . S
H268 C281 0.929 . S
H269 C279 0.929 . S
H270 C274 0.929 . S
H271 C280 0.929 . S
C272 H266 0.930 . S
C272 C273 1.367 . S
C272 C280 1.378 . S
C273 C272 1.367 . S
C273 C281 1.433 . S
C274 H270 0.929 . S
C274 C276 1.378 . S
C274 C278 1.350 . S
C275 C278 1.463 . S
C275 C280 1.350 . S
C275 N283 1.427 . S
C276 H267 0.930 . S
C276 C274 1.378 . S
C276 C277 1.367 . S
C277 C276 1.367 . S
C277 C279 1.433 . S
C278 C274 1.350 . S
C278 C275 1.463 . S
C278 N282 1.427 . S
C279 H269 0.929 . S
C279 C277 1.433 . S
C279 N282 1.384 . S
C280 H271 0.929 . S
C280 C272 1.378 . S
C280 C275 1.350 . S
C281 H268 0.929 . S
C281 C273 1.433 . S
C281 N283 1.384 . S
N282 C278 1.427 . S
N282 C279 1.384 . S
N283 C275 1.427 . S
N283 C281 1.384 . S
H284 C290 0.930 . S
H285 C294 0.930 . S
H286 C299 0.929 . S
H287 C297 0.929 . S
H288 C292 0.929 . S
H289 C298 0.929 . S
C290 H284 0.930 . S
C290 C291 1.367 . S
C290 C298 1.378 . S
C291 C290 1.367 . S
C291 C299 1.433 . S
C292 H288 0.929 . S
C292 C294 1.378 . S
C292 C296 1.350 . S
C293 C296 1.463 . S
C293 C298 1.350 . S
C293 N301 1.427 . S
C294 H285 0.930 . S
C294 C292 1.378 . S
C294 C295 1.367 . S
C295 C294 1.367 . S
C295 C297 1.433 . S
C296 C292 1.350 . S
C296 C293 1.463 . S
C296 N300 1.427 . S
C297 H287 0.929 . S
C297 C295 1.433 . S
C297 N300 1.384 . S
C298 H289 0.929 . S
C298 C290 1.378 . S
C298 C293 1.350 . S
C299 H286 0.929 . S
C299 C291 1.433 . S
C299 N301 1.384 . S
N300 C296 1.427 . S
N300 C297 1.384 . S
N301 C293 1.427 . S
N301 C299 1.384 . S
H302 C308 0.930 . S
H303 C312 0.930 . S
H304 C317 0.929 . S
H305 C315 0.929 . S
H306 C310 0.929 . S
H307 C316 0.929 . S
C308 H302 0.930 . S
C308 C309 1.367 . S
C308 C316 1.378 . S
C309 C308 1.367 . S
C309 C317 1.433 . S
C310 H306 0.929 . S
C310 C312 1.378 . S
C310 C314 1.350 . S
C311 C314 1.463 . S
C311 C316 1.350 . S
C311 N319 1.427 . S
C312 H303 0.930 . S
C312 C310 1.378 . S
C312 C313 1.367 . S
C313 C312 1.367 . S
C313 C315 1.433 . S
C314 C310 1.350 . S
C314 C311 1.463 . S
C314 N318 1.427 . S
C315 H305 0.929 . S
C315 C313 1.433 . S
C315 N318 1.384 . S
C316 H307 0.929 . S
C316 C308 1.378 . S
C316 C311 1.350 . S
C317 H304 0.929 . S
C317 C309 1.433 . S
C317 N319 1.384 . S
N318 C314 1.427 . S
N318 C315 1.384 . S
N319 C311 1.427 . S
N319 C317 1.384 . S
H320 C326 0.930 1_455 S
H321 C330 0.930 . S
H322 C335 0.929 . S
H323 C333 0.929 . S
H324 C328 0.929 . S
H325 C334 0.929 . S
C326 H320 0.930 1_655 S
C326 C327 1.367 . S
C326 C334 1.378 . S
C327 C326 1.367 . S
C327 C335 1.433 . S
C328 H324 0.929 . S
C328 C330 1.378 . S
C328 C332 1.350 . S
C329 C332 1.463 . S
C329 C334 1.350 . S
C329 N337 1.427 . S
C330 H321 0.930 . S
C330 C328 1.378 . S
C330 C331 1.367 . S
C331 C330 1.367 . S
C331 C333 1.433 . S
C332 C328 1.350 . S
C332 C329 1.463 . S
C332 N336 1.427 . S
C333 H323 0.929 . S
C333 C331 1.433 . S
C333 N336 1.384 . S
C334 H325 0.929 . S
C334 C326 1.378 . S
C334 C329 1.350 . S
C335 H322 0.929 . S
C335 C327 1.433 . S
C335 N337 1.384 . S
N336 C332 1.427 . S
N336 C333 1.384 . S
N337 C329 1.427 . S
N337 C335 1.384 . S
C129 C15 1.302 . S
C133 C99 1.216 . S
C147 C46 0.984 . S
C151 C105 0.914 . S
C165 C10 1.341 . S
C169 C96 1.267 . S
C183 C59 2.110 . S
C187 C121 1.985 . S
C201 C18 2.052 . S
C205 C87 1.964 . S
C223 C104 1.839 . S
C219 C58 1.915 . S
C237 C50 1.866 . S
C241 C100 1.771 . S
C259 C117 2.125 . S
C255 C9 2.194 . S
C277 C84 2.069 . S
C273 C49 2.251 . S
C295 C120 1.295 . S
C291 C6 1.428 . S
C313 C83 0.950 . S
C309 C55 1.015 . S
C331 C108 1.015 . S
C327 C19 1.111 . S
