# Generated by pormake.
# Topology nia, (6,6)-cn, num edge types: 1
# Building blocks:
#     Node 0, Type 0, BuildingBlock: BETFEN_clean_sbu_0, # of connection points: 6
#     Node 1, Type 0, BuildingBlock: BETFEN_clean_sbu_0, # of connection points: 6
#     Node 2, Type 1, BuildingBlock: MIDCAF_clean_sbu_0, # of connection points: 6
#     Node 3, Type 1, BuildingBlock: MIDCAF_clean_sbu_0, # of connection points: 6
#     Edge 4, Type (0, 1), BuildingBlock: XIVTED_clean_linker_0, # of connection points: 2
#     Edge 5, Type (0, 1), BuildingBlock: XIVTED_clean_linker_0, # of connection points: 2
#     Edge 6, Type (0, 1), BuildingBlock: XIVTED_clean_linker_0, # of connection points: 2
#     Edge 7, Type (0, 1), BuildingBlock: XIVTED_clean_linker_0, # of connection points: 2
#     Edge 8, Type (0, 1), BuildingBlock: XIVTED_clean_linker_0, # of connection points: 2
#     Edge 9, Type (0, 1), BuildingBlock: XIVTED_clean_linker_0, # of connection points: 2
#     Edge 10, Type (0, 1), BuildingBlock: XIVTED_clean_linker_0, # of connection points: 2
#     Edge 11, Type (0, 1), BuildingBlock: XIVTED_clean_linker_0, # of connection points: 2
#     Edge 12, Type (0, 1), BuildingBlock: XIVTED_clean_linker_0, # of connection points: 2
#     Edge 13, Type (0, 1), BuildingBlock: XIVTED_clean_linker_0, # of connection points: 2
#     Edge 14, Type (0, 1), BuildingBlock: XIVTED_clean_linker_0, # of connection points: 2
#     Edge 15, Type (0, 1), BuildingBlock: XIVTED_clean_linker_0, # of connection points: 2
# Relax obj value: 0.219
# Max RMSD: 0.279
# Mean RMSD: 0.217
data_MOF--net-nia--node1-BETFEN_clean_sbu_0--node2-MIDCAF_clean_sbu_0--edge1-XIVTED_clean_linker_0
_symmetry_space_group_name_H-M    P1
_symmetry_Int_Tables_number       1
_symmetry_cell_setting            triclinic
loop_
_symmetry_equiv_pos_as_xyz
'x, y, z'
_cell_length_a     28.963133
_cell_length_b     28.92558
_cell_length_c     33.574163
_cell_angle_alpha  89.598841
_cell_angle_beta   90.504317
_cell_angle_gamma 136.88715
loop_
_atom_site_label
_atom_site_type_symbol
_atom_site_fract_x
_atom_site_fract_y
_atom_site_fract_z
_atom_type_partial_charge
Pr0 Pr 0.96894 0.03003 0.99305 0.0
Pr1 Pr 0.03705 0.98731 0.03132 0.0
C2 C 0.8856 0.04024 0.97694 0.0
C3 C 0.88125 0.08143 0.95517 0.0
C4 C 0.87844 0.08113 0.91331 0.0
C5 C 0.86968 0.11698 0.89349 0.0
C6 C 0.86393 0.15394 0.91515 0.0
C7 C 0.86762 0.15483 0.95694 0.0
C8 C 0.87588 0.11868 0.97673 0.0
C9 C 0.09868 0.109 0.9606 0.0
C10 C 0.05981 0.10055 0.07741 0.0
C11 C 0.0974 0.94989 0.04619 0.0
C12 C 0.10805 0.92089 0.07607 0.0
C13 C 0.13367 0.94859 0.11437 0.0
C14 C 0.1456 0.92076 0.14113 0.0
C15 C 0.13126 0.86451 0.13005 0.0
C16 C 0.10475 0.83656 0.09193 0.0
C17 C 0.09356 0.86466 0.0652 0.0
C18 C 0.91456 0.92641 0.06488 0.0
C19 C 0.95638 0.92533 0.94385 0.0
O20 O 0.92463 0.06724 1.0086 0.0
O21 O 0.88669 0.00301 0.95599 0.0
O22 O 0.06832 0.06532 0.98757 0.0
O23 O 0.06112 0.11635 0.94956 0.0
O24 O 0.0903 0.08353 0.06862 0.0
O25 O 0.00698 0.07758 0.05702 0.0
O26 O 0.03633 0.9089 0.03128 0.0
O27 O 0.12817 0.01219 0.05104 0.0
O28 O 0.92922 0.9384 0.0284 0.0
O29 O 0.96189 0.94033 0.08524 0.0
O30 O 0.92398 0.93988 0.95303 0.0
O31 O 0.00768 0.9471 0.96541 0.0
H32 H 0.88212 0.05261 0.89583 0.0
H33 H 0.86735 0.11576 0.86125 0.0
H34 H 0.8622 0.18196 0.97444 0.0
H35 H 0.87692 0.11895 1.00901 0.0
H36 H 0.1451 0.99194 0.12347 0.0
H37 H 0.16616 0.9432 0.17035 0.0
H38 H 0.09455 0.79411 0.0823 0.0
H39 H 0.07433 0.8429 0.0357 0.0
Pr40 Pr -0.00408 0.05228 0.53333 0.0
Pr41 Pr 0.00689 0.9695 0.48812 0.0
C42 C -0.00929 0.13632 0.56048 0.0
C43 C 0.95128 0.14183 0.5834 0.0
C44 C 0.97037 0.16626 0.62274 0.0
C45 C 0.93835 0.17833 0.64356 0.0
C46 C 0.88655 0.16659 0.6255 0.0
C47 C 0.86665 0.14102 0.58635 0.0
C48 C 0.89875 0.12898 0.56551 0.0
C49 C 0.92427 0.92688 0.56876 0.0
C50 C 0.88867 0.95159 0.46095 0.0
C51 C 0.01526 0.88795 0.46095 0.0
C52 C 0.0574 0.88298 0.4416 0.0
C53 C 0.06852 0.89148 0.40019 0.0
C54 C 0.09969 0.87663 0.38163 0.0
C55 C 0.1197 0.85231 0.40404 0.0
C56 C 0.1111 0.84663 0.4456 0.0
C57 C 0.08021 0.86161 0.46411 0.0
C58 C 0.07691 0.09422 0.45242 0.0
C59 C 0.10984 0.0658 0.56311 0.0
O60 O 0.96968 0.10907 0.52496 0.0
O61 O 0.01831 0.12229 0.58026 0.0
O62 O 0.92715 0.93697 0.53191 0.0
O63 O 0.95299 0.98057 0.58881 0.0
O64 O 0.90062 0.9163 0.46816 0.0
O65 O 0.92542 0.01104 0.47774 0.0
O66 O 0.02884 0.90916 0.49779 0.0
O67 O -0.00643 0.90687 0.43939 0.0
O68 O 0.07619 0.08515 0.4893 0.0
O69 O 0.04548 0.03956 0.43264 0.0
O70 O 0.10056 0.10302 0.55476 0.0
O71 O 0.07378 0.00736 0.54519 0.0
H72 H 0.01121 0.17746 0.63725 0.0
H73 H 0.95451 0.1973 0.67376 0.0
H74 H 0.82766 0.13233 0.57125 0.0
H75 H 0.88339 0.11112 0.53507 0.0
H76 H 0.05105 0.9073 0.38185 0.0
H77 H 0.10525 0.88118 0.34956 0.0
H78 H 0.12691 0.82903 0.46381 0.0
H79 H 0.07202 0.85411 0.49597 0.0
Zn80 Zn 0.33331 0.6257 0.18095 0.0
Zn81 Zn 0.38281 0.67336 0.35944 0.0
Zn82 Zn 0.36799 0.64791 0.25658 0.0
C83 C 0.49507 0.74292 0.29363 0.0
C84 C 0.31328 0.53845 0.33031 0.0
O85 O 0.31734 0.67671 0.24268 0.0
O86 O 0.29872 0.66462 0.1776 0.0
C87 C 0.47199 0.70936 0.18017 0.0
O88 O 0.47597 0.72239 0.25793 0.0
O89 O 0.45074 0.71544 0.31949 0.0
O90 O 0.33203 0.5776 0.35898 0.0
O91 O 0.32255 0.55677 0.29329 0.0
O92 O 0.42239 0.67694 0.15654 0.0
O93 O 0.46232 0.70655 0.21815 0.0
O94 O 0.30483 0.54064 0.25052 0.0
O95 O 0.26892 0.52642 0.18868 0.0
C96 C 0.26857 0.50238 0.22041 0.0
O97 O 0.32967 0.68662 0.28432 0.0
O98 O 0.33161 0.69317 0.35107 0.0
C99 C 0.29569 0.68169 0.21109 0.0
C100 C 0.3175 0.6997 0.31715 0.0
Zn101 Zn 0.66192 0.39977 0.84026 0.0
Zn102 Zn 0.62425 0.34915 0.68749 0.0
Zn103 Zn 0.64081 0.37713 0.7633 0.0
C104 C 0.70319 0.48637 0.69146 0.0
C105 C 0.49711 0.27174 0.72133 0.0
O106 O 0.68802 0.34722 0.78711 0.0
O107 O 0.71128 0.37805 0.85053 0.0
C108 C 0.73015 0.52225 0.80204 0.0
O109 O 0.69556 0.47269 0.72909 0.0
O110 O 0.67705 0.44041 0.66622 0.0
O111 O 0.52519 0.28116 0.68915 0.0
O112 O 0.53219 0.30483 0.75296 0.0
O113 O 0.71564 0.49622 0.83616 0.0
O114 O 0.7078 0.48616 0.77037 0.0
O115 O 0.54131 0.31914 0.79401 0.0
O116 O 0.56704 0.33505 0.8582 0.0
C117 C 0.52346 0.30833 0.83096 0.0
O118 O 0.67851 0.3334 0.74626 0.0
O119 O 0.66062 0.31348 0.68141 0.0
C120 C 0.71301 0.35266 0.82102 0.0
C121 C 0.68194 0.3122 0.71378 0.0
H122 H 0.05165 0.73227 0.14883 0.0
H123 H 0.17296 0.62071 0.23753 0.0
H124 H 0.24937 0.93439 0.1702 0.0
H125 H 0.36085 0.80726 0.18901 0.0
H126 H 0.1263 0.66522 0.23146 0.0
H127 H 0.08761 0.68682 0.18125 0.0
C128 C 0.10216 0.76703 0.16131 0.0
C129 C 0.14783 0.83711 0.1566 0.0
C130 C 0.17777 0.69646 0.22228 0.0
C131 C 0.18933 0.78566 0.19399 0.0
C132 C 0.20434 0.6713 0.22599 0.0
C133 C 0.27015 0.71039 0.21317 0.0
C134 C 0.21756 0.76082 0.20541 0.0
C135 C 0.30952 0.77568 0.19874 0.0
C136 C 0.1225 0.7411 0.18019 0.0
C137 C 0.21261 0.88004 0.17332 0.0
N138 N 0.28248 0.79885 0.19503 0.0
N139 N 0.23198 0.85358 0.19048 0.0
H140 H 0.1398 0.00071 0.59027 0.0
H141 H 0.43171 0.30494 0.73202 0.0
H142 H 0.18523 0.17802 0.61021 0.0
H143 H 0.40066 0.13903 0.70303 0.0
H144 H 0.32092 0.24238 0.70351 0.0
H145 H 0.21742 0.03662 0.64415 0.0
C146 C 0.16615 0.04724 0.60593 0.0
C147 C 0.15716 0.08721 0.59518 0.0
C148 C 0.33723 0.21857 0.70456 0.0
C149 C 0.24523 0.12803 0.65721 0.0
C150 C 0.39981 0.25376 0.72159 0.0
C151 C 0.4244 0.22649 0.72001 0.0
C152 C 0.30034 0.15664 0.68533 0.0
C153 C 0.38276 0.16126 0.70476 0.0
C154 C 0.20999 0.06739 0.63693 0.0
C155 C 0.19161 0.1463 0.617 0.0
N156 N 0.32311 0.12892 0.68724 0.0
N157 N 0.23462 0.16525 0.64676 0.0
H158 H -0.0095 0.11649 0.11675 0.0
H159 H 0.31578 0.449 0.23068 0.0
H160 H 0.18362 0.18834 0.11557 0.0
H161 H 0.13533 0.39545 0.20558 0.0
H162 H 0.25842 0.33693 0.20678 0.0
H163 H 0.03377 0.20113 0.1666 0.0
C164 C 0.04206 0.14991 0.12715 0.0
C165 C 0.08409 0.14644 0.11121 0.0
C166 C 0.23083 0.34906 0.20763 0.0
C167 C 0.13412 0.24401 0.16848 0.0
C168 C 0.26322 0.41252 0.22164 0.0
C169 C 0.22993 0.43092 0.21981 0.0
C170 C 0.16494 0.30433 0.19202 0.0
C171 C 0.16246 0.3828 0.20731 0.0
C172 C 0.06664 0.19811 0.15581 0.0
C173 C 0.14982 0.18994 0.12667 0.0
N174 N 0.13241 0.32199 0.19347 0.0
N175 N 0.17331 0.23785 0.15403 0.0
H176 H 0.94807 0.27631 0.67334 0.0
H177 H 0.6153 0.1881 0.68835 0.0
H178 H 0.75308 0.09495 0.62616 0.0
H179 H 0.80795 0.37224 0.73515 0.0
H180 H 0.66266 0.14676 0.67418 0.0
H181 H 0.89624 0.3062 0.704 0.0
C182 C 0.89422 0.24227 0.66981 0.0
C183 C 0.85505 0.1832 0.64672 0.0
C184 C 0.69464 0.19583 0.68807 0.0
C185 C 0.79554 0.21767 0.68153 0.0
C186 C 0.66744 0.21922 0.69634 0.0
C187 C 0.7078 0.28336 0.71306 0.0
C188 C 0.76334 0.2375 0.69577 0.0
C189 C 0.7752 0.3222 0.72251 0.0
C190 C 0.86475 0.25962 0.68721 0.0
C191 C 0.78564 0.1416 0.64295 0.0
N192 N 0.80121 0.29896 0.7133 0.0
N193 N 0.75834 0.15982 0.65991 0.0
H194 H 0.88137 0.9081 0.14361 0.0
H195 H 0.50444 0.72023 0.10178 0.0
H196 H 0.8045 0.88266 0.02598 0.0
H197 H 0.59476 0.78692 0.21886 0.0
H198 H 0.61264 0.77645 0.0739 0.0
H199 H 0.77607 0.86045 0.1721 0.0
C200 C 0.84229 0.89248 0.12377 0.0
C201 C 0.85153 0.89894 0.08234 0.0
C202 C 0.60899 0.77893 0.10574 0.0
C203 C 0.73064 0.84412 0.11477 0.0
C204 C 0.54697 0.74671 0.12184 0.0
C205 C 0.53969 0.74764 0.16317 0.0
C206 C 0.66473 0.81226 0.13097 0.0
C207 C 0.59728 0.78342 0.18719 0.0
C208 C 0.78226 0.86548 0.14007 0.0
C209 C 0.79937 0.87828 0.05807 0.0
N210 N 0.65711 0.81376 0.17086 0.0
N211 N 0.74109 0.85144 0.07461 0.0
H212 H 0.88002 0.81626 0.53171 0.0
H213 H 0.72191 0.58472 0.72679 0.0
H214 H 0.89549 0.89086 0.64732 0.0
H215 H 0.76678 0.54179 0.62019 0.0
H216 H 0.77896 0.69435 0.69838 0.0
H217 H 0.82943 0.71085 0.5629 0.0
C218 C 0.87238 0.81023 0.56364 0.0
C219 C 0.89169 0.86213 0.58698 0.0
C220 C 0.77704 0.66124 0.68146 0.0
C221 C 0.83386 0.74176 0.62293 0.0
C222 C 0.7455 0.59922 0.69802 0.0
C223 C 0.74113 0.55483 0.67643 0.0
C224 C 0.80314 0.67822 0.64262 0.0
C225 C 0.76912 0.57448 0.63806 0.0
C226 C 0.84387 0.75025 0.58149 0.0
C227 C 0.88117 0.85194 0.62827 0.0
N228 N 0.79854 0.63437 0.62236 0.0
N229 N 0.85265 0.7928 0.64495 0.0
H230 H 0.21239 0.91234 0.34307 0.0
H231 H 0.19279 0.62134 0.34573 0.0
H232 H 0.08348 0.73661 0.41934 0.0
H233 H 0.35792 0.81519 0.29107 0.0
H234 H 0.13849 0.65526 0.36034 0.0
H235 H 0.25426 0.87112 0.31286 0.0
C236 C 0.1927 0.86505 0.35332 0.0
C237 C 0.14509 0.82838 0.38424 0.0
C238 C 0.18607 0.69024 0.34457 0.0
C239 C 0.19216 0.7809 0.34968 0.0
C240 C 0.21667 0.67059 0.33594 0.0
C241 C 0.27934 0.71539 0.31693 0.0
C242 C 0.2189 0.75579 0.33475 0.0
C243 C 0.30906 0.77909 0.30539 0.0
C244 C 0.21671 0.84172 0.33615 0.0
C245 C 0.12122 0.76738 0.39627 0.0
N246 N 0.27881 0.79783 0.31483 0.0
N247 N 0.14503 0.74578 0.37907 0.0
H248 H 0.16141 0.19371 0.8959 0.0
H249 H 0.45207 0.21333 0.88905 0.0
H250 H 0.17333 0.08599 0.97644 0.0
H251 H 0.43789 0.31384 0.80324 0.0
H252 H 0.34595 0.16109 0.91858 0.0
H253 H 0.25938 0.23514 0.85978 0.0
C254 C 0.18485 0.17902 0.90608 0.0
C255 C 0.1595 0.13673 0.93941 0.0
C256 C 0.36517 0.19363 0.89288 0.0
C257 C 0.27128 0.18343 0.89802 0.0
C258 C 0.4256 0.22313 0.87584 0.0
C259 C 0.45315 0.26699 0.84317 0.0
C260 C 0.33221 0.20897 0.8777 0.0
C261 C 0.41731 0.27875 0.82761 0.0
C262 C 0.24056 0.20241 0.88532 0.0
C263 C 0.19148 0.11887 0.9511 0.0
N264 N 0.35902 0.25048 0.84526 0.0
N265 N 0.24561 0.14236 0.93053 0.0
H266 H 0.16788 0.22002 0.48641 0.0
H267 H 0.20144 0.41273 0.29875 0.0
H268 H 0.06733 0.11666 0.37525 0.0
H269 H 0.35293 0.51211 0.39093 0.0
H270 H 0.14493 0.30263 0.3265 0.0
H271 H 0.22794 0.3276 0.45358 0.0
C272 C 0.1585 0.22006 0.45511 0.0
C273 C 0.11306 0.1596 0.43342 0.0
C274 C 0.19119 0.34869 0.34016 0.0
C275 C 0.18094 0.2821 0.39572 0.0
C276 C 0.22399 0.41134 0.32385 0.0
C277 C 0.28265 0.47142 0.34194 0.0
C278 C 0.21665 0.34666 0.37527 0.0
C279 C 0.30779 0.46689 0.37596 0.0
C280 C 0.1929 0.28137 0.43632 0.0
C281 C 0.10245 0.16236 0.39293 0.0
N282 N 0.27442 0.40581 0.39169 0.0
N283 N 0.13588 0.22259 0.37538 0.0
H284 H 0.92428 0.28113 0.92967 0.0
H285 H 0.66653 0.23584 0.79321 0.0
H286 H 0.7751 0.10748 0.85421 0.0
H287 H 0.82553 0.41345 0.86328 0.0
H288 H 0.71203 0.19224 0.80925 0.0
H289 H 0.89513 0.33467 0.90046 0.0
C290 C 0.88559 0.25447 0.90676 0.0
C291 C 0.85156 0.18957 0.89462 0.0
C292 C 0.73754 0.24119 0.82065 0.0
C293 C 0.81771 0.25037 0.861 0.0
C294 C 0.71195 0.26625 0.81117 0.0
C295 C 0.74307 0.32859 0.82651 0.0
C296 C 0.79383 0.27844 0.84619 0.0
C297 C 0.8003 0.36516 0.85081 0.0
C298 C 0.86911 0.28511 0.88994 0.0
C299 C 0.80265 0.1577 0.86433 0.0
N300 N 0.82363 0.33938 0.86008 0.0
N301 N 0.7866 0.18812 0.84884 0.0
H302 H 0.82241 0.8474 0.40844 0.0
H303 H 0.55792 0.84567 0.34403 0.0
H304 H 0.83309 -0.00366 0.44922 0.0
H305 H 0.58308 0.73703 0.27952 0.0
H306 H 0.65916 0.90201 0.38278 0.0
H307 H 0.73391 0.80531 0.36128 0.0
C308 C 0.80599 0.87111 0.40753 0.0
C309 C 0.83469 0.92512 0.43289 0.0
C310 C 0.64411 0.86773 0.35922 0.0
C311 C 0.73416 0.87763 0.37899 0.0
C312 C 0.58689 0.83621 0.33688 0.0
C313 C 0.56443 0.78922 0.30751 0.0
C314 C 0.6783 0.85107 0.35255 0.0
C315 C 0.60109 0.77561 0.30057 0.0
C316 C 0.75597 0.84746 0.38039 0.0
C317 C 0.81217 0.9545 0.43022 0.0
N318 N 0.65628 0.80615 0.32327 0.0
N319 N 0.76279 0.93001 0.40388 0.0
H320 H 0.84773 0.86341 0.89518 0.0
H321 H 0.86661 0.62747 0.79881 0.0
H322 H 0.01207 0.88723 0.91315 0.0
H323 H 0.68615 0.57813 0.80562 0.0
H324 H 0.93334 0.74307 0.82054 0.0
H325 H 0.80174 0.77944 0.84373 0.0
C326 C 0.87464 0.85163 0.88804 0.0
C327 C 0.93292 0.88112 0.90928 0.0
C328 C 0.87943 0.70763 0.81601 0.0
C329 C 0.88056 0.78525 0.85028 0.0
C330 C 0.84164 0.64211 0.80323 0.0
C331 C 0.77132 0.59416 0.80028 0.0
C332 C 0.84607 0.72432 0.82633 0.0
C333 C 0.74057 0.61436 0.80731 0.0
C334 C 0.8484 0.80381 0.85855 0.0
C335 C 0.96619 0.8647 0.89817 0.0
N336 N 0.77807 0.67783 0.82056 0.0
N337 N 0.93899 0.8171 0.86981 0.0
loop_
_geom_bond_atom_site_label_1
_geom_bond_atom_site_label_2
_geom_bond_distance
_geom_bond_site_symmetry_2
_ccdc_geom_bond_type
Pr0 C2 2.880 . S
Pr0 O20 2.562 . S
Pr0 O21 2.490 . S
Pr0 O22 2.695 1_655 S
Pr0 O23 2.512 1_655 S
Pr0 O25 2.426 1_656 S
Pr0 O28 2.436 1_546 S
Pr0 O30 2.438 1_545 S
Pr1 C11 2.880 . S
Pr1 O22 2.436 1_564 S
Pr1 O24 2.438 1_565 S
Pr1 O26 2.562 . S
Pr1 O27 2.490 . S
Pr1 O28 2.695 1_455 S
Pr1 O29 2.512 1_455 S
Pr1 O31 2.437 1_455 S
C2 Pr0 2.880 . S
C2 C3 1.491 . S
C2 O20 1.254 . S
C2 O21 1.225 . S
C3 C2 1.491 . S
C3 C4 1.392 . S
C3 C8 1.356 . S
C4 C3 1.392 . S
C4 C5 1.368 . S
C4 H32 0.929 . S
C5 C4 1.368 . S
C5 C6 1.386 . S
C5 H33 0.929 . S
C6 C5 1.386 . S
C6 C7 1.373 . S
C7 C6 1.373 . S
C7 C8 1.409 . S
C7 H34 0.931 . S
C8 C3 1.356 . S
C8 C7 1.409 . S
C8 H35 0.930 . S
C9 O22 1.270 . S
C9 O23 1.248 . S
C10 O24 1.267 . S
C10 O25 1.297 . S
C11 Pr1 2.880 . S
C11 C12 1.491 . S
C11 O26 1.254 . S
C11 O27 1.225 . S
C12 C11 1.491 . S
C12 C13 1.392 . S
C12 C17 1.356 . S
C13 C12 1.392 . S
C13 C14 1.368 . S
C13 H36 0.929 . S
C14 C13 1.368 . S
C14 C15 1.386 . S
C14 H37 0.929 . S
C15 C14 1.386 . S
C15 C16 1.373 . S
C16 C15 1.373 . S
C16 C17 1.409 . S
C16 H38 0.931 . S
C17 C12 1.356 . S
C17 C16 1.409 . S
C17 H39 0.930 . S
C18 O28 1.270 . S
C18 O29 1.248 . S
C19 O30 1.267 . S
C19 O31 1.278 1_556 S
O20 Pr0 2.562 . S
O20 C2 1.254 . S
O21 Pr0 2.490 . S
O21 C2 1.225 . S
O22 Pr0 2.695 1_455 S
O22 Pr1 2.436 1_546 S
O22 C9 1.270 . S
O23 Pr0 2.512 1_455 S
O23 C9 1.248 . S
O24 Pr1 2.438 1_545 S
O24 C10 1.267 . S
O25 Pr0 2.426 1_454 S
O25 C10 1.297 . S
O26 Pr1 2.562 . S
O26 C11 1.254 . S
O27 Pr1 2.490 . S
O27 C11 1.225 . S
O28 Pr0 2.436 1_564 S
O28 Pr1 2.695 1_655 S
O28 C18 1.270 . S
O29 Pr1 2.512 1_655 S
O29 C18 1.248 . S
O30 Pr0 2.438 1_565 S
O30 C19 1.267 . S
O31 Pr1 2.437 1_655 S
O31 C19 1.278 1_554 S
H32 C4 0.929 . S
H33 C5 0.929 . S
H34 C7 0.931 . S
H35 C8 0.930 . S
H36 C13 0.929 . S
H37 C14 0.929 . S
H38 C16 0.931 . S
H39 C17 0.930 . S
Pr40 C42 2.880 1_455 S
Pr40 O60 2.562 1_455 S
Pr40 O61 2.490 1_455 S
Pr40 O62 2.695 1_445 S
Pr40 O63 2.512 1_445 S
Pr40 O65 2.437 1_445 S
Pr40 O68 2.436 . S
Pr40 O70 2.438 . S
Pr41 C51 2.880 . S
Pr41 O62 2.436 1_455 S
Pr41 O64 2.438 1_455 S
Pr41 O66 2.562 . S
Pr41 O67 2.490 . S
Pr41 O68 2.695 1_565 S
Pr41 O69 2.512 1_565 S
Pr41 O71 2.437 1_565 S
C42 Pr40 2.880 1_655 S
C42 C43 1.491 . S
C42 O60 1.254 . S
C42 O61 1.225 . S
C43 C42 1.491 . S
C43 C44 1.392 . S
C43 C48 1.356 . S
C44 C43 1.392 . S
C44 C45 1.368 . S
C44 H72 0.929 . S
C45 C44 1.368 . S
C45 C46 1.386 . S
C45 H73 0.929 . S
C46 C45 1.386 . S
C46 C47 1.373 . S
C47 C46 1.373 . S
C47 C48 1.409 . S
C47 H74 0.931 . S
C48 C43 1.356 . S
C48 C47 1.409 . S
C48 H75 0.930 . S
C49 O62 1.270 . S
C49 O63 1.248 . S
C50 O64 1.267 . S
C50 O65 1.278 . S
C51 Pr41 2.880 . S
C51 C52 1.491 . S
C51 O66 1.254 . S
C51 O67 1.225 . S
C52 C51 1.491 . S
C52 C53 1.392 . S
C52 C57 1.356 . S
C53 C52 1.392 . S
C53 C54 1.368 . S
C53 H76 0.929 1_565 S
C54 C53 1.368 . S
C54 C55 1.386 . S
C54 H77 0.929 . S
C55 C54 1.386 . S
C55 C56 1.373 . S
C56 C55 1.373 . S
C56 C57 1.409 . S
C56 H78 0.931 . S
C57 C52 1.356 . S
C57 C56 1.409 . S
C57 H79 0.930 . S
C58 O68 1.270 . S
C58 O69 1.248 . S
C59 O70 1.267 . S
C59 O71 1.278 . S
O60 Pr40 2.562 1_655 S
O60 C42 1.254 . S
O61 Pr40 2.490 1_655 S
O61 C42 1.225 . S
O62 Pr40 2.695 1_665 S
O62 Pr41 2.436 1_655 S
O62 C49 1.270 . S
O63 Pr40 2.512 1_665 S
O63 C49 1.248 . S
O64 Pr41 2.438 1_655 S
O64 C50 1.267 . S
O65 Pr40 2.437 1_665 S
O65 C50 1.278 . S
O66 Pr41 2.562 . S
O66 C51 1.254 . S
O67 Pr41 2.490 . S
O67 C51 1.225 . S
O68 Pr40 2.436 . S
O68 Pr41 2.695 1_545 S
O68 C58 1.270 . S
O69 Pr41 2.512 1_545 S
O69 C58 1.248 . S
O70 Pr40 2.438 . S
O70 C59 1.267 . S
O71 Pr41 2.437 1_545 S
O71 C59 1.278 . S
H72 C44 0.929 . S
H73 C45 0.929 . S
H74 C47 0.931 . S
H75 C48 0.930 . S
H76 C53 0.929 1_545 S
H77 C54 0.929 . S
H78 C56 0.931 . S
H79 C57 0.930 . S
Zn80 O86 1.920 . S
Zn80 O92 1.898 . S
Zn80 O95 1.905 . S
Zn81 O89 1.905 . S
Zn81 O90 1.898 . S
Zn81 O98 1.920 . S
Zn82 O85 2.080 . S
Zn82 O88 2.114 . S
Zn82 O91 2.120 . S
Zn82 O93 2.120 . S
Zn82 O94 2.114 . S
Zn82 O97 2.080 . S
C83 O88 1.166 . S
C83 O89 1.182 . S
C84 O90 1.167 . S
C84 O91 1.299 . S
O85 Zn82 2.080 . S
O85 C99 1.305 . S
O86 Zn80 1.920 . S
O86 C99 1.234 . S
C87 O92 1.167 . S
C87 O93 1.299 . S
O88 Zn82 2.114 . S
O88 C83 1.166 . S
O89 Zn81 1.905 . S
O89 C83 1.182 . S
O90 Zn81 1.898 . S
O90 C84 1.167 . S
O91 Zn82 2.120 . S
O91 C84 1.299 . S
O92 Zn80 1.898 . S
O92 C87 1.167 . S
O93 Zn82 2.120 . S
O93 C87 1.299 . S
O94 Zn82 2.114 . S
O94 C96 1.166 . S
O95 Zn80 1.905 . S
O95 C96 1.182 . S
C96 O94 1.166 . S
C96 O95 1.182 . S
O97 Zn82 2.080 . S
O97 C100 1.305 . S
O98 Zn81 1.920 . S
O98 C100 1.234 . S
C99 O85 1.305 . S
C99 O86 1.234 . S
C100 O97 1.305 . S
C100 O98 1.234 . S
Zn101 O107 1.920 . S
Zn101 O113 1.898 . S
Zn101 O116 1.905 . S
Zn102 O110 1.905 . S
Zn102 O111 1.898 . S
Zn102 O119 1.920 . S
Zn103 O106 2.080 . S
Zn103 O109 2.114 . S
Zn103 O112 2.120 . S
Zn103 O114 2.120 . S
Zn103 O115 2.114 . S
Zn103 O118 2.080 . S
C104 O109 1.166 . S
C104 O110 1.182 . S
C105 O111 1.167 . S
C105 O112 1.299 . S
O106 Zn103 2.080 . S
O106 C120 1.305 . S
O107 Zn101 1.920 . S
O107 C120 1.234 . S
C108 O113 1.167 . S
C108 O114 1.299 . S
O109 Zn103 2.114 . S
O109 C104 1.166 . S
O110 Zn102 1.905 . S
O110 C104 1.182 . S
O111 Zn102 1.898 . S
O111 C105 1.167 . S
O112 Zn103 2.120 . S
O112 C105 1.299 . S
O113 Zn101 1.898 . S
O113 C108 1.167 . S
O114 Zn103 2.120 . S
O114 C108 1.299 . S
O115 Zn103 2.114 . S
O115 C117 1.166 . S
O116 Zn101 1.905 . S
O116 C117 1.182 . S
C117 O115 1.166 . S
C117 O116 1.182 . S
O118 Zn103 2.080 . S
O118 C121 1.305 . S
O119 Zn102 1.920 . S
O119 C121 1.234 . S
C120 O106 1.305 . S
C120 O107 1.234 . S
C121 O118 1.305 . S
C121 O119 1.234 . S
H122 C128 0.930 . S
H123 C132 0.930 . S
H124 C137 0.929 . S
H125 C135 0.929 . S
H126 C130 0.929 . S
H127 C136 0.929 . S
C128 H122 0.930 . S
C128 C129 1.367 . S
C128 C136 1.378 . S
C129 C128 1.367 . S
C129 C137 1.433 . S
C130 H126 0.929 . S
C130 C132 1.378 . S
C130 C134 1.350 . S
C131 C134 1.463 . S
C131 C136 1.350 . S
C131 N139 1.427 . S
C132 H123 0.930 . S
C132 C130 1.378 . S
C132 C133 1.367 . S
C133 C132 1.367 . S
C133 C135 1.433 . S
C134 C130 1.350 . S
C134 C131 1.463 . S
C134 N138 1.427 . S
C135 H125 0.929 . S
C135 C133 1.433 . S
C135 N138 1.384 . S
C136 H127 0.929 . S
C136 C128 1.378 . S
C136 C131 1.350 . S
C137 H124 0.929 . S
C137 C129 1.433 . S
C137 N139 1.384 . S
N138 C134 1.427 . S
N138 C135 1.384 . S
N139 C131 1.427 . S
N139 C137 1.384 . S
H140 C146 0.930 . S
H141 C150 0.930 . S
H142 C155 0.929 . S
H143 C153 0.929 . S
H144 C148 0.929 . S
H145 C154 0.929 . S
C146 H140 0.930 . S
C146 C147 1.367 . S
C146 C154 1.378 . S
C147 C146 1.367 . S
C147 C155 1.433 . S
C148 H144 0.929 . S
C148 C150 1.378 . S
C148 C152 1.350 . S
C149 C152 1.463 . S
C149 C154 1.350 . S
C149 N157 1.427 . S
C150 H141 0.930 . S
C150 C148 1.378 . S
C150 C151 1.367 . S
C151 C150 1.367 . S
C151 C153 1.433 . S
C152 C148 1.350 . S
C152 C149 1.463 . S
C152 N156 1.427 . S
C153 H143 0.929 . S
C153 C151 1.433 . S
C153 N156 1.384 . S
C154 H145 0.929 . S
C154 C146 1.378 . S
C154 C149 1.350 . S
C155 H142 0.929 . S
C155 C147 1.433 . S
C155 N157 1.384 . S
N156 C152 1.427 . S
N156 C153 1.384 . S
N157 C149 1.427 . S
N157 C155 1.384 . S
H158 C164 0.930 . S
H159 C168 0.930 . S
H160 C173 0.929 . S
H161 C171 0.929 . S
H162 C166 0.929 . S
H163 C172 0.929 . S
C164 H158 0.930 . S
C164 C165 1.367 . S
C164 C172 1.378 . S
C165 C164 1.367 . S
C165 C173 1.433 . S
C166 H162 0.929 . S
C166 C168 1.378 . S
C166 C170 1.350 . S
C167 C170 1.463 . S
C167 C172 1.350 . S
C167 N175 1.427 . S
C168 H159 0.930 . S
C168 C166 1.378 . S
C168 C169 1.367 . S
C169 C168 1.367 . S
C169 C171 1.433 . S
C170 C166 1.350 . S
C170 C167 1.463 . S
C170 N174 1.427 . S
C171 H161 0.929 . S
C171 C169 1.433 . S
C171 N174 1.384 . S
C172 H163 0.929 . S
C172 C164 1.378 . S
C172 C167 1.350 . S
C173 H160 0.929 . S
C173 C165 1.433 . S
C173 N175 1.384 . S
N174 C170 1.427 . S
N174 C171 1.384 . S
N175 C167 1.427 . S
N175 C173 1.384 . S
H176 C182 0.930 . S
H177 C186 0.930 . S
H178 C191 0.929 . S
H179 C189 0.929 . S
H180 C184 0.929 . S
H181 C190 0.929 . S
C182 H176 0.930 . S
C182 C183 1.367 . S
C182 C190 1.378 . S
C183 C182 1.367 . S
C183 C191 1.433 . S
C184 H180 0.929 . S
C184 C186 1.378 . S
C184 C188 1.350 . S
C185 C188 1.463 . S
C185 C190 1.350 . S
C185 N193 1.427 . S
C186 H177 0.930 . S
C186 C184 1.378 . S
C186 C187 1.367 . S
C187 C186 1.367 . S
C187 C189 1.433 . S
C188 C184 1.350 . S
C188 C185 1.463 . S
C188 N192 1.427 . S
C189 H179 0.929 . S
C189 C187 1.433 . S
C189 N192 1.384 . S
C190 H181 0.929 . S
C190 C182 1.378 . S
C190 C185 1.350 . S
C191 H178 0.929 . S
C191 C183 1.433 . S
C191 N193 1.384 . S
N192 C188 1.427 . S
N192 C189 1.384 . S
N193 C185 1.427 . S
N193 C191 1.384 . S
H194 C200 0.930 . S
H195 C204 0.930 . S
H196 C209 0.929 . S
H197 C207 0.929 . S
H198 C202 0.929 . S
H199 C208 0.929 . S
C200 H194 0.930 . S
C200 C201 1.367 . S
C200 C208 1.378 . S
C201 C200 1.367 . S
C201 C209 1.433 . S
C202 H198 0.929 . S
C202 C204 1.378 . S
C202 C206 1.350 . S
C203 C206 1.463 . S
C203 C208 1.350 . S
C203 N211 1.427 . S
C204 H195 0.930 . S
C204 C202 1.378 . S
C204 C205 1.367 . S
C205 C204 1.367 . S
C205 C207 1.433 . S
C206 C202 1.350 . S
C206 C203 1.463 . S
C206 N210 1.427 . S
C207 H197 0.929 . S
C207 C205 1.433 . S
C207 N210 1.384 . S
C208 H199 0.929 . S
C208 C200 1.378 . S
C208 C203 1.350 . S
C209 H196 0.929 . S
C209 C201 1.433 . S
C209 N211 1.384 . S
N210 C206 1.427 . S
N210 C207 1.384 . S
N211 C203 1.427 . S
N211 C209 1.384 . S
H212 C218 0.930 . S
H213 C222 0.930 . S
H214 C227 0.929 . S
H215 C225 0.929 . S
H216 C220 0.929 . S
H217 C226 0.929 . S
C218 H212 0.930 . S
C218 C219 1.367 . S
C218 C226 1.378 . S
C219 C218 1.367 . S
C219 C227 1.433 . S
C220 H216 0.929 . S
C220 C222 1.378 . S
C220 C224 1.350 . S
C221 C224 1.463 . S
C221 C226 1.350 . S
C221 N229 1.427 . S
C222 H213 0.930 . S
C222 C220 1.378 . S
C222 C223 1.367 . S
C223 C222 1.367 . S
C223 C225 1.433 . S
C224 C220 1.350 . S
C224 C221 1.463 . S
C224 N228 1.427 . S
C225 H215 0.929 . S
C225 C223 1.433 . S
C225 N228 1.384 . S
C226 H217 0.929 . S
C226 C218 1.378 . S
C226 C221 1.350 . S
C227 H214 0.929 . S
C227 C219 1.433 . S
C227 N229 1.384 . S
N228 C224 1.427 . S
N228 C225 1.384 . S
N229 C221 1.427 . S
N229 C227 1.384 . S
H230 C236 0.930 . S
H231 C240 0.930 . S
H232 C245 0.929 . S
H233 C243 0.929 . S
H234 C238 0.929 . S
H235 C244 0.929 . S
C236 H230 0.930 . S
C236 C237 1.367 . S
C236 C244 1.378 . S
C237 C236 1.367 . S
C237 C245 1.433 . S
C238 H234 0.929 . S
C238 C240 1.378 . S
C238 C242 1.350 . S
C239 C242 1.463 . S
C239 C244 1.350 . S
C239 N247 1.427 . S
C240 H231 0.930 . S
C240 C238 1.378 . S
C240 C241 1.367 . S
C241 C240 1.367 . S
C241 C243 1.433 . S
C242 C238 1.350 . S
C242 C239 1.463 . S
C242 N246 1.427 . S
C243 H233 0.929 . S
C243 C241 1.433 . S
C243 N246 1.384 . S
C244 H235 0.929 . S
C244 C236 1.378 . S
C244 C239 1.350 . S
C245 H232 0.929 . S
C245 C237 1.433 . S
C245 N247 1.384 . S
N246 C242 1.427 . S
N246 C243 1.384 . S
N247 C239 1.427 . S
N247 C245 1.384 . S
H248 C254 0.930 . S
H249 C258 0.930 . S
H250 C263 0.929 . S
H251 C261 0.929 . S
H252 C256 0.929 . S
H253 C262 0.929 . S
C254 H248 0.930 . S
C254 C255 1.367 . S
C254 C262 1.378 . S
C255 C254 1.367 . S
C255 C263 1.433 . S
C256 H252 0.929 . S
C256 C258 1.378 . S
C256 C260 1.350 . S
C257 C260 1.463 . S
C257 C262 1.350 . S
C257 N265 1.427 . S
C258 H249 0.930 . S
C258 C256 1.378 . S
C258 C259 1.367 . S
C259 C258 1.367 . S
C259 C261 1.433 . S
C260 C256 1.350 . S
C260 C257 1.463 . S
C260 N264 1.427 . S
C261 H251 0.929 . S
C261 C259 1.433 . S
C261 N264 1.384 . S
C262 H253 0.929 . S
C262 C254 1.378 . S
C262 C257 1.350 . S
C263 H250 0.929 . S
C263 C255 1.433 . S
C263 N265 1.384 . S
N264 C260 1.427 . S
N264 C261 1.384 . S
N265 C257 1.427 . S
N265 C263 1.384 . S
H266 C272 0.930 . S
H267 C276 0.930 . S
H268 C281 0.929 . S
H269 C279 0.929 . S
H270 C274 0.929 . S
H271 C280 0.929 . S
C272 H266 0.930 . S
C272 C273 1.367 . S
C272 C280 1.378 . S
C273 C272 1.367 . S
C273 C281 1.433 . S
C274 H270 0.929 . S
C274 C276 1.378 . S
C274 C278 1.350 . S
C275 C278 1.463 . S
C275 C280 1.350 . S
C275 N283 1.427 . S
C276 H267 0.930 . S
C276 C274 1.378 . S
C276 C277 1.367 . S
C277 C276 1.367 . S
C277 C279 1.433 . S
C278 C274 1.350 . S
C278 C275 1.463 . S
C278 N282 1.427 . S
C279 H269 0.929 . S
C279 C277 1.433 . S
C279 N282 1.384 . S
C280 H271 0.929 . S
C280 C272 1.378 . S
C280 C275 1.350 . S
C281 H268 0.929 . S
C281 C273 1.433 . S
C281 N283 1.384 . S
N282 C278 1.427 . S
N282 C279 1.384 . S
N283 C275 1.427 . S
N283 C281 1.384 . S
H284 C290 0.930 . S
H285 C294 0.930 . S
H286 C299 0.929 . S
H287 C297 0.929 . S
H288 C292 0.929 . S
H289 C298 0.929 . S
C290 H284 0.930 . S
C290 C291 1.367 . S
C290 C298 1.378 . S
C291 C290 1.367 . S
C291 C299 1.433 . S
C292 H288 0.929 . S
C292 C294 1.378 . S
C292 C296 1.350 . S
C293 C296 1.463 . S
C293 C298 1.350 . S
C293 N301 1.427 . S
C294 H285 0.930 . S
C294 C292 1.378 . S
C294 C295 1.367 . S
C295 C294 1.367 . S
C295 C297 1.433 . S
C296 C292 1.350 . S
C296 C293 1.463 . S
C296 N300 1.427 . S
C297 H287 0.929 . S
C297 C295 1.433 . S
C297 N300 1.384 . S
C298 H289 0.929 . S
C298 C290 1.378 . S
C298 C293 1.350 . S
C299 H286 0.929 . S
C299 C291 1.433 . S
C299 N301 1.384 . S
N300 C296 1.427 . S
N300 C297 1.384 . S
N301 C293 1.427 . S
N301 C299 1.384 . S
H302 C308 0.930 . S
H303 C312 0.930 . S
H304 C317 0.929 . S
H305 C315 0.929 . S
H306 C310 0.929 . S
H307 C316 0.929 . S
C308 H302 0.930 . S
C308 C309 1.367 . S
C308 C316 1.378 . S
C309 C308 1.367 . S
C309 C317 1.433 . S
C310 H306 0.929 . S
C310 C312 1.378 . S
C310 C314 1.350 . S
C311 C314 1.463 . S
C311 C316 1.350 . S
C311 N319 1.427 . S
C312 H303 0.930 . S
C312 C310 1.378 . S
C312 C313 1.367 . S
C313 C312 1.367 . S
C313 C315 1.433 . S
C314 C310 1.350 . S
C314 C311 1.463 . S
C314 N318 1.427 . S
C315 H305 0.929 . S
C315 C313 1.433 . S
C315 N318 1.384 . S
C316 H307 0.929 . S
C316 C308 1.378 . S
C316 C311 1.350 . S
C317 H304 0.929 . S
C317 C309 1.433 . S
C317 N319 1.384 . S
N318 C314 1.427 . S
N318 C315 1.384 . S
N319 C311 1.427 . S
N319 C317 1.384 . S
H320 C326 0.930 . S
H321 C330 0.930 . S
H322 C335 0.929 1_455 S
H323 C333 0.929 . S
H324 C328 0.929 . S
H325 C334 0.929 . S
C326 H320 0.930 . S
C326 C327 1.367 . S
C326 C334 1.378 . S
C327 C326 1.367 . S
C327 C335 1.433 . S
C328 H324 0.929 . S
C328 C330 1.378 . S
C328 C332 1.350 . S
C329 C332 1.463 . S
C329 C334 1.350 . S
C329 N337 1.427 . S
C330 H321 0.930 . S
C330 C328 1.378 . S
C330 C331 1.367 . S
C331 C330 1.367 . S
C331 C333 1.433 . S
C332 C328 1.350 . S
C332 C329 1.463 . S
C332 N336 1.427 . S
C333 H323 0.929 . S
C333 C331 1.433 . S
C333 N336 1.384 . S
C334 H325 0.929 . S
C334 C326 1.378 . S
C334 C329 1.350 . S
C335 H322 0.929 1_655 S
C335 C327 1.433 . S
C335 N337 1.384 . S
N336 C332 1.427 . S
N336 C333 1.384 . S
N337 C329 1.427 . S
N337 C335 1.384 . S
C129 C15 1.380 . S
C133 C99 1.311 . S
C147 C59 1.241 . S
C151 C105 1.132 . S
C165 C10 1.330 . S
C169 C96 1.220 . S
C183 C46 1.455 . S
C187 C121 1.355 . S
C201 C18 1.885 . S
C205 C87 1.724 . S
C223 C104 1.842 . S
C219 C49 1.958 . S
C237 C55 1.376 . S
C241 C100 1.290 . S
C259 C117 1.834 . S
C255 C9 1.951 . S
C277 C84 1.744 . S
C273 C58 1.892 . S
C295 C120 1.378 . S
C291 C6 1.468 . S
C313 C83 1.219 . S
C309 C50 1.328 . S
C331 C108 1.132 . S
C327 C19 1.238 . S
