# Generated by pormake.
# Topology nia, (6,6)-cn, num edge types: 1
# Building blocks:
#     Node 0, Type 0, BuildingBlock: PAMTUU_clean_sbu_0, # of connection points: 6
#     Node 1, Type 0, BuildingBlock: PAMTUU_clean_sbu_0, # of connection points: 6
#     Node 2, Type 1, BuildingBlock: MIDCAF_clean_sbu_0, # of connection points: 6
#     Node 3, Type 1, BuildingBlock: MIDCAF_clean_sbu_0, # of connection points: 6
#     Edge 4, Type (0, 1), BuildingBlock: XUDNAN_clean_linker_2, # of connection points: 2
#     Edge 5, Type (0, 1), BuildingBlock: XUDNAN_clean_linker_2, # of connection points: 2
#     Edge 6, Type (0, 1), BuildingBlock: XUDNAN_clean_linker_2, # of connection points: 2
#     Edge 7, Type (0, 1), BuildingBlock: XUDNAN_clean_linker_2, # of connection points: 2
#     Edge 8, Type (0, 1), BuildingBlock: XUDNAN_clean_linker_2, # of connection points: 2
#     Edge 9, Type (0, 1), BuildingBlock: XUDNAN_clean_linker_2, # of connection points: 2
#     Edge 10, Type (0, 1), BuildingBlock: XUDNAN_clean_linker_2, # of connection points: 2
#     Edge 11, Type (0, 1), BuildingBlock: XUDNAN_clean_linker_2, # of connection points: 2
#     Edge 12, Type (0, 1), BuildingBlock: XUDNAN_clean_linker_2, # of connection points: 2
#     Edge 13, Type (0, 1), BuildingBlock: XUDNAN_clean_linker_2, # of connection points: 2
#     Edge 14, Type (0, 1), BuildingBlock: XUDNAN_clean_linker_2, # of connection points: 2
#     Edge 15, Type (0, 1), BuildingBlock: XUDNAN_clean_linker_2, # of connection points: 2
# Relax obj value: 0.296
# Max RMSD: 0.265
# Mean RMSD: 0.239
data_MOF--net-nia--node1-PAMTUU_clean_sbu_0--node2-MIDCAF_clean_sbu_0--edge1-XUDNAN_clean_linker_2
_symmetry_space_group_name_H-M    P1
_symmetry_Int_Tables_number       1
_symmetry_cell_setting            triclinic
loop_
_symmetry_equiv_pos_as_xyz
'x, y, z'
_cell_length_a     24.971419
_cell_length_b     28.40715
_cell_length_c     34.871154
_cell_angle_alpha  70.278241
_cell_angle_beta   102.01996
_cell_angle_gamma 127.34198
loop_
_atom_site_label
_atom_site_type_symbol
_atom_site_fract_x
_atom_site_fract_y
_atom_site_fract_z
_atom_type_partial_charge
Tb0 Tb 0.99345 0.94217 1.01345 0.0
Tb1 Tb 0.08375 0.05764 0.05304 0.0
C2 C 0.13738 0.05735 0.9795 0.0
C3 C 0.93412 0.84408 0.94417 0.0
C4 C 0.94133 0.80509 0.88249 0.0
C5 C 0.90024 0.82505 0.87754 0.0
C6 C 0.89638 0.84398 0.90822 0.0
C7 C 0.97919 0.82865 0.94791 0.0
C8 C 0.98273 0.80924 0.9172 0.0
C9 C 0.92358 0.85866 0.97738 0.0
O10 O 0.07623 0.93789 0.04374 0.0
O11 O 0.09784 0.9873 0.09084 0.0
O12 O 0.98331 0.00118 0.0784 0.0
O13 O 0.95008 0.90853 0.07317 0.0
O14 O 0.13083 0.15081 0.04855 0.0
O15 O 0.13711 0.09023 0.10365 0.0
O16 O 0.03627 0.08409 0.99876 0.0
O17 O 0.94352 0.98721 0.99977 0.0
O18 O 0.07495 0.01604 0.9706 0.0
O19 O 0.15289 0.07314 1.01365 0.0
C20 C 0.10338 0.95181 0.07826 0.0
O21 O 0.95385 0.85289 1.01217 0.0
O22 O 0.92617 0.90852 0.96661 0.0
C23 C 0.94431 0.94079 0.08945 0.0
C24 C 0.12888 0.16525 0.11096 0.0
C25 C 0.10615 0.21235 0.15998 0.0
C26 C 0.08281 0.15045 0.17237 0.0
C27 C 0.09369 0.12689 0.14793 0.0
C28 C 0.14924 0.2262 0.09774 0.0
C29 C 0.13773 0.24952 0.12192 0.0
C30 C 0.14776 0.14365 0.08691 0.0
C31 C 0.97419 0.04679 0.98747 0.0
H32 H 0.86804 0.82247 0.85097 0.0
H33 H 0.86187 0.8564 0.90448 0.0
H34 H 0.00962 0.82915 0.97511 0.0
H35 H 0.01427 0.79343 0.92195 0.0
H36 H 0.05837 0.12099 0.20157 0.0
H37 H 0.07658 0.07933 0.15869 0.0
H38 H 0.17626 0.25647 0.06935 0.0
H39 H 0.15733 0.29776 0.11192 0.0
Tb40 Tb 0.0961 -0.00567 0.51062 0.0
Tb41 Tb 0.9997 0.00965 0.54778 0.0
C42 C 0.10728 0.11508 0.48354 0.0
C43 C 0.16776 0.96462 0.44448 0.0
C44 C 0.17173 0.92026 0.38487 0.0
C45 C 0.2156 0.98324 0.3827 0.0
C46 C 0.21378 0.00511 0.41231 0.0
C47 C 0.12119 0.90212 0.44558 0.0
C48 C 0.12321 0.88009 0.41594 0.0
C49 C 0.17163 0.98905 0.47683 0.0
O50 O 0.14348 0.01315 0.56879 0.0
O51 O 0.09364 0.05347 0.58099 0.0
O52 O 0.99947 0.93335 0.59018 0.0
O53 O 0.0162 0.90243 0.54407 0.0
O54 O 0.98213 0.06737 0.55907 0.0
O55 O 0.9094 0.96675 0.57755 0.0
O56 O 0.93652 0.95354 0.50651 0.0
O57 O 0.0167 0.9807 0.46515 0.0
O58 O 0.14025 0.09076 0.49994 0.0
O59 O 0.04318 0.08328 0.49153 0.0
C60 C 0.13977 0.04286 0.58895 0.0
O61 O 0.16518 0.03402 0.46473 0.0
O62 O 0.13976 0.95006 0.51085 0.0
C63 C 0.99328 0.8903 0.57934 0.0
C64 C 0.88119 0.02629 0.59334 0.0
C65 C 0.81707 0.04861 0.6347 0.0
C66 C 0.80801 -0.00827 0.64752 0.0
C67 C 0.83983 0.98057 0.62684 0.0
C68 C 0.88597 0.08106 0.57867 0.0
C69 C 0.85368 0.09193 0.59899 0.0
C70 C 0.92493 0.01999 0.57657 0.0
C71 C 0.95399 0.9559 0.47264 0.0
H72 H 0.25301 0.01532 0.35885 0.0
H73 H 0.24971 0.05359 0.41069 0.0
H74 H 0.08471 0.87002 0.46991 0.0
H75 H 0.08921 0.83121 0.4186 0.0
H76 H 0.78011 0.95758 0.67496 0.0
H77 H 0.8355 0.93789 0.63856 0.0
H78 H 0.91692 0.11654 0.5525 0.0
H79 H 0.86 0.13554 0.58784 0.0
Zn80 Zn 0.38874 0.69862 0.19264 0.0
Zn81 Zn 0.38136 0.6672 0.35111 0.0
Zn82 Zn 0.39594 0.68585 0.27367 0.0
C83 C 0.52213 0.74094 0.33235 0.0
C84 C 0.3194 0.55222 0.34469 0.0
O85 O 0.35237 0.73828 0.23861 0.0
O86 O 0.35207 0.74751 0.17289 0.0
C87 C 0.52527 0.75176 0.2198 0.0
O88 O 0.50125 0.73516 0.29608 0.0
O89 O 0.48009 0.71583 0.36013 0.0
O90 O 0.3284 0.57685 0.37162 0.0
O91 O 0.34098 0.58547 0.30799 0.0
O92 O 0.48759 0.7411 0.18879 0.0
O93 O 0.50078 0.73565 0.25474 0.0
O94 O 0.33587 0.59365 0.265 0.0
O95 O 0.32432 0.60887 0.19799 0.0
C96 C 0.31099 0.57272 0.23345 0.0
O97 O 0.34615 0.72603 0.28044 0.0
O98 O 0.33644 0.70617 0.34678 0.0
C99 C 0.34 0.75829 0.20107 0.0
C100 C 0.32655 0.72878 0.31054 0.0
Zn101 Zn 0.70573 0.3131 0.869 0.0
Zn102 Zn 0.69686 0.33468 0.71357 0.0
Zn103 Zn 0.68531 0.31537 0.79 0.0
C104 C 0.75716 0.44869 0.71612 0.0
C105 C 0.55707 0.25713 0.73641 0.0
O106 O 0.73081 0.26461 0.82227 0.0
O107 O 0.75099 0.27118 0.88585 0.0
C108 C 0.77559 0.43504 0.82543 0.0
O109 O 0.74096 0.41604 0.75361 0.0
O110 O 0.74273 0.42304 0.68868 0.0
O111 O 0.59718 0.27897 0.70823 0.0
O112 O 0.57963 0.26794 0.77137 0.0
O113 O 0.7624 0.4025 0.86185 0.0
O114 O 0.75074 0.4101 0.79566 0.0
O115 O 0.58311 0.26511 0.81389 0.0
O116 O 0.60753 0.26616 0.87856 0.0
C117 C 0.56443 0.25108 0.85024 0.0
O118 O 0.71976 0.26445 0.78028 0.0
O119 O 0.74538 0.30026 0.71486 0.0
C120 C 0.75388 0.25322 0.85832 0.0
C121 C 0.74179 0.26531 0.74957 0.0
H122 H 0.11014 0.863 0.06939 0.0
H123 H 0.18397 0.98652 0.14425 0.0
H124 H 0.25095 0.94912 0.18508 0.0
H125 H 0.09613 0.73649 0.15168 0.0
H126 H 0.12228 0.7147 0.12033 0.0
H127 H 0.07913 0.75041 0.09767 0.0
H128 H 0.1778 0.8352 0.04715 0.0
H129 H 0.22133 0.79989 0.06973 0.0
H130 H 0.26219 0.87949 0.06666 0.0
H131 H 0.31629 0.90299 0.21486 0.0
H132 H 0.36879 0.84699 0.23326 0.0
H133 H 0.24655 0.74957 0.14202 0.0
C134 C 0.1402 0.88212 0.09442 0.0
C135 C 0.14186 0.92784 0.10349 0.0
C136 C 0.18171 0.95137 0.13669 0.0
C137 C 0.22007 0.9305 0.16006 0.0
C138 C 0.21766 0.88572 0.15009 0.0
C139 C 0.17827 0.86143 0.11828 0.0
C140 C 0.1845 0.81377 0.1138 0.0
C141 C 0.11646 0.75007 0.12133 0.0
C142 C 0.21317 0.83328 0.07185 0.0
C143 C 0.23428 0.81569 0.14764 0.0
C144 C 0.25298 0.85751 0.16824 0.0
C145 C 0.30083 0.86913 0.19952 0.0
C146 C 0.32974 0.83666 0.21017 0.0
C147 C 0.30959 0.79232 0.19027 0.0
C148 C 0.26189 0.78243 0.1583 0.0
H149 H 0.25474 0.04679 0.60801 0.0
H150 H 0.14078 0.09681 0.64131 0.0
H151 H 0.2299 0.14655 0.69003 0.0
H152 H 0.32768 0.02012 0.71082 0.0
H153 H 0.40717 0.05287 0.68979 0.0
H154 H 0.3303 0.01392 0.66156 0.0
H155 H 0.37991 0.1111 0.6 0.0
H156 H 0.45671 0.15011 0.62797 0.0
H157 H 0.41105 0.18377 0.60723 0.0
H158 H 0.33769 0.20192 0.72911 0.0
H159 H 0.45589 0.25858 0.75404 0.0
H160 H 0.49712 0.17037 0.69642 0.0
C161 C 0.24773 0.06697 0.62617 0.0
C162 C 0.19061 0.06772 0.62078 0.0
C163 C 0.18406 0.09557 0.64478 0.0
C164 C 0.23429 0.12374 0.67276 0.0
C165 C 0.29062 0.12331 0.67673 0.0
C166 C 0.2974 0.09532 0.65424 0.0
C167 C 0.36519 0.10561 0.66167 0.0
C168 C 0.35707 0.04448 0.68219 0.0
C169 C 0.40557 0.13969 0.62186 0.0
C170 C 0.3963 0.14564 0.69058 0.0
C171 C 0.35233 0.15469 0.6995 0.0
C172 C 0.37211 0.19408 0.72309 0.0
C173 C 0.439 0.22585 0.73726 0.0
C174 C 0.48463 0.21761 0.72779 0.0
C175 C 0.46256 0.17642 0.7047 0.0
H176 H 0.07172 0.29154 0.14493 0.0
H177 H 0.15029 0.20192 0.23838 0.0
H178 H 0.19001 0.27532 0.27751 0.0
H179 H 0.19937 0.4299 0.13692 0.0
H180 H 0.15966 0.46802 0.13043 0.0
H181 H 0.11458 0.39699 0.11722 0.0
H182 H 0.01764 0.34737 0.16596 0.0
H183 H 0.0615 0.41917 0.17868 0.0
H184 H 0.03603 0.34924 0.21845 0.0
H185 H 0.25733 0.37585 0.29073 0.0
H186 H 0.32867 0.48735 0.28397 0.0
H187 H 0.20011 0.51112 0.1882 0.0
C188 C 0.09406 0.28565 0.17471 0.0
C189 C 0.10806 0.24141 0.18873 0.0
C190 C 0.13826 0.23503 0.22742 0.0
C191 C 0.16119 0.27671 0.24982 0.0
C192 C 0.15205 0.32344 0.23348 0.0
C193 C 0.11691 0.32687 0.19746 0.0
C194 C 0.12329 0.38668 0.18318 0.0
C195 C 0.15091 0.42245 0.13939 0.0
C196 C 0.05558 0.37489 0.18681 0.0
C197 C 0.17356 0.41907 0.21406 0.0
C198 C 0.18836 0.38131 0.24339 0.0
C199 C 0.24285 0.40458 0.26997 0.0
C200 C 0.2826 0.46763 0.26663 0.0
C201 C 0.26655 0.50619 0.23813 0.0
C202 C 0.2113 0.48163 0.21159 0.0
H203 H 0.89028 0.15768 0.65329 0.0
H204 H 0.69706 0.97908 0.67542 0.0
H205 H 0.66474 0.01058 0.71956 0.0
H206 H 0.91261 0.1821 0.75365 0.0
H207 H 0.9494 0.26304 0.73248 0.0
H208 H 0.9602 0.22357 0.70709 0.0
H209 H 0.9096 0.25886 0.6404 0.0
H210 H 0.90049 0.29957 0.66533 0.0
H211 H 0.82832 0.24311 0.64193 0.0
H212 H 0.64982 0.06574 0.75479 0.0
H213 H 0.64859 0.14259 0.77207 0.0
H214 H 0.85153 0.28434 0.72642 0.0
C215 C 0.84107 0.12504 0.66739 0.0
C216 C 0.79596 0.06606 0.66089 0.0
C217 C 0.73248 0.02438 0.68033 0.0
C218 C 0.71394 0.04177 0.70554 0.0
C219 C 0.75988 0.10055 0.7112 0.0
C220 C 0.82194 0.14158 0.69238 0.0
C221 C 0.8598 0.20391 0.69992 0.0
C222 C 0.92433 0.21902 0.72477 0.0
C223 C 0.87539 0.25428 0.65951 0.0
C224 C 0.80828 0.19252 0.72469 0.0
C225 C 0.75157 0.13221 0.73176 0.0
C226 C 0.69456 0.11252 0.75047 0.0
C227 C 0.69451 0.15621 0.76056 0.0
C228 C 0.75104 0.2184 0.75194 0.0
C229 C 0.80905 0.23639 0.73482 0.0
H230 H 0.85991 0.97065 0.09047 0.0
H231 H 0.90383 0.83732 0.1527 0.0
H232 H 0.80949 0.78218 0.20033 0.0
H233 H 0.80062 0.97138 0.17835 0.0
H234 H 0.73398 0.97526 0.14939 0.0
H235 H 0.81077 0.00909 0.12448 0.0
H236 H 0.74224 0.94375 0.07293 0.0
H237 H 0.66544 0.91027 0.0974 0.0
H238 H 0.68477 0.86132 0.09165 0.0
H239 H 0.70708 0.73977 0.23963 0.0
H240 H 0.59562 0.70421 0.25945 0.0
H241 H 0.6134 0.85971 0.16676 0.0
C242 C 0.85041 0.93056 0.11472 0.0
C243 C 0.88956 0.90865 0.1186 0.0
C244 C 0.87448 0.8549 0.14963 0.0
C245 C 0.82141 0.82368 0.17691 0.0
C246 C 0.78335 0.84631 0.17221 0.0
C247 C 0.79654 0.89797 0.14137 0.0
C248 C 0.74331 0.90849 0.13939 0.0
C249 C 0.77403 0.9697 0.14845 0.0
C250 C 0.70678 0.90575 0.0979 0.0
C251 C 0.69737 0.85417 0.17346 0.0
C252 C 0.72224 0.81979 0.19289 0.0
C253 C 0.68737 0.76654 0.22474 0.0
C254 C 0.62444 0.74684 0.23599 0.0
C255 C 0.59679 0.77972 0.21482 0.0
C256 C 0.63423 0.83445 0.18373 0.0
H257 H 0.98473 0.79127 0.57388 0.0
H258 H 0.92139 0.84591 0.64752 0.0
H259 H 0.85824 0.74004 0.6923 0.0
H260 H 0.83146 0.64384 0.57847 0.0
H261 H 0.87077 0.60624 0.58208 0.0
H262 H 0.91349 0.68701 0.55664 0.0
H263 H 0.01666 0.71134 0.60436 0.0
H264 H 0.97423 0.63056 0.62995 0.0
H265 H 1.00519 0.68466 0.65879 0.0
H266 H 0.79297 0.6262 0.72507 0.0
H267 H 0.73721 0.51371 0.74654 0.0
H268 H 0.84971 0.53433 0.65565 0.0
C269 C 0.95795 0.78109 0.59956 0.0
C270 C 0.95804 0.82705 0.60707 0.0
C271 C 0.92235 0.8117 0.6411 0.0
C272 C 0.88618 0.7516 0.66676 0.0
C273 C 0.88662 0.70732 0.6583 0.0
C274 C 0.92209 0.72138 0.6258 0.0
C275 C 0.91363 0.66496 0.62327 0.0
C276 C 0.88035 0.64962 0.58271 0.0
C277 C 0.98147 0.6734 0.62947 0.0
C278 C 0.86694 0.61691 0.65895 0.0
C279 C 0.85185 0.64225 0.67871 0.0
C280 C 0.8061 0.60614 0.71077 0.0
C281 C 0.77545 0.54254 0.72321 0.0
C282 C 0.79184 0.51599 0.7043 0.0
C283 C 0.83771 0.55374 0.67148 0.0
H284 H 0.29141 0.95035 0.36787 0.0
H285 H 0.07724 0.83204 0.34479 0.0
H286 H 0.09769 0.78172 0.30957 0.0
H287 H 0.35226 0.96023 0.27265 0.0
H288 H 0.4202 0.95779 0.30076 0.0
H289 H 0.39072 -0.00593 0.31477 0.0
H290 H 0.37025 0.92365 0.38859 0.0
H291 H 0.39949 0.88726 0.37503 0.0
H292 H 0.31701 0.84131 0.39693 0.0
H293 H 0.14026 0.73448 0.28644 0.0
H294 H 0.19899 0.68987 0.28344 0.0
H295 H 0.38299 0.8367 0.32528 0.0
C296 C 0.24908 0.91576 0.35381 0.0
C297 C 0.18293 0.89576 0.35838 0.0
C298 C 0.12842 0.84828 0.3413 0.0
C299 C 0.13968 0.8199 0.32096 0.0
C300 C 0.20567 0.83971 0.318 0.0
C301 C 0.25943 0.88678 0.33398 0.0
C302 C 0.32389 0.89341 0.3329 0.0
C303 C 0.37477 0.95504 0.30351 0.0
C304 C 0.35434 0.8859 0.3759 0.0
C305 C 0.29743 0.84025 0.31629 0.0
C306 C 0.22972 0.81108 0.30634 0.0
C307 C 0.1935 0.75768 0.29338 0.0
C308 C 0.22696 0.73264 0.29179 0.0
C309 C 0.29518 0.76068 0.30379 0.0
C310 C 0.33098 0.81549 0.31534 0.0
H311 H 0.27215 0.14679 0.98599 0.0
H312 H 0.12723 0.02701 0.90998 0.0
H313 H 0.21988 0.06594 0.86644 0.0
H314 H 0.385 0.27614 0.90461 0.0
H315 H 0.45939 0.29444 0.93541 0.0
H316 H 0.38109 0.25912 0.95908 0.0
H317 H 0.3893 0.17092 1.00615 0.0
H318 H 0.46741 0.2058 0.98252 0.0
H319 H 0.39826 0.12732 0.98382 0.0
H320 H 0.33116 0.11298 0.83416 0.0
H321 H 0.44967 0.16711 0.8153 0.0
H322 H 0.51862 0.25888 0.91035 0.0
C323 C 0.25958 0.12913 0.95994 0.0
C324 C 0.1922 0.0839 0.95145 0.0
C325 C 0.17834 0.06191 0.9171 0.0
C326 C 0.23069 0.08367 0.89218 0.0
C327 C 0.29665 0.1277 0.90179 0.0
C328 C 0.31103 0.15045 0.93472 0.0
C329 C 0.38602 0.19632 0.93935 0.0
C330 C 0.4039 0.2603 0.93429 0.0
C331 C 0.41173 0.17371 0.98039 0.0
C332 C 0.41175 0.19565 0.90406 0.0
C333 C 0.35972 0.15576 0.88269 0.0
C334 C 0.37213 0.14543 0.85013 0.0
C335 C 0.43943 0.17694 0.83915 0.0
C336 C 0.49314 0.21885 0.86022 0.0
C337 C 0.47864 0.22783 0.89316 0.0
H338 H 0.06717 0.19339 0.45454 0.0
H339 H 0.23298 0.18247 0.45328 0.0
H340 H 0.30054 0.29042 0.4133 0.0
H341 H 0.09637 0.29891 0.35027 0.0
H342 H 0.07513 0.34116 0.36444 0.0
H343 H 0.0364 0.26087 0.39034 0.0
H344 H 0.07797 0.28744 0.45964 0.0
H345 H 0.11692 0.36768 0.43389 0.0
H346 H 0.16647 0.34327 0.46697 0.0
H347 H 0.35513 0.40072 0.38029 0.0
H348 H 0.39186 0.50839 0.35211 0.0
H349 H 0.19215 0.4511 0.37109 0.0
C350 C 0.11729 0.21356 0.44529 0.0
C351 C 0.14469 0.17927 0.45724 0.0
C352 C 0.21079 0.20759 0.44483 0.0
C353 C 0.24967 0.26898 0.4219 0.0
C354 C 0.2219 0.30179 0.41123 0.0
C355 C 0.15718 0.27531 0.42215 0.0
C356 C 0.1413 0.32246 0.40795 0.0
C357 C 0.08388 0.30477 0.37637 0.0
C358 C 0.1247 0.33069 0.44428 0.0
C359 C 0.20783 0.37957 0.38847 0.0
C360 C 0.2533 0.36619 0.3906 0.0
C361 C 0.31956 0.41162 0.37743 0.0
C362 C 0.33996 0.47246 0.36146 0.0
C363 C 0.29393 0.4871 0.35781 0.0
C364 C 0.22728 0.4403 0.372 0.0
H365 H 0.99735 0.15781 0.97814 0.0
H366 H 0.86607 -0.00924 0.93859 0.0
H367 H 0.80063 0.02929 0.89677 0.0
H368 H 0.86767 0.16848 0.98928 0.0
H369 H 0.91751 0.25129 0.97206 0.0
H370 H 0.95788 0.21326 0.99581 0.0
H371 H 0.03423 0.26989 0.93263 0.0
H372 H 0.99402 0.30811 0.90861 0.0
H373 H 0.99632 0.26393 0.88291 0.0
H374 H 0.74524 0.08299 0.86241 0.0
H375 H 0.70142 0.14634 0.84097 0.0
H376 H 0.86777 0.27806 0.90249 0.0
C377 C 0.95548 0.12983 0.96017 0.0
C378 C 0.93704 0.0715 0.96137 0.0
C379 C 0.88104 0.0356 0.93813 0.0
C380 C 0.84376 0.0572 0.91412 0.0
C381 C 0.86279 0.11464 0.91386 0.0
C382 C 0.91709 0.15035 0.93644 0.0
C383 C 0.92397 0.20839 0.93309 0.0
C384 C 0.91628 0.21044 0.97505 0.0
C385 C 0.99113 0.26599 0.91311 0.0
C386 C 0.86477 0.19945 0.90541 0.0
C387 C 0.83056 0.14543 0.89427 0.0
C388 C 0.77246 0.12603 0.87024 0.0
C389 C 0.74846 0.16263 0.85756 0.0
C390 C 0.7827 0.21797 0.86862 0.0
C391 C 0.84146 0.23644 0.89293 0.0
H392 H 0.82113 0.86996 0.48899 0.0
H393 H 0.96421 0.97865 0.38984 0.0
H394 H 0.86973 0.93394 0.34138 0.0
H395 H 0.71034 0.73403 0.45398 0.0
H396 H 0.63604 0.71722 0.47159 0.0
H397 H 0.71533 0.75757 0.49733 0.0
H398 H 0.70494 0.84669 0.48651 0.0
H399 H 0.62561 0.80662 0.46082 0.0
H400 H 0.69274 0.88397 0.43574 0.0
H401 H 0.75446 0.88039 0.30348 0.0
H402 H 0.63465 0.82067 0.28203 0.0
H403 H 0.57409 0.74452 0.40852 0.0
C404 C 0.83299 0.8845 0.4571 0.0
C405 C 0.89991 0.92805 0.44309 0.0
C406 C 0.91312 0.94516 0.40118 0.0
C407 C 0.85981 0.92015 0.3735 0.0
C408 C 0.79405 0.87764 0.38847 0.0
C409 C 0.78103 0.85972 0.42949 0.0
C410 C 0.70683 0.81368 0.43861 0.0
C411 C 0.69125 0.75197 0.46704 0.0
C412 C 0.68105 0.8393 0.45645 0.0
C413 C 0.67947 0.80838 0.39631 0.0
C414 C 0.7299 0.84567 0.36749 0.0
C415 C 0.71488 0.85014 0.32603 0.0
C416 C 0.64668 0.81556 0.31405 0.0
C417 C 0.59471 0.77649 0.34345 0.0
C418 C 0.61215 0.77318 0.38502 0.0
H419 H 0.8215 0.71155 0.86318 0.0
H420 H 0.03579 0.81212 0.84682 0.0
H421 H 0.01337 0.73475 0.81594 0.0
H422 H 0.79367 0.57506 0.90116 0.0
H423 H 0.71084 0.5313 0.87965 0.0
H424 H 0.7416 0.60251 0.88843 0.0
H425 H 0.72007 0.64267 0.81326 0.0
H426 H 0.69092 0.57275 0.80246 0.0
H427 H 0.75916 0.64612 0.77356 0.0
H428 H 0.96808 0.63695 0.79837 0.0
H429 H 0.90603 0.52685 0.80072 0.0
H430 H 0.72439 0.48991 0.8347 0.0
C431 C 0.86353 0.71911 0.85114 0.0
C432 C 0.93015 0.76833 0.85639 0.0
C433 C 0.98426 0.775 0.84238 0.0
C434 C 0.97188 0.73151 0.82466 0.0
C435 C 0.90529 0.68176 0.82155 0.0
C436 C 0.85207 0.67564 0.83448 0.0
C437 C 0.78681 0.61327 0.83553 0.0
C438 C 0.75657 0.57855 0.87874 0.0
C439 C 0.73626 0.61902 0.80432 0.0
C440 C 0.81187 0.58384 0.82314 0.0
C441 C 0.87979 0.62437 0.8138 0.0
C442 C 0.9147 0.60526 0.80487 0.0
C443 C 0.87947 0.54295 0.80643 0.0
C444 C 0.81095 0.50113 0.81769 0.0
C445 C 0.77677 0.52187 0.82556 0.0
loop_
_geom_bond_atom_site_label_1
_geom_bond_atom_site_label_2
_geom_bond_distance
_geom_bond_site_symmetry_2
_ccdc_geom_bond_type
Tb0 C9 2.764 . S
Tb0 O10 2.325 1_656 S
Tb0 O13 2.303 1_556 S
Tb0 O17 2.322 1_565 S
Tb0 O18 2.349 1_665 S
Tb0 O21 2.415 . S
Tb0 O22 2.399 . S
Tb1 O11 2.322 1_545 S
Tb1 O12 2.349 1_445 S
Tb1 O14 2.415 . S
Tb1 O15 2.399 . S
Tb1 O16 2.325 . S
Tb1 O19 2.303 1_554 S
Tb1 C30 2.764 . S
C2 O18 1.261 . S
C2 O19 1.257 . S
C3 C6 1.358 . S
C3 C7 1.332 . S
C3 C9 1.504 . S
C4 C5 1.373 . S
C4 C8 1.308 . S
C5 C4 1.373 . S
C5 C6 1.429 . S
C5 H32 0.932 . S
C6 C3 1.358 . S
C6 C5 1.429 . S
C6 H33 0.930 . S
C7 C3 1.332 . S
C7 C8 1.394 . S
C7 H34 0.932 1_556 S
C8 C4 1.308 . S
C8 C7 1.394 . S
C8 H35 0.929 . S
C9 Tb0 2.764 . S
C9 C3 1.504 . S
C9 O21 1.239 . S
C9 O22 1.263 . S
O10 Tb0 2.325 1_454 S
O10 C20 1.236 . S
O11 Tb1 2.322 1_565 S
O11 C20 1.257 . S
O12 Tb1 2.349 1_665 S
O12 C23 1.261 . S
O13 Tb0 2.303 1_554 S
O13 C23 1.257 . S
O14 Tb1 2.415 . S
O14 C30 1.239 . S
O15 Tb1 2.399 . S
O15 C30 1.263 . S
O16 Tb1 2.325 . S
O16 C31 1.236 1_454 S
O17 Tb0 2.322 1_545 S
O17 C31 1.257 . S
O18 Tb0 2.349 1_445 S
O18 C2 1.261 . S
O19 Tb1 2.303 1_556 S
O19 C2 1.257 . S
C20 O10 1.236 . S
C20 O11 1.257 . S
O21 Tb0 2.415 . S
O21 C9 1.239 . S
O22 Tb0 2.399 . S
O22 C9 1.263 . S
C23 O12 1.261 . S
C23 O13 1.257 . S
C24 C27 1.358 . S
C24 C28 1.332 . S
C24 C30 1.504 . S
C25 C26 1.373 . S
C25 C29 1.308 . S
C26 C25 1.373 . S
C26 C27 1.429 . S
C26 H36 0.932 . S
C27 C24 1.358 . S
C27 C26 1.429 . S
C27 H37 0.930 . S
C28 C24 1.332 . S
C28 C29 1.394 . S
C28 H38 0.932 . S
C29 C25 1.308 . S
C29 C28 1.394 . S
C29 H39 0.929 . S
C30 Tb1 2.764 . S
C30 O14 1.239 . S
C30 O15 1.263 . S
C30 C24 1.504 . S
C31 O16 1.236 1_656 S
C31 O17 1.257 . S
H32 C5 0.932 . S
H33 C6 0.930 . S
H34 C7 0.932 1_554 S
H35 C8 0.929 . S
H36 C26 0.932 . S
H37 C27 0.930 . S
H38 C28 0.932 . S
H39 C29 0.929 . S
Tb40 C49 2.764 . S
Tb40 O50 2.325 1_565 S
Tb40 O53 2.303 . S
Tb40 O57 2.322 1_455 S
Tb40 O58 2.349 1_565 S
Tb40 O61 2.415 . S
Tb40 O62 2.399 1_565 S
Tb41 O51 2.322 . S
Tb41 O52 2.349 1_445 S
Tb41 O54 2.415 1_455 S
Tb41 O55 2.399 1_455 S
Tb41 O56 2.325 1_445 S
Tb41 O59 2.303 . S
Tb41 C70 2.764 1_455 S
C42 O58 1.261 . S
C42 O59 1.257 . S
C43 C46 1.358 . S
C43 C47 1.332 . S
C43 C49 1.504 . S
C44 C45 1.373 . S
C44 C48 1.308 . S
C45 C44 1.373 . S
C45 C46 1.429 . S
C45 H72 0.932 . S
C46 C43 1.358 . S
C46 C45 1.429 . S
C46 H73 0.930 1_565 S
C47 C43 1.332 . S
C47 C48 1.394 . S
C47 H74 0.932 . S
C48 C44 1.308 . S
C48 C47 1.394 . S
C48 H75 0.929 . S
C49 Tb40 2.764 . S
C49 C43 1.504 . S
C49 O61 1.239 . S
C49 O62 1.263 1_565 S
O50 Tb40 2.325 1_545 S
O50 C60 1.236 . S
O51 Tb41 2.322 . S
O51 C60 1.257 . S
O52 Tb41 2.349 1_665 S
O52 C63 1.261 . S
O53 Tb40 2.303 . S
O53 C63 1.257 1_455 S
O54 Tb41 2.415 1_655 S
O54 C70 1.239 . S
O55 Tb41 2.399 1_655 S
O55 C70 1.263 . S
O56 Tb41 2.325 1_665 S
O56 C71 1.236 . S
O57 Tb40 2.322 1_655 S
O57 C71 1.257 . S
O58 Tb40 2.349 1_545 S
O58 C42 1.261 . S
O59 Tb41 2.303 . S
O59 C42 1.257 . S
C60 O50 1.236 . S
C60 O51 1.257 . S
O61 Tb40 2.415 . S
O61 C49 1.239 . S
O62 Tb40 2.399 1_545 S
O62 C49 1.263 1_545 S
C63 O52 1.261 . S
C63 O53 1.257 1_655 S
C64 C67 1.358 . S
C64 C68 1.332 . S
C64 C70 1.504 . S
C65 C66 1.373 . S
C65 C69 1.308 . S
C66 C65 1.373 . S
C66 C67 1.429 . S
C66 H76 0.932 . S
C67 C64 1.358 . S
C67 C66 1.429 . S
C67 H77 0.930 . S
C68 C64 1.332 . S
C68 C69 1.394 . S
C68 H78 0.932 . S
C69 C65 1.308 . S
C69 C68 1.394 . S
C69 H79 0.929 . S
C70 Tb41 2.764 1_655 S
C70 O54 1.239 . S
C70 O55 1.263 . S
C70 C64 1.504 . S
C71 O56 1.236 . S
C71 O57 1.257 . S
H72 C45 0.932 . S
H73 C46 0.930 1_545 S
H74 C47 0.932 . S
H75 C48 0.929 . S
H76 C66 0.932 . S
H77 C67 0.930 . S
H78 C68 0.932 . S
H79 C69 0.929 . S
Zn80 O86 1.920 . S
Zn80 O92 1.898 . S
Zn80 O95 1.905 . S
Zn81 O89 1.905 . S
Zn81 O90 1.898 . S
Zn81 O98 1.920 . S
Zn82 O85 2.080 . S
Zn82 O88 2.114 . S
Zn82 O91 2.120 . S
Zn82 O93 2.120 . S
Zn82 O94 2.114 . S
Zn82 O97 2.080 . S
C83 O88 1.166 . S
C83 O89 1.182 . S
C84 O90 1.167 . S
C84 O91 1.299 . S
O85 Zn82 2.080 . S
O85 C99 1.305 . S
O86 Zn80 1.920 . S
O86 C99 1.234 . S
C87 O92 1.167 . S
C87 O93 1.299 . S
O88 Zn82 2.114 . S
O88 C83 1.166 . S
O89 Zn81 1.905 . S
O89 C83 1.182 . S
O90 Zn81 1.898 . S
O90 C84 1.167 . S
O91 Zn82 2.120 . S
O91 C84 1.299 . S
O92 Zn80 1.898 . S
O92 C87 1.167 . S
O93 Zn82 2.120 . S
O93 C87 1.299 . S
O94 Zn82 2.114 . S
O94 C96 1.166 . S
O95 Zn80 1.905 . S
O95 C96 1.182 . S
C96 O94 1.166 . S
C96 O95 1.182 . S
O97 Zn82 2.080 . S
O97 C100 1.305 . S
O98 Zn81 1.920 . S
O98 C100 1.234 . S
C99 O85 1.305 . S
C99 O86 1.234 . S
C100 O97 1.305 . S
C100 O98 1.234 . S
Zn101 O107 1.920 . S
Zn101 O113 1.898 . S
Zn101 O116 1.905 . S
Zn102 O110 1.905 . S
Zn102 O111 1.898 . S
Zn102 O119 1.920 . S
Zn103 O106 2.080 . S
Zn103 O109 2.114 . S
Zn103 O112 2.120 . S
Zn103 O114 2.120 . S
Zn103 O115 2.114 . S
Zn103 O118 2.080 . S
C104 O109 1.166 . S
C104 O110 1.182 . S
C105 O111 1.167 . S
C105 O112 1.299 . S
O106 Zn103 2.080 . S
O106 C120 1.305 . S
O107 Zn101 1.920 . S
O107 C120 1.234 . S
C108 O113 1.167 . S
C108 O114 1.299 . S
O109 Zn103 2.114 . S
O109 C104 1.166 . S
O110 Zn102 1.905 . S
O110 C104 1.182 . S
O111 Zn102 1.898 . S
O111 C105 1.167 . S
O112 Zn103 2.120 . S
O112 C105 1.299 . S
O113 Zn101 1.898 . S
O113 C108 1.167 . S
O114 Zn103 2.120 . S
O114 C108 1.299 . S
O115 Zn103 2.114 . S
O115 C117 1.166 . S
O116 Zn101 1.905 . S
O116 C117 1.182 . S
C117 O115 1.166 . S
C117 O116 1.182 . S
O118 Zn103 2.080 . S
O118 C121 1.305 . S
O119 Zn102 1.920 . S
O119 C121 1.234 . S
C120 O106 1.305 . S
C120 O107 1.234 . S
C121 O118 1.305 . S
C121 O119 1.234 . S
H122 C134 0.930 . S
H123 C136 0.930 . S
H124 C137 0.930 . S
H125 C141 0.959 . S
H126 C141 0.959 . S
H127 C141 0.961 . S
H128 C142 0.960 . S
H129 C142 0.961 . S
H130 C142 0.959 . S
H131 C145 0.929 . S
H132 C146 0.931 . S
H133 C148 0.930 . S
C134 H122 0.930 . S
C134 C135 1.399 . S
C134 C139 1.399 . S
C135 C134 1.399 . S
C135 C136 1.376 . S
C136 H123 0.930 . S
C136 C135 1.376 . S
C136 C137 1.388 . S
C137 H124 0.930 . S
C137 C136 1.388 . S
C137 C138 1.390 . S
C138 C137 1.390 . S
C138 C139 1.394 . S
C138 C144 1.465 . S
C139 C134 1.399 . S
C139 C138 1.394 . S
C139 C140 1.516 . S
C140 C139 1.516 . S
C140 C141 1.502 . S
C140 C142 1.561 . S
C140 C143 1.526 . S
C141 H125 0.959 . S
C141 H126 0.959 . S
C141 H127 0.961 . S
C141 C140 1.502 . S
C142 H128 0.960 . S
C142 H129 0.961 . S
C142 H130 0.959 . S
C142 C140 1.561 . S
C143 C140 1.526 . S
C143 C144 1.396 . S
C143 C148 1.390 . S
C144 C138 1.465 . S
C144 C143 1.396 . S
C144 C145 1.399 . S
C145 H131 0.929 . S
C145 C144 1.399 . S
C145 C146 1.385 . S
C146 H132 0.931 . S
C146 C145 1.385 . S
C146 C147 1.389 . S
C147 C146 1.389 . S
C147 C148 1.387 . S
C148 H133 0.930 . S
C148 C143 1.390 . S
C148 C147 1.387 . S
H149 C161 0.930 . S
H150 C163 0.930 . S
H151 C164 0.930 . S
H152 C168 0.959 . S
H153 C168 0.959 . S
H154 C168 0.961 . S
H155 C169 0.960 1_565 S
H156 C169 0.961 . S
H157 C169 0.959 . S
H158 C172 0.929 . S
H159 C173 0.931 . S
H160 C175 0.930 . S
C161 H149 0.930 . S
C161 C162 1.399 . S
C161 C166 1.399 . S
C162 C161 1.399 . S
C162 C163 1.376 . S
C163 H150 0.930 . S
C163 C162 1.376 . S
C163 C164 1.388 . S
C164 H151 0.930 . S
C164 C163 1.388 . S
C164 C165 1.390 . S
C165 C164 1.390 . S
C165 C166 1.394 . S
C165 C171 1.465 . S
C166 C161 1.399 . S
C166 C165 1.394 . S
C166 C167 1.516 . S
C167 C166 1.516 . S
C167 C168 1.502 . S
C167 C169 1.561 . S
C167 C170 1.526 . S
C168 H152 0.959 . S
C168 H153 0.959 . S
C168 H154 0.961 . S
C168 C167 1.502 . S
C169 H155 0.960 1_545 S
C169 H156 0.961 . S
C169 H157 0.959 . S
C169 C167 1.561 . S
C170 C167 1.526 . S
C170 C171 1.396 . S
C170 C175 1.390 . S
C171 C165 1.465 . S
C171 C170 1.396 . S
C171 C172 1.399 . S
C172 H158 0.929 . S
C172 C171 1.399 . S
C172 C173 1.385 . S
C173 H159 0.931 . S
C173 C172 1.385 . S
C173 C174 1.389 . S
C174 C173 1.389 . S
C174 C175 1.387 . S
C175 H160 0.930 . S
C175 C170 1.390 . S
C175 C174 1.387 . S
H176 C188 0.930 . S
H177 C190 0.930 . S
H178 C191 0.930 . S
H179 C195 0.959 . S
H180 C195 0.959 . S
H181 C195 0.961 . S
H182 C196 0.960 . S
H183 C196 0.961 . S
H184 C196 0.959 . S
H185 C199 0.929 . S
H186 C200 0.931 . S
H187 C202 0.930 . S
C188 H176 0.930 . S
C188 C189 1.399 . S
C188 C193 1.399 . S
C189 C188 1.399 . S
C189 C190 1.376 . S
C190 H177 0.930 . S
C190 C189 1.376 . S
C190 C191 1.388 . S
C191 H178 0.930 . S
C191 C190 1.388 . S
C191 C192 1.390 . S
C192 C191 1.390 . S
C192 C193 1.394 . S
C192 C198 1.465 . S
C193 C188 1.399 . S
C193 C192 1.394 . S
C193 C194 1.516 . S
C194 C193 1.516 . S
C194 C195 1.502 . S
C194 C196 1.561 . S
C194 C197 1.526 . S
C195 H179 0.959 . S
C195 H180 0.959 . S
C195 H181 0.961 . S
C195 C194 1.502 . S
C196 H182 0.960 . S
C196 H183 0.961 . S
C196 H184 0.959 . S
C196 C194 1.561 . S
C197 C194 1.526 . S
C197 C198 1.396 . S
C197 C202 1.390 . S
C198 C192 1.465 . S
C198 C197 1.396 . S
C198 C199 1.399 . S
C199 H185 0.929 . S
C199 C198 1.399 . S
C199 C200 1.385 . S
C200 H186 0.931 . S
C200 C199 1.385 . S
C200 C201 1.389 . S
C201 C200 1.389 . S
C201 C202 1.387 . S
C202 H187 0.930 . S
C202 C197 1.390 . S
C202 C201 1.387 . S
H203 C215 0.930 . S
H204 C217 0.930 . S
H205 C218 0.930 . S
H206 C222 0.959 . S
H207 C222 0.959 . S
H208 C222 0.961 . S
H209 C223 0.960 . S
H210 C223 0.961 . S
H211 C223 0.959 . S
H212 C226 0.929 . S
H213 C227 0.931 . S
H214 C229 0.930 . S
C215 H203 0.930 . S
C215 C216 1.399 . S
C215 C220 1.399 . S
C216 C215 1.399 . S
C216 C217 1.376 . S
C217 H204 0.930 . S
C217 C216 1.376 . S
C217 C218 1.388 . S
C218 H205 0.930 . S
C218 C217 1.388 . S
C218 C219 1.390 . S
C219 C218 1.390 . S
C219 C220 1.394 . S
C219 C225 1.465 . S
C220 C215 1.399 . S
C220 C219 1.394 . S
C220 C221 1.516 . S
C221 C220 1.516 . S
C221 C222 1.502 . S
C221 C223 1.561 . S
C221 C224 1.526 . S
C222 H206 0.959 . S
C222 H207 0.959 . S
C222 H208 0.961 . S
C222 C221 1.502 . S
C223 H209 0.960 . S
C223 H210 0.961 . S
C223 H211 0.959 . S
C223 C221 1.561 . S
C224 C221 1.526 . S
C224 C225 1.396 . S
C224 C229 1.390 . S
C225 C219 1.465 . S
C225 C224 1.396 . S
C225 C226 1.399 . S
C226 H212 0.929 . S
C226 C225 1.399 . S
C226 C227 1.385 . S
C227 H213 0.931 . S
C227 C226 1.385 . S
C227 C228 1.389 . S
C228 C227 1.389 . S
C228 C229 1.387 . S
C229 H214 0.930 . S
C229 C224 1.390 . S
C229 C228 1.387 . S
H230 C242 0.930 . S
H231 C244 0.930 . S
H232 C245 0.930 . S
H233 C249 0.959 . S
H234 C249 0.959 . S
H235 C249 0.961 . S
H236 C250 0.960 1_545 S
H237 C250 0.961 1_545 S
H238 C250 0.959 . S
H239 C253 0.929 . S
H240 C254 0.931 . S
H241 C256 0.930 . S
C242 H230 0.930 . S
C242 C243 1.399 . S
C242 C247 1.399 . S
C243 C242 1.399 . S
C243 C244 1.376 . S
C244 H231 0.930 . S
C244 C243 1.376 . S
C244 C245 1.388 . S
C245 H232 0.930 . S
C245 C244 1.388 . S
C245 C246 1.390 . S
C246 C245 1.390 . S
C246 C247 1.394 . S
C246 C252 1.465 . S
C247 C242 1.399 . S
C247 C246 1.394 . S
C247 C248 1.516 . S
C248 C247 1.516 . S
C248 C249 1.502 . S
C248 C250 1.561 . S
C248 C251 1.526 . S
C249 H233 0.959 . S
C249 H234 0.959 . S
C249 H235 0.961 . S
C249 C248 1.502 . S
C250 H236 0.960 1_565 S
C250 H237 0.961 1_565 S
C250 H238 0.959 . S
C250 C248 1.561 . S
C251 C248 1.526 . S
C251 C252 1.396 . S
C251 C256 1.390 . S
C252 C246 1.465 . S
C252 C251 1.396 . S
C252 C253 1.399 . S
C253 H239 0.929 . S
C253 C252 1.399 . S
C253 C254 1.385 . S
C254 H240 0.931 . S
C254 C253 1.385 . S
C254 C255 1.389 . S
C255 C254 1.389 . S
C255 C256 1.387 . S
C256 H241 0.930 . S
C256 C251 1.390 . S
C256 C255 1.387 . S
H257 C269 0.930 . S
H258 C271 0.930 . S
H259 C272 0.930 . S
H260 C276 0.959 . S
H261 C276 0.959 . S
H262 C276 0.961 . S
H263 C277 0.960 . S
H264 C277 0.961 . S
H265 C277 0.959 . S
H266 C280 0.929 . S
H267 C281 0.931 . S
H268 C283 0.930 . S
C269 H257 0.930 . S
C269 C270 1.399 . S
C269 C274 1.399 . S
C270 C269 1.399 . S
C270 C271 1.376 . S
C271 H258 0.930 . S
C271 C270 1.376 . S
C271 C272 1.388 . S
C272 H259 0.930 . S
C272 C271 1.388 . S
C272 C273 1.390 . S
C273 C272 1.390 . S
C273 C274 1.394 . S
C273 C279 1.465 . S
C274 C269 1.399 . S
C274 C273 1.394 . S
C274 C275 1.516 . S
C275 C274 1.516 . S
C275 C276 1.502 . S
C275 C277 1.561 . S
C275 C278 1.526 . S
C276 H260 0.959 . S
C276 H261 0.959 . S
C276 H262 0.961 . S
C276 C275 1.502 . S
C277 H263 0.960 . S
C277 H264 0.961 . S
C277 H265 0.959 . S
C277 C275 1.561 . S
C278 C275 1.526 . S
C278 C279 1.396 . S
C278 C283 1.390 . S
C279 C273 1.465 . S
C279 C278 1.396 . S
C279 C280 1.399 . S
C280 H266 0.929 . S
C280 C279 1.399 . S
C280 C281 1.385 . S
C281 H267 0.931 . S
C281 C280 1.385 . S
C281 C282 1.389 . S
C282 C281 1.389 . S
C282 C283 1.387 . S
C283 H268 0.930 . S
C283 C278 1.390 . S
C283 C282 1.387 . S
H284 C296 0.930 . S
H285 C298 0.930 . S
H286 C299 0.930 . S
H287 C303 0.959 . S
H288 C303 0.959 . S
H289 C303 0.961 . S
H290 C304 0.960 . S
H291 C304 0.961 . S
H292 C304 0.959 . S
H293 C307 0.929 . S
H294 C308 0.931 . S
H295 C310 0.930 . S
C296 H284 0.930 . S
C296 C297 1.399 . S
C296 C301 1.399 . S
C297 C296 1.399 . S
C297 C298 1.376 . S
C298 H285 0.930 . S
C298 C297 1.376 . S
C298 C299 1.388 . S
C299 H286 0.930 . S
C299 C298 1.388 . S
C299 C300 1.390 . S
C300 C299 1.390 . S
C300 C301 1.394 . S
C300 C306 1.465 . S
C301 C296 1.399 . S
C301 C300 1.394 . S
C301 C302 1.516 . S
C302 C301 1.516 . S
C302 C303 1.502 . S
C302 C304 1.561 . S
C302 C305 1.526 . S
C303 H287 0.959 . S
C303 H288 0.959 . S
C303 H289 0.961 . S
C303 C302 1.502 . S
C304 H290 0.960 . S
C304 H291 0.961 . S
C304 H292 0.959 . S
C304 C302 1.561 . S
C305 C302 1.526 . S
C305 C306 1.396 . S
C305 C310 1.390 . S
C306 C300 1.465 . S
C306 C305 1.396 . S
C306 C307 1.399 . S
C307 H293 0.929 . S
C307 C306 1.399 . S
C307 C308 1.385 . S
C308 H294 0.931 . S
C308 C307 1.385 . S
C308 C309 1.389 . S
C309 C308 1.389 . S
C309 C310 1.387 . S
C310 H295 0.930 . S
C310 C305 1.390 . S
C310 C309 1.387 . S
H311 C323 0.930 . S
H312 C325 0.930 . S
H313 C326 0.930 . S
H314 C330 0.959 . S
H315 C330 0.959 . S
H316 C330 0.961 . S
H317 C331 0.960 . S
H318 C331 0.961 . S
H319 C331 0.959 . S
H320 C334 0.929 . S
H321 C335 0.931 . S
H322 C337 0.930 . S
C323 H311 0.930 . S
C323 C324 1.399 . S
C323 C328 1.399 . S
C324 C323 1.399 . S
C324 C325 1.376 . S
C325 H312 0.930 . S
C325 C324 1.376 . S
C325 C326 1.388 . S
C326 H313 0.930 . S
C326 C325 1.388 . S
C326 C327 1.390 . S
C327 C326 1.390 . S
C327 C328 1.394 . S
C327 C333 1.465 . S
C328 C323 1.399 . S
C328 C327 1.394 . S
C328 C329 1.516 . S
C329 C328 1.516 . S
C329 C330 1.502 . S
C329 C331 1.561 . S
C329 C332 1.526 . S
C330 H314 0.959 . S
C330 H315 0.959 . S
C330 H316 0.961 . S
C330 C329 1.502 . S
C331 H317 0.960 . S
C331 H318 0.961 . S
C331 H319 0.959 . S
C331 C329 1.561 . S
C332 C329 1.526 . S
C332 C333 1.396 . S
C332 C337 1.390 . S
C333 C327 1.465 . S
C333 C332 1.396 . S
C333 C334 1.399 . S
C334 H320 0.929 . S
C334 C333 1.399 . S
C334 C335 1.385 . S
C335 H321 0.931 . S
C335 C334 1.385 . S
C335 C336 1.389 . S
C336 C335 1.389 . S
C336 C337 1.387 . S
C337 H322 0.930 . S
C337 C332 1.390 . S
C337 C336 1.387 . S
H338 C350 0.930 . S
H339 C352 0.930 . S
H340 C353 0.930 . S
H341 C357 0.959 . S
H342 C357 0.959 . S
H343 C357 0.961 . S
H344 C358 0.960 . S
H345 C358 0.961 . S
H346 C358 0.959 . S
H347 C361 0.929 . S
H348 C362 0.931 . S
H349 C364 0.930 . S
C350 H338 0.930 . S
C350 C351 1.399 . S
C350 C355 1.399 . S
C351 C350 1.399 . S
C351 C352 1.376 . S
C352 H339 0.930 . S
C352 C351 1.376 . S
C352 C353 1.388 . S
C353 H340 0.930 . S
C353 C352 1.388 . S
C353 C354 1.390 . S
C354 C353 1.390 . S
C354 C355 1.394 . S
C354 C360 1.465 . S
C355 C350 1.399 . S
C355 C354 1.394 . S
C355 C356 1.516 . S
C356 C355 1.516 . S
C356 C357 1.502 . S
C356 C358 1.561 . S
C356 C359 1.526 . S
C357 H341 0.959 . S
C357 H342 0.959 . S
C357 H343 0.961 . S
C357 C356 1.502 . S
C358 H344 0.960 . S
C358 H345 0.961 . S
C358 H346 0.959 . S
C358 C356 1.561 . S
C359 C356 1.526 . S
C359 C360 1.396 . S
C359 C364 1.390 . S
C360 C354 1.465 . S
C360 C359 1.396 . S
C360 C361 1.399 . S
C361 H347 0.929 . S
C361 C360 1.399 . S
C361 C362 1.385 . S
C362 H348 0.931 . S
C362 C361 1.385 . S
C362 C363 1.389 . S
C363 C362 1.389 . S
C363 C364 1.387 . S
C364 H349 0.930 . S
C364 C359 1.390 . S
C364 C363 1.387 . S
H365 C377 0.930 . S
H366 C379 0.930 . S
H367 C380 0.930 . S
H368 C384 0.959 . S
H369 C384 0.959 . S
H370 C384 0.961 . S
H371 C385 0.960 . S
H372 C385 0.961 . S
H373 C385 0.959 . S
H374 C388 0.929 . S
H375 C389 0.931 . S
H376 C391 0.930 . S
C377 H365 0.930 . S
C377 C378 1.399 . S
C377 C382 1.399 . S
C378 C377 1.399 . S
C378 C379 1.376 . S
C379 H366 0.930 . S
C379 C378 1.376 . S
C379 C380 1.388 . S
C380 H367 0.930 . S
C380 C379 1.388 . S
C380 C381 1.390 . S
C381 C380 1.390 . S
C381 C382 1.394 . S
C381 C387 1.465 . S
C382 C377 1.399 . S
C382 C381 1.394 . S
C382 C383 1.516 . S
C383 C382 1.516 . S
C383 C384 1.502 . S
C383 C385 1.561 . S
C383 C386 1.526 . S
C384 H368 0.959 . S
C384 H369 0.959 . S
C384 H370 0.961 . S
C384 C383 1.502 . S
C385 H371 0.960 . S
C385 H372 0.961 . S
C385 H373 0.959 . S
C385 C383 1.561 . S
C386 C383 1.526 . S
C386 C387 1.396 . S
C386 C391 1.390 . S
C387 C381 1.465 . S
C387 C386 1.396 . S
C387 C388 1.399 . S
C388 H374 0.929 . S
C388 C387 1.399 . S
C388 C389 1.385 . S
C389 H375 0.931 . S
C389 C388 1.385 . S
C389 C390 1.389 . S
C390 C389 1.389 . S
C390 C391 1.387 . S
C391 H376 0.930 . S
C391 C386 1.390 . S
C391 C390 1.387 . S
H392 C404 0.930 . S
H393 C406 0.930 1_545 S
H394 C407 0.930 . S
H395 C411 0.959 . S
H396 C411 0.959 . S
H397 C411 0.961 . S
H398 C412 0.960 . S
H399 C412 0.961 . S
H400 C412 0.959 . S
H401 C415 0.929 . S
H402 C416 0.931 . S
H403 C418 0.930 . S
C404 H392 0.930 . S
C404 C405 1.399 . S
C404 C409 1.399 . S
C405 C404 1.399 . S
C405 C406 1.376 . S
C406 H393 0.930 1_565 S
C406 C405 1.376 . S
C406 C407 1.388 . S
C407 H394 0.930 . S
C407 C406 1.388 . S
C407 C408 1.390 . S
C408 C407 1.390 . S
C408 C409 1.394 . S
C408 C414 1.465 . S
C409 C404 1.399 . S
C409 C408 1.394 . S
C409 C410 1.516 . S
C410 C409 1.516 . S
C410 C411 1.502 . S
C410 C412 1.561 . S
C410 C413 1.526 . S
C411 H395 0.959 . S
C411 H396 0.959 . S
C411 H397 0.961 . S
C411 C410 1.502 . S
C412 H398 0.960 . S
C412 H399 0.961 . S
C412 H400 0.959 . S
C412 C410 1.561 . S
C413 C410 1.526 . S
C413 C414 1.396 . S
C413 C418 1.390 . S
C414 C408 1.465 . S
C414 C413 1.396 . S
C414 C415 1.399 . S
C415 H401 0.929 . S
C415 C414 1.399 . S
C415 C416 1.385 . S
C416 H402 0.931 . S
C416 C415 1.385 . S
C416 C417 1.389 . S
C417 C416 1.389 . S
C417 C418 1.387 . S
C418 H403 0.930 . S
C418 C413 1.390 . S
C418 C417 1.387 . S
H419 C431 0.930 . S
H420 C433 0.930 . S
H421 C434 0.930 . S
H422 C438 0.959 . S
H423 C438 0.959 . S
H424 C438 0.961 . S
H425 C439 0.960 . S
H426 C439 0.961 . S
H427 C439 0.959 . S
H428 C442 0.929 . S
H429 C443 0.931 . S
H430 C445 0.930 . S
C431 H419 0.930 . S
C431 C432 1.399 . S
C431 C436 1.399 . S
C432 C431 1.399 . S
C432 C433 1.376 . S
C433 H420 0.930 . S
C433 C432 1.376 . S
C433 C434 1.388 . S
C434 H421 0.930 . S
C434 C433 1.388 . S
C434 C435 1.390 . S
C435 C434 1.390 . S
C435 C436 1.394 . S
C435 C441 1.465 . S
C436 C431 1.399 . S
C436 C435 1.394 . S
C436 C437 1.516 . S
C437 C436 1.516 . S
C437 C438 1.502 . S
C437 C439 1.561 . S
C437 C440 1.526 . S
C438 H422 0.959 . S
C438 H423 0.959 . S
C438 H424 0.961 . S
C438 C437 1.502 . S
C439 H425 0.960 . S
C439 H426 0.961 . S
C439 H427 0.959 . S
C439 C437 1.561 . S
C440 C437 1.526 . S
C440 C441 1.396 . S
C440 C445 1.390 . S
C441 C435 1.465 . S
C441 C440 1.396 . S
C441 C442 1.399 . S
C442 H428 0.929 . S
C442 C441 1.399 . S
C442 C443 1.385 . S
C443 H429 0.931 . S
C443 C442 1.385 . S
C443 C444 1.389 . S
C444 C443 1.389 . S
C444 C445 1.387 . S
C445 H430 0.930 . S
C445 C440 1.390 . S
C445 C444 1.387 . S
C135 C20 1.949 . S
C147 C99 1.869 . S
C162 C60 1.308 . S
C174 C105 1.142 . S
C189 C25 0.859 . S
C201 C96 0.942 . S
C216 C65 1.305 . S
C228 C121 1.148 . S
C243 C23 2.008 . S
C255 C87 1.833 . S
C282 C104 2.229 . S
C270 C63 2.296 . S
C297 C44 1.115 . S
C309 C100 1.043 . S
C336 C117 1.593 . S
C324 C2 1.732 . S
C363 C84 2.024 . S
C351 C42 2.157 . S
C390 C120 2.121 . S
C378 C31 2.178 . S
C417 C83 1.439 . S
C405 C71 1.630 . S
C444 C108 0.909 . S
C432 C4 0.883 . S
