# Generated by pormake.
# Topology ocu, (6,8)-cn, num edge types: 1
# Building blocks:
#     Node 0, Type 0, BuildingBlock: MIFKUJ_clean_sbu_0, # of connection points: 6
#     Node 1, Type 0, BuildingBlock: MIFKUJ_clean_sbu_0, # of connection points: 6
#     Node 2, Type 0, BuildingBlock: MIFKUJ_clean_sbu_0, # of connection points: 6
#     Node 3, Type 0, BuildingBlock: MIFKUJ_clean_sbu_0, # of connection points: 6
#     Node 4, Type 0, BuildingBlock: MIFKUJ_clean_sbu_0, # of connection points: 6
#     Node 5, Type 0, BuildingBlock: MIFKUJ_clean_sbu_0, # of connection points: 6
#     Node 6, Type 0, BuildingBlock: MIFKUJ_clean_sbu_0, # of connection points: 6
#     Node 7, Type 0, BuildingBlock: MIFKUJ_clean_sbu_0, # of connection points: 6
#     Node 8, Type 1, BuildingBlock: GIZVER_clean_sbu_0, # of connection points: 8
#     Node 9, Type 1, BuildingBlock: GIZVER_clean_sbu_0, # of connection points: 8
#     Node 10, Type 1, BuildingBlock: GIZVER_clean_sbu_0, # of connection points: 8
#     Node 11, Type 1, BuildingBlock: GIZVER_clean_sbu_0, # of connection points: 8
#     Node 12, Type 1, BuildingBlock: GIZVER_clean_sbu_0, # of connection points: 8
#     Node 13, Type 1, BuildingBlock: GIZVER_clean_sbu_0, # of connection points: 8
#     Edge 14, Type (0, 1), BuildingBlock: CIFDUS_clean_linker_0, # of connection points: 2
#     Edge 15, Type (0, 1), BuildingBlock: CIFDUS_clean_linker_0, # of connection points: 2
#     Edge 16, Type (0, 1), BuildingBlock: CIFDUS_clean_linker_0, # of connection points: 2
#     Edge 17, Type (0, 1), BuildingBlock: CIFDUS_clean_linker_0, # of connection points: 2
#     Edge 18, Type (0, 1), BuildingBlock: CIFDUS_clean_linker_0, # of connection points: 2
#     Edge 19, Type (0, 1), BuildingBlock: CIFDUS_clean_linker_0, # of connection points: 2
#     Edge 20, Type (0, 1), BuildingBlock: CIFDUS_clean_linker_0, # of connection points: 2
#     Edge 21, Type (0, 1), BuildingBlock: CIFDUS_clean_linker_0, # of connection points: 2
#     Edge 22, Type (0, 1), BuildingBlock: CIFDUS_clean_linker_0, # of connection points: 2
#     Edge 23, Type (0, 1), BuildingBlock: CIFDUS_clean_linker_0, # of connection points: 2
#     Edge 24, Type (0, 1), BuildingBlock: CIFDUS_clean_linker_0, # of connection points: 2
#     Edge 25, Type (0, 1), BuildingBlock: CIFDUS_clean_linker_0, # of connection points: 2
#     Edge 26, Type (0, 1), BuildingBlock: CIFDUS_clean_linker_0, # of connection points: 2
#     Edge 27, Type (0, 1), BuildingBlock: CIFDUS_clean_linker_0, # of connection points: 2
#     Edge 28, Type (0, 1), BuildingBlock: CIFDUS_clean_linker_0, # of connection points: 2
#     Edge 29, Type (0, 1), BuildingBlock: CIFDUS_clean_linker_0, # of connection points: 2
#     Edge 30, Type (0, 1), BuildingBlock: CIFDUS_clean_linker_0, # of connection points: 2
#     Edge 31, Type (0, 1), BuildingBlock: CIFDUS_clean_linker_0, # of connection points: 2
#     Edge 32, Type (0, 1), BuildingBlock: CIFDUS_clean_linker_0, # of connection points: 2
#     Edge 33, Type (0, 1), BuildingBlock: CIFDUS_clean_linker_0, # of connection points: 2
#     Edge 34, Type (0, 1), BuildingBlock: CIFDUS_clean_linker_0, # of connection points: 2
#     Edge 35, Type (0, 1), BuildingBlock: CIFDUS_clean_linker_0, # of connection points: 2
#     Edge 36, Type (0, 1), BuildingBlock: CIFDUS_clean_linker_0, # of connection points: 2
#     Edge 37, Type (0, 1), BuildingBlock: CIFDUS_clean_linker_0, # of connection points: 2
#     Edge 38, Type (0, 1), BuildingBlock: CIFDUS_clean_linker_0, # of connection points: 2
#     Edge 39, Type (0, 1), BuildingBlock: CIFDUS_clean_linker_0, # of connection points: 2
#     Edge 40, Type (0, 1), BuildingBlock: CIFDUS_clean_linker_0, # of connection points: 2
#     Edge 41, Type (0, 1), BuildingBlock: CIFDUS_clean_linker_0, # of connection points: 2
#     Edge 42, Type (0, 1), BuildingBlock: CIFDUS_clean_linker_0, # of connection points: 2
#     Edge 43, Type (0, 1), BuildingBlock: CIFDUS_clean_linker_0, # of connection points: 2
#     Edge 44, Type (0, 1), BuildingBlock: CIFDUS_clean_linker_0, # of connection points: 2
#     Edge 45, Type (0, 1), BuildingBlock: CIFDUS_clean_linker_0, # of connection points: 2
#     Edge 46, Type (0, 1), BuildingBlock: CIFDUS_clean_linker_0, # of connection points: 2
#     Edge 47, Type (0, 1), BuildingBlock: CIFDUS_clean_linker_0, # of connection points: 2
#     Edge 48, Type (0, 1), BuildingBlock: CIFDUS_clean_linker_0, # of connection points: 2
#     Edge 49, Type (0, 1), BuildingBlock: CIFDUS_clean_linker_0, # of connection points: 2
#     Edge 50, Type (0, 1), BuildingBlock: CIFDUS_clean_linker_0, # of connection points: 2
#     Edge 51, Type (0, 1), BuildingBlock: CIFDUS_clean_linker_0, # of connection points: 2
#     Edge 52, Type (0, 1), BuildingBlock: CIFDUS_clean_linker_0, # of connection points: 2
#     Edge 53, Type (0, 1), BuildingBlock: CIFDUS_clean_linker_0, # of connection points: 2
#     Edge 54, Type (0, 1), BuildingBlock: CIFDUS_clean_linker_0, # of connection points: 2
#     Edge 55, Type (0, 1), BuildingBlock: CIFDUS_clean_linker_0, # of connection points: 2
#     Edge 56, Type (0, 1), BuildingBlock: CIFDUS_clean_linker_0, # of connection points: 2
#     Edge 57, Type (0, 1), BuildingBlock: CIFDUS_clean_linker_0, # of connection points: 2
#     Edge 58, Type (0, 1), BuildingBlock: CIFDUS_clean_linker_0, # of connection points: 2
#     Edge 59, Type (0, 1), BuildingBlock: CIFDUS_clean_linker_0, # of connection points: 2
#     Edge 60, Type (0, 1), BuildingBlock: CIFDUS_clean_linker_0, # of connection points: 2
#     Edge 61, Type (0, 1), BuildingBlock: CIFDUS_clean_linker_0, # of connection points: 2
# Relax obj value: 0.108
# Max RMSD: 0.223
# Mean RMSD: 0.162
data_MOF--net-ocu--node1-MIFKUJ_clean_sbu_0--node2-GIZVER_clean_sbu_0--edge1-CIFDUS_clean_linker_0
_symmetry_space_group_name_H-M    P1
_symmetry_Int_Tables_number       1
_symmetry_cell_setting            triclinic
loop_
_symmetry_equiv_pos_as_xyz
'x, y, z'
_cell_length_a     38.040319
_cell_length_b     40.557716
_cell_length_c     26.707383
_cell_angle_alpha  91.161843
_cell_angle_beta   94.115573
_cell_angle_gamma 109.83683
loop_
_atom_site_label
_atom_site_type_symbol
_atom_site_fract_x
_atom_site_fract_y
_atom_site_fract_z
_atom_type_partial_charge
Zn0 Zn 0.22691 0.29476 0.27618 0.0
Zn1 Zn 0.28857 0.23058 0.25373 0.0
C2 C 0.17576 0.31242 0.32877 0.0
O3 O 0.15706 0.28295 0.30301 0.0
C4 C 0.33642 0.21431 0.1917 0.0
O5 O 0.35696 0.2437 0.21633 0.0
O6 O 0.19648 0.30299 0.21416 0.0
O7 O 0.28182 0.31941 0.25719 0.0
O8 O 0.31038 0.28259 0.23439 0.0
C9 C 0.20901 0.33509 0.20292 0.0
O10 O 0.23861 0.3565 0.22956 0.0
O11 O 0.21136 0.32415 0.32818 0.0
C12 C 0.30965 0.19162 0.32715 0.0
O13 O 0.27844 0.16944 0.30485 0.0
O14 O 0.32124 0.22303 0.31304 0.0
O15 O 0.23438 0.20637 0.27474 0.0
O16 O 0.20464 0.24255 0.29658 0.0
O17 O 0.3017 0.20163 0.19896 0.0
C18 C 0.30898 0.31357 0.23762 0.0
C19 C 0.20682 0.2118 0.29372 0.0
Zn20 Zn 0.75734 0.2877 0.2338 0.0
Zn21 Zn 0.75047 0.22753 0.34023 0.0
C22 C 0.69921 0.30905 0.19751 0.0
O23 O 0.70524 0.29131 0.1593 0.0
C24 C 0.78981 0.18211 0.37913 0.0
O25 O 0.75518 0.16126 0.38285 0.0
O26 O 0.7899 0.3184 0.18681 0.0
O27 O 0.79387 0.29438 0.29472 0.0
O28 O 0.76236 0.27863 0.36011 0.0
C29 C 0.79888 0.35049 0.2009 0.0
O30 O 0.7861 0.3592 0.24163 0.0
O31 O 0.71704 0.30943 0.23989 0.0
C32 C 0.67886 0.21035 0.36978 0.0
O33 O 0.67985 0.23696 0.34205 0.0
O34 O 0.70863 0.20337 0.37972 0.0
O35 O 0.72678 0.2071 0.27008 0.0
O36 O 0.73263 0.23914 0.20308 0.0
O37 O 0.79523 0.21211 0.36109 0.0
C38 C 0.78482 0.30244 0.33668 0.0
C39 C 0.72028 0.20974 0.22314 0.0
Zn40 Zn 0.78783 0.73637 0.22354 0.0
Zn41 Zn 0.72862 0.78367 0.27626 0.0
C42 C 0.82239 0.70411 0.29032 0.0
O43 O 0.84975 0.72908 0.27205 0.0
C44 C 0.68648 0.80395 0.19585 0.0
O45 O 0.65954 0.77598 0.20847 0.0
O46 O 0.81549 0.72484 0.16805 0.0
O47 O 0.7364 0.73231 0.1968 0.0
O48 O 0.70677 0.73154 0.26423 0.0
C49 C 0.80405 0.69294 0.15193 0.0
O50 O 0.773 0.67126 0.16771 0.0
O51 O 0.78871 0.70045 0.27505 0.0
C52 C 0.70668 0.82649 0.34597 0.0
O53 O 0.73933 0.84955 0.33766 0.0
O54 O 0.69738 0.7956 0.32643 0.0
O55 O 0.783 0.80413 0.30121 0.0
O56 O 0.81843 0.78224 0.25709 0.0
O57 O 0.71951 0.81049 0.21643 0.0
C58 C 0.71104 0.71623 0.22454 0.0
C59 C 0.81478 0.804 0.28941 0.0
Zn60 Zn 0.22875 0.7828 0.26454 0.0
Zn61 Zn 0.28778 0.74362 0.22283 0.0
C62 C 0.18022 0.72798 0.31082 0.0
O63 O 0.15797 0.7435 0.2901 0.0
C64 C 0.30316 0.80238 0.14963 0.0
O65 O 0.26999 0.78919 0.12483 0.0
O66 O 0.2047 0.81689 0.29268 0.0
O67 O 0.28383 0.80762 0.27168 0.0
O68 O 0.30282 0.76416 0.29505 0.0
C69 C 0.20846 0.82329 0.34013 0.0
O70 O 0.22622 0.80695 0.36865 0.0
O71 O 0.21523 0.74113 0.30684 0.0
C72 C 0.2985 0.67729 0.1893 0.0
O73 O 0.2621 0.66336 0.19178 0.0
O74 O 0.31496 0.70955 0.2031 0.0
O75 O 0.23265 0.72138 0.19737 0.0
O76 O 0.20597 0.76237 0.19576 0.0
O77 O 0.31231 0.78636 0.18578 0.0
C78 C 0.30395 0.79584 0.30116 0.0
C79 C 0.20583 0.73195 0.18247 0.0
Zn80 Zn 0.27526 0.79447 0.6812 0.0
Zn81 Zn 0.26763 0.72079 0.79001 0.0
C82 C 0.22514 0.82483 0.63066 0.0
O83 O 0.21877 0.79791 0.59885 0.0
C84 C 0.32116 0.69513 0.83663 0.0
O85 O 0.32216 0.7194 0.87057 0.0
O86 O 0.32359 0.81058 0.65054 0.0
O87 O 0.29164 0.7961 0.75706 0.0
O88 O 0.2933 0.76759 0.82579 0.0
C89 C 0.35083 0.80225 0.66955 0.0
O90 O 0.3455 0.78001 0.70563 0.0
O91 O 0.24858 0.82891 0.66869 0.0
C92 C 0.20322 0.66568 0.80558 0.0
O93 O 0.21761 0.65021 0.77319 0.0
O94 O 0.22067 0.69732 0.82004 0.0
O95 O 0.25552 0.72982 0.72011 0.0
O96 O 0.24284 0.74701 0.64788 0.0
O97 O 0.29997 0.6911 0.79637 0.0
C98 C 0.30142 0.79647 0.80391 0.0
C99 C 0.23907 0.72189 0.67651 0.0
Zn100 Zn 0.29722 0.2286 0.76637 0.0
Zn101 Zn 0.23396 0.2968 0.76691 0.0
C102 C 0.34269 0.215 0.84591 0.0
O103 O 0.36583 0.24393 0.82942 0.0
C104 C 0.18554 0.31515 0.69816 0.0
O105 O 0.16127 0.29032 0.72132 0.0
O106 O 0.32675 0.21538 0.71436 0.0
O107 O 0.24184 0.20646 0.74223 0.0
O108 O 0.2144 0.24648 0.74612 0.0
C109 C 0.31564 0.18378 0.69683 0.0
O110 O 0.28344 0.16195 0.70916 0.0
O111 O 0.30903 0.2033 0.82634 0.0
C112 C 0.2225 0.33952 0.84414 0.0
O113 O 0.25458 0.36005 0.82958 0.0
O114 O 0.20808 0.30854 0.82447 0.0
O115 O 0.28843 0.31757 0.78223 0.0
O116 O 0.32113 0.28142 0.78249 0.0
O117 O 0.2203 0.32237 0.71022 0.0
C118 C 0.21282 0.21531 0.73645 0.0
C119 C 0.31926 0.31209 0.78762 0.0
Zn120 Zn 0.71805 0.27008 0.77038 0.0
Zn121 Zn 0.78687 0.23864 0.72037 0.0
C122 C 0.69827 0.20406 0.82005 0.0
O123 O 0.71375 0.19388 0.78312 0.0
C124 C 0.85138 0.29037 0.68501 0.0
O125 O 0.86712 0.26747 0.69919 0.0
O126 O 0.69421 0.30673 0.78425 0.0
O127 O 0.77437 0.29407 0.7817 0.0
O128 O 0.79286 0.24892 0.79495 0.0
C129 C 0.70633 0.32845 0.82197 0.0
O130 O 0.7363 0.32848 0.84971 0.0
O131 O 0.70001 0.23585 0.82395 0.0
C132 C 0.80883 0.1988 0.65322 0.0
O133 O 0.79405 0.21749 0.62457 0.0
O134 O 0.80959 0.20266 0.70073 0.0
O135 O 0.73519 0.21877 0.68721 0.0
O136 O 0.69299 0.24246 0.70524 0.0
O137 O 0.81663 0.28388 0.68985 0.0
C138 C 0.79556 0.28036 0.80593 0.0
C139 C 0.7026 0.22047 0.67994 0.0
Zn140 Zn 0.72228 0.78222 0.75732 0.0
Zn141 Zn 0.79378 0.72797 0.75399 0.0
C142 C 0.67577 0.7998 0.81779 0.0
O143 O 0.6563 0.76921 0.79546 0.0
C144 C 0.82034 0.7054 0.66926 0.0
O145 O 0.84653 0.7359 0.68122 0.0
O146 O 0.68402 0.78429 0.70136 0.0
O147 O 0.7752 0.80824 0.73088 0.0
O148 O 0.81564 0.77958 0.73128 0.0
C149 C 0.69375 0.80043 0.6616 0.0
O150 O 0.72799 0.8066 0.64903 0.0
O151 O 0.71024 0.81347 0.8096 0.0
C152 C 0.84069 0.71728 0.84377 0.0
O153 O 0.82462 0.73319 0.87322 0.0
O154 O 0.83315 0.71572 0.79645 0.0
O155 O 0.74511 0.70465 0.78891 0.0
O156 O 0.70453 0.73276 0.78887 0.0
O157 O 0.7909 0.69671 0.69283 0.0
C158 C 0.80747 0.80708 0.72239 0.0
C159 C 0.71373 0.70621 0.8004 0.0
Co160 Co 0.05139 0.95059 0.47894 0.0
Co161 Co 0.05396 0.96371 0.57333 0.0
Co162 Co 0.0114 0.00969 0.51506 0.0
O163 O 0.05408 0.99123 0.52001 0.0
H164 H 0.07811 0.00974 0.52 0.0
O165 O 0.96906 0.0276 0.50831 0.0
Co166 Co 0.96748 0.06695 0.54656 0.0
Co167 Co 0.96986 0.05377 0.45215 0.0
H168 H 0.94533 0.00854 0.50688 0.0
O169 O 0.09812 0.96091 0.60043 0.0
O170 O 0.05785 0.92504 0.53979 0.0
O171 O 0.0108 0.95023 0.61055 0.0
O172 O 0.97569 0.97145 0.55901 0.0
O173 O 0.03406 0.0404 0.57572 0.0
O174 O 0.96178 0.10165 0.58222 0.0
O175 O 0.91732 0.05157 0.55038 0.0
O176 O 0.02096 0.08734 0.55069 0.0
O177 O 0.04705 0.04839 0.47319 0.0
O178 O 0.01524 0.07096 0.41866 0.0
O179 O 0.96065 0.09095 0.48261 0.0
O180 O 0.92524 0.05212 0.42079 0.0
C181 C 0.088 0.93325 0.44212 0.0
C182 C 0.97919 0.94687 0.45466 0.0
C183 C 0.97924 0.95263 0.59662 0.0
C184 C 0.08807 0.93292 0.57068 0.0
C185 C 0.92686 0.0815 0.5759 0.0
C186 C 0.042 0.07354 0.57555 0.0
C187 C 0.04592 0.06841 0.43639 0.0
C188 C 0.93121 0.07989 0.44986 0.0
O189 O 0.05239 0.91535 0.43966 0.0
O190 O 0.10138 0.9624 0.47002 0.0
O191 O 0.98846 0.97993 0.45389 0.0
O192 O 0.99897 0.93278 0.48076 0.0
Co193 Co 0.54697 0.94313 0.98881 0.0
Co194 Co 0.55836 0.97003 0.08053 0.0
Co195 Co 0.50909 1.00641 0.01227 0.0
O196 O 0.55185 0.98816 0.01813 0.0
H197 H 0.5751 1.00591 0.01101 0.0
O198 O 0.46607 0.02396 1.0073 0.0
Co199 Co 0.46909 0.06903 0.03398 0.0
Co200 Co 0.45943 0.0399 0.94435 0.0
H201 H 0.44301 1.006 0.01455 0.0
O202 O 0.60353 0.96386 0.10372 0.0
O203 O 0.55546 0.92587 0.05585 0.0
O204 O 0.51729 0.96153 0.12253 0.0
O205 O 0.48062 0.97558 0.06413 0.0
O206 O 0.53759 0.04449 0.06409 0.0
O207 O 0.46759 0.10918 0.05971 0.0
O208 O 0.41999 0.05782 0.04643 0.0
O209 O 0.52181 0.08667 0.02724 0.0
O210 O 0.53786 0.03719 0.96022 0.0
O211 O 0.49957 0.04842 0.90119 0.0
O212 O 0.4572 0.08284 0.96511 0.0
O213 O 0.41269 0.03846 0.92002 0.0
C214 C 0.58267 0.92122 0.95883 0.0
C215 C 0.47194 0.93656 0.96787 0.0
C216 C 0.48532 0.96145 0.10513 0.0
C217 C 0.58751 0.93292 0.08199 0.0
C218 C 0.43236 0.0908 0.06227 0.0
C219 C 0.5446 0.07698 0.05571 0.0
C220 C 0.5318 0.04899 0.91783 0.0
C221 C 0.42442 0.07031 0.93962 0.0
O222 O 0.54715 0.90348 0.96028 0.0
O223 O 0.59606 0.95348 0.97762 0.0
O224 O 0.48008 0.96904 0.9596 0.0
O225 O 0.49454 0.92617 0.99514 0.0
Co226 Co 0.03788 0.43471 0.98218 0.0
Co227 Co 0.05509 0.4707 0.06754 0.0
Co228 Co 1.00271 0.50113 1.00042 0.0
O229 O 0.04503 0.48267 1.00274 0.0
H230 H 0.06739 0.49922 0.99089 0.0
O231 O 0.95959 0.5182 0.99742 0.0
Co232 Co 0.96179 0.56377 0.01934 0.0
Co233 Co 0.94991 0.5302 0.93276 0.0
H234 H 0.93728 0.50038 1.00719 0.0
O235 O 0.10008 0.46514 0.08819 0.0
O236 O 0.04748 0.42358 0.05339 0.0
O237 O 0.02114 0.47331 0.1163 0.0
O238 O 0.97761 0.47144 0.05506 0.0
O239 O 0.03226 0.5394 0.05032 0.0
O240 O 0.95818 0.60418 0.04151 0.0
O241 O 0.91248 0.55169 0.02614 0.0
O242 O 0.0151 0.58223 0.01762 0.0
O243 O 0.02789 0.53132 0.94635 0.0
O244 O 0.98464 0.52867 0.88437 0.0
O245 O 0.95414 0.57651 0.94808 0.0
O246 O 0.90485 0.53338 0.90846 0.0
C247 C 0.07207 0.40905 0.95854 0.0
C248 C 0.96424 0.43118 0.95798 0.0
C249 C 0.98729 0.46801 0.10081 0.0
C250 C 0.08107 0.43238 0.07625 0.0
C251 C 0.92303 0.58459 0.04144 0.0
C252 C 0.03837 0.57196 0.0441 0.0
C253 C 0.01842 0.53495 0.90066 0.0
C254 C 0.92208 0.56642 0.92084 0.0
O255 O 0.03649 0.39236 0.96154 0.0
O256 O 0.08621 0.44246 0.97154 0.0
O257 O 0.97334 0.46368 0.95011 0.0
O258 O 0.98492 0.41996 0.9877 0.0
Co259 Co 0.55942 0.45116 0.99489 0.0
Co260 Co 0.5562 0.46557 0.088 0.0
Co261 Co 0.51337 0.50735 0.01871 0.0
O262 O 0.55773 0.49142 0.0312 0.0
H263 H 0.58116 0.51082 0.03219 0.0
O264 O 0.46966 0.52424 0.00832 0.0
Co265 Co 0.47334 0.56939 0.03821 0.0
Co266 Co 0.47024 0.54431 0.94671 0.0
H267 H 0.44581 0.50611 0.01174 0.0
O268 O 0.59926 0.46286 0.12169 0.0
O269 O 0.56343 0.42693 0.05802 0.0
O270 O 0.50935 0.44852 0.11809 0.0
O271 O 0.47744 0.46912 0.0608 0.0
O272 O 0.53304 0.5397 0.07884 0.0
O273 O 0.47349 0.60924 0.06604 0.0
O274 O 0.4231 0.56135 0.04451 0.0
O275 O 0.52574 0.58431 0.03894 0.0
O276 O 0.54912 0.54578 0.97568 0.0
O277 O 0.51419 0.55422 0.91027 0.0
O278 O 0.46952 0.5874 0.97027 0.0
O279 O 0.42728 0.54786 0.91563 0.0
C280 C 0.59948 0.43569 0.96427 0.0
C281 C 0.48938 0.44231 0.95911 0.0
C282 C 0.47857 0.45009 0.09882 0.0
C283 C 0.59083 0.4344 0.09332 0.0
C284 C 0.4375 0.59339 0.06457 0.0
C285 C 0.54325 0.57241 0.07213 0.0
C286 C 0.54618 0.55965 0.93298 0.0
C287 C 0.43982 0.57871 0.93851 0.0
O288 O 0.56433 0.41607 0.9594 0.0
O289 O 0.60993 0.46522 0.9912 0.0
O290 O 0.49335 0.47478 0.9579 0.0
O291 O 0.50751 0.43174 0.99291 0.0
Co292 Co 0.06894 0.47471 0.53798 0.0
Co293 Co 0.05554 0.48153 0.44658 0.0
Co294 Co 1.00476 0.51541 0.50851 0.0
O295 O 0.02617 0.47756 0.49887 0.0
H296 H 1.00633 0.45498 0.49526 0.0
O297 O 0.98348 0.55327 0.51682 0.0
Co298 Co 0.93771 0.5524 0.48119 0.0
Co299 Co 0.95983 0.55269 0.57385 0.0
H300 H 1.00265 0.57606 0.51575 0.0
O301 O 0.05357 0.44191 0.41171 0.0
O302 O 0.09525 0.47111 0.47616 0.0
O303 O 0.07189 0.52577 0.41725 0.0
O304 O 0.03634 0.54809 0.46036 0.0
O305 O 0.96612 0.49225 0.45267 0.0
O306 O 0.89735 0.55648 0.44718 0.0
O307 O 0.95189 0.59884 0.47347 0.0
O308 O 0.91733 0.50214 0.48227 0.0
O309 O 0.97242 0.48256 0.55705 0.0
O310 O 0.94762 0.5109 0.60899 0.0
O311 O 0.9168 0.55847 0.54591 0.0
O312 O 0.96147 0.59428 0.6025 0.0
C313 C 0.08378 0.4349 0.56635 0.0
C314 C 0.07896 0.54648 0.56234 0.0
C315 C 0.06053 0.55071 0.4285 0.0
C316 C 0.08397 0.44614 0.44061 0.0
C317 C 0.91845 0.58944 0.45002 0.0
C318 C 0.93088 0.48361 0.45564 0.0
C319 C 0.953 0.48325 0.59417 0.0
C320 C 0.92976 0.58687 0.57535 0.0
O321 O 0.1058 0.46732 0.57466 0.0
O322 O 0.05166 0.42775 0.54006 0.0
O323 O 0.04371 0.53929 0.56413 0.0
O324 O 0.09215 0.52478 0.54242 0.0
Co325 Co 0.56763 0.96353 0.52651 0.0
Co326 Co 0.53905 0.95901 0.43411 0.0
Co327 Co 0.50102 1.0027 0.50295 0.0
O328 O 0.52121 0.96391 0.49534 0.0
H329 H 0.50172 0.94186 0.5001 0.0
O330 O 0.48021 0.04095 0.51083 0.0
Co331 Co 0.42887 0.0351 0.49315 0.0
Co332 Co 0.4715 0.04671 0.57767 0.0
H333 H 0.4969 0.06293 0.5 0.0
O334 O 0.54381 0.91709 0.4104 0.0
O335 O 0.58596 0.96008 0.45964 0.0
O336 O 0.5444 0.99711 0.39103 0.0
O337 O 0.5264 0.02935 0.44577 0.0
O338 O 0.45754 0.97471 0.4567 0.0
O339 O 0.38287 0.03461 0.4755 0.0
O340 O 0.43663 0.08097 0.48303 0.0
O341 O 0.41378 0.98524 0.49832 0.0
O342 O 0.47601 0.97593 0.55967 0.0
O343 O 0.47754 0.01215 0.62386 0.0
O344 O 0.42141 0.04189 0.56536 0.0
O345 O 0.46799 0.0884 0.6023 0.0
C346 C 0.58639 0.92459 0.55193 0.0
C347 C 0.57851 0.03725 0.54423 0.0
C348 C 0.53989 0.0255 0.40452 0.0
C349 C 0.5773 0.93093 0.43278 0.0
C350 C 0.40045 0.06806 0.47183 0.0
C351 C 0.42395 0.96565 0.4688 0.0
C352 C 0.47536 0.98212 0.60642 0.0
C353 C 0.43256 0.07262 0.58898 0.0
O354 O 0.60832 0.95733 0.55654 0.0
O355 O 0.5524 0.91663 0.53088 0.0
O356 O 0.54404 0.03122 0.54984 0.0
O357 O 0.58979 0.01355 0.52655 0.0
H358 H 0.17677 0.20727 0.38563 0.0
H359 H 0.17048 0.14663 0.24894 0.0
H360 H 0.12202 0.09644 0.28081 0.0
H361 H 0.07888 0.06995 0.34689 0.0
H362 H 0.09015 0.12846 0.48698 0.0
H363 H 0.1388 0.1785 0.45521 0.0
C364 C 0.16472 0.18309 0.36275 0.0
C365 C 0.17695 0.18124 0.31421 0.0
C366 C 0.13774 0.15355 0.38238 0.0
C367 C 0.1615 0.14919 0.28596 0.0
C368 C 0.13374 0.12032 0.30434 0.0
C369 C 0.09271 0.09331 0.37093 0.0
C370 C 0.08109 0.09496 0.41986 0.0
C371 C 0.1214 0.1221 0.35248 0.0
C372 C 0.09895 0.12593 0.44982 0.0
C373 C 0.12659 0.15483 0.43133 0.0
H374 H 0.78593 0.11988 0.41817 0.0
H375 H 0.86555 0.21751 0.37654 0.0
H376 H 0.91723 0.19608 0.39965 0.0
H377 H 0.9395 0.14752 0.42668 0.0
H378 H 0.85838 0.04956 0.46376 0.0
H379 H 0.80778 0.07328 0.44825 0.0
C380 C 0.81456 0.13665 0.41428 0.0
C381 C 0.82168 0.17017 0.39514 0.0
C382 C 0.84401 0.12404 0.42708 0.0
C383 C 0.85912 0.19148 0.39079 0.0
C384 C 0.88874 0.17924 0.40406 0.0
C385 C 0.91078 0.13176 0.43209 0.0
C386 C 0.90254 0.09697 0.44672 0.0
C387 C 0.88152 0.14532 0.4216 0.0
C388 C 0.86524 0.07645 0.45276 0.0
C389 C 0.83633 0.08995 0.44373 0.0
H390 H 0.82476 0.86789 0.33262 0.0
H391 H 0.88099 0.79339 0.30821 0.0
H392 H 0.93645 0.83074 0.35871 0.0
H393 H 0.96864 0.88395 0.41075 0.0
H394 H 0.91512 0.96096 0.43098 0.0
H395 H 0.85871 0.92324 0.38109 0.0
C396 C 0.84924 0.86 0.33833 0.0
C397 C 0.84882 0.82796 0.31707 0.0
C398 C 0.88134 0.88191 0.36669 0.0
C399 C 0.88074 0.81804 0.32408 0.0
C400 C 0.91242 0.83928 0.35312 0.0
C401 C 0.94452 0.89233 0.40433 0.0
C402 C 0.94554 0.92472 0.42464 0.0
C403 C 0.91289 0.8711 0.3748 0.0
C404 C 0.91463 0.93589 0.41553 0.0
C405 C 0.8825 0.91441 0.38715 0.0
H406 H 0.15416 0.84746 0.30028 0.0
H407 H 0.22795 0.8553 0.43376 0.0
H408 H 0.20071 0.89398 0.47538 0.0
H409 H 0.15301 0.92303 0.47579 0.0
H410 H 0.0753 0.90989 0.34523 0.0
H411 H 0.10748 0.87707 0.30019 0.0
C412 C 0.16455 0.85795 0.33824 0.0
C413 C 0.193 0.84837 0.36376 0.0
C414 C 0.14818 0.87964 0.36245 0.0
C415 C 0.20589 0.862 0.41323 0.0
C416 C 0.19042 0.88428 0.43709 0.0
C417 C 0.14367 0.91347 0.43722 0.0
C418 C 0.11208 0.91908 0.41364 0.0
C419 C 0.1612 0.89299 0.41233 0.0
C420 C 0.09977 0.90606 0.36394 0.0
C421 C 0.11799 0.88709 0.33829 0.0
H422 H 0.16594 0.81815 0.56269 0.0
H423 H 0.2375 0.88674 0.68266 0.0
H424 H 0.20195 0.92649 0.67332 0.0
H425 H 0.14998 0.94104 0.63305 0.0
H426 H 0.07635 0.87177 0.51542 0.0
H427 H 0.11358 0.8331 0.5217 0.0
C428 C 0.17387 0.84188 0.58663 0.0
C429 C 0.20429 0.84941 0.62341 0.0
C430 C 0.15296 0.86443 0.58157 0.0
C431 C 0.21413 0.88022 0.6542 0.0
C432 C 0.19383 0.90299 0.64891 0.0
C433 C 0.14196 0.9175 0.60869 0.0
C434 C 0.11041 0.90936 0.5738 0.0
C435 C 0.16305 0.8952 0.61305 0.0
C436 C 0.10048 0.87867 0.54268 0.0
C437 C 0.12176 0.85654 0.54625 0.0
H438 H 0.20075 0.15152 0.68923 0.0
H439 H 0.14426 0.22287 0.73058 0.0
H440 H 0.08715 0.18642 0.68231 0.0
H441 H 0.05344 0.13512 0.62612 0.0
H442 H 0.10797 0.06149 0.58902 0.0
H443 H 0.16559 0.09797 0.6375 0.0
C444 C 0.17584 0.15888 0.68817 0.0
C445 C 0.17711 0.19029 0.71274 0.0
C446 C 0.14278 0.13755 0.66062 0.0
C447 C 0.14441 0.19927 0.71114 0.0
C448 C 0.11162 0.1784 0.68358 0.0
C449 C 0.07806 0.12726 0.62854 0.0
C450 C 0.07677 0.09602 0.60383 0.0
C451 C 0.11066 0.14781 0.65752 0.0
C452 C 0.10848 0.08559 0.60783 0.0
C453 C 0.14136 0.10637 0.63556 0.0
H454 H 0.8179 0.13901 0.68708 0.0
H455 H 0.84358 0.21124 0.56743 0.0
H456 H 0.8809 0.17981 0.53148 0.0
H457 H 0.91091 0.13542 0.53871 0.0
H458 H 0.8814 0.05906 0.65191 0.0
H459 H 0.84113 0.08868 0.6867 0.0
C460 C 0.83155 0.14761 0.65302 0.0
C461 C 0.82861 0.17763 0.63031 0.0
C462 C 0.85233 0.1289 0.63182 0.0
C463 C 0.84567 0.18827 0.58565 0.0
C464 C 0.86708 0.17042 0.56514 0.0
C465 C 0.89464 0.12466 0.56991 0.0
C466 C 0.89843 0.09512 0.59252 0.0
C467 C 0.87114 0.14117 0.58845 0.0
C468 C 0.87827 0.08168 0.63381 0.0
C469 C 0.85554 0.0987 0.65372 0.0
H470 H 0.87744 0.85544 0.75399 0.0
H471 H 0.79765 0.82298 0.62452 0.0
H472 H 0.84069 0.86618 0.57436 0.0
H473 H 0.90386 0.91197 0.56523 0.0
H474 H 0.98222 0.94456 0.69671 0.0
H475 H 0.93756 0.90395 0.7469 0.0
C476 C 0.86925 0.85807 0.71496 0.0
C477 C 0.83378 0.83585 0.69361 0.0
C478 C 0.89432 0.88352 0.68606 0.0
C479 C 0.82421 0.83987 0.64264 0.0
C480 C 0.84911 0.86464 0.61362 0.0
C481 C 0.91084 0.91085 0.60508 0.0
C482 C 0.94697 0.93193 0.62661 0.0
C483 C 0.88457 0.88665 0.63462 0.0
C484 C 0.95506 0.92905 0.67848 0.0
C485 C 0.92942 0.9055 0.70754 0.0
H486 H 0.31291 0.1443 0.16045 0.0
H487 H 0.40288 0.2431 0.15242 0.0
H488 H 0.43928 0.21378 0.11006 0.0
H489 H 0.44787 0.16028 0.08028 0.0
H490 H 0.35967 0.06046 0.08765 0.0
H491 H 0.3203 0.08992 0.12471 0.0
C492 C 0.3402 0.1594 0.14865 0.0
C493 C 0.35516 0.19589 0.15994 0.0
C494 C 0.36154 0.14217 0.1246 0.0
C495 C 0.39072 0.21501 0.14465 0.0
C496 C 0.41168 0.19826 0.12041 0.0
C497 C 0.42001 0.14481 0.08987 0.0
C498 C 0.40702 0.10811 0.08185 0.0
C499 C 0.39775 0.16184 0.11116 0.0
C500 C 0.37054 0.08872 0.09376 0.0
C501 C 0.34802 0.10559 0.115 0.0
H502 H 0.8711 0.36524 0.22942 0.0
H503 H 0.79479 0.39393 0.127 0.0
H504 H 0.84783 0.43769 0.0915 0.0
H505 H 0.91526 0.46381 0.08611 0.0
H506 H 0.99185 0.43368 0.18698 0.0
H507 H 0.93905 0.39521 0.22869 0.0
C508 C 0.86638 0.38133 0.19952 0.0
C509 C 0.82983 0.37654 0.17983 0.0
C510 C 0.89675 0.40617 0.17981 0.0
C511 C 0.82317 0.39729 0.14166 0.0
C512 C 0.8533 0.42223 0.12178 0.0
C513 C 0.92047 0.44914 0.1176 0.0
C514 C 0.95722 0.45102 0.13296 0.0
C515 C 0.89015 0.42639 0.14007 0.0
C516 C 0.96372 0.43252 0.17445 0.0
C517 C 0.93359 0.41029 0.19791 0.0
H518 H 0.62269 0.79617 0.13629 0.0
H519 H 0.72848 0.87335 0.19222 0.0
H520 H 0.7082 0.92011 0.15873 0.0
H521 H 0.65788 0.93964 0.12159 0.0
H522 H 0.55272 0.8624 0.06361 0.0
H523 H 0.57544 0.8153 0.08932 0.0
C524 C 0.64155 0.82316 0.14042 0.0
C525 C 0.67688 0.83119 0.16728 0.0
C526 C 0.62967 0.85004 0.12115 0.0
C527 C 0.70112 0.86632 0.17179 0.0
C528 C 0.68944 0.89317 0.15292 0.0
C529 C 0.64006 0.9125 0.11416 0.0
C530 C 0.60336 0.90464 0.09167 0.0
C531 C 0.65337 0.88544 0.12886 0.0
C532 C 0.58094 0.86929 0.08137 0.0
C533 C 0.59388 0.84227 0.09616 0.0
H534 H 0.19164 0.6627 0.16143 0.0
H535 H 0.14586 0.74529 0.13496 0.0
H536 H 0.09072 0.70334 0.08783 0.0
H537 H 0.05462 0.64271 0.05668 0.0
H538 H 0.10033 0.56035 0.08631 0.0
H539 H 0.15655 0.60292 0.12947 0.0
C540 C 0.16986 0.67175 0.14504 0.0
C541 C 0.17308 0.70723 0.15168 0.0
C542 C 0.13812 0.64747 0.11865 0.0
C543 C 0.14421 0.71819 0.13048 0.0
C544 C 0.11264 0.6942 0.10353 0.0
C545 C 0.07699 0.6341 0.07227 0.0
C546 C 0.07314 0.59831 0.06829 0.0
C547 C 0.10916 0.65869 0.09773 0.0
C548 C 0.10237 0.58764 0.089 0.0
C549 C 0.13459 0.61198 0.11368 0.0
H550 H 0.3341 0.80204 0.89877 0.0
H551 H 0.32766 0.86401 0.77128 0.0
H552 H 0.37773 0.91454 0.81297 0.0
H553 H 0.42827 0.93896 0.88215 0.0
H554 H 0.43444 0.8747 1.0071 0.0
H555 H 0.37956 0.8275 0.96998 0.0
C556 C 0.34321 0.82666 0.88006 0.0
C557 C 0.32745 0.82891 0.83142 0.0
C558 C 0.37246 0.8552 0.90367 0.0
C559 C 0.33955 0.8613 0.8084 0.0
C560 C 0.36834 0.89019 0.83216 0.0
C561 C 0.41723 0.91478 0.90146 0.0
C562 C 0.43585 0.91021 0.94701 0.0
C563 C 0.38581 0.88715 0.87923 0.0
C564 C 0.42114 0.87873 0.97161 0.0
C565 C 0.38967 0.85167 0.95044 0.0
H566 H 0.14891 0.31085 0.86159 0.0
H567 H 0.24741 0.40236 0.89733 0.0
H568 H 0.20992 0.43136 0.93877 0.0
H569 H 0.14823 0.43277 0.9582 0.0
H570 H 0.04965 0.34161 0.92049 0.0
H571 H 0.08812 0.31055 0.88676 0.0
C572 C 0.16231 0.33691 0.87916 0.0
C573 C 0.20083 0.3545 0.87595 0.0
C574 C 0.14047 0.35375 0.90205 0.0
C575 C 0.21772 0.38829 0.89891 0.0
C576 C 0.19629 0.40498 0.92249 0.0
C577 C 0.13519 0.40607 0.94276 0.0
C578 C 0.09607 0.38979 0.94118 0.0
C579 C 0.15746 0.38833 0.92308 0.0
C580 C 0.07969 0.35495 0.92179 0.0
C581 C 0.10165 0.3371 0.90246 0.0
H582 H 0.66975 0.13338 0.80144 0.0
H583 H 0.66645 0.21609 0.90352 0.0
H584 H 0.61467 0.17458 0.943 0.0
H585 H 0.5672 0.11603 0.94402 0.0
H586 H 0.56902 0.03319 0.84214 0.0
H587 H 0.62445 0.0736 0.80622 0.0
C588 C 0.65817 0.1422 0.83291 0.0
C589 C 0.67182 0.17781 0.84937 0.0
C590 C 0.62777 0.11835 0.85464 0.0
C591 C 0.65638 0.18885 0.89005 0.0
C592 C 0.62663 0.1652 0.91245 0.0
C593 C 0.58001 0.10699 0.91409 0.0
C594 C 0.56435 0.07223 0.89505 0.0
C595 C 0.61157 0.13018 0.8942 0.0
C596 C 0.58071 0.06021 0.85654 0.0
C597 C 0.61235 0.08319 0.83639 0.0
H598 H 0.84312 0.65758 0.80119 0.0
H599 H 0.88243 0.72561 0.93467 0.0
H600 H 0.91337 0.68588 0.96966 0.0
H601 H 0.92845 0.63109 0.96172 0.0
H602 H 0.88118 0.56049 0.83214 0.0
H603 H 0.85478 0.60236 0.79554 0.0
C604 C 0.85882 0.66401 0.83774 0.0
C605 C 0.86107 0.69479 0.86497 0.0
C606 C 0.87507 0.64053 0.85819 0.0
C607 C 0.88064 0.70221 0.91283 0.0
C608 C 0.89825 0.67949 0.9328 0.0
C609 C 0.91204 0.62475 0.92583 0.0
C610 C 0.90645 0.59252 0.89998 0.0
C611 C 0.89548 0.64842 0.90584 0.0
C612 C 0.88551 0.58491 0.85308 0.0
C613 C 0.87049 0.60887 0.83203 0.0
H614 H 0.13346 0.31533 0.1753 0.0
H615 H 0.24104 0.3899 0.14675 0.0
H616 H 0.21044 0.42483 0.09965 0.0
H617 H 0.15391 0.43886 0.07747 0.0
H618 H 0.04568 0.3656 0.10511 0.0
H619 H 0.07545 0.32538 0.1411 0.0
C620 C 0.15005 0.33866 0.15747 0.0
C621 C 0.18946 0.35026 0.16495 0.0
C622 C 0.13217 0.35923 0.13112 0.0
C623 C 0.21067 0.38067 0.14196 0.0
C624 C 0.19322 0.40076 0.11518 0.0
C625 C 0.13684 0.41386 0.0908 0.0
C626 C 0.09784 0.40545 0.08973 0.0
C627 C 0.15411 0.3911 0.11137 0.0
C628 C 0.07586 0.37269 0.10594 0.0
C629 C 0.0929 0.34978 0.1267 0.0
H630 H 0.15089 0.60469 0.76838 0.0
H631 H 0.17641 0.68408 0.88893 0.0
H632 H 0.11936 0.65104 0.92664 0.0
H633 H 0.06482 0.59836 0.92833 0.0
H634 H 0.0373 0.5186 0.80881 0.0
H635 H 0.0927 0.5533 0.76684 0.0
C636 C 0.14383 0.61468 0.80284 0.0
C637 C 0.16787 0.64641 0.82632 0.0
C638 C 0.11087 0.59565 0.82419 0.0
C639 C 0.15831 0.65957 0.87039 0.0
C640 C 0.12578 0.64076 0.89198 0.0
C641 C 0.07092 0.58884 0.8928 0.0
C642 C 0.0479 0.55624 0.87147 0.0
C643 C 0.1023 0.60864 0.86959 0.0
C644 C 0.05514 0.54388 0.82539 0.0
C645 C 0.08672 0.56353 0.8018 0.0
H646 H 0.31346 0.1446 0.85581 0.0
H647 H 0.40716 0.23657 0.90781 0.0
H648 H 0.43926 0.19968 0.94752 0.0
H649 H 0.44434 0.14117 0.95714 0.0
H650 H 0.35185 0.04949 0.9002 0.0
H651 H 0.31573 0.08628 0.87326 0.0
C652 C 0.3405 0.1566 0.87684 0.0
C653 C 0.35805 0.19321 0.87846 0.0
C654 C 0.35939 0.13521 0.89801 0.0
C655 C 0.3932 0.20837 0.90566 0.0
C656 C 0.41166 0.1873 0.9282 0.0
C657 C 0.41612 0.12923 0.93941 0.0
C658 C 0.4012 0.09269 0.92975 0.0
C659 C 0.39566 0.15064 0.92292 0.0
C660 C 0.36437 0.07762 0.90728 0.0
C661 C 0.34359 0.09863 0.89188 0.0
H662 H 0.81546 0.35045 0.82437 0.0
H663 H 0.84818 0.26148 0.86279 0.0
H664 H 0.90244 0.30003 0.91551 0.0
H665 H 0.94184 0.35956 0.9482 0.0
H666 H 0.90859 0.4479 0.9072 0.0
H667 H 0.85324 0.40887 0.85818 0.0
C668 C 0.83428 0.33932 0.8444 0.0
C669 C 0.82776 0.30311 0.83943 0.0
C670 C 0.86543 0.36156 0.87419 0.0
C671 C 0.85258 0.2893 0.86574 0.0
C672 C 0.88361 0.31132 0.89593 0.0
C673 C 0.92228 0.37019 0.92891 0.0
C674 C 0.92948 0.40662 0.93132 0.0
C675 C 0.89049 0.34757 0.90012 0.0
C676 C 0.90393 0.42 0.90585 0.0
C677 C 0.8722 0.39771 0.87775 0.0
H678 H 0.70188 0.8674 0.86056 0.0
H679 H 0.6043 0.77301 0.84245 0.0
H680 H 0.56798 0.80207 0.88474 0.0
H681 H 0.56236 0.85399 0.92406 0.0
H682 H 0.65807 0.94944 0.94449 0.0
H683 H 0.69658 0.92017 0.90477 0.0
C684 C 0.67282 0.85318 0.8664 0.0
C685 C 0.65597 0.81804 0.84798 0.0
C686 C 0.65158 0.8702 0.89106 0.0
C687 C 0.61817 0.80005 0.85585 0.0
C688 C 0.59718 0.81664 0.8801 0.0
C689 C 0.59167 0.86857 0.92003 0.0
C690 C 0.60715 0.90398 0.93684 0.0
C691 C 0.61341 0.85171 0.89731 0.0
C692 C 0.64532 0.92218 0.93159 0.0
C693 C 0.66735 0.90544 0.90886 0.0
H694 H 0.78994 0.62551 0.119 0.0
H695 H 0.87349 0.72909 0.12189 0.0
H696 H 0.91718 0.70473 0.08598 0.0
H697 H 0.93331 0.65357 0.06003 0.0
H698 H 0.84982 0.55 0.0576 0.0
H699 H 0.80454 0.57489 0.08732 0.0
C700 C 0.81755 0.64287 0.11126 0.0
C701 C 0.82849 0.67905 0.12356 0.0
C702 C 0.84274 0.62865 0.09133 0.0
C703 C 0.86433 0.70113 0.11297 0.0
C704 C 0.88943 0.6872 0.09266 0.0
C705 C 0.90518 0.63642 0.0659 0.0
C706 C 0.89514 0.59992 0.05723 0.0
C707 C 0.87923 0.65091 0.08283 0.0
C708 C 0.8584 0.57816 0.06429 0.0
C709 C 0.83246 0.59238 0.08126 0.0
H710 H 0.36531 0.84158 0.20674 0.0
H711 H 0.30288 0.8388 0.06416 0.0
H712 H 0.35231 0.89172 0.04114 0.0
H713 H 0.41536 0.93469 0.05846 0.0
H714 H 0.47953 0.93451 0.19862 0.0
H715 H 0.42645 0.88692 0.22635 0.0
C716 C 0.36233 0.85258 0.17064 0.0
C717 C 0.33074 0.836 0.13679 0.0
C718 C 0.39095 0.88247 0.15752 0.0
C719 C 0.32701 0.85098 0.09069 0.0
C720 C 0.35525 0.88117 0.07756 0.0
C721 C 0.41759 0.92484 0.09558 0.0
C722 C 0.45148 0.93806 0.12645 0.0
C723 C 0.38764 0.89664 0.11031 0.0
C724 C 0.45384 0.92472 0.17418 0.0
C725 C 0.42361 0.89741 0.18986 0.0
H726 H 0.68198 0.21099 0.13366 0.0
H727 H 0.69567 0.14017 0.2457 0.0
H728 H 0.64397 0.09213 0.20219 0.0
H729 H 0.59175 0.07122 0.13529 0.0
H730 H 0.57642 0.14409 0.02745 0.0
H731 H 0.63192 0.18993 0.0659 0.0
C732 C 0.6742 0.18493 0.14821 0.0
C733 C 0.69285 0.17933 0.19302 0.0
C734 C 0.6438 0.15768 0.12379 0.0
C735 C 0.68185 0.14535 0.21141 0.0
C736 C 0.65216 0.11785 0.18659 0.0
C737 C 0.60076 0.09704 0.11995 0.0
C738 C 0.57978 0.10401 0.07834 0.0
C739 C 0.6324 0.12385 0.14325 0.0
C740 C 0.59184 0.13778 0.0593 0.0
C741 C 0.62365 0.16415 0.08136 0.0
H742 H 0.64628 0.70091 0.83927 0.0
H743 H 0.72141 0.64283 0.82396 0.0
H744 H 0.67915 0.59366 0.86588 0.0
H745 H 0.61835 0.56506 0.90495 0.0
H746 H 0.54424 0.62432 0.91902 0.0
H747 H 0.58807 0.67407 0.88094 0.0
C748 C 0.65363 0.6776 0.84502 0.0
C749 C 0.68741 0.67614 0.82758 0.0
C750 C 0.629 0.64903 0.86961 0.0
C751 C 0.69587 0.64528 0.83633 0.0
C752 C 0.67153 0.61686 0.86058 0.0
C753 C 0.61209 0.58902 0.90041 0.0
C754 C 0.57756 0.5905 0.91531 0.0
C755 C 0.6377 0.61813 0.87728 0.0
C756 C 0.57025 0.62201 0.90814 0.0
C757 C 0.5954 0.65069 0.88605 0.0
H758 H 0.37605 0.70235 0.91092 0.0
H759 H 0.31246 0.63345 0.7861 0.0
H760 H 0.34344 0.59125 0.80722 0.0
H761 H 0.38702 0.57325 0.86227 0.0
H762 H 0.45314 0.64324 0.98452 0.0
H763 H 0.42225 0.68556 0.96363 0.0
C764 C 0.36907 0.67815 0.88825 0.0
C765 C 0.34188 0.67093 0.84722 0.0
C766 C 0.38709 0.65409 0.90042 0.0
C767 C 0.33336 0.63964 0.81785 0.0
C768 C 0.35093 0.61543 0.83001 0.0
C769 C 0.39467 0.59771 0.88448 0.0
C770 C 0.42179 0.60473 0.92556 0.0
C771 C 0.37755 0.62226 0.87146 0.0
C772 C 0.43185 0.63686 0.9533 0.0
C773 C 0.41436 0.66119 0.94119 0.0
H774 H 0.38536 0.30987 0.83018 0.0
H775 H 0.32818 0.38186 0.78829 0.0
H776 H 0.37788 0.42985 0.83428 0.0
H777 H 0.43379 0.44977 0.89475 0.0
H778 H 0.48814 0.37601 0.93984 0.0
H779 H 0.44344 0.33049 0.88434 0.0
C780 C 0.38398 0.33605 0.83037 0.0
C781 C 0.35275 0.34198 0.80666 0.0
C782 C 0.41199 0.36327 0.85814 0.0
C783 C 0.35169 0.37637 0.80695 0.0
C784 C 0.38005 0.40388 0.83336 0.0
C785 C 0.43604 0.42385 0.89192 0.0
C786 C 0.46389 0.41621 0.92186 0.0
C787 C 0.40969 0.39737 0.86055 0.0
C788 C 0.46661 0.38252 0.91771 0.0
C789 C 0.44112 0.3564 0.88587 0.0
H790 H 0.72579 0.37976 0.89718 0.0
H791 H 0.63688 0.3256 0.78372 0.0
H792 H 0.59715 0.35569 0.81643 0.0
H793 H 0.58577 0.39379 0.88062 0.0
H794 H 0.67394 0.44912 0.9938 0.0
H795 H 0.71603 0.42236 0.95761 0.0
C796 C 0.69785 0.3748 0.87929 0.0
C797 C 0.68425 0.35009 0.8383 0.0
C798 C 0.67498 0.39224 0.8984 0.0
C799 C 0.6481 0.3443 0.81534 0.0
C800 C 0.62526 0.36143 0.83414 0.0
C801 C 0.61432 0.40021 0.89721 0.0
C802 C 0.62669 0.42312 0.94007 0.0
C803 C 0.63813 0.38485 0.8762 0.0
C804 C 0.66385 0.43162 0.96072 0.0
C805 C 0.68779 0.41617 0.94017 0.0
H806 H 0.65675 0.31151 0.11271 0.0
H807 H 0.69371 0.3607 0.26108 0.0
H808 H 0.66424 0.40442 0.2413 0.0
H809 H 0.62995 0.42986 0.18076 0.0
H810 H 0.5917 0.37938 0.03336 0.0
H811 H 0.62042 0.33538 0.05359 0.0
C812 C 0.65813 0.3316 0.14096 0.0
C813 C 0.67749 0.33283 0.18832 0.0
C814 C 0.64142 0.35676 0.1292 0.0
C815 C 0.67884 0.359 0.22445 0.0
C816 C 0.66223 0.38417 0.21302 0.0
C817 C 0.62806 0.40934 0.15295 0.0
C818 C 0.60912 0.40825 0.10532 0.0
C819 C 0.64389 0.38358 0.16528 0.0
C820 C 0.60639 0.38111 0.07008 0.0
C821 C 0.62266 0.3558 0.08172 0.0
H822 H 0.69657 0.69039 0.12875 0.0
H823 H 0.65983 0.66901 0.27764 0.0
H824 H 0.6066 0.61836 0.24356 0.0
H825 H 0.56686 0.58457 0.17005 0.0
H826 H 0.60054 0.61129 0.02129 0.0
H827 H 0.65909 0.65524 0.0565 0.0
C828 C 0.67722 0.67439 0.15387 0.0
C829 C 0.6817 0.68352 0.20542 0.0
C830 C 0.64614 0.64639 0.1339 0.0
C831 C 0.65652 0.6626 0.23761 0.0
C832 C 0.62617 0.63371 0.21821 0.0
C833 C 0.58751 0.59971 0.14573 0.0
C834 C 0.57995 0.5951 0.09354 0.0
C835 C 0.62013 0.62601 0.16624 0.0
C836 C 0.60618 0.61479 0.06171 0.0
C837 C 0.63947 0.63986 0.08178 0.0
H838 H 0.37032 0.70027 0.16174 0.0
H839 H 0.27332 0.60662 0.16498 0.0
H840 H 0.30636 0.57225 0.12505 0.0
H841 H 0.36372 0.56852 0.08935 0.0
H842 H 0.4597 0.66332 0.08624 0.0
H843 H 0.42619 0.69698 0.125 0.0
C844 C 0.3564 0.67231 0.15403 0.0
C845 C 0.3194 0.65619 0.16685 0.0
C846 C 0.37543 0.65267 0.13053 0.0
C847 C 0.30184 0.61988 0.15586 0.0
C848 C 0.32072 0.60012 0.13281 0.0
C849 C 0.37714 0.59655 0.09687 0.0
C850 C 0.41442 0.61307 0.08501 0.0
C851 C 0.35761 0.61619 0.11984 0.0
C852 C 0.43125 0.64955 0.09521 0.0
C853 C 0.41208 0.66904 0.11752 0.0
H854 H 0.35642 0.31081 0.16517 0.0
H855 H 0.32834 0.38463 0.25861 0.0
H856 H 0.37565 0.43344 0.22245 0.0
H857 H 0.42756 0.45584 0.16563 0.0
H858 H 0.45307 0.38154 0.07021 0.0
H859 H 0.40462 0.33305 0.10489 0.0
C860 C 0.36065 0.33754 0.17791 0.0
C861 C 0.33877 0.34356 0.21551 0.0
C862 C 0.38755 0.36583 0.15592 0.0
C863 C 0.34462 0.37875 0.23029 0.0
C864 C 0.37178 0.40688 0.20938 0.0
C865 C 0.42184 0.42911 0.15159 0.0
C866 C 0.44372 0.4226 0.11439 0.0
C867 C 0.39362 0.4009 0.17216 0.0
C868 C 0.43637 0.38754 0.0979 0.0
C869 C 0.40878 0.35965 0.11816 0.0
H870 H 0.88121 0.71618 0.61706 0.0
H871 H 0.78051 0.63487 0.65392 0.0
H872 H 0.8034 0.59011 0.62012 0.0
H873 H 0.85662 0.57402 0.59233 0.0
H874 H 0.9589 0.65617 0.56351 0.0
H875 H 0.9308 0.7006 0.58119 0.0
C876 C 0.86387 0.68871 0.61689 0.0
C877 C 0.82948 0.67892 0.63872 0.0
C878 C 0.87778 0.66318 0.5992 0.0
C879 C 0.80722 0.64319 0.63759 0.0
C880 C 0.82041 0.61753 0.61857 0.0
C881 C 0.87224 0.60164 0.58889 0.0
C882 C 0.90974 0.61207 0.57714 0.0
C883 C 0.85632 0.62716 0.60113 0.0
C884 C 0.93006 0.64779 0.57305 0.0
C885 C 0.91404 0.67314 0.58319 0.0
H886 H 0.38323 0.85938 0.72829 0.0
H887 H 0.39911 0.80219 0.59946 0.0
H888 H 0.44952 0.85441 0.57637 0.0
H889 H 0.47673 0.91794 0.58208 0.0
H890 H 0.45091 0.97721 0.70151 0.0
H891 H 0.41773 0.92258 0.74068 0.0
C892 C 0.39889 0.85825 0.69638 0.0
C893 C 0.38808 0.82753 0.6655 0.0
C894 C 0.4254 0.88891 0.68146 0.0
C895 C 0.40762 0.82578 0.62372 0.0
C896 C 0.43599 0.85565 0.61039 0.0
C897 C 0.46435 0.91905 0.61714 0.0
C898 C 0.46493 0.95143 0.63791 0.0
C899 C 0.44326 0.88774 0.63722 0.0
C900 C 0.45011 0.95253 0.68427 0.0
C901 C 0.43095 0.92131 0.70645 0.0
H902 H 0.11376 0.30648 0.66443 0.0
H903 H 0.22826 0.375 0.657 0.0
H904 H 0.20643 0.41723 0.61259 0.0
H905 H 0.15502 0.4371 0.58321 0.0
H906 H 0.04044 0.3691 0.58967 0.0
H907 H 0.06214 0.324 0.62708 0.0
C908 C 0.13394 0.33047 0.65259 0.0
C909 C 0.17252 0.33786 0.66471 0.0
C910 C 0.12121 0.35481 0.62747 0.0
C911 C 0.19838 0.3688 0.64849 0.0
C912 C 0.18595 0.39304 0.62328 0.0
C913 C 0.13482 0.41236 0.59278 0.0
C914 C 0.09629 0.40655 0.5849 0.0
C915 C 0.14746 0.38674 0.61391 0.0
C916 C 0.0703 0.37413 0.59596 0.0
C917 C 0.08268 0.34844 0.61736 0.0
H918 H 0.71535 0.17152 0.62029 0.0
H919 H 0.62613 0.20505 0.66765 0.0
H920 H 0.57967 0.15193 0.62694 0.0
H921 H 0.56471 0.0935 0.58512 0.0
H922 H 0.65472 0.05956 0.5416 0.0
H923 H 0.70055 0.11541 0.57404 0.0
C924 C 0.68576 0.16761 0.62122 0.0
C925 C 0.67435 0.19229 0.6474 0.0
C926 C 0.65932 0.13663 0.5991 0.0
C927 C 0.6358 0.18665 0.64775 0.0
C928 C 0.60921 0.15609 0.62483 0.0
C929 C 0.59434 0.09831 0.58248 0.0
C930 C 0.60619 0.07202 0.56147 0.0
C931 C 0.62068 0.13046 0.60164 0.0
C932 C 0.64472 0.07904 0.55795 0.0
C933 C 0.671 0.11104 0.57642 0.0
H934 H 0.85014 0.34994 0.31224 0.0
H935 H 0.76725 0.33204 0.42003 0.0
H936 H 0.80392 0.38765 0.46506 0.0
H937 H 0.86117 0.44041 0.47569 0.0
H938 H 0.94489 0.45591 0.36928 0.0
H939 H 0.9061 0.40256 0.32153 0.0
C940 C 0.83986 0.35835 0.34524 0.0
C941 C 0.80602 0.33686 0.36268 0.0
C942 C 0.86133 0.38998 0.3713 0.0
C943 C 0.79333 0.34802 0.40593 0.0
C944 C 0.81426 0.37983 0.43167 0.0
C945 C 0.87068 0.43219 0.44183 0.0
C946 C 0.90586 0.45205 0.42613 0.0
C947 C 0.84854 0.40089 0.41501 0.0
C948 C 0.91804 0.44095 0.38242 0.0
C949 C 0.89587 0.41045 0.355 0.0
H950 H 0.71816 0.88763 0.39919 0.0
H951 H 0.63128 0.79144 0.34394 0.0
H952 H 0.58338 0.81451 0.36893 0.0
H953 H 0.56602 0.86423 0.39842 0.0
H954 H 0.65283 0.96003 0.45502 0.0
H955 H 0.70078 0.93477 0.43792 0.0
C956 C 0.68877 0.87153 0.39326 0.0
C957 C 0.67836 0.83809 0.36908 0.0
C958 C 0.66129 0.88502 0.40744 0.0
C959 C 0.64014 0.81735 0.36229 0.0
C960 C 0.61266 0.83059 0.3763 0.0
C961 C 0.59543 0.87951 0.4072 0.0
C962 C 0.60587 0.91422 0.42683 0.0
C963 C 0.62289 0.86477 0.3975 0.0
C964 C 0.64404 0.93339 0.43924 0.0
C965 C 0.67151 0.91897 0.42947 0.0
H966 H 0.1114 0.7019 0.34442 0.0
H967 H 0.21303 0.6788 0.33006 0.0
H968 H 0.18425 0.62107 0.36377 0.0
H969 H 0.12981 0.57697 0.39577 0.0
H970 H 0.02926 0.60129 0.41361 0.0
H971 H 0.058 0.65888 0.37964 0.0
C972 C 0.12726 0.68425 0.3488 0.0
C973 C 0.16413 0.69439 0.33464 0.0
C974 C 0.11067 0.65134 0.36838 0.0
C975 C 0.1846 0.67153 0.34097 0.0
C976 C 0.16811 0.6385 0.35993 0.0
C977 C 0.11411 0.59478 0.39174 0.0
C978 C 0.07736 0.58484 0.40638 0.0
C979 C 0.13107 0.62805 0.37332 0.0
C980 C 0.05756 0.60839 0.40222 0.0
C981 C 0.07396 0.64128 0.38293 0.0
H982 H 0.28454 0.13455 0.38156 0.0
H983 H 0.38575 0.218 0.35233 0.0
H984 H 0.42342 0.18854 0.39936 0.0
H985 H 0.42735 0.13528 0.44014 0.0
H986 H 0.32496 0.05184 0.46637 0.0
H987 H 0.28807 0.08518 0.42947 0.0
C988 C 0.31485 0.14657 0.38604 0.0
C989 C 0.33238 0.17814 0.36302 0.0
C990 C 0.33614 0.12924 0.41215 0.0
C991 C 0.3716 0.19369 0.36975 0.0
C992 C 0.39313 0.17669 0.3963 0.0
C993 C 0.39699 0.12465 0.43833 0.0
C994 C 0.37897 0.09078 0.45506 0.0
C995 C 0.37572 0.14388 0.41633 0.0
C996 C 0.33959 0.0775 0.45289 0.0
C997 C 0.3184 0.09658 0.43188 0.0
H998 H 0.63599 0.79242 0.58982 0.0
H999 H 0.71138 0.86528 0.70182 0.0
H1000 H 0.6846 0.91026 0.67853 0.0
H1001 H 0.64113 0.92951 0.62486 0.0
H1002 H 0.56392 0.85693 0.51407 0.0
H1003 H 0.58998 0.81135 0.53776 0.0
C1004 C 0.64627 0.81815 0.60896 0.0
C1005 C 0.67563 0.8259 0.64709 0.0
C1006 C 0.63059 0.84393 0.59541 0.0
C1007 C 0.68888 0.85911 0.67207 0.0
C1008 C 0.67362 0.88476 0.65881 0.0
C1009 C 0.62997 0.90367 0.60603 0.0
C1010 C 0.60078 0.89656 0.5678 0.0
C1011 C 0.64472 0.87759 0.62027 0.0
C1012 C 0.58628 0.86291 0.54394 0.0
C1013 C 0.60125 0.83688 0.55734 0.0
H1014 H 0.6608 0.14962 0.31887 0.0
H1015 H 0.61901 0.20729 0.42243 0.0
H1016 H 0.56497 0.15422 0.43316 0.0
H1017 H 0.53706 0.09035 0.42371 0.0
H1018 H 0.58261 0.03246 0.32452 0.0
H1019 H 0.62702 0.08729 0.29918 0.0
C1020 C 0.63935 0.15051 0.34301 0.0
C1021 C 0.64365 0.18147 0.37079 0.0
C1022 C 0.60925 0.12012 0.34938 0.0
C1023 C 0.61596 0.18323 0.40138 0.0
C1024 C 0.58531 0.15303 0.4074 0.0
C1025 C 0.5561 0.08966 0.39568 0.0
C1026 C 0.55742 0.05736 0.37729 0.0
C1027 C 0.58266 0.12108 0.38317 0.0
C1028 C 0.58147 0.05695 0.33992 0.0
C1029 C 0.60709 0.08826 0.32573 0.0
H1030 H 0.88763 0.71608 0.3464 0.0
H1031 H 0.77848 0.6375 0.31152 0.0
H1032 H 0.79811 0.59527 0.36042 0.0
H1033 H 0.84809 0.5797 0.4074 0.0
H1034 H 0.957 0.65907 0.4419 0.0
H1035 H 0.93553 0.70208 0.39885 0.0
C1036 C 0.86799 0.68977 0.34976 0.0
C1037 C 0.8318 0.67975 0.3249 0.0
C1038 C 0.87954 0.66575 0.37751 0.0
C1039 C 0.80649 0.6458 0.33029 0.0
C1040 C 0.8178 0.62163 0.35799 0.0
C1041 C 0.8671 0.60645 0.40569 0.0
C1042 C 0.90434 0.61598 0.42712 0.0
C1043 C 0.85454 0.63113 0.38082 0.0
C1044 C 0.92836 0.65089 0.42529 0.0
C1045 C 0.91611 0.67553 0.40067 0.0
H1046 H 0.29065 0.84776 0.35069 0.0
H1047 H 0.37553 0.80069 0.3362 0.0
H1048 H 0.42055 0.84899 0.38946 0.0
H1049 H 0.43638 0.90723 0.43401 0.0
H1050 H 0.3488 0.95085 0.45181 0.0
H1051 H 0.30349 0.90034 0.40445 0.0
C1052 C 0.31859 0.84735 0.36045 0.0
C1053 C 0.32969 0.82062 0.33988 0.0
C1054 C 0.34374 0.87464 0.39139 0.0
C1055 C 0.36627 0.82083 0.35206 0.0
C1056 C 0.392 0.84855 0.38215 0.0
C1057 C 0.40727 0.90543 0.42788 0.0
C1058 C 0.39601 0.93298 0.44568 0.0
C1059 C 0.3812 0.87602 0.40107 0.0
C1060 C 0.35816 0.9301 0.43835 0.0
C1061 C 0.33229 0.90131 0.41111 0.0
H1062 H 0.20087 0.37039 0.39605 0.0
H1063 H 0.10189 0.30113 0.3098 0.0
H1064 H 0.06538 0.3353 0.33831 0.0
H1065 H 0.06108 0.38568 0.38412 0.0
H1066 H 0.15746 0.45539 0.47365 0.0
H1067 H 0.19497 0.41997 0.44843 0.0
C1068 C 0.17128 0.36272 0.38388 0.0
C1069 C 0.15439 0.33314 0.35057 0.0
C1070 C 0.1498 0.38255 0.401 0.0
C1071 C 0.11587 0.32354 0.33546 0.0
C1072 C 0.09478 0.34317 0.35165 0.0
C1073 C 0.0903 0.39325 0.39834 0.0
C1074 C 0.10654 0.42354 0.43003 0.0
C1075 C 0.11146 0.37285 0.38388 0.0
C1076 C 0.14427 0.43236 0.44882 0.0
C1077 C 0.16576 0.41214 0.43425 0.0
H1078 H 0.29866 0.1201 0.64785 0.0
H1079 H 0.39022 0.21685 0.68656 0.0
H1080 H 0.43417 0.19142 0.65406 0.0
H1081 H 0.44736 0.14026 0.62148 0.0
H1082 H 0.356 0.04355 0.58196 0.0
H1083 H 0.31122 0.07056 0.60757 0.0
C1084 C 0.32817 0.13578 0.64864 0.0
C1085 C 0.34115 0.17022 0.67016 0.0
C1086 C 0.35339 0.12091 0.63018 0.0
C1087 C 0.37942 0.19028 0.67034 0.0
C1088 C 0.40465 0.17569 0.652 0.0
C1089 C 0.41764 0.12507 0.61831 0.0
C1090 C 0.40514 0.0897 0.60078 0.0
C1091 C 0.39207 0.14077 0.63303 0.0
C1092 C 0.36645 0.07068 0.59592 0.0
C1093 C 0.34081 0.08612 0.61056 0.0
H1094 H 0.84259 0.35346 0.69487 0.0
H1095 H 0.91196 0.30158 0.63092 0.0
H1096 H 0.95043 0.35686 0.59765 0.0
H1097 H 0.96359 0.41996 0.58577 0.0
H1098 H 0.89573 0.47183 0.65457 0.0
H1099 H 0.85787 0.41676 0.68726 0.0
C1100 C 0.86601 0.35431 0.67339 0.0
C1101 C 0.87425 0.32361 0.66475 0.0
C1102 C 0.88848 0.38624 0.65554 0.0
C1103 C 0.90511 0.32502 0.63785 0.0
C1104 C 0.92708 0.35657 0.61885 0.0
C1105 C 0.94067 0.41924 0.60817 0.0
C1106 C 0.93257 0.45006 0.61746 0.0
C1107 C 0.91899 0.38738 0.6274 0.0
C1108 C 0.90285 0.44864 0.64689 0.0
C1109 C 0.88093 0.41707 0.66546 0.0
H1110 H 0.16782 0.70401 0.63604 0.0
H1111 H 0.25319 0.6603 0.68035 0.0
H1112 H 0.2115 0.60182 0.64834 0.0
H1113 H 0.1508 0.56342 0.60554 0.0
H1114 H 0.06474 0.60763 0.56594 0.0
H1115 H 0.10644 0.66545 0.59805 0.0
C1116 C 0.17711 0.68156 0.6389 0.0
C1117 C 0.2133 0.68622 0.6607 0.0
C1118 C 0.15287 0.64815 0.62099 0.0
C1119 C 0.22522 0.65711 0.66418 0.0
C1120 C 0.20145 0.62378 0.64567 0.0
C1121 C 0.14128 0.58576 0.60398 0.0
C1122 C 0.10475 0.58122 0.58307 0.0
C1123 C 0.16526 0.619 0.62362 0.0
C1124 C 0.09262 0.61033 0.58191 0.0
C1125 C 0.1165 0.64346 0.6002 0.0
loop_
_geom_bond_atom_site_label_1
_geom_bond_atom_site_label_2
_geom_bond_distance
_geom_bond_site_symmetry_2
_ccdc_geom_bond_type
Zn0 O6 1.969 . S
Zn0 O7 1.965 . S
Zn0 O11 2.024 . S
Zn0 O16 1.969 . S
Zn1 O8 1.969 . S
Zn1 O14 1.969 . S
Zn1 O15 1.965 . S
Zn1 O17 2.024 . S
C2 O3 1.229 . S
C2 O11 1.058 . S
O3 C2 1.229 . S
C4 O5 1.229 . S
C4 O17 1.058 . S
O5 C4 1.229 . S
O6 Zn0 1.969 . S
O6 C9 1.267 . S
O7 Zn0 1.965 . S
O7 C18 1.260 . S
O8 Zn1 1.969 . S
O8 C18 1.258 . S
C9 O6 1.267 . S
C9 O10 1.228 . S
O10 C9 1.228 . S
O11 Zn0 2.024 . S
O11 C2 1.058 . S
C12 O13 1.228 . S
C12 O14 1.267 . S
O13 C12 1.228 . S
O14 Zn1 1.969 . S
O14 C12 1.267 . S
O15 Zn1 1.965 . S
O15 C19 1.260 . S
O16 Zn0 1.969 . S
O16 C19 1.258 . S
O17 Zn1 2.024 . S
O17 C4 1.058 . S
C18 O7 1.260 . S
C18 O8 1.258 . S
C19 O15 1.260 . S
C19 O16 1.258 . S
Zn20 O26 1.969 . S
Zn20 O27 1.965 . S
Zn20 O31 2.024 . S
Zn20 O36 1.969 . S
Zn21 O28 1.969 . S
Zn21 O34 1.969 . S
Zn21 O35 1.965 . S
Zn21 O37 2.024 . S
C22 O23 1.229 . S
C22 O31 1.058 . S
O23 C22 1.229 . S
C24 O25 1.229 . S
C24 O37 1.058 . S
O25 C24 1.229 . S
O26 Zn20 1.969 . S
O26 C29 1.267 . S
O27 Zn20 1.965 . S
O27 C38 1.260 . S
O28 Zn21 1.969 . S
O28 C38 1.258 . S
C29 O26 1.267 . S
C29 O30 1.228 . S
O30 C29 1.228 . S
O31 Zn20 2.024 . S
O31 C22 1.058 . S
C32 O33 1.228 . S
C32 O34 1.267 . S
O33 C32 1.228 . S
O34 Zn21 1.969 . S
O34 C32 1.267 . S
O35 Zn21 1.965 . S
O35 C39 1.260 . S
O36 Zn20 1.969 . S
O36 C39 1.258 . S
O37 Zn21 2.024 . S
O37 C24 1.058 . S
C38 O27 1.260 . S
C38 O28 1.258 . S
C39 O35 1.260 . S
C39 O36 1.258 . S
Zn40 O46 1.969 . S
Zn40 O47 1.965 . S
Zn40 O51 2.024 . S
Zn40 O56 1.969 . S
Zn41 O48 1.969 . S
Zn41 O54 1.969 . S
Zn41 O55 1.965 . S
Zn41 O57 2.024 . S
C42 O43 1.229 . S
C42 O51 1.058 . S
O43 C42 1.229 . S
C44 O45 1.229 . S
C44 O57 1.058 . S
O45 C44 1.229 . S
O46 Zn40 1.969 . S
O46 C49 1.267 . S
O47 Zn40 1.965 . S
O47 C58 1.260 . S
O48 Zn41 1.969 . S
O48 C58 1.258 . S
C49 O46 1.267 . S
C49 O50 1.228 . S
O50 C49 1.228 . S
O51 Zn40 2.024 . S
O51 C42 1.058 . S
C52 O53 1.228 . S
C52 O54 1.267 . S
O53 C52 1.228 . S
O54 Zn41 1.969 . S
O54 C52 1.267 . S
O55 Zn41 1.965 . S
O55 C59 1.260 . S
O56 Zn40 1.969 . S
O56 C59 1.258 . S
O57 Zn41 2.024 . S
O57 C44 1.058 . S
C58 O47 1.260 . S
C58 O48 1.258 . S
C59 O55 1.260 . S
C59 O56 1.258 . S
Zn60 O66 1.969 . S
Zn60 O67 1.965 . S
Zn60 O71 2.024 . S
Zn60 O76 1.969 . S
Zn61 O68 1.969 . S
Zn61 O74 1.969 . S
Zn61 O75 1.965 . S
Zn61 O77 2.024 . S
C62 O63 1.229 . S
C62 O71 1.058 . S
O63 C62 1.229 . S
C64 O65 1.229 . S
C64 O77 1.058 . S
O65 C64 1.229 . S
O66 Zn60 1.969 . S
O66 C69 1.267 . S
O67 Zn60 1.965 . S
O67 C78 1.260 . S
O68 Zn61 1.969 . S
O68 C78 1.258 . S
C69 O66 1.267 . S
C69 O70 1.228 . S
O70 C69 1.228 . S
O71 Zn60 2.024 . S
O71 C62 1.058 . S
C72 O73 1.228 . S
C72 O74 1.267 . S
O73 C72 1.228 . S
O74 Zn61 1.969 . S
O74 C72 1.267 . S
O75 Zn61 1.965 . S
O75 C79 1.260 . S
O76 Zn60 1.969 . S
O76 C79 1.258 . S
O77 Zn61 2.024 . S
O77 C64 1.058 . S
C78 O67 1.260 . S
C78 O68 1.258 . S
C79 O75 1.260 . S
C79 O76 1.258 . S
Zn80 O86 1.969 . S
Zn80 O87 1.965 . S
Zn80 O91 2.024 . S
Zn80 O96 1.969 . S
Zn81 O88 1.969 . S
Zn81 O94 1.969 . S
Zn81 O95 1.965 . S
Zn81 O97 2.024 . S
C82 O83 1.229 . S
C82 O91 1.058 . S
O83 C82 1.229 . S
C84 O85 1.229 . S
C84 O97 1.058 . S
O85 C84 1.229 . S
O86 Zn80 1.969 . S
O86 C89 1.267 . S
O87 Zn80 1.965 . S
O87 C98 1.260 . S
O88 Zn81 1.969 . S
O88 C98 1.258 . S
C89 O86 1.267 . S
C89 O90 1.228 . S
O90 C89 1.228 . S
O91 Zn80 2.024 . S
O91 C82 1.058 . S
C92 O93 1.228 . S
C92 O94 1.267 . S
O93 C92 1.228 . S
O94 Zn81 1.969 . S
O94 C92 1.267 . S
O95 Zn81 1.965 . S
O95 C99 1.260 . S
O96 Zn80 1.969 . S
O96 C99 1.258 . S
O97 Zn81 2.024 . S
O97 C84 1.058 . S
C98 O87 1.260 . S
C98 O88 1.258 . S
C99 O95 1.260 . S
C99 O96 1.258 . S
Zn100 O106 1.969 . S
Zn100 O107 1.965 . S
Zn100 O111 2.024 . S
Zn100 O116 1.969 . S
Zn101 O108 1.969 . S
Zn101 O114 1.969 . S
Zn101 O115 1.965 . S
Zn101 O117 2.024 . S
C102 O103 1.229 . S
C102 O111 1.058 . S
O103 C102 1.229 . S
C104 O105 1.229 . S
C104 O117 1.058 . S
O105 C104 1.229 . S
O106 Zn100 1.969 . S
O106 C109 1.267 . S
O107 Zn100 1.965 . S
O107 C118 1.260 . S
O108 Zn101 1.969 . S
O108 C118 1.258 . S
C109 O106 1.267 . S
C109 O110 1.228 . S
O110 C109 1.228 . S
O111 Zn100 2.024 . S
O111 C102 1.058 . S
C112 O113 1.228 . S
C112 O114 1.267 . S
O113 C112 1.228 . S
O114 Zn101 1.969 . S
O114 C112 1.267 . S
O115 Zn101 1.965 . S
O115 C119 1.260 . S
O116 Zn100 1.969 . S
O116 C119 1.258 . S
O117 Zn101 2.024 . S
O117 C104 1.058 . S
C118 O107 1.260 . S
C118 O108 1.258 . S
C119 O115 1.260 . S
C119 O116 1.258 . S
Zn120 O126 1.969 . S
Zn120 O127 1.965 . S
Zn120 O131 2.024 . S
Zn120 O136 1.969 . S
Zn121 O128 1.969 . S
Zn121 O134 1.969 . S
Zn121 O135 1.965 . S
Zn121 O137 2.024 . S
C122 O123 1.229 . S
C122 O131 1.058 . S
O123 C122 1.229 . S
C124 O125 1.229 . S
C124 O137 1.058 . S
O125 C124 1.229 . S
O126 Zn120 1.969 . S
O126 C129 1.267 . S
O127 Zn120 1.965 . S
O127 C138 1.260 . S
O128 Zn121 1.969 . S
O128 C138 1.258 . S
C129 O126 1.267 . S
C129 O130 1.228 . S
O130 C129 1.228 . S
O131 Zn120 2.024 . S
O131 C122 1.058 . S
C132 O133 1.228 . S
C132 O134 1.267 . S
O133 C132 1.228 . S
O134 Zn121 1.969 . S
O134 C132 1.267 . S
O135 Zn121 1.965 . S
O135 C139 1.260 . S
O136 Zn120 1.969 . S
O136 C139 1.258 . S
O137 Zn121 2.024 . S
O137 C124 1.058 . S
C138 O127 1.260 . S
C138 O128 1.258 . S
C139 O135 1.260 . S
C139 O136 1.258 . S
Zn140 O146 1.969 . S
Zn140 O147 1.965 . S
Zn140 O151 2.024 . S
Zn140 O156 1.969 . S
Zn141 O148 1.969 . S
Zn141 O154 1.969 . S
Zn141 O155 1.965 . S
Zn141 O157 2.024 . S
C142 O143 1.229 . S
C142 O151 1.058 . S
O143 C142 1.229 . S
C144 O145 1.229 . S
C144 O157 1.058 . S
O145 C144 1.229 . S
O146 Zn140 1.969 . S
O146 C149 1.267 . S
O147 Zn140 1.965 . S
O147 C158 1.260 . S
O148 Zn141 1.969 . S
O148 C158 1.258 . S
C149 O146 1.267 . S
C149 O150 1.228 . S
O150 C149 1.228 . S
O151 Zn140 2.024 . S
O151 C142 1.058 . S
C152 O153 1.228 . S
C152 O154 1.267 . S
O153 C152 1.228 . S
O154 Zn141 1.969 . S
O154 C152 1.267 . S
O155 Zn141 1.965 . S
O155 C159 1.260 . S
O156 Zn140 1.969 . S
O156 C159 1.258 . S
O157 Zn141 2.024 . S
O157 C144 1.058 . S
C158 O147 1.260 . S
C158 O148 1.258 . S
C159 O155 1.260 . S
C159 O156 1.258 . S
Co160 O163 2.042 . S
Co160 O170 2.264 . S
Co160 O189 2.286 . S
Co160 O190 2.069 . S
Co160 O192 2.015 1_455 S
Co161 O163 2.122 . S
Co161 O169 2.073 . S
Co161 O170 2.327 . S
Co161 O171 1.976 1_455 S
Co162 O163 2.094 1_545 S
Co162 O165 2.080 1_455 S
Co162 O172 2.107 1_445 S
Co162 O173 2.147 . S
Co162 O177 2.116 . S
Co162 O191 2.140 1_445 S
O163 Co160 2.042 . S
O163 Co161 2.122 . S
O163 Co162 2.094 1_565 S
O163 H164 0.980 . S
H164 O163 0.980 . S
O165 Co162 2.080 1_655 S
O165 Co166 2.042 . S
O165 Co167 2.122 . S
O165 H168 0.980 . S
Co166 O165 2.042 . S
Co166 O174 2.286 . S
Co166 O175 2.069 . S
Co166 O176 2.015 1_655 S
Co166 O179 2.264 . S
Co167 O165 2.122 . S
Co167 O178 1.976 1_655 S
Co167 O179 2.327 . S
Co167 O180 2.073 . S
H168 O165 0.980 . S
O169 Co161 2.073 . S
O169 C184 1.245 . S
O170 Co160 2.264 . S
O170 Co161 2.327 . S
O170 C184 1.257 . S
O171 Co161 1.976 1_655 S
O171 C183 1.251 . S
O172 Co162 2.107 1_665 S
O172 C183 1.274 . S
O173 Co162 2.147 . S
O173 C186 1.246 . S
O174 Co166 2.286 . S
O174 C185 1.259 . S
O175 Co166 2.069 . S
O175 C185 1.289 . S
O176 Co166 2.015 1_455 S
O176 C186 1.257 . S
O177 Co162 2.116 . S
O177 C187 1.274 . S
O178 Co167 1.976 1_455 S
O178 C187 1.251 . S
O179 Co166 2.264 . S
O179 Co167 2.327 . S
O179 C188 1.257 . S
O180 Co167 2.073 . S
O180 C188 1.245 . S
C181 O189 1.259 . S
C181 O190 1.289 . S
C182 O191 1.246 . S
C182 O192 1.257 . S
C183 O171 1.251 . S
C183 O172 1.274 . S
C184 O169 1.245 . S
C184 O170 1.257 . S
C185 O174 1.259 . S
C185 O175 1.289 . S
C186 O173 1.246 . S
C186 O176 1.257 . S
C187 O177 1.274 . S
C187 O178 1.251 . S
C188 O179 1.257 . S
C188 O180 1.245 . S
O189 Co160 2.286 . S
O189 C181 1.259 . S
O190 Co160 2.069 . S
O190 C181 1.289 . S
O191 Co162 2.140 1_665 S
O191 C182 1.246 . S
O192 Co160 2.015 1_655 S
O192 C182 1.257 . S
Co193 O196 2.042 1_556 S
Co193 O203 2.264 1_556 S
Co193 O222 2.286 . S
Co193 O223 2.069 . S
Co193 O225 2.015 . S
Co194 O196 2.122 . S
Co194 O202 2.073 . S
Co194 O203 2.327 . S
Co194 O204 1.976 . S
Co195 O196 2.087 1_545 S
Co195 O198 2.087 1_554 S
Co195 O205 2.111 1_545 S
Co195 O206 2.144 . S
Co195 O210 2.111 1_554 S
Co195 O224 2.143 1_544 S
O196 Co193 2.042 1_554 S
O196 Co194 2.122 . S
O196 Co195 2.087 1_565 S
O196 H197 0.980 . S
H197 O196 0.980 . S
O198 Co195 2.087 1_556 S
O198 Co199 2.042 1_556 S
O198 Co200 2.122 . S
O198 H201 0.980 . S
Co199 O198 2.042 1_554 S
Co199 O207 2.286 . S
Co199 O208 2.069 . S
Co199 O209 2.015 . S
Co199 O212 2.264 1_554 S
Co200 O198 2.122 . S
Co200 O211 1.976 . S
Co200 O212 2.327 . S
Co200 O213 2.073 . S
H201 O198 0.980 . S
O202 Co194 2.073 . S
O202 C217 1.245 . S
O203 Co193 2.264 1_554 S
O203 Co194 2.327 . S
O203 C217 1.257 . S
O204 Co194 1.976 . S
O204 C216 1.251 . S
O205 Co195 2.111 1_565 S
O205 C216 1.274 . S
O206 Co195 2.144 . S
O206 C219 1.246 . S
O207 Co199 2.286 . S
O207 C218 1.259 . S
O208 Co199 2.069 . S
O208 C218 1.289 . S
O209 Co199 2.015 . S
O209 C219 1.257 . S
O210 Co195 2.111 1_556 S
O210 C220 1.274 . S
O211 Co200 1.976 . S
O211 C220 1.251 . S
O212 Co199 2.264 1_556 S
O212 Co200 2.327 . S
O212 C221 1.257 . S
O213 Co200 2.073 . S
O213 C221 1.245 . S
C214 O222 1.259 . S
C214 O223 1.289 . S
C215 O224 1.246 . S
C215 O225 1.257 . S
C216 O204 1.251 . S
C216 O205 1.274 . S
C217 O202 1.245 . S
C217 O203 1.257 . S
C218 O207 1.259 . S
C218 O208 1.289 . S
C219 O206 1.246 . S
C219 O209 1.257 . S
C220 O210 1.274 . S
C220 O211 1.251 . S
C221 O212 1.257 . S
C221 O213 1.245 . S
O222 Co193 2.286 . S
O222 C214 1.259 . S
O223 Co193 2.069 . S
O223 C214 1.289 . S
O224 Co195 2.143 1_566 S
O224 C215 1.246 . S
O225 Co193 2.015 . S
O225 C215 1.257 . S
Co226 O229 2.042 1_556 S
Co226 O236 2.264 1_556 S
Co226 O255 2.286 . S
Co226 O256 2.069 . S
Co226 O258 2.015 1_455 S
Co227 O229 2.122 . S
Co227 O235 2.073 . S
Co227 O236 2.327 . S
Co227 O237 1.976 1_455 S
Co228 O229 2.094 . S
Co228 O231 2.080 1_454 S
Co228 O238 2.107 1_455 S
Co228 O239 2.146 . S
Co228 O243 2.116 1_554 S
Co228 O257 2.141 1_454 S
O229 Co226 2.042 1_554 S
O229 Co227 2.122 . S
O229 Co228 2.094 . S
O229 H230 0.980 . S
H230 O229 0.980 . S
O231 Co228 2.080 1_656 S
O231 Co232 2.042 1_556 S
O231 Co233 2.122 . S
O231 H234 0.980 . S
Co232 O231 2.042 1_554 S
Co232 O240 2.286 . S
Co232 O241 2.069 . S
Co232 O242 2.015 1_655 S
Co232 O245 2.264 1_554 S
Co233 O231 2.122 . S
Co233 O244 1.976 1_655 S
Co233 O245 2.327 . S
Co233 O246 2.073 . S
H234 O231 0.980 . S
O235 Co227 2.073 . S
O235 C250 1.245 . S
O236 Co226 2.264 1_554 S
O236 Co227 2.327 . S
O236 C250 1.257 . S
O237 Co227 1.976 1_655 S
O237 C249 1.251 . S
O238 Co228 2.107 1_655 S
O238 C249 1.274 . S
O239 Co228 2.146 . S
O239 C252 1.246 . S
O240 Co232 2.286 . S
O240 C251 1.259 . S
O241 Co232 2.069 . S
O241 C251 1.289 . S
O242 Co232 2.015 1_455 S
O242 C252 1.257 . S
O243 Co228 2.116 1_556 S
O243 C253 1.274 . S
O244 Co233 1.976 1_455 S
O244 C253 1.251 . S
O245 Co232 2.264 1_556 S
O245 Co233 2.327 . S
O245 C254 1.257 . S
O246 Co233 2.073 . S
O246 C254 1.245 . S
C247 O255 1.259 . S
C247 O256 1.289 . S
C248 O257 1.246 . S
C248 O258 1.257 . S
C249 O237 1.251 . S
C249 O238 1.274 . S
C250 O235 1.245 . S
C250 O236 1.257 . S
C251 O240 1.259 . S
C251 O241 1.289 . S
C252 O239 1.246 . S
C252 O242 1.257 . S
C253 O243 1.274 . S
C253 O244 1.251 . S
C254 O245 1.257 . S
C254 O246 1.245 . S
O255 Co226 2.286 . S
O255 C247 1.259 . S
O256 Co226 2.069 . S
O256 C247 1.289 . S
O257 Co228 2.141 1_656 S
O257 C248 1.246 . S
O258 Co226 2.015 1_655 S
O258 C248 1.257 . S
Co259 O262 2.042 1_556 S
Co259 O269 2.264 1_556 S
Co259 O288 2.286 . S
Co259 O289 2.069 . S
Co259 O291 2.015 . S
Co260 O262 2.122 . S
Co260 O268 2.073 . S
Co260 O269 2.327 . S
Co260 O270 1.976 . S
Co261 O262 2.087 . S
Co261 O264 2.087 1_554 S
Co261 O271 2.111 . S
Co261 O272 2.143 . S
Co261 O276 2.111 1_554 S
Co261 O290 2.143 1_554 S
O262 Co259 2.042 1_554 S
O262 Co260 2.122 . S
O262 Co261 2.087 . S
O262 H263 0.980 . S
H263 O262 0.980 . S
O264 Co261 2.087 1_556 S
O264 Co265 2.042 1_556 S
O264 Co266 2.122 . S
O264 H267 0.980 . S
Co265 O264 2.042 1_554 S
Co265 O273 2.286 . S
Co265 O274 2.069 . S
Co265 O275 2.015 . S
Co265 O278 2.264 1_554 S
Co266 O264 2.122 . S
Co266 O277 1.976 . S
Co266 O278 2.327 . S
Co266 O279 2.073 . S
H267 O264 0.980 . S
O268 Co260 2.073 . S
O268 C283 1.245 . S
O269 Co259 2.264 1_554 S
O269 Co260 2.327 . S
O269 C283 1.257 . S
O270 Co260 1.976 . S
O270 C282 1.251 . S
O271 Co261 2.111 . S
O271 C282 1.274 . S
O272 Co261 2.143 . S
O272 C285 1.246 . S
O273 Co265 2.286 . S
O273 C284 1.259 . S
O274 Co265 2.069 . S
O274 C284 1.289 . S
O275 Co265 2.015 . S
O275 C285 1.257 . S
O276 Co261 2.111 1_556 S
O276 C286 1.274 . S
O277 Co266 1.976 . S
O277 C286 1.251 . S
O278 Co265 2.264 1_556 S
O278 Co266 2.327 . S
O278 C287 1.257 . S
O279 Co266 2.073 . S
O279 C287 1.245 . S
C280 O288 1.259 . S
C280 O289 1.289 . S
C281 O290 1.246 . S
C281 O291 1.257 . S
C282 O270 1.251 . S
C282 O271 1.274 . S
C283 O268 1.245 . S
C283 O269 1.257 . S
C284 O273 1.259 . S
C284 O274 1.289 . S
C285 O272 1.246 . S
C285 O275 1.257 . S
C286 O276 1.274 . S
C286 O277 1.251 . S
C287 O278 1.257 . S
C287 O279 1.245 . S
O288 Co259 2.286 . S
O288 C280 1.259 . S
O289 Co259 2.069 . S
O289 C280 1.289 . S
O290 Co261 2.143 1_556 S
O290 C281 1.246 . S
O291 Co259 2.015 . S
O291 C281 1.257 . S
Co292 O295 2.042 . S
Co292 O302 2.264 . S
Co292 O321 2.286 . S
Co292 O322 2.069 . S
Co292 O324 2.015 . S
Co293 O295 2.122 . S
Co293 O301 2.073 . S
Co293 O302 2.327 . S
Co293 O303 1.976 . S
Co294 O295 2.094 . S
Co294 O297 2.080 1_455 S
Co294 O304 2.113 . S
Co294 O305 2.139 1_455 S
Co294 O309 2.109 1_455 S
Co294 O323 2.148 . S
O295 Co292 2.042 . S
O295 Co293 2.122 . S
O295 Co294 2.094 . S
O295 H296 0.980 . S
H296 O295 0.980 . S
O297 Co294 2.080 1_655 S
O297 Co298 2.042 . S
O297 Co299 2.122 . S
O297 H300 0.980 . S
Co298 O297 2.042 . S
Co298 O306 2.286 . S
Co298 O307 2.069 . S
Co298 O308 2.015 . S
Co298 O311 2.264 . S
Co299 O297 2.122 . S
Co299 O310 1.976 . S
Co299 O311 2.327 . S
Co299 O312 2.073 . S
H300 O297 0.980 . S
O301 Co293 2.073 . S
O301 C316 1.245 . S
O302 Co292 2.264 . S
O302 Co293 2.327 . S
O302 C316 1.257 . S
O303 Co293 1.976 . S
O303 C315 1.251 . S
O304 Co294 2.113 . S
O304 C315 1.274 . S
O305 Co294 2.139 1_655 S
O305 C318 1.246 . S
O306 Co298 2.286 . S
O306 C317 1.259 . S
O307 Co298 2.069 . S
O307 C317 1.289 . S
O308 Co298 2.015 . S
O308 C318 1.257 . S
O309 Co294 2.109 1_655 S
O309 C319 1.274 . S
O310 Co299 1.976 . S
O310 C319 1.251 . S
O311 Co298 2.264 . S
O311 Co299 2.327 . S
O311 C320 1.257 . S
O312 Co299 2.073 . S
O312 C320 1.245 . S
C313 O321 1.259 . S
C313 O322 1.289 . S
C314 O323 1.246 . S
C314 O324 1.257 . S
C315 O303 1.251 . S
C315 O304 1.274 . S
C316 O301 1.245 . S
C316 O302 1.257 . S
C317 O306 1.259 . S
C317 O307 1.289 . S
C318 O305 1.246 . S
C318 O308 1.257 . S
C319 O309 1.274 . S
C319 O310 1.251 . S
C320 O311 1.257 . S
C320 O312 1.245 . S
O321 Co292 2.286 . S
O321 C313 1.259 . S
O322 Co292 2.069 . S
O322 C313 1.289 . S
O323 Co294 2.148 . S
O323 C314 1.246 . S
O324 Co292 2.015 . S
O324 C314 1.257 . S
Co325 O328 2.042 . S
Co325 O335 2.264 . S
Co325 O354 2.286 . S
Co325 O355 2.069 . S
Co325 O357 2.015 1_565 S
Co326 O328 2.122 . S
Co326 O334 2.073 . S
Co326 O335 2.327 . S
Co326 O336 1.976 1_565 S
Co327 O328 2.087 1_545 S
Co327 O330 2.087 . S
Co327 O337 2.111 . S
Co327 O338 2.143 1_545 S
Co327 O342 2.111 1_545 S
Co327 O356 2.144 . S
O328 Co325 2.042 . S
O328 Co326 2.122 . S
O328 Co327 2.087 1_565 S
O328 H329 0.980 . S
H329 O328 0.980 . S
O330 Co327 2.087 . S
O330 Co331 2.042 . S
O330 Co332 2.122 . S
O330 H333 0.980 . S
Co331 O330 2.042 . S
Co331 O339 2.286 . S
Co331 O340 2.069 . S
Co331 O341 2.015 1_545 S
Co331 O344 2.264 . S
Co332 O330 2.122 . S
Co332 O343 1.976 1_545 S
Co332 O344 2.327 . S
Co332 O345 2.073 . S
H333 O330 0.980 . S
O334 Co326 2.073 . S
O334 C349 1.245 . S
O335 Co325 2.264 . S
O335 Co326 2.327 . S
O335 C349 1.257 . S
O336 Co326 1.976 1_545 S
O336 C348 1.251 . S
O337 Co327 2.111 . S
O337 C348 1.274 . S
O338 Co327 2.143 1_565 S
O338 C351 1.246 . S
O339 Co331 2.286 . S
O339 C350 1.259 . S
O340 Co331 2.069 . S
O340 C350 1.289 . S
O341 Co331 2.015 1_565 S
O341 C351 1.257 . S
O342 Co327 2.111 1_565 S
O342 C352 1.274 . S
O343 Co332 1.976 1_565 S
O343 C352 1.251 . S
O344 Co331 2.264 . S
O344 Co332 2.327 . S
O344 C353 1.257 . S
O345 Co332 2.073 . S
O345 C353 1.245 . S
C346 O354 1.259 . S
C346 O355 1.289 . S
C347 O356 1.246 . S
C347 O357 1.257 . S
C348 O336 1.251 . S
C348 O337 1.274 . S
C349 O334 1.245 . S
C349 O335 1.257 . S
C350 O339 1.259 . S
C350 O340 1.289 . S
C351 O338 1.246 . S
C351 O341 1.257 . S
C352 O342 1.274 . S
C352 O343 1.251 . S
C353 O344 1.257 . S
C353 O345 1.245 . S
O354 Co325 2.286 . S
O354 C346 1.259 . S
O355 Co325 2.069 . S
O355 C346 1.289 . S
O356 Co327 2.144 . S
O356 C347 1.246 . S
O357 Co325 2.015 1_545 S
O357 C347 1.257 . S
H358 C364 0.930 . S
H359 C367 0.930 . S
H360 C368 0.930 . S
H361 C369 0.930 . S
H362 C372 0.930 . S
H363 C373 0.930 . S
C364 H358 0.930 . S
C364 C365 1.355 . S
C364 C366 1.415 . S
C365 C364 1.355 . S
C365 C367 1.419 . S
C366 C364 1.415 . S
C366 C371 1.425 . S
C366 C373 1.409 . S
C367 H359 0.930 . S
C367 C365 1.419 . S
C367 C368 1.362 . S
C368 H360 0.930 . S
C368 C367 1.362 . S
C368 C371 1.409 . S
C369 H361 0.930 . S
C369 C370 1.355 . S
C369 C371 1.415 . S
C370 C369 1.355 . S
C370 C372 1.419 . S
C371 C366 1.425 . S
C371 C368 1.409 . S
C371 C369 1.415 . S
C372 H362 0.930 . S
C372 C370 1.419 . S
C372 C373 1.362 . S
C373 H363 0.930 . S
C373 C366 1.409 . S
C373 C372 1.362 . S
H374 C380 0.930 . S
H375 C383 0.930 . S
H376 C384 0.930 . S
H377 C385 0.930 . S
H378 C388 0.930 . S
H379 C389 0.930 . S
C380 H374 0.930 . S
C380 C381 1.355 . S
C380 C382 1.415 . S
C381 C380 1.355 . S
C381 C383 1.419 . S
C382 C380 1.415 . S
C382 C387 1.425 . S
C382 C389 1.409 . S
C383 H375 0.930 . S
C383 C381 1.419 . S
C383 C384 1.362 . S
C384 H376 0.930 . S
C384 C383 1.362 . S
C384 C387 1.409 . S
C385 H377 0.930 . S
C385 C386 1.355 . S
C385 C387 1.415 . S
C386 C385 1.355 . S
C386 C388 1.419 . S
C387 C382 1.425 . S
C387 C384 1.409 . S
C387 C385 1.415 . S
C388 H378 0.930 . S
C388 C386 1.419 . S
C388 C389 1.362 . S
C389 H379 0.930 . S
C389 C382 1.409 . S
C389 C388 1.362 . S
H390 C396 0.930 . S
H391 C399 0.930 . S
H392 C400 0.930 . S
H393 C401 0.930 . S
H394 C404 0.930 . S
H395 C405 0.930 . S
C396 H390 0.930 . S
C396 C397 1.355 . S
C396 C398 1.415 . S
C397 C396 1.355 . S
C397 C399 1.419 . S
C398 C396 1.415 . S
C398 C403 1.425 . S
C398 C405 1.409 . S
C399 H391 0.930 . S
C399 C397 1.419 . S
C399 C400 1.362 . S
C400 H392 0.930 . S
C400 C399 1.362 . S
C400 C403 1.409 . S
C401 H393 0.930 . S
C401 C402 1.355 . S
C401 C403 1.415 . S
C402 C401 1.355 . S
C402 C404 1.419 . S
C403 C398 1.425 . S
C403 C400 1.409 . S
C403 C401 1.415 . S
C404 H394 0.930 . S
C404 C402 1.419 . S
C404 C405 1.362 . S
C405 H395 0.930 . S
C405 C398 1.409 . S
C405 C404 1.362 . S
H406 C412 0.930 . S
H407 C415 0.930 . S
H408 C416 0.930 . S
H409 C417 0.930 . S
H410 C420 0.930 . S
H411 C421 0.930 . S
C412 H406 0.930 . S
C412 C413 1.355 . S
C412 C414 1.415 . S
C413 C412 1.355 . S
C413 C415 1.419 . S
C414 C412 1.415 . S
C414 C419 1.425 . S
C414 C421 1.409 . S
C415 H407 0.930 . S
C415 C413 1.419 . S
C415 C416 1.362 . S
C416 H408 0.930 . S
C416 C415 1.362 . S
C416 C419 1.409 . S
C417 H409 0.930 . S
C417 C418 1.355 . S
C417 C419 1.415 . S
C418 C417 1.355 . S
C418 C420 1.419 . S
C419 C414 1.425 . S
C419 C416 1.409 . S
C419 C417 1.415 . S
C420 H410 0.930 . S
C420 C418 1.419 . S
C420 C421 1.362 . S
C421 H411 0.930 . S
C421 C414 1.409 . S
C421 C420 1.362 . S
H422 C428 0.930 . S
H423 C431 0.930 . S
H424 C432 0.930 . S
H425 C433 0.930 . S
H426 C436 0.930 . S
H427 C437 0.930 . S
C428 H422 0.930 . S
C428 C429 1.355 . S
C428 C430 1.415 . S
C429 C428 1.355 . S
C429 C431 1.419 . S
C430 C428 1.415 . S
C430 C435 1.425 . S
C430 C437 1.409 . S
C431 H423 0.930 . S
C431 C429 1.419 . S
C431 C432 1.362 . S
C432 H424 0.930 . S
C432 C431 1.362 . S
C432 C435 1.409 . S
C433 H425 0.930 . S
C433 C434 1.355 . S
C433 C435 1.415 . S
C434 C433 1.355 . S
C434 C436 1.419 . S
C435 C430 1.425 . S
C435 C432 1.409 . S
C435 C433 1.415 . S
C436 H426 0.930 . S
C436 C434 1.419 . S
C436 C437 1.362 . S
C437 H427 0.930 . S
C437 C430 1.409 . S
C437 C436 1.362 . S
H438 C444 0.930 . S
H439 C447 0.930 . S
H440 C448 0.930 . S
H441 C449 0.930 . S
H442 C452 0.930 . S
H443 C453 0.930 . S
C444 H438 0.930 . S
C444 C445 1.355 . S
C444 C446 1.415 . S
C445 C444 1.355 . S
C445 C447 1.419 . S
C446 C444 1.415 . S
C446 C451 1.425 . S
C446 C453 1.409 . S
C447 H439 0.930 . S
C447 C445 1.419 . S
C447 C448 1.362 . S
C448 H440 0.930 . S
C448 C447 1.362 . S
C448 C451 1.409 . S
C449 H441 0.930 . S
C449 C450 1.355 . S
C449 C451 1.415 . S
C450 C449 1.355 . S
C450 C452 1.419 . S
C451 C446 1.425 . S
C451 C448 1.409 . S
C451 C449 1.415 . S
C452 H442 0.930 . S
C452 C450 1.419 . S
C452 C453 1.362 . S
C453 H443 0.930 . S
C453 C446 1.409 . S
C453 C452 1.362 . S
H454 C460 0.930 . S
H455 C463 0.930 . S
H456 C464 0.930 . S
H457 C465 0.930 . S
H458 C468 0.930 . S
H459 C469 0.930 . S
C460 H454 0.930 . S
C460 C461 1.355 . S
C460 C462 1.415 . S
C461 C460 1.355 . S
C461 C463 1.419 . S
C462 C460 1.415 . S
C462 C467 1.425 . S
C462 C469 1.409 . S
C463 H455 0.930 . S
C463 C461 1.419 . S
C463 C464 1.362 . S
C464 H456 0.930 . S
C464 C463 1.362 . S
C464 C467 1.409 . S
C465 H457 0.930 . S
C465 C466 1.355 . S
C465 C467 1.415 . S
C466 C465 1.355 . S
C466 C468 1.419 . S
C467 C462 1.425 . S
C467 C464 1.409 . S
C467 C465 1.415 . S
C468 H458 0.930 . S
C468 C466 1.419 . S
C468 C469 1.362 . S
C469 H459 0.930 . S
C469 C462 1.409 . S
C469 C468 1.362 . S
H470 C476 0.930 . S
H471 C479 0.930 . S
H472 C480 0.930 . S
H473 C481 0.930 . S
H474 C484 0.930 . S
H475 C485 0.930 . S
C476 H470 0.930 . S
C476 C477 1.355 . S
C476 C478 1.415 . S
C477 C476 1.355 . S
C477 C479 1.419 . S
C478 C476 1.415 . S
C478 C483 1.425 . S
C478 C485 1.409 . S
C479 H471 0.930 . S
C479 C477 1.419 . S
C479 C480 1.362 . S
C480 H472 0.930 . S
C480 C479 1.362 . S
C480 C483 1.409 . S
C481 H473 0.930 . S
C481 C482 1.355 . S
C481 C483 1.415 . S
C482 C481 1.355 . S
C482 C484 1.419 . S
C483 C478 1.425 . S
C483 C480 1.409 . S
C483 C481 1.415 . S
C484 H474 0.930 . S
C484 C482 1.419 . S
C484 C485 1.362 . S
C485 H475 0.930 . S
C485 C478 1.409 . S
C485 C484 1.362 . S
H486 C492 0.930 . S
H487 C495 0.930 . S
H488 C496 0.930 . S
H489 C497 0.930 . S
H490 C500 0.930 . S
H491 C501 0.930 . S
C492 H486 0.930 . S
C492 C493 1.355 . S
C492 C494 1.415 . S
C493 C492 1.355 . S
C493 C495 1.419 . S
C494 C492 1.415 . S
C494 C499 1.425 . S
C494 C501 1.409 . S
C495 H487 0.930 . S
C495 C493 1.419 . S
C495 C496 1.362 . S
C496 H488 0.930 . S
C496 C495 1.362 . S
C496 C499 1.409 . S
C497 H489 0.930 . S
C497 C498 1.355 . S
C497 C499 1.415 . S
C498 C497 1.355 . S
C498 C500 1.419 . S
C499 C494 1.425 . S
C499 C496 1.409 . S
C499 C497 1.415 . S
C500 H490 0.930 . S
C500 C498 1.419 . S
C500 C501 1.362 . S
C501 H491 0.930 . S
C501 C494 1.409 . S
C501 C500 1.362 . S
H502 C508 0.930 . S
H503 C511 0.930 . S
H504 C512 0.930 . S
H505 C513 0.930 . S
H506 C516 0.930 . S
H507 C517 0.930 . S
C508 H502 0.930 . S
C508 C509 1.355 . S
C508 C510 1.415 . S
C509 C508 1.355 . S
C509 C511 1.419 . S
C510 C508 1.415 . S
C510 C515 1.425 . S
C510 C517 1.409 . S
C511 H503 0.930 . S
C511 C509 1.419 . S
C511 C512 1.362 . S
C512 H504 0.930 . S
C512 C511 1.362 . S
C512 C515 1.409 . S
C513 H505 0.930 . S
C513 C514 1.355 . S
C513 C515 1.415 . S
C514 C513 1.355 . S
C514 C516 1.419 . S
C515 C510 1.425 . S
C515 C512 1.409 . S
C515 C513 1.415 . S
C516 H506 0.930 . S
C516 C514 1.419 . S
C516 C517 1.362 . S
C517 H507 0.930 . S
C517 C510 1.409 . S
C517 C516 1.362 . S
H518 C524 0.930 . S
H519 C527 0.930 . S
H520 C528 0.930 . S
H521 C529 0.930 . S
H522 C532 0.932 . S
H523 C533 0.930 . S
C524 H518 0.930 . S
C524 C525 1.355 . S
C524 C526 1.415 . S
C525 C524 1.355 . S
C525 C527 1.419 . S
C526 C524 1.415 . S
C526 C531 1.425 . S
C526 C533 1.409 . S
C527 H519 0.930 . S
C527 C525 1.419 . S
C527 C528 1.362 . S
C528 H520 0.930 . S
C528 C527 1.362 . S
C528 C531 1.409 . S
C529 H521 0.930 . S
C529 C530 1.355 . S
C529 C531 1.415 . S
C530 C529 1.355 . S
C530 C532 1.419 . S
C531 C526 1.425 . S
C531 C528 1.409 . S
C531 C529 1.415 . S
C532 H522 0.932 . S
C532 C530 1.419 . S
C532 C533 1.362 . S
C533 H523 0.930 . S
C533 C526 1.409 . S
C533 C532 1.362 . S
H534 C540 0.930 . S
H535 C543 0.930 . S
H536 C544 0.930 . S
H537 C545 0.930 . S
H538 C548 0.930 . S
H539 C549 0.930 . S
C540 H534 0.930 . S
C540 C541 1.355 . S
C540 C542 1.415 . S
C541 C540 1.355 . S
C541 C543 1.419 . S
C542 C540 1.415 . S
C542 C547 1.425 . S
C542 C549 1.409 . S
C543 H535 0.930 . S
C543 C541 1.419 . S
C543 C544 1.362 . S
C544 H536 0.930 . S
C544 C543 1.362 . S
C544 C547 1.409 . S
C545 H537 0.930 . S
C545 C546 1.355 . S
C545 C547 1.415 . S
C546 C545 1.355 . S
C546 C548 1.419 . S
C547 C542 1.425 . S
C547 C544 1.409 . S
C547 C545 1.415 . S
C548 H538 0.930 . S
C548 C546 1.419 . S
C548 C549 1.362 . S
C549 H539 0.930 . S
C549 C542 1.409 . S
C549 C548 1.362 . S
H550 C556 0.930 . S
H551 C559 0.930 . S
H552 C560 0.930 . S
H553 C561 0.930 . S
H554 C564 0.930 . S
H555 C565 0.930 . S
C556 H550 0.930 . S
C556 C557 1.355 . S
C556 C558 1.415 . S
C557 C556 1.355 . S
C557 C559 1.419 . S
C558 C556 1.415 . S
C558 C563 1.425 . S
C558 C565 1.409 . S
C559 H551 0.930 . S
C559 C557 1.419 . S
C559 C560 1.362 . S
C560 H552 0.930 . S
C560 C559 1.362 . S
C560 C563 1.409 . S
C561 H553 0.930 . S
C561 C562 1.355 . S
C561 C563 1.415 . S
C562 C561 1.355 . S
C562 C564 1.419 . S
C563 C558 1.425 . S
C563 C560 1.409 . S
C563 C561 1.415 . S
C564 H554 0.930 . S
C564 C562 1.419 . S
C564 C565 1.362 . S
C565 H555 0.930 . S
C565 C558 1.409 . S
C565 C564 1.362 . S
H566 C572 0.930 . S
H567 C575 0.930 . S
H568 C576 0.930 . S
H569 C577 0.930 . S
H570 C580 0.930 . S
H571 C581 0.930 . S
C572 H566 0.930 . S
C572 C573 1.355 . S
C572 C574 1.415 . S
C573 C572 1.355 . S
C573 C575 1.419 . S
C574 C572 1.415 . S
C574 C579 1.425 . S
C574 C581 1.409 . S
C575 H567 0.930 . S
C575 C573 1.419 . S
C575 C576 1.362 . S
C576 H568 0.930 . S
C576 C575 1.362 . S
C576 C579 1.409 . S
C577 H569 0.930 . S
C577 C578 1.355 . S
C577 C579 1.415 . S
C578 C577 1.355 . S
C578 C580 1.419 . S
C579 C574 1.425 . S
C579 C576 1.409 . S
C579 C577 1.415 . S
C580 H570 0.930 . S
C580 C578 1.419 . S
C580 C581 1.362 . S
C581 H571 0.930 . S
C581 C574 1.409 . S
C581 C580 1.362 . S
H582 C588 0.930 . S
H583 C591 0.930 . S
H584 C592 0.930 . S
H585 C593 0.930 . S
H586 C596 0.930 . S
H587 C597 0.930 . S
C588 H582 0.930 . S
C588 C589 1.355 . S
C588 C590 1.415 . S
C589 C588 1.355 . S
C589 C591 1.419 . S
C590 C588 1.415 . S
C590 C595 1.425 . S
C590 C597 1.409 . S
C591 H583 0.930 . S
C591 C589 1.419 . S
C591 C592 1.362 . S
C592 H584 0.930 . S
C592 C591 1.362 . S
C592 C595 1.409 . S
C593 H585 0.930 . S
C593 C594 1.355 . S
C593 C595 1.415 . S
C594 C593 1.355 . S
C594 C596 1.419 . S
C595 C590 1.425 . S
C595 C592 1.409 . S
C595 C593 1.415 . S
C596 H586 0.930 . S
C596 C594 1.419 . S
C596 C597 1.362 . S
C597 H587 0.930 . S
C597 C590 1.409 . S
C597 C596 1.362 . S
H598 C604 0.930 . S
H599 C607 0.930 . S
H600 C608 0.930 . S
H601 C609 0.930 . S
H602 C612 0.930 . S
H603 C613 0.930 . S
C604 H598 0.930 . S
C604 C605 1.355 . S
C604 C606 1.415 . S
C605 C604 1.355 . S
C605 C607 1.419 . S
C606 C604 1.415 . S
C606 C611 1.425 . S
C606 C613 1.409 . S
C607 H599 0.930 . S
C607 C605 1.419 . S
C607 C608 1.362 . S
C608 H600 0.930 . S
C608 C607 1.362 . S
C608 C611 1.409 . S
C609 H601 0.930 . S
C609 C610 1.355 . S
C609 C611 1.415 . S
C610 C609 1.355 . S
C610 C612 1.419 . S
C611 C606 1.425 . S
C611 C608 1.409 . S
C611 C609 1.415 . S
C612 H602 0.930 . S
C612 C610 1.419 . S
C612 C613 1.362 . S
C613 H603 0.930 . S
C613 C606 1.409 . S
C613 C612 1.362 . S
H614 C620 0.930 . S
H615 C623 0.930 . S
H616 C624 0.930 . S
H617 C625 0.930 . S
H618 C628 0.930 . S
H619 C629 0.930 . S
C620 H614 0.930 . S
C620 C621 1.355 . S
C620 C622 1.415 . S
C621 C620 1.355 . S
C621 C623 1.419 . S
C622 C620 1.415 . S
C622 C627 1.425 . S
C622 C629 1.409 . S
C623 H615 0.930 . S
C623 C621 1.419 . S
C623 C624 1.362 . S
C624 H616 0.930 . S
C624 C623 1.362 . S
C624 C627 1.409 . S
C625 H617 0.930 . S
C625 C626 1.355 . S
C625 C627 1.415 . S
C626 C625 1.355 . S
C626 C628 1.419 . S
C627 C622 1.425 . S
C627 C624 1.409 . S
C627 C625 1.415 . S
C628 H618 0.930 . S
C628 C626 1.419 . S
C628 C629 1.362 . S
C629 H619 0.930 . S
C629 C622 1.409 . S
C629 C628 1.362 . S
H630 C636 0.930 . S
H631 C639 0.930 . S
H632 C640 0.930 . S
H633 C641 0.930 . S
H634 C644 0.930 . S
H635 C645 0.930 . S
C636 H630 0.930 . S
C636 C637 1.355 . S
C636 C638 1.415 . S
C637 C636 1.355 . S
C637 C639 1.419 . S
C638 C636 1.415 . S
C638 C643 1.425 . S
C638 C645 1.409 . S
C639 H631 0.930 . S
C639 C637 1.419 . S
C639 C640 1.362 . S
C640 H632 0.930 . S
C640 C639 1.362 . S
C640 C643 1.409 . S
C641 H633 0.930 . S
C641 C642 1.355 . S
C641 C643 1.415 . S
C642 C641 1.355 . S
C642 C644 1.419 . S
C643 C638 1.425 . S
C643 C640 1.409 . S
C643 C641 1.415 . S
C644 H634 0.930 . S
C644 C642 1.419 . S
C644 C645 1.362 . S
C645 H635 0.930 . S
C645 C638 1.409 . S
C645 C644 1.362 . S
H646 C652 0.930 . S
H647 C655 0.930 . S
H648 C656 0.930 . S
H649 C657 0.930 . S
H650 C660 0.930 . S
H651 C661 0.930 . S
C652 H646 0.930 . S
C652 C653 1.355 . S
C652 C654 1.415 . S
C653 C652 1.355 . S
C653 C655 1.419 . S
C654 C652 1.415 . S
C654 C659 1.425 . S
C654 C661 1.409 . S
C655 H647 0.930 . S
C655 C653 1.419 . S
C655 C656 1.362 . S
C656 H648 0.930 . S
C656 C655 1.362 . S
C656 C659 1.409 . S
C657 H649 0.930 . S
C657 C658 1.355 . S
C657 C659 1.415 . S
C658 C657 1.355 . S
C658 C660 1.419 . S
C659 C654 1.425 . S
C659 C656 1.409 . S
C659 C657 1.415 . S
C660 H650 0.930 . S
C660 C658 1.419 . S
C660 C661 1.362 . S
C661 H651 0.930 . S
C661 C654 1.409 . S
C661 C660 1.362 . S
H662 C668 0.930 . S
H663 C671 0.930 . S
H664 C672 0.930 . S
H665 C673 0.930 . S
H666 C676 0.930 . S
H667 C677 0.930 . S
C668 H662 0.930 . S
C668 C669 1.355 . S
C668 C670 1.415 . S
C669 C668 1.355 . S
C669 C671 1.419 . S
C670 C668 1.415 . S
C670 C675 1.425 . S
C670 C677 1.409 . S
C671 H663 0.930 . S
C671 C669 1.419 . S
C671 C672 1.362 . S
C672 H664 0.930 . S
C672 C671 1.362 . S
C672 C675 1.409 . S
C673 H665 0.930 . S
C673 C674 1.355 . S
C673 C675 1.415 . S
C674 C673 1.355 . S
C674 C676 1.419 . S
C675 C670 1.425 . S
C675 C672 1.409 . S
C675 C673 1.415 . S
C676 H666 0.930 . S
C676 C674 1.419 . S
C676 C677 1.362 . S
C677 H667 0.930 . S
C677 C670 1.409 . S
C677 C676 1.362 . S
H678 C684 0.930 . S
H679 C687 0.930 . S
H680 C688 0.930 . S
H681 C689 0.930 . S
H682 C692 0.930 . S
H683 C693 0.930 . S
C684 H678 0.930 . S
C684 C685 1.355 . S
C684 C686 1.415 . S
C685 C684 1.355 . S
C685 C687 1.419 . S
C686 C684 1.415 . S
C686 C691 1.425 . S
C686 C693 1.409 . S
C687 H679 0.930 . S
C687 C685 1.419 . S
C687 C688 1.362 . S
C688 H680 0.930 . S
C688 C687 1.362 . S
C688 C691 1.409 . S
C689 H681 0.930 . S
C689 C690 1.355 . S
C689 C691 1.415 . S
C690 C689 1.355 . S
C690 C692 1.419 . S
C691 C686 1.425 . S
C691 C688 1.409 . S
C691 C689 1.415 . S
C692 H682 0.930 . S
C692 C690 1.419 . S
C692 C693 1.362 . S
C693 H683 0.930 . S
C693 C686 1.409 . S
C693 C692 1.362 . S
H694 C700 0.930 . S
H695 C703 0.930 . S
H696 C704 0.930 . S
H697 C705 0.930 . S
H698 C708 0.930 . S
H699 C709 0.930 . S
C700 H694 0.930 . S
C700 C701 1.355 . S
C700 C702 1.415 . S
C701 C700 1.355 . S
C701 C703 1.419 . S
C702 C700 1.415 . S
C702 C707 1.425 . S
C702 C709 1.409 . S
C703 H695 0.930 . S
C703 C701 1.419 . S
C703 C704 1.362 . S
C704 H696 0.930 . S
C704 C703 1.362 . S
C704 C707 1.409 . S
C705 H697 0.930 . S
C705 C706 1.355 . S
C705 C707 1.415 . S
C706 C705 1.355 . S
C706 C708 1.419 . S
C707 C702 1.425 . S
C707 C704 1.409 . S
C707 C705 1.415 . S
C708 H698 0.930 . S
C708 C706 1.419 . S
C708 C709 1.362 . S
C709 H699 0.930 . S
C709 C702 1.409 . S
C709 C708 1.362 . S
H710 C716 0.930 . S
H711 C719 0.930 . S
H712 C720 0.930 . S
H713 C721 0.930 . S
H714 C724 0.930 . S
H715 C725 0.930 . S
C716 H710 0.930 . S
C716 C717 1.355 . S
C716 C718 1.415 . S
C717 C716 1.355 . S
C717 C719 1.419 . S
C718 C716 1.415 . S
C718 C723 1.425 . S
C718 C725 1.409 . S
C719 H711 0.930 . S
C719 C717 1.419 . S
C719 C720 1.362 . S
C720 H712 0.930 . S
C720 C719 1.362 . S
C720 C723 1.409 . S
C721 H713 0.930 . S
C721 C722 1.355 . S
C721 C723 1.415 . S
C722 C721 1.355 . S
C722 C724 1.419 . S
C723 C718 1.425 . S
C723 C720 1.409 . S
C723 C721 1.415 . S
C724 H714 0.930 . S
C724 C722 1.419 . S
C724 C725 1.362 . S
C725 H715 0.930 . S
C725 C718 1.409 . S
C725 C724 1.362 . S
H726 C732 0.930 . S
H727 C735 0.930 . S
H728 C736 0.930 . S
H729 C737 0.930 . S
H730 C740 0.930 . S
H731 C741 0.930 . S
C732 H726 0.930 . S
C732 C733 1.355 . S
C732 C734 1.415 . S
C733 C732 1.355 . S
C733 C735 1.419 . S
C734 C732 1.415 . S
C734 C739 1.425 . S
C734 C741 1.409 . S
C735 H727 0.930 . S
C735 C733 1.419 . S
C735 C736 1.362 . S
C736 H728 0.930 . S
C736 C735 1.362 . S
C736 C739 1.409 . S
C737 H729 0.930 . S
C737 C738 1.355 . S
C737 C739 1.415 . S
C738 C737 1.355 . S
C738 C740 1.419 . S
C739 C734 1.425 . S
C739 C736 1.409 . S
C739 C737 1.415 . S
C740 H730 0.930 . S
C740 C738 1.419 . S
C740 C741 1.362 . S
C741 H731 0.930 . S
C741 C734 1.409 . S
C741 C740 1.362 . S
H742 C748 0.930 . S
H743 C751 0.930 . S
H744 C752 0.930 . S
H745 C753 0.930 . S
H746 C756 0.930 . S
H747 C757 0.930 . S
C748 H742 0.930 . S
C748 C749 1.355 . S
C748 C750 1.415 . S
C749 C748 1.355 . S
C749 C751 1.419 . S
C750 C748 1.415 . S
C750 C755 1.425 . S
C750 C757 1.409 . S
C751 H743 0.930 . S
C751 C749 1.419 . S
C751 C752 1.362 . S
C752 H744 0.930 . S
C752 C751 1.362 . S
C752 C755 1.409 . S
C753 H745 0.930 . S
C753 C754 1.355 . S
C753 C755 1.415 . S
C754 C753 1.355 . S
C754 C756 1.419 . S
C755 C750 1.425 . S
C755 C752 1.409 . S
C755 C753 1.415 . S
C756 H746 0.930 . S
C756 C754 1.419 . S
C756 C757 1.362 . S
C757 H747 0.930 . S
C757 C750 1.409 . S
C757 C756 1.362 . S
H758 C764 0.930 . S
H759 C767 0.930 . S
H760 C768 0.930 . S
H761 C769 0.930 . S
H762 C772 0.930 . S
H763 C773 0.930 . S
C764 H758 0.930 . S
C764 C765 1.355 . S
C764 C766 1.415 . S
C765 C764 1.355 . S
C765 C767 1.419 . S
C766 C764 1.415 . S
C766 C771 1.425 . S
C766 C773 1.409 . S
C767 H759 0.930 . S
C767 C765 1.419 . S
C767 C768 1.362 . S
C768 H760 0.930 . S
C768 C767 1.362 . S
C768 C771 1.409 . S
C769 H761 0.930 . S
C769 C770 1.355 . S
C769 C771 1.415 . S
C770 C769 1.355 . S
C770 C772 1.419 . S
C771 C766 1.425 . S
C771 C768 1.409 . S
C771 C769 1.415 . S
C772 H762 0.930 . S
C772 C770 1.419 . S
C772 C773 1.362 . S
C773 H763 0.930 . S
C773 C766 1.409 . S
C773 C772 1.362 . S
H774 C780 0.930 . S
H775 C783 0.930 . S
H776 C784 0.930 . S
H777 C785 0.930 . S
H778 C788 0.930 . S
H779 C789 0.930 . S
C780 H774 0.930 . S
C780 C781 1.355 . S
C780 C782 1.415 . S
C781 C780 1.355 . S
C781 C783 1.419 . S
C782 C780 1.415 . S
C782 C787 1.425 . S
C782 C789 1.409 . S
C783 H775 0.930 . S
C783 C781 1.419 . S
C783 C784 1.362 . S
C784 H776 0.930 . S
C784 C783 1.362 . S
C784 C787 1.409 . S
C785 H777 0.930 . S
C785 C786 1.355 . S
C785 C787 1.415 . S
C786 C785 1.355 . S
C786 C788 1.419 . S
C787 C782 1.425 . S
C787 C784 1.409 . S
C787 C785 1.415 . S
C788 H778 0.930 . S
C788 C786 1.419 . S
C788 C789 1.362 . S
C789 H779 0.930 . S
C789 C782 1.409 . S
C789 C788 1.362 . S
H790 C796 0.930 . S
H791 C799 0.930 . S
H792 C800 0.930 . S
H793 C801 0.930 . S
H794 C804 0.930 . S
H795 C805 0.930 . S
C796 H790 0.930 . S
C796 C797 1.355 . S
C796 C798 1.415 . S
C797 C796 1.355 . S
C797 C799 1.419 . S
C798 C796 1.415 . S
C798 C803 1.425 . S
C798 C805 1.409 . S
C799 H791 0.930 . S
C799 C797 1.419 . S
C799 C800 1.362 . S
C800 H792 0.930 . S
C800 C799 1.362 . S
C800 C803 1.409 . S
C801 H793 0.930 . S
C801 C802 1.355 . S
C801 C803 1.415 . S
C802 C801 1.355 . S
C802 C804 1.419 . S
C803 C798 1.425 . S
C803 C800 1.409 . S
C803 C801 1.415 . S
C804 H794 0.930 . S
C804 C802 1.419 . S
C804 C805 1.362 . S
C805 H795 0.930 . S
C805 C798 1.409 . S
C805 C804 1.362 . S
H806 C812 0.930 . S
H807 C815 0.930 . S
H808 C816 0.930 . S
H809 C817 0.930 . S
H810 C820 0.930 . S
H811 C821 0.930 . S
C812 H806 0.930 . S
C812 C813 1.355 . S
C812 C814 1.415 . S
C813 C812 1.355 . S
C813 C815 1.419 . S
C814 C812 1.415 . S
C814 C819 1.425 . S
C814 C821 1.409 . S
C815 H807 0.930 . S
C815 C813 1.419 . S
C815 C816 1.362 . S
C816 H808 0.930 . S
C816 C815 1.362 . S
C816 C819 1.409 . S
C817 H809 0.930 . S
C817 C818 1.355 . S
C817 C819 1.415 . S
C818 C817 1.355 . S
C818 C820 1.419 . S
C819 C814 1.425 . S
C819 C816 1.409 . S
C819 C817 1.415 . S
C820 H810 0.930 . S
C820 C818 1.419 . S
C820 C821 1.362 . S
C821 H811 0.930 . S
C821 C814 1.409 . S
C821 C820 1.362 . S
H822 C828 0.930 . S
H823 C831 0.930 . S
H824 C832 0.930 . S
H825 C833 0.930 . S
H826 C836 0.930 . S
H827 C837 0.930 . S
C828 H822 0.930 . S
C828 C829 1.355 . S
C828 C830 1.415 . S
C829 C828 1.355 . S
C829 C831 1.419 . S
C830 C828 1.415 . S
C830 C835 1.425 . S
C830 C837 1.409 . S
C831 H823 0.930 . S
C831 C829 1.419 . S
C831 C832 1.362 . S
C832 H824 0.930 . S
C832 C831 1.362 . S
C832 C835 1.409 . S
C833 H825 0.930 . S
C833 C834 1.355 . S
C833 C835 1.415 . S
C834 C833 1.355 . S
C834 C836 1.419 . S
C835 C830 1.425 . S
C835 C832 1.409 . S
C835 C833 1.415 . S
C836 H826 0.930 . S
C836 C834 1.419 . S
C836 C837 1.362 . S
C837 H827 0.930 . S
C837 C830 1.409 . S
C837 C836 1.362 . S
H838 C844 0.930 . S
H839 C847 0.930 . S
H840 C848 0.930 . S
H841 C849 0.930 . S
H842 C852 0.930 . S
H843 C853 0.930 . S
C844 H838 0.930 . S
C844 C845 1.355 . S
C844 C846 1.415 . S
C845 C844 1.355 . S
C845 C847 1.419 . S
C846 C844 1.415 . S
C846 C851 1.425 . S
C846 C853 1.409 . S
C847 H839 0.930 . S
C847 C845 1.419 . S
C847 C848 1.362 . S
C848 H840 0.930 . S
C848 C847 1.362 . S
C848 C851 1.409 . S
C849 H841 0.930 . S
C849 C850 1.355 . S
C849 C851 1.415 . S
C850 C849 1.355 . S
C850 C852 1.419 . S
C851 C846 1.425 . S
C851 C848 1.409 . S
C851 C849 1.415 . S
C852 H842 0.930 . S
C852 C850 1.419 . S
C852 C853 1.362 . S
C853 H843 0.930 . S
C853 C846 1.409 . S
C853 C852 1.362 . S
H854 C860 0.930 . S
H855 C863 0.930 . S
H856 C864 0.930 . S
H857 C865 0.930 . S
H858 C868 0.930 . S
H859 C869 0.930 . S
C860 H854 0.930 . S
C860 C861 1.355 . S
C860 C862 1.415 . S
C861 C860 1.355 . S
C861 C863 1.419 . S
C862 C860 1.415 . S
C862 C867 1.425 . S
C862 C869 1.409 . S
C863 H855 0.930 . S
C863 C861 1.419 . S
C863 C864 1.362 . S
C864 H856 0.930 . S
C864 C863 1.362 . S
C864 C867 1.409 . S
C865 H857 0.930 . S
C865 C866 1.355 . S
C865 C867 1.415 . S
C866 C865 1.355 . S
C866 C868 1.419 . S
C867 C862 1.425 . S
C867 C864 1.409 . S
C867 C865 1.415 . S
C868 H858 0.930 . S
C868 C866 1.419 . S
C868 C869 1.362 . S
C869 H859 0.930 . S
C869 C862 1.409 . S
C869 C868 1.362 . S
H870 C876 0.930 . S
H871 C879 0.930 . S
H872 C880 0.930 . S
H873 C881 0.930 . S
H874 C884 0.930 . S
H875 C885 0.930 . S
C876 H870 0.930 . S
C876 C877 1.355 . S
C876 C878 1.415 . S
C877 C876 1.355 . S
C877 C879 1.419 . S
C878 C876 1.415 . S
C878 C883 1.425 . S
C878 C885 1.409 . S
C879 H871 0.930 . S
C879 C877 1.419 . S
C879 C880 1.362 . S
C880 H872 0.930 . S
C880 C879 1.362 . S
C880 C883 1.409 . S
C881 H873 0.930 . S
C881 C882 1.355 . S
C881 C883 1.415 . S
C882 C881 1.355 . S
C882 C884 1.419 . S
C883 C878 1.425 . S
C883 C880 1.409 . S
C883 C881 1.415 . S
C884 H874 0.930 . S
C884 C882 1.419 . S
C884 C885 1.362 . S
C885 H875 0.930 . S
C885 C878 1.409 . S
C885 C884 1.362 . S
H886 C892 0.930 . S
H887 C895 0.930 . S
H888 C896 0.930 . S
H889 C897 0.930 . S
H890 C900 0.930 . S
H891 C901 0.930 . S
C892 H886 0.930 . S
C892 C893 1.355 . S
C892 C894 1.415 . S
C893 C892 1.355 . S
C893 C895 1.419 . S
C894 C892 1.415 . S
C894 C899 1.425 . S
C894 C901 1.409 . S
C895 H887 0.930 . S
C895 C893 1.419 . S
C895 C896 1.362 . S
C896 H888 0.930 . S
C896 C895 1.362 . S
C896 C899 1.409 . S
C897 H889 0.930 . S
C897 C898 1.355 . S
C897 C899 1.415 . S
C898 C897 1.355 . S
C898 C900 1.419 . S
C899 C894 1.425 . S
C899 C896 1.409 . S
C899 C897 1.415 . S
C900 H890 0.930 . S
C900 C898 1.419 . S
C900 C901 1.362 . S
C901 H891 0.930 . S
C901 C894 1.409 . S
C901 C900 1.362 . S
H902 C908 0.930 . S
H903 C911 0.930 . S
H904 C912 0.930 . S
H905 C913 0.930 . S
H906 C916 0.930 . S
H907 C917 0.930 . S
C908 H902 0.930 . S
C908 C909 1.355 . S
C908 C910 1.415 . S
C909 C908 1.355 . S
C909 C911 1.419 . S
C910 C908 1.415 . S
C910 C915 1.425 . S
C910 C917 1.409 . S
C911 H903 0.930 . S
C911 C909 1.419 . S
C911 C912 1.362 . S
C912 H904 0.930 . S
C912 C911 1.362 . S
C912 C915 1.409 . S
C913 H905 0.930 . S
C913 C914 1.355 . S
C913 C915 1.415 . S
C914 C913 1.355 . S
C914 C916 1.419 . S
C915 C910 1.425 . S
C915 C912 1.409 . S
C915 C913 1.415 . S
C916 H906 0.930 . S
C916 C914 1.419 . S
C916 C917 1.362 . S
C917 H907 0.930 . S
C917 C910 1.409 . S
C917 C916 1.362 . S
H918 C924 0.930 . S
H919 C927 0.930 . S
H920 C928 0.930 . S
H921 C929 0.930 . S
H922 C932 0.930 . S
H923 C933 0.930 . S
C924 H918 0.930 . S
C924 C925 1.355 . S
C924 C926 1.415 . S
C925 C924 1.355 . S
C925 C927 1.419 . S
C926 C924 1.415 . S
C926 C931 1.425 . S
C926 C933 1.409 . S
C927 H919 0.930 . S
C927 C925 1.419 . S
C927 C928 1.362 . S
C928 H920 0.930 . S
C928 C927 1.362 . S
C928 C931 1.409 . S
C929 H921 0.930 . S
C929 C930 1.355 . S
C929 C931 1.415 . S
C930 C929 1.355 . S
C930 C932 1.419 . S
C931 C926 1.425 . S
C931 C928 1.409 . S
C931 C929 1.415 . S
C932 H922 0.930 . S
C932 C930 1.419 . S
C932 C933 1.362 . S
C933 H923 0.930 . S
C933 C926 1.409 . S
C933 C932 1.362 . S
H934 C940 0.930 . S
H935 C943 0.930 . S
H936 C944 0.930 . S
H937 C945 0.930 . S
H938 C948 0.930 . S
H939 C949 0.930 . S
C940 H934 0.930 . S
C940 C941 1.355 . S
C940 C942 1.415 . S
C941 C940 1.355 . S
C941 C943 1.419 . S
C942 C940 1.415 . S
C942 C947 1.425 . S
C942 C949 1.409 . S
C943 H935 0.930 . S
C943 C941 1.419 . S
C943 C944 1.362 . S
C944 H936 0.930 . S
C944 C943 1.362 . S
C944 C947 1.409 . S
C945 H937 0.930 . S
C945 C946 1.355 . S
C945 C947 1.415 . S
C946 C945 1.355 . S
C946 C948 1.419 . S
C947 C942 1.425 . S
C947 C944 1.409 . S
C947 C945 1.415 . S
C948 H938 0.930 . S
C948 C946 1.419 . S
C948 C949 1.362 . S
C949 H939 0.930 . S
C949 C942 1.409 . S
C949 C948 1.362 . S
H950 C956 0.930 . S
H951 C959 0.930 . S
H952 C960 0.930 . S
H953 C961 0.930 . S
H954 C964 0.930 . S
H955 C965 0.930 . S
C956 H950 0.930 . S
C956 C957 1.355 . S
C956 C958 1.415 . S
C957 C956 1.355 . S
C957 C959 1.419 . S
C958 C956 1.415 . S
C958 C963 1.425 . S
C958 C965 1.409 . S
C959 H951 0.930 . S
C959 C957 1.419 . S
C959 C960 1.362 . S
C960 H952 0.930 . S
C960 C959 1.362 . S
C960 C963 1.409 . S
C961 H953 0.930 . S
C961 C962 1.355 . S
C961 C963 1.415 . S
C962 C961 1.355 . S
C962 C964 1.419 . S
C963 C958 1.425 . S
C963 C960 1.409 . S
C963 C961 1.415 . S
C964 H954 0.930 . S
C964 C962 1.419 . S
C964 C965 1.362 . S
C965 H955 0.930 . S
C965 C958 1.409 . S
C965 C964 1.362 . S
H966 C972 0.930 . S
H967 C975 0.930 . S
H968 C976 0.930 . S
H969 C977 0.930 . S
H970 C980 0.930 . S
H971 C981 0.930 . S
C972 H966 0.930 . S
C972 C973 1.355 . S
C972 C974 1.415 . S
C973 C972 1.355 . S
C973 C975 1.419 . S
C974 C972 1.415 . S
C974 C979 1.425 . S
C974 C981 1.409 . S
C975 H967 0.930 . S
C975 C973 1.419 . S
C975 C976 1.362 . S
C976 H968 0.930 . S
C976 C975 1.362 . S
C976 C979 1.409 . S
C977 H969 0.930 . S
C977 C978 1.355 . S
C977 C979 1.415 . S
C978 C977 1.355 . S
C978 C980 1.419 . S
C979 C974 1.425 . S
C979 C976 1.409 . S
C979 C977 1.415 . S
C980 H970 0.930 . S
C980 C978 1.419 . S
C980 C981 1.362 . S
C981 H971 0.930 . S
C981 C974 1.409 . S
C981 C980 1.362 . S
H982 C988 0.930 . S
H983 C991 0.930 . S
H984 C992 0.930 . S
H985 C993 0.930 . S
H986 C996 0.930 . S
H987 C997 0.930 . S
C988 H982 0.930 . S
C988 C989 1.355 . S
C988 C990 1.415 . S
C989 C988 1.355 . S
C989 C991 1.419 . S
C990 C988 1.415 . S
C990 C995 1.425 . S
C990 C997 1.409 . S
C991 H983 0.930 . S
C991 C989 1.419 . S
C991 C992 1.362 . S
C992 H984 0.930 . S
C992 C991 1.362 . S
C992 C995 1.409 . S
C993 H985 0.930 . S
C993 C994 1.355 . S
C993 C995 1.415 . S
C994 C993 1.355 . S
C994 C996 1.419 . S
C995 C990 1.425 . S
C995 C992 1.409 . S
C995 C993 1.415 . S
C996 H986 0.930 . S
C996 C994 1.419 . S
C996 C997 1.362 . S
C997 H987 0.930 . S
C997 C990 1.409 . S
C997 C996 1.362 . S
H998 C1004 0.930 . S
H999 C1007 0.930 . S
H1000 C1008 0.930 . S
H1001 C1009 0.930 . S
H1002 C1012 0.930 . S
H1003 C1013 0.930 . S
C1004 H998 0.930 . S
C1004 C1005 1.355 . S
C1004 C1006 1.415 . S
C1005 C1004 1.355 . S
C1005 C1007 1.419 . S
C1006 C1004 1.415 . S
C1006 C1011 1.425 . S
C1006 C1013 1.409 . S
C1007 H999 0.930 . S
C1007 C1005 1.419 . S
C1007 C1008 1.362 . S
C1008 H1000 0.930 . S
C1008 C1007 1.362 . S
C1008 C1011 1.409 . S
C1009 H1001 0.930 . S
C1009 C1010 1.355 . S
C1009 C1011 1.415 . S
C1010 C1009 1.355 . S
C1010 C1012 1.419 . S
C1011 C1006 1.425 . S
C1011 C1008 1.409 . S
C1011 C1009 1.415 . S
C1012 H1002 0.930 . S
C1012 C1010 1.419 . S
C1012 C1013 1.362 . S
C1013 H1003 0.930 . S
C1013 C1006 1.409 . S
C1013 C1012 1.362 . S
H1014 C1020 0.930 . S
H1015 C1023 0.930 . S
H1016 C1024 0.930 . S
H1017 C1025 0.930 . S
H1018 C1028 0.930 . S
H1019 C1029 0.930 . S
C1020 H1014 0.930 . S
C1020 C1021 1.355 . S
C1020 C1022 1.415 . S
C1021 C1020 1.355 . S
C1021 C1023 1.419 . S
C1022 C1020 1.415 . S
C1022 C1027 1.425 . S
C1022 C1029 1.409 . S
C1023 H1015 0.930 . S
C1023 C1021 1.419 . S
C1023 C1024 1.362 . S
C1024 H1016 0.930 . S
C1024 C1023 1.362 . S
C1024 C1027 1.409 . S
C1025 H1017 0.930 . S
C1025 C1026 1.355 . S
C1025 C1027 1.415 . S
C1026 C1025 1.355 . S
C1026 C1028 1.419 . S
C1027 C1022 1.425 . S
C1027 C1024 1.409 . S
C1027 C1025 1.415 . S
C1028 H1018 0.930 . S
C1028 C1026 1.419 . S
C1028 C1029 1.362 . S
C1029 H1019 0.930 . S
C1029 C1022 1.409 . S
C1029 C1028 1.362 . S
H1030 C1036 0.930 . S
H1031 C1039 0.930 . S
H1032 C1040 0.930 . S
H1033 C1041 0.930 . S
H1034 C1044 0.930 . S
H1035 C1045 0.930 . S
C1036 H1030 0.930 . S
C1036 C1037 1.355 . S
C1036 C1038 1.415 . S
C1037 C1036 1.355 . S
C1037 C1039 1.419 . S
C1038 C1036 1.415 . S
C1038 C1043 1.425 . S
C1038 C1045 1.409 . S
C1039 H1031 0.930 . S
C1039 C1037 1.419 . S
C1039 C1040 1.362 . S
C1040 H1032 0.930 . S
C1040 C1039 1.362 . S
C1040 C1043 1.409 . S
C1041 H1033 0.930 . S
C1041 C1042 1.355 . S
C1041 C1043 1.415 . S
C1042 C1041 1.355 . S
C1042 C1044 1.419 . S
C1043 C1038 1.425 . S
C1043 C1040 1.409 . S
C1043 C1041 1.415 . S
C1044 H1034 0.930 . S
C1044 C1042 1.419 . S
C1044 C1045 1.362 . S
C1045 H1035 0.930 . S
C1045 C1038 1.409 . S
C1045 C1044 1.362 . S
H1046 C1052 0.930 . S
H1047 C1055 0.930 . S
H1048 C1056 0.930 . S
H1049 C1057 0.930 . S
H1050 C1060 0.930 . S
H1051 C1061 0.930 . S
C1052 H1046 0.930 . S
C1052 C1053 1.355 . S
C1052 C1054 1.415 . S
C1053 C1052 1.355 . S
C1053 C1055 1.419 . S
C1054 C1052 1.415 . S
C1054 C1059 1.425 . S
C1054 C1061 1.409 . S
C1055 H1047 0.930 . S
C1055 C1053 1.419 . S
C1055 C1056 1.362 . S
C1056 H1048 0.930 . S
C1056 C1055 1.362 . S
C1056 C1059 1.409 . S
C1057 H1049 0.930 . S
C1057 C1058 1.355 . S
C1057 C1059 1.415 . S
C1058 C1057 1.355 . S
C1058 C1060 1.419 . S
C1059 C1054 1.425 . S
C1059 C1056 1.409 . S
C1059 C1057 1.415 . S
C1060 H1050 0.930 . S
C1060 C1058 1.419 . S
C1060 C1061 1.362 . S
C1061 H1051 0.930 . S
C1061 C1054 1.409 . S
C1061 C1060 1.362 . S
H1062 C1068 0.930 . S
H1063 C1071 0.930 . S
H1064 C1072 0.930 . S
H1065 C1073 0.930 . S
H1066 C1076 0.930 . S
H1067 C1077 0.930 . S
C1068 H1062 0.930 . S
C1068 C1069 1.355 . S
C1068 C1070 1.415 . S
C1069 C1068 1.355 . S
C1069 C1071 1.419 . S
C1070 C1068 1.415 . S
C1070 C1075 1.425 . S
C1070 C1077 1.409 . S
C1071 H1063 0.930 . S
C1071 C1069 1.419 . S
C1071 C1072 1.362 . S
C1072 H1064 0.930 . S
C1072 C1071 1.362 . S
C1072 C1075 1.409 . S
C1073 H1065 0.930 . S
C1073 C1074 1.355 . S
C1073 C1075 1.415 . S
C1074 C1073 1.355 . S
C1074 C1076 1.419 . S
C1075 C1070 1.425 . S
C1075 C1072 1.409 . S
C1075 C1073 1.415 . S
C1076 H1066 0.930 . S
C1076 C1074 1.419 . S
C1076 C1077 1.362 . S
C1077 H1067 0.930 . S
C1077 C1070 1.409 . S
C1077 C1076 1.362 . S
H1078 C1084 0.930 . S
H1079 C1087 0.930 . S
H1080 C1088 0.930 . S
H1081 C1089 0.930 . S
H1082 C1092 0.930 . S
H1083 C1093 0.930 . S
C1084 H1078 0.930 . S
C1084 C1085 1.355 . S
C1084 C1086 1.415 . S
C1085 C1084 1.355 . S
C1085 C1087 1.419 . S
C1086 C1084 1.415 . S
C1086 C1091 1.425 . S
C1086 C1093 1.409 . S
C1087 H1079 0.930 . S
C1087 C1085 1.419 . S
C1087 C1088 1.362 . S
C1088 H1080 0.930 . S
C1088 C1087 1.362 . S
C1088 C1091 1.409 . S
C1089 H1081 0.930 . S
C1089 C1090 1.355 . S
C1089 C1091 1.415 . S
C1090 C1089 1.355 . S
C1090 C1092 1.419 . S
C1091 C1086 1.425 . S
C1091 C1088 1.409 . S
C1091 C1089 1.415 . S
C1092 H1082 0.930 . S
C1092 C1090 1.419 . S
C1092 C1093 1.362 . S
C1093 H1083 0.930 . S
C1093 C1086 1.409 . S
C1093 C1092 1.362 . S
H1094 C1100 0.930 . S
H1095 C1103 0.930 . S
H1096 C1104 0.930 . S
H1097 C1105 0.930 . S
H1098 C1108 0.930 . S
H1099 C1109 0.930 . S
C1100 H1094 0.930 . S
C1100 C1101 1.355 . S
C1100 C1102 1.415 . S
C1101 C1100 1.355 . S
C1101 C1103 1.419 . S
C1102 C1100 1.415 . S
C1102 C1107 1.425 . S
C1102 C1109 1.409 . S
C1103 H1095 0.930 . S
C1103 C1101 1.419 . S
C1103 C1104 1.362 . S
C1104 H1096 0.930 . S
C1104 C1103 1.362 . S
C1104 C1107 1.409 . S
C1105 H1097 0.930 . S
C1105 C1106 1.355 . S
C1105 C1107 1.415 . S
C1106 C1105 1.355 . S
C1106 C1108 1.419 . S
C1107 C1102 1.425 . S
C1107 C1104 1.409 . S
C1107 C1105 1.415 . S
C1108 H1098 0.930 . S
C1108 C1106 1.419 . S
C1108 C1109 1.362 . S
C1109 H1099 0.930 . S
C1109 C1102 1.409 . S
C1109 C1108 1.362 . S
H1110 C1116 0.930 . S
H1111 C1119 0.930 . S
H1112 C1120 0.930 . S
H1113 C1121 0.930 . S
H1114 C1124 0.930 . S
H1115 C1125 0.930 . S
C1116 H1110 0.930 . S
C1116 C1117 1.355 . S
C1116 C1118 1.415 . S
C1117 C1116 1.355 . S
C1117 C1119 1.419 . S
C1118 C1116 1.415 . S
C1118 C1123 1.425 . S
C1118 C1125 1.409 . S
C1119 H1111 0.930 . S
C1119 C1117 1.419 . S
C1119 C1120 1.362 . S
C1120 H1112 0.930 . S
C1120 C1119 1.362 . S
C1120 C1123 1.409 . S
C1121 H1113 0.930 . S
C1121 C1122 1.355 . S
C1121 C1123 1.415 . S
C1122 C1121 1.355 . S
C1122 C1124 1.419 . S
C1123 C1118 1.425 . S
C1123 C1120 1.409 . S
C1123 C1121 1.415 . S
C1124 H1114 0.930 . S
C1124 C1122 1.419 . S
C1124 C1125 1.362 . S
C1125 H1115 0.930 . S
C1125 C1118 1.409 . S
C1125 C1124 1.362 . S
C370 C187 1.928 . S
C365 C19 2.051 . S
C386 C188 1.773 . S
C381 C24 1.775 . S
C402 C182 1.353 . S
C397 C59 1.295 . S
C413 C69 1.073 . S
C418 C181 1.133 . S
C429 C82 1.750 . S
C434 C184 1.757 . S
C450 C186 1.349 . S
C445 C118 1.319 . S
C461 C132 1.081 . S
C466 C185 1.153 . S
C477 C158 2.029 . S
C482 C183 1.897 . S
C498 C218 1.811 . S
C493 C4 1.534 . S
C509 C29 1.001 . S
C514 C249 1.014 . S
C530 C217 1.552 . S
C525 C44 1.408 . S
C546 C252 1.277 . S
C541 C79 1.185 . S
C557 C98 1.478 . S
C562 C215 1.403 . S
C578 C247 1.463 . S
C573 C112 1.355 . S
C589 C122 1.050 . S
C594 C220 1.212 . S
C605 C152 1.283 . S
C610 C254 1.244 . S
C621 C9 1.254 . S
C626 C250 1.238 . S
C637 C92 1.082 . S
C642 C253 1.027 . S
C658 C221 1.524 . S
C653 C102 1.410 . S
C674 C248 1.216 . S
C669 C138 1.256 . S
C685 C142 1.532 . S
C690 C214 1.809 . S
C701 C49 1.416 . S
C706 C251 1.485 . S
C722 C216 1.119 . S
C717 C64 1.181 . S
C733 C39 1.451 . S
C738 C219 1.446 . S
C749 C159 2.010 . S
C754 C286 1.901 . S
C765 C84 1.434 . S
C770 C287 1.464 . S
C786 C281 1.291 . S
C781 C119 1.350 . S
C802 C280 1.490 . S
C797 C129 1.447 . S
C813 C22 1.501 . S
C818 C283 1.518 . S
C834 C285 1.341 . S
C829 C58 1.357 . S
C845 C72 1.445 . S
C850 C284 1.460 . S
C861 C18 2.037 . S
C866 C282 1.915 . S
C877 C144 1.753 . S
C882 C320 1.798 . S
C898 C352 0.904 . S
C893 C89 0.802 . S
C909 C104 1.418 . S
C914 C313 1.495 . S
C925 C139 1.456 . S
C930 C347 1.516 . S
C946 C318 1.265 . S
C941 C38 1.283 . S
C957 C52 1.551 . S
C962 C349 1.598 . S
C978 C315 1.380 . S
C973 C62 1.375 . S
C994 C350 1.364 . S
C989 C12 1.239 . S
C1010 C346 1.346 . S
C1005 C149 1.152 . S
C1021 C32 0.844 . S
C1026 C348 0.884 . S
C1037 C42 1.392 . S
C1042 C317 1.505 . S
C1058 C351 1.502 . S
C1053 C78 1.497 . S
C1069 C2 1.669 . S
C1074 C316 1.815 . S
C1085 C109 1.492 . S
C1090 C353 1.619 . S
C1106 C319 1.319 . S
C1101 C124 1.346 . S
C1122 C314 1.294 . S
C1117 C99 1.291 . S
