# Generated by pormake.
# Topology anh, (6,3)-cn, num edge types: 1
# Building blocks:
#     Node 0, Type 0, BuildingBlock: BETDAH_clean_sbu_0, # of connection points: 6
#     Node 1, Type 0, BuildingBlock: BETDAH_clean_sbu_0, # of connection points: 6
#     Node 2, Type 0, BuildingBlock: BETDAH_clean_sbu_0, # of connection points: 6
#     Node 3, Type 1, BuildingBlock: OLANEW_clean_sbu_2, # of connection points: 3
#     Node 4, Type 1, BuildingBlock: OLANEW_clean_sbu_2, # of connection points: 3
#     Node 5, Type 1, BuildingBlock: OLANEW_clean_sbu_2, # of connection points: 3
#     Node 6, Type 1, BuildingBlock: OLANEW_clean_sbu_2, # of connection points: 3
#     Node 7, Type 1, BuildingBlock: OLANEW_clean_sbu_2, # of connection points: 3
#     Node 8, Type 1, BuildingBlock: OLANEW_clean_sbu_2, # of connection points: 3
#     Edge 9, Type (0, 1), BuildingBlock: XUDNAN_clean_linker_2, # of connection points: 2
#     Edge 10, Type (0, 1), BuildingBlock: XUDNAN_clean_linker_2, # of connection points: 2
#     Edge 11, Type (0, 1), BuildingBlock: XUDNAN_clean_linker_2, # of connection points: 2
#     Edge 12, Type (0, 1), BuildingBlock: XUDNAN_clean_linker_2, # of connection points: 2
#     Edge 13, Type (0, 1), BuildingBlock: XUDNAN_clean_linker_2, # of connection points: 2
#     Edge 14, Type (0, 1), BuildingBlock: XUDNAN_clean_linker_2, # of connection points: 2
#     Edge 15, Type (0, 1), BuildingBlock: XUDNAN_clean_linker_2, # of connection points: 2
#     Edge 16, Type (0, 1), BuildingBlock: XUDNAN_clean_linker_2, # of connection points: 2
#     Edge 17, Type (0, 1), BuildingBlock: XUDNAN_clean_linker_2, # of connection points: 2
#     Edge 18, Type (0, 1), BuildingBlock: XUDNAN_clean_linker_2, # of connection points: 2
#     Edge 19, Type (0, 1), BuildingBlock: XUDNAN_clean_linker_2, # of connection points: 2
#     Edge 20, Type (0, 1), BuildingBlock: XUDNAN_clean_linker_2, # of connection points: 2
#     Edge 21, Type (0, 1), BuildingBlock: XUDNAN_clean_linker_2, # of connection points: 2
#     Edge 22, Type (0, 1), BuildingBlock: XUDNAN_clean_linker_2, # of connection points: 2
#     Edge 23, Type (0, 1), BuildingBlock: XUDNAN_clean_linker_2, # of connection points: 2
#     Edge 24, Type (0, 1), BuildingBlock: XUDNAN_clean_linker_2, # of connection points: 2
#     Edge 25, Type (0, 1), BuildingBlock: XUDNAN_clean_linker_2, # of connection points: 2
#     Edge 26, Type (0, 1), BuildingBlock: XUDNAN_clean_linker_2, # of connection points: 2
# Relax obj value: 0.141
# Max RMSD: 0.172
# Mean RMSD: 0.115
data_MOF--net-anh--node1-BETDAH_clean_sbu_0--node2-OLANEW_clean_sbu_2--edge1-XUDNAN_clean_linker_2
_symmetry_space_group_name_H-M    P1
_symmetry_Int_Tables_number       1
_symmetry_cell_setting            triclinic
loop_
_symmetry_equiv_pos_as_xyz
'x, y, z'
_cell_length_a     37.220251
_cell_length_b     41.386965
_cell_length_c     50.394011
_cell_angle_alpha  92.064
_cell_angle_beta   89.691463
_cell_angle_gamma 130.28976
loop_
_atom_site_label
_atom_site_type_symbol
_atom_site_fract_x
_atom_site_fract_y
_atom_site_fract_z
_atom_type_partial_charge
Ho0 Ho 0.02587 0.46544 0.11966 0.0
Ho1 Ho 0.97471 0.49596 0.13952 0.0
C2 C 0.08459 0.56665 0.13304 0.0
C3 C 0.07714 0.45199 0.09623 0.0
C4 C 0.12214 0.46297 0.10363 0.0
C5 C 0.16038 0.5037 0.11391 0.0
C6 C 0.20016 0.51157 0.12448 0.0
C7 C 0.20183 0.47869 0.12536 0.0
C8 C 0.16419 0.4384 0.11435 0.0
C9 C 0.12479 0.43069 0.10346 0.0
C10 C 0.01638 0.46452 0.17278 0.0
C11 C 0.91557 0.39587 0.12531 0.0
C12 C 0.92268 0.50552 0.16627 0.0
C13 C 0.87223 0.47792 0.17182 0.0
C14 C 0.85773 0.48184 0.19654 0.0
C15 C 0.80981 0.45717 0.20171 0.0
C16 C 0.7756 0.42842 0.18211 0.0
C17 C 0.79044 0.42314 0.15782 0.0
C18 C 0.83834 0.4475 0.15279 0.0
C19 C 0.98547 0.4963 0.08627 0.0
O20 O 0.08279 0.53736 0.11967 0.0
O21 O 0.0478 0.55698 0.14569 0.0
O22 O 0.04236 0.42487 0.11155 0.0
O23 O 0.07804 0.48309 0.09037 0.0
O24 O 0.01658 0.43761 0.15915 0.0
O25 O 0.02553 0.49273 0.158 0.0
O26 O 0.91857 0.42452 0.14023 0.0
O27 O 0.95133 0.40663 0.11085 0.0
O28 O 0.93453 0.51686 0.14171 0.0
O29 O 0.94531 0.49473 0.17696 0.0
O30 O 0.98731 0.52497 0.09939 0.0
O31 O 0.97529 0.46844 0.10165 0.0
H32 H 0.15894 0.52904 0.1146 0.0
H33 H 0.22879 0.54288 0.13289 0.0
H34 H 0.16502 0.41271 0.11446 0.0
H35 H 0.09556 0.39903 0.09578 0.0
H36 H 0.8835 0.50457 0.21166 0.0
H37 H 0.79959 0.46147 0.22079 0.0
H38 H 0.76523 0.40175 0.14214 0.0
H39 H 0.84887 0.44339 0.13374 0.0
Ho40 Ho 0.55006 0.02212 0.48017 0.0
Ho41 Ho 0.4831 0.03889 0.47271 0.0
C42 C 0.43927 0.94417 0.46432 0.0
C43 C 0.59132 0.99363 0.49474 0.0
C44 C 0.57884 0.95233 0.4983 0.0
C45 C 0.53282 0.91634 0.5043 0.0
C46 C 0.52191 0.87736 0.50735 0.0
C47 C 0.55693 0.87383 0.50457 0.0
C48 C 0.60288 0.91003 0.49842 0.0
C49 C 0.61366 0.94885 0.49529 0.0
C50 C 0.54872 0.04538 0.4313 0.0
C51 C 0.5957 0.11816 0.48512 0.0
C52 C 0.44219 0.06892 0.46113 0.0
C53 C 0.4522 0.10882 0.46844 0.0
C54 C 0.42517 0.1178 0.45738 0.0
C55 C 0.43478 0.15582 0.46439 0.0
C56 C 0.47194 0.18561 0.48235 0.0
C57 C 0.49882 0.17635 0.49342 0.0
C58 C 0.48876 0.13815 0.48668 0.0
C59 C 0.48652 0.01684 0.52171 0.0
O60 O 0.47779 0.95643 0.47689 0.0
O61 O 0.43588 0.97213 0.45625 0.0
O62 O 0.59026 1.0025 0.47029 0.0
O63 O 0.57339 0.00457 0.51142 0.0
O64 O 0.58653 0.05733 0.44334 0.0
O65 O 0.51299 0.02001 0.4451 0.0
O66 O 0.55437 0.10504 0.47663 0.0
O67 O 0.60208 0.09133 0.49097 0.0
O68 O 0.42957 0.04376 0.48062 0.0
O69 O 0.47298 0.07232 0.44591 0.0
O70 O 0.44799 0.00355 0.50998 0.0
O71 O 0.52128 0.0422 0.50745 0.0
H72 H 0.50547 0.91844 0.50679 0.0
H73 H 0.48631 0.8502 0.51233 0.0
H74 H 0.63049 0.90828 0.49576 0.0
H75 H 0.64929 0.97624 0.49049 0.0
H76 H 0.39669 0.09543 0.44332 0.0
H77 H 0.41364 0.16223 0.45547 0.0
H78 H 0.52722 0.19839 0.50759 0.0
H79 H 0.50937 0.13136 0.49582 0.0
Ho80 Ho 0.62484 0.60132 0.85343 0.0
Ho81 Ho 0.56482 0.5084 0.86754 0.0
C82 C 0.51526 0.54883 0.86905 0.0
C83 C 0.66049 0.6716 0.8311 0.0
C84 C 0.65101 0.70044 0.82657 0.0
C85 C 0.67926 0.7329 0.80884 0.0
C86 C 0.67348 0.76256 0.80514 0.0
C87 C 0.63931 0.76051 0.81917 0.0
C88 C 0.60978 0.72694 0.83631 0.0
C89 C 0.61568 0.69714 0.84005 0.0
C90 C 0.62692 0.5883 0.90516 0.0
C91 C 0.6783 0.56521 0.85925 0.0
C92 C 0.52841 0.43487 0.88478 0.0
C93 C 0.5227 0.39801 0.87391 0.0
C94 C 0.53748 0.38041 0.889 0.0
C95 C 0.53108 0.34482 0.87915 0.0
C96 C 0.50926 0.32592 0.85415 0.0
C97 C 0.49531 0.34409 0.8389 0.0
C98 C 0.50214 0.37981 0.84858 0.0
C99 C 0.5676 0.52201 0.81511 0.0
O100 O 0.55056 0.57908 0.85451 0.0
O101 O 0.51713 0.52164 0.88062 0.0
O102 O 0.67041 0.66971 0.85554 0.0
O103 O 0.63283 0.63446 0.8186 0.0
O104 O 0.66249 0.62102 0.89318 0.0
O105 O 0.59123 0.56638 0.8899 0.0
O106 O 0.6396 0.53224 0.87049 0.0
O107 O 0.67901 0.5937 0.84739 0.0
O108 O 0.50393 0.44295 0.87297 0.0
O109 O 0.57141 0.46927 0.8909 0.0
O110 O 0.53125 0.48917 0.82636 0.0
O111 O 0.60122 0.54366 0.83163 0.0
H112 H 0.70643 0.73571 0.79811 0.0
H113 H 0.69612 0.7874 0.79136 0.0
H114 H 0.58317 0.72449 0.84743 0.0
H115 H 0.59336 0.67209 0.85376 0.0
H116 H 0.55357 0.39397 0.90853 0.0
H117 H 0.54203 0.33142 0.89138 0.0
H118 H 0.47908 0.33064 0.81938 0.0
H119 H 0.49093 0.39291 0.83626 0.0
O120 O 0.52621 0.05148 0.22119 0.0
Cd121 Cd 0.52036 0.04726 0.17274 0.0
O122 O 0.46439 0.98708 0.23262 0.0
Cd123 Cd 0.43686 0.95443 0.19347 0.0
O124 O 0.38978 0.89418 0.17013 0.0
C125 C 0.34786 0.86751 0.17824 0.0
O126 O 0.33533 0.87846 0.19876 0.0
C127 C 0.50061 0.02509 0.23897 0.0
C128 C 0.60717 0.11744 0.15344 0.0
O129 O 0.57614 0.12021 0.16061 0.0
O130 O 0.59685 0.08141 0.15488 0.0
O131 O 0.49325 0.48946 0.61343 0.0
Cd132 Cd 0.4702 0.47518 0.56629 0.0
O133 O 0.54951 0.55815 0.60898 0.0
Cd134 Cd 0.52621 0.56172 0.57029 0.0
O135 O 0.5146 0.59856 0.54756 0.0
C136 C 0.54436 0.63843 0.5523 0.0
O137 O 0.57965 0.65381 0.56896 0.0
C138 C 0.52828 0.52581 0.6231 0.0
C139 C 0.48303 0.42044 0.54379 0.0
O140 O 0.51659 0.46071 0.54494 0.0
O141 O 0.4431 0.40595 0.55298 0.0
O142 O 0.13681 0.55852 0.90293 0.0
Cd143 Cd 0.20736 0.59327 0.87397 0.0
O144 O 0.09399 0.5755 0.88979 0.0
Cd145 Cd 0.03271 0.57455 0.89086 0.0
O146 O 0.97934 0.58264 0.88322 0.0
C147 C 0.93552 0.55648 0.8885 0.0
O148 O 0.91856 0.52114 0.89983 0.0
C149 C 0.10148 0.557 0.90574 0.0
C150 C 0.26905 0.57502 0.87952 0.0
O151 O 0.2664 0.59583 0.89768 0.0
O152 O 0.24188 0.56148 0.85902 0.0
O153 O 0.03468 0.55119 0.37168 0.0
Cd154 Cd 0.04419 0.58167 0.41642 0.0
O155 O 0.98297 0.48331 0.38107 0.0
Cd156 Cd 0.96172 0.48145 0.42198 0.0
O157 O 0.90086 0.43475 0.4463 0.0
C158 C 0.89112 0.39947 0.44947 0.0
O159 O 0.9198 0.39394 0.4399 0.0
C160 C 1.00963 0.51212 0.36467 0.0
C161 C 0.13728 0.65625 0.42763 0.0
O162 O 0.12366 0.61969 0.43259 0.0
O163 O 0.107 0.65772 0.41727 0.0
O164 O 0.51505 0.98057 0.72724 0.0
Cd165 Cd 0.52698 0.98428 0.77538 0.0
O166 O 0.55116 0.04791 0.72069 0.0
Cd167 Cd 0.55753 0.07085 0.76176 0.0
O168 O 0.54739 0.10964 0.78602 0.0
C169 C 0.50799 0.10073 0.78242 0.0
O170 O 0.47667 0.06852 0.76619 0.0
C171 C 0.53033 0.01035 0.71161 0.0
C172 C 0.56334 0.94464 0.78817 0.0
O173 O 0.51876 0.92343 0.78662 0.0
O174 O 0.59043 0.98435 0.78391 0.0
O175 O 0.51628 0.47125 0.091 0.0
Cd176 Cd 0.47087 0.43645 0.13122 0.0
O177 O 0.5855 0.52302 0.10982 0.0
Cd178 Cd 0.55374 0.51298 0.14812 0.0
O179 O 0.49731 0.50719 0.16679 0.0
C180 C 0.4926 0.53289 0.15847 0.0
O181 O 0.52372 0.56168 0.14198 0.0
C182 C 0.56015 0.50253 0.08904 0.0
C183 C 0.50679 0.40355 0.15662 0.0
O184 O 0.47547 0.38186 0.13802 0.0
O185 O 0.51923 0.43955 0.16384 0.0
H186 H 0.29544 0.54211 0.11662 0.0
H187 H 0.19861 0.43059 0.16244 0.0
H188 H 0.26546 0.43904 0.18147 0.0
H189 H 0.36624 0.51901 0.09841 0.0
H190 H 0.42103 0.57294 0.10008 0.0
H191 H 0.36673 0.56225 0.09356 0.0
H192 H 0.38411 0.61164 0.13384 0.0
H193 H 0.4386 0.62245 0.14052 0.0
H194 H 0.39566 0.60233 0.16614 0.0
H195 H 0.34095 0.4545 0.19133 0.0
H196 H 0.41899 0.47369 0.18961 0.0
H197 H 0.4667 0.57512 0.13722 0.0
C198 C 0.2886 0.52024 0.13121 0.0
C199 C 0.24214 0.48586 0.13823 0.0
C200 C 0.23412 0.45706 0.15681 0.0
C201 C 0.27183 0.46183 0.16787 0.0
C202 C 0.31726 0.49562 0.16016 0.0
C203 C 0.32582 0.52436 0.14226 0.0
C204 C 0.37722 0.55502 0.13505 0.0
C205 C 0.38312 0.55209 0.10501 0.0
C206 C 0.40025 0.60056 0.14446 0.0
C207 C 0.39585 0.53805 0.15091 0.0
C208 C 0.36094 0.5043 0.16566 0.0
C209 C 0.36883 0.48133 0.18022 0.0
C210 C 0.41324 0.49243 0.1791 0.0
C211 C 0.44895 0.52595 0.16334 0.0
C212 C 0.44036 0.54969 0.14973 0.0
H213 H 0.68909 0.15676 0.48138 0.0
H214 H 0.59455 0.18366 0.4896 0.0
H215 H 0.66181 0.26007 0.4862 0.0
H216 H 0.79289 0.25426 0.51662 0.0
H217 H 0.83343 0.25936 0.49364 0.0
H218 H 0.77895 0.20761 0.50054 0.0
H219 H 0.75745 0.19222 0.45025 0.0
H220 H 0.81164 0.24386 0.4432 0.0
H221 H 0.75623 0.22818 0.432 0.0
H222 H 0.73858 0.33307 0.47821 0.0
H223 H 0.81743 0.39585 0.46424 0.0
H224 H 0.86124 0.32083 0.45964 0.0
C225 C 0.68272 0.17884 0.48324 0.0
C226 C 0.63659 0.16425 0.48615 0.0
C227 C 0.62956 0.19407 0.48758 0.0
C228 C 0.66763 0.2376 0.48575 0.0
C229 C 0.71255 0.25087 0.48233 0.0
C230 C 0.72024 0.22233 0.48105 0.0
C231 C 0.77104 0.2442 0.47472 0.0
C232 C 0.79552 0.24118 0.49776 0.0
C233 C 0.77425 0.22604 0.44849 0.0
C234 C 0.7905 0.28932 0.47208 0.0
C235 C 0.75643 0.29267 0.47695 0.0
C236 C 0.76565 0.33089 0.47461 0.0
C237 C 0.8106 0.36642 0.46667 0.0
C238 C 0.84565 0.36339 0.46086 0.0
C239 C 0.83542 0.32437 0.46406 0.0
H240 H 0.5596 0.75229 0.81441 0.0
H241 H 0.71241 0.84572 0.818 0.0
H242 H 0.70911 0.90244 0.81147 0.0
H243 H 0.54276 0.79972 0.76389 0.0
H244 H 0.49097 0.7878 0.77806 0.0
H245 H 0.50483 0.75425 0.78403 0.0
H246 H 0.50327 0.76544 0.83477 0.0
H247 H 0.48925 0.79895 0.82897 0.0
H248 H 0.5399 0.81857 0.84935 0.0
H249 H 0.69009 0.9489 0.80315 0.0
H250 H 0.65624 0.98259 0.79395 0.0
H251 H 0.51544 0.85998 0.79614 0.0
C252 C 0.59231 0.78474 0.81414 0.0
C253 C 0.63631 0.79445 0.8165 0.0
C254 C 0.67831 0.83733 0.81578 0.0
C255 C 0.67683 0.86987 0.81225 0.0
C256 C 0.63305 0.85921 0.8096 0.0
C257 C 0.5915 0.81778 0.81059 0.0
C258 C 0.54922 0.81512 0.80663 0.0
C259 C 0.52025 0.78759 0.78166 0.0
C260 C 0.51861 0.79854 0.83141 0.0
C261 C 0.57364 0.86145 0.80297 0.0
C262 C 0.62199 0.88626 0.80488 0.0
C263 C 0.65226 0.92987 0.80175 0.0
C264 C 0.63265 0.94871 0.7965 0.0
C265 C 0.58317 0.92404 0.79436 0.0
C266 C 0.55338 0.87979 0.79776 0.0
H267 H 0.74171 0.46432 0.20497 0.0
H268 H 0.69619 0.34792 0.16558 0.0
H269 H 0.61489 0.32165 0.16275 0.0
H270 H 0.62693 0.41492 0.24132 0.0
H271 H 0.63377 0.46154 0.23635 0.0
H272 H 0.68501 0.46626 0.24105 0.0
H273 H 0.71818 0.50507 0.19692 0.0
H274 H 0.66717 0.50014 0.1919 0.0
H275 H 0.68313 0.47961 0.16674 0.0
H276 H 0.54419 0.31557 0.15531 0.0
H277 H 0.49084 0.32976 0.14486 0.0
H278 H 0.58193 0.44864 0.19106 0.0
C279 C 0.71433 0.4324 0.19698 0.0
C280 C 0.72539 0.4082 0.18554 0.0
C281 C 0.68865 0.36721 0.17429 0.0
C282 C 0.64225 0.35184 0.17283 0.0
C283 C 0.63303 0.37749 0.18319 0.0
C284 C 0.66801 0.41663 0.19551 0.0
C285 C 0.65097 0.4407 0.20175 0.0
C286 C 0.64904 0.44616 0.23191 0.0
C287 C 0.68166 0.48387 0.18852 0.0
C288 C 0.60204 0.41037 0.18934 0.0
C289 C 0.59179 0.37362 0.17925 0.0
C290 C 0.55119 0.3436 0.16382 0.0
C291 C 0.52114 0.35197 0.15791 0.0
C292 C 0.53214 0.39021 0.16727 0.0
C293 C 0.57211 0.41878 0.18401 0.0
H294 H 0.35206 0.90637 0.44207 0.0
H295 H 0.43527 0.8776 0.47574 0.0
H296 H 0.36787 0.80118 0.46914 0.0
H297 H 0.24337 0.82244 0.47116 0.0
H298 H 0.20754 0.81163 0.44262 0.0
H299 H 0.26289 0.86417 0.44913 0.0
H300 H 0.2906 0.86295 0.40211 0.0
H301 H 0.23527 0.81041 0.39542 0.0
H302 H 0.28984 0.8203 0.39194 0.0
H303 H 0.29057 0.72762 0.45997 0.0
H304 H 0.20935 0.66252 0.44871 0.0
H305 H 0.1763 0.73897 0.42093 0.0
C306 C 0.3563 0.88407 0.44792 0.0
C307 C 0.39914 0.89818 0.45947 0.0
C308 C 0.40293 0.86776 0.46692 0.0
C309 C 0.3648 0.82419 0.46321 0.0
C310 C 0.32302 0.8114 0.45197 0.0
C311 C 0.31856 0.84042 0.44437 0.0
C312 C 0.26953 0.81831 0.43318 0.0
C313 C 0.24436 0.82982 0.45003 0.0
C314 C 0.27144 0.82861 0.40392 0.0
C315 C 0.24699 0.77231 0.43586 0.0
C316 C 0.2785 0.76903 0.44668 0.0
C317 C 0.26565 0.72981 0.4514 0.0
C318 C 0.21937 0.69298 0.44495 0.0
C319 C 0.18634 0.69551 0.43391 0.0
C320 C 0.20064 0.73586 0.42927 0.0
H321 H 0.56929 0.30834 0.85355 0.0
H322 H 0.42707 0.25477 0.83198 0.0
H323 H 0.41048 0.1901 0.81369 0.0
H324 H 0.58814 0.26961 0.79572 0.0
H325 H 0.62151 0.25859 0.81262 0.0
H326 H 0.62157 0.29971 0.82562 0.0
H327 H 0.59303 0.26364 0.8708 0.0
H328 H 0.59288 0.22236 0.85793 0.0
H329 H 0.54016 0.20888 0.87182 0.0
H330 H 0.40977 0.13265 0.79637 0.0
H331 H 0.42551 0.08633 0.77969 0.0
H332 H 0.56861 0.17646 0.81184 0.0
C333 C 0.5345 0.28271 0.8453 0.0
C334 C 0.49943 0.28657 0.84417 0.0
C335 C 0.45456 0.25265 0.83284 0.0
C336 C 0.44471 0.21569 0.82255 0.0
C337 C 0.4801 0.21303 0.82371 0.0
C338 C 0.52413 0.24557 0.83473 0.0
C339 C 0.55642 0.23519 0.8323 0.0
C340 C 0.59944 0.26771 0.81556 0.0
C341 C 0.5715 0.23235 0.85986 0.0
C342 C 0.52377 0.19198 0.81792 0.0
C343 C 0.47983 0.17977 0.8134 0.0
C344 C 0.44397 0.14174 0.7999 0.0
C345 C 0.45332 0.11563 0.79048 0.0
C346 C 0.49828 0.12761 0.79446 0.0
C347 C 0.53378 0.16619 0.80864 0.0
H348 H 0.61042 0.86098 0.53125 0.0
H349 H 0.47878 0.794 0.48673 0.0
H350 H 0.46154 0.72616 0.49301 0.0
H351 H 0.63968 0.79811 0.50584 0.0
H352 H 0.66438 0.79997 0.53711 0.0
H353 H 0.66613 0.84294 0.52884 0.0
H354 H 0.62351 0.83386 0.57238 0.0
H355 H 0.62172 0.79095 0.5808 0.0
H356 H 0.56798 0.78279 0.57915 0.0
H357 H 0.45924 0.66537 0.50432 0.0
H358 H 0.47065 0.617 0.52112 0.0
H359 H 0.60406 0.72489 0.55783 0.0
C360 C 0.57816 0.83213 0.52256 0.0
C361 C 0.54603 0.83284 0.5084 0.0
C362 C 0.50375 0.7942 0.49784 0.0
C363 C 0.49381 0.75556 0.50116 0.0
C364 C 0.52646 0.7561 0.51512 0.0
C365 C 0.5677 0.79343 0.52571 0.0
C366 C 0.59663 0.78556 0.54032 0.0
C367 C 0.64453 0.80797 0.52724 0.0
C368 C 0.60279 0.79908 0.56992 0.0
C369 C 0.56522 0.73791 0.5364 0.0
C370 C 0.52499 0.72141 0.52172 0.0
C371 C 0.49066 0.678 0.51581 0.0
C372 C 0.49748 0.65078 0.52539 0.0
C373 C 0.53823 0.6671 0.5408 0.0
C374 C 0.57252 0.71131 0.54611 0.0
H375 H 0.69071 0.51198 0.88034 0.0
H376 H 0.7659 0.63104 0.84102 0.0
H377 H 0.83907 0.6416 0.84407 0.0
H378 H 0.78386 0.54569 0.92606 0.0
H379 H 0.77162 0.4958 0.92423 0.0
H380 H 0.72485 0.49712 0.91858 0.0
H381 H 0.70585 0.45811 0.87281 0.0
H382 H 0.75249 0.45655 0.87832 0.0
H383 H 0.75189 0.47985 0.84897 0.0
H384 H 0.90526 0.64002 0.85219 0.0
H385 H 0.95802 0.6256 0.86382 0.0
H386 H 0.84013 0.50737 0.89759 0.0
C387 C 0.72247 0.54023 0.87226 0.0
C388 C 0.72217 0.57065 0.86038 0.0
C389 C 0.76481 0.60714 0.85014 0.0
C390 C 0.80674 0.61348 0.85182 0.0
C391 C 0.80583 0.58305 0.86373 0.0
C392 C 0.76473 0.54704 0.87369 0.0
C393 C 0.77332 0.51923 0.88556 0.0
C394 C 0.76279 0.51418 0.91538 0.0
C395 C 0.74416 0.47587 0.87051 0.0
C396 C 0.82571 0.54534 0.8809 0.0
C397 C 0.84379 0.58204 0.86827 0.0
C398 C 0.89136 0.6113 0.86202 0.0
C399 C 0.92117 0.60283 0.86875 0.0
C400 C 0.90356 0.56534 0.88165 0.0
C401 C 0.85499 0.53634 0.88774 0.0
H402 H 0.10355 0.63164 0.16432 0.0
H403 H 0.16699 0.60273 0.10642 0.0
H404 H 0.24111 0.67744 0.1103 0.0
H405 H 0.15765 0.73612 0.14331 0.0
H406 H 0.1652 0.75716 0.17668 0.0
H407 H 0.11727 0.70189 0.16863 0.0
H408 H 0.14556 0.68101 0.20603 0.0
H409 H 0.19348 0.73619 0.21425 0.0
H410 H 0.20535 0.70112 0.20631 0.0
H411 H 0.30894 0.75633 0.12119 0.0
H412 H 0.3645 0.83052 0.13919 0.0
H413 H 0.25527 0.80557 0.19014 0.0
C414 C 0.13282 0.64086 0.15227 0.0
C415 C 0.12928 0.61125 0.13494 0.0
C416 C 0.16878 0.62482 0.1198 0.0
C417 C 0.21099 0.66722 0.12185 0.0
C418 C 0.21313 0.69556 0.13916 0.0
C419 C 0.17503 0.68276 0.15416 0.0
C420 C 0.18637 0.71875 0.17186 0.0
C421 C 0.15475 0.72908 0.16468 0.0
C422 C 0.18247 0.70866 0.20135 0.0
C423 C 0.23694 0.75398 0.16458 0.0
C424 C 0.25184 0.74021 0.1456 0.0
C425 C 0.29755 0.76738 0.13603 0.0
C426 C 0.32884 0.80949 0.14634 0.0
C427 C 0.31432 0.82394 0.16609 0.0
C428 C 0.26759 0.79567 0.17507 0.0
H429 H 0.41009 0.19776 0.49691 0.0
H430 H 0.55838 0.26508 0.48449 0.0
H431 H 0.57711 0.33274 0.49763 0.0
H432 H 0.40828 0.27852 0.47309 0.0
H433 H 0.36789 0.26961 0.49785 0.0
H434 H 0.36603 0.22677 0.48646 0.0
H435 H 0.37678 0.21508 0.53496 0.0
H436 H 0.37873 0.25789 0.5465 0.0
H437 H 0.42647 0.25882 0.55473 0.0
H438 H 0.57969 0.39294 0.51235 0.0
H439 H 0.56648 0.44114 0.52936 0.0
H440 H 0.41662 0.33438 0.53335 0.0
C441 C 0.44641 0.22684 0.49667 0.0
C442 C 0.48281 0.22627 0.4896 0.0
C443 C 0.53002 0.26483 0.48999 0.0
C444 C 0.54095 0.3034 0.49729 0.0
C445 C 0.50429 0.30285 0.5043 0.0
C446 C 0.458 0.26557 0.50416 0.0
C447 C 0.42545 0.27354 0.5135 0.0
C448 C 0.38981 0.26139 0.4914 0.0
C449 C 0.40039 0.24994 0.53894 0.0
C450 C 0.46068 0.3211 0.51897 0.0
C451 C 0.50591 0.33742 0.51334 0.0
C452 C 0.54442 0.38053 0.51683 0.0
C453 C 0.53653 0.40766 0.52647 0.0
C454 C 0.49054 0.39158 0.53272 0.0
C455 C 0.45221 0.34768 0.5288 0.0
H456 H 0.47839 0.57523 0.83766 0.0
H457 H 0.46198 0.52111 0.91349 0.0
H458 H 0.39794 0.5222 0.92434 0.0
H459 H 0.45457 0.64348 0.85926 0.0
H460 H 0.4214 0.63393 0.82968 0.0
H461 H 0.46678 0.62994 0.82807 0.0
H462 H 0.40647 0.55341 0.80782 0.0
H463 H 0.3609 0.55717 0.80936 0.0
H464 H 0.35299 0.51461 0.82514 0.0
H465 H 0.33907 0.53378 0.92833 0.0
H466 H 0.28346 0.54699 0.92292 0.0
H467 H 0.33111 0.5862 0.84275 0.0
C468 C 0.46124 0.56358 0.85653 0.0
C469 C 0.47545 0.54822 0.87478 0.0
C470 C 0.45172 0.53285 0.89914 0.0
C471 C 0.41538 0.53353 0.90554 0.0
C472 C 0.40228 0.54891 0.88719 0.0
C473 C 0.42393 0.56301 0.86297 0.0
C474 C 0.40178 0.57642 0.84642 0.0
C475 C 0.43831 0.62375 0.84051 0.0
C476 C 0.37919 0.54875 0.82066 0.0
C477 C 0.36456 0.56795 0.86517 0.0
C478 C 0.36605 0.55277 0.88876 0.0
C479 C 0.3371 0.54499 0.90977 0.0
C480 C 0.30567 0.55264 0.90657 0.0
C481 C 0.30238 0.56689 0.88232 0.0
C482 C 0.33217 0.57444 0.86132 0.0
H483 H 0.82951 0.36398 0.14491 0.0
H484 H 0.90157 0.32653 0.10435 0.0
H485 H 0.82929 0.25152 0.10534 0.0
H486 H 0.76459 0.27949 0.1883 0.0
H487 H 0.71184 0.27296 0.1865 0.0
H488 H 0.7683 0.324 0.18132 0.0
H489 H 0.73928 0.32662 0.13555 0.0
H490 H 0.68243 0.27586 0.1408 0.0
H491 H 0.71454 0.28346 0.1114 0.0
H492 H 0.75144 0.1805 0.11361 0.0
H493 H 0.67179 0.11816 0.12678 0.0
H494 H 0.64895 0.20146 0.16048 0.0
C495 C 0.83001 0.34005 0.13604 0.0
C496 C 0.87129 0.35117 0.12457 0.0
C497 C 0.87038 0.31885 0.11315 0.0
C498 C 0.82949 0.27612 0.11364 0.0
C499 C 0.7896 0.26622 0.12533 0.0
C500 C 0.78932 0.29724 0.13609 0.0
C501 C 0.74194 0.27797 0.14783 0.0
C502 C 0.747 0.28927 0.17776 0.0
C503 C 0.71813 0.29179 0.133 0.0
C504 C 0.71601 0.23117 0.14257 0.0
C505 C 0.74416 0.22516 0.12952 0.0
C506 C 0.72885 0.18478 0.12354 0.0
C507 C 0.68359 0.14957 0.13117 0.0
C508 C 0.65403 0.15491 0.14448 0.0
C509 C 0.67047 0.19633 0.15001 0.0
H510 H 1.00857 0.55403 0.04888 0.0
H511 H 0.98317 0.43715 0.05934 0.0
H512 H 1.00111 0.43591 0.01245 0.0
H513 H 0.96017 0.52774 0.9797 0.0
H514 H 1.00437 0.58136 0.96948 0.0
H515 H 0.98542 0.57155 0.00341 0.0
H516 H 0.07181 0.61483 0.01996 0.0
H517 H 0.09099 0.625 0.98616 0.0
H518 H 0.10571 0.60073 0.00739 0.0
H519 H 0.02982 0.45073 0.96649 0.0
H520 H 0.06777 0.48116 0.92367 0.0
H521 H 0.07147 0.58663 0.94099 0.0
C522 C 1.00612 0.52792 0.04111 0.0
C523 C 0.99431 0.4956 0.05771 0.0
C524 C 0.99196 0.46216 0.04698 0.0
C525 C 1.00193 0.46107 0.02032 0.0
C526 C 0.01375 0.49342 0.00447 0.0
C527 C 0.01571 0.52617 0.01432 0.0
C528 C 0.03205 0.55817 0.99323 0.0
C529 C 0.99318 0.55978 0.98603 0.0
C530 C 0.07786 0.60228 0.00222 0.0
C531 C 0.04037 0.53892 0.97036 0.0
C532 C 0.02919 0.50138 0.9773 0.0
C533 C 0.03773 0.47957 0.96056 0.0
C534 C 0.05923 0.49701 0.9363 0.0
C535 C 0.07141 0.53558 0.92887 0.0
C536 C 0.06093 0.55631 0.94586 0.0
H537 H 0.47487 0.99565 0.39559 0.0
H538 H 0.62014 0.11196 0.40382 0.0
H539 H 0.62121 0.12268 0.35577 0.0
H540 H 0.48947 0.96013 0.33578 0.0
H541 H 0.4325 0.93651 0.32158 0.0
H542 H 0.44073 0.94095 0.35708 0.0
H543 H 0.41008 0.98198 0.36135 0.0
H544 H 0.40147 0.97749 0.32582 0.0
H545 H 0.43742 0.02892 0.34277 0.0
H546 H 0.6083 0.1184 0.30673 0.0
H547 H 0.58379 0.09799 0.25956 0.0
H548 H 0.44807 0.98222 0.28268 0.0
C549 C 0.50645 0.02384 0.3873 0.0
C550 C 0.54731 0.0533 0.40326 0.0
C551 C 0.58848 0.08923 0.39179 0.0
C552 C 0.58934 0.09562 0.36459 0.0
C553 C 0.54883 0.06554 0.34919 0.0
C554 C 0.50817 0.03028 0.36007 0.0
C555 C 0.47099 1.00085 0.33873 0.0
C556 C 0.45767 0.95703 0.33827 0.0
C557 C 0.42741 0.99711 0.34239 0.0
C558 C 0.49745 0.02467 0.31414 0.0
C559 C 0.54197 0.06224 0.32068 0.0
C560 C 0.57341 0.0892 0.30135 0.0
C561 C 0.55914 0.07729 0.27459 0.0
C562 C 0.51403 0.03846 0.26736 0.0
C563 C 0.48277 0.01209 0.28752 0.0
H564 H 0.49915 0.47269 0.77652 0.0
H565 H 0.64487 0.58689 0.78897 0.0
H566 H 0.65097 0.59979 0.74102 0.0
H567 H 0.51677 0.43984 0.71364 0.0
H568 H 0.46074 0.41925 0.69961 0.0
H569 H 0.46769 0.4193 0.73497 0.0
H570 H 0.43902 0.46158 0.74274 0.0
H571 H 0.43192 0.46162 0.70743 0.0
H572 H 0.46848 0.51103 0.72671 0.0
H573 H 0.64019 0.60168 0.69219 0.0
H574 H 0.61453 0.59092 0.64529 0.0
H575 H 0.47713 0.47316 0.66405 0.0
C576 C 0.53232 0.50038 0.76911 0.0
C577 C 0.57138 0.52918 0.78642 0.0
C578 C 0.61434 0.56484 0.77605 0.0
C579 C 0.61819 0.5723 0.74886 0.0
C580 C 0.57894 0.54343 0.7323 0.0
C581 C 0.53694 0.50799 0.74196 0.0
C582 C 0.50026 0.4817 0.71986 0.0
C583 C 0.48552 0.4374 0.71685 0.0
C584 C 0.4574 0.47884 0.72447 0.0
C585 C 0.52806 0.50813 0.69629 0.0
C586 C 0.57329 0.54369 0.70394 0.0
C587 C 0.60502 0.57376 0.6859 0.0
C588 C 0.59008 0.56741 0.65933 0.0
C589 C 0.54398 0.53106 0.651 0.0
C590 C 0.5128 0.50094 0.66976 0.0
H591 H 0.55566 0.06794 0.55953 0.0
H592 H 0.42234 0.9414 0.54447 0.0
H593 H 0.4238 0.92342 0.59058 0.0
H594 H 0.60801 0.0413 0.60657 0.0
H595 H 0.63352 0.08805 0.62753 0.0
H596 H 0.62556 0.08889 0.59239 0.0
H597 H 0.57734 0.11292 0.60213 0.0
H598 H 0.58512 0.11215 0.63724 0.0
H599 H 0.52664 0.0816 0.62291 0.0
H600 H 0.43816 0.92033 0.63869 0.0
H601 H 0.45934 0.9344 0.68655 0.0
H602 H 0.57957 0.06512 0.67136 0.0
C603 C 0.52739 0.03622 0.56589 0.0
C604 C 0.48918 0.00574 0.54858 0.0
C605 C 0.45197 0.96496 0.55758 0.0
C606 C 0.45267 0.95446 0.58361 0.0
C607 C 0.49049 0.9854 0.60044 0.0
C608 C 0.52691 0.02563 0.59205 0.0
C609 C 0.56053 0.05443 0.61486 0.0
C610 C 0.60983 0.06902 0.61004 0.0
C611 C 0.56249 0.09251 0.61956 0.0
C612 C 0.5369 0.02437 0.63747 0.0
C613 C 0.49722 0.98443 0.6286 0.0
C614 C 0.46923 0.95144 0.64586 0.0
C615 C 0.4816 0.9597 0.673 0.0
C616 C 0.52099 1.00085 0.68267 0.0
C617 C 0.54921 0.03337 0.66454 0.0
H618 H 0.55272 0.52401 0.93335 0.0
H619 H 0.70253 0.63151 0.93947 0.0
H620 H 0.70318 0.61718 0.98663 0.0
H621 H 0.52389 0.54074 0.99585 0.0
H622 H 0.47987 0.4853 0.00251 0.0
H623 H 0.49232 0.50178 0.96877 0.0
H624 H 0.50974 0.45138 0.9581 0.0
H625 H 0.49735 0.43476 0.99188 0.0
H626 H 0.55307 0.45581 0.97787 0.0
H627 H 0.68629 0.59424 0.03366 0.0
H628 H 0.65301 0.5655 0.07752 0.0
H629 H 0.51403 0.47286 0.04055 0.0
C630 C 0.58573 0.54423 0.94457 0.0
C631 C 0.62761 0.57887 0.93293 0.0
C632 C 0.67009 0.60483 0.94816 0.0
C633 C 0.67082 0.59683 0.97487 0.0
C634 C 0.62879 0.56265 0.9859 0.0
C635 C 0.58704 0.53673 0.97122 0.0
C636 C 0.54628 0.5036 0.98816 0.0
C637 C 0.50838 0.50815 0.98886 0.0
C638 C 0.52539 0.45873 0.97842 0.0
C639 C 0.5714 0.51563 0.01483 0.0
C640 C 0.61905 0.54945 0.01304 0.0
C641 C 0.64912 0.56748 0.03529 0.0
C642 C 0.62985 0.55096 0.06012 0.0
C643 C 0.58092 0.51685 0.0625 0.0
C644 C 0.55163 0.49864 0.03941 0.0
H645 H 0.03534 0.52825 0.20639 0.0
H646 H 0.98933 0.40142 0.20474 0.0
H647 H 0.98398 0.40074 0.25352 0.0
H648 H 0.10739 0.5664 0.26613 0.0
H649 H 0.09202 0.59743 0.27843 0.0
H650 H 0.09156 0.58805 0.2432 0.0
H651 H 1.00475 0.55639 0.23939 0.0
H652 H 1.00495 0.56585 0.27459 0.0
H653 H 0.96121 0.51329 0.25987 0.0
H654 H 0.98231 0.41272 0.30178 0.0
H655 H 0.9852 0.437 0.34763 0.0
H656 H 0.03489 0.55741 0.31923 0.0
C657 C 0.02402 0.50037 0.21637 0.0
C658 C 0.01269 0.46482 0.2019 0.0
C659 C 0.99824 0.42896 0.21553 0.0
C660 C 0.99507 0.42827 0.2432 0.0
C661 C 1.00675 0.46381 0.25697 0.0
C662 C 0.02101 0.49926 0.24414 0.0
C663 C 0.0318 0.53324 0.26391 0.0
C664 C 0.08379 0.57367 0.26285 0.0
C665 C 0.9987 0.54274 0.25916 0.0
C666 C 0.02136 0.51124 0.28981 0.0
C667 C 1.00676 0.47115 0.2852 0.0
C668 C 0.99387 0.4441 0.30571 0.0
C669 C 0.99559 0.4582 0.33169 0.0
C670 C 1.01047 0.49916 0.33705 0.0
C671 C 0.02392 0.52614 0.31578 0.0
loop_
_geom_bond_atom_site_label_1
_geom_bond_atom_site_label_2
_geom_bond_distance
_geom_bond_site_symmetry_2
_ccdc_geom_bond_type
Ho0 C3 2.811 . S
Ho0 O20 2.322 . S
Ho0 O22 2.378 . S
Ho0 O23 2.524 . S
Ho0 O24 2.381 . S
Ho0 O25 2.669 . S
Ho0 O27 2.346 1_455 S
Ho0 O31 2.305 . S
Ho1 C12 2.811 . S
Ho1 O21 2.346 1_655 S
Ho1 O25 2.305 1_655 S
Ho1 O26 2.322 . S
Ho1 O28 2.378 . S
Ho1 O29 2.524 . S
Ho1 O30 2.381 1_655 S
Ho1 O31 2.669 1_655 S
C2 O20 1.259 . S
C2 O21 1.268 . S
C3 Ho0 2.811 . S
C3 C4 1.488 . S
C3 O22 1.215 . S
C3 O23 1.289 . S
C4 C3 1.488 . S
C4 C5 1.348 . S
C4 C9 1.413 . S
C5 C4 1.348 . S
C5 C6 1.442 . S
C5 H32 0.930 . S
C6 C5 1.442 . S
C6 C7 1.381 . S
C6 H33 0.931 . S
C7 C6 1.381 . S
C7 C8 1.321 . S
C8 C7 1.321 . S
C8 C9 1.403 . S
C8 H34 0.934 . S
C9 C4 1.413 . S
C9 C8 1.403 . S
C9 H35 0.930 . S
C10 O24 1.275 . S
C10 O25 1.256 . S
C11 O26 1.259 . S
C11 O27 1.268 . S
C12 Ho1 2.811 . S
C12 C13 1.488 . S
C12 O28 1.215 . S
C12 O29 1.289 . S
C13 C12 1.488 . S
C13 C14 1.348 . S
C13 C18 1.413 . S
C14 C13 1.348 . S
C14 C15 1.442 . S
C14 H36 0.930 . S
C15 C14 1.442 . S
C15 C16 1.381 . S
C15 H37 0.931 . S
C16 C15 1.381 . S
C16 C17 1.321 . S
C17 C16 1.321 . S
C17 C18 1.403 . S
C17 H38 0.934 . S
C18 C13 1.413 . S
C18 C17 1.403 . S
C18 H39 0.930 . S
C19 O30 1.275 . S
C19 O31 1.256 . S
O20 Ho0 2.322 . S
O20 C2 1.259 . S
O21 Ho1 2.346 1_455 S
O21 C2 1.268 . S
O22 Ho0 2.378 . S
O22 C3 1.215 . S
O23 Ho0 2.524 . S
O23 C3 1.289 . S
O24 Ho0 2.381 . S
O24 C10 1.275 . S
O25 Ho0 2.669 . S
O25 Ho1 2.305 1_455 S
O25 C10 1.256 . S
O26 Ho1 2.322 . S
O26 C11 1.259 . S
O27 Ho0 2.346 1_655 S
O27 C11 1.268 . S
O28 Ho1 2.378 . S
O28 C12 1.215 . S
O29 Ho1 2.524 . S
O29 C12 1.289 . S
O30 Ho1 2.381 1_455 S
O30 C19 1.275 . S
O31 Ho0 2.305 . S
O31 Ho1 2.669 1_455 S
O31 C19 1.256 . S
H32 C5 0.930 . S
H33 C6 0.931 . S
H34 C8 0.934 . S
H35 C9 0.930 . S
H36 C14 0.930 . S
H37 C15 0.931 . S
H38 C17 0.934 . S
H39 C18 0.930 . S
Ho40 C43 2.811 . S
Ho40 O60 2.322 . S
Ho40 O62 2.378 . S
Ho40 O63 2.524 . S
Ho40 O64 2.381 . S
Ho40 O65 2.669 1_565 S
Ho40 O67 2.346 1_565 S
Ho40 O71 2.305 1_565 S
Ho41 C52 2.811 . S
Ho41 O61 2.346 1_545 S
Ho41 O65 2.305 . S
Ho41 O66 2.322 . S
Ho41 O68 2.378 . S
Ho41 O69 2.524 . S
Ho41 O70 2.381 . S
Ho41 O71 2.669 . S
C42 O60 1.259 . S
C42 O61 1.268 . S
C43 Ho40 2.811 . S
C43 C44 1.488 . S
C43 O62 1.215 . S
C43 O63 1.289 . S
C44 C43 1.488 . S
C44 C45 1.348 . S
C44 C49 1.413 . S
C45 C44 1.348 . S
C45 C46 1.442 . S
C45 H72 0.930 . S
C46 C45 1.442 . S
C46 C47 1.381 . S
C46 H73 0.931 . S
C47 C46 1.381 . S
C47 C48 1.321 . S
C48 C47 1.321 . S
C48 C49 1.403 . S
C48 H74 0.934 . S
C49 C44 1.413 . S
C49 C48 1.403 . S
C49 H75 0.930 . S
C50 O64 1.275 1_545 S
C50 O65 1.256 . S
C51 O66 1.259 . S
C51 O67 1.268 . S
C52 Ho41 2.811 . S
C52 C53 1.488 . S
C52 O68 1.215 . S
C52 O69 1.289 . S
C53 C52 1.488 . S
C53 C54 1.348 . S
C53 C58 1.413 . S
C54 C53 1.348 . S
C54 C55 1.442 . S
C54 H76 0.930 . S
C55 C54 1.442 . S
C55 C56 1.381 . S
C55 H77 0.931 . S
C56 C55 1.381 . S
C56 C57 1.321 . S
C57 C56 1.321 . S
C57 C58 1.403 . S
C57 H78 0.934 . S
C58 C53 1.413 . S
C58 C57 1.403 . S
C58 H79 0.930 . S
C59 O70 1.275 . S
C59 O71 1.256 . S
O60 Ho40 2.322 . S
O60 C42 1.259 . S
O61 Ho41 2.346 1_565 S
O61 C42 1.268 . S
O62 Ho40 2.378 . S
O62 C43 1.215 . S
O63 Ho40 2.524 . S
O63 C43 1.289 . S
O64 Ho40 2.381 . S
O64 C50 1.275 1_565 S
O65 Ho40 2.669 1_545 S
O65 Ho41 2.305 . S
O65 C50 1.256 . S
O66 Ho41 2.322 . S
O66 C51 1.259 . S
O67 Ho40 2.346 1_545 S
O67 C51 1.268 . S
O68 Ho41 2.378 . S
O68 C52 1.215 . S
O69 Ho41 2.524 . S
O69 C52 1.289 . S
O70 Ho41 2.381 . S
O70 C59 1.275 . S
O71 Ho40 2.305 1_545 S
O71 Ho41 2.669 . S
O71 C59 1.256 . S
H72 C45 0.930 . S
H73 C46 0.931 . S
H74 C48 0.934 . S
H75 C49 0.930 . S
H76 C54 0.930 . S
H77 C55 0.931 . S
H78 C57 0.934 . S
H79 C58 0.930 . S
Ho80 C83 2.811 . S
Ho80 O100 2.322 . S
Ho80 O102 2.378 . S
Ho80 O103 2.524 . S
Ho80 O104 2.381 . S
Ho80 O105 2.669 . S
Ho80 O107 2.346 . S
Ho80 O111 2.305 . S
Ho81 C92 2.811 . S
Ho81 O101 2.346 . S
Ho81 O105 2.305 . S
Ho81 O106 2.322 . S
Ho81 O108 2.378 . S
Ho81 O109 2.524 . S
Ho81 O110 2.381 . S
Ho81 O111 2.669 . S
C82 O100 1.259 . S
C82 O101 1.268 . S
C83 Ho80 2.811 . S
C83 C84 1.488 . S
C83 O102 1.215 . S
C83 O103 1.289 . S
C84 C83 1.488 . S
C84 C85 1.348 . S
C84 C89 1.413 . S
C85 C84 1.348 . S
C85 C86 1.442 . S
C85 H112 0.930 . S
C86 C85 1.442 . S
C86 C87 1.381 . S
C86 H113 0.931 . S
C87 C86 1.381 . S
C87 C88 1.321 . S
C88 C87 1.321 . S
C88 C89 1.403 . S
C88 H114 0.934 . S
C89 C84 1.413 . S
C89 C88 1.403 . S
C89 H115 0.930 . S
C90 O104 1.275 . S
C90 O105 1.256 . S
C91 O106 1.259 . S
C91 O107 1.268 . S
C92 Ho81 2.811 . S
C92 C93 1.488 . S
C92 O108 1.215 . S
C92 O109 1.289 . S
C93 C92 1.488 . S
C93 C94 1.348 . S
C93 C98 1.413 . S
C94 C93 1.348 . S
C94 C95 1.442 . S
C94 H116 0.930 . S
C95 C94 1.442 . S
C95 C96 1.381 . S
C95 H117 0.931 . S
C96 C95 1.381 . S
C96 C97 1.321 . S
C97 C96 1.321 . S
C97 C98 1.403 . S
C97 H118 0.934 . S
C98 C93 1.413 . S
C98 C97 1.403 . S
C98 H119 0.930 . S
C99 O110 1.275 . S
C99 O111 1.256 . S
O100 Ho80 2.322 . S
O100 C82 1.259 . S
O101 Ho81 2.346 . S
O101 C82 1.268 . S
O102 Ho80 2.378 . S
O102 C83 1.215 . S
O103 Ho80 2.524 . S
O103 C83 1.289 . S
O104 Ho80 2.381 . S
O104 C90 1.275 . S
O105 Ho80 2.669 . S
O105 Ho81 2.305 . S
O105 C90 1.256 . S
O106 Ho81 2.322 . S
O106 C91 1.259 . S
O107 Ho80 2.346 . S
O107 C91 1.268 . S
O108 Ho81 2.378 . S
O108 C92 1.215 . S
O109 Ho81 2.524 . S
O109 C92 1.289 . S
O110 Ho81 2.381 . S
O110 C99 1.275 . S
O111 Ho80 2.305 . S
O111 Ho81 2.669 . S
O111 C99 1.256 . S
H112 C85 0.930 . S
H113 C86 0.931 . S
H114 C88 0.934 . S
H115 C89 0.930 . S
H116 C94 0.930 . S
H117 C95 0.931 . S
H118 C97 0.934 . S
H119 C98 0.930 . S
O120 Cd121 2.300 . S
O120 C127 1.275 . S
Cd121 O120 2.300 . S
Cd121 O129 2.381 . S
Cd121 O130 2.378 . S
O122 Cd123 2.385 . S
O122 C127 1.255 1_565 S
Cd123 O122 2.385 . S
Cd123 O124 2.317 . S
O124 Cd123 2.317 . S
O124 C125 1.232 . S
C125 O124 1.232 . S
C125 O126 1.218 . S
O126 C125 1.218 . S
C127 O120 1.275 . S
C127 O122 1.255 1_545 S
C128 O129 1.258 . S
C128 O130 1.256 . S
O129 Cd121 2.381 . S
O129 C128 1.258 . S
O130 Cd121 2.378 . S
O130 C128 1.256 . S
O131 Cd132 2.300 . S
O131 C138 1.275 . S
Cd132 O131 2.300 . S
Cd132 O140 2.381 . S
Cd132 O141 2.378 . S
O133 Cd134 2.385 . S
O133 C138 1.255 . S
Cd134 O133 2.385 . S
Cd134 O135 2.317 . S
O135 Cd134 2.317 . S
O135 C136 1.232 . S
C136 O135 1.232 . S
C136 O137 1.218 . S
O137 C136 1.218 . S
C138 O131 1.275 . S
C138 O133 1.255 . S
C139 O140 1.258 . S
C139 O141 1.256 . S
O140 Cd132 2.381 . S
O140 C139 1.258 . S
O141 Cd132 2.378 . S
O141 C139 1.256 . S
O142 Cd143 2.300 . S
O142 C149 1.275 . S
Cd143 O142 2.300 . S
Cd143 O151 2.381 . S
Cd143 O152 2.378 . S
O144 Cd145 2.376 1_455 S
O144 C149 1.262 . S
Cd145 O144 2.376 1_655 S
Cd145 O146 2.317 . S
O146 Cd145 2.317 . S
O146 C147 1.232 . S
C147 O146 1.232 . S
C147 O148 1.218 . S
O148 C147 1.218 . S
C149 O142 1.275 . S
C149 O144 1.262 . S
C150 O151 1.258 . S
C150 O152 1.256 . S
O151 Cd143 2.381 . S
O151 C150 1.258 . S
O152 Cd143 2.378 . S
O152 C150 1.256 . S
O153 Cd154 2.300 . S
O153 C160 1.275 1_455 S
Cd154 O153 2.300 . S
Cd154 O162 2.381 . S
Cd154 O163 2.378 . S
O155 Cd156 2.385 . S
O155 C160 1.255 . S
Cd156 O155 2.385 . S
Cd156 O157 2.317 . S
O157 Cd156 2.317 . S
O157 C158 1.232 . S
C158 O157 1.232 . S
C158 O159 1.218 . S
O159 C158 1.218 . S
C160 O153 1.275 1_655 S
C160 O155 1.255 . S
C161 O162 1.258 . S
C161 O163 1.256 . S
O162 Cd154 2.381 . S
O162 C161 1.258 . S
O163 Cd154 2.378 . S
O163 C161 1.256 . S
O164 Cd165 2.300 . S
O164 C171 1.275 1_565 S
Cd165 O164 2.300 . S
Cd165 O173 2.381 . S
Cd165 O174 2.378 . S
O166 Cd167 2.385 . S
O166 C171 1.255 . S
Cd167 O166 2.385 . S
Cd167 O168 2.317 . S
O168 Cd167 2.317 . S
O168 C169 1.232 . S
C169 O168 1.232 . S
C169 O170 1.218 . S
O170 C169 1.218 . S
C171 O164 1.275 1_545 S
C171 O166 1.255 . S
C172 O173 1.258 . S
C172 O174 1.256 . S
O173 Cd165 2.381 . S
O173 C172 1.258 . S
O174 Cd165 2.378 . S
O174 C172 1.256 . S
O175 Cd176 2.300 . S
O175 C182 1.275 . S
Cd176 O175 2.300 . S
Cd176 O184 2.381 . S
Cd176 O185 2.378 . S
O177 Cd178 2.385 . S
O177 C182 1.255 . S
Cd178 O177 2.385 . S
Cd178 O179 2.317 . S
O179 Cd178 2.317 . S
O179 C180 1.232 . S
C180 O179 1.232 . S
C180 O181 1.218 . S
O181 C180 1.218 . S
C182 O175 1.275 . S
C182 O177 1.255 . S
C183 O184 1.258 . S
C183 O185 1.256 . S
O184 Cd176 2.381 . S
O184 C183 1.258 . S
O185 Cd176 2.378 . S
O185 C183 1.256 . S
H186 C198 0.930 . S
H187 C200 0.930 . S
H188 C201 0.930 . S
H189 C205 0.959 . S
H190 C205 0.959 . S
H191 C205 0.961 . S
H192 C206 0.960 . S
H193 C206 0.961 . S
H194 C206 0.959 . S
H195 C209 0.929 . S
H196 C210 0.931 . S
H197 C212 0.930 . S
C198 H186 0.930 . S
C198 C199 1.399 . S
C198 C203 1.399 . S
C199 C198 1.399 . S
C199 C200 1.376 . S
C200 H187 0.930 . S
C200 C199 1.376 . S
C200 C201 1.388 . S
C201 H188 0.930 . S
C201 C200 1.388 . S
C201 C202 1.390 . S
C202 C201 1.390 . S
C202 C203 1.394 . S
C202 C208 1.465 . S
C203 C198 1.399 . S
C203 C202 1.394 . S
C203 C204 1.516 . S
C204 C203 1.516 . S
C204 C205 1.502 . S
C204 C206 1.561 . S
C204 C207 1.526 . S
C205 H189 0.959 . S
C205 H190 0.959 . S
C205 H191 0.961 . S
C205 C204 1.502 . S
C206 H192 0.960 . S
C206 H193 0.961 . S
C206 H194 0.959 . S
C206 C204 1.561 . S
C207 C204 1.526 . S
C207 C208 1.396 . S
C207 C212 1.390 . S
C208 C202 1.465 . S
C208 C207 1.396 . S
C208 C209 1.399 . S
C209 H195 0.929 . S
C209 C208 1.399 . S
C209 C210 1.385 . S
C210 H196 0.931 . S
C210 C209 1.385 . S
C210 C211 1.389 . S
C211 C210 1.389 . S
C211 C212 1.387 . S
C212 H197 0.930 . S
C212 C207 1.390 . S
C212 C211 1.387 . S
H213 C225 0.930 . S
H214 C227 0.930 . S
H215 C228 0.930 . S
H216 C232 0.959 . S
H217 C232 0.959 . S
H218 C232 0.961 . S
H219 C233 0.960 . S
H220 C233 0.961 . S
H221 C233 0.959 . S
H222 C236 0.929 . S
H223 C237 0.931 . S
H224 C239 0.930 . S
C225 H213 0.930 . S
C225 C226 1.399 . S
C225 C230 1.399 . S
C226 C225 1.399 . S
C226 C227 1.376 . S
C227 H214 0.930 . S
C227 C226 1.376 . S
C227 C228 1.388 . S
C228 H215 0.930 . S
C228 C227 1.388 . S
C228 C229 1.390 . S
C229 C228 1.390 . S
C229 C230 1.394 . S
C229 C235 1.465 . S
C230 C225 1.399 . S
C230 C229 1.394 . S
C230 C231 1.516 . S
C231 C230 1.516 . S
C231 C232 1.502 . S
C231 C233 1.561 . S
C231 C234 1.526 . S
C232 H216 0.959 . S
C232 H217 0.959 . S
C232 H218 0.961 . S
C232 C231 1.502 . S
C233 H219 0.960 . S
C233 H220 0.961 . S
C233 H221 0.959 . S
C233 C231 1.561 . S
C234 C231 1.526 . S
C234 C235 1.396 . S
C234 C239 1.390 . S
C235 C229 1.465 . S
C235 C234 1.396 . S
C235 C236 1.399 . S
C236 H222 0.929 . S
C236 C235 1.399 . S
C236 C237 1.385 . S
C237 H223 0.931 . S
C237 C236 1.385 . S
C237 C238 1.389 . S
C238 C237 1.389 . S
C238 C239 1.387 . S
C239 H224 0.930 . S
C239 C234 1.390 . S
C239 C238 1.387 . S
H240 C252 0.930 . S
H241 C254 0.930 . S
H242 C255 0.930 . S
H243 C259 0.959 . S
H244 C259 0.959 . S
H245 C259 0.961 . S
H246 C260 0.960 . S
H247 C260 0.961 . S
H248 C260 0.959 . S
H249 C263 0.929 . S
H250 C264 0.931 . S
H251 C266 0.930 . S
C252 H240 0.930 . S
C252 C253 1.399 . S
C252 C257 1.399 . S
C253 C252 1.399 . S
C253 C254 1.376 . S
C254 H241 0.930 . S
C254 C253 1.376 . S
C254 C255 1.388 . S
C255 H242 0.930 . S
C255 C254 1.388 . S
C255 C256 1.390 . S
C256 C255 1.390 . S
C256 C257 1.394 . S
C256 C262 1.465 . S
C257 C252 1.399 . S
C257 C256 1.394 . S
C257 C258 1.516 . S
C258 C257 1.516 . S
C258 C259 1.502 . S
C258 C260 1.561 . S
C258 C261 1.526 . S
C259 H243 0.959 . S
C259 H244 0.959 . S
C259 H245 0.961 . S
C259 C258 1.502 . S
C260 H246 0.960 . S
C260 H247 0.961 . S
C260 H248 0.959 . S
C260 C258 1.561 . S
C261 C258 1.526 . S
C261 C262 1.396 . S
C261 C266 1.390 . S
C262 C256 1.465 . S
C262 C261 1.396 . S
C262 C263 1.399 . S
C263 H249 0.929 . S
C263 C262 1.399 . S
C263 C264 1.385 . S
C264 H250 0.931 . S
C264 C263 1.385 . S
C264 C265 1.389 . S
C265 C264 1.389 . S
C265 C266 1.387 . S
C266 H251 0.930 . S
C266 C261 1.390 . S
C266 C265 1.387 . S
H267 C279 0.930 . S
H268 C281 0.930 . S
H269 C282 0.930 . S
H270 C286 0.959 . S
H271 C286 0.959 . S
H272 C286 0.961 . S
H273 C287 0.960 . S
H274 C287 0.961 . S
H275 C287 0.959 . S
H276 C290 0.929 . S
H277 C291 0.931 . S
H278 C293 0.930 . S
C279 H267 0.930 . S
C279 C280 1.399 . S
C279 C284 1.399 . S
C280 C279 1.399 . S
C280 C281 1.376 . S
C281 H268 0.930 . S
C281 C280 1.376 . S
C281 C282 1.388 . S
C282 H269 0.930 . S
C282 C281 1.388 . S
C282 C283 1.390 . S
C283 C282 1.390 . S
C283 C284 1.394 . S
C283 C289 1.465 . S
C284 C279 1.399 . S
C284 C283 1.394 . S
C284 C285 1.516 . S
C285 C284 1.516 . S
C285 C286 1.502 . S
C285 C287 1.561 . S
C285 C288 1.526 . S
C286 H270 0.959 . S
C286 H271 0.959 . S
C286 H272 0.961 . S
C286 C285 1.502 . S
C287 H273 0.960 . S
C287 H274 0.961 . S
C287 H275 0.959 . S
C287 C285 1.561 . S
C288 C285 1.526 . S
C288 C289 1.396 . S
C288 C293 1.390 . S
C289 C283 1.465 . S
C289 C288 1.396 . S
C289 C290 1.399 . S
C290 H276 0.929 . S
C290 C289 1.399 . S
C290 C291 1.385 . S
C291 H277 0.931 . S
C291 C290 1.385 . S
C291 C292 1.389 . S
C292 C291 1.389 . S
C292 C293 1.387 . S
C293 H278 0.930 . S
C293 C288 1.390 . S
C293 C292 1.387 . S
H294 C306 0.930 . S
H295 C308 0.930 . S
H296 C309 0.930 . S
H297 C313 0.959 . S
H298 C313 0.959 . S
H299 C313 0.961 . S
H300 C314 0.960 . S
H301 C314 0.961 . S
H302 C314 0.959 . S
H303 C317 0.929 . S
H304 C318 0.931 . S
H305 C320 0.930 . S
C306 H294 0.930 . S
C306 C307 1.399 . S
C306 C311 1.399 . S
C307 C306 1.399 . S
C307 C308 1.376 . S
C308 H295 0.930 . S
C308 C307 1.376 . S
C308 C309 1.388 . S
C309 H296 0.930 . S
C309 C308 1.388 . S
C309 C310 1.390 . S
C310 C309 1.390 . S
C310 C311 1.394 . S
C310 C316 1.465 . S
C311 C306 1.399 . S
C311 C310 1.394 . S
C311 C312 1.516 . S
C312 C311 1.516 . S
C312 C313 1.502 . S
C312 C314 1.561 . S
C312 C315 1.526 . S
C313 H297 0.959 . S
C313 H298 0.959 . S
C313 H299 0.961 . S
C313 C312 1.502 . S
C314 H300 0.960 . S
C314 H301 0.961 . S
C314 H302 0.959 . S
C314 C312 1.561 . S
C315 C312 1.526 . S
C315 C316 1.396 . S
C315 C320 1.390 . S
C316 C310 1.465 . S
C316 C315 1.396 . S
C316 C317 1.399 . S
C317 H303 0.929 . S
C317 C316 1.399 . S
C317 C318 1.385 . S
C318 H304 0.931 . S
C318 C317 1.385 . S
C318 C319 1.389 . S
C319 C318 1.389 . S
C319 C320 1.387 . S
C320 H305 0.930 . S
C320 C315 1.390 . S
C320 C319 1.387 . S
H321 C333 0.930 . S
H322 C335 0.930 . S
H323 C336 0.930 . S
H324 C340 0.959 . S
H325 C340 0.959 . S
H326 C340 0.961 . S
H327 C341 0.960 . S
H328 C341 0.961 . S
H329 C341 0.959 . S
H330 C344 0.929 . S
H331 C345 0.931 . S
H332 C347 0.930 . S
C333 H321 0.930 . S
C333 C334 1.399 . S
C333 C338 1.399 . S
C334 C333 1.399 . S
C334 C335 1.376 . S
C335 H322 0.930 . S
C335 C334 1.376 . S
C335 C336 1.388 . S
C336 H323 0.930 . S
C336 C335 1.388 . S
C336 C337 1.390 . S
C337 C336 1.390 . S
C337 C338 1.394 . S
C337 C343 1.465 . S
C338 C333 1.399 . S
C338 C337 1.394 . S
C338 C339 1.516 . S
C339 C338 1.516 . S
C339 C340 1.502 . S
C339 C341 1.561 . S
C339 C342 1.526 . S
C340 H324 0.959 . S
C340 H325 0.959 . S
C340 H326 0.961 . S
C340 C339 1.502 . S
C341 H327 0.960 . S
C341 H328 0.961 . S
C341 H329 0.959 . S
C341 C339 1.561 . S
C342 C339 1.526 . S
C342 C343 1.396 . S
C342 C347 1.390 . S
C343 C337 1.465 . S
C343 C342 1.396 . S
C343 C344 1.399 . S
C344 H330 0.929 . S
C344 C343 1.399 . S
C344 C345 1.385 . S
C345 H331 0.931 . S
C345 C344 1.385 . S
C345 C346 1.389 . S
C346 C345 1.389 . S
C346 C347 1.387 . S
C347 H332 0.930 . S
C347 C342 1.390 . S
C347 C346 1.387 . S
H348 C360 0.930 . S
H349 C362 0.930 . S
H350 C363 0.930 . S
H351 C367 0.959 . S
H352 C367 0.959 . S
H353 C367 0.961 . S
H354 C368 0.960 . S
H355 C368 0.961 . S
H356 C368 0.959 . S
H357 C371 0.929 . S
H358 C372 0.931 . S
H359 C374 0.930 . S
C360 H348 0.930 . S
C360 C361 1.399 . S
C360 C365 1.399 . S
C361 C360 1.399 . S
C361 C362 1.376 . S
C362 H349 0.930 . S
C362 C361 1.376 . S
C362 C363 1.388 . S
C363 H350 0.930 . S
C363 C362 1.388 . S
C363 C364 1.390 . S
C364 C363 1.390 . S
C364 C365 1.394 . S
C364 C370 1.465 . S
C365 C360 1.399 . S
C365 C364 1.394 . S
C365 C366 1.516 . S
C366 C365 1.516 . S
C366 C367 1.502 . S
C366 C368 1.561 . S
C366 C369 1.526 . S
C367 H351 0.959 . S
C367 H352 0.959 . S
C367 H353 0.961 . S
C367 C366 1.502 . S
C368 H354 0.960 . S
C368 H355 0.961 . S
C368 H356 0.959 . S
C368 C366 1.561 . S
C369 C366 1.526 . S
C369 C370 1.396 . S
C369 C374 1.390 . S
C370 C364 1.465 . S
C370 C369 1.396 . S
C370 C371 1.399 . S
C371 H357 0.929 . S
C371 C370 1.399 . S
C371 C372 1.385 . S
C372 H358 0.931 . S
C372 C371 1.385 . S
C372 C373 1.389 . S
C373 C372 1.389 . S
C373 C374 1.387 . S
C374 H359 0.930 . S
C374 C369 1.390 . S
C374 C373 1.387 . S
H375 C387 0.930 . S
H376 C389 0.930 . S
H377 C390 0.930 . S
H378 C394 0.959 . S
H379 C394 0.959 . S
H380 C394 0.961 . S
H381 C395 0.960 . S
H382 C395 0.961 . S
H383 C395 0.959 . S
H384 C398 0.929 . S
H385 C399 0.931 . S
H386 C401 0.930 . S
C387 H375 0.930 . S
C387 C388 1.399 . S
C387 C392 1.399 . S
C388 C387 1.399 . S
C388 C389 1.376 . S
C389 H376 0.930 . S
C389 C388 1.376 . S
C389 C390 1.388 . S
C390 H377 0.930 . S
C390 C389 1.388 . S
C390 C391 1.390 . S
C391 C390 1.390 . S
C391 C392 1.394 . S
C391 C397 1.465 . S
C392 C387 1.399 . S
C392 C391 1.394 . S
C392 C393 1.516 . S
C393 C392 1.516 . S
C393 C394 1.502 . S
C393 C395 1.561 . S
C393 C396 1.526 . S
C394 H378 0.959 . S
C394 H379 0.959 . S
C394 H380 0.961 . S
C394 C393 1.502 . S
C395 H381 0.960 . S
C395 H382 0.961 . S
C395 H383 0.959 . S
C395 C393 1.561 . S
C396 C393 1.526 . S
C396 C397 1.396 . S
C396 C401 1.390 . S
C397 C391 1.465 . S
C397 C396 1.396 . S
C397 C398 1.399 . S
C398 H384 0.929 . S
C398 C397 1.399 . S
C398 C399 1.385 . S
C399 H385 0.931 . S
C399 C398 1.385 . S
C399 C400 1.389 . S
C400 C399 1.389 . S
C400 C401 1.387 . S
C401 H386 0.930 . S
C401 C396 1.390 . S
C401 C400 1.387 . S
H402 C414 0.930 . S
H403 C416 0.930 . S
H404 C417 0.930 . S
H405 C421 0.959 . S
H406 C421 0.959 . S
H407 C421 0.961 . S
H408 C422 0.960 . S
H409 C422 0.961 . S
H410 C422 0.959 . S
H411 C425 0.929 . S
H412 C426 0.931 . S
H413 C428 0.930 . S
C414 H402 0.930 . S
C414 C415 1.399 . S
C414 C419 1.399 . S
C415 C414 1.399 . S
C415 C416 1.376 . S
C416 H403 0.930 . S
C416 C415 1.376 . S
C416 C417 1.388 . S
C417 H404 0.930 . S
C417 C416 1.388 . S
C417 C418 1.390 . S
C418 C417 1.390 . S
C418 C419 1.394 . S
C418 C424 1.465 . S
C419 C414 1.399 . S
C419 C418 1.394 . S
C419 C420 1.516 . S
C420 C419 1.516 . S
C420 C421 1.502 . S
C420 C422 1.561 . S
C420 C423 1.526 . S
C421 H405 0.959 . S
C421 H406 0.959 . S
C421 H407 0.961 . S
C421 C420 1.502 . S
C422 H408 0.960 . S
C422 H409 0.961 . S
C422 H410 0.959 . S
C422 C420 1.561 . S
C423 C420 1.526 . S
C423 C424 1.396 . S
C423 C428 1.390 . S
C424 C418 1.465 . S
C424 C423 1.396 . S
C424 C425 1.399 . S
C425 H411 0.929 . S
C425 C424 1.399 . S
C425 C426 1.385 . S
C426 H412 0.931 . S
C426 C425 1.385 . S
C426 C427 1.389 . S
C427 C426 1.389 . S
C427 C428 1.387 . S
C428 H413 0.930 . S
C428 C423 1.390 . S
C428 C427 1.387 . S
H429 C441 0.930 . S
H430 C443 0.930 . S
H431 C444 0.930 . S
H432 C448 0.959 . S
H433 C448 0.959 . S
H434 C448 0.961 . S
H435 C449 0.960 . S
H436 C449 0.961 . S
H437 C449 0.959 . S
H438 C452 0.929 . S
H439 C453 0.931 . S
H440 C455 0.930 . S
C441 H429 0.930 . S
C441 C442 1.399 . S
C441 C446 1.399 . S
C442 C441 1.399 . S
C442 C443 1.376 . S
C443 H430 0.930 . S
C443 C442 1.376 . S
C443 C444 1.388 . S
C444 H431 0.930 . S
C444 C443 1.388 . S
C444 C445 1.390 . S
C445 C444 1.390 . S
C445 C446 1.394 . S
C445 C451 1.465 . S
C446 C441 1.399 . S
C446 C445 1.394 . S
C446 C447 1.516 . S
C447 C446 1.516 . S
C447 C448 1.502 . S
C447 C449 1.561 . S
C447 C450 1.526 . S
C448 H432 0.959 . S
C448 H433 0.959 . S
C448 H434 0.961 . S
C448 C447 1.502 . S
C449 H435 0.960 . S
C449 H436 0.961 . S
C449 H437 0.959 . S
C449 C447 1.561 . S
C450 C447 1.526 . S
C450 C451 1.396 . S
C450 C455 1.390 . S
C451 C445 1.465 . S
C451 C450 1.396 . S
C451 C452 1.399 . S
C452 H438 0.929 . S
C452 C451 1.399 . S
C452 C453 1.385 . S
C453 H439 0.931 . S
C453 C452 1.385 . S
C453 C454 1.389 . S
C454 C453 1.389 . S
C454 C455 1.387 . S
C455 H440 0.930 . S
C455 C450 1.390 . S
C455 C454 1.387 . S
H456 C468 0.930 . S
H457 C470 0.930 . S
H458 C471 0.930 . S
H459 C475 0.959 . S
H460 C475 0.959 . S
H461 C475 0.961 . S
H462 C476 0.960 . S
H463 C476 0.961 . S
H464 C476 0.959 . S
H465 C479 0.929 . S
H466 C480 0.931 . S
H467 C482 0.930 . S
C468 H456 0.930 . S
C468 C469 1.399 . S
C468 C473 1.399 . S
C469 C468 1.399 . S
C469 C470 1.376 . S
C470 H457 0.930 . S
C470 C469 1.376 . S
C470 C471 1.388 . S
C471 H458 0.930 . S
C471 C470 1.388 . S
C471 C472 1.390 . S
C472 C471 1.390 . S
C472 C473 1.394 . S
C472 C478 1.465 . S
C473 C468 1.399 . S
C473 C472 1.394 . S
C473 C474 1.516 . S
C474 C473 1.516 . S
C474 C475 1.502 . S
C474 C476 1.561 . S
C474 C477 1.526 . S
C475 H459 0.959 . S
C475 H460 0.959 . S
C475 H461 0.961 . S
C475 C474 1.502 . S
C476 H462 0.960 . S
C476 H463 0.961 . S
C476 H464 0.959 . S
C476 C474 1.561 . S
C477 C474 1.526 . S
C477 C478 1.396 . S
C477 C482 1.390 . S
C478 C472 1.465 . S
C478 C477 1.396 . S
C478 C479 1.399 . S
C479 H465 0.929 . S
C479 C478 1.399 . S
C479 C480 1.385 . S
C480 H466 0.931 . S
C480 C479 1.385 . S
C480 C481 1.389 . S
C481 C480 1.389 . S
C481 C482 1.387 . S
C482 H467 0.930 . S
C482 C477 1.390 . S
C482 C481 1.387 . S
H483 C495 0.930 . S
H484 C497 0.930 . S
H485 C498 0.930 . S
H486 C502 0.959 . S
H487 C502 0.959 . S
H488 C502 0.961 . S
H489 C503 0.960 . S
H490 C503 0.961 . S
H491 C503 0.959 . S
H492 C506 0.929 . S
H493 C507 0.931 . S
H494 C509 0.930 . S
C495 H483 0.930 . S
C495 C496 1.399 . S
C495 C500 1.399 . S
C496 C495 1.399 . S
C496 C497 1.376 . S
C497 H484 0.930 . S
C497 C496 1.376 . S
C497 C498 1.388 . S
C498 H485 0.930 . S
C498 C497 1.388 . S
C498 C499 1.390 . S
C499 C498 1.390 . S
C499 C500 1.394 . S
C499 C505 1.465 . S
C500 C495 1.399 . S
C500 C499 1.394 . S
C500 C501 1.516 . S
C501 C500 1.516 . S
C501 C502 1.502 . S
C501 C503 1.561 . S
C501 C504 1.526 . S
C502 H486 0.959 . S
C502 H487 0.959 . S
C502 H488 0.961 . S
C502 C501 1.502 . S
C503 H489 0.960 . S
C503 H490 0.961 . S
C503 H491 0.959 . S
C503 C501 1.561 . S
C504 C501 1.526 . S
C504 C505 1.396 . S
C504 C509 1.390 . S
C505 C499 1.465 . S
C505 C504 1.396 . S
C505 C506 1.399 . S
C506 H492 0.929 . S
C506 C505 1.399 . S
C506 C507 1.385 . S
C507 H493 0.931 . S
C507 C506 1.385 . S
C507 C508 1.389 . S
C508 C507 1.389 . S
C508 C509 1.387 . S
C509 H494 0.930 . S
C509 C504 1.390 . S
C509 C508 1.387 . S
H510 C522 0.930 . S
H511 C524 0.930 . S
H512 C525 0.930 . S
H513 C529 0.959 1_655 S
H514 C529 0.959 . S
H515 C529 0.961 . S
H516 C530 0.960 . S
H517 C530 0.961 . S
H518 C530 0.959 . S
H519 C533 0.929 . S
H520 C534 0.931 . S
H521 C536 0.930 . S
C522 H510 0.930 . S
C522 C523 1.399 . S
C522 C527 1.399 . S
C523 C522 1.399 . S
C523 C524 1.376 . S
C524 H511 0.930 . S
C524 C523 1.376 . S
C524 C525 1.388 . S
C525 H512 0.930 . S
C525 C524 1.388 . S
C525 C526 1.390 . S
C526 C525 1.390 . S
C526 C527 1.394 . S
C526 C532 1.472 . S
C527 C522 1.399 . S
C527 C526 1.394 . S
C527 C528 1.516 . S
C528 C527 1.516 . S
C528 C529 1.502 . S
C528 C530 1.561 . S
C528 C531 1.526 1_554 S
C529 H513 0.959 1_455 S
C529 H514 0.959 . S
C529 H515 0.961 . S
C529 C528 1.502 . S
C530 H516 0.960 . S
C530 H517 0.961 . S
C530 H518 0.959 . S
C530 C528 1.561 . S
C531 C528 1.526 1_556 S
C531 C532 1.395 1_556 S
C531 C536 1.390 . S
C532 C526 1.472 . S
C532 C531 1.395 1_554 S
C532 C533 1.394 1_554 S
C533 H519 0.929 . S
C533 C532 1.394 1_556 S
C533 C534 1.385 . S
C534 H520 0.931 . S
C534 C533 1.385 . S
C534 C535 1.389 . S
C535 C534 1.389 . S
C535 C536 1.387 . S
C536 H521 0.930 . S
C536 C531 1.390 . S
C536 C535 1.387 . S
H537 C549 0.930 . S
H538 C551 0.930 . S
H539 C552 0.930 . S
H540 C556 0.959 . S
H541 C556 0.959 . S
H542 C556 0.961 . S
H543 C557 0.960 . S
H544 C557 0.961 . S
H545 C557 0.959 . S
H546 C560 0.929 . S
H547 C561 0.931 . S
H548 C563 0.930 . S
C549 H537 0.930 . S
C549 C550 1.399 1_565 S
C549 C554 1.399 . S
C550 C549 1.399 1_545 S
C550 C551 1.376 . S
C551 H538 0.930 . S
C551 C550 1.376 . S
C551 C552 1.388 . S
C552 H539 0.930 . S
C552 C551 1.388 . S
C552 C553 1.390 . S
C553 C552 1.390 . S
C553 C554 1.394 1_545 S
C553 C559 1.465 . S
C554 C549 1.399 . S
C554 C553 1.394 1_565 S
C554 C555 1.516 . S
C555 C554 1.516 . S
C555 C556 1.502 . S
C555 C557 1.561 . S
C555 C558 1.526 . S
C556 H540 0.959 . S
C556 H541 0.959 . S
C556 H542 0.961 . S
C556 C555 1.502 . S
C557 H543 0.960 . S
C557 H544 0.961 . S
C557 H545 0.959 . S
C557 C555 1.561 . S
C558 C555 1.526 . S
C558 C559 1.396 1_565 S
C558 C563 1.390 . S
C559 C553 1.465 . S
C559 C558 1.396 1_545 S
C559 C560 1.399 . S
C560 H546 0.929 . S
C560 C559 1.399 . S
C560 C561 1.385 . S
C561 H547 0.931 . S
C561 C560 1.385 . S
C561 C562 1.389 . S
C562 C561 1.389 . S
C562 C563 1.387 1_545 S
C563 H548 0.930 . S
C563 C558 1.390 . S
C563 C562 1.387 1_565 S
H564 C576 0.930 . S
H565 C578 0.930 . S
H566 C579 0.930 . S
H567 C583 0.959 . S
H568 C583 0.959 . S
H569 C583 0.961 . S
H570 C584 0.960 . S
H571 C584 0.961 . S
H572 C584 0.959 . S
H573 C587 0.929 . S
H574 C588 0.931 . S
H575 C590 0.930 . S
C576 H564 0.930 . S
C576 C577 1.399 . S
C576 C581 1.399 . S
C577 C576 1.399 . S
C577 C578 1.376 . S
C578 H565 0.930 . S
C578 C577 1.376 . S
C578 C579 1.388 . S
C579 H566 0.930 . S
C579 C578 1.388 . S
C579 C580 1.390 . S
C580 C579 1.390 . S
C580 C581 1.394 . S
C580 C586 1.465 . S
C581 C576 1.399 . S
C581 C580 1.394 . S
C581 C582 1.516 . S
C582 C581 1.516 . S
C582 C583 1.502 . S
C582 C584 1.561 . S
C582 C585 1.526 . S
C583 H567 0.959 . S
C583 H568 0.959 . S
C583 H569 0.961 . S
C583 C582 1.502 . S
C584 H570 0.960 . S
C584 H571 0.961 . S
C584 H572 0.959 . S
C584 C582 1.561 . S
C585 C582 1.526 . S
C585 C586 1.396 . S
C585 C590 1.390 . S
C586 C580 1.465 . S
C586 C585 1.396 . S
C586 C587 1.399 . S
C587 H573 0.929 . S
C587 C586 1.399 . S
C587 C588 1.385 . S
C588 H574 0.931 . S
C588 C587 1.385 . S
C588 C589 1.389 . S
C589 C588 1.389 . S
C589 C590 1.387 . S
C590 H575 0.930 . S
C590 C585 1.390 . S
C590 C589 1.387 . S
H591 C603 0.930 . S
H592 C605 0.930 . S
H593 C606 0.930 . S
H594 C610 0.959 . S
H595 C610 0.959 . S
H596 C610 0.961 . S
H597 C611 0.960 . S
H598 C611 0.961 . S
H599 C611 0.959 . S
H600 C614 0.929 . S
H601 C615 0.931 . S
H602 C617 0.930 . S
C603 H591 0.930 . S
C603 C604 1.399 . S
C603 C608 1.399 . S
C604 C603 1.399 . S
C604 C605 1.376 1_545 S
C605 H592 0.930 . S
C605 C604 1.376 1_565 S
C605 C606 1.388 . S
C606 H593 0.930 . S
C606 C605 1.388 . S
C606 C607 1.390 . S
C607 C606 1.390 . S
C607 C608 1.394 1_565 S
C607 C613 1.465 . S
C608 C603 1.399 . S
C608 C607 1.394 1_545 S
C608 C609 1.516 . S
C609 C608 1.516 . S
C609 C610 1.502 . S
C609 C611 1.561 . S
C609 C612 1.526 . S
C610 H594 0.959 . S
C610 H595 0.959 . S
C610 H596 0.961 . S
C610 C609 1.502 . S
C611 H597 0.960 . S
C611 H598 0.961 . S
C611 H599 0.959 . S
C611 C609 1.561 . S
C612 C609 1.526 . S
C612 C613 1.396 1_545 S
C612 C617 1.390 . S
C613 C607 1.465 . S
C613 C612 1.396 1_565 S
C613 C614 1.399 . S
C614 H600 0.929 . S
C614 C613 1.399 . S
C614 C615 1.385 . S
C615 H601 0.931 . S
C615 C614 1.385 . S
C615 C616 1.389 1_565 S
C616 C615 1.389 1_545 S
C616 C617 1.387 . S
C617 H602 0.930 . S
C617 C612 1.390 . S
C617 C616 1.387 . S
H618 C630 0.930 . S
H619 C632 0.930 . S
H620 C633 0.930 . S
H621 C637 0.959 . S
H622 C637 0.959 . S
H623 C637 0.961 . S
H624 C638 0.960 . S
H625 C638 0.961 . S
H626 C638 0.959 . S
H627 C641 0.929 . S
H628 C642 0.931 . S
H629 C644 0.930 . S
C630 H618 0.930 . S
C630 C631 1.399 . S
C630 C635 1.399 . S
C631 C630 1.399 . S
C631 C632 1.376 . S
C632 H619 0.930 . S
C632 C631 1.376 . S
C632 C633 1.388 . S
C633 H620 0.930 . S
C633 C632 1.388 . S
C633 C634 1.390 . S
C634 C633 1.390 . S
C634 C635 1.394 . S
C634 C640 1.465 . S
C635 C630 1.399 . S
C635 C634 1.394 . S
C635 C636 1.516 . S
C636 C635 1.516 . S
C636 C637 1.502 . S
C636 C638 1.561 . S
C636 C639 1.526 . S
C637 H621 0.959 . S
C637 H622 0.959 . S
C637 H623 0.961 . S
C637 C636 1.502 . S
C638 H624 0.960 . S
C638 H625 0.961 . S
C638 H626 0.959 . S
C638 C636 1.561 . S
C639 C636 1.526 . S
C639 C640 1.396 . S
C639 C644 1.390 1_556 S
C640 C634 1.465 . S
C640 C639 1.396 . S
C640 C641 1.399 1_556 S
C641 H627 0.929 . S
C641 C640 1.399 1_554 S
C641 C642 1.385 . S
C642 H628 0.931 . S
C642 C641 1.385 . S
C642 C643 1.389 . S
C643 C642 1.389 . S
C643 C644 1.387 . S
C644 H629 0.930 . S
C644 C639 1.390 1_554 S
C644 C643 1.387 . S
H645 C657 0.930 . S
H646 C659 0.930 . S
H647 C660 0.930 . S
H648 C664 0.959 . S
H649 C664 0.959 . S
H650 C664 0.961 . S
H651 C665 0.960 . S
H652 C665 0.961 . S
H653 C665 0.959 . S
H654 C668 0.929 . S
H655 C669 0.931 . S
H656 C671 0.930 . S
C657 H645 0.930 . S
C657 C658 1.399 . S
C657 C662 1.399 . S
C658 C657 1.399 . S
C658 C659 1.376 1_455 S
C659 H646 0.930 . S
C659 C658 1.376 1_655 S
C659 C660 1.388 . S
C660 H647 0.930 . S
C660 C659 1.388 . S
C660 C661 1.390 . S
C661 C660 1.390 . S
C661 C662 1.394 1_655 S
C661 C667 1.465 . S
C662 C657 1.399 . S
C662 C661 1.394 1_455 S
C662 C663 1.516 . S
C663 C662 1.516 . S
C663 C664 1.502 . S
C663 C665 1.561 . S
C663 C666 1.526 . S
C664 H648 0.959 . S
C664 H649 0.959 . S
C664 H650 0.961 . S
C664 C663 1.502 . S
C665 H651 0.960 . S
C665 H652 0.961 . S
C665 H653 0.959 . S
C665 C663 1.561 . S
C666 C663 1.526 . S
C666 C667 1.396 1_455 S
C666 C671 1.390 . S
C667 C661 1.465 . S
C667 C666 1.396 1_655 S
C667 C668 1.399 . S
C668 H654 0.929 . S
C668 C667 1.399 . S
C668 C669 1.385 . S
C669 H655 0.931 . S
C669 C668 1.385 . S
C669 C670 1.389 . S
C670 C669 1.389 . S
C670 C671 1.387 1_655 S
C671 H656 0.930 . S
C671 C666 1.390 . S
C671 C670 1.387 1_455 S
C199 C7 0.726 . S
C211 C180 0.805 . S
C226 C51 2.042 . S
C238 C158 1.746 . S
C253 C87 1.062 . S
C265 C172 1.006 . S
C280 C16 0.287 . S
C292 C183 0.190 . S
C319 C161 1.834 . S
C307 C42 1.874 . S
C346 C169 1.240 . S
C334 C96 1.382 . S
C361 C47 1.357 . S
C373 C136 1.070 . S
C388 C91 3.259 . S
C400 C147 2.944 . S
C415 C2 2.139 . S
C427 C125 1.798 . S
C454 C139 1.048 . S
C442 C56 1.065 . S
C481 C150 2.805 . S
C469 C82 2.878 . S
C496 C11 1.776 . S
C508 C128 1.719 . S
C535 C149 1.606 . S
C523 C19 1.695 . S
C550 C50 1.442 . S
C562 C127 1.383 . S
C577 C99 1.529 . S
C589 C138 1.510 . S
C616 C171 1.439 . S
C604 C59 1.458 . S
C643 C182 1.133 . S
C631 C90 1.223 . S
C658 C10 1.429 . S
C670 C160 1.424 . S
