# Generated by pormake.
# Topology cml, (3,6)-cn, num edge types: 1
# Building blocks:
#     Node 0, Type 0, BuildingBlock: WUSLED_clean_sbu_0, # of connection points: 3
#     Node 1, Type 0, BuildingBlock: WUSLED_clean_sbu_0, # of connection points: 3
#     Node 2, Type 0, BuildingBlock: WUSLED_clean_sbu_0, # of connection points: 3
#     Node 3, Type 0, BuildingBlock: WUSLED_clean_sbu_0, # of connection points: 3
#     Node 4, Type 0, BuildingBlock: WUSLED_clean_sbu_0, # of connection points: 3
#     Node 5, Type 0, BuildingBlock: WUSLED_clean_sbu_0, # of connection points: 3
#     Node 6, Type 0, BuildingBlock: WUSLED_clean_sbu_0, # of connection points: 3
#     Node 7, Type 0, BuildingBlock: WUSLED_clean_sbu_0, # of connection points: 3
#     Node 8, Type 1, BuildingBlock: IZENUY_clean_sbu_0, # of connection points: 6
#     Node 9, Type 1, BuildingBlock: IZENUY_clean_sbu_0, # of connection points: 6
#     Node 10, Type 1, BuildingBlock: IZENUY_clean_sbu_0, # of connection points: 6
#     Node 11, Type 1, BuildingBlock: IZENUY_clean_sbu_0, # of connection points: 6
#     Edge 12, Type (0, 1), BuildingBlock: KIFKEQ_clean_linker_1, # of connection points: 2
#     Edge 13, Type (0, 1), BuildingBlock: KIFKEQ_clean_linker_1, # of connection points: 2
#     Edge 14, Type (0, 1), BuildingBlock: KIFKEQ_clean_linker_1, # of connection points: 2
#     Edge 15, Type (0, 1), BuildingBlock: KIFKEQ_clean_linker_1, # of connection points: 2
#     Edge 16, Type (0, 1), BuildingBlock: KIFKEQ_clean_linker_1, # of connection points: 2
#     Edge 17, Type (0, 1), BuildingBlock: KIFKEQ_clean_linker_1, # of connection points: 2
#     Edge 18, Type (0, 1), BuildingBlock: KIFKEQ_clean_linker_1, # of connection points: 2
#     Edge 19, Type (0, 1), BuildingBlock: KIFKEQ_clean_linker_1, # of connection points: 2
#     Edge 20, Type (0, 1), BuildingBlock: KIFKEQ_clean_linker_1, # of connection points: 2
#     Edge 21, Type (0, 1), BuildingBlock: KIFKEQ_clean_linker_1, # of connection points: 2
#     Edge 22, Type (0, 1), BuildingBlock: KIFKEQ_clean_linker_1, # of connection points: 2
#     Edge 23, Type (0, 1), BuildingBlock: KIFKEQ_clean_linker_1, # of connection points: 2
#     Edge 24, Type (0, 1), BuildingBlock: KIFKEQ_clean_linker_1, # of connection points: 2
#     Edge 25, Type (0, 1), BuildingBlock: KIFKEQ_clean_linker_1, # of connection points: 2
#     Edge 26, Type (0, 1), BuildingBlock: KIFKEQ_clean_linker_1, # of connection points: 2
#     Edge 27, Type (0, 1), BuildingBlock: KIFKEQ_clean_linker_1, # of connection points: 2
#     Edge 28, Type (0, 1), BuildingBlock: KIFKEQ_clean_linker_1, # of connection points: 2
#     Edge 29, Type (0, 1), BuildingBlock: KIFKEQ_clean_linker_1, # of connection points: 2
#     Edge 30, Type (0, 1), BuildingBlock: KIFKEQ_clean_linker_1, # of connection points: 2
#     Edge 31, Type (0, 1), BuildingBlock: KIFKEQ_clean_linker_1, # of connection points: 2
#     Edge 32, Type (0, 1), BuildingBlock: KIFKEQ_clean_linker_1, # of connection points: 2
#     Edge 33, Type (0, 1), BuildingBlock: KIFKEQ_clean_linker_1, # of connection points: 2
#     Edge 34, Type (0, 1), BuildingBlock: KIFKEQ_clean_linker_1, # of connection points: 2
#     Edge 35, Type (0, 1), BuildingBlock: KIFKEQ_clean_linker_1, # of connection points: 2
# Relax obj value: 0.052
# Max RMSD: 0.067
# Mean RMSD: 0.065
data_MOF--net-cml--node1-WUSLED_clean_sbu_0--node2-IZENUY_clean_sbu_0--edge1-KIFKEQ_clean_linker_1
_symmetry_space_group_name_H-M    P1
_symmetry_Int_Tables_number       1
_symmetry_cell_setting            triclinic
loop_
_symmetry_equiv_pos_as_xyz
'x, y, z'
_cell_length_a     46.431124
_cell_length_b     53.276815
_cell_length_c     49.372778
_cell_angle_alpha  90.214116
_cell_angle_beta   89.990895
_cell_angle_gamma 90.154518
loop_
_atom_site_label
_atom_site_type_symbol
_atom_site_fract_x
_atom_site_fract_y
_atom_site_fract_z
_atom_type_partial_charge
C0 C 0.31874 0.43142 0.95515 0.0
C1 C 0.33426 0.44641 0.97348 0.0
C2 C 0.34979 0.4738 0.9367 0.0
C3 C 0.34956 0.46742 0.96437 0.0
C4 C 0.33407 0.45868 0.91844 0.0
C5 C 0.31871 0.4377 0.92761 0.0
U6 U 0.30196 0.384 1.01026 0.0
O7 O 0.26095 0.36724 0.02331 0.0
O8 O 0.29562 0.34301 1.00819 0.0
C9 C 0.26869 0.3444 0.01626 0.0
C10 C 0.30293 0.40907 0.96454 0.0
C11 C 0.24759 0.32994 1.00021 0.0
C12 C 0.21209 0.32667 0.96409 0.0
C13 C 0.23288 0.34063 0.97826 0.0
C14 C 0.22093 0.29111 0.99332 0.0
C15 C 0.20578 0.30174 0.97152 0.0
C16 C 0.24158 0.30508 1.00749 0.0
C17 C 0.34277 0.3935 0.07841 0.0
C18 C 0.35946 0.36451 0.11308 0.0
C19 C 0.35635 0.40897 0.12298 0.0
C20 C 0.346 0.41334 0.09688 0.0
C21 C 0.36386 0.3846 0.13123 0.0
C22 C 0.34906 0.36892 0.08683 0.0
C23 C 0.33504 0.39953 0.05015 0.0
O24 O 0.31885 0.38915 0.96896 0.0
O25 O 0.28392 0.41313 0.98379 0.0
O26 O 0.30889 0.4081 0.04608 0.0
O27 O 0.34373 0.38386 0.03121 0.0
H28 H 0.33455 0.44185 0.99485 0.0
H29 H 0.36104 0.47877 0.97908 0.0
H30 H 0.33404 0.46278 0.89698 0.0
H31 H 0.30695 0.42626 0.91315 0.0
H32 H 0.20108 0.33535 0.94722 0.0
H33 H 0.23732 0.35978 0.97223 0.0
H34 H 0.21639 0.27212 0.99985 0.0
H35 H 0.25265 0.29653 0.02442 0.0
H36 H 0.36512 0.34554 0.11878 0.0
H37 H 0.35895 0.4248 0.13659 0.0
H38 H 0.34123 0.43242 0.09085 0.0
H39 H 0.3467 0.35325 0.07296 0.0
C40 C 0.70962 0.67239 0.59343 0.0
C41 C 0.68188 0.66179 0.59329 0.0
C42 C 0.67647 0.67086 0.64142 0.0
C43 C 0.66542 0.66118 0.61699 0.0
C44 C 0.70448 0.68103 0.64162 0.0
C45 C 0.72086 0.68186 0.61779 0.0
U46 U 0.72848 0.64446 0.52521 0.0
O47 O 0.73567 0.66181 0.48544 0.0
O48 O 0.76997 0.63954 0.50417 0.0
C49 C 0.7625 0.65411 0.48393 0.0
C50 C 0.72696 0.67327 0.5684 0.0
C51 C 0.78392 0.67298 0.47544 0.0
C52 C 0.80591 0.71442 0.47868 0.0
C53 C 0.78603 0.69657 0.48807 0.0
C54 C 0.82196 0.68513 0.44427 0.0
C55 C 0.82397 0.70899 0.45647 0.0
C56 C 0.80215 0.66737 0.45364 0.0
C57 C 0.68618 0.58378 0.50655 0.0
C58 C 0.67049 0.56679 0.46317 0.0
C59 C 0.67086 0.54021 0.50285 0.0
C60 C 0.68137 0.56024 0.51835 0.0
C61 C 0.66479 0.54335 0.47516 0.0
C62 C 0.68115 0.58682 0.4787 0.0
C63 C 0.69432 0.60505 0.52422 0.0
O64 O 0.7456 0.65494 0.56538 0.0
O65 O 0.71254 0.67816 0.54612 0.0
O66 O 0.6863 0.62754 0.51639 0.0
O67 O 0.72043 0.60458 0.53447 0.0
H68 H 0.6729 0.65402 0.57481 0.0
H69 H 0.6441 0.65289 0.61626 0.0
H70 H 0.71351 0.68876 0.66008 0.0
H71 H 0.74227 0.68998 0.61835 0.0
H72 H 0.80673 0.73264 0.48845 0.0
H73 H 0.7721 0.70126 0.50495 0.0
H74 H 0.83584 0.68007 0.4275 0.0
H75 H 0.80092 0.64923 0.4437 0.0
H76 H 0.6664 0.56973 0.44182 0.0
H77 H 0.66642 0.52255 0.51282 0.0
H78 H 0.68498 0.55753 0.53983 0.0
H79 H 0.68482 0.60478 0.46907 0.0
C80 C 0.70925 0.4437 0.96365 0.0
C81 C 0.68223 0.44836 0.97539 0.0
C82 C 0.67643 0.48567 0.94754 0.0
C83 C 0.66592 0.46905 0.96731 0.0
C84 C 0.70385 0.48131 0.93633 0.0
C85 C 0.72007 0.46044 0.94427 0.0
U86 U 0.72716 0.39407 0.01558 0.0
O87 O 0.7338 0.35338 1.01168 0.0
O88 O 0.76843 0.37721 0.02788 0.0
C89 C 0.76065 0.35457 0.02005 0.0
C90 C 0.72615 0.42149 0.97155 0.0
C91 C 0.78189 0.34036 1.00397 0.0
C92 C 0.80321 0.32773 0.96097 0.0
C93 C 0.7836 0.34247 0.97567 0.0
C94 C 0.81979 0.30902 1.00276 0.0
C95 C 0.82135 0.3106 0.97434 0.0
C96 C 0.80027 0.32371 0.01736 0.0
C97 C 0.68496 0.39981 0.0835 0.0
C98 C 0.66527 0.36961 0.11549 0.0
C99 C 0.67308 0.4127 0.12948 0.0
C100 C 0.68373 0.41833 0.10373 0.0
C101 C 0.66324 0.38837 0.13557 0.0
C102 C 0.67606 0.37525 0.0897 0.0
C103 C 0.69323 0.40731 0.05576 0.0
O104 O 0.74478 0.42515 0.99122 0.0
O105 O 0.71129 0.4006 0.97428 0.0
O106 O 0.68499 0.39258 0.03576 0.0
O107 O 0.71942 0.41626 0.05265 0.0
H108 H 0.67362 0.43587 0.99067 0.0
H109 H 0.64507 0.47208 0.97658 0.0
H110 H 0.71244 0.49366 0.92093 0.0
H111 H 0.74094 0.45724 0.93508 0.0
H112 H 0.80371 0.32934 0.93912 0.0
H113 H 0.76956 0.35525 0.96495 0.0
H114 H 0.83377 0.29644 1.01381 0.0
H115 H 0.79936 0.32189 0.0392 0.0
H116 H 0.65821 0.35062 0.11962 0.0
H117 H 0.67149 0.42769 0.14427 0.0
H118 H 0.69025 0.43744 0.09935 0.0
H119 H 0.67682 0.36056 0.0745 0.0
C120 C 0.31754 0.68109 0.5877 0.0
C121 C 0.33288 0.65959 0.5953 0.0
C122 C 0.34664 0.67954 0.63794 0.0
C123 C 0.34723 0.6588 0.62019 0.0
C124 C 0.33131 0.7011 0.63012 0.0
C125 C 0.31686 0.70183 0.60523 0.0
U126 U 0.30288 0.6529 0.51841 0.0
O127 O 0.26265 0.64814 0.49548 0.0
O128 O 0.29788 0.67063 0.47841 0.0
C129 C 0.27106 0.66305 0.47582 0.0
C130 C 0.30252 0.68203 0.56145 0.0
C131 C 0.25016 0.68219 0.46718 0.0
C132 C 0.21435 0.71418 0.4772 0.0
C133 C 0.23505 0.69693 0.48602 0.0
C134 C 0.2241 0.70249 0.43065 0.0
C135 C 0.20851 0.71708 0.44938 0.0
C136 C 0.24466 0.68523 0.43948 0.0
C137 C 0.34366 0.59156 0.5013 0.0
C138 C 0.35287 0.57307 0.45699 0.0
C139 C 0.3615 0.54886 0.4976 0.0
C140 C 0.35238 0.56911 0.51344 0.0
C141 C 0.36211 0.55061 0.46918 0.0
C142 C 0.34364 0.59336 0.47292 0.0
C143 C 0.33588 0.61291 0.51886 0.0
O144 O 0.31913 0.6861 0.54035 0.0
O145 O 0.28351 0.66409 0.55727 0.0
O146 O 0.30941 0.61301 0.52828 0.0
O147 O 0.34488 0.63518 0.51113 0.0
H148 H 0.33384 0.64345 0.58192 0.0
H149 H 0.35919 0.64205 0.62535 0.0
H150 H 0.33021 0.71731 0.64338 0.0
H151 H 0.30514 0.7186 0.59967 0.0
H152 H 0.20301 0.72532 0.49215 0.0
H153 H 0.23909 0.69495 0.50752 0.0
H154 H 0.21993 0.70396 0.40913 0.0
H155 H 0.25604 0.67396 0.42464 0.0
H156 H 0.35282 0.57496 0.43516 0.0
H157 H 0.36887 0.53207 0.50773 0.0
H158 H 0.35266 0.56739 0.53531 0.0
H159 H 0.33686 0.61052 0.46312 0.0
C160 C 0.81285 0.93897 0.96466 0.0
C161 C 0.84043 0.94345 0.97532 0.0
C162 C 0.84499 0.98136 0.94813 0.0
C163 C 0.8564 0.96437 0.96703 0.0
C164 C 0.81708 0.97709 0.93797 0.0
C165 C 0.80121 0.95603 0.94611 0.0
U166 U 0.79508 0.88876 0.01652 0.0
O167 O 0.75346 0.87276 0.02934 0.0
O168 O 0.78672 0.84832 1.01196 0.0
C169 C 0.76006 0.85012 0.02074 0.0
C170 C 0.79605 0.91671 0.97285 0.0
C171 C 0.73789 0.83716 1.00446 0.0
C172 C 0.71587 0.82604 0.96127 0.0
C173 C 0.73686 0.83918 0.97612 0.0
C174 C 0.69662 0.80904 1.00296 0.0
C175 C 0.69546 0.81079 0.97454 0.0
C176 C 0.71759 0.82207 0.01771 0.0
C177 C 0.83762 0.89312 0.08426 0.0
C178 C 0.85096 0.86152 0.11749 0.0
C179 C 0.85238 0.9056 0.12958 0.0
C180 C 0.84293 0.91185 0.10363 0.0
C181 C 0.85678 0.88038 0.13683 0.0
C182 C 0.84139 0.86783 0.09143 0.0
C183 C 0.82977 0.90089 0.05657 0.0
O184 O 0.81073 0.89575 0.9752 0.0
O185 O 0.77782 0.92033 0.99284 0.0
O186 O 0.80398 0.91059 0.05358 0.0
O187 O 0.83727 0.88592 0.03655 0.0
H188 H 0.8497 0.9307 0.98996 0.0
H189 H 0.87767 0.9673 0.97551 0.0
H190 H 0.80778 0.98971 0.92323 0.0
H191 H 0.7799 0.95297 0.93776 0.0
H192 H 0.71545 0.828 0.93945 0.0
H193 H 0.75231 0.85082 0.96551 0.0
H194 H 0.6816 0.7972 1.01385 0.0
H195 H 0.7181 0.82019 0.03955 0.0
H196 H 0.8539 0.84191 0.12246 0.0
H197 H 0.85712 0.92066 0.14369 0.0
H198 H 0.84035 0.93147 0.09848 0.0
H199 H 0.83736 0.853 0.07683 0.0
C200 C 0.20267 0.18042 0.58972 0.0
C201 C 0.17317 0.1745 0.58965 0.0
C202 C 0.17102 0.17946 0.63877 0.0
C203 C 0.15751 0.17419 0.61384 0.0
C204 C 0.20058 0.18549 0.63872 0.0
C205 C 0.21619 0.18601 0.61444 0.0
U206 U 0.22144 0.15 0.52229 0.0
O207 O 0.2291 0.16619 0.48201 0.0
O208 O 0.26314 0.14446 0.50185 0.0
C209 C 0.25596 0.1585 0.48109 0.0
C210 C 0.21966 0.18019 0.56438 0.0
C211 C 0.27744 0.17727 0.47253 0.0
C212 C 0.30073 0.21807 0.47686 0.0
C213 C 0.28059 0.20035 0.48603 0.0
C214 C 0.31487 0.18965 0.44086 0.0
C215 C 0.318 0.213 0.454 0.0
C216 C 0.2948 0.17203 0.45003 0.0
C217 C 0.17998 0.08842 0.50516 0.0
C218 C 0.15968 0.07006 0.46409 0.0
C219 C 0.17094 0.04347 0.50227 0.0
C220 C 0.18086 0.06441 0.51669 0.0
C221 C 0.15969 0.04606 0.47597 0.0
C222 C 0.16971 0.09103 0.47853 0.0
C223 C 0.18757 0.11039 0.52219 0.0
O224 O 0.23836 0.16182 0.5621 0.0
O225 O 0.20519 0.18426 0.54192 0.0
O226 O 0.17945 0.1326 0.51357 0.0
O227 O 0.21345 0.11044 0.53297 0.0
H228 H 0.16216 0.16999 0.57091 0.0
H229 H 0.13473 0.1699 0.61293 0.0
H230 H 0.21185 0.18931 0.65749 0.0
H231 H 0.23896 0.19048 0.61499 0.0
H232 H 0.3024 0.2359 0.48734 0.0
H233 H 0.26733 0.20472 0.50347 0.0
H234 H 0.32813 0.18487 0.42355 0.0
H235 H 0.29276 0.15426 0.43943 0.0
H236 H 0.15094 0.07283 0.444 0.0
H237 H 0.17177 0.02525 0.5119 0.0
H238 H 0.18862 0.0619 0.5372 0.0
H239 H 0.16869 0.10932 0.46908 0.0
C240 C 0.20318 0.93527 0.95582 0.0
C241 C 0.18734 0.94985 0.97423 0.0
C242 C 0.17151 0.97722 0.93764 0.0
C243 C 0.17172 0.97064 0.96526 0.0
C244 C 0.18764 0.96259 0.91932 0.0
C245 C 0.20331 0.94181 0.92836 0.0
U246 U 0.21984 0.88798 1.01083 0.0
O247 O 0.22509 0.8469 1.00887 0.0
O248 O 0.26056 0.87064 0.02353 0.0
C249 C 0.25212 0.8479 0.01671 0.0
C250 C 0.21894 0.91293 0.96505 0.0
C251 C 0.27269 0.83296 1.00062 0.0
C252 C 0.30751 0.8287 0.96404 0.0
C253 C 0.28725 0.84312 0.97826 0.0
C254 C 0.29844 0.79372 0.99407 0.0
C255 C 0.31345 0.80383 0.97184 0.0
C256 C 0.27832 0.80815 1.00828 0.0
C257 C 0.17962 0.89747 0.07909 0.0
C258 C 0.16281 0.86783 0.11306 0.0
C259 C 0.16709 0.91195 0.12436 0.0
C260 C 0.17701 0.91689 0.09818 0.0
C261 C 0.1594 0.88742 0.13202 0.0
C262 C 0.17289 0.87279 0.08686 0.0
C263 C 0.1873 0.9039 0.05091 0.0
O264 O 0.23814 0.91695 0.98417 0.0
O265 O 0.20286 0.89305 0.9696 0.0
O266 O 0.17811 0.88859 0.03181 0.0
O267 O 0.21368 0.91206 0.04682 0.0
H268 H 0.18696 0.94507 0.99554 0.0
H269 H 0.15993 0.98165 0.98001 0.0
H270 H 0.1877 0.96687 0.8979 0.0
H271 H 0.2153 0.93067 0.91384 0.0
H272 H 0.31841 0.83698 0.94684 0.0
H273 H 0.2831 0.86222 0.97193 0.0
H274 H 0.3027 0.7748 1.0009 0.0
H275 H 0.26736 0.8 0.02553 0.0
H276 H 0.15742 0.84869 0.11841 0.0
H277 H 0.16441 0.92752 0.13828 0.0
H278 H 0.18192 0.93608 0.09259 0.0
H279 H 0.17482 0.85742 0.07255 0.0
C280 C 0.81506 0.17455 0.5886 0.0
C281 C 0.82361 0.1514 0.59947 0.0
C282 C 0.84654 0.17275 0.63757 0.0
C283 C 0.83905 0.1505 0.6238 0.0
C284 C 0.83806 0.19589 0.62651 0.0
C285 C 0.8224 0.19676 0.6023 0.0
U286 U 0.79744 0.1476 0.51916 0.0
O287 O 0.75609 0.14313 0.49782 0.0
O288 O 0.79054 0.16587 0.47978 0.0
C289 C 0.76346 0.15864 0.47833 0.0
C290 C 0.79902 0.17581 0.56284 0.0
C291 C 0.74178 0.17784 0.47077 0.0
C292 C 0.72914 0.2198 0.45517 0.0
C293 C 0.74978 0.20258 0.46418 0.0
C294 C 0.69208 0.18805 0.45943 0.0
C295 C 0.70005 0.21271 0.45255 0.0
C296 C 0.7127 0.17083 0.46829 0.0
C297 C 0.83809 0.08647 0.49989 0.0
C298 C 0.84822 0.06856 0.45548 0.0
C299 C 0.8558 0.04376 0.49587 0.0
C300 C 0.84638 0.06381 0.51183 0.0
C301 C 0.85716 0.04593 0.4675 0.0
C302 C 0.8387 0.08866 0.47155 0.0
C303 C 0.83058 0.10771 0.51771 0.0
O304 O 0.8147 0.1804 0.54124 0.0
O305 O 0.77971 0.15807 0.5589 0.0
O306 O 0.80447 0.10755 0.52799 0.0
O307 O 0.83912 0.1301 0.50991 0.0
H308 H 0.81847 0.13401 0.58908 0.0
H309 H 0.84559 0.13241 0.63157 0.0
H310 H 0.84329 0.21334 0.63673 0.0
H311 H 0.81609 0.2148 0.59422 0.0
H312 H 0.73598 0.2387 0.45031 0.0
H313 H 0.77201 0.20863 0.46565 0.0
H314 H 0.66998 0.18181 0.45728 0.0
H315 H 0.70593 0.15182 0.4728 0.0
H316 H 0.84872 0.07077 0.4337 0.0
H317 H 0.86295 0.02684 0.50588 0.0
H318 H 0.84621 0.0618 0.53367 0.0
H319 H 0.83229 0.106 0.46189 0.0
Fe320 Fe 0.01104 0.83976 0.33828 0.0
Fe321 Fe 0.01085 0.86898 0.39216 0.0
O322 O 0.01073 0.86877 0.35618 0.0
Fe323 Fe 0.01043 0.89752 0.33814 0.0
O324 O 0.98886 0.88539 0.30983 0.0
O325 O 0.97729 0.84677 0.32123 0.0
O326 O 0.98982 0.82255 0.36375 0.0
C327 C 0.97338 0.83015 0.38256 0.0
C328 C 0.04801 0.87076 0.30666 0.0
O329 O 0.97745 0.85126 0.39357 0.0
C330 C 0.04798 0.90794 0.38243 0.0
O331 O 0.0449 0.8307 0.35378 0.0
O332 O 0.03281 0.84046 0.39552 0.0
O333 O 0.04397 0.89009 0.32101 0.0
O334 O 0.03218 0.85154 0.30949 0.0
C335 C 0.97281 0.90897 0.379 0.0
O336 O 0.04421 0.88686 0.3935 0.0
O337 O 0.03185 0.91497 0.36322 0.0
C338 C 0.04946 0.82953 0.37894 0.0
O339 O 0.989 0.89754 0.39548 0.0
O340 O 0.97687 0.90722 0.3538 0.0
C341 C 0.97287 0.86622 0.30732 0.0
Fe342 Fe 1.00792 0.1595 0.89087 0.0
Fe343 Fe 1.00874 0.13551 0.83424 0.0
O344 O 1.00836 0.16272 0.85508 0.0
Fe345 Fe 1.0085 0.1931 0.84027 0.0
O346 O 0.03022 0.20775 0.86731 0.0
O347 O 0.04168 0.17647 0.89414 0.0
O348 O 0.02909 0.1304 0.8914 0.0
C349 C 0.04567 0.12045 0.87409 0.0
C350 C 0.97047 0.20079 0.88197 0.0
O351 O 0.04219 0.12454 0.84915 0.0
C352 C 0.97125 0.16494 0.80564 0.0
O353 O 0.97413 0.14209 0.89007 0.0
O354 O 0.98701 0.11634 0.8574 0.0
O355 O 0.97484 0.20148 0.85677 0.0
O356 O 0.98671 0.18801 0.8972 0.0
C357 C 0.04649 0.16887 0.80664 0.0
O358 O 0.9754 0.14438 0.81764 0.0
O359 O 0.98699 0.1839 0.81057 0.0
C360 C 0.97048 0.12195 0.87692 0.0
O361 O 0.0305 0.14961 0.8073 0.0
O362 O 0.04209 0.18717 0.8224 0.0
C363 C 0.04649 0.19822 0.88515 0.0
Fe364 Fe 0.50902 0.34104 0.33836 0.0
Fe365 Fe 0.50929 0.36988 0.39256 0.0
O366 O 0.50939 0.36992 0.35656 0.0
Fe367 Fe 0.51005 0.39882 0.33882 0.0
O368 O 0.48834 0.38747 0.31033 0.0
O369 O 0.47569 0.3489 0.32092 0.0
O370 O 0.48699 0.3242 0.36348 0.0
C371 C 0.47068 0.33203 0.3823 0.0
C372 C 0.54716 0.37147 0.30735 0.0
O373 O 0.47535 0.35293 0.39358 0.0
C374 C 0.54779 0.40792 0.38318 0.0
O375 O 0.54245 0.33106 0.35412 0.0
O376 O 0.53025 0.34081 0.39582 0.0
O377 O 0.54345 0.39079 0.32178 0.0
O378 O 0.53083 0.35254 0.3099 0.0
C379 C 0.47262 0.41087 0.37964 0.0
O380 O 0.54322 0.38698 0.39429 0.0
O381 O 0.53186 0.4155 0.36409 0.0
C382 C 0.5467 0.32958 0.37931 0.0
O383 O 0.48839 0.39892 0.39605 0.0
O384 O 0.47669 0.40919 0.35444 0.0
C385 C 0.47193 0.36866 0.30731 0.0
Fe386 Fe 0.50861 0.66001 0.89038 0.0
Fe387 Fe 0.50911 0.63584 0.83384 0.0
O388 O 0.50856 0.66307 0.8546 0.0
Fe389 Fe 0.508 0.69332 0.83961 0.0
O390 O 0.54143 0.70233 0.85625 0.0
O391 O 0.52938 0.68887 0.8967 0.0
O392 O 0.54269 0.64314 0.89004 0.0
C393 C 0.54687 0.62304 0.877 0.0
C394 C 0.46968 0.69821 0.88425 0.0
O395 O 0.53065 0.61706 0.85737 0.0
C396 C 0.47108 0.66836 0.80559 0.0
O397 O 0.48784 0.6306 0.89072 0.0
O398 O 0.47559 0.62424 0.84827 0.0
O399 O 0.48596 0.7078 0.86643 0.0
O400 O 0.47456 0.67651 0.89331 0.0
C401 C 0.54638 0.66588 0.80568 0.0
O402 O 0.48765 0.64954 0.80643 0.0
O403 O 0.4746 0.68659 0.82169 0.0
C404 C 0.47178 0.62019 0.8732 0.0
O405 O 0.54268 0.64537 0.81794 0.0
O406 O 0.52981 0.68433 0.81004 0.0
C407 C 0.54561 0.70178 0.8815 0.0
H408 H 0.15278 0.31768 0.95415 0.0
H409 H 0.20739 0.25223 0.95629 0.0
H410 H 0.11484 0.29291 0.93265 0.0
H411 H 0.16955 0.22749 0.9347 0.0
H412 H 0.08434 0.1849 0.92518 0.0
H413 H 0.12285 0.21008 0.94497 0.0
H414 H 0.10166 0.27119 0.89134 0.0
H415 H 0.0627 0.24619 0.8719 0.0
C416 C 0.15686 0.29809 0.94971 0.0
C417 C 0.18313 0.28695 0.95709 0.0
C418 C 0.13507 0.28385 0.93737 0.0
C419 C 0.13901 0.25812 0.93204 0.0
C420 C 0.16551 0.24712 0.93897 0.0
C421 C 0.18725 0.26133 0.95133 0.0
C422 C 0.08784 0.20371 0.91758 0.0
C423 C 0.07027 0.2135 0.89698 0.0
C424 C 0.1101 0.21812 0.92883 0.0
C425 C 0.11545 0.24271 0.91977 0.0
C426 C 0.09795 0.25246 0.89908 0.0
C427 C 0.07567 0.23805 0.88782 0.0
H428 H 0.85821 0.74189 0.48513 0.0
H429 H 0.83665 0.71933 0.40349 0.0
H430 H 0.89346 0.77171 0.46736 0.0
H431 H 0.87177 0.74903 0.38579 0.0
H432 H 0.95976 0.78267 0.36529 0.0
H433 H 0.92337 0.75435 0.38337 0.0
H434 H 0.89858 0.81065 0.442 0.0
H435 H 0.93541 0.83892 0.42423 0.0
C436 C 0.86074 0.74346 0.4634 0.0
C437 C 0.84471 0.72801 0.44578 0.0
C438 C 0.88097 0.76058 0.45319 0.0
C439 C 0.88566 0.76269 0.42512 0.0
C440 C 0.8692 0.74757 0.40753 0.0
C441 C 0.84902 0.7305 0.41771 0.0
C442 C 0.94656 0.78908 0.38202 0.0
C443 C 0.95064 0.81312 0.39329 0.0
C444 C 0.92553 0.77285 0.39231 0.0
C445 C 0.90794 0.78018 0.41415 0.0
C446 C 0.91194 0.80425 0.42539 0.0
C447 C 0.93298 0.82053 0.41507 0.0
H448 H 0.85526 0.32271 0.93051 0.0
H449 H 0.83331 0.26104 0.98322 0.0
H450 H 0.89022 0.29607 0.90715 0.0
H451 H 0.86807 0.23454 0.95997 0.0
H452 H 0.95616 0.20456 0.93553 0.0
H453 H 0.91966 0.23091 0.95635 0.0
H454 H 0.89586 0.25927 0.87766 0.0
H455 H 0.93294 0.2331 0.8567 0.0
C456 C 0.85763 0.30342 0.93693 0.0
C457 C 0.84166 0.29415 0.95898 0.0
C458 C 0.87768 0.28812 0.92352 0.0
C459 C 0.88222 0.26319 0.93182 0.0
C460 C 0.86566 0.25379 0.95339 0.0
C461 C 0.84568 0.26903 0.96675 0.0
C462 C 0.94318 0.21636 0.92256 0.0
C463 C 0.9476 0.21665 0.89438 0.0
C464 C 0.92205 0.2314 0.93454 0.0
C465 C 0.90466 0.24719 0.91872 0.0
C466 C 0.90904 0.24753 0.89051 0.0
C467 C 0.93021 0.23241 0.87847 0.0
H468 H 0.15512 0.72544 0.47131 0.0
H469 H 0.21048 0.74867 0.40568 0.0
H470 H 0.11727 0.75293 0.45452 0.0
H471 H 0.1727 0.77627 0.38894 0.0
H472 H 0.08764 0.80078 0.34993 0.0
H473 H 0.12613 0.77431 0.36731 0.0
H474 H 0.10435 0.79641 0.44904 0.0
H475 H 0.06549 0.82244 0.43175 0.0
C476 C 0.15937 0.73666 0.4535 0.0
C477 C 0.18586 0.73477 0.43983 0.0
C478 C 0.13764 0.75244 0.44384 0.0
C479 C 0.14183 0.7668 0.42028 0.0
C480 C 0.16848 0.76516 0.40684 0.0
C481 C 0.19019 0.74935 0.41647 0.0
C482 C 0.09103 0.80001 0.37161 0.0
C483 C 0.07331 0.8137 0.38941 0.0
C484 C 0.11326 0.78493 0.38159 0.0
C485 C 0.1184 0.78317 0.40962 0.0
C486 C 0.10079 0.797 0.42738 0.0
C487 C 0.07856 0.81206 0.41742 0.0
H488 H 0.6386 0.80423 0.98739 0.0
H489 H 0.70174 0.78494 0.92658 0.0
H490 H 0.60285 0.77863 0.96401 0.0
H491 H 0.66581 0.75925 0.90308 0.0
H492 H 0.58445 0.73306 0.85619 0.0
H493 H 0.62038 0.76046 0.87737 0.0
H494 H 0.59391 0.73433 0.95626 0.0
H495 H 0.55792 0.70737 0.93531 0.0
C496 C 0.64491 0.79444 0.96907 0.0
C497 C 0.67318 0.79648 0.95905 0.0
C498 C 0.62438 0.77973 0.95564 0.0
C499 C 0.6315 0.76662 0.9318 0.0
C500 C 0.65952 0.76923 0.92128 0.0
C501 C 0.68012 0.78398 0.93475 0.0
C502 C 0.5863 0.73317 0.87805 0.0
C503 C 0.56811 0.71807 0.894 0.0
C504 C 0.60701 0.7488 0.89019 0.0
C505 C 0.60992 0.74977 0.91856 0.0
C506 C 0.59193 0.73444 0.93441 0.0
C507 C 0.57137 0.71882 0.92233 0.0
H508 H 0.35402 0.2439 0.48329 0.0
H509 H 0.32984 0.22492 0.40124 0.0
H510 H 0.38997 0.27335 0.46605 0.0
H511 H 0.36573 0.25422 0.38408 0.0
H512 H 0.45493 0.28554 0.3636 0.0
H513 H 0.41766 0.25782 0.38117 0.0
H514 H 0.3959 0.31309 0.44197 0.0
H515 H 0.43359 0.34077 0.42467 0.0
C516 C 0.35612 0.24619 0.46159 0.0
C517 C 0.33914 0.23184 0.44368 0.0
C518 C 0.37676 0.26309 0.4517 0.0
C519 C 0.38093 0.26605 0.42365 0.0
C520 C 0.36354 0.25206 0.40578 0.0
C521 C 0.34293 0.23523 0.41565 0.0
C522 C 0.44221 0.29186 0.3807 0.0
C523 C 0.44738 0.31543 0.39271 0.0
C524 C 0.42068 0.27599 0.39069 0.0
C525 C 0.40369 0.2832 0.41298 0.0
C526 C 0.40877 0.3068 0.42497 0.0
C527 C 0.4303 0.32274 0.41493 0.0
H528 H 0.36638 0.81895 0.95322 0.0
H529 H 0.31074 0.75402 0.95776 0.0
H530 H 0.4034 0.79351 0.93147 0.0
H531 H 0.34768 0.72859 0.93591 0.0
H532 H 0.43224 0.68527 0.92494 0.0
H533 H 0.39437 0.71083 0.94512 0.0
H534 H 0.41514 0.77124 0.89031 0.0
H535 H 0.4534 0.74592 0.87051 0.0
C536 C 0.36187 0.79932 0.94926 0.0
C537 C 0.33557 0.78855 0.95735 0.0
C538 C 0.38314 0.7847 0.93678 0.0
C539 C 0.37865 0.75892 0.932 0.0
C540 C 0.35215 0.74825 0.93971 0.0
C541 C 0.33091 0.76286 0.95222 0.0
C542 C 0.42875 0.70399 0.91716 0.0
C543 C 0.44604 0.71352 0.89615 0.0
C544 C 0.40687 0.71862 0.92863 0.0
C545 C 0.40164 0.74316 0.91939 0.0
C546 C 0.41878 0.75259 0.89823 0.0
C547 C 0.44066 0.73797 0.88676 0.0
H548 H 0.70534 0.24606 0.4106 0.0
H549 H 0.64499 0.22002 0.47092 0.0
H550 H 0.66906 0.27487 0.39311 0.0
H551 H 0.60849 0.24823 0.45293 0.0
H552 H 0.55993 0.31996 0.43228 0.0
H553 H 0.59738 0.29267 0.44995 0.0
H554 H 0.62339 0.2741 0.36833 0.0
H555 H 0.58611 0.30177 0.35054 0.0
C556 C 0.68439 0.24656 0.42023 0.0
C557 C 0.67812 0.23071 0.4422 0.0
C558 C 0.66347 0.26288 0.40999 0.0
C559 C 0.6358 0.26386 0.42155 0.0
C560 C 0.62964 0.24816 0.44367 0.0
C561 C 0.65049 0.23179 0.45383 0.0
C562 C 0.5736 0.3101 0.41803 0.0
C563 C 0.56984 0.31304 0.38993 0.0
C564 C 0.59503 0.29432 0.4282 0.0
C565 C 0.61337 0.28108 0.41059 0.0
C566 C 0.60984 0.2842 0.38249 0.0
C567 C 0.58833 0.29996 0.37228 0.0
H568 H 0.33491 0.50803 0.89754 0.0
H569 H 0.40307 0.48962 0.95356 0.0
H570 H 0.36269 0.54416 0.88183 0.0
H571 H 0.43058 0.52574 0.93806 0.0
H572 H 0.45953 0.60584 0.92501 0.0
H573 H 0.42902 0.57141 0.93989 0.0
H574 H 0.40703 0.55479 0.85675 0.0
H575 H 0.4374 0.58961 0.84172 0.0
C576 C 0.35587 0.51155 0.90639 0.0
C577 C 0.36664 0.4959 0.92694 0.0
C578 C 0.37178 0.5323 0.89739 0.0
C579 C 0.3988 0.53797 0.90878 0.0
C580 C 0.40961 0.52224 0.9292 0.0
C581 C 0.39378 0.5015 0.93812 0.0
C582 C 0.44808 0.59501 0.90982 0.0
C583 C 0.45116 0.60045 0.8821 0.0
C584 C 0.4307 0.57512 0.91839 0.0
C585 C 0.41583 0.56011 0.89952 0.0
C586 C 0.41808 0.56604 0.87184 0.0
C587 C 0.43558 0.58596 0.86322 0.0
H588 H 0.62058 0.54692 0.4389 0.0
H589 H 0.67723 0.49296 0.47617 0.0
H590 H 0.59543 0.51313 0.41555 0.0
H591 H 0.65215 0.45898 0.45252 0.0
H592 H 0.57564 0.40532 0.43225 0.0
H593 H 0.60634 0.43733 0.45301 0.0
H594 H 0.59979 0.48229 0.38062 0.0
H595 H 0.5686 0.45074 0.36025 0.0
C596 C 0.62804 0.52787 0.44171 0.0
C597 C 0.65096 0.52269 0.4594 0.0
C598 C 0.6136 0.50842 0.42829 0.0
C599 C 0.62174 0.48325 0.43209 0.0
C600 C 0.64502 0.47809 0.44941 0.0
C601 C 0.65944 0.49757 0.46292 0.0
C602 C 0.58104 0.4219 0.42067 0.0
C603 C 0.56935 0.42559 0.39472 0.0
C604 C 0.59874 0.44025 0.43253 0.0
C605 C 0.60528 0.4626 0.41864 0.0
C606 C 0.59468 0.46563 0.39218 0.0
C607 C 0.57689 0.44743 0.38043 0.0
H608 H 0.6194 0.48456 0.9345 0.0
H609 H 0.69254 0.53464 0.93879 0.0
H610 H 0.58958 0.51879 0.91786 0.0
H611 H 0.66258 0.56902 0.9218 0.0
H612 H 0.58635 0.62783 0.9185 0.0
H613 H 0.61877 0.59542 0.93596 0.0
H614 H 0.58783 0.54371 0.87501 0.0
H615 H 0.55572 0.57571 0.85759 0.0
C616 C 0.62906 0.50295 0.93207 0.0
C617 C 0.65834 0.50688 0.93796 0.0
C618 C 0.61203 0.52251 0.92232 0.0
C619 C 0.62377 0.54657 0.91838 0.0
C620 C 0.65292 0.5507 0.92473 0.0
C621 C 0.6701 0.53099 0.93423 0.0
C622 C 0.58663 0.6096 0.90872 0.0
C623 C 0.56822 0.60438 0.88675 0.0
C624 C 0.60526 0.59108 0.91868 0.0
C625 C 0.60559 0.56694 0.90704 0.0
C626 C 0.58773 0.56199 0.8847 0.0
C627 C 0.56941 0.58045 0.87463 0.0
H628 H 0.35255 0.50027 0.47616 0.0
H629 H 0.39776 0.5528 0.42492 0.0
H630 H 0.37552 0.46543 0.45247 0.0
H631 H 0.42064 0.51791 0.40114 0.0
H632 H 0.4439 0.44803 0.35219 0.0
H633 H 0.41343 0.48098 0.37141 0.0
H634 H 0.42459 0.44913 0.45102 0.0
H635 H 0.4546 0.4162 0.43193 0.0
C636 C 0.36731 0.50439 0.45977 0.0
C637 C 0.37354 0.52937 0.45266 0.0
C638 C 0.38046 0.48441 0.44618 0.0
C639 C 0.40014 0.48886 0.42507 0.0
C640 C 0.40538 0.51379 0.41713 0.0
C641 C 0.39225 0.53382 0.43077 0.0
C642 C 0.43954 0.44788 0.37374 0.0
C643 C 0.45186 0.42952 0.39053 0.0
C644 C 0.42223 0.46687 0.38477 0.0
C645 C 0.41663 0.46775 0.41277 0.0
C646 C 0.42816 0.44888 0.42934 0.0
C647 C 0.44557 0.43006 0.41839 0.0
H648 H 0.82809 0.03027 0.94099 0.0
H649 H 0.90156 0.98126 0.93318 0.0
H650 H 0.85694 0.06531 0.92365 0.0
H651 H 0.93035 1.01618 0.91626 0.0
H652 H 0.96198 0.07477 0.85675 0.0
H653 H 0.93087 0.04191 0.87427 0.0
H654 H 0.90029 0.09219 0.93663 0.0
H655 H 0.93163 0.12546 0.91904 0.0
C656 C 0.85037 0.02699 0.93558 0.0
C657 C 0.86253 1.00297 0.93842 0.0
C658 C 0.86693 0.04708 0.92588 0.0
C659 C 0.89587 0.04348 0.91846 0.0
C660 C 0.90802 0.01951 0.92152 0.0
C661 C 0.89161 0.99954 0.93146 0.0
C662 C 0.94856 0.07901 0.87411 0.0
C663 C 0.94954 0.1028 0.88659 0.0
C664 C 0.93083 0.06005 0.88425 0.0
C665 C 0.91338 0.06434 0.90702 0.0
C666 C 0.91348 0.08835 0.919 0.0
C667 C 0.93148 0.10737 0.90897 0.0
H668 H 0.16333 0.0337 0.42193 0.0
H669 H 0.12622 1.00871 0.49745 0.0
H670 H 0.13981 0.99886 0.39836 0.0
H671 H 0.10293 0.97396 0.47398 0.0
H672 H 0.08108 0.90277 0.42823 0.0
H673 H 0.11121 0.93462 0.44996 0.0
H674 H 0.09112 0.98663 0.38582 0.0
H675 H 0.06152 0.9548 0.36388 0.0
C676 C 0.15017 0.02081 0.43352 0.0
C677 C 0.1467 0.02408 0.46162 0.0
C678 C 0.13672 1.0008 0.42001 0.0
C679 C 0.11947 0.98356 0.43426 0.0
C680 C 0.11645 0.98658 0.46242 0.0
C681 C 0.12985 1.00657 0.4759 0.0
C682 C 0.08337 0.92089 0.41858 0.0
C683 C 0.06865 0.92623 0.39439 0.0
C684 C 0.1005 0.93922 0.43115 0.0
C685 C 0.10343 0.96328 0.41977 0.0
C686 C 0.0896 0.96826 0.39505 0.0
C687 C 0.07244 0.95 0.38254 0.0
H688 H 0.11764 0.99139 0.95424 0.0
H689 H 0.18574 1.01221 0.899 0.0
H690 H 0.08913 0.0268 0.93882 0.0
H691 H 0.15699 0.04767 0.8834 0.0
H692 H 0.08147 0.09113 0.84286 0.0
H693 H 0.11276 0.05714 0.85799 0.0
H694 H 0.08891 0.0724 0.94096 0.0
H695 H 0.05743 0.10599 0.92595 0.0
C696 C 0.1267 1.00366 0.93901 0.0
C697 C 0.15411 0.99895 0.928 0.0
C698 C 0.11031 0.024 0.93013 0.0
C699 C 0.12081 0.0402 0.90995 0.0
C700 C 0.14812 0.03542 0.89877 0.0
C701 C 0.16459 1.01507 0.90771 0.0
C702 C 0.08305 0.08735 0.86434 0.0
C703 C 0.06669 0.1012 0.88314 0.0
C704 C 0.10109 0.06791 0.87303 0.0
C705 C 0.10313 0.06185 0.90068 0.0
C706 C 0.08743 0.07622 0.91948 0.0
C707 C 0.06949 0.09563 0.91084 0.0
H708 H 0.89381 0.04907 0.42403 0.0
H709 H 0.84825 0.99537 0.47359 0.0
H710 H 0.91798 1.01475 0.40045 0.0
H711 H 0.87264 0.96111 0.45017 0.0
H712 H 0.95397 0.91379 0.4311 0.0
H713 H 0.92262 0.94599 0.44985 0.0
H714 H 0.91178 0.97776 0.37017 0.0
H715 H 0.94347 0.94553 0.3513 0.0
C716 C 0.88849 0.02995 0.42954 0.0
C717 C 0.86929 0.02502 0.45093 0.0
C718 C 0.90238 1.01026 0.41602 0.0
C719 C 0.89745 0.9852 0.42361 0.0
C720 C 0.87731 0.98023 0.44417 0.0
C721 C 0.86336 0.99988 0.45762 0.0
C722 C 0.94472 0.92748 0.41748 0.0
C723 C 0.95142 0.92714 0.38971 0.0
C724 C 0.92657 0.94586 0.42822 0.0
C725 C 0.91474 0.96449 0.41152 0.0
C726 C 0.92078 0.9638 0.38361 0.0
C727 C 0.9388 0.94524 0.37279 0.0
H728 H 0.40597 0.41303 0.15441 0.0
H729 H 0.35388 0.3471 0.1685 0.0
H730 H 0.42868 0.40785 0.19824 0.0
H731 H 0.37661 0.34196 0.21299 0.0
H732 H 0.45047 0.32911 0.27733 0.0
H733 H 0.42226 0.33177 0.23546 0.0
H734 H 0.41738 0.41229 0.24512 0.0
H735 H 0.44611 0.40966 0.28613 0.0
C736 C 0.39906 0.39758 0.16707 0.0
C737 C 0.37779 0.3807 0.15807 0.0
C738 C 0.41208 0.39461 0.1923 0.0
C739 C 0.40416 0.37472 0.20945 0.0
C740 C 0.38327 0.35746 0.20029 0.0
C741 C 0.37024 0.3604 0.17483 0.0
C742 C 0.44291 0.34729 0.27067 0.0
C743 C 0.45085 0.36922 0.28479 0.0
C744 C 0.42674 0.34883 0.2467 0.0
C745 C 0.41807 0.37231 0.23656 0.0
C746 C 0.42442 0.39397 0.25182 0.0
C747 C 0.44074 0.39246 0.27547 0.0
H748 H 0.69252 0.65727 0.69278 0.0
H749 H 0.61993 0.68392 0.64654 0.0
H750 H 0.66265 0.65665 0.73369 0.0
H751 H 0.5901 0.68303 0.6872 0.0
H752 H 0.554 0.70422 0.76972 0.0
H753 H 0.58655 0.70583 0.73112 0.0
H754 H 0.61984 0.63284 0.752 0.0
H755 H 0.58723 0.63115 0.79087 0.0
C756 C 0.67024 0.66309 0.69139 0.0
C757 C 0.65858 0.67062 0.66643 0.0
C758 C 0.65309 0.66254 0.71475 0.0
C759 C 0.62403 0.66984 0.71369 0.0
C760 C 0.61248 0.67753 0.68875 0.0
C761 C 0.6295 0.67782 0.66541 0.0
C762 C 0.56836 0.68854 0.76628 0.0
C763 C 0.56781 0.66747 0.78338 0.0
C764 C 0.58692 0.68943 0.74402 0.0
C765 C 0.6056 0.66938 0.73836 0.0
C766 C 0.60578 0.64864 0.7559 0.0
C767 C 0.58701 0.64764 0.77811 0.0
H768 H 0.68007 0.40468 0.18598 0.0
H769 H 0.61474 0.36059 0.14545 0.0
H770 H 0.65495 0.39904 0.22898 0.0
H771 H 0.58961 0.35504 0.18827 0.0
H772 H 0.56079 0.33354 0.27212 0.0
H773 H 0.59153 0.33565 0.23224 0.0
H774 H 0.61106 0.41322 0.25047 0.0
H775 H 0.58081 0.41098 0.29073 0.0
C776 C 0.66037 0.39375 0.18624 0.0
C777 C 0.6494 0.38315 0.16221 0.0
C778 C 0.64594 0.39054 0.2109 0.0
C779 C 0.62016 0.37666 0.21214 0.0
C780 C 0.60962 0.36552 0.18821 0.0
C781 C 0.62406 0.3687 0.16359 0.0
C782 C 0.57186 0.351 0.26782 0.0
C783 C 0.5681 0.37215 0.28459 0.0
C784 C 0.58937 0.35224 0.24481 0.0
C785 C 0.60359 0.37467 0.23793 0.0
C786 C 0.60067 0.39556 0.25524 0.0
C787 C 0.58317 0.39431 0.2783 0.0
H788 H 0.34917 0.6406 0.67389 0.0
H789 H 0.37929 0.7165 0.66182 0.0
H790 H 0.37645 0.6383 0.71596 0.0
H791 H 0.40678 0.71417 0.70387 0.0
H792 H 0.43633 0.70821 0.79195 0.0
H793 H 0.40393 0.71138 0.75307 0.0
H794 H 0.42612 0.63577 0.72922 0.0
H795 H 0.45781 0.6324 0.7681 0.0
C796 C 0.36171 0.65678 0.68016 0.0
C797 C 0.36219 0.67867 0.66434 0.0
C798 C 0.37736 0.65547 0.70431 0.0
C799 C 0.39401 0.67599 0.71328 0.0
C800 C 0.39393 0.69811 0.6978 0.0
C801 C 0.3782 0.69944 0.67364 0.0
C802 C 0.43406 0.69219 0.77855 0.0
C803 C 0.4498 0.67008 0.78317 0.0
C804 C 0.41563 0.69407 0.75614 0.0
C805 C 0.41242 0.67385 0.73793 0.0
C806 C 0.4277 0.65161 0.74296 0.0
C807 C 0.44609 0.64974 0.76524 0.0
H808 H 0.84301 0.90164 0.18575 0.0
H809 H 0.89785 0.84533 0.14961 0.0
H810 H 0.86727 0.89592 0.22906 0.0
H811 H 0.92186 0.83941 0.19314 0.0
H812 H 0.94848 0.82549 0.28153 0.0
H813 H 0.91649 0.82603 0.24199 0.0
H814 H 0.91673 0.90707 0.24382 0.0
H815 H 0.94844 0.90657 0.28301 0.0
C816 C 0.8601 0.88791 0.18706 0.0
C817 C 0.86874 0.87423 0.16404 0.0
C818 C 0.87395 0.88459 0.21192 0.0
C819 C 0.8967 0.86741 0.21446 0.0
C820 C 0.90427 0.85266 0.19189 0.0
C821 C 0.89047 0.85606 0.16693 0.0
C822 C 0.94133 0.84338 0.27369 0.0
C823 C 0.95111 0.866 0.28533 0.0
C824 C 0.92318 0.84369 0.25096 0.0
C825 C 0.91409 0.86659 0.23977 0.0
C826 C 0.92306 0.88911 0.2521 0.0
C827 C 0.94141 0.88881 0.27448 0.0
H828 H 0.17582 0.20972 0.68397 0.0
H829 H 0.12849 0.14606 0.65245 0.0
H830 H 0.14878 0.20699 0.72623 0.0
H831 H 0.10036 0.14438 0.69374 0.0
H832 H 0.07103 0.1306 0.77837 0.0
H833 H 0.10315 0.13322 0.73962 0.0
H834 H 0.10243 0.21419 0.74562 0.0
H835 H 0.07106 0.21142 0.78525 0.0
C836 C 0.1597 0.19513 0.686 0.0
C837 C 0.1544 0.17813 0.66465 0.0
C838 C 0.14391 0.19377 0.71016 0.0
C839 C 0.12235 0.17543 0.71357 0.0
C840 C 0.11708 0.1585 0.69217 0.0
C841 C 0.13296 0.15974 0.66818 0.0
C842 C 0.07793 0.14897 0.77158 0.0
C843 C 0.06828 0.17081 0.78476 0.0
C844 C 0.09621 0.15051 0.74918 0.0
C845 C 0.10506 0.17394 0.73905 0.0
C846 C 0.09626 0.1958 0.75288 0.0
C847 C 0.07818 0.19424 0.77558 0.0
H848 H 0.17563 0.90707 0.18122 0.0
H849 H 0.11335 0.85737 0.14415 0.0
H850 H 0.15189 0.90171 0.22495 0.0
H851 H 0.08951 0.85217 0.18767 0.0
H852 H 0.06368 0.83246 0.27271 0.0
H853 H 0.09346 0.83482 0.23221 0.0
H854 H 0.10787 0.91383 0.24711 0.0
H855 H 0.07867 0.91133 0.28802 0.0
C856 C 0.15688 0.89498 0.1824 0.0
C857 C 0.14639 0.88268 0.15914 0.0
C858 C 0.14323 0.89194 0.20748 0.0
C859 C 0.11869 0.87657 0.20991 0.0
C860 C 0.10862 0.86383 0.18673 0.0
C861 C 0.12231 0.86681 0.16171 0.0
C862 C 0.07343 0.8503 0.26753 0.0
C863 C 0.06854 0.87175 0.28358 0.0
C864 C 0.09039 0.85169 0.24416 0.0
C865 C 0.10286 0.87457 0.23614 0.0
C866 C 0.09885 0.89582 0.25274 0.0
C867 C 0.08196 0.89442 0.27619 0.0
H868 H 0.83896 0.14134 0.68085 0.0
H869 H 0.89252 0.20199 0.6521 0.0
H870 H 0.86692 0.13975 0.72266 0.0
H871 H 0.9209 0.20011 0.6935 0.0
H872 H 0.95156 0.20676 0.77973 0.0
H873 H 0.91996 0.20888 0.74051 0.0
H874 H 0.91258 0.12799 0.74022 0.0
H875 H 0.94343 0.12597 0.78008 0.0
C876 C 0.85686 0.15421 0.68339 0.0
C877 C 0.86347 0.17183 0.66317 0.0
C878 C 0.87295 0.15329 0.70736 0.0
C879 C 0.89622 0.16983 0.71162 0.0
C880 C 0.9028 0.18741 0.69129 0.0
C881 C 0.88658 0.18846 0.66745 0.0
C882 C 0.94302 0.18942 0.77145 0.0
C883 C 0.95019 0.16619 0.78302 0.0
C884 C 0.92503 0.19062 0.74877 0.0
C885 C 0.91389 0.16859 0.73688 0.0
C886 C 0.92046 0.14538 0.74892 0.0
C887 C 0.93829 0.1442 0.77176 0.0
loop_
_geom_bond_atom_site_label_1
_geom_bond_atom_site_label_2
_geom_bond_distance
_geom_bond_site_symmetry_2
_ccdc_geom_bond_type
C0 C1 1.264 . S
C0 C5 1.479 . S
C0 C10 1.465 . S
C1 C0 1.264 . S
C1 C3 1.339 . S
C1 H28 0.961 . S
C2 C3 1.395 . S
C2 C4 1.320 . S
C3 C1 1.339 . S
C3 C2 1.395 . S
C3 H29 0.929 . S
C4 C2 1.320 . S
C4 C5 1.405 . S
C4 H30 0.930 . S
C5 C0 1.479 . S
C5 C4 1.405 . S
C5 H31 0.931 . S
U6 O7 2.454 1_554 S
U6 O8 2.458 . S
U6 C9 2.984 1_554 S
U6 C10 2.847 1_554 S
U6 C23 2.882 . S
U6 O24 2.441 1_554 S
U6 O25 2.420 . S
U6 O26 2.455 . S
U6 O27 2.449 . S
O7 U6 2.454 1_556 S
O7 C9 1.353 . S
O8 U6 2.458 . S
O8 C9 1.286 1_554 S
C9 U6 2.984 1_556 S
C9 O7 1.353 . S
C9 O8 1.286 1_556 S
C9 C11 1.363 . S
C10 C0 1.465 . S
C10 U6 2.847 1_556 S
C10 O24 1.249 . S
C10 O25 1.202 1_556 S
C11 C9 1.363 . S
C11 C13 1.408 . S
C11 C16 1.342 . S
C12 C13 1.310 . S
C12 C15 1.461 . S
C12 H32 0.932 . S
C13 C11 1.408 . S
C13 C12 1.310 . S
C13 H33 0.930 . S
C14 C15 1.474 . S
C14 C16 1.285 . S
C14 H34 0.929 . S
C15 C12 1.461 . S
C15 C14 1.474 . S
C16 C11 1.342 . S
C16 C14 1.285 . S
C16 H35 0.930 1_556 S
C17 C20 1.424 . S
C17 C22 1.245 . S
C17 C23 1.428 . S
C18 C21 1.260 . S
C18 C22 1.477 . S
C18 H36 0.932 . S
C19 C20 1.384 . S
C19 C21 1.479 . S
C19 H37 0.929 . S
C20 C17 1.424 . S
C20 C19 1.384 . S
C20 H38 0.928 . S
C21 C18 1.260 . S
C21 C19 1.479 . S
C22 C17 1.245 . S
C22 C18 1.477 . S
C22 H39 0.932 . S
C23 U6 2.882 . S
C23 C17 1.428 . S
C23 O26 1.301 . S
C23 O27 1.282 . S
O24 U6 2.441 1_556 S
O24 C10 1.249 . S
O25 U6 2.420 . S
O25 C10 1.202 1_554 S
O26 U6 2.455 . S
O26 C23 1.301 . S
O27 U6 2.449 . S
O27 C23 1.282 . S
H28 C1 0.961 . S
H29 C3 0.929 . S
H30 C4 0.930 . S
H31 C5 0.931 . S
H32 C12 0.932 . S
H33 C13 0.930 . S
H34 C14 0.929 . S
H35 C16 0.930 1_554 S
H36 C18 0.932 . S
H37 C19 0.929 . S
H38 C20 0.928 . S
H39 C22 0.932 . S
C40 C41 1.264 . S
C40 C45 1.479 . S
C40 C50 1.465 . S
C41 C40 1.264 . S
C41 C43 1.339 . S
C41 H68 0.931 . S
C42 C43 1.395 . S
C42 C44 1.320 . S
C43 C41 1.339 . S
C43 C42 1.395 . S
C43 H69 0.929 . S
C44 C42 1.320 . S
C44 C45 1.405 . S
C44 H70 0.930 . S
C45 C40 1.479 . S
C45 C44 1.405 . S
C45 H71 0.931 . S
U46 O47 2.454 . S
U46 O48 2.458 . S
U46 C49 2.984 . S
U46 C50 2.847 . S
U46 C63 2.882 . S
U46 O64 2.441 . S
U46 O65 2.420 . S
U46 O66 2.455 . S
U46 O67 2.449 . S
O47 U46 2.454 . S
O47 C49 1.353 . S
O48 U46 2.458 . S
O48 C49 1.286 . S
C49 U46 2.984 . S
C49 O47 1.353 . S
C49 O48 1.286 . S
C49 C51 1.363 . S
C50 C40 1.465 . S
C50 U46 2.847 . S
C50 O64 1.249 . S
C50 O65 1.202 . S
C51 C49 1.363 . S
C51 C53 1.408 . S
C51 C56 1.342 . S
C52 C53 1.310 . S
C52 C55 1.461 . S
C52 H72 0.932 . S
C53 C51 1.408 . S
C53 C52 1.310 . S
C53 H73 0.930 . S
C54 C55 1.474 . S
C54 C56 1.285 . S
C54 H74 0.929 . S
C55 C52 1.461 . S
C55 C54 1.474 . S
C56 C51 1.342 . S
C56 C54 1.285 . S
C56 H75 0.930 . S
C57 C60 1.424 . S
C57 C62 1.245 . S
C57 C63 1.428 . S
C58 C61 1.260 . S
C58 C62 1.477 . S
C58 H76 0.932 . S
C59 C60 1.384 . S
C59 C61 1.479 . S
C59 H77 0.929 . S
C60 C57 1.424 . S
C60 C59 1.384 . S
C60 H78 0.928 . S
C61 C58 1.260 . S
C61 C59 1.479 . S
C62 C57 1.245 . S
C62 C58 1.477 . S
C62 H79 0.932 . S
C63 U46 2.882 . S
C63 C57 1.428 . S
C63 O66 1.301 . S
C63 O67 1.282 . S
O64 U46 2.441 . S
O64 C50 1.249 . S
O65 U46 2.420 . S
O65 C50 1.202 . S
O66 U46 2.455 . S
O66 C63 1.301 . S
O67 U46 2.449 . S
O67 C63 1.282 . S
H68 C41 0.931 . S
H69 C43 0.929 . S
H70 C44 0.930 . S
H71 C45 0.931 . S
H72 C52 0.932 . S
H73 C53 0.930 . S
H74 C54 0.929 . S
H75 C56 0.930 . S
H76 C58 0.932 . S
H77 C59 0.929 . S
H78 C60 0.928 . S
H79 C62 0.932 . S
C80 C81 1.264 . S
C80 C85 1.479 . S
C80 C90 1.465 . S
C81 C80 1.264 . S
C81 C83 1.339 . S
C81 H108 0.931 . S
C82 C83 1.395 . S
C82 C84 1.320 . S
C83 C81 1.339 . S
C83 C82 1.395 . S
C83 H109 0.929 . S
C84 C82 1.320 . S
C84 C85 1.405 . S
C84 H110 0.930 . S
C85 C80 1.479 . S
C85 C84 1.405 . S
C85 H111 0.931 . S
U86 O87 2.454 . S
U86 O88 2.458 1_556 S
U86 C89 2.984 . S
U86 C90 2.847 . S
U86 C103 2.882 1_556 S
U86 O104 2.441 . S
U86 O105 2.420 . S
U86 O106 2.455 1_556 S
U86 O107 2.449 1_556 S
O87 U86 2.454 . S
O87 C89 1.353 . S
O88 U86 2.458 1_554 S
O88 C89 1.286 1_554 S
C89 U86 2.984 . S
C89 O87 1.353 . S
C89 O88 1.286 1_556 S
C89 C91 1.363 . S
C90 C80 1.465 . S
C90 U86 2.847 . S
C90 O104 1.249 . S
C90 O105 1.202 . S
C91 C89 1.363 . S
C91 C93 1.408 . S
C91 C96 1.342 . S
C92 C93 1.310 . S
C92 C95 1.461 . S
C92 H112 0.932 . S
C93 C91 1.408 . S
C93 C92 1.310 . S
C93 H113 0.930 . S
C94 C95 1.474 . S
C94 C96 1.285 . S
C94 H114 0.929 . S
C95 C92 1.461 . S
C95 C94 1.474 . S
C96 C91 1.342 . S
C96 C94 1.285 . S
C96 H115 0.930 1_556 S
C97 C100 1.424 . S
C97 C102 1.245 . S
C97 C103 1.428 . S
C98 C101 1.260 . S
C98 C102 1.477 . S
C98 H116 0.932 . S
C99 C100 1.384 . S
C99 C101 1.479 . S
C99 H117 0.929 . S
C100 C97 1.424 . S
C100 C99 1.384 . S
C100 H118 0.928 . S
C101 C98 1.260 . S
C101 C99 1.479 . S
C102 C97 1.245 . S
C102 C98 1.477 . S
C102 H119 0.932 . S
C103 U86 2.882 1_554 S
C103 C97 1.428 . S
C103 O106 1.301 . S
C103 O107 1.282 . S
O104 U86 2.441 . S
O104 C90 1.249 . S
O105 U86 2.420 . S
O105 C90 1.202 . S
O106 U86 2.455 1_554 S
O106 C103 1.301 . S
O107 U86 2.449 1_554 S
O107 C103 1.282 . S
H108 C81 0.931 . S
H109 C83 0.929 . S
H110 C84 0.930 . S
H111 C85 0.931 . S
H112 C92 0.932 . S
H113 C93 0.930 . S
H114 C94 0.929 . S
H115 C96 0.930 1_554 S
H116 C98 0.932 . S
H117 C99 0.929 . S
H118 C100 0.928 . S
H119 C102 0.932 . S
C120 C121 1.264 . S
C120 C125 1.479 . S
C120 C130 1.465 . S
C121 C120 1.264 . S
C121 C123 1.339 . S
C121 H148 0.931 . S
C122 C123 1.395 . S
C122 C124 1.320 . S
C123 C121 1.339 . S
C123 C122 1.395 . S
C123 H149 0.929 . S
C124 C122 1.320 . S
C124 C125 1.405 . S
C124 H150 0.930 . S
C125 C120 1.479 . S
C125 C124 1.405 . S
C125 H151 0.931 . S
U126 O127 2.454 . S
U126 O128 2.458 . S
U126 C129 2.984 . S
U126 C130 2.847 . S
U126 C143 2.882 . S
U126 O144 2.441 . S
U126 O145 2.420 . S
U126 O146 2.455 . S
U126 O147 2.449 . S
O127 U126 2.454 . S
O127 C129 1.353 . S
O128 U126 2.458 . S
O128 C129 1.286 . S
C129 U126 2.984 . S
C129 O127 1.353 . S
C129 O128 1.286 . S
C129 C131 1.363 . S
C130 C120 1.465 . S
C130 U126 2.847 . S
C130 O144 1.249 . S
C130 O145 1.202 . S
C131 C129 1.363 . S
C131 C133 1.408 . S
C131 C136 1.342 . S
C132 C133 1.310 . S
C132 C135 1.461 . S
C132 H152 0.932 . S
C133 C131 1.408 . S
C133 C132 1.310 . S
C133 H153 0.930 . S
C134 C135 1.474 . S
C134 C136 1.285 . S
C134 H154 0.929 . S
C135 C132 1.461 . S
C135 C134 1.474 . S
C136 C131 1.342 . S
C136 C134 1.285 . S
C136 H155 0.930 . S
C137 C140 1.424 . S
C137 C142 1.245 . S
C137 C143 1.428 . S
C138 C141 1.260 . S
C138 C142 1.477 . S
C138 H156 0.932 . S
C139 C140 1.384 . S
C139 C141 1.479 . S
C139 H157 0.929 . S
C140 C137 1.424 . S
C140 C139 1.384 . S
C140 H158 0.928 . S
C141 C138 1.260 . S
C141 C139 1.479 . S
C142 C137 1.245 . S
C142 C138 1.477 . S
C142 H159 0.932 . S
C143 U126 2.882 . S
C143 C137 1.428 . S
C143 O146 1.301 . S
C143 O147 1.282 . S
O144 U126 2.441 . S
O144 C130 1.249 . S
O145 U126 2.420 . S
O145 C130 1.202 . S
O146 U126 2.455 . S
O146 C143 1.301 . S
O147 U126 2.449 . S
O147 C143 1.282 . S
H148 C121 0.931 . S
H149 C123 0.929 . S
H150 C124 0.930 . S
H151 C125 0.931 . S
H152 C132 0.932 . S
H153 C133 0.930 . S
H154 C134 0.929 . S
H155 C136 0.930 . S
H156 C138 0.932 . S
H157 C139 0.929 . S
H158 C140 0.928 . S
H159 C142 0.932 . S
C160 C161 1.264 . S
C160 C165 1.479 . S
C160 C170 1.465 . S
C161 C160 1.264 . S
C161 C163 1.339 . S
C161 H188 0.962 . S
C162 C163 1.395 . S
C162 C164 1.320 . S
C163 C161 1.339 . S
C163 C162 1.395 . S
C163 H189 0.929 1_565 S
C164 C162 1.320 . S
C164 C165 1.405 . S
C164 H190 0.930 . S
C165 C160 1.479 . S
C165 C164 1.405 . S
C165 H191 0.931 . S
U166 O167 2.454 1_554 S
U166 O168 2.458 . S
U166 C169 2.984 1_554 S
U166 C170 2.847 1_554 S
U166 C183 2.882 . S
U166 O184 2.441 1_554 S
U166 O185 2.420 . S
U166 O186 2.455 . S
U166 O187 2.449 . S
O167 U166 2.454 1_556 S
O167 C169 1.353 . S
O168 U166 2.458 . S
O168 C169 1.286 1_554 S
C169 U166 2.984 1_556 S
C169 O167 1.353 . S
C169 O168 1.286 1_556 S
C169 C171 1.363 . S
C170 C160 1.465 . S
C170 U166 2.847 1_556 S
C170 O184 1.249 . S
C170 O185 1.202 1_556 S
C171 C169 1.363 . S
C171 C173 1.408 . S
C171 C176 1.342 . S
C172 C173 1.310 . S
C172 C175 1.461 . S
C172 H192 0.932 . S
C173 C171 1.408 . S
C173 C172 1.310 . S
C173 H193 0.930 . S
C174 C175 1.474 . S
C174 C176 1.285 . S
C174 H194 0.929 . S
C175 C172 1.461 . S
C175 C174 1.474 . S
C176 C171 1.342 . S
C176 C174 1.285 . S
C176 H195 0.930 1_556 S
C177 C180 1.424 . S
C177 C182 1.245 . S
C177 C183 1.428 . S
C178 C181 1.260 . S
C178 C182 1.477 . S
C178 H196 0.932 . S
C179 C180 1.384 . S
C179 C181 1.479 . S
C179 H197 0.929 . S
C180 C177 1.424 . S
C180 C179 1.384 . S
C180 H198 0.928 . S
C181 C178 1.260 . S
C181 C179 1.479 . S
C182 C177 1.245 . S
C182 C178 1.477 . S
C182 H199 0.932 . S
C183 U166 2.882 . S
C183 C177 1.428 . S
C183 O186 1.301 . S
C183 O187 1.282 . S
O184 U166 2.441 1_556 S
O184 C170 1.249 . S
O185 U166 2.420 . S
O185 C170 1.202 1_554 S
O186 U166 2.455 . S
O186 C183 1.301 . S
O187 U166 2.449 . S
O187 C183 1.282 . S
H188 C161 0.962 . S
H189 C163 0.929 1_545 S
H190 C164 0.930 . S
H191 C165 0.931 . S
H192 C172 0.932 . S
H193 C173 0.930 . S
H194 C174 0.929 . S
H195 C176 0.930 1_554 S
H196 C178 0.932 . S
H197 C179 0.929 . S
H198 C180 0.928 . S
H199 C182 0.932 . S
C200 C201 1.264 . S
C200 C205 1.479 . S
C200 C210 1.465 . S
C201 C200 1.264 . S
C201 C203 1.339 . S
C201 H228 0.931 . S
C202 C203 1.395 . S
C202 C204 1.320 . S
C203 C201 1.339 . S
C203 C202 1.395 . S
C203 H229 0.929 . S
C204 C202 1.320 . S
C204 C205 1.405 . S
C204 H230 0.930 . S
C205 C200 1.479 . S
C205 C204 1.405 . S
C205 H231 0.931 . S
U206 O207 2.454 . S
U206 O208 2.458 . S
U206 C209 2.984 . S
U206 C210 2.847 . S
U206 C223 2.882 . S
U206 O224 2.441 . S
U206 O225 2.420 . S
U206 O226 2.455 . S
U206 O227 2.449 . S
O207 U206 2.454 . S
O207 C209 1.353 . S
O208 U206 2.458 . S
O208 C209 1.286 . S
C209 U206 2.984 . S
C209 O207 1.353 . S
C209 O208 1.286 . S
C209 C211 1.363 . S
C210 C200 1.465 . S
C210 U206 2.847 . S
C210 O224 1.249 . S
C210 O225 1.202 . S
C211 C209 1.363 . S
C211 C213 1.408 . S
C211 C216 1.342 . S
C212 C213 1.310 . S
C212 C215 1.461 . S
C212 H232 0.932 . S
C213 C211 1.408 . S
C213 C212 1.310 . S
C213 H233 0.930 . S
C214 C215 1.474 . S
C214 C216 1.285 . S
C214 H234 0.929 . S
C215 C212 1.461 . S
C215 C214 1.474 . S
C216 C211 1.342 . S
C216 C214 1.285 . S
C216 H235 0.930 . S
C217 C220 1.424 . S
C217 C222 1.245 . S
C217 C223 1.428 . S
C218 C221 1.260 . S
C218 C222 1.477 . S
C218 H236 0.932 . S
C219 C220 1.384 . S
C219 C221 1.479 . S
C219 H237 0.929 . S
C220 C217 1.424 . S
C220 C219 1.384 . S
C220 H238 0.928 . S
C221 C218 1.260 . S
C221 C219 1.479 . S
C222 C217 1.245 . S
C222 C218 1.477 . S
C222 H239 0.932 . S
C223 U206 2.882 . S
C223 C217 1.428 . S
C223 O226 1.301 . S
C223 O227 1.282 . S
O224 U206 2.441 . S
O224 C210 1.249 . S
O225 U206 2.420 . S
O225 C210 1.202 . S
O226 U206 2.455 . S
O226 C223 1.301 . S
O227 U206 2.449 . S
O227 C223 1.282 . S
H228 C201 0.931 . S
H229 C203 0.929 . S
H230 C204 0.930 . S
H231 C205 0.931 . S
H232 C212 0.932 . S
H233 C213 0.930 . S
H234 C214 0.929 . S
H235 C216 0.930 . S
H236 C218 0.932 . S
H237 C219 0.929 . S
H238 C220 0.928 . S
H239 C222 0.932 . S
C240 C241 1.264 . S
C240 C245 1.479 . S
C240 C250 1.465 . S
C241 C240 1.264 . S
C241 C243 1.339 . S
C241 H268 0.931 . S
C242 C243 1.395 . S
C242 C244 1.320 . S
C243 C241 1.339 . S
C243 C242 1.395 . S
C243 H269 0.929 . S
C244 C242 1.320 . S
C244 C245 1.405 . S
C244 H270 0.930 . S
C245 C240 1.479 . S
C245 C244 1.405 . S
C245 H271 0.931 . S
U246 O247 2.454 . S
U246 O248 2.458 1_556 S
U246 C249 2.984 . S
U246 C250 2.847 . S
U246 C263 2.883 1_556 S
U246 O264 2.441 . S
U246 O265 2.420 . S
U246 O266 2.455 1_556 S
U246 O267 2.449 1_556 S
O247 U246 2.454 . S
O247 C249 1.353 . S
O248 U246 2.458 1_554 S
O248 C249 1.286 1_554 S
C249 U246 2.984 . S
C249 O247 1.353 . S
C249 O248 1.286 1_556 S
C249 C251 1.363 . S
C250 C240 1.465 . S
C250 U246 2.847 . S
C250 O264 1.249 . S
C250 O265 1.202 . S
C251 C249 1.363 . S
C251 C253 1.408 . S
C251 C256 1.342 . S
C252 C253 1.310 . S
C252 C255 1.461 . S
C252 H272 0.932 . S
C253 C251 1.408 . S
C253 C252 1.310 . S
C253 H273 0.930 . S
C254 C255 1.474 . S
C254 C256 1.285 . S
C254 H274 0.929 . S
C255 C252 1.461 . S
C255 C254 1.474 . S
C256 C251 1.342 . S
C256 C254 1.285 . S
C256 H275 0.930 1_556 S
C257 C260 1.424 . S
C257 C262 1.245 . S
C257 C263 1.428 . S
C258 C261 1.260 . S
C258 C262 1.477 . S
C258 H276 0.932 . S
C259 C260 1.384 . S
C259 C261 1.479 . S
C259 H277 0.929 . S
C260 C257 1.424 . S
C260 C259 1.384 . S
C260 H278 0.928 . S
C261 C258 1.260 . S
C261 C259 1.479 . S
C262 C257 1.245 . S
C262 C258 1.477 . S
C262 H279 0.932 . S
C263 U246 2.883 1_554 S
C263 C257 1.428 . S
C263 O266 1.301 . S
C263 O267 1.282 . S
O264 U246 2.441 . S
O264 C250 1.249 . S
O265 U246 2.420 . S
O265 C250 1.202 . S
O266 U246 2.455 1_554 S
O266 C263 1.301 . S
O267 U246 2.449 1_554 S
O267 C263 1.282 . S
H268 C241 0.931 . S
H269 C243 0.929 . S
H270 C244 0.930 . S
H271 C245 0.931 . S
H272 C252 0.932 . S
H273 C253 0.930 . S
H274 C254 0.929 . S
H275 C256 0.930 1_554 S
H276 C258 0.932 . S
H277 C259 0.929 . S
H278 C260 0.928 . S
H279 C262 0.932 . S
C280 C281 1.264 . S
C280 C285 1.479 . S
C280 C290 1.465 . S
C281 C280 1.264 . S
C281 C283 1.339 . S
C281 H308 0.931 . S
C282 C283 1.395 . S
C282 C284 1.320 . S
C283 C281 1.339 . S
C283 C282 1.395 . S
C283 H309 0.929 . S
C284 C282 1.320 . S
C284 C285 1.405 . S
C284 H310 0.930 . S
C285 C280 1.479 . S
C285 C284 1.405 . S
C285 H311 0.931 . S
U286 O287 2.454 . S
U286 O288 2.458 . S
U286 C289 2.984 . S
U286 C290 2.847 . S
U286 C303 2.882 . S
U286 O304 2.441 . S
U286 O305 2.420 . S
U286 O306 2.455 . S
U286 O307 2.449 . S
O287 U286 2.454 . S
O287 C289 1.353 . S
O288 U286 2.458 . S
O288 C289 1.286 . S
C289 U286 2.984 . S
C289 O287 1.353 . S
C289 O288 1.286 . S
C289 C291 1.363 . S
C290 C280 1.465 . S
C290 U286 2.847 . S
C290 O304 1.249 . S
C290 O305 1.202 . S
C291 C289 1.363 . S
C291 C293 1.408 . S
C291 C296 1.342 . S
C292 C293 1.310 . S
C292 C295 1.461 . S
C292 H312 0.932 . S
C293 C291 1.408 . S
C293 C292 1.310 . S
C293 H313 0.930 . S
C294 C295 1.474 . S
C294 C296 1.285 . S
C294 H314 0.929 . S
C295 C292 1.461 . S
C295 C294 1.474 . S
C296 C291 1.342 . S
C296 C294 1.285 . S
C296 H315 0.930 . S
C297 C300 1.424 . S
C297 C302 1.245 . S
C297 C303 1.428 . S
C298 C301 1.258 1_545 S
C298 C302 1.477 . S
C298 H316 0.932 . S
C299 C300 1.384 . S
C299 C301 1.478 1_545 S
C299 H317 0.929 1_545 S
C300 C297 1.424 . S
C300 C299 1.384 . S
C300 H318 0.928 . S
C301 C298 1.258 1_565 S
C301 C299 1.478 1_565 S
C302 C297 1.245 . S
C302 C298 1.477 . S
C302 H319 0.932 . S
C303 U286 2.882 . S
C303 C297 1.428 . S
C303 O306 1.301 . S
C303 O307 1.282 . S
O304 U286 2.441 . S
O304 C290 1.249 . S
O305 U286 2.420 . S
O305 C290 1.202 . S
O306 U286 2.455 . S
O306 C303 1.301 . S
O307 U286 2.449 . S
O307 C303 1.282 . S
H308 C281 0.931 . S
H309 C283 0.929 . S
H310 C284 0.930 . S
H311 C285 0.931 . S
H312 C292 0.932 . S
H313 C293 0.930 . S
H314 C294 0.929 . S
H315 C296 0.930 . S
H316 C298 0.932 . S
H317 C299 0.929 1_565 S
H318 C300 0.928 . S
H319 C302 0.932 . S
Fe320 O322 1.918 . S
Fe320 O325 1.997 1_455 S
Fe320 O326 2.002 1_455 S
Fe320 O331 1.976 . S
Fe320 O334 1.996 . S
Fe321 O322 1.918 . S
Fe321 O329 1.997 1_455 S
Fe321 O332 1.996 . S
Fe321 O336 1.976 . S
Fe321 O339 2.002 1_455 S
O322 Fe320 1.918 . S
O322 Fe321 1.918 . S
O322 Fe323 1.918 . S
Fe323 O322 1.918 . S
Fe323 O324 2.002 1_455 S
Fe323 O333 1.976 . S
Fe323 O337 1.996 . S
Fe323 O340 1.997 1_455 S
O324 Fe323 2.002 1_655 S
O324 C341 1.295 . S
O325 Fe320 1.997 1_655 S
O325 C341 1.235 . S
O326 Fe320 2.002 1_655 S
O326 C327 1.295 . S
C327 O326 1.295 . S
C327 O329 1.235 . S
C328 O333 1.287 . S
C328 O334 1.255 . S
O329 Fe321 1.997 1_655 S
O329 C327 1.235 . S
C330 O336 1.287 . S
C330 O337 1.255 . S
O331 Fe320 1.976 . S
O331 C338 1.287 . S
O332 Fe321 1.996 . S
O332 C338 1.255 . S
O333 Fe323 1.976 . S
O333 C328 1.287 . S
O334 Fe320 1.996 . S
O334 C328 1.255 . S
C335 O339 1.295 . S
C335 O340 1.235 . S
O336 Fe321 1.976 . S
O336 C330 1.287 . S
O337 Fe323 1.996 . S
O337 C330 1.255 . S
C338 O331 1.287 . S
C338 O332 1.255 . S
O339 Fe321 2.002 1_655 S
O339 C335 1.295 . S
O340 Fe323 1.997 1_655 S
O340 C335 1.235 . S
C341 O324 1.295 . S
C341 O325 1.235 . S
Fe342 O344 1.919 . S
Fe342 O347 1.980 1_655 S
Fe342 O348 1.986 1_655 S
Fe342 O353 1.992 . S
Fe342 O356 2.012 . S
Fe343 O344 1.919 . S
Fe343 O351 1.980 1_655 S
Fe343 O354 2.012 . S
Fe343 O358 1.992 . S
Fe343 O361 1.986 1_655 S
O344 Fe342 1.919 . S
O344 Fe343 1.919 . S
O344 Fe345 1.919 . S
Fe345 O344 1.919 . S
Fe345 O346 1.986 1_655 S
Fe345 O355 1.992 . S
Fe345 O359 2.011 . S
Fe345 O362 1.981 1_655 S
O346 Fe345 1.986 1_455 S
O346 C363 1.295 . S
O347 Fe342 1.980 1_455 S
O347 C363 1.235 . S
O348 Fe342 1.986 1_455 S
O348 C349 1.295 . S
C349 O348 1.295 . S
C349 O351 1.235 . S
C350 O355 1.287 . S
C350 O356 1.255 . S
O351 Fe343 1.980 1_455 S
O351 C349 1.235 . S
C352 O358 1.287 . S
C352 O359 1.255 . S
O353 Fe342 1.992 . S
O353 C360 1.287 . S
O354 Fe343 2.012 . S
O354 C360 1.255 . S
O355 Fe345 1.992 . S
O355 C350 1.287 . S
O356 Fe342 2.012 . S
O356 C350 1.255 . S
C357 O361 1.295 . S
C357 O362 1.235 . S
O358 Fe343 1.992 . S
O358 C352 1.287 . S
O359 Fe345 2.011 . S
O359 C352 1.255 . S
C360 O353 1.287 . S
C360 O354 1.255 . S
O361 Fe343 1.986 1_455 S
O361 C357 1.295 . S
O362 Fe345 1.981 1_455 S
O362 C357 1.235 . S
C363 O346 1.295 . S
C363 O347 1.235 . S
Fe364 O366 1.918 . S
Fe364 O369 1.997 . S
Fe364 O370 2.002 . S
Fe364 O375 1.976 . S
Fe364 O378 1.996 . S
Fe365 O366 1.918 . S
Fe365 O373 1.997 . S
Fe365 O376 1.996 . S
Fe365 O380 1.976 . S
Fe365 O383 2.002 . S
O366 Fe364 1.918 . S
O366 Fe365 1.918 . S
O366 Fe367 1.918 . S
Fe367 O366 1.918 . S
Fe367 O368 2.002 . S
Fe367 O377 1.976 . S
Fe367 O381 1.996 . S
Fe367 O384 1.997 . S
O368 Fe367 2.002 . S
O368 C385 1.295 . S
O369 Fe364 1.997 . S
O369 C385 1.235 . S
O370 Fe364 2.002 . S
O370 C371 1.295 . S
C371 O370 1.295 . S
C371 O373 1.235 . S
C372 O377 1.287 . S
C372 O378 1.255 . S
O373 Fe365 1.997 . S
O373 C371 1.235 . S
C374 O380 1.287 . S
C374 O381 1.255 . S
O375 Fe364 1.976 . S
O375 C382 1.287 . S
O376 Fe365 1.996 . S
O376 C382 1.255 . S
O377 Fe367 1.976 . S
O377 C372 1.287 . S
O378 Fe364 1.996 . S
O378 C372 1.255 . S
C379 O383 1.295 . S
C379 O384 1.235 . S
O380 Fe365 1.976 . S
O380 C374 1.287 . S
O381 Fe367 1.996 . S
O381 C374 1.255 . S
C382 O375 1.287 . S
C382 O376 1.255 . S
O383 Fe365 2.002 . S
O383 C379 1.295 . S
O384 Fe367 1.997 . S
O384 C379 1.235 . S
C385 O368 1.295 . S
C385 O369 1.235 . S
Fe386 O388 1.918 . S
Fe386 O391 1.997 . S
Fe386 O392 2.002 . S
Fe386 O397 1.976 . S
Fe386 O400 1.996 . S
Fe387 O388 1.918 . S
Fe387 O395 1.997 . S
Fe387 O398 1.996 . S
Fe387 O402 1.976 . S
Fe387 O405 2.002 . S
O388 Fe386 1.918 . S
O388 Fe387 1.918 . S
O388 Fe389 1.918 . S
Fe389 O388 1.918 . S
Fe389 O390 2.002 . S
Fe389 O399 1.976 . S
Fe389 O403 1.996 . S
Fe389 O406 1.997 . S
O390 Fe389 2.002 . S
O390 C407 1.295 . S
O391 Fe386 1.997 . S
O391 C407 1.235 . S
O392 Fe386 2.002 . S
O392 C393 1.295 . S
C393 O392 1.295 . S
C393 O395 1.235 . S
C394 O399 1.287 . S
C394 O400 1.255 . S
O395 Fe387 1.997 . S
O395 C393 1.235 . S
C396 O402 1.287 . S
C396 O403 1.255 . S
O397 Fe386 1.976 . S
O397 C404 1.287 . S
O398 Fe387 1.996 . S
O398 C404 1.255 . S
O399 Fe389 1.976 . S
O399 C394 1.287 . S
O400 Fe386 1.996 . S
O400 C394 1.255 . S
C401 O405 1.295 . S
C401 O406 1.235 . S
O402 Fe387 1.976 . S
O402 C396 1.287 . S
O403 Fe389 1.996 . S
O403 C396 1.255 . S
C404 O397 1.287 . S
C404 O398 1.255 . S
O405 Fe387 2.002 . S
O405 C401 1.295 . S
O406 Fe389 1.997 . S
O406 C401 1.235 . S
C407 O390 1.295 . S
C407 O391 1.235 . S
H408 C416 0.950 . S
H409 C421 0.950 . S
H410 C418 0.950 . S
H411 C420 0.950 . S
H412 C422 0.950 . S
H413 C424 0.950 . S
H414 C426 0.950 . S
H415 C427 0.950 . S
C416 H408 0.950 . S
C416 C417 1.386 . S
C416 C418 1.391 . S
C417 C416 1.386 . S
C417 C421 1.393 . S
C418 H410 0.950 . S
C418 C416 1.391 . S
C418 C419 1.400 . S
C419 C418 1.400 . S
C419 C420 1.398 . S
C419 C425 1.491 . S
C420 H411 0.950 . S
C420 C419 1.398 . S
C420 C421 1.391 . S
C421 H409 0.950 . S
C421 C417 1.393 . S
C421 C420 1.391 . S
C422 H412 0.950 . S
C422 C423 1.386 . S
C422 C424 1.391 . S
C423 C422 1.386 . S
C423 C427 1.393 . S
C424 H413 0.950 . S
C424 C422 1.391 . S
C424 C425 1.400 . S
C425 C419 1.491 . S
C425 C424 1.400 . S
C425 C426 1.398 . S
C426 H414 0.950 . S
C426 C425 1.398 . S
C426 C427 1.391 . S
C427 H415 0.950 . S
C427 C423 1.393 . S
C427 C426 1.391 . S
H428 C436 0.950 . S
H429 C441 0.950 . S
H430 C438 0.950 . S
H431 C440 0.950 . S
H432 C442 0.950 . S
H433 C444 0.950 . S
H434 C446 0.950 . S
H435 C447 0.950 . S
C436 H428 0.950 . S
C436 C437 1.386 . S
C436 C438 1.391 . S
C437 C436 1.386 . S
C437 C441 1.393 . S
C438 H430 0.950 . S
C438 C436 1.391 . S
C438 C439 1.400 . S
C439 C438 1.400 . S
C439 C440 1.398 . S
C439 C445 1.491 . S
C440 H431 0.950 . S
C440 C439 1.398 . S
C440 C441 1.391 . S
C441 H429 0.950 . S
C441 C437 1.393 . S
C441 C440 1.391 . S
C442 H432 0.950 . S
C442 C443 1.386 . S
C442 C444 1.391 . S
C443 C442 1.386 . S
C443 C447 1.393 . S
C444 H433 0.950 . S
C444 C442 1.391 . S
C444 C445 1.400 . S
C445 C439 1.491 . S
C445 C444 1.400 . S
C445 C446 1.398 . S
C446 H434 0.950 . S
C446 C445 1.398 . S
C446 C447 1.391 . S
C447 H435 0.950 . S
C447 C443 1.393 . S
C447 C446 1.391 . S
H448 C456 0.950 . S
H449 C461 0.950 . S
H450 C458 0.950 . S
H451 C460 0.950 . S
H452 C462 0.950 . S
H453 C464 0.950 . S
H454 C466 0.950 . S
H455 C467 0.950 . S
C456 H448 0.950 . S
C456 C457 1.386 . S
C456 C458 1.391 . S
C457 C456 1.386 . S
C457 C461 1.393 . S
C458 H450 0.950 . S
C458 C456 1.391 . S
C458 C459 1.400 . S
C459 C458 1.400 . S
C459 C460 1.398 . S
C459 C465 1.491 . S
C460 H451 0.950 . S
C460 C459 1.398 . S
C460 C461 1.391 . S
C461 H449 0.950 . S
C461 C457 1.393 . S
C461 C460 1.391 . S
C462 H452 0.950 . S
C462 C463 1.386 . S
C462 C464 1.391 . S
C463 C462 1.386 . S
C463 C467 1.393 . S
C464 H453 0.950 . S
C464 C462 1.391 . S
C464 C465 1.400 . S
C465 C459 1.491 . S
C465 C464 1.400 . S
C465 C466 1.398 . S
C466 H454 0.950 . S
C466 C465 1.398 . S
C466 C467 1.391 . S
C467 H455 0.950 . S
C467 C463 1.393 . S
C467 C466 1.391 . S
H468 C476 0.950 . S
H469 C481 0.950 . S
H470 C478 0.950 . S
H471 C480 0.950 . S
H472 C482 0.950 . S
H473 C484 0.950 . S
H474 C486 0.950 . S
H475 C487 0.950 . S
C476 H468 0.950 . S
C476 C477 1.386 . S
C476 C478 1.391 . S
C477 C476 1.386 . S
C477 C481 1.393 . S
C478 H470 0.950 . S
C478 C476 1.391 . S
C478 C479 1.400 . S
C479 C478 1.400 . S
C479 C480 1.398 . S
C479 C485 1.491 . S
C480 H471 0.950 . S
C480 C479 1.398 . S
C480 C481 1.391 . S
C481 H469 0.950 . S
C481 C477 1.393 . S
C481 C480 1.391 . S
C482 H472 0.950 . S
C482 C483 1.386 . S
C482 C484 1.391 . S
C483 C482 1.386 . S
C483 C487 1.393 . S
C484 H473 0.950 . S
C484 C482 1.391 . S
C484 C485 1.400 . S
C485 C479 1.491 . S
C485 C484 1.400 . S
C485 C486 1.398 . S
C486 H474 0.950 . S
C486 C485 1.398 . S
C486 C487 1.391 . S
C487 H475 0.950 . S
C487 C483 1.393 . S
C487 C486 1.391 . S
H488 C496 0.950 . S
H489 C501 0.950 . S
H490 C498 0.950 . S
H491 C500 0.950 . S
H492 C502 0.950 . S
H493 C504 0.950 . S
H494 C506 0.950 . S
H495 C507 0.950 . S
C496 H488 0.950 . S
C496 C497 1.386 . S
C496 C498 1.391 . S
C497 C496 1.386 . S
C497 C501 1.393 . S
C498 H490 0.950 . S
C498 C496 1.391 . S
C498 C499 1.400 . S
C499 C498 1.400 . S
C499 C500 1.398 . S
C499 C505 1.491 . S
C500 H491 0.950 . S
C500 C499 1.398 . S
C500 C501 1.391 . S
C501 H489 0.950 . S
C501 C497 1.393 . S
C501 C500 1.391 . S
C502 H492 0.950 . S
C502 C503 1.386 . S
C502 C504 1.391 . S
C503 C502 1.386 . S
C503 C507 1.393 . S
C504 H493 0.950 . S
C504 C502 1.391 . S
C504 C505 1.400 . S
C505 C499 1.491 . S
C505 C504 1.400 . S
C505 C506 1.398 . S
C506 H494 0.950 . S
C506 C505 1.398 . S
C506 C507 1.391 . S
C507 H495 0.950 . S
C507 C503 1.393 . S
C507 C506 1.391 . S
H508 C516 0.950 . S
H509 C521 0.950 . S
H510 C518 0.950 . S
H511 C520 0.950 . S
H512 C522 0.950 . S
H513 C524 0.950 . S
H514 C526 0.950 . S
H515 C527 0.950 . S
C516 H508 0.950 . S
C516 C517 1.386 . S
C516 C518 1.391 . S
C517 C516 1.386 . S
C517 C521 1.393 . S
C518 H510 0.950 . S
C518 C516 1.391 . S
C518 C519 1.400 . S
C519 C518 1.400 . S
C519 C520 1.398 . S
C519 C525 1.491 . S
C520 H511 0.950 . S
C520 C519 1.398 . S
C520 C521 1.391 . S
C521 H509 0.950 . S
C521 C517 1.393 . S
C521 C520 1.391 . S
C522 H512 0.950 . S
C522 C523 1.386 . S
C522 C524 1.391 . S
C523 C522 1.386 . S
C523 C527 1.393 . S
C524 H513 0.950 . S
C524 C522 1.391 . S
C524 C525 1.400 . S
C525 C519 1.491 . S
C525 C524 1.400 . S
C525 C526 1.398 . S
C526 H514 0.950 . S
C526 C525 1.398 . S
C526 C527 1.391 . S
C527 H515 0.950 . S
C527 C523 1.393 . S
C527 C526 1.391 . S
H528 C536 0.950 . S
H529 C541 0.950 . S
H530 C538 0.950 . S
H531 C540 0.950 . S
H532 C542 0.950 . S
H533 C544 0.950 . S
H534 C546 0.950 . S
H535 C547 0.950 . S
C536 H528 0.950 . S
C536 C537 1.386 . S
C536 C538 1.391 . S
C537 C536 1.386 . S
C537 C541 1.393 . S
C538 H530 0.950 . S
C538 C536 1.391 . S
C538 C539 1.400 . S
C539 C538 1.400 . S
C539 C540 1.398 . S
C539 C545 1.491 . S
C540 H531 0.950 . S
C540 C539 1.398 . S
C540 C541 1.391 . S
C541 H529 0.950 . S
C541 C537 1.393 . S
C541 C540 1.391 . S
C542 H532 0.950 . S
C542 C543 1.386 . S
C542 C544 1.391 . S
C543 C542 1.386 . S
C543 C547 1.393 . S
C544 H533 0.950 . S
C544 C542 1.391 . S
C544 C545 1.400 . S
C545 C539 1.491 . S
C545 C544 1.400 . S
C545 C546 1.398 . S
C546 H534 0.950 . S
C546 C545 1.398 . S
C546 C547 1.391 . S
C547 H535 0.950 . S
C547 C543 1.393 . S
C547 C546 1.391 . S
H548 C556 0.950 . S
H549 C561 0.950 . S
H550 C558 0.950 . S
H551 C560 0.950 . S
H552 C562 0.950 . S
H553 C564 0.950 . S
H554 C566 0.950 . S
H555 C567 0.950 . S
C556 H548 0.950 . S
C556 C557 1.386 . S
C556 C558 1.391 . S
C557 C556 1.386 . S
C557 C561 1.393 . S
C558 H550 0.950 . S
C558 C556 1.391 . S
C558 C559 1.400 . S
C559 C558 1.400 . S
C559 C560 1.398 . S
C559 C565 1.491 . S
C560 H551 0.950 . S
C560 C559 1.398 . S
C560 C561 1.391 . S
C561 H549 0.950 . S
C561 C557 1.393 . S
C561 C560 1.391 . S
C562 H552 0.950 . S
C562 C563 1.386 . S
C562 C564 1.391 . S
C563 C562 1.386 . S
C563 C567 1.393 . S
C564 H553 0.950 . S
C564 C562 1.391 . S
C564 C565 1.400 . S
C565 C559 1.491 . S
C565 C564 1.400 . S
C565 C566 1.398 . S
C566 H554 0.950 . S
C566 C565 1.398 . S
C566 C567 1.391 . S
C567 H555 0.950 . S
C567 C563 1.393 . S
C567 C566 1.391 . S
H568 C576 0.950 . S
H569 C581 0.950 . S
H570 C578 0.950 . S
H571 C580 0.950 . S
H572 C582 0.950 . S
H573 C584 0.950 . S
H574 C586 0.950 . S
H575 C587 0.950 . S
C576 H568 0.950 . S
C576 C577 1.386 . S
C576 C578 1.391 . S
C577 C576 1.386 . S
C577 C581 1.393 . S
C578 H570 0.950 . S
C578 C576 1.391 . S
C578 C579 1.400 . S
C579 C578 1.400 . S
C579 C580 1.398 . S
C579 C585 1.491 . S
C580 H571 0.950 . S
C580 C579 1.398 . S
C580 C581 1.391 . S
C581 H569 0.950 . S
C581 C577 1.393 . S
C581 C580 1.391 . S
C582 H572 0.950 . S
C582 C583 1.386 . S
C582 C584 1.391 . S
C583 C582 1.386 . S
C583 C587 1.393 . S
C584 H573 0.950 . S
C584 C582 1.391 . S
C584 C585 1.400 . S
C585 C579 1.491 . S
C585 C584 1.400 . S
C585 C586 1.398 . S
C586 H574 0.950 . S
C586 C585 1.398 . S
C586 C587 1.391 . S
C587 H575 0.950 . S
C587 C583 1.393 . S
C587 C586 1.391 . S
H588 C596 0.950 . S
H589 C601 0.950 . S
H590 C598 0.950 . S
H591 C600 0.950 . S
H592 C602 0.950 . S
H593 C604 0.950 . S
H594 C606 0.950 . S
H595 C607 0.950 . S
C596 H588 0.950 . S
C596 C597 1.386 . S
C596 C598 1.391 . S
C597 C596 1.386 . S
C597 C601 1.393 . S
C598 H590 0.950 . S
C598 C596 1.391 . S
C598 C599 1.400 . S
C599 C598 1.400 . S
C599 C600 1.398 . S
C599 C605 1.491 . S
C600 H591 0.950 . S
C600 C599 1.398 . S
C600 C601 1.391 . S
C601 H589 0.950 . S
C601 C597 1.393 . S
C601 C600 1.391 . S
C602 H592 0.950 . S
C602 C603 1.386 . S
C602 C604 1.391 . S
C603 C602 1.386 . S
C603 C607 1.393 . S
C604 H593 0.950 . S
C604 C602 1.391 . S
C604 C605 1.400 . S
C605 C599 1.491 . S
C605 C604 1.400 . S
C605 C606 1.398 . S
C606 H594 0.950 . S
C606 C605 1.398 . S
C606 C607 1.391 . S
C607 H595 0.950 . S
C607 C603 1.393 . S
C607 C606 1.391 . S
H608 C616 0.950 . S
H609 C621 0.950 . S
H610 C618 0.950 . S
H611 C620 0.950 . S
H612 C622 0.950 . S
H613 C624 0.950 . S
H614 C626 0.950 . S
H615 C627 0.950 . S
C616 H608 0.950 . S
C616 C617 1.386 . S
C616 C618 1.391 . S
C617 C616 1.386 . S
C617 C621 1.393 . S
C618 H610 0.950 . S
C618 C616 1.391 . S
C618 C619 1.400 . S
C619 C618 1.400 . S
C619 C620 1.398 . S
C619 C625 1.491 . S
C620 H611 0.950 . S
C620 C619 1.398 . S
C620 C621 1.391 . S
C621 H609 0.950 . S
C621 C617 1.393 . S
C621 C620 1.391 . S
C622 H612 0.950 . S
C622 C623 1.386 . S
C622 C624 1.391 . S
C623 C622 1.386 . S
C623 C627 1.393 . S
C624 H613 0.950 . S
C624 C622 1.391 . S
C624 C625 1.400 . S
C625 C619 1.491 . S
C625 C624 1.400 . S
C625 C626 1.398 . S
C626 H614 0.950 . S
C626 C625 1.398 . S
C626 C627 1.391 . S
C627 H615 0.950 . S
C627 C623 1.393 . S
C627 C626 1.391 . S
H628 C636 0.950 . S
H629 C641 0.950 . S
H630 C638 0.950 . S
H631 C640 0.950 . S
H632 C642 0.950 . S
H633 C644 0.950 . S
H634 C646 0.950 . S
H635 C647 0.950 . S
C636 H628 0.950 . S
C636 C637 1.386 . S
C636 C638 1.391 . S
C637 C636 1.386 . S
C637 C641 1.393 . S
C638 H630 0.950 . S
C638 C636 1.391 . S
C638 C639 1.400 . S
C639 C638 1.400 . S
C639 C640 1.398 . S
C639 C645 1.491 . S
C640 H631 0.950 . S
C640 C639 1.398 . S
C640 C641 1.391 . S
C641 H629 0.950 . S
C641 C637 1.393 . S
C641 C640 1.391 . S
C642 H632 0.950 . S
C642 C643 1.386 . S
C642 C644 1.391 . S
C643 C642 1.386 . S
C643 C647 1.393 . S
C644 H633 0.950 . S
C644 C642 1.391 . S
C644 C645 1.400 . S
C645 C639 1.491 . S
C645 C644 1.400 . S
C645 C646 1.398 . S
C646 H634 0.950 . S
C646 C645 1.398 . S
C646 C647 1.391 . S
C647 H635 0.950 . S
C647 C643 1.393 . S
C647 C646 1.391 . S
H648 C656 0.950 . S
H649 C661 0.950 . S
H650 C658 0.950 . S
H651 C660 0.950 . S
H652 C662 0.950 . S
H653 C664 0.950 . S
H654 C666 0.950 . S
H655 C667 0.950 . S
C656 H648 0.950 . S
C656 C657 1.386 . S
C656 C658 1.391 . S
C657 C656 1.386 . S
C657 C661 1.393 . S
C658 H650 0.950 . S
C658 C656 1.391 . S
C658 C659 1.400 . S
C659 C658 1.400 . S
C659 C660 1.398 . S
C659 C665 1.491 . S
C660 H651 0.950 . S
C660 C659 1.398 . S
C660 C661 1.391 . S
C661 H649 0.950 . S
C661 C657 1.393 . S
C661 C660 1.391 . S
C662 H652 0.950 . S
C662 C663 1.386 . S
C662 C664 1.391 . S
C663 C662 1.386 . S
C663 C667 1.393 . S
C664 H653 0.950 . S
C664 C662 1.391 . S
C664 C665 1.400 . S
C665 C659 1.491 . S
C665 C664 1.400 . S
C665 C666 1.398 . S
C666 H654 0.950 . S
C666 C665 1.398 . S
C666 C667 1.391 . S
C667 H655 0.950 . S
C667 C663 1.393 . S
C667 C666 1.391 . S
H668 C676 0.950 . S
H669 C681 0.950 . S
H670 C678 0.950 . S
H671 C680 0.950 . S
H672 C682 0.950 . S
H673 C684 0.950 . S
H674 C686 0.950 . S
H675 C687 0.950 . S
C676 H668 0.950 . S
C676 C677 1.386 . S
C676 C678 1.391 . S
C677 C676 1.386 . S
C677 C681 1.393 . S
C678 H670 0.950 . S
C678 C676 1.391 . S
C678 C679 1.400 . S
C679 C678 1.400 . S
C679 C680 1.398 . S
C679 C685 1.491 . S
C680 H671 0.950 . S
C680 C679 1.398 . S
C680 C681 1.391 . S
C681 H669 0.950 . S
C681 C677 1.393 . S
C681 C680 1.391 . S
C682 H672 0.950 . S
C682 C683 1.386 . S
C682 C684 1.391 . S
C683 C682 1.386 . S
C683 C687 1.393 . S
C684 H673 0.950 . S
C684 C682 1.391 . S
C684 C685 1.400 . S
C685 C679 1.491 . S
C685 C684 1.400 . S
C685 C686 1.398 . S
C686 H674 0.950 . S
C686 C685 1.398 . S
C686 C687 1.391 . S
C687 H675 0.950 . S
C687 C683 1.393 . S
C687 C686 1.391 . S
H688 C696 0.950 . S
H689 C701 0.950 . S
H690 C698 0.950 . S
H691 C700 0.950 . S
H692 C702 0.950 . S
H693 C704 0.950 . S
H694 C706 0.950 . S
H695 C707 0.950 . S
C696 H688 0.950 . S
C696 C697 1.386 . S
C696 C698 1.391 . S
C697 C696 1.386 . S
C697 C701 1.393 . S
C698 H690 0.950 . S
C698 C696 1.391 . S
C698 C699 1.400 . S
C699 C698 1.400 . S
C699 C700 1.398 . S
C699 C705 1.491 . S
C700 H691 0.950 . S
C700 C699 1.398 . S
C700 C701 1.391 . S
C701 H689 0.950 . S
C701 C697 1.393 . S
C701 C700 1.391 . S
C702 H692 0.950 . S
C702 C703 1.386 . S
C702 C704 1.391 . S
C703 C702 1.386 . S
C703 C707 1.393 . S
C704 H693 0.950 . S
C704 C702 1.391 . S
C704 C705 1.400 . S
C705 C699 1.491 . S
C705 C704 1.400 . S
C705 C706 1.398 . S
C706 H694 0.950 . S
C706 C705 1.398 . S
C706 C707 1.391 . S
C707 H695 0.950 . S
C707 C703 1.393 . S
C707 C706 1.391 . S
H708 C716 0.950 . S
H709 C721 0.950 . S
H710 C718 0.950 . S
H711 C720 0.950 . S
H712 C722 0.950 . S
H713 C724 0.950 . S
H714 C726 0.950 . S
H715 C727 0.950 . S
C716 H708 0.950 . S
C716 C717 1.386 . S
C716 C718 1.391 . S
C717 C716 1.386 . S
C717 C721 1.393 . S
C718 H710 0.950 . S
C718 C716 1.391 . S
C718 C719 1.400 . S
C719 C718 1.400 . S
C719 C720 1.398 . S
C719 C725 1.491 . S
C720 H711 0.950 . S
C720 C719 1.398 . S
C720 C721 1.391 . S
C721 H709 0.950 . S
C721 C717 1.393 . S
C721 C720 1.391 . S
C722 H712 0.950 . S
C722 C723 1.386 . S
C722 C724 1.391 . S
C723 C722 1.386 . S
C723 C727 1.393 . S
C724 H713 0.950 . S
C724 C722 1.391 . S
C724 C725 1.400 . S
C725 C719 1.491 . S
C725 C724 1.400 . S
C725 C726 1.398 . S
C726 H714 0.950 . S
C726 C725 1.398 . S
C726 C727 1.391 . S
C727 H715 0.950 . S
C727 C723 1.393 . S
C727 C726 1.391 . S
H728 C736 0.950 . S
H729 C741 0.950 . S
H730 C738 0.950 . S
H731 C740 0.950 . S
H732 C742 0.950 . S
H733 C744 0.950 . S
H734 C746 0.950 . S
H735 C747 0.950 . S
C736 H728 0.950 . S
C736 C737 1.386 . S
C736 C738 1.391 . S
C737 C736 1.386 . S
C737 C741 1.393 . S
C738 H730 0.950 . S
C738 C736 1.391 . S
C738 C739 1.400 . S
C739 C738 1.400 . S
C739 C740 1.398 . S
C739 C745 1.491 . S
C740 H731 0.950 . S
C740 C739 1.398 . S
C740 C741 1.391 . S
C741 H729 0.950 . S
C741 C737 1.393 . S
C741 C740 1.391 . S
C742 H732 0.950 . S
C742 C743 1.386 . S
C742 C744 1.391 . S
C743 C742 1.386 . S
C743 C747 1.393 . S
C744 H733 0.950 . S
C744 C742 1.391 . S
C744 C745 1.400 . S
C745 C739 1.491 . S
C745 C744 1.400 . S
C745 C746 1.398 . S
C746 H734 0.950 . S
C746 C745 1.398 . S
C746 C747 1.391 . S
C747 H735 0.950 . S
C747 C743 1.393 . S
C747 C746 1.391 . S
H748 C756 0.950 . S
H749 C761 0.950 . S
H750 C758 0.950 . S
H751 C760 0.950 . S
H752 C762 0.950 . S
H753 C764 0.950 . S
H754 C766 0.950 . S
H755 C767 0.950 . S
C756 H748 0.950 . S
C756 C757 1.386 . S
C756 C758 1.391 . S
C757 C756 1.386 . S
C757 C761 1.393 . S
C758 H750 0.950 . S
C758 C756 1.391 . S
C758 C759 1.400 . S
C759 C758 1.400 . S
C759 C760 1.398 . S
C759 C765 1.491 . S
C760 H751 0.950 . S
C760 C759 1.398 . S
C760 C761 1.391 . S
C761 H749 0.950 . S
C761 C757 1.393 . S
C761 C760 1.391 . S
C762 H752 0.950 . S
C762 C763 1.386 . S
C762 C764 1.391 . S
C763 C762 1.386 . S
C763 C767 1.393 . S
C764 H753 0.950 . S
C764 C762 1.391 . S
C764 C765 1.400 . S
C765 C759 1.491 . S
C765 C764 1.400 . S
C765 C766 1.398 . S
C766 H754 0.950 . S
C766 C765 1.398 . S
C766 C767 1.391 . S
C767 H755 0.950 . S
C767 C763 1.393 . S
C767 C766 1.391 . S
H768 C776 0.950 . S
H769 C781 0.950 . S
H770 C778 0.950 . S
H771 C780 0.950 . S
H772 C782 0.950 . S
H773 C784 0.950 . S
H774 C786 0.950 . S
H775 C787 0.950 . S
C776 H768 0.950 . S
C776 C777 1.386 . S
C776 C778 1.391 . S
C777 C776 1.386 . S
C777 C781 1.393 . S
C778 H770 0.950 . S
C778 C776 1.391 . S
C778 C779 1.400 . S
C779 C778 1.400 . S
C779 C780 1.398 . S
C779 C785 1.491 . S
C780 H771 0.950 . S
C780 C779 1.398 . S
C780 C781 1.391 . S
C781 H769 0.950 . S
C781 C777 1.393 . S
C781 C780 1.391 . S
C782 H772 0.950 . S
C782 C783 1.386 . S
C782 C784 1.391 . S
C783 C782 1.386 . S
C783 C787 1.393 . S
C784 H773 0.950 . S
C784 C782 1.391 . S
C784 C785 1.400 . S
C785 C779 1.491 . S
C785 C784 1.400 . S
C785 C786 1.398 . S
C786 H774 0.950 . S
C786 C785 1.398 . S
C786 C787 1.391 . S
C787 H775 0.950 . S
C787 C783 1.393 . S
C787 C786 1.391 . S
H788 C796 0.950 . S
H789 C801 0.950 . S
H790 C798 0.950 . S
H791 C800 0.950 . S
H792 C802 0.950 . S
H793 C804 0.950 . S
H794 C806 0.950 . S
H795 C807 0.950 . S
C796 H788 0.950 . S
C796 C797 1.386 . S
C796 C798 1.391 . S
C797 C796 1.386 . S
C797 C801 1.393 . S
C798 H790 0.950 . S
C798 C796 1.391 . S
C798 C799 1.400 . S
C799 C798 1.400 . S
C799 C800 1.398 . S
C799 C805 1.491 . S
C800 H791 0.950 . S
C800 C799 1.398 . S
C800 C801 1.391 . S
C801 H789 0.950 . S
C801 C797 1.393 . S
C801 C800 1.391 . S
C802 H792 0.950 . S
C802 C803 1.386 . S
C802 C804 1.391 . S
C803 C802 1.386 . S
C803 C807 1.393 . S
C804 H793 0.950 . S
C804 C802 1.391 . S
C804 C805 1.400 . S
C805 C799 1.491 . S
C805 C804 1.400 . S
C805 C806 1.398 . S
C806 H794 0.950 . S
C806 C805 1.398 . S
C806 C807 1.391 . S
C807 H795 0.950 . S
C807 C803 1.393 . S
C807 C806 1.391 . S
H808 C816 0.950 . S
H809 C821 0.950 . S
H810 C818 0.950 . S
H811 C820 0.950 . S
H812 C822 0.950 . S
H813 C824 0.950 . S
H814 C826 0.950 . S
H815 C827 0.950 . S
C816 H808 0.950 . S
C816 C817 1.386 . S
C816 C818 1.391 . S
C817 C816 1.386 . S
C817 C821 1.393 . S
C818 H810 0.950 . S
C818 C816 1.391 . S
C818 C819 1.400 . S
C819 C818 1.400 . S
C819 C820 1.398 . S
C819 C825 1.491 . S
C820 H811 0.950 . S
C820 C819 1.398 . S
C820 C821 1.391 . S
C821 H809 0.950 . S
C821 C817 1.393 . S
C821 C820 1.391 . S
C822 H812 0.950 . S
C822 C823 1.386 . S
C822 C824 1.391 . S
C823 C822 1.386 . S
C823 C827 1.393 . S
C824 H813 0.950 . S
C824 C822 1.391 . S
C824 C825 1.400 . S
C825 C819 1.491 . S
C825 C824 1.400 . S
C825 C826 1.398 . S
C826 H814 0.950 . S
C826 C825 1.398 . S
C826 C827 1.391 . S
C827 H815 0.950 . S
C827 C823 1.393 . S
C827 C826 1.391 . S
H828 C836 0.950 . S
H829 C841 0.950 . S
H830 C838 0.950 . S
H831 C840 0.950 . S
H832 C842 0.950 . S
H833 C844 0.950 . S
H834 C846 0.950 . S
H835 C847 0.950 . S
C836 H828 0.950 . S
C836 C837 1.386 . S
C836 C838 1.391 . S
C837 C836 1.386 . S
C837 C841 1.393 . S
C838 H830 0.950 . S
C838 C836 1.391 . S
C838 C839 1.400 . S
C839 C838 1.400 . S
C839 C840 1.398 . S
C839 C845 1.491 . S
C840 H831 0.950 . S
C840 C839 1.398 . S
C840 C841 1.391 . S
C841 H829 0.950 . S
C841 C837 1.393 . S
C841 C840 1.391 . S
C842 H832 0.950 . S
C842 C843 1.386 . S
C842 C844 1.391 . S
C843 C842 1.386 . S
C843 C847 1.393 . S
C844 H833 0.950 . S
C844 C842 1.391 . S
C844 C845 1.400 . S
C845 C839 1.491 . S
C845 C844 1.400 . S
C845 C846 1.398 . S
C846 H834 0.950 . S
C846 C845 1.398 . S
C846 C847 1.391 . S
C847 H835 0.950 . S
C847 C843 1.393 . S
C847 C846 1.391 . S
H848 C856 0.950 . S
H849 C861 0.950 . S
H850 C858 0.950 . S
H851 C860 0.950 . S
H852 C862 0.950 . S
H853 C864 0.950 . S
H854 C866 0.950 . S
H855 C867 0.950 . S
C856 H848 0.950 . S
C856 C857 1.386 . S
C856 C858 1.391 . S
C857 C856 1.386 . S
C857 C861 1.393 . S
C858 H850 0.950 . S
C858 C856 1.391 . S
C858 C859 1.400 . S
C859 C858 1.400 . S
C859 C860 1.398 . S
C859 C865 1.491 . S
C860 H851 0.950 . S
C860 C859 1.398 . S
C860 C861 1.391 . S
C861 H849 0.950 . S
C861 C857 1.393 . S
C861 C860 1.391 . S
C862 H852 0.950 . S
C862 C863 1.386 . S
C862 C864 1.391 . S
C863 C862 1.386 . S
C863 C867 1.393 . S
C864 H853 0.950 . S
C864 C862 1.391 . S
C864 C865 1.400 . S
C865 C859 1.491 . S
C865 C864 1.400 . S
C865 C866 1.398 . S
C866 H854 0.950 . S
C866 C865 1.398 . S
C866 C867 1.391 . S
C867 H855 0.950 . S
C867 C863 1.393 . S
C867 C866 1.391 . S
H868 C876 0.950 . S
H869 C881 0.950 . S
H870 C878 0.950 . S
H871 C880 0.950 . S
H872 C882 0.950 . S
H873 C884 0.950 . S
H874 C886 0.950 . S
H875 C887 0.950 . S
C876 H868 0.950 . S
C876 C877 1.386 . S
C876 C878 1.391 . S
C877 C876 1.386 . S
C877 C881 1.393 . S
C878 H870 0.950 . S
C878 C876 1.391 . S
C878 C879 1.400 . S
C879 C878 1.400 . S
C879 C880 1.398 . S
C879 C885 1.491 . S
C880 H871 0.950 . S
C880 C879 1.398 . S
C880 C881 1.391 . S
C881 H869 0.950 . S
C881 C877 1.393 . S
C881 C880 1.391 . S
C882 H872 0.950 . S
C882 C883 1.386 . S
C882 C884 1.391 . S
C883 C882 1.386 . S
C883 C887 1.393 . S
C884 H873 0.950 . S
C884 C882 1.391 . S
C884 C885 1.400 . S
C885 C879 1.491 . S
C885 C884 1.400 . S
C885 C886 1.398 . S
C886 H874 0.950 . S
C886 C885 1.398 . S
C886 C887 1.391 . S
C887 H875 0.950 . S
C887 C883 1.393 . S
C887 C886 1.391 . S
C417 C15 1.545 . S
C423 C363 1.527 . S
C443 C327 1.586 . S
C437 C55 1.598 . S
C463 C350 1.533 . S
C457 C95 1.531 . S
C483 C338 1.569 . S
C477 C135 1.570 . S
C503 C407 1.540 . S
C497 C175 1.554 . S
C523 C371 1.581 . S
C517 C215 1.594 . S
C537 C255 1.529 . S
C543 C394 1.533 . S
C563 C382 1.568 . S
C557 C295 1.574 . S
C577 C2 1.515 . S
C583 C404 1.517 . S
C603 C374 1.592 . S
C597 C61 1.531 . S
C617 C82 1.511 . S
C623 C393 1.553 . S
C637 C141 1.612 . S
C643 C379 1.622 . S
C663 C360 1.517 . S
C657 C162 1.514 1_545 S
C677 C221 1.532 1_565 S
C683 C330 1.590 . S
C703 C349 1.551 . S
C697 C242 1.518 1_545 S
C723 C335 1.628 . S
C717 C301 1.609 . S
C743 C385 1.564 . S
C737 C21 1.554 . S
C763 C401 1.555 . S
C757 C42 1.516 . S
C777 C101 1.458 . S
C783 C372 1.535 . S
C803 C396 1.530 . S
C797 C122 1.527 . S
C823 C341 1.561 . S
C817 C181 1.558 . S
C837 C202 1.507 . S
C843 C357 1.563 . S
C857 C261 1.460 . S
C863 C328 1.535 . S
C877 C282 1.527 . S
C883 C352 1.531 . S
