# Generated by pormake.
# Topology zzz, (3,6)-cn, num edge types: 1
# Building blocks:
#     Node 0, Type 0, BuildingBlock: OLANEW_clean_sbu_2, # of connection points: 3
#     Node 1, Type 0, BuildingBlock: OLANEW_clean_sbu_2, # of connection points: 3
#     Node 2, Type 0, BuildingBlock: OLANEW_clean_sbu_2, # of connection points: 3
#     Node 3, Type 0, BuildingBlock: OLANEW_clean_sbu_2, # of connection points: 3
#     Node 4, Type 0, BuildingBlock: OLANEW_clean_sbu_2, # of connection points: 3
#     Node 5, Type 0, BuildingBlock: OLANEW_clean_sbu_2, # of connection points: 3
#     Node 6, Type 0, BuildingBlock: OLANEW_clean_sbu_2, # of connection points: 3
#     Node 7, Type 0, BuildingBlock: OLANEW_clean_sbu_2, # of connection points: 3
#     Node 8, Type 1, BuildingBlock: BETGAK_clean_sbu_0, # of connection points: 6
#     Node 9, Type 1, BuildingBlock: BETGAK_clean_sbu_0, # of connection points: 6
#     Node 10, Type 1, BuildingBlock: BETGAK_clean_sbu_0, # of connection points: 6
#     Node 11, Type 1, BuildingBlock: BETGAK_clean_sbu_0, # of connection points: 6
#     Edge 12, Type (0, 1), BuildingBlock: EZIPEK_clean_linker_0, # of connection points: 2
#     Edge 13, Type (0, 1), BuildingBlock: EZIPEK_clean_linker_0, # of connection points: 2
#     Edge 14, Type (0, 1), BuildingBlock: EZIPEK_clean_linker_0, # of connection points: 2
#     Edge 15, Type (0, 1), BuildingBlock: EZIPEK_clean_linker_0, # of connection points: 2
#     Edge 16, Type (0, 1), BuildingBlock: EZIPEK_clean_linker_0, # of connection points: 2
#     Edge 17, Type (0, 1), BuildingBlock: EZIPEK_clean_linker_0, # of connection points: 2
#     Edge 18, Type (0, 1), BuildingBlock: EZIPEK_clean_linker_0, # of connection points: 2
#     Edge 19, Type (0, 1), BuildingBlock: EZIPEK_clean_linker_0, # of connection points: 2
#     Edge 20, Type (0, 1), BuildingBlock: EZIPEK_clean_linker_0, # of connection points: 2
#     Edge 21, Type (0, 1), BuildingBlock: EZIPEK_clean_linker_0, # of connection points: 2
#     Edge 22, Type (0, 1), BuildingBlock: EZIPEK_clean_linker_0, # of connection points: 2
#     Edge 23, Type (0, 1), BuildingBlock: EZIPEK_clean_linker_0, # of connection points: 2
#     Edge 24, Type (0, 1), BuildingBlock: EZIPEK_clean_linker_0, # of connection points: 2
#     Edge 25, Type (0, 1), BuildingBlock: EZIPEK_clean_linker_0, # of connection points: 2
#     Edge 26, Type (0, 1), BuildingBlock: EZIPEK_clean_linker_0, # of connection points: 2
#     Edge 27, Type (0, 1), BuildingBlock: EZIPEK_clean_linker_0, # of connection points: 2
#     Edge 28, Type (0, 1), BuildingBlock: EZIPEK_clean_linker_0, # of connection points: 2
#     Edge 29, Type (0, 1), BuildingBlock: EZIPEK_clean_linker_0, # of connection points: 2
#     Edge 30, Type (0, 1), BuildingBlock: EZIPEK_clean_linker_0, # of connection points: 2
#     Edge 31, Type (0, 1), BuildingBlock: EZIPEK_clean_linker_0, # of connection points: 2
#     Edge 32, Type (0, 1), BuildingBlock: EZIPEK_clean_linker_0, # of connection points: 2
#     Edge 33, Type (0, 1), BuildingBlock: EZIPEK_clean_linker_0, # of connection points: 2
#     Edge 34, Type (0, 1), BuildingBlock: EZIPEK_clean_linker_0, # of connection points: 2
#     Edge 35, Type (0, 1), BuildingBlock: EZIPEK_clean_linker_0, # of connection points: 2
# Relax obj value: 0.314
# Max RMSD: 0.213
# Mean RMSD: 0.173
data_MOF--net-zzz--node1-OLANEW_clean_sbu_2--node2-BETGAK_clean_sbu_0--edge1-EZIPEK_clean_linker_0
_symmetry_space_group_name_H-M    P1
_symmetry_Int_Tables_number       1
_symmetry_cell_setting            triclinic
loop_
_symmetry_equiv_pos_as_xyz
'x, y, z'
_cell_length_a     42.862557
_cell_length_b     42.842885
_cell_length_c     11.697615
_cell_angle_alpha  89.607966
_cell_angle_beta   89.844476
_cell_angle_gamma 90.026621
loop_
_atom_site_label
_atom_site_type_symbol
_atom_site_fract_x
_atom_site_fract_y
_atom_site_fract_z
_atom_type_partial_charge
O0 O 0.74794 0.5218 0.27081 0.0
Cd1 Cd 0.70123 0.55284 0.30429 0.0
O2 O 0.75644 0.52526 0.45411 0.0
Cd3 Cd 0.78098 0.51922 0.61473 0.0
O4 O 0.79128 0.52701 0.7941 0.0
C5 C 0.81911 0.52627 0.83042 0.0
O6 O 0.82475 0.53248 0.93819 0.0
C7 C 0.76519 0.51598 0.3563 0.0
C8 C 0.65255 0.53546 0.16199 0.0
O9 O 0.67421 0.55386 0.12714 0.0
O10 O 0.65381 0.52512 0.26496 0.0
O11 O 0.04984 0.68891 0.28556 0.0
Cd12 Cd 0.05458 0.63458 0.34802 0.0
O13 O 0.01472 0.70109 0.41531 0.0
Cd14 Cd 0.98772 0.73755 0.49933 0.0
O15 O 0.9732 0.78177 0.57367 0.0
C16 C 0.99238 0.80421 0.56312 0.0
O17 O 0.01862 0.79977 0.50735 0.0
C18 C 0.03227 0.709 0.33235 0.0
C19 C 0.0352 0.59312 0.1796 0.0
O20 O 0.06115 0.60781 0.17146 0.0
O21 O 0.01823 0.59796 0.2681 0.0
O22 O 0.7499 0.89828 0.18103 0.0
Cd23 Cd 0.79515 0.87728 0.28233 0.0
O24 O 0.75968 0.94119 0.27543 0.0
Cd25 Cd 0.74294 0.98737 0.31828 0.0
O26 O 0.69602 0.00428 0.34582 0.0
C27 C 0.68264 0.99411 0.43549 0.0
O28 O 0.69856 0.9771 0.50877 0.0
C29 C 0.74273 0.92618 0.20582 0.0
C30 C 0.84806 0.91081 0.22083 0.0
O31 O 0.8401 0.88613 0.16701 0.0
O32 O 0.83156 0.9194 0.30651 0.0
O33 O 0.51436 0.80493 0.25879 0.0
Cd34 Cd 0.51097 0.85991 0.31037 0.0
O35 O 0.53886 0.79608 0.42021 0.0
Cd36 Cd 0.55678 0.76242 0.54319 0.0
O37 O 0.55704 0.71759 0.63042 0.0
C38 C 0.53139 0.70285 0.62515 0.0
O39 O 0.50728 0.71597 0.57529 0.0
C40 C 0.52691 0.78591 0.32842 0.0
C41 C 0.50722 0.89854 0.11886 0.0
O42 O 0.53322 0.89471 0.17103 0.0
O43 O 0.48316 0.8841 0.15727 0.0
O44 O 0.27834 0.46029 0.35247 0.0
Cd45 Cd 0.33423 0.45487 0.3213 0.0
O46 O 0.26999 0.45212 0.16975 0.0
Cd47 Cd 0.23555 0.45019 0.034 0.0
O48 O 0.1896 0.45053 0.95631 0.0
C49 C 0.17912 0.4275 0.90043 0.0
O50 O 0.19667 0.40276 0.88488 0.0
C51 C 0.25968 0.45836 0.26884 0.0
C52 C 0.36597 0.48138 0.50364 0.0
O53 O 0.35483 0.49829 0.4228 0.0
O54 O 0.3624 0.45172 0.49786 0.0
O55 O 0.94241 0.24193 0.14606 0.0
Cd56 Cd 0.9506 0.29168 0.0483 0.0
O57 O 0.98934 0.22681 0.09416 0.0
Cd58 Cd 0.0275 0.19341 0.11221 0.0
O59 O 0.07027 0.1679 0.15111 0.0
C60 C 0.07304 0.13841 0.146 0.0
O61 O 0.09982 0.12553 0.17328 0.0
C62 C 0.96422 0.2219 0.14906 0.0
C63 C 0.95943 0.33622 0.2172 0.0
O64 O 0.9325 0.33229 0.17213 0.0
O65 O 0.98231 0.32003 0.17929 0.0
O66 O 0.20268 0.06913 0.2777 0.0
Cd67 Cd 0.14843 0.07506 0.21809 0.0
O68 O 0.21873 0.07409 0.09996 0.0
Cd69 Cd 0.25671 0.07245 0.97564 0.0
O70 O 0.30265 0.06623 0.89919 0.0
C71 C 0.32272 0.08789 0.90812 0.0
O72 O 0.3145 0.11466 0.95314 0.0
C73 C 0.22471 0.06912 0.20492 0.0
C74 C 0.10949 0.05437 0.39424 0.0
O75 O 0.12257 0.03515 0.32575 0.0
O76 O 0.11419 0.08359 0.37771 0.0
O77 O 0.5531 0.26791 0.13809 0.0
Cd78 Cd 0.55075 0.21559 0.05888 0.0
O79 O 0.50844 0.27579 0.05147 0.0
Cd80 Cd 0.46601 0.30314 0.02787 0.0
O81 O 0.41776 0.3183 0.00802 0.0
C82 C 0.40904 0.34649 0.9966 0.0
O83 O 0.37913 0.35258 0.98699 0.0
C84 C 0.52973 0.28525 0.11792 0.0
C85 C 0.53527 0.17477 0.23669 0.0
O86 O 0.56363 0.17796 0.20357 0.0
O87 O 0.51415 0.19034 0.18407 0.0
La88 La 0.01599 0.96909 0.94803 0.0
La89 La 0.96979 0.99746 0.78724 0.0
C90 C 0.04447 0.93486 0.08947 0.0
C91 C 0.04282 0.90156 0.12095 0.0
C92 C 0.04719 0.89255 0.23518 0.0
C93 C 0.0452 0.8611 0.26693 0.0
C94 C 0.03876 0.83823 0.1848 0.0
C95 C 0.03472 0.84719 0.07021 0.0
C96 C 0.03655 0.87865 0.03856 0.0
C97 C 0.04096 0.00149 0.77849 0.0
C98 C 0.98385 0.92739 0.75376 0.0
C99 C 0.94222 0.02982 0.63816 0.0
C100 C 0.94572 0.05999 0.57954 0.0
C101 C 0.91947 0.0737 0.52878 0.0
C102 C 0.9226 0.1007 0.4623 0.0
C103 C 0.9521 0.11414 0.44527 0.0
C104 C 0.97829 0.101 0.49892 0.0
C105 C 0.97514 0.07404 0.56594 0.0
C106 C 0.94449 0.9647 0.95668 0.0
C107 C 0.00075 0.03914 0.98075 0.0
O108 O 0.05482 0.94129 0.98669 0.0
O109 O 0.02014 0.95173 0.11625 0.0
O110 O 0.05282 0.99939 0.87998 0.0
O111 O 0.01731 0.98412 0.77337 0.0
O112 O 0.99867 0.92853 0.85288 0.0
O113 O 0.9718 0.95248 0.70594 0.0
O114 O 0.93495 0.03037 0.74696 0.0
O115 O 0.96368 0.00904 0.61516 0.0
O116 O 0.93255 0.96822 0.856 0.0
O117 O 0.96807 0.98217 0.96292 0.0
O118 O 0.98948 0.03797 0.87564 0.0
O119 O 0.01049 0.01348 0.03274 0.0
H120 H 0.05213 0.90985 0.29978 0.0
H121 H 0.04869 0.85455 0.35561 0.0
H122 H 0.03006 0.82984 0.00555 0.0
H123 H 0.03316 0.88496 0.94974 0.0
H124 H 0.89665 0.06307 0.53826 0.0
H125 H 0.90218 0.11071 0.42185 0.0
H126 H 0.00114 0.11138 0.48745 0.0
H127 H 0.99568 0.06376 0.60474 0.0
La128 La 0.51975 0.04802 0.7716 0.0
La129 La 0.48397 0.02276 0.56862 0.0
C130 C 0.55457 0.04811 0.94536 0.0
C131 C 0.58229 0.03003 0.97968 0.0
C132 C 0.59914 0.03827 0.07764 0.0
C133 C 0.62504 0.02059 0.11169 0.0
C134 C 0.63431 0.99449 0.04804 0.0
C135 C 0.6174 0.9862 0.95041 0.0
C136 C 0.59157 0.00383 0.91664 0.0
C137 C 0.50777 0.09002 0.61207 0.0
C138 C 0.55525 0.0161 0.5589 0.0
C139 C 0.44657 0.01417 0.40552 0.0
C140 C 0.41384 0.02247 0.38255 0.0
C141 C 0.39672 0.00497 0.30374 0.0
C142 C 0.36556 0.01237 0.28134 0.0
C143 C 0.35123 0.03765 0.3363 0.0
C144 C 0.36808 0.05461 0.41765 0.0
C145 C 0.39916 0.04707 0.44057 0.0
C146 C 0.49851 0.98217 0.72954 0.0
C147 C 0.44873 0.05953 0.77161 0.0
O148 O 0.55813 0.06723 0.85843 0.0
O149 O 0.52872 0.03197 0.93791 0.0
O150 O 0.51019 0.0962 0.72055 0.0
O151 O 0.51427 0.06162 0.59693 0.0
O152 O 0.55515 0.0236 0.66869 0.0
O153 O 0.52994 0.01735 0.49514 0.0
O154 O 0.45098 0.99405 0.48836 0.0
O155 O 0.46653 0.03725 0.40932 0.0
O156 O 0.49772 0.97542 0.62176 0.0
O157 O 0.48964 0.00982 0.74263 0.0
O158 O 0.44846 0.0483 0.66637 0.0
O159 O 0.47419 0.06078 0.83442 0.0
H160 H 0.59219 0.05825 0.12794 0.0
H161 H 0.63783 0.0272 0.18755 0.0
H162 H 0.62419 0.96608 0.90059 0.0
H163 H 0.57873 0.99687 0.84178 0.0
H164 H 0.40744 0.98556 0.2596 0.0
H165 H 0.3526 0.99846 0.22086 0.0
H166 H 0.35727 0.07389 0.46223 0.0
H167 H 0.41158 0.06057 0.50323 0.0
La168 La 0.4946 0.52934 0.9846 0.0
La169 La 0.4988 0.50653 0.73717 0.0
C170 C 0.50693 0.55594 0.17068 0.0
C171 C 0.51452 0.58856 0.19966 0.0
C172 C 0.50428 0.60103 0.3038 0.0
C173 C 0.50831 0.63282 0.32667 0.0
C174 C 0.52224 0.65264 0.24492 0.0
C175 C 0.53319 0.63998 0.14207 0.0
C176 C 0.52978 0.60815 0.12041 0.0
C177 C 0.44192 0.52878 0.86655 0.0
C178 C 0.5098 0.5765 0.77834 0.0
C179 C 0.48845 0.48367 0.54334 0.0
C180 C 0.49565 0.4546 0.48319 0.0
C181 C 0.52483 0.43997 0.49503 0.0
C182 C 0.53131 0.41259 0.43534 0.0
C183 C 0.50855 0.39939 0.36471 0.0
C184 C 0.47935 0.41376 0.35401 0.0
C185 C 0.47296 0.44132 0.41242 0.0
C186 C 0.55149 0.50572 0.85396 0.0
C187 C 0.4785 0.45992 0.94185 0.0
O188 O 0.47852 0.5513 0.13368 0.0
O189 O 0.52765 0.5409 0.10965 0.0
O190 O 0.44342 0.52419 0.97614 0.0
O191 O 0.46873 0.53561 0.83175 0.0
O192 O 0.51419 0.56901 0.88714 0.0
O193 O 0.49727 0.55648 0.70659 0.0
O194 O 0.51214 0.5019 0.56599 0.0
O195 O 0.46899 0.48128 0.6294 0.0
O196 O 0.5502 0.50857 0.74398 0.0
O197 O 0.52463 0.4999 0.89039 0.0
O198 O 0.47832 0.46673 0.83074 0.0
O199 O 0.4895 0.4796 0.01897 0.0
H200 H 0.4925 0.58636 0.36622 0.0
H201 H 0.49966 0.64219 0.40648 0.0
H202 H 0.544 0.65485 0.07796 0.0
H203 H 0.5386 0.59913 0.0407 0.0
H204 H 0.5426 0.4497 0.55003 0.0
H205 H 0.55392 0.40159 0.44466 0.0
H206 H 0.46164 0.40356 0.30036 0.0
H207 H 0.45031 0.45225 0.40255 0.0
La208 La 0.97972 0.44415 0.8028 0.0
La209 La 0.00405 0.48387 0.60952 0.0
C210 C 0.95405 0.42735 0.9879 0.0
C211 C 0.9281 0.43888 0.05851 0.0
C212 C 0.91782 0.42145 0.1533 0.0
C213 C 0.89282 0.43202 0.21989 0.0
C214 C 0.87765 0.46003 0.19121 0.0
C215 C 0.88834 0.47774 0.09771 0.0
C216 C 0.91344 0.4673 0.0321 0.0
C217 C 0.98469 0.41507 0.60567 0.0
C218 C 0.93441 0.4901 0.66342 0.0
C219 C 0.03378 0.50202 0.4357 0.0
C220 C 0.06696 0.49794 0.40644 0.0
C221 C 0.08962 0.49617 0.49308 0.0
C222 C 0.1207 0.48982 0.46607 0.0
C223 C 0.12968 0.48572 0.35198 0.0
C224 C 0.10735 0.48826 0.26513 0.0
C225 C 0.07602 0.49387 0.29236 0.0
C226 C 0.99895 0.51283 0.80625 0.0
C227 C 0.05065 0.44016 0.75897 0.0
O228 O 0.94653 0.41617 0.88776 0.0
O229 O 0.9785 0.44561 0.98193 0.0
O230 O 0.98798 0.40178 0.70495 0.0
O231 O 0.97601 0.44288 0.62026 0.0
O232 O 0.94082 0.47497 0.75935 0.0
O233 O 0.95504 0.49358 0.58033 0.0
O234 O 0.01721 0.47641 0.43852 0.0
O235 O 0.02792 0.51984 0.52349 0.0
O236 O 0.99448 0.52588 0.7074 0.0
O237 O 0.00779 0.4851 0.7911 0.0
O238 O 0.04599 0.45859 0.66901 0.0
O239 O 0.02766 0.43089 0.8259 0.0
H240 H 0.9289 0.39955 0.17491 0.0
H241 H 0.88489 0.41811 0.29201 0.0
H242 H 0.87692 0.49944 0.07457 0.0
H243 H 0.92118 0.48131 0.96045 0.0
H244 H 0.08332 0.49938 0.58186 0.0
H245 H 0.13774 0.48804 0.53406 0.0
H246 H 0.11429 0.48563 0.17677 0.0
H247 H 0.05884 0.49487 0.22472 0.0
C248 C 0.06989 0.01692 0.47469 0.0
C249 C 0.09003 0.04277 0.49118 0.0
C250 C 0.07293 0.045 0.69117 0.0
C251 C 0.05721 0.01602 0.67873 0.0
N252 N 0.05016 0.96999 0.56239 0.0
N253 N 0.11602 0.07674 0.62596 0.0
C254 C 0.05806 0.00073 0.57142 0.0
C255 C 0.09294 0.05575 0.60224 0.0
N256 N 0.06146 0.00804 0.36719 0.0
N257 N 0.06862 0.06263 0.78669 0.0
H258 H 0.13288 0.08368 0.56682 0.0
H259 H 0.12068 0.08441 0.70855 0.0
H260 H 0.05404 0.05591 0.85362 0.0
H261 H 0.07709 0.08535 0.79387 0.0
H262 H 0.04486 0.99071 0.35255 0.0
H263 H 0.06803 0.02045 0.29397 0.0
H264 H 0.05313 0.95752 0.48687 0.0
H265 H 0.04481 0.95595 0.63278 0.0
C266 C 0.5018 0.13311 0.32873 0.0
C267 C 0.52726 0.15423 0.3354 0.0
C268 C 0.54078 0.13264 0.52338 0.0
C269 C 0.51347 0.11383 0.52147 0.0
N270 N 0.46377 0.10306 0.43504 0.0
N271 N 0.56523 0.18002 0.45476 0.0
C272 C 0.49267 0.11618 0.42797 0.0
C273 C 0.54509 0.15579 0.43739 0.0
N274 N 0.48731 0.12779 0.22678 0.0
N275 N 0.56343 0.12764 0.60347 0.0
H276 H 0.56789 0.19848 0.397 0.0
H277 H 0.57651 0.18365 0.53238 0.0
H278 H 0.5622 0.11009 0.66531 0.0
H279 H 0.58509 0.13869 0.60031 0.0
H280 H 0.47061 0.11035 0.21618 0.0
H281 H 0.49429 0.13826 0.15021 0.0
H282 H 0.44649 0.10663 0.37377 0.0
H283 H 0.45627 0.09112 0.50779 0.0
C284 C 0.40421 0.5201 0.58292 0.0
C285 C 0.38225 0.49584 0.60196 0.0
C286 C 0.39403 0.4969 0.80758 0.0
C287 C 0.41574 0.52148 0.78715 0.0
N288 N 0.42938 0.56498 0.66524 0.0
N289 N 0.34915 0.46858 0.73725 0.0
C290 C 0.41675 0.5359 0.67792 0.0
C291 C 0.37506 0.48632 0.71578 0.0
N292 N 0.41485 0.52685 0.47532 0.0
N293 N 0.39148 0.48327 0.91288 0.0
H294 H 0.33361 0.46186 0.67357 0.0
H295 H 0.34113 0.46348 0.81943 0.0
H296 H 0.40041 0.49306 0.98677 0.0
H297 H 0.38028 0.46196 0.92648 0.0
H298 H 0.43305 0.5425 0.45998 0.0
H299 H 0.4083 0.51429 0.40326 0.0
H300 H 0.42876 0.57738 0.58826 0.0
H301 H 0.43691 0.57798 0.73515 0.0
C302 C 0.94463 0.35701 0.4112 0.0
C303 C 0.9641 0.35837 0.31266 0.0
C304 C 0.99761 0.39646 0.40757 0.0
C305 C 0.97687 0.39695 0.50209 0.0
N306 N 0.92661 0.38337 0.58153 0.0
N307 N 0.00397 0.38588 0.20606 0.0
C308 C 0.94903 0.37908 0.49983 0.0
C309 C 0.98909 0.38005 0.30747 0.0
N310 N 0.92328 0.33353 0.42414 0.0
N311 N 0.02603 0.41057 0.41475 0.0
H312 H 0.99751 0.37528 0.12966 0.0
H313 H 0.02032 0.40369 0.19543 0.0
H314 H 0.03291 0.42271 0.48706 0.0
H315 H 0.04347 0.40814 0.35319 0.0
H316 H 0.91089 0.3297 0.49969 0.0
H317 H 0.92019 0.31586 0.3645 0.0
H318 H 0.90449 0.37336 0.57686 0.0
H319 H 0.92895 0.39934 0.64788 0.0
C320 C 0.87127 0.9588 0.13056 0.0
C321 C 0.87547 0.92902 0.18213 0.0
C322 C 0.92966 0.92742 0.11515 0.0
C323 C 0.92448 0.95584 0.05526 0.0
N324 N 0.89552 0.00367 0.03865 0.0
N325 N 0.90993 0.88894 0.25147 0.0
C326 C 0.89693 0.97327 0.0744 0.0
C327 C 0.90529 0.91473 0.18411 0.0
N328 N 0.84236 0.97226 0.12832 0.0
N329 N 0.95732 0.91211 0.10206 0.0
H330 H 0.89247 0.87975 0.30422 0.0
H331 H 0.93132 0.8779 0.26201 0.0
H332 H 0.97527 0.92117 0.05206 0.0
H333 H 0.96212 0.89001 0.13481 0.0
H334 H 0.83701 0.99198 0.07972 0.0
H335 H 0.82302 0.96269 0.16983 0.0
H336 H 0.87718 0.01863 0.05851 0.0
H337 H 0.91434 0.01483 0.99889 0.0
C338 C 0.52719 0.91704 0.92691 0.0
C339 C 0.50491 0.91922 0.01685 0.0
C340 C 0.47527 0.95698 0.9033 0.0
C341 C 0.50011 0.95888 0.82351 0.0
N342 N 0.55177 0.94303 0.76595 0.0
N343 N 0.46124 0.94702 0.09969 0.0
C344 C 0.52667 0.93949 0.83687 0.0
C345 C 0.47984 0.94074 0.00763 0.0
N346 N 0.54786 0.89278 0.92415 0.0
N347 N 0.44677 0.96936 0.87753 0.0
H348 H 0.46482 0.93724 0.18043 0.0
H349 H 0.44454 0.96472 0.09878 0.0
H350 H 0.44196 0.9802 0.79941 0.0
H351 H 0.42712 0.96575 0.92869 0.0
H352 H 0.56256 0.88856 0.85487 0.0
H353 H 0.54802 0.87487 0.98487 0.0
H354 H 0.57308 0.93194 0.7797 0.0
H355 H 0.55223 0.95933 0.69967 0.0
C356 C 0.61685 0.49569 0.07152 0.0
C357 C 0.62635 0.52724 0.0852 0.0
C358 C 0.59149 0.54301 0.93038 0.0
C359 C 0.57884 0.51241 0.92716 0.0
N360 N 0.5769 0.46013 0.00537 0.0
N361 N 0.61566 0.58181 0.04944 0.0
C362 C 0.59055 0.48895 0.00185 0.0
C363 C 0.61168 0.55118 0.02082 0.0
N364 N 0.63388 0.472 0.11916 0.0
N365 N 0.58474 0.56432 0.84697 0.0
H366 H 0.62874 0.58885 0.11975 0.0
H367 H 0.60292 0.59989 0.01197 0.0
H368 H 0.57114 0.55905 0.77653 0.0
H369 H 0.59557 0.58607 0.84115 0.0
H370 H 0.62976 0.44852 0.10227 0.0
H371 H 0.65415 0.4757 0.16616 0.0
H372 H 0.5821 0.44345 0.06772 0.0
H373 H 0.55905 0.45351 0.95021 0.0
C374 C 0.04756 0.55076 0.03865 0.0
C375 C 0.02528 0.57118 0.08845 0.0
C376 C 0.98478 0.54904 0.96499 0.0
C377 C 0.00787 0.53168 0.90645 0.0
N378 N 0.06265 0.52266 0.86902 0.0
N379 N 0.97395 0.59472 0.07821 0.0
C380 C 0.03969 0.53433 0.93796 0.0
C381 C 0.9941 0.57158 0.04672 0.0
N382 N 0.07595 0.54622 0.08895 0.0
N383 N 0.95392 0.54403 0.94273 0.0
H384 H 0.98023 0.61314 0.13104 0.0
H385 H 0.95204 0.5977 0.04138 0.0
H386 H 0.94633 0.52814 0.88178 0.0
H387 H 0.93598 0.55356 0.99155 0.0
H388 H 0.09197 0.52974 0.06021 0.0
H389 H 0.08204 0.55595 0.1672 0.0
H390 H 0.0863 0.52683 0.88259 0.0
H391 H 0.05819 0.51169 0.7916 0.0
C392 C 0.96514 0.19768 0.34363 0.0
C393 C 0.96145 0.19416 0.22392 0.0
C394 C 0.9539 0.13777 0.24831 0.0
C395 C 0.95557 0.14168 0.36877 0.0
N396 N 0.9581 0.17531 0.5329 0.0
N397 N 0.95065 0.16219 0.06021 0.0
C398 C 0.96001 0.17162 0.41699 0.0
C399 C 0.95545 0.1645 0.17549 0.0
N400 N 0.97458 0.22574 0.38676 0.0
N401 N 0.95121 0.1084 0.20414 0.0
H402 H 0.95224 0.18127 0.00461 0.0
H403 H 0.94349 0.14197 0.01927 0.0
H404 H 0.94987 0.08836 0.25494 0.0
H405 H 0.95188 0.10334 0.11744 0.0
H406 H 0.9812 0.22893 0.47142 0.0
H407 H 0.97822 0.24552 0.33594 0.0
H408 H 0.95753 0.19696 0.57271 0.0
H409 H 0.95457 0.15674 0.58963 0.0
C410 C 0.26351 0.03202 0.29103 0.0
C411 C 0.25698 0.06167 0.24167 0.0
C412 C 0.31255 0.07527 0.25011 0.0
C413 C 0.31862 0.04652 0.30718 0.0
N414 N 0.299 0.00077 0.40479 0.0
N415 N 0.27396 0.11376 0.1932 0.0
C416 C 0.29382 0.02583 0.33436 0.0
C417 C 0.28115 0.084 0.22677 0.0
N418 N 0.24117 0.00922 0.29203 0.0
N419 N 0.33685 0.09364 0.21437 0.0
H420 H 0.25123 0.12095 0.17539 0.0
H421 H 0.29 0.13202 0.19243 0.0
H422 H 0.36018 0.08751 0.2257 0.0
H423 H 0.33415 0.11379 0.16532 0.0
H424 H 0.2457 0.98615 0.31525 0.0
H425 H 0.21877 0.01252 0.25959 0.0
H426 H 0.28116 0.98676 0.43736 0.0
H427 H 0.32079 0.99575 0.43986 0.0
C428 C 0.53189 0.34359 0.12733 0.0
C429 C 0.52545 0.31456 0.18151 0.0
C430 C 0.51032 0.34111 0.35809 0.0
C431 C 0.51508 0.3702 0.30216 0.0
N432 N 0.52909 0.40029 0.13508 0.0
N433 N 0.50509 0.28496 0.34123 0.0
C434 C 0.52551 0.37178 0.18693 0.0
C435 C 0.51387 0.3131 0.2952 0.0
N436 N 0.54453 0.34396 0.01976 0.0
N437 N 0.50287 0.34034 0.47194 0.0
H438 H 0.50785 0.26381 0.29876 0.0
H439 H 0.49309 0.28254 0.41821 0.0
H440 H 0.49877 0.36038 0.51984 0.0
H441 H 0.50269 0.32007 0.5214 0.0
H442 H 0.55212 0.36395 0.97724 0.0
H443 H 0.54899 0.32366 0.97375 0.0
H444 H 0.53486 0.40351 0.0496 0.0
H445 H 0.52531 0.42135 0.17711 0.0
C446 C 0.20554 0.44068 0.31867 0.0
C447 C 0.22614 0.46503 0.28554 0.0
C448 C 0.18346 0.50304 0.29521 0.0
C449 C 0.16262 0.47847 0.32388 0.0
N450 N 0.15196 0.42346 0.34286 0.0
N451 N 0.2345 0.51819 0.22366 0.0
C452 C 0.17313 0.44711 0.32968 0.0
C453 C 0.215 0.49588 0.26804 0.0
N454 N 0.21712 0.41161 0.34208 0.0
N455 N 0.17327 0.53328 0.29734 0.0
H456 H 0.25798 0.51404 0.20576 0.0
H457 H 0.22702 0.54015 0.19679 0.0
H458 H 0.15011 0.53934 0.31357 0.0
H459 H 0.188 0.55252 0.29044 0.0
H460 H 0.204 0.39376 0.37924 0.0
H461 H 0.24059 0.40586 0.3314 0.0
H462 H 0.15759 0.39993 0.33567 0.0
H463 H 0.12807 0.42738 0.35237 0.0
C464 C 0.00716 0.75619 0.24289 0.0
C465 C 0.03365 0.742 0.29393 0.0
C466 C 0.06426 0.78943 0.25868 0.0
C467 C 0.037 0.80475 0.21888 0.0
N468 N 0.98143 0.80415 0.18516 0.0
N469 N 0.08577 0.74669 0.36941 0.0
C470 C 0.00811 0.7885 0.21391 0.0
C471 C 0.06179 0.75904 0.30693 0.0
N472 N 0.98146 0.73852 0.2187 0.0
N473 N 0.09276 0.80345 0.24645 0.0
H474 H 0.08479 0.72462 0.40747 0.0
H475 H 0.10545 0.75942 0.39255 0.0
H476 H 0.09567 0.82546 0.20929 0.0
H477 H 0.11376 0.79207 0.26271 0.0
H478 H 0.96278 0.7466 0.17015 0.0
H479 H 0.97987 0.71484 0.23911 0.0
H480 H 0.95921 0.79448 0.19237 0.0
H481 H 0.98106 0.82781 0.16377 0.0
C482 C 0.71875 0.96861 0.08611 0.0
C483 C 0.71475 0.94151 0.15546 0.0
C484 C 0.65775 0.94846 0.15084 0.0
C485 C 0.66194 0.97579 0.08312 0.0
N486 N 0.69501 0.00939 0.96998 0.0
N487 N 0.68105 0.90333 0.2449 0.0
C488 C 0.69208 0.98517 0.04621 0.0
C489 C 0.68435 0.93056 0.18419 0.0
N490 N 0.74822 0.97869 0.05966 0.0
N491 N 0.62828 0.94026 0.18534 0.0
H492 H 0.69985 0.8907 0.27725 0.0
H493 H 0.65987 0.89232 0.26088 0.0
H494 H 0.60843 0.95289 0.16255 0.0
H495 H 0.62307 0.92172 0.23979 0.0
H496 H 0.75323 0.00031 0.02309 0.0
H497 H 0.7682 0.96573 0.07814 0.0
H498 H 0.71578 0.01554 0.92955 0.0
H499 H 0.67606 0.02241 0.94065 0.0
C500 C 0.55413 0.73515 0.28802 0.0
C501 C 0.52598 0.75188 0.30584 0.0
C502 C 0.49571 0.70445 0.26924 0.0
C503 C 0.52379 0.68695 0.26416 0.0
N504 N 0.5799 0.6848 0.27964 0.0
N505 N 0.47016 0.75155 0.33347 0.0
C506 C 0.5531 0.70209 0.27617 0.0
C507 C 0.4968 0.7363 0.30178 0.0
N508 N 0.58172 0.751 0.27867 0.0
N509 N 0.46808 0.69103 0.23807 0.0
H510 H 0.46991 0.77482 0.35904 0.0
H511 H 0.44878 0.74035 0.3447 0.0
H512 H 0.46633 0.66798 0.2106 0.0
H513 H 0.44745 0.70358 0.22832 0.0
H514 H 0.60257 0.74068 0.25319 0.0
H515 H 0.58336 0.77516 0.28719 0.0
H516 H 0.60161 0.694 0.30042 0.0
H517 H 0.58012 0.66056 0.27235 0.0
C518 C 0.79301 0.46907 0.28377 0.0
C519 C 0.7946 0.49831 0.33941 0.0
C520 C 0.85177 0.49655 0.32855 0.0
C521 C 0.84956 0.47052 0.25476 0.0
N522 N 0.81803 0.43278 0.15522 0.0
N523 N 0.82542 0.54084 0.41343 0.0
C524 C 0.8202 0.45667 0.23173 0.0
C525 C 0.82401 0.5121 0.36362 0.0
N526 N 0.76546 0.45299 0.28225 0.0
N527 N 0.88046 0.50638 0.3642 0.0
H528 H 0.80574 0.55307 0.4401 0.0
H529 H 0.84593 0.55362 0.42195 0.0
H530 H 0.90108 0.4952 0.34028 0.0
H531 H 0.88378 0.52372 0.42482 0.0
H532 H 0.76343 0.43023 0.25251 0.0
H533 H 0.74526 0.46125 0.32186 0.0
H534 H 0.79687 0.42438 0.12447 0.0
H535 H 0.83738 0.42274 0.11576 0.0
C536 C 0.03366 0.11996 0.00203 0.0
C537 C 0.0464 0.11824 0.11377 0.0
C538 C 0.01569 0.07098 0.15309 0.0
C539 C 0.00768 0.06997 0.03554 0.0
N540 N 0.99239 0.10278 0.87667 0.0
N541 N 0.04473 0.09671 0.30431 0.0
C542 C 0.01133 0.09739 0.9683 0.0
C543 C 0.03556 0.09528 0.19263 0.0
N544 N 0.04419 0.1418 0.92552 0.0
N545 N 0.00261 0.04975 0.22667 0.0
H546 H 0.05721 0.1156 0.33666 0.0
H547 H 0.04014 0.07957 0.36534 0.0
H548 H 0.98519 0.03437 0.20035 0.0
H549 H 0.00636 0.04909 0.31438 0.0
H550 H 0.03844 0.14145 0.83903 0.0
H551 H 0.06048 0.1589 0.94623 0.0
H552 H 0.99289 0.12342 0.82909 0.0
H553 H 0.97286 0.08905 0.86016 0.0
C554 C 0.37245 0.05796 0.93596 0.0
C555 C 0.35583 0.08208 0.87847 0.0
C556 C 0.40268 0.09526 0.76705 0.0
C557 C 0.41859 0.07006 0.81992 0.0
N558 N 0.42182 0.03264 0.9745 0.0
N559 N 0.35341 0.1212 0.72953 0.0
C560 C 0.40443 0.0529 0.9101 0.0
C561 C 0.37059 0.10036 0.79222 0.0
N562 N 0.35737 0.03889 0.01218 0.0
N563 N 0.4189 0.11528 0.69745 0.0
H564 H 0.32978 0.12531 0.74441 0.0
H565 H 0.36174 0.13263 0.65684 0.0
H566 H 0.44285 0.11308 0.68385 0.0
H567 H 0.4097 0.13575 0.66318 0.0
H568 H 0.36617 0.0173 0.03743 0.0
H569 H 0.33512 0.04332 0.0441 0.0
H570 H 0.41396 0.0224 0.05023 0.0
H571 H 0.44522 0.0279 0.95844 0.0
C572 C 0.45543 0.37526 0.91451 0.0
C573 C 0.43171 0.37267 0.99885 0.0
C574 C 0.44242 0.42604 0.06278 0.0
C575 C 0.46601 0.42883 0.97722 0.0
N576 N 0.50143 0.40295 0.84839 0.0
N577 N 0.40885 0.39147 0.17339 0.0
C578 C 0.47461 0.40232 0.91193 0.0
C579 C 0.42732 0.39677 0.07967 0.0
N580 N 0.45842 0.35294 0.83224 0.0
N581 N 0.43289 0.4515 0.12339 0.0
H582 H 0.39818 0.36999 0.18956 0.0
H583 H 0.40663 0.40705 0.24086 0.0
H584 H 0.4431 0.47342 0.11669 0.0
H585 H 0.4131 0.45161 0.17519 0.0
H586 H 0.47274 0.35553 0.76071 0.0
H587 H 0.44479 0.33281 0.83018 0.0
H588 H 0.51048 0.38343 0.80737 0.0
H589 H 0.51653 0.42206 0.84761 0.0
C590 C 0.12251 0.43146 0.94761 0.0
C591 C 0.14614 0.42753 0.86415 0.0
C592 C 0.10624 0.42466 0.71552 0.0
C593 C 0.08325 0.43397 0.79604 0.0
N594 N 0.0717 0.45289 0.98675 0.0
N595 N 0.16109 0.4244 0.66558 0.0
C596 C 0.09186 0.439 0.91194 0.0
C597 C 0.13822 0.42515 0.74705 0.0
N598 N 0.1292 0.42752 0.06097 0.0
N599 N 0.0975 0.41392 0.61094 0.0
H600 H 0.18481 0.42472 0.68518 0.0
H601 H 0.15647 0.42618 0.57845 0.0
H602 H 0.07421 0.41088 0.58928 0.0
H603 H 0.1131 0.40437 0.55237 0.0
H604 H 0.11205 0.42673 0.12425 0.0
H605 H 0.15139 0.42156 0.09033 0.0
H606 H 0.07769 0.45842 0.07018 0.0
H607 H 0.05026 0.4623 0.96333 0.0
C608 C 0.97892 0.83979 0.72656 0.0
C609 C 0.98504 0.83553 0.60863 0.0
C610 C 0.98682 0.89218 0.57944 0.0
C611 C 0.98019 0.89647 0.69766 0.0
N612 N 0.95709 0.87441 0.86772 0.0
N613 N 0.98378 0.85717 0.41836 0.0
C614 C 0.97235 0.87023 0.76657 0.0
C615 C 0.98557 0.86161 0.53359 0.0
N616 N 0.98051 0.81522 0.80135 0.0
N617 N 0.99561 0.91667 0.51124 0.0
H618 H 0.98165 0.83505 0.38276 0.0
H619 H 0.98117 0.87534 0.35959 0.0
H620 H 0.99637 0.93968 0.53808 0.0
H621 H 0.0043 0.91383 0.42873 0.0
H622 H 0.97926 0.81795 0.88973 0.0
H623 H 0.98574 0.79252 0.77611 0.0
H624 H 0.94892 0.85603 0.91839 0.0
H625 H 0.9488 0.89628 0.8916 0.0
C626 C 0.63799 0.0309 0.4644 0.0
C627 C 0.64901 0.9998 0.45398 0.0
C628 C 0.59597 0.97957 0.48501 0.0
C629 C 0.58579 0.01041 0.50474 0.0
N630 N 0.5934 0.06553 0.47808 0.0
N631 N 0.63933 0.9442 0.45534 0.0
C632 C 0.60574 0.03614 0.48369 0.0
C633 C 0.62816 0.974 0.46359 0.0
N634 N 0.65865 0.05527 0.46401 0.0
N635 N 0.57455 0.95594 0.48191 0.0
H636 H 0.66212 0.93906 0.4309 0.0
H637 H 0.62645 0.92437 0.47608 0.0
H638 H 0.55074 0.95981 0.49368 0.0
H639 H 0.57963 0.93316 0.45813 0.0
H640 H 0.65259 0.07808 0.48442 0.0
H641 H 0.6826 0.05249 0.45225 0.0
H642 H 0.60584 0.08518 0.45186 0.0
H643 H 0.56961 0.06973 0.48818 0.0
C644 C 0.50978 0.6652 0.76827 0.0
C645 C 0.52858 0.67074 0.67056 0.0
C646 C 0.53594 0.61448 0.64412 0.0
C647 C 0.51616 0.60886 0.74003 0.0
N648 N 0.47922 0.62829 0.87899 0.0
N649 N 0.56429 0.65205 0.52737 0.0
C650 C 0.50198 0.63406 0.79922 0.0
C651 C 0.54301 0.64575 0.61176 0.0
N652 N 0.50041 0.6898 0.83395 0.0
N653 N 0.54722 0.58999 0.58182 0.0
H654 H 0.56985 0.67463 0.50109 0.0
H655 H 0.57827 0.63535 0.48851 0.0
H656 H 0.54447 0.5667 0.60558 0.0
H657 H 0.55797 0.59235 0.50243 0.0
H658 H 0.48994 0.68728 0.91389 0.0
H659 H 0.50578 0.71294 0.81353 0.0
H660 H 0.46573 0.64563 0.91653 0.0
H661 H 0.47141 0.60595 0.9002 0.0
C662 C 0.86802 0.54318 0.73149 0.0
C663 C 0.84534 0.51966 0.75184 0.0
C664 C 0.87769 0.4819 0.64981 0.0
C665 C 0.90273 0.50323 0.65438 0.0
N666 N 0.92162 0.55544 0.67952 0.0
N667 N 0.82693 0.46697 0.72373 0.0
C668 C 0.89763 0.53455 0.6867 0.0
C669 C 0.84928 0.48928 0.70617 0.0
N670 N 0.86099 0.5736 0.75469 0.0
N671 N 0.88166 0.45448 0.59278 0.0
H672 H 0.80573 0.47153 0.76408 0.0
H673 H 0.82995 0.44354 0.70366 0.0
H674 H 0.9025 0.44931 0.55044 0.0
H675 H 0.86377 0.43859 0.57777 0.0
H676 H 0.87553 0.59232 0.73469 0.0
H677 H 0.83922 0.58039 0.78601 0.0
H678 H 0.92111 0.57764 0.71491 0.0
H679 H 0.94253 0.55002 0.63859 0.0
loop_
_geom_bond_atom_site_label_1
_geom_bond_atom_site_label_2
_geom_bond_distance
_geom_bond_site_symmetry_2
_ccdc_geom_bond_type
O0 Cd1 2.300 . S
O0 C7 1.275 . S
Cd1 O0 2.300 . S
Cd1 O9 2.381 . S
Cd1 O10 2.378 . S
O2 Cd3 2.385 . S
O2 C7 1.255 . S
Cd3 O2 2.385 . S
Cd3 O4 2.317 . S
O4 Cd3 2.317 . S
O4 C5 1.232 . S
C5 O4 1.232 . S
C5 O6 1.218 . S
O6 C5 1.218 . S
C7 O0 1.275 . S
C7 O2 1.255 . S
C8 O9 1.258 . S
C8 O10 1.256 . S
O9 Cd1 2.381 . S
O9 C8 1.258 . S
O10 Cd1 2.378 . S
O10 C8 1.256 . S
O11 Cd12 2.300 1_655 S
O11 C18 1.275 1_655 S
Cd12 O11 2.300 1_455 S
Cd12 O20 2.381 1_455 S
Cd12 O21 2.378 . S
O13 Cd14 2.385 . S
O13 C18 1.255 . S
Cd14 O13 2.385 . S
Cd14 O15 2.317 . S
O15 Cd14 2.317 . S
O15 C16 1.232 . S
C16 O15 1.232 . S
C16 O17 1.218 . S
O17 C16 1.218 . S
C18 O11 1.275 1_455 S
C18 O13 1.255 . S
C19 O20 1.258 1_455 S
C19 O21 1.256 . S
O20 Cd12 2.381 1_655 S
O20 C19 1.258 1_655 S
O21 Cd12 2.378 . S
O21 C19 1.256 . S
O22 Cd23 2.300 1_565 S
O22 C29 1.275 1_565 S
Cd23 O22 2.300 1_545 S
Cd23 O31 2.381 1_545 S
Cd23 O32 2.378 . S
O24 Cd25 2.385 . S
O24 C29 1.255 . S
Cd25 O24 2.385 . S
Cd25 O26 2.317 . S
O26 Cd25 2.317 . S
O26 C27 1.232 . S
C27 O26 1.232 . S
C27 O28 1.218 . S
O28 C27 1.218 . S
C29 O22 1.275 1_545 S
C29 O24 1.255 . S
C30 O31 1.258 1_545 S
C30 O32 1.256 . S
O31 Cd23 2.381 1_565 S
O31 C30 1.258 1_565 S
O32 Cd23 2.378 . S
O32 C30 1.256 . S
O33 Cd34 2.300 . S
O33 C40 1.275 . S
Cd34 O33 2.300 . S
Cd34 O42 2.381 . S
Cd34 O43 2.378 . S
O35 Cd36 2.385 . S
O35 C40 1.255 . S
Cd36 O35 2.385 . S
Cd36 O37 2.317 . S
O37 Cd36 2.317 . S
O37 C38 1.232 . S
C38 O37 1.232 . S
C38 O39 1.218 . S
O39 C38 1.218 . S
C40 O33 1.275 . S
C40 O35 1.255 . S
C41 O42 1.258 . S
C41 O43 1.256 . S
O42 Cd34 2.381 . S
O42 C41 1.258 . S
O43 Cd34 2.378 . S
O43 C41 1.256 . S
O44 Cd45 2.300 . S
O44 C51 1.275 . S
Cd45 O44 2.300 . S
Cd45 O53 2.381 . S
Cd45 O54 2.378 . S
O46 Cd47 2.385 1_554 S
O46 C51 1.255 . S
Cd47 O46 2.385 1_556 S
Cd47 O48 2.317 . S
O48 Cd47 2.317 . S
O48 C49 1.232 . S
C49 O48 1.232 . S
C49 O50 1.218 . S
O50 C49 1.218 . S
C51 O44 1.275 . S
C51 O46 1.255 . S
C52 O53 1.258 . S
C52 O54 1.256 . S
O53 Cd45 2.381 . S
O53 C52 1.258 . S
O54 Cd45 2.378 . S
O54 C52 1.256 . S
O55 Cd56 2.300 1_655 S
O55 C62 1.275 1_655 S
Cd56 O55 2.300 1_455 S
Cd56 O64 2.381 1_455 S
Cd56 O65 2.378 . S
O57 Cd58 2.385 1_554 S
O57 C62 1.255 . S
Cd58 O57 2.385 1_556 S
Cd58 O59 2.317 . S
O59 Cd58 2.317 . S
O59 C60 1.232 . S
C60 O59 1.232 . S
C60 O61 1.218 . S
O61 C60 1.218 . S
C62 O55 1.275 1_455 S
C62 O57 1.255 . S
C63 O64 1.258 1_455 S
C63 O65 1.256 . S
O64 Cd56 2.381 1_655 S
O64 C63 1.258 1_655 S
O65 Cd56 2.378 . S
O65 C63 1.256 . S
O66 Cd67 2.300 1_565 S
O66 C73 1.275 1_565 S
Cd67 O66 2.300 1_545 S
Cd67 O75 2.381 1_545 S
Cd67 O76 2.378 . S
O68 Cd69 2.385 1_554 S
O68 C73 1.255 . S
Cd69 O68 2.385 1_556 S
Cd69 O70 2.317 . S
O70 Cd69 2.317 . S
O70 C71 1.232 . S
C71 O70 1.232 . S
C71 O72 1.218 . S
O72 C71 1.218 . S
C73 O66 1.275 1_545 S
C73 O68 1.255 . S
C74 O75 1.258 1_545 S
C74 O76 1.256 . S
O75 Cd67 2.381 1_565 S
O75 C74 1.258 1_565 S
O76 Cd67 2.378 . S
O76 C74 1.256 . S
O77 Cd78 2.300 . S
O77 C84 1.275 . S
Cd78 O77 2.300 . S
Cd78 O86 2.381 . S
Cd78 O87 2.378 . S
O79 Cd80 2.385 1_554 S
O79 C84 1.255 . S
Cd80 O79 2.385 1_556 S
Cd80 O81 2.317 . S
O81 Cd80 2.317 . S
O81 C82 1.232 . S
C82 O81 1.232 . S
C82 O83 1.218 . S
O83 C82 1.218 . S
C84 O77 1.275 . S
C84 O79 1.255 . S
C85 O86 1.258 . S
C85 O87 1.256 . S
O86 Cd78 2.381 . S
O86 C85 1.258 . S
O87 Cd78 2.378 . S
O87 C85 1.256 . S
La88 C90 2.928 1_556 S
La88 O108 2.521 . S
La88 O109 2.628 1_556 S
La88 O110 2.554 . S
La88 O111 2.757 1_565 S
La88 O112 2.470 . S
La88 O117 2.482 1_455 S
La88 O119 2.503 1_565 S
La89 C99 2.928 . S
La89 O111 2.482 1_655 S
La89 O113 2.503 1_545 S
La89 O114 2.521 . S
La89 O115 2.628 . S
La89 O116 2.554 . S
La89 O117 2.757 1_545 S
La89 O118 2.470 . S
C90 La88 2.928 1_554 S
C90 C91 1.503 . S
C90 O108 1.261 1_554 S
C90 O109 1.243 . S
C91 C90 1.503 . S
C91 C92 1.394 . S
C91 C96 1.373 . S
C92 C91 1.394 . S
C92 C93 1.380 . S
C92 H120 0.930 . S
C93 C92 1.380 . S
C93 C94 1.376 . S
C93 H121 0.930 . S
C94 C93 1.376 . S
C94 C95 1.370 . S
C95 C94 1.370 . S
C95 C96 1.396 . S
C95 H122 0.944 . S
C96 C91 1.373 . S
C96 C95 1.396 . S
C96 H123 0.929 1_455 S
C97 O110 1.240 . S
C97 O111 1.289 1_565 S
C98 O112 1.258 1_655 S
C98 O113 1.256 . S
C99 La89 2.928 . S
C99 C100 1.503 . S
C99 O114 1.261 . S
C99 O115 1.243 . S
C100 C99 1.503 . S
C100 C101 1.394 . S
C100 C105 1.373 . S
C101 C100 1.394 . S
C101 C102 1.380 . S
C101 H124 0.930 . S
C102 C101 1.380 . S
C102 C103 1.376 . S
C102 H125 0.930 . S
C103 C102 1.376 . S
C103 C104 1.370 . S
C104 C103 1.370 . S
C104 C105 1.396 . S
C104 H126 0.938 . S
C105 C100 1.373 . S
C105 C104 1.396 . S
C105 H127 0.929 1_655 S
C106 O116 1.240 . S
C106 O117 1.289 1_545 S
C107 O118 1.258 1_455 S
C107 O119 1.256 . S
O108 La88 2.521 . S
O108 C90 1.261 1_556 S
O109 La88 2.628 1_554 S
O109 C90 1.243 . S
O110 La88 2.554 . S
O110 C97 1.240 . S
O111 La88 2.757 1_545 S
O111 La89 2.482 1_455 S
O111 C97 1.289 1_545 S
O112 La88 2.470 . S
O112 C98 1.258 1_455 S
O113 La89 2.503 1_565 S
O113 C98 1.256 . S
O114 La89 2.521 . S
O114 C99 1.261 . S
O115 La89 2.628 . S
O115 C99 1.243 . S
O116 La89 2.554 . S
O116 C106 1.240 . S
O117 La88 2.482 1_655 S
O117 La89 2.757 1_565 S
O117 C106 1.289 1_565 S
O118 La89 2.470 . S
O118 C107 1.258 1_655 S
O119 La88 2.503 1_545 S
O119 C107 1.256 . S
H120 C92 0.930 . S
H121 C93 0.930 . S
H122 C95 0.944 . S
H123 C96 0.929 1_655 S
H124 C101 0.930 . S
H125 C102 0.930 . S
H126 C104 0.938 . S
H127 C105 0.929 1_455 S
La128 C130 2.928 1_556 S
La128 O148 2.521 . S
La128 O149 2.628 1_556 S
La128 O150 2.554 . S
La128 O151 2.757 . S
La128 O152 2.470 . S
La128 O157 2.482 1_545 S
La128 O159 2.503 . S
La129 C139 2.928 . S
La129 O151 2.482 1_565 S
La129 O153 2.503 . S
La129 O154 2.521 . S
La129 O155 2.628 . S
La129 O156 2.554 . S
La129 O157 2.757 . S
La129 O158 2.470 . S
C130 La128 2.928 1_554 S
C130 C131 1.503 . S
C130 O148 1.261 1_554 S
C130 O149 1.243 . S
C131 C130 1.503 . S
C131 C132 1.394 . S
C131 C136 1.373 . S
C132 C131 1.394 . S
C132 C133 1.380 . S
C132 H160 0.930 . S
C133 C132 1.380 . S
C133 C134 1.376 . S
C133 H161 0.930 . S
C134 C133 1.376 . S
C134 C135 1.370 . S
C135 C134 1.370 . S
C135 C136 1.396 . S
C135 H162 0.906 1_545 S
C136 C131 1.373 . S
C136 C135 1.396 . S
C136 H163 0.929 1_545 S
C137 O150 1.240 . S
C137 O151 1.289 . S
C138 O152 1.258 1_565 S
C138 O153 1.256 . S
C139 La129 2.928 . S
C139 C140 1.503 . S
C139 O154 1.261 . S
C139 O155 1.243 . S
C140 C139 1.503 . S
C140 C141 1.394 . S
C140 C145 1.373 . S
C141 C140 1.394 . S
C141 C142 1.380 . S
C141 H164 0.930 . S
C142 C141 1.380 . S
C142 C143 1.376 . S
C142 H165 0.930 . S
C143 C142 1.376 . S
C143 C144 1.370 . S
C144 C143 1.370 . S
C144 C145 1.396 . S
C144 H166 0.899 1_565 S
C145 C140 1.373 . S
C145 C144 1.396 . S
C145 H167 0.929 1_565 S
C146 O156 1.240 . S
C146 O157 1.289 . S
C147 O158 1.258 1_545 S
C147 O159 1.256 . S
O148 La128 2.521 . S
O148 C130 1.261 1_556 S
O149 La128 2.628 1_554 S
O149 C130 1.243 . S
O150 La128 2.554 . S
O150 C137 1.240 . S
O151 La128 2.757 . S
O151 La129 2.482 1_545 S
O151 C137 1.289 . S
O152 La128 2.470 . S
O152 C138 1.258 1_545 S
O153 La129 2.503 . S
O153 C138 1.256 . S
O154 La129 2.521 . S
O154 C139 1.261 . S
O155 La129 2.628 . S
O155 C139 1.243 . S
O156 La129 2.554 . S
O156 C146 1.240 . S
O157 La128 2.482 1_565 S
O157 La129 2.757 . S
O157 C146 1.289 . S
O158 La129 2.470 . S
O158 C147 1.258 1_565 S
O159 La128 2.503 . S
O159 C147 1.256 . S
H160 C132 0.930 . S
H161 C133 0.930 . S
H162 C135 0.906 1_565 S
H163 C136 0.929 1_565 S
H164 C141 0.930 . S
H165 C142 0.930 . S
H166 C144 0.899 1_545 S
H167 C145 0.929 1_545 S
La168 C170 2.928 1_556 S
La168 O188 2.521 . S
La168 O189 2.628 1_556 S
La168 O190 2.554 . S
La168 O191 2.757 . S
La168 O192 2.470 . S
La168 O197 2.482 . S
La168 O199 2.503 . S
La169 C179 2.928 . S
La169 O191 2.482 . S
La169 O193 2.503 . S
La169 O194 2.521 . S
La169 O195 2.628 . S
La169 O196 2.554 . S
La169 O197 2.757 . S
La169 O198 2.470 . S
C170 La168 2.928 1_554 S
C170 C171 1.503 . S
C170 O188 1.261 1_554 S
C170 O189 1.243 . S
C171 C170 1.503 . S
C171 C172 1.394 . S
C171 C176 1.373 . S
C172 C171 1.394 . S
C172 C173 1.380 . S
C172 H200 0.930 . S
C173 C172 1.380 . S
C173 C174 1.376 . S
C173 H201 0.930 . S
C174 C173 1.376 . S
C174 C175 1.370 . S
C175 C174 1.370 . S
C175 C176 1.396 . S
C175 H202 0.929 . S
C176 C171 1.373 . S
C176 C175 1.396 . S
C176 H203 0.929 . S
C177 O190 1.240 . S
C177 O191 1.289 . S
C178 O192 1.258 . S
C178 O193 1.256 . S
C179 La169 2.928 . S
C179 C180 1.503 . S
C179 O194 1.261 . S
C179 O195 1.243 . S
C180 C179 1.503 . S
C180 C181 1.394 . S
C180 C185 1.373 . S
C181 C180 1.394 . S
C181 C182 1.380 . S
C181 H204 0.930 . S
C182 C181 1.380 . S
C182 C183 1.376 . S
C182 H205 0.930 . S
C183 C182 1.376 . S
C183 C184 1.370 . S
C184 C183 1.370 . S
C184 C185 1.396 . S
C184 H206 0.929 . S
C185 C180 1.373 . S
C185 C184 1.396 . S
C185 H207 0.929 . S
C186 O196 1.240 . S
C186 O197 1.289 . S
C187 O198 1.258 . S
C187 O199 1.256 . S
O188 La168 2.521 . S
O188 C170 1.261 1_556 S
O189 La168 2.628 1_554 S
O189 C170 1.243 . S
O190 La168 2.554 . S
O190 C177 1.240 . S
O191 La168 2.757 . S
O191 La169 2.482 . S
O191 C177 1.289 . S
O192 La168 2.470 . S
O192 C178 1.258 . S
O193 La169 2.503 . S
O193 C178 1.256 . S
O194 La169 2.521 . S
O194 C179 1.261 . S
O195 La169 2.628 . S
O195 C179 1.243 . S
O196 La169 2.554 . S
O196 C186 1.240 . S
O197 La168 2.482 . S
O197 La169 2.757 . S
O197 C186 1.289 . S
O198 La169 2.470 . S
O198 C187 1.258 . S
O199 La168 2.503 . S
O199 C187 1.256 . S
H200 C172 0.930 . S
H201 C173 0.930 . S
H202 C175 0.929 . S
H203 C176 0.929 . S
H204 C181 0.930 . S
H205 C182 0.930 . S
H206 C184 0.929 . S
H207 C185 0.929 . S
La208 C210 2.928 1_556 S
La208 O228 2.521 . S
La208 O229 2.628 1_556 S
La208 O230 2.554 . S
La208 O231 2.757 1_655 S
La208 O232 2.470 . S
La208 O237 2.482 . S
La208 O239 2.503 1_655 S
La209 C219 2.928 . S
La209 O231 2.482 . S
La209 O233 2.503 1_455 S
La209 O234 2.521 . S
La209 O235 2.628 . S
La209 O236 2.554 . S
La209 O237 2.757 1_455 S
La209 O238 2.470 . S
C210 La208 2.928 1_554 S
C210 C211 1.503 . S
C210 O228 1.261 1_554 S
C210 O229 1.243 . S
C211 C210 1.503 . S
C211 C212 1.394 . S
C211 C216 1.373 . S
C212 C211 1.394 . S
C212 C213 1.380 . S
C212 H240 0.930 . S
C213 C212 1.380 . S
C213 C214 1.376 . S
C213 H241 0.930 . S
C214 C213 1.376 . S
C214 C215 1.370 . S
C215 C214 1.370 . S
C215 C216 1.396 . S
C215 H242 0.929 . S
C216 C211 1.373 . S
C216 C215 1.396 . S
C216 H243 0.929 . S
C217 O230 1.250 . S
C217 O231 1.283 1_655 S
C218 O232 1.258 . S
C218 O233 1.256 . S
C219 La209 2.928 . S
C219 C220 1.503 . S
C219 O234 1.261 . S
C219 O235 1.243 . S
C220 C219 1.503 . S
C220 C221 1.394 . S
C220 C225 1.373 . S
C221 C220 1.394 . S
C221 C222 1.380 . S
C221 H244 0.930 . S
C222 C221 1.380 . S
C222 C223 1.376 . S
C222 H245 0.930 . S
C223 C222 1.376 . S
C223 C224 1.370 . S
C224 C223 1.370 . S
C224 C225 1.396 . S
C224 H246 0.929 . S
C225 C220 1.373 . S
C225 C224 1.396 . S
C225 H247 0.929 . S
C226 O236 1.255 . S
C226 O237 1.281 1_455 S
C227 O238 1.258 . S
C227 O239 1.256 . S
O228 La208 2.521 . S
O228 C210 1.261 1_556 S
O229 La208 2.628 1_554 S
O229 C210 1.243 . S
O230 La208 2.554 . S
O230 C217 1.250 . S
O231 La208 2.757 1_455 S
O231 La209 2.482 . S
O231 C217 1.283 1_455 S
O232 La208 2.470 . S
O232 C218 1.258 . S
O233 La209 2.503 1_655 S
O233 C218 1.256 . S
O234 La209 2.521 . S
O234 C219 1.261 . S
O235 La209 2.628 . S
O235 C219 1.243 . S
O236 La209 2.554 . S
O236 C226 1.255 . S
O237 La208 2.482 . S
O237 La209 2.757 1_655 S
O237 C226 1.281 1_655 S
O238 La209 2.470 . S
O238 C227 1.258 . S
O239 La208 2.503 1_455 S
O239 C227 1.256 . S
H240 C212 0.930 . S
H241 C213 0.930 . S
H242 C215 0.929 . S
H243 C216 0.929 . S
H244 C221 0.930 . S
H245 C222 0.930 . S
H246 C224 0.929 . S
H247 C225 0.929 . S
C248 C249 1.354 1_565 S
C248 C254 1.379 . S
C248 N256 1.356 . S
C249 C248 1.354 1_545 S
C249 C255 1.373 . S
C250 C251 1.363 . S
C250 C255 1.379 . S
C250 N257 1.356 . S
C251 C250 1.363 . S
C251 C254 1.363 1_545 S
N252 C254 1.356 . S
N252 H264 0.984 . S
N252 H265 0.985 . S
N253 C255 1.356 . S
N253 H258 0.984 . S
N253 H259 0.985 . S
C254 C248 1.379 . S
C254 C251 1.363 1_565 S
C254 N252 1.356 . S
C255 C249 1.373 . S
C255 C250 1.379 . S
C255 N253 1.356 . S
N256 C248 1.356 . S
N256 H262 0.984 . S
N256 H263 0.984 . S
N257 C250 1.356 . S
N257 H260 0.984 . S
N257 H261 0.985 . S
H258 N253 0.984 . S
H259 N253 0.985 . S
H260 N257 0.984 . S
H261 N257 0.985 . S
H262 N256 0.984 . S
H263 N256 0.984 . S
H264 N252 0.984 . S
H265 N252 0.985 . S
C266 C267 1.363 . S
C266 C272 1.379 . S
C266 N274 1.356 . S
C267 C266 1.363 . S
C267 C273 1.363 . S
C268 C269 1.363 . S
C268 C273 1.379 . S
C268 N275 1.356 . S
C269 C268 1.363 . S
C269 C272 1.363 . S
N270 C272 1.356 . S
N270 H282 0.984 . S
N270 H283 0.985 . S
N271 C273 1.356 . S
N271 H276 0.984 . S
N271 H277 0.985 . S
C272 C266 1.379 . S
C272 C269 1.363 . S
C272 N270 1.356 . S
C273 C267 1.363 . S
C273 C268 1.379 . S
C273 N271 1.356 . S
N274 C266 1.356 . S
N274 H280 0.984 . S
N274 H281 0.984 . S
N275 C268 1.356 . S
N275 H278 0.984 . S
N275 H279 0.985 . S
H276 N271 0.984 . S
H277 N271 0.985 . S
H278 N275 0.984 . S
H279 N275 0.985 . S
H280 N274 0.984 . S
H281 N274 0.984 . S
H282 N270 0.984 . S
H283 N270 0.985 . S
C284 C285 1.363 . S
C284 C290 1.379 . S
C284 N292 1.356 . S
C285 C284 1.363 . S
C285 C291 1.363 . S
C286 C287 1.363 . S
C286 C291 1.379 . S
C286 N293 1.356 . S
C287 C286 1.363 . S
C287 C290 1.363 . S
N288 C290 1.356 . S
N288 H300 0.984 . S
N288 H301 0.985 . S
N289 C291 1.356 . S
N289 H294 0.984 . S
N289 H295 0.985 . S
C290 C284 1.379 . S
C290 C287 1.363 . S
C290 N288 1.356 . S
C291 C285 1.363 . S
C291 C286 1.379 . S
C291 N289 1.356 . S
N292 C284 1.356 . S
N292 H298 0.984 . S
N292 H299 0.984 . S
N293 C286 1.356 . S
N293 H296 0.984 . S
N293 H297 0.985 . S
H294 N289 0.984 . S
H295 N289 0.985 . S
H296 N293 0.984 . S
H297 N293 0.985 . S
H298 N292 0.984 . S
H299 N292 0.984 . S
H300 N288 0.984 . S
H301 N288 0.985 . S
C302 C303 1.354 1_655 S
C302 C308 1.379 . S
C302 N310 1.356 . S
C303 C302 1.354 1_455 S
C303 C309 1.374 . S
C304 C305 1.363 . S
C304 C309 1.379 . S
C304 N311 1.356 . S
C305 C304 1.363 . S
C305 C308 1.363 1_455 S
N306 C308 1.356 . S
N306 H318 0.984 . S
N306 H319 0.985 . S
N307 C309 1.356 . S
N307 H312 0.984 . S
N307 H313 0.985 . S
C308 C302 1.379 . S
C308 C305 1.363 1_655 S
C308 N306 1.356 . S
C309 C303 1.374 . S
C309 C304 1.379 . S
C309 N307 1.356 . S
N310 C302 1.356 . S
N310 H316 0.984 . S
N310 H317 0.984 . S
N311 C304 1.356 . S
N311 H314 0.984 . S
N311 H315 0.985 . S
H312 N307 0.984 . S
H313 N307 0.985 . S
H314 N311 0.984 . S
H315 N311 0.985 . S
H316 N310 0.984 . S
H317 N310 0.984 . S
H318 N306 0.984 . S
H319 N306 0.985 . S
C320 C321 1.360 1_545 S
C320 C326 1.379 . S
C320 N328 1.356 . S
C321 C320 1.360 1_565 S
C321 C327 1.367 . S
C322 C323 1.384 . S
C322 C327 1.379 . S
C322 N329 1.356 . S
C323 C322 1.384 . S
C323 C326 1.342 1_565 S
N324 C326 1.356 1_556 S
N324 H336 0.984 . S
N324 H337 0.985 . S
N325 C327 1.356 . S
N325 H330 0.984 . S
N325 H331 0.985 . S
C326 C320 1.379 . S
C326 C323 1.342 1_545 S
C326 N324 1.356 1_554 S
C327 C321 1.367 . S
C327 C322 1.379 . S
C327 N325 1.356 . S
N328 C320 1.356 . S
N328 H334 0.984 . S
N328 H335 0.984 . S
N329 C322 1.356 . S
N329 H332 0.984 1_554 S
N329 H333 0.985 . S
H330 N325 0.984 . S
H331 N325 0.985 . S
H332 N329 0.984 1_556 S
H333 N329 0.985 . S
H334 N328 0.984 . S
H335 N328 0.984 . S
H336 N324 0.984 . S
H337 N324 0.985 . S
C338 C339 1.363 . S
C338 C344 1.379 . S
C338 N346 1.356 . S
C339 C338 1.363 . S
C339 C345 1.363 . S
C340 C341 1.363 . S
C340 C345 1.379 . S
C340 N347 1.356 . S
C341 C340 1.363 . S
C341 C344 1.363 . S
N342 C344 1.356 1_556 S
N342 H354 0.984 . S
N342 H355 0.985 . S
N343 C345 1.356 . S
N343 H348 0.984 . S
N343 H349 0.985 . S
C344 C338 1.379 . S
C344 C341 1.363 . S
C344 N342 1.356 1_554 S
C345 C339 1.363 . S
C345 C340 1.379 . S
C345 N343 1.356 . S
N346 C338 1.356 . S
N346 H352 0.984 . S
N346 H353 0.984 . S
N347 C340 1.356 . S
N347 H350 0.984 1_554 S
N347 H351 0.985 . S
H348 N343 0.984 . S
H349 N343 0.985 . S
H350 N347 0.984 1_556 S
H351 N347 0.985 . S
H352 N346 0.984 . S
H353 N346 0.984 . S
H354 N342 0.984 . S
H355 N342 0.985 . S
C356 C357 1.363 . S
C356 C362 1.379 . S
C356 N364 1.356 . S
C357 C356 1.363 . S
C357 C363 1.363 . S
C358 C359 1.363 . S
C358 C363 1.379 . S
C358 N365 1.356 . S
C359 C358 1.363 . S
C359 C362 1.363 . S
N360 C362 1.356 1_556 S
N360 H372 0.984 . S
N360 H373 0.985 . S
N361 C363 1.356 . S
N361 H366 0.984 . S
N361 H367 0.985 . S
C362 C356 1.379 . S
C362 C359 1.363 . S
C362 N360 1.356 1_554 S
C363 C357 1.363 . S
C363 C358 1.379 . S
C363 N361 1.356 . S
N364 C356 1.356 . S
N364 H370 0.984 . S
N364 H371 0.984 . S
N365 C358 1.356 . S
N365 H368 0.984 1_554 S
N365 H369 0.985 . S
H366 N361 0.984 . S
H367 N361 0.985 . S
H368 N365 0.984 1_556 S
H369 N365 0.985 . S
H370 N364 0.984 . S
H371 N364 0.984 . S
H372 N360 0.984 . S
H373 N360 0.985 . S
C374 C375 1.348 1_455 S
C374 C380 1.379 . S
C374 N382 1.356 . S
C375 C374 1.348 1_655 S
C375 C381 1.379 . S
C376 C377 1.363 . S
C376 C381 1.379 . S
C376 N383 1.356 1_554 S
C377 C376 1.363 . S
C377 C380 1.363 1_655 S
N378 C380 1.356 . S
N378 H390 0.984 . S
N378 H391 0.985 1_554 S
N379 C381 1.356 . S
N379 H384 0.984 . S
N379 H385 0.985 . S
C380 C374 1.379 . S
C380 C377 1.363 1_455 S
C380 N378 1.356 . S
C381 C375 1.379 . S
C381 C376 1.379 . S
C381 N379 1.356 . S
N382 C374 1.356 . S
N382 H388 0.984 . S
N382 H389 0.984 . S
N383 C376 1.356 1_556 S
N383 H386 0.984 . S
N383 H387 0.985 . S
H384 N379 0.984 . S
H385 N379 0.985 . S
H386 N383 0.984 . S
H387 N383 0.985 . S
H388 N382 0.984 . S
H389 N382 0.984 . S
H390 N378 0.984 . S
H391 N378 0.985 1_556 S
C392 C393 1.363 . S
C392 C398 1.379 . S
C392 N400 1.356 1_655 S
C393 C392 1.363 . S
C393 C399 1.363 . S
C394 C395 1.363 . S
C394 C399 1.379 . S
C394 N401 1.356 . S
C395 C394 1.363 . S
C395 C398 1.363 . S
N396 C398 1.356 . S
N396 H408 0.984 . S
N396 H409 0.985 . S
N397 C399 1.356 1_455 S
N397 H402 0.984 . S
N397 H403 0.985 1_455 S
C398 C392 1.379 . S
C398 C395 1.363 . S
C398 N396 1.356 . S
C399 C393 1.363 . S
C399 C394 1.379 . S
C399 N397 1.356 1_655 S
N400 C392 1.356 1_455 S
N400 H406 0.984 1_455 S
N400 H407 0.985 . S
N401 C394 1.356 . S
N401 H404 0.984 . S
N401 H405 0.985 . S
H402 N397 0.984 . S
H403 N397 0.985 1_655 S
H404 N401 0.984 . S
H405 N401 0.985 . S
H406 N400 0.984 1_655 S
H407 N400 0.985 . S
H408 N396 0.984 . S
H409 N396 0.985 . S
C410 C411 1.363 . S
C410 C416 1.379 . S
C410 N418 1.356 . S
C411 C410 1.363 . S
C411 C417 1.363 1_565 S
C412 C413 1.363 . S
C412 C417 1.379 1_565 S
C412 N419 1.356 . S
C413 C412 1.363 . S
C413 C416 1.363 . S
N414 C416 1.356 . S
N414 H426 0.984 . S
N414 H427 0.985 . S
N415 C417 1.356 . S
N415 H420 0.984 . S
N415 H421 0.985 . S
C416 C410 1.379 . S
C416 C413 1.363 . S
C416 N414 1.356 . S
C417 C411 1.363 1_545 S
C417 C412 1.379 1_545 S
C417 N415 1.356 . S
N418 C410 1.356 . S
N418 H424 0.984 . S
N418 H425 0.984 . S
N419 C412 1.356 . S
N419 H422 0.984 . S
N419 H423 0.985 1_565 S
H420 N415 0.984 . S
H421 N415 0.985 . S
H422 N419 0.984 . S
H423 N419 0.985 1_545 S
H424 N418 0.984 . S
H425 N418 0.984 . S
H426 N414 0.984 . S
H427 N414 0.985 . S
C428 C429 1.363 . S
C428 C434 1.379 . S
C428 N436 1.356 . S
C429 C428 1.363 . S
C429 C435 1.363 . S
C430 C431 1.363 . S
C430 C435 1.379 . S
C430 N437 1.356 . S
C431 C430 1.363 . S
C431 C434 1.363 . S
N432 C434 1.356 . S
N432 H444 0.984 . S
N432 H445 0.985 . S
N433 C435 1.356 . S
N433 H438 0.984 . S
N433 H439 0.985 . S
C434 C428 1.379 . S
C434 C431 1.363 . S
C434 N432 1.356 . S
C435 C429 1.363 . S
C435 C430 1.379 . S
C435 N433 1.356 . S
N436 C428 1.356 . S
N436 H442 0.984 1_554 S
N436 H443 0.984 . S
N437 C430 1.356 . S
N437 H440 0.984 . S
N437 H441 0.985 . S
H438 N433 0.984 . S
H439 N433 0.985 . S
H440 N437 0.984 . S
H441 N437 0.985 . S
H442 N436 0.984 1_556 S
H443 N436 0.984 . S
H444 N432 0.984 . S
H445 N432 0.985 . S
C446 C447 1.363 . S
C446 C452 1.379 . S
C446 N454 1.356 . S
C447 C446 1.363 . S
C447 C453 1.363 . S
C448 C449 1.363 . S
C448 C453 1.379 . S
C448 N455 1.356 . S
C449 C448 1.363 . S
C449 C452 1.363 . S
N450 C452 1.356 . S
N450 H462 0.984 . S
N450 H463 0.985 . S
N451 C453 1.356 . S
N451 H456 0.984 . S
N451 H457 0.985 . S
C452 C446 1.379 . S
C452 C449 1.363 . S
C452 N450 1.356 . S
C453 C447 1.363 . S
C453 C448 1.379 . S
C453 N451 1.356 . S
N454 C446 1.356 . S
N454 H460 0.984 . S
N454 H461 0.984 . S
N455 C448 1.356 . S
N455 H458 0.984 . S
N455 H459 0.985 . S
H456 N451 0.984 . S
H457 N451 0.985 . S
H458 N455 0.984 . S
H459 N455 0.985 . S
H460 N454 0.984 . S
H461 N454 0.984 . S
H462 N450 0.984 . S
H463 N450 0.985 . S
C464 C465 1.363 1_655 S
C464 C470 1.379 1_655 S
C464 N472 1.356 . S
C465 C464 1.363 1_455 S
C465 C471 1.363 . S
C466 C467 1.363 . S
C466 C471 1.379 . S
C466 N473 1.356 . S
C467 C466 1.363 . S
C467 C470 1.363 . S
N468 C470 1.356 . S
N468 H480 0.984 . S
N468 H481 0.985 . S
N469 C471 1.356 . S
N469 H474 0.984 . S
N469 H475 0.985 . S
C470 C464 1.379 1_455 S
C470 C467 1.363 . S
C470 N468 1.356 . S
C471 C465 1.363 . S
C471 C466 1.379 . S
C471 N469 1.356 . S
N472 C464 1.356 . S
N472 H478 0.984 . S
N472 H479 0.984 . S
N473 C466 1.356 . S
N473 H476 0.984 . S
N473 H477 0.985 . S
H474 N469 0.984 . S
H475 N469 0.985 . S
H476 N473 0.984 . S
H477 N473 0.985 . S
H478 N472 0.984 . S
H479 N472 0.984 . S
H480 N468 0.984 . S
H481 N468 0.985 . S
C482 C483 1.363 . S
C482 C488 1.379 . S
C482 N490 1.356 . S
C483 C482 1.363 . S
C483 C489 1.363 . S
C484 C485 1.363 . S
C484 C489 1.379 . S
C484 N491 1.356 . S
C485 C484 1.363 . S
C485 C488 1.363 . S
N486 C488 1.356 . S
N486 H498 0.984 . S
N486 H499 0.985 . S
N487 C489 1.356 1_565 S
N487 H492 0.984 . S
N487 H493 0.985 . S
C488 C482 1.379 . S
C488 C485 1.363 . S
C488 N486 1.356 . S
C489 C483 1.363 . S
C489 C484 1.379 . S
C489 N487 1.356 1_545 S
N490 C482 1.356 . S
N490 H496 0.984 . S
N490 H497 0.984 1_545 S
N491 C484 1.356 . S
N491 H494 0.984 . S
N491 H495 0.985 . S
H492 N487 0.984 . S
H493 N487 0.985 . S
H494 N491 0.984 . S
H495 N491 0.985 . S
H496 N490 0.984 . S
H497 N490 0.984 1_565 S
H498 N486 0.984 . S
H499 N486 0.985 . S
C500 C501 1.363 . S
C500 C506 1.379 . S
C500 N508 1.356 . S
C501 C500 1.363 . S
C501 C507 1.363 . S
C502 C503 1.363 . S
C502 C507 1.379 . S
C502 N509 1.356 . S
C503 C502 1.363 . S
C503 C506 1.363 . S
N504 C506 1.356 . S
N504 H516 0.984 . S
N504 H517 0.985 . S
N505 C507 1.356 . S
N505 H510 0.984 . S
N505 H511 0.985 . S
C506 C500 1.379 . S
C506 C503 1.363 . S
C506 N504 1.356 . S
C507 C501 1.363 . S
C507 C502 1.379 . S
C507 N505 1.356 . S
N508 C500 1.356 . S
N508 H514 0.984 . S
N508 H515 0.984 . S
N509 C502 1.356 . S
N509 H512 0.984 . S
N509 H513 0.985 . S
H510 N505 0.984 . S
H511 N505 0.985 . S
H512 N509 0.984 . S
H513 N509 0.985 . S
H514 N508 0.984 . S
H515 N508 0.984 . S
H516 N504 0.984 . S
H517 N504 0.985 . S
C518 C519 1.363 . S
C518 C524 1.379 . S
C518 N526 1.356 . S
C519 C518 1.363 . S
C519 C525 1.363 . S
C520 C521 1.363 . S
C520 C525 1.379 . S
C520 N527 1.356 . S
C521 C520 1.363 . S
C521 C524 1.363 . S
N522 C524 1.356 . S
N522 H534 0.984 . S
N522 H535 0.985 . S
N523 C525 1.356 . S
N523 H528 0.984 . S
N523 H529 0.985 . S
C524 C518 1.379 . S
C524 C521 1.363 . S
C524 N522 1.356 . S
C525 C519 1.363 . S
C525 C520 1.379 . S
C525 N523 1.356 . S
N526 C518 1.356 . S
N526 H532 0.984 . S
N526 H533 0.984 . S
N527 C520 1.356 . S
N527 H530 0.984 . S
N527 H531 0.985 . S
H528 N523 0.984 . S
H529 N523 0.985 . S
H530 N527 0.984 . S
H531 N527 0.985 . S
H532 N526 0.984 . S
H533 N526 0.984 . S
H534 N522 0.984 . S
H535 N522 0.985 . S
C536 C537 1.363 1_655 S
C536 C542 1.379 . S
C536 N544 1.356 . S
C537 C536 1.363 1_455 S
C537 C543 1.363 . S
C538 C539 1.363 . S
C538 C543 1.379 . S
C538 N545 1.356 . S
C539 C538 1.363 . S
C539 C542 1.363 1_455 S
N540 C542 1.356 . S
N540 H552 0.984 . S
N540 H553 0.985 . S
N541 C543 1.356 . S
N541 H546 0.984 . S
N541 H547 0.985 1_556 S
C542 C536 1.379 . S
C542 C539 1.363 1_655 S
C542 N540 1.356 . S
C543 C537 1.363 . S
C543 C538 1.379 . S
C543 N541 1.356 . S
N544 C536 1.356 . S
N544 H550 0.984 . S
N544 H551 0.984 . S
N545 C538 1.356 . S
N545 H548 0.984 . S
N545 H549 0.985 1_556 S
H546 N541 0.984 . S
H547 N541 0.985 1_554 S
H548 N545 0.984 . S
H549 N545 0.985 1_554 S
H550 N544 0.984 . S
H551 N544 0.984 . S
H552 N540 0.984 . S
H553 N540 0.985 . S
C554 C555 1.363 1_565 S
C554 C560 1.379 1_565 S
C554 N562 1.357 . S
C555 C554 1.363 1_545 S
C555 C561 1.363 . S
C556 C557 1.363 . S
C556 C561 1.379 . S
C556 N563 1.356 . S
C557 C556 1.363 . S
C557 C560 1.363 . S
N558 C560 1.358 . S
N558 H570 0.979 1_546 S
N558 H571 0.989 . S
N559 C561 1.356 . S
N559 H564 0.984 . S
N559 H565 0.985 . S
C560 C554 1.379 1_545 S
C560 C557 1.363 . S
C560 N558 1.358 . S
C561 C555 1.363 . S
C561 C556 1.379 . S
C561 N559 1.356 . S
N562 C554 1.357 . S
N562 H568 0.984 1_556 S
N562 H569 0.984 . S
N563 C556 1.356 . S
N563 H566 0.984 . S
N563 H567 0.985 . S
H564 N559 0.984 . S
H565 N559 0.985 . S
H566 N563 0.984 . S
H567 N563 0.985 . S
H568 N562 0.984 1_554 S
H569 N562 0.984 . S
H570 N558 0.979 1_564 S
H571 N558 0.989 . S
C572 C573 1.363 . S
C572 C578 1.379 . S
C572 N580 1.356 . S
C573 C572 1.363 . S
C573 C579 1.363 . S
C574 C575 1.363 . S
C574 C579 1.379 . S
C574 N581 1.356 . S
C575 C574 1.363 . S
C575 C578 1.363 . S
N576 C578 1.356 . S
N576 H588 0.984 . S
N576 H589 0.985 . S
N577 C579 1.356 . S
N577 H582 0.984 . S
N577 H583 0.985 1_556 S
C578 C572 1.379 . S
C578 C575 1.363 . S
C578 N576 1.356 . S
C579 C573 1.363 . S
C579 C574 1.379 . S
C579 N577 1.356 . S
N580 C572 1.356 . S
N580 H586 0.984 . S
N580 H587 0.984 . S
N581 C574 1.356 . S
N581 H584 0.984 . S
N581 H585 0.985 1_556 S
H582 N577 0.984 . S
H583 N577 0.985 1_554 S
H584 N581 0.984 . S
H585 N581 0.985 1_554 S
H586 N580 0.984 . S
H587 N580 0.984 . S
H588 N576 0.984 . S
H589 N576 0.985 . S
C590 C591 1.363 . S
C590 C596 1.379 . S
C590 N598 1.356 . S
C591 C590 1.363 . S
C591 C597 1.363 . S
C592 C593 1.363 . S
C592 C597 1.379 . S
C592 N599 1.356 . S
C593 C592 1.363 . S
C593 C596 1.363 . S
N594 C596 1.356 1_554 S
N594 H606 0.984 . S
N594 H607 0.985 1_554 S
N595 C597 1.356 . S
N595 H600 0.984 . S
N595 H601 0.985 . S
C596 C590 1.379 . S
C596 C593 1.363 . S
C596 N594 1.356 1_556 S
C597 C591 1.363 . S
C597 C592 1.379 . S
C597 N595 1.356 . S
N598 C590 1.356 . S
N598 H604 0.984 1_556 S
N598 H605 0.984 . S
N599 C592 1.356 . S
N599 H602 0.984 . S
N599 H603 0.985 . S
H600 N595 0.984 . S
H601 N595 0.985 . S
H602 N599 0.984 . S
H603 N599 0.985 . S
H604 N598 0.984 1_554 S
H605 N598 0.984 . S
H606 N594 0.984 . S
H607 N594 0.985 1_556 S
C608 C609 1.363 . S
C608 C614 1.379 . S
C608 N616 1.356 . S
C609 C608 1.363 . S
C609 C615 1.363 1_655 S
C610 C611 1.363 1_455 S
C610 C615 1.379 . S
C610 N617 1.356 . S
C611 C610 1.363 1_655 S
C611 C614 1.363 . S
N612 C614 1.356 . S
N612 H624 0.984 . S
N612 H625 0.985 . S
N613 C615 1.356 . S
N613 H618 0.984 . S
N613 H619 0.985 . S
C614 C608 1.379 . S
C614 C611 1.363 . S
C614 N612 1.356 . S
C615 C609 1.363 1_455 S
C615 C610 1.379 . S
C615 N613 1.356 . S
N616 C608 1.356 . S
N616 H622 0.984 . S
N616 H623 0.984 . S
N617 C610 1.356 . S
N617 H620 0.984 . S
N617 H621 0.985 . S
H618 N613 0.984 . S
H619 N613 0.985 . S
H620 N617 0.984 . S
H621 N617 0.985 . S
H622 N616 0.984 . S
H623 N616 0.984 . S
H624 N612 0.984 . S
H625 N612 0.985 . S
C626 C627 1.363 1_545 S
C626 C632 1.379 . S
C626 N634 1.356 . S
C627 C626 1.363 1_565 S
C627 C633 1.363 . S
C628 C629 1.363 . S
C628 C633 1.379 . S
C628 N635 1.356 . S
C629 C628 1.363 . S
C629 C632 1.363 1_565 S
N630 C632 1.356 . S
N630 H642 0.984 . S
N630 H643 0.985 . S
N631 C633 1.356 . S
N631 H636 0.984 . S
N631 H637 0.985 . S
C632 C626 1.379 . S
C632 C629 1.363 1_545 S
C632 N630 1.356 . S
C633 C627 1.363 . S
C633 C628 1.379 . S
C633 N631 1.356 . S
N634 C626 1.356 . S
N634 H640 0.984 . S
N634 H641 0.984 . S
N635 C628 1.356 . S
N635 H638 0.984 . S
N635 H639 0.985 . S
H636 N631 0.984 . S
H637 N631 0.985 . S
H638 N635 0.984 . S
H639 N635 0.985 . S
H640 N634 0.984 . S
H641 N634 0.984 . S
H642 N630 0.984 . S
H643 N630 0.985 . S
C644 C645 1.363 . S
C644 C650 1.379 . S
C644 N652 1.356 . S
C645 C644 1.363 . S
C645 C651 1.363 . S
C646 C647 1.363 . S
C646 C651 1.379 . S
C646 N653 1.356 . S
C647 C646 1.363 . S
C647 C650 1.363 . S
N648 C650 1.356 . S
N648 H660 0.984 . S
N648 H661 0.985 . S
N649 C651 1.356 . S
N649 H654 0.984 . S
N649 H655 0.985 . S
C650 C644 1.379 . S
C650 C647 1.363 . S
C650 N648 1.356 . S
C651 C645 1.363 . S
C651 C646 1.379 . S
C651 N649 1.356 . S
N652 C644 1.356 . S
N652 H658 0.984 . S
N652 H659 0.984 . S
N653 C646 1.356 . S
N653 H656 0.984 . S
N653 H657 0.985 . S
H654 N649 0.984 . S
H655 N649 0.985 . S
H656 N653 0.984 . S
H657 N653 0.985 . S
H658 N652 0.984 . S
H659 N652 0.984 . S
H660 N648 0.984 . S
H661 N648 0.985 . S
C662 C663 1.363 . S
C662 C668 1.379 . S
C662 N670 1.356 . S
C663 C662 1.363 . S
C663 C669 1.363 . S
C664 C665 1.363 . S
C664 C669 1.379 . S
C664 N671 1.356 . S
C665 C664 1.363 . S
C665 C668 1.363 . S
N666 C668 1.356 . S
N666 H678 0.984 . S
N666 H679 0.985 . S
N667 C669 1.356 . S
N667 H672 0.984 . S
N667 H673 0.985 . S
C668 C662 1.379 . S
C668 C665 1.363 . S
C668 N666 1.356 . S
C669 C663 1.363 . S
C669 C664 1.379 . S
C669 N667 1.356 . S
N670 C662 1.356 . S
N670 H676 0.984 . S
N670 H677 0.984 . S
N671 C664 1.356 . S
N671 H674 0.984 . S
N671 H675 0.985 . S
H672 N667 0.984 . S
H673 N667 0.985 . S
H674 N671 0.984 . S
H675 N671 0.985 . S
H676 N670 0.984 . S
H677 N670 0.984 . S
H678 N666 0.984 . S
H679 N666 0.985 . S
C249 C74 1.941 . S
C251 C97 2.145 1_545 S
C269 C137 2.160 . S
C267 C85 1.946 . S
C287 C177 2.167 . S
C285 C52 1.956 . S
C305 C217 2.153 1_455 S
C303 C63 1.950 . S
C323 C106 2.147 1_564 S
C321 C30 1.945 1_565 S
C339 C41 1.965 . S
C341 C146 2.162 1_554 S
C357 C8 1.973 . S
C359 C186 2.165 1_554 S
C375 C19 1.950 1_655 S
C377 C226 2.153 1_654 S
C395 C103 0.884 . S
C393 C62 0.933 1_655 S
C413 C143 0.884 . S
C411 C73 0.933 1_565 S
C431 C183 0.875 . S
C429 C84 0.919 . S
C447 C51 0.921 . S
C449 C223 0.872 . S
C465 C18 0.863 . S
C467 C94 0.887 . S
C485 C134 0.884 . S
C483 C29 0.862 . S
C503 C174 0.875 . S
C501 C40 0.860 . S
C519 C7 0.859 . S
C521 C214 0.877 . S
C537 C60 1.939 . S
C539 C107 2.575 . S
C555 C71 1.910 . S
C557 C147 2.551 . S
C575 C187 2.542 . S
C573 C82 1.876 . S
C593 C227 2.570 . S
C591 C49 1.902 . S
C609 C16 2.066 1_655 S
C611 C98 2.583 . S
C629 C138 2.551 . S
C627 C27 2.041 1_565 S
C647 C178 2.542 . S
C645 C38 2.065 . S
C663 C5 2.087 . S
C665 C218 2.572 . S
