# Generated by pormake.
# Topology ocu, (6,8)-cn, num edge types: 1
# Building blocks:
#     Node 0, Type 0, BuildingBlock: KUMJIN_clean_sbu_1, # of connection points: 6
#     Node 1, Type 0, BuildingBlock: KUMJIN_clean_sbu_1, # of connection points: 6
#     Node 2, Type 0, BuildingBlock: KUMJIN_clean_sbu_1, # of connection points: 6
#     Node 3, Type 0, BuildingBlock: KUMJIN_clean_sbu_1, # of connection points: 6
#     Node 4, Type 0, BuildingBlock: KUMJIN_clean_sbu_1, # of connection points: 6
#     Node 5, Type 0, BuildingBlock: KUMJIN_clean_sbu_1, # of connection points: 6
#     Node 6, Type 0, BuildingBlock: KUMJIN_clean_sbu_1, # of connection points: 6
#     Node 7, Type 0, BuildingBlock: KUMJIN_clean_sbu_1, # of connection points: 6
#     Node 8, Type 1, BuildingBlock: TAGTUT_clean_sbu_1, # of connection points: 8
#     Node 9, Type 1, BuildingBlock: TAGTUT_clean_sbu_1, # of connection points: 8
#     Node 10, Type 1, BuildingBlock: TAGTUT_clean_sbu_1, # of connection points: 8
#     Node 11, Type 1, BuildingBlock: TAGTUT_clean_sbu_1, # of connection points: 8
#     Node 12, Type 1, BuildingBlock: TAGTUT_clean_sbu_1, # of connection points: 8
#     Node 13, Type 1, BuildingBlock: TAGTUT_clean_sbu_1, # of connection points: 8
#     Edge 14, Type (0, 1), None
#     Edge 15, Type (0, 1), None
#     Edge 16, Type (0, 1), None
#     Edge 17, Type (0, 1), None
#     Edge 18, Type (0, 1), None
#     Edge 19, Type (0, 1), None
#     Edge 20, Type (0, 1), None
#     Edge 21, Type (0, 1), None
#     Edge 22, Type (0, 1), None
#     Edge 23, Type (0, 1), None
#     Edge 24, Type (0, 1), None
#     Edge 25, Type (0, 1), None
#     Edge 26, Type (0, 1), None
#     Edge 27, Type (0, 1), None
#     Edge 28, Type (0, 1), None
#     Edge 29, Type (0, 1), None
#     Edge 30, Type (0, 1), None
#     Edge 31, Type (0, 1), None
#     Edge 32, Type (0, 1), None
#     Edge 33, Type (0, 1), None
#     Edge 34, Type (0, 1), None
#     Edge 35, Type (0, 1), None
#     Edge 36, Type (0, 1), None
#     Edge 37, Type (0, 1), None
#     Edge 38, Type (0, 1), None
#     Edge 39, Type (0, 1), None
#     Edge 40, Type (0, 1), None
#     Edge 41, Type (0, 1), None
#     Edge 42, Type (0, 1), None
#     Edge 43, Type (0, 1), None
#     Edge 44, Type (0, 1), None
#     Edge 45, Type (0, 1), None
#     Edge 46, Type (0, 1), None
#     Edge 47, Type (0, 1), None
#     Edge 48, Type (0, 1), None
#     Edge 49, Type (0, 1), None
#     Edge 50, Type (0, 1), None
#     Edge 51, Type (0, 1), None
#     Edge 52, Type (0, 1), None
#     Edge 53, Type (0, 1), None
#     Edge 54, Type (0, 1), None
#     Edge 55, Type (0, 1), None
#     Edge 56, Type (0, 1), None
#     Edge 57, Type (0, 1), None
#     Edge 58, Type (0, 1), None
#     Edge 59, Type (0, 1), None
#     Edge 60, Type (0, 1), None
#     Edge 61, Type (0, 1), None
# Relax obj value: 0.202
# Max RMSD: 0.191
# Mean RMSD: 0.135
data_MOF--net-ocu--node1-KUMJIN_clean_sbu_1--node2-TAGTUT_clean_sbu_1--edge1-none
_symmetry_space_group_name_H-M    P1
_symmetry_Int_Tables_number       1
_symmetry_cell_setting            triclinic
loop_
_symmetry_equiv_pos_as_xyz
'x, y, z'
_cell_length_a     23.538067
_cell_length_b     23.125442
_cell_length_c     22.37792
_cell_angle_alpha  101.43283
_cell_angle_beta   79.734228
_cell_angle_gamma 128.29256
loop_
_atom_site_label
_atom_site_type_symbol
_atom_site_fract_x
_atom_site_fract_y
_atom_site_fract_z
_atom_type_partial_charge
Eu0 Eu 0.13767 0.14149 0.21655 0.0
C1 C 0.40183 0.435 0.39185 0.0
N2 N 0.41031 0.43529 0.32144 0.0
C3 C 0.47491 0.61221 0.32485 0.0
C4 C 0.44128 0.56336 0.4384 0.0
C5 C 0.4501 0.53748 0.28505 0.0
C6 C 0.47702 0.62677 0.39343 0.0
C7 C 0.2888 0.38631 0.50356 0.0
C8 C 0.32372 0.36407 0.43408 0.0
C9 C 0.31551 0.47398 0.53662 0.0
C10 C 0.38601 0.55774 0.50892 0.0
Eu11 Eu 0.31115 0.28788 0.30061 0.0
N12 N 0.26967 0.30332 0.40253 0.0
C13 C 0.23047 0.32896 0.5299 0.0
C14 C 0.20123 0.2593 0.43226 0.0
C15 C 0.18459 0.26564 0.49435 0.0
H16 H 0.44821 0.54619 0.23997 0.0
H17 H 0.13079 0.22461 0.51328 0.0
H18 H -5e-05 0.88951 0.2888 0.0
H19 H 0.32753 0.20916 0.02084 0.0
H20 H 0.15257 0.22087 0.41092 0.0
H21 H 0.22117 0.33727 0.57672 0.0
H22 H 0.23422 0.22165 0.07369 0.0
H23 H 0.49157 0.65791 0.30439 0.0
H24 H 0.28532 0.4762 0.57837 0.0
H25 H 0.42057 0.57124 0.47284 0.0
H26 H 0.96963 0.77832 0.22853 0.0
H27 H 0.5096 0.68417 0.41171 0.0
H28 H 0.28322 0.07937 0.994 0.0
N29 N 0.03954 -0.00737 0.19836 0.0
C30 C 0.05182 -0.01131 0.1275 0.0
C31 C -0.02046 0.81939 0.20622 0.0
C32 C 0.01789 0.86071 0.08901 0.0
C33 C -0.00069 0.89452 0.24202 0.0
C34 C -0.01871 0.80107 0.13789 0.0
N35 N 0.17581 0.12459 0.11499 0.0
C36 C 0.23255 0.17666 0.08021 0.0
C37 C 0.17548 0.03626 0.02372 0.0
C38 C 0.13099 0.0581 0.08599 0.0
C39 C 0.24735 0.09247 0.01385 0.0
C40 C 0.27431 0.16354 0.03704 0.0
H41 H 0.95096 0.74323 0.1234 0.0
H42 H 0.04167 0.85217 0.05706 0.0
H43 H 0.18684 0.94527 0.95924 0.0
O44 O 0.14317 0.22786 0.18457 0.0
O45 O 0.22684 0.11763 0.1861 0.0
O46 O 0.33894 0.22741 0.21106 0.0
O47 O 0.04853 0.11048 0.16791 0.0
O48 O 0.22457 0.26198 0.18756 0.0
O49 O 0.33363 0.29237 0.196 0.0
O50 O 0.30681 0.20088 0.33023 0.0
O51 O 0.2193 0.31009 0.32573 0.0
O52 O 0.10667 0.19982 0.30367 0.0
O53 O 0.3997 0.31786 0.34983 0.0
O54 O 0.233 0.17102 0.33518 0.0
O55 O 0.12572 0.1421 0.32267 0.0
C56 C 0.30003 0.15769 0.18045 0.0
C57 C 0.05365 0.2034 0.1249 0.0
C58 C 0.07438 0.34246 0.09818 0.0
C59 C -0.0149 0.29878 0.09571 0.0
C60 C 0.96471 0.13816 0.1201 0.0
C61 C 0.91128 0.15717 0.10691 0.0
C62 C 0.1047 0.29539 0.11241 0.0
C63 C 0.29296 0.29546 0.16562 0.0
C64 C 0.08281 0.17956 0.15817 0.0
C65 C 0.0793 0.86524 0.0232 0.0
C66 C 0.15138 0.94825 0.99561 0.0
C67 C 0.1458 0.27079 0.3312 0.0
C68 C 0.39333 0.22486 0.39333 0.0
C69 C 0.37331 0.08529 0.41845 0.0
C70 C 0.46238 0.1298 0.42166 0.0
C71 C 0.48222 0.29078 0.39962 0.0
C72 C 0.34266 0.13227 0.40429 0.0
C73 C 0.5355 0.27208 0.41344 0.0
C74 C 0.16386 0.1346 0.35309 0.0
C75 C 0.36475 0.24892 0.35975 0.0
H76 H 0.96817 0.33075 0.08696 0.0
H77 H 0.93966 0.08219 0.12763 0.0
H78 H 0.85363 0.11076 0.10718 0.0
H79 H 0.16108 0.32024 0.10044 0.0
H80 H 0.47941 0.09785 0.43013 0.0
H81 H 0.50753 0.34673 0.39188 0.0
H82 H 0.28616 0.10668 0.41498 0.0
H83 H 0.59266 0.31926 0.41615 0.0
Eu84 Eu 0.69752 0.27023 0.27834 0.0
C85 C 0.85566 0.21532 0.12278 0.0
N86 N 0.78381 0.16739 0.13743 0.0
C87 C 0.75155 0.13647 0.03386 0.0
C88 C 0.87461 0.20594 0.04759 0.0
C89 C 0.73741 0.11784 0.09292 0.0
C90 C 0.82189 0.18805 0.01314 0.0
C91 C -0.01188 0.252 0.16774 0.0
C92 C 0.90812 0.24218 0.18109 0.0
C93 C 0.00774 0.22254 0.04836 0.0
C94 C 0.94291 0.20798 0.01193 0.0
Eu95 Eu 0.75203 0.16333 0.24166 0.0
N96 N 0.87907 0.23836 0.23832 0.0
C97 C 0.0257 0.27971 0.22172 0.0
C98 C 0.91808 0.25385 0.28503 0.0
C99 C -0.00837 0.28477 0.27763 0.0
H100 H 0.68739 0.06525 0.10291 0.0
H101 H 0.02144 0.30813 0.31755 0.0
H102 H 0.75926 0.36418 0.41951 0.0
H103 H 0.43131 0.1306 0.19956 0.0
H104 H 0.89169 0.23714 0.32893 0.0
H105 H 0.08013 0.29779 0.22306 0.0
H106 H 0.56065 0.19976 0.18986 0.0
H107 H 0.70943 0.10686 1.00257 0.0
H108 H 0.05022 0.22155 0.01986 0.0
H109 H 0.94689 0.20471 0.96532 0.0
H110 H 0.73591 0.31401 0.51637 0.0
H111 H 0.83393 0.20306 0.96785 0.0
H112 H 0.36944 0.1336 0.29394 0.0
N113 N 0.66388 0.26336 0.38209 0.0
C114 C 0.59188 0.21475 0.39582 0.0
C115 C 0.69428 0.28755 0.48488 0.0
C116 C 0.57158 0.22144 0.47104 0.0
C117 C 0.70927 0.31085 0.4277 0.0
C118 C 0.62346 0.23346 0.50298 0.0
N119 N 0.5708 0.19524 0.28038 0.0
C120 C 0.53319 0.18178 0.23335 0.0
C121 C 0.46041 0.17841 0.35053 0.0
C122 C 0.54057 0.18935 0.33742 0.0
C123 C 0.42405 0.15241 0.2959 0.0
C124 C 0.45977 0.15099 0.23992 0.0
H125 H 0.61137 0.21013 0.54405 0.0
H126 H 0.49313 0.21958 0.55399 0.0
H127 H 0.39449 0.20393 0.49809 0.0
O128 O 0.66653 0.34465 0.30903 0.0
O129 O 0.66368 0.17757 0.33835 0.0
O130 O 0.63363 0.08161 0.27474 0.0
O131 O 0.71002 0.33859 0.21661 0.0
O132 O 0.66053 0.20124 0.18287 0.0
O133 O 0.64514 0.09703 0.19182 0.0
O134 O 0.78149 0.0875 0.21316 0.0
O135 O 0.78734 0.25635 0.18174 0.0
O136 O 0.81582 0.35197 0.2455 0.0
O137 O 0.7416 0.09882 0.30598 0.0
O138 O 0.79006 0.23285 0.3362 0.0
O139 O 0.80348 0.33661 0.32932 0.0
C140 C 0.61976 0.10469 0.32884 0.0
C141 C 0.62122 0.35672 0.22709 0.0
C142 C 0.56082 0.34167 0.13981 0.0
C143 C 0.50725 0.3382 0.18118 0.0
C144 C 0.57364 0.36546 0.26623 0.0
C145 C 0.51643 0.3546 0.24335 0.0
C146 C 0.61748 0.34904 0.16294 0.0
C147 C 0.63323 0.13206 0.16153 0.0
C148 C 0.67765 0.36196 0.25369 0.0
C149 C 0.50165 0.21825 0.50703 0.0
C150 C 0.43783 0.20434 0.46991 0.0
C151 C 0.8303 0.32912 0.1916 0.0
C152 C 0.82823 0.07787 0.29579 0.0
C153 C 0.88619 0.08901 0.3831 0.0
C154 C 0.94136 0.09514 0.34217 0.0
C155 C 0.87763 0.07204 0.25664 0.0
C156 C 0.83014 0.08254 0.35984 0.0
C157 C 0.9348 0.08297 0.27976 0.0
C158 C 0.81606 0.3013 0.35848 0.0
C159 C 0.77181 0.07278 0.2693 0.0
H160 H 0.46455 0.33492 0.16511 0.0
H161 H 0.58304 0.38354 0.31396 0.0
H162 H 0.48307 0.36592 0.2728 0.0
H163 H 0.65995 0.35252 0.13149 0.0
H164 H -0.01603 0.09805 0.35818 0.0
H165 H 0.86981 0.05648 0.20866 0.0
H166 H 0.78666 0.07732 0.39096 0.0
H167 H 0.97077 0.07554 0.25012 0.0
Eu168 Eu 0.65908 0.62908 0.30035 0.0
C169 C 0.95116 0.88653 0.16295 0.0
N170 N 0.91895 0.91052 0.22231 0.0
C171 C 0.05529 0.01013 0.29747 0.0
C172 C 0.08739 0.93751 0.16958 0.0
C173 C 0.96167 -0.03292 0.28275 0.0
C174 C 0.11979 -0.00169 0.24473 0.0
C175 C 0.96315 0.90238 0.04527 0.0
C176 C 0.9207 0.877 0.10758 0.0
C177 C 0.0482 0.94454 0.03014 0.0
C178 C 0.12895 0.96196 0.1032 0.0
Eu179 Eu 0.79117 0.80015 0.21562 0.0
N180 N 0.84807 0.83251 0.11436 0.0
C181 C 0.91975 0.86456 0.99697 0.0
C182 C 0.81038 0.79658 0.06373 0.0
C183 C 0.8469 0.80582 1.00635 0.0
H184 H 0.92887 -0.02984 0.32165 0.0
H185 H 0.81857 0.76705 0.96867 0.0
H186 H 0.51233 0.46087 0.19172 0.0
H187 H 0.63304 0.67189 0.54455 0.0
H188 H 0.75208 0.75705 0.06699 0.0
H189 H 0.94392 0.87602 0.95158 0.0
H190 H 0.70291 0.67935 0.44822 0.0
H191 H 0.10195 0.01417 0.27669 0.0
H192 H 0.0615 0.95896 0.98306 0.0
H193 H 0.18669 -0.00607 0.10195 0.0
H194 H 0.34275 0.42082 0.25003 0.0
H195 H 0.11755 -0.03434 0.20267 0.0
H196 H 0.5158 0.55675 0.56531 0.0
N197 N 0.53019 0.51645 0.29342 0.0
C198 C 0.50218 0.53803 0.35719 0.0
C199 C 0.38776 0.42424 0.2255 0.0
C200 C 0.36607 0.49232 0.36059 0.0
C201 C 0.48267 0.46362 0.23352 0.0
C202 C 0.32839 0.43633 0.28508 0.0
N203 N 0.60786 0.59431 0.40143 0.0
C204 C 0.64554 0.63559 0.45161 0.0
C205 C 0.49737 0.51692 0.47148 0.0
C206 C 0.53589 0.5435 0.40879 0.0
C207 C 0.54001 0.5634 0.51938 0.0
C208 C 0.60889 0.62762 0.50862 0.0
H209 H 0.33456 0.4659 0.32962 0.0
H210 H 0.26984 0.43646 0.43579 0.0
H211 H 0.40512 0.46029 0.53646 0.0
O212 O 0.76421 0.65717 0.30857 0.0
O213 O 0.63882 0.72442 0.33024 0.0
O214 O 0.74223 0.83843 0.30255 0.0
O215 O 0.6646 0.55088 0.33551 0.0
O216 O 0.73013 0.73811 0.36584 0.0
O217 O 0.83502 0.81775 0.30947 0.0
O218 O 0.68652 0.77232 0.2062 0.0
O219 O 0.8105 0.70437 0.18656 0.0
O220 O 0.70598 0.59046 0.21289 0.0
O221 O 0.78626 0.87877 0.18006 0.0
O222 O 0.72023 0.69285 0.14961 0.0
O223 O 0.6161 0.61191 0.20671 0.0
C224 C 0.67621 0.7998 0.33237 0.0
C225 C 0.77762 0.56863 0.3314 0.0
C226 C 0.859 0.5635 0.38125 0.0
C227 C 0.85921 0.51719 0.33023 0.0
C228 C 0.78153 0.52561 0.28013 0.0
C229 C 0.82445 0.50243 0.27865 0.0
C230 C 0.81898 0.59003 0.38052 0.0
C231 C 0.80124 0.79213 0.36317 0.0
C232 C 0.73582 0.59704 0.33372 0.0
C233 C 0.32807 0.46461 0.42806 0.0
C234 C 0.41423 0.47501 0.48997 0.0
C235 C 0.77202 0.62886 0.18354 0.0
C236 C 0.67279 0.86107 0.18592 0.0
C237 C 0.5879 0.86432 0.1396 0.0
C238 C 0.59126 0.91315 0.19 0.0
C239 C 0.67253 0.90678 0.2368 0.0
C240 C 0.62699 0.83658 0.13948 0.0
C241 C 0.62932 0.93 0.23988 0.0
C242 C 0.64953 0.63814 0.15316 0.0
C243 C 0.71496 0.83265 0.18151 0.0
H244 H 0.88791 0.49434 0.32977 0.0
H245 H 0.75079 0.50929 0.24171 0.0
H246 H 0.82947 0.4716 0.23785 0.0
H247 H 0.82532 0.63295 0.41516 0.0
H248 H 0.56325 0.9369 0.19117 0.0
H249 H 0.70537 0.92414 0.274 0.0
H250 H 0.6179 0.79182 0.10565 0.0
H251 H 0.62661 -0.03738 0.28045 0.0
Eu252 Eu 0.15798 0.72128 0.29063 0.0
C253 C 0.28271 0.59416 0.29354 0.0
N254 N 0.32563 0.66707 0.29063 0.0
C255 C 0.39499 0.68461 0.36532 0.0
C256 C 0.28557 0.5658 0.34046 0.0
C257 C 0.38517 0.7122 0.32244 0.0
C258 C 0.341 0.61249 0.37882 0.0
C259 C 0.21028 0.47541 0.241 0.0
C260 C 0.23814 0.54948 0.24805 0.0
C261 C 0.20215 0.44367 0.29153 0.0
C262 C 0.23774 0.49092 0.34323 0.0
Eu263 Eu 0.28808 0.70768 0.23263 0.0
N264 N 0.24307 0.58274 0.20243 0.0
C265 C 0.21146 0.44371 0.18267 0.0
C266 C 0.23809 0.54955 0.14412 0.0
C267 C 0.22661 0.48119 0.13364 0.0
H268 H 0.42444 0.76942 0.31554 0.0
H269 H 0.23092 0.45781 0.08804 0.0
H270 H 0.01961 0.6524 0.20844 0.0
H271 H 0.22202 -0.01944 0.42677 0.0
H272 H 0.24929 0.57803 0.1058 0.0
H273 H 0.21074 0.39598 0.17683 0.0
H274 H 0.19863 0.8576 0.41519 0.0
H275 H 0.4441 0.71866 0.38649 0.0
H276 H 0.17815 0.3858 0.28752 0.0
H277 H 0.23988 0.47233 0.38094 0.0
H278 H 0.01042 0.69556 0.12463 0.0
H279 H 0.34439 0.59192 0.41608 0.0
H280 H 0.24289 0.03752 0.33343 0.0
N281 N 0.11449 0.75757 0.23521 0.0
C282 C 0.15767 0.82955 0.22872 0.0
C283 C 0.05363 0.7332 0.15147 0.0
C284 C 0.15927 0.85417 0.17708 0.0
C285 C 0.05798 0.70959 0.20071 0.0
C286 C 0.10852 0.80423 0.13618 0.0
N287 N 0.20107 0.84638 0.31854 0.0
C288 C 0.20893 0.88356 0.37539 0.0
C289 C 0.23465 0.95065 0.27403 0.0
C290 C 0.20402 0.87641 0.27169 0.0
C291 C 0.23796 -0.01239 0.33069 0.0
C292 C 0.22324 0.95337 0.38218 0.0
H293 H 0.10983 0.82141 0.09494 0.0
H294 H 0.2221 0.94024 0.12334 0.0
H295 H 0.27537 0.03723 0.2194 0.0
O296 O 0.10367 0.72075 0.37957 0.0
O297 O 0.22832 0.77816 0.19836 0.0
O298 O 0.33649 0.82364 0.22088 0.0
O299 O 0.04132 0.64188 0.30423 0.0
O300 O 0.23475 0.76702 0.37021 0.0
O301 O 0.33523 0.804 0.30891 0.0
O302 O 0.34718 0.71041 0.14596 0.0
O303 O 0.21815 0.65136 0.32461 0.0
O304 O 0.11037 0.60477 0.30023 0.0
O305 O 0.40532 0.78678 0.22354 0.0
O306 O 0.21051 0.66134 0.15261 0.0
O307 O 0.10969 0.62518 0.21347 0.0
C308 C 0.29992 0.82604 0.18715 0.0
C309 C 0.00335 0.70849 0.35887 0.0
C310 C 0.00763 0.81504 0.38865 0.0
C311 C 0.95126 0.78533 0.35211 0.0
C312 C 0.95714 0.68631 0.31378 0.0
C313 C 0.92429 0.71918 0.31622 0.0
C314 C 0.0247 0.77085 0.3992 0.0
C315 C 0.30578 0.80417 0.36432 0.0
C316 C 0.04056 0.67699 0.35658 0.0
C317 C 0.2117 0.9275 0.16878 0.0
C318 C 0.24549 -0.02132 0.21995 0.0
C319 C 0.14664 0.60231 0.33439 0.0
C320 C 0.44628 0.72234 0.17009 0.0
C321 C 0.44466 0.61715 0.13925 0.0
C322 C 0.50142 0.64771 0.1757 0.0
C323 C 0.49363 0.74607 0.21472 0.0
C324 C 0.42535 0.65993 0.13008 0.0
C325 C 0.52646 0.71305 0.21291 0.0
C326 C 0.13916 0.62384 0.15812 0.0
C327 C 0.40891 0.75353 0.17115 0.0
H328 H 0.9308 0.81435 0.34818 0.0
H329 H 0.94135 0.64004 0.2798 0.0
H330 H 0.88424 0.69786 0.28461 0.0
H331 H 0.06175 0.78948 0.43344 0.0
H332 H 0.52351 0.61964 0.17815 0.0
H333 H 0.51006 0.79352 0.24772 0.0
H334 H 0.38824 0.64092 0.09579 0.0
H335 H 0.56822 0.73614 0.24324 0.0
Eu336 Eu 0.19786 0.76657 0.77645 0.0
C337 C 0.3474 0.70099 0.6259 0.0
N338 N 0.2762 0.65232 0.64121 0.0
C339 C 0.24241 0.61569 0.53811 0.0
C340 C 0.36587 0.69063 0.55088 0.0
C341 C 0.22938 0.59981 0.59803 0.0
C342 C 0.31158 0.66772 0.5162 0.0
C343 C 0.48366 0.74572 0.67083 0.0
C344 C 0.40163 0.732 0.68423 0.0
C345 C 0.50281 0.71542 0.55138 0.0
C346 C 0.43539 0.69603 0.51524 0.0
Eu347 Eu 0.24749 0.65785 0.74481 0.0
N348 N 0.37386 0.73083 0.74142 0.0
C349 C 0.5215 0.77449 0.72477 0.0
C350 C 0.41324 0.7474 0.78821 0.0
C351 C 0.48683 0.7783 0.78079 0.0
H352 H 0.1785 0.54902 0.61034 0.0
H353 H 0.51639 0.80098 0.82081 0.0
H354 H 0.26209 0.86648 0.91537 0.0
H355 H 0.93042 0.62729 0.69999 0.0
H356 H 0.38688 0.73118 0.83221 0.0
H357 H 0.57631 0.79359 0.72611 0.0
H358 H 0.05967 0.69402 0.68894 0.0
H359 H 0.20048 0.58642 0.50724 0.0
H360 H 0.54615 0.71614 0.52277 0.0
H361 H 0.4368 0.68977 0.46851 0.0
H362 H 0.23981 0.82359 0.01566 0.0
H363 H 0.32197 0.68038 0.47029 0.0
H364 H 0.87093 0.63533 0.79469 0.0
N365 N 0.16618 0.76403 0.88061 0.0
C366 C 0.0944 0.71594 0.89504 0.0
C367 C 0.19803 0.79432 0.98407 0.0
C368 C 0.07519 0.72416 0.9701 0.0
C369 C 0.21208 0.81387 0.92532 0.0
C370 C 0.12787 0.74091 1.00386 0.0
N371 N 0.07118 0.69287 0.77971 0.0
C372 C 0.03274 0.67786 0.7328 0.0
C373 C 0.96249 0.68009 0.85033 0.0
C374 C 0.0423 0.68981 0.83687 0.0
C375 C 0.92533 0.65329 0.79614 0.0
C376 C 0.95967 0.64887 0.74008 0.0
H377 H 0.11581 0.72336 0.0481 0.0
H378 H 0.00296 0.72663 0.05215 0.0
H379 H 0.90004 0.70915 0.99853 0.0
O380 O 0.16902 0.84289 0.80463 0.0
O381 O 0.15991 0.67211 0.83664 0.0
O382 O 0.12847 0.57551 0.77425 0.0
O383 O 0.20678 0.82945 0.7114 0.0
O384 O 0.16306 0.6995 0.68008 0.0
O385 O 0.14113 0.59389 0.6939 0.0
O386 O 0.27384 0.57942 0.71909 0.0
O387 O 0.28859 0.7526 0.68304 0.0
O388 O 0.31631 0.84912 0.74492 0.0
O389 O 0.23938 0.59777 0.81212 0.0
O390 O 0.28542 0.7279 0.83967 0.0
O391 O 0.30449 0.83287 0.82736 0.0
C392 C 0.11491 0.59921 0.82792 0.0
C393 C 0.12039 0.85089 0.72261 0.0
C394 C 0.06027 0.83817 0.63629 0.0
C395 C 0.00605 0.83287 0.67798 0.0
C396 C 0.07201 0.85773 0.76242 0.0
C397 C 0.01431 0.84654 0.74016 0.0
C398 C 0.1169 0.84491 0.65868 0.0
C399 C 0.13341 0.6296 0.66028 0.0
C400 C 0.17736 0.85624 0.74824 0.0
C401 C 0.00684 0.72197 1.00593 0.0
C402 C 0.94237 0.70804 0.96988 0.0
C403 C 0.33105 0.82558 0.69152 0.0
C404 C 0.32516 0.57575 0.80139 0.0
C405 C 0.38688 0.59171 0.88784 0.0
C406 C 0.44328 0.60126 0.84659 0.0
C407 C 0.37744 0.57539 0.76165 0.0
C408 C 0.32827 0.58106 0.86519 0.0
C409 C 0.4371 0.59076 0.7843 0.0
C410 C 0.3149 0.7978 0.85928 0.0
C411 C 0.26693 0.56854 0.77606 0.0
H412 H 0.96331 0.83012 0.66255 0.0
H413 H 0.08097 0.87422 0.81023 0.0
H414 H -0.02054 0.85517 0.77017 0.0
H415 H 0.15975 0.84956 0.62696 0.0
H416 H 0.48724 0.60601 0.86199 0.0
H417 H 0.37076 0.56189 0.71344 0.0
H418 H 0.2839 0.57328 0.89665 0.0
H419 H 0.47601 0.58843 0.75435 0.0
Eu420 Eu 0.15571 0.12699 0.8049 0.0
C421 C 0.44873 0.38023 0.66728 0.0
N422 N 0.41325 0.40468 0.72322 0.0
C423 C 0.54669 0.5154 0.79986 0.0
C424 C 0.58684 0.44049 0.6779 0.0
C425 C 0.45288 0.46575 0.78232 0.0
C426 C 0.61573 0.50589 0.75153 0.0
C427 C 0.45975 0.38782 0.5479 0.0
C428 C 0.41741 0.36416 0.61026 0.0
C429 C 0.54548 0.43373 0.53408 0.0
C430 C 0.62848 0.46202 0.6109 0.0
Eu431 Eu 0.28622 0.2942 0.71834 0.0
N432 N 0.34464 0.31841 0.61661 0.0
C433 C 0.41583 0.34956 0.49954 0.0
C434 C 0.30743 0.27874 0.56609 0.0
C435 C 0.34252 0.29017 0.50836 0.0
H436 H 0.41812 0.46943 0.81878 0.0
H437 H 0.30994 0.2552 0.47039 0.0
H438 H 0.01638 0.95681 0.6973 0.0
H439 H 0.12697 0.16289 0.05062 0.0
H440 H 0.24942 0.23868 0.56884 0.0
H441 H 0.43876 0.36509 0.45475 0.0
H442 H 0.19478 0.17226 0.95387 0.0
H443 H 0.59447 0.52053 0.78117 0.0
H444 H 0.55828 0.44547 0.48623 0.0
H445 H 0.68641 0.49759 0.61075 0.0
H446 H 0.84553 0.91835 0.74409 0.0
H447 H 0.6164 0.4724 0.71106 0.0
H448 H 0.00304 0.05132 0.06878 0.0
N449 N 0.0283 0.01517 0.79766 0.0
C450 C -0.00236 0.04003 0.85777 0.0
C451 C 0.89125 0.92089 0.72289 0.0
C452 C 0.86315 -0.00558 0.85172 0.0
C453 C -0.01559 0.96011 0.73686 0.0
C454 C 0.8294 0.93532 0.77649 0.0
N455 N 0.09964 0.0935 0.90609 0.0
C456 C 0.13672 0.13123 0.95678 0.0
C457 C -0.01564 0.02206 0.97485 0.0
C458 C 0.02713 0.04727 0.91259 0.0
C459 C 0.02742 0.06178 0.02329 0.0
C460 C 0.0995 0.1223 0.01369 0.0
H461 H 0.8331 -0.03167 0.81874 0.0
H462 H 0.76331 0.93883 0.91934 0.0
H463 H 0.88577 -0.03353 0.03684 0.0
O464 O 0.26054 0.15385 0.81242 0.0
O465 O 0.13803 0.22426 0.83422 0.0
O466 O 0.24225 0.33687 0.80549 0.0
O467 O 0.16029 0.0485 0.84064 0.0
O468 O 0.22807 0.23485 0.87085 0.0
O469 O 0.33126 0.31402 0.81224 0.0
O470 O 0.18072 0.26785 0.7119 0.0
O471 O 0.30663 0.19948 0.69044 0.0
O472 O 0.20195 0.08639 0.71726 0.0
O473 O 0.28033 0.37085 0.68036 0.0
O474 O 0.21339 0.18523 0.65524 0.0
O475 O 0.10893 0.10979 0.71293 0.0
C476 C 0.17674 0.29976 0.83596 0.0
C477 C 0.2725 0.06394 0.83372 0.0
C478 C 0.35527 0.05888 0.88122 0.0
C479 C 0.35418 0.01209 0.83005 0.0
C480 C 0.27476 0.02018 0.78221 0.0
C481 C 0.3184 -0.00253 0.77924 0.0
C482 C 0.31583 0.08612 0.88132 0.0
C483 C 0.2988 0.28993 0.86669 0.0
C484 C 0.23162 0.09362 0.83764 0.0
C485 C 0.82086 -0.03082 0.91788 0.0
C486 C 0.8996 -0.01836 0.98997 0.0
C487 C 0.268 0.12411 0.68746 0.0
C488 C 0.16753 0.35638 0.68596 0.0
C489 C 0.08712 0.36304 0.63555 0.0
C490 C 0.09051 0.4128 0.68493 0.0
C491 C 0.16696 0.40307 0.7357 0.0
C492 C 0.12386 0.33373 0.63737 0.0
C493 C 0.12592 0.4283 0.73629 0.0
C494 C 0.14228 0.13386 0.65884 0.0
C495 C 0.20892 0.32691 0.68548 0.0
H496 H 0.38285 -0.01096 0.82877 0.0
H497 H 0.24281 0.00362 0.74462 0.0
H498 H 0.32282 -0.03338 0.73809 0.0
H499 H 0.32511 0.13115 0.91472 0.0
H500 H 0.06378 0.43753 0.68446 0.0
H501 H 0.19804 0.41975 0.77404 0.0
H502 H 0.11302 0.28895 0.60276 0.0
H503 H 0.12267 0.46117 0.77629 0.0
Eu504 Eu 0.65744 0.22324 0.79181 0.0
C505 C 0.78816 0.10069 0.79128 0.0
N506 N 0.83086 0.17281 0.78533 0.0
C507 C 0.89902 0.19534 0.86298 0.0
C508 C 0.78938 0.07577 0.84145 0.0
C509 C 0.88962 0.2203 0.81765 0.0
C510 C 0.84413 0.12478 0.87954 0.0
C511 C 0.70889 -0.02073 0.7465 0.0
C512 C 0.74026 0.05376 0.74903 0.0
C513 C 0.70022 0.95145 0.79998 0.0
C514 C 0.7366 0.00268 0.85035 0.0
Eu515 Eu 0.78626 0.20904 0.73091 0.0
N516 N 0.74131 0.08346 0.70284 0.0
C517 C 0.70245 0.94138 0.68967 0.0
C518 C 0.73056 0.04545 0.64596 0.0
C519 C 0.71627 -0.02438 0.63852 0.0
H520 H 0.92743 0.27758 0.81009 0.0
H521 H 0.71817 0.94895 0.59385 0.0
H522 H 0.52096 0.15241 0.70714 0.0
H523 H 0.72126 0.48254 0.93127 0.0
H524 H 0.73938 0.07097 0.60636 0.0
H525 H 0.69699 0.89117 0.68628 0.0
H526 H 0.69682 0.35887 0.91896 0.0
H527 H 0.94691 0.23099 0.88516 0.0
H528 H 0.66979 0.89283 0.80054 0.0
H529 H 0.72726 -0.00998 0.8956 0.0
H530 H 0.52797 0.19354 0.61267 0.0
H531 H 0.84576 0.10705 0.91927 0.0
H532 H 0.74167 0.54006 0.83821 0.0
N533 N 0.61127 0.25845 0.73834 0.0
C534 C 0.65396 0.33057 0.73245 0.0
C535 C 0.56316 0.23223 0.64607 0.0
C536 C 0.66012 0.35535 0.67914 0.0
C537 C 0.55921 0.20972 0.69985 0.0
C538 C 0.61782 0.30422 0.63365 0.0
N539 N 0.69654 0.3471 0.8225 0.0
C540 C 0.70595 0.38462 0.87939 0.0
C541 C 0.72973 0.45162 0.77855 0.0
C542 C 0.69857 0.37722 0.77628 0.0
C543 C 0.73512 0.48926 0.83523 0.0
C544 C 0.72122 0.45504 0.88655 0.0
H545 H 0.62667 0.32087 0.59023 0.0
H546 H 0.7242 0.44253 0.62667 0.0
H547 H 0.77239 0.53866 0.72334 0.0
O548 O 0.60235 0.2214 0.88052 0.0
O549 O 0.7263 0.27997 0.69923 0.0
O550 O 0.83406 0.32568 0.72258 0.0
O551 O 0.54135 0.14044 0.80526 0.0
O552 O 0.73717 0.27064 0.86982 0.0
O553 O 0.83671 0.30505 0.80754 0.0
O554 O 0.83831 0.20894 0.64081 0.0
O555 O 0.71858 0.15308 0.82389 0.0
O556 O 0.61018 0.10699 0.80195 0.0
O557 O 0.90253 0.2888 0.71494 0.0
O558 O 0.7083 0.16201 0.65211 0.0
O559 O 0.60862 0.12677 0.71403 0.0
C560 C 0.79792 0.32787 0.68814 0.0
C561 C 0.49856 0.2027 0.85974 0.0
C562 C 0.49854 0.30632 0.89105 0.0
C563 C 0.44364 0.27693 0.85271 0.0
C564 C 0.45382 0.18059 0.81318 0.0
C565 C 0.41952 0.21207 0.81485 0.0
C566 C 0.51551 0.2623 0.90207 0.0
C567 C 0.80822 0.30672 0.86317 0.0
C568 C 0.53916 0.17489 0.85757 0.0
C569 C 0.71171 0.42922 0.67215 0.0
C570 C 0.74209 0.48006 0.7242 0.0
C571 C 0.64719 0.10453 0.83517 0.0
C572 C 0.93794 0.22004 0.66115 0.0
C573 C 0.93144 0.11163 0.63486 0.0
C574 C -0.01073 0.14322 0.6702 0.0
C575 C -0.01445 0.2441 0.70541 0.0
C576 C 0.91324 0.15479 0.62391 0.0
C577 C 0.01665 0.21008 0.70491 0.0
C578 C 0.63717 0.12361 0.6585 0.0
C579 C 0.90196 0.25257 0.66282 0.0
H580 H 0.42481 0.30684 0.84668 0.0
H581 H 0.44061 0.13553 0.77841 0.0
H582 H 0.38273 0.19279 0.78048 0.0
H583 H 0.55135 0.28058 0.93735 0.0
H584 H 0.01291 0.11686 0.67212 0.0
H585 H 0.00412 0.29299 0.7369 0.0
H586 H 0.87484 0.13468 0.59051 0.0
H587 H 0.06072 0.23527 0.73309 0.0
Eu588 Eu 0.63608 0.6399 0.71851 0.0
C589 C 0.89501 0.9388 0.89223 0.0
N590 N 0.90754 0.93599 0.82152 0.0
C591 C -0.02535 0.11216 0.81607 0.0
C592 C 0.93301 0.06801 0.93257 0.0
C593 C 0.95131 0.03612 0.77933 0.0
C594 C -0.02797 0.12911 0.88475 0.0
C595 C 0.77198 0.8927 0.99608 0.0
C596 C 0.81495 0.86987 0.93298 0.0
C597 C 0.79866 -0.0185 0.02553 0.0
C598 C 0.87249 0.06447 0.99868 0.0
Eu599 Eu 0.81194 0.78788 0.80189 0.0
N600 N 0.76934 0.80384 0.90325 0.0
C601 C 0.70008 0.83755 1.00681 0.0
C602 C 0.71171 0.75217 0.93813 0.0
C603 C 0.67115 0.76646 0.98196 0.0
H604 H 0.95557 0.04315 0.73232 0.0
H605 H 0.61801 0.72128 0.99886 0.0
H606 H 0.4986 0.39692 0.79802 0.0
H607 H 0.82034 0.70344 0.51875 0.0
H608 H 0.71056 0.70842 0.94746 0.0
H609 H 0.6659 0.85176 0.02938 0.0
H610 H 0.73188 0.71756 0.57621 0.0
H611 H -0.00113 0.15835 0.79367 0.0
H612 H 0.76396 -0.01484 0.06235 0.0
H613 H 0.90997 0.0771 0.96481 0.0
H614 H 0.4906 0.29472 0.74288 0.0
H615 H 0.00568 0.18686 0.90095 0.0
H616 H 0.77822 0.57472 0.4917 0.0
N617 N 0.53347 0.49028 0.70013 0.0
C618 C 0.54662 0.48258 0.62948 0.0
C619 C 0.48408 0.32398 0.71823 0.0
C620 C 0.51996 0.35656 0.59804 0.0
C621 C 0.4977 0.39807 0.74975 0.0
C622 C 0.48729 0.30156 0.65049 0.0
N623 N 0.66962 0.6191 0.61538 0.0
C624 C 0.72769 0.67098 0.58123 0.0
C625 C 0.67174 0.52964 0.52702 0.0
C626 C 0.625 0.55171 0.58674 0.0
C627 C 0.74225 0.58678 0.51403 0.0
C628 C 0.76829 0.65763 0.53661 0.0
H629 H 0.46844 0.24594 0.63944 0.0
H630 H 0.54506 0.3483 0.56755 0.0
H631 H 0.68852 0.4399 0.46863 0.0
O632 O 0.6423 0.72786 0.68833 0.0
O633 O 0.72681 0.61762 0.68771 0.0
O634 O 0.83932 0.72763 0.712 0.0
O635 O 0.54885 0.60967 0.66959 0.0
O636 O 0.72094 0.75895 0.68664 0.0
O637 O 0.82966 0.78892 0.69599 0.0
O638 O 0.80936 0.70327 0.83274 0.0
O639 O 0.72182 0.81153 0.83139 0.0
O640 O 0.60888 0.7016 0.80784 0.0
O641 O 0.90153 0.82133 0.85168 0.0
O642 O 0.73187 0.66859 0.83263 0.0
O643 O 0.62737 0.64673 0.82526 0.0
C644 C 0.80017 0.65774 0.68164 0.0
C645 C 0.55283 0.70121 0.62747 0.0
C646 C 0.56613 0.8359 0.60026 0.0
C647 C 0.47598 0.78838 0.59825 0.0
C648 C 0.46457 0.63343 0.62388 0.0
C649 C 0.40814 0.64844 0.61119 0.0
C650 C 0.60047 0.79264 0.61472 0.0
C651 C 0.78962 0.79328 0.66569 0.0
C652 C 0.58306 0.67905 0.66046 0.0
C653 C 0.583 0.36108 0.53403 0.0
C654 C 0.65215 0.44284 0.50389 0.0
C655 C 0.64844 0.77207 0.83759 0.0
C656 C 0.89696 0.72841 0.8941 0.0
C657 C 0.8759 0.58851 0.91926 0.0
C658 C 0.96493 0.63202 0.92164 0.0
C659 C -0.01422 0.79361 0.89912 0.0
C660 C 0.84583 0.63605 0.90557 0.0
C661 C 0.039 0.77428 0.9118 0.0
C662 C 0.66344 0.63472 0.85273 0.0
C663 C 0.8683 0.75223 0.86068 0.0
H664 H 0.45617 0.81754 0.58922 0.0
H665 H 0.44178 0.57782 0.63119 0.0
H666 H 0.35097 0.60055 0.6125 0.0
H667 H 0.65765 0.82048 0.60412 0.0
H668 H -0.01819 0.59988 0.92993 0.0
H669 H 0.0109 0.84972 0.89183 0.0
H670 H 0.78967 0.6114 0.91753 0.0
H671 H 0.09659 0.82079 0.91213 0.0
C672 C 0.88942 0.03499 0.60979 0.0
C673 C 0.87654 0.06262 0.44171 0.0
C674 C 0.84432 0.82865 0.42223 0.0
Mg675 Mg -0.02783 0.0487 0.52024 0.0
O676 O 0.8971 0.94844 0.47097 0.0
Mg677 Mg 0.79128 0.9133 0.50895 0.0
Mg678 Mg -0.02545 -0.03483 0.51007 0.0
O679 O 0.0514 -0.01903 0.54908 0.0
Mg680 Mg -0.02604 0.88061 0.50029 0.0
Mg681 Mg 0.15629 0.01497 0.51197 0.0
C682 C 0.09956 0.09842 0.60027 0.0
C683 C 0.13077 0.09056 0.41059 0.0
O684 O 0.84534 0.01497 0.57201 0.0
O685 O 0.91796 0.00353 0.60317 0.0
O686 O 0.81928 -0.00433 0.44715 0.0
O687 O 0.93379 0.09484 0.47162 0.0
O688 O 0.07651 0.12665 0.57725 0.0
O689 O 0.0747 0.03052 0.57485 0.0
C690 C 0.82222 0.84231 0.6112 0.0
O691 O 0.88945 0.87696 0.58995 0.0
O692 O 0.78012 0.84666 0.58593 0.0
O693 O 0.09653 0.91195 0.44982 0.0
O694 O 0.02684 0.92647 0.41683 0.0
O695 O 0.12701 0.93158 0.57268 0.0
C696 C 0.05213 0.89211 0.41237 0.0
O697 O 0.01177 0.83371 0.54898 0.0
O698 O 0.86641 0.80016 0.44641 0.0
C699 C 0.06934 0.86494 0.57814 0.0
O700 O 0.87231 0.89805 0.44551 0.0
O701 O 0.06253 0.0549 0.43002 0.0
O702 O 0.17158 0.08575 0.43703 0.0
C703 C 0.34063 0.12592 0.13489 0.0
C704 C 0.38057 0.06239 0.93826 0.0
C705 C 0.3604 0.83215 0.91642 0.0
Mg706 Mg 0.47437 0.13079 0.05719 0.0
O707 O 0.43193 0.02622 0.05084 0.0
Mg708 Mg 0.32504 0.95707 0.03819 0.0
Mg709 Mg 0.47382 -0.03545 0.01072 0.0
O710 O 0.51578 0.90282 0.97032 0.0
Mg711 Mg 0.47341 0.79802 0.96261 0.0
Mg712 Mg 0.62247 -0.02844 0.98316 0.0
C713 C 0.58783 0.09783 0.1044 0.0
C714 C 0.61036 0.05699 0.88911 0.0
O715 O 0.30767 0.05688 0.10931 0.0
O716 O 0.40999 0.16838 0.12299 0.0
O717 O 0.3361 0.00384 0.9624 0.0
O718 O 0.43954 0.11828 0.96321 0.0
O719 O 0.55471 0.12588 0.10058 0.0
O720 O 0.58425 0.04871 0.05947 0.0
C721 C 0.3374 0.87305 0.13285 0.0
O722 O 0.39872 0.89055 0.10298 0.0
O723 O 0.3051 0.89508 0.11695 0.0
O724 O 0.64153 0.87309 0.91044 0.0
O725 O 0.53894 0.76211 0.89589 0.0
O726 O 0.60814 0.92102 0.05885 0.0
C727 C 0.60833 0.80426 0.884 0.0
O728 O 0.5045 0.80627 0.05711 0.0
O729 O 0.39363 0.80425 0.92015 0.0
C730 C 0.56335 0.86179 0.08244 0.0
O731 O 0.36357 0.8807 0.96169 0.0
O732 O 0.54881 0.03875 0.91893 0.0
O733 O 0.64316 0.0352 0.90471 0.0
C734 C 0.80741 0.58762 0.15109 0.0
C735 C 0.84847 0.54861 0.97418 0.0
C736 C 0.858 0.3363 0.91553 0.0
Mg737 Mg 0.93464 0.5844 0.0981 0.0
O738 O 0.9162 0.50692 0.04269 0.0
Mg739 Mg 0.80682 0.43306 0.04403 0.0
Mg740 Mg -0.02614 0.46451 0.00995 0.0
O741 O 0.03123 0.42142 0.97647 0.0
Mg742 Mg 0.01208 0.34272 0.92114 0.0
Mg743 Mg 0.1408 0.49634 0.97473 0.0
C744 C 0.08959 0.59296 0.1049 0.0
C745 C 0.0912 0.55451 0.88192 0.0
O746 O 0.7747 0.52274 0.11616 0.0
O747 O 0.87325 0.61921 0.16058 0.0
O748 O 0.81051 0.47908 0.96726 0.0
O749 O 0.88836 0.58579 0.0202 0.0
O750 O 0.03788 0.59964 0.11693 0.0
O751 O 0.09072 0.55588 0.0529 0.0
C752 C 0.85487 0.37441 0.1379 0.0
O753 O 0.91453 0.3966 0.10341 0.0
O754 O 0.81103 0.38485 0.12475 0.0
O755 O 0.17399 0.40681 0.90249 0.0
O756 O 0.07581 0.31031 0.85778 0.0
O757 O 0.13812 0.45134 0.05073 0.0
C758 C 0.14163 0.34193 0.86746 0.0
O759 O 0.06226 0.34407 0.99739 0.0
O760 O 0.90898 0.32842 0.90298 0.0
C761 C 0.10199 0.38203 0.04338 0.0
O762 O 0.85786 0.37415 0.96719 0.0
O763 O 0.03189 0.53226 0.91675 0.0
O764 O 0.13503 0.54387 0.89462 0.0
C765 C 0.40278 0.54095 0.1125 0.0
C766 C 0.37925 0.56603 0.94604 0.0
C767 C 0.34332 0.32806 0.92478 0.0
Mg768 Mg 0.47664 0.5498 0.01905 0.0
O769 O 0.39807 0.44896 0.97145 0.0
Mg770 Mg 0.29561 0.41857 0.01344 0.0
Mg771 Mg 0.47606 0.46551 0.00924 0.0
O772 O 0.55358 0.48222 0.04759 0.0
Mg773 Mg 0.47419 0.38076 1.00124 0.0
Mg774 Mg 0.65546 0.5105 1.0081 0.0
C775 C 0.60624 0.60217 0.09514 0.0
C776 C 0.62835 0.5842 0.90629 0.0
O777 O 0.35766 0.52132 0.07584 0.0
O778 O 0.43052 0.50864 0.10495 0.0
O779 O 0.32181 0.4997 0.9525 0.0
O780 O 0.43747 0.5977 0.97428 0.0
O781 O 0.58272 0.63032 0.07276 0.0
O782 O 0.57866 0.53282 0.07181 0.0
C783 C 0.32561 0.34504 0.11206 0.0
O784 O 0.39239 0.37859 0.09009 0.0
O785 O 0.28388 0.35077 0.08812 0.0
O786 O 0.59082 0.40446 0.94976 0.0
O787 O 0.52365 0.42157 0.91528 0.0
O788 O 0.62766 0.43116 0.07238 0.0
C789 C 0.54523 0.38408 0.91324 0.0
O790 O 0.51113 0.33428 0.05182 0.0
O791 O 0.36563 0.30003 0.9492 0.0
C792 C 0.56923 0.36569 0.08028 0.0
O793 O 0.37227 0.39808 0.94676 0.0
O794 O 0.56157 0.5526 0.92837 0.0
O795 O 0.66855 0.57696 0.93094 0.0
C796 C 0.84084 0.62605 0.63592 0.0
C797 C 0.88294 0.56628 0.43879 0.0
C798 C 0.86014 0.33375 0.41587 0.0
Mg799 Mg -0.02485 0.6311 0.55797 0.0
O800 O 0.932 0.52622 0.55062 0.0
Mg801 Mg 0.82499 0.45821 0.53773 0.0
Mg802 Mg -0.02729 0.4632 0.51019 0.0
O803 O 0.01311 0.39977 0.46899 0.0
Mg804 Mg 0.971 0.295 0.45927 0.0
Mg805 Mg 0.12018 0.46715 0.47973 0.0
C806 C 0.0875 0.59498 0.6033 0.0
C807 C 0.10911 0.55382 0.38751 0.0
O808 O 0.80773 0.55745 0.60941 0.0
O809 O 0.91037 0.66809 0.62466 0.0
O810 O 0.83808 0.50715 0.46222 0.0
O811 O 0.94212 0.62139 0.46396 0.0
O812 O 0.05465 0.62333 0.59958 0.0
O813 O 0.08342 0.54565 0.55821 0.0
C814 C 0.83571 0.37359 0.63296 0.0
O815 O 0.89685 0.39017 0.60322 0.0
O816 O 0.80389 0.39573 0.61634 0.0
O817 O 0.13891 0.37004 0.40658 0.0
O818 O 0.03609 0.2598 0.39038 0.0
O819 O 0.10842 0.41754 0.55361 0.0
C820 C 0.10558 0.30199 0.37871 0.0
O821 O 0.00368 0.30391 0.55309 0.0
O822 O 0.89316 0.30549 0.419 0.0
C823 C 0.06348 0.35887 0.57748 0.0
O824 O 0.8628 0.3815 0.46156 0.0
O825 O 0.04842 0.53704 0.41826 0.0
O826 O 0.14107 0.53041 0.40175 0.0
C827 C 0.30382 0.08321 0.65427 0.0
C828 C 0.34594 0.04544 0.47393 0.0
C829 C 0.35429 0.83202 0.41689 0.0
Mg830 Mg 0.43381 0.08515 0.59819 0.0
O831 O 0.41417 0.0038 0.54704 0.0
Mg832 Mg 0.30507 0.93007 0.54538 0.0
Mg833 Mg 0.47342 -0.03711 0.5087 0.0
O834 O 0.53139 0.92141 0.46641 0.0
Mg835 Mg 0.50352 0.83213 0.42348 0.0
Mg836 Mg 0.63953 -0.00562 0.47368 0.0
C837 C 0.58695 0.08974 0.60531 0.0
C838 C 0.59501 0.05897 0.38251 0.0
O839 O 0.27157 0.0184 0.61911 0.0
O840 O 0.37038 0.11618 0.66246 0.0
O841 O 0.30759 -0.02408 0.46797 0.0
O842 O 0.38606 0.08266 0.51965 0.0
O843 O 0.53531 0.09637 0.61613 0.0
O844 O 0.58933 0.05307 0.55335 0.0
C845 C 0.35465 0.86975 0.63683 0.0
O846 O 0.41389 0.8917 0.60139 0.0
O847 O 0.31099 0.88122 0.62495 0.0
O848 O 0.67253 0.90602 0.39969 0.0
O849 O 0.57241 0.80604 0.3591 0.0
O850 O 0.63141 0.94388 0.54984 0.0
C851 C 0.63977 0.84034 0.36575 0.0
O852 O 0.54996 0.83583 0.5008 0.0
O853 O 0.40295 0.82103 0.40508 0.0
C854 C 0.59168 0.87433 0.5451 0.0
O855 O 0.35626 0.87232 0.46745 0.0
O856 O 0.53442 0.03515 0.41649 0.0
O857 O 0.63882 0.0481 0.39518 0.0
loop_
_geom_bond_atom_site_label_1
_geom_bond_atom_site_label_2
_geom_bond_distance
_geom_bond_site_symmetry_2
_ccdc_geom_bond_type
Eu0 N29 2.600 . S
Eu0 N35 2.562 . S
Eu0 O44 2.462 . S
Eu0 O45 2.373 . S
Eu0 O47 2.432 . S
Eu0 O48 2.291 . S
Eu0 O52 2.335 . S
Eu0 O55 2.372 . S
Eu0 C64 2.787 . S
C1 N2 1.365 . S
C1 C4 1.405 . S
C1 C8 1.448 . S
N2 C1 1.365 . S
N2 C5 1.319 . S
N2 Eu11 2.600 . S
C3 C5 1.397 . S
C3 C6 1.367 . S
C3 H23 0.931 . S
C4 C1 1.405 . S
C4 C6 1.403 . S
C4 C10 1.439 . S
C5 N2 1.319 . S
C5 C3 1.397 . S
C5 H16 0.930 . S
C6 C3 1.367 . S
C6 C4 1.403 . S
C6 H27 0.929 . S
C7 C8 1.430 . S
C7 C9 1.387 . S
C7 C13 1.404 . S
C8 C1 1.448 . S
C8 C7 1.430 . S
C8 N12 1.351 . S
C9 C7 1.387 . S
C9 C10 1.374 . S
C9 H24 0.931 . S
C10 C4 1.439 . S
C10 C9 1.374 . S
C10 H25 0.931 . S
Eu11 N2 2.600 . S
Eu11 N12 2.562 . S
Eu11 O46 2.335 . S
Eu11 O49 2.372 . S
Eu11 O50 2.462 . S
Eu11 O51 2.373 . S
Eu11 O53 2.432 . S
Eu11 O54 2.291 . S
Eu11 C75 2.787 . S
N12 C8 1.351 . S
N12 Eu11 2.562 . S
N12 C14 1.325 . S
C13 C7 1.404 . S
C13 C15 1.366 . S
C13 H21 0.930 . S
C14 N12 1.325 . S
C14 C15 1.416 . S
C14 H20 0.929 . S
C15 C13 1.366 . S
C15 C14 1.416 . S
C15 H17 0.930 . S
H16 C5 0.930 . S
H17 C15 0.930 . S
H18 C33 0.930 1_545 S
H19 C40 0.930 . S
H20 C14 0.929 . S
H21 C13 0.930 . S
H22 C36 0.929 . S
H23 C3 0.931 . S
H24 C9 0.931 . S
H25 C10 0.931 . S
H26 C31 0.931 . S
H27 C6 0.929 . S
H28 C39 0.930 . S
N29 Eu0 2.600 . S
N29 C30 1.365 . S
N29 C33 1.319 1_445 S
C30 N29 1.365 . S
C30 C32 1.405 1_445 S
C30 C38 1.448 . S
C31 H26 0.931 . S
C31 C33 1.397 . S
C31 C34 1.367 . S
C32 C30 1.405 1_665 S
C32 C34 1.403 . S
C32 C65 1.439 1_655 S
C33 H18 0.930 1_565 S
C33 N29 1.319 1_665 S
C33 C31 1.397 . S
C34 C31 1.367 . S
C34 C32 1.403 . S
C34 H41 0.929 . S
N35 Eu0 2.562 . S
N35 C36 1.325 . S
N35 C38 1.351 . S
C36 H22 0.929 . S
C36 N35 1.325 . S
C36 C40 1.416 1_554 S
C37 C38 1.430 . S
C37 C39 1.404 1_554 S
C37 C66 1.387 1_544 S
C38 C30 1.448 . S
C38 N35 1.351 . S
C38 C37 1.430 . S
C39 H28 0.930 . S
C39 C37 1.404 1_556 S
C39 C40 1.366 . S
C40 H19 0.930 . S
C40 C36 1.416 1_556 S
C40 C39 1.366 . S
H41 C34 0.929 . S
H42 C65 0.931 1_655 S
H43 C66 0.931 . S
O44 Eu0 2.462 . S
O44 C64 1.252 . S
O45 Eu0 2.373 . S
O45 C56 1.249 . S
O46 Eu11 2.335 . S
O46 C56 1.264 . S
O47 Eu0 2.432 . S
O47 C64 1.268 . S
O48 Eu0 2.291 . S
O48 C63 1.255 . S
O49 Eu11 2.372 . S
O49 C63 1.257 . S
O50 Eu11 2.462 . S
O50 C75 1.252 . S
O51 Eu11 2.373 . S
O51 C67 1.249 . S
O52 Eu0 2.335 . S
O52 C67 1.264 . S
O53 Eu11 2.432 . S
O53 C75 1.268 . S
O54 Eu11 2.291 . S
O54 C74 1.255 . S
O55 Eu0 2.372 . S
O55 C74 1.257 . S
C56 O45 1.249 . S
C56 O46 1.264 . S
C57 C60 1.382 1_455 S
C57 C62 1.390 . S
C57 C64 1.506 . S
C58 C59 1.398 1_455 S
C58 C62 1.392 . S
C59 C58 1.398 1_655 S
C59 C61 1.372 . S
C59 H76 0.931 . S
C60 C57 1.382 1_655 S
C60 C61 1.390 . S
C60 H77 0.931 . S
C61 C59 1.372 . S
C61 C60 1.390 . S
C61 H78 0.929 . S
C62 C57 1.390 . S
C62 C58 1.392 . S
C62 H79 0.930 . S
C63 O48 1.255 . S
C63 O49 1.257 . S
C64 Eu0 2.787 . S
C64 O44 1.252 . S
C64 O47 1.268 . S
C64 C57 1.506 . S
C65 C32 1.439 1_455 S
C65 H42 0.931 1_455 S
C65 C66 1.374 1_554 S
C66 C37 1.387 1_566 S
C66 H43 0.931 . S
C66 C65 1.374 1_556 S
C67 O51 1.249 . S
C67 O52 1.264 . S
C68 C71 1.382 . S
C68 C72 1.390 . S
C68 C75 1.506 . S
C69 C70 1.398 . S
C69 C72 1.392 . S
C70 C69 1.398 . S
C70 C73 1.372 . S
C70 H80 0.931 . S
C71 C68 1.382 . S
C71 C73 1.390 . S
C71 H81 0.931 . S
C72 C68 1.390 . S
C72 C69 1.392 . S
C72 H82 0.930 . S
C73 C70 1.372 . S
C73 C71 1.390 . S
C73 H83 0.929 . S
C74 O54 1.255 . S
C74 O55 1.257 . S
C75 Eu11 2.787 . S
C75 O50 1.252 . S
C75 O53 1.268 . S
C75 C68 1.506 . S
H76 C59 0.931 . S
H77 C60 0.931 . S
H78 C61 0.929 . S
H79 C62 0.930 . S
H80 C70 0.931 . S
H81 C71 0.931 . S
H82 C72 0.930 . S
H83 C73 0.929 . S
Eu84 N113 2.600 . S
Eu84 N119 2.562 . S
Eu84 O128 2.462 . S
Eu84 O129 2.373 . S
Eu84 O131 2.432 . S
Eu84 O132 2.291 . S
Eu84 O136 2.335 . S
Eu84 O139 2.372 . S
Eu84 C148 2.787 . S
C85 N86 1.365 . S
C85 C88 1.405 . S
C85 C92 1.448 . S
N86 C85 1.365 . S
N86 C89 1.319 . S
N86 Eu95 2.600 . S
C87 C89 1.397 . S
C87 C90 1.367 . S
C87 H107 0.931 . S
C88 C85 1.405 . S
C88 C90 1.403 . S
C88 C94 1.439 . S
C89 N86 1.319 . S
C89 C87 1.397 . S
C89 H100 0.930 . S
C90 C87 1.367 . S
C90 C88 1.403 . S
C90 H111 0.929 1_554 S
C91 C92 1.430 1_455 S
C91 C93 1.387 . S
C91 C97 1.404 . S
C92 C85 1.448 . S
C92 C91 1.430 1_655 S
C92 N96 1.351 . S
C93 C91 1.387 . S
C93 C94 1.374 1_455 S
C93 H108 0.931 . S
C94 C88 1.439 . S
C94 C93 1.374 1_655 S
C94 H109 0.931 1_654 S
Eu95 N86 2.600 . S
Eu95 N96 2.562 . S
Eu95 O130 2.335 . S
Eu95 O133 2.372 . S
Eu95 O134 2.462 . S
Eu95 O135 2.373 . S
Eu95 O137 2.432 . S
Eu95 O138 2.291 . S
Eu95 C159 2.787 . S
N96 C92 1.351 . S
N96 Eu95 2.562 . S
N96 C98 1.325 . S
C97 C91 1.404 . S
C97 C99 1.366 . S
C97 H105 0.930 . S
C98 N96 1.325 . S
C98 C99 1.416 1_655 S
C98 H104 0.929 . S
C99 C97 1.366 . S
C99 C98 1.416 1_455 S
C99 H101 0.930 . S
H100 C89 0.930 . S
H101 C99 0.930 . S
H102 C117 0.930 . S
H103 C124 0.930 . S
H104 C98 0.929 . S
H105 C97 0.930 . S
H106 C120 0.929 . S
H107 C87 0.931 . S
H108 C93 0.931 . S
H109 C94 0.931 1_456 S
H110 C115 0.931 . S
H111 C90 0.929 1_556 S
H112 C123 0.930 . S
N113 Eu84 2.600 . S
N113 C114 1.365 . S
N113 C117 1.319 . S
C114 N113 1.365 . S
C114 C116 1.405 . S
C114 C122 1.448 . S
C115 H110 0.931 . S
C115 C117 1.397 . S
C115 C118 1.367 . S
C116 C114 1.405 . S
C116 C118 1.403 . S
C116 C149 1.439 . S
C117 H102 0.930 . S
C117 N113 1.319 . S
C117 C115 1.397 . S
C118 C115 1.367 . S
C118 C116 1.403 . S
C118 H125 0.929 . S
N119 Eu84 2.562 . S
N119 C120 1.325 . S
N119 C122 1.351 . S
C120 H106 0.929 . S
C120 N119 1.325 . S
C120 C124 1.416 . S
C121 C122 1.430 . S
C121 C123 1.404 . S
C121 C150 1.387 . S
C122 C114 1.448 . S
C122 N119 1.351 . S
C122 C121 1.430 . S
C123 H112 0.930 . S
C123 C121 1.404 . S
C123 C124 1.366 . S
C124 H103 0.930 . S
C124 C120 1.416 . S
C124 C123 1.366 . S
H125 C118 0.929 . S
H126 C149 0.931 . S
H127 C150 0.931 . S
O128 Eu84 2.462 . S
O128 C148 1.252 . S
O129 Eu84 2.373 . S
O129 C140 1.249 . S
O130 Eu95 2.335 . S
O130 C140 1.264 . S
O131 Eu84 2.432 . S
O131 C148 1.268 . S
O132 Eu84 2.291 . S
O132 C147 1.255 . S
O133 Eu95 2.372 . S
O133 C147 1.257 . S
O134 Eu95 2.462 . S
O134 C159 1.252 . S
O135 Eu95 2.373 . S
O135 C151 1.249 . S
O136 Eu84 2.335 . S
O136 C151 1.264 . S
O137 Eu95 2.432 . S
O137 C159 1.268 . S
O138 Eu95 2.291 . S
O138 C158 1.255 . S
O139 Eu84 2.372 . S
O139 C158 1.257 . S
C140 O129 1.249 . S
C140 O130 1.264 . S
C141 C144 1.382 . S
C141 C146 1.390 . S
C141 C148 1.506 . S
C142 C143 1.398 . S
C142 C146 1.392 . S
C143 C142 1.398 . S
C143 C145 1.372 . S
C143 H160 0.931 . S
C144 C141 1.382 . S
C144 C145 1.390 . S
C144 H161 0.931 . S
C145 C143 1.372 . S
C145 C144 1.390 . S
C145 H162 0.929 . S
C146 C141 1.390 . S
C146 C142 1.392 . S
C146 H163 0.930 . S
C147 O132 1.255 . S
C147 O133 1.257 . S
C148 Eu84 2.787 . S
C148 O128 1.252 . S
C148 O131 1.268 . S
C148 C141 1.506 . S
C149 C116 1.439 . S
C149 H126 0.931 . S
C149 C150 1.374 . S
C150 C121 1.387 . S
C150 H127 0.931 . S
C150 C149 1.374 . S
C151 O135 1.249 . S
C151 O136 1.264 . S
C152 C155 1.382 1_545 S
C152 C156 1.390 . S
C152 C159 1.506 . S
C153 C154 1.398 1_545 S
C153 C156 1.392 . S
C154 C153 1.398 1_565 S
C154 C157 1.372 . S
C154 H164 0.931 . S
C155 C152 1.382 1_565 S
C155 C157 1.390 . S
C155 H165 0.931 . S
C156 C152 1.390 . S
C156 C153 1.392 . S
C156 H166 0.930 . S
C157 C154 1.372 . S
C157 C155 1.390 . S
C157 H167 0.929 . S
C158 O138 1.255 . S
C158 O139 1.257 . S
C159 Eu95 2.787 . S
C159 O134 1.252 . S
C159 O137 1.268 . S
C159 C152 1.506 . S
H160 C143 0.931 . S
H161 C144 0.931 . S
H162 C145 0.929 . S
H163 C146 0.930 . S
H164 C154 0.931 . S
H165 C155 0.931 . S
H166 C156 0.930 . S
H167 C157 0.929 . S
Eu168 N197 2.600 . S
Eu168 N203 2.562 . S
Eu168 O212 2.462 . S
Eu168 O213 2.373 . S
Eu168 O215 2.432 . S
Eu168 O216 2.291 . S
Eu168 O220 2.335 . S
Eu168 O223 2.372 . S
Eu168 C232 2.787 . S
C169 N170 1.365 . S
C169 C172 1.405 1_665 S
C169 C176 1.448 . S
N170 C169 1.365 . S
N170 C173 1.319 1_665 S
N170 Eu179 2.600 . S
C171 C173 1.397 . S
C171 C174 1.367 . S
C171 H191 0.931 . S
C172 C169 1.405 1_445 S
C172 C174 1.403 . S
C172 C178 1.439 1_545 S
C173 N170 1.319 1_445 S
C173 C171 1.397 . S
C173 H184 0.930 1_455 S
C174 C171 1.367 . S
C174 C172 1.403 . S
C174 H195 0.929 . S
C175 C176 1.430 . S
C175 C177 1.387 1_655 S
C175 C181 1.404 1_554 S
C176 C169 1.448 . S
C176 C175 1.430 . S
C176 N180 1.351 . S
C177 C175 1.387 1_455 S
C177 C178 1.374 . S
C177 H192 0.931 1_554 S
C178 C172 1.439 1_565 S
C178 C177 1.374 . S
C178 H193 0.931 1_565 S
Eu179 N170 2.600 . S
Eu179 N180 2.562 . S
Eu179 O214 2.335 . S
Eu179 O217 2.372 . S
Eu179 O218 2.462 . S
Eu179 O219 2.373 . S
Eu179 O221 2.432 . S
Eu179 O222 2.291 . S
Eu179 C243 2.787 . S
N180 C176 1.351 . S
N180 Eu179 2.562 . S
N180 C182 1.325 . S
C181 C175 1.404 1_556 S
C181 C183 1.366 . S
C181 H189 0.930 . S
C182 N180 1.325 . S
C182 C183 1.416 1_554 S
C182 H188 0.929 . S
C183 C181 1.366 . S
C183 C182 1.416 1_556 S
C183 H185 0.930 . S
H184 C173 0.930 1_655 S
H185 C183 0.930 . S
H186 C201 0.930 . S
H187 C208 0.930 . S
H188 C182 0.929 . S
H189 C181 0.930 . S
H190 C204 0.929 . S
H191 C171 0.931 . S
H192 C177 0.931 1_556 S
H193 C178 0.931 1_545 S
H194 C199 0.931 . S
H195 C174 0.929 . S
H196 C207 0.930 . S
N197 Eu168 2.600 . S
N197 C198 1.365 . S
N197 C201 1.319 . S
C198 N197 1.365 . S
C198 C200 1.405 . S
C198 C206 1.448 . S
C199 H194 0.931 . S
C199 C201 1.397 . S
C199 C202 1.367 . S
C200 C198 1.405 . S
C200 C202 1.403 . S
C200 C233 1.439 . S
C201 H186 0.930 . S
C201 N197 1.319 . S
C201 C199 1.397 . S
C202 C199 1.367 . S
C202 C200 1.403 . S
C202 H209 0.929 . S
N203 Eu168 2.562 . S
N203 C204 1.325 . S
N203 C206 1.351 . S
C204 H190 0.929 . S
C204 N203 1.325 . S
C204 C208 1.416 . S
C205 C206 1.430 . S
C205 C207 1.404 . S
C205 C234 1.387 . S
C206 C198 1.448 . S
C206 N203 1.351 . S
C206 C205 1.430 . S
C207 H196 0.930 . S
C207 C205 1.404 . S
C207 C208 1.366 . S
C208 H187 0.930 . S
C208 C204 1.416 . S
C208 C207 1.366 . S
H209 C202 0.929 . S
H210 C233 0.931 . S
H211 C234 0.931 . S
O212 Eu168 2.462 . S
O212 C232 1.252 . S
O213 Eu168 2.373 . S
O213 C224 1.249 . S
O214 Eu179 2.335 . S
O214 C224 1.264 . S
O215 Eu168 2.432 . S
O215 C232 1.268 . S
O216 Eu168 2.291 . S
O216 C231 1.255 . S
O217 Eu179 2.372 . S
O217 C231 1.257 . S
O218 Eu179 2.462 . S
O218 C243 1.252 . S
O219 Eu179 2.373 . S
O219 C235 1.249 . S
O220 Eu168 2.335 . S
O220 C235 1.264 . S
O221 Eu179 2.432 . S
O221 C243 1.268 . S
O222 Eu179 2.291 . S
O222 C242 1.255 . S
O223 Eu168 2.372 . S
O223 C242 1.257 . S
C224 O213 1.249 . S
C224 O214 1.264 . S
C225 C228 1.382 . S
C225 C230 1.390 . S
C225 C232 1.506 . S
C226 C227 1.398 . S
C226 C230 1.392 . S
C227 C226 1.398 . S
C227 C229 1.372 . S
C227 H244 0.931 . S
C228 C225 1.382 . S
C228 C229 1.390 . S
C228 H245 0.931 . S
C229 C227 1.372 . S
C229 C228 1.390 . S
C229 H246 0.929 . S
C230 C225 1.390 . S
C230 C226 1.392 . S
C230 H247 0.930 . S
C231 O216 1.255 . S
C231 O217 1.257 . S
C232 Eu168 2.787 . S
C232 O212 1.252 . S
C232 O215 1.268 . S
C232 C225 1.506 . S
C233 C200 1.439 . S
C233 H210 0.931 . S
C233 C234 1.374 . S
C234 C205 1.387 . S
C234 H211 0.931 . S
C234 C233 1.374 . S
C235 O219 1.249 . S
C235 O220 1.264 . S
C236 C239 1.382 1_565 S
C236 C240 1.390 . S
C236 C243 1.506 . S
C237 C238 1.398 1_565 S
C237 C240 1.392 . S
C238 C237 1.398 1_545 S
C238 C241 1.372 . S
C238 H248 0.931 . S
C239 C236 1.382 1_545 S
C239 C241 1.390 . S
C239 H249 0.931 . S
C240 C236 1.390 . S
C240 C237 1.392 . S
C240 H250 0.930 . S
C241 C238 1.372 . S
C241 C239 1.390 . S
C241 H251 0.929 . S
C242 O222 1.255 . S
C242 O223 1.257 . S
C243 Eu179 2.787 . S
C243 O218 1.252 . S
C243 O221 1.268 . S
C243 C236 1.506 . S
H244 C227 0.931 . S
H245 C228 0.931 . S
H246 C229 0.929 . S
H247 C230 0.930 . S
H248 C238 0.931 . S
H249 C239 0.931 . S
H250 C240 0.930 . S
H251 C241 0.929 . S
Eu252 N281 2.600 . S
Eu252 N287 2.562 . S
Eu252 O296 2.462 . S
Eu252 O297 2.373 . S
Eu252 O299 2.432 . S
Eu252 O300 2.291 . S
Eu252 O304 2.335 . S
Eu252 O307 2.372 . S
Eu252 C316 2.787 . S
C253 N254 1.365 . S
C253 C256 1.405 . S
C253 C260 1.448 . S
N254 C253 1.365 . S
N254 C257 1.319 . S
N254 Eu263 2.600 . S
C255 C257 1.397 . S
C255 C258 1.367 . S
C255 H275 0.931 . S
C256 C253 1.405 . S
C256 C258 1.403 . S
C256 C262 1.439 . S
C257 N254 1.319 . S
C257 C255 1.397 . S
C257 H268 0.930 . S
C258 C255 1.367 . S
C258 C256 1.403 . S
C258 H279 0.929 . S
C259 C260 1.430 . S
C259 C261 1.387 . S
C259 C265 1.404 . S
C260 C253 1.448 . S
C260 C259 1.430 . S
C260 N264 1.351 . S
C261 C259 1.387 . S
C261 C262 1.374 . S
C261 H276 0.931 . S
C262 C256 1.439 . S
C262 C261 1.374 . S
C262 H277 0.931 . S
Eu263 N254 2.600 . S
Eu263 N264 2.562 . S
Eu263 O298 2.335 . S
Eu263 O301 2.372 . S
Eu263 O302 2.462 . S
Eu263 O303 2.373 . S
Eu263 O305 2.432 . S
Eu263 O306 2.291 . S
Eu263 C327 2.787 . S
N264 C260 1.351 . S
N264 Eu263 2.562 . S
N264 C266 1.325 . S
C265 C259 1.404 . S
C265 C267 1.366 . S
C265 H273 0.930 . S
C266 N264 1.325 . S
C266 C267 1.416 . S
C266 H272 0.929 . S
C267 C265 1.366 . S
C267 C266 1.416 . S
C267 H269 0.930 . S
H268 C257 0.930 . S
H269 C267 0.930 . S
H270 C285 0.930 . S
H271 C292 0.930 . S
H272 C266 0.929 . S
H273 C265 0.930 . S
H274 C288 0.937 . S
H275 C255 0.931 . S
H276 C261 0.931 . S
H277 C262 0.931 . S
H278 C283 0.931 . S
H279 C258 0.929 . S
H280 C291 0.930 . S
N281 Eu252 2.600 . S
N281 C282 1.365 . S
N281 C285 1.319 . S
C282 N281 1.365 . S
C282 C284 1.405 . S
C282 C290 1.448 . S
C283 H278 0.931 . S
C283 C285 1.397 . S
C283 C286 1.367 . S
C284 C282 1.405 . S
C284 C286 1.403 . S
C284 C317 1.439 1_565 S
C285 H270 0.930 . S
C285 N281 1.319 . S
C285 C283 1.397 . S
C286 C283 1.367 . S
C286 C284 1.403 . S
C286 H293 0.929 . S
N287 Eu252 2.562 . S
N287 C288 1.325 1_565 S
N287 C290 1.351 . S
C288 H274 0.937 . S
C288 N287 1.325 1_545 S
C288 C292 1.416 . S
C289 C290 1.430 1_545 S
C289 C291 1.404 . S
C289 C318 1.387 . S
C290 C282 1.448 . S
C290 N287 1.351 . S
C290 C289 1.430 1_565 S
C291 H280 0.930 . S
C291 C289 1.404 . S
C291 C292 1.366 . S
C292 H271 0.930 . S
C292 C288 1.416 . S
C292 C291 1.366 . S
H293 C286 0.929 . S
H294 C317 0.931 . S
H295 C318 0.931 . S
O296 Eu252 2.462 . S
O296 C316 1.252 . S
O297 Eu252 2.373 . S
O297 C308 1.249 . S
O298 Eu263 2.335 . S
O298 C308 1.264 . S
O299 Eu252 2.432 . S
O299 C316 1.268 . S
O300 Eu252 2.291 . S
O300 C315 1.255 . S
O301 Eu263 2.372 . S
O301 C315 1.257 . S
O302 Eu263 2.462 . S
O302 C327 1.252 . S
O303 Eu263 2.373 . S
O303 C319 1.249 . S
O304 Eu252 2.335 . S
O304 C319 1.264 . S
O305 Eu263 2.432 . S
O305 C327 1.268 . S
O306 Eu263 2.291 . S
O306 C326 1.255 . S
O307 Eu252 2.372 . S
O307 C326 1.257 . S
C308 O297 1.249 . S
C308 O298 1.264 . S
C309 C312 1.382 . S
C309 C314 1.390 . S
C309 C316 1.506 . S
C310 C311 1.398 1_455 S
C310 C314 1.392 . S
C311 C310 1.398 1_655 S
C311 C313 1.372 . S
C311 H328 0.931 . S
C312 C309 1.382 . S
C312 C313 1.390 1_455 S
C312 H329 0.931 1_455 S
C313 C311 1.372 . S
C313 C312 1.390 1_655 S
C313 H330 0.929 . S
C314 C309 1.390 . S
C314 C310 1.392 . S
C314 H331 0.930 . S
C315 O300 1.255 . S
C315 O301 1.257 . S
C316 Eu252 2.787 . S
C316 O296 1.252 . S
C316 O299 1.268 . S
C316 C309 1.506 . S
C317 C284 1.439 1_545 S
C317 H294 0.931 . S
C317 C318 1.374 . S
C318 C289 1.387 . S
C318 H295 0.931 . S
C318 C317 1.374 . S
C319 O303 1.249 . S
C319 O304 1.264 . S
C320 C323 1.382 . S
C320 C324 1.390 . S
C320 C327 1.506 . S
C321 C322 1.398 . S
C321 C324 1.392 . S
C322 C321 1.398 . S
C322 C325 1.372 . S
C322 H332 0.931 . S
C323 C320 1.382 . S
C323 C325 1.390 . S
C323 H333 0.931 . S
C324 C320 1.390 . S
C324 C321 1.392 . S
C324 H334 0.930 . S
C325 C322 1.372 . S
C325 C323 1.390 . S
C325 H335 0.929 . S
C326 O306 1.255 . S
C326 O307 1.257 . S
C327 Eu263 2.787 . S
C327 O302 1.252 . S
C327 O305 1.268 . S
C327 C320 1.506 . S
H328 C311 0.931 . S
H329 C312 0.931 1_655 S
H330 C313 0.929 . S
H331 C314 0.930 . S
H332 C322 0.931 . S
H333 C323 0.931 . S
H334 C324 0.930 . S
H335 C325 0.929 . S
Eu336 N365 2.600 . S
Eu336 N371 2.562 . S
Eu336 O380 2.462 . S
Eu336 O381 2.373 . S
Eu336 O383 2.432 . S
Eu336 O384 2.291 . S
Eu336 O388 2.335 . S
Eu336 O391 2.372 . S
Eu336 C400 2.787 . S
C337 N338 1.365 . S
C337 C340 1.405 . S
C337 C344 1.448 . S
N338 C337 1.365 . S
N338 C341 1.319 . S
N338 Eu347 2.600 . S
C339 C341 1.397 . S
C339 C342 1.367 . S
C339 H359 0.931 . S
C340 C337 1.405 . S
C340 C342 1.403 . S
C340 C346 1.439 . S
C341 N338 1.319 . S
C341 C339 1.397 . S
C341 H352 0.930 . S
C342 C339 1.367 . S
C342 C340 1.403 . S
C342 H363 0.929 . S
C343 C344 1.430 . S
C343 C345 1.387 . S
C343 C349 1.404 . S
C344 C337 1.448 . S
C344 C343 1.430 . S
C344 N348 1.351 . S
C345 C343 1.387 . S
C345 C346 1.374 . S
C345 H360 0.931 . S
C346 C340 1.439 . S
C346 C345 1.374 . S
C346 H361 0.931 . S
Eu347 N338 2.600 . S
Eu347 N348 2.562 . S
Eu347 O382 2.335 . S
Eu347 O385 2.372 . S
Eu347 O386 2.462 . S
Eu347 O387 2.373 . S
Eu347 O389 2.432 . S
Eu347 O390 2.291 . S
Eu347 C411 2.787 . S
N348 C344 1.351 . S
N348 Eu347 2.562 . S
N348 C350 1.325 . S
C349 C343 1.404 . S
C349 C351 1.366 . S
C349 H357 0.930 . S
C350 N348 1.325 . S
C350 C351 1.416 . S
C350 H356 0.929 . S
C351 C349 1.366 . S
C351 C350 1.416 . S
C351 H353 0.930 . S
H352 C341 0.930 . S
H353 C351 0.930 . S
H354 C369 0.930 . S
H355 C376 0.930 . S
H356 C350 0.929 . S
H357 C349 0.930 . S
H358 C372 0.929 . S
H359 C339 0.931 . S
H360 C345 0.931 . S
H361 C346 0.931 . S
H362 C367 0.931 . S
H363 C342 0.929 . S
H364 C375 0.930 . S
N365 Eu336 2.600 . S
N365 C366 1.365 . S
N365 C369 1.319 . S
C366 N365 1.365 . S
C366 C368 1.405 . S
C366 C374 1.448 . S
C367 H362 0.931 . S
C367 C369 1.397 . S
C367 C370 1.367 . S
C368 C366 1.405 . S
C368 C370 1.403 . S
C368 C401 1.439 . S
C369 H354 0.930 . S
C369 N365 1.319 . S
C369 C367 1.397 . S
C370 C367 1.367 . S
C370 C368 1.403 . S
C370 H377 0.929 1_556 S
N371 Eu336 2.562 . S
N371 C372 1.325 . S
N371 C374 1.351 . S
C372 H358 0.929 . S
C372 N371 1.325 . S
C372 C376 1.416 1_455 S
C373 C374 1.430 1_655 S
C373 C375 1.404 . S
C373 C402 1.387 . S
C374 C366 1.448 . S
C374 N371 1.351 . S
C374 C373 1.430 1_455 S
C375 H364 0.930 . S
C375 C373 1.404 . S
C375 C376 1.366 . S
C376 H355 0.930 . S
C376 C372 1.416 1_655 S
C376 C375 1.366 . S
H377 C370 0.929 1_554 S
H378 C401 0.931 1_654 S
H379 C402 0.931 . S
O380 Eu336 2.462 . S
O380 C400 1.252 . S
O381 Eu336 2.373 . S
O381 C392 1.249 . S
O382 Eu347 2.335 . S
O382 C392 1.264 . S
O383 Eu336 2.432 . S
O383 C400 1.268 . S
O384 Eu336 2.291 . S
O384 C399 1.255 . S
O385 Eu347 2.372 . S
O385 C399 1.257 . S
O386 Eu347 2.462 . S
O386 C411 1.252 . S
O387 Eu347 2.373 . S
O387 C403 1.249 . S
O388 Eu336 2.335 . S
O388 C403 1.264 . S
O389 Eu347 2.432 . S
O389 C411 1.268 . S
O390 Eu347 2.291 . S
O390 C410 1.255 . S
O391 Eu336 2.372 . S
O391 C410 1.257 . S
C392 O381 1.249 . S
C392 O382 1.264 . S
C393 C396 1.382 1_565 S
C393 C398 1.390 . S
C393 C400 1.506 . S
C394 C395 1.398 1_565 S
C394 C398 1.392 . S
C395 C394 1.398 1_545 S
C395 C397 1.372 . S
C395 H412 0.931 . S
C396 C393 1.382 1_545 S
C396 C397 1.390 . S
C396 H413 0.931 . S
C397 C395 1.372 . S
C397 C396 1.390 . S
C397 H414 0.929 . S
C398 C393 1.390 . S
C398 C394 1.392 . S
C398 H415 0.930 . S
C399 O384 1.255 . S
C399 O385 1.257 . S
C400 Eu336 2.787 . S
C400 O380 1.252 . S
C400 O383 1.268 . S
C400 C393 1.506 . S
C401 C368 1.439 . S
C401 H378 0.931 1_456 S
C401 C402 1.374 1_455 S
C402 C373 1.387 . S
C402 H379 0.931 . S
C402 C401 1.374 1_655 S
C403 O387 1.249 . S
C403 O388 1.264 . S
C404 C407 1.382 . S
C404 C408 1.390 . S
C404 C411 1.506 . S
C405 C406 1.398 . S
C405 C408 1.392 . S
C406 C405 1.398 . S
C406 C409 1.372 . S
C406 H416 0.931 . S
C407 C404 1.382 . S
C407 C409 1.390 . S
C407 H417 0.931 . S
C408 C404 1.390 . S
C408 C405 1.392 . S
C408 H418 0.930 . S
C409 C406 1.372 . S
C409 C407 1.390 . S
C409 H419 0.929 . S
C410 O390 1.255 . S
C410 O391 1.257 . S
C411 Eu347 2.787 . S
C411 O386 1.252 . S
C411 O389 1.268 . S
C411 C404 1.506 . S
H412 C395 0.931 . S
H413 C396 0.931 . S
H414 C397 0.929 . S
H415 C398 0.930 . S
H416 C406 0.931 . S
H417 C407 0.931 . S
H418 C408 0.930 . S
H419 C409 0.929 . S
Eu420 N449 2.600 . S
Eu420 N455 2.562 . S
Eu420 O464 2.462 . S
Eu420 O465 2.373 . S
Eu420 O467 2.432 . S
Eu420 O468 2.291 . S
Eu420 O472 2.335 . S
Eu420 O475 2.372 . S
Eu420 C484 2.787 . S
C421 N422 1.365 . S
C421 C424 1.405 . S
C421 C428 1.448 . S
N422 C421 1.365 . S
N422 C425 1.319 . S
N422 Eu431 2.600 . S
C423 C425 1.397 . S
C423 C426 1.367 . S
C423 H443 0.931 . S
C424 C421 1.405 . S
C424 C426 1.403 . S
C424 C430 1.439 . S
C425 N422 1.319 . S
C425 C423 1.397 . S
C425 H436 0.930 . S
C426 C423 1.367 . S
C426 C424 1.403 . S
C426 H447 0.929 . S
C427 C428 1.430 . S
C427 C429 1.387 . S
C427 C433 1.404 . S
C428 C421 1.448 . S
C428 C427 1.430 . S
C428 N432 1.351 . S
C429 C427 1.387 . S
C429 C430 1.374 . S
C429 H444 0.931 . S
C430 C424 1.439 . S
C430 C429 1.374 . S
C430 H445 0.931 . S
Eu431 N422 2.600 . S
Eu431 N432 2.562 . S
Eu431 O466 2.335 . S
Eu431 O469 2.372 . S
Eu431 O470 2.462 . S
Eu431 O471 2.373 . S
Eu431 O473 2.432 . S
Eu431 O474 2.291 . S
Eu431 C495 2.787 . S
N432 C428 1.351 . S
N432 Eu431 2.562 . S
N432 C434 1.325 . S
C433 C427 1.404 . S
C433 C435 1.366 . S
C433 H441 0.930 . S
C434 N432 1.325 . S
C434 C435 1.416 . S
C434 H440 0.929 . S
C435 C433 1.366 . S
C435 C434 1.416 . S
C435 H437 0.930 . S
H436 C425 0.930 . S
H437 C435 0.930 . S
H438 C453 0.930 1_455 S
H439 C460 0.930 . S
H440 C434 0.929 . S
H441 C433 0.930 . S
H442 C456 0.929 . S
H443 C423 0.931 . S
H444 C429 0.931 . S
H445 C430 0.931 . S
H446 C451 0.931 . S
H447 C426 0.929 . S
H448 C459 0.930 . S
N449 Eu420 2.600 . S
N449 C450 1.365 . S
N449 C453 1.319 1_445 S
C450 N449 1.365 . S
C450 C452 1.405 1_445 S
C450 C458 1.448 . S
C451 H446 0.931 . S
C451 C453 1.397 . S
C451 C454 1.367 . S
C452 C450 1.405 1_665 S
C452 C454 1.403 . S
C452 C485 1.439 1_565 S
C453 H438 0.930 1_655 S
C453 N449 1.319 1_665 S
C453 C451 1.397 . S
C454 C451 1.367 . S
C454 C452 1.403 . S
C454 H461 0.929 . S
N455 Eu420 2.562 . S
N455 C456 1.325 . S
N455 C458 1.351 . S
C456 H442 0.929 . S
C456 N455 1.325 . S
C456 C460 1.416 1_556 S
C457 C458 1.430 . S
C457 C459 1.404 1_556 S
C457 C486 1.387 1_455 S
C458 C450 1.448 . S
C458 N455 1.351 . S
C458 C457 1.430 . S
C459 H448 0.930 . S
C459 C457 1.404 1_554 S
C459 C460 1.366 . S
C460 H439 0.930 . S
C460 C456 1.416 1_554 S
C460 C459 1.366 . S
H461 C454 0.929 . S
H462 C485 0.931 1_565 S
H463 C486 0.931 1_554 S
O464 Eu420 2.462 . S
O464 C484 1.252 . S
O465 Eu420 2.373 . S
O465 C476 1.249 . S
O466 Eu431 2.335 . S
O466 C476 1.264 . S
O467 Eu420 2.432 . S
O467 C484 1.268 . S
O468 Eu420 2.291 . S
O468 C483 1.255 . S
O469 Eu431 2.372 . S
O469 C483 1.257 . S
O470 Eu431 2.462 . S
O470 C495 1.252 . S
O471 Eu431 2.373 . S
O471 C487 1.249 . S
O472 Eu420 2.335 . S
O472 C487 1.264 . S
O473 Eu431 2.432 . S
O473 C495 1.268 . S
O474 Eu431 2.291 . S
O474 C494 1.255 . S
O475 Eu420 2.372 . S
O475 C494 1.257 . S
C476 O465 1.249 . S
C476 O466 1.264 . S
C477 C480 1.382 1_545 S
C477 C482 1.390 . S
C477 C484 1.506 . S
C478 C479 1.398 1_545 S
C478 C482 1.392 . S
C479 C478 1.398 1_565 S
C479 C481 1.372 . S
C479 H496 0.931 . S
C480 C477 1.382 1_565 S
C480 C481 1.390 . S
C480 H497 0.931 . S
C481 C479 1.372 . S
C481 C480 1.390 . S
C481 H498 0.929 . S
C482 C477 1.390 . S
C482 C478 1.392 . S
C482 H499 0.930 . S
C483 O468 1.255 . S
C483 O469 1.257 . S
C484 Eu420 2.787 . S
C484 O464 1.252 . S
C484 O467 1.268 . S
C484 C477 1.506 . S
C485 C452 1.439 1_545 S
C485 H462 0.931 1_545 S
C485 C486 1.374 . S
C486 C457 1.387 1_655 S
C486 H463 0.931 1_556 S
C486 C485 1.374 . S
C487 O471 1.249 . S
C487 O472 1.264 . S
C488 C491 1.382 . S
C488 C492 1.390 . S
C488 C495 1.506 . S
C489 C490 1.398 . S
C489 C492 1.392 . S
C490 C489 1.398 . S
C490 C493 1.372 . S
C490 H500 0.931 . S
C491 C488 1.382 . S
C491 C493 1.390 . S
C491 H501 0.931 . S
C492 C488 1.390 . S
C492 C489 1.392 . S
C492 H502 0.930 . S
C493 C490 1.372 . S
C493 C491 1.390 . S
C493 H503 0.929 . S
C494 O474 1.255 . S
C494 O475 1.257 . S
C495 Eu431 2.787 . S
C495 O470 1.252 . S
C495 O473 1.268 . S
C495 C488 1.506 . S
H496 C479 0.931 . S
H497 C480 0.931 . S
H498 C481 0.929 . S
H499 C482 0.930 . S
H500 C490 0.931 . S
H501 C491 0.931 . S
H502 C492 0.930 . S
H503 C493 0.929 . S
Eu504 N533 2.600 . S
Eu504 N539 2.562 . S
Eu504 O548 2.462 . S
Eu504 O549 2.373 . S
Eu504 O551 2.432 . S
Eu504 O552 2.291 . S
Eu504 O556 2.335 . S
Eu504 O559 2.372 . S
Eu504 C568 2.787 . S
C505 N506 1.365 . S
C505 C508 1.405 . S
C505 C512 1.448 . S
N506 C505 1.365 . S
N506 C509 1.319 . S
N506 Eu515 2.600 . S
C507 C509 1.397 . S
C507 C510 1.367 . S
C507 H527 0.931 . S
C508 C505 1.405 . S
C508 C510 1.403 . S
C508 C514 1.439 1_545 S
C509 N506 1.319 . S
C509 C507 1.397 . S
C509 H520 0.930 . S
C510 C507 1.367 . S
C510 C508 1.403 . S
C510 H531 0.929 . S
C511 C512 1.430 1_565 S
C511 C513 1.387 . S
C511 C517 1.404 . S
C512 C505 1.448 . S
C512 C511 1.430 1_545 S
C512 N516 1.351 . S
C513 C511 1.387 . S
C513 C514 1.374 . S
C513 H528 0.931 . S
C514 C508 1.439 1_565 S
C514 C513 1.374 . S
C514 H529 0.931 . S
Eu515 N506 2.600 . S
Eu515 N516 2.562 . S
Eu515 O550 2.335 . S
Eu515 O553 2.372 . S
Eu515 O554 2.462 . S
Eu515 O555 2.373 . S
Eu515 O557 2.432 . S
Eu515 O558 2.291 . S
Eu515 C579 2.787 . S
N516 C512 1.351 . S
N516 Eu515 2.562 . S
N516 C518 1.325 1_545 S
C517 C511 1.404 . S
C517 C519 1.366 . S
C517 H525 0.930 . S
C518 N516 1.325 1_565 S
C518 C519 1.416 . S
C518 H524 0.929 1_565 S
C519 C517 1.366 . S
C519 C518 1.416 . S
C519 H521 0.930 . S
H520 C509 0.930 . S
H521 C519 0.930 . S
H522 C537 0.930 . S
H523 C544 0.930 . S
H524 C518 0.929 1_545 S
H525 C517 0.930 . S
H526 C540 0.929 . S
H527 C507 0.931 . S
H528 C513 0.931 . S
H529 C514 0.931 . S
H530 C535 0.931 . S
H531 C510 0.929 . S
H532 C543 0.930 . S
N533 Eu504 2.600 . S
N533 C534 1.365 . S
N533 C537 1.319 . S
C534 N533 1.365 . S
C534 C536 1.405 . S
C534 C542 1.448 . S
C535 H530 0.931 . S
C535 C537 1.397 . S
C535 C538 1.367 . S
C536 C534 1.405 . S
C536 C538 1.403 . S
C536 C569 1.439 . S
C537 H522 0.930 . S
C537 N533 1.319 . S
C537 C535 1.397 . S
C538 C535 1.367 . S
C538 C536 1.403 . S
C538 H545 0.929 . S
N539 Eu504 2.562 . S
N539 C540 1.325 . S
N539 C542 1.351 . S
C540 H526 0.929 . S
C540 N539 1.325 . S
C540 C544 1.416 . S
C541 C542 1.430 . S
C541 C543 1.404 . S
C541 C570 1.387 . S
C542 C534 1.448 . S
C542 N539 1.351 . S
C542 C541 1.430 . S
C543 H532 0.930 . S
C543 C541 1.404 . S
C543 C544 1.366 . S
C544 H523 0.930 . S
C544 C540 1.416 . S
C544 C543 1.366 . S
H545 C538 0.929 . S
H546 C569 0.931 . S
H547 C570 0.931 . S
O548 Eu504 2.462 . S
O548 C568 1.252 . S
O549 Eu504 2.373 . S
O549 C560 1.249 . S
O550 Eu515 2.335 . S
O550 C560 1.264 . S
O551 Eu504 2.432 . S
O551 C568 1.268 . S
O552 Eu504 2.291 . S
O552 C567 1.255 . S
O553 Eu515 2.372 . S
O553 C567 1.257 . S
O554 Eu515 2.462 . S
O554 C579 1.252 . S
O555 Eu515 2.373 . S
O555 C571 1.249 . S
O556 Eu504 2.335 . S
O556 C571 1.264 . S
O557 Eu515 2.432 . S
O557 C579 1.268 . S
O558 Eu515 2.291 . S
O558 C578 1.255 . S
O559 Eu504 2.372 . S
O559 C578 1.257 . S
C560 O549 1.249 . S
C560 O550 1.264 . S
C561 C564 1.382 . S
C561 C566 1.390 . S
C561 C568 1.506 . S
C562 C563 1.398 . S
C562 C566 1.392 . S
C563 C562 1.398 . S
C563 C565 1.372 . S
C563 H580 0.931 . S
C564 C561 1.382 . S
C564 C565 1.390 . S
C564 H581 0.931 . S
C565 C563 1.372 . S
C565 C564 1.390 . S
C565 H582 0.929 . S
C566 C561 1.390 . S
C566 C562 1.392 . S
C566 H583 0.930 . S
C567 O552 1.255 . S
C567 O553 1.257 . S
C568 Eu504 2.787 . S
C568 O548 1.252 . S
C568 O551 1.268 . S
C568 C561 1.506 . S
C569 C536 1.439 . S
C569 H546 0.931 . S
C569 C570 1.374 . S
C570 C541 1.387 . S
C570 H547 0.931 . S
C570 C569 1.374 . S
C571 O555 1.249 . S
C571 O556 1.264 . S
C572 C575 1.380 . S
C572 C576 1.390 . S
C572 C579 1.506 . S
C573 C574 1.398 1_655 S
C573 C576 1.392 . S
C574 C573 1.398 1_455 S
C574 C577 1.372 . S
C574 H584 0.931 . S
C575 C572 1.380 . S
C575 C577 1.392 1_655 S
C575 H585 0.931 1_655 S
C576 C572 1.390 . S
C576 C573 1.392 . S
C576 H586 0.930 . S
C577 C574 1.372 . S
C577 C575 1.392 1_455 S
C577 H587 0.929 . S
C578 O558 1.255 . S
C578 O559 1.257 . S
C579 Eu515 2.787 . S
C579 O554 1.252 . S
C579 O557 1.268 . S
C579 C572 1.506 . S
H580 C563 0.931 . S
H581 C564 0.931 . S
H582 C565 0.929 . S
H583 C566 0.930 . S
H584 C574 0.931 . S
H585 C575 0.931 1_455 S
H586 C576 0.930 . S
H587 C577 0.929 . S
Eu588 N617 2.600 . S
Eu588 N623 2.562 . S
Eu588 O632 2.462 . S
Eu588 O633 2.373 . S
Eu588 O635 2.432 . S
Eu588 O636 2.291 . S
Eu588 O640 2.335 . S
Eu588 O643 2.372 . S
Eu588 C652 2.787 . S
C589 N590 1.365 1_545 S
C589 C592 1.405 1_655 S
C589 C596 1.448 1_545 S
N590 C589 1.365 1_565 S
N590 C593 1.319 1_665 S
N590 Eu599 2.600 . S
C591 C593 1.397 . S
C591 C594 1.367 . S
C591 H611 0.931 . S
C592 C589 1.405 1_455 S
C592 C594 1.403 . S
C592 C598 1.439 1_455 S
C593 N590 1.319 1_445 S
C593 C591 1.397 . S
C593 H604 0.930 1_545 S
C594 C591 1.367 . S
C594 C592 1.403 . S
C594 H615 0.929 . S
C595 C596 1.438 . S
C595 C597 1.385 1_566 S
C595 C601 1.398 1_556 S
C596 C589 1.448 1_565 S
C596 C595 1.438 . S
C596 N600 1.351 . S
C597 C595 1.385 1_544 S
C597 C598 1.374 1_554 S
C597 H612 0.931 . S
C598 C592 1.439 1_655 S
C598 C597 1.374 1_556 S
C598 H613 0.931 1_655 S
Eu599 N590 2.600 . S
Eu599 N600 2.562 . S
Eu599 O634 2.335 . S
Eu599 O637 2.372 . S
Eu599 O638 2.462 . S
Eu599 O639 2.373 . S
Eu599 O641 2.432 . S
Eu599 O642 2.291 . S
Eu599 C663 2.787 . S
N600 C596 1.351 . S
N600 Eu599 2.562 . S
N600 C602 1.325 . S
C601 C595 1.398 1_554 S
C601 C603 1.366 . S
C601 H609 0.930 . S
C602 N600 1.325 . S
C602 C603 1.416 1_556 S
C602 H608 0.929 . S
C603 C601 1.366 . S
C603 C602 1.416 1_554 S
C603 H605 0.930 . S
H604 C593 0.930 1_565 S
H605 C603 0.930 . S
H606 C621 0.930 . S
H607 C628 0.930 . S
H608 C602 0.929 . S
H609 C601 0.930 . S
H610 C624 0.929 . S
H611 C591 0.931 . S
H612 C597 0.931 . S
H613 C598 0.931 1_455 S
H614 C619 0.931 . S
H615 C594 0.929 . S
H616 C627 0.930 . S
N617 Eu588 2.600 . S
N617 C618 1.365 . S
N617 C621 1.319 . S
C618 N617 1.365 . S
C618 C620 1.405 . S
C618 C626 1.448 . S
C619 H614 0.931 . S
C619 C621 1.397 . S
C619 C622 1.367 . S
C620 C618 1.405 . S
C620 C622 1.403 . S
C620 C653 1.439 . S
C621 H606 0.930 . S
C621 N617 1.319 . S
C621 C619 1.397 . S
C622 C619 1.367 . S
C622 C620 1.403 . S
C622 H629 0.929 . S
N623 Eu588 2.562 . S
N623 C624 1.325 . S
N623 C626 1.351 . S
C624 H610 0.929 . S
C624 N623 1.325 . S
C624 C628 1.416 . S
C625 C626 1.430 . S
C625 C627 1.404 . S
C625 C654 1.387 . S
C626 C618 1.448 . S
C626 N623 1.351 . S
C626 C625 1.430 . S
C627 H616 0.930 . S
C627 C625 1.404 . S
C627 C628 1.366 . S
C628 H607 0.930 . S
C628 C624 1.416 . S
C628 C627 1.366 . S
H629 C622 0.929 . S
H630 C653 0.931 . S
H631 C654 0.931 . S
O632 Eu588 2.462 . S
O632 C652 1.252 . S
O633 Eu588 2.373 . S
O633 C644 1.249 . S
O634 Eu599 2.335 . S
O634 C644 1.264 . S
O635 Eu588 2.432 . S
O635 C652 1.268 . S
O636 Eu588 2.291 . S
O636 C651 1.255 . S
O637 Eu599 2.372 . S
O637 C651 1.257 . S
O638 Eu599 2.462 . S
O638 C663 1.252 . S
O639 Eu599 2.373 . S
O639 C655 1.249 . S
O640 Eu588 2.335 . S
O640 C655 1.264 . S
O641 Eu599 2.432 . S
O641 C663 1.268 . S
O642 Eu599 2.291 . S
O642 C662 1.255 . S
O643 Eu588 2.372 . S
O643 C662 1.257 . S
C644 O633 1.249 . S
C644 O634 1.264 . S
C645 C648 1.382 . S
C645 C650 1.390 . S
C645 C652 1.506 . S
C646 C647 1.398 . S
C646 C650 1.392 . S
C647 C646 1.398 . S
C647 C649 1.372 . S
C647 H664 0.931 . S
C648 C645 1.382 . S
C648 C649 1.390 . S
C648 H665 0.931 . S
C649 C647 1.372 . S
C649 C648 1.390 . S
C649 H666 0.929 . S
C650 C645 1.390 . S
C650 C646 1.392 . S
C650 H667 0.930 . S
C651 O636 1.255 . S
C651 O637 1.257 . S
C652 Eu588 2.787 . S
C652 O632 1.252 . S
C652 O635 1.268 . S
C652 C645 1.506 . S
C653 C620 1.439 . S
C653 H630 0.931 . S
C653 C654 1.374 . S
C654 C625 1.387 . S
C654 H631 0.931 . S
C654 C653 1.374 . S
C655 O639 1.249 . S
C655 O640 1.264 . S
C656 C659 1.382 1_655 S
C656 C660 1.390 . S
C656 C663 1.506 . S
C657 C658 1.398 1_655 S
C657 C660 1.392 . S
C658 C657 1.398 1_455 S
C658 C661 1.372 . S
C658 H668 0.931 . S
C659 C656 1.382 1_455 S
C659 C661 1.390 . S
C659 H669 0.931 . S
C660 C656 1.390 . S
C660 C657 1.392 . S
C660 H670 0.930 . S
C661 C658 1.372 . S
C661 C659 1.390 . S
C661 H671 0.929 . S
C662 O642 1.255 . S
C662 O643 1.257 . S
C663 Eu599 2.787 . S
C663 O638 1.252 . S
C663 O641 1.268 . S
C663 C656 1.506 . S
H664 C647 0.931 . S
H665 C648 0.931 . S
H666 C649 0.929 . S
H667 C650 0.930 . S
H668 C658 0.931 . S
H669 C659 0.931 . S
H670 C660 0.930 . S
H671 C661 0.929 . S
C672 O684 1.241 . S
C672 O685 1.280 . S
C673 O686 1.277 . S
C673 O687 1.245 . S
C674 O698 1.247 . S
C674 O700 1.289 . S
Mg675 O676 1.926 1_455 S
Mg675 O685 1.984 1_455 S
Mg675 O687 1.988 1_455 S
Mg675 O688 2.061 . S
O676 Mg675 1.926 1_655 S
O676 Mg677 1.986 1_545 S
O676 Mg678 1.917 1_655 S
Mg677 O676 1.986 1_565 S
Mg677 O684 2.042 1_565 S
Mg677 O686 2.041 1_565 S
Mg677 O692 2.038 . S
Mg677 O700 2.238 . S
Mg678 O676 1.917 1_455 S
Mg678 O679 1.917 1_545 S
Mg678 O689 2.106 . S
Mg678 O691 2.079 1_445 S
Mg678 O700 2.106 1_445 S
Mg678 O701 2.079 . S
O679 Mg678 1.917 1_565 S
O679 Mg680 1.926 1_455 S
O679 Mg681 1.986 1_565 S
Mg680 O679 1.926 1_655 S
Mg680 O694 1.984 1_655 S
Mg680 O697 1.988 1_655 S
Mg680 O698 2.061 . S
Mg681 O679 1.986 1_545 S
Mg681 O689 2.238 . S
Mg681 O693 2.042 1_545 S
Mg681 O695 2.041 1_545 S
Mg681 O702 2.038 . S
C682 O688 1.247 . S
C682 O689 1.289 . S
C683 O701 1.245 . S
C683 O702 1.274 . S
O684 C672 1.241 . S
O684 Mg677 2.042 1_545 S
O685 C672 1.280 . S
O685 Mg675 1.984 1_655 S
O686 C673 1.277 . S
O686 Mg677 2.041 1_545 S
O687 C673 1.245 . S
O687 Mg675 1.988 1_655 S
O688 Mg675 2.061 . S
O688 C682 1.247 . S
O689 Mg678 2.106 . S
O689 Mg681 2.238 . S
O689 C682 1.289 . S
C690 O691 1.245 . S
C690 O692 1.274 . S
O691 Mg678 2.079 1_665 S
O691 C690 1.245 . S
O692 Mg677 2.038 . S
O692 C690 1.274 . S
O693 Mg681 2.042 1_565 S
O693 C696 1.241 . S
O694 Mg680 1.984 1_455 S
O694 C696 1.280 . S
O695 Mg681 2.041 1_565 S
O695 C699 1.277 . S
C696 O693 1.241 . S
C696 O694 1.280 . S
O697 Mg680 1.988 1_455 S
O697 C699 1.245 . S
O698 C674 1.247 . S
O698 Mg680 2.061 . S
C699 O695 1.277 . S
C699 O697 1.245 . S
O700 C674 1.289 . S
O700 Mg677 2.238 . S
O700 Mg678 2.106 1_665 S
O701 Mg678 2.079 . S
O701 C683 1.245 . S
O702 Mg681 2.038 . S
O702 C683 1.274 . S
C703 O715 1.241 . S
C703 O716 1.280 . S
C704 O717 1.277 . S
C704 O718 1.245 . S
C705 O729 1.247 . S
C705 O731 1.289 . S
Mg706 O707 1.926 . S
Mg706 O716 1.984 . S
Mg706 O718 1.988 1_554 S
Mg706 O719 2.061 . S
O707 Mg706 1.926 . S
O707 Mg708 1.986 1_545 S
O707 Mg709 1.917 . S
Mg708 O707 1.986 1_565 S
Mg708 O715 2.042 1_565 S
Mg708 O717 2.041 1_564 S
Mg708 O723 2.038 . S
Mg708 O731 2.238 1_554 S
Mg709 O707 1.917 . S
Mg709 O710 1.917 1_544 S
Mg709 O720 2.106 . S
Mg709 O722 2.079 1_545 S
Mg709 O731 2.106 1_544 S
Mg709 O732 2.079 1_554 S
O710 Mg709 1.917 1_566 S
O710 Mg711 1.926 . S
O710 Mg712 1.986 1_565 S
Mg711 O710 1.926 . S
Mg711 O725 1.984 . S
Mg711 O728 1.988 1_556 S
Mg711 O729 2.061 . S
Mg712 O710 1.986 1_545 S
Mg712 O720 2.238 1_556 S
Mg712 O724 2.042 1_545 S
Mg712 O726 2.041 1_546 S
Mg712 O733 2.038 . S
C713 O719 1.247 . S
C713 O720 1.289 . S
C714 O732 1.245 . S
C714 O733 1.274 . S
O715 C703 1.241 . S
O715 Mg708 2.042 1_545 S
O716 C703 1.280 . S
O716 Mg706 1.984 . S
O717 C704 1.277 . S
O717 Mg708 2.041 1_546 S
O718 C704 1.245 . S
O718 Mg706 1.988 1_556 S
O719 Mg706 2.061 . S
O719 C713 1.247 . S
O720 Mg709 2.106 . S
O720 Mg712 2.238 1_554 S
O720 C713 1.289 . S
C721 O722 1.245 . S
C721 O723 1.274 . S
O722 Mg709 2.079 1_565 S
O722 C721 1.245 . S
O723 Mg708 2.038 . S
O723 C721 1.274 . S
O724 Mg712 2.042 1_565 S
O724 C727 1.241 . S
O725 Mg711 1.984 . S
O725 C727 1.280 . S
O726 Mg712 2.041 1_564 S
O726 C730 1.277 . S
C727 O724 1.241 . S
C727 O725 1.280 . S
O728 Mg711 1.988 1_554 S
O728 C730 1.245 . S
O729 C705 1.247 . S
O729 Mg711 2.061 . S
C730 O726 1.277 . S
C730 O728 1.245 . S
O731 C705 1.289 . S
O731 Mg708 2.238 1_556 S
O731 Mg709 2.106 1_566 S
O732 Mg709 2.079 1_556 S
O732 C714 1.245 . S
O733 Mg712 2.038 . S
O733 C714 1.274 . S
C734 O746 1.241 . S
C734 O747 1.280 . S
C735 O748 1.277 . S
C735 O749 1.245 . S
C736 O760 1.247 . S
C736 O762 1.289 . S
Mg737 O738 1.926 1_455 S
Mg737 O747 1.984 1_455 S
Mg737 O749 1.988 1_454 S
Mg737 O750 2.061 . S
O738 Mg737 1.926 1_655 S
O738 Mg739 1.986 . S
O738 Mg740 1.917 1_655 S
Mg739 O738 1.986 . S
Mg739 O746 2.042 . S
Mg739 O748 2.041 1_554 S
Mg739 O754 2.038 . S
Mg739 O762 2.238 1_554 S
Mg740 O738 1.917 1_455 S
Mg740 O741 1.917 1_554 S
Mg740 O751 2.106 . S
Mg740 O753 2.079 1_455 S
Mg740 O762 2.106 1_454 S
Mg740 O763 2.079 1_554 S
O741 Mg740 1.917 1_556 S
O741 Mg742 1.926 1_455 S
O741 Mg743 1.986 . S
Mg742 O741 1.926 1_655 S
Mg742 O756 1.984 1_655 S
Mg742 O759 1.988 1_656 S
Mg742 O760 2.061 . S
Mg743 O741 1.986 . S
Mg743 O751 2.238 1_556 S
Mg743 O755 2.042 . S
Mg743 O757 2.041 1_556 S
Mg743 O764 2.038 . S
C744 O750 1.247 . S
C744 O751 1.289 . S
C745 O763 1.245 . S
C745 O764 1.274 . S
O746 C734 1.241 . S
O746 Mg739 2.042 . S
O747 C734 1.280 . S
O747 Mg737 1.984 1_655 S
O748 C735 1.277 . S
O748 Mg739 2.041 1_556 S
O749 C735 1.245 . S
O749 Mg737 1.988 1_656 S
O750 Mg737 2.061 . S
O750 C744 1.247 . S
O751 Mg740 2.106 . S
O751 Mg743 2.238 1_554 S
O751 C744 1.289 . S
C752 O753 1.245 . S
C752 O754 1.274 . S
O753 Mg740 2.079 1_655 S
O753 C752 1.245 . S
O754 Mg739 2.038 . S
O754 C752 1.274 . S
O755 Mg743 2.042 . S
O755 C758 1.241 . S
O756 Mg742 1.984 1_455 S
O756 C758 1.280 . S
O757 Mg743 2.041 1_554 S
O757 C761 1.277 . S
C758 O755 1.241 . S
C758 O756 1.280 . S
O759 Mg742 1.988 1_454 S
O759 C761 1.245 . S
O760 C736 1.247 . S
O760 Mg742 2.061 . S
C761 O757 1.277 . S
C761 O759 1.245 . S
O762 C736 1.289 . S
O762 Mg739 2.238 1_556 S
O762 Mg740 2.106 1_656 S
O763 Mg740 2.079 1_556 S
O763 C745 1.245 . S
O764 Mg743 2.038 . S
O764 C745 1.274 . S
C765 O777 1.241 . S
C765 O778 1.280 . S
C766 O779 1.277 . S
C766 O780 1.245 . S
C767 O791 1.247 . S
C767 O793 1.289 . S
Mg768 O769 1.926 . S
Mg768 O778 1.984 . S
Mg768 O780 1.988 1_554 S
Mg768 O781 2.061 . S
O769 Mg768 1.926 . S
O769 Mg770 1.986 . S
O769 Mg771 1.917 . S
Mg770 O769 1.986 . S
Mg770 O777 2.042 . S
Mg770 O779 2.041 1_554 S
Mg770 O785 2.038 . S
Mg770 O793 2.238 1_554 S
Mg771 O769 1.917 . S
Mg771 O772 1.917 1_554 S
Mg771 O782 2.106 . S
Mg771 O784 2.079 . S
Mg771 O793 2.106 1_554 S
Mg771 O794 2.079 1_554 S
O772 Mg771 1.917 1_556 S
O772 Mg773 1.926 . S
O772 Mg774 1.986 . S
Mg773 O772 1.926 . S
Mg773 O787 1.984 . S
Mg773 O790 1.988 1_556 S
Mg773 O791 2.061 . S
Mg774 O772 1.986 . S
Mg774 O782 2.238 1_556 S
Mg774 O786 2.042 . S
Mg774 O788 2.041 1_556 S
Mg774 O795 2.038 . S
C775 O781 1.247 . S
C775 O782 1.289 . S
C776 O794 1.245 . S
C776 O795 1.274 . S
O777 C765 1.241 . S
O777 Mg770 2.042 . S
O778 C765 1.280 . S
O778 Mg768 1.984 . S
O779 C766 1.277 . S
O779 Mg770 2.041 1_556 S
O780 C766 1.245 . S
O780 Mg768 1.988 1_556 S
O781 Mg768 2.061 . S
O781 C775 1.247 . S
O782 Mg771 2.106 . S
O782 Mg774 2.238 1_554 S
O782 C775 1.289 . S
C783 O784 1.245 . S
C783 O785 1.274 . S
O784 Mg771 2.079 . S
O784 C783 1.245 . S
O785 Mg770 2.038 . S
O785 C783 1.274 . S
O786 Mg774 2.042 . S
O786 C789 1.241 . S
O787 Mg773 1.984 . S
O787 C789 1.280 . S
O788 Mg774 2.041 1_554 S
O788 C792 1.277 . S
C789 O786 1.241 . S
C789 O787 1.280 . S
O790 Mg773 1.988 1_554 S
O790 C792 1.245 . S
O791 C767 1.247 . S
O791 Mg773 2.061 . S
C792 O788 1.277 . S
C792 O790 1.245 . S
O793 C767 1.289 . S
O793 Mg770 2.238 1_556 S
O793 Mg771 2.106 1_556 S
O794 Mg771 2.079 1_556 S
O794 C776 1.245 . S
O795 Mg774 2.038 . S
O795 C776 1.274 . S
C796 O808 1.241 . S
C796 O809 1.280 . S
C797 O810 1.277 . S
C797 O811 1.245 . S
C798 O822 1.247 . S
C798 O824 1.289 . S
Mg799 O800 1.926 1_455 S
Mg799 O809 1.984 1_455 S
Mg799 O811 1.988 1_455 S
Mg799 O812 2.061 . S
O800 Mg799 1.926 1_655 S
O800 Mg801 1.986 . S
O800 Mg802 1.917 1_655 S
Mg801 O800 1.986 . S
Mg801 O808 2.042 . S
Mg801 O810 2.041 . S
Mg801 O816 2.038 . S
Mg801 O824 2.238 . S
Mg802 O800 1.917 1_455 S
Mg802 O803 1.917 . S
Mg802 O813 2.106 . S
Mg802 O815 2.079 1_455 S
Mg802 O824 2.106 1_455 S
Mg802 O825 2.079 . S
O803 Mg802 1.917 . S
O803 Mg804 1.926 1_455 S
O803 Mg805 1.986 . S
Mg804 O803 1.926 1_655 S
Mg804 O818 1.984 1_655 S
Mg804 O821 1.988 1_655 S
Mg804 O822 2.061 . S
Mg805 O803 1.986 . S
Mg805 O813 2.238 . S
Mg805 O817 2.042 . S
Mg805 O819 2.041 . S
Mg805 O826 2.038 . S
C806 O812 1.247 . S
C806 O813 1.289 . S
C807 O825 1.245 . S
C807 O826 1.274 . S
O808 C796 1.241 . S
O808 Mg801 2.042 . S
O809 C796 1.280 . S
O809 Mg799 1.984 1_655 S
O810 C797 1.277 . S
O810 Mg801 2.041 . S
O811 C797 1.245 . S
O811 Mg799 1.988 1_655 S
O812 Mg799 2.061 . S
O812 C806 1.247 . S
O813 Mg802 2.106 . S
O813 Mg805 2.238 . S
O813 C806 1.289 . S
C814 O815 1.245 . S
C814 O816 1.274 . S
O815 Mg802 2.079 1_655 S
O815 C814 1.245 . S
O816 Mg801 2.038 . S
O816 C814 1.274 . S
O817 Mg805 2.042 . S
O817 C820 1.241 . S
O818 Mg804 1.984 1_455 S
O818 C820 1.280 . S
O819 Mg805 2.041 . S
O819 C823 1.277 . S
C820 O817 1.241 . S
C820 O818 1.280 . S
O821 Mg804 1.988 1_455 S
O821 C823 1.245 . S
O822 C798 1.247 . S
O822 Mg804 2.061 . S
C823 O819 1.277 . S
C823 O821 1.245 . S
O824 C798 1.289 . S
O824 Mg801 2.238 . S
O824 Mg802 2.106 1_655 S
O825 Mg802 2.079 . S
O825 C807 1.245 . S
O826 Mg805 2.038 . S
O826 C807 1.274 . S
C827 O839 1.241 . S
C827 O840 1.280 . S
C828 O841 1.277 . S
C828 O842 1.245 . S
C829 O853 1.247 . S
C829 O855 1.289 . S
Mg830 O831 1.926 . S
Mg830 O840 1.984 . S
Mg830 O842 1.988 . S
Mg830 O843 2.061 . S
O831 Mg830 1.926 . S
O831 Mg832 1.986 1_545 S
O831 Mg833 1.917 . S
Mg832 O831 1.986 1_565 S
Mg832 O839 2.042 1_565 S
Mg832 O841 2.041 1_565 S
Mg832 O847 2.038 . S
Mg832 O855 2.238 . S
Mg833 O831 1.917 . S
Mg833 O834 1.917 1_545 S
Mg833 O844 2.106 . S
Mg833 O846 2.079 1_545 S
Mg833 O855 2.106 1_545 S
Mg833 O856 2.079 . S
O834 Mg833 1.917 1_565 S
O834 Mg835 1.926 . S
O834 Mg836 1.986 1_565 S
Mg835 O834 1.926 . S
Mg835 O849 1.984 . S
Mg835 O852 1.988 . S
Mg835 O853 2.061 . S
Mg836 O834 1.986 1_545 S
Mg836 O844 2.238 . S
Mg836 O848 2.042 1_545 S
Mg836 O850 2.041 1_545 S
Mg836 O857 2.038 . S
C837 O843 1.247 . S
C837 O844 1.289 . S
C838 O856 1.245 . S
C838 O857 1.274 . S
O839 C827 1.241 . S
O839 Mg832 2.042 1_545 S
O840 C827 1.280 . S
O840 Mg830 1.984 . S
O841 C828 1.277 . S
O841 Mg832 2.041 1_545 S
O842 C828 1.245 . S
O842 Mg830 1.988 . S
O843 Mg830 2.061 . S
O843 C837 1.247 . S
O844 Mg833 2.106 . S
O844 Mg836 2.238 . S
O844 C837 1.289 . S
C845 O846 1.245 . S
C845 O847 1.274 . S
O846 Mg833 2.079 1_565 S
O846 C845 1.245 . S
O847 Mg832 2.038 . S
O847 C845 1.274 . S
O848 Mg836 2.042 1_565 S
O848 C851 1.241 . S
O849 Mg835 1.984 . S
O849 C851 1.280 . S
O850 Mg836 2.041 1_565 S
O850 C854 1.277 . S
C851 O848 1.241 . S
C851 O849 1.280 . S
O852 Mg835 1.988 . S
O852 C854 1.245 . S
O853 C829 1.247 . S
O853 Mg835 2.061 . S
C854 O850 1.277 . S
C854 O852 1.245 . S
O855 C829 1.289 . S
O855 Mg832 2.238 . S
O855 Mg833 2.106 1_565 S
O856 Mg833 2.079 . S
O856 C838 1.245 . S
O857 Mg836 2.038 . S
O857 C838 1.274 . S
C683 C74 2.331 . S
C673 C153 1.435 . S
C674 C231 2.028 . S
C310 C696 2.371 . S
C394 C699 1.435 . S
C682 C494 2.029 . S
C573 C672 2.371 . S
C651 C690 2.330 . S
C703 C56 3.405 . S
C151 C752 2.125 . S
C730 C237 2.134 . S
C744 C326 2.025 . S
C410 C705 2.068 . S
C758 C476 3.492 . S
C571 C714 2.237 . S
C657 C735 1.523 . S
C58 C761 1.522 . S
C392 C745 2.125 . S
C704 C478 2.133 . S
C736 C567 2.025 . S
C655 C727 3.405 . S
C235 C734 3.493 . S
C721 C308 2.237 . S
C147 C713 2.069 . S
C662 C776 2.331 . S
C405 C766 1.435 . S
C767 C483 2.029 . S
C789 C562 2.371 . S
C142 C792 1.435 . S
C775 C242 2.028 . S
C321 C765 2.371 . S
C63 C783 2.331 . S
C644 C796 3.405 . S
C845 C403 2.125 . S
C489 C823 2.134 . S
C578 C837 2.025 . S
C798 C158 2.068 . S
C224 C851 3.493 . S
C807 C319 2.237 . S
C828 C69 1.523 . S
C854 C646 1.523 . S
C140 C838 2.125 . S
C226 C797 2.133 . S
C829 C315 2.025 . S
C67 C820 3.405 . S
C487 C827 3.493 . S
C814 C560 2.237 . S
C806 C399 2.069 . S
