# Generated by pormake.
# Topology wbl, (4,4)-cn, num edge types: 1
# Building blocks:
#     Node 0, Type 0, BuildingBlock: MUDLON_clean_sbu_0, # of connection points: 4
#     Node 1, Type 0, BuildingBlock: MUDLON_clean_sbu_0, # of connection points: 4
#     Node 2, Type 0, BuildingBlock: MUDLON_clean_sbu_0, # of connection points: 4
#     Node 3, Type 0, BuildingBlock: MUDLON_clean_sbu_0, # of connection points: 4
#     Node 4, Type 0, BuildingBlock: MUDLON_clean_sbu_0, # of connection points: 4
#     Node 5, Type 0, BuildingBlock: MUDLON_clean_sbu_0, # of connection points: 4
#     Node 6, Type 0, BuildingBlock: MUDLON_clean_sbu_0, # of connection points: 4
#     Node 7, Type 0, BuildingBlock: MUDLON_clean_sbu_0, # of connection points: 4
#     Node 8, Type 1, BuildingBlock: TATPOV_clean_sbu_0, # of connection points: 4
#     Node 9, Type 1, BuildingBlock: TATPOV_clean_sbu_0, # of connection points: 4
#     Node 10, Type 1, BuildingBlock: TATPOV_clean_sbu_0, # of connection points: 4
#     Node 11, Type 1, BuildingBlock: TATPOV_clean_sbu_0, # of connection points: 4
#     Node 12, Type 1, BuildingBlock: TATPOV_clean_sbu_0, # of connection points: 4
#     Node 13, Type 1, BuildingBlock: TATPOV_clean_sbu_0, # of connection points: 4
#     Node 14, Type 1, BuildingBlock: TATPOV_clean_sbu_0, # of connection points: 4
#     Node 15, Type 1, BuildingBlock: TATPOV_clean_sbu_0, # of connection points: 4
#     Edge 16, Type (0, 1), BuildingBlock: CIFDUS_clean_linker_0, # of connection points: 2
#     Edge 17, Type (0, 1), BuildingBlock: CIFDUS_clean_linker_0, # of connection points: 2
#     Edge 18, Type (0, 1), BuildingBlock: CIFDUS_clean_linker_0, # of connection points: 2
#     Edge 19, Type (0, 1), BuildingBlock: CIFDUS_clean_linker_0, # of connection points: 2
#     Edge 20, Type (0, 1), BuildingBlock: CIFDUS_clean_linker_0, # of connection points: 2
#     Edge 21, Type (0, 1), BuildingBlock: CIFDUS_clean_linker_0, # of connection points: 2
#     Edge 22, Type (0, 1), BuildingBlock: CIFDUS_clean_linker_0, # of connection points: 2
#     Edge 23, Type (0, 1), BuildingBlock: CIFDUS_clean_linker_0, # of connection points: 2
#     Edge 24, Type (0, 1), BuildingBlock: CIFDUS_clean_linker_0, # of connection points: 2
#     Edge 25, Type (0, 1), BuildingBlock: CIFDUS_clean_linker_0, # of connection points: 2
#     Edge 26, Type (0, 1), BuildingBlock: CIFDUS_clean_linker_0, # of connection points: 2
#     Edge 27, Type (0, 1), BuildingBlock: CIFDUS_clean_linker_0, # of connection points: 2
#     Edge 28, Type (0, 1), BuildingBlock: CIFDUS_clean_linker_0, # of connection points: 2
#     Edge 29, Type (0, 1), BuildingBlock: CIFDUS_clean_linker_0, # of connection points: 2
#     Edge 30, Type (0, 1), BuildingBlock: CIFDUS_clean_linker_0, # of connection points: 2
#     Edge 31, Type (0, 1), BuildingBlock: CIFDUS_clean_linker_0, # of connection points: 2
#     Edge 32, Type (0, 1), BuildingBlock: CIFDUS_clean_linker_0, # of connection points: 2
#     Edge 33, Type (0, 1), BuildingBlock: CIFDUS_clean_linker_0, # of connection points: 2
#     Edge 34, Type (0, 1), BuildingBlock: CIFDUS_clean_linker_0, # of connection points: 2
#     Edge 35, Type (0, 1), BuildingBlock: CIFDUS_clean_linker_0, # of connection points: 2
#     Edge 36, Type (0, 1), BuildingBlock: CIFDUS_clean_linker_0, # of connection points: 2
#     Edge 37, Type (0, 1), BuildingBlock: CIFDUS_clean_linker_0, # of connection points: 2
#     Edge 38, Type (0, 1), BuildingBlock: CIFDUS_clean_linker_0, # of connection points: 2
#     Edge 39, Type (0, 1), BuildingBlock: CIFDUS_clean_linker_0, # of connection points: 2
#     Edge 40, Type (0, 1), BuildingBlock: CIFDUS_clean_linker_0, # of connection points: 2
#     Edge 41, Type (0, 1), BuildingBlock: CIFDUS_clean_linker_0, # of connection points: 2
#     Edge 42, Type (0, 1), BuildingBlock: CIFDUS_clean_linker_0, # of connection points: 2
#     Edge 43, Type (0, 1), BuildingBlock: CIFDUS_clean_linker_0, # of connection points: 2
#     Edge 44, Type (0, 1), BuildingBlock: CIFDUS_clean_linker_0, # of connection points: 2
#     Edge 45, Type (0, 1), BuildingBlock: CIFDUS_clean_linker_0, # of connection points: 2
#     Edge 46, Type (0, 1), BuildingBlock: CIFDUS_clean_linker_0, # of connection points: 2
#     Edge 47, Type (0, 1), BuildingBlock: CIFDUS_clean_linker_0, # of connection points: 2
# Relax obj value: 0.244
# Max RMSD: 0.233
# Mean RMSD: 0.173
data_MOF--net-wbl--node1-MUDLON_clean_sbu_0--node2-TATPOV_clean_sbu_0--edge1-CIFDUS_clean_linker_0
_symmetry_space_group_name_H-M    P1
_symmetry_Int_Tables_number       1
_symmetry_cell_setting            triclinic
loop_
_symmetry_equiv_pos_as_xyz
'x, y, z'
_cell_length_a     30.476291
_cell_length_b     30.56438
_cell_length_c     64.944218
_cell_angle_alpha  91.285632
_cell_angle_beta   91.425865
_cell_angle_gamma 90.257313
loop_
_atom_site_label
_atom_site_type_symbol
_atom_site_fract_x
_atom_site_fract_y
_atom_site_fract_z
_atom_type_partial_charge
Mg0 Mg 0.15417 0.16217 0.34953 0.0
C1 C 0.1133 0.10434 0.38057 0.0
O2 O 0.10099 0.14238 0.3882 0.0
C3 C 0.09609 0.22384 0.32417 0.0
O4 O 0.13324 0.23732 0.31661 0.0
C5 C 0.18275 0.10414 0.31674 0.0
O6 O 0.14052 0.09612 0.3181 0.0
O7 O 0.19902 0.13642 0.32705 0.0
O8 O 0.13207 0.10293 0.36335 0.0
O9 O 0.18386 0.19483 0.37634 0.0
C10 C 0.16124 0.22341 0.38572 0.0
O11 O 0.12757 0.24061 0.37586 0.0
O12 O 0.09651 0.19412 0.3375 0.0
Mg13 Mg 0.04104 0.62926 0.59518 0.0
C14 C 0.08682 0.66816 0.63151 0.0
O15 O 0.04929 0.68914 0.63106 0.0
C16 C 0.03193 0.55288 0.56396 0.0
O17 O 0.02804 0.58362 0.55023 0.0
C18 C 0.0898 0.67106 0.56282 0.0
O19 O 0.11086 0.63433 0.56605 0.0
O20 O 0.05438 0.67809 0.57234 0.0
O21 O 0.09412 0.63937 0.6176 0.0
O22 O 0.98169 0.63067 0.61329 0.0
C23 C 0.98827 0.60588 0.62855 0.0
O24 O 0.02612 0.5858 0.63041 0.0
O25 O 0.04014 0.56318 0.58272 0.0
Mg26 Mg 0.53464 0.4938 0.84716 0.0
C27 C 0.5889 0.54026 0.88033 0.0
O28 O 0.60153 0.50013 0.88399 0.0
C29 C 0.5944 0.49044 0.81152 0.0
O30 O 0.57872 0.53023 0.80989 0.0
C31 C 0.45178 0.5452 0.84138 0.0
O32 O 0.45212 0.54279 0.86155 0.0
O33 O 0.48044 0.52437 0.83125 0.0
O34 O 0.56514 0.54744 0.86442 0.0
O35 O 0.51681 0.45062 0.87163 0.0
C36 C 0.54425 0.42138 0.8767 0.0
O37 O 0.57459 0.41056 0.86351 0.0
O38 O 0.58092 0.46648 0.82582 0.0
Mg39 Mg 0.64135 0.04924 0.11081 0.0
C40 C 0.69225 0.00734 0.14502 0.0
O41 O 0.65354 0.99039 0.14852 0.0
C42 C 0.61345 0.9623 0.09041 0.0
O43 O 0.62923 0.94648 0.1077 0.0
C44 C 0.69295 0.13163 0.10539 0.0
O45 O 0.70921 0.11823 0.12307 0.0
O46 O 0.66209 0.10958 0.09654 0.0
O47 O 0.69807 0.02563 0.12789 0.0
O48 O 0.59456 0.06075 0.13519 0.0
C49 C 0.56471 0.03245 0.13794 0.0
O50 O 0.55785 0.00165 0.1238 0.0
O51 O 0.61549 0.00327 0.08759 0.0
Mg52 Mg 0.05548 0.62606 0.91719 0.0
C53 C 0.03065 0.67697 0.87954 0.0
O54 O 0.00816 0.64098 0.8753 0.0
C55 C 0.96583 0.59555 0.92975 0.0
O56 O 0.95947 0.59527 0.90966 0.0
C57 C 0.13044 0.61832 0.94996 0.0
O58 O 0.10784 0.5853 0.9569 0.0
O59 O 0.11619 0.63851 0.9343 0.0
O60 O 0.04855 0.68197 0.89734 0.0
O61 O 0.06039 0.57194 0.89547 0.0
C62 C 0.0487 0.53307 0.89927 0.0
O63 O 0.03879 0.52316 0.91818 0.0
O64 O 0.00204 0.61013 0.93735 0.0
Mg65 Mg 0.51069 0.52613 0.17581 0.0
C66 C 0.47605 0.48233 0.13804 0.0
O67 O 0.51134 0.45909 0.14198 0.0
C68 C 0.54929 0.47272 0.21153 0.0
O69 O 0.54292 0.50822 0.22282 0.0
C70 C 0.4659 0.58614 0.20787 0.0
O71 O 0.44584 0.55058 0.21376 0.0
O72 O 0.49302 0.58373 0.19338 0.0
O73 O 0.46268 0.50846 0.15203 0.0
O74 O 0.56539 0.54516 0.15744 0.0
C75 C 0.55878 0.56395 0.14037 0.0
O76 O 0.51885 0.576 0.13506 0.0
O77 O 0.53565 0.47124 0.19287 0.0
Mg78 Mg 0.67039 0.04904 0.42554 0.0
C79 C 0.71258 0.109 0.39629 0.0
O80 O 0.7462 0.09712 0.4079 0.0
C81 C 0.58975 0.03085 0.45336 0.0
O82 O 0.61801 0.03089 0.46894 0.0
C83 C 0.73098 0.04491 0.46494 0.0
O84 O 0.70908 0.00925 0.46917 0.0
O85 O 0.72108 0.0658 0.44878 0.0
O86 O 0.67443 0.09571 0.40077 0.0
O87 O 0.68149 0.98824 0.40899 0.0
C88 C 0.66063 0.95445 0.41433 0.0
O89 O 0.64567 0.95347 0.43312 0.0
O90 O 0.60274 0.04071 0.43554 0.0
Mg91 Mg 0.20892 0.1455 0.67778 0.0
C92 C 0.20763 0.05768 0.65432 0.0
O93 O 0.21191 0.04139 0.67281 0.0
C94 C 0.1339 0.20836 0.68621 0.0
O95 O 0.16122 0.23653 0.67839 0.0
C96 C 0.27912 0.09953 0.70253 0.0
O97 O 0.30291 0.11263 0.68721 0.0
O98 O 0.23918 0.11103 0.70315 0.0
O99 O 0.20369 0.09872 0.65242 0.0
O100 O 0.25047 0.19849 0.66727 0.0
C101 C 0.25289 0.21563 0.64955 0.0
O102 O 0.28304 0.24578 0.64704 0.0
O103 O 0.1452 0.16852 0.68761 0.0
Zn104 Zn 0.45008 0.75328 0.98266 0.0
Zn105 Zn 0.44544 0.68993 0.01086 0.0
O106 O 0.38292 0.69379 0.99868 0.0
O107 O 0.38478 0.74686 0.97641 0.0
O108 O 0.43734 0.64787 0.03383 0.0
O109 O 0.47399 0.79645 0.00412 0.0
O110 O 0.47177 0.74354 0.02647 0.0
C111 C 0.3636 0.71731 0.98534 0.0
C112 C 0.50349 0.67577 0.97419 0.0
O113 O 0.48795 0.66145 0.9908 0.0
O114 O 0.49249 0.7132 0.96784 0.0
C115 C 0.44723 0.60754 0.03426 0.0
O116 O 0.46582 0.58889 0.0183 0.0
C117 C 0.48134 0.78285 0.02214 0.0
Zn118 Zn 0.41467 0.85743 0.31157 0.0
Zn119 Zn 0.45752 0.89365 0.2796 0.0
O120 O 0.40747 0.93655 0.28462 0.0
O121 O 0.36881 0.90522 0.30851 0.0
O122 O 0.48263 0.91415 0.25307 0.0
O123 O 0.40635 0.79944 0.29643 0.0
O124 O 0.4415 0.83031 0.27137 0.0
C125 C 0.37443 0.93621 0.29619 0.0
C126 C 0.50612 0.88631 0.32045 0.0
O127 O 0.50603 0.89828 0.30177 0.0
O128 O 0.47209 0.869 0.32778 0.0
C129 C 0.48787 0.95354 0.24768 0.0
O130 O 0.47953 0.98567 0.26077 0.0
C131 C 0.4224 0.7971 0.27866 0.0
Zn132 Zn 0.27997 0.87829 0.46766 0.0
Zn133 Zn 0.26832 0.92887 0.5019 0.0
O134 O 0.33431 0.93712 0.49685 0.0
O135 O 0.34356 0.90024 0.46777 0.0
O136 O 0.25762 0.96398 0.52775 0.0
O137 O 0.26001 0.82391 0.48285 0.0
O138 O 0.24385 0.8686 0.50853 0.0
C139 C 0.35876 0.92519 0.48213 0.0
C140 C 0.21785 0.94955 0.46252 0.0
O141 O 0.22973 0.95937 0.48095 0.0
O142 O 0.2333 0.91587 0.45357 0.0
C143 C 0.25821 0.94678 0.54538 0.0
O144 O 0.26812 0.90519 0.54698 0.0
C145 C 0.24295 0.83051 0.50024 0.0
Zn146 Zn 0.3175 0.78687 0.74122 0.0
Zn147 Zn 0.25711 0.7877 0.77085 0.0
O148 O 0.27119 0.85323 0.76719 0.0
O149 O 0.32292 0.85238 0.74411 0.0
O150 O 0.21532 0.78625 0.79471 0.0
O151 O 0.35655 0.74688 0.75712 0.0
O152 O 0.30649 0.74636 0.78093 0.0
C153 C 0.29801 0.87359 0.756 0.0
C154 C 0.23283 0.75327 0.72748 0.0
O155 O 0.22221 0.76244 0.74593 0.0
O156 O 0.27158 0.76026 0.72169 0.0
C157 C 0.17401 0.78016 0.79305 0.0
O158 O 0.15542 0.77629 0.77463 0.0
C159 C 0.34305 0.73304 0.77405 0.0
Zn160 Zn 0.95994 0.20842 0.56377 0.0
Zn161 Zn 0.01473 0.22021 0.53222 0.0
O162 O 0.99823 0.28208 0.54071 0.0
O163 O 0.95361 0.27485 0.56653 0.0
O164 O 0.04988 0.23235 0.50714 0.0
O165 O 0.91847 0.17167 0.54546 0.0
O166 O 0.96361 0.18232 0.52011 0.0
C167 C 0.97457 0.29911 0.55456 0.0
C168 C 0.05002 0.18098 0.57217 0.0
O169 O 0.05693 0.19436 0.55405 0.0
O170 O 0.01148 0.18148 0.57911 0.0
C171 C 0.08483 0.21472 0.50075 0.0
O172 O 0.10332 0.1833 0.51131 0.0
C173 C 0.92824 0.16594 0.52675 0.0
Zn174 Zn 0.8988 0.35116 0.77699 0.0
Zn175 Zn 0.90194 0.42567 0.75458 0.0
O176 O 0.83629 0.41929 0.75998 0.0
O177 O 0.83271 0.35794 0.77706 0.0
O178 O 0.90828 0.47951 0.73753 0.0
O179 O 0.92928 0.31818 0.75409 0.0
O180 O 0.93158 0.37905 0.73671 0.0
C181 C 0.81389 0.39072 0.76919 0.0
C182 C 0.94857 0.42164 0.79694 0.0
O183 O 0.93785 0.44158 0.78057 0.0
O184 O 0.93587 0.38258 0.7994 0.0
C185 C 0.88683 0.48739 0.72098 0.0
O186 O 0.85565 0.46016 0.71457 0.0
C187 C 0.94068 0.33864 0.73833 0.0
Zn188 Zn 0.79217 0.43225 0.04809 0.0
Zn189 Zn 0.73534 0.42328 0.01635 0.0
O190 O 0.7382 0.36212 0.02915 0.0
O191 O 0.78628 0.36817 0.05486 0.0
O192 O 0.69916 0.41134 0.99039 0.0
O193 O 0.8398 0.45562 0.03025 0.0
O194 O 0.7911 0.45177 0.00474 0.0
C195 C 0.75886 0.34524 0.0443 0.0
C196 C 0.71107 0.48272 0.05193 0.0
O197 O 0.70024 0.46543 0.03449 0.0
O198 O 0.74808 0.47431 0.06026 0.0
C199 C 0.65838 0.41782 0.98723 0.0
O200 O 0.63485 0.43495 0.00202 0.0
C201 C 0.82929 0.46252 0.01163 0.0
Zn202 Zn 0.83315 0.27008 0.22053 0.0
Zn203 Zn 0.79255 0.23732 0.25294 0.0
O204 O 0.74846 0.28444 0.24365 0.0
O205 O 0.77993 0.30773 0.21568 0.0
O206 O 0.76907 0.2145 0.27955 0.0
O207 O 0.88594 0.2909 0.23723 0.0
O208 O 0.85408 0.258 0.26266 0.0
C209 C 0.74804 0.30838 0.22782 0.0
C210 C 0.81215 0.17812 0.21575 0.0
O211 O 0.79318 0.18402 0.23289 0.0
O212 O 0.83306 0.20926 0.20789 0.0
C213 C 0.7299 0.20244 0.2828 0.0
O214 O 0.70036 0.20393 0.26775 0.0
C215 C 0.88684 0.27851 0.25568 0.0
H216 H 0.26914 0.1114 0.3069 0.0
H217 H 0.16141 0.01928 0.308 0.0
H218 H 0.2111 0.95917 0.30076 0.0
H219 H 0.28624 0.9317 0.2978 0.0
H220 H 0.39381 0.02295 0.29435 0.0
H221 H 0.34325 0.08445 0.29873 0.0
C222 C 0.25649 0.07826 0.30517 0.0
C223 C 0.21176 0.06986 0.30829 0.0
C224 C 0.28529 0.04361 0.30084 0.0
C225 C 0.19571 0.02679 0.30576 0.0
C226 C 0.22415 0.99222 0.30174 0.0
C227 C 0.2984 0.96512 0.29777 0.0
C228 C 0.3435 0.97303 0.2961 0.0
C229 C 0.26913 0.00011 0.29987 0.0
C230 C 0.35906 0.0163 0.2957 0.0
C231 C 0.33023 0.05138 0.29826 0.0
H232 H 0.15569 0.6612 0.53579 0.0
H233 H 0.07176 0.75865 0.56314 0.0
H234 H 0.11284 0.81652 0.54663 0.0
H235 H 0.17429 0.83956 0.52555 0.0
H236 H 0.25595 0.74218 0.49672 0.0
H237 H 0.21431 0.68401 0.51289 0.0
C238 C 0.14613 0.69509 0.538 0.0
C239 C 0.11081 0.7056 0.55076 0.0
C240 C 0.16983 0.72815 0.52842 0.0
C241 C 0.09864 0.74963 0.55333 0.0
C242 C 0.12233 0.78276 0.54402 0.0
C243 C 0.18313 0.80559 0.5229 0.0
C244 C 0.21857 0.79514 0.51021 0.0
C245 C 0.15835 0.77242 0.53179 0.0
C246 C 0.22901 0.751 0.50653 0.0
C247 C 0.20516 0.71779 0.51573 0.0
H248 H 0.466 0.5816 0.80465 0.0
H249 H 0.37663 0.5836 0.85513 0.0
H250 H 0.33498 0.64261 0.83894 0.0
H251 H 0.32513 0.69457 0.81061 0.0
H252 H 0.41779 0.69365 0.76129 0.0
H253 H 0.45723 0.63366 0.77707 0.0
C254 C 0.43709 0.59452 0.81202 0.0
C255 C 0.42412 0.57797 0.83094 0.0
C256 C 0.41423 0.62908 0.80297 0.0
C257 C 0.3871 0.59568 0.84048 0.0
C258 C 0.36342 0.62952 0.83128 0.0
C259 C 0.35408 0.6814 0.80338 0.0
C260 C 0.36835 0.69872 0.78477 0.0
C261 C 0.37695 0.64676 0.8126 0.0
C262 C 0.40599 0.68118 0.77563 0.0
C263 C 0.42856 0.64665 0.78458 0.0
H264 H 0.58501 0.87886 0.09561 0.0
H265 H 0.58782 0.98172 0.05117 0.0
H266 H 0.54598 0.93581 0.02646 0.0
H267 H 0.50882 0.86666 0.01741 0.0
H268 H 0.50515 0.76379 0.06185 0.0
H269 H 0.54671 0.80979 0.08669 0.0
C270 C 0.57671 0.89114 0.08048 0.0
C271 C 0.58973 0.93358 0.07522 0.0
C272 C 0.55218 0.86474 0.0664 0.0
C273 C 0.57827 0.94916 0.05561 0.0
C274 C 0.55426 0.92296 0.04147 0.0
C275 C 0.51685 0.8543 0.03256 0.0
C276 C 0.50385 0.81178 0.03772 0.0
C277 C 0.54095 0.88078 0.04672 0.0
C278 C 0.51465 0.79639 0.05745 0.0
C279 C 0.53857 0.82262 0.07165 0.0
H280 H 0.17763 0.6913 0.9424 0.0
H281 H 0.17754 0.57715 0.98035 0.0
H282 H 0.24848 0.59942 0.99578 0.0
H283 H 0.31215 0.64942 0.9971 0.0
H284 H 0.31162 0.76302 0.95869 0.0
H285 H 0.23895 0.74294 0.945 0.0
C286 C 0.193 0.67124 0.95408 0.0
C287 C 0.17246 0.63237 0.96006 0.0
C288 C 0.23365 0.68418 0.96283 0.0
C289 C 0.19269 0.60712 0.97539 0.0
C290 C 0.23327 0.61984 0.98421 0.0
C291 C 0.29597 0.67009 0.98591 0.0
C292 C 0.31754 0.70758 0.97887 0.0
C293 C 0.25427 0.65808 0.97788 0.0
C294 C 0.29597 0.73391 0.96435 0.0
C295 C 0.25442 0.7224 0.95645 0.0
H296 H 0.41917 0.60345 0.24249 0.0
H297 H 0.4951 0.66559 0.19595 0.0
H298 H 0.48574 0.73637 0.21304 0.0
H299 H 0.45929 0.78026 0.24184 0.0
H300 H 0.38493 0.71918 0.28918 0.0
H301 H 0.39005 0.64855 0.27099 0.0
C302 C 0.43342 0.63252 0.23604 0.0
C303 C 0.45803 0.62907 0.21804 0.0
C304 C 0.42826 0.67336 0.24607 0.0
C305 C 0.47627 0.66712 0.20987 0.0
C306 C 0.47091 0.70773 0.21961 0.0
C307 C 0.44384 0.75164 0.24815 0.0
C308 C 0.42194 0.75505 0.2669 0.0
C309 C 0.44744 0.71115 0.23782 0.0
C310 C 0.40211 0.71751 0.27479 0.0
C311 C 0.40511 0.67706 0.26443 0.0
H312 H 0.54581 0.01674 0.48892 0.0
H313 H 0.5332 0.00231 0.42274 0.0
H314 H 0.46236 0.96628 0.42597 0.0
H315 H 0.40395 0.93828 0.4474 0.0
H316 H 0.41333 0.95607 0.51341 0.0
H317 H 0.48546 0.99089 0.51046 0.0
C318 C 0.52741 0.00597 0.47521 0.0
C319 C 0.54493 0.01244 0.45562 0.0
C320 C 0.48624 0.98543 0.47715 0.0
C321 C 0.52051 0.99826 0.43802 0.0
C322 C 0.48002 0.97731 0.43984 0.0
C323 C 0.42195 0.94936 0.46117 0.0
C324 C 0.40353 0.94403 0.48062 0.0
C325 C 0.46268 0.97049 0.4593 0.0
C326 C 0.4269 0.95951 0.49827 0.0
C327 C 0.46807 0.97955 0.49658 0.0
H328 H 0.2364 0.06157 0.73396 0.0
H329 H 0.35836 0.0583 0.70152 0.0
H330 H 0.37861 0.99067 0.71844 0.0
H331 H 0.35621 0.92685 0.73779 0.0
H332 H 0.23304 0.92833 0.76919 0.0
H333 H 0.21932 0.00273 0.75775 0.0
C334 C 0.26781 0.04656 0.73089 0.0
C335 C 0.29536 0.0645 0.71612 0.0
C336 C 0.27891 0.00713 0.74038 0.0
C337 C 0.33623 0.04496 0.71259 0.0
C338 C 0.34781 0.00614 0.72222 0.0
C339 C 0.32678 0.94376 0.74252 0.0
C340 C 0.29528 0.92169 0.75397 0.0
C341 C 0.31856 0.98602 0.73544 0.0
C342 C 0.25772 0.94438 0.76027 0.0
C343 C 0.24967 0.98684 0.75358 0.0
H344 H 0.62976 0.40911 0.80912 0.0
H345 H 0.64087 0.53866 0.78456 0.0
H346 H 0.70717 0.51712 0.7667 0.0
H347 H 0.76661 0.46432 0.76157 0.0
H348 H 0.75608 0.33535 0.78691 0.0
H349 H 0.68458 0.35368 0.80057 0.0
C350 C 0.64638 0.43251 0.79967 0.0
C351 C 0.63081 0.47562 0.79848 0.0
C352 C 0.68472 0.42007 0.7896 0.0
C353 C 0.65236 0.50534 0.7859 0.0
C354 C 0.69036 0.49308 0.7757 0.0
C355 C 0.74832 0.43989 0.76971 0.0
C356 C 0.76708 0.39877 0.77348 0.0
C357 C 0.70754 0.45092 0.77794 0.0
C358 C 0.74271 0.36745 0.78397 0.0
C359 C 0.70184 0.37794 0.79188 0.0
H360 H 0.67153 0.16582 0.06788 0.0
H361 H 0.75628 0.18635 0.12155 0.0
H362 H 0.78674 0.2518 0.10655 0.0
H363 H 0.78729 0.30506 0.07905 0.0
H364 H 0.70186 0.28621 0.02553 0.0
H365 H 0.6744 0.21799 0.03947 0.0
C366 C 0.69668 0.18459 0.07628 0.0
C367 C 0.71128 0.17124 0.0959 0.0
C368 C 0.71421 0.22243 0.06755 0.0
C369 C 0.74416 0.19585 0.10649 0.0
C370 C 0.76175 0.23333 0.0979 0.0
C371 C 0.76308 0.28582 0.07026 0.0
C372 C 0.74668 0.30094 0.05126 0.0
C373 C 0.7468 0.24711 0.07853 0.0
C374 C 0.71516 0.27547 0.04018 0.0
C375 C 0.69923 0.23652 0.0482 0.0
H376 H 0.0807 0.27379 0.29048 0.0
H377 H 0.01546 0.20926 0.33977 0.0
H378 H 0.94427 0.22618 0.3242 0.0
H379 H 0.90099 0.25132 0.29473 0.0
H380 H 0.96556 0.31336 0.24456 0.0
H381 H 0.03634 0.30621 0.26258 0.0
C382 C 0.0509 0.26403 0.29797 0.0
C383 C 0.05345 0.23966 0.31606 0.0
C384 C 0.00988 0.27323 0.28875 0.0
C385 C 0.01449 0.22749 0.32565 0.0
C386 C 0.97369 0.23717 0.31678 0.0
C387 C 0.9304 0.26398 0.28785 0.0
C388 C 0.928 0.28221 0.26818 0.0
C389 C 0.97105 0.25881 0.29802 0.0
C390 C 0.96645 0.29883 0.25963 0.0
C391 C 0.00703 0.29457 0.26987 0.0
H392 H 0.99433 0.49308 0.58784 0.0
H393 H 0.04541 0.51044 0.52722 0.0
H394 H 0.02932 0.43351 0.51836 0.0
H395 H 0.00384 0.3608 0.5286 0.0
H396 H 0.94979 0.34498 0.58884 0.0
H397 H 0.96311 0.4223 0.59697 0.0
C398 C 0.00206 0.47993 0.5727 0.0
C399 C 0.02177 0.50694 0.5583 0.0
C400 C 0.99181 0.43622 0.56762 0.0
C401 C 0.03057 0.49001 0.53858 0.0
C402 C 0.02132 0.44614 0.53353 0.0
C403 C 0.9945 0.37438 0.54342 0.0
C404 C 0.97618 0.34705 0.55816 0.0
C405 C 0.0023 0.41887 0.54801 0.0
C406 C 0.96386 0.36525 0.57721 0.0
C407 C 0.97177 0.4094 0.58193 0.0
H408 H 0.80045 0.09572 0.45532 0.0
H409 H 0.74149 0.03095 0.50615 0.0
H410 H 0.79801 0.06169 0.52976 0.0
H411 H 0.86255 0.10947 0.53614 0.0
H412 H 0.92354 0.17096 0.48488 0.0
H413 H 0.86815 0.1387 0.46126 0.0
C414 C 0.80005 0.08827 0.47157 0.0
C415 C 0.76657 0.06148 0.47902 0.0
C416 C 0.83305 0.10543 0.48497 0.0
C417 C 0.76687 0.05152 0.50004 0.0
C418 C 0.79913 0.06917 0.51355 0.0
C419 C 0.86387 0.11559 0.51978 0.0
C420 C 0.89698 0.14289 0.51233 0.0
C421 C 0.83214 0.09652 0.50622 0.0
C422 C 0.8985 0.15005 0.49105 0.0
C423 C 0.8667 0.13177 0.47752 0.0
H424 H 0.09377 0.28625 0.67999 0.0
H425 H 0.07945 0.16407 0.71129 0.0
H426 H 0.01452 0.192 0.72835 0.0
H427 H 0.96679 0.25363 0.73713 0.0
H428 H 0.98143 0.37607 0.70602 0.0
H429 H 0.04066 0.34512 0.68586 0.0
C430 C 0.07622 0.2656 0.69042 0.0
C431 C 0.09186 0.22346 0.69464 0.0
C432 C 0.03897 0.28189 0.70023 0.0
C433 C 0.06831 0.19679 0.70789 0.0
C434 C 0.0312 0.21275 0.71769 0.0
C435 C 0.98241 0.27337 0.72571 0.0
C436 C 0.97009 0.31733 0.72336 0.0
C437 C 0.01693 0.25563 0.71437 0.0
C438 C 0.99039 0.34223 0.70829 0.0
C439 C 0.02449 0.32465 0.69681 0.0
H440 H 0.97913 0.56874 0.96906 0.0
H441 H 0.88154 0.57095 0.9198 0.0
H442 H 0.83108 0.52902 0.94048 0.0
H443 H 0.81498 0.49086 0.97242 0.0
H444 H 0.9135 0.48774 0.02133 0.0
H445 H 0.96328 0.53039 0.00081 0.0
C446 C 0.94666 0.56047 0.96291 0.0
C447 C 0.93407 0.57326 0.94295 0.0
C448 C 0.91808 0.53569 0.97474 0.0
C449 C 0.89206 0.56167 0.93514 0.0
C450 C 0.86321 0.53753 0.94693 0.0
C451 C 0.84743 0.49925 0.97856 0.0
C452 C 0.86036 0.48594 0.99842 0.0
C453 C 0.87599 0.52407 0.9667 0.0
C454 C 0.90255 0.49739 0.0061 0.0
C455 C 0.93108 0.52197 0.9944 0.0
H456 H 0.59564 0.41731 0.18781 0.0
H457 H 0.57371 0.45328 0.25131 0.0
H458 H 0.63157 0.4027 0.26238 0.0
H459 H 0.69209 0.35174 0.25355 0.0
H460 H 0.71677 0.32316 0.18951 0.0
H461 H 0.65417 0.36734 0.17911 0.0
C462 C 0.60293 0.41369 0.20412 0.0
C463 C 0.58022 0.43881 0.21873 0.0
C464 C 0.63718 0.38616 0.21024 0.0
C465 C 0.59069 0.43418 0.23977 0.0
C466 C 0.62386 0.40541 0.24608 0.0
C467 C 0.68343 0.35511 0.23737 0.0
C468 C 0.70907 0.33448 0.2223 0.0
C469 C 0.64794 0.38181 0.23141 0.0
C470 C 0.69781 0.33918 0.20137 0.0
C471 C 0.66193 0.36427 0.1954 0.0
H472 H 0.1173 0.10571 0.42225 0.0
H473 H 0.12291 0.01878 0.3691 0.0
H474 H 0.15129 0.96043 0.39071 0.0
H475 H 0.18506 0.9384 0.42344 0.0
H476 H 0.1837 0.02721 0.4761 0.0
H477 H 0.14306 0.08053 0.45592 0.0
C478 C 0.12347 0.0736 0.41549 0.0
C479 C 0.11843 0.06659 0.39411 0.0
C480 C 0.14148 0.04087 0.42784 0.0
C481 C 0.12681 0.02493 0.38554 0.0
C482 C 0.14334 0.9917 0.39785 0.0
C483 C 0.17537 0.96915 0.4306 0.0
C484 C 0.18815 0.97908 0.45112 0.0
C485 C 0.15262 -2e-05 0.41883 0.0
C486 C 0.17479 0.01888 0.46024 0.0
C487 C 0.15149 0.04944 0.44872 0.0
H488 H 0.07147 0.70381 0.66903 0.0
H489 H 0.17516 0.65414 0.63112 0.0
H490 H 0.22961 0.67488 0.65796 0.0
H491 H 0.2477 0.71018 0.69143 0.0
H492 H 0.14364 0.75762 0.72978 0.0
H493 H 0.08913 0.73431 0.70352 0.0
C494 C 0.106 0.69749 0.66667 0.0
C495 C 0.11946 0.67802 0.64808 0.0
C496 C 0.13691 0.70906 0.6822 0.0
C497 C 0.16413 0.66921 0.64532 0.0
C498 C 0.19521 0.68115 0.66061 0.0
C499 C 0.21308 0.71526 0.69408 0.0
C500 C 0.19972 0.73598 0.71242 0.0
C501 C 0.18198 0.70157 0.67899 0.0
C502 C 0.15474 0.74176 0.71578 0.0
C503 C 0.12359 0.72861 0.70075 0.0
H504 H 0.58659 0.52522 0.92114 0.0
H505 H 0.58906 0.62875 0.8771 0.0
H506 H 0.56916 0.68193 0.9039 0.0
H507 H 0.53928 0.69624 0.93785 0.0
H508 H 0.52973 0.59145 0.98106 0.0
H509 H 0.56456 0.54146 0.9566 0.0
C510 C 0.58415 0.55965 0.91758 0.0
C511 C 0.5891 0.5732 0.89721 0.0
C512 C 0.57051 0.58956 0.9328 0.0
C513 C 0.5853 0.61773 0.8927 0.0
C514 C 0.57361 0.648 0.90797 0.0
C515 C 0.5454 0.66265 0.94211 0.0
C516 C 0.53115 0.64743 0.96112 0.0
C517 C 0.56417 0.63388 0.92778 0.0
C518 C 0.53989 0.60393 0.96644 0.0
C519 C 0.55975 0.57529 0.95245 0.0
H520 H 0.52922 0.95933 0.15325 0.0
H521 H 0.56153 0.09345 0.16953 0.0
H522 H 0.53964 0.08134 0.20503 0.0
H523 H 0.51436 0.03127 0.23178 0.0
H524 H 0.4873 0.89602 0.21514 0.0
H525 H 0.50451 0.90996 0.17951 0.0
C526 C 0.53086 0.98621 0.16444 0.0
C527 C 0.54656 0.02737 0.15869 0.0
C528 C 0.51975 0.9786 0.18487 0.0
C529 C 0.54925 0.06152 0.17354 0.0
C530 C 0.53698 0.05453 0.19386 0.0
C531 C 0.51223 0.0049 0.22034 0.0
C532 C 0.49964 0.96264 0.22619 0.0
C533 C 0.52276 0.01298 0.19977 0.0
C534 C 0.49718 0.92879 0.21117 0.0
C535 C 0.50682 0.93674 0.19072 0.0
H536 H 0.10081 0.73234 0.87947 0.0
H537 H 0.99424 0.68166 0.84082 0.0
H538 H 0.02708 0.71385 0.81069 0.0
H539 H 0.09067 0.748 0.79478 0.0
H540 H 0.19958 0.794 0.8333 0.0
H541 H 0.16112 0.77222 0.86398 0.0
C542 C 0.08416 0.72918 0.86455 0.0
C543 C 0.0452 0.70437 0.86241 0.0
C544 C 0.10407 0.74636 0.84718 0.0
C545 C 0.02432 0.70043 0.8429 0.0
C546 C 0.04323 0.71863 0.82563 0.0
C547 C 0.10574 0.7539 0.8099 0.0
C548 C 0.1482 0.77219 0.81168 0.0
C549 C 0.08387 0.74032 0.82748 0.0
C550 C 0.16715 0.77959 0.83143 0.0
C551 C 0.14516 0.76714 0.84901 0.0
H552 H 0.41814 0.54253 0.1238 0.0
H553 H 0.50695 0.44187 0.1033 0.0
H554 H 0.50221 0.46933 0.06832 0.0
H555 H 0.48168 0.52863 0.0449 0.0
H556 H 0.39674 0.63171 0.06648 0.0
H557 H 0.39139 0.5967 0.09962 0.0
C558 C 0.43565 0.52584 0.11161 0.0
C559 C 0.46337 0.49059 0.11629 0.0
C560 C 0.43424 0.54287 0.09174 0.0
C561 C 0.48554 0.46926 0.10021 0.0
C562 C 0.48317 0.48519 0.0802 0.0
C563 C 0.46145 0.54303 0.05674 0.0
C564 C 0.44019 0.58306 0.0533 0.0
C565 C 0.45911 0.52311 0.076 0.0
C566 C 0.41401 0.60125 0.06881 0.0
C567 C 0.41079 0.58119 0.08778 0.0
H568 H 0.66607 0.96218 0.37275 0.0
H569 H 0.60631 0.88428 0.41923 0.0
H570 H 0.55568 0.85237 0.39331 0.0
H571 H 0.52114 0.85549 0.3589 0.0
H572 H 0.57863 0.93602 0.31279 0.0
H573 H 0.6374 0.95792 0.33717 0.0
C574 C 0.64273 0.93743 0.37717 0.0
C575 C 0.6395 0.92631 0.39802 0.0
C576 C 0.61265 0.92035 0.36233 0.0
C577 C 0.60928 0.89382 0.40336 0.0
C578 C 0.58003 0.8758 0.38856 0.0
C579 C 0.54678 0.87745 0.35407 0.0
C580 C 0.54495 0.89478 0.33417 0.0
C581 C 0.58014 0.89035 0.36823 0.0
C582 C 0.57893 0.92254 0.32808 0.0
C583 C 0.61256 0.93513 0.34203 0.0
H584 H 0.20717 0.08336 0.61465 0.0
H585 H 0.22109 0.96924 0.65226 0.0
H586 H 0.2374 0.92466 0.62172 0.0
H587 H 0.25094 0.91892 0.58464 0.0
H588 H 0.23822 0.0337 0.54737 0.0
H589 H 0.21846 0.07726 0.57763 0.0
C590 C 0.21343 0.04865 0.6162 0.0
C591 C 0.2131 0.02969 0.63574 0.0
C592 C 0.22344 0.02343 0.59869 0.0
C593 C 0.22119 0.98467 0.63741 0.0
C594 C 0.2307 0.95919 0.61997 0.0
C595 C 0.24388 0.95346 0.58312 0.0
C596 C 0.24635 0.97304 0.56379 0.0
C597 C 0.23255 0.97838 0.60059 0.0
C598 C 0.23678 0.0178 0.56208 0.0
C599 C 0.22539 0.04276 0.57937 0.0
H600 H 0.61143 0.37606 0.89404 0.0
H601 H 0.49595 0.45 0.90943 0.0
H602 H 0.5196 0.45259 0.94563 0.0
H603 H 0.57765 0.44169 0.97214 0.0
H604 H 0.6947 0.37108 0.95589 0.0
H605 H 0.66584 0.35957 0.92089 0.0
C606 C 0.59083 0.39191 0.90534 0.0
C607 C 0.55218 0.41315 0.89891 0.0
C608 C 0.60534 0.3946 0.926 0.0
C609 C 0.52593 0.43339 0.91387 0.0
C610 C 0.53962 0.43524 0.93459 0.0
C611 C 0.59658 0.42332 0.96101 0.0
C612 C 0.63852 0.40776 0.9666 0.0
C613 C 0.58005 0.41729 0.94071 0.0
C614 C 0.66257 0.38393 0.95197 0.0
C615 C 0.64605 0.37718 0.93193 0.0
H616 H 0.77314 0.04459 0.14391 0.0
H617 H 0.67521 0.00213 0.18609 0.0
H618 H 0.70931 0.04702 0.21361 0.0
H619 H 0.75688 0.10994 0.22329 0.0
H620 H 0.85258 0.15416 0.18033 0.0
H621 H 0.82965 0.0969 0.15573 0.0
C622 C 0.76 0.04412 0.15928 0.0
C623 C 0.72098 0.02105 0.16274 0.0
C624 C 0.77881 0.07119 0.17485 0.0
C625 C 0.7049 0.02006 0.18286 0.0
C626 C 0.72415 0.04612 0.19861 0.0
C627 C 0.77348 0.10635 0.20877 0.0
C628 C 0.8055 0.13712 0.20345 0.0
C629 C 0.75953 0.07375 0.19442 0.0
C630 C 0.82713 0.13156 0.18468 0.0
C631 C 0.81404 0.09878 0.17055 0.0
H632 H 0.11597 0.27779 0.41087 0.0
H633 H 0.20807 0.17095 0.41193 0.0
H634 H 0.19529 0.16103 0.44846 0.0
H635 H 0.15071 0.17653 0.47892 0.0
H636 H 0.05707 0.28214 0.47713 0.0
H637 H 0.07788 0.29862 0.44222 0.0
C638 C 0.13404 0.25299 0.41918 0.0
C639 C 0.16253 0.22494 0.40857 0.0
C640 C 0.12575 0.24671 0.44007 0.0
C641 C 0.18592 0.19313 0.41966 0.0
C642 C 0.17833 0.18712 0.44055 0.0
C643 C 0.13531 0.20354 0.471 0.0
C644 C 0.10186 0.22754 0.48056 0.0
C645 C 0.14712 0.2127 0.45073 0.0
C646 C 0.08248 0.26265 0.47009 0.0
C647 C 0.0944 0.27222 0.45009 0.0
H648 H 0.99968 0.6136 0.66928 0.0
H649 H 0.90424 0.57622 0.62209 0.0
H650 H 0.85979 0.5399 0.64779 0.0
H651 H 0.85574 0.50827 0.68249 0.0
H652 H 0.95321 0.54565 0.72913 0.0
H653 H 0.98882 0.593 0.70495 0.0
C654 C 0.96833 0.59876 0.66481 0.0
C655 C 0.95505 0.59736 0.64398 0.0
C656 C 0.94382 0.57725 0.67952 0.0
C657 C 0.91466 0.57803 0.63816 0.0
C658 C 0.88965 0.55679 0.65281 0.0
C659 C 0.88423 0.52746 0.68748 0.0
C660 C 0.90236 0.52248 0.70748 0.0
C661 C 0.90501 0.5545 0.67337 0.0
C662 C 0.93893 0.54814 0.71376 0.0
C663 C 0.95942 0.57529 0.69993 0.0
H664 H 0.65566 0.12014 0.36359 0.0
H665 H 0.7873 0.15084 0.38561 0.0
H666 H 0.80364 0.18352 0.35277 0.0
H667 H 0.78218 0.20001 0.31727 0.0
H668 H 0.6512 0.16856 0.29463 0.0
H669 H 0.63309 0.13963 0.32819 0.0
C670 C 0.68773 0.13449 0.36129 0.0
C671 C 0.72022 0.13289 0.37707 0.0
C672 C 0.69722 0.15275 0.34218 0.0
C673 C 0.7617 0.15141 0.37375 0.0
C674 C 0.77115 0.17006 0.35493 0.0
C675 C 0.74958 0.18697 0.31964 0.0
C676 C 0.71821 0.18626 0.30336 0.0
C677 C 0.73943 0.17028 0.33894 0.0
C678 C 0.67608 0.16943 0.30683 0.0
C679 C 0.66567 0.15286 0.32605 0.0
H680 H 0.17219 0.17597 0.65027 0.0
H681 H 0.26474 0.23022 0.60876 0.0
H682 H 0.21233 0.21863 0.58007 0.0
H683 H 0.13708 0.20002 0.56765 0.0
H684 H 0.04622 0.14394 0.60983 0.0
H685 H 0.10214 0.14713 0.63724 0.0
C686 C 0.18178 0.18389 0.63501 0.0
C687 C 0.22267 0.20361 0.63192 0.0
C688 C 0.15167 0.17663 0.61858 0.0
C689 C 0.23344 0.21504 0.61176 0.0
C690 C 0.2035 0.2083 0.59528 0.0
C691 C 0.12985 0.18738 0.58267 0.0
C692 C 0.08718 0.17241 0.5867 0.0
C693 C 0.16204 0.19001 0.5986 0.0
C694 C 0.07854 0.15612 0.6063 0.0
C695 C 0.11045 0.15817 0.62207 0.0
H696 H 0.04905 0.55068 0.85855 0.0
H697 H 0.02107 0.4478 0.90086 0.0
H698 H 0.99055 0.40251 0.87242 0.0
H699 H 0.96545 0.39524 0.83618 0.0
H700 H 0.99024 0.5004 0.79461 0.0
H701 H 0.02832 0.54169 0.82222 0.0
C702 C 0.03695 0.51807 0.86158 0.0
C703 C 0.03712 0.50278 0.88186 0.0
C704 C 0.01831 0.49283 0.84532 0.0
C705 C 0.02123 0.46045 0.88542 0.0
C706 C 0.00356 0.43461 0.86917 0.0
C707 C 0.97957 0.42698 0.8331 0.0
C708 C 0.97461 0.44483 0.81338 0.0
C709 C 0.00087 0.45096 0.84916 0.0
C710 C 0.99317 0.48602 0.80967 0.0
C711 C 0.01504 0.50967 0.82545 0.0
H712 H 0.54821 0.55549 0.09892 0.0
H713 H 0.6468 0.56738 0.14758 0.0
H714 H 0.70408 0.54985 0.12313 0.0
H715 H 0.72442 0.52109 0.08951 0.0
H716 H 0.62548 0.50193 0.04136 0.0
H717 H 0.57001 0.53301 0.06395 0.0
C718 C 0.58236 0.55528 0.10402 0.0
C719 C 0.59343 0.56248 0.12499 0.0
C720 C 0.61487 0.54328 0.09005 0.0
C721 C 0.63765 0.56173 0.13151 0.0
C722 C 0.67031 0.55155 0.11757 0.0
C723 C 0.69088 0.52425 0.08377 0.0
C724 C 0.67904 0.50855 0.06386 0.0
C725 C 0.65906 0.54064 0.09702 0.0
C726 C 0.63546 0.51342 0.05667 0.0
C727 C 0.60368 0.53102 0.06961 0.0
loop_
_geom_bond_atom_site_label_1
_geom_bond_atom_site_label_2
_geom_bond_distance
_geom_bond_site_symmetry_2
_ccdc_geom_bond_type
Mg0 O7 2.141 . S
Mg0 O8 2.048 . S
Mg0 O9 2.048 . S
Mg0 O12 2.141 . S
C1 O2 1.313 . S
C1 O8 1.195 . S
O2 C1 1.313 . S
C3 O4 1.245 . S
C3 O12 1.289 . S
O4 C3 1.245 . S
C5 O6 1.245 . S
C5 O7 1.289 . S
O6 C5 1.245 . S
O7 Mg0 2.141 . S
O7 C5 1.289 . S
O8 Mg0 2.048 . S
O8 C1 1.195 . S
O9 Mg0 2.048 . S
O9 C10 1.195 . S
C10 O9 1.195 . S
C10 O11 1.313 . S
O11 C10 1.313 . S
O12 Mg0 2.141 . S
O12 C3 1.289 . S
Mg13 O20 2.141 . S
Mg13 O21 2.048 . S
Mg13 O22 2.048 1_455 S
Mg13 O25 2.141 1_455 S
C14 O15 1.313 . S
C14 O21 1.195 . S
O15 C14 1.313 . S
C16 O17 1.245 . S
C16 O25 1.289 1_455 S
O17 C16 1.245 . S
C18 O19 1.245 . S
C18 O20 1.289 . S
O19 C18 1.245 . S
O20 Mg13 2.141 . S
O20 C18 1.289 . S
O21 Mg13 2.048 . S
O21 C14 1.195 . S
O22 Mg13 2.048 1_655 S
O22 C23 1.195 . S
C23 O22 1.195 . S
C23 O24 1.313 1_655 S
O24 C23 1.313 1_455 S
O25 Mg13 2.141 1_655 S
O25 C16 1.289 1_655 S
Mg26 O33 2.141 . S
Mg26 O34 2.048 . S
Mg26 O35 2.048 . S
Mg26 O38 2.141 . S
C27 O28 1.313 . S
C27 O34 1.195 . S
O28 C27 1.313 . S
C29 O30 1.245 . S
C29 O38 1.289 . S
O30 C29 1.245 . S
C31 O32 1.245 . S
C31 O33 1.289 . S
O32 C31 1.245 . S
O33 Mg26 2.141 . S
O33 C31 1.289 . S
O34 Mg26 2.048 . S
O34 C27 1.195 . S
O35 Mg26 2.048 . S
O35 C36 1.195 . S
C36 O35 1.195 . S
C36 O37 1.313 . S
O37 C36 1.313 . S
O38 Mg26 2.141 . S
O38 C29 1.289 . S
Mg39 O46 2.141 . S
Mg39 O47 2.048 . S
Mg39 O48 2.048 1_545 S
Mg39 O51 2.141 1_545 S
C40 O41 1.313 . S
C40 O47 1.195 . S
O41 C40 1.313 . S
C42 O43 1.245 . S
C42 O51 1.289 . S
O43 C42 1.245 . S
C44 O45 1.245 . S
C44 O46 1.289 . S
O45 C44 1.245 . S
O46 Mg39 2.141 . S
O46 C44 1.289 . S
O47 Mg39 2.048 . S
O47 C40 1.195 . S
O48 Mg39 2.048 1_565 S
O48 C49 1.195 . S
C49 O48 1.195 . S
C49 O50 1.313 . S
O50 C49 1.313 . S
O51 Mg39 2.141 1_565 S
O51 C42 1.289 . S
Mg52 O59 2.141 . S
Mg52 O60 2.048 . S
Mg52 O61 2.048 1_455 S
Mg52 O64 2.141 1_455 S
C53 O54 1.313 . S
C53 O60 1.195 . S
O54 C53 1.313 . S
C55 O56 1.245 . S
C55 O64 1.289 . S
O56 C55 1.245 . S
C57 O58 1.245 . S
C57 O59 1.289 . S
O58 C57 1.245 . S
O59 Mg52 2.141 . S
O59 C57 1.289 . S
O60 Mg52 2.048 . S
O60 C53 1.195 . S
O61 Mg52 2.048 1_655 S
O61 C62 1.195 . S
C62 O61 1.195 . S
C62 O63 1.313 . S
O63 C62 1.313 . S
O64 Mg52 2.141 1_655 S
O64 C55 1.289 . S
Mg65 O72 2.141 . S
Mg65 O73 2.048 . S
Mg65 O74 2.048 . S
Mg65 O77 2.141 . S
C66 O67 1.313 . S
C66 O73 1.195 . S
O67 C66 1.313 . S
C68 O69 1.245 . S
C68 O77 1.289 . S
O69 C68 1.245 . S
C70 O71 1.245 . S
C70 O72 1.289 . S
O71 C70 1.245 . S
O72 Mg65 2.141 . S
O72 C70 1.289 . S
O73 Mg65 2.048 . S
O73 C66 1.195 . S
O74 Mg65 2.048 . S
O74 C75 1.195 . S
C75 O74 1.195 . S
C75 O76 1.313 . S
O76 C75 1.313 . S
O77 Mg65 2.141 . S
O77 C68 1.289 . S
Mg78 O85 2.141 1_565 S
Mg78 O86 2.048 1_565 S
Mg78 O87 2.048 . S
Mg78 O90 2.141 . S
C79 O80 1.313 . S
C79 O86 1.195 . S
O80 C79 1.313 . S
C81 O82 1.245 1_565 S
C81 O90 1.289 . S
O82 C81 1.245 1_545 S
C83 O84 1.245 . S
C83 O85 1.289 . S
O84 C83 1.245 . S
O85 Mg78 2.141 1_545 S
O85 C83 1.289 . S
O86 Mg78 2.048 1_545 S
O86 C79 1.195 . S
O87 Mg78 2.048 . S
O87 C88 1.195 . S
C88 O87 1.195 . S
C88 O89 1.313 . S
O89 C88 1.313 . S
O90 Mg78 2.141 . S
O90 C81 1.289 . S
Mg91 O98 2.141 . S
Mg91 O99 2.048 . S
Mg91 O100 2.048 . S
Mg91 O103 2.141 . S
C92 O93 1.313 . S
C92 O99 1.195 . S
O93 C92 1.313 . S
C94 O95 1.245 . S
C94 O103 1.289 . S
O95 C94 1.245 . S
C96 O97 1.245 . S
C96 O98 1.289 . S
O97 C96 1.245 . S
O98 Mg91 2.141 . S
O98 C96 1.289 . S
O99 Mg91 2.048 . S
O99 C92 1.195 . S
O100 Mg91 2.048 . S
O100 C101 1.195 . S
C101 O100 1.195 . S
C101 O102 1.313 . S
O102 C101 1.313 . S
O103 Mg91 2.141 . S
O103 C94 1.289 . S
Zn104 O107 2.031 . S
Zn104 O109 2.049 1_556 S
Zn104 O114 2.067 . S
Zn105 O106 1.962 . S
Zn105 O108 1.986 . S
Zn105 O110 1.996 . S
Zn105 O113 1.943 . S
O106 Zn105 1.962 . S
O106 C111 1.254 . S
O107 Zn104 2.031 . S
O107 C111 1.269 1_556 S
O108 Zn105 1.986 . S
O108 C115 1.262 . S
O109 Zn104 2.049 1_554 S
O109 C117 1.260 . S
O110 Zn105 1.996 . S
O110 C117 1.257 . S
C111 O106 1.254 . S
C111 O107 1.269 1_554 S
C112 O113 1.249 1_556 S
C112 O114 1.270 . S
O113 Zn105 1.943 . S
O113 C112 1.249 1_554 S
O114 Zn104 2.067 . S
O114 C112 1.270 . S
C115 O108 1.262 . S
C115 O116 1.232 . S
O116 C115 1.232 . S
C117 O109 1.260 . S
C117 O110 1.257 . S
Zn118 O121 2.031 . S
Zn118 O123 2.049 . S
Zn118 O128 2.067 . S
Zn119 O120 1.962 . S
Zn119 O122 1.986 . S
Zn119 O124 1.996 . S
Zn119 O127 1.943 . S
O120 Zn119 1.962 . S
O120 C125 1.254 . S
O121 Zn118 2.031 . S
O121 C125 1.269 . S
O122 Zn119 1.986 . S
O122 C129 1.262 . S
O123 Zn118 2.049 . S
O123 C131 1.260 . S
O124 Zn119 1.996 . S
O124 C131 1.257 . S
C125 O120 1.254 . S
C125 O121 1.269 . S
C126 O127 1.249 . S
C126 O128 1.270 . S
O127 Zn119 1.943 . S
O127 C126 1.249 . S
O128 Zn118 2.067 . S
O128 C126 1.270 . S
C129 O122 1.262 . S
C129 O130 1.232 . S
O130 C129 1.232 . S
C131 O123 1.260 . S
C131 O124 1.257 . S
Zn132 O135 2.031 . S
Zn132 O137 2.049 . S
Zn132 O142 2.067 . S
Zn133 O134 1.962 . S
Zn133 O136 1.986 . S
Zn133 O138 1.996 . S
Zn133 O141 1.943 . S
O134 Zn133 1.962 . S
O134 C139 1.254 . S
O135 Zn132 2.031 . S
O135 C139 1.269 . S
O136 Zn133 1.986 . S
O136 C143 1.262 . S
O137 Zn132 2.049 . S
O137 C145 1.260 . S
O138 Zn133 1.996 . S
O138 C145 1.257 . S
C139 O134 1.254 . S
C139 O135 1.269 . S
C140 O141 1.249 . S
C140 O142 1.270 . S
O141 Zn133 1.943 . S
O141 C140 1.249 . S
O142 Zn132 2.067 . S
O142 C140 1.270 . S
C143 O136 1.262 . S
C143 O144 1.232 1_565 S
O144 C143 1.232 1_545 S
C145 O137 1.260 . S
C145 O138 1.257 . S
Zn146 O149 2.031 . S
Zn146 O151 2.049 . S
Zn146 O156 2.067 . S
Zn147 O148 1.962 . S
Zn147 O150 1.986 . S
Zn147 O152 1.996 . S
Zn147 O155 1.943 . S
O148 Zn147 1.962 . S
O148 C153 1.254 . S
O149 Zn146 2.031 . S
O149 C153 1.269 . S
O150 Zn147 1.986 . S
O150 C157 1.262 . S
O151 Zn146 2.049 . S
O151 C159 1.260 . S
O152 Zn147 1.996 . S
O152 C159 1.257 . S
C153 O148 1.254 . S
C153 O149 1.269 . S
C154 O155 1.249 . S
C154 O156 1.270 . S
O155 Zn147 1.943 . S
O155 C154 1.249 . S
O156 Zn146 2.067 . S
O156 C154 1.270 . S
C157 O150 1.262 . S
C157 O158 1.232 . S
O158 C157 1.232 . S
C159 O151 1.260 . S
C159 O152 1.257 . S
Zn160 O163 2.031 . S
Zn160 O165 2.049 . S
Zn160 O170 2.067 . S
Zn161 O162 1.962 . S
Zn161 O164 1.986 . S
Zn161 O166 1.996 . S
Zn161 O169 1.946 . S
O162 Zn161 1.962 . S
O162 C167 1.254 . S
O163 Zn160 2.031 . S
O163 C167 1.269 . S
O164 Zn161 1.986 . S
O164 C171 1.262 1_655 S
O165 Zn160 2.049 . S
O165 C173 1.260 . S
O166 Zn161 1.996 . S
O166 C173 1.257 . S
C167 O162 1.254 . S
C167 O163 1.269 . S
C168 O169 1.252 . S
C168 O170 1.270 . S
O169 Zn161 1.946 . S
O169 C168 1.252 . S
O170 Zn160 2.067 . S
O170 C168 1.270 . S
C171 O164 1.262 1_455 S
C171 O172 1.232 . S
O172 C171 1.232 . S
C173 O165 1.260 . S
C173 O166 1.257 . S
Zn174 O177 2.031 . S
Zn174 O179 2.049 . S
Zn174 O184 2.067 . S
Zn175 O176 1.962 . S
Zn175 O178 1.986 . S
Zn175 O180 1.996 . S
Zn175 O183 1.943 . S
O176 Zn175 1.962 . S
O176 C181 1.254 . S
O177 Zn174 2.031 . S
O177 C181 1.269 . S
O178 Zn175 1.986 . S
O178 C185 1.262 . S
O179 Zn174 2.049 . S
O179 C187 1.260 . S
O180 Zn175 1.996 . S
O180 C187 1.257 . S
C181 O176 1.254 . S
C181 O177 1.269 . S
C182 O183 1.249 . S
C182 O184 1.270 . S
O183 Zn175 1.943 . S
O183 C182 1.249 . S
O184 Zn174 2.067 . S
O184 C182 1.270 . S
C185 O178 1.262 . S
C185 O186 1.232 . S
O186 C185 1.232 . S
C187 O179 1.260 . S
C187 O180 1.257 . S
Zn188 O191 2.031 . S
Zn188 O193 2.049 . S
Zn188 O198 2.067 . S
Zn189 O190 1.962 . S
Zn189 O192 1.986 . S
Zn189 O194 1.996 . S
Zn189 O197 1.943 1_556 S
O190 Zn189 1.962 . S
O190 C195 1.254 1_556 S
O191 Zn188 2.031 . S
O191 C195 1.269 . S
O192 Zn189 1.986 . S
O192 C199 1.262 . S
O193 Zn188 2.049 . S
O193 C201 1.260 . S
O194 Zn189 1.996 . S
O194 C201 1.257 1_556 S
C195 O190 1.254 1_554 S
C195 O191 1.269 . S
C196 O197 1.249 . S
C196 O198 1.270 . S
O197 Zn189 1.943 1_554 S
O197 C196 1.249 . S
O198 Zn188 2.067 . S
O198 C196 1.270 . S
C199 O192 1.262 . S
C199 O200 1.232 . S
O200 C199 1.232 . S
C201 O193 1.260 . S
C201 O194 1.257 1_554 S
Zn202 O205 2.031 . S
Zn202 O207 2.049 . S
Zn202 O212 2.067 . S
Zn203 O204 1.962 . S
Zn203 O206 1.986 . S
Zn203 O208 1.996 . S
Zn203 O211 1.943 . S
O204 Zn203 1.962 . S
O204 C209 1.254 . S
O205 Zn202 2.031 . S
O205 C209 1.269 . S
O206 Zn203 1.986 . S
O206 C213 1.262 . S
O207 Zn202 2.049 . S
O207 C215 1.260 . S
O208 Zn203 1.996 . S
O208 C215 1.257 . S
C209 O204 1.254 . S
C209 O205 1.269 . S
C210 O211 1.249 . S
C210 O212 1.270 . S
O211 Zn203 1.943 . S
O211 C210 1.249 . S
O212 Zn202 2.067 . S
O212 C210 1.270 . S
C213 O206 1.262 . S
C213 O214 1.232 . S
O214 C213 1.232 . S
C215 O207 1.260 . S
C215 O208 1.257 . S
H216 C222 0.930 . S
H217 C225 0.930 . S
H218 C226 0.930 . S
H219 C227 0.930 . S
H220 C230 0.930 . S
H221 C231 0.930 1_545 S
C222 H216 0.930 . S
C222 C223 1.355 . S
C222 C224 1.415 . S
C223 C222 1.355 . S
C223 C225 1.419 . S
C224 C222 1.415 . S
C224 C229 1.425 1_545 S
C224 C231 1.409 1_545 S
C225 H217 0.930 . S
C225 C223 1.419 . S
C225 C226 1.362 1_545 S
C226 H218 0.930 . S
C226 C225 1.362 1_565 S
C226 C229 1.409 . S
C227 H219 0.930 . S
C227 C228 1.355 . S
C227 C229 1.415 . S
C228 C227 1.355 . S
C228 C230 1.419 . S
C229 C224 1.425 1_565 S
C229 C226 1.409 . S
C229 C227 1.415 . S
C230 H220 0.930 . S
C230 C228 1.419 . S
C230 C231 1.362 . S
C231 H221 0.930 1_565 S
C231 C224 1.409 1_565 S
C231 C230 1.362 . S
H232 C238 0.930 . S
H233 C241 0.930 . S
H234 C242 0.930 . S
H235 C243 0.930 . S
H236 C246 0.930 . S
H237 C247 0.930 . S
C238 H232 0.930 . S
C238 C239 1.355 . S
C238 C240 1.415 . S
C239 C238 1.355 . S
C239 C241 1.419 . S
C240 C238 1.415 . S
C240 C245 1.425 . S
C240 C247 1.409 . S
C241 H233 0.930 . S
C241 C239 1.419 . S
C241 C242 1.362 . S
C242 H234 0.930 . S
C242 C241 1.362 . S
C242 C245 1.409 . S
C243 H235 0.930 . S
C243 C244 1.355 . S
C243 C245 1.415 . S
C244 C243 1.355 . S
C244 C246 1.419 . S
C245 C240 1.425 . S
C245 C242 1.409 . S
C245 C243 1.415 . S
C246 H236 0.930 . S
C246 C244 1.419 . S
C246 C247 1.362 . S
C247 H237 0.930 . S
C247 C240 1.409 . S
C247 C246 1.362 . S
H248 C254 0.930 . S
H249 C257 0.930 . S
H250 C258 0.930 . S
H251 C259 0.930 . S
H252 C262 0.930 . S
H253 C263 0.930 . S
C254 H248 0.930 . S
C254 C255 1.355 . S
C254 C256 1.415 . S
C255 C254 1.355 . S
C255 C257 1.419 . S
C256 C254 1.415 . S
C256 C261 1.425 . S
C256 C263 1.409 . S
C257 H249 0.930 . S
C257 C255 1.419 . S
C257 C258 1.362 . S
C258 H250 0.930 . S
C258 C257 1.362 . S
C258 C261 1.409 . S
C259 H251 0.930 . S
C259 C260 1.355 . S
C259 C261 1.415 . S
C260 C259 1.355 . S
C260 C262 1.419 . S
C261 C256 1.425 . S
C261 C258 1.409 . S
C261 C259 1.415 . S
C262 H252 0.930 . S
C262 C260 1.419 . S
C262 C263 1.362 . S
C263 H253 0.930 . S
C263 C256 1.409 . S
C263 C262 1.362 . S
H264 C270 0.930 . S
H265 C273 0.930 . S
H266 C274 0.930 . S
H267 C275 0.930 . S
H268 C278 0.930 . S
H269 C279 0.930 . S
C270 H264 0.930 . S
C270 C271 1.355 . S
C270 C272 1.415 . S
C271 C270 1.355 . S
C271 C273 1.419 . S
C272 C270 1.415 . S
C272 C277 1.425 . S
C272 C279 1.409 . S
C273 H265 0.930 . S
C273 C271 1.419 . S
C273 C274 1.362 . S
C274 H266 0.930 . S
C274 C273 1.362 . S
C274 C277 1.409 . S
C275 H267 0.930 . S
C275 C276 1.355 . S
C275 C277 1.415 . S
C276 C275 1.355 . S
C276 C278 1.419 . S
C277 C272 1.425 . S
C277 C274 1.409 . S
C277 C275 1.415 . S
C278 H268 0.930 . S
C278 C276 1.419 . S
C278 C279 1.362 . S
C279 H269 0.930 . S
C279 C272 1.409 . S
C279 C278 1.362 . S
H280 C286 0.930 . S
H281 C289 0.930 1_554 S
H282 C290 0.930 . S
H283 C291 0.930 . S
H284 C294 0.930 . S
H285 C295 0.930 . S
C286 H280 0.930 . S
C286 C287 1.355 . S
C286 C288 1.415 . S
C287 C286 1.355 . S
C287 C289 1.419 . S
C288 C286 1.415 . S
C288 C293 1.450 . S
C288 C295 1.409 . S
C289 H281 0.930 1_556 S
C289 C287 1.419 . S
C289 C290 1.362 1_556 S
C290 H282 0.930 . S
C290 C289 1.362 1_554 S
C290 C293 1.398 1_554 S
C291 H283 0.930 . S
C291 C292 1.355 . S
C291 C293 1.402 1_554 S
C292 C291 1.355 . S
C292 C294 1.419 1_554 S
C293 C288 1.450 . S
C293 C290 1.398 1_556 S
C293 C291 1.402 1_556 S
C294 H284 0.930 . S
C294 C292 1.419 1_556 S
C294 C295 1.362 . S
C295 H285 0.930 . S
C295 C288 1.409 . S
C295 C294 1.362 . S
H296 C302 0.930 . S
H297 C305 0.930 . S
H298 C306 0.930 . S
H299 C307 0.930 . S
H300 C310 0.930 . S
H301 C311 0.930 . S
C302 H296 0.930 . S
C302 C303 1.355 . S
C302 C304 1.415 . S
C303 C302 1.355 . S
C303 C305 1.419 . S
C304 C302 1.415 . S
C304 C309 1.425 . S
C304 C311 1.409 . S
C305 H297 0.930 . S
C305 C303 1.419 . S
C305 C306 1.362 . S
C306 H298 0.930 . S
C306 C305 1.362 . S
C306 C309 1.409 . S
C307 H299 0.930 . S
C307 C308 1.355 . S
C307 C309 1.415 . S
C308 C307 1.355 . S
C308 C310 1.419 . S
C309 C304 1.425 . S
C309 C306 1.409 . S
C309 C307 1.415 . S
C310 H300 0.930 . S
C310 C308 1.419 . S
C310 C311 1.362 . S
C311 H301 0.930 . S
C311 C304 1.409 . S
C311 C310 1.362 . S
H312 C318 0.930 . S
H313 C321 0.930 . S
H314 C322 0.930 . S
H315 C323 0.930 . S
H316 C326 0.930 . S
H317 C327 0.930 . S
C318 H312 0.930 . S
C318 C319 1.355 . S
C318 C320 1.415 . S
C319 C318 1.355 . S
C319 C321 1.419 . S
C320 C318 1.415 . S
C320 C325 1.425 . S
C320 C327 1.409 . S
C321 H313 0.930 . S
C321 C319 1.419 . S
C321 C322 1.362 . S
C322 H314 0.930 . S
C322 C321 1.362 . S
C322 C325 1.409 . S
C323 H315 0.930 . S
C323 C324 1.355 . S
C323 C325 1.415 . S
C324 C323 1.355 . S
C324 C326 1.419 . S
C325 C320 1.425 . S
C325 C322 1.409 . S
C325 C323 1.415 . S
C326 H316 0.930 . S
C326 C324 1.419 . S
C326 C327 1.362 . S
C327 H317 0.930 . S
C327 C320 1.409 . S
C327 C326 1.362 . S
H328 C334 0.930 . S
H329 C337 0.930 . S
H330 C338 0.930 . S
H331 C339 0.930 . S
H332 C342 0.930 . S
H333 C343 0.930 . S
C334 H328 0.930 . S
C334 C335 1.355 . S
C334 C336 1.415 . S
C335 C334 1.355 . S
C335 C337 1.419 . S
C336 C334 1.415 . S
C336 C341 1.425 . S
C336 C343 1.409 1_545 S
C337 H329 0.930 . S
C337 C335 1.419 . S
C337 C338 1.362 . S
C338 H330 0.930 . S
C338 C337 1.362 . S
C338 C341 1.409 . S
C339 H331 0.930 . S
C339 C340 1.355 . S
C339 C341 1.415 1_565 S
C340 C339 1.355 . S
C340 C342 1.419 . S
C341 C336 1.425 . S
C341 C338 1.409 . S
C341 C339 1.415 1_545 S
C342 H332 0.930 . S
C342 C340 1.419 . S
C342 C343 1.362 . S
C343 H333 0.930 . S
C343 C336 1.409 1_565 S
C343 C342 1.362 . S
H344 C350 0.930 . S
H345 C353 0.930 . S
H346 C354 0.930 . S
H347 C355 0.930 . S
H348 C358 0.930 . S
H349 C359 0.930 . S
C350 H344 0.930 . S
C350 C351 1.355 . S
C350 C352 1.415 . S
C351 C350 1.355 . S
C351 C353 1.419 . S
C352 C350 1.415 . S
C352 C357 1.425 . S
C352 C359 1.409 . S
C353 H345 0.930 . S
C353 C351 1.419 . S
C353 C354 1.362 . S
C354 H346 0.930 . S
C354 C353 1.362 . S
C354 C357 1.409 . S
C355 H347 0.930 . S
C355 C356 1.355 . S
C355 C357 1.415 . S
C356 C355 1.355 . S
C356 C358 1.419 . S
C357 C352 1.425 . S
C357 C354 1.409 . S
C357 C355 1.415 . S
C358 H348 0.930 . S
C358 C356 1.419 . S
C358 C359 1.362 . S
C359 H349 0.930 . S
C359 C352 1.409 . S
C359 C358 1.362 . S
H360 C366 0.930 . S
H361 C369 0.930 . S
H362 C370 0.930 . S
H363 C371 0.930 . S
H364 C374 0.930 . S
H365 C375 0.930 . S
C366 H360 0.930 . S
C366 C367 1.355 . S
C366 C368 1.415 . S
C367 C366 1.355 . S
C367 C369 1.419 . S
C368 C366 1.415 . S
C368 C373 1.425 . S
C368 C375 1.409 . S
C369 H361 0.930 . S
C369 C367 1.419 . S
C369 C370 1.362 . S
C370 H362 0.930 . S
C370 C369 1.362 . S
C370 C373 1.409 . S
C371 H363 0.930 . S
C371 C372 1.355 . S
C371 C373 1.415 . S
C372 C371 1.355 . S
C372 C374 1.419 . S
C373 C368 1.425 . S
C373 C370 1.409 . S
C373 C371 1.415 . S
C374 H364 0.930 . S
C374 C372 1.419 . S
C374 C375 1.362 . S
C375 H365 0.930 . S
C375 C368 1.409 . S
C375 C374 1.362 . S
H376 C382 0.930 . S
H377 C385 0.930 . S
H378 C386 0.930 . S
H379 C387 0.930 . S
H380 C390 0.930 . S
H381 C391 0.930 . S
C382 H376 0.930 . S
C382 C383 1.355 . S
C382 C384 1.415 . S
C383 C382 1.355 . S
C383 C385 1.419 . S
C384 C382 1.415 . S
C384 C389 1.425 . S
C384 C391 1.409 . S
C385 H377 0.930 . S
C385 C383 1.419 . S
C385 C386 1.362 . S
C386 H378 0.930 . S
C386 C385 1.362 . S
C386 C389 1.409 . S
C387 H379 0.930 . S
C387 C388 1.355 . S
C387 C389 1.415 1_655 S
C388 C387 1.355 . S
C388 C390 1.419 . S
C389 C384 1.425 . S
C389 C386 1.409 . S
C389 C387 1.415 1_455 S
C390 H380 0.930 . S
C390 C388 1.419 . S
C390 C391 1.362 1_655 S
C391 H381 0.930 . S
C391 C384 1.409 . S
C391 C390 1.362 1_455 S
H392 C398 0.930 . S
H393 C401 0.930 . S
H394 C402 0.930 . S
H395 C403 0.930 . S
H396 C406 0.930 . S
H397 C407 0.930 . S
C398 H392 0.930 . S
C398 C399 1.355 . S
C398 C400 1.415 . S
C399 C398 1.355 . S
C399 C401 1.419 1_655 S
C400 C398 1.415 . S
C400 C405 1.425 . S
C400 C407 1.409 . S
C401 H393 0.930 . S
C401 C399 1.419 1_455 S
C401 C402 1.362 . S
C402 H394 0.930 . S
C402 C401 1.362 . S
C402 C405 1.409 1_455 S
C403 H395 0.930 . S
C403 C404 1.355 . S
C403 C405 1.415 . S
C404 C403 1.355 . S
C404 C406 1.419 . S
C405 C400 1.425 . S
C405 C402 1.409 1_655 S
C405 C403 1.415 . S
C406 H396 0.930 . S
C406 C404 1.419 . S
C406 C407 1.362 . S
C407 H397 0.930 . S
C407 C400 1.409 . S
C407 C406 1.362 . S
H408 C414 0.930 . S
H409 C417 0.930 . S
H410 C418 0.930 . S
H411 C419 0.930 . S
H412 C422 0.930 . S
H413 C423 0.930 . S
C414 H408 0.930 . S
C414 C415 1.355 . S
C414 C416 1.415 . S
C415 C414 1.355 . S
C415 C417 1.419 . S
C416 C414 1.415 . S
C416 C421 1.425 . S
C416 C423 1.409 . S
C417 H409 0.930 . S
C417 C415 1.419 . S
C417 C418 1.362 . S
C418 H410 0.930 . S
C418 C417 1.362 . S
C418 C421 1.409 . S
C419 H411 0.930 . S
C419 C420 1.355 . S
C419 C421 1.415 . S
C420 C419 1.355 . S
C420 C422 1.419 . S
C421 C416 1.425 . S
C421 C418 1.409 . S
C421 C419 1.415 . S
C422 H412 0.930 . S
C422 C420 1.419 . S
C422 C423 1.362 . S
C423 H413 0.930 . S
C423 C416 1.409 . S
C423 C422 1.362 . S
H424 C430 0.930 . S
H425 C433 0.930 . S
H426 C434 0.930 . S
H427 C435 0.930 . S
H428 C438 0.930 . S
H429 C439 0.930 . S
C430 H424 0.930 . S
C430 C431 1.355 . S
C430 C432 1.415 . S
C431 C430 1.355 . S
C431 C433 1.419 . S
C432 C430 1.415 . S
C432 C437 1.425 1_455 S
C432 C439 1.409 . S
C433 H425 0.930 . S
C433 C431 1.419 . S
C433 C434 1.362 1_455 S
C434 H426 0.930 . S
C434 C433 1.362 1_655 S
C434 C437 1.409 . S
C435 H427 0.930 . S
C435 C436 1.355 . S
C435 C437 1.415 . S
C436 C435 1.355 . S
C436 C438 1.419 . S
C437 C432 1.425 1_655 S
C437 C434 1.409 . S
C437 C435 1.415 . S
C438 H428 0.930 . S
C438 C436 1.419 . S
C438 C439 1.362 1_655 S
C439 H429 0.930 . S
C439 C432 1.409 . S
C439 C438 1.362 1_455 S
H440 C446 0.930 . S
H441 C449 0.930 . S
H442 C450 0.969 . S
H443 C451 0.930 1_554 S
H444 C454 0.930 . S
H445 C455 0.930 . S
C446 H440 0.930 . S
C446 C447 1.355 . S
C446 C448 1.415 . S
C447 C446 1.355 . S
C447 C449 1.419 . S
C448 C446 1.415 . S
C448 C453 1.425 . S
C448 C455 1.409 . S
C449 H441 0.930 . S
C449 C447 1.419 . S
C449 C450 1.362 . S
C450 H442 0.969 . S
C450 C449 1.362 . S
C450 C453 1.409 . S
C451 H443 0.930 1_556 S
C451 C452 1.355 . S
C451 C453 1.415 . S
C452 C451 1.355 . S
C452 C454 1.419 . S
C453 C448 1.425 . S
C453 C450 1.409 . S
C453 C451 1.415 . S
C454 H444 0.930 . S
C454 C452 1.419 . S
C454 C455 1.362 . S
C455 H445 0.930 . S
C455 C448 1.409 . S
C455 C454 1.362 . S
H456 C462 0.930 . S
H457 C465 0.930 . S
H458 C466 0.930 . S
H459 C467 0.930 . S
H460 C470 0.930 . S
H461 C471 0.930 . S
C462 H456 0.930 . S
C462 C463 1.355 . S
C462 C464 1.415 . S
C463 C462 1.355 . S
C463 C465 1.419 . S
C464 C462 1.415 . S
C464 C469 1.425 . S
C464 C471 1.409 . S
C465 H457 0.930 . S
C465 C463 1.419 . S
C465 C466 1.362 . S
C466 H458 0.930 . S
C466 C465 1.362 . S
C466 C469 1.409 . S
C467 H459 0.930 . S
C467 C468 1.355 . S
C467 C469 1.415 . S
C468 C467 1.355 . S
C468 C470 1.419 . S
C469 C464 1.425 . S
C469 C466 1.409 . S
C469 C467 1.415 . S
C470 H460 0.930 . S
C470 C468 1.419 . S
C470 C471 1.362 . S
C471 H461 0.930 . S
C471 C464 1.409 . S
C471 C470 1.362 . S
H472 C478 0.930 . S
H473 C481 0.930 . S
H474 C482 0.930 1_565 S
H475 C483 0.930 . S
H476 C486 0.930 . S
H477 C487 0.930 . S
C478 H472 0.930 . S
C478 C479 1.355 . S
C478 C480 1.415 . S
C479 C478 1.355 . S
C479 C481 1.419 . S
C480 C478 1.415 . S
C480 C485 1.425 . S
C480 C487 1.409 . S
C481 H473 0.930 . S
C481 C479 1.419 . S
C481 C482 1.362 . S
C482 H474 0.930 1_545 S
C482 C481 1.362 . S
C482 C485 1.409 . S
C483 H475 0.930 . S
C483 C484 1.355 . S
C483 C485 1.415 1_565 S
C484 C483 1.355 . S
C484 C486 1.419 1_565 S
C485 C480 1.425 . S
C485 C482 1.409 . S
C485 C483 1.415 1_545 S
C486 H476 0.930 . S
C486 C484 1.419 1_545 S
C486 C487 1.362 . S
C487 H477 0.930 . S
C487 C480 1.409 . S
C487 C486 1.362 . S
H488 C494 0.930 . S
H489 C497 0.930 . S
H490 C498 0.930 . S
H491 C499 0.930 . S
H492 C502 0.930 . S
H493 C503 0.930 . S
C494 H488 0.930 . S
C494 C495 1.355 . S
C494 C496 1.415 . S
C495 C494 1.355 . S
C495 C497 1.419 . S
C496 C494 1.415 . S
C496 C501 1.425 . S
C496 C503 1.409 . S
C497 H489 0.930 . S
C497 C495 1.419 . S
C497 C498 1.362 . S
C498 H490 0.930 . S
C498 C497 1.362 . S
C498 C501 1.409 . S
C499 H491 0.930 . S
C499 C500 1.355 . S
C499 C501 1.415 . S
C500 C499 1.355 . S
C500 C502 1.419 . S
C501 C496 1.425 . S
C501 C498 1.409 . S
C501 C499 1.415 . S
C502 H492 0.930 . S
C502 C500 1.419 . S
C502 C503 1.362 . S
C503 H493 0.930 . S
C503 C496 1.409 . S
C503 C502 1.362 . S
H504 C510 0.930 . S
H505 C513 0.930 . S
H506 C514 0.930 . S
H507 C515 0.930 . S
H508 C518 0.930 . S
H509 C519 0.930 . S
C510 H504 0.930 . S
C510 C511 1.355 . S
C510 C512 1.415 . S
C511 C510 1.355 . S
C511 C513 1.419 . S
C512 C510 1.415 . S
C512 C517 1.425 . S
C512 C519 1.409 . S
C513 H505 0.930 . S
C513 C511 1.419 . S
C513 C514 1.362 . S
C514 H506 0.930 . S
C514 C513 1.362 . S
C514 C517 1.409 . S
C515 H507 0.930 . S
C515 C516 1.355 . S
C515 C517 1.415 . S
C516 C515 1.355 . S
C516 C518 1.419 . S
C517 C512 1.425 . S
C517 C514 1.409 . S
C517 C515 1.415 . S
C518 H508 0.930 . S
C518 C516 1.419 . S
C518 C519 1.362 . S
C519 H509 0.930 . S
C519 C512 1.409 . S
C519 C518 1.362 . S
H520 C526 0.930 . S
H521 C529 0.930 . S
H522 C530 0.930 . S
H523 C531 0.930 . S
H524 C534 0.930 . S
H525 C535 0.930 . S
C526 H520 0.930 . S
C526 C527 1.355 . S
C526 C528 1.415 . S
C527 C526 1.355 . S
C527 C529 1.419 . S
C528 C526 1.415 . S
C528 C533 1.425 . S
C528 C535 1.409 . S
C529 H521 0.930 . S
C529 C527 1.419 . S
C529 C530 1.362 . S
C530 H522 0.930 . S
C530 C529 1.362 . S
C530 C533 1.409 . S
C531 H523 0.930 . S
C531 C532 1.355 . S
C531 C533 1.415 . S
C532 C531 1.355 . S
C532 C534 1.419 . S
C533 C528 1.425 . S
C533 C530 1.409 . S
C533 C531 1.415 . S
C534 H524 0.930 . S
C534 C532 1.419 . S
C534 C535 1.362 . S
C535 H525 0.930 . S
C535 C528 1.409 . S
C535 C534 1.362 . S
H536 C542 0.930 . S
H537 C545 0.930 . S
H538 C546 0.930 . S
H539 C547 0.930 . S
H540 C550 0.930 . S
H541 C551 0.930 . S
C542 H536 0.930 . S
C542 C543 1.355 . S
C542 C544 1.415 . S
C543 C542 1.355 . S
C543 C545 1.419 . S
C544 C542 1.415 . S
C544 C549 1.425 . S
C544 C551 1.409 . S
C545 H537 0.930 . S
C545 C543 1.419 . S
C545 C546 1.362 . S
C546 H538 0.930 . S
C546 C545 1.362 . S
C546 C549 1.409 . S
C547 H539 0.930 . S
C547 C548 1.355 . S
C547 C549 1.415 . S
C548 C547 1.355 . S
C548 C550 1.419 . S
C549 C544 1.425 . S
C549 C546 1.409 . S
C549 C547 1.415 . S
C550 H540 0.930 . S
C550 C548 1.419 . S
C550 C551 1.362 . S
C551 H541 0.930 . S
C551 C544 1.409 . S
C551 C550 1.362 . S
H552 C558 0.930 . S
H553 C561 0.930 . S
H554 C562 0.930 . S
H555 C563 0.930 . S
H556 C566 0.930 . S
H557 C567 0.930 . S
C558 H552 0.930 . S
C558 C559 1.355 . S
C558 C560 1.415 . S
C559 C558 1.355 . S
C559 C561 1.419 . S
C560 C558 1.415 . S
C560 C565 1.425 . S
C560 C567 1.409 . S
C561 H553 0.930 . S
C561 C559 1.419 . S
C561 C562 1.362 . S
C562 H554 0.930 . S
C562 C561 1.362 . S
C562 C565 1.409 . S
C563 H555 0.930 . S
C563 C564 1.355 . S
C563 C565 1.415 . S
C564 C563 1.355 . S
C564 C566 1.419 . S
C565 C560 1.425 . S
C565 C562 1.409 . S
C565 C563 1.415 . S
C566 H556 0.930 . S
C566 C564 1.419 . S
C566 C567 1.362 . S
C567 H557 0.930 . S
C567 C560 1.409 . S
C567 C566 1.362 . S
H568 C574 0.930 . S
H569 C577 0.930 . S
H570 C578 0.930 . S
H571 C579 0.930 . S
H572 C582 0.930 . S
H573 C583 0.930 . S
C574 H568 0.930 . S
C574 C575 1.355 . S
C574 C576 1.415 . S
C575 C574 1.355 . S
C575 C577 1.419 . S
C576 C574 1.415 . S
C576 C581 1.425 . S
C576 C583 1.409 . S
C577 H569 0.930 . S
C577 C575 1.419 . S
C577 C578 1.362 . S
C578 H570 0.930 . S
C578 C577 1.362 . S
C578 C581 1.409 . S
C579 H571 0.930 . S
C579 C580 1.355 . S
C579 C581 1.415 . S
C580 C579 1.355 . S
C580 C582 1.419 . S
C581 C576 1.425 . S
C581 C578 1.409 . S
C581 C579 1.415 . S
C582 H572 0.930 . S
C582 C580 1.419 . S
C582 C583 1.362 . S
C583 H573 0.930 . S
C583 C576 1.409 . S
C583 C582 1.362 . S
H584 C590 0.930 . S
H585 C593 0.930 . S
H586 C594 0.930 . S
H587 C595 0.930 . S
H588 C598 0.930 . S
H589 C599 0.930 1_565 S
C590 H584 0.930 . S
C590 C591 1.355 . S
C590 C592 1.415 . S
C591 C590 1.355 . S
C591 C593 1.419 . S
C592 C590 1.415 . S
C592 C597 1.425 . S
C592 C599 1.409 . S
C593 H585 0.930 . S
C593 C591 1.419 . S
C593 C594 1.362 . S
C594 H586 0.930 . S
C594 C593 1.362 . S
C594 C597 1.409 . S
C595 H587 0.930 . S
C595 C596 1.355 . S
C595 C597 1.415 . S
C596 C595 1.355 . S
C596 C598 1.419 1_545 S
C597 C592 1.425 . S
C597 C594 1.409 . S
C597 C595 1.415 . S
C598 H588 0.930 . S
C598 C596 1.419 1_565 S
C598 C599 1.362 1_565 S
C599 H589 0.930 1_545 S
C599 C592 1.409 . S
C599 C598 1.362 1_545 S
H600 C606 0.930 . S
H601 C609 0.930 . S
H602 C610 0.930 . S
H603 C611 0.930 . S
H604 C614 0.930 . S
H605 C615 0.930 . S
C606 H600 0.930 . S
C606 C607 1.355 . S
C606 C608 1.415 . S
C607 C606 1.355 . S
C607 C609 1.419 . S
C608 C606 1.415 . S
C608 C613 1.425 . S
C608 C615 1.409 . S
C609 H601 0.930 . S
C609 C607 1.419 . S
C609 C610 1.362 . S
C610 H602 0.930 . S
C610 C609 1.362 . S
C610 C613 1.409 . S
C611 H603 0.930 . S
C611 C612 1.355 . S
C611 C613 1.415 . S
C612 C611 1.355 . S
C612 C614 1.419 . S
C613 C608 1.425 . S
C613 C610 1.409 . S
C613 C611 1.415 . S
C614 H604 0.930 . S
C614 C612 1.419 . S
C614 C615 1.362 . S
C615 H605 0.930 . S
C615 C608 1.409 . S
C615 C614 1.362 . S
H616 C622 0.930 . S
H617 C625 0.930 . S
H618 C626 0.930 . S
H619 C627 0.930 . S
H620 C630 0.930 . S
H621 C631 0.930 . S
C622 H616 0.930 . S
C622 C623 1.355 . S
C622 C624 1.415 . S
C623 C622 1.355 . S
C623 C625 1.419 . S
C624 C622 1.415 . S
C624 C629 1.425 . S
C624 C631 1.409 . S
C625 H617 0.930 . S
C625 C623 1.419 . S
C625 C626 1.362 . S
C626 H618 0.930 . S
C626 C625 1.362 . S
C626 C629 1.409 . S
C627 H619 0.930 . S
C627 C628 1.355 . S
C627 C629 1.415 . S
C628 C627 1.355 . S
C628 C630 1.419 . S
C629 C624 1.425 . S
C629 C626 1.409 . S
C629 C627 1.415 . S
C630 H620 0.930 . S
C630 C628 1.419 . S
C630 C631 1.362 . S
C631 H621 0.930 . S
C631 C624 1.409 . S
C631 C630 1.362 . S
H632 C638 0.930 . S
H633 C641 0.930 . S
H634 C642 0.930 . S
H635 C643 0.930 . S
H636 C646 0.930 1_655 S
H637 C647 0.930 . S
C638 H632 0.930 . S
C638 C639 1.355 . S
C638 C640 1.415 . S
C639 C638 1.355 . S
C639 C641 1.419 . S
C640 C638 1.415 . S
C640 C645 1.425 . S
C640 C647 1.409 . S
C641 H633 0.930 . S
C641 C639 1.419 . S
C641 C642 1.362 . S
C642 H634 0.930 . S
C642 C641 1.362 . S
C642 C645 1.409 . S
C643 H635 0.930 . S
C643 C644 1.355 . S
C643 C645 1.415 . S
C644 C643 1.355 . S
C644 C646 1.419 . S
C645 C640 1.425 . S
C645 C642 1.409 . S
C645 C643 1.415 . S
C646 H636 0.930 1_455 S
C646 C644 1.419 . S
C646 C647 1.362 . S
C647 H637 0.930 . S
C647 C640 1.409 . S
C647 C646 1.362 . S
H648 C654 0.930 1_455 S
H649 C657 0.930 . S
H650 C658 0.930 . S
H651 C659 0.930 . S
H652 C662 0.930 . S
H653 C663 0.930 . S
C654 H648 0.930 1_655 S
C654 C655 1.355 . S
C654 C656 1.415 . S
C655 C654 1.355 . S
C655 C657 1.419 . S
C656 C654 1.415 . S
C656 C661 1.425 . S
C656 C663 1.409 . S
C657 H649 0.930 . S
C657 C655 1.419 . S
C657 C658 1.362 . S
C658 H650 0.930 . S
C658 C657 1.362 . S
C658 C661 1.409 . S
C659 H651 0.930 . S
C659 C660 1.355 . S
C659 C661 1.415 . S
C660 C659 1.355 . S
C660 C662 1.419 . S
C661 C656 1.425 . S
C661 C658 1.409 . S
C661 C659 1.415 . S
C662 H652 0.930 . S
C662 C660 1.419 . S
C662 C663 1.362 . S
C663 H653 0.930 . S
C663 C656 1.409 . S
C663 C662 1.362 . S
H664 C670 0.930 . S
H665 C673 0.930 . S
H666 C674 0.930 . S
H667 C675 0.930 . S
H668 C678 0.930 . S
H669 C679 0.930 . S
C670 H664 0.930 . S
C670 C671 1.355 . S
C670 C672 1.415 . S
C671 C670 1.355 . S
C671 C673 1.419 . S
C672 C670 1.415 . S
C672 C677 1.425 . S
C672 C679 1.409 . S
C673 H665 0.930 . S
C673 C671 1.419 . S
C673 C674 1.362 . S
C674 H666 0.930 . S
C674 C673 1.362 . S
C674 C677 1.409 . S
C675 H667 0.930 . S
C675 C676 1.355 . S
C675 C677 1.415 . S
C676 C675 1.355 . S
C676 C678 1.419 . S
C677 C672 1.425 . S
C677 C674 1.409 . S
C677 C675 1.415 . S
C678 H668 0.930 . S
C678 C676 1.419 . S
C678 C679 1.362 . S
C679 H669 0.930 . S
C679 C672 1.409 . S
C679 C678 1.362 . S
H680 C686 0.930 . S
H681 C689 0.930 . S
H682 C690 0.930 . S
H683 C691 0.930 . S
H684 C694 0.930 . S
H685 C695 0.935 . S
C686 H680 0.930 . S
C686 C687 1.355 . S
C686 C688 1.415 . S
C687 C686 1.355 . S
C687 C689 1.419 . S
C688 C686 1.415 . S
C688 C693 1.425 . S
C688 C695 1.409 . S
C689 H681 0.930 . S
C689 C687 1.419 . S
C689 C690 1.362 . S
C690 H682 0.930 . S
C690 C689 1.362 . S
C690 C693 1.409 . S
C691 H683 0.930 . S
C691 C692 1.355 . S
C691 C693 1.415 . S
C692 C691 1.355 . S
C692 C694 1.419 1_455 S
C693 C688 1.425 . S
C693 C690 1.409 . S
C693 C691 1.415 . S
C694 H684 0.930 . S
C694 C692 1.419 1_655 S
C694 C695 1.362 1_655 S
C695 H685 0.935 . S
C695 C688 1.409 . S
C695 C694 1.362 1_455 S
H696 C702 0.930 . S
H697 C705 0.930 1_455 S
H698 C706 0.930 1_455 S
H699 C707 0.930 . S
H700 C710 0.930 . S
H701 C711 0.930 . S
C702 H696 0.930 . S
C702 C703 1.355 . S
C702 C704 1.415 . S
C703 C702 1.355 . S
C703 C705 1.419 . S
C704 C702 1.415 . S
C704 C709 1.425 . S
C704 C711 1.409 . S
C705 H697 0.930 1_655 S
C705 C703 1.419 . S
C705 C706 1.362 . S
C706 H698 0.930 1_655 S
C706 C705 1.362 . S
C706 C709 1.409 . S
C707 H699 0.930 . S
C707 C708 1.355 . S
C707 C709 1.415 . S
C708 C707 1.355 . S
C708 C710 1.419 . S
C709 C704 1.425 . S
C709 C706 1.409 . S
C709 C707 1.415 . S
C710 H700 0.930 . S
C710 C708 1.419 . S
C710 C711 1.362 . S
C711 H701 0.930 . S
C711 C704 1.409 . S
C711 C710 1.362 . S
H712 C718 0.930 . S
H713 C721 0.930 . S
H714 C722 0.930 . S
H715 C723 0.930 . S
H716 C726 0.930 . S
H717 C727 0.930 . S
C718 H712 0.930 . S
C718 C719 1.355 . S
C718 C720 1.415 . S
C719 C718 1.355 . S
C719 C721 1.419 . S
C720 C718 1.415 . S
C720 C725 1.425 . S
C720 C727 1.409 . S
C721 H713 0.930 . S
C721 C719 1.419 . S
C721 C722 1.362 . S
C722 H714 0.930 . S
C722 C721 1.362 . S
C722 C725 1.409 . S
C723 H715 0.930 . S
C723 C724 1.355 . S
C723 C725 1.415 . S
C724 C723 1.355 . S
C724 C726 1.419 . S
C725 C720 1.425 . S
C725 C722 1.409 . S
C725 C723 1.415 . S
C726 H716 0.930 . S
C726 C724 1.419 . S
C726 C727 1.362 . S
C727 H717 0.930 . S
C727 C720 1.409 . S
C727 C726 1.362 . S
C228 C125 1.486 . S
C223 C5 1.429 . S
C244 C145 1.555 . S
C239 C18 1.535 . S
C260 C159 1.556 . S
C255 C31 1.494 . S
C271 C42 1.578 . S
C276 C117 1.566 . S
C287 C57 1.386 . S
C292 C111 1.353 . S
C303 C70 1.361 . S
C308 C131 1.341 . S
C324 C139 1.249 . S
C319 C81 1.275 . S
C340 C153 1.321 . S
C335 C96 1.327 . S
C351 C29 1.231 . S
C356 C181 1.337 . S
C372 C195 1.255 . S
C367 C44 1.297 . S
C383 C3 1.318 . S
C388 C215 1.354 . S
C404 C167 1.359 . S
C399 C16 1.307 1_655 S
C415 C83 1.516 . S
C420 C173 1.567 . S
C431 C94 1.579 . S
C436 C187 1.553 . S
C452 C201 1.577 1_556 S
C447 C55 1.592 . S
C463 C68 1.534 . S
C468 C209 1.498 . S
C484 C140 1.729 . S
C479 C1 1.650 . S
C500 C154 1.727 . S
C495 C14 1.593 . S
C511 C27 1.580 . S
C516 C112 1.672 . S
C527 C49 1.500 . S
C532 C129 1.530 . S
C543 C53 1.199 . S
C548 C157 1.217 . S
C564 C115 1.188 . S
C559 C66 1.176 . S
C580 C126 1.322 . S
C575 C88 1.324 . S
C596 C143 1.255 1_545 S
C591 C92 1.255 . S
C612 C199 1.255 . S
C607 C36 1.273 . S
C628 C210 1.309 . S
C623 C40 1.286 . S
C639 C10 1.206 . S
C644 C171 1.188 . S
C660 C185 1.217 . S
C655 C23 1.243 . S
C676 C213 1.532 . S
C671 C79 1.440 . S
C687 C101 1.624 . S
C692 C168 1.649 1_455 S
C708 C182 1.719 . S
C703 C62 1.672 . S
C724 C196 1.730 . S
C719 C75 1.712 . S
