# Generated by pormake.
# Topology csq, (4,8)-cn, num edge types: 1
# Building blocks:
#     Node 0, Type 0, BuildingBlock: MUDLON_clean_sbu_0, # of connection points: 4
#     Node 1, Type 0, BuildingBlock: MUDLON_clean_sbu_0, # of connection points: 4
#     Node 2, Type 0, BuildingBlock: MUDLON_clean_sbu_0, # of connection points: 4
#     Node 3, Type 0, BuildingBlock: MUDLON_clean_sbu_0, # of connection points: 4
#     Node 4, Type 0, BuildingBlock: MUDLON_clean_sbu_0, # of connection points: 4
#     Node 5, Type 0, BuildingBlock: MUDLON_clean_sbu_0, # of connection points: 4
#     Node 6, Type 1, BuildingBlock: TAGTUT_clean_sbu_3, # of connection points: 8
#     Node 7, Type 1, BuildingBlock: TAGTUT_clean_sbu_3, # of connection points: 8
#     Node 8, Type 1, BuildingBlock: TAGTUT_clean_sbu_3, # of connection points: 8
#     Edge 9, Type (0, 1), BuildingBlock: TEMPAE_clean_linker_10, # of connection points: 2
#     Edge 10, Type (0, 1), BuildingBlock: TEMPAE_clean_linker_10, # of connection points: 2
#     Edge 11, Type (0, 1), BuildingBlock: TEMPAE_clean_linker_10, # of connection points: 2
#     Edge 12, Type (0, 1), BuildingBlock: TEMPAE_clean_linker_10, # of connection points: 2
#     Edge 13, Type (0, 1), BuildingBlock: TEMPAE_clean_linker_10, # of connection points: 2
#     Edge 14, Type (0, 1), BuildingBlock: TEMPAE_clean_linker_10, # of connection points: 2
#     Edge 15, Type (0, 1), BuildingBlock: TEMPAE_clean_linker_10, # of connection points: 2
#     Edge 16, Type (0, 1), BuildingBlock: TEMPAE_clean_linker_10, # of connection points: 2
#     Edge 17, Type (0, 1), BuildingBlock: TEMPAE_clean_linker_10, # of connection points: 2
#     Edge 18, Type (0, 1), BuildingBlock: TEMPAE_clean_linker_10, # of connection points: 2
#     Edge 19, Type (0, 1), BuildingBlock: TEMPAE_clean_linker_10, # of connection points: 2
#     Edge 20, Type (0, 1), BuildingBlock: TEMPAE_clean_linker_10, # of connection points: 2
#     Edge 21, Type (0, 1), BuildingBlock: TEMPAE_clean_linker_10, # of connection points: 2
#     Edge 22, Type (0, 1), BuildingBlock: TEMPAE_clean_linker_10, # of connection points: 2
#     Edge 23, Type (0, 1), BuildingBlock: TEMPAE_clean_linker_10, # of connection points: 2
#     Edge 24, Type (0, 1), BuildingBlock: TEMPAE_clean_linker_10, # of connection points: 2
#     Edge 25, Type (0, 1), BuildingBlock: TEMPAE_clean_linker_10, # of connection points: 2
#     Edge 26, Type (0, 1), BuildingBlock: TEMPAE_clean_linker_10, # of connection points: 2
#     Edge 27, Type (0, 1), BuildingBlock: TEMPAE_clean_linker_10, # of connection points: 2
#     Edge 28, Type (0, 1), BuildingBlock: TEMPAE_clean_linker_10, # of connection points: 2
#     Edge 29, Type (0, 1), BuildingBlock: TEMPAE_clean_linker_10, # of connection points: 2
#     Edge 30, Type (0, 1), BuildingBlock: TEMPAE_clean_linker_10, # of connection points: 2
#     Edge 31, Type (0, 1), BuildingBlock: TEMPAE_clean_linker_10, # of connection points: 2
#     Edge 32, Type (0, 1), BuildingBlock: TEMPAE_clean_linker_10, # of connection points: 2
# Relax obj value: 0.067
# Max RMSD: 0.128
# Mean RMSD: 0.104
data_MOF--net-csq--node1-MUDLON_clean_sbu_0--node2-TAGTUT_clean_sbu_3--edge1-TEMPAE_clean_linker_10
_symmetry_space_group_name_H-M    P1
_symmetry_Int_Tables_number       1
_symmetry_cell_setting            triclinic
loop_
_symmetry_equiv_pos_as_xyz
'x, y, z'
_cell_length_a     50.630166
_cell_length_b     50.187661
_cell_length_c     20.233551
_cell_angle_alpha  92.406296
_cell_angle_beta   92.836919
_cell_angle_gamma 119.95487
loop_
_atom_site_label
_atom_site_type_symbol
_atom_site_fract_x
_atom_site_fract_y
_atom_site_fract_z
_atom_type_partial_charge
Mg0 Mg 0.24502 0.47055 0.16814 0.0
C1 C 0.21378 0.43734 0.03345 0.0
O2 O 0.24169 0.45447 0.01579 0.0
C3 C 0.27645 0.47028 0.29268 0.0
O4 O 0.27908 0.49771 0.29603 0.0
C5 C 0.20153 0.49408 0.19384 0.0
O6 O 0.18998 0.4797 0.13482 0.0
O7 O 0.2264 0.4964 0.21782 0.0
O8 O 0.20925 0.4375 0.09474 0.0
O9 O 0.28837 0.49627 0.12271 0.0
C10 C 0.30196 0.48068 0.12103 0.0
O11 O 0.2877 0.45237 0.1393 0.0
O12 O 0.25901 0.45061 0.24594 0.0
Mg13 Mg 0.75939 0.2392 0.11152 0.0
C14 C 0.78936 0.27708 1.00106 0.0
O15 O 0.76487 0.27959 0.00549 0.0
C16 C 0.75262 0.1923 0.20568 0.0
O17 O 0.76883 0.21773 0.24443 0.0
C18 C 0.79239 0.30032 0.19918 0.0
O19 O 0.79447 0.31271 0.14238 0.0
O20 O 0.77673 0.27117 0.2003 0.0
O21 O 0.79335 0.25967 0.03937 0.0
O22 O 0.7156 0.22725 0.06049 0.0
C23 C 0.69145 0.2041 0.0775 0.0
O24 O 0.69249 0.19323 0.13493 0.0
O25 O 0.74962 0.19448 0.1437 0.0
Mg26 Mg 0.53421 0.76258 0.07018 0.0
C27 C 0.56483 0.81298 0.19103 0.0
O28 O 0.58886 0.82302 0.15649 0.0
C29 C 0.55 0.7433 0.93421 0.0
O30 O 0.57457 0.77059 0.94617 0.0
C31 C 0.56115 0.82436 0.98981 0.0
O32 O 0.58832 0.82881 0.00901 0.0
O33 O 0.53741 0.80125 0.00835 0.0
O34 O 0.53947 0.79009 0.16746 0.0
O35 O 0.52678 0.72249 0.1311 0.0
C36 C 0.54257 0.70923 0.13067 0.0
O37 O 0.56548 0.71883 0.09277 0.0
O38 O 0.52939 0.73405 0.97496 0.0
Mg39 Mg 0.80897 0.55864 0.0968 0.0
C40 C 0.7681 0.54652 0.96519 0.0
O41 O 0.79294 0.55644 0.93333 0.0
C42 C 0.86849 0.62131 0.10472 0.0
O43 O 0.88543 0.65022 0.09144 0.0
C44 C 0.75957 0.52965 0.1867 0.0
O45 O 0.74817 0.51095 0.13253 0.0
O46 O 0.78765 0.55055 0.19097 0.0
O47 O 0.76976 0.54548 0.02767 0.0
O48 O 0.83455 0.5363 0.06693 0.0
C49 C 0.82442 0.5162 0.01781 0.0
O50 O 0.79587 0.50458 0.99411 0.0
O51 O 0.8398 0.60754 0.08908 0.0
Mg52 Mg 0.23334 0.78542 0.12294 0.0
C53 C 0.22037 0.74017 0.9994 0.0
O54 O 0.24919 0.74752 0.00767 0.0
C55 C 0.30146 0.80982 0.14201 0.0
O56 O 0.30113 0.8238 0.08875 0.0
C57 C 0.21396 0.77061 0.26262 0.0
O58 O 0.24377 0.78432 0.27508 0.0
O59 O 0.20315 0.77031 0.20413 0.0
O60 O 0.20948 0.7512 0.04046 0.0
O61 O 0.24599 0.82937 0.08174 0.0
C62 C 0.2342 0.82903 0.02441 0.0
O63 O 0.20998 0.80339 0.99935 0.0
O64 O 0.27612 0.78972 0.1618 0.0
Mg65 Mg 0.44941 0.22438 0.16388 0.0
C66 C 0.45155 0.25926 0.27642 0.0
O67 O 0.47865 0.2625 0.2694 0.0
C68 C 0.41405 0.16621 0.07601 0.0
O69 O 0.41274 0.15385 0.13259 0.0
C70 C 0.49241 0.26449 0.06441 0.0
O71 O 0.48732 0.23778 0.0384 0.0
O72 O 0.48356 0.2658 0.12162 0.0
O73 O 0.42963 0.24174 0.23371 0.0
O74 O 0.46165 0.19743 0.22605 0.0
C75 C 0.48667 0.20211 0.2545 0.0
O76 O 0.51252 0.22678 0.24378 0.0
O77 O 0.42261 0.19472 0.07719 0.0
C78 C 0.05538 0.48629 0.519 0.0
C79 C 0.05478 0.44445 0.75224 0.0
C80 C 0.96286 0.42943 0.75109 0.0
Mg81 Mg 0.02174 0.52232 0.46386 0.0
Mg82 Mg 0.00461 0.56369 0.5655 0.0
O83 O 1.00009 0.52492 0.5427 0.0
Mg84 Mg 0.01448 0.50526 0.60843 0.0
O85 O 0.02899 0.4837 0.66754 0.0
Mg86 Mg 0.00764 0.44096 0.62262 0.0
Mg87 Mg 0.0261 0.48663 0.75853 0.0
C88 C 0.9731 0.52785 0.69219 0.0
O89 O 0.0504 0.55123 0.66727 0.0
O90 O 0.99244 0.53851 0.40264 0.0
O91 O 0.04739 0.53621 0.77162 0.0
O92 O 0.06034 0.57341 0.48047 0.0
O93 O 0.98095 0.56551 0.47605 0.0
O94 O 0.05171 0.59929 0.56057 0.0
O95 O 0.97951 0.45757 0.55669 0.0
O96 O 0.98373 0.47164 0.45223 0.0
C97 C 0.97181 0.4511 0.49408 0.0
C98 C 0.97957 0.55438 0.4169 0.0
O99 O 0.98041 0.50701 0.67988 0.0
O100 O 0.03983 0.4314 0.69565 0.0
O101 O 0.98208 0.55161 0.65817 0.0
O102 O 0.96976 0.42121 0.69689 0.0
O103 O 0.05264 0.46595 0.78328 0.0
O104 O 0.98048 0.45576 0.78167 0.0
O105 O 0.04771 0.50644 0.53401 0.0
O106 O 0.04444 0.46111 0.54804 0.0
C107 C 0.06859 0.59818 0.51695 0.0
C108 C 0.05725 0.55727 0.73039 0.0
C109 C 0.48468 0.0333 0.50009 0.0
C110 C 0.5844 0.03023 0.43942 0.0
C111 C 0.54104 0.94344 0.52226 0.0
Mg112 Mg 0.44 0.00024 0.6196 0.0
Mg113 Mg 0.47011 0.99164 0.75881 0.0
O114 O 0.46338 0.98302 0.66676 0.0
Mg115 Mg 0.49955 0.99762 0.6134 0.0
O116 O 0.53398 0.0118 0.55444 0.0
Mg117 Mg 0.51046 0.98635 0.47034 0.0
Mg118 Mg 0.56866 0.00908 0.5828 0.0
C119 C 0.5143 0.96461 0.73615 0.0
O120 O 0.53355 0.03634 0.69076 0.0
O121 O 0.39987 0.97028 0.68633 0.0
O122 O 0.57739 0.03556 0.67899 0.0
O123 O 0.45499 0.04043 0.69753 0.0
O124 O 0.42304 0.96336 0.77695 0.0
O125 O 0.48189 0.03852 0.78551 0.0
O126 O 0.46887 0.95993 0.53175 0.0
O127 O 0.42546 0.96054 0.54108 0.0
C128 C 0.44081 0.95011 0.51242 0.0
C129 C 0.39897 0.95879 0.74265 0.0
O130 O 0.51339 0.96708 0.67297 0.0
O131 O 0.55574 0.01624 0.41977 0.0
O132 O 0.50192 0.97506 0.77578 0.0
O133 O 0.52496 0.9509 0.48551 0.0
O134 O 0.59425 0.03054 0.4993 0.0
O135 O 0.5587 0.96152 0.57126 0.0
O136 O 0.48378 0.02802 0.56176 0.0
O137 O 0.4951 0.02137 0.4592 0.0
C138 C 0.46989 0.05184 0.75389 0.0
C139 C 0.56166 0.04537 0.70928 0.0
C140 C 0.54267 0.56472 0.71438 0.0
C141 C 0.45864 0.48063 0.85309 0.0
C142 C 0.49453 0.42323 0.7782 0.0
Mg143 Mg 0.57082 0.55542 0.57979 0.0
Mg144 Mg 0.52938 0.49651 0.47071 0.0
O145 O 0.5439 0.50963 0.55929 0.0
Mg146 Mg 0.51635 0.49829 0.63319 0.0
O147 O 0.492 0.48956 0.71225 0.0
Mg148 Mg 0.52512 0.50097 0.78542 0.0
Mg149 Mg 0.45789 0.44998 0.71462 0.0
C150 C 0.48769 0.4343 0.54032 0.0
O151 O 0.47306 0.49019 0.56985 0.0
O152 O 0.60275 0.55273 0.50201 0.0
O153 O 0.43636 0.44979 0.6185 0.0
O154 O 0.54575 0.56726 0.49794 0.0
O155 O 0.57347 0.50838 0.43813 0.0
O156 O 0.51461 0.52622 0.42956 0.0
O157 O 0.55618 0.50365 0.70284 0.0
O158 O 0.59502 0.5439 0.6616 0.0
C159 C 0.58467 0.52356 0.70392 0.0
C160 C 0.59942 0.53234 0.45635 0.0
O161 O 0.49703 0.44675 0.60003 0.0
O162 O 0.48813 0.49652 0.85738 0.0
O163 O 0.49577 0.44971 0.48865 0.0
O164 O 0.51331 0.45108 0.79976 0.0
O165 O 0.44309 0.46159 0.80311 0.0
O166 O 0.4716 0.41661 0.73764 0.0
O167 O 0.53582 0.55032 0.65673 0.0
O168 O 0.53876 0.55051 0.76739 0.0
C169 C 0.52611 0.55472 0.44786 0.0
C170 C 0.44506 0.46841 0.57195 0.0
C171 C 0.19299 0.51345 0.30274 0.0
C172 C 0.1828 0.5018 0.23646 0.0
C173 C 0.17328 0.51555 0.3466 0.0
C174 C 0.14261 0.50554 0.32385 0.0
C175 C 0.13294 0.49602 0.2559 0.0
C176 C 0.15313 0.49432 0.21302 0.0
C177 C 0.18474 0.52678 0.41823 0.0
C178 C 0.10065 0.48586 0.22933 0.0
C179 C 0.08338 0.46815 0.44851 0.0
C180 C 0.07697 0.49148 0.46714 0.0
C181 C 0.10446 0.47253 0.40177 0.0
C182 C 0.1197 0.50099 0.3724 0.0
C183 C 0.11298 0.52451 0.38983 0.0
C184 C 0.09182 0.51954 0.43728 0.0
C185 C 0.11055 0.44663 0.38414 0.0
C186 C 0.12861 0.55528 0.36016 0.0
H187 H 0.21597 0.51967 0.32124 0.0
H188 H 0.14508 0.48565 0.16175 0.0
H189 H 0.17882 0.54444 0.43436 0.0
H190 H 0.17339 0.50726 0.45004 0.0
H191 H 0.20989 0.53684 0.42658 0.0
H192 H 0.09758 0.48213 0.17432 0.0
H193 H 0.08452 0.46398 0.25035 0.0
H194 H 0.09441 0.50334 0.24484 0.0
H195 H 0.07204 0.44631 0.47086 0.0
H196 H 0.08722 0.5378 0.45142 0.0
H197 H 0.13503 0.45436 0.39671 0.0
H198 H 0.10572 0.44022 0.32994 0.0
H199 H 0.09642 0.42574 0.41062 0.0
H200 H 0.15018 0.57097 0.39085 0.0
H201 H 0.11403 0.56603 0.3597 0.0
H202 H 0.13441 0.55329 0.30872 0.0
C203 C 0.71174 0.13628 0.19528 0.0
C204 C 0.73107 0.16348 0.23529 0.0
C205 C 0.68768 0.11071 0.22185 0.0
C206 C 0.6824 0.11276 0.28949 0.0
C207 C 0.70259 0.13971 0.33053 0.0
C208 C 0.72689 0.16447 0.3032 0.0
C209 C 0.66726 0.08206 0.17686 0.0
C210 C 0.69759 0.14311 0.40272 0.0
C211 C 0.60344 0.06767 0.35205 0.0
C212 C 0.60726 0.04769 0.39246 0.0
C213 C 0.62728 0.08807 0.31533 0.0
C214 C 0.65512 0.08766 0.31762 0.0
C215 C 0.658 0.06568 0.35419 0.0
C216 C 0.63426 0.04639 0.39231 0.0
C217 C 0.62345 0.11151 0.27797 0.0
C218 C 0.68673 0.06356 0.35563 0.0
H219 H 0.71479 0.13527 0.14276 0.0
H220 H 0.74161 0.18534 0.33464 0.0
H221 H 0.66201 0.06099 0.20229 0.0
H222 H 0.64528 0.08112 0.16356 0.0
H223 H 0.67783 0.08174 0.13021 0.0
H224 H 0.71541 0.16557 0.42787 0.0
H225 H 0.67492 0.14119 0.40667 0.0
H226 H 0.69756 0.12433 0.42974 0.0
H227 H 0.58256 0.06871 0.35245 0.0
H228 H 0.63702 0.0306 0.42302 0.0
H229 H 0.62919 0.11096 0.22595 0.0
H230 H 0.63948 0.13501 0.30135 0.0
H231 H 0.5998 0.10753 0.27763 0.0
H232 H 0.69416 0.06405 0.30477 0.0
H233 H 0.68347 0.04223 0.37723 0.0
H234 H 0.70548 0.08372 0.38588 0.0
C235 C 0.55521 0.67178 0.18109 0.0
C236 C 0.53562 0.68388 0.17436 0.0
C237 C 0.54975 0.64896 0.22502 0.0
C238 C 0.52397 0.63778 0.26286 0.0
C239 C 0.50355 0.64915 0.25471 0.0
C240 C 0.50969 0.67215 0.2108 0.0
C241 C 0.5721 0.63743 0.23234 0.0
C242 C 0.47565 0.63757 0.29357 0.0
C243 C 0.50421 0.56343 0.34228 0.0
C244 C 0.52016 0.57482 0.40515 0.0
C245 C 0.50371 0.5835 0.29643 0.0
C246 C 0.51967 0.61568 0.31382 0.0
C247 C 0.53389 0.62704 0.37877 0.0
C248 C 0.53386 0.60649 0.42366 0.0
C249 C 0.4877 0.57038 0.22812 0.0
C250 C 0.55086 0.66115 0.39965 0.0
H251 H 0.57522 0.6806 0.15305 0.0
H252 H 0.49426 0.68116 0.20558 0.0
H253 H 0.58301 0.64327 0.28381 0.0
H254 H 0.55988 0.61195 0.22336 0.0
H255 H 0.59034 0.64757 0.19749 0.0
H256 H 0.46076 0.64692 0.27766 0.0
H257 H 0.46203 0.61201 0.28776 0.0
H258 H 0.48282 0.64433 0.34718 0.0
H259 H 0.49333 0.539 0.32755 0.0
H260 H 0.54592 0.61554 0.47235 0.0
H261 H 0.50499 0.57579 0.19156 0.0
H262 H 0.47389 0.58096 0.21276 0.0
H263 H 0.47249 0.54494 0.2258 0.0
H264 H 0.57152 0.67296 0.37175 0.0
H265 H 0.55813 0.66596 0.4536 0.0
H266 H 0.53636 0.67138 0.38768 0.0
C267 C 0.91272 0.61301 0.12664 0.0
C268 C 0.88288 0.60567 0.13858 0.0
C269 C 0.92807 0.60117 0.16417 0.0
C270 C 0.91325 0.58178 0.21516 0.0
C271 C 0.88253 0.57299 0.22483 0.0
C272 C 0.86789 0.58537 0.18696 0.0
C273 C 0.96076 0.61104 0.15209 0.0
C274 C 0.86574 0.55211 0.27811 0.0
C275 C 0.94982 0.54153 0.3055 0.0
C276 C 0.96329 0.56124 0.36346 0.0
C277 C 0.93334 0.54775 0.25641 0.0
C278 C 0.93112 0.57472 0.2649 0.0
C279 C 0.94536 0.595 0.32261 0.0
C280 C 0.96097 0.58787 0.37129 0.0
C281 C 0.91818 0.52542 0.19588 0.0
C282 C 0.94389 0.62421 0.3334 0.0
H283 H 0.92438 0.62872 0.08914 0.0
H284 H 0.8453 0.58048 0.19781 0.0
H285 H 0.96747 0.62243 0.10499 0.0
H286 H 0.97622 0.62748 0.19363 0.0
H287 H 0.9643 0.59093 0.15049 0.0
H288 H 0.84084 0.54392 0.27281 0.0
H289 H 0.86893 0.53178 0.27668 0.0
H290 H 0.87521 0.56477 0.3276 0.0
H291 H 0.95153 0.5209 0.29927 0.0
H292 H 0.97166 0.60341 0.41557 0.0
H293 H 0.93001 0.53636 0.15162 0.0
H294 H 0.89399 0.51953 0.18697 0.0
H295 H 0.91885 0.50379 0.20054 0.0
H296 H 0.95291 0.63869 0.29103 0.0
H297 H 0.95718 0.63807 0.37982 0.0
H298 H 0.91977 0.61839 0.3359 0.0
C299 C 0.32781 0.81324 0.25256 0.0
C300 C 0.32938 0.82348 0.18858 0.0
C301 C 0.35063 0.8312 0.30336 0.0
C302 C 0.37564 0.85992 0.28967 0.0
C303 C 0.37933 0.86832 0.22344 0.0
C304 C 0.35606 0.85004 0.17356 0.0
C305 C 0.34634 0.82095 0.37301 0.0
C306 C 0.40634 0.89816 0.20646 0.0
C307 C 0.39872 0.92459 0.42259 0.0
C308 C 0.42562 0.92773 0.45372 0.0
C309 C 0.38273 0.90293 0.36886 0.0
C310 C 0.39368 0.88356 0.34541 0.0
C311 C 0.42091 0.8866 0.37619 0.0
C312 C 0.43684 0.90899 0.42961 0.0
C313 C 0.35375 0.90052 0.33781 0.0
C314 C 0.43343 0.86651 0.35279 0.0
H315 H 0.30762 0.79239 0.26447 0.0
H316 H 0.35785 0.85783 0.12395 0.0
H317 H 0.36819 0.82477 0.39742 0.0
H318 H 0.33901 0.83486 0.40274 0.0
H319 H 0.32873 0.7962 0.37377 0.0
H320 H 0.40859 0.89891 0.15213 0.0
H321 H 0.40352 0.91776 0.2241 0.0
H322 H 0.42782 0.90142 0.23178 0.0
H323 H 0.38998 0.93916 0.44028 0.0
H324 H 0.45764 0.91131 0.45331 0.0
H325 H 0.33411 0.877 0.34175 0.0
H326 H 0.35585 0.9044 0.28428 0.0
H327 H 0.34849 0.91747 0.36176 0.0
H328 H 0.41498 0.84301 0.33445 0.0
H329 H 0.44785 0.86444 0.3931 0.0
H330 H 0.44777 0.87712 0.31119 0.0
C331 C 0.47396 0.30747 0.34815 0.0
C332 C 0.44856 0.27853 0.32892 0.0
C333 C 0.4726 0.32717 0.39677 0.0
C334 C 0.4453 0.31728 0.42895 0.0
C335 C 0.41988 0.28736 0.41197 0.0
C336 C 0.42161 0.26847 0.36088 0.0
C337 C 0.50018 0.35914 0.41136 0.0
C338 C 0.39067 0.27516 0.44615 0.0
C339 C 0.4714 0.37984 0.56373 0.0
C340 C 0.46712 0.40082 0.52787 0.0
C341 C 0.45907 0.34924 0.53709 0.0
C342 C 0.44317 0.34037 0.47317 0.0
C343 C 0.43421 0.35993 0.44351 0.0
C344 C 0.44631 0.39004 0.47151 0.0
C345 C 0.46639 0.32774 0.57307 0.0
C346 C 0.41591 0.35089 0.37704 0.0
H347 H 0.49482 0.31525 0.32337 0.0
H348 H 0.40209 0.24579 0.34672 0.0
H349 H 0.49367 0.3769 0.4032 0.0
H350 H 0.50914 0.36233 0.46394 0.0
H351 H 0.51902 0.36342 0.37968 0.0
H352 H 0.38194 0.25068 0.45621 0.0
H353 H 0.39358 0.28859 0.49363 0.0
H354 H 0.37295 0.27572 0.41268 0.0
H355 H 0.48664 0.38789 0.60873 0.0
H356 H 0.44186 0.40606 0.44556 0.0
H357 H 0.48755 0.32944 0.55545 0.0
H358 H 0.4476 0.30346 0.56307 0.0
H359 H 0.47028 0.3339 0.62748 0.0
H360 H 0.43023 0.35043 0.33767 0.0
H361 H 0.40802 0.36727 0.36457 0.0
H362 H 0.39566 0.32748 0.3767 0.0
C363 C 0.52865 0.84046 0.9255 0.0
C364 C 0.55785 0.84553 0.94543 0.0
C365 C 0.52488 0.86051 0.88499 0.0
C366 C 0.55093 0.88636 0.8636 0.0
C367 C 0.58045 0.89114 0.88171 0.0
C368 C 0.58357 0.8707 0.92257 0.0
C369 C 0.49298 0.85457 0.86702 0.0
C370 C 0.60874 0.91835 0.85961 0.0
C371 C 0.532 0.92586 0.72773 0.0
C372 C 0.52866 0.94788 0.76569 0.0
C373 C 0.54116 0.90675 0.75834 0.0
C374 C 0.54704 0.90981 0.82833 0.0
C375 C 0.54577 0.93347 0.86605 0.0
C376 C 0.53664 0.95216 0.83432 0.0
C377 C 0.54271 0.88211 0.7162 0.0
C378 C 0.55212 0.93782 0.94065 0.0
H379 H 0.50859 0.82098 0.9424 0.0
H380 H 0.60622 0.87469 0.93719 0.0
H381 H 0.49036 0.87351 0.89 0.0
H382 H 0.48903 0.85422 0.81249 0.0
H383 H 0.47505 0.83239 0.88395 0.0
H384 H 0.62966 0.91698 0.87166 0.0
H385 H 0.60621 0.91984 0.80532 0.0
H386 H 0.61188 0.94 0.88436 0.0
H387 H 0.52599 0.92247 0.67467 0.0
H388 H 0.53472 0.96954 0.86394 0.0
H389 H 0.52269 0.85929 0.72346 0.0
H390 H 0.56358 0.88118 0.73131 0.0
H391 H 0.54259 0.88601 0.66255 0.0
H392 H 0.53383 0.91777 0.96336 0.0
H393 H 0.55309 0.95911 0.96181 0.0
H394 H 0.5741 0.93896 0.9551 0.0
C395 C 0.71344 0.53272 0.96655 0.0
C396 C 0.73827 0.53791 0.93003 0.0
C397 C 0.68564 0.5269 0.93481 0.0
C398 C 0.68246 0.52592 0.86481 0.0
C399 C 0.70688 0.52957 0.82749 0.0
C400 C 0.73461 0.53574 0.8606 0.0
C401 C 0.66033 0.52353 0.97643 0.0
C402 C 0.70414 0.52821 0.75261 0.0
C403 C 0.60482 0.49582 0.77046 0.0
C404 C 0.60674 0.52351 0.75385 0.0
C405 C 0.62903 0.49607 0.80816 0.0
C406 C 0.65514 0.52467 0.83089 0.0
C407 C 0.65607 0.5526 0.81791 0.0
C408 C 0.63201 0.55166 0.77884 0.0
C409 C 0.62742 0.46587 0.82056 0.0
C410 C 0.68309 0.58357 0.84275 0.0
H411 H 0.71599 0.53422 0.02032 0.0
H412 H 0.75355 0.53937 0.8321 0.0
H413 H 0.65754 0.54401 0.9729 0.0
H414 H 0.63825 0.50301 0.9577 0.0
H415 H 0.66512 0.52143 0.02956 0.0
H416 H 0.7238 0.52809 0.73082 0.0
H417 H 0.68271 0.50728 0.73231 0.0
H418 H 0.70305 0.54851 0.73641 0.0
H419 H 0.58528 0.47407 0.75069 0.0
H420 H 0.63328 0.57306 0.76637 0.0
H421 H 0.63127 0.46449 0.87443 0.0
H422 H 0.64582 0.46448 0.79582 0.0
H423 H 0.60506 0.44567 0.80166 0.0
H424 H 0.68836 0.58418 0.89686 0.0
H425 H 0.67899 0.60291 0.83325 0.0
H426 H 0.70359 0.58737 0.81779 0.0
C427 C 0.17507 0.72132 0.91812 0.0
C428 C 0.19998 0.71881 0.94334 0.0
C429 C 0.15302 0.69905 0.87099 0.0
C430 C 0.15552 0.67323 0.85005 0.0
C431 C 0.18179 0.67173 0.87181 0.0
C432 C 0.20394 0.6948 0.91783 0.0
C433 C 0.12589 0.70202 0.84755 0.0
C434 C 0.18521 0.64446 0.8509 0.0
C435 C 0.08264 0.59598 0.82676 0.0
C436 C 0.07953 0.58906 0.75793 0.0
C437 C 0.10683 0.62363 0.85668 0.0
C438 C 0.12835 0.64535 0.81678 0.0
C439 C 0.12427 0.63957 0.74677 0.0
C440 C 0.09991 0.61131 0.71805 0.0
C441 C 0.11007 0.62889 0.93151 0.0
C442 C 0.14627 0.66253 0.70245 0.0
H443 H 0.1723 0.74029 0.93672 0.0
H444 H 0.22331 0.69296 0.93695 0.0
H445 H 0.12002 0.6955 0.79353 0.0
H446 H 0.1057 0.68611 0.87351 0.0
H447 H 0.13022 0.72585 0.85784 0.0
H448 H 0.20849 0.64856 0.8652 0.0
H449 H 0.16836 0.62388 0.87483 0.0
H450 H 0.18039 0.63906 0.79644 0.0
H451 H 0.06671 0.57918 0.85795 0.0
H452 H 0.09768 0.60616 0.66483 0.0
H453 H 0.11068 0.65073 0.9464 0.0
H454 H 0.13194 0.63107 0.95144 0.0
H455 H 0.09106 0.60984 0.95513 0.0
H456 H 0.15174 0.68629 0.71842 0.0
H457 H 0.13699 0.6572 0.64964 0.0
H458 H 0.16799 0.66213 0.70608 0.0
C459 C 0.40643 0.11916 0.01105 0.0
C460 C 0.41687 0.15086 0.01489 0.0
C461 C 0.41518 0.10557 0.96115 0.0
C462 C 0.43582 0.12438 0.91576 0.0
C463 C 0.44507 0.15606 0.91713 0.0
C464 C 0.43474 0.16871 0.96554 0.0
C465 C 0.40351 0.07133 0.95906 0.0
C466 C 0.46761 0.17707 0.87075 0.0
C467 C 0.48207 0.08981 0.85132 0.0
C468 C 0.46665 0.07646 0.78888 0.0
C469 C 0.47374 0.10757 0.89122 0.0
C470 C 0.44865 0.11098 0.86914 0.0
C471 C 0.43417 0.09907 0.80473 0.0
C472 C 0.44377 0.08252 0.76489 0.0
C473 C 0.49064 0.12119 0.95857 0.0
C474 C 0.40677 0.10135 0.77993 0.0
H475 H 0.39233 0.10518 0.04854 0.0
H476 H 0.44246 0.19311 0.9673 0.0
H477 H 0.39487 0.06065 0.90772 0.0
H478 H 0.42248 0.06732 0.97453 0.0
H479 H 0.38487 0.05948 0.99237 0.0
H480 H 0.4707 0.20062 0.87488 0.0
H481 H 0.49014 0.17893 0.88262 0.0
H482 H 0.46015 0.16741 0.81852 0.0
H483 H 0.49967 0.08521 0.87032 0.0
H484 H 0.43156 0.07228 0.71679 0.0
H485 H 0.47563 0.10869 0.9979 0.0
H486 H 0.49685 0.14573 0.96602 0.0
H487 H 0.51179 0.11973 0.96499 0.0
H488 H 0.38683 0.08587 0.80709 0.0
H489 H 0.40069 0.09453 0.72597 0.0
H490 H 0.41092 0.12509 0.78954 0.0
C491 C 0.34146 0.50986 0.0421 0.0
C492 C 0.33273 0.49259 0.09763 0.0
C493 C 0.36731 0.51421 0.01037 0.0
C494 C 0.38467 0.50116 0.03536 0.0
C495 C 0.37785 0.48694 0.09594 0.0
C496 C 0.35179 0.48258 0.12598 0.0
C497 C 0.37415 0.53 0.94649 0.0
C498 C 0.39609 0.47338 0.12547 0.0
C499 C 0.4099 0.4639 0.90572 0.0
C500 C 0.44119 0.48529 0.90479 0.0
C501 C 0.39161 0.46893 0.9482 0.0
C502 C 0.40481 0.49606 0.99161 0.0
C503 C 0.4366 0.51736 0.9929 0.0
C504 C 0.45447 0.51176 0.94924 0.0
C505 C 0.3579 0.44526 0.94572 0.0
C506 C 0.45155 0.54643 0.03881 0.0
H507 H 0.3268 0.51774 0.0204 0.0
H508 H 0.34534 0.46973 0.16986 0.0
H509 H 0.39913 0.54558 0.94482 0.0
H510 H 0.36628 0.51235 0.904 0.0
H511 H 0.36242 0.54353 0.94007 0.0
H512 H 0.39172 0.46865 0.17819 0.0
H513 H 0.38962 0.45132 0.09695 0.0
H514 H 0.42095 0.48908 0.12244 0.0
H515 H 0.39941 0.44321 0.87217 0.0
H516 H 0.47858 0.52852 0.94862 0.0
H517 H 0.34409 0.4561 0.93233 0.0
H518 H 0.35184 0.43637 0.99529 0.0
H519 H 0.35127 0.4254 0.90912 0.0
H520 H 0.44472 0.5628 0.02041 0.0
H521 H 0.47691 0.5579 0.04179 0.0
H522 H 0.44387 0.54142 0.08953 0.0
C523 C 0.80924 0.31805 0.92079 0.0
C524 C 0.81305 0.29678 0.95706 0.0
C525 C 0.83235 0.33883 0.88327 0.0
C526 C 0.85994 0.33824 0.88146 0.0
C527 C 0.86359 0.31616 0.9161 0.0
C528 C 0.84012 0.29573 0.95365 0.0
C529 C 0.82764 0.36212 0.84736 0.0
C530 C 0.89267 0.31477 0.91517 0.0
C531 C 0.91335 0.37908 0.74757 0.0
C532 C 0.93532 0.40685 0.78251 0.0
C533 C 0.88856 0.35656 0.77892 0.0
C534 C 0.88568 0.36195 0.84675 0.0
C535 C 0.9075 0.39011 0.88191 0.0
C536 C 0.9321 0.41208 0.84952 0.0
C537 C 0.86572 0.32682 0.73978 0.0
C538 C 0.90503 0.39699 0.95402 0.0
H539 H 0.7884 0.31906 0.92295 0.0
H540 H 0.84326 0.27936 0.98136 0.0
H541 H 0.84441 0.38577 0.86878 0.0
H542 H 0.83169 0.36091 0.79423 0.0
H543 H 0.80424 0.35847 0.85075 0.0
H544 H 0.89116 0.29502 0.94102 0.0
H545 H 0.89798 0.31282 0.86325 0.0
H546 H 0.91206 0.33642 0.93965 0.0
H547 H 0.91569 0.37476 0.69585 0.0
H548 H 0.94914 0.43324 0.87725 0.0
H549 H 0.84233 0.32332 0.74129 0.0
H550 H 0.86568 0.30706 0.76252 0.0
H551 H 0.87083 0.32644 0.68709 0.0
H552 H 0.88298 0.39618 0.95988 0.0
H553 H 0.92392 0.42 0.97422 0.0
H554 H 0.90533 0.37919 0.98425 0.0
C555 C 0.83641 0.49652 0.91462 0.0
C556 C 0.84611 0.51172 0.97844 0.0
C557 C 0.85745 0.49691 0.87148 0.0
C558 C 0.88899 0.51254 0.89276 0.0
C559 C 0.8987 0.52598 0.95874 0.0
C560 C 0.87719 0.52561 1.00073 0.0
C561 C 0.84609 0.48165 0.80207 0.0
C562 C 0.93193 0.54137 0.98428 0.0
C563 C 0.94016 0.49788 0.78222 0.0
C564 C 0.95273 0.52423 0.74613 0.0
C565 C 0.91985 0.49387 0.83104 0.0
C566 C 0.91182 0.51677 0.84422 0.0
C567 C 0.92452 0.54345 0.80821 0.0
C568 C 0.94487 0.54693 0.76016 0.0
C569 C 0.90723 0.46488 0.86752 0.0
C570 C 0.91591 0.56803 0.81908 0.0
H571 H 0.81246 0.48551 0.89697 0.0
H572 H 0.88489 0.53707 0.05026 0.0
H573 H 0.85648 0.49914 0.76531 0.0
H574 H 0.85323 0.46428 0.79298 0.0
H575 H 0.8208 0.47004 0.79338 0.0
H576 H 0.93588 0.55093 0.03662 0.0
H577 H 0.93988 0.5244 0.98054 0.0
H578 H 0.94613 0.5604 0.95332 0.0
H579 H 0.9457 0.48001 0.77173 0.0
H580 H 0.95425 0.56739 0.73276 0.0
H581 H 0.88784 0.46089 0.89686 0.0
H582 H 0.92577 0.46635 0.90185 0.0
H583 H 0.8995 0.44454 0.83165 0.0
H584 H 0.89084 0.55777 0.80862 0.0
H585 H 0.92773 0.58737 0.78696 0.0
H586 H 0.92168 0.57749 0.87165 0.0
C587 C 0.27934 0.88021 0.00446 0.0
C588 C 0.25225 0.85348 0.97985 0.0
C589 C 0.30008 0.89994 0.96116 0.0
C590 C 0.29381 0.89251 0.89169 0.0
C591 C 0.26537 0.86699 0.86657 0.0
C592 C 0.24483 0.84795 0.91093 0.0
C593 C 0.32982 0.92735 0.99004 0.0
C594 C 0.25779 0.85807 0.793 0.0
C595 C 0.34835 0.94982 0.77651 0.0
C596 C 0.36952 0.93975 0.77119 0.0
C597 C 0.32309 0.93441 0.81461 0.0
C598 C 0.3188 0.90811 0.84674 0.0
C599 C 0.33935 0.89705 0.83829 0.0
C600 C 0.3646 0.91322 0.80136 0.0
C601 C 0.30201 0.9472 0.82331 0.0
C602 C 0.33534 0.86871 0.87028 0.0
H603 H 0.28515 0.88487 0.05757 0.0
H604 H 0.2239 0.82746 0.89122 0.0
H605 H 0.34864 0.92227 0.98531 0.0
H606 H 0.33539 0.94794 0.9625 0.0
H607 H 0.32908 0.93295 0.04339 0.0
H608 H 0.23319 0.84085 0.78098 0.0
H609 H 0.26371 0.8786 0.765 0.0
H610 H 0.27153 0.84793 0.7755 0.0
H611 H 0.35247 0.97066 0.75404 0.0
H612 H 0.38102 0.90547 0.7972 0.0
H613 H 0.30539 0.95712 0.87517 0.0
H614 H 0.27776 0.92861 0.81456 0.0
H615 H 0.30632 0.96552 0.7893 0.0
H616 H 0.33829 0.87314 0.92508 0.0
H617 H 0.35205 0.86193 0.85487 0.0
H618 H 0.3119 0.84901 0.8572 0.0
C619 C 0.50808 0.28845 0.95615 0.0
C620 C 0.50035 0.29031 0.02125 0.0
C621 C 0.51032 0.30996 0.91102 0.0
C622 C 0.50421 0.33359 0.93113 0.0
C623 C 0.49774 0.33637 0.99758 0.0
C624 C 0.49619 0.31492 0.04188 0.0
C625 C 0.51797 0.3066 0.84113 0.0
C626 C 0.49098 0.36115 0.02115 0.0
C627 C 0.52637 0.40551 0.83968 0.0
C628 C 0.49826 0.39842 0.80683 0.0
C629 C 0.52913 0.38396 0.87717 0.0
C630 C 0.50309 0.35467 0.88255 0.0
C631 C 0.47511 0.34674 0.84632 0.0
C632 C 0.4731 0.36864 0.80847 0.0
C633 C 0.55954 0.39304 0.91356 0.0
C634 C 0.44674 0.31584 0.85099 0.0
H635 H 0.5114 0.26957 0.93966 0.0
H636 H 0.49016 0.31661 0.09193 0.0
H637 H 0.49752 0.29916 0.80618 0.0
H638 H 0.53623 0.32909 0.82639 0.0
H639 H 0.52557 0.2894 0.83552 0.0
H640 H 0.4873 0.36079 0.07485 0.0
H641 H 0.5101 0.38425 0.01203 0.0
H642 H 0.47017 0.35797 0.99271 0.0
H643 H 0.54608 0.42835 0.83793 0.0
H644 H 0.45132 0.36297 0.78332 0.0
H645 H 0.56652 0.3759 0.90016 0.0
H646 H 0.5575 0.39314 0.96789 0.0
H647 H 0.57786 0.41623 0.90225 0.0
H648 H 0.45162 0.2969 0.84087 0.0
H649 H 0.42752 0.31226 0.81574 0.0
H650 H 0.43937 0.31417 0.90215 0.0
C651 C 0.15743 0.41151 1.0017 0.0
C652 C 0.18741 0.42448 0.98253 0.0
C653 C 0.13327 0.40684 0.95647 0.0
C654 C 0.13927 0.41546 0.89072 0.0
C655 C 0.16865 0.42492 0.86916 0.0
C656 C 0.19239 0.42931 0.91534 0.0
C657 C 0.10216 0.39609 0.98133 0.0
C658 C 0.176 0.43391 0.79932 0.0
C659 C 0.07422 0.40736 0.77087 0.0
C660 C 0.07678 0.43631 0.78313 0.0
C661 C 0.09454 0.4 0.80479 0.0
C662 C 0.11791 0.42223 0.85134 0.0
C663 C 0.12098 0.45171 0.86211 0.0
C664 C 0.10049 0.45829 0.82811 0.0
C665 C 0.09046 0.36828 0.79229 0.0
C666 C 0.14572 0.4764 0.91053 0.0
H667 H 0.15316 0.40712 0.0532 0.0
H668 H 0.21533 0.43875 0.89959 0.0
H669 H 0.0992 0.41631 0.99141 0.0
H670 H 0.08375 0.38011 0.94347 0.0
H671 H 0.09942 0.38434 0.02795 0.0
H672 H 0.19725 0.43429 0.78635 0.0
H673 H 0.15693 0.41784 0.76281 0.0
H674 H 0.17932 0.45734 0.79482 0.0
H675 H 0.05594 0.39026 0.73629 0.0
H676 H 0.10306 0.48095 0.83719 0.0
H677 H 0.08111 0.3549 0.836 0.0
H678 H 0.11275 0.36974 0.78558 0.0
H679 H 0.07451 0.35542 0.74789 0.0
H680 H 0.14283 0.46834 0.96131 0.0
H681 H 0.14538 0.49838 0.9118 0.0
H682 H 0.16857 0.48117 0.89703 0.0
C683 C 0.64155 0.15631 0.04214 0.0
C684 C 0.66608 0.18455 0.02637 0.0
C685 C 0.62117 0.13428 0.99212 0.0
C686 C 0.62546 0.14058 0.92472 0.0
C687 C 0.64866 0.16997 0.90876 0.0
C688 C 0.66862 0.19163 0.95976 0.0
C689 C 0.59635 0.10347 0.01129 0.0
C690 C 0.65378 0.17777 0.83755 0.0
C691 C 0.60451 0.07362 0.79803 0.0
C692 C 0.577 0.06877 0.76649 0.0
C693 C 0.62013 0.09658 0.85013 0.0
C694 C 0.60818 0.11546 0.87103 0.0
C695 C 0.58035 0.11065 0.83969 0.0
C696 C 0.56492 0.08716 0.78826 0.0
C697 C 0.64975 0.10092 0.8822 0.0
C698 C 0.56696 0.1304 0.86017 0.0
H699 H 0.63918 0.15066 0.09345 0.0
H700 H 0.68733 0.21343 0.94694 0.0
H701 H 0.5741 0.09722 0.98466 0.0
H702 H 0.60182 0.08533 0.9966 0.0
H703 H 0.59385 0.1034 0.06554 0.0
H704 H 0.67039 0.20259 0.83361 0.0
H705 H 0.66269 0.16393 0.81333 0.0
H706 H 0.6319 0.17182 0.80955 0.0
H707 H 0.61395 0.05946 0.78192 0.0
H708 H 0.54376 0.08373 0.76403 0.0
H709 H 0.6481 0.09849 0.93633 0.0
H710 H 0.6687 0.12452 0.87574 0.0
H711 H 0.6557 0.08401 0.86091 0.0
H712 H 0.55801 0.1244 0.90959 0.0
H713 H 0.54804 0.12708 0.8243 0.0
H714 H 0.58473 0.15519 0.86475 0.0
C715 C 0.52462 0.69104 0.87403 0.0
C716 C 0.54833 0.72185 0.87948 0.0
C717 C 0.52551 0.66907 0.83061 0.0
C718 C 0.5506 0.6782 0.79126 0.0
C719 C 0.57301 0.70977 0.79167 0.0
C720 C 0.57174 0.73127 0.83622 0.0
C721 C 0.50094 0.63563 0.8314 0.0
C722 C 0.59957 0.72056 0.74895 0.0
C723 C 0.56938 0.61474 0.78096 0.0
C724 C 0.55216 0.59768 0.72248 0.0
C725 C 0.57146 0.64276 0.80083 0.0
C726 C 0.55604 0.65407 0.7609 0.0
C727 C 0.54173 0.63882 0.69787 0.0
C728 C 0.53987 0.61056 0.67928 0.0
C729 C 0.58743 0.65843 0.86799 0.0
C730 C 0.52598 0.65072 0.65277 0.0
H731 H 0.50619 0.68363 0.90647 0.0
H732 H 0.58988 0.75518 0.83917 0.0
H733 H 0.49218 0.62509 0.78006 0.0
H734 H 0.51078 0.62264 0.85524 0.0
H735 H 0.48141 0.6328 0.8591 0.0
H736 H 0.61035 0.74564 0.7425 0.0
H737 H 0.61716 0.71626 0.77284 0.0
H738 H 0.59221 0.7077 0.69934 0.0
H739 H 0.57944 0.60504 0.81372 0.0
H740 H 0.52675 0.59751 0.63367 0.0
H741 H 0.57016 0.65581 0.90282 0.0
H742 H 0.60297 0.68346 0.8644 0.0
H743 H 0.60095 0.6485 0.88945 0.0
H744 H 0.50257 0.64266 0.66797 0.0
H745 H 0.52398 0.64201 0.60029 0.0
H746 H 0.53839 0.67631 0.65605 0.0
C747 C 0.51181 0.17828 0.32028 0.0
C748 C 0.48569 0.17996 0.30181 0.0
C749 C 0.51006 0.15556 0.36118 0.0
C750 C 0.48161 0.13441 0.38478 0.0
C751 C 0.45562 0.13721 0.36939 0.0
C752 C 0.45791 0.15976 0.32773 0.0
C753 C 0.53826 0.15315 0.37619 0.0
C754 C 0.425 0.11542 0.39418 0.0
C755 C 0.4704 0.05509 0.40662 0.0
C756 C 0.47775 0.05654 0.47491 0.0
C757 C 0.47063 0.07993 0.37732 0.0
C758 C 0.47814 0.10692 0.41737 0.0
C759 C 0.4834 0.10775 0.48714 0.0
C760 C 0.48317 0.08244 0.51527 0.0
C761 C 0.46449 0.07783 0.30285 0.0
C762 C 0.49088 0.13593 0.53154 0.0
H763 H 0.53334 0.19393 0.30075 0.0
H764 H 0.43769 0.16125 0.3147 0.0
H765 H 0.54186 0.1519 0.43024 0.0
H766 H 0.53512 0.1316 0.3508 0.0
H767 H 0.55914 0.17298 0.35954 0.0
H768 H 0.40821 0.12327 0.38555 0.0
H769 H 0.41557 0.09219 0.36818 0.0
H770 H 0.42755 0.11301 0.44802 0.0
H771 H 0.46584 0.03493 0.37533 0.0
H772 H 0.48897 0.0837 0.56805 0.0
H773 H 0.48534 0.09522 0.28091 0.0
H774 H 0.44605 0.08303 0.29019 0.0
H775 H 0.4577 0.05467 0.2793 0.0
H776 H 0.51423 0.15479 0.52377 0.0
H777 H 0.49003 0.13134 0.58487 0.0
H778 H 0.47479 0.14425 0.51896 0.0
C779 C 0.31214 0.48287 0.39323 0.0
C780 C 0.29883 0.46557 0.33252 0.0
C781 C 0.33637 0.48203 0.42786 0.0
C782 C 0.34806 0.46398 0.40032 0.0
C783 C 0.33464 0.44634 0.33908 0.0
C784 C 0.30986 0.447 0.30632 0.0
C785 C 0.34964 0.5007 0.4937 0.0
C786 C 0.34686 0.42732 0.30751 0.0
C787 C 0.42785 0.48645 0.47301 0.0
C788 C 0.42109 0.46531 0.52168 0.0
C789 C 0.4044 0.48537 0.43056 0.0
C790 C 0.37354 0.46281 0.43743 0.0
C791 C 0.36678 0.44055 0.48413 0.0
C792 C 0.39057 0.44196 0.52529 0.0
C793 C 0.41255 0.50912 0.38026 0.0
C794 C 0.33421 0.41616 0.49318 0.0
H795 H 0.30376 0.49736 0.41339 0.0
H796 H 0.29999 0.43398 0.25881 0.0
H797 H 0.34814 0.48534 0.53302 0.0
H798 H 0.37421 0.51777 0.49101 0.0
H799 H 0.33767 0.5132 0.50861 0.0
H800 H 0.33444 0.41565 0.25874 0.0
H801 H 0.37147 0.44226 0.30022 0.0
H802 H 0.34501 0.40956 0.3408 0.0
H803 H 0.45132 0.5044 0.46932 0.0
H804 H 0.38498 0.42522 0.56203 0.0
H805 H 0.40403 0.52492 0.39438 0.0
H806 H 0.40134 0.49775 0.33055 0.0
H807 H 0.43763 0.52308 0.3766 0.0
H808 H 0.32163 0.42731 0.51236 0.0
H809 H 0.33296 0.39923 0.52837 0.0
H810 H 0.32224 0.40351 0.4449 0.0
C811 C 0.82717 0.35149 0.26116 0.0
C812 C 0.81321 0.31927 0.2578 0.0
C813 C 0.85075 0.37001 0.31029 0.0
C814 C 0.86111 0.35601 0.35632 0.0
C815 C 0.84596 0.32346 0.35548 0.0
C816 C 0.82199 0.30547 0.30662 0.0
C817 C 0.86574 0.40465 0.31047 0.0
C818 C 0.85645 0.30759 0.40303 0.0
C819 C 0.94549 0.40777 0.40743 0.0
C820 C 0.94496 0.42141 0.46876 0.0
C821 C 0.91841 0.38464 0.37278 0.0
C822 C 0.89 0.37554 0.3993 0.0
C823 C 0.88954 0.38774 0.46345 0.0
C824 C 0.91717 0.41041 0.49783 0.0
C825 C 0.92013 0.3716 0.30553 0.0
C826 C 0.85981 0.37891 0.4934 0.0
H827 H 0.82034 0.3623 0.22399 0.0
H828 H 0.81142 0.28058 0.30436 0.0
H829 H 0.868 0.41501 0.36145 0.0
H830 H 0.88912 0.41424 0.29374 0.0
H831 H 0.85267 0.41181 0.27718 0.0
H832 H 0.83974 0.28251 0.4024 0.0
H833 H 0.87862 0.31052 0.38903 0.0
H834 H 0.86023 0.31811 0.45443 0.0
H835 H 0.96701 0.41636 0.38496 0.0
H836 H 0.91671 0.4213 0.54487 0.0
H837 H 0.91111 0.38042 0.26625 0.0
H838 H 0.9058 0.34608 0.3013 0.0
H839 H 0.94394 0.37805 0.29596 0.0
H840 H 0.84872 0.3905 0.46841 0.0
H841 H 0.86341 0.38592 0.54739 0.0
H842 H 0.84377 0.35369 0.48577 0.0
C843 C 0.54986 0.81187 0.30698 0.0
C844 C 0.56675 0.82878 0.25571 0.0
C845 C 0.54892 0.82688 0.3662 0.0
C846 C 0.56397 0.85948 0.37269 0.0
C847 C 0.58273 0.87658 0.32274 0.0
C848 C 0.58429 0.86094 0.26524 0.0
C849 C 0.53023 0.80781 0.41989 0.0
C850 C 0.59873 0.91137 0.32688 0.0
C851 C 0.52225 0.89709 0.44429 0.0
C852 C 0.54258 0.91596 0.49812 0.0
C853 C 0.52834 0.87754 0.40502 0.0
C854 C 0.55456 0.87532 0.42207 0.0
C855 C 0.57301 0.89114 0.48138 0.0
C856 C 0.5671 0.91178 0.51837 0.0
C857 C 0.50794 0.8612 0.34221 0.0
C858 C 0.60012 0.888 0.50357 0.0
H859 H 0.53691 0.78689 0.30029 0.0
H860 H 0.59755 0.87398 0.22573 0.0
H861 H 0.54099 0.8192 0.46988 0.0
H862 H 0.50713 0.80518 0.41477 0.0
H863 H 0.52748 0.78439 0.41632 0.0
H864 H 0.61424 0.92124 0.28663 0.0
H865 H 0.58143 0.91879 0.32321 0.0
H866 H 0.61225 0.92117 0.37533 0.0
H867 H 0.50277 0.89951 0.42916 0.0
H868 H 0.58272 0.92588 0.56044 0.0
H869 H 0.49537 0.83596 0.34669 0.0
H870 H 0.52171 0.86569 0.29873 0.0
H871 H 0.49101 0.86864 0.33172 0.0
H872 H 0.59621 0.86465 0.489 0.0
H873 H 0.60524 0.89257 0.55825 0.0
H874 H 0.62056 0.90512 0.48007 0.0
C875 C 0.70861 0.52238 0.20843 0.0
C876 C 0.73843 0.53103 0.23293 0.0
C877 C 0.68833 0.52518 0.24893 0.0
C878 C 0.69769 0.53602 0.31646 0.0
C879 C 0.72771 0.54454 0.34187 0.0
C880 C 0.74796 0.54245 0.2994 0.0
C881 C 0.65684 0.51653 0.2192 0.0
C882 C 0.73822 0.55536 0.41401 0.0
C883 C 0.6485 0.56246 0.40256 0.0
C884 C 0.62658 0.53489 0.42665 0.0
C885 C 0.6726 0.56361 0.36843 0.0
C886 C 0.67524 0.53683 0.36038 0.0
C887 C 0.65413 0.50954 0.38842 0.0
C888 C 0.62979 0.50877 0.42014 0.0
C889 C 0.69412 0.5929 0.33778 0.0
C890 C 0.65653 0.48073 0.38271 0.0
H891 H 0.70127 0.51412 0.15672 0.0
H892 H 0.77105 0.54928 0.31834 0.0
H893 H 0.63922 0.49636 0.24284 0.0
H894 H 0.65245 0.53585 0.22884 0.0
H895 H 0.65394 0.51066 0.16477 0.0
H896 H 0.76232 0.56139 0.42591 0.0
H897 H 0.73608 0.57584 0.42713 0.0
H898 H 0.72337 0.537 0.44572 0.0
H899 H 0.64594 0.58263 0.40757 0.0
H900 H 0.61303 0.48755 0.43967 0.0
H901 H 0.69035 0.58897 0.28289 0.0
H902 H 0.71823 0.59955 0.3514 0.0
H903 H 0.69072 0.6124 0.35337 0.0
H904 H 0.65075 0.47082 0.33046 0.0
H905 H 0.64085 0.46288 0.41448 0.0
H906 H 0.68029 0.4863 0.39688 0.0
C907 C 0.20598 0.74953 0.37486 0.0
C908 C 0.19356 0.75106 0.31239 0.0
C909 C 0.18791 0.72769 0.41854 0.0
C910 C 0.15665 0.70677 0.39935 0.0
C911 C 0.1436 0.70934 0.33803 0.0
C912 C 0.16216 0.73145 0.2954 0.0
C913 C 0.20269 0.72595 0.48362 0.0
C914 C 0.11031 0.68763 0.31578 0.0
C915 C 0.11567 0.62559 0.45601 0.0
C916 C 0.09565 0.6271 0.49956 0.0
C917 C 0.13686 0.65178 0.42602 0.0
C918 C 0.13818 0.68035 0.43987 0.0
C919 C 0.11984 0.68262 0.48794 0.0
C920 C 0.09881 0.65597 0.51734 0.0
C921 C 0.15632 0.64834 0.37596 0.0
C922 C 0.12088 0.7127 0.50503 0.0
H923 H 0.23016 0.76465 0.38878 0.0
H924 H 0.15228 0.73245 0.24747 0.0
H925 H 0.18843 0.72429 0.52489 0.0
H926 H 0.20459 0.70484 0.48132 0.0
H927 H 0.22594 0.74626 0.49523 0.0
H928 H 0.10309 0.69415 0.26936 0.0
H929 H 0.10624 0.66385 0.30707 0.0
H930 H 0.09563 0.68726 0.35508 0.0
H931 H 0.11374 0.60352 0.44268 0.0
H932 H 0.08356 0.65749 0.55108 0.0
H933 H 0.18049 0.66706 0.3852 0.0
H934 H 0.1481 0.65013 0.32538 0.0
H935 H 0.15548 0.62583 0.37705 0.0
H936 H 0.14486 0.73198 0.5128 0.0
H937 H 0.109 0.71187 0.55029 0.0
H938 H 0.1096 0.71787 0.4631 0.0
loop_
_geom_bond_atom_site_label_1
_geom_bond_atom_site_label_2
_geom_bond_distance
_geom_bond_site_symmetry_2
_ccdc_geom_bond_type
Mg0 O7 2.141 . S
Mg0 O8 2.048 . S
Mg0 O9 2.048 . S
Mg0 O12 2.141 . S
C1 O2 1.313 . S
C1 O8 1.195 . S
O2 C1 1.313 . S
C3 O4 1.245 . S
C3 O12 1.289 . S
O4 C3 1.245 . S
C5 O6 1.245 . S
C5 O7 1.289 . S
O6 C5 1.245 . S
O7 Mg0 2.141 . S
O7 C5 1.289 . S
O8 Mg0 2.048 . S
O8 C1 1.195 . S
O9 Mg0 2.048 . S
O9 C10 1.195 . S
C10 O9 1.195 . S
C10 O11 1.313 . S
O11 C10 1.313 . S
O12 Mg0 2.141 . S
O12 C3 1.289 . S
Mg13 O20 2.141 . S
Mg13 O21 2.048 . S
Mg13 O22 2.048 . S
Mg13 O25 2.141 . S
C14 O15 1.314 . S
C14 O21 1.195 . S
O15 C14 1.314 . S
C16 O17 1.245 . S
C16 O25 1.289 . S
O17 C16 1.245 . S
C18 O19 1.245 . S
C18 O20 1.289 . S
O19 C18 1.245 . S
O20 Mg13 2.141 . S
O20 C18 1.289 . S
O21 Mg13 2.048 . S
O21 C14 1.195 . S
O22 Mg13 2.048 . S
O22 C23 1.195 1_554 S
C23 O22 1.195 1_556 S
C23 O24 1.313 . S
O24 C23 1.313 . S
O25 Mg13 2.141 . S
O25 C16 1.289 . S
Mg26 O33 2.141 1_554 S
Mg26 O34 2.048 . S
Mg26 O35 2.048 . S
Mg26 O38 2.141 1_554 S
C27 O28 1.313 . S
C27 O34 1.195 . S
O28 C27 1.313 . S
C29 O30 1.245 . S
C29 O38 1.289 . S
O30 C29 1.245 . S
C31 O32 1.245 . S
C31 O33 1.289 . S
O32 C31 1.245 . S
O33 Mg26 2.141 1_556 S
O33 C31 1.289 . S
O34 Mg26 2.048 . S
O34 C27 1.195 . S
O35 Mg26 2.048 . S
O35 C36 1.195 . S
C36 O35 1.195 . S
C36 O37 1.313 . S
O37 C36 1.313 . S
O38 Mg26 2.141 1_556 S
O38 C29 1.289 . S
Mg39 O46 2.141 . S
Mg39 O47 2.048 1_554 S
Mg39 O48 2.048 1_554 S
Mg39 O51 2.141 . S
C40 O41 1.313 . S
C40 O47 1.195 . S
O41 C40 1.313 . S
C42 O43 1.245 . S
C42 O51 1.289 . S
O43 C42 1.245 . S
C44 O45 1.245 . S
C44 O46 1.289 . S
O45 C44 1.245 . S
O46 Mg39 2.141 . S
O46 C44 1.289 . S
O47 Mg39 2.048 1_556 S
O47 C40 1.195 . S
O48 Mg39 2.048 1_556 S
O48 C49 1.195 . S
C49 O48 1.195 . S
C49 O50 1.313 . S
O50 C49 1.313 . S
O51 Mg39 2.141 . S
O51 C42 1.289 . S
Mg52 O59 2.141 . S
Mg52 O60 2.048 . S
Mg52 O61 2.048 . S
Mg52 O64 2.141 . S
C53 O54 1.313 . S
C53 O60 1.195 . S
O54 C53 1.313 . S
C55 O56 1.245 . S
C55 O64 1.289 . S
O56 C55 1.245 . S
C57 O58 1.245 . S
C57 O59 1.289 . S
O58 C57 1.245 . S
O59 Mg52 2.141 . S
O59 C57 1.289 . S
O60 Mg52 2.048 . S
O60 C53 1.195 . S
O61 Mg52 2.048 . S
O61 C62 1.195 . S
C62 O61 1.195 . S
C62 O63 1.313 . S
O63 C62 1.313 . S
O64 Mg52 2.141 . S
O64 C55 1.289 . S
Mg65 O72 2.141 . S
Mg65 O73 2.048 . S
Mg65 O74 2.048 . S
Mg65 O77 2.141 . S
C66 O67 1.313 . S
C66 O73 1.195 . S
O67 C66 1.313 . S
C68 O69 1.245 . S
C68 O77 1.289 . S
O69 C68 1.245 . S
C70 O71 1.245 . S
C70 O72 1.289 . S
O71 C70 1.245 . S
O72 Mg65 2.141 . S
O72 C70 1.289 . S
O73 Mg65 2.048 . S
O73 C66 1.195 . S
O74 Mg65 2.048 . S
O74 C75 1.195 . S
C75 O74 1.195 . S
C75 O76 1.313 . S
O76 C75 1.313 . S
O77 Mg65 2.141 . S
O77 C68 1.289 . S
C78 O105 1.312 . S
C78 O106 1.208 . S
C79 O100 1.331 . S
C79 O103 1.244 . S
C80 O102 1.264 . S
C80 O104 1.273 . S
Mg81 O83 1.936 1_455 S
Mg81 O90 2.081 1_455 S
Mg81 O92 2.023 . S
Mg81 O96 2.031 1_455 S
Mg81 O105 2.291 . S
Mg82 O83 1.963 . S
Mg82 O93 1.942 . S
Mg82 O94 1.955 1_655 S
Mg82 O101 1.986 . S
O83 Mg81 1.936 1_655 S
O83 Mg82 1.963 . S
O83 Mg84 1.915 1_655 S
Mg84 O83 1.915 1_455 S
Mg84 O85 1.915 . S
Mg84 O89 2.013 . S
Mg84 O95 2.114 1_455 S
Mg84 O99 2.013 1_455 S
Mg84 O105 2.114 . S
O85 Mg84 1.915 . S
O85 Mg86 1.936 . S
O85 Mg87 1.963 . S
Mg86 O85 1.936 . S
Mg86 O95 2.291 1_455 S
Mg86 O100 2.081 . S
Mg86 O102 2.023 1_455 S
Mg86 O106 2.031 . S
Mg87 O85 1.963 . S
Mg87 O91 1.986 . S
Mg87 O103 1.942 . S
Mg87 O104 1.955 1_455 S
C88 O99 1.191 . S
C88 O101 1.307 . S
O89 Mg84 2.013 . S
O89 C108 1.191 . S
O90 Mg81 2.081 1_655 S
O90 C98 1.331 . S
O91 Mg87 1.986 . S
O91 C108 1.307 . S
O92 Mg81 2.023 . S
O92 C107 1.264 . S
O93 Mg82 1.942 . S
O93 C98 1.244 . S
O94 Mg82 1.955 1_455 S
O94 C107 1.273 . S
O95 Mg84 2.114 1_655 S
O95 Mg86 2.291 1_655 S
O95 C97 1.312 . S
O96 Mg81 2.031 1_655 S
O96 C97 1.208 . S
C97 O95 1.312 . S
C97 O96 1.208 . S
C98 O90 1.331 . S
C98 O93 1.244 . S
O99 Mg84 2.013 1_655 S
O99 C88 1.191 . S
O100 C79 1.331 . S
O100 Mg86 2.081 . S
O101 Mg82 1.986 . S
O101 C88 1.307 . S
O102 C80 1.264 . S
O102 Mg86 2.023 1_655 S
O103 C79 1.244 . S
O103 Mg87 1.942 . S
O104 C80 1.273 . S
O104 Mg87 1.955 1_655 S
O105 C78 1.312 . S
O105 Mg81 2.291 . S
O105 Mg84 2.114 . S
O106 C78 1.208 . S
O106 Mg86 2.031 . S
C107 O92 1.264 . S
C107 O94 1.273 . S
C108 O89 1.191 . S
C108 O91 1.307 . S
C109 O136 1.312 . S
C109 O137 1.208 . S
C110 O131 1.331 . S
C110 O134 1.244 . S
C111 O133 1.264 . S
C111 O135 1.273 . S
Mg112 O114 1.936 1_545 S
Mg112 O121 2.081 1_545 S
Mg112 O123 2.023 . S
Mg112 O127 2.031 1_545 S
Mg112 O136 2.291 . S
Mg113 O114 1.963 . S
Mg113 O124 1.942 . S
Mg113 O125 1.955 1_565 S
Mg113 O132 1.986 . S
O114 Mg112 1.936 1_565 S
O114 Mg113 1.963 . S
O114 Mg115 1.915 1_565 S
Mg115 O114 1.915 1_545 S
Mg115 O116 1.915 . S
Mg115 O120 2.013 . S
Mg115 O126 2.114 1_545 S
Mg115 O130 2.013 1_545 S
Mg115 O136 2.114 . S
O116 Mg115 1.915 . S
O116 Mg117 1.936 . S
O116 Mg118 1.963 . S
Mg117 O116 1.936 . S
Mg117 O126 2.291 1_545 S
Mg117 O131 2.081 . S
Mg117 O133 2.023 1_545 S
Mg117 O137 2.031 . S
Mg118 O116 1.963 . S
Mg118 O122 1.986 . S
Mg118 O134 1.942 . S
Mg118 O135 1.955 1_545 S
C119 O130 1.191 . S
C119 O132 1.307 . S
O120 Mg115 2.013 . S
O120 C139 1.191 . S
O121 Mg112 2.081 1_565 S
O121 C129 1.331 . S
O122 Mg118 1.986 . S
O122 C139 1.307 . S
O123 Mg112 2.023 . S
O123 C138 1.264 . S
O124 Mg113 1.942 . S
O124 C129 1.244 . S
O125 Mg113 1.955 1_545 S
O125 C138 1.273 . S
O126 Mg115 2.114 1_565 S
O126 Mg117 2.291 1_565 S
O126 C128 1.312 . S
O127 Mg112 2.031 1_565 S
O127 C128 1.208 . S
C128 O126 1.312 . S
C128 O127 1.208 . S
C129 O121 1.331 . S
C129 O124 1.244 . S
O130 Mg115 2.013 1_565 S
O130 C119 1.191 . S
O131 C110 1.331 . S
O131 Mg117 2.081 . S
O132 Mg113 1.986 . S
O132 C119 1.307 . S
O133 C111 1.264 . S
O133 Mg117 2.023 1_565 S
O134 C110 1.244 . S
O134 Mg118 1.942 . S
O135 C111 1.273 . S
O135 Mg118 1.955 1_565 S
O136 C109 1.312 . S
O136 Mg112 2.291 . S
O136 Mg115 2.114 . S
O137 C109 1.208 . S
O137 Mg117 2.031 . S
C138 O123 1.264 . S
C138 O125 1.273 . S
C139 O120 1.191 . S
C139 O122 1.307 . S
C140 O167 1.312 . S
C140 O168 1.208 . S
C141 O162 1.331 . S
C141 O165 1.244 . S
C142 O164 1.264 . S
C142 O166 1.273 . S
Mg143 O145 1.936 . S
Mg143 O152 2.081 . S
Mg143 O154 2.023 . S
Mg143 O158 2.031 . S
Mg143 O167 2.291 . S
Mg144 O145 1.963 . S
Mg144 O155 1.942 . S
Mg144 O156 1.955 . S
Mg144 O163 1.986 . S
O145 Mg143 1.936 . S
O145 Mg144 1.963 . S
O145 Mg146 1.915 . S
Mg146 O145 1.915 . S
Mg146 O147 1.915 . S
Mg146 O151 2.013 . S
Mg146 O157 2.114 . S
Mg146 O161 2.013 . S
Mg146 O167 2.114 . S
O147 Mg146 1.915 . S
O147 Mg148 1.936 . S
O147 Mg149 1.963 . S
Mg148 O147 1.936 . S
Mg148 O157 2.291 . S
Mg148 O162 2.081 . S
Mg148 O164 2.023 . S
Mg148 O168 2.031 . S
Mg149 O147 1.963 . S
Mg149 O153 1.986 . S
Mg149 O165 1.942 . S
Mg149 O166 1.955 . S
C150 O161 1.191 . S
C150 O163 1.307 . S
O151 Mg146 2.013 . S
O151 C170 1.191 . S
O152 Mg143 2.081 . S
O152 C160 1.331 . S
O153 Mg149 1.986 . S
O153 C170 1.307 . S
O154 Mg143 2.023 . S
O154 C169 1.264 . S
O155 Mg144 1.942 . S
O155 C160 1.244 . S
O156 Mg144 1.955 . S
O156 C169 1.273 . S
O157 Mg146 2.114 . S
O157 Mg148 2.291 . S
O157 C159 1.312 . S
O158 Mg143 2.031 . S
O158 C159 1.208 . S
C159 O157 1.312 . S
C159 O158 1.208 . S
C160 O152 1.331 . S
C160 O155 1.244 . S
O161 Mg146 2.013 . S
O161 C150 1.191 . S
O162 C141 1.331 . S
O162 Mg148 2.081 . S
O163 Mg144 1.986 . S
O163 C150 1.307 . S
O164 C142 1.264 . S
O164 Mg148 2.023 . S
O165 C141 1.244 . S
O165 Mg149 1.942 . S
O166 C142 1.273 . S
O166 Mg149 1.955 . S
O167 C140 1.312 . S
O167 Mg143 2.291 . S
O167 Mg146 2.114 . S
O168 C140 1.208 . S
O168 Mg148 2.031 . S
C169 O154 1.264 . S
C169 O156 1.273 . S
C170 O151 1.191 . S
C170 O153 1.307 . S
C171 C172 1.391 . S
C171 C173 1.394 . S
C171 H187 0.931 . S
C172 C171 1.391 . S
C172 C176 1.376 . S
C173 C171 1.394 . S
C173 C174 1.369 . S
C173 C177 1.531 . S
C174 C173 1.369 . S
C174 C175 1.410 . S
C174 C182 1.503 . S
C175 C174 1.410 . S
C175 C176 1.392 . S
C175 C178 1.511 . S
C176 C172 1.376 . S
C176 C175 1.392 . S
C176 H188 0.929 . S
C177 C173 1.531 . S
C177 H189 0.960 . S
C177 H190 0.962 . S
C177 H191 0.960 . S
C178 C175 1.511 . S
C178 H192 0.961 . S
C178 H193 0.961 . S
C178 H194 0.961 . S
C179 C180 1.370 . S
C179 C181 1.363 . S
C179 H195 0.931 . S
C180 C179 1.370 . S
C180 C184 1.408 . S
C181 C179 1.363 . S
C181 C182 1.370 . S
C181 C185 1.524 . S
C182 C174 1.503 . S
C182 C181 1.370 . S
C182 C183 1.403 . S
C183 C182 1.403 . S
C183 C184 1.404 . S
C183 C186 1.539 . S
C184 C180 1.408 . S
C184 C183 1.404 . S
C184 H196 0.930 . S
C185 C181 1.524 . S
C185 H197 0.956 . S
C185 H198 0.961 . S
C185 H199 0.961 . S
C186 C183 1.539 . S
C186 H200 0.958 . S
C186 H201 0.961 . S
C186 H202 0.960 . S
H187 C171 0.931 . S
H188 C176 0.929 . S
H189 C177 0.960 . S
H190 C177 0.962 . S
H191 C177 0.960 . S
H192 C178 0.961 . S
H193 C178 0.961 . S
H194 C178 0.961 . S
H195 C179 0.931 . S
H196 C184 0.930 . S
H197 C185 0.956 . S
H198 C185 0.961 . S
H199 C185 0.961 . S
H200 C186 0.958 . S
H201 C186 0.961 . S
H202 C186 0.960 . S
C203 C204 1.391 . S
C203 C205 1.394 . S
C203 H219 0.931 . S
C204 C203 1.391 . S
C204 C208 1.376 . S
C205 C203 1.394 . S
C205 C206 1.369 . S
C205 C209 1.531 . S
C206 C205 1.369 . S
C206 C207 1.410 . S
C206 C214 1.503 . S
C207 C206 1.410 . S
C207 C208 1.392 . S
C207 C210 1.511 . S
C208 C204 1.376 . S
C208 C207 1.392 . S
C208 H220 0.929 . S
C209 C205 1.531 . S
C209 H221 0.960 . S
C209 H222 0.962 . S
C209 H223 0.960 . S
C210 C207 1.511 . S
C210 H224 0.961 . S
C210 H225 0.961 . S
C210 H226 0.961 . S
C211 C212 1.370 . S
C211 C213 1.363 . S
C211 H227 0.931 . S
C212 C211 1.370 . S
C212 C216 1.408 . S
C213 C211 1.363 . S
C213 C214 1.370 . S
C213 C217 1.524 . S
C214 C206 1.503 . S
C214 C213 1.370 . S
C214 C215 1.403 . S
C215 C214 1.403 . S
C215 C216 1.404 . S
C215 C218 1.539 . S
C216 C212 1.408 . S
C216 C215 1.404 . S
C216 H228 0.930 . S
C217 C213 1.524 . S
C217 H229 0.956 . S
C217 H230 0.961 . S
C217 H231 0.961 . S
C218 C215 1.539 . S
C218 H232 0.958 . S
C218 H233 0.961 . S
C218 H234 0.960 . S
H219 C203 0.931 . S
H220 C208 0.929 . S
H221 C209 0.960 . S
H222 C209 0.962 . S
H223 C209 0.960 . S
H224 C210 0.961 . S
H225 C210 0.961 . S
H226 C210 0.961 . S
H227 C211 0.931 . S
H228 C216 0.930 . S
H229 C217 0.956 . S
H230 C217 0.961 . S
H231 C217 0.961 . S
H232 C218 0.958 . S
H233 C218 0.961 . S
H234 C218 0.960 . S
C235 C236 1.391 . S
C235 C237 1.394 . S
C235 H251 0.931 . S
C236 C235 1.391 . S
C236 C240 1.376 . S
C237 C235 1.394 . S
C237 C238 1.369 . S
C237 C241 1.531 . S
C238 C237 1.369 . S
C238 C239 1.410 . S
C238 C246 1.503 . S
C239 C238 1.410 . S
C239 C240 1.392 . S
C239 C242 1.511 . S
C240 C236 1.376 . S
C240 C239 1.392 . S
C240 H252 0.929 . S
C241 C237 1.531 . S
C241 H253 0.960 . S
C241 H254 0.962 . S
C241 H255 0.960 . S
C242 C239 1.511 . S
C242 H256 0.961 . S
C242 H257 0.961 . S
C242 H258 0.961 . S
C243 C244 1.370 . S
C243 C245 1.363 . S
C243 H259 0.931 . S
C244 C243 1.370 . S
C244 C248 1.408 . S
C245 C243 1.363 . S
C245 C246 1.370 . S
C245 C249 1.524 . S
C246 C238 1.503 . S
C246 C245 1.370 . S
C246 C247 1.403 . S
C247 C246 1.403 . S
C247 C248 1.404 . S
C247 C250 1.539 . S
C248 C244 1.408 . S
C248 C247 1.404 . S
C248 H260 0.930 . S
C249 C245 1.524 . S
C249 H261 0.956 . S
C249 H262 0.961 . S
C249 H263 0.961 . S
C250 C247 1.539 . S
C250 H264 0.958 . S
C250 H265 0.961 . S
C250 H266 0.960 . S
H251 C235 0.931 . S
H252 C240 0.929 . S
H253 C241 0.960 . S
H254 C241 0.962 . S
H255 C241 0.960 . S
H256 C242 0.961 . S
H257 C242 0.961 . S
H258 C242 0.961 . S
H259 C243 0.931 . S
H260 C248 0.930 . S
H261 C249 0.956 . S
H262 C249 0.961 . S
H263 C249 0.961 . S
H264 C250 0.958 . S
H265 C250 0.961 . S
H266 C250 0.960 . S
C267 C268 1.391 . S
C267 C269 1.394 . S
C267 H283 0.931 . S
C268 C267 1.391 . S
C268 C272 1.376 . S
C269 C267 1.394 . S
C269 C270 1.369 . S
C269 C273 1.531 . S
C270 C269 1.369 . S
C270 C271 1.410 . S
C270 C278 1.503 . S
C271 C270 1.410 . S
C271 C272 1.392 . S
C271 C274 1.511 . S
C272 C268 1.376 . S
C272 C271 1.392 . S
C272 H284 0.929 . S
C273 C269 1.531 . S
C273 H285 0.960 . S
C273 H286 0.962 . S
C273 H287 0.960 . S
C274 C271 1.511 . S
C274 H288 0.961 . S
C274 H289 0.961 . S
C274 H290 0.961 . S
C275 C276 1.370 . S
C275 C277 1.363 . S
C275 H291 0.931 . S
C276 C275 1.370 . S
C276 C280 1.408 . S
C277 C275 1.363 . S
C277 C278 1.370 . S
C277 C281 1.524 . S
C278 C270 1.503 . S
C278 C277 1.370 . S
C278 C279 1.403 . S
C279 C278 1.403 . S
C279 C280 1.404 . S
C279 C282 1.539 . S
C280 C276 1.408 . S
C280 C279 1.404 . S
C280 H292 0.930 . S
C281 C277 1.524 . S
C281 H293 0.956 . S
C281 H294 0.961 . S
C281 H295 0.961 . S
C282 C279 1.539 . S
C282 H296 0.958 . S
C282 H297 0.961 . S
C282 H298 0.960 . S
H283 C267 0.931 . S
H284 C272 0.929 . S
H285 C273 0.960 . S
H286 C273 0.962 . S
H287 C273 0.960 . S
H288 C274 0.961 . S
H289 C274 0.961 . S
H290 C274 0.961 . S
H291 C275 0.931 . S
H292 C280 0.930 . S
H293 C281 0.956 . S
H294 C281 0.961 . S
H295 C281 0.961 . S
H296 C282 0.958 . S
H297 C282 0.961 . S
H298 C282 0.960 . S
C299 C300 1.391 . S
C299 C301 1.394 . S
C299 H315 0.931 . S
C300 C299 1.391 . S
C300 C304 1.376 . S
C301 C299 1.394 . S
C301 C302 1.369 . S
C301 C305 1.531 . S
C302 C301 1.369 . S
C302 C303 1.410 . S
C302 C310 1.503 . S
C303 C302 1.410 . S
C303 C304 1.392 . S
C303 C306 1.511 . S
C304 C300 1.376 . S
C304 C303 1.392 . S
C304 H316 0.929 . S
C305 C301 1.531 . S
C305 H317 0.960 . S
C305 H318 0.962 . S
C305 H319 0.960 . S
C306 C303 1.511 . S
C306 H320 0.961 . S
C306 H321 0.961 . S
C306 H322 0.961 . S
C307 C308 1.370 . S
C307 C309 1.363 . S
C307 H323 0.931 . S
C308 C307 1.370 . S
C308 C312 1.408 . S
C309 C307 1.363 . S
C309 C310 1.370 . S
C309 C313 1.524 . S
C310 C302 1.503 . S
C310 C309 1.370 . S
C310 C311 1.403 . S
C311 C310 1.403 . S
C311 C312 1.404 . S
C311 C314 1.539 . S
C312 C308 1.408 . S
C312 C311 1.404 . S
C312 H324 0.930 . S
C313 C309 1.524 . S
C313 H325 0.956 . S
C313 H326 0.961 . S
C313 H327 0.961 . S
C314 C311 1.539 . S
C314 H328 0.958 . S
C314 H329 0.961 . S
C314 H330 0.960 . S
H315 C299 0.931 . S
H316 C304 0.929 . S
H317 C305 0.960 . S
H318 C305 0.962 . S
H319 C305 0.960 . S
H320 C306 0.961 . S
H321 C306 0.961 . S
H322 C306 0.961 . S
H323 C307 0.931 . S
H324 C312 0.930 . S
H325 C313 0.956 . S
H326 C313 0.961 . S
H327 C313 0.961 . S
H328 C314 0.958 . S
H329 C314 0.961 . S
H330 C314 0.960 . S
C331 C332 1.391 . S
C331 C333 1.394 . S
C331 H347 0.931 . S
C332 C331 1.391 . S
C332 C336 1.376 . S
C333 C331 1.394 . S
C333 C334 1.369 . S
C333 C337 1.531 . S
C334 C333 1.369 . S
C334 C335 1.410 . S
C334 C342 1.503 . S
C335 C334 1.410 . S
C335 C336 1.392 . S
C335 C338 1.511 . S
C336 C332 1.376 . S
C336 C335 1.392 . S
C336 H348 0.929 . S
C337 C333 1.531 . S
C337 H349 0.960 . S
C337 H350 0.962 . S
C337 H351 0.960 . S
C338 C335 1.511 . S
C338 H352 0.961 . S
C338 H353 0.961 . S
C338 H354 0.961 . S
C339 C340 1.370 . S
C339 C341 1.363 . S
C339 H355 0.931 . S
C340 C339 1.370 . S
C340 C344 1.408 . S
C341 C339 1.363 . S
C341 C342 1.370 . S
C341 C345 1.524 . S
C342 C334 1.503 . S
C342 C341 1.370 . S
C342 C343 1.403 . S
C343 C342 1.403 . S
C343 C344 1.404 . S
C343 C346 1.539 . S
C344 C340 1.408 . S
C344 C343 1.404 . S
C344 H356 0.930 . S
C345 C341 1.524 . S
C345 H357 0.956 . S
C345 H358 0.961 . S
C345 H359 0.961 . S
C346 C343 1.539 . S
C346 H360 0.958 . S
C346 H361 0.961 . S
C346 H362 0.960 . S
H347 C331 0.931 . S
H348 C336 0.929 . S
H349 C337 0.960 . S
H350 C337 0.962 . S
H351 C337 0.960 . S
H352 C338 0.961 . S
H353 C338 0.961 . S
H354 C338 0.961 . S
H355 C339 0.931 . S
H356 C344 0.930 . S
H357 C345 0.956 . S
H358 C345 0.961 . S
H359 C345 0.961 . S
H360 C346 0.958 . S
H361 C346 0.961 . S
H362 C346 0.960 . S
C363 C364 1.391 . S
C363 C365 1.394 . S
C363 H379 0.931 . S
C364 C363 1.391 . S
C364 C368 1.376 . S
C365 C363 1.394 . S
C365 C366 1.369 . S
C365 C369 1.531 . S
C366 C365 1.369 . S
C366 C367 1.410 . S
C366 C374 1.503 . S
C367 C366 1.410 . S
C367 C368 1.392 . S
C367 C370 1.511 . S
C368 C364 1.376 . S
C368 C367 1.392 . S
C368 H380 0.929 . S
C369 C365 1.531 . S
C369 H381 0.960 . S
C369 H382 0.962 . S
C369 H383 0.960 . S
C370 C367 1.511 . S
C370 H384 0.961 . S
C370 H385 0.961 . S
C370 H386 0.961 . S
C371 C372 1.370 . S
C371 C373 1.363 . S
C371 H387 0.931 . S
C372 C371 1.370 . S
C372 C376 1.408 . S
C373 C371 1.363 . S
C373 C374 1.370 . S
C373 C377 1.524 . S
C374 C366 1.503 . S
C374 C373 1.370 . S
C374 C375 1.403 . S
C375 C374 1.403 . S
C375 C376 1.404 . S
C375 C378 1.539 . S
C376 C372 1.408 . S
C376 C375 1.404 . S
C376 H388 0.930 . S
C377 C373 1.524 . S
C377 H389 0.956 . S
C377 H390 0.961 . S
C377 H391 0.961 . S
C378 C375 1.539 . S
C378 H392 0.958 . S
C378 H393 0.961 . S
C378 H394 0.960 . S
H379 C363 0.931 . S
H380 C368 0.929 . S
H381 C369 0.960 . S
H382 C369 0.962 . S
H383 C369 0.960 . S
H384 C370 0.961 . S
H385 C370 0.961 . S
H386 C370 0.961 . S
H387 C371 0.931 . S
H388 C376 0.930 . S
H389 C377 0.956 . S
H390 C377 0.961 . S
H391 C377 0.961 . S
H392 C378 0.958 . S
H393 C378 0.961 . S
H394 C378 0.960 . S
C395 C396 1.391 . S
C395 C397 1.394 . S
C395 H411 0.931 . S
C396 C395 1.391 . S
C396 C400 1.376 . S
C397 C395 1.394 . S
C397 C398 1.369 . S
C397 C401 1.531 . S
C398 C397 1.369 . S
C398 C399 1.410 . S
C398 C406 1.503 . S
C399 C398 1.410 . S
C399 C400 1.392 . S
C399 C402 1.511 . S
C400 C396 1.376 . S
C400 C399 1.392 . S
C400 H412 0.929 . S
C401 C397 1.531 . S
C401 H413 0.960 . S
C401 H414 0.962 . S
C401 H415 0.960 . S
C402 C399 1.511 . S
C402 H416 0.961 . S
C402 H417 0.961 . S
C402 H418 0.961 . S
C403 C404 1.370 . S
C403 C405 1.363 . S
C403 H419 0.931 . S
C404 C403 1.370 . S
C404 C408 1.408 . S
C405 C403 1.363 . S
C405 C406 1.370 . S
C405 C409 1.524 . S
C406 C398 1.503 . S
C406 C405 1.370 . S
C406 C407 1.403 . S
C407 C406 1.403 . S
C407 C408 1.404 . S
C407 C410 1.539 . S
C408 C404 1.408 . S
C408 C407 1.404 . S
C408 H420 0.930 . S
C409 C405 1.524 . S
C409 H421 0.956 . S
C409 H422 0.961 . S
C409 H423 0.961 . S
C410 C407 1.539 . S
C410 H424 0.958 . S
C410 H425 0.961 . S
C410 H426 0.960 . S
H411 C395 0.931 . S
H412 C400 0.929 . S
H413 C401 0.960 . S
H414 C401 0.962 . S
H415 C401 0.960 . S
H416 C402 0.961 . S
H417 C402 0.961 . S
H418 C402 0.961 . S
H419 C403 0.931 . S
H420 C408 0.930 . S
H421 C409 0.956 . S
H422 C409 0.961 . S
H423 C409 0.961 . S
H424 C410 0.958 . S
H425 C410 0.961 . S
H426 C410 0.960 . S
C427 C428 1.391 . S
C427 C429 1.394 . S
C427 H443 0.931 . S
C428 C427 1.391 . S
C428 C432 1.376 . S
C429 C427 1.394 . S
C429 C430 1.369 . S
C429 C433 1.531 . S
C430 C429 1.369 . S
C430 C431 1.410 . S
C430 C438 1.503 . S
C431 C430 1.410 . S
C431 C432 1.392 . S
C431 C434 1.511 . S
C432 C428 1.376 . S
C432 C431 1.392 . S
C432 H444 0.929 1_556 S
C433 C429 1.531 . S
C433 H445 0.960 . S
C433 H446 0.962 . S
C433 H447 0.960 . S
C434 C431 1.511 . S
C434 H448 0.961 1_556 S
C434 H449 0.961 . S
C434 H450 0.961 . S
C435 C436 1.370 . S
C435 C437 1.363 . S
C435 H451 0.931 . S
C436 C435 1.370 . S
C436 C440 1.408 . S
C437 C435 1.363 . S
C437 C438 1.370 . S
C437 C441 1.524 . S
C438 C430 1.503 . S
C438 C437 1.370 . S
C438 C439 1.403 . S
C439 C438 1.403 . S
C439 C440 1.404 . S
C439 C442 1.539 . S
C440 C436 1.408 . S
C440 C439 1.404 . S
C440 H452 0.930 . S
C441 C437 1.524 . S
C441 H453 0.956 . S
C441 H454 0.961 . S
C441 H455 0.961 . S
C442 C439 1.539 . S
C442 H456 0.958 . S
C442 H457 0.961 . S
C442 H458 0.960 . S
H443 C427 0.931 . S
H444 C432 0.929 1_554 S
H445 C433 0.960 . S
H446 C433 0.962 . S
H447 C433 0.960 . S
H448 C434 0.961 1_554 S
H449 C434 0.961 . S
H450 C434 0.961 . S
H451 C435 0.931 . S
H452 C440 0.930 . S
H453 C441 0.956 . S
H454 C441 0.961 . S
H455 C441 0.961 . S
H456 C442 0.958 . S
H457 C442 0.961 . S
H458 C442 0.960 . S
C459 C460 1.391 . S
C459 C461 1.394 1_554 S
C459 H475 0.931 . S
C460 C459 1.391 . S
C460 C464 1.376 1_554 S
C461 C459 1.394 1_556 S
C461 C462 1.369 . S
C461 C465 1.531 . S
C462 C461 1.369 . S
C462 C463 1.410 . S
C462 C470 1.503 . S
C463 C462 1.410 . S
C463 C464 1.392 . S
C463 C466 1.511 . S
C464 C460 1.376 1_556 S
C464 C463 1.392 . S
C464 H476 0.929 . S
C465 C461 1.531 . S
C465 H477 0.960 . S
C465 H478 0.962 1_556 S
C465 H479 0.960 1_556 S
C466 C463 1.511 . S
C466 H480 0.961 . S
C466 H481 0.961 . S
C466 H482 0.961 . S
C467 C468 1.370 . S
C467 C469 1.363 . S
C467 H483 0.931 . S
C468 C467 1.370 . S
C468 C472 1.408 . S
C469 C467 1.363 . S
C469 C470 1.370 . S
C469 C473 1.524 . S
C470 C462 1.503 . S
C470 C469 1.370 . S
C470 C471 1.403 . S
C471 C470 1.403 . S
C471 C472 1.404 . S
C471 C474 1.539 . S
C472 C468 1.408 . S
C472 C471 1.404 . S
C472 H484 0.930 . S
C473 C469 1.524 . S
C473 H485 0.956 1_556 S
C473 H486 0.961 . S
C473 H487 0.961 . S
C474 C471 1.539 . S
C474 H488 0.958 . S
C474 H489 0.961 . S
C474 H490 0.960 . S
H475 C459 0.931 . S
H476 C464 0.929 . S
H477 C465 0.960 . S
H478 C465 0.962 1_554 S
H479 C465 0.960 1_554 S
H480 C466 0.961 . S
H481 C466 0.961 . S
H482 C466 0.961 . S
H483 C467 0.931 . S
H484 C472 0.930 . S
H485 C473 0.956 1_554 S
H486 C473 0.961 . S
H487 C473 0.961 . S
H488 C474 0.958 . S
H489 C474 0.961 . S
H490 C474 0.960 . S
C491 C492 1.391 . S
C491 C493 1.394 . S
C491 H507 0.931 . S
C492 C491 1.391 . S
C492 C496 1.376 . S
C493 C491 1.394 . S
C493 C494 1.369 1_554 S
C493 C497 1.531 1_554 S
C494 C493 1.369 1_556 S
C494 C495 1.410 . S
C494 C502 1.503 . S
C495 C494 1.410 . S
C495 C496 1.392 1_556 S
C495 C498 1.511 . S
C496 C492 1.376 . S
C496 C495 1.392 1_554 S
C496 H508 0.929 . S
C497 C493 1.531 1_556 S
C497 H509 0.960 . S
C497 H510 0.961 . S
C497 H511 0.961 1_556 S
C498 C495 1.511 . S
C498 H512 0.961 . S
C498 H513 0.961 . S
C498 H514 0.961 . S
C499 C500 1.370 . S
C499 C501 1.363 . S
C499 H515 0.931 . S
C500 C499 1.370 . S
C500 C504 1.408 . S
C501 C499 1.363 . S
C501 C502 1.370 . S
C501 C505 1.524 . S
C502 C494 1.503 . S
C502 C501 1.370 . S
C502 C503 1.403 . S
C503 C502 1.403 . S
C503 C504 1.404 . S
C503 C506 1.539 1_556 S
C504 C500 1.408 . S
C504 C503 1.404 . S
C504 H516 0.930 . S
C505 C501 1.524 . S
C505 H517 0.956 . S
C505 H518 0.961 . S
C505 H519 0.961 . S
C506 C503 1.539 1_554 S
C506 H520 0.958 . S
C506 H521 0.961 . S
C506 H522 0.960 . S
H507 C491 0.931 . S
H508 C496 0.929 . S
H509 C497 0.960 . S
H510 C497 0.961 . S
H511 C497 0.961 1_554 S
H512 C498 0.961 . S
H513 C498 0.961 . S
H514 C498 0.961 . S
H515 C499 0.931 . S
H516 C504 0.930 . S
H517 C505 0.956 . S
H518 C505 0.961 . S
H519 C505 0.961 . S
H520 C506 0.958 . S
H521 C506 0.961 . S
H522 C506 0.960 . S
C523 C524 1.391 . S
C523 C525 1.394 . S
C523 H539 0.931 . S
C524 C523 1.391 . S
C524 C528 1.376 . S
C525 C523 1.394 . S
C525 C526 1.369 . S
C525 C529 1.531 . S
C526 C525 1.369 . S
C526 C527 1.410 . S
C526 C534 1.503 . S
C527 C526 1.410 . S
C527 C528 1.392 . S
C527 C530 1.511 . S
C528 C524 1.376 . S
C528 C527 1.392 . S
C528 H540 0.929 . S
C529 C525 1.531 . S
C529 H541 0.960 . S
C529 H542 0.962 . S
C529 H543 0.960 . S
C530 C527 1.511 . S
C530 H544 0.961 . S
C530 H545 0.961 . S
C530 H546 0.961 . S
C531 C532 1.370 . S
C531 C533 1.363 . S
C531 H547 0.931 . S
C532 C531 1.370 . S
C532 C536 1.408 . S
C533 C531 1.363 . S
C533 C534 1.370 . S
C533 C537 1.524 . S
C534 C526 1.503 . S
C534 C533 1.370 . S
C534 C535 1.403 . S
C535 C534 1.403 . S
C535 C536 1.404 . S
C535 C538 1.539 . S
C536 C532 1.408 . S
C536 C535 1.404 . S
C536 H548 0.930 . S
C537 C533 1.524 . S
C537 H549 0.956 . S
C537 H550 0.961 . S
C537 H551 0.961 . S
C538 C535 1.539 . S
C538 H552 0.958 . S
C538 H553 0.961 . S
C538 H554 0.960 . S
H539 C523 0.931 . S
H540 C528 0.929 . S
H541 C529 0.960 . S
H542 C529 0.962 . S
H543 C529 0.960 . S
H544 C530 0.961 . S
H545 C530 0.961 . S
H546 C530 0.961 . S
H547 C531 0.931 . S
H548 C536 0.930 . S
H549 C537 0.956 . S
H550 C537 0.961 . S
H551 C537 0.961 . S
H552 C538 0.958 . S
H553 C538 0.961 . S
H554 C538 0.960 . S
C555 C556 1.391 . S
C555 C557 1.394 . S
C555 H571 0.931 . S
C556 C555 1.391 . S
C556 C560 1.376 . S
C557 C555 1.394 . S
C557 C558 1.369 . S
C557 C561 1.531 . S
C558 C557 1.369 . S
C558 C559 1.410 . S
C558 C566 1.503 . S
C559 C558 1.410 . S
C559 C560 1.392 . S
C559 C562 1.511 . S
C560 C556 1.376 . S
C560 C559 1.392 . S
C560 H572 0.929 . S
C561 C557 1.531 . S
C561 H573 0.960 . S
C561 H574 0.962 . S
C561 H575 0.960 . S
C562 C559 1.511 . S
C562 H576 0.961 . S
C562 H577 0.961 . S
C562 H578 0.961 . S
C563 C564 1.370 . S
C563 C565 1.363 . S
C563 H579 0.931 . S
C564 C563 1.370 . S
C564 C568 1.408 . S
C565 C563 1.363 . S
C565 C566 1.370 . S
C565 C569 1.524 . S
C566 C558 1.503 . S
C566 C565 1.370 . S
C566 C567 1.403 . S
C567 C566 1.403 . S
C567 C568 1.404 . S
C567 C570 1.539 . S
C568 C564 1.408 . S
C568 C567 1.404 . S
C568 H580 0.930 . S
C569 C565 1.524 . S
C569 H581 0.956 . S
C569 H582 0.961 . S
C569 H583 0.961 . S
C570 C567 1.539 . S
C570 H584 0.958 . S
C570 H585 0.961 . S
C570 H586 0.960 . S
H571 C555 0.931 . S
H572 C560 0.929 . S
H573 C561 0.960 . S
H574 C561 0.962 . S
H575 C561 0.960 . S
H576 C562 0.961 . S
H577 C562 0.961 . S
H578 C562 0.961 . S
H579 C563 0.931 . S
H580 C568 0.930 . S
H581 C569 0.956 . S
H582 C569 0.961 . S
H583 C569 0.961 . S
H584 C570 0.958 . S
H585 C570 0.961 . S
H586 C570 0.960 . S
C587 C588 1.391 . S
C587 C589 1.394 . S
C587 H603 0.931 . S
C588 C587 1.391 . S
C588 C592 1.376 . S
C589 C587 1.394 . S
C589 C590 1.369 . S
C589 C593 1.531 . S
C590 C589 1.369 . S
C590 C591 1.410 . S
C590 C598 1.503 . S
C591 C590 1.410 . S
C591 C592 1.392 . S
C591 C594 1.511 . S
C592 C588 1.376 . S
C592 C591 1.392 . S
C592 H604 0.929 . S
C593 C589 1.531 . S
C593 H605 0.960 . S
C593 H606 0.962 . S
C593 H607 0.960 . S
C594 C591 1.511 . S
C594 H608 0.961 . S
C594 H609 0.961 . S
C594 H610 0.961 . S
C595 C596 1.370 . S
C595 C597 1.363 . S
C595 H611 0.931 . S
C596 C595 1.370 . S
C596 C600 1.408 . S
C597 C595 1.363 . S
C597 C598 1.370 . S
C597 C601 1.524 . S
C598 C590 1.503 . S
C598 C597 1.370 . S
C598 C599 1.403 . S
C599 C598 1.403 . S
C599 C600 1.404 . S
C599 C602 1.539 . S
C600 C596 1.408 . S
C600 C599 1.404 . S
C600 H612 0.930 . S
C601 C597 1.524 . S
C601 H613 0.956 . S
C601 H614 0.961 . S
C601 H615 0.961 . S
C602 C599 1.539 . S
C602 H616 0.958 . S
C602 H617 0.961 . S
C602 H618 0.960 . S
H603 C587 0.931 . S
H604 C592 0.929 . S
H605 C593 0.960 . S
H606 C593 0.962 . S
H607 C593 0.960 . S
H608 C594 0.961 . S
H609 C594 0.961 . S
H610 C594 0.961 . S
H611 C595 0.931 . S
H612 C600 0.930 . S
H613 C601 0.956 . S
H614 C601 0.961 . S
H615 C601 0.961 . S
H616 C602 0.958 . S
H617 C602 0.961 . S
H618 C602 0.960 . S
C619 C620 1.391 1_556 S
C619 C621 1.394 . S
C619 H635 0.931 . S
C620 C619 1.391 1_554 S
C620 C624 1.376 . S
C621 C619 1.394 . S
C621 C622 1.369 . S
C621 C625 1.531 . S
C622 C621 1.369 . S
C622 C623 1.410 . S
C622 C630 1.503 . S
C623 C622 1.410 . S
C623 C624 1.392 1_556 S
C623 C626 1.511 . S
C624 C620 1.376 . S
C624 C623 1.392 1_554 S
C624 H636 0.929 . S
C625 C621 1.531 . S
C625 H637 0.960 . S
C625 H638 0.962 . S
C625 H639 0.960 . S
C626 C623 1.511 . S
C626 H640 0.961 1_556 S
C626 H641 0.961 . S
C626 H642 0.961 . S
C627 C628 1.370 . S
C627 C629 1.363 . S
C627 H643 0.931 . S
C628 C627 1.370 . S
C628 C632 1.408 . S
C629 C627 1.363 . S
C629 C630 1.370 . S
C629 C633 1.524 . S
C630 C622 1.503 . S
C630 C629 1.370 . S
C630 C631 1.403 . S
C631 C630 1.403 . S
C631 C632 1.404 . S
C631 C634 1.539 . S
C632 C628 1.408 . S
C632 C631 1.404 . S
C632 H644 0.930 . S
C633 C629 1.524 . S
C633 H645 0.956 . S
C633 H646 0.961 . S
C633 H647 0.961 . S
C634 C631 1.539 . S
C634 H648 0.958 . S
C634 H649 0.961 . S
C634 H650 0.960 . S
H635 C619 0.931 . S
H636 C624 0.929 . S
H637 C625 0.960 . S
H638 C625 0.962 . S
H639 C625 0.960 . S
H640 C626 0.961 1_554 S
H641 C626 0.961 . S
H642 C626 0.961 . S
H643 C627 0.931 . S
H644 C632 0.930 . S
H645 C633 0.956 . S
H646 C633 0.961 . S
H647 C633 0.961 . S
H648 C634 0.958 . S
H649 C634 0.961 . S
H650 C634 0.960 . S
C651 C652 1.391 . S
C651 C653 1.394 . S
C651 H667 0.931 . S
C652 C651 1.391 . S
C652 C656 1.376 1_554 S
C653 C651 1.394 . S
C653 C654 1.369 1_554 S
C653 C657 1.531 . S
C654 C653 1.369 1_556 S
C654 C655 1.410 . S
C654 C662 1.503 . S
C655 C654 1.410 . S
C655 C656 1.392 . S
C655 C658 1.511 . S
C656 C652 1.376 1_556 S
C656 C655 1.392 . S
C656 H668 0.929 . S
C657 C653 1.531 . S
C657 H669 0.960 . S
C657 H670 0.962 . S
C657 H671 0.960 . S
C658 C655 1.511 . S
C658 H672 0.961 . S
C658 H673 0.961 . S
C658 H674 0.961 . S
C659 C660 1.370 . S
C659 C661 1.363 . S
C659 H675 0.931 . S
C660 C659 1.370 . S
C660 C664 1.408 . S
C661 C659 1.363 . S
C661 C662 1.370 . S
C661 C665 1.524 . S
C662 C654 1.503 . S
C662 C661 1.370 . S
C662 C663 1.403 . S
C663 C662 1.403 . S
C663 C664 1.404 . S
C663 C666 1.539 . S
C664 C660 1.408 . S
C664 C663 1.404 . S
C664 H676 0.930 . S
C665 C661 1.524 . S
C665 H677 0.956 . S
C665 H678 0.961 . S
C665 H679 0.961 . S
C666 C663 1.539 . S
C666 H680 0.958 . S
C666 H681 0.961 . S
C666 H682 0.960 . S
H667 C651 0.931 . S
H668 C656 0.929 . S
H669 C657 0.960 . S
H670 C657 0.962 . S
H671 C657 0.960 . S
H672 C658 0.961 . S
H673 C658 0.961 . S
H674 C658 0.961 . S
H675 C659 0.931 . S
H676 C664 0.930 . S
H677 C665 0.956 . S
H678 C665 0.961 . S
H679 C665 0.961 . S
H680 C666 0.958 . S
H681 C666 0.961 . S
H682 C666 0.960 . S
C683 C684 1.391 . S
C683 C685 1.394 . S
C683 H699 0.935 . S
C684 C683 1.391 . S
C684 C688 1.376 . S
C685 C683 1.394 . S
C685 C686 1.369 . S
C685 C689 1.531 . S
C686 C685 1.369 . S
C686 C687 1.410 . S
C686 C694 1.503 . S
C687 C686 1.410 . S
C687 C688 1.392 . S
C687 C690 1.511 . S
C688 C684 1.376 . S
C688 C687 1.392 . S
C688 H700 0.929 . S
C689 C685 1.531 . S
C689 H701 0.960 . S
C689 H702 0.962 . S
C689 H703 0.960 . S
C690 C687 1.511 . S
C690 H704 0.961 . S
C690 H705 0.961 . S
C690 H706 0.961 . S
C691 C692 1.370 . S
C691 C693 1.363 . S
C691 H707 0.931 . S
C692 C691 1.370 . S
C692 C696 1.408 . S
C693 C691 1.363 . S
C693 C694 1.370 . S
C693 C697 1.524 . S
C694 C686 1.503 . S
C694 C693 1.370 . S
C694 C695 1.403 . S
C695 C694 1.403 . S
C695 C696 1.404 . S
C695 C698 1.539 . S
C696 C692 1.408 . S
C696 C695 1.404 . S
C696 H708 0.930 . S
C697 C693 1.524 . S
C697 H709 0.956 . S
C697 H710 0.961 . S
C697 H711 0.961 . S
C698 C695 1.539 . S
C698 H712 0.958 . S
C698 H713 0.961 . S
C698 H714 0.960 . S
H699 C683 0.935 . S
H700 C688 0.929 . S
H701 C689 0.960 . S
H702 C689 0.962 . S
H703 C689 0.960 . S
H704 C690 0.961 . S
H705 C690 0.961 . S
H706 C690 0.961 . S
H707 C691 0.931 . S
H708 C696 0.930 . S
H709 C697 0.956 . S
H710 C697 0.961 . S
H711 C697 0.961 . S
H712 C698 0.958 . S
H713 C698 0.961 . S
H714 C698 0.960 . S
C715 C716 1.391 . S
C715 C717 1.394 . S
C715 H731 0.931 . S
C716 C715 1.391 . S
C716 C720 1.376 . S
C717 C715 1.394 . S
C717 C718 1.369 . S
C717 C721 1.531 . S
C718 C717 1.369 . S
C718 C719 1.410 . S
C718 C726 1.503 . S
C719 C718 1.410 . S
C719 C720 1.392 . S
C719 C722 1.511 . S
C720 C716 1.376 . S
C720 C719 1.392 . S
C720 H732 0.929 . S
C721 C717 1.531 . S
C721 H733 0.960 . S
C721 H734 0.962 . S
C721 H735 0.960 . S
C722 C719 1.511 . S
C722 H736 0.961 . S
C722 H737 0.961 . S
C722 H738 0.961 . S
C723 C724 1.370 . S
C723 C725 1.363 . S
C723 H739 0.931 . S
C724 C723 1.370 . S
C724 C728 1.408 . S
C725 C723 1.363 . S
C725 C726 1.370 . S
C725 C729 1.524 . S
C726 C718 1.503 . S
C726 C725 1.370 . S
C726 C727 1.403 . S
C727 C726 1.403 . S
C727 C728 1.404 . S
C727 C730 1.539 . S
C728 C724 1.408 . S
C728 C727 1.404 . S
C728 H740 0.930 . S
C729 C725 1.524 . S
C729 H741 0.956 . S
C729 H742 0.961 . S
C729 H743 0.961 . S
C730 C727 1.539 . S
C730 H744 0.958 . S
C730 H745 0.961 . S
C730 H746 0.960 . S
H731 C715 0.931 . S
H732 C720 0.929 . S
H733 C721 0.960 . S
H734 C721 0.962 . S
H735 C721 0.960 . S
H736 C722 0.961 . S
H737 C722 0.961 . S
H738 C722 0.961 . S
H739 C723 0.931 . S
H740 C728 0.930 . S
H741 C729 0.956 . S
H742 C729 0.961 . S
H743 C729 0.961 . S
H744 C730 0.958 . S
H745 C730 0.961 . S
H746 C730 0.960 . S
C747 C748 1.391 . S
C747 C749 1.394 . S
C747 H763 0.931 . S
C748 C747 1.391 . S
C748 C752 1.376 . S
C749 C747 1.394 . S
C749 C750 1.369 . S
C749 C753 1.531 . S
C750 C749 1.369 . S
C750 C751 1.410 . S
C750 C758 1.503 . S
C751 C750 1.410 . S
C751 C752 1.392 . S
C751 C754 1.511 . S
C752 C748 1.376 . S
C752 C751 1.392 . S
C752 H764 0.929 . S
C753 C749 1.531 . S
C753 H765 0.960 . S
C753 H766 0.962 . S
C753 H767 0.960 . S
C754 C751 1.511 . S
C754 H768 0.961 . S
C754 H769 0.961 . S
C754 H770 0.961 . S
C755 C756 1.370 . S
C755 C757 1.363 . S
C755 H771 0.931 . S
C756 C755 1.370 . S
C756 C760 1.408 . S
C757 C755 1.363 . S
C757 C758 1.370 . S
C757 C761 1.524 . S
C758 C750 1.503 . S
C758 C757 1.370 . S
C758 C759 1.403 . S
C759 C758 1.403 . S
C759 C760 1.404 . S
C759 C762 1.539 . S
C760 C756 1.408 . S
C760 C759 1.404 . S
C760 H772 0.930 . S
C761 C757 1.524 . S
C761 H773 0.956 . S
C761 H774 0.961 . S
C761 H775 0.961 . S
C762 C759 1.539 . S
C762 H776 0.958 . S
C762 H777 0.961 . S
C762 H778 0.960 . S
H763 C747 0.931 . S
H764 C752 0.929 . S
H765 C753 0.960 . S
H766 C753 0.962 . S
H767 C753 0.960 . S
H768 C754 0.961 . S
H769 C754 0.961 . S
H770 C754 0.961 . S
H771 C755 0.931 . S
H772 C760 0.930 . S
H773 C761 0.956 . S
H774 C761 0.961 . S
H775 C761 0.961 . S
H776 C762 0.958 . S
H777 C762 0.961 . S
H778 C762 0.960 . S
C779 C780 1.391 . S
C779 C781 1.394 . S
C779 H795 0.931 . S
C780 C779 1.391 . S
C780 C784 1.376 . S
C781 C779 1.394 . S
C781 C782 1.369 . S
C781 C785 1.531 . S
C782 C781 1.369 . S
C782 C783 1.410 . S
C782 C790 1.503 . S
C783 C782 1.410 . S
C783 C784 1.392 . S
C783 C786 1.511 . S
C784 C780 1.376 . S
C784 C783 1.392 . S
C784 H796 0.929 . S
C785 C781 1.531 . S
C785 H797 0.960 . S
C785 H798 0.962 . S
C785 H799 0.960 . S
C786 C783 1.511 . S
C786 H800 0.961 . S
C786 H801 0.961 . S
C786 H802 0.961 . S
C787 C788 1.370 . S
C787 C789 1.363 . S
C787 H803 0.931 . S
C788 C787 1.370 . S
C788 C792 1.408 . S
C789 C787 1.363 . S
C789 C790 1.370 . S
C789 C793 1.524 . S
C790 C782 1.503 . S
C790 C789 1.370 . S
C790 C791 1.403 . S
C791 C790 1.403 . S
C791 C792 1.404 . S
C791 C794 1.539 . S
C792 C788 1.408 . S
C792 C791 1.404 . S
C792 H804 0.930 . S
C793 C789 1.524 . S
C793 H805 0.956 . S
C793 H806 0.961 . S
C793 H807 0.961 . S
C794 C791 1.539 . S
C794 H808 0.958 . S
C794 H809 0.961 . S
C794 H810 0.960 . S
H795 C779 0.931 . S
H796 C784 0.929 . S
H797 C785 0.960 . S
H798 C785 0.962 . S
H799 C785 0.960 . S
H800 C786 0.961 . S
H801 C786 0.961 . S
H802 C786 0.961 . S
H803 C787 0.931 . S
H804 C792 0.930 . S
H805 C793 0.956 . S
H806 C793 0.961 . S
H807 C793 0.961 . S
H808 C794 0.958 . S
H809 C794 0.961 . S
H810 C794 0.960 . S
C811 C812 1.391 . S
C811 C813 1.394 . S
C811 H827 0.931 . S
C812 C811 1.391 . S
C812 C816 1.376 . S
C813 C811 1.394 . S
C813 C814 1.369 . S
C813 C817 1.531 . S
C814 C813 1.369 . S
C814 C815 1.410 . S
C814 C822 1.503 . S
C815 C814 1.410 . S
C815 C816 1.392 . S
C815 C818 1.511 . S
C816 C812 1.376 . S
C816 C815 1.392 . S
C816 H828 0.929 . S
C817 C813 1.531 . S
C817 H829 0.960 . S
C817 H830 0.962 . S
C817 H831 0.960 . S
C818 C815 1.511 . S
C818 H832 0.961 . S
C818 H833 0.961 . S
C818 H834 0.961 . S
C819 C820 1.370 . S
C819 C821 1.363 . S
C819 H835 0.931 . S
C820 C819 1.370 . S
C820 C824 1.408 . S
C821 C819 1.363 . S
C821 C822 1.370 . S
C821 C825 1.524 . S
C822 C814 1.503 . S
C822 C821 1.370 . S
C822 C823 1.403 . S
C823 C822 1.403 . S
C823 C824 1.404 . S
C823 C826 1.539 . S
C824 C820 1.408 . S
C824 C823 1.404 . S
C824 H836 0.930 . S
C825 C821 1.524 . S
C825 H837 0.956 . S
C825 H838 0.961 . S
C825 H839 0.961 . S
C826 C823 1.539 . S
C826 H840 0.958 . S
C826 H841 0.961 . S
C826 H842 0.960 . S
H827 C811 0.931 . S
H828 C816 0.929 . S
H829 C817 0.960 . S
H830 C817 0.962 . S
H831 C817 0.960 . S
H832 C818 0.961 . S
H833 C818 0.961 . S
H834 C818 0.961 . S
H835 C819 0.931 . S
H836 C824 0.930 . S
H837 C825 0.956 . S
H838 C825 0.961 . S
H839 C825 0.961 . S
H840 C826 0.958 . S
H841 C826 0.961 . S
H842 C826 0.960 . S
C843 C844 1.391 . S
C843 C845 1.394 . S
C843 H859 0.931 . S
C844 C843 1.391 . S
C844 C848 1.376 . S
C845 C843 1.394 . S
C845 C846 1.369 . S
C845 C849 1.531 . S
C846 C845 1.369 . S
C846 C847 1.410 . S
C846 C854 1.503 . S
C847 C846 1.410 . S
C847 C848 1.392 . S
C847 C850 1.511 . S
C848 C844 1.376 . S
C848 C847 1.392 . S
C848 H860 0.929 . S
C849 C845 1.531 . S
C849 H861 0.960 . S
C849 H862 0.962 . S
C849 H863 0.960 . S
C850 C847 1.511 . S
C850 H864 0.961 . S
C850 H865 0.961 . S
C850 H866 0.961 . S
C851 C852 1.370 . S
C851 C853 1.363 . S
C851 H867 0.931 . S
C852 C851 1.370 . S
C852 C856 1.408 . S
C853 C851 1.363 . S
C853 C854 1.370 . S
C853 C857 1.524 . S
C854 C846 1.503 . S
C854 C853 1.370 . S
C854 C855 1.403 . S
C855 C854 1.403 . S
C855 C856 1.404 . S
C855 C858 1.539 . S
C856 C852 1.408 . S
C856 C855 1.404 . S
C856 H868 0.930 . S
C857 C853 1.524 . S
C857 H869 0.956 . S
C857 H870 0.961 . S
C857 H871 0.961 . S
C858 C855 1.539 . S
C858 H872 0.958 . S
C858 H873 0.961 . S
C858 H874 0.960 . S
H859 C843 0.931 . S
H860 C848 0.929 . S
H861 C849 0.960 . S
H862 C849 0.962 . S
H863 C849 0.960 . S
H864 C850 0.961 . S
H865 C850 0.961 . S
H866 C850 0.961 . S
H867 C851 0.931 . S
H868 C856 0.930 . S
H869 C857 0.956 . S
H870 C857 0.961 . S
H871 C857 0.961 . S
H872 C858 0.958 . S
H873 C858 0.961 . S
H874 C858 0.960 . S
C875 C876 1.391 . S
C875 C877 1.394 . S
C875 H891 0.931 . S
C876 C875 1.391 . S
C876 C880 1.376 . S
C877 C875 1.394 . S
C877 C878 1.369 . S
C877 C881 1.531 . S
C878 C877 1.369 . S
C878 C879 1.410 . S
C878 C886 1.503 . S
C879 C878 1.410 . S
C879 C880 1.392 . S
C879 C882 1.511 . S
C880 C876 1.376 . S
C880 C879 1.392 . S
C880 H892 0.929 . S
C881 C877 1.531 . S
C881 H893 0.960 . S
C881 H894 0.962 . S
C881 H895 0.960 . S
C882 C879 1.511 . S
C882 H896 0.961 . S
C882 H897 0.961 . S
C882 H898 0.961 . S
C883 C884 1.370 . S
C883 C885 1.363 . S
C883 H899 0.931 . S
C884 C883 1.370 . S
C884 C888 1.408 . S
C885 C883 1.363 . S
C885 C886 1.370 . S
C885 C889 1.524 . S
C886 C878 1.503 . S
C886 C885 1.370 . S
C886 C887 1.403 . S
C887 C886 1.403 . S
C887 C888 1.404 . S
C887 C890 1.539 . S
C888 C884 1.408 . S
C888 C887 1.404 . S
C888 H900 0.930 . S
C889 C885 1.524 . S
C889 H901 0.956 . S
C889 H902 0.961 . S
C889 H903 0.961 . S
C890 C887 1.539 . S
C890 H904 0.958 . S
C890 H905 0.961 . S
C890 H906 0.960 . S
H891 C875 0.931 . S
H892 C880 0.929 . S
H893 C881 0.960 . S
H894 C881 0.962 . S
H895 C881 0.960 . S
H896 C882 0.961 . S
H897 C882 0.961 . S
H898 C882 0.961 . S
H899 C883 0.931 . S
H900 C888 0.930 . S
H901 C889 0.956 . S
H902 C889 0.961 . S
H903 C889 0.961 . S
H904 C890 0.958 . S
H905 C890 0.961 . S
H906 C890 0.960 . S
C907 C908 1.391 . S
C907 C909 1.394 . S
C907 H923 0.931 . S
C908 C907 1.391 . S
C908 C912 1.376 . S
C909 C907 1.394 . S
C909 C910 1.369 . S
C909 C913 1.531 . S
C910 C909 1.369 . S
C910 C911 1.410 . S
C910 C918 1.503 . S
C911 C910 1.410 . S
C911 C912 1.392 . S
C911 C914 1.511 . S
C912 C908 1.376 . S
C912 C911 1.392 . S
C912 H924 0.929 . S
C913 C909 1.531 . S
C913 H925 0.960 . S
C913 H926 0.962 . S
C913 H927 0.960 . S
C914 C911 1.511 . S
C914 H928 0.961 . S
C914 H929 0.961 . S
C914 H930 0.961 . S
C915 C916 1.370 . S
C915 C917 1.363 . S
C915 H931 0.931 . S
C916 C915 1.370 . S
C916 C920 1.408 . S
C917 C915 1.363 . S
C917 C918 1.370 . S
C917 C921 1.524 . S
C918 C910 1.503 . S
C918 C917 1.370 . S
C918 C919 1.403 . S
C919 C918 1.403 . S
C919 C920 1.404 . S
C919 C922 1.539 . S
C920 C916 1.408 . S
C920 C919 1.404 . S
C920 H932 0.930 . S
C921 C917 1.524 . S
C921 H933 0.956 . S
C921 H934 0.961 . S
C921 H935 0.961 . S
C922 C919 1.539 . S
C922 H936 0.958 . S
C922 H937 0.961 . S
C922 H938 0.960 . S
H923 C907 0.931 . S
H924 C912 0.929 . S
H925 C913 0.960 . S
H926 C913 0.962 . S
H927 C913 0.960 . S
H928 C914 0.961 . S
H929 C914 0.961 . S
H930 C914 0.961 . S
H931 C915 0.931 . S
H932 C920 0.930 . S
H933 C921 0.956 . S
H934 C921 0.961 . S
H935 C921 0.961 . S
H936 C922 0.958 . S
H937 C922 0.961 . S
H938 C922 0.960 . S
C172 C5 1.619 . S
C180 C78 1.546 . S
C204 C16 1.417 . S
C212 C110 1.387 . S
C244 C169 1.810 . S
C236 C36 1.859 . S
C276 C98 1.309 . S
C268 C42 1.348 . S
C300 C55 1.492 . S
C308 C128 1.495 . S
C340 C150 1.167 . S
C332 C66 1.189 . S
C372 C119 1.512 . S
C364 C31 1.565 . S
C396 C40 1.245 . S
C404 C159 1.199 . S
C436 C108 1.551 . S
C428 C53 1.526 1_556 S
C460 C68 1.403 . S
C468 C138 1.374 . S
C492 C10 1.788 . S
C500 C141 1.734 . S
C532 C80 1.526 . S
C524 C14 1.518 1_556 S
C564 C88 1.565 . S
C556 C49 1.613 . S
C596 C129 1.458 . S
C588 C62 1.463 1_556 S
C628 C142 1.764 . S
C620 C70 1.805 . S
C660 C79 1.427 . S
C652 C1 1.456 . S
C692 C139 1.527 . S
C684 C23 1.518 . S
C716 C29 1.163 . S
C724 C140 1.123 . S
C756 C109 1.572 . S
C748 C75 1.613 . S
C788 C170 1.101 . S
C780 C3 1.135 . S
C820 C97 1.464 . S
C812 C18 1.460 . S
C852 C111 1.487 . S
C844 C27 1.525 . S
C876 C44 1.691 . S
C884 C160 1.699 . S
C908 C57 1.479 . S
C916 C107 1.484 . S
