# Generated by pormake.
# Topology gar, (4,6)-cn, num edge types: 1
# Building blocks:
#     Node 0, Type 0, BuildingBlock: GALJAG_clean_sbu_0, # of connection points: 4
#     Node 1, Type 0, BuildingBlock: GALJAG_clean_sbu_0, # of connection points: 4
#     Node 2, Type 0, BuildingBlock: GALJAG_clean_sbu_0, # of connection points: 4
#     Node 3, Type 0, BuildingBlock: GALJAG_clean_sbu_0, # of connection points: 4
#     Node 4, Type 0, BuildingBlock: GALJAG_clean_sbu_0, # of connection points: 4
#     Node 5, Type 0, BuildingBlock: GALJAG_clean_sbu_0, # of connection points: 4
#     Node 6, Type 0, BuildingBlock: GALJAG_clean_sbu_0, # of connection points: 4
#     Node 7, Type 0, BuildingBlock: GALJAG_clean_sbu_0, # of connection points: 4
#     Node 8, Type 0, BuildingBlock: GALJAG_clean_sbu_0, # of connection points: 4
#     Node 9, Type 0, BuildingBlock: GALJAG_clean_sbu_0, # of connection points: 4
#     Node 10, Type 0, BuildingBlock: GALJAG_clean_sbu_0, # of connection points: 4
#     Node 11, Type 0, BuildingBlock: GALJAG_clean_sbu_0, # of connection points: 4
#     Node 12, Type 0, BuildingBlock: GALJAG_clean_sbu_0, # of connection points: 4
#     Node 13, Type 0, BuildingBlock: GALJAG_clean_sbu_0, # of connection points: 4
#     Node 14, Type 0, BuildingBlock: GALJAG_clean_sbu_0, # of connection points: 4
#     Node 15, Type 0, BuildingBlock: GALJAG_clean_sbu_0, # of connection points: 4
#     Node 16, Type 0, BuildingBlock: GALJAG_clean_sbu_0, # of connection points: 4
#     Node 17, Type 0, BuildingBlock: GALJAG_clean_sbu_0, # of connection points: 4
#     Node 18, Type 0, BuildingBlock: GALJAG_clean_sbu_0, # of connection points: 4
#     Node 19, Type 0, BuildingBlock: GALJAG_clean_sbu_0, # of connection points: 4
#     Node 20, Type 0, BuildingBlock: GALJAG_clean_sbu_0, # of connection points: 4
#     Node 21, Type 0, BuildingBlock: GALJAG_clean_sbu_0, # of connection points: 4
#     Node 22, Type 0, BuildingBlock: GALJAG_clean_sbu_0, # of connection points: 4
#     Node 23, Type 0, BuildingBlock: GALJAG_clean_sbu_0, # of connection points: 4
#     Node 24, Type 1, BuildingBlock: HISSIN_clean_sbu_0, # of connection points: 6
#     Node 25, Type 1, BuildingBlock: HISSIN_clean_sbu_0, # of connection points: 6
#     Node 26, Type 1, BuildingBlock: HISSIN_clean_sbu_0, # of connection points: 6
#     Node 27, Type 1, BuildingBlock: HISSIN_clean_sbu_0, # of connection points: 6
#     Node 28, Type 1, BuildingBlock: HISSIN_clean_sbu_0, # of connection points: 6
#     Node 29, Type 1, BuildingBlock: HISSIN_clean_sbu_0, # of connection points: 6
#     Node 30, Type 1, BuildingBlock: HISSIN_clean_sbu_0, # of connection points: 6
#     Node 31, Type 1, BuildingBlock: HISSIN_clean_sbu_0, # of connection points: 6
#     Node 32, Type 1, BuildingBlock: HISSIN_clean_sbu_0, # of connection points: 6
#     Node 33, Type 1, BuildingBlock: HISSIN_clean_sbu_0, # of connection points: 6
#     Node 34, Type 1, BuildingBlock: HISSIN_clean_sbu_0, # of connection points: 6
#     Node 35, Type 1, BuildingBlock: HISSIN_clean_sbu_0, # of connection points: 6
#     Node 36, Type 1, BuildingBlock: HISSIN_clean_sbu_0, # of connection points: 6
#     Node 37, Type 1, BuildingBlock: HISSIN_clean_sbu_0, # of connection points: 6
#     Node 38, Type 1, BuildingBlock: HISSIN_clean_sbu_0, # of connection points: 6
#     Node 39, Type 1, BuildingBlock: HISSIN_clean_sbu_0, # of connection points: 6
#     Edge 40, Type (0, 1), BuildingBlock: CIFDUS_clean_linker_0, # of connection points: 2
#     Edge 41, Type (0, 1), BuildingBlock: CIFDUS_clean_linker_0, # of connection points: 2
#     Edge 42, Type (0, 1), BuildingBlock: CIFDUS_clean_linker_0, # of connection points: 2
#     Edge 43, Type (0, 1), BuildingBlock: CIFDUS_clean_linker_0, # of connection points: 2
#     Edge 44, Type (0, 1), BuildingBlock: CIFDUS_clean_linker_0, # of connection points: 2
#     Edge 45, Type (0, 1), BuildingBlock: CIFDUS_clean_linker_0, # of connection points: 2
#     Edge 46, Type (0, 1), BuildingBlock: CIFDUS_clean_linker_0, # of connection points: 2
#     Edge 47, Type (0, 1), BuildingBlock: CIFDUS_clean_linker_0, # of connection points: 2
#     Edge 48, Type (0, 1), BuildingBlock: CIFDUS_clean_linker_0, # of connection points: 2
#     Edge 49, Type (0, 1), BuildingBlock: CIFDUS_clean_linker_0, # of connection points: 2
#     Edge 50, Type (0, 1), BuildingBlock: CIFDUS_clean_linker_0, # of connection points: 2
#     Edge 51, Type (0, 1), BuildingBlock: CIFDUS_clean_linker_0, # of connection points: 2
#     Edge 52, Type (0, 1), BuildingBlock: CIFDUS_clean_linker_0, # of connection points: 2
#     Edge 53, Type (0, 1), BuildingBlock: CIFDUS_clean_linker_0, # of connection points: 2
#     Edge 54, Type (0, 1), BuildingBlock: CIFDUS_clean_linker_0, # of connection points: 2
#     Edge 55, Type (0, 1), BuildingBlock: CIFDUS_clean_linker_0, # of connection points: 2
#     Edge 56, Type (0, 1), BuildingBlock: CIFDUS_clean_linker_0, # of connection points: 2
#     Edge 57, Type (0, 1), BuildingBlock: CIFDUS_clean_linker_0, # of connection points: 2
#     Edge 58, Type (0, 1), BuildingBlock: CIFDUS_clean_linker_0, # of connection points: 2
#     Edge 59, Type (0, 1), BuildingBlock: CIFDUS_clean_linker_0, # of connection points: 2
#     Edge 60, Type (0, 1), BuildingBlock: CIFDUS_clean_linker_0, # of connection points: 2
#     Edge 61, Type (0, 1), BuildingBlock: CIFDUS_clean_linker_0, # of connection points: 2
#     Edge 62, Type (0, 1), BuildingBlock: CIFDUS_clean_linker_0, # of connection points: 2
#     Edge 63, Type (0, 1), BuildingBlock: CIFDUS_clean_linker_0, # of connection points: 2
#     Edge 64, Type (0, 1), BuildingBlock: CIFDUS_clean_linker_0, # of connection points: 2
#     Edge 65, Type (0, 1), BuildingBlock: CIFDUS_clean_linker_0, # of connection points: 2
#     Edge 66, Type (0, 1), BuildingBlock: CIFDUS_clean_linker_0, # of connection points: 2
#     Edge 67, Type (0, 1), BuildingBlock: CIFDUS_clean_linker_0, # of connection points: 2
#     Edge 68, Type (0, 1), BuildingBlock: CIFDUS_clean_linker_0, # of connection points: 2
#     Edge 69, Type (0, 1), BuildingBlock: CIFDUS_clean_linker_0, # of connection points: 2
#     Edge 70, Type (0, 1), BuildingBlock: CIFDUS_clean_linker_0, # of connection points: 2
#     Edge 71, Type (0, 1), BuildingBlock: CIFDUS_clean_linker_0, # of connection points: 2
#     Edge 72, Type (0, 1), BuildingBlock: CIFDUS_clean_linker_0, # of connection points: 2
#     Edge 73, Type (0, 1), BuildingBlock: CIFDUS_clean_linker_0, # of connection points: 2
#     Edge 74, Type (0, 1), BuildingBlock: CIFDUS_clean_linker_0, # of connection points: 2
#     Edge 75, Type (0, 1), BuildingBlock: CIFDUS_clean_linker_0, # of connection points: 2
#     Edge 76, Type (0, 1), BuildingBlock: CIFDUS_clean_linker_0, # of connection points: 2
#     Edge 77, Type (0, 1), BuildingBlock: CIFDUS_clean_linker_0, # of connection points: 2
#     Edge 78, Type (0, 1), BuildingBlock: CIFDUS_clean_linker_0, # of connection points: 2
#     Edge 79, Type (0, 1), BuildingBlock: CIFDUS_clean_linker_0, # of connection points: 2
#     Edge 80, Type (0, 1), BuildingBlock: CIFDUS_clean_linker_0, # of connection points: 2
#     Edge 81, Type (0, 1), BuildingBlock: CIFDUS_clean_linker_0, # of connection points: 2
#     Edge 82, Type (0, 1), BuildingBlock: CIFDUS_clean_linker_0, # of connection points: 2
#     Edge 83, Type (0, 1), BuildingBlock: CIFDUS_clean_linker_0, # of connection points: 2
#     Edge 84, Type (0, 1), BuildingBlock: CIFDUS_clean_linker_0, # of connection points: 2
#     Edge 85, Type (0, 1), BuildingBlock: CIFDUS_clean_linker_0, # of connection points: 2
#     Edge 86, Type (0, 1), BuildingBlock: CIFDUS_clean_linker_0, # of connection points: 2
#     Edge 87, Type (0, 1), BuildingBlock: CIFDUS_clean_linker_0, # of connection points: 2
#     Edge 88, Type (0, 1), BuildingBlock: CIFDUS_clean_linker_0, # of connection points: 2
#     Edge 89, Type (0, 1), BuildingBlock: CIFDUS_clean_linker_0, # of connection points: 2
#     Edge 90, Type (0, 1), BuildingBlock: CIFDUS_clean_linker_0, # of connection points: 2
#     Edge 91, Type (0, 1), BuildingBlock: CIFDUS_clean_linker_0, # of connection points: 2
#     Edge 92, Type (0, 1), BuildingBlock: CIFDUS_clean_linker_0, # of connection points: 2
#     Edge 93, Type (0, 1), BuildingBlock: CIFDUS_clean_linker_0, # of connection points: 2
#     Edge 94, Type (0, 1), BuildingBlock: CIFDUS_clean_linker_0, # of connection points: 2
#     Edge 95, Type (0, 1), BuildingBlock: CIFDUS_clean_linker_0, # of connection points: 2
#     Edge 96, Type (0, 1), BuildingBlock: CIFDUS_clean_linker_0, # of connection points: 2
#     Edge 97, Type (0, 1), BuildingBlock: CIFDUS_clean_linker_0, # of connection points: 2
#     Edge 98, Type (0, 1), BuildingBlock: CIFDUS_clean_linker_0, # of connection points: 2
#     Edge 99, Type (0, 1), BuildingBlock: CIFDUS_clean_linker_0, # of connection points: 2
#     Edge 100, Type (0, 1), BuildingBlock: CIFDUS_clean_linker_0, # of connection points: 2
#     Edge 101, Type (0, 1), BuildingBlock: CIFDUS_clean_linker_0, # of connection points: 2
#     Edge 102, Type (0, 1), BuildingBlock: CIFDUS_clean_linker_0, # of connection points: 2
#     Edge 103, Type (0, 1), BuildingBlock: CIFDUS_clean_linker_0, # of connection points: 2
#     Edge 104, Type (0, 1), BuildingBlock: CIFDUS_clean_linker_0, # of connection points: 2
#     Edge 105, Type (0, 1), BuildingBlock: CIFDUS_clean_linker_0, # of connection points: 2
#     Edge 106, Type (0, 1), BuildingBlock: CIFDUS_clean_linker_0, # of connection points: 2
#     Edge 107, Type (0, 1), BuildingBlock: CIFDUS_clean_linker_0, # of connection points: 2
#     Edge 108, Type (0, 1), BuildingBlock: CIFDUS_clean_linker_0, # of connection points: 2
#     Edge 109, Type (0, 1), BuildingBlock: CIFDUS_clean_linker_0, # of connection points: 2
#     Edge 110, Type (0, 1), BuildingBlock: CIFDUS_clean_linker_0, # of connection points: 2
#     Edge 111, Type (0, 1), BuildingBlock: CIFDUS_clean_linker_0, # of connection points: 2
#     Edge 112, Type (0, 1), BuildingBlock: CIFDUS_clean_linker_0, # of connection points: 2
#     Edge 113, Type (0, 1), BuildingBlock: CIFDUS_clean_linker_0, # of connection points: 2
#     Edge 114, Type (0, 1), BuildingBlock: CIFDUS_clean_linker_0, # of connection points: 2
#     Edge 115, Type (0, 1), BuildingBlock: CIFDUS_clean_linker_0, # of connection points: 2
#     Edge 116, Type (0, 1), BuildingBlock: CIFDUS_clean_linker_0, # of connection points: 2
#     Edge 117, Type (0, 1), BuildingBlock: CIFDUS_clean_linker_0, # of connection points: 2
#     Edge 118, Type (0, 1), BuildingBlock: CIFDUS_clean_linker_0, # of connection points: 2
#     Edge 119, Type (0, 1), BuildingBlock: CIFDUS_clean_linker_0, # of connection points: 2
#     Edge 120, Type (0, 1), BuildingBlock: CIFDUS_clean_linker_0, # of connection points: 2
#     Edge 121, Type (0, 1), BuildingBlock: CIFDUS_clean_linker_0, # of connection points: 2
#     Edge 122, Type (0, 1), BuildingBlock: CIFDUS_clean_linker_0, # of connection points: 2
#     Edge 123, Type (0, 1), BuildingBlock: CIFDUS_clean_linker_0, # of connection points: 2
#     Edge 124, Type (0, 1), BuildingBlock: CIFDUS_clean_linker_0, # of connection points: 2
#     Edge 125, Type (0, 1), BuildingBlock: CIFDUS_clean_linker_0, # of connection points: 2
#     Edge 126, Type (0, 1), BuildingBlock: CIFDUS_clean_linker_0, # of connection points: 2
#     Edge 127, Type (0, 1), BuildingBlock: CIFDUS_clean_linker_0, # of connection points: 2
#     Edge 128, Type (0, 1), BuildingBlock: CIFDUS_clean_linker_0, # of connection points: 2
#     Edge 129, Type (0, 1), BuildingBlock: CIFDUS_clean_linker_0, # of connection points: 2
#     Edge 130, Type (0, 1), BuildingBlock: CIFDUS_clean_linker_0, # of connection points: 2
#     Edge 131, Type (0, 1), BuildingBlock: CIFDUS_clean_linker_0, # of connection points: 2
#     Edge 132, Type (0, 1), BuildingBlock: CIFDUS_clean_linker_0, # of connection points: 2
#     Edge 133, Type (0, 1), BuildingBlock: CIFDUS_clean_linker_0, # of connection points: 2
#     Edge 134, Type (0, 1), BuildingBlock: CIFDUS_clean_linker_0, # of connection points: 2
#     Edge 135, Type (0, 1), BuildingBlock: CIFDUS_clean_linker_0, # of connection points: 2
# Relax obj value: 0.213
# Max RMSD: 0.303
# Mean RMSD: 0.164
data_MOF--net-gar--node1-GALJAG_clean_sbu_0--node2-HISSIN_clean_sbu_0--edge1-CIFDUS_clean_linker_0
_symmetry_space_group_name_H-M    P1
_symmetry_Int_Tables_number       1
_symmetry_cell_setting            triclinic
loop_
_symmetry_equiv_pos_as_xyz
'x, y, z'
_cell_length_a     53.18676
_cell_length_b     52.94356
_cell_length_c     50.763782
_cell_angle_alpha  100.57986
_cell_angle_beta   93.299517
_cell_angle_gamma 100.45237
loop_
_atom_site_label
_atom_site_type_symbol
_atom_site_fract_x
_atom_site_fract_y
_atom_site_fract_z
_atom_type_partial_charge
In0 In 0.1143 0.32817 0.42467 0.0
O1 O 0.14211 0.31628 0.39486 0.0
O2 O 0.15668 0.34706 0.42847 0.0
C3 C 0.0847 0.32237 0.37832 0.0
C4 C 0.10299 0.28963 0.45271 0.0
C5 C 0.10833 0.37255 0.45707 0.0
O6 O 0.10233 0.34203 0.38712 0.0
O7 O 0.08182 0.30538 0.39302 0.0
O8 O 0.12658 0.36123 0.46158 0.0
O9 O 0.09327 0.36139 0.43649 0.0
C10 C 0.16099 0.33337 0.40674 0.0
O11 O 0.12336 0.29315 0.4412 0.0
O12 O 0.08822 0.30513 0.44955 0.0
In13 In 0.02037 0.78693 0.65962 0.0
O14 O 1.00767 0.81046 0.62908 0.0
O15 O 0.04755 0.8121 0.63769 0.0
C16 C 1.01585 0.7377 0.63168 0.0
C17 C 0.05933 0.79026 0.6973 0.0
C18 C 0.9809 0.79559 0.68853 0.0
O19 O 0.02675 0.75752 0.62325 0.0
O20 O 1.00605 0.74282 0.6536 0.0
O21 O 1.00298 0.80982 0.69356 0.0
O22 O 0.97816 0.77772 0.66778 0.0
C23 C 0.03036 0.81949 0.6246 0.0
O24 O 0.05152 0.81022 0.69258 0.0
O25 O 0.04772 0.76895 0.68291 0.0
In26 In 0.60892 0.83263 0.90561 0.0
O27 O 0.63674 0.81502 0.8791 0.0
O28 O 0.65065 0.85182 0.90544 0.0
C29 C 0.5815 0.82525 0.85781 0.0
C30 C 0.59571 0.79764 0.93727 0.0
C31 C 0.60382 0.8777 0.93719 0.0
O32 O 0.59787 0.84579 0.86736 0.0
O33 O 0.57854 0.8084 0.87265 0.0
O34 O 0.62186 0.86609 0.94159 0.0
O35 O 0.58844 0.86662 0.91681 0.0
C36 C 0.65517 0.83411 0.88711 0.0
O37 O 0.6181 0.80297 0.93023 0.0
O38 O 0.57981 0.80923 0.92755 0.0
In39 In 0.51636 0.2822 0.17016 0.0
O40 O 0.50212 0.23881 0.15279 0.0
O41 O 0.53882 0.25674 0.14359 0.0
C42 C 0.52428 0.32103 0.14185 0.0
C43 C 0.47251 0.2862 0.193 0.0
C44 C 0.55146 0.28422 0.21116 0.0
O45 O 0.51364 0.29789 0.13091 0.0
O46 O 0.52996 0.3245 0.16684 0.0
O47 O 0.53055 0.26785 0.20679 0.0
O48 O 0.55488 0.29926 0.19453 0.0
C49 C 0.5221 0.23605 0.14123 0.0
O50 O 0.47231 0.27378 0.16923 0.0
O51 O 0.49443 0.29728 0.20424 0.0
In52 In 0.11482 0.80852 0.12543 0.0
O53 O 0.09907 0.77077 0.09614 0.0
O54 O 0.13641 0.77472 0.11565 0.0
C55 C 0.11342 0.83907 0.08857 0.0
C56 C 0.07293 0.80334 0.15318 0.0
C57 C 0.1551 0.82573 0.16254 0.0
O58 O 0.10314 0.81516 0.08391 0.0
O59 O 0.12401 0.84787 0.11214 0.0
O60 O 0.13231 0.82042 0.16846 0.0
O61 O 0.15769 0.82274 0.13763 0.0
C62 C 0.11827 0.76045 0.09948 0.0
O63 O 0.08545 0.78545 0.14691 0.0
O64 O 0.0813 0.82424 0.14516 0.0
In65 In 0.51636 0.79568 0.43126 0.0
O66 O 0.54955 0.78019 0.41068 0.0
O67 O 0.54274 0.81753 0.40615 0.0
C68 C 0.47214 0.78106 0.39925 0.0
C69 C 0.51934 0.76639 0.46907 0.0
C70 C 0.51775 0.84462 0.45796 0.0
O71 O 0.49374 0.78205 0.39004 0.0
O72 O 0.47295 0.78616 0.42459 0.0
O73 O 0.49787 0.83115 0.44381 0.0
O74 O 0.53664 0.83331 0.45857 0.0
C75 C 0.55623 0.80036 0.40081 0.0
O76 O 0.52598 0.79092 0.47373 0.0
O77 O 0.51146 0.75614 0.44486 0.0
In78 In 0.60778 0.29442 0.63454 0.0
O79 O 0.61882 0.26206 0.60387 0.0
O80 O 0.57938 0.26009 0.61038 0.0
C81 C 0.60408 0.32587 0.59929 0.0
C82 C 0.57445 0.29611 0.67224 0.0
C83 C 0.64981 0.29879 0.66822 0.0
O84 O 0.62517 0.31959 0.60533 0.0
O85 O 0.58584 0.31762 0.6122 0.0
O86 O 0.63582 0.27715 0.65723 0.0
O87 O 0.64333 0.31862 0.66128 0.0
C88 C 0.59593 0.24976 0.5979 0.0
O89 O 0.58574 0.31667 0.66531 0.0
O90 O 0.58006 0.27515 0.66019 0.0
In91 In 0.02074 0.29873 0.94371 0.0
O92 O 0.03302 0.29497 0.98605 0.0
O93 O 1.01088 0.26116 0.96012 0.0
C94 C 0.02475 0.35091 0.95767 0.0
C95 C 0.06201 0.28939 0.91802 0.0
C96 C 0.97505 0.28855 0.91452 0.0
O97 O 1.01595 0.33555 0.97265 0.0
O98 O 0.03129 0.33992 0.93568 0.0
O99 O 0.996 0.28976 0.904 0.0
O100 O 0.97707 0.29167 0.93984 0.0
C101 C 0.02223 0.27128 0.98318 0.0
O102 O 0.03977 0.27599 0.91044 0.0
O103 O 0.06347 0.30655 0.93917 0.0
In104 In 0.40147 0.05444 0.32671 0.0
O105 O 0.43354 0.06805 0.30194 0.0
O106 O 0.41137 0.02944 0.28888 0.0
C107 C 0.43904 0.06275 0.36672 0.0
C108 C 0.37349 0.09116 0.32263 0.0
C109 C 0.3647 1.01323 0.32951 0.0
O110 O 0.42549 0.07965 0.36433 0.0
O111 O 0.4333 0.04185 0.3493 0.0
O112 O 0.36734 0.02242 0.30843 0.0
O113 O 0.38074 0.02475 0.3492 0.0
C114 C 0.42976 0.04671 0.28504 0.0
O115 O 0.37588 0.08243 0.34394 0.0
O116 O 0.38627 0.08239 0.30415 0.0
In117 In 0.30163 0.21691 0.52429 0.0
O118 O 0.32022 0.2217 0.56709 0.0
O119 O 0.29679 0.24881 0.56168 0.0
C120 C 0.30213 0.24085 0.48001 0.0
C121 C 0.34081 0.19035 0.51904 0.0
C122 C 0.25529 0.18364 0.52118 0.0
O123 O 0.31545 0.25149 0.50197 0.0
O124 O 0.28827 0.21912 0.48086 0.0
O125 O 0.27521 0.17677 0.51235 0.0
O126 O 0.25839 0.20777 0.53156 0.0
C127 C 0.31101 0.24085 0.57796 0.0
O128 O 0.31803 0.17967 0.52122 0.0
O129 O 0.34385 0.21449 0.51854 0.0
In130 In 0.20222 0.04497 0.79648 0.0
O131 O 0.16348 0.04501 0.76807 0.0
O132 O 0.19484 0.04023 0.74698 0.0
C133 C 0.17681 0.04975 0.84817 0.0
C134 C 0.22614 0.99535 0.79317 0.0
C135 C 0.23127 0.09936 0.7989 0.0
O136 O 0.1661 0.03716 0.8253 0.0
O137 O 0.19997 0.05936 0.84523 0.0
O138 O 0.2413 0.07946 0.80037 0.0
O139 O 0.2071 0.09222 0.79687 0.0
C140 C 0.17164 0.04298 0.7449 0.0
O141 O 0.2384 1.01871 0.79433 0.0
O142 O 0.2025 0.99695 0.79348 0.0
In143 In 0.30686 0.98191 0.02031 0.0
O144 O 0.29957 0.94563 0.03881 0.0
O145 O 0.31356 0.98186 0.06571 0.0
C146 C 0.30623 0.94515 0.97385 0.0
C147 C 0.26173 1.00403 0.02493 0.0
C148 C 0.35882 1.0067 0.02384 0.0
O149 O 0.29722 0.93998 0.99507 0.0
O150 O 0.31461 0.96935 0.9752 0.0
O151 O 0.35006 0.98996 0.03746 0.0
O152 O 0.34127 1.01217 1.00904 0.0
C153 C 0.30654 0.95729 0.06276 0.0
O154 O 0.28423 1.01683 0.03294 0.0
O155 O 0.26209 0.981 1.01323 0.0
In156 In 0.34771 0.40601 0.06298 0.0
O157 O 0.33515 0.3721 0.08587 0.0
O158 O 0.34936 0.40962 0.10939 0.0
C159 C 0.34174 0.37671 1.01137 0.0
C160 C 0.31107 0.43516 0.05925 0.0
C161 C 0.39704 0.43302 0.06516 0.0
O162 O 0.35642 0.37262 0.02994 0.0
O163 O 0.32971 0.39473 0.019 0.0
O164 O 0.37853 0.44402 0.07159 0.0
O165 O 0.39083 0.40842 0.05825 0.0
C166 C 0.34026 0.38595 0.10928 0.0
O167 O 0.33484 0.44456 0.06104 0.0
O168 O 0.30566 0.41099 0.05976 0.0
In169 In 0.83485 0.13662 0.06292 0.0
O170 O 0.85837 0.10203 0.0533 0.0
O171 O 0.88017 0.13991 0.06466 0.0
C172 C 0.78276 0.11108 0.05721 0.0
C173 C 0.83519 0.16931 0.11206 0.0
C174 C 0.83345 0.16387 0.02286 0.0
O175 O 0.79304 0.12363 0.04052 0.0
O176 O 0.79899 0.10947 0.07582 0.0
O177 O 0.8369 0.17461 0.04749 0.0
O178 O 0.83135 0.13922 0.01826 0.0
C179 C 0.88079 0.11602 0.05709 0.0
O180 O 0.83912 0.17745 0.09054 0.0
O181 O 0.83229 0.14467 0.10922 0.0
In182 In 0.23914 0.56298 0.23742 0.0
O183 O 0.27984 0.55548 0.23687 0.0
O184 O 0.24979 0.52267 0.23504 0.0
C185 C 0.26418 0.61294 0.2495 0.0
C186 C 0.20681 0.54863 0.19228 0.0
C187 C 0.20832 0.56587 0.2776 0.0
O188 O 0.26359 0.59757 0.26581 0.0
O189 O 0.25246 0.60293 0.22653 0.0
O190 O 0.20828 0.57928 0.25952 0.0
O191 O 0.22432 0.55077 0.27575 0.0
C192 C 0.27361 0.53123 0.23587 0.0
O193 O 0.20054 0.54437 0.2148 0.0
O194 O 0.23005 0.5592 0.19197 0.0
In195 In 0.84809 0.90184 0.55839 0.0
O196 O 0.8396 0.86625 0.57947 0.0
O197 O 0.84886 0.90378 0.60439 0.0
C198 C 0.84322 0.87311 0.50675 0.0
C199 C 0.80805 0.92646 0.55466 0.0
C200 C 0.89467 0.9351 0.56418 0.0
O201 O 0.86036 0.87176 0.52446 0.0
O202 O 0.82842 0.88815 0.51525 0.0
O203 O 0.87421 0.94236 0.57071 0.0
O204 O 0.89191 0.91082 0.55509 0.0
C205 C 0.84256 0.87948 0.60319 0.0
O206 O 0.83072 0.93664 0.55125 0.0
O207 O 0.8056 0.90391 0.56033 0.0
In208 In 0.94635 0.07843 0.29008 0.0
O209 O 0.98347 0.08921 0.26432 0.0
O210 O 0.95201 0.06517 0.24129 0.0
C211 C 0.9732 0.08098 0.34405 0.0
C212 C 0.92205 0.12751 0.29208 0.0
C213 C 0.92008 0.02288 0.28669 0.0
O214 O 0.9833 0.07761 0.32193 0.0
O215 O 0.95056 0.08468 0.33936 0.0
O216 O 0.90817 0.04164 0.28573 0.0
O217 O 0.94395 0.03197 0.2884 0.0
C218 C 0.97506 0.07671 0.24064 0.0
O219 O 0.90973 0.10379 0.28813 0.0
O220 O 0.94578 0.1264 0.29503 0.0
In221 In 0.33695 0.63769 0.56502 0.0
O222 O 0.36196 0.60413 0.56522 0.0
O223 O 0.38125 0.64052 0.55979 0.0
C224 C 0.28576 0.61018 0.55601 0.0
C225 C 0.33984 0.67436 0.61196 0.0
C226 C 0.33027 0.6645 0.52539 0.0
O227 O 0.29752 0.61855 0.57926 0.0
O228 O 0.30038 0.6132 0.53761 0.0
O229 O 0.33139 0.67448 0.55005 0.0
O230 O 0.33319 0.64101 0.52054 0.0
C231 C 0.38322 0.61746 0.56104 0.0
O232 O 0.35099 0.67866 0.59149 0.0
O233 O 0.32825 0.65085 0.60972 0.0
In234 In 0.44454 0.57919 0.78867 0.0
O235 O 0.40788 0.6035 0.78805 0.0
O236 O 0.44293 0.62789 0.79405 0.0
C237 C 0.41358 0.5256 0.78663 0.0
C238 C 0.47008 0.57477 0.73687 0.0
C239 C 0.47549 0.57981 0.83997 0.0
O240 O 0.40452 0.54626 0.78627 0.0
O241 O 0.43778 0.53155 0.78733 0.0
O242 O 0.48282 0.57632 0.81644 0.0
O243 O 0.45303 0.58479 0.83843 0.0
C244 C 0.41885 0.62759 0.79158 0.0
O245 O 0.48018 0.58865 0.75945 0.0
O246 O 0.44746 0.56377 0.74015 0.0
In247 In 0.72209 0.06799 0.74285 0.0
O248 O 0.74316 0.03385 0.73283 0.0
O249 O 0.74843 0.05568 0.77285 0.0
C250 C 0.74737 0.11557 0.73789 0.0
C251 C 0.69397 0.04872 0.69545 0.0
C252 C 0.68982 0.0732 0.78151 0.0
O253 O 0.75747 0.10076 0.75019 0.0
O254 O 0.72464 0.1063 0.72787 0.0
O255 O 0.6902 0.05147 0.76651 0.0
O256 O 0.70585 0.0923 0.77714 0.0
C257 C 0.75391 0.03712 0.75634 0.0
O258 O 0.68418 0.05141 0.71759 0.0
O259 O 0.7182 0.05476 0.69729 0.0
In260 In 0.79831 0.71705 0.02075 0.0
O261 O 0.81366 0.67965 0.02347 0.0
O262 O 0.84078 0.71389 0.02165 0.0
C263 C 0.74936 0.68864 1.01723 0.0
C264 C 0.80305 0.74549 0.07246 0.0
C265 C 0.80578 0.73997 0.97631 0.0
O266 O 0.76814 0.67839 1.01 0.0
O267 O 0.75512 0.71313 0.02542 0.0
O268 O 0.79479 0.71647 0.97472 0.0
O269 O 0.81257 0.75207 1.00019 0.0
C270 C 0.83701 0.69008 0.02362 0.0
O271 O 0.78982 0.75067 0.05341 0.0
O272 O 0.81408 0.72655 0.06537 0.0
In273 In 0.91144 0.5693 0.84497 0.0
O274 O 0.87337 0.58312 0.8508 0.0
O275 O 0.8978 0.59912 0.82394 0.0
C276 C 0.89574 0.51902 0.84868 0.0
C277 C 0.93468 0.56275 0.79947 0.0
C278 C 0.9419 0.59047 0.89092 0.0
O279 O 0.88022 0.53351 0.84437 0.0
O280 O 0.91909 0.52994 0.85123 0.0
O281 O 0.95008 0.58774 0.86804 0.0
O282 O 0.91785 0.58415 0.8906 0.0
C283 C 0.87653 0.59767 0.83375 0.0
O284 O 0.94299 0.58129 0.81923 0.0
O285 O 0.91419 0.54763 0.80243 0.0
In286 In 0.80984 0.48857 0.51505 0.0
O287 O 0.80185 0.45052 0.5302 0.0
O288 O 0.81641 0.48518 0.55947 0.0
C289 C 0.80949 0.45496 0.46641 0.0
C290 C 0.76484 0.51035 0.52242 0.0
C291 C 0.86191 0.51344 0.51977 0.0
O292 O 0.80696 0.44762 0.48848 0.0
O293 O 0.81117 0.47941 0.46835 0.0
O294 O 0.84508 0.51734 0.50304 0.0
O295 O 0.8523 0.49865 0.53495 0.0
C296 C 0.80908 0.46051 0.55459 0.0
O297 O 0.78746 0.52385 0.52657 0.0
O298 O 0.76485 0.48654 0.5136 0.0
In299 In 0.70245 0.54336 0.2947 0.0
O300 O 0.73992 0.52028 0.29718 0.0
O301 O 0.70547 0.49497 0.28799 0.0
C302 C 0.73266 0.59739 0.29729 0.0
C303 C 0.6721 0.5422 0.24289 0.0
C304 C 0.67371 0.54512 0.34449 0.0
O305 O 0.74211 0.57732 0.29956 0.0
O306 O 0.70844 0.59063 0.29444 0.0
O307 O 0.66669 0.5302 0.32161 0.0
O308 O 0.69553 0.55905 0.34299 0.0
C309 C 0.72955 0.49594 0.29214 0.0
O310 O 0.66475 0.54648 0.26635 0.0
O311 O 0.69438 0.53679 0.24475 0.0
Eu312 Eu 0.08742 0.08744 0.05257 0.0
Eu313 Eu 0.05469 0.03122 0.0296 0.0
C314 C 0.09363 0.05838 0.988 0.0
C315 C 0.10238 0.15865 0.08379 0.0
C316 C 0.07709 0.1561 0.09098 0.0
C317 C 0.10415 0.20478 0.0849 0.0
C318 C 0.06484 0.17748 0.09335 0.0
C319 C 0.11635 0.18337 0.08248 0.0
C320 C 0.07775 0.20147 0.08829 0.0
C321 C 0.11152 0.13534 0.07115 0.0
O322 O 0.09575 0.02325 0.03566 0.0
O323 O 0.11909 0.0637 0.05501 0.0
C324 C 0.11816 0.03879 0.0448 0.0
O325 O 0.06636 0.07954 0.0911 0.0
O326 O 0.03028 1.00267 0.99745 0.0
O327 O 0.04081 0.99161 0.03515 0.0
O328 O 0.0414 0.03961 0.07331 0.0
C329 C 0.04777 0.05988 0.09397 0.0
O330 O 0.04677 0.09584 0.04398 0.0
O331 O 0.02264 0.05469 0.02988 0.0
O332 O 0.07323 0.04075 0.99089 0.0
O333 O 0.1109 0.11666 0.08488 0.0
O334 O 0.10228 0.12652 0.04607 0.0
O335 O 0.10246 0.07775 1.00916 0.0
C336 C 0.03886 0.96036 0.99622 0.0
C337 C 0.06406 0.9627 0.98878 0.0
C338 C 0.03568 0.91365 0.99196 0.0
C339 C 0.07559 0.94082 0.9848 0.0
C340 C 0.0242 0.93557 0.99603 0.0
C341 C 0.06203 0.91652 0.98844 0.0
C342 C 0.03042 0.9835 1.01037 0.0
C343 C 0.02403 0.08006 0.03741 0.0
H344 H 0.066 0.13706 0.09201 0.0
H345 H 0.11458 0.22298 0.08078 0.0
H346 H 0.04456 0.17449 0.0962 0.0
H347 H 0.13585 0.18558 0.07681 0.0
H348 H 0.07564 0.98181 0.98884 0.0
H349 H 0.02476 0.89522 0.99498 0.0
H350 H 0.09586 0.94348 0.9819 0.0
H351 H 1.00474 0.93352 1.00181 0.0
Eu352 Eu 0.31954 0.82699 0.28389 0.0
Eu353 Eu 0.28381 0.81102 0.33223 0.0
C354 C 0.25925 0.82725 0.28027 0.0
C355 C 0.34167 0.85994 0.22633 0.0
C356 C 0.31723 0.85805 0.21318 0.0
C357 C 0.35866 0.89436 0.20262 0.0
C358 C 0.31356 0.87406 0.19481 0.0
C359 C 0.36231 0.87829 0.22099 0.0
C360 C 0.33425 0.89236 0.18921 0.0
C361 C 0.34572 0.8434 0.24607 0.0
O362 O 0.2946 0.77438 0.31023 0.0
O363 O 0.29817 0.78553 0.26896 0.0
C364 C 0.29478 0.76782 0.28407 0.0
O365 O 0.34366 0.80685 0.3079 0.0
O366 O 0.25418 0.78439 0.34708 0.0
O367 O 0.27507 0.81951 0.37397 0.0
O368 O 0.32525 0.8161 0.34747 0.0
C369 C 0.34369 0.80819 0.33402 0.0
O370 O 0.32717 0.85949 0.3204 0.0
O371 O 0.28701 0.85416 0.33463 0.0
O372 O 0.25585 0.81156 0.29759 0.0
O373 O 0.34954 0.8552 0.27124 0.0
O374 O 0.33036 0.82064 0.24272 0.0
O375 O 0.28211 0.83955 0.27651 0.0
C376 C 0.26663 0.78124 0.39135 0.0
C377 C 0.28773 0.76885 0.38777 0.0
C378 C 0.2612 0.7664 0.43347 0.0
C379 C 0.2956 0.75539 0.40697 0.0
C380 C 0.25332 0.77985 0.41419 0.0
C381 C 0.28256 0.75419 0.43016 0.0
C382 C 0.25972 0.79689 0.37201 0.0
C383 C 0.30915 0.86896 0.3331 0.0
H384 H 0.30096 0.84416 0.21708 0.0
H385 H 0.37505 0.90804 0.19857 0.0
H386 H 0.29445 0.87222 0.18513 0.0
H387 H 0.3813 0.88014 0.23098 0.0
H388 H 0.29841 0.76999 0.37033 0.0
H389 H 0.25061 0.76558 0.45098 0.0
H390 H 0.31231 0.74653 0.404 0.0
H391 H 0.23708 0.78943 0.41729 0.0
Eu392 Eu 0.5976 0.04638 0.50909 0.0
Eu393 Eu 0.54357 0.0509 0.53857 0.0
C394 C 0.59444 0.04586 0.57239 0.0
C395 C 0.66174 0.02803 0.49626 0.0
C396 C 0.6612 1.01663 0.51915 0.0
C397 C 0.70393 1.01802 0.48949 0.0
C398 C 0.68197 1.00607 0.52724 0.0
C399 C 0.68316 0.02861 0.48145 0.0
C400 C 0.70366 1.00673 0.51255 0.0
C401 C 0.64031 0.03991 0.48824 0.0
O402 O 0.56834 0.091 0.54724 0.0
O403 O 0.59446 0.08852 0.51252 0.0
C404 C 0.58412 0.10202 0.5318 0.0
O405 O 0.56538 0.04024 0.47609 0.0
O406 O 0.5216 0.0678 0.57007 0.0
O407 O 0.50207 0.03816 0.53637 0.0
O408 O 0.54035 0.06516 0.5 0.0
C409 C 0.54681 0.05362 0.47705 0.0
O410 O 0.58355 1.00832 0.5216 0.0
O411 O 0.54081 1.00912 0.51727 0.0
O412 O 0.56921 0.03939 0.56928 0.0
O413 O 0.61835 0.02386 0.48054 0.0
O414 O 0.63774 0.06128 0.50442 0.0
O415 O 0.60792 0.05439 0.55376 0.0
C416 C 0.48021 0.07149 0.55345 0.0
C417 C 0.4823 0.0873 0.53397 0.0
C418 C 0.43944 0.08373 0.56344 0.0
C419 C 0.46289 0.101 0.52901 0.0
C420 C 0.45882 0.07004 0.56833 0.0
C421 C 0.44102 0.09909 0.54345 0.0
C422 C 0.4995 0.05545 0.5574 0.0
C423 C 0.55955 0.99617 0.51792 0.0
H424 H 0.64478 1.0161 0.53087 0.0
H425 H 0.72014 1.01851 0.47748 0.0
H426 H 0.68123 0.99782 0.54525 0.0
H427 H 0.68387 0.03731 0.46372 0.0
H428 H 0.4987 0.08862 0.52223 0.0
H429 H 0.42313 0.08218 0.57527 0.0
H430 H 0.46466 0.11245 0.51336 0.0
H431 H 0.45691 0.05799 0.58348 0.0
Eu432 Eu 0.29206 0.32242 0.79038 0.0
Eu433 Eu 0.34579 0.30475 0.79683 0.0
C434 C 0.29394 0.25869 0.79651 0.0
C435 C 0.2251 0.32644 0.80579 0.0
C436 C 0.23114 0.32108 0.83123 0.0
C437 C 0.18016 0.32073 0.81412 0.0
C438 C 0.21195 0.31609 0.84819 0.0
C439 C 0.1995 0.32602 0.7972 0.0
C440 C 0.1863 0.316 0.83988 0.0
C441 C 0.24561 0.33199 0.78835 0.0
O442 O 0.33542 0.2952 0.75124 0.0
O443 O 0.30208 0.31668 0.74765 0.0
C444 C 0.31842 0.30325 0.7365 0.0
O445 O 0.31936 0.36217 0.78807 0.0
O446 O 0.37314 0.27953 0.78548 0.0
O447 O 0.3842 0.31335 0.81783 0.0
O448 O 0.3577 0.34891 0.79266 0.0
C449 C 0.34493 0.36795 0.78987 0.0
O450 O 0.30241 0.33348 0.835 0.0
O451 O 0.3355 0.31226 0.84019 0.0
O452 O 0.31938 0.26477 0.79856 0.0
O453 O 0.26574 0.34918 0.79989 0.0
O454 O 0.25185 0.3115 0.77381 0.0
O455 O 0.28095 0.27766 0.7938 0.0
C456 C 0.41606 0.30144 0.79088 0.0
C457 C 0.4178 0.31699 0.77123 0.0
C458 C 0.46035 0.29732 0.78724 0.0
C459 C 0.44065 0.32229 0.75924 0.0
C460 C 0.43751 0.29203 0.79917 0.0
C461 C 0.46198 0.31205 0.76676 0.0
C462 C 0.39178 0.29431 0.80225 0.0
C463 C 0.31899 0.32608 0.8505 0.0
H464 H 0.25077 0.3209 0.83803 0.0
H465 H 0.16052 0.32092 0.80733 0.0
H466 H 0.21714 0.3122 0.8678 0.0
H467 H 0.19451 0.32991 0.77754 0.0
H468 H 0.40131 0.32445 0.76472 0.0
H469 H 0.47661 0.28947 0.79366 0.0
H470 H 0.44126 0.33345 0.74334 0.0
H471 H 0.43644 0.28016 0.81449 0.0
Eu472 Eu 0.06241 0.08084 0.55731 0.0
Eu473 Eu 0.08773 0.0346 0.52596 0.0
C474 C 0.11796 0.09464 0.53212 0.0
C475 C 0.0467 0.14766 0.57314 0.0
C476 C 0.0264 0.15323 0.55762 0.0
C477 C 0.07376 0.18796 0.567 0.0
C478 C 0.03014 0.17536 0.5459 0.0
C479 C 0.07005 0.16589 0.57871 0.0
C480 C 0.05421 0.1923 0.5496 0.0
C481 C 0.04471 0.12151 0.58014 0.0
O482 O 0.10502 0.03893 0.57027 0.0
O483 O 0.08347 0.06806 0.59367 0.0
C484 C 0.10036 0.05223 0.59377 0.0
O485 O 0.03286 0.046 0.56106 0.0
O486 O 0.11877 1.01276 0.51989 0.0
O487 O 0.08247 0.99843 0.49582 0.0
O488 O 0.05123 1.01324 0.53907 0.0
C489 C 0.03251 0.02116 0.55193 0.0
O490 O 0.04624 0.07775 0.51201 0.0
O491 O 0.06817 0.04816 0.48994 0.0
O492 O 0.11753 0.06977 0.52249 0.0
O493 O 0.03085 0.10201 0.56279 0.0
O494 O 0.06607 0.11569 0.58884 0.0
O495 O 0.09915 0.10245 0.545 0.0
C496 C 0.10127 0.96722 0.51351 0.0
C497 C 0.11702 0.96468 0.53572 0.0
C498 C 0.07519 0.92449 0.51423 0.0
C499 C 0.11146 0.9427 0.54751 0.0
C500 C 0.08081 0.94645 0.50235 0.0
C501 C 0.09006 0.92269 0.53737 0.0
C502 C 0.10385 0.99257 0.5044 0.0
C503 C 0.05166 0.06419 0.48883 0.0
H504 H 1.00812 0.13967 0.55321 0.0
H505 H 0.09234 0.20105 0.57063 0.0
H506 H 1.01471 0.17826 0.53259 0.0
H507 H 0.086 0.16246 0.59091 0.0
H508 H 0.13297 0.98022 0.54486 0.0
H509 H 0.05885 0.90918 0.50565 0.0
H510 H 0.12323 0.94202 0.56541 0.0
H511 H 0.06841 0.9477 0.48514 0.0
Eu512 Eu 0.3532 0.83041 0.78363 0.0
Eu513 Eu 0.30223 0.79865 0.79869 0.0
C514 C 0.33513 0.84523 0.84359 0.0
C515 C 0.41901 0.84544 0.76135 0.0
C516 C 0.44291 0.86224 0.76783 0.0
C517 C 0.4401 0.80827 0.75146 0.0
C518 C 0.46525 0.85198 0.76778 0.0
C519 C 0.41771 0.81858 0.75175 0.0
C520 C 0.46396 0.82467 0.76124 0.0
C521 C 0.39631 0.85478 0.77096 0.0
O522 O 0.2886 0.83877 0.79339 0.0
O523 O 0.32489 0.85977 0.77884 0.0
C524 C 0.30103 0.86046 0.78593 0.0
O525 O 0.34169 0.79779 0.74744 0.0
O526 O 0.27286 0.79308 0.82664 0.0
O527 O 0.27043 0.76505 0.78968 0.0
O528 O 0.29951 0.78529 0.7531 0.0
C529 C 0.31916 0.78319 0.73881 0.0
O530 O 0.36748 0.79252 0.79354 0.0
O531 O 0.3296 0.76718 0.79947 0.0
O532 O 0.32116 0.82147 0.83958 0.0
O533 O 0.37533 0.84811 0.75445 0.0
O534 O 0.39226 0.85153 0.79539 0.0
O535 O 0.34776 0.85306 0.82428 0.0
C536 C 0.23201 0.77462 0.80438 0.0
C537 C 0.21212 0.75456 0.80781 0.0
C538 C 0.20129 0.79488 0.78298 0.0
C539 C 0.18687 0.75439 0.79838 0.0
C540 C 0.22641 0.79505 0.79246 0.0
C541 C 0.1813 0.77424 0.78527 0.0
C542 C 0.25876 0.77294 0.81051 0.0
C543 C 0.35478 0.76899 0.79661 0.0
H544 H 0.44418 0.88298 0.7755 0.0
H545 H 0.43845 0.78725 0.74578 0.0
H546 H 0.48311 0.86533 0.77567 0.0
H547 H 0.39929 0.80529 0.74676 0.0
H548 H 0.21624 0.7386 0.81691 0.0
H549 H 0.19782 0.81021 0.77257 0.0
H550 H 0.17183 0.73838 0.80068 0.0
H551 H 0.24161 0.81054 0.7894 0.0
Eu552 Eu 0.57504 0.05154 0.0665 0.0
Eu553 Eu 0.56627 0.07078 1.0105 0.0
C554 C 0.5675 0.10913 0.06545 0.0
C555 C 0.56388 0.03678 0.13496 0.0
C556 C 0.53724 0.03462 0.13031 0.0
C557 C 0.56016 0.04291 0.18297 0.0
C558 C 0.52216 0.03659 0.15186 0.0
C559 C 0.57525 0.04072 0.16134 0.0
C560 C 0.53351 0.04106 0.1784 0.0
C561 C 0.58002 0.03716 0.11258 0.0
O562 O 0.60996 0.07247 1.01526 0.0
O563 O 0.61571 0.07103 0.06012 0.0
C564 C 0.62536 0.07478 0.03744 0.0
O565 O 0.58661 0.02196 0.03436 0.0
O566 O 0.55885 0.10039 0.98771 0.0
O567 O 0.5619 0.06171 0.96682 0.0
O568 O 0.55766 0.02681 1.00208 0.0
C569 C 0.57277 1.0129 1.01132 0.0
O570 O 0.532 0.03671 0.05339 0.0
O571 O 0.52544 0.06334 0.02382 0.0
O572 O 0.57819 0.10677 0.04285 0.0
O573 O 0.57077 0.02086 0.09011 0.0
O574 O 0.58992 0.06048 0.10875 0.0
O575 O 0.55907 0.08841 0.07538 0.0
C576 C 0.57581 0.09628 0.94543 0.0
C577 C 0.6024 0.10467 0.95187 0.0
C578 C 0.58102 0.09938 0.89902 0.0
C579 C 0.61833 0.1097 0.93171 0.0
C580 C 0.56513 0.09453 0.91916 0.0
C581 C 0.6078 0.10605 0.90494 0.0
C582 C 0.55964 0.08531 0.9645 0.0
C583 C 0.51615 0.04642 0.03871 0.0
H584 H 0.52818 0.03203 0.11008 0.0
H585 H 0.56932 0.04622 0.20326 0.0
H586 H 0.50172 0.03548 0.14781 0.0
H587 H 0.59582 0.04267 0.16522 0.0
H588 H 0.61092 0.10584 0.97207 0.0
H589 H 0.57251 0.09659 0.87852 0.0
H590 H 0.63894 0.1146 0.9367 0.0
H591 H 0.54465 0.08792 0.9139 0.0
Eu592 Eu 0.34031 0.35935 0.32126 0.0
Eu593 Eu 0.30448 0.30414 0.28796 0.0
C594 C 0.32355 0.35116 0.25666 0.0
C595 C 0.37707 0.42696 0.32998 0.0
C596 C 0.38069 0.42131 0.30247 0.0
C597 C 0.37576 0.47179 0.32668 0.0
C598 C 0.38018 0.44035 0.28687 0.0
C599 C 0.37624 0.4527 0.34231 0.0
C600 C 0.37586 0.46515 0.29857 0.0
C601 C 0.36702 0.40539 0.3433 0.0
O602 O 0.34439 0.29584 0.28999 0.0
O603 O 0.36608 0.33847 0.29591 0.0
C604 C 0.36518 0.31321 0.28925 0.0
O605 O 0.34225 0.33227 0.35079 0.0
O606 O 0.29498 0.27015 0.25506 0.0
O607 O 0.26788 0.27681 0.28457 0.0
O608 O 0.30833 0.29909 0.33164 0.0
C609 C 0.32551 0.31093 0.35202 0.0
O610 O 0.30124 0.35414 0.3362 0.0
O611 O 0.28104 0.33542 0.2952 0.0
O612 O 0.31702 0.3257 0.25494 0.0
O613 O 0.34199 0.39966 0.34144 0.0
O614 O 0.37712 0.38449 0.33822 0.0
O615 O 0.32815 0.36742 0.28023 0.0
C616 C 0.27433 0.23387 0.27053 0.0
C617 C 0.2842 0.23139 0.29593 0.0
C618 C 0.27557 0.18836 0.25318 0.0
C619 C 0.2908 0.20799 0.29966 0.0
C620 C 0.26913 0.212 0.24941 0.0
C621 C 0.28761 0.18653 0.27802 0.0
C622 C 0.27437 0.2601 0.26515 0.0
C623 C 0.28014 0.34724 0.31996 0.0
H624 H 0.38115 0.40149 0.29246 0.0
H625 H 0.37227 0.49074 0.33616 0.0
H626 H 0.38044 0.43488 0.26526 0.0
H627 H 0.37319 0.45733 0.36343 0.0
H628 H 0.28864 0.24811 0.31245 0.0
H629 H 0.27244 0.17203 0.23625 0.0
H630 H 0.30034 0.20759 0.31896 0.0
H631 H 0.26164 0.21366 0.22963 0.0
Eu632 Eu 0.56728 0.58617 0.05711 0.0
Eu633 Eu 0.58016 0.53296 0.02478 0.0
C634 C 0.61977 0.58651 0.02513 0.0
C635 C 0.5664 0.65565 0.063 0.0
C636 C 0.57954 0.65242 0.03982 0.0
C637 C 0.56731 0.70101 0.0599 0.0
C638 C 0.58706 0.67331 0.02716 0.0
C639 C 0.5602 0.68002 0.07303 0.0
C640 C 0.58106 0.69777 0.03705 0.0
C641 C 0.55957 0.63307 0.07591 0.0
O642 O 0.59993 0.53746 0.06884 0.0
O643 O 0.58597 0.57207 0.09344 0.0
C644 C 0.59918 0.55292 0.09269 0.0
O645 O 0.53578 0.55724 0.06901 0.0
O646 O 0.60479 0.50385 0.0198 0.0
O647 O 0.56777 0.49538 0.99701 0.0
O648 O 0.54087 0.52121 0.03874 0.0
C649 C 0.52801 0.53269 0.05705 0.0
O650 O 0.54722 0.58152 1.01325 0.0
O651 O 0.56213 0.54773 0.98843 0.0
O652 O 0.61252 0.5617 1.01375 0.0
O653 O 0.54166 0.61431 0.06235 0.0
O654 O 0.57916 0.62409 0.08436 0.0
O655 O 0.60636 0.59818 0.04275 0.0
C656 C 0.57883 0.4627 1.0179 0.0
C657 C 0.56691 0.46616 0.04186 0.0
C658 C 0.57414 0.41629 0.01843 0.0
C659 C 0.55847 0.44499 0.0539 0.0
C660 C 0.58233 0.43764 1.00609 0.0
C661 C 0.56226 0.41983 0.04261 0.0
C662 C 0.58672 0.48563 1.00566 0.0
C663 C 0.54847 0.56655 0.98929 0.0
H664 H 0.58391 0.63362 0.03135 0.0
H665 H 0.56234 0.71975 0.06767 0.0
H666 H 0.59717 0.6702 1.00926 0.0
H667 H 0.54988 0.68276 0.0908 0.0
H668 H 0.56407 0.48535 0.05133 0.0
H669 H 0.57747 0.39717 1.00931 0.0
H670 H 0.54887 0.44842 0.07209 0.0
H671 H 0.59145 0.43464 0.98754 0.0
Eu672 Eu 0.84765 0.32607 0.28649 0.0
Eu673 Eu 0.79655 0.29243 0.2962 0.0
C674 C 0.82351 0.33882 0.34381 0.0
C675 C 0.91804 0.3422 0.27724 0.0
C676 C 0.94101 0.35992 0.28661 0.0
C677 C 0.94117 0.30632 0.2722 0.0
C678 C 0.96375 0.35082 0.29001 0.0
C679 C 0.91837 0.31548 0.26889 0.0
C680 C 0.96384 0.32376 0.28411 0.0
C681 C 0.89377 0.35075 0.28209 0.0
O682 O 0.78361 0.33229 0.28964 0.0
O683 O 0.82136 0.3581 0.28416 0.0
C684 C 0.79612 0.356 0.28676 0.0
O685 O 0.8319 0.30598 0.24401 0.0
O686 O 0.76908 0.27318 0.32022 0.0
O687 O 0.75902 0.2715 0.27774 0.0
O688 O 0.80788 0.27127 0.25681 0.0
C689 C 0.82014 0.2814 0.23839 0.0
O690 O 0.86031 0.28508 0.29191 0.0
O691 O 0.82253 0.26132 0.30012 0.0
O692 O 0.81084 0.31453 0.33853 0.0
O693 O 0.87562 0.34427 0.26221 0.0
O694 O 0.88532 0.34668 0.30487 0.0
O695 O 0.83698 0.34802 0.32566 0.0
C696 C 0.72613 0.27337 0.3056 0.0
C697 C 0.72427 0.29971 0.31364 0.0
C698 C 0.6802 0.26164 0.29444 0.0
C699 C 0.7005 0.30712 0.311 0.0
C700 C 0.7039 0.25427 0.29724 0.0
C701 C 0.67843 0.28829 0.29997 0.0
C702 C 0.75094 0.26639 0.30034 0.0
C703 C 0.84727 0.26206 0.29627 0.0
H704 H 0.94099 0.38055 0.29344 0.0
H705 H 0.94066 0.28544 0.26709 0.0
H706 H 0.98068 0.36486 0.29955 0.0
H707 H 0.9007 0.30149 0.26171 0.0
H708 H 0.74139 0.31472 0.32004 0.0
H709 H 0.66377 0.24658 0.28558 0.0
H710 H 0.69971 0.32775 0.31584 0.0
H711 H 0.70513 0.23389 0.29073 0.0
Eu712 Eu 0.07533 0.55392 0.57226 0.0
Eu713 Eu 0.07333 0.56859 0.5136 0.0
C714 C 0.06326 0.60902 0.56452 0.0
C715 C 0.06103 0.54448 0.64228 0.0
C716 C 0.03532 0.54669 0.63779 0.0
C717 C 0.05698 0.54997 0.69014 0.0
C718 C 0.02049 0.55054 0.65944 0.0
C719 C 0.07174 0.54594 0.66847 0.0
C720 C 0.0313 0.55253 0.68583 0.0
C721 C 0.07729 0.54252 0.62005 0.0
O722 O 0.11602 0.56715 0.52401 0.0
O723 O 0.1152 0.57691 0.56943 0.0
C724 C 0.12847 0.57508 0.54831 0.0
O725 O 0.08907 0.52164 0.54483 0.0
O726 O 0.08648 0.59601 0.48771 0.0
O727 O 0.05965 0.55995 0.47098 0.0
O728 O 0.06632 0.52497 0.50676 0.0
C729 C 0.07837 0.51144 0.52041 0.0
O730 O 0.03339 0.53927 0.55563 0.0
O731 O 0.03069 0.56312 0.52249 0.0
O732 O 0.07545 0.60615 0.54288 0.0
O733 O 0.06763 0.52546 0.59824 0.0
O734 O 0.08854 0.56487 0.61493 0.0
O735 O 0.05712 0.5896 0.57713 0.0
C736 C 0.09128 0.57543 0.44381 0.0
C737 C 0.09883 0.55118 0.43658 0.0
C738 C 0.11721 0.59219 0.41076 0.0
C739 C 0.11529 0.54741 0.41636 0.0
C740 C 0.10058 0.59586 0.43077 0.0
C741 C 0.12469 0.5679 0.40323 0.0
C742 C 0.07501 0.58026 0.46587 0.0
C743 C 0.01936 0.54802 0.53828 0.0
H744 H 0.02689 0.54594 0.61764 0.0
H745 H 0.06566 0.55118 0.71028 0.0
H746 H 1.00082 0.55272 0.65563 0.0
H747 H 0.09163 0.54442 0.67219 0.0
H748 H 0.09214 0.5352 0.44664 0.0
H749 H 0.12449 0.60856 0.40147 0.0
H750 H 0.12047 0.5284 0.41088 0.0
H751 H 0.09525 0.6148 0.43636 0.0
Eu752 Eu 0.79356 0.81739 0.28462 0.0
Eu753 Eu 0.84957 0.80424 0.29429 0.0
C754 C 0.79768 0.75592 0.29332 0.0
C755 C 0.72339 0.81749 0.29139 0.0
C756 C 0.72402 0.80298 0.31185 0.0
C757 C 0.67841 0.81775 0.29628 0.0
C758 C 0.70199 0.79614 0.3247 0.0
C759 C 0.70047 0.82461 0.28347 0.0
C760 C 0.67902 0.80373 0.31728 0.0
C761 C 0.74673 0.8255 0.27862 0.0
O762 O 0.8416 0.79406 0.24915 0.0
O763 O 0.80457 0.80904 0.2419 0.0
C764 C 0.82351 0.79825 0.23279 0.0
O765 O 0.81914 0.85785 0.2835 0.0
O766 O 0.87635 0.77756 0.28755 0.0
O767 O 0.88973 0.81661 0.31087 0.0
O768 O 0.8593 0.84907 0.29026 0.0
C769 C 0.84448 0.86625 0.28651 0.0
O770 O 0.80086 0.8255 0.33012 0.0
O771 O 0.83964 0.81345 0.33705 0.0
O772 O 0.82322 0.76362 0.29697 0.0
O773 O 0.7652 0.84186 0.2943 0.0
O774 O 0.75505 0.80662 0.26362 0.0
O775 O 0.78375 0.77342 0.28862 0.0
C776 C 0.91816 0.79902 0.28149 0.0
C777 C 0.9373 0.82189 0.2877 0.0
C778 C 0.93955 0.78385 0.24223 0.0
C779 C 0.95722 0.82581 0.27117 0.0
C780 C 0.91968 0.77993 0.25871 0.0
C781 C 0.95851 0.80685 0.2482 0.0
C782 C 0.89632 0.79544 0.29817 0.0
C783 C 0.81981 0.82245 0.34631 0.0
H784 H 0.74165 0.79731 0.31814 0.0
H785 H 0.66091 0.82354 0.28984 0.0
H786 H 0.70316 0.78559 0.34097 0.0
H787 H 0.6997 0.83567 0.26758 0.0
H788 H 0.9368 0.83687 0.30524 0.0
H789 H 0.93983 0.76898 0.22453 0.0
H790 H 0.97176 0.84356 0.27652 0.0
H791 H 0.90533 0.76203 0.25334 0.0
Eu792 Eu 0.83 0.32265 0.76929 0.0
Eu793 Eu 0.80196 0.31353 0.82446 0.0
C794 C 0.77215 0.32621 0.77401 0.0
C795 C 0.84581 0.35165 0.70769 0.0
C796 C 0.83738 0.37488 0.71788 0.0
C797 C 0.84676 0.36359 0.66376 0.0
C798 C 0.83369 0.39238 0.70107 0.0
C799 C 0.85059 0.34622 0.68059 0.0
C800 C 0.83807 0.38678 0.67373 0.0
C801 C 0.84821 0.33227 0.72461 0.0
O802 O 0.81152 0.27517 0.80589 0.0
O803 O 0.80921 0.28044 0.76211 0.0
C804 C 0.80882 0.26543 0.78005 0.0
O805 O 0.85786 0.30524 0.7919 0.0
O806 O 0.7731 0.29089 0.84433 0.0
O807 O 0.79898 0.32515 0.86751 0.0
O808 O 0.84438 0.317 0.83398 0.0
C809 C 0.86117 0.30852 0.81827 0.0
O810 O 0.84344 0.35853 0.80157 0.0
O811 O 0.80766 0.3567 0.82472 0.0
O812 O 0.77105 0.31019 0.79099 0.0
O813 O 0.8608 0.3411 0.74833 0.0
O814 O 0.82723 0.31543 0.72542 0.0
O815 O 0.79419 0.33936 0.76938 0.0
C816 C 0.78848 0.28893 0.88824 0.0
C817 C 0.80676 0.27293 0.88344 0.0
C818 C 0.78393 0.27692 0.93188 0.0
C819 C 0.81356 0.25897 0.90273 0.0
C820 C 0.77708 0.2908 0.91252 0.0
C821 C 0.80231 0.2609 0.92726 0.0
C822 C 0.78194 0.30428 0.86834 0.0
C823 C 0.82897 0.36983 0.81821 0.0
H824 H 0.8333 0.37926 0.73872 0.0
H825 H 0.85062 0.35887 0.64289 0.0
H826 H 0.82677 0.40994 0.70929 0.0
H827 H 0.85698 0.32834 0.67236 0.0
H828 H 0.81594 0.27144 0.86485 0.0
H829 H 0.7747 0.2786 0.95042 0.0
H830 H 0.82799 0.24708 0.89868 0.0
H831 H 0.76299 0.30309 0.91658 0.0
Eu832 Eu 0.83516 0.8381 0.80914 0.0
Eu833 Eu 0.80025 0.7849 0.77047 0.0
C834 C 0.82091 0.83581 0.74557 0.0
C835 C 0.85734 0.90999 0.83499 0.0
C836 C 0.8436 0.92421 0.85315 0.0
C837 C 0.85776 0.94252 0.80683 0.0
C838 C 0.83583 0.9466 0.84746 0.0
C839 C 0.86539 0.92006 0.81242 0.0
C840 C 0.84187 0.95528 0.82361 0.0
C841 C 0.85948 0.88306 0.83744 0.0
O842 O 0.84003 0.77604 0.77295 0.0
O843 O 0.86266 0.81829 0.78547 0.0
C844 C 0.86134 0.79352 0.77485 0.0
O845 O 0.83654 0.80725 0.83455 0.0
O846 O 0.79325 0.75203 0.73628 0.0
O847 O 0.76298 0.75833 0.76193 0.0
O848 O 0.80115 0.77725 0.81308 0.0
C849 C 0.81838 0.78653 0.83397 0.0
O850 O 0.79436 0.83471 0.81878 0.0
O851 O 0.77548 0.8151 0.77712 0.0
O852 O 0.81559 0.81011 0.74153 0.0
O853 O 0.83917 0.86924 0.84471 0.0
O854 O 0.8692 0.86944 0.81795 0.0
O855 O 0.82324 0.85024 0.77009 0.0
C856 C 0.76928 0.71513 0.74831 0.0
C857 C 0.77017 0.71096 0.77484 0.0
C858 C 0.77981 0.67249 0.73324 0.0
C859 C 0.7776 0.68859 0.78074 0.0
C860 C 0.7726 0.69509 0.72736 0.0
C861 C 0.78416 0.66994 0.76017 0.0
C862 C 0.77112 0.7419 0.74352 0.0
C863 C 0.77415 0.82815 0.8013 0.0
H864 H 0.83732 0.91699 0.87079 0.0
H865 H 0.8632 0.94913 0.78862 0.0
H866 H 0.82356 0.95595 0.86078 0.0
H867 H 0.87627 0.90978 0.79815 0.0
H868 H 0.76757 0.72606 0.79141 0.0
H869 H 0.78407 0.6581 0.71688 0.0
H870 H 0.78074 0.68746 0.80171 0.0
H871 H 0.77188 0.69791 0.70674 0.0
Eu872 Eu 0.59018 0.5937 0.55326 0.0
Eu873 Eu 0.55937 0.53634 0.53244 0.0
C874 C 0.59851 0.56358 0.48998 0.0
C875 C 0.60131 0.66475 0.5831 0.0
C876 C 0.57546 0.66043 0.58855 0.0
C877 C 0.59983 0.70983 0.58165 0.0
C878 C 0.56135 0.68018 0.58833 0.0
C879 C 0.61387 0.68997 0.58156 0.0
C880 C 0.57308 0.70437 0.58279 0.0
C881 C 0.61224 0.64235 0.57127 0.0
O882 O 0.60019 0.52976 0.54314 0.0
O883 O 0.62339 0.57161 0.55276 0.0
C884 C 0.62264 0.5462 0.54753 0.0
O885 O 0.57218 0.58479 0.59258 0.0
O886 O 0.53821 0.50517 0.50006 0.0
O887 O 0.54403 0.49817 0.54062 0.0
O888 O 0.5443 0.54648 0.57573 0.0
C889 C 0.55252 0.56664 0.59625 0.0
O890 O 0.54889 0.60025 0.54491 0.0
O891 O 0.52637 0.55847 0.53026 0.0
O892 O 0.5806 0.54359 0.49361 0.0
O893 O 0.61262 0.62407 0.58536 0.0
O894 O 0.60359 0.63282 0.54614 0.0
O895 O 0.604 0.5846 0.50989 0.0
C896 C 0.54485 0.46333 0.50559 0.0
C897 C 0.52685 0.44051 0.49476 0.0
C898 C 0.57686 0.43735 0.51204 0.0
C899 C 0.53354 0.41604 0.49385 0.0
C900 C 0.57035 0.46165 0.51206 0.0
C901 C 0.55796 0.41424 0.50493 0.0
C902 C 0.53622 0.48779 0.51545 0.0
C903 C 0.5267 0.58367 0.53795 0.0
H904 H 0.56546 0.641 0.58977 0.0
H905 H 0.60931 0.72829 0.57724 0.0
H906 H 0.54077 0.67558 0.58934 0.0
H907 H 0.63377 0.69353 0.5772 0.0
H908 H 0.50715 0.44151 0.48913 0.0
H909 H 0.59596 0.43724 0.5205 0.0
H910 H 0.51882 0.39867 0.48684 0.0
H911 H 0.58459 0.47918 0.51999 0.0
Eu912 Eu 0.09216 0.55228 0.02667 0.0
Eu913 Eu 0.03894 0.55582 0.05829 0.0
C914 C 0.0898 0.54533 0.08683 0.0
C915 C 0.15431 0.52954 1.01255 0.0
C916 C 0.14813 0.51013 0.02789 0.0
C917 C 0.19676 0.5189 1.00921 0.0
C918 C 0.16616 0.4953 0.03396 0.0
C919 C 0.1787 0.53377 1.0032 0.0
C920 C 0.19079 0.49955 0.0248 0.0
C921 C 0.13604 0.54652 1.0079 0.0
O922 O 0.05401 0.59571 0.05057 0.0
O923 O 0.09664 0.59368 0.05011 0.0
C924 C 0.07817 0.60713 0.05218 0.0
O925 O 0.06824 0.56954 0.99934 0.0
O926 O 0.01844 0.57562 0.08932 0.0
O927 O 0.9983 0.54107 0.06119 0.0
O928 O 0.02915 0.5546 1.01431 0.0
C929 C 0.04298 0.56549 0.99718 0.0
O930 O 0.06327 0.51505 1.01145 0.0
O931 O 0.04149 0.51324 0.04895 0.0
O932 O 0.07133 0.55873 0.09023 0.0
O933 O 0.11377 0.53495 0.99505 0.0
O934 O 0.13379 0.56414 0.02876 0.0
O935 O 0.09411 0.53411 0.06284 0.0
C936 C 0.97574 0.57517 0.07327 0.0
C937 C 0.9791 0.59198 0.0548 0.0
C938 C 0.93266 0.58372 0.07795 0.0
C939 C 0.95931 0.60439 0.04773 0.0
C940 C 0.95243 0.5712 0.08486 0.0
C941 C 0.93572 0.60036 0.05913 0.0
C942 C 0.99613 0.56107 0.07962 0.0
C943 C 0.04849 0.50177 0.02611 0.0
H944 H 0.12947 0.50674 0.03554 0.0
H945 H 0.21538 0.52249 1.00151 0.0
H946 H 0.16097 0.48086 0.04631 0.0
H947 H 0.18389 0.54877 0.99147 0.0
H948 H 0.997 0.59531 0.04565 0.0
H949 H 0.915 0.58046 0.08751 0.0
H950 H 0.96235 0.61673 0.03295 0.0
H951 H 0.94947 0.55832 0.09917 0.0
H952 H 0.04913 0.28834 0.0321 0.0
H953 H 0.99995 0.22051 0.98225 0.0
H954 H 1.0086 0.19384 1.0149 0.0
H955 H 0.03573 0.18843 0.05292 0.0
H956 H 0.08774 0.25523 0.10096 0.0
H957 H 0.07187 0.28397 0.07402 0.0
C958 C 0.03998 0.26781 0.02861 0.0
C959 C 0.02435 0.25623 1.0046 0.0
C960 C 0.04557 0.25249 0.04711 0.0
C961 C 1.01237 0.22973 1.00042 0.0
C962 C 1.01729 0.2145 0.01908 0.0
C963 C 0.0429 0.20942 0.05825 0.0
C964 C 0.06298 0.21974 0.0788 0.0
C965 C 0.03462 0.22547 0.04192 0.0
C966 C 0.07235 0.24691 0.08513 0.0
C967 C 0.06345 0.26325 0.06959 0.0
H968 H 0.15408 0.81983 0.21401 0.0
H969 H 0.20519 0.84544 0.15697 0.0
H970 H 0.2421 0.85117 0.19012 0.0
H971 H 0.25971 0.84491 0.23354 0.0
H972 H 0.20866 0.81541 0.28882 0.0
H973 H 0.1716 0.81543 0.25812 0.0
C974 C 0.17327 0.82703 0.20897 0.0
C975 C 0.17703 0.83214 0.18316 0.0
C976 C 0.1943 0.82937 0.2277 0.0
C977 C 0.20194 0.84129 0.17675 0.0
C978 C 0.22298 0.84451 0.19564 0.0
C979 C 0.2405 0.83875 0.23902 0.0
C980 C 0.23691 0.82994 0.26327 0.0
C981 C 0.21939 0.83799 0.22092 0.0
C982 C 0.21189 0.82204 0.27012 0.0
C983 C 0.19072 0.82204 0.2526 0.0
H984 H 0.55819 0.87574 0.48939 0.0
H985 H 0.48139 0.87489 0.45635 0.0
H986 H 0.48666 0.92185 0.47461 0.0
H987 H 0.51467 0.96366 0.49625 0.0
H988 H 0.59208 0.96411 0.52746 0.0
H989 H 0.58488 0.91662 0.51378 0.0
C990 C 0.54251 0.88577 0.4864 0.0
C991 C 0.51957 0.87205 0.47134 0.0
C992 C 0.54583 0.91267 0.49649 0.0
C993 C 0.49931 0.88517 0.46779 0.0
C994 C 0.50233 0.91198 0.47815 0.0
C995 C 0.52982 0.95331 0.50038 0.0
C996 C 0.55394 0.96735 0.51254 0.0
C997 C 0.52574 0.92603 0.49199 0.0
C998 C 0.57342 0.95373 0.51781 0.0
C999 C 0.56934 0.92659 0.51002 0.0
H1000 H 0.55338 0.33693 0.69556 0.0
H1001 H 0.55255 0.25484 0.69319 0.0
H1002 H 0.51876 0.25313 0.72356 0.0
H1003 H 0.48773 0.27399 0.74839 0.0
H1004 H 0.48731 0.35576 0.75068 0.0
H1005 H 0.52325 0.35855 0.72255 0.0
C1006 C 0.54592 0.31877 0.70192 0.0
C1007 C 0.55532 0.29604 0.69209 0.0
C1008 C 0.5262 0.31781 0.71917 0.0
C1009 C 0.54551 0.27259 0.70039 0.0
C1010 C 0.52619 0.27156 0.71775 0.0
C1011 C 0.49582 0.29257 0.7432 0.0
C1012 C 0.48499 0.31465 0.75165 0.0
C1013 C 0.51618 0.29394 0.72695 0.0
C1014 C 0.49527 0.33844 0.74423 0.0
C1015 C 0.51582 0.34005 0.72823 0.0
H1016 H 0.07724 0.83669 0.60931 0.0
H1017 H 0.99775 0.84289 0.59788 0.0
H1018 H 1.00905 0.87443 0.56864 0.0
H1019 H 0.04195 0.90182 0.54824 0.0
H1020 H 0.12132 0.89499 0.55962 0.0
H1021 H 0.10961 0.86213 0.58709 0.0
C1022 C 0.06234 0.84485 0.60035 0.0
C1023 C 0.03671 0.8376 0.60589 0.0
C1024 C 0.06898 0.86291 0.58364 0.0
C1025 C 1.01763 0.84821 0.59397 0.0
C1026 C 0.02409 0.86625 0.57728 0.0
C1027 C 0.05662 0.8928 0.55632 0.0
C1028 C 0.08251 0.90095 0.55193 0.0
C1029 C 0.04976 0.87392 0.57218 0.0
C1030 C 0.10132 0.88934 0.56295 0.0
C1031 C 0.09463 0.87049 0.5786 0.0
H1032 H 0.53808 0.78934 0.83901 0.0
H1033 H 0.58939 0.85493 0.81957 0.0
H1034 H 0.55913 0.85581 0.7819 0.0
H1035 H 0.51521 0.84329 0.76027 0.0
H1036 H 0.46209 0.78145 0.78414 0.0
H1037 H 0.49624 0.7727 0.81282 0.0
C1038 C 0.54284 0.80343 0.82615 0.0
C1039 C 0.56558 0.82241 0.83235 0.0
C1040 C 0.52497 0.80443 0.80514 0.0
C1041 C 0.57171 0.84044 0.81544 0.0
C1042 C 0.55445 0.84093 0.79389 0.0
C1043 C 0.5112 0.82761 0.77141 0.0
C1044 C 0.48591 0.81365 0.77054 0.0
C1045 C 0.53051 0.82385 0.78941 0.0
C1046 C 0.48127 0.79269 0.78431 0.0
C1047 C 0.50077 0.78789 0.80117 0.0
H1048 H 0.56008 0.22642 0.10981 0.0
H1049 H 0.49394 0.18806 0.14272 0.0
H1050 H 0.50286 0.14527 0.12305 0.0
H1051 H 0.52973 0.11883 0.09697 0.0
H1052 H 0.59459 0.15706 0.06212 0.0
H1053 H 0.58603 0.19994 0.08228 0.0
C1054 C 0.54757 0.20868 0.11255 0.0
C1055 C 0.52644 0.21033 0.1277 0.0
C1056 C 0.5527 0.18419 0.10105 0.0
C1057 C 0.51028 0.18724 0.13103 0.0
C1058 C 0.51543 0.16279 0.11991 0.0
C1059 C 0.54209 0.13657 0.09399 0.0
C1060 C 0.56289 0.13491 0.07837 0.0
C1061 C 0.53668 0.16105 0.10505 0.0
C1062 C 0.57849 0.15796 0.07417 0.0
C1063 C 0.57359 0.18243 0.08564 0.0
H1064 H 0.16869 0.3196 0.35454 0.0
H1065 H 0.20748 0.35974 0.43191 0.0
H1066 H 0.24765 0.36966 0.41125 0.0
H1067 H 0.27174 0.36561 0.37148 0.0
H1068 H 0.2325 0.32606 0.29396 0.0
H1069 H 0.19218 0.31783 0.31438 0.0
C1070 C 0.186 0.33037 0.36689 0.0
C1071 C 0.18538 0.3386 0.3947 0.0
C1072 C 0.20874 0.33642 0.35482 0.0
C1073 C 0.20769 0.35303 0.41045 0.0
C1074 C 0.23056 0.35879 0.39865 0.0
C1075 C 0.25432 0.35548 0.35896 0.0
C1076 C 0.25517 0.34629 0.33129 0.0
C1077 C 0.2313 0.35049 0.37087 0.0
C1078 C 0.23239 0.33333 0.31533 0.0
C1079 C 0.20936 0.32843 0.32701 0.0
H1080 H 0.96684 0.04382 0.18682 0.0
H1081 H 0.02103 0.10883 0.2344 0.0
H1082 H 0.04712 0.11039 0.19628 0.0
H1083 H 0.05601 0.09368 0.14778 0.0
H1084 H 1.00277 0.02712 0.10124 0.0
H1085 H 0.97646 0.0262 0.13905 0.0
C1086 C 0.98432 0.05849 0.18918 0.0
C1087 C 0.99105 0.07638 0.21488 0.0
C1088 C 1.00019 0.05909 0.16648 0.0
C1089 C 1.01441 0.09467 0.21594 0.0
C1090 C 0.02971 0.0956 0.19364 0.0
C1091 C 0.03874 0.07876 0.1456 0.0
C1092 C 0.03231 0.06034 0.12015 0.0
C1093 C 0.02307 0.07796 0.16849 0.0
C1094 C 1.00929 0.04164 0.11946 0.0
C1095 C 0.99379 0.0411 0.14158 0.0
H1096 H 0.31758 0.71234 0.53225 0.0
H1097 H 0.32805 0.64799 0.47087 0.0
H1098 H 0.31454 0.67026 0.43587 0.0
H1099 H 0.29826 0.70736 0.42288 0.0
H1100 H 0.28742 0.77129 0.4846 0.0
H1101 H 0.30223 0.74963 0.51934 0.0
C1102 C 0.3171 0.70326 0.51121 0.0
C1103 C 0.32385 0.67859 0.50414 0.0
C1104 C 0.30897 0.71596 0.49128 0.0
C1105 C 0.32299 0.66701 0.47681 0.0
C1106 C 0.3152 0.67969 0.4568 0.0
C1107 C 0.29935 0.71663 0.44393 0.0
C1108 C 0.29162 0.74085 0.45113 0.0
C1109 C 0.30793 0.70408 0.46383 0.0
C1110 C 0.29286 0.75247 0.47852 0.0
C1111 C 0.30149 0.74019 0.49839 0.0
H1112 H 0.64217 0.0416 0.68749 0.0
H1113 H 0.71043 0.0432 0.64525 0.0
H1114 H 0.68502 0.04095 0.60295 0.0
H1115 H 0.64444 0.04279 0.57909 0.0
H1116 H 0.57607 0.04193 0.62109 0.0
H1117 H 0.60062 0.03969 0.66261 0.0
C1118 C 0.65141 0.04104 0.66896 0.0
C1119 C 0.67815 0.0428 0.66948 0.0
C1120 C 0.63679 0.04031 0.64486 0.0
C1121 C 0.68988 0.04197 0.64534 0.0
C1122 C 0.6754 0.04084 0.62121 0.0
C1123 C 0.63484 0.04207 0.59729 0.0
C1124 C 0.60858 0.04299 0.59717 0.0
C1125 C 0.64901 0.04078 0.62093 0.0
C1126 C 0.59633 0.04147 0.62076 0.0
C1127 C 0.61035 0.04019 0.64447 0.0
H1128 H 0.30702 0.37852 0.97069 0.0
H1129 H 0.37223 0.34412 0.98719 0.0
H1130 H 0.3708 0.32457 0.93925 0.0
H1131 H 0.35195 0.31889 0.89185 0.0
H1132 H 0.28609 0.3533 0.87691 0.0
H1133 H 0.28689 0.37085 0.92461 0.0
C1134 C 0.32085 0.36659 0.96388 0.0
C1135 C 0.33977 0.36293 0.98263 0.0
C1136 C 0.31987 0.35539 0.93631 0.0
C1137 C 0.35742 0.34727 0.97331 0.0
C1138 C 0.35665 0.33614 0.94581 0.0
C1139 C 0.33766 0.33005 0.89903 0.0
C1140 C 0.31912 0.33479 0.88038 0.0
C1141 C 0.33811 0.34028 0.92698 0.0
C1142 C 0.30076 0.34931 0.89039 0.0
C1143 C 0.30115 0.35946 0.91785 0.0
H1144 H 1.01823 0.06223 0.36106 0.0
H1145 H 0.9574 0.09771 0.39444 0.0
H1146 H 0.97496 0.09691 0.43991 0.0
H1147 H 1.00787 0.08576 0.4723 0.0
H1148 H 0.06728 0.04812 0.43837 0.0
H1149 H 0.05045 0.05026 0.39322 0.0
C1150 C 1.00867 0.06999 0.37812 0.0
C1151 C 0.98597 0.08034 0.37293 0.0
C1152 C 0.01891 0.06903 0.40523 0.0
C1153 C 0.97459 0.08971 0.39649 0.0
C1154 C 0.98482 0.08922 0.42306 0.0
C1155 C 1.0174 0.07802 0.45521 0.0
C1156 C 0.03961 0.06677 0.46025 0.0
C1157 C 1.00704 0.07889 0.42808 0.0
C1158 C 0.05057 0.05693 0.43656 0.0
C1159 C 0.04076 0.05816 0.41012 0.0
H1160 H 0.30246 0.67959 0.64726 0.0
H1161 H 0.37612 0.71837 0.62917 0.0
H1162 H 0.37561 0.75556 0.66543 0.0
H1163 H 0.35464 0.77735 0.70243 0.0
H1164 H 0.28016 0.74025 0.72019 0.0
H1165 H 0.28037 0.70272 0.68384 0.0
C1166 C 0.31849 0.69608 0.65147 0.0
C1167 C 0.33953 0.69589 0.63562 0.0
C1168 C 0.31775 0.71802 0.6721 0.0
C1169 C 0.35981 0.71778 0.64105 0.0
C1170 C 0.35948 0.73918 0.66177 0.0
C1171 C 0.33823 0.76124 0.69826 0.0
C1172 C 0.31732 0.76194 0.7142 0.0
C1173 C 0.33854 0.73962 0.67737 0.0
C1174 C 0.2964 0.74062 0.70825 0.0
C1175 C 0.29663 0.71894 0.68753 0.0
H1176 H 0.69169 0.11476 0.82235 0.0
H1177 H 0.64757 0.03792 0.78712 0.0
H1178 H 0.61749 0.04224 0.82144 0.0
H1179 H 0.60447 0.06715 0.86203 0.0
H1180 H 0.64936 0.14292 0.89914 0.0
H1181 H 0.67855 0.13982 0.86345 0.0
C1182 C 0.67543 0.09903 0.82219 0.0
C1183 C 0.67179 0.07606 0.8023 0.0
C1184 C 0.65843 0.10149 0.84224 0.0
C1185 C 0.65079 0.05574 0.80233 0.0
C1186 C 0.63357 0.05821 0.82188 0.0
C1187 C 0.62044 0.08315 0.86204 0.0
C1188 C 0.62467 0.10538 0.88283 0.0
C1189 C 0.63728 0.08092 0.84195 0.0
C1190 C 0.64576 0.1257 0.88316 0.0
C1191 C 0.6624 0.1239 0.86283 0.0
H1192 H 0.34507 0.41327 0.16139 0.0
H1193 H 0.32511 0.33485 0.11395 0.0
H1194 H 0.31777 0.31729 0.15479 0.0
H1195 H 0.31739 0.32397 0.20422 0.0
H1196 H 0.33675 0.40238 0.25166 0.0
H1197 H 0.34375 0.42005 0.21087 0.0
C1198 C 0.33913 0.39232 0.15996 0.0
C1199 C 0.33577 0.37544 0.13445 0.0
C1200 C 0.33474 0.3823 0.18366 0.0
C1201 C 0.3279 0.34836 0.13316 0.0
C1202 C 0.32368 0.33828 0.15659 0.0
C1203 C 0.32302 0.34495 0.20571 0.0
C1204 C 0.32652 0.36179 0.23128 0.0
C1205 C 0.32705 0.35502 0.18199 0.0
C1206 C 0.33389 0.38891 0.23247 0.0
C1207 C 0.33795 0.39905 0.20905 0.0
H1208 H 0.2106 0.97749 1.01585 0.0
H1209 H 0.2564 0.05443 0.04621 0.0
H1210 H 0.21738 0.07162 0.05574 0.0
H1211 H 0.16952 0.06532 0.05537 0.0
H1212 H 0.12388 0.98811 0.02541 0.0
H1213 H 0.16286 0.97101 1.01627 0.0
C1214 C 0.21217 0.99808 0.02446 0.0
C1215 C 0.23701 1.01451 0.03002 0.0
C1216 C 0.18929 1.00797 0.03026 0.0
C1217 C 0.23801 0.0411 0.04147 0.0
C1218 C 0.21548 0.05101 0.04703 0.0
C1219 C 0.16796 0.04466 0.0471 0.0
C1220 C 0.1431 0.02822 0.04144 0.0
C1221 C 0.19089 0.03471 0.0416 0.0
C1222 C 0.14221 1.00153 0.03034 0.0
C1223 C 0.16474 0.99163 0.02493 0.0
H1224 H 0.73187 0.63572 1.00033 0.0
H1225 H 0.70766 0.70685 0.03581 0.0
H1226 H 0.66538 0.6818 0.04031 0.0
H1227 H 0.6359 0.6396 0.0364 0.0
H1228 H 0.65936 0.56822 1.00036 0.0
H1229 H 0.70108 0.59341 0.99377 0.0
C1230 C 0.71728 0.64575 1.00887 0.0
C1231 C 0.72309 0.67319 1.01785 0.0
C1232 C 0.69284 0.63114 1.01144 0.0
C1233 C 0.70385 0.68581 0.02877 0.0
C1234 C 0.67962 0.67147 0.03143 0.0
C1235 C 0.65005 0.62948 0.02697 0.0
C1236 C 0.64443 0.60193 0.0191 0.0
C1237 C 0.67401 0.6441 0.02319 0.0
C1238 C 0.66304 0.58934 1.00665 0.0
C1239 C 0.68699 0.60376 1.00295 0.0
H1240 H 0.71305 0.43801 0.28711 0.0
H1241 H 0.78244 0.49623 0.29492 0.0
H1242 H 0.8079 0.46189 0.29355 0.0
H1243 H 0.81253 0.41372 0.29028 0.0
H1244 H 0.74315 0.35572 0.28415 0.0
H1245 H 0.7177 0.38993 0.28473 0.0
C1246 C 0.73376 0.44368 0.28851 0.0
C1247 C 0.74477 0.47156 0.29107 0.0
C1248 C 0.74924 0.42284 0.28796 0.0
C1249 C 0.77215 0.47626 0.2929 0.0
C1250 C 0.7872 0.45601 0.2921 0.0
C1251 C 0.79182 0.40805 0.28889 0.0
C1252 C 0.78084 0.38023 0.28681 0.0
C1253 C 0.77634 0.4289 0.28961 0.0
C1254 C 0.75346 0.3756 0.28555 0.0
C1255 C 0.73839 0.39579 0.28593 0.0
H1256 H 0.90125 0.50435 0.55238 0.0
H1257 H 0.88812 0.54509 0.4884 0.0
H1258 H 0.93465 0.55953 0.48806 0.0
H1259 H 0.98009 0.56011 0.50562 0.0
H1260 H 0.99178 0.5186 0.5696 0.0
H1261 H 0.94571 0.50532 0.57004 0.0
C1262 C 0.90844 0.51654 0.53841 0.0
C1263 C 0.89068 0.52359 0.52051 0.0
C1264 C 0.93547 0.5247 0.53819 0.0
C1265 C 0.90091 0.53931 0.50255 0.0
C1266 C 0.92773 0.54757 0.50231 0.0
C1267 C 0.97263 0.54817 0.51968 0.0
C1268 C 0.99016 0.54049 0.5375 0.0
C1269 C 0.94539 0.54031 0.51995 0.0
C1270 C 0.97946 0.52498 0.55549 0.0
C1271 C 0.95279 0.51727 0.55584 0.0
H1272 H 0.36253 0.10765 0.27691 0.0
H1273 H 0.34349 0.11258 0.35896 0.0
H1274 H 0.31233 0.13985 0.35121 0.0
H1275 H 0.29181 0.16341 0.32151 0.0
H1276 H 0.31327 0.16037 0.24033 0.0
H1277 H 0.34118 0.13002 0.24698 0.0
C1278 C 0.35163 0.11476 0.29314 0.0
C1279 C 0.35547 0.10843 0.31854 0.0
C1280 C 0.33379 0.13026 0.28852 0.0
C1281 C 0.34102 0.11748 0.3393 0.0
C1282 C 0.32312 0.1329 0.33483 0.0
C1283 C 0.30253 0.15607 0.30524 0.0
C1284 C 0.30047 0.16434 0.28052 0.0
C1285 C 0.3195 0.13954 0.30956 0.0
C1286 C 0.31407 0.1541 0.25945 0.0
C1287 C 0.33041 0.13705 0.26335 0.0
H1288 H 0.33823 0.13987 0.524 0.0
H1289 H 0.39198 0.20927 0.51684 0.0
H1290 H 0.42781 0.18697 0.52286 0.0
H1291 H 0.44391 0.1484 0.5327 0.0
H1292 H 0.3896 0.07934 0.53999 0.0
H1293 H 0.35406 0.10098 0.53171 0.0
C1294 C 0.35776 0.15007 0.52348 0.0
C1295 C 0.36241 0.17621 0.51999 0.0
C1296 C 0.37823 0.13727 0.52733 0.0
C1297 C 0.38786 0.18913 0.51945 0.0
C1298 C 0.40836 0.17641 0.523 0.0
C1299 C 0.4243 0.13799 0.53219 0.0
C1300 C 0.41953 0.11233 0.53729 0.0
C1301 C 0.4038 0.15058 0.52733 0.0
C1302 C 0.39393 0.09925 0.53672 0.0
C1303 C 0.37353 0.11155 0.53178 0.0
H1304 H 0.71644 0.64543 0.29197 0.0
H1305 H 0.7858 0.61597 0.30299 0.0
H1306 H 0.81144 0.65951 0.30307 0.0
H1307 H 0.81544 0.7078 0.29979 0.0
H1308 H 0.74542 0.73642 0.28876 0.0
H1309 H 0.72032 0.69315 0.28899 0.0
C1310 C 0.73718 0.64823 0.29446 0.0
C1311 C 0.74846 0.62598 0.29752 0.0
C1312 C 0.7524 0.67417 0.29448 0.0
C1313 C 0.77573 0.63156 0.3006 0.0
C1314 C 0.79072 0.65699 0.30064 0.0
C1315 C 0.79469 0.70489 0.29747 0.0
C1316 C 0.78313 0.72702 0.29424 0.0
C1317 C 0.77952 0.67881 0.29758 0.0
C1318 C 0.75583 0.72112 0.29129 0.0
C1319 C 0.74106 0.69578 0.29141 0.0
H1320 H 0.84718 0.49242 0.84919 0.0
H1321 H 0.92591 0.48265 0.84649 0.0
H1322 H 0.91199 0.43522 0.83897 0.0
H1323 H 0.87739 0.39672 0.82877 0.0
H1324 H 0.79858 0.40571 0.83192 0.0
H1325 H 0.81259 0.45344 0.84405 0.0
C1326 C 0.86126 0.47987 0.84728 0.0
C1327 C 0.88745 0.49087 0.84798 0.0
C1328 C 0.85312 0.45261 0.84292 0.0
C1329 C 0.90561 0.47455 0.84586 0.0
C1330 C 0.89768 0.44746 0.84147 0.0
C1331 C 0.86331 0.40916 0.83236 0.0
C1332 C 0.83705 0.39798 0.82909 0.0
C1333 C 0.87148 0.43632 0.83925 0.0
C1334 C 0.81894 0.41407 0.8343 0.0
C1335 C 0.82692 0.44128 0.84107 0.0
H1336 H 0.08719 0.82499 0.03915 0.0
H1337 H 0.13625 0.89021 0.09293 0.0
H1338 H 0.12905 0.91915 0.06214 0.0
H1339 H 0.1033 0.92708 0.02445 0.0
H1340 H 0.05114 0.86295 0.97264 0.0
H1341 H 0.06562 0.83209 0.99778 0.0
C1342 C 0.09661 0.84546 0.04391 0.0
C1343 C 0.11181 0.85563 0.06846 0.0
C1344 C 0.09184 0.86208 0.02647 0.0
C1345 C 0.12413 0.88207 0.07431 0.0
C1346 C 0.12007 0.89859 0.05671 0.0
C1347 C 0.09583 0.90623 1.01793 0.0
C1348 C 0.07613 0.89724 0.99679 0.0
C1349 C 0.10322 0.88898 0.03328 0.0
C1350 C 0.0663 0.87024 0.9889 0.0
C1351 C 0.07438 0.8527 1.00343 0.0
H1352 H 0.96776 0.289 0.86143 0.0
H1353 H 0.92757 0.28514 0.93254 0.0
H1354 H 0.88815 0.28943 0.9081 0.0
H1355 H 0.86646 0.29819 0.8681 0.0
H1356 H 0.90654 0.30315 0.79708 0.0
H1357 H 0.94488 0.29443 0.82003 0.0
C1358 C 0.95028 0.28871 0.87144 0.0
C1359 C 0.95055 0.287 0.89876 0.0
C1360 C 0.92788 0.29174 0.85747 0.0
C1361 C 0.9278 0.28658 0.91152 0.0
C1362 C 0.90532 0.28915 0.89763 0.0
C1363 C 0.88357 0.29739 0.8576 0.0
C1364 C 0.8839 0.3018 0.83114 0.0
C1365 C 0.90539 0.29248 0.87086 0.0
C1366 C 0.90596 0.30004 0.81757 0.0
C1367 C 0.92785 0.29507 0.83066 0.0
H1368 H 0.62804 0.22162 0.57146 0.0
H1369 H 0.54825 0.22004 0.58436 0.0
H1370 H 0.53717 0.17431 0.5616 0.0
H1371 H 0.55091 0.13359 0.54383 0.0
H1372 H 0.63035 0.13406 0.53087 0.0
H1373 H 0.64089 0.18166 0.54752 0.0
C1374 C 0.60819 0.21135 0.56884 0.0
C1375 C 0.58906 0.22391 0.58001 0.0
C1376 C 0.60197 0.18492 0.55598 0.0
C1377 C 0.56336 0.21061 0.57623 0.0
C1378 C 0.55699 0.18447 0.56327 0.0
C1379 C 0.57046 0.14425 0.54432 0.0
C1380 C 0.58997 0.13064 0.53676 0.0
C1381 C 0.57627 0.17125 0.55402 0.0
C1382 C 0.61513 0.1444 0.5368 0.0
C1383 C 0.62113 0.17148 0.54644 0.0
H1384 H 0.58707 0.76582 0.3836 0.0
H1385 H 0.57479 0.84391 0.38174 0.0
H1386 H 0.61132 0.85156 0.35555 0.0
H1387 H 0.6472 0.83667 0.33396 0.0
H1388 H 0.65977 0.75854 0.3346 0.0
H1389 H 0.62288 0.75041 0.36069 0.0
C1390 C 0.59241 0.78446 0.37739 0.0
C1391 C 0.57825 0.80424 0.3846 0.0
C1392 C 0.61352 0.78877 0.3622 0.0
C1393 C 0.58534 0.82832 0.37643 0.0
C1394 C 0.60626 0.83275 0.36145 0.0
C1395 C 0.64166 0.81771 0.33944 0.0
C1396 C 0.65614 0.79822 0.33225 0.0
C1397 C 0.62048 0.81316 0.35427 0.0
C1398 C 0.64905 0.77396 0.34008 0.0
C1399 C 0.62791 0.76926 0.3549 0.0
H1400 H 0.06117 0.28017 0.48008 0.0
H1401 H 0.13229 0.2548 0.46323 0.0
H1402 H 0.12363 0.22295 0.49244 0.0
H1403 H 0.09583 0.20226 0.5224 0.0
H1404 H 0.0247 0.22739 0.53942 0.0
H1405 H 0.03334 0.25948 0.51031 0.0
C1406 C 0.07473 0.26761 0.48275 0.0
C1407 C 0.09731 0.26977 0.46953 0.0
C1408 C 0.06968 0.24944 0.49961 0.0
C1409 C 0.11474 0.25344 0.47317 0.0
C1410 C 0.10985 0.23529 0.4899 0.0
C1411 C 0.08241 0.21505 0.52007 0.0
C1412 C 0.0598 0.21271 0.53323 0.0
C1413 C 0.08743 0.23321 0.50326 0.0
C1414 C 0.04223 0.22888 0.52946 0.0
C1415 C 0.04717 0.24719 0.51287 0.0
H1416 H 0.59649 0.3187 0.22516 0.0
H1417 H 0.54953 0.25174 0.24719 0.0
H1418 H 0.58356 0.25025 0.28098 0.0
H1419 H 0.62838 0.26466 0.30013 0.0
H1420 H 0.67614 0.32953 0.27515 0.0
H1421 H 0.63972 0.33595 0.24777 0.0
C1422 C 0.59361 0.30396 0.23756 0.0
C1423 C 0.57081 0.28507 0.2334 0.0
C1424 C 0.61334 0.30299 0.25664 0.0
C1425 C 0.56712 0.2663 0.24983 0.0
C1426 C 0.58653 0.26546 0.26917 0.0
C1427 C 0.63073 0.2804 0.28895 0.0
C1428 C 0.65509 0.29627 0.28944 0.0
C1429 C 0.61001 0.28321 0.27214 0.0
C1430 C 0.65765 0.31706 0.2754 0.0
C1431 C 0.63688 0.32053 0.25934 0.0
H1432 H 0.56841 0.907 0.92954 0.0
H1433 H 0.63299 0.90368 0.98342 0.0
H1434 H 0.62854 0.94498 1.01171 0.0
H1435 H 0.60679 0.9823 0.02056 0.0
H1436 H 0.54273 0.9859 0.96601 0.0
H1437 H 0.54647 0.94408 0.93856 0.0
C1438 C 0.58146 0.91529 0.9475 0.0
C1439 C 0.60099 0.90241 0.95441 0.0
C1440 C 0.5789 0.93904 0.96353 0.0
C1441 C 0.61782 0.91333 0.9777 0.0
C1442 C 0.61528 0.9369 0.99388 0.0
C1443 C 0.59355 0.97387 1.00276 0.0
C1444 C 0.57452 0.98718 0.99535 0.0
C1445 C 0.59595 0.94996 0.98691 0.0
C1446 C 0.5576 0.97608 0.97213 0.0
C1447 C 0.55971 0.95217 0.95641 0.0
H1448 H 0.93682 0.76064 0.68988 0.0
H1449 H 0.98066 0.83634 0.72941 0.0
H1450 H 0.94906 0.84044 0.76203 0.0
H1451 H 0.90853 0.82363 0.77813 0.0
H1452 H 0.86326 0.74868 0.73842 0.0
H1453 H 0.89649 0.74267 0.7077 0.0
C1454 C 0.9393 0.77808 0.70554 0.0
C1455 C 0.96082 0.79833 0.70705 0.0
C1456 C 0.92114 0.78022 0.72446 0.0
C1457 C 0.96411 0.82061 0.7277 0.0
C1458 C 0.94616 0.82291 0.74645 0.0
C1459 C 0.90597 0.80577 0.76299 0.0
C1460 C 0.88332 0.78674 0.76045 0.0
C1461 C 0.92459 0.80291 0.74493 0.0
C1462 C 0.88055 0.76362 0.7409 0.0
C1463 C 0.89939 0.76033 0.72311 0.0
H1464 H 0.12677 0.02768 0.86394 0.0
H1465 H 0.19682 0.08147 0.89757 0.0
H1466 H 0.17907 0.08971 0.94109 0.0
H1467 H 0.14322 0.08209 0.97194 0.0
H1468 H 0.07387 0.02696 0.9385 0.0
H1469 H 0.09133 0.01951 0.89489 0.0
C1470 C 0.13843 0.04129 0.8806 0.0
C1471 C 0.16389 0.05381 0.87594 0.0
C1472 C 0.12786 0.04602 0.90678 0.0
C1473 C 0.17759 0.07118 0.89911 0.0
C1474 C 0.16721 0.07604 0.92461 0.0
C1475 C 0.13158 0.06851 0.95525 0.0
C1476 C 0.10632 0.05549 0.96002 0.0
C1477 C 0.14225 0.0637 0.9291 0.0
C1478 C 0.09287 0.03776 0.93692 0.0
C1479 C 0.10309 0.03333 0.91133 0.0
H1480 H 0.82948 0.47567 0.60715 0.0
H1481 H 0.79203 0.40805 0.54775 0.0
H1482 H 0.79707 0.37958 0.57949 0.0
H1483 H 0.81349 0.37342 0.62339 0.0
H1484 H 0.8514 0.44041 0.68312 0.0
H1485 H 0.84457 0.46953 0.6522 0.0
C1486 C 0.82223 0.45474 0.60129 0.0
C1487 C 0.81048 0.44403 0.57507 0.0
C1488 C 0.82536 0.43831 0.61967 0.0
C1489 C 0.80122 0.41684 0.56776 0.0
C1490 C 0.80413 0.40049 0.58589 0.0
C1491 C 0.82038 0.39438 0.6296 0.0
C1492 C 0.83315 0.40468 0.65542 0.0
C1493 C 0.81647 0.41094 0.61174 0.0
C1494 C 0.84144 0.43197 0.66338 0.0
C1495 C 0.83763 0.44862 0.64566 0.0
H1496 H 0.47629 0.03446 0.36886 0.0
H1497 H 0.44828 0.09984 0.41298 0.0
H1498 H 0.48088 0.10402 0.45037 0.0
H1499 H 0.51522 0.08727 0.47138 0.0
H1500 H 0.54338 0.02186 0.42741 0.0
H1501 H 0.51303 0.01984 0.38864 0.0
C1502 C 0.47743 0.04971 0.38662 0.0
C1503 C 0.45979 0.06664 0.3884 0.0
C1504 C 0.49622 0.05202 0.40789 0.0
C1505 C 0.46163 0.08654 0.41127 0.0
C1506 C 0.48022 0.08891 0.43261 0.0
C1507 C 0.51489 0.07267 0.45325 0.0
C1508 C 0.5313 0.05452 0.45234 0.0
C1509 C 0.49731 0.07149 0.43127 0.0
C1510 C 0.53093 0.03602 0.42858 0.0
C1511 C 0.51348 0.03477 0.4065 0.0
H1512 H 0.83677 0.74326 0.11389 0.0
H1513 H 0.77289 0.77885 0.09543 0.0
H1514 H 0.77378 0.79901 0.14309 0.0
H1515 H 0.79174 0.80501 0.19063 0.0
H1516 H 0.85659 0.77002 0.20792 0.0
H1517 H 0.8563 0.75146 0.1604 0.0
C1518 C 0.82311 0.75555 0.12024 0.0
C1519 C 0.80469 0.75939 0.10105 0.0
C1520 C 0.82386 0.76722 0.14765 0.0
C1521 C 0.78729 0.77556 0.1097 0.0
C1522 C 0.78776 0.78704 0.13702 0.0
C1523 C 0.80593 0.79349 0.184 0.0
C1524 C 0.82406 0.78892 0.20317 0.0
C1525 C 0.80581 0.78281 0.15628 0.0
C1526 C 0.84234 0.77397 0.19393 0.0
C1527 C 0.84219 0.76322 0.16662 0.0
H1528 H 0.18007 0.03178 0.6884 0.0
H1529 H 0.1258 0.06042 0.74019 0.0
H1530 H 0.10018 0.06661 0.70107 0.0
H1531 H 0.09195 0.06441 0.65064 0.0
H1532 H 0.14496 0.03299 0.59887 0.0
H1533 H 0.17087 0.02774 0.63803 0.0
C1534 C 0.16263 0.03933 0.69143 0.0
C1535 C 0.15562 0.04553 0.71855 0.0
C1536 C 0.1471 0.04256 0.66802 0.0
C1537 C 0.13244 0.0552 0.72052 0.0
C1538 C 0.11748 0.05887 0.69771 0.0
C1539 C 0.10914 0.05641 0.64762 0.0
C1540 C 0.1158 0.04938 0.62043 0.0
C1541 C 0.1244 0.05273 0.67107 0.0
C1542 C 0.1385 0.03881 0.61851 0.0
C1543 C 0.1537 0.03574 0.64138 0.0
H1544 H 0.80277 0.40141 0.45758 0.0
H1545 H 0.8224 0.46677 0.41794 0.0
H1546 H 0.82936 0.43694 0.37728 0.0
H1547 H 0.83036 0.39225 0.35293 0.0
H1548 H 0.80888 0.3266 0.39173 0.0
H1549 H 0.80234 0.35646 0.43262 0.0
C1550 C 0.80845 0.40916 0.44001 0.0
C1551 C 0.81205 0.43646 0.44098 0.0
C1552 C 0.81233 0.39177 0.41653 0.0
C1553 C 0.81938 0.44597 0.41788 0.0
C1554 C 0.82348 0.42887 0.3946 0.0
C1555 C 0.8245 0.38443 0.37041 0.0
C1556 C 0.82053 0.35708 0.36925 0.0
C1557 C 0.8202 0.40174 0.39372 0.0
C1558 C 0.8123 0.34744 0.39199 0.0
C1559 C 0.80849 0.36457 0.41541 0.0
H1560 H 0.47596 0.07559 0.27992 0.0
H1561 H 0.42044 1.0069 0.24119 0.0
H1562 H 0.44803 0.99873 0.20492 0.0
H1563 H 0.48781 1.01133 0.18419 0.0
H1564 H 0.54362 0.07954 0.22342 0.0
H1565 H 0.5162 0.08748 0.25986 0.0
C1566 C 0.46988 0.0589 0.26347 0.0
C1567 C 0.44619 0.04198 0.26303 0.0
C1568 C 0.48595 0.05414 0.24297 0.0
C1569 C 0.43862 0.02023 0.24185 0.0
C1570 C 0.45437 1.01553 0.22116 0.0
C1571 C 0.49389 0.02793 0.20073 0.0
C1572 C 0.5176 0.04486 0.20117 0.0
C1573 C 0.47805 0.03238 0.22151 0.0
C1574 C 0.52553 0.06611 0.22284 0.0
C1575 C 0.5098 0.07076 0.24354 0.0
H1576 H 0.79147 0.71816 0.92301 0.0
H1577 H 0.83169 0.78938 0.97534 0.0
H1578 H 0.84047 0.80959 0.93634 0.0
H1579 H 0.836 0.80753 0.88703 0.0
H1580 H 0.79473 0.73654 0.83508 0.0
H1581 H 0.78736 0.71594 0.87389 0.0
C1582 C 0.80216 0.73811 0.92592 0.0
C1583 C 0.81082 0.75217 0.95225 0.0
C1584 C 0.80708 0.74973 0.90328 0.0
C1585 C 0.82467 0.77803 0.95544 0.0
C1586 C 0.82977 0.78963 0.93306 0.0
C1587 C 0.82564 0.78746 0.88416 0.0
C1588 C 0.81598 0.77369 0.85794 0.0
C1589 C 0.82104 0.77573 0.90683 0.0
C1590 C 0.80231 0.74776 0.85486 0.0
C1591 C 0.79805 0.7359 0.87714 0.0
H1592 H 0.9317 0.14319 0.06085 0.0
H1593 H 0.88652 0.06479 0.04216 0.0
H1594 H 0.92542 0.04714 0.03372 0.0
H1595 H 0.97293 0.05335 0.03185 0.0
H1596 H 1.01832 0.13172 0.0507 0.0
H1597 H 0.97939 0.14947 0.05849 0.0
C1598 C 0.93025 0.1222 0.05497 0.0
C1599 C 0.90558 0.10551 0.05235 0.0
C1600 C 0.95312 0.11196 0.04994 0.0
C1601 C 0.90474 0.07836 0.04453 0.0
C1602 C 0.92722 0.06816 0.03961 0.0
C1603 C 0.97445 0.07438 0.03741 0.0
C1604 C 0.9992 0.09095 0.0403 0.0
C1605 C 0.95161 0.08467 0.0422 0.0
C1606 C 1.00006 0.11816 0.04795 0.0
C1607 C 0.97756 0.12843 0.05257 0.0
H1608 H 0.41578 0.48547 0.08256 0.0
H1609 H 0.43779 0.4137 0.04531 0.0
H1610 H 0.4804 0.43796 0.04049 0.0
H1611 H 0.51079 0.47975 0.04481 0.0
H1612 H 0.48936 0.55159 0.08288 0.0
H1613 H 0.44736 0.52713 0.08955 0.0
C1614 C 0.42996 0.47513 0.07355 0.0
C1615 C 0.42348 0.44779 0.06417 0.0
C1616 C 0.45456 0.48924 0.07088 0.0
C1617 C 0.44218 0.4347 0.05268 0.0
C1618 C 0.46657 0.44858 0.04984 0.0
C1619 C 0.49701 0.4901 0.0547 0.0
C1620 C 0.50327 0.51758 0.06313 0.0
C1621 C 0.47288 0.47589 0.05855 0.0
C1622 C 0.48517 0.53051 0.07617 0.0
C1623 C 0.46106 0.51652 0.07991 0.0
H1624 H 0.43624 0.68513 0.79417 0.0
H1625 H 0.36637 0.62868 0.79172 0.0
H1626 H 0.34163 0.66362 0.7935 0.0
H1627 H 0.33777 0.71181 0.79561 0.0
H1628 H 0.40749 0.7681 0.7966 0.0
H1629 H 0.43231 0.73332 0.79559 0.0
C1630 C 0.41558 0.67998 0.79404 0.0
C1631 C 0.4042 0.65239 0.79283 0.0
C1632 C 0.40051 0.70119 0.79488 0.0
C1633 C 0.37691 0.64838 0.79263 0.0
C1634 C 0.36229 0.66898 0.79368 0.0
C1635 C 0.35843 0.717 0.79577 0.0
C1636 C 0.36972 0.74452 0.79656 0.0
C1637 C 0.37351 0.6958 0.79483 0.0
C1638 C 0.39699 0.74849 0.7963 0.0
C1639 C 0.41168 0.72796 0.79564 0.0
H1640 H 0.24803 0.60965 0.59172 0.0
H1641 H 0.25755 0.58952 0.50723 0.0
H1642 H 0.21089 0.57707 0.49687 0.0
H1643 H 0.16629 0.57258 0.51158 0.0
H1644 H 0.15768 0.59344 0.5964 0.0
H1645 H 0.20402 0.60466 0.60636 0.0
C1646 C 0.24 0.60227 0.57103 0.0
C1647 C 0.25684 0.60044 0.5504 0.0
C1648 C 0.21277 0.59533 0.56505 0.0
C1649 C 0.24551 0.59108 0.52372 0.0
C1650 C 0.2186 0.584 0.51771 0.0
C1651 C 0.17447 0.57958 0.53225 0.0
C1652 C 0.15775 0.58203 0.55306 0.0
C1653 C 0.20183 0.58618 0.53815 0.0
C1654 C 0.16939 0.59119 0.57969 0.0
C1655 C 0.19621 0.59768 0.58555 0.0
H1656 H 0.77984 0.04226 0.80512 0.0
H1657 H 0.76716 0.99485 0.72496 0.0
H1658 H 0.79489 0.96644 0.73843 0.0
H1659 H 0.82055 0.95375 0.77351 0.0
H1660 H 0.83338 1.00102 0.85373 0.0
H1661 H 0.80757 0.03089 0.83968 0.0
C1662 C 0.78323 0.02577 0.79057 0.0
C1663 C 0.77136 0.02052 0.76414 0.0
C1664 C 0.79912 1.00953 0.79846 0.0
C1665 C 0.77601 0.99919 0.74546 0.0
C1666 C 0.79186 0.98297 0.75314 0.0
C1667 C 0.81824 0.97092 0.7878 0.0
C1668 C 0.82896 0.97522 0.81461 0.0
C1669 C 0.8033 0.98783 0.77964 0.0
C1670 C 0.8252 0.99721 0.83302 0.0
C1671 C 0.81047 1.01427 0.825 0.0
H1672 H 0.80894 0.97349 0.54023 0.0
H1673 H 0.7574 0.90751 0.55867 0.0
H1674 H 0.72058 0.92684 0.54806 0.0
H1675 H 0.70293 0.96151 0.53147 0.0
H1676 H 0.75469 0.0275 0.51323 0.0
H1677 H 0.79144 1.00899 0.52557 0.0
C1678 C 0.78966 0.96342 0.54213 0.0
C1679 C 0.78592 0.93907 0.55017 0.0
C1680 C 0.76858 0.97453 0.53578 0.0
C1681 C 0.76081 0.92628 0.55251 0.0
C1682 C 0.73974 0.93729 0.54638 0.0
C1683 C 0.72225 0.97202 0.53051 0.0
C1684 C 0.72598 0.99579 0.52121 0.0
C1685 C 0.74337 0.96128 0.53771 0.0
C1686 C 0.7512 1.00895 0.51983 0.0
C1687 C 0.77226 0.99846 0.52704 0.0
H1688 H 0.42872 0.47624 0.78873 0.0
H1689 H 0.36048 0.50894 0.78473 0.0
H1690 H 0.33402 0.46594 0.7851 0.0
H1691 H 0.32892 0.41734 0.78679 0.0
H1692 H 0.39755 0.38512 0.79094 0.0
H1693 H 0.42368 0.42794 0.79026 0.0
C1694 C 0.40804 0.47426 0.78788 0.0
C1695 C 0.39733 0.49726 0.78664 0.0
C1696 C 0.39232 0.44861 0.78815 0.0
C1697 C 0.37013 0.49274 0.78566 0.0
C1698 C 0.35466 0.46763 0.78588 0.0
C1699 C 0.34959 0.41936 0.7875 0.0
C1700 C 0.36046 0.39643 0.78892 0.0
C1701 C 0.36529 0.44509 0.78715 0.0
C1702 C 0.38769 0.40114 0.78985 0.0
C1703 C 0.40303 0.42618 0.78946 0.0
H1704 H 0.26354 0.65128 0.22045 0.0
H1705 H 0.29002 0.63747 0.29761 0.0
H1706 H 0.30346 0.68442 0.31442 0.0
H1707 H 0.30413 0.72916 0.30865 0.0
H1708 H 0.27777 0.74391 0.23197 0.0
H1709 H 0.26803 0.69674 0.21338 0.0
C1710 C 0.2726 0.65859 0.2408 0.0
C1711 C 0.27552 0.64101 0.25787 0.0
C1712 C 0.28006 0.68569 0.25047 0.0
C1713 C 0.28739 0.65065 0.28414 0.0
C1714 C 0.29502 0.67749 0.29381 0.0
C1715 C 0.29635 0.72207 0.28782 0.0
C1716 C 0.29124 0.73984 0.2718 0.0
C1717 C 0.29082 0.69514 0.27739 0.0
C1718 C 0.28172 0.7305 0.2447 0.0
C1719 C 0.27609 0.70357 0.23411 0.0
H1720 H 0.53996 0.78523 0.52031 0.0
H1721 H 0.50452 0.71359 0.46536 0.0
H1722 H 0.51339 0.68822 0.49932 0.0
H1723 H 0.53679 0.68626 0.54147 0.0
H1724 H 0.57601 0.75749 0.59451 0.0
H1725 H 0.55947 0.78344 0.56467 0.0
C1726 C 0.53388 0.76408 0.51588 0.0
C1727 C 0.52199 0.75119 0.49027 0.0
C1728 C 0.53965 0.74967 0.53517 0.0
C1729 C 0.51401 0.72386 0.48484 0.0
C1730 C 0.51903 0.70939 0.50424 0.0
C1731 C 0.54092 0.70749 0.54702 0.0
C1732 C 0.55746 0.72006 0.57016 0.0
C1733 C 0.53256 0.72206 0.5291 0.0
C1734 C 0.56319 0.74752 0.57684 0.0
C1735 C 0.55397 0.76227 0.55966 0.0
H1736 H 0.68731 0.34107 0.68969 0.0
H1737 H 0.65918 0.26016 0.69346 0.0
H1738 H 0.69305 0.26245 0.72871 0.0
H1739 H 0.73154 0.28677 0.75727 0.0
H1740 H 0.762 0.36657 0.75147 0.0
H1741 H 0.72617 0.36558 0.71853 0.0
C1742 C 0.68866 0.32399 0.69827 0.0
C1743 C 0.6709 0.30049 0.68895 0.0
C1744 C 0.70845 0.32531 0.7183 0.0
C1745 C 0.6728 0.27844 0.70016 0.0
C1746 C 0.69207 0.27974 0.72042 0.0
C1747 C 0.73005 0.30407 0.74914 0.0
C1748 C 0.7491 0.32676 0.75688 0.0
C1749 C 0.71004 0.30301 0.72955 0.0
C1750 C 0.74737 0.3489 0.7458 0.0
C1751 C 0.727 0.34831 0.72692 0.0
H1752 H 1.01357 0.37889 1.00441 0.0
H1753 H 0.04429 0.38711 0.92886 0.0
H1754 H 0.0533 0.43466 0.94313 0.0
H1755 H 0.05433 0.47353 0.9776 0.0
H1756 H 0.02406 0.46591 0.0535 0.0
H1757 H 1.01282 0.41835 0.03842 0.0
C1758 C 0.02207 0.39113 0.99104 0.0
C1759 C 0.0284 0.37958 0.96572 0.0
C1760 C 0.02736 0.41846 0.99942 0.0
C1761 C 0.03932 0.39559 0.94851 0.0
C1762 C 0.04452 0.42276 0.95664 0.0
C1763 C 0.04521 0.46153 0.99088 0.0
C1764 C 0.04024 0.47322 1.01671 0.0
C1765 C 0.03893 0.43434 0.98217 0.0
C1766 C 0.02816 0.45738 0.03352 0.0
C1767 C 0.02177 0.43019 0.02494 0.0
H1768 H 0.04568 0.84004 0.17431 0.0
H1769 H 0.05141 0.75904 0.16946 0.0
H1770 H 1.01677 0.75314 0.19843 0.0
H1771 H 0.98554 0.77097 0.22592 0.0
H1772 H 0.97893 0.85169 0.23095 0.0
H1773 H 1.01348 0.85783 0.20155 0.0
C1774 C 0.0392 0.82109 0.17949 0.0
C1775 C 0.05107 0.80002 0.16973 0.0
C1776 C 0.01929 0.81782 0.19638 0.0
C1777 C 0.0426 0.77559 0.1767 0.0
C1778 C 0.02281 0.77218 0.19332 0.0
C1779 C 0.99145 0.78985 0.22036 0.0
C1780 C 0.97963 0.8108 0.23056 0.0
C1781 C 1.01111 0.79316 0.20336 0.0
C1782 C 0.9879 0.83529 0.2236 0.0
C1783 C 1.00754 0.83877 0.20665 0.0
H1784 H 0.5192 0.31777 0.08735 0.0
H1785 H 0.54588 0.37172 0.16255 0.0
H1786 H 0.56068 0.40645 0.13838 0.0
H1787 H 0.56706 0.42134 0.0963 0.0
H1788 H 0.53943 0.36874 0.02059 0.0
H1789 H 0.5247 0.33341 0.04453 0.0
C1790 C 0.52806 0.3372 0.09839 0.0
C1791 C 0.53139 0.34216 0.12671 0.0
C1792 C 0.5367 0.35719 0.08431 0.0
C1793 C 0.54304 0.36737 0.14077 0.0
C1794 C 0.55161 0.38725 0.12697 0.0
C1795 C 0.55751 0.40226 0.08495 0.0
C1796 C 0.55419 0.39781 0.05668 0.0
C1797 C 0.54867 0.38234 0.0988 0.0
C1798 C 0.54244 0.37269 0.04236 0.0
C1799 C 0.53381 0.35254 0.05605 0.0
H1800 H 0.03988 0.28791 0.36101 0.0
H1801 H 0.09088 0.35362 0.34135 0.0
H1802 H 0.05921 0.35631 0.30578 0.0
H1803 H 1.01484 0.34438 0.28525 0.0
H1804 H 0.96252 0.28138 0.30813 0.0
H1805 H 0.99711 0.27247 0.33632 0.0
C1806 C 0.04422 0.30247 0.34857 0.0
C1807 C 0.06743 0.32083 0.35407 0.0
C1808 C 0.02564 0.30438 0.32864 0.0
C1809 C 0.07294 0.3395 0.33773 0.0
C1810 C 0.05485 0.34106 0.31739 0.0
C1811 C 1.01109 0.32847 0.29612 0.0
C1812 C 0.98599 0.31397 0.29491 0.0
C1813 C 0.03076 0.32429 0.31343 0.0
C1814 C 0.98162 0.29289 0.30852 0.0
C1815 C 1.00135 0.28797 0.32501 0.0
H1816 H 0.04157 0.72348 0.58893 0.0
H1817 H 0.99669 0.69205 0.64781 0.0
H1818 H 1.00725 0.64901 0.6321 0.0
H1819 H 0.0316 0.62116 0.60346 0.0
H1820 H 0.07727 0.65385 0.54563 0.0
H1821 H 0.0642 0.69557 0.55936 0.0
C1822 C 0.03377 0.70714 0.59806 0.0
C1823 C 0.01845 0.71092 0.61948 0.0
C1824 C 0.0404 0.68275 0.58945 0.0
C1825 C 1.00852 0.68957 0.63119 0.0
C1826 C 1.0147 0.66502 0.62238 0.0
C1827 C 0.03874 0.63743 0.59396 0.0
C1828 C 0.05557 0.63439 0.57374 0.0
C1829 C 0.03111 0.66155 0.6019 0.0
C1830 C 0.06441 0.65561 0.56137 0.0
C1831 C 0.05689 0.67953 0.56911 0.0
H1832 H 0.66264 0.81023 0.83732 0.0
H1833 H 0.70124 0.86473 0.90799 0.0
H1834 H 0.74116 0.86996 0.88616 0.0
H1835 H 0.76527 0.85743 0.84795 0.0
H1836 H 0.72664 0.80323 0.77697 0.0
H1837 H 0.68614 0.80018 0.79768 0.0
C1838 C 0.67986 0.82312 0.84795 0.0
C1839 C 0.67929 0.83672 0.87433 0.0
C1840 C 0.70249 0.8264 0.83511 0.0
C1841 C 0.70144 0.85387 0.88774 0.0
C1842 C 0.72416 0.85695 0.87525 0.0
C1843 C 0.74792 0.8452 0.83685 0.0
C1844 C 0.74898 0.83037 0.81111 0.0
C1845 C 0.72491 0.84316 0.84903 0.0
C1846 C 0.72632 0.81488 0.79682 0.0
C1847 C 0.70322 0.81291 0.80875 0.0
H1848 H 0.51893 0.59916 0.72003 0.0
H1849 H 0.45137 0.54073 0.68838 0.0
H1850 H 0.46913 0.53231 0.6449 0.0
H1851 H 0.50429 0.54096 0.6135 0.0
H1852 H 0.57112 0.60057 0.64483 0.0
H1853 H 0.55368 0.60834 0.68846 0.0
C1854 C 0.50782 0.58449 0.70382 0.0
C1855 C 0.48304 0.57074 0.70906 0.0
C1856 C 0.5184 0.57961 0.67763 0.0
C1857 C 0.47005 0.55202 0.68642 0.0
C1858 C 0.48045 0.54704 0.66094 0.0
C1859 C 0.51539 0.55562 0.62972 0.0
C1860 C 0.53995 0.56979 0.62434 0.0
C1861 C 0.50472 0.56058 0.65588 0.0
C1862 C 0.55268 0.58884 0.64688 0.0
C1863 C 0.54248 0.59346 0.67248 0.0
H1864 H 0.83104 0.21533 0.02922 0.0
H1865 H 0.82729 0.14585 0.96835 0.0
H1866 H 0.81819 0.16994 0.93325 0.0
H1867 H 0.80934 0.21031 0.92009 0.0
H1868 H 0.81237 0.27936 0.98138 0.0
H1869 H 0.82347 0.2558 1.01606 0.0
C1870 C 0.82846 0.20549 1.00826 0.0
C1871 C 0.82987 0.17883 1.00141 0.0
C1872 C 0.82284 0.21934 0.98827 0.0
C1873 C 0.82633 0.16637 0.97416 0.0
C1874 C 0.82106 0.18012 0.95409 0.0
C1875 C 0.81269 0.22027 0.94101 0.0
C1876 C 0.80986 0.24654 0.94811 0.0
C1877 C 0.81899 0.20654 0.96093 0.0
C1878 C 0.81401 0.25905 0.97537 0.0
C1879 C 0.82051 0.24564 0.99522 0.0
H1880 H 0.15643 0.54857 0.19443 0.0
H1881 H 0.21422 0.54055 0.13887 0.0
H1882 H 0.18209 0.53687 0.10103 0.0
H1883 H 0.13852 0.53849 0.08444 0.0
H1884 H 0.08155 0.55059 0.1402 0.0
H1885 H 0.11266 0.55033 0.1777 0.0
C1886 C 0.16189 0.5457 0.17399 0.0
C1887 C 0.1875 0.54458 0.16925 0.0
C1888 C 0.14361 0.54461 0.15263 0.0
C1889 C 0.19456 0.54138 0.14284 0.0
C1890 C 0.17625 0.53934 0.12131 0.0
C1891 C 0.13276 0.54074 0.10476 0.0
C1892 C 0.10773 0.54431 0.10963 0.0
C1893 C 0.15085 0.54129 0.12606 0.0
C1894 C 0.10072 0.5478 0.13606 0.0
C1895 C 0.11846 0.54762 0.15741 0.0
H1896 H 0.80587 0.87138 0.46709 0.0
H1897 H 0.8766 0.84502 0.48145 0.0
H1898 H 0.87516 0.82611 0.43343 0.0
H1899 H 0.85481 0.81888 0.38689 0.0
H1900 H 0.78382 0.84521 0.37308 0.0
H1901 H 0.78437 0.86208 0.42117 0.0
C1902 C 0.8209 0.86133 0.45978 0.0
C1903 C 0.84138 0.85974 0.47795 0.0
C1904 C 0.81996 0.85053 0.43211 0.0
C1905 C 0.86061 0.84655 0.46802 0.0
C1906 C 0.85982 0.83578 0.4405 0.0
C1907 C 0.83933 0.82812 0.39436 0.0
C1908 C 0.81936 0.8308 0.37607 0.0
C1909 C 0.83974 0.83791 0.42226 0.0
C1910 C 0.79949 0.84282 0.38641 0.0
C1911 C 0.7998 0.85257 0.41402 0.0
H1912 H 0.47072 0.59484 0.89737 0.0
H1913 H 0.51749 0.556 0.84322 0.0
H1914 H 0.54269 0.54779 0.88153 0.0
H1915 H 0.55268 0.5509 0.93185 0.0
H1916 H 0.50792 0.59261 0.9861 0.0
H1917 H 0.48212 0.59992 0.94778 0.0
C1918 C 0.48642 0.5846 0.89364 0.0
C1919 C 0.4914 0.57616 0.86604 0.0
C1920 C 0.50185 0.58019 0.91662 0.0
C1921 C 0.51244 0.56306 0.86322 0.0
C1922 C 0.52715 0.55821 0.8856 0.0
C1923 C 0.53733 0.56164 0.93562 0.0
C1924 C 0.53294 0.57087 0.96326 0.0
C1925 C 0.52226 0.56654 0.91266 0.0
C1926 C 0.51259 0.58494 0.96609 0.0
C1927 C 0.49746 0.58922 0.9437 0.0
H1928 H 0.84173 0.22302 0.1229 0.0
H1929 H 0.82165 0.15561 0.15947 0.0
H1930 H 0.8143 0.18395 0.20094 0.0
H1931 H 0.81323 0.22789 0.227 0.0
H1932 H 0.8348 0.29563 0.19128 0.0
H1933 H 0.8417 0.26728 0.14952 0.0
C1934 C 0.83587 0.21451 0.13998 0.0
C1935 C 0.8323 0.18706 0.1379 0.0
C1936 C 0.83171 0.23105 0.16397 0.0
C1937 C 0.82467 0.17655 0.16037 0.0
C1938 C 0.82035 0.19279 0.18413 0.0
C1939 C 0.8192 0.23651 0.21001 0.0
C1940 C 0.82313 0.264 0.21234 0.0
C1941 C 0.82365 0.22006 0.18615 0.0
C1942 C 0.83142 0.27464 0.19016 0.0
C1943 C 0.83544 0.25839 0.16622 0.0
H1944 H 0.208 0.54459 0.32268 0.0
H1945 H 0.16867 0.59156 0.27983 0.0
H1946 H 0.13901 0.59556 0.31441 0.0
H1947 H 0.12423 0.58599 0.35665 0.0
H1948 H 0.16433 0.541 0.40129 0.0
H1949 H 0.19331 0.53547 0.3659 0.0
C1950 C 0.1929 0.55564 0.32096 0.0
C1951 C 0.19055 0.56777 0.29878 0.0
C1952 C 0.17596 0.55811 0.34112 0.0
C1953 C 0.17095 0.5821 0.29678 0.0
C1954 C 0.15393 0.58439 0.31651 0.0
C1955 C 0.13948 0.57524 0.35886 0.0
C1956 C 0.14213 0.56405 0.38166 0.0
C1957 C 0.15633 0.57258 0.33879 0.0
C1958 C 0.16165 0.5496 0.3838 0.0
C1959 C 0.17836 0.54658 0.36367 0.0
H1960 H 0.84416 0.90453 0.65585 0.0
H1961 H 0.83077 0.82755 0.6052 0.0
H1962 H 0.82254 0.8076 0.64438 0.0
H1963 H 0.81908 0.81173 0.69288 0.0
H1964 H 0.83237 0.88846 0.74412 0.0
H1965 H 0.8405 0.90866 0.70494 0.0
C1966 C 0.83951 0.88338 0.65339 0.0
C1967 C 0.83817 0.86759 0.62747 0.0
C1968 C 0.83463 0.87194 0.67614 0.0
C1969 C 0.832 0.84022 0.62478 0.0
C1970 C 0.82724 0.82877 0.64722 0.0
C1971 C 0.82364 0.8329 0.69561 0.0
C1972 C 0.82497 0.84846 0.72164 0.0
C1973 C 0.82844 0.8444 0.67299 0.0
C1974 C 0.83107 0.87588 0.72448 0.0
C1975 C 0.8358 0.88748 0.70202 0.0
H1976 H 0.7147 0.48346 0.52283 0.0
H1977 H 0.7593 0.56192 0.53541 0.0
H1978 H 0.7206 0.57976 0.54491 0.0
H1979 H 0.6733 0.57348 0.54923 0.0
H1980 H 0.62915 0.49484 0.53782 0.0
H1981 H 0.6678 0.4772 0.52864 0.0
C1982 C 0.71607 0.5045 0.5276 0.0
C1983 C 0.74043 0.52116 0.52811 0.0
C1984 C 0.69346 0.51481 0.53347 0.0
C1985 C 0.74125 0.54838 0.53466 0.0
C1986 C 0.71891 0.55868 0.54018 0.0
C1987 C 0.67203 0.55245 0.54504 0.0
C1988 C 0.64764 0.53574 0.54444 0.0
C1989 C 0.69479 0.54217 0.53968 0.0
C1990 C 0.64709 0.50851 0.5386 0.0
C1991 C 0.66943 0.49827 0.53322 0.0
H1992 H 0.20883 0.19249 0.53808 0.0
H1993 H 0.2466 0.13119 0.50137 0.0
H1994 H 0.20758 0.09863 0.50037 0.0
H1995 H 0.16305 0.08697 0.51125 0.0
H1996 H 0.12492 0.14804 0.54797 0.0
H1997 H 0.16338 0.18091 0.54737 0.0
C1998 C 0.20846 0.17203 0.52976 0.0
C1999 C 0.23077 0.1644 0.51992 0.0
C2000 C 0.18578 0.15318 0.52922 0.0
C2001 C 0.22984 0.13774 0.50915 0.0
C2002 C 0.20747 0.11901 0.50856 0.0
C2003 C 0.16301 0.10747 0.51894 0.0
C2004 C 0.14095 0.11479 0.52971 0.0
C2005 C 0.18536 0.12642 0.51872 0.0
C2006 C 0.1415 0.14159 0.53959 0.0
C2007 C 0.16359 0.16052 0.53932 0.0
H2008 H 0.2775 0.981 0.78504 0.0
H2009 H 0.20125 0.94555 0.799 0.0
H2010 H 0.21518 0.90384 0.79848 0.0
H2011 H 0.2494 0.87463 0.7943 0.0
H2012 H 0.32516 0.90987 0.77849 0.0
H2013 H 0.31128 0.95155 0.77954 0.0
C2014 C 0.26354 0.9644 0.78803 0.0
C2015 C 0.23744 0.96843 0.79225 0.0
C2016 C 0.27191 0.93894 0.78735 0.0
C2017 C 0.22109 0.94495 0.79573 0.0
C2018 C 0.22928 0.92031 0.79544 0.0
C2019 C 0.26324 0.89115 0.79092 0.0
C2020 C 0.28924 0.88705 0.78617 0.0
C2021 C 0.25474 0.91653 0.79127 0.0
C2022 C 0.30538 0.91042 0.78208 0.0
C2023 C 0.29724 0.9351 0.78275 0.0
H2024 H 0.39966 0.99588 0.05323 0.0
H2025 H 0.3832 0.04223 0.99532 0.0
H2026 H 0.42933 0.05869 0.99471 0.0
H2027 H 0.47521 0.05962 1.01014 0.0
H2028 H 0.49089 1.01282 0.06807 0.0
H2029 H 0.445 0.99726 0.06902 0.0
C2030 C 0.40604 1.0097 0.04051 0.0
C2031 C 0.38743 1.01771 0.02436 0.0
C2032 C 0.4329 0.01912 0.04017 0.0
C2033 C 0.39663 0.03561 1.00806 0.0
C2034 C 0.42322 0.04505 1.00767 0.0
C2035 C 0.46869 0.04606 0.02305 0.0
C2036 C 0.48719 0.03757 0.039 0.0
C2037 C 0.4417 0.03692 0.02356 0.0
C2038 C 0.47771 0.0199 0.05547 0.0
C2039 C 0.45119 1.01089 0.05606 0.0
H2040 H 0.87525 0.61682 0.78841 0.0
H2041 H 0.83137 0.60362 0.85516 0.0
H2042 H 0.79675 0.62172 0.83615 0.0
H2043 H 0.78011 0.64297 0.8014 0.0
H2044 H 0.82556 0.65695 0.73573 0.0
H2045 H 0.85779 0.63549 0.75279 0.0
C2046 C 0.85818 0.61804 0.79891 0.0
C2047 C 0.85598 0.60941 0.82336 0.0
C2048 C 0.83839 0.62798 0.78772 0.0
C2049 C 0.83355 0.61052 0.83646 0.0
C2050 C 0.81374 0.62067 0.82551 0.0
C2051 C 0.79696 0.64111 0.7907 0.0
C2052 C 0.80033 0.65169 0.76735 0.0
C2053 C 0.81606 0.62964 0.80122 0.0
C2054 C 0.82208 0.64866 0.75346 0.0
C2055 C 0.84084 0.63678 0.76346 0.0
H2056 H 0.83357 0.63964 0.03027 0.0
H2057 H 0.88851 0.70954 0.02708 0.0
H2058 H 0.92377 0.688 0.0373 0.0
H2059 H 0.93902 0.64994 0.04904 0.0
H2060 H 0.88408 0.5797 0.05137 0.0
H2061 H 0.84897 0.60086 0.04003 0.0
C2062 C 0.85327 0.65009 0.03161 0.0
C2063 C 0.85834 0.6762 0.02792 0.0
C2064 C 0.87352 0.63761 0.03766 0.0
C2065 C 0.88401 0.68944 0.02979 0.0
C2066 C 0.90422 0.67715 0.03571 0.0
C2067 C 0.91942 0.63908 0.04674 0.0
C2068 C 0.91436 0.61324 0.05133 0.0
C2069 C 0.89921 0.65131 0.03994 0.0
C2070 C 0.88867 0.59975 0.04855 0.0
C2071 C 0.86851 0.61178 0.04184 0.0
H2072 H 0.21376 0.14733 0.79541 0.0
H2073 H 0.28408 0.11867 0.8028 0.0
H2074 H 0.30883 0.16255 0.80289 0.0
H2075 H 0.31181 0.21074 0.80072 0.0
H2076 H 0.2413 0.23921 0.79337 0.0
H2077 H 0.21672 0.19544 0.79347 0.0
C2078 C 0.23453 0.15039 0.7971 0.0
C2079 C 0.24638 0.12823 0.79914 0.0
C2080 C 0.24924 0.1766 0.79714 0.0
C2081 C 0.27362 0.13415 0.80122 0.0
C2082 C 0.28808 0.15977 0.80126 0.0
C2083 C 0.29105 0.20769 0.79917 0.0
C2084 C 0.27913 0.22983 0.79704 0.0
C2085 C 0.27635 0.18147 0.79922 0.0
C2086 C 0.25188 0.22383 0.79505 0.0
C2087 C 0.23747 0.19824 0.7951 0.0
H2088 H 0.36172 0.98522 0.36908 0.0
H2089 H 0.3264 0.9873 0.291 0.0
H2090 H 0.30117 0.94334 0.28807 0.0
H2091 H 0.29515 0.90192 0.30415 0.0
H2092 H 0.33379 0.89831 0.37982 0.0
H2093 H 0.35138 0.94548 0.38778 0.0
C2094 C 0.34808 0.97625 0.35171 0.0
C2095 C 0.34618 0.98916 0.33009 0.0
C2096 C 0.33432 0.9507 0.3498 0.0
C2097 C 0.32839 0.97749 0.30773 0.0
C2098 C 0.31399 0.95239 0.30603 0.0
C2099 C 0.30664 0.91183 0.32279 0.0
C2100 C 0.31308 0.89724 0.34161 0.0
C2101 C 0.31762 0.93845 0.32643 0.0
C2102 C 0.32844 0.90963 0.36541 0.0
C2103 C 0.33866 0.93642 0.36975 0.0
H2104 H 0.55881 0.33169 0.57769 0.0
H2105 H 0.64035 0.35145 0.57186 0.0
H2106 H 0.63271 0.37661 0.53713 0.0
H2107 H 0.60291 0.39604 0.51182 0.0
H2108 H 0.52173 0.37854 0.52211 0.0
H2109 H 0.52918 0.34795 0.55004 0.0
C2110 C 0.57497 0.34147 0.56882 0.0
C2111 C 0.60012 0.34029 0.5777 0.0
C2112 C 0.57045 0.35583 0.54916 0.0
C2113 C 0.62081 0.35249 0.56559 0.0
C2114 C 0.61643 0.36673 0.54569 0.0
C2115 C 0.58677 0.38555 0.52008 0.0
C2116 C 0.56186 0.39038 0.51509 0.0
C2117 C 0.59131 0.36903 0.53779 0.0
C2118 C 0.54117 0.37548 0.52511 0.0
C2119 C 0.54541 0.35818 0.54167 0.0
H2120 H 0.42534 0.7844 0.41556 0.0
H2121 H 0.46601 0.7743 0.34443 0.0
H2122 H 0.4289 0.78042 0.31728 0.0
H2123 H 0.38674 0.79327 0.31488 0.0
H2124 H 0.34728 0.8049 0.38693 0.0
H2125 H 0.38219 0.79368 0.41256 0.0
C2126 C 0.42592 0.78304 0.39404 0.0
C2127 C 0.44838 0.77913 0.38203 0.0
C2128 C 0.40493 0.78736 0.37879 0.0
C2129 C 0.44888 0.77735 0.35412 0.0
C2130 C 0.42777 0.78105 0.33863 0.0
C2131 C 0.38575 0.79326 0.33615 0.0
C2132 C 0.36465 0.80041 0.34901 0.0
C2133 C 0.40601 0.78691 0.35094 0.0
C2134 C 0.36349 0.79995 0.37655 0.0
C2135 C 0.38339 0.7934 0.39127 0.0
H2136 H 0.08021 0.72732 0.06671 0.0
H2137 H 0.15496 0.73145 0.10692 0.0
H2138 H 0.15026 0.68381 0.09341 0.0
H2139 H 0.12263 0.64065 0.07424 0.0
H2140 H 0.04681 0.63769 0.03694 0.0
H2141 H 0.05421 0.68528 0.04526 0.0
C2142 C 0.09566 0.71788 0.07222 0.0
C2143 C 0.11777 0.73274 0.08796 0.0
C2144 C 0.09247 0.69066 0.06518 0.0
C2145 C 0.13769 0.7203 0.09484 0.0
C2146 C 0.13495 0.6931 0.08726 0.0
C2147 C 0.10792 0.65051 0.0677 0.0
C2148 C 0.08412 0.63579 0.05537 0.0
C2149 C 0.11208 0.678 0.07308 0.0
C2150 C 0.06515 0.64867 0.04691 0.0
C2151 C 0.06937 0.67586 0.05155 0.0
H2152 H 0.11084 0.31606 0.93096 0.0
H2153 H 0.06197 0.25966 0.86798 0.0
H2154 H 0.09654 0.26231 0.83824 0.0
H2155 H 0.13972 0.28312 0.82919 0.0
H2156 H 0.18813 0.3397 0.89235 0.0
H2157 H 0.15468 0.33452 0.92301 0.0
C2158 C 0.10787 0.30408 0.91085 0.0
C2159 C 0.08388 0.28781 0.90161 0.0
C2160 C 0.12765 0.30596 0.89382 0.0
C2161 C 0.08031 0.27233 0.87555 0.0
C2162 C 0.1 0.27396 0.85849 0.0
C2163 C 0.14286 0.29427 0.84968 0.0
C2164 C 0.16622 0.31188 0.8585 0.0
C2165 C 0.12355 0.29116 0.86722 0.0
C2166 C 0.17031 0.32594 0.88518 0.0
C2167 C 0.15119 0.32305 0.90268 0.0
H2168 H 0.62766 0.77433 0.96374 0.0
H2169 H 0.54856 0.78245 0.95411 0.0
H2170 H 0.53742 0.75421 0.98646 0.0
H2171 H 0.54991 0.72559 1.01601 0.0
H2172 H 0.62876 0.71669 0.0245 0.0
H2173 H 0.64042 0.74723 0.99443 0.0
C2174 C 0.60798 0.76989 0.96871 0.0
C2175 C 0.58893 0.78024 0.95643 0.0
C2176 C 0.60175 0.75372 0.9873 0.0
C2177 C 0.56354 0.77453 0.9632 0.0
C2178 C 0.55718 0.75848 0.98175 0.0
C2179 C 0.56969 0.73083 1.01164 0.0
C2180 C 0.58851 0.71917 0.02242 0.0
C2181 C 0.57609 0.74785 0.99382 0.0
C2182 C 0.61404 0.72561 1.01636 0.0
C2183 C 0.62065 0.7429 0.9991 0.0
H2184 H 0.07973 0.7498 0.70804 0.0
H2185 H 0.08655 0.83348 0.73202 0.0
H2186 H 0.12346 0.83544 0.76394 0.0
H2187 H 0.15527 0.81367 0.78274 0.0
H2188 H 0.14966 0.73035 0.75626 0.0
H2189 H 0.11022 0.72784 0.72823 0.0
C2190 C 0.0892 0.76846 0.72037 0.0
C2191 C 0.08066 0.7915 0.71757 0.0
C2192 C 0.11046 0.76946 0.73835 0.0
C2193 C 0.09296 0.81551 0.73373 0.0
C2194 C 0.114 0.81663 0.75198 0.0
C2195 C 0.14536 0.79495 0.77089 0.0
C2196 C 0.15549 0.77227 0.77152 0.0
C2197 C 0.12316 0.79377 0.7541 0.0
C2198 C 0.14215 0.74807 0.75647 0.0
C2199 C 0.11974 0.74665 0.74016 0.0
H2200 H 0.07258 0.40064 0.44795 0.0
H2201 H 0.13724 0.40038 0.50317 0.0
H2202 H 0.13289 0.44306 0.52894 0.0
H2203 H 0.11166 0.48135 0.53431 0.0
H2204 H 0.04801 0.48115 0.47738 0.0
H2205 H 0.051 0.43767 0.4538 0.0
C2206 C 0.08565 0.40982 0.46573 0.0
C2207 C 0.10522 0.39749 0.47365 0.0
C2208 C 0.08326 0.43432 0.48007 0.0
C2209 C 0.12203 0.4096 0.49668 0.0
C2210 C 0.11956 0.43397 0.51138 0.0
C2211 C 0.09835 0.47165 0.51689 0.0
C2212 C 0.07975 0.48449 0.50754 0.0
C2213 C 0.10039 0.44665 0.50307 0.0
C2214 C 0.06267 0.47179 0.48486 0.0
C2215 C 0.06431 0.44689 0.47135 0.0
H2216 H 0.47105 0.30865 0.24466 0.0
H2217 H 0.42239 0.26428 0.17431 0.0
H2218 H 0.38453 0.26535 0.19961 0.0
H2219 H 0.36529 0.28168 0.24109 0.0
H2220 H 0.41451 0.32822 0.30991 0.0
H2221 H 0.45244 0.3229 0.28609 0.0
C2222 C 0.45217 0.29917 0.2348 0.0
C2223 C 0.44941 0.28667 0.20761 0.0
C2224 C 0.43074 0.29994 0.24936 0.0
C2225 C 0.4249 0.27426 0.1952 0.0
C2226 C 0.40332 0.27476 0.20968 0.0
C2227 C 0.38441 0.28993 0.25099 0.0
C2228 C 0.3874 0.30494 0.27722 0.0
C2229 C 0.40601 0.28777 0.23671 0.0
C2230 C 0.41203 0.31631 0.2898 0.0
C2231 C 0.4336 0.31349 0.27613 0.0
H2232 H 0.67892 0.58098 0.39666 0.0
H2233 H 0.63023 0.51016 0.35237 0.0
H2234 H 0.60392 0.50858 0.39031 0.0
H2235 H 0.59323 0.52689 0.43779 0.0
H2236 H 0.64111 0.59879 0.48106 0.0
H2237 H 0.66759 0.59987 0.44342 0.0
C2238 C 0.66262 0.56501 0.39497 0.0
C2239 C 0.65754 0.54552 0.37021 0.0
C2240 C 0.6466 0.5643 0.41761 0.0
C2241 C 0.63561 0.52559 0.37005 0.0
C2242 C 0.62016 0.52465 0.39227 0.0
C2243 C 0.60934 0.54302 0.4393 0.0
C2244 C 0.61416 0.56289 0.46382 0.0
C2245 C 0.62518 0.54384 0.41648 0.0
C2246 C 0.6358 0.58308 0.4636 0.0
C2247 C 0.65142 0.58373 0.44156 0.0
H2248 H 0.33144 0.97481 0.1133 0.0
H2249 H 0.28429 0.90679 0.0617 0.0
H2250 H 0.28802 0.88108 0.09644 0.0
H2251 H 0.30618 0.87716 0.14054 0.0
H2252 H 0.35404 0.94455 0.19232 0.0
H2253 H 0.3488 0.97108 0.15843 0.0
C2254 C 0.32179 0.95444 0.10983 0.0
C2255 C 0.30759 0.94275 0.08496 0.0
C2256 C 0.32436 0.93954 0.12981 0.0
C2257 C 0.29538 0.91626 0.08064 0.0
C2258 C 0.29752 0.90151 0.10048 0.0
C2259 C 0.3152 0.89774 0.1446 0.0
C2260 C 0.33047 0.9088 0.16897 0.0
C2261 C 0.31218 0.91284 0.12502 0.0
C2262 C 0.3424 0.93542 0.17362 0.0
C2263 C 0.33931 0.95066 0.15429 0.0
H2264 H 0.99348 0.5947 0.89427 0.0
H2265 H 0.92918 0.59359 0.94253 0.0
H2266 H 0.95601 0.58752 0.98066 0.0
H2267 H 0.99545 0.57626 0.99768 0.0
H2268 H 0.05967 0.57598 0.94946 0.0
H2269 H 0.03489 0.58861 0.91349 0.0
C2270 C 0.9855 0.59377 0.91333 0.0
C2271 C 0.95931 0.59422 0.91553 0.0
C2272 C 1.00076 0.58934 0.9348 0.0
C2273 C 0.94925 0.59315 0.94035 0.0
C2274 C 0.9645 0.58943 0.96204 0.0
C2275 C 1.00414 0.57907 0.97938 0.0
C2276 C 0.02912 0.57461 0.97592 0.0
C2277 C 0.98989 0.58635 0.95904 0.0
C2278 C 0.04032 0.57895 0.95238 0.0
C2279 C 0.02619 0.58622 0.9319 0.0
H2280 H 0.29033 0.27899 0.60943 0.0
H2281 H 0.34389 0.22731 0.6134 0.0
H2282 H 0.35199 0.2426 0.66194 0.0
H2283 H 0.34279 0.26937 0.7041 0.0
H2284 H 0.28885 0.32075 0.70047 0.0
H2285 H 0.28229 0.30709 0.65166 0.0
C2286 C 0.30389 0.27122 0.62089 0.0
C2287 C 0.31636 0.25191 0.60753 0.0
C2288 C 0.30845 0.28003 0.64918 0.0
C2289 C 0.33386 0.2421 0.62293 0.0
C2290 C 0.33856 0.25084 0.65084 0.0
C2291 C 0.32978 0.27779 0.69266 0.0
C2292 C 0.31636 0.29609 0.70631 0.0
C2293 C 0.32582 0.26964 0.66431 0.0
C2294 C 0.29948 0.30659 0.69083 0.0
C2295 C 0.29563 0.29874 0.66274 0.0
H2296 H 0.6763 0.52518 0.18557 0.0
H2297 H 0.63105 0.56712 0.23897 0.0
H2298 H 0.60602 0.57479 0.20027 0.0
H2299 H 0.59576 0.57034 0.14987 0.0
H2300 H 0.63883 0.52564 0.09634 0.0
H2301 H 0.66454 0.5188 0.13502 0.0
C2302 C 0.66097 0.536 0.18905 0.0
C2303 C 0.65637 0.54549 0.21656 0.0
C2304 C 0.64562 0.54009 0.16585 0.0
C2305 C 0.63581 0.55926 0.21905 0.0
C2306 C 0.62119 0.5638 0.19646 0.0
C2307 C 0.61071 0.55903 0.14633 0.0
C2308 C 0.61466 0.5488 0.11881 0.0
C2309 C 0.6257 0.55444 0.16949 0.0
C2310 C 0.63451 0.53405 0.11627 0.0
C2311 C 0.64959 0.53006 0.13886 0.0
H2312 H 0.33943 0.94671 0.93437 0.0
H2313 H 0.27784 0.89549 0.9611 0.0
H2314 H 0.28193 0.85964 0.92461 0.0
H2315 H 0.30276 0.8426 0.88432 0.0
H2316 H 0.36559 0.89374 0.85904 0.0
H2317 H 0.36148 0.92917 0.89554 0.0
C2318 C 0.32676 0.92777 0.93206 0.0
C2319 C 0.30811 0.92403 0.95036 0.0
C2320 C 0.32964 0.90688 0.91131 0.0
C2321 C 0.29224 0.8991 0.94728 0.0
C2322 C 0.29464 0.87847 0.92641 0.0
C2323 C 0.31585 0.86133 0.88704 0.0
C2324 C 0.33453 0.86516 0.8687 0.0
C2325 C 0.31335 0.88203 0.90828 0.0
C2326 C 0.35103 0.88989 0.87263 0.0
C2327 C 0.34863 0.91039 0.89353 0.0
H2328 H 0.9819 0.58808 0.79272 0.0
H2329 H 0.91875 0.52764 0.75236 0.0
H2330 H 0.94296 0.51949 0.71314 0.0
H2331 H 0.98265 0.52879 0.69102 0.0
H2332 H 0.04596 0.58858 0.73218 0.0
H2333 H 0.02115 0.59761 0.77063 0.0
C2334 C 0.97337 0.57323 0.77527 0.0
C2335 C 0.94862 0.55851 0.77534 0.0
C2336 C 0.98749 0.56842 0.7531 0.0
C2337 C 0.93782 0.53922 0.75271 0.0
C2338 C 0.95165 0.53454 0.73034 0.0
C2339 C 0.99088 0.54391 0.70836 0.0
C2340 C 1.01606 0.55795 0.70889 0.0
C2341 C 0.97656 0.54891 0.73041 0.0
C2342 C 0.0267 0.5773 0.73153 0.0
C2343 C 1.0125 0.58257 0.75341 0.0
H2344 H 0.33555 0.28352 0.46923 0.0
H2345 H 0.27109 0.22251 0.43335 0.0
H2346 H 0.2728 0.23814 0.39108 0.0
H2347 H 0.29247 0.26895 0.36375 0.0
H2348 H 0.35725 0.32991 0.39895 0.0
H2349 H 0.35554 0.3145 0.44146 0.0
C2350 C 0.32179 0.27375 0.45222 0.0
C2351 C 0.30313 0.25184 0.45475 0.0
C2352 C 0.32299 0.28277 0.42756 0.0
C2353 C 0.28564 0.2394 0.43224 0.0
C2354 C 0.28661 0.24831 0.4079 0.0
C2355 C 0.30635 0.27887 0.38061 0.0
C2356 C 0.32503 0.30064 0.37778 0.0
C2357 C 0.30524 0.26992 0.40523 0.0
C2358 C 0.34267 0.31311 0.4002 0.0
C2359 C 0.34167 0.30432 0.42469 0.0
H2360 H 0.43225 0.64452 0.55571 0.0
H2361 H 0.39113 0.56668 0.55651 0.0
H2362 H 0.43037 0.54943 0.5483 0.0
H2363 H 0.47713 0.55605 0.541 0.0
H2364 H 0.51857 0.63428 0.54228 0.0
H2365 H 0.47914 0.65128 0.54928 0.0
C2366 C 0.43175 0.62374 0.55416 0.0
C2367 C 0.40814 0.60709 0.55684 0.0
C2368 C 0.45481 0.6138 0.54956 0.0
C2369 C 0.40854 0.58022 0.55471 0.0
C2370 C 0.43119 0.57026 0.54989 0.0
C2371 C 0.4776 0.57681 0.54248 0.0
C2372 C 0.50138 0.5936 0.54056 0.0
C2373 C 0.45455 0.58676 0.54719 0.0
C2374 C 0.50104 0.62056 0.54328 0.0
C2375 C 0.47826 0.63041 0.54743 0.0
H2376 H 0.94091 0.92498 0.54858 0.0
H2377 H 0.90403 0.98769 0.58353 0.0
H2378 H 0.94358 0.01951 0.58417 0.0
H2379 H 0.98801 0.02999 0.57295 0.0
H2380 H 0.02511 0.96759 0.53742 0.0
H2381 H 0.98634 0.93539 0.5391 0.0
C2382 C 0.9416 0.94559 0.55651 0.0
C2383 C 0.91944 0.9539 0.56591 0.0
C2384 C 0.96449 0.96394 0.55667 0.0
C2385 C 0.92072 0.9807 0.57611 0.0
C2386 C 0.94336 0.99896 0.57647 0.0
C2387 C 0.98777 1.00934 0.56576 0.0
C2388 C 1.00957 1.00139 0.55497 0.0
C2389 C 0.96528 0.99087 0.56653 0.0
C2390 C 1.0087 0.97444 0.54575 0.0
C2391 C 0.98646 0.95594 0.54666 0.0
H2392 H 0.86965 0.14066 0.29309 0.0
H2393 H 0.94838 0.17858 0.2929 0.0
H2394 H 0.93486 0.22053 0.29376 0.0
H2395 H 0.90029 0.24932 0.29454 0.0
H2396 H 0.82181 0.21124 0.29653 0.0
H2397 H 0.83542 0.16945 0.29503 0.0
C2398 C 0.88424 0.15785 0.29321 0.0
C2399 C 0.9109 0.15446 0.29276 0.0
C2400 C 0.87607 0.18341 0.29408 0.0
C2401 C 0.92806 0.17867 0.29315 0.0
C2402 C 0.92011 0.20346 0.29365 0.0
C2403 C 0.88579 0.23214 0.29475 0.0
C2404 C 0.8591 0.2355 0.2958 0.0
C2405 C 0.89408 0.20662 0.29414 0.0
C2406 C 0.84213 0.21129 0.29593 0.0
C2407 C 0.8501 0.18654 0.29499 0.0
H2408 H 0.74397 0.11142 1.01811 0.0
H2409 H 0.75568 0.08934 0.09483 0.0
H2410 H 0.70917 0.07663 0.0958 0.0
H2411 H 0.66441 0.07246 0.07549 0.0
H2412 H 0.65273 0.09325 0.99806 0.0
H2413 H 0.6992 0.10554 0.99691 0.0
C2414 C 0.73643 0.10363 0.03499 0.0
C2415 C 0.75387 0.1014 0.05638 0.0
C2416 C 0.70926 0.09615 0.03541 0.0
C2417 C 0.74321 0.09127 0.07798 0.0
C2418 C 0.71639 0.08404 0.0786 0.0
C2419 C 0.67192 0.07966 0.05829 0.0
C2420 C 0.65445 0.0819 0.03691 0.0
C2421 C 0.6991 0.08652 0.05755 0.0
C2422 C 0.66516 0.09117 1.01487 0.0
C2423 C 0.69198 0.09828 1.01419 0.0
H2424 H 0.32312 0.54809 0.25624 0.0
H2425 H 0.26687 0.47805 0.22331 0.0
H2426 H 0.29673 0.45104 0.23547 0.0
H2427 H 0.33549 0.44793 0.26167 0.0
H2428 H 0.38977 0.51781 0.29927 0.0
H2429 H 0.36411 0.54457 0.27888 0.0
C2430 C 0.31764 0.5269 0.25123 0.0
C2431 C 0.29284 0.51498 0.23909 0.0
C2432 C 0.33445 0.51162 0.25933 0.0
C2433 C 0.28582 0.48757 0.23284 0.0
C2434 C 0.30285 0.47218 0.23982 0.0
C2435 C 0.34222 0.46891 0.26456 0.0
C2436 C 0.36458 0.48093 0.28165 0.0
C2437 C 0.32679 0.48405 0.25392 0.0
C2438 C 0.37267 0.50822 0.28602 0.0
C2439 C 0.35793 0.52346 0.27453 0.0
H2440 H 0.25923 0.41821 0.04831 0.0
H2441 H 0.31863 0.48768 0.06058 0.0
H2442 H 0.28682 0.51369 0.05147 0.0
H2443 H 0.24225 0.51669 0.03918 0.0
H2444 H 0.18289 0.44708 0.02567 0.0
H2445 H 0.21442 0.42134 0.03638 0.0
C2446 C 0.26518 0.43907 0.04916 0.0
C2447 C 0.29131 0.45095 0.05514 0.0
C2448 C 0.24676 0.45394 0.04363 0.0
C2449 C 0.29868 0.478 0.05603 0.0
C2450 C 0.28048 0.49291 0.05077 0.0
C2451 C 0.2362 0.49585 0.03834 0.0
C2452 C 0.21015 0.48392 0.03153 0.0
C2453 C 0.2545 0.48106 0.04432 0.0
C2454 C 0.2027 0.45692 0.0311 0.0
C2455 C 0.22078 0.44211 0.0371 0.0
H2456 H 0.86753 0.99253 0.28239 0.0
H2457 H 0.94616 0.9831 0.29099 0.0
H2458 H 0.93179 0.93678 0.2918 0.0
H2459 H 0.89672 0.8967 0.29034 0.0
H2460 H 0.81804 0.90594 0.28119 0.0
H2461 H 0.83239 0.95224 0.28039 0.0
C2462 C 0.88176 0.98058 0.28441 0.0
C2463 C 0.90856 0.99291 0.28661 0.0
C2464 C 0.87315 0.95271 0.28481 0.0
C2465 C 0.92567 0.97557 0.28919 0.0
C2466 C 0.91732 0.94845 0.28968 0.0
C2467 C 0.88245 0.90857 0.28812 0.0
C2468 C 0.85567 0.89616 0.28583 0.0
C2469 C 0.89105 0.93639 0.28755 0.0
C2470 C 0.83853 0.91344 0.28301 0.0
C2471 C 0.84688 0.94059 0.28255 0.0
H2472 H 0.78853 0.14393 0.77041 0.0
H2473 H 0.73379 0.14806 0.70605 0.0
H2474 H 0.75077 0.19501 0.71094 0.0
H2475 H 0.77775 0.23564 0.73722 0.0
H2476 H 0.8292 0.23155 0.80446 0.0
H2477 H 0.81721 0.1838 0.79465 0.0
C2478 C 0.78066 0.15503 0.75714 0.0
C2479 C 0.75993 0.14273 0.73802 0.0
C2480 C 0.78982 0.18205 0.76077 0.0
C2481 C 0.74972 0.15727 0.72103 0.0
C2482 C 0.75936 0.18407 0.72386 0.0
C2483 C 0.78665 0.22416 0.7493 0.0
C2484 C 0.8042 0.23685 0.77151 0.0
C2485 C 0.7789 0.1968 0.74419 0.0
C2486 C 0.81547 0.22201 0.78735 0.0
C2487 C 0.80863 0.19478 0.78178 0.0
loop_
_geom_bond_atom_site_label_1
_geom_bond_atom_site_label_2
_geom_bond_distance
_geom_bond_site_symmetry_2
_ccdc_geom_bond_type
In0 O1 2.294 . S
In0 O2 2.326 . S
In0 O6 2.266 . S
In0 O7 2.326 . S
In0 O8 2.266 . S
In0 O9 2.326 . S
In0 O11 2.294 . S
In0 O12 2.326 . S
O1 In0 2.294 . S
O1 C10 1.240 . S
O2 In0 2.326 . S
O2 C10 1.252 . S
C3 O6 1.252 . S
C3 O7 1.260 . S
C4 O11 1.240 . S
C4 O12 1.252 . S
C5 O8 1.252 . S
C5 O9 1.260 . S
O6 In0 2.266 . S
O6 C3 1.252 . S
O7 In0 2.326 . S
O7 C3 1.260 . S
O8 In0 2.266 . S
O8 C5 1.252 . S
O9 In0 2.326 . S
O9 C5 1.260 . S
C10 O1 1.240 . S
C10 O2 1.252 . S
O11 In0 2.294 . S
O11 C4 1.240 . S
O12 In0 2.326 . S
O12 C4 1.252 . S
In13 O14 2.294 . S
In13 O15 2.326 . S
In13 O19 2.266 1_455 S
In13 O20 2.326 1_455 S
In13 O21 2.264 1_455 S
In13 O22 2.322 1_455 S
In13 O24 2.296 . S
In13 O25 2.330 . S
O14 In13 2.294 . S
O14 C23 1.240 . S
O15 In13 2.326 . S
O15 C23 1.252 . S
C16 O19 1.252 . S
C16 O20 1.260 . S
C17 O24 1.240 . S
C17 O25 1.252 . S
C18 O21 1.252 . S
C18 O22 1.260 . S
O19 In13 2.266 1_655 S
O19 C16 1.252 . S
O20 In13 2.326 1_655 S
O20 C16 1.260 . S
O21 In13 2.264 1_655 S
O21 C18 1.252 . S
O22 In13 2.322 1_655 S
O22 C18 1.260 . S
C23 O14 1.240 . S
C23 O15 1.252 . S
O24 In13 2.296 . S
O24 C17 1.240 . S
O25 In13 2.330 . S
O25 C17 1.252 . S
In26 O27 2.294 . S
In26 O28 2.326 . S
In26 O32 2.266 . S
In26 O33 2.326 . S
In26 O34 2.266 . S
In26 O35 2.326 . S
In26 O37 2.294 . S
In26 O38 2.326 . S
O27 In26 2.294 . S
O27 C36 1.240 . S
O28 In26 2.326 . S
O28 C36 1.252 . S
C29 O32 1.252 . S
C29 O33 1.260 . S
C30 O37 1.240 . S
C30 O38 1.252 . S
C31 O34 1.252 . S
C31 O35 1.260 . S
O32 In26 2.266 . S
O32 C29 1.252 . S
O33 In26 2.326 . S
O33 C29 1.260 . S
O34 In26 2.266 . S
O34 C31 1.252 . S
O35 In26 2.326 . S
O35 C31 1.260 . S
C36 O27 1.240 . S
C36 O28 1.252 . S
O37 In26 2.294 . S
O37 C30 1.240 . S
O38 In26 2.326 . S
O38 C30 1.252 . S
In39 O40 2.294 . S
In39 O41 2.326 . S
In39 O45 2.266 . S
In39 O46 2.326 . S
In39 O47 2.266 . S
In39 O48 2.326 . S
In39 O50 2.294 . S
In39 O51 2.326 . S
O40 In39 2.294 . S
O40 C49 1.240 . S
O41 In39 2.326 . S
O41 C49 1.252 . S
C42 O45 1.252 . S
C42 O46 1.260 . S
C43 O50 1.240 . S
C43 O51 1.252 . S
C44 O47 1.252 . S
C44 O48 1.260 . S
O45 In39 2.266 . S
O45 C42 1.252 . S
O46 In39 2.326 . S
O46 C42 1.260 . S
O47 In39 2.266 . S
O47 C44 1.252 . S
O48 In39 2.326 . S
O48 C44 1.260 . S
C49 O40 1.240 . S
C49 O41 1.252 . S
O50 In39 2.294 . S
O50 C43 1.240 . S
O51 In39 2.326 . S
O51 C43 1.252 . S
In52 O53 2.294 . S
In52 O54 2.326 . S
In52 O58 2.266 . S
In52 O59 2.326 . S
In52 O60 2.266 . S
In52 O61 2.326 . S
In52 O63 2.294 . S
In52 O64 2.326 . S
O53 In52 2.294 . S
O53 C62 1.240 . S
O54 In52 2.326 . S
O54 C62 1.252 . S
C55 O58 1.252 . S
C55 O59 1.260 . S
C56 O63 1.240 . S
C56 O64 1.252 . S
C57 O60 1.252 . S
C57 O61 1.260 . S
O58 In52 2.266 . S
O58 C55 1.252 . S
O59 In52 2.326 . S
O59 C55 1.260 . S
O60 In52 2.266 . S
O60 C57 1.252 . S
O61 In52 2.326 . S
O61 C57 1.260 . S
C62 O53 1.240 . S
C62 O54 1.252 . S
O63 In52 2.294 . S
O63 C56 1.240 . S
O64 In52 2.326 . S
O64 C56 1.252 . S
In65 O66 2.294 . S
In65 O67 2.326 . S
In65 O71 2.266 . S
In65 O72 2.326 . S
In65 O73 2.266 . S
In65 O74 2.326 . S
In65 O76 2.294 . S
In65 O77 2.326 . S
O66 In65 2.294 . S
O66 C75 1.240 . S
O67 In65 2.326 . S
O67 C75 1.252 . S
C68 O71 1.252 . S
C68 O72 1.260 . S
C69 O76 1.240 . S
C69 O77 1.252 . S
C70 O73 1.252 . S
C70 O74 1.260 . S
O71 In65 2.266 . S
O71 C68 1.252 . S
O72 In65 2.326 . S
O72 C68 1.260 . S
O73 In65 2.266 . S
O73 C70 1.252 . S
O74 In65 2.326 . S
O74 C70 1.260 . S
C75 O66 1.240 . S
C75 O67 1.252 . S
O76 In65 2.294 . S
O76 C69 1.240 . S
O77 In65 2.326 . S
O77 C69 1.252 . S
In78 O79 2.294 . S
In78 O80 2.326 . S
In78 O84 2.266 . S
In78 O85 2.326 . S
In78 O86 2.266 . S
In78 O87 2.326 . S
In78 O89 2.294 . S
In78 O90 2.326 . S
O79 In78 2.294 . S
O79 C88 1.240 . S
O80 In78 2.326 . S
O80 C88 1.252 . S
C81 O84 1.252 . S
C81 O85 1.260 . S
C82 O89 1.240 . S
C82 O90 1.252 . S
C83 O86 1.252 . S
C83 O87 1.260 . S
O84 In78 2.266 . S
O84 C81 1.252 . S
O85 In78 2.326 . S
O85 C81 1.260 . S
O86 In78 2.266 . S
O86 C83 1.252 . S
O87 In78 2.326 . S
O87 C83 1.260 . S
C88 O79 1.240 . S
C88 O80 1.252 . S
O89 In78 2.294 . S
O89 C82 1.240 . S
O90 In78 2.326 . S
O90 C82 1.252 . S
In91 O92 2.294 . S
In91 O93 2.326 . S
In91 O97 2.266 . S
In91 O98 2.326 . S
In91 O99 2.266 1_455 S
In91 O100 2.326 1_455 S
In91 O102 2.294 . S
In91 O103 2.326 . S
O92 In91 2.294 . S
O92 C101 1.240 . S
O93 In91 2.326 . S
O93 C101 1.252 . S
C94 O97 1.252 . S
C94 O98 1.260 . S
C95 O102 1.240 . S
C95 O103 1.252 . S
C96 O99 1.252 . S
C96 O100 1.260 . S
O97 In91 2.266 . S
O97 C94 1.252 . S
O98 In91 2.326 . S
O98 C94 1.260 . S
O99 In91 2.266 1_655 S
O99 C96 1.252 . S
O100 In91 2.326 1_655 S
O100 C96 1.260 . S
C101 O92 1.240 . S
C101 O93 1.252 . S
O102 In91 2.294 . S
O102 C95 1.240 . S
O103 In91 2.326 . S
O103 C95 1.252 . S
In104 O105 2.294 . S
In104 O106 2.326 . S
In104 O110 2.266 . S
In104 O111 2.326 . S
In104 O112 2.266 1_545 S
In104 O113 2.326 1_545 S
In104 O115 2.294 . S
In104 O116 2.326 . S
O105 In104 2.294 . S
O105 C114 1.240 . S
O106 In104 2.326 . S
O106 C114 1.252 . S
C107 O110 1.252 . S
C107 O111 1.260 . S
C108 O115 1.240 . S
C108 O116 1.252 . S
C109 O112 1.252 . S
C109 O113 1.260 . S
O110 In104 2.266 . S
O110 C107 1.252 . S
O111 In104 2.326 . S
O111 C107 1.260 . S
O112 In104 2.266 1_565 S
O112 C109 1.252 . S
O113 In104 2.326 1_565 S
O113 C109 1.260 . S
C114 O105 1.240 . S
C114 O106 1.252 . S
O115 In104 2.294 . S
O115 C108 1.240 . S
O116 In104 2.326 . S
O116 C108 1.252 . S
In117 O118 2.294 . S
In117 O119 2.326 . S
In117 O123 2.266 . S
In117 O124 2.326 . S
In117 O125 2.266 . S
In117 O126 2.326 . S
In117 O128 2.294 . S
In117 O129 2.326 . S
O118 In117 2.294 . S
O118 C127 1.240 . S
O119 In117 2.326 . S
O119 C127 1.252 . S
C120 O123 1.252 . S
C120 O124 1.260 . S
C121 O128 1.240 . S
C121 O129 1.252 . S
C122 O125 1.252 . S
C122 O126 1.260 . S
O123 In117 2.266 . S
O123 C120 1.252 . S
O124 In117 2.326 . S
O124 C120 1.260 . S
O125 In117 2.266 . S
O125 C122 1.252 . S
O126 In117 2.326 . S
O126 C122 1.260 . S
C127 O118 1.240 . S
C127 O119 1.252 . S
O128 In117 2.294 . S
O128 C121 1.240 . S
O129 In117 2.326 . S
O129 C121 1.252 . S
In130 O131 2.294 . S
In130 O132 2.326 . S
In130 O136 2.266 . S
In130 O137 2.326 . S
In130 O138 2.266 . S
In130 O139 2.326 . S
In130 O141 2.294 1_545 S
In130 O142 2.326 1_545 S
O131 In130 2.294 . S
O131 C140 1.240 . S
O132 In130 2.326 . S
O132 C140 1.252 . S
C133 O136 1.252 . S
C133 O137 1.260 . S
C134 O141 1.240 . S
C134 O142 1.252 . S
C135 O138 1.252 . S
C135 O139 1.260 . S
O136 In130 2.266 . S
O136 C133 1.252 . S
O137 In130 2.326 . S
O137 C133 1.260 . S
O138 In130 2.266 . S
O138 C135 1.252 . S
O139 In130 2.326 . S
O139 C135 1.260 . S
C140 O131 1.240 . S
C140 O132 1.252 . S
O141 In130 2.294 1_565 S
O141 C134 1.240 . S
O142 In130 2.326 1_565 S
O142 C134 1.252 . S
In143 O144 2.294 . S
In143 O145 2.326 . S
In143 O149 2.266 1_554 S
In143 O150 2.326 1_554 S
In143 O151 2.266 . S
In143 O152 2.326 . S
In143 O154 2.294 . S
In143 O155 2.326 . S
O144 In143 2.294 . S
O144 C153 1.240 . S
O145 In143 2.326 . S
O145 C153 1.252 . S
C146 O149 1.252 . S
C146 O150 1.260 . S
C147 O154 1.240 . S
C147 O155 1.252 . S
C148 O151 1.252 . S
C148 O152 1.260 . S
O149 In143 2.266 1_556 S
O149 C146 1.252 . S
O150 In143 2.326 1_556 S
O150 C146 1.260 . S
O151 In143 2.266 . S
O151 C148 1.252 . S
O152 In143 2.326 . S
O152 C148 1.260 . S
C153 O144 1.240 . S
C153 O145 1.252 . S
O154 In143 2.294 . S
O154 C147 1.240 . S
O155 In143 2.326 . S
O155 C147 1.252 . S
In156 O157 2.294 . S
In156 O158 2.326 . S
In156 O162 2.266 1_554 S
In156 O163 2.326 1_554 S
In156 O164 2.266 . S
In156 O165 2.326 . S
In156 O167 2.294 . S
In156 O168 2.326 . S
O157 In156 2.294 . S
O157 C166 1.240 . S
O158 In156 2.326 . S
O158 C166 1.252 . S
C159 O162 1.252 . S
C159 O163 1.260 . S
C160 O167 1.240 . S
C160 O168 1.252 . S
C161 O164 1.252 . S
C161 O165 1.260 . S
O162 In156 2.266 1_556 S
O162 C159 1.252 . S
O163 In156 2.326 1_556 S
O163 C159 1.260 . S
O164 In156 2.266 . S
O164 C161 1.252 . S
O165 In156 2.326 . S
O165 C161 1.260 . S
C166 O157 1.240 . S
C166 O158 1.252 . S
O167 In156 2.294 . S
O167 C160 1.240 . S
O168 In156 2.326 . S
O168 C160 1.252 . S
In169 O170 2.294 . S
In169 O171 2.326 . S
In169 O175 2.266 . S
In169 O176 2.326 . S
In169 O177 2.266 . S
In169 O178 2.326 1_554 S
In169 O180 2.294 . S
In169 O181 2.326 . S
O170 In169 2.294 . S
O170 C179 1.240 . S
O171 In169 2.326 . S
O171 C179 1.252 . S
C172 O175 1.252 . S
C172 O176 1.260 . S
C173 O180 1.240 . S
C173 O181 1.252 . S
C174 O177 1.252 1_556 S
C174 O178 1.260 . S
O175 In169 2.266 . S
O175 C172 1.252 . S
O176 In169 2.326 . S
O176 C172 1.260 . S
O177 In169 2.266 . S
O177 C174 1.252 1_554 S
O178 In169 2.326 1_556 S
O178 C174 1.260 . S
C179 O170 1.240 . S
C179 O171 1.252 . S
O180 In169 2.294 . S
O180 C173 1.240 . S
O181 In169 2.326 . S
O181 C173 1.252 . S
In182 O183 2.294 . S
In182 O184 2.326 . S
In182 O188 2.266 . S
In182 O189 2.326 . S
In182 O190 2.266 . S
In182 O191 2.326 . S
In182 O193 2.294 . S
In182 O194 2.326 . S
O183 In182 2.294 . S
O183 C192 1.240 . S
O184 In182 2.326 . S
O184 C192 1.252 . S
C185 O188 1.252 . S
C185 O189 1.260 . S
C186 O193 1.240 . S
C186 O194 1.252 . S
C187 O190 1.252 . S
C187 O191 1.260 . S
O188 In182 2.266 . S
O188 C185 1.252 . S
O189 In182 2.326 . S
O189 C185 1.260 . S
O190 In182 2.266 . S
O190 C187 1.252 . S
O191 In182 2.326 . S
O191 C187 1.260 . S
C192 O183 1.240 . S
C192 O184 1.252 . S
O193 In182 2.294 . S
O193 C186 1.240 . S
O194 In182 2.326 . S
O194 C186 1.252 . S
In195 O196 2.294 . S
In195 O197 2.326 . S
In195 O201 2.266 . S
In195 O202 2.326 . S
In195 O203 2.266 . S
In195 O204 2.326 . S
In195 O206 2.294 . S
In195 O207 2.326 . S
O196 In195 2.294 . S
O196 C205 1.240 . S
O197 In195 2.326 . S
O197 C205 1.252 . S
C198 O201 1.252 . S
C198 O202 1.260 . S
C199 O206 1.240 . S
C199 O207 1.252 . S
C200 O203 1.252 . S
C200 O204 1.260 . S
O201 In195 2.266 . S
O201 C198 1.252 . S
O202 In195 2.326 . S
O202 C198 1.260 . S
O203 In195 2.266 . S
O203 C200 1.252 . S
O204 In195 2.326 . S
O204 C200 1.260 . S
C205 O196 1.240 . S
C205 O197 1.252 . S
O206 In195 2.294 . S
O206 C199 1.240 . S
O207 In195 2.326 . S
O207 C199 1.252 . S
In208 O209 2.294 . S
In208 O210 2.326 . S
In208 O214 2.266 . S
In208 O215 2.326 . S
In208 O216 2.266 . S
In208 O217 2.326 . S
In208 O219 2.294 . S
In208 O220 2.326 . S
O209 In208 2.294 . S
O209 C218 1.240 . S
O210 In208 2.326 . S
O210 C218 1.252 . S
C211 O214 1.252 . S
C211 O215 1.260 . S
C212 O219 1.240 . S
C212 O220 1.252 . S
C213 O216 1.252 . S
C213 O217 1.260 . S
O214 In208 2.266 . S
O214 C211 1.252 . S
O215 In208 2.326 . S
O215 C211 1.260 . S
O216 In208 2.266 . S
O216 C213 1.252 . S
O217 In208 2.326 . S
O217 C213 1.260 . S
C218 O209 1.240 . S
C218 O210 1.252 . S
O219 In208 2.294 . S
O219 C212 1.240 . S
O220 In208 2.326 . S
O220 C212 1.252 . S
In221 O222 2.294 . S
In221 O223 2.326 . S
In221 O227 2.266 . S
In221 O228 2.326 . S
In221 O229 2.266 . S
In221 O230 2.326 . S
In221 O232 2.294 . S
In221 O233 2.326 . S
O222 In221 2.294 . S
O222 C231 1.240 . S
O223 In221 2.326 . S
O223 C231 1.252 . S
C224 O227 1.252 . S
C224 O228 1.260 . S
C225 O232 1.240 . S
C225 O233 1.252 . S
C226 O229 1.252 . S
C226 O230 1.260 . S
O227 In221 2.266 . S
O227 C224 1.252 . S
O228 In221 2.326 . S
O228 C224 1.260 . S
O229 In221 2.266 . S
O229 C226 1.252 . S
O230 In221 2.326 . S
O230 C226 1.260 . S
C231 O222 1.240 . S
C231 O223 1.252 . S
O232 In221 2.294 . S
O232 C225 1.240 . S
O233 In221 2.326 . S
O233 C225 1.252 . S
In234 O235 2.294 . S
In234 O236 2.326 . S
In234 O240 2.266 . S
In234 O241 2.326 . S
In234 O242 2.266 . S
In234 O243 2.326 . S
In234 O245 2.294 . S
In234 O246 2.326 . S
O235 In234 2.294 . S
O235 C244 1.240 . S
O236 In234 2.326 . S
O236 C244 1.252 . S
C237 O240 1.252 . S
C237 O241 1.260 . S
C238 O245 1.240 . S
C238 O246 1.252 . S
C239 O242 1.252 . S
C239 O243 1.260 . S
O240 In234 2.266 . S
O240 C237 1.252 . S
O241 In234 2.326 . S
O241 C237 1.260 . S
O242 In234 2.266 . S
O242 C239 1.252 . S
O243 In234 2.326 . S
O243 C239 1.260 . S
C244 O235 1.240 . S
C244 O236 1.252 . S
O245 In234 2.294 . S
O245 C238 1.240 . S
O246 In234 2.326 . S
O246 C238 1.252 . S
In247 O248 2.294 . S
In247 O249 2.326 . S
In247 O253 2.266 . S
In247 O254 2.326 . S
In247 O255 2.266 . S
In247 O256 2.326 . S
In247 O258 2.294 . S
In247 O259 2.326 . S
O248 In247 2.294 . S
O248 C257 1.240 . S
O249 In247 2.326 . S
O249 C257 1.252 . S
C250 O253 1.252 . S
C250 O254 1.260 . S
C251 O258 1.240 . S
C251 O259 1.252 . S
C252 O255 1.252 . S
C252 O256 1.260 . S
O253 In247 2.266 . S
O253 C250 1.252 . S
O254 In247 2.326 . S
O254 C250 1.260 . S
O255 In247 2.266 . S
O255 C252 1.252 . S
O256 In247 2.326 . S
O256 C252 1.260 . S
C257 O248 1.240 . S
C257 O249 1.252 . S
O258 In247 2.294 . S
O258 C251 1.240 . S
O259 In247 2.326 . S
O259 C251 1.252 . S
In260 O261 2.294 . S
In260 O262 2.326 . S
In260 O266 2.266 . S
In260 O267 2.326 . S
In260 O268 2.266 1_554 S
In260 O269 2.326 1_554 S
In260 O271 2.294 . S
In260 O272 2.326 . S
O261 In260 2.294 . S
O261 C270 1.240 . S
O262 In260 2.326 . S
O262 C270 1.252 . S
C263 O266 1.252 . S
C263 O267 1.260 . S
C264 O271 1.240 . S
C264 O272 1.252 . S
C265 O268 1.252 . S
C265 O269 1.260 . S
O266 In260 2.266 . S
O266 C263 1.252 . S
O267 In260 2.326 . S
O267 C263 1.260 . S
O268 In260 2.266 1_556 S
O268 C265 1.252 . S
O269 In260 2.326 1_556 S
O269 C265 1.260 . S
C270 O261 1.240 . S
C270 O262 1.252 . S
O271 In260 2.294 . S
O271 C264 1.240 . S
O272 In260 2.326 . S
O272 C264 1.252 . S
In273 O274 2.294 . S
In273 O275 2.326 . S
In273 O279 2.266 . S
In273 O280 2.326 . S
In273 O281 2.266 . S
In273 O282 2.326 . S
In273 O284 2.294 . S
In273 O285 2.326 . S
O274 In273 2.294 . S
O274 C283 1.240 . S
O275 In273 2.326 . S
O275 C283 1.252 . S
C276 O279 1.252 . S
C276 O280 1.260 . S
C277 O284 1.240 . S
C277 O285 1.252 . S
C278 O281 1.252 . S
C278 O282 1.260 . S
O279 In273 2.266 . S
O279 C276 1.252 . S
O280 In273 2.326 . S
O280 C276 1.260 . S
O281 In273 2.266 . S
O281 C278 1.252 . S
O282 In273 2.326 . S
O282 C278 1.260 . S
C283 O274 1.240 . S
C283 O275 1.252 . S
O284 In273 2.294 . S
O284 C277 1.240 . S
O285 In273 2.326 . S
O285 C277 1.252 . S
In286 O287 2.294 . S
In286 O288 2.326 . S
In286 O292 2.266 . S
In286 O293 2.326 . S
In286 O294 2.266 . S
In286 O295 2.326 . S
In286 O297 2.294 . S
In286 O298 2.326 . S
O287 In286 2.294 . S
O287 C296 1.240 . S
O288 In286 2.326 . S
O288 C296 1.252 . S
C289 O292 1.252 . S
C289 O293 1.260 . S
C290 O297 1.240 . S
C290 O298 1.252 . S
C291 O294 1.252 . S
C291 O295 1.260 . S
O292 In286 2.266 . S
O292 C289 1.252 . S
O293 In286 2.326 . S
O293 C289 1.260 . S
O294 In286 2.266 . S
O294 C291 1.252 . S
O295 In286 2.326 . S
O295 C291 1.260 . S
C296 O287 1.240 . S
C296 O288 1.252 . S
O297 In286 2.294 . S
O297 C290 1.240 . S
O298 In286 2.326 . S
O298 C290 1.252 . S
In299 O300 2.294 . S
In299 O301 2.326 . S
In299 O305 2.266 . S
In299 O306 2.326 . S
In299 O307 2.266 . S
In299 O308 2.326 . S
In299 O310 2.294 . S
In299 O311 2.326 . S
O300 In299 2.294 . S
O300 C309 1.240 . S
O301 In299 2.326 . S
O301 C309 1.252 . S
C302 O305 1.252 . S
C302 O306 1.260 . S
C303 O310 1.240 . S
C303 O311 1.252 . S
C304 O307 1.252 . S
C304 O308 1.260 . S
O305 In299 2.266 . S
O305 C302 1.252 . S
O306 In299 2.326 . S
O306 C302 1.260 . S
O307 In299 2.266 . S
O307 C304 1.252 . S
O308 In299 2.326 . S
O308 C304 1.260 . S
C309 O300 1.240 . S
C309 O301 1.252 . S
O310 In299 2.294 . S
O310 C303 1.240 . S
O311 In299 2.326 . S
O311 C303 1.252 . S
Eu312 C321 2.828 . S
Eu312 O323 2.392 . S
Eu312 O325 2.418 . S
Eu312 O330 2.373 . S
Eu312 O333 2.488 . S
Eu312 O334 2.471 . S
Eu312 O335 2.356 . S
Eu313 O322 2.373 . S
Eu313 O326 2.488 1_545 S
Eu313 O327 2.471 1_545 S
Eu313 O328 2.349 . S
Eu313 O331 2.392 . S
Eu313 O332 2.418 1_554 S
Eu313 C342 2.828 1_545 S
C314 O332 1.244 . S
C314 O335 1.257 1_556 S
C315 C316 1.379 1_554 S
C315 C319 1.373 . S
C315 C321 1.505 . S
C316 C315 1.379 1_556 S
C316 C318 1.369 . S
C316 H344 0.930 . S
C317 C319 1.383 . S
C317 C320 1.382 . S
C317 H345 0.930 . S
C318 C316 1.369 . S
C318 C320 1.392 1_556 S
C318 H346 0.930 . S
C319 C315 1.373 . S
C319 C317 1.383 . S
C319 H347 0.931 . S
C320 C317 1.382 . S
C320 C318 1.392 1_554 S
C321 Eu312 2.828 . S
C321 C315 1.505 . S
C321 O333 1.249 . S
C321 O334 1.244 . S
O322 Eu313 2.373 . S
O322 C324 1.258 . S
O323 Eu312 2.392 . S
O323 C324 1.242 . S
C324 O322 1.258 . S
C324 O323 1.242 . S
O325 Eu312 2.418 . S
O325 C329 1.244 . S
O326 Eu313 2.488 1_565 S
O326 C342 1.249 . S
O327 Eu313 2.471 1_565 S
O327 C342 1.244 . S
O328 Eu313 2.349 . S
O328 C329 1.265 . S
C329 O325 1.244 . S
C329 O328 1.265 . S
O330 Eu312 2.373 . S
O330 C343 1.258 . S
O331 Eu313 2.392 . S
O331 C343 1.242 . S
O332 Eu313 2.418 1_556 S
O332 C314 1.244 . S
O333 Eu312 2.488 . S
O333 C321 1.249 . S
O334 Eu312 2.471 . S
O334 C321 1.244 . S
O335 Eu312 2.356 . S
O335 C314 1.257 1_554 S
C336 C337 1.379 . S
C336 C340 1.373 . S
C336 C342 1.505 . S
C337 C336 1.379 . S
C337 C339 1.369 . S
C337 H348 0.930 . S
C338 C340 1.383 . S
C338 C341 1.382 . S
C338 H349 0.930 . S
C339 C337 1.369 . S
C339 C341 1.392 . S
C339 H350 0.930 . S
C340 C336 1.373 . S
C340 C338 1.383 . S
C340 H351 0.931 . S
C341 C338 1.382 . S
C341 C339 1.392 . S
C342 Eu313 2.828 1_565 S
C342 O326 1.249 . S
C342 O327 1.244 . S
C342 C336 1.505 . S
C343 O330 1.258 . S
C343 O331 1.242 . S
H344 C316 0.930 . S
H345 C317 0.930 . S
H346 C318 0.930 . S
H347 C319 0.931 . S
H348 C337 0.930 . S
H349 C338 0.930 . S
H350 C339 0.930 . S
H351 C340 0.931 . S
Eu352 C361 2.828 . S
Eu352 O363 2.392 . S
Eu352 O365 2.418 . S
Eu352 O370 2.373 . S
Eu352 O373 2.488 . S
Eu352 O374 2.471 . S
Eu352 O375 2.349 . S
Eu353 O362 2.373 . S
Eu353 O366 2.488 . S
Eu353 O367 2.471 . S
Eu353 O368 2.349 . S
Eu353 O371 2.392 . S
Eu353 O372 2.418 . S
Eu353 C382 2.828 . S
C354 O372 1.244 . S
C354 O375 1.265 . S
C355 C356 1.379 . S
C355 C359 1.373 . S
C355 C361 1.505 . S
C356 C355 1.379 . S
C356 C358 1.369 . S
C356 H384 0.930 . S
C357 C359 1.383 . S
C357 C360 1.382 . S
C357 H385 0.930 . S
C358 C356 1.369 . S
C358 C360 1.392 . S
C358 H386 0.930 . S
C359 C355 1.373 . S
C359 C357 1.383 . S
C359 H387 0.931 . S
C360 C357 1.382 . S
C360 C358 1.392 . S
C361 Eu352 2.828 . S
C361 C355 1.505 . S
C361 O373 1.249 . S
C361 O374 1.244 . S
O362 Eu353 2.373 . S
O362 C364 1.258 . S
O363 Eu352 2.392 . S
O363 C364 1.242 . S
C364 O362 1.258 . S
C364 O363 1.242 . S
O365 Eu352 2.418 . S
O365 C369 1.244 . S
O366 Eu353 2.488 . S
O366 C382 1.249 . S
O367 Eu353 2.471 . S
O367 C382 1.244 . S
O368 Eu353 2.349 . S
O368 C369 1.265 . S
C369 O365 1.244 . S
C369 O368 1.265 . S
O370 Eu352 2.373 . S
O370 C383 1.258 . S
O371 Eu353 2.392 . S
O371 C383 1.242 . S
O372 Eu353 2.418 . S
O372 C354 1.244 . S
O373 Eu352 2.488 . S
O373 C361 1.249 . S
O374 Eu352 2.471 . S
O374 C361 1.244 . S
O375 Eu352 2.349 . S
O375 C354 1.265 . S
C376 C377 1.379 . S
C376 C380 1.373 . S
C376 C382 1.505 . S
C377 C376 1.379 . S
C377 C379 1.369 . S
C377 H388 0.930 . S
C378 C380 1.383 . S
C378 C381 1.382 . S
C378 H389 0.930 . S
C379 C377 1.369 . S
C379 C381 1.392 . S
C379 H390 0.930 . S
C380 C376 1.373 . S
C380 C378 1.383 . S
C380 H391 0.931 . S
C381 C378 1.382 . S
C381 C379 1.392 . S
C382 Eu353 2.828 . S
C382 O366 1.249 . S
C382 O367 1.244 . S
C382 C376 1.505 . S
C383 O370 1.258 . S
C383 O371 1.242 . S
H384 C356 0.930 . S
H385 C357 0.930 . S
H386 C358 0.930 . S
H387 C359 0.931 . S
H388 C377 0.930 . S
H389 C378 0.930 . S
H390 C379 0.930 . S
H391 C380 0.931 . S
Eu392 C401 2.828 . S
Eu392 O403 2.392 . S
Eu392 O405 2.418 . S
Eu392 O410 2.373 1_545 S
Eu392 O413 2.488 . S
Eu392 O414 2.471 . S
Eu392 O415 2.349 . S
Eu393 O402 2.373 . S
Eu393 O406 2.488 . S
Eu393 O407 2.471 . S
Eu393 O408 2.349 . S
Eu393 O411 2.392 1_545 S
Eu393 O412 2.418 . S
Eu393 C422 2.828 . S
C394 O412 1.244 . S
C394 O415 1.265 . S
C395 C396 1.379 . S
C395 C399 1.373 . S
C395 C401 1.505 1_565 S
C396 C395 1.379 . S
C396 C398 1.369 . S
C396 H424 0.930 . S
C397 C399 1.383 . S
C397 C400 1.382 . S
C397 H425 0.930 . S
C398 C396 1.369 . S
C398 C400 1.392 . S
C398 H426 0.930 . S
C399 C395 1.373 . S
C399 C397 1.383 . S
C399 H427 0.931 . S
C400 C397 1.382 . S
C400 C398 1.392 . S
C401 Eu392 2.828 . S
C401 C395 1.505 1_545 S
C401 O413 1.249 . S
C401 O414 1.244 . S
O402 Eu393 2.373 . S
O402 C404 1.258 . S
O403 Eu392 2.392 . S
O403 C404 1.242 . S
C404 O402 1.258 . S
C404 O403 1.242 . S
O405 Eu392 2.418 . S
O405 C409 1.244 . S
O406 Eu393 2.488 . S
O406 C422 1.249 . S
O407 Eu393 2.471 . S
O407 C422 1.244 . S
O408 Eu393 2.349 . S
O408 C409 1.265 . S
C409 O405 1.244 . S
C409 O408 1.265 . S
O410 Eu392 2.373 1_565 S
O410 C423 1.258 . S
O411 Eu393 2.392 1_565 S
O411 C423 1.242 . S
O412 Eu393 2.418 . S
O412 C394 1.244 . S
O413 Eu392 2.488 . S
O413 C401 1.249 . S
O414 Eu392 2.471 . S
O414 C401 1.244 . S
O415 Eu392 2.349 . S
O415 C394 1.265 . S
C416 C417 1.379 . S
C416 C420 1.373 . S
C416 C422 1.505 . S
C417 C416 1.379 . S
C417 C419 1.369 . S
C417 H428 0.930 . S
C418 C420 1.383 . S
C418 C421 1.382 . S
C418 H429 0.930 . S
C419 C417 1.369 . S
C419 C421 1.392 . S
C419 H430 0.930 . S
C420 C416 1.373 . S
C420 C418 1.383 . S
C420 H431 0.931 . S
C421 C418 1.382 . S
C421 C419 1.392 . S
C422 Eu393 2.828 . S
C422 O406 1.249 . S
C422 O407 1.244 . S
C422 C416 1.505 . S
C423 O410 1.258 . S
C423 O411 1.242 . S
H424 C396 0.930 . S
H425 C397 0.930 . S
H426 C398 0.930 . S
H427 C399 0.931 . S
H428 C417 0.930 . S
H429 C418 0.930 . S
H430 C419 0.930 . S
H431 C420 0.931 . S
Eu432 C441 2.828 . S
Eu432 O443 2.392 . S
Eu432 O445 2.418 . S
Eu432 O450 2.373 . S
Eu432 O453 2.488 . S
Eu432 O454 2.471 . S
Eu432 O455 2.349 . S
Eu433 O442 2.373 . S
Eu433 O446 2.488 . S
Eu433 O447 2.471 . S
Eu433 O448 2.349 . S
Eu433 O451 2.392 . S
Eu433 O452 2.418 . S
Eu433 C462 2.828 . S
C434 O452 1.244 . S
C434 O455 1.265 . S
C435 C436 1.379 . S
C435 C439 1.373 . S
C435 C441 1.505 . S
C436 C435 1.379 . S
C436 C438 1.369 . S
C436 H464 0.930 . S
C437 C439 1.383 . S
C437 C440 1.382 . S
C437 H465 0.930 . S
C438 C436 1.369 . S
C438 C440 1.392 . S
C438 H466 0.930 . S
C439 C435 1.373 . S
C439 C437 1.383 . S
C439 H467 0.931 . S
C440 C437 1.382 . S
C440 C438 1.392 . S
C441 Eu432 2.828 . S
C441 C435 1.505 . S
C441 O453 1.249 . S
C441 O454 1.244 . S
O442 Eu433 2.373 . S
O442 C444 1.258 . S
O443 Eu432 2.392 . S
O443 C444 1.242 . S
C444 O442 1.258 . S
C444 O443 1.242 . S
O445 Eu432 2.418 . S
O445 C449 1.244 . S
O446 Eu433 2.488 . S
O446 C462 1.249 . S
O447 Eu433 2.471 . S
O447 C462 1.244 . S
O448 Eu433 2.349 . S
O448 C449 1.265 . S
C449 O445 1.244 . S
C449 O448 1.265 . S
O450 Eu432 2.373 . S
O450 C463 1.258 . S
O451 Eu433 2.392 . S
O451 C463 1.242 . S
O452 Eu433 2.418 . S
O452 C434 1.244 . S
O453 Eu432 2.488 . S
O453 C441 1.249 . S
O454 Eu432 2.471 . S
O454 C441 1.244 . S
O455 Eu432 2.349 . S
O455 C434 1.265 . S
C456 C457 1.379 . S
C456 C460 1.373 . S
C456 C462 1.505 . S
C457 C456 1.379 . S
C457 C459 1.369 . S
C457 H468 0.930 . S
C458 C460 1.383 . S
C458 C461 1.382 . S
C458 H469 0.930 . S
C459 C457 1.369 . S
C459 C461 1.392 . S
C459 H470 0.930 . S
C460 C456 1.373 . S
C460 C458 1.383 . S
C460 H471 0.931 . S
C461 C458 1.382 . S
C461 C459 1.392 . S
C462 Eu433 2.828 . S
C462 O446 1.249 . S
C462 O447 1.244 . S
C462 C456 1.505 . S
C463 O450 1.258 . S
C463 O451 1.242 . S
H464 C436 0.930 . S
H465 C437 0.930 . S
H466 C438 0.930 . S
H467 C439 0.931 . S
H468 C457 0.930 . S
H469 C458 0.930 . S
H470 C459 0.930 . S
H471 C460 0.931 . S
Eu472 C481 2.828 . S
Eu472 O483 2.392 . S
Eu472 O485 2.418 . S
Eu472 O490 2.373 . S
Eu472 O493 2.488 . S
Eu472 O494 2.471 . S
Eu472 O495 2.349 . S
Eu473 O482 2.373 1_565 S
Eu473 O486 2.488 . S
Eu473 O487 2.471 . S
Eu473 O488 2.349 1_565 S
Eu473 O491 2.392 1_565 S
Eu473 O492 2.418 1_565 S
Eu473 C502 2.828 . S
C474 O492 1.244 . S
C474 O495 1.265 . S
C475 C476 1.379 . S
C475 C479 1.373 . S
C475 C481 1.505 . S
C476 C475 1.379 . S
C476 C478 1.369 . S
C476 H504 0.930 . S
C477 C479 1.383 . S
C477 C480 1.382 . S
C477 H505 0.930 . S
C478 C476 1.369 . S
C478 C480 1.392 . S
C478 H506 0.930 . S
C479 C475 1.373 . S
C479 C477 1.383 . S
C479 H507 0.931 . S
C480 C477 1.382 . S
C480 C478 1.392 . S
C481 Eu472 2.828 . S
C481 C475 1.505 . S
C481 O493 1.249 . S
C481 O494 1.244 . S
O482 Eu473 2.373 1_545 S
O482 C484 1.258 . S
O483 Eu472 2.392 . S
O483 C484 1.242 . S
C484 O482 1.258 . S
C484 O483 1.242 . S
O485 Eu472 2.418 . S
O485 C489 1.244 . S
O486 Eu473 2.488 . S
O486 C502 1.249 . S
O487 Eu473 2.471 . S
O487 C502 1.244 . S
O488 Eu473 2.349 1_545 S
O488 C489 1.265 . S
C489 O485 1.244 . S
C489 O488 1.265 . S
O490 Eu472 2.373 . S
O490 C503 1.258 . S
O491 Eu473 2.392 1_545 S
O491 C503 1.242 . S
O492 Eu473 2.418 1_545 S
O492 C474 1.244 . S
O493 Eu472 2.488 . S
O493 C481 1.249 . S
O494 Eu472 2.471 . S
O494 C481 1.244 . S
O495 Eu472 2.349 . S
O495 C474 1.265 . S
C496 C497 1.379 . S
C496 C500 1.373 . S
C496 C502 1.505 . S
C497 C496 1.379 . S
C497 C499 1.369 . S
C497 H508 0.930 . S
C498 C500 1.383 . S
C498 C501 1.382 . S
C498 H509 0.930 . S
C499 C497 1.369 . S
C499 C501 1.392 . S
C499 H510 0.930 . S
C500 C496 1.373 . S
C500 C498 1.383 . S
C500 H511 0.931 . S
C501 C498 1.382 . S
C501 C499 1.392 . S
C502 Eu473 2.828 . S
C502 O486 1.249 . S
C502 O487 1.244 . S
C502 C496 1.505 . S
C503 O490 1.258 . S
C503 O491 1.242 . S
H504 C476 0.930 . S
H505 C477 0.930 . S
H506 C478 0.930 . S
H507 C479 0.931 . S
H508 C497 0.930 . S
H509 C498 0.930 . S
H510 C499 0.930 . S
H511 C500 0.931 . S
Eu512 C521 2.828 . S
Eu512 O523 2.392 . S
Eu512 O525 2.418 . S
Eu512 O530 2.373 . S
Eu512 O533 2.488 . S
Eu512 O534 2.471 . S
Eu512 O535 2.349 . S
Eu513 O522 2.373 . S
Eu513 O526 2.488 . S
Eu513 O527 2.471 . S
Eu513 O528 2.349 . S
Eu513 O531 2.392 . S
Eu513 O532 2.418 . S
Eu513 C542 2.828 . S
C514 O532 1.244 . S
C514 O535 1.265 . S
C515 C516 1.379 . S
C515 C519 1.373 . S
C515 C521 1.505 . S
C516 C515 1.379 . S
C516 C518 1.369 . S
C516 H544 0.930 . S
C517 C519 1.383 . S
C517 C520 1.382 . S
C517 H545 0.930 . S
C518 C516 1.369 . S
C518 C520 1.392 . S
C518 H546 0.930 . S
C519 C515 1.373 . S
C519 C517 1.383 . S
C519 H547 0.931 . S
C520 C517 1.382 . S
C520 C518 1.392 . S
C521 Eu512 2.828 . S
C521 C515 1.505 . S
C521 O533 1.249 . S
C521 O534 1.244 . S
O522 Eu513 2.373 . S
O522 C524 1.258 . S
O523 Eu512 2.392 . S
O523 C524 1.242 . S
C524 O522 1.258 . S
C524 O523 1.242 . S
O525 Eu512 2.418 . S
O525 C529 1.244 . S
O526 Eu513 2.488 . S
O526 C542 1.249 . S
O527 Eu513 2.471 . S
O527 C542 1.244 . S
O528 Eu513 2.349 . S
O528 C529 1.265 . S
C529 O525 1.244 . S
C529 O528 1.265 . S
O530 Eu512 2.373 . S
O530 C543 1.258 . S
O531 Eu513 2.392 . S
O531 C543 1.242 . S
O532 Eu513 2.418 . S
O532 C514 1.244 . S
O533 Eu512 2.488 . S
O533 C521 1.249 . S
O534 Eu512 2.471 . S
O534 C521 1.244 . S
O535 Eu512 2.349 . S
O535 C514 1.265 . S
C536 C537 1.379 . S
C536 C540 1.373 . S
C536 C542 1.505 . S
C537 C536 1.379 . S
C537 C539 1.369 . S
C537 H548 0.930 . S
C538 C540 1.383 . S
C538 C541 1.382 . S
C538 H549 0.930 . S
C539 C537 1.369 . S
C539 C541 1.392 . S
C539 H550 0.930 . S
C540 C536 1.373 . S
C540 C538 1.383 . S
C540 H551 0.931 . S
C541 C538 1.382 . S
C541 C539 1.392 . S
C542 Eu513 2.828 . S
C542 O526 1.249 . S
C542 O527 1.244 . S
C542 C536 1.505 . S
C543 O530 1.258 . S
C543 O531 1.242 . S
H544 C516 0.930 . S
H545 C517 0.930 . S
H546 C518 0.930 . S
H547 C519 0.931 . S
H548 C537 0.930 . S
H549 C538 0.930 . S
H550 C539 0.930 . S
H551 C540 0.931 . S
Eu552 C561 2.828 . S
Eu552 O563 2.392 . S
Eu552 O565 2.457 . S
Eu552 O570 2.373 . S
Eu552 O573 2.488 . S
Eu552 O574 2.471 . S
Eu552 O575 2.349 . S
Eu553 O562 2.360 1_556 S
Eu553 O566 2.488 . S
Eu553 O567 2.471 . S
Eu553 O568 2.349 . S
Eu553 O571 2.392 . S
Eu553 O572 2.418 1_556 S
Eu553 C582 2.828 . S
C554 O572 1.244 . S
C554 O575 1.265 . S
C555 C556 1.379 . S
C555 C559 1.373 . S
C555 C561 1.505 . S
C556 C555 1.379 . S
C556 C558 1.369 . S
C556 H584 0.930 . S
C557 C559 1.383 1_565 S
C557 C560 1.382 1_565 S
C557 H585 0.930 . S
C558 C556 1.369 . S
C558 C560 1.392 . S
C558 H586 0.930 . S
C559 C555 1.373 . S
C559 C557 1.383 1_545 S
C559 H587 0.931 1_545 S
C560 C557 1.382 1_545 S
C560 C558 1.392 . S
C561 Eu552 2.828 . S
C561 C555 1.505 . S
C561 O573 1.249 . S
C561 O574 1.244 . S
O562 Eu553 2.360 1_554 S
O562 C564 1.290 . S
O563 Eu552 2.392 . S
O563 C564 1.242 . S
C564 O562 1.290 . S
C564 O563 1.242 . S
O565 Eu552 2.457 . S
O565 C569 1.307 . S
O566 Eu553 2.488 . S
O566 C582 1.249 . S
O567 Eu553 2.471 . S
O567 C582 1.244 . S
O568 Eu553 2.349 . S
O568 C569 1.249 1_556 S
C569 O565 1.307 . S
C569 O568 1.249 1_554 S
O570 Eu552 2.373 . S
O570 C583 1.258 . S
O571 Eu553 2.392 . S
O571 C583 1.242 1_556 S
O572 Eu553 2.418 1_554 S
O572 C554 1.244 . S
O573 Eu552 2.488 . S
O573 C561 1.249 . S
O574 Eu552 2.471 . S
O574 C561 1.244 . S
O575 Eu552 2.349 . S
O575 C554 1.265 . S
C576 C577 1.379 . S
C576 C580 1.373 . S
C576 C582 1.505 . S
C577 C576 1.379 . S
C577 C579 1.369 . S
C577 H588 0.930 . S
C578 C580 1.383 . S
C578 C581 1.382 . S
C578 H589 0.930 . S
C579 C577 1.369 . S
C579 C581 1.392 . S
C579 H590 0.930 . S
C580 C576 1.373 . S
C580 C578 1.383 . S
C580 H591 0.931 . S
C581 C578 1.382 . S
C581 C579 1.392 . S
C582 Eu553 2.828 . S
C582 O566 1.249 . S
C582 O567 1.244 . S
C582 C576 1.505 . S
C583 O570 1.258 . S
C583 O571 1.242 1_554 S
H584 C556 0.930 . S
H585 C557 0.930 . S
H586 C558 0.930 . S
H587 C559 0.931 1_565 S
H588 C577 0.930 . S
H589 C578 0.930 . S
H590 C579 0.930 . S
H591 C580 0.931 . S
Eu592 C601 2.828 . S
Eu592 O603 2.392 . S
Eu592 O605 2.418 . S
Eu592 O610 2.373 . S
Eu592 O613 2.488 . S
Eu592 O614 2.471 . S
Eu592 O615 2.349 . S
Eu593 O602 2.373 . S
Eu593 O606 2.488 . S
Eu593 O607 2.471 . S
Eu593 O608 2.349 . S
Eu593 O611 2.392 . S
Eu593 O612 2.418 . S
Eu593 C622 2.828 . S
C594 O612 1.244 . S
C594 O615 1.265 . S
C595 C596 1.379 . S
C595 C599 1.373 . S
C595 C601 1.505 . S
C596 C595 1.379 . S
C596 C598 1.369 . S
C596 H624 0.930 . S
C597 C599 1.383 . S
C597 C600 1.382 . S
C597 H625 0.930 . S
C598 C596 1.369 . S
C598 C600 1.392 . S
C598 H626 0.930 . S
C599 C595 1.373 . S
C599 C597 1.383 . S
C599 H627 0.931 . S
C600 C597 1.382 . S
C600 C598 1.392 . S
C601 Eu592 2.828 . S
C601 C595 1.505 . S
C601 O613 1.249 . S
C601 O614 1.244 . S
O602 Eu593 2.373 . S
O602 C604 1.258 . S
O603 Eu592 2.392 . S
O603 C604 1.242 . S
C604 O602 1.258 . S
C604 O603 1.242 . S
O605 Eu592 2.418 . S
O605 C609 1.244 . S
O606 Eu593 2.488 . S
O606 C622 1.249 . S
O607 Eu593 2.471 . S
O607 C622 1.244 . S
O608 Eu593 2.349 . S
O608 C609 1.265 . S
C609 O605 1.244 . S
C609 O608 1.265 . S
O610 Eu592 2.373 . S
O610 C623 1.258 . S
O611 Eu593 2.392 . S
O611 C623 1.242 . S
O612 Eu593 2.418 . S
O612 C594 1.244 . S
O613 Eu592 2.488 . S
O613 C601 1.249 . S
O614 Eu592 2.471 . S
O614 C601 1.244 . S
O615 Eu592 2.349 . S
O615 C594 1.265 . S
C616 C617 1.379 . S
C616 C620 1.373 . S
C616 C622 1.505 . S
C617 C616 1.379 . S
C617 C619 1.369 . S
C617 H628 0.930 . S
C618 C620 1.383 . S
C618 C621 1.382 . S
C618 H629 0.930 . S
C619 C617 1.369 . S
C619 C621 1.392 . S
C619 H630 0.930 . S
C620 C616 1.373 . S
C620 C618 1.383 . S
C620 H631 0.931 . S
C621 C618 1.382 . S
C621 C619 1.392 . S
C622 Eu593 2.828 . S
C622 O606 1.249 . S
C622 O607 1.244 . S
C622 C616 1.505 . S
C623 O610 1.258 . S
C623 O611 1.242 . S
H624 C596 0.930 . S
H625 C597 0.930 . S
H626 C598 0.930 . S
H627 C599 0.931 . S
H628 C617 0.930 . S
H629 C618 0.930 . S
H630 C619 0.930 . S
H631 C620 0.931 . S
Eu632 C641 2.828 . S
Eu632 O643 2.392 . S
Eu632 O645 2.418 . S
Eu632 O650 2.373 1_554 S
Eu632 O653 2.488 . S
Eu632 O654 2.471 . S
Eu632 O655 2.349 . S
Eu633 O642 2.373 1_556 S
Eu633 O646 2.488 1_556 S
Eu633 O647 2.471 1_556 S
Eu633 O648 2.349 1_556 S
Eu633 O651 2.392 . S
Eu633 O652 2.418 . S
Eu633 C662 2.828 1_556 S
C634 O652 1.243 1_554 S
C634 O655 1.265 . S
C635 C636 1.379 . S
C635 C639 1.373 . S
C635 C641 1.505 1_556 S
C636 C635 1.379 . S
C636 C638 1.369 . S
C636 H664 0.930 . S
C637 C639 1.383 . S
C637 C640 1.382 . S
C637 H665 0.930 . S
C638 C636 1.369 . S
C638 C640 1.392 . S
C638 H666 0.930 . S
C639 C635 1.373 . S
C639 C637 1.383 . S
C639 H667 0.931 1_556 S
C640 C637 1.382 . S
C640 C638 1.392 . S
C641 Eu632 2.828 . S
C641 C635 1.505 1_554 S
C641 O653 1.249 . S
C641 O654 1.244 . S
O642 Eu633 2.373 1_554 S
O642 C644 1.258 . S
O643 Eu632 2.392 . S
O643 C644 1.242 . S
C644 O642 1.258 . S
C644 O643 1.242 . S
O645 Eu632 2.418 . S
O645 C649 1.244 . S
O646 Eu633 2.488 1_554 S
O646 C662 1.249 . S
O647 Eu633 2.471 1_554 S
O647 C662 1.244 . S
O648 Eu633 2.349 1_554 S
O648 C649 1.265 . S
C649 O645 1.244 . S
C649 O648 1.265 . S
O650 Eu632 2.373 1_556 S
O650 C663 1.258 . S
O651 Eu633 2.392 . S
O651 C663 1.242 . S
O652 Eu633 2.418 . S
O652 C634 1.243 1_556 S
O653 Eu632 2.488 . S
O653 C641 1.249 . S
O654 Eu632 2.471 . S
O654 C641 1.244 . S
O655 Eu632 2.349 . S
O655 C634 1.265 . S
C656 C657 1.379 . S
C656 C660 1.373 . S
C656 C662 1.505 . S
C657 C656 1.379 . S
C657 C659 1.369 . S
C657 H668 0.930 . S
C658 C660 1.383 . S
C658 C661 1.382 . S
C658 H669 0.930 . S
C659 C657 1.369 . S
C659 C661 1.392 . S
C659 H670 0.930 . S
C660 C656 1.373 . S
C660 C658 1.383 . S
C660 H671 0.931 . S
C661 C658 1.382 . S
C661 C659 1.392 . S
C662 Eu633 2.828 1_554 S
C662 O646 1.249 . S
C662 O647 1.244 . S
C662 C656 1.505 . S
C663 O650 1.258 . S
C663 O651 1.242 . S
H664 C636 0.930 . S
H665 C637 0.930 . S
H666 C638 0.930 . S
H667 C639 0.931 1_554 S
H668 C657 0.930 . S
H669 C658 0.930 . S
H670 C659 0.930 . S
H671 C660 0.931 . S
Eu672 C681 2.828 . S
Eu672 O683 2.392 . S
Eu672 O685 2.418 . S
Eu672 O690 2.373 . S
Eu672 O693 2.488 . S
Eu672 O694 2.471 . S
Eu672 O695 2.349 . S
Eu673 O682 2.373 . S
Eu673 O686 2.488 . S
Eu673 O687 2.471 . S
Eu673 O688 2.349 . S
Eu673 O691 2.392 . S
Eu673 O692 2.418 . S
Eu673 C702 2.828 . S
C674 O692 1.244 . S
C674 O695 1.265 . S
C675 C676 1.379 . S
C675 C679 1.373 . S
C675 C681 1.505 . S
C676 C675 1.379 . S
C676 C678 1.369 . S
C676 H704 0.930 . S
C677 C679 1.383 . S
C677 C680 1.382 . S
C677 H705 0.930 . S
C678 C676 1.369 . S
C678 C680 1.392 . S
C678 H706 0.930 . S
C679 C675 1.373 . S
C679 C677 1.383 . S
C679 H707 0.931 . S
C680 C677 1.382 . S
C680 C678 1.392 . S
C681 Eu672 2.828 . S
C681 C675 1.505 . S
C681 O693 1.249 . S
C681 O694 1.244 . S
O682 Eu673 2.373 . S
O682 C684 1.258 . S
O683 Eu672 2.392 . S
O683 C684 1.242 . S
C684 O682 1.258 . S
C684 O683 1.242 . S
O685 Eu672 2.418 . S
O685 C689 1.244 . S
O686 Eu673 2.488 . S
O686 C702 1.249 . S
O687 Eu673 2.471 . S
O687 C702 1.244 . S
O688 Eu673 2.349 . S
O688 C689 1.265 . S
C689 O685 1.244 . S
C689 O688 1.265 . S
O690 Eu672 2.373 . S
O690 C703 1.258 . S
O691 Eu673 2.392 . S
O691 C703 1.242 . S
O692 Eu673 2.418 . S
O692 C674 1.244 . S
O693 Eu672 2.488 . S
O693 C681 1.249 . S
O694 Eu672 2.471 . S
O694 C681 1.244 . S
O695 Eu672 2.349 . S
O695 C674 1.265 . S
C696 C697 1.379 . S
C696 C700 1.373 . S
C696 C702 1.505 . S
C697 C696 1.379 . S
C697 C699 1.369 . S
C697 H708 0.930 . S
C698 C700 1.383 . S
C698 C701 1.382 . S
C698 H709 0.930 . S
C699 C697 1.369 . S
C699 C701 1.392 . S
C699 H710 0.930 . S
C700 C696 1.373 . S
C700 C698 1.383 . S
C700 H711 0.931 . S
C701 C698 1.382 . S
C701 C699 1.392 . S
C702 Eu673 2.828 . S
C702 O686 1.249 . S
C702 O687 1.244 . S
C702 C696 1.505 . S
C703 O690 1.258 . S
C703 O691 1.242 . S
H704 C676 0.930 . S
H705 C677 0.930 . S
H706 C678 0.930 . S
H707 C679 0.931 . S
H708 C697 0.930 . S
H709 C698 0.930 . S
H710 C699 0.930 . S
H711 C700 0.931 . S
Eu712 C721 2.828 . S
Eu712 O723 2.392 . S
Eu712 O725 2.418 . S
Eu712 O730 2.373 . S
Eu712 O733 2.488 . S
Eu712 O734 2.471 . S
Eu712 O735 2.349 . S
Eu713 O722 2.373 . S
Eu713 O726 2.488 . S
Eu713 O727 2.471 . S
Eu713 O728 2.349 . S
Eu713 O731 2.382 1_455 S
Eu713 O732 2.418 . S
Eu713 C742 2.828 . S
C714 O732 1.244 . S
C714 O735 1.265 . S
C715 C716 1.379 1_455 S
C715 C719 1.373 . S
C715 C721 1.505 . S
C716 C715 1.379 1_655 S
C716 C718 1.369 . S
C716 H744 0.930 . S
C717 C719 1.383 1_655 S
C717 C720 1.382 . S
C717 H745 0.930 . S
C718 C716 1.369 . S
C718 C720 1.392 . S
C718 H746 0.930 . S
C719 C715 1.373 . S
C719 C717 1.383 1_455 S
C719 H747 0.931 . S
C720 C717 1.382 . S
C720 C718 1.392 . S
C721 Eu712 2.828 . S
C721 C715 1.505 . S
C721 O733 1.249 . S
C721 O734 1.244 . S
O722 Eu713 2.373 . S
O722 C724 1.258 . S
O723 Eu712 2.392 . S
O723 C724 1.242 . S
C724 O722 1.258 . S
C724 O723 1.242 . S
O725 Eu712 2.418 . S
O725 C729 1.244 . S
O726 Eu713 2.488 . S
O726 C742 1.249 . S
O727 Eu713 2.471 . S
O727 C742 1.244 . S
O728 Eu713 2.349 . S
O728 C729 1.265 . S
C729 O725 1.244 . S
C729 O728 1.265 . S
O730 Eu712 2.373 . S
O730 C743 1.258 1_455 S
O731 Eu713 2.382 1_655 S
O731 C743 1.244 . S
O732 Eu713 2.418 . S
O732 C714 1.244 . S
O733 Eu712 2.488 . S
O733 C721 1.249 . S
O734 Eu712 2.471 . S
O734 C721 1.244 . S
O735 Eu712 2.349 . S
O735 C714 1.265 . S
C736 C737 1.379 . S
C736 C740 1.373 . S
C736 C742 1.505 . S
C737 C736 1.379 . S
C737 C739 1.369 . S
C737 H748 0.930 . S
C738 C740 1.383 . S
C738 C741 1.382 . S
C738 H749 0.930 . S
C739 C737 1.369 . S
C739 C741 1.392 . S
C739 H750 0.930 . S
C740 C736 1.373 . S
C740 C738 1.383 . S
C740 H751 0.931 . S
C741 C738 1.382 . S
C741 C739 1.392 . S
C742 Eu713 2.828 . S
C742 O726 1.249 . S
C742 O727 1.244 . S
C742 C736 1.505 . S
C743 O730 1.258 1_655 S
C743 O731 1.244 . S
H744 C716 0.930 . S
H745 C717 0.930 . S
H746 C718 0.930 . S
H747 C719 0.931 . S
H748 C737 0.930 . S
H749 C738 0.930 . S
H750 C739 0.930 . S
H751 C740 0.931 . S
Eu752 C761 2.828 . S
Eu752 O763 2.392 . S
Eu752 O765 2.418 . S
Eu752 O770 2.373 . S
Eu752 O773 2.488 . S
Eu752 O774 2.471 . S
Eu752 O775 2.349 . S
Eu753 O762 2.373 . S
Eu753 O766 2.488 . S
Eu753 O767 2.471 . S
Eu753 O768 2.349 . S
Eu753 O771 2.392 . S
Eu753 O772 2.418 . S
Eu753 C782 2.828 . S
C754 O772 1.244 . S
C754 O775 1.265 . S
C755 C756 1.379 . S
C755 C759 1.373 . S
C755 C761 1.505 . S
C756 C755 1.379 . S
C756 C758 1.369 . S
C756 H784 0.930 . S
C757 C759 1.383 . S
C757 C760 1.382 . S
C757 H785 0.930 . S
C758 C756 1.369 . S
C758 C760 1.392 . S
C758 H786 0.930 . S
C759 C755 1.373 . S
C759 C757 1.383 . S
C759 H787 0.931 . S
C760 C757 1.382 . S
C760 C758 1.392 . S
C761 Eu752 2.828 . S
C761 C755 1.505 . S
C761 O773 1.249 . S
C761 O774 1.244 . S
O762 Eu753 2.373 . S
O762 C764 1.258 . S
O763 Eu752 2.392 . S
O763 C764 1.242 . S
C764 O762 1.258 . S
C764 O763 1.242 . S
O765 Eu752 2.418 . S
O765 C769 1.244 . S
O766 Eu753 2.488 . S
O766 C782 1.249 . S
O767 Eu753 2.471 . S
O767 C782 1.244 . S
O768 Eu753 2.349 . S
O768 C769 1.265 . S
C769 O765 1.244 . S
C769 O768 1.265 . S
O770 Eu752 2.373 . S
O770 C783 1.258 . S
O771 Eu753 2.392 . S
O771 C783 1.242 . S
O772 Eu753 2.418 . S
O772 C754 1.244 . S
O773 Eu752 2.488 . S
O773 C761 1.249 . S
O774 Eu752 2.471 . S
O774 C761 1.244 . S
O775 Eu752 2.349 . S
O775 C754 1.265 . S
C776 C777 1.379 . S
C776 C780 1.373 . S
C776 C782 1.505 . S
C777 C776 1.379 . S
C777 C779 1.369 . S
C777 H788 0.930 . S
C778 C780 1.383 . S
C778 C781 1.382 . S
C778 H789 0.930 . S
C779 C777 1.369 . S
C779 C781 1.392 . S
C779 H790 0.930 . S
C780 C776 1.373 . S
C780 C778 1.383 . S
C780 H791 0.931 . S
C781 C778 1.382 . S
C781 C779 1.392 . S
C782 Eu753 2.828 . S
C782 O766 1.249 . S
C782 O767 1.244 . S
C782 C776 1.505 . S
C783 O770 1.258 . S
C783 O771 1.242 . S
H784 C756 0.930 . S
H785 C757 0.930 . S
H786 C758 0.930 . S
H787 C759 0.931 . S
H788 C777 0.930 . S
H789 C778 0.930 . S
H790 C779 0.930 . S
H791 C780 0.931 . S
Eu792 C801 2.828 . S
Eu792 O803 2.392 . S
Eu792 O805 2.418 . S
Eu792 O810 2.373 . S
Eu792 O813 2.488 . S
Eu792 O814 2.471 . S
Eu792 O815 2.349 . S
Eu793 O802 2.373 . S
Eu793 O806 2.488 . S
Eu793 O807 2.471 . S
Eu793 O808 2.349 . S
Eu793 O811 2.392 . S
Eu793 O812 2.418 . S
Eu793 C822 2.828 . S
C794 O812 1.244 . S
C794 O815 1.265 . S
C795 C796 1.379 . S
C795 C799 1.373 . S
C795 C801 1.505 . S
C796 C795 1.379 . S
C796 C798 1.369 . S
C796 H824 0.930 . S
C797 C799 1.383 . S
C797 C800 1.382 . S
C797 H825 0.930 . S
C798 C796 1.369 . S
C798 C800 1.392 . S
C798 H826 0.930 . S
C799 C795 1.373 . S
C799 C797 1.383 . S
C799 H827 0.931 . S
C800 C797 1.382 . S
C800 C798 1.392 . S
C801 Eu792 2.828 . S
C801 C795 1.505 . S
C801 O813 1.249 . S
C801 O814 1.244 . S
O802 Eu793 2.373 . S
O802 C804 1.258 . S
O803 Eu792 2.392 . S
O803 C804 1.242 . S
C804 O802 1.258 . S
C804 O803 1.242 . S
O805 Eu792 2.418 . S
O805 C809 1.244 . S
O806 Eu793 2.488 . S
O806 C822 1.249 . S
O807 Eu793 2.471 . S
O807 C822 1.244 . S
O808 Eu793 2.349 . S
O808 C809 1.265 . S
C809 O805 1.244 . S
C809 O808 1.265 . S
O810 Eu792 2.373 . S
O810 C823 1.258 . S
O811 Eu793 2.392 . S
O811 C823 1.242 . S
O812 Eu793 2.418 . S
O812 C794 1.244 . S
O813 Eu792 2.488 . S
O813 C801 1.249 . S
O814 Eu792 2.471 . S
O814 C801 1.244 . S
O815 Eu792 2.349 . S
O815 C794 1.265 . S
C816 C817 1.379 . S
C816 C820 1.373 . S
C816 C822 1.505 . S
C817 C816 1.379 . S
C817 C819 1.369 . S
C817 H828 0.930 . S
C818 C820 1.383 . S
C818 C821 1.382 . S
C818 H829 0.930 . S
C819 C817 1.369 . S
C819 C821 1.392 . S
C819 H830 0.930 . S
C820 C816 1.373 . S
C820 C818 1.383 . S
C820 H831 0.931 . S
C821 C818 1.382 . S
C821 C819 1.392 . S
C822 Eu793 2.828 . S
C822 O806 1.249 . S
C822 O807 1.244 . S
C822 C816 1.505 . S
C823 O810 1.258 . S
C823 O811 1.242 . S
H824 C796 0.930 . S
H825 C797 0.930 . S
H826 C798 0.930 . S
H827 C799 0.931 . S
H828 C817 0.930 . S
H829 C818 0.930 . S
H830 C819 0.930 . S
H831 C820 0.931 . S
Eu832 C841 2.828 . S
Eu832 O843 2.392 . S
Eu832 O845 2.418 . S
Eu832 O850 2.373 . S
Eu832 O853 2.488 . S
Eu832 O854 2.471 . S
Eu832 O855 2.349 . S
Eu833 O842 2.373 . S
Eu833 O846 2.488 . S
Eu833 O847 2.471 . S
Eu833 O848 2.349 . S
Eu833 O851 2.392 . S
Eu833 O852 2.418 . S
Eu833 C862 2.828 . S
C834 O852 1.244 . S
C834 O855 1.265 . S
C835 C836 1.379 . S
C835 C839 1.373 . S
C835 C841 1.505 . S
C836 C835 1.379 . S
C836 C838 1.369 . S
C836 H864 0.930 . S
C837 C839 1.383 . S
C837 C840 1.382 . S
C837 H865 0.930 . S
C838 C836 1.369 . S
C838 C840 1.392 . S
C838 H866 0.930 . S
C839 C835 1.373 . S
C839 C837 1.383 . S
C839 H867 0.931 . S
C840 C837 1.382 . S
C840 C838 1.392 . S
C841 Eu832 2.828 . S
C841 C835 1.505 . S
C841 O853 1.249 . S
C841 O854 1.244 . S
O842 Eu833 2.373 . S
O842 C844 1.258 . S
O843 Eu832 2.392 . S
O843 C844 1.242 . S
C844 O842 1.258 . S
C844 O843 1.242 . S
O845 Eu832 2.418 . S
O845 C849 1.244 . S
O846 Eu833 2.488 . S
O846 C862 1.249 . S
O847 Eu833 2.471 . S
O847 C862 1.244 . S
O848 Eu833 2.349 . S
O848 C849 1.265 . S
C849 O845 1.244 . S
C849 O848 1.265 . S
O850 Eu832 2.373 . S
O850 C863 1.258 . S
O851 Eu833 2.392 . S
O851 C863 1.242 . S
O852 Eu833 2.418 . S
O852 C834 1.244 . S
O853 Eu832 2.488 . S
O853 C841 1.249 . S
O854 Eu832 2.471 . S
O854 C841 1.244 . S
O855 Eu832 2.349 . S
O855 C834 1.265 . S
C856 C857 1.379 . S
C856 C860 1.373 . S
C856 C862 1.505 . S
C857 C856 1.379 . S
C857 C859 1.369 . S
C857 H868 0.930 . S
C858 C860 1.383 . S
C858 C861 1.382 . S
C858 H869 0.930 . S
C859 C857 1.369 . S
C859 C861 1.392 . S
C859 H870 0.930 . S
C860 C856 1.373 . S
C860 C858 1.383 . S
C860 H871 0.931 . S
C861 C858 1.382 . S
C861 C859 1.392 . S
C862 Eu833 2.828 . S
C862 O846 1.249 . S
C862 O847 1.244 . S
C862 C856 1.505 . S
C863 O850 1.258 . S
C863 O851 1.242 . S
H864 C836 0.930 . S
H865 C837 0.930 . S
H866 C838 0.930 . S
H867 C839 0.931 . S
H868 C857 0.930 . S
H869 C858 0.930 . S
H870 C859 0.930 . S
H871 C860 0.931 . S
Eu872 C881 2.828 . S
Eu872 O883 2.392 . S
Eu872 O885 2.418 . S
Eu872 O890 2.373 . S
Eu872 O893 2.488 . S
Eu872 O894 2.471 . S
Eu872 O895 2.349 . S
Eu873 O882 2.373 . S
Eu873 O886 2.488 . S
Eu873 O887 2.471 . S
Eu873 O888 2.349 . S
Eu873 O891 2.392 . S
Eu873 O892 2.418 . S
Eu873 C902 2.828 . S
C874 O892 1.244 . S
C874 O895 1.265 . S
C875 C876 1.379 . S
C875 C879 1.373 . S
C875 C881 1.505 . S
C876 C875 1.379 . S
C876 C878 1.369 . S
C876 H904 0.930 . S
C877 C879 1.383 . S
C877 C880 1.382 . S
C877 H905 0.930 . S
C878 C876 1.369 . S
C878 C880 1.392 . S
C878 H906 0.930 . S
C879 C875 1.373 . S
C879 C877 1.383 . S
C879 H907 0.931 . S
C880 C877 1.382 . S
C880 C878 1.392 . S
C881 Eu872 2.828 . S
C881 C875 1.505 . S
C881 O893 1.249 . S
C881 O894 1.244 . S
O882 Eu873 2.373 . S
O882 C884 1.258 . S
O883 Eu872 2.392 . S
O883 C884 1.242 . S
C884 O882 1.258 . S
C884 O883 1.242 . S
O885 Eu872 2.418 . S
O885 C889 1.244 . S
O886 Eu873 2.488 . S
O886 C902 1.249 . S
O887 Eu873 2.471 . S
O887 C902 1.244 . S
O888 Eu873 2.349 . S
O888 C889 1.265 . S
C889 O885 1.244 . S
C889 O888 1.265 . S
O890 Eu872 2.373 . S
O890 C903 1.258 . S
O891 Eu873 2.392 . S
O891 C903 1.242 . S
O892 Eu873 2.418 . S
O892 C874 1.244 . S
O893 Eu872 2.488 . S
O893 C881 1.249 . S
O894 Eu872 2.471 . S
O894 C881 1.244 . S
O895 Eu872 2.349 . S
O895 C874 1.265 . S
C896 C897 1.379 . S
C896 C900 1.373 . S
C896 C902 1.505 . S
C897 C896 1.379 . S
C897 C899 1.369 . S
C897 H908 0.930 . S
C898 C900 1.383 . S
C898 C901 1.382 . S
C898 H909 0.930 . S
C899 C897 1.369 . S
C899 C901 1.392 . S
C899 H910 0.930 . S
C900 C896 1.373 . S
C900 C898 1.383 . S
C900 H911 0.931 . S
C901 C898 1.382 . S
C901 C899 1.392 . S
C902 Eu873 2.828 . S
C902 O886 1.249 . S
C902 O887 1.244 . S
C902 C896 1.505 . S
C903 O890 1.258 . S
C903 O891 1.242 . S
H904 C876 0.930 . S
H905 C877 0.930 . S
H906 C878 0.930 . S
H907 C879 0.931 . S
H908 C897 0.930 . S
H909 C898 0.930 . S
H910 C899 0.930 . S
H911 C900 0.931 . S
Eu912 C921 2.828 . S
Eu912 O923 2.392 . S
Eu912 O925 2.418 1_554 S
Eu912 O930 2.373 . S
Eu912 O933 2.488 1_554 S
Eu912 O934 2.471 . S
Eu912 O935 2.349 . S
Eu913 O922 2.373 . S
Eu913 O926 2.488 1_455 S
Eu913 O927 2.471 1_455 S
Eu913 O928 2.349 . S
Eu913 O931 2.392 . S
Eu913 O932 2.418 . S
Eu913 C942 2.828 1_455 S
C914 O932 1.244 . S
C914 O935 1.265 . S
C915 C916 1.379 . S
C915 C919 1.373 1_554 S
C915 C921 1.505 . S
C916 C915 1.379 . S
C916 C918 1.369 . S
C916 H944 0.930 . S
C917 C919 1.383 . S
C917 C920 1.373 1_556 S
C917 H945 0.930 . S
C918 C916 1.369 . S
C918 C920 1.403 . S
C918 H946 0.930 . S
C919 C915 1.373 1_556 S
C919 C917 1.383 . S
C919 H947 0.931 . S
C920 C917 1.373 1_554 S
C920 C918 1.403 . S
C921 Eu912 2.828 . S
C921 C915 1.505 . S
C921 O933 1.249 1_554 S
C921 O934 1.244 . S
O922 Eu913 2.373 . S
O922 C924 1.258 . S
O923 Eu912 2.392 . S
O923 C924 1.242 . S
C924 O922 1.258 . S
C924 O923 1.242 . S
O925 Eu912 2.418 1_556 S
O925 C929 1.244 . S
O926 Eu913 2.488 1_655 S
O926 C942 1.249 . S
O927 Eu913 2.471 1_655 S
O927 C942 1.244 . S
O928 Eu913 2.349 . S
O928 C929 1.265 1_554 S
C929 O925 1.244 . S
C929 O928 1.265 1_556 S
O930 Eu912 2.373 . S
O930 C943 1.258 . S
O931 Eu913 2.392 . S
O931 C943 1.242 . S
O932 Eu913 2.418 . S
O932 C914 1.244 . S
O933 Eu912 2.488 1_556 S
O933 C921 1.249 1_556 S
O934 Eu912 2.471 . S
O934 C921 1.244 . S
O935 Eu912 2.349 . S
O935 C914 1.265 . S
C936 C937 1.379 . S
C936 C940 1.373 . S
C936 C942 1.505 . S
C937 C936 1.379 . S
C937 C939 1.369 . S
C937 H948 0.930 . S
C938 C940 1.383 . S
C938 C941 1.382 . S
C938 H949 0.930 . S
C939 C937 1.369 . S
C939 C941 1.392 . S
C939 H950 0.930 . S
C940 C936 1.373 . S
C940 C938 1.383 . S
C940 H951 0.931 . S
C941 C938 1.382 . S
C941 C939 1.392 . S
C942 Eu913 2.828 1_655 S
C942 O926 1.249 . S
C942 O927 1.244 . S
C942 C936 1.505 . S
C943 O930 1.258 . S
C943 O931 1.242 . S
H944 C916 0.930 . S
H945 C917 0.930 . S
H946 C918 0.930 . S
H947 C919 0.931 . S
H948 C937 0.930 . S
H949 C938 0.930 . S
H950 C939 0.930 . S
H951 C940 0.931 . S
H952 C958 0.930 1_655 S
H953 C961 0.930 . S
H954 C962 0.930 . S
H955 C963 0.930 . S
H956 C966 0.958 . S
H957 C967 0.930 1_655 S
C958 H952 0.930 1_455 S
C958 C959 1.355 . S
C958 C960 1.415 . S
C959 C958 1.355 . S
C959 C961 1.419 . S
C960 C958 1.415 . S
C960 C965 1.425 . S
C960 C967 1.409 . S
C961 H953 0.930 . S
C961 C959 1.419 . S
C961 C962 1.362 . S
C962 H954 0.930 . S
C962 C961 1.362 . S
C962 C965 1.409 . S
C963 H955 0.930 . S
C963 C964 1.355 . S
C963 C965 1.415 . S
C964 C963 1.355 . S
C964 C966 1.412 1_556 S
C965 C960 1.425 . S
C965 C962 1.409 . S
C965 C963 1.415 . S
C966 H956 0.958 . S
C966 C964 1.412 1_554 S
C966 C967 1.343 1_554 S
C967 H957 0.930 1_455 S
C967 C960 1.409 . S
C967 C966 1.343 1_556 S
H968 C974 0.930 . S
H969 C977 0.930 . S
H970 C978 0.930 . S
H971 C979 0.930 . S
H972 C982 0.930 . S
H973 C983 0.930 . S
C974 H968 0.930 . S
C974 C975 1.355 . S
C974 C976 1.415 . S
C975 C974 1.355 . S
C975 C977 1.419 . S
C976 C974 1.415 . S
C976 C981 1.425 . S
C976 C983 1.409 . S
C977 H969 0.930 . S
C977 C975 1.419 . S
C977 C978 1.362 . S
C978 H970 0.930 . S
C978 C977 1.362 . S
C978 C981 1.409 . S
C979 H971 0.930 . S
C979 C980 1.355 . S
C979 C981 1.415 . S
C980 C979 1.355 . S
C980 C982 1.419 . S
C981 C976 1.425 . S
C981 C978 1.409 . S
C981 C979 1.415 . S
C982 H972 0.930 . S
C982 C980 1.419 . S
C982 C983 1.362 . S
C983 H973 0.930 . S
C983 C976 1.409 . S
C983 C982 1.362 . S
H984 C990 0.930 . S
H985 C993 0.930 . S
H986 C994 0.930 . S
H987 C995 0.930 . S
H988 C998 0.930 . S
H989 C999 0.930 . S
C990 H984 0.930 . S
C990 C991 1.355 . S
C990 C992 1.415 . S
C991 C990 1.355 . S
C991 C993 1.419 . S
C992 C990 1.415 . S
C992 C997 1.425 . S
C992 C999 1.409 . S
C993 H985 0.930 . S
C993 C991 1.419 . S
C993 C994 1.362 . S
C994 H986 0.930 . S
C994 C993 1.362 . S
C994 C997 1.409 . S
C995 H987 0.930 . S
C995 C996 1.355 . S
C995 C997 1.415 . S
C996 C995 1.355 . S
C996 C998 1.419 . S
C997 C992 1.425 . S
C997 C994 1.409 . S
C997 C995 1.415 . S
C998 H988 0.930 . S
C998 C996 1.419 . S
C998 C999 1.362 . S
C999 H989 0.930 . S
C999 C992 1.409 . S
C999 C998 1.362 . S
H1000 C1006 0.930 . S
H1001 C1009 0.930 . S
H1002 C1010 0.930 . S
H1003 C1011 0.930 . S
H1004 C1014 0.930 . S
H1005 C1015 0.930 . S
C1006 H1000 0.930 . S
C1006 C1007 1.355 . S
C1006 C1008 1.415 . S
C1007 C1006 1.355 . S
C1007 C1009 1.419 . S
C1008 C1006 1.415 . S
C1008 C1013 1.425 . S
C1008 C1015 1.409 . S
C1009 H1001 0.930 . S
C1009 C1007 1.419 . S
C1009 C1010 1.362 . S
C1010 H1002 0.930 . S
C1010 C1009 1.362 . S
C1010 C1013 1.409 . S
C1011 H1003 0.930 . S
C1011 C1012 1.355 . S
C1011 C1013 1.415 . S
C1012 C1011 1.355 . S
C1012 C1014 1.419 . S
C1013 C1008 1.425 . S
C1013 C1010 1.409 . S
C1013 C1011 1.415 . S
C1014 H1004 0.930 . S
C1014 C1012 1.419 . S
C1014 C1015 1.362 . S
C1015 H1005 0.930 . S
C1015 C1008 1.409 . S
C1015 C1014 1.362 . S
H1016 C1022 0.930 . S
H1017 C1025 0.930 . S
H1018 C1026 0.930 . S
H1019 C1027 0.930 . S
H1020 C1030 0.930 . S
H1021 C1031 0.930 . S
C1022 H1016 0.930 . S
C1022 C1023 1.355 . S
C1022 C1024 1.415 . S
C1023 C1022 1.355 . S
C1023 C1025 1.419 . S
C1024 C1022 1.415 . S
C1024 C1029 1.425 . S
C1024 C1031 1.409 . S
C1025 H1017 0.930 . S
C1025 C1023 1.419 . S
C1025 C1026 1.362 . S
C1026 H1018 0.930 . S
C1026 C1025 1.362 . S
C1026 C1029 1.409 . S
C1027 H1019 0.930 . S
C1027 C1028 1.355 . S
C1027 C1029 1.415 . S
C1028 C1027 1.355 . S
C1028 C1030 1.419 . S
C1029 C1024 1.425 . S
C1029 C1026 1.409 . S
C1029 C1027 1.415 . S
C1030 H1020 0.930 . S
C1030 C1028 1.419 . S
C1030 C1031 1.362 . S
C1031 H1021 0.930 . S
C1031 C1024 1.409 . S
C1031 C1030 1.362 . S
H1032 C1038 0.930 . S
H1033 C1041 0.930 . S
H1034 C1042 0.930 . S
H1035 C1043 0.930 . S
H1036 C1046 0.930 . S
H1037 C1047 0.930 . S
C1038 H1032 0.930 . S
C1038 C1039 1.355 . S
C1038 C1040 1.415 . S
C1039 C1038 1.355 . S
C1039 C1041 1.419 . S
C1040 C1038 1.415 . S
C1040 C1045 1.425 . S
C1040 C1047 1.409 . S
C1041 H1033 0.930 . S
C1041 C1039 1.419 . S
C1041 C1042 1.362 . S
C1042 H1034 0.930 . S
C1042 C1041 1.362 . S
C1042 C1045 1.409 . S
C1043 H1035 0.930 . S
C1043 C1044 1.355 . S
C1043 C1045 1.415 . S
C1044 C1043 1.355 . S
C1044 C1046 1.419 . S
C1045 C1040 1.425 . S
C1045 C1042 1.409 . S
C1045 C1043 1.415 . S
C1046 H1036 0.930 . S
C1046 C1044 1.419 . S
C1046 C1047 1.362 . S
C1047 H1037 0.930 . S
C1047 C1040 1.409 . S
C1047 C1046 1.362 . S
H1048 C1054 0.930 . S
H1049 C1057 0.930 . S
H1050 C1058 0.930 . S
H1051 C1059 0.930 . S
H1052 C1062 0.930 . S
H1053 C1063 0.930 . S
C1054 H1048 0.930 . S
C1054 C1055 1.355 . S
C1054 C1056 1.415 . S
C1055 C1054 1.355 . S
C1055 C1057 1.419 . S
C1056 C1054 1.415 . S
C1056 C1061 1.425 . S
C1056 C1063 1.409 . S
C1057 H1049 0.930 . S
C1057 C1055 1.419 . S
C1057 C1058 1.362 . S
C1058 H1050 0.930 . S
C1058 C1057 1.362 . S
C1058 C1061 1.409 . S
C1059 H1051 0.930 . S
C1059 C1060 1.355 . S
C1059 C1061 1.415 . S
C1060 C1059 1.355 . S
C1060 C1062 1.419 . S
C1061 C1056 1.425 . S
C1061 C1058 1.409 . S
C1061 C1059 1.415 . S
C1062 H1052 0.930 . S
C1062 C1060 1.419 . S
C1062 C1063 1.362 . S
C1063 H1053 0.930 . S
C1063 C1056 1.409 . S
C1063 C1062 1.362 . S
H1064 C1070 0.930 . S
H1065 C1073 0.930 . S
H1066 C1074 0.930 . S
H1067 C1075 0.930 . S
H1068 C1078 0.930 . S
H1069 C1079 0.930 . S
C1070 H1064 0.930 . S
C1070 C1071 1.355 . S
C1070 C1072 1.415 . S
C1071 C1070 1.355 . S
C1071 C1073 1.419 . S
C1072 C1070 1.415 . S
C1072 C1077 1.425 . S
C1072 C1079 1.409 . S
C1073 H1065 0.930 . S
C1073 C1071 1.419 . S
C1073 C1074 1.362 . S
C1074 H1066 0.930 . S
C1074 C1073 1.362 . S
C1074 C1077 1.409 . S
C1075 H1067 0.930 . S
C1075 C1076 1.355 . S
C1075 C1077 1.415 . S
C1076 C1075 1.355 . S
C1076 C1078 1.419 . S
C1077 C1072 1.425 . S
C1077 C1074 1.409 . S
C1077 C1075 1.415 . S
C1078 H1068 0.930 . S
C1078 C1076 1.419 . S
C1078 C1079 1.362 . S
C1079 H1069 0.930 . S
C1079 C1072 1.409 . S
C1079 C1078 1.362 . S
H1080 C1086 0.930 . S
H1081 C1089 0.930 . S
H1082 C1090 0.930 . S
H1083 C1091 0.930 . S
H1084 C1094 0.930 . S
H1085 C1095 0.930 . S
C1086 H1080 0.930 . S
C1086 C1087 1.355 . S
C1086 C1088 1.415 1_655 S
C1087 C1086 1.355 . S
C1087 C1089 1.419 . S
C1088 C1086 1.415 1_455 S
C1088 C1093 1.425 . S
C1088 C1095 1.409 . S
C1089 H1081 0.930 . S
C1089 C1087 1.419 . S
C1089 C1090 1.362 1_655 S
C1090 H1082 0.930 . S
C1090 C1089 1.362 1_455 S
C1090 C1093 1.409 . S
C1091 H1083 0.930 . S
C1091 C1092 1.355 . S
C1091 C1093 1.415 . S
C1092 C1091 1.355 . S
C1092 C1094 1.419 . S
C1093 C1088 1.425 . S
C1093 C1090 1.409 . S
C1093 C1091 1.415 . S
C1094 H1084 0.930 . S
C1094 C1092 1.419 . S
C1094 C1095 1.362 . S
C1095 H1085 0.930 . S
C1095 C1088 1.409 . S
C1095 C1094 1.362 . S
H1096 C1102 0.930 . S
H1097 C1105 0.930 . S
H1098 C1106 0.930 . S
H1099 C1107 0.930 . S
H1100 C1110 0.930 . S
H1101 C1111 0.930 . S
C1102 H1096 0.930 . S
C1102 C1103 1.355 . S
C1102 C1104 1.415 . S
C1103 C1102 1.355 . S
C1103 C1105 1.419 . S
C1104 C1102 1.415 . S
C1104 C1109 1.425 . S
C1104 C1111 1.409 . S
C1105 H1097 0.930 . S
C1105 C1103 1.419 . S
C1105 C1106 1.362 . S
C1106 H1098 0.930 . S
C1106 C1105 1.362 . S
C1106 C1109 1.409 . S
C1107 H1099 0.930 . S
C1107 C1108 1.355 . S
C1107 C1109 1.415 . S
C1108 C1107 1.355 . S
C1108 C1110 1.419 . S
C1109 C1104 1.425 . S
C1109 C1106 1.409 . S
C1109 C1107 1.415 . S
C1110 H1100 0.930 . S
C1110 C1108 1.419 . S
C1110 C1111 1.362 . S
C1111 H1101 0.930 . S
C1111 C1104 1.409 . S
C1111 C1110 1.362 . S
H1112 C1118 0.930 . S
H1113 C1121 0.930 . S
H1114 C1122 0.930 . S
H1115 C1123 0.930 . S
H1116 C1126 0.930 . S
H1117 C1127 0.930 . S
C1118 H1112 0.930 . S
C1118 C1119 1.355 . S
C1118 C1120 1.415 . S
C1119 C1118 1.355 . S
C1119 C1121 1.419 . S
C1120 C1118 1.415 . S
C1120 C1125 1.425 . S
C1120 C1127 1.409 . S
C1121 H1113 0.930 . S
C1121 C1119 1.419 . S
C1121 C1122 1.362 . S
C1122 H1114 0.930 . S
C1122 C1121 1.362 . S
C1122 C1125 1.409 . S
C1123 H1115 0.930 . S
C1123 C1124 1.355 . S
C1123 C1125 1.415 . S
C1124 C1123 1.355 . S
C1124 C1126 1.419 . S
C1125 C1120 1.425 . S
C1125 C1122 1.409 . S
C1125 C1123 1.415 . S
C1126 H1116 0.930 . S
C1126 C1124 1.419 . S
C1126 C1127 1.362 . S
C1127 H1117 0.930 . S
C1127 C1120 1.409 . S
C1127 C1126 1.362 . S
H1128 C1134 0.930 . S
H1129 C1137 0.930 . S
H1130 C1138 0.930 . S
H1131 C1139 0.930 . S
H1132 C1142 0.930 . S
H1133 C1143 0.930 . S
C1134 H1128 0.930 . S
C1134 C1135 1.355 . S
C1134 C1136 1.415 . S
C1135 C1134 1.355 . S
C1135 C1137 1.419 . S
C1136 C1134 1.415 . S
C1136 C1141 1.425 . S
C1136 C1143 1.409 . S
C1137 H1129 0.930 . S
C1137 C1135 1.419 . S
C1137 C1138 1.362 . S
C1138 H1130 0.930 . S
C1138 C1137 1.362 . S
C1138 C1141 1.409 . S
C1139 H1131 0.930 . S
C1139 C1140 1.355 . S
C1139 C1141 1.415 . S
C1140 C1139 1.355 . S
C1140 C1142 1.419 . S
C1141 C1136 1.425 . S
C1141 C1138 1.409 . S
C1141 C1139 1.415 . S
C1142 H1132 0.930 . S
C1142 C1140 1.419 . S
C1142 C1143 1.362 . S
C1143 H1133 0.930 . S
C1143 C1136 1.409 . S
C1143 C1142 1.362 . S
H1144 C1150 0.930 . S
H1145 C1153 0.930 . S
H1146 C1154 0.930 . S
H1147 C1155 0.930 1_655 S
H1148 C1158 0.930 . S
H1149 C1159 0.930 . S
C1150 H1144 0.930 . S
C1150 C1151 1.355 1_455 S
C1150 C1152 1.415 . S
C1151 C1150 1.355 1_655 S
C1151 C1153 1.419 . S
C1152 C1150 1.415 . S
C1152 C1157 1.425 1_455 S
C1152 C1159 1.409 . S
C1153 H1145 0.930 . S
C1153 C1151 1.419 . S
C1153 C1154 1.362 . S
C1154 H1146 0.930 . S
C1154 C1153 1.362 . S
C1154 C1157 1.409 . S
C1155 H1147 0.930 1_455 S
C1155 C1156 1.355 . S
C1155 C1157 1.415 1_455 S
C1156 C1155 1.355 . S
C1156 C1158 1.419 . S
C1157 C1152 1.425 1_655 S
C1157 C1154 1.409 . S
C1157 C1155 1.415 1_655 S
C1158 H1148 0.930 . S
C1158 C1156 1.419 . S
C1158 C1159 1.362 . S
C1159 H1149 0.930 . S
C1159 C1152 1.409 . S
C1159 C1158 1.362 . S
H1160 C1166 0.930 . S
H1161 C1169 0.930 . S
H1162 C1170 0.930 . S
H1163 C1171 0.930 . S
H1164 C1174 0.930 . S
H1165 C1175 0.930 . S
C1166 H1160 0.930 . S
C1166 C1167 1.355 . S
C1166 C1168 1.415 . S
C1167 C1166 1.355 . S
C1167 C1169 1.419 . S
C1168 C1166 1.415 . S
C1168 C1173 1.425 . S
C1168 C1175 1.409 . S
C1169 H1161 0.930 . S
C1169 C1167 1.419 . S
C1169 C1170 1.362 . S
C1170 H1162 0.930 . S
C1170 C1169 1.362 . S
C1170 C1173 1.409 . S
C1171 H1163 0.930 . S
C1171 C1172 1.355 . S
C1171 C1173 1.415 . S
C1172 C1171 1.355 . S
C1172 C1174 1.419 . S
C1173 C1168 1.425 . S
C1173 C1170 1.409 . S
C1173 C1171 1.415 . S
C1174 H1164 0.930 . S
C1174 C1172 1.419 . S
C1174 C1175 1.362 . S
C1175 H1165 0.930 . S
C1175 C1168 1.409 . S
C1175 C1174 1.362 . S
H1176 C1182 0.930 . S
H1177 C1185 0.930 . S
H1178 C1186 0.930 . S
H1179 C1187 0.930 . S
H1180 C1190 0.930 . S
H1181 C1191 0.930 . S
C1182 H1176 0.930 . S
C1182 C1183 1.355 . S
C1182 C1184 1.415 . S
C1183 C1182 1.355 . S
C1183 C1185 1.419 . S
C1184 C1182 1.415 . S
C1184 C1189 1.425 . S
C1184 C1191 1.409 . S
C1185 H1177 0.930 . S
C1185 C1183 1.419 . S
C1185 C1186 1.362 . S
C1186 H1178 0.930 . S
C1186 C1185 1.362 . S
C1186 C1189 1.409 . S
C1187 H1179 0.930 . S
C1187 C1188 1.355 . S
C1187 C1189 1.415 . S
C1188 C1187 1.355 . S
C1188 C1190 1.419 . S
C1189 C1184 1.425 . S
C1189 C1186 1.409 . S
C1189 C1187 1.415 . S
C1190 H1180 0.930 . S
C1190 C1188 1.419 . S
C1190 C1191 1.362 . S
C1191 H1181 0.930 . S
C1191 C1184 1.409 . S
C1191 C1190 1.362 . S
H1192 C1198 0.930 . S
H1193 C1201 0.930 . S
H1194 C1202 0.930 . S
H1195 C1203 0.930 . S
H1196 C1206 0.930 . S
H1197 C1207 0.930 . S
C1198 H1192 0.930 . S
C1198 C1199 1.355 . S
C1198 C1200 1.415 . S
C1199 C1198 1.355 . S
C1199 C1201 1.419 . S
C1200 C1198 1.415 . S
C1200 C1205 1.425 . S
C1200 C1207 1.409 . S
C1201 H1193 0.930 . S
C1201 C1199 1.419 . S
C1201 C1202 1.362 . S
C1202 H1194 0.930 . S
C1202 C1201 1.362 . S
C1202 C1205 1.409 . S
C1203 H1195 0.930 . S
C1203 C1204 1.355 . S
C1203 C1205 1.415 . S
C1204 C1203 1.355 . S
C1204 C1206 1.419 . S
C1205 C1200 1.425 . S
C1205 C1202 1.409 . S
C1205 C1203 1.415 . S
C1206 H1196 0.930 . S
C1206 C1204 1.419 . S
C1206 C1207 1.362 . S
C1207 H1197 0.930 . S
C1207 C1200 1.409 . S
C1207 C1206 1.362 . S
H1208 C1214 0.930 . S
H1209 C1217 0.930 . S
H1210 C1218 0.930 . S
H1211 C1219 0.930 . S
H1212 C1222 0.930 . S
H1213 C1223 0.930 . S
C1214 H1208 0.930 . S
C1214 C1215 1.355 . S
C1214 C1216 1.415 . S
C1215 C1214 1.355 . S
C1215 C1217 1.419 1_565 S
C1216 C1214 1.415 . S
C1216 C1221 1.425 1_565 S
C1216 C1223 1.409 . S
C1217 H1209 0.930 . S
C1217 C1215 1.419 1_545 S
C1217 C1218 1.362 . S
C1218 H1210 0.930 . S
C1218 C1217 1.362 . S
C1218 C1221 1.409 . S
C1219 H1211 0.930 . S
C1219 C1220 1.355 . S
C1219 C1221 1.415 . S
C1220 C1219 1.355 . S
C1220 C1222 1.419 1_545 S
C1221 C1216 1.425 1_545 S
C1221 C1218 1.409 . S
C1221 C1219 1.415 . S
C1222 H1212 0.930 . S
C1222 C1220 1.419 1_565 S
C1222 C1223 1.362 . S
C1223 H1213 0.930 . S
C1223 C1216 1.409 . S
C1223 C1222 1.362 . S
H1224 C1230 0.930 . S
H1225 C1233 0.930 . S
H1226 C1234 0.930 . S
H1227 C1235 0.930 . S
H1228 C1238 0.930 . S
H1229 C1239 0.930 . S
C1230 H1224 0.930 . S
C1230 C1231 1.355 1_556 S
C1230 C1232 1.415 . S
C1231 C1230 1.355 1_554 S
C1231 C1233 1.419 . S
C1232 C1230 1.415 . S
C1232 C1237 1.425 1_556 S
C1232 C1239 1.409 . S
C1233 H1225 0.930 . S
C1233 C1231 1.419 . S
C1233 C1234 1.362 . S
C1234 H1226 0.930 . S
C1234 C1233 1.362 . S
C1234 C1237 1.409 . S
C1235 H1227 0.930 . S
C1235 C1236 1.355 . S
C1235 C1237 1.415 . S
C1236 C1235 1.355 . S
C1236 C1238 1.419 1_554 S
C1237 C1232 1.425 1_554 S
C1237 C1234 1.409 . S
C1237 C1235 1.415 . S
C1238 H1228 0.930 . S
C1238 C1236 1.419 1_556 S
C1238 C1239 1.362 . S
C1239 H1229 0.930 . S
C1239 C1232 1.409 . S
C1239 C1238 1.362 . S
H1240 C1246 0.930 . S
H1241 C1249 0.930 . S
H1242 C1250 0.930 . S
H1243 C1251 0.930 . S
H1244 C1254 0.930 . S
H1245 C1255 0.930 . S
C1246 H1240 0.930 . S
C1246 C1247 1.355 . S
C1246 C1248 1.415 . S
C1247 C1246 1.355 . S
C1247 C1249 1.419 . S
C1248 C1246 1.415 . S
C1248 C1253 1.425 . S
C1248 C1255 1.409 . S
C1249 H1241 0.930 . S
C1249 C1247 1.419 . S
C1249 C1250 1.362 . S
C1250 H1242 0.930 . S
C1250 C1249 1.362 . S
C1250 C1253 1.409 . S
C1251 H1243 0.930 . S
C1251 C1252 1.355 . S
C1251 C1253 1.415 . S
C1252 C1251 1.355 . S
C1252 C1254 1.419 . S
C1253 C1248 1.425 . S
C1253 C1250 1.409 . S
C1253 C1251 1.415 . S
C1254 H1244 0.930 . S
C1254 C1252 1.419 . S
C1254 C1255 1.362 . S
C1255 H1245 0.930 . S
C1255 C1248 1.409 . S
C1255 C1254 1.362 . S
H1256 C1262 0.930 . S
H1257 C1265 0.930 . S
H1258 C1266 0.930 . S
H1259 C1267 0.930 . S
H1260 C1270 0.930 . S
H1261 C1271 0.930 . S
C1262 H1256 0.930 . S
C1262 C1263 1.355 . S
C1262 C1264 1.415 . S
C1263 C1262 1.355 . S
C1263 C1265 1.419 . S
C1264 C1262 1.415 . S
C1264 C1269 1.425 . S
C1264 C1271 1.409 . S
C1265 H1257 0.930 . S
C1265 C1263 1.419 . S
C1265 C1266 1.362 . S
C1266 H1258 0.930 . S
C1266 C1265 1.362 . S
C1266 C1269 1.409 . S
C1267 H1259 0.930 . S
C1267 C1268 1.355 . S
C1267 C1269 1.415 . S
C1268 C1267 1.355 . S
C1268 C1270 1.419 . S
C1269 C1264 1.425 . S
C1269 C1266 1.409 . S
C1269 C1267 1.415 . S
C1270 H1260 0.930 . S
C1270 C1268 1.419 . S
C1270 C1271 1.362 . S
C1271 H1261 0.930 . S
C1271 C1264 1.409 . S
C1271 C1270 1.362 . S
H1272 C1278 0.930 . S
H1273 C1281 0.930 . S
H1274 C1282 0.930 . S
H1275 C1283 0.930 . S
H1276 C1286 0.930 . S
H1277 C1287 0.930 . S
C1278 H1272 0.930 . S
C1278 C1279 1.355 . S
C1278 C1280 1.415 . S
C1279 C1278 1.355 . S
C1279 C1281 1.419 . S
C1280 C1278 1.415 . S
C1280 C1285 1.425 . S
C1280 C1287 1.409 . S
C1281 H1273 0.930 . S
C1281 C1279 1.419 . S
C1281 C1282 1.362 . S
C1282 H1274 0.930 . S
C1282 C1281 1.362 . S
C1282 C1285 1.409 . S
C1283 H1275 0.930 . S
C1283 C1284 1.355 . S
C1283 C1285 1.415 . S
C1284 C1283 1.355 . S
C1284 C1286 1.419 . S
C1285 C1280 1.425 . S
C1285 C1282 1.409 . S
C1285 C1283 1.415 . S
C1286 H1276 0.930 . S
C1286 C1284 1.419 . S
C1286 C1287 1.362 . S
C1287 H1277 0.930 . S
C1287 C1280 1.409 . S
C1287 C1286 1.362 . S
H1288 C1294 0.930 . S
H1289 C1297 0.930 . S
H1290 C1298 0.930 . S
H1291 C1299 0.930 . S
H1292 C1302 0.930 . S
H1293 C1303 0.930 . S
C1294 H1288 0.930 . S
C1294 C1295 1.355 . S
C1294 C1296 1.415 . S
C1295 C1294 1.355 . S
C1295 C1297 1.419 . S
C1296 C1294 1.415 . S
C1296 C1301 1.425 . S
C1296 C1303 1.409 . S
C1297 H1289 0.930 . S
C1297 C1295 1.419 . S
C1297 C1298 1.362 . S
C1298 H1290 0.930 . S
C1298 C1297 1.362 . S
C1298 C1301 1.409 . S
C1299 H1291 0.930 . S
C1299 C1300 1.355 . S
C1299 C1301 1.415 . S
C1300 C1299 1.355 . S
C1300 C1302 1.419 . S
C1301 C1296 1.425 . S
C1301 C1298 1.409 . S
C1301 C1299 1.415 . S
C1302 H1292 0.930 . S
C1302 C1300 1.419 . S
C1302 C1303 1.362 . S
C1303 H1293 0.930 . S
C1303 C1296 1.409 . S
C1303 C1302 1.362 . S
H1304 C1310 0.930 . S
H1305 C1313 0.930 . S
H1306 C1314 0.930 . S
H1307 C1315 0.930 . S
H1308 C1318 0.930 . S
H1309 C1319 0.930 . S
C1310 H1304 0.930 . S
C1310 C1311 1.355 . S
C1310 C1312 1.415 . S
C1311 C1310 1.355 . S
C1311 C1313 1.419 . S
C1312 C1310 1.415 . S
C1312 C1317 1.425 . S
C1312 C1319 1.409 . S
C1313 H1305 0.930 . S
C1313 C1311 1.419 . S
C1313 C1314 1.362 . S
C1314 H1306 0.930 . S
C1314 C1313 1.362 . S
C1314 C1317 1.409 . S
C1315 H1307 0.930 . S
C1315 C1316 1.355 . S
C1315 C1317 1.415 . S
C1316 C1315 1.355 . S
C1316 C1318 1.419 . S
C1317 C1312 1.425 . S
C1317 C1314 1.409 . S
C1317 C1315 1.415 . S
C1318 H1308 0.930 . S
C1318 C1316 1.419 . S
C1318 C1319 1.362 . S
C1319 H1309 0.930 . S
C1319 C1312 1.409 . S
C1319 C1318 1.362 . S
H1320 C1326 0.930 . S
H1321 C1329 0.930 . S
H1322 C1330 0.930 . S
H1323 C1331 0.930 . S
H1324 C1334 0.930 . S
H1325 C1335 0.930 . S
C1326 H1320 0.930 . S
C1326 C1327 1.355 . S
C1326 C1328 1.415 . S
C1327 C1326 1.355 . S
C1327 C1329 1.419 . S
C1328 C1326 1.415 . S
C1328 C1333 1.425 . S
C1328 C1335 1.409 . S
C1329 H1321 0.930 . S
C1329 C1327 1.419 . S
C1329 C1330 1.362 . S
C1330 H1322 0.930 . S
C1330 C1329 1.362 . S
C1330 C1333 1.409 . S
C1331 H1323 0.930 . S
C1331 C1332 1.355 . S
C1331 C1333 1.415 . S
C1332 C1331 1.355 . S
C1332 C1334 1.419 . S
C1333 C1328 1.425 . S
C1333 C1330 1.409 . S
C1333 C1331 1.415 . S
C1334 H1324 0.930 . S
C1334 C1332 1.419 . S
C1334 C1335 1.362 . S
C1335 H1325 0.930 . S
C1335 C1328 1.409 . S
C1335 C1334 1.362 . S
H1336 C1342 0.930 . S
H1337 C1345 0.930 . S
H1338 C1346 0.930 . S
H1339 C1347 0.930 . S
H1340 C1350 0.930 . S
H1341 C1351 0.930 . S
C1342 H1336 0.930 . S
C1342 C1343 1.355 . S
C1342 C1344 1.415 . S
C1343 C1342 1.355 . S
C1343 C1345 1.419 . S
C1344 C1342 1.415 . S
C1344 C1349 1.425 . S
C1344 C1351 1.409 . S
C1345 H1337 0.930 . S
C1345 C1343 1.419 . S
C1345 C1346 1.362 . S
C1346 H1338 0.930 . S
C1346 C1345 1.362 . S
C1346 C1349 1.409 . S
C1347 H1339 0.930 . S
C1347 C1348 1.355 . S
C1347 C1349 1.415 . S
C1348 C1347 1.355 . S
C1348 C1350 1.419 . S
C1349 C1344 1.425 . S
C1349 C1346 1.409 . S
C1349 C1347 1.415 . S
C1350 H1340 0.930 . S
C1350 C1348 1.419 . S
C1350 C1351 1.362 . S
C1351 H1341 0.930 . S
C1351 C1344 1.409 . S
C1351 C1350 1.362 . S
H1352 C1358 0.930 . S
H1353 C1361 0.930 . S
H1354 C1362 0.930 . S
H1355 C1363 0.930 . S
H1356 C1366 0.930 . S
H1357 C1367 0.930 . S
C1358 H1352 0.930 . S
C1358 C1359 1.355 . S
C1358 C1360 1.415 . S
C1359 C1358 1.355 . S
C1359 C1361 1.419 . S
C1360 C1358 1.415 . S
C1360 C1365 1.425 . S
C1360 C1367 1.409 . S
C1361 H1353 0.930 . S
C1361 C1359 1.419 . S
C1361 C1362 1.362 . S
C1362 H1354 0.930 . S
C1362 C1361 1.362 . S
C1362 C1365 1.409 . S
C1363 H1355 0.930 . S
C1363 C1364 1.355 . S
C1363 C1365 1.415 . S
C1364 C1363 1.355 . S
C1364 C1366 1.419 . S
C1365 C1360 1.425 . S
C1365 C1362 1.409 . S
C1365 C1363 1.415 . S
C1366 H1356 0.930 . S
C1366 C1364 1.419 . S
C1366 C1367 1.362 . S
C1367 H1357 0.930 . S
C1367 C1360 1.409 . S
C1367 C1366 1.362 . S
H1368 C1374 0.930 . S
H1369 C1377 0.930 . S
H1370 C1378 0.930 . S
H1371 C1379 0.930 . S
H1372 C1382 0.930 . S
H1373 C1383 0.930 . S
C1374 H1368 0.930 . S
C1374 C1375 1.355 . S
C1374 C1376 1.415 . S
C1375 C1374 1.355 . S
C1375 C1377 1.419 . S
C1376 C1374 1.415 . S
C1376 C1381 1.425 . S
C1376 C1383 1.409 . S
C1377 H1369 0.930 . S
C1377 C1375 1.419 . S
C1377 C1378 1.362 . S
C1378 H1370 0.930 . S
C1378 C1377 1.362 . S
C1378 C1381 1.409 . S
C1379 H1371 0.930 . S
C1379 C1380 1.355 . S
C1379 C1381 1.415 . S
C1380 C1379 1.355 . S
C1380 C1382 1.419 . S
C1381 C1376 1.425 . S
C1381 C1378 1.409 . S
C1381 C1379 1.415 . S
C1382 H1372 0.930 . S
C1382 C1380 1.419 . S
C1382 C1383 1.362 . S
C1383 H1373 0.930 . S
C1383 C1376 1.409 . S
C1383 C1382 1.362 . S
H1384 C1390 0.930 . S
H1385 C1393 0.930 . S
H1386 C1394 0.930 . S
H1387 C1395 0.930 . S
H1388 C1398 0.930 . S
H1389 C1399 0.930 . S
C1390 H1384 0.930 . S
C1390 C1391 1.355 . S
C1390 C1392 1.415 . S
C1391 C1390 1.355 . S
C1391 C1393 1.419 . S
C1392 C1390 1.415 . S
C1392 C1397 1.425 . S
C1392 C1399 1.409 . S
C1393 H1385 0.930 . S
C1393 C1391 1.419 . S
C1393 C1394 1.362 . S
C1394 H1386 0.930 . S
C1394 C1393 1.362 . S
C1394 C1397 1.409 . S
C1395 H1387 0.930 . S
C1395 C1396 1.355 . S
C1395 C1397 1.415 . S
C1396 C1395 1.355 . S
C1396 C1398 1.419 . S
C1397 C1392 1.425 . S
C1397 C1394 1.409 . S
C1397 C1395 1.415 . S
C1398 H1388 0.930 . S
C1398 C1396 1.419 . S
C1398 C1399 1.362 . S
C1399 H1389 0.930 . S
C1399 C1392 1.409 . S
C1399 C1398 1.362 . S
H1400 C1406 0.930 . S
H1401 C1409 0.930 . S
H1402 C1410 0.930 . S
H1403 C1411 0.930 . S
H1404 C1414 0.930 . S
H1405 C1415 0.930 . S
C1406 H1400 0.930 . S
C1406 C1407 1.355 . S
C1406 C1408 1.415 . S
C1407 C1406 1.355 . S
C1407 C1409 1.419 . S
C1408 C1406 1.415 . S
C1408 C1413 1.425 . S
C1408 C1415 1.409 . S
C1409 H1401 0.930 . S
C1409 C1407 1.419 . S
C1409 C1410 1.362 . S
C1410 H1402 0.930 . S
C1410 C1409 1.362 . S
C1410 C1413 1.409 . S
C1411 H1403 0.930 . S
C1411 C1412 1.355 . S
C1411 C1413 1.415 . S
C1412 C1411 1.355 . S
C1412 C1414 1.419 . S
C1413 C1408 1.425 . S
C1413 C1410 1.409 . S
C1413 C1411 1.415 . S
C1414 H1404 0.930 . S
C1414 C1412 1.419 . S
C1414 C1415 1.362 . S
C1415 H1405 0.930 . S
C1415 C1408 1.409 . S
C1415 C1414 1.362 . S
H1416 C1422 0.930 . S
H1417 C1425 0.930 . S
H1418 C1426 0.930 . S
H1419 C1427 0.930 . S
H1420 C1430 0.930 . S
H1421 C1431 0.930 . S
C1422 H1416 0.930 . S
C1422 C1423 1.355 . S
C1422 C1424 1.415 . S
C1423 C1422 1.355 . S
C1423 C1425 1.419 . S
C1424 C1422 1.415 . S
C1424 C1429 1.425 . S
C1424 C1431 1.409 . S
C1425 H1417 0.930 . S
C1425 C1423 1.419 . S
C1425 C1426 1.362 . S
C1426 H1418 0.930 . S
C1426 C1425 1.362 . S
C1426 C1429 1.409 . S
C1427 H1419 0.930 . S
C1427 C1428 1.355 . S
C1427 C1429 1.415 . S
C1428 C1427 1.355 . S
C1428 C1430 1.419 . S
C1429 C1424 1.425 . S
C1429 C1426 1.409 . S
C1429 C1427 1.415 . S
C1430 H1420 0.930 . S
C1430 C1428 1.419 . S
C1430 C1431 1.362 . S
C1431 H1421 0.930 . S
C1431 C1424 1.409 . S
C1431 C1430 1.362 . S
H1432 C1438 0.930 . S
H1433 C1441 0.930 . S
H1434 C1442 0.930 1_554 S
H1435 C1443 0.930 1_554 S
H1436 C1446 0.930 . S
H1437 C1447 0.930 . S
C1438 H1432 0.930 . S
C1438 C1439 1.355 . S
C1438 C1440 1.415 . S
C1439 C1438 1.355 . S
C1439 C1441 1.419 . S
C1440 C1438 1.415 . S
C1440 C1445 1.425 . S
C1440 C1447 1.409 . S
C1441 H1433 0.930 . S
C1441 C1439 1.419 . S
C1441 C1442 1.362 . S
C1442 H1434 0.930 1_556 S
C1442 C1441 1.362 . S
C1442 C1445 1.409 . S
C1443 H1435 0.930 1_556 S
C1443 C1444 1.355 . S
C1443 C1445 1.415 . S
C1444 C1443 1.355 . S
C1444 C1446 1.419 . S
C1445 C1440 1.425 . S
C1445 C1442 1.409 . S
C1445 C1443 1.415 . S
C1446 H1436 0.930 . S
C1446 C1444 1.419 . S
C1446 C1447 1.362 . S
C1447 H1437 0.930 . S
C1447 C1440 1.409 . S
C1447 C1446 1.362 . S
H1448 C1454 0.930 . S
H1449 C1457 0.930 . S
H1450 C1458 0.930 . S
H1451 C1459 0.930 . S
H1452 C1462 0.930 . S
H1453 C1463 0.930 . S
C1454 H1448 0.930 . S
C1454 C1455 1.355 . S
C1454 C1456 1.415 . S
C1455 C1454 1.355 . S
C1455 C1457 1.419 . S
C1456 C1454 1.415 . S
C1456 C1461 1.425 . S
C1456 C1463 1.409 . S
C1457 H1449 0.930 . S
C1457 C1455 1.419 . S
C1457 C1458 1.362 . S
C1458 H1450 0.930 . S
C1458 C1457 1.362 . S
C1458 C1461 1.409 . S
C1459 H1451 0.930 . S
C1459 C1460 1.355 . S
C1459 C1461 1.415 . S
C1460 C1459 1.355 . S
C1460 C1462 1.419 . S
C1461 C1456 1.425 . S
C1461 C1458 1.409 . S
C1461 C1459 1.415 . S
C1462 H1452 0.930 . S
C1462 C1460 1.419 . S
C1462 C1463 1.362 . S
C1463 H1453 0.930 . S
C1463 C1456 1.409 . S
C1463 C1462 1.362 . S
H1464 C1470 0.930 . S
H1465 C1473 0.930 . S
H1466 C1474 0.930 . S
H1467 C1475 0.930 . S
H1468 C1478 0.930 . S
H1469 C1479 0.930 1_565 S
C1470 H1464 0.930 . S
C1470 C1471 1.355 . S
C1470 C1472 1.415 . S
C1471 C1470 1.355 . S
C1471 C1473 1.419 . S
C1472 C1470 1.415 . S
C1472 C1477 1.425 . S
C1472 C1479 1.409 . S
C1473 H1465 0.930 . S
C1473 C1471 1.419 . S
C1473 C1474 1.362 . S
C1474 H1466 0.930 . S
C1474 C1473 1.362 . S
C1474 C1477 1.409 . S
C1475 H1467 0.930 . S
C1475 C1476 1.355 . S
C1475 C1477 1.415 . S
C1476 C1475 1.355 . S
C1476 C1478 1.419 . S
C1477 C1472 1.425 . S
C1477 C1474 1.409 . S
C1477 C1475 1.415 . S
C1478 H1468 0.930 . S
C1478 C1476 1.419 . S
C1478 C1479 1.362 . S
C1479 H1469 0.930 1_545 S
C1479 C1472 1.409 . S
C1479 C1478 1.362 . S
H1480 C1486 0.930 . S
H1481 C1489 0.930 . S
H1482 C1490 0.930 . S
H1483 C1491 0.930 . S
H1484 C1494 0.930 . S
H1485 C1495 0.930 . S
C1486 H1480 0.930 . S
C1486 C1487 1.355 . S
C1486 C1488 1.415 . S
C1487 C1486 1.355 . S
C1487 C1489 1.419 . S
C1488 C1486 1.415 . S
C1488 C1493 1.425 . S
C1488 C1495 1.409 . S
C1489 H1481 0.930 . S
C1489 C1487 1.419 . S
C1489 C1490 1.362 . S
C1490 H1482 0.930 . S
C1490 C1489 1.362 . S
C1490 C1493 1.409 . S
C1491 H1483 0.930 . S
C1491 C1492 1.355 . S
C1491 C1493 1.415 . S
C1492 C1491 1.355 . S
C1492 C1494 1.419 . S
C1493 C1488 1.425 . S
C1493 C1490 1.409 . S
C1493 C1491 1.415 . S
C1494 H1484 0.930 . S
C1494 C1492 1.419 . S
C1494 C1495 1.362 . S
C1495 H1485 0.930 . S
C1495 C1488 1.409 . S
C1495 C1494 1.362 . S
H1496 C1502 0.930 1_565 S
H1497 C1505 0.930 . S
H1498 C1506 0.930 . S
H1499 C1507 0.930 . S
H1500 C1510 0.930 . S
H1501 C1511 0.930 1_565 S
C1502 H1496 0.930 1_545 S
C1502 C1503 1.355 . S
C1502 C1504 1.415 . S
C1503 C1502 1.355 . S
C1503 C1505 1.419 . S
C1504 C1502 1.415 . S
C1504 C1509 1.425 . S
C1504 C1511 1.409 . S
C1505 H1497 0.930 . S
C1505 C1503 1.419 . S
C1505 C1506 1.362 . S
C1506 H1498 0.930 . S
C1506 C1505 1.362 . S
C1506 C1509 1.409 . S
C1507 H1499 0.930 . S
C1507 C1508 1.355 . S
C1507 C1509 1.415 . S
C1508 C1507 1.355 . S
C1508 C1510 1.419 . S
C1509 C1504 1.425 . S
C1509 C1506 1.409 . S
C1509 C1507 1.415 . S
C1510 H1500 0.930 . S
C1510 C1508 1.419 . S
C1510 C1511 1.362 . S
C1511 H1501 0.930 1_545 S
C1511 C1504 1.409 . S
C1511 C1510 1.362 . S
H1512 C1518 0.930 . S
H1513 C1521 0.930 . S
H1514 C1522 0.930 . S
H1515 C1523 0.930 . S
H1516 C1526 0.930 . S
H1517 C1527 0.930 . S
C1518 H1512 0.930 . S
C1518 C1519 1.355 . S
C1518 C1520 1.415 . S
C1519 C1518 1.355 . S
C1519 C1521 1.419 . S
C1520 C1518 1.415 . S
C1520 C1525 1.425 . S
C1520 C1527 1.409 . S
C1521 H1513 0.930 . S
C1521 C1519 1.419 . S
C1521 C1522 1.362 . S
C1522 H1514 0.930 . S
C1522 C1521 1.362 . S
C1522 C1525 1.409 . S
C1523 H1515 0.930 . S
C1523 C1524 1.355 . S
C1523 C1525 1.415 . S
C1524 C1523 1.355 . S
C1524 C1526 1.419 . S
C1525 C1520 1.425 . S
C1525 C1522 1.409 . S
C1525 C1523 1.415 . S
C1526 H1516 0.930 . S
C1526 C1524 1.419 . S
C1526 C1527 1.362 . S
C1527 H1517 0.930 . S
C1527 C1520 1.409 . S
C1527 C1526 1.362 . S
H1528 C1534 0.930 . S
H1529 C1537 0.930 . S
H1530 C1538 0.930 . S
H1531 C1539 0.930 . S
H1532 C1542 0.930 . S
H1533 C1543 0.930 . S
C1534 H1528 0.930 . S
C1534 C1535 1.355 . S
C1534 C1536 1.415 . S
C1535 C1534 1.355 . S
C1535 C1537 1.419 . S
C1536 C1534 1.415 . S
C1536 C1541 1.425 . S
C1536 C1543 1.409 . S
C1537 H1529 0.930 . S
C1537 C1535 1.419 . S
C1537 C1538 1.362 . S
C1538 H1530 0.930 . S
C1538 C1537 1.362 . S
C1538 C1541 1.409 . S
C1539 H1531 0.930 . S
C1539 C1540 1.355 . S
C1539 C1541 1.415 . S
C1540 C1539 1.355 . S
C1540 C1542 1.419 . S
C1541 C1536 1.425 . S
C1541 C1538 1.409 . S
C1541 C1539 1.415 . S
C1542 H1532 0.930 . S
C1542 C1540 1.419 . S
C1542 C1543 1.362 . S
C1543 H1533 0.930 . S
C1543 C1536 1.409 . S
C1543 C1542 1.362 . S
H1544 C1550 0.930 . S
H1545 C1553 0.930 . S
H1546 C1554 0.930 . S
H1547 C1555 0.930 . S
H1548 C1558 0.930 . S
H1549 C1559 0.930 . S
C1550 H1544 0.930 . S
C1550 C1551 1.355 . S
C1550 C1552 1.415 . S
C1551 C1550 1.355 . S
C1551 C1553 1.419 . S
C1552 C1550 1.415 . S
C1552 C1557 1.425 . S
C1552 C1559 1.409 . S
C1553 H1545 0.930 . S
C1553 C1551 1.419 . S
C1553 C1554 1.362 . S
C1554 H1546 0.930 . S
C1554 C1553 1.362 . S
C1554 C1557 1.409 . S
C1555 H1547 0.930 . S
C1555 C1556 1.355 . S
C1555 C1557 1.415 . S
C1556 C1555 1.355 . S
C1556 C1558 1.419 . S
C1557 C1552 1.425 . S
C1557 C1554 1.409 . S
C1557 C1555 1.415 . S
C1558 H1548 0.930 . S
C1558 C1556 1.419 . S
C1558 C1559 1.362 . S
C1559 H1549 0.930 . S
C1559 C1552 1.409 . S
C1559 C1558 1.362 . S
H1560 C1566 0.930 . S
H1561 C1569 0.930 . S
H1562 C1570 0.930 . S
H1563 C1571 0.930 . S
H1564 C1574 0.930 . S
H1565 C1575 0.930 . S
C1566 H1560 0.930 . S
C1566 C1567 1.355 . S
C1566 C1568 1.415 . S
C1567 C1566 1.355 . S
C1567 C1569 1.419 . S
C1568 C1566 1.415 . S
C1568 C1573 1.425 . S
C1568 C1575 1.409 . S
C1569 H1561 0.930 . S
C1569 C1567 1.419 . S
C1569 C1570 1.362 . S
C1570 H1562 0.930 . S
C1570 C1569 1.362 . S
C1570 C1573 1.409 . S
C1571 H1563 0.930 . S
C1571 C1572 1.355 . S
C1571 C1573 1.415 . S
C1572 C1571 1.355 . S
C1572 C1574 1.419 . S
C1573 C1568 1.425 . S
C1573 C1570 1.409 . S
C1573 C1571 1.415 . S
C1574 H1564 0.930 . S
C1574 C1572 1.419 . S
C1574 C1575 1.362 . S
C1575 H1565 0.930 . S
C1575 C1568 1.409 . S
C1575 C1574 1.362 . S
H1576 C1582 0.930 . S
H1577 C1585 0.930 . S
H1578 C1586 0.930 . S
H1579 C1587 0.930 . S
H1580 C1590 0.930 . S
H1581 C1591 0.930 . S
C1582 H1576 0.930 . S
C1582 C1583 1.355 . S
C1582 C1584 1.415 . S
C1583 C1582 1.355 . S
C1583 C1585 1.419 . S
C1584 C1582 1.415 . S
C1584 C1589 1.425 . S
C1584 C1591 1.409 . S
C1585 H1577 0.930 . S
C1585 C1583 1.419 . S
C1585 C1586 1.362 . S
C1586 H1578 0.930 . S
C1586 C1585 1.362 . S
C1586 C1589 1.409 . S
C1587 H1579 0.930 . S
C1587 C1588 1.355 . S
C1587 C1589 1.415 . S
C1588 C1587 1.355 . S
C1588 C1590 1.419 . S
C1589 C1584 1.425 . S
C1589 C1586 1.409 . S
C1589 C1587 1.415 . S
C1590 H1580 0.930 . S
C1590 C1588 1.419 . S
C1590 C1591 1.362 . S
C1591 H1581 0.930 . S
C1591 C1584 1.409 . S
C1591 C1590 1.362 . S
H1592 C1598 0.930 1_556 S
H1593 C1601 0.930 . S
H1594 C1602 0.930 . S
H1595 C1603 0.930 . S
H1596 C1606 0.930 . S
H1597 C1607 0.930 . S
C1598 H1592 0.930 1_554 S
C1598 C1599 1.355 . S
C1598 C1600 1.415 . S
C1599 C1598 1.355 . S
C1599 C1601 1.419 . S
C1600 C1598 1.415 . S
C1600 C1605 1.425 . S
C1600 C1607 1.409 1_554 S
C1601 H1593 0.930 . S
C1601 C1599 1.419 . S
C1601 C1602 1.362 . S
C1602 H1594 0.930 . S
C1602 C1601 1.362 . S
C1602 C1605 1.409 . S
C1603 H1595 0.930 . S
C1603 C1604 1.355 . S
C1603 C1605 1.415 . S
C1604 C1603 1.355 . S
C1604 C1606 1.419 1_554 S
C1605 C1600 1.425 . S
C1605 C1602 1.409 . S
C1605 C1603 1.415 . S
C1606 H1596 0.930 . S
C1606 C1604 1.419 1_556 S
C1606 C1607 1.362 . S
C1607 H1597 0.930 . S
C1607 C1600 1.409 1_556 S
C1607 C1606 1.362 . S
H1608 C1614 0.930 . S
H1609 C1617 0.930 . S
H1610 C1618 0.930 . S
H1611 C1619 0.930 . S
H1612 C1622 0.930 . S
H1613 C1623 0.930 . S
C1614 H1608 0.930 . S
C1614 C1615 1.355 . S
C1614 C1616 1.415 . S
C1615 C1614 1.355 . S
C1615 C1617 1.419 . S
C1616 C1614 1.415 . S
C1616 C1621 1.425 . S
C1616 C1623 1.409 . S
C1617 H1609 0.930 . S
C1617 C1615 1.419 . S
C1617 C1618 1.362 . S
C1618 H1610 0.930 . S
C1618 C1617 1.362 . S
C1618 C1621 1.409 . S
C1619 H1611 0.930 . S
C1619 C1620 1.355 . S
C1619 C1621 1.415 . S
C1620 C1619 1.355 . S
C1620 C1622 1.419 . S
C1621 C1616 1.425 . S
C1621 C1618 1.409 . S
C1621 C1619 1.415 . S
C1622 H1612 0.930 . S
C1622 C1620 1.419 . S
C1622 C1623 1.362 . S
C1623 H1613 0.930 . S
C1623 C1616 1.409 . S
C1623 C1622 1.362 . S
H1624 C1630 0.930 . S
H1625 C1633 0.930 . S
H1626 C1634 0.930 . S
H1627 C1635 0.930 . S
H1628 C1638 0.930 . S
H1629 C1639 0.930 . S
C1630 H1624 0.930 . S
C1630 C1631 1.355 . S
C1630 C1632 1.415 . S
C1631 C1630 1.355 . S
C1631 C1633 1.419 . S
C1632 C1630 1.415 . S
C1632 C1637 1.425 . S
C1632 C1639 1.409 . S
C1633 H1625 0.930 . S
C1633 C1631 1.419 . S
C1633 C1634 1.362 . S
C1634 H1626 0.930 . S
C1634 C1633 1.362 . S
C1634 C1637 1.409 . S
C1635 H1627 0.930 . S
C1635 C1636 1.355 . S
C1635 C1637 1.415 . S
C1636 C1635 1.355 . S
C1636 C1638 1.419 . S
C1637 C1632 1.425 . S
C1637 C1634 1.409 . S
C1637 C1635 1.415 . S
C1638 H1628 0.930 . S
C1638 C1636 1.419 . S
C1638 C1639 1.362 . S
C1639 H1629 0.930 . S
C1639 C1632 1.409 . S
C1639 C1638 1.362 . S
H1640 C1646 0.930 . S
H1641 C1649 0.930 . S
H1642 C1650 0.930 . S
H1643 C1651 0.930 . S
H1644 C1654 0.930 . S
H1645 C1655 0.930 . S
C1646 H1640 0.930 . S
C1646 C1647 1.355 . S
C1646 C1648 1.415 . S
C1647 C1646 1.355 . S
C1647 C1649 1.419 . S
C1648 C1646 1.415 . S
C1648 C1653 1.425 . S
C1648 C1655 1.409 . S
C1649 H1641 0.930 . S
C1649 C1647 1.419 . S
C1649 C1650 1.362 . S
C1650 H1642 0.930 . S
C1650 C1649 1.362 . S
C1650 C1653 1.409 . S
C1651 H1643 0.930 . S
C1651 C1652 1.355 . S
C1651 C1653 1.415 . S
C1652 C1651 1.355 . S
C1652 C1654 1.419 . S
C1653 C1648 1.425 . S
C1653 C1650 1.409 . S
C1653 C1651 1.415 . S
C1654 H1644 0.930 . S
C1654 C1652 1.419 . S
C1654 C1655 1.362 . S
C1655 H1645 0.930 . S
C1655 C1648 1.409 . S
C1655 C1654 1.362 . S
H1656 C1662 0.930 . S
H1657 C1665 0.930 . S
H1658 C1666 0.930 . S
H1659 C1667 0.930 . S
H1660 C1670 0.930 . S
H1661 C1671 0.930 . S
C1662 H1656 0.930 . S
C1662 C1663 1.355 1_565 S
C1662 C1664 1.415 . S
C1663 C1662 1.355 1_545 S
C1663 C1665 1.419 . S
C1664 C1662 1.415 . S
C1664 C1669 1.425 . S
C1664 C1671 1.409 . S
C1665 H1657 0.930 . S
C1665 C1663 1.419 . S
C1665 C1666 1.362 . S
C1666 H1658 0.930 . S
C1666 C1665 1.362 . S
C1666 C1669 1.409 1_545 S
C1667 H1659 0.930 . S
C1667 C1668 1.355 . S
C1667 C1669 1.415 . S
C1668 C1667 1.355 . S
C1668 C1670 1.419 . S
C1669 C1664 1.425 . S
C1669 C1666 1.409 1_565 S
C1669 C1667 1.415 . S
C1670 H1660 0.930 . S
C1670 C1668 1.419 . S
C1670 C1671 1.362 . S
C1671 H1661 0.930 . S
C1671 C1664 1.409 . S
C1671 C1670 1.362 . S
H1672 C1678 0.930 . S
H1673 C1681 0.930 . S
H1674 C1682 0.930 . S
H1675 C1683 0.930 . S
H1676 C1686 0.930 . S
H1677 C1687 0.930 . S
C1678 H1672 0.930 . S
C1678 C1679 1.355 . S
C1678 C1680 1.415 . S
C1679 C1678 1.355 . S
C1679 C1681 1.419 . S
C1680 C1678 1.415 . S
C1680 C1685 1.425 . S
C1680 C1687 1.409 . S
C1681 H1673 0.930 . S
C1681 C1679 1.419 . S
C1681 C1682 1.362 . S
C1682 H1674 0.930 . S
C1682 C1681 1.362 . S
C1682 C1685 1.409 . S
C1683 H1675 0.930 . S
C1683 C1684 1.355 . S
C1683 C1685 1.415 . S
C1684 C1683 1.355 . S
C1684 C1686 1.419 . S
C1685 C1680 1.425 . S
C1685 C1682 1.409 . S
C1685 C1683 1.415 . S
C1686 H1676 0.930 . S
C1686 C1684 1.419 . S
C1686 C1687 1.362 . S
C1687 H1677 0.930 . S
C1687 C1680 1.409 . S
C1687 C1686 1.362 . S
H1688 C1694 0.930 . S
H1689 C1697 0.930 . S
H1690 C1698 0.930 . S
H1691 C1699 0.930 . S
H1692 C1702 0.930 . S
H1693 C1703 0.930 . S
C1694 H1688 0.930 . S
C1694 C1695 1.355 . S
C1694 C1696 1.415 . S
C1695 C1694 1.355 . S
C1695 C1697 1.419 . S
C1696 C1694 1.415 . S
C1696 C1701 1.425 . S
C1696 C1703 1.409 . S
C1697 H1689 0.930 . S
C1697 C1695 1.419 . S
C1697 C1698 1.362 . S
C1698 H1690 0.930 . S
C1698 C1697 1.362 . S
C1698 C1701 1.409 . S
C1699 H1691 0.930 . S
C1699 C1700 1.355 . S
C1699 C1701 1.415 . S
C1700 C1699 1.355 . S
C1700 C1702 1.419 . S
C1701 C1696 1.425 . S
C1701 C1698 1.409 . S
C1701 C1699 1.415 . S
C1702 H1692 0.930 . S
C1702 C1700 1.419 . S
C1702 C1703 1.362 . S
C1703 H1693 0.930 . S
C1703 C1696 1.409 . S
C1703 C1702 1.362 . S
H1704 C1710 0.930 . S
H1705 C1713 0.930 . S
H1706 C1714 0.930 . S
H1707 C1715 0.930 . S
H1708 C1718 0.930 . S
H1709 C1719 0.930 . S
C1710 H1704 0.930 . S
C1710 C1711 1.355 . S
C1710 C1712 1.415 . S
C1711 C1710 1.355 . S
C1711 C1713 1.419 . S
C1712 C1710 1.415 . S
C1712 C1717 1.425 . S
C1712 C1719 1.409 . S
C1713 H1705 0.930 . S
C1713 C1711 1.419 . S
C1713 C1714 1.362 . S
C1714 H1706 0.930 . S
C1714 C1713 1.362 . S
C1714 C1717 1.409 . S
C1715 H1707 0.930 . S
C1715 C1716 1.355 . S
C1715 C1717 1.415 . S
C1716 C1715 1.355 . S
C1716 C1718 1.419 . S
C1717 C1712 1.425 . S
C1717 C1714 1.409 . S
C1717 C1715 1.415 . S
C1718 H1708 0.930 . S
C1718 C1716 1.419 . S
C1718 C1719 1.362 . S
C1719 H1709 0.930 . S
C1719 C1712 1.409 . S
C1719 C1718 1.362 . S
H1720 C1726 0.930 . S
H1721 C1729 0.930 . S
H1722 C1730 0.930 . S
H1723 C1731 0.930 . S
H1724 C1734 0.930 . S
H1725 C1735 0.930 . S
C1726 H1720 0.930 . S
C1726 C1727 1.355 . S
C1726 C1728 1.415 . S
C1727 C1726 1.355 . S
C1727 C1729 1.419 . S
C1728 C1726 1.415 . S
C1728 C1733 1.425 . S
C1728 C1735 1.409 . S
C1729 H1721 0.930 . S
C1729 C1727 1.419 . S
C1729 C1730 1.362 . S
C1730 H1722 0.930 . S
C1730 C1729 1.362 . S
C1730 C1733 1.409 . S
C1731 H1723 0.930 . S
C1731 C1732 1.355 . S
C1731 C1733 1.415 . S
C1732 C1731 1.355 . S
C1732 C1734 1.419 . S
C1733 C1728 1.425 . S
C1733 C1730 1.409 . S
C1733 C1731 1.415 . S
C1734 H1724 0.930 . S
C1734 C1732 1.419 . S
C1734 C1735 1.362 . S
C1735 H1725 0.930 . S
C1735 C1728 1.409 . S
C1735 C1734 1.362 . S
H1736 C1742 0.930 . S
H1737 C1745 0.930 . S
H1738 C1746 0.930 . S
H1739 C1747 0.930 . S
H1740 C1750 0.930 . S
H1741 C1751 0.930 . S
C1742 H1736 0.930 . S
C1742 C1743 1.355 . S
C1742 C1744 1.415 . S
C1743 C1742 1.355 . S
C1743 C1745 1.419 . S
C1744 C1742 1.415 . S
C1744 C1749 1.425 . S
C1744 C1751 1.409 . S
C1745 H1737 0.930 . S
C1745 C1743 1.419 . S
C1745 C1746 1.362 . S
C1746 H1738 0.930 . S
C1746 C1745 1.362 . S
C1746 C1749 1.409 . S
C1747 H1739 0.930 . S
C1747 C1748 1.355 . S
C1747 C1749 1.415 . S
C1748 C1747 1.355 . S
C1748 C1750 1.419 . S
C1749 C1744 1.425 . S
C1749 C1746 1.409 . S
C1749 C1747 1.415 . S
C1750 H1740 0.930 . S
C1750 C1748 1.419 . S
C1750 C1751 1.362 . S
C1751 H1741 0.930 . S
C1751 C1744 1.409 . S
C1751 C1750 1.362 . S
H1752 C1758 0.930 . S
H1753 C1761 0.930 . S
H1754 C1762 0.930 . S
H1755 C1763 0.929 . S
H1756 C1766 0.930 . S
H1757 C1767 0.930 . S
C1758 H1752 0.930 . S
C1758 C1759 1.355 . S
C1758 C1760 1.415 . S
C1759 C1758 1.355 . S
C1759 C1761 1.419 1_455 S
C1760 C1758 1.415 . S
C1760 C1765 1.425 . S
C1760 C1767 1.409 . S
C1761 H1753 0.930 . S
C1761 C1759 1.419 1_655 S
C1761 C1762 1.362 . S
C1762 H1754 0.930 . S
C1762 C1761 1.362 . S
C1762 C1765 1.409 1_655 S
C1763 H1755 0.929 . S
C1763 C1764 1.355 . S
C1763 C1765 1.415 1_554 S
C1764 C1763 1.355 . S
C1764 C1766 1.419 . S
C1765 C1760 1.425 . S
C1765 C1762 1.409 1_455 S
C1765 C1763 1.415 1_556 S
C1766 H1756 0.930 . S
C1766 C1764 1.419 . S
C1766 C1767 1.362 1_554 S
C1767 H1757 0.930 . S
C1767 C1760 1.409 . S
C1767 C1766 1.362 1_556 S
H1768 C1774 0.930 . S
H1769 C1777 0.930 . S
H1770 C1778 0.930 . S
H1771 C1779 0.930 . S
H1772 C1782 0.930 . S
H1773 C1783 0.930 . S
C1774 H1768 0.930 . S
C1774 C1775 1.355 . S
C1774 C1776 1.415 1_455 S
C1775 C1774 1.355 . S
C1775 C1777 1.419 . S
C1776 C1774 1.415 1_655 S
C1776 C1781 1.425 . S
C1776 C1783 1.409 . S
C1777 H1769 0.930 . S
C1777 C1775 1.419 . S
C1777 C1778 1.362 . S
C1778 H1770 0.930 . S
C1778 C1777 1.362 . S
C1778 C1781 1.409 1_455 S
C1779 H1771 0.930 . S
C1779 C1780 1.355 . S
C1779 C1781 1.415 . S
C1780 C1779 1.355 . S
C1780 C1782 1.419 . S
C1781 C1776 1.425 . S
C1781 C1778 1.409 1_655 S
C1781 C1779 1.415 . S
C1782 H1772 0.930 . S
C1782 C1780 1.419 . S
C1782 C1783 1.362 . S
C1783 H1773 0.930 . S
C1783 C1776 1.409 . S
C1783 C1782 1.362 . S
H1784 C1790 0.930 . S
H1785 C1793 0.930 . S
H1786 C1794 0.930 . S
H1787 C1795 0.930 . S
H1788 C1798 0.930 . S
H1789 C1799 0.930 . S
C1790 H1784 0.930 . S
C1790 C1791 1.355 . S
C1790 C1792 1.415 . S
C1791 C1790 1.355 . S
C1791 C1793 1.419 . S
C1792 C1790 1.415 . S
C1792 C1797 1.425 . S
C1792 C1799 1.409 . S
C1793 H1785 0.930 . S
C1793 C1791 1.419 . S
C1793 C1794 1.362 . S
C1794 H1786 0.930 . S
C1794 C1793 1.362 . S
C1794 C1797 1.409 . S
C1795 H1787 0.930 . S
C1795 C1796 1.355 . S
C1795 C1797 1.415 . S
C1796 C1795 1.355 . S
C1796 C1798 1.419 . S
C1797 C1792 1.425 . S
C1797 C1794 1.409 . S
C1797 C1795 1.415 . S
C1798 H1788 0.930 . S
C1798 C1796 1.419 . S
C1798 C1799 1.362 . S
C1799 H1789 0.930 . S
C1799 C1792 1.409 . S
C1799 C1798 1.362 . S
H1800 C1806 0.930 . S
H1801 C1809 0.930 . S
H1802 C1810 0.930 . S
H1803 C1811 0.930 . S
H1804 C1814 0.930 . S
H1805 C1815 0.930 . S
C1806 H1800 0.930 . S
C1806 C1807 1.355 . S
C1806 C1808 1.415 . S
C1807 C1806 1.355 . S
C1807 C1809 1.419 . S
C1808 C1806 1.415 . S
C1808 C1813 1.425 . S
C1808 C1815 1.409 1_455 S
C1809 H1801 0.930 . S
C1809 C1807 1.419 . S
C1809 C1810 1.362 . S
C1810 H1802 0.930 . S
C1810 C1809 1.362 . S
C1810 C1813 1.409 . S
C1811 H1803 0.930 . S
C1811 C1812 1.355 1_455 S
C1811 C1813 1.415 . S
C1812 C1811 1.355 1_655 S
C1812 C1814 1.419 . S
C1813 C1808 1.425 . S
C1813 C1810 1.409 . S
C1813 C1811 1.415 . S
C1814 H1804 0.930 . S
C1814 C1812 1.419 . S
C1814 C1815 1.362 . S
C1815 H1805 0.930 . S
C1815 C1808 1.409 1_655 S
C1815 C1814 1.362 . S
H1816 C1822 0.930 . S
H1817 C1825 0.930 . S
H1818 C1826 0.930 . S
H1819 C1827 0.930 . S
H1820 C1830 0.930 1_655 S
H1821 C1831 0.930 . S
C1822 H1816 0.930 . S
C1822 C1823 1.355 . S
C1822 C1824 1.415 . S
C1823 C1822 1.355 . S
C1823 C1825 1.419 1_655 S
C1824 C1822 1.415 . S
C1824 C1829 1.425 1_655 S
C1824 C1831 1.409 . S
C1825 H1817 0.930 . S
C1825 C1823 1.419 1_455 S
C1825 C1826 1.362 . S
C1826 H1818 0.930 . S
C1826 C1825 1.362 . S
C1826 C1829 1.409 . S
C1827 H1819 0.930 . S
C1827 C1828 1.355 . S
C1827 C1829 1.415 . S
C1828 C1827 1.355 . S
C1828 C1830 1.419 . S
C1829 C1824 1.425 1_455 S
C1829 C1826 1.409 . S
C1829 C1827 1.415 . S
C1830 H1820 0.930 1_455 S
C1830 C1828 1.419 . S
C1830 C1831 1.362 1_455 S
C1831 H1821 0.930 . S
C1831 C1824 1.409 . S
C1831 C1830 1.362 1_655 S
H1832 C1838 0.930 . S
H1833 C1841 0.930 . S
H1834 C1842 0.930 . S
H1835 C1843 0.930 . S
H1836 C1846 0.930 . S
H1837 C1847 0.930 . S
C1838 H1832 0.930 . S
C1838 C1839 1.355 . S
C1838 C1840 1.415 . S
C1839 C1838 1.355 . S
C1839 C1841 1.419 . S
C1840 C1838 1.415 . S
C1840 C1845 1.425 . S
C1840 C1847 1.409 . S
C1841 H1833 0.930 . S
C1841 C1839 1.419 . S
C1841 C1842 1.362 . S
C1842 H1834 0.930 . S
C1842 C1841 1.362 . S
C1842 C1845 1.409 . S
C1843 H1835 0.930 . S
C1843 C1844 1.355 . S
C1843 C1845 1.415 . S
C1844 C1843 1.355 . S
C1844 C1846 1.419 . S
C1845 C1840 1.425 . S
C1845 C1842 1.409 . S
C1845 C1843 1.415 . S
C1846 H1836 0.930 . S
C1846 C1844 1.419 . S
C1846 C1847 1.362 . S
C1847 H1837 0.930 . S
C1847 C1840 1.409 . S
C1847 C1846 1.362 . S
H1848 C1854 0.930 . S
H1849 C1857 0.930 . S
H1850 C1858 0.930 . S
H1851 C1859 0.930 . S
H1852 C1862 0.930 . S
H1853 C1863 0.930 . S
C1854 H1848 0.930 . S
C1854 C1855 1.355 . S
C1854 C1856 1.415 . S
C1855 C1854 1.355 . S
C1855 C1857 1.419 . S
C1856 C1854 1.415 . S
C1856 C1861 1.425 . S
C1856 C1863 1.409 . S
C1857 H1849 0.930 . S
C1857 C1855 1.419 . S
C1857 C1858 1.362 . S
C1858 H1850 0.930 . S
C1858 C1857 1.362 . S
C1858 C1861 1.409 . S
C1859 H1851 0.930 . S
C1859 C1860 1.355 . S
C1859 C1861 1.415 . S
C1860 C1859 1.355 . S
C1860 C1862 1.419 . S
C1861 C1856 1.425 . S
C1861 C1858 1.409 . S
C1861 C1859 1.415 . S
C1862 H1852 0.930 . S
C1862 C1860 1.419 . S
C1862 C1863 1.362 . S
C1863 H1853 0.930 . S
C1863 C1856 1.409 . S
C1863 C1862 1.362 . S
H1864 C1870 0.930 . S
H1865 C1873 0.930 . S
H1866 C1874 0.930 . S
H1867 C1875 0.930 . S
H1868 C1878 0.930 . S
H1869 C1879 0.930 . S
C1870 H1864 0.930 . S
C1870 C1871 1.355 . S
C1870 C1872 1.415 . S
C1871 C1870 1.355 . S
C1871 C1873 1.419 . S
C1872 C1870 1.415 . S
C1872 C1877 1.425 . S
C1872 C1879 1.409 . S
C1873 H1865 0.930 . S
C1873 C1871 1.419 . S
C1873 C1874 1.362 . S
C1874 H1866 0.930 . S
C1874 C1873 1.362 . S
C1874 C1877 1.409 . S
C1875 H1867 0.930 . S
C1875 C1876 1.355 . S
C1875 C1877 1.415 . S
C1876 C1875 1.355 . S
C1876 C1878 1.419 . S
C1877 C1872 1.425 . S
C1877 C1874 1.409 . S
C1877 C1875 1.415 . S
C1878 H1868 0.930 . S
C1878 C1876 1.419 . S
C1878 C1879 1.362 . S
C1879 H1869 0.930 . S
C1879 C1872 1.409 . S
C1879 C1878 1.362 . S
H1880 C1886 0.930 . S
H1881 C1889 0.930 . S
H1882 C1890 0.930 . S
H1883 C1891 0.930 . S
H1884 C1894 0.930 . S
H1885 C1895 0.930 . S
C1886 H1880 0.930 . S
C1886 C1887 1.355 . S
C1886 C1888 1.415 . S
C1887 C1886 1.355 . S
C1887 C1889 1.419 . S
C1888 C1886 1.415 . S
C1888 C1893 1.425 . S
C1888 C1895 1.409 . S
C1889 H1881 0.930 . S
C1889 C1887 1.419 . S
C1889 C1890 1.362 . S
C1890 H1882 0.930 . S
C1890 C1889 1.362 . S
C1890 C1893 1.409 . S
C1891 H1883 0.930 . S
C1891 C1892 1.355 . S
C1891 C1893 1.415 . S
C1892 C1891 1.355 . S
C1892 C1894 1.419 . S
C1893 C1888 1.425 . S
C1893 C1890 1.409 . S
C1893 C1891 1.415 . S
C1894 H1884 0.930 . S
C1894 C1892 1.419 . S
C1894 C1895 1.362 . S
C1895 H1885 0.930 . S
C1895 C1888 1.409 . S
C1895 C1894 1.362 . S
H1896 C1902 0.930 . S
H1897 C1905 0.930 . S
H1898 C1906 0.930 . S
H1899 C1907 0.930 . S
H1900 C1910 0.930 . S
H1901 C1911 0.930 . S
C1902 H1896 0.930 . S
C1902 C1903 1.355 . S
C1902 C1904 1.415 . S
C1903 C1902 1.355 . S
C1903 C1905 1.419 . S
C1904 C1902 1.415 . S
C1904 C1909 1.425 . S
C1904 C1911 1.409 . S
C1905 H1897 0.930 . S
C1905 C1903 1.419 . S
C1905 C1906 1.362 . S
C1906 H1898 0.930 . S
C1906 C1905 1.362 . S
C1906 C1909 1.409 . S
C1907 H1899 0.930 . S
C1907 C1908 1.355 . S
C1907 C1909 1.415 . S
C1908 C1907 1.355 . S
C1908 C1910 1.419 . S
C1909 C1904 1.425 . S
C1909 C1906 1.409 . S
C1909 C1907 1.415 . S
C1910 H1900 0.930 . S
C1910 C1908 1.419 . S
C1910 C1911 1.362 . S
C1911 H1901 0.930 . S
C1911 C1904 1.409 . S
C1911 C1910 1.362 . S
H1912 C1918 0.930 . S
H1913 C1921 0.930 . S
H1914 C1922 0.930 . S
H1915 C1923 0.930 . S
H1916 C1926 0.930 . S
H1917 C1927 0.930 . S
C1918 H1912 0.930 . S
C1918 C1919 1.355 . S
C1918 C1920 1.415 . S
C1919 C1918 1.355 . S
C1919 C1921 1.419 . S
C1920 C1918 1.415 . S
C1920 C1925 1.425 . S
C1920 C1927 1.409 . S
C1921 H1913 0.930 . S
C1921 C1919 1.419 . S
C1921 C1922 1.362 . S
C1922 H1914 0.930 . S
C1922 C1921 1.362 . S
C1922 C1925 1.409 . S
C1923 H1915 0.930 . S
C1923 C1924 1.355 . S
C1923 C1925 1.415 . S
C1924 C1923 1.355 . S
C1924 C1926 1.419 . S
C1925 C1920 1.425 . S
C1925 C1922 1.409 . S
C1925 C1923 1.415 . S
C1926 H1916 0.930 . S
C1926 C1924 1.419 . S
C1926 C1927 1.362 . S
C1927 H1917 0.930 . S
C1927 C1920 1.409 . S
C1927 C1926 1.362 . S
H1928 C1934 0.930 . S
H1929 C1937 0.930 . S
H1930 C1938 0.930 . S
H1931 C1939 0.930 . S
H1932 C1942 0.930 . S
H1933 C1943 0.930 . S
C1934 H1928 0.930 . S
C1934 C1935 1.355 . S
C1934 C1936 1.415 . S
C1935 C1934 1.355 . S
C1935 C1937 1.419 . S
C1936 C1934 1.415 . S
C1936 C1941 1.425 . S
C1936 C1943 1.409 . S
C1937 H1929 0.930 . S
C1937 C1935 1.419 . S
C1937 C1938 1.362 . S
C1938 H1930 0.930 . S
C1938 C1937 1.362 . S
C1938 C1941 1.409 . S
C1939 H1931 0.930 . S
C1939 C1940 1.355 . S
C1939 C1941 1.415 . S
C1940 C1939 1.355 . S
C1940 C1942 1.419 . S
C1941 C1936 1.425 . S
C1941 C1938 1.409 . S
C1941 C1939 1.415 . S
C1942 H1932 0.930 . S
C1942 C1940 1.419 . S
C1942 C1943 1.362 . S
C1943 H1933 0.930 . S
C1943 C1936 1.409 . S
C1943 C1942 1.362 . S
H1944 C1950 0.930 . S
H1945 C1953 0.930 . S
H1946 C1954 0.930 . S
H1947 C1955 0.930 . S
H1948 C1958 0.930 . S
H1949 C1959 0.930 . S
C1950 H1944 0.930 . S
C1950 C1951 1.355 . S
C1950 C1952 1.415 . S
C1951 C1950 1.355 . S
C1951 C1953 1.419 . S
C1952 C1950 1.415 . S
C1952 C1957 1.425 . S
C1952 C1959 1.409 . S
C1953 H1945 0.930 . S
C1953 C1951 1.419 . S
C1953 C1954 1.362 . S
C1954 H1946 0.930 . S
C1954 C1953 1.362 . S
C1954 C1957 1.409 . S
C1955 H1947 0.930 . S
C1955 C1956 1.355 . S
C1955 C1957 1.415 . S
C1956 C1955 1.355 . S
C1956 C1958 1.419 . S
C1957 C1952 1.425 . S
C1957 C1954 1.409 . S
C1957 C1955 1.415 . S
C1958 H1948 0.930 . S
C1958 C1956 1.419 . S
C1958 C1959 1.362 . S
C1959 H1949 0.930 . S
C1959 C1952 1.409 . S
C1959 C1958 1.362 . S
H1960 C1966 0.930 . S
H1961 C1969 0.930 . S
H1962 C1970 0.930 . S
H1963 C1971 0.930 . S
H1964 C1974 0.930 . S
H1965 C1975 0.930 . S
C1966 H1960 0.930 . S
C1966 C1967 1.355 . S
C1966 C1968 1.415 . S
C1967 C1966 1.355 . S
C1967 C1969 1.419 . S
C1968 C1966 1.415 . S
C1968 C1973 1.425 . S
C1968 C1975 1.409 . S
C1969 H1961 0.930 . S
C1969 C1967 1.419 . S
C1969 C1970 1.362 . S
C1970 H1962 0.930 . S
C1970 C1969 1.362 . S
C1970 C1973 1.409 . S
C1971 H1963 0.930 . S
C1971 C1972 1.355 . S
C1971 C1973 1.415 . S
C1972 C1971 1.355 . S
C1972 C1974 1.419 . S
C1973 C1968 1.425 . S
C1973 C1970 1.409 . S
C1973 C1971 1.415 . S
C1974 H1964 0.930 . S
C1974 C1972 1.419 . S
C1974 C1975 1.362 . S
C1975 H1965 0.930 . S
C1975 C1968 1.409 . S
C1975 C1974 1.362 . S
H1976 C1982 0.930 . S
H1977 C1985 0.930 . S
H1978 C1986 0.930 . S
H1979 C1987 0.930 . S
H1980 C1990 0.930 . S
H1981 C1991 0.930 . S
C1982 H1976 0.930 . S
C1982 C1983 1.355 . S
C1982 C1984 1.415 . S
C1983 C1982 1.355 . S
C1983 C1985 1.419 . S
C1984 C1982 1.415 . S
C1984 C1989 1.425 . S
C1984 C1991 1.409 . S
C1985 H1977 0.930 . S
C1985 C1983 1.419 . S
C1985 C1986 1.362 . S
C1986 H1978 0.930 . S
C1986 C1985 1.362 . S
C1986 C1989 1.409 . S
C1987 H1979 0.930 . S
C1987 C1988 1.355 . S
C1987 C1989 1.415 . S
C1988 C1987 1.355 . S
C1988 C1990 1.419 . S
C1989 C1984 1.425 . S
C1989 C1986 1.409 . S
C1989 C1987 1.415 . S
C1990 H1980 0.930 . S
C1990 C1988 1.419 . S
C1990 C1991 1.362 . S
C1991 H1981 0.930 . S
C1991 C1984 1.409 . S
C1991 C1990 1.362 . S
H1992 C1998 0.930 . S
H1993 C2001 0.930 . S
H1994 C2002 0.930 . S
H1995 C2003 0.930 . S
H1996 C2006 0.930 . S
H1997 C2007 0.930 . S
C1998 H1992 0.930 . S
C1998 C1999 1.355 . S
C1998 C2000 1.415 . S
C1999 C1998 1.355 . S
C1999 C2001 1.419 . S
C2000 C1998 1.415 . S
C2000 C2005 1.425 . S
C2000 C2007 1.409 . S
C2001 H1993 0.930 . S
C2001 C1999 1.419 . S
C2001 C2002 1.362 . S
C2002 H1994 0.930 . S
C2002 C2001 1.362 . S
C2002 C2005 1.409 . S
C2003 H1995 0.930 . S
C2003 C2004 1.355 . S
C2003 C2005 1.415 . S
C2004 C2003 1.355 . S
C2004 C2006 1.419 . S
C2005 C2000 1.425 . S
C2005 C2002 1.409 . S
C2005 C2003 1.415 . S
C2006 H1996 0.930 . S
C2006 C2004 1.419 . S
C2006 C2007 1.362 . S
C2007 H1997 0.930 . S
C2007 C2000 1.409 . S
C2007 C2006 1.362 . S
H2008 C2014 0.930 . S
H2009 C2017 0.930 . S
H2010 C2018 0.930 . S
H2011 C2019 0.930 . S
H2012 C2022 0.930 . S
H2013 C2023 0.930 . S
C2014 H2008 0.930 . S
C2014 C2015 1.355 . S
C2014 C2016 1.415 . S
C2015 C2014 1.355 . S
C2015 C2017 1.419 . S
C2016 C2014 1.415 . S
C2016 C2021 1.425 . S
C2016 C2023 1.409 . S
C2017 H2009 0.930 . S
C2017 C2015 1.419 . S
C2017 C2018 1.362 . S
C2018 H2010 0.930 . S
C2018 C2017 1.362 . S
C2018 C2021 1.409 . S
C2019 H2011 0.930 . S
C2019 C2020 1.355 . S
C2019 C2021 1.415 . S
C2020 C2019 1.355 . S
C2020 C2022 1.419 . S
C2021 C2016 1.425 . S
C2021 C2018 1.409 . S
C2021 C2019 1.415 . S
C2022 H2012 0.930 . S
C2022 C2020 1.419 . S
C2022 C2023 1.362 . S
C2023 H2013 0.930 . S
C2023 C2016 1.409 . S
C2023 C2022 1.362 . S
H2024 C2030 0.930 . S
H2025 C2033 0.930 . S
H2026 C2034 0.930 . S
H2027 C2035 0.930 1_565 S
H2028 C2038 0.930 . S
H2029 C2039 0.930 . S
C2030 H2024 0.930 . S
C2030 C2031 1.355 1_545 S
C2030 C2032 1.415 . S
C2031 C2030 1.355 1_565 S
C2031 C2033 1.419 1_554 S
C2032 C2030 1.415 . S
C2032 C2037 1.425 1_545 S
C2032 C2039 1.409 . S
C2033 H2025 0.930 . S
C2033 C2031 1.419 1_556 S
C2033 C2034 1.362 . S
C2034 H2026 0.930 . S
C2034 C2033 1.362 . S
C2034 C2037 1.409 1_556 S
C2035 H2027 0.930 1_545 S
C2035 C2036 1.355 1_556 S
C2035 C2037 1.415 1_546 S
C2036 C2035 1.355 1_554 S
C2036 C2038 1.419 . S
C2037 C2032 1.425 1_565 S
C2037 C2034 1.409 1_554 S
C2037 C2035 1.415 1_564 S
C2038 H2028 0.930 . S
C2038 C2036 1.419 . S
C2038 C2039 1.362 . S
C2039 H2029 0.930 . S
C2039 C2032 1.409 . S
C2039 C2038 1.362 . S
H2040 C2046 0.930 . S
H2041 C2049 0.930 . S
H2042 C2050 0.930 . S
H2043 C2051 0.930 . S
H2044 C2054 0.930 . S
H2045 C2055 0.930 . S
C2046 H2040 0.930 . S
C2046 C2047 1.355 . S
C2046 C2048 1.415 . S
C2047 C2046 1.355 . S
C2047 C2049 1.419 . S
C2048 C2046 1.415 . S
C2048 C2053 1.425 . S
C2048 C2055 1.409 . S
C2049 H2041 0.930 . S
C2049 C2047 1.419 . S
C2049 C2050 1.362 . S
C2050 H2042 0.930 . S
C2050 C2049 1.362 . S
C2050 C2053 1.409 . S
C2051 H2043 0.930 . S
C2051 C2052 1.355 . S
C2051 C2053 1.415 . S
C2052 C2051 1.355 . S
C2052 C2054 1.419 . S
C2053 C2048 1.425 . S
C2053 C2050 1.409 . S
C2053 C2051 1.415 . S
C2054 H2044 0.930 . S
C2054 C2052 1.419 . S
C2054 C2055 1.362 . S
C2055 H2045 0.930 . S
C2055 C2048 1.409 . S
C2055 C2054 1.362 . S
H2056 C2062 0.930 . S
H2057 C2065 0.930 . S
H2058 C2066 0.930 . S
H2059 C2067 0.930 . S
H2060 C2070 0.930 . S
H2061 C2071 0.930 . S
C2062 H2056 0.930 . S
C2062 C2063 1.355 . S
C2062 C2064 1.415 . S
C2063 C2062 1.355 . S
C2063 C2065 1.419 . S
C2064 C2062 1.415 . S
C2064 C2069 1.425 . S
C2064 C2071 1.409 . S
C2065 H2057 0.930 . S
C2065 C2063 1.419 . S
C2065 C2066 1.362 . S
C2066 H2058 0.930 . S
C2066 C2065 1.362 . S
C2066 C2069 1.409 . S
C2067 H2059 0.930 . S
C2067 C2068 1.355 . S
C2067 C2069 1.415 . S
C2068 C2067 1.355 . S
C2068 C2070 1.419 . S
C2069 C2064 1.425 . S
C2069 C2066 1.409 . S
C2069 C2067 1.415 . S
C2070 H2060 0.930 . S
C2070 C2068 1.419 . S
C2070 C2071 1.362 . S
C2071 H2061 0.930 . S
C2071 C2064 1.409 . S
C2071 C2070 1.362 . S
H2072 C2078 0.930 . S
H2073 C2081 0.930 . S
H2074 C2082 0.930 . S
H2075 C2083 0.930 . S
H2076 C2086 0.930 . S
H2077 C2087 0.930 . S
C2078 H2072 0.930 . S
C2078 C2079 1.355 . S
C2078 C2080 1.415 . S
C2079 C2078 1.355 . S
C2079 C2081 1.419 . S
C2080 C2078 1.415 . S
C2080 C2085 1.425 . S
C2080 C2087 1.409 . S
C2081 H2073 0.930 . S
C2081 C2079 1.419 . S
C2081 C2082 1.362 . S
C2082 H2074 0.930 . S
C2082 C2081 1.362 . S
C2082 C2085 1.409 . S
C2083 H2075 0.930 . S
C2083 C2084 1.355 . S
C2083 C2085 1.415 . S
C2084 C2083 1.355 . S
C2084 C2086 1.419 . S
C2085 C2080 1.425 . S
C2085 C2082 1.409 . S
C2085 C2083 1.415 . S
C2086 H2076 0.930 . S
C2086 C2084 1.419 . S
C2086 C2087 1.362 . S
C2087 H2077 0.930 . S
C2087 C2080 1.409 . S
C2087 C2086 1.362 . S
H2088 C2094 0.930 . S
H2089 C2097 0.930 . S
H2090 C2098 0.930 . S
H2091 C2099 0.930 . S
H2092 C2102 0.930 . S
H2093 C2103 0.930 . S
C2094 H2088 0.930 . S
C2094 C2095 1.355 . S
C2094 C2096 1.415 . S
C2095 C2094 1.355 . S
C2095 C2097 1.419 . S
C2096 C2094 1.415 . S
C2096 C2101 1.425 . S
C2096 C2103 1.409 . S
C2097 H2089 0.930 . S
C2097 C2095 1.419 . S
C2097 C2098 1.362 . S
C2098 H2090 0.930 . S
C2098 C2097 1.362 . S
C2098 C2101 1.409 . S
C2099 H2091 0.930 . S
C2099 C2100 1.355 . S
C2099 C2101 1.415 . S
C2100 C2099 1.355 . S
C2100 C2102 1.419 . S
C2101 C2096 1.425 . S
C2101 C2098 1.409 . S
C2101 C2099 1.415 . S
C2102 H2092 0.930 . S
C2102 C2100 1.419 . S
C2102 C2103 1.362 . S
C2103 H2093 0.930 . S
C2103 C2096 1.409 . S
C2103 C2102 1.362 . S
H2104 C2110 0.930 . S
H2105 C2113 0.930 . S
H2106 C2114 0.930 . S
H2107 C2115 0.930 . S
H2108 C2118 0.930 . S
H2109 C2119 0.930 . S
C2110 H2104 0.930 . S
C2110 C2111 1.355 . S
C2110 C2112 1.415 . S
C2111 C2110 1.355 . S
C2111 C2113 1.419 . S
C2112 C2110 1.415 . S
C2112 C2117 1.425 . S
C2112 C2119 1.409 . S
C2113 H2105 0.930 . S
C2113 C2111 1.419 . S
C2113 C2114 1.362 . S
C2114 H2106 0.930 . S
C2114 C2113 1.362 . S
C2114 C2117 1.409 . S
C2115 H2107 0.930 . S
C2115 C2116 1.355 . S
C2115 C2117 1.415 . S
C2116 C2115 1.355 . S
C2116 C2118 1.419 . S
C2117 C2112 1.425 . S
C2117 C2114 1.409 . S
C2117 C2115 1.415 . S
C2118 H2108 0.930 . S
C2118 C2116 1.419 . S
C2118 C2119 1.362 . S
C2119 H2109 0.930 . S
C2119 C2112 1.409 . S
C2119 C2118 1.362 . S
H2120 C2126 0.930 . S
H2121 C2129 0.930 . S
H2122 C2130 0.930 . S
H2123 C2131 0.930 . S
H2124 C2134 0.930 . S
H2125 C2135 0.930 . S
C2126 H2120 0.930 . S
C2126 C2127 1.355 . S
C2126 C2128 1.415 . S
C2127 C2126 1.355 . S
C2127 C2129 1.419 . S
C2128 C2126 1.415 . S
C2128 C2133 1.425 . S
C2128 C2135 1.409 . S
C2129 H2121 0.930 . S
C2129 C2127 1.419 . S
C2129 C2130 1.362 . S
C2130 H2122 0.930 . S
C2130 C2129 1.362 . S
C2130 C2133 1.409 . S
C2131 H2123 0.930 . S
C2131 C2132 1.355 . S
C2131 C2133 1.415 . S
C2132 C2131 1.355 . S
C2132 C2134 1.419 . S
C2133 C2128 1.425 . S
C2133 C2130 1.409 . S
C2133 C2131 1.415 . S
C2134 H2124 0.930 . S
C2134 C2132 1.419 . S
C2134 C2135 1.362 . S
C2135 H2125 0.930 . S
C2135 C2128 1.409 . S
C2135 C2134 1.362 . S
H2136 C2142 0.930 . S
H2137 C2145 0.930 . S
H2138 C2146 0.930 . S
H2139 C2147 0.930 . S
H2140 C2150 0.930 . S
H2141 C2151 0.930 . S
C2142 H2136 0.930 . S
C2142 C2143 1.355 . S
C2142 C2144 1.415 . S
C2143 C2142 1.355 . S
C2143 C2145 1.419 . S
C2144 C2142 1.415 . S
C2144 C2149 1.425 . S
C2144 C2151 1.409 . S
C2145 H2137 0.930 . S
C2145 C2143 1.419 . S
C2145 C2146 1.362 . S
C2146 H2138 0.930 . S
C2146 C2145 1.362 . S
C2146 C2149 1.409 . S
C2147 H2139 0.930 . S
C2147 C2148 1.355 . S
C2147 C2149 1.415 . S
C2148 C2147 1.355 . S
C2148 C2150 1.419 . S
C2149 C2144 1.425 . S
C2149 C2146 1.409 . S
C2149 C2147 1.415 . S
C2150 H2140 0.930 . S
C2150 C2148 1.419 . S
C2150 C2151 1.362 . S
C2151 H2141 0.930 . S
C2151 C2144 1.409 . S
C2151 C2150 1.362 . S
H2152 C2158 0.930 . S
H2153 C2161 0.930 . S
H2154 C2162 0.930 . S
H2155 C2163 0.930 . S
H2156 C2166 0.930 . S
H2157 C2167 0.930 . S
C2158 H2152 0.930 . S
C2158 C2159 1.355 . S
C2158 C2160 1.415 . S
C2159 C2158 1.355 . S
C2159 C2161 1.419 . S
C2160 C2158 1.415 . S
C2160 C2165 1.425 . S
C2160 C2167 1.409 . S
C2161 H2153 0.930 . S
C2161 C2159 1.419 . S
C2161 C2162 1.362 . S
C2162 H2154 0.930 . S
C2162 C2161 1.362 . S
C2162 C2165 1.409 . S
C2163 H2155 0.930 . S
C2163 C2164 1.355 . S
C2163 C2165 1.415 . S
C2164 C2163 1.355 . S
C2164 C2166 1.419 . S
C2165 C2160 1.425 . S
C2165 C2162 1.409 . S
C2165 C2163 1.415 . S
C2166 H2156 0.930 . S
C2166 C2164 1.419 . S
C2166 C2167 1.362 . S
C2167 H2157 0.930 . S
C2167 C2160 1.409 . S
C2167 C2166 1.362 . S
H2168 C2174 0.930 . S
H2169 C2177 0.930 . S
H2170 C2178 0.930 . S
H2171 C2179 0.930 . S
H2172 C2182 0.930 . S
H2173 C2183 0.930 . S
C2174 H2168 0.930 . S
C2174 C2175 1.355 . S
C2174 C2176 1.415 . S
C2175 C2174 1.355 . S
C2175 C2177 1.419 . S
C2176 C2174 1.415 . S
C2176 C2181 1.425 . S
C2176 C2183 1.409 . S
C2177 H2169 0.930 . S
C2177 C2175 1.419 . S
C2177 C2178 1.362 . S
C2178 H2170 0.930 . S
C2178 C2177 1.362 . S
C2178 C2181 1.409 . S
C2179 H2171 0.930 . S
C2179 C2180 1.355 . S
C2179 C2181 1.415 . S
C2180 C2179 1.355 . S
C2180 C2182 1.419 . S
C2181 C2176 1.425 . S
C2181 C2178 1.409 . S
C2181 C2179 1.415 . S
C2182 H2172 0.930 . S
C2182 C2180 1.419 . S
C2182 C2183 1.362 . S
C2183 H2173 0.930 . S
C2183 C2176 1.409 . S
C2183 C2182 1.362 . S
H2184 C2190 0.930 . S
H2185 C2193 0.930 . S
H2186 C2194 0.930 . S
H2187 C2195 0.930 . S
H2188 C2198 0.930 . S
H2189 C2199 0.930 . S
C2190 H2184 0.930 . S
C2190 C2191 1.355 . S
C2190 C2192 1.415 . S
C2191 C2190 1.355 . S
C2191 C2193 1.419 . S
C2192 C2190 1.415 . S
C2192 C2197 1.425 . S
C2192 C2199 1.409 . S
C2193 H2185 0.930 . S
C2193 C2191 1.419 . S
C2193 C2194 1.362 . S
C2194 H2186 0.930 . S
C2194 C2193 1.362 . S
C2194 C2197 1.409 . S
C2195 H2187 0.930 . S
C2195 C2196 1.355 . S
C2195 C2197 1.415 . S
C2196 C2195 1.355 . S
C2196 C2198 1.419 . S
C2197 C2192 1.425 . S
C2197 C2194 1.409 . S
C2197 C2195 1.415 . S
C2198 H2188 0.930 . S
C2198 C2196 1.419 . S
C2198 C2199 1.362 . S
C2199 H2189 0.930 . S
C2199 C2192 1.409 . S
C2199 C2198 1.362 . S
H2200 C2206 0.930 . S
H2201 C2209 0.930 . S
H2202 C2210 0.930 . S
H2203 C2211 0.930 . S
H2204 C2214 0.930 . S
H2205 C2215 0.930 . S
C2206 H2200 0.930 . S
C2206 C2207 1.355 . S
C2206 C2208 1.415 . S
C2207 C2206 1.355 . S
C2207 C2209 1.419 . S
C2208 C2206 1.415 . S
C2208 C2213 1.425 . S
C2208 C2215 1.409 . S
C2209 H2201 0.930 . S
C2209 C2207 1.419 . S
C2209 C2210 1.362 . S
C2210 H2202 0.930 . S
C2210 C2209 1.362 . S
C2210 C2213 1.409 . S
C2211 H2203 0.930 . S
C2211 C2212 1.355 . S
C2211 C2213 1.415 . S
C2212 C2211 1.355 . S
C2212 C2214 1.419 . S
C2213 C2208 1.425 . S
C2213 C2210 1.409 . S
C2213 C2211 1.415 . S
C2214 H2204 0.930 . S
C2214 C2212 1.419 . S
C2214 C2215 1.362 . S
C2215 H2205 0.930 . S
C2215 C2208 1.409 . S
C2215 C2214 1.362 . S
H2216 C2222 0.930 . S
H2217 C2225 0.930 . S
H2218 C2226 0.930 . S
H2219 C2227 0.930 . S
H2220 C2230 0.930 . S
H2221 C2231 0.930 . S
C2222 H2216 0.930 . S
C2222 C2223 1.355 . S
C2222 C2224 1.415 . S
C2223 C2222 1.355 . S
C2223 C2225 1.419 . S
C2224 C2222 1.415 . S
C2224 C2229 1.425 . S
C2224 C2231 1.409 . S
C2225 H2217 0.930 . S
C2225 C2223 1.419 . S
C2225 C2226 1.362 . S
C2226 H2218 0.930 . S
C2226 C2225 1.362 . S
C2226 C2229 1.409 . S
C2227 H2219 0.930 . S
C2227 C2228 1.355 . S
C2227 C2229 1.415 . S
C2228 C2227 1.355 . S
C2228 C2230 1.419 . S
C2229 C2224 1.425 . S
C2229 C2226 1.409 . S
C2229 C2227 1.415 . S
C2230 H2220 0.930 . S
C2230 C2228 1.419 . S
C2230 C2231 1.362 . S
C2231 H2221 0.930 . S
C2231 C2224 1.409 . S
C2231 C2230 1.362 . S
H2232 C2238 0.930 . S
H2233 C2241 0.930 . S
H2234 C2242 0.930 . S
H2235 C2243 0.930 . S
H2236 C2246 0.930 . S
H2237 C2247 0.930 . S
C2238 H2232 0.930 . S
C2238 C2239 1.355 . S
C2238 C2240 1.415 . S
C2239 C2238 1.355 . S
C2239 C2241 1.419 . S
C2240 C2238 1.415 . S
C2240 C2245 1.425 . S
C2240 C2247 1.409 . S
C2241 H2233 0.930 . S
C2241 C2239 1.419 . S
C2241 C2242 1.362 . S
C2242 H2234 0.930 . S
C2242 C2241 1.362 . S
C2242 C2245 1.409 . S
C2243 H2235 0.930 . S
C2243 C2244 1.355 . S
C2243 C2245 1.415 . S
C2244 C2243 1.355 . S
C2244 C2246 1.419 . S
C2245 C2240 1.425 . S
C2245 C2242 1.409 . S
C2245 C2243 1.415 . S
C2246 H2236 0.930 . S
C2246 C2244 1.419 . S
C2246 C2247 1.362 . S
C2247 H2237 0.930 . S
C2247 C2240 1.409 . S
C2247 C2246 1.362 . S
H2248 C2254 0.930 . S
H2249 C2257 0.930 . S
H2250 C2258 0.930 . S
H2251 C2259 0.930 . S
H2252 C2262 0.930 . S
H2253 C2263 0.930 . S
C2254 H2248 0.930 . S
C2254 C2255 1.355 . S
C2254 C2256 1.415 . S
C2255 C2254 1.355 . S
C2255 C2257 1.419 . S
C2256 C2254 1.415 . S
C2256 C2261 1.425 . S
C2256 C2263 1.409 . S
C2257 H2249 0.930 . S
C2257 C2255 1.419 . S
C2257 C2258 1.362 . S
C2258 H2250 0.930 . S
C2258 C2257 1.362 . S
C2258 C2261 1.409 . S
C2259 H2251 0.930 . S
C2259 C2260 1.355 . S
C2259 C2261 1.415 . S
C2260 C2259 1.355 . S
C2260 C2262 1.419 . S
C2261 C2256 1.425 . S
C2261 C2258 1.409 . S
C2261 C2259 1.415 . S
C2262 H2252 0.930 . S
C2262 C2260 1.419 . S
C2262 C2263 1.362 . S
C2263 H2253 0.930 . S
C2263 C2256 1.409 . S
C2263 C2262 1.362 . S
H2264 C2270 0.930 . S
H2265 C2273 0.930 . S
H2266 C2274 0.930 . S
H2267 C2275 0.930 . S
H2268 C2278 0.930 . S
H2269 C2279 0.930 . S
C2270 H2264 0.930 . S
C2270 C2271 1.355 . S
C2270 C2272 1.415 . S
C2271 C2270 1.355 . S
C2271 C2273 1.419 . S
C2272 C2270 1.415 . S
C2272 C2277 1.425 . S
C2272 C2279 1.409 . S
C2273 H2265 0.930 . S
C2273 C2271 1.419 . S
C2273 C2274 1.362 . S
C2274 H2266 0.930 . S
C2274 C2273 1.362 . S
C2274 C2277 1.409 . S
C2275 H2267 0.930 . S
C2275 C2276 1.355 1_655 S
C2275 C2277 1.415 . S
C2276 C2275 1.355 1_455 S
C2276 C2278 1.419 . S
C2277 C2272 1.425 . S
C2277 C2274 1.409 . S
C2277 C2275 1.415 . S
C2278 H2268 0.930 . S
C2278 C2276 1.419 . S
C2278 C2279 1.362 1_455 S
C2279 H2269 0.930 . S
C2279 C2272 1.409 . S
C2279 C2278 1.362 1_655 S
H2280 C2286 0.930 . S
H2281 C2289 0.930 . S
H2282 C2290 0.930 . S
H2283 C2291 0.930 . S
H2284 C2294 0.930 . S
H2285 C2295 0.930 . S
C2286 H2280 0.930 . S
C2286 C2287 1.355 . S
C2286 C2288 1.415 . S
C2287 C2286 1.355 . S
C2287 C2289 1.419 . S
C2288 C2286 1.415 . S
C2288 C2293 1.425 . S
C2288 C2295 1.409 . S
C2289 H2281 0.930 . S
C2289 C2287 1.419 . S
C2289 C2290 1.362 . S
C2290 H2282 0.930 . S
C2290 C2289 1.362 . S
C2290 C2293 1.409 . S
C2291 H2283 0.930 . S
C2291 C2292 1.355 . S
C2291 C2293 1.415 . S
C2292 C2291 1.355 . S
C2292 C2294 1.419 . S
C2293 C2288 1.425 . S
C2293 C2290 1.409 . S
C2293 C2291 1.415 . S
C2294 H2284 0.930 . S
C2294 C2292 1.419 . S
C2294 C2295 1.362 . S
C2295 H2285 0.930 . S
C2295 C2288 1.409 . S
C2295 C2294 1.362 . S
H2296 C2302 0.930 . S
H2297 C2305 0.930 . S
H2298 C2306 0.930 . S
H2299 C2307 0.930 . S
H2300 C2310 0.930 . S
H2301 C2311 0.930 . S
C2302 H2296 0.930 . S
C2302 C2303 1.355 . S
C2302 C2304 1.415 . S
C2303 C2302 1.355 . S
C2303 C2305 1.419 . S
C2304 C2302 1.415 . S
C2304 C2309 1.425 . S
C2304 C2311 1.409 . S
C2305 H2297 0.930 . S
C2305 C2303 1.419 . S
C2305 C2306 1.362 . S
C2306 H2298 0.930 . S
C2306 C2305 1.362 . S
C2306 C2309 1.409 . S
C2307 H2299 0.930 . S
C2307 C2308 1.355 . S
C2307 C2309 1.415 . S
C2308 C2307 1.355 . S
C2308 C2310 1.419 . S
C2309 C2304 1.425 . S
C2309 C2306 1.409 . S
C2309 C2307 1.415 . S
C2310 H2300 0.930 . S
C2310 C2308 1.419 . S
C2310 C2311 1.362 . S
C2311 H2301 0.930 . S
C2311 C2304 1.409 . S
C2311 C2310 1.362 . S
H2312 C2318 0.930 . S
H2313 C2321 0.930 . S
H2314 C2322 0.930 . S
H2315 C2323 0.930 . S
H2316 C2326 0.930 . S
H2317 C2327 0.930 . S
C2318 H2312 0.930 . S
C2318 C2319 1.355 . S
C2318 C2320 1.415 . S
C2319 C2318 1.355 . S
C2319 C2321 1.419 . S
C2320 C2318 1.415 . S
C2320 C2325 1.425 . S
C2320 C2327 1.409 . S
C2321 H2313 0.930 . S
C2321 C2319 1.419 . S
C2321 C2322 1.362 . S
C2322 H2314 0.930 . S
C2322 C2321 1.362 . S
C2322 C2325 1.409 . S
C2323 H2315 0.930 . S
C2323 C2324 1.355 . S
C2323 C2325 1.415 . S
C2324 C2323 1.355 . S
C2324 C2326 1.419 . S
C2325 C2320 1.425 . S
C2325 C2322 1.409 . S
C2325 C2323 1.415 . S
C2326 H2316 0.930 . S
C2326 C2324 1.419 . S
C2326 C2327 1.362 . S
C2327 H2317 0.930 . S
C2327 C2320 1.409 . S
C2327 C2326 1.362 . S
H2328 C2334 0.930 . S
H2329 C2337 0.930 . S
H2330 C2338 0.930 . S
H2331 C2339 0.930 . S
H2332 C2342 0.930 1_455 S
H2333 C2343 0.930 1_455 S
C2334 H2328 0.930 . S
C2334 C2335 1.355 . S
C2334 C2336 1.415 . S
C2335 C2334 1.355 . S
C2335 C2337 1.419 . S
C2336 C2334 1.415 . S
C2336 C2341 1.425 . S
C2336 C2343 1.409 . S
C2337 H2329 0.930 . S
C2337 C2335 1.419 . S
C2337 C2338 1.362 . S
C2338 H2330 0.930 . S
C2338 C2337 1.362 . S
C2338 C2341 1.409 . S
C2339 H2331 0.930 . S
C2339 C2340 1.355 . S
C2339 C2341 1.415 . S
C2340 C2339 1.355 . S
C2340 C2342 1.419 . S
C2341 C2336 1.425 . S
C2341 C2338 1.409 . S
C2341 C2339 1.415 . S
C2342 H2332 0.930 1_655 S
C2342 C2340 1.419 . S
C2342 C2343 1.362 . S
C2343 H2333 0.930 1_655 S
C2343 C2336 1.409 . S
C2343 C2342 1.362 . S
H2344 C2350 0.930 . S
H2345 C2353 0.930 . S
H2346 C2354 0.930 . S
H2347 C2355 0.930 . S
H2348 C2358 0.930 . S
H2349 C2359 0.930 . S
C2350 H2344 0.930 . S
C2350 C2351 1.355 . S
C2350 C2352 1.415 . S
C2351 C2350 1.355 . S
C2351 C2353 1.419 . S
C2352 C2350 1.415 . S
C2352 C2357 1.425 . S
C2352 C2359 1.409 . S
C2353 H2345 0.930 . S
C2353 C2351 1.419 . S
C2353 C2354 1.362 . S
C2354 H2346 0.930 . S
C2354 C2353 1.362 . S
C2354 C2357 1.409 . S
C2355 H2347 0.930 . S
C2355 C2356 1.355 . S
C2355 C2357 1.415 . S
C2356 C2355 1.355 . S
C2356 C2358 1.419 . S
C2357 C2352 1.425 . S
C2357 C2354 1.409 . S
C2357 C2355 1.415 . S
C2358 H2348 0.930 . S
C2358 C2356 1.419 . S
C2358 C2359 1.362 . S
C2359 H2349 0.930 . S
C2359 C2352 1.409 . S
C2359 C2358 1.362 . S
H2360 C2366 0.930 . S
H2361 C2369 0.930 . S
H2362 C2370 0.930 . S
H2363 C2371 0.930 . S
H2364 C2374 0.930 . S
H2365 C2375 0.930 . S
C2366 H2360 0.930 . S
C2366 C2367 1.355 . S
C2366 C2368 1.415 . S
C2367 C2366 1.355 . S
C2367 C2369 1.419 . S
C2368 C2366 1.415 . S
C2368 C2373 1.425 . S
C2368 C2375 1.409 . S
C2369 H2361 0.930 . S
C2369 C2367 1.419 . S
C2369 C2370 1.362 . S
C2370 H2362 0.930 . S
C2370 C2369 1.362 . S
C2370 C2373 1.409 . S
C2371 H2363 0.930 . S
C2371 C2372 1.355 . S
C2371 C2373 1.415 . S
C2372 C2371 1.355 . S
C2372 C2374 1.419 . S
C2373 C2368 1.425 . S
C2373 C2370 1.409 . S
C2373 C2371 1.415 . S
C2374 H2364 0.930 . S
C2374 C2372 1.419 . S
C2374 C2375 1.362 . S
C2375 H2365 0.930 . S
C2375 C2368 1.409 . S
C2375 C2374 1.362 . S
H2376 C2382 0.930 . S
H2377 C2385 0.930 . S
H2378 C2386 0.930 . S
H2379 C2387 0.930 1_545 S
H2380 C2390 0.930 1_455 S
H2381 C2391 0.930 . S
C2382 H2376 0.930 . S
C2382 C2383 1.355 . S
C2382 C2384 1.415 . S
C2383 C2382 1.355 . S
C2383 C2385 1.419 . S
C2384 C2382 1.415 . S
C2384 C2389 1.425 . S
C2384 C2391 1.409 . S
C2385 H2377 0.930 . S
C2385 C2383 1.419 . S
C2385 C2386 1.362 . S
C2386 H2378 0.930 . S
C2386 C2385 1.362 . S
C2386 C2389 1.409 . S
C2387 H2379 0.930 1_565 S
C2387 C2388 1.355 . S
C2387 C2389 1.415 . S
C2388 C2387 1.355 . S
C2388 C2390 1.419 . S
C2389 C2384 1.425 . S
C2389 C2386 1.409 . S
C2389 C2387 1.415 . S
C2390 H2380 0.930 1_655 S
C2390 C2388 1.419 . S
C2390 C2391 1.362 . S
C2391 H2381 0.930 . S
C2391 C2384 1.409 . S
C2391 C2390 1.362 . S
H2392 C2398 0.930 . S
H2393 C2401 0.930 . S
H2394 C2402 0.930 . S
H2395 C2403 0.930 . S
H2396 C2406 0.930 . S
H2397 C2407 0.930 . S
C2398 H2392 0.930 . S
C2398 C2399 1.355 . S
C2398 C2400 1.415 . S
C2399 C2398 1.355 . S
C2399 C2401 1.419 . S
C2400 C2398 1.415 . S
C2400 C2405 1.425 . S
C2400 C2407 1.409 . S
C2401 H2393 0.930 . S
C2401 C2399 1.419 . S
C2401 C2402 1.362 . S
C2402 H2394 0.930 . S
C2402 C2401 1.362 . S
C2402 C2405 1.409 . S
C2403 H2395 0.930 . S
C2403 C2404 1.355 . S
C2403 C2405 1.415 . S
C2404 C2403 1.355 . S
C2404 C2406 1.419 . S
C2405 C2400 1.425 . S
C2405 C2402 1.409 . S
C2405 C2403 1.415 . S
C2406 H2396 0.930 . S
C2406 C2404 1.419 . S
C2406 C2407 1.362 . S
C2407 H2397 0.930 . S
C2407 C2400 1.409 . S
C2407 C2406 1.362 . S
H2408 C2414 0.930 1_556 S
H2409 C2417 0.930 . S
H2410 C2418 0.930 . S
H2411 C2419 0.930 . S
H2412 C2422 0.930 . S
H2413 C2423 0.930 . S
C2414 H2408 0.930 1_554 S
C2414 C2415 1.355 . S
C2414 C2416 1.415 . S
C2415 C2414 1.355 . S
C2415 C2417 1.419 . S
C2416 C2414 1.415 . S
C2416 C2421 1.425 . S
C2416 C2423 1.409 1_554 S
C2417 H2409 0.930 . S
C2417 C2415 1.419 . S
C2417 C2418 1.362 . S
C2418 H2410 0.930 . S
C2418 C2417 1.362 . S
C2418 C2421 1.409 . S
C2419 H2411 0.930 . S
C2419 C2420 1.355 . S
C2419 C2421 1.415 . S
C2420 C2419 1.355 . S
C2420 C2422 1.419 1_554 S
C2421 C2416 1.425 . S
C2421 C2418 1.409 . S
C2421 C2419 1.415 . S
C2422 H2412 0.930 . S
C2422 C2420 1.419 1_556 S
C2422 C2423 1.362 . S
C2423 H2413 0.930 . S
C2423 C2416 1.409 1_556 S
C2423 C2422 1.362 . S
H2424 C2430 0.930 . S
H2425 C2433 0.930 . S
H2426 C2434 0.930 . S
H2427 C2435 0.930 . S
H2428 C2438 0.930 . S
H2429 C2439 0.930 . S
C2430 H2424 0.930 . S
C2430 C2431 1.355 . S
C2430 C2432 1.415 . S
C2431 C2430 1.355 . S
C2431 C2433 1.419 . S
C2432 C2430 1.415 . S
C2432 C2437 1.425 . S
C2432 C2439 1.409 . S
C2433 H2425 0.930 . S
C2433 C2431 1.419 . S
C2433 C2434 1.362 . S
C2434 H2426 0.930 . S
C2434 C2433 1.362 . S
C2434 C2437 1.409 . S
C2435 H2427 0.930 . S
C2435 C2436 1.355 . S
C2435 C2437 1.415 . S
C2436 C2435 1.355 . S
C2436 C2438 1.419 . S
C2437 C2432 1.425 . S
C2437 C2434 1.409 . S
C2437 C2435 1.415 . S
C2438 H2428 0.930 . S
C2438 C2436 1.419 . S
C2438 C2439 1.362 . S
C2439 H2429 0.930 . S
C2439 C2432 1.409 . S
C2439 C2438 1.362 . S
H2440 C2446 0.930 . S
H2441 C2449 0.930 . S
H2442 C2450 0.928 . S
H2443 C2451 0.930 . S
H2444 C2454 0.930 . S
H2445 C2455 0.930 . S
C2446 H2440 0.930 . S
C2446 C2447 1.355 . S
C2446 C2448 1.415 . S
C2447 C2446 1.355 . S
C2447 C2449 1.419 . S
C2448 C2446 1.415 . S
C2448 C2453 1.425 . S
C2448 C2455 1.409 . S
C2449 H2441 0.930 . S
C2449 C2447 1.419 . S
C2449 C2450 1.363 1_554 S
C2450 H2442 0.928 . S
C2450 C2449 1.363 1_556 S
C2450 C2453 1.410 1_556 S
C2451 H2443 0.930 . S
C2451 C2452 1.355 1_556 S
C2451 C2453 1.415 1_556 S
C2452 C2451 1.355 1_554 S
C2452 C2454 1.419 . S
C2453 C2448 1.425 . S
C2453 C2450 1.410 1_554 S
C2453 C2451 1.415 1_554 S
C2454 H2444 0.930 . S
C2454 C2452 1.419 . S
C2454 C2455 1.362 . S
C2455 H2445 0.930 . S
C2455 C2448 1.409 . S
C2455 C2454 1.362 . S
H2456 C2462 0.930 . S
H2457 C2465 0.930 . S
H2458 C2466 0.930 . S
H2459 C2467 0.930 . S
H2460 C2470 0.930 . S
H2461 C2471 0.930 . S
C2462 H2456 0.930 . S
C2462 C2463 1.355 . S
C2462 C2464 1.415 . S
C2463 C2462 1.355 . S
C2463 C2465 1.419 . S
C2464 C2462 1.415 . S
C2464 C2469 1.425 . S
C2464 C2471 1.409 . S
C2465 H2457 0.930 . S
C2465 C2463 1.419 . S
C2465 C2466 1.362 . S
C2466 H2458 0.930 . S
C2466 C2465 1.362 . S
C2466 C2469 1.409 . S
C2467 H2459 0.930 . S
C2467 C2468 1.355 . S
C2467 C2469 1.415 . S
C2468 C2467 1.355 . S
C2468 C2470 1.419 . S
C2469 C2464 1.425 . S
C2469 C2466 1.409 . S
C2469 C2467 1.415 . S
C2470 H2460 0.930 . S
C2470 C2468 1.419 . S
C2470 C2471 1.362 . S
C2471 H2461 0.930 . S
C2471 C2464 1.409 . S
C2471 C2470 1.362 . S
H2472 C2478 0.930 . S
H2473 C2481 0.930 . S
H2474 C2482 0.930 . S
H2475 C2483 0.930 . S
H2476 C2486 0.930 . S
H2477 C2487 0.930 . S
C2478 H2472 0.930 . S
C2478 C2479 1.355 . S
C2478 C2480 1.415 . S
C2479 C2478 1.355 . S
C2479 C2481 1.419 . S
C2480 C2478 1.415 . S
C2480 C2485 1.425 . S
C2480 C2487 1.409 . S
C2481 H2473 0.930 . S
C2481 C2479 1.419 . S
C2481 C2482 1.362 . S
C2482 H2474 0.930 . S
C2482 C2481 1.362 . S
C2482 C2485 1.409 . S
C2483 H2475 0.930 . S
C2483 C2484 1.355 . S
C2483 C2485 1.415 . S
C2484 C2483 1.355 . S
C2484 C2486 1.419 . S
C2485 C2480 1.425 . S
C2485 C2482 1.409 . S
C2485 C2483 1.415 . S
C2486 H2476 0.930 . S
C2486 C2484 1.419 . S
C2486 C2487 1.362 . S
C2487 H2477 0.930 . S
C2487 C2480 1.409 . S
C2487 C2486 1.362 . S
C959 C101 1.107 . S
C964 C320 1.142 1_556 S
C975 C57 1.507 . S
C980 C354 1.533 . S
C991 C70 0.615 . S
C996 C423 0.595 . S
C1012 C461 0.847 . S
C1007 C82 0.872 . S
C1023 C23 1.653 . S
C1028 C501 1.619 . S
C1044 C520 0.382 . S
C1039 C29 0.384 . S
C1060 C554 1.268 . S
C1055 C49 1.232 . S
C1071 C10 1.852 . S
C1076 C623 1.838 . S
C1092 C329 2.475 . S
C1087 C218 2.501 . S
C1103 C226 1.350 . S
C1108 C381 1.301 . S
C1124 C394 1.419 . S
C1119 C251 1.423 . S
C1140 C463 1.358 . S
C1135 C159 1.356 . S
C1151 C211 1.978 . S
C1156 C503 1.987 . S
C1172 C529 1.909 . S
C1167 C225 1.895 . S
C1188 C581 0.454 . S
C1183 C252 0.346 . S
C1204 C594 2.249 . S
C1199 C166 2.249 . S
C1220 C324 2.372 . S
C1215 C147 2.403 . S
C1231 C263 1.943 . S
C1236 C634 1.996 . S
C1252 C684 2.648 . S
C1247 C309 2.660 . S
C1268 C743 1.459 . S
C1263 C291 1.455 . S
C1279 C108 1.733 . S
C1284 C621 1.717 . S
C1295 C121 1.593 . S
C1300 C421 1.564 . S
C1311 C302 2.361 . S
C1316 C754 2.361 . S
C1332 C823 0.994 . S
C1327 C276 1.000 . S
C1348 C341 1.204 . S
C1343 C55 1.202 . S
C1364 C809 1.616 . S
C1359 C96 1.635 . S
C1375 C88 0.881 . S
C1380 C404 0.864 . S
C1391 C75 1.104 . S
C1396 C760 1.069 . S
C1412 C480 1.540 . S
C1407 C4 1.578 . S
C1423 C44 0.577 . S
C1428 C701 0.558 . S
C1444 C569 1.614 1_566 S
C1439 C31 1.621 . S
C1460 C844 1.784 . S
C1455 C18 1.791 . S
C1476 C314 2.518 . S
C1471 C133 2.575 . S
C1492 C800 1.149 . S
C1487 C296 1.166 . S
C1503 C107 1.577 . S
C1508 C409 1.581 . S
C1519 C264 1.632 . S
C1524 C764 1.650 . S
C1535 C140 2.136 . S
C1540 C484 2.162 . S
C1556 C674 1.938 . S
C1551 C289 1.996 . S
C1567 C114 0.546 . S
C1572 C560 0.543 . S
C1583 C265 2.405 . S
C1588 C849 2.388 . S
C1599 C179 2.670 . S
C1604 C343 2.643 1_655 S
C1615 C161 2.165 . S
C1620 C649 2.171 . S
C1631 C244 2.941 . S
C1636 C543 2.924 . S
C1647 C224 1.885 . S
C1652 C724 1.892 . S
C1668 C840 1.593 . S
C1663 C257 1.600 . S
C1679 C199 1.583 . S
C1684 C400 1.550 . S
C1700 C449 2.664 . S
C1695 C237 2.704 . S
C1716 C364 1.091 . S
C1711 C185 1.110 . S
C1727 C69 1.126 . S
C1732 C880 1.158 . S
C1748 C794 1.564 . S
C1743 C83 1.511 . S
C1759 C94 0.640 . S
C1764 C943 0.625 . S
C1775 C56 0.850 . S
C1780 C781 0.884 . S
C1791 C42 1.668 . S
C1796 C661 1.601 . S
C1812 C680 0.385 . S
C1807 C3 0.385 . S
C1828 C714 1.217 . S
C1823 C16 1.145 . S
C1844 C863 1.830 . S
C1839 C36 1.842 . S
C1860 C889 2.478 . S
C1855 C238 2.510 . S
C1871 C174 1.402 . S
C1876 C821 1.379 . S
C1892 C914 1.428 . S
C1887 C186 1.425 . S
C1908 C783 1.332 . S
C1903 C198 1.348 . S
C1924 C663 1.966 . S
C1919 C239 1.969 . S
C1935 C173 1.916 . S
C1940 C689 1.915 . S
C1956 C741 0.377 . S
C1951 C187 0.297 . S
C1967 C205 2.263 . S
C1972 C834 2.262 . S
C1988 C884 2.377 . S
C1983 C290 2.405 . S
C1999 C122 1.909 . S
C2004 C474 1.988 . S
C2020 C524 2.649 . S
C2015 C134 2.678 . S
C2036 C583 1.458 . S
C2031 C148 1.453 . S
C2052 C861 1.655 . S
C2047 C283 1.680 . S
C2063 C270 1.585 . S
C2068 C941 1.554 . S
C2084 C434 2.355 . S
C2079 C135 2.347 . S
C2100 C383 0.871 . S
C2095 C109 0.909 . S
C2111 C81 1.165 . S
C2116 C901 1.184 . S
C2132 C369 1.613 . S
C2127 C68 1.616 . S
C2143 C62 0.900 . S
C2148 C924 0.915 . S
C2159 C95 1.131 . S
C2164 C440 1.131 . S
C2175 C30 1.577 . S
C2180 C640 1.535 . S
C2196 C541 0.611 . S
C2191 C17 0.566 . S
C2207 C5 1.631 . S
C2212 C729 1.629 . S
C2223 C43 1.783 . S
C2228 C604 1.772 . S
C2244 C874 2.543 . S
C2239 C304 2.572 . S
C2255 C153 1.226 . S
C2260 C360 1.231 . S
C2276 C929 1.562 . S
C2271 C278 1.589 . S
C2287 C127 1.644 . S
C2292 C444 1.636 . S
C2303 C303 2.133 . S
C2308 C644 2.156 . S
C2324 C514 1.955 . S
C2319 C146 1.982 . S
C2335 C277 0.544 . S
C2340 C720 0.538 . S
C2356 C609 2.386 . S
C2351 C120 2.407 . S
C2372 C903 2.628 . S
C2367 C231 2.665 . S
C2388 C489 2.177 1_665 S
C2383 C200 2.141 . S
C2399 C212 2.952 . S
C2404 C703 2.937 . S
C2420 C564 1.894 . S
C2415 C172 1.879 . S
C2431 C192 1.634 . S
C2436 C600 1.619 . S
C2447 C160 1.542 . S
C2452 C920 1.532 . S
C2468 C769 2.666 . S
C2463 C213 2.700 1_565 S
C2484 C804 1.128 . S
C2479 C250 1.129 . S
