# Generated by pormake.
# Topology anh, (6,3)-cn, num edge types: 1
# Building blocks:
#     Node 0, Type 0, BuildingBlock: PAMTOO_clean_sbu_0, # of connection points: 6
#     Node 1, Type 0, BuildingBlock: PAMTOO_clean_sbu_0, # of connection points: 6
#     Node 2, Type 0, BuildingBlock: PAMTOO_clean_sbu_0, # of connection points: 6
#     Node 3, Type 1, BuildingBlock: OLANEW_clean_sbu_2, # of connection points: 3
#     Node 4, Type 1, BuildingBlock: OLANEW_clean_sbu_2, # of connection points: 3
#     Node 5, Type 1, BuildingBlock: OLANEW_clean_sbu_2, # of connection points: 3
#     Node 6, Type 1, BuildingBlock: OLANEW_clean_sbu_2, # of connection points: 3
#     Node 7, Type 1, BuildingBlock: OLANEW_clean_sbu_2, # of connection points: 3
#     Node 8, Type 1, BuildingBlock: OLANEW_clean_sbu_2, # of connection points: 3
#     Edge 9, Type (0, 1), BuildingBlock: FUNLAD_clean_linker_0, # of connection points: 2
#     Edge 10, Type (0, 1), BuildingBlock: FUNLAD_clean_linker_0, # of connection points: 2
#     Edge 11, Type (0, 1), BuildingBlock: FUNLAD_clean_linker_0, # of connection points: 2
#     Edge 12, Type (0, 1), BuildingBlock: FUNLAD_clean_linker_0, # of connection points: 2
#     Edge 13, Type (0, 1), BuildingBlock: FUNLAD_clean_linker_0, # of connection points: 2
#     Edge 14, Type (0, 1), BuildingBlock: FUNLAD_clean_linker_0, # of connection points: 2
#     Edge 15, Type (0, 1), BuildingBlock: FUNLAD_clean_linker_0, # of connection points: 2
#     Edge 16, Type (0, 1), BuildingBlock: FUNLAD_clean_linker_0, # of connection points: 2
#     Edge 17, Type (0, 1), BuildingBlock: FUNLAD_clean_linker_0, # of connection points: 2
#     Edge 18, Type (0, 1), BuildingBlock: FUNLAD_clean_linker_0, # of connection points: 2
#     Edge 19, Type (0, 1), BuildingBlock: FUNLAD_clean_linker_0, # of connection points: 2
#     Edge 20, Type (0, 1), BuildingBlock: FUNLAD_clean_linker_0, # of connection points: 2
#     Edge 21, Type (0, 1), BuildingBlock: FUNLAD_clean_linker_0, # of connection points: 2
#     Edge 22, Type (0, 1), BuildingBlock: FUNLAD_clean_linker_0, # of connection points: 2
#     Edge 23, Type (0, 1), BuildingBlock: FUNLAD_clean_linker_0, # of connection points: 2
#     Edge 24, Type (0, 1), BuildingBlock: FUNLAD_clean_linker_0, # of connection points: 2
#     Edge 25, Type (0, 1), BuildingBlock: FUNLAD_clean_linker_0, # of connection points: 2
#     Edge 26, Type (0, 1), BuildingBlock: FUNLAD_clean_linker_0, # of connection points: 2
# Relax obj value: 0.124
# Max RMSD: 0.139
# Mean RMSD: 0.112
data_MOF--net-anh--node1-PAMTOO_clean_sbu_0--node2-OLANEW_clean_sbu_2--edge1-FUNLAD_clean_linker_0
_symmetry_space_group_name_H-M    P1
_symmetry_Int_Tables_number       1
_symmetry_cell_setting            triclinic
loop_
_symmetry_equiv_pos_as_xyz
'x, y, z'
_cell_length_a     42.034175
_cell_length_b     37.755296
_cell_length_c     58.789678
_cell_angle_alpha  90.079763
_cell_angle_beta   95.424698
_cell_angle_gamma 109.01986
loop_
_atom_site_label
_atom_site_type_symbol
_atom_site_fract_x
_atom_site_fract_y
_atom_site_fract_z
_atom_type_partial_charge
Dy0 Dy 0.03907 0.59355 0.14442 0.0
Dy1 Dy 0.00803 0.50169 0.13892 0.0
C2 C 0.02546 0.55316 0.09566 0.0
O3 O 0.98294 0.57995 0.13549 0.0
O4 O 0.966 0.52045 0.149 0.0
O5 O 0.04784 0.64894 0.13109 0.0
O6 O 0.06533 0.64223 0.16621 0.0
O7 O 0.0266 0.51553 0.17583 0.0
O8 O 0.01967 0.57288 0.17753 0.0
O9 O 0.06174 0.51552 0.13134 0.0
O10 O 0.08371 0.57291 0.15027 0.0
O11 O 0.00551 0.44631 0.15011 0.0
O12 O 0.97339 0.45268 0.12057 0.0
C13 C 0.95921 0.55065 0.14234 0.0
O14 O 0.04692 0.57977 0.10904 0.0
O15 O 1.00333 0.52434 0.10407 0.0
C16 C 0.09942 0.69277 0.1473 0.0
C17 C 0.16667 0.74071 0.14775 0.0
C18 C 0.15435 0.70934 0.13258 0.0
C19 C 0.12098 0.68533 0.13249 0.0
C20 C 0.11128 0.72486 0.16174 0.0
C21 C 0.14465 0.7486 0.16202 0.0
C22 C 0.06595 0.66549 0.14977 0.0
C23 C 0.02331 0.54339 0.18766 0.0
C24 C 0.08775 0.54341 0.1405 0.0
C25 C 0.95034 0.403 0.14421 0.0
C26 C 0.89056 0.35266 0.15872 0.0
C27 C 0.90033 0.3912 0.16444 0.0
C28 C 0.92999 0.41611 0.15728 0.0
C29 C 0.94116 0.36463 0.1388 0.0
C30 C 0.91155 0.33962 0.14603 0.0
C31 C 0.98002 0.42953 0.13518 0.0
H32 H 0.17092 0.70246 0.12159 0.0
H33 H 0.1124 0.66033 0.12145 0.0
H34 H 0.09505 0.73085 0.1734 0.0
H35 H 0.1535 0.77275 0.17375 0.0
H36 H 0.88461 0.40234 0.1739 0.0
H37 H 0.93669 0.44573 0.16155 0.0
H38 H 0.95663 0.35409 0.12871 0.0
H39 H 0.90504 0.31008 0.14162 0.0
Dy40 Dy 0.49534 0.01451 0.51191 0.0
Dy41 Dy 0.57812 0.04961 0.52433 0.0
C42 C 0.52788 0.02099 0.56292 0.0
O43 O 0.50657 0.07419 0.52367 0.0
O44 O 0.56137 0.09841 0.51475 0.0
O45 O 0.44423 0.00159 0.52105 0.0
O46 O 0.45315 0.98876 0.48674 0.0
O47 O 0.56912 0.04028 0.4864 0.0
O48 O 0.51617 0.04531 0.48142 0.0
O49 O 0.5646 0.98816 0.52969 0.0
O50 O 0.51595 0.96833 0.50522 0.0
O51 O 0.62905 0.05296 0.51831 0.0
O52 O 0.62055 0.08495 0.54631 0.0
C53 C 0.53308 0.10292 0.51974 0.0
O54 O 0.50549 0.99854 0.54774 0.0
O55 O 0.55399 0.04789 0.55669 0.0
C56 C 0.40473 0.94771 0.50118 0.0
C57 C 0.3559 0.87552 0.49906 0.0
C58 C 0.37695 0.88938 0.51936 0.0
C59 C 0.40134 0.92512 0.52039 0.0
C60 C 0.38335 0.9341 0.48107 0.0
C61 C 0.35927 0.89834 0.47997 0.0
C62 C 0.43079 0.985 0.50128 0.0
C63 C 0.54423 0.04567 0.47323 0.0
C64 C 0.54121 0.96162 0.51725 0.0
C65 C 0.67015 0.11171 0.52848 0.0
C66 C 0.72311 0.1766 0.51916 0.0
C67 C 0.68917 0.17428 0.51356 0.0
C68 C 0.66289 0.14203 0.51813 0.0
C69 C 0.70387 0.11369 0.53385 0.0
C70 C 0.73016 0.14583 0.5292 0.0
C71 C 0.6429 0.07847 0.53449 0.0
H72 H 0.37504 0.87226 0.53427 0.0
H73 H 0.41769 0.93485 0.53608 0.0
H74 H 0.38549 0.95107 0.46608 0.0
H75 H 0.34314 0.88858 0.46419 0.0
H76 H 0.68295 0.19731 0.50554 0.0
H77 H 0.63693 0.14089 0.5138 0.0
H78 H 0.70987 0.09055 0.54193 0.0
H79 H 0.756 0.14691 0.53393 0.0
Dy80 Dy 0.52478 0.50255 0.87021 0.0
Dy81 Dy 0.44143 0.47103 0.86581 0.0
C82 C 0.482 0.48836 0.82071 0.0
O83 O 0.50714 0.55026 0.87905 0.0
O84 O 0.45696 0.53103 0.8565 0.0
O85 O 0.57153 0.54627 0.86563 0.0
O86 O 0.57239 0.49474 0.88155 0.0
O87 O 0.45747 0.48772 0.90271 0.0
O88 O 0.51148 0.4853 0.90518 0.0
O89 O 0.45904 0.4226 0.87485 0.0
O90 O 0.50792 0.44291 0.85756 0.0
O91 O 0.39495 0.47279 0.87745 0.0
O92 O 0.39354 0.43315 0.85038 0.0
C93 C 0.48201 0.55779 0.86743 0.0
O94 O 0.51046 0.50614 0.83311 0.0
O95 O 0.45413 0.47002 0.82979 0.0
C96 C 0.61559 0.52326 0.85832 0.0
C97 C 0.66493 0.51697 0.83083 0.0
C98 C 0.63382 0.51864 0.82072 0.0
C99 C 0.60922 0.52152 0.83437 0.0
C100 C 0.64654 0.52158 0.86842 0.0
C101 C 0.671 0.51841 0.85482 0.0
C102 C 0.59005 0.52603 0.873 0.0
C103 C 0.485 0.48664 0.91483 0.0
C104 C 0.48382 0.41574 0.8657 0.0
C105 C 0.35103 0.46145 0.84783 0.0
C106 C 0.30133 0.48687 0.82446 0.0
C107 C 0.33455 0.51144 0.82973 0.0
C108 C 0.3592 0.49878 0.84118 0.0
C109 C 0.3184 0.43645 0.84188 0.0
C110 C 0.29376 0.44899 0.83019 0.0
C111 C 0.37612 0.44893 0.86159 0.0
H112 H 0.62841 0.51734 0.8023 0.0
H113 H 0.58527 0.52238 0.82626 0.0
H114 H 0.65182 0.52279 0.88687 0.0
H115 H 0.69494 0.51773 0.86308 0.0
H116 H 0.34128 0.54085 0.82588 0.0
H117 H 0.38439 0.51847 0.84546 0.0
H118 H 0.3118 0.40743 0.84666 0.0
H119 H 0.26862 0.42915 0.82602 0.0
O120 O 0.55206 0.0771 0.25238 0.0
Cd121 Cd 0.55175 0.08067 0.21087 0.0
O122 O 0.50178 0.03394 0.24996 0.0
Cd123 Cd 0.49232 0.02738 0.21279 0.0
O124 O 0.45591 0.99437 0.18544 0.0
C125 C 0.45178 0.9595 0.18448 0.0
O126 O 0.47156 0.94659 0.19829 0.0
C127 C 0.52757 0.05538 0.26203 0.0
C128 C 0.61431 0.12604 0.19872 0.0
O129 O 0.59135 0.14002 0.2028 0.0
O130 O 0.60759 0.09053 0.20027 0.0
O131 O 0.52793 0.49639 0.60206 0.0
Cd132 Cd 0.53674 0.50045 0.56153 0.0
O133 O 0.50407 0.5402 0.60435 0.0
Cd134 Cd 0.51231 0.56335 0.57053 0.0
O135 O 0.52098 0.61566 0.55226 0.0
C136 C 0.54727 0.64283 0.55926 0.0
O137 O 0.56853 0.63705 0.57553 0.0
C138 C 0.51375 0.51448 0.61353 0.0
C139 C 0.54168 0.43208 0.54684 0.0
O140 O 0.56797 0.45896 0.55486 0.0
O141 O 0.51315 0.43783 0.54522 0.0
O142 O 0.03389 0.63373 0.87802 0.0
Cd143 Cd 0.02873 0.64344 0.83666 0.0
O144 O 0.01151 0.57221 0.87539 0.0
Cd145 Cd 0.99156 0.57075 0.83979 0.0
O146 O 0.95132 0.56198 0.81211 0.0
C147 C 0.9424 0.58949 0.80514 0.0
O148 O 0.95994 0.62333 0.81336 0.0
C149 C 0.02619 0.60209 0.88742 0.0
C150 C 0.07322 0.6158 0.81576 0.0
O151 O 0.04208 0.59617 0.81614 0.0
O152 O 0.08322 0.64913 0.8246 0.0
O153 O 0.06249 0.51646 0.41141 0.0
Cd154 Cd 0.06542 0.51637 0.45317 0.0
O155 O 0.00955 0.51517 0.40689 0.0
Cd156 Cd 0.99968 0.50294 0.44229 0.0
O157 O 0.96605 0.46704 0.4652 0.0
C158 C 0.93535 0.46587 0.46284 0.0
O159 O 0.92641 0.488 0.44818 0.0
C160 C 0.03683 0.51739 0.39841 0.0
C161 C 0.11679 0.58043 0.47132 0.0
O162 O 0.12291 0.5501 0.4671 0.0
O163 O 0.08623 0.58028 0.46735 0.0
O164 O 0.46977 0.95077 0.77819 0.0
Cd165 Cd 0.46183 0.94565 0.81887 0.0
O166 O 0.49536 0.01198 0.77934 0.0
Cd167 Cd 0.48836 0.02651 0.81407 0.0
O168 O 0.48774 0.07575 0.83355 0.0
C169 C 0.51356 0.1049 0.83306 0.0
O170 O 0.53912 0.10258 0.82259 0.0
C171 C 0.48492 0.98064 0.76833 0.0
C172 C 0.4612 0.8747 0.83305 0.0
O173 O 0.43383 0.88066 0.82551 0.0
O174 O 0.48884 0.90244 0.83424 0.0
O175 O 0.55985 0.55105 0.12522 0.0
Cd176 Cd 0.60382 0.57308 0.15795 0.0
O177 O 0.51543 0.56373 0.13591 0.0
Cd178 Cd 0.4622 0.56415 0.13247 0.0
O179 O 0.41126 0.56951 0.13463 0.0
C180 C 0.38386 0.54352 0.12778 0.0
O181 O 0.38565 0.51239 0.11884 0.0
C182 C 0.52936 0.55075 0.12105 0.0
C183 C 0.66907 0.57205 0.15012 0.0
O184 O 0.64717 0.54342 0.15768 0.0
O185 O 0.66011 0.60092 0.14585 0.0
C186 C 0.15153 0.57207 0.1467 0.0
C187 C 0.12251 0.54147 0.1395 0.0
C188 C 0.18411 0.56994 0.14541 0.0
C189 C 0.18846 0.53705 0.13687 0.0
C190 C 0.15938 0.50652 0.12989 0.0
C191 C 0.12697 0.5087 0.13108 0.0
C192 C 0.22235 0.53248 0.13528 0.0
C193 C 0.25229 0.56074 0.13668 0.0
C194 C 0.2857 0.55529 0.13437 0.0
C195 C 0.31573 0.58405 0.14224 0.0
C196 C 0.34753 0.58039 0.14016 0.0
C197 C 0.35021 0.54786 0.12999 0.0
H198 H 0.26636 0.50045 0.11685 0.0
C199 C 0.32023 0.51925 0.12187 0.0
C200 C 0.28847 0.52291 0.12392 0.0
H201 H 0.32121 0.49392 0.11374 0.0
H202 H 0.14913 0.59777 0.15331 0.0
H203 H 0.20558 0.59398 0.15143 0.0
H204 H 0.16167 0.48072 0.12333 0.0
H205 H 0.10537 0.48447 0.12541 0.0
H206 H 0.22216 0.50401 0.13255 0.0
H207 H 0.25279 0.58924 0.13976 0.0
H208 H 0.31463 0.60949 0.15017 0.0
H209 H 0.37001 0.60309 0.14656 0.0
C210 C 0.74912 0.24669 0.51981 0.0
C211 C 0.75108 0.21111 0.51477 0.0
C212 C 0.77556 0.27919 0.51585 0.0
C213 C 0.80447 0.27679 0.50651 0.0
C214 C 0.80653 0.24117 0.50178 0.0
C215 C 0.78016 0.20872 0.50581 0.0
C216 C 0.83308 0.31044 0.50156 0.0
C217 C 0.83043 0.34484 0.49872 0.0
C218 C 0.8583 0.37725 0.49148 0.0
C219 C 0.85005 0.40561 0.4794 0.0
C220 C 0.87522 0.43509 0.47076 0.0
C221 C 0.9093 0.43705 0.47421 0.0
H222 H 0.90013 0.35971 0.50596 0.0
C223 C 0.91781 0.40977 0.48736 0.0
C224 C 0.8926 0.38021 0.49596 0.0
H225 H 0.94388 0.41071 0.49057 0.0
H226 H 0.72735 0.24943 0.5272 0.0
H227 H 0.7733 0.30592 0.5205 0.0
H228 H 0.82851 0.2384 0.49468 0.0
H229 H 0.78237 0.18173 0.50161 0.0
H230 H 0.85656 0.3059 0.49854 0.0
H231 H 0.80621 0.34892 0.49969 0.0
H232 H 0.82391 0.40434 0.47597 0.0
H233 H 0.86779 0.45581 0.46087 0.0
C234 C 0.45539 0.60549 0.85376 0.0
C235 C 0.48228 0.59711 0.86603 0.0
C236 C 0.4561 0.64261 0.85161 0.0
C237 C 0.4837 0.67233 0.86182 0.0
C238 C 0.51054 0.66391 0.87408 0.0
C239 C 0.5098 0.62676 0.87627 0.0
C240 C 0.48628 0.71236 0.85898 0.0
C241 C 0.45917 0.72385 0.85442 0.0
C242 C 0.46083 0.76337 0.85005 0.0
C243 C 0.43065 0.77016 0.84252 0.0
C244 C 0.43069 0.80629 0.83733 0.0
C245 C 0.46098 0.83671 0.83957 0.0
H246 H 0.51501 0.79076 0.85883 0.0
C247 C 0.49114 0.83025 0.84754 0.0
C248 C 0.49113 0.79408 0.85276 0.0
H249 H 0.5149 0.85313 0.84958 0.0
H250 H 0.43391 0.58341 0.84546 0.0
H251 H 0.4354 0.64776 0.84135 0.0
H252 H 0.53227 0.6862 0.88195 0.0
H253 H 0.53103 0.62136 0.88576 0.0
H254 H 0.51155 0.73258 0.86084 0.0
H255 H 0.43407 0.70316 0.85349 0.0
H256 H 0.40687 0.74728 0.84033 0.0
H257 H 0.40696 0.81024 0.83129 0.0
C258 C 0.91493 0.58293 0.13657 0.0
C259 C 0.92413 0.55155 0.14335 0.0
C260 C 0.88184 0.58338 0.13799 0.0
C261 C 0.85708 0.55234 0.14624 0.0
C262 C 0.86647 0.52115 0.15299 0.0
C263 C 0.89934 0.52067 0.15152 0.0
C264 C 0.82161 0.55119 0.14889 0.0
C265 C 0.8065 0.57482 0.13913 0.0
C266 C 0.77088 0.57292 0.14203 0.0
C267 C 0.761 0.60443 0.13688 0.0
C268 C 0.72804 0.6041 0.13934 0.0
C269 C 0.70386 0.57208 0.1469 0.0
H270 H 0.75226 0.51516 0.1527 0.0
C271 C 0.71346 0.54027 0.1517 0.0
C272 C 0.74643 0.54058 0.14923 0.0
H273 H 0.69546 0.51499 0.15738 0.0
H274 H 0.93335 0.6073 0.13029 0.0
H275 H 0.87617 0.60838 0.133 0.0
H276 H 0.84822 0.49684 0.1595 0.0
H277 H 0.90527 0.49595 0.15696 0.0
H278 H 0.80739 0.52934 0.15948 0.0
H279 H 0.82069 0.59703 0.12874 0.0
H280 H 0.77897 0.62966 0.13109 0.0
H281 H 0.72159 0.6291 0.13541 0.0
C282 C 0.30913 0.82428 0.5147 0.0
C283 C 0.33076 0.83721 0.49749 0.0
C284 C 0.28447 0.78871 0.51256 0.0
C285 C 0.28116 0.76534 0.49318 0.0
C286 C 0.30354 0.77789 0.4764 0.0
C287 C 0.32788 0.81351 0.47842 0.0
C288 C 0.25498 0.7277 0.48985 0.0
C289 C 0.22472 0.71871 0.49826 0.0
C290 C 0.19745 0.68231 0.49266 0.0
C291 C 0.16357 0.68091 0.49178 0.0
C292 C 0.13731 0.64769 0.48522 0.0
C293 C 0.1444 0.61498 0.4797 0.0
H294 H 0.23028 0.64892 0.48916 0.0
C295 C 0.17827 0.61597 0.4815 0.0
C296 C 0.20453 0.64925 0.48792 0.0
H297 H 0.1846 0.59118 0.4776 0.0
H298 H 0.31084 0.84195 0.52961 0.0
H299 H 0.26827 0.77957 0.52615 0.0
H300 H 0.30182 0.76032 0.46143 0.0
H301 H 0.34456 0.82249 0.46506 0.0
H302 H 0.2598 0.70785 0.47838 0.0
H303 H 0.21851 0.73978 0.50784 0.0
H304 H 0.1574 0.70586 0.49558 0.0
H305 H 0.11148 0.64781 0.48418 0.0
C306 C 0.51213 0.36934 0.8561 0.0
C307 C 0.48451 0.37678 0.86428 0.0
C308 C 0.51271 0.33262 0.85445 0.0
C309 C 0.48566 0.30239 0.86103 0.0
C310 C 0.45797 0.30982 0.86904 0.0
C311 C 0.45746 0.3466 0.8708 0.0
C312 C 0.48464 0.26277 0.85848 0.0
C313 C 0.51268 0.25272 0.85886 0.0
C314 C 0.51241 0.21384 0.85407 0.0
C315 C 0.54196 0.20903 0.84736 0.0
C316 C 0.54256 0.17354 0.84121 0.0
C317 C 0.51364 0.14179 0.84181 0.0
H318 H 0.46084 0.18397 0.86142 0.0
C319 C 0.48445 0.14621 0.84951 0.0
C320 C 0.48381 0.18184 0.85561 0.0
H321 H 0.46182 0.12227 0.85037 0.0
H322 H 0.53331 0.39187 0.85078 0.0
H323 H 0.53401 0.3281 0.84743 0.0
H324 H 0.43662 0.28708 0.87397 0.0
H325 H 0.4357 0.35128 0.87707 0.0
H326 H 0.45983 0.2416 0.85594 0.0
H327 H 0.53731 0.27422 0.86178 0.0
H328 H 0.5645 0.23302 0.84624 0.0
H329 H 0.56558 0.17116 0.83552 0.0
C330 C 0.57052 0.91519 0.52869 0.0
C331 C 0.54258 0.92286 0.51746 0.0
C332 C 0.57124 0.87845 0.52968 0.0
C333 C 0.54375 0.84835 0.51965 0.0
C334 C 0.51632 0.85624 0.50786 0.0
C335 C 0.51566 0.89299 0.5068 0.0
C336 C 0.54249 0.80849 0.52118 0.0
C337 C 0.56083 0.79625 0.53749 0.0
C338 C 0.55792 0.75616 0.54058 0.0
C339 C 0.5835 0.7481 0.55458 0.0
C340 C 0.58062 0.7112 0.55987 0.0
C341 C 0.55192 0.68133 0.55139 0.0
H342 H 0.50889 0.73084 0.52102 0.0
C343 C 0.52674 0.68912 0.53677 0.0
C344 C 0.5296 0.72612 0.53147 0.0
H345 H 0.50422 0.66676 0.53004 0.0
H346 H 0.59192 0.93758 0.5368 0.0
H347 H 0.59352 0.87405 0.53819 0.0
H348 H 0.49493 0.83376 0.49979 0.0
H349 H 0.49376 0.89785 0.49791 0.0
H350 H 0.5247 0.78856 0.5089 0.0
H351 H 0.57845 0.81626 0.5498 0.0
H352 H 0.60557 0.77055 0.56188 0.0
H353 H 0.60055 0.70625 0.57115 0.0
C354 C 0.70036 0.53864 0.79827 0.0
C355 C 0.69158 0.51477 0.81664 0.0
C356 C 0.72855 0.54005 0.78695 0.0
C357 C 0.74845 0.5176 0.79388 0.0
C358 C 0.73799 0.49173 0.81104 0.0
C359 C 0.71 0.49047 0.82239 0.0
C360 C 0.78183 0.52249 0.78551 0.0
C361 C 0.80174 0.55542 0.77822 0.0
C362 C 0.83904 0.56477 0.779 0.0
C363 C 0.85463 0.53708 0.77787 0.0
C364 C 0.88914 0.54576 0.78468 0.0
C365 C 0.90872 0.58232 0.79242 0.0
H366 H 0.84822 0.62411 0.78469 0.0
C367 C 0.89397 0.6108 0.79078 0.0
C368 C 0.85943 0.60207 0.7841 0.0
H369 H 0.90847 0.63939 0.79625 0.0
H370 H 0.68642 0.55748 0.79336 0.0
H371 H 0.73512 0.55945 0.77328 0.0
H372 H 0.75255 0.47375 0.81655 0.0
H373 H 0.70334 0.47119 0.83615 0.0
H374 H 0.79253 0.50039 0.78944 0.0
H375 H 0.79187 0.57853 0.77593 0.0
H376 H 0.84004 0.50833 0.77291 0.0
H377 H 0.89999 0.52336 0.78516 0.0
C378 C 0.21992 0.77735 0.13077 0.0
C379 C 0.20296 0.76356 0.15004 0.0
C380 C 0.25428 0.79894 0.13333 0.0
C381 C 0.27223 0.80658 0.15521 0.0
C382 C 0.25533 0.79205 0.17433 0.0
C383 C 0.22103 0.77108 0.17181 0.0
C384 C 0.30864 0.82898 0.15896 0.0
C385 C 0.32404 0.85729 0.14572 0.0
C386 C 0.359 0.88261 0.15246 0.0
C387 C 0.36711 0.92117 0.14894 0.0
C388 C 0.39812 0.94627 0.15832 0.0
C389 C 0.42171 0.93312 0.17115 0.0
H390 H 0.37855 0.83954 0.16607 0.0
C391 C 0.41462 0.89426 0.17301 0.0
C392 C 0.3836 0.86925 0.16377 0.0
H393 H 0.43243 0.88311 0.18246 0.0
H394 H 0.20653 0.77174 0.11379 0.0
H395 H 0.26677 0.80906 0.11819 0.0
H396 H 0.26864 0.79727 0.19135 0.0
H397 H 0.20871 0.76026 0.18692 0.0
H398 H 0.32242 0.82431 0.17464 0.0
H399 H 0.30957 0.86482 0.13135 0.0
H400 H 0.34872 0.93209 0.14002 0.0
H401 H 0.40294 0.97603 0.15636 0.0
C402 C 0.55779 0.17235 0.51504 0.0
C403 C 0.53101 0.14134 0.52101 0.0
C404 C 0.55602 0.20865 0.51653 0.0
C405 C 0.5275 0.21484 0.5243 0.0
C406 C 0.50058 0.18372 0.52989 0.0
C407 C 0.50229 0.14745 0.5283 0.0
C408 C 0.52442 0.25293 0.52662 0.0
C409 C 0.55079 0.28517 0.52746 0.0
C410 C 0.54773 0.32294 0.53126 0.0
C411 C 0.57678 0.35255 0.53952 0.0
C412 C 0.57497 0.38814 0.54416 0.0
C413 C 0.54402 0.39504 0.54052 0.0
H414 H 0.49416 0.30871 0.5197 0.0
C415 C 0.51511 0.3658 0.53155 0.0
C416 C 0.51694 0.33021 0.52685 0.0
H417 H 0.49094 0.3703 0.5283 0.0
H418 H 0.58017 0.16865 0.50911 0.0
H419 H 0.57695 0.23147 0.51132 0.0
H420 H 0.47816 0.18747 0.53575 0.0
H421 H 0.48112 0.12426 0.53298 0.0
H422 H 0.4995 0.254 0.52908 0.0
H423 H 0.57616 0.2841 0.52685 0.0
H424 H 0.60092 0.34799 0.54284 0.0
H425 H 0.59777 0.41007 0.55095 0.0
C426 C 0.24213 0.48871 0.82288 0.0
C427 C 0.27423 0.50149 0.81482 0.0
C428 C 0.21772 0.50524 0.81602 0.0
C429 C 0.2248 0.53503 0.80088 0.0
C430 C 0.2565 0.54721 0.79233 0.0
C431 C 0.28089 0.53042 0.79907 0.0
C432 C 0.20107 0.55645 0.79596 0.0
C433 C 0.1675 0.54107 0.79687 0.0
C434 C 0.14405 0.56307 0.79772 0.0
C435 C 0.10913 0.54398 0.7942 0.0
C436 C 0.08601 0.56181 0.79882 0.0
C437 C 0.09734 0.59914 0.80724 0.0
H438 H 0.182 0.61678 0.80833 0.0
C439 C 0.13219 0.61898 0.80955 0.0
C440 C 0.15536 0.60114 0.80492 0.0
H441 H 0.14172 0.64777 0.81603 0.0
H442 H 0.23631 0.46717 0.83544 0.0
H443 H 0.19406 0.49588 0.82364 0.0
H444 H 0.26268 0.57028 0.78079 0.0
H445 H 0.30521 0.54067 0.79229 0.0
H446 H 0.2119 0.58591 0.79236 0.0
H447 H 0.15668 0.51089 0.79822 0.0
H448 H 0.0997 0.51466 0.78875 0.0
H449 H 0.05929 0.54576 0.79676 0.0
C450 C 0.83733 0.2978 0.14998 0.0
C451 C 0.85807 0.32647 0.16533 0.0
C452 C 0.80618 0.27407 0.15578 0.0
C453 C 0.79508 0.27839 0.17714 0.0
C454 C 0.81573 0.30704 0.19243 0.0
C455 C 0.84695 0.33067 0.18668 0.0
C456 C 0.76152 0.25477 0.18358 0.0
C457 C 0.74529 0.21974 0.17497 0.0
C458 C 0.71164 0.19638 0.18137 0.0
C459 C 0.70291 0.15719 0.18011 0.0
C460 C 0.67137 0.13433 0.18582 0.0
C461 C 0.64766 0.15021 0.19258 0.0
H462 H 0.69315 0.24236 0.18839 0.0
C463 C 0.65614 0.18944 0.19345 0.0
C464 C 0.68777 0.21231 0.18791 0.0
H465 H 0.63835 0.20256 0.19845 0.0
H466 H 0.84471 0.29431 0.13319 0.0
H467 H 0.79054 0.25315 0.14321 0.0
H468 H 0.80773 0.31112 0.20894 0.0
H469 H 0.86239 0.35219 0.19901 0.0
H470 H 0.75059 0.26622 0.1966 0.0
H471 H 0.75767 0.20682 0.16368 0.0
H472 H 0.72067 0.1442 0.17488 0.0
H473 H 0.66555 0.10419 0.18484 0.0
C474 C 0.05157 0.58443 0.0612 0.0
C475 C 0.0261 0.55582 0.07058 0.0
C476 C 0.0521 0.58709 0.03751 0.0
C477 C 0.02688 0.56135 0.02262 0.0
C478 C 1.00174 0.53251 0.03207 0.0
C479 C 1.00131 0.52975 0.05574 0.0
C480 C 0.02599 0.56296 0.99727 0.0
C481 C 0.04284 0.59338 0.98599 0.0
C482 C 0.04014 0.59489 0.9606 0.0
C483 C 0.04734 0.62995 0.95047 0.0
C484 C 0.04363 0.63247 0.92669 0.0
C485 C 0.03272 0.5999 0.91251 0.0
H486 H 0.02621 0.53491 0.95333 0.0
C487 C 0.02677 0.56489 0.9226 0.0
C488 C 0.03063 0.56239 0.94634 0.0
H489 H 0.01885 0.53926 0.91217 0.0
H490 H 0.07131 0.60474 0.07214 0.0
H491 H 0.0726 0.60906 0.03111 0.0
H492 H 0.98214 0.51208 0.02109 0.0
H493 H 0.98137 0.50728 0.06237 0.0
H494 H 0.00913 0.53845 0.98758 0.0
H495 H 0.05746 0.61909 0.99548 0.0
H496 H 0.05515 0.65549 0.961 0.0
H497 H 0.04859 0.6599 0.91948 0.0
C498 C 0.52123 0.05809 0.43433 0.0
C499 C 0.54762 0.05205 0.44859 0.0
C500 C 0.52364 0.06262 0.41092 0.0
C501 C 0.55243 0.06088 0.40116 0.0
C502 C 0.57929 0.05616 0.41552 0.0
C503 C 0.57689 0.05161 0.43898 0.0
C504 C 0.55514 0.06394 0.37615 0.0
C505 C 0.52781 0.05283 0.36061 0.0
C506 C 0.52932 0.05386 0.33545 0.0
C507 C 0.50134 0.03085 0.32141 0.0
C508 C 0.50099 0.03122 0.29767 0.0
C509 C 0.52858 0.05491 0.2873 0.0
H510 H 0.57868 0.09665 0.33532 0.0
C511 C 0.55663 0.07817 0.3013 0.0
C512 C 0.557 0.07774 0.32515 0.0
H513 H 0.5782 0.09695 0.29385 0.0
H514 H 0.4985 0.05913 0.44118 0.0
H515 H 0.50294 0.06768 0.4006 0.0
H516 H 0.60193 0.05519 0.4085 0.0
H517 H 0.59782 0.04733 0.44951 0.0
H518 H 0.58032 0.07316 0.37051 0.0
H519 H 0.50296 0.04033 0.36647 0.0
H520 H 0.47958 0.01235 0.32884 0.0
H521 H 0.47891 0.01297 0.28746 0.0
C522 C 0.51187 0.50197 0.78521 0.0
C523 C 0.48147 0.48906 0.79549 0.0
C524 C 0.51154 0.50299 0.76145 0.0
C525 C 0.48073 0.49116 0.74739 0.0
C526 C 0.45035 0.47865 0.75764 0.0
C527 C 0.45068 0.47727 0.78143 0.0
C528 C 0.47952 0.49349 0.72213 0.0
C529 C 0.50441 0.49035 0.71024 0.0
C530 C 0.50446 0.4949 0.68515 0.0
C531 C 0.52295 0.47774 0.67296 0.0
C532 C 0.52526 0.48327 0.64958 0.0
C533 C 0.50954 0.50662 0.63796 0.0
H534 H 0.47463 0.53243 0.68239 0.0
C535 C 0.49086 0.52364 0.65015 0.0
C536 C 0.48832 0.51786 0.67347 0.0
H537 H 0.47855 0.54193 0.64176 0.0
H538 H 0.53604 0.51141 0.7955 0.0
H539 H 0.53544 0.5139 0.75421 0.0
H540 H 0.42627 0.46979 0.7472 0.0
H541 H 0.42678 0.46741 0.78879 0.0
H542 H 0.45695 0.49676 0.71308 0.0
H543 H 0.52531 0.48329 0.71908 0.0
H544 H 0.53586 0.46019 0.68158 0.0
H545 H 0.54 0.46986 0.64075 0.0
C546 C 0.49929 0.9856 0.59567 0.0
C547 C 0.52333 0.01718 0.58756 0.0
C548 C 0.49511 0.98274 0.61905 0.0
C549 C 0.5148 0.01163 0.63467 0.0
C550 C 0.53854 0.04319 0.62646 0.0
C551 C 0.54298 0.04583 0.60326 0.0
C552 C 0.51062 0.01102 0.65947 0.0
C553 C 0.49994 0.97947 0.67131 0.0
C554 C 0.49731 0.97985 0.69641 0.0
C555 C 0.47609 0.94797 0.7062 0.0
C556 C 0.47241 0.94776 0.72964 0.0
C557 C 0.48994 0.97952 0.74377 0.0
H558 H 0.53376 0.03557 0.70437 0.0
C559 C 0.51196 0.01095 0.73411 0.0
C560 C 0.51586 0.01103 0.71081 0.0
H561 H 0.52635 0.03564 0.74457 0.0
H562 H 0.48366 0.96313 0.58398 0.0
H563 H 0.47597 0.95841 0.62468 0.0
H564 H 0.55386 0.06594 0.63809 0.0
H565 H 0.56159 0.07068 0.59763 0.0
H566 H 0.51763 0.03815 0.66825 0.0
H567 H 0.49262 0.95235 0.66241 0.0
H568 H 0.46187 0.92335 0.69562 0.0
H569 H 0.45536 0.92302 0.73657 0.0
C570 C 0.4599 0.49118 0.95153 0.0
C571 C 0.48684 0.4879 0.94014 0.0
C572 C 0.46247 0.49359 0.97547 0.0
C573 C 0.49217 0.4929 0.98848 0.0
C574 C 0.51867 0.48887 0.97702 0.0
C575 C 0.51613 0.48649 0.95321 0.0
C576 C 0.49709 0.49622 0.01391 0.0
C577 C 0.4781 0.50854 0.0272 0.0
C578 C 0.48707 0.51528 0.05233 0.0
C579 C 0.47858 0.5434 0.06352 0.0
C580 C 0.49061 0.55372 0.08644 0.0
C581 C 0.51128 0.53596 0.0985 0.0
H582 H 0.51117 0.4725 0.05749 0.0
C583 C 0.51782 0.50618 0.08779 0.0
C584 C 0.50549 0.49558 0.06508 0.0
H585 H 0.53326 0.49163 0.09685 0.0
H586 H 0.43687 0.4921 0.94197 0.0
H587 H 0.44109 0.49576 0.98354 0.0
H588 H 0.54178 0.488 0.98652 0.0
H589 H 0.53736 0.48382 0.9451 0.0
H590 H 0.51927 0.49065 0.02188 0.0
H591 H 0.45753 0.51729 0.01946 0.0
H592 H 0.46406 0.55871 0.05421 0.0
H593 H 0.48547 0.57704 0.09422 0.0
C594 C 0.03103 0.51267 0.22469 0.0
C595 C 0.02328 0.54158 0.21281 0.0
C596 C 0.03123 0.51141 0.2485 0.0
C597 C 0.02362 0.53908 0.26088 0.0
C598 C 0.01542 0.56757 0.24894 0.0
C599 C 0.01547 0.569 0.22522 0.0
C600 C 0.02262 0.5384 0.28606 0.0
C601 C 0.04091 0.52261 0.30018 0.0
C602 C 0.03965 0.52231 0.32537 0.0
C603 C 0.06766 0.52009 0.33959 0.0
C604 C 0.06706 0.51911 0.36334 0.0
C605 C 0.0382 0.51988 0.37335 0.0
H606 H 0.98819 0.5234 0.32501 0.0
C607 C 0.01006 0.52183 0.35908 0.0
C608 C 0.01072 0.52293 0.33539 0.0
H609 H 0.98728 0.52211 0.36618 0.0
H610 H 0.03696 0.49098 0.21563 0.0
H611 H 0.0367 0.48837 0.25702 0.0
H612 H 0.00913 0.58901 0.25802 0.0
H613 H 0.00918 0.59155 0.21663 0.0
H614 H 0.00747 0.55323 0.29324 0.0
H615 H 0.05864 0.51104 0.29329 0.0
H616 H 0.09015 0.51923 0.33231 0.0
H617 H 0.0891 0.51737 0.37381 0.0
loop_
_geom_bond_atom_site_label_1
_geom_bond_atom_site_label_2
_geom_bond_distance
_geom_bond_site_symmetry_2
_ccdc_geom_bond_type
Dy0 O3 2.307 1_455 S
Dy0 O5 2.395 . S
Dy0 O6 2.379 . S
Dy0 O8 2.339 . S
Dy0 O10 2.298 . S
Dy0 O14 2.275 . S
Dy0 C22 2.738 . S
Dy1 O4 2.298 . S
Dy1 O7 2.275 1_655 S
Dy1 O9 2.307 1_655 S
Dy1 O11 2.395 . S
Dy1 O12 2.379 . S
Dy1 O15 2.339 . S
Dy1 C31 2.738 . S
C2 O14 1.254 . S
C2 O15 1.257 1_455 S
O3 Dy0 2.307 1_655 S
O3 C13 1.266 . S
O4 Dy1 2.298 . S
O4 C13 1.236 . S
O5 Dy0 2.395 . S
O5 C22 1.255 . S
O6 Dy0 2.379 . S
O6 C22 1.249 . S
O7 Dy1 2.275 1_455 S
O7 C23 1.254 . S
O8 Dy0 2.339 . S
O8 C23 1.257 . S
O9 Dy1 2.307 1_455 S
O9 C24 1.266 . S
O10 Dy0 2.298 . S
O10 C24 1.236 . S
O11 Dy1 2.395 . S
O11 C31 1.255 . S
O12 Dy1 2.379 . S
O12 C31 1.249 . S
C13 O3 1.266 . S
C13 O4 1.236 . S
O14 Dy0 2.275 . S
O14 C2 1.254 . S
O15 Dy1 2.339 . S
O15 C2 1.257 1_655 S
C16 C19 1.344 . S
C16 C20 1.328 . S
C16 C22 1.516 . S
C17 C18 1.304 . S
C17 C21 1.323 . S
C18 C17 1.304 . S
C18 C19 1.371 . S
C18 H32 0.930 . S
C19 C16 1.344 . S
C19 C18 1.371 . S
C19 H33 0.931 . S
C20 C16 1.328 . S
C20 C21 1.433 . S
C20 H34 0.931 . S
C21 C17 1.323 . S
C21 C20 1.433 . S
C21 H35 0.933 . S
C22 Dy0 2.738 . S
C22 O5 1.255 . S
C22 O6 1.249 . S
C22 C16 1.516 . S
C23 O7 1.254 . S
C23 O8 1.257 . S
C24 O9 1.266 . S
C24 O10 1.236 . S
C25 C28 1.344 . S
C25 C29 1.328 . S
C25 C31 1.516 . S
C26 C27 1.304 . S
C26 C30 1.323 . S
C27 C26 1.304 . S
C27 C28 1.371 . S
C27 H36 0.930 . S
C28 C25 1.344 . S
C28 C27 1.371 . S
C28 H37 0.931 . S
C29 C25 1.328 . S
C29 C30 1.433 . S
C29 H38 0.931 . S
C30 C26 1.323 . S
C30 C29 1.433 . S
C30 H39 0.933 . S
C31 Dy1 2.738 . S
C31 O11 1.255 . S
C31 O12 1.249 . S
C31 C25 1.516 . S
H32 C18 0.930 . S
H33 C19 0.931 . S
H34 C20 0.931 . S
H35 C21 0.933 . S
H36 C27 0.930 . S
H37 C28 0.931 . S
H38 C29 0.931 . S
H39 C30 0.933 . S
Dy40 O43 2.307 . S
Dy40 O45 2.395 1_545 S
Dy40 O46 2.379 1_545 S
Dy40 O48 2.339 . S
Dy40 O50 2.298 1_545 S
Dy40 O54 2.275 . S
Dy40 C62 2.738 1_545 S
Dy41 O44 2.298 . S
Dy41 O47 2.275 . S
Dy41 O49 2.307 1_545 S
Dy41 O51 2.395 . S
Dy41 O52 2.379 . S
Dy41 O55 2.339 . S
Dy41 C71 2.738 . S
C42 O54 1.254 . S
C42 O55 1.257 . S
O43 Dy40 2.307 . S
O43 C53 1.266 . S
O44 Dy41 2.298 . S
O44 C53 1.236 . S
O45 Dy40 2.395 1_565 S
O45 C62 1.255 . S
O46 Dy40 2.379 1_565 S
O46 C62 1.249 . S
O47 Dy41 2.275 . S
O47 C63 1.254 . S
O48 Dy40 2.339 . S
O48 C63 1.257 . S
O49 Dy41 2.307 1_565 S
O49 C64 1.266 . S
O50 Dy40 2.298 1_565 S
O50 C64 1.236 . S
O51 Dy41 2.395 . S
O51 C71 1.255 . S
O52 Dy41 2.379 . S
O52 C71 1.249 . S
C53 O43 1.266 . S
C53 O44 1.236 . S
O54 Dy40 2.275 . S
O54 C42 1.254 . S
O55 Dy41 2.339 . S
O55 C42 1.257 . S
C56 C59 1.344 . S
C56 C60 1.328 . S
C56 C62 1.516 . S
C57 C58 1.304 . S
C57 C61 1.323 . S
C58 C57 1.304 . S
C58 C59 1.371 . S
C58 H72 0.930 . S
C59 C56 1.344 . S
C59 C58 1.371 . S
C59 H73 0.931 . S
C60 C56 1.328 . S
C60 C61 1.433 . S
C60 H74 0.931 . S
C61 C57 1.323 . S
C61 C60 1.433 . S
C61 H75 0.933 . S
C62 Dy40 2.738 1_565 S
C62 O45 1.255 . S
C62 O46 1.249 . S
C62 C56 1.516 . S
C63 O47 1.254 . S
C63 O48 1.257 . S
C64 O49 1.266 . S
C64 O50 1.236 . S
C65 C68 1.344 . S
C65 C69 1.328 . S
C65 C71 1.516 . S
C66 C67 1.304 . S
C66 C70 1.323 . S
C67 C66 1.304 . S
C67 C68 1.371 . S
C67 H76 0.930 . S
C68 C65 1.344 . S
C68 C67 1.371 . S
C68 H77 0.931 . S
C69 C65 1.328 . S
C69 C70 1.433 . S
C69 H78 0.931 . S
C70 C66 1.323 . S
C70 C69 1.433 . S
C70 H79 0.933 . S
C71 Dy41 2.738 . S
C71 O51 1.255 . S
C71 O52 1.249 . S
C71 C65 1.516 . S
H72 C58 0.930 . S
H73 C59 0.931 . S
H74 C60 0.931 . S
H75 C61 0.933 . S
H76 C67 0.930 . S
H77 C68 0.931 . S
H78 C69 0.931 . S
H79 C70 0.933 . S
Dy80 O83 2.307 . S
Dy80 O85 2.395 . S
Dy80 O86 2.379 . S
Dy80 O88 2.339 . S
Dy80 O90 2.298 . S
Dy80 O94 2.275 . S
Dy80 C102 2.738 . S
Dy81 O84 2.298 . S
Dy81 O87 2.275 . S
Dy81 O89 2.307 . S
Dy81 O91 2.395 . S
Dy81 O92 2.379 . S
Dy81 O95 2.339 . S
Dy81 C111 2.738 . S
C82 O94 1.254 . S
C82 O95 1.257 . S
O83 Dy80 2.307 . S
O83 C93 1.266 . S
O84 Dy81 2.298 . S
O84 C93 1.236 . S
O85 Dy80 2.395 . S
O85 C102 1.255 . S
O86 Dy80 2.379 . S
O86 C102 1.249 . S
O87 Dy81 2.275 . S
O87 C103 1.254 . S
O88 Dy80 2.339 . S
O88 C103 1.257 . S
O89 Dy81 2.307 . S
O89 C104 1.266 . S
O90 Dy80 2.298 . S
O90 C104 1.236 . S
O91 Dy81 2.395 . S
O91 C111 1.255 . S
O92 Dy81 2.379 . S
O92 C111 1.249 . S
C93 O83 1.266 . S
C93 O84 1.236 . S
O94 Dy80 2.275 . S
O94 C82 1.254 . S
O95 Dy81 2.339 . S
O95 C82 1.257 . S
C96 C99 1.344 . S
C96 C100 1.328 . S
C96 C102 1.516 . S
C97 C98 1.304 . S
C97 C101 1.323 . S
C98 C97 1.304 . S
C98 C99 1.371 . S
C98 H112 0.930 . S
C99 C96 1.344 . S
C99 C98 1.371 . S
C99 H113 0.931 . S
C100 C96 1.328 . S
C100 C101 1.433 . S
C100 H114 0.931 . S
C101 C97 1.323 . S
C101 C100 1.433 . S
C101 H115 0.933 . S
C102 Dy80 2.738 . S
C102 O85 1.255 . S
C102 O86 1.249 . S
C102 C96 1.516 . S
C103 O87 1.254 . S
C103 O88 1.257 . S
C104 O89 1.266 . S
C104 O90 1.236 . S
C105 C108 1.344 . S
C105 C109 1.328 . S
C105 C111 1.516 . S
C106 C107 1.304 . S
C106 C110 1.323 . S
C107 C106 1.304 . S
C107 C108 1.371 . S
C107 H116 0.930 . S
C108 C105 1.344 . S
C108 C107 1.371 . S
C108 H117 0.931 . S
C109 C105 1.328 . S
C109 C110 1.433 . S
C109 H118 0.931 . S
C110 C106 1.323 . S
C110 C109 1.433 . S
C110 H119 0.933 . S
C111 Dy81 2.738 . S
C111 O91 1.255 . S
C111 O92 1.249 . S
C111 C105 1.516 . S
H112 C98 0.930 . S
H113 C99 0.931 . S
H114 C100 0.931 . S
H115 C101 0.933 . S
H116 C107 0.930 . S
H117 C108 0.931 . S
H118 C109 0.931 . S
H119 C110 0.933 . S
O120 Cd121 2.300 . S
O120 C127 1.275 . S
Cd121 O120 2.300 . S
Cd121 O129 2.381 . S
Cd121 O130 2.378 . S
O122 Cd123 2.385 1_545 S
O122 C127 1.255 . S
Cd123 O122 2.385 1_565 S
Cd123 O124 2.317 . S
O124 Cd123 2.317 . S
O124 C125 1.232 . S
C125 O124 1.232 . S
C125 O126 1.218 . S
O126 C125 1.218 . S
C127 O120 1.275 . S
C127 O122 1.255 . S
C128 O129 1.258 . S
C128 O130 1.256 . S
O129 Cd121 2.381 . S
O129 C128 1.258 . S
O130 Cd121 2.378 . S
O130 C128 1.256 . S
O131 Cd132 2.300 . S
O131 C138 1.275 . S
Cd132 O131 2.300 . S
Cd132 O140 2.381 . S
Cd132 O141 2.378 . S
O133 Cd134 2.385 . S
O133 C138 1.255 . S
Cd134 O133 2.385 . S
Cd134 O135 2.317 . S
O135 Cd134 2.317 . S
O135 C136 1.232 . S
C136 O135 1.232 . S
C136 O137 1.218 . S
O137 C136 1.218 . S
C138 O131 1.275 . S
C138 O133 1.255 . S
C139 O140 1.258 . S
C139 O141 1.256 . S
O140 Cd132 2.381 . S
O140 C139 1.258 . S
O141 Cd132 2.378 . S
O141 C139 1.256 . S
O142 Cd143 2.300 . S
O142 C149 1.275 . S
Cd143 O142 2.300 . S
Cd143 O151 2.381 . S
Cd143 O152 2.378 . S
O144 Cd145 2.385 . S
O144 C149 1.255 1_655 S
Cd145 O144 2.385 . S
Cd145 O146 2.317 . S
O146 Cd145 2.317 . S
O146 C147 1.232 . S
C147 O146 1.232 . S
C147 O148 1.218 . S
O148 C147 1.218 . S
C149 O142 1.275 . S
C149 O144 1.255 1_455 S
C150 O151 1.258 . S
C150 O152 1.256 . S
O151 Cd143 2.381 . S
O151 C150 1.258 . S
O152 Cd143 2.378 . S
O152 C150 1.256 . S
O153 Cd154 2.300 . S
O153 C160 1.275 . S
Cd154 O153 2.300 . S
Cd154 O162 2.381 . S
Cd154 O163 2.378 . S
O155 Cd156 2.385 . S
O155 C160 1.255 1_655 S
Cd156 O155 2.385 . S
Cd156 O157 2.317 . S
O157 Cd156 2.317 . S
O157 C158 1.232 . S
C158 O157 1.232 . S
C158 O159 1.218 . S
O159 C158 1.218 . S
C160 O153 1.275 . S
C160 O155 1.255 1_455 S
C161 O162 1.258 . S
C161 O163 1.256 . S
O162 Cd154 2.381 . S
O162 C161 1.258 . S
O163 Cd154 2.378 . S
O163 C161 1.256 . S
O164 Cd165 2.300 . S
O164 C171 1.275 1_565 S
Cd165 O164 2.300 . S
Cd165 O173 2.381 . S
Cd165 O174 2.378 . S
O166 Cd167 2.385 . S
O166 C171 1.255 . S
Cd167 O166 2.385 . S
Cd167 O168 2.317 . S
O168 Cd167 2.317 . S
O168 C169 1.232 . S
C169 O168 1.232 . S
C169 O170 1.218 . S
O170 C169 1.218 . S
C171 O164 1.275 1_545 S
C171 O166 1.255 . S
C172 O173 1.258 . S
C172 O174 1.256 . S
O173 Cd165 2.381 . S
O173 C172 1.258 . S
O174 Cd165 2.378 . S
O174 C172 1.256 . S
O175 Cd176 2.300 . S
O175 C182 1.275 . S
Cd176 O175 2.300 . S
Cd176 O184 2.381 . S
Cd176 O185 2.378 . S
O177 Cd178 2.385 . S
O177 C182 1.255 . S
Cd178 O177 2.385 . S
Cd178 O179 2.317 . S
O179 Cd178 2.317 . S
O179 C180 1.232 . S
C180 O179 1.232 . S
C180 O181 1.218 . S
O181 C180 1.218 . S
C182 O175 1.275 . S
C182 O177 1.255 . S
C183 O184 1.258 . S
C183 O185 1.256 . S
O184 Cd176 2.381 . S
O184 C183 1.258 . S
O185 Cd176 2.378 . S
O185 C183 1.256 . S
C186 C187 1.386 . S
C186 C188 1.383 . S
C186 H202 0.951 . S
C187 C186 1.386 . S
C187 C191 1.383 . S
C188 C186 1.383 . S
C188 C189 1.402 . S
C188 H203 0.951 . S
C189 C188 1.402 . S
C189 C190 1.375 . S
C189 C192 1.481 . S
C190 C189 1.375 . S
C190 C191 1.367 . S
C190 H204 0.951 . S
C191 C187 1.383 . S
C191 C190 1.367 . S
C191 H205 0.950 . S
C192 C189 1.481 . S
C192 C193 1.297 . S
C192 H206 0.950 . S
C193 C192 1.297 . S
C193 C194 1.479 . S
C193 H207 0.950 . S
C194 C193 1.479 . S
C194 C195 1.375 . S
C194 C200 1.404 . S
C195 C194 1.375 . S
C195 C196 1.369 . S
C195 H208 0.950 . S
C196 C195 1.369 . S
C196 C197 1.392 . S
C196 H209 0.951 . S
C197 C196 1.392 . S
C197 C199 1.384 . S
H198 C200 0.949 . S
C199 C197 1.384 . S
C199 C200 1.385 . S
C199 H201 0.950 . S
C200 C194 1.404 . S
C200 H198 0.949 . S
C200 C199 1.385 . S
H201 C199 0.950 . S
H202 C186 0.951 . S
H203 C188 0.951 . S
H204 C190 0.951 . S
H205 C191 0.950 . S
H206 C192 0.950 . S
H207 C193 0.950 . S
H208 C195 0.950 . S
H209 C196 0.951 . S
C210 C211 1.386 . S
C210 C212 1.383 . S
C210 H226 0.951 . S
C211 C210 1.386 . S
C211 C215 1.383 . S
C212 C210 1.383 . S
C212 C213 1.402 . S
C212 H227 0.951 . S
C213 C212 1.402 . S
C213 C214 1.375 . S
C213 C216 1.481 . S
C214 C213 1.375 . S
C214 C215 1.367 . S
C214 H228 0.951 . S
C215 C211 1.383 . S
C215 C214 1.367 . S
C215 H229 0.950 . S
C216 C213 1.481 . S
C216 C217 1.297 . S
C216 H230 0.950 . S
C217 C216 1.297 . S
C217 C218 1.479 . S
C217 H231 0.950 . S
C218 C217 1.479 . S
C218 C219 1.375 . S
C218 C224 1.404 . S
C219 C218 1.375 . S
C219 C220 1.369 . S
C219 H232 0.950 . S
C220 C219 1.369 . S
C220 C221 1.392 . S
C220 H233 0.951 . S
C221 C220 1.392 . S
C221 C223 1.384 . S
H222 C224 0.949 . S
C223 C221 1.384 . S
C223 C224 1.385 . S
C223 H225 0.950 . S
C224 C218 1.404 . S
C224 H222 0.949 . S
C224 C223 1.385 . S
H225 C223 0.950 . S
H226 C210 0.951 . S
H227 C212 0.951 . S
H228 C214 0.951 . S
H229 C215 0.950 . S
H230 C216 0.950 . S
H231 C217 0.950 . S
H232 C219 0.950 . S
H233 C220 0.951 . S
C234 C235 1.386 . S
C234 C236 1.383 . S
C234 H250 0.951 . S
C235 C234 1.386 . S
C235 C239 1.383 . S
C236 C234 1.383 . S
C236 C237 1.402 . S
C236 H251 0.951 . S
C237 C236 1.402 . S
C237 C238 1.375 . S
C237 C240 1.481 . S
C238 C237 1.375 . S
C238 C239 1.367 . S
C238 H252 0.951 . S
C239 C235 1.383 . S
C239 C238 1.367 . S
C239 H253 0.950 . S
C240 C237 1.481 . S
C240 C241 1.297 . S
C240 H254 0.950 . S
C241 C240 1.297 . S
C241 C242 1.479 . S
C241 H255 0.950 . S
C242 C241 1.479 . S
C242 C243 1.375 . S
C242 C248 1.404 . S
C243 C242 1.375 . S
C243 C244 1.369 . S
C243 H256 0.950 . S
C244 C243 1.369 . S
C244 C245 1.392 . S
C244 H257 0.951 . S
C245 C244 1.392 . S
C245 C247 1.384 . S
H246 C248 0.949 . S
C247 C245 1.384 . S
C247 C248 1.385 . S
C247 H249 0.950 . S
C248 C242 1.404 . S
C248 H246 0.949 . S
C248 C247 1.385 . S
H249 C247 0.950 . S
H250 C234 0.951 . S
H251 C236 0.951 . S
H252 C238 0.951 . S
H253 C239 0.950 . S
H254 C240 0.950 . S
H255 C241 0.950 . S
H256 C243 0.950 . S
H257 C244 0.951 . S
C258 C259 1.386 . S
C258 C260 1.383 . S
C258 H274 0.951 . S
C259 C258 1.386 . S
C259 C263 1.383 . S
C260 C258 1.383 . S
C260 C261 1.402 . S
C260 H275 0.951 . S
C261 C260 1.402 . S
C261 C262 1.375 . S
C261 C264 1.481 . S
C262 C261 1.375 . S
C262 C263 1.367 . S
C262 H276 0.951 . S
C263 C259 1.383 . S
C263 C262 1.367 . S
C263 H277 0.950 . S
C264 C261 1.481 . S
C264 C265 1.297 . S
C264 H278 0.950 . S
C265 C264 1.297 . S
C265 C266 1.479 . S
C265 H279 0.950 . S
C266 C265 1.479 . S
C266 C267 1.375 . S
C266 C272 1.404 . S
C267 C266 1.375 . S
C267 C268 1.369 . S
C267 H280 0.950 . S
C268 C267 1.369 . S
C268 C269 1.392 . S
C268 H281 0.951 . S
C269 C268 1.392 . S
C269 C271 1.384 . S
H270 C272 0.949 . S
C271 C269 1.384 . S
C271 C272 1.385 . S
C271 H273 0.950 . S
C272 C266 1.404 . S
C272 H270 0.949 . S
C272 C271 1.385 . S
H273 C271 0.950 . S
H274 C258 0.951 . S
H275 C260 0.951 . S
H276 C262 0.951 . S
H277 C263 0.950 . S
H278 C264 0.950 . S
H279 C265 0.950 . S
H280 C267 0.950 . S
H281 C268 0.951 . S
C282 C283 1.386 . S
C282 C284 1.383 . S
C282 H298 0.951 . S
C283 C282 1.386 . S
C283 C287 1.383 . S
C284 C282 1.383 . S
C284 C285 1.402 . S
C284 H299 0.951 . S
C285 C284 1.402 . S
C285 C286 1.375 . S
C285 C288 1.481 . S
C286 C285 1.375 . S
C286 C287 1.367 . S
C286 H300 0.951 . S
C287 C283 1.383 . S
C287 C286 1.367 . S
C287 H301 0.950 . S
C288 C285 1.481 . S
C288 C289 1.297 . S
C288 H302 0.950 . S
C289 C288 1.297 . S
C289 C290 1.479 . S
C289 H303 0.950 . S
C290 C289 1.479 . S
C290 C291 1.375 . S
C290 C296 1.404 . S
C291 C290 1.375 . S
C291 C292 1.369 . S
C291 H304 0.950 . S
C292 C291 1.369 . S
C292 C293 1.392 . S
C292 H305 0.951 . S
C293 C292 1.392 . S
C293 C295 1.384 . S
H294 C296 0.949 . S
C295 C293 1.384 . S
C295 C296 1.385 . S
C295 H297 0.950 . S
C296 C290 1.404 . S
C296 H294 0.949 . S
C296 C295 1.385 . S
H297 C295 0.950 . S
H298 C282 0.951 . S
H299 C284 0.951 . S
H300 C286 0.951 . S
H301 C287 0.950 . S
H302 C288 0.950 . S
H303 C289 0.950 . S
H304 C291 0.950 . S
H305 C292 0.951 . S
C306 C307 1.386 . S
C306 C308 1.383 . S
C306 H322 0.951 . S
C307 C306 1.386 . S
C307 C311 1.383 . S
C308 C306 1.383 . S
C308 C309 1.402 . S
C308 H323 0.951 . S
C309 C308 1.402 . S
C309 C310 1.375 . S
C309 C312 1.481 . S
C310 C309 1.375 . S
C310 C311 1.367 . S
C310 H324 0.951 . S
C311 C307 1.383 . S
C311 C310 1.367 . S
C311 H325 0.950 . S
C312 C309 1.481 . S
C312 C313 1.297 . S
C312 H326 0.950 . S
C313 C312 1.297 . S
C313 C314 1.479 . S
C313 H327 0.950 . S
C314 C313 1.479 . S
C314 C315 1.375 . S
C314 C320 1.404 . S
C315 C314 1.375 . S
C315 C316 1.369 . S
C315 H328 0.950 . S
C316 C315 1.369 . S
C316 C317 1.392 . S
C316 H329 0.951 . S
C317 C316 1.392 . S
C317 C319 1.384 . S
H318 C320 0.949 . S
C319 C317 1.384 . S
C319 C320 1.385 . S
C319 H321 0.950 . S
C320 C314 1.404 . S
C320 H318 0.949 . S
C320 C319 1.385 . S
H321 C319 0.950 . S
H322 C306 0.951 . S
H323 C308 0.951 . S
H324 C310 0.951 . S
H325 C311 0.950 . S
H326 C312 0.950 . S
H327 C313 0.950 . S
H328 C315 0.950 . S
H329 C316 0.951 . S
C330 C331 1.386 . S
C330 C332 1.383 . S
C330 H346 0.951 . S
C331 C330 1.386 . S
C331 C335 1.383 . S
C332 C330 1.383 . S
C332 C333 1.402 . S
C332 H347 0.951 . S
C333 C332 1.402 . S
C333 C334 1.375 . S
C333 C336 1.481 . S
C334 C333 1.375 . S
C334 C335 1.367 . S
C334 H348 0.951 . S
C335 C331 1.383 . S
C335 C334 1.367 . S
C335 H349 0.950 . S
C336 C333 1.481 . S
C336 C337 1.297 . S
C336 H350 0.950 . S
C337 C336 1.297 . S
C337 C338 1.479 . S
C337 H351 0.950 . S
C338 C337 1.479 . S
C338 C339 1.375 . S
C338 C344 1.404 . S
C339 C338 1.375 . S
C339 C340 1.369 . S
C339 H352 0.950 . S
C340 C339 1.369 . S
C340 C341 1.392 . S
C340 H353 0.951 . S
C341 C340 1.392 . S
C341 C343 1.384 . S
H342 C344 0.949 . S
C343 C341 1.384 . S
C343 C344 1.385 . S
C343 H345 0.950 . S
C344 C338 1.404 . S
C344 H342 0.949 . S
C344 C343 1.385 . S
H345 C343 0.950 . S
H346 C330 0.951 . S
H347 C332 0.951 . S
H348 C334 0.951 . S
H349 C335 0.950 . S
H350 C336 0.950 . S
H351 C337 0.950 . S
H352 C339 0.950 . S
H353 C340 0.951 . S
C354 C355 1.386 . S
C354 C356 1.383 . S
C354 H370 0.951 . S
C355 C354 1.386 . S
C355 C359 1.383 . S
C356 C354 1.383 . S
C356 C357 1.402 . S
C356 H371 0.951 . S
C357 C356 1.402 . S
C357 C358 1.375 . S
C357 C360 1.481 . S
C358 C357 1.375 . S
C358 C359 1.367 . S
C358 H372 0.951 . S
C359 C355 1.383 . S
C359 C358 1.367 . S
C359 H373 0.950 . S
C360 C357 1.481 . S
C360 C361 1.297 . S
C360 H374 0.950 . S
C361 C360 1.297 . S
C361 C362 1.479 . S
C361 H375 0.950 . S
C362 C361 1.479 . S
C362 C363 1.375 . S
C362 C368 1.404 . S
C363 C362 1.375 . S
C363 C364 1.369 . S
C363 H376 0.950 . S
C364 C363 1.369 . S
C364 C365 1.392 . S
C364 H377 0.951 . S
C365 C364 1.392 . S
C365 C367 1.384 . S
H366 C368 0.949 . S
C367 C365 1.384 . S
C367 C368 1.385 . S
C367 H369 0.950 . S
C368 C362 1.404 . S
C368 H366 0.949 . S
C368 C367 1.385 . S
H369 C367 0.950 . S
H370 C354 0.951 . S
H371 C356 0.951 . S
H372 C358 0.951 . S
H373 C359 0.950 . S
H374 C360 0.950 . S
H375 C361 0.950 . S
H376 C363 0.950 . S
H377 C364 0.951 . S
C378 C379 1.386 . S
C378 C380 1.383 . S
C378 H394 0.951 . S
C379 C378 1.386 . S
C379 C383 1.383 . S
C380 C378 1.383 . S
C380 C381 1.402 . S
C380 H395 0.951 . S
C381 C380 1.402 . S
C381 C382 1.375 . S
C381 C384 1.481 . S
C382 C381 1.375 . S
C382 C383 1.367 . S
C382 H396 0.951 . S
C383 C379 1.383 . S
C383 C382 1.367 . S
C383 H397 0.950 . S
C384 C381 1.481 . S
C384 C385 1.297 . S
C384 H398 0.950 . S
C385 C384 1.297 . S
C385 C386 1.479 . S
C385 H399 0.950 . S
C386 C385 1.479 . S
C386 C387 1.375 . S
C386 C392 1.404 . S
C387 C386 1.375 . S
C387 C388 1.369 . S
C387 H400 0.950 . S
C388 C387 1.369 . S
C388 C389 1.392 . S
C388 H401 0.951 . S
C389 C388 1.392 . S
C389 C391 1.384 . S
H390 C392 0.949 . S
C391 C389 1.384 . S
C391 C392 1.385 . S
C391 H393 0.950 . S
C392 C386 1.404 . S
C392 H390 0.949 . S
C392 C391 1.385 . S
H393 C391 0.950 . S
H394 C378 0.951 . S
H395 C380 0.951 . S
H396 C382 0.951 . S
H397 C383 0.950 . S
H398 C384 0.950 . S
H399 C385 0.950 . S
H400 C387 0.950 . S
H401 C388 0.951 . S
C402 C403 1.386 . S
C402 C404 1.383 . S
C402 H418 0.951 . S
C403 C402 1.386 . S
C403 C407 1.383 . S
C404 C402 1.383 . S
C404 C405 1.402 . S
C404 H419 0.951 . S
C405 C404 1.402 . S
C405 C406 1.375 . S
C405 C408 1.481 . S
C406 C405 1.375 . S
C406 C407 1.367 . S
C406 H420 0.951 . S
C407 C403 1.383 . S
C407 C406 1.367 . S
C407 H421 0.950 . S
C408 C405 1.481 . S
C408 C409 1.297 . S
C408 H422 0.950 . S
C409 C408 1.297 . S
C409 C410 1.479 . S
C409 H423 0.950 . S
C410 C409 1.479 . S
C410 C411 1.375 . S
C410 C416 1.404 . S
C411 C410 1.375 . S
C411 C412 1.369 . S
C411 H424 0.950 . S
C412 C411 1.369 . S
C412 C413 1.392 . S
C412 H425 0.951 . S
C413 C412 1.392 . S
C413 C415 1.384 . S
H414 C416 0.949 . S
C415 C413 1.384 . S
C415 C416 1.385 . S
C415 H417 0.950 . S
C416 C410 1.404 . S
C416 H414 0.949 . S
C416 C415 1.385 . S
H417 C415 0.950 . S
H418 C402 0.951 . S
H419 C404 0.951 . S
H420 C406 0.951 . S
H421 C407 0.950 . S
H422 C408 0.950 . S
H423 C409 0.950 . S
H424 C411 0.950 . S
H425 C412 0.951 . S
C426 C427 1.386 . S
C426 C428 1.383 . S
C426 H442 0.951 . S
C427 C426 1.386 . S
C427 C431 1.383 . S
C428 C426 1.383 . S
C428 C429 1.402 . S
C428 H443 0.951 . S
C429 C428 1.402 . S
C429 C430 1.375 . S
C429 C432 1.481 . S
C430 C429 1.375 . S
C430 C431 1.367 . S
C430 H444 0.951 . S
C431 C427 1.383 . S
C431 C430 1.367 . S
C431 H445 0.950 . S
C432 C429 1.481 . S
C432 C433 1.297 . S
C432 H446 0.950 . S
C433 C432 1.297 . S
C433 C434 1.479 . S
C433 H447 0.950 . S
C434 C433 1.479 . S
C434 C435 1.375 . S
C434 C440 1.404 . S
C435 C434 1.375 . S
C435 C436 1.369 . S
C435 H448 0.950 . S
C436 C435 1.369 . S
C436 C437 1.392 . S
C436 H449 0.951 . S
C437 C436 1.392 . S
C437 C439 1.384 . S
H438 C440 0.949 . S
C439 C437 1.384 . S
C439 C440 1.385 . S
C439 H441 0.950 . S
C440 C434 1.404 . S
C440 H438 0.949 . S
C440 C439 1.385 . S
H441 C439 0.950 . S
H442 C426 0.951 . S
H443 C428 0.951 . S
H444 C430 0.951 . S
H445 C431 0.950 . S
H446 C432 0.950 . S
H447 C433 0.950 . S
H448 C435 0.950 . S
H449 C436 0.951 . S
C450 C451 1.386 . S
C450 C452 1.383 . S
C450 H466 0.951 . S
C451 C450 1.386 . S
C451 C455 1.383 . S
C452 C450 1.383 . S
C452 C453 1.402 . S
C452 H467 0.951 . S
C453 C452 1.402 . S
C453 C454 1.375 . S
C453 C456 1.481 . S
C454 C453 1.375 . S
C454 C455 1.367 . S
C454 H468 0.951 . S
C455 C451 1.383 . S
C455 C454 1.367 . S
C455 H469 0.950 . S
C456 C453 1.481 . S
C456 C457 1.297 . S
C456 H470 0.950 . S
C457 C456 1.297 . S
C457 C458 1.479 . S
C457 H471 0.950 . S
C458 C457 1.479 . S
C458 C459 1.375 . S
C458 C464 1.404 . S
C459 C458 1.375 . S
C459 C460 1.369 . S
C459 H472 0.950 . S
C460 C459 1.369 . S
C460 C461 1.392 . S
C460 H473 0.951 . S
C461 C460 1.392 . S
C461 C463 1.384 . S
H462 C464 0.949 . S
C463 C461 1.384 . S
C463 C464 1.385 . S
C463 H465 0.950 . S
C464 C458 1.404 . S
C464 H462 0.949 . S
C464 C463 1.385 . S
H465 C463 0.950 . S
H466 C450 0.951 . S
H467 C452 0.951 . S
H468 C454 0.951 . S
H469 C455 0.950 . S
H470 C456 0.950 . S
H471 C457 0.950 . S
H472 C459 0.950 . S
H473 C460 0.951 . S
C474 C475 1.386 . S
C474 C476 1.383 . S
C474 H490 0.951 . S
C475 C474 1.386 . S
C475 C479 1.383 1_455 S
C476 C474 1.383 . S
C476 C477 1.402 . S
C476 H491 0.951 . S
C477 C476 1.402 . S
C477 C478 1.375 1_455 S
C477 C480 1.481 . S
C478 C477 1.375 1_655 S
C478 C479 1.367 . S
C478 H492 0.951 . S
C479 C475 1.383 1_655 S
C479 C478 1.367 . S
C479 H493 0.950 . S
C480 C477 1.481 . S
C480 C481 1.297 . S
C480 H494 0.950 1_455 S
C481 C480 1.297 . S
C481 C482 1.479 1_554 S
C481 H495 0.950 . S
C482 C481 1.479 1_556 S
C482 C483 1.375 . S
C482 C488 1.404 . S
C483 C482 1.375 . S
C483 C484 1.369 . S
C483 H496 0.950 . S
C484 C483 1.369 . S
C484 C485 1.392 . S
C484 H497 0.951 . S
C485 C484 1.392 . S
C485 C487 1.384 . S
H486 C488 0.949 1_655 S
C487 C485 1.384 . S
C487 C488 1.385 . S
C487 H489 0.950 1_455 S
C488 C482 1.404 . S
C488 H486 0.949 1_455 S
C488 C487 1.385 . S
H489 C487 0.950 1_655 S
H490 C474 0.951 . S
H491 C476 0.951 . S
H492 C478 0.951 . S
H493 C479 0.950 . S
H494 C480 0.950 1_655 S
H495 C481 0.950 . S
H496 C483 0.950 . S
H497 C484 0.951 . S
C498 C499 1.386 . S
C498 C500 1.383 . S
C498 H514 0.937 1_545 S
C499 C498 1.386 . S
C499 C503 1.383 . S
C500 C498 1.383 . S
C500 C501 1.402 . S
C500 H515 0.951 . S
C501 C500 1.402 . S
C501 C502 1.375 . S
C501 C504 1.481 . S
C502 C501 1.375 . S
C502 C503 1.367 . S
C502 H516 0.951 . S
C503 C499 1.383 . S
C503 C502 1.367 . S
C503 H517 0.950 . S
C504 C501 1.481 . S
C504 C505 1.297 . S
C504 H518 0.950 . S
C505 C504 1.297 . S
C505 C506 1.479 . S
C505 H519 0.950 . S
C506 C505 1.479 . S
C506 C507 1.375 . S
C506 C512 1.404 . S
C507 C506 1.375 . S
C507 C508 1.369 . S
C507 H520 0.950 . S
C508 C507 1.369 . S
C508 C509 1.392 . S
C508 H521 0.951 . S
C509 C508 1.392 . S
C509 C511 1.384 . S
H510 C512 0.949 . S
C511 C509 1.384 . S
C511 C512 1.385 . S
C511 H513 0.950 . S
C512 C506 1.404 . S
C512 H510 0.949 . S
C512 C511 1.385 . S
H513 C511 0.950 . S
H514 C498 0.937 1_565 S
H515 C500 0.951 . S
H516 C502 0.951 . S
H517 C503 0.950 . S
H518 C504 0.950 . S
H519 C505 0.950 . S
H520 C507 0.950 . S
H521 C508 0.951 . S
C522 C523 1.386 . S
C522 C524 1.383 . S
C522 H538 0.951 . S
C523 C522 1.386 . S
C523 C527 1.383 . S
C524 C522 1.383 . S
C524 C525 1.402 . S
C524 H539 0.951 . S
C525 C524 1.402 . S
C525 C526 1.375 . S
C525 C528 1.481 . S
C526 C525 1.375 . S
C526 C527 1.367 . S
C526 H540 0.951 . S
C527 C523 1.383 . S
C527 C526 1.367 . S
C527 H541 0.950 . S
C528 C525 1.481 . S
C528 C529 1.297 . S
C528 H542 0.950 . S
C529 C528 1.297 . S
C529 C530 1.479 . S
C529 H543 0.950 . S
C530 C529 1.479 . S
C530 C531 1.375 . S
C530 C536 1.404 . S
C531 C530 1.375 . S
C531 C532 1.369 . S
C531 H544 0.950 . S
C532 C531 1.369 . S
C532 C533 1.392 . S
C532 H545 0.951 . S
C533 C532 1.392 . S
C533 C535 1.384 . S
H534 C536 0.949 . S
C535 C533 1.384 . S
C535 C536 1.385 . S
C535 H537 0.950 . S
C536 C530 1.404 . S
C536 H534 0.949 . S
C536 C535 1.385 . S
H537 C535 0.950 . S
H538 C522 0.951 . S
H539 C524 0.951 . S
H540 C526 0.951 . S
H541 C527 0.950 . S
H542 C528 0.950 . S
H543 C529 0.950 . S
H544 C531 0.950 . S
H545 C532 0.951 . S
C546 C547 1.386 1_565 S
C546 C548 1.383 . S
C546 H562 0.951 . S
C547 C546 1.386 1_545 S
C547 C551 1.383 . S
C548 C546 1.383 . S
C548 C549 1.402 1_565 S
C548 H563 0.951 . S
C549 C548 1.402 1_545 S
C549 C550 1.375 . S
C549 C552 1.481 . S
C550 C549 1.375 . S
C550 C551 1.367 . S
C550 H564 0.951 . S
C551 C547 1.383 . S
C551 C550 1.367 . S
C551 H565 0.950 . S
C552 C549 1.481 . S
C552 C553 1.297 . S
C552 H566 0.950 . S
C553 C552 1.297 . S
C553 C554 1.479 . S
C553 H567 0.950 1_545 S
C554 C553 1.479 . S
C554 C555 1.375 1_545 S
C554 C560 1.404 . S
C555 C554 1.375 1_565 S
C555 C556 1.369 . S
C555 H568 0.950 . S
C556 C555 1.369 . S
C556 C557 1.392 1_565 S
C556 H569 0.951 . S
C557 C556 1.392 1_545 S
C557 C559 1.384 . S
H558 C560 0.949 . S
C559 C557 1.384 . S
C559 C560 1.385 . S
C559 H561 0.950 . S
C560 C554 1.404 . S
C560 H558 0.949 . S
C560 C559 1.385 . S
H561 C559 0.950 . S
H562 C546 0.951 . S
H563 C548 0.951 . S
H564 C550 0.951 . S
H565 C551 0.950 . S
H566 C552 0.950 . S
H567 C553 0.950 1_565 S
H568 C555 0.950 . S
H569 C556 0.951 . S
C570 C571 1.386 . S
C570 C572 1.383 . S
C570 H586 0.951 . S
C571 C570 1.386 . S
C571 C575 1.383 . S
C572 C570 1.383 . S
C572 C573 1.402 . S
C572 H587 0.951 . S
C573 C572 1.402 . S
C573 C574 1.375 . S
C573 C576 1.481 . S
C574 C573 1.375 . S
C574 C575 1.367 . S
C574 H588 0.951 . S
C575 C571 1.383 . S
C575 C574 1.367 . S
C575 H589 0.950 . S
C576 C573 1.481 . S
C576 C577 1.297 . S
C576 H590 0.950 . S
C577 C576 1.297 . S
C577 C578 1.479 1_556 S
C577 H591 0.950 . S
C578 C577 1.479 1_554 S
C578 C579 1.375 . S
C578 C584 1.404 . S
C579 C578 1.375 . S
C579 C580 1.369 . S
C579 H592 0.950 . S
C580 C579 1.369 . S
C580 C581 1.392 . S
C580 H593 0.951 . S
C581 C580 1.392 . S
C581 C583 1.384 . S
H582 C584 0.949 . S
C583 C581 1.384 . S
C583 C584 1.385 . S
C583 H585 0.950 . S
C584 C578 1.404 . S
C584 H582 0.949 . S
C584 C583 1.385 . S
H585 C583 0.950 . S
H586 C570 0.951 . S
H587 C572 0.951 . S
H588 C574 0.951 . S
H589 C575 0.950 . S
H590 C576 0.950 . S
H591 C577 0.950 . S
H592 C579 0.950 . S
H593 C580 0.951 . S
C594 C595 1.386 . S
C594 C596 1.383 . S
C594 H610 0.951 . S
C595 C594 1.386 . S
C595 C599 1.383 1_455 S
C596 C594 1.383 . S
C596 C597 1.402 . S
C596 H611 0.951 . S
C597 C596 1.402 . S
C597 C598 1.375 1_455 S
C597 C600 1.481 . S
C598 C597 1.375 1_655 S
C598 C599 1.367 . S
C598 H612 0.951 . S
C599 C595 1.383 1_655 S
C599 C598 1.367 . S
C599 H613 0.950 . S
C600 C597 1.481 . S
C600 C601 1.297 . S
C600 H614 0.950 1_455 S
C601 C600 1.297 . S
C601 C602 1.479 . S
C601 H615 0.950 . S
C602 C601 1.479 . S
C602 C603 1.375 . S
C602 C608 1.404 . S
C603 C602 1.375 . S
C603 C604 1.369 . S
C603 H616 0.950 . S
C604 C603 1.369 . S
C604 C605 1.392 . S
C604 H617 0.951 . S
C605 C604 1.392 . S
C605 C607 1.384 1_455 S
H606 C608 0.949 1_655 S
C607 C605 1.384 1_655 S
C607 C608 1.385 1_655 S
C607 H609 0.950 . S
C608 C602 1.404 . S
C608 H606 0.949 1_455 S
C608 C607 1.385 1_455 S
H609 C607 0.950 . S
H610 C594 0.951 . S
H611 C596 0.951 . S
H612 C598 0.951 . S
H613 C599 0.950 . S
H614 C600 0.950 1_655 S
H615 C601 0.950 . S
H616 C603 0.950 . S
H617 C604 0.951 . S
C187 C24 3.131 . S
C197 C180 2.848 . S
C211 C66 1.270 . S
C221 C158 1.029 . S
C235 C93 1.613 . S
C245 C172 1.583 . S
C259 C13 2.906 . S
C269 C183 2.822 . S
C293 C161 0.921 . S
C283 C57 0.992 . S
C317 C169 1.742 . S
C307 C104 2.084 . S
C331 C64 2.087 . S
C341 C136 1.755 . S
C355 C97 0.426 . S
C365 C147 0.908 . S
C379 C17 1.364 . S
C389 C125 1.242 . S
C413 C139 1.603 . S
C403 C53 1.630 . S
C437 C150 0.215 . S
C427 C106 0.193 . S
C451 C26 0.957 . S
C461 C128 0.895 . S
C485 C149 1.118 . S
C475 C2 1.187 . S
C499 C63 1.483 . S
C509 C127 1.485 . S
C523 C82 1.438 . S
C533 C138 1.351 . S
C557 C171 1.354 . S
C547 C42 1.434 . S
C581 C182 1.700 . S
C571 C103 1.713 . S
C595 C23 1.504 . S
C605 C160 1.424 . S
