# Generated by pormake.
# Topology anh, (6,3)-cn, num edge types: 1
# Building blocks:
#     Node 0, Type 0, BuildingBlock: NUHQIS_clean_sbu_0, # of connection points: 6
#     Node 1, Type 0, BuildingBlock: NUHQIS_clean_sbu_0, # of connection points: 6
#     Node 2, Type 0, BuildingBlock: NUHQIS_clean_sbu_0, # of connection points: 6
#     Node 3, Type 1, BuildingBlock: OLANEW_clean_sbu_2, # of connection points: 3
#     Node 4, Type 1, BuildingBlock: OLANEW_clean_sbu_2, # of connection points: 3
#     Node 5, Type 1, BuildingBlock: OLANEW_clean_sbu_2, # of connection points: 3
#     Node 6, Type 1, BuildingBlock: OLANEW_clean_sbu_2, # of connection points: 3
#     Node 7, Type 1, BuildingBlock: OLANEW_clean_sbu_2, # of connection points: 3
#     Node 8, Type 1, BuildingBlock: OLANEW_clean_sbu_2, # of connection points: 3
#     Edge 9, Type (0, 1), BuildingBlock: ZUJKAS_clean_linker_0, # of connection points: 2
#     Edge 10, Type (0, 1), BuildingBlock: ZUJKAS_clean_linker_0, # of connection points: 2
#     Edge 11, Type (0, 1), BuildingBlock: ZUJKAS_clean_linker_0, # of connection points: 2
#     Edge 12, Type (0, 1), BuildingBlock: ZUJKAS_clean_linker_0, # of connection points: 2
#     Edge 13, Type (0, 1), BuildingBlock: ZUJKAS_clean_linker_0, # of connection points: 2
#     Edge 14, Type (0, 1), BuildingBlock: ZUJKAS_clean_linker_0, # of connection points: 2
#     Edge 15, Type (0, 1), BuildingBlock: ZUJKAS_clean_linker_0, # of connection points: 2
#     Edge 16, Type (0, 1), BuildingBlock: ZUJKAS_clean_linker_0, # of connection points: 2
#     Edge 17, Type (0, 1), BuildingBlock: ZUJKAS_clean_linker_0, # of connection points: 2
#     Edge 18, Type (0, 1), BuildingBlock: ZUJKAS_clean_linker_0, # of connection points: 2
#     Edge 19, Type (0, 1), BuildingBlock: ZUJKAS_clean_linker_0, # of connection points: 2
#     Edge 20, Type (0, 1), BuildingBlock: ZUJKAS_clean_linker_0, # of connection points: 2
#     Edge 21, Type (0, 1), BuildingBlock: ZUJKAS_clean_linker_0, # of connection points: 2
#     Edge 22, Type (0, 1), BuildingBlock: ZUJKAS_clean_linker_0, # of connection points: 2
#     Edge 23, Type (0, 1), BuildingBlock: ZUJKAS_clean_linker_0, # of connection points: 2
#     Edge 24, Type (0, 1), BuildingBlock: ZUJKAS_clean_linker_0, # of connection points: 2
#     Edge 25, Type (0, 1), BuildingBlock: ZUJKAS_clean_linker_0, # of connection points: 2
#     Edge 26, Type (0, 1), BuildingBlock: ZUJKAS_clean_linker_0, # of connection points: 2
# Relax obj value: 0.165
# Max RMSD: 0.125
# Mean RMSD: 0.108
data_MOF--net-anh--node1-NUHQIS_clean_sbu_0--node2-OLANEW_clean_sbu_2--edge1-ZUJKAS_clean_linker_0
_symmetry_space_group_name_H-M    P1
_symmetry_Int_Tables_number       1
_symmetry_cell_setting            triclinic
loop_
_symmetry_equiv_pos_as_xyz
'x, y, z'
_cell_length_a     45.557556
_cell_length_b     45.57396
_cell_length_c     65.173732
_cell_angle_alpha  89.716393
_cell_angle_beta   93.322118
_cell_angle_gamma 119.99421
loop_
_atom_site_label
_atom_site_type_symbol
_atom_site_fract_x
_atom_site_fract_y
_atom_site_fract_z
_atom_type_partial_charge
Tb0 Tb 0.05968 0.5227 0.15714 0.0
Eu1 Eu 1.01897 0.56492 0.15555 0.0
C2 C 0.04077 0.54365 0.19747 0.0
C3 C 0.9788 0.48289 0.158 0.0
C4 C 0.12513 0.49708 0.16571 0.0
C5 C 0.16467 0.47665 0.1718 0.0
C6 C 0.13238 0.47068 0.16533 0.0
C7 C 0.15013 0.52937 0.17321 0.0
C8 C 0.18253 0.5354 0.17966 0.0
C9 C 0.19028 0.5092 0.17868 0.0
C10 C 0.09169 0.49072 0.15775 0.0
O11 O 0.03678 0.51732 0.12601 0.0
O12 O 0.04051 0.56885 0.12488 0.0
O13 O 0.0734 0.60457 0.16419 0.0
O14 O 0.10045 0.57561 0.15538 0.0
C15 C 0.0385 0.54262 0.1154 0.0
O16 O 0.98461 0.57804 0.13866 0.0
O17 O 1.00591 0.60023 0.16909 0.0
O18 O 1.01543 0.54392 0.18706 0.0
O19 O 0.06544 0.54362 0.18803 0.0
O20 O 1.00775 0.48402 0.16304 0.0
O21 O 0.97776 0.50983 0.15162 0.0
C22 C 0.1013 0.60378 0.16111 0.0
O23 O 0.07079 0.48774 0.1715 0.0
O24 O 0.09164 0.50964 0.14268 0.0
C25 C 0.94877 0.5852 0.16005 0.0
C26 C 0.88071 0.56 0.16912 0.0
C27 C 0.8916 0.57279 0.14965 0.0
C28 C 0.92537 0.58543 0.14519 0.0
C29 C 0.93808 0.57301 0.1797 0.0
C30 C 0.90434 0.56075 0.18424 0.0
C31 C 0.98323 0.59514 0.15422 0.0
H32 H 0.16974 0.45585 0.17116 0.0
H33 H 0.1132 0.44556 0.15973 0.0
H34 H 0.14478 0.55 0.17366 0.0
H35 H 0.2018 0.5608 0.1847 0.0
H36 H 0.87391 0.57285 0.13782 0.0
H37 H 0.93304 0.59463 0.12995 0.0
H38 H 0.9555 0.5722 0.19141 0.0
H39 H 0.89648 0.55089 0.19933 0.0
Tb40 Tb 0.5698 0.03956 0.49183 0.0
Eu41 Eu 0.48684 0.99969 0.48815 0.0
C42 C 0.52858 0.01886 0.53114 0.0
C43 C 0.52818 0.95871 0.49343 0.0
C44 C 0.6586 0.10673 0.50213 0.0
C45 C 0.71679 0.15281 0.50625 0.0
C46 C 0.69329 0.11933 0.50026 0.0
C47 C 0.64759 0.12751 0.51064 0.0
C48 C 0.67103 0.16101 0.51659 0.0
C49 C 0.70585 0.17421 0.51412 0.0
C50 C 0.63384 0.07257 0.49428 0.0
O51 O 0.55253 0.01746 0.46075 0.0
O52 O 0.50569 0.02297 0.45779 0.0
O53 O 0.50233 0.05373 0.49643 0.0
O54 O 0.55806 0.08059 0.48814 0.0
C55 C 0.52973 0.02062 0.44923 0.0
O56 O 0.439 0.96532 0.47124 0.0
O57 O 0.43887 0.98979 0.49971 0.0
O58 O 0.50289 0.99432 0.52041 0.0
O59 O 0.55389 0.04365 0.52206 0.0
O60 O 0.55629 0.98739 0.49838 0.0
O61 O 0.50015 0.95803 0.48634 0.0
C62 C 0.53097 0.08155 0.49327 0.0
O63 O 0.61574 0.05124 0.50797 0.0
O64 O 0.6152 0.07135 0.478 0.0
C65 C 0.39323 0.93427 0.49266 0.0
C66 C 0.33949 0.87288 0.50611 0.0
C67 C 0.36103 0.87269 0.49156 0.0
C68 C 0.38767 0.90305 0.48494 0.0
C69 C 0.37202 0.93452 0.50736 0.0
C70 C 0.34553 0.90416 0.5141 0.0
C71 C 0.42065 0.96669 0.4855 0.0
H72 H 0.74348 0.16214 0.50441 0.0
H73 H 0.70214 0.10351 0.49378 0.0
H74 H 0.6208 0.11806 0.51218 0.0
H75 H 0.66173 0.17691 0.52234 0.0
H76 H 0.35677 0.84911 0.4848 0.0
H77 H 0.40358 0.90197 0.47359 0.0
H78 H 0.37582 0.95826 0.51358 0.0
H79 H 0.32968 0.90521 0.5255 0.0
Tb80 Tb 0.56934 0.58203 0.82636 0.0
Eu81 Eu 0.52746 0.49931 0.82222 0.0
C82 C 0.5497 0.53775 0.86514 0.0
C83 C 0.60978 0.54122 0.82794 0.0
C84 C 0.59075 0.67006 0.83731 0.0
C85 C 0.60519 0.72815 0.84393 0.0
C86 C 0.6149 0.70461 0.83885 0.0
C87 C 0.55711 0.65903 0.84175 0.0
C88 C 0.54728 0.68251 0.84663 0.0
C89 C 0.57107 0.71744 0.84733 0.0
C90 C 0.60026 0.64582 0.83002 0.0
O91 O 0.57342 0.56839 0.79501 0.0
O92 O 0.52256 0.51942 0.79146 0.0
O93 O 0.48843 0.51369 0.82966 0.0
O94 O 0.51636 0.57 0.82158 0.0
C95 C 0.5479 0.54533 0.78327 0.0
O96 O 0.51534 0.45232 0.80619 0.0
O97 O 0.48898 0.45079 0.83322 0.0
O98 O 0.55022 0.51372 0.85454 0.0
O99 O 0.54822 0.56262 0.85585 0.0
O100 O 0.60878 0.56867 0.83295 0.0
O101 O 0.5825 0.51342 0.82075 0.0
C102 C 0.48859 0.54224 0.82633 0.0
O103 O 0.60247 0.62619 0.84386 0.0
O104 O 0.58372 0.62895 0.81315 0.0
C105 C 0.50039 0.40675 0.82825 0.0
C106 C 0.51161 0.35551 0.84413 0.0
C107 C 0.48328 0.34737 0.83053 0.0
C108 C 0.47774 0.37283 0.82266 0.0
C109 C 0.52847 0.41509 0.842 0.0
C110 C 0.53401 0.38961 0.84995 0.0
C111 C 0.4945 0.43327 0.81978 0.0
H112 H 0.62425 0.7548 0.84471 0.0
H113 H 0.64105 0.71344 0.83564 0.0
H114 H 0.53825 0.63233 0.84078 0.0
H115 H 0.52076 0.67334 0.84892 0.0
H116 H 0.46538 0.32126 0.82599 0.0
H117 H 0.45585 0.36606 0.81215 0.0
H118 H 0.54619 0.44131 0.84646 0.0
H119 H 0.5562 0.39663 0.86022 0.0
O120 O 0.57998 0.08012 0.22535 0.0
Cd121 Cd 0.60572 0.1049 0.19216 0.0
O122 O 0.53414 0.03155 0.21538 0.0
Cd123 Cd 0.48474 0.98236 0.2166 0.0
O124 O 0.43335 0.93544 0.21165 0.0
C125 C 0.42952 0.90749 0.20471 0.0
O126 O 0.45672 0.90607 0.20069 0.0
C127 C 0.55344 0.05252 0.22977 0.0
C128 C 0.66699 0.16881 0.19166 0.0
O129 O 0.6378 0.16671 0.19054 0.0
O130 O 0.66752 0.14109 0.19387 0.0
O131 O 0.53858 0.49057 0.55897 0.0
Cd132 Cd 0.5329 0.46045 0.52571 0.0
O133 O 0.5352 0.53542 0.54922 0.0
Cd134 Cd 0.53464 0.58457 0.54836 0.0
O135 O 0.53194 0.63072 0.53882 0.0
C136 C 0.53548 0.65396 0.55128 0.0
O137 O 0.54103 0.65106 0.571 0.0
C138 C 0.53859 0.51788 0.56361 0.0
C139 C 0.53543 0.39913 0.52558 0.0
O140 O 0.56245 0.42813 0.52477 0.0
O141 O 0.50743 0.39895 0.52725 0.0
O142 O 0.08623 0.53811 0.89213 0.0
Cd143 Cd 0.11235 0.54082 0.85895 0.0
O144 O 0.03978 0.53947 0.88168 0.0
Cd145 Cd 0.98939 0.53726 0.88224 0.0
O146 O 0.93777 0.53162 0.87581 0.0
C147 C 0.93262 0.55668 0.87642 0.0
O148 O 0.95849 0.58689 0.88136 0.0
C149 C 0.05898 0.53794 0.89627 0.0
C150 C 0.17598 0.54296 0.85869 0.0
O151 O 0.17431 0.57018 0.85963 0.0
O152 O 0.14792 0.51473 0.8587 0.0
O153 O 1.00452 0.51473 0.42516 0.0
Cd154 Cd 0.99064 0.50433 0.46128 0.0
O155 O 0.99503 0.55728 0.42034 0.0
Cd156 Cd 0.97273 0.55013 0.44982 0.0
O157 O 0.94101 0.5225 0.47467 0.0
C158 C 0.90918 0.50595 0.47042 0.0
O159 O 0.89735 0.50865 0.45206 0.0
C160 C 1.00493 0.53766 0.41372 0.0
C161 C 0.04278 0.55579 0.48605 0.0
O162 O 0.04479 0.53 0.48038 0.0
O163 O 1.01579 0.55662 0.48055 0.0
O164 O 0.47067 1.00383 0.75538 0.0
Cd165 Cd 0.4553 1.00336 0.79078 0.0
O166 O 0.52617 0.03285 0.76196 0.0
Cd167 Cd 0.52429 0.0423 0.79446 0.0
O168 O 0.53091 0.06874 0.82365 0.0
C169 C 0.50554 0.06497 0.83294 0.0
O170 O 0.47481 0.04288 0.82552 0.0
C171 C 0.50058 0.0171 0.74924 0.0
C172 C 0.46251 0.95479 0.81307 0.0
O173 O 0.4868 0.98549 0.81273 0.0
O174 O 0.43433 0.94704 0.80317 0.0
O175 O 0.50331 0.49154 0.09204 0.0
Cd176 Cd 0.48824 0.47537 0.12774 0.0
O177 O 0.55527 0.53547 0.0964 0.0
Cd178 Cd 0.54877 0.54244 0.12834 0.0
O179 O 0.52183 0.55138 0.15179 0.0
C180 C 0.50973 0.57019 0.14636 0.0
O181 O 0.51622 0.58391 0.1282 0.0
C182 C 0.5308 0.51374 0.08463 0.0
C183 C 0.53961 0.47044 0.15022 0.0
O184 O 0.53389 0.49466 0.15372 0.0
O185 O 0.52021 0.4477 0.13665 0.0
H186 H 0.22527 0.48738 0.15701 0.0
H187 H 0.28387 0.50087 0.16336 0.0
H188 H 0.29425 0.56108 0.21707 0.0
H189 H 0.2351 0.54765 0.21071 0.0
H190 H 0.34633 0.5945 0.19288 0.0
H191 H 0.32812 0.46699 0.2048 0.0
H192 H 0.30475 0.46663 0.18164 0.0
H193 H 0.29376 0.47582 0.206 0.0
C194 C 0.2397 0.50286 0.17045 0.0
C195 C 0.22545 0.51618 0.18347 0.0
C196 C 0.27322 0.51047 0.17411 0.0
C197 C 0.29319 0.53127 0.19099 0.0
C198 C 0.27912 0.54464 0.2041 0.0
H199 H 0.49113 0.54613 0.18491 0.0
H200 H 0.44371 0.5427 0.20277 0.0
C201 C 0.24545 0.5371 0.20039 0.0
C202 C 0.32949 0.5411 0.19353 0.0
H203 H 0.38092 0.5074 0.18951 0.0
C204 C 0.35407 0.57555 0.19271 0.0
C205 C 0.33982 0.51655 0.19399 0.0
C206 C 0.31517 0.47948 0.19691 0.0
C207 C 0.38821 0.58574 0.19019 0.0
C208 C 0.39765 0.56076 0.18785 0.0
C209 C 0.3737 0.52664 0.19086 0.0
C210 C 0.43022 0.56854 0.17937 0.0
C211 C 0.41349 0.6231 0.18932 0.0
C212 C 0.43885 0.58477 0.1605 0.0
C213 C 0.46603 0.58706 0.1504 0.0
C214 C 0.48476 0.5725 0.15875 0.0
C215 C 0.47709 0.5575 0.17806 0.0
C216 C 0.45003 0.55555 0.18829 0.0
H217 H 0.40685 0.63791 0.19967 0.0
H218 H 0.43975 0.62878 0.19375 0.0
H219 H 0.41271 0.63176 0.17346 0.0
H220 H 0.4234 0.59404 0.15292 0.0
H221 H 0.47115 0.59866 0.13551 0.0
H222 H 0.75682 0.21673 0.49052 0.0
H223 H 0.79385 0.27764 0.49518 0.0
H224 H 0.74669 0.27608 0.551 0.0
H225 H 0.70922 0.21458 0.54642 0.0
H226 H 0.74991 0.32442 0.52568 0.0
H227 H 0.8759 0.33515 0.53333 0.0
H228 H 0.85224 0.30906 0.51121 0.0
H229 H 0.83725 0.2955 0.53646 0.0
C230 C 0.75487 0.2291 0.5041 0.0
C231 C 0.73025 0.21077 0.51818 0.0
C232 C 0.77614 0.26398 0.50677 0.0
C233 C 0.77355 0.28131 0.52368 0.0
C234 C 0.74931 0.26311 0.53796 0.0
H235 H 0.92509 0.4935 0.50947 0.0
H236 H 0.89083 0.44357 0.52958 0.0
C237 C 0.72787 0.22807 0.53527 0.0
C238 C 0.7941 0.31876 0.52501 0.0
H239 H 0.87393 0.383 0.51748 0.0
C240 C 0.77719 0.33743 0.52445 0.0
C241 C 0.82978 0.33592 0.52406 0.0
C242 C 0.84982 0.31782 0.52655 0.0
C243 C 0.79461 0.37231 0.52084 0.0
C244 C 0.82954 0.38856 0.51717 0.0
C245 C 0.847 0.37054 0.51988 0.0
C246 C 0.84731 0.42216 0.50759 0.0
C247 C 0.77509 0.39103 0.52026 0.0
C248 C 0.83392 0.42725 0.48884 0.0
C249 C 0.85326 0.45583 0.47744 0.0
C250 C 0.88669 0.4796 0.48436 0.0
C251 C 0.89945 0.47552 0.50368 0.0
C252 C 0.8799 0.44703 0.5152 0.0
H253 H 0.75496 0.38044 0.53142 0.0
H254 H 0.79195 0.41852 0.52379 0.0
H255 H 0.76235 0.38778 0.50472 0.0
H256 H 0.80929 0.40806 0.4823 0.0
H257 H 0.84268 0.45814 0.46261 0.0
H258 H 0.59214 0.77622 0.82679 0.0
H259 H 0.56935 0.81439 0.82745 0.0
H260 H 0.49972 0.75286 0.87236 0.0
H261 H 0.52345 0.71501 0.87248 0.0
H262 H 0.50099 0.7919 0.8163 0.0
H263 H 0.53851 0.85105 0.89497 0.0
H264 H 0.55918 0.8306 0.88367 0.0
H265 H 0.51779 0.80555 0.89317 0.0
C266 C 0.57273 0.77126 0.83731 0.0
C267 C 0.55967 0.74253 0.84961 0.0
C268 C 0.55952 0.79298 0.83753 0.0
C269 C 0.53297 0.78648 0.85 0.0
C270 C 0.5205 0.75851 0.86282 0.0
H271 H 0.41653 0.8873 0.81653 0.0
H272 H 0.42839 0.84324 0.82899 0.0
C273 C 0.53385 0.73674 0.86269 0.0
C274 C 0.51672 0.80752 0.84802 0.0
H275 H 0.50615 0.86695 0.87294 0.0
C276 C 0.50179 0.8081 0.82872 0.0
C277 C 0.51792 0.82851 0.86431 0.0
C278 C 0.53438 0.82924 0.8852 0.0
C279 C 0.48912 0.83009 0.82496 0.0
C280 C 0.4907 0.85151 0.84114 0.0
C281 C 0.50469 0.8502 0.86067 0.0
C282 C 0.48152 0.878 0.83729 0.0
C283 C 0.47583 0.83146 0.8034 0.0
C284 C 0.50701 0.91217 0.83891 0.0
C285 C 0.50029 0.93734 0.83199 0.0
C286 C 0.46793 0.92873 0.82327 0.0
C287 C 0.44181 0.89467 0.82294 0.0
C288 C 0.44854 0.86948 0.83001 0.0
H289 H 0.48262 0.81818 0.79197 0.0
H290 H 0.44773 0.81903 0.80288 0.0
H291 H 0.48599 0.85811 0.79872 0.0
H292 H 0.53261 0.91924 0.84454 0.0
H293 H 0.5209 0.96338 0.83262 0.0
H294 H 0.85439 0.57363 0.20199 0.0
H295 H 0.79413 0.55216 0.20739 0.0
H296 H 0.76577 0.49193 0.15125 0.0
H297 H 0.82573 0.51331 0.14575 0.0
H298 H 0.75084 0.56151 0.17569 0.0
H299 H 0.70127 0.42673 0.19506 0.0
H300 H 0.74558 0.45872 0.19921 0.0
H301 H 0.72827 0.44116 0.17385 0.0
C302 C 0.8352 0.55537 0.19103 0.0
C303 C 0.84457 0.54526 0.17338 0.0
C304 C 0.80093 0.54314 0.19413 0.0
C305 C 0.77565 0.52016 0.17986 0.0
C306 C 0.78495 0.50922 0.16261 0.0
H307 H 0.57094 0.43685 0.13729 0.0
H308 H 0.62732 0.44721 0.14899 0.0
C309 C 0.81913 0.52171 0.15937 0.0
C310 C 0.7398 0.51062 0.18146 0.0
H311 H 0.66018 0.4424 0.18391 0.0
C312 C 0.73095 0.53563 0.17791 0.0
C313 C 0.71417 0.47679 0.18415 0.0
C314 C 0.72269 0.44926 0.18845 0.0
C315 C 0.69688 0.52739 0.17573 0.0
C316 C 0.67101 0.49329 0.1779 0.0
C317 C 0.68 0.46851 0.18235 0.0
C318 C 0.6347 0.48256 0.17353 0.0
C319 C 0.68903 0.55494 0.16978 0.0
C320 C 0.61945 0.49766 0.1841 0.0
C321 C 0.58749 0.49228 0.17719 0.0
C322 C 0.56996 0.47101 0.15993 0.0
C323 C 0.5839 0.45345 0.15059 0.0
C324 C 0.61612 0.45933 0.15728 0.0
H325 H 0.71147 0.5776 0.16407 0.0
H326 H 0.668 0.54564 0.15764 0.0
H327 H 0.68117 0.56307 0.18344 0.0
H328 H 0.63295 0.51489 0.19707 0.0
H329 H 0.57711 0.50577 0.18487 0.0
H330 H 0.27562 0.86111 0.51209 0.0
H331 H 0.22498 0.8069 0.51754 0.0
H332 H 0.28428 0.75704 0.51722 0.0
H333 H 0.33549 0.8115 0.5128 0.0
H334 H 0.20108 0.75638 0.48892 0.0
H335 H 0.22314 0.70984 0.5637 0.0
H336 H 0.24794 0.75358 0.55661 0.0
H337 H 0.25717 0.72234 0.54698 0.0
C338 C 0.2782 0.83886 0.51388 0.0
C339 C 0.30963 0.84065 0.51189 0.0
C340 C 0.24915 0.80784 0.5169 0.0
C341 C 0.25091 0.778 0.51797 0.0
C342 C 0.28244 0.77983 0.51685 0.0
H343 H 0.10769 0.56777 0.49311 0.0
H344 H 0.15774 0.62153 0.50459 0.0
C345 C 0.31159 0.81092 0.51397 0.0
C346 C 0.21924 0.74473 0.5173 0.0
H347 H 0.17788 0.66876 0.54095 0.0
C348 C 0.19579 0.73743 0.50047 0.0
C349 C 0.21264 0.71994 0.53226 0.0
C350 C 0.23641 0.72688 0.55101 0.0
C351 C 0.16628 0.70576 0.4979 0.0
C352 C 0.15976 0.68085 0.51275 0.0
C353 C 0.18299 0.68807 0.52969 0.0
C354 C 0.12939 0.64682 0.51017 0.0
C355 C 0.14282 0.69883 0.47894 0.0
C356 C 0.09691 0.64299 0.51043 0.0
C357 C 0.06837 0.61251 0.50373 0.0
C358 C 0.07189 0.58532 0.49682 0.0
C359 C 0.10421 0.58833 0.49824 0.0
C360 C 0.13281 0.61896 0.50484 0.0
H361 H 0.15498 0.71811 0.46706 0.0
H362 H 0.13459 0.67342 0.47207 0.0
H363 H 0.11981 0.69924 0.48325 0.0
H364 H 0.09385 0.6642 0.51473 0.0
H365 H 0.04376 0.61083 0.50304 0.0
H366 H 0.53113 0.34667 0.88328 0.0
H367 H 0.54209 0.30139 0.89493 0.0
H368 H 0.5176 0.25839 0.83327 0.0
H369 H 0.50739 0.3035 0.82153 0.0
H370 H 0.49677 0.22992 0.89243 0.0
H371 H 0.60992 0.26622 0.84918 0.0
H372 H 0.59514 0.29539 0.8545 0.0
H373 H 0.57677 0.26602 0.83283 0.0
C374 C 0.52847 0.3277 0.87222 0.0
C375 C 0.51837 0.32854 0.8515 0.0
C376 C 0.53461 0.30188 0.8789 0.0
C377 C 0.5312 0.27698 0.86487 0.0
C378 C 0.521 0.27778 0.84425 0.0
H379 H 0.45862 0.08052 0.84497 0.0
H380 H 0.47031 0.13239 0.86246 0.0
C381 C 0.51477 0.30333 0.83761 0.0
C382 C 0.53675 0.24896 0.8714 0.0
H383 H 0.57382 0.20569 0.85444 0.0
C384 C 0.5143 0.2249 0.88466 0.0
C385 C 0.56045 0.24303 0.86193 0.0
C386 C 0.58719 0.26928 0.84901 0.0
C387 C 0.5122 0.19321 0.88664 0.0
C388 C 0.53239 0.18536 0.8746 0.0
C389 C 0.55774 0.21115 0.86344 0.0
C390 C 0.52366 0.14994 0.86993 0.0
C391 C 0.48729 0.16806 0.90087 0.0
C392 C 0.54942 0.14173 0.86864 0.0
C393 C 0.54294 0.11237 0.85795 0.0
C394 C 0.51048 0.09055 0.84864 0.0
C395 C 0.48391 0.09684 0.85194 0.0
C396 C 0.49054 0.12648 0.86224 0.0
H397 H 0.48682 0.18119 0.91506 0.0
H398 H 0.46137 0.15582 0.8932 0.0
H399 H 0.49361 0.14819 0.90525 0.0
H400 H 0.57515 0.15933 0.87448 0.0
H401 H 0.56382 0.10792 0.85584 0.0
H402 H 0.47491 0.8932 0.48702 0.0
H403 H 0.47432 0.84024 0.49477 0.0
H404 H 0.57978 0.89699 0.51634 0.0
H405 H 0.5808 0.94988 0.50834 0.0
H406 H 0.56687 0.84212 0.49278 0.0
H407 H 0.47158 0.80236 0.55151 0.0
H408 H 0.45733 0.80965 0.52676 0.0
H409 H 0.49188 0.84439 0.54131 0.0
C410 C 0.49806 0.89449 0.49333 0.0
C411 C 0.52787 0.92607 0.49709 0.0
C412 C 0.49761 0.86407 0.49792 0.0
C413 C 0.52685 0.86443 0.50653 0.0
C414 C 0.5568 0.89586 0.50982 0.0
H415 H 0.54273 0.70774 0.57418 0.0
H416 H 0.5402 0.75744 0.56239 0.0
C417 C 0.55731 0.92622 0.50522 0.0
C418 C 0.52648 0.83229 0.51221 0.0
H419 H 0.48912 0.76337 0.54284 0.0
C420 C 0.54977 0.82487 0.50368 0.0
C421 C 0.50454 0.80983 0.52666 0.0
C422 C 0.48012 0.817 0.53727 0.0
C423 C 0.5517 0.79583 0.50912 0.0
C424 C 0.52934 0.77305 0.52329 0.0
C425 C 0.50608 0.78051 0.53184 0.0
C426 C 0.53068 0.74225 0.5302 0.0
C427 C 0.57846 0.79044 0.50011 0.0
C428 C 0.52583 0.71662 0.51613 0.0
C429 C 0.52737 0.688 0.52286 0.0
C430 C 0.53358 0.68417 0.54386 0.0
C431 C 0.53799 0.70969 0.55789 0.0
C432 C 0.53648 0.73823 0.55117 0.0
H433 H 0.59888 0.81415 0.49384 0.0
H434 H 0.59014 0.78094 0.51181 0.0
H435 H 0.56654 0.7713 0.48732 0.0
H436 H 0.52058 0.71858 0.49992 0.0
H437 H 0.52362 0.66885 0.51159 0.0
H438 H 0.62198 0.48811 0.82355 0.0
H439 H 0.67512 0.48794 0.8317 0.0
H440 H 0.72514 0.59407 0.84881 0.0
H441 H 0.67225 0.59442 0.84101 0.0
H442 H 0.73884 0.52382 0.81654 0.0
H443 H 0.7474 0.55509 0.89943 0.0
H444 H 0.70931 0.54221 0.88315 0.0
H445 H 0.74388 0.58526 0.88322 0.0
C446 C 0.64428 0.51148 0.82899 0.0
C447 C 0.64255 0.54124 0.8317 0.0
C448 C 0.67473 0.51132 0.83368 0.0
C449 C 0.70416 0.54082 0.84131 0.0
C450 C 0.7027 0.57073 0.84348 0.0
H451 H 0.91392 0.60512 0.8777 0.0
H452 H 0.85828 0.59909 0.86895 0.0
C453 C 0.67234 0.57092 0.83884 0.0
C454 C 0.73641 0.54052 0.84689 0.0
H455 H 0.79683 0.55896 0.88618 0.0
C456 C 0.75135 0.53121 0.83182 0.0
C457 C 0.75286 0.55002 0.86686 0.0
C458 C 0.7374 0.55838 0.88416 0.0
C459 C 0.78268 0.53233 0.83593 0.0
C460 C 0.79946 0.54255 0.85578 0.0
C461 C 0.7842 0.55127 0.87094 0.0
C462 C 0.83339 0.54561 0.861 0.0
C463 C 0.79813 0.52371 0.81876 0.0
C464 C 0.83819 0.51746 0.85975 0.0
C465 C 0.87021 0.52082 0.8648 0.0
C466 C 0.8982 0.55241 0.8713 0.0
C467 C 0.89314 0.58039 0.87273 0.0
C468 C 0.8612 0.57699 0.86773 0.0
H469 H 0.78636 0.52421 0.80345 0.0
H470 H 0.8259 0.54162 0.81891 0.0
H471 H 0.79411 0.4978 0.82086 0.0
H472 H 0.81708 0.49279 0.85502 0.0
H473 H 0.87301 0.49867 0.86359 0.0
H474 H 0.11382 0.66696 0.17324 0.0
H475 H 0.16868 0.71854 0.18018 0.0
H476 H 0.22019 0.66467 0.16497 0.0
H477 H 0.16543 0.61301 0.15776 0.0
H478 H 0.22118 0.73134 0.20865 0.0
H479 H 0.26675 0.74805 0.13009 0.0
H480 H 0.22311 0.71931 0.13535 0.0
H481 H 0.25481 0.7072 0.14029 0.0
C482 C 0.13675 0.66601 0.17119 0.0
C483 C 0.13493 0.63561 0.16475 0.0
C484 C 0.16822 0.69565 0.17524 0.0
C485 C 0.1988 0.69588 0.17284 0.0
C486 C 0.19711 0.66555 0.16652 0.0
H487 H 0.41412 0.84431 0.19113 0.0
H488 H 0.35829 0.79422 0.18412 0.0
C489 C 0.16563 0.63586 0.16248 0.0
C490 C 0.23231 0.72755 0.17746 0.0
H491 H 0.30684 0.78349 0.15657 0.0
C492 C 0.23982 0.74284 0.19721 0.0
C493 C 0.25682 0.74275 0.1626 0.0
C494 C 0.24994 0.72872 0.14084 0.0
C495 C 0.27124 0.77216 0.20264 0.0
C496 C 0.29583 0.78727 0.1878 0.0
C497 C 0.2882 0.77208 0.16801 0.0
C498 C 0.3299 0.81824 0.19256 0.0
C499 C 0.27817 0.78604 0.22444 0.0
C500 C 0.33298 0.84891 0.19956 0.0
C501 C 0.36513 0.87782 0.2037 0.0
C502 C 0.39505 0.87687 0.20078 0.0
C503 C 0.39181 0.84617 0.19364 0.0
C504 C 0.35976 0.81737 0.18956 0.0
H505 H 0.26111 0.76677 0.23513 0.0
H506 H 0.3049 0.79501 0.22997 0.0
H507 H 0.27374 0.80783 0.22504 0.0
H508 H 0.31049 0.85068 0.20158 0.0
H509 H 0.36652 0.90098 0.20902 0.0
H510 H 0.47938 0.09359 0.50135 0.0
H511 H 0.48235 0.14799 0.50692 0.0
H512 H 0.58964 0.20016 0.49802 0.0
H513 H 0.58681 0.14575 0.49204 0.0
H514 H 0.51777 0.19707 0.53638 0.0
H515 H 0.55881 0.25114 0.45991 0.0
H516 H 0.54341 0.20701 0.46498 0.0
H517 H 0.58632 0.23849 0.47297 0.0
C518 C 0.50364 0.11658 0.50039 0.0
C519 C 0.53281 0.11504 0.49607 0.0
C520 C 0.50529 0.1478 0.50365 0.0
C521 C 0.5361 0.17846 0.50262 0.0
C522 C 0.56535 0.17706 0.49843 0.0
H523 H 0.59043 0.39116 0.51995 0.0
H524 H 0.59124 0.33823 0.51533 0.0
C525 C 0.56372 0.14579 0.4951 0.0
C526 C 0.53751 0.21159 0.5065 0.0
H527 H 0.55778 0.28779 0.48517 0.0
C528 C 0.52645 0.21683 0.52513 0.0
C529 C 0.54892 0.23764 0.49192 0.0
C530 C 0.55975 0.23329 0.47124 0.0
C531 C 0.52674 0.24722 0.52963 0.0
C532 C 0.53787 0.27313 0.51499 0.0
C533 C 0.54927 0.26807 0.49644 0.0
C534 C 0.53742 0.30541 0.51845 0.0
C535 C 0.51571 0.25152 0.55025 0.0
C536 C 0.50689 0.30489 0.52167 0.0
C537 C 0.50635 0.33518 0.52435 0.0
C538 C 0.53632 0.36686 0.52378 0.0
C539 C 0.56687 0.36732 0.52059 0.0
C540 C 0.56737 0.337 0.51788 0.0
H541 H 0.51732 0.23418 0.56172 0.0
H542 H 0.53146 0.27799 0.55632 0.0
H543 H 0.48888 0.2455 0.54851 0.0
H544 H 0.48327 0.28101 0.52175 0.0
H545 H 0.4823 0.33373 0.52659 0.0
H546 H 0.47874 0.59731 0.82462 0.0
H547 H 0.42699 0.59882 0.83096 0.0
H548 H 0.37397 0.49099 0.83975 0.0
H549 H 0.42558 0.48936 0.83397 0.0
H550 H 0.36399 0.56842 0.81152 0.0
H551 H 0.35291 0.52332 0.89124 0.0
H552 H 0.39064 0.53645 0.87753 0.0
H553 H 0.35442 0.49464 0.87316 0.0
C554 C 0.45612 0.57389 0.82795 0.0
C555 C 0.45666 0.54326 0.82895 0.0
C556 C 0.42644 0.5748 0.83157 0.0
C557 C 0.39656 0.54515 0.83633 0.0
C558 C 0.3968 0.51443 0.83673 0.0
H559 H 0.18804 0.48962 0.85759 0.0
H560 H 0.24171 0.49133 0.85236 0.0
C561 C 0.42643 0.51351 0.83322 0.0
C562 C 0.36503 0.54613 0.84055 0.0
H563 H 0.30478 0.52437 0.87569 0.0
C564 C 0.35124 0.55904 0.82564 0.0
C565 C 0.34818 0.53396 0.85898 0.0
C566 C 0.36246 0.52163 0.87623 0.0
C567 C 0.32083 0.55923 0.82836 0.0
C568 C 0.30376 0.54657 0.84665 0.0
C569 C 0.31766 0.53394 0.86163 0.0
C570 C 0.27128 0.54587 0.8504 0.0
C571 C 0.30671 0.57212 0.81136 0.0
C572 C 0.26994 0.57598 0.8515 0.0
C573 C 0.23925 0.5751 0.85459 0.0
C574 C 0.20907 0.54405 0.85669 0.0
C575 C 0.21066 0.51399 0.85601 0.0
C576 C 0.24139 0.51491 0.85301 0.0
H577 H 0.3181 0.57325 0.79655 0.0
H578 H 0.27871 0.55578 0.80911 0.0
H579 H 0.31244 0.5981 0.81556 0.0
H580 H 0.29269 0.60025 0.84995 0.0
H581 H 0.23912 0.59878 0.85508 0.0
H582 H 0.91323 0.47137 0.15392 0.0
H583 H 0.86052 0.41905 0.16029 0.0
H584 H 0.91754 0.3685 0.17431 0.0
H585 H 0.97028 0.42071 0.16838 0.0
H586 H 0.8296 0.35596 0.14236 0.0
H587 H 0.86287 0.3469 0.22431 0.0
H588 H 0.88702 0.38455 0.20988 0.0
H589 H 0.89371 0.34902 0.20755 0.0
C590 C 0.91464 0.44914 0.15833 0.0
C591 C 0.94627 0.45054 0.16071 0.0
C592 C 0.88437 0.41915 0.162 0.0
C593 C 0.88488 0.3898 0.16824 0.0
C594 C 0.91633 0.3909 0.1701 0.0
H595 H 0.73284 0.18159 0.19392 0.0
H596 H 0.78476 0.23519 0.18835 0.0
C597 C 0.94658 0.42085 0.16651 0.0
C598 C 0.85261 0.35796 0.17249 0.0
H599 H 0.81403 0.29851 0.20899 0.0
C600 C 0.82616 0.34357 0.15699 0.0
C601 C 0.84784 0.34158 0.19158 0.0
C602 C 0.87421 0.35645 0.20936 0.0
C603 C 0.79569 0.31307 0.15984 0.0
C604 C 0.7911 0.29653 0.17885 0.0
C605 C 0.81745 0.31099 0.19439 0.0
C606 C 0.75932 0.26409 0.18283 0.0
C607 C 0.76902 0.29832 0.14222 0.0
C608 C 0.72759 0.26238 0.18207 0.0
C609 C 0.69779 0.23172 0.18533 0.0
C610 C 0.69893 0.20193 0.1895 0.0
C611 C 0.73086 0.2039 0.19072 0.0
C612 C 0.76065 0.23461 0.18752 0.0
H613 H 0.77965 0.30913 0.1273 0.0
H614 H 0.75739 0.27034 0.14109 0.0
H615 H 0.74863 0.3042 0.14486 0.0
H616 H 0.72581 0.28482 0.17892 0.0
H617 H 0.67377 0.2313 0.18432 0.0
H618 H 0.03118 0.58526 0.08853 0.0
H619 H 0.02858 0.58272 0.05097 0.0
H620 H 0.04107 0.49496 0.05291 0.0
H621 H 0.04274 0.49676 0.09047 0.0
H622 H 0.07475 0.58904 0.02547 0.0
H623 H 0.96118 0.46206 0.01192 0.0
H624 H 0.97294 0.48365 0.03672 0.0
H625 H 0.99322 0.46079 0.02859 0.0
C626 C 0.03316 0.56526 0.08099 0.0
C627 C 0.03699 0.54109 0.09256 0.0
C628 C 0.03165 0.56384 0.05947 0.0
C629 C 0.03395 0.53826 0.049 0.0
C630 C 0.03821 0.51435 0.06054 0.0
H631 H 0.07731 0.50913 0.92726 0.0
H632 H 0.06801 0.50913 0.96384 0.0
C633 C 0.03944 0.51558 0.08206 0.0
C634 C 0.03344 0.53755 0.0261 0.0
H635 H 0.99565 0.4862 0.98325 0.0
C636 C 0.05713 0.56668 0.01626 0.0
C637 C 1.01032 0.50845 0.01396 0.0
C638 C 0.98275 0.4771 0.02332 0.0
C639 C 0.0591 0.56706 0.9948 0.0
C640 C 0.03687 0.53761 0.98284 0.0
C641 C 1.0127 0.50872 0.99252 0.0
C642 C 0.04005 0.53583 0.96042 0.0
C643 C 0.08559 0.59857 0.985 0.0
C644 C 0.02694 0.55046 0.94634 0.0
C645 C 0.03201 0.55032 0.9253 0.0
C646 C 0.05048 0.53573 0.91809 0.0
C647 C 0.06301 0.52062 0.93229 0.0
C648 C 0.05767 0.5205 0.9532 0.0
H649 H 0.10192 0.619 0.99652 0.0
H650 H 0.10193 0.59242 0.97605 0.0
H651 H 0.07294 0.6082 0.9741 0.0
H652 H 1.01337 0.56254 0.95168 0.0
H653 H 0.02265 0.56277 0.91487 0.0
H654 H 0.49353 0.03721 0.42133 0.0
H655 H 0.49517 0.03815 0.38396 0.0
H656 H 0.56843 1.00438 0.38796 0.0
H657 H 0.56777 1.00449 0.4255 0.0
H658 H 0.58718 0.05391 0.36215 0.0
H659 H 0.45187 0.96196 0.34231 0.0
H660 H 0.45675 0.99637 0.35813 0.0
H661 H 0.47055 0.96806 0.36823 0.0
C662 C 0.50987 0.02977 0.41428 0.0
C663 C 0.53044 0.02064 0.42645 0.0
C664 C 0.51054 0.03003 0.39283 0.0
C665 C 0.5313 0.02055 0.38299 0.0
C666 C 0.55198 1.01155 0.39513 0.0
H667 H 0.52068 0.99099 0.24869 0.0
H668 H 0.51458 0.9814 0.2857 0.0
C669 C 0.5516 1.01165 0.41662 0.0
C670 C 0.53279 0.02178 0.36016 0.0
H671 H 0.4837 0.99665 0.31492 0.0
C672 C 0.56454 0.0411 0.35186 0.0
C673 C 0.50339 1.0046 0.34657 0.0
C674 C 0.46879 0.98129 0.35426 0.0
C675 C 0.56761 0.04462 0.33053 0.0
C676 C 0.538 0.02925 0.31703 0.0
C677 C 0.50635 1.00893 0.32524 0.0
C678 C 0.53948 0.03465 0.29444 0.0
C679 C 0.60271 0.06455 0.32272 0.0
C680 C 0.55439 0.06763 0.28693 0.0
C681 C 0.55798 0.07312 0.26589 0.0
C682 C 0.54608 0.04574 0.25174 0.0
C683 C 0.52967 1.01259 0.25913 0.0
C684 C 0.5264 1.0071 0.2803 0.0
H685 H 0.62227 0.065 0.33393 0.0
H686 H 0.60427 0.05381 0.30784 0.0
H687 H 0.60894 0.09115 0.32043 0.0
H688 H 0.56374 0.08926 0.29741 0.0
H689 H 0.57044 0.09897 0.2607 0.0
H690 H 0.59176 0.59862 0.76052 0.0
H691 H 0.59161 0.60238 0.723 0.0
H692 H 0.50498 0.50134 0.71706 0.0
H693 H 0.50439 0.49775 0.75439 0.0
H694 H 0.60087 0.56649 0.695 0.0
H695 H 0.47316 0.55 0.67862 0.0
H696 H 0.49311 0.55818 0.7043 0.0
H697 H 0.47104 0.51574 0.69333 0.0
C698 C 0.57252 0.57729 0.75122 0.0
C699 C 0.54798 0.54794 0.76052 0.0
C700 C 0.57244 0.57949 0.72975 0.0
C701 C 0.54784 0.55243 0.71711 0.0
C702 C 0.52359 0.523 0.72639 0.0
H703 H 0.55932 0.49277 0.59564 0.0
H704 H 0.56339 0.50583 0.63213 0.0
C705 C 0.52347 0.52087 0.74781 0.0
C706 C 0.54856 0.55407 0.69426 0.0
H707 H 0.49822 0.53915 0.65011 0.0
C708 C 0.57853 0.56097 0.68521 0.0
C709 C 0.51972 0.54766 0.68135 0.0
C710 C 0.48759 0.54287 0.68991 0.0
C711 C 0.57991 0.55986 0.66375 0.0
C712 C 0.55027 0.55072 0.65092 0.0
C713 C 0.52083 0.54564 0.65989 0.0
C714 C 0.54862 0.54397 0.62839 0.0
C715 C 0.6132 0.56838 0.65509 0.0
C716 C 0.53789 0.56026 0.61395 0.0
C717 C 0.53503 0.55245 0.59284 0.0
C718 C 0.54275 0.52809 0.58577 0.0
C719 C 0.55336 0.51186 0.60037 0.0
C720 C 0.55606 0.51954 0.62134 0.0
H721 H 0.63509 0.58597 0.66562 0.0
H722 H 0.6144 0.54482 0.65329 0.0
H723 H 0.61592 0.58016 0.63985 0.0
H724 H 0.53151 0.57887 0.61902 0.0
H725 H 0.52598 0.56487 0.58223 0.0
H726 H 0.47651 0.97714 0.55452 0.0
H727 H 0.47549 0.9776 0.59188 0.0
H728 H 0.57905 0.06016 0.59663 0.0
H729 H 0.58008 0.06048 0.55911 0.0
H730 H 0.51417 0.9673 0.6212 0.0
H731 H 0.53194 0.09638 0.63076 0.0
H732 H 0.52199 0.07483 0.60602 0.0
H733 H 0.56468 0.09504 0.61745 0.0
C734 C 0.4991 0.9955 0.56346 0.0
C735 C 0.52833 0.01894 0.55382 0.0
C736 C 0.49846 0.99567 0.58483 0.0
C737 C 0.527 0.01922 0.59701 0.0
C738 C 0.55647 0.04228 0.58749 0.0
H739 H 0.56012 0.05035 0.73006 0.0
H740 H 0.56804 0.04982 0.69329 0.0
C741 C 0.55707 0.04231 0.56606 0.0
C742 C 0.52573 0.01921 0.61968 0.0
H743 H 0.53156 0.0677 0.6612 0.0
C744 C 0.51799 0.98925 0.62994 0.0
C745 C 0.53069 0.0479 0.63104 0.0
C746 C 0.53748 0.08028 0.62077 0.0
C747 C 0.51502 0.9872 0.65128 0.0
C748 C 0.51976 0.01577 0.66256 0.0
C749 C 0.52806 0.04589 0.65241 0.0
C750 C 0.51514 0.01463 0.68485 0.0
C751 C 0.50697 0.95457 0.66165 0.0
C752 C 0.48273 0.995 0.69219 0.0
C753 C 0.47802 0.99537 0.71316 0.0
C754 C 0.50571 0.01534 0.72716 0.0
C755 C 0.53826 0.03459 0.71972 0.0
C756 C 0.54287 0.0344 0.69873 0.0
H757 H 0.51106 0.93746 0.65162 0.0
H758 H 0.52284 0.95978 0.67623 0.0
H759 H 0.47995 0.94115 0.66544 0.0
H760 H 0.46096 0.97991 0.68163 0.0
H761 H 0.45264 0.98028 0.71837 0.0
H762 H 0.56937 0.50166 0.89011 0.0
H763 H 0.56762 0.49769 0.92747 0.0
H764 H 0.52592 0.56433 0.92848 0.0
H765 H 0.52897 0.56956 0.89119 0.0
H766 H 0.5728 0.58092 0.95859 0.0
H767 H 0.4858 0.44214 0.95897 0.0
H768 H 0.52372 0.45314 0.9463 0.0
H769 H 0.49446 0.46579 0.93568 0.0
C770 C 0.55979 0.51544 0.8983 0.0
C771 C 0.5491 0.53576 0.88773 0.0
C772 C 0.55857 0.51294 0.91964 0.0
C773 C 0.54585 0.53003 0.93074 0.0
C774 C 0.53564 0.55075 0.92022 0.0
H775 H 0.4795 0.48502 0.0546 0.0
H776 H 0.48403 0.48975 0.01744 0.0
C777 C 0.5374 0.55372 0.89892 0.0
C778 C 0.5437 0.52683 0.95335 0.0
H779 H 0.51219 0.46927 0.99133 0.0
C780 C 0.55941 0.55651 0.96575 0.0
C781 C 0.52578 0.49499 0.96267 0.0
C782 C 0.50618 0.46225 0.9502 0.0
C783 C 0.5579 0.55526 0.9872 0.0
C784 C 0.54124 0.52336 0.99658 0.0
C785 C 0.52533 0.4937 0.98416 0.0
C786 C 0.53892 0.52016 0.01918 0.0
C787 C 0.57334 0.58821 0.99947 0.0
C788 C 0.56828 0.53514 0.03255 0.0
C789 C 0.56572 0.53294 0.05384 0.0
C790 C 0.53377 0.515 0.06213 0.0
C791 C 0.50449 0.499 0.0487 0.0
C792 C 0.50704 0.50169 0.02744 0.0
H793 H 0.57567 0.60932 0.98979 0.0
H794 H 0.55795 0.58609 0.01259 0.0
H795 H 0.59923 0.59496 0.00562 0.0
H796 H 0.59321 0.54861 0.02654 0.0
H797 H 0.58877 0.54519 0.06379 0.0
H798 H 0.09079 0.54733 0.22472 0.0
H799 H 0.09074 0.54609 0.26234 0.0
H800 H 0.99232 0.53839 0.25908 0.0
H801 H 0.99198 0.53949 0.22166 0.0
H802 H 0.08332 0.59134 0.29013 0.0
H803 H 0.98086 0.45732 0.29425 0.0
H804 H 1.00416 0.47436 0.27156 0.0
H805 H 0.97045 0.48221 0.27708 0.0
C806 C 0.06911 0.54531 0.23201 0.0
C807 C 0.04131 0.54334 0.22018 0.0
C808 C 0.06918 0.54466 0.25348 0.0
C809 C 0.04134 0.5417 0.26339 0.0
C810 C 1.0138 0.54014 0.25166 0.0
H811 H 1.00829 0.58297 0.38491 0.0
H812 H 0.02187 0.58484 0.34905 0.0
C813 C 1.01375 0.54092 0.23026 0.0
C814 C 0.04091 0.54056 0.28604 0.0
H815 H 0.99526 0.49147 0.32485 0.0
C816 C 0.06435 0.56941 0.2978 0.0
C817 C 1.01642 0.51172 0.29595 0.0
C818 C 0.99172 0.4795 0.28411 0.0
C819 C 0.06296 0.5707 0.31922 0.0
C820 C 0.03724 0.54252 0.32899 0.0
C821 C 1.01478 0.51316 0.3173 0.0
C822 C 0.03208 0.54332 0.35114 0.0
C823 C 0.08888 0.60222 0.3312 0.0
C824 C 0.03301 0.51916 0.36416 0.0
C825 C 0.02504 0.51788 0.38464 0.0
C826 C 1.0157 0.54057 0.39244 0.0
C827 C 1.01543 0.56518 0.37943 0.0
C828 C 0.02344 0.56644 0.35896 0.0
H829 H 0.11213 0.61698 0.32268 0.0
H830 H 0.07783 0.61866 0.3338 0.0
H831 H 0.09616 0.59582 0.34641 0.0
H832 H 0.03941 0.50096 0.35836 0.0
H833 H 0.02554 0.49861 0.39423 0.0
loop_
_geom_bond_atom_site_label_1
_geom_bond_atom_site_label_2
_geom_bond_distance
_geom_bond_site_symmetry_2
_ccdc_geom_bond_type
Tb0 C10 2.825 . S
Tb0 O11 2.347 . S
Tb0 O14 2.366 . S
Tb0 O19 2.418 . S
Tb0 O20 2.384 1_455 S
Tb0 O23 2.479 . S
Tb0 O24 2.471 . S
Eu1 O12 2.420 . S
Eu1 O13 2.384 1_655 S
Eu1 O16 2.479 . S
Eu1 O17 2.471 . S
Eu1 O18 2.347 1_655 S
Eu1 O21 2.366 . S
Eu1 C31 2.825 . S
C2 O18 1.259 . S
C2 O19 1.265 . S
C3 O20 1.255 . S
C3 O21 1.265 . S
C4 C6 1.380 . S
C4 C7 1.374 . S
C4 C10 1.507 . S
C5 C6 1.384 . S
C5 C9 1.387 . S
C5 H32 0.930 . S
C6 C4 1.380 . S
C6 C5 1.384 . S
C6 H33 0.931 . S
C7 C4 1.374 . S
C7 C8 1.390 . S
C7 H34 0.930 . S
C8 C7 1.390 . S
C8 C9 1.391 . S
C8 H35 0.930 . S
C9 C5 1.387 . S
C9 C8 1.391 . S
C10 Tb0 2.825 . S
C10 C4 1.507 . S
C10 O23 1.238 . S
C10 O24 1.247 . S
O11 Tb0 2.347 . S
O11 C15 1.259 . S
O12 Eu1 2.420 . S
O12 C15 1.257 1_655 S
O13 Eu1 2.384 1_455 S
O13 C22 1.255 . S
O14 Tb0 2.366 . S
O14 C22 1.265 . S
C15 O11 1.259 . S
C15 O12 1.257 1_455 S
O16 Eu1 2.479 . S
O16 C31 1.238 . S
O17 Eu1 2.471 . S
O17 C31 1.247 . S
O18 Eu1 2.347 1_455 S
O18 C2 1.259 . S
O19 Tb0 2.418 . S
O19 C2 1.265 . S
O20 Tb0 2.384 1_655 S
O20 C3 1.255 . S
O21 Eu1 2.366 . S
O21 C3 1.265 . S
C22 O13 1.255 . S
C22 O14 1.265 . S
O23 Tb0 2.479 . S
O23 C10 1.238 . S
O24 Tb0 2.471 . S
O24 C10 1.247 . S
C25 C28 1.380 . S
C25 C29 1.374 . S
C25 C31 1.507 . S
C26 C27 1.387 . S
C26 C30 1.391 . S
C27 C26 1.387 . S
C27 C28 1.384 . S
C27 H36 0.930 . S
C28 C25 1.380 . S
C28 C27 1.384 . S
C28 H37 0.931 . S
C29 C25 1.374 . S
C29 C30 1.390 . S
C29 H38 0.930 . S
C30 C26 1.391 . S
C30 C29 1.390 . S
C30 H39 0.930 . S
C31 Eu1 2.825 . S
C31 O16 1.238 . S
C31 O17 1.247 . S
C31 C25 1.507 . S
H32 C5 0.930 . S
H33 C6 0.931 . S
H34 C7 0.930 . S
H35 C8 0.930 . S
H36 C27 0.930 . S
H37 C28 0.931 . S
H38 C29 0.930 . S
H39 C30 0.930 . S
Tb40 C50 2.825 . S
Tb40 O51 2.347 . S
Tb40 O54 2.366 . S
Tb40 O59 2.418 . S
Tb40 O60 2.384 . S
Tb40 O63 2.479 . S
Tb40 O64 2.471 . S
Eu41 O52 2.418 . S
Eu41 O53 2.384 . S
Eu41 O56 2.479 1_545 S
Eu41 O57 2.471 1_545 S
Eu41 O58 2.347 . S
Eu41 O61 2.366 1_545 S
Eu41 C71 2.825 1_545 S
C42 O58 1.259 . S
C42 O59 1.265 . S
C43 O60 1.255 1_565 S
C43 O61 1.265 . S
C44 C46 1.380 . S
C44 C47 1.374 . S
C44 C50 1.507 . S
C45 C46 1.384 . S
C45 C49 1.387 . S
C45 H72 0.930 . S
C46 C44 1.380 . S
C46 C45 1.384 . S
C46 H73 0.931 . S
C47 C44 1.374 . S
C47 C48 1.390 . S
C47 H74 0.930 . S
C48 C47 1.390 . S
C48 C49 1.391 . S
C48 H75 0.930 . S
C49 C45 1.387 . S
C49 C48 1.391 . S
C50 Tb40 2.825 . S
C50 C44 1.507 . S
C50 O63 1.238 . S
C50 O64 1.247 . S
O51 Tb40 2.347 . S
O51 C55 1.259 . S
O52 Eu41 2.418 . S
O52 C55 1.265 . S
O53 Eu41 2.384 . S
O53 C62 1.255 . S
O54 Tb40 2.366 . S
O54 C62 1.265 . S
C55 O51 1.259 . S
C55 O52 1.265 . S
O56 Eu41 2.479 1_565 S
O56 C71 1.238 . S
O57 Eu41 2.471 1_565 S
O57 C71 1.247 . S
O58 Eu41 2.347 . S
O58 C42 1.259 . S
O59 Tb40 2.418 . S
O59 C42 1.265 . S
O60 Tb40 2.384 . S
O60 C43 1.255 1_545 S
O61 Eu41 2.366 1_565 S
O61 C43 1.265 . S
C62 O53 1.255 . S
C62 O54 1.265 . S
O63 Tb40 2.479 . S
O63 C50 1.238 . S
O64 Tb40 2.471 . S
O64 C50 1.247 . S
C65 C68 1.380 . S
C65 C69 1.374 . S
C65 C71 1.507 . S
C66 C67 1.387 . S
C66 C70 1.391 . S
C67 C66 1.387 . S
C67 C68 1.384 . S
C67 H76 0.930 . S
C68 C65 1.380 . S
C68 C67 1.384 . S
C68 H77 0.931 . S
C69 C65 1.374 . S
C69 C70 1.390 . S
C69 H78 0.930 . S
C70 C66 1.391 . S
C70 C69 1.390 . S
C70 H79 0.930 . S
C71 Eu41 2.825 1_565 S
C71 O56 1.238 . S
C71 O57 1.247 . S
C71 C65 1.507 . S
H72 C45 0.930 . S
H73 C46 0.931 . S
H74 C47 0.930 . S
H75 C48 0.930 . S
H76 C67 0.930 . S
H77 C68 0.931 . S
H78 C69 0.930 . S
H79 C70 0.930 . S
Tb80 C90 2.825 . S
Tb80 O91 2.347 . S
Tb80 O94 2.366 . S
Tb80 O99 2.418 . S
Tb80 O100 2.384 . S
Tb80 O103 2.479 . S
Tb80 O104 2.471 . S
Eu81 O92 2.418 . S
Eu81 O93 2.384 . S
Eu81 O96 2.479 . S
Eu81 O97 2.471 . S
Eu81 O98 2.347 . S
Eu81 O101 2.366 . S
Eu81 C111 2.825 . S
C82 O98 1.259 . S
C82 O99 1.265 . S
C83 O100 1.255 . S
C83 O101 1.265 . S
C84 C86 1.380 . S
C84 C87 1.374 . S
C84 C90 1.507 . S
C85 C86 1.384 . S
C85 C89 1.387 . S
C85 H112 0.930 . S
C86 C84 1.380 . S
C86 C85 1.384 . S
C86 H113 0.931 . S
C87 C84 1.374 . S
C87 C88 1.390 . S
C87 H114 0.930 . S
C88 C87 1.390 . S
C88 C89 1.391 . S
C88 H115 0.930 . S
C89 C85 1.387 . S
C89 C88 1.391 . S
C90 Tb80 2.825 . S
C90 C84 1.507 . S
C90 O103 1.238 . S
C90 O104 1.247 . S
O91 Tb80 2.347 . S
O91 C95 1.259 . S
O92 Eu81 2.418 . S
O92 C95 1.265 . S
O93 Eu81 2.384 . S
O93 C102 1.255 . S
O94 Tb80 2.366 . S
O94 C102 1.265 . S
C95 O91 1.259 . S
C95 O92 1.265 . S
O96 Eu81 2.479 . S
O96 C111 1.238 . S
O97 Eu81 2.471 . S
O97 C111 1.247 . S
O98 Eu81 2.347 . S
O98 C82 1.259 . S
O99 Tb80 2.418 . S
O99 C82 1.265 . S
O100 Tb80 2.384 . S
O100 C83 1.255 . S
O101 Eu81 2.366 . S
O101 C83 1.265 . S
C102 O93 1.255 . S
C102 O94 1.265 . S
O103 Tb80 2.479 . S
O103 C90 1.238 . S
O104 Tb80 2.471 . S
O104 C90 1.247 . S
C105 C108 1.380 . S
C105 C109 1.374 . S
C105 C111 1.507 . S
C106 C107 1.387 . S
C106 C110 1.391 . S
C107 C106 1.387 . S
C107 C108 1.384 . S
C107 H116 0.930 . S
C108 C105 1.380 . S
C108 C107 1.384 . S
C108 H117 0.931 . S
C109 C105 1.374 . S
C109 C110 1.390 . S
C109 H118 0.930 . S
C110 C106 1.391 . S
C110 C109 1.390 . S
C110 H119 0.930 . S
C111 Eu81 2.825 . S
C111 O96 1.238 . S
C111 O97 1.247 . S
C111 C105 1.507 . S
H112 C85 0.930 . S
H113 C86 0.931 . S
H114 C87 0.930 . S
H115 C88 0.930 . S
H116 C107 0.930 . S
H117 C108 0.931 . S
H118 C109 0.930 . S
H119 C110 0.930 . S
O120 Cd121 2.300 . S
O120 C127 1.275 . S
Cd121 O120 2.300 . S
Cd121 O129 2.381 . S
Cd121 O130 2.378 . S
O122 Cd123 2.398 . S
O122 C127 1.242 1_565 S
Cd123 O122 2.398 . S
Cd123 O124 2.317 . S
O124 Cd123 2.317 . S
O124 C125 1.232 . S
C125 O124 1.232 . S
C125 O126 1.218 . S
O126 C125 1.218 . S
C127 O120 1.275 . S
C127 O122 1.242 1_545 S
C128 O129 1.258 . S
C128 O130 1.256 . S
O129 Cd121 2.381 . S
O129 C128 1.258 . S
O130 Cd121 2.378 . S
O130 C128 1.256 . S
O131 Cd132 2.300 . S
O131 C138 1.275 . S
Cd132 O131 2.300 . S
Cd132 O140 2.381 . S
Cd132 O141 2.378 . S
O133 Cd134 2.385 . S
O133 C138 1.255 . S
Cd134 O133 2.385 . S
Cd134 O135 2.317 . S
O135 Cd134 2.317 . S
O135 C136 1.232 . S
C136 O135 1.232 . S
C136 O137 1.218 . S
O137 C136 1.218 . S
C138 O131 1.275 . S
C138 O133 1.255 . S
C139 O140 1.258 . S
C139 O141 1.256 . S
O140 Cd132 2.381 . S
O140 C139 1.258 . S
O141 Cd132 2.378 . S
O141 C139 1.256 . S
O142 Cd143 2.300 . S
O142 C149 1.275 . S
Cd143 O142 2.300 . S
Cd143 O151 2.381 . S
Cd143 O152 2.378 . S
O144 Cd145 2.385 . S
O144 C149 1.255 1_655 S
Cd145 O144 2.385 . S
Cd145 O146 2.317 . S
O146 Cd145 2.317 . S
O146 C147 1.232 . S
C147 O146 1.232 . S
C147 O148 1.218 . S
O148 C147 1.218 . S
C149 O142 1.275 . S
C149 O144 1.255 1_455 S
C150 O151 1.258 . S
C150 O152 1.256 . S
O151 Cd143 2.381 . S
O151 C150 1.258 . S
O152 Cd143 2.378 . S
O152 C150 1.256 . S
O153 Cd154 2.300 . S
O153 C160 1.275 . S
Cd154 O153 2.300 . S
Cd154 O162 2.381 . S
Cd154 O163 2.378 . S
O155 Cd156 2.385 . S
O155 C160 1.255 1_655 S
Cd156 O155 2.385 . S
Cd156 O157 2.317 . S
O157 Cd156 2.317 . S
O157 C158 1.232 . S
C158 O157 1.232 . S
C158 O159 1.218 . S
O159 C158 1.218 . S
C160 O153 1.275 . S
C160 O155 1.255 1_455 S
C161 O162 1.258 . S
C161 O163 1.256 . S
O162 Cd154 2.381 . S
O162 C161 1.258 . S
O163 Cd154 2.378 . S
O163 C161 1.256 . S
O164 Cd165 2.300 . S
O164 C171 1.275 1_565 S
Cd165 O164 2.300 . S
Cd165 O173 2.381 . S
Cd165 O174 2.378 . S
O166 Cd167 2.385 . S
O166 C171 1.255 . S
Cd167 O166 2.385 . S
Cd167 O168 2.317 . S
O168 Cd167 2.317 . S
O168 C169 1.232 . S
C169 O168 1.232 . S
C169 O170 1.218 . S
O170 C169 1.218 . S
C171 O164 1.275 1_545 S
C171 O166 1.255 . S
C172 O173 1.258 . S
C172 O174 1.256 . S
O173 Cd165 2.381 . S
O173 C172 1.258 . S
O174 Cd165 2.378 . S
O174 C172 1.256 . S
O175 Cd176 2.300 . S
O175 C182 1.275 . S
Cd176 O175 2.300 . S
Cd176 O184 2.381 . S
Cd176 O185 2.378 . S
O177 Cd178 2.385 . S
O177 C182 1.255 . S
Cd178 O177 2.385 . S
Cd178 O179 2.317 . S
O179 Cd178 2.317 . S
O179 C180 1.232 . S
C180 O179 1.232 . S
C180 O181 1.218 . S
O181 C180 1.218 . S
C182 O175 1.275 . S
C182 O177 1.255 . S
C183 O184 1.258 . S
C183 O185 1.256 . S
O184 Cd176 2.381 . S
O184 C183 1.258 . S
O185 Cd176 2.378 . S
O185 C183 1.256 . S
H186 C194 0.929 . S
H187 C196 0.930 . S
H188 C198 0.930 . S
H189 C201 0.929 . S
H190 C204 0.930 . S
H191 C206 0.960 . S
H192 C206 0.960 . S
H193 C206 0.960 . S
C194 H186 0.929 . S
C194 C195 1.377 . S
C194 C196 1.384 . S
C195 C194 1.377 . S
C195 C201 1.390 . S
C196 H187 0.930 . S
C196 C194 1.384 . S
C196 C197 1.372 . S
C197 C196 1.372 . S
C197 C198 1.400 . S
C197 C202 1.490 . S
C198 H188 0.930 . S
C198 C197 1.400 . S
C198 C201 1.386 . S
H199 C215 0.930 . S
H200 C216 0.931 . S
C201 H189 0.929 . S
C201 C195 1.390 . S
C201 C198 1.386 . S
C202 C197 1.490 . S
C202 C204 1.395 . S
C202 C205 1.403 . S
H203 C209 0.930 . S
C204 H190 0.930 . S
C204 C202 1.395 . S
C204 C207 1.403 . S
C205 C202 1.403 . S
C205 C206 1.524 . S
C205 C209 1.400 . S
C206 H191 0.960 . S
C206 H192 0.960 . S
C206 H193 0.960 . S
C206 C205 1.524 . S
C207 C204 1.403 . S
C207 C208 1.392 . S
C207 C211 1.495 . S
C208 C207 1.392 . S
C208 C209 1.385 . S
C208 C210 1.478 . S
C209 H203 0.930 . S
C209 C205 1.400 . S
C209 C208 1.385 . S
C210 C208 1.478 . S
C210 C212 1.381 . S
C210 C216 1.383 . S
C211 C207 1.495 . S
C211 H217 0.959 . S
C211 H218 0.961 . S
C211 H219 0.960 . S
C212 C210 1.381 . S
C212 C213 1.394 . S
C212 H220 0.930 . S
C213 C212 1.394 . S
C213 C214 1.383 . S
C213 H221 0.929 . S
C214 C213 1.383 . S
C214 C215 1.377 . S
C215 H199 0.930 . S
C215 C214 1.377 . S
C215 C216 1.379 . S
C216 H200 0.931 . S
C216 C210 1.383 . S
C216 C215 1.379 . S
H217 C211 0.959 . S
H218 C211 0.961 . S
H219 C211 0.960 . S
H220 C212 0.930 . S
H221 C213 0.929 . S
H222 C230 0.929 . S
H223 C232 0.930 . S
H224 C234 0.930 . S
H225 C237 0.929 . S
H226 C240 0.930 . S
H227 C242 0.960 . S
H228 C242 0.960 . S
H229 C242 0.960 . S
C230 H222 0.929 . S
C230 C231 1.377 . S
C230 C232 1.384 . S
C231 C230 1.377 . S
C231 C237 1.390 . S
C232 H223 0.930 . S
C232 C230 1.384 . S
C232 C233 1.372 . S
C233 C232 1.372 . S
C233 C234 1.400 . S
C233 C238 1.490 . S
C234 H224 0.930 . S
C234 C233 1.400 . S
C234 C237 1.386 . S
H235 C251 0.930 . S
H236 C252 0.931 . S
C237 H225 0.929 . S
C237 C231 1.390 . S
C237 C234 1.386 . S
C238 C233 1.490 . S
C238 C240 1.395 . S
C238 C241 1.403 . S
H239 C245 0.930 . S
C240 H226 0.930 . S
C240 C238 1.395 . S
C240 C243 1.403 . S
C241 C238 1.403 . S
C241 C242 1.524 . S
C241 C245 1.400 . S
C242 H227 0.960 . S
C242 H228 0.960 . S
C242 H229 0.960 . S
C242 C241 1.524 . S
C243 C240 1.403 . S
C243 C244 1.392 . S
C243 C247 1.495 . S
C244 C243 1.392 . S
C244 C245 1.385 . S
C244 C246 1.478 . S
C245 H239 0.930 . S
C245 C241 1.400 . S
C245 C244 1.385 . S
C246 C244 1.478 . S
C246 C248 1.381 . S
C246 C252 1.383 . S
C247 C243 1.495 . S
C247 H253 0.959 . S
C247 H254 0.961 . S
C247 H255 0.960 . S
C248 C246 1.381 . S
C248 C249 1.394 . S
C248 H256 0.930 . S
C249 C248 1.394 . S
C249 C250 1.383 . S
C249 H257 0.929 . S
C250 C249 1.383 . S
C250 C251 1.377 . S
C251 H235 0.930 . S
C251 C250 1.377 . S
C251 C252 1.379 . S
C252 H236 0.931 . S
C252 C246 1.383 . S
C252 C251 1.379 . S
H253 C247 0.959 . S
H254 C247 0.961 . S
H255 C247 0.960 . S
H256 C248 0.930 . S
H257 C249 0.929 . S
H258 C266 0.929 . S
H259 C268 0.930 . S
H260 C270 0.930 . S
H261 C273 0.929 . S
H262 C276 0.930 . S
H263 C278 0.960 . S
H264 C278 0.960 . S
H265 C278 0.960 . S
C266 H258 0.929 . S
C266 C267 1.377 . S
C266 C268 1.384 . S
C267 C266 1.377 . S
C267 C273 1.390 . S
C268 H259 0.930 . S
C268 C266 1.384 . S
C268 C269 1.372 . S
C269 C268 1.372 . S
C269 C270 1.400 . S
C269 C274 1.490 . S
C270 H260 0.930 . S
C270 C269 1.400 . S
C270 C273 1.386 . S
H271 C287 0.930 . S
H272 C288 0.931 . S
C273 H261 0.929 . S
C273 C267 1.390 . S
C273 C270 1.386 . S
C274 C269 1.490 . S
C274 C276 1.395 . S
C274 C277 1.403 . S
H275 C281 0.930 . S
C276 H262 0.930 . S
C276 C274 1.395 . S
C276 C279 1.403 . S
C277 C274 1.403 . S
C277 C278 1.524 . S
C277 C281 1.400 . S
C278 H263 0.960 . S
C278 H264 0.960 . S
C278 H265 0.960 . S
C278 C277 1.524 . S
C279 C276 1.403 . S
C279 C280 1.392 . S
C279 C283 1.495 . S
C280 C279 1.392 . S
C280 C281 1.385 . S
C280 C282 1.478 . S
C281 H275 0.930 . S
C281 C277 1.400 . S
C281 C280 1.385 . S
C282 C280 1.478 . S
C282 C284 1.381 . S
C282 C288 1.383 . S
C283 C279 1.495 . S
C283 H289 0.959 . S
C283 H290 0.961 . S
C283 H291 0.960 . S
C284 C282 1.381 . S
C284 C285 1.394 . S
C284 H292 0.930 . S
C285 C284 1.394 . S
C285 C286 1.383 . S
C285 H293 0.929 . S
C286 C285 1.383 . S
C286 C287 1.377 . S
C287 H271 0.930 . S
C287 C286 1.377 . S
C287 C288 1.379 . S
C288 H272 0.931 . S
C288 C282 1.383 . S
C288 C287 1.379 . S
H289 C283 0.959 . S
H290 C283 0.961 . S
H291 C283 0.960 . S
H292 C284 0.930 . S
H293 C285 0.929 . S
H294 C302 0.929 . S
H295 C304 0.930 . S
H296 C306 0.930 . S
H297 C309 0.929 . S
H298 C312 0.930 . S
H299 C314 0.960 . S
H300 C314 0.960 . S
H301 C314 0.960 . S
C302 H294 0.929 . S
C302 C303 1.377 . S
C302 C304 1.384 . S
C303 C302 1.377 . S
C303 C309 1.390 . S
C304 H295 0.930 . S
C304 C302 1.384 . S
C304 C305 1.372 . S
C305 C304 1.372 . S
C305 C306 1.400 . S
C305 C310 1.490 . S
C306 H296 0.930 . S
C306 C305 1.400 . S
C306 C309 1.386 . S
H307 C323 0.930 . S
H308 C324 0.931 . S
C309 H297 0.929 . S
C309 C303 1.390 . S
C309 C306 1.386 . S
C310 C305 1.490 . S
C310 C312 1.395 . S
C310 C313 1.403 . S
H311 C317 0.930 . S
C312 H298 0.930 . S
C312 C310 1.395 . S
C312 C315 1.403 . S
C313 C310 1.403 . S
C313 C314 1.524 . S
C313 C317 1.400 . S
C314 H299 0.960 . S
C314 H300 0.960 . S
C314 H301 0.960 . S
C314 C313 1.524 . S
C315 C312 1.403 . S
C315 C316 1.392 . S
C315 C319 1.495 . S
C316 C315 1.392 . S
C316 C317 1.385 . S
C316 C318 1.478 . S
C317 H311 0.930 . S
C317 C313 1.400 . S
C317 C316 1.385 . S
C318 C316 1.478 . S
C318 C320 1.381 . S
C318 C324 1.383 . S
C319 C315 1.495 . S
C319 H325 0.959 . S
C319 H326 0.961 . S
C319 H327 0.960 . S
C320 C318 1.381 . S
C320 C321 1.394 . S
C320 H328 0.930 . S
C321 C320 1.394 . S
C321 C322 1.383 . S
C321 H329 0.929 . S
C322 C321 1.383 . S
C322 C323 1.377 . S
C323 H307 0.930 . S
C323 C322 1.377 . S
C323 C324 1.379 . S
C324 H308 0.931 . S
C324 C318 1.383 . S
C324 C323 1.379 . S
H325 C319 0.959 . S
H326 C319 0.961 . S
H327 C319 0.960 . S
H328 C320 0.930 . S
H329 C321 0.929 . S
H330 C338 0.929 . S
H331 C340 0.930 . S
H332 C342 0.930 . S
H333 C345 0.929 . S
H334 C348 0.930 . S
H335 C350 0.960 . S
H336 C350 0.960 . S
H337 C350 0.960 . S
C338 H330 0.929 . S
C338 C339 1.377 . S
C338 C340 1.384 . S
C339 C338 1.377 . S
C339 C345 1.390 . S
C340 H331 0.930 . S
C340 C338 1.384 . S
C340 C341 1.372 . S
C341 C340 1.372 . S
C341 C342 1.400 . S
C341 C346 1.490 . S
C342 H332 0.930 . S
C342 C341 1.400 . S
C342 C345 1.386 . S
H343 C359 0.930 . S
H344 C360 0.931 . S
C345 H333 0.929 . S
C345 C339 1.390 . S
C345 C342 1.386 . S
C346 C341 1.490 . S
C346 C348 1.395 . S
C346 C349 1.403 . S
H347 C353 0.930 . S
C348 H334 0.930 . S
C348 C346 1.395 . S
C348 C351 1.403 . S
C349 C346 1.403 . S
C349 C350 1.524 . S
C349 C353 1.400 . S
C350 H335 0.960 . S
C350 H336 0.960 . S
C350 H337 0.960 . S
C350 C349 1.524 . S
C351 C348 1.403 . S
C351 C352 1.392 . S
C351 C355 1.495 . S
C352 C351 1.392 . S
C352 C353 1.385 . S
C352 C354 1.478 . S
C353 H347 0.930 . S
C353 C349 1.400 . S
C353 C352 1.385 . S
C354 C352 1.478 . S
C354 C356 1.381 . S
C354 C360 1.383 . S
C355 C351 1.495 . S
C355 H361 0.959 . S
C355 H362 0.961 . S
C355 H363 0.960 . S
C356 C354 1.381 . S
C356 C357 1.394 . S
C356 H364 0.930 . S
C357 C356 1.394 . S
C357 C358 1.383 . S
C357 H365 0.929 . S
C358 C357 1.383 . S
C358 C359 1.377 . S
C359 H343 0.930 . S
C359 C358 1.377 . S
C359 C360 1.379 . S
C360 H344 0.931 . S
C360 C354 1.383 . S
C360 C359 1.379 . S
H361 C355 0.959 . S
H362 C355 0.961 . S
H363 C355 0.960 . S
H364 C356 0.930 . S
H365 C357 0.929 . S
H366 C374 0.929 . S
H367 C376 0.930 . S
H368 C378 0.930 . S
H369 C381 0.929 . S
H370 C384 0.930 . S
H371 C386 0.960 . S
H372 C386 0.960 . S
H373 C386 0.960 . S
C374 H366 0.929 . S
C374 C375 1.377 . S
C374 C376 1.384 . S
C375 C374 1.377 . S
C375 C381 1.390 . S
C376 H367 0.930 . S
C376 C374 1.384 . S
C376 C377 1.372 . S
C377 C376 1.372 . S
C377 C378 1.400 . S
C377 C382 1.490 . S
C378 H368 0.930 . S
C378 C377 1.400 . S
C378 C381 1.386 . S
H379 C395 0.930 . S
H380 C396 0.931 . S
C381 H369 0.929 . S
C381 C375 1.390 . S
C381 C378 1.386 . S
C382 C377 1.490 . S
C382 C384 1.395 . S
C382 C385 1.403 . S
H383 C389 0.930 . S
C384 H370 0.930 . S
C384 C382 1.395 . S
C384 C387 1.403 . S
C385 C382 1.403 . S
C385 C386 1.524 . S
C385 C389 1.400 . S
C386 H371 0.960 . S
C386 H372 0.960 . S
C386 H373 0.960 . S
C386 C385 1.524 . S
C387 C384 1.403 . S
C387 C388 1.392 . S
C387 C391 1.495 . S
C388 C387 1.392 . S
C388 C389 1.385 . S
C388 C390 1.478 . S
C389 H383 0.930 . S
C389 C385 1.400 . S
C389 C388 1.385 . S
C390 C388 1.478 . S
C390 C392 1.381 . S
C390 C396 1.383 . S
C391 C387 1.495 . S
C391 H397 0.959 . S
C391 H398 0.961 . S
C391 H399 0.960 . S
C392 C390 1.381 . S
C392 C393 1.394 . S
C392 H400 0.930 . S
C393 C392 1.394 . S
C393 C394 1.383 . S
C393 H401 0.929 . S
C394 C393 1.383 . S
C394 C395 1.377 . S
C395 H379 0.930 . S
C395 C394 1.377 . S
C395 C396 1.379 . S
C396 H380 0.931 . S
C396 C390 1.383 . S
C396 C395 1.379 . S
H397 C391 0.959 . S
H398 C391 0.961 . S
H399 C391 0.960 . S
H400 C392 0.930 . S
H401 C393 0.929 . S
H402 C410 0.929 . S
H403 C412 0.930 . S
H404 C414 0.930 . S
H405 C417 0.929 . S
H406 C420 0.930 . S
H407 C422 0.960 . S
H408 C422 0.960 . S
H409 C422 0.960 . S
C410 H402 0.929 . S
C410 C411 1.377 . S
C410 C412 1.384 . S
C411 C410 1.377 . S
C411 C417 1.390 . S
C412 H403 0.930 . S
C412 C410 1.384 . S
C412 C413 1.372 . S
C413 C412 1.372 . S
C413 C414 1.400 . S
C413 C418 1.490 . S
C414 H404 0.930 . S
C414 C413 1.400 . S
C414 C417 1.386 . S
H415 C431 0.930 . S
H416 C432 0.931 . S
C417 H405 0.929 . S
C417 C411 1.390 . S
C417 C414 1.386 . S
C418 C413 1.490 . S
C418 C420 1.395 . S
C418 C421 1.403 . S
H419 C425 0.930 . S
C420 H406 0.930 . S
C420 C418 1.395 . S
C420 C423 1.403 . S
C421 C418 1.403 . S
C421 C422 1.524 . S
C421 C425 1.400 . S
C422 H407 0.960 . S
C422 H408 0.960 . S
C422 H409 0.960 . S
C422 C421 1.524 . S
C423 C420 1.403 . S
C423 C424 1.392 . S
C423 C427 1.495 . S
C424 C423 1.392 . S
C424 C425 1.385 . S
C424 C426 1.478 . S
C425 H419 0.930 . S
C425 C421 1.400 . S
C425 C424 1.385 . S
C426 C424 1.478 . S
C426 C428 1.381 . S
C426 C432 1.383 . S
C427 C423 1.495 . S
C427 H433 0.959 . S
C427 H434 0.961 . S
C427 H435 0.960 . S
C428 C426 1.381 . S
C428 C429 1.394 . S
C428 H436 0.930 . S
C429 C428 1.394 . S
C429 C430 1.383 . S
C429 H437 0.929 . S
C430 C429 1.383 . S
C430 C431 1.377 . S
C431 H415 0.930 . S
C431 C430 1.377 . S
C431 C432 1.379 . S
C432 H416 0.931 . S
C432 C426 1.383 . S
C432 C431 1.379 . S
H433 C427 0.959 . S
H434 C427 0.961 . S
H435 C427 0.960 . S
H436 C428 0.930 . S
H437 C429 0.929 . S
H438 C446 0.929 . S
H439 C448 0.930 . S
H440 C450 0.930 . S
H441 C453 0.929 . S
H442 C456 0.930 . S
H443 C458 0.960 . S
H444 C458 0.960 . S
H445 C458 0.960 . S
C446 H438 0.929 . S
C446 C447 1.377 . S
C446 C448 1.384 . S
C447 C446 1.377 . S
C447 C453 1.390 . S
C448 H439 0.930 . S
C448 C446 1.384 . S
C448 C449 1.372 . S
C449 C448 1.372 . S
C449 C450 1.400 . S
C449 C454 1.490 . S
C450 H440 0.930 . S
C450 C449 1.400 . S
C450 C453 1.386 . S
H451 C467 0.930 . S
H452 C468 0.931 . S
C453 H441 0.929 . S
C453 C447 1.390 . S
C453 C450 1.386 . S
C454 C449 1.490 . S
C454 C456 1.395 . S
C454 C457 1.403 . S
H455 C461 0.930 . S
C456 H442 0.930 . S
C456 C454 1.395 . S
C456 C459 1.403 . S
C457 C454 1.403 . S
C457 C458 1.524 . S
C457 C461 1.400 . S
C458 H443 0.960 . S
C458 H444 0.960 . S
C458 H445 0.960 . S
C458 C457 1.524 . S
C459 C456 1.403 . S
C459 C460 1.392 . S
C459 C463 1.495 . S
C460 C459 1.392 . S
C460 C461 1.385 . S
C460 C462 1.478 . S
C461 H455 0.930 . S
C461 C457 1.400 . S
C461 C460 1.385 . S
C462 C460 1.478 . S
C462 C464 1.381 . S
C462 C468 1.383 . S
C463 C459 1.495 . S
C463 H469 0.959 . S
C463 H470 0.961 . S
C463 H471 0.960 . S
C464 C462 1.381 . S
C464 C465 1.394 . S
C464 H472 0.930 . S
C465 C464 1.394 . S
C465 C466 1.383 . S
C465 H473 0.929 . S
C466 C465 1.383 . S
C466 C467 1.377 . S
C467 H451 0.930 . S
C467 C466 1.377 . S
C467 C468 1.379 . S
C468 H452 0.931 . S
C468 C462 1.383 . S
C468 C467 1.379 . S
H469 C463 0.959 . S
H470 C463 0.961 . S
H471 C463 0.960 . S
H472 C464 0.930 . S
H473 C465 0.929 . S
H474 C482 0.929 . S
H475 C484 0.930 . S
H476 C486 0.930 . S
H477 C489 0.929 . S
H478 C492 0.930 . S
H479 C494 0.960 . S
H480 C494 0.960 . S
H481 C494 0.960 . S
C482 H474 0.929 . S
C482 C483 1.377 . S
C482 C484 1.384 . S
C483 C482 1.377 . S
C483 C489 1.390 . S
C484 H475 0.930 . S
C484 C482 1.384 . S
C484 C485 1.372 . S
C485 C484 1.372 . S
C485 C486 1.400 . S
C485 C490 1.490 . S
C486 H476 0.930 . S
C486 C485 1.400 . S
C486 C489 1.386 . S
H487 C503 0.930 . S
H488 C504 0.931 . S
C489 H477 0.929 . S
C489 C483 1.390 . S
C489 C486 1.386 . S
C490 C485 1.490 . S
C490 C492 1.395 . S
C490 C493 1.403 . S
H491 C497 0.930 . S
C492 H478 0.930 . S
C492 C490 1.395 . S
C492 C495 1.403 . S
C493 C490 1.403 . S
C493 C494 1.524 . S
C493 C497 1.400 . S
C494 H479 0.960 . S
C494 H480 0.960 . S
C494 H481 0.960 . S
C494 C493 1.524 . S
C495 C492 1.403 . S
C495 C496 1.392 . S
C495 C499 1.495 . S
C496 C495 1.392 . S
C496 C497 1.385 . S
C496 C498 1.478 . S
C497 H491 0.930 . S
C497 C493 1.400 . S
C497 C496 1.385 . S
C498 C496 1.478 . S
C498 C500 1.381 . S
C498 C504 1.383 . S
C499 C495 1.495 . S
C499 H505 0.959 . S
C499 H506 0.961 . S
C499 H507 0.960 . S
C500 C498 1.381 . S
C500 C501 1.394 . S
C500 H508 0.930 . S
C501 C500 1.394 . S
C501 C502 1.383 . S
C501 H509 0.929 . S
C502 C501 1.383 . S
C502 C503 1.377 . S
C503 H487 0.930 . S
C503 C502 1.377 . S
C503 C504 1.379 . S
C504 H488 0.931 . S
C504 C498 1.383 . S
C504 C503 1.379 . S
H505 C499 0.959 . S
H506 C499 0.961 . S
H507 C499 0.960 . S
H508 C500 0.930 . S
H509 C501 0.929 . S
H510 C518 0.929 . S
H511 C520 0.930 . S
H512 C522 0.930 . S
H513 C525 0.929 . S
H514 C528 0.930 . S
H515 C530 0.960 . S
H516 C530 0.960 . S
H517 C530 0.960 . S
C518 H510 0.929 . S
C518 C519 1.377 . S
C518 C520 1.384 . S
C519 C518 1.377 . S
C519 C525 1.390 . S
C520 H511 0.930 . S
C520 C518 1.384 . S
C520 C521 1.372 . S
C521 C520 1.372 . S
C521 C522 1.400 . S
C521 C526 1.490 . S
C522 H512 0.930 . S
C522 C521 1.400 . S
C522 C525 1.386 . S
H523 C539 0.930 . S
H524 C540 0.931 . S
C525 H513 0.929 . S
C525 C519 1.390 . S
C525 C522 1.386 . S
C526 C521 1.490 . S
C526 C528 1.395 . S
C526 C529 1.403 . S
H527 C533 0.930 . S
C528 H514 0.930 . S
C528 C526 1.395 . S
C528 C531 1.403 . S
C529 C526 1.403 . S
C529 C530 1.524 . S
C529 C533 1.400 . S
C530 H515 0.960 . S
C530 H516 0.960 . S
C530 H517 0.960 . S
C530 C529 1.524 . S
C531 C528 1.403 . S
C531 C532 1.392 . S
C531 C535 1.495 . S
C532 C531 1.392 . S
C532 C533 1.385 . S
C532 C534 1.478 . S
C533 H527 0.930 . S
C533 C529 1.400 . S
C533 C532 1.385 . S
C534 C532 1.478 . S
C534 C536 1.381 . S
C534 C540 1.383 . S
C535 C531 1.495 . S
C535 H541 0.959 . S
C535 H542 0.961 . S
C535 H543 0.960 . S
C536 C534 1.381 . S
C536 C537 1.394 . S
C536 H544 0.930 . S
C537 C536 1.394 . S
C537 C538 1.383 . S
C537 H545 0.929 . S
C538 C537 1.383 . S
C538 C539 1.377 . S
C539 H523 0.930 . S
C539 C538 1.377 . S
C539 C540 1.379 . S
C540 H524 0.931 . S
C540 C534 1.383 . S
C540 C539 1.379 . S
H541 C535 0.959 . S
H542 C535 0.961 . S
H543 C535 0.960 . S
H544 C536 0.930 . S
H545 C537 0.929 . S
H546 C554 0.929 . S
H547 C556 0.930 . S
H548 C558 0.930 . S
H549 C561 0.929 . S
H550 C564 0.930 . S
H551 C566 0.960 . S
H552 C566 0.960 . S
H553 C566 0.960 . S
C554 H546 0.929 . S
C554 C555 1.377 . S
C554 C556 1.384 . S
C555 C554 1.377 . S
C555 C561 1.390 . S
C556 H547 0.930 . S
C556 C554 1.384 . S
C556 C557 1.372 . S
C557 C556 1.372 . S
C557 C558 1.400 . S
C557 C562 1.490 . S
C558 H548 0.930 . S
C558 C557 1.400 . S
C558 C561 1.386 . S
H559 C575 0.930 . S
H560 C576 0.931 . S
C561 H549 0.929 . S
C561 C555 1.390 . S
C561 C558 1.386 . S
C562 C557 1.490 . S
C562 C564 1.395 . S
C562 C565 1.403 . S
H563 C569 0.930 . S
C564 H550 0.930 . S
C564 C562 1.395 . S
C564 C567 1.403 . S
C565 C562 1.403 . S
C565 C566 1.524 . S
C565 C569 1.400 . S
C566 H551 0.960 . S
C566 H552 0.960 . S
C566 H553 0.960 . S
C566 C565 1.524 . S
C567 C564 1.403 . S
C567 C568 1.392 . S
C567 C571 1.495 . S
C568 C567 1.392 . S
C568 C569 1.385 . S
C568 C570 1.478 . S
C569 H563 0.930 . S
C569 C565 1.400 . S
C569 C568 1.385 . S
C570 C568 1.478 . S
C570 C572 1.381 . S
C570 C576 1.383 . S
C571 C567 1.495 . S
C571 H577 0.959 . S
C571 H578 0.961 . S
C571 H579 0.960 . S
C572 C570 1.381 . S
C572 C573 1.394 . S
C572 H580 0.930 . S
C573 C572 1.394 . S
C573 C574 1.383 . S
C573 H581 0.929 . S
C574 C573 1.383 . S
C574 C575 1.377 . S
C575 H559 0.930 . S
C575 C574 1.377 . S
C575 C576 1.379 . S
C576 H560 0.931 . S
C576 C570 1.383 . S
C576 C575 1.379 . S
H577 C571 0.959 . S
H578 C571 0.961 . S
H579 C571 0.960 . S
H580 C572 0.930 . S
H581 C573 0.929 . S
H582 C590 0.929 . S
H583 C592 0.930 . S
H584 C594 0.930 . S
H585 C597 0.929 . S
H586 C600 0.930 . S
H587 C602 0.960 . S
H588 C602 0.960 . S
H589 C602 0.960 . S
C590 H582 0.929 . S
C590 C591 1.377 . S
C590 C592 1.384 . S
C591 C590 1.377 . S
C591 C597 1.390 . S
C592 H583 0.930 . S
C592 C590 1.384 . S
C592 C593 1.372 . S
C593 C592 1.372 . S
C593 C594 1.400 . S
C593 C598 1.490 . S
C594 H584 0.930 . S
C594 C593 1.400 . S
C594 C597 1.386 . S
H595 C611 0.930 . S
H596 C612 0.931 . S
C597 H585 0.929 . S
C597 C591 1.390 . S
C597 C594 1.386 . S
C598 C593 1.490 . S
C598 C600 1.395 . S
C598 C601 1.403 . S
H599 C605 0.930 . S
C600 H586 0.930 . S
C600 C598 1.395 . S
C600 C603 1.403 . S
C601 C598 1.403 . S
C601 C602 1.524 . S
C601 C605 1.400 . S
C602 H587 0.960 . S
C602 H588 0.960 . S
C602 H589 0.960 . S
C602 C601 1.524 . S
C603 C600 1.403 . S
C603 C604 1.392 . S
C603 C607 1.495 . S
C604 C603 1.392 . S
C604 C605 1.385 . S
C604 C606 1.478 . S
C605 H599 0.930 . S
C605 C601 1.400 . S
C605 C604 1.385 . S
C606 C604 1.478 . S
C606 C608 1.381 . S
C606 C612 1.383 . S
C607 C603 1.495 . S
C607 H613 0.959 . S
C607 H614 0.961 . S
C607 H615 0.960 . S
C608 C606 1.381 . S
C608 C609 1.394 . S
C608 H616 0.930 . S
C609 C608 1.394 . S
C609 C610 1.383 . S
C609 H617 0.929 . S
C610 C609 1.383 . S
C610 C611 1.377 . S
C611 H595 0.930 . S
C611 C610 1.377 . S
C611 C612 1.379 . S
C612 H596 0.931 . S
C612 C606 1.383 . S
C612 C611 1.379 . S
H613 C607 0.959 . S
H614 C607 0.961 . S
H615 C607 0.960 . S
H616 C608 0.930 . S
H617 C609 0.929 . S
H618 C626 0.929 . S
H619 C628 0.930 . S
H620 C630 0.930 . S
H621 C633 0.929 . S
H622 C636 0.930 . S
H623 C638 0.960 . S
H624 C638 0.960 . S
H625 C638 0.960 1_455 S
C626 H618 0.929 . S
C626 C627 1.377 1_655 S
C626 C628 1.384 . S
C627 C626 1.377 1_455 S
C627 C633 1.390 . S
C628 H619 0.930 . S
C628 C626 1.384 . S
C628 C629 1.372 1_655 S
C629 C628 1.372 1_455 S
C629 C630 1.400 . S
C629 C634 1.490 . S
C630 H620 0.930 . S
C630 C629 1.400 . S
C630 C633 1.386 . S
H631 C647 0.930 . S
H632 C648 0.931 . S
C633 H621 0.929 . S
C633 C627 1.390 . S
C633 C630 1.386 . S
C634 C629 1.490 . S
C634 C636 1.395 . S
C634 C637 1.403 . S
H635 C641 0.906 1_556 S
C636 H622 0.930 . S
C636 C634 1.395 . S
C636 C639 1.403 . S
C637 C634 1.403 . S
C637 C638 1.524 1_455 S
C637 C641 1.400 . S
C638 H623 0.960 . S
C638 H624 0.960 . S
C638 H625 0.960 1_655 S
C638 C637 1.524 1_655 S
C639 C636 1.403 . S
C639 C640 1.376 1_554 S
C639 C643 1.495 . S
C640 C639 1.376 1_556 S
C640 C641 1.374 1_556 S
C640 C642 1.505 . S
C641 H635 0.906 1_554 S
C641 C637 1.400 . S
C641 C640 1.374 1_554 S
C642 C640 1.505 . S
C642 C644 1.381 1_455 S
C642 C648 1.383 . S
C643 C639 1.495 . S
C643 H649 0.959 . S
C643 H650 0.961 1_554 S
C643 H651 0.960 1_554 S
C644 C642 1.381 1_655 S
C644 C645 1.394 . S
C644 H652 0.930 . S
C645 C644 1.394 . S
C645 C646 1.383 1_655 S
C645 H653 0.929 . S
C646 C645 1.383 1_455 S
C646 C647 1.377 . S
C647 H631 0.930 . S
C647 C646 1.377 . S
C647 C648 1.379 . S
C648 H632 0.931 . S
C648 C642 1.383 . S
C648 C647 1.379 . S
H649 C643 0.959 . S
H650 C643 0.961 1_556 S
H651 C643 0.960 1_556 S
H652 C644 0.930 . S
H653 C645 0.929 . S
H654 C662 0.929 . S
H655 C664 0.930 . S
H656 C666 0.930 1_565 S
H657 C669 0.929 1_565 S
H658 C672 0.930 . S
H659 C674 0.960 . S
H660 C674 0.960 . S
H661 C674 0.960 . S
C662 H654 0.929 . S
C662 C663 1.377 . S
C662 C664 1.384 . S
C663 C662 1.377 . S
C663 C669 1.390 . S
C664 H655 0.930 . S
C664 C662 1.384 . S
C664 C665 1.372 . S
C665 C664 1.372 . S
C665 C666 1.400 . S
C665 C670 1.490 . S
C666 H656 0.930 1_545 S
C666 C665 1.400 . S
C666 C669 1.386 . S
H667 C683 0.908 1_565 S
H668 C684 0.931 1_565 S
C669 H657 0.929 1_545 S
C669 C663 1.390 . S
C669 C666 1.386 . S
C670 C665 1.490 . S
C670 C672 1.395 . S
C670 C673 1.403 . S
H671 C677 0.930 1_565 S
C672 H658 0.930 . S
C672 C670 1.395 . S
C672 C675 1.403 . S
C673 C670 1.403 . S
C673 C674 1.524 1_545 S
C673 C677 1.400 . S
C674 H659 0.960 . S
C674 H660 0.960 . S
C674 H661 0.960 . S
C674 C673 1.524 1_565 S
C675 C672 1.403 . S
C675 C676 1.392 . S
C675 C679 1.495 . S
C676 C675 1.392 . S
C676 C677 1.385 . S
C676 C678 1.478 . S
C677 H671 0.930 1_545 S
C677 C673 1.400 . S
C677 C676 1.385 . S
C678 C676 1.478 . S
C678 C680 1.381 . S
C678 C684 1.383 . S
C679 C675 1.495 . S
C679 H685 0.959 . S
C679 H686 0.961 . S
C679 H687 0.960 . S
C680 C678 1.381 . S
C680 C681 1.394 . S
C680 H688 0.930 . S
C681 C680 1.394 . S
C681 C682 1.383 . S
C681 H689 0.929 . S
C682 C681 1.383 . S
C682 C683 1.396 . S
C683 H667 0.908 1_545 S
C683 C682 1.396 . S
C683 C684 1.382 . S
C684 H668 0.931 1_545 S
C684 C678 1.383 . S
C684 C683 1.382 . S
H685 C679 0.959 . S
H686 C679 0.961 . S
H687 C679 0.960 . S
H688 C680 0.930 . S
H689 C681 0.929 . S
H690 C698 0.929 . S
H691 C700 0.930 . S
H692 C702 0.930 . S
H693 C705 0.929 . S
H694 C708 0.930 . S
H695 C710 0.960 . S
H696 C710 0.960 . S
H697 C710 0.960 . S
C698 H690 0.929 . S
C698 C699 1.377 . S
C698 C700 1.384 . S
C699 C698 1.377 . S
C699 C705 1.390 . S
C700 H691 0.930 . S
C700 C698 1.384 . S
C700 C701 1.372 . S
C701 C700 1.372 . S
C701 C702 1.400 . S
C701 C706 1.490 . S
C702 H692 0.930 . S
C702 C701 1.400 . S
C702 C705 1.386 . S
H703 C719 0.930 . S
H704 C720 0.931 . S
C705 H693 0.929 . S
C705 C699 1.390 . S
C705 C702 1.386 . S
C706 C701 1.490 . S
C706 C708 1.395 . S
C706 C709 1.403 . S
H707 C713 0.930 . S
C708 H694 0.930 . S
C708 C706 1.395 . S
C708 C711 1.403 . S
C709 C706 1.403 . S
C709 C710 1.524 . S
C709 C713 1.400 . S
C710 H695 0.960 . S
C710 H696 0.960 . S
C710 H697 0.960 . S
C710 C709 1.524 . S
C711 C708 1.403 . S
C711 C712 1.392 . S
C711 C715 1.495 . S
C712 C711 1.392 . S
C712 C713 1.385 . S
C712 C714 1.478 . S
C713 H707 0.930 . S
C713 C709 1.400 . S
C713 C712 1.385 . S
C714 C712 1.478 . S
C714 C716 1.381 . S
C714 C720 1.383 . S
C715 C711 1.495 . S
C715 H721 0.959 . S
C715 H722 0.961 . S
C715 H723 0.960 . S
C716 C714 1.381 . S
C716 C717 1.394 . S
C716 H724 0.930 . S
C717 C716 1.394 . S
C717 C718 1.383 . S
C717 H725 0.929 . S
C718 C717 1.383 . S
C718 C719 1.377 . S
C719 H703 0.930 . S
C719 C718 1.377 . S
C719 C720 1.379 . S
C720 H704 0.931 . S
C720 C714 1.383 . S
C720 C719 1.379 . S
H721 C715 0.959 . S
H722 C715 0.961 . S
H723 C715 0.960 . S
H724 C716 0.930 . S
H725 C717 0.929 . S
H726 C734 0.929 . S
H727 C736 0.930 . S
H728 C738 0.930 . S
H729 C741 0.929 . S
H730 C744 0.929 . S
H731 C746 0.960 . S
H732 C746 0.960 . S
H733 C746 0.960 . S
C734 H726 0.929 . S
C734 C735 1.377 . S
C734 C736 1.384 . S
C735 C734 1.377 . S
C735 C741 1.390 . S
C736 H727 0.930 . S
C736 C734 1.384 . S
C736 C737 1.372 . S
C737 C736 1.372 . S
C737 C738 1.400 . S
C737 C742 1.490 . S
C738 H728 0.930 . S
C738 C737 1.400 . S
C738 C741 1.386 . S
H739 C755 0.930 . S
H740 C756 0.931 . S
C741 H729 0.929 . S
C741 C735 1.390 . S
C741 C738 1.386 . S
C742 C737 1.490 . S
C742 C744 1.396 1_545 S
C742 C745 1.403 . S
H743 C749 0.930 . S
C744 H730 0.929 . S
C744 C742 1.396 1_565 S
C744 C747 1.403 . S
C745 C742 1.403 . S
C745 C746 1.524 . S
C745 C749 1.400 . S
C746 H731 0.960 . S
C746 H732 0.960 . S
C746 H733 0.960 . S
C746 C745 1.524 . S
C747 C744 1.403 . S
C747 C748 1.392 1_565 S
C747 C751 1.495 . S
C748 C747 1.392 1_545 S
C748 C749 1.385 . S
C748 C750 1.478 . S
C749 H743 0.930 . S
C749 C745 1.400 . S
C749 C748 1.385 . S
C750 C748 1.478 . S
C750 C752 1.381 . S
C750 C756 1.383 . S
C751 C747 1.495 . S
C751 H757 0.959 . S
C751 H758 0.961 . S
C751 H759 0.960 . S
C752 C750 1.381 . S
C752 C753 1.394 . S
C752 H760 0.930 . S
C753 C752 1.394 . S
C753 C754 1.383 . S
C753 H761 0.929 . S
C754 C753 1.383 . S
C754 C755 1.377 . S
C755 H739 0.930 . S
C755 C754 1.377 . S
C755 C756 1.379 . S
C756 H740 0.931 . S
C756 C750 1.383 . S
C756 C755 1.379 . S
H757 C751 0.959 . S
H758 C751 0.961 . S
H759 C751 0.960 . S
H760 C752 0.930 . S
H761 C753 0.929 . S
H762 C770 0.929 . S
H763 C772 0.930 . S
H764 C774 0.930 . S
H765 C777 0.929 . S
H766 C780 0.930 . S
H767 C782 0.960 . S
H768 C782 0.960 . S
H769 C782 0.960 . S
C770 H762 0.929 . S
C770 C771 1.377 . S
C770 C772 1.384 . S
C771 C770 1.377 . S
C771 C777 1.390 . S
C772 H763 0.930 . S
C772 C770 1.384 . S
C772 C773 1.372 . S
C773 C772 1.372 . S
C773 C774 1.400 . S
C773 C778 1.490 . S
C774 H764 0.930 . S
C774 C773 1.400 . S
C774 C777 1.386 . S
H775 C791 0.930 . S
H776 C792 0.931 . S
C777 H765 0.929 . S
C777 C771 1.390 . S
C777 C774 1.386 . S
C778 C773 1.490 . S
C778 C780 1.395 . S
C778 C781 1.403 . S
H779 C785 0.930 . S
C780 H766 0.930 . S
C780 C778 1.395 . S
C780 C783 1.403 . S
C781 C778 1.403 . S
C781 C782 1.524 . S
C781 C785 1.400 . S
C782 H767 0.960 . S
C782 H768 0.960 . S
C782 H769 0.960 . S
C782 C781 1.524 . S
C783 C780 1.403 . S
C783 C784 1.392 1_556 S
C783 C787 1.495 1_556 S
C784 C783 1.392 1_554 S
C784 C785 1.385 1_554 S
C784 C786 1.478 . S
C785 H779 0.930 . S
C785 C781 1.400 . S
C785 C784 1.385 1_556 S
C786 C784 1.478 . S
C786 C788 1.381 . S
C786 C792 1.383 . S
C787 C783 1.495 1_554 S
C787 H793 0.959 1_554 S
C787 H794 0.961 . S
C787 H795 0.960 . S
C788 C786 1.381 . S
C788 C789 1.394 . S
C788 H796 0.930 . S
C789 C788 1.394 . S
C789 C790 1.383 . S
C789 H797 0.929 . S
C790 C789 1.383 . S
C790 C791 1.377 . S
C791 H775 0.930 . S
C791 C790 1.377 . S
C791 C792 1.379 . S
C792 H776 0.931 . S
C792 C786 1.383 . S
C792 C791 1.379 . S
H793 C787 0.959 1_556 S
H794 C787 0.961 . S
H795 C787 0.960 . S
H796 C788 0.930 . S
H797 C789 0.929 . S
H798 C806 0.929 . S
H799 C808 0.930 . S
H800 C810 0.930 . S
H801 C813 0.929 . S
H802 C816 0.930 . S
H803 C818 0.960 . S
H804 C818 0.960 1_455 S
H805 C818 0.960 . S
C806 H798 0.929 . S
C806 C807 1.377 . S
C806 C808 1.384 . S
C807 C806 1.377 . S
C807 C813 1.390 1_455 S
C808 H799 0.930 . S
C808 C806 1.384 . S
C808 C809 1.372 . S
C809 C808 1.372 . S
C809 C810 1.400 1_455 S
C809 C814 1.490 . S
C810 H800 0.930 . S
C810 C809 1.400 1_655 S
C810 C813 1.386 . S
H811 C827 0.930 . S
H812 C828 0.931 . S
C813 H801 0.929 . S
C813 C807 1.390 1_655 S
C813 C810 1.386 . S
C814 C809 1.490 . S
C814 C816 1.395 . S
C814 C817 1.403 . S
H815 C821 0.930 1_655 S
C816 H802 0.930 . S
C816 C814 1.395 . S
C816 C819 1.403 . S
C817 C814 1.403 . S
C817 C818 1.524 1_455 S
C817 C821 1.400 . S
C818 H803 0.960 . S
C818 H804 0.960 1_655 S
C818 H805 0.960 . S
C818 C817 1.524 1_655 S
C819 C816 1.403 . S
C819 C820 1.392 . S
C819 C823 1.495 . S
C820 C819 1.392 . S
C820 C821 1.385 . S
C820 C822 1.478 . S
C821 H815 0.930 1_455 S
C821 C817 1.400 . S
C821 C820 1.385 . S
C822 C820 1.478 . S
C822 C824 1.381 . S
C822 C828 1.383 1_455 S
C823 C819 1.495 . S
C823 H829 0.959 . S
C823 H830 0.961 . S
C823 H831 0.960 . S
C824 C822 1.381 . S
C824 C825 1.394 . S
C824 H832 0.930 . S
C825 C824 1.394 . S
C825 C826 1.383 . S
C825 H833 0.929 . S
C826 C825 1.383 . S
C826 C827 1.377 1_455 S
C827 H811 0.930 . S
C827 C826 1.377 1_655 S
C827 C828 1.379 . S
C828 H812 0.931 . S
C828 C822 1.383 1_655 S
C828 C827 1.379 . S
H829 C823 0.959 . S
H830 C823 0.961 . S
H831 C823 0.960 . S
H832 C824 0.930 . S
H833 C825 0.929 . S
C195 C9 0.510 . S
C214 C180 0.681 . S
C231 C49 0.404 . S
C250 C158 0.710 . S
C267 C89 0.128 . S
C286 C172 0.216 . S
C303 C26 0.277 . S
C322 C183 0.242 . S
C358 C161 0.220 . S
C339 C66 0.318 . S
C394 C169 0.799 . S
C375 C106 0.492 . S
C411 C43 3.142 . S
C430 C136 2.822 . S
C447 C83 3.258 . S
C466 C147 2.914 . S
C483 C22 3.317 . S
C502 C125 2.955 . S
C538 C139 2.854 . S
C519 C62 2.942 . S
C574 C150 2.753 . S
C555 C102 2.807 . S
C591 C3 2.755 . S
C610 C128 2.697 . S
C646 C149 1.667 . S
C627 C15 1.661 . S
C663 C55 1.669 . S
C682 C127 1.624 . S
C699 C95 1.701 . S
C718 C138 1.647 . S
C754 C171 1.216 . S
C735 C42 1.240 . S
C790 C182 1.179 . S
C771 C82 1.263 . S
C807 C2 1.253 . S
C826 C160 1.187 . S
