# Generated by pormake.
# Topology zzz, (3,6)-cn, num edge types: 1
# Building blocks:
#     Node 0, Type 0, BuildingBlock: WUSLED_clean_sbu_0, # of connection points: 3
#     Node 1, Type 0, BuildingBlock: WUSLED_clean_sbu_0, # of connection points: 3
#     Node 2, Type 0, BuildingBlock: WUSLED_clean_sbu_0, # of connection points: 3
#     Node 3, Type 0, BuildingBlock: WUSLED_clean_sbu_0, # of connection points: 3
#     Node 4, Type 0, BuildingBlock: WUSLED_clean_sbu_0, # of connection points: 3
#     Node 5, Type 0, BuildingBlock: WUSLED_clean_sbu_0, # of connection points: 3
#     Node 6, Type 0, BuildingBlock: WUSLED_clean_sbu_0, # of connection points: 3
#     Node 7, Type 0, BuildingBlock: WUSLED_clean_sbu_0, # of connection points: 3
#     Node 8, Type 1, BuildingBlock: BETDEL_clean_sbu_0, # of connection points: 6
#     Node 9, Type 1, BuildingBlock: BETDEL_clean_sbu_0, # of connection points: 6
#     Node 10, Type 1, BuildingBlock: BETDEL_clean_sbu_0, # of connection points: 6
#     Node 11, Type 1, BuildingBlock: BETDEL_clean_sbu_0, # of connection points: 6
#     Edge 12, Type (0, 1), BuildingBlock: ZUJKAS_clean_linker_0, # of connection points: 2
#     Edge 13, Type (0, 1), BuildingBlock: ZUJKAS_clean_linker_0, # of connection points: 2
#     Edge 14, Type (0, 1), BuildingBlock: ZUJKAS_clean_linker_0, # of connection points: 2
#     Edge 15, Type (0, 1), BuildingBlock: ZUJKAS_clean_linker_0, # of connection points: 2
#     Edge 16, Type (0, 1), BuildingBlock: ZUJKAS_clean_linker_0, # of connection points: 2
#     Edge 17, Type (0, 1), BuildingBlock: ZUJKAS_clean_linker_0, # of connection points: 2
#     Edge 18, Type (0, 1), BuildingBlock: ZUJKAS_clean_linker_0, # of connection points: 2
#     Edge 19, Type (0, 1), BuildingBlock: ZUJKAS_clean_linker_0, # of connection points: 2
#     Edge 20, Type (0, 1), BuildingBlock: ZUJKAS_clean_linker_0, # of connection points: 2
#     Edge 21, Type (0, 1), BuildingBlock: ZUJKAS_clean_linker_0, # of connection points: 2
#     Edge 22, Type (0, 1), BuildingBlock: ZUJKAS_clean_linker_0, # of connection points: 2
#     Edge 23, Type (0, 1), BuildingBlock: ZUJKAS_clean_linker_0, # of connection points: 2
#     Edge 24, Type (0, 1), BuildingBlock: ZUJKAS_clean_linker_0, # of connection points: 2
#     Edge 25, Type (0, 1), BuildingBlock: ZUJKAS_clean_linker_0, # of connection points: 2
#     Edge 26, Type (0, 1), BuildingBlock: ZUJKAS_clean_linker_0, # of connection points: 2
#     Edge 27, Type (0, 1), BuildingBlock: ZUJKAS_clean_linker_0, # of connection points: 2
#     Edge 28, Type (0, 1), BuildingBlock: ZUJKAS_clean_linker_0, # of connection points: 2
#     Edge 29, Type (0, 1), BuildingBlock: ZUJKAS_clean_linker_0, # of connection points: 2
#     Edge 30, Type (0, 1), BuildingBlock: ZUJKAS_clean_linker_0, # of connection points: 2
#     Edge 31, Type (0, 1), BuildingBlock: ZUJKAS_clean_linker_0, # of connection points: 2
#     Edge 32, Type (0, 1), BuildingBlock: ZUJKAS_clean_linker_0, # of connection points: 2
#     Edge 33, Type (0, 1), BuildingBlock: ZUJKAS_clean_linker_0, # of connection points: 2
#     Edge 34, Type (0, 1), BuildingBlock: ZUJKAS_clean_linker_0, # of connection points: 2
#     Edge 35, Type (0, 1), BuildingBlock: ZUJKAS_clean_linker_0, # of connection points: 2
# Relax obj value: 0.306
# Max RMSD: 0.219
# Mean RMSD: 0.201
data_MOF--net-zzz--node1-WUSLED_clean_sbu_0--node2-BETDEL_clean_sbu_0--edge1-ZUJKAS_clean_linker_0
_symmetry_space_group_name_H-M    P1
_symmetry_Int_Tables_number       1
_symmetry_cell_setting            triclinic
loop_
_symmetry_equiv_pos_as_xyz
'x, y, z'
_cell_length_a     75.423525
_cell_length_b     74.14733
_cell_length_c     26.222751
_cell_angle_alpha  90.787846
_cell_angle_beta   90.008489
_cell_angle_gamma 95.995266
loop_
_atom_site_label
_atom_site_type_symbol
_atom_site_fract_x
_atom_site_fract_y
_atom_site_fract_z
_atom_type_partial_charge
C0 C 0.77721 0.44319 0.20819 0.0
C1 C 0.79276 0.43746 0.18663 0.0
C2 C 0.80994 0.44842 0.26194 0.0
C3 C 0.80897 0.43996 0.21341 0.0
C4 C 0.7942 0.45378 0.28358 0.0
C5 C 0.77804 0.45118 0.25698 0.0
U6 U 0.75022 0.43737 0.08373 0.0
O7 O 0.72261 0.42519 0.06959 0.0
O8 O 0.72981 0.45437 0.05819 0.0
C9 C 0.71715 0.44078 0.0567 0.0
C10 C 0.76031 0.44223 0.17943 0.0
C11 C 0.7037 0.44079 0.01579 0.0
C12 C 0.6726 0.44272 0.99424 0.0
C13 C 0.68584 0.44077 0.03037 0.0
C14 C 0.6948 0.4441 0.9274 0.0
C15 C 0.67683 0.44459 0.94217 0.0
C16 C 0.70815 0.4423 0.96394 0.0
C17 C 0.78023 0.42871 0.96391 0.0
C18 C 0.78927 0.44338 0.88447 0.0
C19 C 0.80155 0.41579 0.90841 0.0
C20 C 0.791 0.41488 0.95228 0.0
C21 C 0.80155 0.43067 0.87586 0.0
C22 C 0.77861 0.44238 0.92813 0.0
C23 C 0.77488 0.43101 0.01744 0.0
O24 O 0.75913 0.45557 0.14765 0.0
O25 O 0.75418 0.42633 0.16015 0.0
O26 O 0.76461 0.4179 0.03927 0.0
O27 O 0.77172 0.44737 0.03236 0.0
H28 H 0.79243 0.43142 0.14873 0.0
H29 H 0.82085 0.43582 0.19544 0.0
H30 H 0.7944 0.4601 0.32108 0.0
H31 H 0.76621 0.45575 0.27419 0.0
H32 H 0.65911 0.4434 0.00767 0.0
H33 H 0.68215 0.43981 0.07027 0.0
H34 H 0.69861 0.44524 0.88768 0.0
H35 H 0.72189 0.44241 0.95189 0.0
H36 H 0.78897 0.45489 0.85959 0.0
H37 H 0.81098 0.40588 0.90284 0.0
H38 H 0.79256 0.40428 0.97949 0.0
H39 H 0.77035 0.45319 0.93601 0.0
C40 C 0.93568 0.78056 0.17373 0.0
C41 C 0.93897 0.79723 0.14883 0.0
C42 C 0.94113 0.81329 0.2312 0.0
C43 C 0.94157 0.8135 0.1774 0.0
C44 C 0.93721 0.79657 0.25547 0.0
C45 C 0.93451 0.78045 0.22707 0.0
U46 U 0.9315 0.74357 0.06195 0.0
O47 O 0.91958 0.71522 0.06917 0.0
O48 O 0.94849 0.72132 0.06043 0.0
C49 C 0.93491 0.70871 0.06117 0.0
C50 C 0.93515 0.76287 0.14692 0.0
C51 C 0.93512 0.69456 0.02117 0.0
C52 C 0.93323 0.66258 0.998 0.0
C53 C 0.93132 0.67631 0.0341 0.0
C54 C 0.94219 0.68523 0.93479 0.0
C55 C 0.93911 0.66684 0.94819 0.0
C56 C 0.94016 0.69896 0.97091 0.0
C57 C 0.92371 0.77452 0.94643 0.0
C58 C 0.91908 0.78859 0.86533 0.0
C59 C 0.93071 0.80693 0.93757 0.0
C60 C 0.92963 0.79149 0.96786 0.0
C61 C 0.92602 0.80546 0.8856 0.0
C62 C 0.91791 0.77323 0.89564 0.0
C63 C 0.92563 0.7577 0.97324 0.0
O64 O 0.91966 0.7551 0.13065 0.0
O65 O 0.94848 0.7603 0.11632 0.0
O66 O 0.91271 0.7517 0.00423 0.0
O67 O 0.94165 0.75589 0.9909 0.0
H68 H 0.94003 0.79761 0.10766 0.0
H69 H 0.94462 0.82614 0.1575 0.0
H70 H 0.93647 0.79589 0.29667 0.0
H71 H 0.93204 0.76773 0.24705 0.0
H72 H 0.93034 0.64861 0.00941 0.0
H73 H 0.92727 0.67265 0.07256 0.0
H74 H 0.94684 0.68906 0.89701 0.0
H75 H 0.94308 0.713 0.96001 0.0
H76 H 0.9153 0.78716 0.8255 0.0
H77 H 0.93629 0.81978 0.95393 0.0
H78 H 0.93425 0.79265 0.007 0.0
H79 H 0.91335 0.76016 0.87862 0.0
C80 C 0.73793 0.01228 0.23311 0.0
C81 C 0.72214 0.0167 0.21029 0.0
C82 C 0.70627 0.01187 0.2905 0.0
C83 C 0.70649 0.01657 0.23872 0.0
C84 C 0.72211 0.00732 0.31316 0.0
C85 C 0.73783 0.00755 0.28464 0.0
U86 U 0.75704 0.00889 0.10302 0.0
O87 O 0.78056 0.02359 0.06632 0.0
O88 O 0.77813 0.99353 0.07168 0.0
C89 C 0.78791 0.00847 0.05845 0.0
C90 C 0.75411 0.01175 0.20211 0.0
C91 C 0.80273 0.00772 0.02246 0.0
C92 C 0.83477 0.01106 0.01013 0.0
C93 C 0.82 0.01189 0.04161 0.0
C94 C 0.81518 1.00199 0.93902 0.0
C95 C 0.83263 0.0062 0.95833 0.0
C96 C 0.80029 1.00271 0.97096 0.0
C97 C 0.71892 1.00392 1.00241 0.0
C98 C 0.71868 0.00995 0.91184 0.0
C99 C 0.69283 0.99386 0.95216 0.0
C100 C 0.70165 0.9951 0.99873 0.0
C101 C 0.70114 1.00149 0.90844 0.0
C102 C 0.72759 0.0111 0.95872 0.0
C103 C 0.72684 0.0062 0.05311 0.0
O104 O 0.75541 0.9962 0.17851 0.0
O105 O 0.75786 0.02582 0.1726 0.0
O106 O 0.73614 0.02182 0.06354 0.0
O107 O 0.7339 0.9921 0.07095 0.0
H108 H 0.72186 0.02009 0.17025 0.0
H109 H 0.69447 0.01981 0.21984 0.0
H110 H 0.72237 1.00372 0.35301 0.0
H111 H 0.74987 1.00392 0.30267 0.0
H112 H 0.84791 0.01402 0.02676 0.0
H113 H 0.82209 0.01565 0.08141 0.0
H114 H 0.81302 0.99836 0.89919 0.0
H115 H 0.78701 0.99942 0.95553 0.0
H116 H 0.72526 0.01605 0.87864 0.0
H117 H 0.67914 0.98774 0.95098 0.0
H118 H 0.69474 0.98967 0.03232 0.0
H119 H 0.74096 0.01798 0.96114 0.0
C120 C 0.5878 0.73277 0.20444 0.0
C121 C 0.58878 0.7161 0.17903 0.0
C122 C 0.58312 0.69981 0.25913 0.0
C123 C 0.58657 0.69976 0.2062 0.0
C124 C 0.58269 0.71664 0.28429 0.0
C125 C 0.585 0.73285 0.2573 0.0
U126 U 0.59311 0.76874 0.09275 0.0
O127 O 0.60365 0.79765 0.10009 0.0
O128 O 0.57513 0.79004 0.08692 0.0
C129 C 0.58812 0.80328 0.08942 0.0
C130 C 0.58827 0.75028 0.17773 0.0
C131 C 0.58785 0.81712 0.0494 0.0
C132 C 0.58899 0.84895 0.02697 0.0
C133 C 0.59119 0.83552 0.06277 0.0
C134 C 0.5806 0.82576 0.96309 0.0
C135 C 0.58322 0.84429 0.97692 0.0
C136 C 0.58294 0.81233 0.9989 0.0
C137 C 0.60392 0.73585 0.98347 0.0
C138 C 0.60536 0.71795 0.90591 0.0
C139 C 0.60078 0.70309 0.98738 0.0
C140 C 0.60174 0.71997 0.01205 0.0
C141 C 0.60183 0.70194 0.93383 0.0
C142 C 0.60638 0.73478 0.93065 0.0
C143 C 0.6013 0.75345 0.00628 0.0
O144 O 0.60382 0.75848 0.16408 0.0
O145 O 0.57551 0.75207 0.1446 0.0
O146 O 0.58487 0.75527 0.02047 0.0
O147 O 0.61337 0.76042 0.03917 0.0
H148 H 0.59082 0.71568 0.13824 0.0
H149 H 0.58692 0.68708 0.18544 0.0
H150 H 0.58039 0.71731 0.32501 0.0
H151 H 0.58418 0.74553 0.27775 0.0
H152 H 0.59157 0.86302 0.03886 0.0
H153 H 0.59508 0.83953 0.1014 0.0
H154 H 0.57605 0.82156 0.92519 0.0
H155 H 0.58034 0.79819 0.98758 0.0
H156 H 0.60607 0.71755 0.86466 0.0
H157 H 0.59834 0.69095 0.00992 0.0
H158 H 0.5999 0.72066 0.05289 0.0
H159 H 0.60803 0.74699 0.90811 0.0
C160 C 0.23746 0.56211 0.97625 0.0
C161 C 0.22141 0.55831 1.003 0.0
C162 C 0.20442 0.55773 0.92305 0.0
C163 C 0.20506 0.55624 0.97669 0.0
C164 C 0.2206 0.56198 0.89693 0.0
C165 C 0.23684 0.56419 0.92323 0.0
U166 U 0.2744 0.56626 0.08471 0.0
O167 O 0.29565 0.54811 0.08785 0.0
O168 O 0.30252 0.57715 0.07526 0.0
C169 C 0.30845 0.56146 0.08452 0.0
C170 C 0.25515 0.56217 1.00068 0.0
C171 C 0.3226 0.56149 0.12339 0.0
C172 C 0.35105 0.55178 0.14899 0.0
C173 C 0.33786 0.55296 0.11205 0.0
C174 C 0.33405 0.56798 0.20931 0.0
C175 C 0.34935 0.5592 0.19829 0.0
C176 C 0.32077 0.56904 0.17228 0.0
C177 C 0.24433 0.57742 0.19988 0.0
C178 C 0.23027 0.58414 0.28006 0.0
C179 C 0.21212 0.57512 0.20582 0.0
C180 C 0.22754 0.57382 0.17692 0.0
C181 C 0.21338 0.5799 0.25797 0.0
C182 C 0.24562 0.58293 0.25116 0.0
C183 C 0.26074 0.57411 0.17325 0.0
O184 O 0.26349 0.57784 0.01551 0.0
O185 O 0.25741 0.54886 0.03184 0.0
O186 O 0.26737 0.58656 0.14132 0.0
O187 O 0.26169 0.55743 0.15664 0.0
H188 H 0.22155 0.55657 0.04393 0.0
H189 H 0.19293 0.5533 0.99844 0.0
H190 H 0.22087 0.56297 0.85579 0.0
H191 H 0.24907 0.56692 0.90171 0.0
H192 H 0.36236 0.54457 0.13911 0.0
H193 H 0.33943 0.54688 0.07473 0.0
H194 H 0.3323 0.57404 0.24653 0.0
H195 H 0.30901 0.5756 0.18193 0.0
H196 H 0.23161 0.58799 0.31999 0.0
H197 H 0.19924 0.57158 0.18802 0.0
H198 H 0.22637 0.56946 0.13736 0.0
H199 H 0.25853 0.58574 0.26937 0.0
C200 C 0.08654 0.23055 0.9918 0.0
C201 C 0.09574 0.21576 0.00494 0.0
C202 C 0.08233 0.19823 0.93212 0.0
C203 C 0.09361 0.19968 0.97535 0.0
C204 C 0.07311 0.21312 0.91987 0.0
C205 C 0.07523 0.22902 0.94923 0.0
U206 U 0.09363 0.26758 0.10361 0.0
O207 O 0.10596 0.29574 0.09565 0.0
O208 O 0.07704 0.29015 0.10504 0.0
C209 C 0.09073 0.30256 0.10288 0.0
C210 C 0.08852 0.24815 0.01931 0.0
C211 C 0.0905 0.31716 0.14137 0.0
C212 C 0.08342 0.34757 0.16237 0.0
C213 C 0.08597 0.3341 0.12615 0.0
C214 C 0.09045 0.32749 0.22985 0.0
C215 C 0.08539 0.34441 0.21481 0.0
C216 C 0.09292 0.31395 0.19343 0.0
C217 C 0.10077 0.23632 0.21874 0.0
C218 C 0.10539 0.22181 0.2992 0.0
C219 C 0.09259 0.20406 0.22732 0.0
C220 C 0.0941 0.21957 0.19729 0.0
C221 C 0.09763 0.2052 0.27907 0.0
C222 C 0.10694 0.23726 0.26917 0.0
C223 C 0.09931 0.25335 0.19235 0.0
O224 O 0.07555 0.25163 0.05017 0.0
O225 O 0.10443 0.25495 0.03508 0.0
O226 O 0.11228 0.25898 0.16108 0.0
O227 O 0.08336 0.2557 0.17511 0.0
H228 H 0.10458 0.21666 0.03763 0.0
H229 H 0.10097 0.18851 0.98583 0.0
H230 H 0.06402 0.21247 0.8878 0.0
H231 H 0.068 0.24028 0.93841 0.0
H232 H 0.07921 0.36022 0.1492 0.0
H233 H 0.0838 0.33671 0.08619 0.0
H234 H 0.09229 0.32462 0.26977 0.0
H235 H 0.09627 0.30085 0.20592 0.0
H236 H 0.10951 0.22302 0.33879 0.0
H237 H 0.0864 0.19145 0.21097 0.0
H238 H 0.08922 0.21868 0.15838 0.0
H239 H 0.11211 0.25014 0.2862 0.0
C240 C 0.28223 0.00769 0.93187 0.0
C241 C 0.29886 0.01472 0.95179 0.0
C242 C 0.31336 0.00692 0.87305 0.0
C243 C 0.31428 0.01447 0.92244 0.0
C244 C 0.29675 0.99983 0.85313 0.0
C245 C 0.28124 1.0003 0.88233 0.0
U246 U 0.26418 0.01228 0.06283 0.0
O247 O 0.24102 0.02486 0.09304 0.0
O248 O 0.24386 0.99573 0.10755 0.0
C249 C 0.23454 0.00961 0.11434 0.0
C250 C 0.26625 0.00719 0.9642 0.0
C251 C 0.21777 0.00812 0.14338 0.0
C252 C 0.18737 0.01556 0.15412 0.0
C253 C 0.20315 0.01649 0.12585 0.0
C254 C 0.20079 0.99813 0.21838 0.0
C255 C 0.18602 0.00651 0.20105 0.0
C256 C 0.21646 0.99881 0.1896 0.0
C257 C 0.30115 0.02233 0.16354 0.0
C258 C 0.30212 0.01127 0.24994 0.0
C259 C 0.32645 0.03195 0.21765 0.0
C260 C 0.31745 0.03282 0.1715 0.0
C261 C 0.31925 0.02047 0.25631 0.0
C262 C 0.29308 0.01222 0.20375 0.0
C263 C 0.29443 0.0199 0.11129 0.0
O264 O 0.26461 0.99377 0.99665 0.0
O265 O 0.26329 0.02284 0.98498 0.0
O266 O 0.28516 0.03251 0.09359 0.0
O267 O 0.28779 1.00332 0.099 0.0
H268 H 0.29993 0.02024 0.99028 0.0
H269 H 0.327 0.01986 0.93864 0.0
H270 H 0.2958 0.99399 0.815 0.0
H271 H 0.26853 0.99472 0.86654 0.0
H272 H 0.17622 0.02188 0.13898 0.0
H273 H 0.2039 0.02368 0.09009 0.0
H274 H 0.20044 0.99136 0.25474 0.0
H275 H 0.22769 0.99243 0.20408 0.0
H276 H 0.29625 1.00245 0.27938 0.0
H277 H 0.33971 0.03903 0.22121 0.0
H278 H 0.32385 0.04066 0.14076 0.0
H279 H 0.2804 1.00411 0.1983 0.0
C280 C 0.42674 0.2766 0.96066 0.0
C281 C 0.42883 0.2933 0.9871 0.0
C282 C 0.43178 0.30962 0.90623 0.0
C283 C 0.43125 0.30966 0.9601 0.0
C284 C 0.42905 0.2928 0.88031 0.0
C285 C 0.42659 0.27657 0.90719 0.0
U286 U 0.42243 0.2407 0.07201 0.0
O287 O 0.43999 0.21898 0.0759 0.0
O288 O 0.41121 0.21195 0.06653 0.0
C289 C 0.42672 0.20603 0.07571 0.0
C290 C 0.42636 0.25893 0.98645 0.0
C291 C 0.42726 0.19244 0.1164 0.0
C292 C 0.42371 0.16081 0.14165 0.0
C293 C 0.42138 0.17422 0.10586 0.0
C294 C 0.43733 0.18374 0.20004 0.0
C295 C 0.43219 0.16529 0.18874 0.0
C296 C 0.43482 0.19716 0.16439 0.0
C297 C 0.4137 0.27378 0.18385 0.0
C298 C 0.41673 0.29202 0.26119 0.0
C299 C 0.41028 0.30587 0.18095 0.0
C300 C 0.41021 0.28903 0.15613 0.0
C301 C 0.41411 0.30764 0.23354 0.0
C302 C 0.41646 0.27527 0.23653 0.0
C303 C 0.41588 0.25635 0.15928 0.0
O304 O 0.43954 0.25682 0.01787 0.0
O305 O 0.4109 0.25101 1.00188 0.0
O306 O 0.43204 0.25438 0.14295 0.0
O307 O 0.40323 0.24954 0.12793 0.0
H308 H 0.42907 0.29366 0.02841 0.0
H309 H 0.43338 0.32229 0.9815 0.0
H310 H 0.429 0.29213 0.83904 0.0
H311 H 0.42504 0.26385 0.88597 0.0
H312 H 0.41912 0.14687 0.13191 0.0
H313 H 0.41539 0.17027 0.06929 0.0
H314 H 0.44401 0.18782 0.23554 0.0
H315 H 0.43937 0.21116 0.1737 0.0
H316 H 0.42005 0.29281 0.30138 0.0
H317 H 0.40792 0.31758 0.15868 0.0
H318 H 0.40799 0.28803 0.11532 0.0
H319 H 0.41919 0.26356 0.25838 0.0
Dy320 Dy 0.01513 0.99356 0.62712 0.0
C321 C 0.0051 0.04702 0.47302 0.0
C322 C 0.00858 0.96936 0.7027 0.0
Dy323 Dy 0.00406 0.01912 0.53892 0.0
O324 O 0.02426 0.97404 0.68346 0.0
O325 O 0.99678 0.97849 0.68196 0.0
O326 O 0.04175 0.98744 0.59453 0.0
O327 O 0.02566 1.00385 0.55658 0.0
C328 C 0.04017 0.99702 0.55383 0.0
C329 C 0.97917 0.00881 0.60788 0.0
O330 O 0.99786 0.99235 0.49893 0.0
O331 O 0.99966 0.97456 0.57131 0.0
O332 O 0.99593 0.0458 0.51492 0.0
O333 O 0.01284 0.03234 0.46558 0.0
O334 O 0.9754 0.01166 0.56037 0.0
O335 O 0.99558 0.01277 0.61603 0.0
O336 O 0.02492 0.02006 0.66367 0.0
O337 O 0.02187 0.03763 0.59131 0.0
C338 C 0.99577 0.97647 0.52233 0.0
C339 C 0.02714 0.03576 0.63933 0.0
Dy340 Dy 0.49961 0.99027 0.55063 0.0
C341 C 0.54705 0.03997 0.65837 0.0
C342 C 0.47173 0.97045 0.50452 0.0
Dy343 Dy 0.51919 0.02032 0.61122 0.0
O344 O 0.48557 0.97821 0.4809 0.0
O345 O 0.47413 0.97235 0.55336 0.0
O346 O 0.52495 0.97987 0.5246 0.0
O347 O 0.52408 0.0079 0.53767 0.0
C348 C 0.53415 0.9957 0.5278 0.0
C349 C 0.48469 0.01508 0.63392 0.0
O350 O 0.50995 0.03788 0.55075 0.0
O351 O 0.48993 0.01521 0.51605 0.0
O352 O 0.53304 0.03227 0.6812 0.0
O353 O 0.5446 0.03839 0.60947 0.0
O354 O 0.494 0.03087 0.63701 0.0
O355 O 0.49468 1.00279 0.62421 0.0
O356 O 0.50907 0.97254 0.61029 0.0
O357 O 0.52854 0.99536 0.6469 0.0
C358 C 0.4968 0.0324 0.51902 0.0
C359 C 0.52186 0.97813 0.643 0.0
Dy360 Dy 0.50877 0.51522 0.62742 0.0
C361 C 0.49814 0.46808 0.46303 0.0
C362 C 0.52374 0.53884 0.69839 0.0
Dy363 Dy 0.51194 0.49215 0.53456 0.0
O364 O 0.50663 0.53615 0.68967 0.0
O365 O 0.53213 0.5279 0.67076 0.0
O366 O 0.4797 0.51737 0.61292 0.0
O367 O 0.49731 0.51518 0.55154 0.0
C368 C 0.48114 0.51546 0.56362 0.0
C369 C 0.53951 0.49216 0.59889 0.0
O370 O 0.52293 0.5181 0.4975 0.0
O371 O 0.52455 0.53448 0.57346 0.0
O372 O 0.51514 0.47145 0.47231 0.0
O373 O 0.48917 0.47852 0.49066 0.0
O374 O 0.54114 0.49076 0.54955 0.0
O375 O 0.52327 0.49204 0.61053 0.0
O376 O 0.49702 0.4895 0.66406 0.0
O377 O 0.49587 0.47299 0.58824 0.0
C378 C 0.52784 0.53323 0.52382 0.0
C379 C 0.49221 0.47437 0.63764 0.0
Dy380 Dy 1.00054 0.49365 0.62239 0.0
C381 C 0.04413 0.52545 0.47047 0.0
C382 C 0.9755 0.47979 0.69004 0.0
Dy383 Dy 0.01711 0.51538 0.53557 0.0
O384 O 0.98567 0.47033 0.66299 0.0
O385 O 0.97978 0.49695 0.68223 0.0
O386 O 0.01886 0.47222 0.6086 0.0
O387 O 0.00985 0.48662 0.54665 0.0
C388 C 0.02004 0.47499 0.55976 0.0
C389 C 0.99768 0.5343 0.59757 0.0
O390 O 0.99269 0.50406 0.49292 0.0
O391 O 0.97777 0.49408 0.5664 0.0
O392 O 0.0309 0.535 0.47956 0.0
O393 O 0.04185 0.51026 0.49448 0.0
O394 O 0.99957 0.53754 0.54907 0.0
O395 O 0.00763 0.5225 0.61084 0.0
O396 O 0.02543 0.50407 0.66509 0.0
O397 O 0.03932 0.5171 0.59369 0.0
C398 C 0.97802 0.4974 0.51683 0.0
C399 C 0.03965 0.51245 0.6423 0.0
H400 H 0.16372 0.03336 0.21303 0.0
H401 H 0.13725 0.03307 0.26696 0.0
H402 H 0.14453 0.97904 0.31536 0.0
H403 H 0.1706 0.97882 0.26016 0.0
H404 H 0.10443 1.00496 0.27129 0.0
H405 H 0.14559 0.01346 0.44755 0.0
H406 H 0.1545 0.01905 0.38512 0.0
H407 H 0.15085 0.99579 0.40414 0.0
C408 C 0.15955 0.02124 0.23428 0.0
C409 C 0.16945 0.00614 0.23231 0.0
C410 C 0.14444 0.02117 0.26528 0.0
C411 C 0.13907 0.0061 0.29532 0.0
C412 C 0.1486 0.99086 0.29271 0.0
H413 H 0.06627 0.97562 0.53512 0.0
H414 H 0.08912 0.97886 0.46909 0.0
C415 C 0.1636 0.99084 0.26142 0.0
C416 C 0.12401 0.00654 0.33131 0.0
H417 H 0.11446 0.00708 0.45835 0.0
C418 C 0.10654 0.00555 0.31222 0.0
C419 C 0.12691 0.00745 0.38451 0.0
C420 C 0.14547 0.00915 0.4068 0.0
C421 C 0.09178 1.00464 0.34528 0.0
C422 C 0.09469 1.00508 0.39867 0.0
C423 C 0.11223 0.00665 0.41747 0.0
C424 C 0.07988 1.0028 0.43612 0.0
C425 C 0.07325 1.0025 0.32285 0.0
C426 C 0.06698 0.01516 0.43955 0.0
C427 C 0.05375 0.01321 0.47727 0.0
C428 C 0.05339 0.99902 0.51229 0.0
C429 C 0.06625 0.9867 0.50862 0.0
C430 C 0.07931 0.98853 0.47088 0.0
H431 H 0.07328 0.99822 0.28208 0.0
H432 H 0.06438 0.9924 0.34432 0.0
H433 H 0.06757 0.0157 0.32533 0.0
H434 H 0.0674 0.02654 0.41398 0.0
H435 H 0.04422 0.02309 0.48004 0.0
H436 H 0.43281 0.16589 0.29422 0.0
H437 H 0.44287 0.14309 0.35096 0.0
H438 H 0.45076 0.10847 0.22133 0.0
H439 H 0.4419 0.13152 0.16423 0.0
H440 H 0.43125 0.108 0.37062 0.0
H441 H 0.49901 0.11138 0.28693 0.0
H442 H 0.48362 0.12759 0.27187 0.0
H443 H 0.48173 0.10568 0.24075 0.0
C444 C 0.43687 0.15353 0.27759 0.0
C445 C 0.43668 0.15076 0.22427 0.0
C446 C 0.44247 0.14041 0.31024 0.0
C447 C 0.44799 0.12421 0.29042 0.0
C448 C 0.44704 0.12104 0.23755 0.0
H449 H 0.47581 0.02589 0.43421 0.0
H450 H 0.46329 0.04815 0.38027 0.0
C451 C 0.44164 0.1342 0.20488 0.0
C452 C 0.45507 0.11078 0.32476 0.0
H453 H 0.49131 0.08765 0.3455 0.0
C454 C 0.4444 0.10361 0.36517 0.0
C455 C 0.47232 0.10512 0.31805 0.0
C456 C 0.4849 0.11297 0.27739 0.0
C457 C 0.4504 0.09072 0.39821 0.0
C458 C 0.46745 0.08489 0.39069 0.0
C459 C 0.47818 0.09211 0.35079 0.0
C460 C 0.47451 0.07143 0.42437 0.0
C461 C 0.43861 0.08338 0.44117 0.0
C462 C 0.48503 0.07721 0.46679 0.0
C463 C 0.49233 0.06456 0.4975 0.0
C464 C 0.48917 0.04587 0.48639 0.0
C465 C 0.47847 0.04016 0.44397 0.0
C466 C 0.47129 0.05284 0.4131 0.0
H467 H 0.42558 0.08911 0.44169 0.0
H468 H 0.43618 0.06838 0.43757 0.0
H469 H 0.44546 0.08657 0.47818 0.0
H470 H 0.48764 0.09153 0.476 0.0
H471 H 0.50035 0.06941 0.53012 0.0
H472 H 0.34464 0.5535 0.30126 0.0
H473 H 0.36714 0.54825 0.36479 0.0
H474 H 0.40781 0.55355 0.24883 0.0
H475 H 0.38567 0.56001 0.18587 0.0
H476 H 0.38676 0.52094 0.36885 0.0
H477 H 0.43281 0.58396 0.35826 0.0
H478 H 0.41105 0.58184 0.3289 0.0
H479 H 0.42953 0.57292 0.29727 0.0
C480 C 0.35843 0.55407 0.28939 0.0
C481 C 0.36322 0.55717 0.23809 0.0
C482 C 0.3713 0.55088 0.32581 0.0
C483 C 0.38928 0.5507 0.31196 0.0
C484 C 0.39415 0.55402 0.26099 0.0
H485 H 0.48435 0.51922 0.46043 0.0
H486 H 0.46184 0.52753 0.40012 0.0
C487 C 0.38134 0.55741 0.22468 0.0
C488 C 0.40266 0.54577 0.34994 0.0
H489 H 0.44374 0.5591 0.40127 0.0
C490 C 0.39913 0.5294 0.37626 0.0
C491 C 0.4189 0.55673 0.35958 0.0
C492 C 0.42323 0.57492 0.33488 0.0
C493 C 0.41144 0.52352 0.41098 0.0
C494 C 0.42772 0.53437 0.42021 0.0
C495 C 0.43128 0.55076 0.39406 0.0
C496 C 0.44121 0.52895 0.45691 0.0
C497 C 0.40709 0.5055 0.43656 0.0
C498 C 0.43714 0.52702 0.50897 0.0
C499 C 0.44998 0.52225 0.54354 0.0
C500 C 0.46718 0.51941 0.52675 0.0
C501 C 0.4712 0.52125 0.47455 0.0
C502 C 0.45837 0.52607 0.44005 0.0
H503 H 0.39639 0.49685 0.41608 0.0
H504 H 0.41907 0.49801 0.43889 0.0
H505 H 0.4024 0.50786 0.47596 0.0
H506 H 0.42409 0.52947 0.52303 0.0
H507 H 0.44652 0.52104 0.58352 0.0
H508 H 0.09244 0.38147 0.2091 0.0
H509 H 0.08276 0.40443 0.26773 0.0
H510 H 0.05971 0.36245 0.36676 0.0
H511 H 0.0687 0.33927 0.30756 0.0
H512 H 0.04067 0.40067 0.30808 0.0
H513 H 0.0964 0.40564 0.44871 0.0
H514 H 0.09978 0.3998 0.38249 0.0
H515 H 0.08773 0.38372 0.42339 0.0
C516 C 0.08526 0.37704 0.24322 0.0
C517 C 0.08125 0.35843 0.25321 0.0
C518 C 0.07985 0.39022 0.27681 0.0
C519 C 0.07053 0.38509 0.32139 0.0
C520 C 0.06697 0.36663 0.33253 0.0
H521 H 0.03313 0.44311 0.58095 0.0
H522 H 0.04503 0.42189 0.52122 0.0
C523 C 0.07225 0.35341 0.29877 0.0
C524 C 0.06376 0.39902 0.35508 0.0
H525 H 0.07286 0.42336 0.46494 0.0
C526 C 0.04766 0.40573 0.34239 0.0
C527 C 0.07292 0.40538 0.39974 0.0
C528 C 0.09021 0.39838 0.41474 0.0
C529 C 0.04021 0.41843 0.37393 0.0
C530 C 0.04947 0.42507 0.41863 0.0
C531 C 0.06573 0.4184 0.43079 0.0
C532 C 0.04225 0.43829 0.45452 0.0
C533 C 0.02218 0.42401 0.35977 0.0
C534 C 0.03685 0.45477 0.43737 0.0
C535 C 0.02956 0.46672 0.47143 0.0
C536 C 0.02814 0.46273 0.5236 0.0
C537 C 0.0341 0.44658 0.54098 0.0
C538 C 0.04094 0.43444 0.50681 0.0
H539 H 0.01468 0.41373 0.33453 0.0
H540 H 0.01398 0.42603 0.39412 0.0
H541 H 0.02403 0.43692 0.33861 0.0
H542 H 0.03824 0.45842 0.39765 0.0
H543 H 0.02507 0.47907 0.45691 0.0
H544 H 0.86352 0.02936 0.96005 0.0
H545 H 0.88988 0.02835 0.90637 0.0
H546 H 0.86451 0.98135 0.82688 0.0
H547 H 0.83822 0.98179 0.88154 0.0
H548 H 0.91147 0.99506 0.88426 0.0
H549 H 0.87837 0.02434 0.7196 0.0
H550 H 0.87116 0.02727 0.78463 0.0
H551 H 0.86596 0.0059 0.75225 0.0
C552 C 0.86358 0.0186 0.93174 0.0
C553 C 0.84864 0.00567 0.92512 0.0
C554 C 0.87868 0.0181 0.90103 0.0
C555 C 0.87908 1.00481 0.86274 0.0
C556 C 0.86437 0.99176 0.85621 0.0
H557 H 0.94567 0.99161 0.60028 0.0
H558 H 0.92245 0.98942 0.66579 0.0
C559 C 0.84929 0.99216 0.88714 0.0
C560 C 0.89449 1.00513 0.8277 0.0
H561 H 0.90688 0.01515 0.70554 0.0
C562 C 0.91056 0.99942 0.84511 0.0
C563 C 0.8932 0.01093 0.77696 0.0
C564 C 0.87631 0.01759 0.75701 0.0
C565 C 0.92526 0.99877 0.81231 0.0
C566 C 0.92394 1.00449 0.76114 0.0
C567 C 0.90791 0.01057 0.74443 0.0
C568 C 0.93878 1.00422 0.72371 0.0
C569 C 0.94176 0.9914 0.83253 0.0
C570 C 0.95584 0.01298 0.73444 0.0
C571 C 0.96926 0.01371 0.69745 0.0
C572 C 0.96567 0.00628 0.6485 0.0
C573 C 0.94872 0.99746 0.63775 0.0
C574 C 0.93546 0.99626 0.67515 0.0
H575 H 0.93863 0.98241 0.86558 0.0
H576 H 0.9483 0.98366 0.80268 0.0
H577 H 0.95137 1.00286 0.84583 0.0
H578 H 0.95866 0.01977 0.77078 0.0
H579 H 0.98221 0.0208 0.70643 0.0
H580 H 0.56826 0.87579 0.998 0.0
H581 H 0.56026 0.89862 0.93847 0.0
H582 H 0.57978 0.86816 0.81317 0.0
H583 H 0.58841 0.8454 0.87263 0.0
H584 H 0.5831 0.91951 0.8616 0.0
H585 H 0.5263 0.87473 0.7782 0.0
H586 H 0.53618 0.87007 0.83875 0.0
H587 H 0.54762 0.86593 0.78047 0.0
C588 C 0.57122 0.87402 0.95797 0.0
C589 C 0.57903 0.85863 0.9404 0.0
C590 C 0.5665 0.88709 0.9239 0.0
C591 C 0.56927 0.88501 0.87138 0.0
C592 C 0.57732 0.8699 0.85354 0.0
H593 H 0.5288 0.94385 0.61714 0.0
H594 H 0.54192 0.92194 0.67075 0.0
C595 C 0.58217 0.85686 0.88766 0.0
C596 C 0.56327 0.89849 0.83545 0.0
H597 H 0.53147 0.90419 0.74623 0.0
C598 C 0.57186 0.9162 0.8361 0.0
C599 C 0.54873 0.89407 0.80197 0.0
C600 C 0.53903 0.87521 0.79972 0.0
C601 C 0.56643 0.92962 0.80383 0.0
C602 C 0.55138 0.92543 0.77153 0.0
C603 C 0.54293 0.90757 0.7708 0.0
C604 C 0.54406 0.9392 0.7384 0.0
C605 C 0.57728 0.94793 0.80395 0.0
C606 C 0.54069 0.95627 0.75809 0.0
C607 C 0.53378 0.96903 0.72683 0.0
C608 C 0.52929 0.9647 0.67584 0.0
C609 C 0.53208 0.94749 0.65643 0.0
C610 C 0.53958 0.93497 0.68716 0.0
H611 H 0.59133 0.94682 0.81521 0.0
H612 H 0.57729 0.95434 0.76596 0.0
H613 H 0.57165 0.95697 0.83238 0.0
H614 H 0.54318 0.95973 0.79784 0.0
H615 H 0.53154 0.98214 0.7429 0.0
H616 H 0.67965 0.466 0.85674 0.0
H617 H 0.65586 0.47292 0.79909 0.0
H618 H 0.61771 0.43834 0.88501 0.0
H619 H 0.64143 0.43067 0.94166 0.0
H620 H 0.62975 0.44666 0.74056 0.0
H621 H 0.59832 0.48998 0.88213 0.0
H622 H 0.62104 0.48465 0.88869 0.0
H623 H 0.60287 0.46779 0.90206 0.0
C624 C 0.6663 0.45954 0.86301 0.0
C625 C 0.66258 0.44785 0.90445 0.0
C626 C 0.65267 0.46367 0.83017 0.0
C627 C 0.63498 0.45639 0.83827 0.0
C628 C 0.63122 0.44437 0.87859 0.0
H629 H 0.53494 0.47906 0.69546 0.0
H630 H 0.55779 0.46974 0.75294 0.0
C631 C 0.64486 0.44007 0.91112 0.0
C632 C 0.62047 0.46143 0.80458 0.0
H633 H 0.58453 0.48591 0.80164 0.0
C634 C 0.61985 0.45526 0.75378 0.0
C635 C 0.6074 0.47236 0.82223 0.0
C636 C 0.60738 0.47922 0.87667 0.0
C637 C 0.60649 0.45966 0.72009 0.0
C638 C 0.59379 0.47127 0.73699 0.0
C639 C 0.5943 0.4772 0.78824 0.0
C640 C 0.57991 0.47739 0.7023 0.0
C641 C 0.60586 0.45129 0.66723 0.0
C642 C 0.58463 0.48527 0.65502 0.0
C643 C 0.57152 0.49023 0.62162 0.0
C644 C 0.55346 0.48796 0.63542 0.0
C645 C 0.54878 0.48093 0.68369 0.0
C646 C 0.56185 0.4756 0.71661 0.0
H647 H 0.61208 0.43835 0.66641 0.0
H648 H 0.59196 0.44856 0.65303 0.0
H649 H 0.61349 0.46071 0.64073 0.0
H650 H 0.59847 0.48753 0.64371 0.0
H651 H 0.57553 0.49585 0.58496 0.0
H652 H 0.93314 0.66483 0.84443 0.0
H653 H 0.94112 0.64138 0.78442 0.0
H654 H 0.96189 0.61233 0.90849 0.0
H655 H 0.95432 0.63574 0.96847 0.0
H656 H 0.97575 0.63074 0.76768 0.0
H657 H 0.92905 0.57286 0.83308 0.0
H658 H 0.92612 0.59615 0.84887 0.0
H659 H 0.94216 0.58459 0.88286 0.0
C660 C 0.9394 0.65346 0.85901 0.0
C661 C 0.94297 0.65218 0.91149 0.0
C662 C 0.94386 0.64002 0.82466 0.0
C663 C 0.95184 0.62496 0.84209 0.0
C664 C 0.95535 0.62359 0.89433 0.0
H665 H 0.99814 0.53383 0.70198 0.0
H666 H 0.98645 0.55569 0.76096 0.0
C667 C 0.95096 0.63702 0.92863 0.0
C668 C 0.95739 0.61115 0.8055 0.0
H669 H 0.95167 0.56594 0.77503 0.0
C670 C 0.97038 0.6166 0.76896 0.0
C671 C 0.95047 0.59269 0.80755 0.0
C672 C 0.93606 0.58618 0.84488 0.0
C673 C 0.97691 0.60403 0.7351 0.0
C674 C 0.96999 0.58555 0.73709 0.0
C675 C 0.95696 0.5801 0.77355 0.0
C676 C 0.97616 0.57172 0.70156 0.0
C677 C 0.99155 0.61056 0.69845 0.0
C678 C 0.97384 0.57319 0.64872 0.0
C679 C 0.98049 0.56075 0.61507 0.0
C680 C 0.98951 0.54654 0.63361 0.0
C681 C 0.99128 0.54468 0.6866 0.0
C682 C 0.98462 0.55716 0.7203 0.0
H683 H 0.9985 0.62388 0.71056 0.0
H684 H 1.00154 0.60062 0.69495 0.0
H685 H 0.98568 0.61219 0.66019 0.0
H686 H 0.96701 0.58409 0.63345 0.0
H687 H 0.97879 0.56243 0.57445 0.0
H688 H 0.08155 0.2064 0.37169 0.0
H689 H 0.06794 0.18073 0.42038 0.0
H690 H 0.08778 0.14373 0.31122 0.0
H691 H 0.10166 0.16937 0.2626 0.0
H692 H 0.0417 0.15729 0.37144 0.0
H693 H 0.09489 0.11956 0.44976 0.0
H694 H 0.09867 0.1431 0.43182 0.0
H695 H 0.09842 0.12543 0.38405 0.0
C696 C 0.08358 0.1928 0.35906 0.0
C697 C 0.09259 0.18983 0.31321 0.0
C698 C 0.07575 0.17818 0.38686 0.0
C699 C 0.07698 0.16041 0.3695 0.0
C700 C 0.08695 0.15738 0.32562 0.0
H701 H 0.02759 0.05289 0.39263 0.0
H702 H 0.04414 0.08188 0.37042 0.0
C703 C 0.0947 0.172 0.29762 0.0
C704 C 0.06547 0.14525 0.39163 0.0
H705 H 0.06607 0.10269 0.43828 0.0
C706 C 0.04696 0.14544 0.38692 0.0
C707 C 0.07247 0.12994 0.41183 0.0
C708 C 0.09221 0.12952 0.42019 0.0
C709 C 0.03524 0.1302 0.39879 0.0
C710 C 0.04229 0.11452 0.41651 0.0
C711 C 0.06076 0.11467 0.4238 0.0
C712 C 0.03084 0.09757 0.4261 0.0
C713 C 0.01552 0.13072 0.38986 0.0
C714 C 0.01751 0.097 0.46342 0.0
C715 C 0.00776 0.08059 0.47518 0.0
C716 C 0.01152 0.06447 0.45057 0.0
C717 C 0.02431 0.06518 0.41164 0.0
C718 C 0.0339 0.08165 0.39945 0.0
H719 H 0.0128 0.14204 0.36467 0.0
H720 H 0.00944 0.11778 0.3725 0.0
H721 H 0.00886 0.13271 0.42693 0.0
H722 H 0.01518 0.10908 0.48502 0.0
H723 H 0.99816 0.08035 0.50597 0.0
H724 H 0.32352 0.98656 0.28789 0.0
H725 H 0.34782 0.97754 0.33922 0.0
H726 H 0.36671 0.03375 0.36729 0.0
H727 H 0.3423 0.04297 0.31517 0.0
H728 H 0.39219 0.01461 0.3268 0.0
H729 H 0.35984 0.97745 0.48895 0.0
H730 H 0.35024 0.96939 0.42925 0.0
H731 H 0.34833 0.99238 0.44996 0.0
C732 C 0.33237 0.99705 0.30667 0.0
C733 C 0.33101 0.01549 0.29765 0.0
C734 C 0.34631 0.99185 0.3359 0.0
C735 C 0.35895 1.00499 0.35718 0.0
C736 C 0.35702 0.02344 0.35107 0.0
H737 H 0.44243 0.97886 0.55345 0.0
H738 H 0.41559 0.98746 0.51462 0.0
C739 C 0.34309 0.02868 0.32152 0.0
C740 C 0.3752 0.99932 0.38042 0.0
H741 H 0.38941 0.97079 0.46839 0.0
C742 C 0.3917 0.00524 0.35832 0.0
C743 C 0.37441 0.98716 0.42145 0.0
C744 C 0.35726 0.98138 0.44911 0.0
C745 C 0.40752 0.99914 0.37596 0.0
C746 C 0.40659 0.98621 0.41537 0.0
C747 C 0.39006 0.98044 0.43756 0.0
C748 C 0.42263 0.9797 0.43784 0.0
C749 C 0.42498 0.00697 0.35304 0.0
C750 C 0.43536 0.97197 0.40776 0.0
C751 C 0.45115 0.96748 0.42991 0.0
C752 C 0.45391 0.96998 0.48253 0.0
C753 C 0.44051 0.97637 0.5129 0.0
C754 C 0.42518 0.98147 0.49066 0.0
H755 H 0.42367 0.01998 0.33357 0.0
H756 H 0.43553 0.00937 0.38264 0.0
H757 H 0.42936 0.99731 0.32415 0.0
H758 H 0.43337 0.96994 0.36713 0.0
H759 H 0.46145 0.96279 0.40583 0.0
H760 H 0.40637 0.31767 0.33195 0.0
H761 H 0.41839 0.34544 0.37694 0.0
H762 H 0.44165 0.36645 0.23696 0.0
H763 H 0.43062 0.33857 0.19216 0.0
H764 H 0.45931 0.35694 0.36942 0.0
H765 H 0.41451 0.40818 0.31186 0.0
H766 H 0.40712 0.38423 0.31538 0.0
H767 H 0.42053 0.39273 0.26271 0.0
C768 C 0.41392 0.32825 0.31057 0.0
C769 C 0.4177 0.32576 0.25846 0.0
C770 C 0.42066 0.3441 0.33633 0.0
C771 C 0.43087 0.35781 0.31003 0.0
C772 C 0.43365 0.35596 0.25756 0.0
H773 H 0.50698 0.45027 0.37561 0.0
H774 H 0.49108 0.42198 0.3404 0.0
C775 C 0.42718 0.34005 0.23196 0.0
C776 C 0.44021 0.37335 0.33764 0.0
H777 H 0.44218 0.4193 0.34969 0.0
C778 C 0.45553 0.37058 0.36561 0.0
C779 C 0.43508 0.39097 0.33248 0.0
C780 C 0.41834 0.39432 0.30431 0.0
C781 C 0.46628 0.38526 0.38721 0.0
C782 C 0.46152 0.40293 0.38017 0.0
C783 C 0.44589 0.40564 0.35379 0.0
C784 C 0.47207 0.41884 0.40232 0.0
C785 C 0.48265 0.38196 0.41729 0.0
C786 C 0.46651 0.42607 0.44834 0.0
C787 C 0.47522 0.44213 0.46758 0.0
C788 C 0.48969 0.4511 0.44123 0.0
C789 C 0.49575 0.44355 0.39606 0.0
C790 C 0.48678 0.42749 0.37626 0.0
H791 H 0.48439 0.36731 0.41981 0.0
H792 H 0.49467 0.38909 0.3992 0.0
H793 H 0.48172 0.38765 0.45649 0.0
H794 H 0.45524 0.41943 0.46888 0.0
H795 H 0.47065 0.44752 0.50331 0.0
H796 H 0.18172 0.59325 0.23763 0.0
H797 H 0.15388 0.58778 0.28583 0.0
H798 H 0.18072 0.55855 0.39835 0.0
H799 H 0.20853 0.56385 0.35037 0.0
H800 H 0.15064 0.5391 0.34549 0.0
H801 H 0.13496 0.60497 0.42813 0.0
H802 H 0.14252 0.60556 0.36301 0.0
H803 H 0.1574 0.60025 0.41274 0.0
C804 C 0.18173 0.58595 0.27312 0.0
C805 C 0.19722 0.5789 0.29016 0.0
C806 C 0.16592 0.58302 0.30085 0.0
C807 C 0.16539 0.57296 0.3458 0.0
C808 C 0.18099 0.56656 0.36405 0.0
H809 H 0.07565 0.51514 0.4988 0.0
H810 H 0.10524 0.52784 0.47307 0.0
C811 C 0.19684 0.56961 0.33661 0.0
C812 C 0.14807 0.56665 0.36876 0.0
H813 H 0.11136 0.58096 0.4261 0.0
C814 C 0.14209 0.54819 0.36358 0.0
C815 C 0.13704 0.57863 0.39194 0.0
C816 C 0.14329 0.59846 0.39978 0.0
C817 C 0.125 0.54141 0.37935 0.0
C818 C 0.1138 0.55342 0.40207 0.0
C819 C 0.11994 0.57186 0.40822 0.0
C820 C 0.09578 0.54687 0.42021 0.0
C821 C 0.11897 0.52157 0.36989 0.0
C822 C 0.08063 0.55401 0.40085 0.0
C823 C 0.06357 0.54704 0.41657 0.0
C824 C 0.0616 0.53267 0.45098 0.0
C825 C 0.0768 0.52584 0.47087 0.0
C826 C 0.09372 0.53309 0.45632 0.0
H827 H 0.12689 0.5157 0.33929 0.0
H828 H 0.12083 0.51392 0.40523 0.0
H829 H 0.10467 0.51948 0.35905 0.0
H830 H 0.08202 0.5648 0.37322 0.0
H831 H 0.05199 0.55269 0.40159 0.0
H832 H 0.91936 0.84067 0.8998 0.0
H833 H 0.93225 0.86686 0.85144 0.0
H834 H 0.9566 0.83123 0.74752 0.0
H835 H 0.94377 0.805 0.79556 0.0
H836 H 0.98014 0.8578 0.80578 0.0
H837 H 0.92612 0.88825 0.70469 0.0
H838 H 0.92076 0.88095 0.76852 0.0
H839 H 0.9248 0.86446 0.72028 0.0
C840 C 0.92706 0.83844 0.86586 0.0
C841 C 0.93065 0.82089 0.85147 0.0
C842 C 0.93427 0.85334 0.83809 0.0
C843 C 0.94522 0.85085 0.79587 0.0
C844 C 0.948 0.83331 0.7797 0.0
H845 H 0.02197 0.93786 0.6809 0.0
H846 H 0.00738 0.90759 0.69809 0.0
C847 C 0.94064 0.81839 0.80711 0.0
C848 C 0.95609 0.8666 0.77483 0.0
H849 H 0.95302 0.90757 0.72059 0.0
C850 C 0.97435 0.86861 0.78631 0.0
C851 C 0.94837 0.88047 0.74948 0.0
C852 C 0.92896 0.87844 0.73453 0.0
C853 C 0.98495 0.88481 0.77635 0.0
C854 C 0.97702 0.89912 0.75337 0.0
C855 C 0.95897 0.89664 0.73902 0.0
C856 C 0.98689 0.91714 0.74632 0.0
C857 C 0.00421 0.88678 0.79318 0.0
C858 C 0.98022 0.93251 0.76782 0.0
C859 C 0.98832 0.94978 0.75718 0.0
C860 C 1.00341 0.95186 0.72589 0.0
C861 C 0.01071 0.93649 0.70671 0.0
C862 C 1.00232 0.91922 0.7162 0.0
H863 H 0.00696 0.87623 0.82093 0.0
H864 H 0.01286 0.88533 0.75949 0.0
H865 H 0.00798 0.90033 0.81087 0.0
H866 H 0.96833 0.93114 0.79122 0.0
H867 H 0.98231 0.96153 0.77128 0.0
H868 H 0.67916 0.97455 0.86256 0.0
H869 H 0.65452 0.97908 0.80503 0.0
H870 H 0.67369 0.03579 0.79441 0.0
H871 H 0.69821 0.0314 0.85188 0.0
H872 H 0.63105 1.00246 0.84217 0.0
H873 H 0.65543 0.02274 0.64999 0.0
H874 H 0.66844 0.01093 0.69394 0.0
H875 H 0.66781 0.03506 0.70014 0.0
C876 C 0.67846 0.98782 0.84632 0.0
C877 C 0.69038 1.00269 0.86202 0.0
C878 C 0.66444 0.99037 0.81357 0.0
C879 C 0.66235 0.00775 0.79588 0.0
C880 C 0.67529 0.02222 0.8072 0.0
H881 H 0.56358 0.0556 0.7438 0.0
H882 H 0.59186 0.04754 0.78036 0.0
C883 C 0.68931 0.01969 0.83998 0.0
C884 C 0.64522 0.01155 0.77419 0.0
H885 H 0.62674 0.03125 0.67369 0.0
C886 C 0.63 0.00855 0.80506 0.0
C887 C 0.64404 0.01945 0.72592 0.0
C888 C 0.65978 0.02207 0.69036 0.0
C889 C 0.61358 0.01366 0.78915 0.0
C890 C 0.61264 0.02234 0.74185 0.0
C891 C 0.62774 0.02495 0.71055 0.0
C892 C 0.5958 0.02747 0.72168 0.0
C893 C 0.59737 0.00947 0.82239 0.0
C894 C 0.58918 0.01912 0.67651 0.0
C895 C 0.57373 0.02414 0.65508 0.0
C896 C 0.56451 0.03746 0.67876 0.0
C897 C 0.57086 0.04566 0.72454 0.0
C898 C 0.58671 0.04087 0.74562 0.0
H899 H 0.59983 1.00001 0.85349 0.0
H900 H 0.59362 0.02222 0.83999 0.0
H901 H 0.58588 1.00339 0.79921 0.0
H902 H 0.59594 0.00861 0.658 0.0
H903 H 0.56862 0.01706 0.62082 0.0
H904 H 0.61714 0.68821 0.84841 0.0
H905 H 0.60569 0.66121 0.79833 0.0
H906 H 0.5634 0.64985 0.90748 0.0
H907 H 0.57437 0.67674 0.95692 0.0
H908 H 0.59811 0.62299 0.83765 0.0
H909 H 0.53899 0.65277 0.7625 0.0
H910 H 0.55888 0.6664 0.78437 0.0
H911 H 0.54302 0.65644 0.82962 0.0
C912 C 0.60546 0.67988 0.86178 0.0
C913 C 0.59669 0.68455 0.90671 0.0
C914 C 0.59897 0.66454 0.8332 0.0
C915 C 0.58358 0.65388 0.84903 0.0
C916 C 0.57517 0.65816 0.89451 0.0
H917 H 0.51151 0.56098 0.77214 0.0
H918 H 0.52716 0.58954 0.80529 0.0
C919 C 0.58163 0.67337 0.92307 0.0
C920 C 0.57615 0.63799 0.819 0.0
H921 H 0.53828 0.62058 0.75741 0.0
C922 C 0.58516 0.62243 0.81935 0.0
C923 C 0.5593 0.63753 0.79533 0.0
C924 C 0.5495 0.65421 0.7924 0.0
C925 C 0.5772 0.60594 0.79932 0.0
C926 C 0.55996 0.60526 0.77743 0.0
C927 C 0.55136 0.6211 0.77492 0.0
C928 C 0.5505 0.58816 0.7577 0.0
C929 C 0.58701 0.58929 0.80415 0.0
C930 C 0.55837 0.57817 0.71986 0.0
C931 C 0.54981 0.56174 0.70257 0.0
C932 C 0.53293 0.55531 0.72145 0.0
C933 C 0.52467 0.56556 0.75794 0.0
C934 C 0.53352 0.58186 0.7764 0.0
H935 H 0.59744 0.59108 0.83425 0.0
H936 H 0.57772 0.57714 0.81314 0.0
H937 H 0.59373 0.58674 0.76751 0.0
H938 H 0.57109 0.58313 0.70343 0.0
H939 H 0.55621 0.55435 0.67308 0.0
H940 H 0.81436 0.40875 0.80204 0.0
H941 H 0.8426 0.41467 0.75514 0.0
H942 H 0.85164 0.46741 0.8277 0.0
H943 H 0.82345 0.46181 0.873 0.0
H944 H 0.86155 0.46746 0.72476 0.0
H945 H 0.88951 0.41224 0.83117 0.0
H946 H 0.86962 0.4062 0.79444 0.0
H947 H 0.86884 0.42072 0.8496 0.0
C948 C 0.82225 0.42173 0.8069 0.0
C949 C 0.81671 0.43488 0.84074 0.0
C950 C 0.83838 0.42505 0.7805 0.0
C951 C 0.84931 0.44136 0.78866 0.0
C952 C 0.84336 0.45477 0.82067 0.0
H953 H 0.95263 0.49754 0.74747 0.0
H954 H 0.92163 0.48686 0.76763 0.0
C955 C 0.82721 0.45159 0.84635 0.0
C956 C 0.86755 0.44426 0.76753 0.0
H957 H 0.90927 0.4311 0.78199 0.0
C958 C 0.87196 0.45938 0.73667 0.0
C959 C 0.88108 0.43361 0.78291 0.0
C960 C 0.87715 0.41734 0.81659 0.0
C961 C 0.88964 0.46451 0.72218 0.0
C962 C 0.9033 0.45452 0.7403 0.0
C963 C 0.89878 0.43886 0.76882 0.0
C964 C 0.9224 0.46047 0.7317 0.0
C965 C 0.8935 0.48061 0.68783 0.0
C966 C 0.9334 0.44873 0.70802 0.0
C967 C 0.95122 0.45462 0.69789 0.0
C968 C 0.95825 0.47237 0.71104 0.0
C969 C 0.9475 0.48379 0.73703 0.0
C970 C 0.92974 0.47781 0.74775 0.0
H971 H 0.88165 0.48292 0.66459 0.0
H972 H 0.89705 0.49297 0.71155 0.0
H973 H 0.90479 0.47879 0.66173 0.0
H974 H 0.92805 0.43523 0.69584 0.0
H975 H 0.9592 0.44561 0.67734 0.0
H976 H 0.07952 0.16275 0.96328 0.0
H977 H 0.0726 0.13532 0.91099 0.0
H978 H 0.07109 0.16798 0.77659 0.0
H979 H 0.0789 0.1953 0.82796 0.0
H980 H 0.04276 0.12618 0.85652 0.0
H981 H 0.10033 0.12974 0.7243 0.0
H982 H 0.10019 0.14395 0.78068 0.0
H983 H 0.08878 0.14967 0.72377 0.0
C984 C 0.07818 0.16409 0.92243 0.0
C985 C 0.07971 0.18132 0.90005 0.0
C986 C 0.07407 0.14837 0.89257 0.0
C987 C 0.07149 0.14949 0.83963 0.0
C988 C 0.07336 0.16664 0.81707 0.0
H989 H 0.03335 0.07052 0.60387 0.0
H990 H 0.04411 0.09798 0.6519 0.0
C991 C 0.07758 0.18232 0.84678 0.0
C992 C 0.06567 0.13285 0.8088 0.0
H993 H 0.07583 0.10787 0.7041 0.0
C994 C 0.05011 0.12211 0.82348 0.0
C995 C 0.07506 0.12765 0.76506 0.0
C996 C 0.0921 0.13827 0.74774 0.0
C997 C 0.04363 0.10644 0.79574 0.0
C998 C 0.05317 0.10107 0.75259 0.0
C999 C 0.0686 0.11192 0.73738 0.0
C1000 C 0.04733 0.08421 0.72296 0.0
C1001 C 0.02638 0.09602 0.81225 0.0
C1002 C 0.04595 0.06722 0.74653 0.0
C1003 C 0.03979 0.05144 0.7192 0.0
C1004 C 0.03496 0.05228 0.66751 0.0
C1005 C 0.03688 0.06929 0.64361 0.0
C1006 C 0.04305 0.08505 0.67102 0.0
H1007 H 0.01831 0.10449 0.83637 0.0
H1008 H 0.01825 0.09088 0.77878 0.0
H1009 H 0.02939 0.08422 0.83506 0.0
H1010 H 0.04955 0.06617 0.78627 0.0
H1011 H 0.03858 0.03863 0.73889 0.0
H1012 H 0.32832 0.977 0.8401 0.0
H1013 H 0.35706 0.9761 0.79635 0.0
H1014 H 0.3637 0.0346 0.79338 0.0
H1015 H 0.33543 0.03546 0.83904 0.0
H1016 H 0.36993 0.98827 0.70516 0.0
H1017 H 0.40931 0.02449 0.8605 0.0
H1018 H 0.3862 0.01595 0.86829 0.0
H1019 H 0.39216 0.03726 0.8373 0.0
C1020 C 0.33595 0.98961 0.82978 0.0
C1021 C 0.32985 0.0063 0.84299 0.0
C1022 C 0.35233 0.98911 0.80489 0.0
C1023 C 0.36274 0.00529 0.79255 0.0
C1024 C 0.35619 0.02195 0.80388 0.0
H1025 H 0.46212 0.04053 0.65095 0.0
H1026 H 0.43203 0.03633 0.68603 0.0
C1027 C 0.34001 0.02246 0.82954 0.0
C1028 C 0.38053 1.00485 0.76845 0.0
H1029 H 0.42425 0.02153 0.78124 0.0
C1030 C 0.38185 0.99541 0.72195 0.0
C1031 C 0.39613 0.01397 0.7907 0.0
C1032 C 0.39594 0.02332 0.8422 0.0
C1033 C 0.39821 0.99556 0.69602 0.0
C1034 C 0.41362 0.00528 0.71746 0.0
C1035 C 0.41237 0.01424 0.76461 0.0
C1036 C 0.43112 0.00715 0.69105 0.0
C1037 C 0.39878 0.98586 0.64519 0.0
C1038 C 0.44054 0.99208 0.68142 0.0
C1039 C 0.45783 0.99446 0.66115 0.0
C1040 C 0.46595 0.01196 0.65075 0.0
C1041 C 0.45626 0.0269 0.65899 0.0
C1042 C 0.43905 0.02452 0.67897 0.0
H1043 H 0.38523 0.98231 0.629 0.0
H1044 H 0.40692 0.9943 0.61738 0.0
H1045 H 0.40504 0.9731 0.65019 0.0
H1046 H 0.43479 0.97857 0.69116 0.0
H1047 H 0.46503 0.98271 0.65525 0.0
H1048 H 0.45238 0.31504 0.82015 0.0
H1049 H 0.45984 0.34312 0.7736 0.0
H1050 H 0.42837 0.3715 0.87883 0.0
H1051 H 0.42059 0.34335 0.92547 0.0
H1052 H 0.43777 0.3674 0.72591 0.0
H1053 H 0.47789 0.40091 0.88502 0.0
H1054 H 0.47133 0.37679 0.88291 0.0
H1055 H 0.45546 0.39219 0.90068 0.0
C1056 C 0.4468 0.32716 0.83322 0.0
C1057 C 0.43591 0.32682 0.877 0.0
C1058 C 0.45117 0.34327 0.80652 0.0
C1059 C 0.4449 0.35954 0.82301 0.0
C1060 C 0.43368 0.35922 0.86589 0.0
H1061 H 0.47424 0.47201 0.72927 0.0
H1062 H 0.46118 0.4445 0.77184 0.0
C1063 C 0.42928 0.34309 0.89266 0.0
C1064 C 0.45054 0.37684 0.79605 0.0
H1065 H 0.47478 0.41816 0.81165 0.0
C1066 C 0.44582 0.37854 0.74464 0.0
C1067 C 0.46099 0.39144 0.82043 0.0
C1068 C 0.46687 0.39029 0.87518 0.0
C1069 C 0.45105 0.39446 0.71721 0.0
C1070 C 0.4619 0.40896 0.74126 0.0
C1071 C 0.46648 0.40722 0.79288 0.0
C1072 C 0.46904 0.42585 0.71375 0.0
C1073 C 0.44443 0.3956 0.66315 0.0
C1074 C 0.47799 0.4248 0.66692 0.0
C1075 C 0.48507 0.44054 0.64201 0.0
C1076 C 0.48396 0.45784 0.66394 0.0
C1077 C 0.47533 0.45895 0.71124 0.0
C1078 C 0.46786 0.44317 0.73564 0.0
H1079 H 0.43164 0.38693 0.65728 0.0
H1080 H 0.44242 0.40973 0.653 0.0
H1081 H 0.45432 0.39057 0.63658 0.0
H1082 H 0.47985 0.41176 0.64984 0.0
H1083 H 0.49186 0.43909 0.60601 0.0
H1084 H 0.19406 0.57402 0.83515 0.0
H1085 H 0.16656 0.567 0.78614 0.0
H1086 H 0.14795 0.52658 0.89564 0.0
H1087 H 0.17558 0.53301 0.94409 0.0
H1088 H 0.15183 0.53274 0.74228 0.0
H1089 H 0.1067 0.5592 0.88555 0.0
H1090 H 0.13056 0.56498 0.88673 0.0
H1091 H 0.12102 0.54349 0.9104 0.0
C1092 C 0.18423 0.56353 0.84884 0.0
C1093 C 0.18719 0.55417 0.89409 0.0
C1094 C 0.16843 0.5596 0.82074 0.0
C1095 C 0.15506 0.54642 0.83748 0.0
C1096 C 0.15791 0.53706 0.88243 0.0
H1097 H 0.04897 0.50192 0.73843 0.0
H1098 H 0.07726 0.51006 0.78352 0.0
C1099 C 0.17375 0.54085 0.91034 0.0
C1100 C 0.1382 0.54223 0.80785 0.0
H1101 H 0.09294 0.54196 0.81674 0.0
C1102 C 0.13895 0.53483 0.75839 0.0
C1103 C 0.12139 0.54502 0.82875 0.0
C1104 C 0.11978 0.55376 0.88058 0.0
C1105 C 0.12333 0.52956 0.73005 0.0
C1106 C 0.10644 0.53209 0.75134 0.0
C1107 C 0.10578 0.5398 0.80048 0.0
C1108 C 0.0893 0.52695 0.72345 0.0
C1109 C 0.12514 0.5208 0.67826 0.0
C1110 C 0.0864 0.5339 0.67497 0.0
C1111 C 0.07035 0.52912 0.649 0.0
C1112 C 0.05654 0.5175 0.67114 0.0
C1113 C 0.05927 0.51086 0.72017 0.0
C1114 C 0.07547 0.51552 0.74598 0.0
H1115 H 0.13799 0.51481 0.67451 0.0
H1116 H 0.11408 0.51 0.67076 0.0
H1117 H 0.12484 0.53125 0.64846 0.0
H1118 H 0.09651 0.5432 0.65723 0.0
H1119 H 0.06876 0.53471 0.61152 0.0
H1120 H 0.93035 0.84724 0.21687 0.0
H1121 H 0.9385 0.87491 0.26789 0.0
H1122 H 0.96988 0.84506 0.36753 0.0
H1123 H 0.96213 0.81757 0.31646 0.0
H1124 H 0.93387 0.88224 0.37526 0.0
H1125 H 0.00531 0.88749 0.32022 0.0
H1126 H 0.98839 0.873 0.28638 0.0
H1127 H 0.99684 0.86603 0.34627 0.0
C1128 C 0.93908 0.84661 0.24945 0.0
C1129 C 0.94563 0.83018 0.26236 0.0
C1130 C 0.94362 0.8624 0.27879 0.0
C1131 C 0.95499 0.86212 0.32118 0.0
C1132 C 0.96129 0.84568 0.33463 0.0
H1133 H 1.00026 0.94141 0.54474 0.0
H1134 H 0.98954 0.91387 0.49688 0.0
C1135 C 0.95671 0.82992 0.30556 0.0
C1136 C 0.96062 0.87906 0.35076 0.0
H1137 H 0.99728 0.90782 0.38472 0.0
C1138 C 0.94771 0.88791 0.37703 0.0
C1139 C 0.97871 0.8864 0.35338 0.0
C1140 C 0.99312 0.87786 0.32475 0.0
C1141 C 0.95246 0.90376 0.40629 0.0
C1142 C 0.97053 0.91108 0.40869 0.0
C1143 C 0.98343 0.90221 0.38264 0.0
C1144 C 0.97639 0.92787 0.43838 0.0
C1145 C 0.93826 0.91242 0.4354 0.0
C1146 C 0.97269 0.94494 0.42111 0.0
C1147 C 0.97903 0.9608 0.44803 0.0
C1148 C 0.989 0.95985 0.49308 0.0
C1149 C 0.99252 0.94267 0.5104 0.0
C1150 C 0.98642 0.92689 0.48309 0.0
H1151 H 0.9254 0.90361 0.43598 0.0
H1152 H 0.94266 0.91548 0.47531 0.0
H1153 H 0.93602 0.92544 0.41736 0.0
H1154 H 0.96508 0.94599 0.38643 0.0
H1155 H 0.97602 0.97378 0.43379 0.0
H1156 H 0.69264 0.98633 0.35858 0.0
H1157 H 0.66413 0.98509 0.4039 0.0
H1158 H 0.65344 0.03532 0.33498 0.0
H1159 H 0.68183 0.03663 0.28958 0.0
H1160 H 0.65053 0.00901 0.47281 0.0
H1161 H 0.60933 1.00139 0.29693 0.0
H1162 H 0.63282 0.99866 0.29708 0.0
H1163 H 0.62548 0.02097 0.29716 0.0
C1164 C 0.68429 0.9972 0.35348 0.0
C1165 C 0.68944 0.01151 0.32018 0.0
C1166 C 0.66798 0.99644 0.37925 0.0
C1167 C 0.65651 0.00995 0.37214 0.0
C1168 C 0.66187 0.02452 0.34012 0.0
H1169 H 0.55222 0.02768 0.49705 0.0
H1170 H 0.58275 0.03219 0.4631 0.0
C1171 C 0.67811 0.02525 0.31422 0.0
C1172 C 0.63887 0.00872 0.39775 0.0
H1173 H 0.59409 0.00618 0.37432 0.0
C1174 C 0.63819 0.00837 0.4513 0.0
C1175 C 0.62277 0.00778 0.36959 0.0
C1176 C 0.62255 0.00704 0.31203 0.0
C1177 C 0.62182 0.00732 0.47737 0.0
C1178 C 0.60581 0.00659 0.44916 0.0
C1179 C 0.60646 0.00697 0.39575 0.0
C1180 C 0.58812 1.00442 0.47412 0.0
C1181 C 0.62166 0.00706 0.53487 0.0
C1182 C 0.58116 0.98737 0.49175 0.0
C1183 C 0.56372 0.98471 0.5103 0.0
C1184 C 0.55299 0.9991 0.51195 0.0
C1185 C 0.56021 0.01636 0.49615 0.0
C1186 C 0.5776 0.01895 0.47681 0.0
H1187 H 0.63522 0.01024 0.55135 0.0
H1188 H 0.61286 0.01698 0.55009 0.0
H1189 H 0.61619 0.9934 0.54774 0.0
H1190 H 0.58906 0.97599 0.48974 0.0
H1191 H 0.55852 0.9713 0.52266 0.0
H1192 H 0.55768 0.69213 0.33251 0.0
H1193 H 0.55073 0.66405 0.37925 0.0
H1194 H 0.5919 0.63978 0.29716 0.0
H1195 H 0.59929 0.66813 0.25094 0.0
H1196 H 0.53875 0.63073 0.34118 0.0
H1197 H 0.60244 0.62692 0.44421 0.0
H1198 H 0.59699 0.64733 0.41375 0.0
H1199 H 0.60497 0.62933 0.37646 0.0
C1200 C 0.5655 0.68095 0.32485 0.0
C1201 C 0.57914 0.68251 0.28793 0.0
C1202 C 0.56142 0.66481 0.3515 0.0
C1203 C 0.57089 0.64976 0.34235 0.0
C1204 C 0.58457 0.65124 0.30568 0.0
H1205 H 0.54238 0.53633 0.42732 0.0
H1206 H 0.55369 0.56434 0.38346 0.0
C1207 C 0.58864 0.66742 0.27877 0.0
C1208 C 0.56571 0.63233 0.36927 0.0
H1209 H 0.58113 0.6009 0.44808 0.0
C1210 C 0.54806 0.62424 0.36443 0.0
C1211 C 0.57774 0.62388 0.4003 0.0
C1212 C 0.59655 0.63236 0.40953 0.0
C1213 C 0.54226 0.6079 0.3889 0.0
C1214 C 0.55435 0.59929 0.41894 0.0
C1215 C 0.57194 0.60739 0.42438 0.0
C1216 C 0.54858 0.58221 0.44639 0.0
C1217 C 0.52312 0.59995 0.38319 0.0
C1218 C 0.54211 0.58295 0.49641 0.0
C1219 C 0.53575 0.56703 0.52159 0.0
C1220 C 0.53556 0.54993 0.49722 0.0
C1221 C 0.54224 0.54922 0.44719 0.0
C1222 C 0.54876 0.56521 0.42212 0.0
H1223 H 0.5154 0.60807 0.35765 0.0
H1224 H 0.52259 0.5859 0.36765 0.0
H1225 H 0.51663 0.59923 0.42122 0.0
H1226 H 0.54172 0.59592 0.51572 0.0
H1227 H 0.53059 0.5682 0.55991 0.0
H1228 H 0.82253 0.47954 0.31308 0.0
H1229 H 0.85114 0.48643 0.35641 0.0
H1230 H 0.86527 0.43309 0.31722 0.0
H1231 H 0.83671 0.42624 0.27281 0.0
H1232 H 0.86605 0.47201 0.43601 0.0
H1233 H 0.90829 0.46355 0.26591 0.0
H1234 H 0.88448 0.4639 0.26137 0.0
H1235 H 0.89372 0.44361 0.28053 0.0
C1236 C 0.83168 0.46923 0.3138 0.0
C1237 C 0.82733 0.45236 0.28918 0.0
C1238 C 0.84809 0.47321 0.33855 0.0
C1239 C 0.8606 0.46045 0.3394 0.0
C1240 C 0.85612 0.4434 0.31591 0.0
H1241 H 0.96326 0.46328 0.49588 0.0
H1242 H 0.93465 0.45397 0.45324 0.0
C1243 C 0.83975 0.43946 0.29065 0.0
C1244 C 0.87821 0.46512 0.36497 0.0
H1245 H 0.9233 0.46861 0.34511 0.0
C1246 C 0.87854 0.4713 0.41598 0.0
C1247 C 0.89461 0.46424 0.339 0.0
C1248 C 0.89532 0.45863 0.28356 0.0
C1249 C 0.89471 0.47654 0.44154 0.0
C1250 C 0.91099 0.47565 0.4155 0.0
C1251 C 0.91075 0.46929 0.36488 0.0
C1252 C 0.92844 0.48135 0.44023 0.0
C1253 C 0.89437 0.48294 0.49634 0.0
C1254 C 0.93454 0.49983 0.44624 0.0
C1255 C 0.95104 0.50515 0.46961 0.0
C1256 C 0.96154 0.49205 0.4877 0.0
C1257 C 0.95543 0.47359 0.48168 0.0
C1258 C 0.9391 0.46828 0.4576 0.0
H1259 H 0.88079 0.48083 0.51307 0.0
H1260 H 0.90357 0.47568 0.51971 0.0
H1261 H 0.89907 0.49763 0.49854 0.0
H1262 H 0.92649 0.51012 0.43307 0.0
H1263 H 0.95538 0.51945 0.47469 0.0
loop_
_geom_bond_atom_site_label_1
_geom_bond_atom_site_label_2
_geom_bond_distance
_geom_bond_site_symmetry_2
_ccdc_geom_bond_type
C0 C1 1.264 . S
C0 C5 1.479 . S
C0 C10 1.465 . S
C1 C0 1.264 . S
C1 C3 1.339 . S
C1 H28 0.931 . S
C2 C3 1.395 . S
C2 C4 1.320 . S
C3 C1 1.339 . S
C3 C2 1.395 . S
C3 H29 0.929 . S
C4 C2 1.320 . S
C4 C5 1.405 . S
C4 H30 0.930 . S
C5 C0 1.479 . S
C5 C4 1.405 . S
C5 H31 0.931 . S
U6 O7 2.454 . S
U6 O8 2.458 1_554 S
U6 C9 2.984 1_554 S
U6 C10 2.847 . S
U6 C23 2.882 1_554 S
U6 O24 2.441 . S
U6 O25 2.420 . S
U6 O26 2.455 1_554 S
U6 O27 2.449 1_554 S
O7 U6 2.454 . S
O7 C9 1.353 1_554 S
O8 U6 2.458 1_556 S
O8 C9 1.286 . S
C9 U6 2.984 1_556 S
C9 O7 1.353 1_556 S
C9 O8 1.286 . S
C9 C11 1.363 . S
C10 C0 1.465 . S
C10 U6 2.847 . S
C10 O24 1.249 . S
C10 O25 1.202 . S
C11 C9 1.363 . S
C11 C13 1.408 1_556 S
C11 C16 1.342 . S
C12 C13 1.310 . S
C12 C15 1.461 1_554 S
C12 H32 0.932 . S
C13 C11 1.408 1_554 S
C13 C12 1.310 . S
C13 H33 0.930 . S
C14 C15 1.474 . S
C14 C16 1.285 . S
C14 H34 0.929 . S
C15 C12 1.461 1_556 S
C15 C14 1.474 . S
C16 C11 1.342 . S
C16 C14 1.285 . S
C16 H35 0.930 . S
C17 C20 1.424 . S
C17 C22 1.245 . S
C17 C23 1.428 . S
C18 C21 1.260 . S
C18 C22 1.477 . S
C18 H36 0.932 . S
C19 C20 1.384 . S
C19 C21 1.479 . S
C19 H37 0.929 . S
C20 C17 1.424 . S
C20 C19 1.384 . S
C20 H38 0.928 . S
C21 C18 1.260 . S
C21 C19 1.479 . S
C22 C17 1.245 . S
C22 C18 1.477 . S
C22 H39 0.932 . S
C23 U6 2.882 1_556 S
C23 C17 1.428 . S
C23 O26 1.301 . S
C23 O27 1.282 . S
O24 U6 2.441 . S
O24 C10 1.249 . S
O25 U6 2.420 . S
O25 C10 1.202 . S
O26 U6 2.455 1_556 S
O26 C23 1.301 . S
O27 U6 2.449 1_556 S
O27 C23 1.282 . S
H28 C1 0.931 . S
H29 C3 0.929 . S
H30 C4 0.930 . S
H31 C5 0.931 . S
H32 C12 0.932 . S
H33 C13 0.930 . S
H34 C14 0.929 . S
H35 C16 0.930 . S
H36 C18 0.932 . S
H37 C19 0.929 . S
H38 C20 0.928 . S
H39 C22 0.932 . S
C40 C41 1.264 . S
C40 C45 1.479 . S
C40 C50 1.465 . S
C41 C40 1.264 . S
C41 C43 1.339 . S
C41 H68 0.931 . S
C42 C43 1.395 . S
C42 C44 1.320 . S
C43 C41 1.339 . S
C43 C42 1.395 . S
C43 H69 0.929 . S
C44 C42 1.320 . S
C44 C45 1.405 . S
C44 H70 0.930 . S
C45 C40 1.479 . S
C45 C44 1.405 . S
C45 H71 0.931 . S
U46 O47 2.454 . S
U46 O48 2.458 1_554 S
U46 C49 2.984 1_554 S
U46 C50 2.847 . S
U46 C63 2.882 1_554 S
U46 O64 2.441 . S
U46 O65 2.420 . S
U46 O66 2.455 1_554 S
U46 O67 2.449 1_554 S
O47 U46 2.454 . S
O47 C49 1.353 1_554 S
O48 U46 2.458 1_556 S
O48 C49 1.286 . S
C49 U46 2.984 1_556 S
C49 O47 1.353 1_556 S
C49 O48 1.286 . S
C49 C51 1.363 . S
C50 C40 1.465 . S
C50 U46 2.847 . S
C50 O64 1.249 . S
C50 O65 1.202 . S
C51 C49 1.363 . S
C51 C53 1.408 1_556 S
C51 C56 1.342 . S
C52 C53 1.310 1_556 S
C52 C55 1.461 . S
C52 H72 0.932 1_556 S
C53 C51 1.408 1_554 S
C53 C52 1.310 1_554 S
C53 H73 0.930 . S
C54 C55 1.474 . S
C54 C56 1.285 . S
C54 H74 0.929 . S
C55 C52 1.461 . S
C55 C54 1.474 . S
C56 C51 1.342 . S
C56 C54 1.285 . S
C56 H75 0.930 . S
C57 C60 1.424 . S
C57 C62 1.245 . S
C57 C63 1.428 . S
C58 C61 1.260 . S
C58 C62 1.477 . S
C58 H76 0.932 . S
C59 C60 1.384 . S
C59 C61 1.479 . S
C59 H77 0.929 . S
C60 C57 1.424 . S
C60 C59 1.384 . S
C60 H78 0.928 . S
C61 C58 1.260 . S
C61 C59 1.479 . S
C62 C57 1.245 . S
C62 C58 1.477 . S
C62 H79 0.932 . S
C63 U46 2.882 1_556 S
C63 C57 1.428 . S
C63 O66 1.301 . S
C63 O67 1.282 . S
O64 U46 2.441 . S
O64 C50 1.249 . S
O65 U46 2.420 . S
O65 C50 1.202 . S
O66 U46 2.455 1_556 S
O66 C63 1.301 . S
O67 U46 2.449 1_556 S
O67 C63 1.282 . S
H68 C41 0.931 . S
H69 C43 0.929 . S
H70 C44 0.930 . S
H71 C45 0.931 . S
H72 C52 0.932 1_554 S
H73 C53 0.930 . S
H74 C54 0.929 . S
H75 C56 0.930 . S
H76 C58 0.932 . S
H77 C59 0.929 . S
H78 C60 0.928 . S
H79 C62 0.932 . S
C80 C81 1.264 . S
C80 C85 1.479 . S
C80 C90 1.465 . S
C81 C80 1.264 . S
C81 C83 1.339 . S
C81 H108 0.931 . S
C82 C83 1.395 . S
C82 C84 1.320 . S
C83 C81 1.339 . S
C83 C82 1.395 . S
C83 H109 0.929 . S
C84 C82 1.320 . S
C84 C85 1.405 . S
C84 H110 0.917 1_545 S
C85 C80 1.479 . S
C85 C84 1.405 . S
C85 H111 0.931 . S
U86 O87 2.454 . S
U86 O88 2.458 1_554 S
U86 C89 2.984 . S
U86 C90 2.847 . S
U86 C103 2.882 1_554 S
U86 O104 2.441 . S
U86 O105 2.420 . S
U86 O106 2.455 1_554 S
U86 O107 2.449 . S
O87 U86 2.454 . S
O87 C89 1.353 . S
O88 U86 2.458 1_556 S
O88 C89 1.286 1_556 S
C89 U86 2.984 . S
C89 O87 1.353 . S
C89 O88 1.286 1_554 S
C89 C91 1.361 1_554 S
C90 C80 1.465 . S
C90 U86 2.847 . S
C90 O104 1.249 . S
C90 O105 1.202 . S
C91 C89 1.361 1_556 S
C91 C93 1.401 1_556 S
C91 C96 1.351 . S
C92 C93 1.310 . S
C92 C95 1.461 1_554 S
C92 H112 0.942 . S
C93 C91 1.401 1_554 S
C93 C92 1.310 . S
C93 H113 0.930 . S
C94 C95 1.475 1_565 S
C94 C96 1.284 1_565 S
C94 H114 0.930 . S
C95 C92 1.461 1_556 S
C95 C94 1.475 1_545 S
C96 C91 1.351 . S
C96 C94 1.284 1_545 S
C96 H115 0.929 . S
C97 C100 1.424 . S
C97 C102 1.245 . S
C97 C103 1.428 . S
C98 C101 1.260 . S
C98 C102 1.477 . S
C98 H116 0.932 . S
C99 C100 1.384 . S
C99 C101 1.479 . S
C99 H117 0.929 . S
C100 C97 1.424 . S
C100 C99 1.384 . S
C100 H118 0.928 . S
C101 C98 1.260 . S
C101 C99 1.479 . S
C102 C97 1.245 . S
C102 C98 1.477 . S
C102 H119 0.932 . S
C103 U86 2.882 1_556 S
C103 C97 1.428 . S
C103 O106 1.301 . S
C103 O107 1.282 1_556 S
O104 U86 2.441 . S
O104 C90 1.249 . S
O105 U86 2.420 . S
O105 C90 1.202 . S
O106 U86 2.455 1_556 S
O106 C103 1.301 . S
O107 U86 2.449 . S
O107 C103 1.282 1_554 S
H108 C81 0.931 . S
H109 C83 0.929 . S
H110 C84 0.917 1_565 S
H111 C85 0.931 . S
H112 C92 0.942 . S
H113 C93 0.930 . S
H114 C94 0.930 . S
H115 C96 0.929 . S
H116 C98 0.932 . S
H117 C99 0.929 . S
H118 C100 0.928 . S
H119 C102 0.932 . S
C120 C121 1.264 . S
C120 C125 1.479 . S
C120 C130 1.465 . S
C121 C120 1.264 . S
C121 C123 1.339 . S
C121 H148 0.931 . S
C122 C123 1.395 . S
C122 C124 1.320 . S
C123 C121 1.339 . S
C123 C122 1.395 . S
C123 H149 0.929 . S
C124 C122 1.320 . S
C124 C125 1.405 . S
C124 H150 0.930 . S
C125 C120 1.479 . S
C125 C124 1.405 . S
C125 H151 0.931 . S
U126 O127 2.454 . S
U126 O128 2.458 . S
U126 C129 2.984 . S
U126 C130 2.847 . S
U126 C143 2.882 1_554 S
U126 O144 2.441 . S
U126 O145 2.420 . S
U126 O146 2.455 1_554 S
U126 O147 2.449 . S
O127 U126 2.454 . S
O127 C129 1.353 . S
O128 U126 2.458 . S
O128 C129 1.286 . S
C129 U126 2.984 . S
C129 O127 1.353 . S
C129 O128 1.286 . S
C129 C131 1.363 . S
C130 C120 1.465 . S
C130 U126 2.847 . S
C130 O144 1.249 . S
C130 O145 1.202 . S
C131 C129 1.363 . S
C131 C133 1.408 . S
C131 C136 1.342 1_554 S
C132 C133 1.310 . S
C132 C135 1.461 . S
C132 H152 0.932 . S
C133 C131 1.408 . S
C133 C132 1.310 . S
C133 H153 0.930 . S
C134 C135 1.474 1_556 S
C134 C136 1.285 . S
C134 H154 0.929 . S
C135 C132 1.461 . S
C135 C134 1.474 1_554 S
C136 C131 1.342 1_556 S
C136 C134 1.285 . S
C136 H155 0.930 . S
C137 C140 1.424 . S
C137 C142 1.245 . S
C137 C143 1.428 . S
C138 C141 1.260 . S
C138 C142 1.477 . S
C138 H156 0.932 . S
C139 C140 1.384 . S
C139 C141 1.479 . S
C139 H157 0.929 . S
C140 C137 1.424 . S
C140 C139 1.384 . S
C140 H158 0.927 1_556 S
C141 C138 1.260 . S
C141 C139 1.479 . S
C142 C137 1.245 . S
C142 C138 1.477 . S
C142 H159 0.932 . S
C143 U126 2.882 1_556 S
C143 C137 1.428 . S
C143 O146 1.301 . S
C143 O147 1.282 1_556 S
O144 U126 2.441 . S
O144 C130 1.249 . S
O145 U126 2.420 . S
O145 C130 1.202 . S
O146 U126 2.455 1_556 S
O146 C143 1.301 . S
O147 U126 2.449 . S
O147 C143 1.282 1_554 S
H148 C121 0.931 . S
H149 C123 0.929 . S
H150 C124 0.930 . S
H151 C125 0.931 . S
H152 C132 0.932 . S
H153 C133 0.930 . S
H154 C134 0.929 . S
H155 C136 0.930 . S
H156 C138 0.932 . S
H157 C139 0.929 . S
H158 C140 0.927 1_554 S
H159 C142 0.932 . S
C160 C161 1.264 . S
C160 C165 1.479 . S
C160 C170 1.465 1_556 S
C161 C160 1.264 . S
C161 C163 1.339 . S
C161 H188 0.931 . S
C162 C163 1.395 . S
C162 C164 1.320 . S
C163 C161 1.339 . S
C163 C162 1.395 . S
C163 H189 0.929 . S
C164 C162 1.320 . S
C164 C165 1.405 . S
C164 H190 0.930 . S
C165 C160 1.479 . S
C165 C164 1.405 . S
C165 H191 0.931 . S
U166 O167 2.454 . S
U166 O168 2.458 . S
U166 C169 2.984 . S
U166 C170 2.847 . S
U166 C183 2.882 . S
U166 O184 2.441 . S
U166 O185 2.420 . S
U166 O186 2.455 . S
U166 O187 2.449 . S
O167 U166 2.454 . S
O167 C169 1.353 . S
O168 U166 2.458 . S
O168 C169 1.286 . S
C169 U166 2.984 . S
C169 O167 1.353 . S
C169 O168 1.286 . S
C169 C171 1.363 . S
C170 C160 1.465 1_554 S
C170 U166 2.847 . S
C170 O184 1.249 . S
C170 O185 1.202 . S
C171 C169 1.363 . S
C171 C173 1.408 . S
C171 C176 1.342 . S
C172 C173 1.310 . S
C172 C175 1.461 . S
C172 H192 0.932 . S
C173 C171 1.408 . S
C173 C172 1.310 . S
C173 H193 0.930 . S
C174 C175 1.474 . S
C174 C176 1.285 . S
C174 H194 0.929 . S
C175 C172 1.461 . S
C175 C174 1.474 . S
C176 C171 1.342 . S
C176 C174 1.285 . S
C176 H195 0.930 . S
C177 C180 1.424 . S
C177 C182 1.245 . S
C177 C183 1.428 . S
C178 C181 1.260 . S
C178 C182 1.477 . S
C178 H196 0.932 . S
C179 C180 1.384 . S
C179 C181 1.479 . S
C179 H197 0.929 . S
C180 C177 1.424 . S
C180 C179 1.384 . S
C180 H198 0.928 . S
C181 C178 1.260 . S
C181 C179 1.479 . S
C182 C177 1.245 . S
C182 C178 1.477 . S
C182 H199 0.932 . S
C183 U166 2.882 . S
C183 C177 1.428 . S
C183 O186 1.301 . S
C183 O187 1.282 . S
O184 U166 2.441 . S
O184 C170 1.249 . S
O185 U166 2.420 . S
O185 C170 1.202 . S
O186 U166 2.455 . S
O186 C183 1.301 . S
O187 U166 2.449 . S
O187 C183 1.282 . S
H188 C161 0.931 . S
H189 C163 0.929 . S
H190 C164 0.930 . S
H191 C165 0.931 . S
H192 C172 0.932 . S
H193 C173 0.930 . S
H194 C174 0.929 . S
H195 C176 0.930 . S
H196 C178 0.932 . S
H197 C179 0.929 . S
H198 C180 0.928 . S
H199 C182 0.932 . S
C200 C201 1.264 . S
C200 C205 1.479 . S
C200 C210 1.465 1_556 S
C201 C200 1.264 . S
C201 C203 1.339 . S
C201 H228 0.931 1_556 S
C202 C203 1.395 . S
C202 C204 1.320 . S
C203 C201 1.339 . S
C203 C202 1.395 . S
C203 H229 0.929 . S
C204 C202 1.320 . S
C204 C205 1.405 . S
C204 H230 0.930 . S
C205 C200 1.479 . S
C205 C204 1.405 . S
C205 H231 0.931 . S
U206 O207 2.454 . S
U206 O208 2.458 . S
U206 C209 2.984 . S
U206 C210 2.847 . S
U206 C223 2.882 . S
U206 O224 2.441 . S
U206 O225 2.420 . S
U206 O226 2.455 . S
U206 O227 2.449 . S
O207 U206 2.454 . S
O207 C209 1.353 . S
O208 U206 2.458 . S
O208 C209 1.286 . S
C209 U206 2.984 . S
C209 O207 1.353 . S
C209 O208 1.286 . S
C209 C211 1.363 . S
C210 C200 1.465 1_554 S
C210 U206 2.847 . S
C210 O224 1.249 . S
C210 O225 1.202 . S
C211 C209 1.363 . S
C211 C213 1.408 . S
C211 C216 1.342 . S
C212 C213 1.310 . S
C212 C215 1.461 . S
C212 H232 0.932 . S
C213 C211 1.408 . S
C213 C212 1.310 . S
C213 H233 0.930 . S
C214 C215 1.474 . S
C214 C216 1.285 . S
C214 H234 0.929 . S
C215 C212 1.461 . S
C215 C214 1.474 . S
C216 C211 1.342 . S
C216 C214 1.285 . S
C216 H235 0.930 . S
C217 C220 1.424 . S
C217 C222 1.245 . S
C217 C223 1.428 . S
C218 C221 1.260 . S
C218 C222 1.477 . S
C218 H236 0.932 . S
C219 C220 1.384 . S
C219 C221 1.479 . S
C219 H237 0.929 . S
C220 C217 1.424 . S
C220 C219 1.384 . S
C220 H238 0.928 . S
C221 C218 1.260 . S
C221 C219 1.479 . S
C222 C217 1.245 . S
C222 C218 1.477 . S
C222 H239 0.932 . S
C223 U206 2.882 . S
C223 C217 1.428 . S
C223 O226 1.301 . S
C223 O227 1.282 . S
O224 U206 2.441 . S
O224 C210 1.249 . S
O225 U206 2.420 . S
O225 C210 1.202 . S
O226 U206 2.455 . S
O226 C223 1.301 . S
O227 U206 2.449 . S
O227 C223 1.282 . S
H228 C201 0.931 1_554 S
H229 C203 0.929 . S
H230 C204 0.930 . S
H231 C205 0.931 . S
H232 C212 0.932 . S
H233 C213 0.930 . S
H234 C214 0.929 . S
H235 C216 0.930 . S
H236 C218 0.932 . S
H237 C219 0.929 . S
H238 C220 0.928 . S
H239 C222 0.932 . S
C240 C241 1.264 . S
C240 C245 1.479 . S
C240 C250 1.465 1_556 S
C241 C240 1.264 . S
C241 C243 1.339 . S
C241 H268 0.931 . S
C242 C243 1.395 . S
C242 C244 1.320 . S
C243 C241 1.339 . S
C243 C242 1.395 . S
C243 H269 0.929 . S
C244 C242 1.320 . S
C244 C245 1.405 . S
C244 H270 0.926 1_545 S
C245 C240 1.479 . S
C245 C244 1.405 . S
C245 H271 0.931 . S
U246 O247 2.454 . S
U246 O248 2.458 . S
U246 C249 2.984 . S
U246 C250 2.847 . S
U246 C263 2.882 . S
U246 O264 2.441 . S
U246 O265 2.420 . S
U246 O266 2.455 . S
U246 O267 2.449 . S
O247 U246 2.454 . S
O247 C249 1.353 . S
O248 U246 2.458 . S
O248 C249 1.286 . S
C249 U246 2.984 . S
C249 O247 1.353 . S
C249 O248 1.286 . S
C249 C251 1.363 . S
C250 C240 1.465 1_554 S
C250 U246 2.847 . S
C250 O264 1.249 . S
C250 O265 1.202 . S
C251 C249 1.363 . S
C251 C253 1.408 . S
C251 C256 1.342 . S
C252 C253 1.310 . S
C252 C255 1.462 . S
C252 H272 0.932 . S
C253 C251 1.408 . S
C253 C252 1.310 . S
C253 H273 0.930 . S
C254 C255 1.473 1_565 S
C254 C256 1.285 1_565 S
C254 H274 0.929 . S
C255 C252 1.462 . S
C255 C254 1.473 1_545 S
C256 C251 1.342 . S
C256 C254 1.285 1_545 S
C256 H275 0.938 . S
C257 C260 1.424 . S
C257 C262 1.245 . S
C257 C263 1.428 . S
C258 C261 1.260 . S
C258 C262 1.477 . S
C258 H276 0.932 . S
C259 C260 1.384 . S
C259 C261 1.479 . S
C259 H277 0.929 . S
C260 C257 1.424 . S
C260 C259 1.384 . S
C260 H278 0.928 . S
C261 C258 1.260 . S
C261 C259 1.479 . S
C262 C257 1.245 . S
C262 C258 1.477 . S
C262 H279 0.932 . S
C263 U246 2.882 . S
C263 C257 1.428 . S
C263 O266 1.301 . S
C263 O267 1.282 . S
O264 U246 2.441 . S
O264 C250 1.249 . S
O265 U246 2.420 . S
O265 C250 1.202 . S
O266 U246 2.455 . S
O266 C263 1.301 . S
O267 U246 2.449 . S
O267 C263 1.282 . S
H268 C241 0.931 . S
H269 C243 0.929 . S
H270 C244 0.926 1_565 S
H271 C245 0.931 . S
H272 C252 0.932 . S
H273 C253 0.930 . S
H274 C254 0.929 . S
H275 C256 0.938 . S
H276 C258 0.932 . S
H277 C259 0.929 . S
H278 C260 0.928 . S
H279 C262 0.932 . S
C280 C281 1.264 . S
C280 C285 1.479 . S
C280 C290 1.465 . S
C281 C280 1.264 . S
C281 C283 1.339 . S
C281 H308 0.931 . S
C282 C283 1.395 . S
C282 C284 1.320 . S
C283 C281 1.339 . S
C283 C282 1.395 . S
C283 H309 0.929 . S
C284 C282 1.320 . S
C284 C285 1.405 . S
C284 H310 0.930 . S
C285 C280 1.479 . S
C285 C284 1.405 . S
C285 H311 0.931 . S
U286 O287 2.454 . S
U286 O288 2.458 . S
U286 C289 2.984 . S
U286 C290 2.847 1_554 S
U286 C303 2.882 . S
U286 O304 2.441 1_554 S
U286 O305 2.420 . S
U286 O306 2.455 . S
U286 O307 2.449 . S
O287 U286 2.454 . S
O287 C289 1.353 . S
O288 U286 2.458 . S
O288 C289 1.286 . S
C289 U286 2.984 . S
C289 O287 1.353 . S
C289 O288 1.286 . S
C289 C291 1.363 . S
C290 C280 1.465 . S
C290 U286 2.847 1_556 S
C290 O304 1.249 . S
C290 O305 1.202 1_556 S
C291 C289 1.363 . S
C291 C293 1.408 . S
C291 C296 1.342 . S
C292 C293 1.310 . S
C292 C295 1.461 . S
C292 H312 0.932 . S
C293 C291 1.408 . S
C293 C292 1.310 . S
C293 H313 0.930 . S
C294 C295 1.474 . S
C294 C296 1.285 . S
C294 H314 0.929 . S
C295 C292 1.461 . S
C295 C294 1.474 . S
C296 C291 1.342 . S
C296 C294 1.285 . S
C296 H315 0.930 . S
C297 C300 1.424 . S
C297 C302 1.245 . S
C297 C303 1.428 . S
C298 C301 1.260 . S
C298 C302 1.477 . S
C298 H316 0.932 . S
C299 C300 1.384 . S
C299 C301 1.479 . S
C299 H317 0.929 . S
C300 C297 1.424 . S
C300 C299 1.384 . S
C300 H318 0.928 . S
C301 C298 1.260 . S
C301 C299 1.479 . S
C302 C297 1.245 . S
C302 C298 1.477 . S
C302 H319 0.932 . S
C303 U286 2.882 . S
C303 C297 1.428 . S
C303 O306 1.301 . S
C303 O307 1.282 . S
O304 U286 2.441 1_556 S
O304 C290 1.249 . S
O305 U286 2.420 . S
O305 C290 1.202 1_554 S
O306 U286 2.455 . S
O306 C303 1.301 . S
O307 U286 2.449 . S
O307 C303 1.282 . S
H308 C281 0.931 . S
H309 C283 0.929 . S
H310 C284 0.930 . S
H311 C285 0.931 . S
H312 C292 0.932 . S
H313 C293 0.930 . S
H314 C294 0.929 . S
H315 C296 0.930 . S
H316 C298 0.932 . S
H317 C299 0.929 . S
H318 C300 0.928 . S
H319 C302 0.932 . S
Dy320 O324 2.398 . S
Dy320 O325 2.491 1_455 S
Dy320 O326 2.403 . S
Dy320 O327 2.664 1_565 S
Dy320 O331 2.326 . S
Dy320 O335 2.310 1_455 S
Dy320 O336 2.351 1_565 S
C321 O332 1.185 1_455 S
C321 O333 1.355 . S
C322 O324 1.185 . S
C322 O325 1.355 1_455 S
Dy323 O327 2.342 . S
Dy323 O330 2.344 1_445 S
Dy323 O332 2.388 1_455 S
Dy323 O333 2.515 . S
Dy323 O334 2.370 1_455 S
Dy323 O335 2.653 1_445 S
Dy323 O337 2.335 . S
O324 Dy320 2.398 . S
O324 C322 1.185 . S
O325 Dy320 2.491 1_655 S
O325 C322 1.355 1_655 S
O326 Dy320 2.403 . S
O326 C328 1.254 . S
O327 Dy320 2.664 1_545 S
O327 Dy323 2.342 . S
O327 C328 1.268 1_545 S
C328 O326 1.254 . S
C328 O327 1.268 1_565 S
C329 O334 1.254 . S
C329 O335 1.268 1_545 S
O330 Dy323 2.344 1_665 S
O330 C338 1.249 . S
O331 Dy320 2.326 . S
O331 C338 1.267 1_455 S
O332 C321 1.185 1_655 S
O332 Dy323 2.388 1_655 S
O333 C321 1.355 . S
O333 Dy323 2.515 . S
O334 Dy323 2.370 1_655 S
O334 C329 1.254 . S
O335 Dy320 2.310 1_655 S
O335 Dy323 2.653 1_665 S
O335 C329 1.268 1_565 S
O336 Dy320 2.351 1_545 S
O336 C339 1.249 . S
O337 Dy323 2.335 . S
O337 C339 1.267 . S
C338 O330 1.249 . S
C338 O331 1.267 1_655 S
C339 O336 1.249 . S
C339 O337 1.267 . S
Dy340 O344 2.398 . S
Dy340 O345 2.491 . S
Dy340 O346 2.403 . S
Dy340 O347 2.683 . S
Dy340 O351 2.326 1_565 S
Dy340 O355 2.310 1_565 S
Dy340 O356 2.351 . S
C341 O352 1.185 . S
C341 O353 1.355 . S
C342 O344 1.185 . S
C342 O345 1.355 . S
Dy343 O347 2.278 1_545 S
Dy343 O350 2.351 . S
Dy343 O352 2.398 . S
Dy343 O353 2.491 . S
Dy343 O354 2.403 . S
Dy343 O355 2.664 . S
Dy343 O357 2.326 1_545 S
O344 Dy340 2.398 . S
O344 C342 1.185 . S
O345 Dy340 2.491 . S
O345 C342 1.355 . S
O346 Dy340 2.403 . S
O346 C348 1.254 . S
O347 Dy340 2.683 . S
O347 Dy343 2.278 1_565 S
O347 C348 1.286 . S
C348 O346 1.254 . S
C348 O347 1.286 . S
C349 O354 1.254 . S
C349 O355 1.268 . S
O350 Dy343 2.351 . S
O350 C358 1.249 . S
O351 Dy340 2.326 1_545 S
O351 C358 1.267 . S
O352 C341 1.185 . S
O352 Dy343 2.398 . S
O353 C341 1.355 . S
O353 Dy343 2.491 . S
O354 Dy343 2.403 . S
O354 C349 1.254 . S
O355 Dy340 2.310 1_545 S
O355 Dy343 2.664 . S
O355 C349 1.268 . S
O356 Dy340 2.351 . S
O356 C359 1.249 . S
O357 Dy343 2.326 1_565 S
O357 C359 1.267 . S
C358 O350 1.249 . S
C358 O351 1.267 . S
C359 O356 1.249 . S
C359 O357 1.267 . S
Dy360 O364 2.398 . S
Dy360 O365 2.491 . S
Dy360 O366 2.403 . S
Dy360 O367 2.664 . S
Dy360 O371 2.326 . S
Dy360 O375 2.310 . S
Dy360 O376 2.351 . S
C361 O372 1.185 . S
C361 O373 1.355 . S
C362 O364 1.185 . S
C362 O365 1.355 . S
Dy363 O367 2.310 . S
Dy363 O370 2.351 . S
Dy363 O372 2.398 . S
Dy363 O373 2.491 . S
Dy363 O374 2.403 . S
Dy363 O375 2.664 . S
Dy363 O377 2.326 . S
O364 Dy360 2.398 . S
O364 C362 1.185 . S
O365 Dy360 2.491 . S
O365 C362 1.355 . S
O366 Dy360 2.403 . S
O366 C368 1.254 . S
O367 Dy360 2.664 . S
O367 Dy363 2.310 . S
O367 C368 1.268 . S
C368 O366 1.254 . S
C368 O367 1.268 . S
C369 O374 1.254 . S
C369 O375 1.268 . S
O370 Dy363 2.351 . S
O370 C378 1.249 . S
O371 Dy360 2.326 . S
O371 C378 1.267 . S
O372 C361 1.185 . S
O372 Dy363 2.398 . S
O373 C361 1.355 . S
O373 Dy363 2.491 . S
O374 Dy363 2.403 . S
O374 C369 1.254 . S
O375 Dy360 2.310 . S
O375 Dy363 2.664 . S
O375 C369 1.268 . S
O376 Dy360 2.351 . S
O376 C379 1.249 . S
O377 Dy363 2.326 . S
O377 C379 1.267 . S
C378 O370 1.249 . S
C378 O371 1.267 . S
C379 O376 1.249 . S
C379 O377 1.267 . S
Dy380 O384 2.398 . S
Dy380 O385 2.491 . S
Dy380 O386 2.403 1_655 S
Dy380 O387 2.664 1_655 S
Dy380 O391 2.326 . S
Dy380 O395 2.310 . S
Dy380 O396 2.351 1_655 S
C381 O392 1.185 . S
C381 O393 1.355 . S
C382 O384 1.185 . S
C382 O385 1.355 . S
Dy383 O387 2.310 . S
Dy383 O390 2.351 1_455 S
Dy383 O392 2.398 . S
Dy383 O393 2.491 . S
Dy383 O394 2.403 . S
Dy383 O395 2.664 1_455 S
Dy383 O397 2.326 . S
O384 Dy380 2.398 . S
O384 C382 1.185 . S
O385 Dy380 2.491 . S
O385 C382 1.355 . S
O386 Dy380 2.403 1_455 S
O386 C388 1.254 . S
O387 Dy380 2.664 1_455 S
O387 Dy383 2.310 . S
O387 C388 1.268 . S
C388 O386 1.254 . S
C388 O387 1.268 . S
C389 O394 1.224 1_655 S
C389 O395 1.270 . S
O390 Dy383 2.351 1_655 S
O390 C398 1.249 . S
O391 Dy380 2.326 . S
O391 C398 1.267 . S
O392 C381 1.185 . S
O392 Dy383 2.398 . S
O393 C381 1.355 . S
O393 Dy383 2.491 . S
O394 Dy383 2.403 . S
O394 C389 1.224 1_455 S
O395 Dy380 2.310 . S
O395 Dy383 2.664 1_655 S
O395 C389 1.270 . S
O396 Dy380 2.351 1_455 S
O396 C399 1.249 . S
O397 Dy383 2.326 . S
O397 C399 1.267 . S
C398 O390 1.249 . S
C398 O391 1.267 . S
C399 O396 1.249 . S
C399 O397 1.267 . S
H400 C408 0.929 . S
H401 C410 0.930 . S
H402 C412 0.930 . S
H403 C415 0.929 . S
H404 C418 0.930 . S
H405 C420 0.960 . S
H406 C420 0.960 . S
H407 C420 0.960 1_565 S
C408 H400 0.929 . S
C408 C409 1.378 . S
C408 C410 1.384 . S
C409 C408 1.378 . S
C409 C415 1.389 1_545 S
C410 H401 0.930 . S
C410 C408 1.384 . S
C410 C411 1.368 . S
C411 C410 1.368 . S
C411 C412 1.403 1_545 S
C411 C416 1.491 1_545 S
C412 H402 0.930 . S
C412 C411 1.403 1_565 S
C412 C415 1.386 . S
H413 C429 0.930 . S
H414 C430 0.931 . S
C415 H403 0.929 . S
C415 C409 1.389 1_565 S
C415 C412 1.386 . S
C416 C411 1.491 1_565 S
C416 C418 1.399 . S
C416 C419 1.403 . S
H417 C423 0.935 . S
C418 H404 0.930 . S
C418 C416 1.399 . S
C418 C421 1.402 . S
C419 C416 1.403 . S
C419 C420 1.524 1_565 S
C419 C423 1.403 . S
C420 H405 0.960 . S
C420 H406 0.960 . S
C420 H407 0.960 1_545 S
C420 C419 1.524 1_545 S
C421 C418 1.402 . S
C421 C422 1.392 . S
C421 C425 1.495 . S
C422 C421 1.392 . S
C422 C423 1.382 . S
C422 C424 1.478 . S
C423 H417 0.935 . S
C423 C419 1.403 . S
C423 C422 1.382 . S
C424 C422 1.478 . S
C424 C426 1.381 1_565 S
C424 C430 1.383 . S
C425 C421 1.495 . S
C425 H431 0.959 . S
C425 H432 0.961 . S
C425 H433 0.960 1_565 S
C426 C424 1.381 1_545 S
C426 C427 1.394 . S
C426 H434 0.930 . S
C427 C426 1.394 . S
C427 C428 1.383 1_545 S
C427 H435 0.929 . S
C428 C427 1.383 1_565 S
C428 C429 1.377 . S
C429 H413 0.930 . S
C429 C428 1.377 . S
C429 C430 1.379 . S
C430 H414 0.931 . S
C430 C424 1.383 . S
C430 C429 1.379 . S
H431 C425 0.959 . S
H432 C425 0.961 . S
H433 C425 0.960 1_545 S
H434 C426 0.930 . S
H435 C427 0.929 . S
H436 C444 0.929 . S
H437 C446 0.930 . S
H438 C448 0.930 . S
H439 C451 0.929 . S
H440 C454 0.930 . S
H441 C456 0.960 . S
H442 C456 0.960 . S
H443 C456 0.960 . S
C444 H436 0.929 . S
C444 C445 1.377 . S
C444 C446 1.384 . S
C445 C444 1.377 . S
C445 C451 1.390 . S
C446 H437 0.930 . S
C446 C444 1.384 . S
C446 C447 1.372 . S
C447 C446 1.372 . S
C447 C448 1.400 . S
C447 C452 1.490 . S
C448 H438 0.930 . S
C448 C447 1.400 . S
C448 C451 1.386 . S
H449 C465 0.930 . S
H450 C466 0.931 . S
C451 H439 0.929 . S
C451 C445 1.390 . S
C451 C448 1.386 . S
C452 C447 1.490 . S
C452 C454 1.395 . S
C452 C455 1.403 . S
H453 C459 0.930 . S
C454 H440 0.930 . S
C454 C452 1.395 . S
C454 C457 1.403 . S
C455 C452 1.403 . S
C455 C456 1.524 . S
C455 C459 1.400 . S
C456 H441 0.960 . S
C456 H442 0.960 . S
C456 H443 0.960 . S
C456 C455 1.524 . S
C457 C454 1.403 . S
C457 C458 1.392 . S
C457 C461 1.495 . S
C458 C457 1.392 . S
C458 C459 1.385 . S
C458 C460 1.478 . S
C459 H453 0.930 . S
C459 C455 1.400 . S
C459 C458 1.385 . S
C460 C458 1.478 . S
C460 C462 1.381 . S
C460 C466 1.383 . S
C461 C457 1.495 . S
C461 H467 0.959 . S
C461 H468 0.961 . S
C461 H469 0.960 . S
C462 C460 1.381 . S
C462 C463 1.394 . S
C462 H470 0.930 . S
C463 C462 1.394 . S
C463 C464 1.383 . S
C463 H471 0.929 . S
C464 C463 1.383 . S
C464 C465 1.377 . S
C465 H449 0.930 . S
C465 C464 1.377 . S
C465 C466 1.379 . S
C466 H450 0.931 . S
C466 C460 1.383 . S
C466 C465 1.379 . S
H467 C461 0.959 . S
H468 C461 0.961 . S
H469 C461 0.960 . S
H470 C462 0.930 . S
H471 C463 0.929 . S
H472 C480 0.929 . S
H473 C482 0.930 . S
H474 C484 0.930 . S
H475 C487 0.929 . S
H476 C490 0.930 . S
H477 C492 0.960 . S
H478 C492 0.960 . S
H479 C492 0.960 . S
C480 H472 0.929 . S
C480 C481 1.377 . S
C480 C482 1.384 . S
C481 C480 1.377 . S
C481 C487 1.390 . S
C482 H473 0.930 . S
C482 C480 1.384 . S
C482 C483 1.372 . S
C483 C482 1.372 . S
C483 C484 1.400 . S
C483 C488 1.490 . S
C484 H474 0.930 . S
C484 C483 1.400 . S
C484 C487 1.386 . S
H485 C501 0.930 . S
H486 C502 0.931 . S
C487 H475 0.929 . S
C487 C481 1.390 . S
C487 C484 1.386 . S
C488 C483 1.490 . S
C488 C490 1.395 . S
C488 C491 1.403 . S
H489 C495 0.930 . S
C490 H476 0.930 . S
C490 C488 1.395 . S
C490 C493 1.403 . S
C491 C488 1.403 . S
C491 C492 1.524 . S
C491 C495 1.400 . S
C492 H477 0.960 . S
C492 H478 0.960 . S
C492 H479 0.960 . S
C492 C491 1.524 . S
C493 C490 1.403 . S
C493 C494 1.392 . S
C493 C497 1.495 . S
C494 C493 1.392 . S
C494 C495 1.385 . S
C494 C496 1.478 . S
C495 H489 0.930 . S
C495 C491 1.400 . S
C495 C494 1.385 . S
C496 C494 1.478 . S
C496 C498 1.381 . S
C496 C502 1.383 . S
C497 C493 1.495 . S
C497 H503 0.959 . S
C497 H504 0.961 . S
C497 H505 0.960 . S
C498 C496 1.381 . S
C498 C499 1.394 . S
C498 H506 0.930 . S
C499 C498 1.394 . S
C499 C500 1.383 . S
C499 H507 0.929 . S
C500 C499 1.383 . S
C500 C501 1.377 . S
C501 H485 0.930 . S
C501 C500 1.377 . S
C501 C502 1.379 . S
C502 H486 0.931 . S
C502 C496 1.383 . S
C502 C501 1.379 . S
H503 C497 0.959 . S
H504 C497 0.961 . S
H505 C497 0.960 . S
H506 C498 0.930 . S
H507 C499 0.929 . S
H508 C516 0.929 . S
H509 C518 0.930 . S
H510 C520 0.930 . S
H511 C523 0.929 . S
H512 C526 0.930 . S
H513 C528 0.960 . S
H514 C528 0.960 . S
H515 C528 0.960 . S
C516 H508 0.929 . S
C516 C517 1.377 . S
C516 C518 1.384 . S
C517 C516 1.377 . S
C517 C523 1.390 . S
C518 H509 0.930 . S
C518 C516 1.384 . S
C518 C519 1.372 . S
C519 C518 1.372 . S
C519 C520 1.400 . S
C519 C524 1.490 . S
C520 H510 0.930 . S
C520 C519 1.400 . S
C520 C523 1.386 . S
H521 C537 0.930 . S
H522 C538 0.931 . S
C523 H511 0.929 . S
C523 C517 1.390 . S
C523 C520 1.386 . S
C524 C519 1.490 . S
C524 C526 1.395 . S
C524 C527 1.403 . S
H525 C531 0.930 . S
C526 H512 0.930 . S
C526 C524 1.395 . S
C526 C529 1.403 . S
C527 C524 1.403 . S
C527 C528 1.524 . S
C527 C531 1.400 . S
C528 H513 0.960 . S
C528 H514 0.960 . S
C528 H515 0.960 . S
C528 C527 1.524 . S
C529 C526 1.403 . S
C529 C530 1.392 . S
C529 C533 1.495 . S
C530 C529 1.392 . S
C530 C531 1.385 . S
C530 C532 1.478 . S
C531 H525 0.930 . S
C531 C527 1.400 . S
C531 C530 1.385 . S
C532 C530 1.478 . S
C532 C534 1.381 . S
C532 C538 1.383 . S
C533 C529 1.495 . S
C533 H539 0.959 . S
C533 H540 0.961 . S
C533 H541 0.960 . S
C534 C532 1.381 . S
C534 C535 1.394 . S
C534 H542 0.930 . S
C535 C534 1.394 . S
C535 C536 1.383 . S
C535 H543 0.929 . S
C536 C535 1.383 . S
C536 C537 1.377 . S
C537 H521 0.930 . S
C537 C536 1.377 . S
C537 C538 1.379 . S
C538 H522 0.931 . S
C538 C532 1.383 . S
C538 C537 1.379 . S
H539 C533 0.959 . S
H540 C533 0.961 . S
H541 C533 0.960 . S
H542 C534 0.930 . S
H543 C535 0.929 . S
H544 C552 0.929 . S
H545 C554 0.930 . S
H546 C556 0.930 . S
H547 C559 0.929 . S
H548 C562 0.930 . S
H549 C564 0.960 . S
H550 C564 0.960 . S
H551 C564 0.960 . S
C552 H544 0.929 . S
C552 C553 1.400 . S
C552 C554 1.384 . S
C553 C552 1.400 . S
C553 C559 1.367 1_545 S
C554 H545 0.930 . S
C554 C552 1.384 . S
C554 C555 1.372 . S
C555 C554 1.372 . S
C555 C556 1.400 1_545 S
C555 C560 1.490 . S
C556 H546 0.930 . S
C556 C555 1.400 1_565 S
C556 C559 1.386 . S
H557 C573 0.930 . S
H558 C574 0.931 . S
C559 H547 0.929 . S
C559 C553 1.367 1_565 S
C559 C556 1.386 . S
C560 C555 1.490 . S
C560 C562 1.395 1_545 S
C560 C563 1.403 . S
H561 C567 0.930 . S
C562 H548 0.930 . S
C562 C560 1.395 1_565 S
C562 C565 1.403 . S
C563 C560 1.403 . S
C563 C564 1.524 . S
C563 C567 1.400 . S
C564 H549 0.960 . S
C564 H550 0.960 . S
C564 H551 0.960 . S
C564 C563 1.524 . S
C565 C562 1.403 . S
C565 C566 1.392 1_565 S
C565 C569 1.495 . S
C566 C565 1.392 1_545 S
C566 C567 1.385 . S
C566 C568 1.478 . S
C567 H561 0.930 . S
C567 C563 1.400 . S
C567 C566 1.385 . S
C568 C566 1.478 . S
C568 C570 1.381 . S
C568 C574 1.383 1_545 S
C569 C565 1.495 . S
C569 H575 0.959 . S
C569 H576 0.961 . S
C569 H577 0.960 1_565 S
C570 C568 1.381 . S
C570 C571 1.394 . S
C570 H578 0.930 . S
C571 C570 1.394 . S
C571 C572 1.383 . S
C571 H579 0.929 . S
C572 C571 1.383 . S
C572 C573 1.377 1_545 S
C573 H557 0.930 . S
C573 C572 1.377 1_565 S
C573 C574 1.379 . S
C574 H558 0.931 . S
C574 C568 1.383 1_565 S
C574 C573 1.379 . S
H575 C569 0.959 . S
H576 C569 0.961 . S
H577 C569 0.960 1_545 S
H578 C570 0.930 . S
H579 C571 0.929 . S
H580 C588 0.929 1_554 S
H581 C590 0.930 . S
H582 C592 0.930 . S
H583 C595 0.929 . S
H584 C598 0.930 . S
H585 C600 0.960 . S
H586 C600 0.960 . S
H587 C600 0.960 . S
C588 H580 0.929 1_556 S
C588 C589 1.377 . S
C588 C590 1.384 . S
C589 C588 1.377 . S
C589 C595 1.390 . S
C590 H581 0.930 . S
C590 C588 1.384 . S
C590 C591 1.372 . S
C591 C590 1.372 . S
C591 C592 1.400 . S
C591 C596 1.490 . S
C592 H582 0.930 . S
C592 C591 1.400 . S
C592 C595 1.386 . S
H593 C609 0.930 . S
H594 C610 0.931 . S
C595 H583 0.929 . S
C595 C589 1.390 . S
C595 C592 1.386 . S
C596 C591 1.490 . S
C596 C598 1.395 . S
C596 C599 1.403 . S
H597 C603 0.930 . S
C598 H584 0.930 . S
C598 C596 1.395 . S
C598 C601 1.403 . S
C599 C596 1.403 . S
C599 C600 1.524 . S
C599 C603 1.400 . S
C600 H585 0.960 . S
C600 H586 0.960 . S
C600 H587 0.960 . S
C600 C599 1.524 . S
C601 C598 1.403 . S
C601 C602 1.392 . S
C601 C605 1.495 . S
C602 C601 1.392 . S
C602 C603 1.385 . S
C602 C604 1.478 . S
C603 H597 0.930 . S
C603 C599 1.400 . S
C603 C602 1.385 . S
C604 C602 1.478 . S
C604 C606 1.381 . S
C604 C610 1.383 . S
C605 C601 1.495 . S
C605 H611 0.959 . S
C605 H612 0.961 . S
C605 H613 0.960 . S
C606 C604 1.381 . S
C606 C607 1.394 . S
C606 H614 0.930 . S
C607 C606 1.394 . S
C607 C608 1.383 . S
C607 H615 0.929 . S
C608 C607 1.383 . S
C608 C609 1.377 . S
C609 H593 0.930 . S
C609 C608 1.377 . S
C609 C610 1.379 . S
C610 H594 0.931 . S
C610 C604 1.383 . S
C610 C609 1.379 . S
H611 C605 0.959 . S
H612 C605 0.961 . S
H613 C605 0.960 . S
H614 C606 0.930 . S
H615 C607 0.929 . S
H616 C624 0.929 . S
H617 C626 0.930 . S
H618 C628 0.930 . S
H619 C631 0.929 . S
H620 C634 0.930 . S
H621 C636 0.960 . S
H622 C636 0.960 . S
H623 C636 0.960 . S
C624 H616 0.929 . S
C624 C625 1.377 . S
C624 C626 1.384 . S
C625 C624 1.377 . S
C625 C631 1.390 . S
C626 H617 0.930 . S
C626 C624 1.384 . S
C626 C627 1.372 . S
C627 C626 1.372 . S
C627 C628 1.400 . S
C627 C632 1.490 . S
C628 H618 0.930 . S
C628 C627 1.400 . S
C628 C631 1.386 . S
H629 C645 0.930 . S
H630 C646 0.931 . S
C631 H619 0.929 . S
C631 C625 1.390 . S
C631 C628 1.386 . S
C632 C627 1.490 . S
C632 C634 1.395 . S
C632 C635 1.403 . S
H633 C639 0.930 . S
C634 H620 0.930 . S
C634 C632 1.395 . S
C634 C637 1.403 . S
C635 C632 1.403 . S
C635 C636 1.524 . S
C635 C639 1.400 . S
C636 H621 0.960 . S
C636 H622 0.960 . S
C636 H623 0.960 . S
C636 C635 1.524 . S
C637 C634 1.403 . S
C637 C638 1.392 . S
C637 C641 1.495 . S
C638 C637 1.392 . S
C638 C639 1.385 . S
C638 C640 1.478 . S
C639 H633 0.930 . S
C639 C635 1.400 . S
C639 C638 1.385 . S
C640 C638 1.478 . S
C640 C642 1.381 . S
C640 C646 1.383 . S
C641 C637 1.495 . S
C641 H647 0.959 . S
C641 H648 0.961 . S
C641 H649 0.960 . S
C642 C640 1.381 . S
C642 C643 1.394 . S
C642 H650 0.930 . S
C643 C642 1.394 . S
C643 C644 1.383 . S
C643 H651 0.929 . S
C644 C643 1.383 . S
C644 C645 1.377 . S
C645 H629 0.930 . S
C645 C644 1.377 . S
C645 C646 1.379 . S
C646 H630 0.931 . S
C646 C640 1.383 . S
C646 C645 1.379 . S
H647 C641 0.959 . S
H648 C641 0.961 . S
H649 C641 0.960 . S
H650 C642 0.930 . S
H651 C643 0.929 . S
H652 C660 0.929 . S
H653 C662 0.930 . S
H654 C664 0.930 . S
H655 C667 0.929 . S
H656 C670 0.930 . S
H657 C672 0.960 . S
H658 C672 0.960 . S
H659 C672 0.960 . S
C660 H652 0.929 . S
C660 C661 1.377 . S
C660 C662 1.384 . S
C661 C660 1.377 . S
C661 C667 1.390 . S
C662 H653 0.930 . S
C662 C660 1.384 . S
C662 C663 1.372 . S
C663 C662 1.372 . S
C663 C664 1.400 . S
C663 C668 1.490 . S
C664 H654 0.930 . S
C664 C663 1.400 . S
C664 C667 1.386 . S
H665 C681 0.930 . S
H666 C682 0.931 . S
C667 H655 0.929 . S
C667 C661 1.390 . S
C667 C664 1.386 . S
C668 C663 1.490 . S
C668 C670 1.395 . S
C668 C671 1.403 . S
H669 C675 0.930 . S
C670 H656 0.930 . S
C670 C668 1.395 . S
C670 C673 1.403 . S
C671 C668 1.403 . S
C671 C672 1.524 . S
C671 C675 1.400 . S
C672 H657 0.960 . S
C672 H658 0.960 . S
C672 H659 0.960 . S
C672 C671 1.524 . S
C673 C670 1.403 . S
C673 C674 1.392 . S
C673 C677 1.495 . S
C674 C673 1.392 . S
C674 C675 1.385 . S
C674 C676 1.478 . S
C675 H669 0.930 . S
C675 C671 1.400 . S
C675 C674 1.385 . S
C676 C674 1.478 . S
C676 C678 1.381 . S
C676 C682 1.383 . S
C677 C673 1.495 . S
C677 H683 0.959 . S
C677 H684 0.961 . S
C677 H685 0.960 . S
C678 C676 1.381 . S
C678 C679 1.394 . S
C678 H686 0.930 . S
C679 C678 1.394 . S
C679 C680 1.383 . S
C679 H687 0.929 . S
C680 C679 1.383 . S
C680 C681 1.377 . S
C681 H665 0.930 . S
C681 C680 1.377 . S
C681 C682 1.379 . S
C682 H666 0.931 . S
C682 C676 1.383 . S
C682 C681 1.379 . S
H683 C677 0.959 . S
H684 C677 0.961 . S
H685 C677 0.960 . S
H686 C678 0.930 . S
H687 C679 0.929 . S
H688 C696 0.929 . S
H689 C698 0.930 . S
H690 C700 0.930 . S
H691 C703 0.929 . S
H692 C706 0.930 . S
H693 C708 0.960 . S
H694 C708 0.960 . S
H695 C708 0.960 . S
C696 H688 0.929 . S
C696 C697 1.377 . S
C696 C698 1.384 . S
C697 C696 1.377 . S
C697 C703 1.390 . S
C698 H689 0.930 . S
C698 C696 1.384 . S
C698 C699 1.372 . S
C699 C698 1.372 . S
C699 C700 1.400 . S
C699 C704 1.490 . S
C700 H690 0.930 . S
C700 C699 1.400 . S
C700 C703 1.386 . S
H701 C717 0.930 . S
H702 C718 0.931 . S
C703 H691 0.929 . S
C703 C697 1.390 . S
C703 C700 1.386 . S
C704 C699 1.490 . S
C704 C706 1.395 . S
C704 C707 1.403 . S
H705 C711 0.930 . S
C706 H692 0.930 . S
C706 C704 1.395 . S
C706 C709 1.403 . S
C707 C704 1.403 . S
C707 C708 1.524 . S
C707 C711 1.400 . S
C708 H693 0.960 . S
C708 H694 0.960 . S
C708 H695 0.960 . S
C708 C707 1.524 . S
C709 C706 1.403 . S
C709 C710 1.392 . S
C709 C713 1.495 . S
C710 C709 1.392 . S
C710 C711 1.385 . S
C710 C712 1.478 . S
C711 H705 0.930 . S
C711 C707 1.400 . S
C711 C710 1.385 . S
C712 C710 1.478 . S
C712 C714 1.381 . S
C712 C718 1.383 . S
C713 C709 1.495 . S
C713 H719 0.959 . S
C713 H720 0.961 . S
C713 H721 0.960 . S
C714 C712 1.381 . S
C714 C715 1.394 . S
C714 H722 0.930 . S
C715 C714 1.394 . S
C715 C716 1.383 . S
C715 H723 0.929 . S
C716 C715 1.383 . S
C716 C717 1.377 . S
C717 H701 0.930 . S
C717 C716 1.377 . S
C717 C718 1.379 . S
C718 H702 0.931 . S
C718 C712 1.383 . S
C718 C717 1.379 . S
H719 C713 0.959 . S
H720 C713 0.961 . S
H721 C713 0.960 . S
H722 C714 0.930 . S
H723 C715 0.929 . S
H724 C732 0.929 . S
H725 C734 0.930 . S
H726 C736 0.930 . S
H727 C739 0.929 . S
H728 C742 0.930 . S
H729 C744 0.960 . S
H730 C744 0.960 . S
H731 C744 0.960 . S
C732 H724 0.929 . S
C732 C733 1.350 1_565 S
C732 C734 1.384 . S
C733 C732 1.350 1_545 S
C733 C739 1.409 . S
C734 H725 0.930 . S
C734 C732 1.384 . S
C734 C735 1.372 . S
C735 C734 1.372 . S
C735 C736 1.400 1_565 S
C735 C740 1.490 . S
C736 H726 0.930 . S
C736 C735 1.400 1_545 S
C736 C739 1.386 . S
H737 C753 0.930 . S
H738 C754 0.931 . S
C739 H727 0.929 . S
C739 C733 1.409 . S
C739 C736 1.386 . S
C740 C735 1.490 . S
C740 C742 1.395 1_565 S
C740 C743 1.403 . S
H741 C747 0.930 . S
C742 H728 0.930 . S
C742 C740 1.395 1_545 S
C742 C745 1.403 . S
C743 C740 1.403 . S
C743 C744 1.524 . S
C743 C747 1.400 . S
C744 H729 0.960 . S
C744 H730 0.960 . S
C744 H731 0.960 . S
C744 C743 1.524 . S
C745 C742 1.403 . S
C745 C746 1.392 1_545 S
C745 C749 1.495 . S
C746 C745 1.392 1_565 S
C746 C747 1.385 . S
C746 C748 1.478 . S
C747 H741 0.930 . S
C747 C743 1.400 . S
C747 C746 1.385 . S
C748 C746 1.478 . S
C748 C750 1.381 . S
C748 C754 1.383 1_565 S
C749 C745 1.495 . S
C749 H755 0.959 . S
C749 H756 0.961 . S
C749 H757 0.960 . S
C750 C748 1.381 . S
C750 C751 1.394 . S
C750 H758 0.930 . S
C751 C750 1.394 . S
C751 C752 1.383 . S
C751 H759 0.929 . S
C752 C751 1.383 . S
C752 C753 1.377 1_565 S
C753 H737 0.930 . S
C753 C752 1.377 1_545 S
C753 C754 1.379 . S
C754 H738 0.931 . S
C754 C748 1.383 1_545 S
C754 C753 1.379 . S
H755 C749 0.959 . S
H756 C749 0.961 . S
H757 C749 0.960 . S
H758 C750 0.930 . S
H759 C751 0.929 . S
H760 C768 0.929 . S
H761 C770 0.930 . S
H762 C772 0.930 . S
H763 C775 0.929 . S
H764 C778 0.930 . S
H765 C780 0.960 . S
H766 C780 0.960 . S
H767 C780 0.960 . S
C768 H760 0.929 . S
C768 C769 1.377 . S
C768 C770 1.384 . S
C769 C768 1.377 . S
C769 C775 1.390 . S
C770 H761 0.930 . S
C770 C768 1.384 . S
C770 C771 1.372 . S
C771 C770 1.372 . S
C771 C772 1.400 . S
C771 C776 1.490 . S
C772 H762 0.930 . S
C772 C771 1.400 . S
C772 C775 1.386 . S
H773 C789 0.930 . S
H774 C790 0.931 . S
C775 H763 0.929 . S
C775 C769 1.390 . S
C775 C772 1.386 . S
C776 C771 1.490 . S
C776 C778 1.395 . S
C776 C779 1.403 . S
H777 C783 0.930 . S
C778 H764 0.930 . S
C778 C776 1.395 . S
C778 C781 1.403 . S
C779 C776 1.403 . S
C779 C780 1.524 . S
C779 C783 1.400 . S
C780 H765 0.960 . S
C780 H766 0.960 . S
C780 H767 0.960 . S
C780 C779 1.524 . S
C781 C778 1.403 . S
C781 C782 1.392 . S
C781 C785 1.495 . S
C782 C781 1.392 . S
C782 C783 1.385 . S
C782 C784 1.478 . S
C783 H777 0.930 . S
C783 C779 1.400 . S
C783 C782 1.385 . S
C784 C782 1.478 . S
C784 C786 1.381 . S
C784 C790 1.383 . S
C785 C781 1.495 . S
C785 H791 0.959 . S
C785 H792 0.961 . S
C785 H793 0.960 . S
C786 C784 1.381 . S
C786 C787 1.394 . S
C786 H794 0.930 . S
C787 C786 1.394 . S
C787 C788 1.383 . S
C787 H795 0.929 . S
C788 C787 1.383 . S
C788 C789 1.377 . S
C789 H773 0.930 . S
C789 C788 1.377 . S
C789 C790 1.379 . S
C790 H774 0.931 . S
C790 C784 1.383 . S
C790 C789 1.379 . S
H791 C785 0.959 . S
H792 C785 0.961 . S
H793 C785 0.960 . S
H794 C786 0.930 . S
H795 C787 0.929 . S
H796 C804 0.929 . S
H797 C806 0.930 . S
H798 C808 0.930 . S
H799 C811 0.929 . S
H800 C814 0.930 . S
H801 C816 0.960 . S
H802 C816 0.960 . S
H803 C816 0.960 . S
C804 H796 0.929 . S
C804 C805 1.377 . S
C804 C806 1.384 . S
C805 C804 1.377 . S
C805 C811 1.390 . S
C806 H797 0.930 . S
C806 C804 1.384 . S
C806 C807 1.372 . S
C807 C806 1.372 . S
C807 C808 1.400 . S
C807 C812 1.490 . S
C808 H798 0.930 . S
C808 C807 1.400 . S
C808 C811 1.386 . S
H809 C825 0.930 . S
H810 C826 0.931 . S
C811 H799 0.929 . S
C811 C805 1.390 . S
C811 C808 1.386 . S
C812 C807 1.490 . S
C812 C814 1.395 . S
C812 C815 1.403 . S
H813 C819 0.930 . S
C814 H800 0.930 . S
C814 C812 1.395 . S
C814 C817 1.403 . S
C815 C812 1.403 . S
C815 C816 1.524 . S
C815 C819 1.400 . S
C816 H801 0.960 . S
C816 H802 0.960 . S
C816 H803 0.960 . S
C816 C815 1.524 . S
C817 C814 1.403 . S
C817 C818 1.392 . S
C817 C821 1.495 . S
C818 C817 1.392 . S
C818 C819 1.385 . S
C818 C820 1.478 . S
C819 H813 0.930 . S
C819 C815 1.400 . S
C819 C818 1.385 . S
C820 C818 1.478 . S
C820 C822 1.381 . S
C820 C826 1.383 . S
C821 C817 1.495 . S
C821 H827 0.959 . S
C821 H828 0.961 . S
C821 H829 0.960 . S
C822 C820 1.381 . S
C822 C823 1.394 . S
C822 H830 0.930 . S
C823 C822 1.394 . S
C823 C824 1.383 . S
C823 H831 0.929 . S
C824 C823 1.383 . S
C824 C825 1.377 . S
C825 H809 0.930 . S
C825 C824 1.377 . S
C825 C826 1.379 . S
C826 H810 0.931 . S
C826 C820 1.383 . S
C826 C825 1.379 . S
H827 C821 0.959 . S
H828 C821 0.961 . S
H829 C821 0.960 . S
H830 C822 0.930 . S
H831 C823 0.929 . S
H832 C840 0.929 . S
H833 C842 0.930 . S
H834 C844 0.930 . S
H835 C847 0.929 . S
H836 C850 0.930 . S
H837 C852 0.960 . S
H838 C852 0.960 . S
H839 C852 0.960 . S
C840 H832 0.929 . S
C840 C841 1.377 . S
C840 C842 1.384 . S
C841 C840 1.377 . S
C841 C847 1.390 . S
C842 H833 0.930 . S
C842 C840 1.384 . S
C842 C843 1.372 . S
C843 C842 1.372 . S
C843 C844 1.400 . S
C843 C848 1.490 . S
C844 H834 0.930 . S
C844 C843 1.400 . S
C844 C847 1.386 . S
H845 C861 0.941 . S
H846 C862 0.931 . S
C847 H835 0.929 . S
C847 C841 1.390 . S
C847 C844 1.386 . S
C848 C843 1.490 . S
C848 C850 1.395 . S
C848 C851 1.403 . S
H849 C855 0.930 . S
C850 H836 0.930 . S
C850 C848 1.395 . S
C850 C853 1.403 . S
C851 C848 1.403 . S
C851 C852 1.524 . S
C851 C855 1.400 . S
C852 H837 0.960 . S
C852 H838 0.960 . S
C852 H839 0.960 . S
C852 C851 1.524 . S
C853 C850 1.403 . S
C853 C854 1.392 . S
C853 C857 1.495 . S
C854 C853 1.392 . S
C854 C855 1.385 . S
C854 C856 1.478 . S
C855 H849 0.930 . S
C855 C851 1.400 . S
C855 C854 1.385 . S
C856 C854 1.478 . S
C856 C858 1.381 . S
C856 C862 1.383 . S
C857 C853 1.495 . S
C857 H863 0.969 . S
C857 H864 0.961 1_655 S
C857 H865 0.962 . S
C858 C856 1.381 . S
C858 C859 1.394 . S
C858 H866 0.930 . S
C859 C858 1.394 . S
C859 C860 1.383 1_655 S
C859 H867 0.921 1_655 S
C860 C859 1.383 1_455 S
C860 C861 1.377 1_455 S
C861 H845 0.941 . S
C861 C860 1.377 1_655 S
C861 C862 1.379 . S
C862 H846 0.931 . S
C862 C856 1.383 . S
C862 C861 1.379 . S
H863 C857 0.969 . S
H864 C857 0.961 1_455 S
H865 C857 0.962 . S
H866 C858 0.930 . S
H867 C859 0.921 1_455 S
H868 C876 0.929 . S
H869 C878 0.930 . S
H870 C880 0.930 . S
H871 C883 0.929 . S
H872 C886 0.930 . S
H873 C888 0.960 . S
H874 C888 0.960 . S
H875 C888 0.960 . S
C876 H868 0.929 . S
C876 C877 1.430 . S
C876 C878 1.384 . S
C877 C876 1.430 . S
C877 C883 1.327 1_565 S
C878 H869 0.930 . S
C878 C876 1.384 . S
C878 C879 1.344 1_565 S
C879 C878 1.344 1_545 S
C879 C880 1.423 . S
C879 C884 1.495 . S
C880 H870 0.930 . S
C880 C879 1.423 . S
C880 C883 1.386 . S
H881 C897 0.930 . S
H882 C898 0.931 . S
C883 H871 0.929 . S
C883 C877 1.327 1_545 S
C883 C880 1.386 . S
C884 C879 1.495 . S
C884 C886 1.395 1_545 S
C884 C887 1.403 . S
H885 C891 0.930 . S
C886 H872 0.930 . S
C886 C884 1.395 1_565 S
C886 C889 1.403 . S
C887 C884 1.403 . S
C887 C888 1.524 . S
C887 C891 1.400 . S
C888 H873 0.960 . S
C888 H874 0.960 . S
C888 H875 0.960 . S
C888 C887 1.524 . S
C889 C886 1.403 . S
C889 C890 1.392 1_565 S
C889 C893 1.495 . S
C890 C889 1.392 1_545 S
C890 C891 1.385 . S
C890 C892 1.478 . S
C891 H885 0.930 . S
C891 C887 1.400 . S
C891 C890 1.385 . S
C892 C890 1.478 . S
C892 C894 1.381 1_545 S
C892 C898 1.383 . S
C893 C889 1.495 . S
C893 H899 0.959 . S
C893 H900 0.961 . S
C893 H901 0.960 . S
C894 C892 1.381 1_565 S
C894 C895 1.394 . S
C894 H902 0.930 . S
C895 C894 1.394 . S
C895 C896 1.383 1_565 S
C895 H903 0.929 . S
C896 C895 1.383 1_545 S
C896 C897 1.377 . S
C897 H881 0.930 . S
C897 C896 1.377 . S
C897 C898 1.379 . S
C898 H882 0.931 . S
C898 C892 1.383 . S
C898 C897 1.379 . S
H899 C893 0.959 . S
H900 C893 0.961 . S
H901 C893 0.960 . S
H902 C894 0.930 . S
H903 C895 0.929 . S
H904 C912 0.929 . S
H905 C914 0.930 . S
H906 C916 0.930 . S
H907 C919 0.929 . S
H908 C922 0.930 . S
H909 C924 0.960 . S
H910 C924 0.960 . S
H911 C924 0.960 . S
C912 H904 0.929 . S
C912 C913 1.377 . S
C912 C914 1.384 . S
C913 C912 1.377 . S
C913 C919 1.390 . S
C914 H905 0.930 . S
C914 C912 1.384 . S
C914 C915 1.372 . S
C915 C914 1.372 . S
C915 C916 1.400 . S
C915 C920 1.490 . S
C916 H906 0.930 . S
C916 C915 1.400 . S
C916 C919 1.386 . S
H917 C933 0.930 . S
H918 C934 0.931 . S
C919 H907 0.929 . S
C919 C913 1.390 . S
C919 C916 1.386 . S
C920 C915 1.490 . S
C920 C922 1.395 . S
C920 C923 1.403 . S
H921 C927 0.930 . S
C922 H908 0.930 . S
C922 C920 1.395 . S
C922 C925 1.403 . S
C923 C920 1.403 . S
C923 C924 1.524 . S
C923 C927 1.400 . S
C924 H909 0.960 . S
C924 H910 0.960 . S
C924 H911 0.960 . S
C924 C923 1.524 . S
C925 C922 1.403 . S
C925 C926 1.392 . S
C925 C929 1.495 . S
C926 C925 1.392 . S
C926 C927 1.385 . S
C926 C928 1.478 . S
C927 H921 0.930 . S
C927 C923 1.400 . S
C927 C926 1.385 . S
C928 C926 1.478 . S
C928 C930 1.381 . S
C928 C934 1.383 . S
C929 C925 1.495 . S
C929 H935 0.959 . S
C929 H936 0.961 . S
C929 H937 0.960 . S
C930 C928 1.381 . S
C930 C931 1.394 . S
C930 H938 0.930 . S
C931 C930 1.394 . S
C931 C932 1.383 . S
C931 H939 0.929 . S
C932 C931 1.383 . S
C932 C933 1.377 . S
C933 H917 0.930 . S
C933 C932 1.377 . S
C933 C934 1.379 . S
C934 H918 0.931 . S
C934 C928 1.383 . S
C934 C933 1.379 . S
H935 C929 0.959 . S
H936 C929 0.961 . S
H937 C929 0.960 . S
H938 C930 0.930 . S
H939 C931 0.929 . S
H940 C948 0.929 . S
H941 C950 0.930 . S
H942 C952 0.930 . S
H943 C955 0.929 . S
H944 C958 0.930 . S
H945 C960 0.960 . S
H946 C960 0.960 . S
H947 C960 0.960 . S
C948 H940 0.929 . S
C948 C949 1.377 . S
C948 C950 1.384 . S
C949 C948 1.377 . S
C949 C955 1.390 . S
C950 H941 0.930 . S
C950 C948 1.384 . S
C950 C951 1.372 . S
C951 C950 1.372 . S
C951 C952 1.400 . S
C951 C956 1.490 . S
C952 H942 0.930 . S
C952 C951 1.400 . S
C952 C955 1.386 . S
H953 C969 0.930 . S
H954 C970 0.931 . S
C955 H943 0.929 . S
C955 C949 1.390 . S
C955 C952 1.386 . S
C956 C951 1.490 . S
C956 C958 1.395 . S
C956 C959 1.403 . S
H957 C963 0.930 . S
C958 H944 0.930 . S
C958 C956 1.395 . S
C958 C961 1.403 . S
C959 C956 1.403 . S
C959 C960 1.524 . S
C959 C963 1.400 . S
C960 H945 0.960 . S
C960 H946 0.960 . S
C960 H947 0.960 . S
C960 C959 1.524 . S
C961 C958 1.403 . S
C961 C962 1.392 . S
C961 C965 1.495 . S
C962 C961 1.392 . S
C962 C963 1.385 . S
C962 C964 1.478 . S
C963 H957 0.930 . S
C963 C959 1.400 . S
C963 C962 1.385 . S
C964 C962 1.478 . S
C964 C966 1.381 . S
C964 C970 1.383 . S
C965 C961 1.495 . S
C965 H971 0.959 . S
C965 H972 0.961 . S
C965 H973 0.960 . S
C966 C964 1.381 . S
C966 C967 1.394 . S
C966 H974 0.930 . S
C967 C966 1.394 . S
C967 C968 1.383 . S
C967 H975 0.929 . S
C968 C967 1.383 . S
C968 C969 1.377 . S
C969 H953 0.930 . S
C969 C968 1.377 . S
C969 C970 1.379 . S
C970 H954 0.931 . S
C970 C964 1.383 . S
C970 C969 1.379 . S
H971 C965 0.959 . S
H972 C965 0.961 . S
H973 C965 0.960 . S
H974 C966 0.930 . S
H975 C967 0.929 . S
H976 C984 0.929 . S
H977 C986 0.930 . S
H978 C988 0.930 . S
H979 C991 0.929 . S
H980 C994 0.930 . S
H981 C996 0.960 . S
H982 C996 0.960 . S
H983 C996 0.960 . S
C984 H976 0.929 . S
C984 C985 1.377 . S
C984 C986 1.384 . S
C985 C984 1.377 . S
C985 C991 1.390 . S
C986 H977 0.930 . S
C986 C984 1.384 . S
C986 C987 1.372 . S
C987 C986 1.372 . S
C987 C988 1.400 . S
C987 C992 1.490 . S
C988 H978 0.930 . S
C988 C987 1.400 . S
C988 C991 1.386 . S
H989 C1005 0.930 . S
H990 C1006 0.931 . S
C991 H979 0.929 . S
C991 C985 1.390 . S
C991 C988 1.386 . S
C992 C987 1.490 . S
C992 C994 1.395 . S
C992 C995 1.403 . S
H993 C999 0.930 . S
C994 H980 0.930 . S
C994 C992 1.395 . S
C994 C997 1.403 . S
C995 C992 1.403 . S
C995 C996 1.524 . S
C995 C999 1.400 . S
C996 H981 0.960 . S
C996 H982 0.960 . S
C996 H983 0.960 . S
C996 C995 1.524 . S
C997 C994 1.403 . S
C997 C998 1.392 . S
C997 C1001 1.495 . S
C998 C997 1.392 . S
C998 C999 1.385 . S
C998 C1000 1.478 . S
C999 H993 0.930 . S
C999 C995 1.400 . S
C999 C998 1.385 . S
C1000 C998 1.478 . S
C1000 C1002 1.381 . S
C1000 C1006 1.383 . S
C1001 C997 1.495 . S
C1001 H1007 0.959 . S
C1001 H1008 0.961 . S
C1001 H1009 0.960 . S
C1002 C1000 1.381 . S
C1002 C1003 1.394 . S
C1002 H1010 0.930 . S
C1003 C1002 1.394 . S
C1003 C1004 1.383 . S
C1003 H1011 0.929 . S
C1004 C1003 1.383 . S
C1004 C1005 1.377 . S
C1005 H989 0.930 . S
C1005 C1004 1.377 . S
C1005 C1006 1.379 . S
C1006 H990 0.931 . S
C1006 C1000 1.383 . S
C1006 C1005 1.379 . S
H1007 C1001 0.959 . S
H1008 C1001 0.961 . S
H1009 C1001 0.960 . S
H1010 C1002 0.930 . S
H1011 C1003 0.929 . S
H1012 C1020 0.929 . S
H1013 C1022 0.930 . S
H1014 C1024 0.930 . S
H1015 C1027 0.929 . S
H1016 C1030 0.930 . S
H1017 C1032 0.960 . S
H1018 C1032 0.960 . S
H1019 C1032 0.960 . S
C1020 H1012 0.929 . S
C1020 C1021 1.369 1_565 S
C1020 C1022 1.384 . S
C1021 C1020 1.369 1_545 S
C1021 C1027 1.397 . S
C1022 H1013 0.930 . S
C1022 C1020 1.384 . S
C1022 C1023 1.373 1_565 S
C1023 C1022 1.373 1_545 S
C1023 C1024 1.399 . S
C1023 C1028 1.490 . S
C1024 H1014 0.930 . S
C1024 C1023 1.399 . S
C1024 C1027 1.386 . S
H1025 C1041 0.930 . S
H1026 C1042 0.931 . S
C1027 H1015 0.929 . S
C1027 C1021 1.397 . S
C1027 C1024 1.386 . S
C1028 C1023 1.490 . S
C1028 C1030 1.396 1_545 S
C1028 C1031 1.401 . S
H1029 C1035 0.930 . S
C1030 H1016 0.930 . S
C1030 C1028 1.396 1_565 S
C1030 C1033 1.403 . S
C1031 C1028 1.401 . S
C1031 C1032 1.524 . S
C1031 C1035 1.400 . S
C1032 H1017 0.960 . S
C1032 H1018 0.960 . S
C1032 H1019 0.960 . S
C1032 C1031 1.524 . S
C1033 C1030 1.403 . S
C1033 C1034 1.404 . S
C1033 C1037 1.495 . S
C1034 C1033 1.404 . S
C1034 C1035 1.371 1_565 S
C1034 C1036 1.480 1_565 S
C1035 H1029 0.930 . S
C1035 C1031 1.400 . S
C1035 C1034 1.371 1_545 S
C1036 C1034 1.480 1_545 S
C1036 C1038 1.373 1_545 S
C1036 C1042 1.390 . S
C1037 C1033 1.495 . S
C1037 H1043 0.959 . S
C1037 H1044 0.961 . S
C1037 H1045 0.960 . S
C1038 C1036 1.373 1_565 S
C1038 C1039 1.394 . S
C1038 H1046 0.930 . S
C1039 C1038 1.394 . S
C1039 C1040 1.383 1_565 S
C1039 H1047 0.929 . S
C1040 C1039 1.383 1_545 S
C1040 C1041 1.377 . S
C1041 H1025 0.930 . S
C1041 C1040 1.377 . S
C1041 C1042 1.379 . S
C1042 H1026 0.931 . S
C1042 C1036 1.390 . S
C1042 C1041 1.379 . S
H1043 C1037 0.959 . S
H1044 C1037 0.961 . S
H1045 C1037 0.960 . S
H1046 C1038 0.930 . S
H1047 C1039 0.929 . S
H1048 C1056 0.929 . S
H1049 C1058 0.930 . S
H1050 C1060 0.930 . S
H1051 C1063 0.929 . S
H1052 C1066 0.930 . S
H1053 C1068 0.960 . S
H1054 C1068 0.960 . S
H1055 C1068 0.960 . S
C1056 H1048 0.929 . S
C1056 C1057 1.377 . S
C1056 C1058 1.384 . S
C1057 C1056 1.377 . S
C1057 C1063 1.390 . S
C1058 H1049 0.930 . S
C1058 C1056 1.384 . S
C1058 C1059 1.372 . S
C1059 C1058 1.372 . S
C1059 C1060 1.400 . S
C1059 C1064 1.490 . S
C1060 H1050 0.930 . S
C1060 C1059 1.400 . S
C1060 C1063 1.386 . S
H1061 C1077 0.930 . S
H1062 C1078 0.931 . S
C1063 H1051 0.929 . S
C1063 C1057 1.390 . S
C1063 C1060 1.386 . S
C1064 C1059 1.490 . S
C1064 C1066 1.395 . S
C1064 C1067 1.403 . S
H1065 C1071 0.930 . S
C1066 H1052 0.930 . S
C1066 C1064 1.395 . S
C1066 C1069 1.403 . S
C1067 C1064 1.403 . S
C1067 C1068 1.524 . S
C1067 C1071 1.400 . S
C1068 H1053 0.960 . S
C1068 H1054 0.960 . S
C1068 H1055 0.960 . S
C1068 C1067 1.524 . S
C1069 C1066 1.403 . S
C1069 C1070 1.392 . S
C1069 C1073 1.495 . S
C1070 C1069 1.392 . S
C1070 C1071 1.385 . S
C1070 C1072 1.478 . S
C1071 H1065 0.930 . S
C1071 C1067 1.400 . S
C1071 C1070 1.385 . S
C1072 C1070 1.478 . S
C1072 C1074 1.381 . S
C1072 C1078 1.383 . S
C1073 C1069 1.495 . S
C1073 H1079 0.959 . S
C1073 H1080 0.961 . S
C1073 H1081 0.960 . S
C1074 C1072 1.381 . S
C1074 C1075 1.394 . S
C1074 H1082 0.930 . S
C1075 C1074 1.394 . S
C1075 C1076 1.383 . S
C1075 H1083 0.929 . S
C1076 C1075 1.383 . S
C1076 C1077 1.377 . S
C1077 H1061 0.930 . S
C1077 C1076 1.377 . S
C1077 C1078 1.379 . S
C1078 H1062 0.931 . S
C1078 C1072 1.383 . S
C1078 C1077 1.379 . S
H1079 C1073 0.959 . S
H1080 C1073 0.961 . S
H1081 C1073 0.960 . S
H1082 C1074 0.930 . S
H1083 C1075 0.929 . S
H1084 C1092 0.929 . S
H1085 C1094 0.930 . S
H1086 C1096 0.930 . S
H1087 C1099 0.929 . S
H1088 C1102 0.930 . S
H1089 C1104 0.960 . S
H1090 C1104 0.960 . S
H1091 C1104 0.960 . S
C1092 H1084 0.929 . S
C1092 C1093 1.377 . S
C1092 C1094 1.384 . S
C1093 C1092 1.377 . S
C1093 C1099 1.390 . S
C1094 H1085 0.930 . S
C1094 C1092 1.384 . S
C1094 C1095 1.372 . S
C1095 C1094 1.372 . S
C1095 C1096 1.400 . S
C1095 C1100 1.490 . S
C1096 H1086 0.930 . S
C1096 C1095 1.400 . S
C1096 C1099 1.386 . S
H1097 C1113 0.930 . S
H1098 C1114 0.931 . S
C1099 H1087 0.929 . S
C1099 C1093 1.390 . S
C1099 C1096 1.386 . S
C1100 C1095 1.490 . S
C1100 C1102 1.395 . S
C1100 C1103 1.403 . S
H1101 C1107 0.930 . S
C1102 H1088 0.930 . S
C1102 C1100 1.395 . S
C1102 C1105 1.403 . S
C1103 C1100 1.403 . S
C1103 C1104 1.524 . S
C1103 C1107 1.400 . S
C1104 H1089 0.960 . S
C1104 H1090 0.960 . S
C1104 H1091 0.960 . S
C1104 C1103 1.524 . S
C1105 C1102 1.403 . S
C1105 C1106 1.392 . S
C1105 C1109 1.495 . S
C1106 C1105 1.392 . S
C1106 C1107 1.385 . S
C1106 C1108 1.478 . S
C1107 H1101 0.930 . S
C1107 C1103 1.400 . S
C1107 C1106 1.385 . S
C1108 C1106 1.478 . S
C1108 C1110 1.381 . S
C1108 C1114 1.383 . S
C1109 C1105 1.495 . S
C1109 H1115 0.959 . S
C1109 H1116 0.961 . S
C1109 H1117 0.960 . S
C1110 C1108 1.381 . S
C1110 C1111 1.394 . S
C1110 H1118 0.930 . S
C1111 C1110 1.394 . S
C1111 C1112 1.383 . S
C1111 H1119 0.929 . S
C1112 C1111 1.383 . S
C1112 C1113 1.377 . S
C1113 H1097 0.930 . S
C1113 C1112 1.377 . S
C1113 C1114 1.379 . S
C1114 H1098 0.931 . S
C1114 C1108 1.383 . S
C1114 C1113 1.379 . S
H1115 C1109 0.959 . S
H1116 C1109 0.961 . S
H1117 C1109 0.960 . S
H1118 C1110 0.930 . S
H1119 C1111 0.929 . S
H1120 C1128 0.929 . S
H1121 C1130 0.930 . S
H1122 C1132 0.930 . S
H1123 C1135 0.929 . S
H1124 C1138 0.930 . S
H1125 C1140 0.960 . S
H1126 C1140 0.960 . S
H1127 C1140 0.960 . S
C1128 H1120 0.929 . S
C1128 C1129 1.377 . S
C1128 C1130 1.384 . S
C1129 C1128 1.377 . S
C1129 C1135 1.390 . S
C1130 H1121 0.930 . S
C1130 C1128 1.384 . S
C1130 C1131 1.372 . S
C1131 C1130 1.372 . S
C1131 C1132 1.400 . S
C1131 C1136 1.490 . S
C1132 H1122 0.930 . S
C1132 C1131 1.400 . S
C1132 C1135 1.386 . S
H1133 C1149 0.930 . S
H1134 C1150 0.931 . S
C1135 H1123 0.929 . S
C1135 C1129 1.390 . S
C1135 C1132 1.386 . S
C1136 C1131 1.490 . S
C1136 C1138 1.395 . S
C1136 C1139 1.403 . S
H1137 C1143 0.930 . S
C1138 H1124 0.930 . S
C1138 C1136 1.395 . S
C1138 C1141 1.403 . S
C1139 C1136 1.403 . S
C1139 C1140 1.524 . S
C1139 C1143 1.400 . S
C1140 H1125 0.960 . S
C1140 H1126 0.960 . S
C1140 H1127 0.960 . S
C1140 C1139 1.524 . S
C1141 C1138 1.403 . S
C1141 C1142 1.392 . S
C1141 C1145 1.495 . S
C1142 C1141 1.392 . S
C1142 C1143 1.385 . S
C1142 C1144 1.478 . S
C1143 H1137 0.930 . S
C1143 C1139 1.400 . S
C1143 C1142 1.385 . S
C1144 C1142 1.478 . S
C1144 C1146 1.381 . S
C1144 C1150 1.383 . S
C1145 C1141 1.495 . S
C1145 H1151 0.959 . S
C1145 H1152 0.961 . S
C1145 H1153 0.960 . S
C1146 C1144 1.381 . S
C1146 C1147 1.394 . S
C1146 H1154 0.930 . S
C1147 C1146 1.394 . S
C1147 C1148 1.383 . S
C1147 H1155 0.929 . S
C1148 C1147 1.383 . S
C1148 C1149 1.377 . S
C1149 H1133 0.930 . S
C1149 C1148 1.377 . S
C1149 C1150 1.379 . S
C1150 H1134 0.931 . S
C1150 C1144 1.383 . S
C1150 C1149 1.379 . S
H1151 C1145 0.959 . S
H1152 C1145 0.961 . S
H1153 C1145 0.960 . S
H1154 C1146 0.930 . S
H1155 C1147 0.929 . S
H1156 C1164 0.929 . S
H1157 C1166 0.930 . S
H1158 C1168 0.930 . S
H1159 C1171 0.929 . S
H1160 C1174 0.928 . S
H1161 C1176 0.960 . S
H1162 C1176 0.960 . S
H1163 C1176 0.960 1_545 S
C1164 H1156 0.929 . S
C1164 C1165 1.396 . S
C1164 C1166 1.384 . S
C1165 C1164 1.396 . S
C1165 C1171 1.370 1_565 S
C1166 H1157 0.930 . S
C1166 C1164 1.384 . S
C1166 C1167 1.372 . S
C1167 C1166 1.372 . S
C1167 C1168 1.400 1_565 S
C1167 C1172 1.490 . S
C1168 H1158 0.930 . S
C1168 C1167 1.400 1_545 S
C1168 C1171 1.386 . S
H1169 C1185 0.930 . S
H1170 C1186 0.931 . S
C1171 H1159 0.929 . S
C1171 C1165 1.370 1_545 S
C1171 C1168 1.386 . S
C1172 C1167 1.490 . S
C1172 C1174 1.395 . S
C1172 C1175 1.403 . S
H1173 C1179 0.930 . S
C1174 H1160 0.928 . S
C1174 C1172 1.395 . S
C1174 C1177 1.403 . S
C1175 C1172 1.403 . S
C1175 C1176 1.524 . S
C1175 C1179 1.400 . S
C1176 H1161 0.960 . S
C1176 H1162 0.960 . S
C1176 H1163 0.960 1_565 S
C1176 C1175 1.524 . S
C1177 C1174 1.403 . S
C1177 C1178 1.392 . S
C1177 C1181 1.496 . S
C1178 C1177 1.392 . S
C1178 C1179 1.385 . S
C1178 C1180 1.478 . S
C1179 H1173 0.930 . S
C1179 C1175 1.400 . S
C1179 C1178 1.385 . S
C1180 C1178 1.478 . S
C1180 C1182 1.381 . S
C1180 C1186 1.383 1_565 S
C1181 C1177 1.496 . S
C1181 H1187 0.960 1_565 S
C1181 H1188 0.943 1_565 S
C1181 H1189 0.976 . S
C1182 C1180 1.381 . S
C1182 C1183 1.394 . S
C1182 H1190 0.930 . S
C1183 C1182 1.394 . S
C1183 C1184 1.383 . S
C1183 H1191 0.929 . S
C1184 C1183 1.383 . S
C1184 C1185 1.377 1_565 S
C1185 H1169 0.930 . S
C1185 C1184 1.377 1_545 S
C1185 C1186 1.379 . S
C1186 H1170 0.931 . S
C1186 C1180 1.383 1_545 S
C1186 C1185 1.379 . S
H1187 C1181 0.960 1_545 S
H1188 C1181 0.943 1_545 S
H1189 C1181 0.976 . S
H1190 C1182 0.930 . S
H1191 C1183 0.929 . S
H1192 C1200 0.929 . S
H1193 C1202 0.930 . S
H1194 C1204 0.930 . S
H1195 C1207 0.929 . S
H1196 C1210 0.930 . S
H1197 C1212 0.960 . S
H1198 C1212 0.960 . S
H1199 C1212 0.960 . S
C1200 H1192 0.929 . S
C1200 C1201 1.377 . S
C1200 C1202 1.384 . S
C1201 C1200 1.377 . S
C1201 C1207 1.390 . S
C1202 H1193 0.930 . S
C1202 C1200 1.384 . S
C1202 C1203 1.372 . S
C1203 C1202 1.372 . S
C1203 C1204 1.400 . S
C1203 C1208 1.490 . S
C1204 H1194 0.930 . S
C1204 C1203 1.400 . S
C1204 C1207 1.386 . S
H1205 C1221 0.930 . S
H1206 C1222 0.931 . S
C1207 H1195 0.929 . S
C1207 C1201 1.390 . S
C1207 C1204 1.386 . S
C1208 C1203 1.490 . S
C1208 C1210 1.395 . S
C1208 C1211 1.403 . S
H1209 C1215 0.930 . S
C1210 H1196 0.930 . S
C1210 C1208 1.395 . S
C1210 C1213 1.403 . S
C1211 C1208 1.403 . S
C1211 C1212 1.524 . S
C1211 C1215 1.400 . S
C1212 H1197 0.960 . S
C1212 H1198 0.960 . S
C1212 H1199 0.960 . S
C1212 C1211 1.524 . S
C1213 C1210 1.403 . S
C1213 C1214 1.392 . S
C1213 C1217 1.495 . S
C1214 C1213 1.392 . S
C1214 C1215 1.385 . S
C1214 C1216 1.478 . S
C1215 H1209 0.930 . S
C1215 C1211 1.400 . S
C1215 C1214 1.385 . S
C1216 C1214 1.478 . S
C1216 C1218 1.381 . S
C1216 C1222 1.383 . S
C1217 C1213 1.495 . S
C1217 H1223 0.959 . S
C1217 H1224 0.961 . S
C1217 H1225 0.960 . S
C1218 C1216 1.381 . S
C1218 C1219 1.394 . S
C1218 H1226 0.930 . S
C1219 C1218 1.394 . S
C1219 C1220 1.383 . S
C1219 H1227 0.929 . S
C1220 C1219 1.383 . S
C1220 C1221 1.377 . S
C1221 H1205 0.930 . S
C1221 C1220 1.377 . S
C1221 C1222 1.379 . S
C1222 H1206 0.931 . S
C1222 C1216 1.383 . S
C1222 C1221 1.379 . S
H1223 C1217 0.959 . S
H1224 C1217 0.961 . S
H1225 C1217 0.960 . S
H1226 C1218 0.930 . S
H1227 C1219 0.929 . S
H1228 C1236 0.929 . S
H1229 C1238 0.930 . S
H1230 C1240 0.930 . S
H1231 C1243 0.929 . S
H1232 C1246 0.930 . S
H1233 C1248 0.960 . S
H1234 C1248 0.960 . S
H1235 C1248 0.960 . S
C1236 H1228 0.929 . S
C1236 C1237 1.377 . S
C1236 C1238 1.384 . S
C1237 C1236 1.377 . S
C1237 C1243 1.390 . S
C1238 H1229 0.930 . S
C1238 C1236 1.384 . S
C1238 C1239 1.372 . S
C1239 C1238 1.372 . S
C1239 C1240 1.400 . S
C1239 C1244 1.490 . S
C1240 H1230 0.930 . S
C1240 C1239 1.400 . S
C1240 C1243 1.386 . S
H1241 C1257 0.930 . S
H1242 C1258 0.931 . S
C1243 H1231 0.929 . S
C1243 C1237 1.390 . S
C1243 C1240 1.386 . S
C1244 C1239 1.490 . S
C1244 C1246 1.395 . S
C1244 C1247 1.403 . S
H1245 C1251 0.930 . S
C1246 H1232 0.930 . S
C1246 C1244 1.395 . S
C1246 C1249 1.403 . S
C1247 C1244 1.403 . S
C1247 C1248 1.524 . S
C1247 C1251 1.400 . S
C1248 H1233 0.960 . S
C1248 H1234 0.960 . S
C1248 H1235 0.960 . S
C1248 C1247 1.524 . S
C1249 C1246 1.403 . S
C1249 C1250 1.392 . S
C1249 C1253 1.495 . S
C1250 C1249 1.392 . S
C1250 C1251 1.385 . S
C1250 C1252 1.478 . S
C1251 H1245 0.930 . S
C1251 C1247 1.400 . S
C1251 C1250 1.385 . S
C1252 C1250 1.478 . S
C1252 C1254 1.381 . S
C1252 C1258 1.383 . S
C1253 C1249 1.495 . S
C1253 H1259 0.959 . S
C1253 H1260 0.961 . S
C1253 H1261 0.960 . S
C1254 C1252 1.381 . S
C1254 C1255 1.394 . S
C1254 H1262 0.930 . S
C1255 C1254 1.394 . S
C1255 C1256 1.383 . S
C1255 H1263 0.929 . S
C1256 C1255 1.383 . S
C1256 C1257 1.377 . S
C1257 H1241 0.930 . S
C1257 C1256 1.377 . S
C1257 C1258 1.379 . S
C1258 H1242 0.931 . S
C1258 C1252 1.383 . S
C1258 C1257 1.379 . S
H1259 C1253 0.959 . S
H1260 C1253 0.961 . S
H1261 C1253 0.960 . S
H1262 C1254 0.930 . S
H1263 C1255 0.929 . S
C409 C255 1.640 . S
C428 C328 1.686 . S
C464 C358 2.533 . S
C445 C295 2.431 . S
C500 C368 1.805 . S
C481 C175 1.736 . S
C536 C388 1.673 . S
C517 C215 1.594 . S
C572 C329 1.689 . S
C553 C95 1.641 . S
C589 C135 2.427 1_556 S
C608 C359 2.526 . S
C625 C15 1.739 . S
C644 C369 1.780 . S
C661 C55 1.583 . S
C680 C389 1.696 . S
C716 C321 0.580 . S
C697 C221 0.572 . S
C752 C342 0.525 . S
C733 C261 0.594 . S
C788 C361 0.966 . S
C769 C301 0.942 . S
C805 C181 0.503 . S
C824 C381 0.323 . S
C841 C61 0.643 . S
C860 C322 0.578 . S
C896 C341 0.525 . S
C877 C101 0.599 1_565 S
C932 C362 0.921 . S
C913 C141 0.893 . S
C949 C21 0.387 . S
C968 C382 0.362 . S
C985 C202 2.464 . S
C1004 C339 2.553 . S
C1021 C242 1.735 . S
C1040 C349 1.867 . S
C1076 C379 2.789 . S
C1057 C282 2.663 . S
C1112 C399 2.616 . S
C1093 C162 2.440 . S
C1129 C42 2.374 . S
C1148 C338 2.575 . S
C1184 C348 1.864 . S
C1165 C82 1.739 1_565 S
C1220 C378 2.780 . S
C1201 C122 2.558 . S
C1237 C2 2.523 . S
C1256 C398 2.613 . S
