# Generated by pormake.
# Topology nia, (6,6)-cn, num edge types: 1
# Building blocks:
#     Node 0, Type 0, BuildingBlock: BETDAH_clean_sbu_0, # of connection points: 6
#     Node 1, Type 0, BuildingBlock: BETDAH_clean_sbu_0, # of connection points: 6
#     Node 2, Type 1, BuildingBlock: MIDCAF_clean_sbu_0, # of connection points: 6
#     Node 3, Type 1, BuildingBlock: MIDCAF_clean_sbu_0, # of connection points: 6
#     Edge 4, Type (0, 1), BuildingBlock: UVAHIK_clean_linker_0, # of connection points: 2
#     Edge 5, Type (0, 1), BuildingBlock: UVAHIK_clean_linker_0, # of connection points: 2
#     Edge 6, Type (0, 1), BuildingBlock: UVAHIK_clean_linker_0, # of connection points: 2
#     Edge 7, Type (0, 1), BuildingBlock: UVAHIK_clean_linker_0, # of connection points: 2
#     Edge 8, Type (0, 1), BuildingBlock: UVAHIK_clean_linker_0, # of connection points: 2
#     Edge 9, Type (0, 1), BuildingBlock: UVAHIK_clean_linker_0, # of connection points: 2
#     Edge 10, Type (0, 1), BuildingBlock: UVAHIK_clean_linker_0, # of connection points: 2
#     Edge 11, Type (0, 1), BuildingBlock: UVAHIK_clean_linker_0, # of connection points: 2
#     Edge 12, Type (0, 1), BuildingBlock: UVAHIK_clean_linker_0, # of connection points: 2
#     Edge 13, Type (0, 1), BuildingBlock: UVAHIK_clean_linker_0, # of connection points: 2
#     Edge 14, Type (0, 1), BuildingBlock: UVAHIK_clean_linker_0, # of connection points: 2
#     Edge 15, Type (0, 1), BuildingBlock: UVAHIK_clean_linker_0, # of connection points: 2
# Relax obj value: 0.295
# Max RMSD: 0.261
# Mean RMSD: 0.241
data_MOF--net-nia--node1-BETDAH_clean_sbu_0--node2-MIDCAF_clean_sbu_0--edge1-UVAHIK_clean_linker_0
_symmetry_space_group_name_H-M    P1
_symmetry_Int_Tables_number       1
_symmetry_cell_setting            triclinic
loop_
_symmetry_equiv_pos_as_xyz
'x, y, z'
_cell_length_a     32.044895
_cell_length_b     34.773738
_cell_length_c     43.116553
_cell_angle_alpha  76.315377
_cell_angle_beta   99.265106
_cell_angle_gamma 127.14253
loop_
_atom_site_label
_atom_site_type_symbol
_atom_site_fract_x
_atom_site_fract_y
_atom_site_fract_z
_atom_type_partial_charge
Ho0 Ho 0.06844 0.05766 0.02324 0.0
Ho1 Ho 0.99303 0.97431 0.99275 0.0
C2 C 0.98868 0.06422 0.96918 0.0
C3 C 0.13932 0.14204 0.03947 0.0
C4 C 0.1366 0.17366 0.05489 0.0
C5 C 0.18167 0.22032 0.05828 0.0
C6 C 0.18083 0.24776 0.07683 0.0
C7 C 0.13501 0.2286 0.09259 0.0
C8 C 0.08917 0.18274 0.08764 0.0
C9 C 0.08995 0.15555 0.06885 0.0
C10 C 0.97672 0.9932 0.05523 0.0
C11 C 0.07514 0.96824 0.04414 0.0
C12 C 0.9202 0.88828 0.98025 0.0
C13 C 0.92053 0.84981 0.97269 0.0
C14 C 0.87486 0.80187 0.97612 0.0
C15 C 0.87249 0.76638 0.96461 0.0
C16 C 0.91565 0.77879 0.94921 0.0
C17 C 0.9628 0.82594 0.94823 0.0
C18 C 0.96527 0.86132 0.96001 0.0
C19 C 0.08401 0.03855 0.96009 0.0
O20 O 0.03531 0.08911 0.9834 0.0
O21 O 0.95968 0.01611 0.97371 0.0
O22 O 0.12563 0.10046 0.05753 0.0
O23 O 0.11907 0.13688 0.01062 0.0
O24 O 0.02251 0.01708 0.06876 0.0
O25 O 0.98155 0.00668 0.0255 0.0
O26 O 0.02762 0.94316 0.03121 0.0
O27 O 0.10372 0.01648 0.03922 0.0
O28 O 0.9405 0.92814 0.95867 0.0
O29 O 0.93515 0.89707 0.00932 0.0
O30 O 0.03794 0.01338 0.94696 0.0
O31 O 0.08003 0.0259 0.98994 0.0
H32 H 0.21787 0.23485 0.04745 0.0
H33 H 0.21643 0.28353 0.07946 0.0
H34 H 0.05331 0.16679 0.09944 0.0
H35 H 0.05473 0.11947 0.06633 0.0
H36 H 0.84037 0.79245 0.98635 0.0
H37 H 0.83602 0.72991 0.9662 0.0
H38 H 0.99655 0.83643 0.93645 0.0
H39 H 1.00114 0.89827 0.95768 0.0
Ho40 Ho 0.00385 0.0294 0.51505 0.0
Ho41 Ho 0.05546 0.98944 0.49168 0.0
C42 C 0.94637 0.96561 0.46003 0.0
C43 C 0.97925 0.0848 0.52248 0.0
C44 C 0.95649 0.09085 0.54613 0.0
C45 C 0.93128 0.11337 0.53518 0.0
C46 C 0.90592 0.11698 0.55647 0.0
C47 C 0.90554 0.09829 0.58916 0.0
C48 C 0.9319 0.07665 0.60033 0.0
C49 C 0.95697 0.07258 0.57883 0.0
C50 C 0.96743 0.93782 0.55012 0.0
C51 C 0.1045 0.041 0.55227 0.0
C52 C 0.08042 0.94147 0.47173 0.0
C53 C 0.12242 0.94898 0.45519 0.0
C54 C 0.15636 0.93842 0.4726 0.0
C55 C 0.19044 0.93747 0.45681 0.0
C56 C 0.19083 0.94646 0.42324 0.0
C57 C 0.15892 0.95969 0.40591 0.0
C58 C 0.125 0.96085 0.42169 0.0
C59 C 0.09637 0.08566 0.46753 0.0
O60 O 0.9558 0.00246 0.47114 0.0
O61 O 0.97467 0.94873 0.46931 0.0
O62 O 0.02632 0.09567 0.52869 0.0
O63 O 0.94724 0.04485 0.51027 0.0
O64 O 0.95384 0.96452 0.55438 0.0
O65 O 0.99949 0.96213 0.52784 0.0
O66 O 0.09391 0.00456 0.53987 0.0
O67 O 0.08135 0.06288 0.54158 0.0
O68 O 0.05252 0.95539 0.45485 0.0
O69 O 0.09028 0.95036 0.50089 0.0
O70 O 0.12298 0.06772 0.47378 0.0
O71 O 0.04883 0.05082 0.4726 0.0
H72 H 0.93057 0.1276 0.51001 0.0
H73 H 0.8866 0.13452 0.54736 0.0
H74 H 0.93204 0.06197 0.62545 0.0
H75 H 0.97602 0.05472 0.58758 0.0
H76 H 0.15507 0.92888 0.49841 0.0
H77 H 0.21513 0.9279 0.47089 0.0
H78 H 0.15776 0.96631 0.38005 0.0
H79 H 0.09912 0.96882 0.4075 0.0
Zn80 Zn 0.38018 0.72195 0.15023 0.0
Zn81 Zn 0.36328 0.65624 0.30085 0.0
Zn82 Zn 0.37175 0.67948 0.24002 0.0
C83 C 0.47084 0.71443 0.28551 0.0
C84 C 0.3079 0.56731 0.28414 0.0
O85 O 0.33243 0.71695 0.22012 0.0
O86 O 0.34194 0.74332 0.16686 0.0
C87 C 0.47807 0.747 0.19564 0.0
O88 O 0.45312 0.7173 0.25677 0.0
O89 O 0.43968 0.68874 0.30847 0.0
O90 O 0.31638 0.58432 0.30901 0.0
O91 O 0.32627 0.59694 0.25739 0.0
O92 O 0.45402 0.74839 0.16932 0.0
O93 O 0.45422 0.72373 0.22263 0.0
O94 O 0.35381 0.66499 0.19586 0.0
O95 O 0.33245 0.64801 0.14829 0.0
C96 C 0.3282 0.63305 0.17811 0.0
O97 O 0.34203 0.71578 0.25432 0.0
O98 O 0.33503 0.69091 0.30654 0.0
C99 C 0.32486 0.73862 0.1932 0.0
C100 C 0.33033 0.71566 0.28155 0.0
Zn101 Zn 0.67683 0.29901 0.84978 0.0
Zn102 Zn 0.66714 0.34307 0.70489 0.0
Zn103 Zn 0.6761 0.32996 0.76589 0.0
C104 C 0.73275 0.43744 0.7159 0.0
C105 C 0.56627 0.28433 0.72761 0.0
O106 O 0.71438 0.29117 0.78384 0.0
O107 O 0.70405 0.26617 0.83685 0.0
C108 C 0.74287 0.39178 0.82451 0.0
O109 O 0.72305 0.41244 0.74463 0.0
O110 O 0.71311 0.415 0.69257 0.0
O111 O 0.59066 0.30715 0.70181 0.0
O112 O 0.59143 0.28889 0.75459 0.0
O113 O 0.73273 0.36977 0.85313 0.0
O114 O 0.71723 0.368 0.80207 0.0
O115 O 0.59706 0.29104 0.78719 0.0
O116 O 0.6018 0.27513 0.84072 0.0
C117 C 0.57602 0.27424 0.81497 0.0
O118 O 0.70235 0.29247 0.75026 0.0
O119 O 0.69043 0.30479 0.69788 0.0
C120 C 0.72023 0.26871 0.81095 0.0
C121 C 0.7036 0.28592 0.7224 0.0
C122 C 0.14895 0.96905 0.07553 0.0
C123 C 0.09744 0.94238 0.063 0.0
C124 C 0.17011 0.94499 0.09336 0.0
C125 C 0.15049 0.82445 0.11093 0.0
H126 H 0.25135 0.88129 0.17938 0.0
C127 C 0.2401 0.72853 0.18754 0.0
C128 C 0.29484 0.75887 0.19135 0.0
C129 C 0.21251 0.74888 0.17619 0.0
C130 C 0.22337 0.86496 0.16028 0.0
H131 H 0.02776 0.86911 0.05962 0.0
H132 H 0.06412 0.8271 0.09116 0.0
H133 H 0.21008 0.92007 0.15067 0.0
H134 H 0.36351 0.83412 0.18691 0.0
H135 H 0.31557 0.8698 0.16832 0.0
H136 H 0.16386 0.76928 0.12069 0.0
C137 C 0.08871 0.86678 0.08681 0.0
C138 C 0.19978 0.88739 0.14361 0.0
C139 C 0.06762 0.89091 0.06882 0.0
C140 C 0.32117 0.8099 0.18506 0.0
C141 C 0.29361 0.83028 0.1742 0.0
C142 C 0.17378 0.80181 0.12779 0.0
C143 C 0.14036 0.89343 0.0994 0.0
C144 C 0.16347 0.86791 0.11834 0.0
C145 C 0.23908 0.8001 0.16854 0.0
C146 C 0.21106 0.82206 0.15245 0.0
H147 H 0.17326 0.00873 0.07146 0.0
H148 H 0.21028 0.96709 0.10196 0.0
H149 H 0.12344 0.80853 0.09142 0.0
H150 H 0.21901 0.6891 0.19135 0.0
H151 H 0.17053 0.72449 0.1724 0.0
C152 C 0.17408 0.10689 0.58262 0.0
C153 C 0.14279 0.05757 0.57909 0.0
C154 C 0.21085 0.1228 0.60775 0.0
C155 C 0.28346 0.0847 0.66706 0.0
H156 H 0.33595 0.20555 0.69425 0.0
C157 C 0.49399 0.21143 0.70603 0.0
C158 C 0.51001 0.24558 0.72531 0.0
C159 C 0.44139 0.17874 0.69844 0.0
C160 C 0.3211 0.17106 0.6877 0.0
H161 H 0.12343 0.98568 0.59977 0.0
H162 H 0.18533 0.01253 0.64465 0.0
H163 H 0.25666 0.16728 0.66135 0.0
H164 H 0.48417 0.27137 0.75325 0.0
H165 H 0.39063 0.21289 0.7405 0.0
H166 H 0.34689 0.08765 0.69423 0.0
C167 C 0.18353 0.03971 0.62737 0.0
C168 C 0.27606 0.14955 0.66811 0.0
C169 C 0.14779 0.02411 0.60168 0.0
C170 C 0.47234 0.24483 0.73858 0.0
C171 C 0.41904 0.21176 0.73094 0.0
C172 C 0.3276 0.10549 0.68726 0.0
C173 C 0.21623 0.0895 0.63059 0.0
C174 C 0.25809 0.10738 0.65616 0.0
C175 C 0.40313 0.17924 0.70995 0.0
C176 C 0.34875 0.15042 0.69638 0.0
H177 H 0.17114 0.13352 0.56542 0.0
H178 H 0.23597 0.16158 0.60861 0.0
H179 H 0.27138 0.05234 0.65864 0.0
H180 H 0.52261 0.21146 0.69557 0.0
H181 H 0.43138 0.15528 0.68177 0.0
C182 C 0.17979 0.2789 0.13596 0.0
C183 C 0.13603 0.25503 0.11554 0.0
C184 C 0.18188 0.30483 0.15708 0.0
C185 C 0.13211 0.373 0.16308 0.0
H186 H 0.22384 0.40116 0.23821 0.0
C187 C 0.24076 0.55872 0.19483 0.0
C188 C 0.2939 0.58118 0.19115 0.0
C189 C 0.20603 0.50775 0.20187 0.0
C190 C 0.19715 0.393 0.21772 0.0
H191 H 0.05914 0.23819 0.10222 0.0
H192 H 0.06241 0.28294 0.13959 0.0
H193 H 0.18742 0.32649 0.21779 0.0
H194 H 0.35431 0.57044 0.1945 0.0
H195 H 0.29385 0.48125 0.20635 0.0
H196 H 0.14464 0.44096 0.16162 0.0
C197 C 0.0954 0.28194 0.13898 0.0
C198 C 0.17662 0.35054 0.20585 0.0
C199 C 0.09344 0.25615 0.11764 0.0
C200 C 0.31312 0.55317 0.19715 0.0
C201 C 0.27856 0.5023 0.20433 0.0
C202 C 0.15232 0.41519 0.17506 0.0
C203 C 0.1401 0.30735 0.15857 0.0
C204 C 0.14697 0.34197 0.17707 0.0
C205 C 0.22434 0.47906 0.20505 0.0
C206 C 0.18798 0.42724 0.2011 0.0
H207 H 0.21283 0.27792 0.13552 0.0
H208 H 0.21742 0.32466 0.17125 0.0
H209 H 0.1094 0.36772 0.14095 0.0
H210 H 0.2258 0.58042 0.19045 0.0
H211 H 0.16452 0.49071 0.20249 0.0
C212 C 0.9027 0.12315 0.63836 0.0
C213 C 0.87744 0.10187 0.61106 0.0
C214 C 0.8787 0.13365 0.65597 0.0
C215 C 0.78303 0.16159 0.64223 0.0
H216 H 0.79657 0.15909 0.73361 0.0
C217 C 0.68472 0.21849 0.69911 0.0
C218 C 0.71738 0.25424 0.71831 0.0
C219 C 0.70012 0.19237 0.69106 0.0
C220 C 0.79269 0.16002 0.70807 0.0
H221 H 0.80583 0.07073 0.58234 0.0
H222 H 0.76348 0.08798 0.61332 0.0
H223 H 0.82994 0.1248 0.7103 0.0
H224 H 0.79131 0.29122 0.74409 0.0
H225 H 0.81845 0.24461 0.73057 0.0
H226 H 0.7465 0.1971 0.63972 0.0
C227 C 0.80236 0.09806 0.62066 0.0
C228 C 0.81174 0.14048 0.69473 0.0
C229 C 0.82645 0.08801 0.60299 0.0
C230 C 0.76487 0.26239 0.73035 0.0
C231 C 0.78044 0.2361 0.72232 0.0
C232 C 0.76388 0.18073 0.6555 0.0
C233 C 0.82897 0.12269 0.64662 0.0
C234 C 0.80703 0.14105 0.66162 0.0
C235 C 0.74881 0.20192 0.70176 0.0
C236 C 0.76843 0.18015 0.68851 0.0
H237 H 0.9421 0.13422 0.64499 0.0
H238 H 0.90031 0.15281 0.67575 0.0
H239 H 0.78015 0.16404 0.61656 0.0
H240 H 0.64786 0.21176 0.68956 0.0
H241 H 0.67471 0.16581 0.67552 0.0
C242 C 0.92663 0.9585 0.10568 0.0
C243 C 0.92674 0.96577 0.0722 0.0
C244 C 0.87988 0.93406 0.12182 0.0
C245 C 0.74433 0.89978 0.10853 0.0
H246 H 0.71928 0.81531 0.19097 0.0
C247 C 0.56465 0.82415 0.17898 0.0
C248 C 0.53557 0.7746 0.1936 0.0
C249 C 0.61506 0.8482 0.16809 0.0
C250 C 0.72544 0.83859 0.16791 0.0
H251 H 0.87755 0.95215 0.0294 0.0
H252 H 0.79595 0.90907 0.0574 0.0
H253 H 0.79969 0.85333 0.16299 0.0
H254 H 0.53739 0.71182 0.20952 0.0
H255 H 0.6257 0.75362 0.19024 0.0
H256 H 0.66979 0.88417 0.11279 0.0
C257 C 0.83207 0.92295 0.07132 0.0
C258 C 0.77195 0.86087 0.15195 0.0
C259 C 0.87886 0.94739 0.05521 0.0
C260 C 0.5593 0.7503 0.19886 0.0
C261 C 0.60986 0.77431 0.18761 0.0
C262 C 0.69802 0.87758 0.12442 0.0
C263 C 0.83187 0.91624 0.10489 0.0
C264 C 0.78211 0.89186 0.12199 0.0
C265 C 0.63765 0.82311 0.17093 0.0
C266 C 0.68784 0.84684 0.15446 0.0
H267 H 0.96289 0.97223 0.11947 0.0
H268 H 0.88167 0.9302 0.14757 0.0
H269 H 0.75069 0.92374 0.08576 0.0
H270 H 0.54717 0.84369 0.17445 0.0
H271 H 0.63553 0.8861 0.15629 0.0
C272 C 0.91458 0.86887 0.59461 0.0
C273 C 0.94817 0.88823 0.5691 0.0
C274 C 0.89495 0.82222 0.61281 0.0
C275 C 0.91448 0.72263 0.63148 0.0
H276 H 0.77468 0.64407 0.66474 0.0
C277 C 0.80417 0.51485 0.68356 0.0
C278 C 0.76751 0.49239 0.70781 0.0
C279 C 0.82946 0.56443 0.66963 0.0
C280 C 0.81413 0.66557 0.65618 0.0
H281 H 0.98758 0.87333 0.54278 0.0
H282 H 0.95259 0.79128 0.57408 0.0
H283 H 0.81089 0.72571 0.63389 0.0
H284 H 0.72862 0.5055 0.73604 0.0
H285 H 0.77433 0.59281 0.71273 0.0
H286 H 0.91738 0.66216 0.65347 0.0
C287 C 0.94196 0.81256 0.5805 0.0
C288 C 0.83512 0.71283 0.63828 0.0
C289 C 0.96189 0.85961 0.56231 0.0
C290 C 0.75792 0.52171 0.71833 0.0
C291 C 0.78339 0.5717 0.70432 0.0
C292 C 0.89344 0.67533 0.64933 0.0
C293 C 0.9079 0.7929 0.60605 0.0
C294 C 0.88564 0.74225 0.62545 0.0
C295 C 0.81886 0.59368 0.67922 0.0
C296 C 0.8427 0.64571 0.66186 0.0
H297 H 0.9034 0.88998 0.60066 0.0
H298 H 0.86995 0.8095 0.63249 0.0
H299 H 0.95381 0.744 0.62276 0.0
H300 H 0.81169 0.49326 0.67427 0.0
H301 H 0.85552 0.57904 0.65016 0.0
C302 C 0.21848 0.89469 0.41814 0.0
C303 C 0.21952 0.93654 0.40638 0.0
C304 C 0.24 0.88165 0.40083 0.0
C305 C 0.2679 0.89172 0.31924 0.0
H306 H 0.33301 0.8288 0.36345 0.0
C307 C 0.33802 0.79398 0.2685 0.0
C308 C 0.31348 0.74555 0.28502 0.0
C309 C 0.33073 0.82554 0.27791 0.0
C310 C 0.31536 0.84675 0.35073 0.0
H311 H 0.2459 0.99859 0.36766 0.0
H312 H 0.28342 0.97541 0.33715 0.0
H313 H 0.31891 0.87261 0.39207 0.0
H314 H 0.25906 0.69086 0.32231 0.0
H315 H 0.24655 0.74565 0.33863 0.0
H316 H 0.26343 0.86433 0.27804 0.0
C317 C 0.26549 0.95262 0.35975 0.0
C318 C 0.30709 0.87162 0.3671 0.0
C319 C 0.24403 0.96585 0.37721 0.0
C320 C 0.27868 0.72813 0.30932 0.0
C321 C 0.27163 0.75943 0.31872 0.0
C322 C 0.27663 0.86701 0.30271 0.0
C323 C 0.26312 0.91 0.37123 0.0
C324 C 0.28131 0.89266 0.35196 0.0
C325 C 0.29918 0.80883 0.30402 0.0
C326 C 0.29864 0.84282 0.31875 0.0
H327 H 0.19888 0.87059 0.44009 0.0
H328 H 0.23646 0.84802 0.41008 0.0
H329 H 0.2478 0.90743 0.30693 0.0
H330 H 0.36576 0.80841 0.25009 0.0
H331 H 0.3523 0.86357 0.26625 0.0
C332 C 0.1819 0.08479 0.95923 0.0
C333 C 0.13344 0.06501 0.94274 0.0
C334 C 0.2282 0.10872 0.94269 0.0
C335 C 0.27698 0.11935 0.8662 0.0
H336 H 0.40514 0.23597 0.89135 0.0
C337 C 0.50588 0.28123 0.8234 0.0
C338 C 0.52021 0.25228 0.81827 0.0
C339 C 0.45645 0.25935 0.83521 0.0
C340 C 0.36962 0.2037 0.88377 0.0
H341 H 0.09569 0.05523 0.89594 0.0
H342 H 0.17619 0.09701 0.86711 0.0
H343 H 0.3245 0.19659 0.91926 0.0
H344 H 0.49422 0.17799 0.82103 0.0
H345 H 0.40749 0.13952 0.8411 0.0
H346 H 0.32228 0.1265 0.83074 0.0
C347 C 0.17855 0.09365 0.89285 0.0
C348 C 0.32341 0.18073 0.90008 0.0
C349 C 0.13237 0.06992 0.90937 0.0
C350 C 0.48351 0.20109 0.82395 0.0
C351 C 0.43396 0.17914 0.83562 0.0
C352 C 0.32331 0.14212 0.85006 0.0
C353 C 0.22716 0.1133 0.90925 0.0
C354 C 0.27641 0.13815 0.89159 0.0
C355 C 0.42034 0.20796 0.84234 0.0
C356 C 0.37032 0.1846 0.85863 0.0
H357 H 0.18403 0.08148 0.98496 0.0
H358 H 0.26473 0.12286 0.9562 0.0
H359 H 0.24174 0.08641 0.85914 0.0
H360 H 0.53394 0.32076 0.81988 0.0
H361 H 0.4471 0.2827 0.83969 0.0
C362 C 0.08398 0.15027 0.43734 0.0
C363 C 0.11604 0.13429 0.44688 0.0
C364 C 0.10278 0.19536 0.41672 0.0
C365 C 0.22809 0.31337 0.38255 0.0
H366 H 0.1329 0.32951 0.32338 0.0
C367 C 0.30616 0.49279 0.29045 0.0
C368 C 0.27881 0.51323 0.28826 0.0
C369 C 0.28411 0.44403 0.3058 0.0
C370 C 0.16011 0.32579 0.33981 0.0
H371 H 0.19297 0.15333 0.44205 0.0
H372 H 0.22505 0.23033 0.40576 0.0
H373 H 0.09962 0.2513 0.35897 0.0
H374 H 0.20612 0.4978 0.29938 0.0
H375 H 0.16705 0.41285 0.32509 0.0
H376 H 0.28857 0.38777 0.3632 0.0
C377 C 0.18585 0.20921 0.41461 0.0
C378 C 0.14089 0.28077 0.36051 0.0
C379 C 0.16726 0.16456 0.4354 0.0
C380 C 0.22764 0.48278 0.29989 0.0
C381 C 0.20539 0.43401 0.31492 0.0
C382 C 0.24732 0.35813 0.36166 0.0
C383 C 0.15407 0.2256 0.40483 0.0
C384 C 0.17448 0.27375 0.38241 0.0
C385 C 0.23408 0.41444 0.31929 0.0
C386 C 0.21366 0.36524 0.34004 0.0
H387 H 0.04432 0.12789 0.44577 0.0
H388 H 0.0771 0.20661 0.41041 0.0
H389 H 0.25545 0.31044 0.39932 0.0
H390 H 0.34614 0.51557 0.28253 0.0
H391 H 0.30718 0.43016 0.30822 0.0
C392 C 0.93211 0.06881 0.92335 0.0
C393 C 0.9674 0.08975 0.94861 0.0
C394 C 0.90998 0.09131 0.90445 0.0
C395 C 0.86654 0.16453 0.90812 0.0
H396 H 0.86896 0.1931 0.81546 0.0
C397 C 0.72371 0.19767 0.83052 0.0
C398 C 0.7481 0.24608 0.81403 0.0
C399 C 0.75298 0.17959 0.84313 0.0
C400 C 0.86811 0.18534 0.8413 0.0
H401 H 0.00707 0.15067 0.97391 0.0
H402 H 0.96652 0.18907 0.94159 0.0
H403 H 0.91669 0.16067 0.84593 0.0
H404 H 0.8225 0.3134 0.79761 0.0
H405 H 0.87359 0.28067 0.81821 0.0
H406 H 0.81628 0.18716 0.90355 0.0
C407 C 0.95694 0.15569 0.93611 0.0
C408 C 0.89524 0.16675 0.8587 0.0
C409 C 0.98025 0.13385 0.95451 0.0
C410 C 0.80227 0.27531 0.80899 0.0
C411 C 0.83157 0.25682 0.82114 0.0
C412 C 0.83846 0.18191 0.89075 0.0
C413 C 0.92153 0.13459 0.91091 0.0
C414 C 0.89472 0.15619 0.8923 0.0
C415 C 0.80737 0.20935 0.83931 0.0
C416 C 0.83883 0.19237 0.8572 0.0
H417 H 0.92156 0.0349 0.91816 0.0
H418 H 0.8826 0.07408 0.88534 0.0
H419 H 0.86509 0.15635 0.93394 0.0
H420 H 0.68234 0.17479 0.83551 0.0
H421 H 0.73342 0.14294 0.8571 0.0
C422 C 0.90279 0.91618 0.41611 0.0
C423 C 0.90385 0.94361 0.43588 0.0
C424 C 0.86295 0.89601 0.39299 0.0
C425 C 0.7541 0.90012 0.35031 0.0
H426 H 0.69595 0.76803 0.34104 0.0
C427 C 0.54399 0.72124 0.31984 0.0
C428 C 0.52737 0.74092 0.29289 0.0
C429 C 0.59596 0.74829 0.33043 0.0
C430 C 0.7119 0.80504 0.34321 0.0
H431 H 0.864 0.97141 0.44695 0.0
H432 H 0.79344 0.93468 0.40764 0.0
H433 H 0.77427 0.81159 0.37404 0.0
H434 H 0.55221 0.80379 0.25519 0.0
H435 H 0.64418 0.85156 0.27366 0.0
H436 H 0.68934 0.89196 0.32111 0.0
C437 C 0.82414 0.92989 0.40918 0.0
C438 C 0.75721 0.8303 0.36193 0.0
C439 C 0.86438 0.95061 0.43198 0.0
C440 C 0.56428 0.78756 0.27578 0.0
C441 C 0.61664 0.81502 0.28657 0.0
C442 C 0.70845 0.87464 0.33175 0.0
C443 C 0.82276 0.90216 0.38942 0.0
C444 C 0.77814 0.8777 0.36645 0.0
C445 C 0.63273 0.79592 0.31441 0.0
C446 C 0.68601 0.82626 0.32881 0.0
H447 H 0.93308 0.91069 0.41824 0.0
H448 H 0.86375 0.87566 0.37787 0.0
H449 H 0.76975 0.93697 0.35265 0.0
H450 H 0.51631 0.68531 0.33346 0.0
H451 H 0.60666 0.73267 0.35219 0.0
C452 C 0.94716 0.73763 0.93007 0.0
C453 C 0.90882 0.74528 0.93011 0.0
C454 C 0.94048 0.70731 0.91052 0.0
C455 C 0.83481 0.60546 0.87187 0.0
H456 H 0.94251 0.63297 0.82104 0.0
C457 C 0.76963 0.47393 0.79862 0.0
C458 C 0.78299 0.44397 0.81733 0.0
C459 C 0.8024 0.52397 0.79872 0.0
C460 C 0.91227 0.62562 0.83484 0.0
H461 H 0.83523 0.72977 0.90862 0.0
H462 H 0.82365 0.67729 0.8748 0.0
H463 H 0.96333 0.69304 0.85304 0.0
H464 H 0.84269 0.44143 0.84716 0.0
H465 H 0.89948 0.52927 0.84841 0.0
H466 H 0.78392 0.53836 0.85431 0.0
C467 C 0.85813 0.69348 0.89033 0.0
C468 C 0.92413 0.65931 0.85335 0.0
C469 C 0.86457 0.72325 0.90985 0.0
C470 C 0.83197 0.46455 0.83287 0.0
C471 C 0.86478 0.5147 0.83303 0.0
C472 C 0.82295 0.57254 0.85327 0.0
C473 C 0.89553 0.68463 0.89076 0.0
C474 C 0.8852 0.64945 0.87182 0.0
C475 C 0.84757 0.54355 0.81844 0.0
C476 C 0.86132 0.58252 0.83445 0.0
H477 H 0.98183 0.75459 0.94535 0.0
H478 H 0.96969 0.70073 0.91137 0.0
H479 H 0.8045 0.5962 0.8866 0.0
H480 H 0.73129 0.45811 0.78718 0.0
H481 H 0.78839 0.54575 0.78762 0.0
loop_
_geom_bond_atom_site_label_1
_geom_bond_atom_site_label_2
_geom_bond_distance
_geom_bond_site_symmetry_2
_ccdc_geom_bond_type
Ho0 C3 2.811 . S
Ho0 O20 2.322 . S
Ho0 O22 2.378 . S
Ho0 O23 2.524 . S
Ho0 O24 2.381 1_445 S
Ho0 O25 2.669 1_445 S
Ho0 O27 2.346 1_545 S
Ho0 O31 2.305 1_554 S
Ho1 C12 2.811 . S
Ho1 O21 2.346 1_565 S
Ho1 O25 2.305 1_556 S
Ho1 O26 2.322 1_656 S
Ho1 O28 2.378 . S
Ho1 O29 2.524 . S
Ho1 O30 2.381 1_665 S
Ho1 O31 2.669 1_665 S
C2 O20 1.259 1_656 S
C2 O21 1.268 . S
C3 Ho0 2.811 . S
C3 C4 1.488 . S
C3 O22 1.215 . S
C3 O23 1.289 . S
C4 C3 1.488 . S
C4 C5 1.348 . S
C4 C9 1.413 . S
C5 C4 1.348 . S
C5 C6 1.442 . S
C5 H32 0.930 . S
C6 C5 1.442 . S
C6 C7 1.381 . S
C6 H33 0.931 . S
C7 C6 1.381 . S
C7 C8 1.321 . S
C8 C7 1.321 . S
C8 C9 1.403 . S
C8 H34 0.934 . S
C9 C4 1.413 . S
C9 C8 1.403 . S
C9 H35 0.930 . S
C10 O24 1.275 . S
C10 O25 1.256 . S
C11 O26 1.259 . S
C11 O27 1.268 . S
C12 Ho1 2.811 . S
C12 C13 1.488 . S
C12 O28 1.215 . S
C12 O29 1.289 . S
C13 C12 1.488 . S
C13 C14 1.348 . S
C13 C18 1.413 . S
C14 C13 1.348 . S
C14 C15 1.442 . S
C14 H36 0.930 . S
C15 C14 1.442 . S
C15 C16 1.381 . S
C15 H37 0.931 . S
C16 C15 1.381 . S
C16 C17 1.321 . S
C17 C16 1.321 . S
C17 C18 1.403 . S
C17 H38 0.934 . S
C18 C13 1.413 . S
C18 C17 1.403 . S
C18 H39 0.930 . S
C19 O30 1.275 . S
C19 O31 1.256 . S
O20 Ho0 2.322 . S
O20 C2 1.259 1_454 S
O21 Ho1 2.346 1_545 S
O21 C2 1.268 . S
O22 Ho0 2.378 . S
O22 C3 1.215 . S
O23 Ho0 2.524 . S
O23 C3 1.289 . S
O24 Ho0 2.381 1_665 S
O24 C10 1.275 . S
O25 Ho0 2.669 1_665 S
O25 Ho1 2.305 1_554 S
O25 C10 1.256 . S
O26 Ho1 2.322 1_454 S
O26 C11 1.259 . S
O27 Ho0 2.346 1_565 S
O27 C11 1.268 . S
O28 Ho1 2.378 . S
O28 C12 1.215 . S
O29 Ho1 2.524 . S
O29 C12 1.289 . S
O30 Ho1 2.381 1_445 S
O30 C19 1.275 . S
O31 Ho0 2.305 1_556 S
O31 Ho1 2.669 1_445 S
O31 C19 1.256 . S
H32 C5 0.930 . S
H33 C6 0.931 . S
H34 C8 0.934 . S
H35 C9 0.930 . S
H36 C14 0.930 . S
H37 C15 0.931 . S
H38 C17 0.934 . S
H39 C18 0.930 . S
Ho40 C43 2.811 1_455 S
Ho40 O60 2.322 1_445 S
Ho40 O62 2.378 1_455 S
Ho40 O63 2.524 1_455 S
Ho40 O64 2.381 1_445 S
Ho40 O65 2.669 1_545 S
Ho40 O67 2.346 . S
Ho40 O71 2.305 . S
Ho41 C52 2.811 . S
Ho41 O61 2.346 1_455 S
Ho41 O65 2.305 . S
Ho41 O66 2.322 1_565 S
Ho41 O68 2.378 1_565 S
Ho41 O69 2.524 . S
Ho41 O70 2.381 1_565 S
Ho41 O71 2.669 1_565 S
C42 O60 1.259 . S
C42 O61 1.268 . S
C43 Ho40 2.811 1_655 S
C43 C44 1.488 . S
C43 O62 1.215 . S
C43 O63 1.289 . S
C44 C43 1.488 . S
C44 C45 1.348 . S
C44 C49 1.413 . S
C45 C44 1.348 . S
C45 C46 1.442 . S
C45 H72 0.930 . S
C46 C45 1.442 . S
C46 C47 1.381 . S
C46 H73 0.931 . S
C47 C46 1.381 . S
C47 C48 1.321 . S
C48 C47 1.321 . S
C48 C49 1.403 . S
C48 H74 0.934 . S
C49 C44 1.413 . S
C49 C48 1.403 . S
C49 H75 0.930 . S
C50 O64 1.275 . S
C50 O65 1.256 1_655 S
C51 O66 1.259 . S
C51 O67 1.268 . S
C52 Ho41 2.811 . S
C52 C53 1.488 . S
C52 O68 1.215 1_565 S
C52 O69 1.289 . S
C53 C52 1.488 . S
C53 C54 1.348 . S
C53 C58 1.413 . S
C54 C53 1.348 . S
C54 C55 1.442 . S
C54 H76 0.930 . S
C55 C54 1.442 . S
C55 C56 1.381 . S
C55 H77 0.931 . S
C56 C55 1.381 . S
C56 C57 1.321 . S
C57 C56 1.321 . S
C57 C58 1.403 . S
C57 H78 0.934 . S
C58 C53 1.413 . S
C58 C57 1.403 . S
C58 H79 0.930 1_565 S
C59 O70 1.275 . S
C59 O71 1.256 . S
O60 Ho40 2.322 1_665 S
O60 C42 1.259 . S
O61 Ho41 2.346 1_655 S
O61 C42 1.268 . S
O62 Ho40 2.378 1_655 S
O62 C43 1.215 . S
O63 Ho40 2.524 1_655 S
O63 C43 1.289 . S
O64 Ho40 2.381 1_665 S
O64 C50 1.275 . S
O65 Ho40 2.669 1_565 S
O65 Ho41 2.305 . S
O65 C50 1.256 1_455 S
O66 Ho41 2.322 1_545 S
O66 C51 1.259 . S
O67 Ho40 2.346 . S
O67 C51 1.268 . S
O68 Ho41 2.378 1_545 S
O68 C52 1.215 1_545 S
O69 Ho41 2.524 . S
O69 C52 1.289 . S
O70 Ho41 2.381 1_545 S
O70 C59 1.275 . S
O71 Ho40 2.305 . S
O71 Ho41 2.669 1_545 S
O71 C59 1.256 . S
H72 C45 0.930 . S
H73 C46 0.931 . S
H74 C48 0.934 . S
H75 C49 0.930 . S
H76 C54 0.930 . S
H77 C55 0.931 . S
H78 C57 0.934 . S
H79 C58 0.930 1_545 S
Zn80 O86 1.920 . S
Zn80 O92 1.898 . S
Zn80 O95 1.905 . S
Zn81 O89 1.905 . S
Zn81 O90 1.898 . S
Zn81 O98 1.920 . S
Zn82 O85 2.080 . S
Zn82 O88 2.114 . S
Zn82 O91 2.120 . S
Zn82 O93 2.120 . S
Zn82 O94 2.114 . S
Zn82 O97 2.080 . S
C83 O88 1.166 . S
C83 O89 1.182 . S
C84 O90 1.167 . S
C84 O91 1.299 . S
O85 Zn82 2.080 . S
O85 C99 1.305 . S
O86 Zn80 1.920 . S
O86 C99 1.234 . S
C87 O92 1.167 . S
C87 O93 1.299 . S
O88 Zn82 2.114 . S
O88 C83 1.166 . S
O89 Zn81 1.905 . S
O89 C83 1.182 . S
O90 Zn81 1.898 . S
O90 C84 1.167 . S
O91 Zn82 2.120 . S
O91 C84 1.299 . S
O92 Zn80 1.898 . S
O92 C87 1.167 . S
O93 Zn82 2.120 . S
O93 C87 1.299 . S
O94 Zn82 2.114 . S
O94 C96 1.166 . S
O95 Zn80 1.905 . S
O95 C96 1.182 . S
C96 O94 1.166 . S
C96 O95 1.182 . S
O97 Zn82 2.080 . S
O97 C100 1.305 . S
O98 Zn81 1.920 . S
O98 C100 1.234 . S
C99 O85 1.305 . S
C99 O86 1.234 . S
C100 O97 1.305 . S
C100 O98 1.234 . S
Zn101 O107 1.920 . S
Zn101 O113 1.898 . S
Zn101 O116 1.905 . S
Zn102 O110 1.905 . S
Zn102 O111 1.898 . S
Zn102 O119 1.920 . S
Zn103 O106 2.080 . S
Zn103 O109 2.114 . S
Zn103 O112 2.120 . S
Zn103 O114 2.120 . S
Zn103 O115 2.114 . S
Zn103 O118 2.080 . S
C104 O109 1.166 . S
C104 O110 1.182 . S
C105 O111 1.167 . S
C105 O112 1.299 . S
O106 Zn103 2.080 . S
O106 C120 1.305 . S
O107 Zn101 1.920 . S
O107 C120 1.234 . S
C108 O113 1.167 . S
C108 O114 1.299 . S
O109 Zn103 2.114 . S
O109 C104 1.166 . S
O110 Zn102 1.905 . S
O110 C104 1.182 . S
O111 Zn102 1.898 . S
O111 C105 1.167 . S
O112 Zn103 2.120 . S
O112 C105 1.299 . S
O113 Zn101 1.898 . S
O113 C108 1.167 . S
O114 Zn103 2.120 . S
O114 C108 1.299 . S
O115 Zn103 2.114 . S
O115 C117 1.166 . S
O116 Zn101 1.905 . S
O116 C117 1.182 . S
C117 O115 1.166 . S
C117 O116 1.182 . S
O118 Zn103 2.080 . S
O118 C121 1.305 . S
O119 Zn102 1.920 . S
O119 C121 1.234 . S
C120 O106 1.305 . S
C120 O107 1.234 . S
C121 O118 1.305 . S
C121 O119 1.234 . S
C122 C123 1.349 . S
C122 C124 1.327 . S
C122 H147 0.950 . S
C123 C122 1.349 . S
C123 C139 1.349 . S
C124 C122 1.327 . S
C124 C143 1.429 . S
C124 H148 0.950 . S
C125 C142 1.574 . S
C125 C144 1.368 . S
C125 H149 0.949 . S
H126 C130 0.949 . S
C127 C128 1.349 . S
C127 C129 1.327 . S
C127 H150 0.950 . S
C128 C127 1.349 . S
C128 C140 1.349 . S
C129 C127 1.327 . S
C129 C145 1.429 . S
C129 H151 0.950 . S
C130 H126 0.949 . S
C130 C138 1.574 . S
C130 C146 1.368 . S
H131 C139 0.950 . S
H132 C137 0.950 . S
H133 C138 0.949 . S
H134 C140 0.950 . S
H135 C141 0.950 . S
H136 C142 0.949 . S
C137 H132 0.950 . S
C137 C139 1.327 . S
C137 C143 1.429 . S
C138 C130 1.574 . S
C138 H133 0.949 . S
C138 C144 1.368 . S
C139 C123 1.349 . S
C139 H131 0.950 . S
C139 C137 1.327 . S
C140 C128 1.349 . S
C140 H134 0.950 . S
C140 C141 1.327 . S
C141 H135 0.950 . S
C141 C140 1.327 . S
C141 C145 1.429 . S
C142 C125 1.574 . S
C142 H136 0.949 . S
C142 C146 1.368 . S
C143 C124 1.429 . S
C143 C137 1.429 . S
C143 C144 1.523 . S
C144 C125 1.368 . S
C144 C138 1.368 . S
C144 C143 1.523 . S
C145 C129 1.429 . S
C145 C141 1.429 . S
C145 C146 1.523 . S
C146 C130 1.368 . S
C146 C142 1.368 . S
C146 C145 1.523 . S
H147 C122 0.950 . S
H148 C124 0.950 . S
H149 C125 0.949 . S
H150 C127 0.950 . S
H151 C129 0.950 . S
C152 C153 1.349 . S
C152 C154 1.327 . S
C152 H177 0.950 . S
C153 C152 1.349 . S
C153 C169 1.349 . S
C154 C152 1.327 . S
C154 C173 1.429 . S
C154 H178 0.950 . S
C155 C172 1.574 . S
C155 C174 1.368 . S
C155 H179 0.949 . S
H156 C160 0.949 . S
C157 C158 1.349 . S
C157 C159 1.327 . S
C157 H180 0.950 . S
C158 C157 1.349 . S
C158 C170 1.349 . S
C159 C157 1.327 . S
C159 C175 1.429 . S
C159 H181 0.950 . S
C160 H156 0.949 . S
C160 C168 1.574 . S
C160 C176 1.368 . S
H161 C169 0.950 . S
H162 C167 0.950 . S
H163 C168 0.949 . S
H164 C170 0.950 . S
H165 C171 0.950 . S
H166 C172 0.949 . S
C167 H162 0.950 . S
C167 C169 1.327 . S
C167 C173 1.429 . S
C168 C160 1.574 . S
C168 H163 0.949 . S
C168 C174 1.368 . S
C169 C153 1.349 . S
C169 H161 0.950 . S
C169 C167 1.327 . S
C170 C158 1.349 . S
C170 H164 0.950 . S
C170 C171 1.327 . S
C171 H165 0.950 . S
C171 C170 1.327 . S
C171 C175 1.429 . S
C172 C155 1.574 . S
C172 H166 0.949 . S
C172 C176 1.368 . S
C173 C154 1.429 . S
C173 C167 1.429 . S
C173 C174 1.523 . S
C174 C155 1.368 . S
C174 C168 1.368 . S
C174 C173 1.523 . S
C175 C159 1.429 . S
C175 C171 1.429 . S
C175 C176 1.523 . S
C176 C160 1.368 . S
C176 C172 1.368 . S
C176 C175 1.523 . S
H177 C152 0.950 . S
H178 C154 0.950 . S
H179 C155 0.949 . S
H180 C157 0.950 . S
H181 C159 0.950 . S
C182 C183 1.349 . S
C182 C184 1.327 . S
C182 H207 0.950 . S
C183 C182 1.349 . S
C183 C199 1.349 . S
C184 C182 1.327 . S
C184 C203 1.429 . S
C184 H208 0.950 . S
C185 C202 1.574 . S
C185 C204 1.368 . S
C185 H209 0.949 . S
H186 C190 0.949 . S
C187 C188 1.349 . S
C187 C189 1.327 . S
C187 H210 0.950 . S
C188 C187 1.349 . S
C188 C200 1.349 . S
C189 C187 1.327 . S
C189 C205 1.429 . S
C189 H211 0.950 . S
C190 H186 0.949 . S
C190 C198 1.574 . S
C190 C206 1.368 . S
H191 C199 0.950 . S
H192 C197 0.950 . S
H193 C198 0.949 . S
H194 C200 0.950 . S
H195 C201 0.950 . S
H196 C202 0.949 . S
C197 H192 0.950 . S
C197 C199 1.327 . S
C197 C203 1.429 . S
C198 C190 1.574 . S
C198 H193 0.949 . S
C198 C204 1.368 . S
C199 C183 1.349 . S
C199 H191 0.950 . S
C199 C197 1.327 . S
C200 C188 1.349 . S
C200 H194 0.950 . S
C200 C201 1.327 . S
C201 H195 0.950 . S
C201 C200 1.327 . S
C201 C205 1.429 . S
C202 C185 1.574 . S
C202 H196 0.949 . S
C202 C206 1.368 . S
C203 C184 1.429 . S
C203 C197 1.429 . S
C203 C204 1.523 . S
C204 C185 1.368 . S
C204 C198 1.368 . S
C204 C203 1.523 . S
C205 C189 1.429 . S
C205 C201 1.429 . S
C205 C206 1.523 . S
C206 C190 1.368 . S
C206 C202 1.368 . S
C206 C205 1.523 . S
H207 C182 0.950 . S
H208 C184 0.950 . S
H209 C185 0.949 . S
H210 C187 0.950 . S
H211 C189 0.950 . S
C212 C213 1.349 . S
C212 C214 1.327 . S
C212 H237 0.950 . S
C213 C212 1.349 . S
C213 C229 1.349 . S
C214 C212 1.327 . S
C214 C233 1.429 . S
C214 H238 0.950 . S
C215 C232 1.574 . S
C215 C234 1.368 . S
C215 H239 0.949 . S
H216 C220 0.949 . S
C217 C218 1.349 . S
C217 C219 1.327 . S
C217 H240 0.950 . S
C218 C217 1.349 . S
C218 C230 1.349 . S
C219 C217 1.327 . S
C219 C235 1.429 . S
C219 H241 0.950 . S
C220 H216 0.949 . S
C220 C228 1.574 . S
C220 C236 1.368 . S
H221 C229 0.950 . S
H222 C227 0.950 . S
H223 C228 0.949 . S
H224 C230 0.950 . S
H225 C231 0.950 . S
H226 C232 0.949 . S
C227 H222 0.950 . S
C227 C229 1.327 . S
C227 C233 1.429 . S
C228 C220 1.574 . S
C228 H223 0.949 . S
C228 C234 1.368 . S
C229 C213 1.349 . S
C229 H221 0.950 . S
C229 C227 1.327 . S
C230 C218 1.349 . S
C230 H224 0.950 . S
C230 C231 1.327 . S
C231 H225 0.950 . S
C231 C230 1.327 . S
C231 C235 1.429 . S
C232 C215 1.574 . S
C232 H226 0.949 . S
C232 C236 1.368 . S
C233 C214 1.429 . S
C233 C227 1.429 . S
C233 C234 1.523 . S
C234 C215 1.368 . S
C234 C228 1.368 . S
C234 C233 1.523 . S
C235 C219 1.429 . S
C235 C231 1.429 . S
C235 C236 1.523 . S
C236 C220 1.368 . S
C236 C232 1.368 . S
C236 C235 1.523 . S
H237 C212 0.950 . S
H238 C214 0.950 . S
H239 C215 0.949 . S
H240 C217 0.950 . S
H241 C219 0.950 . S
C242 C243 1.349 . S
C242 C244 1.327 . S
C242 H267 0.950 . S
C243 C242 1.349 . S
C243 C259 1.349 . S
C244 C242 1.327 . S
C244 C263 1.429 . S
C244 H268 0.950 . S
C245 C262 1.574 . S
C245 C264 1.368 . S
C245 H269 0.949 . S
H246 C250 0.949 . S
C247 C248 1.349 . S
C247 C249 1.327 . S
C247 H270 0.950 . S
C248 C247 1.349 . S
C248 C260 1.349 . S
C249 C247 1.327 . S
C249 C265 1.429 . S
C249 H271 0.950 . S
C250 H246 0.949 . S
C250 C258 1.574 . S
C250 C266 1.368 . S
H251 C259 0.950 . S
H252 C257 0.950 . S
H253 C258 0.949 . S
H254 C260 0.950 . S
H255 C261 0.950 . S
H256 C262 0.949 . S
C257 H252 0.950 . S
C257 C259 1.327 . S
C257 C263 1.429 . S
C258 C250 1.574 . S
C258 H253 0.949 . S
C258 C264 1.368 . S
C259 C243 1.349 . S
C259 H251 0.950 . S
C259 C257 1.327 . S
C260 C248 1.349 . S
C260 H254 0.950 . S
C260 C261 1.327 . S
C261 H255 0.950 . S
C261 C260 1.327 . S
C261 C265 1.429 . S
C262 C245 1.574 . S
C262 H256 0.949 . S
C262 C266 1.368 . S
C263 C244 1.429 . S
C263 C257 1.429 . S
C263 C264 1.523 . S
C264 C245 1.368 . S
C264 C258 1.368 . S
C264 C263 1.523 . S
C265 C249 1.429 . S
C265 C261 1.429 . S
C265 C266 1.523 . S
C266 C250 1.368 . S
C266 C262 1.368 . S
C266 C265 1.523 . S
H267 C242 0.950 . S
H268 C244 0.950 . S
H269 C245 0.949 . S
H270 C247 0.950 . S
H271 C249 0.950 . S
C272 C273 1.349 . S
C272 C274 1.327 . S
C272 H297 0.950 . S
C273 C272 1.349 . S
C273 C289 1.349 . S
C274 C272 1.327 . S
C274 C293 1.429 . S
C274 H298 0.950 . S
C275 C292 1.574 . S
C275 C294 1.368 . S
C275 H299 0.949 . S
H276 C280 0.949 . S
C277 C278 1.349 . S
C277 C279 1.327 . S
C277 H300 0.950 . S
C278 C277 1.349 . S
C278 C290 1.349 . S
C279 C277 1.327 . S
C279 C295 1.429 . S
C279 H301 0.950 . S
C280 H276 0.949 . S
C280 C288 1.574 . S
C280 C296 1.368 . S
H281 C289 0.950 . S
H282 C287 0.950 . S
H283 C288 0.949 . S
H284 C290 0.950 . S
H285 C291 0.950 . S
H286 C292 0.949 . S
C287 H282 0.950 . S
C287 C289 1.327 . S
C287 C293 1.429 . S
C288 C280 1.574 . S
C288 H283 0.949 . S
C288 C294 1.368 . S
C289 C273 1.349 . S
C289 H281 0.950 . S
C289 C287 1.327 . S
C290 C278 1.349 . S
C290 H284 0.950 . S
C290 C291 1.327 . S
C291 H285 0.950 . S
C291 C290 1.327 . S
C291 C295 1.429 . S
C292 C275 1.574 . S
C292 H286 0.949 . S
C292 C296 1.368 . S
C293 C274 1.429 . S
C293 C287 1.429 . S
C293 C294 1.523 . S
C294 C275 1.368 . S
C294 C288 1.368 . S
C294 C293 1.523 . S
C295 C279 1.429 . S
C295 C291 1.429 . S
C295 C296 1.523 . S
C296 C280 1.368 . S
C296 C292 1.368 . S
C296 C295 1.523 . S
H297 C272 0.950 . S
H298 C274 0.950 . S
H299 C275 0.949 . S
H300 C277 0.950 . S
H301 C279 0.950 . S
C302 C303 1.349 . S
C302 C304 1.327 . S
C302 H327 0.950 . S
C303 C302 1.349 . S
C303 C319 1.349 . S
C304 C302 1.327 . S
C304 C323 1.429 . S
C304 H328 0.950 . S
C305 C322 1.574 . S
C305 C324 1.368 . S
C305 H329 0.949 . S
H306 C310 0.949 . S
C307 C308 1.349 . S
C307 C309 1.327 . S
C307 H330 0.950 . S
C308 C307 1.349 . S
C308 C320 1.349 . S
C309 C307 1.327 . S
C309 C325 1.429 . S
C309 H331 0.950 . S
C310 H306 0.949 . S
C310 C318 1.574 . S
C310 C326 1.368 . S
H311 C319 0.950 1_545 S
H312 C317 0.950 . S
H313 C318 0.949 . S
H314 C320 0.950 . S
H315 C321 0.950 . S
H316 C322 0.949 . S
C317 H312 0.950 . S
C317 C319 1.327 . S
C317 C323 1.429 . S
C318 C310 1.574 . S
C318 H313 0.949 . S
C318 C324 1.368 . S
C319 C303 1.349 . S
C319 H311 0.950 1_565 S
C319 C317 1.327 . S
C320 C308 1.349 . S
C320 H314 0.950 . S
C320 C321 1.327 . S
C321 H315 0.950 . S
C321 C320 1.327 . S
C321 C325 1.429 . S
C322 C305 1.574 . S
C322 H316 0.949 . S
C322 C326 1.368 . S
C323 C304 1.429 . S
C323 C317 1.429 . S
C323 C324 1.523 . S
C324 C305 1.368 . S
C324 C318 1.368 . S
C324 C323 1.523 . S
C325 C309 1.429 . S
C325 C321 1.429 . S
C325 C326 1.523 . S
C326 C310 1.368 . S
C326 C322 1.368 . S
C326 C325 1.523 . S
H327 C302 0.950 . S
H328 C304 0.950 . S
H329 C305 0.949 . S
H330 C307 0.950 . S
H331 C309 0.950 . S
C332 C333 1.349 . S
C332 C334 1.327 . S
C332 H357 0.950 . S
C333 C332 1.349 . S
C333 C349 1.349 . S
C334 C332 1.327 . S
C334 C353 1.429 . S
C334 H358 0.950 . S
C335 C352 1.574 . S
C335 C354 1.368 . S
C335 H359 0.949 . S
H336 C340 0.949 . S
C337 C338 1.349 . S
C337 C339 1.327 . S
C337 H360 0.950 . S
C338 C337 1.349 . S
C338 C350 1.349 . S
C339 C337 1.327 . S
C339 C355 1.429 . S
C339 H361 0.950 . S
C340 H336 0.949 . S
C340 C348 1.574 . S
C340 C356 1.368 . S
H341 C349 0.950 . S
H342 C347 0.950 . S
H343 C348 0.949 . S
H344 C350 0.950 . S
H345 C351 0.950 . S
H346 C352 0.949 . S
C347 H342 0.950 . S
C347 C349 1.327 . S
C347 C353 1.429 . S
C348 C340 1.574 . S
C348 H343 0.949 . S
C348 C354 1.368 . S
C349 C333 1.349 . S
C349 H341 0.950 . S
C349 C347 1.327 . S
C350 C338 1.349 . S
C350 H344 0.950 . S
C350 C351 1.327 . S
C351 H345 0.950 . S
C351 C350 1.327 . S
C351 C355 1.429 . S
C352 C335 1.574 . S
C352 H346 0.949 . S
C352 C356 1.368 . S
C353 C334 1.429 . S
C353 C347 1.429 . S
C353 C354 1.523 . S
C354 C335 1.368 . S
C354 C348 1.368 . S
C354 C353 1.523 . S
C355 C339 1.429 . S
C355 C351 1.429 . S
C355 C356 1.523 . S
C356 C340 1.368 . S
C356 C352 1.368 . S
C356 C355 1.523 . S
H357 C332 0.950 . S
H358 C334 0.950 . S
H359 C335 0.949 . S
H360 C337 0.950 . S
H361 C339 0.950 . S
C362 C363 1.349 . S
C362 C364 1.327 . S
C362 H387 0.950 . S
C363 C362 1.349 . S
C363 C379 1.349 . S
C364 C362 1.327 . S
C364 C383 1.429 . S
C364 H388 0.950 . S
C365 C382 1.574 . S
C365 C384 1.368 . S
C365 H389 0.949 . S
H366 C370 0.949 . S
C367 C368 1.349 . S
C367 C369 1.327 . S
C367 H390 0.950 . S
C368 C367 1.349 . S
C368 C380 1.349 . S
C369 C367 1.327 . S
C369 C385 1.429 . S
C369 H391 0.950 . S
C370 H366 0.949 . S
C370 C378 1.574 . S
C370 C386 1.368 . S
H371 C379 0.950 . S
H372 C377 0.950 . S
H373 C378 0.949 . S
H374 C380 0.950 . S
H375 C381 0.950 . S
H376 C382 0.949 . S
C377 H372 0.950 . S
C377 C379 1.327 . S
C377 C383 1.429 . S
C378 C370 1.574 . S
C378 H373 0.949 . S
C378 C384 1.368 . S
C379 C363 1.349 . S
C379 H371 0.950 . S
C379 C377 1.327 . S
C380 C368 1.349 . S
C380 H374 0.950 . S
C380 C381 1.327 . S
C381 H375 0.950 . S
C381 C380 1.327 . S
C381 C385 1.429 . S
C382 C365 1.574 . S
C382 H376 0.949 . S
C382 C386 1.368 . S
C383 C364 1.429 . S
C383 C377 1.429 . S
C383 C384 1.523 . S
C384 C365 1.368 . S
C384 C378 1.368 . S
C384 C383 1.523 . S
C385 C369 1.429 . S
C385 C381 1.429 . S
C385 C386 1.523 . S
C386 C370 1.368 . S
C386 C382 1.368 . S
C386 C385 1.523 . S
H387 C362 0.950 . S
H388 C364 0.950 . S
H389 C365 0.949 . S
H390 C367 0.950 . S
H391 C369 0.950 . S
C392 C393 1.349 . S
C392 C394 1.327 . S
C392 H417 0.950 1_655 S
C393 C392 1.349 . S
C393 C409 1.349 . S
C394 C392 1.327 . S
C394 C413 1.429 . S
C394 H418 0.950 . S
C395 C412 1.574 . S
C395 C414 1.368 . S
C395 H419 0.949 . S
H396 C400 0.949 . S
C397 C398 1.349 . S
C397 C399 1.327 . S
C397 H420 0.950 . S
C398 C397 1.349 . S
C398 C410 1.349 . S
C399 C397 1.327 . S
C399 C415 1.429 . S
C399 H421 0.950 . S
C400 H396 0.949 . S
C400 C408 1.574 . S
C400 C416 1.368 . S
H401 C409 0.950 . S
H402 C407 0.950 . S
H403 C408 0.949 . S
H404 C410 0.950 . S
H405 C411 0.950 . S
H406 C412 0.949 . S
C407 H402 0.950 . S
C407 C409 1.327 . S
C407 C413 1.429 . S
C408 C400 1.574 . S
C408 H403 0.949 . S
C408 C414 1.368 . S
C409 C393 1.349 . S
C409 H401 0.950 . S
C409 C407 1.327 . S
C410 C398 1.349 . S
C410 H404 0.950 . S
C410 C411 1.327 . S
C411 H405 0.950 . S
C411 C410 1.327 . S
C411 C415 1.429 . S
C412 C395 1.574 . S
C412 H406 0.949 . S
C412 C416 1.368 . S
C413 C394 1.429 . S
C413 C407 1.429 . S
C413 C414 1.523 . S
C414 C395 1.368 . S
C414 C408 1.368 . S
C414 C413 1.523 . S
C415 C399 1.429 . S
C415 C411 1.429 . S
C415 C416 1.523 . S
C416 C400 1.368 . S
C416 C412 1.368 . S
C416 C415 1.523 . S
H417 C392 0.950 1_455 S
H418 C394 0.950 . S
H419 C395 0.949 . S
H420 C397 0.950 . S
H421 C399 0.950 . S
C422 C423 1.349 . S
C422 C424 1.327 . S
C422 H447 0.950 . S
C423 C422 1.349 . S
C423 C439 1.349 . S
C424 C422 1.327 . S
C424 C443 1.429 . S
C424 H448 0.950 . S
C425 C442 1.574 . S
C425 C444 1.368 . S
C425 H449 0.949 . S
H426 C430 0.949 . S
C427 C428 1.349 . S
C427 C429 1.327 . S
C427 H450 0.950 . S
C428 C427 1.349 . S
C428 C440 1.349 . S
C429 C427 1.327 . S
C429 C445 1.429 . S
C429 H451 0.950 . S
C430 H426 0.949 . S
C430 C438 1.574 . S
C430 C446 1.368 . S
H431 C439 0.950 . S
H432 C437 0.950 . S
H433 C438 0.949 . S
H434 C440 0.950 . S
H435 C441 0.950 . S
H436 C442 0.949 . S
C437 H432 0.950 . S
C437 C439 1.327 . S
C437 C443 1.429 . S
C438 C430 1.574 . S
C438 H433 0.949 . S
C438 C444 1.368 . S
C439 C423 1.349 . S
C439 H431 0.950 . S
C439 C437 1.327 . S
C440 C428 1.349 . S
C440 H434 0.950 . S
C440 C441 1.327 . S
C441 H435 0.950 . S
C441 C440 1.327 . S
C441 C445 1.429 . S
C442 C425 1.574 . S
C442 H436 0.949 . S
C442 C446 1.368 . S
C443 C424 1.429 . S
C443 C437 1.429 . S
C443 C444 1.523 . S
C444 C425 1.368 . S
C444 C438 1.368 . S
C444 C443 1.523 . S
C445 C429 1.429 . S
C445 C441 1.429 . S
C445 C446 1.523 . S
C446 C430 1.368 . S
C446 C442 1.368 . S
C446 C445 1.523 . S
H447 C422 0.950 . S
H448 C424 0.950 . S
H449 C425 0.949 . S
H450 C427 0.950 . S
H451 C429 0.950 . S
C452 C453 1.349 . S
C452 C454 1.327 . S
C452 H477 0.950 . S
C453 C452 1.349 . S
C453 C469 1.349 . S
C454 C452 1.327 . S
C454 C473 1.429 . S
C454 H478 0.950 . S
C455 C472 1.574 . S
C455 C474 1.368 . S
C455 H479 0.949 . S
H456 C460 0.949 . S
C457 C458 1.349 . S
C457 C459 1.327 . S
C457 H480 0.950 . S
C458 C457 1.349 . S
C458 C470 1.349 . S
C459 C457 1.327 . S
C459 C475 1.429 . S
C459 H481 0.950 . S
C460 H456 0.949 . S
C460 C468 1.574 . S
C460 C476 1.368 . S
H461 C469 0.950 . S
H462 C467 0.950 . S
H463 C468 0.949 . S
H464 C470 0.950 . S
H465 C471 0.950 . S
H466 C472 0.949 . S
C467 H462 0.950 . S
C467 C469 1.327 . S
C467 C473 1.429 . S
C468 C460 1.574 . S
C468 H463 0.949 . S
C468 C474 1.368 . S
C469 C453 1.349 . S
C469 H461 0.950 . S
C469 C467 1.327 . S
C470 C458 1.349 . S
C470 H464 0.950 . S
C470 C471 1.327 . S
C471 H465 0.950 . S
C471 C470 1.327 . S
C471 C475 1.429 . S
C472 C455 1.574 . S
C472 H466 0.949 . S
C472 C476 1.368 . S
C473 C454 1.429 . S
C473 C467 1.429 . S
C473 C474 1.523 . S
C474 C455 1.368 . S
C474 C468 1.368 . S
C474 C473 1.523 . S
C475 C459 1.429 . S
C475 C471 1.429 . S
C475 C476 1.523 . S
C476 C460 1.368 . S
C476 C472 1.368 . S
C476 C475 1.523 . S
H477 C452 0.950 . S
H478 C454 0.950 . S
H479 C455 0.949 . S
H480 C457 0.950 . S
H481 C459 0.950 . S
C123 C11 1.901 . S
C128 C99 1.827 . S
C153 C51 1.128 . S
C158 C105 1.058 . S
C183 C7 0.756 . S
C188 C96 0.754 . S
C213 C47 1.259 . S
C218 C121 1.154 . S
C243 C10 2.106 . S
C248 C87 1.987 . S
C278 C104 2.297 . S
C273 C50 2.384 . S
C303 C56 1.166 . S
C308 C100 1.088 . S
C338 C117 1.785 . S
C333 C19 1.866 . S
C368 C84 2.136 . S
C363 C59 2.245 . S
C398 C120 2.001 . S
C393 C2 2.068 . S
C428 C83 1.261 . S
C423 C42 1.334 . S
C458 C108 0.755 . S
C453 C16 0.757 . S
