# Generated by pormake.
# Topology bcu-b, (8,8)-cn, num edge types: 1
# Building blocks:
#     Node 0, Type 0, BuildingBlock: VETTIZ_charged_sbu_0, # of connection points: 8
#     Node 1, Type 1, BuildingBlock: GIZVER_clean_sbu_0, # of connection points: 8
#     Edge 2, Type (0, 1), BuildingBlock: TEMPAE_clean_linker_10, # of connection points: 2
#     Edge 3, Type (0, 1), BuildingBlock: TEMPAE_clean_linker_10, # of connection points: 2
#     Edge 4, Type (0, 1), BuildingBlock: TEMPAE_clean_linker_10, # of connection points: 2
#     Edge 5, Type (0, 1), BuildingBlock: TEMPAE_clean_linker_10, # of connection points: 2
#     Edge 6, Type (0, 1), BuildingBlock: TEMPAE_clean_linker_10, # of connection points: 2
#     Edge 7, Type (0, 1), BuildingBlock: TEMPAE_clean_linker_10, # of connection points: 2
#     Edge 8, Type (0, 1), BuildingBlock: TEMPAE_clean_linker_10, # of connection points: 2
#     Edge 9, Type (0, 1), BuildingBlock: TEMPAE_clean_linker_10, # of connection points: 2
# Relax obj value: 0.083
# Max RMSD: 0.152
# Mean RMSD: 0.139
data_MOF--net-bcu-b--node1-VETTIZ_charged_sbu_0--node2-GIZVER_clean_sbu_0--edge1-TEMPAE_clean_linker_10
_symmetry_space_group_name_H-M    P1
_symmetry_Int_Tables_number       1
_symmetry_cell_setting            triclinic
loop_
_symmetry_equiv_pos_as_xyz
'x, y, z'
_cell_length_a     21.108476
_cell_length_b     22.914102
_cell_length_c     15.853236
_cell_angle_alpha  88.921215
_cell_angle_beta   91.591072
_cell_angle_gamma 100.81709
loop_
_atom_site_label
_atom_site_type_symbol
_atom_site_fract_x
_atom_site_fract_y
_atom_site_fract_z
_atom_type_partial_charge
Fe0 Fe 0.99396 0.93561 1.04876 0.0
O1 O 0.00749 1.00338 0.12908 0.0
Fe2 Fe 0.01303 0.01587 0.85336 0.0
Fe3 Fe 0.9856 1.00416 0.24758 0.0
O4 O 0.99236 1.00564 0.97202 0.0
O5 O 0.01782 0.01686 0.97568 0.0
O6 O 0.98262 1.0102 0.12566 0.0
Fe7 Fe 0.00699 0.08231 0.05251 0.0
C8 C 0.87362 0.91589 0.16338 0.0
O9 O 0.01103 0.8744 0.14043 0.0
O10 O 0.03402 0.93381 0.25507 0.0
O11 O 0.04628 0.14918 0.97057 0.0
O12 O 0.0772 0.09619 0.86468 0.0
O13 O 0.08582 0.96807 0.86766 0.0
O14 O 0.08951 0.94069 1.00701 0.0
O15 O 0.07048 0.06567 0.25458 0.0
O16 O 0.09664 0.0931 0.11855 0.0
C17 C 0.11103 0.94343 0.9307 0.0
O18 O 0.91794 0.07982 0.98726 0.0
O19 O 0.93861 0.06283 0.85001 0.0
O20 O 0.89757 0.92048 0.08858 0.0
O21 O 0.90159 0.9426 0.22918 0.0
C22 C 0.03453 0.88531 0.21576 0.0
C23 C 0.10893 0.09397 0.19925 0.0
C24 C 0.9467 0.12641 0.20374 0.0
O25 O 0.93734 0.07502 0.24035 0.0
O26 O 0.98078 0.13964 0.13778 0.0
C27 C 0.08057 0.1445 0.90617 0.0
O28 O 0.94969 0.93527 0.8432 0.0
O29 O 0.96523 0.87462 0.95475 0.0
C30 C 0.9048 0.08133 0.90692 0.0
C31 C 0.94148 0.88433 0.88116 0.0
Co32 Co 0.58256 0.40252 0.51313 0.0
Co33 Co 0.59183 0.44287 0.66363 0.0
Co34 Co 0.50001 0.51313 0.55388 0.0
O35 O 0.57929 0.47749 0.55943 0.0
H36 H 0.61715 0.50669 0.54614 0.0
O37 O 0.42189 0.54981 0.55382 0.0
Co38 Co 0.42704 0.62779 0.60006 0.0
Co39 Co 0.40691 0.58319 0.4525 0.0
H40 H 0.3837 0.52228 0.57067 0.0
O41 O 0.67256 0.43265 0.70194 0.0
O42 O 0.59882 0.36826 0.62719 0.0
O43 O 0.52093 0.43096 0.73977 0.0
O44 O 0.45375 0.46043 0.64455 0.0
O45 O 0.54259 0.57114 0.63798 0.0
O46 O 0.42636 0.69684 0.64635 0.0
O47 O 0.34492 0.6179 0.63933 0.0
O48 O 0.51573 0.64911 0.57222 0.0
O49 O 0.54594 0.56689 0.46135 0.0
O50 O 0.47356 0.59431 0.37165 0.0
O51 O 0.396 0.65675 0.48871 0.0
O52 O 0.32442 0.58398 0.42263 0.0
C53 C 0.65206 0.36507 0.4602 0.0
C54 C 0.45433 0.39843 0.47566 0.0
C55 C 0.46449 0.43553 0.71478 0.0
C56 C 0.65169 0.37954 0.67343 0.0
C57 C 0.36831 0.67158 0.66607 0.0
C58 C 0.55533 0.62608 0.6184 0.0
C59 C 0.53152 0.59249 0.39268 0.0
C60 C 0.33929 0.63726 0.45307 0.0
O61 O 0.59313 0.3359 0.46559 0.0
O62 O 0.66765 0.41791 0.49264 0.0
O63 O 0.45687 0.45441 0.46822 0.0
O64 O 0.49314 0.37785 0.52559 0.0
C65 C 0.17592 0.14253 0.32019 0.0
C66 C 0.167 0.13502 0.23252 0.0
C67 C 0.22424 0.18689 0.35394 0.0
C68 C 0.26599 0.22426 0.29903 0.0
C69 C 0.25916 0.21573 0.21072 0.0
C70 C 0.20941 0.17149 0.17836 0.0
C71 C 0.2295 0.1947 0.44856 0.0
C72 C 0.30389 0.25377 0.15048 0.0
C73 C 0.34971 0.37095 0.39367 0.0
C74 C 0.40755 0.35615 0.4247 0.0
C75 C 0.30387 0.32906 0.34979 0.0
C76 C 0.31699 0.27165 0.33522 0.0
C77 C 0.37669 0.25766 0.3629 0.0
C78 C 0.4208 0.29975 0.40811 0.0
C79 C 0.24031 0.34533 0.32229 0.0
C80 C 0.39317 0.19746 0.34734 0.0
H81 H 0.14364 0.11497 0.36311 0.0
H82 H 0.20302 0.16639 0.11065 0.0
H83 H 0.27791 0.18896 0.47228 0.0
H84 H 0.22391 0.24037 0.46458 0.0
H85 H 0.19253 0.16254 0.48251 0.0
H86 H 0.29233 0.24103 0.08389 0.0
H87 H 0.3007 0.30119 0.15752 0.0
H88 H 0.35455 0.24967 0.16542 0.0
H89 H 0.33931 0.41449 0.40625 0.0
H90 H 0.4658 0.28822 0.43088 0.0
H91 H 0.20069 0.31767 0.3578 0.0
H92 H 0.23043 0.33597 0.25431 0.0
H93 H 0.23927 0.39289 0.3332 0.0
H94 H 0.36199 0.16318 0.38571 0.0
H95 H 0.44437 0.1961 0.36392 0.0
H96 H 0.3839 0.1853 0.28011 0.0
C97 C 0.89486 0.21615 0.18852 0.0
C98 C 0.91425 0.17175 0.23963 0.0
C99 C 0.85734 0.25467 0.22122 0.0
C100 C 0.83962 0.24879 0.30699 0.0
C101 C 0.86229 0.20624 0.35972 0.0
C102 C 0.89901 0.16811 0.32532 0.0
C103 C 0.83396 0.29951 0.16309 0.0
C104 C 0.84491 0.19874 0.45159 0.0
C105 C 0.7661 0.36397 0.42013 0.0
C106 C 0.70053 0.33747 0.41809 0.0
C107 C 0.81204 0.33679 0.38153 0.0
C108 C 0.79174 0.28202 0.33999 0.0
C109 C 0.72544 0.25596 0.33597 0.0
C110 C 0.68076 0.28389 0.37517 0.0
C111 C 0.88239 0.36571 0.38726 0.0
C112 C 0.70177 0.19757 0.29227 0.0
H113 H 0.90646 0.21904 0.12219 0.0
H114 H 0.91472 0.13442 0.36541 0.0
H115 H 0.781 0.28667 0.15276 0.0
H116 H 0.8435 0.34406 0.19217 0.0
H117 H 0.85728 0.30266 0.10078 0.0
H118 H 0.87203 0.16814 0.48589 0.0
H119 H 0.85474 0.24228 0.48353 0.0
H120 H 0.79255 0.18062 0.45655 0.0
H121 H 0.7817 0.40545 0.45299 0.0
H122 H 0.63014 0.26332 0.37256 0.0
H123 H 0.90372 0.36935 0.32376 0.0
H124 H 0.90925 0.3377 0.42695 0.0
H125 H 0.88966 0.41071 0.41502 0.0
H126 H 0.71925 0.19988 0.22672 0.0
H127 H 0.64829 0.1852 0.29017 0.0
H128 H 0.72141 0.16166 0.32585 0.0
C129 C 0.81195 0.81306 0.14418 0.0
C130 C 0.81593 0.86957 0.17872 0.0
C131 C 0.76568 0.76448 0.1713 0.0
C132 C 0.72207 0.77267 0.23435 0.0
C133 C 0.72424 0.83021 0.26708 0.0
C134 C 0.77159 0.87782 0.2395 0.0
C135 C 0.7658 0.70382 0.13582 0.0
C136 C 0.67816 0.84104 0.33368 0.0
C137 C 0.56817 0.65962 0.26961 0.0
C138 C 0.58347 0.63073 0.34439 0.0
C139 C 0.61343 0.70448 0.23156 0.0
C140 C 0.67581 0.72087 0.26874 0.0
C141 C 0.69278 0.68979 0.3416 0.0
C142 C 0.64646 0.64514 0.37851 0.0
C143 C 0.59335 0.7365 0.15406 0.0
C144 C 0.75895 0.70556 0.38301 0.0
H145 H 0.848 0.80585 0.10026 0.0
H146 H 0.77523 0.92123 0.26734 0.0
H147 H 0.77814 0.67373 0.1868 0.0
H148 H 0.71707 0.68412 0.1107 0.0
H149 H 0.80095 0.70536 0.08456 0.0
H150 H 0.68309 0.88896 0.34814 0.0
H151 H 0.62764 0.82375 0.31273 0.0
H152 H 0.6873 0.81682 0.39269 0.0
H153 H 0.51977 0.64891 0.24245 0.0
H154 H 0.65888 0.62351 0.43642 0.0
H155 H 0.6286 0.737 0.10331 0.0
H156 H 0.59282 0.78343 0.16956 0.0
H157 H 0.5447 0.71578 0.12944 0.0
H158 H 0.79686 0.70665 0.3356 0.0
H159 H 0.7665 0.67367 0.4343 0.0
H160 H 0.76536 0.75058 0.4103 0.0
C161 C 0.08361 0.84835 0.34651 0.0
C162 C 0.06894 0.84228 0.2596 0.0
C163 C 0.12432 0.81463 0.38771 0.0
C164 C 0.15103 0.77373 0.34099 0.0
C165 C 0.1335 0.7647 0.25457 0.0
C166 C 0.09267 0.79922 0.21471 0.0
C167 C 0.14061 0.82444 0.48045 0.0
C168 C 0.16002 0.72028 0.20338 0.0
C169 C 0.31182 0.73467 0.4097 0.0
C170 C 0.29223 0.67648 0.43958 0.0
C171 C 0.26603 0.7677 0.37947 0.0
C172 C 0.19945 0.7421 0.38137 0.0
C173 C 0.17956 0.68501 0.4177 0.0
C174 C 0.22633 0.65254 0.44538 0.0
C175 C 0.28898 0.82851 0.34103 0.0
C176 C 0.10907 0.657 0.42348 0.0
H177 H 0.06471 0.88084 0.38227 0.0
H178 H 0.08159 0.79414 0.14777 0.0
H179 H 0.13372 0.7814 0.51541 0.0
H180 H 0.19213 0.84561 0.48857 0.0
H181 H 0.11072 0.85335 0.50956 0.0
H182 H 0.13704 0.71454 0.13946 0.0
H183 H 0.21282 0.73528 0.19695 0.0
H184 H 0.15254 0.67636 0.23595 0.0
H185 H 0.36288 0.75285 0.40482 0.0
H186 H 0.2114 0.60754 0.4693 0.0
H187 H 0.26471 0.86169 0.3704 0.0
H188 H 0.27601 0.82779 0.27266 0.0
H189 H 0.34202 0.84333 0.34858 0.0
H190 H 0.08162 0.68846 0.45115 0.0
H191 H 0.10167 0.6155 0.46226 0.0
H192 H 0.08846 0.64625 0.35927 0.0
C193 C 0.17137 0.85965 0.95822 0.0
C194 C 0.16102 0.90859 0.90872 0.0
C195 C 0.2064 0.81823 0.92728 0.0
C196 C 0.2307 0.82537 0.84441 0.0
C197 C 0.22344 0.8764 0.79622 0.0
C198 C 0.18944 0.91747 0.82917 0.0
C199 C 0.21414 0.76567 0.98257 0.0
C200 C 0.24947 0.88658 0.70821 0.0
C201 C 0.3645 0.75042 0.77046 0.0
C202 C 0.3309 0.70548 0.71824 0.0
C203 C 0.33215 0.7876 0.81525 0.0
C204 C 0.26431 0.78041 0.80711 0.0
C205 C 0.22965 0.73352 0.75732 0.0
C206 C 0.26339 0.6963 0.71361 0.0
C207 C 0.3708 0.8358 0.8694 0.0
C208 C 0.15717 0.72405 0.74802 0.0
H209 H 0.14939 0.85183 1.01942 0.0
H210 H 0.18243 0.95534 0.79042 0.0
H211 H 0.16986 0.73105 0.97645 0.0
H212 H 0.25605 0.74585 0.96562 0.0
H213 H 0.22009 0.77899 1.04969 0.0
H214 H 0.24096 0.92916 0.67962 0.0
H215 H 0.3021 0.88682 0.70951 0.0
H216 H 0.22619 0.84975 0.6668 0.0
H217 H 0.41669 0.75717 0.77556 0.0
H218 H 0.23721 0.66169 0.67343 0.0
H219 H 0.35166 0.83264 0.93417 0.0
H220 H 0.36611 0.88005 0.84306 0.0
H221 H 0.42281 0.83315 0.8734 0.0
H222 H 0.13531 0.7206 0.81124 0.0
H223 H 0.13693 0.68336 0.71204 0.0
H224 H 0.143 0.76287 0.71475 0.0
C225 C 0.15303 0.24194 0.93869 0.0
C226 C 0.13091 0.19586 0.88184 0.0
C227 C 0.20614 0.28678 0.91987 0.0
C228 C 0.23739 0.28569 0.84218 0.0
C229 C 0.21379 0.24058 0.78334 0.0
C230 C 0.16098 0.19628 0.80392 0.0
C231 C 0.2295 0.33466 0.98361 0.0
C232 C 0.24547 0.23804 0.69946 0.0
C233 C 0.34707 0.41844 0.74551 0.0
C234 C 0.4081 0.40399 0.76126 0.0
C235 C 0.29111 0.38228 0.77612 0.0
C236 C 0.2963 0.33011 0.82282 0.0
C237 C 0.35808 0.31726 0.84325 0.0
C238 C 0.41333 0.35461 0.81266 0.0
C239 C 0.22627 0.39788 0.75366 0.0
C240 C 0.36577 0.26172 0.89205 0.0
H241 H 0.13034 0.24191 0.9992 0.0
H242 H 0.14401 0.16116 0.7593 0.0
H243 H 0.28205 0.33845 0.99645 0.0
H244 H 0.22186 0.37816 0.95763 0.0
H245 H 0.20393 0.32604 1.0442 0.0
H246 H 0.21992 0.2011 0.6597 0.0
H247 H 0.24692 0.28043 0.66395 0.0
H248 H 0.29608 0.23211 0.71003 0.0
H249 H 0.34275 0.45688 0.70637 0.0
H250 H 0.46024 0.34294 0.82468 0.0
H251 H 0.19567 0.394 0.80999 0.0
H252 H 0.20086 0.3662 0.70626 0.0
H253 H 0.23085 0.44362 0.72695 0.0
H254 H 0.33351 0.25477 0.94667 0.0
H255 H 0.41624 0.26338 0.91517 0.0
H256 H 0.35195 0.22267 0.85058 0.0
C257 C 0.82269 0.14588 0.93089 0.0
C258 C 0.85267 0.11264 0.87606 0.0
C259 C 0.78319 0.18483 0.89929 0.0
C260 C 0.77416 0.19125 0.81085 0.0
C261 C 0.80093 0.15514 0.7557 0.0
C262 C 0.83918 0.11598 0.78891 0.0
C263 C 0.75417 0.22151 0.96043 0.0
C264 C 0.79319 0.16091 0.66105 0.0
C265 C 0.64724 0.27321 0.71612 0.0
C266 C 0.68347 0.33047 0.70358 0.0
C267 C 0.67562 0.22769 0.75283 0.0
C268 C 0.74217 0.23935 0.77526 0.0
C269 C 0.77923 0.29676 0.76058 0.0
C270 C 0.74923 0.34179 0.72598 0.0
C271 C 0.63425 0.16748 0.76899 0.0
C272 C 0.85072 0.31063 0.78119 0.0
H273 H 0.83242 0.14369 0.99827 0.0
H274 H 0.86136 0.09024 0.74563 0.0
H275 H 0.7803 0.26824 0.95761 0.0
H276 H 0.70287 0.22152 0.94313 0.0
H277 H 0.75713 0.20488 1.02645 0.0
H278 H 0.81245 0.12626 0.62714 0.0
H279 H 0.7417 0.15791 0.64236 0.0
H280 H 0.81925 0.2052 0.64001 0.0
H281 H 0.59613 0.2645 0.69991 0.0
H282 H 0.77737 0.38597 0.71613 0.0
H283 H 0.63659 0.15586 0.83714 0.0
H284 H 0.65279 0.13292 0.73418 0.0
H285 H 0.58298 0.16597 0.74964 0.0
H286 H 0.85938 0.30325 0.84955 0.0
H287 H 0.87281 0.35718 0.76457 0.0
H288 H 0.87567 0.28027 0.7465 0.0
C289 C 0.8955 0.82764 0.7543 0.0
C290 C 0.89459 0.83657 0.84141 0.0
C291 C 0.84437 0.79002 0.71298 0.0
C292 C 0.79033 0.76266 0.75972 0.0
C293 C 0.79007 0.7705 0.84814 0.0
C294 C 0.84284 0.8067 0.88806 0.0
C295 C 0.84704 0.78143 0.61901 0.0
C296 C 0.73286 0.74296 0.90005 0.0
C297 C 0.62615 0.72386 0.64998 0.0
C298 C 0.61744 0.66183 0.64734 0.0
C299 C 0.68303 0.75747 0.68467 0.0
C300 C 0.73256 0.72825 0.71599 0.0
C301 C 0.72517 0.66588 0.70983 0.0
C302 C 0.66749 0.63336 0.67613 0.0
C303 C 0.68897 0.82395 0.69114 0.0
C304 C 0.77748 0.63333 0.74075 0.0
H305 H 0.93553 0.85125 0.71828 0.0
H306 H 0.84162 0.81494 0.95488 0.0
H307 H 0.8353 0.73346 0.60391 0.0
H308 H 0.81046 0.80311 0.58585 0.0
H309 H 0.89521 0.80052 0.59378 0.0
H310 H 0.73787 0.7581 0.96644 0.0
H311 H 0.68783 0.75427 0.87212 0.0
H312 H 0.72739 0.69387 0.90002 0.0
H313 H 0.58758 0.74598 0.62779 0.0
H314 H 0.66138 0.58538 0.67318 0.0
H315 H 0.73355 0.84705 0.66054 0.0
H316 H 0.69279 0.83672 0.75855 0.0
H317 H 0.64705 0.84002 0.66134 0.0
H318 H 0.82437 0.65388 0.71334 0.0
H319 H 0.76657 0.58549 0.72437 0.0
H320 H 0.78323 0.63688 0.81033 0.0
loop_
_geom_bond_atom_site_label_1
_geom_bond_atom_site_label_2
_geom_bond_distance
_geom_bond_site_symmetry_2
_ccdc_geom_bond_type
Fe0 O1 1.886 . S
Fe0 O4 1.715 1_554 S
Fe0 O9 2.077 1_655 S
Fe0 O14 1.935 1_654 S
Fe0 O20 2.077 . S
Fe0 O29 1.935 1_554 S
O1 Fe0 1.886 . S
O1 Fe3 1.715 1_655 S
Fe2 O4 1.886 1_545 S
Fe2 O5 1.715 1_655 S
Fe2 O12 1.935 1_655 S
Fe2 O13 2.077 1_645 S
Fe2 O19 1.935 . S
Fe2 O28 2.077 1_545 S
Fe3 O1 1.715 1_455 S
Fe3 O6 1.886 1_565 S
Fe3 O10 1.935 . S
Fe3 O15 2.077 1_565 S
Fe3 O21 1.935 1_455 S
Fe3 O25 2.077 1_465 S
O4 Fe0 1.715 1_556 S
O4 Fe2 1.886 1_565 S
O5 Fe2 1.715 1_455 S
O5 Fe7 1.886 . S
O6 Fe3 1.886 1_545 S
O6 Fe7 1.715 1_554 S
Fe7 O5 1.886 . S
Fe7 O6 1.715 1_556 S
Fe7 O11 2.077 . S
Fe7 O16 1.935 1_556 S
Fe7 O18 2.077 1_455 S
Fe7 O26 1.935 1_456 S
C8 O20 1.381 . S
C8 O21 1.421 . S
O9 Fe0 2.077 1_455 S
O9 C22 1.381 . S
O10 Fe3 1.935 . S
O10 C22 1.421 . S
O11 Fe7 2.077 . S
O11 C27 1.381 . S
O12 Fe2 1.935 1_455 S
O12 C27 1.421 . S
O13 Fe2 2.077 1_465 S
O13 C17 1.381 . S
O14 Fe0 1.935 1_456 S
O14 C17 1.421 . S
O15 Fe3 2.077 1_545 S
O15 C23 1.381 . S
O16 Fe7 1.935 1_554 S
O16 C23 1.421 . S
C17 O13 1.381 . S
C17 O14 1.421 . S
O18 Fe7 2.077 1_655 S
O18 C30 1.381 . S
O19 Fe2 1.935 . S
O19 C30 1.421 . S
O20 Fe0 2.077 . S
O20 C8 1.381 . S
O21 Fe3 1.935 1_655 S
O21 C8 1.421 . S
C22 O9 1.381 . S
C22 O10 1.421 . S
C23 O15 1.381 . S
C23 O16 1.421 . S
C24 O25 1.381 . S
C24 O26 1.421 . S
O25 Fe3 2.077 1_645 S
O25 C24 1.381 . S
O26 Fe7 1.935 1_654 S
O26 C24 1.421 . S
C27 O11 1.381 . S
C27 O12 1.421 . S
O28 Fe2 2.077 1_565 S
O28 C31 1.381 . S
O29 Fe0 1.935 1_556 S
O29 C31 1.421 . S
C30 O18 1.381 . S
C30 O19 1.421 . S
C31 O28 1.381 . S
C31 O29 1.421 . S
Co32 O35 2.042 . S
Co32 O42 2.264 . S
Co32 O61 2.286 . S
Co32 O62 2.069 . S
Co32 O64 2.015 . S
Co33 O35 2.122 . S
Co33 O41 2.073 . S
Co33 O42 2.327 . S
Co33 O43 1.976 . S
Co34 O35 2.087 . S
Co34 O37 2.087 . S
Co34 O44 2.111 . S
Co34 O45 2.143 . S
Co34 O49 2.111 . S
Co34 O63 2.143 . S
O35 Co32 2.042 . S
O35 Co33 2.122 . S
O35 Co34 2.087 . S
O35 H36 0.980 . S
H36 O35 0.980 . S
O37 Co34 2.087 . S
O37 Co38 2.042 . S
O37 Co39 2.122 . S
O37 H40 0.980 . S
Co38 O37 2.042 . S
Co38 O46 2.286 . S
Co38 O47 2.069 . S
Co38 O48 2.015 . S
Co38 O51 2.264 . S
Co39 O37 2.122 . S
Co39 O50 1.976 . S
Co39 O51 2.327 . S
Co39 O52 2.073 . S
H40 O37 0.980 . S
O41 Co33 2.073 . S
O41 C56 1.245 . S
O42 Co32 2.264 . S
O42 Co33 2.327 . S
O42 C56 1.257 . S
O43 Co33 1.976 . S
O43 C55 1.251 . S
O44 Co34 2.111 . S
O44 C55 1.274 . S
O45 Co34 2.143 . S
O45 C58 1.246 . S
O46 Co38 2.286 . S
O46 C57 1.259 . S
O47 Co38 2.069 . S
O47 C57 1.289 . S
O48 Co38 2.015 . S
O48 C58 1.257 . S
O49 Co34 2.111 . S
O49 C59 1.274 . S
O50 Co39 1.976 . S
O50 C59 1.251 . S
O51 Co38 2.264 . S
O51 Co39 2.327 . S
O51 C60 1.257 . S
O52 Co39 2.073 . S
O52 C60 1.245 . S
C53 O61 1.259 . S
C53 O62 1.289 . S
C54 O63 1.246 . S
C54 O64 1.257 . S
C55 O43 1.251 . S
C55 O44 1.274 . S
C56 O41 1.245 . S
C56 O42 1.257 . S
C57 O46 1.259 . S
C57 O47 1.289 . S
C58 O45 1.246 . S
C58 O48 1.257 . S
C59 O49 1.274 . S
C59 O50 1.251 . S
C60 O51 1.257 . S
C60 O52 1.245 . S
O61 Co32 2.286 . S
O61 C53 1.259 . S
O62 Co32 2.069 . S
O62 C53 1.289 . S
O63 Co34 2.143 . S
O63 C54 1.246 . S
O64 Co32 2.015 . S
O64 C54 1.257 . S
C65 C66 1.391 . S
C65 C67 1.394 . S
C65 H81 0.931 . S
C66 C65 1.391 . S
C66 C70 1.376 . S
C67 C65 1.394 . S
C67 C68 1.369 . S
C67 C71 1.531 . S
C68 C67 1.369 . S
C68 C69 1.410 . S
C68 C76 1.503 . S
C69 C68 1.410 . S
C69 C70 1.392 . S
C69 C72 1.511 . S
C70 C66 1.376 . S
C70 C69 1.392 . S
C70 H82 0.929 . S
C71 C67 1.531 . S
C71 H83 0.960 . S
C71 H84 0.962 . S
C71 H85 0.960 . S
C72 C69 1.511 . S
C72 H86 0.961 . S
C72 H87 0.961 . S
C72 H88 0.961 . S
C73 C74 1.370 . S
C73 C75 1.363 . S
C73 H89 0.931 . S
C74 C73 1.370 . S
C74 C78 1.408 . S
C75 C73 1.363 . S
C75 C76 1.370 . S
C75 C79 1.524 . S
C76 C68 1.503 . S
C76 C75 1.370 . S
C76 C77 1.403 . S
C77 C76 1.403 . S
C77 C78 1.404 . S
C77 C80 1.539 . S
C78 C74 1.408 . S
C78 C77 1.404 . S
C78 H90 0.930 . S
C79 C75 1.524 . S
C79 H91 0.956 . S
C79 H92 0.961 . S
C79 H93 0.961 . S
C80 C77 1.539 . S
C80 H94 0.958 . S
C80 H95 0.961 . S
C80 H96 0.960 . S
H81 C65 0.931 . S
H82 C70 0.929 . S
H83 C71 0.960 . S
H84 C71 0.962 . S
H85 C71 0.960 . S
H86 C72 0.961 . S
H87 C72 0.961 . S
H88 C72 0.961 . S
H89 C73 0.931 . S
H90 C78 0.930 . S
H91 C79 0.956 . S
H92 C79 0.961 . S
H93 C79 0.961 . S
H94 C80 0.958 . S
H95 C80 0.961 . S
H96 C80 0.960 . S
C97 C98 1.391 . S
C97 C99 1.394 . S
C97 H113 0.931 . S
C98 C97 1.391 . S
C98 C102 1.376 . S
C99 C97 1.394 . S
C99 C100 1.369 . S
C99 C103 1.531 . S
C100 C99 1.369 . S
C100 C101 1.410 . S
C100 C108 1.503 . S
C101 C100 1.410 . S
C101 C102 1.392 . S
C101 C104 1.511 . S
C102 C98 1.376 . S
C102 C101 1.392 . S
C102 H114 0.929 . S
C103 C99 1.531 . S
C103 H115 0.960 . S
C103 H116 0.962 . S
C103 H117 0.960 . S
C104 C101 1.511 . S
C104 H118 0.961 . S
C104 H119 0.961 . S
C104 H120 0.961 . S
C105 C106 1.370 . S
C105 C107 1.363 . S
C105 H121 0.931 . S
C106 C105 1.370 . S
C106 C110 1.408 . S
C107 C105 1.363 . S
C107 C108 1.370 . S
C107 C111 1.524 . S
C108 C100 1.503 . S
C108 C107 1.370 . S
C108 C109 1.403 . S
C109 C108 1.403 . S
C109 C110 1.404 . S
C109 C112 1.539 . S
C110 C106 1.408 . S
C110 C109 1.404 . S
C110 H122 0.930 . S
C111 C107 1.524 . S
C111 H123 0.956 . S
C111 H124 0.961 . S
C111 H125 0.961 . S
C112 C109 1.539 . S
C112 H126 0.958 . S
C112 H127 0.961 . S
C112 H128 0.960 . S
H113 C97 0.931 . S
H114 C102 0.929 . S
H115 C103 0.960 . S
H116 C103 0.962 . S
H117 C103 0.960 . S
H118 C104 0.961 . S
H119 C104 0.961 . S
H120 C104 0.961 . S
H121 C105 0.931 . S
H122 C110 0.930 . S
H123 C111 0.956 . S
H124 C111 0.961 . S
H125 C111 0.961 . S
H126 C112 0.958 . S
H127 C112 0.961 . S
H128 C112 0.960 . S
C129 C130 1.391 . S
C129 C131 1.394 . S
C129 H145 0.931 . S
C130 C129 1.391 . S
C130 C134 1.376 . S
C131 C129 1.394 . S
C131 C132 1.369 . S
C131 C135 1.531 . S
C132 C131 1.369 . S
C132 C133 1.410 . S
C132 C140 1.503 . S
C133 C132 1.410 . S
C133 C134 1.392 . S
C133 C136 1.511 . S
C134 C130 1.376 . S
C134 C133 1.392 . S
C134 H146 0.929 . S
C135 C131 1.531 . S
C135 H147 0.960 . S
C135 H148 0.962 . S
C135 H149 0.960 . S
C136 C133 1.511 . S
C136 H150 0.961 . S
C136 H151 0.961 . S
C136 H152 0.961 . S
C137 C138 1.370 . S
C137 C139 1.363 . S
C137 H153 0.931 . S
C138 C137 1.370 . S
C138 C142 1.408 . S
C139 C137 1.363 . S
C139 C140 1.370 . S
C139 C143 1.524 . S
C140 C132 1.503 . S
C140 C139 1.370 . S
C140 C141 1.403 . S
C141 C140 1.403 . S
C141 C142 1.404 . S
C141 C144 1.539 . S
C142 C138 1.408 . S
C142 C141 1.404 . S
C142 H154 0.930 . S
C143 C139 1.524 . S
C143 H155 0.956 . S
C143 H156 0.961 . S
C143 H157 0.961 . S
C144 C141 1.539 . S
C144 H158 0.958 . S
C144 H159 0.961 . S
C144 H160 0.960 . S
H145 C129 0.931 . S
H146 C134 0.929 . S
H147 C135 0.960 . S
H148 C135 0.962 . S
H149 C135 0.960 . S
H150 C136 0.961 . S
H151 C136 0.961 . S
H152 C136 0.961 . S
H153 C137 0.931 . S
H154 C142 0.930 . S
H155 C143 0.956 . S
H156 C143 0.961 . S
H157 C143 0.961 . S
H158 C144 0.958 . S
H159 C144 0.961 . S
H160 C144 0.960 . S
C161 C162 1.391 . S
C161 C163 1.394 . S
C161 H177 0.931 . S
C162 C161 1.391 . S
C162 C166 1.376 . S
C163 C161 1.394 . S
C163 C164 1.369 . S
C163 C167 1.531 . S
C164 C163 1.369 . S
C164 C165 1.410 . S
C164 C172 1.503 . S
C165 C164 1.410 . S
C165 C166 1.392 . S
C165 C168 1.511 . S
C166 C162 1.376 . S
C166 C165 1.392 . S
C166 H178 0.929 . S
C167 C163 1.531 . S
C167 H179 0.960 . S
C167 H180 0.962 . S
C167 H181 0.960 . S
C168 C165 1.511 . S
C168 H182 0.961 . S
C168 H183 0.961 . S
C168 H184 0.961 . S
C169 C170 1.370 . S
C169 C171 1.363 . S
C169 H185 0.931 . S
C170 C169 1.370 . S
C170 C174 1.408 . S
C171 C169 1.363 . S
C171 C172 1.370 . S
C171 C175 1.524 . S
C172 C164 1.503 . S
C172 C171 1.370 . S
C172 C173 1.403 . S
C173 C172 1.403 . S
C173 C174 1.404 . S
C173 C176 1.539 . S
C174 C170 1.408 . S
C174 C173 1.404 . S
C174 H186 0.930 . S
C175 C171 1.524 . S
C175 H187 0.956 . S
C175 H188 0.961 . S
C175 H189 0.961 . S
C176 C173 1.539 . S
C176 H190 0.958 . S
C176 H191 0.961 . S
C176 H192 0.960 . S
H177 C161 0.931 . S
H178 C166 0.929 . S
H179 C167 0.960 . S
H180 C167 0.962 . S
H181 C167 0.960 . S
H182 C168 0.961 . S
H183 C168 0.961 . S
H184 C168 0.961 . S
H185 C169 0.931 . S
H186 C174 0.930 . S
H187 C175 0.956 . S
H188 C175 0.961 . S
H189 C175 0.961 . S
H190 C176 0.958 . S
H191 C176 0.961 . S
H192 C176 0.960 . S
C193 C194 1.391 . S
C193 C195 1.394 . S
C193 H209 0.931 . S
C194 C193 1.391 . S
C194 C198 1.376 . S
C195 C193 1.394 . S
C195 C196 1.369 . S
C195 C199 1.531 . S
C196 C195 1.369 . S
C196 C197 1.410 . S
C196 C204 1.503 . S
C197 C196 1.410 . S
C197 C198 1.392 . S
C197 C200 1.511 . S
C198 C194 1.376 . S
C198 C197 1.392 . S
C198 H210 0.929 . S
C199 C195 1.531 . S
C199 H211 0.960 . S
C199 H212 0.962 . S
C199 H213 0.960 . S
C200 C197 1.511 . S
C200 H214 0.961 . S
C200 H215 0.961 . S
C200 H216 0.961 . S
C201 C202 1.370 . S
C201 C203 1.363 . S
C201 H217 0.931 . S
C202 C201 1.370 . S
C202 C206 1.408 . S
C203 C201 1.363 . S
C203 C204 1.370 . S
C203 C207 1.524 . S
C204 C196 1.503 . S
C204 C203 1.370 . S
C204 C205 1.403 . S
C205 C204 1.403 . S
C205 C206 1.404 . S
C205 C208 1.539 . S
C206 C202 1.408 . S
C206 C205 1.404 . S
C206 H218 0.930 . S
C207 C203 1.524 . S
C207 H219 0.956 . S
C207 H220 0.961 . S
C207 H221 0.961 . S
C208 C205 1.539 . S
C208 H222 0.958 . S
C208 H223 0.961 . S
C208 H224 0.960 . S
H209 C193 0.931 . S
H210 C198 0.929 . S
H211 C199 0.960 . S
H212 C199 0.962 . S
H213 C199 0.960 . S
H214 C200 0.961 . S
H215 C200 0.961 . S
H216 C200 0.961 . S
H217 C201 0.931 . S
H218 C206 0.930 . S
H219 C207 0.956 . S
H220 C207 0.961 . S
H221 C207 0.961 . S
H222 C208 0.958 . S
H223 C208 0.961 . S
H224 C208 0.960 . S
C225 C226 1.391 . S
C225 C227 1.394 . S
C225 H241 0.931 . S
C226 C225 1.391 . S
C226 C230 1.376 . S
C227 C225 1.394 . S
C227 C228 1.369 . S
C227 C231 1.531 . S
C228 C227 1.369 . S
C228 C229 1.410 . S
C228 C236 1.503 . S
C229 C228 1.410 . S
C229 C230 1.392 . S
C229 C232 1.511 . S
C230 C226 1.376 . S
C230 C229 1.392 . S
C230 H242 0.929 . S
C231 C227 1.531 . S
C231 H243 0.960 . S
C231 H244 0.962 . S
C231 H245 0.960 . S
C232 C229 1.511 . S
C232 H246 0.961 . S
C232 H247 0.961 . S
C232 H248 0.961 . S
C233 C234 1.370 . S
C233 C235 1.363 . S
C233 H249 0.931 . S
C234 C233 1.370 . S
C234 C238 1.408 . S
C235 C233 1.363 . S
C235 C236 1.370 . S
C235 C239 1.524 . S
C236 C228 1.503 . S
C236 C235 1.370 . S
C236 C237 1.403 . S
C237 C236 1.403 . S
C237 C238 1.404 . S
C237 C240 1.539 . S
C238 C234 1.408 . S
C238 C237 1.404 . S
C238 H250 0.930 . S
C239 C235 1.524 . S
C239 H251 0.956 . S
C239 H252 0.961 . S
C239 H253 0.961 . S
C240 C237 1.539 . S
C240 H254 0.958 . S
C240 H255 0.961 . S
C240 H256 0.960 . S
H241 C225 0.931 . S
H242 C230 0.929 . S
H243 C231 0.960 . S
H244 C231 0.962 . S
H245 C231 0.960 . S
H246 C232 0.961 . S
H247 C232 0.961 . S
H248 C232 0.961 . S
H249 C233 0.931 . S
H250 C238 0.930 . S
H251 C239 0.956 . S
H252 C239 0.961 . S
H253 C239 0.961 . S
H254 C240 0.958 . S
H255 C240 0.961 . S
H256 C240 0.960 . S
C257 C258 1.391 . S
C257 C259 1.394 . S
C257 H273 0.931 . S
C258 C257 1.391 . S
C258 C262 1.376 . S
C259 C257 1.394 . S
C259 C260 1.369 . S
C259 C263 1.531 . S
C260 C259 1.369 . S
C260 C261 1.410 . S
C260 C268 1.503 . S
C261 C260 1.410 . S
C261 C262 1.392 . S
C261 C264 1.511 . S
C262 C258 1.376 . S
C262 C261 1.392 . S
C262 H274 0.929 . S
C263 C259 1.531 . S
C263 H275 0.960 . S
C263 H276 0.962 . S
C263 H277 0.960 . S
C264 C261 1.511 . S
C264 H278 0.961 . S
C264 H279 0.961 . S
C264 H280 0.961 . S
C265 C266 1.370 . S
C265 C267 1.363 . S
C265 H281 0.931 . S
C266 C265 1.370 . S
C266 C270 1.408 . S
C267 C265 1.363 . S
C267 C268 1.370 . S
C267 C271 1.524 . S
C268 C260 1.503 . S
C268 C267 1.370 . S
C268 C269 1.403 . S
C269 C268 1.403 . S
C269 C270 1.404 . S
C269 C272 1.539 . S
C270 C266 1.408 . S
C270 C269 1.404 . S
C270 H282 0.930 . S
C271 C267 1.524 . S
C271 H283 0.956 . S
C271 H284 0.961 . S
C271 H285 0.961 . S
C272 C269 1.539 . S
C272 H286 0.958 . S
C272 H287 0.961 . S
C272 H288 0.960 . S
H273 C257 0.931 . S
H274 C262 0.929 . S
H275 C263 0.960 . S
H276 C263 0.962 . S
H277 C263 0.960 . S
H278 C264 0.961 . S
H279 C264 0.961 . S
H280 C264 0.961 . S
H281 C265 0.931 . S
H282 C270 0.930 . S
H283 C271 0.956 . S
H284 C271 0.961 . S
H285 C271 0.961 . S
H286 C272 0.958 . S
H287 C272 0.961 . S
H288 C272 0.960 . S
C289 C290 1.391 . S
C289 C291 1.394 . S
C289 H305 0.931 . S
C290 C289 1.391 . S
C290 C294 1.376 . S
C291 C289 1.394 . S
C291 C292 1.369 . S
C291 C295 1.531 . S
C292 C291 1.369 . S
C292 C293 1.410 . S
C292 C300 1.503 . S
C293 C292 1.410 . S
C293 C294 1.392 . S
C293 C296 1.511 . S
C294 C290 1.376 . S
C294 C293 1.392 . S
C294 H306 0.929 . S
C295 C291 1.531 . S
C295 H307 0.960 . S
C295 H308 0.962 . S
C295 H309 0.960 . S
C296 C293 1.511 . S
C296 H310 0.961 . S
C296 H311 0.961 . S
C296 H312 0.961 . S
C297 C298 1.370 . S
C297 C299 1.363 . S
C297 H313 0.931 . S
C298 C297 1.370 . S
C298 C302 1.408 . S
C299 C297 1.363 . S
C299 C300 1.370 . S
C299 C303 1.524 . S
C300 C292 1.503 . S
C300 C299 1.370 . S
C300 C301 1.403 . S
C301 C300 1.403 . S
C301 C302 1.404 . S
C301 C304 1.539 . S
C302 C298 1.408 . S
C302 C301 1.404 . S
C302 H314 0.930 . S
C303 C299 1.524 . S
C303 H315 0.956 . S
C303 H316 0.961 . S
C303 H317 0.961 . S
C304 C301 1.539 . S
C304 H318 0.958 . S
C304 H319 0.961 . S
C304 H320 0.960 . S
H305 C289 0.931 . S
H306 C294 0.929 . S
H307 C295 0.960 . S
H308 C295 0.962 . S
H309 C295 0.960 . S
H310 C296 0.961 . S
H311 C296 0.961 . S
H312 C296 0.961 . S
H313 C297 0.931 . S
H314 C302 0.930 . S
H315 C303 0.956 . S
H316 C303 0.961 . S
H317 C303 0.961 . S
H318 C304 0.958 . S
H319 C304 0.961 . S
H320 C304 0.960 . S
C66 C23 1.477 . S
C74 C54 1.447 . S
C98 C24 1.613 . S
C106 C53 1.616 . S
C130 C8 1.423 . S
C138 C59 1.405 . S
C162 C22 1.431 . S
C170 C60 1.430 . S
C194 C17 1.566 . S
C202 C57 1.627 . S
C234 C55 1.389 . S
C226 C27 1.465 . S
C258 C30 1.439 . S
C266 C56 1.415 . S
C298 C58 1.450 . S
C290 C31 1.461 . S
