# Generated by pormake.
# Topology ssb, (4,4)-cn, num edge types: 1
# Building blocks:
#     Node 0, Type 0, BuildingBlock: NAWXER_clean_sbu_0, # of connection points: 4
#     Node 1, Type 0, BuildingBlock: NAWXER_clean_sbu_0, # of connection points: 4
#     Node 2, Type 0, BuildingBlock: NAWXER_clean_sbu_0, # of connection points: 4
#     Node 3, Type 0, BuildingBlock: NAWXER_clean_sbu_0, # of connection points: 4
#     Node 4, Type 0, BuildingBlock: NAWXER_clean_sbu_0, # of connection points: 4
#     Node 5, Type 0, BuildingBlock: NAWXER_clean_sbu_0, # of connection points: 4
#     Node 6, Type 0, BuildingBlock: NAWXER_clean_sbu_0, # of connection points: 4
#     Node 7, Type 0, BuildingBlock: NAWXER_clean_sbu_0, # of connection points: 4
#     Node 8, Type 1, BuildingBlock: NAWXER_clean_sbu_0, # of connection points: 4
#     Node 9, Type 1, BuildingBlock: NAWXER_clean_sbu_0, # of connection points: 4
#     Node 10, Type 1, BuildingBlock: NAWXER_clean_sbu_0, # of connection points: 4
#     Node 11, Type 1, BuildingBlock: NAWXER_clean_sbu_0, # of connection points: 4
#     Node 12, Type 1, BuildingBlock: NAWXER_clean_sbu_0, # of connection points: 4
#     Node 13, Type 1, BuildingBlock: NAWXER_clean_sbu_0, # of connection points: 4
#     Node 14, Type 1, BuildingBlock: NAWXER_clean_sbu_0, # of connection points: 4
#     Node 15, Type 1, BuildingBlock: NAWXER_clean_sbu_0, # of connection points: 4
#     Edge 16, Type (0, 1), BuildingBlock: MIFKUJ_clean_linker_0, # of connection points: 2
#     Edge 17, Type (0, 1), BuildingBlock: MIFKUJ_clean_linker_0, # of connection points: 2
#     Edge 18, Type (0, 1), BuildingBlock: MIFKUJ_clean_linker_0, # of connection points: 2
#     Edge 19, Type (0, 1), BuildingBlock: MIFKUJ_clean_linker_0, # of connection points: 2
#     Edge 20, Type (0, 1), BuildingBlock: MIFKUJ_clean_linker_0, # of connection points: 2
#     Edge 21, Type (0, 1), BuildingBlock: MIFKUJ_clean_linker_0, # of connection points: 2
#     Edge 22, Type (0, 1), BuildingBlock: MIFKUJ_clean_linker_0, # of connection points: 2
#     Edge 23, Type (0, 1), BuildingBlock: MIFKUJ_clean_linker_0, # of connection points: 2
#     Edge 24, Type (0, 1), BuildingBlock: MIFKUJ_clean_linker_0, # of connection points: 2
#     Edge 25, Type (0, 1), BuildingBlock: MIFKUJ_clean_linker_0, # of connection points: 2
#     Edge 26, Type (0, 1), BuildingBlock: MIFKUJ_clean_linker_0, # of connection points: 2
#     Edge 27, Type (0, 1), BuildingBlock: MIFKUJ_clean_linker_0, # of connection points: 2
#     Edge 28, Type (0, 1), BuildingBlock: MIFKUJ_clean_linker_0, # of connection points: 2
#     Edge 29, Type (0, 1), BuildingBlock: MIFKUJ_clean_linker_0, # of connection points: 2
#     Edge 30, Type (0, 1), BuildingBlock: MIFKUJ_clean_linker_0, # of connection points: 2
#     Edge 31, Type (0, 1), BuildingBlock: MIFKUJ_clean_linker_0, # of connection points: 2
#     Edge 32, Type (0, 1), BuildingBlock: MIFKUJ_clean_linker_0, # of connection points: 2
#     Edge 33, Type (0, 1), BuildingBlock: MIFKUJ_clean_linker_0, # of connection points: 2
#     Edge 34, Type (0, 1), BuildingBlock: MIFKUJ_clean_linker_0, # of connection points: 2
#     Edge 35, Type (0, 1), BuildingBlock: MIFKUJ_clean_linker_0, # of connection points: 2
#     Edge 36, Type (0, 1), BuildingBlock: MIFKUJ_clean_linker_0, # of connection points: 2
#     Edge 37, Type (0, 1), BuildingBlock: MIFKUJ_clean_linker_0, # of connection points: 2
#     Edge 38, Type (0, 1), BuildingBlock: MIFKUJ_clean_linker_0, # of connection points: 2
#     Edge 39, Type (0, 1), BuildingBlock: MIFKUJ_clean_linker_0, # of connection points: 2
#     Edge 40, Type (0, 1), BuildingBlock: MIFKUJ_clean_linker_0, # of connection points: 2
#     Edge 41, Type (0, 1), BuildingBlock: MIFKUJ_clean_linker_0, # of connection points: 2
#     Edge 42, Type (0, 1), BuildingBlock: MIFKUJ_clean_linker_0, # of connection points: 2
#     Edge 43, Type (0, 1), BuildingBlock: MIFKUJ_clean_linker_0, # of connection points: 2
#     Edge 44, Type (0, 1), BuildingBlock: MIFKUJ_clean_linker_0, # of connection points: 2
#     Edge 45, Type (0, 1), BuildingBlock: MIFKUJ_clean_linker_0, # of connection points: 2
#     Edge 46, Type (0, 1), BuildingBlock: MIFKUJ_clean_linker_0, # of connection points: 2
#     Edge 47, Type (0, 1), BuildingBlock: MIFKUJ_clean_linker_0, # of connection points: 2
# Relax obj value: 0.002
# Max RMSD: 0.009
# Mean RMSD: 0.008
data_MOF--net-ssb--node1-NAWXER_clean_sbu_0--node2-NAWXER_clean_sbu_0--edge1-MIFKUJ_clean_linker_0
_symmetry_space_group_name_H-M    P1
_symmetry_Int_Tables_number       1
_symmetry_cell_setting            triclinic
loop_
_symmetry_equiv_pos_as_xyz
'x, y, z'
_cell_length_a     57.903919
_cell_length_b     57.997513
_cell_length_c     49.660566
_cell_angle_alpha  90.072161
_cell_angle_beta   89.795943
_cell_angle_gamma 89.994111
loop_
_atom_site_label
_atom_site_type_symbol
_atom_site_fract_x
_atom_site_fract_y
_atom_site_fract_z
_atom_type_partial_charge
C0 C 0.19486 0.253 0.25345 0.0
C1 C 0.26467 0.23365 0.20172 0.0
O2 O 0.19567 0.23941 0.23328 0.0
Zn3 Zn 0.22897 0.24158 0.22774 0.0
O4 O 0.21348 0.2619 0.26267 0.0
Zn5 Zn 0.24988 0.26171 0.25479 0.0
O6 O 0.25509 0.29442 0.24774 0.0
O7 O 0.23233 0.2775 0.218 0.0
O8 O 0.26841 0.24655 0.2222 0.0
O9 O 0.24435 0.22616 0.1975 0.0
O10 O 0.24052 0.22341 0.26231 0.0
O11 O 0.26194 0.24646 0.2871 0.0
C12 C 0.24241 0.29566 0.22688 0.0
C13 C 0.25254 0.22686 0.28352 0.0
C14 C 0.71406 0.23262 0.22264 0.0
C15 C 0.7894 0.23933 0.2674 0.0
O16 O 0.71348 0.2455 0.24369 0.0
Zn17 Zn 0.73708 0.25736 0.27428 0.0
O18 O 0.73274 0.22228 0.21652 0.0
Zn19 Zn 0.75194 0.23494 0.24491 0.0
O20 O 0.74022 0.2182 0.28079 0.0
O21 O 0.72569 0.24458 0.30802 0.0
O22 O 0.78482 0.22743 0.24654 0.0
O23 O 0.77335 0.25116 0.27866 0.0
O24 O 0.73625 0.29043 0.2685 0.0
O25 O 0.7515 0.27095 0.23457 0.0
C26 C 0.73115 0.22369 0.30349 0.0
C27 C 0.74495 0.29015 0.24494 0.0
C28 C 0.77297 0.74234 0.21371 0.0
C29 C 0.75514 0.81062 0.26939 0.0
O30 O 0.76015 0.73835 0.23424 0.0
Zn31 Zn 0.74493 0.75597 0.26739 0.0
O32 O 0.78025 0.76275 0.20957 0.0
Zn33 Zn 0.76489 0.77744 0.24058 0.0
O34 O 0.78328 0.76362 0.27375 0.0
O35 O 0.76017 0.74169 0.29815 0.0
O36 O 0.76772 0.81034 0.24829 0.0
O37 O 0.74592 0.79184 0.27778 0.0
O38 O 0.71245 0.7508 0.26032 0.0
O39 O 0.72911 0.77407 0.23083 0.0
C40 C 0.77999 0.75057 0.29417 0.0
C41 C 0.71112 0.76352 0.23952 0.0
C42 C 0.25598 0.71982 0.23418 0.0
C43 C 0.27516 0.78538 0.29212 0.0
O44 O 0.24872 0.74043 0.23166 0.0
Zn45 Zn 0.26453 0.75281 0.26303 0.0
O46 O 0.26877 0.71458 0.25426 0.0
Zn47 Zn 0.28465 0.73073 0.28818 0.0
O48 O 0.26952 0.715 0.31834 0.0
O49 O 0.24588 0.73747 0.29565 0.0
O50 O 0.28439 0.76646 0.3001 0.0
O51 O 0.26247 0.7853 0.27128 0.0
O52 O 0.29975 0.74814 0.25049 0.0
O53 O 0.31697 0.72466 0.279 0.0
C54 C 0.24945 0.72347 0.31514 0.0
C55 C 0.31771 0.73677 0.25762 0.0
C56 C 0.2835 0.77118 0.78742 0.0
C57 C 0.21917 0.75339 0.72726 0.0
O58 O 0.26415 0.7793 0.7958 0.0
Zn59 Zn 0.22859 0.77933 0.78349 0.0
O60 O 0.28416 0.75969 0.76561 0.0
Zn61 Zn 0.25164 0.76125 0.75715 0.0
O62 O 0.24642 0.79701 0.74778 0.0
O63 O 0.22185 0.81179 0.77719 0.0
O64 O 0.24 0.74678 0.72448 0.0
O65 O 0.21333 0.76499 0.74817 0.0
O66 O 0.21303 0.76242 0.81229 0.0
O67 O 0.23646 0.74061 0.78819 0.0
C68 C 0.23452 0.81417 0.75638 0.0
C69 C 0.22214 0.74282 0.80777 0.0
C70 C 0.2592 0.21893 0.73598 0.0
C71 C 0.23519 0.2873 0.78647 0.0
O72 O 0.24667 0.21935 0.75707 0.0
Zn73 Zn 0.24563 0.25263 0.76109 0.0
O74 O 0.26617 0.23791 0.72553 0.0
Zn75 Zn 0.26288 0.27419 0.73227 0.0
O76 O 0.29495 0.28366 0.73846 0.0
O77 O 0.28068 0.26118 0.77025 0.0
O78 O 0.24642 0.29201 0.76487 0.0
O79 O 0.23029 0.26644 0.79196 0.0
O80 O 0.22482 0.26242 0.72752 0.0
O81 O 0.24583 0.28391 0.70028 0.0
C82 C 0.29744 0.27315 0.76079 0.0
C83 C 0.22679 0.27393 0.70561 0.0
C84 C 0.76055 0.21805 0.74602 0.0
C85 C 0.77862 0.28407 0.80503 0.0
O86 O 0.75086 0.237 0.73907 0.0
Zn87 Zn 0.74929 0.27238 0.75182 0.0
O88 O 0.77377 0.21779 0.76648 0.0
Zn89 Zn 0.77064 0.25033 0.77588 0.0
O90 O 0.73499 0.25176 0.7876 0.0
O91 O 0.71665 0.27566 0.76052 0.0
O92 O 0.78652 0.26367 0.80707 0.0
O93 O 0.76499 0.28891 0.78556 0.0
O94 O 0.76299 0.28843 0.72105 0.0
O95 O 0.78767 0.26611 0.74242 0.0
C96 C 0.71629 0.2618 0.78038 0.0
C97 C 0.7832 0.28 0.72308 0.0
C98 C 0.78082 0.72007 0.70694 0.0
C99 C 0.71091 0.73929 0.75862 0.0
O100 O 0.76008 0.71525 0.7007 0.0
Zn101 Zn 0.74526 0.73081 0.73096 0.0
O102 O 0.78482 0.73205 0.72814 0.0
Zn103 Zn 0.7657 0.74882 0.75973 0.0
O104 O 0.77726 0.73343 0.79158 0.0
O105 O 0.75687 0.7109 0.76476 0.0
O106 O 0.72938 0.74798 0.76854 0.0
O107 O 0.71196 0.72852 0.73631 0.0
O108 O 0.75155 0.76633 0.72142 0.0
O109 O 0.77297 0.78107 0.75376 0.0
C110 C 0.76844 0.71381 0.78647 0.0
C111 C 0.76262 0.78346 0.73142 0.0
C112 C 0.96691 0.28692 0.53021 0.0
C113 C 0.0226 0.28147 0.45589 0.0
O114 O 0.97501 0.30341 0.51621 0.0
Zn115 Zn 0.99556 0.28523 0.49373 0.0
O116 O 0.97386 0.26625 0.52572 0.0
Zn117 Zn 0.99689 0.24854 0.49859 0.0
O118 O 0.02051 0.23545 0.52211 0.0
O119 O 0.02144 0.27345 0.52125 0.0
O120 O 0.01742 0.26203 0.46653 0.0
O121 O 0.01414 0.29992 0.46571 0.0
O122 O 0.97136 0.26599 0.47007 0.0
O123 O 0.97579 0.22885 0.47802 0.0
C124 C 0.02946 0.25429 0.53007 0.0
C125 C 0.96549 0.24503 0.46557 0.0
C126 C 0.73976 0.03235 0.55725 0.0
C127 C 0.74415 0.98165 0.47786 0.0
O128 O 0.76035 0.02728 0.5499 0.0
Zn129 Zn 0.77776 0.00843 0.51922 0.0
O130 O 0.7227 0.02462 0.54392 0.0
Zn131 Zn 0.74065 0.00681 0.51753 0.0
O132 O 0.75673 0.98067 0.54145 0.0
O133 O 0.79452 0.98579 0.54062 0.0
O134 O 0.72579 0.98827 0.48978 0.0
O135 O 0.76387 0.98801 0.48696 0.0
O136 O 0.79386 0.03303 0.49988 0.0
O137 O 0.75601 0.03353 0.49406 0.0
C138 C 0.77701 0.97444 0.54874 0.0
C139 C 0.77603 0.04189 0.48914 0.0
C140 C 0.98003 0.69893 0.53423 0.0
C141 C 0.04128 0.69283 0.46543 0.0
O142 O 0.98634 0.71824 0.5241 0.0
Zn143 Zn 0.01057 0.7314 0.49554 0.0
O144 O 0.99035 0.68054 0.52699 0.0
Zn145 Zn 0.01092 0.69463 0.50015 0.0
O146 O 0.03545 0.71293 0.52401 0.0
O147 O 0.03091 0.75031 0.51738 0.0
O148 O 0.032 0.67611 0.47805 0.0
O149 O 0.03445 0.71347 0.47013 0.0
O150 O 0.99022 0.74574 0.46987 0.0
O151 O 0.98636 0.70787 0.47171 0.0
C152 C 0.04153 0.73379 0.5287 0.0
C153 C 0.98004 0.72745 0.46223 0.0
C154 C 0.2771 0.03452 0.54733 0.0
C155 C 0.27794 0.97811 0.47381 0.0
O156 O 0.29492 0.02547 0.53657 0.0
Zn157 Zn 0.27845 0.00691 0.51034 0.0
O158 O 0.25698 0.02956 0.53832 0.0
Zn159 Zn 0.24157 0.00839 0.50773 0.0
O160 O 0.22272 0.98803 0.53016 0.0
O161 O 0.26019 0.98351 0.53613 0.0
O162 O 0.25757 0.98506 0.47997 0.0
O163 O 0.29521 0.98625 0.48638 0.0
O164 O 0.26547 0.03331 0.48444 0.0
O165 O 0.22743 0.03112 0.48389 0.0
C166 C 0.23935 0.97801 0.54212 0.0
C167 C 0.24597 0.04084 0.47607 0.0
C168 C 0.47733 0.72698 0.03614 0.0
C169 C 0.53588 0.72819 0.96384 0.0
O170 O 0.48357 0.74731 0.02903 0.0
Zn171 Zn 0.50711 0.76339 1.00114 0.0
O172 O 0.48615 0.70953 0.02439 0.0
Zn173 Zn 0.50608 0.72658 0.99961 0.0
O174 O 0.5303 0.74103 0.02753 0.0
O175 O 0.52813 0.77898 0.02541 0.0
O176 O 0.52585 0.71052 0.97355 0.0
O177 O 0.53036 0.74824 0.97262 0.0
O178 O 0.48665 0.78127 0.97847 0.0
O179 O 0.48155 0.74374 0.9743 0.0
C180 C 0.53697 0.76093 0.03566 0.0
C181 C 0.47593 0.76441 0.96792 0.0
C182 C 0.24982 0.54422 0.03202 0.0
C183 C 0.24184 0.4794 0.96958 0.0
O184 O 0.26635 0.53332 0.0208 0.0
Zn185 Zn 0.24696 0.51153 1.00137 0.0
O186 O 0.22892 0.53779 0.02831 0.0
Zn187 Zn 0.21017 0.51202 0.00675 0.0
O188 O 0.19665 0.49317 0.03539 0.0
O189 O 0.2346 0.49071 0.03361 0.0
O190 O 0.22252 0.48674 0.9789 0.0
O191 O 0.26055 0.48878 0.97726 0.0
O192 O 0.22826 0.53412 0.9748 0.0
O193 O 0.19105 0.53178 0.98446 0.0
C194 C 0.21542 0.48502 0.04462 0.0
C195 C 0.20737 0.54055 0.97059 0.0
C196 C 0.5228 0.23184 0.9582 0.0
C197 C 0.46181 0.22622 0.02671 0.0
O198 O 0.51784 0.25106 0.96953 0.0
Zn199 Zn 0.49593 0.26415 1.00051 0.0
O200 O 0.5128 0.21346 0.96595 0.0
Zn201 Zn 0.49296 0.22785 0.99315 0.0
O202 O 0.4709 0.24951 0.96934 0.0
O203 O 0.4775 0.28597 0.97974 0.0
O204 O 0.47013 0.20979 0.0127 0.0
O205 O 0.47009 0.24662 0.02402 0.0
O206 O 0.51809 0.27482 0.02736 0.0
O207 O 0.51737 0.23697 0.02368 0.0
C208 C 0.46663 0.271 0.96593 0.0
C209 C 0.52557 0.25519 0.03472 0.0
C210 C 0.79877 0.5384 0.05341 0.0
C211 C 0.79882 0.47293 0.99011 0.0
O212 O 0.81644 0.52808 0.04397 0.0
Zn213 Zn 0.7998 0.50529 0.02257 0.0
O214 O 0.77852 0.53147 0.04681 0.0
Zn215 Zn 0.76286 0.50579 0.02146 0.0
O216 O 0.74544 0.48721 0.04693 0.0
O217 O 0.78313 0.48473 0.05264 0.0
O218 O 0.77857 0.48035 0.99601 0.0
O219 O 0.81632 0.4822 1.00113 0.0
O220 O 0.78483 0.52736 0.99285 0.0
O221 O 0.74684 0.52508 0.99558 0.0
C222 C 0.76258 0.47914 0.05979 0.0
C223 C 0.76482 0.53366 0.9847 0.0
H224 H 0.1829 0.29394 0.2753 0.0
H225 H 0.1503 0.30205 0.30511 0.0
H226 H 0.12563 0.23245 0.29433 0.0
H227 H 0.15797 0.22454 0.26343 0.0
H228 H 0.09003 0.26205 0.29893 0.0
H229 H 0.16034 0.24766 0.34695 0.0
H230 H 0.20135 0.25377 0.35822 0.0
H231 H 0.18634 0.32306 0.38319 0.0
H232 H 0.14538 0.31767 0.37123 0.0
H233 H 0.03285 0.24531 0.42328 0.0
H234 H 0.05904 0.24437 0.38486 0.0
H235 H 0.07361 0.31671 0.3956 0.0
H236 H 0.04706 0.31787 0.43439 0.0
H237 H 0.11328 0.28861 0.38996 0.0
H238 H 0.04206 0.30163 0.34396 0.0
H239 H 1.00117 0.29462 0.33298 0.0
H240 H 0.01788 0.22621 0.30611 0.0
H241 H 0.05884 0.23268 0.31731 0.0
C242 C 0.17024 0.28051 0.27886 0.0
C243 C 0.17299 0.25855 0.2673 0.0
C244 C 0.15169 0.28513 0.29598 0.0
C245 C 0.13587 0.26768 0.30255 0.0
C246 C 0.13772 0.24613 0.28967 0.0
C247 C 0.15614 0.24162 0.27201 0.0
C248 C 0.11859 0.27148 0.32431 0.0
C249 C 0.09513 0.26766 0.31888 0.0
C250 C 0.12521 0.27923 0.35028 0.0
C251 C 0.1498 0.28234 0.35791 0.0
C252 C 0.1658 0.26427 0.35464 0.0
C253 C 0.18904 0.2676 0.36116 0.0
C254 C 0.19642 0.28877 0.37144 0.0
C255 C 0.18059 0.30668 0.3752 0.0
C256 C 0.15738 0.30351 0.3685 0.0
C257 C 0.04151 0.26111 0.41749 0.0
C258 C 0.03793 0.28169 0.43196 0.0
C259 C 0.05638 0.26054 0.39537 0.0
C260 C 0.06811 0.28049 0.38724 0.0
C261 C 0.0646 0.30114 0.40153 0.0
C262 C 0.04943 0.30181 0.4236 0.0
C263 C 0.08478 0.27919 0.36455 0.0
C264 C 0.10817 0.2833 0.36988 0.0
C265 C 0.07812 0.27149 0.33865 0.0
C266 C 0.05351 0.26759 0.33167 0.0
C267 C 0.037 0.28503 0.3359 0.0
C268 C 0.0138 0.28116 0.3296 0.0
C269 C 0.00692 0.25997 0.31891 0.0
C270 C 0.02323 0.24261 0.31441 0.0
C271 C 0.04645 0.24638 0.3207 0.0
H272 H 0.98895 0.25701 0.31405 0.0
H273 H 0.21441 0.29129 0.37651 0.0
H274 H 0.73237 0.23068 0.35811 0.0
H275 H 0.73979 0.20146 0.39277 0.0
H276 H 0.73713 0.14812 0.3323 0.0
H277 H 0.72989 0.17709 0.2977 0.0
H278 H 0.71527 0.13577 0.38014 0.0
H279 H 0.78626 0.17182 0.35042 0.0
H280 H 0.81197 0.20514 0.34368 0.0
H281 H 0.81477 0.2161 0.42912 0.0
H282 H 0.78814 0.18348 0.43634 0.0
H283 H 0.76949 0.04071 0.43552 0.0
H284 H 0.76279 0.07366 0.40581 0.0
H285 H 0.77657 0.12016 0.47174 0.0
H286 H 0.78416 0.08698 0.50126 0.0
H287 H 0.79158 0.13855 0.42526 0.0
H288 H 0.72137 0.10471 0.45635 0.0
H289 H 0.69377 0.07323 0.46524 0.0
H290 H 0.68891 0.05954 0.38045 0.0
H291 H 0.71678 0.09071 0.37108 0.0
C292 C 0.73276 0.21267 0.35234 0.0
C293 C 0.73059 0.20617 0.32516 0.0
C294 C 0.73722 0.19603 0.37212 0.0
C295 C 0.73937 0.17265 0.36503 0.0
C296 C 0.73565 0.16605 0.33821 0.0
C297 C 0.73149 0.18263 0.31845 0.0
C298 C 0.74672 0.15504 0.38495 0.0
C299 C 0.732 0.13632 0.38988 0.0
C300 C 0.76834 0.15612 0.39827 0.0
C301 C 0.78479 0.17543 0.39389 0.0
C302 C 0.79205 0.18152 0.36777 0.0
C303 C 0.80679 0.20031 0.36386 0.0
C304 C 0.8149 0.21281 0.38595 0.0
C305 C 0.80835 0.20649 0.41201 0.0
C306 C 0.79334 0.18792 0.41601 0.0
C307 C 0.77185 0.058 0.44334 0.0
C308 C 0.77759 0.06145 0.47044 0.0
C309 C 0.76777 0.07681 0.4265 0.0
C310 C 0.7686 0.09942 0.43669 0.0
C311 C 0.77574 0.10291 0.46343 0.0
C312 C 0.78018 0.08401 0.48024 0.0
C313 C 0.76028 0.11904 0.42 0.0
C314 C 0.77477 0.13812 0.41571 0.0
C315 C 0.7383 0.11853 0.40751 0.0
C316 C 0.72131 0.09994 0.41303 0.0
C317 C 0.71452 0.09489 0.43961 0.0
C318 C 0.69883 0.07711 0.44474 0.0
C319 C 0.68963 0.06436 0.42343 0.0
C320 C 0.69607 0.06941 0.39694 0.0
C321 C 0.7118 0.08715 0.3917 0.0
H322 H 0.67748 0.05059 0.42744 0.0
H323 H 0.82633 0.22735 0.3829 0.0
H324 H 0.78523 0.71655 0.33244 0.0
H325 H 0.81881 0.71043 0.3617 0.0
H326 H 0.85152 0.77073 0.32787 0.0
H327 H 0.81872 0.77643 0.29833 0.0
H328 H 0.88141 0.7381 0.32995 0.0
H329 H 0.82595 0.7699 0.39199 0.0
H330 H 0.78888 0.7722 0.41643 0.0
H331 H 0.80113 0.70557 0.4512 0.0
H332 H 0.83817 0.70276 0.42666 0.0
H333 H 0.96659 0.76319 0.42973 0.0
H334 H 0.93201 0.76502 0.40138 0.0
H335 H 0.91293 0.69645 0.42643 0.0
H336 H 0.94749 0.69429 0.4544 0.0
H337 H 0.87631 0.73017 0.42923 0.0
H338 H 0.93372 0.70068 0.36771 0.0
H339 H 0.97131 0.70087 0.34421 0.0
H340 H 0.95538 0.76666 0.30932 0.0
H341 H 0.91783 0.76702 0.33295 0.0
C342 C 0.79958 0.72848 0.33139 0.0
C343 C 0.79938 0.74686 0.31297 0.0
C344 C 0.81872 0.72504 0.34815 0.0
C345 C 0.8377 0.74018 0.34706 0.0
C346 C 0.83723 0.75869 0.32896 0.0
C347 C 0.81838 0.76194 0.31208 0.0
C348 C 0.85841 0.7368 0.3642 0.0
C349 C 0.88023 0.73659 0.35169 0.0
C350 C 0.85696 0.73437 0.39253 0.0
C351 C 0.83469 0.736 0.40723 0.0
C352 C 0.82064 0.75565 0.40466 0.0
C353 C 0.79966 0.75707 0.41857 0.0
C354 C 0.79262 0.73901 0.43529 0.0
C355 C 0.80659 0.71952 0.43819 0.0
C356 C 0.82758 0.71801 0.4243 0.0
C357 C 0.9551 0.74847 0.42906 0.0
C358 C 0.95984 0.72856 0.44415 0.0
C359 C 0.93539 0.74954 0.4129 0.0
C360 C 0.91999 0.73085 0.41187 0.0
C361 C 0.92461 0.71104 0.42702 0.0
C362 C 0.94445 0.70981 0.44282 0.0
C363 C 0.89907 0.73192 0.39493 0.0
C364 C 0.87732 0.7316 0.40747 0.0
C365 C 0.90055 0.73423 0.36667 0.0
C366 C 0.92306 0.73398 0.35231 0.0
C367 C 0.93832 0.71528 0.35521 0.0
C368 C 0.9596 0.71527 0.34183 0.0
C369 C 0.96575 0.7338 0.32533 0.0
C370 C 0.95061 0.75234 0.32213 0.0
C371 C 0.92931 0.75245 0.3355 0.0
H372 H 0.98224 0.73376 0.31499 0.0
H373 H 0.77637 0.74014 0.44605 0.0
H374 H 0.24953 0.82504 0.29048 0.0
H375 H 0.25324 0.85899 0.31932 0.0
H376 H 0.31234 0.82837 0.35812 0.0
H377 H 0.30808 0.79399 0.33008 0.0
H378 H 0.28623 0.84534 0.39456 0.0
H379 H 0.31617 0.87544 0.31207 0.0
H380 H 0.31668 0.88441 0.26355 0.0
H381 H 0.25567 0.92578 0.27294 0.0
H382 H 0.25461 0.91681 0.32147 0.0
H383 H 0.31487 0.94925 0.4653 0.0
H384 H 0.31773 0.91777 0.43232 0.0
H385 H 0.25043 0.93531 0.40163 0.0
H386 H 0.2473 0.96647 0.43461 0.0
H387 H 0.28386 0.92577 0.36082 0.0
H388 H 0.25348 0.89292 0.44319 0.0
H389 H 0.25411 0.88424 0.49178 0.0
H390 H 0.31841 0.84824 0.482 0.0
H391 H 0.31833 0.85702 0.43338 0.0
C392 C 0.26346 0.82564 0.30496 0.0
C393 C 0.27852 0.80681 0.30797 0.0
C394 C 0.26566 0.84515 0.32139 0.0
C395 C 0.28328 0.84649 0.34076 0.0
C396 C 0.29858 0.82782 0.3434 0.0
C397 C 0.29617 0.80818 0.32729 0.0
C398 C 0.28509 0.86679 0.35913 0.0
C399 C 0.28617 0.86289 0.38704 0.0
C400 C 0.28461 0.88981 0.34956 0.0
C401 C 0.28521 0.89529 0.32038 0.0
C402 C 0.30277 0.88632 0.30376 0.0
C403 C 0.30317 0.89142 0.27625 0.0
C404 C 0.28619 0.90561 0.26516 0.0
C405 C 0.2688 0.91477 0.28156 0.0
C406 C 0.26831 0.90971 0.30907 0.0
C407 C 0.3008 0.94653 0.45134 0.0
C408 C 0.28081 0.96027 0.45266 0.0
C409 C 0.30243 0.92852 0.43258 0.0
C410 C 0.28423 0.92416 0.41463 0.0
C411 C 0.26467 0.93839 0.41527 0.0
C412 C 0.26288 0.95613 0.43423 0.0
C413 C 0.28496 0.90415 0.39596 0.0
C414 C 0.28425 0.90815 0.36812 0.0
C415 C 0.28602 0.88123 0.40553 0.0
C416 C 0.28604 0.87587 0.43472 0.0
C417 C 0.26786 0.88334 0.45144 0.0
C418 C 0.2681 0.87837 0.47898 0.0
C419 C 0.28633 0.86576 0.48999 0.0
C420 C 0.30433 0.85805 0.47346 0.0
C421 C 0.30419 0.86301 0.44591 0.0
H422 H 0.28647 0.86192 0.51131 0.0
H423 H 0.28653 0.90954 0.24386 0.0
H424 H 0.1768 0.77308 0.72399 0.0
H425 H 0.14846 0.76921 0.68851 0.0
H426 H 0.19301 0.72146 0.64651 0.0
H427 H 0.22222 0.72591 0.68196 0.0
H428 H 0.17473 0.75081 0.61201 0.0
H429 H 0.14411 0.70287 0.68085 0.0
H430 H 0.13181 0.69181 0.72662 0.0
H431 H 0.08087 0.74561 0.72654 0.0
H432 H 0.09308 0.75722 0.68089 0.0
H433 H 0.07943 0.70692 0.53347 0.0
H434 H 0.11164 0.7116 0.56471 0.0
H435 H 0.08094 0.77414 0.59531 0.0
H436 H 0.04879 0.76991 0.56333 0.0
H437 H 0.09254 0.73556 0.63439 0.0
H438 H 0.12629 0.78411 0.5653 0.0
H439 H 0.13938 0.79351 0.51929 0.0
H440 H 0.18382 0.73424 0.5192 0.0
H441 H 0.17105 0.72455 0.56531 0.0
C442 C 0.18063 0.76155 0.70739 0.0
C443 C 0.20175 0.74961 0.70596 0.0
C444 C 0.16428 0.75931 0.68709 0.0
C445 C 0.16835 0.74469 0.66508 0.0
C446 C 0.18945 0.73275 0.66342 0.0
C447 C 0.20607 0.73522 0.68371 0.0
C448 C 0.15058 0.74253 0.64372 0.0
C449 C 0.15685 0.74709 0.6169 0.0
C450 C 0.12713 0.73799 0.65005 0.0
C451 C 0.11965 0.73103 0.6775 0.0
C452 C 0.1304 0.71245 0.69066 0.0
C453 C 0.12342 0.70607 0.71657 0.0
C454 C 0.10561 0.71803 0.7295 0.0
C455 C 0.09468 0.73637 0.71651 0.0
C456 C 0.10161 0.74284 0.69059 0.0
C457 C 0.07965 0.7218 0.54669 0.0
C458 C 0.06156 0.73797 0.54625 0.0
C459 C 0.09811 0.7245 0.56436 0.0
C460 C 0.09859 0.74318 0.58222 0.0
C461 C 0.08081 0.75965 0.58152 0.0
C462 C 0.06254 0.75725 0.56332 0.0
C463 C 0.11671 0.74428 0.60304 0.0
C464 C 0.11047 0.73928 0.62967 0.0
C465 C 0.14017 0.74798 0.59646 0.0
C466 C 0.14759 0.75352 0.56863 0.0
C467 C 0.13873 0.77299 0.55538 0.0
C468 C 0.14619 0.77844 0.52936 0.0
C469 C 0.16243 0.76448 0.51633 0.0
C470 C 0.17127 0.74506 0.52933 0.0
C471 C 0.164 0.73963 0.55545 0.0
H472 H 0.1681 0.76867 0.49613 0.0
H473 H 0.10023 0.71306 0.74957 0.0
H474 H 0.29449 0.21105 0.70105 0.0
H475 H 0.30073 0.17715 0.67292 0.0
H476 H 0.24227 0.14369 0.71018 0.0
H477 H 0.23626 0.17757 0.73907 0.0
H478 H 0.2759 0.11285 0.69951 0.0
H479 H 0.23581 0.17077 0.65094 0.0
H480 H 0.22814 0.20974 0.63328 0.0
H481 H 0.29156 0.20761 0.58828 0.0
H482 H 0.29981 0.16876 0.60604 0.0
H483 H 0.24527 0.04203 0.58649 0.0
H484 H 0.24632 0.07085 0.6224 0.0
H485 H 0.31354 0.09311 0.59535 0.0
H486 H 0.31285 0.06376 0.55951 0.0
H487 H 0.27664 0.12881 0.60132 0.0
H488 H 0.31354 0.06713 0.65023 0.0
H489 H 0.31658 0.02735 0.6673 0.0
H490 H 0.25275 0.03565 0.71052 0.0
H491 H 0.24916 0.07539 0.69338 0.0
C492 C 0.28314 0.19636 0.70357 0.0
C493 C 0.26472 0.19706 0.72206 0.0
C494 C 0.2867 0.17701 0.68741 0.0
C495 C 0.27165 0.1581 0.689 0.0
C496 C 0.25403 0.15815 0.70854 0.0
C497 C 0.25061 0.17749 0.72502 0.0
C498 C 0.27351 0.13912 0.66901 0.0
C499 C 0.27589 0.11632 0.67805 0.0
C500 C 0.2735 0.14363 0.64096 0.0
C501 C 0.26855 0.16694 0.63005 0.0
C502 C 0.24821 0.17868 0.63744 0.0
C503 C 0.24374 0.20074 0.6274 0.0
C504 C 0.25938 0.21116 0.60972 0.0
C505 C 0.27949 0.19953 0.602 0.0
C506 C 0.28406 0.17748 0.61205 0.0
C507 C 0.26041 0.05289 0.58835 0.0
C508 C 0.27897 0.05074 0.57017 0.0
C509 C 0.261 0.06926 0.60893 0.0
C510 C 0.28001 0.08402 0.61151 0.0
C511 C 0.29876 0.08177 0.59366 0.0
C512 C 0.29838 0.065 0.57332 0.0
C513 C 0.27944 0.10268 0.63184 0.0
C514 C 0.277 0.12542 0.6228 0.0
C515 C 0.27874 0.098 0.65978 0.0
C516 C 0.28099 0.07419 0.67033 0.0
C517 C 0.30006 0.06042 0.66319 0.0
C518 C 0.3019 0.03788 0.67292 0.0
C519 C 0.28484 0.02896 0.68993 0.0
C520 C 0.26594 0.04258 0.69732 0.0
C521 C 0.26401 0.06512 0.68763 0.0
H522 H 0.28629 0.01151 0.69743 0.0
H523 H 0.2559 0.22824 0.60196 0.0
H524 H 0.8243 0.25798 0.71722 0.0
H525 H 0.85467 0.26524 0.68454 0.0
H526 H 0.81488 0.32092 0.65064 0.0
H527 H 0.78369 0.31318 0.68317 0.0
H528 H 0.83408 0.29624 0.61152 0.0
H529 H 0.86278 0.33167 0.69075 0.0
H530 H 0.87244 0.3351 0.7389 0.0
H531 H 0.92018 0.27877 0.73156 0.0
H532 H 0.91057 0.27476 0.68345 0.0
H533 H 0.93719 0.32367 0.53477 0.0
H534 H 0.90556 0.32844 0.56746 0.0
H535 H 0.92453 0.26429 0.60518 0.0
H536 H 0.95576 0.25922 0.57249 0.0
H537 H 0.91547 0.30132 0.64197 0.0
H538 H 0.88181 0.26357 0.56387 0.0
H539 H 0.87197 0.26087 0.51569 0.0
H540 H 0.83372 0.32414 0.52128 0.0
H541 H 0.84363 0.32738 0.56945 0.0
C542 C 0.82193 0.27189 0.70297 0.0
C543 C 0.80158 0.28515 0.70303 0.0
C544 C 0.83945 0.27611 0.6843 0.0
C545 C 0.8374 0.294 0.66546 0.0
C546 C 0.81697 0.30713 0.66512 0.0
C547 C 0.79918 0.30274 0.68375 0.0
C548 C 0.85655 0.29832 0.64596 0.0
C549 C 0.85181 0.2979 0.61823 0.0
C550 C 0.87979 0.30035 0.65458 0.0
C551 C 0.88585 0.30285 0.68348 0.0
C552 C 0.87525 0.31992 0.69942 0.0
C553 C 0.88073 0.32198 0.72672 0.0
C554 C 0.8969 0.30714 0.73828 0.0
C555 C 0.90767 0.29025 0.72256 0.0
C556 C 0.90224 0.28811 0.69527 0.0
C557 C 0.93473 0.31071 0.5502 0.0
C558 C 0.94894 0.29104 0.55101 0.0
C559 C 0.91662 0.31342 0.56877 0.0
C560 C 0.91267 0.29666 0.58867 0.0
C561 C 0.92729 0.27742 0.59001 0.0
C562 C 0.94509 0.27452 0.57124 0.0
C563 C 0.89296 0.29858 0.60776 0.0
C564 C 0.89766 0.30016 0.63538 0.0
C565 C 0.86973 0.29788 0.59904 0.0
C566 C 0.86371 0.29587 0.57015 0.0
C567 C 0.87149 0.27702 0.55476 0.0
C568 C 0.86586 0.27536 0.52747 0.0
C569 C 0.8523 0.29236 0.51541 0.0
C570 C 0.84427 0.31101 0.53064 0.0
C571 C 0.84988 0.31276 0.55793 0.0
H572 H 0.84795 0.29105 0.49428 0.0
H573 H 0.9011 0.30875 0.75942 0.0
H574 H 0.73612 0.79723 0.68914 0.0
H575 H 0.74226 0.83022 0.6596 0.0
H576 H 0.80088 0.85104 0.70717 0.0
H577 H 0.79437 0.81827 0.73743 0.0
H578 H 0.77735 0.88799 0.69154 0.0
H579 H 0.80799 0.82177 0.64726 0.0
H580 H 0.80799 0.78198 0.62961 0.0
H581 H 0.75226 0.79884 0.57641 0.0
H582 H 0.7516 0.83862 0.59403 0.0
H583 H 0.81259 0.96404 0.58333 0.0
H584 H 0.8142 0.93188 0.61558 0.0
H585 H 0.74844 0.9073 0.5869 0.0
H586 H 0.74656 0.93931 0.55516 0.0
H587 H 0.78183 0.87213 0.59343 0.0
H588 H 0.74937 0.93729 0.64208 0.0
H589 H 0.75006 0.97705 0.65972 0.0
H590 H 0.81156 0.96182 0.70437 0.0
H591 H 0.81143 0.92203 0.68663 0.0
C592 C 0.75018 0.80894 0.69354 0.0
C593 C 0.76485 0.80501 0.71556 0.0
C594 C 0.75378 0.82775 0.67649 0.0
C595 C 0.77241 0.84282 0.6807 0.0
C596 C 0.78649 0.83957 0.70337 0.0
C597 C 0.78272 0.82084 0.72068 0.0
C598 C 0.77733 0.86156 0.66099 0.0
C599 C 0.77877 0.88445 0.67014 0.0
C600 C 0.77914 0.85704 0.63299 0.0
C601 C 0.77965 0.83317 0.62211 0.0
C602 C 0.79564 0.81697 0.63191 0.0
C603 C 0.79576 0.79442 0.62191 0.0
C604 C 0.78013 0.7879 0.60195 0.0
C605 C 0.76436 0.80392 0.59189 0.0
C606 C 0.76411 0.82648 0.60186 0.0
C607 C 0.79862 0.95163 0.58377 0.0
C608 C 0.7794 0.95426 0.5668 0.0
C609 C 0.79951 0.93335 0.60225 0.0
C610 C 0.78137 0.91728 0.6037 0.0
C611 C 0.76262 0.91949 0.58612 0.0
C612 C 0.76154 0.93786 0.56806 0.0
C613 C 0.78127 0.89846 0.62397 0.0
C614 C 0.78077 0.87556 0.61488 0.0
C615 C 0.78057 0.90295 0.65198 0.0
C616 C 0.78056 0.92679 0.66277 0.0
C617 C 0.76316 0.94249 0.65546 0.0
C618 C 0.76342 0.96501 0.66551 0.0
C619 C 0.78088 0.97198 0.68308 0.0
C620 C 0.79807 0.95641 0.6907 0.0
C621 C 0.79791 0.93387 0.68067 0.0
H622 H 0.78106 0.98943 0.69085 0.0
H623 H 0.78026 0.77043 0.59425 0.0
H624 H 0.82584 0.71591 0.72153 0.0
H625 H 0.85913 0.70847 0.69259 0.0
H626 H 0.81409 0.70179 0.624 0.0
H627 H 0.78046 0.70849 0.65323 0.0
H628 H 0.84875 0.672 0.61947 0.0
H629 H 0.84225 0.75262 0.63746 0.0
H630 H 0.83844 0.78755 0.66558 0.0
H631 H 0.90316 0.77248 0.7036 0.0
H632 H 0.90719 0.73727 0.67604 0.0
H633 H 0.94988 0.73386 0.54382 0.0
H634 H 0.9159 0.73396 0.57251 0.0
H635 H 0.93006 0.66379 0.5961 0.0
H636 H 0.96404 0.66331 0.56628 0.0
H637 H 0.91018 0.73154 0.6227 0.0
H638 H 0.87923 0.6369 0.61358 0.0
H639 H 0.88015 0.60496 0.58072 0.0
H640 H 0.88579 0.65352 0.51582 0.0
H641 H 0.88462 0.68574 0.54826 0.0
C642 C 0.82296 0.7126 0.70034 0.0
C643 C 0.80052 0.71302 0.68962 0.0
C644 C 0.84204 0.7084 0.68378 0.0
C645 C 0.83922 0.70507 0.65597 0.0
C646 C 0.81674 0.70439 0.64538 0.0
C647 C 0.79752 0.70825 0.66208 0.0
C648 C 0.85982 0.70373 0.63794 0.0
C649 C 0.86222 0.68498 0.62021 0.0
C650 C 0.8772 0.72092 0.63838 0.0
C651 C 0.87491 0.74218 0.65486 0.0
C652 C 0.85559 0.75667 0.65195 0.0
C653 C 0.85339 0.77653 0.66776 0.0
C654 C 0.87051 0.78219 0.68638 0.0
C655 C 0.88989 0.76805 0.68919 0.0
C656 C 0.89215 0.74815 0.67347 0.0
C657 C 0.9459 0.71838 0.55509 0.0
C658 C 0.95981 0.69857 0.55276 0.0
C659 C 0.92637 0.71849 0.57159 0.0
C660 C 0.92021 0.69889 0.58649 0.0
C661 C 0.93418 0.67906 0.58451 0.0
C662 C 0.9537 0.67883 0.5676 0.0
C663 C 0.89933 0.6997 0.60422 0.0
C664 C 0.89685 0.71842 0.622 0.0
C665 C 0.88155 0.68292 0.60307 0.0
C666 C 0.88211 0.66369 0.58339 0.0
C667 C 0.88061 0.64075 0.59229 0.0
C668 C 0.88118 0.6226 0.57374 0.0
C669 C 0.88312 0.6272 0.54621 0.0
C670 C 0.8844 0.64997 0.53716 0.0
C671 C 0.88381 0.66818 0.55562 0.0
H672 H 0.88357 0.61313 0.53188 0.0
H673 H 0.86878 0.79757 0.6986 0.0
H674 H 0.26772 0.82956 0.72208 0.0
H675 H 0.2649 0.861 0.68966 0.0
H676 H 0.19705 0.8779 0.71984 0.0
H677 H 0.19986 0.84636 0.75273 0.0
H678 H 0.19923 0.87274 0.66306 0.0
H679 H 0.23863 0.91457 0.73184 0.0
H680 H 0.26852 0.92135 0.76618 0.0
H681 H 0.32131 0.91748 0.70541 0.0
H682 H 0.29177 0.91033 0.67074 0.0
H683 H 0.19929 0.96955 0.57072 0.0
H684 H 0.19486 0.94452 0.61028 0.0
H685 H 0.26602 0.92339 0.60249 0.0
H686 H 0.27063 0.94843 0.5636 0.0
H687 H 0.2574 0.93487 0.65259 0.0
H688 H 0.22003 0.88781 0.58547 0.0
H689 H 0.19141 0.87887 0.55033 0.0
H690 H 0.13627 0.89073 0.60672 0.0
H691 H 0.16459 0.90003 0.64214 0.0
C692 C 0.25236 0.84023 0.72221 0.0
C693 C 0.23405 0.83553 0.74004 0.0
C694 C 0.25077 0.85821 0.70365 0.0
C695 C 0.23077 0.87183 0.70233 0.0
C696 C 0.21264 0.86761 0.72055 0.0
C697 C 0.21436 0.84974 0.73948 0.0
C698 C 0.22865 0.88952 0.68085 0.0
C699 C 0.21161 0.88669 0.66105 0.0
C700 C 0.24512 0.90736 0.67792 0.0
C701 C 0.26296 0.91178 0.6987 0.0
C702 C 0.25662 0.915 0.72582 0.0
C703 C 0.27351 0.91894 0.74534 0.0
C704 C 0.2968 0.91981 0.73799 0.0
C705 C 0.30326 0.9168 0.71108 0.0
C706 C 0.28644 0.91284 0.69147 0.0
C707 C 0.21387 0.95932 0.57727 0.0
C708 C 0.23533 0.96109 0.56405 0.0
C709 C 0.21133 0.94503 0.5999 0.0
C710 C 0.23015 0.93208 0.60949 0.0
C711 C 0.25131 0.93335 0.59573 0.0
C712 C 0.25388 0.94765 0.57336 0.0
C713 C 0.22839 0.91773 0.63429 0.0
C714 C 0.24474 0.92121 0.65476 0.0
C715 C 0.21145 0.90035 0.63765 0.0
C716 C 0.19441 0.89492 0.61634 0.0
C717 C 0.2018 0.88873 0.59031 0.0
C718 C 0.18563 0.88355 0.57035 0.0
C719 C 0.16203 0.88431 0.57626 0.0
C720 C 0.15455 0.8902 0.60216 0.0
C721 C 0.17065 0.89542 0.62218 0.0
H722 H 0.14954 0.88028 0.56079 0.0
H723 H 0.30985 0.92286 0.75313 0.0
H724 H 0.1818 0.26343 0.71598 0.0
H725 H 0.15017 0.25966 0.68406 0.0
H726 H 0.19574 0.27956 0.61922 0.0
H727 H 0.2275 0.28405 0.65143 0.0
H728 H 0.15552 0.29805 0.61104 0.0
H729 H 0.18069 0.22245 0.62951 0.0
H730 H 0.19248 0.18918 0.6571 0.0
H731 H 0.12469 0.18596 0.69218 0.0
H732 H 0.11256 0.21945 0.66511 0.0
H733 H 0.06238 0.22076 0.53747 0.0
H734 H 0.0977 0.22356 0.56444 0.0
H735 H 0.07674 0.29101 0.59203 0.0
H736 H 0.04226 0.28875 0.56412 0.0
H737 H 0.10886 0.2263 0.61328 0.0
H738 H 0.12059 0.32604 0.60426 0.0
H739 H 0.11301 0.35684 0.57123 0.0
H740 H 0.11436 0.3072 0.50703 0.0
H741 H 0.12227 0.27615 0.5396 0.0
C742 C 0.18511 0.2672 0.69496 0.0
C743 C 0.20725 0.27395 0.68626 0.0
C744 C 0.167 0.26487 0.67665 0.0
C745 C 0.1706 0.26877 0.64904 0.0
C746 C 0.19249 0.27631 0.64037 0.0
C747 C 0.21065 0.27892 0.65881 0.0
C748 C 0.15147 0.26472 0.62946 0.0
C749 C 0.14535 0.28235 0.61151 0.0
C750 C 0.13865 0.24388 0.62921 0.0
C751 C 0.14576 0.22359 0.64541 0.0
C752 C 0.16833 0.21475 0.64324 0.0
C753 C 0.17508 0.19584 0.65877 0.0
C754 C 0.15936 0.1855 0.67641 0.0
C755 C 0.13685 0.19401 0.67851 0.0
C756 C 0.13002 0.21294 0.66305 0.0
C757 C 0.06532 0.23613 0.5494 0.0
C758 C 0.04963 0.25461 0.54846 0.0
C759 C 0.08554 0.23774 0.56482 0.0
C760 C 0.09035 0.25776 0.57988 0.0
C761 C 0.07401 0.2757 0.57995 0.0
C762 C 0.05413 0.2743 0.56414 0.0
C763 C 0.1123 0.26001 0.59552 0.0
C764 C 0.11903 0.24199 0.61269 0.0
C765 C 0.12628 0.28011 0.59421 0.0
C766 C 0.12183 0.29874 0.57443 0.0
C767 C 0.11938 0.32171 0.58308 0.0
C768 C 0.11501 0.33921 0.56444 0.0
C769 C 0.11314 0.33397 0.53706 0.0
C770 C 0.11574 0.31123 0.52825 0.0
C771 C 0.12015 0.29367 0.5468 0.0
H772 H 0.10973 0.34754 0.52267 0.0
H773 H 0.16462 0.17086 0.68843 0.0
H774 H 0.73039 0.21314 0.70437 0.0
H775 H 0.7242 0.17952 0.6759 0.0
H776 H 0.77456 0.14145 0.72162 0.0
H777 H 0.7811 0.17533 0.75029 0.0
H778 H 0.78129 0.13774 0.66697 0.0
H779 H 0.71636 0.13084 0.72819 0.0
H780 H 0.6815 0.14517 0.75151 0.0
H781 H 0.64837 0.15637 0.67543 0.0
H782 H 0.68314 0.14247 0.65164 0.0
H783 H 0.76502 0.03251 0.60287 0.0
H784 H 0.76518 0.06161 0.63839 0.0
H785 H 0.70917 0.09726 0.59924 0.0
H786 H 0.70829 0.06732 0.56414 0.0
H787 H 0.70464 0.10188 0.65157 0.0
H788 H 0.76641 0.11333 0.58972 0.0
H789 H 0.80043 0.10278 0.56237 0.0
H790 H 0.83864 0.0879 0.63424 0.0
H791 H 0.8047 0.09802 0.66203 0.0
C792 C 0.74012 0.19761 0.70858 0.0
C793 C 0.7563 0.19698 0.72968 0.0
C794 C 0.73641 0.17831 0.69231 0.0
C795 C 0.74868 0.15783 0.69678 0.0
C796 C 0.7648 0.15705 0.71788 0.0
C797 C 0.76849 0.1764 0.73429 0.0
C798 C 0.74545 0.1377 0.67854 0.0
C799 C 0.76462 0.12959 0.66403 0.0
C800 C 0.72347 0.12777 0.67372 0.0
C801 C 0.70243 0.13576 0.68812 0.0
C802 C 0.70169 0.13649 0.71643 0.0
C803 C 0.68194 0.14452 0.72973 0.0
C804 C 0.66276 0.15172 0.71495 0.0
C805 C 0.66325 0.15081 0.68685 0.0
C806 C 0.68296 0.14283 0.67345 0.0
C807 C 0.75243 0.04631 0.60214 0.0
C808 C 0.73675 0.04779 0.58069 0.0
C809 C 0.75263 0.06304 0.62236 0.0
C810 C 0.73769 0.08208 0.62111 0.0
C811 C 0.72101 0.08285 0.60056 0.0
C812 C 0.72046 0.06574 0.58055 0.0
C813 C 0.74057 0.10171 0.64026 0.0
C814 C 0.72136 0.10984 0.65476 0.0
C815 C 0.76241 0.11216 0.64456 0.0
C816 C 0.78294 0.10621 0.62795 0.0
C817 C 0.78202 0.10766 0.59969 0.0
C818 C 0.80129 0.10177 0.58411 0.0
C819 C 0.82167 0.09462 0.59656 0.0
C820 C 0.82283 0.0934 0.62462 0.0
C821 C 0.80358 0.09923 0.64031 0.0
H822 H 0.83657 0.09007 0.58446 0.0
H823 H 0.64749 0.15798 0.72521 0.0
H824 H 0.80877 0.27185 0.29943 0.0
H825 H 0.84311 0.26818 0.32736 0.0
H826 H 0.8556 0.2003 0.29492 0.0
H827 H 0.82106 0.20399 0.26649 0.0
H828 H 0.85544 0.20211 0.35162 0.0
H829 H 0.89301 0.24059 0.27959 0.0
H830 H 0.89828 0.27002 0.24433 0.0
H831 H 0.89975 0.32319 0.30452 0.0
H832 H 0.89413 0.29413 0.34014 0.0
H833 H 0.95507 0.20397 0.43997 0.0
H834 H 0.92825 0.19842 0.40221 0.0
H835 H 0.90886 0.27014 0.40686 0.0
H836 H 0.93554 0.27582 0.44392 0.0
H837 H 0.91837 0.25978 0.35712 0.0
H838 H 0.8727 0.22635 0.42734 0.0
H839 H 0.86153 0.20004 0.46408 0.0
H840 H 0.86899 0.14201 0.41098 0.0
H841 H 0.88054 0.16798 0.37399 0.0
C842 C 0.81907 0.25632 0.29777 0.0
C843 C 0.81226 0.23825 0.28065 0.0
C844 C 0.83875 0.25426 0.31372 0.0
C845 C 0.85204 0.23403 0.31312 0.0
C846 C 0.84567 0.21612 0.29556 0.0
C847 C 0.82605 0.21831 0.27921 0.0
C848 C 0.87135 0.23133 0.33253 0.0
C849 C 0.86943 0.21448 0.35266 0.0
C850 C 0.88951 0.24758 0.33391 0.0
C851 C 0.89304 0.26515 0.31255 0.0
C852 C 0.89429 0.25857 0.28531 0.0
C853 C 0.89737 0.27519 0.26525 0.0
C854 C 0.89933 0.29846 0.27218 0.0
C855 C 0.89825 0.30516 0.29919 0.0
C856 C 0.89516 0.28861 0.31933 0.0
C857 C 0.94484 0.21845 0.43312 0.0
C858 C 0.94761 0.24037 0.44486 0.0
C859 C 0.92951 0.21526 0.41154 0.0
C860 C 0.91659 0.23391 0.4015 0.0
C861 C 0.91879 0.25554 0.41393 0.0
C862 C 0.93407 0.25873 0.43526 0.0
C863 C 0.90144 0.23158 0.37741 0.0
C864 C 0.90443 0.24731 0.35615 0.0
C865 C 0.88372 0.21482 0.37551 0.0
C866 C 0.87798 0.19906 0.39805 0.0
C867 C 0.87239 0.20794 0.42362 0.0
C868 C 0.86586 0.1931 0.44446 0.0
C869 C 0.86468 0.16935 0.43992 0.0
C870 C 0.87002 0.1604 0.41451 0.0
C871 C 0.87658 0.17517 0.39361 0.0
H872 H 0.85953 0.1579 0.45604 0.0
H873 H 0.9017 0.3113 0.25662 0.0
H874 H 0.71987 0.8203 0.30385 0.0
H875 H 0.71673 0.85259 0.33526 0.0
H876 H 0.78034 0.88086 0.30426 0.0
H877 H 0.78348 0.84854 0.27236 0.0
H878 H 0.77902 0.87552 0.36109 0.0
H879 H 0.73218 0.90836 0.29131 0.0
H880 H 0.70061 0.90865 0.25813 0.0
H881 H 0.65092 0.89919 0.32155 0.0
H882 H 0.68223 0.8985 0.35509 0.0
H883 H 0.77804 0.97539 0.44054 0.0
H884 H 0.77828 0.94929 0.4021 0.0
H885 H 0.70917 0.92714 0.42202 0.0
H886 H 0.70854 0.95405 0.46026 0.0
H887 H 0.71334 0.93007 0.3694 0.0
H888 H 0.75774 0.89455 0.43858 0.0
H889 H 0.78787 0.89163 0.47336 0.0
H890 H 0.84037 0.90259 0.41344 0.0
H891 H 0.8105 0.90591 0.37834 0.0
C892 C 0.73303 0.83358 0.30338 0.0
C893 C 0.75195 0.83186 0.28563 0.0
C894 C 0.73115 0.85207 0.32131 0.0
C895 C 0.74826 0.86916 0.32209 0.0
C896 C 0.76691 0.86786 0.30394 0.0
C897 C 0.76862 0.84948 0.28563 0.0
C898 C 0.74739 0.88735 0.3432 0.0
C899 C 0.76491 0.88778 0.36261 0.0
C900 C 0.72846 0.90265 0.34582 0.0
C901 C 0.70958 0.90319 0.3257 0.0
C902 C 0.71454 0.90615 0.29817 0.0
C903 C 0.69668 0.90643 0.2793 0.0
C904 C 0.67377 0.90389 0.28772 0.0
C905 C 0.66867 0.90113 0.31505 0.0
C906 C 0.68646 0.90083 0.334 0.0
C907 C 0.76282 0.96504 0.43675 0.0
C908 C 0.74335 0.96661 0.45368 0.0
C909 C 0.76302 0.95002 0.41476 0.0
C910 C 0.74397 0.93577 0.40944 0.0
C911 C 0.72415 0.93784 0.42576 0.0
C912 C 0.72381 0.95319 0.44764 0.0
C913 C 0.74511 0.9184 0.38728 0.0
C914 C 0.72758 0.91799 0.36779 0.0
C915 C 0.76383 0.90275 0.38483 0.0
C916 C 0.78186 0.90072 0.40588 0.0
C917 C 0.77569 0.89652 0.43285 0.0
C918 C 0.79273 0.89476 0.45262 0.0
C919 C 0.81602 0.89698 0.44563 0.0
C920 C 0.82232 0.90091 0.41884 0.0
C921 C 0.80535 0.90271 0.39899 0.0
H922 H 0.82918 0.89561 0.46096 0.0
H923 H 0.65998 0.9041 0.27308 0.0
H924 H 0.24555 0.68682 0.3503 0.0
H925 H 0.21194 0.67675 0.37841 0.0
H926 H 0.17588 0.73669 0.34916 0.0
H927 H 0.20898 0.74669 0.32112 0.0
H928 H 0.1719 0.73155 0.40446 0.0
H929 H 0.16413 0.68522 0.32343 0.0
H930 H 0.17692 0.65614 0.29032 0.0
H931 H 0.18048 0.60512 0.35277 0.0
H932 H 0.168 0.63403 0.38633 0.0
H933 H 0.05509 0.72095 0.42494 0.0
H934 H 0.09203 0.72061 0.40131 0.0
H935 H 0.11093 0.65779 0.44201 0.0
H936 H 0.07348 0.65784 0.46566 0.0
H937 H 0.12705 0.66007 0.38748 0.0
H938 H 0.13006 0.70531 0.46775 0.0
H939 H 0.11449 0.73395 0.49975 0.0
H940 H 0.11983 0.78667 0.43945 0.0
H941 H 0.13503 0.75826 0.4069 0.0
C942 C 0.2305 0.69789 0.35003 0.0
C943 C 0.22994 0.71751 0.33338 0.0
C944 C 0.21129 0.69208 0.36601 0.0
C945 C 0.19134 0.70593 0.36581 0.0
C946 C 0.19105 0.72576 0.34969 0.0
C947 C 0.21001 0.7314 0.33356 0.0
C948 C 0.17043 0.69988 0.38184 0.0
C949 C 0.16214 0.71591 0.40075 0.0
C950 C 0.15795 0.67918 0.37757 0.0
C951 C 0.16545 0.66184 0.35743 0.0
C952 C 0.16786 0.66786 0.33014 0.0
C953 C 0.175 0.6514 0.31128 0.0
C954 C 0.17959 0.62881 0.31945 0.0
C955 C 0.17698 0.62263 0.34648 0.0
C956 C 0.16987 0.63904 0.36542 0.0
C957 C 0.06686 0.70676 0.42849 0.0
C958 C 0.06146 0.68954 0.44737 0.0
C959 C 0.08802 0.70663 0.415 0.0
C960 C 0.10446 0.68947 0.42035 0.0
C961 C 0.09853 0.67127 0.43771 0.0
C962 C 0.07712 0.67128 0.45114 0.0
C963 C 0.1283 0.69204 0.40948 0.0
C964 C 0.13712 0.67543 0.39163 0.0
C965 C 0.14142 0.71215 0.41483 0.0
C966 C 0.13353 0.72959 0.4348 0.0
C967 C 0.12785 0.72299 0.46127 0.0
C968 C 0.11901 0.73916 0.47949 0.0
C969 C 0.11599 0.76206 0.47156 0.0
C970 C 0.12209 0.7689 0.44551 0.0
C971 C 0.13084 0.75277 0.42718 0.0
H972 H 0.10903 0.77453 0.48563 0.0
H973 H 0.1851 0.61609 0.30482 0.0
H974 H 0.22986 0.18576 0.283 0.0
H975 H 0.22917 0.15605 0.31751 0.0
H976 H 0.27661 0.19566 0.36569 0.0
H977 H 0.27731 0.22594 0.33101 0.0
H978 H 0.28729 0.1471 0.36119 0.0
H979 H 0.22245 0.19555 0.38575 0.0
H980 H 0.18654 0.21705 0.37681 0.0
H981 H 0.15375 0.1549 0.34965 0.0
H982 H 0.18943 0.13296 0.35864 0.0
H983 H 0.27603 0.07664 0.47565 0.0
H984 H 0.27705 0.10951 0.44512 0.0
H985 H 0.21697 0.0832 0.404 0.0
H986 H 0.2151 0.05091 0.43587 0.0
H987 H 0.21321 0.12664 0.4057 0.0
H988 H 0.27589 0.07769 0.3794 0.0
H989 H 0.31124 0.05459 0.3855 0.0
H990 H 0.34805 0.11508 0.41077 0.0
H991 H 0.31283 0.1385 0.40514 0.0
C992 C 0.24029 0.18826 0.30083 0.0
C993 C 0.25365 0.20835 0.30419 0.0
C994 C 0.23975 0.17122 0.32063 0.0
C995 C 0.25259 0.17375 0.34431 0.0
C996 C 0.26647 0.19344 0.34758 0.0
C997 C 0.26687 0.21071 0.32776 0.0
C998 C 0.25134 0.15564 0.36544 0.0
C999 C 0.27122 0.14286 0.37135 0.0
C1000 C 0.23017 0.14956 0.37786 0.0
C1001 C 0.20864 0.16266 0.37269 0.0
C1002 C 0.20761 0.18649 0.37774 0.0
C1003 C 0.1873 0.19876 0.37268 0.0
C1004 C 0.16794 0.1874 0.36247 0.0
C1005 C 0.16878 0.16369 0.35752 0.0
C1006 C 0.189 0.15131 0.3627 0.0
C1007 C 0.26298 0.07792 0.46015 0.0
C1008 C 0.2456 0.06111 0.45797 0.0
C1009 C 0.26367 0.09666 0.44252 0.0
C1010 C 0.24752 0.09862 0.42158 0.0
C1011 C 0.22976 0.0821 0.41981 0.0
C1012 C 0.22868 0.06361 0.43799 0.0
C1013 C 0.24925 0.11785 0.40163 0.0
C1014 C 0.2294 0.13084 0.3958 0.0
C1015 C 0.27041 0.12382 0.38884 0.0
C1016 C 0.29166 0.1098 0.39209 0.0
C1017 C 0.29148 0.08604 0.38642 0.0
C1018 C 0.3115 0.07289 0.38977 0.0
C1019 C 0.33186 0.08335 0.39859 0.0
C1020 C 0.33226 0.107 0.40398 0.0
C1021 C 0.31228 0.12022 0.40069 0.0
H1022 H 0.34734 0.07314 0.40118 0.0
H1023 H 0.15226 0.19696 0.35849 0.0
H1024 H 0.67364 0.7101 0.75525 0.0
H1025 H 0.64248 0.70564 0.78836 0.0
H1026 H 0.6691 0.76353 0.8332 0.0
H1027 H 0.7005 0.76763 0.80071 0.0
H1028 H 0.66205 0.72959 0.86588 0.0
H1029 H 0.61716 0.76516 0.79598 0.0
H1030 H 0.60119 0.76941 0.75028 0.0
H1031 H 0.56853 0.70318 0.75695 0.0
H1032 H 0.58456 0.69842 0.80259 0.0
H1033 H 0.56902 0.7596 0.95129 0.0
H1034 H 0.5977 0.75788 0.91524 0.0
H1035 H 0.57211 0.69114 0.89138 0.0
H1036 H 0.54335 0.69256 0.92802 0.0
H1037 H 0.57804 0.72442 0.84776 0.0
H1038 H 0.62167 0.69051 0.91929 0.0
H1039 H 0.63788 0.68717 0.96498 0.0
H1040 H 0.67273 0.75196 0.95508 0.0
H1041 H 0.65649 0.75583 0.90944 0.0
C1042 C 0.67252 0.72221 0.77183 0.0
C1043 C 0.68957 0.73923 0.77532 0.0
C1044 C 0.65469 0.71961 0.79081 0.0
C1045 C 0.65336 0.73423 0.81341 0.0
C1046 C 0.66979 0.7519 0.81613 0.0
C1047 C 0.68768 0.75433 0.79739 0.0
C1048 C 0.63588 0.73046 0.83515 0.0
C1049 C 0.64368 0.7287 0.86184 0.0
C1050 C 0.61189 0.7285 0.82999 0.0
C1051 C 0.60228 0.73132 0.80256 0.0
C1052 C 0.60674 0.75142 0.78761 0.0
C1053 C 0.59764 0.75394 0.76174 0.0
C1054 C 0.58392 0.73654 0.75069 0.0
C1055 C 0.5792 0.71662 0.76552 0.0
C1056 C 0.58827 0.71401 0.79139 0.0
C1057 C 0.56951 0.74446 0.93851 0.0
C1058 C 0.55387 0.7262 0.94254 0.0
C1059 C 0.58598 0.74349 0.91794 0.0
C1060 C 0.5871 0.72437 0.90066 0.0
C1061 C 0.57155 0.70605 0.90453 0.0
C1062 C 0.55522 0.70683 0.92552 0.0
C1063 C 0.60429 0.72411 0.87832 0.0
C1064 C 0.59646 0.72508 0.85162 0.0
C1065 C 0.62826 0.72555 0.88341 0.0
C1066 C 0.6377 0.72353 0.91104 0.0
C1067 C 0.6326 0.70415 0.92696 0.0
C1068 C 0.64185 0.70214 0.95282 0.0
C1069 C 0.65629 0.71936 0.96294 0.0
C1070 C 0.66151 0.73865 0.94723 0.0
C1071 C 0.6523 0.74076 0.92136 0.0
H1072 H 0.66347 0.71775 0.98294 0.0
H1073 H 0.57688 0.73853 0.73066 0.0
H1074 H 0.1876 0.73777 0.84572 0.0
H1075 H 0.17882 0.70333 0.87256 0.0
H1076 H 0.23607 0.66771 0.83532 0.0
H1077 H 0.24443 0.70154 0.80812 0.0
H1078 H 0.2012 0.64002 0.83733 0.0
H1079 H 0.23785 0.69123 0.90098 0.0
H1080 H 0.24247 0.72722 0.92694 0.0
H1081 H 0.17548 0.71756 0.96255 0.0
H1082 H 0.17036 0.68164 0.93654 0.0
H1083 H 0.23524 0.55434 0.9295 0.0
H1084 H 0.23101 0.58828 0.90098 0.0
H1085 H 0.16618 0.6043 0.93968 0.0
H1086 H 0.17025 0.57003 0.96839 0.0
H1087 H 0.19723 0.64196 0.93709 0.0
H1088 H 0.16456 0.58647 0.87705 0.0
H1089 H 0.16286 0.5497 0.85217 0.0
H1090 H 0.22559 0.56688 0.81043 0.0
H1091 H 0.22787 0.60362 0.83534 0.0
C1092 C 0.1983 0.72259 0.84332 0.0
C1093 C 0.21671 0.72244 0.82474 0.0
C1094 C 0.19331 0.70292 0.85872 0.0
C1095 C 0.20686 0.68287 0.85614 0.0
C1096 C 0.22523 0.68283 0.83763 0.0
C1097 C 0.23006 0.70229 0.82211 0.0
C1098 C 0.20223 0.66181 0.8725 0.0
C1099 C 0.20044 0.64049 0.85916 0.0
C1100 C 0.20057 0.66234 0.90098 0.0
C1101 C 0.2036 0.68393 0.91656 0.0
C1102 C 0.22403 0.6969 0.91418 0.0
C1103 C 0.22675 0.71725 0.92893 0.0
C1104 C 0.20924 0.72471 0.94631 0.0
C1105 C 0.189 0.71179 0.94903 0.0
C1106 C 0.18618 0.69143 0.9343 0.0
C1107 C 0.21989 0.56486 0.93172 0.0
C1108 C 0.20305 0.55946 0.95118 0.0
C1109 C 0.21748 0.58425 0.91535 0.0
C1110 C 0.19825 0.59879 0.91812 0.0
C1111 C 0.18114 0.59327 0.93718 0.0
C1112 C 0.1834 0.57362 0.95342 0.0
C1113 C 0.19689 0.62027 0.90189 0.0
C1114 C 0.19755 0.64161 0.91525 0.0
C1115 C 0.19787 0.61976 0.87344 0.0
C1116 C 0.19644 0.59776 0.85819 0.0
C1117 C 0.17808 0.58235 0.86269 0.0
C1118 C 0.177 0.56152 0.84856 0.0
C1119 C 0.19412 0.55594 0.82976 0.0
C1120 C 0.21234 0.57122 0.825 0.0
C1121 C 0.21351 0.59207 0.83909 0.0
H1122 H 0.19326 0.5398 0.81885 0.0
H1123 H 0.21139 0.74047 0.95773 0.0
H1124 H 0.30961 0.24742 0.80403 0.0
H1125 H 0.34003 0.25495 0.8364 0.0
H1126 H 0.36333 0.31284 0.78922 0.0
H1127 H 0.33245 0.30542 0.75627 0.0
H1128 H 0.40006 0.28516 0.81171 0.0
H1129 H 0.33389 0.32601 0.84127 0.0
H1130 H 0.29267 0.33253 0.85143 0.0
H1131 H 0.29444 0.27898 0.911 0.0
H1132 H 0.33557 0.27188 0.90093 0.0
H1133 H 0.46592 0.30942 0.93348 0.0
H1134 H 0.43874 0.31741 0.89653 0.0
H1135 H 0.40093 0.25561 0.91622 0.0
H1136 H 0.42814 0.2473 0.9524 0.0
H1137 H 0.3727 0.29615 0.90573 0.0
H1138 H 0.43749 0.25196 0.86862 0.0
H1139 H 0.47883 0.24638 0.8584 0.0
H1140 H 0.47954 0.30926 0.81283 0.0
H1141 H 0.43825 0.31539 0.82317 0.0
C1142 C 0.32129 0.26164 0.80022 0.0
C1143 C 0.3184 0.27597 0.77763 0.0
C1144 C 0.33868 0.26596 0.81886 0.0
C1145 C 0.35365 0.28473 0.81553 0.0
C1146 C 0.35182 0.29835 0.79224 0.0
C1147 C 0.33424 0.29405 0.77342 0.0
C1148 C 0.37036 0.29019 0.83729 0.0
C1149 C 0.39413 0.28819 0.83216 0.0
C1150 C 0.36263 0.29414 0.864 0.0
C1151 C 0.33784 0.29834 0.87024 0.0
C1152 C 0.32546 0.3155 0.8564 0.0
C1153 C 0.30211 0.31932 0.86216 0.0
C1154 C 0.29096 0.30617 0.88183 0.0
C1155 C 0.30312 0.28917 0.89577 0.0
C1156 C 0.32646 0.28526 0.89008 0.0
C1157 C 0.4516 0.29777 0.93009 0.0
C1158 C 0.44915 0.27771 0.94572 0.0
C1159 C 0.43618 0.30229 0.90896 0.0
C1160 C 0.41787 0.28706 0.90363 0.0
C1161 C 0.4149 0.26761 0.92001 0.0
C1162 C 0.43051 0.26284 0.94061 0.0
C1163 C 0.40227 0.29035 0.88026 0.0
C1164 C 0.37866 0.29386 0.88516 0.0
C1165 C 0.41018 0.28812 0.85337 0.0
C1166 C 0.4349 0.2843 0.84697 0.0
C1167 C 0.44652 0.26471 0.85664 0.0
C1168 C 0.46993 0.26142 0.85079 0.0
C1169 C 0.48183 0.2775 0.83506 0.0
C1170 C 0.47032 0.29685 0.82507 0.0
C1171 C 0.44692 0.30024 0.83092 0.0
H1172 H 0.49995 0.27493 0.83055 0.0
H1173 H 0.27291 0.30918 0.88633 0.0
H1174 H 0.75779 0.3258 0.81081 0.0
H1175 H 0.76676 0.35644 0.84245 0.0
H1176 H 0.82163 0.31531 0.87599 0.0
H1177 H 0.81219 0.28392 0.84452 0.0
H1178 H 0.79896 0.33667 0.91531 0.0
H1179 H 0.83338 0.36147 0.83365 0.0
H1180 H 0.83605 0.36968 0.78504 0.0
H1181 H 0.78206 0.42007 0.79243 0.0
H1182 H 0.77881 0.41192 0.84102 0.0
H1183 H 0.83432 0.44154 0.98518 0.0
H1184 H 0.83635 0.40836 0.95424 0.0
H1185 H 0.77096 0.42799 0.91996 0.0
H1186 H 0.76857 0.46062 0.95097 0.0
H1187 H 0.80679 0.41671 0.88126 0.0
H1188 H 0.77028 0.38709 0.96261 0.0
H1189 H 0.76894 0.37871 0.01126 0.0
H1190 H 0.83023 0.33745 1.00398 0.0
H1191 H 0.83211 0.34589 0.9553 0.0
C1192 C 0.77185 0.32317 0.82481 0.0
C1193 C 0.78442 0.3024 0.82489 0.0
C1194 C 0.77704 0.34084 0.84289 0.0
C1195 C 0.79526 0.33852 0.86127 0.0
C1196 C 0.80761 0.31763 0.86187 0.0
C1197 C 0.80223 0.29971 0.84384 0.0
C1198 C 0.80091 0.358 0.87985 0.0
C1199 C 0.80119 0.35408 0.90778 0.0
C1200 C 0.80376 0.38084 0.87021 0.0
C1201 C 0.80577 0.38598 0.84099 0.0
C1202 C 0.82198 0.37421 0.82489 0.0
C1203 C 0.82361 0.37886 0.79733 0.0
C1204 C 0.80922 0.39537 0.78565 0.0
C1205 C 0.7932 0.40729 0.80151 0.0
C1206 C 0.79148 0.40268 0.82908 0.0
C1207 C 0.82048 0.43882 0.97091 0.0
C1208 C 0.80125 0.45366 0.97058 0.0
C1209 C 0.82162 0.41984 0.95334 0.0
C1210 C 0.80376 0.41569 0.93484 0.0
C1211 C 0.78493 0.43087 0.93403 0.0
C1212 C 0.78356 0.44948 0.95186 0.0
C1213 C 0.80418 0.39538 0.91651 0.0
C1214 C 0.80503 0.3992 0.88865 0.0
C1215 C 0.8027 0.37249 0.92621 0.0
C1216 C 0.80151 0.36737 0.95541 0.0
C1217 C 0.7836 0.37643 0.97143 0.0
C1218 C 0.78271 0.37162 0.999 0.0
C1219 C 0.79954 0.35762 0.01072 0.0
C1220 C 0.81724 0.34834 0.99488 0.0
C1221 C 0.81822 0.35312 0.96731 0.0
H1222 H 0.79882 0.35392 0.03207 0.0
H1223 H 0.8105 0.39894 0.76431 0.0
H1224 H 0.67123 0.25114 0.23132 0.0
H1225 H 0.63915 0.25373 0.19972 0.0
H1226 H 0.67861 0.21583 0.14066 0.0
H1227 H 0.711 0.2133 0.17218 0.0
H1228 H 0.65844 0.2533 0.11825 0.0
H1229 H 0.63419 0.19024 0.17371 0.0
H1230 H 0.62542 0.17022 0.21631 0.0
H1231 H 0.57344 0.22065 0.23489 0.0
H1232 H 0.58212 0.24116 0.19255 0.0
H1233 H 0.54043 0.21581 0.05912 0.0
H1234 H 0.57193 0.21126 0.09115 0.0
H1235 H 0.58435 0.28455 0.08918 0.0
H1236 H 0.55272 0.28929 0.05686 0.0
H1237 H 0.57899 0.22774 0.14112 0.0
H1238 H 0.64343 0.29271 0.09483 0.0
H1239 H 0.65245 0.30995 0.0506 0.0
H1240 H 0.62491 0.25028 0.01076 0.0
H1241 H 0.61603 0.23258 0.05472 0.0
C1242 C 0.67306 0.24309 0.21173 0.0
C1243 C 0.69373 0.23191 0.20438 0.0
C1244 C 0.65464 0.2446 0.19365 0.0
C1245 C 0.65637 0.23492 0.16779 0.0
C1246 C 0.67686 0.22348 0.16047 0.0
C1247 C 0.69531 0.22189 0.17861 0.0
C1248 C 0.63695 0.23716 0.14831 0.0
C1249 C 0.64108 0.24772 0.12329 0.0
C1250 C 0.61428 0.22968 0.15464 0.0
C1251 C 0.60896 0.21735 0.18007 0.0
C1252 C 0.62101 0.19716 0.18698 0.0
C1253 C 0.61603 0.18571 0.21106 0.0
C1254 C 0.59892 0.19419 0.22833 0.0
C1255 C 0.58671 0.21411 0.22151 0.0
C1256 C 0.59164 0.22565 0.19746 0.0
C1257 C 0.54977 0.23104 0.06551 0.0
C1258 C 0.54405 0.25294 0.0553 0.0
C1259 C 0.56776 0.22839 0.08395 0.0
C1260 C 0.58066 0.2475 0.09247 0.0
C1261 C 0.5748 0.26949 0.08269 0.0
C1262 C 0.55664 0.27219 0.06431 0.0
C1263 C 0.60041 0.24419 0.11126 0.0
C1264 C 0.59633 0.23344 0.13616 0.0
C1265 C 0.62317 0.25116 0.10462 0.0
C1266 C 0.62884 0.26145 0.07808 0.0
C1267 C 0.63939 0.28324 0.07663 0.0
C1268 C 0.64446 0.2931 0.05161 0.0
C1269 C 0.63917 0.28126 0.02789 0.0
C1270 C 0.6289 0.25948 0.02914 0.0
C1271 C 0.62383 0.24955 0.0541 0.0
H1272 H 0.64307 0.28894 0.00854 0.0
H1273 H 0.59509 0.1853 0.24696 0.0
H1274 H 0.80645 0.73987 0.17388 0.0
H1275 H 0.81613 0.70622 0.1458 0.0
H1276 H 0.76142 0.66752 0.18386 0.0
H1277 H 0.7521 0.70049 0.21202 0.0
H1278 H 0.79805 0.64197 0.1817 0.0
H1279 H 0.75682 0.68967 0.11931 0.0
H1280 H 0.74864 0.72497 0.09342 0.0
H1281 H 0.81499 0.72007 0.05489 0.0
H1282 H 0.82367 0.68485 0.08084 0.0
H1283 H 0.76718 0.55448 0.08935 0.0
H1284 H 0.76872 0.58993 0.11586 0.0
H1285 H 0.83607 0.60512 0.08316 0.0
H1286 H 0.83485 0.56916 0.05673 0.0
H1287 H 0.80024 0.64313 0.08184 0.0
H1288 H 0.83718 0.59024 0.14285 0.0
H1289 H 0.84054 0.55368 0.16784 0.0
H1290 H 0.77639 0.56759 0.20835 0.0
H1291 H 0.77248 0.60408 0.18331 0.0
C1292 C 0.79647 0.7242 0.17612 0.0
C1293 C 0.77863 0.72286 0.19535 0.0
C1294 C 0.80198 0.70498 0.16005 0.0
C1295 C 0.78954 0.68423 0.16272 0.0
C1296 C 0.77149 0.68315 0.18157 0.0
C1297 C 0.76613 0.70214 0.19766 0.0
C1298 C 0.79516 0.66334 0.14637 0.0
C1299 C 0.79848 0.64231 0.15986 0.0
C1300 C 0.79615 0.66367 0.11786 0.0
C1301 C 0.79102 0.68482 0.10227 0.0
C1302 C 0.76975 0.69624 0.10549 0.0
C1303 C 0.765 0.7162 0.09077 0.0
C1304 C 0.78132 0.72481 0.07259 0.0
C1305 C 0.80239 0.71341 0.06903 0.0
C1306 C 0.80723 0.69345 0.08373 0.0
C1307 C 0.78244 0.56522 0.08793 0.0
C1308 C 0.80093 0.55897 0.071 0.0
C1309 C 0.78327 0.58549 0.10309 0.0
C1310 C 0.80247 0.60016 0.10144 0.0
C1311 C 0.82108 0.59402 0.08467 0.0
C1312 C 0.82044 0.57342 0.06978 0.0
C1313 C 0.80265 0.62192 0.11726 0.0
C1314 C 0.80033 0.64302 0.10369 0.0
C1315 C 0.80202 0.62163 0.14571 0.0
C1316 C 0.80448 0.59983 0.16107 0.0
C1317 C 0.82372 0.58543 0.15695 0.0
C1318 C 0.82573 0.56473 0.17115 0.0
C1319 C 0.80867 0.5583 0.18964 0.0
C1320 C 0.78959 0.57259 0.19402 0.0
C1321 C 0.78749 0.5933 0.17986 0.0
H1322 H 0.81025 0.54226 0.2006 0.0
H1323 H 0.77762 0.74026 0.0612 0.0
H1324 H 0.35241 0.70435 0.25482 0.0
H1325 H 0.38104 0.69978 0.21865 0.0
H1326 H 0.35647 0.76231 0.18153 0.0
H1327 H 0.32773 0.76669 0.2171 0.0
H1328 H 0.35851 0.72943 0.14563 0.0
H1329 H 0.41008 0.75833 0.21352 0.0
H1330 H 0.4292 0.75893 0.25781 0.0
H1331 H 0.45704 0.69144 0.24303 0.0
H1332 H 0.43783 0.69032 0.19877 0.0
H1333 H 0.44567 0.75847 0.05295 0.0
H1334 H 0.41958 0.75611 0.09154 0.0
H1335 H 0.44494 0.68795 0.10941 0.0
H1336 H 0.47106 0.69006 0.07024 0.0
H1337 H 0.44301 0.71862 0.15515 0.0
H1338 H 0.39395 0.69016 0.08655 0.0
H1339 H 0.37446 0.6886 0.04255 0.0
H1340 H 0.34128 0.75331 0.05906 0.0
H1341 H 0.36088 0.75548 0.10302 0.0
C1342 C 0.35349 0.71739 0.23928 0.0
C1343 C 0.33776 0.73588 0.23888 0.0
C1344 C 0.36986 0.71475 0.21856 0.0
C1345 C 0.37098 0.73071 0.19726 0.0
C1346 C 0.35591 0.74967 0.19756 0.0
C1347 C 0.33953 0.75221 0.21806 0.0
C1348 C 0.38668 0.72712 0.1737 0.0
C1349 C 0.37699 0.72722 0.1478 0.0
C1350 C 0.41076 0.72349 0.17639 0.0
C1351 C 0.4223 0.72413 0.20297 0.0
C1352 C 0.42012 0.74353 0.21981 0.0
C1353 C 0.431 0.74399 0.24489 0.0
C1354 C 0.44427 0.7252 0.25326 0.0
C1355 C 0.44672 0.70596 0.23654 0.0
C1356 C 0.43586 0.70541 0.21145 0.0
C1357 C 0.44562 0.74287 0.06492 0.0
C1358 C 0.46043 0.72443 0.05849 0.0
C1359 C 0.43065 0.74154 0.08697 0.0
C1360 C 0.43028 0.72185 0.10336 0.0
C1361 C 0.44496 0.70331 0.09702 0.0
C1362 C 0.45974 0.70447 0.07456 0.0
C1363 C 0.41474 0.72121 0.12727 0.0
C1364 C 0.42445 0.72044 0.15314 0.0
C1365 C 0.3906 0.72402 0.12464 0.0
C1366 C 0.37908 0.72309 0.098 0.0
C1367 C 0.38271 0.7042 0.08068 0.0
C1368 C 0.3716 0.70317 0.05577 0.0
C1369 C 0.35666 0.72085 0.048 0.0
C1370 C 0.35286 0.73963 0.06511 0.0
C1371 C 0.36396 0.74076 0.09003 0.0
H1372 H 0.348 0.71996 0.02875 0.0
H1373 H 0.45269 0.72559 0.27268 0.0
H1374 H 0.20449 0.30776 0.19857 0.0
H1375 H 0.19838 0.34229 0.17171 0.0
H1376 H 0.26541 0.3678 0.19504 0.0
H1377 H 0.27121 0.33335 0.22311 0.0
H1378 H 0.23595 0.40255 0.19213 0.0
H1379 H 0.25652 0.34074 0.13341 0.0
H1380 H 0.25437 0.30171 0.11383 0.0
H1381 H 0.1849 0.31472 0.08796 0.0
H1382 H 0.18652 0.35373 0.10774 0.0
H1383 H 0.2516 0.47516 0.07734 0.0
H1384 H 0.25391 0.4456 0.11213 0.0
H1385 H 0.18275 0.42745 0.09809 0.0
H1386 H 0.18021 0.45735 0.06316 0.0
H1387 H 0.21385 0.38976 0.09681 0.0
H1388 H 0.19591 0.45391 0.15463 0.0
H1389 H 0.20107 0.49316 0.17274 0.0
H1390 H 0.26973 0.47591 0.19814 0.0
H1391 H 0.26511 0.43664 0.17981 0.0
C1392 C 0.2179 0.32078 0.19815 0.0
C1393 C 0.23848 0.31772 0.21264 0.0
C1394 C 0.21441 0.34051 0.18269 0.0
C1395 C 0.23168 0.3574 0.18068 0.0
C1396 C 0.25189 0.35492 0.19609 0.0
C1397 C 0.25522 0.33525 0.21209 0.0
C1398 C 0.22879 0.37706 0.16169 0.0
C1399 C 0.23139 0.39972 0.17122 0.0
C1400 C 0.22256 0.37348 0.1344 0.0
C1401 C 0.22157 0.35009 0.12228 0.0
C1402 C 0.24073 0.33522 0.12371 0.0
C1403 C 0.23961 0.31311 0.11256 0.0
C1404 C 0.21949 0.30572 0.09972 0.0
C1405 C 0.20047 0.32046 0.09794 0.0
C1406 C 0.20148 0.34258 0.1091 0.0
C1407 C 0.23632 0.46508 0.08182 0.0
C1408 C 0.21572 0.46855 0.06742 0.0
C1409 C 0.23766 0.44825 0.10183 0.0
C1410 C 0.21849 0.43439 0.10779 0.0
C1411 C 0.19773 0.43804 0.09383 0.0
C1412 C 0.19627 0.45516 0.07398 0.0
C1413 C 0.22076 0.41516 0.12733 0.0
C1414 C 0.21822 0.39255 0.11779 0.0
C1415 C 0.22749 0.41882 0.15438 0.0
C1416 C 0.23023 0.44237 0.16564 0.0
C1417 C 0.21218 0.45853 0.16388 0.0
C1418 C 0.21499 0.48078 0.17423 0.0
C1419 C 0.23573 0.48704 0.18653 0.0
C1420 C 0.25368 0.47104 0.18859 0.0
C1421 C 0.25096 0.44877 0.17825 0.0
H1422 H 0.23788 0.50428 0.19452 0.0
H1423 H 0.21866 0.28859 0.0911 0.0
H1424 H 0.26689 0.20165 0.16048 0.0
H1425 H 0.29893 0.19583 0.1284 0.0
H1426 H 0.33744 0.24991 0.16741 0.0
H1427 H 0.30608 0.25556 0.19948 0.0
H1428 H 0.33406 0.25408 0.1101 0.0
H1429 H 0.35257 0.19762 0.17924 0.0
H1430 H 0.34441 0.1634 0.20713 0.0
H1431 H 0.33689 0.12212 0.13586 0.0
H1432 H 0.3447 0.1562 0.10753 0.0
H1433 H 0.44798 0.25389 0.06792 0.0
H1434 H 0.41319 0.25063 0.09534 0.0
H1435 H 0.39501 0.1877 0.05417 0.0
H1436 H 0.43046 0.19053 0.02699 0.0
H1437 H 0.38397 0.18457 0.1065 0.0
H1438 H 0.36933 0.2387 0.03707 0.0
H1439 H 0.37679 0.27223 0.00784 0.0
H1440 H 0.37475 0.31712 0.07663 0.0
H1441 H 0.36764 0.28381 0.10635 0.0
C1442 C 0.28226 0.21217 0.16227 0.0
C1443 C 0.28391 0.22904 0.18259 0.0
C1444 C 0.30053 0.20881 0.14398 0.0
C1445 C 0.32053 0.22248 0.14554 0.0
C1446 C 0.32216 0.23922 0.16581 0.0
C1447 C 0.30419 0.24234 0.18422 0.0
C1448 C 0.33979 0.22005 0.1259 0.0
C1449 C 0.34503 0.23892 0.10935 0.0
C1450 C 0.35357 0.19995 0.12424 0.0
C1451 C 0.34891 0.1795 0.14127 0.0
C1452 C 0.34894 0.1813 0.16952 0.0
C1453 C 0.34444 0.16192 0.1854 0.0
C1454 C 0.34006 0.14062 0.17328 0.0
C1455 C 0.34024 0.13864 0.14523 0.0
C1456 C 0.34471 0.15798 0.12925 0.0
C1457 C 0.43672 0.23922 0.0648 0.0
C1458 C 0.44188 0.22259 0.04506 0.0
C1459 C 0.41674 0.23743 0.08044 0.0
C1460 C 0.40111 0.21925 0.07636 0.0
C1461 C 0.4067 0.20199 0.05753 0.0
C1462 C 0.42696 0.20362 0.04203 0.0
C1463 C 0.37874 0.21897 0.0913 0.0
C1464 C 0.37283 0.19961 0.10687 0.0
C1465 C 0.36407 0.23854 0.0918 0.0
C1466 C 0.36809 0.25871 0.07397 0.0
C1467 C 0.3706 0.2557 0.04599 0.0
C1468 C 0.37476 0.27468 0.02933 0.0
C1469 C 0.37627 0.29679 0.04038 0.0
C1470 C 0.37358 0.29998 0.0681 0.0
C1471 C 0.36946 0.28106 0.08487 0.0
H1472 H 0.3795 0.31146 0.02745 0.0
H1473 H 0.33658 0.12563 0.18561 0.0
H1474 H 0.74912 0.29292 0.1906 0.0
H1475 H 0.75107 0.32733 0.16276 0.0
H1476 H 0.74633 0.37005 0.23377 0.0
H1477 H 0.74339 0.33534 0.2619 0.0
H1478 H 0.72146 0.38837 0.19519 0.0
H1479 H 0.79884 0.36035 0.20068 0.0
H1480 H 0.83011 0.33155 0.19804 0.0
H1481 H 0.81646 0.32148 0.11391 0.0
H1482 H 0.78489 0.34999 0.11613 0.0
H1483 H 0.79448 0.46656 0.09706 0.0
H1484 H 0.79067 0.43782 0.1325 0.0
H1485 H 0.72007 0.4254 0.10901 0.0
H1486 H 0.7236 0.45478 0.07378 0.0
H1487 H 0.78455 0.39431 0.12771 0.0
H1488 H 0.68923 0.40475 0.16279 0.0
H1489 H 0.66039 0.43569 0.16866 0.0
H1490 H 0.71472 0.48548 0.17756 0.0
H1491 H 0.74386 0.45481 0.17213 0.0
C1492 C 0.74858 0.30961 0.20039 0.0
C1493 C 0.74641 0.3114 0.22852 0.0
C1494 C 0.74974 0.32932 0.1844 0.0
C1495 C 0.74937 0.35134 0.19616 0.0
C1496 C 0.74677 0.35325 0.22424 0.0
C1497 C 0.7452 0.33343 0.2403 0.0
C1498 C 0.75197 0.37217 0.17894 0.0
C1499 C 0.7353 0.38973 0.18049 0.0
C1500 C 0.77028 0.37423 0.1601 0.0
C1501 C 0.78939 0.3572 0.15863 0.0
C1502 C 0.80242 0.3519 0.18166 0.0
C1503 C 0.82021 0.33563 0.18023 0.0
C1504 C 0.82524 0.32466 0.15584 0.0
C1505 C 0.81253 0.32998 0.1328 0.0
C1506 C 0.79471 0.34621 0.13412 0.0
C1507 C 0.77803 0.45791 0.09956 0.0
C1508 C 0.75936 0.46288 0.08249 0.0
C1509 C 0.7759 0.44143 0.11985 0.0
C1510 C 0.7551 0.42941 0.12352 0.0
C1511 C 0.73621 0.43467 0.10688 0.0
C1512 C 0.73827 0.4514 0.08666 0.0
C1513 C 0.75384 0.41041 0.14359 0.0
C1514 C 0.77076 0.3931 0.14249 0.0
C1515 C 0.73613 0.40896 0.16327 0.0
C1516 C 0.71872 0.4275 0.16677 0.0
C1517 C 0.69502 0.42229 0.1661 0.0
C1518 C 0.67862 0.43978 0.16933 0.0
C1519 C 0.68572 0.46254 0.17339 0.0
C1520 C 0.70924 0.46785 0.17431 0.0
C1521 C 0.7257 0.45043 0.17111 0.0
H1522 H 0.673 0.47606 0.17588 0.0
H1523 H 0.83901 0.31207 0.15478 0.0
H1524 H 0.67773 0.73067 0.23302 0.0
H1525 H 0.6459 0.73149 0.20044 0.0
H1526 H 0.66453 0.80083 0.17792 0.0
H1527 H 0.69659 0.79994 0.20988 0.0
H1528 H 0.61462 0.79154 0.18293 0.0
H1529 H 0.6845 0.76353 0.14039 0.0
H1530 H 0.71847 0.73803 0.13671 0.0
H1531 H 0.67404 0.67884 0.13319 0.0
H1532 H 0.63981 0.70399 0.1373 0.0
H1533 H 0.55888 0.79947 0.05542 0.0
H1534 H 0.58708 0.80116 0.09207 0.0
H1535 H 0.58171 0.72748 0.10231 0.0
H1536 H 0.55419 0.72558 0.06548 0.0
H1537 H 0.62491 0.73941 0.10447 0.0
H1538 H 0.5549 0.76659 0.1458 0.0
H1539 H 0.52056 0.7914 0.15086 0.0
H1540 H 0.56407 0.85104 0.15795 0.0
H1541 H 0.59867 0.8266 0.15257 0.0
C1542 C 0.67467 0.74624 0.22155 0.0
C1543 C 0.68963 0.7652 0.22382 0.0
C1544 C 0.6566 0.74666 0.20291 0.0
C1545 C 0.65304 0.76618 0.18673 0.0
C1546 C 0.66702 0.78565 0.19026 0.0
C1547 C 0.68534 0.78507 0.20844 0.0
C1548 C 0.63611 0.76565 0.16451 0.0
C1549 C 0.61688 0.78031 0.16564 0.0
C1550 C 0.63905 0.75075 0.14222 0.0
C1551 C 0.6596 0.73562 0.13949 0.0
C1552 C 0.68198 0.74506 0.13909 0.0
C1553 C 0.70128 0.73068 0.13688 0.0
C1554 C 0.69842 0.70683 0.13481 0.0
C1555 C 0.67624 0.69732 0.13485 0.0
C1556 C 0.65688 0.71163 0.13711 0.0
C1557 C 0.56376 0.78365 0.06547 0.0
C1558 C 0.55427 0.76241 0.05751 0.0
C1559 C 0.57978 0.78464 0.08651 0.0
C1560 C 0.58633 0.76446 0.10019 0.0
C1561 C 0.57698 0.74327 0.09208 0.0
C1562 C 0.56118 0.74224 0.07099 0.0
C1563 C 0.60306 0.76519 0.12282 0.0
C1564 C 0.62243 0.75062 0.12175 0.0
C1565 C 0.60013 0.78007 0.14524 0.0
C1566 C 0.57936 0.7948 0.1485 0.0
C1567 C 0.55714 0.78502 0.14823 0.0
C1568 C 0.53763 0.79901 0.15119 0.0
C1569 C 0.54013 0.82279 0.15465 0.0
C1570 C 0.56215 0.83262 0.15523 0.0
C1571 C 0.58172 0.81871 0.15224 0.0
H1572 H 0.52501 0.83359 0.15695 0.0
H1573 H 0.71337 0.69572 0.13311 0.0
H1574 H 0.27147 0.67557 0.23393 0.0
H1575 H 0.27036 0.64799 0.19705 0.0
H1576 H 0.23132 0.69606 0.14921 0.0
H1577 H 0.23256 0.72426 0.18621 0.0
H1578 H 0.21582 0.64731 0.14882 0.0
H1579 H 0.28461 0.69348 0.13678 0.0
H1580 H 0.32072 0.71114 0.15284 0.0
H1581 H 0.34885 0.64405 0.16871 0.0
H1582 H 0.31263 0.62597 0.15346 0.0
H1583 H 0.22656 0.58433 0.02997 0.0
H1584 H 0.22862 0.61652 0.06157 0.0
H1585 H 0.28291 0.5817 0.10489 0.0
H1586 H 0.2817 0.54991 0.0721 0.0
H1587 H 0.29059 0.6257 0.1065 0.0
H1588 H 0.22461 0.57896 0.12475 0.0
H1589 H 0.18857 0.55811 0.11459 0.0
H1590 H 0.15573 0.6218 0.09293 0.0
H1591 H 0.19171 0.64301 0.10262 0.0
C1592 C 0.26239 0.68033 0.21574 0.0
C1593 C 0.25223 0.70226 0.21297 0.0
C1594 C 0.26187 0.66451 0.19464 0.0
C1595 C 0.25109 0.67016 0.17035 0.0
C1596 C 0.23985 0.69151 0.16784 0.0
C1597 C 0.24054 0.70755 0.18897 0.0
C1598 C 0.25234 0.65386 0.14746 0.0
C1599 C 0.23206 0.64289 0.13913 0.0
C1600 C 0.27374 0.6475 0.13574 0.0
C1601 C 0.29579 0.65837 0.14417 0.0
C1602 C 0.29842 0.68248 0.14387 0.0
C1603 C 0.31894 0.69257 0.15282 0.0
C1604 C 0.33708 0.67872 0.16179 0.0
C1605 C 0.33477 0.65475 0.16176 0.0
C1606 C 0.31425 0.64457 0.15298 0.0
C1607 C 0.23923 0.5838 0.04597 0.0
C1608 C 0.25388 0.56468 0.04884 0.0
C1609 C 0.24028 0.60209 0.06413 0.0
C1610 C 0.25539 0.60124 0.08614 0.0
C1611 C 0.27097 0.58268 0.08819 0.0
C1612 C 0.27033 0.56456 0.0695 0.0
C1613 C 0.25399 0.61907 0.10764 0.0
C1614 C 0.27426 0.63027 0.11586 0.0
C1615 C 0.23264 0.6252 0.11984 0.0
C1616 C 0.21092 0.61254 0.11415 0.0
C1617 C 0.20975 0.5885 0.11765 0.0
C1618 C 0.18933 0.57662 0.11199 0.0
C1619 C 0.16989 0.58861 0.10305 0.0
C1620 C 0.17082 0.61253 0.09982 0.0
C1621 C 0.19121 0.62449 0.10541 0.0
H1622 H 0.1541 0.57938 0.09867 0.0
H1623 H 0.35293 0.6865 0.16879 0.0
H1624 H 0.28862 0.79874 0.83158 0.0
H1625 H 0.32229 0.80232 0.86067 0.0
H1626 H 0.35948 0.75405 0.81054 0.0
H1627 H 0.32596 0.75079 0.7809 0.0
H1628 H 0.34163 0.77159 0.89093 0.0
H1629 H 0.41726 0.76419 0.81423 0.0
H1630 H 0.42601 0.775 0.76726 0.0
H1631 H 0.37618 0.82973 0.77163 0.0
H1632 H 0.36737 0.81946 0.81873 0.0
H1633 H 0.44425 0.73299 0.95094 0.0
H1634 H 0.41244 0.73877 0.91961 0.0
H1635 H 0.43233 0.80988 0.90955 0.0
H1636 H 0.46432 0.80431 0.94129 0.0
H1637 H 0.42188 0.78657 0.86024 0.0
H1638 H 0.38811 0.80153 0.94591 0.0
H1639 H 0.37909 0.79441 0.99372 0.0
H1640 H 0.3444 0.73156 0.97259 0.0
H1641 H 0.3535 0.73814 0.92461 0.0
C1642 C 0.30404 0.78905 0.82654 0.0
C1643 C 0.30457 0.77444 0.8039 0.0
C1644 C 0.32328 0.79108 0.84326 0.0
C1645 C 0.3435 0.77856 0.83779 0.0
C1646 C 0.34423 0.7642 0.81497 0.0
C1647 C 0.32501 0.76227 0.79808 0.0
C1648 C 0.3633 0.77961 0.8568 0.0
C1649 C 0.35913 0.77495 0.88414 0.0
C1650 C 0.38615 0.78442 0.84817 0.0
C1651 C 0.39151 0.7909 0.81994 0.0
C1652 C 0.40824 0.77859 0.8052 0.0
C1653 C 0.4132 0.78462 0.77855 0.0
C1654 C 0.40161 0.80299 0.76644 0.0
C1655 C 0.38509 0.81544 0.781 0.0
C1656 C 0.38008 0.8095 0.80766 0.0
C1657 C 0.44196 0.74988 0.94207 0.0
C1658 C 0.45681 0.76822 0.94867 0.0
C1659 C 0.42372 0.75315 0.92419 0.0
C1660 C 0.41999 0.77476 0.91236 0.0
C1661 C 0.43496 0.79306 0.91848 0.0
C1662 C 0.45312 0.78988 0.9367 0.0
C1663 C 0.40012 0.77805 0.894 0.0
C1664 C 0.4043 0.7834 0.86688 0.0
C1665 C 0.3772 0.77435 0.90287 0.0
C1666 C 0.37166 0.77024 0.93168 0.0
C1667 C 0.37873 0.78608 0.95147 0.0
C1668 C 0.37357 0.78217 0.97859 0.0
C1669 C 0.36121 0.76254 0.98618 0.0
C1670 C 0.35398 0.74676 0.96666 0.0
C1671 C 0.35911 0.75059 0.93949 0.0
H1672 H 0.35717 0.75962 0.00718 0.0
H1673 H 0.40546 0.80762 0.7458 0.0
H1674 H 0.22941 0.28381 0.84115 0.0
H1675 H 0.23008 0.31545 0.87388 0.0
H1676 H 0.23298 0.36468 0.80886 0.0
H1677 H 0.23287 0.33323 0.77625 0.0
H1678 H 0.26452 0.37485 0.84355 0.0
H1679 H 0.18352 0.35601 0.84923 0.0
H1680 H 0.15001 0.33045 0.85637 0.0
H1681 H 0.17317 0.31576 0.93658 0.0
H1682 H 0.20698 0.34103 0.9298 0.0
H1683 H 0.20578 0.46365 0.93991 0.0
H1684 H 0.2047 0.43033 0.91007 0.0
H1685 H 0.27633 0.41627 0.92734 0.0
H1686 H 0.27773 0.45032 0.95663 0.0
H1687 H 0.20898 0.38693 0.91845 0.0
H1688 H 0.30112 0.38815 0.8739 0.0
H1689 H 0.33223 0.41584 0.86342 0.0
H1690 H 0.28222 0.47 0.85491 0.0
H1691 H 0.25081 0.44258 0.865 0.0
C1692 C 0.22964 0.30141 0.83387 0.0
C1693 C 0.23104 0.30604 0.80613 0.0
C1694 C 0.23013 0.3195 0.8526 0.0
C1695 C 0.23171 0.34251 0.84387 0.0
C1696 C 0.23204 0.3471 0.81614 0.0
C1697 C 0.23178 0.3291 0.79749 0.0
C1698 C 0.234 0.36188 0.86336 0.0
C1699 C 0.25236 0.37746 0.85995 0.0
C1700 C 0.21821 0.36537 0.88479 0.0
C1701 C 0.19789 0.35021 0.88891 0.0
C1702 C 0.18155 0.34719 0.86832 0.0
C1703 C 0.16249 0.33279 0.87231 0.0
C1704 C 0.1595 0.32144 0.89689 0.0
C1705 C 0.17553 0.32453 0.91755 0.0
C1706 C 0.19463 0.33891 0.91365 0.0
C1707 C 0.22139 0.45358 0.93724 0.0
C1708 C 0.24188 0.45969 0.95057 0.0
C1709 C 0.2207 0.43442 0.92025 0.0
C1710 C 0.24042 0.42074 0.91631 0.0
C1711 C 0.26096 0.42674 0.92967 0.0
C1712 C 0.26175 0.44619 0.94643 0.0
C1713 C 0.23916 0.40026 0.89823 0.0
C1714 C 0.22118 0.3843 0.9021 0.0
C1715 C 0.25496 0.39674 0.87679 0.0
C1716 C 0.27367 0.41337 0.87056 0.0
C1717 C 0.29678 0.40596 0.86976 0.0
C1718 C 0.31446 0.4216 0.86388 0.0
C1719 C 0.30921 0.44468 0.85862 0.0
C1720 C 0.28627 0.45214 0.85911 0.0
C1721 C 0.26852 0.43657 0.86494 0.0
H1722 H 0.32292 0.45677 0.85408 0.0
H1723 H 0.14474 0.31029 0.89994 0.0
H1724 H 0.70809 0.22626 0.81488 0.0
H1725 H 0.67358 0.2191 0.84195 0.0
H1726 H 0.64116 0.27925 0.80789 0.0
H1727 H 0.67576 0.28652 0.78043 0.0
H1728 H 0.64007 0.27691 0.86527 0.0
H1729 H 0.62379 0.22712 0.78881 0.0
H1730 H 0.63266 0.19564 0.75694 0.0
H1731 H 0.63807 0.14791 0.82263 0.0
H1732 H 0.62961 0.17914 0.85492 0.0
H1733 H 0.53105 0.26596 0.92245 0.0
H1734 H 0.56228 0.2686 0.8896 0.0
H1735 H 0.58604 0.2009 0.91256 0.0
H1736 H 0.5539 0.1978 0.94487 0.0
H1737 H 0.59226 0.206 0.86096 0.0
H1738 H 0.61182 0.25067 0.93718 0.0
H1739 H 0.60688 0.27934 0.97342 0.0
H1740 H 0.60104 0.33331 0.91473 0.0
H1741 H 0.60556 0.30489 0.87808 0.0
C1742 C 0.69358 0.23793 0.81296 0.0
C1743 C 0.6947 0.25703 0.79553 0.0
C1744 C 0.67382 0.23371 0.82837 0.0
C1745 C 0.65476 0.24854 0.82681 0.0
C1746 C 0.65568 0.26754 0.8093 0.0
C1747 C 0.67541 0.27165 0.79359 0.0
C1748 C 0.6344 0.24484 0.84453 0.0
C1749 C 0.62933 0.26162 0.86401 0.0
C1750 C 0.62123 0.22427 0.84383 0.0
C1751 C 0.62624 0.20553 0.8243 0.0
C1752 C 0.62706 0.20995 0.79648 0.0
C1753 C 0.63198 0.19214 0.77833 0.0
C1754 C 0.63595 0.1698 0.78777 0.0
C1755 C 0.635 0.16522 0.81535 0.0
C1756 C 0.63013 0.18296 0.83357 0.0
C1757 C 0.54279 0.25152 0.9203 0.0
C1758 C 0.54023 0.23177 0.9364 0.0
C1759 C 0.56073 0.25309 0.90161 0.0
C1760 C 0.57698 0.23525 0.89911 0.0
C1761 C 0.57384 0.21498 0.91425 0.0
C1762 C 0.55549 0.2132 0.93268 0.0
C1763 C 0.59757 0.23833 0.88141 0.0
C1764 C 0.60285 0.22139 0.86212 0.0
C1765 C 0.61153 0.25839 0.88289 0.0
C1766 C 0.60881 0.2756 0.90485 0.0
C1767 C 0.6093 0.26862 0.93198 0.0
C1768 C 0.60661 0.28484 0.95261 0.0
C1769 C 0.60361 0.30813 0.94639 0.0
C1770 C 0.60334 0.31526 0.91952 0.0
C1771 C 0.60598 0.2991 0.8988 0.0
H1772 H 0.60155 0.32065 0.96239 0.0
H1773 H 0.63969 0.156 0.77376 0.0
H1774 H 0.75901 0.66858 0.77725 0.0
H1775 H 0.75615 0.63758 0.81017 0.0
H1776 H 0.77671 0.68448 0.87316 0.0
H1777 H 0.77955 0.71584 0.84016 0.0
H1778 H 0.78704 0.61803 0.84237 0.0
H1779 H 0.74486 0.66927 0.93091 0.0
H1780 H 0.71888 0.70256 0.93749 0.0
H1781 H 0.69107 0.69269 0.85829 0.0
H1782 H 0.71653 0.6591 0.85141 0.0
H1783 H 0.80023 0.55794 0.96256 0.0
H1784 H 0.79846 0.58776 0.92837 0.0
H1785 H 0.72446 0.58013 0.92415 0.0
H1786 H 0.726 0.55027 0.95919 0.0
H1787 H 0.73659 0.62506 0.92297 0.0
H1788 H 0.75819 0.55728 0.87524 0.0
H1789 H 0.78028 0.52179 0.86596 0.0
H1790 H 0.84256 0.56141 0.85806 0.0
H1791 H 0.8209 0.59713 0.86768 0.0
C1792 C 0.76314 0.67232 0.79807 0.0
C1793 C 0.76949 0.69469 0.80611 0.0
C1794 C 0.76148 0.65455 0.81686 0.0
C1795 C 0.76591 0.65878 0.84414 0.0
C1796 C 0.7729 0.68094 0.85222 0.0
C1797 C 0.77474 0.69876 0.83333 0.0
C1798 C 0.76328 0.63988 0.86399 0.0
C1799 C 0.77605 0.6196 0.86001 0.0
C1800 C 0.74833 0.64165 0.88653 0.0
C1801 C 0.73287 0.66183 0.89053 0.0
C1802 C 0.73317 0.67416 0.91492 0.0
C1803 C 0.71851 0.69307 0.91871 0.0
C1804 C 0.70343 0.69978 0.89828 0.0
C1805 C 0.70285 0.68753 0.87405 0.0
C1806 C 0.71742 0.66858 0.87019 0.0
C1807 C 0.78351 0.56245 0.95439 0.0
C1808 C 0.76324 0.55152 0.96348 0.0
C1809 C 0.78256 0.57954 0.93476 0.0
C1810 C 0.76139 0.58594 0.92339 0.0
C1811 C 0.741 0.57538 0.93262 0.0
C1812 C 0.74192 0.55827 0.95252 0.0
C1813 C 0.76091 0.60355 0.90172 0.0
C1814 C 0.74757 0.62354 0.90531 0.0
C1815 C 0.77483 0.6013 0.87836 0.0
C1816 C 0.78793 0.57987 0.87237 0.0
C1817 C 0.77662 0.55841 0.8717 0.0
C1818 C 0.78906 0.53825 0.86636 0.0
C1819 C 0.81282 0.53934 0.86147 0.0
C1820 C 0.82417 0.5606 0.86186 0.0
C1821 C 0.81181 0.58081 0.86722 0.0
H1822 H 0.82242 0.52371 0.85735 0.0
H1823 H 0.69218 0.71446 0.90122 0.0
loop_
_geom_bond_atom_site_label_1
_geom_bond_atom_site_label_2
_geom_bond_distance
_geom_bond_site_symmetry_2
_ccdc_geom_bond_type
C0 O2 1.247 . S
C0 O4 1.258 . S
C1 O8 1.247 . S
C1 O9 1.258 . S
O2 C0 1.247 . S
O2 Zn3 2.028 . S
Zn3 O2 2.028 . S
Zn3 O7 2.035 . S
Zn3 O9 2.035 . S
Zn3 O10 2.028 . S
O4 C0 1.258 . S
O4 Zn5 2.035 . S
Zn5 O4 2.035 . S
Zn5 O6 2.028 . S
Zn5 O8 2.028 . S
Zn5 O11 2.035 . S
O6 Zn5 2.028 . S
O6 C12 1.247 . S
O7 Zn3 2.035 . S
O7 C12 1.258 . S
O8 C1 1.247 . S
O8 Zn5 2.028 . S
O9 C1 1.258 . S
O9 Zn3 2.035 . S
O10 Zn3 2.028 . S
O10 C13 1.247 . S
O11 Zn5 2.035 . S
O11 C13 1.258 . S
C12 O6 1.247 . S
C12 O7 1.258 . S
C13 O10 1.247 . S
C13 O11 1.258 . S
C14 O16 1.247 . S
C14 O18 1.258 . S
C15 O22 1.247 . S
C15 O23 1.258 . S
O16 C14 1.247 . S
O16 Zn17 2.028 . S
Zn17 O16 2.028 . S
Zn17 O21 2.035 . S
Zn17 O23 2.035 . S
Zn17 O24 2.028 . S
O18 C14 1.258 . S
O18 Zn19 2.035 . S
Zn19 O18 2.035 . S
Zn19 O20 2.028 . S
Zn19 O22 2.028 . S
Zn19 O25 2.035 . S
O20 Zn19 2.028 . S
O20 C26 1.247 . S
O21 Zn17 2.035 . S
O21 C26 1.258 . S
O22 C15 1.247 . S
O22 Zn19 2.028 . S
O23 C15 1.258 . S
O23 Zn17 2.035 . S
O24 Zn17 2.028 . S
O24 C27 1.247 . S
O25 Zn19 2.035 . S
O25 C27 1.258 . S
C26 O20 1.247 . S
C26 O21 1.258 . S
C27 O24 1.247 . S
C27 O25 1.258 . S
C28 O30 1.247 . S
C28 O32 1.258 . S
C29 O36 1.247 . S
C29 O37 1.258 . S
O30 C28 1.247 . S
O30 Zn31 2.028 . S
Zn31 O30 2.028 . S
Zn31 O35 2.035 . S
Zn31 O37 2.035 . S
Zn31 O38 2.028 . S
O32 C28 1.258 . S
O32 Zn33 2.035 . S
Zn33 O32 2.035 . S
Zn33 O34 2.028 . S
Zn33 O36 2.028 . S
Zn33 O39 2.035 . S
O34 Zn33 2.028 . S
O34 C40 1.247 . S
O35 Zn31 2.035 . S
O35 C40 1.258 . S
O36 C29 1.247 . S
O36 Zn33 2.028 . S
O37 C29 1.258 . S
O37 Zn31 2.035 . S
O38 Zn31 2.028 . S
O38 C41 1.247 . S
O39 Zn33 2.035 . S
O39 C41 1.258 . S
C40 O34 1.247 . S
C40 O35 1.258 . S
C41 O38 1.247 . S
C41 O39 1.258 . S
C42 O44 1.247 . S
C42 O46 1.258 . S
C43 O50 1.247 . S
C43 O51 1.258 . S
O44 C42 1.247 . S
O44 Zn45 2.028 . S
Zn45 O44 2.028 . S
Zn45 O49 2.035 . S
Zn45 O51 2.035 . S
Zn45 O52 2.028 . S
O46 C42 1.258 . S
O46 Zn47 2.035 . S
Zn47 O46 2.035 . S
Zn47 O48 2.028 . S
Zn47 O50 2.028 . S
Zn47 O53 2.035 . S
O48 Zn47 2.028 . S
O48 C54 1.247 . S
O49 Zn45 2.035 . S
O49 C54 1.258 . S
O50 C43 1.247 . S
O50 Zn47 2.028 . S
O51 C43 1.258 . S
O51 Zn45 2.035 . S
O52 Zn45 2.028 . S
O52 C55 1.247 . S
O53 Zn47 2.035 . S
O53 C55 1.258 . S
C54 O48 1.247 . S
C54 O49 1.258 . S
C55 O52 1.247 . S
C55 O53 1.258 . S
C56 O58 1.247 . S
C56 O60 1.258 . S
C57 O64 1.247 . S
C57 O65 1.258 . S
O58 C56 1.247 . S
O58 Zn59 2.028 . S
Zn59 O58 2.028 . S
Zn59 O63 2.035 . S
Zn59 O65 2.035 . S
Zn59 O66 2.028 . S
O60 C56 1.258 . S
O60 Zn61 2.035 . S
Zn61 O60 2.035 . S
Zn61 O62 2.028 . S
Zn61 O64 2.028 . S
Zn61 O67 2.035 . S
O62 Zn61 2.028 . S
O62 C68 1.247 . S
O63 Zn59 2.035 . S
O63 C68 1.258 . S
O64 C57 1.247 . S
O64 Zn61 2.028 . S
O65 C57 1.258 . S
O65 Zn59 2.035 . S
O66 Zn59 2.028 . S
O66 C69 1.247 . S
O67 Zn61 2.035 . S
O67 C69 1.258 . S
C68 O62 1.247 . S
C68 O63 1.258 . S
C69 O66 1.247 . S
C69 O67 1.258 . S
C70 O72 1.247 . S
C70 O74 1.258 . S
C71 O78 1.247 . S
C71 O79 1.258 . S
O72 C70 1.247 . S
O72 Zn73 2.028 . S
Zn73 O72 2.028 . S
Zn73 O77 2.035 . S
Zn73 O79 2.035 . S
Zn73 O80 2.028 . S
O74 C70 1.258 . S
O74 Zn75 2.035 . S
Zn75 O74 2.035 . S
Zn75 O76 2.028 . S
Zn75 O78 2.028 . S
Zn75 O81 2.035 . S
O76 Zn75 2.028 . S
O76 C82 1.247 . S
O77 Zn73 2.035 . S
O77 C82 1.258 . S
O78 C71 1.247 . S
O78 Zn75 2.028 . S
O79 C71 1.258 . S
O79 Zn73 2.035 . S
O80 Zn73 2.028 . S
O80 C83 1.247 . S
O81 Zn75 2.035 . S
O81 C83 1.258 . S
C82 O76 1.247 . S
C82 O77 1.258 . S
C83 O80 1.247 . S
C83 O81 1.258 . S
C84 O86 1.247 . S
C84 O88 1.258 . S
C85 O92 1.247 . S
C85 O93 1.258 . S
O86 C84 1.247 . S
O86 Zn87 2.028 . S
Zn87 O86 2.028 . S
Zn87 O91 2.035 . S
Zn87 O93 2.035 . S
Zn87 O94 2.028 . S
O88 C84 1.258 . S
O88 Zn89 2.035 . S
Zn89 O88 2.035 . S
Zn89 O90 2.028 . S
Zn89 O92 2.028 . S
Zn89 O95 2.035 . S
O90 Zn89 2.028 . S
O90 C96 1.247 . S
O91 Zn87 2.035 . S
O91 C96 1.258 . S
O92 C85 1.247 . S
O92 Zn89 2.028 . S
O93 C85 1.258 . S
O93 Zn87 2.035 . S
O94 Zn87 2.028 . S
O94 C97 1.247 . S
O95 Zn89 2.035 . S
O95 C97 1.258 . S
C96 O90 1.247 . S
C96 O91 1.258 . S
C97 O94 1.247 . S
C97 O95 1.258 . S
C98 O100 1.247 . S
C98 O102 1.258 . S
C99 O106 1.247 . S
C99 O107 1.258 . S
O100 C98 1.247 . S
O100 Zn101 2.028 . S
Zn101 O100 2.028 . S
Zn101 O105 2.035 . S
Zn101 O107 2.035 . S
Zn101 O108 2.028 . S
O102 C98 1.258 . S
O102 Zn103 2.035 . S
Zn103 O102 2.035 . S
Zn103 O104 2.028 . S
Zn103 O106 2.028 . S
Zn103 O109 2.035 . S
O104 Zn103 2.028 . S
O104 C110 1.247 . S
O105 Zn101 2.035 . S
O105 C110 1.258 . S
O106 C99 1.247 . S
O106 Zn103 2.028 . S
O107 C99 1.258 . S
O107 Zn101 2.035 . S
O108 Zn101 2.028 . S
O108 C111 1.247 . S
O109 Zn103 2.035 . S
O109 C111 1.258 . S
C110 O104 1.247 . S
C110 O105 1.258 . S
C111 O108 1.247 . S
C111 O109 1.258 . S
C112 O114 1.247 . S
C112 O116 1.258 . S
C113 O120 1.247 . S
C113 O121 1.258 . S
O114 C112 1.247 . S
O114 Zn115 2.027 . S
Zn115 O114 2.027 . S
Zn115 O119 2.036 1_655 S
Zn115 O121 2.036 1_655 S
Zn115 O122 2.027 . S
O116 C112 1.258 . S
O116 Zn117 2.028 1_655 S
Zn117 O116 2.028 1_455 S
Zn117 O118 2.035 . S
Zn117 O120 2.035 . S
Zn117 O123 2.028 1_455 S
O118 Zn117 2.035 . S
O118 C124 1.247 . S
O119 Zn115 2.036 1_455 S
O119 C124 1.258 . S
O120 C113 1.247 . S
O120 Zn117 2.035 . S
O121 C113 1.258 . S
O121 Zn115 2.036 1_455 S
O122 Zn115 2.027 . S
O122 C125 1.247 . S
O123 Zn117 2.028 1_655 S
O123 C125 1.258 . S
C124 O118 1.247 . S
C124 O119 1.258 . S
C125 O122 1.247 . S
C125 O123 1.258 . S
C126 O128 1.247 . S
C126 O130 1.258 . S
C127 O134 1.247 . S
C127 O135 1.258 . S
O128 C126 1.247 . S
O128 Zn129 2.035 . S
Zn129 O128 2.035 . S
Zn129 O133 2.028 1_545 S
Zn129 O135 2.028 1_545 S
Zn129 O136 2.035 . S
O130 C126 1.258 . S
O130 Zn131 2.036 1_545 S
Zn131 O130 2.036 1_565 S
Zn131 O132 2.027 . S
Zn131 O134 2.027 . S
Zn131 O137 2.036 1_565 S
O132 Zn131 2.027 . S
O132 C138 1.247 . S
O133 Zn129 2.028 1_565 S
O133 C138 1.258 . S
O134 C127 1.247 . S
O134 Zn131 2.027 . S
O135 C127 1.258 . S
O135 Zn129 2.028 1_565 S
O136 Zn129 2.035 . S
O136 C139 1.247 . S
O137 Zn131 2.036 1_545 S
O137 C139 1.258 . S
C138 O132 1.247 . S
C138 O133 1.258 . S
C139 O136 1.247 . S
C139 O137 1.258 . S
C140 O142 1.247 . S
C140 O144 1.258 . S
C141 O148 1.247 . S
C141 O149 1.258 . S
O142 C140 1.247 . S
O142 Zn143 2.027 . S
Zn143 O142 2.027 . S
Zn143 O147 2.036 1_655 S
Zn143 O149 2.036 1_655 S
Zn143 O150 2.027 . S
O144 C140 1.258 . S
O144 Zn145 2.028 1_655 S
Zn145 O144 2.028 1_455 S
Zn145 O146 2.035 . S
Zn145 O148 2.035 . S
Zn145 O151 2.028 1_455 S
O146 Zn145 2.035 . S
O146 C152 1.247 . S
O147 Zn143 2.036 1_455 S
O147 C152 1.258 . S
O148 C141 1.247 . S
O148 Zn145 2.035 . S
O149 C141 1.258 . S
O149 Zn143 2.036 1_455 S
O150 Zn143 2.027 . S
O150 C153 1.247 . S
O151 Zn145 2.028 1_655 S
O151 C153 1.258 . S
C152 O146 1.247 . S
C152 O147 1.258 . S
C153 O150 1.247 . S
C153 O151 1.258 . S
C154 O156 1.247 . S
C154 O158 1.258 . S
C155 O162 1.247 . S
C155 O163 1.258 . S
O156 C154 1.247 . S
O156 Zn157 2.035 . S
Zn157 O156 2.035 . S
Zn157 O161 2.028 1_545 S
Zn157 O163 2.028 1_545 S
Zn157 O164 2.035 . S
O158 C154 1.258 . S
O158 Zn159 2.036 1_545 S
Zn159 O158 2.036 1_565 S
Zn159 O160 2.027 . S
Zn159 O162 2.027 . S
Zn159 O165 2.036 1_565 S
O160 Zn159 2.027 . S
O160 C166 1.247 . S
O161 Zn157 2.028 1_565 S
O161 C166 1.258 . S
O162 C155 1.247 . S
O162 Zn159 2.027 . S
O163 C155 1.258 . S
O163 Zn157 2.028 1_565 S
O164 Zn157 2.035 . S
O164 C167 1.247 . S
O165 Zn159 2.036 1_545 S
O165 C167 1.258 . S
C166 O160 1.247 . S
C166 O161 1.258 . S
C167 O164 1.247 . S
C167 O165 1.258 . S
C168 O170 1.247 . S
C168 O172 1.258 . S
C169 O176 1.247 . S
C169 O177 1.258 . S
O170 C168 1.247 . S
O170 Zn171 2.028 . S
Zn171 O170 2.028 . S
Zn171 O175 2.035 . S
Zn171 O177 2.035 1_554 S
Zn171 O178 2.028 1_554 S
O172 C168 1.258 . S
O172 Zn173 2.035 . S
Zn173 O172 2.035 . S
Zn173 O174 2.028 . S
Zn173 O176 2.028 1_554 S
Zn173 O179 2.035 1_554 S
O174 Zn173 2.028 . S
O174 C180 1.247 . S
O175 Zn171 2.035 . S
O175 C180 1.258 . S
O176 C169 1.247 . S
O176 Zn173 2.028 1_556 S
O177 C169 1.258 . S
O177 Zn171 2.035 1_556 S
O178 Zn171 2.028 1_556 S
O178 C181 1.247 . S
O179 Zn173 2.035 1_556 S
O179 C181 1.258 . S
C180 O174 1.247 . S
C180 O175 1.258 . S
C181 O178 1.247 . S
C181 O179 1.258 . S
C182 O184 1.247 . S
C182 O186 1.258 . S
C183 O190 1.247 . S
C183 O191 1.258 . S
O184 C182 1.247 . S
O184 Zn185 2.028 . S
Zn185 O184 2.028 . S
Zn185 O189 2.035 . S
Zn185 O191 2.035 1_554 S
Zn185 O192 2.028 1_554 S
O186 C182 1.258 . S
O186 Zn187 2.035 . S
Zn187 O186 2.035 . S
Zn187 O188 2.028 . S
Zn187 O190 2.028 1_554 S
Zn187 O193 2.035 1_554 S
O188 Zn187 2.028 . S
O188 C194 1.247 . S
O189 Zn185 2.035 . S
O189 C194 1.258 . S
O190 C183 1.247 . S
O190 Zn187 2.028 1_556 S
O191 C183 1.258 . S
O191 Zn185 2.035 1_556 S
O192 Zn185 2.028 1_556 S
O192 C195 1.247 . S
O193 Zn187 2.035 1_556 S
O193 C195 1.258 . S
C194 O188 1.247 . S
C194 O189 1.258 . S
C195 O192 1.247 . S
C195 O193 1.258 . S
C196 O198 1.247 . S
C196 O200 1.258 . S
C197 O204 1.247 . S
C197 O205 1.258 . S
O198 C196 1.247 . S
O198 Zn199 2.028 1_556 S
Zn199 O198 2.028 1_554 S
Zn199 O203 2.035 1_554 S
Zn199 O205 2.035 . S
Zn199 O206 2.028 . S
O200 C196 1.258 . S
O200 Zn201 2.035 1_556 S
Zn201 O200 2.035 1_554 S
Zn201 O202 2.028 1_554 S
Zn201 O204 2.028 . S
Zn201 O207 2.035 . S
O202 Zn201 2.028 1_556 S
O202 C208 1.247 . S
O203 Zn199 2.035 1_556 S
O203 C208 1.258 . S
O204 C197 1.247 . S
O204 Zn201 2.028 . S
O205 C197 1.258 . S
O205 Zn199 2.035 . S
O206 Zn199 2.028 . S
O206 C209 1.247 . S
O207 Zn201 2.035 . S
O207 C209 1.258 . S
C208 O202 1.247 . S
C208 O203 1.258 . S
C209 O206 1.247 . S
C209 O207 1.258 . S
C210 O212 1.247 . S
C210 O214 1.258 . S
C211 O218 1.247 . S
C211 O219 1.258 . S
O212 C210 1.247 . S
O212 Zn213 2.028 . S
Zn213 O212 2.028 . S
Zn213 O217 2.035 . S
Zn213 O219 2.035 1_554 S
Zn213 O220 2.028 1_554 S
O214 C210 1.258 . S
O214 Zn215 2.035 . S
Zn215 O214 2.035 . S
Zn215 O216 2.028 . S
Zn215 O218 2.028 1_554 S
Zn215 O221 2.035 1_554 S
O216 Zn215 2.028 . S
O216 C222 1.247 . S
O217 Zn213 2.035 . S
O217 C222 1.258 . S
O218 C211 1.247 . S
O218 Zn215 2.028 1_556 S
O219 C211 1.258 . S
O219 Zn213 2.035 1_556 S
O220 Zn213 2.028 1_556 S
O220 C223 1.247 . S
O221 Zn215 2.035 1_556 S
O221 C223 1.258 . S
C222 O216 1.247 . S
C222 O217 1.258 . S
C223 O220 1.247 . S
C223 O221 1.258 . S
H224 C242 0.951 . S
H225 C244 0.951 . S
H226 C246 0.950 . S
H227 C247 0.950 . S
H228 C249 0.950 . S
H229 C252 0.950 . S
H230 C253 0.950 . S
H231 C255 0.950 . S
H232 C256 0.950 . S
H233 C257 0.951 . S
H234 C259 0.951 . S
H235 C261 0.950 . S
H236 C262 0.950 . S
H237 C264 0.950 . S
H238 C267 0.950 . S
H239 C268 0.950 . S
H240 C270 0.950 . S
H241 C271 0.950 . S
C242 H224 0.951 . S
C242 C243 1.366 . S
C242 C244 1.388 . S
C243 C242 1.366 . S
C243 C247 1.385 . S
C244 H225 0.951 . S
C244 C242 1.388 . S
C244 C245 1.366 . S
C245 C244 1.366 . S
C245 C246 1.414 . S
C245 C248 1.499 . S
C246 H226 0.950 . S
C246 C245 1.414 . S
C246 C247 1.374 . S
C247 H227 0.950 . S
C247 C243 1.385 . S
C247 C246 1.374 . S
C248 C245 1.499 . S
C248 C249 1.373 . S
C248 C250 1.389 . S
C249 H228 0.950 . S
C249 C248 1.373 . S
C249 C265 1.377 . S
C250 C248 1.389 . S
C250 C251 1.524 . S
C250 C264 1.377 . S
C251 C250 1.524 . S
C251 C252 1.397 . S
C251 C256 1.363 . S
C252 H229 0.950 . S
C252 C251 1.397 . S
C252 C253 1.334 . S
C253 H230 0.950 . S
C253 C252 1.334 . S
C253 C254 1.287 . S
C254 C253 1.287 . S
C254 C255 1.524 . S
C254 H273 0.913 . S
C255 H231 0.950 . S
C255 C254 1.524 . S
C255 C256 1.415 . S
C256 H232 0.950 . S
C256 C251 1.363 . S
C256 C255 1.415 . S
C257 H233 0.951 . S
C257 C258 1.366 . S
C257 C259 1.388 . S
C258 C257 1.366 . S
C258 C262 1.385 . S
C259 H234 0.951 . S
C259 C257 1.388 . S
C259 C260 1.366 . S
C260 C259 1.366 . S
C260 C261 1.414 . S
C260 C263 1.499 . S
C261 H235 0.950 . S
C261 C260 1.414 . S
C261 C262 1.374 . S
C262 H236 0.950 . S
C262 C258 1.385 . S
C262 C261 1.374 . S
C263 C260 1.499 . S
C263 C264 1.373 . S
C263 C265 1.389 . S
C264 H237 0.950 . S
C264 C250 1.377 . S
C264 C263 1.373 . S
C265 C249 1.377 . S
C265 C263 1.389 . S
C265 C266 1.524 . S
C266 C265 1.524 . S
C266 C267 1.397 . S
C266 C271 1.363 . S
C267 H238 0.950 . S
C267 C266 1.397 . S
C267 C268 1.334 . S
C268 H239 0.950 . S
C268 C267 1.334 . S
C268 C269 1.287 . S
C269 C268 1.287 . S
C269 C270 1.524 . S
C269 H272 0.999 . S
C270 H240 0.950 . S
C270 C269 1.524 . S
C270 C271 1.415 . S
C271 H241 0.950 . S
C271 C266 1.363 . S
C271 C270 1.415 . S
H272 C269 0.999 . S
H273 C254 0.913 . S
H274 C292 0.951 . S
H275 C294 0.951 . S
H276 C296 0.950 . S
H277 C297 0.950 . S
H278 C299 0.950 . S
H279 C302 0.950 . S
H280 C303 0.950 . S
H281 C305 0.950 . S
H282 C306 0.950 . S
H283 C307 0.951 . S
H284 C309 0.951 . S
H285 C311 0.950 . S
H286 C312 0.950 . S
H287 C314 0.950 . S
H288 C317 0.950 . S
H289 C318 0.950 . S
H290 C320 0.950 . S
H291 C321 0.950 . S
C292 H274 0.951 . S
C292 C293 1.366 . S
C292 C294 1.388 . S
C293 C292 1.366 . S
C293 C297 1.385 . S
C294 H275 0.951 . S
C294 C292 1.388 . S
C294 C295 1.366 . S
C295 C294 1.366 . S
C295 C296 1.414 . S
C295 C298 1.499 . S
C296 H276 0.950 . S
C296 C295 1.414 . S
C296 C297 1.374 . S
C297 H277 0.950 . S
C297 C293 1.385 . S
C297 C296 1.374 . S
C298 C295 1.499 . S
C298 C299 1.373 . S
C298 C300 1.389 . S
C299 H278 0.950 . S
C299 C298 1.373 . S
C299 C315 1.377 . S
C300 C298 1.389 . S
C300 C301 1.524 . S
C300 C314 1.377 . S
C301 C300 1.524 . S
C301 C302 1.397 . S
C301 C306 1.363 . S
C302 H279 0.950 . S
C302 C301 1.397 . S
C302 C303 1.334 . S
C303 H280 0.950 . S
C303 C302 1.334 . S
C303 C304 1.287 . S
C304 C303 1.287 . S
C304 C305 1.524 . S
C304 H323 0.913 . S
C305 H281 0.950 . S
C305 C304 1.524 . S
C305 C306 1.415 . S
C306 H282 0.950 . S
C306 C301 1.363 . S
C306 C305 1.415 . S
C307 H283 0.951 . S
C307 C308 1.366 . S
C307 C309 1.388 . S
C308 C307 1.366 . S
C308 C312 1.385 . S
C309 H284 0.951 . S
C309 C307 1.388 . S
C309 C310 1.366 . S
C310 C309 1.366 . S
C310 C311 1.414 . S
C310 C313 1.499 . S
C311 H285 0.950 . S
C311 C310 1.414 . S
C311 C312 1.374 . S
C312 H286 0.950 . S
C312 C308 1.385 . S
C312 C311 1.374 . S
C313 C310 1.499 . S
C313 C314 1.373 . S
C313 C315 1.389 . S
C314 H287 0.950 . S
C314 C300 1.377 . S
C314 C313 1.373 . S
C315 C299 1.377 . S
C315 C313 1.389 . S
C315 C316 1.524 . S
C316 C315 1.524 . S
C316 C317 1.397 . S
C316 C321 1.363 . S
C317 H288 0.950 . S
C317 C316 1.397 . S
C317 C318 1.334 . S
C318 H289 0.950 . S
C318 C317 1.334 . S
C318 C319 1.287 . S
C319 C318 1.287 . S
C319 C320 1.524 . S
C319 H322 0.999 . S
C320 H290 0.950 . S
C320 C319 1.524 . S
C320 C321 1.415 . S
C321 H291 0.950 . S
C321 C316 1.363 . S
C321 C320 1.415 . S
H322 C319 0.999 . S
H323 C304 0.913 . S
H324 C342 0.951 . S
H325 C344 0.951 . S
H326 C346 0.950 . S
H327 C347 0.950 . S
H328 C349 0.950 . S
H329 C352 0.950 . S
H330 C353 0.950 . S
H331 C355 0.950 . S
H332 C356 0.950 . S
H333 C357 0.951 . S
H334 C359 0.951 . S
H335 C361 0.950 . S
H336 C362 0.950 . S
H337 C364 0.950 . S
H338 C367 0.950 . S
H339 C368 0.950 . S
H340 C370 0.950 . S
H341 C371 0.950 . S
C342 H324 0.951 . S
C342 C343 1.366 . S
C342 C344 1.388 . S
C343 C342 1.366 . S
C343 C347 1.385 . S
C344 H325 0.951 . S
C344 C342 1.388 . S
C344 C345 1.366 . S
C345 C344 1.366 . S
C345 C346 1.414 . S
C345 C348 1.499 . S
C346 H326 0.950 . S
C346 C345 1.414 . S
C346 C347 1.374 . S
C347 H327 0.950 . S
C347 C343 1.385 . S
C347 C346 1.374 . S
C348 C345 1.499 . S
C348 C349 1.373 . S
C348 C350 1.389 . S
C349 H328 0.950 . S
C349 C348 1.373 . S
C349 C365 1.377 . S
C350 C348 1.389 . S
C350 C351 1.524 . S
C350 C364 1.377 . S
C351 C350 1.524 . S
C351 C352 1.397 . S
C351 C356 1.363 . S
C352 H329 0.950 . S
C352 C351 1.397 . S
C352 C353 1.334 . S
C353 H330 0.950 . S
C353 C352 1.334 . S
C353 C354 1.287 . S
C354 C353 1.287 . S
C354 C355 1.524 . S
C354 H373 0.913 . S
C355 H331 0.950 . S
C355 C354 1.524 . S
C355 C356 1.415 . S
C356 H332 0.950 . S
C356 C351 1.363 . S
C356 C355 1.415 . S
C357 H333 0.951 . S
C357 C358 1.366 . S
C357 C359 1.388 . S
C358 C357 1.366 . S
C358 C362 1.385 . S
C359 H334 0.951 . S
C359 C357 1.388 . S
C359 C360 1.366 . S
C360 C359 1.366 . S
C360 C361 1.414 . S
C360 C363 1.499 . S
C361 H335 0.950 . S
C361 C360 1.414 . S
C361 C362 1.374 . S
C362 H336 0.950 . S
C362 C358 1.385 . S
C362 C361 1.374 . S
C363 C360 1.499 . S
C363 C364 1.373 . S
C363 C365 1.389 . S
C364 H337 0.950 . S
C364 C350 1.377 . S
C364 C363 1.373 . S
C365 C349 1.377 . S
C365 C363 1.389 . S
C365 C366 1.524 . S
C366 C365 1.524 . S
C366 C367 1.397 . S
C366 C371 1.363 . S
C367 H338 0.950 . S
C367 C366 1.397 . S
C367 C368 1.334 . S
C368 H339 0.950 . S
C368 C367 1.334 . S
C368 C369 1.287 . S
C369 C368 1.287 . S
C369 C370 1.524 . S
C369 H372 0.999 . S
C370 H340 0.950 . S
C370 C369 1.524 . S
C370 C371 1.415 . S
C371 H341 0.950 . S
C371 C366 1.363 . S
C371 C370 1.415 . S
H372 C369 0.999 . S
H373 C354 0.913 . S
H374 C392 0.951 . S
H375 C394 0.951 . S
H376 C396 0.950 . S
H377 C397 0.950 . S
H378 C399 0.950 . S
H379 C402 0.950 . S
H380 C403 0.950 . S
H381 C405 0.950 . S
H382 C406 0.950 . S
H383 C407 0.951 . S
H384 C409 0.951 . S
H385 C411 0.950 . S
H386 C412 0.950 . S
H387 C414 0.950 . S
H388 C417 0.950 . S
H389 C418 0.950 . S
H390 C420 0.950 . S
H391 C421 0.950 . S
C392 H374 0.951 . S
C392 C393 1.366 . S
C392 C394 1.388 . S
C393 C392 1.366 . S
C393 C397 1.385 . S
C394 H375 0.951 . S
C394 C392 1.388 . S
C394 C395 1.366 . S
C395 C394 1.366 . S
C395 C396 1.414 . S
C395 C398 1.499 . S
C396 H376 0.950 . S
C396 C395 1.414 . S
C396 C397 1.374 . S
C397 H377 0.950 . S
C397 C393 1.385 . S
C397 C396 1.374 . S
C398 C395 1.499 . S
C398 C399 1.373 . S
C398 C400 1.389 . S
C399 H378 0.950 . S
C399 C398 1.373 . S
C399 C415 1.377 . S
C400 C398 1.389 . S
C400 C401 1.524 . S
C400 C414 1.377 . S
C401 C400 1.524 . S
C401 C402 1.397 . S
C401 C406 1.363 . S
C402 H379 0.950 . S
C402 C401 1.397 . S
C402 C403 1.334 . S
C403 H380 0.950 . S
C403 C402 1.334 . S
C403 C404 1.287 . S
C404 C403 1.287 . S
C404 C405 1.524 . S
C404 H423 0.913 . S
C405 H381 0.950 . S
C405 C404 1.524 . S
C405 C406 1.415 . S
C406 H382 0.950 . S
C406 C401 1.363 . S
C406 C405 1.415 . S
C407 H383 0.951 . S
C407 C408 1.366 . S
C407 C409 1.388 . S
C408 C407 1.366 . S
C408 C412 1.385 . S
C409 H384 0.951 . S
C409 C407 1.388 . S
C409 C410 1.366 . S
C410 C409 1.366 . S
C410 C411 1.414 . S
C410 C413 1.499 . S
C411 H385 0.950 . S
C411 C410 1.414 . S
C411 C412 1.374 . S
C412 H386 0.950 . S
C412 C408 1.385 . S
C412 C411 1.374 . S
C413 C410 1.499 . S
C413 C414 1.373 . S
C413 C415 1.389 . S
C414 H387 0.950 . S
C414 C400 1.377 . S
C414 C413 1.373 . S
C415 C399 1.377 . S
C415 C413 1.389 . S
C415 C416 1.524 . S
C416 C415 1.524 . S
C416 C417 1.397 . S
C416 C421 1.363 . S
C417 H388 0.950 . S
C417 C416 1.397 . S
C417 C418 1.334 . S
C418 H389 0.950 . S
C418 C417 1.334 . S
C418 C419 1.287 . S
C419 C418 1.287 . S
C419 C420 1.524 . S
C419 H422 0.999 . S
C420 H390 0.950 . S
C420 C419 1.524 . S
C420 C421 1.415 . S
C421 H391 0.950 . S
C421 C416 1.363 . S
C421 C420 1.415 . S
H422 C419 0.999 . S
H423 C404 0.913 . S
H424 C442 0.951 . S
H425 C444 0.951 . S
H426 C446 0.950 . S
H427 C447 0.950 . S
H428 C449 0.950 . S
H429 C452 0.950 . S
H430 C453 0.950 . S
H431 C455 0.950 . S
H432 C456 0.950 . S
H433 C457 0.951 . S
H434 C459 0.951 . S
H435 C461 0.950 . S
H436 C462 0.950 . S
H437 C464 0.950 . S
H438 C467 0.950 . S
H439 C468 0.950 . S
H440 C470 0.950 . S
H441 C471 0.950 . S
C442 H424 0.951 . S
C442 C443 1.366 . S
C442 C444 1.388 . S
C443 C442 1.366 . S
C443 C447 1.385 . S
C444 H425 0.951 . S
C444 C442 1.388 . S
C444 C445 1.366 . S
C445 C444 1.366 . S
C445 C446 1.414 . S
C445 C448 1.499 . S
C446 H426 0.950 . S
C446 C445 1.414 . S
C446 C447 1.374 . S
C447 H427 0.950 . S
C447 C443 1.385 . S
C447 C446 1.374 . S
C448 C445 1.499 . S
C448 C449 1.373 . S
C448 C450 1.389 . S
C449 H428 0.950 . S
C449 C448 1.373 . S
C449 C465 1.377 . S
C450 C448 1.389 . S
C450 C451 1.524 . S
C450 C464 1.377 . S
C451 C450 1.524 . S
C451 C452 1.397 . S
C451 C456 1.363 . S
C452 H429 0.950 . S
C452 C451 1.397 . S
C452 C453 1.334 . S
C453 H430 0.950 . S
C453 C452 1.334 . S
C453 C454 1.287 . S
C454 C453 1.287 . S
C454 C455 1.524 . S
C454 H473 0.913 . S
C455 H431 0.950 . S
C455 C454 1.524 . S
C455 C456 1.415 . S
C456 H432 0.950 . S
C456 C451 1.363 . S
C456 C455 1.415 . S
C457 H433 0.951 . S
C457 C458 1.366 . S
C457 C459 1.388 . S
C458 C457 1.366 . S
C458 C462 1.385 . S
C459 H434 0.951 . S
C459 C457 1.388 . S
C459 C460 1.366 . S
C460 C459 1.366 . S
C460 C461 1.414 . S
C460 C463 1.499 . S
C461 H435 0.950 . S
C461 C460 1.414 . S
C461 C462 1.374 . S
C462 H436 0.950 . S
C462 C458 1.385 . S
C462 C461 1.374 . S
C463 C460 1.499 . S
C463 C464 1.373 . S
C463 C465 1.389 . S
C464 H437 0.950 . S
C464 C450 1.377 . S
C464 C463 1.373 . S
C465 C449 1.377 . S
C465 C463 1.389 . S
C465 C466 1.524 . S
C466 C465 1.524 . S
C466 C467 1.397 . S
C466 C471 1.363 . S
C467 H438 0.950 . S
C467 C466 1.397 . S
C467 C468 1.334 . S
C468 H439 0.950 . S
C468 C467 1.334 . S
C468 C469 1.287 . S
C469 C468 1.287 . S
C469 C470 1.524 . S
C469 H472 0.999 . S
C470 H440 0.950 . S
C470 C469 1.524 . S
C470 C471 1.415 . S
C471 H441 0.950 . S
C471 C466 1.363 . S
C471 C470 1.415 . S
H472 C469 0.999 . S
H473 C454 0.913 . S
H474 C492 0.951 . S
H475 C494 0.951 . S
H476 C496 0.950 . S
H477 C497 0.950 . S
H478 C499 0.950 . S
H479 C502 0.950 . S
H480 C503 0.950 . S
H481 C505 0.950 . S
H482 C506 0.950 . S
H483 C507 0.951 . S
H484 C509 0.951 . S
H485 C511 0.950 . S
H486 C512 0.950 . S
H487 C514 0.950 . S
H488 C517 0.950 . S
H489 C518 0.950 . S
H490 C520 0.950 . S
H491 C521 0.950 . S
C492 H474 0.951 . S
C492 C493 1.366 . S
C492 C494 1.388 . S
C493 C492 1.366 . S
C493 C497 1.385 . S
C494 H475 0.951 . S
C494 C492 1.388 . S
C494 C495 1.366 . S
C495 C494 1.366 . S
C495 C496 1.414 . S
C495 C498 1.499 . S
C496 H476 0.950 . S
C496 C495 1.414 . S
C496 C497 1.374 . S
C497 H477 0.950 . S
C497 C493 1.385 . S
C497 C496 1.374 . S
C498 C495 1.499 . S
C498 C499 1.373 . S
C498 C500 1.389 . S
C499 H478 0.950 . S
C499 C498 1.373 . S
C499 C515 1.377 . S
C500 C498 1.389 . S
C500 C501 1.524 . S
C500 C514 1.377 . S
C501 C500 1.524 . S
C501 C502 1.397 . S
C501 C506 1.363 . S
C502 H479 0.950 . S
C502 C501 1.397 . S
C502 C503 1.334 . S
C503 H480 0.950 . S
C503 C502 1.334 . S
C503 C504 1.287 . S
C504 C503 1.287 . S
C504 C505 1.524 . S
C504 H523 0.913 . S
C505 H481 0.950 . S
C505 C504 1.524 . S
C505 C506 1.415 . S
C506 H482 0.950 . S
C506 C501 1.363 . S
C506 C505 1.415 . S
C507 H483 0.951 . S
C507 C508 1.366 . S
C507 C509 1.388 . S
C508 C507 1.366 . S
C508 C512 1.385 . S
C509 H484 0.951 . S
C509 C507 1.388 . S
C509 C510 1.366 . S
C510 C509 1.366 . S
C510 C511 1.414 . S
C510 C513 1.499 . S
C511 H485 0.950 . S
C511 C510 1.414 . S
C511 C512 1.374 . S
C512 H486 0.950 . S
C512 C508 1.385 . S
C512 C511 1.374 . S
C513 C510 1.499 . S
C513 C514 1.373 . S
C513 C515 1.389 . S
C514 H487 0.950 . S
C514 C500 1.377 . S
C514 C513 1.373 . S
C515 C499 1.377 . S
C515 C513 1.389 . S
C515 C516 1.524 . S
C516 C515 1.524 . S
C516 C517 1.397 . S
C516 C521 1.363 . S
C517 H488 0.950 . S
C517 C516 1.397 . S
C517 C518 1.334 . S
C518 H489 0.950 . S
C518 C517 1.334 . S
C518 C519 1.287 . S
C519 C518 1.287 . S
C519 C520 1.524 . S
C519 H522 0.999 . S
C520 H490 0.950 . S
C520 C519 1.524 . S
C520 C521 1.415 . S
C521 H491 0.950 . S
C521 C516 1.363 . S
C521 C520 1.415 . S
H522 C519 0.999 . S
H523 C504 0.913 . S
H524 C542 0.951 . S
H525 C544 0.951 . S
H526 C546 0.950 . S
H527 C547 0.950 . S
H528 C549 0.950 . S
H529 C552 0.950 . S
H530 C553 0.950 . S
H531 C555 0.950 . S
H532 C556 0.950 . S
H533 C557 0.951 . S
H534 C559 0.951 . S
H535 C561 0.950 . S
H536 C562 0.950 . S
H537 C564 0.950 . S
H538 C567 0.950 . S
H539 C568 0.950 . S
H540 C570 0.950 . S
H541 C571 0.950 . S
C542 H524 0.951 . S
C542 C543 1.366 . S
C542 C544 1.388 . S
C543 C542 1.366 . S
C543 C547 1.385 . S
C544 H525 0.951 . S
C544 C542 1.388 . S
C544 C545 1.366 . S
C545 C544 1.366 . S
C545 C546 1.414 . S
C545 C548 1.499 . S
C546 H526 0.950 . S
C546 C545 1.414 . S
C546 C547 1.374 . S
C547 H527 0.950 . S
C547 C543 1.385 . S
C547 C546 1.374 . S
C548 C545 1.499 . S
C548 C549 1.373 . S
C548 C550 1.389 . S
C549 H528 0.950 . S
C549 C548 1.373 . S
C549 C565 1.377 . S
C550 C548 1.389 . S
C550 C551 1.524 . S
C550 C564 1.377 . S
C551 C550 1.524 . S
C551 C552 1.397 . S
C551 C556 1.363 . S
C552 H529 0.950 . S
C552 C551 1.397 . S
C552 C553 1.334 . S
C553 H530 0.950 . S
C553 C552 1.334 . S
C553 C554 1.287 . S
C554 C553 1.287 . S
C554 C555 1.524 . S
C554 H573 0.913 . S
C555 H531 0.950 . S
C555 C554 1.524 . S
C555 C556 1.415 . S
C556 H532 0.950 . S
C556 C551 1.363 . S
C556 C555 1.415 . S
C557 H533 0.951 . S
C557 C558 1.366 . S
C557 C559 1.388 . S
C558 C557 1.366 . S
C558 C562 1.385 . S
C559 H534 0.951 . S
C559 C557 1.388 . S
C559 C560 1.366 . S
C560 C559 1.366 . S
C560 C561 1.414 . S
C560 C563 1.499 . S
C561 H535 0.950 . S
C561 C560 1.414 . S
C561 C562 1.374 . S
C562 H536 0.950 . S
C562 C558 1.385 . S
C562 C561 1.374 . S
C563 C560 1.499 . S
C563 C564 1.373 . S
C563 C565 1.389 . S
C564 H537 0.950 . S
C564 C550 1.377 . S
C564 C563 1.373 . S
C565 C549 1.377 . S
C565 C563 1.389 . S
C565 C566 1.524 . S
C566 C565 1.524 . S
C566 C567 1.397 . S
C566 C571 1.363 . S
C567 H538 0.950 . S
C567 C566 1.397 . S
C567 C568 1.334 . S
C568 H539 0.950 . S
C568 C567 1.334 . S
C568 C569 1.287 . S
C569 C568 1.287 . S
C569 C570 1.524 . S
C569 H572 0.999 . S
C570 H540 0.950 . S
C570 C569 1.524 . S
C570 C571 1.415 . S
C571 H541 0.950 . S
C571 C566 1.363 . S
C571 C570 1.415 . S
H572 C569 0.999 . S
H573 C554 0.913 . S
H574 C592 0.951 . S
H575 C594 0.951 . S
H576 C596 0.950 . S
H577 C597 0.950 . S
H578 C599 0.950 . S
H579 C602 0.950 . S
H580 C603 0.950 . S
H581 C605 0.950 . S
H582 C606 0.950 . S
H583 C607 0.951 . S
H584 C609 0.951 . S
H585 C611 0.950 . S
H586 C612 0.950 . S
H587 C614 0.950 . S
H588 C617 0.950 . S
H589 C618 0.950 . S
H590 C620 0.950 . S
H591 C621 0.950 . S
C592 H574 0.951 . S
C592 C593 1.366 . S
C592 C594 1.388 . S
C593 C592 1.366 . S
C593 C597 1.385 . S
C594 H575 0.951 . S
C594 C592 1.388 . S
C594 C595 1.366 . S
C595 C594 1.366 . S
C595 C596 1.414 . S
C595 C598 1.499 . S
C596 H576 0.950 . S
C596 C595 1.414 . S
C596 C597 1.374 . S
C597 H577 0.950 . S
C597 C593 1.385 . S
C597 C596 1.374 . S
C598 C595 1.499 . S
C598 C599 1.373 . S
C598 C600 1.389 . S
C599 H578 0.950 . S
C599 C598 1.373 . S
C599 C615 1.377 . S
C600 C598 1.389 . S
C600 C601 1.524 . S
C600 C614 1.377 . S
C601 C600 1.524 . S
C601 C602 1.397 . S
C601 C606 1.363 . S
C602 H579 0.950 . S
C602 C601 1.397 . S
C602 C603 1.334 . S
C603 H580 0.950 . S
C603 C602 1.334 . S
C603 C604 1.287 . S
C604 C603 1.287 . S
C604 C605 1.524 . S
C604 H623 0.913 . S
C605 H581 0.950 . S
C605 C604 1.524 . S
C605 C606 1.415 . S
C606 H582 0.950 . S
C606 C601 1.363 . S
C606 C605 1.415 . S
C607 H583 0.951 . S
C607 C608 1.366 . S
C607 C609 1.388 . S
C608 C607 1.366 . S
C608 C612 1.385 . S
C609 H584 0.951 . S
C609 C607 1.388 . S
C609 C610 1.366 . S
C610 C609 1.366 . S
C610 C611 1.414 . S
C610 C613 1.499 . S
C611 H585 0.950 . S
C611 C610 1.414 . S
C611 C612 1.374 . S
C612 H586 0.950 . S
C612 C608 1.385 . S
C612 C611 1.374 . S
C613 C610 1.499 . S
C613 C614 1.373 . S
C613 C615 1.389 . S
C614 H587 0.950 . S
C614 C600 1.377 . S
C614 C613 1.373 . S
C615 C599 1.377 . S
C615 C613 1.389 . S
C615 C616 1.524 . S
C616 C615 1.524 . S
C616 C617 1.397 . S
C616 C621 1.363 . S
C617 H588 0.950 . S
C617 C616 1.397 . S
C617 C618 1.334 . S
C618 H589 0.950 . S
C618 C617 1.334 . S
C618 C619 1.287 . S
C619 C618 1.287 . S
C619 C620 1.524 . S
C619 H622 0.999 . S
C620 H590 0.950 . S
C620 C619 1.524 . S
C620 C621 1.415 . S
C621 H591 0.950 . S
C621 C616 1.363 . S
C621 C620 1.415 . S
H622 C619 0.999 . S
H623 C604 0.913 . S
H624 C642 0.951 . S
H625 C644 0.951 . S
H626 C646 0.950 . S
H627 C647 0.950 . S
H628 C649 0.950 . S
H629 C652 0.950 . S
H630 C653 0.950 . S
H631 C655 0.950 . S
H632 C656 0.950 . S
H633 C657 0.951 . S
H634 C659 0.951 . S
H635 C661 0.950 . S
H636 C662 0.950 . S
H637 C664 0.950 . S
H638 C667 0.950 . S
H639 C668 0.950 . S
H640 C670 0.950 . S
H641 C671 0.950 . S
C642 H624 0.951 . S
C642 C643 1.366 . S
C642 C644 1.388 . S
C643 C642 1.366 . S
C643 C647 1.385 . S
C644 H625 0.951 . S
C644 C642 1.388 . S
C644 C645 1.366 . S
C645 C644 1.366 . S
C645 C646 1.414 . S
C645 C648 1.499 . S
C646 H626 0.950 . S
C646 C645 1.414 . S
C646 C647 1.374 . S
C647 H627 0.950 . S
C647 C643 1.385 . S
C647 C646 1.374 . S
C648 C645 1.499 . S
C648 C649 1.373 . S
C648 C650 1.389 . S
C649 H628 0.950 . S
C649 C648 1.373 . S
C649 C665 1.377 . S
C650 C648 1.389 . S
C650 C651 1.524 . S
C650 C664 1.377 . S
C651 C650 1.524 . S
C651 C652 1.397 . S
C651 C656 1.363 . S
C652 H629 0.950 . S
C652 C651 1.397 . S
C652 C653 1.334 . S
C653 H630 0.950 . S
C653 C652 1.334 . S
C653 C654 1.287 . S
C654 C653 1.287 . S
C654 C655 1.524 . S
C654 H673 0.913 . S
C655 H631 0.950 . S
C655 C654 1.524 . S
C655 C656 1.415 . S
C656 H632 0.950 . S
C656 C651 1.363 . S
C656 C655 1.415 . S
C657 H633 0.951 . S
C657 C658 1.366 . S
C657 C659 1.388 . S
C658 C657 1.366 . S
C658 C662 1.385 . S
C659 H634 0.951 . S
C659 C657 1.388 . S
C659 C660 1.366 . S
C660 C659 1.366 . S
C660 C661 1.414 . S
C660 C663 1.499 . S
C661 H635 0.950 . S
C661 C660 1.414 . S
C661 C662 1.374 . S
C662 H636 0.950 . S
C662 C658 1.385 . S
C662 C661 1.374 . S
C663 C660 1.499 . S
C663 C664 1.373 . S
C663 C665 1.389 . S
C664 H637 0.950 . S
C664 C650 1.377 . S
C664 C663 1.373 . S
C665 C649 1.377 . S
C665 C663 1.389 . S
C665 C666 1.524 . S
C666 C665 1.524 . S
C666 C667 1.397 . S
C666 C671 1.363 . S
C667 H638 0.950 . S
C667 C666 1.397 . S
C667 C668 1.334 . S
C668 H639 0.950 . S
C668 C667 1.334 . S
C668 C669 1.287 . S
C669 C668 1.287 . S
C669 C670 1.524 . S
C669 H672 0.999 . S
C670 H640 0.950 . S
C670 C669 1.524 . S
C670 C671 1.415 . S
C671 H641 0.950 . S
C671 C666 1.363 . S
C671 C670 1.415 . S
H672 C669 0.999 . S
H673 C654 0.913 . S
H674 C692 0.951 . S
H675 C694 0.951 . S
H676 C696 0.950 . S
H677 C697 0.950 . S
H678 C699 0.950 . S
H679 C702 0.950 . S
H680 C703 0.950 . S
H681 C705 0.950 . S
H682 C706 0.950 . S
H683 C707 0.951 . S
H684 C709 0.951 . S
H685 C711 0.950 . S
H686 C712 0.950 . S
H687 C714 0.950 . S
H688 C717 0.950 . S
H689 C718 0.950 . S
H690 C720 0.950 . S
H691 C721 0.950 . S
C692 H674 0.951 . S
C692 C693 1.366 . S
C692 C694 1.388 . S
C693 C692 1.366 . S
C693 C697 1.385 . S
C694 H675 0.951 . S
C694 C692 1.388 . S
C694 C695 1.366 . S
C695 C694 1.366 . S
C695 C696 1.414 . S
C695 C698 1.499 . S
C696 H676 0.950 . S
C696 C695 1.414 . S
C696 C697 1.374 . S
C697 H677 0.950 . S
C697 C693 1.385 . S
C697 C696 1.374 . S
C698 C695 1.499 . S
C698 C699 1.373 . S
C698 C700 1.389 . S
C699 H678 0.950 . S
C699 C698 1.373 . S
C699 C715 1.377 . S
C700 C698 1.389 . S
C700 C701 1.524 . S
C700 C714 1.377 . S
C701 C700 1.524 . S
C701 C702 1.397 . S
C701 C706 1.363 . S
C702 H679 0.950 . S
C702 C701 1.397 . S
C702 C703 1.334 . S
C703 H680 0.950 . S
C703 C702 1.334 . S
C703 C704 1.287 . S
C704 C703 1.287 . S
C704 C705 1.524 . S
C704 H723 0.913 . S
C705 H681 0.950 . S
C705 C704 1.524 . S
C705 C706 1.415 . S
C706 H682 0.950 . S
C706 C701 1.363 . S
C706 C705 1.415 . S
C707 H683 0.951 . S
C707 C708 1.366 . S
C707 C709 1.388 . S
C708 C707 1.366 . S
C708 C712 1.385 . S
C709 H684 0.951 . S
C709 C707 1.388 . S
C709 C710 1.366 . S
C710 C709 1.366 . S
C710 C711 1.414 . S
C710 C713 1.499 . S
C711 H685 0.950 . S
C711 C710 1.414 . S
C711 C712 1.374 . S
C712 H686 0.950 . S
C712 C708 1.385 . S
C712 C711 1.374 . S
C713 C710 1.499 . S
C713 C714 1.373 . S
C713 C715 1.389 . S
C714 H687 0.950 . S
C714 C700 1.377 . S
C714 C713 1.373 . S
C715 C699 1.377 . S
C715 C713 1.389 . S
C715 C716 1.524 . S
C716 C715 1.524 . S
C716 C717 1.397 . S
C716 C721 1.363 . S
C717 H688 0.950 . S
C717 C716 1.397 . S
C717 C718 1.334 . S
C718 H689 0.950 . S
C718 C717 1.334 . S
C718 C719 1.287 . S
C719 C718 1.287 . S
C719 C720 1.524 . S
C719 H722 0.999 . S
C720 H690 0.950 . S
C720 C719 1.524 . S
C720 C721 1.415 . S
C721 H691 0.950 . S
C721 C716 1.363 . S
C721 C720 1.415 . S
H722 C719 0.999 . S
H723 C704 0.913 . S
H724 C742 0.951 . S
H725 C744 0.951 . S
H726 C746 0.950 . S
H727 C747 0.950 . S
H728 C749 0.950 . S
H729 C752 0.950 . S
H730 C753 0.950 . S
H731 C755 0.950 . S
H732 C756 0.950 . S
H733 C757 0.951 . S
H734 C759 0.951 . S
H735 C761 0.950 . S
H736 C762 0.950 . S
H737 C764 0.950 . S
H738 C767 0.950 . S
H739 C768 0.950 . S
H740 C770 0.950 . S
H741 C771 0.950 . S
C742 H724 0.951 . S
C742 C743 1.366 . S
C742 C744 1.388 . S
C743 C742 1.366 . S
C743 C747 1.385 . S
C744 H725 0.951 . S
C744 C742 1.388 . S
C744 C745 1.366 . S
C745 C744 1.366 . S
C745 C746 1.414 . S
C745 C748 1.499 . S
C746 H726 0.950 . S
C746 C745 1.414 . S
C746 C747 1.374 . S
C747 H727 0.950 . S
C747 C743 1.385 . S
C747 C746 1.374 . S
C748 C745 1.499 . S
C748 C749 1.373 . S
C748 C750 1.389 . S
C749 H728 0.950 . S
C749 C748 1.373 . S
C749 C765 1.377 . S
C750 C748 1.389 . S
C750 C751 1.524 . S
C750 C764 1.377 . S
C751 C750 1.524 . S
C751 C752 1.397 . S
C751 C756 1.363 . S
C752 H729 0.950 . S
C752 C751 1.397 . S
C752 C753 1.334 . S
C753 H730 0.950 . S
C753 C752 1.334 . S
C753 C754 1.287 . S
C754 C753 1.287 . S
C754 C755 1.524 . S
C754 H773 0.913 . S
C755 H731 0.950 . S
C755 C754 1.524 . S
C755 C756 1.415 . S
C756 H732 0.950 . S
C756 C751 1.363 . S
C756 C755 1.415 . S
C757 H733 0.951 . S
C757 C758 1.366 . S
C757 C759 1.388 . S
C758 C757 1.366 . S
C758 C762 1.385 . S
C759 H734 0.951 . S
C759 C757 1.388 . S
C759 C760 1.366 . S
C760 C759 1.366 . S
C760 C761 1.414 . S
C760 C763 1.499 . S
C761 H735 0.950 . S
C761 C760 1.414 . S
C761 C762 1.374 . S
C762 H736 0.950 . S
C762 C758 1.385 . S
C762 C761 1.374 . S
C763 C760 1.499 . S
C763 C764 1.373 . S
C763 C765 1.389 . S
C764 H737 0.950 . S
C764 C750 1.377 . S
C764 C763 1.373 . S
C765 C749 1.377 . S
C765 C763 1.389 . S
C765 C766 1.524 . S
C766 C765 1.524 . S
C766 C767 1.397 . S
C766 C771 1.363 . S
C767 H738 0.950 . S
C767 C766 1.397 . S
C767 C768 1.334 . S
C768 H739 0.950 . S
C768 C767 1.334 . S
C768 C769 1.287 . S
C769 C768 1.287 . S
C769 C770 1.524 . S
C769 H772 0.999 . S
C770 H740 0.950 . S
C770 C769 1.524 . S
C770 C771 1.415 . S
C771 H741 0.950 . S
C771 C766 1.363 . S
C771 C770 1.415 . S
H772 C769 0.999 . S
H773 C754 0.913 . S
H774 C792 0.951 . S
H775 C794 0.951 . S
H776 C796 0.950 . S
H777 C797 0.950 . S
H778 C799 0.950 . S
H779 C802 0.950 . S
H780 C803 0.950 . S
H781 C805 0.950 . S
H782 C806 0.950 . S
H783 C807 0.951 . S
H784 C809 0.951 . S
H785 C811 0.950 . S
H786 C812 0.950 . S
H787 C814 0.950 . S
H788 C817 0.950 . S
H789 C818 0.950 . S
H790 C820 0.950 . S
H791 C821 0.950 . S
C792 H774 0.951 . S
C792 C793 1.366 . S
C792 C794 1.388 . S
C793 C792 1.366 . S
C793 C797 1.385 . S
C794 H775 0.951 . S
C794 C792 1.388 . S
C794 C795 1.366 . S
C795 C794 1.366 . S
C795 C796 1.414 . S
C795 C798 1.499 . S
C796 H776 0.950 . S
C796 C795 1.414 . S
C796 C797 1.374 . S
C797 H777 0.950 . S
C797 C793 1.385 . S
C797 C796 1.374 . S
C798 C795 1.499 . S
C798 C799 1.373 . S
C798 C800 1.389 . S
C799 H778 0.950 . S
C799 C798 1.373 . S
C799 C815 1.377 . S
C800 C798 1.389 . S
C800 C801 1.524 . S
C800 C814 1.377 . S
C801 C800 1.524 . S
C801 C802 1.397 . S
C801 C806 1.363 . S
C802 H779 0.950 . S
C802 C801 1.397 . S
C802 C803 1.334 . S
C803 H780 0.950 . S
C803 C802 1.334 . S
C803 C804 1.287 . S
C804 C803 1.287 . S
C804 C805 1.524 . S
C804 H823 0.913 . S
C805 H781 0.950 . S
C805 C804 1.524 . S
C805 C806 1.415 . S
C806 H782 0.950 . S
C806 C801 1.363 . S
C806 C805 1.415 . S
C807 H783 0.951 . S
C807 C808 1.366 . S
C807 C809 1.388 . S
C808 C807 1.366 . S
C808 C812 1.385 . S
C809 H784 0.951 . S
C809 C807 1.388 . S
C809 C810 1.366 . S
C810 C809 1.366 . S
C810 C811 1.414 . S
C810 C813 1.499 . S
C811 H785 0.950 . S
C811 C810 1.414 . S
C811 C812 1.374 . S
C812 H786 0.950 . S
C812 C808 1.385 . S
C812 C811 1.374 . S
C813 C810 1.499 . S
C813 C814 1.373 . S
C813 C815 1.389 . S
C814 H787 0.950 . S
C814 C800 1.377 . S
C814 C813 1.373 . S
C815 C799 1.377 . S
C815 C813 1.389 . S
C815 C816 1.524 . S
C816 C815 1.524 . S
C816 C817 1.397 . S
C816 C821 1.363 . S
C817 H788 0.950 . S
C817 C816 1.397 . S
C817 C818 1.334 . S
C818 H789 0.950 . S
C818 C817 1.334 . S
C818 C819 1.287 . S
C819 C818 1.287 . S
C819 C820 1.524 . S
C819 H822 0.999 . S
C820 H790 0.950 . S
C820 C819 1.524 . S
C820 C821 1.415 . S
C821 H791 0.950 . S
C821 C816 1.363 . S
C821 C820 1.415 . S
H822 C819 0.999 . S
H823 C804 0.913 . S
H824 C842 0.951 . S
H825 C844 0.951 . S
H826 C846 0.950 . S
H827 C847 0.950 . S
H828 C849 0.950 . S
H829 C852 0.950 . S
H830 C853 0.950 . S
H831 C855 0.950 . S
H832 C856 0.950 . S
H833 C857 0.951 . S
H834 C859 0.951 . S
H835 C861 0.950 . S
H836 C862 0.950 . S
H837 C864 0.950 . S
H838 C867 0.950 . S
H839 C868 0.950 . S
H840 C870 0.950 . S
H841 C871 0.950 . S
C842 H824 0.951 . S
C842 C843 1.366 . S
C842 C844 1.388 . S
C843 C842 1.366 . S
C843 C847 1.385 . S
C844 H825 0.951 . S
C844 C842 1.388 . S
C844 C845 1.366 . S
C845 C844 1.366 . S
C845 C846 1.414 . S
C845 C848 1.499 . S
C846 H826 0.950 . S
C846 C845 1.414 . S
C846 C847 1.374 . S
C847 H827 0.950 . S
C847 C843 1.385 . S
C847 C846 1.374 . S
C848 C845 1.499 . S
C848 C849 1.373 . S
C848 C850 1.389 . S
C849 H828 0.950 . S
C849 C848 1.373 . S
C849 C865 1.377 . S
C850 C848 1.389 . S
C850 C851 1.524 . S
C850 C864 1.377 . S
C851 C850 1.524 . S
C851 C852 1.397 . S
C851 C856 1.363 . S
C852 H829 0.950 . S
C852 C851 1.397 . S
C852 C853 1.334 . S
C853 H830 0.950 . S
C853 C852 1.334 . S
C853 C854 1.287 . S
C854 C853 1.287 . S
C854 C855 1.524 . S
C854 H873 0.913 . S
C855 H831 0.950 . S
C855 C854 1.524 . S
C855 C856 1.415 . S
C856 H832 0.950 . S
C856 C851 1.363 . S
C856 C855 1.415 . S
C857 H833 0.951 . S
C857 C858 1.366 . S
C857 C859 1.388 . S
C858 C857 1.366 . S
C858 C862 1.385 . S
C859 H834 0.951 . S
C859 C857 1.388 . S
C859 C860 1.366 . S
C860 C859 1.366 . S
C860 C861 1.414 . S
C860 C863 1.499 . S
C861 H835 0.950 . S
C861 C860 1.414 . S
C861 C862 1.374 . S
C862 H836 0.950 . S
C862 C858 1.385 . S
C862 C861 1.374 . S
C863 C860 1.499 . S
C863 C864 1.373 . S
C863 C865 1.389 . S
C864 H837 0.950 . S
C864 C850 1.377 . S
C864 C863 1.373 . S
C865 C849 1.377 . S
C865 C863 1.389 . S
C865 C866 1.524 . S
C866 C865 1.524 . S
C866 C867 1.397 . S
C866 C871 1.363 . S
C867 H838 0.950 . S
C867 C866 1.397 . S
C867 C868 1.334 . S
C868 H839 0.950 . S
C868 C867 1.334 . S
C868 C869 1.287 . S
C869 C868 1.287 . S
C869 C870 1.524 . S
C869 H872 0.999 . S
C870 H840 0.950 . S
C870 C869 1.524 . S
C870 C871 1.415 . S
C871 H841 0.950 . S
C871 C866 1.363 . S
C871 C870 1.415 . S
H872 C869 0.999 . S
H873 C854 0.913 . S
H874 C892 0.951 . S
H875 C894 0.951 . S
H876 C896 0.950 . S
H877 C897 0.950 . S
H878 C899 0.950 . S
H879 C902 0.950 . S
H880 C903 0.950 . S
H881 C905 0.950 . S
H882 C906 0.950 . S
H883 C907 0.951 . S
H884 C909 0.951 . S
H885 C911 0.950 . S
H886 C912 0.950 . S
H887 C914 0.950 . S
H888 C917 0.950 . S
H889 C918 0.950 . S
H890 C920 0.950 . S
H891 C921 0.950 . S
C892 H874 0.951 . S
C892 C893 1.366 . S
C892 C894 1.388 . S
C893 C892 1.366 . S
C893 C897 1.385 . S
C894 H875 0.951 . S
C894 C892 1.388 . S
C894 C895 1.366 . S
C895 C894 1.366 . S
C895 C896 1.414 . S
C895 C898 1.499 . S
C896 H876 0.950 . S
C896 C895 1.414 . S
C896 C897 1.374 . S
C897 H877 0.950 . S
C897 C893 1.385 . S
C897 C896 1.374 . S
C898 C895 1.499 . S
C898 C899 1.373 . S
C898 C900 1.389 . S
C899 H878 0.950 . S
C899 C898 1.373 . S
C899 C915 1.377 . S
C900 C898 1.389 . S
C900 C901 1.524 . S
C900 C914 1.377 . S
C901 C900 1.524 . S
C901 C902 1.397 . S
C901 C906 1.363 . S
C902 H879 0.950 . S
C902 C901 1.397 . S
C902 C903 1.334 . S
C903 H880 0.950 . S
C903 C902 1.334 . S
C903 C904 1.287 . S
C904 C903 1.287 . S
C904 C905 1.524 . S
C904 H923 0.913 . S
C905 H881 0.950 . S
C905 C904 1.524 . S
C905 C906 1.415 . S
C906 H882 0.950 . S
C906 C901 1.363 . S
C906 C905 1.415 . S
C907 H883 0.951 . S
C907 C908 1.366 . S
C907 C909 1.388 . S
C908 C907 1.366 . S
C908 C912 1.385 . S
C909 H884 0.951 . S
C909 C907 1.388 . S
C909 C910 1.366 . S
C910 C909 1.366 . S
C910 C911 1.414 . S
C910 C913 1.499 . S
C911 H885 0.950 . S
C911 C910 1.414 . S
C911 C912 1.374 . S
C912 H886 0.950 . S
C912 C908 1.385 . S
C912 C911 1.374 . S
C913 C910 1.499 . S
C913 C914 1.373 . S
C913 C915 1.389 . S
C914 H887 0.950 . S
C914 C900 1.377 . S
C914 C913 1.373 . S
C915 C899 1.377 . S
C915 C913 1.389 . S
C915 C916 1.524 . S
C916 C915 1.524 . S
C916 C917 1.397 . S
C916 C921 1.363 . S
C917 H888 0.950 . S
C917 C916 1.397 . S
C917 C918 1.334 . S
C918 H889 0.950 . S
C918 C917 1.334 . S
C918 C919 1.287 . S
C919 C918 1.287 . S
C919 C920 1.524 . S
C919 H922 0.999 . S
C920 H890 0.950 . S
C920 C919 1.524 . S
C920 C921 1.415 . S
C921 H891 0.950 . S
C921 C916 1.363 . S
C921 C920 1.415 . S
H922 C919 0.999 . S
H923 C904 0.913 . S
H924 C942 0.951 . S
H925 C944 0.951 . S
H926 C946 0.950 . S
H927 C947 0.950 . S
H928 C949 0.950 . S
H929 C952 0.950 . S
H930 C953 0.950 . S
H931 C955 0.950 . S
H932 C956 0.950 . S
H933 C957 0.951 . S
H934 C959 0.951 . S
H935 C961 0.950 . S
H936 C962 0.950 . S
H937 C964 0.950 . S
H938 C967 0.950 . S
H939 C968 0.950 . S
H940 C970 0.950 . S
H941 C971 0.950 . S
C942 H924 0.951 . S
C942 C943 1.366 . S
C942 C944 1.388 . S
C943 C942 1.366 . S
C943 C947 1.385 . S
C944 H925 0.951 . S
C944 C942 1.388 . S
C944 C945 1.366 . S
C945 C944 1.366 . S
C945 C946 1.414 . S
C945 C948 1.499 . S
C946 H926 0.950 . S
C946 C945 1.414 . S
C946 C947 1.374 . S
C947 H927 0.950 . S
C947 C943 1.385 . S
C947 C946 1.374 . S
C948 C945 1.499 . S
C948 C949 1.373 . S
C948 C950 1.389 . S
C949 H928 0.950 . S
C949 C948 1.373 . S
C949 C965 1.377 . S
C950 C948 1.389 . S
C950 C951 1.524 . S
C950 C964 1.377 . S
C951 C950 1.524 . S
C951 C952 1.397 . S
C951 C956 1.363 . S
C952 H929 0.950 . S
C952 C951 1.397 . S
C952 C953 1.334 . S
C953 H930 0.950 . S
C953 C952 1.334 . S
C953 C954 1.287 . S
C954 C953 1.287 . S
C954 C955 1.524 . S
C954 H973 0.913 . S
C955 H931 0.950 . S
C955 C954 1.524 . S
C955 C956 1.415 . S
C956 H932 0.950 . S
C956 C951 1.363 . S
C956 C955 1.415 . S
C957 H933 0.951 . S
C957 C958 1.366 . S
C957 C959 1.388 . S
C958 C957 1.366 . S
C958 C962 1.385 . S
C959 H934 0.951 . S
C959 C957 1.388 . S
C959 C960 1.366 . S
C960 C959 1.366 . S
C960 C961 1.414 . S
C960 C963 1.499 . S
C961 H935 0.950 . S
C961 C960 1.414 . S
C961 C962 1.374 . S
C962 H936 0.950 . S
C962 C958 1.385 . S
C962 C961 1.374 . S
C963 C960 1.499 . S
C963 C964 1.373 . S
C963 C965 1.389 . S
C964 H937 0.950 . S
C964 C950 1.377 . S
C964 C963 1.373 . S
C965 C949 1.377 . S
C965 C963 1.389 . S
C965 C966 1.524 . S
C966 C965 1.524 . S
C966 C967 1.397 . S
C966 C971 1.363 . S
C967 H938 0.950 . S
C967 C966 1.397 . S
C967 C968 1.334 . S
C968 H939 0.950 . S
C968 C967 1.334 . S
C968 C969 1.287 . S
C969 C968 1.287 . S
C969 C970 1.524 . S
C969 H972 0.999 . S
C970 H940 0.950 . S
C970 C969 1.524 . S
C970 C971 1.415 . S
C971 H941 0.950 . S
C971 C966 1.363 . S
C971 C970 1.415 . S
H972 C969 0.999 . S
H973 C954 0.913 . S
H974 C992 0.951 . S
H975 C994 0.951 . S
H976 C996 0.950 . S
H977 C997 0.950 . S
H978 C999 0.950 . S
H979 C1002 0.950 . S
H980 C1003 0.950 . S
H981 C1005 0.950 . S
H982 C1006 0.950 . S
H983 C1007 0.951 . S
H984 C1009 0.951 . S
H985 C1011 0.950 . S
H986 C1012 0.950 . S
H987 C1014 0.950 . S
H988 C1017 0.950 . S
H989 C1018 0.950 . S
H990 C1020 0.950 . S
H991 C1021 0.950 . S
C992 H974 0.951 . S
C992 C993 1.366 . S
C992 C994 1.388 . S
C993 C992 1.366 . S
C993 C997 1.385 . S
C994 H975 0.951 . S
C994 C992 1.388 . S
C994 C995 1.366 . S
C995 C994 1.366 . S
C995 C996 1.414 . S
C995 C998 1.499 . S
C996 H976 0.950 . S
C996 C995 1.414 . S
C996 C997 1.374 . S
C997 H977 0.950 . S
C997 C993 1.385 . S
C997 C996 1.374 . S
C998 C995 1.499 . S
C998 C999 1.373 . S
C998 C1000 1.389 . S
C999 H978 0.950 . S
C999 C998 1.373 . S
C999 C1015 1.377 . S
C1000 C998 1.389 . S
C1000 C1001 1.524 . S
C1000 C1014 1.377 . S
C1001 C1000 1.524 . S
C1001 C1002 1.397 . S
C1001 C1006 1.363 . S
C1002 H979 0.950 . S
C1002 C1001 1.397 . S
C1002 C1003 1.334 . S
C1003 H980 0.950 . S
C1003 C1002 1.334 . S
C1003 C1004 1.287 . S
C1004 C1003 1.287 . S
C1004 C1005 1.524 . S
C1004 H1023 0.913 . S
C1005 H981 0.950 . S
C1005 C1004 1.524 . S
C1005 C1006 1.415 . S
C1006 H982 0.950 . S
C1006 C1001 1.363 . S
C1006 C1005 1.415 . S
C1007 H983 0.951 . S
C1007 C1008 1.366 . S
C1007 C1009 1.388 . S
C1008 C1007 1.366 . S
C1008 C1012 1.385 . S
C1009 H984 0.951 . S
C1009 C1007 1.388 . S
C1009 C1010 1.366 . S
C1010 C1009 1.366 . S
C1010 C1011 1.414 . S
C1010 C1013 1.499 . S
C1011 H985 0.950 . S
C1011 C1010 1.414 . S
C1011 C1012 1.374 . S
C1012 H986 0.950 . S
C1012 C1008 1.385 . S
C1012 C1011 1.374 . S
C1013 C1010 1.499 . S
C1013 C1014 1.373 . S
C1013 C1015 1.389 . S
C1014 H987 0.950 . S
C1014 C1000 1.377 . S
C1014 C1013 1.373 . S
C1015 C999 1.377 . S
C1015 C1013 1.389 . S
C1015 C1016 1.524 . S
C1016 C1015 1.524 . S
C1016 C1017 1.397 . S
C1016 C1021 1.363 . S
C1017 H988 0.950 . S
C1017 C1016 1.397 . S
C1017 C1018 1.334 . S
C1018 H989 0.950 . S
C1018 C1017 1.334 . S
C1018 C1019 1.287 . S
C1019 C1018 1.287 . S
C1019 C1020 1.524 . S
C1019 H1022 0.999 . S
C1020 H990 0.950 . S
C1020 C1019 1.524 . S
C1020 C1021 1.415 . S
C1021 H991 0.950 . S
C1021 C1016 1.363 . S
C1021 C1020 1.415 . S
H1022 C1019 0.999 . S
H1023 C1004 0.913 . S
H1024 C1042 0.951 . S
H1025 C1044 0.951 . S
H1026 C1046 0.950 . S
H1027 C1047 0.950 . S
H1028 C1049 0.950 . S
H1029 C1052 0.950 . S
H1030 C1053 0.950 . S
H1031 C1055 0.950 . S
H1032 C1056 0.950 . S
H1033 C1057 0.951 . S
H1034 C1059 0.951 . S
H1035 C1061 0.950 . S
H1036 C1062 0.950 . S
H1037 C1064 0.950 . S
H1038 C1067 0.950 . S
H1039 C1068 0.950 . S
H1040 C1070 0.950 . S
H1041 C1071 0.950 . S
C1042 H1024 0.951 . S
C1042 C1043 1.366 . S
C1042 C1044 1.388 . S
C1043 C1042 1.366 . S
C1043 C1047 1.385 . S
C1044 H1025 0.951 . S
C1044 C1042 1.388 . S
C1044 C1045 1.366 . S
C1045 C1044 1.366 . S
C1045 C1046 1.414 . S
C1045 C1048 1.499 . S
C1046 H1026 0.950 . S
C1046 C1045 1.414 . S
C1046 C1047 1.374 . S
C1047 H1027 0.950 . S
C1047 C1043 1.385 . S
C1047 C1046 1.374 . S
C1048 C1045 1.499 . S
C1048 C1049 1.373 . S
C1048 C1050 1.389 . S
C1049 H1028 0.950 . S
C1049 C1048 1.373 . S
C1049 C1065 1.377 . S
C1050 C1048 1.389 . S
C1050 C1051 1.524 . S
C1050 C1064 1.377 . S
C1051 C1050 1.524 . S
C1051 C1052 1.397 . S
C1051 C1056 1.363 . S
C1052 H1029 0.950 . S
C1052 C1051 1.397 . S
C1052 C1053 1.334 . S
C1053 H1030 0.950 . S
C1053 C1052 1.334 . S
C1053 C1054 1.287 . S
C1054 C1053 1.287 . S
C1054 C1055 1.524 . S
C1054 H1073 0.913 . S
C1055 H1031 0.950 . S
C1055 C1054 1.524 . S
C1055 C1056 1.415 . S
C1056 H1032 0.950 . S
C1056 C1051 1.363 . S
C1056 C1055 1.415 . S
C1057 H1033 0.951 . S
C1057 C1058 1.366 . S
C1057 C1059 1.388 . S
C1058 C1057 1.366 . S
C1058 C1062 1.385 . S
C1059 H1034 0.951 . S
C1059 C1057 1.388 . S
C1059 C1060 1.366 . S
C1060 C1059 1.366 . S
C1060 C1061 1.414 . S
C1060 C1063 1.499 . S
C1061 H1035 0.950 . S
C1061 C1060 1.414 . S
C1061 C1062 1.374 . S
C1062 H1036 0.950 . S
C1062 C1058 1.385 . S
C1062 C1061 1.374 . S
C1063 C1060 1.499 . S
C1063 C1064 1.373 . S
C1063 C1065 1.389 . S
C1064 H1037 0.950 . S
C1064 C1050 1.377 . S
C1064 C1063 1.373 . S
C1065 C1049 1.377 . S
C1065 C1063 1.389 . S
C1065 C1066 1.524 . S
C1066 C1065 1.524 . S
C1066 C1067 1.397 . S
C1066 C1071 1.363 . S
C1067 H1038 0.950 . S
C1067 C1066 1.397 . S
C1067 C1068 1.334 . S
C1068 H1039 0.950 . S
C1068 C1067 1.334 . S
C1068 C1069 1.287 . S
C1069 C1068 1.287 . S
C1069 C1070 1.524 . S
C1069 H1072 0.999 . S
C1070 H1040 0.950 . S
C1070 C1069 1.524 . S
C1070 C1071 1.415 . S
C1071 H1041 0.950 . S
C1071 C1066 1.363 . S
C1071 C1070 1.415 . S
H1072 C1069 0.999 . S
H1073 C1054 0.913 . S
H1074 C1092 0.951 . S
H1075 C1094 0.951 . S
H1076 C1096 0.950 . S
H1077 C1097 0.950 . S
H1078 C1099 0.950 . S
H1079 C1102 0.950 . S
H1080 C1103 0.950 . S
H1081 C1105 0.950 . S
H1082 C1106 0.950 . S
H1083 C1107 0.951 . S
H1084 C1109 0.951 . S
H1085 C1111 0.950 . S
H1086 C1112 0.950 . S
H1087 C1114 0.950 . S
H1088 C1117 0.950 . S
H1089 C1118 0.950 . S
H1090 C1120 0.950 . S
H1091 C1121 0.950 . S
C1092 H1074 0.951 . S
C1092 C1093 1.366 . S
C1092 C1094 1.388 . S
C1093 C1092 1.366 . S
C1093 C1097 1.385 . S
C1094 H1075 0.951 . S
C1094 C1092 1.388 . S
C1094 C1095 1.366 . S
C1095 C1094 1.366 . S
C1095 C1096 1.414 . S
C1095 C1098 1.499 . S
C1096 H1076 0.950 . S
C1096 C1095 1.414 . S
C1096 C1097 1.374 . S
C1097 H1077 0.950 . S
C1097 C1093 1.385 . S
C1097 C1096 1.374 . S
C1098 C1095 1.499 . S
C1098 C1099 1.373 . S
C1098 C1100 1.389 . S
C1099 H1078 0.950 . S
C1099 C1098 1.373 . S
C1099 C1115 1.377 . S
C1100 C1098 1.389 . S
C1100 C1101 1.524 . S
C1100 C1114 1.377 . S
C1101 C1100 1.524 . S
C1101 C1102 1.397 . S
C1101 C1106 1.363 . S
C1102 H1079 0.950 . S
C1102 C1101 1.397 . S
C1102 C1103 1.334 . S
C1103 H1080 0.950 . S
C1103 C1102 1.334 . S
C1103 C1104 1.287 . S
C1104 C1103 1.287 . S
C1104 C1105 1.524 . S
C1104 H1123 0.913 . S
C1105 H1081 0.950 . S
C1105 C1104 1.524 . S
C1105 C1106 1.415 . S
C1106 H1082 0.950 . S
C1106 C1101 1.363 . S
C1106 C1105 1.415 . S
C1107 H1083 0.951 . S
C1107 C1108 1.366 . S
C1107 C1109 1.388 . S
C1108 C1107 1.366 . S
C1108 C1112 1.385 . S
C1109 H1084 0.951 . S
C1109 C1107 1.388 . S
C1109 C1110 1.366 . S
C1110 C1109 1.366 . S
C1110 C1111 1.414 . S
C1110 C1113 1.499 . S
C1111 H1085 0.950 . S
C1111 C1110 1.414 . S
C1111 C1112 1.374 . S
C1112 H1086 0.950 . S
C1112 C1108 1.385 . S
C1112 C1111 1.374 . S
C1113 C1110 1.499 . S
C1113 C1114 1.373 . S
C1113 C1115 1.389 . S
C1114 H1087 0.950 . S
C1114 C1100 1.377 . S
C1114 C1113 1.373 . S
C1115 C1099 1.377 . S
C1115 C1113 1.389 . S
C1115 C1116 1.524 . S
C1116 C1115 1.524 . S
C1116 C1117 1.397 . S
C1116 C1121 1.363 . S
C1117 H1088 0.950 . S
C1117 C1116 1.397 . S
C1117 C1118 1.334 . S
C1118 H1089 0.950 . S
C1118 C1117 1.334 . S
C1118 C1119 1.287 . S
C1119 C1118 1.287 . S
C1119 C1120 1.524 . S
C1119 H1122 0.999 . S
C1120 H1090 0.950 . S
C1120 C1119 1.524 . S
C1120 C1121 1.415 . S
C1121 H1091 0.950 . S
C1121 C1116 1.363 . S
C1121 C1120 1.415 . S
H1122 C1119 0.999 . S
H1123 C1104 0.913 . S
H1124 C1142 0.951 . S
H1125 C1144 0.951 . S
H1126 C1146 0.950 . S
H1127 C1147 0.950 . S
H1128 C1149 0.950 . S
H1129 C1152 0.950 . S
H1130 C1153 0.950 . S
H1131 C1155 0.950 . S
H1132 C1156 0.950 . S
H1133 C1157 0.951 . S
H1134 C1159 0.951 . S
H1135 C1161 0.950 . S
H1136 C1162 0.950 . S
H1137 C1164 0.950 . S
H1138 C1167 0.950 . S
H1139 C1168 0.950 . S
H1140 C1170 0.950 . S
H1141 C1171 0.950 . S
C1142 H1124 0.951 . S
C1142 C1143 1.366 . S
C1142 C1144 1.388 . S
C1143 C1142 1.366 . S
C1143 C1147 1.385 . S
C1144 H1125 0.951 . S
C1144 C1142 1.388 . S
C1144 C1145 1.366 . S
C1145 C1144 1.366 . S
C1145 C1146 1.414 . S
C1145 C1148 1.499 . S
C1146 H1126 0.950 . S
C1146 C1145 1.414 . S
C1146 C1147 1.374 . S
C1147 H1127 0.950 . S
C1147 C1143 1.385 . S
C1147 C1146 1.374 . S
C1148 C1145 1.499 . S
C1148 C1149 1.373 . S
C1148 C1150 1.389 . S
C1149 H1128 0.950 . S
C1149 C1148 1.373 . S
C1149 C1165 1.377 . S
C1150 C1148 1.389 . S
C1150 C1151 1.524 . S
C1150 C1164 1.377 . S
C1151 C1150 1.524 . S
C1151 C1152 1.397 . S
C1151 C1156 1.363 . S
C1152 H1129 0.950 . S
C1152 C1151 1.397 . S
C1152 C1153 1.334 . S
C1153 H1130 0.950 . S
C1153 C1152 1.334 . S
C1153 C1154 1.287 . S
C1154 C1153 1.287 . S
C1154 C1155 1.524 . S
C1154 H1173 0.913 . S
C1155 H1131 0.950 . S
C1155 C1154 1.524 . S
C1155 C1156 1.415 . S
C1156 H1132 0.950 . S
C1156 C1151 1.363 . S
C1156 C1155 1.415 . S
C1157 H1133 0.951 . S
C1157 C1158 1.366 . S
C1157 C1159 1.388 . S
C1158 C1157 1.366 . S
C1158 C1162 1.385 . S
C1159 H1134 0.951 . S
C1159 C1157 1.388 . S
C1159 C1160 1.366 . S
C1160 C1159 1.366 . S
C1160 C1161 1.414 . S
C1160 C1163 1.499 . S
C1161 H1135 0.950 . S
C1161 C1160 1.414 . S
C1161 C1162 1.374 . S
C1162 H1136 0.950 . S
C1162 C1158 1.385 . S
C1162 C1161 1.374 . S
C1163 C1160 1.499 . S
C1163 C1164 1.373 . S
C1163 C1165 1.389 . S
C1164 H1137 0.950 . S
C1164 C1150 1.377 . S
C1164 C1163 1.373 . S
C1165 C1149 1.377 . S
C1165 C1163 1.389 . S
C1165 C1166 1.524 . S
C1166 C1165 1.524 . S
C1166 C1167 1.397 . S
C1166 C1171 1.363 . S
C1167 H1138 0.950 . S
C1167 C1166 1.397 . S
C1167 C1168 1.334 . S
C1168 H1139 0.950 . S
C1168 C1167 1.334 . S
C1168 C1169 1.287 . S
C1169 C1168 1.287 . S
C1169 C1170 1.524 . S
C1169 H1172 0.999 . S
C1170 H1140 0.950 . S
C1170 C1169 1.524 . S
C1170 C1171 1.415 . S
C1171 H1141 0.950 . S
C1171 C1166 1.363 . S
C1171 C1170 1.415 . S
H1172 C1169 0.999 . S
H1173 C1154 0.913 . S
H1174 C1192 0.951 . S
H1175 C1194 0.951 . S
H1176 C1196 0.950 . S
H1177 C1197 0.950 . S
H1178 C1199 0.950 . S
H1179 C1202 0.950 . S
H1180 C1203 0.950 . S
H1181 C1205 0.950 . S
H1182 C1206 0.950 . S
H1183 C1207 0.951 . S
H1184 C1209 0.951 . S
H1185 C1211 0.950 . S
H1186 C1212 0.950 . S
H1187 C1214 0.950 . S
H1188 C1217 0.950 . S
H1189 C1218 0.950 . S
H1190 C1220 0.950 . S
H1191 C1221 0.950 . S
C1192 H1174 0.951 . S
C1192 C1193 1.366 . S
C1192 C1194 1.388 . S
C1193 C1192 1.366 . S
C1193 C1197 1.385 . S
C1194 H1175 0.951 . S
C1194 C1192 1.388 . S
C1194 C1195 1.366 . S
C1195 C1194 1.366 . S
C1195 C1196 1.414 . S
C1195 C1198 1.499 . S
C1196 H1176 0.950 . S
C1196 C1195 1.414 . S
C1196 C1197 1.374 . S
C1197 H1177 0.950 . S
C1197 C1193 1.385 . S
C1197 C1196 1.374 . S
C1198 C1195 1.499 . S
C1198 C1199 1.373 . S
C1198 C1200 1.389 . S
C1199 H1178 0.950 . S
C1199 C1198 1.373 . S
C1199 C1215 1.377 . S
C1200 C1198 1.389 . S
C1200 C1201 1.524 . S
C1200 C1214 1.377 . S
C1201 C1200 1.524 . S
C1201 C1202 1.397 . S
C1201 C1206 1.363 . S
C1202 H1179 0.950 . S
C1202 C1201 1.397 . S
C1202 C1203 1.334 . S
C1203 H1180 0.950 . S
C1203 C1202 1.334 . S
C1203 C1204 1.287 . S
C1204 C1203 1.287 . S
C1204 C1205 1.524 . S
C1204 H1223 0.913 . S
C1205 H1181 0.950 . S
C1205 C1204 1.524 . S
C1205 C1206 1.415 . S
C1206 H1182 0.950 . S
C1206 C1201 1.363 . S
C1206 C1205 1.415 . S
C1207 H1183 0.951 . S
C1207 C1208 1.366 . S
C1207 C1209 1.388 . S
C1208 C1207 1.366 . S
C1208 C1212 1.385 . S
C1209 H1184 0.951 . S
C1209 C1207 1.388 . S
C1209 C1210 1.366 . S
C1210 C1209 1.366 . S
C1210 C1211 1.414 . S
C1210 C1213 1.499 . S
C1211 H1185 0.950 . S
C1211 C1210 1.414 . S
C1211 C1212 1.374 . S
C1212 H1186 0.950 . S
C1212 C1208 1.385 . S
C1212 C1211 1.374 . S
C1213 C1210 1.499 . S
C1213 C1214 1.373 . S
C1213 C1215 1.389 . S
C1214 H1187 0.950 . S
C1214 C1200 1.377 . S
C1214 C1213 1.373 . S
C1215 C1199 1.377 . S
C1215 C1213 1.389 . S
C1215 C1216 1.524 . S
C1216 C1215 1.524 . S
C1216 C1217 1.397 . S
C1216 C1221 1.363 . S
C1217 H1188 0.950 . S
C1217 C1216 1.397 . S
C1217 C1218 1.334 . S
C1218 H1189 0.950 . S
C1218 C1217 1.334 . S
C1218 C1219 1.287 . S
C1219 C1218 1.287 . S
C1219 C1220 1.524 . S
C1219 H1222 0.999 . S
C1220 H1190 0.950 . S
C1220 C1219 1.524 . S
C1220 C1221 1.415 . S
C1221 H1191 0.950 . S
C1221 C1216 1.363 . S
C1221 C1220 1.415 . S
H1222 C1219 0.999 . S
H1223 C1204 0.913 . S
H1224 C1242 0.951 . S
H1225 C1244 0.951 . S
H1226 C1246 0.950 . S
H1227 C1247 0.950 . S
H1228 C1249 0.950 . S
H1229 C1252 0.950 . S
H1230 C1253 0.950 . S
H1231 C1255 0.950 . S
H1232 C1256 0.950 . S
H1233 C1257 0.951 . S
H1234 C1259 0.951 . S
H1235 C1261 0.950 . S
H1236 C1262 0.950 . S
H1237 C1264 0.950 . S
H1238 C1267 0.950 . S
H1239 C1268 0.950 . S
H1240 C1270 0.950 . S
H1241 C1271 0.950 . S
C1242 H1224 0.951 . S
C1242 C1243 1.366 . S
C1242 C1244 1.388 . S
C1243 C1242 1.366 . S
C1243 C1247 1.385 . S
C1244 H1225 0.951 . S
C1244 C1242 1.388 . S
C1244 C1245 1.366 . S
C1245 C1244 1.366 . S
C1245 C1246 1.414 . S
C1245 C1248 1.499 . S
C1246 H1226 0.950 . S
C1246 C1245 1.414 . S
C1246 C1247 1.374 . S
C1247 H1227 0.950 . S
C1247 C1243 1.385 . S
C1247 C1246 1.374 . S
C1248 C1245 1.499 . S
C1248 C1249 1.373 . S
C1248 C1250 1.389 . S
C1249 H1228 0.950 . S
C1249 C1248 1.373 . S
C1249 C1265 1.377 . S
C1250 C1248 1.389 . S
C1250 C1251 1.524 . S
C1250 C1264 1.377 . S
C1251 C1250 1.524 . S
C1251 C1252 1.397 . S
C1251 C1256 1.363 . S
C1252 H1229 0.950 . S
C1252 C1251 1.397 . S
C1252 C1253 1.334 . S
C1253 H1230 0.950 . S
C1253 C1252 1.334 . S
C1253 C1254 1.287 . S
C1254 C1253 1.287 . S
C1254 C1255 1.524 . S
C1254 H1273 0.913 . S
C1255 H1231 0.950 . S
C1255 C1254 1.524 . S
C1255 C1256 1.415 . S
C1256 H1232 0.950 . S
C1256 C1251 1.363 . S
C1256 C1255 1.415 . S
C1257 H1233 0.951 . S
C1257 C1258 1.366 . S
C1257 C1259 1.388 . S
C1258 C1257 1.366 . S
C1258 C1262 1.385 . S
C1259 H1234 0.951 . S
C1259 C1257 1.388 . S
C1259 C1260 1.366 . S
C1260 C1259 1.366 . S
C1260 C1261 1.414 . S
C1260 C1263 1.499 . S
C1261 H1235 0.950 . S
C1261 C1260 1.414 . S
C1261 C1262 1.374 . S
C1262 H1236 0.950 . S
C1262 C1258 1.385 . S
C1262 C1261 1.374 . S
C1263 C1260 1.499 . S
C1263 C1264 1.373 . S
C1263 C1265 1.389 . S
C1264 H1237 0.950 . S
C1264 C1250 1.377 . S
C1264 C1263 1.373 . S
C1265 C1249 1.377 . S
C1265 C1263 1.389 . S
C1265 C1266 1.524 . S
C1266 C1265 1.524 . S
C1266 C1267 1.397 . S
C1266 C1271 1.363 . S
C1267 H1238 0.950 . S
C1267 C1266 1.397 . S
C1267 C1268 1.334 . S
C1268 H1239 0.950 . S
C1268 C1267 1.334 . S
C1268 C1269 1.287 . S
C1269 C1268 1.287 . S
C1269 C1270 1.524 . S
C1269 H1272 0.999 . S
C1270 H1240 0.950 . S
C1270 C1269 1.524 . S
C1270 C1271 1.415 . S
C1271 H1241 0.950 . S
C1271 C1266 1.363 . S
C1271 C1270 1.415 . S
H1272 C1269 0.999 . S
H1273 C1254 0.913 . S
H1274 C1292 0.951 . S
H1275 C1294 0.951 . S
H1276 C1296 0.950 . S
H1277 C1297 0.950 . S
H1278 C1299 0.950 . S
H1279 C1302 0.950 . S
H1280 C1303 0.950 . S
H1281 C1305 0.950 . S
H1282 C1306 0.950 . S
H1283 C1307 0.951 . S
H1284 C1309 0.951 . S
H1285 C1311 0.950 . S
H1286 C1312 0.950 . S
H1287 C1314 0.950 . S
H1288 C1317 0.950 . S
H1289 C1318 0.950 . S
H1290 C1320 0.950 . S
H1291 C1321 0.950 . S
C1292 H1274 0.951 . S
C1292 C1293 1.366 . S
C1292 C1294 1.388 . S
C1293 C1292 1.366 . S
C1293 C1297 1.385 . S
C1294 H1275 0.951 . S
C1294 C1292 1.388 . S
C1294 C1295 1.366 . S
C1295 C1294 1.366 . S
C1295 C1296 1.414 . S
C1295 C1298 1.499 . S
C1296 H1276 0.950 . S
C1296 C1295 1.414 . S
C1296 C1297 1.374 . S
C1297 H1277 0.950 . S
C1297 C1293 1.385 . S
C1297 C1296 1.374 . S
C1298 C1295 1.499 . S
C1298 C1299 1.373 . S
C1298 C1300 1.389 . S
C1299 H1278 0.950 . S
C1299 C1298 1.373 . S
C1299 C1315 1.377 . S
C1300 C1298 1.389 . S
C1300 C1301 1.524 . S
C1300 C1314 1.377 . S
C1301 C1300 1.524 . S
C1301 C1302 1.397 . S
C1301 C1306 1.363 . S
C1302 H1279 0.950 . S
C1302 C1301 1.397 . S
C1302 C1303 1.334 . S
C1303 H1280 0.950 . S
C1303 C1302 1.334 . S
C1303 C1304 1.287 . S
C1304 C1303 1.287 . S
C1304 C1305 1.524 . S
C1304 H1323 0.913 . S
C1305 H1281 0.950 . S
C1305 C1304 1.524 . S
C1305 C1306 1.415 . S
C1306 H1282 0.950 . S
C1306 C1301 1.363 . S
C1306 C1305 1.415 . S
C1307 H1283 0.951 . S
C1307 C1308 1.366 . S
C1307 C1309 1.388 . S
C1308 C1307 1.366 . S
C1308 C1312 1.385 . S
C1309 H1284 0.951 . S
C1309 C1307 1.388 . S
C1309 C1310 1.366 . S
C1310 C1309 1.366 . S
C1310 C1311 1.414 . S
C1310 C1313 1.499 . S
C1311 H1285 0.950 . S
C1311 C1310 1.414 . S
C1311 C1312 1.374 . S
C1312 H1286 0.950 . S
C1312 C1308 1.385 . S
C1312 C1311 1.374 . S
C1313 C1310 1.499 . S
C1313 C1314 1.373 . S
C1313 C1315 1.389 . S
C1314 H1287 0.950 . S
C1314 C1300 1.377 . S
C1314 C1313 1.373 . S
C1315 C1299 1.377 . S
C1315 C1313 1.389 . S
C1315 C1316 1.524 . S
C1316 C1315 1.524 . S
C1316 C1317 1.397 . S
C1316 C1321 1.363 . S
C1317 H1288 0.950 . S
C1317 C1316 1.397 . S
C1317 C1318 1.334 . S
C1318 H1289 0.950 . S
C1318 C1317 1.334 . S
C1318 C1319 1.287 . S
C1319 C1318 1.287 . S
C1319 C1320 1.524 . S
C1319 H1322 0.999 . S
C1320 H1290 0.950 . S
C1320 C1319 1.524 . S
C1320 C1321 1.415 . S
C1321 H1291 0.950 . S
C1321 C1316 1.363 . S
C1321 C1320 1.415 . S
H1322 C1319 0.999 . S
H1323 C1304 0.913 . S
H1324 C1342 0.951 . S
H1325 C1344 0.951 . S
H1326 C1346 0.950 . S
H1327 C1347 0.950 . S
H1328 C1349 0.950 . S
H1329 C1352 0.950 . S
H1330 C1353 0.950 . S
H1331 C1355 0.950 . S
H1332 C1356 0.950 . S
H1333 C1357 0.951 . S
H1334 C1359 0.951 . S
H1335 C1361 0.950 . S
H1336 C1362 0.950 . S
H1337 C1364 0.950 . S
H1338 C1367 0.950 . S
H1339 C1368 0.950 . S
H1340 C1370 0.950 . S
H1341 C1371 0.950 . S
C1342 H1324 0.951 . S
C1342 C1343 1.366 . S
C1342 C1344 1.388 . S
C1343 C1342 1.366 . S
C1343 C1347 1.385 . S
C1344 H1325 0.951 . S
C1344 C1342 1.388 . S
C1344 C1345 1.366 . S
C1345 C1344 1.366 . S
C1345 C1346 1.414 . S
C1345 C1348 1.499 . S
C1346 H1326 0.950 . S
C1346 C1345 1.414 . S
C1346 C1347 1.374 . S
C1347 H1327 0.950 . S
C1347 C1343 1.385 . S
C1347 C1346 1.374 . S
C1348 C1345 1.499 . S
C1348 C1349 1.373 . S
C1348 C1350 1.389 . S
C1349 H1328 0.950 . S
C1349 C1348 1.373 . S
C1349 C1365 1.377 . S
C1350 C1348 1.389 . S
C1350 C1351 1.524 . S
C1350 C1364 1.377 . S
C1351 C1350 1.524 . S
C1351 C1352 1.397 . S
C1351 C1356 1.363 . S
C1352 H1329 0.950 . S
C1352 C1351 1.397 . S
C1352 C1353 1.334 . S
C1353 H1330 0.950 . S
C1353 C1352 1.334 . S
C1353 C1354 1.287 . S
C1354 C1353 1.287 . S
C1354 C1355 1.524 . S
C1354 H1373 0.913 . S
C1355 H1331 0.950 . S
C1355 C1354 1.524 . S
C1355 C1356 1.415 . S
C1356 H1332 0.950 . S
C1356 C1351 1.363 . S
C1356 C1355 1.415 . S
C1357 H1333 0.951 . S
C1357 C1358 1.366 . S
C1357 C1359 1.388 . S
C1358 C1357 1.366 . S
C1358 C1362 1.385 . S
C1359 H1334 0.951 . S
C1359 C1357 1.388 . S
C1359 C1360 1.366 . S
C1360 C1359 1.366 . S
C1360 C1361 1.414 . S
C1360 C1363 1.499 . S
C1361 H1335 0.950 . S
C1361 C1360 1.414 . S
C1361 C1362 1.374 . S
C1362 H1336 0.950 . S
C1362 C1358 1.385 . S
C1362 C1361 1.374 . S
C1363 C1360 1.499 . S
C1363 C1364 1.373 . S
C1363 C1365 1.389 . S
C1364 H1337 0.950 . S
C1364 C1350 1.377 . S
C1364 C1363 1.373 . S
C1365 C1349 1.377 . S
C1365 C1363 1.389 . S
C1365 C1366 1.524 . S
C1366 C1365 1.524 . S
C1366 C1367 1.397 . S
C1366 C1371 1.363 . S
C1367 H1338 0.950 . S
C1367 C1366 1.397 . S
C1367 C1368 1.334 . S
C1368 H1339 0.950 . S
C1368 C1367 1.334 . S
C1368 C1369 1.287 . S
C1369 C1368 1.287 . S
C1369 C1370 1.524 . S
C1369 H1372 0.999 . S
C1370 H1340 0.950 . S
C1370 C1369 1.524 . S
C1370 C1371 1.415 . S
C1371 H1341 0.950 . S
C1371 C1366 1.363 . S
C1371 C1370 1.415 . S
H1372 C1369 0.999 . S
H1373 C1354 0.913 . S
H1374 C1392 0.951 . S
H1375 C1394 0.951 . S
H1376 C1396 0.950 . S
H1377 C1397 0.950 . S
H1378 C1399 0.950 . S
H1379 C1402 0.950 . S
H1380 C1403 0.950 . S
H1381 C1405 0.950 . S
H1382 C1406 0.950 . S
H1383 C1407 0.951 . S
H1384 C1409 0.951 . S
H1385 C1411 0.950 . S
H1386 C1412 0.950 . S
H1387 C1414 0.950 . S
H1388 C1417 0.950 . S
H1389 C1418 0.950 . S
H1390 C1420 0.950 . S
H1391 C1421 0.950 . S
C1392 H1374 0.951 . S
C1392 C1393 1.366 . S
C1392 C1394 1.388 . S
C1393 C1392 1.366 . S
C1393 C1397 1.385 . S
C1394 H1375 0.951 . S
C1394 C1392 1.388 . S
C1394 C1395 1.366 . S
C1395 C1394 1.366 . S
C1395 C1396 1.414 . S
C1395 C1398 1.499 . S
C1396 H1376 0.950 . S
C1396 C1395 1.414 . S
C1396 C1397 1.374 . S
C1397 H1377 0.950 . S
C1397 C1393 1.385 . S
C1397 C1396 1.374 . S
C1398 C1395 1.499 . S
C1398 C1399 1.373 . S
C1398 C1400 1.389 . S
C1399 H1378 0.950 . S
C1399 C1398 1.373 . S
C1399 C1415 1.377 . S
C1400 C1398 1.389 . S
C1400 C1401 1.524 . S
C1400 C1414 1.377 . S
C1401 C1400 1.524 . S
C1401 C1402 1.397 . S
C1401 C1406 1.363 . S
C1402 H1379 0.950 . S
C1402 C1401 1.397 . S
C1402 C1403 1.334 . S
C1403 H1380 0.950 . S
C1403 C1402 1.334 . S
C1403 C1404 1.287 . S
C1404 C1403 1.287 . S
C1404 C1405 1.524 . S
C1404 H1423 0.913 . S
C1405 H1381 0.950 . S
C1405 C1404 1.524 . S
C1405 C1406 1.415 . S
C1406 H1382 0.950 . S
C1406 C1401 1.363 . S
C1406 C1405 1.415 . S
C1407 H1383 0.951 . S
C1407 C1408 1.366 . S
C1407 C1409 1.388 . S
C1408 C1407 1.366 . S
C1408 C1412 1.385 . S
C1409 H1384 0.951 . S
C1409 C1407 1.388 . S
C1409 C1410 1.366 . S
C1410 C1409 1.366 . S
C1410 C1411 1.414 . S
C1410 C1413 1.499 . S
C1411 H1385 0.950 . S
C1411 C1410 1.414 . S
C1411 C1412 1.374 . S
C1412 H1386 0.950 . S
C1412 C1408 1.385 . S
C1412 C1411 1.374 . S
C1413 C1410 1.499 . S
C1413 C1414 1.373 . S
C1413 C1415 1.389 . S
C1414 H1387 0.950 . S
C1414 C1400 1.377 . S
C1414 C1413 1.373 . S
C1415 C1399 1.377 . S
C1415 C1413 1.389 . S
C1415 C1416 1.524 . S
C1416 C1415 1.524 . S
C1416 C1417 1.397 . S
C1416 C1421 1.363 . S
C1417 H1388 0.950 . S
C1417 C1416 1.397 . S
C1417 C1418 1.334 . S
C1418 H1389 0.950 . S
C1418 C1417 1.334 . S
C1418 C1419 1.287 . S
C1419 C1418 1.287 . S
C1419 C1420 1.524 . S
C1419 H1422 0.999 . S
C1420 H1390 0.950 . S
C1420 C1419 1.524 . S
C1420 C1421 1.415 . S
C1421 H1391 0.950 . S
C1421 C1416 1.363 . S
C1421 C1420 1.415 . S
H1422 C1419 0.999 . S
H1423 C1404 0.913 . S
H1424 C1442 0.951 . S
H1425 C1444 0.951 . S
H1426 C1446 0.950 . S
H1427 C1447 0.950 . S
H1428 C1449 0.950 . S
H1429 C1452 0.950 . S
H1430 C1453 0.950 . S
H1431 C1455 0.950 . S
H1432 C1456 0.950 . S
H1433 C1457 0.951 . S
H1434 C1459 0.951 . S
H1435 C1461 0.950 . S
H1436 C1462 0.950 . S
H1437 C1464 0.950 . S
H1438 C1467 0.950 . S
H1439 C1468 0.950 . S
H1440 C1470 0.950 . S
H1441 C1471 0.950 . S
C1442 H1424 0.951 . S
C1442 C1443 1.366 . S
C1442 C1444 1.388 . S
C1443 C1442 1.366 . S
C1443 C1447 1.385 . S
C1444 H1425 0.951 . S
C1444 C1442 1.388 . S
C1444 C1445 1.366 . S
C1445 C1444 1.366 . S
C1445 C1446 1.414 . S
C1445 C1448 1.499 . S
C1446 H1426 0.950 . S
C1446 C1445 1.414 . S
C1446 C1447 1.374 . S
C1447 H1427 0.950 . S
C1447 C1443 1.385 . S
C1447 C1446 1.374 . S
C1448 C1445 1.499 . S
C1448 C1449 1.373 . S
C1448 C1450 1.389 . S
C1449 H1428 0.950 . S
C1449 C1448 1.373 . S
C1449 C1465 1.377 . S
C1450 C1448 1.389 . S
C1450 C1451 1.524 . S
C1450 C1464 1.377 . S
C1451 C1450 1.524 . S
C1451 C1452 1.397 . S
C1451 C1456 1.363 . S
C1452 H1429 0.950 . S
C1452 C1451 1.397 . S
C1452 C1453 1.334 . S
C1453 H1430 0.950 . S
C1453 C1452 1.334 . S
C1453 C1454 1.287 . S
C1454 C1453 1.287 . S
C1454 C1455 1.524 . S
C1454 H1473 0.913 . S
C1455 H1431 0.950 . S
C1455 C1454 1.524 . S
C1455 C1456 1.415 . S
C1456 H1432 0.950 . S
C1456 C1451 1.363 . S
C1456 C1455 1.415 . S
C1457 H1433 0.951 . S
C1457 C1458 1.366 . S
C1457 C1459 1.388 . S
C1458 C1457 1.366 . S
C1458 C1462 1.385 . S
C1459 H1434 0.951 . S
C1459 C1457 1.388 . S
C1459 C1460 1.366 . S
C1460 C1459 1.366 . S
C1460 C1461 1.414 . S
C1460 C1463 1.499 . S
C1461 H1435 0.950 . S
C1461 C1460 1.414 . S
C1461 C1462 1.374 . S
C1462 H1436 0.950 . S
C1462 C1458 1.385 . S
C1462 C1461 1.374 . S
C1463 C1460 1.499 . S
C1463 C1464 1.373 . S
C1463 C1465 1.389 . S
C1464 H1437 0.950 . S
C1464 C1450 1.377 . S
C1464 C1463 1.373 . S
C1465 C1449 1.377 . S
C1465 C1463 1.389 . S
C1465 C1466 1.524 . S
C1466 C1465 1.524 . S
C1466 C1467 1.397 . S
C1466 C1471 1.363 . S
C1467 H1438 0.950 . S
C1467 C1466 1.397 . S
C1467 C1468 1.334 . S
C1468 H1439 0.950 . S
C1468 C1467 1.334 . S
C1468 C1469 1.287 . S
C1469 C1468 1.287 . S
C1469 C1470 1.524 . S
C1469 H1472 0.999 . S
C1470 H1440 0.950 . S
C1470 C1469 1.524 . S
C1470 C1471 1.415 . S
C1471 H1441 0.950 . S
C1471 C1466 1.363 . S
C1471 C1470 1.415 . S
H1472 C1469 0.999 . S
H1473 C1454 0.913 . S
H1474 C1492 0.951 . S
H1475 C1494 0.951 . S
H1476 C1496 0.950 . S
H1477 C1497 0.950 . S
H1478 C1499 0.950 . S
H1479 C1502 0.950 . S
H1480 C1503 0.950 . S
H1481 C1505 0.950 . S
H1482 C1506 0.950 . S
H1483 C1507 0.951 . S
H1484 C1509 0.951 . S
H1485 C1511 0.950 . S
H1486 C1512 0.950 . S
H1487 C1514 0.950 . S
H1488 C1517 0.950 . S
H1489 C1518 0.950 . S
H1490 C1520 0.950 . S
H1491 C1521 0.950 . S
C1492 H1474 0.951 . S
C1492 C1493 1.366 . S
C1492 C1494 1.388 . S
C1493 C1492 1.366 . S
C1493 C1497 1.385 . S
C1494 H1475 0.951 . S
C1494 C1492 1.388 . S
C1494 C1495 1.366 . S
C1495 C1494 1.366 . S
C1495 C1496 1.414 . S
C1495 C1498 1.499 . S
C1496 H1476 0.950 . S
C1496 C1495 1.414 . S
C1496 C1497 1.374 . S
C1497 H1477 0.950 . S
C1497 C1493 1.385 . S
C1497 C1496 1.374 . S
C1498 C1495 1.499 . S
C1498 C1499 1.373 . S
C1498 C1500 1.389 . S
C1499 H1478 0.950 . S
C1499 C1498 1.373 . S
C1499 C1515 1.377 . S
C1500 C1498 1.389 . S
C1500 C1501 1.524 . S
C1500 C1514 1.377 . S
C1501 C1500 1.524 . S
C1501 C1502 1.397 . S
C1501 C1506 1.363 . S
C1502 H1479 0.950 . S
C1502 C1501 1.397 . S
C1502 C1503 1.334 . S
C1503 H1480 0.950 . S
C1503 C1502 1.334 . S
C1503 C1504 1.287 . S
C1504 C1503 1.287 . S
C1504 C1505 1.524 . S
C1504 H1523 0.913 . S
C1505 H1481 0.950 . S
C1505 C1504 1.524 . S
C1505 C1506 1.415 . S
C1506 H1482 0.950 . S
C1506 C1501 1.363 . S
C1506 C1505 1.415 . S
C1507 H1483 0.951 . S
C1507 C1508 1.366 . S
C1507 C1509 1.388 . S
C1508 C1507 1.366 . S
C1508 C1512 1.385 . S
C1509 H1484 0.951 . S
C1509 C1507 1.388 . S
C1509 C1510 1.366 . S
C1510 C1509 1.366 . S
C1510 C1511 1.414 . S
C1510 C1513 1.499 . S
C1511 H1485 0.950 . S
C1511 C1510 1.414 . S
C1511 C1512 1.374 . S
C1512 H1486 0.950 . S
C1512 C1508 1.385 . S
C1512 C1511 1.374 . S
C1513 C1510 1.499 . S
C1513 C1514 1.373 . S
C1513 C1515 1.389 . S
C1514 H1487 0.950 . S
C1514 C1500 1.377 . S
C1514 C1513 1.373 . S
C1515 C1499 1.377 . S
C1515 C1513 1.389 . S
C1515 C1516 1.524 . S
C1516 C1515 1.524 . S
C1516 C1517 1.397 . S
C1516 C1521 1.363 . S
C1517 H1488 0.950 . S
C1517 C1516 1.397 . S
C1517 C1518 1.334 . S
C1518 H1489 0.950 . S
C1518 C1517 1.334 . S
C1518 C1519 1.287 . S
C1519 C1518 1.287 . S
C1519 C1520 1.524 . S
C1519 H1522 0.999 . S
C1520 H1490 0.950 . S
C1520 C1519 1.524 . S
C1520 C1521 1.415 . S
C1521 H1491 0.950 . S
C1521 C1516 1.363 . S
C1521 C1520 1.415 . S
H1522 C1519 0.999 . S
H1523 C1504 0.913 . S
H1524 C1542 0.951 . S
H1525 C1544 0.951 . S
H1526 C1546 0.950 . S
H1527 C1547 0.950 . S
H1528 C1549 0.950 . S
H1529 C1552 0.950 . S
H1530 C1553 0.950 . S
H1531 C1555 0.950 . S
H1532 C1556 0.950 . S
H1533 C1557 0.951 . S
H1534 C1559 0.951 . S
H1535 C1561 0.950 . S
H1536 C1562 0.950 . S
H1537 C1564 0.950 . S
H1538 C1567 0.950 . S
H1539 C1568 0.950 . S
H1540 C1570 0.950 . S
H1541 C1571 0.950 . S
C1542 H1524 0.951 . S
C1542 C1543 1.366 . S
C1542 C1544 1.388 . S
C1543 C1542 1.366 . S
C1543 C1547 1.385 . S
C1544 H1525 0.951 . S
C1544 C1542 1.388 . S
C1544 C1545 1.366 . S
C1545 C1544 1.366 . S
C1545 C1546 1.414 . S
C1545 C1548 1.499 . S
C1546 H1526 0.950 . S
C1546 C1545 1.414 . S
C1546 C1547 1.374 . S
C1547 H1527 0.950 . S
C1547 C1543 1.385 . S
C1547 C1546 1.374 . S
C1548 C1545 1.499 . S
C1548 C1549 1.373 . S
C1548 C1550 1.389 . S
C1549 H1528 0.950 . S
C1549 C1548 1.373 . S
C1549 C1565 1.377 . S
C1550 C1548 1.389 . S
C1550 C1551 1.524 . S
C1550 C1564 1.377 . S
C1551 C1550 1.524 . S
C1551 C1552 1.397 . S
C1551 C1556 1.363 . S
C1552 H1529 0.950 . S
C1552 C1551 1.397 . S
C1552 C1553 1.334 . S
C1553 H1530 0.950 . S
C1553 C1552 1.334 . S
C1553 C1554 1.287 . S
C1554 C1553 1.287 . S
C1554 C1555 1.524 . S
C1554 H1573 0.913 . S
C1555 H1531 0.950 . S
C1555 C1554 1.524 . S
C1555 C1556 1.415 . S
C1556 H1532 0.950 . S
C1556 C1551 1.363 . S
C1556 C1555 1.415 . S
C1557 H1533 0.951 . S
C1557 C1558 1.366 . S
C1557 C1559 1.388 . S
C1558 C1557 1.366 . S
C1558 C1562 1.385 . S
C1559 H1534 0.951 . S
C1559 C1557 1.388 . S
C1559 C1560 1.366 . S
C1560 C1559 1.366 . S
C1560 C1561 1.414 . S
C1560 C1563 1.499 . S
C1561 H1535 0.950 . S
C1561 C1560 1.414 . S
C1561 C1562 1.374 . S
C1562 H1536 0.950 . S
C1562 C1558 1.385 . S
C1562 C1561 1.374 . S
C1563 C1560 1.499 . S
C1563 C1564 1.373 . S
C1563 C1565 1.389 . S
C1564 H1537 0.950 . S
C1564 C1550 1.377 . S
C1564 C1563 1.373 . S
C1565 C1549 1.377 . S
C1565 C1563 1.389 . S
C1565 C1566 1.524 . S
C1566 C1565 1.524 . S
C1566 C1567 1.397 . S
C1566 C1571 1.363 . S
C1567 H1538 0.950 . S
C1567 C1566 1.397 . S
C1567 C1568 1.334 . S
C1568 H1539 0.950 . S
C1568 C1567 1.334 . S
C1568 C1569 1.287 . S
C1569 C1568 1.287 . S
C1569 C1570 1.524 . S
C1569 H1572 0.999 . S
C1570 H1540 0.950 . S
C1570 C1569 1.524 . S
C1570 C1571 1.415 . S
C1571 H1541 0.950 . S
C1571 C1566 1.363 . S
C1571 C1570 1.415 . S
H1572 C1569 0.999 . S
H1573 C1554 0.913 . S
H1574 C1592 0.951 . S
H1575 C1594 0.951 . S
H1576 C1596 0.950 . S
H1577 C1597 0.950 . S
H1578 C1599 0.950 . S
H1579 C1602 0.950 . S
H1580 C1603 0.950 . S
H1581 C1605 0.950 . S
H1582 C1606 0.950 . S
H1583 C1607 0.951 . S
H1584 C1609 0.951 . S
H1585 C1611 0.950 . S
H1586 C1612 0.950 . S
H1587 C1614 0.950 . S
H1588 C1617 0.950 . S
H1589 C1618 0.950 . S
H1590 C1620 0.950 . S
H1591 C1621 0.950 . S
C1592 H1574 0.951 . S
C1592 C1593 1.366 . S
C1592 C1594 1.388 . S
C1593 C1592 1.366 . S
C1593 C1597 1.385 . S
C1594 H1575 0.951 . S
C1594 C1592 1.388 . S
C1594 C1595 1.366 . S
C1595 C1594 1.366 . S
C1595 C1596 1.414 . S
C1595 C1598 1.499 . S
C1596 H1576 0.950 . S
C1596 C1595 1.414 . S
C1596 C1597 1.374 . S
C1597 H1577 0.950 . S
C1597 C1593 1.385 . S
C1597 C1596 1.374 . S
C1598 C1595 1.499 . S
C1598 C1599 1.373 . S
C1598 C1600 1.389 . S
C1599 H1578 0.950 . S
C1599 C1598 1.373 . S
C1599 C1615 1.377 . S
C1600 C1598 1.389 . S
C1600 C1601 1.524 . S
C1600 C1614 1.377 . S
C1601 C1600 1.524 . S
C1601 C1602 1.397 . S
C1601 C1606 1.363 . S
C1602 H1579 0.950 . S
C1602 C1601 1.397 . S
C1602 C1603 1.334 . S
C1603 H1580 0.950 . S
C1603 C1602 1.334 . S
C1603 C1604 1.287 . S
C1604 C1603 1.287 . S
C1604 C1605 1.524 . S
C1604 H1623 0.913 . S
C1605 H1581 0.950 . S
C1605 C1604 1.524 . S
C1605 C1606 1.415 . S
C1606 H1582 0.950 . S
C1606 C1601 1.363 . S
C1606 C1605 1.415 . S
C1607 H1583 0.951 . S
C1607 C1608 1.366 . S
C1607 C1609 1.388 . S
C1608 C1607 1.366 . S
C1608 C1612 1.385 . S
C1609 H1584 0.951 . S
C1609 C1607 1.388 . S
C1609 C1610 1.366 . S
C1610 C1609 1.366 . S
C1610 C1611 1.414 . S
C1610 C1613 1.499 . S
C1611 H1585 0.950 . S
C1611 C1610 1.414 . S
C1611 C1612 1.374 . S
C1612 H1586 0.950 . S
C1612 C1608 1.385 . S
C1612 C1611 1.374 . S
C1613 C1610 1.499 . S
C1613 C1614 1.373 . S
C1613 C1615 1.389 . S
C1614 H1587 0.950 . S
C1614 C1600 1.377 . S
C1614 C1613 1.373 . S
C1615 C1599 1.377 . S
C1615 C1613 1.389 . S
C1615 C1616 1.524 . S
C1616 C1615 1.524 . S
C1616 C1617 1.397 . S
C1616 C1621 1.363 . S
C1617 H1588 0.950 . S
C1617 C1616 1.397 . S
C1617 C1618 1.334 . S
C1618 H1589 0.950 . S
C1618 C1617 1.334 . S
C1618 C1619 1.287 . S
C1619 C1618 1.287 . S
C1619 C1620 1.524 . S
C1619 H1622 0.999 . S
C1620 H1590 0.950 . S
C1620 C1619 1.524 . S
C1620 C1621 1.415 . S
C1621 H1591 0.950 . S
C1621 C1616 1.363 . S
C1621 C1620 1.415 . S
H1622 C1619 0.999 . S
H1623 C1604 0.913 . S
H1624 C1642 0.951 . S
H1625 C1644 0.951 . S
H1626 C1646 0.950 . S
H1627 C1647 0.950 . S
H1628 C1649 0.950 . S
H1629 C1652 0.950 . S
H1630 C1653 0.950 . S
H1631 C1655 0.950 . S
H1632 C1656 0.950 . S
H1633 C1657 0.951 . S
H1634 C1659 0.951 . S
H1635 C1661 0.950 . S
H1636 C1662 0.950 . S
H1637 C1664 0.950 . S
H1638 C1667 0.950 . S
H1639 C1668 0.950 . S
H1640 C1670 0.950 . S
H1641 C1671 0.950 . S
C1642 H1624 0.951 . S
C1642 C1643 1.366 . S
C1642 C1644 1.388 . S
C1643 C1642 1.366 . S
C1643 C1647 1.385 . S
C1644 H1625 0.951 . S
C1644 C1642 1.388 . S
C1644 C1645 1.366 . S
C1645 C1644 1.366 . S
C1645 C1646 1.414 . S
C1645 C1648 1.499 . S
C1646 H1626 0.950 . S
C1646 C1645 1.414 . S
C1646 C1647 1.374 . S
C1647 H1627 0.950 . S
C1647 C1643 1.385 . S
C1647 C1646 1.374 . S
C1648 C1645 1.499 . S
C1648 C1649 1.373 . S
C1648 C1650 1.389 . S
C1649 H1628 0.950 . S
C1649 C1648 1.373 . S
C1649 C1665 1.377 . S
C1650 C1648 1.389 . S
C1650 C1651 1.524 . S
C1650 C1664 1.377 . S
C1651 C1650 1.524 . S
C1651 C1652 1.397 . S
C1651 C1656 1.363 . S
C1652 H1629 0.950 . S
C1652 C1651 1.397 . S
C1652 C1653 1.334 . S
C1653 H1630 0.950 . S
C1653 C1652 1.334 . S
C1653 C1654 1.287 . S
C1654 C1653 1.287 . S
C1654 C1655 1.524 . S
C1654 H1673 0.913 . S
C1655 H1631 0.950 . S
C1655 C1654 1.524 . S
C1655 C1656 1.415 . S
C1656 H1632 0.950 . S
C1656 C1651 1.363 . S
C1656 C1655 1.415 . S
C1657 H1633 0.951 . S
C1657 C1658 1.366 . S
C1657 C1659 1.388 . S
C1658 C1657 1.366 . S
C1658 C1662 1.385 . S
C1659 H1634 0.951 . S
C1659 C1657 1.388 . S
C1659 C1660 1.366 . S
C1660 C1659 1.366 . S
C1660 C1661 1.414 . S
C1660 C1663 1.499 . S
C1661 H1635 0.950 . S
C1661 C1660 1.414 . S
C1661 C1662 1.374 . S
C1662 H1636 0.950 . S
C1662 C1658 1.385 . S
C1662 C1661 1.374 . S
C1663 C1660 1.499 . S
C1663 C1664 1.373 . S
C1663 C1665 1.389 . S
C1664 H1637 0.950 . S
C1664 C1650 1.377 . S
C1664 C1663 1.373 . S
C1665 C1649 1.377 . S
C1665 C1663 1.389 . S
C1665 C1666 1.524 . S
C1666 C1665 1.524 . S
C1666 C1667 1.397 . S
C1666 C1671 1.363 . S
C1667 H1638 0.950 . S
C1667 C1666 1.397 . S
C1667 C1668 1.334 . S
C1668 H1639 0.950 . S
C1668 C1667 1.334 . S
C1668 C1669 1.287 . S
C1669 C1668 1.287 . S
C1669 C1670 1.524 . S
C1669 H1672 0.999 . S
C1670 H1640 0.950 . S
C1670 C1669 1.524 . S
C1670 C1671 1.415 . S
C1671 H1641 0.950 . S
C1671 C1666 1.363 . S
C1671 C1670 1.415 . S
H1672 C1669 0.999 . S
H1673 C1654 0.913 . S
H1674 C1692 0.951 . S
H1675 C1694 0.951 . S
H1676 C1696 0.950 . S
H1677 C1697 0.950 . S
H1678 C1699 0.950 . S
H1679 C1702 0.950 . S
H1680 C1703 0.950 . S
H1681 C1705 0.950 . S
H1682 C1706 0.950 . S
H1683 C1707 0.951 . S
H1684 C1709 0.951 . S
H1685 C1711 0.950 . S
H1686 C1712 0.950 . S
H1687 C1714 0.950 . S
H1688 C1717 0.950 . S
H1689 C1718 0.950 . S
H1690 C1720 0.950 . S
H1691 C1721 0.950 . S
C1692 H1674 0.951 . S
C1692 C1693 1.366 . S
C1692 C1694 1.388 . S
C1693 C1692 1.366 . S
C1693 C1697 1.385 . S
C1694 H1675 0.951 . S
C1694 C1692 1.388 . S
C1694 C1695 1.366 . S
C1695 C1694 1.366 . S
C1695 C1696 1.414 . S
C1695 C1698 1.499 . S
C1696 H1676 0.950 . S
C1696 C1695 1.414 . S
C1696 C1697 1.374 . S
C1697 H1677 0.950 . S
C1697 C1693 1.385 . S
C1697 C1696 1.374 . S
C1698 C1695 1.499 . S
C1698 C1699 1.373 . S
C1698 C1700 1.389 . S
C1699 H1678 0.950 . S
C1699 C1698 1.373 . S
C1699 C1715 1.377 . S
C1700 C1698 1.389 . S
C1700 C1701 1.524 . S
C1700 C1714 1.377 . S
C1701 C1700 1.524 . S
C1701 C1702 1.397 . S
C1701 C1706 1.363 . S
C1702 H1679 0.950 . S
C1702 C1701 1.397 . S
C1702 C1703 1.334 . S
C1703 H1680 0.950 . S
C1703 C1702 1.334 . S
C1703 C1704 1.287 . S
C1704 C1703 1.287 . S
C1704 C1705 1.524 . S
C1704 H1723 0.913 . S
C1705 H1681 0.950 . S
C1705 C1704 1.524 . S
C1705 C1706 1.415 . S
C1706 H1682 0.950 . S
C1706 C1701 1.363 . S
C1706 C1705 1.415 . S
C1707 H1683 0.951 . S
C1707 C1708 1.366 . S
C1707 C1709 1.388 . S
C1708 C1707 1.366 . S
C1708 C1712 1.385 . S
C1709 H1684 0.951 . S
C1709 C1707 1.388 . S
C1709 C1710 1.366 . S
C1710 C1709 1.366 . S
C1710 C1711 1.414 . S
C1710 C1713 1.499 . S
C1711 H1685 0.950 . S
C1711 C1710 1.414 . S
C1711 C1712 1.374 . S
C1712 H1686 0.950 . S
C1712 C1708 1.385 . S
C1712 C1711 1.374 . S
C1713 C1710 1.499 . S
C1713 C1714 1.373 . S
C1713 C1715 1.389 . S
C1714 H1687 0.950 . S
C1714 C1700 1.377 . S
C1714 C1713 1.373 . S
C1715 C1699 1.377 . S
C1715 C1713 1.389 . S
C1715 C1716 1.524 . S
C1716 C1715 1.524 . S
C1716 C1717 1.397 . S
C1716 C1721 1.363 . S
C1717 H1688 0.950 . S
C1717 C1716 1.397 . S
C1717 C1718 1.334 . S
C1718 H1689 0.950 . S
C1718 C1717 1.334 . S
C1718 C1719 1.287 . S
C1719 C1718 1.287 . S
C1719 C1720 1.524 . S
C1719 H1722 0.999 . S
C1720 H1690 0.950 . S
C1720 C1719 1.524 . S
C1720 C1721 1.415 . S
C1721 H1691 0.950 . S
C1721 C1716 1.363 . S
C1721 C1720 1.415 . S
H1722 C1719 0.999 . S
H1723 C1704 0.913 . S
H1724 C1742 0.951 . S
H1725 C1744 0.951 . S
H1726 C1746 0.950 . S
H1727 C1747 0.950 . S
H1728 C1749 0.950 . S
H1729 C1752 0.950 . S
H1730 C1753 0.950 . S
H1731 C1755 0.950 . S
H1732 C1756 0.950 . S
H1733 C1757 0.951 . S
H1734 C1759 0.951 . S
H1735 C1761 0.950 . S
H1736 C1762 0.950 . S
H1737 C1764 0.950 . S
H1738 C1767 0.950 . S
H1739 C1768 0.950 . S
H1740 C1770 0.950 . S
H1741 C1771 0.950 . S
C1742 H1724 0.951 . S
C1742 C1743 1.366 . S
C1742 C1744 1.388 . S
C1743 C1742 1.366 . S
C1743 C1747 1.385 . S
C1744 H1725 0.951 . S
C1744 C1742 1.388 . S
C1744 C1745 1.366 . S
C1745 C1744 1.366 . S
C1745 C1746 1.414 . S
C1745 C1748 1.499 . S
C1746 H1726 0.950 . S
C1746 C1745 1.414 . S
C1746 C1747 1.374 . S
C1747 H1727 0.950 . S
C1747 C1743 1.385 . S
C1747 C1746 1.374 . S
C1748 C1745 1.499 . S
C1748 C1749 1.373 . S
C1748 C1750 1.389 . S
C1749 H1728 0.950 . S
C1749 C1748 1.373 . S
C1749 C1765 1.377 . S
C1750 C1748 1.389 . S
C1750 C1751 1.524 . S
C1750 C1764 1.377 . S
C1751 C1750 1.524 . S
C1751 C1752 1.397 . S
C1751 C1756 1.363 . S
C1752 H1729 0.950 . S
C1752 C1751 1.397 . S
C1752 C1753 1.334 . S
C1753 H1730 0.950 . S
C1753 C1752 1.334 . S
C1753 C1754 1.287 . S
C1754 C1753 1.287 . S
C1754 C1755 1.524 . S
C1754 H1773 0.913 . S
C1755 H1731 0.950 . S
C1755 C1754 1.524 . S
C1755 C1756 1.415 . S
C1756 H1732 0.950 . S
C1756 C1751 1.363 . S
C1756 C1755 1.415 . S
C1757 H1733 0.951 . S
C1757 C1758 1.366 . S
C1757 C1759 1.388 . S
C1758 C1757 1.366 . S
C1758 C1762 1.385 . S
C1759 H1734 0.951 . S
C1759 C1757 1.388 . S
C1759 C1760 1.366 . S
C1760 C1759 1.366 . S
C1760 C1761 1.414 . S
C1760 C1763 1.499 . S
C1761 H1735 0.950 . S
C1761 C1760 1.414 . S
C1761 C1762 1.374 . S
C1762 H1736 0.950 . S
C1762 C1758 1.385 . S
C1762 C1761 1.374 . S
C1763 C1760 1.499 . S
C1763 C1764 1.373 . S
C1763 C1765 1.389 . S
C1764 H1737 0.950 . S
C1764 C1750 1.377 . S
C1764 C1763 1.373 . S
C1765 C1749 1.377 . S
C1765 C1763 1.389 . S
C1765 C1766 1.524 . S
C1766 C1765 1.524 . S
C1766 C1767 1.397 . S
C1766 C1771 1.363 . S
C1767 H1738 0.950 . S
C1767 C1766 1.397 . S
C1767 C1768 1.334 . S
C1768 H1739 0.950 . S
C1768 C1767 1.334 . S
C1768 C1769 1.287 . S
C1769 C1768 1.287 . S
C1769 C1770 1.524 . S
C1769 H1772 0.999 . S
C1770 H1740 0.950 . S
C1770 C1769 1.524 . S
C1770 C1771 1.415 . S
C1771 H1741 0.950 . S
C1771 C1766 1.363 . S
C1771 C1770 1.415 . S
H1772 C1769 0.999 . S
H1773 C1754 0.913 . S
H1774 C1792 0.951 . S
H1775 C1794 0.951 . S
H1776 C1796 0.950 . S
H1777 C1797 0.950 . S
H1778 C1799 0.950 . S
H1779 C1802 0.950 . S
H1780 C1803 0.950 . S
H1781 C1805 0.950 . S
H1782 C1806 0.950 . S
H1783 C1807 0.951 . S
H1784 C1809 0.951 . S
H1785 C1811 0.950 . S
H1786 C1812 0.950 . S
H1787 C1814 0.950 . S
H1788 C1817 0.950 . S
H1789 C1818 0.950 . S
H1790 C1820 0.950 . S
H1791 C1821 0.950 . S
C1792 H1774 0.951 . S
C1792 C1793 1.366 . S
C1792 C1794 1.388 . S
C1793 C1792 1.366 . S
C1793 C1797 1.385 . S
C1794 H1775 0.951 . S
C1794 C1792 1.388 . S
C1794 C1795 1.366 . S
C1795 C1794 1.366 . S
C1795 C1796 1.414 . S
C1795 C1798 1.499 . S
C1796 H1776 0.950 . S
C1796 C1795 1.414 . S
C1796 C1797 1.374 . S
C1797 H1777 0.950 . S
C1797 C1793 1.385 . S
C1797 C1796 1.374 . S
C1798 C1795 1.499 . S
C1798 C1799 1.373 . S
C1798 C1800 1.389 . S
C1799 H1778 0.950 . S
C1799 C1798 1.373 . S
C1799 C1815 1.377 . S
C1800 C1798 1.389 . S
C1800 C1801 1.524 . S
C1800 C1814 1.377 . S
C1801 C1800 1.524 . S
C1801 C1802 1.397 . S
C1801 C1806 1.363 . S
C1802 H1779 0.950 . S
C1802 C1801 1.397 . S
C1802 C1803 1.334 . S
C1803 H1780 0.950 . S
C1803 C1802 1.334 . S
C1803 C1804 1.287 . S
C1804 C1803 1.287 . S
C1804 C1805 1.524 . S
C1804 H1823 0.913 . S
C1805 H1781 0.950 . S
C1805 C1804 1.524 . S
C1805 C1806 1.415 . S
C1806 H1782 0.950 . S
C1806 C1801 1.363 . S
C1806 C1805 1.415 . S
C1807 H1783 0.951 . S
C1807 C1808 1.366 . S
C1807 C1809 1.388 . S
C1808 C1807 1.366 . S
C1808 C1812 1.385 . S
C1809 H1784 0.951 . S
C1809 C1807 1.388 . S
C1809 C1810 1.366 . S
C1810 C1809 1.366 . S
C1810 C1811 1.414 . S
C1810 C1813 1.499 . S
C1811 H1785 0.950 . S
C1811 C1810 1.414 . S
C1811 C1812 1.374 . S
C1812 H1786 0.950 . S
C1812 C1808 1.385 . S
C1812 C1811 1.374 . S
C1813 C1810 1.499 . S
C1813 C1814 1.373 . S
C1813 C1815 1.389 . S
C1814 H1787 0.950 . S
C1814 C1800 1.377 . S
C1814 C1813 1.373 . S
C1815 C1799 1.377 . S
C1815 C1813 1.389 . S
C1815 C1816 1.524 . S
C1816 C1815 1.524 . S
C1816 C1817 1.397 . S
C1816 C1821 1.363 . S
C1817 H1788 0.950 . S
C1817 C1816 1.397 . S
C1817 C1818 1.334 . S
C1818 H1789 0.950 . S
C1818 C1817 1.334 . S
C1818 C1819 1.287 . S
C1819 C1818 1.287 . S
C1819 C1820 1.524 . S
C1819 H1822 0.999 . S
C1820 H1790 0.950 . S
C1820 C1819 1.524 . S
C1820 C1821 1.415 . S
C1821 H1791 0.950 . S
C1821 C1816 1.363 . S
C1821 C1820 1.415 . S
H1822 C1819 0.999 . S
H1823 C1804 0.913 . S
C258 C113 1.560 . S
C243 C0 1.565 . S
C308 C139 1.559 . S
C293 C26 1.566 . S
C358 C153 1.560 . S
C343 C40 1.570 . S
C408 C155 1.559 . S
C393 C43 1.571 . S
C443 C57 1.568 . S
C458 C152 1.559 . S
C508 C154 1.561 . S
C493 C70 1.565 . S
C558 C112 1.561 . S
C543 C97 1.571 . S
C608 C138 1.561 . S
C593 C111 1.570 . S
C658 C140 1.559 . S
C643 C98 1.570 . S
C708 C166 1.560 . S
C693 C68 1.571 . S
C758 C124 1.559 . S
C743 C83 1.565 . S
C808 C126 1.560 . S
C793 C84 1.566 . S
C858 C125 1.561 . S
C843 C15 1.571 . S
C908 C127 1.561 . S
C893 C29 1.570 . S
C958 C141 1.561 . S
C943 C54 1.566 . S
C1008 C167 1.561 . S
C993 C13 1.565 . S
C1058 C169 1.560 . S
C1043 C99 1.571 . S
C1093 C69 1.568 . S
C1108 C195 1.563 . S
C1143 C82 1.568 . S
C1158 C208 1.563 . S
C1193 C85 1.568 . S
C1208 C211 1.562 . S
C1243 C14 1.568 . S
C1258 C209 1.557 . S
C1293 C28 1.568 . S
C1308 C210 1.558 . S
C1343 C55 1.568 . S
C1358 C168 1.558 . S
C1408 C194 1.561 . S
C1393 C12 1.565 . S
C1458 C197 1.561 . S
C1443 C1 1.565 . S
C1493 C27 1.568 . S
C1508 C222 1.557 . S
C1543 C41 1.568 . S
C1558 C180 1.557 . S
C1593 C42 1.568 . S
C1608 C182 1.557 . S
C1658 C181 1.561 . S
C1643 C56 1.571 . S
C1708 C183 1.561 . S
C1693 C71 1.571 . S
C1743 C96 1.568 . S
C1758 C196 1.562 . S
C1808 C223 1.561 . S
C1793 C110 1.571 . S
