# Generated by pormake.
# Topology gar, (4,6)-cn, num edge types: 1
# Building blocks:
#     Node 0, Type 0, BuildingBlock: AZAVOO_clean_sbu_0, # of connection points: 4
#     Node 1, Type 0, BuildingBlock: AZAVOO_clean_sbu_0, # of connection points: 4
#     Node 2, Type 0, BuildingBlock: AZAVOO_clean_sbu_0, # of connection points: 4
#     Node 3, Type 0, BuildingBlock: AZAVOO_clean_sbu_0, # of connection points: 4
#     Node 4, Type 0, BuildingBlock: AZAVOO_clean_sbu_0, # of connection points: 4
#     Node 5, Type 0, BuildingBlock: AZAVOO_clean_sbu_0, # of connection points: 4
#     Node 6, Type 0, BuildingBlock: AZAVOO_clean_sbu_0, # of connection points: 4
#     Node 7, Type 0, BuildingBlock: AZAVOO_clean_sbu_0, # of connection points: 4
#     Node 8, Type 0, BuildingBlock: AZAVOO_clean_sbu_0, # of connection points: 4
#     Node 9, Type 0, BuildingBlock: AZAVOO_clean_sbu_0, # of connection points: 4
#     Node 10, Type 0, BuildingBlock: AZAVOO_clean_sbu_0, # of connection points: 4
#     Node 11, Type 0, BuildingBlock: AZAVOO_clean_sbu_0, # of connection points: 4
#     Node 12, Type 0, BuildingBlock: AZAVOO_clean_sbu_0, # of connection points: 4
#     Node 13, Type 0, BuildingBlock: AZAVOO_clean_sbu_0, # of connection points: 4
#     Node 14, Type 0, BuildingBlock: AZAVOO_clean_sbu_0, # of connection points: 4
#     Node 15, Type 0, BuildingBlock: AZAVOO_clean_sbu_0, # of connection points: 4
#     Node 16, Type 0, BuildingBlock: AZAVOO_clean_sbu_0, # of connection points: 4
#     Node 17, Type 0, BuildingBlock: AZAVOO_clean_sbu_0, # of connection points: 4
#     Node 18, Type 0, BuildingBlock: AZAVOO_clean_sbu_0, # of connection points: 4
#     Node 19, Type 0, BuildingBlock: AZAVOO_clean_sbu_0, # of connection points: 4
#     Node 20, Type 0, BuildingBlock: AZAVOO_clean_sbu_0, # of connection points: 4
#     Node 21, Type 0, BuildingBlock: AZAVOO_clean_sbu_0, # of connection points: 4
#     Node 22, Type 0, BuildingBlock: AZAVOO_clean_sbu_0, # of connection points: 4
#     Node 23, Type 0, BuildingBlock: AZAVOO_clean_sbu_0, # of connection points: 4
#     Node 24, Type 1, BuildingBlock: HISSIN_clean_sbu_0, # of connection points: 6
#     Node 25, Type 1, BuildingBlock: HISSIN_clean_sbu_0, # of connection points: 6
#     Node 26, Type 1, BuildingBlock: HISSIN_clean_sbu_0, # of connection points: 6
#     Node 27, Type 1, BuildingBlock: HISSIN_clean_sbu_0, # of connection points: 6
#     Node 28, Type 1, BuildingBlock: HISSIN_clean_sbu_0, # of connection points: 6
#     Node 29, Type 1, BuildingBlock: HISSIN_clean_sbu_0, # of connection points: 6
#     Node 30, Type 1, BuildingBlock: HISSIN_clean_sbu_0, # of connection points: 6
#     Node 31, Type 1, BuildingBlock: HISSIN_clean_sbu_0, # of connection points: 6
#     Node 32, Type 1, BuildingBlock: HISSIN_clean_sbu_0, # of connection points: 6
#     Node 33, Type 1, BuildingBlock: HISSIN_clean_sbu_0, # of connection points: 6
#     Node 34, Type 1, BuildingBlock: HISSIN_clean_sbu_0, # of connection points: 6
#     Node 35, Type 1, BuildingBlock: HISSIN_clean_sbu_0, # of connection points: 6
#     Node 36, Type 1, BuildingBlock: HISSIN_clean_sbu_0, # of connection points: 6
#     Node 37, Type 1, BuildingBlock: HISSIN_clean_sbu_0, # of connection points: 6
#     Node 38, Type 1, BuildingBlock: HISSIN_clean_sbu_0, # of connection points: 6
#     Node 39, Type 1, BuildingBlock: HISSIN_clean_sbu_0, # of connection points: 6
#     Edge 40, Type (0, 1), BuildingBlock: XIVTED_clean_linker_0, # of connection points: 2
#     Edge 41, Type (0, 1), BuildingBlock: XIVTED_clean_linker_0, # of connection points: 2
#     Edge 42, Type (0, 1), BuildingBlock: XIVTED_clean_linker_0, # of connection points: 2
#     Edge 43, Type (0, 1), BuildingBlock: XIVTED_clean_linker_0, # of connection points: 2
#     Edge 44, Type (0, 1), BuildingBlock: XIVTED_clean_linker_0, # of connection points: 2
#     Edge 45, Type (0, 1), BuildingBlock: XIVTED_clean_linker_0, # of connection points: 2
#     Edge 46, Type (0, 1), BuildingBlock: XIVTED_clean_linker_0, # of connection points: 2
#     Edge 47, Type (0, 1), BuildingBlock: XIVTED_clean_linker_0, # of connection points: 2
#     Edge 48, Type (0, 1), BuildingBlock: XIVTED_clean_linker_0, # of connection points: 2
#     Edge 49, Type (0, 1), BuildingBlock: XIVTED_clean_linker_0, # of connection points: 2
#     Edge 50, Type (0, 1), BuildingBlock: XIVTED_clean_linker_0, # of connection points: 2
#     Edge 51, Type (0, 1), BuildingBlock: XIVTED_clean_linker_0, # of connection points: 2
#     Edge 52, Type (0, 1), BuildingBlock: XIVTED_clean_linker_0, # of connection points: 2
#     Edge 53, Type (0, 1), BuildingBlock: XIVTED_clean_linker_0, # of connection points: 2
#     Edge 54, Type (0, 1), BuildingBlock: XIVTED_clean_linker_0, # of connection points: 2
#     Edge 55, Type (0, 1), BuildingBlock: XIVTED_clean_linker_0, # of connection points: 2
#     Edge 56, Type (0, 1), BuildingBlock: XIVTED_clean_linker_0, # of connection points: 2
#     Edge 57, Type (0, 1), BuildingBlock: XIVTED_clean_linker_0, # of connection points: 2
#     Edge 58, Type (0, 1), BuildingBlock: XIVTED_clean_linker_0, # of connection points: 2
#     Edge 59, Type (0, 1), BuildingBlock: XIVTED_clean_linker_0, # of connection points: 2
#     Edge 60, Type (0, 1), BuildingBlock: XIVTED_clean_linker_0, # of connection points: 2
#     Edge 61, Type (0, 1), BuildingBlock: XIVTED_clean_linker_0, # of connection points: 2
#     Edge 62, Type (0, 1), BuildingBlock: XIVTED_clean_linker_0, # of connection points: 2
#     Edge 63, Type (0, 1), BuildingBlock: XIVTED_clean_linker_0, # of connection points: 2
#     Edge 64, Type (0, 1), BuildingBlock: XIVTED_clean_linker_0, # of connection points: 2
#     Edge 65, Type (0, 1), BuildingBlock: XIVTED_clean_linker_0, # of connection points: 2
#     Edge 66, Type (0, 1), BuildingBlock: XIVTED_clean_linker_0, # of connection points: 2
#     Edge 67, Type (0, 1), BuildingBlock: XIVTED_clean_linker_0, # of connection points: 2
#     Edge 68, Type (0, 1), BuildingBlock: XIVTED_clean_linker_0, # of connection points: 2
#     Edge 69, Type (0, 1), BuildingBlock: XIVTED_clean_linker_0, # of connection points: 2
#     Edge 70, Type (0, 1), BuildingBlock: XIVTED_clean_linker_0, # of connection points: 2
#     Edge 71, Type (0, 1), BuildingBlock: XIVTED_clean_linker_0, # of connection points: 2
#     Edge 72, Type (0, 1), BuildingBlock: XIVTED_clean_linker_0, # of connection points: 2
#     Edge 73, Type (0, 1), BuildingBlock: XIVTED_clean_linker_0, # of connection points: 2
#     Edge 74, Type (0, 1), BuildingBlock: XIVTED_clean_linker_0, # of connection points: 2
#     Edge 75, Type (0, 1), BuildingBlock: XIVTED_clean_linker_0, # of connection points: 2
#     Edge 76, Type (0, 1), BuildingBlock: XIVTED_clean_linker_0, # of connection points: 2
#     Edge 77, Type (0, 1), BuildingBlock: XIVTED_clean_linker_0, # of connection points: 2
#     Edge 78, Type (0, 1), BuildingBlock: XIVTED_clean_linker_0, # of connection points: 2
#     Edge 79, Type (0, 1), BuildingBlock: XIVTED_clean_linker_0, # of connection points: 2
#     Edge 80, Type (0, 1), BuildingBlock: XIVTED_clean_linker_0, # of connection points: 2
#     Edge 81, Type (0, 1), BuildingBlock: XIVTED_clean_linker_0, # of connection points: 2
#     Edge 82, Type (0, 1), BuildingBlock: XIVTED_clean_linker_0, # of connection points: 2
#     Edge 83, Type (0, 1), BuildingBlock: XIVTED_clean_linker_0, # of connection points: 2
#     Edge 84, Type (0, 1), BuildingBlock: XIVTED_clean_linker_0, # of connection points: 2
#     Edge 85, Type (0, 1), BuildingBlock: XIVTED_clean_linker_0, # of connection points: 2
#     Edge 86, Type (0, 1), BuildingBlock: XIVTED_clean_linker_0, # of connection points: 2
#     Edge 87, Type (0, 1), BuildingBlock: XIVTED_clean_linker_0, # of connection points: 2
#     Edge 88, Type (0, 1), BuildingBlock: XIVTED_clean_linker_0, # of connection points: 2
#     Edge 89, Type (0, 1), BuildingBlock: XIVTED_clean_linker_0, # of connection points: 2
#     Edge 90, Type (0, 1), BuildingBlock: XIVTED_clean_linker_0, # of connection points: 2
#     Edge 91, Type (0, 1), BuildingBlock: XIVTED_clean_linker_0, # of connection points: 2
#     Edge 92, Type (0, 1), BuildingBlock: XIVTED_clean_linker_0, # of connection points: 2
#     Edge 93, Type (0, 1), BuildingBlock: XIVTED_clean_linker_0, # of connection points: 2
#     Edge 94, Type (0, 1), BuildingBlock: XIVTED_clean_linker_0, # of connection points: 2
#     Edge 95, Type (0, 1), BuildingBlock: XIVTED_clean_linker_0, # of connection points: 2
#     Edge 96, Type (0, 1), BuildingBlock: XIVTED_clean_linker_0, # of connection points: 2
#     Edge 97, Type (0, 1), BuildingBlock: XIVTED_clean_linker_0, # of connection points: 2
#     Edge 98, Type (0, 1), BuildingBlock: XIVTED_clean_linker_0, # of connection points: 2
#     Edge 99, Type (0, 1), BuildingBlock: XIVTED_clean_linker_0, # of connection points: 2
#     Edge 100, Type (0, 1), BuildingBlock: XIVTED_clean_linker_0, # of connection points: 2
#     Edge 101, Type (0, 1), BuildingBlock: XIVTED_clean_linker_0, # of connection points: 2
#     Edge 102, Type (0, 1), BuildingBlock: XIVTED_clean_linker_0, # of connection points: 2
#     Edge 103, Type (0, 1), BuildingBlock: XIVTED_clean_linker_0, # of connection points: 2
#     Edge 104, Type (0, 1), BuildingBlock: XIVTED_clean_linker_0, # of connection points: 2
#     Edge 105, Type (0, 1), BuildingBlock: XIVTED_clean_linker_0, # of connection points: 2
#     Edge 106, Type (0, 1), BuildingBlock: XIVTED_clean_linker_0, # of connection points: 2
#     Edge 107, Type (0, 1), BuildingBlock: XIVTED_clean_linker_0, # of connection points: 2
#     Edge 108, Type (0, 1), BuildingBlock: XIVTED_clean_linker_0, # of connection points: 2
#     Edge 109, Type (0, 1), BuildingBlock: XIVTED_clean_linker_0, # of connection points: 2
#     Edge 110, Type (0, 1), BuildingBlock: XIVTED_clean_linker_0, # of connection points: 2
#     Edge 111, Type (0, 1), BuildingBlock: XIVTED_clean_linker_0, # of connection points: 2
#     Edge 112, Type (0, 1), BuildingBlock: XIVTED_clean_linker_0, # of connection points: 2
#     Edge 113, Type (0, 1), BuildingBlock: XIVTED_clean_linker_0, # of connection points: 2
#     Edge 114, Type (0, 1), BuildingBlock: XIVTED_clean_linker_0, # of connection points: 2
#     Edge 115, Type (0, 1), BuildingBlock: XIVTED_clean_linker_0, # of connection points: 2
#     Edge 116, Type (0, 1), BuildingBlock: XIVTED_clean_linker_0, # of connection points: 2
#     Edge 117, Type (0, 1), BuildingBlock: XIVTED_clean_linker_0, # of connection points: 2
#     Edge 118, Type (0, 1), BuildingBlock: XIVTED_clean_linker_0, # of connection points: 2
#     Edge 119, Type (0, 1), BuildingBlock: XIVTED_clean_linker_0, # of connection points: 2
#     Edge 120, Type (0, 1), BuildingBlock: XIVTED_clean_linker_0, # of connection points: 2
#     Edge 121, Type (0, 1), BuildingBlock: XIVTED_clean_linker_0, # of connection points: 2
#     Edge 122, Type (0, 1), BuildingBlock: XIVTED_clean_linker_0, # of connection points: 2
#     Edge 123, Type (0, 1), BuildingBlock: XIVTED_clean_linker_0, # of connection points: 2
#     Edge 124, Type (0, 1), BuildingBlock: XIVTED_clean_linker_0, # of connection points: 2
#     Edge 125, Type (0, 1), BuildingBlock: XIVTED_clean_linker_0, # of connection points: 2
#     Edge 126, Type (0, 1), BuildingBlock: XIVTED_clean_linker_0, # of connection points: 2
#     Edge 127, Type (0, 1), BuildingBlock: XIVTED_clean_linker_0, # of connection points: 2
#     Edge 128, Type (0, 1), BuildingBlock: XIVTED_clean_linker_0, # of connection points: 2
#     Edge 129, Type (0, 1), BuildingBlock: XIVTED_clean_linker_0, # of connection points: 2
#     Edge 130, Type (0, 1), BuildingBlock: XIVTED_clean_linker_0, # of connection points: 2
#     Edge 131, Type (0, 1), BuildingBlock: XIVTED_clean_linker_0, # of connection points: 2
#     Edge 132, Type (0, 1), BuildingBlock: XIVTED_clean_linker_0, # of connection points: 2
#     Edge 133, Type (0, 1), BuildingBlock: XIVTED_clean_linker_0, # of connection points: 2
#     Edge 134, Type (0, 1), BuildingBlock: XIVTED_clean_linker_0, # of connection points: 2
#     Edge 135, Type (0, 1), BuildingBlock: XIVTED_clean_linker_0, # of connection points: 2
# Relax obj value: 0.214
# Max RMSD: 0.287
# Mean RMSD: 0.184
data_MOF--net-gar--node1-AZAVOO_clean_sbu_0--node2-HISSIN_clean_sbu_0--edge1-XIVTED_clean_linker_0
_symmetry_space_group_name_H-M    P1
_symmetry_Int_Tables_number       1
_symmetry_cell_setting            triclinic
loop_
_symmetry_equiv_pos_as_xyz
'x, y, z'
_cell_length_a     61.06749
_cell_length_b     58.470199
_cell_length_c     58.039519
_cell_angle_alpha  103.24416
_cell_angle_beta   93.19234
_cell_angle_gamma 102.12068
loop_
_atom_site_label
_atom_site_type_symbol
_atom_site_fract_x
_atom_site_fract_y
_atom_site_fract_z
_atom_type_partial_charge
Mg0 Mg 0.09475 0.30881 0.39043 0.0
O1 O 0.09853 0.34713 0.41376 0.0
O2 O 0.06581 0.34594 0.42979 0.0
Mg3 Mg 0.04179 0.30971 0.41649 0.0
C4 C 0.08557 0.35693 0.42735 0.0
C5 C 0.13256 0.30014 0.36674 0.0
O6 O 0.11422 0.28403 0.3563 0.0
O7 O 0.0995 0.29508 0.42304 0.0
O8 O 0.06614 0.29523 0.43713 0.0
O9 O 0.08138 0.31991 0.36001 0.0
O10 O 0.06046 0.30469 0.38537 0.0
C11 C 0.08591 0.29136 0.43835 0.0
C12 C 0.06194 0.31475 0.36775 0.0
O13 O 0.13132 0.31531 0.38583 0.0
Mg14 Mg 0.01528 0.80202 0.67596 0.0
O15 O 0.01941 0.76404 0.65785 0.0
O16 O 0.9864 0.74712 0.63531 0.0
Mg17 Mg 0.96193 0.77148 0.63899 0.0
C18 C 1.00618 0.7463 0.64291 0.0
C19 C 0.071 0.81214 0.68773 0.0
O20 O 0.09009 0.82839 0.69113 0.0
O21 O 0.01811 0.81158 0.64104 0.0
O22 O 0.98496 0.79475 0.61916 0.0
O23 O 1.00134 0.78919 0.70683 0.0
O24 O 0.98136 0.78881 0.67378 0.0
C25 C 1.00503 0.8076 0.62202 0.0
C26 C 0.98198 0.78353 0.69406 0.0
O27 O 0.05276 0.81869 0.68484 0.0
Mg28 Mg 0.59293 0.80328 0.88614 0.0
O29 O 0.59164 0.84048 0.90967 0.0
O30 O 0.55589 0.83609 0.91854 0.0
Mg31 Mg 0.53465 0.7992 0.8999 0.0
C32 C 0.57603 0.84854 0.92035 0.0
C33 C 0.63996 0.82947 0.88144 0.0
O34 O 0.62815 0.84477 0.87732 0.0
O35 O 0.59174 0.78847 0.91865 0.0
O36 O 0.55552 0.78528 0.92498 0.0
O37 O 0.5848 0.81456 0.85357 0.0
O38 O 0.55954 0.79784 0.87447 0.0
C39 C 0.57529 0.78282 0.93038 0.0
C40 C 0.56402 0.80834 0.85751 0.0
O41 O 0.6306 0.81194 0.88959 0.0
Mg42 Mg 0.5185 0.30139 0.16963 0.0
O43 O 0.51949 0.26235 0.15218 0.0
O44 O 0.48512 0.24536 0.13264 0.0
Mg45 Mg 0.46226 0.27163 0.13855 0.0
C46 C 0.50524 0.24436 0.13877 0.0
C47 C 0.57366 0.30848 0.18065 0.0
O48 O 0.59374 0.32035 0.17795 0.0
O49 O 0.51828 0.30882 0.13362 0.0
O50 O 0.48333 0.29283 0.11562 0.0
O51 O 0.50711 0.29116 0.2028 0.0
O52 O 0.48466 0.29054 0.17141 0.0
C53 C 0.5035 0.30463 0.11595 0.0
C54 C 0.48688 0.28628 0.19204 0.0
O55 O 0.55651 0.31453 0.17285 0.0
Mg56 Mg 0.08192 0.81721 0.14525 0.0
O57 O 0.08084 0.77943 0.1223 0.0
O58 O 0.04742 0.76633 0.09995 0.0
Mg59 Mg 0.02803 0.79562 0.10776 0.0
C60 C 0.06676 0.76351 0.10649 0.0
C61 C 0.12314 0.83187 0.1787 0.0
O62 O 0.10749 0.83927 0.1911 0.0
O63 O 0.0894 0.83158 0.11331 0.0
O64 O 0.05605 0.81667 0.09119 0.0
O65 O 0.06649 0.8011 0.17259 0.0
O66 O 0.04727 0.809 0.14291 0.0
C67 C 0.07664 0.82815 0.09418 0.0
C68 C 0.04738 0.79925 0.1607 0.0
O69 O 0.11833 0.82229 0.15659 0.0
Mg70 Mg 0.51403 0.78501 0.40279 0.0
O71 O 0.51115 0.81819 0.43016 0.0
O72 O 0.47751 0.81384 0.44402 0.0
Mg73 Mg 0.45915 0.77521 0.4256 0.0
C74 C 0.49728 0.82624 0.4436 0.0
C75 C 0.55931 0.82112 0.40404 0.0
O76 O 0.54568 0.83511 0.40106 0.0
O77 O 0.5186 0.7682 0.43248 0.0
O78 O 0.48517 0.76254 0.4468 0.0
O79 O 0.50011 0.79853 0.37446 0.0
O80 O 0.47999 0.77606 0.39558 0.0
C81 C 0.50582 0.7613 0.44731 0.0
C82 C 0.48067 0.78864 0.37993 0.0
O83 O 0.5512 0.79969 0.40537 0.0
Mg84 Mg 0.58198 0.31542 0.64263 0.0
O85 O 0.57774 0.27516 0.62591 0.0
O86 O 0.54272 0.26 0.60753 0.0
Mg87 Mg 0.52651 0.29141 0.60781 0.0
C88 C 0.56213 0.25754 0.6143 0.0
C89 C 0.62017 0.30374 0.66792 0.0
O90 O 0.60225 0.2883 0.67095 0.0
O91 O 0.58928 0.32168 0.6067 0.0
O92 O 0.55489 0.30549 0.58701 0.0
O93 O 0.5657 0.30733 0.6736 0.0
O94 O 0.5473 0.31079 0.64104 0.0
C95 C 0.57575 0.31534 0.58763 0.0
C96 C 0.54684 0.30479 0.66102 0.0
O97 O 0.61814 0.31782 0.65461 0.0
Mg98 Mg 0.01379 0.28341 0.90464 0.0
O99 O 0.00894 0.31817 0.9281 0.0
O100 O 0.97452 0.31308 0.94017 0.0
Mg101 Mg 0.95758 0.27342 0.92431 0.0
C102 C 0.99398 0.32622 0.93981 0.0
C103 C 0.05855 0.31995 0.90484 0.0
O104 O 0.0445 0.33284 0.89999 0.0
O105 O 0.01774 0.27091 0.93745 0.0
O106 O 0.98329 0.26435 0.94942 0.0
O107 O 1.00054 0.29247 0.873 0.0
O108 O 0.97983 0.27235 0.8955 0.0
C109 C 1.0043 0.2648 0.95209 0.0
C110 C 0.9809 0.28262 0.87801 0.0
O111 O 0.05088 0.29911 0.90798 0.0
Mg112 Mg 0.43046 0.02807 0.28122 0.0
O113 O 0.4077 1.00705 0.30117 0.0
O114 O 0.41207 0.01988 0.34059 0.0
Mg115 Mg 0.43917 0.05534 0.34546 0.0
C116 C 0.40215 1.00497 0.3214 0.0
C117 C 0.40657 0.99057 0.23048 0.0
O118 O 0.38805 0.9797 0.21615 0.0
O119 O 0.40915 0.05475 0.28682 0.0
O120 O 0.41364 0.07055 0.32621 0.0
O121 O 0.45636 1.00772 0.28791 0.0
O122 O 0.45329 0.04235 0.31143 0.0
C123 C 0.40458 0.06867 0.30527 0.0
C124 C 0.46287 0.02452 0.30738 0.0
O125 O 0.40531 1.00613 0.24927 0.0
Mg126 Mg 0.28941 0.19517 0.50254 0.0
O127 O 0.29072 0.2193 0.5402 0.0
O128 O 0.32459 0.24474 0.54883 0.0
Mg129 Mg 0.3458 0.23512 0.51814 0.0
C130 C 0.30507 0.23656 0.55438 0.0
C131 C 0.24426 0.15981 0.49079 0.0
O132 O 0.25898 0.14771 0.48187 0.0
O133 O 0.28798 0.22491 0.48312 0.0
O134 O 0.32395 0.24547 0.49058 0.0
O135 O 0.3021 0.16895 0.51869 0.0
O136 O 0.32406 0.19849 0.50717 0.0
C137 C 0.30422 0.24113 0.47962 0.0
C138 C 0.32219 0.18054 0.51679 0.0
O139 O 0.25119 0.1822 0.5007 0.0
Mg140 Mg 0.16648 0.01548 0.77414 0.0
O141 O 0.192 0.05457 0.77899 0.0
O142 O 0.21629 0.06055 0.81078 0.0
Mg143 Mg 0.20452 0.02816 0.8293 0.0
C144 C 0.2091 0.06799 0.79329 0.0
C145 C 0.13644 1.00545 0.71823 0.0
O146 O 0.1237 0.9873 0.7245 0.0
O147 O 0.19255 0.98608 0.7667 0.0
O148 O 0.21142 0.9939 0.80276 0.0
O149 O 0.14194 0.03244 0.80027 0.0
O150 O 0.16808 0.01809 0.8139 0.0
C151 C 0.20639 0.98055 0.78148 0.0
C152 C 0.15125 0.02776 0.81858 0.0
O153 O 0.15397 0.018 0.73277 0.0
Mg154 Mg 0.29691 0.97195 0.01958 0.0
O155 O 0.29416 0.94192 0.98404 0.0
O156 O 0.3216 0.92284 0.98968 0.0
Mg157 Mg 0.34347 0.94 0.02474 0.0
C158 C 0.30469 0.92511 0.97718 0.0
C159 C 0.25424 0.99548 0.02661 0.0
O160 O 0.26961 1.00974 0.04343 0.0
O161 O 0.28289 0.94236 0.03855 0.0
O162 O 0.31263 0.92585 0.04162 0.0
O163 O 0.3245 0.99993 1.00792 0.0
O164 O 0.33176 0.97255 0.02511 0.0
C165 C 0.29249 0.92717 0.04525 0.0
C166 C 0.33935 0.98999 0.01587 0.0
O167 O 0.25988 0.97798 0.01236 0.0
Mg168 Mg 0.32211 0.39666 0.05524 0.0
O169 O 0.31698 0.3696 0.01869 0.0
O170 O 0.34605 0.35198 0.01752 0.0
Mg171 Mg 0.36928 0.3676 0.05256 0.0
C172 C 0.32792 0.35489 1.00774 0.0
C173 C 0.28769 0.42399 0.05646 0.0
O174 O 0.30701 0.43855 0.06642 0.0
O175 O 0.3119 0.36821 0.07568 0.0
O176 O 0.34295 0.35374 0.0763 0.0
O177 O 0.34142 0.42444 0.03959 0.0
O178 O 0.3571 0.40109 0.05713 0.0
C179 C 0.32354 0.35502 0.08299 0.0
C180 C 0.35935 0.41793 0.04587 0.0
O181 O 0.28675 0.40155 0.04973 0.0
Mg182 Mg 0.82561 0.11874 0.02697 0.0
O183 O 0.82946 0.14502 0.06402 0.0
O184 O 0.86103 0.17357 0.06799 0.0
Mg185 Mg 0.88037 0.16382 0.03576 0.0
C186 C 0.84281 0.16466 0.07571 0.0
C187 C 0.77111 0.10809 0.01618 0.0
O188 O 0.77713 0.11672 0.99791 0.0
O189 O 0.81906 0.14856 1.0096 0.0
O190 O 0.85322 0.17331 0.01349 0.0
O191 O 0.8472 0.09395 0.03831 0.0
O192 O 0.86144 0.12582 0.02607 0.0
C193 C 0.83229 0.16708 1.00581 0.0
C194 C 0.86485 0.1075 0.03302 0.0
O195 O 0.78658 0.10577 0.03073 0.0
Mg196 Mg 0.17685 0.526 0.24504 0.0
O197 O 0.19603 0.56532 0.25311 0.0
O198 O 0.20235 0.57906 0.29272 0.0
Mg199 Mg 0.18727 0.54868 0.30954 0.0
C200 C 0.20435 0.58201 0.27175 0.0
C201 C 0.16645 0.50315 0.19506 0.0
O202 O 0.1567 0.48746 0.20647 0.0
O203 O 0.20943 0.51667 0.25388 0.0
O204 O 0.21458 0.5307 0.29355 0.0
O205 O 0.14444 0.5373 0.24659 0.0
O206 O 0.16458 0.53143 0.27701 0.0
C207 C 0.22092 0.52052 0.27396 0.0
C208 C 0.14752 0.53809 0.26901 0.0
O209 O 0.18141 0.52121 0.20672 0.0
Mg210 Mg 0.82166 0.89869 0.55525 0.0
O211 O 0.81686 0.87127 0.51903 0.0
O212 O 0.84565 0.85329 0.518 0.0
Mg213 Mg 0.86805 0.86857 0.55369 0.0
C214 C 0.82769 0.85645 0.5081 0.0
C215 C 0.7834 0.92306 0.56052 0.0
O216 O 0.79954 0.93667 0.57689 0.0
O217 O 0.81052 0.87052 0.57604 0.0
O218 O 0.84077 0.85465 0.57643 0.0
O219 O 0.84213 0.92559 0.53928 0.0
O220 O 0.85655 0.90253 0.55849 0.0
C221 C 0.82145 0.85653 0.58302 0.0
C222 C 0.85957 0.91879 0.54655 0.0
O223 O 0.78647 0.90339 0.54803 0.0
Mg224 Mg 0.93425 0.06729 0.27319 0.0
O225 O 0.90826 0.02737 0.26907 0.0
O226 O 0.88917 0.03303 0.30087 0.0
Mg227 Mg 0.90233 0.0723 0.32547 0.0
C228 C 0.89353 0.01892 0.28214 0.0
C229 C 0.96225 0.0519 0.22331 0.0
O230 O 0.97304 0.04258 0.23769 0.0
O231 O 0.90734 0.09378 0.26807 0.0
O232 O 0.89206 0.09822 0.30233 0.0
O233 O 0.96056 0.05447 0.29552 0.0
O234 O 0.93635 0.07264 0.31286 0.0
C235 C 0.89475 0.10418 0.28255 0.0
C236 C 0.9527 0.06219 0.31529 0.0
O237 O 0.94581 0.06128 0.23128 0.0
Mg238 Mg 0.32471 0.61313 0.5327 0.0
O239 O 0.32834 0.6397 0.56962 0.0
O240 O 0.35977 0.66822 0.57283 0.0
Mg241 Mg 0.37936 0.65807 0.54087 0.0
C242 C 0.34163 0.65956 0.58085 0.0
C243 C 0.27091 0.60122 0.52021 0.0
O244 O 0.2777 0.6074 0.50095 0.0
O245 O 0.31815 0.64265 0.5151 0.0
O246 O 0.35232 0.66713 0.51806 0.0
O247 O 0.3463 0.58835 0.54405 0.0
O248 O 0.36043 0.62014 0.53165 0.0
C249 C 0.33132 0.66084 0.51066 0.0
C250 C 0.36387 0.60181 0.53853 0.0
O251 O 0.28583 0.60056 0.53627 0.0
Mg252 Mg 0.43504 0.56712 0.77466 0.0
O253 O 0.40861 0.52741 0.77057 0.0
O254 O 0.38953 0.53283 0.80233 0.0
Mg255 Mg 0.40277 0.57199 0.82671 0.0
C256 C 0.39386 0.51885 0.78353 0.0
C257 C 0.46557 0.5693 0.72728 0.0
O258 O 0.47903 0.58543 0.74463 0.0
O259 O 0.4092 0.59497 0.76994 0.0
O260 O 0.39219 0.59718 0.80306 0.0
O261 O 0.46064 0.55368 0.79705 0.0
O262 O 0.43706 0.57289 0.8144 0.0
C263 C 0.39575 0.60438 0.78401 0.0
C264 C 0.45298 0.56186 0.81681 0.0
O265 O 0.44634 0.55867 0.73272 0.0
Mg266 Mg 0.6722 0.03553 0.75282 0.0
O267 O 0.69475 0.07267 0.75563 0.0
O268 O 0.71295 0.0883 0.79223 0.0
Mg269 Mg 0.70265 0.06029 0.81319 0.0
C270 C 0.70848 0.08943 0.77086 0.0
C271 C 0.65663 0.04924 0.70977 0.0
O272 O 0.65627 0.06716 0.728 0.0
O273 O 0.70382 0.02069 0.74947 0.0
O274 O 0.71979 0.0373 0.78691 0.0
O275 O 0.64473 0.05219 0.76683 0.0
O276 O 0.67146 0.0447 0.78938 0.0
C277 C 0.71998 0.0247 0.7659 0.0
C278 C 0.65476 0.05465 0.78771 0.0
O279 O 0.66435 0.03159 0.7133 0.0
Mg280 Mg 0.79081 0.69416 1.00289 0.0
O281 O 0.79193 0.71922 0.03999 0.0
O282 O 0.82589 0.74441 0.04873 0.0
Mg283 Mg 0.84701 0.73412 0.018 0.0
C284 C 0.80626 0.73645 0.05421 0.0
C285 C 0.74518 0.6595 0.99167 0.0
O286 O 0.75953 0.64674 0.98303 0.0
O287 O 0.78955 0.72288 0.98212 0.0
O288 O 0.82539 0.74375 0.98944 0.0
O289 O 0.80297 0.66887 0.02071 0.0
O290 O 0.82551 0.69722 1.00803 0.0
C291 C 0.80571 0.73893 0.97823 0.0
C292 C 0.82321 0.68009 0.01885 0.0
O293 O 0.75257 0.68192 1.00109 0.0
Mg294 Mg 0.94714 0.55846 0.79822 0.0
O295 O 0.92649 0.52018 0.79557 0.0
O296 O 0.91363 0.52065 0.83105 0.0
Mg297 Mg 0.92383 0.55862 0.85481 0.0
C298 C 0.91564 0.5097 0.80987 0.0
C299 C 0.94513 0.54465 0.73651 0.0
O300 O 0.94099 0.56031 0.72482 0.0
O301 O 0.91528 0.57019 0.79438 0.0
O302 O 0.90174 0.57114 0.82952 0.0
O303 O 0.97751 0.54907 0.81372 0.0
O304 O 0.9524 0.56504 0.83402 0.0
C305 C 0.90048 0.57404 0.8084 0.0
C306 C 0.96987 0.55613 0.83392 0.0
O307 O 0.94585 0.54968 0.75889 0.0
Mg308 Mg 0.79533 0.47168 0.51572 0.0
O309 O 0.79365 0.44382 0.47893 0.0
O310 O 0.82279 0.42655 0.48285 0.0
Mg311 Mg 0.84149 0.43928 0.51989 0.0
C312 C 0.80589 0.42913 0.47061 0.0
C313 C 0.74436 0.47588 0.52254 0.0
O314 O 0.74948 0.46727 0.54061 0.0
O315 O 0.78037 0.44036 0.53193 0.0
O316 O 0.8095 0.42277 0.53374 0.0
O317 O 0.8238 0.5 0.50574 0.0
O318 O 0.82976 0.47225 0.52315 0.0
C319 C 0.78928 0.42401 0.53706 0.0
C320 C 0.8381 0.48999 0.51461 0.0
O321 O 0.75913 0.47932 0.50805 0.0
Mg322 Mg 0.66615 0.5158 0.27532 0.0
O323 O 0.69168 0.55477 0.27988 0.0
O324 O 0.71635 0.5609 0.31134 0.0
Mg325 Mg 0.70459 0.52823 0.32969 0.0
C326 C 0.70889 0.56827 0.29392 0.0
C327 C 0.63662 0.50537 0.21927 0.0
O328 O 0.62448 0.48656 0.22505 0.0
O329 O 0.69189 0.48633 0.26725 0.0
O330 O 0.71103 0.49358 0.30308 0.0
O331 O 0.64202 0.53322 0.30137 0.0
O332 O 0.66783 0.51837 0.31508 0.0
C333 C 0.70568 0.48042 0.28174 0.0
C334 C 0.65118 0.52841 0.31969 0.0
O335 O 0.65366 0.51845 0.23417 0.0
Eu336 Eu 0.06916 0.07286 0.02997 0.0
Eu337 Eu 0.0436 0.01714 0.01283 0.0
C338 C 0.07438 0.04254 0.9755 0.0
C339 C 0.08237 0.13972 0.05439 0.0
C340 C 0.0592 0.13859 0.05224 0.0
C341 C 0.09006 0.18318 0.06268 0.0
C342 C 0.05152 0.15955 0.05358 0.0
C343 C 0.09775 0.16206 0.06078 0.0
C344 C 0.06697 0.18196 0.05752 0.0
C345 C 0.09027 0.11784 0.04573 0.0
O346 O 0.07944 0.0138 0.02035 0.0
O347 O 0.09698 0.05358 0.03547 0.0
C348 C 0.09775 0.03073 0.02885 0.0
O349 O 0.04782 0.06752 0.06085 0.0
O350 O 0.02414 0.987 0.9847 0.0
O351 O 0.03059 0.98252 0.0204 0.0
O352 O 0.03787 0.02636 0.05254 0.0
C353 C 0.03814 0.04759 0.06685 0.0
O354 O 0.03361 0.07622 0.02037 0.0
O355 O 0.01515 0.03628 0.0104 0.0
O356 O 0.0631 0.02278 0.98071 0.0
O357 O 0.08789 0.10248 0.05905 0.0
O358 O 0.08373 0.1075 0.02328 0.0
O359 O 0.07654 0.06374 0.99071 0.0
C360 C 0.03443 0.95169 0.98941 0.0
C361 C 0.02473 0.92902 0.99283 0.0
C362 C 0.06984 0.93982 0.98355 0.0
C363 C 0.03776 0.91206 0.99237 0.0
C364 C 0.05671 0.95664 0.98366 0.0
C365 C 0.06066 0.91783 0.9888 0.0
C366 C 0.02399 0.97177 0.99806 0.0
C367 C 0.01486 0.05929 0.01479 0.0
H368 H 0.04713 0.12136 0.04741 0.0
H369 H 0.10234 0.20023 0.06634 0.0
H370 H 0.03367 0.15774 0.04925 0.0
H371 H 0.11571 0.16309 0.06262 0.0
H372 H 1.00777 0.92523 0.99789 0.0
H373 H 0.08751 0.94462 0.98103 0.0
H374 H 0.03052 0.89535 0.99703 0.0
H375 H 0.06457 0.97428 0.98139 0.0
Eu376 Eu 0.30479 0.79198 0.25079 0.0
Eu377 Eu 0.28555 0.79167 0.30293 0.0
C378 C 0.2554 0.79802 0.26031 0.0
C379 C 0.30983 0.80627 0.19164 0.0
C380 C 0.29346 0.81979 0.19672 0.0
C381 C 0.31168 0.81566 0.15324 0.0
C382 C 0.28622 0.83122 0.18011 0.0
C383 C 0.3189 0.80423 0.16989 0.0
C384 C 0.29525 0.82925 0.15818 0.0
C385 C 0.31721 0.79418 0.20903 0.0
O386 O 0.27329 0.75471 0.27883 0.0
O387 O 0.30161 0.7541 0.2544 0.0
C388 C 0.28493 0.74305 0.26396 0.0
O389 O 0.33485 0.79786 0.27698 0.0
O390 O 0.26011 0.77839 0.32461 0.0
O391 O 0.29068 0.80463 0.34153 0.0
O392 O 0.31685 0.77773 0.30257 0.0
C393 C 0.33532 0.78754 0.29471 0.0
O394 O 0.30152 0.82967 0.26742 0.0
O395 O 0.30755 0.82825 0.3062 0.0
O396 O 0.26155 0.80639 0.2832 0.0
O397 O 0.32798 0.80848 0.22887 0.0
O398 O 0.30199 0.77641 0.2126 0.0
O399 O 0.26729 0.78577 0.24638 0.0
C400 C 0.2763 0.77512 0.36128 0.0
C401 C 0.28026 0.75194 0.35321 0.0
C402 C 0.28285 0.7726 0.40205 0.0
C403 C 0.28537 0.73909 0.36955 0.0
C404 C 0.27759 0.78532 0.38574 0.0
C405 C 0.2869 0.74944 0.39413 0.0
C406 C 0.27266 0.78966 0.34459 0.0
C407 C 0.3079 0.8405 0.28995 0.0
H408 H 0.28624 0.82141 0.2135 0.0
H409 H 0.31919 0.81415 0.13665 0.0
H410 H 0.27341 0.84137 0.1843 0.0
H411 H 0.33158 0.79387 0.16581 0.0
H412 H 0.27977 0.74397 0.33434 0.0
H413 H 0.28376 0.7809 0.42089 0.0
H414 H 0.2887 0.72139 0.36301 0.0
H415 H 0.27487 0.80331 0.39222 0.0
Eu416 Eu 0.58346 0.04773 0.50083 0.0
Eu417 Eu 0.53491 0.05231 0.52253 0.0
C418 C 0.57696 0.04583 0.55416 0.0
C419 C 0.63756 0.02904 0.49399 0.0
C420 C 0.63815 0.02561 0.51717 0.0
C421 C 0.66497 1.0046 0.48502 0.0
C422 C 0.6522 0.01201 0.5243 0.0
C423 C 0.65087 0.01829 0.47789 0.0
C424 C 0.66588 1.0015 0.50837 0.0
C425 C 0.62211 0.0427 0.4864 0.0
O426 O 0.55138 0.08671 0.51386 0.0
O427 O 0.58724 0.08512 0.52398 0.0
C428 C 0.57195 0.09761 0.52317 0.0
O429 O 0.56234 0.05643 0.47267 0.0
O430 O 0.51738 0.07015 0.55043 0.0
O431 O 0.49826 0.04279 0.52019 0.0
O432 O 0.52806 0.03927 0.48272 0.0
C433 C 0.54079 0.04644 0.46706 0.0
O434 O 0.56187 1.01013 0.49439 0.0
O435 O 0.53637 0.01457 0.52203 0.0
O436 O 0.56069 0.05731 0.55366 0.0
O437 O 0.60291 0.02971 0.47499 0.0
O438 O 0.61968 0.06137 0.5025 0.0
O439 O 0.58497 0.03617 0.53478 0.0
C440 C 0.48142 0.07419 0.53838 0.0
C441 C 0.47808 0.08331 0.51842 0.0
C442 C 0.45334 0.09341 0.55714 0.0
C443 C 0.46204 0.0971 0.51768 0.0
C444 C 0.46924 0.07959 0.5578 0.0
C445 C 0.4493 0.10196 0.53694 0.0
C446 C 0.49748 0.05905 0.53952 0.0
C447 C 0.54653 1.0012 0.50699 0.0
H448 H 0.62775 0.03345 0.5298 0.0
H449 H 0.67546 0.99683 0.47243 0.0
H450 H 0.65224 1.0096 0.54226 0.0
H451 H 0.65037 0.0205 0.45985 0.0
H452 H 0.48759 0.07948 0.50335 0.0
H453 H 0.44412 0.09729 0.57243 0.0
H454 H 0.45919 0.10336 0.50184 0.0
H455 H 0.4719 0.07294 0.57345 0.0
Eu456 Eu 0.27754 0.29735 0.77747 0.0
Eu457 Eu 0.32489 0.28456 0.78215 0.0
C458 C 0.27993 0.2431 0.78276 0.0
C459 C 0.22264 0.31237 0.79164 0.0
C460 C 0.22683 0.30848 0.81425 0.0
C461 C 0.19015 0.32743 0.80387 0.0
C462 C 0.21281 0.31418 0.8317 0.0
C463 C 0.20432 0.32186 0.78647 0.0
C464 C 0.19434 0.32371 0.82666 0.0
C465 C 0.2384 0.30818 0.77417 0.0
O466 O 0.31222 0.26943 0.74321 0.0
O467 O 0.28848 0.29423 0.74075 0.0
C468 C 0.30009 0.27909 0.73055 0.0
O469 O 0.30252 0.33436 0.78559 0.0
O470 O 0.34408 0.25708 0.7809 0.0
O471 O 0.36143 0.29479 0.79032 0.0
O472 O 0.33354 0.32178 0.77277 0.0
C473 C 0.32293 0.33949 0.77891 0.0
O474 O 0.28332 0.29922 0.81675 0.0
O475 O 0.32146 0.3032 0.81952 0.0
O476 O 0.30092 0.25308 0.79207 0.0
O477 O 0.25744 0.3241 0.77882 0.0
O478 O 0.24115 0.2862 0.76794 0.0
O479 O 0.26876 0.25583 0.77243 0.0
C480 C 0.37924 0.26719 0.76776 0.0
C481 C 0.37221 0.26117 0.74327 0.0
C482 C 0.41709 0.26505 0.75952 0.0
C483 C 0.38763 0.25713 0.72693 0.0
C484 C 0.40161 0.26888 0.77584 0.0
C485 C 0.41028 0.25937 0.73492 0.0
C486 C 0.36344 0.2725 0.78489 0.0
C487 C 0.30288 0.304 0.82953 0.0
H488 H 0.24108 0.3013 0.81849 0.0
H489 H 0.17577 0.33433 0.79939 0.0
H490 H 0.21655 0.31133 0.84915 0.0
H491 H 0.20107 0.32508 0.76907 0.0
H492 H 0.3549 0.25992 0.73683 0.0
H493 H 0.43455 0.26746 0.76621 0.0
H494 H 0.38193 0.25269 0.70809 0.0
H495 H 0.40718 0.2737 0.79474 0.0
Eu496 Eu 0.0436 0.06399 0.53207 0.0
Eu497 Eu 0.0557 0.01571 0.50238 0.0
C498 C 0.09034 0.06654 0.5064 0.0
C499 C 0.03983 0.12581 0.54104 0.0
C500 C 0.05062 0.12305 0.52025 0.0
C501 C 0.0445 0.16835 0.54309 0.0
C502 C 0.0591 0.14278 0.51145 0.0
C503 C 0.03667 0.14847 0.55247 0.0
C504 C 0.05603 0.16568 0.52258 0.0
C505 C 0.03402 0.10488 0.551 0.0
O506 O 0.06554 0.01664 0.54197 0.0
O507 O 0.06395 0.05482 0.56164 0.0
C508 C 0.06946 0.03422 0.56176 0.0
O509 O 0.01945 0.03407 0.54204 0.0
O510 O 0.07796 0.99089 0.49459 0.0
O511 O 0.04371 0.98034 0.47774 0.0
O512 O 0.01881 1.00746 0.50666 0.0
C513 C 0.00968 0.01433 0.5261 0.0
O514 O 0.02628 0.0576 0.49367 0.0
O515 O 0.04452 0.03106 0.47187 0.0
O516 O 0.08613 0.04302 0.49875 0.0
O517 O 0.0192 0.08668 0.53749 0.0
O518 O 0.05156 0.0983 0.55875 0.0
O519 O 0.07637 0.07762 0.51831 0.0
C520 C 0.05736 0.95237 0.49345 0.0
C521 C 0.04998 0.95554 0.51617 0.0
C522 C 0.05653 0.91059 0.49242 0.0
C523 C 0.04654 0.93667 0.52725 0.0
C524 C 0.06041 0.9298 0.48143 0.0
C525 C 0.04997 0.91417 0.51554 0.0
C526 C 0.06166 0.97306 0.48299 0.0
C527 C 0.03059 0.04567 0.47271 0.0
H528 H 0.05296 0.10561 0.51102 0.0
H529 H 0.04153 0.18568 0.55188 0.0
H530 H 0.06839 0.13998 0.49608 0.0
H531 H 0.02838 0.15081 0.56858 0.0
H532 H 0.04693 0.97267 0.52541 0.0
H533 H 0.0591 0.89319 0.48319 0.0
H534 H 0.04112 0.9396 0.54495 0.0
H535 H 0.06588 0.92711 0.46377 0.0
Eu536 Eu 0.32295 0.80818 0.77095 0.0
Eu537 Eu 0.27618 0.77268 0.77407 0.0
C538 C 0.29905 0.8128 0.81885 0.0
C539 C 0.38493 0.83821 0.77156 0.0
C540 C 0.39192 0.81642 0.76689 0.0
C541 C 0.42367 0.86056 0.77998 0.0
C542 C 0.4148 0.81673 0.7697 0.0
C543 C 0.40083 0.86022 0.77714 0.0
C544 C 0.43072 0.83884 0.77733 0.0
C545 C 0.3615 0.83842 0.77446 0.0
O546 O 0.26566 0.80851 0.77121 0.0
O547 O 0.29792 0.83029 0.76129 0.0
C548 C 0.27659 0.82843 0.76562 0.0
O549 O 0.31695 0.78513 0.73417 0.0
O550 O 0.24443 0.76646 0.78976 0.0
O551 O 0.25187 0.7381 0.76255 0.0
O552 O 0.28165 0.76206 0.73485 0.0
C553 C 0.29956 0.7679 0.72388 0.0
O554 O 0.33407 0.77289 0.77518 0.0
O555 O 0.30072 0.74887 0.78019 0.0
O556 O 0.29084 0.78948 0.81233 0.0
O557 O 0.34732 0.83125 0.75515 0.0
O558 O 0.35376 0.82983 0.79207 0.0
O559 O 0.30815 0.82398 0.80355 0.0
C560 C 0.21421 0.74082 0.76324 0.0
C561 C 0.21115 0.74982 0.7432 0.0
C562 C 0.17389 0.72484 0.76042 0.0
C563 C 0.18957 0.74644 0.73187 0.0
C564 C 0.19556 0.72818 0.77171 0.0
C565 C 0.17067 0.73406 0.74046 0.0
C566 C 0.23676 0.74511 0.77565 0.0
C567 C 0.32262 0.75187 0.77826 0.0
H568 H 0.37967 0.79929 0.7627 0.0
H569 H 0.43572 0.87777 0.78576 0.0
H570 H 0.41984 0.79976 0.76784 0.0
H571 H 0.39554 0.87715 0.78083 0.0
H572 H 0.22542 0.75979 0.73657 0.0
H573 H 0.15966 0.71524 0.7674 0.0
H574 H 0.18763 0.75426 0.71689 0.0
H575 H 0.19772 0.72116 0.78721 0.0
Eu576 Eu 0.56053 0.0458 0.05667 0.0
Eu577 Eu 0.55133 0.05973 1.00747 0.0
C578 C 0.54974 0.09453 0.0564 0.0
C579 C 0.55646 0.01907 0.1107 0.0
C580 C 0.53348 1.00835 0.10474 0.0
C581 C 0.55616 1.00459 0.14649 0.0
C582 C 0.5217 0.99642 0.12005 0.0
C583 C 0.56791 0.01656 0.13118 0.0
C584 C 0.53283 0.99509 0.14143 0.0
C585 C 0.56822 0.03448 0.09675 0.0
O586 O 0.58893 0.07578 0.01781 0.0
O587 O 0.59556 0.05497 0.04547 0.0
C588 C 0.603 0.06874 0.03127 0.0
O589 O 0.55318 0.01169 0.02763 0.0
O590 O 0.54815 0.08991 0.99281 0.0
O591 O 0.54092 0.05359 0.96966 0.0
O592 O 0.567 0.028 0.99782 0.0
C593 C 0.56222 1.00967 1.00751 0.0
O594 O 0.52199 0.03949 0.05016 0.0
O595 O 0.51889 0.03374 1.00958 0.0
O596 O 0.53728 0.08199 0.03687 0.0
O597 O 0.57393 0.02348 0.07661 0.0
O598 O 0.55972 0.05277 0.09495 0.0
O599 O 0.56579 0.08608 0.06468 0.0
C600 C 0.55897 0.08601 0.95495 0.0
C601 C 0.57888 0.07811 0.95115 0.0
C602 C 0.56946 0.11474 0.93121 0.0
C603 C 0.59376 0.08808 0.93695 0.0
C604 C 0.55445 0.10459 0.94531 0.0
C605 C 0.58909 0.10635 0.92668 0.0
C606 C 0.54411 0.07672 0.97098 0.0
C607 C 0.50959 0.03244 0.02926 0.0
H608 H 0.52448 1.01021 0.08888 0.0
H609 H 0.56512 1.00364 0.16277 0.0
H610 H 0.50365 0.98964 0.11587 0.0
H611 H 0.58573 0.02472 0.13582 0.0
H612 H 0.58285 0.06416 0.95904 0.0
H613 H 0.56555 0.12885 0.92356 0.0
H614 H 0.60849 0.08081 0.93336 0.0
H615 H 0.53938 0.11125 0.94875 0.0
Eu616 Eu 0.32516 0.32176 0.29187 0.0
Eu617 Eu 0.29746 0.26677 0.26603 0.0
C618 C 0.30847 0.30661 0.23634 0.0
C619 C 0.34147 0.3877 0.30378 0.0
C620 C 0.32312 0.38463 0.2869 0.0
C621 C 0.34937 0.43081 0.30795 0.0
C622 C 0.31788 0.40442 0.28054 0.0
C623 C 0.35473 0.41078 0.31421 0.0
C624 C 0.33086 0.42771 0.29109 0.0
C625 C 0.34626 0.36641 0.31003 0.0
O626 O 0.33307 0.26446 0.27511 0.0
O627 O 0.3488 0.3024 0.27203 0.0
C628 C 0.35021 0.28031 0.2714 0.0
O629 O 0.32918 0.30043 0.31902 0.0
O630 O 0.29442 0.23339 0.23887 0.0
O631 O 0.26814 0.23706 0.26215 0.0
O632 O 0.29717 0.2706 0.30542 0.0
C633 C 0.31311 0.28307 0.32247 0.0
O634 O 0.28947 0.31861 0.30009 0.0
O635 O 0.27228 0.28969 0.26693 0.0
O636 O 0.30827 0.28429 0.2368 0.0
O637 O 0.3304 0.35485 0.32002 0.0
O638 O 0.35331 0.35197 0.29297 0.0
O639 O 0.30954 0.32334 0.2561 0.0
C640 C 0.28009 0.20062 0.2542 0.0
C641 C 0.28294 0.20097 0.27847 0.0
C642 C 0.29352 0.16386 0.24437 0.0
C643 C 0.2915 0.1832 0.28566 0.0
C644 C 0.28471 0.18154 0.23716 0.0
C645 C 0.29771 0.16505 0.26874 0.0
C646 C 0.27694 0.22224 0.2471 0.0
C647 C 0.27135 0.30663 0.28575 0.0
H648 H 0.31254 0.36691 0.27897 0.0
H649 H 0.35947 0.44867 0.31642 0.0
H650 H 0.30311 0.40154 0.26805 0.0
H651 H 0.36895 0.4133 0.32729 0.0
H652 H 0.27983 0.21571 0.29204 0.0
H653 H 0.29843 0.15024 0.23094 0.0
H654 H 0.29425 0.18432 0.30453 0.0
H655 H 0.28298 0.18126 0.2184 0.0
Eu656 Eu 0.54488 0.56494 0.03299 0.0
Eu657 Eu 0.55703 0.51543 1.00404 0.0
C658 C 0.59114 0.56699 1.00765 0.0
C659 C 0.5462 0.63019 0.05047 0.0
C660 C 0.56919 0.63815 0.04821 0.0
C661 C 0.53843 0.66447 0.03755 0.0
C662 C 0.57667 0.65891 0.04037 0.0
C663 C 0.53096 0.64373 0.04553 0.0
C664 C 0.56129 0.67195 0.03448 0.0
C665 C 0.53772 0.60633 0.05476 0.0
O666 O 0.5656 0.51572 0.04336 0.0
O667 O 0.56559 0.55472 0.06183 0.0
C668 C 0.57014 0.5338 0.06265 0.0
O669 O 0.51708 0.53678 0.04045 0.0
O670 O 0.57967 0.4908 0.99912 0.0
O671 O 0.54838 0.48192 0.97621 0.0
O672 O 0.52203 0.50348 0.0132 0.0
C673 C 0.51054 0.51402 0.02902 0.0
O674 O 0.52747 0.55899 0.99499 0.0
O675 O 0.54312 0.52952 0.97364 0.0
O676 O 0.58806 0.54348 1.0033 0.0
O677 O 0.52363 0.59105 0.03767 0.0
O678 O 0.55277 0.59654 0.06294 0.0
O679 O 0.576 0.57838 0.01651 0.0
C680 C 0.55809 0.45155 0.99161 0.0
C681 C 0.54314 0.45101 1.00905 0.0
C682 C 0.56052 0.4107 0.99134 0.0
C683 C 0.53655 0.43041 0.01725 0.0
C684 C 0.56686 0.43139 0.98279 0.0
C685 C 0.54515 0.41009 1.00845 0.0
C686 C 0.56498 0.47387 0.98398 0.0
C687 C 0.53036 0.54533 0.9743 0.0
H688 H 0.58133 0.62792 0.05169 0.0
H689 H 0.52614 0.67398 0.03275 0.0
H690 H 0.5944 0.66441 0.03837 0.0
H691 H 0.51315 0.63766 0.04682 0.0
H692 H 0.53687 0.46673 0.01662 0.0
H693 H 0.56749 0.39521 0.98456 0.0
H694 H 0.52516 0.43058 0.03094 0.0
H695 H 0.57871 0.43175 0.9696 0.0
Eu696 Eu 0.81896 0.30407 0.26513 0.0
Eu697 Eu 0.77187 0.26933 0.26914 0.0
C698 C 0.79899 0.30891 0.31564 0.0
C699 C 0.87979 0.33571 0.27401 0.0
C700 C 0.88267 0.32422 0.29226 0.0
C701 C 0.91944 0.35499 0.28015 0.0
C702 C 0.90387 0.32799 0.30434 0.0
C703 C 0.89812 0.35117 0.26801 0.0
C704 C 0.92245 0.34337 0.29838 0.0
C705 C 0.85755 0.33135 0.26138 0.0
O706 O 0.76101 0.3045 0.26463 0.0
O707 O 0.79507 0.32985 0.2642 0.0
C708 C 0.77296 0.32635 0.2644 0.0
O709 O 0.80285 0.28835 0.22761 0.0
O710 O 0.74738 0.24776 0.2864 0.0
O711 O 0.74033 0.24805 0.24926 0.0
O712 O 0.78496 0.25342 0.235 0.0
C713 C 0.79454 0.26517 0.22028 0.0
O714 O 0.83002 0.26907 0.26962 0.0
O715 O 0.79686 0.2461 0.2767 0.0
O716 O 0.77944 0.29556 0.3051 0.0
O717 O 0.84987 0.30953 0.24811 0.0
O718 O 0.84263 0.33902 0.27441 0.0
O719 O 0.81724 0.31009 0.30462 0.0
C720 C 0.70938 0.24169 0.27062 0.0
C721 C 0.70311 0.26387 0.27462 0.0
C722 C 0.67005 0.22068 0.26323 0.0
C723 C 0.68037 0.2644 0.27208 0.0
C724 C 0.69279 0.22018 0.26576 0.0
C725 C 0.66365 0.24274 0.26541 0.0
C726 C 0.7327 0.24048 0.26744 0.0
C727 C 0.81868 0.24869 0.27406 0.0
H728 H 0.86854 0.31215 0.29696 0.0
H729 H 0.93352 0.36696 0.2753 0.0
H730 H 0.9058 0.31837 0.31794 0.0
H731 H 0.89596 0.36014 0.25393 0.0
H732 H 0.71581 0.28063 0.27815 0.0
H733 H 0.65755 0.20375 0.25829 0.0
H734 H 0.67606 0.28169 0.27355 0.0
H735 H 0.69745 0.20292 0.26249 0.0
Eu736 Eu 0.05817 0.54521 0.55627 0.0
Eu737 Eu 0.05257 0.56554 0.50942 0.0
C738 C 0.04978 0.59607 0.56058 0.0
C739 C 0.0437 0.50929 0.60154 0.0
C740 C 0.02088 0.51007 0.60007 0.0
C741 C 0.03566 0.47776 0.62266 0.0
C742 C 1.00574 0.49552 0.61073 0.0
C743 C 0.05087 0.49253 0.61215 0.0
C744 C 0.01311 0.47972 0.62281 0.0
C745 C 0.0601 0.52621 0.59246 0.0
O746 O 0.0902 0.57807 0.52151 0.0
O747 O 0.09416 0.55482 0.54786 0.0
C748 C 0.10294 0.56935 0.53483 0.0
O749 O 0.05046 0.51445 0.52372 0.0
O750 O 0.05574 0.59824 0.49697 0.0
O751 O 0.04023 0.56327 0.47298 0.0
O752 O 0.06742 0.53359 0.49722 0.0
C753 C 0.06152 0.51416 0.50501 0.0
O754 O 0.02024 0.54067 0.54836 0.0
O755 O 0.01852 0.54103 0.50885 0.0
O756 O 0.03845 0.58597 0.5398 0.0
O757 O 0.06681 0.51735 0.57208 0.0
O758 O 0.05581 0.54742 0.59387 0.0
O759 O 0.06412 0.58555 0.56901 0.0
C760 C 0.06129 0.59245 0.45687 0.0
C761 C 0.08382 0.59067 0.458 0.0
C762 C 0.06295 0.59839 0.41718 0.0
C763 C 0.09566 0.59196 0.43843 0.0
C764 C 0.05113 0.5972 0.43685 0.0
C765 C 0.08492 0.59467 0.41752 0.0
C766 C 0.04766 0.58641 0.47519 0.0
C767 C 1.00853 0.53704 0.5275 0.0
H768 H 0.01493 0.52265 0.59159 0.0
H769 H 0.04176 0.46561 0.63161 0.0
H770 H 0.98864 0.49793 0.61083 0.0
H771 H 0.06838 0.49144 0.613 0.0
H772 H 0.09177 0.58687 0.47343 0.0
H773 H 0.05429 0.60016 0.4011 0.0
H774 H 0.11264 0.58911 0.439 0.0
H775 H 0.03367 0.59848 0.43588 0.0
Eu776 Eu 0.77831 0.79735 0.27775 0.0
Eu777 Eu 0.82564 0.78462 0.28203 0.0
C778 C 0.78076 0.74327 0.28326 0.0
C779 C 0.72371 0.81305 0.29235 0.0
C780 C 0.72809 0.80959 0.31511 0.0
C781 C 0.69144 0.82854 0.30462 0.0
C782 C 0.71426 0.81567 0.33263 0.0
C783 C 0.70543 0.82258 0.28713 0.0
C784 C 0.69578 0.82516 0.32752 0.0
C785 C 0.7392 0.80831 0.27472 0.0
O786 O 0.81342 0.77026 0.24289 0.0
O787 O 0.7888 0.79427 0.24085 0.0
C788 C 0.80087 0.77973 0.23045 0.0
O789 O 0.80337 0.83434 0.28559 0.0
O790 O 0.84455 0.75664 0.27835 0.0
O791 O 0.86182 0.79415 0.29245 0.0
O792 O 0.83442 0.82185 0.27269 0.0
C793 C 0.82374 0.83951 0.2788 0.0
O794 O 0.78439 0.79957 0.31713 0.0
O795 O 0.82248 0.80333 0.31944 0.0
O796 O 0.80173 0.75348 0.29251 0.0
O797 O 0.75829 0.82414 0.27883 0.0
O798 O 0.74184 0.78627 0.26893 0.0
O799 O 0.76951 0.75579 0.27274 0.0
C800 C 0.88095 0.76815 0.26899 0.0
C801 C 0.88464 0.78105 0.25145 0.0
C802 C 0.9083 0.74552 0.25443 0.0
C803 C 0.90048 0.77653 0.23575 0.0
C804 C 0.89262 0.75025 0.2703 0.0
C805 C 0.91252 0.75879 0.23717 0.0
C806 C 0.86387 0.77198 0.28496 0.0
C807 C 0.80406 0.80426 0.3297 0.0
H808 H 0.74233 0.8024 0.31938 0.0
H809 H 0.67706 0.83541 0.30009 0.0
H810 H 0.71809 0.81308 0.35017 0.0
H811 H 0.70205 0.82548 0.26962 0.0
H812 H 0.87538 0.79467 0.24999 0.0
H813 H 0.91715 0.73156 0.25572 0.0
H814 H 0.90366 0.78735 0.22291 0.0
H815 H 0.88951 0.73986 0.28351 0.0
Eu816 Eu 0.8118 0.29327 0.74076 0.0
Eu817 Eu 0.7952 0.29755 0.79452 0.0
C818 C 0.76496 0.30765 0.75388 0.0
C819 C 0.81534 0.3053 0.68162 0.0
C820 C 0.80208 0.32184 0.68946 0.0
C821 C 0.81216 0.31258 0.64237 0.0
C822 C 0.79367 0.33352 0.6738 0.0
C823 C 0.8204 0.30071 0.65807 0.0
C824 C 0.79858 0.329 0.65005 0.0
C825 C 0.82281 0.29228 0.69808 0.0
O826 O 0.77585 0.26253 0.77035 0.0
O827 O 0.80276 0.25563 0.74539 0.0
C828 C 0.78452 0.24792 0.75477 0.0
O829 O 0.84197 0.29638 0.76595 0.0
O830 O 0.77077 0.28847 0.81891 0.0
O831 O 0.80403 0.31059 0.8329 0.0
O832 O 0.82249 0.27726 0.79119 0.0
C833 C 0.84142 0.28497 0.78292 0.0
O834 O 0.81197 0.33201 0.75572 0.0
O835 O 0.81977 0.33223 0.79465 0.0
O836 O 0.77164 0.31432 0.77676 0.0
O837 O 0.83549 0.30589 0.71719 0.0
O838 O 0.80683 0.27591 0.70285 0.0
O839 O 0.77559 0.29538 0.73822 0.0
C840 C 0.78735 0.28367 0.85459 0.0
C841 C 0.79289 0.26119 0.8471 0.0
C842 C 0.78799 0.27912 0.89504 0.0
C843 C 0.79595 0.24772 0.86356 0.0
C844 C 0.78485 0.2925 0.87858 0.0
C845 C 0.79369 0.25667 0.88775 0.0
C846 C 0.78513 0.29855 0.83782 0.0
C847 C 0.82054 0.34344 0.77744 0.0
H848 H 0.79805 0.32552 0.70768 0.0
H849 H 0.81658 0.30905 0.62429 0.0
H850 H 0.78307 0.34581 0.68022 0.0
H851 H 0.83062 0.28795 0.65183 0.0
H852 H 0.79512 0.25425 0.82861 0.0
H853 H 0.78593 0.28635 0.91351 0.0
H854 H 0.80061 0.23062 0.8575 0.0
H855 H 0.78069 0.30986 0.88463 0.0
Eu856 Eu 0.81999 0.82016 0.78974 0.0
Eu857 Eu 0.79104 0.7656 0.76389 0.0
C858 C 0.80173 0.80619 0.73503 0.0
C859 C 0.83389 0.88503 0.80061 0.0
C860 C 0.81263 0.88037 0.78778 0.0
C861 C 0.84101 0.92636 0.79734 0.0
C862 C 0.80571 0.89836 0.77947 0.0
C863 C 0.8481 0.90808 0.80547 0.0
C864 C 0.81987 0.92147 0.78399 0.0
C865 C 0.8412 0.86479 0.8067 0.0
O866 O 0.82654 0.76219 0.7717 0.0
O867 O 0.84262 0.80016 0.76881 0.0
C868 C 0.84367 0.77786 0.76769 0.0
O869 O 0.82435 0.79868 0.81667 0.0
O870 O 0.78553 0.73481 0.73331 0.0
O871 O 0.76328 0.73448 0.76102 0.0
O872 O 0.79275 0.76805 0.8033 0.0
C873 C 0.80885 0.7808 0.82014 0.0
O874 O 0.78484 0.81866 0.79892 0.0
O875 O 0.76531 0.78802 0.76789 0.0
O876 O 0.80195 0.78391 0.73512 0.0
O877 O 0.82749 0.8529 0.81859 0.0
O878 O 0.84729 0.85051 0.78873 0.0
O879 O 0.80284 0.82245 0.75505 0.0
C880 C 0.77459 0.69851 0.74454 0.0
C881 C 0.77063 0.69055 0.76531 0.0
C882 C 0.79607 0.66818 0.73231 0.0
C883 C 0.7801 0.67225 0.76997 0.0
C884 C 0.78635 0.68632 0.7275 0.0
C885 C 0.79382 0.6618 0.75408 0.0
C886 C 0.77007 0.72168 0.74245 0.0
C887 C 0.76603 0.80637 0.78597 0.0
H888 H 0.80138 0.86268 0.78402 0.0
H889 H 0.85211 0.94417 0.80117 0.0
H890 H 0.78908 0.89426 0.76982 0.0
H891 H 0.86461 0.9118 0.81523 0.0
H892 H 0.76141 0.69938 0.77869 0.0
H893 H 0.80659 0.66042 0.71975 0.0
H894 H 0.77765 0.66716 0.78662 0.0
H895 H 0.78947 0.69203 0.71125 0.0
Eu896 Eu 0.5693 0.57141 0.53008 0.0
Eu897 Eu 0.54368 0.51609 0.51403 0.0
C898 C 0.57374 0.54127 0.47621 0.0
C899 C 0.58388 0.63831 0.55534 0.0
C900 C 0.56081 0.63779 0.55467 0.0
C901 C 0.59233 0.68159 0.56164 0.0
C902 C 0.55348 0.65887 0.55533 0.0
C903 C 0.59965 0.66036 0.56035 0.0
C904 C 0.56924 0.68067 0.55703 0.0
C905 C 0.59095 0.61625 0.54517 0.0
O906 O 0.57776 0.51522 0.53137 0.0
O907 O 0.59725 0.55143 0.52731 0.0
C908 C 0.59695 0.52982 0.53011 0.0
O909 O 0.55429 0.56454 0.56443 0.0
O910 O 0.53018 0.48393 0.48502 0.0
O911 O 0.52775 0.48225 0.52173 0.0
O912 O 0.53061 0.52733 0.55034 0.0
C913 C 0.53792 0.54704 0.56765 0.0
O914 O 0.53302 0.57416 0.52456 0.0
O915 O 0.51559 0.53459 0.50727 0.0
O916 O 0.56532 0.52159 0.48328 0.0
O917 O 0.59012 0.60067 0.55818 0.0
O918 O 0.58238 0.60623 0.52317 0.0
O919 O 0.57305 0.56253 0.48983 0.0
C920 C 0.5395 0.45095 0.49662 0.0
C921 C 0.55841 0.45364 0.51273 0.0
C922 C 0.54528 0.41228 0.47536 0.0
C923 C 0.57021 0.4356 0.51067 0.0
C924 C 0.53329 0.43046 0.47757 0.0
C925 C 0.56355 0.41442 0.49227 0.0
C926 C 0.52696 0.47003 0.49976 0.0
C927 C 0.51473 0.55731 0.51545 0.0
H928 H 0.54846 0.62077 0.55091 0.0
H929 H 0.60483 0.69829 0.56369 0.0
H930 H 0.53558 0.65736 0.5517 0.0
H931 H 0.61753 0.66095 0.56103 0.0
H932 H 0.56369 0.46936 0.52753 0.0
H933 H 0.53985 0.39628 0.46085 0.0
H934 H 0.58374 0.4378 0.52444 0.0
H935 H 0.51899 0.42834 0.46472 0.0
Eu936 Eu 0.07694 0.54529 0.02345 0.0
Eu937 Eu 0.02903 0.5499 0.04543 0.0
C938 C 0.07033 0.54568 0.07717 0.0
C939 C 0.1309 0.52588 0.01061 0.0
C940 C 0.12823 0.51227 0.0277 0.0
C941 C 0.16424 0.51168 1.00003 0.0
C942 C 0.14376 0.49862 0.03116 0.0
C943 C 0.14874 0.52532 0.99662 0.0
C944 C 0.16206 0.49849 0.01754 0.0
C945 C 0.115 0.54052 1.0071 0.0
O946 O 0.05349 0.58584 0.05685 0.0
O947 O 0.07339 0.58282 0.02443 0.0
C948 C 0.06705 0.59573 0.04331 0.0
O949 O 0.05046 0.53558 0.99287 0.0
O950 O 0.01033 0.56545 0.07349 0.0
O951 O 0.99236 0.53973 0.04154 0.0
O952 O 0.02764 0.55936 0.01016 0.0
C953 C 0.03452 0.54704 0.99121 0.0
O954 O 0.06237 0.50931 0.03047 0.0
O955 O 0.0253 0.51121 0.02654 0.0
O956 O 0.04869 0.53669 0.07133 0.0
O957 O 0.09542 0.52847 0.99597 0.0
O958 O 0.11341 0.55731 0.02565 0.0
O959 O 0.08285 0.55598 0.06315 0.0
C960 C 0.97532 0.57073 0.0591 0.0
C961 C 0.98293 0.59347 0.05454 0.0
C962 C 0.93723 0.57652 0.05817 0.0
C963 C 0.96774 0.60784 0.05213 0.0
C964 C 0.95242 0.5623 0.06075 0.0
C965 C 0.94472 0.59954 0.05405 0.0
C966 C 0.99079 0.55511 0.06119 0.0
C967 C 0.04085 0.49877 0.02615 0.0
H968 H 0.11434 0.51248 0.03853 0.0
H969 H 0.17804 0.51161 0.98909 0.0
H970 H 0.14184 0.4888 0.04492 0.0
H971 H 0.15079 0.53556 0.9832 0.0
H972 H 1.00058 0.6001 0.05286 0.0
H973 H 0.91955 0.56932 0.05913 0.0
H974 H 0.97406 0.62551 0.04907 0.0
H975 H 0.94627 0.54459 0.06384 0.0
H976 H 0.04854 0.27152 0.96713 0.0
H977 H 0.0268 0.19577 0.06435 0.0
H978 H 0.98181 0.2439 0.98459 0.0
H979 H 0.08978 0.21419 0.03491 0.0
H980 H 0.01114 0.221 0.04264 0.0
H981 H 0.06455 0.25787 0.99902 0.0
C982 C 0.0372 0.26251 0.97767 0.0
C983 C 0.01376 0.2582 0.97277 0.0
C984 C 0.02851 0.21981 0.04142 0.0
C985 C 0.03214 0.24256 1.00955 0.0
C986 C 0.03749 0.20548 0.0538 0.0
C987 C 0.0595 0.20237 0.05109 0.0
C988 C 0.04177 0.23116 0.0265 0.0
C989 C 0.07277 0.21591 0.03772 0.0
C990 C 0.04639 0.25479 0.99599 0.0
C991 C 0.99997 0.24709 0.98752 0.0
N992 N 0.06356 0.22938 0.02566 0.0
N993 N 0.00939 0.23925 1.00514 0.0
H994 H 0.15858 0.81712 0.1584 0.0
H995 H 0.22438 0.82059 0.28237 0.0
H996 H 0.13589 0.84368 0.22655 0.0
H997 H 0.24226 0.78905 0.21309 0.0
H998 H 0.1931 0.83178 0.26278 0.0
H999 H 0.19152 0.81028 0.17886 0.0
C1000 C 0.16068 0.82177 0.17769 0.0
C1001 C 0.14446 0.83083 0.19083 0.0
C1002 C 0.20392 0.82239 0.25195 0.0
C1003 C 0.18189 0.82275 0.21433 0.0
C1004 C 0.22166 0.81595 0.2631 0.0
C1005 C 0.23579 0.80379 0.24932 0.0
C1006 C 0.20053 0.81671 0.22697 0.0
C1007 C 0.23167 0.79825 0.22444 0.0
C1008 C 0.17942 0.81776 0.18937 0.0
C1009 C 0.14801 0.83661 0.21577 0.0
N1010 N 0.21442 0.80479 0.21408 0.0
N1011 N 0.16632 0.83227 0.22678 0.0
H1012 H 0.4715 0.85484 0.46806 0.0
H1013 H 0.57323 0.96997 0.49432 0.0
H1014 H 0.54008 0.85347 0.4542 0.0
H1015 H 0.50633 0.97348 0.51285 0.0
H1016 H 0.56212 0.92619 0.4851 0.0
H1017 H 0.48445 0.89723 0.48988 0.0
C1018 C 0.48927 0.86336 0.46982 0.0
C1019 C 0.50466 0.85083 0.45887 0.0
C1020 C 0.54985 0.93645 0.49137 0.0
C1021 C 0.5195 0.89893 0.4837 0.0
C1022 C 0.55619 0.96141 0.4965 0.0
C1023 C 0.5405 0.9751 0.50383 0.0
C1024 C 0.52753 0.92516 0.49314 0.0
C1025 C 0.5188 0.96335 0.50699 0.0
C1026 C 0.49664 0.88749 0.48228 0.0
C1027 C 0.52752 0.86258 0.46189 0.0
N1028 N 0.51278 0.93889 0.5012 0.0
N1029 N 0.53418 0.88603 0.47381 0.0
H1030 H 0.54143 0.27808 0.69392 0.0
H1031 H 0.41298 0.27809 0.69597 0.0
H1032 H 0.50424 0.30371 0.64353 0.0
H1033 H 0.44641 0.2386 0.73554 0.0
H1034 H 0.44477 0.28288 0.67277 0.0
H1035 H 0.50598 0.2597 0.70654 0.0
C1036 C 0.52577 0.27976 0.68548 0.0
C1037 C 0.52566 0.29276 0.66799 0.0
C1038 C 0.445 0.27276 0.68622 0.0
C1039 C 0.48521 0.27172 0.68215 0.0
C1040 C 0.42676 0.26987 0.69937 0.0
C1041 C 0.42728 0.25827 0.71796 0.0
C1042 C 0.46396 0.26433 0.69199 0.0
C1043 C 0.44567 0.24823 0.72176 0.0
C1044 C 0.50555 0.26907 0.6925 0.0
C1045 C 0.50499 0.29398 0.65723 0.0
N1046 N 0.46353 0.25188 0.70915 0.0
N1047 N 0.48553 0.28385 0.66472 0.0
H1048 H 0.98317 0.80414 0.57822 0.0
H1049 H 0.07143 0.9154 0.55782 0.0
H1050 H 0.04592 0.83756 0.62309 0.0
H1051 H 0.02089 0.87002 0.50194 0.0
H1052 H 0.06237 0.88606 0.58163 0.0
H1053 H 0.99654 0.82696 0.54928 0.0
C1054 C 0.99979 0.81608 0.5819 0.0
C1055 C 0.01331 0.81924 0.60326 0.0
C1056 C 0.05349 0.88221 0.564 0.0
C1057 C 0.02858 0.8452 0.57041 0.0
C1058 C 0.05868 0.89893 0.55048 0.0
C1059 C 0.04686 0.89487 0.52805 0.0
C1060 C 0.03613 0.86151 0.55511 0.0
C1061 C 0.0304 0.87349 0.51918 0.0
C1062 C 1.00742 0.82899 0.56535 0.0
C1063 C 0.03478 0.83474 0.60701 0.0
N1064 N 0.02524 0.85762 0.53294 0.0
N1065 N 0.04163 0.84733 0.59086 0.0
H1066 H 0.55936 0.80677 0.81039 0.0
H1067 H 0.4528 0.86499 0.81999 0.0
H1068 H 0.52942 0.82648 0.87548 0.0
H1069 H 0.46 0.81269 0.75668 0.0
H1070 H 0.48791 0.86066 0.83872 0.0
H1071 H 0.52897 0.81785 0.78879 0.0
C1072 C 0.54639 0.81346 0.82005 0.0
C1073 C 0.5464 0.81525 0.84452 0.0
C1074 C 0.48197 0.85045 0.82059 0.0
C1075 C 0.51249 0.82839 0.82041 0.0
C1076 C 0.46212 0.85308 0.8098 0.0
C1077 C 0.45365 0.8392 0.78676 0.0
C1078 C 0.49341 0.83394 0.80818 0.0
C1079 C 0.46607 0.82362 0.77452 0.0
C1080 C 0.52919 0.81972 0.80781 0.0
C1081 C 0.52953 0.82417 0.85648 0.0
N1082 N 0.48542 0.82129 0.78547 0.0
N1083 N 0.5132 0.83049 0.84428 0.0
H1084 H 0.54567 0.2328 0.14837 0.0
H1085 H 0.51289 0.11078 0.04655 0.0
H1086 H 0.48071 0.20435 0.1067 0.0
H1087 H 0.57266 0.12791 0.09646 0.0
H1088 H 0.5023 0.14663 0.06801 0.0
H1089 H 0.55716 0.19577 0.12953 0.0
C1090 C 0.53382 0.21879 0.13539 0.0
C1091 C 0.51227 0.22178 0.12899 0.0
C1092 C 0.51771 0.14262 0.07442 0.0
C1093 C 0.52525 0.17968 0.10749 0.0
C1094 C 0.52385 0.12215 0.06208 0.0
C1095 C 0.54373 0.11642 0.06975 0.0
C1096 C 0.53157 0.15768 0.09457 0.0
C1097 C 0.55718 0.13177 0.09004 0.0
C1098 C 0.54037 0.1977 0.12472 0.0
C1099 C 0.49752 0.20298 0.11218 0.0
N1100 N 0.55088 0.1519 0.10179 0.0
N1101 N 0.50435 0.18285 0.10196 0.0
H1102 H 0.17208 0.33448 0.38019 0.0
H1103 H 0.23011 0.27677 0.2683 0.0
H1104 H 0.13952 0.27065 0.32567 0.0
H1105 H 0.26276 0.34139 0.32184 0.0
H1106 H 0.19548 0.27644 0.28724 0.0
H1107 H 0.20496 0.33864 0.35804 0.0
C1108 C 0.17192 0.32128 0.36365 0.0
C1109 C 0.15313 0.30215 0.35475 0.0
C1110 C 0.21014 0.29087 0.29466 0.0
C1111 C 0.19037 0.30696 0.32927 0.0
C1112 C 0.22986 0.29119 0.28372 0.0
C1113 C 0.24936 0.30902 0.29367 0.0
C1114 C 0.21003 0.30845 0.31566 0.0
C1115 C 0.24813 0.32717 0.31374 0.0
C1116 C 0.19059 0.32375 0.35094 0.0
C1117 C 0.15368 0.28564 0.33319 0.0
N1118 N 0.22883 0.32628 0.32427 0.0
N1119 N 0.17203 0.28843 0.32117 0.0
H1120 H 0.97963 0.01671 0.19565 0.0
H1121 H 0.02576 0.08686 0.09648 0.0
H1122 H 0.96505 0.08522 0.19396 0.0
H1123 H 0.02377 0.01175 0.09088 0.0
H1124 H 1.00604 0.0882 0.13264 0.0
H1125 H 0.99701 0.01593 0.15857 0.0
C1126 C 0.97978 0.0316 0.18743 0.0
C1127 C 0.97027 0.05089 0.1984 0.0
C1128 C 0.00977 0.07135 0.12347 0.0
C1129 C 0.99145 0.05043 0.155 0.0
C1130 C 0.02127 0.07057 0.10271 0.0
C1131 C 0.02663 0.04907 0.08998 0.0
C1132 C 1.0035 0.05054 0.13226 0.0
C1133 C 0.02006 0.02876 0.09952 0.0
C1134 C 0.98992 0.03114 0.16603 0.0
C1135 C 0.97158 0.06964 0.18639 0.0
N1136 N 0.00913 0.03006 0.11976 0.0
N1137 N 0.98204 0.06903 0.16574 0.0
H1138 H 0.2933 0.64607 0.47862 0.0
H1139 H 0.31734 0.76743 0.43364 0.0
H1140 H 0.34991 0.70627 0.50698 0.0
H1141 H 0.2708 0.70205 0.39428 0.0
H1142 H 0.32681 0.74633 0.46313 0.0
H1143 H 0.28179 0.66763 0.45018 0.0
C1144 C 0.30312 0.66392 0.47908 0.0
C1145 C 0.32261 0.67439 0.49514 0.0
C1146 C 0.31453 0.73656 0.44805 0.0
C1147 C 0.30966 0.69896 0.46269 0.0
C1148 C 0.30905 0.74863 0.43129 0.0
C1149 C 0.29318 0.73647 0.41161 0.0
C1150 C 0.30398 0.71217 0.4452 0.0
C1151 C 0.28322 0.712 0.40917 0.0
C1152 C 0.29665 0.67611 0.46273 0.0
C1153 C 0.33484 0.69746 0.49482 0.0
N1154 N 0.28872 0.70064 0.42587 0.0
N1155 N 0.32817 0.70895 0.47884 0.0
H1156 H 0.63401 0.08156 0.69939 0.0
H1157 H 0.60487 0.01689 0.56169 0.0
H1158 H 0.65376 0.01569 0.66727 0.0
H1159 H 0.57269 0.07164 0.59862 0.0
H1160 H 0.62437 0.01709 0.59956 0.0
H1161 H 0.61348 0.07955 0.6617 0.0
C1162 C 0.63416 0.06671 0.68434 0.0
C1163 C 0.64562 0.04873 0.68644 0.0
C1164 C 0.61293 0.02893 0.59937 0.0
C1165 C 0.62199 0.04632 0.64324 0.0
C1166 C 0.60185 0.0289 0.57779 0.0
C1167 C 0.58731 0.04445 0.57706 0.0
C1168 C 0.60956 0.04476 0.62027 0.0
C1169 C 0.58379 0.05941 0.59842 0.0
C1170 C 0.62228 0.06552 0.66286 0.0
C1171 C 0.64515 0.02992 0.66637 0.0
N1172 N 0.59501 0.05932 0.6192 0.0
N1173 N 0.6335 0.02921 0.6455 0.0
H1174 H 0.34938 0.32599 0.97746 0.0
H1175 H 0.27133 0.3176 0.85882 0.0
H1176 H 0.29172 0.35806 0.97885 0.0
H1177 H 0.33805 0.30374 0.86036 0.0
H1178 H 0.27532 0.32772 0.90262 0.0
H1179 H 0.34176 0.31211 0.93437 0.0
C1180 C 0.3349 0.32986 0.9688 0.0
C1181 C 0.32126 0.34337 0.98196 0.0
C1182 C 0.28901 0.3224 0.89328 0.0
C1183 C 0.31252 0.32758 0.93223 0.0
C1184 C 0.28674 0.31659 0.86832 0.0
C1185 C 0.30441 0.30992 0.85588 0.0
C1186 C 0.30895 0.32115 0.90578 0.0
C1187 C 0.32402 0.30896 0.86911 0.0
C1188 C 0.33064 0.32203 0.94408 0.0
C1189 C 0.30274 0.34776 0.96951 0.0
N1190 N 0.32571 0.31445 0.89325 0.0
N1191 N 0.29898 0.34 0.94532 0.0
H1192 H 0.9436 0.08032 0.36223 0.0
H1193 H 0.03516 0.02437 0.42555 0.0
H1194 H 0.98554 0.03779 0.32361 0.0
H1195 H 0.99881 0.0726 0.46589 0.0
H1196 H 0.01611 0.02806 0.3886 0.0
H1197 H 0.96191 0.07667 0.39991 0.0
C1198 C 0.9565 0.07006 0.36149 0.0
C1199 C 0.96272 0.05932 0.33915 0.0
C1200 C 0.01224 0.03792 0.40547 0.0
C1201 C 0.98422 0.05505 0.38309 0.0
C1202 C 0.02324 0.03583 0.42683 0.0
C1203 C 0.01896 0.04821 0.44946 0.0
C1204 C 0.9964 0.05248 0.40609 0.0
C1205 C 1.00299 0.06264 0.44923 0.0
C1206 C 0.96709 0.06805 0.38321 0.0
C1207 C 0.97986 0.04643 0.34 0.0
N1208 N 0.99245 0.06431 0.4282 0.0
N1209 N 0.98978 0.04469 0.36122 0.0
H1210 H 0.30395 0.64845 0.60398 0.0
H1211 H 0.32972 0.77978 0.69334 0.0
H1212 H 0.36309 0.70493 0.60678 0.0
H1213 H 0.27609 0.72166 0.7009 0.0
H1214 H 0.33929 0.75308 0.65873 0.0
H1215 H 0.29151 0.67498 0.63738 0.0
C1216 C 0.31444 0.6663 0.61169 0.0
C1217 C 0.3347 0.67435 0.60249 0.0
C1218 C 0.32528 0.74613 0.66775 0.0
C1219 C 0.32027 0.70494 0.64046 0.0
C1220 C 0.31965 0.76147 0.68749 0.0
C1221 C 0.30203 0.75301 0.70016 0.0
C1222 C 0.31327 0.72197 0.66039 0.0
C1223 C 0.28967 0.72904 0.6916 0.0
C1224 C 0.30724 0.68146 0.6307 0.0
C1225 C 0.34743 0.69777 0.6132 0.0
N1226 N 0.29563 0.71427 0.67232 0.0
N1227 N 0.33997 0.71217 0.63146 0.0
H1228 H 0.67028 0.06023 0.83393 0.0
H1229 H 0.57482 0.11308 0.88393 0.0
H1230 H 0.62635 0.08532 0.78936 0.0
H1231 H 0.63507 0.11599 0.92819 0.0
H1232 H 0.59611 0.11101 0.84975 0.0
H1233 H 0.66063 0.08617 0.86872 0.0
C1234 C 0.65897 0.07162 0.83139 0.0
C1235 C 0.64914 0.07066 0.80873 0.0
C1236 C 0.6049 0.11294 0.86707 0.0
C1237 C 0.63741 0.09996 0.84867 0.0
C1238 C 0.59275 0.11427 0.88667 0.0
C1239 C 0.60308 0.11383 0.9087 0.0
C1240 C 0.62724 0.11065 0.86961 0.0
C1241 C 0.62634 0.11541 0.91123 0.0
C1242 C 0.65347 0.08652 0.85134 0.0
C1243 C 0.63407 0.08532 0.80661 0.0
N1244 N 0.63756 0.11299 0.89169 0.0
N1245 N 0.62831 0.09912 0.82645 0.0
H1246 H 0.2954 0.36943 0.11569 0.0
H1247 H 0.3168 0.27946 0.19452 0.0
H1248 H 0.33662 0.31779 0.0968 0.0
H1249 H 0.29991 0.34739 0.22485 0.0
H1250 H 0.31738 0.28928 0.15601 0.0
H1251 H 0.28984 0.35707 0.15294 0.0
C1252 C 0.30283 0.35508 0.11907 0.0
C1253 C 0.31646 0.34453 0.10304 0.0
C1254 C 0.31347 0.30202 0.17105 0.0
C1255 C 0.31029 0.33058 0.14565 0.0
C1256 C 0.31307 0.29643 0.19308 0.0
C1257 C 0.30833 0.31267 0.21299 0.0
C1258 C 0.30886 0.3239 0.16871 0.0
C1259 C 0.30374 0.33441 0.20997 0.0
C1260 C 0.29985 0.34829 0.14046 0.0
C1261 C 0.32597 0.32636 0.1086 0.0
N1262 N 0.30407 0.3394 0.18817 0.0
N1263 N 0.32273 0.31999 0.12944 0.0
H1264 H 0.24132 0.03638 0.04813 0.0
H1265 H 0.10787 0.98638 0.01119 0.0
H1266 H 0.21347 0.9653 1.00291 0.0
H1267 H 0.13957 0.06017 0.04687 0.0
H1268 H 0.14529 0.97708 1.00943 0.0
H1269 H 0.20371 0.0441 0.04885 0.0
C1270 C 0.2273 0.02231 0.03822 0.0
C1271 C 0.23086 1.0001 0.0254 0.0
C1272 C 0.14404 0.99528 0.01771 0.0
C1273 C 0.18694 1.00893 0.02639 0.0
C1274 C 0.12261 1.00061 0.01888 0.0
C1275 C 0.1203 0.02414 0.02937 0.0
C1276 C 0.16352 0.01353 0.02719 0.0
C1277 C 0.14024 0.04175 0.03874 0.0
C1278 C 0.20567 0.0268 0.03867 0.0
C1279 C 0.21173 0.98275 0.01294 0.0
N1280 N 0.1608 0.03609 0.03744 0.0
N1281 N 0.19065 0.98747 0.01385 0.0
H1282 H 0.7115 0.6786 0.01276 0.0
H1283 H 0.62433 0.55004 0.98415 0.0
H1284 H 0.72471 0.61239 0.97158 0.0
H1285 H 0.60762 0.6162 0.02072 0.0
H1286 H 0.66087 0.57319 0.97865 0.0
H1287 H 0.67307 0.65674 0.01516 0.0
C1288 C 0.70628 0.65955 1.00405 0.0
C1289 C 0.72139 0.64731 0.992 0.0
C1290 C 0.64921 0.58271 0.9878 0.0
C1291 C 0.67756 0.6222 0.99478 0.0
C1292 C 0.62829 0.56946 0.99098 0.0
C1293 C 0.61285 0.58114 1.00302 0.0
C1294 C 0.65492 0.60788 0.99687 0.0
C1295 C 0.61897 0.60641 0.01134 0.0
C1296 C 0.68437 0.64707 1.00547 0.0
C1297 C 0.71372 0.62259 0.98114 0.0
N1298 N 0.63959 0.61892 1.00824 0.0
N1299 N 0.69244 0.61088 0.98287 0.0
H1300 H 0.7284 0.45939 0.2432 0.0
H1301 H 0.73374 0.33597 0.28422 0.0
H1302 H 0.70339 0.44596 0.3078 0.0
H1303 H 0.78607 0.36786 0.24693 0.0
H1304 H 0.71752 0.37181 0.28734 0.0
H1305 H 0.74428 0.42293 0.23844 0.0
C1306 C 0.72578 0.44875 0.25623 0.0
C1307 C 0.71401 0.45637 0.27592 0.0
C1308 C 0.73246 0.371 0.27826 0.0
C1309 C 0.73245 0.41331 0.2703 0.0
C1310 C 0.74179 0.35021 0.27633 0.0
C1311 C 0.76157 0.34808 0.26512 0.0
C1312 C 0.74223 0.39027 0.26833 0.0
C1313 C 0.77092 0.36803 0.25572 0.0
C1314 C 0.73513 0.42779 0.25358 0.0
C1315 C 0.71201 0.44132 0.29219 0.0
N1316 N 0.76121 0.38769 0.25728 0.0
N1317 N 0.72069 0.4209 0.28892 0.0
H1318 H 0.86371 0.51834 0.48863 0.0
H1319 H 0.98136 0.5182 0.5581 0.0
H1320 H 0.86977 0.47919 0.54237 0.0
H1321 H 0.97809 0.53905 0.49156 0.0
H1322 H 0.94015 0.50719 0.55432 0.0
H1323 H 0.90527 0.52961 0.49102 0.0
C1324 C 0.8737 0.51214 0.50089 0.0
C1325 C 0.86312 0.49766 0.51519 0.0
C1326 C 0.94842 0.51412 0.54049 0.0
C1327 C 0.91059 0.51064 0.51821 0.0
C1328 C 0.97202 0.52046 0.54267 0.0
C1329 C 0.98337 0.52951 0.52511 0.0
C1330 C 0.93584 0.51715 0.52076 0.0
C1331 C 0.97016 0.53199 0.50549 0.0
C1332 C 0.8974 0.51849 0.5022 0.0
C1333 C 0.87701 0.49014 0.53076 0.0
N1334 N 0.94718 0.526 0.50392 0.0
N1335 N 0.89983 0.49676 0.53191 0.0
H1336 H 0.39683 0.10859 0.33602 0.0
H1337 H 0.29409 0.1169 0.24956 0.0
H1338 H 0.3732 0.05916 0.26728 0.0
H1339 H 0.33144 0.17727 0.30524 0.0
H1340 H 0.31874 0.09219 0.26029 0.0
H1341 H 0.3684 0.131 0.32924 0.0
C1342 C 0.38563 0.10244 0.3196 0.0
C1343 C 0.38749 0.08223 0.30207 0.0
C1344 C 0.32134 0.1108 0.27028 0.0
C1345 C 0.35505 0.10738 0.29439 0.0
C1346 C 0.30735 0.12487 0.26414 0.0
C1347 C 0.31074 0.14911 0.27652 0.0
C1348 C 0.33874 0.12107 0.28894 0.0
C1349 C 0.32799 0.15853 0.29547 0.0
C1350 C 0.36949 0.11519 0.31574 0.0
C1351 C 0.37255 0.07488 0.28112 0.0
N1352 N 0.34145 0.14447 0.30105 0.0
N1353 N 0.35695 0.08749 0.27786 0.0
H1354 H 0.36595 0.19769 0.50993 0.0
H1355 H 0.40746 0.0913 0.5513 0.0
H1356 H 0.32385 0.14442 0.53887 0.0
H1357 H 0.44973 0.14207 0.5197 0.0
H1358 H 0.37762 0.11278 0.54963 0.0
H1359 H 0.39792 0.1801 0.51661 0.0
C1360 C 0.3635 0.18253 0.51803 0.0
C1361 C 0.34219 0.17239 0.52376 0.0
C1362 C 0.39343 0.11932 0.54313 0.0
C1363 C 0.37857 0.15207 0.53116 0.0
C1364 C 0.41054 0.10713 0.5442 0.0
C1365 C 0.43116 0.11501 0.53576 0.0
C1366 C 0.39687 0.13952 0.53345 0.0
C1367 C 0.43401 0.1353 0.52623 0.0
C1368 C 0.38174 0.17242 0.5217 0.0
C1369 C 0.33996 0.15272 0.53409 0.0
N1370 N 0.41701 0.14688 0.52531 0.0
N1371 N 0.3579 0.1431 0.53731 0.0
H1372 H 0.69368 0.59532 0.26479 0.0
H1373 H 0.79828 0.71309 0.30634 0.0
H1374 H 0.74879 0.60073 0.31685 0.0
H1375 H 0.7384 0.71313 0.26355 0.0
H1376 H 0.78139 0.67168 0.30847 0.0
H1377 H 0.71029 0.6368 0.26218 0.0
C1378 C 0.70936 0.60497 0.27559 0.0
C1379 C 0.71964 0.59375 0.29103 0.0
C1380 C 0.77183 0.68064 0.2986 0.0
C1381 C 0.7392 0.64244 0.28802 0.0
C1382 C 0.78155 0.70456 0.29733 0.0
C1383 C 0.77 0.71734 0.28475 0.0
C1384 C 0.75014 0.66854 0.28704 0.0
C1385 C 0.74824 0.70455 0.27355 0.0
C1386 C 0.71886 0.62895 0.27413 0.0
C1387 C 0.73997 0.60802 0.30459 0.0
N1388 N 0.73922 0.68121 0.27489 0.0
N1389 N 0.74892 0.63114 0.3027 0.0
H1390 H 0.91955 0.47554 0.83296 0.0
H1391 H 0.82104 0.37426 0.74839 0.0
H1392 H 0.88706 0.486 0.76957 0.0
H1393 H 0.85087 0.36879 0.81559 0.0
H1394 H 0.84636 0.41396 0.75386 0.0
H1395 H 0.89713 0.43419 0.8238 0.0
C1396 C 0.90776 0.46891 0.81696 0.0
C1397 C 0.90488 0.48399 0.80207 0.0
C1398 C 0.84731 0.40406 0.76739 0.0
C1399 C 0.87869 0.43714 0.79182 0.0
C1400 C 0.83282 0.3815 0.76437 0.0
C1401 C 0.83386 0.3683 0.78163 0.0
C1402 C 0.86302 0.41331 0.78772 0.0
C1403 C 0.84937 0.37844 0.80195 0.0
C1404 C 0.89489 0.44541 0.81178 0.0
C1405 C 0.88966 0.47472 0.78141 0.0
N1406 N 0.86341 0.40031 0.80436 0.0
N1407 N 0.87681 0.45185 0.77701 0.0
H1408 H 0.1092 0.86906 0.09704 0.0
H1409 H 0.05716 0.86972 0.97157 0.0
H1410 H 0.06456 0.80896 0.0471 0.0
H1411 H 0.09677 0.93269 0.02232 0.0
H1412 H 0.07304 0.8442 0.99246 0.0
H1413 H 0.11728 0.88888 0.06455 0.0
C1414 C 0.10157 0.85982 0.07912 0.0
C1415 C 0.08555 0.8379 0.0747 0.0
C1416 C 0.07885 0.86361 0.99866 0.0
C1417 C 0.0947 0.8601 0.03778 0.0
C1418 C 0.06985 0.87809 0.98663 0.0
C1419 C 0.07545 0.90313 0.99555 0.0
C1420 C 0.09281 0.87435 0.02017 0.0
C1421 C 0.09197 0.91332 0.01506 0.0
C1422 C 0.1062 0.87106 0.06061 0.0
C1423 C 0.07639 0.82634 0.05126 0.0
N1424 N 0.0996 0.89884 0.02724 0.0
N1425 N 0.0808 0.83779 0.03372 0.0
H1426 H 0.93765 0.26184 0.88278 0.0
H1427 H 0.88445 0.30544 0.77649 0.0
H1428 H 0.97742 0.30518 0.84215 0.0
H1429 H 0.8461 0.26035 0.81662 0.0
H1430 H 0.91894 0.30533 0.79981 0.0
H1431 H 0.90382 0.26188 0.85882 0.0
C1432 C 0.93926 0.27152 0.86892 0.0
C1433 C 0.96033 0.28352 0.86441 0.0
C1434 C 0.90297 0.29535 0.80336 0.0
C1435 C 0.92174 0.2833 0.83666 0.0
C1436 C 0.88332 0.29528 0.78999 0.0
C1437 C 0.86245 0.28292 0.79472 0.0
C1438 C 0.90158 0.28297 0.82147 0.0
C1439 C 0.86186 0.27019 0.81246 0.0
C1440 C 0.91993 0.27141 0.85513 0.0
C1441 C 0.96145 0.29562 0.84611 0.0
N1442 N 0.88118 0.27063 0.82528 0.0
N1443 N 0.94234 0.29515 0.8328 0.0
H1444 H 0.53352 0.21448 0.61044 0.0
H1445 H 0.60348 0.13955 0.52576 0.0
H1446 H 0.60147 0.24668 0.60025 0.0
H1447 H 0.54789 0.10793 0.55953 0.0
H1448 H 0.60473 0.17915 0.55304 0.0
H1449 H 0.53955 0.1749 0.59202 0.0
C1450 C 0.54984 0.21307 0.60459 0.0
C1451 C 0.56699 0.23366 0.6067 0.0
C1452 C 0.59251 0.16338 0.55461 0.0
C1453 C 0.57397 0.18863 0.58519 0.0
C1454 C 0.59174 0.141 0.53906 0.0
C1455 C 0.57503 0.12094 0.54009 0.0
C1456 C 0.57651 0.1652 0.57108 0.0
C1457 C 0.56041 0.12326 0.5577 0.0
C1458 C 0.55334 0.19052 0.59412 0.0
C1459 C 0.58789 0.23104 0.59894 0.0
N1460 N 0.56134 0.14504 0.57237 0.0
N1461 N 0.59072 0.20883 0.58804 0.0
H1462 H 0.59227 0.79957 0.41552 0.0
H1463 H 0.67604 0.86371 0.33781 0.0
H1464 H 0.58123 0.85908 0.38755 0.0
H1465 H 0.68036 0.79813 0.35825 0.0
H1466 H 0.64666 0.86874 0.36424 0.0
H1467 H 0.63028 0.80611 0.40389 0.0
C1468 C 0.598 0.8143 0.40728 0.0
C1469 C 0.58346 0.82842 0.40189 0.0
C1470 C 0.65435 0.8535 0.36322 0.0
C1471 C 0.62676 0.8358 0.3883 0.0
C1472 C 0.67095 0.85052 0.34804 0.0
C1473 C 0.68033 0.83028 0.3456 0.0
C1474 C 0.64715 0.83606 0.37591 0.0
C1475 C 0.67361 0.81403 0.35964 0.0
C1476 C 0.6197 0.81802 0.40064 0.0
C1477 C 0.59184 0.84755 0.39166 0.0
N1478 N 0.6572 0.81713 0.37398 0.0
N1479 N 0.61289 0.8504 0.38471 0.0
H1480 H 0.0752 0.29845 0.48379 0.0
H1481 H 0.0588 0.16553 0.47562 0.0
H1482 H 0.10811 0.25525 0.43256 0.0
H1483 H 0.07338 0.21325 0.54636 0.0
H1484 H 0.07511 0.19902 0.45934 0.0
H1485 H 0.07406 0.26936 0.50831 0.0
C1486 C 0.08286 0.28325 0.47817 0.0
C1487 C 0.09152 0.2789 0.45614 0.0
C1488 C 0.07506 0.20202 0.47846 0.0
C1489 C 0.08969 0.24567 0.48344 0.0
C1490 C 0.06574 0.18292 0.48786 0.0
C1491 C 0.06496 0.1864 0.51254 0.0
C1492 C 0.08295 0.225 0.49368 0.0
C1493 C 0.07335 0.20973 0.52723 0.0
C1494 C 0.08224 0.26676 0.49212 0.0
C1495 C 0.10128 0.25909 0.44948 0.0
N1496 N 0.08174 0.22833 0.51751 0.0
N1497 N 0.09948 0.24269 0.46278 0.0
H1498 H 0.56413 0.30988 0.2259 0.0
H1499 H 0.63713 0.21329 0.22591 0.0
H1500 H 0.58197 0.26456 0.16365 0.0
H1501 H 0.63758 0.27361 0.28509 0.0
H1502 H 0.60362 0.22053 0.20676 0.0
H1503 H 0.57716 0.28514 0.25029 0.0
C1504 C 0.5697 0.29394 0.21726 0.0
C1505 C 0.57205 0.28906 0.19288 0.0
C1506 C 0.61068 0.23176 0.22424 0.0
C1507 C 0.58735 0.26127 0.22041 0.0
C1508 C 0.62976 0.22757 0.2353 0.0
C1509 C 0.64043 0.24319 0.25696 0.0
C1510 C 0.60233 0.25181 0.23482 0.0
C1511 C 0.63018 0.26151 0.26812 0.0
C1512 C 0.57733 0.28 0.23115 0.0
C1513 C 0.57984 0.26868 0.18244 0.0
N1514 N 0.61192 0.26563 0.25669 0.0
N1515 N 0.58757 0.25569 0.19633 0.0
H1516 H 0.59883 0.89053 0.91103 0.0
H1517 H 0.55616 0.96897 0.02381 0.0
H1518 H 0.56332 0.86179 0.96408 0.0
H1519 H 0.58076 0.99805 0.96563 0.0
H1520 H 0.56498 0.93089 1.00511 0.0
H1521 H 0.59921 0.9316 0.93419 0.0
C1522 C 0.59166 0.89298 0.92784 0.0
C1523 C 0.58083 0.87301 0.9357 0.0
C1524 C 0.56852 0.94559 0.99641 0.0
C1525 C 0.58103 0.91928 0.96189 0.0
C1526 C 0.56339 0.96733 1.00705 0.0
C1527 C 0.56747 0.98659 0.9961 0.0
C1528 C 0.57773 0.94299 0.97459 0.0
C1529 C 0.57714 0.98352 0.97454 0.0
C1530 C 0.59169 0.91627 0.94089 0.0
C1531 C 0.57159 0.87685 0.95739 0.0
N1532 N 0.58183 0.962 0.96436 0.0
N1533 N 0.57176 0.89954 0.96965 0.0
H1534 H 0.9399 0.76828 0.66988 0.0
H1535 H 0.87655 0.75843 0.78453 0.0
H1536 H 0.97589 0.77489 0.73813 0.0
H1537 H 0.85178 0.77951 0.72341 0.0
H1538 H 0.9102 0.75157 0.76464 0.0
H1539 H 0.90468 0.75818 0.68613 0.0
C1540 C 0.94052 0.76713 0.68817 0.0
C1541 C 0.96098 0.77286 0.70275 0.0
C1542 C 0.89711 0.75721 0.75551 0.0
C1543 C 0.92036 0.76173 0.72168 0.0
C1544 C 0.87801 0.76097 0.76672 0.0
C1545 C 0.86169 0.76945 0.7554 0.0
C1546 C 0.89936 0.76175 0.7329 0.0
C1547 C 0.86416 0.7729 0.73257 0.0
C1548 C 0.92027 0.76143 0.69749 0.0
C1549 C 0.96046 0.77091 0.72637 0.0
N1550 N 0.88273 0.76914 0.7221 0.0
N1551 N 0.94036 0.76592 0.73532 0.0
H1552 H 0.1553 1.00412 0.85493 0.0
H1553 H 0.08637 0.07729 0.94951 0.0
H1554 H 0.12359 0.0582 0.83791 0.0
H1555 H 0.08884 1.00386 0.94759 0.0
H1556 H 0.10483 0.07415 0.9125 0.0
H1557 H 0.13671 1.00721 0.89192 0.0
C1558 C 0.14472 0.01693 0.85897 0.0
C1559 C 0.1414 0.031 0.84277 0.0
C1560 C 0.10135 0.05867 0.9201 0.0
C1561 C 0.11979 0.03488 0.88621 0.0
C1562 C 0.09073 0.06045 0.94145 0.0
C1563 C 0.08556 0.04078 0.95213 0.0
C1564 C 0.10781 0.03725 0.90915 0.0
C1565 C 0.09204 0.01956 0.9403 0.0
C1566 C 0.13389 0.01855 0.88022 0.0
C1567 C 0.127 0.04696 0.84948 0.0
N1568 N 0.10286 0.0185 0.91994 0.0
N1569 N 0.1171 0.04859 0.87044 0.0
H1570 H 0.78012 0.37534 0.52453 0.0
H1571 H 0.79476 0.37605 0.65932 0.0
H1572 H 0.77452 0.43596 0.58036 0.0
H1573 H 0.78238 0.31067 0.60299 0.0
H1574 H 0.7827 0.39712 0.631 0.0
H1575 H 0.77495 0.3497 0.55248 0.0
C1576 C 0.7768 0.38293 0.5425 0.0
C1577 C 0.77758 0.4076 0.55027 0.0
C1578 C 0.78227 0.37807 0.62491 0.0
C1579 C 0.77291 0.37892 0.5826 0.0
C1580 C 0.78916 0.36601 0.64108 0.0
C1581 C 0.78985 0.3416 0.63345 0.0
C1582 C 0.77628 0.36573 0.60089 0.0
C1583 C 0.78266 0.32963 0.60953 0.0
C1584 C 0.7741 0.36841 0.55853 0.0
C1585 C 0.77372 0.41688 0.57375 0.0
N1586 N 0.77645 0.34189 0.59404 0.0
N1587 N 0.77212 0.40263 0.58935 0.0
H1588 H 0.45284 0.99367 0.33557 0.0
H1589 H 0.56039 0.06115 0.42999 0.0
H1590 H 0.50473 0.0512 0.3243 0.0
H1591 H 0.49859 0.02072 0.44763 0.0
H1592 H 0.54356 0.05211 0.38876 0.0
H1593 H 0.47334 0.99703 0.37422 0.0
C1594 C 0.46902 1.00633 0.34091 0.0
C1595 C 0.47755 0.02179 0.32675 0.0
C1596 C 0.53375 0.04522 0.4017 0.0
C1597 C 0.50059 0.0263 0.37083 0.0
C1598 C 0.5433 0.05041 0.42522 0.0
C1599 C 0.53082 0.04179 0.44229 0.0
C1600 C 0.51168 0.03115 0.39523 0.0
C1601 C 0.50879 0.02786 0.4351 0.0
C1602 C 0.48052 1.00852 0.36304 0.0
C1603 C 0.49801 0.03867 0.33469 0.0
N1604 N 0.49992 0.02296 0.41209 0.0
N1605 N 0.50888 0.04054 0.3563 0.0
H1606 H 0.78183 0.7092 0.0803 0.0
H1607 H 0.7954 0.80894 0.201 0.0
H1608 H 0.82132 0.781 0.08551 0.0
H1609 H 0.80518 0.73786 0.20034 0.0
H1610 H 0.79498 0.7994 0.15741 0.0
H1611 H 0.77965 0.72004 0.12336 0.0
C1612 C 0.78955 0.72744 0.09038 0.0
C1613 C 0.80167 0.7443 0.07927 0.0
C1614 C 0.79716 0.78595 0.16689 0.0
C1615 C 0.79911 0.7567 0.12842 0.0
C1616 C 0.79733 0.7913 0.19166 0.0
C1617 C 0.80042 0.77416 0.20424 0.0
C1618 C 0.79935 0.76306 0.15462 0.0
C1619 C 0.80292 0.75161 0.19131 0.0
C1620 C 0.7885 0.73346 0.11495 0.0
C1621 C 0.81175 0.76751 0.09336 0.0
N1622 N 0.80208 0.7466 0.16715 0.0
N1623 N 0.81014 0.7731 0.11723 0.0
H1624 H 0.11245 0.97325 0.67816 0.0
H1625 H 0.08776 0.0684 0.60423 0.0
H1626 H 0.14258 0.04919 0.70325 0.0
H1627 H 0.07629 0.99203 0.57307 0.0
H1628 H 0.10531 0.06249 0.64109 0.0
H1629 H 0.09729 0.98037 0.64114 0.0
C1630 C 0.11613 0.99152 0.67595 0.0
C1631 C 0.12926 1.0105 0.69434 0.0
C1632 C 0.09902 0.04699 0.62622 0.0
C1633 C 0.11092 0.01904 0.651 0.0
C1634 C 0.08882 0.05032 0.60498 0.0
C1635 C 0.0803 0.03075 0.58494 0.0
C1636 C 0.10063 0.02375 0.62812 0.0
C1637 C 0.08248 1.00785 0.58762 0.0
C1638 C 0.10731 0.99557 0.65456 0.0
C1639 C 0.13297 0.03375 0.68982 0.0
N1640 N 0.09213 1.00506 0.60854 0.0
N1641 N 0.12376 0.03733 0.66896 0.0
H1642 H 0.76794 0.39472 0.4487 0.0
H1643 H 0.83449 0.34481 0.33987 0.0
H1644 H 0.83463 0.4291 0.43721 0.0
H1645 H 0.76538 0.31163 0.34522 0.0
H1646 H 0.83437 0.37536 0.37615 0.0
H1647 H 0.7655 0.36448 0.41066 0.0
C1648 C 0.78172 0.39632 0.43778 0.0
C1649 C 0.8014 0.41453 0.4458 0.0
C1650 C 0.81922 0.36135 0.36952 0.0
C1651 C 0.7991 0.37987 0.40296 0.0
C1652 C 0.81936 0.34369 0.34885 0.0
C1653 C 0.79995 0.32547 0.33944 0.0
C1654 C 0.79958 0.3609 0.3811 0.0
C1655 C 0.78077 0.32527 0.35184 0.0
C1656 C 0.78048 0.37893 0.41628 0.0
C1657 C 0.81911 0.41543 0.43147 0.0
N1658 N 0.78105 0.34274 0.37202 0.0
N1659 N 0.81759 0.39833 0.41087 0.0
H1660 H 0.41327 0.95042 0.20016 0.0
H1661 H 0.53764 0.01677 0.18883 0.0
H1662 H 0.4489 0.01928 0.24506 0.0
H1663 H 0.49727 0.95617 0.13563 0.0
H1664 H 0.5101 1.00983 0.2167 0.0
H1665 H 0.44824 0.94508 0.18363 0.0
C1666 C 0.42857 0.96418 0.20692 0.0
C1667 C 0.42821 0.9854 0.22388 0.0
C1668 C 0.50753 0.9977 0.19912 0.0
C1669 C 0.46812 0.97946 0.20504 0.0
C1670 C 0.52334 1.0015 0.18324 0.0
C1671 C 0.51948 0.98723 0.15977 0.0
C1672 C 0.48772 0.97965 0.19135 0.0
C1673 C 0.50057 0.96788 0.15343 0.0
C1674 C 0.44851 0.96108 0.19754 0.0
C1675 C 0.44848 1.00255 0.23221 0.0
N1676 N 0.48513 0.96491 0.16903 0.0
N1677 N 0.46761 0.99937 0.22242 0.0
H1678 H 0.77178 0.72339 0.94116 0.0
H1679 H 0.83781 0.80387 0.86076 0.0
H1680 H 0.83454 0.77601 0.96618 0.0
H1681 H 0.77896 0.74594 0.8341 0.0
H1682 H 0.83556 0.79593 0.90026 0.0
H1683 H 0.77216 0.73431 0.90296 0.0
C1684 C 0.78538 0.73764 0.93888 0.0
C1685 C 0.80315 0.7488 0.95704 0.0
C1686 C 0.82315 0.78496 0.88575 0.0
C1687 C 0.80391 0.76106 0.91303 0.0
C1688 C 0.82449 0.78942 0.86314 0.0
C1689 C 0.80859 0.77554 0.84398 0.0
C1690 C 0.80575 0.76654 0.88931 0.0
C1691 C 0.79163 0.75713 0.84826 0.0
C1692 C 0.78572 0.74368 0.91691 0.0
C1693 C 0.82047 0.76689 0.95277 0.0
N1694 N 0.79065 0.7532 0.87042 0.0
N1695 N 0.82049 0.77232 0.93121 0.0
H1696 H 0.90549 0.13575 0.02746 0.0
H1697 H 0.9727 0.02999 0.01277 0.0
H1698 H 0.87634 0.06507 0.03677 0.0
H1699 H 1.00565 0.10461 0.02036 0.0
H1700 H 0.93689 0.04188 0.01851 0.0
H1701 H 0.94157 0.12436 0.02276 0.0
C1702 C 0.90664 0.1179 0.02885 0.0
C1703 C 0.88763 0.10148 0.0328 0.0
C1704 C 0.95191 0.05567 0.01882 0.0
C1705 C 0.92929 0.08799 0.02672 0.0
C1706 C 0.97246 0.04887 0.01533 0.0
C1707 C 0.99247 0.06624 0.01586 0.0
C1708 C 0.95104 0.08008 0.02273 0.0
C1709 C 0.99081 0.09047 0.01962 0.0
C1710 C 0.92737 0.11137 0.02602 0.0
C1711 C 0.89045 0.07848 0.03403 0.0
N1712 N 0.97057 0.0966 0.02283 0.0
N1713 N 0.91072 0.07241 0.03083 0.0
H1714 H 0.36947 0.4607 0.03354 0.0
H1715 H 0.49902 0.4655 0.02479 0.0
H1716 H 0.40003 0.40535 0.05015 0.0
H1717 H 0.47302 0.52979 0.04243 0.0
H1718 H 0.46229 0.44139 0.02897 0.0
H1719 H 0.40675 0.48433 0.03072 0.0
C1720 C 0.38401 0.45337 0.03633 0.0
C1721 C 0.38167 0.43099 0.04204 0.0
C1722 C 0.4647 0.46078 0.03207 0.0
C1723 C 0.4243 0.45801 0.03891 0.0
C1724 C 0.48561 0.47455 0.02964 0.0
C1725 C 0.48901 0.49966 0.03326 0.0
C1726 C 0.44698 0.47218 0.03762 0.0
C1727 C 0.4711 0.51049 0.03963 0.0
C1728 C 0.40526 0.46699 0.03494 0.0
C1729 C 0.4011 0.4225 0.04569 0.0
N1730 N 0.45071 0.49662 0.04133 0.0
N1731 N 0.42168 0.43601 0.04395 0.0
H1732 H 0.40801 0.64006 0.75747 0.0
H1733 H 0.30692 0.70971 0.79339 0.0
H1734 H 0.35837 0.61887 0.80295 0.0
H1735 H 0.36498 0.74345 0.76456 0.0
H1736 H 0.32407 0.67526 0.79362 0.0
H1737 H 0.39168 0.67531 0.75613 0.0
C1738 C 0.39351 0.64233 0.76691 0.0
C1739 C 0.38477 0.62546 0.78017 0.0
C1740 C 0.33324 0.69011 0.78722 0.0
C1741 C 0.36548 0.66714 0.77875 0.0
C1742 C 0.32333 0.71016 0.7871 0.0
C1743 C 0.33419 0.73045 0.77914 0.0
C1744 C 0.35448 0.6892 0.77887 0.0
C1745 C 0.35561 0.72886 0.77116 0.0
C1746 C 0.3842 0.66288 0.7663 0.0
C1747 C 0.36604 0.63065 0.79226 0.0
N1748 N 0.36475 0.70896 0.77111 0.0
N1749 N 0.35723 0.65039 0.79113 0.0
H1750 H 0.23647 0.60436 0.48979 0.0
H1751 H 0.13576 0.56043 0.56405 0.0
H1752 H 0.24861 0.58699 0.55701 0.0
H1753 H 0.12753 0.59095 0.504 0.0
H1754 H 0.17651 0.56815 0.56136 0.0
H1755 H 0.19636 0.59732 0.49411 0.0
C1756 C 0.23076 0.59899 0.50551 0.0
C1757 C 0.2462 0.59625 0.52304 0.0
C1758 C 0.1658 0.57325 0.54885 0.0
C1759 C 0.19963 0.5881 0.52812 0.0
C1760 C 0.14246 0.56885 0.55035 0.0
C1761 C 0.12799 0.57509 0.53426 0.0
C1762 C 0.17489 0.58374 0.53096 0.0
C1763 C 0.13785 0.58592 0.51691 0.0
C1764 C 0.20771 0.59504 0.50798 0.0
C1765 C 0.23747 0.5893 0.54299 0.0
N1766 N 0.16053 0.58974 0.51567 0.0
N1767 N 0.21482 0.58541 0.54495 0.0
H1768 H 0.7615 0.04131 0.79011 0.0
H1769 H 0.79811 0.91838 0.7406 0.0
H1770 H 0.72287 0.98394 0.7325 0.0
H1771 H 0.82221 0.9674 0.80935 0.0
H1772 H 0.77773 0.94728 0.73067 0.0
H1773 H 0.7912 0.01952 0.78977 0.0
C1774 C 0.75945 0.02425 0.77706 0.0
C1775 C 0.7395 0.01403 0.76167 0.0
C1776 C 0.78785 0.95184 0.74771 0.0
C1777 C 0.77344 0.98907 0.76129 0.0
C1778 C 0.79942 0.93543 0.75341 0.0
C1779 C 0.81157 0.94049 0.77595 0.0
C1780 C 0.78863 0.97341 0.76464 0.0
C1781 C 0.81311 0.96289 0.79177 0.0
C1782 C 0.77643 0.01186 0.77691 0.0
C1783 C 0.73792 0.99223 0.74482 0.0
N1784 N 0.80147 0.97844 0.78591 0.0
N1785 N 0.75459 0.98014 0.74536 0.0
H1786 H 0.77089 0.96279 0.58548 0.0
H1787 H 0.67486 0.95878 0.48448 0.0
H1788 H 0.75119 0.90448 0.52208 0.0
H1789 H 0.69254 0.01369 0.5506 0.0
H1790 H 0.7017 0.93764 0.49815 0.0
H1791 H 0.74076 0.98045 0.57354 0.0
C1792 C 0.76006 0.95356 0.56914 0.0
C1793 C 0.7636 0.9322 0.55471 0.0
C1794 C 0.69958 0.95423 0.50969 0.0
C1795 C 0.72916 0.95247 0.54076 0.0
C1796 C 0.6844 0.96637 0.50185 0.0
C1797 C 0.68152 0.98803 0.51642 0.0
C1798 C 0.712 0.96393 0.5322 0.0
C1799 C 0.69404 0.99692 0.53889 0.0
C1800 C 0.74286 0.96368 0.5623 0.0
C1801 C 0.74902 0.92099 0.53374 0.0
N1802 N 0.70879 0.98489 0.54603 0.0
N1803 N 0.73252 0.93139 0.52727 0.0
H1804 H 0.40711 0.47756 0.75754 0.0
H1805 H 0.30707 0.38091 0.79451 0.0
H1806 H 0.35549 0.49702 0.80052 0.0
H1807 H 0.36363 0.35912 0.76224 0.0
H1808 H 0.32363 0.42271 0.79392 0.0
H1809 H 0.39084 0.43453 0.7558 0.0
C1810 C 0.39217 0.47299 0.76627 0.0
C1811 C 0.38278 0.49165 0.77902 0.0
C1812 C 0.33255 0.40892 0.78691 0.0
C1813 C 0.36385 0.44144 0.77729 0.0
C1814 C 0.323 0.38472 0.78724 0.0
C1815 C 0.33371 0.36575 0.77848 0.0
C1816 C 0.35323 0.41504 0.77754 0.0
C1817 C 0.35449 0.37268 0.76931 0.0
C1818 C 0.38294 0.4482 0.76546 0.0
C1819 C 0.36355 0.48384 0.7903 0.0
N1820 N 0.36339 0.39641 0.76904 0.0
N1821 N 0.35493 0.45983 0.78912 0.0
H1822 H 0.23308 0.61676 0.30594 0.0
H1823 H 0.26262 0.70894 0.22506 0.0
H1824 H 0.20829 0.59878 0.23131 0.0
H1825 H 0.29478 0.71917 0.29579 0.0
H1826 H 0.24527 0.66696 0.22485 0.0
H1827 H 0.25748 0.65348 0.30121 0.0
C1828 C 0.23265 0.62061 0.28855 0.0
C1829 C 0.21842 0.6048 0.26905 0.0
C1830 C 0.25661 0.67819 0.24015 0.0
C1831 C 0.24659 0.64686 0.26343 0.0
C1832 C 0.26662 0.70194 0.24013 0.0
C1833 C 0.28009 0.71705 0.26041 0.0
C1834 C 0.26002 0.67 0.26074 0.0
C1835 C 0.28451 0.70774 0.27982 0.0
C1836 C 0.2468 0.6415 0.28579 0.0
C1837 C 0.2189 0.61057 0.24686 0.0
N1838 N 0.27426 0.68482 0.27964 0.0
N1839 N 0.23266 0.6313 0.24468 0.0
H1840 H 0.54908 0.75723 0.45387 0.0
H1841 H 0.53011 0.69691 0.56288 0.0
H1842 H 0.48562 0.74595 0.48393 0.0
H1843 H 0.5915 0.7071 0.52897 0.0
H1844 H 0.51486 0.72002 0.53835 0.0
H1845 H 0.56597 0.74332 0.48508 0.0
C1846 C 0.53864 0.75181 0.46706 0.0
C1847 C 0.51582 0.75254 0.46618 0.0
C1848 C 0.53185 0.71759 0.53677 0.0
C1849 C 0.53521 0.73664 0.50219 0.0
C1850 C 0.54059 0.70447 0.55077 0.0
C1851 C 0.56208 0.69988 0.54794 0.0
C1852 C 0.54478 0.72615 0.51998 0.0
C1853 C 0.575 0.71034 0.53216 0.0
C1854 C 0.54837 0.74396 0.485 0.0
C1855 C 0.50323 0.74545 0.48387 0.0
N1856 N 0.56603 0.72271 0.5186 0.0
N1857 N 0.5131 0.73761 0.50117 0.0
H1858 H 0.62732 0.28411 0.70511 0.0
H1859 H 0.75915 0.32372 0.71466 0.0
H1860 H 0.66156 0.33003 0.66328 0.0
H1861 H 0.72469 0.3035 0.77234 0.0
H1862 H 0.72358 0.32622 0.69542 0.0
H1863 H 0.66283 0.28991 0.72943 0.0
C1864 C 0.64233 0.29536 0.701 0.0
C1865 C 0.64162 0.30648 0.68205 0.0
C1866 C 0.7238 0.32165 0.71248 0.0
C1867 C 0.68205 0.3133 0.70987 0.0
C1868 C 0.74404 0.32021 0.7234 0.0
C1869 C 0.74457 0.3133 0.7449 0.0
C1870 C 0.70396 0.31556 0.72294 0.0
C1871 C 0.72475 0.30898 0.75573 0.0
C1872 C 0.66249 0.29886 0.71505 0.0
C1873 C 0.66145 0.32106 0.67766 0.0
N1874 N 0.70499 0.30975 0.74436 0.0
N1875 N 0.68098 0.3239 0.6914 0.0
H1876 H 0.96609 0.35349 0.96188 0.0
H1877 H 0.06791 0.46661 0.01899 0.0
H1878 H 0.03599 0.35557 0.95166 0.0
H1879 H 0.99803 0.47089 0.01512 0.0
H1880 H 0.0561 0.42347 1.00053 0.0
H1881 H 0.97733 0.39478 0.98687 0.0
C1882 C 0.98376 0.3626 0.96488 0.0
C1883 C 1.0001 0.35118 0.95452 0.0
C1884 C 0.04337 0.43386 1.0039 0.0
C1885 C 0.01301 0.39801 0.98319 0.0
C1886 C 0.05008 0.45844 0.01453 0.0
C1887 C 0.03395 0.47237 0.01827 0.0
C1888 C 0.0204 0.42324 0.99703 0.0
C1889 C 0.01106 0.46084 0.01231 0.0
C1890 C 0.99015 0.38609 0.97915 0.0
C1891 C 0.02277 0.36376 0.95906 0.0
N1892 N 1.00496 0.43691 1.00175 0.0
N1893 N 0.02855 0.38651 0.97307 0.0
H1894 H 1.00425 0.7939 0.14116 0.0
H1895 H 0.95381 0.75183 0.24987 0.0
H1896 H 0.0431 0.7739 0.19471 0.0
H1897 H 0.91266 0.75885 0.19001 0.0
H1898 H 0.98569 0.7534 0.22668 0.0
H1899 H 0.9698 0.77534 0.15532 0.0
C1900 C 1.00554 0.78526 0.15563 0.0
C1901 C 0.02652 0.78578 0.16706 0.0
C1902 C 0.9696 0.75416 0.21842 0.0
C1903 C 0.98729 0.76481 0.18349 0.0
C1904 C 0.95133 0.75312 0.23162 0.0
C1905 C 0.93067 0.75561 0.22195 0.0
C1906 C 0.96727 0.75815 0.19557 0.0
C1907 C 0.9285 0.75752 0.19833 0.0
C1908 C 0.98586 0.77464 0.1637 0.0
C1909 C 0.02723 0.77428 0.18568 0.0
N1910 N 0.94674 0.75919 0.18604 0.0
N1911 N 1.00785 0.76456 0.19357 0.0
H1912 H 0.54591 0.32277 0.10628 0.0
H1913 H 0.5028 0.38685 0.0129 0.0
H1914 H 0.47573 0.30985 0.07982 0.0
H1915 H 0.57274 0.38619 0.02694 0.0
H1916 H 0.49241 0.35639 0.03533 0.0
H1917 H 0.55616 0.34386 0.07548 0.0
C1918 C 0.53265 0.32417 0.09383 0.0
C1919 C 0.5099 0.31485 0.09578 0.0
C1920 C 0.50999 0.36251 0.03313 0.0
C1921 C 0.52153 0.33894 0.06055 0.0
C1922 C 0.5159 0.37988 0.02039 0.0
C1923 C 0.53861 0.38894 0.01824 0.0
C1924 C 0.52699 0.35443 0.04399 0.0
C1925 C 0.55503 0.37945 0.02814 0.0
C1926 C 0.53854 0.33611 0.07619 0.0
C1927 C 0.49346 0.3169 0.07902 0.0
N1928 N 0.5489 0.36288 0.04094 0.0
N1929 N 0.4996 0.32905 0.06226 0.0
H1930 H 0.06019 0.33677 0.33124 0.0
H1931 H 0.93422 0.34918 0.3457 0.0
H1932 H 0.01969 0.30943 0.38203 0.0
H1933 H 0.96176 0.34309 0.27818 0.0
H1934 H 0.97008 0.34609 0.36402 0.0
H1935 H 0.02775 0.34929 0.31566 0.0
C1936 C 0.04458 0.33357 0.33925 0.0
C1937 C 0.04266 0.32223 0.35812 0.0
C1938 C 0.96829 0.34575 0.34526 0.0
C1939 C 1.00603 0.33687 0.34079 0.0
C1940 C 0.94791 0.34747 0.33482 0.0
C1941 C 0.94499 0.34594 0.31035 0.0
C1942 C 0.98582 0.34265 0.33113 0.0
C1943 C 0.96338 0.34434 0.29712 0.0
C1944 C 0.0262 0.34078 0.3304 0.0
C1945 C 0.0221 0.31846 0.3678 0.0
N1946 N 0.98307 0.34246 0.30767 0.0
N1947 N 1.00455 0.32585 0.35904 0.0
H1948 H 0.04583 0.73396 0.65507 0.0
H1949 H 0.01444 0.61419 0.5504 0.0
H1950 H 0.98336 0.70753 0.60863 0.0
H1951 H 0.07203 0.62749 0.60245 0.0
H1952 H 1.00479 0.65029 0.57173 0.0
H1953 H 0.05759 0.6968 0.63652 0.0
C1954 C 0.03465 0.72045 0.64106 0.0
C1955 C 0.01371 0.72401 0.63324 0.0
C1956 C 0.01951 0.64545 0.57874 0.0
C1957 C 0.02683 0.68182 0.61231 0.0
C1958 C 0.02513 0.62475 0.56645 0.0
C1959 C 0.04414 0.61785 0.57466 0.0
C1960 C 0.03295 0.65964 0.59953 0.0
C1961 C 0.05719 0.63226 0.59564 0.0
C1962 C 0.0413 0.69927 0.63062 0.0
C1963 C 0.99969 0.7058 0.61527 0.0
N1964 N 0.05139 0.65273 0.60744 0.0
N1965 N 1.00656 0.68565 0.60545 0.0
H1966 H 0.65986 0.7912 0.87191 0.0
H1967 H 0.75733 0.84979 0.8055 0.0
H1968 H 0.66596 0.86357 0.86299 0.0
H1969 H 0.72831 0.77321 0.78817 0.0
H1970 H 0.72631 0.85658 0.82923 0.0
H1971 H 0.68898 0.78582 0.8455 0.0
C1972 C 0.66761 0.80615 0.86477 0.0
C1973 C 0.66045 0.8279 0.8696 0.0
C1974 C 0.72653 0.83835 0.81986 0.0
C1975 C 0.69348 0.82163 0.83917 0.0
C1976 C 0.74406 0.83451 0.80626 0.0
C1977 C 0.74512 0.81097 0.7949 0.0
C1978 C 0.71046 0.81843 0.82251 0.0
C1979 C 0.72782 0.79165 0.79649 0.0
C1980 C 0.68397 0.80289 0.84942 0.0
C1981 C 0.671 0.84653 0.85969 0.0
N1982 N 0.71131 0.79577 0.81049 0.0
N1983 N 0.68706 0.84298 0.84488 0.0
H1984 H 0.44898 0.53242 0.68442 0.0
H1985 H 0.54901 0.58412 0.60931 0.0
H1986 H 0.50254 0.59557 0.71243 0.0
H1987 H 0.50111 0.51657 0.58039 0.0
H1988 H 0.53085 0.58865 0.6463 0.0
H1989 H 0.46581 0.52643 0.64609 0.0
C1990 C 0.4641 0.54515 0.6827 0.0
C1991 C 0.47405 0.56464 0.70235 0.0
C1992 C 0.52422 0.57274 0.63195 0.0
C1993 C 0.49379 0.55776 0.65773 0.0
C1994 C 0.53473 0.5701 0.61058 0.0
C1995 C 0.52698 0.5498 0.59117 0.0
C1996 C 0.50537 0.5551 0.63454 0.0
C1997 C 0.50807 0.53253 0.59456 0.0
C1998 C 0.47384 0.54164 0.66065 0.0
C1999 C 0.4939 0.58021 0.69834 0.0
N2000 N 0.49806 0.53556 0.61548 0.0
N2001 N 0.50284 0.57648 0.67696 0.0
H2002 H 0.84889 0.21418 1.00657 0.0
H2003 H 0.77948 0.20809 0.88424 0.0
H2004 H 0.7971 0.15185 0.97023 0.0
H2005 H 0.81763 0.27438 0.93164 0.0
H2006 H 0.78691 0.18633 0.91421 0.0
H2007 H 0.83829 0.23605 0.97835 0.0
C2008 C 0.8351 0.20518 0.99276 0.0
C2009 C 0.82386 0.18117 0.9907 0.0
C2010 C 0.79349 0.20567 0.91806 0.0
C2011 C 0.81184 0.206 0.95807 0.0
C2012 C 0.78942 0.21804 0.90093 0.0
C2013 C 0.79788 0.24308 0.90552 0.0
C2014 C 0.80631 0.21843 0.93977 0.0
C2015 C 0.81052 0.25514 0.92749 0.0
C2016 C 0.82906 0.21767 0.97664 0.0
C2017 C 0.80608 0.1704 0.97251 0.0
N2018 N 0.81442 0.24269 0.94373 0.0
N2019 N 0.80077 0.18283 0.95667 0.0
H2020 H 0.12716 0.47388 0.17067 0.0
H2021 H 0.10839 0.57361 0.1033 0.0
H2022 H 0.17744 0.53819 0.17097 0.0
H2023 H 0.05949 0.5066 0.09589 0.0
H2024 H 0.13295 0.56139 0.13023 0.0
H2025 H 0.10217 0.48459 0.14271 0.0
C2026 C 0.13317 0.48994 0.16444 0.0
C2027 C 0.15428 0.50538 0.17345 0.0
C2028 C 0.11679 0.54938 0.12291 0.0
C2029 C 0.12564 0.51794 0.14206 0.0
C2030 C 0.1027 0.55647 0.10779 0.0
C2031 C 0.08207 0.54098 0.09747 0.0
C2032 C 0.1102 0.52656 0.12756 0.0
C2033 C 0.07529 0.51905 0.10375 0.0
C2034 C 0.11878 0.49616 0.1487 0.0
C2035 C 0.16122 0.52588 0.16469 0.0
N2036 N 0.08953 0.5123 0.1183 0.0
N2037 N 0.14677 0.53174 0.14972 0.0
H2038 H 0.79102 0.85913 0.47965 0.0
H2039 H 0.83973 0.80422 0.35996 0.0
H2040 H 0.84953 0.8284 0.4773 0.0
H2041 H 0.77292 0.81784 0.3597 0.0
H2042 H 0.84356 0.81442 0.40318 0.0
H2043 H 0.78369 0.84489 0.43619 0.0
C2044 C 0.80215 0.84911 0.47011 0.0
C2045 C 0.821 0.84505 0.48229 0.0
C2046 C 0.82799 0.81511 0.39377 0.0
C2047 C 0.81283 0.82905 0.43248 0.0
C2048 C 0.82581 0.80939 0.36899 0.0
C2049 C 0.80597 0.81024 0.35609 0.0
C2050 C 0.81032 0.82201 0.406 0.0
C2051 C 0.7885 0.81691 0.36891 0.0
C2052 C 0.79796 0.84105 0.44527 0.0
C2053 C 0.83482 0.83202 0.46884 0.0
N2054 N 0.79114 0.82272 0.3932 0.0
N2055 N 0.83058 0.82473 0.44474 0.0
H2056 H 0.44521 0.58181 0.86376 0.0
H2057 H 0.53263 0.52133 0.9273 0.0
H2058 H 0.48417 0.53554 0.82509 0.0
H2059 H 0.50084 0.57454 0.96721 0.0
H2060 H 0.51365 0.52501 0.89029 0.0
H2061 H 0.4634 0.5781 0.90146 0.0
C2062 C 0.45741 0.57071 0.86302 0.0
C2063 C 0.46286 0.55895 0.84068 0.0
C2064 C 0.51077 0.53596 0.90709 0.0
C2065 C 0.48419 0.55457 0.88461 0.0
C2066 C 0.52172 0.53386 0.92848 0.0
C2067 C 0.51869 0.54766 0.95099 0.0
C2068 C 0.49625 0.55192 0.9076 0.0
C2069 C 0.50401 0.56346 0.95064 0.0
C2070 C 0.46795 0.56866 0.88475 0.0
C2071 C 0.47913 0.545 0.84151 0.0
N2072 N 0.49348 0.56508 0.92961 0.0
N2073 N 0.48898 0.54323 0.86274 0.0
H2074 H 0.80713 0.15084 0.10027 0.0
H2075 H 0.82406 0.28115 0.19023 0.0
H2076 H 0.86221 0.21104 0.101 0.0
H2077 H 0.77774 0.21746 0.19842 0.0
H2078 H 0.8359 0.25659 0.15515 0.0
H2079 H 0.79435 0.17561 0.13449 0.0
C2080 C 0.81666 0.16918 0.1077 0.0
C2081 C 0.83588 0.17876 0.09772 0.0
C2082 C 0.82304 0.24803 0.16454 0.0
C2083 C 0.82107 0.2074 0.13676 0.0
C2084 C 0.81611 0.2621 0.18445 0.0
C2085 C 0.79979 0.25139 0.19727 0.0
C2086 C 0.81351 0.2231 0.15728 0.0
C2087 C 0.79033 0.22652 0.18909 0.0
C2088 C 0.8093 0.18335 0.12722 0.0
C2089 C 0.84741 0.20275 0.10813 0.0
N2090 N 0.79734 0.21324 0.16967 0.0
N2091 N 0.83978 0.21625 0.12696 0.0
H2092 H 0.14029 0.58352 0.28227 0.0
H2093 H 0.10174 0.55565 0.40179 0.0
H2094 H 0.12258 0.51219 0.29429 0.0
H2095 H 0.08869 0.61874 0.38193 0.0
H2096 H 0.11361 0.54213 0.3629 0.0
H2097 H 0.12313 0.59905 0.31837 0.0
C2098 C 0.132 0.5711 0.29207 0.0
C2099 C 0.13252 0.54666 0.28563 0.0
C2100 C 0.10818 0.55896 0.36697 0.0
C2101 C 0.11389 0.56402 0.32647 0.0
C2102 C 0.1018 0.56689 0.38931 0.0
C2103 C 0.09457 0.58847 0.39503 0.0
C2104 C 0.10736 0.57269 0.3502 0.0
C2105 C 0.09431 0.60202 0.37801 0.0
C2106 C 0.12246 0.57991 0.31262 0.0
C2107 C 0.1223 0.53116 0.2989 0.0
N2108 N 0.10075 0.59393 0.35617 0.0
N2109 N 0.11356 0.54015 0.31891 0.0
H2110 H 0.83178 0.81701 0.59463 0.0
H2111 H 0.79527 0.84842 0.72526 0.0
H2112 H 0.79466 0.87201 0.61679 0.0
H2113 H 0.80845 0.77928 0.69221 0.0
H2114 H 0.79679 0.85896 0.68666 0.0
H2115 H 0.82475 0.80386 0.63112 0.0
C2116 C 0.82179 0.82602 0.60696 0.0
C2117 C 0.81369 0.84552 0.60256 0.0
C2118 C 0.79913 0.84142 0.68791 0.0
C2119 C 0.80612 0.83103 0.64472 0.0
C2120 C 0.79836 0.83544 0.70992 0.0
C2121 C 0.80171 0.81294 0.71197 0.0
C2122 C 0.80362 0.8249 0.668 0.0
C2123 C 0.80567 0.79681 0.6915 0.0
C2124 C 0.81784 0.81857 0.62784 0.0
C2125 C 0.801 0.85669 0.61931 0.0
N2126 N 0.8067 0.80318 0.67047 0.0
N2127 N 0.79788 0.84952 0.63984 0.0
H2128 H 0.73168 0.50955 0.50086 0.0
H2129 H 0.60567 0.48804 0.53957 0.0
H2130 H 0.70601 0.45766 0.54057 0.0
H2131 H 0.63758 0.55198 0.51834 0.0
H2132 H 0.64081 0.47402 0.53592 0.0
H2133 H 0.69575 0.52248 0.50244 0.0
C2134 C 0.71843 0.50063 0.50959 0.0
C2135 C 0.722 0.48248 0.52061 0.0
C2136 C 0.64013 0.49118 0.53215 0.0
C2137 C 0.68074 0.4972 0.52253 0.0
C2138 C 0.62002 0.49921 0.53426 0.0
C2139 C 0.61852 0.52136 0.52948 0.0
C2140 C 0.65895 0.50518 0.52487 0.0
C2141 C 0.63784 0.53491 0.5225 0.0
C2142 C 0.69797 0.50815 0.51067 0.0
C2143 C 0.70418 0.47179 0.5319 0.0
N2144 N 0.65709 0.5266 0.52033 0.0
N2145 N 0.68446 0.47923 0.53253 0.0
H2146 H 0.2249 0.11258 0.46986 0.0
H2147 H 0.10614 0.11572 0.52077 0.0
H2148 H 0.2098 0.17736 0.51192 0.0
H2149 H 0.12403 0.05084 0.48254 0.0
H2150 H 0.14282 0.13919 0.5155 0.0
H2151 H 0.1869 0.09046 0.47205 0.0
C2152 C 0.21355 0.12223 0.47947 0.0
C2153 C 0.22062 0.14689 0.49079 0.0
C2154 C 0.13867 0.11983 0.50819 0.0
C2155 C 0.17689 0.12149 0.49346 0.0
C2156 C 0.1177 0.10638 0.51116 0.0
C2157 C 0.11197 0.08119 0.50217 0.0
C2158 C 0.15404 0.10805 0.4961 0.0
C2159 C 0.12767 0.07017 0.48984 0.0
C2160 C 0.19181 0.10953 0.48073 0.0
C2161 C 0.20508 0.15837 0.50292 0.0
N2162 N 0.14797 0.08365 0.48725 0.0
N2163 N 0.18396 0.14554 0.50403 0.0
H2164 H 0.20768 0.94937 0.81042 0.0
H2165 H 0.28649 0.86624 0.74234 0.0
H2166 H 0.22626 0.95641 0.74156 0.0
H2167 H 0.2406 0.84166 0.78979 0.0
H2168 H 0.2691 0.90114 0.74406 0.0
H2169 H 0.22323 0.91329 0.80566 0.0
C2170 C 0.2149 0.94342 0.79409 0.0
C2171 C 0.21503 0.95663 0.77635 0.0
C2172 C 0.26266 0.88811 0.75403 0.0
C2173 C 0.23427 0.91413 0.77099 0.0
C2174 C 0.27271 0.8679 0.75308 0.0
C2175 C 0.26516 0.85004 0.76565 0.0
C2176 C 0.24503 0.89167 0.76833 0.0
C2177 C 0.24717 0.85421 0.77938 0.0
C2178 C 0.22391 0.92249 0.79142 0.0
C2179 C 0.22514 0.94725 0.75581 0.0
N2180 N 0.23816 0.87428 0.78052 0.0
N2181 N 0.23441 0.92715 0.75392 0.0
H2182 H 0.36737 0.03466 0.03421 0.0
H2183 H 0.48089 0.99968 0.99298 0.0
H2184 H 0.36774 0.96222 0.99643 0.0
H2185 H 0.4808 0.04869 0.06086 0.0
H2186 H 0.43948 0.98984 0.98847 0.0
H2187 H 0.40897 0.0448 0.03816 0.0
C2188 C 0.37619 0.02108 0.02624 0.0
C2189 C 0.36406 0.99765 0.0147 0.0
C2190 C 0.44852 1.00266 1.0044 0.0
C2191 C 0.4116 1.00906 0.01925 0.0
C2192 C 0.47217 1.00826 1.00704 0.0
C2193 C 0.48444 0.02482 0.0275 0.0
C2194 C 0.43686 0.01426 0.02197 0.0
C2195 C 0.47211 0.03553 0.04498 0.0
C2196 C 0.3999 0.02677 0.02879 0.0
C2197 C 0.3764 0.98055 1.00529 0.0
N2198 N 0.44906 0.03031 0.0417 0.0
N2199 N 0.3994 0.98662 1.00758 0.0
H2200 H 0.87436 0.59887 0.83582 0.0
H2201 H 0.8035 0.62078 0.72711 0.0
H2202 H 0.88519 0.57137 0.76266 0.0
H2203 H 0.8165 0.66875 0.79761 0.0
H2204 H 0.82819 0.59698 0.74004 0.0
H2205 H 0.84651 0.61855 0.82212 0.0
C2206 C 0.87063 0.59671 0.81687 0.0
C2207 C 0.88209 0.58369 0.80032 0.0
C2208 C 0.8254 0.61264 0.75262 0.0
C2209 C 0.85054 0.60605 0.78466 0.0
C2210 C 0.81142 0.62619 0.74529 0.0
C2211 C 0.80768 0.64646 0.76145 0.0
C2212 C 0.83541 0.61942 0.77623 0.0
C2213 C 0.81835 0.6528 0.78478 0.0
C2214 C 0.85491 0.60805 0.8091 0.0
C2215 C 0.87679 0.5815 0.77596 0.0
N2216 N 0.83171 0.63926 0.7915 0.0
N2217 N 0.86134 0.59269 0.7688 0.0
H2218 H 0.86668 0.6923 1.00872 0.0
H2219 H 0.90889 0.60466 0.07944 0.0
H2220 H 0.82446 0.65052 0.04876 0.0
H2221 H 0.9434 0.62893 0.02339 0.0
H2222 H 0.88066 0.62725 0.07356 0.0
H2223 H 0.89806 0.6754 0.01962 0.0
C2224 C 0.86411 0.67986 0.0201 0.0
C2225 C 0.84293 0.67261 0.02773 0.0
C2226 C 0.89448 0.62773 0.06263 0.0
C2227 C 0.87859 0.6533 0.04015 0.0
C2228 C 0.91054 0.61471 0.06586 0.0
C2229 C 0.92841 0.61463 0.05168 0.0
C2230 C 0.89636 0.64095 0.04523 0.0
C2231 C 0.93 0.62857 0.03483 0.0
C2232 C 0.88197 0.67013 0.02617 0.0
C2233 C 0.84048 0.65642 0.04235 0.0
N2234 N 0.91409 0.64111 0.03199 0.0
N2235 N 0.85809 0.64722 0.04802 0.0
H2236 H 0.24906 0.09959 0.81653 0.0
H2237 H 0.23754 0.21382 0.76269 0.0
H2238 H 0.19448 0.09588 0.76453 0.0
H2239 H 0.29688 0.21204 0.80531 0.0
H2240 H 0.22078 0.17207 0.76441 0.0
H2241 H 0.26568 0.14086 0.8138 0.0
C2242 C 0.24048 0.10724 0.8044 0.0
C2243 C 0.22013 0.09346 0.79066 0.0
C2244 C 0.23748 0.18074 0.77341 0.0
C2245 C 0.23944 0.14215 0.78767 0.0
C2246 C 0.24716 0.20484 0.77248 0.0
C2247 C 0.26893 0.21713 0.78385 0.0
C2248 C 0.24933 0.16825 0.78601 0.0
C2249 C 0.28016 0.20384 0.79618 0.0
C2250 C 0.2501 0.1311 0.80288 0.0
C2251 C 0.21017 0.10519 0.77544 0.0
N2252 N 0.27034 0.18057 0.79695 0.0
N2253 N 0.21974 0.12852 0.77449 0.0
H2254 H 0.3944 0.97929 0.35576 0.0
H2255 H 0.30809 0.87274 0.26258 0.0
H2256 H 0.36802 0.98353 0.28667 0.0
H2257 H 0.3289 0.86785 0.33332 0.0
H2258 H 0.32683 0.91534 0.2734 0.0
H2259 H 0.36709 0.94049 0.35061 0.0
C2260 C 0.38259 0.97231 0.33981 0.0
C2261 C 0.38367 0.98432 0.32147 0.0
C2262 C 0.32712 0.90505 0.28669 0.0
C2263 C 0.35284 0.94031 0.31533 0.0
C2264 C 0.31644 0.88069 0.28046 0.0
C2265 C 0.31714 0.86672 0.29698 0.0
C2266 C 0.33882 0.91545 0.30952 0.0
C2267 C 0.32806 0.87799 0.31998 0.0
C2268 C 0.36713 0.95019 0.33679 0.0
C2269 C 0.36804 0.9746 0.30109 0.0
N2270 N 0.33874 0.90168 0.3255 0.0
N2271 N 0.3535 0.95308 0.29847 0.0
H2272 H 0.55776 0.29371 0.54204 0.0
H2273 H 0.6074 0.41436 0.50647 0.0
H2274 H 0.61095 0.35152 0.58391 0.0
H2275 H 0.5419 0.36671 0.48156 0.0
H2276 H 0.61864 0.38291 0.52251 0.0
H2277 H 0.563 0.31146 0.5081 0.0
C2278 C 0.57095 0.30983 0.54389 0.0
C2279 C 0.58341 0.32173 0.56595 0.0
C2280 C 0.60212 0.37913 0.51274 0.0
C2281 C 0.58926 0.34214 0.52741 0.0
C2282 C 0.5956 0.39707 0.5037 0.0
C2283 C 0.57332 0.39355 0.49353 0.0
C2284 C 0.58635 0.35748 0.51116 0.0
C2285 C 0.55912 0.3705 0.48954 0.0
C2286 C 0.57398 0.31988 0.5245 0.0
C2287 C 0.60068 0.34213 0.56728 0.0
N2288 N 0.56573 0.35352 0.49887 0.0
N2289 N 0.60269 0.35216 0.54838 0.0
H2290 H 0.47584 0.81388 0.34636 0.0
H2291 H 0.34207 0.77115 0.33398 0.0
H2292 H 0.43801 0.77038 0.38817 0.0
H2293 H 0.37758 0.80667 0.28472 0.0
H2294 H 0.37767 0.77484 0.3565 0.0
H2295 H 0.44027 0.81582 0.32606 0.0
C2296 C 0.4601 0.80499 0.35145 0.0
C2297 C 0.45982 0.79189 0.36891 0.0
C2298 C 0.37775 0.78179 0.34073 0.0
C2299 C 0.41951 0.79404 0.346 0.0
C2300 C 0.35741 0.77956 0.32777 0.0
C2301 C 0.35694 0.78843 0.30735 0.0
C2302 C 0.3978 0.79281 0.33316 0.0
C2303 C 0.37729 0.79944 0.30031 0.0
C2304 C 0.43989 0.80608 0.33987 0.0
C2305 C 0.43908 0.78078 0.37495 0.0
N2306 N 0.39705 0.80128 0.31323 0.0
N2307 N 0.41976 0.78205 0.36342 0.0
H2308 H 0.05146 0.73545 0.06209 0.0
H2309 H 0.08385 0.62252 0.08734 0.0
H2310 H 0.09646 0.74103 0.12421 0.0
H2311 H 0.06904 0.62752 0.01541 0.0
H2312 H 0.09104 0.6664 0.10095 0.0
H2313 H 0.0592 0.69647 0.044 0.0
C2314 C 0.06312 0.7285 0.07183 0.0
C2315 C 0.07305 0.74116 0.09482 0.0
C2316 C 0.08678 0.65801 0.08211 0.0
C2317 C 0.08197 0.69674 0.07426 0.0
C2318 C 0.08258 0.63305 0.0744 0.0
C2319 C 0.07562 0.62175 0.05037 0.0
C2320 C 0.08328 0.67147 0.06569 0.0
C2321 C 0.07433 0.63584 0.03411 0.0
C2322 C 0.06773 0.70642 0.06139 0.0
C2323 C 0.08833 0.73165 0.10653 0.0
N2324 N 0.07759 0.66012 0.04218 0.0
N2325 N 0.09201 0.70967 0.09628 0.0
H2326 H 0.09201 0.29913 0.91673 0.0
H2327 H 0.17466 0.36227 0.83722 0.0
H2328 H 0.07986 0.35724 0.88706 0.0
H2329 H 0.17881 0.29641 0.85717 0.0
H2330 H 0.14544 0.36732 0.86384 0.0
H2331 H 0.12976 0.30547 0.90438 0.0
C2332 C 0.09744 0.31353 0.90798 0.0
C2333 C 0.08263 0.32728 0.90232 0.0
C2334 C 0.15304 0.352 0.86265 0.0
C2335 C 0.12566 0.33443 0.88796 0.0
C2336 C 0.16955 0.34901 0.84736 0.0
C2337 C 0.17885 0.3287 0.84474 0.0
C2338 C 0.14587 0.33453 0.87531 0.0
C2339 C 0.17211 0.31237 0.85869 0.0
C2340 C 0.11899 0.31711 0.90092 0.0
C2341 C 0.09065 0.34598 0.8914 0.0
N2342 N 0.15581 0.3155 0.87318 0.0
N2343 N 0.11156 0.34872 0.88411 0.0
H2344 H 0.55241 0.78535 0.96921 0.0
H2345 H 0.59032 0.67457 1.00052 0.0
H2346 H 0.60561 0.75588 0.93667 0.0
H2347 H 0.54887 0.71509 0.04307 0.0
H2348 H 0.59913 0.70631 0.97939 0.0
H2349 H 0.55382 0.76233 0.99902 0.0
C2350 C 0.56458 0.7742 0.96856 0.0
C2351 C 0.57865 0.77208 0.95033 0.0
C2352 C 0.58843 0.70846 0.99363 0.0
C2353 C 0.5802 0.74555 0.98411 0.0
C2354 C 0.58344 0.6904 1.00576 0.0
C2355 C 0.56871 0.69219 0.02346 0.0
C2356 C 0.5784 0.72825 0.99911 0.0
C2357 C 0.55998 0.71284 0.02924 0.0
C2358 C 0.56545 0.76114 0.98561 0.0
C2359 C 0.59439 0.75779 0.95043 0.0
N2360 N 0.56476 0.72998 0.01689 0.0
N2361 N 0.59446 0.74463 0.96686 0.0
H2362 H 0.08688 0.78027 0.65545 0.0
H2363 H 0.13372 0.74125 0.76331 0.0
H2364 H 0.05893 0.78955 0.72252 0.0
H2365 H 0.15539 0.72422 0.69315 0.0
H2366 H 0.09909 0.748 0.74592 0.0
H2367 H 0.1033 0.74849 0.66489 0.0
C2368 C 0.08343 0.7748 0.67175 0.0
C2369 C 0.07174 0.78746 0.68834 0.0
C2370 C 0.11113 0.7422 0.73422 0.0
C2371 C 0.09159 0.75236 0.70002 0.0
C2372 C 0.13093 0.73827 0.74415 0.0
C2373 C 0.14773 0.7328 0.72971 0.0
C2374 C 0.10831 0.74098 0.70973 0.0
C2375 C 0.14317 0.72918 0.70502 0.0
C2376 C 0.09298 0.75684 0.6773 0.0
C2377 C 0.06785 0.78004 0.70931 0.0
N2378 N 0.12412 0.73382 0.69587 0.0
N2379 N 0.07837 0.76342 0.71494 0.0
H2380 H 0.09844 0.39617 0.40929 0.0
H2381 H 0.06134 0.47561 0.52353 0.0
H2382 H 0.08686 0.37439 0.47448 0.0
H2383 H 0.07935 0.50328 0.46255 0.0
H2384 H 0.07482 0.43996 0.50679 0.0
H2385 H 0.09731 0.43757 0.42975 0.0
C2386 C 0.09661 0.40042 0.42816 0.0
C2387 C 0.09266 0.38216 0.44037 0.0
C2388 C 0.07595 0.4538 0.49701 0.0
C2389 C 0.09071 0.42868 0.46349 0.0
C2390 C 0.068 0.47409 0.50647 0.0
C2391 C 0.06891 0.49222 0.4942 0.0
C2392 C 0.08465 0.45139 0.47492 0.0
C2393 C 0.07815 0.48951 0.47242 0.0
C2394 C 0.09569 0.42388 0.43974 0.0
C2395 C 0.0899 0.38816 0.46458 0.0
N2396 N 0.08549 0.46926 0.46328 0.0
N2397 N 0.08867 0.41088 0.47529 0.0
H2398 H 0.48425 0.28083 0.23772 0.0
H2399 H 0.35263 0.27178 0.22465 0.0
H2400 H 0.44334 0.27184 0.17176 0.0
H2401 H 0.38896 0.27225 0.29059 0.0
H2402 H 0.38554 0.26642 0.20417 0.0
H2403 H 0.44962 0.27235 0.2569 0.0
C2404 C 0.46808 0.27659 0.22715 0.0
C2405 C 0.46675 0.2773 0.20313 0.0
C2406 C 0.38632 0.26706 0.223 0.0
C2407 C 0.42734 0.26771 0.22481 0.0
C2408 C 0.36748 0.26997 0.23459 0.0
C2409 C 0.36824 0.27201 0.25908 0.0
C2410 C 0.40622 0.26667 0.23614 0.0
C2411 C 0.38787 0.27034 0.27153 0.0
C2412 C 0.44836 0.27179 0.23809 0.0
C2413 C 0.44539 0.27165 0.19026 0.0
N2414 N 0.40634 0.26802 0.25993 0.0
N2415 N 0.42661 0.26735 0.2013 0.0
H2416 H 0.62355 0.55895 0.33821 0.0
H2417 H 0.59048 0.50339 0.45045 0.0
H2418 H 0.65473 0.50509 0.35659 0.0
H2419 H 0.58397 0.57477 0.44829 0.0
H2420 H 0.60985 0.5009 0.4141 0.0
H2421 H 0.60553 0.56241 0.37546 0.0
C2422 C 0.62682 0.54789 0.35004 0.0
C2423 C 0.64119 0.53187 0.34381 0.0
C2424 C 0.60418 0.51713 0.42147 0.0
C2425 C 0.61949 0.53529 0.38715 0.0
C2426 C 0.59289 0.51856 0.44237 0.0
C2427 C 0.58519 0.53934 0.45298 0.0
C2428 C 0.60769 0.53639 0.41017 0.0
C2429 C 0.58935 0.5583 0.44119 0.0
C2430 C 0.61638 0.54989 0.3715 0.0
C2431 C 0.64421 0.51797 0.36032 0.0
N2432 N 0.59994 0.55627 0.42064 0.0
N2433 N 0.63342 0.5198 0.38075 0.0
H2434 H 0.2769 0.93925 0.08832 0.0
H2435 H 0.28599 0.81171 0.10999 0.0
H2436 H 0.28458 0.87867 0.03362 0.0
H2437 H 0.28771 0.87485 0.16645 0.0
H2438 H 0.27693 0.83349 0.08095 0.0
H2439 H 0.27109 0.9131 0.11609 0.0
C2440 C 0.27632 0.92018 0.08193 0.0
C2441 C 0.28106 0.91091 0.05879 0.0
C2442 C 0.27902 0.84251 0.09971 0.0
C2443 C 0.27522 0.88127 0.09029 0.0
C2444 C 0.28437 0.83014 0.11626 0.0
C2445 C 0.28789 0.8416 0.14062 0.0
C2446 C 0.27726 0.86657 0.10754 0.0
C2447 C 0.28507 0.86532 0.14783 0.0
C2448 C 0.27335 0.90536 0.09781 0.0
C2449 C 0.28082 0.88632 0.05138 0.0
N2450 N 0.28016 0.87714 0.13132 0.0
N2451 N 0.27827 0.87239 0.06719 0.0
H2452 H 0.95925 0.57446 0.87774 0.0
H2453 H 0.04734 0.52669 0.94839 0.0
H2454 H 1.00246 0.53144 0.8416 0.0
H2455 H 0.99882 0.56499 0.98014 0.0
H2456 H 0.03078 0.52625 0.90899 0.0
H2457 H 0.97281 0.56865 0.91496 0.0
C2458 C 0.97143 0.56343 0.87753 0.0
C2459 C 0.97939 0.55298 0.8564 0.0
C2460 C 0.02374 0.5346 0.9246 0.0
C2461 C 0.99602 0.54727 0.89966 0.0
C2462 C 0.03315 0.53493 0.94707 0.0
C2463 C 0.02449 0.54612 0.96751 0.0
C2464 C 1.00564 0.54555 0.92275 0.0
C2465 C 1.00613 0.5564 0.96486 0.0
C2466 C 0.97938 0.56032 0.899 0.0
C2467 C 0.99589 0.53974 0.85756 0.0
N2468 N 0.99737 0.55591 0.94284 0.0
N2469 N 1.00385 0.53734 0.87903 0.0
H2470 H 0.31883 0.28168 0.58462 0.0
H2471 H 0.30535 0.23714 0.70142 0.0
H2472 H 0.28231 0.20915 0.58138 0.0
H2473 H 0.29351 0.30704 0.70011 0.0
H2474 H 0.30391 0.22721 0.65779 0.0
H2475 H 0.31597 0.29253 0.62773 0.0
C2476 C 0.30992 0.26818 0.59292 0.0
C2477 C 0.30057 0.24457 0.5794 0.0
C2478 C 0.30157 0.24467 0.66713 0.0
C2479 C 0.2981 0.25657 0.62854 0.0
C2480 C 0.30253 0.2504 0.69195 0.0
C2481 C 0.29949 0.27291 0.70432 0.0
C2482 C 0.29822 0.26184 0.65472 0.0
C2483 C 0.2958 0.28943 0.6912 0.0
C2484 C 0.30834 0.27436 0.61742 0.0
C2485 C 0.28944 0.22766 0.59107 0.0
N2486 N 0.29555 0.28369 0.66708 0.0
N2487 N 0.28887 0.23386 0.61506 0.0
H2488 H 0.61374 0.47311 0.1787 0.0
H2489 H 0.5874 0.56815 0.10541 0.0
H2490 H 0.64159 0.54941 0.20509 0.0
H2491 H 0.57759 0.49199 0.07403 0.0
H2492 H 0.60474 0.56242 0.14249 0.0
H2493 H 0.59863 0.48029 0.14174 0.0
C2494 C 0.61691 0.49148 0.1768 0.0
C2495 C 0.62939 0.51054 0.19552 0.0
C2496 C 0.59886 0.54694 0.12751 0.0
C2497 C 0.61112 0.51914 0.15224 0.0
C2498 C 0.58879 0.55017 0.10615 0.0
C2499 C 0.58078 0.53058 0.086 0.0
C2500 C 0.6009 0.5238 0.12935 0.0
C2501 C 0.58335 0.50781 0.08868 0.0
C2502 C 0.60813 0.49557 0.15544 0.0
C2503 C 0.63249 0.53392 0.19139 0.0
N2504 N 0.59292 0.50513 0.10966 0.0
N2505 N 0.62333 0.53752 0.17052 0.0
H2506 H 0.30327 0.87728 0.96839 0.0
H2507 H 0.29875 0.86032 0.82914 0.0
H2508 H 0.29039 0.93169 0.93376 0.0
H2509 H 0.29121 0.79976 0.86117 0.0
H2510 H 0.29519 0.8863 0.86721 0.0
H2511 H 0.29774 0.84827 0.92969 0.0
C2512 C 0.29895 0.88301 0.95259 0.0
C2513 C 0.29745 0.90697 0.95422 0.0
C2514 C 0.29411 0.86732 0.86597 0.0
C2515 C 0.29149 0.87392 0.90979 0.0
C2516 C 0.29633 0.85242 0.84423 0.0
C2517 C 0.2956 0.8278 0.84202 0.0
C2518 C 0.29142 0.85775 0.88592 0.0
C2519 C 0.29201 0.81863 0.86213 0.0
C2520 C 0.29577 0.86642 0.93052 0.0
C2521 C 0.29166 0.91339 0.93327 0.0
N2522 N 0.29035 0.8337 0.88337 0.0
N2523 N 0.28927 0.89705 0.91184 0.0
H2524 H 0.97298 0.51815 0.75001 0.0
H2525 H 0.9674 0.46012 0.61556 0.0
H2526 H 0.9223 0.51694 0.69473 0.0
H2527 H 0.02531 0.47602 0.66761 0.0
H2528 H 0.9431 0.45998 0.64749 0.0
H2529 H 0.98326 0.48361 0.72392 0.0
C2530 C 0.96363 0.51012 0.73259 0.0
C2531 C 0.94765 0.52091 0.72377 0.0
C2532 C 0.96108 0.46254 0.65179 0.0
C2533 C 0.95897 0.48165 0.69426 0.0
C2534 C 0.97497 0.46273 0.63357 0.0
C2535 C 0.99847 0.46931 0.63909 0.0
C2536 C 0.97089 0.46945 0.67554 0.0
C2537 C 1.00732 0.47155 0.66255 0.0
C2538 C 0.96936 0.49036 0.7178 0.0
C2539 C 0.93551 0.50967 0.70153 0.0
N2540 N 0.99354 0.47242 0.68008 0.0
N2541 N 0.94173 0.49087 0.68728 0.0
H2542 H 0.27104 0.22588 0.44187 0.0
H2543 H 0.34082 0.30644 0.3639 0.0
H2544 H 0.3329 0.27927 0.46927 0.0
H2545 H 0.2821 0.24875 0.33564 0.0
H2546 H 0.33676 0.29893 0.40342 0.0
H2547 H 0.27261 0.23724 0.40392 0.0
C2548 C 0.28464 0.24043 0.44017 0.0
C2549 C 0.30187 0.25161 0.45887 0.0
C2550 C 0.32477 0.28794 0.38855 0.0
C2551 C 0.30406 0.26431 0.41519 0.0
C2552 C 0.32715 0.29215 0.36595 0.0
C2553 C 0.31183 0.27819 0.34636 0.0
C2554 C 0.3069 0.26971 0.3916 0.0
C2555 C 0.29436 0.25999 0.35016 0.0
C2556 C 0.28568 0.2467 0.41835 0.0
C2557 C 0.31925 0.2701 0.45538 0.0
N2558 N 0.29238 0.2563 0.37229 0.0
N2559 N 0.32 0.2757 0.43393 0.0
H2560 H 0.37519 0.55914 0.54164 0.0
H2561 H 0.50555 0.60244 0.52262 0.0
H2562 H 0.40432 0.62978 0.53221 0.0
H2563 H 0.47259 0.52752 0.51296 0.0
H2564 H 0.46941 0.61336 0.52931 0.0
H2565 H 0.41146 0.548 0.53521 0.0
C2566 C 0.38924 0.57247 0.53862 0.0
C2567 C 0.38652 0.59555 0.5377 0.0
C2568 C 0.47001 0.5945 0.52557 0.0
C2569 C 0.42828 0.58279 0.53006 0.0
C2570 C 0.4907 0.58821 0.52163 0.0
C2571 C 0.49227 0.56394 0.51688 0.0
C2572 C 0.45056 0.5765 0.52525 0.0
C2573 C 0.47229 0.54643 0.51616 0.0
C2574 C 0.40993 0.566 0.53472 0.0
C2575 C 0.40543 0.61185 0.53331 0.0
N2576 N 0.45242 0.55304 0.52046 0.0
N2577 N 0.42535 0.60521 0.52973 0.0
H2578 H 0.89902 0.92482 0.574 0.0
H2579 H 0.97735 0.98671 0.49104 0.0
H2580 H 0.87154 0.93974 0.51037 0.0
H2581 H 0.99185 1.00951 0.56754 0.0
H2582 H 0.94093 0.96214 0.49556 0.0
H2583 H 0.93614 0.94841 0.56941 0.0
C2584 C 0.9009 0.93275 0.55889 0.0
C2585 C 0.8823 0.93043 0.54251 0.0
C2586 C 0.9521 0.97255 0.51132 0.0
C2587 C 0.92438 0.95707 0.53718 0.0
C2588 C 0.97286 0.98649 0.5088 0.0
C2589 C 0.98754 1.00014 0.52899 0.0
C2590 C 0.94622 0.97182 0.53416 0.0
C2591 C 0.98088 0.99933 0.55157 0.0
C2592 C 0.92195 0.94635 0.55644 0.0
C2593 C 0.8855 0.94122 0.52338 0.0
N2594 N 0.9607 0.98516 0.55359 0.0
N2595 N 0.90622 0.954 0.52114 0.0
H2596 H 0.85671 0.10445 0.25216 0.0
H2597 H 0.86413 0.2497 0.2878 0.0
H2598 H 0.90791 0.15341 0.30475 0.0
H2599 H 0.80108 0.19836 0.26253 0.0
H2600 H 0.88234 0.2159 0.28909 0.0
H2601 H 0.83871 0.13838 0.25022 0.0
C2602 C 0.86457 0.1223 0.26302 0.0
C2603 C 0.88451 0.12549 0.27832 0.0
C2604 C 0.86451 0.21187 0.2832 0.0
C2605 C 0.86327 0.1656 0.27626 0.0
C2606 C 0.85394 0.23143 0.28243 0.0
C2607 C 0.83058 0.22762 0.27524 0.0
C2608 C 0.8522 0.1875 0.27598 0.0
C2609 C 0.81891 0.20288 0.26851 0.0
C2610 C 0.85402 0.14188 0.26206 0.0
C2611 C 0.89298 0.14954 0.29227 0.0
N2612 N 0.82967 0.18425 0.26881 0.0
N2613 N 0.88267 0.16822 0.29075 0.0
H2614 H 0.75019 0.08863 0.05112 0.0
H2615 H 0.62553 0.0924 1.00045 0.0
H2616 H 0.73553 0.11389 0.98902 0.0
H2617 H 0.63765 0.06054 0.05866 0.0
H2618 H 0.6661 0.10194 0.99747 0.0
H2619 H 0.70959 0.07955 0.05554 0.0
C2620 C 0.73854 0.09225 0.0384 0.0
C2621 C 0.74652 0.102 0.0196 0.0
C2622 C 0.65994 0.09292 0.01097 0.0
C2623 C 0.69984 0.09175 0.02466 0.0
C2624 C 0.63667 0.08752 0.01273 0.0
C2625 C 0.62792 0.07564 0.02987 0.0
C2626 C 0.67486 0.08653 0.02648 0.0
C2627 C 0.64345 0.0697 0.04514 0.0
C2628 C 0.71531 0.08706 0.04094 0.0
C2629 C 0.73041 0.10634 1.00377 0.0
N2630 N 0.66603 0.07518 0.0431 0.0
N2631 N 0.70806 0.10124 1.00667 0.0
H2632 H 0.25306 0.53168 0.31179 0.0
H2633 H 0.31651 0.43392 0.24803 0.0
H2634 H 0.23759 0.49243 0.23789 0.0
H2635 H 0.32698 0.46814 0.32327 0.0
H2636 H 0.29454 0.46277 0.24181 0.0
H2637 H 0.28664 0.51582 0.314 0.0
C2638 C 0.25679 0.51982 0.29598 0.0
C2639 C 0.24226 0.51286 0.27478 0.0
C2640 C 0.30211 0.46434 0.25959 0.0
C2641 C 0.28066 0.49477 0.27719 0.0
C2642 C 0.31463 0.44792 0.26313 0.0
C2643 C 0.32318 0.4485 0.28624 0.0
C2644 C 0.29811 0.48127 0.27934 0.0
C2645 C 0.32064 0.46711 0.30518 0.0
C2646 C 0.27604 0.5109 0.29722 0.0
C2647 C 0.24818 0.49793 0.2547 0.0
N2648 N 0.30793 0.48254 0.30137 0.0
N2649 N 0.26681 0.48906 0.2565 0.0
H2650 H 0.2888 0.4707 0.05749 0.0
H2651 H 0.15693 0.45322 0.02559 0.0
H2652 H 0.24322 0.40051 0.04283 0.0
H2653 H 0.20731 0.51562 0.02123 0.0
H2654 H 0.18715 0.43385 0.03503 0.0
H2655 H 0.25781 0.48788 0.04755 0.0
C2656 C 0.27218 0.4589 0.05234 0.0
C2657 C 0.26852 0.43417 0.0511 0.0
C2658 C 0.19148 0.4517 0.03181 0.0
C2659 C 0.23286 0.45378 0.03956 0.0
C2660 C 0.17432 0.46277 0.02658 0.0
C2661 C 0.1797 0.48597 0.02253 0.0
C2662 C 0.21403 0.46413 0.03325 0.0
C2663 C 0.20243 0.49758 0.02387 0.0
C2664 C 0.25449 0.46871 0.0465 0.0
C2665 C 0.24667 0.4197 0.04402 0.0
N2666 N 0.21873 0.48656 0.0292 0.0
N2667 N 0.22953 0.42977 0.03858 0.0
H2668 H 0.9068 0.97762 0.2562 0.0
H2669 H 0.80779 0.88087 0.2945 0.0
H2670 H 0.85549 0.99703 0.29967 0.0
H2671 H 0.86421 0.85926 0.26174 0.0
H2672 H 0.82407 0.92266 0.29364 0.0
H2673 H 0.89083 0.93462 0.25481 0.0
C2674 C 0.89199 0.97304 0.26512 0.0
C2675 C 0.8826 0.9917 0.2779 0.0
C2676 C 0.83303 0.90891 0.28659 0.0
C2677 C 0.86401 0.94149 0.27656 0.0
C2678 C 0.82363 0.88471 0.28706 0.0
C2679 C 0.83439 0.86579 0.27824 0.0
C2680 C 0.85358 0.91508 0.277 0.0
C2681 C 0.85504 0.87277 0.26887 0.0
C2682 C 0.88293 0.94826 0.2645 0.0
C2683 C 0.86355 0.98386 0.28941 0.0
N2684 N 0.86378 0.8965 0.26845 0.0
N2685 N 0.85508 0.95987 0.28841 0.0
H2686 H 0.69256 0.11052 0.73818 0.0
H2687 H 0.80574 0.21103 0.75081 0.0
H2688 H 0.75123 0.11551 0.78577 0.0
H2689 H 0.74003 0.22706 0.74695 0.0
H2690 H 0.78769 0.16879 0.74894 0.0
H2691 H 0.71226 0.14701 0.72722 0.0
C2692 C 0.70964 0.11917 0.74609 0.0
C2693 C 0.72023 0.11046 0.76321 0.0
C2694 C 0.77732 0.18153 0.74793 0.0
C2695 C 0.74278 0.15118 0.75026 0.0
C2696 C 0.78752 0.20542 0.74889 0.0
C2697 C 0.77419 0.22223 0.74926 0.0
C2698 C 0.75378 0.17466 0.74679 0.0
C2699 C 0.75072 0.21444 0.74695 0.0
C2700 C 0.7208 0.13979 0.73979 0.0
C2701 C 0.74239 0.12207 0.77287 0.0
N2702 N 0.74117 0.19109 0.74591 0.0
N2703 N 0.753 0.14196 0.76626 0.0
loop_
_geom_bond_atom_site_label_1
_geom_bond_atom_site_label_2
_geom_bond_distance
_geom_bond_site_symmetry_2
_ccdc_geom_bond_type
Mg0 O1 2.028 . S
Mg0 O7 1.986 . S
Mg0 O9 2.114 . S
Mg0 O10 2.251 . S
Mg0 O13 2.010 . S
O1 Mg0 2.028 . S
O1 C4 1.250 . S
O2 Mg3 2.028 . S
O2 C4 1.248 . S
Mg3 O2 2.028 . S
Mg3 O8 2.032 . S
Mg3 O10 2.079 . S
C4 O1 1.250 . S
C4 O2 1.248 . S
C5 O6 1.264 . S
C5 O13 1.249 . S
O6 C5 1.264 . S
O7 Mg0 1.986 . S
O7 C11 1.246 . S
O8 Mg3 2.032 . S
O8 C11 1.259 . S
O9 Mg0 2.114 . S
O9 C12 1.252 . S
O10 Mg0 2.251 . S
O10 Mg3 2.079 . S
O10 C12 1.273 . S
C11 O7 1.246 . S
C11 O8 1.259 . S
C12 O9 1.252 . S
C12 O10 1.273 . S
O13 Mg0 2.010 . S
O13 C5 1.249 . S
Mg14 O15 2.028 . S
Mg14 O21 1.986 . S
Mg14 O23 2.114 1_455 S
Mg14 O24 2.251 1_455 S
Mg14 O27 2.010 . S
O15 Mg14 2.028 . S
O15 C18 1.250 1_455 S
O16 Mg17 2.028 . S
O16 C18 1.248 . S
Mg17 O16 2.028 . S
Mg17 O22 2.032 . S
Mg17 O24 2.079 . S
C18 O15 1.250 1_655 S
C18 O16 1.248 . S
C19 O20 1.264 . S
C19 O27 1.249 . S
O20 C19 1.264 . S
O21 Mg14 1.986 . S
O21 C25 1.246 1_455 S
O22 Mg17 2.032 . S
O22 C25 1.259 . S
O23 Mg14 2.114 1_655 S
O23 C26 1.252 . S
O24 Mg14 2.251 1_655 S
O24 Mg17 2.079 . S
O24 C26 1.273 . S
C25 O21 1.246 1_655 S
C25 O22 1.259 . S
C26 O23 1.252 . S
C26 O24 1.273 . S
O27 Mg14 2.010 . S
O27 C19 1.249 . S
Mg28 O29 2.028 . S
Mg28 O35 1.986 . S
Mg28 O37 2.114 . S
Mg28 O38 2.251 . S
Mg28 O41 2.010 . S
O29 Mg28 2.028 . S
O29 C32 1.250 . S
O30 Mg31 2.028 . S
O30 C32 1.248 . S
Mg31 O30 2.028 . S
Mg31 O36 2.032 . S
Mg31 O38 2.079 . S
C32 O29 1.250 . S
C32 O30 1.248 . S
C33 O34 1.264 . S
C33 O41 1.249 . S
O34 C33 1.264 . S
O35 Mg28 1.986 . S
O35 C39 1.246 . S
O36 Mg31 2.032 . S
O36 C39 1.259 . S
O37 Mg28 2.114 . S
O37 C40 1.252 . S
O38 Mg28 2.251 . S
O38 Mg31 2.079 . S
O38 C40 1.273 . S
C39 O35 1.246 . S
C39 O36 1.259 . S
C40 O37 1.252 . S
C40 O38 1.273 . S
O41 Mg28 2.010 . S
O41 C33 1.249 . S
Mg42 O43 2.028 . S
Mg42 O49 1.986 . S
Mg42 O51 2.114 . S
Mg42 O52 2.251 . S
Mg42 O55 2.010 . S
O43 Mg42 2.028 . S
O43 C46 1.250 . S
O44 Mg45 2.028 . S
O44 C46 1.248 . S
Mg45 O44 2.028 . S
Mg45 O50 2.032 . S
Mg45 O52 2.079 . S
C46 O43 1.250 . S
C46 O44 1.248 . S
C47 O48 1.264 . S
C47 O55 1.249 . S
O48 C47 1.264 . S
O49 Mg42 1.986 . S
O49 C53 1.246 . S
O50 Mg45 2.032 . S
O50 C53 1.259 . S
O51 Mg42 2.114 . S
O51 C54 1.252 . S
O52 Mg42 2.251 . S
O52 Mg45 2.079 . S
O52 C54 1.273 . S
C53 O49 1.246 . S
C53 O50 1.259 . S
C54 O51 1.252 . S
C54 O52 1.273 . S
O55 Mg42 2.010 . S
O55 C47 1.249 . S
Mg56 O57 2.028 . S
Mg56 O63 1.986 . S
Mg56 O65 2.114 . S
Mg56 O66 2.251 . S
Mg56 O69 2.010 . S
O57 Mg56 2.028 . S
O57 C60 1.250 . S
O58 Mg59 2.028 . S
O58 C60 1.248 . S
Mg59 O58 2.028 . S
Mg59 O64 2.032 . S
Mg59 O66 2.079 . S
C60 O57 1.250 . S
C60 O58 1.248 . S
C61 O62 1.264 . S
C61 O69 1.249 . S
O62 C61 1.264 . S
O63 Mg56 1.986 . S
O63 C67 1.246 . S
O64 Mg59 2.032 . S
O64 C67 1.259 . S
O65 Mg56 2.114 . S
O65 C68 1.252 . S
O66 Mg56 2.251 . S
O66 Mg59 2.079 . S
O66 C68 1.273 . S
C67 O63 1.246 . S
C67 O64 1.259 . S
C68 O65 1.252 . S
C68 O66 1.273 . S
O69 Mg56 2.010 . S
O69 C61 1.249 . S
Mg70 O71 2.028 . S
Mg70 O77 1.986 . S
Mg70 O79 2.114 . S
Mg70 O80 2.251 . S
Mg70 O83 2.010 . S
O71 Mg70 2.028 . S
O71 C74 1.250 . S
O72 Mg73 2.028 . S
O72 C74 1.248 . S
Mg73 O72 2.028 . S
Mg73 O78 2.032 . S
Mg73 O80 2.079 . S
C74 O71 1.250 . S
C74 O72 1.248 . S
C75 O76 1.264 . S
C75 O83 1.249 . S
O76 C75 1.264 . S
O77 Mg70 1.986 . S
O77 C81 1.246 . S
O78 Mg73 2.032 . S
O78 C81 1.259 . S
O79 Mg70 2.114 . S
O79 C82 1.252 . S
O80 Mg70 2.251 . S
O80 Mg73 2.079 . S
O80 C82 1.273 . S
C81 O77 1.246 . S
C81 O78 1.259 . S
C82 O79 1.252 . S
C82 O80 1.273 . S
O83 Mg70 2.010 . S
O83 C75 1.249 . S
Mg84 O85 2.028 . S
Mg84 O91 1.986 . S
Mg84 O93 2.114 . S
Mg84 O94 2.251 . S
Mg84 O97 2.010 . S
O85 Mg84 2.028 . S
O85 C88 1.250 . S
O86 Mg87 2.028 . S
O86 C88 1.248 . S
Mg87 O86 2.028 . S
Mg87 O92 2.032 . S
Mg87 O94 2.079 . S
C88 O85 1.250 . S
C88 O86 1.248 . S
C89 O90 1.264 . S
C89 O97 1.249 . S
O90 C89 1.264 . S
O91 Mg84 1.986 . S
O91 C95 1.246 . S
O92 Mg87 2.032 . S
O92 C95 1.259 . S
O93 Mg84 2.114 . S
O93 C96 1.252 . S
O94 Mg84 2.251 . S
O94 Mg87 2.079 . S
O94 C96 1.273 . S
C95 O91 1.246 . S
C95 O92 1.259 . S
C96 O93 1.252 . S
C96 O94 1.273 . S
O97 Mg84 2.010 . S
O97 C89 1.249 . S
Mg98 O99 2.028 . S
Mg98 O105 1.986 . S
Mg98 O107 2.114 1_455 S
Mg98 O108 2.251 1_455 S
Mg98 O111 2.010 . S
O99 Mg98 2.028 . S
O99 C102 1.250 . S
O100 Mg101 2.028 . S
O100 C102 1.248 1_655 S
Mg101 O100 2.028 . S
Mg101 O106 2.032 . S
Mg101 O108 2.079 . S
C102 O99 1.250 . S
C102 O100 1.248 1_455 S
C103 O104 1.264 . S
C103 O111 1.249 . S
O104 C103 1.264 . S
O105 Mg98 1.986 . S
O105 C109 1.246 . S
O106 Mg101 2.032 . S
O106 C109 1.259 1_655 S
O107 Mg98 2.114 1_655 S
O107 C110 1.252 . S
O108 Mg98 2.251 1_655 S
O108 Mg101 2.079 . S
O108 C110 1.273 . S
C109 O105 1.246 . S
C109 O106 1.259 1_455 S
C110 O107 1.252 . S
C110 O108 1.273 . S
O111 Mg98 2.010 . S
O111 C103 1.249 . S
Mg112 O113 2.028 1_545 S
Mg112 O119 1.986 . S
Mg112 O121 2.114 . S
Mg112 O122 2.251 . S
Mg112 O125 2.010 . S
O113 Mg112 2.028 1_565 S
O113 C116 1.250 . S
O114 Mg115 2.028 1_565 S
O114 C116 1.248 . S
Mg115 O114 2.028 1_545 S
Mg115 O120 2.032 . S
Mg115 O122 2.079 . S
C116 O113 1.250 . S
C116 O114 1.248 . S
C117 O118 1.264 . S
C117 O125 1.249 . S
O118 C117 1.264 . S
O119 Mg112 1.986 . S
O119 C123 1.246 . S
O120 Mg115 2.032 . S
O120 C123 1.259 . S
O121 Mg112 2.114 . S
O121 C124 1.252 . S
O122 Mg112 2.251 . S
O122 Mg115 2.079 . S
O122 C124 1.273 . S
C123 O119 1.246 . S
C123 O120 1.259 . S
C124 O121 1.252 . S
C124 O122 1.273 . S
O125 Mg112 2.010 . S
O125 C117 1.249 . S
Mg126 O127 2.028 . S
Mg126 O133 1.986 . S
Mg126 O135 2.114 . S
Mg126 O136 2.251 . S
Mg126 O139 2.010 . S
O127 Mg126 2.028 . S
O127 C130 1.250 . S
O128 Mg129 2.028 . S
O128 C130 1.248 . S
Mg129 O128 2.028 . S
Mg129 O134 2.032 . S
Mg129 O136 2.079 . S
C130 O127 1.250 . S
C130 O128 1.248 . S
C131 O132 1.264 . S
C131 O139 1.249 . S
O132 C131 1.264 . S
O133 Mg126 1.986 . S
O133 C137 1.246 . S
O134 Mg129 2.032 . S
O134 C137 1.259 . S
O135 Mg126 2.114 . S
O135 C138 1.252 . S
O136 Mg126 2.251 . S
O136 Mg129 2.079 . S
O136 C138 1.273 . S
C137 O133 1.246 . S
C137 O134 1.259 . S
C138 O135 1.252 . S
C138 O136 1.273 . S
O139 Mg126 2.010 . S
O139 C131 1.249 . S
Mg140 O141 2.028 1_565 S
Mg140 O147 1.986 . S
Mg140 O149 2.114 1_565 S
Mg140 O150 2.251 1_565 S
Mg140 O153 2.010 . S
O141 Mg140 2.028 1_545 S
O141 C144 1.250 . S
O142 Mg143 2.028 . S
O142 C144 1.248 . S
Mg143 O142 2.028 . S
Mg143 O148 2.032 1_545 S
Mg143 O150 2.079 . S
C144 O141 1.250 . S
C144 O142 1.248 . S
C145 O146 1.264 . S
C145 O153 1.249 . S
O146 C145 1.264 . S
O147 Mg140 1.986 . S
O147 C151 1.246 . S
O148 Mg143 2.032 1_565 S
O148 C151 1.259 . S
O149 Mg140 2.114 1_545 S
O149 C152 1.252 . S
O150 Mg140 2.251 1_545 S
O150 Mg143 2.079 . S
O150 C152 1.273 . S
C151 O147 1.246 . S
C151 O148 1.259 . S
C152 O149 1.252 . S
C152 O150 1.273 . S
O153 Mg140 2.010 . S
O153 C145 1.249 . S
Mg154 O155 2.028 1_554 S
Mg154 O161 1.986 . S
Mg154 O163 2.114 . S
Mg154 O164 2.251 . S
Mg154 O167 2.010 . S
O155 Mg154 2.028 1_556 S
O155 C158 1.250 . S
O156 Mg157 2.028 1_556 S
O156 C158 1.248 . S
Mg157 O156 2.028 1_554 S
Mg157 O162 2.032 . S
Mg157 O164 2.079 . S
C158 O155 1.250 . S
C158 O156 1.248 . S
C159 O160 1.264 . S
C159 O167 1.249 . S
O160 C159 1.264 . S
O161 Mg154 1.986 . S
O161 C165 1.246 . S
O162 Mg157 2.032 . S
O162 C165 1.259 . S
O163 Mg154 2.114 . S
O163 C166 1.252 . S
O164 Mg154 2.251 . S
O164 Mg157 2.079 . S
O164 C166 1.273 . S
C165 O161 1.246 . S
C165 O162 1.259 . S
C166 O163 1.252 . S
C166 O164 1.273 . S
O167 Mg154 2.010 . S
O167 C159 1.249 . S
Mg168 O169 2.028 1_554 S
Mg168 O175 1.986 . S
Mg168 O177 2.114 . S
Mg168 O178 2.251 . S
Mg168 O181 2.010 . S
O169 Mg168 2.028 1_556 S
O169 C172 1.250 . S
O170 Mg171 2.028 1_556 S
O170 C172 1.248 . S
Mg171 O170 2.028 1_554 S
Mg171 O176 2.032 . S
Mg171 O178 2.079 . S
C172 O169 1.250 . S
C172 O170 1.248 . S
C173 O174 1.264 . S
C173 O181 1.249 . S
O174 C173 1.264 . S
O175 Mg168 1.986 . S
O175 C179 1.246 . S
O176 Mg171 2.032 . S
O176 C179 1.259 . S
O177 Mg168 2.114 . S
O177 C180 1.252 . S
O178 Mg168 2.251 . S
O178 Mg171 2.079 . S
O178 C180 1.273 . S
C179 O175 1.246 . S
C179 O176 1.259 . S
C180 O177 1.252 . S
C180 O178 1.273 . S
O181 Mg168 2.010 . S
O181 C173 1.249 . S
Mg182 O183 2.028 . S
Mg182 O189 1.986 1_554 S
Mg182 O191 2.114 . S
Mg182 O192 2.251 . S
Mg182 O195 2.010 . S
O183 Mg182 2.028 . S
O183 C186 1.250 . S
O184 Mg185 2.028 . S
O184 C186 1.248 . S
Mg185 O184 2.028 . S
Mg185 O190 2.031 1_554 S
Mg185 O192 2.079 . S
C186 O183 1.250 . S
C186 O184 1.248 . S
C187 O188 1.264 1_554 S
C187 O195 1.249 . S
O188 C187 1.264 1_556 S
O189 Mg182 1.986 1_556 S
O189 C193 1.246 . S
O190 Mg185 2.031 1_556 S
O190 C193 1.260 . S
O191 Mg182 2.114 . S
O191 C194 1.252 . S
O192 Mg182 2.251 . S
O192 Mg185 2.079 . S
O192 C194 1.273 . S
C193 O189 1.246 . S
C193 O190 1.260 . S
C194 O191 1.252 . S
C194 O192 1.273 . S
O195 Mg182 2.010 . S
O195 C187 1.249 . S
Mg196 O197 2.028 . S
Mg196 O203 1.986 . S
Mg196 O205 2.114 . S
Mg196 O206 2.251 . S
Mg196 O209 2.010 . S
O197 Mg196 2.028 . S
O197 C200 1.250 . S
O198 Mg199 2.028 . S
O198 C200 1.248 . S
Mg199 O198 2.028 . S
Mg199 O204 2.032 . S
Mg199 O206 2.079 . S
C200 O197 1.250 . S
C200 O198 1.248 . S
C201 O202 1.264 . S
C201 O209 1.249 . S
O202 C201 1.264 . S
O203 Mg196 1.986 . S
O203 C207 1.246 . S
O204 Mg199 2.032 . S
O204 C207 1.259 . S
O205 Mg196 2.114 . S
O205 C208 1.252 . S
O206 Mg196 2.251 . S
O206 Mg199 2.079 . S
O206 C208 1.273 . S
C207 O203 1.246 . S
C207 O204 1.259 . S
C208 O205 1.252 . S
C208 O206 1.273 . S
O209 Mg196 2.010 . S
O209 C201 1.249 . S
Mg210 O211 2.028 . S
Mg210 O217 1.986 . S
Mg210 O219 2.114 . S
Mg210 O220 2.251 . S
Mg210 O223 2.010 . S
O211 Mg210 2.028 . S
O211 C214 1.250 . S
O212 Mg213 2.028 . S
O212 C214 1.248 . S
Mg213 O212 2.028 . S
Mg213 O218 2.032 . S
Mg213 O220 2.079 . S
C214 O211 1.250 . S
C214 O212 1.248 . S
C215 O216 1.264 . S
C215 O223 1.249 . S
O216 C215 1.264 . S
O217 Mg210 1.986 . S
O217 C221 1.246 . S
O218 Mg213 2.032 . S
O218 C221 1.259 . S
O219 Mg210 2.114 . S
O219 C222 1.252 . S
O220 Mg210 2.251 . S
O220 Mg213 2.079 . S
O220 C222 1.273 . S
C221 O217 1.246 . S
C221 O218 1.259 . S
C222 O219 1.252 . S
C222 O220 1.273 . S
O223 Mg210 2.010 . S
O223 C215 1.249 . S
Mg224 O225 2.028 . S
Mg224 O231 1.986 . S
Mg224 O233 2.114 . S
Mg224 O234 2.251 . S
Mg224 O237 2.010 . S
O225 Mg224 2.028 . S
O225 C228 1.250 . S
O226 Mg227 2.028 . S
O226 C228 1.248 . S
Mg227 O226 2.028 . S
Mg227 O232 2.032 . S
Mg227 O234 2.079 . S
C228 O225 1.250 . S
C228 O226 1.248 . S
C229 O230 1.264 . S
C229 O237 1.249 . S
O230 C229 1.264 . S
O231 Mg224 1.986 . S
O231 C235 1.246 . S
O232 Mg227 2.032 . S
O232 C235 1.259 . S
O233 Mg224 2.114 . S
O233 C236 1.252 . S
O234 Mg224 2.251 . S
O234 Mg227 2.079 . S
O234 C236 1.273 . S
C235 O231 1.246 . S
C235 O232 1.259 . S
C236 O233 1.252 . S
C236 O234 1.273 . S
O237 Mg224 2.010 . S
O237 C229 1.249 . S
Mg238 O239 2.028 . S
Mg238 O245 1.986 . S
Mg238 O247 2.114 . S
Mg238 O248 2.251 . S
Mg238 O251 2.010 . S
O239 Mg238 2.028 . S
O239 C242 1.250 . S
O240 Mg241 2.028 . S
O240 C242 1.248 . S
Mg241 O240 2.028 . S
Mg241 O246 2.032 . S
Mg241 O248 2.079 . S
C242 O239 1.250 . S
C242 O240 1.248 . S
C243 O244 1.264 . S
C243 O251 1.249 . S
O244 C243 1.264 . S
O245 Mg238 1.986 . S
O245 C249 1.246 . S
O246 Mg241 2.032 . S
O246 C249 1.259 . S
O247 Mg238 2.114 . S
O247 C250 1.252 . S
O248 Mg238 2.251 . S
O248 Mg241 2.079 . S
O248 C250 1.273 . S
C249 O245 1.246 . S
C249 O246 1.259 . S
C250 O247 1.252 . S
C250 O248 1.273 . S
O251 Mg238 2.010 . S
O251 C243 1.249 . S
Mg252 O253 2.028 . S
Mg252 O259 1.986 . S
Mg252 O261 2.114 . S
Mg252 O262 2.251 . S
Mg252 O265 2.010 . S
O253 Mg252 2.028 . S
O253 C256 1.250 . S
O254 Mg255 2.028 . S
O254 C256 1.248 . S
Mg255 O254 2.028 . S
Mg255 O260 2.032 . S
Mg255 O262 2.079 . S
C256 O253 1.250 . S
C256 O254 1.248 . S
C257 O258 1.264 . S
C257 O265 1.249 . S
O258 C257 1.264 . S
O259 Mg252 1.986 . S
O259 C263 1.246 . S
O260 Mg255 2.032 . S
O260 C263 1.259 . S
O261 Mg252 2.114 . S
O261 C264 1.252 . S
O262 Mg252 2.251 . S
O262 Mg255 2.079 . S
O262 C264 1.273 . S
C263 O259 1.246 . S
C263 O260 1.259 . S
C264 O261 1.252 . S
C264 O262 1.273 . S
O265 Mg252 2.010 . S
O265 C257 1.249 . S
Mg266 O267 2.028 . S
Mg266 O273 1.986 . S
Mg266 O275 2.114 . S
Mg266 O276 2.251 . S
Mg266 O279 2.010 . S
O267 Mg266 2.028 . S
O267 C270 1.250 . S
O268 Mg269 2.028 . S
O268 C270 1.248 . S
Mg269 O268 2.028 . S
Mg269 O274 2.032 . S
Mg269 O276 2.079 . S
C270 O267 1.250 . S
C270 O268 1.248 . S
C271 O272 1.264 . S
C271 O279 1.249 . S
O272 C271 1.264 . S
O273 Mg266 1.986 . S
O273 C277 1.246 . S
O274 Mg269 2.032 . S
O274 C277 1.259 . S
O275 Mg266 2.114 . S
O275 C278 1.252 . S
O276 Mg266 2.251 . S
O276 Mg269 2.079 . S
O276 C278 1.273 . S
C277 O273 1.246 . S
C277 O274 1.259 . S
C278 O275 1.252 . S
C278 O276 1.273 . S
O279 Mg266 2.010 . S
O279 C271 1.249 . S
Mg280 O281 2.054 . S
Mg280 O287 1.964 1_554 S
Mg280 O289 2.129 . S
Mg280 O290 2.252 . S
Mg280 O293 2.011 1_554 S
O281 Mg280 2.054 . S
O281 C284 1.250 . S
O282 Mg283 2.028 . S
O282 C284 1.248 . S
Mg283 O282 2.028 . S
Mg283 O288 2.032 1_554 S
Mg283 O290 2.079 . S
C284 O281 1.250 . S
C284 O282 1.248 . S
C285 O286 1.264 . S
C285 O293 1.249 . S
O286 C285 1.264 . S
O287 Mg280 1.964 1_556 S
O287 C291 1.246 . S
O288 Mg283 2.032 1_556 S
O288 C291 1.259 . S
O289 Mg280 2.129 . S
O289 C292 1.252 . S
O290 Mg280 2.252 . S
O290 Mg283 2.079 . S
O290 C292 1.273 . S
C291 O287 1.246 . S
C291 O288 1.259 . S
C292 O289 1.252 . S
C292 O290 1.273 . S
O293 Mg280 2.011 1_556 S
O293 C285 1.249 . S
Mg294 O295 2.028 . S
Mg294 O301 1.986 . S
Mg294 O303 2.114 . S
Mg294 O304 2.251 . S
Mg294 O307 2.010 . S
O295 Mg294 2.028 . S
O295 C298 1.250 . S
O296 Mg297 2.028 . S
O296 C298 1.248 . S
Mg297 O296 2.028 . S
Mg297 O302 2.032 . S
Mg297 O304 2.079 . S
C298 O295 1.250 . S
C298 O296 1.248 . S
C299 O300 1.264 . S
C299 O307 1.249 . S
O300 C299 1.264 . S
O301 Mg294 1.986 . S
O301 C305 1.246 . S
O302 Mg297 2.032 . S
O302 C305 1.259 . S
O303 Mg294 2.114 . S
O303 C306 1.252 . S
O304 Mg294 2.251 . S
O304 Mg297 2.079 . S
O304 C306 1.273 . S
C305 O301 1.246 . S
C305 O302 1.259 . S
C306 O303 1.252 . S
C306 O304 1.273 . S
O307 Mg294 2.010 . S
O307 C299 1.249 . S
Mg308 O309 2.028 . S
Mg308 O315 1.986 . S
Mg308 O317 2.114 . S
Mg308 O318 2.251 . S
Mg308 O321 2.010 . S
O309 Mg308 2.028 . S
O309 C312 1.250 . S
O310 Mg311 2.028 . S
O310 C312 1.248 . S
Mg311 O310 2.028 . S
Mg311 O316 2.032 . S
Mg311 O318 2.079 . S
C312 O309 1.250 . S
C312 O310 1.248 . S
C313 O314 1.264 . S
C313 O321 1.249 . S
O314 C313 1.264 . S
O315 Mg308 1.986 . S
O315 C319 1.246 . S
O316 Mg311 2.032 . S
O316 C319 1.259 . S
O317 Mg308 2.114 . S
O317 C320 1.252 . S
O318 Mg308 2.251 . S
O318 Mg311 2.079 . S
O318 C320 1.273 . S
C319 O315 1.246 . S
C319 O316 1.259 . S
C320 O317 1.252 . S
C320 O318 1.273 . S
O321 Mg308 2.010 . S
O321 C313 1.249 . S
Mg322 O323 2.028 . S
Mg322 O329 1.986 . S
Mg322 O331 2.114 . S
Mg322 O332 2.251 . S
Mg322 O335 2.010 . S
O323 Mg322 2.028 . S
O323 C326 1.250 . S
O324 Mg325 2.028 . S
O324 C326 1.248 . S
Mg325 O324 2.028 . S
Mg325 O330 2.032 . S
Mg325 O332 2.079 . S
C326 O323 1.250 . S
C326 O324 1.248 . S
C327 O328 1.264 . S
C327 O335 1.249 . S
O328 C327 1.264 . S
O329 Mg322 1.986 . S
O329 C333 1.246 . S
O330 Mg325 2.032 . S
O330 C333 1.259 . S
O331 Mg322 2.114 . S
O331 C334 1.252 . S
O332 Mg322 2.251 . S
O332 Mg325 2.079 . S
O332 C334 1.273 . S
C333 O329 1.246 . S
C333 O330 1.259 . S
C334 O331 1.252 . S
C334 O332 1.273 . S
O335 Mg322 2.010 . S
O335 C327 1.249 . S
Eu336 C345 2.828 . S
Eu336 O347 2.392 . S
Eu336 O349 2.418 . S
Eu336 O354 2.373 . S
Eu336 O357 2.488 . S
Eu336 O358 2.471 1_554 S
Eu336 O359 2.349 1_554 S
Eu337 O346 2.373 1_565 S
Eu337 O350 2.488 1_554 S
Eu337 O351 2.471 . S
Eu337 O352 2.349 1_565 S
Eu337 O355 2.392 1_564 S
Eu337 O356 2.418 1_554 S
Eu337 C366 2.828 . S
C338 O356 1.244 1_545 S
C338 O359 1.265 . S
C339 C340 1.379 1_554 S
C339 C343 1.373 . S
C339 C345 1.505 . S
C340 C339 1.379 1_556 S
C340 C342 1.369 . S
C340 H368 0.930 . S
C341 C343 1.383 . S
C341 C344 1.382 1_554 S
C341 H369 0.930 . S
C342 C340 1.369 . S
C342 C344 1.392 . S
C342 H370 0.930 . S
C343 C339 1.373 . S
C343 C341 1.383 . S
C343 H371 0.931 . S
C344 C341 1.382 1_556 S
C344 C342 1.392 . S
C345 Eu336 2.828 . S
C345 C339 1.505 . S
C345 O357 1.249 . S
C345 O358 1.244 1_554 S
O346 Eu337 2.373 1_545 S
O346 C348 1.258 . S
O347 Eu336 2.392 . S
O347 C348 1.242 . S
C348 O346 1.258 . S
C348 O347 1.242 . S
O349 Eu336 2.418 . S
O349 C353 1.244 . S
O350 Eu337 2.488 1_556 S
O350 C366 1.249 1_556 S
O351 Eu337 2.471 . S
O351 C366 1.244 . S
O352 Eu337 2.349 1_545 S
O352 C353 1.265 . S
C353 O349 1.244 . S
C353 O352 1.265 . S
O354 Eu336 2.373 . S
O354 C367 1.262 . S
O355 Eu337 2.392 1_546 S
O355 C367 1.242 1_556 S
O356 Eu337 2.418 1_556 S
O356 C338 1.244 1_565 S
O357 Eu336 2.488 . S
O357 C345 1.249 . S
O358 Eu336 2.471 1_556 S
O358 C345 1.244 1_556 S
O359 Eu336 2.349 1_556 S
O359 C338 1.265 . S
C360 C361 1.379 . S
C360 C364 1.373 . S
C360 C366 1.505 . S
C361 C360 1.379 . S
C361 C363 1.369 . S
C361 H372 0.930 . S
C362 C364 1.383 . S
C362 C365 1.382 . S
C362 H373 0.930 . S
C363 C361 1.369 . S
C363 C365 1.392 . S
C363 H374 0.930 . S
C364 C360 1.373 . S
C364 C362 1.383 . S
C364 H375 0.931 1_554 S
C365 C362 1.382 . S
C365 C363 1.392 . S
C366 Eu337 2.828 . S
C366 O350 1.249 1_554 S
C366 O351 1.244 . S
C366 C360 1.505 . S
C367 O354 1.262 . S
C367 O355 1.242 1_554 S
H368 C340 0.930 . S
H369 C341 0.930 . S
H370 C342 0.930 . S
H371 C343 0.931 . S
H372 C361 0.930 . S
H373 C362 0.930 . S
H374 C363 0.930 . S
H375 C364 0.931 1_556 S
Eu376 C385 2.828 . S
Eu376 O387 2.392 . S
Eu376 O389 2.418 . S
Eu376 O394 2.373 . S
Eu376 O397 2.488 . S
Eu376 O398 2.471 . S
Eu376 O399 2.349 . S
Eu377 O386 2.373 . S
Eu377 O390 2.488 . S
Eu377 O391 2.471 . S
Eu377 O392 2.349 . S
Eu377 O395 2.392 . S
Eu377 O396 2.418 . S
Eu377 C406 2.828 . S
C378 O396 1.244 . S
C378 O399 1.265 . S
C379 C380 1.379 . S
C379 C383 1.373 . S
C379 C385 1.505 . S
C380 C379 1.379 . S
C380 C382 1.369 . S
C380 H408 0.930 . S
C381 C383 1.383 . S
C381 C384 1.382 . S
C381 H409 0.930 . S
C382 C380 1.369 . S
C382 C384 1.392 . S
C382 H410 0.930 . S
C383 C379 1.373 . S
C383 C381 1.383 . S
C383 H411 0.931 . S
C384 C381 1.382 . S
C384 C382 1.392 . S
C385 Eu376 2.828 . S
C385 C379 1.505 . S
C385 O397 1.249 . S
C385 O398 1.244 . S
O386 Eu377 2.373 . S
O386 C388 1.258 . S
O387 Eu376 2.392 . S
O387 C388 1.242 . S
C388 O386 1.258 . S
C388 O387 1.242 . S
O389 Eu376 2.418 . S
O389 C393 1.244 . S
O390 Eu377 2.488 . S
O390 C406 1.249 . S
O391 Eu377 2.471 . S
O391 C406 1.244 . S
O392 Eu377 2.349 . S
O392 C393 1.265 . S
C393 O389 1.244 . S
C393 O392 1.265 . S
O394 Eu376 2.373 . S
O394 C407 1.258 . S
O395 Eu377 2.392 . S
O395 C407 1.242 . S
O396 Eu377 2.418 . S
O396 C378 1.244 . S
O397 Eu376 2.488 . S
O397 C385 1.249 . S
O398 Eu376 2.471 . S
O398 C385 1.244 . S
O399 Eu376 2.349 . S
O399 C378 1.265 . S
C400 C401 1.379 . S
C400 C404 1.373 . S
C400 C406 1.505 . S
C401 C400 1.379 . S
C401 C403 1.369 . S
C401 H412 0.930 . S
C402 C404 1.383 . S
C402 C405 1.382 . S
C402 H413 0.930 . S
C403 C401 1.369 . S
C403 C405 1.392 . S
C403 H414 0.930 . S
C404 C400 1.373 . S
C404 C402 1.383 . S
C404 H415 0.931 . S
C405 C402 1.382 . S
C405 C403 1.392 . S
C406 Eu377 2.828 . S
C406 O390 1.249 . S
C406 O391 1.244 . S
C406 C400 1.505 . S
C407 O394 1.258 . S
C407 O395 1.242 . S
H408 C380 0.930 . S
H409 C381 0.930 . S
H410 C382 0.930 . S
H411 C383 0.931 . S
H412 C401 0.930 . S
H413 C402 0.930 . S
H414 C403 0.930 . S
H415 C404 0.931 . S
Eu416 C425 2.828 . S
Eu416 O427 2.392 . S
Eu416 O429 2.418 . S
Eu416 O434 2.373 1_545 S
Eu416 O437 2.488 . S
Eu416 O438 2.471 . S
Eu416 O439 2.349 . S
Eu417 O426 2.373 . S
Eu417 O430 2.488 . S
Eu417 O431 2.471 . S
Eu417 O432 2.349 . S
Eu417 O435 2.392 1_545 S
Eu417 O436 2.418 . S
Eu417 C446 2.828 . S
C418 O436 1.244 . S
C418 O439 1.265 . S
C419 C420 1.379 . S
C419 C423 1.373 . S
C419 C425 1.505 1_565 S
C420 C419 1.379 . S
C420 C422 1.369 . S
C420 H448 0.930 . S
C421 C423 1.383 . S
C421 C424 1.382 . S
C421 H449 0.930 . S
C422 C420 1.369 . S
C422 C424 1.392 . S
C422 H450 0.930 . S
C423 C419 1.373 . S
C423 C421 1.383 . S
C423 H451 0.931 1_565 S
C424 C421 1.382 . S
C424 C422 1.392 . S
C425 Eu416 2.828 . S
C425 C419 1.505 1_545 S
C425 O437 1.249 . S
C425 O438 1.244 . S
O426 Eu417 2.373 . S
O426 C428 1.258 . S
O427 Eu416 2.392 . S
O427 C428 1.242 . S
C428 O426 1.258 . S
C428 O427 1.242 . S
O429 Eu416 2.418 . S
O429 C433 1.244 . S
O430 Eu417 2.488 . S
O430 C446 1.249 . S
O431 Eu417 2.471 . S
O431 C446 1.244 . S
O432 Eu417 2.349 . S
O432 C433 1.265 . S
C433 O429 1.244 . S
C433 O432 1.265 . S
O434 Eu416 2.373 1_565 S
O434 C447 1.258 . S
O435 Eu417 2.392 1_565 S
O435 C447 1.242 . S
O436 Eu417 2.418 . S
O436 C418 1.244 . S
O437 Eu416 2.488 . S
O437 C425 1.249 . S
O438 Eu416 2.471 . S
O438 C425 1.244 . S
O439 Eu416 2.349 . S
O439 C418 1.265 . S
C440 C441 1.379 . S
C440 C444 1.373 . S
C440 C446 1.505 . S
C441 C440 1.379 . S
C441 C443 1.369 . S
C441 H452 0.930 . S
C442 C444 1.383 . S
C442 C445 1.382 . S
C442 H453 0.930 . S
C443 C441 1.369 . S
C443 C445 1.392 . S
C443 H454 0.930 . S
C444 C440 1.373 . S
C444 C442 1.383 . S
C444 H455 0.931 . S
C445 C442 1.382 . S
C445 C443 1.392 . S
C446 Eu417 2.828 . S
C446 O430 1.249 . S
C446 O431 1.244 . S
C446 C440 1.505 . S
C447 O434 1.258 . S
C447 O435 1.242 . S
H448 C420 0.930 . S
H449 C421 0.930 . S
H450 C422 0.930 . S
H451 C423 0.931 1_545 S
H452 C441 0.930 . S
H453 C442 0.930 . S
H454 C443 0.930 . S
H455 C444 0.931 . S
Eu456 C465 2.828 . S
Eu456 O467 2.392 . S
Eu456 O469 2.418 . S
Eu456 O474 2.373 . S
Eu456 O477 2.488 . S
Eu456 O478 2.471 . S
Eu456 O479 2.349 . S
Eu457 O466 2.373 . S
Eu457 O470 2.488 . S
Eu457 O471 2.471 . S
Eu457 O472 2.349 . S
Eu457 O475 2.392 . S
Eu457 O476 2.418 . S
Eu457 C486 2.828 . S
C458 O476 1.244 . S
C458 O479 1.265 . S
C459 C460 1.379 . S
C459 C463 1.373 . S
C459 C465 1.505 . S
C460 C459 1.379 . S
C460 C462 1.369 . S
C460 H488 0.930 . S
C461 C463 1.383 . S
C461 C464 1.382 . S
C461 H489 0.930 . S
C462 C460 1.369 . S
C462 C464 1.392 . S
C462 H490 0.930 . S
C463 C459 1.373 . S
C463 C461 1.383 . S
C463 H491 0.931 . S
C464 C461 1.382 . S
C464 C462 1.392 . S
C465 Eu456 2.828 . S
C465 C459 1.505 . S
C465 O477 1.249 . S
C465 O478 1.244 . S
O466 Eu457 2.373 . S
O466 C468 1.258 . S
O467 Eu456 2.392 . S
O467 C468 1.242 . S
C468 O466 1.258 . S
C468 O467 1.242 . S
O469 Eu456 2.418 . S
O469 C473 1.244 . S
O470 Eu457 2.488 . S
O470 C486 1.249 . S
O471 Eu457 2.471 . S
O471 C486 1.244 . S
O472 Eu457 2.349 . S
O472 C473 1.265 . S
C473 O469 1.244 . S
C473 O472 1.265 . S
O474 Eu456 2.373 . S
O474 C487 1.258 . S
O475 Eu457 2.392 . S
O475 C487 1.242 . S
O476 Eu457 2.418 . S
O476 C458 1.244 . S
O477 Eu456 2.488 . S
O477 C465 1.249 . S
O478 Eu456 2.471 . S
O478 C465 1.244 . S
O479 Eu456 2.349 . S
O479 C458 1.265 . S
C480 C481 1.379 . S
C480 C484 1.373 . S
C480 C486 1.505 . S
C481 C480 1.379 . S
C481 C483 1.369 . S
C481 H492 0.930 . S
C482 C484 1.383 . S
C482 C485 1.382 . S
C482 H493 0.930 . S
C483 C481 1.369 . S
C483 C485 1.392 . S
C483 H494 0.930 . S
C484 C480 1.373 . S
C484 C482 1.383 . S
C484 H495 0.931 . S
C485 C482 1.382 . S
C485 C483 1.392 . S
C486 Eu457 2.828 . S
C486 O470 1.249 . S
C486 O471 1.244 . S
C486 C480 1.505 . S
C487 O474 1.258 . S
C487 O475 1.242 . S
H488 C460 0.930 . S
H489 C461 0.930 . S
H490 C462 0.930 . S
H491 C463 0.931 . S
H492 C481 0.930 . S
H493 C482 0.930 . S
H494 C483 0.930 . S
H495 C484 0.931 . S
Eu496 C505 2.828 . S
Eu496 O507 2.392 . S
Eu496 O509 2.418 1_455 S
Eu496 O514 2.373 . S
Eu496 O517 2.488 . S
Eu496 O518 2.471 . S
Eu496 O519 2.349 . S
Eu497 O506 2.373 . S
Eu497 O510 2.488 1_545 S
Eu497 O511 2.471 1_545 S
Eu497 O512 2.349 . S
Eu497 O515 2.392 . S
Eu497 O516 2.418 . S
Eu497 C526 2.828 1_545 S
C498 O516 1.244 . S
C498 O519 1.265 . S
C499 C500 1.379 . S
C499 C503 1.373 . S
C499 C505 1.505 . S
C500 C499 1.379 . S
C500 C502 1.369 . S
C500 H528 0.930 . S
C501 C503 1.383 . S
C501 C504 1.382 . S
C501 H529 0.930 1_455 S
C502 C500 1.369 . S
C502 C504 1.392 . S
C502 H530 0.930 . S
C503 C499 1.373 . S
C503 C501 1.383 . S
C503 H531 0.931 1_455 S
C504 C501 1.382 . S
C504 C502 1.392 . S
C505 Eu496 2.828 . S
C505 C499 1.505 . S
C505 O517 1.249 . S
C505 O518 1.244 . S
O506 Eu497 2.373 . S
O506 C508 1.258 . S
O507 Eu496 2.392 . S
O507 C508 1.242 . S
C508 O506 1.258 . S
C508 O507 1.242 . S
O509 Eu496 2.418 1_655 S
O509 C513 1.244 . S
O510 Eu497 2.488 1_565 S
O510 C526 1.249 . S
O511 Eu497 2.471 1_565 S
O511 C526 1.244 . S
O512 Eu497 2.349 . S
O512 C513 1.265 1_455 S
C513 O509 1.244 . S
C513 O512 1.265 1_655 S
O514 Eu496 2.373 . S
O514 C527 1.258 . S
O515 Eu497 2.392 . S
O515 C527 1.242 . S
O516 Eu497 2.418 . S
O516 C498 1.244 . S
O517 Eu496 2.488 . S
O517 C505 1.249 . S
O518 Eu496 2.471 . S
O518 C505 1.244 . S
O519 Eu496 2.349 . S
O519 C498 1.265 . S
C520 C521 1.379 . S
C520 C524 1.373 . S
C520 C526 1.505 . S
C521 C520 1.379 . S
C521 C523 1.369 . S
C521 H532 0.930 . S
C522 C524 1.383 . S
C522 C525 1.382 . S
C522 H533 0.930 . S
C523 C521 1.369 . S
C523 C525 1.392 . S
C523 H534 0.930 . S
C524 C520 1.373 . S
C524 C522 1.383 . S
C524 H535 0.931 . S
C525 C522 1.382 . S
C525 C523 1.392 . S
C526 Eu497 2.828 1_565 S
C526 O510 1.249 . S
C526 O511 1.244 . S
C526 C520 1.505 . S
C527 O514 1.258 . S
C527 O515 1.242 . S
H528 C500 0.930 . S
H529 C501 0.930 1_655 S
H530 C502 0.930 . S
H531 C503 0.931 1_655 S
H532 C521 0.930 . S
H533 C522 0.930 . S
H534 C523 0.930 . S
H535 C524 0.931 . S
Eu536 C545 2.828 . S
Eu536 O547 2.392 . S
Eu536 O549 2.418 . S
Eu536 O554 2.373 . S
Eu536 O557 2.488 . S
Eu536 O558 2.471 . S
Eu536 O559 2.349 . S
Eu537 O546 2.373 . S
Eu537 O550 2.488 . S
Eu537 O551 2.471 . S
Eu537 O552 2.349 . S
Eu537 O555 2.392 . S
Eu537 O556 2.418 . S
Eu537 C566 2.828 . S
C538 O556 1.244 . S
C538 O559 1.265 . S
C539 C540 1.379 . S
C539 C543 1.373 . S
C539 C545 1.505 . S
C540 C539 1.379 . S
C540 C542 1.369 . S
C540 H568 0.930 . S
C541 C543 1.383 . S
C541 C544 1.382 . S
C541 H569 0.930 . S
C542 C540 1.369 . S
C542 C544 1.392 . S
C542 H570 0.930 . S
C543 C539 1.373 . S
C543 C541 1.383 . S
C543 H571 0.931 . S
C544 C541 1.382 . S
C544 C542 1.392 . S
C545 Eu536 2.828 . S
C545 C539 1.505 . S
C545 O557 1.249 . S
C545 O558 1.244 . S
O546 Eu537 2.373 . S
O546 C548 1.258 . S
O547 Eu536 2.392 . S
O547 C548 1.242 . S
C548 O546 1.258 . S
C548 O547 1.242 . S
O549 Eu536 2.418 . S
O549 C553 1.244 . S
O550 Eu537 2.488 . S
O550 C566 1.249 . S
O551 Eu537 2.471 . S
O551 C566 1.244 . S
O552 Eu537 2.349 . S
O552 C553 1.265 . S
C553 O549 1.244 . S
C553 O552 1.265 . S
O554 Eu536 2.373 . S
O554 C567 1.258 . S
O555 Eu537 2.392 . S
O555 C567 1.242 . S
O556 Eu537 2.418 . S
O556 C538 1.244 . S
O557 Eu536 2.488 . S
O557 C545 1.249 . S
O558 Eu536 2.471 . S
O558 C545 1.244 . S
O559 Eu536 2.349 . S
O559 C538 1.265 . S
C560 C561 1.379 . S
C560 C564 1.373 . S
C560 C566 1.505 . S
C561 C560 1.379 . S
C561 C563 1.369 . S
C561 H572 0.930 . S
C562 C564 1.383 . S
C562 C565 1.382 . S
C562 H573 0.930 . S
C563 C561 1.369 . S
C563 C565 1.392 . S
C563 H574 0.930 . S
C564 C560 1.373 . S
C564 C562 1.383 . S
C564 H575 0.931 . S
C565 C562 1.382 . S
C565 C563 1.392 . S
C566 Eu537 2.828 . S
C566 O550 1.249 . S
C566 O551 1.244 . S
C566 C560 1.505 . S
C567 O554 1.258 . S
C567 O555 1.242 . S
H568 C540 0.930 . S
H569 C541 0.930 . S
H570 C542 0.930 . S
H571 C543 0.931 . S
H572 C561 0.930 . S
H573 C562 0.930 . S
H574 C563 0.930 . S
H575 C564 0.931 . S
Eu576 C585 2.828 . S
Eu576 O587 2.392 . S
Eu576 O589 2.418 1_545 S
Eu576 O594 2.373 . S
Eu576 O597 2.488 1_545 S
Eu576 O598 2.471 . S
Eu576 O599 2.349 . S
Eu577 O586 2.382 . S
Eu577 O590 2.488 . S
Eu577 O591 2.471 . S
Eu577 O592 2.349 . S
Eu577 O595 2.392 . S
Eu577 O596 2.418 1_556 S
Eu577 C606 2.828 . S
C578 O596 1.244 . S
C578 O599 1.265 . S
C579 C580 1.379 . S
C579 C583 1.373 1_545 S
C579 C585 1.505 . S
C580 C579 1.379 . S
C580 C582 1.369 . S
C580 H608 0.930 . S
C581 C583 1.383 . S
C581 C584 1.382 . S
C581 H609 0.930 . S
C582 C580 1.369 . S
C582 C584 1.392 1_545 S
C582 H610 0.930 . S
C583 C579 1.373 1_565 S
C583 C581 1.383 . S
C583 H611 0.931 . S
C584 C581 1.382 . S
C584 C582 1.392 1_565 S
C585 Eu576 2.828 . S
C585 C579 1.505 . S
C585 O597 1.249 1_545 S
C585 O598 1.244 . S
O586 Eu577 2.382 . S
O586 C588 1.236 1_556 S
O587 Eu576 2.392 . S
O587 C588 1.242 . S
C588 O586 1.236 1_554 S
C588 O587 1.242 . S
O589 Eu576 2.418 1_565 S
O589 C593 1.244 1_554 S
O590 Eu577 2.488 . S
O590 C606 1.249 . S
O591 Eu577 2.471 . S
O591 C606 1.244 . S
O592 Eu577 2.349 . S
O592 C593 1.265 1_545 S
C593 O589 1.244 1_556 S
C593 O592 1.265 1_565 S
O594 Eu576 2.373 . S
O594 C607 1.258 . S
O595 Eu577 2.392 . S
O595 C607 1.242 1_556 S
O596 Eu577 2.418 1_554 S
O596 C578 1.244 . S
O597 Eu576 2.488 1_565 S
O597 C585 1.249 1_565 S
O598 Eu576 2.471 . S
O598 C585 1.244 . S
O599 Eu576 2.349 . S
O599 C578 1.265 . S
C600 C601 1.379 . S
C600 C604 1.373 . S
C600 C606 1.505 . S
C601 C600 1.379 . S
C601 C603 1.369 . S
C601 H612 0.930 . S
C602 C604 1.383 . S
C602 C605 1.382 . S
C602 H613 0.930 . S
C603 C601 1.369 . S
C603 C605 1.392 . S
C603 H614 0.930 . S
C604 C600 1.373 . S
C604 C602 1.383 . S
C604 H615 0.931 . S
C605 C602 1.382 . S
C605 C603 1.392 . S
C606 Eu577 2.828 . S
C606 O590 1.249 . S
C606 O591 1.244 . S
C606 C600 1.505 . S
C607 O594 1.258 . S
C607 O595 1.242 1_554 S
H608 C580 0.930 . S
H609 C581 0.930 . S
H610 C582 0.930 . S
H611 C583 0.931 . S
H612 C601 0.930 . S
H613 C602 0.930 . S
H614 C603 0.930 . S
H615 C604 0.931 . S
Eu616 C625 2.828 . S
Eu616 O627 2.392 . S
Eu616 O629 2.418 . S
Eu616 O634 2.373 . S
Eu616 O637 2.488 . S
Eu616 O638 2.471 . S
Eu616 O639 2.349 . S
Eu617 O626 2.373 . S
Eu617 O630 2.488 . S
Eu617 O631 2.471 . S
Eu617 O632 2.349 . S
Eu617 O635 2.392 . S
Eu617 O636 2.418 . S
Eu617 C646 2.828 . S
C618 O636 1.244 . S
C618 O639 1.265 . S
C619 C620 1.379 . S
C619 C623 1.373 . S
C619 C625 1.505 . S
C620 C619 1.379 . S
C620 C622 1.369 . S
C620 H648 0.930 . S
C621 C623 1.383 . S
C621 C624 1.382 . S
C621 H649 0.930 . S
C622 C620 1.369 . S
C622 C624 1.392 . S
C622 H650 0.930 . S
C623 C619 1.373 . S
C623 C621 1.383 . S
C623 H651 0.931 . S
C624 C621 1.382 . S
C624 C622 1.392 . S
C625 Eu616 2.828 . S
C625 C619 1.505 . S
C625 O637 1.249 . S
C625 O638 1.244 . S
O626 Eu617 2.373 . S
O626 C628 1.258 . S
O627 Eu616 2.392 . S
O627 C628 1.242 . S
C628 O626 1.258 . S
C628 O627 1.242 . S
O629 Eu616 2.418 . S
O629 C633 1.244 . S
O630 Eu617 2.488 . S
O630 C646 1.249 . S
O631 Eu617 2.471 . S
O631 C646 1.244 . S
O632 Eu617 2.349 . S
O632 C633 1.265 . S
C633 O629 1.244 . S
C633 O632 1.265 . S
O634 Eu616 2.373 . S
O634 C647 1.258 . S
O635 Eu617 2.392 . S
O635 C647 1.242 . S
O636 Eu617 2.418 . S
O636 C618 1.244 . S
O637 Eu616 2.488 . S
O637 C625 1.249 . S
O638 Eu616 2.471 . S
O638 C625 1.244 . S
O639 Eu616 2.349 . S
O639 C618 1.265 . S
C640 C641 1.379 . S
C640 C644 1.373 . S
C640 C646 1.505 . S
C641 C640 1.379 . S
C641 C643 1.369 . S
C641 H652 0.930 . S
C642 C644 1.383 . S
C642 C645 1.382 . S
C642 H653 0.930 . S
C643 C641 1.369 . S
C643 C645 1.392 . S
C643 H654 0.930 . S
C644 C640 1.373 . S
C644 C642 1.383 . S
C644 H655 0.931 . S
C645 C642 1.382 . S
C645 C643 1.392 . S
C646 Eu617 2.828 . S
C646 O630 1.249 . S
C646 O631 1.244 . S
C646 C640 1.505 . S
C647 O634 1.258 . S
C647 O635 1.242 . S
H648 C620 0.930 . S
H649 C621 0.930 . S
H650 C622 0.930 . S
H651 C623 0.931 . S
H652 C641 0.930 . S
H653 C642 0.930 . S
H654 C643 0.930 . S
H655 C644 0.931 . S
Eu656 C665 2.828 . S
Eu656 O667 2.392 . S
Eu656 O669 2.418 . S
Eu656 O674 2.373 1_554 S
Eu656 O677 2.488 . S
Eu656 O678 2.471 . S
Eu656 O679 2.349 . S
Eu657 O666 2.373 . S
Eu657 O670 2.488 . S
Eu657 O671 2.471 . S
Eu657 O672 2.349 . S
Eu657 O675 2.392 1_554 S
Eu657 O676 2.418 . S
Eu657 C686 2.828 . S
C658 O676 1.244 . S
C658 O679 1.265 . S
C659 C660 1.389 . S
C659 C663 1.371 1_556 S
C659 C665 1.497 1_556 S
C660 C659 1.389 . S
C660 C662 1.369 . S
C660 H688 0.930 . S
C661 C663 1.383 1_556 S
C661 C664 1.382 . S
C661 H689 0.930 . S
C662 C660 1.369 . S
C662 C664 1.392 . S
C662 H690 0.930 . S
C663 C659 1.371 1_554 S
C663 C661 1.383 1_554 S
C663 H691 0.931 . S
C664 C661 1.382 . S
C664 C662 1.392 . S
C665 Eu656 2.828 . S
C665 C659 1.497 1_554 S
C665 O677 1.249 . S
C665 O678 1.244 . S
O666 Eu657 2.373 . S
O666 C668 1.258 . S
O667 Eu656 2.392 . S
O667 C668 1.242 . S
C668 O666 1.258 . S
C668 O667 1.242 . S
O669 Eu656 2.418 . S
O669 C673 1.244 . S
O670 Eu657 2.488 . S
O670 C686 1.249 . S
O671 Eu657 2.471 . S
O671 C686 1.244 . S
O672 Eu657 2.349 . S
O672 C673 1.265 . S
C673 O669 1.244 . S
C673 O672 1.265 . S
O674 Eu656 2.373 1_556 S
O674 C687 1.258 . S
O675 Eu657 2.392 1_556 S
O675 C687 1.242 . S
O676 Eu657 2.418 . S
O676 C658 1.244 . S
O677 Eu656 2.488 . S
O677 C665 1.249 . S
O678 Eu656 2.471 . S
O678 C665 1.244 . S
O679 Eu656 2.349 . S
O679 C658 1.265 . S
C680 C681 1.379 . S
C680 C684 1.373 . S
C680 C686 1.505 . S
C681 C680 1.379 . S
C681 C683 1.369 . S
C681 H692 0.930 . S
C682 C684 1.383 . S
C682 C685 1.382 . S
C682 H693 0.930 . S
C683 C681 1.369 . S
C683 C685 1.392 . S
C683 H694 0.930 . S
C684 C680 1.373 . S
C684 C682 1.383 . S
C684 H695 0.931 . S
C685 C682 1.382 . S
C685 C683 1.392 . S
C686 Eu657 2.828 . S
C686 O670 1.249 . S
C686 O671 1.244 . S
C686 C680 1.505 . S
C687 O674 1.258 . S
C687 O675 1.242 . S
H688 C660 0.930 . S
H689 C661 0.930 . S
H690 C662 0.930 . S
H691 C663 0.931 . S
H692 C681 0.930 . S
H693 C682 0.930 . S
H694 C683 0.930 . S
H695 C684 0.931 . S
Eu696 C705 2.828 . S
Eu696 O707 2.392 . S
Eu696 O709 2.418 . S
Eu696 O714 2.373 . S
Eu696 O717 2.488 . S
Eu696 O718 2.471 . S
Eu696 O719 2.349 . S
Eu697 O706 2.373 . S
Eu697 O710 2.488 . S
Eu697 O711 2.471 . S
Eu697 O712 2.349 . S
Eu697 O715 2.392 . S
Eu697 O716 2.418 . S
Eu697 C726 2.828 . S
C698 O716 1.244 . S
C698 O719 1.265 . S
C699 C700 1.379 . S
C699 C703 1.373 . S
C699 C705 1.505 . S
C700 C699 1.379 . S
C700 C702 1.369 . S
C700 H728 0.930 . S
C701 C703 1.383 . S
C701 C704 1.382 . S
C701 H729 0.930 . S
C702 C700 1.369 . S
C702 C704 1.392 . S
C702 H730 0.930 . S
C703 C699 1.373 . S
C703 C701 1.383 . S
C703 H731 0.931 . S
C704 C701 1.382 . S
C704 C702 1.392 . S
C705 Eu696 2.828 . S
C705 C699 1.505 . S
C705 O717 1.249 . S
C705 O718 1.244 . S
O706 Eu697 2.373 . S
O706 C708 1.258 . S
O707 Eu696 2.392 . S
O707 C708 1.242 . S
C708 O706 1.258 . S
C708 O707 1.242 . S
O709 Eu696 2.418 . S
O709 C713 1.244 . S
O710 Eu697 2.488 . S
O710 C726 1.249 . S
O711 Eu697 2.471 . S
O711 C726 1.244 . S
O712 Eu697 2.349 . S
O712 C713 1.265 . S
C713 O709 1.244 . S
C713 O712 1.265 . S
O714 Eu696 2.373 . S
O714 C727 1.258 . S
O715 Eu697 2.392 . S
O715 C727 1.242 . S
O716 Eu697 2.418 . S
O716 C698 1.244 . S
O717 Eu696 2.488 . S
O717 C705 1.249 . S
O718 Eu696 2.471 . S
O718 C705 1.244 . S
O719 Eu696 2.349 . S
O719 C698 1.265 . S
C720 C721 1.379 . S
C720 C724 1.373 . S
C720 C726 1.505 . S
C721 C720 1.379 . S
C721 C723 1.369 . S
C721 H732 0.930 . S
C722 C724 1.383 . S
C722 C725 1.382 . S
C722 H733 0.930 . S
C723 C721 1.369 . S
C723 C725 1.392 . S
C723 H734 0.930 . S
C724 C720 1.373 . S
C724 C722 1.383 . S
C724 H735 0.931 . S
C725 C722 1.382 . S
C725 C723 1.392 . S
C726 Eu697 2.828 . S
C726 O710 1.249 . S
C726 O711 1.244 . S
C726 C720 1.505 . S
C727 O714 1.258 . S
C727 O715 1.242 . S
H728 C700 0.930 . S
H729 C701 0.930 . S
H730 C702 0.930 . S
H731 C703 0.931 . S
H732 C721 0.930 . S
H733 C722 0.930 . S
H734 C723 0.930 . S
H735 C724 0.931 . S
Eu736 C745 2.828 . S
Eu736 O747 2.392 . S
Eu736 O749 2.418 . S
Eu736 O754 2.373 . S
Eu736 O757 2.488 . S
Eu736 O758 2.471 . S
Eu736 O759 2.349 . S
Eu737 O746 2.373 . S
Eu737 O750 2.488 . S
Eu737 O751 2.471 . S
Eu737 O752 2.349 . S
Eu737 O755 2.392 . S
Eu737 O756 2.418 . S
Eu737 C766 2.828 . S
C738 O756 1.244 . S
C738 O759 1.265 . S
C739 C740 1.379 1_455 S
C739 C743 1.373 . S
C739 C745 1.505 . S
C740 C739 1.379 1_655 S
C740 C742 1.369 . S
C740 H768 0.930 . S
C741 C743 1.383 1_655 S
C741 C744 1.382 . S
C741 H769 0.930 . S
C742 C740 1.369 . S
C742 C744 1.392 . S
C742 H770 0.930 . S
C743 C739 1.373 . S
C743 C741 1.383 1_455 S
C743 H771 0.931 . S
C744 C741 1.382 . S
C744 C742 1.392 . S
C745 Eu736 2.828 . S
C745 C739 1.505 . S
C745 O757 1.249 . S
C745 O758 1.244 . S
O746 Eu737 2.373 . S
O746 C748 1.258 . S
O747 Eu736 2.392 . S
O747 C748 1.242 . S
C748 O746 1.258 . S
C748 O747 1.242 . S
O749 Eu736 2.418 . S
O749 C753 1.244 . S
O750 Eu737 2.488 . S
O750 C766 1.249 . S
O751 Eu737 2.471 . S
O751 C766 1.244 . S
O752 Eu737 2.349 . S
O752 C753 1.265 . S
C753 O749 1.244 . S
C753 O752 1.265 . S
O754 Eu736 2.373 . S
O754 C767 1.258 1_455 S
O755 Eu737 2.392 . S
O755 C767 1.242 1_455 S
O756 Eu737 2.418 . S
O756 C738 1.244 . S
O757 Eu736 2.488 . S
O757 C745 1.249 . S
O758 Eu736 2.471 . S
O758 C745 1.244 . S
O759 Eu736 2.349 . S
O759 C738 1.265 . S
C760 C761 1.379 . S
C760 C764 1.373 . S
C760 C766 1.505 . S
C761 C760 1.379 . S
C761 C763 1.369 . S
C761 H772 0.930 . S
C762 C764 1.383 . S
C762 C765 1.382 . S
C762 H773 0.930 . S
C763 C761 1.369 . S
C763 C765 1.392 . S
C763 H774 0.930 . S
C764 C760 1.373 . S
C764 C762 1.383 . S
C764 H775 0.931 . S
C765 C762 1.382 . S
C765 C763 1.392 . S
C766 Eu737 2.828 . S
C766 O750 1.249 . S
C766 O751 1.244 . S
C766 C760 1.505 . S
C767 O754 1.258 1_655 S
C767 O755 1.242 1_655 S
H768 C740 0.930 . S
H769 C741 0.930 . S
H770 C742 0.930 . S
H771 C743 0.931 . S
H772 C761 0.930 . S
H773 C762 0.930 . S
H774 C763 0.930 . S
H775 C764 0.931 . S
Eu776 C785 2.828 . S
Eu776 O787 2.392 . S
Eu776 O789 2.418 . S
Eu776 O794 2.373 . S
Eu776 O797 2.488 . S
Eu776 O798 2.471 . S
Eu776 O799 2.349 . S
Eu777 O786 2.373 . S
Eu777 O790 2.488 . S
Eu777 O791 2.471 . S
Eu777 O792 2.349 . S
Eu777 O795 2.392 . S
Eu777 O796 2.418 . S
Eu777 C806 2.828 . S
C778 O796 1.244 . S
C778 O799 1.265 . S
C779 C780 1.379 . S
C779 C783 1.373 . S
C779 C785 1.505 . S
C780 C779 1.379 . S
C780 C782 1.369 . S
C780 H808 0.930 . S
C781 C783 1.383 . S
C781 C784 1.382 . S
C781 H809 0.930 . S
C782 C780 1.369 . S
C782 C784 1.392 . S
C782 H810 0.930 . S
C783 C779 1.373 . S
C783 C781 1.383 . S
C783 H811 0.931 . S
C784 C781 1.382 . S
C784 C782 1.392 . S
C785 Eu776 2.828 . S
C785 C779 1.505 . S
C785 O797 1.249 . S
C785 O798 1.244 . S
O786 Eu777 2.373 . S
O786 C788 1.258 . S
O787 Eu776 2.392 . S
O787 C788 1.242 . S
C788 O786 1.258 . S
C788 O787 1.242 . S
O789 Eu776 2.418 . S
O789 C793 1.244 . S
O790 Eu777 2.488 . S
O790 C806 1.249 . S
O791 Eu777 2.471 . S
O791 C806 1.244 . S
O792 Eu777 2.349 . S
O792 C793 1.265 . S
C793 O789 1.244 . S
C793 O792 1.265 . S
O794 Eu776 2.373 . S
O794 C807 1.258 . S
O795 Eu777 2.392 . S
O795 C807 1.242 . S
O796 Eu777 2.418 . S
O796 C778 1.244 . S
O797 Eu776 2.488 . S
O797 C785 1.249 . S
O798 Eu776 2.471 . S
O798 C785 1.244 . S
O799 Eu776 2.349 . S
O799 C778 1.265 . S
C800 C801 1.379 . S
C800 C804 1.373 . S
C800 C806 1.505 . S
C801 C800 1.379 . S
C801 C803 1.369 . S
C801 H812 0.930 . S
C802 C804 1.383 . S
C802 C805 1.382 . S
C802 H813 0.930 . S
C803 C801 1.369 . S
C803 C805 1.392 . S
C803 H814 0.930 . S
C804 C800 1.373 . S
C804 C802 1.383 . S
C804 H815 0.931 . S
C805 C802 1.382 . S
C805 C803 1.392 . S
C806 Eu777 2.828 . S
C806 O790 1.249 . S
C806 O791 1.244 . S
C806 C800 1.505 . S
C807 O794 1.258 . S
C807 O795 1.242 . S
H808 C780 0.930 . S
H809 C781 0.930 . S
H810 C782 0.930 . S
H811 C783 0.931 . S
H812 C801 0.930 . S
H813 C802 0.930 . S
H814 C803 0.930 . S
H815 C804 0.931 . S
Eu816 C825 2.828 . S
Eu816 O827 2.392 . S
Eu816 O829 2.418 . S
Eu816 O834 2.373 . S
Eu816 O837 2.488 . S
Eu816 O838 2.471 . S
Eu816 O839 2.349 . S
Eu817 O826 2.373 . S
Eu817 O830 2.488 . S
Eu817 O831 2.471 . S
Eu817 O832 2.349 . S
Eu817 O835 2.392 . S
Eu817 O836 2.418 . S
Eu817 C846 2.828 . S
C818 O836 1.244 . S
C818 O839 1.265 . S
C819 C820 1.379 . S
C819 C823 1.373 . S
C819 C825 1.505 . S
C820 C819 1.379 . S
C820 C822 1.369 . S
C820 H848 0.930 . S
C821 C823 1.383 . S
C821 C824 1.382 . S
C821 H849 0.930 . S
C822 C820 1.369 . S
C822 C824 1.392 . S
C822 H850 0.930 . S
C823 C819 1.373 . S
C823 C821 1.383 . S
C823 H851 0.931 . S
C824 C821 1.382 . S
C824 C822 1.392 . S
C825 Eu816 2.828 . S
C825 C819 1.505 . S
C825 O837 1.249 . S
C825 O838 1.244 . S
O826 Eu817 2.373 . S
O826 C828 1.258 . S
O827 Eu816 2.392 . S
O827 C828 1.242 . S
C828 O826 1.258 . S
C828 O827 1.242 . S
O829 Eu816 2.418 . S
O829 C833 1.244 . S
O830 Eu817 2.488 . S
O830 C846 1.249 . S
O831 Eu817 2.471 . S
O831 C846 1.244 . S
O832 Eu817 2.349 . S
O832 C833 1.265 . S
C833 O829 1.244 . S
C833 O832 1.265 . S
O834 Eu816 2.373 . S
O834 C847 1.258 . S
O835 Eu817 2.392 . S
O835 C847 1.242 . S
O836 Eu817 2.418 . S
O836 C818 1.244 . S
O837 Eu816 2.488 . S
O837 C825 1.249 . S
O838 Eu816 2.471 . S
O838 C825 1.244 . S
O839 Eu816 2.349 . S
O839 C818 1.265 . S
C840 C841 1.379 . S
C840 C844 1.373 . S
C840 C846 1.505 . S
C841 C840 1.379 . S
C841 C843 1.369 . S
C841 H852 0.930 . S
C842 C844 1.383 . S
C842 C845 1.382 . S
C842 H853 0.930 . S
C843 C841 1.369 . S
C843 C845 1.392 . S
C843 H854 0.930 . S
C844 C840 1.373 . S
C844 C842 1.383 . S
C844 H855 0.931 . S
C845 C842 1.382 . S
C845 C843 1.392 . S
C846 Eu817 2.828 . S
C846 O830 1.249 . S
C846 O831 1.244 . S
C846 C840 1.505 . S
C847 O834 1.258 . S
C847 O835 1.242 . S
H848 C820 0.930 . S
H849 C821 0.930 . S
H850 C822 0.930 . S
H851 C823 0.931 . S
H852 C841 0.930 . S
H853 C842 0.930 . S
H854 C843 0.930 . S
H855 C844 0.931 . S
Eu856 C865 2.828 . S
Eu856 O867 2.392 . S
Eu856 O869 2.418 . S
Eu856 O874 2.373 . S
Eu856 O877 2.488 . S
Eu856 O878 2.471 . S
Eu856 O879 2.349 . S
Eu857 O866 2.373 . S
Eu857 O870 2.488 . S
Eu857 O871 2.471 . S
Eu857 O872 2.349 . S
Eu857 O875 2.392 . S
Eu857 O876 2.418 . S
Eu857 C886 2.828 . S
C858 O876 1.244 . S
C858 O879 1.265 . S
C859 C860 1.379 . S
C859 C863 1.373 . S
C859 C865 1.505 . S
C860 C859 1.379 . S
C860 C862 1.369 . S
C860 H888 0.930 . S
C861 C863 1.383 . S
C861 C864 1.382 . S
C861 H889 0.930 . S
C862 C860 1.369 . S
C862 C864 1.392 . S
C862 H890 0.930 . S
C863 C859 1.373 . S
C863 C861 1.383 . S
C863 H891 0.931 . S
C864 C861 1.382 . S
C864 C862 1.392 . S
C865 Eu856 2.828 . S
C865 C859 1.505 . S
C865 O877 1.249 . S
C865 O878 1.244 . S
O866 Eu857 2.373 . S
O866 C868 1.258 . S
O867 Eu856 2.392 . S
O867 C868 1.242 . S
C868 O866 1.258 . S
C868 O867 1.242 . S
O869 Eu856 2.418 . S
O869 C873 1.244 . S
O870 Eu857 2.488 . S
O870 C886 1.249 . S
O871 Eu857 2.471 . S
O871 C886 1.244 . S
O872 Eu857 2.349 . S
O872 C873 1.265 . S
C873 O869 1.244 . S
C873 O872 1.265 . S
O874 Eu856 2.373 . S
O874 C887 1.258 . S
O875 Eu857 2.392 . S
O875 C887 1.242 . S
O876 Eu857 2.418 . S
O876 C858 1.244 . S
O877 Eu856 2.488 . S
O877 C865 1.249 . S
O878 Eu856 2.471 . S
O878 C865 1.244 . S
O879 Eu856 2.349 . S
O879 C858 1.265 . S
C880 C881 1.379 . S
C880 C884 1.373 . S
C880 C886 1.505 . S
C881 C880 1.379 . S
C881 C883 1.369 . S
C881 H892 0.930 . S
C882 C884 1.383 . S
C882 C885 1.382 . S
C882 H893 0.930 . S
C883 C881 1.369 . S
C883 C885 1.392 . S
C883 H894 0.930 . S
C884 C880 1.373 . S
C884 C882 1.383 . S
C884 H895 0.931 . S
C885 C882 1.382 . S
C885 C883 1.392 . S
C886 Eu857 2.828 . S
C886 O870 1.249 . S
C886 O871 1.244 . S
C886 C880 1.505 . S
C887 O874 1.258 . S
C887 O875 1.242 . S
H888 C860 0.930 . S
H889 C861 0.930 . S
H890 C862 0.930 . S
H891 C863 0.931 . S
H892 C881 0.930 . S
H893 C882 0.930 . S
H894 C883 0.930 . S
H895 C884 0.931 . S
Eu896 C905 2.828 . S
Eu896 O907 2.392 . S
Eu896 O909 2.418 . S
Eu896 O914 2.373 . S
Eu896 O917 2.488 . S
Eu896 O918 2.471 . S
Eu896 O919 2.349 . S
Eu897 O906 2.373 . S
Eu897 O910 2.488 . S
Eu897 O911 2.471 . S
Eu897 O912 2.349 . S
Eu897 O915 2.392 . S
Eu897 O916 2.418 . S
Eu897 C926 2.828 . S
C898 O916 1.244 . S
C898 O919 1.265 . S
C899 C900 1.379 . S
C899 C903 1.373 . S
C899 C905 1.505 . S
C900 C899 1.379 . S
C900 C902 1.369 . S
C900 H928 0.930 . S
C901 C903 1.383 . S
C901 C904 1.382 . S
C901 H929 0.930 . S
C902 C900 1.369 . S
C902 C904 1.392 . S
C902 H930 0.930 . S
C903 C899 1.373 . S
C903 C901 1.383 . S
C903 H931 0.931 . S
C904 C901 1.382 . S
C904 C902 1.392 . S
C905 Eu896 2.828 . S
C905 C899 1.505 . S
C905 O917 1.249 . S
C905 O918 1.244 . S
O906 Eu897 2.373 . S
O906 C908 1.258 . S
O907 Eu896 2.392 . S
O907 C908 1.242 . S
C908 O906 1.258 . S
C908 O907 1.242 . S
O909 Eu896 2.418 . S
O909 C913 1.244 . S
O910 Eu897 2.488 . S
O910 C926 1.249 . S
O911 Eu897 2.471 . S
O911 C926 1.244 . S
O912 Eu897 2.349 . S
O912 C913 1.265 . S
C913 O909 1.244 . S
C913 O912 1.265 . S
O914 Eu896 2.373 . S
O914 C927 1.258 . S
O915 Eu897 2.392 . S
O915 C927 1.242 . S
O916 Eu897 2.418 . S
O916 C898 1.244 . S
O917 Eu896 2.488 . S
O917 C905 1.249 . S
O918 Eu896 2.471 . S
O918 C905 1.244 . S
O919 Eu896 2.349 . S
O919 C898 1.265 . S
C920 C921 1.379 . S
C920 C924 1.373 . S
C920 C926 1.505 . S
C921 C920 1.379 . S
C921 C923 1.369 . S
C921 H932 0.930 . S
C922 C924 1.383 . S
C922 C925 1.382 . S
C922 H933 0.930 . S
C923 C921 1.369 . S
C923 C925 1.392 . S
C923 H934 0.930 . S
C924 C920 1.373 . S
C924 C922 1.383 . S
C924 H935 0.931 . S
C925 C922 1.382 . S
C925 C923 1.392 . S
C926 Eu897 2.828 . S
C926 O910 1.249 . S
C926 O911 1.244 . S
C926 C920 1.505 . S
C927 O914 1.258 . S
C927 O915 1.242 . S
H928 C900 0.930 . S
H929 C901 0.930 . S
H930 C902 0.930 . S
H931 C903 0.931 . S
H932 C921 0.930 . S
H933 C922 0.930 . S
H934 C923 0.930 . S
H935 C924 0.931 . S
Eu936 C945 2.828 1_554 S
Eu936 O947 2.392 . S
Eu936 O949 2.418 1_554 S
Eu936 O954 2.373 1_554 S
Eu936 O957 2.488 1_554 S
Eu936 O958 2.471 . S
Eu936 O959 2.349 . S
Eu937 O946 2.373 . S
Eu937 O950 2.488 1_455 S
Eu937 O951 2.471 1_455 S
Eu937 O952 2.349 1_554 S
Eu937 O955 2.392 . S
Eu937 O956 2.418 . S
Eu937 C966 2.828 1_455 S
C938 O956 1.244 . S
C938 O959 1.265 . S
C939 C940 1.379 1_556 S
C939 C943 1.373 . S
C939 C945 1.505 . S
C940 C939 1.379 1_554 S
C940 C942 1.370 . S
C940 H968 0.930 . S
C941 C943 1.383 . S
C941 C944 1.382 . S
C941 H969 0.930 . S
C942 C940 1.370 . S
C942 C944 1.380 1_554 S
C942 H970 0.941 . S
C943 C939 1.373 . S
C943 C941 1.383 . S
C943 H971 0.931 . S
C944 C941 1.382 . S
C944 C942 1.380 1_556 S
C945 Eu936 2.828 1_556 S
C945 C939 1.505 . S
C945 O957 1.249 . S
C945 O958 1.244 1_556 S
O946 Eu937 2.373 . S
O946 C948 1.258 . S
O947 Eu936 2.392 . S
O947 C948 1.242 . S
C948 O946 1.258 . S
C948 O947 1.242 . S
O949 Eu936 2.418 1_556 S
O949 C953 1.244 . S
O950 Eu937 2.488 1_655 S
O950 C966 1.249 . S
O951 Eu937 2.471 1_655 S
O951 C966 1.244 . S
O952 Eu937 2.349 1_556 S
O952 C953 1.265 . S
C953 O949 1.244 . S
C953 O952 1.265 . S
O954 Eu936 2.373 1_556 S
O954 C967 1.258 . S
O955 Eu937 2.392 . S
O955 C967 1.242 1_554 S
O956 Eu937 2.418 . S
O956 C938 1.244 . S
O957 Eu936 2.488 1_556 S
O957 C945 1.249 . S
O958 Eu936 2.471 . S
O958 C945 1.244 1_554 S
O959 Eu936 2.349 . S
O959 C938 1.265 . S
C960 C961 1.379 . S
C960 C964 1.373 . S
C960 C966 1.505 . S
C961 C960 1.379 . S
C961 C963 1.369 . S
C961 H972 0.930 . S
C962 C964 1.383 . S
C962 C965 1.382 . S
C962 H973 0.930 . S
C963 C961 1.369 . S
C963 C965 1.392 . S
C963 H974 0.930 . S
C964 C960 1.373 . S
C964 C962 1.383 . S
C964 H975 0.931 . S
C965 C962 1.382 . S
C965 C963 1.392 . S
C966 Eu937 2.828 1_655 S
C966 O950 1.249 . S
C966 O951 1.244 . S
C966 C960 1.505 . S
C967 O954 1.258 . S
C967 O955 1.242 1_556 S
H968 C940 0.930 . S
H969 C941 0.930 . S
H970 C942 0.941 . S
H971 C943 0.931 . S
H972 C961 0.930 . S
H973 C962 0.930 . S
H974 C963 0.930 . S
H975 C964 0.931 . S
H976 C982 0.930 . S
H977 C986 0.930 1_554 S
H978 C991 0.929 . S
H979 C989 0.929 . S
H980 C984 0.929 . S
H981 C990 0.929 . S
C982 H976 0.930 . S
C982 C983 1.367 . S
C982 C990 1.378 . S
C983 C982 1.367 . S
C983 C991 1.433 1_455 S
C984 H980 0.929 . S
C984 C986 1.378 . S
C984 C988 1.350 . S
C985 C988 1.463 . S
C985 C990 1.350 . S
C985 N993 1.427 . S
C986 H977 0.930 1_556 S
C986 C984 1.378 . S
C986 C987 1.367 . S
C987 C986 1.367 . S
C987 C989 1.433 . S
C988 C984 1.350 . S
C988 C985 1.463 . S
C988 N992 1.427 . S
C989 H979 0.929 . S
C989 C987 1.433 . S
C989 N992 1.384 . S
C990 H981 0.929 . S
C990 C982 1.378 . S
C990 C985 1.350 . S
C991 H978 0.929 . S
C991 C983 1.433 1_655 S
C991 N993 1.384 1_655 S
N992 C988 1.427 . S
N992 C989 1.384 . S
N993 C985 1.427 . S
N993 C991 1.384 1_455 S
H994 C1000 0.930 . S
H995 C1004 0.930 . S
H996 C1009 0.929 . S
H997 C1007 0.929 . S
H998 C1002 0.929 . S
H999 C1008 0.929 . S
C1000 H994 0.930 . S
C1000 C1001 1.367 . S
C1000 C1008 1.378 . S
C1001 C1000 1.367 . S
C1001 C1009 1.433 . S
C1002 H998 0.929 . S
C1002 C1004 1.378 . S
C1002 C1006 1.350 . S
C1003 C1006 1.463 . S
C1003 C1008 1.350 . S
C1003 N1011 1.427 . S
C1004 H995 0.930 . S
C1004 C1002 1.378 . S
C1004 C1005 1.367 . S
C1005 C1004 1.367 . S
C1005 C1007 1.433 . S
C1006 C1002 1.350 . S
C1006 C1003 1.463 . S
C1006 N1010 1.427 . S
C1007 H997 0.929 . S
C1007 C1005 1.433 . S
C1007 N1010 1.384 . S
C1008 H999 0.929 . S
C1008 C1000 1.378 . S
C1008 C1003 1.350 . S
C1009 H996 0.929 . S
C1009 C1001 1.433 . S
C1009 N1011 1.384 . S
N1010 C1006 1.427 . S
N1010 C1007 1.384 . S
N1011 C1003 1.427 . S
N1011 C1009 1.384 . S
H1012 C1018 0.930 . S
H1013 C1022 0.930 . S
H1014 C1027 0.929 . S
H1015 C1025 0.929 . S
H1016 C1020 0.929 . S
H1017 C1026 0.929 . S
C1018 H1012 0.930 . S
C1018 C1019 1.367 . S
C1018 C1026 1.378 . S
C1019 C1018 1.367 . S
C1019 C1027 1.433 . S
C1020 H1016 0.929 . S
C1020 C1022 1.378 . S
C1020 C1024 1.350 . S
C1021 C1024 1.463 . S
C1021 C1026 1.350 . S
C1021 N1029 1.427 . S
C1022 H1013 0.930 . S
C1022 C1020 1.378 . S
C1022 C1023 1.367 . S
C1023 C1022 1.367 . S
C1023 C1025 1.433 . S
C1024 C1020 1.350 . S
C1024 C1021 1.463 . S
C1024 N1028 1.427 . S
C1025 H1015 0.929 . S
C1025 C1023 1.433 . S
C1025 N1028 1.384 . S
C1026 H1017 0.929 . S
C1026 C1018 1.378 . S
C1026 C1021 1.350 . S
C1027 H1014 0.929 . S
C1027 C1019 1.433 . S
C1027 N1029 1.384 . S
N1028 C1024 1.427 . S
N1028 C1025 1.384 . S
N1029 C1021 1.427 . S
N1029 C1027 1.384 . S
H1030 C1036 0.930 . S
H1031 C1040 0.930 . S
H1032 C1045 0.929 . S
H1033 C1043 0.929 . S
H1034 C1038 0.929 . S
H1035 C1044 0.929 . S
C1036 H1030 0.930 . S
C1036 C1037 1.367 . S
C1036 C1044 1.378 . S
C1037 C1036 1.367 . S
C1037 C1045 1.433 . S
C1038 H1034 0.929 . S
C1038 C1040 1.378 . S
C1038 C1042 1.350 . S
C1039 C1042 1.463 . S
C1039 C1044 1.350 . S
C1039 N1047 1.427 . S
C1040 H1031 0.930 . S
C1040 C1038 1.378 . S
C1040 C1041 1.367 . S
C1041 C1040 1.367 . S
C1041 C1043 1.433 . S
C1042 C1038 1.350 . S
C1042 C1039 1.463 . S
C1042 N1046 1.427 . S
C1043 H1033 0.929 . S
C1043 C1041 1.433 . S
C1043 N1046 1.384 . S
C1044 H1035 0.929 . S
C1044 C1036 1.378 . S
C1044 C1039 1.350 . S
C1045 H1032 0.929 . S
C1045 C1037 1.433 . S
C1045 N1047 1.384 . S
N1046 C1042 1.427 . S
N1046 C1043 1.384 . S
N1047 C1039 1.427 . S
N1047 C1045 1.384 . S
H1048 C1054 0.930 1_655 S
H1049 C1058 0.930 . S
H1050 C1063 0.929 . S
H1051 C1061 0.929 . S
H1052 C1056 0.929 . S
H1053 C1062 0.929 . S
C1054 H1048 0.930 1_455 S
C1054 C1055 1.367 . S
C1054 C1062 1.378 . S
C1055 C1054 1.367 . S
C1055 C1063 1.433 . S
C1056 H1052 0.929 . S
C1056 C1058 1.378 . S
C1056 C1060 1.350 . S
C1057 C1060 1.463 . S
C1057 C1062 1.350 . S
C1057 N1065 1.427 . S
C1058 H1049 0.930 . S
C1058 C1056 1.378 . S
C1058 C1059 1.367 . S
C1059 C1058 1.367 . S
C1059 C1061 1.433 . S
C1060 C1056 1.350 . S
C1060 C1057 1.463 . S
C1060 N1064 1.427 . S
C1061 H1051 0.929 . S
C1061 C1059 1.433 . S
C1061 N1064 1.384 . S
C1062 H1053 0.929 . S
C1062 C1054 1.378 . S
C1062 C1057 1.350 . S
C1063 H1050 0.929 . S
C1063 C1055 1.433 . S
C1063 N1065 1.384 . S
N1064 C1060 1.427 . S
N1064 C1061 1.384 . S
N1065 C1057 1.427 . S
N1065 C1063 1.384 . S
H1066 C1072 0.930 . S
H1067 C1076 0.930 . S
H1068 C1081 0.929 . S
H1069 C1079 0.929 . S
H1070 C1074 0.929 . S
H1071 C1080 0.929 . S
C1072 H1066 0.930 . S
C1072 C1073 1.367 . S
C1072 C1080 1.378 . S
C1073 C1072 1.367 . S
C1073 C1081 1.433 . S
C1074 H1070 0.929 . S
C1074 C1076 1.378 . S
C1074 C1078 1.350 . S
C1075 C1078 1.463 . S
C1075 C1080 1.350 . S
C1075 N1083 1.427 . S
C1076 H1067 0.930 . S
C1076 C1074 1.378 . S
C1076 C1077 1.367 . S
C1077 C1076 1.367 . S
C1077 C1079 1.433 . S
C1078 C1074 1.350 . S
C1078 C1075 1.463 . S
C1078 N1082 1.427 . S
C1079 H1069 0.929 . S
C1079 C1077 1.433 . S
C1079 N1082 1.384 . S
C1080 H1071 0.929 . S
C1080 C1072 1.378 . S
C1080 C1075 1.350 . S
C1081 H1068 0.929 . S
C1081 C1073 1.433 . S
C1081 N1083 1.384 . S
N1082 C1078 1.427 . S
N1082 C1079 1.384 . S
N1083 C1075 1.427 . S
N1083 C1081 1.384 . S
H1084 C1090 0.930 . S
H1085 C1094 0.930 . S
H1086 C1099 0.929 . S
H1087 C1097 0.929 . S
H1088 C1092 0.929 . S
H1089 C1098 0.929 . S
C1090 H1084 0.930 . S
C1090 C1091 1.367 . S
C1090 C1098 1.378 . S
C1091 C1090 1.367 . S
C1091 C1099 1.433 . S
C1092 H1088 0.929 . S
C1092 C1094 1.378 . S
C1092 C1096 1.350 . S
C1093 C1096 1.463 . S
C1093 C1098 1.350 . S
C1093 N1101 1.427 . S
C1094 H1085 0.930 . S
C1094 C1092 1.378 . S
C1094 C1095 1.367 . S
C1095 C1094 1.367 . S
C1095 C1097 1.433 . S
C1096 C1092 1.350 . S
C1096 C1093 1.463 . S
C1096 N1100 1.427 . S
C1097 H1087 0.929 . S
C1097 C1095 1.433 . S
C1097 N1100 1.384 . S
C1098 H1089 0.929 . S
C1098 C1090 1.378 . S
C1098 C1093 1.350 . S
C1099 H1086 0.929 . S
C1099 C1091 1.433 . S
C1099 N1101 1.384 . S
N1100 C1096 1.427 . S
N1100 C1097 1.384 . S
N1101 C1093 1.427 . S
N1101 C1099 1.384 . S
H1102 C1108 0.930 . S
H1103 C1112 0.930 . S
H1104 C1117 0.929 . S
H1105 C1115 0.929 . S
H1106 C1110 0.929 . S
H1107 C1116 0.929 . S
C1108 H1102 0.930 . S
C1108 C1109 1.367 . S
C1108 C1116 1.378 . S
C1109 C1108 1.367 . S
C1109 C1117 1.433 . S
C1110 H1106 0.929 . S
C1110 C1112 1.378 . S
C1110 C1114 1.350 . S
C1111 C1114 1.463 . S
C1111 C1116 1.350 . S
C1111 N1119 1.427 . S
C1112 H1103 0.930 . S
C1112 C1110 1.378 . S
C1112 C1113 1.367 . S
C1113 C1112 1.367 . S
C1113 C1115 1.433 . S
C1114 C1110 1.350 . S
C1114 C1111 1.463 . S
C1114 N1118 1.427 . S
C1115 H1105 0.929 . S
C1115 C1113 1.433 . S
C1115 N1118 1.384 . S
C1116 H1107 0.929 . S
C1116 C1108 1.378 . S
C1116 C1111 1.350 . S
C1117 H1104 0.929 . S
C1117 C1109 1.433 . S
C1117 N1119 1.384 . S
N1118 C1114 1.427 . S
N1118 C1115 1.384 . S
N1119 C1111 1.427 . S
N1119 C1117 1.384 . S
H1120 C1126 0.927 1_455 S
H1121 C1130 0.908 1_655 S
H1122 C1135 0.929 . S
H1123 C1133 0.929 . S
H1124 C1128 0.929 . S
H1125 C1134 0.929 . S
C1126 H1120 0.927 1_655 S
C1126 C1127 1.367 . S
C1126 C1134 1.378 1_655 S
C1127 C1126 1.367 . S
C1127 C1135 1.433 . S
C1128 H1124 0.929 . S
C1128 C1130 1.354 1_655 S
C1128 C1132 1.350 1_655 S
C1129 C1132 1.463 1_655 S
C1129 C1134 1.350 1_655 S
C1129 N1137 1.427 . S
C1130 H1121 0.908 1_455 S
C1130 C1128 1.354 1_455 S
C1130 C1131 1.414 . S
C1131 C1130 1.414 . S
C1131 C1133 1.433 . S
C1132 C1128 1.350 1_455 S
C1132 C1129 1.463 1_455 S
C1132 N1136 1.427 . S
C1133 H1123 0.929 . S
C1133 C1131 1.433 . S
C1133 N1136 1.384 . S
C1134 H1125 0.929 . S
C1134 C1126 1.378 1_455 S
C1134 C1129 1.350 1_455 S
C1135 H1122 0.929 . S
C1135 C1127 1.433 . S
C1135 N1137 1.384 . S
N1136 C1132 1.427 . S
N1136 C1133 1.384 . S
N1137 C1129 1.427 . S
N1137 C1135 1.384 . S
H1138 C1144 0.930 . S
H1139 C1148 0.930 . S
H1140 C1153 0.929 . S
H1141 C1151 0.929 . S
H1142 C1146 0.929 . S
H1143 C1152 0.929 . S
C1144 H1138 0.930 . S
C1144 C1145 1.367 . S
C1144 C1152 1.378 . S
C1145 C1144 1.367 . S
C1145 C1153 1.433 . S
C1146 H1142 0.929 . S
C1146 C1148 1.378 . S
C1146 C1150 1.350 . S
C1147 C1150 1.463 . S
C1147 C1152 1.350 . S
C1147 N1155 1.427 . S
C1148 H1139 0.930 . S
C1148 C1146 1.378 . S
C1148 C1149 1.367 . S
C1149 C1148 1.367 . S
C1149 C1151 1.433 . S
C1150 C1146 1.350 . S
C1150 C1147 1.463 . S
C1150 N1154 1.427 . S
C1151 H1141 0.929 . S
C1151 C1149 1.433 . S
C1151 N1154 1.384 . S
C1152 H1143 0.929 . S
C1152 C1144 1.378 . S
C1152 C1147 1.350 . S
C1153 H1140 0.929 . S
C1153 C1145 1.433 . S
C1153 N1155 1.384 . S
N1154 C1150 1.427 . S
N1154 C1151 1.384 . S
N1155 C1147 1.427 . S
N1155 C1153 1.384 . S
H1156 C1162 0.930 . S
H1157 C1166 0.930 . S
H1158 C1171 0.929 . S
H1159 C1169 0.929 . S
H1160 C1164 0.929 . S
H1161 C1170 0.929 . S
C1162 H1156 0.930 . S
C1162 C1163 1.367 . S
C1162 C1170 1.378 . S
C1163 C1162 1.367 . S
C1163 C1171 1.433 . S
C1164 H1160 0.929 . S
C1164 C1166 1.378 . S
C1164 C1168 1.350 . S
C1165 C1168 1.463 . S
C1165 C1170 1.350 . S
C1165 N1173 1.427 . S
C1166 H1157 0.930 . S
C1166 C1164 1.378 . S
C1166 C1167 1.367 . S
C1167 C1166 1.367 . S
C1167 C1169 1.433 . S
C1168 C1164 1.350 . S
C1168 C1165 1.463 . S
C1168 N1172 1.427 . S
C1169 H1159 0.929 . S
C1169 C1167 1.433 . S
C1169 N1172 1.384 . S
C1170 H1161 0.929 . S
C1170 C1162 1.378 . S
C1170 C1165 1.350 . S
C1171 H1158 0.929 . S
C1171 C1163 1.433 . S
C1171 N1173 1.384 . S
N1172 C1168 1.427 . S
N1172 C1169 1.384 . S
N1173 C1165 1.427 . S
N1173 C1171 1.384 . S
H1174 C1180 0.930 . S
H1175 C1184 0.930 . S
H1176 C1189 0.929 . S
H1177 C1187 0.929 . S
H1178 C1182 0.929 . S
H1179 C1188 0.929 . S
C1180 H1174 0.930 . S
C1180 C1181 1.367 . S
C1180 C1188 1.378 . S
C1181 C1180 1.367 . S
C1181 C1189 1.433 . S
C1182 H1178 0.929 . S
C1182 C1184 1.378 . S
C1182 C1186 1.350 . S
C1183 C1186 1.463 . S
C1183 C1188 1.350 . S
C1183 N1191 1.427 . S
C1184 H1175 0.930 . S
C1184 C1182 1.378 . S
C1184 C1185 1.367 . S
C1185 C1184 1.367 . S
C1185 C1187 1.433 . S
C1186 C1182 1.350 . S
C1186 C1183 1.463 . S
C1186 N1190 1.427 . S
C1187 H1177 0.929 . S
C1187 C1185 1.433 . S
C1187 N1190 1.384 . S
C1188 H1179 0.929 . S
C1188 C1180 1.378 . S
C1188 C1183 1.350 . S
C1189 H1176 0.929 . S
C1189 C1181 1.433 . S
C1189 N1191 1.384 . S
N1190 C1186 1.427 . S
N1190 C1187 1.384 . S
N1191 C1183 1.427 . S
N1191 C1189 1.384 . S
H1192 C1198 0.930 . S
H1193 C1202 0.930 . S
H1194 C1207 0.929 1_455 S
H1195 C1205 0.929 . S
H1196 C1200 0.929 . S
H1197 C1206 0.929 . S
C1198 H1192 0.930 . S
C1198 C1199 1.367 . S
C1198 C1206 1.378 . S
C1199 C1198 1.367 . S
C1199 C1207 1.433 . S
C1200 H1196 0.929 . S
C1200 C1202 1.378 . S
C1200 C1204 1.350 1_455 S
C1201 C1204 1.463 . S
C1201 C1206 1.350 . S
C1201 N1209 1.427 1_655 S
C1202 H1193 0.930 . S
C1202 C1200 1.378 . S
C1202 C1203 1.367 . S
C1203 C1202 1.367 . S
C1203 C1205 1.433 1_455 S
C1204 C1200 1.350 1_655 S
C1204 C1201 1.463 . S
C1204 N1208 1.427 . S
C1205 H1195 0.929 . S
C1205 C1203 1.433 1_655 S
C1205 N1208 1.384 . S
C1206 H1197 0.929 . S
C1206 C1198 1.378 . S
C1206 C1201 1.350 . S
C1207 H1194 0.929 1_655 S
C1207 C1199 1.433 . S
C1207 N1209 1.384 1_655 S
N1208 C1204 1.427 . S
N1208 C1205 1.384 . S
N1209 C1201 1.427 1_455 S
N1209 C1207 1.384 1_455 S
H1210 C1216 0.930 . S
H1211 C1220 0.930 . S
H1212 C1225 0.929 . S
H1213 C1223 0.929 . S
H1214 C1218 0.929 . S
H1215 C1224 0.929 . S
C1216 H1210 0.930 . S
C1216 C1217 1.367 . S
C1216 C1224 1.378 . S
C1217 C1216 1.367 . S
C1217 C1225 1.433 . S
C1218 H1214 0.929 . S
C1218 C1220 1.378 . S
C1218 C1222 1.350 . S
C1219 C1222 1.463 . S
C1219 C1224 1.350 . S
C1219 N1227 1.427 . S
C1220 H1211 0.930 . S
C1220 C1218 1.378 . S
C1220 C1221 1.367 . S
C1221 C1220 1.367 . S
C1221 C1223 1.433 . S
C1222 C1218 1.350 . S
C1222 C1219 1.463 . S
C1222 N1226 1.427 . S
C1223 H1213 0.929 . S
C1223 C1221 1.433 . S
C1223 N1226 1.384 . S
C1224 H1215 0.929 . S
C1224 C1216 1.378 . S
C1224 C1219 1.350 . S
C1225 H1212 0.929 . S
C1225 C1217 1.433 . S
C1225 N1227 1.384 . S
N1226 C1222 1.427 . S
N1226 C1223 1.384 . S
N1227 C1219 1.427 . S
N1227 C1225 1.384 . S
H1228 C1234 0.930 . S
H1229 C1238 0.930 . S
H1230 C1243 0.929 . S
H1231 C1241 0.929 . S
H1232 C1236 0.929 . S
H1233 C1242 0.929 . S
C1234 H1228 0.930 . S
C1234 C1235 1.367 . S
C1234 C1242 1.378 . S
C1235 C1234 1.367 . S
C1235 C1243 1.433 . S
C1236 H1232 0.929 . S
C1236 C1238 1.378 . S
C1236 C1240 1.350 . S
C1237 C1240 1.463 . S
C1237 C1242 1.350 . S
C1237 N1245 1.427 . S
C1238 H1229 0.930 . S
C1238 C1236 1.378 . S
C1238 C1239 1.367 . S
C1239 C1238 1.367 . S
C1239 C1241 1.433 . S
C1240 C1236 1.350 . S
C1240 C1237 1.463 . S
C1240 N1244 1.427 . S
C1241 H1231 0.929 . S
C1241 C1239 1.433 . S
C1241 N1244 1.384 . S
C1242 H1233 0.929 . S
C1242 C1234 1.378 . S
C1242 C1237 1.350 . S
C1243 H1230 0.929 . S
C1243 C1235 1.433 . S
C1243 N1245 1.384 . S
N1244 C1240 1.427 . S
N1244 C1241 1.384 . S
N1245 C1237 1.427 . S
N1245 C1243 1.384 . S
H1246 C1252 0.930 . S
H1247 C1256 0.930 . S
H1248 C1261 0.929 . S
H1249 C1259 0.929 . S
H1250 C1254 0.929 . S
H1251 C1260 0.929 . S
C1252 H1246 0.930 . S
C1252 C1253 1.367 . S
C1252 C1260 1.378 . S
C1253 C1252 1.367 . S
C1253 C1261 1.433 . S
C1254 H1250 0.929 . S
C1254 C1256 1.378 . S
C1254 C1258 1.350 . S
C1255 C1258 1.463 . S
C1255 C1260 1.350 . S
C1255 N1263 1.427 . S
C1256 H1247 0.930 . S
C1256 C1254 1.378 . S
C1256 C1257 1.367 . S
C1257 C1256 1.367 . S
C1257 C1259 1.433 . S
C1258 C1254 1.350 . S
C1258 C1255 1.463 . S
C1258 N1262 1.427 . S
C1259 H1249 0.929 . S
C1259 C1257 1.433 . S
C1259 N1262 1.384 . S
C1260 H1251 0.929 . S
C1260 C1252 1.378 . S
C1260 C1255 1.350 . S
C1261 H1248 0.929 . S
C1261 C1253 1.433 . S
C1261 N1263 1.384 . S
N1262 C1258 1.427 . S
N1262 C1259 1.384 . S
N1263 C1255 1.427 . S
N1263 C1261 1.384 . S
H1264 C1270 0.931 . S
H1265 C1274 0.930 1_556 S
H1266 C1279 0.929 . S
H1267 C1277 0.929 . S
H1268 C1272 0.929 1_556 S
H1269 C1278 0.923 1_545 S
C1270 H1264 0.931 . S
C1270 C1271 1.367 . S
C1270 C1278 1.383 . S
C1271 C1270 1.367 . S
C1271 C1279 1.433 1_554 S
C1272 H1268 0.929 1_554 S
C1272 C1274 1.378 . S
C1272 C1276 1.350 . S
C1273 C1276 1.463 . S
C1273 C1278 1.350 . S
C1273 N1281 1.427 1_554 S
C1274 H1265 0.930 1_554 S
C1274 C1272 1.378 . S
C1274 C1275 1.367 1_565 S
C1275 C1274 1.367 1_545 S
C1275 C1277 1.433 . S
C1276 C1272 1.350 . S
C1276 C1273 1.463 . S
C1276 N1280 1.427 1_565 S
C1277 H1267 0.929 . S
C1277 C1275 1.433 . S
C1277 N1280 1.384 . S
C1278 H1269 0.923 1_565 S
C1278 C1270 1.383 . S
C1278 C1273 1.350 . S
C1279 H1266 0.929 . S
C1279 C1271 1.433 1_556 S
C1279 N1281 1.384 . S
N1280 C1276 1.427 1_545 S
N1280 C1277 1.384 . S
N1281 C1273 1.427 1_556 S
N1281 C1279 1.384 . S
H1282 C1288 0.930 . S
H1283 C1292 0.930 . S
H1284 C1297 0.929 . S
H1285 C1295 0.929 . S
H1286 C1290 0.929 . S
H1287 C1296 0.929 . S
C1288 H1282 0.930 . S
C1288 C1289 1.367 . S
C1288 C1296 1.378 . S
C1289 C1288 1.367 . S
C1289 C1297 1.433 1_554 S
C1290 H1286 0.929 . S
C1290 C1292 1.378 . S
C1290 C1294 1.350 1_556 S
C1291 C1294 1.463 . S
C1291 C1296 1.350 . S
C1291 N1299 1.427 1_554 S
C1292 H1283 0.930 . S
C1292 C1290 1.378 . S
C1292 C1293 1.367 1_556 S
C1293 C1292 1.367 1_554 S
C1293 C1295 1.433 . S
C1294 C1290 1.350 1_554 S
C1294 C1291 1.463 . S
C1294 N1298 1.427 . S
C1295 H1285 0.929 . S
C1295 C1293 1.433 . S
C1295 N1298 1.384 . S
C1296 H1287 0.929 . S
C1296 C1288 1.378 . S
C1296 C1291 1.350 . S
C1297 H1284 0.929 . S
C1297 C1289 1.433 1_556 S
C1297 N1299 1.384 . S
N1298 C1294 1.427 . S
N1298 C1295 1.384 . S
N1299 C1291 1.427 1_556 S
N1299 C1297 1.384 . S
H1300 C1306 0.930 . S
H1301 C1310 0.930 . S
H1302 C1315 0.929 . S
H1303 C1313 0.929 . S
H1304 C1308 0.929 . S
H1305 C1314 0.929 . S
C1306 H1300 0.930 . S
C1306 C1307 1.367 . S
C1306 C1314 1.378 . S
C1307 C1306 1.367 . S
C1307 C1315 1.433 . S
C1308 H1304 0.929 . S
C1308 C1310 1.378 . S
C1308 C1312 1.350 . S
C1309 C1312 1.463 . S
C1309 C1314 1.350 . S
C1309 N1317 1.427 . S
C1310 H1301 0.930 . S
C1310 C1308 1.378 . S
C1310 C1311 1.367 . S
C1311 C1310 1.367 . S
C1311 C1313 1.433 . S
C1312 C1308 1.350 . S
C1312 C1309 1.463 . S
C1312 N1316 1.427 . S
C1313 H1303 0.929 . S
C1313 C1311 1.433 . S
C1313 N1316 1.384 . S
C1314 H1305 0.929 . S
C1314 C1306 1.378 . S
C1314 C1309 1.350 . S
C1315 H1302 0.929 . S
C1315 C1307 1.433 . S
C1315 N1317 1.384 . S
N1316 C1312 1.427 . S
N1316 C1313 1.384 . S
N1317 C1309 1.427 . S
N1317 C1315 1.384 . S
H1318 C1324 0.930 . S
H1319 C1328 0.930 . S
H1320 C1333 0.929 . S
H1321 C1331 0.929 . S
H1322 C1326 0.929 . S
H1323 C1332 0.929 . S
C1324 H1318 0.930 . S
C1324 C1325 1.367 . S
C1324 C1332 1.378 . S
C1325 C1324 1.367 . S
C1325 C1333 1.433 . S
C1326 H1322 0.929 . S
C1326 C1328 1.378 . S
C1326 C1330 1.350 . S
C1327 C1330 1.463 . S
C1327 C1332 1.350 . S
C1327 N1335 1.427 . S
C1328 H1319 0.930 . S
C1328 C1326 1.378 . S
C1328 C1329 1.367 . S
C1329 C1328 1.367 . S
C1329 C1331 1.433 . S
C1330 C1326 1.350 . S
C1330 C1327 1.463 . S
C1330 N1334 1.427 . S
C1331 H1321 0.929 . S
C1331 C1329 1.433 . S
C1331 N1334 1.384 . S
C1332 H1323 0.929 . S
C1332 C1324 1.378 . S
C1332 C1327 1.350 . S
C1333 H1320 0.929 . S
C1333 C1325 1.433 . S
C1333 N1335 1.384 . S
N1334 C1330 1.427 . S
N1334 C1331 1.384 . S
N1335 C1327 1.427 . S
N1335 C1333 1.384 . S
H1336 C1342 0.930 . S
H1337 C1346 0.930 . S
H1338 C1351 0.929 . S
H1339 C1349 0.929 . S
H1340 C1344 0.929 . S
H1341 C1350 0.929 . S
C1342 H1336 0.930 . S
C1342 C1343 1.367 . S
C1342 C1350 1.378 . S
C1343 C1342 1.367 . S
C1343 C1351 1.433 . S
C1344 H1340 0.929 . S
C1344 C1346 1.378 . S
C1344 C1348 1.350 . S
C1345 C1348 1.463 . S
C1345 C1350 1.350 . S
C1345 N1353 1.427 . S
C1346 H1337 0.930 . S
C1346 C1344 1.378 . S
C1346 C1347 1.367 . S
C1347 C1346 1.367 . S
C1347 C1349 1.433 . S
C1348 C1344 1.350 . S
C1348 C1345 1.463 . S
C1348 N1352 1.427 . S
C1349 H1339 0.929 . S
C1349 C1347 1.433 . S
C1349 N1352 1.384 . S
C1350 H1341 0.929 . S
C1350 C1342 1.378 . S
C1350 C1345 1.350 . S
C1351 H1338 0.929 . S
C1351 C1343 1.433 . S
C1351 N1353 1.384 . S
N1352 C1348 1.427 . S
N1352 C1349 1.384 . S
N1353 C1345 1.427 . S
N1353 C1351 1.384 . S
H1354 C1360 0.930 . S
H1355 C1364 0.930 . S
H1356 C1369 0.929 . S
H1357 C1367 0.929 . S
H1358 C1362 0.929 . S
H1359 C1368 0.929 . S
C1360 H1354 0.930 . S
C1360 C1361 1.367 . S
C1360 C1368 1.378 . S
C1361 C1360 1.367 . S
C1361 C1369 1.433 . S
C1362 H1358 0.929 . S
C1362 C1364 1.378 . S
C1362 C1366 1.350 . S
C1363 C1366 1.463 . S
C1363 C1368 1.350 . S
C1363 N1371 1.427 . S
C1364 H1355 0.930 . S
C1364 C1362 1.378 . S
C1364 C1365 1.367 . S
C1365 C1364 1.367 . S
C1365 C1367 1.433 . S
C1366 C1362 1.350 . S
C1366 C1363 1.463 . S
C1366 N1370 1.427 . S
C1367 H1357 0.929 . S
C1367 C1365 1.433 . S
C1367 N1370 1.384 . S
C1368 H1359 0.929 . S
C1368 C1360 1.378 . S
C1368 C1363 1.350 . S
C1369 H1356 0.929 . S
C1369 C1361 1.433 . S
C1369 N1371 1.384 . S
N1370 C1366 1.427 . S
N1370 C1367 1.384 . S
N1371 C1363 1.427 . S
N1371 C1369 1.384 . S
H1372 C1378 0.930 . S
H1373 C1382 0.930 . S
H1374 C1387 0.929 . S
H1375 C1385 0.929 . S
H1376 C1380 0.929 . S
H1377 C1386 0.929 . S
C1378 H1372 0.930 . S
C1378 C1379 1.367 . S
C1378 C1386 1.378 . S
C1379 C1378 1.367 . S
C1379 C1387 1.433 . S
C1380 H1376 0.929 . S
C1380 C1382 1.378 . S
C1380 C1384 1.350 . S
C1381 C1384 1.463 . S
C1381 C1386 1.350 . S
C1381 N1389 1.427 . S
C1382 H1373 0.930 . S
C1382 C1380 1.378 . S
C1382 C1383 1.367 . S
C1383 C1382 1.367 . S
C1383 C1385 1.433 . S
C1384 C1380 1.350 . S
C1384 C1381 1.463 . S
C1384 N1388 1.427 . S
C1385 H1375 0.929 . S
C1385 C1383 1.433 . S
C1385 N1388 1.384 . S
C1386 H1377 0.929 . S
C1386 C1378 1.378 . S
C1386 C1381 1.350 . S
C1387 H1374 0.929 . S
C1387 C1379 1.433 . S
C1387 N1389 1.384 . S
N1388 C1384 1.427 . S
N1388 C1385 1.384 . S
N1389 C1381 1.427 . S
N1389 C1387 1.384 . S
H1390 C1396 0.930 . S
H1391 C1400 0.930 . S
H1392 C1405 0.929 . S
H1393 C1403 0.929 . S
H1394 C1398 0.929 . S
H1395 C1404 0.929 . S
C1396 H1390 0.930 . S
C1396 C1397 1.367 . S
C1396 C1404 1.378 . S
C1397 C1396 1.367 . S
C1397 C1405 1.433 . S
C1398 H1394 0.929 . S
C1398 C1400 1.378 . S
C1398 C1402 1.350 . S
C1399 C1402 1.463 . S
C1399 C1404 1.350 . S
C1399 N1407 1.427 . S
C1400 H1391 0.930 . S
C1400 C1398 1.378 . S
C1400 C1401 1.367 . S
C1401 C1400 1.367 . S
C1401 C1403 1.433 . S
C1402 C1398 1.350 . S
C1402 C1399 1.463 . S
C1402 N1406 1.427 . S
C1403 H1393 0.929 . S
C1403 C1401 1.433 . S
C1403 N1406 1.384 . S
C1404 H1395 0.929 . S
C1404 C1396 1.378 . S
C1404 C1399 1.350 . S
C1405 H1392 0.929 . S
C1405 C1397 1.433 . S
C1405 N1407 1.384 . S
N1406 C1402 1.427 . S
N1406 C1403 1.384 . S
N1407 C1399 1.427 . S
N1407 C1405 1.384 . S
H1408 C1414 0.930 . S
H1409 C1418 0.930 . S
H1410 C1423 0.929 . S
H1411 C1421 0.929 . S
H1412 C1416 0.929 . S
H1413 C1422 0.929 . S
C1414 H1408 0.930 . S
C1414 C1415 1.367 . S
C1414 C1422 1.378 . S
C1415 C1414 1.367 . S
C1415 C1423 1.433 . S
C1416 H1412 0.929 . S
C1416 C1418 1.378 . S
C1416 C1420 1.350 . S
C1417 C1420 1.463 . S
C1417 C1422 1.350 . S
C1417 N1425 1.427 . S
C1418 H1409 0.930 . S
C1418 C1416 1.378 . S
C1418 C1419 1.367 . S
C1419 C1418 1.367 . S
C1419 C1421 1.433 . S
C1420 C1416 1.350 . S
C1420 C1417 1.463 . S
C1420 N1424 1.427 . S
C1421 H1411 0.929 . S
C1421 C1419 1.433 . S
C1421 N1424 1.384 . S
C1422 H1413 0.929 . S
C1422 C1414 1.378 . S
C1422 C1417 1.350 . S
C1423 H1410 0.929 . S
C1423 C1415 1.433 . S
C1423 N1425 1.384 . S
N1424 C1420 1.427 . S
N1424 C1421 1.384 . S
N1425 C1417 1.427 . S
N1425 C1423 1.384 . S
H1426 C1432 0.930 . S
H1427 C1436 0.930 . S
H1428 C1441 0.929 . S
H1429 C1439 0.929 . S
H1430 C1434 0.929 . S
H1431 C1440 0.929 . S
C1432 H1426 0.930 . S
C1432 C1433 1.367 . S
C1432 C1440 1.378 . S
C1433 C1432 1.367 . S
C1433 C1441 1.433 . S
C1434 H1430 0.929 . S
C1434 C1436 1.378 . S
C1434 C1438 1.350 . S
C1435 C1438 1.463 . S
C1435 C1440 1.350 . S
C1435 N1443 1.427 . S
C1436 H1427 0.930 . S
C1436 C1434 1.378 . S
C1436 C1437 1.367 . S
C1437 C1436 1.367 . S
C1437 C1439 1.433 . S
C1438 C1434 1.350 . S
C1438 C1435 1.463 . S
C1438 N1442 1.427 . S
C1439 H1429 0.929 . S
C1439 C1437 1.433 . S
C1439 N1442 1.384 . S
C1440 H1431 0.929 . S
C1440 C1432 1.378 . S
C1440 C1435 1.350 . S
C1441 H1428 0.929 . S
C1441 C1433 1.433 . S
C1441 N1443 1.384 . S
N1442 C1438 1.427 . S
N1442 C1439 1.384 . S
N1443 C1435 1.427 . S
N1443 C1441 1.384 . S
H1444 C1450 0.930 . S
H1445 C1454 0.930 . S
H1446 C1459 0.929 . S
H1447 C1457 0.929 . S
H1448 C1452 0.929 . S
H1449 C1458 0.929 . S
C1450 H1444 0.930 . S
C1450 C1451 1.367 . S
C1450 C1458 1.378 . S
C1451 C1450 1.367 . S
C1451 C1459 1.433 . S
C1452 H1448 0.929 . S
C1452 C1454 1.378 . S
C1452 C1456 1.350 . S
C1453 C1456 1.463 . S
C1453 C1458 1.350 . S
C1453 N1461 1.427 . S
C1454 H1445 0.930 . S
C1454 C1452 1.378 . S
C1454 C1455 1.367 . S
C1455 C1454 1.367 . S
C1455 C1457 1.433 . S
C1456 C1452 1.350 . S
C1456 C1453 1.463 . S
C1456 N1460 1.427 . S
C1457 H1447 0.929 . S
C1457 C1455 1.433 . S
C1457 N1460 1.384 . S
C1458 H1449 0.929 . S
C1458 C1450 1.378 . S
C1458 C1453 1.350 . S
C1459 H1446 0.929 . S
C1459 C1451 1.433 . S
C1459 N1461 1.384 . S
N1460 C1456 1.427 . S
N1460 C1457 1.384 . S
N1461 C1453 1.427 . S
N1461 C1459 1.384 . S
H1462 C1468 0.930 . S
H1463 C1472 0.930 . S
H1464 C1477 0.929 . S
H1465 C1475 0.929 . S
H1466 C1470 0.929 . S
H1467 C1476 0.929 . S
C1468 H1462 0.930 . S
C1468 C1469 1.367 . S
C1468 C1476 1.378 . S
C1469 C1468 1.367 . S
C1469 C1477 1.433 . S
C1470 H1466 0.929 . S
C1470 C1472 1.378 . S
C1470 C1474 1.350 . S
C1471 C1474 1.463 . S
C1471 C1476 1.350 . S
C1471 N1479 1.427 . S
C1472 H1463 0.930 . S
C1472 C1470 1.378 . S
C1472 C1473 1.367 . S
C1473 C1472 1.367 . S
C1473 C1475 1.433 . S
C1474 C1470 1.350 . S
C1474 C1471 1.463 . S
C1474 N1478 1.427 . S
C1475 H1465 0.929 . S
C1475 C1473 1.433 . S
C1475 N1478 1.384 . S
C1476 H1467 0.929 . S
C1476 C1468 1.378 . S
C1476 C1471 1.350 . S
C1477 H1464 0.929 . S
C1477 C1469 1.433 . S
C1477 N1479 1.384 . S
N1478 C1474 1.427 . S
N1478 C1475 1.384 . S
N1479 C1471 1.427 . S
N1479 C1477 1.384 . S
H1480 C1486 0.930 . S
H1481 C1490 0.930 . S
H1482 C1495 0.929 . S
H1483 C1493 0.929 . S
H1484 C1488 0.929 . S
H1485 C1494 0.929 . S
C1486 H1480 0.930 . S
C1486 C1487 1.367 . S
C1486 C1494 1.378 . S
C1487 C1486 1.367 . S
C1487 C1495 1.433 . S
C1488 H1484 0.929 . S
C1488 C1490 1.378 . S
C1488 C1492 1.350 . S
C1489 C1492 1.463 . S
C1489 C1494 1.350 . S
C1489 N1497 1.427 . S
C1490 H1481 0.930 . S
C1490 C1488 1.378 . S
C1490 C1491 1.367 . S
C1491 C1490 1.367 . S
C1491 C1493 1.433 . S
C1492 C1488 1.350 . S
C1492 C1489 1.463 . S
C1492 N1496 1.427 . S
C1493 H1483 0.929 . S
C1493 C1491 1.433 . S
C1493 N1496 1.384 . S
C1494 H1485 0.929 . S
C1494 C1486 1.378 . S
C1494 C1489 1.350 . S
C1495 H1482 0.929 . S
C1495 C1487 1.433 . S
C1495 N1497 1.384 . S
N1496 C1492 1.427 . S
N1496 C1493 1.384 . S
N1497 C1489 1.427 . S
N1497 C1495 1.384 . S
H1498 C1504 0.930 . S
H1499 C1508 0.930 . S
H1500 C1513 0.929 . S
H1501 C1511 0.929 . S
H1502 C1506 0.929 . S
H1503 C1512 0.929 . S
C1504 H1498 0.930 . S
C1504 C1505 1.367 . S
C1504 C1512 1.378 . S
C1505 C1504 1.367 . S
C1505 C1513 1.433 . S
C1506 H1502 0.929 . S
C1506 C1508 1.378 . S
C1506 C1510 1.350 . S
C1507 C1510 1.463 . S
C1507 C1512 1.350 . S
C1507 N1515 1.427 . S
C1508 H1499 0.930 . S
C1508 C1506 1.378 . S
C1508 C1509 1.367 . S
C1509 C1508 1.367 . S
C1509 C1511 1.433 . S
C1510 C1506 1.350 . S
C1510 C1507 1.463 . S
C1510 N1514 1.427 . S
C1511 H1501 0.929 . S
C1511 C1509 1.433 . S
C1511 N1514 1.384 . S
C1512 H1503 0.929 . S
C1512 C1504 1.378 . S
C1512 C1507 1.350 . S
C1513 H1500 0.929 . S
C1513 C1505 1.433 . S
C1513 N1515 1.384 . S
N1514 C1510 1.427 . S
N1514 C1511 1.384 . S
N1515 C1507 1.427 . S
N1515 C1513 1.384 . S
H1516 C1522 0.930 . S
H1517 C1526 0.930 1_554 S
H1518 C1531 0.929 . S
H1519 C1529 0.929 . S
H1520 C1524 0.929 . S
H1521 C1530 0.929 . S
C1522 H1516 0.930 . S
C1522 C1523 1.367 . S
C1522 C1530 1.378 . S
C1523 C1522 1.367 . S
C1523 C1531 1.433 . S
C1524 H1520 0.929 . S
C1524 C1526 1.378 . S
C1524 C1528 1.350 . S
C1525 C1528 1.463 . S
C1525 C1530 1.350 . S
C1525 N1533 1.427 . S
C1526 H1517 0.930 1_556 S
C1526 C1524 1.378 . S
C1526 C1527 1.367 . S
C1527 C1526 1.367 . S
C1527 C1529 1.433 . S
C1528 C1524 1.350 . S
C1528 C1525 1.463 . S
C1528 N1532 1.427 . S
C1529 H1519 0.929 . S
C1529 C1527 1.433 . S
C1529 N1532 1.384 . S
C1530 H1521 0.929 . S
C1530 C1522 1.378 . S
C1530 C1525 1.350 . S
C1531 H1518 0.929 . S
C1531 C1523 1.433 . S
C1531 N1533 1.384 . S
N1532 C1528 1.427 . S
N1532 C1529 1.384 . S
N1533 C1525 1.427 . S
N1533 C1531 1.384 . S
H1534 C1540 0.930 . S
H1535 C1544 0.930 . S
H1536 C1549 0.929 . S
H1537 C1547 0.929 . S
H1538 C1542 0.929 . S
H1539 C1548 0.929 . S
C1540 H1534 0.930 . S
C1540 C1541 1.367 . S
C1540 C1548 1.378 . S
C1541 C1540 1.367 . S
C1541 C1549 1.433 . S
C1542 H1538 0.929 . S
C1542 C1544 1.378 . S
C1542 C1546 1.350 . S
C1543 C1546 1.463 . S
C1543 C1548 1.350 . S
C1543 N1551 1.427 . S
C1544 H1535 0.930 . S
C1544 C1542 1.378 . S
C1544 C1545 1.367 . S
C1545 C1544 1.367 . S
C1545 C1547 1.433 . S
C1546 C1542 1.350 . S
C1546 C1543 1.463 . S
C1546 N1550 1.427 . S
C1547 H1537 0.929 . S
C1547 C1545 1.433 . S
C1547 N1550 1.384 . S
C1548 H1539 0.929 . S
C1548 C1540 1.378 . S
C1548 C1543 1.350 . S
C1549 H1536 0.929 . S
C1549 C1541 1.433 . S
C1549 N1551 1.384 . S
N1550 C1546 1.427 . S
N1550 C1547 1.384 . S
N1551 C1543 1.427 . S
N1551 C1549 1.384 . S
H1552 C1558 0.930 . S
H1553 C1562 0.930 . S
H1554 C1567 0.929 . S
H1555 C1565 0.934 . S
H1556 C1560 0.929 . S
H1557 C1566 0.929 . S
C1558 H1552 0.930 . S
C1558 C1559 1.367 1_565 S
C1558 C1566 1.378 . S
C1559 C1558 1.367 1_545 S
C1559 C1567 1.433 . S
C1560 H1556 0.929 . S
C1560 C1562 1.378 . S
C1560 C1564 1.350 . S
C1561 C1564 1.463 . S
C1561 C1566 1.350 1_545 S
C1561 N1569 1.427 . S
C1562 H1553 0.930 . S
C1562 C1560 1.378 . S
C1562 C1563 1.367 . S
C1563 C1562 1.367 . S
C1563 C1565 1.428 1_545 S
C1564 C1560 1.350 . S
C1564 C1561 1.463 . S
C1564 N1568 1.382 1_545 S
C1565 H1555 0.934 . S
C1565 C1563 1.428 1_565 S
C1565 N1568 1.387 . S
C1566 H1557 0.929 . S
C1566 C1558 1.378 . S
C1566 C1561 1.350 1_565 S
C1567 H1554 0.929 . S
C1567 C1559 1.433 . S
C1567 N1569 1.384 . S
N1568 C1564 1.382 1_565 S
N1568 C1565 1.387 . S
N1569 C1561 1.427 . S
N1569 C1567 1.384 . S
H1570 C1576 0.930 . S
H1571 C1580 0.930 . S
H1572 C1585 0.929 . S
H1573 C1583 0.929 . S
H1574 C1578 0.929 . S
H1575 C1584 0.929 . S
C1576 H1570 0.930 . S
C1576 C1577 1.367 . S
C1576 C1584 1.378 . S
C1577 C1576 1.367 . S
C1577 C1585 1.433 . S
C1578 H1574 0.929 . S
C1578 C1580 1.378 . S
C1578 C1582 1.350 . S
C1579 C1582 1.463 . S
C1579 C1584 1.350 . S
C1579 N1587 1.427 . S
C1580 H1571 0.930 . S
C1580 C1578 1.378 . S
C1580 C1581 1.367 . S
C1581 C1580 1.367 . S
C1581 C1583 1.433 . S
C1582 C1578 1.350 . S
C1582 C1579 1.463 . S
C1582 N1586 1.427 . S
C1583 H1573 0.929 . S
C1583 C1581 1.433 . S
C1583 N1586 1.384 . S
C1584 H1575 0.929 . S
C1584 C1576 1.378 . S
C1584 C1579 1.350 . S
C1585 H1572 0.929 . S
C1585 C1577 1.433 . S
C1585 N1587 1.384 . S
N1586 C1582 1.427 . S
N1586 C1583 1.384 . S
N1587 C1579 1.427 . S
N1587 C1585 1.384 . S
H1588 C1594 0.930 . S
H1589 C1598 0.930 . S
H1590 C1603 0.929 . S
H1591 C1601 0.929 . S
H1592 C1596 0.929 . S
H1593 C1602 0.929 . S
C1594 H1588 0.930 . S
C1594 C1595 1.367 . S
C1594 C1602 1.378 . S
C1595 C1594 1.367 . S
C1595 C1603 1.433 . S
C1596 H1592 0.929 . S
C1596 C1598 1.378 . S
C1596 C1600 1.350 . S
C1597 C1600 1.463 . S
C1597 C1602 1.350 . S
C1597 N1605 1.427 . S
C1598 H1589 0.930 . S
C1598 C1596 1.378 . S
C1598 C1599 1.367 . S
C1599 C1598 1.367 . S
C1599 C1601 1.433 . S
C1600 C1596 1.350 . S
C1600 C1597 1.463 . S
C1600 N1604 1.427 . S
C1601 H1591 0.929 . S
C1601 C1599 1.433 . S
C1601 N1604 1.384 . S
C1602 H1593 0.929 . S
C1602 C1594 1.378 . S
C1602 C1597 1.350 . S
C1603 H1590 0.929 . S
C1603 C1595 1.433 . S
C1603 N1605 1.384 . S
N1604 C1600 1.427 . S
N1604 C1601 1.384 . S
N1605 C1597 1.427 . S
N1605 C1603 1.384 . S
H1606 C1612 0.930 . S
H1607 C1616 0.930 . S
H1608 C1621 0.929 . S
H1609 C1619 0.929 . S
H1610 C1614 0.929 . S
H1611 C1620 0.929 . S
C1612 H1606 0.930 . S
C1612 C1613 1.367 . S
C1612 C1620 1.378 . S
C1613 C1612 1.367 . S
C1613 C1621 1.433 . S
C1614 H1610 0.929 . S
C1614 C1616 1.378 . S
C1614 C1618 1.350 . S
C1615 C1618 1.463 . S
C1615 C1620 1.350 . S
C1615 N1623 1.427 . S
C1616 H1607 0.930 . S
C1616 C1614 1.378 . S
C1616 C1617 1.367 . S
C1617 C1616 1.367 . S
C1617 C1619 1.433 . S
C1618 C1614 1.350 . S
C1618 C1615 1.463 . S
C1618 N1622 1.427 . S
C1619 H1609 0.929 . S
C1619 C1617 1.433 . S
C1619 N1622 1.384 . S
C1620 H1611 0.929 . S
C1620 C1612 1.378 . S
C1620 C1615 1.350 . S
C1621 H1608 0.929 . S
C1621 C1613 1.433 . S
C1621 N1623 1.384 . S
N1622 C1618 1.427 . S
N1622 C1619 1.384 . S
N1623 C1615 1.427 . S
N1623 C1621 1.384 . S
H1624 C1630 0.930 . S
H1625 C1634 0.930 . S
H1626 C1639 0.929 . S
H1627 C1637 0.929 1_565 S
H1628 C1632 0.929 . S
H1629 C1638 0.929 . S
C1630 H1624 0.930 . S
C1630 C1631 1.367 1_565 S
C1630 C1638 1.378 . S
C1631 C1630 1.367 1_545 S
C1631 C1639 1.433 . S
C1632 H1628 0.929 . S
C1632 C1634 1.378 . S
C1632 C1636 1.350 . S
C1633 C1636 1.463 . S
C1633 C1638 1.350 1_545 S
C1633 N1641 1.427 . S
C1634 H1625 0.930 . S
C1634 C1632 1.378 . S
C1634 C1635 1.367 . S
C1635 C1634 1.367 . S
C1635 C1637 1.433 . S
C1636 C1632 1.350 . S
C1636 C1633 1.463 . S
C1636 N1640 1.415 1_545 S
C1637 H1627 0.929 1_545 S
C1637 C1635 1.433 . S
C1637 N1640 1.372 1_545 S
C1638 H1629 0.929 . S
C1638 C1630 1.378 . S
C1638 C1633 1.350 1_565 S
C1639 H1626 0.929 . S
C1639 C1631 1.433 . S
C1639 N1641 1.384 . S
N1640 C1636 1.415 1_565 S
N1640 C1637 1.372 1_565 S
N1641 C1633 1.427 . S
N1641 C1639 1.384 . S
H1642 C1648 0.930 . S
H1643 C1652 0.930 . S
H1644 C1657 0.929 . S
H1645 C1655 0.929 . S
H1646 C1650 0.929 . S
H1647 C1656 0.929 . S
C1648 H1642 0.930 . S
C1648 C1649 1.367 . S
C1648 C1656 1.378 . S
C1649 C1648 1.367 . S
C1649 C1657 1.433 . S
C1650 H1646 0.929 . S
C1650 C1652 1.378 . S
C1650 C1654 1.350 . S
C1651 C1654 1.463 . S
C1651 C1656 1.350 . S
C1651 N1659 1.427 . S
C1652 H1643 0.930 . S
C1652 C1650 1.378 . S
C1652 C1653 1.367 . S
C1653 C1652 1.367 . S
C1653 C1655 1.433 . S
C1654 C1650 1.350 . S
C1654 C1651 1.463 . S
C1654 N1658 1.427 . S
C1655 H1645 0.929 . S
C1655 C1653 1.433 . S
C1655 N1658 1.384 . S
C1656 H1647 0.929 . S
C1656 C1648 1.378 . S
C1656 C1651 1.350 . S
C1657 H1644 0.929 . S
C1657 C1649 1.433 . S
C1657 N1659 1.384 . S
N1658 C1654 1.427 . S
N1658 C1655 1.384 . S
N1659 C1651 1.427 . S
N1659 C1657 1.384 . S
H1660 C1666 0.930 . S
H1661 C1670 0.930 1_545 S
H1662 C1675 0.929 . S
H1663 C1673 0.929 . S
H1664 C1668 0.931 1_545 S
H1665 C1674 0.929 . S
C1666 H1660 0.930 . S
C1666 C1667 1.367 . S
C1666 C1674 1.378 . S
C1667 C1666 1.367 . S
C1667 C1675 1.433 1_565 S
C1668 H1664 0.931 1_565 S
C1668 C1670 1.375 . S
C1668 C1672 1.350 . S
C1669 C1672 1.463 . S
C1669 C1674 1.350 . S
C1669 N1677 1.427 1_565 S
C1670 H1661 0.930 1_565 S
C1670 C1668 1.375 . S
C1670 C1671 1.367 . S
C1671 C1670 1.367 . S
C1671 C1673 1.433 . S
C1672 C1668 1.350 . S
C1672 C1669 1.463 . S
C1672 N1676 1.427 . S
C1673 H1663 0.929 . S
C1673 C1671 1.433 . S
C1673 N1676 1.384 . S
C1674 H1665 0.929 . S
C1674 C1666 1.378 . S
C1674 C1669 1.350 . S
C1675 H1662 0.929 . S
C1675 C1667 1.433 1_545 S
C1675 N1677 1.384 . S
N1676 C1672 1.427 . S
N1676 C1673 1.384 . S
N1677 C1669 1.427 1_545 S
N1677 C1675 1.384 . S
H1678 C1684 0.930 . S
H1679 C1688 0.930 . S
H1680 C1693 0.929 . S
H1681 C1691 0.929 . S
H1682 C1686 0.929 . S
H1683 C1692 0.929 . S
C1684 H1678 0.930 . S
C1684 C1685 1.367 . S
C1684 C1692 1.378 . S
C1685 C1684 1.367 . S
C1685 C1693 1.433 . S
C1686 H1682 0.929 . S
C1686 C1688 1.378 . S
C1686 C1690 1.350 . S
C1687 C1690 1.463 . S
C1687 C1692 1.350 . S
C1687 N1695 1.427 . S
C1688 H1679 0.930 . S
C1688 C1686 1.378 . S
C1688 C1689 1.367 . S
C1689 C1688 1.367 . S
C1689 C1691 1.433 . S
C1690 C1686 1.350 . S
C1690 C1687 1.463 . S
C1690 N1694 1.427 . S
C1691 H1681 0.929 . S
C1691 C1689 1.433 . S
C1691 N1694 1.384 . S
C1692 H1683 0.929 . S
C1692 C1684 1.378 . S
C1692 C1687 1.350 . S
C1693 H1680 0.929 . S
C1693 C1685 1.433 . S
C1693 N1695 1.384 . S
N1694 C1690 1.427 . S
N1694 C1691 1.384 . S
N1695 C1687 1.427 . S
N1695 C1693 1.384 . S
H1696 C1702 0.930 . S
H1697 C1706 0.930 . S
H1698 C1711 0.929 . S
H1699 C1709 0.929 . S
H1700 C1704 0.929 . S
H1701 C1710 0.929 . S
C1702 H1696 0.930 . S
C1702 C1703 1.367 1_556 S
C1702 C1710 1.378 . S
C1703 C1702 1.367 1_554 S
C1703 C1711 1.433 . S
C1704 H1700 0.929 . S
C1704 C1706 1.378 . S
C1704 C1708 1.350 . S
C1705 C1708 1.463 . S
C1705 C1710 1.350 1_554 S
C1705 N1713 1.427 . S
C1706 H1697 0.930 . S
C1706 C1704 1.378 . S
C1706 C1707 1.367 . S
C1707 C1706 1.367 . S
C1707 C1709 1.433 1_554 S
C1708 C1704 1.350 . S
C1708 C1705 1.463 . S
C1708 N1712 1.427 1_554 S
C1709 H1699 0.929 . S
C1709 C1707 1.433 1_556 S
C1709 N1712 1.384 . S
C1710 H1701 0.929 . S
C1710 C1702 1.378 . S
C1710 C1705 1.350 1_556 S
C1711 H1698 0.929 . S
C1711 C1703 1.433 . S
C1711 N1713 1.384 . S
N1712 C1708 1.427 1_556 S
N1712 C1709 1.384 . S
N1713 C1705 1.427 . S
N1713 C1711 1.384 . S
H1714 C1720 0.930 . S
H1715 C1724 0.957 . S
H1716 C1729 0.929 . S
H1717 C1727 0.929 . S
H1718 C1722 0.929 . S
H1719 C1728 0.929 . S
C1720 H1714 0.930 . S
C1720 C1721 1.367 . S
C1720 C1728 1.378 . S
C1721 C1720 1.367 . S
C1721 C1729 1.433 . S
C1722 H1718 0.929 . S
C1722 C1724 1.378 . S
C1722 C1726 1.350 . S
C1723 C1726 1.463 . S
C1723 C1728 1.350 . S
C1723 N1731 1.427 . S
C1724 H1715 0.957 . S
C1724 C1722 1.378 . S
C1724 C1725 1.367 . S
C1725 C1724 1.367 . S
C1725 C1727 1.433 . S
C1726 C1722 1.350 . S
C1726 C1723 1.463 . S
C1726 N1730 1.427 . S
C1727 H1717 0.929 . S
C1727 C1725 1.433 . S
C1727 N1730 1.384 . S
C1728 H1719 0.929 . S
C1728 C1720 1.378 . S
C1728 C1723 1.350 . S
C1729 H1716 0.929 . S
C1729 C1721 1.433 . S
C1729 N1731 1.384 . S
N1730 C1726 1.427 . S
N1730 C1727 1.384 . S
N1731 C1723 1.427 . S
N1731 C1729 1.384 . S
H1732 C1738 0.930 . S
H1733 C1742 0.930 . S
H1734 C1747 0.929 . S
H1735 C1745 0.929 . S
H1736 C1740 0.929 . S
H1737 C1746 0.929 . S
C1738 H1732 0.930 . S
C1738 C1739 1.367 . S
C1738 C1746 1.378 . S
C1739 C1738 1.367 . S
C1739 C1747 1.433 . S
C1740 H1736 0.929 . S
C1740 C1742 1.378 . S
C1740 C1744 1.350 . S
C1741 C1744 1.463 . S
C1741 C1746 1.350 . S
C1741 N1749 1.427 . S
C1742 H1733 0.930 . S
C1742 C1740 1.378 . S
C1742 C1743 1.367 . S
C1743 C1742 1.367 . S
C1743 C1745 1.433 . S
C1744 C1740 1.350 . S
C1744 C1741 1.463 . S
C1744 N1748 1.427 . S
C1745 H1735 0.929 . S
C1745 C1743 1.433 . S
C1745 N1748 1.384 . S
C1746 H1737 0.929 . S
C1746 C1738 1.378 . S
C1746 C1741 1.350 . S
C1747 H1734 0.929 . S
C1747 C1739 1.433 . S
C1747 N1749 1.384 . S
N1748 C1744 1.427 . S
N1748 C1745 1.384 . S
N1749 C1741 1.427 . S
N1749 C1747 1.384 . S
H1750 C1756 0.930 . S
H1751 C1760 0.930 . S
H1752 C1765 0.929 . S
H1753 C1763 0.929 . S
H1754 C1758 0.929 . S
H1755 C1764 0.929 . S
C1756 H1750 0.930 . S
C1756 C1757 1.367 . S
C1756 C1764 1.378 . S
C1757 C1756 1.367 . S
C1757 C1765 1.433 . S
C1758 H1754 0.929 . S
C1758 C1760 1.378 . S
C1758 C1762 1.350 . S
C1759 C1762 1.463 . S
C1759 C1764 1.350 . S
C1759 N1767 1.427 . S
C1760 H1751 0.930 . S
C1760 C1758 1.378 . S
C1760 C1761 1.367 . S
C1761 C1760 1.367 . S
C1761 C1763 1.433 . S
C1762 C1758 1.350 . S
C1762 C1759 1.463 . S
C1762 N1766 1.427 . S
C1763 H1753 0.929 . S
C1763 C1761 1.433 . S
C1763 N1766 1.384 . S
C1764 H1755 0.929 . S
C1764 C1756 1.378 . S
C1764 C1759 1.350 . S
C1765 H1752 0.929 . S
C1765 C1757 1.433 . S
C1765 N1767 1.384 . S
N1766 C1762 1.427 . S
N1766 C1763 1.384 . S
N1767 C1759 1.427 . S
N1767 C1765 1.384 . S
H1768 C1774 0.930 . S
H1769 C1778 0.930 . S
H1770 C1783 0.936 . S
H1771 C1781 0.929 . S
H1772 C1776 0.929 . S
H1773 C1782 0.929 . S
C1774 H1768 0.930 . S
C1774 C1775 1.367 . S
C1774 C1782 1.378 1_545 S
C1775 C1774 1.367 . S
C1775 C1783 1.446 . S
C1776 H1772 0.929 . S
C1776 C1778 1.378 . S
C1776 C1780 1.350 . S
C1777 C1780 1.463 . S
C1777 C1782 1.350 . S
C1777 N1785 1.427 . S
C1778 H1769 0.930 . S
C1778 C1776 1.378 . S
C1778 C1779 1.367 . S
C1779 C1778 1.367 . S
C1779 C1781 1.433 . S
C1780 C1776 1.350 . S
C1780 C1777 1.463 . S
C1780 N1784 1.427 . S
C1781 H1771 0.929 . S
C1781 C1779 1.433 . S
C1781 N1784 1.384 . S
C1782 H1773 0.929 . S
C1782 C1774 1.378 1_565 S
C1782 C1777 1.350 . S
C1783 H1770 0.936 . S
C1783 C1775 1.446 . S
C1783 N1785 1.364 1_545 S
N1784 C1780 1.427 . S
N1784 C1781 1.384 . S
N1785 C1777 1.427 . S
N1785 C1783 1.364 1_565 S
H1786 C1792 0.930 . S
H1787 C1796 0.930 . S
H1788 C1801 0.929 . S
H1789 C1799 0.929 . S
H1790 C1794 0.929 . S
H1791 C1800 0.929 . S
C1792 H1786 0.930 . S
C1792 C1793 1.367 . S
C1792 C1800 1.378 . S
C1793 C1792 1.367 . S
C1793 C1801 1.433 . S
C1794 H1790 0.929 . S
C1794 C1796 1.378 . S
C1794 C1798 1.350 . S
C1795 C1798 1.463 . S
C1795 C1800 1.350 . S
C1795 N1803 1.427 . S
C1796 H1787 0.930 . S
C1796 C1794 1.378 . S
C1796 C1797 1.367 . S
C1797 C1796 1.367 . S
C1797 C1799 1.433 . S
C1798 C1794 1.350 . S
C1798 C1795 1.463 . S
C1798 N1802 1.427 . S
C1799 H1789 0.929 . S
C1799 C1797 1.433 . S
C1799 N1802 1.384 . S
C1800 H1791 0.929 . S
C1800 C1792 1.378 . S
C1800 C1795 1.350 . S
C1801 H1788 0.929 . S
C1801 C1793 1.433 . S
C1801 N1803 1.384 . S
N1802 C1798 1.427 . S
N1802 C1799 1.384 . S
N1803 C1795 1.427 . S
N1803 C1801 1.384 . S
H1804 C1810 0.930 . S
H1805 C1814 0.930 . S
H1806 C1819 0.929 . S
H1807 C1817 0.929 . S
H1808 C1812 0.929 . S
H1809 C1818 0.929 . S
C1810 H1804 0.930 . S
C1810 C1811 1.367 . S
C1810 C1818 1.378 . S
C1811 C1810 1.367 . S
C1811 C1819 1.433 . S
C1812 H1808 0.929 . S
C1812 C1814 1.378 . S
C1812 C1816 1.350 . S
C1813 C1816 1.463 . S
C1813 C1818 1.350 . S
C1813 N1821 1.427 . S
C1814 H1805 0.930 . S
C1814 C1812 1.378 . S
C1814 C1815 1.367 . S
C1815 C1814 1.367 . S
C1815 C1817 1.433 . S
C1816 C1812 1.350 . S
C1816 C1813 1.463 . S
C1816 N1820 1.427 . S
C1817 H1807 0.929 . S
C1817 C1815 1.433 . S
C1817 N1820 1.384 . S
C1818 H1809 0.929 . S
C1818 C1810 1.378 . S
C1818 C1813 1.350 . S
C1819 H1806 0.929 . S
C1819 C1811 1.433 . S
C1819 N1821 1.384 . S
N1820 C1816 1.427 . S
N1820 C1817 1.384 . S
N1821 C1813 1.427 . S
N1821 C1819 1.384 . S
H1822 C1828 0.930 . S
H1823 C1832 0.930 . S
H1824 C1837 0.929 . S
H1825 C1835 0.929 . S
H1826 C1830 0.929 . S
H1827 C1836 0.929 . S
C1828 H1822 0.930 . S
C1828 C1829 1.367 . S
C1828 C1836 1.378 . S
C1829 C1828 1.367 . S
C1829 C1837 1.433 . S
C1830 H1826 0.929 . S
C1830 C1832 1.378 . S
C1830 C1834 1.350 . S
C1831 C1834 1.463 . S
C1831 C1836 1.350 . S
C1831 N1839 1.427 . S
C1832 H1823 0.930 . S
C1832 C1830 1.378 . S
C1832 C1833 1.367 . S
C1833 C1832 1.367 . S
C1833 C1835 1.433 . S
C1834 C1830 1.350 . S
C1834 C1831 1.463 . S
C1834 N1838 1.427 . S
C1835 H1825 0.929 . S
C1835 C1833 1.433 . S
C1835 N1838 1.384 . S
C1836 H1827 0.929 . S
C1836 C1828 1.378 . S
C1836 C1831 1.350 . S
C1837 H1824 0.929 . S
C1837 C1829 1.433 . S
C1837 N1839 1.384 . S
N1838 C1834 1.427 . S
N1838 C1835 1.384 . S
N1839 C1831 1.427 . S
N1839 C1837 1.384 . S
H1840 C1846 0.930 . S
H1841 C1850 0.930 . S
H1842 C1855 0.929 . S
H1843 C1853 0.929 . S
H1844 C1848 0.929 . S
H1845 C1854 0.929 . S
C1846 H1840 0.930 . S
C1846 C1847 1.367 . S
C1846 C1854 1.378 . S
C1847 C1846 1.367 . S
C1847 C1855 1.433 . S
C1848 H1844 0.929 . S
C1848 C1850 1.378 . S
C1848 C1852 1.350 . S
C1849 C1852 1.463 . S
C1849 C1854 1.350 . S
C1849 N1857 1.427 . S
C1850 H1841 0.930 . S
C1850 C1848 1.378 . S
C1850 C1851 1.367 . S
C1851 C1850 1.367 . S
C1851 C1853 1.433 . S
C1852 C1848 1.350 . S
C1852 C1849 1.463 . S
C1852 N1856 1.427 . S
C1853 H1843 0.929 . S
C1853 C1851 1.433 . S
C1853 N1856 1.384 . S
C1854 H1845 0.929 . S
C1854 C1846 1.378 . S
C1854 C1849 1.350 . S
C1855 H1842 0.929 . S
C1855 C1847 1.433 . S
C1855 N1857 1.384 . S
N1856 C1852 1.427 . S
N1856 C1853 1.384 . S
N1857 C1849 1.427 . S
N1857 C1855 1.384 . S
H1858 C1864 0.930 . S
H1859 C1868 0.930 . S
H1860 C1873 0.929 . S
H1861 C1871 0.929 . S
H1862 C1866 0.929 . S
H1863 C1872 0.929 . S
C1864 H1858 0.930 . S
C1864 C1865 1.367 . S
C1864 C1872 1.378 . S
C1865 C1864 1.367 . S
C1865 C1873 1.433 . S
C1866 H1862 0.929 . S
C1866 C1868 1.378 . S
C1866 C1870 1.350 . S
C1867 C1870 1.463 . S
C1867 C1872 1.350 . S
C1867 N1875 1.427 . S
C1868 H1859 0.930 . S
C1868 C1866 1.378 . S
C1868 C1869 1.367 . S
C1869 C1868 1.367 . S
C1869 C1871 1.433 . S
C1870 C1866 1.350 . S
C1870 C1867 1.463 . S
C1870 N1874 1.427 . S
C1871 H1861 0.929 . S
C1871 C1869 1.433 . S
C1871 N1874 1.384 . S
C1872 H1863 0.929 . S
C1872 C1864 1.378 . S
C1872 C1867 1.350 . S
C1873 H1860 0.929 . S
C1873 C1865 1.433 . S
C1873 N1875 1.384 . S
N1874 C1870 1.427 . S
N1874 C1871 1.384 . S
N1875 C1867 1.427 . S
N1875 C1873 1.384 . S
H1876 C1882 0.923 1_655 S
H1877 C1886 0.930 . S
H1878 C1891 0.929 . S
H1879 C1889 0.929 . S
H1880 C1884 0.929 . S
H1881 C1890 0.929 . S
C1882 H1876 0.923 1_455 S
C1882 C1883 1.367 . S
C1882 C1890 1.378 . S
C1883 C1882 1.367 . S
C1883 C1891 1.433 . S
C1884 H1880 0.929 . S
C1884 C1886 1.378 1_556 S
C1884 C1888 1.350 . S
C1885 C1888 1.463 . S
C1885 C1890 1.350 . S
C1885 N1893 1.427 . S
C1886 H1877 0.930 . S
C1886 C1884 1.378 1_554 S
C1886 C1887 1.367 1_554 S
C1887 C1886 1.367 1_556 S
C1887 C1889 1.433 . S
C1888 C1884 1.350 . S
C1888 C1885 1.463 . S
C1888 N1892 1.427 . S
C1889 H1879 0.929 . S
C1889 C1887 1.433 . S
C1889 N1892 1.384 . S
C1890 H1881 0.929 . S
C1890 C1882 1.378 . S
C1890 C1885 1.350 . S
C1891 H1878 0.929 . S
C1891 C1883 1.433 . S
C1891 N1893 1.384 . S
N1892 C1888 1.427 . S
N1892 C1889 1.384 . S
N1893 C1885 1.427 . S
N1893 C1891 1.384 . S
H1894 C1900 0.930 . S
H1895 C1904 0.930 . S
H1896 C1909 0.929 . S
H1897 C1907 0.929 . S
H1898 C1902 0.929 . S
H1899 C1908 0.929 . S
C1900 H1894 0.930 . S
C1900 C1901 1.367 . S
C1900 C1908 1.378 1_455 S
C1901 C1900 1.367 . S
C1901 C1909 1.433 . S
C1902 H1898 0.929 . S
C1902 C1904 1.378 . S
C1902 C1906 1.350 . S
C1903 C1906 1.463 . S
C1903 C1908 1.350 . S
C1903 N1911 1.427 1_655 S
C1904 H1895 0.930 . S
C1904 C1902 1.378 . S
C1904 C1905 1.367 . S
C1905 C1904 1.367 . S
C1905 C1907 1.433 . S
C1906 C1902 1.350 . S
C1906 C1903 1.463 . S
C1906 N1910 1.427 . S
C1907 H1897 0.929 . S
C1907 C1905 1.433 . S
C1907 N1910 1.384 . S
C1908 H1899 0.929 . S
C1908 C1900 1.378 1_655 S
C1908 C1903 1.350 . S
C1909 H1896 0.929 . S
C1909 C1901 1.433 . S
C1909 N1911 1.384 . S
N1910 C1906 1.427 . S
N1910 C1907 1.384 . S
N1911 C1903 1.427 1_455 S
N1911 C1909 1.384 . S
H1912 C1918 0.930 . S
H1913 C1922 0.930 . S
H1914 C1927 0.929 . S
H1915 C1925 0.929 . S
H1916 C1920 0.929 . S
H1917 C1926 0.929 . S
C1918 H1912 0.930 . S
C1918 C1919 1.367 . S
C1918 C1926 1.378 . S
C1919 C1918 1.367 . S
C1919 C1927 1.433 . S
C1920 H1916 0.929 . S
C1920 C1922 1.378 . S
C1920 C1924 1.350 . S
C1921 C1924 1.463 . S
C1921 C1926 1.350 . S
C1921 N1929 1.427 . S
C1922 H1913 0.930 . S
C1922 C1920 1.378 . S
C1922 C1923 1.367 . S
C1923 C1922 1.367 . S
C1923 C1925 1.433 . S
C1924 C1920 1.350 . S
C1924 C1921 1.463 . S
C1924 N1928 1.427 . S
C1925 H1915 0.929 . S
C1925 C1923 1.433 . S
C1925 N1928 1.384 . S
C1926 H1917 0.929 . S
C1926 C1918 1.378 . S
C1926 C1921 1.350 . S
C1927 H1914 0.929 . S
C1927 C1919 1.433 . S
C1927 N1929 1.384 . S
N1928 C1924 1.427 . S
N1928 C1925 1.384 . S
N1929 C1921 1.427 . S
N1929 C1927 1.384 . S
H1930 C1936 0.930 . S
H1931 C1940 0.930 . S
H1932 C1945 0.929 . S
H1933 C1943 0.929 . S
H1934 C1938 0.929 . S
H1935 C1944 0.929 . S
C1936 H1930 0.930 . S
C1936 C1937 1.367 . S
C1936 C1944 1.378 . S
C1937 C1936 1.367 . S
C1937 C1945 1.433 . S
C1938 H1934 0.929 . S
C1938 C1940 1.378 . S
C1938 C1942 1.350 . S
C1939 C1942 1.463 1_455 S
C1939 C1944 1.350 . S
C1939 N1947 1.427 . S
C1940 H1931 0.930 . S
C1940 C1938 1.378 . S
C1940 C1941 1.367 . S
C1941 C1940 1.367 . S
C1941 C1943 1.433 . S
C1942 C1938 1.350 . S
C1942 C1939 1.463 1_655 S
C1942 N1946 1.427 . S
C1943 H1933 0.929 . S
C1943 C1941 1.433 . S
C1943 N1946 1.384 . S
C1944 H1935 0.929 . S
C1944 C1936 1.378 . S
C1944 C1939 1.350 . S
C1945 H1932 0.929 . S
C1945 C1937 1.433 . S
C1945 N1947 1.384 . S
N1946 C1942 1.427 . S
N1946 C1943 1.384 . S
N1947 C1939 1.427 . S
N1947 C1945 1.384 . S
H1948 C1954 0.930 . S
H1949 C1958 0.930 . S
H1950 C1963 0.929 . S
H1951 C1961 0.929 . S
H1952 C1956 0.929 1_655 S
H1953 C1962 0.929 . S
C1954 H1948 0.930 . S
C1954 C1955 1.367 1_455 S
C1954 C1962 1.378 . S
C1955 C1954 1.367 1_655 S
C1955 C1963 1.433 . S
C1956 H1952 0.929 1_455 S
C1956 C1958 1.378 . S
C1956 C1960 1.350 . S
C1957 C1960 1.463 . S
C1957 C1962 1.350 . S
C1957 N1965 1.427 1_455 S
C1958 H1949 0.930 . S
C1958 C1956 1.378 . S
C1958 C1959 1.367 . S
C1959 C1958 1.367 . S
C1959 C1961 1.433 . S
C1960 C1956 1.350 . S
C1960 C1957 1.463 . S
C1960 N1964 1.427 . S
C1961 H1951 0.929 . S
C1961 C1959 1.433 . S
C1961 N1964 1.384 . S
C1962 H1953 0.929 . S
C1962 C1954 1.378 . S
C1962 C1957 1.350 . S
C1963 H1950 0.929 . S
C1963 C1955 1.433 . S
C1963 N1965 1.384 . S
N1964 C1960 1.427 . S
N1964 C1961 1.384 . S
N1965 C1957 1.427 1_655 S
N1965 C1963 1.384 . S
H1966 C1972 0.930 . S
H1967 C1976 0.930 . S
H1968 C1981 0.929 . S
H1969 C1979 0.929 . S
H1970 C1974 0.929 . S
H1971 C1980 0.929 . S
C1972 H1966 0.930 . S
C1972 C1973 1.367 . S
C1972 C1980 1.378 . S
C1973 C1972 1.367 . S
C1973 C1981 1.433 . S
C1974 H1970 0.929 . S
C1974 C1976 1.378 . S
C1974 C1978 1.350 . S
C1975 C1978 1.463 . S
C1975 C1980 1.350 . S
C1975 N1983 1.427 . S
C1976 H1967 0.930 . S
C1976 C1974 1.378 . S
C1976 C1977 1.367 . S
C1977 C1976 1.367 . S
C1977 C1979 1.433 . S
C1978 C1974 1.350 . S
C1978 C1975 1.463 . S
C1978 N1982 1.427 . S
C1979 H1969 0.929 . S
C1979 C1977 1.433 . S
C1979 N1982 1.384 . S
C1980 H1971 0.929 . S
C1980 C1972 1.378 . S
C1980 C1975 1.350 . S
C1981 H1968 0.929 . S
C1981 C1973 1.433 . S
C1981 N1983 1.384 . S
N1982 C1978 1.427 . S
N1982 C1979 1.384 . S
N1983 C1975 1.427 . S
N1983 C1981 1.384 . S
H1984 C1990 0.930 . S
H1985 C1994 0.930 . S
H1986 C1999 0.929 . S
H1987 C1997 0.929 . S
H1988 C1992 0.929 . S
H1989 C1998 0.929 . S
C1990 H1984 0.930 . S
C1990 C1991 1.367 . S
C1990 C1998 1.378 . S
C1991 C1990 1.367 . S
C1991 C1999 1.433 . S
C1992 H1988 0.929 . S
C1992 C1994 1.378 . S
C1992 C1996 1.350 . S
C1993 C1996 1.463 . S
C1993 C1998 1.350 . S
C1993 N2001 1.427 . S
C1994 H1985 0.930 . S
C1994 C1992 1.378 . S
C1994 C1995 1.367 . S
C1995 C1994 1.367 . S
C1995 C1997 1.433 . S
C1996 C1992 1.350 . S
C1996 C1993 1.463 . S
C1996 N2000 1.427 . S
C1997 H1987 0.929 . S
C1997 C1995 1.433 . S
C1997 N2000 1.384 . S
C1998 H1989 0.929 . S
C1998 C1990 1.378 . S
C1998 C1993 1.350 . S
C1999 H1986 0.929 . S
C1999 C1991 1.433 . S
C1999 N2001 1.384 . S
N2000 C1996 1.427 . S
N2000 C1997 1.384 . S
N2001 C1993 1.427 . S
N2001 C1999 1.384 . S
H2002 C2008 0.930 . S
H2003 C2012 0.930 . S
H2004 C2017 0.929 . S
H2005 C2015 0.929 . S
H2006 C2010 0.929 . S
H2007 C2016 0.929 . S
C2008 H2002 0.930 . S
C2008 C2009 1.367 . S
C2008 C2016 1.378 . S
C2009 C2008 1.367 . S
C2009 C2017 1.433 . S
C2010 H2006 0.929 . S
C2010 C2012 1.378 . S
C2010 C2014 1.350 . S
C2011 C2014 1.463 . S
C2011 C2016 1.350 . S
C2011 N2019 1.427 . S
C2012 H2003 0.930 . S
C2012 C2010 1.378 . S
C2012 C2013 1.367 . S
C2013 C2012 1.367 . S
C2013 C2015 1.433 . S
C2014 C2010 1.350 . S
C2014 C2011 1.463 . S
C2014 N2018 1.427 . S
C2015 H2005 0.929 . S
C2015 C2013 1.433 . S
C2015 N2018 1.384 . S
C2016 H2007 0.929 . S
C2016 C2008 1.378 . S
C2016 C2011 1.350 . S
C2017 H2004 0.929 . S
C2017 C2009 1.433 . S
C2017 N2019 1.384 . S
N2018 C2014 1.427 . S
N2018 C2015 1.384 . S
N2019 C2011 1.427 . S
N2019 C2017 1.384 . S
H2020 C2026 0.930 . S
H2021 C2030 0.930 . S
H2022 C2035 0.929 . S
H2023 C2033 0.929 . S
H2024 C2028 0.929 . S
H2025 C2034 0.929 . S
C2026 H2020 0.930 . S
C2026 C2027 1.367 . S
C2026 C2034 1.378 . S
C2027 C2026 1.367 . S
C2027 C2035 1.433 . S
C2028 H2024 0.929 . S
C2028 C2030 1.378 . S
C2028 C2032 1.350 . S
C2029 C2032 1.463 . S
C2029 C2034 1.350 . S
C2029 N2037 1.427 . S
C2030 H2021 0.930 . S
C2030 C2028 1.378 . S
C2030 C2031 1.367 . S
C2031 C2030 1.367 . S
C2031 C2033 1.433 . S
C2032 C2028 1.350 . S
C2032 C2029 1.463 . S
C2032 N2036 1.427 . S
C2033 H2023 0.929 . S
C2033 C2031 1.433 . S
C2033 N2036 1.384 . S
C2034 H2025 0.929 . S
C2034 C2026 1.378 . S
C2034 C2029 1.350 . S
C2035 H2022 0.929 . S
C2035 C2027 1.433 . S
C2035 N2037 1.384 . S
N2036 C2032 1.427 . S
N2036 C2033 1.384 . S
N2037 C2029 1.427 . S
N2037 C2035 1.384 . S
H2038 C2044 0.930 . S
H2039 C2048 0.930 . S
H2040 C2053 0.929 . S
H2041 C2051 0.929 . S
H2042 C2046 0.929 . S
H2043 C2052 0.929 . S
C2044 H2038 0.930 . S
C2044 C2045 1.367 . S
C2044 C2052 1.378 . S
C2045 C2044 1.367 . S
C2045 C2053 1.433 . S
C2046 H2042 0.929 . S
C2046 C2048 1.378 . S
C2046 C2050 1.350 . S
C2047 C2050 1.463 . S
C2047 C2052 1.350 . S
C2047 N2055 1.427 . S
C2048 H2039 0.930 . S
C2048 C2046 1.378 . S
C2048 C2049 1.367 . S
C2049 C2048 1.367 . S
C2049 C2051 1.433 . S
C2050 C2046 1.350 . S
C2050 C2047 1.463 . S
C2050 N2054 1.427 . S
C2051 H2041 0.929 . S
C2051 C2049 1.433 . S
C2051 N2054 1.384 . S
C2052 H2043 0.929 . S
C2052 C2044 1.378 . S
C2052 C2047 1.350 . S
C2053 H2040 0.929 . S
C2053 C2045 1.433 . S
C2053 N2055 1.384 . S
N2054 C2050 1.427 . S
N2054 C2051 1.384 . S
N2055 C2047 1.427 . S
N2055 C2053 1.384 . S
H2056 C2062 0.930 . S
H2057 C2066 0.930 . S
H2058 C2071 0.929 . S
H2059 C2069 0.929 . S
H2060 C2064 0.929 . S
H2061 C2070 0.929 . S
C2062 H2056 0.930 . S
C2062 C2063 1.367 . S
C2062 C2070 1.378 . S
C2063 C2062 1.367 . S
C2063 C2071 1.433 . S
C2064 H2060 0.929 . S
C2064 C2066 1.378 . S
C2064 C2068 1.350 . S
C2065 C2068 1.463 . S
C2065 C2070 1.350 . S
C2065 N2073 1.427 . S
C2066 H2057 0.930 . S
C2066 C2064 1.378 . S
C2066 C2067 1.367 . S
C2067 C2066 1.367 . S
C2067 C2069 1.433 . S
C2068 C2064 1.350 . S
C2068 C2065 1.463 . S
C2068 N2072 1.427 . S
C2069 H2059 0.929 . S
C2069 C2067 1.433 . S
C2069 N2072 1.384 . S
C2070 H2061 0.929 . S
C2070 C2062 1.378 . S
C2070 C2065 1.350 . S
C2071 H2058 0.929 . S
C2071 C2063 1.433 . S
C2071 N2073 1.384 . S
N2072 C2068 1.427 . S
N2072 C2069 1.384 . S
N2073 C2065 1.427 . S
N2073 C2071 1.384 . S
H2074 C2080 0.930 . S
H2075 C2084 0.930 . S
H2076 C2089 0.929 . S
H2077 C2087 0.929 . S
H2078 C2082 0.929 . S
H2079 C2088 0.929 . S
C2080 H2074 0.930 . S
C2080 C2081 1.367 . S
C2080 C2088 1.378 . S
C2081 C2080 1.367 . S
C2081 C2089 1.433 . S
C2082 H2078 0.929 . S
C2082 C2084 1.378 . S
C2082 C2086 1.350 . S
C2083 C2086 1.463 . S
C2083 C2088 1.350 . S
C2083 N2091 1.427 . S
C2084 H2075 0.930 . S
C2084 C2082 1.378 . S
C2084 C2085 1.367 . S
C2085 C2084 1.367 . S
C2085 C2087 1.433 . S
C2086 C2082 1.350 . S
C2086 C2083 1.463 . S
C2086 N2090 1.427 . S
C2087 H2077 0.929 . S
C2087 C2085 1.433 . S
C2087 N2090 1.384 . S
C2088 H2079 0.929 . S
C2088 C2080 1.378 . S
C2088 C2083 1.350 . S
C2089 H2076 0.929 . S
C2089 C2081 1.433 . S
C2089 N2091 1.384 . S
N2090 C2086 1.427 . S
N2090 C2087 1.384 . S
N2091 C2083 1.427 . S
N2091 C2089 1.384 . S
H2092 C2098 0.930 . S
H2093 C2102 0.930 . S
H2094 C2107 0.929 . S
H2095 C2105 0.929 . S
H2096 C2100 0.929 . S
H2097 C2106 0.929 . S
C2098 H2092 0.930 . S
C2098 C2099 1.367 . S
C2098 C2106 1.378 . S
C2099 C2098 1.367 . S
C2099 C2107 1.433 . S
C2100 H2096 0.929 . S
C2100 C2102 1.378 . S
C2100 C2104 1.350 . S
C2101 C2104 1.463 . S
C2101 C2106 1.350 . S
C2101 N2109 1.427 . S
C2102 H2093 0.930 . S
C2102 C2100 1.378 . S
C2102 C2103 1.367 . S
C2103 C2102 1.367 . S
C2103 C2105 1.433 . S
C2104 C2100 1.350 . S
C2104 C2101 1.463 . S
C2104 N2108 1.427 . S
C2105 H2095 0.929 . S
C2105 C2103 1.433 . S
C2105 N2108 1.384 . S
C2106 H2097 0.929 . S
C2106 C2098 1.378 . S
C2106 C2101 1.350 . S
C2107 H2094 0.929 . S
C2107 C2099 1.433 . S
C2107 N2109 1.384 . S
N2108 C2104 1.427 . S
N2108 C2105 1.384 . S
N2109 C2101 1.427 . S
N2109 C2107 1.384 . S
H2110 C2116 0.930 . S
H2111 C2120 0.930 . S
H2112 C2125 0.929 . S
H2113 C2123 0.929 . S
H2114 C2118 0.929 . S
H2115 C2124 0.929 . S
C2116 H2110 0.930 . S
C2116 C2117 1.367 . S
C2116 C2124 1.378 . S
C2117 C2116 1.367 . S
C2117 C2125 1.433 . S
C2118 H2114 0.929 . S
C2118 C2120 1.378 . S
C2118 C2122 1.350 . S
C2119 C2122 1.463 . S
C2119 C2124 1.350 . S
C2119 N2127 1.427 . S
C2120 H2111 0.930 . S
C2120 C2118 1.378 . S
C2120 C2121 1.367 . S
C2121 C2120 1.367 . S
C2121 C2123 1.433 . S
C2122 C2118 1.350 . S
C2122 C2119 1.463 . S
C2122 N2126 1.427 . S
C2123 H2113 0.929 . S
C2123 C2121 1.433 . S
C2123 N2126 1.384 . S
C2124 H2115 0.929 . S
C2124 C2116 1.378 . S
C2124 C2119 1.350 . S
C2125 H2112 0.929 . S
C2125 C2117 1.433 . S
C2125 N2127 1.384 . S
N2126 C2122 1.427 . S
N2126 C2123 1.384 . S
N2127 C2119 1.427 . S
N2127 C2125 1.384 . S
H2128 C2134 0.930 . S
H2129 C2138 0.930 . S
H2130 C2143 0.929 . S
H2131 C2141 0.929 . S
H2132 C2136 0.929 . S
H2133 C2142 0.929 . S
C2134 H2128 0.930 . S
C2134 C2135 1.367 . S
C2134 C2142 1.378 . S
C2135 C2134 1.367 . S
C2135 C2143 1.433 . S
C2136 H2132 0.929 . S
C2136 C2138 1.378 . S
C2136 C2140 1.350 . S
C2137 C2140 1.463 . S
C2137 C2142 1.350 . S
C2137 N2145 1.427 . S
C2138 H2129 0.930 . S
C2138 C2136 1.378 . S
C2138 C2139 1.367 . S
C2139 C2138 1.367 . S
C2139 C2141 1.433 . S
C2140 C2136 1.350 . S
C2140 C2137 1.463 . S
C2140 N2144 1.427 . S
C2141 H2131 0.929 . S
C2141 C2139 1.433 . S
C2141 N2144 1.384 . S
C2142 H2133 0.929 . S
C2142 C2134 1.378 . S
C2142 C2137 1.350 . S
C2143 H2130 0.929 . S
C2143 C2135 1.433 . S
C2143 N2145 1.384 . S
N2144 C2140 1.427 . S
N2144 C2141 1.384 . S
N2145 C2137 1.427 . S
N2145 C2143 1.384 . S
H2146 C2152 0.930 . S
H2147 C2156 0.930 . S
H2148 C2161 0.929 . S
H2149 C2159 0.929 . S
H2150 C2154 0.929 . S
H2151 C2160 0.929 . S
C2152 H2146 0.930 . S
C2152 C2153 1.367 . S
C2152 C2160 1.378 . S
C2153 C2152 1.367 . S
C2153 C2161 1.433 . S
C2154 H2150 0.929 . S
C2154 C2156 1.378 . S
C2154 C2158 1.350 . S
C2155 C2158 1.463 . S
C2155 C2160 1.350 . S
C2155 N2163 1.427 . S
C2156 H2147 0.930 . S
C2156 C2154 1.378 . S
C2156 C2157 1.367 . S
C2157 C2156 1.367 . S
C2157 C2159 1.433 . S
C2158 C2154 1.350 . S
C2158 C2155 1.463 . S
C2158 N2162 1.427 . S
C2159 H2149 0.929 . S
C2159 C2157 1.433 . S
C2159 N2162 1.384 . S
C2160 H2151 0.929 . S
C2160 C2152 1.378 . S
C2160 C2155 1.350 . S
C2161 H2148 0.929 . S
C2161 C2153 1.433 . S
C2161 N2163 1.384 . S
N2162 C2158 1.427 . S
N2162 C2159 1.384 . S
N2163 C2155 1.427 . S
N2163 C2161 1.384 . S
H2164 C2170 0.930 . S
H2165 C2174 0.930 . S
H2166 C2179 0.929 . S
H2167 C2177 0.929 . S
H2168 C2172 0.929 . S
H2169 C2178 0.929 . S
C2170 H2164 0.930 . S
C2170 C2171 1.367 . S
C2170 C2178 1.378 . S
C2171 C2170 1.367 . S
C2171 C2179 1.433 . S
C2172 H2168 0.929 . S
C2172 C2174 1.378 . S
C2172 C2176 1.350 . S
C2173 C2176 1.463 . S
C2173 C2178 1.350 . S
C2173 N2181 1.427 . S
C2174 H2165 0.930 . S
C2174 C2172 1.378 . S
C2174 C2175 1.367 . S
C2175 C2174 1.367 . S
C2175 C2177 1.433 . S
C2176 C2172 1.350 . S
C2176 C2173 1.463 . S
C2176 N2180 1.427 . S
C2177 H2167 0.929 . S
C2177 C2175 1.433 . S
C2177 N2180 1.384 . S
C2178 H2169 0.929 . S
C2178 C2170 1.378 . S
C2178 C2173 1.350 . S
C2179 H2166 0.929 . S
C2179 C2171 1.433 . S
C2179 N2181 1.384 . S
N2180 C2176 1.427 . S
N2180 C2177 1.384 . S
N2181 C2173 1.427 . S
N2181 C2179 1.384 . S
H2182 C2188 0.930 . S
H2183 C2192 0.930 1_556 S
H2184 C2197 0.929 1_556 S
H2185 C2195 0.929 . S
H2186 C2190 0.929 1_556 S
H2187 C2196 0.929 . S
C2188 H2182 0.930 . S
C2188 C2189 1.367 1_545 S
C2188 C2196 1.378 . S
C2189 C2188 1.367 1_565 S
C2189 C2197 1.433 . S
C2190 H2186 0.929 1_554 S
C2190 C2192 1.378 . S
C2190 C2194 1.350 . S
C2191 C2194 1.463 . S
C2191 C2196 1.350 1_565 S
C2191 N2199 1.427 . S
C2192 H2183 0.930 1_554 S
C2192 C2190 1.378 . S
C2192 C2193 1.367 1_565 S
C2193 C2192 1.367 1_545 S
C2193 C2195 1.433 . S
C2194 C2190 1.350 . S
C2194 C2191 1.463 . S
C2194 N2198 1.427 1_565 S
C2195 H2185 0.929 . S
C2195 C2193 1.433 . S
C2195 N2198 1.384 . S
C2196 H2187 0.929 . S
C2196 C2188 1.378 . S
C2196 C2191 1.350 1_545 S
C2197 H2184 0.929 1_554 S
C2197 C2189 1.433 . S
C2197 N2199 1.384 . S
N2198 C2194 1.427 1_545 S
N2198 C2195 1.384 . S
N2199 C2191 1.427 . S
N2199 C2197 1.384 . S
H2200 C2206 0.930 . S
H2201 C2210 0.930 . S
H2202 C2215 0.929 . S
H2203 C2213 0.929 . S
H2204 C2208 0.929 . S
H2205 C2214 0.929 . S
C2206 H2200 0.930 . S
C2206 C2207 1.367 . S
C2206 C2214 1.378 . S
C2207 C2206 1.367 . S
C2207 C2215 1.433 . S
C2208 H2204 0.929 . S
C2208 C2210 1.378 . S
C2208 C2212 1.350 . S
C2209 C2212 1.463 . S
C2209 C2214 1.350 . S
C2209 N2217 1.427 . S
C2210 H2201 0.930 . S
C2210 C2208 1.378 . S
C2210 C2211 1.367 . S
C2211 C2210 1.367 . S
C2211 C2213 1.433 . S
C2212 C2208 1.350 . S
C2212 C2209 1.463 . S
C2212 N2216 1.427 . S
C2213 H2203 0.929 . S
C2213 C2211 1.433 . S
C2213 N2216 1.384 . S
C2214 H2205 0.929 . S
C2214 C2206 1.378 . S
C2214 C2209 1.350 . S
C2215 H2202 0.929 . S
C2215 C2207 1.433 . S
C2215 N2217 1.384 . S
N2216 C2212 1.427 . S
N2216 C2213 1.384 . S
N2217 C2209 1.427 . S
N2217 C2215 1.384 . S
H2218 C2224 0.930 . S
H2219 C2228 0.930 . S
H2220 C2233 0.929 . S
H2221 C2231 0.929 . S
H2222 C2226 0.929 . S
H2223 C2232 0.929 1_556 S
C2224 H2218 0.930 . S
C2224 C2225 1.367 1_556 S
C2224 C2232 1.378 1_556 S
C2225 C2224 1.367 1_554 S
C2225 C2233 1.433 . S
C2226 H2222 0.929 . S
C2226 C2228 1.378 . S
C2226 C2230 1.350 . S
C2227 C2230 1.463 . S
C2227 C2232 1.350 . S
C2227 N2235 1.427 . S
C2228 H2219 0.930 . S
C2228 C2226 1.378 . S
C2228 C2229 1.367 . S
C2229 C2228 1.367 . S
C2229 C2231 1.433 . S
C2230 C2226 1.350 . S
C2230 C2227 1.463 . S
C2230 N2234 1.427 . S
C2231 H2221 0.929 . S
C2231 C2229 1.433 . S
C2231 N2234 1.384 . S
C2232 H2223 0.929 1_554 S
C2232 C2224 1.378 1_554 S
C2232 C2227 1.350 . S
C2233 H2220 0.929 . S
C2233 C2225 1.433 . S
C2233 N2235 1.384 . S
N2234 C2230 1.427 . S
N2234 C2231 1.384 . S
N2235 C2227 1.427 . S
N2235 C2233 1.384 . S
H2236 C2242 0.930 . S
H2237 C2246 0.930 . S
H2238 C2251 0.929 . S
H2239 C2249 0.929 . S
H2240 C2244 0.929 . S
H2241 C2250 0.929 . S
C2242 H2236 0.930 . S
C2242 C2243 1.367 . S
C2242 C2250 1.378 . S
C2243 C2242 1.367 . S
C2243 C2251 1.433 . S
C2244 H2240 0.929 . S
C2244 C2246 1.378 . S
C2244 C2248 1.350 . S
C2245 C2248 1.463 . S
C2245 C2250 1.350 . S
C2245 N2253 1.427 . S
C2246 H2237 0.930 . S
C2246 C2244 1.378 . S
C2246 C2247 1.367 . S
C2247 C2246 1.367 . S
C2247 C2249 1.433 . S
C2248 C2244 1.350 . S
C2248 C2245 1.463 . S
C2248 N2252 1.427 . S
C2249 H2239 0.929 . S
C2249 C2247 1.433 . S
C2249 N2252 1.384 . S
C2250 H2241 0.929 . S
C2250 C2242 1.378 . S
C2250 C2245 1.350 . S
C2251 H2238 0.929 . S
C2251 C2243 1.433 . S
C2251 N2253 1.384 . S
N2252 C2248 1.427 . S
N2252 C2249 1.384 . S
N2253 C2245 1.427 . S
N2253 C2251 1.384 . S
H2254 C2260 0.930 . S
H2255 C2264 0.930 . S
H2256 C2269 0.929 . S
H2257 C2267 0.929 . S
H2258 C2262 0.929 . S
H2259 C2268 0.929 . S
C2260 H2254 0.930 . S
C2260 C2261 1.367 . S
C2260 C2268 1.378 . S
C2261 C2260 1.367 . S
C2261 C2269 1.433 . S
C2262 H2258 0.929 . S
C2262 C2264 1.378 . S
C2262 C2266 1.350 . S
C2263 C2266 1.463 . S
C2263 C2268 1.350 . S
C2263 N2271 1.427 . S
C2264 H2255 0.930 . S
C2264 C2262 1.378 . S
C2264 C2265 1.367 . S
C2265 C2264 1.367 . S
C2265 C2267 1.433 . S
C2266 C2262 1.350 . S
C2266 C2263 1.463 . S
C2266 N2270 1.427 . S
C2267 H2257 0.929 . S
C2267 C2265 1.433 . S
C2267 N2270 1.384 . S
C2268 H2259 0.929 . S
C2268 C2260 1.378 . S
C2268 C2263 1.350 . S
C2269 H2256 0.929 . S
C2269 C2261 1.433 . S
C2269 N2271 1.384 . S
N2270 C2266 1.427 . S
N2270 C2267 1.384 . S
N2271 C2263 1.427 . S
N2271 C2269 1.384 . S
H2272 C2278 0.930 . S
H2273 C2282 0.930 . S
H2274 C2287 0.929 . S
H2275 C2285 0.929 . S
H2276 C2280 0.929 . S
H2277 C2286 0.929 . S
C2278 H2272 0.930 . S
C2278 C2279 1.367 . S
C2278 C2286 1.378 . S
C2279 C2278 1.367 . S
C2279 C2287 1.433 . S
C2280 H2276 0.929 . S
C2280 C2282 1.378 . S
C2280 C2284 1.350 . S
C2281 C2284 1.463 . S
C2281 C2286 1.350 . S
C2281 N2289 1.427 . S
C2282 H2273 0.930 . S
C2282 C2280 1.378 . S
C2282 C2283 1.367 . S
C2283 C2282 1.367 . S
C2283 C2285 1.433 . S
C2284 C2280 1.350 . S
C2284 C2281 1.463 . S
C2284 N2288 1.427 . S
C2285 H2275 0.929 . S
C2285 C2283 1.433 . S
C2285 N2288 1.384 . S
C2286 H2277 0.929 . S
C2286 C2278 1.378 . S
C2286 C2281 1.350 . S
C2287 H2274 0.929 . S
C2287 C2279 1.433 . S
C2287 N2289 1.384 . S
N2288 C2284 1.427 . S
N2288 C2285 1.384 . S
N2289 C2281 1.427 . S
N2289 C2287 1.384 . S
H2290 C2296 0.930 . S
H2291 C2300 0.930 . S
H2292 C2305 0.929 . S
H2293 C2303 0.929 . S
H2294 C2298 0.929 . S
H2295 C2304 0.929 . S
C2296 H2290 0.930 . S
C2296 C2297 1.367 . S
C2296 C2304 1.378 . S
C2297 C2296 1.367 . S
C2297 C2305 1.433 . S
C2298 H2294 0.929 . S
C2298 C2300 1.378 . S
C2298 C2302 1.350 . S
C2299 C2302 1.463 . S
C2299 C2304 1.350 . S
C2299 N2307 1.427 . S
C2300 H2291 0.930 . S
C2300 C2298 1.378 . S
C2300 C2301 1.367 . S
C2301 C2300 1.367 . S
C2301 C2303 1.433 . S
C2302 C2298 1.350 . S
C2302 C2299 1.463 . S
C2302 N2306 1.427 . S
C2303 H2293 0.929 . S
C2303 C2301 1.433 . S
C2303 N2306 1.384 . S
C2304 H2295 0.929 . S
C2304 C2296 1.378 . S
C2304 C2299 1.350 . S
C2305 H2292 0.929 . S
C2305 C2297 1.433 . S
C2305 N2307 1.384 . S
N2306 C2302 1.427 . S
N2306 C2303 1.384 . S
N2307 C2299 1.427 . S
N2307 C2305 1.384 . S
H2308 C2314 0.930 . S
H2309 C2318 0.930 . S
H2310 C2323 0.929 . S
H2311 C2321 0.929 . S
H2312 C2316 0.929 . S
H2313 C2322 0.929 . S
C2314 H2308 0.930 . S
C2314 C2315 1.367 . S
C2314 C2322 1.378 . S
C2315 C2314 1.367 . S
C2315 C2323 1.433 . S
C2316 H2312 0.929 . S
C2316 C2318 1.378 . S
C2316 C2320 1.350 . S
C2317 C2320 1.463 . S
C2317 C2322 1.350 . S
C2317 N2325 1.427 . S
C2318 H2309 0.930 . S
C2318 C2316 1.378 . S
C2318 C2319 1.367 . S
C2319 C2318 1.367 . S
C2319 C2321 1.433 . S
C2320 C2316 1.350 . S
C2320 C2317 1.463 . S
C2320 N2324 1.427 . S
C2321 H2311 0.929 . S
C2321 C2319 1.433 . S
C2321 N2324 1.384 . S
C2322 H2313 0.929 . S
C2322 C2314 1.378 . S
C2322 C2317 1.350 . S
C2323 H2310 0.929 . S
C2323 C2315 1.433 . S
C2323 N2325 1.384 . S
N2324 C2320 1.427 . S
N2324 C2321 1.384 . S
N2325 C2317 1.427 . S
N2325 C2323 1.384 . S
H2326 C2332 0.930 . S
H2327 C2336 0.930 . S
H2328 C2341 0.929 . S
H2329 C2339 0.929 . S
H2330 C2334 0.929 . S
H2331 C2340 0.929 . S
C2332 H2326 0.930 . S
C2332 C2333 1.367 . S
C2332 C2340 1.378 . S
C2333 C2332 1.367 . S
C2333 C2341 1.433 . S
C2334 H2330 0.929 . S
C2334 C2336 1.378 . S
C2334 C2338 1.350 . S
C2335 C2338 1.463 . S
C2335 C2340 1.350 . S
C2335 N2343 1.427 . S
C2336 H2327 0.930 . S
C2336 C2334 1.378 . S
C2336 C2337 1.367 . S
C2337 C2336 1.367 . S
C2337 C2339 1.433 . S
C2338 C2334 1.350 . S
C2338 C2335 1.463 . S
C2338 N2342 1.427 . S
C2339 H2329 0.929 . S
C2339 C2337 1.433 . S
C2339 N2342 1.384 . S
C2340 H2331 0.929 . S
C2340 C2332 1.378 . S
C2340 C2335 1.350 . S
C2341 H2328 0.929 . S
C2341 C2333 1.433 . S
C2341 N2343 1.384 . S
N2342 C2338 1.427 . S
N2342 C2339 1.384 . S
N2343 C2335 1.427 . S
N2343 C2341 1.384 . S
H2344 C2350 0.930 . S
H2345 C2354 0.930 . S
H2346 C2359 0.929 . S
H2347 C2357 0.929 . S
H2348 C2352 0.929 . S
H2349 C2358 0.929 . S
C2350 H2344 0.930 . S
C2350 C2351 1.367 . S
C2350 C2358 1.378 . S
C2351 C2350 1.367 . S
C2351 C2359 1.433 . S
C2352 H2348 0.929 . S
C2352 C2354 1.378 . S
C2352 C2356 1.350 . S
C2353 C2356 1.463 . S
C2353 C2358 1.350 . S
C2353 N2361 1.427 . S
C2354 H2345 0.930 . S
C2354 C2352 1.378 . S
C2354 C2355 1.367 . S
C2355 C2354 1.367 . S
C2355 C2357 1.433 . S
C2356 C2352 1.350 . S
C2356 C2353 1.463 . S
C2356 N2360 1.427 . S
C2357 H2347 0.929 . S
C2357 C2355 1.433 . S
C2357 N2360 1.384 . S
C2358 H2349 0.929 . S
C2358 C2350 1.378 . S
C2358 C2353 1.350 . S
C2359 H2346 0.929 . S
C2359 C2351 1.433 . S
C2359 N2361 1.384 . S
N2360 C2356 1.427 . S
N2360 C2357 1.384 . S
N2361 C2353 1.427 . S
N2361 C2359 1.384 . S
H2362 C2368 0.930 . S
H2363 C2372 0.930 . S
H2364 C2377 0.929 . S
H2365 C2375 0.929 . S
H2366 C2370 0.929 . S
H2367 C2376 0.929 . S
C2368 H2362 0.930 . S
C2368 C2369 1.367 . S
C2368 C2376 1.378 . S
C2369 C2368 1.367 . S
C2369 C2377 1.433 . S
C2370 H2366 0.929 . S
C2370 C2372 1.378 . S
C2370 C2374 1.350 . S
C2371 C2374 1.463 . S
C2371 C2376 1.350 . S
C2371 N2379 1.427 . S
C2372 H2363 0.930 . S
C2372 C2370 1.378 . S
C2372 C2373 1.367 . S
C2373 C2372 1.367 . S
C2373 C2375 1.433 . S
C2374 C2370 1.350 . S
C2374 C2371 1.463 . S
C2374 N2378 1.427 . S
C2375 H2365 0.929 . S
C2375 C2373 1.433 . S
C2375 N2378 1.384 . S
C2376 H2367 0.929 . S
C2376 C2368 1.378 . S
C2376 C2371 1.350 . S
C2377 H2364 0.929 . S
C2377 C2369 1.433 . S
C2377 N2379 1.384 . S
N2378 C2374 1.427 . S
N2378 C2375 1.384 . S
N2379 C2371 1.427 . S
N2379 C2377 1.384 . S
H2380 C2386 0.930 . S
H2381 C2390 0.930 . S
H2382 C2395 0.929 . S
H2383 C2393 0.929 . S
H2384 C2388 0.929 . S
H2385 C2394 0.929 . S
C2386 H2380 0.930 . S
C2386 C2387 1.367 . S
C2386 C2394 1.378 . S
C2387 C2386 1.367 . S
C2387 C2395 1.433 . S
C2388 H2384 0.929 . S
C2388 C2390 1.378 . S
C2388 C2392 1.350 . S
C2389 C2392 1.463 . S
C2389 C2394 1.350 . S
C2389 N2397 1.427 . S
C2390 H2381 0.930 . S
C2390 C2388 1.378 . S
C2390 C2391 1.367 . S
C2391 C2390 1.367 . S
C2391 C2393 1.433 . S
C2392 C2388 1.350 . S
C2392 C2389 1.463 . S
C2392 N2396 1.427 . S
C2393 H2383 0.929 . S
C2393 C2391 1.433 . S
C2393 N2396 1.384 . S
C2394 H2385 0.929 . S
C2394 C2386 1.378 . S
C2394 C2389 1.350 . S
C2395 H2382 0.929 . S
C2395 C2387 1.433 . S
C2395 N2397 1.384 . S
N2396 C2392 1.427 . S
N2396 C2393 1.384 . S
N2397 C2389 1.427 . S
N2397 C2395 1.384 . S
H2398 C2404 0.930 . S
H2399 C2408 0.930 . S
H2400 C2413 0.929 . S
H2401 C2411 0.929 . S
H2402 C2406 0.929 . S
H2403 C2412 0.929 . S
C2404 H2398 0.930 . S
C2404 C2405 1.367 . S
C2404 C2412 1.378 . S
C2405 C2404 1.367 . S
C2405 C2413 1.433 . S
C2406 H2402 0.929 . S
C2406 C2408 1.378 . S
C2406 C2410 1.350 . S
C2407 C2410 1.463 . S
C2407 C2412 1.350 . S
C2407 N2415 1.427 . S
C2408 H2399 0.930 . S
C2408 C2406 1.378 . S
C2408 C2409 1.367 . S
C2409 C2408 1.367 . S
C2409 C2411 1.433 . S
C2410 C2406 1.350 . S
C2410 C2407 1.463 . S
C2410 N2414 1.427 . S
C2411 H2401 0.929 . S
C2411 C2409 1.433 . S
C2411 N2414 1.384 . S
C2412 H2403 0.929 . S
C2412 C2404 1.378 . S
C2412 C2407 1.350 . S
C2413 H2400 0.929 . S
C2413 C2405 1.433 . S
C2413 N2415 1.384 . S
N2414 C2410 1.427 . S
N2414 C2411 1.384 . S
N2415 C2407 1.427 . S
N2415 C2413 1.384 . S
H2416 C2422 0.930 . S
H2417 C2426 0.930 . S
H2418 C2431 0.929 . S
H2419 C2429 0.929 . S
H2420 C2424 0.929 . S
H2421 C2430 0.929 . S
C2422 H2416 0.930 . S
C2422 C2423 1.367 . S
C2422 C2430 1.378 . S
C2423 C2422 1.367 . S
C2423 C2431 1.433 . S
C2424 H2420 0.929 . S
C2424 C2426 1.378 . S
C2424 C2428 1.350 . S
C2425 C2428 1.463 . S
C2425 C2430 1.350 . S
C2425 N2433 1.427 . S
C2426 H2417 0.930 . S
C2426 C2424 1.378 . S
C2426 C2427 1.367 . S
C2427 C2426 1.367 . S
C2427 C2429 1.433 . S
C2428 C2424 1.350 . S
C2428 C2425 1.463 . S
C2428 N2432 1.427 . S
C2429 H2419 0.929 . S
C2429 C2427 1.433 . S
C2429 N2432 1.384 . S
C2430 H2421 0.929 . S
C2430 C2422 1.378 . S
C2430 C2425 1.350 . S
C2431 H2418 0.929 . S
C2431 C2423 1.433 . S
C2431 N2433 1.384 . S
N2432 C2428 1.427 . S
N2432 C2429 1.384 . S
N2433 C2425 1.427 . S
N2433 C2431 1.384 . S
H2434 C2440 0.930 . S
H2435 C2444 0.930 . S
H2436 C2449 0.929 . S
H2437 C2447 0.929 . S
H2438 C2442 0.929 . S
H2439 C2448 0.929 . S
C2440 H2434 0.930 . S
C2440 C2441 1.367 . S
C2440 C2448 1.378 . S
C2441 C2440 1.367 . S
C2441 C2449 1.433 . S
C2442 H2438 0.929 . S
C2442 C2444 1.378 . S
C2442 C2446 1.350 . S
C2443 C2446 1.463 . S
C2443 C2448 1.350 . S
C2443 N2451 1.427 . S
C2444 H2435 0.930 . S
C2444 C2442 1.378 . S
C2444 C2445 1.367 . S
C2445 C2444 1.367 . S
C2445 C2447 1.433 . S
C2446 C2442 1.350 . S
C2446 C2443 1.463 . S
C2446 N2450 1.427 . S
C2447 H2437 0.929 . S
C2447 C2445 1.433 . S
C2447 N2450 1.384 . S
C2448 H2439 0.929 . S
C2448 C2440 1.378 . S
C2448 C2443 1.350 . S
C2449 H2436 0.929 . S
C2449 C2441 1.433 . S
C2449 N2451 1.384 . S
N2450 C2446 1.427 . S
N2450 C2447 1.384 . S
N2451 C2443 1.427 . S
N2451 C2449 1.384 . S
H2452 C2458 0.930 . S
H2453 C2462 0.930 . S
H2454 C2467 0.929 . S
H2455 C2465 0.929 . S
H2456 C2460 0.929 1_655 S
H2457 C2466 0.929 . S
C2458 H2452 0.930 . S
C2458 C2459 1.367 . S
C2458 C2466 1.378 . S
C2459 C2458 1.367 . S
C2459 C2467 1.433 . S
C2460 H2456 0.929 1_455 S
C2460 C2462 1.378 . S
C2460 C2464 1.350 1_455 S
C2461 C2464 1.463 . S
C2461 C2466 1.350 . S
C2461 N2469 1.427 . S
C2462 H2453 0.930 . S
C2462 C2460 1.378 . S
C2462 C2463 1.367 . S
C2463 C2462 1.367 . S
C2463 C2465 1.433 . S
C2464 C2460 1.350 1_655 S
C2464 C2461 1.463 . S
C2464 N2468 1.427 1_655 S
C2465 H2455 0.929 . S
C2465 C2463 1.433 . S
C2465 N2468 1.384 . S
C2466 H2457 0.929 . S
C2466 C2458 1.378 . S
C2466 C2461 1.350 . S
C2467 H2454 0.929 . S
C2467 C2459 1.433 . S
C2467 N2469 1.384 . S
N2468 C2464 1.427 1_455 S
N2468 C2465 1.384 . S
N2469 C2461 1.427 . S
N2469 C2467 1.384 . S
H2470 C2476 0.930 . S
H2471 C2480 0.930 . S
H2472 C2485 0.929 . S
H2473 C2483 0.929 . S
H2474 C2478 0.929 . S
H2475 C2484 0.929 . S
C2476 H2470 0.930 . S
C2476 C2477 1.367 . S
C2476 C2484 1.378 . S
C2477 C2476 1.367 . S
C2477 C2485 1.433 . S
C2478 H2474 0.929 . S
C2478 C2480 1.378 . S
C2478 C2482 1.350 . S
C2479 C2482 1.463 . S
C2479 C2484 1.350 . S
C2479 N2487 1.427 . S
C2480 H2471 0.930 . S
C2480 C2478 1.378 . S
C2480 C2481 1.367 . S
C2481 C2480 1.367 . S
C2481 C2483 1.433 . S
C2482 C2478 1.350 . S
C2482 C2479 1.463 . S
C2482 N2486 1.427 . S
C2483 H2473 0.929 . S
C2483 C2481 1.433 . S
C2483 N2486 1.384 . S
C2484 H2475 0.929 . S
C2484 C2476 1.378 . S
C2484 C2479 1.350 . S
C2485 H2472 0.929 . S
C2485 C2477 1.433 . S
C2485 N2487 1.384 . S
N2486 C2482 1.427 . S
N2486 C2483 1.384 . S
N2487 C2479 1.427 . S
N2487 C2485 1.384 . S
H2488 C2494 0.930 . S
H2489 C2498 0.930 . S
H2490 C2503 0.929 . S
H2491 C2501 0.929 . S
H2492 C2496 0.929 . S
H2493 C2502 0.929 . S
C2494 H2488 0.930 . S
C2494 C2495 1.367 . S
C2494 C2502 1.378 . S
C2495 C2494 1.367 . S
C2495 C2503 1.433 . S
C2496 H2492 0.929 . S
C2496 C2498 1.378 . S
C2496 C2500 1.350 . S
C2497 C2500 1.463 . S
C2497 C2502 1.350 . S
C2497 N2505 1.427 . S
C2498 H2489 0.930 . S
C2498 C2496 1.378 . S
C2498 C2499 1.367 . S
C2499 C2498 1.367 . S
C2499 C2501 1.433 . S
C2500 C2496 1.350 . S
C2500 C2497 1.463 . S
C2500 N2504 1.427 . S
C2501 H2491 0.929 . S
C2501 C2499 1.433 . S
C2501 N2504 1.384 . S
C2502 H2493 0.929 . S
C2502 C2494 1.378 . S
C2502 C2497 1.350 . S
C2503 H2490 0.929 . S
C2503 C2495 1.433 . S
C2503 N2505 1.384 . S
N2504 C2500 1.427 . S
N2504 C2501 1.384 . S
N2505 C2497 1.427 . S
N2505 C2503 1.384 . S
H2506 C2512 0.930 . S
H2507 C2516 0.930 . S
H2508 C2521 0.929 . S
H2509 C2519 0.929 . S
H2510 C2514 0.929 . S
H2511 C2520 0.929 . S
C2512 H2506 0.930 . S
C2512 C2513 1.367 . S
C2512 C2520 1.378 . S
C2513 C2512 1.367 . S
C2513 C2521 1.433 . S
C2514 H2510 0.929 . S
C2514 C2516 1.378 . S
C2514 C2518 1.350 . S
C2515 C2518 1.463 . S
C2515 C2520 1.350 . S
C2515 N2523 1.427 . S
C2516 H2507 0.930 . S
C2516 C2514 1.378 . S
C2516 C2517 1.367 . S
C2517 C2516 1.367 . S
C2517 C2519 1.433 . S
C2518 C2514 1.350 . S
C2518 C2515 1.463 . S
C2518 N2522 1.427 . S
C2519 H2509 0.929 . S
C2519 C2517 1.433 . S
C2519 N2522 1.384 . S
C2520 H2511 0.929 . S
C2520 C2512 1.378 . S
C2520 C2515 1.350 . S
C2521 H2508 0.929 . S
C2521 C2513 1.433 . S
C2521 N2523 1.384 . S
N2522 C2518 1.427 . S
N2522 C2519 1.384 . S
N2523 C2515 1.427 . S
N2523 C2521 1.384 . S
H2524 C2530 0.930 . S
H2525 C2534 0.930 . S
H2526 C2539 0.929 . S
H2527 C2537 0.929 . S
H2528 C2532 0.929 . S
H2529 C2538 0.929 . S
C2530 H2524 0.930 . S
C2530 C2531 1.367 . S
C2530 C2538 1.378 . S
C2531 C2530 1.367 . S
C2531 C2539 1.433 . S
C2532 H2528 0.929 . S
C2532 C2534 1.378 . S
C2532 C2536 1.350 . S
C2533 C2536 1.463 . S
C2533 C2538 1.350 . S
C2533 N2541 1.427 . S
C2534 H2525 0.930 . S
C2534 C2532 1.378 . S
C2534 C2535 1.367 . S
C2535 C2534 1.367 . S
C2535 C2537 1.433 . S
C2536 C2532 1.350 . S
C2536 C2533 1.463 . S
C2536 N2540 1.427 . S
C2537 H2527 0.929 . S
C2537 C2535 1.433 . S
C2537 N2540 1.384 . S
C2538 H2529 0.929 . S
C2538 C2530 1.378 . S
C2538 C2533 1.350 . S
C2539 H2526 0.929 . S
C2539 C2531 1.433 . S
C2539 N2541 1.384 . S
N2540 C2536 1.427 . S
N2540 C2537 1.384 . S
N2541 C2533 1.427 . S
N2541 C2539 1.384 . S
H2542 C2548 0.930 . S
H2543 C2552 0.930 . S
H2544 C2557 0.929 . S
H2545 C2555 0.929 . S
H2546 C2550 0.929 . S
H2547 C2556 0.929 . S
C2548 H2542 0.930 . S
C2548 C2549 1.367 . S
C2548 C2556 1.378 . S
C2549 C2548 1.367 . S
C2549 C2557 1.433 . S
C2550 H2546 0.929 . S
C2550 C2552 1.378 . S
C2550 C2554 1.350 . S
C2551 C2554 1.463 . S
C2551 C2556 1.350 . S
C2551 N2559 1.427 . S
C2552 H2543 0.930 . S
C2552 C2550 1.378 . S
C2552 C2553 1.367 . S
C2553 C2552 1.367 . S
C2553 C2555 1.433 . S
C2554 C2550 1.350 . S
C2554 C2551 1.463 . S
C2554 N2558 1.427 . S
C2555 H2545 0.929 . S
C2555 C2553 1.433 . S
C2555 N2558 1.384 . S
C2556 H2547 0.929 . S
C2556 C2548 1.378 . S
C2556 C2551 1.350 . S
C2557 H2544 0.929 . S
C2557 C2549 1.433 . S
C2557 N2559 1.384 . S
N2558 C2554 1.427 . S
N2558 C2555 1.384 . S
N2559 C2551 1.427 . S
N2559 C2557 1.384 . S
H2560 C2566 0.930 . S
H2561 C2570 0.930 . S
H2562 C2575 0.929 . S
H2563 C2573 0.929 . S
H2564 C2568 0.929 . S
H2565 C2574 0.929 . S
C2566 H2560 0.930 . S
C2566 C2567 1.367 . S
C2566 C2574 1.378 . S
C2567 C2566 1.367 . S
C2567 C2575 1.433 . S
C2568 H2564 0.929 . S
C2568 C2570 1.378 . S
C2568 C2572 1.350 . S
C2569 C2572 1.463 . S
C2569 C2574 1.350 . S
C2569 N2577 1.427 . S
C2570 H2561 0.930 . S
C2570 C2568 1.378 . S
C2570 C2571 1.367 . S
C2571 C2570 1.367 . S
C2571 C2573 1.433 . S
C2572 C2568 1.350 . S
C2572 C2569 1.463 . S
C2572 N2576 1.427 . S
C2573 H2563 0.929 . S
C2573 C2571 1.433 . S
C2573 N2576 1.384 . S
C2574 H2565 0.929 . S
C2574 C2566 1.378 . S
C2574 C2569 1.350 . S
C2575 H2562 0.929 . S
C2575 C2567 1.433 . S
C2575 N2577 1.384 . S
N2576 C2572 1.427 . S
N2576 C2573 1.384 . S
N2577 C2569 1.427 . S
N2577 C2575 1.384 . S
H2578 C2584 0.930 . S
H2579 C2588 0.930 . S
H2580 C2593 0.929 . S
H2581 C2591 0.929 1_545 S
H2582 C2586 0.929 . S
H2583 C2592 0.929 . S
C2584 H2578 0.930 . S
C2584 C2585 1.367 . S
C2584 C2592 1.378 . S
C2585 C2584 1.367 . S
C2585 C2593 1.433 . S
C2586 H2582 0.929 . S
C2586 C2588 1.378 . S
C2586 C2590 1.350 . S
C2587 C2590 1.463 . S
C2587 C2592 1.350 . S
C2587 N2595 1.427 . S
C2588 H2579 0.930 . S
C2588 C2586 1.378 . S
C2588 C2589 1.367 . S
C2589 C2588 1.367 . S
C2589 C2591 1.433 . S
C2590 C2586 1.350 . S
C2590 C2587 1.463 . S
C2590 N2594 1.427 . S
C2591 H2581 0.929 1_565 S
C2591 C2589 1.433 . S
C2591 N2594 1.384 . S
C2592 H2583 0.929 . S
C2592 C2584 1.378 . S
C2592 C2587 1.350 . S
C2593 H2580 0.929 . S
C2593 C2585 1.433 . S
C2593 N2595 1.384 . S
N2594 C2590 1.427 . S
N2594 C2591 1.384 . S
N2595 C2587 1.427 . S
N2595 C2593 1.384 . S
H2596 C2602 0.930 . S
H2597 C2606 0.930 . S
H2598 C2611 0.929 . S
H2599 C2609 0.929 . S
H2600 C2604 0.929 . S
H2601 C2610 0.929 . S
C2602 H2596 0.930 . S
C2602 C2603 1.367 . S
C2602 C2610 1.378 . S
C2603 C2602 1.367 . S
C2603 C2611 1.433 . S
C2604 H2600 0.929 . S
C2604 C2606 1.378 . S
C2604 C2608 1.350 . S
C2605 C2608 1.463 . S
C2605 C2610 1.350 . S
C2605 N2613 1.427 . S
C2606 H2597 0.930 . S
C2606 C2604 1.378 . S
C2606 C2607 1.367 . S
C2607 C2606 1.367 . S
C2607 C2609 1.433 . S
C2608 C2604 1.350 . S
C2608 C2605 1.463 . S
C2608 N2612 1.427 . S
C2609 H2599 0.929 . S
C2609 C2607 1.433 . S
C2609 N2612 1.384 . S
C2610 H2601 0.929 . S
C2610 C2602 1.378 . S
C2610 C2605 1.350 . S
C2611 H2598 0.929 . S
C2611 C2603 1.433 . S
C2611 N2613 1.384 . S
N2612 C2608 1.427 . S
N2612 C2609 1.384 . S
N2613 C2605 1.427 . S
N2613 C2611 1.384 . S
H2614 C2620 0.930 . S
H2615 C2624 0.930 . S
H2616 C2629 0.929 . S
H2617 C2627 0.929 . S
H2618 C2622 0.929 . S
H2619 C2628 0.929 . S
C2620 H2614 0.930 . S
C2620 C2621 1.367 . S
C2620 C2628 1.378 . S
C2621 C2620 1.367 . S
C2621 C2629 1.433 1_554 S
C2622 H2618 0.929 . S
C2622 C2624 1.378 . S
C2622 C2626 1.350 1_556 S
C2623 C2626 1.463 . S
C2623 C2628 1.350 . S
C2623 N2631 1.427 1_554 S
C2624 H2615 0.930 . S
C2624 C2622 1.378 . S
C2624 C2625 1.367 1_556 S
C2625 C2624 1.367 1_554 S
C2625 C2627 1.433 . S
C2626 C2622 1.350 1_554 S
C2626 C2623 1.463 . S
C2626 N2630 1.427 . S
C2627 H2617 0.929 . S
C2627 C2625 1.433 . S
C2627 N2630 1.384 . S
C2628 H2619 0.929 . S
C2628 C2620 1.378 . S
C2628 C2623 1.350 . S
C2629 H2616 0.929 . S
C2629 C2621 1.433 1_556 S
C2629 N2631 1.384 . S
N2630 C2626 1.427 . S
N2630 C2627 1.384 . S
N2631 C2623 1.427 1_556 S
N2631 C2629 1.384 . S
H2632 C2638 0.930 . S
H2633 C2642 0.930 . S
H2634 C2647 0.929 . S
H2635 C2645 0.929 . S
H2636 C2640 0.929 . S
H2637 C2646 0.929 . S
C2638 H2632 0.930 . S
C2638 C2639 1.367 . S
C2638 C2646 1.378 . S
C2639 C2638 1.367 . S
C2639 C2647 1.433 . S
C2640 H2636 0.929 . S
C2640 C2642 1.378 . S
C2640 C2644 1.350 . S
C2641 C2644 1.463 . S
C2641 C2646 1.350 . S
C2641 N2649 1.427 . S
C2642 H2633 0.930 . S
C2642 C2640 1.378 . S
C2642 C2643 1.367 . S
C2643 C2642 1.367 . S
C2643 C2645 1.433 . S
C2644 C2640 1.350 . S
C2644 C2641 1.463 . S
C2644 N2648 1.427 . S
C2645 H2635 0.929 . S
C2645 C2643 1.433 . S
C2645 N2648 1.384 . S
C2646 H2637 0.929 . S
C2646 C2638 1.378 . S
C2646 C2641 1.350 . S
C2647 H2634 0.929 . S
C2647 C2639 1.433 . S
C2647 N2649 1.384 . S
N2648 C2644 1.427 . S
N2648 C2645 1.384 . S
N2649 C2641 1.427 . S
N2649 C2647 1.384 . S
H2650 C2656 0.930 . S
H2651 C2660 0.930 . S
H2652 C2665 0.929 . S
H2653 C2663 0.929 . S
H2654 C2658 0.929 . S
H2655 C2664 0.929 . S
C2656 H2650 0.930 . S
C2656 C2657 1.367 . S
C2656 C2664 1.378 . S
C2657 C2656 1.367 . S
C2657 C2665 1.433 . S
C2658 H2654 0.929 . S
C2658 C2660 1.378 . S
C2658 C2662 1.350 . S
C2659 C2662 1.463 1_554 S
C2659 C2664 1.350 . S
C2659 N2667 1.427 . S
C2660 H2651 0.930 . S
C2660 C2658 1.378 . S
C2660 C2661 1.367 . S
C2661 C2660 1.367 . S
C2661 C2663 1.433 . S
C2662 C2658 1.350 . S
C2662 C2659 1.463 1_556 S
C2662 N2666 1.427 . S
C2663 H2653 0.929 . S
C2663 C2661 1.433 . S
C2663 N2666 1.384 . S
C2664 H2655 0.929 . S
C2664 C2656 1.378 . S
C2664 C2659 1.350 . S
C2665 H2652 0.929 . S
C2665 C2657 1.433 . S
C2665 N2667 1.384 . S
N2666 C2662 1.427 . S
N2666 C2663 1.384 . S
N2667 C2659 1.427 . S
N2667 C2665 1.384 . S
H2668 C2674 0.930 . S
H2669 C2678 0.930 . S
H2670 C2683 0.929 . S
H2671 C2681 0.929 . S
H2672 C2676 0.929 . S
H2673 C2682 0.929 . S
C2674 H2668 0.930 . S
C2674 C2675 1.367 . S
C2674 C2682 1.378 . S
C2675 C2674 1.367 . S
C2675 C2683 1.433 . S
C2676 H2672 0.929 . S
C2676 C2678 1.378 . S
C2676 C2680 1.350 . S
C2677 C2680 1.463 . S
C2677 C2682 1.350 . S
C2677 N2685 1.427 . S
C2678 H2669 0.930 . S
C2678 C2676 1.378 . S
C2678 C2679 1.367 . S
C2679 C2678 1.367 . S
C2679 C2681 1.433 . S
C2680 C2676 1.350 . S
C2680 C2677 1.463 . S
C2680 N2684 1.427 . S
C2681 H2671 0.929 . S
C2681 C2679 1.433 . S
C2681 N2684 1.384 . S
C2682 H2673 0.929 . S
C2682 C2674 1.378 . S
C2682 C2677 1.350 . S
C2683 H2670 0.929 . S
C2683 C2675 1.433 . S
C2683 N2685 1.384 . S
N2684 C2680 1.427 . S
N2684 C2681 1.384 . S
N2685 C2677 1.427 . S
N2685 C2683 1.384 . S
H2686 C2692 0.930 . S
H2687 C2696 0.930 . S
H2688 C2701 0.929 . S
H2689 C2699 0.929 . S
H2690 C2694 0.929 . S
H2691 C2700 0.929 . S
C2692 H2686 0.930 . S
C2692 C2693 1.367 . S
C2692 C2700 1.378 . S
C2693 C2692 1.367 . S
C2693 C2701 1.433 . S
C2694 H2690 0.929 . S
C2694 C2696 1.378 . S
C2694 C2698 1.350 . S
C2695 C2698 1.463 . S
C2695 C2700 1.350 . S
C2695 N2703 1.427 . S
C2696 H2687 0.930 . S
C2696 C2694 1.378 . S
C2696 C2697 1.367 . S
C2697 C2696 1.367 . S
C2697 C2699 1.433 . S
C2698 C2694 1.350 . S
C2698 C2695 1.463 . S
C2698 N2702 1.427 . S
C2699 H2689 0.929 . S
C2699 C2697 1.433 . S
C2699 N2702 1.384 . S
C2700 H2691 0.929 . S
C2700 C2692 1.378 . S
C2700 C2695 1.350 . S
C2701 H2688 0.929 . S
C2701 C2693 1.433 . S
C2701 N2703 1.384 . S
N2702 C2698 1.427 . S
N2702 C2699 1.384 . S
N2703 C2695 1.427 . S
N2703 C2701 1.384 . S
C983 C109 0.968 . S
C987 C344 0.969 . S
C1001 C61 1.100 . S
C1005 C378 1.302 . S
C1019 C74 0.578 . S
C1023 C447 0.556 . S
C1041 C485 0.937 . S
C1037 C96 0.945 . S
C1055 C25 1.329 1_455 S
C1059 C525 1.288 . S
C1077 C544 0.273 . S
C1073 C40 0.300 . S
C1095 C578 1.310 . S
C1091 C46 1.338 . S
C1109 C5 1.253 . S
C1113 C647 1.605 . S
C1131 C353 2.336 . S
C1127 C229 2.057 . S
C1145 C249 1.015 . S
C1149 C405 0.981 . S
C1167 C418 1.244 . S
C1163 C271 1.055 . S
C1185 C487 1.542 . S
C1181 C172 1.490 . S
C1199 C236 1.889 . S
C1203 C527 1.910 . S
C1221 C553 1.996 . S
C1217 C242 2.031 . S
C1239 C605 0.309 . S
C1235 C278 0.261 . S
C1257 C618 2.267 . S
C1253 C179 2.282 . S
C1275 C348 2.456 . S
C1271 C159 2.148 . S
C1289 C285 1.632 1_554 S
C1293 C658 1.878 . S
C1311 C708 2.601 . S
C1307 C333 2.591 . S
C1329 C767 1.608 . S
C1325 C320 1.578 . S
C1343 C123 1.440 . S
C1347 C645 1.387 . S
C1361 C138 1.439 . S
C1365 C445 1.415 . S
C1379 C326 2.573 . S
C1383 C778 2.549 . S
C1401 C847 0.845 . S
C1397 C298 0.826 . S
C1419 C365 0.984 . S
C1415 C67 0.962 . S
C1437 C833 1.270 . S
C1433 C110 1.281 . S
C1451 C88 0.596 . S
C1455 C428 0.594 . S
C1469 C75 0.787 . S
C1473 C784 0.874 . S
C1491 C504 1.314 . S
C1487 C11 1.290 . S
C1505 C47 0.645 . S
C1509 C725 0.227 . S
C1527 C593 1.142 . S
C1523 C32 1.062 . S
C1545 C868 1.682 . S
C1541 C26 1.697 . S
C1563 C338 2.462 . S
C1559 C152 2.489 . S
C1581 C824 1.048 . S
C1577 C319 1.024 . S
C1595 C124 1.232 . S
C1599 C433 1.219 . S
C1613 C284 1.510 . S
C1617 C788 1.546 . S
C1631 C145 1.744 1_545 S
C1635 C508 1.902 . S
C1653 C698 1.904 . S
C1649 C312 1.863 . S
C1667 C117 0.741 1_565 S
C1671 C584 0.280 . S
C1685 C291 2.183 . S
C1689 C873 2.197 . S
C1703 C194 2.471 . S
C1707 C367 2.446 1_655 S
C1721 C180 1.846 . S
C1725 C673 1.851 . S
C1739 C263 2.488 . S
C1743 C567 2.484 . S
C1757 C243 1.366 . S
C1761 C748 1.536 . S
C1779 C864 1.430 . S
C1775 C277 1.377 . S
C1793 C215 1.266 . S
C1797 C424 1.398 . S
C1815 C473 2.418 . S
C1811 C256 2.392 . S
C1833 C388 0.913 . S
C1829 C200 0.911 . S
C1847 C81 0.968 . S
C1851 C904 0.969 . S
C1869 C818 1.308 . S
C1865 C89 1.094 . S
C1883 C102 0.570 . S
C1887 C967 0.574 . S
C1901 C68 0.937 . S
C1905 C805 0.930 . S
C1919 C53 1.328 . S
C1923 C685 1.278 . S
C1941 C704 0.277 . S
C1937 C12 0.302 . S
C1959 C738 1.310 . S
C1955 C18 1.334 . S
C1977 C887 1.600 . S
C1973 C33 1.222 . S
C1995 C913 2.336 . S
C1991 C257 2.066 . S
C2009 C193 1.015 . S
C2013 C845 0.997 . S
C2031 C938 1.238 . S
C2027 C201 1.039 . S
C2049 C807 1.542 . S
C2045 C214 1.503 . S
C2067 C687 1.911 . S
C2063 C264 1.893 . S
C2081 C186 2.030 . S
C2085 C713 2.000 . S
C2103 C765 0.312 . S
C2099 C208 0.294 . S
C2117 C221 2.283 . S
C2121 C858 2.273 . S
C2139 C908 2.461 . S
C2135 C313 2.162 . S
C2153 C131 1.611 . S
C2157 C498 1.879 . S
C2175 C548 2.605 . S
C2171 C151 2.586 . S
C2193 C607 1.611 . S
C2189 C166 1.586 . S
C2211 C885 1.391 . S
C2207 C305 1.441 . S
C2225 C292 1.440 . S
C2229 C965 1.418 . S
C2247 C458 2.554 . S
C2243 C144 2.575 . S
C2265 C407 0.839 . S
C2261 C116 0.826 . S
C2279 C95 0.949 . S
C2283 C925 0.978 . S
C2301 C393 1.278 . S
C2297 C82 1.282 . S
C2315 C60 0.598 . S
C2319 C948 0.578 . S
C2333 C103 0.786 . S
C2337 C464 0.880 . S
C2351 C39 1.278 . S
C2355 C664 1.304 . S
C2373 C565 0.239 . S
C2369 C19 0.683 . S
C2387 C4 1.057 . S
C2391 C753 1.141 . S
C2405 C54 1.692 . S
C2409 C628 1.673 . S
C2427 C898 2.456 . S
C2423 C334 2.490 . S
C2441 C165 1.033 . S
C2445 C384 1.049 . S
C2463 C953 1.220 . S
C2459 C306 1.231 . S
C2477 C130 1.518 . S
C2481 C468 1.549 . S
C2495 C327 1.744 . S
C2499 C668 1.901 . S
C2517 C538 1.900 . S
C2513 C158 1.858 . S
C2531 C299 0.742 . S
C2535 C744 0.313 . S
C2553 C633 2.197 . S
C2549 C137 2.183 . S
C2571 C927 2.445 . S
C2567 C250 2.471 . S
C2589 C513 1.851 1_565 S
C2585 C222 1.848 . S
C2603 C235 2.490 . S
C2607 C727 2.487 . S
C2625 C588 1.535 . S
C2621 C187 1.386 . S
C2639 C207 1.376 . S
C2643 C624 1.430 . S
C2657 C173 1.271 . S
C2661 C944 1.394 . S
C2679 C793 2.418 . S
C2675 C228 2.392 1_565 S
C2697 C828 0.930 . S
C2693 C270 0.927 . S
