# Generated by pormake.
# Topology nia, (6,6)-cn, num edge types: 1
# Building blocks:
#     Node 0, Type 0, BuildingBlock: KUMBUR_clean_sbu_1, # of connection points: 6
#     Node 1, Type 0, BuildingBlock: KUMBUR_clean_sbu_1, # of connection points: 6
#     Node 2, Type 1, BuildingBlock: MIDCAF_clean_sbu_0, # of connection points: 6
#     Node 3, Type 1, BuildingBlock: MIDCAF_clean_sbu_0, # of connection points: 6
#     Edge 4, Type (0, 1), BuildingBlock: TEMPAE_clean_linker_10, # of connection points: 2
#     Edge 5, Type (0, 1), BuildingBlock: TEMPAE_clean_linker_10, # of connection points: 2
#     Edge 6, Type (0, 1), BuildingBlock: TEMPAE_clean_linker_10, # of connection points: 2
#     Edge 7, Type (0, 1), BuildingBlock: TEMPAE_clean_linker_10, # of connection points: 2
#     Edge 8, Type (0, 1), BuildingBlock: TEMPAE_clean_linker_10, # of connection points: 2
#     Edge 9, Type (0, 1), BuildingBlock: TEMPAE_clean_linker_10, # of connection points: 2
#     Edge 10, Type (0, 1), BuildingBlock: TEMPAE_clean_linker_10, # of connection points: 2
#     Edge 11, Type (0, 1), BuildingBlock: TEMPAE_clean_linker_10, # of connection points: 2
#     Edge 12, Type (0, 1), BuildingBlock: TEMPAE_clean_linker_10, # of connection points: 2
#     Edge 13, Type (0, 1), BuildingBlock: TEMPAE_clean_linker_10, # of connection points: 2
#     Edge 14, Type (0, 1), BuildingBlock: TEMPAE_clean_linker_10, # of connection points: 2
#     Edge 15, Type (0, 1), BuildingBlock: TEMPAE_clean_linker_10, # of connection points: 2
# Relax obj value: 0.171
# Max RMSD: 0.279
# Mean RMSD: 0.201
data_MOF--net-nia--node1-KUMBUR_clean_sbu_1--node2-MIDCAF_clean_sbu_0--edge1-TEMPAE_clean_linker_10
_symmetry_space_group_name_H-M    P1
_symmetry_Int_Tables_number       1
_symmetry_cell_setting            triclinic
loop_
_symmetry_equiv_pos_as_xyz
'x, y, z'
_cell_length_a     28.568923
_cell_length_b     28.632493
_cell_length_c     32.059693
_cell_angle_alpha  90.25558
_cell_angle_beta   90.004389
_cell_angle_gamma 135.68303
loop_
_atom_site_label
_atom_site_type_symbol
_atom_site_fract_x
_atom_site_fract_y
_atom_site_fract_z
_atom_type_partial_charge
Tb0 Tb 0.03548 0.97668 0.05085 0.0
C1 C 0.93307 0.9549 0.87824 0.0
N2 N 0.9843 0.01241 0.89916 0.0
C3 C 0.05205 0.05689 0.83751 0.0
C4 C 0.94047 0.9447 0.8367 0.0
C5 C 0.04152 0.06489 0.87842 0.0
C6 C 0.00177 0.99595 0.81682 0.0
C7 C 0.81571 0.84938 0.87653 0.0
C8 C 0.87162 0.90802 0.8977 0.0
C9 C 0.82339 0.83752 0.83578 0.0
C10 C 0.88574 0.88498 0.81594 0.0
Tb11 Tb 0.96277 0.01739 0.96708 0.0
N12 N 0.86654 0.92068 0.93739 0.0
C13 C 0.75374 0.80505 0.89684 0.0
C14 C 0.8055 0.87989 0.95642 0.0
C15 C 0.74846 0.82086 0.93674 0.0
H16 H 0.07867 0.11344 0.89307 0.0
H17 H 0.70049 0.78766 0.95232 0.0
H18 H 0.95106 0.9435 0.13542 0.0
H19 H 0.30364 0.15947 0.02373 0.0
H20 H 0.80127 0.89222 0.98714 0.0
H21 H 0.70954 0.75927 0.88171 0.0
H22 H 0.18597 0.05483 0.01092 0.0
H23 H 0.09839 0.09813 0.82172 0.0
H24 H 0.78112 0.79256 0.81903 0.0
H25 H 0.89057 0.87592 0.78414 0.0
H26 H 0.97306 -0.00283 0.20368 0.0
H27 H 0.00962 0.99013 0.78494 0.0
H28 H 0.33467 0.23006 0.08486 0.0
N29 N 0.05136 0.02249 0.11445 0.0
C30 C 0.11511 0.07997 0.12466 0.0
C31 C 0.01336 0.02133 0.18156 0.0
C32 C 0.13018 0.11244 0.16309 0.0
C33 C 0.00094 0.99124 0.14286 0.0
C34 C 0.07812 0.08269 0.19151 0.0
N35 N 0.14834 0.0695 0.06111 0.0
C36 C 0.1977 0.0867 0.03631 0.0
C37 C 0.23239 0.16406 0.10616 0.0
C38 C 0.16517 0.10513 0.09656 0.0
C39 C 0.2824 0.18506 0.07867 0.0
C40 C 0.26504 0.14546 0.04404 0.0
H41 H 0.08763 0.10594 0.22146 0.0
H42 H 0.20938 0.19848 0.20142 0.0
H43 H 0.29895 0.24419 0.15135 0.0
O44 O 0.08129 0.94894 0.07526 0.0
O45 O 0.02693 0.0452 0.06406 0.0
O46 O 0.05194 0.1008 1.0035 0.0
O47 O 0.97494 0.88367 0.07988 0.0
O48 O 0.08113 0.0092 0.98834 0.0
O49 O 0.07051 0.07754 0.96379 0.0
O50 O 0.91773 0.04731 0.98803 0.0
O51 O 0.92149 0.91768 0.97551 0.0
O52 O 0.00706 0.92835 0.98954 0.0
O53 O 0.95396 0.0673 0.92533 0.0
O54 O 0.91414 0.98181 0.02846 0.0
O55 O 0.92778 0.91602 0.05442 0.0
C56 C 0.05618 0.10024 0.04429 0.0
C57 C 0.01275 0.83281 0.07709 0.0
C58 C 0.03056 0.76417 0.09672 0.0
C59 C 0.98419 0.71744 0.06568 0.0
C60 C 0.9676 0.78637 0.04584 0.0
C61 C 0.95354 0.72895 0.04023 0.0
C62 C 0.04474 0.82212 0.10177 0.0
C63 C 0.09907 0.05631 0.96323 0.0
C64 C 0.02446 0.89064 0.08676 0.0
C65 C 0.19667 0.17254 0.17212 0.0
C66 C 0.24765 0.19853 0.14359 0.0
C67 C 0.95419 0.90252 0.96746 0.0
C68 C 0.95546 0.14304 0.95568 0.0
C69 C 0.9498 0.22021 0.9339 0.0
C70 C 0.00466 0.26977 0.95995 0.0
C71 C 0.01076 0.19305 0.98116 0.0
C72 C 0.92554 0.15694 0.93198 0.0
C73 C 0.03528 0.25624 0.98319 0.0
C74 C 0.89742 0.93535 0.05363 0.0
C75 C 0.9276 0.0759 0.95303 0.0
H76 H 0.97092 0.67163 0.06124 0.0
H77 H 0.94252 0.79391 0.02631 0.0
H78 H 0.91808 0.69274 0.01648 0.0
H79 H 0.08086 0.85943 0.12498 0.0
H80 H 0.02437 0.31904 0.96179 0.0
H81 H 0.03473 0.18321 0.99939 0.0
H82 H 0.88265 0.11806 0.91238 0.0
H83 H 0.07823 0.29485 1.00265 0.0
Tb84 Tb 0.02773 0.96775 0.4667 0.0
C85 C 0.10808 0.16377 0.60098 0.0
N86 N 0.04898 0.09867 0.60239 0.0
C87 C 0.07056 0.0928 0.67354 0.0
C88 C 0.15224 0.19602 0.63538 0.0
C89 C 0.02866 0.06327 0.6384 0.0
C90 C 0.13315 0.15928 0.67184 0.0
C91 C 0.17825 0.2685 0.56448 0.0
C92 C 0.12105 0.19886 0.56605 0.0
C93 C 0.22539 0.30055 0.59718 0.0
C94 C 0.21232 0.26427 0.63269 0.0
Tb95 Tb 0.98624 0.0513 0.54251 0.0
N96 N 0.07288 0.16598 0.53618 0.0
C97 C 0.18353 0.30421 0.53177 0.0
C98 C 0.07365 0.20203 0.5078 0.0
C99 C 0.12977 0.27108 0.50414 0.0
H100 H 0.98118 0.0115 0.63945 0.0
H101 H 0.13079 0.29884 0.48066 0.0
H102 H 0.18962 0.0844 0.44937 0.0
H103 H 0.82791 0.76823 0.36368 0.0
H104 H 0.03052 0.1778 0.48836 0.0
H105 H 0.22647 0.35783 0.52938 0.0
H106 H 0.88456 0.82017 0.4318 0.0
H107 H 0.05486 0.06409 0.70172 0.0
H108 H 0.27023 0.35386 0.5963 0.0
H109 H 0.24741 0.29004 0.65856 0.0
H110 H 0.26576 0.14241 0.3887 0.0
H111 H 0.16543 0.18212 0.69909 0.0
H112 H 0.88741 0.82958 0.29825 0.0
N113 N 0.10105 0.02177 0.41229 0.0
C114 C 0.0749 0.00114 0.37337 0.0
C115 C 0.21207 0.10307 0.38392 0.0
C116 C 0.11588 0.0327 0.33779 0.0
C117 C 0.16889 0.07017 0.41819 0.0
C118 C 0.18536 0.08517 0.34351 0.0
N119 N 0.97312 0.91182 0.40521 0.0
C120 C 0.91051 0.8477 0.40339 0.0
C121 C 0.97844 0.91588 0.33006 0.0
C122 C 0.00779 0.94386 0.36964 0.0
C123 C 0.91205 0.85287 0.32803 0.0
C124 C 0.87841 0.818 0.36489 0.0
H125 H 0.21878 0.11062 0.31702 0.0
H126 H 0.11661 0.03274 0.27011 0.0
H127 H -0.00431 0.93016 0.2633 0.0
O128 O 0.05751 0.94239 0.51422 0.0
O129 O 0.92722 0.92713 0.46039 0.0
O130 O 0.9266 0.00395 0.48494 0.0
O131 O 0.04206 0.90733 0.45138 0.0
O132 O 0.93799 0.90225 0.50625 0.0
O133 O 0.95818 0.96182 0.56504 0.0
O134 O 0.95169 0.09113 0.56484 0.0
O135 O 0.04656 0.03443 0.56026 0.0
O136 O 0.10696 0.05933 0.50286 0.0
O137 O 0.88831 0.98547 0.567 0.0
O138 O 0.01014 0.08061 0.47641 0.0
O139 O 0.08022 0.07102 0.45513 0.0
C140 C 0.90378 0.95353 0.4609 0.0
C141 C 0.13282 0.93919 0.48688 0.0
C142 C 0.20537 0.92982 0.45792 0.0
C143 C 0.26129 0.99357 0.47458 0.0
C144 C 0.18941 0.00182 0.50388 0.0
C145 C 0.25312 0.0287 0.49774 0.0
C146 C 0.14101 0.90293 0.46464 0.0
C147 C 0.93458 0.90698 0.54679 0.0
C148 C 0.06632 0.91446 0.48785 0.0
C149 C 0.08633 0.00847 0.29797 0.0
C150 C 0.01747 0.95007 0.2941 0.0
C151 C 0.10372 0.06511 0.54304 0.0
C152 C 0.87288 0.03397 0.61859 0.0
C153 C 0.84219 0.07785 0.66364 0.0
C154 C 0.83969 0.04524 0.69773 0.0
C155 C 0.86812 0.00023 0.65265 0.0
C156 C 0.85846 0.07122 0.62412 0.0
C157 C 0.85194 0.00626 0.69208 0.0
C158 C 0.0516 0.09134 0.44908 0.0
C159 C 0.89463 0.03383 0.57699 0.0
H160 H 0.31175 0.01719 0.46922 0.0
H161 H 0.18475 0.03098 0.52083 0.0
H162 H 0.29656 0.07771 0.51019 0.0
H163 H 0.097 0.85412 0.45222 0.0
H164 H 0.82866 0.05002 0.72882 0.0
H165 H 0.87697 0.96951 0.64894 0.0
H166 H 0.85962 0.09469 0.59714 0.0
H167 H 0.84925 0.98092 0.71843 0.0
Zn168 Zn 0.34042 0.65077 0.18138 0.0
Zn169 Zn 0.35646 0.64306 0.33853 0.0
Zn170 Zn 0.3498 0.6416 0.25913 0.0
C171 C 0.48682 0.72753 0.31135 0.0
C172 C 0.28269 0.5125 0.31342 0.0
O173 O 0.30511 0.68004 0.24631 0.0
O174 O 0.31613 0.69942 0.17849 0.0
C175 C 0.47256 0.71984 0.19368 0.0
O176 O 0.4567 0.70668 0.27571 0.0
O177 O 0.45431 0.70933 0.34467 0.0
O178 O 0.3086 0.55005 0.34514 0.0
O179 O 0.28974 0.53628 0.2772 0.0
O180 O 0.43169 0.69995 0.16479 0.0
O181 O 0.45237 0.70514 0.2319 0.0
O182 O 0.28487 0.53893 0.23326 0.0
O183 O 0.2701 0.55392 0.16884 0.0
C184 C 0.25807 0.51558 0.19674 0.0
O185 O 0.31101 0.6801 0.28951 0.0
O186 O 0.31071 0.66707 0.35745 0.0
C187 C 0.29841 0.70141 0.21383 0.0
C188 C 0.29813 0.68457 0.32714 0.0
Zn189 Zn 0.66188 0.35914 0.82905 0.0
Zn190 Zn 0.65135 0.36236 0.67216 0.0
Zn191 Zn 0.65148 0.3636 0.75337 0.0
C192 C 0.7315 0.49426 0.69579 0.0
C193 C 0.51943 0.28438 0.69809 0.0
O194 O 0.69759 0.32638 0.77027 0.0
O195 O 0.68298 0.30865 0.83823 0.0
C196 C 0.74709 0.49341 0.81216 0.0
O197 O 0.71147 0.4674 0.73225 0.0
O198 O 0.71511 0.45946 0.66376 0.0
O199 O 0.55556 0.307 0.66607 0.0
O200 O 0.54511 0.29879 0.73493 0.0
O201 O 0.73462 0.45552 0.84057 0.0
O202 O 0.7181 0.46838 0.77631 0.0
O203 O 0.54716 0.29961 0.77966 0.0
O204 O 0.57326 0.31541 0.8464 0.0
C205 C 0.52983 0.29069 0.81837 0.0
O206 O 0.6906 0.3243 0.72666 0.0
O207 O 0.67913 0.31874 0.65788 0.0
C208 C 0.70292 0.30609 0.80418 0.0
C209 C 0.69611 0.30903 0.69023 0.0
C210 C 0.08349 0.72322 0.10685 0.0
C211 C 0.06512 0.75365 0.12338 0.0
C212 C 0.11949 0.71657 0.13078 0.0
C213 C 0.13979 0.743 0.1719 0.0
C214 C 0.12072 0.77293 0.18907 0.0
C215 C 0.0823 0.77642 0.16497 0.0
C216 C 0.13761 0.68298 0.11144 0.0
C217 C 0.14014 0.80135 0.23274 0.0
C218 C 0.19836 0.67794 0.23016 0.0
C219 C 0.26441 0.72247 0.21589 0.0
C220 C 0.15784 0.68736 0.21963 0.0
C221 C 0.18485 0.74283 0.19489 0.0
C222 C 0.25411 0.79255 0.18576 0.0
C223 C 0.2929 0.78107 0.19563 0.0
C224 C 0.08487 0.63494 0.2315 0.0
C225 C 0.28582 0.8549 0.1622 0.0
H226 H 0.07146 0.70612 0.07473 0.0
H227 H 0.06648 0.79789 0.1788 0.0
H228 H 0.19256 0.7204 0.10662 0.0
H229 H 0.12363 0.64409 0.13265 0.0
H230 H 0.11237 0.65925 0.08089 0.0
H231 H 0.18612 0.81643 0.24403 0.0
H232 H 0.14807 0.84537 0.23468 0.0
H233 H 0.09827 0.76274 0.25393 0.0
H234 H 0.17674 0.63284 0.24613 0.0
H235 H 0.34447 0.81592 0.18524 0.0
H236 H 0.05368 0.60747 0.20309 0.0
H237 H 0.0707 0.65892 0.24545 0.0
H238 H 0.07318 0.59843 0.25406 0.0
H239 H 0.27061 0.84209 0.1289 0.0
H240 H 0.3414 0.89338 0.16395 0.0
H241 H 0.26837 0.8765 0.17478 0.0
C242 C 0.14909 0.06903 0.61079 0.0
C243 C 0.16085 0.09408 0.57038 0.0
C244 C 0.20218 0.09688 0.63805 0.0
C245 C 0.26878 0.15024 0.62423 0.0
C246 C 0.28098 0.17544 0.58327 0.0
C247 C 0.22674 0.14713 0.55684 0.0
C248 C 0.1869 0.06923 0.68158 0.0
C249 C 0.35138 0.23175 0.56717 0.0
C250 C 0.42042 0.26604 0.69592 0.0
C251 C 0.44773 0.24089 0.69078 0.0
C252 C 0.35928 0.23423 0.67676 0.0
C253 C 0.32598 0.17705 0.65133 0.0
C254 C 0.35137 0.14912 0.64852 0.0
C255 C 0.41213 0.18159 0.66823 0.0
C256 C 0.33286 0.26445 0.68131 0.0
C257 C 0.31729 0.08804 0.62196 0.0
H258 H 0.09808 0.0271 0.6211 0.0
H259 H 0.23578 0.1665 0.52562 0.0
H260 H 0.21392 0.05549 0.68818 0.0
H261 H 0.20454 0.10815 0.70461 0.0
H262 H 0.13244 0.02461 0.68644 0.0
H263 H 0.35229 0.2468 0.53505 0.0
H264 H 0.38002 0.27595 0.58807 0.0
H265 H 0.37755 0.21624 0.56706 0.0
H266 H 0.44888 0.31273 0.71271 0.0
H267 H 0.43426 0.16316 0.66365 0.0
H268 H 0.2788 0.22522 0.68902 0.0
H269 H 0.33824 0.28696 0.65126 0.0
H270 H 0.35997 0.30378 0.70592 0.0
H271 H 0.26309 0.04752 0.62928 0.0
H272 H 0.33965 0.06884 0.6264 0.0
H273 H 0.32175 0.10075 0.58858 0.0
C274 C 0.13673 0.22346 0.056 0.0
C275 C 0.08186 0.15806 0.06932 0.0
C276 C 0.16255 0.27819 0.08097 0.0
C277 C 0.13226 0.26697 0.11991 0.0
C278 C 0.07629 0.20073 0.13312 0.0
C279 C 0.05213 0.14726 0.10776 0.0
C280 C 0.22222 0.34807 0.06569 0.0
C281 C 0.04195 0.18561 0.17412 0.0
C282 C 0.23925 0.41587 0.19438 0.0
C283 C 0.2177 0.44571 0.18465 0.0
C284 C 0.20951 0.35549 0.17514 0.0
C285 C 0.15748 0.32487 0.14548 0.0
C286 C 0.13273 0.35268 0.13784 0.0
C287 C 0.16354 0.41304 0.15724 0.0
C288 C 0.23495 0.32549 0.18555 0.0
C289 C 0.07601 0.32061 0.10748 0.0
H290 H 0.15991 0.23172 0.02636 0.0
H291 H 0.00929 0.09663 0.11801 0.0
H292 H 0.2083 0.37538 0.0618 0.0
H293 H 0.26328 0.3759 0.08912 0.0
H294 H 0.24133 0.34825 0.03545 0.0
H295 H 0.99074 0.13384 0.17486 0.0
H296 H 0.07158 0.19041 0.19948 0.0
H297 H 0.03825 0.22096 0.18063 0.0
H298 H 0.28142 0.44137 0.21541 0.0
H299 H 0.1469 0.43621 0.14972 0.0
H300 H 0.25259 0.32017 0.15684 0.0
H301 H 0.19343 0.27474 0.1985 0.0
H302 H 0.27654 0.35604 0.20869 0.0
H303 H 0.09356 0.32582 0.07537 0.0
H304 H 0.05745 0.34391 0.1088 0.0
H305 H 0.03362 0.26638 0.11388 0.0
C306 C 0.77811 0.09819 0.69696 0.0
C307 C 0.82705 0.11786 0.6687 0.0
C308 C 0.76103 0.13343 0.70033 0.0
C309 C 0.79223 0.18876 0.67394 0.0
C310 C 0.84137 0.2087 0.64516 0.0
C311 C 0.85942 0.17429 0.64381 0.0
C312 C 0.70765 0.10934 0.7313 0.0
C313 C 0.87482 0.26522 0.61475 0.0
C314 C 0.68691 0.22264 0.66046 0.0
C315 C 0.72159 0.27943 0.6856 0.0
C316 C 0.71101 0.19427 0.65491 0.0
C317 C 0.77075 0.22315 0.67542 0.0
C318 C 0.80829 0.28342 0.69837 0.0
C319 C 0.78278 0.31051 0.70347 0.0
C320 C 0.6733 0.13431 0.62645 0.0
C321 C 0.87544 0.31972 0.71724 0.0
H322 H 0.75163 0.05411 0.71587 0.0
H323 H 0.8986 0.19149 0.62256 0.0
H324 H 0.71682 0.15126 0.74442 0.0
H325 H 0.65814 0.07429 0.7155 0.0
H326 H 0.70469 0.08197 0.75744 0.0
H327 H 0.87437 0.24913 0.58302 0.0
H328 H 0.85101 0.28314 0.613 0.0
H329 H 0.92819 0.30777 0.62383 0.0
H330 H 0.64066 0.2002 0.64532 0.0
H331 H 0.81132 0.35688 0.7206 0.0
H332 H 0.64856 0.08919 0.64512 0.0
H333 H 0.70849 0.1418 0.60475 0.0
H334 H 0.63425 0.12468 0.60784 0.0
H335 H 0.86842 0.28931 0.74258 0.0
H336 H 0.90118 0.36942 0.73007 0.0
H337 H 0.90863 0.32702 0.69379 0.0
C338 C 0.79025 0.83609 0.08724 0.0
C339 C 0.84334 0.9055 0.08353 0.0
C340 C 0.73461 0.80732 0.11209 0.0
C341 C 0.73354 0.84928 0.13465 0.0
C342 C 0.79008 0.91946 0.13377 0.0
C343 C 0.84374 0.94683 0.10741 0.0
C344 C 0.67495 0.73235 0.11158 0.0
C345 C 0.79226 0.96579 0.15876 0.0
C346 C 0.56464 0.78764 0.14198 0.0
C347 C 0.54247 0.75867 0.18172 0.0
C348 C 0.62687 0.81774 0.12679 0.0
C349 C 0.66942 0.82088 0.15236 0.0
C350 C 0.64908 0.79476 0.19334 0.0
C351 C 0.58508 0.76267 0.20725 0.0
C352 C 0.64601 0.84421 0.08269 0.0
C353 C 0.69369 0.79867 0.222 0.0
H354 H 0.79048 0.80442 0.06878 0.0
H355 H 0.88571 0.00066 0.10502 0.0
H356 H 0.65792 0.71314 0.14381 0.0
H357 H 0.6328 0.7192 0.09476 0.0
H358 H 0.68621 0.70659 0.09596 0.0
H359 H 0.84383 0.0171 0.16083 0.0
H360 H 0.7595 0.96882 0.14379 0.0
H361 H 0.77322 0.94637 0.1908 0.0
H362 H 0.53232 0.78521 0.12199 0.0
H363 H 0.56761 0.73858 0.23728 0.0
H364 H 0.65543 0.8188 0.06414 0.0
H365 H 0.69297 0.89844 0.08289 0.0
H366 H 0.60652 0.83669 0.06667 0.0
H367 H 0.69188 0.76003 0.21278 0.0
H368 H 0.67749 0.78998 0.25501 0.0
H369 H 0.74655 0.84811 0.21972 0.0
C370 C 0.86356 0.78514 0.55711 0.0
C371 C 0.90526 0.84965 0.57382 0.0
C372 C 0.83707 0.73106 0.5826 0.0
C373 C 0.85361 0.74199 0.62567 0.0
C374 C 0.8957 0.80702 0.64272 0.0
C375 C 0.92069 0.85995 0.61664 0.0
C376 C 0.79181 0.66223 0.56331 0.0
C377 C 0.91497 0.82086 0.68836 0.0
C378 C 0.73677 0.58405 0.69041 0.0
C379 C 0.76989 0.56466 0.68929 0.0
C380 C 0.76547 0.64425 0.67216 0.0
C381 C 0.82845 0.68537 0.65223 0.0
C382 C 0.8641 0.6681 0.65385 0.0
C383 C 0.83394 0.6074 0.672 0.0
C384 C 0.72597 0.66098 0.6713 0.0
C385 C 0.9319 0.71116 0.63368 0.0
H386 H 0.85138 0.77683 0.52413 0.0
H387 H 0.95371 0.90982 0.62974 0.0
H388 H 0.81512 0.64386 0.56631 0.0
H389 H 0.74334 0.62662 0.5801 0.0
H390 H 0.78168 0.66169 0.52976 0.0
H391 H 0.95119 0.87493 0.69622 0.0
H392 H 0.86964 0.79327 0.70779 0.0
H393 H 0.93745 0.80284 0.69703 0.0
H394 H 0.6865 0.54999 0.70302 0.0
H395 H 0.85876 0.59146 0.67053 0.0
H396 H 0.70701 0.65356 0.63919 0.0
H397 H 0.7583 0.71413 0.67987 0.0
H398 H 0.68256 0.62905 0.69285 0.0
H399 H 0.9261 0.70801 0.59926 0.0
H400 H 0.95651 0.6953 0.64227 0.0
H401 H 0.96529 0.76433 0.64283 0.0
C402 C 0.17171 0.85027 0.39981 0.0
C403 C 0.2146 0.89228 0.4333 0.0
C404 C 0.1794 0.81388 0.37721 0.0
C405 C 0.23213 0.8206 0.38761 0.0
C406 C 0.27661 0.86411 0.42055 0.0
C407 C 0.26672 0.89843 0.44329 0.0
C408 C 0.12932 0.76636 0.34338 0.0
C409 C 0.33397 0.8733 0.43248 0.0
C410 C 0.22616 0.68575 0.36931 0.0
C411 C 0.27133 0.71243 0.33632 0.0
C412 C 0.20926 0.71815 0.38438 0.0
C413 C 0.23891 0.77926 0.36634 0.0
C414 C 0.28091 0.804 0.33107 0.0
C415 C 0.2971 0.77047 0.31664 0.0
C416 C 0.16275 0.68896 0.42124 0.0
C417 C 0.31211 0.86803 0.31024 0.0
H418 H 0.13189 0.84561 0.39105 0.0
H419 H 0.29943 0.92924 0.46953 0.0
H420 H 0.09036 0.71522 0.3564 0.0
H421 H 0.10405 0.78014 0.33137 0.0
H422 H 0.15323 0.76469 0.31703 0.0
H423 H 0.36688 0.91251 0.45681 0.0
H424 H 0.31405 0.82556 0.44445 0.0
H425 H 0.36481 0.88716 0.40467 0.0
H426 H 0.20596 0.64063 0.38446 0.0
H427 H 0.33309 0.79194 0.29171 0.0
H428 H 0.12335 0.68726 0.41504 0.0
H429 H 0.19141 0.72126 0.44908 0.0
H430 H 0.13824 0.63769 0.42867 0.0
H431 H 0.2742 0.86876 0.30528 0.0
H432 H 0.33474 0.87493 0.2797 0.0
H433 H 0.35185 0.91103 0.33081 0.0
C434 C 0.19417 0.15154 0.91849 0.0
C435 C 0.15434 0.08659 0.93353 0.0
C436 C 0.24843 0.18132 0.89184 0.0
C437 C 0.26449 0.14611 0.88101 0.0
C438 C 0.22259 0.07944 0.89458 0.0
C439 C 0.16812 0.05055 0.92065 0.0
C440 C 0.29103 0.252 0.87738 0.0
C441 C 0.23783 0.04004 0.8839 0.0
C442 C 0.40644 0.21928 0.80496 0.0
C443 C 0.46069 0.25296 0.83246 0.0
C444 C 0.34194 0.18462 0.81981 0.0
C445 C 0.3316 0.18295 0.86332 0.0
C446 C 0.38603 0.21608 0.89116 0.0
C447 C 0.44943 0.25077 0.87547 0.0
C448 C 0.28552 0.15091 0.7889 0.0
C449 C 0.37738 0.21447 0.93788 0.0
H450 H 0.18425 0.17997 0.92855 0.0
H451 H 0.13733 0.00015 0.93188 0.0
H452 H 0.33921 0.28646 0.89479 0.0
H453 H 0.3028 0.2566 0.84374 0.0
H454 H 0.26597 0.2683 0.88249 0.0
H455 H 0.19556 0.98625 0.89168 0.0
H456 H 0.24926 0.04445 0.85023 0.0
H457 H 0.28278 0.06067 0.90162 0.0
H458 H 0.41416 0.2195 0.77208 0.0
H459 H 0.49045 0.27618 0.89744 0.0
H460 H 0.27544 0.1816 0.7853 0.0
H461 H 0.23869 0.10091 0.80003 0.0
H462 H 0.2981 0.14525 0.75775 0.0
H463 H 0.35855 0.23637 0.9459 0.0
H464 H 0.42484 0.24239 0.9553 0.0
H465 H 0.33973 0.16196 0.94883 0.0
C466 C 0.0394 0.15483 0.40604 0.0
C467 C 0.07174 0.13513 0.41311 0.0
C468 C 0.06757 0.20861 0.37981 0.0
C469 C 0.12565 0.23872 0.35665 0.0
C470 C 0.15015 0.20982 0.35743 0.0
C471 C 0.12487 0.16043 0.387 0.0
C472 C 0.03744 0.23551 0.37955 0.0
C473 C 0.2065 0.23424 0.32954 0.0
C474 C 0.19238 0.38982 0.29467 0.0
C475 C 0.24619 0.44217 0.31994 0.0
C476 C 0.15488 0.32288 0.30437 0.0
C477 C 0.16968 0.30829 0.34134 0.0
C478 C 0.22471 0.36148 0.36657 0.0
C479 C 0.26294 0.42732 0.35495 0.0
C480 C 0.09856 0.26859 0.27557 0.0
C481 C 0.24288 0.3498 0.40675 0.0
H482 H -0.00549 0.13147 0.42325 0.0
H483 H 0.1489 0.14423 0.39068 0.0
H484 H 0.07664 0.29097 0.37995 0.0
H485 H 0.00699 0.21806 0.35083 0.0
H486 H 0.004 0.21753 0.40668 0.0
H487 H 0.19588 0.19108 0.31728 0.0
H488 H 0.21404 0.26342 0.30271 0.0
H489 H 0.25363 0.26579 0.3479 0.0
H490 H 0.17796 0.40081 0.26832 0.0
H491 H 0.30512 0.46761 0.37441 0.0
H492 H 0.05297 0.25622 0.28358 0.0
H493 H 0.08705 0.22253 0.27764 0.0
H494 H 0.11128 0.28633 0.24287 0.0
H495 H 0.19773 0.30672 0.42419 0.0
H496 H 0.27395 0.39434 0.42762 0.0
H497 H 0.27229 0.33899 0.39938 0.0
C498 C 0.89529 0.2595 0.92729 0.0
C499 C 0.91713 0.23356 0.90864 0.0
C500 C 0.86015 0.26795 0.90406 0.0
C501 C 0.84773 0.25125 0.86096 0.0
C502 C 0.87027 0.22534 0.84208 0.0
C503 C 0.90476 0.217 0.86616 0.0
C504 C 0.83491 0.29328 0.92595 0.0
C505 C 0.85915 0.20646 0.79661 0.0
C506 C 0.70495 0.22265 0.8185 0.0
C507 C 0.73903 0.28719 0.80593 0.0
C508 C 0.74013 0.20877 0.83352 0.0
C509 C 0.81092 0.26104 0.83651 0.0
C510 C 0.84561 0.32513 0.82097 0.0
C511 C 0.80914 0.33764 0.80623 0.0
C512 C 0.70134 0.13955 0.84924 0.0
C513 C 0.92112 0.38153 0.82235 0.0
H514 H 0.90408 0.27138 0.96033 0.0
H515 H 0.92212 0.19734 0.85166 0.0
H516 H 0.85777 0.34114 0.91197 0.0
H517 H 0.77982 0.2569 0.92183 0.0
H518 H 0.84653 0.30148 0.95987 0.0
H519 H 0.84828 0.16096 0.79198 0.0
H520 H 0.8175 0.19711 0.78317 0.0
H521 H 0.9057 0.24766 0.77923 0.0
H522 H 0.65063 0.1841 0.8191 0.0
H523 H 0.83538 0.38799 0.79749 0.0
H524 H 0.7058 0.14103 0.88372 0.0
H525 H 0.72246 0.12178 0.83637 0.0
H526 H 0.64739 0.10296 0.84074 0.0
H527 H 0.9383 0.39776 0.85513 0.0
H528 H 0.94071 0.42539 0.80408 0.0
H529 H 0.94306 0.36433 0.80997 0.0
C530 C 0.85578 0.92155 0.3892 0.0
C531 C 0.84913 0.926 0.43192 0.0
C532 C 0.80375 0.89484 0.36116 0.0
C533 C 0.74376 0.87191 0.3765 0.0
C534 C 0.73799 0.87857 0.41959 0.0
C535 C 0.79114 0.90616 0.44674 0.0
C536 C 0.81253 0.88987 0.31546 0.0
C537 C 0.67485 0.85473 0.43727 0.0
C538 C 0.60749 0.83491 0.31441 0.0
C539 C 0.55749 0.76507 0.31538 0.0
C540 C 0.67158 0.87126 0.3307 0.0
C541 C 0.68473 0.83643 0.34873 0.0
C542 C 0.63595 0.76585 0.34602 0.0
C543 C 0.57265 0.73098 0.32951 0.0
C544 C 0.72299 0.94654 0.33201 0.0
C545 C 0.64823 0.72679 0.36421 0.0
H546 H 0.90207 0.93983 0.37767 0.0
H547 H 0.78679 0.91073 0.47978 0.0
H548 H 0.78323 0.83721 0.30747 0.0
H549 H 0.7935 0.90516 0.29573 0.0
H550 H 0.86584 0.92131 0.30753 0.0
H551 H 0.67943 0.86576 0.47114 0.0
H552 H 0.66256 0.8788 0.4207 0.0
H553 H 0.63221 0.79993 0.43249 0.0
H554 H 0.59514 0.86093 0.30371 0.0
H555 H 0.53338 0.67677 0.33035 0.0
H556 H 0.77344 0.96892 0.32415 0.0
H557 H 0.72568 0.96318 0.36405 0.0
H558 H 0.71014 0.96603 0.31014 0.0
H559 H 0.69766 0.74839 0.3543 0.0
H560 H 0.60886 0.67327 0.35476 0.0
H561 H 0.64885 0.72975 0.39877 0.0
C562 C 0.96997 0.86209 0.90577 0.0
C563 C 0.92774 0.85076 0.93623 0.0
C564 C 0.94558 0.81225 0.87645 0.0
C565 C 0.87805 0.74916 0.87875 0.0
C566 C 0.83459 0.73897 0.90834 0.0
C567 C 0.86001 0.79016 0.93664 0.0
C568 C 0.99262 0.82616 0.84414 0.0
C569 C 0.76214 0.67271 0.91174 0.0
C570 C 0.78606 0.60405 0.80227 0.0
C571 C 0.79129 0.56485 0.8228 0.0
C572 C 0.81881 0.66737 0.81803 0.0
C573 C 0.85561 0.69058 0.85586 0.0
C574 C 0.86448 0.65295 0.87508 0.0
C575 C 0.83299 0.59114 0.85801 0.0
C576 C 0.81018 0.70698 0.7956 0.0
C577 C 0.90292 0.67535 0.91557 0.0
H578 H 0.02199 0.90996 0.90488 0.0
H579 H 0.82742 0.78208 0.96004 0.0
H580 H 0.0056 0.79889 0.8522 0.0
H581 H 0.96808 0.80805 0.813 0.0
H582 H 0.03975 0.88033 0.84213 0.0
H583 H 0.73401 0.67462 0.93432 0.0
H584 H 0.73711 0.65716 0.88088 0.0
H585 H 0.75932 0.63377 0.92198 0.0
H586 H 0.75327 0.58375 0.77551 0.0
H587 H 0.83811 0.56155 0.87377 0.0
H588 H 0.85596 0.76146 0.79815 0.0
H589 H 0.76807 0.6965 0.80979 0.0
H590 H 0.79824 0.69289 0.76208 0.0
H591 H 0.95387 0.72673 0.91259 0.0
H592 H 0.90771 0.64177 0.92544 0.0
H593 H 0.87689 0.67644 0.94063 0.0
loop_
_geom_bond_atom_site_label_1
_geom_bond_atom_site_label_2
_geom_bond_distance
_geom_bond_site_symmetry_2
_ccdc_geom_bond_type
Tb0 N29 2.617 . S
Tb0 N35 2.572 1_565 S
Tb0 O44 2.465 . S
Tb0 O45 2.387 1_565 S
Tb0 O47 2.428 . S
Tb0 O48 2.308 1_564 S
Tb0 O52 2.349 1_454 S
Tb0 O55 2.393 1_455 S
Tb0 C64 2.802 . S
C1 N2 1.379 1_665 S
C1 C4 1.416 . S
C1 C8 1.424 . S
N2 C1 1.379 1_445 S
N2 C5 1.334 . S
N2 Tb11 2.617 1_455 S
C3 C5 1.390 . S
C3 C6 1.339 . S
C3 H23 0.930 . S
C4 C1 1.416 . S
C4 C6 1.416 1_665 S
C4 C10 1.448 . S
C5 N2 1.334 . S
C5 C3 1.390 . S
C5 H16 0.930 . S
C6 C3 1.339 . S
C6 C4 1.416 1_445 S
C6 H27 0.930 1_545 S
C7 C8 1.413 . S
C7 C9 1.427 . S
C7 C13 1.416 . S
C8 C1 1.424 . S
C8 C7 1.413 . S
C8 N12 1.361 . S
C9 C7 1.427 . S
C9 C10 1.328 . S
C9 H24 0.929 . S
C10 C4 1.448 . S
C10 C9 1.328 . S
C10 H25 0.930 . S
Tb11 N2 2.617 1_655 S
Tb11 N12 2.572 1_545 S
Tb11 O46 2.349 1_656 S
Tb11 O49 2.393 1_655 S
Tb11 O50 2.465 . S
Tb11 O51 2.387 1_545 S
Tb11 O53 2.428 1_655 S
Tb11 O54 2.308 1_546 S
Tb11 C75 2.802 . S
N12 C8 1.361 . S
N12 Tb11 2.572 1_565 S
N12 C14 1.340 . S
C13 C7 1.416 . S
C13 C15 1.332 . S
C13 H21 0.931 . S
C14 N12 1.340 . S
C14 C15 1.407 . S
C14 H20 0.930 . S
C15 C13 1.332 . S
C15 C14 1.407 . S
C15 H17 0.929 . S
H16 C5 0.930 . S
H17 C15 0.929 . S
H18 C33 0.930 . S
H19 C40 0.929 . S
H20 C14 0.930 . S
H21 C13 0.931 . S
H22 C36 0.930 . S
H23 C3 0.930 . S
H24 C9 0.929 . S
H25 C10 0.930 . S
H26 C31 0.930 . S
H27 C6 0.930 1_565 S
H28 C39 0.931 . S
N29 Tb0 2.617 . S
N29 C30 1.379 1_565 S
N29 C33 1.334 1_455 S
C30 N29 1.379 1_545 S
C30 C32 1.416 . S
C30 C38 1.424 . S
C31 H26 0.930 . S
C31 C33 1.390 . S
C31 C34 1.339 1_565 S
C32 C30 1.416 . S
C32 C34 1.416 1_455 S
C32 C65 1.448 . S
C33 H18 0.930 . S
C33 N29 1.334 1_655 S
C33 C31 1.390 . S
C34 C31 1.339 1_545 S
C34 C32 1.416 1_655 S
C34 H41 0.930 . S
N35 Tb0 2.572 1_545 S
N35 C36 1.340 . S
N35 C38 1.361 . S
C36 H22 0.930 . S
C36 N35 1.340 . S
C36 C40 1.407 . S
C37 C38 1.413 . S
C37 C39 1.416 . S
C37 C66 1.427 . S
C38 C30 1.424 . S
C38 N35 1.361 . S
C38 C37 1.413 . S
C39 H28 0.931 . S
C39 C37 1.416 . S
C39 C40 1.332 . S
C40 H19 0.929 . S
C40 C36 1.407 . S
C40 C39 1.332 . S
H41 C34 0.930 . S
H42 C65 0.930 . S
H43 C66 0.929 . S
O44 Tb0 2.465 . S
O44 C64 1.264 . S
O45 Tb0 2.387 1_545 S
O45 C56 1.264 . S
O46 Tb11 2.349 1_454 S
O46 C56 1.243 . S
O47 Tb0 2.428 . S
O47 C64 1.256 . S
O48 Tb0 2.308 1_546 S
O48 C63 1.266 . S
O49 Tb11 2.393 1_455 S
O49 C63 1.248 . S
O50 Tb11 2.465 . S
O50 C75 1.264 . S
O51 Tb11 2.387 1_565 S
O51 C67 1.264 . S
O52 Tb0 2.349 1_656 S
O52 C67 1.243 . S
O53 Tb11 2.428 1_455 S
O53 C75 1.256 1_455 S
O54 Tb11 2.308 1_564 S
O54 C74 1.266 . S
O55 Tb0 2.393 1_655 S
O55 C74 1.248 . S
C56 O45 1.264 . S
C56 O46 1.243 . S
C57 C60 1.399 . S
C57 C62 1.383 . S
C57 C64 1.496 . S
C58 C59 1.399 . S
C58 C62 1.389 . S
C59 C58 1.399 . S
C59 C61 1.380 . S
C59 H76 0.929 . S
C60 C57 1.399 . S
C60 C61 1.392 . S
C60 H77 0.929 1_455 S
C61 C59 1.380 . S
C61 C60 1.392 . S
C61 H78 0.929 . S
C62 C57 1.383 . S
C62 C58 1.389 . S
C62 H79 0.931 . S
C63 O48 1.266 . S
C63 O49 1.248 . S
C64 Tb0 2.802 . S
C64 O44 1.264 . S
C64 O47 1.256 . S
C64 C57 1.496 . S
C65 C32 1.448 . S
C65 H42 0.930 . S
C65 C66 1.328 . S
C66 C37 1.427 . S
C66 H43 0.929 . S
C66 C65 1.328 . S
C67 O51 1.264 . S
C67 O52 1.243 . S
C68 C71 1.399 . S
C68 C72 1.383 . S
C68 C75 1.496 . S
C69 C70 1.399 . S
C69 C72 1.389 . S
C70 C69 1.399 . S
C70 C73 1.380 . S
C70 H80 0.929 . S
C71 C68 1.399 . S
C71 C73 1.392 . S
C71 H81 0.929 1_655 S
C72 C68 1.383 . S
C72 C69 1.389 . S
C72 H82 0.931 . S
C73 C70 1.380 . S
C73 C71 1.392 . S
C73 H83 0.929 1_655 S
C74 O54 1.266 . S
C74 O55 1.248 . S
C75 Tb11 2.802 . S
C75 O50 1.264 . S
C75 O53 1.256 1_655 S
C75 C68 1.496 . S
H76 C59 0.929 . S
H77 C60 0.929 1_655 S
H78 C61 0.929 . S
H79 C62 0.931 . S
H80 C70 0.929 . S
H81 C71 0.929 1_455 S
H82 C72 0.931 . S
H83 C73 0.929 1_455 S
Tb84 N113 2.617 1_565 S
Tb84 N119 2.572 1_455 S
Tb84 O128 2.465 . S
Tb84 O129 2.387 1_455 S
Tb84 O131 2.428 1_565 S
Tb84 O132 2.308 1_455 S
Tb84 O136 2.349 1_565 S
Tb84 O139 2.393 1_565 S
Tb84 C148 2.802 . S
C85 N86 1.379 . S
C85 C88 1.416 . S
C85 C92 1.424 . S
N86 C85 1.379 . S
N86 C89 1.334 1_445 S
N86 Tb95 2.617 1_455 S
C87 C89 1.390 . S
C87 C90 1.339 1_665 S
C87 H107 0.930 . S
C88 C85 1.416 . S
C88 C90 1.416 . S
C88 C94 1.448 . S
C89 N86 1.334 1_665 S
C89 C87 1.390 . S
C89 H100 0.930 . S
C90 C87 1.339 1_445 S
C90 C88 1.416 . S
C90 H111 0.927 1_545 S
C91 C92 1.413 . S
C91 C93 1.427 . S
C91 C97 1.416 . S
C92 C85 1.424 . S
C92 C91 1.413 . S
C92 N96 1.361 . S
C93 C91 1.427 . S
C93 C94 1.328 . S
C93 H108 0.929 . S
C94 C88 1.448 . S
C94 C93 1.328 . S
C94 H109 0.930 . S
Tb95 N86 2.617 1_655 S
Tb95 N96 2.572 1_655 S
Tb95 O130 2.349 1_545 S
Tb95 O133 2.393 1_545 S
Tb95 O134 2.465 . S
Tb95 O135 2.387 1_655 S
Tb95 O137 2.428 . S
Tb95 O138 2.308 1_655 S
Tb95 C159 2.802 . S
N96 C92 1.361 . S
N96 Tb95 2.572 1_455 S
N96 C98 1.340 . S
C97 C91 1.416 . S
C97 C99 1.332 . S
C97 H105 0.931 . S
C98 N96 1.340 . S
C98 C99 1.407 . S
C98 H104 0.930 . S
C99 C97 1.332 . S
C99 C98 1.407 . S
C99 H101 0.929 . S
H100 C89 0.930 . S
H101 C99 0.929 . S
H102 C117 0.930 . S
H103 C124 0.929 . S
H104 C98 0.930 . S
H105 C97 0.931 . S
H106 C120 0.930 . S
H107 C87 0.930 . S
H108 C93 0.929 . S
H109 C94 0.930 . S
H110 C115 0.930 . S
H111 C90 0.927 1_565 S
H112 C123 0.931 . S
N113 Tb84 2.617 1_545 S
N113 C114 1.379 1_445 S
N113 C117 1.334 . S
C114 N113 1.379 1_665 S
C114 C116 1.416 . S
C114 C122 1.424 . S
C115 H110 0.930 . S
C115 C117 1.390 . S
C115 C118 1.339 . S
C116 C114 1.416 . S
C116 C118 1.416 1_665 S
C116 C149 1.448 . S
C117 H102 0.930 . S
C117 N113 1.334 . S
C117 C115 1.390 . S
C118 C115 1.339 . S
C118 C116 1.416 1_445 S
C118 H125 0.930 . S
N119 Tb84 2.572 1_655 S
N119 C120 1.340 . S
N119 C122 1.361 . S
C120 H106 0.930 . S
C120 N119 1.340 . S
C120 C124 1.407 . S
C121 C122 1.413 . S
C121 C123 1.416 . S
C121 C150 1.427 . S
C122 C114 1.424 . S
C122 N119 1.361 . S
C122 C121 1.413 . S
C123 H112 0.931 . S
C123 C121 1.416 . S
C123 C124 1.332 . S
C124 H103 0.929 . S
C124 C120 1.407 . S
C124 C123 1.332 . S
H125 C118 0.930 . S
H126 C149 0.930 . S
H127 C150 0.929 . S
O128 Tb84 2.465 . S
O128 C148 1.264 . S
O129 Tb84 2.387 1_655 S
O129 C140 1.264 . S
O130 Tb95 2.349 1_565 S
O130 C140 1.243 . S
O131 Tb84 2.428 1_545 S
O131 C148 1.256 1_545 S
O132 Tb84 2.308 1_655 S
O132 C147 1.266 . S
O133 Tb95 2.393 1_565 S
O133 C147 1.248 . S
O134 Tb95 2.465 . S
O134 C159 1.264 . S
O135 Tb95 2.387 1_455 S
O135 C151 1.264 . S
O136 Tb84 2.349 1_545 S
O136 C151 1.243 . S
O137 Tb95 2.428 . S
O137 C159 1.256 . S
O138 Tb95 2.308 1_455 S
O138 C158 1.266 . S
O139 Tb84 2.393 1_545 S
O139 C158 1.248 . S
C140 O129 1.264 . S
C140 O130 1.243 . S
C141 C144 1.399 . S
C141 C146 1.383 . S
C141 C148 1.496 . S
C142 C143 1.399 . S
C142 C146 1.389 . S
C143 C142 1.399 . S
C143 C145 1.380 . S
C143 H160 0.929 . S
C144 C141 1.399 . S
C144 C145 1.392 . S
C144 H161 0.929 1_565 S
C145 C143 1.380 . S
C145 C144 1.392 . S
C145 H162 0.929 1_565 S
C146 C141 1.383 . S
C146 C142 1.389 . S
C146 H163 0.931 . S
C147 O132 1.266 . S
C147 O133 1.248 . S
C148 Tb84 2.802 . S
C148 O128 1.264 . S
C148 O131 1.256 1_565 S
C148 C141 1.496 . S
C149 C116 1.448 . S
C149 H126 0.930 . S
C149 C150 1.328 . S
C150 C121 1.427 . S
C150 H127 0.929 . S
C150 C149 1.328 . S
C151 O135 1.264 . S
C151 O136 1.243 . S
C152 C155 1.399 . S
C152 C156 1.383 . S
C152 C159 1.496 . S
C153 C154 1.399 . S
C153 C156 1.389 . S
C154 C153 1.399 . S
C154 C157 1.380 . S
C154 H164 0.929 . S
C155 C152 1.399 . S
C155 C157 1.392 . S
C155 H165 0.929 . S
C156 C152 1.383 . S
C156 C153 1.389 . S
C156 H166 0.931 . S
C157 C154 1.380 . S
C157 C155 1.392 . S
C157 H167 0.929 . S
C158 O138 1.266 . S
C158 O139 1.248 . S
C159 Tb95 2.802 . S
C159 O134 1.264 . S
C159 O137 1.256 . S
C159 C152 1.496 . S
H160 C143 0.929 . S
H161 C144 0.929 1_545 S
H162 C145 0.929 1_545 S
H163 C146 0.931 . S
H164 C154 0.929 . S
H165 C155 0.929 . S
H166 C156 0.931 . S
H167 C157 0.929 . S
Zn168 O174 1.920 . S
Zn168 O180 1.898 . S
Zn168 O183 1.905 . S
Zn169 O177 1.905 . S
Zn169 O178 1.898 . S
Zn169 O186 1.920 . S
Zn170 O173 2.080 . S
Zn170 O176 2.114 . S
Zn170 O179 2.120 . S
Zn170 O181 2.120 . S
Zn170 O182 2.114 . S
Zn170 O185 2.080 . S
C171 O176 1.166 . S
C171 O177 1.182 . S
C172 O178 1.167 . S
C172 O179 1.299 . S
O173 Zn170 2.080 . S
O173 C187 1.305 . S
O174 Zn168 1.920 . S
O174 C187 1.234 . S
C175 O180 1.167 . S
C175 O181 1.299 . S
O176 Zn170 2.114 . S
O176 C171 1.166 . S
O177 Zn169 1.905 . S
O177 C171 1.182 . S
O178 Zn169 1.898 . S
O178 C172 1.167 . S
O179 Zn170 2.120 . S
O179 C172 1.299 . S
O180 Zn168 1.898 . S
O180 C175 1.167 . S
O181 Zn170 2.120 . S
O181 C175 1.299 . S
O182 Zn170 2.114 . S
O182 C184 1.166 . S
O183 Zn168 1.905 . S
O183 C184 1.182 . S
C184 O182 1.166 . S
C184 O183 1.182 . S
O185 Zn170 2.080 . S
O185 C188 1.305 . S
O186 Zn169 1.920 . S
O186 C188 1.234 . S
C187 O173 1.305 . S
C187 O174 1.234 . S
C188 O185 1.305 . S
C188 O186 1.234 . S
Zn189 O195 1.920 . S
Zn189 O201 1.898 . S
Zn189 O204 1.905 . S
Zn190 O198 1.905 . S
Zn190 O199 1.898 . S
Zn190 O207 1.920 . S
Zn191 O194 2.080 . S
Zn191 O197 2.114 . S
Zn191 O200 2.120 . S
Zn191 O202 2.120 . S
Zn191 O203 2.114 . S
Zn191 O206 2.080 . S
C192 O197 1.166 . S
C192 O198 1.182 . S
C193 O199 1.167 . S
C193 O200 1.299 . S
O194 Zn191 2.080 . S
O194 C208 1.305 . S
O195 Zn189 1.920 . S
O195 C208 1.234 . S
C196 O201 1.167 . S
C196 O202 1.299 . S
O197 Zn191 2.114 . S
O197 C192 1.166 . S
O198 Zn190 1.905 . S
O198 C192 1.182 . S
O199 Zn190 1.898 . S
O199 C193 1.167 . S
O200 Zn191 2.120 . S
O200 C193 1.299 . S
O201 Zn189 1.898 . S
O201 C196 1.167 . S
O202 Zn191 2.120 . S
O202 C196 1.299 . S
O203 Zn191 2.114 . S
O203 C205 1.166 . S
O204 Zn189 1.905 . S
O204 C205 1.182 . S
C205 O203 1.166 . S
C205 O204 1.182 . S
O206 Zn191 2.080 . S
O206 C209 1.305 . S
O207 Zn190 1.920 . S
O207 C209 1.234 . S
C208 O194 1.305 . S
C208 O195 1.234 . S
C209 O206 1.305 . S
C209 O207 1.234 . S
C210 C211 1.391 . S
C210 C212 1.394 . S
C210 H226 0.931 . S
C211 C210 1.391 . S
C211 C215 1.376 . S
C212 C210 1.394 . S
C212 C213 1.369 . S
C212 C216 1.531 . S
C213 C212 1.369 . S
C213 C214 1.410 . S
C213 C221 1.503 . S
C214 C213 1.410 . S
C214 C215 1.392 . S
C214 C217 1.511 . S
C215 C211 1.376 . S
C215 C214 1.392 . S
C215 H227 0.929 . S
C216 C212 1.531 . S
C216 H228 0.960 . S
C216 H229 0.962 . S
C216 H230 0.960 . S
C217 C214 1.511 . S
C217 H231 0.961 . S
C217 H232 0.961 . S
C217 H233 0.961 . S
C218 C219 1.370 . S
C218 C220 1.363 . S
C218 H234 0.931 . S
C219 C218 1.370 . S
C219 C223 1.408 . S
C220 C218 1.363 . S
C220 C221 1.370 . S
C220 C224 1.524 . S
C221 C213 1.503 . S
C221 C220 1.370 . S
C221 C222 1.403 . S
C222 C221 1.403 . S
C222 C223 1.404 . S
C222 C225 1.539 . S
C223 C219 1.408 . S
C223 C222 1.404 . S
C223 H235 0.930 . S
C224 C220 1.524 . S
C224 H236 0.956 . S
C224 H237 0.961 . S
C224 H238 0.961 . S
C225 C222 1.539 . S
C225 H239 0.958 . S
C225 H240 0.961 . S
C225 H241 0.960 . S
H226 C210 0.931 . S
H227 C215 0.929 . S
H228 C216 0.960 . S
H229 C216 0.962 . S
H230 C216 0.960 . S
H231 C217 0.961 . S
H232 C217 0.961 . S
H233 C217 0.961 . S
H234 C218 0.931 . S
H235 C223 0.930 . S
H236 C224 0.956 . S
H237 C224 0.961 . S
H238 C224 0.961 . S
H239 C225 0.958 . S
H240 C225 0.961 . S
H241 C225 0.960 . S
C242 C243 1.391 . S
C242 C244 1.394 . S
C242 H258 0.931 . S
C243 C242 1.391 . S
C243 C247 1.376 . S
C244 C242 1.394 . S
C244 C245 1.369 . S
C244 C248 1.531 . S
C245 C244 1.369 . S
C245 C246 1.410 . S
C245 C253 1.503 . S
C246 C245 1.410 . S
C246 C247 1.392 . S
C246 C249 1.511 . S
C247 C243 1.376 . S
C247 C246 1.392 . S
C247 H259 0.929 . S
C248 C244 1.531 . S
C248 H260 0.960 . S
C248 H261 0.962 . S
C248 H262 0.960 . S
C249 C246 1.511 . S
C249 H263 0.961 . S
C249 H264 0.961 . S
C249 H265 0.961 . S
C250 C251 1.370 . S
C250 C252 1.363 . S
C250 H266 0.931 . S
C251 C250 1.370 . S
C251 C255 1.408 . S
C252 C250 1.363 . S
C252 C253 1.370 . S
C252 C256 1.524 . S
C253 C245 1.503 . S
C253 C252 1.370 . S
C253 C254 1.403 . S
C254 C253 1.403 . S
C254 C255 1.404 . S
C254 C257 1.539 . S
C255 C251 1.408 . S
C255 C254 1.404 . S
C255 H267 0.930 . S
C256 C252 1.524 . S
C256 H268 0.956 . S
C256 H269 0.961 . S
C256 H270 0.961 . S
C257 C254 1.539 . S
C257 H271 0.958 . S
C257 H272 0.961 . S
C257 H273 0.960 . S
H258 C242 0.931 . S
H259 C247 0.929 . S
H260 C248 0.960 . S
H261 C248 0.962 . S
H262 C248 0.960 . S
H263 C249 0.961 . S
H264 C249 0.961 . S
H265 C249 0.961 . S
H266 C250 0.931 . S
H267 C255 0.930 . S
H268 C256 0.956 . S
H269 C256 0.961 . S
H270 C256 0.961 . S
H271 C257 0.958 . S
H272 C257 0.961 . S
H273 C257 0.960 . S
C274 C275 1.391 . S
C274 C276 1.394 . S
C274 H290 0.931 . S
C275 C274 1.391 . S
C275 C279 1.376 . S
C276 C274 1.394 . S
C276 C277 1.369 . S
C276 C280 1.531 . S
C277 C276 1.369 . S
C277 C278 1.410 . S
C277 C285 1.503 . S
C278 C277 1.410 . S
C278 C279 1.392 . S
C278 C281 1.511 . S
C279 C275 1.376 . S
C279 C278 1.392 . S
C279 H291 0.929 . S
C280 C276 1.531 . S
C280 H292 0.960 . S
C280 H293 0.962 . S
C280 H294 0.960 . S
C281 C278 1.511 . S
C281 H295 0.961 . S
C281 H296 0.961 . S
C281 H297 0.961 . S
C282 C283 1.370 . S
C282 C284 1.363 . S
C282 H298 0.931 . S
C283 C282 1.370 . S
C283 C287 1.408 . S
C284 C282 1.363 . S
C284 C285 1.370 . S
C284 C288 1.524 . S
C285 C277 1.503 . S
C285 C284 1.370 . S
C285 C286 1.403 . S
C286 C285 1.403 . S
C286 C287 1.404 . S
C286 C289 1.539 . S
C287 C283 1.408 . S
C287 C286 1.404 . S
C287 H299 0.930 . S
C288 C284 1.524 . S
C288 H300 0.956 . S
C288 H301 0.961 . S
C288 H302 0.961 . S
C289 C286 1.539 . S
C289 H303 0.958 . S
C289 H304 0.961 . S
C289 H305 0.960 . S
H290 C274 0.931 . S
H291 C279 0.929 . S
H292 C280 0.960 . S
H293 C280 0.962 . S
H294 C280 0.960 . S
H295 C281 0.961 . S
H296 C281 0.961 . S
H297 C281 0.961 . S
H298 C282 0.931 . S
H299 C287 0.930 . S
H300 C288 0.956 . S
H301 C288 0.961 . S
H302 C288 0.961 . S
H303 C289 0.958 . S
H304 C289 0.961 . S
H305 C289 0.960 . S
C306 C307 1.391 . S
C306 C308 1.394 . S
C306 H322 0.931 . S
C307 C306 1.391 . S
C307 C311 1.376 . S
C308 C306 1.394 . S
C308 C309 1.369 . S
C308 C312 1.531 . S
C309 C308 1.369 . S
C309 C310 1.410 . S
C309 C317 1.503 . S
C310 C309 1.410 . S
C310 C311 1.392 . S
C310 C313 1.511 . S
C311 C307 1.376 . S
C311 C310 1.392 . S
C311 H323 0.929 . S
C312 C308 1.531 . S
C312 H324 0.960 . S
C312 H325 0.962 . S
C312 H326 0.960 . S
C313 C310 1.511 . S
C313 H327 0.961 . S
C313 H328 0.961 . S
C313 H329 0.961 . S
C314 C315 1.370 . S
C314 C316 1.363 . S
C314 H330 0.931 . S
C315 C314 1.370 . S
C315 C319 1.408 . S
C316 C314 1.363 . S
C316 C317 1.370 . S
C316 C320 1.524 . S
C317 C309 1.503 . S
C317 C316 1.370 . S
C317 C318 1.403 . S
C318 C317 1.403 . S
C318 C319 1.404 . S
C318 C321 1.539 . S
C319 C315 1.408 . S
C319 C318 1.404 . S
C319 H331 0.930 . S
C320 C316 1.524 . S
C320 H332 0.956 . S
C320 H333 0.961 . S
C320 H334 0.961 . S
C321 C318 1.539 . S
C321 H335 0.958 . S
C321 H336 0.961 . S
C321 H337 0.960 . S
H322 C306 0.931 . S
H323 C311 0.929 . S
H324 C312 0.960 . S
H325 C312 0.962 . S
H326 C312 0.960 . S
H327 C313 0.961 . S
H328 C313 0.961 . S
H329 C313 0.961 . S
H330 C314 0.931 . S
H331 C319 0.930 . S
H332 C320 0.956 . S
H333 C320 0.961 . S
H334 C320 0.961 . S
H335 C321 0.958 . S
H336 C321 0.961 . S
H337 C321 0.960 . S
C338 C339 1.391 . S
C338 C340 1.394 . S
C338 H354 0.931 . S
C339 C338 1.391 . S
C339 C343 1.376 . S
C340 C338 1.394 . S
C340 C341 1.369 . S
C340 C344 1.531 . S
C341 C340 1.369 . S
C341 C342 1.410 . S
C341 C349 1.503 . S
C342 C341 1.410 . S
C342 C343 1.392 . S
C342 C345 1.511 . S
C343 C339 1.376 . S
C343 C342 1.392 . S
C343 H355 0.929 1_565 S
C344 C340 1.531 . S
C344 H356 0.960 . S
C344 H357 0.962 . S
C344 H358 0.960 . S
C345 C342 1.511 . S
C345 H359 0.961 1_565 S
C345 H360 0.961 . S
C345 H361 0.961 . S
C346 C347 1.370 . S
C346 C348 1.363 . S
C346 H362 0.931 . S
C347 C346 1.370 . S
C347 C351 1.408 . S
C348 C346 1.363 . S
C348 C349 1.370 . S
C348 C352 1.524 . S
C349 C341 1.503 . S
C349 C348 1.370 . S
C349 C350 1.403 . S
C350 C349 1.403 . S
C350 C351 1.404 . S
C350 C353 1.539 . S
C351 C347 1.408 . S
C351 C350 1.404 . S
C351 H363 0.930 . S
C352 C348 1.524 . S
C352 H364 0.956 . S
C352 H365 0.961 . S
C352 H366 0.961 . S
C353 C350 1.539 . S
C353 H367 0.958 . S
C353 H368 0.961 . S
C353 H369 0.960 . S
H354 C338 0.931 . S
H355 C343 0.929 1_545 S
H356 C344 0.960 . S
H357 C344 0.962 . S
H358 C344 0.960 . S
H359 C345 0.961 1_545 S
H360 C345 0.961 . S
H361 C345 0.961 . S
H362 C346 0.931 . S
H363 C351 0.930 . S
H364 C352 0.956 . S
H365 C352 0.961 . S
H366 C352 0.961 . S
H367 C353 0.958 . S
H368 C353 0.961 . S
H369 C353 0.960 . S
C370 C371 1.391 . S
C370 C372 1.394 . S
C370 H386 0.931 . S
C371 C370 1.391 . S
C371 C375 1.376 . S
C372 C370 1.394 . S
C372 C373 1.369 . S
C372 C376 1.531 . S
C373 C372 1.369 . S
C373 C374 1.410 . S
C373 C381 1.503 . S
C374 C373 1.410 . S
C374 C375 1.392 . S
C374 C377 1.511 . S
C375 C371 1.376 . S
C375 C374 1.392 . S
C375 H387 0.929 . S
C376 C372 1.531 . S
C376 H388 0.960 . S
C376 H389 0.962 . S
C376 H390 0.960 . S
C377 C374 1.511 . S
C377 H391 0.961 . S
C377 H392 0.961 . S
C377 H393 0.961 . S
C378 C379 1.370 . S
C378 C380 1.363 . S
C378 H394 0.931 . S
C379 C378 1.370 . S
C379 C383 1.408 . S
C380 C378 1.363 . S
C380 C381 1.370 . S
C380 C384 1.524 . S
C381 C373 1.503 . S
C381 C380 1.370 . S
C381 C382 1.403 . S
C382 C381 1.403 . S
C382 C383 1.404 . S
C382 C385 1.539 . S
C383 C379 1.408 . S
C383 C382 1.404 . S
C383 H395 0.930 . S
C384 C380 1.524 . S
C384 H396 0.956 . S
C384 H397 0.961 . S
C384 H398 0.961 . S
C385 C382 1.539 . S
C385 H399 0.958 . S
C385 H400 0.961 . S
C385 H401 0.960 . S
H386 C370 0.931 . S
H387 C375 0.929 . S
H388 C376 0.960 . S
H389 C376 0.962 . S
H390 C376 0.960 . S
H391 C377 0.961 . S
H392 C377 0.961 . S
H393 C377 0.961 . S
H394 C378 0.931 . S
H395 C383 0.930 . S
H396 C384 0.956 . S
H397 C384 0.961 . S
H398 C384 0.961 . S
H399 C385 0.958 . S
H400 C385 0.961 . S
H401 C385 0.960 . S
C402 C403 1.391 . S
C402 C404 1.394 . S
C402 H418 0.931 . S
C403 C402 1.391 . S
C403 C407 1.376 . S
C404 C402 1.394 . S
C404 C405 1.369 . S
C404 C408 1.531 . S
C405 C404 1.369 . S
C405 C406 1.410 . S
C405 C413 1.503 . S
C406 C405 1.410 . S
C406 C407 1.392 . S
C406 C409 1.511 . S
C407 C403 1.376 . S
C407 C406 1.392 . S
C407 H419 0.929 . S
C408 C404 1.531 . S
C408 H420 0.960 . S
C408 H421 0.962 . S
C408 H422 0.960 . S
C409 C406 1.511 . S
C409 H423 0.961 . S
C409 H424 0.961 . S
C409 H425 0.961 . S
C410 C411 1.370 . S
C410 C412 1.363 . S
C410 H426 0.931 . S
C411 C410 1.370 . S
C411 C415 1.408 . S
C412 C410 1.363 . S
C412 C413 1.370 . S
C412 C416 1.524 . S
C413 C405 1.503 . S
C413 C412 1.370 . S
C413 C414 1.403 . S
C414 C413 1.403 . S
C414 C415 1.404 . S
C414 C417 1.539 . S
C415 C411 1.408 . S
C415 C414 1.404 . S
C415 H427 0.930 . S
C416 C412 1.524 . S
C416 H428 0.956 . S
C416 H429 0.961 . S
C416 H430 0.961 . S
C417 C414 1.539 . S
C417 H431 0.958 . S
C417 H432 0.961 . S
C417 H433 0.960 . S
H418 C402 0.931 . S
H419 C407 0.929 . S
H420 C408 0.960 . S
H421 C408 0.962 . S
H422 C408 0.960 . S
H423 C409 0.961 . S
H424 C409 0.961 . S
H425 C409 0.961 . S
H426 C410 0.931 . S
H427 C415 0.930 . S
H428 C416 0.956 . S
H429 C416 0.961 . S
H430 C416 0.961 . S
H431 C417 0.958 . S
H432 C417 0.961 . S
H433 C417 0.960 . S
C434 C435 1.391 . S
C434 C436 1.394 . S
C434 H450 0.931 . S
C435 C434 1.391 . S
C435 C439 1.376 . S
C436 C434 1.394 . S
C436 C437 1.369 . S
C436 C440 1.531 . S
C437 C436 1.369 . S
C437 C438 1.410 . S
C437 C445 1.503 . S
C438 C437 1.410 . S
C438 C439 1.392 . S
C438 C441 1.511 . S
C439 C435 1.376 . S
C439 C438 1.392 . S
C439 H451 0.929 . S
C440 C436 1.531 . S
C440 H452 0.960 . S
C440 H453 0.962 . S
C440 H454 0.960 . S
C441 C438 1.511 . S
C441 H455 0.961 . S
C441 H456 0.961 . S
C441 H457 0.961 . S
C442 C443 1.370 . S
C442 C444 1.363 . S
C442 H458 0.931 . S
C443 C442 1.370 . S
C443 C447 1.408 . S
C444 C442 1.363 . S
C444 C445 1.370 . S
C444 C448 1.524 . S
C445 C437 1.503 . S
C445 C444 1.370 . S
C445 C446 1.403 . S
C446 C445 1.403 . S
C446 C447 1.404 . S
C446 C449 1.539 . S
C447 C443 1.408 . S
C447 C446 1.404 . S
C447 H459 0.930 . S
C448 C444 1.524 . S
C448 H460 0.956 . S
C448 H461 0.961 . S
C448 H462 0.961 . S
C449 C446 1.539 . S
C449 H463 0.958 . S
C449 H464 0.961 . S
C449 H465 0.960 . S
H450 C434 0.931 . S
H451 C439 0.929 . S
H452 C440 0.960 . S
H453 C440 0.962 . S
H454 C440 0.960 . S
H455 C441 0.961 . S
H456 C441 0.961 . S
H457 C441 0.961 . S
H458 C442 0.931 . S
H459 C447 0.930 . S
H460 C448 0.956 . S
H461 C448 0.961 . S
H462 C448 0.961 . S
H463 C449 0.958 . S
H464 C449 0.961 . S
H465 C449 0.960 . S
C466 C467 1.391 . S
C466 C468 1.394 . S
C466 H482 0.931 . S
C467 C466 1.391 . S
C467 C471 1.376 . S
C468 C466 1.394 . S
C468 C469 1.369 . S
C468 C472 1.531 . S
C469 C468 1.369 . S
C469 C470 1.410 . S
C469 C477 1.503 . S
C470 C469 1.410 . S
C470 C471 1.392 . S
C470 C473 1.511 . S
C471 C467 1.376 . S
C471 C470 1.392 . S
C471 H483 0.929 . S
C472 C468 1.531 . S
C472 H484 0.960 . S
C472 H485 0.962 . S
C472 H486 0.960 . S
C473 C470 1.511 . S
C473 H487 0.961 . S
C473 H488 0.961 . S
C473 H489 0.961 . S
C474 C475 1.370 . S
C474 C476 1.363 . S
C474 H490 0.931 . S
C475 C474 1.370 . S
C475 C479 1.408 . S
C476 C474 1.363 . S
C476 C477 1.370 . S
C476 C480 1.524 . S
C477 C469 1.503 . S
C477 C476 1.370 . S
C477 C478 1.403 . S
C478 C477 1.403 . S
C478 C479 1.404 . S
C478 C481 1.539 . S
C479 C475 1.408 . S
C479 C478 1.404 . S
C479 H491 0.930 . S
C480 C476 1.524 . S
C480 H492 0.956 . S
C480 H493 0.961 . S
C480 H494 0.961 . S
C481 C478 1.539 . S
C481 H495 0.958 . S
C481 H496 0.961 . S
C481 H497 0.960 . S
H482 C466 0.931 . S
H483 C471 0.929 . S
H484 C472 0.960 . S
H485 C472 0.962 . S
H486 C472 0.960 . S
H487 C473 0.961 . S
H488 C473 0.961 . S
H489 C473 0.961 . S
H490 C474 0.931 . S
H491 C479 0.930 . S
H492 C480 0.956 . S
H493 C480 0.961 . S
H494 C480 0.961 . S
H495 C481 0.958 . S
H496 C481 0.961 . S
H497 C481 0.960 . S
C498 C499 1.391 . S
C498 C500 1.394 . S
C498 H514 0.931 . S
C499 C498 1.391 . S
C499 C503 1.376 . S
C500 C498 1.394 . S
C500 C501 1.369 . S
C500 C504 1.531 . S
C501 C500 1.369 . S
C501 C502 1.410 . S
C501 C509 1.503 . S
C502 C501 1.410 . S
C502 C503 1.392 . S
C502 C505 1.511 . S
C503 C499 1.376 . S
C503 C502 1.392 . S
C503 H515 0.929 . S
C504 C500 1.531 . S
C504 H516 0.960 . S
C504 H517 0.962 . S
C504 H518 0.960 . S
C505 C502 1.511 . S
C505 H519 0.961 . S
C505 H520 0.961 . S
C505 H521 0.961 . S
C506 C507 1.370 . S
C506 C508 1.363 . S
C506 H522 0.931 . S
C507 C506 1.370 . S
C507 C511 1.408 . S
C508 C506 1.363 . S
C508 C509 1.370 . S
C508 C512 1.524 . S
C509 C501 1.503 . S
C509 C508 1.370 . S
C509 C510 1.403 . S
C510 C509 1.403 . S
C510 C511 1.404 . S
C510 C513 1.539 . S
C511 C507 1.408 . S
C511 C510 1.404 . S
C511 H523 0.930 . S
C512 C508 1.524 . S
C512 H524 0.956 . S
C512 H525 0.961 . S
C512 H526 0.961 . S
C513 C510 1.539 . S
C513 H527 0.958 . S
C513 H528 0.961 . S
C513 H529 0.960 . S
H514 C498 0.931 . S
H515 C503 0.929 . S
H516 C504 0.960 . S
H517 C504 0.962 . S
H518 C504 0.960 . S
H519 C505 0.961 . S
H520 C505 0.961 . S
H521 C505 0.961 . S
H522 C506 0.931 . S
H523 C511 0.930 . S
H524 C512 0.956 . S
H525 C512 0.961 . S
H526 C512 0.961 . S
H527 C513 0.958 . S
H528 C513 0.961 . S
H529 C513 0.960 . S
C530 C531 1.391 . S
C530 C532 1.394 . S
C530 H546 0.931 1_565 S
C531 C530 1.391 . S
C531 C535 1.376 . S
C532 C530 1.394 . S
C532 C533 1.369 . S
C532 C536 1.531 . S
C533 C532 1.369 . S
C533 C534 1.410 . S
C533 C541 1.503 . S
C534 C533 1.410 . S
C534 C535 1.392 . S
C534 C537 1.511 . S
C535 C531 1.376 . S
C535 C534 1.392 . S
C535 H547 0.929 . S
C536 C532 1.531 . S
C536 H548 0.960 . S
C536 H549 0.962 . S
C536 H550 0.960 1_565 S
C537 C534 1.511 . S
C537 H551 0.961 . S
C537 H552 0.961 . S
C537 H553 0.961 . S
C538 C539 1.370 . S
C538 C540 1.363 . S
C538 H554 0.931 . S
C539 C538 1.370 . S
C539 C543 1.408 . S
C540 C538 1.363 . S
C540 C541 1.370 . S
C540 C544 1.524 . S
C541 C533 1.503 . S
C541 C540 1.370 . S
C541 C542 1.403 . S
C542 C541 1.403 . S
C542 C543 1.404 . S
C542 C545 1.539 . S
C543 C539 1.408 . S
C543 C542 1.404 . S
C543 H555 0.930 . S
C544 C540 1.524 . S
C544 H556 0.956 . S
C544 H557 0.961 . S
C544 H558 0.961 . S
C545 C542 1.539 . S
C545 H559 0.958 . S
C545 H560 0.961 . S
C545 H561 0.960 . S
H546 C530 0.931 1_545 S
H547 C535 0.929 . S
H548 C536 0.960 . S
H549 C536 0.962 . S
H550 C536 0.960 1_545 S
H551 C537 0.961 . S
H552 C537 0.961 . S
H553 C537 0.961 . S
H554 C538 0.931 . S
H555 C543 0.930 . S
H556 C544 0.956 . S
H557 C544 0.961 . S
H558 C544 0.961 . S
H559 C545 0.958 . S
H560 C545 0.961 . S
H561 C545 0.960 . S
C562 C563 1.391 . S
C562 C564 1.394 . S
C562 H578 0.931 . S
C563 C562 1.391 . S
C563 C567 1.376 . S
C564 C562 1.394 . S
C564 C565 1.369 . S
C564 C568 1.531 . S
C565 C564 1.369 . S
C565 C566 1.410 . S
C565 C573 1.503 . S
C566 C565 1.410 . S
C566 C567 1.392 . S
C566 C569 1.511 . S
C567 C563 1.376 . S
C567 C566 1.392 . S
C567 H579 0.929 . S
C568 C564 1.531 . S
C568 H580 0.960 . S
C568 H581 0.962 . S
C568 H582 0.960 . S
C569 C566 1.511 . S
C569 H583 0.961 . S
C569 H584 0.961 . S
C569 H585 0.961 . S
C570 C571 1.370 . S
C570 C572 1.363 . S
C570 H586 0.931 . S
C571 C570 1.370 . S
C571 C575 1.408 . S
C572 C570 1.363 . S
C572 C573 1.370 . S
C572 C576 1.524 . S
C573 C565 1.503 . S
C573 C572 1.370 . S
C573 C574 1.403 . S
C574 C573 1.403 . S
C574 C575 1.404 . S
C574 C577 1.539 . S
C575 C571 1.408 . S
C575 C574 1.404 . S
C575 H587 0.930 . S
C576 C572 1.524 . S
C576 H588 0.956 . S
C576 H589 0.961 . S
C576 H590 0.961 . S
C577 C574 1.539 . S
C577 H591 0.958 . S
C577 H592 0.961 . S
C577 H593 0.960 . S
H578 C562 0.931 . S
H579 C567 0.929 . S
H580 C568 0.960 . S
H581 C568 0.962 . S
H582 C568 0.960 . S
H583 C569 0.961 . S
H584 C569 0.961 . S
H585 C569 0.961 . S
H586 C570 0.931 . S
H587 C575 0.930 . S
H588 C576 0.956 . S
H589 C576 0.961 . S
H590 C576 0.961 . S
H591 C577 0.958 . S
H592 C577 0.961 . S
H593 C577 0.960 . S
C211 C58 1.186 . S
C219 C187 1.275 . S
C243 C151 1.530 . S
C251 C193 1.417 . S
C275 C56 1.620 . S
C283 C184 1.475 . S
C307 C153 1.186 . S
C315 C209 1.296 . S
C339 C74 1.578 . S
C347 C175 1.465 . S
C379 C192 1.520 . S
C371 C147 1.604 . S
C403 C142 1.114 . S
C411 C188 1.283 . S
C443 C205 1.519 . S
C435 C63 1.606 . S
C475 C172 1.436 . S
C467 C158 1.584 . S
C507 C208 1.260 . S
C499 C69 1.215 . S
C539 C171 1.503 . S
C531 C140 1.605 . S
C571 C196 1.384 . S
C563 C67 1.561 . S
