# Generated by pormake.
# Topology ocu, (6,8)-cn, num edge types: 1
# Building blocks:
#     Node 0, Type 0, BuildingBlock: CUWYAW_clean_sbu_0, # of connection points: 6
#     Node 1, Type 0, BuildingBlock: CUWYAW_clean_sbu_0, # of connection points: 6
#     Node 2, Type 0, BuildingBlock: CUWYAW_clean_sbu_0, # of connection points: 6
#     Node 3, Type 0, BuildingBlock: CUWYAW_clean_sbu_0, # of connection points: 6
#     Node 4, Type 0, BuildingBlock: CUWYAW_clean_sbu_0, # of connection points: 6
#     Node 5, Type 0, BuildingBlock: CUWYAW_clean_sbu_0, # of connection points: 6
#     Node 6, Type 0, BuildingBlock: CUWYAW_clean_sbu_0, # of connection points: 6
#     Node 7, Type 0, BuildingBlock: CUWYAW_clean_sbu_0, # of connection points: 6
#     Node 8, Type 1, BuildingBlock: VETTIZ_charged_sbu_0, # of connection points: 8
#     Node 9, Type 1, BuildingBlock: VETTIZ_charged_sbu_0, # of connection points: 8
#     Node 10, Type 1, BuildingBlock: VETTIZ_charged_sbu_0, # of connection points: 8
#     Node 11, Type 1, BuildingBlock: VETTIZ_charged_sbu_0, # of connection points: 8
#     Node 12, Type 1, BuildingBlock: VETTIZ_charged_sbu_0, # of connection points: 8
#     Node 13, Type 1, BuildingBlock: VETTIZ_charged_sbu_0, # of connection points: 8
#     Edge 14, Type (0, 1), BuildingBlock: MIFKUJ_clean_linker_0, # of connection points: 2
#     Edge 15, Type (0, 1), BuildingBlock: MIFKUJ_clean_linker_0, # of connection points: 2
#     Edge 16, Type (0, 1), BuildingBlock: MIFKUJ_clean_linker_0, # of connection points: 2
#     Edge 17, Type (0, 1), BuildingBlock: MIFKUJ_clean_linker_0, # of connection points: 2
#     Edge 18, Type (0, 1), BuildingBlock: MIFKUJ_clean_linker_0, # of connection points: 2
#     Edge 19, Type (0, 1), BuildingBlock: MIFKUJ_clean_linker_0, # of connection points: 2
#     Edge 20, Type (0, 1), BuildingBlock: MIFKUJ_clean_linker_0, # of connection points: 2
#     Edge 21, Type (0, 1), BuildingBlock: MIFKUJ_clean_linker_0, # of connection points: 2
#     Edge 22, Type (0, 1), BuildingBlock: MIFKUJ_clean_linker_0, # of connection points: 2
#     Edge 23, Type (0, 1), BuildingBlock: MIFKUJ_clean_linker_0, # of connection points: 2
#     Edge 24, Type (0, 1), BuildingBlock: MIFKUJ_clean_linker_0, # of connection points: 2
#     Edge 25, Type (0, 1), BuildingBlock: MIFKUJ_clean_linker_0, # of connection points: 2
#     Edge 26, Type (0, 1), BuildingBlock: MIFKUJ_clean_linker_0, # of connection points: 2
#     Edge 27, Type (0, 1), BuildingBlock: MIFKUJ_clean_linker_0, # of connection points: 2
#     Edge 28, Type (0, 1), BuildingBlock: MIFKUJ_clean_linker_0, # of connection points: 2
#     Edge 29, Type (0, 1), BuildingBlock: MIFKUJ_clean_linker_0, # of connection points: 2
#     Edge 30, Type (0, 1), BuildingBlock: MIFKUJ_clean_linker_0, # of connection points: 2
#     Edge 31, Type (0, 1), BuildingBlock: MIFKUJ_clean_linker_0, # of connection points: 2
#     Edge 32, Type (0, 1), BuildingBlock: MIFKUJ_clean_linker_0, # of connection points: 2
#     Edge 33, Type (0, 1), BuildingBlock: MIFKUJ_clean_linker_0, # of connection points: 2
#     Edge 34, Type (0, 1), BuildingBlock: MIFKUJ_clean_linker_0, # of connection points: 2
#     Edge 35, Type (0, 1), BuildingBlock: MIFKUJ_clean_linker_0, # of connection points: 2
#     Edge 36, Type (0, 1), BuildingBlock: MIFKUJ_clean_linker_0, # of connection points: 2
#     Edge 37, Type (0, 1), BuildingBlock: MIFKUJ_clean_linker_0, # of connection points: 2
#     Edge 38, Type (0, 1), BuildingBlock: MIFKUJ_clean_linker_0, # of connection points: 2
#     Edge 39, Type (0, 1), BuildingBlock: MIFKUJ_clean_linker_0, # of connection points: 2
#     Edge 40, Type (0, 1), BuildingBlock: MIFKUJ_clean_linker_0, # of connection points: 2
#     Edge 41, Type (0, 1), BuildingBlock: MIFKUJ_clean_linker_0, # of connection points: 2
#     Edge 42, Type (0, 1), BuildingBlock: MIFKUJ_clean_linker_0, # of connection points: 2
#     Edge 43, Type (0, 1), BuildingBlock: MIFKUJ_clean_linker_0, # of connection points: 2
#     Edge 44, Type (0, 1), BuildingBlock: MIFKUJ_clean_linker_0, # of connection points: 2
#     Edge 45, Type (0, 1), BuildingBlock: MIFKUJ_clean_linker_0, # of connection points: 2
#     Edge 46, Type (0, 1), BuildingBlock: MIFKUJ_clean_linker_0, # of connection points: 2
#     Edge 47, Type (0, 1), BuildingBlock: MIFKUJ_clean_linker_0, # of connection points: 2
#     Edge 48, Type (0, 1), BuildingBlock: MIFKUJ_clean_linker_0, # of connection points: 2
#     Edge 49, Type (0, 1), BuildingBlock: MIFKUJ_clean_linker_0, # of connection points: 2
#     Edge 50, Type (0, 1), BuildingBlock: MIFKUJ_clean_linker_0, # of connection points: 2
#     Edge 51, Type (0, 1), BuildingBlock: MIFKUJ_clean_linker_0, # of connection points: 2
#     Edge 52, Type (0, 1), BuildingBlock: MIFKUJ_clean_linker_0, # of connection points: 2
#     Edge 53, Type (0, 1), BuildingBlock: MIFKUJ_clean_linker_0, # of connection points: 2
#     Edge 54, Type (0, 1), BuildingBlock: MIFKUJ_clean_linker_0, # of connection points: 2
#     Edge 55, Type (0, 1), BuildingBlock: MIFKUJ_clean_linker_0, # of connection points: 2
#     Edge 56, Type (0, 1), BuildingBlock: MIFKUJ_clean_linker_0, # of connection points: 2
#     Edge 57, Type (0, 1), BuildingBlock: MIFKUJ_clean_linker_0, # of connection points: 2
#     Edge 58, Type (0, 1), BuildingBlock: MIFKUJ_clean_linker_0, # of connection points: 2
#     Edge 59, Type (0, 1), BuildingBlock: MIFKUJ_clean_linker_0, # of connection points: 2
#     Edge 60, Type (0, 1), BuildingBlock: MIFKUJ_clean_linker_0, # of connection points: 2
#     Edge 61, Type (0, 1), BuildingBlock: MIFKUJ_clean_linker_0, # of connection points: 2
# Relax obj value: 0.114
# Max RMSD: 0.192
# Mean RMSD: 0.120
data_MOF--net-ocu--node1-CUWYAW_clean_sbu_0--node2-VETTIZ_charged_sbu_0--edge1-MIFKUJ_clean_linker_0
_symmetry_space_group_name_H-M    P1
_symmetry_Int_Tables_number       1
_symmetry_cell_setting            triclinic
loop_
_symmetry_equiv_pos_as_xyz
'x, y, z'
_cell_length_a     51.734207
_cell_length_b     51.624459
_cell_length_c     49.631561
_cell_angle_alpha  86.480104
_cell_angle_beta   99.557229
_cell_angle_gamma 98.272957
loop_
_atom_site_label
_atom_site_type_symbol
_atom_site_fract_x
_atom_site_fract_y
_atom_site_fract_z
_atom_type_partial_charge
C0 C 0.29397 0.32405 0.33317 0.0
Eu1 Eu 0.28932 0.29212 0.29301 0.0
C2 C 0.27868 0.32657 0.35515 0.0
C3 C 0.27737 0.35148 0.36407 0.0
C4 C 0.26196 0.35442 0.38401 0.0
C5 C 0.24764 0.33245 0.39558 0.0
C6 C 0.24926 0.30741 0.38672 0.0
C7 C 0.26453 0.30452 0.3666 0.0
C8 C 0.31791 0.30712 0.25015 0.0
C9 C 0.23681 0.3043 0.24869 0.0
C10 C 0.26683 0.22411 0.21737 0.0
Eu11 Eu 0.27168 0.25807 0.25528 0.0
C12 C 0.28507 0.2062 0.21257 0.0
C13 C 0.27541 0.18059 0.20457 0.0
C14 C 0.29303 0.16319 0.20154 0.0
C15 C 0.3205 0.17119 0.20675 0.0
C16 C 0.32999 0.19683 0.21492 0.0
C17 C 0.31248 0.21415 0.21776 0.0
C18 C 0.24288 0.24493 0.29818 0.0
C19 C 0.3239 0.24449 0.29842 0.0
O20 O 0.30602 0.30345 0.33463 0.0
O21 O 0.28238 0.32891 0.30845 0.0
O22 O 0.3276 0.30609 0.27587 0.0
O23 O 0.29316 0.29906 0.24788 0.0
O24 O 0.24893 0.30684 0.27439 0.0
O25 O 0.24404 0.28661 0.23459 0.0
O26 O 0.27494 0.24898 0.2138 0.0
O27 O 0.25658 0.21916 0.23966 0.0
O28 O 0.2329 0.24714 0.27249 0.0
O29 O 0.26782 0.25181 0.30041 0.0
O30 O 0.31022 0.24088 0.27368 0.0
O31 O 0.31805 0.26326 0.31232 0.0
H32 H 0.28792 0.36873 0.35526 0.0
H33 H 0.26076 0.37404 0.38979 0.0
H34 H 0.23871 0.29004 0.39529 0.0
H35 H 0.26509 0.28508 0.35982 0.0
H36 H 0.25432 0.17404 0.20081 0.0
H37 H 0.28521 0.1435 0.19522 0.0
H38 H 0.35101 0.20376 0.2185 0.0
H39 H 0.32048 0.23381 0.22403 0.0
C40 C 0.83819 0.29295 0.23538 0.0
Eu41 Eu 0.79894 0.28159 0.26164 0.0
C42 C 0.83713 0.29255 0.20564 0.0
C43 C 0.82189 0.27175 0.1905 0.0
C44 C 0.81478 0.27461 0.16214 0.0
C45 C 0.82308 0.29816 0.14878 0.0
C46 C 0.84007 0.318 0.16362 0.0
C47 C 0.847 0.31524 0.19182 0.0
C48 C 0.75584 0.24707 0.2399 0.0
C49 C 0.74942 0.31665 0.24527 0.0
C50 C 0.71673 0.25886 0.32647 0.0
Eu51 Eu 0.75413 0.27629 0.29932 0.0
C52 C 0.72097 0.25307 0.35615 0.0
C53 C 0.73819 0.27064 0.37375 0.0
C54 C 0.74884 0.26237 0.40003 0.0
C55 C 0.74232 0.23642 0.40927 0.0
C56 C 0.72348 0.2195 0.39238 0.0
C57 C 0.71304 0.22771 0.36604 0.0
C58 C 0.79629 0.31174 0.32078 0.0
C59 C 0.80509 0.24325 0.31715 0.0
O60 O 0.826 0.31106 0.24341 0.0
O61 O 0.83327 0.2701 0.24793 0.0
O62 O 0.77691 0.25351 0.22898 0.0
O63 O 0.7593 0.25914 0.26174 0.0
O64 O 0.77418 0.31385 0.24283 0.0
O65 O 0.73685 0.30251 0.26379 0.0
O66 O 0.72728 0.24344 0.31258 0.0
O67 O 0.72112 0.28365 0.31859 0.0
O68 O 0.77451 0.30602 0.3307 0.0
O69 O 0.79403 0.29895 0.29945 0.0
O70 O 0.78068 0.24629 0.32037 0.0
O71 O 0.81667 0.25639 0.29753 0.0
H72 H 0.81429 0.25381 0.20065 0.0
H73 H 0.802 0.25903 0.15093 0.0
H74 H 0.84689 0.3363 0.15352 0.0
H75 H 0.85864 0.33149 0.20299 0.0
H76 H 0.74465 0.29041 0.3668 0.0
H77 H 0.76299 0.27596 0.41261 0.0
H78 H 0.71719 0.19964 0.39929 0.0
H79 H 0.69995 0.21379 0.35284 0.0
C80 C 0.78416 0.74684 0.33206 0.0
Eu81 Eu 0.77419 0.77913 0.2905 0.0
C82 C 0.79146 0.72041 0.33646 0.0
C83 C 0.79441 0.70597 0.31439 0.0
C84 C 0.80409 0.68191 0.31914 0.0
C85 C 0.81071 0.67196 0.34603 0.0
C86 C 0.80658 0.68609 0.36795 0.0
C87 C 0.79708 0.71016 0.36317 0.0
C88 C 0.73388 0.7675 0.24836 0.0
C89 C 0.80733 0.76546 0.24102 0.0
C90 C 0.7676 0.85112 0.2076 0.0
Eu91 Eu 0.77788 0.81628 0.24653 0.0
C92 C 0.75764 0.87648 0.20808 0.0
C93 C 0.77159 0.89959 0.19843 0.0
C94 C 0.76312 0.92386 0.20058 0.0
C95 C 0.74061 0.92544 0.21262 0.0
C96 C 0.72697 0.90223 0.22255 0.0
C97 C 0.73519 0.87808 0.22004 0.0
C98 C 0.81841 0.82668 0.28855 0.0
C99 C 0.74449 0.82967 0.2957 0.0
O100 O 0.80208 0.76463 0.32368 0.0
O101 O 0.76032 0.74867 0.3191 0.0
O102 O 0.73114 0.76664 0.27391 0.0
O103 O 0.75778 0.7752 0.24609 0.0
O104 O 0.80162 0.75984 0.26623 0.0
O105 O 0.79866 0.78648 0.22766 0.0
O106 O 0.75112 0.83006 0.21175 0.0
O107 O 0.79137 0.84989 0.22103 0.0
O108 O 0.82118 0.82809 0.263 0.0
O109 O 0.79438 0.81984 0.29077 0.0
O110 O 0.74884 0.83417 0.26994 0.0
O111 O 0.75475 0.80979 0.30965 0.0
H112 H 0.78989 0.71362 0.2936 0.0
H113 H 0.80695 0.6714 0.30187 0.0
H114 H 0.81194 0.67919 0.38891 0.0
H115 H 0.79494 0.72116 0.3804 0.0
H116 H 0.78908 0.89886 0.18929 0.0
H117 H 0.77387 0.94128 0.19232 0.0
H118 H 0.70981 0.90268 0.2323 0.0
H119 H 0.72398 0.86066 0.22771 0.0
C120 C 0.23405 0.84635 0.29657 0.0
Eu121 Eu 0.26044 0.81049 0.28493 0.0
C122 C 0.20958 0.84786 0.30747 0.0
C123 C 0.19142 0.8638 0.29367 0.0
C124 C 0.16898 0.86707 0.30464 0.0
C125 C 0.16455 0.85463 0.32973 0.0
C126 C 0.18218 0.83783 0.34298 0.0
C127 C 0.20446 0.83435 0.33188 0.0
C128 C 0.24126 0.77245 0.24868 0.0
C129 C 0.24938 0.75697 0.32528 0.0
C130 C 0.32148 0.7337 0.27496 0.0
Eu131 Eu 0.29544 0.76982 0.28715 0.0
C132 C 0.34197 0.73019 0.25855 0.0
C133 C 0.36304 0.71675 0.27032 0.0
C134 C 0.38092 0.71036 0.25436 0.0
C135 C 0.37787 0.71708 0.22624 0.0
C136 C 0.35739 0.73149 0.2147 0.0
C137 C 0.33968 0.73811 0.23073 0.0
C138 C 0.31322 0.80759 0.3241 0.0
C139 C 0.30554 0.82267 0.24608 0.0
O140 O 0.25369 0.83807 0.31351 0.0
O141 O 0.23114 0.83704 0.27217 0.0
O142 O 0.23917 0.79707 0.24351 0.0
O143 O 0.25275 0.76929 0.27281 0.0
O144 O 0.24488 0.78156 0.31861 0.0
O145 O 0.26734 0.74712 0.31421 0.0
O146 O 0.29848 0.73822 0.26149 0.0
O147 O 0.32889 0.74742 0.2969 0.0
O148 O 0.31446 0.78281 0.32964 0.0
O149 O 0.30315 0.81103 0.29948 0.0
O150 O 0.3095 0.7979 0.25227 0.0
O151 O 0.28872 0.83306 0.25819 0.0
H152 H 0.19498 0.87428 0.27476 0.0
H153 H 0.15578 0.88028 0.29419 0.0
H154 H 0.17903 0.82788 0.36227 0.0
H155 H 0.21797 0.82164 0.34276 0.0
H156 H 0.36514 0.71039 0.2917 0.0
H157 H 0.39636 0.69905 0.26375 0.0
H158 H 0.35475 0.73714 0.19314 0.0
H159 H 0.32373 0.7487 0.22113 0.0
C160 C 0.34968 0.81014 0.74016 0.0
Eu161 Eu 0.30905 0.78838 0.76183 0.0
C162 C 0.35332 0.82268 0.7136 0.0
C163 C 0.33139 0.827 0.69389 0.0
C164 C 0.33508 0.83829 0.66826 0.0
C165 C 0.36073 0.84502 0.66197 0.0
C166 C 0.3826 0.84076 0.68189 0.0
C167 C 0.3789 0.82968 0.70754 0.0
C168 C 0.27421 0.7477 0.73977 0.0
C169 C 0.25773 0.81928 0.73874 0.0
C170 C 0.21915 0.75597 0.80646 0.0
Eu171 Eu 0.26233 0.77666 0.78868 0.0
C172 C 0.20767 0.74637 0.83069 0.0
C173 C 0.22309 0.74547 0.85668 0.0
C174 C 0.21089 0.73832 0.87969 0.0
C175 C 0.18318 0.73212 0.87683 0.0
C176 C 0.16803 0.73293 0.85059 0.0
C177 C 0.18021 0.73992 0.82775 0.0
C178 C 0.29797 0.81672 0.81162 0.0
C179 C 0.31368 0.74602 0.81237 0.0
O180 O 0.3375 0.82264 0.75531 0.0
O181 O 0.34138 0.78502 0.73987 0.0
O182 O 0.29967 0.74857 0.7431 0.0
O183 O 0.2682 0.76877 0.747 0.0
O184 O 0.28359 0.81937 0.74025 0.0
O185 O 0.24426 0.8016 0.75323 0.0
O186 O 0.23522 0.74203 0.79796 0.0
O187 O 0.22689 0.78115 0.80485 0.0
O188 O 0.27259 0.81561 0.80983 0.0
O189 O 0.30328 0.79583 0.80345 0.0
O190 O 0.28768 0.7457 0.81044 0.0
O191 O 0.3273 0.7637 0.79779 0.0
H192 H 0.31148 0.82141 0.69824 0.0
H193 H 0.31793 0.84131 0.65323 0.0
H194 H 0.40261 0.84618 0.6777 0.0
H195 H 0.39598 0.82645 0.72258 0.0
H196 H 0.24438 0.75064 0.85916 0.0
H197 H 0.22307 0.73763 0.89962 0.0
H198 H 0.14665 0.72878 0.84771 0.0
H199 H 0.16807 0.7409 0.80778 0.0
C200 C 0.31242 0.25022 0.73034 0.0
Eu201 Eu 0.28992 0.27201 0.76608 0.0
C202 C 0.33117 0.23298 0.72208 0.0
C203 C 0.35826 0.24205 0.72193 0.0
C204 C 0.3747 0.22736 0.71054 0.0
C205 C 0.36477 0.20302 0.69846 0.0
C206 C 0.33773 0.19382 0.69909 0.0
C207 C 0.32135 0.20846 0.71056 0.0
C208 C 0.31286 0.30963 0.80237 0.0
C209 C 0.29125 0.2377 0.82473 0.0
C210 C 0.23462 0.30715 0.8468 0.0
Eu211 Eu 0.25519 0.28414 0.81044 0.0
C212 C 0.21653 0.3246 0.85592 0.0
C213 C 0.19195 0.31398 0.86356 0.0
C214 C 0.17678 0.32933 0.87585 0.0
C215 C 0.18557 0.35603 0.88134 0.0
C216 C 0.20999 0.36672 0.87318 0.0
C217 C 0.22513 0.35136 0.86087 0.0
C218 C 0.23246 0.24629 0.77416 0.0
C219 C 0.25146 0.31696 0.75115 0.0
O220 O 0.29047 0.23976 0.73892 0.0
O221 O 0.32161 0.2729 0.74113 0.0
O222 O 0.31701 0.30968 0.77724 0.0
O223 O 0.29823 0.28881 0.80781 0.0
O224 O 0.29497 0.23935 0.79879 0.0
O225 O 0.27932 0.25497 0.83515 0.0
O226 O 0.2557 0.31745 0.83646 0.0
O227 O 0.22511 0.28396 0.8373 0.0
O228 O 0.22645 0.24727 0.79848 0.0
O229 O 0.24727 0.26701 0.76908 0.0
O230 O 0.2489 0.31592 0.77735 0.0
O231 O 0.26405 0.30006 0.74085 0.0
H232 H 0.36673 0.26097 0.72999 0.0
H233 H 0.39512 0.23567 0.71043 0.0
H234 H 0.32898 0.17517 0.69058 0.0
H235 H 0.30063 0.20077 0.70973 0.0
H236 H 0.18468 0.29342 0.86081 0.0
H237 H 0.15848 0.31982 0.88192 0.0
H238 H 0.21767 0.38712 0.87637 0.0
H239 H 0.24401 0.36042 0.8558 0.0
C240 C 0.73825 0.3327 0.77804 0.0
Eu241 Eu 0.77007 0.29751 0.78016 0.0
C242 C 0.71978 0.33961 0.79525 0.0
C243 C 0.6974 0.32216 0.80024 0.0
C244 C 0.68062 0.3291 0.81717 0.0
C245 C 0.68613 0.35341 0.82962 0.0
C246 C 0.70845 0.3708 0.82456 0.0
C247 C 0.72501 0.36402 0.80744 0.0
C248 C 0.76296 0.25879 0.74304 0.0
C249 C 0.75258 0.24985 0.82353 0.0
C250 C 0.8383 0.22687 0.80229 0.0
Eu251 Eu 0.80538 0.26117 0.79694 0.0
C252 C 0.8513 0.21485 0.78328 0.0
C253 C 0.87701 0.20885 0.7916 0.0
C254 C 0.8898 0.19796 0.77335 0.0
C255 C 0.87691 0.19281 0.74658 0.0
C256 C 0.85107 0.19887 0.7384 0.0
C257 C 0.83844 0.21 0.75653 0.0
C258 C 0.81199 0.29953 0.83431 0.0
C259 C 0.82116 0.30629 0.75044 0.0
O260 O 0.76329 0.3367 0.78852 0.0
O261 O 0.73186 0.31073 0.76533 0.0
O262 O 0.76301 0.28357 0.73676 0.0
O263 O 0.7669 0.25542 0.76883 0.0
O264 O 0.74947 0.27389 0.81377 0.0
O265 O 0.77248 0.23906 0.81775 0.0
O266 O 0.81268 0.22066 0.79965 0.0
O267 O 0.84582 0.25183 0.80562 0.0
O268 O 0.81155 0.27477 0.84026 0.0
O269 O 0.80852 0.30307 0.80854 0.0
O270 O 0.82342 0.28206 0.76023 0.0
O271 O 0.80249 0.31828 0.75741 0.0
H272 H 0.69291 0.30312 0.79124 0.0
H273 H 0.66356 0.31534 0.82083 0.0
H274 H 0.7129 0.38984 0.83358 0.0
H275 H 0.74206 0.37783 0.80382 0.0
H276 H 0.88724 0.21278 0.81213 0.0
H277 H 0.90987 0.19389 0.78009 0.0
H278 H 0.84047 0.19478 0.71806 0.0
H279 H 0.81861 0.21478 0.74966 0.0
C280 C 0.78289 0.83578 0.84644 0.0
Eu281 Eu 0.7893 0.80812 0.80633 0.0
C282 C 0.76133 0.84781 0.85454 0.0
C283 C 0.76712 0.87272 0.86556 0.0
C284 C 0.74695 0.88533 0.87206 0.0
C285 C 0.72055 0.8732 0.86777 0.0
C286 C 0.71479 0.84807 0.85698 0.0
C287 C 0.735 0.83554 0.85022 0.0
C288 C 0.82248 0.82557 0.76764 0.0
C289 C 0.74582 0.81354 0.75124 0.0
C290 C 0.787 0.73717 0.72323 0.0
Eu291 Eu 0.78147 0.76511 0.7637 0.0
C292 C 0.80715 0.72875 0.70882 0.0
C293 C 0.80894 0.7019 0.70856 0.0
C294 C 0.82663 0.69285 0.69413 0.0
C295 C 0.84301 0.7104 0.67937 0.0
C296 C 0.84156 0.73741 0.67995 0.0
C297 C 0.82371 0.7465 0.69443 0.0
C298 C 0.74781 0.74789 0.80216 0.0
C299 C 0.82608 0.76123 0.819 0.0
O300 O 0.78094 0.8102 0.8478 0.0
O301 O 0.79143 0.84596 0.82431 0.0
O302 O 0.82131 0.83716 0.78974 0.0
O303 O 0.80713 0.80377 0.76836 0.0
O304 O 0.75337 0.81956 0.77719 0.0
O305 O 0.7546 0.79388 0.74101 0.0
O306 O 0.78232 0.76151 0.72011 0.0
O307 O 0.78646 0.72786 0.74821 0.0
O308 O 0.74907 0.7361 0.78021 0.0
O309 O 0.76337 0.76952 0.80126 0.0
O310 O 0.8177 0.7543 0.79333 0.0
O311 O 0.81769 0.78123 0.82887 0.0
H312 H 0.78729 0.88256 0.86891 0.0
H313 H 0.75204 0.90453 0.88067 0.0
H314 H 0.6946 0.83833 0.85329 0.0
H315 H 0.73003 0.81645 0.84138 0.0
H316 H 0.79637 0.68777 0.71939 0.0
H317 H 0.8275 0.67199 0.6946 0.0
H318 H 0.85376 0.75146 0.66868 0.0
H319 H 0.82267 0.76731 0.69403 0.0
Fe320 Fe 0.03369 0.09057 0.50895 0.0
O321 O 0.02922 0.05177 0.51156 0.0
Fe322 Fe 0.06319 0.03355 0.52915 0.0
Fe323 Fe 1.00035 0.03022 0.52964 0.0
O324 O 0.03274 0.05233 0.51175 0.0
O325 O 0.03456 1.01296 0.54866 0.0
O326 O 0.03082 1.01239 0.54856 0.0
Fe327 Fe 0.02886 0.97405 0.55168 0.0
C328 C 1.00368 0.07946 0.55757 0.0
O329 O 0.99933 0.08334 0.4809 0.0
O330 O 0.97265 0.05409 0.50526 0.0
O331 O 0.05139 0.97071 0.52213 0.0
O332 O 0.05373 1.00812 0.49735 0.0
O333 O 0.0888 0.05966 0.50445 0.0
O334 O 0.06144 0.08894 0.48318 0.0
O335 O 0.99269 1.00467 0.49789 0.0
O336 O 0.99517 0.96737 0.52248 0.0
C337 C 0.08368 0.07926 0.48668 0.0
O338 O 0.06454 0.98066 0.57782 0.0
O339 O 0.09069 1.00882 0.55195 0.0
O340 O 1.00854 0.0931 0.53635 0.0
O341 O 1.00686 0.05551 0.56089 0.0
C342 C 0.97619 0.07218 0.48562 0.0
C343 C 0.9874 0.97987 0.50039 0.0
C344 C 0.97992 0.9854 0.57339 0.0
O345 O 0.97444 1.00352 0.55384 0.0
O346 O 1.00281 0.97697 0.57876 0.0
C347 C 0.05125 0.9832 0.49926 0.0
O348 O 0.07374 0.05903 0.5611 0.0
O349 O 0.06529 0.09743 0.54062 0.0
C350 C 0.08749 0.99121 0.57205 0.0
C351 C 0.07591 0.084 0.56084 0.0
Fe352 Fe 0.52575 0.98623 0.05017 0.0
O353 O 0.5228 0.02366 0.04439 0.0
Fe354 Fe 0.48697 0.03551 0.0265 0.0
Fe355 Fe 0.54761 0.04917 0.02531 0.0
O356 O 0.5203 0.02278 0.04443 0.0
O357 O 0.5115 0.06071 1.00618 0.0
O358 O 0.51447 0.06167 1.00601 0.0
Fe359 Fe 0.5109 0.09928 1.00369 0.0
C360 C 0.57839 0.01926 0.07188 0.0
O361 O 0.55064 0.98689 0.02155 0.0
O362 O 0.54643 0.0232 0.99513 0.0
O363 O 0.47563 0.08732 0.97839 0.0
O364 O 0.45532 0.05391 1.00436 0.0
O365 O 0.48176 1.00891 0.996 0.0
O366 O 0.49413 0.97332 0.02025 0.0
O367 O 0.56956 0.07816 1.00158 0.0
O368 O 0.5378 0.1007 0.97629 0.0
C369 C 0.48191 0.98417 0.99895 0.0
O370 O 0.488 0.09876 0.03449 0.0
O371 O 0.49168 0.06066 0.05732 0.0
O372 O 0.55889 1.0017 0.07708 0.0
O373 O 0.57901 0.03322 0.04922 0.0
C374 C 0.55239 1.0 0.99911 0.0
C375 C 0.56187 0.09478 0.98173 0.0
C376 C 0.55398 0.09915 0.05395 0.0
O377 O 0.55061 0.07439 0.05659 0.0
O378 O 0.54439 0.11077 0.03202 0.0
C379 C 0.45504 0.07183 0.98448 0.0
O380 O 0.46536 1.00697 0.05155 0.0
O381 O 0.49768 0.98476 0.07619 0.0
C382 C 0.48748 0.08429 0.05621 0.0
C383 C 0.4735 0.99022 0.07113 0.0
Fe384 Fe 1.00331 0.58239 0.07793 0.0
O385 O 0.98122 0.5462 0.07135 0.0
Fe386 Fe 0.06612 0.54386 0.09225 0.0
Fe387 Fe 0.94175 0.53999 0.06119 0.0
O388 O 0.02693 0.55064 0.07571 0.0
O389 O 0.0276 0.53931 0.09001 0.0
O390 O 0.98073 0.54139 0.06293 0.0
Fe391 Fe 1.00256 0.51003 0.07313 0.0
C392 C 0.95034 0.59175 0.09748 0.0
O393 O 0.98467 0.59135 0.0373 0.0
O394 O 0.94297 0.56902 0.03032 0.0
O395 O 0.02333 0.51256 0.03882 0.0
O396 O 0.06598 0.52187 0.05868 0.0
O397 O 0.07593 0.57864 0.07097 0.0
O398 O 0.03403 0.57449 0.05958 0.0
O399 O 0.94191 0.51022 0.034 0.0
O400 O 0.9731 0.48377 0.05109 0.0
C401 C 0.05611 0.58905 0.05998 0.0
O402 O 0.02823 0.48124 0.09031 0.0
O403 O 0.05978 0.50884 0.11504 0.0
O404 O 0.97386 0.60012 0.09258 0.0
O405 O 0.93852 0.56914 0.0893 0.0
C406 C 0.9609 0.58706 0.02355 0.0
C407 C 0.95241 0.48887 0.03408 0.0
C408 C 0.95835 0.50052 0.10831 0.0
O409 O 0.94129 0.51175 0.09175 0.0
O410 O 0.98317 0.50326 0.10687 0.0
C411 C 0.04847 0.51209 0.0392 0.0
O412 O 0.0644 0.56613 0.12441 0.0
O413 O 0.02281 0.57887 0.11907 0.0
C414 C 0.05001 0.48545 0.10797 0.0
C415 C 0.04645 0.57739 0.13239 0.0
Fe416 Fe 0.52253 0.5498 0.96665 0.0
O417 O 0.53095 0.54908 1.00713 0.0
Fe418 Fe 0.49999 0.52847 0.02863 0.0
Fe419 Fe 0.56329 0.53524 0.02831 0.0
O420 O 0.52727 0.54803 1.00702 0.0
O421 O 0.53212 0.51399 0.0492 0.0
O422 O 0.53585 0.51511 0.04934 0.0
Fe423 Fe 0.53993 0.51258 0.08961 0.0
C424 C 0.5557 0.50444 0.97744 0.0
O425 O 0.55607 0.57819 0.96953 0.0
O426 O 0.58728 0.55998 1.00086 0.0
O427 O 0.51318 0.53744 0.0941 0.0
O428 O 0.50618 0.55949 0.05422 0.0
O429 O 0.47073 0.549 1.0024 0.0
O430 O 0.49435 0.57315 0.97122 0.0
O431 O 0.56992 0.56625 0.05415 0.0
O432 O 0.56973 0.5443 0.09438 0.0
C433 C 0.47336 0.56731 0.98281 0.0
O434 O 0.50724 0.48353 0.08534 0.0
O435 O 0.47601 0.50377 0.05622 0.0
O436 O 0.54752 0.52325 0.96217 0.0
O437 O 0.55846 0.50429 1.00333 0.0
C438 C 0.58059 0.57658 0.98019 0.0
C439 C 0.57552 0.56516 0.08018 0.0
C440 C 0.59013 0.49626 0.07364 0.0
O441 O 0.5929 0.51532 0.05485 0.0
O442 O 0.56913 0.49013 0.08513 0.0
C443 C 0.50634 0.5574 0.07989 0.0
O444 O 0.49193 0.49731 1.00271 0.0
O445 O 0.49152 0.51927 0.96259 0.0
C446 C 0.48266 0.48598 0.0757 0.0
C447 C 0.48511 0.49865 0.97681 0.0
Fe448 Fe 0.04191 0.48392 0.54082 0.0
O449 O 0.02972 0.51479 0.55482 0.0
Fe450 Fe 0.06274 0.50901 0.47972 0.0
Fe451 Fe 0.03198 0.51977 0.59443 0.0
O452 O 0.06185 0.51167 0.51874 0.0
O453 O 0.06353 0.51493 0.51881 0.0
O454 O 0.0314 0.51783 0.55492 0.0
Fe455 Fe 0.0498 0.54558 0.53146 0.0
C456 C 1.00198 0.4648 0.58336 0.0
O457 O 0.07468 0.48688 0.57031 0.0
O458 O 0.05762 0.4919 0.60742 0.0
O459 O 0.07166 0.57094 0.5038 0.0
O460 O 0.09139 0.54221 0.48285 0.0
O461 O 0.08596 0.48041 0.49514 0.0
O462 O 0.05962 0.45585 0.5237 0.0
O463 O 0.06401 0.54899 0.59896 0.0
O464 O 0.0827 0.55275 0.5612 0.0
C465 C 0.07929 0.45941 0.50978 0.0
O466 O 1.01709 0.53985 0.5019 0.0
O467 O 0.03579 0.53463 0.46562 0.0
O468 O 0.01826 0.45885 0.56752 0.0
O469 O 1.00179 0.48845 0.59079 0.0
C470 C 0.07534 0.48423 0.5959 0.0
C471 C 0.0832 0.55743 0.58622 0.0
C472 C 1.01362 0.56986 0.56492 0.0
O473 O 1.00932 0.54932 0.58095 0.0
O474 O 0.03111 0.57341 0.54828 0.0
C475 C 0.08875 0.56593 0.48849 0.0
O476 O 0.0319 0.47846 0.4752 0.0
O477 O 1.00936 0.47903 0.5097 0.0
C478 C 1.01622 0.53927 0.47621 0.0
C479 C 1.01079 0.47244 0.48561 0.0
Fe480 Fe 0.5787 0.97803 0.49632 0.0
O481 O 0.58162 0.01666 0.50086 0.0
Fe482 Fe 0.56418 0.03744 0.46413 0.0
Fe483 Fe 0.56523 0.03147 0.53009 0.0
O484 O 0.58053 0.01633 0.49647 0.0
O485 O 0.54938 0.05307 0.49405 0.0
O486 O 0.55051 0.05357 0.49796 0.0
Fe487 Fe 0.55073 0.0913 0.49851 0.0
C488 C 0.52922 0.98082 0.51977 0.0
O489 O 0.60447 0.98077 0.53291 0.0
O490 O 0.58393 1.00395 0.55955 0.0
O491 O 0.57892 0.10048 0.47323 0.0
O492 O 0.59757 0.06449 0.47127 0.0
O493 O 0.58497 0.01508 0.43807 0.0
O494 O 0.60571 0.98701 0.46972 0.0
O495 O 0.59862 0.05876 0.54158 0.0
O496 O 0.58034 0.09555 0.53235 0.0
C497 C 0.60172 0.99731 0.44509 0.0
O498 O 0.5232 0.08791 0.4633 0.0
O499 O 0.54184 0.0644 0.43501 0.0
O500 O 0.5489 0.96872 0.51963 0.0
O501 O 0.53172 1.00552 0.52058 0.0
C502 C 0.60083 0.98783 0.55654 0.0
C503 C 0.59854 0.0831 0.54518 0.0
C504 C 0.52711 0.06809 0.54932 0.0
O505 O 0.54379 0.05073 0.55566 0.0
O506 O 0.52445 0.08144 0.52621 0.0
C507 C 0.59921 0.0891 0.47352 0.0
O508 O 0.53065 1.0103 0.45773 0.0
O509 O 0.55035 0.97447 0.46153 0.0
C510 C 0.5251 0.08064 0.43925 0.0
C511 C 0.53015 0.98611 0.45395 0.0
H512 H 0.26028 0.23168 0.35337 0.0
H513 H 0.23676 0.2028 0.38555 0.0
H514 H 0.16852 0.18959 0.32286 0.0
H515 H 0.19189 0.21826 0.29092 0.0
H516 H 0.19547 0.20128 0.41001 0.0
H517 H 0.13073 0.13022 0.33202 0.0
H518 H 0.13287 0.11165 0.28793 0.0
H519 H 0.21777 0.12386 0.30513 0.0
H520 H 0.21613 0.14217 0.34945 0.0
H521 H 0.0891 0.13118 0.47064 0.0
H522 H 0.1176 0.15634 0.44136 0.0
H523 H 0.15406 0.08803 0.43312 0.0
H524 H 0.12504 0.06226 0.46307 0.0
H525 H 0.14732 0.11422 0.38321 0.0
H526 H 0.18941 0.14261 0.47105 0.0
H527 H 0.19376 0.1593 0.5172 0.0
H528 H 0.16162 0.22864 0.48339 0.0
H529 H 0.15732 0.2124 0.43687 0.0
C530 C 0.24025 0.2227 0.34634 0.0
C531 C 0.22837 0.22768 0.31904 0.0
C532 C 0.22659 0.20598 0.36498 0.0
C533 C 0.2005 0.19304 0.35719 0.0
C534 C 0.1886 0.19837 0.32998 0.0
C535 C 0.20213 0.21519 0.31148 0.0
C536 C 0.18575 0.17446 0.37723 0.0
C537 C 0.18491 0.18236 0.4038 0.0
C538 C 0.1721 0.14902 0.3704 0.0
C539 C 0.17328 0.13781 0.34392 0.0
C540 C 0.14985 0.12885 0.32643 0.0
C541 C 0.15097 0.11838 0.30139 0.0
C542 C 0.17544 0.11665 0.29369 0.0
C543 C 0.19883 0.1253 0.31106 0.0
C544 C 0.19781 0.13576 0.33613 0.0
C545 C 0.1032 0.12115 0.46293 0.0
C546 C 0.10424 0.09417 0.46986 0.0
C547 C 0.11989 0.13594 0.44597 0.0
C548 C 0.13874 0.12477 0.43454 0.0
C549 C 0.14001 0.09773 0.4413 0.0
C550 C 0.12337 0.08282 0.45882 0.0
C551 C 0.15632 0.1415 0.41559 0.0
C552 C 0.15771 0.13325 0.38927 0.0
C553 C 0.1708 0.16649 0.42273 0.0
C554 C 0.17279 0.17616 0.45056 0.0
C555 C 0.18307 0.16131 0.47348 0.0
C556 C 0.18558 0.17073 0.49971 0.0
C557 C 0.17778 0.19493 0.5033 0.0
C558 C 0.16759 0.20986 0.4806 0.0
C559 C 0.16521 0.20061 0.45428 0.0
H560 H 0.17972 0.20217 0.52365 0.0
H561 H 0.17626 0.10856 0.27429 0.0
H562 H 0.85327 0.22777 0.31358 0.0
H563 H 0.87775 0.19688 0.34305 0.0
H564 H 0.81677 0.18441 0.39374 0.0
H565 H 0.79199 0.21553 0.36414 0.0
H566 H 0.86599 0.18669 0.42589 0.0
H567 H 0.8219 0.13829 0.34857 0.0
H568 H 0.80813 0.12947 0.29964 0.0
H569 H 0.88935 0.13173 0.28983 0.0
H570 H 0.90365 0.14093 0.33865 0.0
H571 H 0.92657 0.07859 0.49803 0.0
H572 H 0.89369 0.1043 0.4714 0.0
H573 H 0.94185 0.11889 0.40764 0.0
H574 H 0.9739 0.09297 0.43352 0.0
H575 H 0.89421 0.11305 0.38363 0.0
H576 H 0.93871 0.16415 0.45991 0.0
H577 H 0.95305 0.17276 0.50882 0.0
H578 H 0.87204 0.16611 0.52071 0.0
H579 H 0.85713 0.15675 0.47198 0.0
C580 C 0.84488 0.21857 0.33095 0.0
C581 C 0.82029 0.22433 0.33604 0.0
C582 C 0.85902 0.20065 0.34791 0.0
C583 C 0.84925 0.18768 0.37077 0.0
C584 C 0.82499 0.19384 0.37636 0.0
C585 C 0.81067 0.21169 0.35921 0.0
C586 C 0.86421 0.16753 0.38819 0.0
C587 C 0.87176 0.17037 0.41663 0.0
C588 C 0.87236 0.14615 0.37656 0.0
C589 C 0.86385 0.14052 0.34722 0.0
C590 C 0.83684 0.13709 0.33594 0.0
C591 C 0.82894 0.13199 0.30823 0.0
C592 C 0.84786 0.1301 0.29162 0.0
C593 C 0.87472 0.13323 0.30271 0.0
C594 C 0.88273 0.13836 0.33041 0.0
C595 C 0.92981 0.0867 0.47804 0.0
C596 C 0.95313 0.08339 0.46813 0.0
C597 C 0.9111 0.10189 0.46287 0.0
C598 C 0.91515 0.11435 0.43735 0.0
C599 C 0.93783 0.10989 0.42707 0.0
C600 C 0.95636 0.09487 0.44209 0.0
C601 C 0.89663 0.13245 0.42133 0.0
C602 C 0.88836 0.12924 0.39304 0.0
C603 C 0.88797 0.1535 0.43314 0.0
C604 C 0.89681 0.15941 0.46236 0.0
C605 C 0.92393 0.16429 0.473 0.0
C606 C 0.93216 0.16928 0.50069 0.0
C607 C 0.91344 0.16982 0.51789 0.0
C608 C 0.88647 0.16549 0.50739 0.0
C609 C 0.87812 0.16033 0.47973 0.0
H610 H 0.91984 0.17369 0.53933 0.0
H611 H 0.8417 0.12615 0.27017 0.0
H612 H 0.86255 0.86104 0.28193 0.0
H613 H 0.8924 0.88713 0.3166 0.0
H614 H 0.84905 0.84947 0.37877 0.0
H615 H 0.81823 0.82442 0.34372 0.0
H616 H 0.85799 0.89704 0.38838 0.0
H617 H 0.91497 0.83817 0.36798 0.0
H618 H 0.93944 0.81529 0.34038 0.0
H619 H 0.98091 0.8889 0.31613 0.0
H620 H 0.9563 0.91226 0.34311 0.0
H621 H 0.95533 0.93345 0.50389 0.0
H622 H 0.92808 0.90833 0.46669 0.0
H623 H 0.95544 0.9663 0.40783 0.0
H624 H 0.98245 0.99201 0.44518 0.0
H625 H 0.95576 0.91057 0.39593 0.0
H626 H 0.89791 0.96844 0.41796 0.0
H627 H 0.8755 0.98952 0.44908 0.0
H628 H 0.83757 0.91434 0.47375 0.0
H629 H 0.86009 0.89276 0.44308 0.0
C630 C 0.85953 0.85814 0.30304 0.0
C631 C 0.83802 0.84061 0.31008 0.0
C632 C 0.87678 0.873 0.32298 0.0
C633 C 0.87345 0.87019 0.35064 0.0
C634 C 0.85221 0.8522 0.3577 0.0
C635 C 0.83462 0.83774 0.33766 0.0
C636 C 0.89113 0.88684 0.37196 0.0
C637 C 0.87938 0.89954 0.39013 0.0
C638 C 0.91918 0.891 0.37413 0.0
C639 C 0.9335 0.877 0.35729 0.0
C640 C 0.92905 0.84951 0.35648 0.0
C641 C 0.943 0.83644 0.34099 0.0
C642 C 0.96164 0.85063 0.32642 0.0
C643 C 0.9664 0.87793 0.32733 0.0
C644 C 0.95244 0.89109 0.34271 0.0
C645 C 0.95556 0.94093 0.48304 0.0
C646 C 0.9709 0.96487 0.47752 0.0
C647 C 0.93994 0.92653 0.4618 0.0
C648 C 0.9396 0.93548 0.43448 0.0
C649 C 0.95534 0.95908 0.42877 0.0
C650 C 0.97061 0.97382 0.45012 0.0
C651 C 0.92248 0.92016 0.41212 0.0
C652 C 0.93435 0.90787 0.39389 0.0
C653 C 0.89461 0.91602 0.4101 0.0
C654 C 0.88089 0.92896 0.42842 0.0
C655 C 0.88498 0.95638 0.4302 0.0
C656 C 0.87222 0.96842 0.44773 0.0
C657 C 0.85517 0.95327 0.46344 0.0
C658 C 0.8508 0.92605 0.4616 0.0
C659 C 0.86354 0.9139 0.44413 0.0
H660 H 0.84531 0.96264 0.47699 0.0
H661 H 0.97246 0.84047 0.31449 0.0
H662 H 0.16962 0.87041 0.38141 0.0
H663 H 0.13616 0.88497 0.40371 0.0
H664 H 0.0779 0.86877 0.3316 0.0
H665 H 0.11208 0.85508 0.30863 0.0
H666 H 0.07139 0.91242 0.34939 0.0
H667 H 0.0753 0.82973 0.39168 0.0
H668 H 0.09472 0.79127 0.41353 0.0
H669 H 0.13311 0.83681 0.48205 0.0
H670 H 0.1143 0.87568 0.46046 0.0
H671 H 0.0256 0.93423 0.49089 0.0
H672 H 0.0276 0.90571 0.45412 0.0
H673 H 0.07531 0.96852 0.41615 0.0
H674 H 0.07264 0.99741 0.45264 0.0
H675 H 0.06948 0.88919 0.44757 0.0
H676 H 0.07263 0.96119 0.35026 0.0
H677 H 0.04607 0.9943 0.32662 0.0
H678 H 0.97989 0.96033 0.36494 0.0
H679 H 1.00586 0.92683 0.38851 0.0
C680 C 0.14959 0.86952 0.37046 0.0
C681 C 0.1433 0.86133 0.34347 0.0
C682 C 0.1304 0.87776 0.38324 0.0
C683 C 0.10427 0.87734 0.36961 0.0
C684 C 0.09786 0.86906 0.34259 0.0
C685 C 0.1173 0.86121 0.32954 0.0
C686 C 0.08451 0.88705 0.38357 0.0
C687 C 0.07066 0.90715 0.37076 0.0
C688 C 0.08215 0.87909 0.41096 0.0
C689 C 0.09334 0.85568 0.42438 0.0
C690 C 0.08796 0.83159 0.41136 0.0
C691 C 0.09888 0.80971 0.42371 0.0
C692 C 0.11513 0.81159 0.44916 0.0
C693 C 0.12047 0.83536 0.46235 0.0
C694 C 0.10963 0.85733 0.45009 0.0
C695 C 0.03617 0.94207 0.47443 0.0
C696 C 0.04956 0.9678 0.47487 0.0
C697 C 0.03714 0.92579 0.45336 0.0
C698 C 0.05173 0.93484 0.43246 0.0
C699 C 0.06362 0.96114 0.43187 0.0
C700 C 0.06233 0.97761 0.45283 0.0
C701 C 0.05827 0.91602 0.41405 0.0
C702 C 0.06951 0.89405 0.42601 0.0
C703 C 0.05698 0.92139 0.38563 0.0
C704 C 0.04131 0.94155 0.3713 0.0
C705 C 0.05237 0.96067 0.35354 0.0
C706 C 0.03742 0.97955 0.34017 0.0
C707 C 1.01134 0.97946 0.34432 0.0
C708 C 1.00012 0.96046 0.36182 0.0
C709 C 1.01498 0.94156 0.37523 0.0
H710 H 0.99981 0.99409 0.33395 0.0
H711 H 0.12358 0.79463 0.45867 0.0
H712 H 0.27261 0.84944 0.69394 0.0
H713 H 0.24744 0.87968 0.66378 0.0
H714 H 0.18487 0.86469 0.71263 0.0
H715 H 0.20921 0.83349 0.74157 0.0
H716 H 0.1617 0.86747 0.66556 0.0
H717 H 0.23524 0.92589 0.71053 0.0
H718 H 0.28234 0.94277 0.72471 0.0
H719 H 0.29289 0.95406 0.64058 0.0
H720 H 0.24589 0.93699 0.62591 0.0
H721 H 0.09165 0.97342 0.62521 0.0
H722 H 0.12344 0.94699 0.65087 0.0
H723 H 0.16763 0.95513 0.58385 0.0
H724 H 0.13547 0.98207 0.55773 0.0
H725 H 0.20128 0.95551 0.63549 0.0
H726 H 0.12523 0.89975 0.59191 0.0
H727 H 0.07744 0.88482 0.57978 0.0
H728 H 0.07129 0.87013 0.66473 0.0
H729 H 0.11899 0.88531 0.6774 0.0
C730 C 0.2535 0.85262 0.69829 0.0
C731 C 0.24312 0.83879 0.7204 0.0
C732 C 0.23905 0.87024 0.68103 0.0
C733 C 0.21402 0.87529 0.68574 0.0
C734 C 0.20387 0.86149 0.708 0.0
C735 C 0.218 0.84353 0.72479 0.0
C736 C 0.19796 0.89423 0.66757 0.0
C737 C 0.17056 0.8868 0.65945 0.0
C738 C 0.20898 0.9195 0.65839 0.0
C739 C 0.23714 0.92991 0.66714 0.0
C740 C 0.24765 0.93184 0.69507 0.0
C741 C 0.27431 0.94146 0.70319 0.0
C742 C 0.29061 0.94941 0.68356 0.0
C743 C 0.28025 0.94785 0.65576 0.0
C744 C 0.2536 0.93823 0.64753 0.0
C745 C 0.10834 0.97009 0.6159 0.0
C746 C 0.11069 0.98005 0.58913 0.0
C747 C 0.12657 0.95469 0.6307 0.0
C748 C 0.14789 0.94829 0.61935 0.0
C749 C 0.15138 0.95949 0.59325 0.0
C750 C 0.133 0.97512 0.5783 0.0
C751 C 0.16519 0.92882 0.63435 0.0
C752 C 0.19266 0.93611 0.6417 0.0
C753 C 0.15424 0.90352 0.64322 0.0
C754 C 0.12566 0.89384 0.6356 0.0
C755 C 0.11366 0.89345 0.60801 0.0
C756 C 0.08659 0.88494 0.60104 0.0
C757 C 0.07132 0.87659 0.62148 0.0
C758 C 0.08313 0.87662 0.64893 0.0
C759 C 0.11019 0.88514 0.65601 0.0
H760 H 0.05036 0.87005 0.61605 0.0
H761 H 0.31125 0.95684 0.68989 0.0
H762 H 0.18164 0.24745 0.74926 0.0
H763 H 0.15557 0.2184 0.71448 0.0
H764 H 0.2219 0.1757 0.71725 0.0
H765 H 0.24819 0.20553 0.75137 0.0
H766 H 0.20055 0.17935 0.66724 0.0
H767 H 0.16347 0.14992 0.74766 0.0
H768 H 0.14397 0.15405 0.78906 0.0
H769 H 0.0792 0.18715 0.74035 0.0
H770 H 0.09866 0.18374 0.6988 0.0
H771 H 0.11858 0.06991 0.59699 0.0
H772 H 0.1454 0.09531 0.63467 0.0
H773 H 0.09492 0.15573 0.61719 0.0
H774 H 0.06854 0.13088 0.57919 0.0
H775 H 0.10918 0.1394 0.67639 0.0
H776 H 0.14838 0.16676 0.59486 0.0
H777 H 0.168 0.15766 0.55516 0.0
H778 H 0.23043 0.12502 0.60845 0.0
H779 H 0.21065 0.13326 0.64853 0.0
C780 C 0.19059 0.23187 0.74235 0.0
C781 C 0.21692 0.22876 0.7529 0.0
C782 C 0.17562 0.21505 0.7226 0.0
C783 C 0.18639 0.19427 0.71337 0.0
C784 C 0.21292 0.19141 0.72385 0.0
C785 C 0.228 0.20848 0.74337 0.0
C786 C 0.17013 0.17585 0.69266 0.0
C787 C 0.18067 0.1705 0.66952 0.0
C788 C 0.14403 0.16407 0.69517 0.0
C789 C 0.13245 0.16648 0.72013 0.0
C790 C 0.14513 0.15818 0.74582 0.0
C791 C 0.13411 0.16043 0.76932 0.0
C792 C 0.11034 0.17083 0.76734 0.0
C793 C 0.09757 0.17905 0.74186 0.0
C794 C 0.10856 0.1769 0.71832 0.0
C795 C 0.11311 0.08854 0.60127 0.0
C796 C 0.09149 0.09841 0.58486 0.0
C797 C 0.12848 0.10306 0.62282 0.0
C798 C 0.12225 0.12751 0.62885 0.0
C799 C 0.10015 0.13695 0.61307 0.0
C800 C 0.08516 0.12276 0.59119 0.0
C801 C 0.13928 0.14384 0.65074 0.0
C802 C 0.12894 0.14857 0.67413 0.0
C803 C 0.16565 0.15474 0.64866 0.0
C804 C 0.17785 0.15033 0.62465 0.0
C805 C 0.16615 0.15742 0.5981 0.0
C806 C 0.17734 0.15245 0.57552 0.0
C807 C 0.20048 0.14074 0.57924 0.0
C808 C 0.21249 0.13404 0.60559 0.0
C809 C 0.20127 0.13883 0.62825 0.0
H810 H 0.20913 0.13686 0.56175 0.0
H811 H 0.10183 0.17254 0.78555 0.0
H812 H 0.8756 0.20518 0.6921 0.0
H813 H 0.89635 0.18461 0.65976 0.0
H814 H 0.92996 0.13435 0.72486 0.0
H815 H 0.90846 0.15404 0.75726 0.0
H816 H 0.96603 0.16075 0.68987 0.0
H817 H 0.87986 0.10867 0.68499 0.0
H818 H 0.8311 0.10162 0.67847 0.0
H819 H 0.82796 0.13584 0.59716 0.0
H820 H 0.87674 0.14353 0.60332 0.0
H821 H 1.00528 0.06673 0.61185 0.0
H822 H 0.98273 0.08602 0.64387 0.0
H823 H 0.94939 0.1364 0.57865 0.0
H824 H 0.97217 0.11769 0.54673 0.0
H825 H 0.91271 0.10988 0.61311 0.0
H826 H 0.99455 0.16502 0.61589 0.0
H827 H 0.04292 0.1746 0.61845 0.0
H828 H 0.05375 0.13945 0.69949 0.0
H829 H 1.00529 0.1291 0.69717 0.0
C830 C 0.88713 0.18952 0.6995 0.0
C831 C 0.89028 0.1811 0.7272 0.0
C832 C 0.89904 0.17795 0.68105 0.0
C833 C 0.91442 0.15795 0.69006 0.0
C834 C 0.91811 0.14983 0.7177 0.0
C835 C 0.90596 0.16119 0.73614 0.0
C836 C 0.92675 0.14557 0.67055 0.0
C837 C 0.95443 0.14925 0.67336 0.0
C838 C 0.91137 0.13152 0.64849 0.0
C839 C 0.882 0.12696 0.64476 0.0
C840 C 0.8688 0.11497 0.66582 0.0
C841 C 0.84114 0.1108 0.66216 0.0
C842 C 0.82645 0.11835 0.63744 0.0
C843 C 0.83938 0.13005 0.6163 0.0
C844 C 0.86703 0.13431 0.61987 0.0
C845 C 0.99316 0.08193 0.60445 0.0
C846 C 0.99064 0.09097 0.57703 0.0
C847 C 0.98032 0.09284 0.62263 0.0
C848 C 0.96452 0.11251 0.61341 0.0
C849 C 0.96151 0.12117 0.58595 0.0
C850 C 0.97472 0.11066 0.5679 0.0
C851 C 0.9519 0.12476 0.63274 0.0
C852 C 0.92424 0.1212 0.62979 0.0
C853 C 0.9672 0.13943 0.65429 0.0
C854 C 0.99632 0.14597 0.65621 0.0
C855 C 1.00723 0.15908 0.63416 0.0
C856 C 0.03463 0.16468 0.63557 0.0
C857 C 0.05134 0.15755 0.65906 0.0
C858 C 0.04072 0.14488 0.68127 0.0
C859 C 1.01327 0.13914 0.67993 0.0
H860 H 0.0725 0.16197 0.65998 0.0
H861 H 0.80504 0.11508 0.63463 0.0
H862 H 0.83707 0.87816 0.76051 0.0
H863 H 0.86007 0.90334 0.7263 0.0
H864 H 0.86431 0.83215 0.68749 0.0
H865 H 0.84039 0.80653 0.72196 0.0
H866 H 0.91299 0.86611 0.69062 0.0
H867 H 0.82289 0.87594 0.65772 0.0
H868 H 0.77817 0.88634 0.6595 0.0
H869 H 0.81036 0.96561 0.67876 0.0
H870 H 0.85537 0.95559 0.67764 0.0
H871 H 0.96691 0.93234 0.57811 0.0
H872 H 0.93895 0.90556 0.60705 0.0
H873 H 0.91821 0.97535 0.63646 0.0
H874 H 0.94566 1.00243 0.60606 0.0
H875 H 0.877 0.94109 0.6376 0.0
H876 H 0.96677 0.93131 0.67401 0.0
H877 H 1.01199 0.92176 0.67317 0.0
H878 H 0.9811 0.84343 0.64907 0.0
H879 H 0.93566 0.85261 0.64945 0.0
C880 C 0.84261 0.86753 0.74469 0.0
C881 C 0.83633 0.83986 0.74452 0.0
C882 C 0.85593 0.88227 0.72476 0.0
C883 C 0.86428 0.87028 0.7035 0.0
C884 C 0.85835 0.84248 0.70327 0.0
C885 C 0.84438 0.82762 0.7231 0.0
C886 C 0.8793 0.88693 0.68231 0.0
C887 C 0.90473 0.88217 0.67876 0.0
C888 C 0.86964 0.90887 0.66692 0.0
C889 C 0.8426 0.91492 0.66788 0.0
C890 C 0.8205 0.89553 0.66263 0.0
C891 C 0.79507 0.90136 0.66347 0.0
C892 C 0.79144 0.9266 0.6693 0.0
C893 C 0.81322 0.94606 0.67429 0.0
C894 C 0.8387 0.94031 0.67356 0.0
C895 C 0.95617 0.94223 0.59038 0.0
C896 C 0.95884 0.96997 0.58906 0.0
C897 C 0.94022 0.92663 0.6076 0.0
C898 C 0.92652 0.93772 0.62545 0.0
C899 C 0.92836 0.96556 0.62352 0.0
C900 C 0.94413 0.98131 0.60578 0.0
C901 C 0.91083 0.92033 0.64583 0.0
C902 C 0.8853 0.92501 0.64936 0.0
C903 C 0.92049 0.89844 0.66145 0.0
C904 C 0.94779 0.89274 0.6615 0.0
C905 C 0.96961 0.91209 0.6684 0.0
C906 C 0.99528 0.90674 0.66801 0.0
C907 C 0.99941 0.88203 0.66099 0.0
C908 C 0.97787 0.86257 0.65446 0.0
C909 C 0.95216 0.86783 0.65479 0.0
H910 H 0.01929 0.87793 0.66066 0.0
H911 H 0.77175 0.93109 0.66991 0.0
H912 H 0.31671 0.14063 0.16312 0.0
H913 H 0.35172 0.11946 0.15013 0.0
H914 H 0.40255 0.14222 0.22536 0.0
H915 H 0.36737 0.16335 0.23863 0.0
H916 H 0.42558 0.15899 0.18254 0.0
H917 H 0.38431 0.0779 0.21336 0.0
H918 H 0.34825 0.04248 0.21989 0.0
H919 H 0.33264 0.03044 0.13355 0.0
H920 H 0.3683 0.06608 0.1264 0.0
H921 H 0.48987 0.06059 0.10693 0.0
H922 H 0.46995 0.07218 0.14484 0.0
H923 H 0.44638 0.14087 0.09878 0.0
H924 H 0.46626 0.12939 0.06046 0.0
H925 H 0.41795 0.07309 0.14026 0.0
H926 H 0.44277 0.18743 0.14398 0.0
H927 H 0.48116 0.22152 0.14234 0.0
H928 H 0.53393 0.16427 0.16654 0.0
H929 H 0.49591 0.12989 0.16873 0.0
C930 C 0.33498 0.14034 0.17734 0.0
C931 C 0.33945 0.15387 0.20172 0.0
C932 C 0.35501 0.12824 0.1699 0.0
C933 C 0.37973 0.12931 0.1868 0.0
C934 C 0.38363 0.14129 0.21202 0.0
C935 C 0.36359 0.15338 0.2195 0.0
C936 C 0.40223 0.12112 0.17622 0.0
C937 C 0.42412 0.14009 0.17356 0.0
C938 C 0.40061 0.09622 0.16525 0.0
C939 C 0.37897 0.07479 0.16934 0.0
C940 C 0.37306 0.06786 0.19572 0.0
C941 C 0.3527 0.0477 0.19954 0.0
C942 C 0.33815 0.03424 0.17715 0.0
C943 C 0.34394 0.04089 0.15089 0.0
C944 C 0.36426 0.06104 0.14694 0.0
C945 C 0.48079 0.07841 0.10491 0.0
C946 C 0.47915 0.09384 0.08043 0.0
C947 C 0.46952 0.08501 0.1267 0.0
C948 C 0.45666 0.10727 0.12455 0.0
C949 C 0.45647 0.12369 0.10089 0.0
C950 C 0.46771 0.11706 0.07896 0.0
C951 C 0.44047 0.11148 0.14532 0.0
C952 C 0.41974 0.09177 0.14977 0.0
C953 C 0.44343 0.13552 0.15835 0.0
C954 C 0.46641 0.15602 0.15638 0.0
C955 C 0.46255 0.1821 0.14902 0.0
C956 C 0.48426 0.20149 0.148 0.0
C957 C 0.50995 0.19507 0.15438 0.0
C958 C 0.51401 0.16921 0.16157 0.0
C959 C 0.49238 0.14974 0.16264 0.0
H960 H 0.52672 0.21016 0.1538 0.0
H961 H 0.3224 0.01863 0.18015 0.0
H962 H 0.78495 0.32772 0.12734 0.0
H963 H 0.80075 0.36437 0.0993 0.0
H964 H 0.85562 0.31892 0.07414 0.0
H965 H 0.84128 0.28292 0.10443 0.0
H966 H 0.87772 0.343 0.1184 0.0
H967 H 0.83112 0.37324 0.03421 0.0
H968 H 0.79263 0.38347 1.00096 0.0
H969 H 0.77623 0.4383 0.05543 0.0
H970 H 0.81453 0.4283 0.08912 0.0
H971 H 0.97392 0.45261 0.11263 0.0
H972 H 0.94256 0.41291 0.11151 0.0
H973 H 0.88445 0.45572 0.13488 0.0
H974 H 0.91564 0.49603 0.13459 0.0
H975 H 0.86517 0.43424 0.08885 0.0
H976 H 0.90725 0.40169 0.17414 0.0
H977 H 0.94384 0.39063 0.20955 0.0
H978 H 0.96537 0.33865 0.1553 0.0
H979 H 0.9291 0.34963 0.11943 0.0
C980 C 0.79893 0.32477 0.11416 0.0
C981 C 0.8137 0.30374 0.11969 0.0
C982 C 0.80808 0.34597 0.09788 0.0
C983 C 0.83123 0.34512 0.0868 0.0
C984 C 0.83875 0.3204 0.08403 0.0
C985 C 0.83044 0.2996 0.10134 0.0
C986 C 0.85254 0.36757 0.09235 0.0
C987 C 0.87516 0.36284 0.1111 0.0
C988 C 0.84867 0.39369 0.08457 0.0
C989 C 0.82569 0.39993 0.06427 0.0
C990 C 0.81925 0.38739 0.03918 0.0
C991 C 0.79748 0.39318 0.02022 0.0
C992 C 0.78197 0.4115 0.02609 0.0
C993 C 0.78827 0.42414 0.0509 0.0
C994 C 0.81007 0.41848 0.0699 0.0
C995 C 0.95507 0.45334 0.11917 0.0
C996 C 0.947 0.47743 0.12324 0.0
C997 C 0.93694 0.43056 0.11826 0.0
C998 C 0.91091 0.43143 0.12258 0.0
C999 C 0.90427 0.45474 0.13097 0.0
C1000 C 0.92226 0.47765 0.13136 0.0
C1001 C 0.89004 0.40928 0.11446 0.0
C1002 C 0.86752 0.41424 0.09572 0.0
C1003 C 0.89361 0.38322 0.12255 0.0
C1004 C 0.91559 0.37668 0.14401 0.0
C1005 C 0.91993 0.38807 0.16968 0.0
C1006 C 0.94057 0.38177 0.18985 0.0
C1007 C 0.95696 0.364 0.18465 0.0
C1008 C 0.95268 0.35244 0.15929 0.0
C1009 C 0.93205 0.35866 0.13904 0.0
H1010 H 0.97293 0.35915 0.2003 0.0
H1011 H 0.7651 0.41592 0.0114 0.0
H1012 H 0.76818 0.97492 0.22208 0.0
H1013 H 0.74978 0.01654 0.2184 0.0
H1014 H 0.67108 0.97408 0.2002 0.0
H1015 H 0.68902 0.93335 0.20343 0.0
H1016 H 0.72647 0.03929 0.17683 0.0
H1017 H 0.62678 0.99364 0.21747 0.0
H1018 H 0.61374 0.97939 0.26216 0.0
H1019 H 0.68645 0.02016 0.30315 0.0
H1020 H 0.69996 0.03477 0.2587 0.0
H1021 H 0.63054 0.01499 0.07537 0.0
H1022 H 0.66557 0.0268 0.11354 0.0
H1023 H 0.6094 0.05622 0.15544 0.0
H1024 H 0.574 0.04162 0.11822 0.0
H1025 H 0.63324 0.03409 0.19083 0.0
H1026 H 0.67296 0.09784 0.14242 0.0
H1027 H 0.68859 0.12716 0.10573 0.0
H1028 H 0.74057 0.07309 0.09239 0.0
H1029 H 0.72499 0.04326 0.12874 0.0
C1030 C 0.74693 0.97458 0.2176 0.0
C1031 C 0.73009 0.95072 0.21311 0.0
C1032 C 0.73645 0.99835 0.21584 0.0
C1033 C 0.70897 0.9986 0.20974 0.0
C1034 C 0.69227 0.97464 0.20605 0.0
C1035 C 0.70264 0.95113 0.20773 0.0
C1036 C 0.69726 0.02312 0.20177 0.0
C1037 C 0.70622 0.03872 0.18012 0.0
C1038 C 0.67207 0.02548 0.20805 0.0
C1039 C 0.66435 0.01544 0.23467 0.0
C1040 C 0.63996 0.99971 0.23597 0.0
C1041 C 0.63249 0.99153 0.26129 0.0
C1042 C 0.64914 0.99906 0.28547 0.0
C1043 C 0.67348 0.01451 0.28439 0.0
C1044 C 0.68113 0.02259 0.25914 0.0
C1045 C 0.62585 0.02388 0.09286 0.0
C1046 C 0.59972 0.02676 0.09445 0.0
C1047 C 0.64598 0.03136 0.11448 0.0
C1048 C 0.64052 0.04291 0.13763 0.0
C1049 C 0.61437 0.04717 0.13822 0.0
C1050 C 0.59411 0.03873 0.11703 0.0
C1051 C 0.66098 0.04554 0.16269 0.0
C1052 C 0.65368 0.03583 0.18781 0.0
C1053 C 0.68826 0.05091 0.16083 0.0
C1054 C 0.69776 0.0683 0.13847 0.0
C1055 C 0.68758 0.0921 0.13156 0.0
C1056 C 0.69648 0.10885 0.11082 0.0
C1057 C 0.71558 0.102 0.09674 0.0
C1058 C 0.72582 0.0784 0.10339 0.0
C1059 C 0.71703 0.0616 0.12418 0.0
H1060 H 0.72244 0.11497 0.08066 0.0
H1061 H 0.64331 0.99272 0.30505 0.0
H1062 H 0.1966 0.77762 0.21177 0.0
H1063 H 0.16048 0.74283 0.19684 0.0
H1064 H 0.2055 0.68522 0.24116 0.0
H1065 H 0.24149 0.71997 0.25662 0.0
H1066 H 0.17896 0.67046 0.18782 0.0
H1067 H 0.16178 0.70226 0.27073 0.0
H1068 H 0.15662 0.73626 0.30144 0.0
H1069 H 0.09133 0.75901 0.24403 0.0
H1070 H 0.09639 0.72539 0.21273 0.0
H1071 H 0.08031 0.5663 0.1784 0.0
H1072 H 0.11053 0.5993 0.20543 0.0
H1073 H 0.06668 0.65963 0.1653 0.0
H1074 H 0.03601 0.62661 0.13862 0.0
H1075 H 0.09276 0.6725 0.21878 0.0
H1076 H 0.11265 0.64208 0.13466 0.0
H1077 H 0.11845 0.6077 0.10457 0.0
H1078 H 0.17963 0.58223 0.16543 0.0
H1079 H 0.17398 0.61618 0.19608 0.0
C1080 C 0.19902 0.7575 0.21789 0.0
C1081 C 0.22182 0.75145 0.23538 0.0
C1082 C 0.17831 0.73769 0.20952 0.0
C1083 C 0.18024 0.71156 0.21823 0.0
C1084 C 0.20363 0.7053 0.23434 0.0
C1085 C 0.22417 0.72513 0.24305 0.0
C1086 C 0.15749 0.69088 0.21136 0.0
C1087 C 0.16024 0.67072 0.19487 0.0
C1088 C 0.133 0.69146 0.22036 0.0
C1089 C 0.12965 0.71149 0.23924 0.0
C1090 C 0.14646 0.71466 0.26453 0.0
C1091 C 0.14354 0.73384 0.28207 0.0
C1092 C 0.1237 0.74984 0.27466 0.0
C1093 C 0.10671 0.74663 0.24972 0.0
C1094 C 0.10959 0.72749 0.23208 0.0
C1095 C 0.07627 0.58641 0.17642 0.0
C1096 C 0.05605 0.59395 0.15617 0.0
C1097 C 0.09368 0.60528 0.19172 0.0
C1098 C 0.09131 0.63196 0.18667 0.0
C1099 C 0.06896 0.63915 0.16931 0.0
C1100 C 0.05131 0.6202 0.1542 0.0
C1101 C 0.11427 0.65206 0.19525 0.0
C1102 C 0.11154 0.67219 0.21189 0.0
C1103 C 0.13889 0.65148 0.18645 0.0
C1104 C 0.14269 0.63147 0.16777 0.0
C1105 C 0.12722 0.62904 0.14169 0.0
C1106 C 0.13044 0.60963 0.12456 0.0
C1107 C 0.14926 0.59273 0.13315 0.0
C1108 C 0.165 0.59529 0.15884 0.0
C1109 C 0.16181 0.61461 0.1761 0.0
H1110 H 0.15173 0.57775 0.11982 0.0
H1111 H 0.12147 0.76469 0.28825 0.0
H1112 H 0.35172 0.82263 0.81561 0.0
H1113 H 0.38441 0.85273 0.84408 0.0
H1114 H 0.32148 0.8834 0.8737 0.0
H1115 H 0.28875 0.85412 0.84426 0.0
H1116 H 0.35839 0.92194 0.86809 0.0
H1117 H 0.35784 0.83568 0.91054 0.0
H1118 H 0.36092 0.78834 0.91253 0.0
H1119 H 0.44046 0.80444 0.89539 0.0
H1120 H 0.43772 0.85189 0.8929 0.0
H1121 H 0.45576 0.93525 1.00644 0.0
H1122 H 0.42623 0.90815 0.97243 0.0
H1123 H 0.44317 0.96633 0.9092 0.0
H1124 H 0.47138 0.99432 0.94363 0.0
H1125 H 0.42947 0.88383 0.93084 0.0
H1126 H 0.39284 0.96654 0.85839 0.0
H1127 H 0.39086 1.01387 0.86058 0.0
H1128 H 0.38133 1.00342 0.94501 0.0
H1129 H 0.38289 0.95599 0.94323 0.0
C1130 C 0.34488 0.83595 0.82804 0.0
C1131 C 0.31768 0.83585 0.82788 0.0
C1132 C 0.36359 0.8531 0.84444 0.0
C1133 C 0.35555 0.87008 0.8616 0.0
C1134 C 0.32831 0.87052 0.86078 0.0
C1135 C 0.30957 0.85367 0.84401 0.0
C1136 C 0.37542 0.8866 0.88113 0.0
C1137 C 0.37391 0.91355 0.88178 0.0
C1138 C 0.39563 0.87582 0.89937 0.0
C1139 C 0.39747 0.84732 0.90126 0.0
C1140 C 0.37594 0.82911 0.90704 0.0
C1141 C 0.37762 0.80226 0.90826 0.0
C1142 C 0.40084 0.79338 0.90401 0.0
C1143 C 0.42246 0.81135 0.89863 0.0
C1144 C 0.42086 0.83822 0.89732 0.0
C1145 C 0.45321 0.94226 0.98526 0.0
C1146 C 0.46566 0.96705 0.97775 0.0
C1147 C 0.43634 0.92668 0.96576 0.0
C1148 C 0.43188 0.93527 0.93815 0.0
C1149 C 0.44548 0.9595 0.93041 0.0
C1150 C 0.46176 0.97546 0.95008 0.0
C1151 C 0.41241 0.91913 0.91791 0.0
C1152 C 0.414 0.89224 0.9171 0.0
C1153 C 0.39183 0.92982 0.90012 0.0
C1154 C 0.38828 0.95779 0.90073 0.0
C1155 C 0.39 0.9743 0.87732 0.0
C1156 C 0.3891 1.00115 0.87854 0.0
C1157 C 0.38635 1.01166 0.90303 0.0
C1158 C 0.38374 0.99526 0.92615 0.0
C1159 C 0.38456 0.9684 0.92502 0.0
H1160 H 0.38611 0.03251 0.90405 0.0
H1161 H 0.40209 0.77259 0.90493 0.0
H1162 H 0.20389 0.39721 0.91654 0.0
H1163 H 0.17899 0.42281 0.9401 0.0
H1164 H 0.10611 0.37758 0.9046 0.0
H1165 H 0.13085 0.35247 0.88002 0.0
H1166 H 0.09634 0.42572 0.9055 0.0
H1167 H 0.13666 0.36979 0.97483 0.0
H1168 H 0.17261 0.34889 1.00273 0.0
H1169 H 0.21151 0.42411 0.0299 0.0
H1170 H 0.17595 0.44551 1.00185 0.0
H1171 H 0.02238 0.47428 1.00168 0.0
H1172 H 0.04258 0.44765 0.97336 0.0
H1173 H 0.11925 0.49037 1.00122 0.0
H1174 H 0.09949 0.51671 0.02906 0.0
H1175 H 0.12452 0.4408 1.00431 0.0
H1176 H 0.08326 0.49638 0.93326 0.0
H1177 H 0.04592 0.5159 0.90622 0.0
H1178 H 1.00699 0.43934 0.88361 0.0
H1179 H 0.04399 0.41934 0.9108 0.0
C1180 C 0.18254 0.39269 0.91329 0.0
C1181 C 0.16982 0.37228 0.896 0.0
C1182 C 0.16814 0.40734 0.92729 0.0
C1183 C 0.14028 0.40224 0.9249 0.0
C1184 C 0.12745 0.38222 0.90728 0.0
C1185 C 0.14185 0.36752 0.89327 0.0
C1186 C 0.1248 0.41758 0.94077 0.0
C1187 C 0.10244 0.42862 0.9272 0.0
C1188 C 0.13229 0.42202 0.96922 0.0
C1189 C 0.15378 0.40927 0.98601 0.0
C1190 C 0.15299 0.3819 0.98657 0.0
C1191 C 0.17328 0.36996 1.00245 0.0
C1192 C 0.19437 0.38517 0.01802 0.0
C1193 C 0.19519 0.41235 0.01779 0.0
C1194 C 0.17496 0.4244 1.00192 0.0
C1195 C 0.04345 0.47844 1.00132 0.0
C1196 C 0.059 0.49806 0.01792 0.0
C1197 C 0.05515 0.46299 0.98508 0.0
C1198 C 0.08282 0.46658 0.98483 0.0
C1199 C 0.09805 0.48663 1.00084 0.0
C1200 C 0.08648 0.50199 0.01683 0.0
C1201 C 0.09642 0.44938 0.96897 0.0
C1202 C 0.11842 0.4379 0.9826 0.0
C1203 C 0.08843 0.44438 0.9407 0.0
C1204 C 0.06625 0.45635 0.9243 0.0
C1205 C 0.06664 0.4837 0.92269 0.0
C1206 C 0.04556 0.49485 0.9073 0.0
C1207 C 0.02406 0.47887 0.89327 0.0
C1208 C 0.02364 0.45169 0.89453 0.0
C1209 C 0.04467 0.44044 0.9099 0.0
H1210 H 1.00775 0.48754 0.88138 0.0
H1211 H 0.21005 0.37589 0.0303 0.0
H1212 H 0.75605 0.20191 0.85072 0.0
H1213 H 0.72515 0.17617 0.87747 0.0
H1214 H 0.67379 0.23596 0.86191 0.0
H1215 H 0.70526 0.26228 0.83568 0.0
H1216 H 0.67211 0.2187 0.91146 0.0
H1217 H 0.66181 0.17318 0.82877 0.0
H1218 H 0.67578 0.15107 0.79203 0.0
H1219 H 0.7061 0.09361 0.85044 0.0
H1220 H 0.69264 0.1156 0.88761 0.0
H1221 H 0.55716 0.13891 0.94798 0.0
H1222 H 0.58949 0.16419 0.92257 0.0
H1223 H 0.64518 0.11037 0.95167 0.0
H1224 H 0.61279 0.08491 0.97764 0.0
H1225 H 0.64473 0.12405 0.89582 0.0
H1226 H 0.65285 0.17013 0.97832 0.0
H1227 H 0.63675 0.19225 0.01366 0.0
H1228 H 0.60795 0.24894 0.95337 0.0
H1229 H 0.62349 0.22689 0.91755 0.0
C1230 C 0.73823 0.20975 0.85291 0.0
C1231 C 0.73342 0.23439 0.84067 0.0
C1232 C 0.72025 0.19474 0.86821 0.0
C1233 C 0.69638 0.20345 0.87161 0.0
C1234 C 0.69177 0.22834 0.85981 0.0
C1235 C 0.7099 0.2435 0.84463 0.0
C1236 C 0.67654 0.18676 0.88742 0.0
C1237 C 0.66597 0.19811 0.90761 0.0
C1238 C 0.66839 0.15951 0.8833 0.0
C1239 C 0.67647 0.1462 0.86102 0.0
C1240 C 0.67163 0.15594 0.83381 0.0
C1241 C 0.67943 0.14342 0.8129 0.0
C1242 C 0.69189 0.12099 0.81891 0.0
C1243 C 0.6965 0.11101 0.84583 0.0
C1244 C 0.68877 0.12348 0.86682 0.0
C1245 C 0.5762 0.13218 0.94905 0.0
C1246 C 0.582 0.10955 0.96517 0.0
C1247 C 0.5949 0.14692 0.93446 0.0
C1248 C 0.62022 0.13963 0.93509 0.0
C1249 C 0.62597 0.11672 0.95065 0.0
C1250 C 0.60732 0.1021 0.96565 0.0
C1251 C 0.64043 0.15606 0.91971 0.0
C1252 C 0.65099 0.14465 0.89962 0.0
C1253 C 0.64832 0.18329 0.92368 0.0
C1254 C 0.63911 0.1967 0.9452 0.0
C1255 C 0.64289 0.18719 0.97255 0.0
C1256 C 0.63389 0.19973 0.99268 0.0
C1257 C 0.62128 0.22195 0.98575 0.0
C1258 C 0.61769 0.2317 0.95869 0.0
C1259 C 0.62661 0.2192 0.93847 0.0
H1260 H 0.61433 0.23163 1.00137 0.0
H1261 H 0.69791 0.11132 0.80269 0.0
H1262 H 0.84095 0.71339 0.81012 0.0
H1263 H 0.86608 0.68489 0.84259 0.0
H1264 H 0.87673 0.74258 0.90399 0.0
H1265 H 0.85156 0.77115 0.87169 0.0
H1266 H 0.92273 0.7199 0.90442 0.0
H1267 H 0.82953 0.69037 0.89997 0.0
H1268 H 0.78541 0.67441 0.87505 0.0
H1269 H 0.81371 0.60472 0.8557 0.0
H1270 H 0.85847 0.62097 0.87901 0.0
H1271 H 0.96773 0.64088 0.02175 0.0
H1272 H 0.94672 0.67055 0.98741 0.0
H1273 H 0.91314 0.60494 0.9371 0.0
H1274 H 0.93213 0.57517 0.97287 0.0
H1275 H 0.87869 0.63213 0.92942 0.0
H1276 H 0.97061 0.65997 0.92782 0.0
H1277 H 1.01712 0.67623 0.94536 0.0
H1278 H 0.99405 0.74686 0.96961 0.0
H1279 H 0.94724 0.73054 0.95328 0.0
C1280 C 0.84888 0.72028 0.83039 0.0
C1281 C 0.84401 0.74485 0.83798 0.0
C1282 C 0.86324 0.70377 0.84913 0.0
C1283 C 0.8733 0.71119 0.87616 0.0
C1284 C 0.86931 0.73611 0.88345 0.0
C1285 C 0.85477 0.75253 0.86481 0.0
C1286 C 0.88701 0.69278 0.89709 0.0
C1287 C 0.91299 0.70078 0.91009 0.0
C1288 C 0.87486 0.66732 0.90407 0.0
C1289 C 0.84757 0.6571 0.89102 0.0
C1290 C 0.82651 0.6718 0.89011 0.0
C1291 C 0.80137 0.66274 0.87617 0.0
C1292 C 0.79674 0.63854 0.86388 0.0
C1293 C 0.81731 0.62346 0.86526 0.0
C1294 C 0.84264 0.63269 0.87867 0.0
C1295 C 0.95631 0.63283 1.0031 0.0
C1296 C 0.95223 0.60552 1.00001 0.0
C1297 C 0.94421 0.64997 0.98314 0.0
C1298 C 0.92845 0.64065 0.95862 0.0
C1299 C 0.92493 0.61326 0.95542 0.0
C1300 C 0.9362 0.59605 0.97587 0.0
C1301 C 0.91494 0.65897 0.93695 0.0
C1302 C 0.88877 0.65108 0.92382 0.0
C1303 C 0.92722 0.68429 0.92923 0.0
C1304 C 0.95535 0.6939 0.93953 0.0
C1305 C 0.97541 0.67885 0.93715 0.0
C1306 C 1.00186 0.6881 0.94687 0.0
C1307 C 1.00856 0.71265 0.95844 0.0
C1308 C 0.98882 0.72786 0.96062 0.0
C1309 C 0.96232 0.71857 0.95125 0.0
H1310 H 0.02903 0.71999 0.96568 0.0
H1311 H 0.7772 0.63147 0.85331 0.0
H1312 H 0.216 0.31052 0.19377 0.0
H1313 H 0.18399 0.33871 0.17131 0.0
H1314 H 0.17569 0.3647 0.2499 0.0
H1315 H 0.20894 0.33755 0.27222 0.0
H1316 H 0.13734 0.34497 0.16406 0.0
H1317 H 0.14982 0.42126 0.24741 0.0
H1318 H 0.18429 0.44182 0.28317 0.0
H1319 H 0.24469 0.42647 0.23885 0.0
H1320 H 0.21058 0.40607 0.20271 0.0
H1321 H 0.03575 0.43035 0.11784 0.0
H1322 H 0.06402 0.39863 0.14183 0.0
H1323 H 0.13071 0.45965 0.1513 0.0
H1324 H 0.10276 0.49093 0.12889 0.0
H1325 H 0.13886 0.43506 0.19364 0.0
H1326 H 0.1174 0.40108 0.10376 0.0
H1327 H 0.08832 0.38356 0.0625 0.0
H1328 H 0.05465 0.31957 0.11078 0.0
H1329 H 0.08339 0.33688 0.15237 0.0
C1330 C 0.20753 0.32228 0.20646 0.0
C1331 C 0.21572 0.32143 0.23518 0.0
C1332 C 0.18881 0.33861 0.19339 0.0
C1333 C 0.17695 0.35496 0.20822 0.0
C1334 C 0.18459 0.35349 0.2371 0.0
C1335 C 0.20372 0.33747 0.25017 0.0
C1336 C 0.15706 0.37325 0.1935 0.0
C1337 C 0.13787 0.36463 0.17082 0.0
C1338 C 0.15705 0.39951 0.20105 0.0
C1339 C 0.17766 0.41188 0.22255 0.0
C1340 C 0.17046 0.42234 0.24528 0.0
C1341 C 0.18993 0.43395 0.26562 0.0
C1342 C 0.21667 0.43536 0.26333 0.0
C1343 C 0.22399 0.42527 0.24065 0.0
C1344 C 0.2046 0.41367 0.22025 0.0
C1345 C 0.05644 0.43703 0.12493 0.0
C1346 C 0.06639 0.46381 0.12116 0.0
C1347 C 0.07296 0.41862 0.13874 0.0
C1348 C 0.10035 0.42597 0.14888 0.0
C1349 C 0.11003 0.45263 0.14456 0.0
C1350 C 0.09365 0.47086 0.13131 0.0
C1351 C 0.11912 0.40686 0.16414 0.0
C1352 C 0.13818 0.41536 0.18693 0.0
C1353 C 0.11959 0.38087 0.15606 0.0
C1354 C 0.10231 0.37043 0.13118 0.0
C1355 C 0.10367 0.38337 0.10558 0.0
C1356 C 0.08728 0.37346 0.08214 0.0
C1357 C 0.06959 0.35051 0.08403 0.0
C1358 C 0.06832 0.33737 0.10936 0.0
C1359 C 0.08467 0.34721 0.13286 0.0
H1360 H 0.0569 0.34287 0.06587 0.0
H1361 H 0.23171 0.44433 0.2791 0.0
H1362 H 0.1418 0.69386 0.88104 0.0
H1363 H 0.11744 0.68404 0.91919 0.0
H1364 H 0.16995 0.74374 0.96574 0.0
H1365 H 0.19419 0.7544 0.92703 0.0
H1366 H 0.16036 0.6927 0.99319 0.0
H1367 H 0.11001 0.75881 0.94779 0.0
H1368 H 0.08696 0.78138 0.90755 0.0
H1369 H 0.03488 0.71029 0.8873 0.0
H1370 H 0.05806 0.68721 0.92706 0.0
H1371 H 0.08268 0.63247 0.08511 0.0
H1372 H 0.09998 0.6727 0.06151 0.0
H1373 H 0.05469 0.64462 0.98523 0.0
H1374 H 0.03631 0.60537 1.00919 0.0
H1375 H 0.06343 0.69422 0.98067 0.0
H1376 H 0.11907 0.62634 0.01409 0.0
H1377 H 0.14249 0.59901 0.04996 0.0
H1378 H 0.18522 0.66818 0.08838 0.0
H1379 H 0.16182 0.69591 0.05285 0.0
C1380 C 0.14802 0.70518 0.89921 0.0
C1381 C 0.16974 0.72511 0.9009 0.0
C1382 C 0.13407 0.69956 0.92097 0.0
C1383 C 0.1416 0.7136 0.94493 0.0
C1384 C 0.16373 0.73297 0.94719 0.0
C1385 C 0.17765 0.73882 0.92521 0.0
C1386 C 0.12683 0.70657 0.96787 0.0
C1387 C 0.13933 0.69385 0.99106 0.0
C1388 C 0.09936 0.70763 0.96458 0.0
C1389 C 0.08551 0.72139 0.94057 0.0
C1390 C 0.09367 0.74801 0.93471 0.0
C1391 C 0.08063 0.76087 0.91196 0.0
C1392 C 0.0594 0.74731 0.89493 0.0
C1393 C 0.05125 0.72082 0.90056 0.0
C1394 C 0.06428 0.70786 0.92323 0.0
C1395 C 0.07572 0.63556 0.0635 0.0
C1396 C 0.05882 0.61586 0.04863 0.0
C1397 C 0.08562 0.65842 0.05002 0.0
C1398 C 0.0796 0.66108 0.02142 0.0
C1399 C 0.05997 0.64287 1.00726 0.0
C1400 C 0.04944 0.62042 0.0209 0.0
C1401 C 0.09669 0.67952 1.00565 0.0
C1402 C 0.08465 0.69425 0.98367 0.0
C1403 C 0.12455 0.67977 1.00969 0.0
C1404 C 0.13853 0.66315 0.03105 0.0
C1405 C 0.13339 0.63568 0.03027 0.0
C1406 C 0.14666 0.62014 0.0505 0.0
C1407 C 0.16537 0.63187 0.0714 0.0
C1408 C 0.17075 0.65915 0.07217 0.0
C1409 C 0.15748 0.67478 0.05201 0.0
H1410 H 0.17572 0.61981 0.08697 0.0
H1411 H 0.04932 0.75731 0.87735 0.0
H1412 H 0.28972 0.22727 0.87963 0.0
H1413 H 0.30986 0.19335 0.90916 0.0
H1414 H 0.33841 0.16652 0.84036 0.0
H1415 H 0.318 0.19981 0.81073 0.0
H1416 H 0.32093 0.12568 0.87057 0.0
H1417 H 0.37842 0.20731 0.88806 0.0
H1418 H 0.38935 0.25337 0.90124 0.0
H1419 H 0.36668 0.23208 0.97988 0.0
H1420 H 0.35527 0.18591 0.96701 0.0
H1421 H 0.44077 0.07629 0.9294 0.0
H1422 H 0.40375 0.09732 0.90472 0.0
H1423 H 0.37587 0.10454 0.98074 0.0
H1424 H 0.41255 0.08271 1.00541 0.0
H1425 H 0.38729 0.1526 0.95152 0.0
H1426 H 0.33558 0.06971 0.93578 0.0
H1427 H 0.32352 0.02394 0.92193 0.0
H1428 H 0.33609 0.04729 0.84007 0.0
H1429 H 0.34843 0.09321 0.85346 0.0
C1430 C 0.30014 0.21405 0.87074 0.0
C1431 C 0.30234 0.21649 0.84277 0.0
C1432 C 0.31174 0.19468 0.88769 0.0
C1433 C 0.32598 0.17749 0.87711 0.0
C1434 C 0.32755 0.17947 0.84908 0.0
C1435 C 0.31592 0.1987 0.83214 0.0
C1436 C 0.34014 0.15805 0.89516 0.0
C1437 C 0.33557 0.1316 0.88817 0.0
C1438 C 0.35872 0.16553 0.91865 0.0
C1439 C 0.36569 0.19323 0.92645 0.0
C1440 C 0.37558 0.21249 0.90809 0.0
C1441 C 0.38189 0.23861 0.91551 0.0
C1442 C 0.37863 0.24566 0.94135 0.0
C1443 C 0.36913 0.22659 0.95985 0.0
C1444 C 0.36275 0.20045 0.95251 0.0
C1445 C 0.42613 0.08144 0.94066 0.0
C1446 C 0.42935 0.07771 0.96924 0.0
C1447 C 0.40501 0.0935 0.92657 0.0
C1448 C 0.38705 0.10259 0.94088 0.0
C1449 C 0.38942 0.09758 0.96929 0.0
C1450 C 0.41023 0.08493 0.98333 0.0
C1451 C 0.36843 0.12034 0.92662 0.0
C1452 C 0.37232 0.14655 0.93421 0.0
C1453 C 0.34939 0.11265 0.90361 0.0
C1454 C 0.34307 0.08492 0.89568 0.0
C1455 C 0.33603 0.06507 0.91488 0.0
C1456 C 0.32896 0.03912 0.90707 0.0
C1457 C 0.32886 0.03275 0.88009 0.0
C1458 C 0.33602 0.05229 0.86092 0.0
C1459 C 0.34301 0.07829 0.86861 0.0
H1460 H 0.32345 1.01263 0.8741 0.0
H1461 H 0.38353 0.26589 0.94706 0.0
H1462 H 0.80899 0.35266 0.83342 0.0
H1463 H 0.83247 0.38474 0.86668 0.0
H1464 H 0.87235 0.32393 0.91209 0.0
H1465 H 0.84746 0.29187 0.88028 0.0
H1466 H 0.86476 0.3508 0.94719 0.0
H1467 H 0.90137 0.3771 0.86626 0.0
H1468 H 0.90174 0.39056 0.81776 0.0
H1469 H 0.86611 0.45858 0.82856 0.0
H1470 H 0.86522 0.44534 0.87707 0.0
H1471 H 0.96563 0.43993 0.02588 0.0
H1472 H 0.94373 0.40839 0.99138 0.0
H1473 H 0.88816 0.46165 0.95948 0.0
H1474 H 0.90988 0.4932 0.99345 0.0
H1475 H 0.90485 0.43887 0.91799 0.0
H1476 H 0.87706 0.41035 1.00489 0.0
H1477 H 0.88787 0.39658 0.05315 0.0
H1478 H 0.91479 0.3275 0.03037 0.0
H1479 H 0.9067 0.34215 0.98186 0.0
C1480 C 0.82271 0.34621 0.85058 0.0
C1481 C 0.82626 0.31964 0.85408 0.0
C1482 C 0.83645 0.36466 0.86959 0.0
C1483 C 0.85494 0.35726 0.89206 0.0
C1484 C 0.85833 0.33059 0.89533 0.0
C1485 C 0.84406 0.31212 0.8769 0.0
C1486 C 0.87053 0.37682 0.91235 0.0
C1487 C 0.8738 0.36986 0.94054 0.0
C1488 C 0.88251 0.40204 0.90434 0.0
C1489 C 0.88296 0.41007 0.87521 0.0
C1490 C 0.89344 0.39483 0.85823 0.0
C1491 C 0.89377 0.40244 0.83076 0.0
C1492 C 0.88388 0.42537 0.82006 0.0
C1493 C 0.87371 0.44079 0.83686 0.0
C1494 C 0.8733 0.43326 0.86435 0.0
C1495 C 0.94878 0.44502 0.01152 0.0
C1496 C 0.93957 0.46927 0.01287 0.0
C1497 C 0.93622 0.42687 0.99171 0.0
C1498 C 0.91398 0.43235 0.97275 0.0
C1499 C 0.90518 0.45675 0.9737 0.0
C1500 C 0.91765 0.47482 0.99343 0.0
C1501 C 0.89917 0.41262 0.9525 0.0
C1502 C 0.89589 0.41968 0.92442 0.0
C1503 C 0.88817 0.38707 0.96054 0.0
C1504 C 0.8916 0.37759 0.98964 0.0
C1505 C 0.88557 0.39236 1.01009 0.0
C1506 C 0.89125 0.3844 0.03757 0.0
C1507 C 0.90162 0.36099 0.04491 0.0
C1508 C 0.9067 0.34563 0.02469 0.0
C1509 C 0.90189 0.35393 0.99718 0.0
H1510 H 0.90584 0.35482 0.06623 0.0
H1511 H 0.88415 0.43122 0.79879 0.0
H1512 H 0.71271 0.9241 0.85567 0.0
H1513 H 0.67977 0.94745 0.8702 0.0
H1514 H 0.6477 0.87659 0.91063 0.0
H1515 H 0.68035 0.85303 0.89569 0.0
H1516 H 0.60871 0.90285 0.88681 0.0
H1517 H 0.69224 0.9242 0.94574 0.0
H1518 H 0.7399 0.94031 0.95638 0.0
H1519 H 0.72612 0.01548 0.91926 0.0
H1520 H 0.67839 0.99967 0.90806 0.0
H1521 H 0.55595 0.94849 0.99428 0.0
H1522 H 0.57986 0.92944 0.96387 0.0
H1523 H 0.59979 1.00575 0.92642 0.0
H1524 H 0.57591 0.02517 0.95714 0.0
H1525 H 0.64296 0.98057 0.94271 0.0
H1526 H 0.55729 0.95982 0.89052 0.0
H1527 H 0.50969 0.94298 0.88307 0.0
H1528 H 0.5272 0.8659 0.91007 0.0
H1529 H 0.5749 0.88234 0.91815 0.0
C1530 C 0.69856 0.91349 0.86758 0.0
C1531 C 0.69928 0.88681 0.87482 0.0
C1532 C 0.67973 0.92684 0.87585 0.0
C1533 C 0.66153 0.9139 0.89193 0.0
C1534 C 0.66154 0.887 0.89825 0.0
C1535 C 0.68021 0.87356 0.88973 0.0
C1536 C 0.64348 0.92864 0.90343 0.0
C1537 C 0.61619 0.91976 0.89915 0.0
C1538 C 0.65314 0.95112 0.919 0.0
C1539 C 0.68181 0.96066 0.92577 0.0
C1540 C 0.69941 0.9441 0.93966 0.0
C1541 C 0.72643 0.95318 0.94582 0.0
C1542 C 0.73605 0.97888 0.93842 0.0
C1543 C 0.71865 0.99556 0.92492 0.0
C1544 C 0.69161 0.98656 0.91866 0.0
C1545 C 0.56513 0.96125 0.97936 0.0
C1546 C 0.56417 0.98839 0.97825 0.0
C1547 C 0.57864 0.95026 0.96183 0.0
C1548 C 0.59146 0.96612 0.94273 0.0
C1549 C 0.58993 0.99315 0.94096 0.0
C1550 C 0.5762 1.00419 0.95843 0.0
C1551 C 0.60824 0.95458 0.92644 0.0
C1552 C 0.63536 0.96399 0.92992 0.0
C1553 C 0.59841 0.93248 0.91039 0.0
C1554 C 0.56972 0.92237 0.9051 0.0
C1555 C 0.551 0.9393 0.89504 0.0
C1556 C 0.52399 0.92983 0.89069 0.0
C1557 C 0.51542 0.90339 0.89613 0.0
C1558 C 0.53386 0.88637 0.90586 0.0
C1559 C 0.56091 0.89575 0.91029 0.0
H1560 H 0.49449 0.8961 0.89279 0.0
H1561 H 0.75697 0.98588 0.94321 0.0
H1562 H 0.81504 0.71292 0.2533 0.0
H1563 H 0.83711 0.68396 0.2303 0.0
H1564 H 0.85827 0.74741 0.17413 0.0
H1565 H 0.8343 0.77572 0.19599 0.0
H1566 H 0.85544 0.71172 0.14528 0.0
H1567 H 0.90344 0.71177 0.23576 0.0
H1568 H 0.91176 0.70674 0.28607 0.0
H1569 H 0.87734 0.62601 0.2815 0.0
H1570 H 0.86862 0.63061 0.2311 0.0
H1571 H 0.95858 0.64629 0.10322 0.0
H1572 H 0.93508 0.67413 0.12658 0.0
H1573 H 0.88559 0.60585 0.15178 0.0
H1574 H 0.90838 0.57799 0.12753 0.0
H1575 H 0.90356 0.64297 0.19611 0.0
H1576 H 0.86001 0.64584 0.10248 0.0
H1577 H 0.85829 0.65364 0.05273 0.0
H1578 H 0.89232 0.73374 0.06517 0.0
H1579 H 0.89459 0.72631 0.11505 0.0
C1580 C 0.82443 0.72096 0.23612 0.0
C1581 C 0.82253 0.74735 0.22713 0.0
C1582 C 0.8377 0.70411 0.22282 0.0
C1583 C 0.85088 0.71272 0.20017 0.0
C1584 C 0.84884 0.73919 0.19121 0.0
C1585 C 0.83498 0.75583 0.20408 0.0
C1586 C 0.866 0.69453 0.18564 0.0
C1587 C 0.86618 0.69711 0.15696 0.0
C1588 C 0.88043 0.67446 0.19945 0.0
C1589 C 0.88512 0.67163 0.22968 0.0
C1590 C 0.89747 0.693 0.24549 0.0
C1591 C 0.9023 0.69021 0.274 0.0
C1592 C 0.89508 0.66608 0.28695 0.0
C1593 C 0.88294 0.64468 0.27142 0.0
C1594 C 0.87806 0.64736 0.24288 0.0
C1595 C 0.94271 0.63693 0.11366 0.0
C1596 C 0.93587 0.60928 0.11297 0.0
C1597 C 0.929 0.65317 0.1272 0.0
C1598 C 0.908 0.64276 0.14153 0.0
C1599 C 0.90147 0.6151 0.1413 0.0
C1600 C 0.9147 0.59892 0.12713 0.0
C1601 C 0.89292 0.6605 0.15621 0.0
C1602 C 0.89277 0.65773 0.18476 0.0
C1603 C 0.87925 0.6809 0.14247 0.0
C1604 C 0.8777 0.68545 0.11252 0.0
C1605 C 0.86732 0.66506 0.09462 0.0
C1606 C 0.86621 0.66943 0.0664 0.0
C1607 C 0.87526 0.69415 0.0558 0.0
C1608 C 0.88535 0.71459 0.07341 0.0
C1609 C 0.88654 0.71032 0.10166 0.0
H1610 H 0.87439 0.69749 0.03394 0.0
H1611 H 0.899 0.66399 0.30901 0.0
H1612 H 0.29746 0.87142 0.22234 0.0
H1613 H 0.32373 0.89992 0.19261 0.0
H1614 H 0.37682 0.84234 0.19623 0.0
H1615 H 0.35033 0.81351 0.22575 0.0
H1616 H 0.40481 0.89187 0.20289 0.0
H1617 H 0.33181 0.85332 0.13798 0.0
H1618 H 0.28474 0.84185 0.11862 0.0
H1619 H 0.27525 0.92338 0.11029 0.0
H1620 H 0.3222 0.93532 0.12995 0.0
H1621 H 0.47988 0.94466 0.10143 0.0
H1622 H 0.45078 0.91821 0.129 0.0
H1623 H 0.39378 0.97238 0.10918 0.0
H1624 H 0.42289 0.9988 0.08007 0.0
H1625 H 0.36667 0.9266 0.11185 0.0
H1626 H 0.43733 0.96658 0.17586 0.0
H1627 H 0.48347 0.98041 0.19703 0.0
H1628 H 0.49639 0.89996 0.21003 0.0
H1629 H 0.45041 0.88564 0.18861 0.0
C1630 C 0.31461 0.86459 0.21674 0.0
C1631 C 0.32142 0.83978 0.22668 0.0
C1632 C 0.32973 0.88106 0.19949 0.0
C1633 C 0.35253 0.87362 0.19162 0.0
C1634 C 0.35948 0.84891 0.20167 0.0
C1635 C 0.34411 0.83223 0.21861 0.0
C1636 C 0.36927 0.89165 0.1735 0.0
C1637 C 0.39643 0.89908 0.18282 0.0
C1638 C 0.35864 0.90234 0.14756 0.0
C1639 C 0.33045 0.8952 0.13569 0.0
C1640 C 0.31963 0.86879 0.13223 0.0
C1641 C 0.29298 0.86221 0.12116 0.0
C1642 C 0.27699 0.88187 0.1133 0.0
C1643 C 0.28764 0.90817 0.11642 0.0
C1644 C 0.31428 0.91486 0.12751 0.0
C1645 C 0.46127 0.95136 0.10286 0.0
C1646 C 0.45432 0.9745 0.0884 0.0
C1647 C 0.44446 0.93601 0.11908 0.0
C1648 C 0.41993 0.9432 0.12241 0.0
C1649 C 0.41251 0.96607 0.10756 0.0
C1650 C 0.42933 0.98138 0.09081 0.0
C1651 C 0.40245 0.92662 0.14105 0.0
C1652 C 0.37514 0.91947 0.13191 0.0
C1653 C 0.41282 0.91657 0.16746 0.0
C1654 C 0.44048 0.92505 0.1804 0.0
C1655 C 0.45006 0.95184 0.18307 0.0
C1656 C 0.47618 0.95976 0.19514 0.0
C1657 C 0.49287 0.94107 0.20481 0.0
C1658 C 0.48345 0.91441 0.2025 0.0
C1659 C 0.45735 0.90638 0.19042 0.0
H1660 H 0.51309 0.94725 0.21414 0.0
H1661 H 0.25637 0.87673 0.10473 0.0
H1662 H 0.71604 0.21376 0.26092 0.0
H1663 H 0.67832 0.18635 0.23421 0.0
H1664 H 0.70328 0.21963 0.1594 0.0
H1665 H 0.74086 0.24598 0.18556 0.0
H1666 H 0.64734 0.21927 0.16332 0.0
H1667 H 0.7171 0.16483 0.17535 0.0
H1668 H 0.74956 0.1366 0.19778 0.0
H1669 H 0.68794 0.08539 0.22988 0.0
H1670 H 0.65518 0.11372 0.20824 0.0
H1671 H 0.58437 0.14658 0.04907 0.0
H1672 H 0.61477 0.1707 0.08489 0.0
H1673 H 0.59251 0.11118 0.1449 0.0
H1674 H 0.56276 0.08653 0.10877 0.0
H1675 H 0.64231 0.12348 0.15486 0.0
H1676 H 0.57174 0.17482 0.13664 0.0
H1677 H 0.53936 0.19945 0.10768 0.0
H1678 H 0.60245 0.25511 0.08423 0.0
H1679 H 0.63529 0.23029 0.11215 0.0
C1680 C 0.71323 0.21527 0.2388 0.0
C1681 C 0.73134 0.23208 0.22533 0.0
C1682 C 0.69187 0.19948 0.22356 0.0
C1683 C 0.68807 0.20079 0.19473 0.0
C1684 C 0.7058 0.21814 0.18153 0.0
C1685 C 0.72727 0.23327 0.19658 0.0
C1686 C 0.66545 0.18496 0.17773 0.0
C1687 C 0.64623 0.19829 0.16146 0.0
C1688 C 0.66364 0.15747 0.17564 0.0
C1689 C 0.68377 0.14189 0.1908 0.0
C1690 C 0.71055 0.14801 0.18784 0.0
C1691 C 0.72899 0.13185 0.20025 0.0
C1692 C 0.72086 0.10933 0.21542 0.0
C1693 C 0.69427 0.10297 0.21832 0.0
C1694 C 0.67578 0.11913 0.20607 0.0
C1695 C 0.58575 0.13876 0.06994 0.0
C1696 C 0.57114 0.11462 0.07607 0.0
C1697 C 0.6031 0.15265 0.09052 0.0
C1698 C 0.60571 0.14317 0.11791 0.0
C1699 C 0.59093 0.11908 0.12405 0.0
C1700 C 0.57392 0.10495 0.10337 0.0
C1701 C 0.6246 0.15784 0.13985 0.0
C1702 C 0.64307 0.14435 0.15705 0.0
C1703 C 0.6258 0.18519 0.14271 0.0
C1704 C 0.60602 0.20057 0.12644 0.0
C1705 C 0.57874 0.19224 0.12522 0.0
C1706 C 0.56029 0.20622 0.10896 0.0
C1707 C 0.56883 0.22889 0.09425 0.0
C1708 C 0.59586 0.23757 0.09568 0.0
C1709 C 0.61441 0.22351 0.11167 0.0
H1710 H 0.55451 0.2397 0.08171 0.0
H1711 H 0.73512 0.09672 0.22478 0.0
H1712 H 0.71536 0.76555 0.83638 0.0
H1713 H 0.68988 0.73932 0.86909 0.0
H1714 H 0.72349 0.67112 0.8539 0.0
H1715 H 0.74801 0.69688 0.82092 0.0
H1716 H 0.65091 0.69874 0.86555 0.0
H1717 H 0.72676 0.6271 0.9125 0.0
H1718 H 0.77429 0.62833 0.93052 0.0
H1719 H 0.78226 0.71186 0.93577 0.0
H1720 H 0.73472 0.71113 0.91839 0.0
H1721 H 0.57595 0.59087 0.92563 0.0
H1722 H 0.60506 0.61985 0.89995 0.0
H1723 H 0.6616 0.63355 0.97343 0.0
H1724 H 0.63252 0.60287 0.99931 0.0
H1725 H 0.69014 0.6382 0.93705 0.0
H1726 H 0.61466 0.68063 0.93553 0.0
H1727 H 0.56735 0.68592 0.92867 0.0
H1728 H 0.56051 0.67133 0.84336 0.0
H1729 H 0.60771 0.66563 0.84977 0.0
C1730 C 0.71772 0.7451 0.84026 0.0
C1731 C 0.73439 0.73382 0.82571 0.0
C1732 C 0.70278 0.72979 0.85904 0.0
C1733 C 0.70429 0.70263 0.86479 0.0
C1734 C 0.72156 0.69174 0.85073 0.0
C1735 C 0.73582 0.70676 0.83157 0.0
C1736 C 0.68742 0.68543 0.88425 0.0
C1737 C 0.65974 0.68545 0.88099 0.0
C1738 C 0.69812 0.66824 0.90561 0.0
C1739 C 0.72714 0.66906 0.91383 0.0
C1740 C 0.73865 0.64575 0.91741 0.0
C1741 C 0.76557 0.64634 0.92771 0.0
C1742 C 0.78122 0.67013 0.93451 0.0
C1743 C 0.77009 0.69344 0.93059 0.0
C1744 C 0.74315 0.69295 0.92042 0.0
C1745 C 0.59456 0.5999 0.9367 0.0
C1746 C 0.60117 0.59407 0.96513 0.0
C1747 C 0.61142 0.61712 0.9217 0.0
C1748 C 0.63586 0.63054 0.93416 0.0
C1749 C 0.64305 0.62422 0.96256 0.0
C1750 C 0.62621 0.60637 0.97765 0.0
C1751 C 0.65342 0.6505 0.91745 0.0
C1752 C 0.68125 0.65113 0.92129 0.0
C1753 C 0.643 0.66893 0.8972 0.0
C1754 C 0.61467 0.67248 0.89319 0.0
C1755 C 0.60303 0.67841 0.91534 0.0
C1756 C 0.57624 0.68149 0.91153 0.0
C1757 C 0.56093 0.6789 0.88561 0.0
C1758 C 0.57239 0.67331 0.86343 0.0
C1759 C 0.59917 0.67017 0.86713 0.0
H1760 H 0.54018 0.68128 0.88271 0.0
H1761 H 0.80202 0.67052 0.94262 0.0
H1762 H 0.36724 0.74272 0.82337 0.0
H1763 H 0.3907 0.71182 0.85405 0.0
H1764 H 0.31687 0.67533 0.87713 0.0
H1765 H 0.29321 0.70602 0.84606 0.0
H1766 H 0.39975 0.70118 0.90606 0.0
H1767 H 0.31957 0.61058 0.8959 0.0
H1768 H 0.28218 0.59137 0.86226 0.0
H1769 H 0.31876 0.63086 0.79672 0.0
H1770 H 0.35651 0.65002 0.82993 0.0
H1771 H 0.44721 0.60293 1.00435 0.0
H1772 H 0.41706 0.63196 0.97825 0.0
H1773 H 0.42011 0.594 0.90424 0.0
H1774 H 0.44955 0.56501 0.93008 0.0
H1775 H 0.37182 0.60537 0.90194 0.0
H1776 H 0.45887 0.65211 0.92377 0.0
H1777 H 0.49936 0.67146 0.95314 0.0
H1778 H 0.45432 0.72019 0.98854 0.0
H1779 H 0.41341 0.70056 0.95998 0.0
C1780 C 0.35584 0.72812 0.83488 0.0
C1781 C 0.32808 0.72703 0.83181 0.0
C1782 C 0.36944 0.71037 0.85268 0.0
C1783 C 0.35586 0.69065 0.86806 0.0
C1784 C 0.32812 0.68979 0.86536 0.0
C1785 C 0.31449 0.70758 0.84753 0.0
C1786 C 0.37073 0.67113 0.88654 0.0
C1787 C 0.39339 0.68025 0.90524 0.0
C1788 C 0.36315 0.64355 0.88559 0.0
C1789 C 0.34069 0.63196 0.86543 0.0
C1790 C 0.31965 0.61509 0.8743 0.0
C1791 C 0.2984 0.60423 0.85531 0.0
C1792 C 0.29805 0.60997 0.82738 0.0
C1793 C 0.319 0.62651 0.81837 0.0
C1794 C 0.34032 0.6374 0.83727 0.0
C1795 C 0.44074 0.60025 0.98269 0.0
C1796 C 0.4505 0.58116 0.9695 0.0
C1797 C 0.42383 0.61722 0.96761 0.0
C1798 C 0.4164 0.61578 0.93893 0.0
C1799 C 0.42525 0.59586 0.92616 0.0
C1800 C 0.4421 0.57908 0.94109 0.0
C1801 C 0.40059 0.63543 0.92182 0.0
C1802 C 0.37788 0.62632 0.9032 0.0
C1803 C 0.40842 0.663 0.92252 0.0
C1804 C 0.43296 0.67451 0.94005 0.0
C1805 C 0.45751 0.66666 0.93811 0.0
C1806 C 0.48056 0.67771 0.9546 0.0
C1807 C 0.47939 0.69692 0.97283 0.0
C1808 C 0.45519 0.70521 0.97452 0.0
C1809 C 0.43204 0.69407 0.95823 0.0
H1810 H 0.49726 0.70549 0.98555 0.0
H1811 H 0.28156 0.60156 0.81272 0.0
H1812 H 0.31335 0.30872 0.85814 0.0
H1813 H 0.34189 0.33785 0.89162 0.0
H1814 H 0.37691 0.38085 0.82639 0.0
H1815 H 0.34873 0.35186 0.79314 0.0
H1816 H 0.41458 0.37023 0.86788 0.0
H1817 H 0.33091 0.40459 0.85912 0.0
H1818 H 0.2833 0.40162 0.86141 0.0
H1819 H 0.29794 0.3784 0.94653 0.0
H1820 H 0.34561 0.3809 0.94466 0.0
H1821 H 0.47735 0.48972 0.92223 0.0
H1822 H 0.448 0.45488 0.89731 0.0
H1823 H 0.42426 0.4216 0.97268 0.0
H1824 H 0.45388 0.45675 0.99802 0.0
H1825 H 0.38117 0.42292 0.93157 0.0
H1826 H 0.46329 0.39101 0.94298 0.0
H1827 H 0.51091 0.39159 0.94309 0.0
H1828 H 0.49983 0.40686 0.8562 0.0
H1829 H 0.45201 0.40677 0.85563 0.0
C1830 C 0.327 0.32453 0.85097 0.0
C1831 C 0.32873 0.32794 0.82293 0.0
C1832 C 0.34331 0.34122 0.87013 0.0
C1833 C 0.36164 0.36174 0.86165 0.0
C1834 C 0.36311 0.3652 0.83361 0.0
C1835 C 0.34685 0.34862 0.81454 0.0
C1836 C 0.37976 0.37943 0.88168 0.0
C1837 C 0.40718 0.38193 0.88157 0.0
C1838 C 0.37041 0.39398 0.90053 0.0
C1839 C 0.34179 0.39265 0.90167 0.0
C1840 C 0.32395 0.39866 0.87827 0.0
C1841 C 0.29695 0.39709 0.8795 0.0
C1842 C 0.28759 0.38974 0.90408 0.0
C1843 C 0.30522 0.38403 0.9275 0.0
C1844 C 0.33222 0.38554 0.92637 0.0
C1845 C 0.46602 0.47499 0.93367 0.0
C1846 C 0.4681 0.47616 0.96225 0.0
C1847 C 0.44922 0.45494 0.91931 0.0
C1848 C 0.43388 0.43539 0.933 0.0
C1849 C 0.43584 0.4364 0.96157 0.0
C1850 C 0.45294 0.45643 0.97608 0.0
C1851 C 0.41586 0.41425 0.9171 0.0
C1852 C 0.38855 0.41108 0.91801 0.0
C1853 C 0.42529 0.39876 0.89921 0.0
C1854 C 0.45406 0.39908 0.8993 0.0
C1855 C 0.47102 0.39473 0.92391 0.0
C1856 C 0.49807 0.39493 0.92405 0.0
C1857 C 0.50845 0.39923 0.89966 0.0
C1858 C 0.49176 0.40348 0.87508 0.0
C1859 C 0.46466 0.40334 0.87483 0.0
H1860 H 0.5294 0.39924 0.89981 0.0
H1861 H 0.2667 0.38856 0.90501 0.0
H1862 H 0.6323 0.35043 0.81923 0.0
H1863 H 0.6039 0.36823 0.84639 0.0
H1864 H 0.6719 0.39175 0.907 0.0
H1865 H 0.70033 0.37396 0.88001 0.0
H1866 H 0.62534 0.37151 0.92944 0.0
H1867 H 0.65428 0.43458 0.85973 0.0
H1868 H 0.65877 0.4491 0.81225 0.0
H1869 H 0.57427 0.43695 0.7894 0.0
H1870 H 0.56932 0.42197 0.83671 0.0
H1871 H 0.59766 0.47846 0.9959 0.0
H1872 H 0.614 0.44572 0.97215 0.0
H1873 H 0.54768 0.44789 0.90678 0.0
H1874 H 0.53234 0.48193 0.92981 0.0
H1875 H 0.58744 0.44946 0.88521 0.0
H1876 H 0.55747 0.39267 0.95616 0.0
H1877 H 0.55222 0.37823 1.00348 0.0
H1878 H 0.63601 0.377 0.02415 0.0
H1879 H 0.64173 0.39174 0.97702 0.0
C1880 C 0.64105 0.35891 0.83863 0.0
C1881 C 0.6685 0.36111 0.84744 0.0
C1882 C 0.62485 0.36908 0.85406 0.0
C1883 C 0.63589 0.38143 0.87856 0.0
C1884 C 0.66305 0.38225 0.88816 0.0
C1885 C 0.67926 0.37232 0.87264 0.0
C1886 C 0.61987 0.39592 0.89279 0.0
C1887 C 0.61699 0.38858 0.91991 0.0
C1888 C 0.60846 0.41771 0.87999 0.0
C1889 C 0.61145 0.42685 0.85163 0.0
C1890 C 0.63668 0.43479 0.84452 0.0
C1891 C 0.6393 0.44314 0.81766 0.0
C1892 C 0.61682 0.44387 0.7978 0.0
C1893 C 0.59167 0.43632 0.80479 0.0
C1894 C 0.58894 0.4279 0.83161 0.0
C1895 C 0.58643 0.47163 0.97663 0.0
C1896 C 0.56387 0.48272 0.96454 0.0
C1897 C 0.59561 0.45269 0.96315 0.0
C1898 C 0.58181 0.44374 0.93785 0.0
C1899 C 0.55867 0.45427 0.9263 0.0
C1900 C 0.54992 0.47375 0.9394 0.0
C1901 C 0.59285 0.42536 0.92231 0.0
C1902 C 0.59503 0.43204 0.89483 0.0
C1903 C 0.60333 0.40281 0.93479 0.0
C1904 C 0.59998 0.39346 0.96307 0.0
C1905 C 0.57474 0.38942 0.97084 0.0
C1906 C 0.5717 0.38118 0.99762 0.0
C1907 C 0.59378 0.37675 0.01683 0.0
C1908 C 0.61892 0.38044 1.00925 0.0
C1909 C 0.62206 0.38869 0.98247 0.0
H1910 H 0.5914 0.37042 0.03758 0.0
H1911 H 0.6189 0.45035 0.77702 0.0
H1912 H 0.69907 0.32973 0.24422 0.0
H1913 H 0.67572 0.36077 0.21346 0.0
H1914 H 0.74352 0.37999 0.17244 0.0
H1915 H 0.76682 0.34866 0.20289 0.0
H1916 H 0.68202 0.41175 0.20347 0.0
H1917 H 0.72538 0.40158 0.10661 0.0
H1918 H 0.74596 0.36951 0.08527 0.0
H1919 H 0.70111 0.30632 0.12491 0.0
H1920 H 0.68015 0.33802 0.14633 0.0
H1921 H 0.6385 0.51146 0.10553 0.0
H1922 H 0.6683 0.48285 0.13243 0.0
H1923 H 0.61996 0.41523 0.09548 0.0
H1924 H 0.59013 0.44377 0.06896 0.0
H1925 H 0.67277 0.40835 0.10265 0.0
H1926 H 0.6133 0.43435 0.15891 0.0
H1927 H 0.59348 0.467 0.18021 0.0
H1928 H 0.67023 0.49805 0.22173 0.0
H1929 H 0.69055 0.46581 0.20036 0.0
C1930 C 0.70914 0.34045 0.22866 0.0
C1931 C 0.73507 0.33625 0.22634 0.0
C1932 C 0.69565 0.35846 0.21095 0.0
C1933 C 0.70736 0.37294 0.18998 0.0
C1934 C 0.73342 0.36901 0.18784 0.0
C1935 C 0.74694 0.35101 0.20556 0.0
C1936 C 0.69231 0.39192 0.17063 0.0
C1937 C 0.68022 0.41091 0.18145 0.0
C1938 C 0.68955 0.39146 0.1416 0.0
C1939 C 0.70136 0.37218 0.12821 0.0
C1940 C 0.7198 0.38083 0.11064 0.0
C1941 C 0.73157 0.36273 0.09857 0.0
C1942 C 0.72488 0.3359 0.10377 0.0
C1943 C 0.70632 0.32711 0.12096 0.0
C1944 C 0.69451 0.34514 0.13309 0.0
C1945 C 0.63473 0.49059 0.1024 0.0
C1946 C 0.61213 0.48015 0.08435 0.0
C1947 C 0.65166 0.47406 0.11818 0.0
C1948 C 0.64658 0.44648 0.1165 0.0
C1949 C 0.62471 0.43623 0.09744 0.0
C1950 C 0.60764 0.45269 0.082 0.0
C1951 C 0.66275 0.42824 0.13556 0.0
C1952 C 0.67487 0.40932 0.12468 0.0
C1953 C 0.66574 0.42888 0.16454 0.0
C1954 C 0.65346 0.44783 0.17786 0.0
C1955 C 0.62595 0.44822 0.17248 0.0
C1956 C 0.61463 0.46666 0.18457 0.0
C1957 C 0.63059 0.48464 0.20225 0.0
C1958 C 0.6579 0.48414 0.20799 0.0
C1959 C 0.66932 0.46578 0.19592 0.0
H1960 H 0.62181 0.49893 0.21154 0.0
H1961 H 0.73405 0.32192 0.09446 0.0
H1962 H 0.7382 0.76009 0.195 0.0
H1963 H 0.71064 0.72817 0.16383 0.0
H1964 H 0.66151 0.70363 0.2254 0.0
H1965 H 0.6886 0.73563 0.25635 0.0
H1966 H 0.67896 0.66175 0.20328 0.0
H1967 H 0.63809 0.73877 0.17125 0.0
H1968 H 0.63778 0.78425 0.15298 0.0
H1969 H 0.66748 0.76478 0.08206 0.0
H1970 H 0.66832 0.71924 0.1001 0.0
H1971 H 0.57525 0.5772 0.13283 0.0
H1972 H 0.60104 0.61367 0.1584 0.0
H1973 H 0.63575 0.64223 0.08715 0.0
H1974 H 0.60893 0.60613 0.061 0.0
H1975 H 0.62821 0.68241 0.11252 0.0
H1976 H 0.66902 0.60639 0.14214 0.0
H1977 H 0.67119 0.56074 0.15923 0.0
H1978 H 0.64547 0.57786 0.23331 0.0
H1979 H 0.64274 0.62353 0.2165 0.0
C1980 C 0.72126 0.74818 0.20171 0.0
C1981 C 0.71563 0.75045 0.22819 0.0
C1982 C 0.70553 0.7299 0.18388 0.0
C1983 C 0.68397 0.71338 0.19224 0.0
C1984 C 0.67805 0.71604 0.21847 0.0
C1985 C 0.69352 0.73448 0.23612 0.0
C1986 C 0.66816 0.69259 0.17427 0.0
C1987 C 0.66761 0.6663 0.18357 0.0
C1988 C 0.65413 0.69834 0.14807 0.0
C1989 C 0.65355 0.72567 0.13718 0.0
C1990 C 0.64478 0.74424 0.15188 0.0
C1991 C 0.64446 0.77002 0.14154 0.0
C1992 C 0.65268 0.77742 0.11642 0.0
C1993 C 0.66116 0.75903 0.10154 0.0
C1994 C 0.66155 0.73323 0.1118 0.0
C1995 C 0.58831 0.59126 0.12252 0.0
C1996 C 0.59024 0.5885 0.09492 0.0
C1997 C 0.60321 0.61212 0.13725 0.0
C1998 C 0.62107 0.63048 0.12509 0.0
C1999 C 0.62234 0.62832 0.09719 0.0
C2000 C 0.60701 0.60762 0.08223 0.0
C2001 C 0.63859 0.65146 0.14172 0.0
C2002 C 0.6396 0.67777 0.13217 0.0
C2003 C 0.65348 0.64571 0.16756 0.0
C2004 C 0.65547 0.61835 0.17795 0.0
C2005 C 0.66369 0.60039 0.16202 0.0
C2006 C 0.66502 0.57451 0.17165 0.0
C2007 C 0.65841 0.5664 0.19731 0.0
C2008 C 0.65055 0.58417 0.21343 0.0
C2009 C 0.64913 0.61006 0.20386 0.0
H2010 H 0.65943 0.54637 0.20473 0.0
H2011 H 0.65241 0.79739 0.10844 0.0
H2012 H 0.36142 0.69296 0.17794 0.0
H2013 H 0.38768 0.67153 0.15175 0.0
H2014 H 0.45822 0.69725 0.20835 0.0
H2015 H 0.43174 0.71812 0.23514 0.0
H2016 H 0.42659 0.68397 0.12449 0.0
H2017 H 0.49891 0.65048 0.21679 0.0
H2018 H 0.50124 0.64154 0.26652 0.0
H2019 H 0.41664 0.62311 0.25624 0.0
H2020 H 0.41386 0.6316 0.20646 0.0
H2021 H 0.51226 0.61056 0.06993 0.0
H2022 H 0.49561 0.64326 0.09402 0.0
H2023 H 0.45894 0.58125 0.14333 0.0
H2024 H 0.47698 0.54905 0.12065 0.0
H2025 H 0.47842 0.6173 0.17447 0.0
H2026 H 0.42447 0.61674 0.08412 0.0
H2027 H 0.41675 0.62202 0.03378 0.0
H2028 H 0.45574 0.70123 0.03897 0.0
H2029 H 0.46375 0.69637 0.08932 0.0
C2030 C 0.3826 0.69443 0.18455 0.0
C2031 C 0.39452 0.70705 0.20868 0.0
C2032 C 0.39762 0.68217 0.16955 0.0
C2033 C 0.4249 0.6824 0.17826 0.0
C2034 C 0.43712 0.69631 0.20152 0.0
C2035 C 0.42201 0.70826 0.21679 0.0
C2036 C 0.43992 0.66654 0.16398 0.0
C2037 C 0.43805 0.66947 0.13543 0.0
C2038 C 0.45473 0.64746 0.17813 0.0
C2039 C 0.45619 0.64201 0.20799 0.0
C2040 C 0.48083 0.64446 0.22517 0.0
C2041 C 0.48223 0.63947 0.25335 0.0
C2042 C 0.4591 0.63186 0.26454 0.0
C2043 C 0.43453 0.6291 0.24756 0.0
C2044 C 0.43304 0.63402 0.21937 0.0
C2045 C 0.50064 0.60407 0.08594 0.0
C2046 C 0.49587 0.57736 0.09347 0.0
C2047 C 0.49101 0.62271 0.09962 0.0
C2048 C 0.47565 0.61481 0.12037 0.0
C2049 C 0.47085 0.58801 0.12762 0.0
C2050 C 0.48108 0.56956 0.11456 0.0
C2051 C 0.46439 0.63403 0.13475 0.0
C2052 C 0.4672 0.63193 0.16344 0.0
C2053 C 0.44971 0.65326 0.12062 0.0
C2054 C 0.44493 0.65611 0.0904 0.0
C2055 C 0.43152 0.63521 0.07448 0.0
C2056 C 0.42707 0.63814 0.04597 0.0
C2057 C 0.43585 0.66191 0.0332 0.0
C2058 C 0.44901 0.68283 0.04889 0.0
C2059 C 0.45346 0.68001 0.0774 0.0
H2060 H 0.43237 0.6642 1.01118 0.0
H2061 H 0.46022 0.62804 0.28636 0.0
H2062 H 0.37132 0.32386 0.25317 0.0
H2063 H 0.39549 0.35278 0.2223 0.0
H2064 H 0.32239 0.36076 0.16859 0.0
H2065 H 0.29815 0.33058 0.19927 0.0
H2066 H 0.35673 0.36382 0.1363 0.0
H2067 H 0.36185 0.41145 0.21649 0.0
H2068 H 0.37058 0.42023 0.26569 0.0
H2069 H 0.45234 0.41151 0.26888 0.0
H2070 H 0.44404 0.40235 0.21976 0.0
H2071 H 0.42595 0.47654 0.06488 0.0
H2072 H 0.3956 0.44751 0.09088 0.0
H2073 H 0.46236 0.42502 0.14657 0.0
H2074 H 0.49218 0.45324 0.12122 0.0
H2075 H 0.42766 0.43195 0.17649 0.0
H2076 H 0.42058 0.38388 0.09456 0.0
H2077 H 0.41045 0.37757 0.04486 0.0
H2078 H 0.33029 0.39068 0.04448 0.0
H2079 H 0.34005 0.39743 0.09414 0.0
C2080 C 0.36017 0.3316 0.23478 0.0
C2081 C 0.33239 0.3245 0.22931 0.0
C2082 C 0.3742 0.3487 0.21694 0.0
C2083 C 0.3613 0.36036 0.19276 0.0
C2084 C 0.33349 0.35272 0.18683 0.0
C2085 C 0.3194 0.33524 0.20463 0.0
C2086 C 0.37679 0.38027 0.17427 0.0
C2087 C 0.37194 0.37887 0.14536 0.0
C2088 C 0.39715 0.40046 0.18498 0.0
C2089 C 0.40226 0.40597 0.2145 0.0
C2090 C 0.38166 0.41124 0.22772 0.0
C2091 C 0.38653 0.4163 0.25559 0.0
C2092 C 0.41198 0.41636 0.27041 0.0
C2093 C 0.43263 0.41142 0.25738 0.0
C2094 C 0.42786 0.40632 0.22952 0.0
C2095 C 0.43427 0.46535 0.08254 0.0
C2096 C 0.46215 0.46779 0.09026 0.0
C2097 C 0.4167 0.44843 0.0976 0.0
C2098 C 0.42612 0.43332 0.12126 0.0
C2099 C 0.45384 0.436 0.12882 0.0
C2100 C 0.4712 0.45246 0.11382 0.0
C2101 C 0.40801 0.41517 0.13867 0.0
C2102 C 0.4124 0.41692 0.16745 0.0
C2103 C 0.38705 0.39566 0.12776 0.0
C2104 C 0.38113 0.39145 0.098 0.0
C2105 C 0.40085 0.38561 0.08384 0.0
C2106 C 0.39517 0.38192 0.05569 0.0
C2107 C 0.36977 0.38381 0.04151 0.0
C2108 C 0.34997 0.38929 0.05548 0.0
C2109 C 0.35556 0.39303 0.08363 0.0
H2110 H 0.36541 0.38096 0.01971 0.0
H2111 H 0.41572 0.42029 0.29199 0.0
H2112 H 0.89451 0.73017 0.67442 0.0
H2113 H 0.9247 0.7112 0.65039 0.0
H2114 H 0.86261 0.64865 0.624 0.0
H2115 H 0.83247 0.66748 0.6477 0.0
H2116 H 0.90693 0.62972 0.64615 0.0
H2117 H 0.88404 0.6983 0.5796 0.0
H2118 H 0.87994 0.74397 0.56378 0.0
H2119 H 0.96379 0.76515 0.5863 0.0
H2120 H 0.96834 0.71965 0.60259 0.0
H2121 H 0.96037 0.56405 0.55686 0.0
H2122 H 0.93244 0.5932 0.57126 0.0
H2123 H 1.00113 0.65021 0.59376 0.0
H2124 H 0.02917 0.6211 0.57845 0.0
H2125 H 0.95677 0.67418 0.57521 0.0
H2126 H 0.98023 0.6065 0.64129 0.0
H2127 H 0.98521 0.56106 0.65735 0.0
H2128 H 0.90125 0.53891 0.6374 0.0
H2129 H 0.89581 0.58416 0.62081 0.0
C2130 C 0.88719 0.7126 0.66315 0.0
C2131 C 0.8611 0.70022 0.66326 0.0
C2132 C 0.90449 0.70176 0.64941 0.0
C2133 C 0.89598 0.67846 0.63532 0.0
C2134 C 0.86975 0.66652 0.63485 0.0
C2135 C 0.85254 0.67727 0.64855 0.0
C2136 C 0.91451 0.66548 0.62233 0.0
C2137 C 0.91755 0.63942 0.63041 0.0
C2138 C 0.92919 0.67833 0.60248 0.0
C2139 C 0.92649 0.70564 0.59258 0.0
C2140 C 0.90157 0.71275 0.58138 0.0
C2141 C 0.89917 0.73859 0.57229 0.0
C2142 C 0.92158 0.75747 0.57411 0.0
C2143 C 0.94645 0.75052 0.58495 0.0
C2144 C 0.94895 0.7247 0.59409 0.0
C2145 C 0.96938 0.58317 0.56405 0.0
C2146 C 0.99687 0.59038 0.56658 0.0
C2147 C 0.95346 0.59973 0.57252 0.0
C2148 C 0.96476 0.62361 0.58434 0.0
C2149 C 0.99198 0.63183 0.58485 0.0
C2150 C 1.00796 0.61529 0.57598 0.0
C2151 C 0.94854 0.63829 0.5986 0.0
C2152 C 0.94613 0.6646 0.59097 0.0
C2153 C 0.93451 0.6258 0.61912 0.0
C2154 C 0.93764 0.59868 0.62962 0.0
C2155 C 0.96285 0.59191 0.64021 0.0
C2156 C 0.96575 0.56619 0.6494 0.0
C2157 C 0.94356 0.5471 0.64835 0.0
C2158 C 0.91842 0.55372 0.63818 0.0
C2159 C 0.91541 0.5794 0.62891 0.0
H2160 H 0.94586 0.52719 0.65545 0.0
H2161 H 0.91968 0.77747 0.56706 0.0
H2162 H 0.33786 0.8852 0.63353 0.0
H2163 H 0.35017 0.90834 0.59188 0.0
H2164 H 0.40608 0.85453 0.58854 0.0
H2165 H 0.39349 0.83121 0.62951 0.0
H2166 H 0.39829 0.93342 0.59147 0.0
H2167 H 0.41955 0.84959 0.52645 0.0
H2168 H 0.39768 0.80645 0.5105 0.0
H2169 H 0.32231 0.82681 0.5204 0.0
H2170 H 0.3436 0.87035 0.53586 0.0
H2171 H 0.51679 0.92897 0.5336 0.0
H2172 H 0.47312 0.90626 0.53944 0.0
H2173 H 0.43813 0.97574 0.51018 0.0
H2174 H 0.48182 0.99898 0.50558 0.0
H2175 H 0.42042 0.89562 0.50994 0.0
H2176 H 0.40727 0.9886 0.54904 0.0
H2177 H 0.43417 0.0302 0.56442 0.0
H2178 H 0.49451 0.98763 0.60825 0.0
H2179 H 0.46821 0.94591 0.5926 0.0
C2180 C 0.35219 0.87791 0.62336 0.0
C2181 C 0.36501 0.85666 0.63484 0.0
C2182 C 0.35918 0.89112 0.59962 0.0
C2183 C 0.37884 0.88303 0.58693 0.0
C2184 C 0.39046 0.86084 0.59757 0.0
C2185 C 0.38357 0.84775 0.62125 0.0
C2186 C 0.39079 0.89995 0.56583 0.0
C2187 C 0.40211 0.92547 0.57299 0.0
C2188 C 0.39623 0.88951 0.54193 0.0
C2189 C 0.38324 0.86333 0.53241 0.0
C2190 C 0.39828 0.84502 0.52502 0.0
C2191 C 0.38598 0.82044 0.51609 0.0
C2192 C 0.35863 0.81387 0.51448 0.0
C2193 C 0.34351 0.8319 0.52172 0.0
C2194 C 0.35569 0.85654 0.53059 0.0
C2195 C 0.49975 0.9393 0.5281 0.0
C2196 C 0.50276 0.96594 0.51999 0.0
C2197 C 0.47478 0.92621 0.53106 0.0
C2198 C 0.45254 0.9395 0.52559 0.0
C2199 C 0.45516 0.96532 0.5149 0.0
C2200 C 0.48015 0.9786 0.51255 0.0
C2201 C 0.42834 0.92816 0.53644 0.0
C2202 C 0.41511 0.90385 0.52752 0.0
C2203 C 0.42104 0.93953 0.55875 0.0
C2204 C 0.43576 0.96429 0.56989 0.0
C2205 C 0.42617 0.98819 0.56216 0.0
C2206 C 0.44144 1.01175 0.57063 0.0
C2207 C 0.46602 1.01152 0.58728 0.0
C2208 C 0.47546 0.98776 0.59538 0.0
C2209 C 0.46044 0.96419 0.58666 0.0
H2210 H 0.47767 0.02971 0.59416 0.0
H2211 H 0.34915 0.79482 0.50761 0.0
H2212 H 0.25213 0.33003 0.69608 0.0
H2213 H 0.22496 0.35965 0.66682 0.0
H2214 H 0.18983 0.37548 0.7359 0.0
H2215 H 0.21676 0.34685 0.76502 0.0
H2216 H 0.15273 0.36024 0.68815 0.0
H2217 H 0.23318 0.41932 0.71622 0.0
H2218 H 0.28096 0.43452 0.71963 0.0
H2219 H 0.27348 0.43971 0.63206 0.0
H2220 H 0.22569 0.42423 0.62815 0.0
H2221 H 0.0806 0.46663 0.64995 0.0
H2222 H 0.11288 0.43926 0.67395 0.0
H2223 H 0.14928 0.44113 0.60161 0.0
H2224 H 0.11754 0.46861 0.57769 0.0
H2225 H 0.18659 0.44543 0.64628 0.0
H2226 H 0.10654 0.38982 0.61711 0.0
H2227 H 0.05884 0.37373 0.61219 0.0
H2228 H 0.06563 0.35936 0.69905 0.0
H2229 H 0.11307 0.37638 0.70463 0.0
C2230 C 0.2388 0.34004 0.70504 0.0
C2231 C 0.23676 0.33594 0.73298 0.0
C2232 C 0.22329 0.35694 0.68831 0.0
C2233 C 0.20528 0.3697 0.69919 0.0
C2234 C 0.20348 0.36579 0.72702 0.0
C2235 C 0.2191 0.34938 0.7437 0.0
C2236 C 0.18755 0.38667 0.68194 0.0
C2237 C 0.16011 0.37896 0.67913 0.0
C2238 C 0.1972 0.41072 0.66949 0.0
C2239 C 0.22593 0.4201 0.67189 0.0
C2240 C 0.24177 0.42337 0.69769 0.0
C2241 C 0.26885 0.43214 0.69971 0.0
C2242 C 0.28029 0.43794 0.67608 0.0
C2243 C 0.26463 0.4351 0.65036 0.0
C2244 C 0.23754 0.42632 0.64823 0.0
C2245 C 0.09567 0.46152 0.63926 0.0
C2246 C 0.09628 0.46982 0.61182 0.0
C2247 C 0.11406 0.44573 0.65296 0.0
C2248 C 0.13338 0.43783 0.6395 0.0
C2249 C 0.13464 0.44691 0.61248 0.0
C2250 C 0.11631 0.46262 0.59879 0.0
C2251 C 0.15165 0.41935 0.65317 0.0
C2252 C 0.17914 0.42667 0.65516 0.0
C2253 C 0.14206 0.39475 0.66465 0.0
C2254 C 0.11336 0.38472 0.66133 0.0
C2255 C 0.09779 0.38361 0.63522 0.0
C2256 C 0.07075 0.37434 0.6323 0.0
C2257 C 0.05912 0.36572 0.6553 0.0
C2258 C 0.07453 0.36629 0.68125 0.0
C2259 C 0.1015 0.37581 0.68432 0.0
H2260 H 0.0382 0.35848 0.65301 0.0
H2261 H 0.30125 0.44474 0.67769 0.0
H2262 H 0.73736 0.26532 0.6907 0.0
H2263 H 0.7125 0.23197 0.65992 0.0
H2264 H 0.73352 0.17134 0.71971 0.0
H2265 H 0.75817 0.2049 0.75106 0.0
H2266 H 0.73623 0.15979 0.66233 0.0
H2267 H 0.67552 0.18462 0.71608 0.0
H2268 H 0.6533 0.21572 0.73676 0.0
H2269 H 0.62327 0.24592 0.65692 0.0
H2270 H 0.64568 0.21526 0.63576 0.0
H2271 H 0.63776 0.06491 0.58465 0.0
H2272 H 0.66791 0.09011 0.62042 0.0
H2273 H 0.63593 0.16037 0.58832 0.0
H2274 H 0.60598 0.13561 0.55333 0.0
H2275 H 0.63988 0.16283 0.63732 0.0
H2276 H 0.70317 0.13989 0.58297 0.0
H2277 H 0.72719 0.10992 0.56278 0.0
H2278 H 0.75328 0.07702 0.64238 0.0
H2279 H 0.72916 0.10642 0.66314 0.0
C2280 C 0.73693 0.24491 0.69735 0.0
C2281 C 0.74974 0.23792 0.72356 0.0
C2282 C 0.72262 0.22577 0.67963 0.0
C2283 C 0.7209 0.19897 0.68734 0.0
C2284 C 0.7345 0.1918 0.71312 0.0
C2285 C 0.74854 0.21104 0.73111 0.0
C2286 C 0.7037 0.17894 0.66895 0.0
C2287 C 0.71509 0.16022 0.65704 0.0
C2288 C 0.67612 0.17946 0.66171 0.0
C2289 C 0.66248 0.1978 0.67435 0.0
C2290 C 0.66436 0.19804 0.70294 0.0
C2291 C 0.6517 0.21557 0.71475 0.0
C2292 C 0.63693 0.23283 0.69817 0.0
C2293 C 0.63474 0.23256 0.66974 0.0
C2294 C 0.6474 0.2151 0.65783 0.0
C2295 C 0.63744 0.08581 0.58499 0.0
C2296 C 0.61924 0.09803 0.56578 0.0
C2297 C 0.65487 0.10036 0.60553 0.0
C2298 C 0.65481 0.12762 0.60724 0.0
C2299 C 0.63673 0.13957 0.58785 0.0
C2300 C 0.61949 0.12521 0.56754 0.0
C2301 C 0.67238 0.14405 0.62934 0.0
C2302 C 0.66101 0.16218 0.64228 0.0
C2303 C 0.69998 0.14302 0.63724 0.0
C2304 C 0.71409 0.12514 0.62458 0.0
C2305 C 0.71384 0.12612 0.59616 0.0
C2306 C 0.72751 0.10928 0.58461 0.0
C2307 C 0.74168 0.0916 0.60124 0.0
C2308 C 0.74225 0.09069 0.6295 0.0
C2309 C 0.72858 0.10741 0.64118 0.0
H2310 H 0.75227 0.07865 0.59222 0.0
H2311 H 0.62714 0.24638 0.70735 0.0
H2312 H 0.84816 0.32164 0.31031 0.0
H2313 H 0.88528 0.35 0.33637 0.0
H2314 H 0.83242 0.371 0.38756 0.0
H2315 H 0.79583 0.34338 0.36176 0.0
H2316 H 0.86457 0.41299 0.37688 0.0
H2317 H 0.87421 0.32414 0.40786 0.0
H2318 H 0.87913 0.27806 0.40216 0.0
H2319 H 0.95176 0.30272 0.37101 0.0
H2320 H 0.94704 0.34899 0.37613 0.0
H2321 H 0.95806 0.46173 0.49265 0.0
H2322 H 0.92189 0.43507 0.46369 0.0
H2323 H 0.97671 0.41903 0.41226 0.0
H2324 H 1.01253 0.44521 0.44075 0.0
H2325 H 0.94437 0.3751 0.4219 0.0
H2326 H 0.93515 0.46427 0.39291 0.0
H2327 H 0.93001 0.51004 0.39944 0.0
H2328 H 0.85606 0.48457 0.42768 0.0
H2329 H 0.86103 0.4385 0.42181 0.0
C2330 C 0.84453 0.3326 0.3269 0.0
C2331 C 0.81905 0.3302 0.33395 0.0
C2332 C 0.86575 0.34869 0.34194 0.0
C2333 C 0.86182 0.36259 0.36426 0.0
C2334 C 0.83616 0.36068 0.37054 0.0
C2335 C 0.81518 0.34471 0.35572 0.0
C2336 C 0.88417 0.37848 0.38191 0.0
C2337 C 0.8819 0.40457 0.38687 0.0
C2338 C 0.90707 0.36783 0.39486 0.0
C2339 C 0.91012 0.34003 0.39208 0.0
C2340 C 0.89114 0.31974 0.39962 0.0
C2341 C 0.89389 0.29359 0.39651 0.0
C2342 C 0.9157 0.28747 0.38615 0.0
C2343 C 0.93485 0.30749 0.37897 0.0
C2344 C 0.93215 0.33368 0.38198 0.0
C2345 C 0.96239 0.45243 0.47524 0.0
C2346 C 0.98829 0.45585 0.46909 0.0
C2347 C 0.94167 0.43725 0.4586 0.0
C2348 C 0.94645 0.42507 0.43555 0.0
C2349 C 0.97237 0.42809 0.42982 0.0
C2350 C 0.99289 0.44331 0.44618 0.0
C2351 C 0.92466 0.40952 0.41697 0.0
C2352 C 0.92706 0.38352 0.41185 0.0
C2353 C 0.90182 0.42021 0.40398 0.0
C2354 C 0.8986 0.44791 0.4072 0.0
C2355 C 0.91789 0.4684 0.40071 0.0
C2356 C 0.91499 0.49442 0.40428 0.0
C2357 C 0.89273 0.50023 0.41403 0.0
C2358 C 0.8733 0.48003 0.42017 0.0
C2359 C 0.87615 0.45396 0.41673 0.0
H2360 H 0.89049 0.52037 0.4168 0.0
H2361 H 0.91779 0.26721 0.38374 0.0
H2362 H 0.71631 0.87052 0.27284 0.0
H2363 H 0.69196 0.89879 0.29402 0.0
H2364 H 0.71243 0.85926 0.37191 0.0
H2365 H 0.73616 0.83036 0.3503 0.0
H2366 H 0.66703 0.87048 0.37424 0.0
H2367 H 0.74038 0.93242 0.35269 0.0
H2368 H 0.77125 0.95344 0.32233 0.0
H2369 H 0.70585 0.9749 0.26434 0.0
H2370 H 0.67465 0.95373 0.29423 0.0
H2371 H 0.64344 0.96872 0.45869 0.0
H2372 H 0.66434 0.94297 0.43166 0.0
H2373 H 0.61776 0.96996 0.35824 0.0
H2374 H 0.59541 0.99577 0.38587 0.0
H2375 H 0.67422 0.96583 0.35144 0.0
H2376 H 0.60207 0.90875 0.38163 0.0
H2377 H 0.5747 0.88799 0.41531 0.0
H2378 H 0.64188 0.85621 0.46073 0.0
H2379 H 0.66978 0.87714 0.42753 0.0
C2380 C 0.71591 0.86774 0.2945 0.0
C2381 C 0.7289 0.84764 0.30933 0.0
C2382 C 0.70189 0.88445 0.30702 0.0
C2383 C 0.7002 0.88251 0.33541 0.0
C2384 C 0.71288 0.8621 0.35019 0.0
C2385 C 0.72679 0.84527 0.33759 0.0
C2386 C 0.68526 0.90114 0.3494 0.0
C2387 C 0.66907 0.89132 0.36919 0.0
C2388 C 0.68669 0.92878 0.34353 0.0
C2389 C 0.70526 0.94183 0.32573 0.0
C2390 C 0.73264 0.94173 0.33347 0.0
C2391 C 0.75018 0.95359 0.31632 0.0
C2392 C 0.74052 0.96561 0.29143 0.0
C2393 C 0.71331 0.96573 0.28364 0.0
C2394 C 0.6957 0.95395 0.30072 0.0
C2395 C 0.63721 0.96969 0.43677 0.0
C2396 C 0.61697 0.98507 0.42526 0.0
C2397 C 0.64957 0.95447 0.42103 0.0
C2398 C 0.64307 0.95356 0.39233 0.0
C2399 C 0.62369 0.96971 0.38021 0.0
C2400 C 0.61078 0.98487 0.39624 0.0
C2401 C 0.65604 0.93506 0.37619 0.0
C2402 C 0.67203 0.94494 0.35625 0.0
C2403 C 0.65481 0.90749 0.38233 0.0
C2404 C 0.63807 0.8947 0.40221 0.0
C2405 C 0.61106 0.8975 0.39891 0.0
C2406 C 0.59544 0.88567 0.4179 0.0
C2407 C 0.60655 0.87083 0.44017 0.0
C2408 C 0.6333 0.86773 0.44347 0.0
C2409 C 0.64903 0.87956 0.42456 0.0
H2410 H 0.59443 0.86169 0.45485 0.0
H2411 H 0.75411 0.97479 0.27819 0.0
H2412 H 0.20725 0.76761 0.34972 0.0
H2413 H 0.17957 0.73815 0.37749 0.0
H2414 H 0.22524 0.67611 0.37043 0.0
H2415 H 0.25255 0.70528 0.34241 0.0
H2416 H 0.17639 0.6551 0.36514 0.0
H2417 H 0.22819 0.71351 0.43251 0.0
H2418 H 0.24518 0.75658 0.45215 0.0
H2419 H 0.16579 0.7708 0.45427 0.0
H2420 H 0.14832 0.72791 0.43439 0.0
H2421 H 0.1329 0.56312 0.46497 0.0
H2422 H 0.15831 0.59641 0.4395 0.0
H2423 H 0.10905 0.65312 0.45355 0.0
H2424 H 0.08365 0.61958 0.48002 0.0
H2425 H 0.15674 0.67857 0.45425 0.0
H2426 H 0.10426 0.62146 0.38888 0.0
H2427 H 0.08521 0.57959 0.36761 0.0
H2428 H 0.16287 0.56445 0.35912 0.0
H2429 H 0.18244 0.60608 0.38069 0.0
C2430 C 0.21164 0.74777 0.3542 0.0
C2431 C 0.23265 0.73928 0.34364 0.0
C2432 C 0.19568 0.73074 0.37038 0.0
C2433 C 0.20007 0.70445 0.37689 0.0
C2434 C 0.22097 0.69602 0.36617 0.0
C2435 C 0.23688 0.71298 0.35004 0.0
C2436 C 0.18293 0.68556 0.39416 0.0
C2437 C 0.17256 0.6603 0.38481 0.0
C2438 C 0.17648 0.69197 0.41958 0.0
C2439 C 0.18696 0.71762 0.43173 0.0
C2440 C 0.21436 0.72589 0.43703 0.0
C2441 C 0.22407 0.75026 0.44823 0.0
C2442 C 0.20657 0.76644 0.45439 0.0
C2443 C 0.17932 0.75826 0.44946 0.0
C2444 C 0.16951 0.73391 0.43826 0.0
C2445 C 0.12729 0.58265 0.46292 0.0
C2446 C 0.10572 0.58812 0.47484 0.0
C2447 C 0.14195 0.60191 0.4479 0.0
C2448 C 0.13562 0.6277 0.44344 0.0
C2449 C 0.11465 0.6336 0.45612 0.0
C2450 C 0.09999 0.61423 0.47147 0.0
C2451 C 0.15073 0.64789 0.42547 0.0
C2452 C 0.16062 0.67336 0.43461 0.0
C2453 C 0.15648 0.64184 0.39961 0.0
C2454 C 0.14483 0.61678 0.38665 0.0
C2455 C 0.11729 0.60911 0.38266 0.0
C2456 C 0.1064 0.58543 0.37052 0.0
C2457 C 0.12283 0.56934 0.36208 0.0
C2458 C 0.15018 0.57692 0.3657 0.0
C2459 C 0.16118 0.60056 0.37787 0.0
H2460 H 0.11435 0.55102 0.35268 0.0
H2461 H 0.21413 0.78531 0.46304 0.0
H2462 H 0.33313 0.19662 0.28109 0.0
H2463 H 0.36639 0.1683 0.30093 0.0
H2464 H 0.3977 0.22397 0.36314 0.0
H2465 H 0.36396 0.25201 0.34379 0.0
H2466 H 0.43898 0.20506 0.34179 0.0
H2467 H 0.36068 0.16608 0.37799 0.0
H2468 H 0.31407 0.14603 0.37443 0.0
H2469 H 0.32958 0.08453 0.32739 0.0
H2470 H 0.37622 0.10445 0.33033 0.0
H2471 H 0.52519 0.13318 0.43362 0.0
H2472 H 0.4924 0.15847 0.40856 0.0
H2473 H 0.45124 0.08896 0.36896 0.0
H2474 H 0.48383 0.06293 0.39602 0.0
H2475 H 0.4144 0.11373 0.37489 0.0
H2476 H 0.48997 0.1494 0.33627 0.0
H2477 H 0.53612 0.1686 0.3342 0.0
H2478 H 0.52596 0.23482 0.37774 0.0
H2479 H 0.47983 0.21587 0.38037 0.0
C2480 C 0.34699 0.203 0.29903 0.0
C2481 C 0.34529 0.22707 0.31054 0.0
C2482 C 0.36623 0.18651 0.31059 0.0
C2483 C 0.38514 0.19337 0.33402 0.0
C2484 C 0.38375 0.21764 0.34522 0.0
C2485 C 0.36416 0.23387 0.33402 0.0
C2486 C 0.40618 0.17559 0.34671 0.0
C2487 C 0.43341 0.18522 0.34933 0.0
C2488 C 0.39983 0.14898 0.35574 0.0
C2489 C 0.37188 0.13691 0.35415 0.0
C2490 C 0.35411 0.1484 0.3667 0.0
C2491 C 0.32769 0.13704 0.36483 0.0
C2492 C 0.31885 0.11406 0.35063 0.0
C2493 C 0.33644 0.10235 0.33834 0.0
C2494 C 0.36288 0.11366 0.34012 0.0
C2495 C 0.50971 0.12312 0.41895 0.0
C2496 C 0.50837 0.09571 0.41661 0.0
C2497 C 0.49056 0.13794 0.40425 0.0
C2498 C 0.46882 0.12656 0.38557 0.0
C2499 C 0.4675 0.09906 0.3827 0.0
C2500 C 0.48672 0.08397 0.39794 0.0
C2501 C 0.44752 0.14327 0.37045 0.0
C2502 C 0.42017 0.13351 0.36735 0.0
C2503 C 0.45377 0.1696 0.36017 0.0
C2504 C 0.48151 0.18108 0.35874 0.0
C2505 C 0.49763 0.16797 0.34557 0.0
C2506 C 0.52378 0.17882 0.34427 0.0
C2507 C 0.53398 0.20288 0.3559 0.0
C2508 C 0.51804 0.21617 0.36878 0.0
C2509 C 0.49187 0.2054 0.37015 0.0
H2510 H 0.55423 0.21125 0.35487 0.0
H2511 H 0.29839 0.10529 0.3492 0.0
H2512 H 0.71219 0.84593 0.76506 0.0
H2513 H 0.68709 0.87663 0.73536 0.0
H2514 H 0.71644 0.8529 0.66575 0.0
H2515 H 0.74094 0.82162 0.69519 0.0
H2516 H 0.72109 0.90893 0.66989 0.0
H2517 H 0.65407 0.83345 0.67196 0.0
H2518 H 0.62623 0.79899 0.69477 0.0
H2519 H 0.59399 0.8576 0.73167 0.0
H2520 H 0.62194 0.89243 0.70936 0.0
H2521 H 0.64538 0.96508 0.55679 0.0
H2522 H 0.66818 0.93822 0.59185 0.0
H2523 H 0.61665 0.95265 0.64753 0.0
H2524 H 0.59251 0.97922 0.61135 0.0
H2525 H 0.62334 0.90386 0.65492 0.0
H2526 H 0.68612 0.9794 0.65293 0.0
H2527 H 0.71526 0.01599 0.63475 0.0
H2528 H 0.75749 0.96145 0.60399 0.0
H2529 H 0.72827 0.92451 0.62145 0.0
C2530 C 0.71305 0.8469 0.74336 0.0
C2531 C 0.72855 0.83084 0.73269 0.0
C2532 C 0.69863 0.86461 0.7263 0.0
C2533 C 0.69961 0.86734 0.69803 0.0
C2534 C 0.71511 0.85137 0.68735 0.0
C2535 C 0.72905 0.83323 0.70429 0.0
C2536 C 0.6851 0.88712 0.67974 0.0
C2537 C 0.69969 0.90759 0.66634 0.0
C2538 C 0.65717 0.88645 0.67592 0.0
C2539 C 0.64031 0.86554 0.68923 0.0
C2540 C 0.64122 0.83899 0.68513 0.0
C2541 C 0.62538 0.81939 0.69793 0.0
C2542 C 0.60841 0.8261 0.71473 0.0
C2543 C 0.60718 0.85243 0.71869 0.0
C2544 C 0.623 0.87211 0.70596 0.0
C2545 C 0.63875 0.96295 0.57649 0.0
C2546 C 0.61677 0.97473 0.5808 0.0
C2547 C 0.65221 0.9475 0.5969 0.0
C2548 C 0.64483 0.94331 0.62301 0.0
C2549 C 0.62313 0.95538 0.62778 0.0
C2550 C 0.60939 0.97093 0.60706 0.0
C2551 C 0.65929 0.92558 0.64436 0.0
C2552 C 0.64475 0.90545 0.65842 0.0
C2553 C 0.68742 0.92695 0.64935 0.0
C2554 C 0.70475 0.94913 0.63826 0.0
C2555 C 0.70141 0.97518 0.64201 0.0
C2556 C 0.71798 0.996 0.63186 0.0
C2557 C 0.73815 0.99105 0.61815 0.0
C2558 C 0.7418 0.96526 0.61455 0.0
C2559 C 0.72522 0.94437 0.62455 0.0
H2560 H 0.75099 1.0072 0.61037 0.0
H2561 H 0.59615 0.81089 0.72462 0.0
H2562 H 0.75921 0.18905 0.42286 0.0
H2563 H 0.76163 0.16772 0.46725 0.0
H2564 H 0.75951 0.24151 0.50319 0.0
H2565 H 0.7541 0.26237 0.45768 0.0
H2566 H 0.72075 0.21879 0.51342 0.0
H2567 H 0.75669 0.11536 0.49606 0.0
H2568 H 0.79947 0.09852 0.50387 0.0
H2569 H 0.83501 0.16549 0.55043 0.0
H2570 H 0.79236 0.1827 0.54338 0.0
H2571 H 0.6169 0.13728 0.45347 0.0
H2572 H 0.65855 0.16446 0.46947 0.0
H2573 H 0.68018 0.10384 0.52955 0.0
H2574 H 0.63984 0.0755 0.51113 0.0
H2575 H 0.72128 0.123 0.51542 0.0
H2576 H 0.65997 0.16616 0.54676 0.0
H2577 H 0.61874 0.18522 0.54729 0.0
H2578 H 0.63864 0.24156 0.48428 0.0
H2579 H 0.67949 0.22267 0.48308 0.0
C2580 C 0.75959 0.20083 0.44029 0.0
C2581 C 0.75427 0.22679 0.43661 0.0
C2582 C 0.76177 0.18871 0.46621 0.0
C2583 C 0.75882 0.20247 0.48895 0.0
C2584 C 0.76019 0.22995 0.4859 0.0
C2585 C 0.75708 0.24196 0.45974 0.0
C2586 C 0.74406 0.18792 0.50996 0.0
C2587 C 0.72119 0.19786 0.5142 0.0
C2588 C 0.74521 0.16086 0.51541 0.0
C2589 C 0.771 0.15031 0.51938 0.0
C2590 C 0.77341 0.12642 0.50834 0.0
C2591 C 0.79777 0.11684 0.5125 0.0
C2592 C 0.81993 0.13089 0.52768 0.0
C2593 C 0.81783 0.15463 0.53862 0.0
C2594 C 0.79356 0.16435 0.53449 0.0
C2595 C 0.63083 0.1297 0.46976 0.0
C2596 C 0.62535 0.1044 0.48102 0.0
C2597 C 0.65437 0.14542 0.47941 0.0
C2598 C 0.67216 0.13677 0.50165 0.0
C2599 C 0.66681 0.11119 0.5126 0.0
C2600 C 0.6438 0.09497 0.50201 0.0
C2601 C 0.69702 0.15403 0.51181 0.0
C2602 C 0.72126 0.14396 0.51508 0.0
C2603 C 0.69735 0.18125 0.51439 0.0
C2604 C 0.67285 0.193 0.51507 0.0
C2605 C 0.65542 0.18257 0.53307 0.0
C2606 C 0.63216 0.19331 0.53344 0.0
C2607 C 0.62615 0.21458 0.5159 0.0
C2608 C 0.64337 0.22515 0.49794 0.0
C2609 C 0.66662 0.21446 0.49749 0.0
H2610 H 0.60812 0.22284 0.5162 0.0
H2611 H 0.83875 0.12339 0.53093 0.0
H2612 H 0.85098 0.65995 0.32205 0.0
H2613 H 0.8805 0.62755 0.33869 0.0
H2614 H 0.83208 0.59938 0.40002 0.0
H2615 H 0.80232 0.63169 0.38337 0.0
H2616 H 0.88253 0.61756 0.42152 0.0
H2617 H 0.84024 0.55884 0.3504 0.0
H2618 H 0.82262 0.5478 0.3026 0.0
H2619 H 0.89976 0.57023 0.28052 0.0
H2620 H 0.91779 0.58166 0.32813 0.0
H2621 H 0.96651 0.53313 0.48868 0.0
H2622 H 0.927 0.54705 0.46104 0.0
H2623 H 0.97151 0.57332 0.39592 0.0
H2624 H 1.01112 0.55864 0.42327 0.0
H2625 H 0.92158 0.55365 0.3753 0.0
H2626 H 0.96356 0.6164 0.43992 0.0
H2627 H 0.98417 0.63402 0.48464 0.0
H2628 H 0.91136 0.61103 0.51588 0.0
H2629 H 0.89037 0.59287 0.47137 0.0
C2630 C 0.84606 0.64621 0.33839 0.0
C2631 C 0.82459 0.64859 0.3517 0.0
C2632 C 0.86295 0.6277 0.34787 0.0
C2633 C 0.85852 0.61118 0.37064 0.0
C2634 C 0.83586 0.61205 0.38247 0.0
C2635 C 0.81898 0.63056 0.37304 0.0
C2636 C 0.87962 0.59642 0.38479 0.0
C2637 C 0.89054 0.60299 0.41168 0.0
C2638 C 0.89102 0.57862 0.37133 0.0
C2639 C 0.88033 0.57121 0.34282 0.0
C2640 C 0.85342 0.56152 0.33533 0.0
C2641 C 0.84336 0.55517 0.30827 0.0
C2642 C 0.86005 0.55834 0.28853 0.0
C2643 C 0.88686 0.56775 0.29583 0.0
C2644 C 0.89702 0.57411 0.32287 0.0
C2645 C 0.96784 0.54167 0.46838 0.0
C2646 C 0.99199 0.54538 0.45832 0.0
C2647 C 0.94526 0.54954 0.4526 0.0
C2648 C 0.94653 0.56178 0.42673 0.0
C2649 C 0.97019 0.56403 0.41591 0.0
C2650 C 0.99279 0.55578 0.43159 0.0
C2651 C 0.92388 0.57427 0.41228 0.0
C2652 C 0.91303 0.56767 0.38533 0.0
C2653 C 0.91286 0.59265 0.42537 0.0
C2654 C 0.92547 0.60304 0.45238 0.0
C2655 C 0.95201 0.61484 0.4564 0.0
C2656 C 0.96374 0.62497 0.48168 0.0
C2657 C 0.94907 0.62367 0.50306 0.0
C2658 C 0.92268 0.61204 0.49927 0.0
C2659 C 0.91084 0.60182 0.47402 0.0
H2660 H 0.95815 0.63181 0.52249 0.0
H2661 H 0.85222 0.55347 0.26758 0.0
H2662 H 0.33584 0.85421 0.30447 0.0
H2663 H 0.36924 0.88619 0.32919 0.0
H2664 H 0.36226 0.84122 0.40456 0.0
H2665 H 0.33019 0.80804 0.37928 0.0
H2666 H 0.37475 0.91874 0.3653 0.0
H2667 H 0.41859 0.84714 0.44821 0.0
H2668 H 0.42279 0.80009 0.45533 0.0
H2669 H 0.41849 0.79305 0.36886 0.0
H2670 H 0.41451 0.8401 0.36129 0.0
H2671 H 0.47877 0.99421 0.45316 0.0
H2672 H 0.43855 0.96558 0.43465 0.0
H2673 H 0.4862 0.91531 0.40423 0.0
H2674 H 0.52621 0.94274 0.42435 0.0
H2675 H 0.45118 0.88612 0.42463 0.0
H2676 H 0.44846 0.96177 0.36281 0.0
H2677 H 0.4482 1.0088 0.3506 0.0
H2678 H 0.37684 1.00758 0.38447 0.0
H2679 H 0.37689 0.96061 0.39722 0.0
C2680 C 0.34133 0.8512 0.32636 0.0
C2681 C 0.33071 0.82847 0.33994 0.0
C2682 C 0.36041 0.86961 0.34055 0.0
C2683 C 0.36891 0.866 0.36877 0.0
C2684 C 0.35683 0.84414 0.38268 0.0
C2685 C 0.33833 0.82526 0.3683 0.0
C2686 C 0.39135 0.88437 0.38299 0.0
C2687 C 0.39142 0.91155 0.37832 0.0
C2688 C 0.41339 0.87526 0.39985 0.0
C2689 C 0.41597 0.84702 0.40419 0.0
C2690 C 0.41861 0.83554 0.43075 0.0
C2691 C 0.42094 0.80888 0.43485 0.0
C2692 C 0.42082 0.79357 0.41255 0.0
C2693 C 0.41848 0.80491 0.3861 0.0
C2694 C 0.41617 0.83156 0.38189 0.0
C2695 C 0.48057 0.97708 0.44243 0.0
C2696 C 0.50563 0.97065 0.44031 0.0
C2697 C 0.45755 0.96076 0.43171 0.0
C2698 C 0.45916 0.93825 0.41775 0.0
C2699 C 0.48427 0.93233 0.41508 0.0
C2700 C 0.50719 0.94815 0.42644 0.0
C2701 C 0.435 0.92044 0.40623 0.0
C2702 C 0.43448 0.89335 0.41168 0.0
C2703 C 0.41311 0.92963 0.38922 0.0
C2704 C 0.41284 0.95776 0.38123 0.0
C2705 C 0.4328 0.97158 0.36779 0.0
C2706 C 0.43269 0.99821 0.36076 0.0
C2707 C 0.41257 1.01119 0.36683 0.0
C2708 C 0.39245 0.99752 0.37983 0.0
C2709 C 0.3925 0.97089 0.38695 0.0
H2710 H 0.41253 0.03182 0.36141 0.0
H2711 H 0.42261 0.77294 0.41577 0.0
H2712 H 0.19876 0.30531 0.4005 0.0
H2713 H 0.1682 0.31465 0.43003 0.0
H2714 H 0.22562 0.37766 0.46491 0.0
H2715 H 0.25689 0.36747 0.43666 0.0
H2716 H 0.19787 0.35492 0.50298 0.0
H2717 H 0.17793 0.38808 0.40908 0.0
H2718 H 0.16703 0.3839 0.35909 0.0
H2719 H 0.09697 0.33086 0.36894 0.0
H2720 H 0.10766 0.3345 0.41905 0.0
H2721 H 0.13245 0.46299 0.5146 0.0
H2722 H 0.15813 0.42903 0.50602 0.0
H2723 H 0.08687 0.37349 0.49371 0.0
H2724 H 0.06105 0.4075 0.50302 0.0
H2725 H 0.11542 0.38123 0.44911 0.0
H2726 H 0.13079 0.36019 0.54354 0.0
H2727 H 0.14197 0.36833 0.59279 0.0
H2728 H 0.22078 0.40159 0.58229 0.0
H2729 H 0.20993 0.39431 0.53284 0.0
C2730 C 0.20524 0.32067 0.41499 0.0
C2731 C 0.23019 0.33595 0.41579 0.0
C2732 C 0.18762 0.32611 0.43175 0.0
C2733 C 0.19439 0.34722 0.44929 0.0
C2734 C 0.21987 0.36137 0.45144 0.0
C2735 C 0.2376 0.35576 0.43493 0.0
C2736 C 0.1742 0.35659 0.46301 0.0
C2737 C 0.1798 0.36064 0.49127 0.0
C2738 C 0.15026 0.36341 0.44786 0.0
C2739 C 0.14377 0.36129 0.41777 0.0
C2740 C 0.1603 0.37539 0.40057 0.0
C2741 C 0.15416 0.37314 0.37223 0.0
C2742 C 0.13137 0.35705 0.36085 0.0
C2743 C 0.11465 0.34326 0.37779 0.0
C2744 C 0.12074 0.3454 0.40615 0.0
C2745 C 0.12239 0.44335 0.51075 0.0
C2746 C 0.09485 0.43778 0.5093 0.0
C2747 C 0.13707 0.42394 0.50602 0.0
C2748 C 0.12439 0.39875 0.49933 0.0
C2749 C 0.09699 0.39279 0.49905 0.0
C2750 C 0.08232 0.41214 0.5044 0.0
C2751 C 0.13944 0.3803 0.48888 0.0
C2752 C 0.13299 0.3747 0.4611 0.0
C2753 C 0.16267 0.37243 0.50446 0.0
C2754 C 0.16947 0.37678 0.53433 0.0
C2755 C 0.15045 0.36947 0.55164 0.0
C2756 C 0.15672 0.37393 0.57962 0.0
C2757 C 0.18205 0.38547 0.59066 0.0
C2758 C 0.20115 0.39264 0.57371 0.0
C2759 C 0.19495 0.38834 0.54568 0.0
H2760 H 0.18688 0.38876 0.61234 0.0
H2761 H 0.12664 0.35534 0.3389 0.0
H2762 H 0.41885 0.19943 0.71204 0.0
H2763 H 0.44636 0.17512 0.69012 0.0
H2764 H 0.37847 0.14704 0.63157 0.0
H2765 H 0.35084 0.17117 0.65344 0.0
H2766 H 0.40478 0.10839 0.64367 0.0
H2767 H 0.43321 0.19779 0.61789 0.0
H2768 H 0.45068 0.24427 0.62528 0.0
H2769 H 0.52194 0.22201 0.67258 0.0
H2770 H 0.50474 0.17537 0.66577 0.0
H2771 H 0.47401 0.07139 0.54009 0.0
H2772 H 0.44766 0.0907 0.56829 0.0
H2773 H 0.51569 0.10342 0.63132 0.0
H2774 H 0.54199 0.08315 0.60329 0.0
H2775 H 0.49102 0.14885 0.61915 0.0
H2776 H 0.46284 0.0605 0.6469 0.0
H2777 H 0.44452 1.01374 0.64401 0.0
H2778 H 0.3737 0.03399 0.59403 0.0
H2779 H 0.39149 0.08093 0.59694 0.0
C2780 C 0.40961 0.18835 0.69433 0.0
C2781 C 0.38216 0.1877 0.68485 0.0
C2782 C 0.4256 0.17429 0.6816 0.0
C2783 C 0.41504 0.15914 0.65853 0.0
C2784 C 0.38761 0.15828 0.6492 0.0
C2785 C 0.37159 0.17222 0.66198 0.0
C2786 C 0.43217 0.14401 0.64439 0.0
C2787 C 0.42342 0.11759 0.638 0.0
C2788 C 0.4572 0.15508 0.63742 0.0
C2789 C 0.46756 0.18308 0.64157 0.0
C2790 C 0.45252 0.2028 0.63004 0.0
C2791 C 0.46238 0.22918 0.6341 0.0
C2792 C 0.48737 0.23609 0.64946 0.0
C2793 C 0.50257 0.21663 0.66073 0.0
C2794 C 0.49278 0.19022 0.65677 0.0
C2795 C 0.48327 0.07757 0.5603 0.0
C2796 C 0.5102 0.07499 0.56943 0.0
C2797 C 0.46807 0.08881 0.57652 0.0
C2798 C 0.47931 0.09878 0.6023 0.0
C2799 C 0.50617 0.09595 0.61169 0.0
C2800 C 0.52125 0.08399 0.5957 0.0
C2801 C 0.46342 0.11343 0.61828 0.0
C2802 C 0.47237 0.13975 0.62486 0.0
C2803 C 0.43858 0.10231 0.62545 0.0
C2804 C 0.42859 0.07418 0.62193 0.0
C2805 C 0.44347 0.05496 0.63508 0.0
C2806 C 0.43306 0.02845 0.63369 0.0
C2807 C 0.40791 0.0209 0.61894 0.0
C2808 C 0.39314 0.03986 0.60552 0.0
C2809 C 0.40332 0.06642 0.60712 0.0
H2810 H 0.39997 1.00036 0.61776 0.0
H2811 H 0.49497 0.25652 0.65256 0.0
H2812 H 0.8203 0.35519 0.72422 0.0
H2813 H 0.85036 0.37842 0.69483 0.0
H2814 H 0.89501 0.31329 0.70404 0.0
H2815 H 0.86493 0.28994 0.73375 0.0
H2816 H 0.9292 0.35749 0.7059 0.0
H2817 H 0.8517 0.32765 0.64298 0.0
H2818 H 0.80414 0.32165 0.62404 0.0
H2819 H 0.80539 0.40503 0.61456 0.0
H2820 H 0.85289 0.41155 0.6338 0.0
H2821 H 1.00621 0.41233 0.60077 0.0
H2822 H 0.97657 0.38273 0.62685 0.0
H2823 H 0.92437 0.44146 0.62116 0.0
H2824 H 0.95345 0.47056 0.59524 0.0
H2825 H 0.89442 0.39716 0.61615 0.0
H2826 H 0.97098 0.42744 0.68033 0.0
H2827 H 0.01824 0.43416 0.70036 0.0
H2828 H 0.01862 0.35092 0.70855 0.0
H2829 H 0.97154 0.3437 0.68791 0.0
C2830 C 0.83639 0.34558 0.72 0.0
C2831 C 0.83971 0.32033 0.73158 0.0
C2832 C 0.85373 0.35901 0.70289 0.0
C2833 C 0.87524 0.34784 0.69644 0.0
C2834 C 0.8788 0.32272 0.70827 0.0
C2835 C 0.86134 0.30919 0.72532 0.0
C2836 C 0.89378 0.36236 0.67761 0.0
C2837 C 0.92147 0.36573 0.68608 0.0
C2838 C 0.88434 0.37391 0.6517 0.0
C2839 C 0.8558 0.37008 0.64006 0.0
C2840 C 0.84179 0.34471 0.63704 0.0
C2841 C 0.81485 0.34122 0.62622 0.0
C2842 C 0.80174 0.36295 0.61817 0.0
C2843 C 0.81556 0.38822 0.62084 0.0
C2844 C 0.8425 0.39183 0.63168 0.0
C2845 C 0.98814 0.41874 0.60455 0.0
C2846 C 0.98247 0.4441 0.59546 0.0
C2847 C 0.9712 0.40183 0.61994 0.0
C2848 C 0.94791 0.40959 0.62672 0.0
C2849 C 0.9419 0.43449 0.61662 0.0
C2850 C 0.95878 0.45132 0.6016 0.0
C2851 C 0.9299 0.39255 0.6445 0.0
C2852 C 0.90224 0.38876 0.63587 0.0
C2853 C 0.93939 0.38074 0.67028 0.0
C2854 C 0.96782 0.38503 0.68223 0.0
C2855 C 0.98123 0.41056 0.68608 0.0
C2856 C 1.00799 0.41447 0.69757 0.0
C2857 C 0.02146 0.39299 0.70563 0.0
C2858 C 1.00821 0.36755 0.70219 0.0
C2859 C 0.9815 0.36354 0.69055 0.0
H2860 H 0.04215 0.39608 0.71465 0.0
H2861 H 0.78088 0.3602 0.6098 0.0
H2862 H 0.28579 0.7041 0.7186 0.0
H2863 H 0.25559 0.67134 0.69108 0.0
H2864 H 0.19007 0.71224 0.69808 0.0
H2865 H 0.2204 0.74537 0.72535 0.0
H2866 H 0.2151 0.6372 0.70076 0.0
H2867 H 0.14447 0.70537 0.63993 0.0
H2868 H 0.14587 0.75136 0.62278 0.0
H2869 H 0.22908 0.75588 0.62092 0.0
H2870 H 0.22811 0.70984 0.63769 0.0
H2871 H 0.09455 0.56559 0.64106 0.0
H2872 H 0.12916 0.59679 0.66519 0.0
H2873 H 0.15815 0.62052 0.58963 0.0
H2874 H 0.12315 0.58933 0.56505 0.0
H2875 H 0.15473 0.66274 0.61801 0.0
H2876 H 0.1924 0.58344 0.63735 0.0
H2877 H 0.19355 0.53708 0.65212 0.0
H2878 H 0.18164 0.55409 0.73243 0.0
H2879 H 0.18 0.60049 0.71801 0.0
C2880 C 0.26494 0.70613 0.71428 0.0
C2881 C 0.2555 0.72742 0.72399 0.0
C2882 C 0.24766 0.68731 0.69859 0.0
C2883 C 0.22053 0.68938 0.69215 0.0
C2884 C 0.21096 0.7104 0.70232 0.0
C2885 C 0.22828 0.72927 0.71802 0.0
C2886 C 0.20237 0.6695 0.67485 0.0
C2887 C 0.2019 0.64284 0.6827 0.0
C2888 C 0.18552 0.67665 0.65083 0.0
C2889 C 0.18624 0.70423 0.64033 0.0
C2890 C 0.16304 0.71615 0.63575 0.0
C2891 C 0.16376 0.74223 0.62611 0.0
C2892 C 0.18756 0.75656 0.62085 0.0
C2893 C 0.21068 0.7448 0.6251 0.0
C2894 C 0.21005 0.71872 0.6347 0.0
C2895 C 0.10836 0.57724 0.62947 0.0
C2896 C 0.10598 0.57483 0.60101 0.0
C2897 C 0.12826 0.59508 0.6434 0.0
C2898 C 0.14644 0.61097 0.62933 0.0
C2899 C 0.14437 0.60849 0.60096 0.0
C2900 C 0.12446 0.59049 0.58695 0.0
C2901 C 0.16705 0.63054 0.64433 0.0
C2902 C 0.16797 0.65713 0.63606 0.0
C2903 C 0.18468 0.62329 0.66768 0.0
C2904 C 0.18587 0.59543 0.67652 0.0
C2905 C 0.18984 0.57727 0.6581 0.0
C2906 C 0.1906 0.55098 0.66642 0.0
C2907 C 0.18762 0.54263 0.69318 0.0
C2908 C 0.18393 0.56058 0.7117 0.0
C2909 C 0.18311 0.58688 0.70347 0.0
H2910 H 0.18821 0.52227 0.69958 0.0
H2911 H 0.18809 0.77675 0.61342 0.0
loop_
_geom_bond_atom_site_label_1
_geom_bond_atom_site_label_2
_geom_bond_distance
_geom_bond_site_symmetry_2
_ccdc_geom_bond_type
C0 Eu1 2.835 . S
C0 C2 1.500 . S
C0 O20 1.257 . S
C0 O21 1.260 . S
Eu1 C0 2.835 . S
Eu1 O20 2.473 . S
Eu1 O21 2.480 . S
Eu1 O22 2.430 . S
Eu1 O23 2.670 . S
Eu1 O24 2.394 . S
Eu1 O29 2.355 . S
Eu1 O31 2.374 . S
C2 C0 1.500 . S
C2 C3 1.377 . S
C2 C7 1.377 . S
C3 C2 1.377 . S
C3 C4 1.395 . S
C3 H32 0.931 . S
C4 C3 1.395 . S
C4 C5 1.383 . S
C4 H33 0.931 . S
C5 C4 1.383 . S
C5 C6 1.394 . S
C6 C5 1.394 . S
C6 C7 1.378 . S
C6 H34 0.931 . S
C7 C2 1.377 . S
C7 C6 1.378 . S
C7 H35 0.931 . S
C8 O22 1.259 . S
C8 O23 1.270 . S
C9 O24 1.251 . S
C9 O25 1.251 . S
C10 Eu11 2.835 . S
C10 C12 1.500 . S
C10 O26 1.257 . S
C10 O27 1.260 . S
Eu11 C10 2.835 . S
Eu11 O23 2.355 . S
Eu11 O25 2.374 . S
Eu11 O26 2.473 . S
Eu11 O27 2.480 . S
Eu11 O28 2.430 . S
Eu11 O29 2.670 . S
Eu11 O30 2.394 . S
C12 C10 1.500 . S
C12 C13 1.377 . S
C12 C17 1.377 . S
C13 C12 1.377 . S
C13 C14 1.395 . S
C13 H36 0.931 . S
C14 C13 1.395 . S
C14 C15 1.383 . S
C14 H37 0.931 . S
C15 C14 1.383 . S
C15 C16 1.394 . S
C16 C15 1.394 . S
C16 C17 1.378 . S
C16 H38 0.931 . S
C17 C12 1.377 . S
C17 C16 1.378 . S
C17 H39 0.931 . S
C18 O28 1.259 . S
C18 O29 1.270 . S
C19 O30 1.251 . S
C19 O31 1.251 . S
O20 C0 1.257 . S
O20 Eu1 2.473 . S
O21 C0 1.260 . S
O21 Eu1 2.480 . S
O22 Eu1 2.430 . S
O22 C8 1.259 . S
O23 Eu1 2.670 . S
O23 C8 1.270 . S
O23 Eu11 2.355 . S
O24 Eu1 2.394 . S
O24 C9 1.251 . S
O25 C9 1.251 . S
O25 Eu11 2.374 . S
O26 C10 1.257 . S
O26 Eu11 2.473 . S
O27 C10 1.260 . S
O27 Eu11 2.480 . S
O28 Eu11 2.430 . S
O28 C18 1.259 . S
O29 Eu1 2.355 . S
O29 Eu11 2.670 . S
O29 C18 1.270 . S
O30 Eu11 2.394 . S
O30 C19 1.251 . S
O31 Eu1 2.374 . S
O31 C19 1.251 . S
H32 C3 0.931 . S
H33 C4 0.931 . S
H34 C6 0.931 . S
H35 C7 0.931 . S
H36 C13 0.931 . S
H37 C14 0.931 . S
H38 C16 0.931 . S
H39 C17 0.931 . S
C40 Eu41 2.835 . S
C40 C42 1.500 . S
C40 O60 1.257 . S
C40 O61 1.260 . S
Eu41 C40 2.835 . S
Eu41 O60 2.473 . S
Eu41 O61 2.480 . S
Eu41 O62 2.430 . S
Eu41 O63 2.670 . S
Eu41 O64 2.394 . S
Eu41 O69 2.355 . S
Eu41 O71 2.374 . S
C42 C40 1.500 . S
C42 C43 1.377 . S
C42 C47 1.377 . S
C43 C42 1.377 . S
C43 C44 1.395 . S
C43 H72 0.931 . S
C44 C43 1.395 . S
C44 C45 1.383 . S
C44 H73 0.931 . S
C45 C44 1.383 . S
C45 C46 1.394 . S
C46 C45 1.394 . S
C46 C47 1.378 . S
C46 H74 0.931 . S
C47 C42 1.377 . S
C47 C46 1.378 . S
C47 H75 0.931 . S
C48 O62 1.259 . S
C48 O63 1.270 . S
C49 O64 1.251 . S
C49 O65 1.251 . S
C50 Eu51 2.835 . S
C50 C52 1.500 . S
C50 O66 1.257 . S
C50 O67 1.260 . S
Eu51 C50 2.835 . S
Eu51 O63 2.355 . S
Eu51 O65 2.374 . S
Eu51 O66 2.473 . S
Eu51 O67 2.480 . S
Eu51 O68 2.430 . S
Eu51 O69 2.670 . S
Eu51 O70 2.394 . S
C52 C50 1.500 . S
C52 C53 1.377 . S
C52 C57 1.377 . S
C53 C52 1.377 . S
C53 C54 1.395 . S
C53 H76 0.931 . S
C54 C53 1.395 . S
C54 C55 1.383 . S
C54 H77 0.931 . S
C55 C54 1.383 . S
C55 C56 1.394 . S
C56 C55 1.394 . S
C56 C57 1.378 . S
C56 H78 0.931 . S
C57 C52 1.377 . S
C57 C56 1.378 . S
C57 H79 0.931 . S
C58 O68 1.259 . S
C58 O69 1.270 . S
C59 O70 1.251 . S
C59 O71 1.251 . S
O60 C40 1.257 . S
O60 Eu41 2.473 . S
O61 C40 1.260 . S
O61 Eu41 2.480 . S
O62 Eu41 2.430 . S
O62 C48 1.259 . S
O63 Eu41 2.670 . S
O63 C48 1.270 . S
O63 Eu51 2.355 . S
O64 Eu41 2.394 . S
O64 C49 1.251 . S
O65 C49 1.251 . S
O65 Eu51 2.374 . S
O66 C50 1.257 . S
O66 Eu51 2.473 . S
O67 C50 1.260 . S
O67 Eu51 2.480 . S
O68 Eu51 2.430 . S
O68 C58 1.259 . S
O69 Eu41 2.355 . S
O69 Eu51 2.670 . S
O69 C58 1.270 . S
O70 Eu51 2.394 . S
O70 C59 1.251 . S
O71 Eu41 2.374 . S
O71 C59 1.251 . S
H72 C43 0.931 . S
H73 C44 0.931 . S
H74 C46 0.931 . S
H75 C47 0.931 . S
H76 C53 0.931 . S
H77 C54 0.931 . S
H78 C56 0.931 . S
H79 C57 0.931 . S
C80 Eu81 2.835 . S
C80 C82 1.500 . S
C80 O100 1.257 . S
C80 O101 1.260 . S
Eu81 C80 2.835 . S
Eu81 O100 2.473 . S
Eu81 O101 2.480 . S
Eu81 O102 2.430 . S
Eu81 O103 2.670 . S
Eu81 O104 2.394 . S
Eu81 O109 2.355 . S
Eu81 O111 2.374 . S
C82 C80 1.500 . S
C82 C83 1.377 . S
C82 C87 1.377 . S
C83 C82 1.377 . S
C83 C84 1.395 . S
C83 H112 0.931 . S
C84 C83 1.395 . S
C84 C85 1.383 . S
C84 H113 0.931 . S
C85 C84 1.383 . S
C85 C86 1.394 . S
C86 C85 1.394 . S
C86 C87 1.378 . S
C86 H114 0.931 . S
C87 C82 1.377 . S
C87 C86 1.378 . S
C87 H115 0.931 . S
C88 O102 1.259 . S
C88 O103 1.270 . S
C89 O104 1.251 . S
C89 O105 1.251 . S
C90 Eu91 2.835 . S
C90 C92 1.500 . S
C90 O106 1.257 . S
C90 O107 1.260 . S
Eu91 C90 2.835 . S
Eu91 O103 2.355 . S
Eu91 O105 2.374 . S
Eu91 O106 2.473 . S
Eu91 O107 2.480 . S
Eu91 O108 2.430 . S
Eu91 O109 2.670 . S
Eu91 O110 2.394 . S
C92 C90 1.500 . S
C92 C93 1.377 . S
C92 C97 1.377 . S
C93 C92 1.377 . S
C93 C94 1.395 . S
C93 H116 0.931 . S
C94 C93 1.395 . S
C94 C95 1.383 . S
C94 H117 0.931 . S
C95 C94 1.383 . S
C95 C96 1.394 . S
C96 C95 1.394 . S
C96 C97 1.378 . S
C96 H118 0.931 . S
C97 C92 1.377 . S
C97 C96 1.378 . S
C97 H119 0.931 . S
C98 O108 1.259 . S
C98 O109 1.270 . S
C99 O110 1.251 . S
C99 O111 1.251 . S
O100 C80 1.257 . S
O100 Eu81 2.473 . S
O101 C80 1.260 . S
O101 Eu81 2.480 . S
O102 Eu81 2.430 . S
O102 C88 1.259 . S
O103 Eu81 2.670 . S
O103 C88 1.270 . S
O103 Eu91 2.355 . S
O104 Eu81 2.394 . S
O104 C89 1.251 . S
O105 C89 1.251 . S
O105 Eu91 2.374 . S
O106 C90 1.257 . S
O106 Eu91 2.473 . S
O107 C90 1.260 . S
O107 Eu91 2.480 . S
O108 Eu91 2.430 . S
O108 C98 1.259 . S
O109 Eu81 2.355 . S
O109 Eu91 2.670 . S
O109 C98 1.270 . S
O110 Eu91 2.394 . S
O110 C99 1.251 . S
O111 Eu81 2.374 . S
O111 C99 1.251 . S
H112 C83 0.931 . S
H113 C84 0.931 . S
H114 C86 0.931 . S
H115 C87 0.931 . S
H116 C93 0.931 . S
H117 C94 0.931 . S
H118 C96 0.931 . S
H119 C97 0.931 . S
C120 Eu121 2.835 . S
C120 C122 1.500 . S
C120 O140 1.257 . S
C120 O141 1.260 . S
Eu121 C120 2.835 . S
Eu121 O140 2.473 . S
Eu121 O141 2.480 . S
Eu121 O142 2.430 . S
Eu121 O143 2.670 . S
Eu121 O144 2.394 . S
Eu121 O149 2.355 . S
Eu121 O151 2.374 . S
C122 C120 1.500 . S
C122 C123 1.377 . S
C122 C127 1.377 . S
C123 C122 1.377 . S
C123 C124 1.395 . S
C123 H152 0.931 . S
C124 C123 1.395 . S
C124 C125 1.383 . S
C124 H153 0.931 . S
C125 C124 1.383 . S
C125 C126 1.394 . S
C126 C125 1.394 . S
C126 C127 1.378 . S
C126 H154 0.931 . S
C127 C122 1.377 . S
C127 C126 1.378 . S
C127 H155 0.931 . S
C128 O142 1.259 . S
C128 O143 1.270 . S
C129 O144 1.251 . S
C129 O145 1.251 . S
C130 Eu131 2.835 . S
C130 C132 1.500 . S
C130 O146 1.257 . S
C130 O147 1.260 . S
Eu131 C130 2.835 . S
Eu131 O143 2.355 . S
Eu131 O145 2.374 . S
Eu131 O146 2.473 . S
Eu131 O147 2.480 . S
Eu131 O148 2.430 . S
Eu131 O149 2.670 . S
Eu131 O150 2.394 . S
C132 C130 1.500 . S
C132 C133 1.377 . S
C132 C137 1.377 . S
C133 C132 1.377 . S
C133 C134 1.395 . S
C133 H156 0.931 . S
C134 C133 1.395 . S
C134 C135 1.383 . S
C134 H157 0.931 . S
C135 C134 1.383 . S
C135 C136 1.394 . S
C136 C135 1.394 . S
C136 C137 1.378 . S
C136 H158 0.931 . S
C137 C132 1.377 . S
C137 C136 1.378 . S
C137 H159 0.931 . S
C138 O148 1.259 . S
C138 O149 1.270 . S
C139 O150 1.251 . S
C139 O151 1.251 . S
O140 C120 1.257 . S
O140 Eu121 2.473 . S
O141 C120 1.260 . S
O141 Eu121 2.480 . S
O142 Eu121 2.430 . S
O142 C128 1.259 . S
O143 Eu121 2.670 . S
O143 C128 1.270 . S
O143 Eu131 2.355 . S
O144 Eu121 2.394 . S
O144 C129 1.251 . S
O145 C129 1.251 . S
O145 Eu131 2.374 . S
O146 C130 1.257 . S
O146 Eu131 2.473 . S
O147 C130 1.260 . S
O147 Eu131 2.480 . S
O148 Eu131 2.430 . S
O148 C138 1.259 . S
O149 Eu121 2.355 . S
O149 Eu131 2.670 . S
O149 C138 1.270 . S
O150 Eu131 2.394 . S
O150 C139 1.251 . S
O151 Eu121 2.374 . S
O151 C139 1.251 . S
H152 C123 0.931 . S
H153 C124 0.931 . S
H154 C126 0.931 . S
H155 C127 0.931 . S
H156 C133 0.931 . S
H157 C134 0.931 . S
H158 C136 0.931 . S
H159 C137 0.931 . S
C160 Eu161 2.835 . S
C160 C162 1.500 . S
C160 O180 1.257 . S
C160 O181 1.260 . S
Eu161 C160 2.835 . S
Eu161 O180 2.473 . S
Eu161 O181 2.480 . S
Eu161 O182 2.430 . S
Eu161 O183 2.670 . S
Eu161 O184 2.394 . S
Eu161 O189 2.355 . S
Eu161 O191 2.374 . S
C162 C160 1.500 . S
C162 C163 1.377 . S
C162 C167 1.377 . S
C163 C162 1.377 . S
C163 C164 1.395 . S
C163 H192 0.931 . S
C164 C163 1.395 . S
C164 C165 1.383 . S
C164 H193 0.931 . S
C165 C164 1.383 . S
C165 C166 1.394 . S
C166 C165 1.394 . S
C166 C167 1.378 . S
C166 H194 0.931 . S
C167 C162 1.377 . S
C167 C166 1.378 . S
C167 H195 0.931 . S
C168 O182 1.259 . S
C168 O183 1.270 . S
C169 O184 1.251 . S
C169 O185 1.251 . S
C170 Eu171 2.835 . S
C170 C172 1.500 . S
C170 O186 1.257 . S
C170 O187 1.260 . S
Eu171 C170 2.835 . S
Eu171 O183 2.355 . S
Eu171 O185 2.374 . S
Eu171 O186 2.473 . S
Eu171 O187 2.480 . S
Eu171 O188 2.430 . S
Eu171 O189 2.670 . S
Eu171 O190 2.394 . S
C172 C170 1.500 . S
C172 C173 1.377 . S
C172 C177 1.377 . S
C173 C172 1.377 . S
C173 C174 1.395 . S
C173 H196 0.931 . S
C174 C173 1.395 . S
C174 C175 1.383 . S
C174 H197 0.931 . S
C175 C174 1.383 . S
C175 C176 1.394 . S
C176 C175 1.394 . S
C176 C177 1.378 . S
C176 H198 0.931 . S
C177 C172 1.377 . S
C177 C176 1.378 . S
C177 H199 0.931 . S
C178 O188 1.259 . S
C178 O189 1.270 . S
C179 O190 1.251 . S
C179 O191 1.251 . S
O180 C160 1.257 . S
O180 Eu161 2.473 . S
O181 C160 1.260 . S
O181 Eu161 2.480 . S
O182 Eu161 2.430 . S
O182 C168 1.259 . S
O183 Eu161 2.670 . S
O183 C168 1.270 . S
O183 Eu171 2.355 . S
O184 Eu161 2.394 . S
O184 C169 1.251 . S
O185 C169 1.251 . S
O185 Eu171 2.374 . S
O186 C170 1.257 . S
O186 Eu171 2.473 . S
O187 C170 1.260 . S
O187 Eu171 2.480 . S
O188 Eu171 2.430 . S
O188 C178 1.259 . S
O189 Eu161 2.355 . S
O189 Eu171 2.670 . S
O189 C178 1.270 . S
O190 Eu171 2.394 . S
O190 C179 1.251 . S
O191 Eu161 2.374 . S
O191 C179 1.251 . S
H192 C163 0.931 . S
H193 C164 0.931 . S
H194 C166 0.931 . S
H195 C167 0.931 . S
H196 C173 0.931 . S
H197 C174 0.931 . S
H198 C176 0.931 . S
H199 C177 0.931 . S
C200 Eu201 2.835 . S
C200 C202 1.500 . S
C200 O220 1.257 . S
C200 O221 1.260 . S
Eu201 C200 2.835 . S
Eu201 O220 2.473 . S
Eu201 O221 2.480 . S
Eu201 O222 2.430 . S
Eu201 O223 2.670 . S
Eu201 O224 2.394 . S
Eu201 O229 2.355 . S
Eu201 O231 2.374 . S
C202 C200 1.500 . S
C202 C203 1.377 . S
C202 C207 1.377 . S
C203 C202 1.377 . S
C203 C204 1.395 . S
C203 H232 0.931 . S
C204 C203 1.395 . S
C204 C205 1.383 . S
C204 H233 0.931 . S
C205 C204 1.383 . S
C205 C206 1.394 . S
C206 C205 1.394 . S
C206 C207 1.378 . S
C206 H234 0.931 . S
C207 C202 1.377 . S
C207 C206 1.378 . S
C207 H235 0.931 . S
C208 O222 1.259 . S
C208 O223 1.270 . S
C209 O224 1.251 . S
C209 O225 1.251 . S
C210 Eu211 2.835 . S
C210 C212 1.500 . S
C210 O226 1.257 . S
C210 O227 1.260 . S
Eu211 C210 2.835 . S
Eu211 O223 2.355 . S
Eu211 O225 2.374 . S
Eu211 O226 2.473 . S
Eu211 O227 2.480 . S
Eu211 O228 2.430 . S
Eu211 O229 2.670 . S
Eu211 O230 2.394 . S
C212 C210 1.500 . S
C212 C213 1.377 . S
C212 C217 1.377 . S
C213 C212 1.377 . S
C213 C214 1.395 . S
C213 H236 0.931 . S
C214 C213 1.395 . S
C214 C215 1.383 . S
C214 H237 0.931 . S
C215 C214 1.383 . S
C215 C216 1.394 . S
C216 C215 1.394 . S
C216 C217 1.378 . S
C216 H238 0.931 . S
C217 C212 1.377 . S
C217 C216 1.378 . S
C217 H239 0.931 . S
C218 O228 1.259 . S
C218 O229 1.270 . S
C219 O230 1.251 . S
C219 O231 1.251 . S
O220 C200 1.257 . S
O220 Eu201 2.473 . S
O221 C200 1.260 . S
O221 Eu201 2.480 . S
O222 Eu201 2.430 . S
O222 C208 1.259 . S
O223 Eu201 2.670 . S
O223 C208 1.270 . S
O223 Eu211 2.355 . S
O224 Eu201 2.394 . S
O224 C209 1.251 . S
O225 C209 1.251 . S
O225 Eu211 2.374 . S
O226 C210 1.257 . S
O226 Eu211 2.473 . S
O227 C210 1.260 . S
O227 Eu211 2.480 . S
O228 Eu211 2.430 . S
O228 C218 1.259 . S
O229 Eu201 2.355 . S
O229 Eu211 2.670 . S
O229 C218 1.270 . S
O230 Eu211 2.394 . S
O230 C219 1.251 . S
O231 Eu201 2.374 . S
O231 C219 1.251 . S
H232 C203 0.931 . S
H233 C204 0.931 . S
H234 C206 0.931 . S
H235 C207 0.931 . S
H236 C213 0.931 . S
H237 C214 0.931 . S
H238 C216 0.931 . S
H239 C217 0.931 . S
C240 Eu241 2.835 . S
C240 C242 1.500 . S
C240 O260 1.257 . S
C240 O261 1.260 . S
Eu241 C240 2.835 . S
Eu241 O260 2.473 . S
Eu241 O261 2.480 . S
Eu241 O262 2.430 . S
Eu241 O263 2.670 . S
Eu241 O264 2.394 . S
Eu241 O269 2.355 . S
Eu241 O271 2.374 . S
C242 C240 1.500 . S
C242 C243 1.377 . S
C242 C247 1.377 . S
C243 C242 1.377 . S
C243 C244 1.395 . S
C243 H272 0.931 . S
C244 C243 1.395 . S
C244 C245 1.383 . S
C244 H273 0.931 . S
C245 C244 1.383 . S
C245 C246 1.394 . S
C246 C245 1.394 . S
C246 C247 1.378 . S
C246 H274 0.931 . S
C247 C242 1.377 . S
C247 C246 1.378 . S
C247 H275 0.931 . S
C248 O262 1.259 . S
C248 O263 1.270 . S
C249 O264 1.251 . S
C249 O265 1.251 . S
C250 Eu251 2.835 . S
C250 C252 1.500 . S
C250 O266 1.257 . S
C250 O267 1.260 . S
Eu251 C250 2.835 . S
Eu251 O263 2.355 . S
Eu251 O265 2.374 . S
Eu251 O266 2.473 . S
Eu251 O267 2.480 . S
Eu251 O268 2.430 . S
Eu251 O269 2.670 . S
Eu251 O270 2.394 . S
C252 C250 1.500 . S
C252 C253 1.377 . S
C252 C257 1.377 . S
C253 C252 1.377 . S
C253 C254 1.395 . S
C253 H276 0.931 . S
C254 C253 1.395 . S
C254 C255 1.383 . S
C254 H277 0.931 . S
C255 C254 1.383 . S
C255 C256 1.394 . S
C256 C255 1.394 . S
C256 C257 1.378 . S
C256 H278 0.931 . S
C257 C252 1.377 . S
C257 C256 1.378 . S
C257 H279 0.931 . S
C258 O268 1.259 . S
C258 O269 1.270 . S
C259 O270 1.251 . S
C259 O271 1.251 . S
O260 C240 1.257 . S
O260 Eu241 2.473 . S
O261 C240 1.260 . S
O261 Eu241 2.480 . S
O262 Eu241 2.430 . S
O262 C248 1.259 . S
O263 Eu241 2.670 . S
O263 C248 1.270 . S
O263 Eu251 2.355 . S
O264 Eu241 2.394 . S
O264 C249 1.251 . S
O265 C249 1.251 . S
O265 Eu251 2.374 . S
O266 C250 1.257 . S
O266 Eu251 2.473 . S
O267 C250 1.260 . S
O267 Eu251 2.480 . S
O268 Eu251 2.430 . S
O268 C258 1.259 . S
O269 Eu241 2.355 . S
O269 Eu251 2.670 . S
O269 C258 1.270 . S
O270 Eu251 2.394 . S
O270 C259 1.251 . S
O271 Eu241 2.374 . S
O271 C259 1.251 . S
H272 C243 0.931 . S
H273 C244 0.931 . S
H274 C246 0.931 . S
H275 C247 0.931 . S
H276 C253 0.931 . S
H277 C254 0.931 . S
H278 C256 0.931 . S
H279 C257 0.931 . S
C280 Eu281 2.835 . S
C280 C282 1.500 . S
C280 O300 1.257 . S
C280 O301 1.260 . S
Eu281 C280 2.835 . S
Eu281 O300 2.473 . S
Eu281 O301 2.480 . S
Eu281 O302 2.430 . S
Eu281 O303 2.670 . S
Eu281 O304 2.394 . S
Eu281 O309 2.355 . S
Eu281 O311 2.374 . S
C282 C280 1.500 . S
C282 C283 1.377 . S
C282 C287 1.377 . S
C283 C282 1.377 . S
C283 C284 1.395 . S
C283 H312 0.931 . S
C284 C283 1.395 . S
C284 C285 1.383 . S
C284 H313 0.931 . S
C285 C284 1.383 . S
C285 C286 1.394 . S
C286 C285 1.394 . S
C286 C287 1.378 . S
C286 H314 0.931 . S
C287 C282 1.377 . S
C287 C286 1.378 . S
C287 H315 0.931 . S
C288 O302 1.259 . S
C288 O303 1.270 . S
C289 O304 1.251 . S
C289 O305 1.251 . S
C290 Eu291 2.835 . S
C290 C292 1.500 . S
C290 O306 1.257 . S
C290 O307 1.260 . S
Eu291 C290 2.835 . S
Eu291 O303 2.355 . S
Eu291 O305 2.374 . S
Eu291 O306 2.473 . S
Eu291 O307 2.480 . S
Eu291 O308 2.430 . S
Eu291 O309 2.670 . S
Eu291 O310 2.394 . S
C292 C290 1.500 . S
C292 C293 1.377 . S
C292 C297 1.377 . S
C293 C292 1.377 . S
C293 C294 1.395 . S
C293 H316 0.931 . S
C294 C293 1.395 . S
C294 C295 1.383 . S
C294 H317 0.931 . S
C295 C294 1.383 . S
C295 C296 1.394 . S
C296 C295 1.394 . S
C296 C297 1.378 . S
C296 H318 0.931 . S
C297 C292 1.377 . S
C297 C296 1.378 . S
C297 H319 0.931 . S
C298 O308 1.259 . S
C298 O309 1.270 . S
C299 O310 1.251 . S
C299 O311 1.251 . S
O300 C280 1.257 . S
O300 Eu281 2.473 . S
O301 C280 1.260 . S
O301 Eu281 2.480 . S
O302 Eu281 2.430 . S
O302 C288 1.259 . S
O303 Eu281 2.670 . S
O303 C288 1.270 . S
O303 Eu291 2.355 . S
O304 Eu281 2.394 . S
O304 C289 1.251 . S
O305 C289 1.251 . S
O305 Eu291 2.374 . S
O306 C290 1.257 . S
O306 Eu291 2.473 . S
O307 C290 1.260 . S
O307 Eu291 2.480 . S
O308 Eu291 2.430 . S
O308 C298 1.259 . S
O309 Eu281 2.355 . S
O309 Eu291 2.670 . S
O309 C298 1.270 . S
O310 Eu291 2.394 . S
O310 C299 1.251 . S
O311 Eu281 2.374 . S
O311 C299 1.251 . S
H312 C283 0.931 . S
H313 C284 0.931 . S
H314 C286 0.931 . S
H315 C287 0.931 . S
H316 C293 0.931 . S
H317 C294 0.931 . S
H318 C296 0.931 . S
H319 C297 0.931 . S
Fe320 O321 1.886 1_455 S
Fe320 O324 1.715 . S
Fe320 O329 2.077 1_455 S
Fe320 O334 1.935 . S
Fe320 O340 2.077 1_455 S
Fe320 O349 1.935 . S
O321 Fe320 1.886 1_655 S
O321 Fe323 1.715 . S
Fe322 O324 1.886 . S
Fe322 O325 1.715 1_545 S
Fe322 O332 1.935 . S
Fe322 O333 2.077 . S
Fe322 O339 1.935 . S
Fe322 O348 2.077 . S
Fe323 O321 1.715 . S
Fe323 O326 1.886 1_545 S
Fe323 O330 1.935 . S
Fe323 O335 2.077 1_545 S
Fe323 O341 1.935 . S
Fe323 O345 2.077 1_545 S
O324 Fe320 1.715 . S
O324 Fe322 1.886 . S
O325 Fe322 1.715 1_565 S
O325 Fe327 1.886 . S
O326 Fe323 1.886 1_565 S
O326 Fe327 1.715 1_655 S
Fe327 O325 1.886 . S
Fe327 O326 1.715 1_455 S
Fe327 O331 2.077 . S
Fe327 O336 1.935 1_455 S
Fe327 O338 2.077 . S
Fe327 O346 1.935 1_455 S
C328 O340 1.381 . S
C328 O341 1.421 . S
O329 Fe320 2.077 1_655 S
O329 C342 1.381 . S
O330 Fe323 1.935 . S
O330 C342 1.421 . S
O331 Fe327 2.077 . S
O331 C347 1.381 . S
O332 Fe322 1.935 . S
O332 C347 1.421 1_545 S
O333 Fe322 2.077 . S
O333 C337 1.381 . S
O334 Fe320 1.935 . S
O334 C337 1.421 . S
O335 Fe323 2.077 1_565 S
O335 C343 1.381 . S
O336 Fe327 1.935 1_655 S
O336 C343 1.421 . S
C337 O333 1.381 . S
C337 O334 1.421 . S
O338 Fe327 2.077 . S
O338 C350 1.381 . S
O339 Fe322 1.935 . S
O339 C350 1.421 1_545 S
O340 Fe320 2.077 1_655 S
O340 C328 1.381 . S
O341 Fe323 1.935 . S
O341 C328 1.421 . S
C342 O329 1.381 . S
C342 O330 1.421 . S
C343 O335 1.381 . S
C343 O336 1.421 . S
C344 O345 1.381 . S
C344 O346 1.421 . S
O345 Fe323 2.077 1_565 S
O345 C344 1.381 . S
O346 Fe327 1.935 1_655 S
O346 C344 1.421 . S
C347 O331 1.381 . S
C347 O332 1.421 1_565 S
O348 Fe322 2.077 . S
O348 C351 1.381 . S
O349 Fe320 1.935 . S
O349 C351 1.421 . S
C350 O338 1.381 . S
C350 O339 1.421 1_565 S
C351 O348 1.381 . S
C351 O349 1.421 . S
Fe352 O353 1.885 1_565 S
Fe352 O356 1.716 1_564 S
Fe352 O361 2.073 1_554 S
Fe352 O366 1.931 1_554 S
Fe352 O372 2.081 . S
Fe352 O381 1.940 . S
O353 Fe352 1.885 1_545 S
O353 Fe355 1.715 . S
Fe354 O356 1.886 . S
Fe354 O357 1.715 . S
Fe354 O364 1.935 . S
Fe354 O365 2.077 1_545 S
Fe354 O371 1.935 1_556 S
Fe354 O380 2.077 1_546 S
Fe355 O353 1.715 . S
Fe355 O358 1.886 . S
Fe355 O362 1.935 1_554 S
Fe355 O367 2.077 1_554 S
Fe355 O373 1.935 . S
Fe355 O377 2.077 . S
O356 Fe352 1.716 1_546 S
O356 Fe354 1.886 . S
O357 Fe354 1.715 . S
O357 Fe359 1.886 . S
O358 Fe355 1.886 . S
O358 Fe359 1.715 1_554 S
Fe359 O357 1.886 . S
Fe359 O358 1.715 1_556 S
Fe359 O363 2.074 . S
Fe359 O368 1.931 . S
Fe359 O370 2.081 1_556 S
Fe359 O378 1.939 1_556 S
C360 O372 1.381 . S
C360 O373 1.421 1_565 S
O361 Fe352 2.073 1_556 S
O361 C374 1.381 . S
O362 Fe355 1.935 1_556 S
O362 C374 1.421 1_545 S
O363 Fe359 2.074 . S
O363 C379 1.381 . S
O364 Fe354 1.935 . S
O364 C379 1.421 . S
O365 Fe354 2.077 1_565 S
O365 C369 1.381 . S
O366 Fe352 1.931 1_556 S
O366 C369 1.421 . S
O367 Fe355 2.077 1_556 S
O367 C375 1.381 . S
O368 Fe359 1.931 . S
O368 C375 1.421 . S
C369 O365 1.381 . S
C369 O366 1.421 . S
O370 Fe359 2.081 1_554 S
O370 C382 1.381 . S
O371 Fe354 1.935 1_554 S
O371 C382 1.421 . S
O372 Fe352 2.081 . S
O372 C360 1.381 . S
O373 Fe355 1.935 . S
O373 C360 1.421 1_545 S
C374 O361 1.381 . S
C374 O362 1.421 1_565 S
C375 O367 1.381 . S
C375 O368 1.421 . S
C376 O377 1.381 . S
C376 O378 1.421 . S
O377 Fe355 2.077 . S
O377 C376 1.381 . S
O378 Fe359 1.939 1_554 S
O378 C376 1.421 . S
C379 O363 1.381 . S
C379 O364 1.421 . S
O380 Fe354 2.077 1_564 S
O380 C383 1.381 . S
O381 Fe352 1.940 . S
O381 C383 1.421 . S
C382 O370 1.381 . S
C382 O371 1.421 . S
C383 O380 1.381 . S
C383 O381 1.421 . S
Fe384 O385 1.886 1_455 S
Fe384 O388 1.715 . S
Fe384 O393 2.077 1_455 S
Fe384 O398 1.935 . S
Fe384 O404 2.077 1_455 S
Fe384 O413 1.935 . S
O385 Fe384 1.886 1_655 S
O385 Fe387 1.715 . S
Fe386 O388 1.886 . S
Fe386 O389 1.715 . S
Fe386 O396 1.935 . S
Fe386 O397 2.077 . S
Fe386 O403 1.935 . S
Fe386 O412 2.077 . S
Fe387 O385 1.715 . S
Fe387 O390 1.886 . S
Fe387 O394 1.945 . S
Fe387 O399 2.077 . S
Fe387 O405 1.935 . S
Fe387 O409 2.077 . S
O388 Fe384 1.715 . S
O388 Fe386 1.886 . S
O389 Fe386 1.715 . S
O389 Fe391 1.882 1_455 S
O390 Fe387 1.886 . S
O390 Fe391 1.720 . S
Fe391 O389 1.882 1_655 S
Fe391 O390 1.720 . S
Fe391 O395 2.073 1_655 S
Fe391 O400 1.938 . S
Fe391 O402 2.074 1_655 S
Fe391 O410 1.939 . S
C392 O404 1.381 . S
C392 O405 1.421 . S
O393 Fe384 2.077 1_655 S
O393 C406 1.381 1_554 S
O394 Fe387 1.945 . S
O394 C406 1.417 1_554 S
O395 Fe391 2.073 1_455 S
O395 C411 1.381 . S
O396 Fe386 1.935 . S
O396 C411 1.421 . S
O397 Fe386 2.077 . S
O397 C401 1.381 . S
O398 Fe384 1.935 . S
O398 C401 1.421 . S
O399 Fe387 2.077 . S
O399 C407 1.381 1_554 S
O400 Fe391 1.938 . S
O400 C407 1.421 1_554 S
C401 O397 1.381 . S
C401 O398 1.421 . S
O402 Fe391 2.074 1_455 S
O402 C414 1.381 . S
O403 Fe386 1.935 . S
O403 C414 1.421 . S
O404 Fe384 2.077 1_655 S
O404 C392 1.381 . S
O405 Fe387 1.935 . S
O405 C392 1.421 . S
C406 O393 1.381 1_556 S
C406 O394 1.417 1_556 S
C407 O399 1.381 1_556 S
C407 O400 1.421 1_556 S
C408 O409 1.381 . S
C408 O410 1.421 . S
O409 Fe387 2.077 . S
O409 C408 1.381 . S
O410 Fe391 1.939 . S
O410 C408 1.421 . S
C411 O395 1.381 . S
C411 O396 1.421 . S
O412 Fe386 2.077 . S
O412 C415 1.381 . S
O413 Fe384 1.935 . S
O413 C415 1.421 . S
C414 O402 1.381 . S
C414 O403 1.421 . S
C415 O412 1.381 . S
C415 O413 1.421 . S
Fe416 O417 1.886 . S
Fe416 O420 1.715 . S
Fe416 O425 2.077 . S
Fe416 O430 1.935 . S
Fe416 O436 2.077 . S
Fe416 O445 1.935 . S
O417 Fe416 1.886 . S
O417 Fe419 1.715 1_556 S
Fe418 O420 1.886 1_554 S
Fe418 O421 1.715 . S
Fe418 O428 1.935 . S
Fe418 O429 2.077 1_554 S
Fe418 O435 1.935 . S
Fe418 O444 2.077 1_554 S
Fe419 O417 1.715 1_554 S
Fe419 O422 1.886 . S
Fe419 O426 1.935 . S
Fe419 O431 2.077 . S
Fe419 O437 1.935 . S
Fe419 O441 2.077 . S
O420 Fe416 1.715 . S
O420 Fe418 1.886 1_556 S
O421 Fe418 1.715 . S
O421 Fe423 1.886 . S
O422 Fe419 1.886 . S
O422 Fe423 1.715 . S
Fe423 O421 1.886 . S
Fe423 O422 1.715 . S
Fe423 O427 2.077 . S
Fe423 O432 1.935 . S
Fe423 O434 2.077 . S
Fe423 O442 1.935 . S
C424 O436 1.381 . S
C424 O437 1.421 1_556 S
O425 Fe416 2.077 . S
O425 C438 1.381 . S
O426 Fe419 1.935 . S
O426 C438 1.421 1_554 S
O427 Fe423 2.077 . S
O427 C443 1.381 . S
O428 Fe418 1.935 . S
O428 C443 1.421 . S
O429 Fe418 2.077 1_556 S
O429 C433 1.381 . S
O430 Fe416 1.935 . S
O430 C433 1.421 . S
O431 Fe419 2.077 . S
O431 C439 1.381 . S
O432 Fe423 1.935 . S
O432 C439 1.421 . S
C433 O429 1.381 . S
C433 O430 1.421 . S
O434 Fe423 2.077 . S
O434 C446 1.381 . S
O435 Fe418 1.935 . S
O435 C446 1.421 . S
O436 Fe416 2.077 . S
O436 C424 1.381 . S
O437 Fe419 1.935 . S
O437 C424 1.421 1_554 S
C438 O425 1.381 . S
C438 O426 1.421 1_556 S
C439 O431 1.381 . S
C439 O432 1.421 . S
C440 O441 1.381 . S
C440 O442 1.421 . S
O441 Fe419 2.077 . S
O441 C440 1.381 . S
O442 Fe423 1.935 . S
O442 C440 1.421 . S
C443 O427 1.381 . S
C443 O428 1.421 . S
O444 Fe418 2.077 1_556 S
O444 C447 1.381 . S
O445 Fe416 1.935 . S
O445 C447 1.421 . S
C446 O434 1.381 . S
C446 O435 1.421 . S
C447 O444 1.381 . S
C447 O445 1.421 . S
Fe448 O449 1.886 . S
Fe448 O452 1.715 . S
Fe448 O457 2.077 . S
Fe448 O462 1.935 . S
Fe448 O468 2.098 . S
Fe448 O477 1.935 1_455 S
O449 Fe448 1.886 . S
O449 Fe451 1.715 . S
Fe450 O452 1.886 . S
Fe450 O453 1.715 . S
Fe450 O460 1.935 . S
Fe450 O461 2.077 . S
Fe450 O467 1.935 1_455 S
Fe450 O476 2.077 1_455 S
Fe451 O449 1.715 . S
Fe451 O454 1.886 . S
Fe451 O458 1.935 . S
Fe451 O463 2.077 . S
Fe451 O469 1.935 . S
Fe451 O473 2.077 . S
O452 Fe448 1.715 . S
O452 Fe450 1.886 . S
O453 Fe450 1.715 . S
O453 Fe455 1.886 . S
O454 Fe451 1.886 . S
O454 Fe455 1.715 . S
Fe455 O453 1.886 . S
Fe455 O454 1.715 . S
Fe455 O459 2.077 . S
Fe455 O464 1.935 . S
Fe455 O466 2.077 . S
Fe455 O474 1.935 . S
C456 O468 1.369 1_655 S
C456 O469 1.421 1_655 S
O457 Fe448 2.077 . S
O457 C470 1.381 . S
O458 Fe451 1.935 . S
O458 C470 1.421 . S
O459 Fe455 2.077 . S
O459 C475 1.381 . S
O460 Fe450 1.935 . S
O460 C475 1.421 . S
O461 Fe450 2.077 . S
O461 C465 1.381 . S
O462 Fe448 1.935 . S
O462 C465 1.421 . S
O463 Fe451 2.077 . S
O463 C471 1.381 . S
O464 Fe455 1.935 . S
O464 C471 1.421 . S
C465 O461 1.381 . S
C465 O462 1.421 . S
O466 Fe455 2.077 . S
O466 C478 1.381 1_455 S
O467 Fe450 1.935 1_655 S
O467 C478 1.421 . S
O468 Fe448 2.098 . S
O468 C456 1.369 1_455 S
O469 Fe451 1.935 . S
O469 C456 1.421 1_455 S
C470 O457 1.381 . S
C470 O458 1.421 . S
C471 O463 1.381 . S
C471 O464 1.421 . S
C472 O473 1.381 . S
C472 O474 1.421 . S
O473 Fe451 2.077 . S
O473 C472 1.381 . S
O474 Fe455 1.935 . S
O474 C472 1.421 . S
C475 O459 1.381 . S
C475 O460 1.421 . S
O476 Fe450 2.077 1_655 S
O476 C479 1.381 . S
O477 Fe448 1.935 1_655 S
O477 C479 1.421 . S
C478 O466 1.381 1_655 S
C478 O467 1.421 . S
C479 O476 1.381 . S
C479 O477 1.421 . S
Fe480 O481 1.886 . S
Fe480 O484 1.715 . S
Fe480 O489 2.077 . S
Fe480 O494 1.935 . S
Fe480 O500 2.077 . S
Fe480 O509 1.935 . S
O481 Fe480 1.886 . S
O481 Fe483 1.715 1_565 S
Fe482 O484 1.886 1_545 S
Fe482 O485 1.715 . S
Fe482 O492 1.935 . S
Fe482 O493 2.077 1_545 S
Fe482 O499 1.935 . S
Fe482 O508 2.077 1_545 S
Fe483 O481 1.715 1_545 S
Fe483 O486 1.886 . S
Fe483 O490 1.935 1_545 S
Fe483 O495 2.077 . S
Fe483 O501 1.935 1_545 S
Fe483 O505 2.077 . S
O484 Fe480 1.715 . S
O484 Fe482 1.886 1_565 S
O485 Fe482 1.715 . S
O485 Fe487 1.886 . S
O486 Fe483 1.886 . S
O486 Fe487 1.715 . S
Fe487 O485 1.886 . S
Fe487 O486 1.715 . S
Fe487 O491 2.077 . S
Fe487 O496 1.935 . S
Fe487 O498 2.077 . S
Fe487 O506 1.935 . S
C488 O500 1.381 . S
C488 O501 1.421 . S
O489 Fe480 2.077 . S
O489 C502 1.381 . S
O490 Fe483 1.935 1_565 S
O490 C502 1.421 . S
O491 Fe487 2.077 . S
O491 C507 1.381 . S
O492 Fe482 1.935 . S
O492 C507 1.421 . S
O493 Fe482 2.077 1_565 S
O493 C497 1.381 . S
O494 Fe480 1.935 . S
O494 C497 1.421 . S
O495 Fe483 2.077 . S
O495 C503 1.381 . S
O496 Fe487 1.935 . S
O496 C503 1.421 . S
C497 O493 1.381 . S
C497 O494 1.421 . S
O498 Fe487 2.077 . S
O498 C510 1.381 . S
O499 Fe482 1.935 . S
O499 C510 1.421 . S
O500 Fe480 2.077 . S
O500 C488 1.381 . S
O501 Fe483 1.935 1_565 S
O501 C488 1.421 . S
C502 O489 1.381 . S
C502 O490 1.421 . S
C503 O495 1.381 . S
C503 O496 1.421 . S
C504 O505 1.381 . S
C504 O506 1.421 . S
O505 Fe483 2.077 . S
O505 C504 1.381 . S
O506 Fe487 1.935 . S
O506 C504 1.421 . S
C507 O491 1.381 . S
C507 O492 1.421 . S
O508 Fe482 2.077 1_565 S
O508 C511 1.381 . S
O509 Fe480 1.935 . S
O509 C511 1.421 . S
C510 O498 1.381 . S
C510 O499 1.421 . S
C511 O508 1.381 . S
C511 O509 1.421 . S
H512 C530 0.951 . S
H513 C532 0.951 . S
H514 C534 0.950 . S
H515 C535 0.950 . S
H516 C537 0.950 . S
H517 C540 0.950 . S
H518 C541 0.950 . S
H519 C543 0.950 . S
H520 C544 0.950 . S
H521 C545 0.951 . S
H522 C547 0.951 . S
H523 C549 0.950 . S
H524 C550 0.950 . S
H525 C552 0.950 . S
H526 C555 0.950 . S
H527 C556 0.950 . S
H528 C558 0.950 . S
H529 C559 0.950 . S
C530 H512 0.951 . S
C530 C531 1.366 . S
C530 C532 1.388 . S
C531 C530 1.366 . S
C531 C535 1.385 . S
C532 H513 0.951 . S
C532 C530 1.388 . S
C532 C533 1.366 . S
C533 C532 1.366 . S
C533 C534 1.414 . S
C533 C536 1.499 . S
C534 H514 0.950 . S
C534 C533 1.414 . S
C534 C535 1.374 . S
C535 H515 0.950 . S
C535 C531 1.385 . S
C535 C534 1.374 . S
C536 C533 1.499 . S
C536 C537 1.373 . S
C536 C538 1.389 . S
C537 H516 0.950 . S
C537 C536 1.373 . S
C537 C553 1.377 . S
C538 C536 1.389 . S
C538 C539 1.524 . S
C538 C552 1.377 . S
C539 C538 1.524 . S
C539 C540 1.397 . S
C539 C544 1.363 . S
C540 H517 0.950 . S
C540 C539 1.397 . S
C540 C541 1.334 . S
C541 H518 0.950 . S
C541 C540 1.334 . S
C541 C542 1.287 . S
C542 C541 1.287 . S
C542 C543 1.524 . S
C542 H561 0.913 . S
C543 H519 0.950 . S
C543 C542 1.524 . S
C543 C544 1.415 . S
C544 H520 0.950 . S
C544 C539 1.363 . S
C544 C543 1.415 . S
C545 H521 0.951 . S
C545 C546 1.366 . S
C545 C547 1.388 . S
C546 C545 1.366 . S
C546 C550 1.385 . S
C547 H522 0.951 . S
C547 C545 1.388 . S
C547 C548 1.366 . S
C548 C547 1.366 . S
C548 C549 1.414 . S
C548 C551 1.499 . S
C549 H523 0.950 . S
C549 C548 1.414 . S
C549 C550 1.374 . S
C550 H524 0.950 . S
C550 C546 1.385 . S
C550 C549 1.374 . S
C551 C548 1.499 . S
C551 C552 1.373 . S
C551 C553 1.389 . S
C552 H525 0.950 . S
C552 C538 1.377 . S
C552 C551 1.373 . S
C553 C537 1.377 . S
C553 C551 1.389 . S
C553 C554 1.524 . S
C554 C553 1.524 . S
C554 C555 1.397 . S
C554 C559 1.363 . S
C555 H526 0.950 . S
C555 C554 1.397 . S
C555 C556 1.334 . S
C556 H527 0.950 . S
C556 C555 1.334 . S
C556 C557 1.287 . S
C557 C556 1.287 . S
C557 C558 1.524 . S
C557 H560 0.999 . S
C558 H528 0.950 . S
C558 C557 1.524 . S
C558 C559 1.415 . S
C559 H529 0.950 . S
C559 C554 1.363 . S
C559 C558 1.415 . S
H560 C557 0.999 . S
H561 C542 0.913 . S
H562 C580 0.951 . S
H563 C582 0.951 . S
H564 C584 0.950 . S
H565 C585 0.950 . S
H566 C587 0.950 . S
H567 C590 0.950 . S
H568 C591 0.950 . S
H569 C593 0.950 . S
H570 C594 0.950 . S
H571 C595 0.951 . S
H572 C597 0.951 . S
H573 C599 0.950 . S
H574 C600 0.950 . S
H575 C602 0.950 . S
H576 C605 0.950 . S
H577 C606 0.950 . S
H578 C608 0.950 . S
H579 C609 0.950 . S
C580 H562 0.951 . S
C580 C581 1.366 . S
C580 C582 1.388 . S
C581 C580 1.366 . S
C581 C585 1.385 . S
C582 H563 0.951 . S
C582 C580 1.388 . S
C582 C583 1.366 . S
C583 C582 1.366 . S
C583 C584 1.414 . S
C583 C586 1.499 . S
C584 H564 0.950 . S
C584 C583 1.414 . S
C584 C585 1.374 . S
C585 H565 0.950 . S
C585 C581 1.385 . S
C585 C584 1.374 . S
C586 C583 1.499 . S
C586 C587 1.373 . S
C586 C588 1.389 . S
C587 H566 0.950 . S
C587 C586 1.373 . S
C587 C603 1.377 . S
C588 C586 1.389 . S
C588 C589 1.524 . S
C588 C602 1.377 . S
C589 C588 1.524 . S
C589 C590 1.397 . S
C589 C594 1.363 . S
C590 H567 0.950 . S
C590 C589 1.397 . S
C590 C591 1.334 . S
C591 H568 0.950 . S
C591 C590 1.334 . S
C591 C592 1.287 . S
C592 C591 1.287 . S
C592 C593 1.524 . S
C592 H611 0.913 . S
C593 H569 0.950 . S
C593 C592 1.524 . S
C593 C594 1.415 . S
C594 H570 0.950 . S
C594 C589 1.363 . S
C594 C593 1.415 . S
C595 H571 0.951 . S
C595 C596 1.366 . S
C595 C597 1.388 . S
C596 C595 1.366 . S
C596 C600 1.385 . S
C597 H572 0.951 . S
C597 C595 1.388 . S
C597 C598 1.366 . S
C598 C597 1.366 . S
C598 C599 1.414 . S
C598 C601 1.499 . S
C599 H573 0.950 . S
C599 C598 1.414 . S
C599 C600 1.374 . S
C600 H574 0.950 . S
C600 C596 1.385 . S
C600 C599 1.374 . S
C601 C598 1.499 . S
C601 C602 1.373 . S
C601 C603 1.389 . S
C602 H575 0.950 . S
C602 C588 1.377 . S
C602 C601 1.373 . S
C603 C587 1.377 . S
C603 C601 1.389 . S
C603 C604 1.524 . S
C604 C603 1.524 . S
C604 C605 1.397 . S
C604 C609 1.363 . S
C605 H576 0.950 . S
C605 C604 1.397 . S
C605 C606 1.334 . S
C606 H577 0.950 . S
C606 C605 1.334 . S
C606 C607 1.287 . S
C607 C606 1.287 . S
C607 C608 1.524 . S
C607 H610 0.999 . S
C608 H578 0.950 . S
C608 C607 1.524 . S
C608 C609 1.415 . S
C609 H579 0.950 . S
C609 C604 1.363 . S
C609 C608 1.415 . S
H610 C607 0.999 . S
H611 C592 0.913 . S
H612 C630 0.951 . S
H613 C632 0.951 . S
H614 C634 0.950 . S
H615 C635 0.950 . S
H616 C637 0.950 . S
H617 C640 0.950 . S
H618 C641 0.950 . S
H619 C643 0.950 . S
H620 C644 0.950 . S
H621 C645 0.951 . S
H622 C647 0.951 . S
H623 C649 0.950 . S
H624 C650 0.950 . S
H625 C652 0.950 . S
H626 C655 0.950 . S
H627 C656 0.950 . S
H628 C658 0.950 . S
H629 C659 0.950 . S
C630 H612 0.951 . S
C630 C631 1.366 . S
C630 C632 1.388 . S
C631 C630 1.366 . S
C631 C635 1.385 . S
C632 H613 0.951 . S
C632 C630 1.388 . S
C632 C633 1.366 . S
C633 C632 1.366 . S
C633 C634 1.414 . S
C633 C636 1.499 . S
C634 H614 0.950 . S
C634 C633 1.414 . S
C634 C635 1.374 . S
C635 H615 0.950 . S
C635 C631 1.385 . S
C635 C634 1.374 . S
C636 C633 1.499 . S
C636 C637 1.373 . S
C636 C638 1.389 . S
C637 H616 0.950 . S
C637 C636 1.373 . S
C637 C653 1.377 . S
C638 C636 1.389 . S
C638 C639 1.524 . S
C638 C652 1.377 . S
C639 C638 1.524 . S
C639 C640 1.397 . S
C639 C644 1.363 . S
C640 H617 0.950 . S
C640 C639 1.397 . S
C640 C641 1.334 . S
C641 H618 0.950 . S
C641 C640 1.334 . S
C641 C642 1.287 . S
C642 C641 1.287 . S
C642 C643 1.524 . S
C642 H661 0.913 . S
C643 H619 0.950 . S
C643 C642 1.524 . S
C643 C644 1.415 . S
C644 H620 0.950 . S
C644 C639 1.363 . S
C644 C643 1.415 . S
C645 H621 0.951 . S
C645 C646 1.366 . S
C645 C647 1.388 . S
C646 C645 1.366 . S
C646 C650 1.385 . S
C647 H622 0.951 . S
C647 C645 1.388 . S
C647 C648 1.366 . S
C648 C647 1.366 . S
C648 C649 1.414 . S
C648 C651 1.499 . S
C649 H623 0.950 . S
C649 C648 1.414 . S
C649 C650 1.374 . S
C650 H624 0.950 . S
C650 C646 1.385 . S
C650 C649 1.374 . S
C651 C648 1.499 . S
C651 C652 1.373 . S
C651 C653 1.389 . S
C652 H625 0.950 . S
C652 C638 1.377 . S
C652 C651 1.373 . S
C653 C637 1.377 . S
C653 C651 1.389 . S
C653 C654 1.524 . S
C654 C653 1.524 . S
C654 C655 1.397 . S
C654 C659 1.363 . S
C655 H626 0.950 . S
C655 C654 1.397 . S
C655 C656 1.334 . S
C656 H627 0.950 . S
C656 C655 1.334 . S
C656 C657 1.287 . S
C657 C656 1.287 . S
C657 C658 1.524 . S
C657 H660 0.999 . S
C658 H628 0.950 . S
C658 C657 1.524 . S
C658 C659 1.415 . S
C659 H629 0.950 . S
C659 C654 1.363 . S
C659 C658 1.415 . S
H660 C657 0.999 . S
H661 C642 0.913 . S
H662 C680 0.951 . S
H663 C682 0.951 . S
H664 C684 0.950 . S
H665 C685 0.950 . S
H666 C687 0.950 . S
H667 C690 0.950 . S
H668 C691 0.950 . S
H669 C693 0.950 . S
H670 C694 0.950 . S
H671 C695 0.951 . S
H672 C697 0.951 . S
H673 C699 0.950 . S
H674 C700 0.950 . S
H675 C702 0.950 . S
H676 C705 0.950 . S
H677 C706 0.950 1_545 S
H678 C708 0.950 . S
H679 C709 0.950 . S
C680 H662 0.951 . S
C680 C681 1.366 . S
C680 C682 1.388 . S
C681 C680 1.366 . S
C681 C685 1.385 . S
C682 H663 0.951 . S
C682 C680 1.388 . S
C682 C683 1.366 . S
C683 C682 1.366 . S
C683 C684 1.414 . S
C683 C686 1.499 . S
C684 H664 0.950 . S
C684 C683 1.414 . S
C684 C685 1.374 . S
C685 H665 0.950 . S
C685 C681 1.385 . S
C685 C684 1.374 . S
C686 C683 1.499 . S
C686 C687 1.373 . S
C686 C688 1.389 . S
C687 H666 0.950 . S
C687 C686 1.373 . S
C687 C703 1.377 . S
C688 C686 1.389 . S
C688 C689 1.524 . S
C688 C702 1.377 . S
C689 C688 1.524 . S
C689 C690 1.397 . S
C689 C694 1.363 . S
C690 H667 0.950 . S
C690 C689 1.397 . S
C690 C691 1.334 . S
C691 H668 0.950 . S
C691 C690 1.334 . S
C691 C692 1.287 . S
C692 C691 1.287 . S
C692 C693 1.524 . S
C692 H711 0.913 . S
C693 H669 0.950 . S
C693 C692 1.524 . S
C693 C694 1.415 . S
C694 H670 0.950 . S
C694 C689 1.363 . S
C694 C693 1.415 . S
C695 H671 0.951 . S
C695 C696 1.366 . S
C695 C697 1.388 . S
C696 C695 1.366 . S
C696 C700 1.385 . S
C697 H672 0.951 . S
C697 C695 1.388 . S
C697 C698 1.366 . S
C698 C697 1.366 . S
C698 C699 1.414 . S
C698 C701 1.499 . S
C699 H673 0.950 . S
C699 C698 1.414 . S
C699 C700 1.374 . S
C700 H674 0.950 . S
C700 C696 1.385 . S
C700 C699 1.374 . S
C701 C698 1.499 . S
C701 C702 1.373 . S
C701 C703 1.389 . S
C702 H675 0.950 . S
C702 C688 1.377 . S
C702 C701 1.373 . S
C703 C687 1.377 . S
C703 C701 1.389 . S
C703 C704 1.524 . S
C704 C703 1.524 . S
C704 C705 1.397 . S
C704 C709 1.363 . S
C705 H676 0.950 . S
C705 C704 1.397 . S
C705 C706 1.334 . S
C706 H677 0.950 1_565 S
C706 C705 1.334 . S
C706 C707 1.287 . S
C707 C706 1.287 . S
C707 C708 1.524 . S
C707 H710 0.999 . S
C708 H678 0.950 . S
C708 C707 1.524 . S
C708 C709 1.415 . S
C709 H679 0.950 . S
C709 C704 1.363 . S
C709 C708 1.415 . S
H710 C707 0.999 . S
H711 C692 0.913 . S
H712 C730 0.951 . S
H713 C732 0.951 . S
H714 C734 0.950 . S
H715 C735 0.950 . S
H716 C737 0.950 . S
H717 C740 0.950 . S
H718 C741 0.950 . S
H719 C743 0.950 . S
H720 C744 0.950 . S
H721 C745 0.951 . S
H722 C747 0.951 . S
H723 C749 0.950 . S
H724 C750 0.950 . S
H725 C752 0.950 . S
H726 C755 0.950 . S
H727 C756 0.950 . S
H728 C758 0.950 . S
H729 C759 0.950 . S
C730 H712 0.951 . S
C730 C731 1.366 . S
C730 C732 1.388 . S
C731 C730 1.366 . S
C731 C735 1.385 . S
C732 H713 0.951 . S
C732 C730 1.388 . S
C732 C733 1.366 . S
C733 C732 1.366 . S
C733 C734 1.414 . S
C733 C736 1.499 . S
C734 H714 0.950 . S
C734 C733 1.414 . S
C734 C735 1.374 . S
C735 H715 0.950 . S
C735 C731 1.385 . S
C735 C734 1.374 . S
C736 C733 1.499 . S
C736 C737 1.373 . S
C736 C738 1.389 . S
C737 H716 0.950 . S
C737 C736 1.373 . S
C737 C753 1.377 . S
C738 C736 1.389 . S
C738 C739 1.524 . S
C738 C752 1.377 . S
C739 C738 1.524 . S
C739 C740 1.397 . S
C739 C744 1.363 . S
C740 H717 0.950 . S
C740 C739 1.397 . S
C740 C741 1.334 . S
C741 H718 0.950 . S
C741 C740 1.334 . S
C741 C742 1.287 . S
C742 C741 1.287 . S
C742 C743 1.524 . S
C742 H761 0.913 . S
C743 H719 0.950 . S
C743 C742 1.524 . S
C743 C744 1.415 . S
C744 H720 0.950 . S
C744 C739 1.363 . S
C744 C743 1.415 . S
C745 H721 0.951 . S
C745 C746 1.366 . S
C745 C747 1.388 . S
C746 C745 1.366 . S
C746 C750 1.385 . S
C747 H722 0.951 . S
C747 C745 1.388 . S
C747 C748 1.366 . S
C748 C747 1.366 . S
C748 C749 1.414 . S
C748 C751 1.499 . S
C749 H723 0.950 . S
C749 C748 1.414 . S
C749 C750 1.374 . S
C750 H724 0.950 . S
C750 C746 1.385 . S
C750 C749 1.374 . S
C751 C748 1.499 . S
C751 C752 1.373 . S
C751 C753 1.389 . S
C752 H725 0.950 . S
C752 C738 1.377 . S
C752 C751 1.373 . S
C753 C737 1.377 . S
C753 C751 1.389 . S
C753 C754 1.524 . S
C754 C753 1.524 . S
C754 C755 1.397 . S
C754 C759 1.363 . S
C755 H726 0.950 . S
C755 C754 1.397 . S
C755 C756 1.334 . S
C756 H727 0.950 . S
C756 C755 1.334 . S
C756 C757 1.287 . S
C757 C756 1.287 . S
C757 C758 1.524 . S
C757 H760 0.999 . S
C758 H728 0.950 . S
C758 C757 1.524 . S
C758 C759 1.415 . S
C759 H729 0.950 . S
C759 C754 1.363 . S
C759 C758 1.415 . S
H760 C757 0.999 . S
H761 C742 0.913 . S
H762 C780 0.951 . S
H763 C782 0.951 . S
H764 C784 0.950 . S
H765 C785 0.950 . S
H766 C787 0.950 . S
H767 C790 0.950 . S
H768 C791 0.950 . S
H769 C793 0.950 . S
H770 C794 0.950 . S
H771 C795 0.951 . S
H772 C797 0.951 . S
H773 C799 0.950 . S
H774 C800 0.950 . S
H775 C802 0.950 . S
H776 C805 0.950 . S
H777 C806 0.950 . S
H778 C808 0.950 . S
H779 C809 0.950 . S
C780 H762 0.951 . S
C780 C781 1.366 . S
C780 C782 1.388 . S
C781 C780 1.366 . S
C781 C785 1.385 . S
C782 H763 0.951 . S
C782 C780 1.388 . S
C782 C783 1.366 . S
C783 C782 1.366 . S
C783 C784 1.414 . S
C783 C786 1.499 . S
C784 H764 0.950 . S
C784 C783 1.414 . S
C784 C785 1.374 . S
C785 H765 0.950 . S
C785 C781 1.385 . S
C785 C784 1.374 . S
C786 C783 1.499 . S
C786 C787 1.373 . S
C786 C788 1.389 . S
C787 H766 0.950 . S
C787 C786 1.373 . S
C787 C803 1.377 . S
C788 C786 1.389 . S
C788 C789 1.524 . S
C788 C802 1.377 . S
C789 C788 1.524 . S
C789 C790 1.397 . S
C789 C794 1.363 . S
C790 H767 0.950 . S
C790 C789 1.397 . S
C790 C791 1.334 . S
C791 H768 0.950 . S
C791 C790 1.334 . S
C791 C792 1.287 . S
C792 C791 1.287 . S
C792 C793 1.524 . S
C792 H811 0.913 . S
C793 H769 0.950 . S
C793 C792 1.524 . S
C793 C794 1.415 . S
C794 H770 0.950 . S
C794 C789 1.363 . S
C794 C793 1.415 . S
C795 H771 0.951 . S
C795 C796 1.366 . S
C795 C797 1.388 . S
C796 C795 1.366 . S
C796 C800 1.385 . S
C797 H772 0.951 . S
C797 C795 1.388 . S
C797 C798 1.366 . S
C798 C797 1.366 . S
C798 C799 1.414 . S
C798 C801 1.499 . S
C799 H773 0.950 . S
C799 C798 1.414 . S
C799 C800 1.374 . S
C800 H774 0.950 . S
C800 C796 1.385 . S
C800 C799 1.374 . S
C801 C798 1.499 . S
C801 C802 1.373 . S
C801 C803 1.389 . S
C802 H775 0.950 . S
C802 C788 1.377 . S
C802 C801 1.373 . S
C803 C787 1.377 . S
C803 C801 1.389 . S
C803 C804 1.524 . S
C804 C803 1.524 . S
C804 C805 1.397 . S
C804 C809 1.363 . S
C805 H776 0.950 . S
C805 C804 1.397 . S
C805 C806 1.334 . S
C806 H777 0.950 . S
C806 C805 1.334 . S
C806 C807 1.287 . S
C807 C806 1.287 . S
C807 C808 1.524 . S
C807 H810 0.999 . S
C808 H778 0.950 . S
C808 C807 1.524 . S
C808 C809 1.415 . S
C809 H779 0.950 . S
C809 C804 1.363 . S
C809 C808 1.415 . S
H810 C807 0.999 . S
H811 C792 0.913 . S
H812 C830 0.951 . S
H813 C832 0.951 . S
H814 C834 0.950 . S
H815 C835 0.950 . S
H816 C837 0.950 . S
H817 C840 0.950 . S
H818 C841 0.950 . S
H819 C843 0.950 . S
H820 C844 0.950 . S
H821 C845 0.951 . S
H822 C847 0.951 . S
H823 C849 0.950 . S
H824 C850 0.950 . S
H825 C852 0.950 . S
H826 C855 0.950 . S
H827 C856 0.950 . S
H828 C858 0.950 . S
H829 C859 0.964 . S
C830 H812 0.951 . S
C830 C831 1.366 . S
C830 C832 1.388 . S
C831 C830 1.366 . S
C831 C835 1.385 . S
C832 H813 0.951 . S
C832 C830 1.388 . S
C832 C833 1.366 . S
C833 C832 1.366 . S
C833 C834 1.414 . S
C833 C836 1.499 . S
C834 H814 0.950 . S
C834 C833 1.414 . S
C834 C835 1.374 . S
C835 H815 0.950 . S
C835 C831 1.385 . S
C835 C834 1.374 . S
C836 C833 1.499 . S
C836 C837 1.373 . S
C836 C838 1.389 . S
C837 H816 0.950 . S
C837 C836 1.373 . S
C837 C853 1.377 . S
C838 C836 1.389 . S
C838 C839 1.524 . S
C838 C852 1.377 . S
C839 C838 1.524 . S
C839 C840 1.397 . S
C839 C844 1.363 . S
C840 H817 0.950 . S
C840 C839 1.397 . S
C840 C841 1.334 . S
C841 H818 0.950 . S
C841 C840 1.334 . S
C841 C842 1.287 . S
C842 C841 1.287 . S
C842 C843 1.524 . S
C842 H861 0.913 . S
C843 H819 0.950 . S
C843 C842 1.524 . S
C843 C844 1.415 . S
C844 H820 0.950 . S
C844 C839 1.363 . S
C844 C843 1.415 . S
C845 H821 0.951 . S
C845 C846 1.366 . S
C845 C847 1.388 . S
C846 C845 1.366 . S
C846 C850 1.385 . S
C847 H822 0.951 . S
C847 C845 1.388 . S
C847 C848 1.366 . S
C848 C847 1.366 . S
C848 C849 1.414 . S
C848 C851 1.499 . S
C849 H823 0.950 . S
C849 C848 1.414 . S
C849 C850 1.374 . S
C850 H824 0.950 . S
C850 C846 1.385 . S
C850 C849 1.374 . S
C851 C848 1.499 . S
C851 C852 1.373 . S
C851 C853 1.389 . S
C852 H825 0.950 . S
C852 C838 1.377 . S
C852 C851 1.373 . S
C853 C837 1.377 . S
C853 C851 1.389 . S
C853 C854 1.524 . S
C854 C853 1.524 . S
C854 C855 1.397 . S
C854 C859 1.380 . S
C855 H826 0.950 . S
C855 C854 1.397 . S
C855 C856 1.334 1_655 S
C856 H827 0.950 . S
C856 C855 1.334 1_455 S
C856 C857 1.287 . S
C857 C856 1.287 . S
C857 C858 1.524 . S
C857 H860 0.999 . S
C858 H828 0.950 . S
C858 C857 1.524 . S
C858 C859 1.385 1_455 S
C859 H829 0.964 . S
C859 C854 1.380 . S
C859 C858 1.385 1_655 S
H860 C857 0.999 . S
H861 C842 0.913 . S
H862 C880 0.951 . S
H863 C882 0.951 . S
H864 C884 0.950 . S
H865 C885 0.950 . S
H866 C887 0.950 . S
H867 C890 0.950 . S
H868 C891 0.950 . S
H869 C893 0.950 . S
H870 C894 0.950 . S
H871 C895 0.951 . S
H872 C897 0.951 . S
H873 C899 0.950 . S
H874 C900 0.950 . S
H875 C902 0.950 . S
H876 C905 0.950 . S
H877 C906 0.950 . S
H878 C908 0.950 . S
H879 C909 0.950 . S
C880 H862 0.951 . S
C880 C881 1.366 . S
C880 C882 1.388 . S
C881 C880 1.366 . S
C881 C885 1.385 . S
C882 H863 0.951 . S
C882 C880 1.388 . S
C882 C883 1.366 . S
C883 C882 1.366 . S
C883 C884 1.414 . S
C883 C886 1.499 . S
C884 H864 0.950 . S
C884 C883 1.414 . S
C884 C885 1.374 . S
C885 H865 0.950 . S
C885 C881 1.385 . S
C885 C884 1.374 . S
C886 C883 1.499 . S
C886 C887 1.373 . S
C886 C888 1.389 . S
C887 H866 0.950 . S
C887 C886 1.373 . S
C887 C903 1.377 . S
C888 C886 1.389 . S
C888 C889 1.524 . S
C888 C902 1.377 . S
C889 C888 1.524 . S
C889 C890 1.397 . S
C889 C894 1.363 . S
C890 H867 0.950 . S
C890 C889 1.397 . S
C890 C891 1.334 . S
C891 H868 0.950 . S
C891 C890 1.334 . S
C891 C892 1.287 . S
C892 C891 1.287 . S
C892 C893 1.524 . S
C892 H911 0.913 . S
C893 H869 0.950 . S
C893 C892 1.524 . S
C893 C894 1.415 . S
C894 H870 0.950 . S
C894 C889 1.363 . S
C894 C893 1.415 . S
C895 H871 0.951 . S
C895 C896 1.366 . S
C895 C897 1.388 . S
C896 C895 1.366 . S
C896 C900 1.385 . S
C897 H872 0.951 . S
C897 C895 1.388 . S
C897 C898 1.366 . S
C898 C897 1.366 . S
C898 C899 1.414 . S
C898 C901 1.499 . S
C899 H873 0.950 . S
C899 C898 1.414 . S
C899 C900 1.374 . S
C900 H874 0.950 . S
C900 C896 1.385 . S
C900 C899 1.374 . S
C901 C898 1.499 . S
C901 C902 1.373 . S
C901 C903 1.389 . S
C902 H875 0.950 . S
C902 C888 1.377 . S
C902 C901 1.373 . S
C903 C887 1.377 . S
C903 C901 1.389 . S
C903 C904 1.524 . S
C904 C903 1.524 . S
C904 C905 1.397 . S
C904 C909 1.363 . S
C905 H876 0.950 . S
C905 C904 1.397 . S
C905 C906 1.334 . S
C906 H877 0.950 . S
C906 C905 1.334 . S
C906 C907 1.287 . S
C907 C906 1.287 . S
C907 C908 1.524 . S
C907 H910 0.999 1_655 S
C908 H878 0.950 . S
C908 C907 1.524 . S
C908 C909 1.415 . S
C909 H879 0.950 . S
C909 C904 1.363 . S
C909 C908 1.415 . S
H910 C907 0.999 1_455 S
H911 C892 0.913 . S
H912 C930 0.951 . S
H913 C932 0.951 . S
H914 C934 0.950 . S
H915 C935 0.950 . S
H916 C937 0.950 . S
H917 C940 0.950 . S
H918 C941 0.950 . S
H919 C943 0.950 . S
H920 C944 0.950 . S
H921 C945 0.951 . S
H922 C947 0.951 . S
H923 C949 0.950 . S
H924 C950 0.950 . S
H925 C952 0.950 . S
H926 C955 0.950 . S
H927 C956 0.950 . S
H928 C958 0.950 . S
H929 C959 0.950 . S
C930 H912 0.951 . S
C930 C931 1.366 . S
C930 C932 1.388 . S
C931 C930 1.366 . S
C931 C935 1.385 . S
C932 H913 0.951 . S
C932 C930 1.388 . S
C932 C933 1.366 . S
C933 C932 1.366 . S
C933 C934 1.414 . S
C933 C936 1.499 . S
C934 H914 0.950 . S
C934 C933 1.414 . S
C934 C935 1.374 . S
C935 H915 0.950 . S
C935 C931 1.385 . S
C935 C934 1.374 . S
C936 C933 1.499 . S
C936 C937 1.373 . S
C936 C938 1.389 . S
C937 H916 0.950 . S
C937 C936 1.373 . S
C937 C953 1.377 . S
C938 C936 1.389 . S
C938 C939 1.524 . S
C938 C952 1.377 . S
C939 C938 1.524 . S
C939 C940 1.397 . S
C939 C944 1.363 . S
C940 H917 0.950 . S
C940 C939 1.397 . S
C940 C941 1.334 . S
C941 H918 0.950 . S
C941 C940 1.334 . S
C941 C942 1.287 . S
C942 C941 1.287 . S
C942 C943 1.524 . S
C942 H961 0.913 . S
C943 H919 0.950 . S
C943 C942 1.524 . S
C943 C944 1.415 . S
C944 H920 0.950 . S
C944 C939 1.363 . S
C944 C943 1.415 . S
C945 H921 0.951 . S
C945 C946 1.366 . S
C945 C947 1.388 . S
C946 C945 1.366 . S
C946 C950 1.385 . S
C947 H922 0.951 . S
C947 C945 1.388 . S
C947 C948 1.366 . S
C948 C947 1.366 . S
C948 C949 1.414 . S
C948 C951 1.499 . S
C949 H923 0.950 . S
C949 C948 1.414 . S
C949 C950 1.374 . S
C950 H924 0.950 . S
C950 C946 1.385 . S
C950 C949 1.374 . S
C951 C948 1.499 . S
C951 C952 1.373 . S
C951 C953 1.389 . S
C952 H925 0.950 . S
C952 C938 1.377 . S
C952 C951 1.373 . S
C953 C937 1.377 . S
C953 C951 1.389 . S
C953 C954 1.524 . S
C954 C953 1.524 . S
C954 C955 1.397 . S
C954 C959 1.363 . S
C955 H926 0.950 . S
C955 C954 1.397 . S
C955 C956 1.334 . S
C956 H927 0.950 . S
C956 C955 1.334 . S
C956 C957 1.287 . S
C957 C956 1.287 . S
C957 C958 1.524 . S
C957 H960 0.999 . S
C958 H928 0.950 . S
C958 C957 1.524 . S
C958 C959 1.415 . S
C959 H929 0.950 . S
C959 C954 1.363 . S
C959 C958 1.415 . S
H960 C957 0.999 . S
H961 C942 0.913 . S
H962 C980 0.951 . S
H963 C982 0.951 . S
H964 C984 0.950 . S
H965 C985 0.950 . S
H966 C987 0.950 . S
H967 C990 0.950 . S
H968 C991 0.950 . S
H969 C993 0.950 . S
H970 C994 0.950 . S
H971 C995 0.951 . S
H972 C997 0.951 . S
H973 C999 0.950 . S
H974 C1000 0.950 . S
H975 C1002 0.950 . S
H976 C1005 0.950 . S
H977 C1006 0.950 1_455 S
H978 C1008 0.950 . S
H979 C1009 0.950 . S
C980 H962 0.951 . S
C980 C981 1.366 . S
C980 C982 1.388 . S
C981 C980 1.366 . S
C981 C985 1.385 . S
C982 H963 0.951 . S
C982 C980 1.388 . S
C982 C983 1.366 . S
C983 C982 1.366 . S
C983 C984 1.414 . S
C983 C986 1.499 . S
C984 H964 0.950 . S
C984 C983 1.414 . S
C984 C985 1.374 . S
C985 H965 0.950 . S
C985 C981 1.385 . S
C985 C984 1.374 . S
C986 C983 1.499 . S
C986 C987 1.373 . S
C986 C988 1.389 . S
C987 H966 0.950 . S
C987 C986 1.373 . S
C987 C1003 1.377 . S
C988 C986 1.389 . S
C988 C989 1.524 . S
C988 C1002 1.377 . S
C989 C988 1.524 . S
C989 C990 1.397 . S
C989 C994 1.363 . S
C990 H967 0.950 . S
C990 C989 1.397 . S
C990 C991 1.334 . S
C991 H968 0.950 . S
C991 C990 1.334 . S
C991 C992 1.287 . S
C992 C991 1.287 . S
C992 C993 1.524 . S
C992 H1011 0.913 . S
C993 H969 0.950 . S
C993 C992 1.524 . S
C993 C994 1.415 . S
C994 H970 0.950 . S
C994 C989 1.363 . S
C994 C993 1.415 . S
C995 H971 0.951 . S
C995 C996 1.366 . S
C995 C997 1.388 . S
C996 C995 1.366 . S
C996 C1000 1.385 . S
C997 H972 0.951 . S
C997 C995 1.388 . S
C997 C998 1.366 . S
C998 C997 1.366 . S
C998 C999 1.414 . S
C998 C1001 1.499 . S
C999 H973 0.950 . S
C999 C998 1.414 . S
C999 C1000 1.374 . S
C1000 H974 0.950 . S
C1000 C996 1.385 . S
C1000 C999 1.374 . S
C1001 C998 1.499 . S
C1001 C1002 1.373 . S
C1001 C1003 1.389 . S
C1002 H975 0.950 . S
C1002 C988 1.377 . S
C1002 C1001 1.373 . S
C1003 C987 1.377 . S
C1003 C1001 1.389 . S
C1003 C1004 1.524 . S
C1004 C1003 1.524 . S
C1004 C1005 1.397 . S
C1004 C1009 1.363 . S
C1005 H976 0.950 . S
C1005 C1004 1.397 . S
C1005 C1006 1.334 . S
C1006 H977 0.950 1_655 S
C1006 C1005 1.334 . S
C1006 C1007 1.287 . S
C1007 C1006 1.287 . S
C1007 C1008 1.524 . S
C1007 H1010 0.999 1_655 S
C1008 H978 0.950 . S
C1008 C1007 1.524 . S
C1008 C1009 1.415 . S
C1009 H979 0.950 . S
C1009 C1004 1.363 . S
C1009 C1008 1.415 . S
H1010 C1007 0.999 1_455 S
H1011 C992 0.913 . S
H1012 C1030 0.951 . S
H1013 C1032 0.951 . S
H1014 C1034 0.950 . S
H1015 C1035 0.950 . S
H1016 C1037 0.950 . S
H1017 C1040 0.950 . S
H1018 C1041 0.950 . S
H1019 C1043 0.950 . S
H1020 C1044 0.950 . S
H1021 C1045 0.951 . S
H1022 C1047 0.951 . S
H1023 C1049 0.950 . S
H1024 C1050 0.950 . S
H1025 C1052 0.950 . S
H1026 C1055 0.952 . S
H1027 C1056 0.950 . S
H1028 C1058 0.950 . S
H1029 C1059 0.950 . S
C1030 H1012 0.951 . S
C1030 C1031 1.366 . S
C1030 C1032 1.388 . S
C1031 C1030 1.366 . S
C1031 C1035 1.385 . S
C1032 H1013 0.951 . S
C1032 C1030 1.388 . S
C1032 C1033 1.366 . S
C1033 C1032 1.366 . S
C1033 C1034 1.414 . S
C1033 C1036 1.499 . S
C1034 H1014 0.950 . S
C1034 C1033 1.414 . S
C1034 C1035 1.374 . S
C1035 H1015 0.950 . S
C1035 C1031 1.385 . S
C1035 C1034 1.374 . S
C1036 C1033 1.499 . S
C1036 C1037 1.373 . S
C1036 C1038 1.389 . S
C1037 H1016 0.950 . S
C1037 C1036 1.373 . S
C1037 C1053 1.377 . S
C1038 C1036 1.389 . S
C1038 C1039 1.524 . S
C1038 C1052 1.377 . S
C1039 C1038 1.524 . S
C1039 C1040 1.397 . S
C1039 C1044 1.363 . S
C1040 H1017 0.950 . S
C1040 C1039 1.397 . S
C1040 C1041 1.334 . S
C1041 H1018 0.950 . S
C1041 C1040 1.334 . S
C1041 C1042 1.287 . S
C1042 C1041 1.287 . S
C1042 C1043 1.524 . S
C1042 H1061 0.913 . S
C1043 H1019 0.950 . S
C1043 C1042 1.524 . S
C1043 C1044 1.415 . S
C1044 H1020 0.950 . S
C1044 C1039 1.363 . S
C1044 C1043 1.415 . S
C1045 H1021 0.951 . S
C1045 C1046 1.366 . S
C1045 C1047 1.388 . S
C1046 C1045 1.366 . S
C1046 C1050 1.385 . S
C1047 H1022 0.951 . S
C1047 C1045 1.388 . S
C1047 C1048 1.366 . S
C1048 C1047 1.366 . S
C1048 C1049 1.414 . S
C1048 C1051 1.499 . S
C1049 H1023 0.950 . S
C1049 C1048 1.414 . S
C1049 C1050 1.374 . S
C1050 H1024 0.950 . S
C1050 C1046 1.385 . S
C1050 C1049 1.374 . S
C1051 C1048 1.499 . S
C1051 C1052 1.373 . S
C1051 C1053 1.389 . S
C1052 H1025 0.950 . S
C1052 C1038 1.377 . S
C1052 C1051 1.373 . S
C1053 C1037 1.377 . S
C1053 C1051 1.389 . S
C1053 C1054 1.524 . S
C1054 C1053 1.524 . S
C1054 C1055 1.387 1_565 S
C1054 C1059 1.363 . S
C1055 H1026 0.952 . S
C1055 C1054 1.387 1_545 S
C1055 C1056 1.341 . S
C1056 H1027 0.950 . S
C1056 C1055 1.341 . S
C1056 C1057 1.287 . S
C1057 C1056 1.287 . S
C1057 C1058 1.524 1_545 S
C1057 H1060 0.999 . S
C1058 H1028 0.950 . S
C1058 C1057 1.524 1_565 S
C1058 C1059 1.415 . S
C1059 H1029 0.950 . S
C1059 C1054 1.363 . S
C1059 C1058 1.415 . S
H1060 C1057 0.999 . S
H1061 C1042 0.913 . S
H1062 C1080 0.951 . S
H1063 C1082 0.951 . S
H1064 C1084 0.950 . S
H1065 C1085 0.950 . S
H1066 C1087 0.950 . S
H1067 C1090 0.950 . S
H1068 C1091 0.950 . S
H1069 C1093 0.950 . S
H1070 C1094 0.950 . S
H1071 C1095 0.951 . S
H1072 C1097 0.951 . S
H1073 C1099 0.950 . S
H1074 C1100 0.950 . S
H1075 C1102 0.950 . S
H1076 C1105 0.950 . S
H1077 C1106 0.950 . S
H1078 C1108 0.950 . S
H1079 C1109 0.950 . S
C1080 H1062 0.951 . S
C1080 C1081 1.366 . S
C1080 C1082 1.388 . S
C1081 C1080 1.366 . S
C1081 C1085 1.385 . S
C1082 H1063 0.951 . S
C1082 C1080 1.388 . S
C1082 C1083 1.366 . S
C1083 C1082 1.366 . S
C1083 C1084 1.414 . S
C1083 C1086 1.499 . S
C1084 H1064 0.950 . S
C1084 C1083 1.414 . S
C1084 C1085 1.374 . S
C1085 H1065 0.950 . S
C1085 C1081 1.385 . S
C1085 C1084 1.374 . S
C1086 C1083 1.499 . S
C1086 C1087 1.373 . S
C1086 C1088 1.389 . S
C1087 H1066 0.950 . S
C1087 C1086 1.373 . S
C1087 C1103 1.377 . S
C1088 C1086 1.389 . S
C1088 C1089 1.524 . S
C1088 C1102 1.377 . S
C1089 C1088 1.524 . S
C1089 C1090 1.397 . S
C1089 C1094 1.363 . S
C1090 H1067 0.950 . S
C1090 C1089 1.397 . S
C1090 C1091 1.334 . S
C1091 H1068 0.950 . S
C1091 C1090 1.334 . S
C1091 C1092 1.287 . S
C1092 C1091 1.287 . S
C1092 C1093 1.524 . S
C1092 H1111 0.913 . S
C1093 H1069 0.950 . S
C1093 C1092 1.524 . S
C1093 C1094 1.415 . S
C1094 H1070 0.950 . S
C1094 C1089 1.363 . S
C1094 C1093 1.415 . S
C1095 H1071 0.951 . S
C1095 C1096 1.366 . S
C1095 C1097 1.388 . S
C1096 C1095 1.366 . S
C1096 C1100 1.385 . S
C1097 H1072 0.951 . S
C1097 C1095 1.388 . S
C1097 C1098 1.366 . S
C1098 C1097 1.366 . S
C1098 C1099 1.414 . S
C1098 C1101 1.499 . S
C1099 H1073 0.950 . S
C1099 C1098 1.414 . S
C1099 C1100 1.374 . S
C1100 H1074 0.950 . S
C1100 C1096 1.385 . S
C1100 C1099 1.374 . S
C1101 C1098 1.499 . S
C1101 C1102 1.373 . S
C1101 C1103 1.389 . S
C1102 H1075 0.950 . S
C1102 C1088 1.377 . S
C1102 C1101 1.373 . S
C1103 C1087 1.377 . S
C1103 C1101 1.389 . S
C1103 C1104 1.524 . S
C1104 C1103 1.524 . S
C1104 C1105 1.397 . S
C1104 C1109 1.363 . S
C1105 H1076 0.950 . S
C1105 C1104 1.397 . S
C1105 C1106 1.334 . S
C1106 H1077 0.950 . S
C1106 C1105 1.334 . S
C1106 C1107 1.287 . S
C1107 C1106 1.287 . S
C1107 C1108 1.524 . S
C1107 H1110 0.999 . S
C1108 H1078 0.950 . S
C1108 C1107 1.524 . S
C1108 C1109 1.415 . S
C1109 H1079 0.950 . S
C1109 C1104 1.363 . S
C1109 C1108 1.415 . S
H1110 C1107 0.999 . S
H1111 C1092 0.913 . S
H1112 C1130 0.951 . S
H1113 C1132 0.951 . S
H1114 C1134 0.950 . S
H1115 C1135 0.950 . S
H1116 C1137 0.950 . S
H1117 C1140 0.950 . S
H1118 C1141 0.950 . S
H1119 C1143 0.950 . S
H1120 C1144 0.950 . S
H1121 C1145 0.951 . S
H1122 C1147 0.951 . S
H1123 C1149 0.950 . S
H1124 C1150 0.950 . S
H1125 C1152 0.950 . S
H1126 C1155 0.950 . S
H1127 C1156 0.950 . S
H1128 C1158 0.950 . S
H1129 C1159 0.950 . S
C1130 H1112 0.951 . S
C1130 C1131 1.366 . S
C1130 C1132 1.388 . S
C1131 C1130 1.366 . S
C1131 C1135 1.385 . S
C1132 H1113 0.951 . S
C1132 C1130 1.388 . S
C1132 C1133 1.366 . S
C1133 C1132 1.366 . S
C1133 C1134 1.414 . S
C1133 C1136 1.499 . S
C1134 H1114 0.950 . S
C1134 C1133 1.414 . S
C1134 C1135 1.374 . S
C1135 H1115 0.950 . S
C1135 C1131 1.385 . S
C1135 C1134 1.374 . S
C1136 C1133 1.499 . S
C1136 C1137 1.373 . S
C1136 C1138 1.389 . S
C1137 H1116 0.950 . S
C1137 C1136 1.373 . S
C1137 C1153 1.377 . S
C1138 C1136 1.389 . S
C1138 C1139 1.524 . S
C1138 C1152 1.377 . S
C1139 C1138 1.524 . S
C1139 C1140 1.397 . S
C1139 C1144 1.363 . S
C1140 H1117 0.950 . S
C1140 C1139 1.397 . S
C1140 C1141 1.334 . S
C1141 H1118 0.950 . S
C1141 C1140 1.334 . S
C1141 C1142 1.287 . S
C1142 C1141 1.287 . S
C1142 C1143 1.524 . S
C1142 H1161 0.913 . S
C1143 H1119 0.950 . S
C1143 C1142 1.524 . S
C1143 C1144 1.415 . S
C1144 H1120 0.950 . S
C1144 C1139 1.363 . S
C1144 C1143 1.415 . S
C1145 H1121 0.951 . S
C1145 C1146 1.366 . S
C1145 C1147 1.388 . S
C1146 C1145 1.366 . S
C1146 C1150 1.385 . S
C1147 H1122 0.951 . S
C1147 C1145 1.388 . S
C1147 C1148 1.366 . S
C1148 C1147 1.366 . S
C1148 C1149 1.414 . S
C1148 C1151 1.499 . S
C1149 H1123 0.950 . S
C1149 C1148 1.414 . S
C1149 C1150 1.374 . S
C1150 H1124 0.950 . S
C1150 C1146 1.385 . S
C1150 C1149 1.374 . S
C1151 C1148 1.499 . S
C1151 C1152 1.373 . S
C1151 C1153 1.389 . S
C1152 H1125 0.950 . S
C1152 C1138 1.377 . S
C1152 C1151 1.373 . S
C1153 C1137 1.377 . S
C1153 C1151 1.389 . S
C1153 C1154 1.524 . S
C1154 C1153 1.524 . S
C1154 C1155 1.397 . S
C1154 C1159 1.363 . S
C1155 H1126 0.950 . S
C1155 C1154 1.397 . S
C1155 C1156 1.334 . S
C1156 H1127 0.950 . S
C1156 C1155 1.334 . S
C1156 C1157 1.287 . S
C1157 C1156 1.287 . S
C1157 C1158 1.524 . S
C1157 H1160 0.999 . S
C1158 H1128 0.950 . S
C1158 C1157 1.524 . S
C1158 C1159 1.415 . S
C1159 H1129 0.950 . S
C1159 C1154 1.363 . S
C1159 C1158 1.415 . S
H1160 C1157 0.999 . S
H1161 C1142 0.913 . S
H1162 C1180 0.951 . S
H1163 C1182 0.951 . S
H1164 C1184 0.950 . S
H1165 C1185 0.950 . S
H1166 C1187 0.950 . S
H1167 C1190 0.950 . S
H1168 C1191 0.950 . S
H1169 C1193 0.936 1_554 S
H1170 C1194 0.950 . S
H1171 C1195 0.951 . S
H1172 C1197 0.951 . S
H1173 C1199 0.950 . S
H1174 C1200 0.950 1_554 S
H1175 C1202 0.950 . S
H1176 C1205 0.950 . S
H1177 C1206 0.950 . S
H1178 C1208 0.950 . S
H1179 C1209 0.950 . S
C1180 H1162 0.951 . S
C1180 C1181 1.366 . S
C1180 C1182 1.388 . S
C1181 C1180 1.366 . S
C1181 C1185 1.385 . S
C1182 H1163 0.951 . S
C1182 C1180 1.388 . S
C1182 C1183 1.366 . S
C1183 C1182 1.366 . S
C1183 C1184 1.414 . S
C1183 C1186 1.499 . S
C1184 H1164 0.950 . S
C1184 C1183 1.414 . S
C1184 C1185 1.374 . S
C1185 H1165 0.950 . S
C1185 C1181 1.385 . S
C1185 C1184 1.374 . S
C1186 C1183 1.499 . S
C1186 C1187 1.373 . S
C1186 C1188 1.389 . S
C1187 H1166 0.950 . S
C1187 C1186 1.373 . S
C1187 C1203 1.377 . S
C1188 C1186 1.389 . S
C1188 C1189 1.524 . S
C1188 C1202 1.377 . S
C1189 C1188 1.524 . S
C1189 C1190 1.397 . S
C1189 C1194 1.363 . S
C1190 H1167 0.950 . S
C1190 C1189 1.397 . S
C1190 C1191 1.334 . S
C1191 H1168 0.950 . S
C1191 C1190 1.334 . S
C1191 C1192 1.287 . S
C1192 C1191 1.287 . S
C1192 C1193 1.524 . S
C1192 H1211 0.913 . S
C1193 H1169 0.936 1_556 S
C1193 C1192 1.524 . S
C1193 C1194 1.415 . S
C1194 H1170 0.950 . S
C1194 C1189 1.363 . S
C1194 C1193 1.415 . S
C1195 H1171 0.951 . S
C1195 C1196 1.366 . S
C1195 C1197 1.388 . S
C1196 C1195 1.366 . S
C1196 C1200 1.385 . S
C1197 H1172 0.951 . S
C1197 C1195 1.388 . S
C1197 C1198 1.366 . S
C1198 C1197 1.366 . S
C1198 C1199 1.414 . S
C1198 C1201 1.499 . S
C1199 H1173 0.950 . S
C1199 C1198 1.414 . S
C1199 C1200 1.374 . S
C1200 H1174 0.950 1_556 S
C1200 C1196 1.385 . S
C1200 C1199 1.374 . S
C1201 C1198 1.499 . S
C1201 C1202 1.373 . S
C1201 C1203 1.389 . S
C1202 H1175 0.950 . S
C1202 C1188 1.377 . S
C1202 C1201 1.373 . S
C1203 C1187 1.377 . S
C1203 C1201 1.389 . S
C1203 C1204 1.524 . S
C1204 C1203 1.524 . S
C1204 C1205 1.397 . S
C1204 C1209 1.363 . S
C1205 H1176 0.950 . S
C1205 C1204 1.397 . S
C1205 C1206 1.334 . S
C1206 H1177 0.950 . S
C1206 C1205 1.334 . S
C1206 C1207 1.287 . S
C1207 C1206 1.287 . S
C1207 C1208 1.524 . S
C1207 H1210 0.999 . S
C1208 H1178 0.950 . S
C1208 C1207 1.524 . S
C1208 C1209 1.415 . S
C1209 H1179 0.950 . S
C1209 C1204 1.363 . S
C1209 C1208 1.415 . S
H1210 C1207 0.999 . S
H1211 C1192 0.913 . S
H1212 C1230 0.951 . S
H1213 C1232 0.951 . S
H1214 C1234 0.950 . S
H1215 C1235 0.950 . S
H1216 C1237 0.950 . S
H1217 C1240 0.950 . S
H1218 C1241 0.950 . S
H1219 C1243 0.950 . S
H1220 C1244 0.950 . S
H1221 C1245 0.951 . S
H1222 C1247 0.951 . S
H1223 C1249 0.950 . S
H1224 C1250 0.950 . S
H1225 C1252 0.950 . S
H1226 C1255 0.950 . S
H1227 C1256 0.950 . S
H1228 C1258 0.950 . S
H1229 C1259 0.950 . S
C1230 H1212 0.951 . S
C1230 C1231 1.366 . S
C1230 C1232 1.388 . S
C1231 C1230 1.366 . S
C1231 C1235 1.385 . S
C1232 H1213 0.951 . S
C1232 C1230 1.388 . S
C1232 C1233 1.366 . S
C1233 C1232 1.366 . S
C1233 C1234 1.414 . S
C1233 C1236 1.499 . S
C1234 H1214 0.950 . S
C1234 C1233 1.414 . S
C1234 C1235 1.374 . S
C1235 H1215 0.950 . S
C1235 C1231 1.385 . S
C1235 C1234 1.374 . S
C1236 C1233 1.499 . S
C1236 C1237 1.373 . S
C1236 C1238 1.389 . S
C1237 H1216 0.950 . S
C1237 C1236 1.373 . S
C1237 C1253 1.377 . S
C1238 C1236 1.389 . S
C1238 C1239 1.524 . S
C1238 C1252 1.377 . S
C1239 C1238 1.524 . S
C1239 C1240 1.397 . S
C1239 C1244 1.363 . S
C1240 H1217 0.950 . S
C1240 C1239 1.397 . S
C1240 C1241 1.334 . S
C1241 H1218 0.950 . S
C1241 C1240 1.334 . S
C1241 C1242 1.287 . S
C1242 C1241 1.287 . S
C1242 C1243 1.524 . S
C1242 H1261 0.913 . S
C1243 H1219 0.950 . S
C1243 C1242 1.524 . S
C1243 C1244 1.415 . S
C1244 H1220 0.950 . S
C1244 C1239 1.363 . S
C1244 C1243 1.415 . S
C1245 H1221 0.951 . S
C1245 C1246 1.366 . S
C1245 C1247 1.388 . S
C1246 C1245 1.366 . S
C1246 C1250 1.385 . S
C1247 H1222 0.951 . S
C1247 C1245 1.388 . S
C1247 C1248 1.366 . S
C1248 C1247 1.366 . S
C1248 C1249 1.414 . S
C1248 C1251 1.499 . S
C1249 H1223 0.950 . S
C1249 C1248 1.414 . S
C1249 C1250 1.374 . S
C1250 H1224 0.950 . S
C1250 C1246 1.385 . S
C1250 C1249 1.374 . S
C1251 C1248 1.499 . S
C1251 C1252 1.373 . S
C1251 C1253 1.389 . S
C1252 H1225 0.950 . S
C1252 C1238 1.377 . S
C1252 C1251 1.373 . S
C1253 C1237 1.377 . S
C1253 C1251 1.389 . S
C1253 C1254 1.524 . S
C1254 C1253 1.524 . S
C1254 C1255 1.397 . S
C1254 C1259 1.363 . S
C1255 H1226 0.950 . S
C1255 C1254 1.397 . S
C1255 C1256 1.334 . S
C1256 H1227 0.950 . S
C1256 C1255 1.334 . S
C1256 C1257 1.287 . S
C1257 C1256 1.287 . S
C1257 C1258 1.524 . S
C1257 H1260 0.999 1_556 S
C1258 H1228 0.950 . S
C1258 C1257 1.524 . S
C1258 C1259 1.415 . S
C1259 H1229 0.950 . S
C1259 C1254 1.363 . S
C1259 C1258 1.415 . S
H1260 C1257 0.999 1_554 S
H1261 C1242 0.913 . S
H1262 C1280 0.951 . S
H1263 C1282 0.951 . S
H1264 C1284 0.950 . S
H1265 C1285 0.950 . S
H1266 C1287 0.950 . S
H1267 C1290 0.950 . S
H1268 C1291 0.950 . S
H1269 C1293 0.950 . S
H1270 C1294 0.950 . S
H1271 C1295 0.951 . S
H1272 C1297 0.951 . S
H1273 C1299 0.950 . S
H1274 C1300 0.950 . S
H1275 C1302 0.950 . S
H1276 C1305 0.950 . S
H1277 C1306 0.950 . S
H1278 C1308 0.950 . S
H1279 C1309 0.950 . S
C1280 H1262 0.951 . S
C1280 C1281 1.366 . S
C1280 C1282 1.388 . S
C1281 C1280 1.366 . S
C1281 C1285 1.385 . S
C1282 H1263 0.951 . S
C1282 C1280 1.388 . S
C1282 C1283 1.366 . S
C1283 C1282 1.366 . S
C1283 C1284 1.414 . S
C1283 C1286 1.499 . S
C1284 H1264 0.950 . S
C1284 C1283 1.414 . S
C1284 C1285 1.374 . S
C1285 H1265 0.950 . S
C1285 C1281 1.385 . S
C1285 C1284 1.374 . S
C1286 C1283 1.499 . S
C1286 C1287 1.373 . S
C1286 C1288 1.389 . S
C1287 H1266 0.950 . S
C1287 C1286 1.373 . S
C1287 C1303 1.377 . S
C1288 C1286 1.389 . S
C1288 C1289 1.524 . S
C1288 C1302 1.377 . S
C1289 C1288 1.524 . S
C1289 C1290 1.397 . S
C1289 C1294 1.363 . S
C1290 H1267 0.950 . S
C1290 C1289 1.397 . S
C1290 C1291 1.334 . S
C1291 H1268 0.950 . S
C1291 C1290 1.334 . S
C1291 C1292 1.287 . S
C1292 C1291 1.287 . S
C1292 C1293 1.524 . S
C1292 H1311 0.913 . S
C1293 H1269 0.950 . S
C1293 C1292 1.524 . S
C1293 C1294 1.415 . S
C1294 H1270 0.950 . S
C1294 C1289 1.363 . S
C1294 C1293 1.415 . S
C1295 H1271 0.951 . S
C1295 C1296 1.366 . S
C1295 C1297 1.388 . S
C1296 C1295 1.366 . S
C1296 C1300 1.385 . S
C1297 H1272 0.951 . S
C1297 C1295 1.388 . S
C1297 C1298 1.366 . S
C1298 C1297 1.366 . S
C1298 C1299 1.414 . S
C1298 C1301 1.499 . S
C1299 H1273 0.950 . S
C1299 C1298 1.414 . S
C1299 C1300 1.374 . S
C1300 H1274 0.950 . S
C1300 C1296 1.385 . S
C1300 C1299 1.374 . S
C1301 C1298 1.499 . S
C1301 C1302 1.373 . S
C1301 C1303 1.389 . S
C1302 H1275 0.950 . S
C1302 C1288 1.377 . S
C1302 C1301 1.373 . S
C1303 C1287 1.377 . S
C1303 C1301 1.389 . S
C1303 C1304 1.524 . S
C1304 C1303 1.524 . S
C1304 C1305 1.397 . S
C1304 C1309 1.363 . S
C1305 H1276 0.950 . S
C1305 C1304 1.397 . S
C1305 C1306 1.334 . S
C1306 H1277 0.950 . S
C1306 C1305 1.334 . S
C1306 C1307 1.287 . S
C1307 C1306 1.287 . S
C1307 C1308 1.524 . S
C1307 H1310 0.999 1_655 S
C1308 H1278 0.950 . S
C1308 C1307 1.524 . S
C1308 C1309 1.415 . S
C1309 H1279 0.950 . S
C1309 C1304 1.363 . S
C1309 C1308 1.415 . S
H1310 C1307 0.999 1_455 S
H1311 C1292 0.913 . S
H1312 C1330 0.951 . S
H1313 C1332 0.951 . S
H1314 C1334 0.950 . S
H1315 C1335 0.950 . S
H1316 C1337 0.950 . S
H1317 C1340 0.950 . S
H1318 C1341 0.950 . S
H1319 C1343 0.950 . S
H1320 C1344 0.950 . S
H1321 C1345 0.951 . S
H1322 C1347 0.951 . S
H1323 C1349 0.950 . S
H1324 C1350 0.950 . S
H1325 C1352 0.950 . S
H1326 C1355 0.950 . S
H1327 C1356 0.950 . S
H1328 C1358 0.950 . S
H1329 C1359 0.950 . S
C1330 H1312 0.951 . S
C1330 C1331 1.366 . S
C1330 C1332 1.388 . S
C1331 C1330 1.366 . S
C1331 C1335 1.385 . S
C1332 H1313 0.951 . S
C1332 C1330 1.388 . S
C1332 C1333 1.366 . S
C1333 C1332 1.366 . S
C1333 C1334 1.414 . S
C1333 C1336 1.499 . S
C1334 H1314 0.950 . S
C1334 C1333 1.414 . S
C1334 C1335 1.374 . S
C1335 H1315 0.950 . S
C1335 C1331 1.385 . S
C1335 C1334 1.374 . S
C1336 C1333 1.499 . S
C1336 C1337 1.373 . S
C1336 C1338 1.389 . S
C1337 H1316 0.950 . S
C1337 C1336 1.373 . S
C1337 C1353 1.377 . S
C1338 C1336 1.389 . S
C1338 C1339 1.524 . S
C1338 C1352 1.377 . S
C1339 C1338 1.524 . S
C1339 C1340 1.397 . S
C1339 C1344 1.363 . S
C1340 H1317 0.950 . S
C1340 C1339 1.397 . S
C1340 C1341 1.334 . S
C1341 H1318 0.950 . S
C1341 C1340 1.334 . S
C1341 C1342 1.287 . S
C1342 C1341 1.287 . S
C1342 C1343 1.524 . S
C1342 H1361 0.913 . S
C1343 H1319 0.950 . S
C1343 C1342 1.524 . S
C1343 C1344 1.415 . S
C1344 H1320 0.950 . S
C1344 C1339 1.363 . S
C1344 C1343 1.415 . S
C1345 H1321 0.951 . S
C1345 C1346 1.366 . S
C1345 C1347 1.388 . S
C1346 C1345 1.366 . S
C1346 C1350 1.385 . S
C1347 H1322 0.951 . S
C1347 C1345 1.388 . S
C1347 C1348 1.366 . S
C1348 C1347 1.366 . S
C1348 C1349 1.414 . S
C1348 C1351 1.499 . S
C1349 H1323 0.950 . S
C1349 C1348 1.414 . S
C1349 C1350 1.374 . S
C1350 H1324 0.950 . S
C1350 C1346 1.385 . S
C1350 C1349 1.374 . S
C1351 C1348 1.499 . S
C1351 C1352 1.373 . S
C1351 C1353 1.389 . S
C1352 H1325 0.950 . S
C1352 C1338 1.377 . S
C1352 C1351 1.373 . S
C1353 C1337 1.377 . S
C1353 C1351 1.389 . S
C1353 C1354 1.524 . S
C1354 C1353 1.524 . S
C1354 C1355 1.397 . S
C1354 C1359 1.363 . S
C1355 H1326 0.950 . S
C1355 C1354 1.397 . S
C1355 C1356 1.334 . S
C1356 H1327 0.950 . S
C1356 C1355 1.334 . S
C1356 C1357 1.287 . S
C1357 C1356 1.287 . S
C1357 C1358 1.524 . S
C1357 H1360 0.999 . S
C1358 H1328 0.950 . S
C1358 C1357 1.524 . S
C1358 C1359 1.415 . S
C1359 H1329 0.950 . S
C1359 C1354 1.363 . S
C1359 C1358 1.415 . S
H1360 C1357 0.999 . S
H1361 C1342 0.913 . S
H1362 C1380 0.951 . S
H1363 C1382 0.951 . S
H1364 C1384 0.950 . S
H1365 C1385 0.950 . S
H1366 C1387 0.950 . S
H1367 C1390 0.950 . S
H1368 C1391 0.950 . S
H1369 C1393 0.950 . S
H1370 C1394 0.950 . S
H1371 C1395 0.956 . S
H1372 C1397 0.951 . S
H1373 C1399 0.950 . S
H1374 C1400 0.950 . S
H1375 C1402 0.950 . S
H1376 C1405 0.950 . S
H1377 C1406 0.950 . S
H1378 C1408 0.950 . S
H1379 C1409 0.950 . S
C1380 H1362 0.951 . S
C1380 C1381 1.366 . S
C1380 C1382 1.388 . S
C1381 C1380 1.366 . S
C1381 C1385 1.385 . S
C1382 H1363 0.951 . S
C1382 C1380 1.388 . S
C1382 C1383 1.366 . S
C1383 C1382 1.366 . S
C1383 C1384 1.414 . S
C1383 C1386 1.499 . S
C1384 H1364 0.950 . S
C1384 C1383 1.414 . S
C1384 C1385 1.374 . S
C1385 H1365 0.950 . S
C1385 C1381 1.385 . S
C1385 C1384 1.374 . S
C1386 C1383 1.499 . S
C1386 C1387 1.373 . S
C1386 C1388 1.389 . S
C1387 H1366 0.950 . S
C1387 C1386 1.373 . S
C1387 C1403 1.377 . S
C1388 C1386 1.389 . S
C1388 C1389 1.524 . S
C1388 C1402 1.377 . S
C1389 C1388 1.524 . S
C1389 C1390 1.397 . S
C1389 C1394 1.363 . S
C1390 H1367 0.950 . S
C1390 C1389 1.397 . S
C1390 C1391 1.334 . S
C1391 H1368 0.950 . S
C1391 C1390 1.334 . S
C1391 C1392 1.287 . S
C1392 C1391 1.287 . S
C1392 C1393 1.524 . S
C1392 H1411 0.913 . S
C1393 H1369 0.950 . S
C1393 C1392 1.524 . S
C1393 C1394 1.415 . S
C1394 H1370 0.950 . S
C1394 C1389 1.363 . S
C1394 C1393 1.415 . S
C1395 H1371 0.956 . S
C1395 C1396 1.366 . S
C1395 C1397 1.388 . S
C1396 C1395 1.366 . S
C1396 C1400 1.385 . S
C1397 H1372 0.951 . S
C1397 C1395 1.388 . S
C1397 C1398 1.366 . S
C1398 C1397 1.366 . S
C1398 C1399 1.414 . S
C1398 C1401 1.499 . S
C1399 H1373 0.950 . S
C1399 C1398 1.414 . S
C1399 C1400 1.374 . S
C1400 H1374 0.950 . S
C1400 C1396 1.385 . S
C1400 C1399 1.374 . S
C1401 C1398 1.499 . S
C1401 C1402 1.373 . S
C1401 C1403 1.389 . S
C1402 H1375 0.950 . S
C1402 C1388 1.377 . S
C1402 C1401 1.373 . S
C1403 C1387 1.377 . S
C1403 C1401 1.389 . S
C1403 C1404 1.524 . S
C1404 C1403 1.524 . S
C1404 C1405 1.397 1_556 S
C1404 C1409 1.363 . S
C1405 H1376 0.950 . S
C1405 C1404 1.397 1_554 S
C1405 C1406 1.334 . S
C1406 H1377 0.950 . S
C1406 C1405 1.334 . S
C1406 C1407 1.287 . S
C1407 C1406 1.287 . S
C1407 C1408 1.524 . S
C1407 H1410 0.999 . S
C1408 H1378 0.950 . S
C1408 C1407 1.524 . S
C1408 C1409 1.415 1_554 S
C1409 H1379 0.950 . S
C1409 C1404 1.363 . S
C1409 C1408 1.415 1_556 S
H1410 C1407 0.999 . S
H1411 C1392 0.913 . S
H1412 C1430 0.951 . S
H1413 C1432 0.951 . S
H1414 C1434 0.950 . S
H1415 C1435 0.950 . S
H1416 C1437 0.950 . S
H1417 C1440 0.950 . S
H1418 C1441 0.950 . S
H1419 C1443 0.950 . S
H1420 C1444 0.950 . S
H1421 C1445 0.951 . S
H1422 C1447 0.951 . S
H1423 C1449 0.950 . S
H1424 C1450 0.950 . S
H1425 C1452 0.950 . S
H1426 C1455 0.950 . S
H1427 C1456 0.950 . S
H1428 C1458 0.950 . S
H1429 C1459 0.950 . S
C1430 H1412 0.951 . S
C1430 C1431 1.366 . S
C1430 C1432 1.388 . S
C1431 C1430 1.366 . S
C1431 C1435 1.385 . S
C1432 H1413 0.951 . S
C1432 C1430 1.388 . S
C1432 C1433 1.366 . S
C1433 C1432 1.366 . S
C1433 C1434 1.414 . S
C1433 C1436 1.499 . S
C1434 H1414 0.950 . S
C1434 C1433 1.414 . S
C1434 C1435 1.374 . S
C1435 H1415 0.950 . S
C1435 C1431 1.385 . S
C1435 C1434 1.374 . S
C1436 C1433 1.499 . S
C1436 C1437 1.373 . S
C1436 C1438 1.389 . S
C1437 H1416 0.950 . S
C1437 C1436 1.373 . S
C1437 C1453 1.377 . S
C1438 C1436 1.389 . S
C1438 C1439 1.524 . S
C1438 C1452 1.377 . S
C1439 C1438 1.524 . S
C1439 C1440 1.397 . S
C1439 C1444 1.363 . S
C1440 H1417 0.950 . S
C1440 C1439 1.397 . S
C1440 C1441 1.334 . S
C1441 H1418 0.950 . S
C1441 C1440 1.334 . S
C1441 C1442 1.287 . S
C1442 C1441 1.287 . S
C1442 C1443 1.524 . S
C1442 H1461 0.913 . S
C1443 H1419 0.950 . S
C1443 C1442 1.524 . S
C1443 C1444 1.415 . S
C1444 H1420 0.950 . S
C1444 C1439 1.363 . S
C1444 C1443 1.415 . S
C1445 H1421 0.951 . S
C1445 C1446 1.366 . S
C1445 C1447 1.388 . S
C1446 C1445 1.366 . S
C1446 C1450 1.385 . S
C1447 H1422 0.951 . S
C1447 C1445 1.388 . S
C1447 C1448 1.366 . S
C1448 C1447 1.366 . S
C1448 C1449 1.414 . S
C1448 C1451 1.499 . S
C1449 H1423 0.950 . S
C1449 C1448 1.414 . S
C1449 C1450 1.374 . S
C1450 H1424 0.950 . S
C1450 C1446 1.385 . S
C1450 C1449 1.374 . S
C1451 C1448 1.499 . S
C1451 C1452 1.373 . S
C1451 C1453 1.389 . S
C1452 H1425 0.950 . S
C1452 C1438 1.377 . S
C1452 C1451 1.373 . S
C1453 C1437 1.377 . S
C1453 C1451 1.389 . S
C1453 C1454 1.524 . S
C1454 C1453 1.524 . S
C1454 C1455 1.397 . S
C1454 C1459 1.363 . S
C1455 H1426 0.950 . S
C1455 C1454 1.397 . S
C1455 C1456 1.334 . S
C1456 H1427 0.950 . S
C1456 C1455 1.334 . S
C1456 C1457 1.287 . S
C1457 C1456 1.287 . S
C1457 C1458 1.524 . S
C1457 H1460 0.999 . S
C1458 H1428 0.950 . S
C1458 C1457 1.524 . S
C1458 C1459 1.415 . S
C1459 H1429 0.950 . S
C1459 C1454 1.363 . S
C1459 C1458 1.415 . S
H1460 C1457 0.999 . S
H1461 C1442 0.913 . S
H1462 C1480 0.951 . S
H1463 C1482 0.951 . S
H1464 C1484 0.950 . S
H1465 C1485 0.950 . S
H1466 C1487 0.950 . S
H1467 C1490 0.950 . S
H1468 C1491 0.950 . S
H1469 C1493 0.950 . S
H1470 C1494 0.950 . S
H1471 C1495 0.951 . S
H1472 C1497 0.951 . S
H1473 C1499 0.950 . S
H1474 C1500 0.950 . S
H1475 C1502 0.950 . S
H1476 C1505 0.950 . S
H1477 C1506 0.950 . S
H1478 C1508 0.950 1_554 S
H1479 C1509 0.950 . S
C1480 H1462 0.951 . S
C1480 C1481 1.366 . S
C1480 C1482 1.388 . S
C1481 C1480 1.366 . S
C1481 C1485 1.385 . S
C1482 H1463 0.951 . S
C1482 C1480 1.388 . S
C1482 C1483 1.366 . S
C1483 C1482 1.366 . S
C1483 C1484 1.414 . S
C1483 C1486 1.499 . S
C1484 H1464 0.950 . S
C1484 C1483 1.414 . S
C1484 C1485 1.374 . S
C1485 H1465 0.950 . S
C1485 C1481 1.385 . S
C1485 C1484 1.374 . S
C1486 C1483 1.499 . S
C1486 C1487 1.373 . S
C1486 C1488 1.389 . S
C1487 H1466 0.950 . S
C1487 C1486 1.373 . S
C1487 C1503 1.377 . S
C1488 C1486 1.389 . S
C1488 C1489 1.524 . S
C1488 C1502 1.377 . S
C1489 C1488 1.524 . S
C1489 C1490 1.397 . S
C1489 C1494 1.363 . S
C1490 H1467 0.950 . S
C1490 C1489 1.397 . S
C1490 C1491 1.334 . S
C1491 H1468 0.950 . S
C1491 C1490 1.334 . S
C1491 C1492 1.287 . S
C1492 C1491 1.287 . S
C1492 C1493 1.524 . S
C1492 H1511 0.913 . S
C1493 H1469 0.950 . S
C1493 C1492 1.524 . S
C1493 C1494 1.415 . S
C1494 H1470 0.950 . S
C1494 C1489 1.363 . S
C1494 C1493 1.415 . S
C1495 H1471 0.951 . S
C1495 C1496 1.366 . S
C1495 C1497 1.388 . S
C1496 C1495 1.366 . S
C1496 C1500 1.385 . S
C1497 H1472 0.951 . S
C1497 C1495 1.388 . S
C1497 C1498 1.366 . S
C1498 C1497 1.366 . S
C1498 C1499 1.414 . S
C1498 C1501 1.499 . S
C1499 H1473 0.950 . S
C1499 C1498 1.414 . S
C1499 C1500 1.374 . S
C1500 H1474 0.950 . S
C1500 C1496 1.385 . S
C1500 C1499 1.374 . S
C1501 C1498 1.499 . S
C1501 C1502 1.373 . S
C1501 C1503 1.389 . S
C1502 H1475 0.950 . S
C1502 C1488 1.377 . S
C1502 C1501 1.373 . S
C1503 C1487 1.377 . S
C1503 C1501 1.389 . S
C1503 C1504 1.524 . S
C1504 C1503 1.524 . S
C1504 C1505 1.397 . S
C1504 C1509 1.363 . S
C1505 H1476 0.950 . S
C1505 C1504 1.397 . S
C1505 C1506 1.334 . S
C1506 H1477 0.950 . S
C1506 C1505 1.334 . S
C1506 C1507 1.287 . S
C1507 C1506 1.287 . S
C1507 C1508 1.524 . S
C1507 H1510 0.999 1_556 S
C1508 H1478 0.950 1_556 S
C1508 C1507 1.524 . S
C1508 C1509 1.415 . S
C1509 H1479 0.950 . S
C1509 C1504 1.363 . S
C1509 C1508 1.415 . S
H1510 C1507 0.999 1_554 S
H1511 C1492 0.913 . S
H1512 C1530 0.951 . S
H1513 C1532 0.951 . S
H1514 C1534 0.950 . S
H1515 C1535 0.950 . S
H1516 C1537 0.950 . S
H1517 C1540 0.950 . S
H1518 C1541 0.950 . S
H1519 C1543 0.950 . S
H1520 C1544 0.950 . S
H1521 C1545 0.951 . S
H1522 C1547 0.951 . S
H1523 C1549 0.950 . S
H1524 C1550 0.950 1_545 S
H1525 C1552 0.950 . S
H1526 C1555 0.950 . S
H1527 C1556 0.950 . S
H1528 C1558 0.950 . S
H1529 C1559 0.950 . S
C1530 H1512 0.951 . S
C1530 C1531 1.366 . S
C1530 C1532 1.388 . S
C1531 C1530 1.366 . S
C1531 C1535 1.385 . S
C1532 H1513 0.951 . S
C1532 C1530 1.388 . S
C1532 C1533 1.366 . S
C1533 C1532 1.366 . S
C1533 C1534 1.414 . S
C1533 C1536 1.499 . S
C1534 H1514 0.950 . S
C1534 C1533 1.414 . S
C1534 C1535 1.374 . S
C1535 H1515 0.950 . S
C1535 C1531 1.385 . S
C1535 C1534 1.374 . S
C1536 C1533 1.499 . S
C1536 C1537 1.373 . S
C1536 C1538 1.389 . S
C1537 H1516 0.950 . S
C1537 C1536 1.373 . S
C1537 C1553 1.377 . S
C1538 C1536 1.389 . S
C1538 C1539 1.524 . S
C1538 C1552 1.377 . S
C1539 C1538 1.524 . S
C1539 C1540 1.397 . S
C1539 C1544 1.363 . S
C1540 H1517 0.950 . S
C1540 C1539 1.397 . S
C1540 C1541 1.334 . S
C1541 H1518 0.950 . S
C1541 C1540 1.334 . S
C1541 C1542 1.287 . S
C1542 C1541 1.287 . S
C1542 C1543 1.524 . S
C1542 H1561 0.913 . S
C1543 H1519 0.950 . S
C1543 C1542 1.524 . S
C1543 C1544 1.415 . S
C1544 H1520 0.950 . S
C1544 C1539 1.363 . S
C1544 C1543 1.415 . S
C1545 H1521 0.951 . S
C1545 C1546 1.366 . S
C1545 C1547 1.388 . S
C1546 C1545 1.366 . S
C1546 C1550 1.385 . S
C1547 H1522 0.951 . S
C1547 C1545 1.388 . S
C1547 C1548 1.366 . S
C1548 C1547 1.366 . S
C1548 C1549 1.414 . S
C1548 C1551 1.499 . S
C1549 H1523 0.950 . S
C1549 C1548 1.414 . S
C1549 C1550 1.374 . S
C1550 H1524 0.950 1_565 S
C1550 C1546 1.385 . S
C1550 C1549 1.374 . S
C1551 C1548 1.499 . S
C1551 C1552 1.373 . S
C1551 C1553 1.389 . S
C1552 H1525 0.950 . S
C1552 C1538 1.377 . S
C1552 C1551 1.373 . S
C1553 C1537 1.377 . S
C1553 C1551 1.389 . S
C1553 C1554 1.524 . S
C1554 C1553 1.524 . S
C1554 C1555 1.397 . S
C1554 C1559 1.363 . S
C1555 H1526 0.950 . S
C1555 C1554 1.397 . S
C1555 C1556 1.334 . S
C1556 H1527 0.950 . S
C1556 C1555 1.334 . S
C1556 C1557 1.287 . S
C1557 C1556 1.287 . S
C1557 C1558 1.524 . S
C1557 H1560 0.999 . S
C1558 H1528 0.950 . S
C1558 C1557 1.524 . S
C1558 C1559 1.415 . S
C1559 H1529 0.950 . S
C1559 C1554 1.363 . S
C1559 C1558 1.415 . S
H1560 C1557 0.999 . S
H1561 C1542 0.913 . S
H1562 C1580 0.951 . S
H1563 C1582 0.951 . S
H1564 C1584 0.950 . S
H1565 C1585 0.950 . S
H1566 C1587 0.950 . S
H1567 C1590 0.950 . S
H1568 C1591 0.950 . S
H1569 C1593 0.950 . S
H1570 C1594 0.950 . S
H1571 C1595 0.951 . S
H1572 C1597 0.951 . S
H1573 C1599 0.950 . S
H1574 C1600 0.950 . S
H1575 C1602 0.950 . S
H1576 C1605 0.950 . S
H1577 C1606 0.950 . S
H1578 C1608 0.950 . S
H1579 C1609 0.950 . S
C1580 H1562 0.951 . S
C1580 C1581 1.366 . S
C1580 C1582 1.388 . S
C1581 C1580 1.366 . S
C1581 C1585 1.385 . S
C1582 H1563 0.951 . S
C1582 C1580 1.388 . S
C1582 C1583 1.366 . S
C1583 C1582 1.366 . S
C1583 C1584 1.414 . S
C1583 C1586 1.499 . S
C1584 H1564 0.950 . S
C1584 C1583 1.414 . S
C1584 C1585 1.374 . S
C1585 H1565 0.950 . S
C1585 C1581 1.385 . S
C1585 C1584 1.374 . S
C1586 C1583 1.499 . S
C1586 C1587 1.373 . S
C1586 C1588 1.389 . S
C1587 H1566 0.950 . S
C1587 C1586 1.373 . S
C1587 C1603 1.377 . S
C1588 C1586 1.389 . S
C1588 C1589 1.524 . S
C1588 C1602 1.377 . S
C1589 C1588 1.524 . S
C1589 C1590 1.397 . S
C1589 C1594 1.363 . S
C1590 H1567 0.950 . S
C1590 C1589 1.397 . S
C1590 C1591 1.334 . S
C1591 H1568 0.950 . S
C1591 C1590 1.334 . S
C1591 C1592 1.287 . S
C1592 C1591 1.287 . S
C1592 C1593 1.524 . S
C1592 H1611 0.913 . S
C1593 H1569 0.950 . S
C1593 C1592 1.524 . S
C1593 C1594 1.415 . S
C1594 H1570 0.950 . S
C1594 C1589 1.363 . S
C1594 C1593 1.415 . S
C1595 H1571 0.951 . S
C1595 C1596 1.366 . S
C1595 C1597 1.388 . S
C1596 C1595 1.366 . S
C1596 C1600 1.385 . S
C1597 H1572 0.951 . S
C1597 C1595 1.388 . S
C1597 C1598 1.366 . S
C1598 C1597 1.366 . S
C1598 C1599 1.414 . S
C1598 C1601 1.499 . S
C1599 H1573 0.950 . S
C1599 C1598 1.414 . S
C1599 C1600 1.374 . S
C1600 H1574 0.950 . S
C1600 C1596 1.385 . S
C1600 C1599 1.374 . S
C1601 C1598 1.499 . S
C1601 C1602 1.373 . S
C1601 C1603 1.389 . S
C1602 H1575 0.950 . S
C1602 C1588 1.377 . S
C1602 C1601 1.373 . S
C1603 C1587 1.377 . S
C1603 C1601 1.389 . S
C1603 C1604 1.524 . S
C1604 C1603 1.524 . S
C1604 C1605 1.397 . S
C1604 C1609 1.363 . S
C1605 H1576 0.950 . S
C1605 C1604 1.397 . S
C1605 C1606 1.334 . S
C1606 H1577 0.950 . S
C1606 C1605 1.334 . S
C1606 C1607 1.287 . S
C1607 C1606 1.287 . S
C1607 C1608 1.524 . S
C1607 H1610 0.999 . S
C1608 H1578 0.950 . S
C1608 C1607 1.524 . S
C1608 C1609 1.415 . S
C1609 H1579 0.950 . S
C1609 C1604 1.363 . S
C1609 C1608 1.415 . S
H1610 C1607 0.999 . S
H1611 C1592 0.913 . S
H1612 C1630 0.951 . S
H1613 C1632 0.951 . S
H1614 C1634 0.950 . S
H1615 C1635 0.950 . S
H1616 C1637 0.950 . S
H1617 C1640 0.950 . S
H1618 C1641 0.950 . S
H1619 C1643 0.950 . S
H1620 C1644 0.950 . S
H1621 C1645 0.951 . S
H1622 C1647 0.951 . S
H1623 C1649 0.950 . S
H1624 C1650 0.950 . S
H1625 C1652 0.950 . S
H1626 C1655 0.950 . S
H1627 C1656 0.950 . S
H1628 C1658 0.950 . S
H1629 C1659 0.950 . S
C1630 H1612 0.951 . S
C1630 C1631 1.366 . S
C1630 C1632 1.388 . S
C1631 C1630 1.366 . S
C1631 C1635 1.385 . S
C1632 H1613 0.951 . S
C1632 C1630 1.388 . S
C1632 C1633 1.366 . S
C1633 C1632 1.366 . S
C1633 C1634 1.414 . S
C1633 C1636 1.499 . S
C1634 H1614 0.950 . S
C1634 C1633 1.414 . S
C1634 C1635 1.374 . S
C1635 H1615 0.950 . S
C1635 C1631 1.385 . S
C1635 C1634 1.374 . S
C1636 C1633 1.499 . S
C1636 C1637 1.373 . S
C1636 C1638 1.389 . S
C1637 H1616 0.950 . S
C1637 C1636 1.373 . S
C1637 C1653 1.377 . S
C1638 C1636 1.389 . S
C1638 C1639 1.524 . S
C1638 C1652 1.377 . S
C1639 C1638 1.524 . S
C1639 C1640 1.397 . S
C1639 C1644 1.363 . S
C1640 H1617 0.950 . S
C1640 C1639 1.397 . S
C1640 C1641 1.334 . S
C1641 H1618 0.950 . S
C1641 C1640 1.334 . S
C1641 C1642 1.287 . S
C1642 C1641 1.287 . S
C1642 C1643 1.524 . S
C1642 H1661 0.913 . S
C1643 H1619 0.950 . S
C1643 C1642 1.524 . S
C1643 C1644 1.415 . S
C1644 H1620 0.950 . S
C1644 C1639 1.363 . S
C1644 C1643 1.415 . S
C1645 H1621 0.951 . S
C1645 C1646 1.366 . S
C1645 C1647 1.388 . S
C1646 C1645 1.366 . S
C1646 C1650 1.385 . S
C1647 H1622 0.951 . S
C1647 C1645 1.388 . S
C1647 C1648 1.366 . S
C1648 C1647 1.366 . S
C1648 C1649 1.414 . S
C1648 C1651 1.499 . S
C1649 H1623 0.950 . S
C1649 C1648 1.414 . S
C1649 C1650 1.374 . S
C1650 H1624 0.950 . S
C1650 C1646 1.385 . S
C1650 C1649 1.374 . S
C1651 C1648 1.499 . S
C1651 C1652 1.373 . S
C1651 C1653 1.389 . S
C1652 H1625 0.950 . S
C1652 C1638 1.377 . S
C1652 C1651 1.373 . S
C1653 C1637 1.377 . S
C1653 C1651 1.389 . S
C1653 C1654 1.524 . S
C1654 C1653 1.524 . S
C1654 C1655 1.397 . S
C1654 C1659 1.363 . S
C1655 H1626 0.950 . S
C1655 C1654 1.397 . S
C1655 C1656 1.334 . S
C1656 H1627 0.950 . S
C1656 C1655 1.334 . S
C1656 C1657 1.287 . S
C1657 C1656 1.287 . S
C1657 C1658 1.524 . S
C1657 H1660 0.999 . S
C1658 H1628 0.950 . S
C1658 C1657 1.524 . S
C1658 C1659 1.415 . S
C1659 H1629 0.950 . S
C1659 C1654 1.363 . S
C1659 C1658 1.415 . S
H1660 C1657 0.999 . S
H1661 C1642 0.913 . S
H1662 C1680 0.951 . S
H1663 C1682 0.951 . S
H1664 C1684 0.950 . S
H1665 C1685 0.950 . S
H1666 C1687 0.950 . S
H1667 C1690 0.950 . S
H1668 C1691 0.950 . S
H1669 C1693 0.950 . S
H1670 C1694 0.950 . S
H1671 C1695 0.951 . S
H1672 C1697 0.951 . S
H1673 C1699 0.950 . S
H1674 C1700 0.950 . S
H1675 C1702 0.950 . S
H1676 C1705 0.950 . S
H1677 C1706 0.950 . S
H1678 C1708 0.950 . S
H1679 C1709 0.950 . S
C1680 H1662 0.951 . S
C1680 C1681 1.366 . S
C1680 C1682 1.388 . S
C1681 C1680 1.366 . S
C1681 C1685 1.385 . S
C1682 H1663 0.951 . S
C1682 C1680 1.388 . S
C1682 C1683 1.366 . S
C1683 C1682 1.366 . S
C1683 C1684 1.414 . S
C1683 C1686 1.499 . S
C1684 H1664 0.950 . S
C1684 C1683 1.414 . S
C1684 C1685 1.374 . S
C1685 H1665 0.950 . S
C1685 C1681 1.385 . S
C1685 C1684 1.374 . S
C1686 C1683 1.499 . S
C1686 C1687 1.373 . S
C1686 C1688 1.389 . S
C1687 H1666 0.950 . S
C1687 C1686 1.373 . S
C1687 C1703 1.377 . S
C1688 C1686 1.389 . S
C1688 C1689 1.524 . S
C1688 C1702 1.377 . S
C1689 C1688 1.524 . S
C1689 C1690 1.397 . S
C1689 C1694 1.363 . S
C1690 H1667 0.950 . S
C1690 C1689 1.397 . S
C1690 C1691 1.334 . S
C1691 H1668 0.950 . S
C1691 C1690 1.334 . S
C1691 C1692 1.287 . S
C1692 C1691 1.287 . S
C1692 C1693 1.524 . S
C1692 H1711 0.913 . S
C1693 H1669 0.950 . S
C1693 C1692 1.524 . S
C1693 C1694 1.415 . S
C1694 H1670 0.950 . S
C1694 C1689 1.363 . S
C1694 C1693 1.415 . S
C1695 H1671 0.951 . S
C1695 C1696 1.366 . S
C1695 C1697 1.388 . S
C1696 C1695 1.366 . S
C1696 C1700 1.385 . S
C1697 H1672 0.951 . S
C1697 C1695 1.388 . S
C1697 C1698 1.366 . S
C1698 C1697 1.366 . S
C1698 C1699 1.414 . S
C1698 C1701 1.499 . S
C1699 H1673 0.950 . S
C1699 C1698 1.414 . S
C1699 C1700 1.374 . S
C1700 H1674 0.950 . S
C1700 C1696 1.385 . S
C1700 C1699 1.374 . S
C1701 C1698 1.499 . S
C1701 C1702 1.373 . S
C1701 C1703 1.389 . S
C1702 H1675 0.950 . S
C1702 C1688 1.377 . S
C1702 C1701 1.373 . S
C1703 C1687 1.377 . S
C1703 C1701 1.389 . S
C1703 C1704 1.524 . S
C1704 C1703 1.524 . S
C1704 C1705 1.397 . S
C1704 C1709 1.363 . S
C1705 H1676 0.950 . S
C1705 C1704 1.397 . S
C1705 C1706 1.334 . S
C1706 H1677 0.950 . S
C1706 C1705 1.334 . S
C1706 C1707 1.287 . S
C1707 C1706 1.287 . S
C1707 C1708 1.524 . S
C1707 H1710 0.999 . S
C1708 H1678 0.950 . S
C1708 C1707 1.524 . S
C1708 C1709 1.415 . S
C1709 H1679 0.950 . S
C1709 C1704 1.363 . S
C1709 C1708 1.415 . S
H1710 C1707 0.999 . S
H1711 C1692 0.913 . S
H1712 C1730 0.951 . S
H1713 C1732 0.951 . S
H1714 C1734 0.950 . S
H1715 C1735 0.950 . S
H1716 C1737 0.950 . S
H1717 C1740 0.950 . S
H1718 C1741 0.950 . S
H1719 C1743 0.950 . S
H1720 C1744 0.950 . S
H1721 C1745 0.951 . S
H1722 C1747 0.951 . S
H1723 C1749 0.950 . S
H1724 C1750 0.950 . S
H1725 C1752 0.950 . S
H1726 C1755 0.950 . S
H1727 C1756 0.950 . S
H1728 C1758 0.950 . S
H1729 C1759 0.950 . S
C1730 H1712 0.951 . S
C1730 C1731 1.366 . S
C1730 C1732 1.388 . S
C1731 C1730 1.366 . S
C1731 C1735 1.385 . S
C1732 H1713 0.951 . S
C1732 C1730 1.388 . S
C1732 C1733 1.366 . S
C1733 C1732 1.366 . S
C1733 C1734 1.414 . S
C1733 C1736 1.499 . S
C1734 H1714 0.950 . S
C1734 C1733 1.414 . S
C1734 C1735 1.374 . S
C1735 H1715 0.950 . S
C1735 C1731 1.385 . S
C1735 C1734 1.374 . S
C1736 C1733 1.499 . S
C1736 C1737 1.373 . S
C1736 C1738 1.389 . S
C1737 H1716 0.950 . S
C1737 C1736 1.373 . S
C1737 C1753 1.377 . S
C1738 C1736 1.389 . S
C1738 C1739 1.524 . S
C1738 C1752 1.377 . S
C1739 C1738 1.524 . S
C1739 C1740 1.397 . S
C1739 C1744 1.363 . S
C1740 H1717 0.950 . S
C1740 C1739 1.397 . S
C1740 C1741 1.334 . S
C1741 H1718 0.950 . S
C1741 C1740 1.334 . S
C1741 C1742 1.287 . S
C1742 C1741 1.287 . S
C1742 C1743 1.524 . S
C1742 H1761 0.913 . S
C1743 H1719 0.950 . S
C1743 C1742 1.524 . S
C1743 C1744 1.415 . S
C1744 H1720 0.950 . S
C1744 C1739 1.363 . S
C1744 C1743 1.415 . S
C1745 H1721 0.951 . S
C1745 C1746 1.366 . S
C1745 C1747 1.388 . S
C1746 C1745 1.366 . S
C1746 C1750 1.385 . S
C1747 H1722 0.951 . S
C1747 C1745 1.388 . S
C1747 C1748 1.366 . S
C1748 C1747 1.366 . S
C1748 C1749 1.414 . S
C1748 C1751 1.499 . S
C1749 H1723 0.950 . S
C1749 C1748 1.414 . S
C1749 C1750 1.374 . S
C1750 H1724 0.950 . S
C1750 C1746 1.385 . S
C1750 C1749 1.374 . S
C1751 C1748 1.499 . S
C1751 C1752 1.373 . S
C1751 C1753 1.389 . S
C1752 H1725 0.950 . S
C1752 C1738 1.377 . S
C1752 C1751 1.373 . S
C1753 C1737 1.377 . S
C1753 C1751 1.389 . S
C1753 C1754 1.524 . S
C1754 C1753 1.524 . S
C1754 C1755 1.397 . S
C1754 C1759 1.363 . S
C1755 H1726 0.950 . S
C1755 C1754 1.397 . S
C1755 C1756 1.334 . S
C1756 H1727 0.950 . S
C1756 C1755 1.334 . S
C1756 C1757 1.287 . S
C1757 C1756 1.287 . S
C1757 C1758 1.524 . S
C1757 H1760 0.999 . S
C1758 H1728 0.950 . S
C1758 C1757 1.524 . S
C1758 C1759 1.415 . S
C1759 H1729 0.950 . S
C1759 C1754 1.363 . S
C1759 C1758 1.415 . S
H1760 C1757 0.999 . S
H1761 C1742 0.913 . S
H1762 C1780 0.951 . S
H1763 C1782 0.951 . S
H1764 C1784 0.950 . S
H1765 C1785 0.950 . S
H1766 C1787 0.950 . S
H1767 C1790 0.950 . S
H1768 C1791 0.950 . S
H1769 C1793 0.950 . S
H1770 C1794 0.950 . S
H1771 C1795 0.951 . S
H1772 C1797 0.951 . S
H1773 C1799 0.950 . S
H1774 C1800 0.950 . S
H1775 C1802 0.950 . S
H1776 C1805 0.950 . S
H1777 C1806 0.950 . S
H1778 C1808 0.950 . S
H1779 C1809 0.950 . S
C1780 H1762 0.951 . S
C1780 C1781 1.366 . S
C1780 C1782 1.388 . S
C1781 C1780 1.366 . S
C1781 C1785 1.385 . S
C1782 H1763 0.951 . S
C1782 C1780 1.388 . S
C1782 C1783 1.366 . S
C1783 C1782 1.366 . S
C1783 C1784 1.414 . S
C1783 C1786 1.499 . S
C1784 H1764 0.950 . S
C1784 C1783 1.414 . S
C1784 C1785 1.374 . S
C1785 H1765 0.950 . S
C1785 C1781 1.385 . S
C1785 C1784 1.374 . S
C1786 C1783 1.499 . S
C1786 C1787 1.373 . S
C1786 C1788 1.389 . S
C1787 H1766 0.950 . S
C1787 C1786 1.373 . S
C1787 C1803 1.377 . S
C1788 C1786 1.389 . S
C1788 C1789 1.524 . S
C1788 C1802 1.377 . S
C1789 C1788 1.524 . S
C1789 C1790 1.397 . S
C1789 C1794 1.363 . S
C1790 H1767 0.950 . S
C1790 C1789 1.397 . S
C1790 C1791 1.334 . S
C1791 H1768 0.950 . S
C1791 C1790 1.334 . S
C1791 C1792 1.287 . S
C1792 C1791 1.287 . S
C1792 C1793 1.524 . S
C1792 H1811 0.913 . S
C1793 H1769 0.950 . S
C1793 C1792 1.524 . S
C1793 C1794 1.415 . S
C1794 H1770 0.950 . S
C1794 C1789 1.363 . S
C1794 C1793 1.415 . S
C1795 H1771 0.951 . S
C1795 C1796 1.366 . S
C1795 C1797 1.388 . S
C1796 C1795 1.366 . S
C1796 C1800 1.385 . S
C1797 H1772 0.951 . S
C1797 C1795 1.388 . S
C1797 C1798 1.366 . S
C1798 C1797 1.366 . S
C1798 C1799 1.414 . S
C1798 C1801 1.499 . S
C1799 H1773 0.950 . S
C1799 C1798 1.414 . S
C1799 C1800 1.374 . S
C1800 H1774 0.950 . S
C1800 C1796 1.385 . S
C1800 C1799 1.374 . S
C1801 C1798 1.499 . S
C1801 C1802 1.373 . S
C1801 C1803 1.389 . S
C1802 H1775 0.950 . S
C1802 C1788 1.377 . S
C1802 C1801 1.373 . S
C1803 C1787 1.377 . S
C1803 C1801 1.389 . S
C1803 C1804 1.524 . S
C1804 C1803 1.524 . S
C1804 C1805 1.397 . S
C1804 C1809 1.363 . S
C1805 H1776 0.950 . S
C1805 C1804 1.397 . S
C1805 C1806 1.334 . S
C1806 H1777 0.950 . S
C1806 C1805 1.334 . S
C1806 C1807 1.287 . S
C1807 C1806 1.287 . S
C1807 C1808 1.524 . S
C1807 H1810 0.999 . S
C1808 H1778 0.950 . S
C1808 C1807 1.524 . S
C1808 C1809 1.415 . S
C1809 H1779 0.950 . S
C1809 C1804 1.363 . S
C1809 C1808 1.415 . S
H1810 C1807 0.999 . S
H1811 C1792 0.913 . S
H1812 C1830 0.951 . S
H1813 C1832 0.951 . S
H1814 C1834 0.950 . S
H1815 C1835 0.950 . S
H1816 C1837 0.950 . S
H1817 C1840 0.950 . S
H1818 C1841 0.950 . S
H1819 C1843 0.950 . S
H1820 C1844 0.950 . S
H1821 C1845 0.951 . S
H1822 C1847 0.951 . S
H1823 C1849 0.950 . S
H1824 C1850 0.950 . S
H1825 C1852 0.950 . S
H1826 C1855 0.950 . S
H1827 C1856 0.950 . S
H1828 C1858 0.950 . S
H1829 C1859 0.950 . S
C1830 H1812 0.951 . S
C1830 C1831 1.366 . S
C1830 C1832 1.388 . S
C1831 C1830 1.366 . S
C1831 C1835 1.385 . S
C1832 H1813 0.951 . S
C1832 C1830 1.388 . S
C1832 C1833 1.366 . S
C1833 C1832 1.366 . S
C1833 C1834 1.414 . S
C1833 C1836 1.499 . S
C1834 H1814 0.950 . S
C1834 C1833 1.414 . S
C1834 C1835 1.374 . S
C1835 H1815 0.950 . S
C1835 C1831 1.385 . S
C1835 C1834 1.374 . S
C1836 C1833 1.499 . S
C1836 C1837 1.373 . S
C1836 C1838 1.389 . S
C1837 H1816 0.950 . S
C1837 C1836 1.373 . S
C1837 C1853 1.377 . S
C1838 C1836 1.389 . S
C1838 C1839 1.524 . S
C1838 C1852 1.377 . S
C1839 C1838 1.524 . S
C1839 C1840 1.397 . S
C1839 C1844 1.363 . S
C1840 H1817 0.950 . S
C1840 C1839 1.397 . S
C1840 C1841 1.334 . S
C1841 H1818 0.950 . S
C1841 C1840 1.334 . S
C1841 C1842 1.287 . S
C1842 C1841 1.287 . S
C1842 C1843 1.524 . S
C1842 H1861 0.913 . S
C1843 H1819 0.950 . S
C1843 C1842 1.524 . S
C1843 C1844 1.415 . S
C1844 H1820 0.950 . S
C1844 C1839 1.363 . S
C1844 C1843 1.415 . S
C1845 H1821 0.951 . S
C1845 C1846 1.366 . S
C1845 C1847 1.388 . S
C1846 C1845 1.366 . S
C1846 C1850 1.385 . S
C1847 H1822 0.951 . S
C1847 C1845 1.388 . S
C1847 C1848 1.366 . S
C1848 C1847 1.366 . S
C1848 C1849 1.414 . S
C1848 C1851 1.499 . S
C1849 H1823 0.950 . S
C1849 C1848 1.414 . S
C1849 C1850 1.374 . S
C1850 H1824 0.950 . S
C1850 C1846 1.385 . S
C1850 C1849 1.374 . S
C1851 C1848 1.499 . S
C1851 C1852 1.373 . S
C1851 C1853 1.389 . S
C1852 H1825 0.950 . S
C1852 C1838 1.377 . S
C1852 C1851 1.373 . S
C1853 C1837 1.377 . S
C1853 C1851 1.389 . S
C1853 C1854 1.524 . S
C1854 C1853 1.524 . S
C1854 C1855 1.397 . S
C1854 C1859 1.363 . S
C1855 H1826 0.950 . S
C1855 C1854 1.397 . S
C1855 C1856 1.334 . S
C1856 H1827 0.950 . S
C1856 C1855 1.334 . S
C1856 C1857 1.287 . S
C1857 C1856 1.287 . S
C1857 C1858 1.524 . S
C1857 H1860 0.999 . S
C1858 H1828 0.950 . S
C1858 C1857 1.524 . S
C1858 C1859 1.415 . S
C1859 H1829 0.950 . S
C1859 C1854 1.363 . S
C1859 C1858 1.415 . S
H1860 C1857 0.999 . S
H1861 C1842 0.913 . S
H1862 C1880 0.951 . S
H1863 C1882 0.951 . S
H1864 C1884 0.950 . S
H1865 C1885 0.950 . S
H1866 C1887 0.950 . S
H1867 C1890 0.950 . S
H1868 C1891 0.950 . S
H1869 C1893 0.950 . S
H1870 C1894 0.950 . S
H1871 C1895 0.951 1_554 S
H1872 C1897 0.951 . S
H1873 C1899 0.950 . S
H1874 C1900 0.950 . S
H1875 C1902 0.950 . S
H1876 C1905 0.950 . S
H1877 C1906 0.950 . S
H1878 C1908 0.950 1_554 S
H1879 C1909 0.950 . S
C1880 H1862 0.951 . S
C1880 C1881 1.366 . S
C1880 C1882 1.388 . S
C1881 C1880 1.366 . S
C1881 C1885 1.385 . S
C1882 H1863 0.951 . S
C1882 C1880 1.388 . S
C1882 C1883 1.366 . S
C1883 C1882 1.366 . S
C1883 C1884 1.414 . S
C1883 C1886 1.499 . S
C1884 H1864 0.950 . S
C1884 C1883 1.414 . S
C1884 C1885 1.374 . S
C1885 H1865 0.950 . S
C1885 C1881 1.385 . S
C1885 C1884 1.374 . S
C1886 C1883 1.499 . S
C1886 C1887 1.373 . S
C1886 C1888 1.389 . S
C1887 H1866 0.950 . S
C1887 C1886 1.373 . S
C1887 C1903 1.377 . S
C1888 C1886 1.389 . S
C1888 C1889 1.524 . S
C1888 C1902 1.377 . S
C1889 C1888 1.524 . S
C1889 C1890 1.397 . S
C1889 C1894 1.363 . S
C1890 H1867 0.950 . S
C1890 C1889 1.397 . S
C1890 C1891 1.334 . S
C1891 H1868 0.950 . S
C1891 C1890 1.334 . S
C1891 C1892 1.287 . S
C1892 C1891 1.287 . S
C1892 C1893 1.524 . S
C1892 H1911 0.913 . S
C1893 H1869 0.950 . S
C1893 C1892 1.524 . S
C1893 C1894 1.415 . S
C1894 H1870 0.950 . S
C1894 C1889 1.363 . S
C1894 C1893 1.415 . S
C1895 H1871 0.951 1_556 S
C1895 C1896 1.366 . S
C1895 C1897 1.388 . S
C1896 C1895 1.366 . S
C1896 C1900 1.385 . S
C1897 H1872 0.951 . S
C1897 C1895 1.388 . S
C1897 C1898 1.366 . S
C1898 C1897 1.366 . S
C1898 C1899 1.414 . S
C1898 C1901 1.499 . S
C1899 H1873 0.950 . S
C1899 C1898 1.414 . S
C1899 C1900 1.374 . S
C1900 H1874 0.950 . S
C1900 C1896 1.385 . S
C1900 C1899 1.374 . S
C1901 C1898 1.499 . S
C1901 C1902 1.373 . S
C1901 C1903 1.389 . S
C1902 H1875 0.950 . S
C1902 C1888 1.377 . S
C1902 C1901 1.373 . S
C1903 C1887 1.377 . S
C1903 C1901 1.389 . S
C1903 C1904 1.524 . S
C1904 C1903 1.524 . S
C1904 C1905 1.397 . S
C1904 C1909 1.363 . S
C1905 H1876 0.950 . S
C1905 C1904 1.397 . S
C1905 C1906 1.334 . S
C1906 H1877 0.950 . S
C1906 C1905 1.334 . S
C1906 C1907 1.287 . S
C1907 C1906 1.287 . S
C1907 C1908 1.524 . S
C1907 H1910 0.999 1_556 S
C1908 H1878 0.950 1_556 S
C1908 C1907 1.524 . S
C1908 C1909 1.415 . S
C1909 H1879 0.950 . S
C1909 C1904 1.363 . S
C1909 C1908 1.415 . S
H1910 C1907 0.999 1_554 S
H1911 C1892 0.913 . S
H1912 C1930 0.951 . S
H1913 C1932 0.951 . S
H1914 C1934 0.950 . S
H1915 C1935 0.950 . S
H1916 C1937 0.950 . S
H1917 C1940 0.950 . S
H1918 C1941 0.950 . S
H1919 C1943 0.950 . S
H1920 C1944 0.950 . S
H1921 C1945 0.951 . S
H1922 C1947 0.951 . S
H1923 C1949 0.950 . S
H1924 C1950 0.950 . S
H1925 C1952 0.950 . S
H1926 C1955 0.950 . S
H1927 C1956 0.950 . S
H1928 C1958 0.950 . S
H1929 C1959 0.950 . S
C1930 H1912 0.951 . S
C1930 C1931 1.366 . S
C1930 C1932 1.388 . S
C1931 C1930 1.366 . S
C1931 C1935 1.385 . S
C1932 H1913 0.951 . S
C1932 C1930 1.388 . S
C1932 C1933 1.366 . S
C1933 C1932 1.366 . S
C1933 C1934 1.414 . S
C1933 C1936 1.499 . S
C1934 H1914 0.950 . S
C1934 C1933 1.414 . S
C1934 C1935 1.374 . S
C1935 H1915 0.950 . S
C1935 C1931 1.385 . S
C1935 C1934 1.374 . S
C1936 C1933 1.499 . S
C1936 C1937 1.373 . S
C1936 C1938 1.389 . S
C1937 H1916 0.950 . S
C1937 C1936 1.373 . S
C1937 C1953 1.377 . S
C1938 C1936 1.389 . S
C1938 C1939 1.524 . S
C1938 C1952 1.377 . S
C1939 C1938 1.524 . S
C1939 C1940 1.397 . S
C1939 C1944 1.363 . S
C1940 H1917 0.950 . S
C1940 C1939 1.397 . S
C1940 C1941 1.334 . S
C1941 H1918 0.950 . S
C1941 C1940 1.334 . S
C1941 C1942 1.287 . S
C1942 C1941 1.287 . S
C1942 C1943 1.524 . S
C1942 H1961 0.913 . S
C1943 H1919 0.950 . S
C1943 C1942 1.524 . S
C1943 C1944 1.415 . S
C1944 H1920 0.950 . S
C1944 C1939 1.363 . S
C1944 C1943 1.415 . S
C1945 H1921 0.951 . S
C1945 C1946 1.366 . S
C1945 C1947 1.388 . S
C1946 C1945 1.366 . S
C1946 C1950 1.385 . S
C1947 H1922 0.951 . S
C1947 C1945 1.388 . S
C1947 C1948 1.366 . S
C1948 C1947 1.366 . S
C1948 C1949 1.414 . S
C1948 C1951 1.499 . S
C1949 H1923 0.950 . S
C1949 C1948 1.414 . S
C1949 C1950 1.374 . S
C1950 H1924 0.950 . S
C1950 C1946 1.385 . S
C1950 C1949 1.374 . S
C1951 C1948 1.499 . S
C1951 C1952 1.373 . S
C1951 C1953 1.389 . S
C1952 H1925 0.950 . S
C1952 C1938 1.377 . S
C1952 C1951 1.373 . S
C1953 C1937 1.377 . S
C1953 C1951 1.389 . S
C1953 C1954 1.524 . S
C1954 C1953 1.524 . S
C1954 C1955 1.397 . S
C1954 C1959 1.363 . S
C1955 H1926 0.950 . S
C1955 C1954 1.397 . S
C1955 C1956 1.334 . S
C1956 H1927 0.950 . S
C1956 C1955 1.334 . S
C1956 C1957 1.287 . S
C1957 C1956 1.287 . S
C1957 C1958 1.524 . S
C1957 H1960 0.999 . S
C1958 H1928 0.950 . S
C1958 C1957 1.524 . S
C1958 C1959 1.415 . S
C1959 H1929 0.950 . S
C1959 C1954 1.363 . S
C1959 C1958 1.415 . S
H1960 C1957 0.999 . S
H1961 C1942 0.913 . S
H1962 C1980 0.951 . S
H1963 C1982 0.951 . S
H1964 C1984 0.950 . S
H1965 C1985 0.950 . S
H1966 C1987 0.950 . S
H1967 C1990 0.950 . S
H1968 C1991 0.950 . S
H1969 C1993 0.950 . S
H1970 C1994 0.950 . S
H1971 C1995 0.951 . S
H1972 C1997 0.951 . S
H1973 C1999 0.950 . S
H1974 C2000 0.950 . S
H1975 C2002 0.950 . S
H1976 C2005 0.950 . S
H1977 C2006 0.950 . S
H1978 C2008 0.950 . S
H1979 C2009 0.950 . S
C1980 H1962 0.951 . S
C1980 C1981 1.366 . S
C1980 C1982 1.388 . S
C1981 C1980 1.366 . S
C1981 C1985 1.385 . S
C1982 H1963 0.951 . S
C1982 C1980 1.388 . S
C1982 C1983 1.366 . S
C1983 C1982 1.366 . S
C1983 C1984 1.414 . S
C1983 C1986 1.499 . S
C1984 H1964 0.950 . S
C1984 C1983 1.414 . S
C1984 C1985 1.374 . S
C1985 H1965 0.950 . S
C1985 C1981 1.385 . S
C1985 C1984 1.374 . S
C1986 C1983 1.499 . S
C1986 C1987 1.373 . S
C1986 C1988 1.389 . S
C1987 H1966 0.950 . S
C1987 C1986 1.373 . S
C1987 C2003 1.377 . S
C1988 C1986 1.389 . S
C1988 C1989 1.524 . S
C1988 C2002 1.377 . S
C1989 C1988 1.524 . S
C1989 C1990 1.397 . S
C1989 C1994 1.363 . S
C1990 H1967 0.950 . S
C1990 C1989 1.397 . S
C1990 C1991 1.334 . S
C1991 H1968 0.950 . S
C1991 C1990 1.334 . S
C1991 C1992 1.287 . S
C1992 C1991 1.287 . S
C1992 C1993 1.524 . S
C1992 H2011 0.913 . S
C1993 H1969 0.950 . S
C1993 C1992 1.524 . S
C1993 C1994 1.415 . S
C1994 H1970 0.950 . S
C1994 C1989 1.363 . S
C1994 C1993 1.415 . S
C1995 H1971 0.951 . S
C1995 C1996 1.366 . S
C1995 C1997 1.388 . S
C1996 C1995 1.366 . S
C1996 C2000 1.385 . S
C1997 H1972 0.951 . S
C1997 C1995 1.388 . S
C1997 C1998 1.366 . S
C1998 C1997 1.366 . S
C1998 C1999 1.414 . S
C1998 C2001 1.499 . S
C1999 H1973 0.950 . S
C1999 C1998 1.414 . S
C1999 C2000 1.374 . S
C2000 H1974 0.950 . S
C2000 C1996 1.385 . S
C2000 C1999 1.374 . S
C2001 C1998 1.499 . S
C2001 C2002 1.373 . S
C2001 C2003 1.389 . S
C2002 H1975 0.950 . S
C2002 C1988 1.377 . S
C2002 C2001 1.373 . S
C2003 C1987 1.377 . S
C2003 C2001 1.389 . S
C2003 C2004 1.524 . S
C2004 C2003 1.524 . S
C2004 C2005 1.397 . S
C2004 C2009 1.363 . S
C2005 H1976 0.950 . S
C2005 C2004 1.397 . S
C2005 C2006 1.334 . S
C2006 H1977 0.950 . S
C2006 C2005 1.334 . S
C2006 C2007 1.287 . S
C2007 C2006 1.287 . S
C2007 C2008 1.524 . S
C2007 H2010 0.999 . S
C2008 H1978 0.950 . S
C2008 C2007 1.524 . S
C2008 C2009 1.415 . S
C2009 H1979 0.950 . S
C2009 C2004 1.363 . S
C2009 C2008 1.415 . S
H2010 C2007 0.999 . S
H2011 C1992 0.913 . S
H2012 C2030 0.951 . S
H2013 C2032 0.951 . S
H2014 C2034 0.950 . S
H2015 C2035 0.950 . S
H2016 C2037 0.950 . S
H2017 C2040 0.950 . S
H2018 C2041 0.950 . S
H2019 C2043 0.950 . S
H2020 C2044 0.950 . S
H2021 C2045 0.951 . S
H2022 C2047 0.951 . S
H2023 C2049 0.950 . S
H2024 C2050 0.950 . S
H2025 C2052 0.950 . S
H2026 C2055 0.950 . S
H2027 C2056 0.950 . S
H2028 C2058 0.950 . S
H2029 C2059 0.950 . S
C2030 H2012 0.951 . S
C2030 C2031 1.366 . S
C2030 C2032 1.388 . S
C2031 C2030 1.366 . S
C2031 C2035 1.385 . S
C2032 H2013 0.951 . S
C2032 C2030 1.388 . S
C2032 C2033 1.366 . S
C2033 C2032 1.366 . S
C2033 C2034 1.414 . S
C2033 C2036 1.499 . S
C2034 H2014 0.950 . S
C2034 C2033 1.414 . S
C2034 C2035 1.374 . S
C2035 H2015 0.950 . S
C2035 C2031 1.385 . S
C2035 C2034 1.374 . S
C2036 C2033 1.499 . S
C2036 C2037 1.373 . S
C2036 C2038 1.389 . S
C2037 H2016 0.950 . S
C2037 C2036 1.373 . S
C2037 C2053 1.377 . S
C2038 C2036 1.389 . S
C2038 C2039 1.524 . S
C2038 C2052 1.377 . S
C2039 C2038 1.524 . S
C2039 C2040 1.397 . S
C2039 C2044 1.363 . S
C2040 H2017 0.950 . S
C2040 C2039 1.397 . S
C2040 C2041 1.334 . S
C2041 H2018 0.950 . S
C2041 C2040 1.334 . S
C2041 C2042 1.287 . S
C2042 C2041 1.287 . S
C2042 C2043 1.524 . S
C2042 H2061 0.913 . S
C2043 H2019 0.950 . S
C2043 C2042 1.524 . S
C2043 C2044 1.415 . S
C2044 H2020 0.950 . S
C2044 C2039 1.363 . S
C2044 C2043 1.415 . S
C2045 H2021 0.951 . S
C2045 C2046 1.366 . S
C2045 C2047 1.388 . S
C2046 C2045 1.366 . S
C2046 C2050 1.385 . S
C2047 H2022 0.951 . S
C2047 C2045 1.388 . S
C2047 C2048 1.366 . S
C2048 C2047 1.366 . S
C2048 C2049 1.414 . S
C2048 C2051 1.499 . S
C2049 H2023 0.950 . S
C2049 C2048 1.414 . S
C2049 C2050 1.374 . S
C2050 H2024 0.950 . S
C2050 C2046 1.385 . S
C2050 C2049 1.374 . S
C2051 C2048 1.499 . S
C2051 C2052 1.373 . S
C2051 C2053 1.389 . S
C2052 H2025 0.950 . S
C2052 C2038 1.377 . S
C2052 C2051 1.373 . S
C2053 C2037 1.377 . S
C2053 C2051 1.389 . S
C2053 C2054 1.524 . S
C2054 C2053 1.524 . S
C2054 C2055 1.397 . S
C2054 C2059 1.363 . S
C2055 H2026 0.950 . S
C2055 C2054 1.397 . S
C2055 C2056 1.334 . S
C2056 H2027 0.950 . S
C2056 C2055 1.334 . S
C2056 C2057 1.287 . S
C2057 C2056 1.287 . S
C2057 C2058 1.524 . S
C2057 H2060 0.999 . S
C2058 H2028 0.950 . S
C2058 C2057 1.524 . S
C2058 C2059 1.415 . S
C2059 H2029 0.950 . S
C2059 C2054 1.363 . S
C2059 C2058 1.415 . S
H2060 C2057 0.999 . S
H2061 C2042 0.913 . S
H2062 C2080 0.951 . S
H2063 C2082 0.951 . S
H2064 C2084 0.950 . S
H2065 C2085 0.950 . S
H2066 C2087 0.950 . S
H2067 C2090 0.950 . S
H2068 C2091 0.950 . S
H2069 C2093 0.950 . S
H2070 C2094 0.950 . S
H2071 C2095 0.951 . S
H2072 C2097 0.951 . S
H2073 C2099 0.950 . S
H2074 C2100 0.950 . S
H2075 C2102 0.950 . S
H2076 C2105 0.950 . S
H2077 C2106 0.950 . S
H2078 C2108 0.950 . S
H2079 C2109 0.950 . S
C2080 H2062 0.951 . S
C2080 C2081 1.366 . S
C2080 C2082 1.388 . S
C2081 C2080 1.366 . S
C2081 C2085 1.385 . S
C2082 H2063 0.951 . S
C2082 C2080 1.388 . S
C2082 C2083 1.366 . S
C2083 C2082 1.366 . S
C2083 C2084 1.414 . S
C2083 C2086 1.499 . S
C2084 H2064 0.950 . S
C2084 C2083 1.414 . S
C2084 C2085 1.374 . S
C2085 H2065 0.950 . S
C2085 C2081 1.385 . S
C2085 C2084 1.374 . S
C2086 C2083 1.499 . S
C2086 C2087 1.373 . S
C2086 C2088 1.389 . S
C2087 H2066 0.950 . S
C2087 C2086 1.373 . S
C2087 C2103 1.377 . S
C2088 C2086 1.389 . S
C2088 C2089 1.524 . S
C2088 C2102 1.377 . S
C2089 C2088 1.524 . S
C2089 C2090 1.397 . S
C2089 C2094 1.363 . S
C2090 H2067 0.950 . S
C2090 C2089 1.397 . S
C2090 C2091 1.334 . S
C2091 H2068 0.950 . S
C2091 C2090 1.334 . S
C2091 C2092 1.287 . S
C2092 C2091 1.287 . S
C2092 C2093 1.524 . S
C2092 H2111 0.913 . S
C2093 H2069 0.950 . S
C2093 C2092 1.524 . S
C2093 C2094 1.415 . S
C2094 H2070 0.950 . S
C2094 C2089 1.363 . S
C2094 C2093 1.415 . S
C2095 H2071 0.951 . S
C2095 C2096 1.366 . S
C2095 C2097 1.388 . S
C2096 C2095 1.366 . S
C2096 C2100 1.385 . S
C2097 H2072 0.951 . S
C2097 C2095 1.388 . S
C2097 C2098 1.366 . S
C2098 C2097 1.366 . S
C2098 C2099 1.414 . S
C2098 C2101 1.499 . S
C2099 H2073 0.950 . S
C2099 C2098 1.414 . S
C2099 C2100 1.374 . S
C2100 H2074 0.950 . S
C2100 C2096 1.385 . S
C2100 C2099 1.374 . S
C2101 C2098 1.499 . S
C2101 C2102 1.373 . S
C2101 C2103 1.389 . S
C2102 H2075 0.950 . S
C2102 C2088 1.377 . S
C2102 C2101 1.373 . S
C2103 C2087 1.377 . S
C2103 C2101 1.389 . S
C2103 C2104 1.524 . S
C2104 C2103 1.524 . S
C2104 C2105 1.397 . S
C2104 C2109 1.363 . S
C2105 H2076 0.950 . S
C2105 C2104 1.397 . S
C2105 C2106 1.334 . S
C2106 H2077 0.950 . S
C2106 C2105 1.334 . S
C2106 C2107 1.287 . S
C2107 C2106 1.287 . S
C2107 C2108 1.524 . S
C2107 H2110 0.999 . S
C2108 H2078 0.950 . S
C2108 C2107 1.524 . S
C2108 C2109 1.415 . S
C2109 H2079 0.950 . S
C2109 C2104 1.363 . S
C2109 C2108 1.415 . S
H2110 C2107 0.999 . S
H2111 C2092 0.913 . S
H2112 C2130 0.951 . S
H2113 C2132 0.951 . S
H2114 C2134 0.950 . S
H2115 C2135 0.950 . S
H2116 C2137 0.950 . S
H2117 C2140 0.950 . S
H2118 C2141 0.950 . S
H2119 C2143 0.950 . S
H2120 C2144 0.950 . S
H2121 C2145 0.951 . S
H2122 C2147 0.951 . S
H2123 C2149 0.950 . S
H2124 C2150 0.950 1_455 S
H2125 C2152 0.950 . S
H2126 C2155 0.950 . S
H2127 C2156 0.950 . S
H2128 C2158 0.950 . S
H2129 C2159 0.950 . S
C2130 H2112 0.951 . S
C2130 C2131 1.366 . S
C2130 C2132 1.388 . S
C2131 C2130 1.366 . S
C2131 C2135 1.385 . S
C2132 H2113 0.951 . S
C2132 C2130 1.388 . S
C2132 C2133 1.366 . S
C2133 C2132 1.366 . S
C2133 C2134 1.414 . S
C2133 C2136 1.499 . S
C2134 H2114 0.950 . S
C2134 C2133 1.414 . S
C2134 C2135 1.374 . S
C2135 H2115 0.950 . S
C2135 C2131 1.385 . S
C2135 C2134 1.374 . S
C2136 C2133 1.499 . S
C2136 C2137 1.373 . S
C2136 C2138 1.389 . S
C2137 H2116 0.950 . S
C2137 C2136 1.373 . S
C2137 C2153 1.377 . S
C2138 C2136 1.389 . S
C2138 C2139 1.524 . S
C2138 C2152 1.377 . S
C2139 C2138 1.524 . S
C2139 C2140 1.397 . S
C2139 C2144 1.363 . S
C2140 H2117 0.950 . S
C2140 C2139 1.397 . S
C2140 C2141 1.334 . S
C2141 H2118 0.950 . S
C2141 C2140 1.334 . S
C2141 C2142 1.287 . S
C2142 C2141 1.287 . S
C2142 C2143 1.524 . S
C2142 H2161 0.913 . S
C2143 H2119 0.950 . S
C2143 C2142 1.524 . S
C2143 C2144 1.415 . S
C2144 H2120 0.950 . S
C2144 C2139 1.363 . S
C2144 C2143 1.415 . S
C2145 H2121 0.951 . S
C2145 C2146 1.366 . S
C2145 C2147 1.388 . S
C2146 C2145 1.366 . S
C2146 C2150 1.385 . S
C2147 H2122 0.951 . S
C2147 C2145 1.388 . S
C2147 C2148 1.366 . S
C2148 C2147 1.366 . S
C2148 C2149 1.414 . S
C2148 C2151 1.499 . S
C2149 H2123 0.950 . S
C2149 C2148 1.414 . S
C2149 C2150 1.374 . S
C2150 H2124 0.950 1_655 S
C2150 C2146 1.385 . S
C2150 C2149 1.374 . S
C2151 C2148 1.499 . S
C2151 C2152 1.373 . S
C2151 C2153 1.389 . S
C2152 H2125 0.950 . S
C2152 C2138 1.377 . S
C2152 C2151 1.373 . S
C2153 C2137 1.377 . S
C2153 C2151 1.389 . S
C2153 C2154 1.524 . S
C2154 C2153 1.524 . S
C2154 C2155 1.397 . S
C2154 C2159 1.363 . S
C2155 H2126 0.950 . S
C2155 C2154 1.397 . S
C2155 C2156 1.334 . S
C2156 H2127 0.950 . S
C2156 C2155 1.334 . S
C2156 C2157 1.287 . S
C2157 C2156 1.287 . S
C2157 C2158 1.524 . S
C2157 H2160 0.999 . S
C2158 H2128 0.950 . S
C2158 C2157 1.524 . S
C2158 C2159 1.415 . S
C2159 H2129 0.950 . S
C2159 C2154 1.363 . S
C2159 C2158 1.415 . S
H2160 C2157 0.999 . S
H2161 C2142 0.913 . S
H2162 C2180 0.951 . S
H2163 C2182 0.951 . S
H2164 C2184 0.950 . S
H2165 C2185 0.950 . S
H2166 C2187 0.950 . S
H2167 C2190 0.950 . S
H2168 C2191 0.950 . S
H2169 C2193 0.950 . S
H2170 C2194 0.950 . S
H2171 C2195 0.951 . S
H2172 C2197 0.951 . S
H2173 C2199 0.950 . S
H2174 C2200 0.950 . S
H2175 C2202 0.950 . S
H2176 C2205 0.950 . S
H2177 C2206 0.950 1_545 S
H2178 C2208 0.950 . S
H2179 C2209 0.950 . S
C2180 H2162 0.951 . S
C2180 C2181 1.366 . S
C2180 C2182 1.388 . S
C2181 C2180 1.366 . S
C2181 C2185 1.385 . S
C2182 H2163 0.951 . S
C2182 C2180 1.388 . S
C2182 C2183 1.366 . S
C2183 C2182 1.366 . S
C2183 C2184 1.414 . S
C2183 C2186 1.499 . S
C2184 H2164 0.950 . S
C2184 C2183 1.414 . S
C2184 C2185 1.374 . S
C2185 H2165 0.950 . S
C2185 C2181 1.385 . S
C2185 C2184 1.374 . S
C2186 C2183 1.499 . S
C2186 C2187 1.373 . S
C2186 C2188 1.389 . S
C2187 H2166 0.950 . S
C2187 C2186 1.373 . S
C2187 C2203 1.377 . S
C2188 C2186 1.389 . S
C2188 C2189 1.524 . S
C2188 C2202 1.377 . S
C2189 C2188 1.524 . S
C2189 C2190 1.397 . S
C2189 C2194 1.363 . S
C2190 H2167 0.950 . S
C2190 C2189 1.397 . S
C2190 C2191 1.334 . S
C2191 H2168 0.950 . S
C2191 C2190 1.334 . S
C2191 C2192 1.287 . S
C2192 C2191 1.287 . S
C2192 C2193 1.524 . S
C2192 H2211 0.913 . S
C2193 H2169 0.950 . S
C2193 C2192 1.524 . S
C2193 C2194 1.415 . S
C2194 H2170 0.950 . S
C2194 C2189 1.363 . S
C2194 C2193 1.415 . S
C2195 H2171 0.951 . S
C2195 C2196 1.366 . S
C2195 C2197 1.388 . S
C2196 C2195 1.366 . S
C2196 C2200 1.385 . S
C2197 H2172 0.951 . S
C2197 C2195 1.388 . S
C2197 C2198 1.366 . S
C2198 C2197 1.366 . S
C2198 C2199 1.414 . S
C2198 C2201 1.499 . S
C2199 H2173 0.950 . S
C2199 C2198 1.414 . S
C2199 C2200 1.374 . S
C2200 H2174 0.950 . S
C2200 C2196 1.385 . S
C2200 C2199 1.374 . S
C2201 C2198 1.499 . S
C2201 C2202 1.373 . S
C2201 C2203 1.389 . S
C2202 H2175 0.950 . S
C2202 C2188 1.377 . S
C2202 C2201 1.373 . S
C2203 C2187 1.377 . S
C2203 C2201 1.389 . S
C2203 C2204 1.524 . S
C2204 C2203 1.524 . S
C2204 C2205 1.397 . S
C2204 C2209 1.363 . S
C2205 H2176 0.950 . S
C2205 C2204 1.397 . S
C2205 C2206 1.334 . S
C2206 H2177 0.950 1_565 S
C2206 C2205 1.334 . S
C2206 C2207 1.287 . S
C2207 C2206 1.287 . S
C2207 C2208 1.524 . S
C2207 H2210 0.999 1_565 S
C2208 H2178 0.950 . S
C2208 C2207 1.524 . S
C2208 C2209 1.415 . S
C2209 H2179 0.950 . S
C2209 C2204 1.363 . S
C2209 C2208 1.415 . S
H2210 C2207 0.999 1_545 S
H2211 C2192 0.913 . S
H2212 C2230 0.951 . S
H2213 C2232 0.951 . S
H2214 C2234 0.950 . S
H2215 C2235 0.950 . S
H2216 C2237 0.950 . S
H2217 C2240 0.950 . S
H2218 C2241 0.950 . S
H2219 C2243 0.950 . S
H2220 C2244 0.950 . S
H2221 C2245 0.951 . S
H2222 C2247 0.951 . S
H2223 C2249 0.950 . S
H2224 C2250 0.950 . S
H2225 C2252 0.950 . S
H2226 C2255 0.950 . S
H2227 C2256 0.950 . S
H2228 C2258 0.950 . S
H2229 C2259 0.950 . S
C2230 H2212 0.951 . S
C2230 C2231 1.366 . S
C2230 C2232 1.388 . S
C2231 C2230 1.366 . S
C2231 C2235 1.385 . S
C2232 H2213 0.951 . S
C2232 C2230 1.388 . S
C2232 C2233 1.366 . S
C2233 C2232 1.366 . S
C2233 C2234 1.414 . S
C2233 C2236 1.499 . S
C2234 H2214 0.950 . S
C2234 C2233 1.414 . S
C2234 C2235 1.374 . S
C2235 H2215 0.950 . S
C2235 C2231 1.385 . S
C2235 C2234 1.374 . S
C2236 C2233 1.499 . S
C2236 C2237 1.373 . S
C2236 C2238 1.389 . S
C2237 H2216 0.950 . S
C2237 C2236 1.373 . S
C2237 C2253 1.377 . S
C2238 C2236 1.389 . S
C2238 C2239 1.524 . S
C2238 C2252 1.377 . S
C2239 C2238 1.524 . S
C2239 C2240 1.397 . S
C2239 C2244 1.363 . S
C2240 H2217 0.950 . S
C2240 C2239 1.397 . S
C2240 C2241 1.334 . S
C2241 H2218 0.950 . S
C2241 C2240 1.334 . S
C2241 C2242 1.287 . S
C2242 C2241 1.287 . S
C2242 C2243 1.524 . S
C2242 H2261 0.913 . S
C2243 H2219 0.950 . S
C2243 C2242 1.524 . S
C2243 C2244 1.415 . S
C2244 H2220 0.950 . S
C2244 C2239 1.363 . S
C2244 C2243 1.415 . S
C2245 H2221 0.951 . S
C2245 C2246 1.366 . S
C2245 C2247 1.388 . S
C2246 C2245 1.366 . S
C2246 C2250 1.385 . S
C2247 H2222 0.951 . S
C2247 C2245 1.388 . S
C2247 C2248 1.366 . S
C2248 C2247 1.366 . S
C2248 C2249 1.414 . S
C2248 C2251 1.499 . S
C2249 H2223 0.950 . S
C2249 C2248 1.414 . S
C2249 C2250 1.374 . S
C2250 H2224 0.950 . S
C2250 C2246 1.385 . S
C2250 C2249 1.374 . S
C2251 C2248 1.499 . S
C2251 C2252 1.373 . S
C2251 C2253 1.389 . S
C2252 H2225 0.950 . S
C2252 C2238 1.377 . S
C2252 C2251 1.373 . S
C2253 C2237 1.377 . S
C2253 C2251 1.389 . S
C2253 C2254 1.524 . S
C2254 C2253 1.524 . S
C2254 C2255 1.397 . S
C2254 C2259 1.363 . S
C2255 H2226 0.950 . S
C2255 C2254 1.397 . S
C2255 C2256 1.334 . S
C2256 H2227 0.950 . S
C2256 C2255 1.334 . S
C2256 C2257 1.287 . S
C2257 C2256 1.287 . S
C2257 C2258 1.524 . S
C2257 H2260 0.999 . S
C2258 H2228 0.950 . S
C2258 C2257 1.524 . S
C2258 C2259 1.415 . S
C2259 H2229 0.950 . S
C2259 C2254 1.363 . S
C2259 C2258 1.415 . S
H2260 C2257 0.999 . S
H2261 C2242 0.913 . S
H2262 C2280 0.951 . S
H2263 C2282 0.951 . S
H2264 C2284 0.950 . S
H2265 C2285 0.950 . S
H2266 C2287 0.950 . S
H2267 C2290 0.950 . S
H2268 C2291 0.950 . S
H2269 C2293 0.950 . S
H2270 C2294 0.950 . S
H2271 C2295 0.951 . S
H2272 C2297 0.951 . S
H2273 C2299 0.950 . S
H2274 C2300 0.950 . S
H2275 C2302 0.950 . S
H2276 C2305 0.950 . S
H2277 C2306 0.950 . S
H2278 C2308 0.950 . S
H2279 C2309 0.950 . S
C2280 H2262 0.951 . S
C2280 C2281 1.366 . S
C2280 C2282 1.388 . S
C2281 C2280 1.366 . S
C2281 C2285 1.385 . S
C2282 H2263 0.951 . S
C2282 C2280 1.388 . S
C2282 C2283 1.366 . S
C2283 C2282 1.366 . S
C2283 C2284 1.414 . S
C2283 C2286 1.499 . S
C2284 H2264 0.950 . S
C2284 C2283 1.414 . S
C2284 C2285 1.374 . S
C2285 H2265 0.950 . S
C2285 C2281 1.385 . S
C2285 C2284 1.374 . S
C2286 C2283 1.499 . S
C2286 C2287 1.373 . S
C2286 C2288 1.389 . S
C2287 H2266 0.950 . S
C2287 C2286 1.373 . S
C2287 C2303 1.377 . S
C2288 C2286 1.389 . S
C2288 C2289 1.524 . S
C2288 C2302 1.377 . S
C2289 C2288 1.524 . S
C2289 C2290 1.397 . S
C2289 C2294 1.363 . S
C2290 H2267 0.950 . S
C2290 C2289 1.397 . S
C2290 C2291 1.334 . S
C2291 H2268 0.950 . S
C2291 C2290 1.334 . S
C2291 C2292 1.287 . S
C2292 C2291 1.287 . S
C2292 C2293 1.524 . S
C2292 H2311 0.913 . S
C2293 H2269 0.950 . S
C2293 C2292 1.524 . S
C2293 C2294 1.415 . S
C2294 H2270 0.950 . S
C2294 C2289 1.363 . S
C2294 C2293 1.415 . S
C2295 H2271 0.951 . S
C2295 C2296 1.366 . S
C2295 C2297 1.388 . S
C2296 C2295 1.366 . S
C2296 C2300 1.385 . S
C2297 H2272 0.951 . S
C2297 C2295 1.388 . S
C2297 C2298 1.366 . S
C2298 C2297 1.366 . S
C2298 C2299 1.414 . S
C2298 C2301 1.499 . S
C2299 H2273 0.950 . S
C2299 C2298 1.414 . S
C2299 C2300 1.374 . S
C2300 H2274 0.950 . S
C2300 C2296 1.385 . S
C2300 C2299 1.374 . S
C2301 C2298 1.499 . S
C2301 C2302 1.373 . S
C2301 C2303 1.389 . S
C2302 H2275 0.950 . S
C2302 C2288 1.377 . S
C2302 C2301 1.373 . S
C2303 C2287 1.377 . S
C2303 C2301 1.389 . S
C2303 C2304 1.524 . S
C2304 C2303 1.524 . S
C2304 C2305 1.397 . S
C2304 C2309 1.363 . S
C2305 H2276 0.950 . S
C2305 C2304 1.397 . S
C2305 C2306 1.334 . S
C2306 H2277 0.950 . S
C2306 C2305 1.334 . S
C2306 C2307 1.287 . S
C2307 C2306 1.287 . S
C2307 C2308 1.524 . S
C2307 H2310 0.999 . S
C2308 H2278 0.950 . S
C2308 C2307 1.524 . S
C2308 C2309 1.415 . S
C2309 H2279 0.950 . S
C2309 C2304 1.363 . S
C2309 C2308 1.415 . S
H2310 C2307 0.999 . S
H2311 C2292 0.913 . S
H2312 C2330 0.951 . S
H2313 C2332 0.951 . S
H2314 C2334 0.950 . S
H2315 C2335 0.950 . S
H2316 C2337 0.950 . S
H2317 C2340 0.950 . S
H2318 C2341 0.950 . S
H2319 C2343 0.950 . S
H2320 C2344 0.950 . S
H2321 C2345 0.951 . S
H2322 C2347 0.951 . S
H2323 C2349 0.950 . S
H2324 C2350 0.950 . S
H2325 C2352 0.950 . S
H2326 C2355 0.950 . S
H2327 C2356 0.950 . S
H2328 C2358 0.950 . S
H2329 C2359 0.950 . S
C2330 H2312 0.951 . S
C2330 C2331 1.366 . S
C2330 C2332 1.388 . S
C2331 C2330 1.366 . S
C2331 C2335 1.385 . S
C2332 H2313 0.951 . S
C2332 C2330 1.388 . S
C2332 C2333 1.366 . S
C2333 C2332 1.366 . S
C2333 C2334 1.414 . S
C2333 C2336 1.499 . S
C2334 H2314 0.950 . S
C2334 C2333 1.414 . S
C2334 C2335 1.374 . S
C2335 H2315 0.950 . S
C2335 C2331 1.385 . S
C2335 C2334 1.374 . S
C2336 C2333 1.499 . S
C2336 C2337 1.373 . S
C2336 C2338 1.389 . S
C2337 H2316 0.950 . S
C2337 C2336 1.373 . S
C2337 C2353 1.377 . S
C2338 C2336 1.389 . S
C2338 C2339 1.524 . S
C2338 C2352 1.377 . S
C2339 C2338 1.524 . S
C2339 C2340 1.397 . S
C2339 C2344 1.363 . S
C2340 H2317 0.950 . S
C2340 C2339 1.397 . S
C2340 C2341 1.334 . S
C2341 H2318 0.950 . S
C2341 C2340 1.334 . S
C2341 C2342 1.287 . S
C2342 C2341 1.287 . S
C2342 C2343 1.524 . S
C2342 H2361 0.913 . S
C2343 H2319 0.950 . S
C2343 C2342 1.524 . S
C2343 C2344 1.415 . S
C2344 H2320 0.950 . S
C2344 C2339 1.363 . S
C2344 C2343 1.415 . S
C2345 H2321 0.951 . S
C2345 C2346 1.366 . S
C2345 C2347 1.388 . S
C2346 C2345 1.366 . S
C2346 C2350 1.385 . S
C2347 H2322 0.951 . S
C2347 C2345 1.388 . S
C2347 C2348 1.366 . S
C2348 C2347 1.366 . S
C2348 C2349 1.414 . S
C2348 C2351 1.499 . S
C2349 H2323 0.950 . S
C2349 C2348 1.414 . S
C2349 C2350 1.374 . S
C2350 H2324 0.950 . S
C2350 C2346 1.385 . S
C2350 C2349 1.374 . S
C2351 C2348 1.499 . S
C2351 C2352 1.373 . S
C2351 C2353 1.389 . S
C2352 H2325 0.950 . S
C2352 C2338 1.377 . S
C2352 C2351 1.373 . S
C2353 C2337 1.377 . S
C2353 C2351 1.389 . S
C2353 C2354 1.524 . S
C2354 C2353 1.524 . S
C2354 C2355 1.397 . S
C2354 C2359 1.363 . S
C2355 H2326 0.950 . S
C2355 C2354 1.397 . S
C2355 C2356 1.334 . S
C2356 H2327 0.950 . S
C2356 C2355 1.334 . S
C2356 C2357 1.287 . S
C2357 C2356 1.287 . S
C2357 C2358 1.524 . S
C2357 H2360 0.999 . S
C2358 H2328 0.950 . S
C2358 C2357 1.524 . S
C2358 C2359 1.415 . S
C2359 H2329 0.950 . S
C2359 C2354 1.363 . S
C2359 C2358 1.415 . S
H2360 C2357 0.999 . S
H2361 C2342 0.913 . S
H2362 C2380 0.951 . S
H2363 C2382 0.951 . S
H2364 C2384 0.950 . S
H2365 C2385 0.950 . S
H2366 C2387 0.950 . S
H2367 C2390 0.950 . S
H2368 C2391 0.950 . S
H2369 C2393 0.950 . S
H2370 C2394 0.950 . S
H2371 C2395 0.951 . S
H2372 C2397 0.951 . S
H2373 C2399 0.950 . S
H2374 C2400 0.950 . S
H2375 C2402 0.950 . S
H2376 C2405 0.950 . S
H2377 C2406 0.950 . S
H2378 C2408 0.950 . S
H2379 C2409 0.950 . S
C2380 H2362 0.951 . S
C2380 C2381 1.366 . S
C2380 C2382 1.388 . S
C2381 C2380 1.366 . S
C2381 C2385 1.385 . S
C2382 H2363 0.951 . S
C2382 C2380 1.388 . S
C2382 C2383 1.366 . S
C2383 C2382 1.366 . S
C2383 C2384 1.414 . S
C2383 C2386 1.499 . S
C2384 H2364 0.950 . S
C2384 C2383 1.414 . S
C2384 C2385 1.374 . S
C2385 H2365 0.950 . S
C2385 C2381 1.385 . S
C2385 C2384 1.374 . S
C2386 C2383 1.499 . S
C2386 C2387 1.373 . S
C2386 C2388 1.389 . S
C2387 H2366 0.950 . S
C2387 C2386 1.373 . S
C2387 C2403 1.377 . S
C2388 C2386 1.389 . S
C2388 C2389 1.524 . S
C2388 C2402 1.377 . S
C2389 C2388 1.524 . S
C2389 C2390 1.397 . S
C2389 C2394 1.363 . S
C2390 H2367 0.950 . S
C2390 C2389 1.397 . S
C2390 C2391 1.334 . S
C2391 H2368 0.950 . S
C2391 C2390 1.334 . S
C2391 C2392 1.287 . S
C2392 C2391 1.287 . S
C2392 C2393 1.524 . S
C2392 H2411 0.913 . S
C2393 H2369 0.950 . S
C2393 C2392 1.524 . S
C2393 C2394 1.415 . S
C2394 H2370 0.950 . S
C2394 C2389 1.363 . S
C2394 C2393 1.415 . S
C2395 H2371 0.951 . S
C2395 C2396 1.366 . S
C2395 C2397 1.388 . S
C2396 C2395 1.366 . S
C2396 C2400 1.385 . S
C2397 H2372 0.951 . S
C2397 C2395 1.388 . S
C2397 C2398 1.366 . S
C2398 C2397 1.366 . S
C2398 C2399 1.414 . S
C2398 C2401 1.499 . S
C2399 H2373 0.950 . S
C2399 C2398 1.414 . S
C2399 C2400 1.374 . S
C2400 H2374 0.950 . S
C2400 C2396 1.385 . S
C2400 C2399 1.374 . S
C2401 C2398 1.499 . S
C2401 C2402 1.373 . S
C2401 C2403 1.389 . S
C2402 H2375 0.950 . S
C2402 C2388 1.377 . S
C2402 C2401 1.373 . S
C2403 C2387 1.377 . S
C2403 C2401 1.389 . S
C2403 C2404 1.524 . S
C2404 C2403 1.524 . S
C2404 C2405 1.397 . S
C2404 C2409 1.363 . S
C2405 H2376 0.950 . S
C2405 C2404 1.397 . S
C2405 C2406 1.334 . S
C2406 H2377 0.950 . S
C2406 C2405 1.334 . S
C2406 C2407 1.287 . S
C2407 C2406 1.287 . S
C2407 C2408 1.524 . S
C2407 H2410 0.999 . S
C2408 H2378 0.950 . S
C2408 C2407 1.524 . S
C2408 C2409 1.415 . S
C2409 H2379 0.950 . S
C2409 C2404 1.363 . S
C2409 C2408 1.415 . S
H2410 C2407 0.999 . S
H2411 C2392 0.913 . S
H2412 C2430 0.951 . S
H2413 C2432 0.951 . S
H2414 C2434 0.950 . S
H2415 C2435 0.950 . S
H2416 C2437 0.950 . S
H2417 C2440 0.950 . S
H2418 C2441 0.950 . S
H2419 C2443 0.950 . S
H2420 C2444 0.950 . S
H2421 C2445 0.951 . S
H2422 C2447 0.951 . S
H2423 C2449 0.950 . S
H2424 C2450 0.950 . S
H2425 C2452 0.950 . S
H2426 C2455 0.950 . S
H2427 C2456 0.950 . S
H2428 C2458 0.950 . S
H2429 C2459 0.950 . S
C2430 H2412 0.951 . S
C2430 C2431 1.366 . S
C2430 C2432 1.388 . S
C2431 C2430 1.366 . S
C2431 C2435 1.385 . S
C2432 H2413 0.951 . S
C2432 C2430 1.388 . S
C2432 C2433 1.366 . S
C2433 C2432 1.366 . S
C2433 C2434 1.414 . S
C2433 C2436 1.499 . S
C2434 H2414 0.950 . S
C2434 C2433 1.414 . S
C2434 C2435 1.374 . S
C2435 H2415 0.950 . S
C2435 C2431 1.385 . S
C2435 C2434 1.374 . S
C2436 C2433 1.499 . S
C2436 C2437 1.373 . S
C2436 C2438 1.389 . S
C2437 H2416 0.950 . S
C2437 C2436 1.373 . S
C2437 C2453 1.377 . S
C2438 C2436 1.389 . S
C2438 C2439 1.524 . S
C2438 C2452 1.377 . S
C2439 C2438 1.524 . S
C2439 C2440 1.397 . S
C2439 C2444 1.363 . S
C2440 H2417 0.950 . S
C2440 C2439 1.397 . S
C2440 C2441 1.334 . S
C2441 H2418 0.950 . S
C2441 C2440 1.334 . S
C2441 C2442 1.287 . S
C2442 C2441 1.287 . S
C2442 C2443 1.524 . S
C2442 H2461 0.913 . S
C2443 H2419 0.950 . S
C2443 C2442 1.524 . S
C2443 C2444 1.415 . S
C2444 H2420 0.950 . S
C2444 C2439 1.363 . S
C2444 C2443 1.415 . S
C2445 H2421 0.951 . S
C2445 C2446 1.366 . S
C2445 C2447 1.388 . S
C2446 C2445 1.366 . S
C2446 C2450 1.385 . S
C2447 H2422 0.951 . S
C2447 C2445 1.388 . S
C2447 C2448 1.366 . S
C2448 C2447 1.366 . S
C2448 C2449 1.414 . S
C2448 C2451 1.499 . S
C2449 H2423 0.950 . S
C2449 C2448 1.414 . S
C2449 C2450 1.374 . S
C2450 H2424 0.950 . S
C2450 C2446 1.385 . S
C2450 C2449 1.374 . S
C2451 C2448 1.499 . S
C2451 C2452 1.373 . S
C2451 C2453 1.389 . S
C2452 H2425 0.950 . S
C2452 C2438 1.377 . S
C2452 C2451 1.373 . S
C2453 C2437 1.377 . S
C2453 C2451 1.389 . S
C2453 C2454 1.524 . S
C2454 C2453 1.524 . S
C2454 C2455 1.397 . S
C2454 C2459 1.363 . S
C2455 H2426 0.950 . S
C2455 C2454 1.397 . S
C2455 C2456 1.334 . S
C2456 H2427 0.950 . S
C2456 C2455 1.334 . S
C2456 C2457 1.287 . S
C2457 C2456 1.287 . S
C2457 C2458 1.524 . S
C2457 H2460 0.999 . S
C2458 H2428 0.950 . S
C2458 C2457 1.524 . S
C2458 C2459 1.415 . S
C2459 H2429 0.950 . S
C2459 C2454 1.363 . S
C2459 C2458 1.415 . S
H2460 C2457 0.999 . S
H2461 C2442 0.913 . S
H2462 C2480 0.951 . S
H2463 C2482 0.951 . S
H2464 C2484 0.950 . S
H2465 C2485 0.950 . S
H2466 C2487 0.950 . S
H2467 C2490 0.950 . S
H2468 C2491 0.950 . S
H2469 C2493 0.950 . S
H2470 C2494 0.950 . S
H2471 C2495 0.951 . S
H2472 C2497 0.951 . S
H2473 C2499 0.950 . S
H2474 C2500 0.950 . S
H2475 C2502 0.950 . S
H2476 C2505 0.950 . S
H2477 C2506 0.950 . S
H2478 C2508 0.950 . S
H2479 C2509 0.950 . S
C2480 H2462 0.951 . S
C2480 C2481 1.366 . S
C2480 C2482 1.388 . S
C2481 C2480 1.366 . S
C2481 C2485 1.385 . S
C2482 H2463 0.951 . S
C2482 C2480 1.388 . S
C2482 C2483 1.366 . S
C2483 C2482 1.366 . S
C2483 C2484 1.414 . S
C2483 C2486 1.499 . S
C2484 H2464 0.950 . S
C2484 C2483 1.414 . S
C2484 C2485 1.374 . S
C2485 H2465 0.950 . S
C2485 C2481 1.385 . S
C2485 C2484 1.374 . S
C2486 C2483 1.499 . S
C2486 C2487 1.373 . S
C2486 C2488 1.389 . S
C2487 H2466 0.950 . S
C2487 C2486 1.373 . S
C2487 C2503 1.377 . S
C2488 C2486 1.389 . S
C2488 C2489 1.524 . S
C2488 C2502 1.377 . S
C2489 C2488 1.524 . S
C2489 C2490 1.397 . S
C2489 C2494 1.363 . S
C2490 H2467 0.950 . S
C2490 C2489 1.397 . S
C2490 C2491 1.334 . S
C2491 H2468 0.950 . S
C2491 C2490 1.334 . S
C2491 C2492 1.287 . S
C2492 C2491 1.287 . S
C2492 C2493 1.524 . S
C2492 H2511 0.913 . S
C2493 H2469 0.950 . S
C2493 C2492 1.524 . S
C2493 C2494 1.415 . S
C2494 H2470 0.950 . S
C2494 C2489 1.363 . S
C2494 C2493 1.415 . S
C2495 H2471 0.951 . S
C2495 C2496 1.366 . S
C2495 C2497 1.388 . S
C2496 C2495 1.366 . S
C2496 C2500 1.385 . S
C2497 H2472 0.951 . S
C2497 C2495 1.388 . S
C2497 C2498 1.366 . S
C2498 C2497 1.366 . S
C2498 C2499 1.414 . S
C2498 C2501 1.499 . S
C2499 H2473 0.950 . S
C2499 C2498 1.414 . S
C2499 C2500 1.374 . S
C2500 H2474 0.950 . S
C2500 C2496 1.385 . S
C2500 C2499 1.374 . S
C2501 C2498 1.499 . S
C2501 C2502 1.373 . S
C2501 C2503 1.389 . S
C2502 H2475 0.950 . S
C2502 C2488 1.377 . S
C2502 C2501 1.373 . S
C2503 C2487 1.377 . S
C2503 C2501 1.389 . S
C2503 C2504 1.524 . S
C2504 C2503 1.524 . S
C2504 C2505 1.397 . S
C2504 C2509 1.363 . S
C2505 H2476 0.950 . S
C2505 C2504 1.397 . S
C2505 C2506 1.334 . S
C2506 H2477 0.950 . S
C2506 C2505 1.334 . S
C2506 C2507 1.287 . S
C2507 C2506 1.287 . S
C2507 C2508 1.524 . S
C2507 H2510 0.999 . S
C2508 H2478 0.950 . S
C2508 C2507 1.524 . S
C2508 C2509 1.415 . S
C2509 H2479 0.950 . S
C2509 C2504 1.363 . S
C2509 C2508 1.415 . S
H2510 C2507 0.999 . S
H2511 C2492 0.913 . S
H2512 C2530 0.951 . S
H2513 C2532 0.951 . S
H2514 C2534 0.950 . S
H2515 C2535 0.950 . S
H2516 C2537 0.950 . S
H2517 C2540 0.950 . S
H2518 C2541 0.950 . S
H2519 C2543 0.950 . S
H2520 C2544 0.950 . S
H2521 C2545 0.951 . S
H2522 C2547 0.951 . S
H2523 C2549 0.950 . S
H2524 C2550 0.950 . S
H2525 C2552 0.950 . S
H2526 C2555 0.950 . S
H2527 C2556 0.950 . S
H2528 C2558 0.950 . S
H2529 C2559 0.950 . S
C2530 H2512 0.951 . S
C2530 C2531 1.366 . S
C2530 C2532 1.388 . S
C2531 C2530 1.366 . S
C2531 C2535 1.385 . S
C2532 H2513 0.951 . S
C2532 C2530 1.388 . S
C2532 C2533 1.366 . S
C2533 C2532 1.366 . S
C2533 C2534 1.414 . S
C2533 C2536 1.499 . S
C2534 H2514 0.950 . S
C2534 C2533 1.414 . S
C2534 C2535 1.374 . S
C2535 H2515 0.950 . S
C2535 C2531 1.385 . S
C2535 C2534 1.374 . S
C2536 C2533 1.499 . S
C2536 C2537 1.373 . S
C2536 C2538 1.389 . S
C2537 H2516 0.950 . S
C2537 C2536 1.373 . S
C2537 C2553 1.377 . S
C2538 C2536 1.389 . S
C2538 C2539 1.524 . S
C2538 C2552 1.377 . S
C2539 C2538 1.524 . S
C2539 C2540 1.397 . S
C2539 C2544 1.363 . S
C2540 H2517 0.950 . S
C2540 C2539 1.397 . S
C2540 C2541 1.334 . S
C2541 H2518 0.950 . S
C2541 C2540 1.334 . S
C2541 C2542 1.287 . S
C2542 C2541 1.287 . S
C2542 C2543 1.524 . S
C2542 H2561 0.913 . S
C2543 H2519 0.950 . S
C2543 C2542 1.524 . S
C2543 C2544 1.415 . S
C2544 H2520 0.950 . S
C2544 C2539 1.363 . S
C2544 C2543 1.415 . S
C2545 H2521 0.951 . S
C2545 C2546 1.366 . S
C2545 C2547 1.388 . S
C2546 C2545 1.366 . S
C2546 C2550 1.385 . S
C2547 H2522 0.951 . S
C2547 C2545 1.388 . S
C2547 C2548 1.366 . S
C2548 C2547 1.366 . S
C2548 C2549 1.414 . S
C2548 C2551 1.499 . S
C2549 H2523 0.950 . S
C2549 C2548 1.414 . S
C2549 C2550 1.374 . S
C2550 H2524 0.950 . S
C2550 C2546 1.385 . S
C2550 C2549 1.374 . S
C2551 C2548 1.499 . S
C2551 C2552 1.373 . S
C2551 C2553 1.389 . S
C2552 H2525 0.950 . S
C2552 C2538 1.377 . S
C2552 C2551 1.373 . S
C2553 C2537 1.377 . S
C2553 C2551 1.389 . S
C2553 C2554 1.524 . S
C2554 C2553 1.524 . S
C2554 C2555 1.397 . S
C2554 C2559 1.363 . S
C2555 H2526 0.950 . S
C2555 C2554 1.397 . S
C2555 C2556 1.334 . S
C2556 H2527 0.950 . S
C2556 C2555 1.334 . S
C2556 C2557 1.287 . S
C2557 C2556 1.287 . S
C2557 C2558 1.524 . S
C2557 H2560 0.999 . S
C2558 H2528 0.950 . S
C2558 C2557 1.524 . S
C2558 C2559 1.415 . S
C2559 H2529 0.950 . S
C2559 C2554 1.363 . S
C2559 C2558 1.415 . S
H2560 C2557 0.999 . S
H2561 C2542 0.913 . S
H2562 C2580 0.951 . S
H2563 C2582 0.951 . S
H2564 C2584 0.950 . S
H2565 C2585 0.950 . S
H2566 C2587 0.950 . S
H2567 C2590 0.950 . S
H2568 C2591 0.950 . S
H2569 C2593 0.950 . S
H2570 C2594 0.950 . S
H2571 C2595 0.951 . S
H2572 C2597 0.951 . S
H2573 C2599 0.950 . S
H2574 C2600 0.950 . S
H2575 C2602 0.950 . S
H2576 C2605 0.950 . S
H2577 C2606 0.950 . S
H2578 C2608 0.950 . S
H2579 C2609 0.950 . S
C2580 H2562 0.951 . S
C2580 C2581 1.366 . S
C2580 C2582 1.388 . S
C2581 C2580 1.366 . S
C2581 C2585 1.385 . S
C2582 H2563 0.951 . S
C2582 C2580 1.388 . S
C2582 C2583 1.366 . S
C2583 C2582 1.366 . S
C2583 C2584 1.414 . S
C2583 C2586 1.499 . S
C2584 H2564 0.950 . S
C2584 C2583 1.414 . S
C2584 C2585 1.374 . S
C2585 H2565 0.950 . S
C2585 C2581 1.385 . S
C2585 C2584 1.374 . S
C2586 C2583 1.499 . S
C2586 C2587 1.373 . S
C2586 C2588 1.389 . S
C2587 H2566 0.950 . S
C2587 C2586 1.373 . S
C2587 C2603 1.377 . S
C2588 C2586 1.389 . S
C2588 C2589 1.524 . S
C2588 C2602 1.377 . S
C2589 C2588 1.524 . S
C2589 C2590 1.397 . S
C2589 C2594 1.363 . S
C2590 H2567 0.950 . S
C2590 C2589 1.397 . S
C2590 C2591 1.334 . S
C2591 H2568 0.950 . S
C2591 C2590 1.334 . S
C2591 C2592 1.287 . S
C2592 C2591 1.287 . S
C2592 C2593 1.524 . S
C2592 H2611 0.913 . S
C2593 H2569 0.950 . S
C2593 C2592 1.524 . S
C2593 C2594 1.415 . S
C2594 H2570 0.950 . S
C2594 C2589 1.363 . S
C2594 C2593 1.415 . S
C2595 H2571 0.951 . S
C2595 C2596 1.366 . S
C2595 C2597 1.388 . S
C2596 C2595 1.366 . S
C2596 C2600 1.385 . S
C2597 H2572 0.951 . S
C2597 C2595 1.388 . S
C2597 C2598 1.366 . S
C2598 C2597 1.366 . S
C2598 C2599 1.414 . S
C2598 C2601 1.499 . S
C2599 H2573 0.950 . S
C2599 C2598 1.414 . S
C2599 C2600 1.374 . S
C2600 H2574 0.950 . S
C2600 C2596 1.385 . S
C2600 C2599 1.374 . S
C2601 C2598 1.499 . S
C2601 C2602 1.373 . S
C2601 C2603 1.389 . S
C2602 H2575 0.950 . S
C2602 C2588 1.377 . S
C2602 C2601 1.373 . S
C2603 C2587 1.377 . S
C2603 C2601 1.389 . S
C2603 C2604 1.524 . S
C2604 C2603 1.524 . S
C2604 C2605 1.397 . S
C2604 C2609 1.363 . S
C2605 H2576 0.950 . S
C2605 C2604 1.397 . S
C2605 C2606 1.334 . S
C2606 H2577 0.950 . S
C2606 C2605 1.334 . S
C2606 C2607 1.287 . S
C2607 C2606 1.287 . S
C2607 C2608 1.524 . S
C2607 H2610 0.999 . S
C2608 H2578 0.950 . S
C2608 C2607 1.524 . S
C2608 C2609 1.415 . S
C2609 H2579 0.950 . S
C2609 C2604 1.363 . S
C2609 C2608 1.415 . S
H2610 C2607 0.999 . S
H2611 C2592 0.913 . S
H2612 C2630 0.951 . S
H2613 C2632 0.951 . S
H2614 C2634 0.950 . S
H2615 C2635 0.950 . S
H2616 C2637 0.950 . S
H2617 C2640 0.950 . S
H2618 C2641 0.950 . S
H2619 C2643 0.950 . S
H2620 C2644 0.950 . S
H2621 C2645 0.951 . S
H2622 C2647 0.951 . S
H2623 C2649 0.950 . S
H2624 C2650 0.950 1_455 S
H2625 C2652 0.950 . S
H2626 C2655 0.950 . S
H2627 C2656 0.950 . S
H2628 C2658 0.950 . S
H2629 C2659 0.950 . S
C2630 H2612 0.951 . S
C2630 C2631 1.366 . S
C2630 C2632 1.388 . S
C2631 C2630 1.366 . S
C2631 C2635 1.385 . S
C2632 H2613 0.951 . S
C2632 C2630 1.388 . S
C2632 C2633 1.366 . S
C2633 C2632 1.366 . S
C2633 C2634 1.414 . S
C2633 C2636 1.499 . S
C2634 H2614 0.950 . S
C2634 C2633 1.414 . S
C2634 C2635 1.374 . S
C2635 H2615 0.950 . S
C2635 C2631 1.385 . S
C2635 C2634 1.374 . S
C2636 C2633 1.499 . S
C2636 C2637 1.373 . S
C2636 C2638 1.389 . S
C2637 H2616 0.950 . S
C2637 C2636 1.373 . S
C2637 C2653 1.377 . S
C2638 C2636 1.389 . S
C2638 C2639 1.524 . S
C2638 C2652 1.377 . S
C2639 C2638 1.524 . S
C2639 C2640 1.397 . S
C2639 C2644 1.363 . S
C2640 H2617 0.950 . S
C2640 C2639 1.397 . S
C2640 C2641 1.334 . S
C2641 H2618 0.950 . S
C2641 C2640 1.334 . S
C2641 C2642 1.287 . S
C2642 C2641 1.287 . S
C2642 C2643 1.524 . S
C2642 H2661 0.913 . S
C2643 H2619 0.950 . S
C2643 C2642 1.524 . S
C2643 C2644 1.415 . S
C2644 H2620 0.950 . S
C2644 C2639 1.363 . S
C2644 C2643 1.415 . S
C2645 H2621 0.951 . S
C2645 C2646 1.366 . S
C2645 C2647 1.388 . S
C2646 C2645 1.366 . S
C2646 C2650 1.385 . S
C2647 H2622 0.951 . S
C2647 C2645 1.388 . S
C2647 C2648 1.366 . S
C2648 C2647 1.366 . S
C2648 C2649 1.414 . S
C2648 C2651 1.499 . S
C2649 H2623 0.950 . S
C2649 C2648 1.414 . S
C2649 C2650 1.374 . S
C2650 H2624 0.950 1_655 S
C2650 C2646 1.385 . S
C2650 C2649 1.374 . S
C2651 C2648 1.499 . S
C2651 C2652 1.373 . S
C2651 C2653 1.389 . S
C2652 H2625 0.950 . S
C2652 C2638 1.377 . S
C2652 C2651 1.373 . S
C2653 C2637 1.377 . S
C2653 C2651 1.389 . S
C2653 C2654 1.524 . S
C2654 C2653 1.524 . S
C2654 C2655 1.397 . S
C2654 C2659 1.363 . S
C2655 H2626 0.950 . S
C2655 C2654 1.397 . S
C2655 C2656 1.334 . S
C2656 H2627 0.950 . S
C2656 C2655 1.334 . S
C2656 C2657 1.287 . S
C2657 C2656 1.287 . S
C2657 C2658 1.524 . S
C2657 H2660 0.999 . S
C2658 H2628 0.950 . S
C2658 C2657 1.524 . S
C2658 C2659 1.415 . S
C2659 H2629 0.950 . S
C2659 C2654 1.363 . S
C2659 C2658 1.415 . S
H2660 C2657 0.999 . S
H2661 C2642 0.913 . S
H2662 C2680 0.951 . S
H2663 C2682 0.951 . S
H2664 C2684 0.950 . S
H2665 C2685 0.950 . S
H2666 C2687 0.950 . S
H2667 C2690 0.950 . S
H2668 C2691 0.950 . S
H2669 C2693 0.950 . S
H2670 C2694 0.950 . S
H2671 C2695 0.951 . S
H2672 C2697 0.951 . S
H2673 C2699 0.950 . S
H2674 C2700 0.950 . S
H2675 C2702 0.950 . S
H2676 C2705 0.950 . S
H2677 C2706 0.950 . S
H2678 C2708 0.950 . S
H2679 C2709 0.950 . S
C2680 H2662 0.951 . S
C2680 C2681 1.366 . S
C2680 C2682 1.388 . S
C2681 C2680 1.366 . S
C2681 C2685 1.385 . S
C2682 H2663 0.951 . S
C2682 C2680 1.388 . S
C2682 C2683 1.366 . S
C2683 C2682 1.366 . S
C2683 C2684 1.414 . S
C2683 C2686 1.499 . S
C2684 H2664 0.950 . S
C2684 C2683 1.414 . S
C2684 C2685 1.374 . S
C2685 H2665 0.950 . S
C2685 C2681 1.385 . S
C2685 C2684 1.374 . S
C2686 C2683 1.499 . S
C2686 C2687 1.373 . S
C2686 C2688 1.389 . S
C2687 H2666 0.950 . S
C2687 C2686 1.373 . S
C2687 C2703 1.377 . S
C2688 C2686 1.389 . S
C2688 C2689 1.524 . S
C2688 C2702 1.377 . S
C2689 C2688 1.524 . S
C2689 C2690 1.397 . S
C2689 C2694 1.363 . S
C2690 H2667 0.950 . S
C2690 C2689 1.397 . S
C2690 C2691 1.334 . S
C2691 H2668 0.950 . S
C2691 C2690 1.334 . S
C2691 C2692 1.287 . S
C2692 C2691 1.287 . S
C2692 C2693 1.524 . S
C2692 H2711 0.913 . S
C2693 H2669 0.950 . S
C2693 C2692 1.524 . S
C2693 C2694 1.415 . S
C2694 H2670 0.950 . S
C2694 C2689 1.363 . S
C2694 C2693 1.415 . S
C2695 H2671 0.951 . S
C2695 C2696 1.366 . S
C2695 C2697 1.388 . S
C2696 C2695 1.366 . S
C2696 C2700 1.385 . S
C2697 H2672 0.951 . S
C2697 C2695 1.388 . S
C2697 C2698 1.366 . S
C2698 C2697 1.366 . S
C2698 C2699 1.414 . S
C2698 C2701 1.499 . S
C2699 H2673 0.950 . S
C2699 C2698 1.414 . S
C2699 C2700 1.374 . S
C2700 H2674 0.950 . S
C2700 C2696 1.385 . S
C2700 C2699 1.374 . S
C2701 C2698 1.499 . S
C2701 C2702 1.373 . S
C2701 C2703 1.389 . S
C2702 H2675 0.950 . S
C2702 C2688 1.377 . S
C2702 C2701 1.373 . S
C2703 C2687 1.377 . S
C2703 C2701 1.389 . S
C2703 C2704 1.524 . S
C2704 C2703 1.524 . S
C2704 C2705 1.397 . S
C2704 C2709 1.363 . S
C2705 H2676 0.950 . S
C2705 C2704 1.397 . S
C2705 C2706 1.334 . S
C2706 H2677 0.950 . S
C2706 C2705 1.334 . S
C2706 C2707 1.287 . S
C2707 C2706 1.287 . S
C2707 C2708 1.524 . S
C2707 H2710 0.999 . S
C2708 H2678 0.950 . S
C2708 C2707 1.524 . S
C2708 C2709 1.415 . S
C2709 H2679 0.950 . S
C2709 C2704 1.363 . S
C2709 C2708 1.415 . S
H2710 C2707 0.999 . S
H2711 C2692 0.913 . S
H2712 C2730 0.951 . S
H2713 C2732 0.951 . S
H2714 C2734 0.950 . S
H2715 C2735 0.950 . S
H2716 C2737 0.950 . S
H2717 C2740 0.950 . S
H2718 C2741 0.950 . S
H2719 C2743 0.950 . S
H2720 C2744 0.950 . S
H2721 C2745 0.951 . S
H2722 C2747 0.951 . S
H2723 C2749 0.950 . S
H2724 C2750 0.950 . S
H2725 C2752 0.950 . S
H2726 C2755 0.950 . S
H2727 C2756 0.950 . S
H2728 C2758 0.950 . S
H2729 C2759 0.950 . S
C2730 H2712 0.951 . S
C2730 C2731 1.366 . S
C2730 C2732 1.388 . S
C2731 C2730 1.366 . S
C2731 C2735 1.385 . S
C2732 H2713 0.951 . S
C2732 C2730 1.388 . S
C2732 C2733 1.366 . S
C2733 C2732 1.366 . S
C2733 C2734 1.414 . S
C2733 C2736 1.499 . S
C2734 H2714 0.950 . S
C2734 C2733 1.414 . S
C2734 C2735 1.374 . S
C2735 H2715 0.950 . S
C2735 C2731 1.385 . S
C2735 C2734 1.374 . S
C2736 C2733 1.499 . S
C2736 C2737 1.373 . S
C2736 C2738 1.389 . S
C2737 H2716 0.950 . S
C2737 C2736 1.373 . S
C2737 C2753 1.377 . S
C2738 C2736 1.389 . S
C2738 C2739 1.524 . S
C2738 C2752 1.377 . S
C2739 C2738 1.524 . S
C2739 C2740 1.397 . S
C2739 C2744 1.363 . S
C2740 H2717 0.950 . S
C2740 C2739 1.397 . S
C2740 C2741 1.334 . S
C2741 H2718 0.950 . S
C2741 C2740 1.334 . S
C2741 C2742 1.287 . S
C2742 C2741 1.287 . S
C2742 C2743 1.524 . S
C2742 H2761 0.913 . S
C2743 H2719 0.950 . S
C2743 C2742 1.524 . S
C2743 C2744 1.415 . S
C2744 H2720 0.950 . S
C2744 C2739 1.363 . S
C2744 C2743 1.415 . S
C2745 H2721 0.951 . S
C2745 C2746 1.366 . S
C2745 C2747 1.388 . S
C2746 C2745 1.366 . S
C2746 C2750 1.385 . S
C2747 H2722 0.951 . S
C2747 C2745 1.388 . S
C2747 C2748 1.366 . S
C2748 C2747 1.366 . S
C2748 C2749 1.414 . S
C2748 C2751 1.499 . S
C2749 H2723 0.950 . S
C2749 C2748 1.414 . S
C2749 C2750 1.374 . S
C2750 H2724 0.950 . S
C2750 C2746 1.385 . S
C2750 C2749 1.374 . S
C2751 C2748 1.499 . S
C2751 C2752 1.373 . S
C2751 C2753 1.389 . S
C2752 H2725 0.950 . S
C2752 C2738 1.377 . S
C2752 C2751 1.373 . S
C2753 C2737 1.377 . S
C2753 C2751 1.389 . S
C2753 C2754 1.524 . S
C2754 C2753 1.524 . S
C2754 C2755 1.397 . S
C2754 C2759 1.363 . S
C2755 H2726 0.950 . S
C2755 C2754 1.397 . S
C2755 C2756 1.334 . S
C2756 H2727 0.950 . S
C2756 C2755 1.334 . S
C2756 C2757 1.287 . S
C2757 C2756 1.287 . S
C2757 C2758 1.524 . S
C2757 H2760 0.999 . S
C2758 H2728 0.950 . S
C2758 C2757 1.524 . S
C2758 C2759 1.415 . S
C2759 H2729 0.950 . S
C2759 C2754 1.363 . S
C2759 C2758 1.415 . S
H2760 C2757 0.999 . S
H2761 C2742 0.913 . S
H2762 C2780 0.951 . S
H2763 C2782 0.951 . S
H2764 C2784 0.950 . S
H2765 C2785 0.950 . S
H2766 C2787 0.950 . S
H2767 C2790 0.950 . S
H2768 C2791 0.950 . S
H2769 C2793 0.950 . S
H2770 C2794 0.950 . S
H2771 C2795 0.951 . S
H2772 C2797 0.951 . S
H2773 C2799 0.950 . S
H2774 C2800 0.950 . S
H2775 C2802 0.950 . S
H2776 C2805 0.950 . S
H2777 C2806 0.950 . S
H2778 C2808 0.950 . S
H2779 C2809 0.950 . S
C2780 H2762 0.951 . S
C2780 C2781 1.366 . S
C2780 C2782 1.388 . S
C2781 C2780 1.366 . S
C2781 C2785 1.385 . S
C2782 H2763 0.951 . S
C2782 C2780 1.388 . S
C2782 C2783 1.366 . S
C2783 C2782 1.366 . S
C2783 C2784 1.414 . S
C2783 C2786 1.499 . S
C2784 H2764 0.950 . S
C2784 C2783 1.414 . S
C2784 C2785 1.374 . S
C2785 H2765 0.950 . S
C2785 C2781 1.385 . S
C2785 C2784 1.374 . S
C2786 C2783 1.499 . S
C2786 C2787 1.373 . S
C2786 C2788 1.389 . S
C2787 H2766 0.950 . S
C2787 C2786 1.373 . S
C2787 C2803 1.377 . S
C2788 C2786 1.389 . S
C2788 C2789 1.524 . S
C2788 C2802 1.377 . S
C2789 C2788 1.524 . S
C2789 C2790 1.397 . S
C2789 C2794 1.363 . S
C2790 H2767 0.950 . S
C2790 C2789 1.397 . S
C2790 C2791 1.334 . S
C2791 H2768 0.950 . S
C2791 C2790 1.334 . S
C2791 C2792 1.287 . S
C2792 C2791 1.287 . S
C2792 C2793 1.524 . S
C2792 H2811 0.913 . S
C2793 H2769 0.950 . S
C2793 C2792 1.524 . S
C2793 C2794 1.415 . S
C2794 H2770 0.950 . S
C2794 C2789 1.363 . S
C2794 C2793 1.415 . S
C2795 H2771 0.951 . S
C2795 C2796 1.366 . S
C2795 C2797 1.388 . S
C2796 C2795 1.366 . S
C2796 C2800 1.385 . S
C2797 H2772 0.951 . S
C2797 C2795 1.388 . S
C2797 C2798 1.366 . S
C2798 C2797 1.366 . S
C2798 C2799 1.414 . S
C2798 C2801 1.499 . S
C2799 H2773 0.950 . S
C2799 C2798 1.414 . S
C2799 C2800 1.374 . S
C2800 H2774 0.950 . S
C2800 C2796 1.385 . S
C2800 C2799 1.374 . S
C2801 C2798 1.499 . S
C2801 C2802 1.373 . S
C2801 C2803 1.389 . S
C2802 H2775 0.950 . S
C2802 C2788 1.377 . S
C2802 C2801 1.373 . S
C2803 C2787 1.377 . S
C2803 C2801 1.389 . S
C2803 C2804 1.524 . S
C2804 C2803 1.524 . S
C2804 C2805 1.397 . S
C2804 C2809 1.363 . S
C2805 H2776 0.950 . S
C2805 C2804 1.397 . S
C2805 C2806 1.334 . S
C2806 H2777 0.950 . S
C2806 C2805 1.334 . S
C2806 C2807 1.287 . S
C2807 C2806 1.287 . S
C2807 C2808 1.524 . S
C2807 H2810 0.999 . S
C2808 H2778 0.950 . S
C2808 C2807 1.524 . S
C2808 C2809 1.415 . S
C2809 H2779 0.950 . S
C2809 C2804 1.363 . S
C2809 C2808 1.415 . S
H2810 C2807 0.999 . S
H2811 C2792 0.913 . S
H2812 C2830 0.951 . S
H2813 C2832 0.951 . S
H2814 C2834 0.950 . S
H2815 C2835 0.950 . S
H2816 C2837 0.950 . S
H2817 C2840 0.950 . S
H2818 C2841 0.950 . S
H2819 C2843 0.950 . S
H2820 C2844 0.950 . S
H2821 C2845 0.951 . S
H2822 C2847 0.951 . S
H2823 C2849 0.950 . S
H2824 C2850 0.950 . S
H2825 C2852 0.950 . S
H2826 C2855 0.950 . S
H2827 C2856 0.950 . S
H2828 C2858 0.950 . S
H2829 C2859 0.950 . S
C2830 H2812 0.951 . S
C2830 C2831 1.366 . S
C2830 C2832 1.388 . S
C2831 C2830 1.366 . S
C2831 C2835 1.385 . S
C2832 H2813 0.951 . S
C2832 C2830 1.388 . S
C2832 C2833 1.366 . S
C2833 C2832 1.366 . S
C2833 C2834 1.414 . S
C2833 C2836 1.499 . S
C2834 H2814 0.950 . S
C2834 C2833 1.414 . S
C2834 C2835 1.374 . S
C2835 H2815 0.950 . S
C2835 C2831 1.385 . S
C2835 C2834 1.374 . S
C2836 C2833 1.499 . S
C2836 C2837 1.373 . S
C2836 C2838 1.389 . S
C2837 H2816 0.950 . S
C2837 C2836 1.373 . S
C2837 C2853 1.377 . S
C2838 C2836 1.389 . S
C2838 C2839 1.524 . S
C2838 C2852 1.377 . S
C2839 C2838 1.524 . S
C2839 C2840 1.397 . S
C2839 C2844 1.363 . S
C2840 H2817 0.950 . S
C2840 C2839 1.397 . S
C2840 C2841 1.334 . S
C2841 H2818 0.950 . S
C2841 C2840 1.334 . S
C2841 C2842 1.287 . S
C2842 C2841 1.287 . S
C2842 C2843 1.524 . S
C2842 H2861 0.913 . S
C2843 H2819 0.950 . S
C2843 C2842 1.524 . S
C2843 C2844 1.415 . S
C2844 H2820 0.950 . S
C2844 C2839 1.363 . S
C2844 C2843 1.415 . S
C2845 H2821 0.951 . S
C2845 C2846 1.366 . S
C2845 C2847 1.388 . S
C2846 C2845 1.366 . S
C2846 C2850 1.385 . S
C2847 H2822 0.951 . S
C2847 C2845 1.388 . S
C2847 C2848 1.366 . S
C2848 C2847 1.366 . S
C2848 C2849 1.414 . S
C2848 C2851 1.499 . S
C2849 H2823 0.950 . S
C2849 C2848 1.414 . S
C2849 C2850 1.374 . S
C2850 H2824 0.950 . S
C2850 C2846 1.385 . S
C2850 C2849 1.374 . S
C2851 C2848 1.499 . S
C2851 C2852 1.373 . S
C2851 C2853 1.389 . S
C2852 H2825 0.950 . S
C2852 C2838 1.377 . S
C2852 C2851 1.373 . S
C2853 C2837 1.377 . S
C2853 C2851 1.389 . S
C2853 C2854 1.524 . S
C2854 C2853 1.524 . S
C2854 C2855 1.397 . S
C2854 C2859 1.363 . S
C2855 H2826 0.950 . S
C2855 C2854 1.397 . S
C2855 C2856 1.334 . S
C2856 H2827 0.950 . S
C2856 C2855 1.334 . S
C2856 C2857 1.287 . S
C2857 C2856 1.287 . S
C2857 C2858 1.524 . S
C2857 H2860 0.999 . S
C2858 H2828 0.950 . S
C2858 C2857 1.524 . S
C2858 C2859 1.415 . S
C2859 H2829 0.950 . S
C2859 C2854 1.363 . S
C2859 C2858 1.415 . S
H2860 C2857 0.999 . S
H2861 C2842 0.913 . S
H2862 C2880 0.951 . S
H2863 C2882 0.951 . S
H2864 C2884 0.950 . S
H2865 C2885 0.950 . S
H2866 C2887 0.950 . S
H2867 C2890 0.950 . S
H2868 C2891 0.950 . S
H2869 C2893 0.950 . S
H2870 C2894 0.950 . S
H2871 C2895 0.951 . S
H2872 C2897 0.951 . S
H2873 C2899 0.950 . S
H2874 C2900 0.950 . S
H2875 C2902 0.950 . S
H2876 C2905 0.950 . S
H2877 C2906 0.950 . S
H2878 C2908 0.950 . S
H2879 C2909 0.950 . S
C2880 H2862 0.951 . S
C2880 C2881 1.366 . S
C2880 C2882 1.388 . S
C2881 C2880 1.366 . S
C2881 C2885 1.385 . S
C2882 H2863 0.951 . S
C2882 C2880 1.388 . S
C2882 C2883 1.366 . S
C2883 C2882 1.366 . S
C2883 C2884 1.414 . S
C2883 C2886 1.499 . S
C2884 H2864 0.950 . S
C2884 C2883 1.414 . S
C2884 C2885 1.374 . S
C2885 H2865 0.950 . S
C2885 C2881 1.385 . S
C2885 C2884 1.374 . S
C2886 C2883 1.499 . S
C2886 C2887 1.373 . S
C2886 C2888 1.389 . S
C2887 H2866 0.950 . S
C2887 C2886 1.373 . S
C2887 C2903 1.377 . S
C2888 C2886 1.389 . S
C2888 C2889 1.524 . S
C2888 C2902 1.377 . S
C2889 C2888 1.524 . S
C2889 C2890 1.397 . S
C2889 C2894 1.363 . S
C2890 H2867 0.950 . S
C2890 C2889 1.397 . S
C2890 C2891 1.334 . S
C2891 H2868 0.950 . S
C2891 C2890 1.334 . S
C2891 C2892 1.287 . S
C2892 C2891 1.287 . S
C2892 C2893 1.524 . S
C2892 H2911 0.913 . S
C2893 H2869 0.950 . S
C2893 C2892 1.524 . S
C2893 C2894 1.415 . S
C2894 H2870 0.950 . S
C2894 C2889 1.363 . S
C2894 C2893 1.415 . S
C2895 H2871 0.951 . S
C2895 C2896 1.366 . S
C2895 C2897 1.388 . S
C2896 C2895 1.366 . S
C2896 C2900 1.385 . S
C2897 H2872 0.951 . S
C2897 C2895 1.388 . S
C2897 C2898 1.366 . S
C2898 C2897 1.366 . S
C2898 C2899 1.414 . S
C2898 C2901 1.499 . S
C2899 H2873 0.950 . S
C2899 C2898 1.414 . S
C2899 C2900 1.374 . S
C2900 H2874 0.950 . S
C2900 C2896 1.385 . S
C2900 C2899 1.374 . S
C2901 C2898 1.499 . S
C2901 C2902 1.373 . S
C2901 C2903 1.389 . S
C2902 H2875 0.950 . S
C2902 C2888 1.377 . S
C2902 C2901 1.373 . S
C2903 C2887 1.377 . S
C2903 C2901 1.389 . S
C2903 C2904 1.524 . S
C2904 C2903 1.524 . S
C2904 C2905 1.397 . S
C2904 C2909 1.363 . S
C2905 H2876 0.950 . S
C2905 C2904 1.397 . S
C2905 C2906 1.334 . S
C2906 H2877 0.950 . S
C2906 C2905 1.334 . S
C2906 C2907 1.287 . S
C2907 C2906 1.287 . S
C2907 C2908 1.524 . S
C2907 H2910 0.999 . S
C2908 H2878 0.950 . S
C2908 C2907 1.524 . S
C2908 C2909 1.415 . S
C2909 H2879 0.950 . S
C2909 C2904 1.363 . S
C2909 C2908 1.415 . S
H2910 C2907 0.999 . S
H2911 C2892 0.913 . S
C546 C337 2.564 . S
C531 C18 2.588 . S
C596 C342 2.252 . S
C581 C59 2.288 . S
C646 C343 1.264 . S
C631 C98 1.277 . S
C681 C125 0.818 . S
C696 C347 0.810 . S
C731 C169 2.212 . S
C746 C350 2.163 . S
C796 C351 1.271 . S
C781 C218 1.291 . S
C831 C255 0.952 . S
C846 C328 0.940 . S
C881 C288 2.591 . S
C896 C344 2.570 . S
C946 C382 0.764 . S
C931 C15 0.762 . S
C981 C45 0.714 . S
C996 C408 0.913 . S
C1046 C360 0.394 . S
C1031 C95 0.113 . S
C1096 C415 0.950 . S
C1081 C128 0.967 . S
C1131 C178 0.977 . S
C1146 C369 0.964 . S
C1196 C411 1.444 1_556 S
C1181 C215 1.478 . S
C1231 C249 2.224 . S
C1246 C375 2.213 . S
C1281 C299 2.006 . S
C1296 C406 2.007 . S
C1331 C9 2.464 . S
C1346 C414 2.411 . S
C1381 C175 0.314 . S
C1396 C401 0.461 1_556 S
C1446 C379 1.456 . S
C1431 C209 1.499 . S
C1496 C407 1.575 . S
C1481 C258 1.619 . S
C1531 C285 1.132 . S
C1546 C374 1.096 . S
C1581 C89 3.040 . S
C1596 C392 3.021 . S
C1646 C383 2.653 . S
C1631 C139 2.649 . S
C1681 C48 1.588 . S
C1696 C376 1.572 . S
C1731 C298 2.556 . S
C1746 C438 2.490 . S
C1781 C179 2.181 . S
C1796 C433 2.181 . S
C1846 C447 1.240 . S
C1831 C208 1.256 . S
C1896 C424 0.914 . S
C1881 C245 0.924 . S
C1931 C49 2.256 . S
C1946 C440 2.263 . S
C1996 C439 1.243 . S
C1981 C88 1.249 . S
C2031 C135 0.792 . S
C2046 C443 0.788 . S
C2081 C8 2.557 . S
C2096 C446 2.491 . S
C2131 C295 1.136 . S
C2146 C472 1.132 1_655 S
C2196 C488 0.301 . S
C2181 C165 0.298 . S
C2231 C219 1.507 . S
C2246 C470 1.495 . S
C2281 C248 1.641 . S
C2296 C503 1.566 . S
C2346 C479 1.583 . S
C2331 C58 1.600 . S
C2381 C99 3.085 . S
C2396 C497 3.078 . S
C2446 C475 2.621 . S
C2431 C129 2.649 . S
C2496 C510 2.497 . S
C2481 C19 2.506 . S
C2546 C502 2.033 . S
C2531 C289 2.049 . S
C2581 C55 0.692 . S
C2596 C507 0.719 . S
C2631 C85 0.114 . S
C2646 C478 0.332 . S
C2696 C511 0.979 . S
C2681 C138 0.990 . S
C2731 C5 0.774 . S
C2746 C465 0.773 . S
C2781 C205 1.506 . S
C2796 C504 1.452 . S
C2846 C456 2.243 . S
C2831 C259 2.220 . S
C2896 C471 0.966 . S
C2881 C168 0.985 . S
