# Generated by pormake.
# Topology eea, (3,6)-cn, num edge types: 1
# Building blocks:
#     Node 0, Type 0, BuildingBlock: WUSLED_clean_sbu_0, # of connection points: 3
#     Node 1, Type 0, BuildingBlock: WUSLED_clean_sbu_0, # of connection points: 3
#     Node 2, Type 0, BuildingBlock: WUSLED_clean_sbu_0, # of connection points: 3
#     Node 3, Type 0, BuildingBlock: WUSLED_clean_sbu_0, # of connection points: 3
#     Node 4, Type 0, BuildingBlock: WUSLED_clean_sbu_0, # of connection points: 3
#     Node 5, Type 0, BuildingBlock: WUSLED_clean_sbu_0, # of connection points: 3
#     Node 6, Type 0, BuildingBlock: WUSLED_clean_sbu_0, # of connection points: 3
#     Node 7, Type 0, BuildingBlock: WUSLED_clean_sbu_0, # of connection points: 3
#     Node 8, Type 0, BuildingBlock: WUSLED_clean_sbu_0, # of connection points: 3
#     Node 9, Type 0, BuildingBlock: WUSLED_clean_sbu_0, # of connection points: 3
#     Node 10, Type 0, BuildingBlock: WUSLED_clean_sbu_0, # of connection points: 3
#     Node 11, Type 0, BuildingBlock: WUSLED_clean_sbu_0, # of connection points: 3
#     Node 12, Type 0, BuildingBlock: WUSLED_clean_sbu_0, # of connection points: 3
#     Node 13, Type 0, BuildingBlock: WUSLED_clean_sbu_0, # of connection points: 3
#     Node 14, Type 0, BuildingBlock: WUSLED_clean_sbu_0, # of connection points: 3
#     Node 15, Type 0, BuildingBlock: WUSLED_clean_sbu_0, # of connection points: 3
#     Node 16, Type 0, BuildingBlock: WUSLED_clean_sbu_0, # of connection points: 3
#     Node 17, Type 0, BuildingBlock: WUSLED_clean_sbu_0, # of connection points: 3
#     Node 18, Type 1, BuildingBlock: LEVNOQ01_clean_sbu_1, # of connection points: 6
#     Node 19, Type 1, BuildingBlock: LEVNOQ01_clean_sbu_1, # of connection points: 6
#     Node 20, Type 1, BuildingBlock: LEVNOQ01_clean_sbu_1, # of connection points: 6
#     Node 21, Type 1, BuildingBlock: LEVNOQ01_clean_sbu_1, # of connection points: 6
#     Node 22, Type 1, BuildingBlock: LEVNOQ01_clean_sbu_1, # of connection points: 6
#     Node 23, Type 1, BuildingBlock: LEVNOQ01_clean_sbu_1, # of connection points: 6
#     Node 24, Type 1, BuildingBlock: LEVNOQ01_clean_sbu_1, # of connection points: 6
#     Node 25, Type 1, BuildingBlock: LEVNOQ01_clean_sbu_1, # of connection points: 6
#     Node 26, Type 1, BuildingBlock: LEVNOQ01_clean_sbu_1, # of connection points: 6
#     Edge 27, Type (0, 1), BuildingBlock: CIFDUS_clean_linker_0, # of connection points: 2
#     Edge 28, Type (0, 1), BuildingBlock: CIFDUS_clean_linker_0, # of connection points: 2
#     Edge 29, Type (0, 1), BuildingBlock: CIFDUS_clean_linker_0, # of connection points: 2
#     Edge 30, Type (0, 1), BuildingBlock: CIFDUS_clean_linker_0, # of connection points: 2
#     Edge 31, Type (0, 1), BuildingBlock: CIFDUS_clean_linker_0, # of connection points: 2
#     Edge 32, Type (0, 1), BuildingBlock: CIFDUS_clean_linker_0, # of connection points: 2
#     Edge 33, Type (0, 1), BuildingBlock: CIFDUS_clean_linker_0, # of connection points: 2
#     Edge 34, Type (0, 1), BuildingBlock: CIFDUS_clean_linker_0, # of connection points: 2
#     Edge 35, Type (0, 1), BuildingBlock: CIFDUS_clean_linker_0, # of connection points: 2
#     Edge 36, Type (0, 1), BuildingBlock: CIFDUS_clean_linker_0, # of connection points: 2
#     Edge 37, Type (0, 1), BuildingBlock: CIFDUS_clean_linker_0, # of connection points: 2
#     Edge 38, Type (0, 1), BuildingBlock: CIFDUS_clean_linker_0, # of connection points: 2
#     Edge 39, Type (0, 1), BuildingBlock: CIFDUS_clean_linker_0, # of connection points: 2
#     Edge 40, Type (0, 1), BuildingBlock: CIFDUS_clean_linker_0, # of connection points: 2
#     Edge 41, Type (0, 1), BuildingBlock: CIFDUS_clean_linker_0, # of connection points: 2
#     Edge 42, Type (0, 1), BuildingBlock: CIFDUS_clean_linker_0, # of connection points: 2
#     Edge 43, Type (0, 1), BuildingBlock: CIFDUS_clean_linker_0, # of connection points: 2
#     Edge 44, Type (0, 1), BuildingBlock: CIFDUS_clean_linker_0, # of connection points: 2
#     Edge 45, Type (0, 1), BuildingBlock: CIFDUS_clean_linker_0, # of connection points: 2
#     Edge 46, Type (0, 1), BuildingBlock: CIFDUS_clean_linker_0, # of connection points: 2
#     Edge 47, Type (0, 1), BuildingBlock: CIFDUS_clean_linker_0, # of connection points: 2
#     Edge 48, Type (0, 1), BuildingBlock: CIFDUS_clean_linker_0, # of connection points: 2
#     Edge 49, Type (0, 1), BuildingBlock: CIFDUS_clean_linker_0, # of connection points: 2
#     Edge 50, Type (0, 1), BuildingBlock: CIFDUS_clean_linker_0, # of connection points: 2
#     Edge 51, Type (0, 1), BuildingBlock: CIFDUS_clean_linker_0, # of connection points: 2
#     Edge 52, Type (0, 1), BuildingBlock: CIFDUS_clean_linker_0, # of connection points: 2
#     Edge 53, Type (0, 1), BuildingBlock: CIFDUS_clean_linker_0, # of connection points: 2
#     Edge 54, Type (0, 1), BuildingBlock: CIFDUS_clean_linker_0, # of connection points: 2
#     Edge 55, Type (0, 1), BuildingBlock: CIFDUS_clean_linker_0, # of connection points: 2
#     Edge 56, Type (0, 1), BuildingBlock: CIFDUS_clean_linker_0, # of connection points: 2
#     Edge 57, Type (0, 1), BuildingBlock: CIFDUS_clean_linker_0, # of connection points: 2
#     Edge 58, Type (0, 1), BuildingBlock: CIFDUS_clean_linker_0, # of connection points: 2
#     Edge 59, Type (0, 1), BuildingBlock: CIFDUS_clean_linker_0, # of connection points: 2
#     Edge 60, Type (0, 1), BuildingBlock: CIFDUS_clean_linker_0, # of connection points: 2
#     Edge 61, Type (0, 1), BuildingBlock: CIFDUS_clean_linker_0, # of connection points: 2
#     Edge 62, Type (0, 1), BuildingBlock: CIFDUS_clean_linker_0, # of connection points: 2
#     Edge 63, Type (0, 1), BuildingBlock: CIFDUS_clean_linker_0, # of connection points: 2
#     Edge 64, Type (0, 1), BuildingBlock: CIFDUS_clean_linker_0, # of connection points: 2
#     Edge 65, Type (0, 1), BuildingBlock: CIFDUS_clean_linker_0, # of connection points: 2
#     Edge 66, Type (0, 1), BuildingBlock: CIFDUS_clean_linker_0, # of connection points: 2
#     Edge 67, Type (0, 1), BuildingBlock: CIFDUS_clean_linker_0, # of connection points: 2
#     Edge 68, Type (0, 1), BuildingBlock: CIFDUS_clean_linker_0, # of connection points: 2
#     Edge 69, Type (0, 1), BuildingBlock: CIFDUS_clean_linker_0, # of connection points: 2
#     Edge 70, Type (0, 1), BuildingBlock: CIFDUS_clean_linker_0, # of connection points: 2
#     Edge 71, Type (0, 1), BuildingBlock: CIFDUS_clean_linker_0, # of connection points: 2
#     Edge 72, Type (0, 1), BuildingBlock: CIFDUS_clean_linker_0, # of connection points: 2
#     Edge 73, Type (0, 1), BuildingBlock: CIFDUS_clean_linker_0, # of connection points: 2
#     Edge 74, Type (0, 1), BuildingBlock: CIFDUS_clean_linker_0, # of connection points: 2
#     Edge 75, Type (0, 1), BuildingBlock: CIFDUS_clean_linker_0, # of connection points: 2
#     Edge 76, Type (0, 1), BuildingBlock: CIFDUS_clean_linker_0, # of connection points: 2
#     Edge 77, Type (0, 1), BuildingBlock: CIFDUS_clean_linker_0, # of connection points: 2
#     Edge 78, Type (0, 1), BuildingBlock: CIFDUS_clean_linker_0, # of connection points: 2
#     Edge 79, Type (0, 1), BuildingBlock: CIFDUS_clean_linker_0, # of connection points: 2
#     Edge 80, Type (0, 1), BuildingBlock: CIFDUS_clean_linker_0, # of connection points: 2
# Relax obj value: 0.092
# Max RMSD: 0.177
# Mean RMSD: 0.089
data_MOF--net-eea--node1-WUSLED_clean_sbu_0--node2-LEVNOQ01_clean_sbu_1--edge1-CIFDUS_clean_linker_0
_symmetry_space_group_name_H-M    P1
_symmetry_Int_Tables_number       1
_symmetry_cell_setting            triclinic
loop_
_symmetry_equiv_pos_as_xyz
'x, y, z'
_cell_length_a     64.656997
_cell_length_b     64.238541
_cell_length_c     64.671983
_cell_angle_alpha  89.983649
_cell_angle_beta   90.04681
_cell_angle_gamma 120.04675
loop_
_atom_site_label
_atom_site_type_symbol
_atom_site_fract_x
_atom_site_fract_y
_atom_site_fract_z
_atom_type_partial_charge
C0 C 0.20698 0.14579 0.39445 0.0
C1 C 0.22451 0.16844 0.40171 0.0
C2 C 0.20563 0.1874 0.38309 0.0
C3 C 0.22392 0.18908 0.39597 0.0
C4 C 0.18752 0.16461 0.37657 0.0
C5 C 0.18825 0.14392 0.38216 0.0
U6 U 0.23048 0.11541 0.42934 0.0
O7 O 0.21366 0.07838 0.44135 0.0
O8 O 0.24658 0.09306 0.42302 0.0
C9 C 0.22911 0.07399 0.43196 0.0
C10 C 0.20837 0.12424 0.39962 0.0
C11 C 0.21892 0.05209 0.41937 0.0
C12 C 0.20025 0.03101 0.38756 0.0
C13 C 0.20752 0.05083 0.40058 0.0
C14 C 0.21489 0.01312 0.41238 0.0
C15 C 0.2043 0.01216 0.39314 0.0
C16 C 0.2222 0.03299 0.42537 0.0
C17 C 0.2694 0.15166 0.47517 0.0
C18 C 0.27286 0.14063 0.51044 0.0
C19 C 0.30634 0.17502 0.49434 0.0
C20 C 0.29302 0.17077 0.47623 0.0
C21 C 0.29618 0.16042 0.51188 0.0
C22 C 0.25963 0.13624 0.49226 0.0
C23 C 0.25495 0.14902 0.45663 0.0
O24 O 0.22963 0.12651 0.39737 0.0
O25 O 0.19786 0.11361 0.417 0.0
O26 O 0.23182 0.13407 0.45813 0.0
O27 O 0.264 0.14751 0.43888 0.0
H28 H 0.23894 0.1702 0.41147 0.0
H29 H 0.23802 0.20643 0.40128 0.0
H30 H 0.17337 0.16289 0.36647 0.0
H31 H 0.17449 0.12655 0.37656 0.0
H32 H 0.19191 0.03065 0.37294 0.0
H33 H 0.20488 0.06549 0.39573 0.0
H34 H 0.21848 0.99903 0.417 0.0
H35 H 0.23111 0.0338 0.4398 0.0
H36 H 0.26432 0.12917 0.52367 0.0
H37 H 0.3244 0.19016 0.49477 0.0
H38 H 0.30098 0.18281 0.46321 0.0
H39 H 0.2415 0.12123 0.49187 0.0
C40 C 0.94606 0.14914 0.3902 0.0
C41 C 0.95026 0.17188 0.39635 0.0
C42 C 0.99074 0.19069 0.38248 0.0
C43 C 0.97228 0.19243 0.39241 0.0
C44 C 0.98628 0.16788 0.37598 0.0
C45 C 0.96412 0.1473 0.37983 0.0
U46 U 0.89239 0.11682 0.42546 0.0
O47 O 0.8738 0.07992 0.43772 0.0
O48 O 0.8541 0.09298 0.41915 0.0
C49 C 0.85336 0.07474 0.42904 0.0
C50 C 0.92338 0.12727 0.39544 0.0
C51 C 0.839 0.05076 0.41951 0.0
C52 C 0.83265 0.01134 0.40976 0.0
C53 C 0.84784 0.03491 0.41669 0.0
C54 C 0.79986 0.01934 0.40817 0.0
C55 C 0.80838 0.00319 0.40569 0.0
C56 C 0.81495 0.04276 0.41505 0.0
C57 C 0.88599 0.14887 0.47212 0.0
C58 C 0.84916 0.14185 0.48859 0.0
C59 C 0.88456 0.15364 0.50928 0.0
C60 C 0.89724 0.15452 0.4915 0.0
C61 C 0.86038 0.14728 0.50803 0.0
C62 C 0.86178 0.14249 0.47081 0.0
C63 C 0.89956 0.14902 0.45367 0.0
O64 O 0.92378 0.11648 0.41259 0.0
O65 O 0.90401 0.12897 0.39358 0.0
O66 O 0.88975 0.14807 0.43561 0.0
O67 O 0.90892 0.13501 0.45478 0.0
H68 H 0.93661 0.17374 0.40445 0.0
H69 H 0.97489 0.2097 0.39732 0.0
H70 H 1.00012 0.16582 0.36851 0.0
H71 H 0.96126 0.12989 0.37507 0.0
H72 H 0.83978 0.99936 0.40799 0.0
H73 H 0.86629 0.04053 0.42018 0.0
H74 H 0.78145 0.01392 0.40469 0.0
H75 H 0.80767 0.05456 0.41725 0.0
H76 H 0.83053 0.13681 0.48717 0.0
H77 H 0.8938 0.15831 0.52401 0.0
H78 H 0.91586 0.1595 0.4929 0.0
H79 H 0.85252 0.13784 0.4561 0.0
C80 C 0.83097 0.77394 0.4031 0.0
C81 C 0.80651 0.76263 0.40729 0.0
C82 C 0.80146 0.78685 0.38102 0.0
C83 C 0.79191 0.76902 0.39644 0.0
C84 C 0.82608 0.79804 0.37663 0.0
C85 C 0.84076 0.79158 0.38759 0.0
U86 U 0.88676 0.76862 0.41641 0.0
O87 O 0.91664 0.79957 0.40096 0.0
O88 O 0.89922 0.76417 0.38598 0.0
C89 C 0.9174 0.78627 0.38584 0.0
C90 C 0.84565 0.76748 0.41592 0.0
C91 C 0.94075 0.78813 0.38248 0.0
C92 C 0.97287 0.79401 0.3594 0.0
C93 C 0.95125 0.79355 0.36282 0.0
C94 C 0.97373 0.78392 0.39538 0.0
C95 C 0.98424 0.78897 0.37561 0.0
C96 C 0.95216 0.78342 0.39876 0.0
C97 C 0.88334 0.73859 0.46808 0.0
C98 C 0.88226 0.73695 0.50567 0.0
C99 C 0.84961 0.70576 0.48592 0.0
C100 C 0.86095 0.71733 0.46757 0.0
C101 C 0.86026 0.71531 0.50515 0.0
C102 C 0.89373 0.7484 0.48731 0.0
C103 C 0.89628 0.75041 0.44885 0.0
O104 O 0.86525 0.78538 0.4238 0.0
O105 O 0.84834 0.74969 0.40915 0.0
O106 O 0.88742 0.73838 0.43158 0.0
O107 O 0.90336 0.77342 0.44714 0.0
H108 H 0.79871 0.7491 0.41931 0.0
H109 H 0.7732 0.76041 0.4006 0.0
H110 H 0.83394 0.81177 0.3648 0.0
H111 H 0.85969 0.80049 0.38417 0.0
H112 H 0.98035 0.79772 0.34396 0.0
H113 H 0.94257 0.79706 0.35006 0.0
H114 H 0.98218 0.78034 0.40828 0.0
H115 H 0.94425 0.77913 0.41404 0.0
H116 H 0.89105 0.74455 0.52027 0.0
H117 H 0.83262 0.68916 0.48508 0.0
H118 H 0.85232 0.70937 0.45301 0.0
H119 H 0.91095 0.76474 0.48813 0.0
C120 C 0.06683 0.22231 0.62212 0.0
C121 C 0.05369 0.22382 0.60552 0.0
C122 C 0.02276 0.22014 0.62925 0.0
C123 C 0.03182 0.22266 0.60904 0.0
C124 C 0.03615 0.21881 0.64585 0.0
C125 C 0.05799 0.21986 0.64228 0.0
U126 U 0.12006 0.23594 0.58781 0.0
O127 O 0.15811 0.25202 0.59538 0.0
O128 O 0.13831 0.21509 0.58332 0.0
C129 C 0.15832 0.23202 0.59152 0.0
C130 C 0.08961 0.22305 0.61857 0.0
C131 C 0.16904 0.2241 0.60757 0.0
C132 C 0.18129 0.22409 0.64313 0.0
C133 C 0.16902 0.2299 0.62852 0.0
C134 C 0.19255 0.20543 0.61623 0.0
C135 C 0.19355 0.21216 0.63706 0.0
C136 C 0.18046 0.21141 0.60163 0.0
C137 C 0.12529 0.26195 0.53358 0.0
C138 C 0.14687 0.25886 0.50397 0.0
C139 C 0.13811 0.29132 0.50581 0.0
C140 C 0.12678 0.28263 0.52483 0.0
C141 C 0.14811 0.27944 0.49506 0.0
C142 C 0.13568 0.25027 0.52312 0.0
C143 C 0.11266 0.25291 0.55343 0.0
O144 O 0.08903 0.20793 0.60457 0.0
O145 O 0.10844 0.24466 0.61694 0.0
O146 O 0.12326 0.26643 0.56965 0.0
O147 O 0.10348 0.22978 0.55706 0.0
H148 H 0.06027 0.22572 0.58983 0.0
H149 H 0.02184 0.22339 0.59587 0.0
H150 H 0.02989 0.21721 0.66161 0.0
H151 H 0.06799 0.21877 0.65528 0.0
H152 H 0.18164 0.22936 0.65909 0.0
H153 H 0.16007 0.23948 0.63351 0.0
H154 H 0.20209 0.19654 0.611 0.0
H155 H 0.18063 0.20674 0.58555 0.0
H156 H 0.15454 0.24942 0.49613 0.0
H157 H 0.13844 0.307 0.49925 0.0
H158 H 0.11891 0.29192 0.53263 0.0
H159 H 0.135 0.2344 0.52964 0.0
C160 C 0.79935 0.85886 0.61555 0.0
C161 C 0.77865 0.83607 0.61582 0.0
C162 C 0.80141 0.81841 0.62971 0.0
C163 C 0.77966 0.81605 0.62295 0.0
C164 C 0.82226 0.84104 0.62862 0.0
C165 C 0.8212 0.86112 0.62168 0.0
U166 U 0.77631 0.89125 0.58106 0.0
O167 O 0.76411 0.91663 0.58853 0.0
O168 O 0.79543 0.92815 0.56855 0.0
C169 C 0.78204 0.9346 0.57887 0.0
C170 C 0.79844 0.88051 0.60946 0.0
C171 C 0.79478 0.95713 0.59069 0.0
C172 C 0.80767 0.97829 0.62342 0.0
C173 C 0.79744 0.95685 0.61219 0.0
C174 C 0.81378 1.0007 0.59169 0.0
C175 C 0.81572 1.00049 0.61336 0.0
C176 C 0.80332 0.97918 0.58048 0.0
C177 C 0.73336 0.8594 0.53725 0.0
C178 C 0.72524 0.88181 0.51134 0.0
C179 C 0.70111 0.83833 0.51268 0.0
C180 C 0.71445 0.83793 0.52952 0.0
C181 C 0.70656 0.86025 0.50325 0.0
C182 C 0.73845 0.88139 0.5283 0.0
C183 C 0.74776 0.85873 0.55452 0.0
O184 O 0.80807 0.88986 0.59148 0.0
O185 O 0.77807 0.87993 0.61275 0.0
O186 O 0.74074 0.86117 0.57296 0.0
O187 O 0.77102 0.87168 0.55191 0.0
H188 H 0.76161 0.83378 0.61091 0.0
H189 H 0.76335 0.79876 0.62348 0.0
H190 H 0.83921 0.84341 0.63391 0.0
H191 H 0.83738 0.87854 0.62151 0.0
H192 H 0.80846 0.97731 0.6401 0.0
H193 H 0.79102 0.94001 0.6204 0.0
H194 H 0.82009 0.01745 0.58339 0.0
H195 H 0.8015 0.97972 0.56386 0.0
H196 H 0.72971 0.89894 0.50447 0.0
H197 H 0.68703 0.82141 0.50661 0.0
H198 H 0.71024 0.82083 0.53631 0.0
H199 H 0.75286 0.8982 0.53426 0.0
C200 C 0.0691 0.86049 0.61998 0.0
C201 C 0.0596 0.83962 0.60786 0.0
C202 C 0.02831 0.81782 0.63341 0.0
C203 C 0.0394 0.81853 0.61447 0.0
C204 C 0.03774 0.83892 0.64539 0.0
C205 C 0.05801 0.86007 0.63873 0.0
U206 U 0.11974 0.89212 0.58167 0.0
O207 O 0.13689 0.92848 0.56826 0.0
O208 O 0.15825 0.91677 0.58606 0.0
C209 C 0.15795 0.93441 0.57602 0.0
C210 C 0.0908 0.88248 0.61324 0.0
C211 C 0.17225 0.95863 0.58505 0.0
C212 C 0.17687 0.99608 0.59861 0.0
C213 C 0.1622 0.97262 0.5912 0.0
C214 C 0.21164 0.99169 0.5938 0.0
C215 C 0.20182 0.00592 0.59992 0.0
C216 C 0.19704 0.96839 0.58641 0.0
C217 C 0.12477 0.85792 0.53628 0.0
C218 C 0.15536 0.8786 0.51007 0.0
C219 C 0.13259 0.83505 0.5108 0.0
C220 C 0.11984 0.83581 0.52793 0.0
C221 C 0.15054 0.85642 0.50169 0.0
C222 C 0.14265 0.87934 0.52731 0.0
C223 C 0.11177 0.85843 0.55472 0.0
O224 O 0.11058 0.88147 0.61421 0.0
O225 O 0.08873 0.89196 0.59588 0.0
O226 O 0.10202 0.87209 0.55337 0.0
O227 O 0.12297 0.86096 0.5723 0.0
H228 H 0.06789 0.83963 0.5933 0.0
H229 H 0.03239 0.80277 0.60466 0.0
H230 H 0.02977 0.83895 0.6601 0.0
H231 H 0.06516 0.87602 0.64832 0.0
H232 H 0.16873 0.00656 0.60317 0.0
H233 H 0.1431 0.96554 0.59019 0.0
H234 H 0.23064 0.99836 0.59506 0.0
H235 H 0.20519 0.95795 0.58167 0.0
H236 H 0.16914 0.89534 0.50347 0.0
H237 H 0.12816 0.81767 0.5045 0.0
H238 H 0.10616 0.81912 0.5347 0.0
H239 H 0.14684 0.8966 0.53371 0.0
C240 C 0.85495 0.47198 0.72375 0.0
C241 C 0.8508 0.48537 0.73868 0.0
C242 C 0.84164 0.50588 0.71152 0.0
C243 C 0.84414 0.50216 0.73261 0.0
C244 C 0.84607 0.4925 0.69672 0.0
C245 C 0.85253 0.4757 0.70279 0.0
U246 U 0.88852 0.44993 0.75799 0.0
O247 O 0.87793 0.41341 0.7687 0.0
O248 O 0.90983 0.43332 0.74938 0.0
C249 C 0.89491 0.41267 0.75812 0.0
C250 C 0.86211 0.45429 0.72946 0.0
C251 C 0.88793 0.39094 0.74548 0.0
C252 C 0.85939 0.34958 0.73587 0.0
C253 C 0.86543 0.37006 0.74775 0.0
C254 C 0.89831 0.37033 0.71956 0.0
C255 C 0.8757 0.34967 0.72149 0.0
C256 C 0.90441 0.39067 0.7315 0.0
C257 C 0.92548 0.48385 0.80382 0.0
C258 C 0.95575 0.47596 0.81805 0.0
C259 C 0.93545 0.49041 0.84028 0.0
C260 C 0.92226 0.49104 0.82342 0.0
C261 C 0.95218 0.4827 0.83777 0.0
C262 C 0.94234 0.47631 0.80123 0.0
C263 C 0.90989 0.48248 0.78666 0.0
O264 O 0.88484 0.46138 0.72679 0.0
O265 O 0.85333 0.44249 0.74684 0.0
O266 O 0.88758 0.46504 0.78827 0.0
O267 O 0.91876 0.48452 0.76799 0.0
H268 H 0.85273 0.4829 0.755 0.0
H269 H 0.84083 0.51208 0.74442 0.0
H270 H 0.84501 0.4953 0.68033 0.0
H271 H 0.85588 0.46571 0.69104 0.0
H272 H 0.84183 0.33387 0.73761 0.0
H273 H 0.85245 0.36952 0.75863 0.0
H274 H 0.91137 0.37072 0.70884 0.0
H275 H 0.92208 0.40624 0.72975 0.0
H276 H 0.9685 0.46992 0.81575 0.0
H277 H 0.93263 0.49605 0.85529 0.0
H278 H 0.90926 0.49676 0.82575 0.0
H279 H 0.9449 0.47031 0.78629 0.0
C280 C 0.61521 0.48606 0.72357 0.0
C281 C 0.61837 0.50838 0.72986 0.0
C282 C 0.65904 0.52872 0.71636 0.0
C283 C 0.64 0.52949 0.72618 0.0
C284 C 0.65559 0.50633 0.70972 0.0
C285 C 0.63385 0.4852 0.71331 0.0
U286 U 0.56089 0.45198 0.75779 0.0
O287 O 0.52337 0.42594 0.75087 0.0
O288 O 0.54421 0.41531 0.77056 0.0
C289 C 0.52381 0.40847 0.76108 0.0
C290 C 0.5931 0.46361 0.72869 0.0
C291 C 0.51303 0.38523 0.75037 0.0
C292 C 0.51014 0.36071 0.72074 0.0
C293 C 0.52238 0.38235 0.73173 0.0
C294 C 0.47971 0.34448 0.74736 0.0
C295 C 0.48831 0.3417 0.72819 0.0
C296 C 0.49198 0.36603 0.75832 0.0
C297 C 0.55114 0.48452 0.80239 0.0
C298 C 0.51922 0.46313 0.82734 0.0
C299 C 0.54324 0.50661 0.82861 0.0
C300 C 0.55639 0.50633 0.81159 0.0
C301 C 0.52454 0.48501 0.83675 0.0
C302 C 0.53236 0.4629 0.81024 0.0
C303 C 0.56533 0.48456 0.78465 0.0
O304 O 0.59372 0.45367 0.74627 0.0
O305 O 0.57309 0.46392 0.72597 0.0
O306 O 0.55511 0.4818 0.76651 0.0
O307 O 0.57569 0.47155 0.78689 0.0
H308 H 0.60424 0.50945 0.7379 0.0
H309 H 0.64186 0.54643 0.73121 0.0
H310 H 0.66992 0.505 0.70235 0.0
H311 H 0.63178 0.46811 0.70847 0.0
H312 H 0.51741 0.3591 0.70614 0.0
H313 H 0.53869 0.39704 0.7254 0.0
H314 H 0.46281 0.33049 0.75343 0.0
H315 H 0.4845 0.36803 0.77268 0.0
H316 H 0.50484 0.44624 0.83315 0.0
H317 H 0.54809 0.52374 0.83568 0.0
H318 H 0.57082 0.52317 0.80572 0.0
H319 H 0.52798 0.44587 0.80319 0.0
C320 C 0.49225 0.09552 0.73684 0.0
C321 C 0.46795 0.07835 0.7355 0.0
C322 C 0.46115 0.10439 0.71256 0.0
C323 C 0.45258 0.0827 0.72355 0.0
C324 C 0.4857 0.12148 0.71356 0.0
C325 C 0.50118 0.11706 0.72559 0.0
U326 U 0.54932 0.09426 0.75351 0.0
O327 O 0.57874 0.12564 0.73807 0.0
O328 O 0.56312 0.09 0.72368 0.0
C329 C 0.58053 0.1125 0.72336 0.0
C330 C 0.50717 0.09069 0.75103 0.0
C331 C 0.60448 0.11568 0.72035 0.0
C332 C 0.63653 0.12108 0.69737 0.0
C333 C 0.61436 0.1195 0.70047 0.0
C334 C 0.63931 0.11542 0.7341 0.0
C335 C 0.64916 0.11881 0.71413 0.0
C336 C 0.61714 0.11376 0.73716 0.0
C337 C 0.54642 0.06509 0.8056 0.0
C338 C 0.53782 0.03486 0.83189 0.0
C339 C 0.51715 0.05756 0.8325 0.0
C340 C 0.52964 0.07005 0.81476 0.0
C341 C 0.52099 0.0397 0.84116 0.0
C342 C 0.55041 0.04745 0.81432 0.0
C343 C 0.55936 0.0774 0.78661 0.0
O344 O 0.52592 0.10935 0.75922 0.0
O345 O 0.51116 0.07333 0.74552 0.0
O346 O 0.55093 0.06488 0.76953 0.0
O347 O 0.56514 0.10006 0.78459 0.0
H348 H 0.46068 0.06171 0.74416 0.0
H349 H 0.43374 0.06934 0.72355 0.0
H350 H 0.49289 0.1383 0.7052 0.0
H351 H 0.51994 0.13058 0.72636 0.0
H352 H 0.64347 0.12343 0.68178 0.0
H353 H 0.60472 0.12084 0.6873 0.0
H354 H 0.6487 0.11398 0.7474 0.0
H355 H 0.60975 0.11071 0.75262 0.0
H356 H 0.54147 0.02147 0.83837 0.0
H357 H 0.50422 0.0616 0.83925 0.0
H358 H 0.52609 0.08345 0.80814 0.0
H359 H 0.56323 0.04333 0.80746 0.0
C360 C 0.73673 0.55435 0.96138 0.0
C361 C 0.72504 0.56357 0.94943 0.0
C362 C 0.69035 0.5444 0.9722 0.0
C363 C 0.70212 0.55874 0.95484 0.0
C364 C 0.70225 0.53529 0.98414 0.0
C365 C 0.72524 0.54025 0.97876 0.0
U366 U 0.78709 0.57344 0.92216 0.0
O367 O 0.82595 0.59652 0.92585 0.0
O368 O 0.81082 0.55883 0.9162 0.0
C369 C 0.83014 0.57904 0.92127 0.0
C370 C 0.76073 0.55906 0.95571 0.0
C371 C 0.84763 0.5771 0.93437 0.0
C372 C 0.85839 0.56012 0.96324 0.0
C373 C 0.84098 0.56211 0.95183 0.0
C374 C 0.88897 0.58835 0.93996 0.0
C375 C 0.8826 0.57322 0.95736 0.0
C376 C 0.87168 0.59027 0.92865 0.0
C377 C 0.78296 0.59183 0.86745 0.0
C378 C 0.80407 0.58884 0.8374 0.0
C379 C 0.79559 0.62145 0.83984 0.0
C380 C 0.78432 0.61255 0.85888 0.0
C381 C 0.80559 0.60969 0.82889 0.0
C382 C 0.79301 0.58008 0.85654 0.0
C383 C 0.77191 0.58336 0.88803 0.0
O384 O 0.76127 0.54414 0.9421 0.0
O385 O 0.77663 0.58169 0.95204 0.0
O386 O 0.78192 0.59896 0.90315 0.0
O387 O 0.76649 0.5614 0.89324 0.0
H388 H 0.73363 0.57449 0.93593 0.0
H389 H 0.6937 0.56639 0.94548 0.0
H390 H 0.69365 0.52397 0.99744 0.0
H391 H 0.73399 0.5329 0.9881 0.0
H392 H 0.85294 0.54839 0.9766 0.0
H393 H 0.82242 0.55183 0.95647 0.0
H394 H 0.90732 0.59827 0.93469 0.0
H395 H 0.87708 0.60181 0.91515 0.0
H396 H 0.81172 0.57949 0.82938 0.0
H397 H 0.7962 0.63737 0.83354 0.0
H398 H 0.77677 0.62195 0.86699 0.0
H399 H 0.79252 0.56421 0.86284 0.0
C400 C 0.48473 0.19692 0.93835 0.0
C401 C 0.47178 0.1762 0.92625 0.0
C402 C 0.48638 0.15477 0.94726 0.0
C403 C 0.47265 0.15535 0.93061 0.0
C404 C 0.49985 0.17582 0.959 0.0
C405 C 0.499 0.19672 0.95457 0.0
U406 U 0.45275 0.22484 0.91171 0.0
O407 O 0.44076 0.24954 0.9222 0.0
O408 O 0.46637 0.26009 0.89663 0.0
C409 C 0.45491 0.26669 0.90941 0.0
C410 C 0.48255 0.2183 0.93455 0.0
C411 C 0.469 0.29047 0.91896 0.0
C412 C 0.49746 0.31635 0.94485 0.0
C413 C 0.48675 0.29488 0.93359 0.0
C414 C 0.47368 0.32968 0.92614 0.0
C415 C 0.49046 0.33366 0.94173 0.0
C416 C 0.46302 0.30822 0.91489 0.0
C417 C 0.40033 0.18458 0.87685 0.0
C418 C 0.38071 0.2005 0.85525 0.0
C419 C 0.368 0.15803 0.85413 0.0
C420 C 0.38505 0.16155 0.86905 0.0
C421 C 0.36594 0.17754 0.84673 0.0
C422 C 0.39779 0.20399 0.87023 0.0
C423 C 0.41957 0.18824 0.89101 0.0
O424 O 0.48743 0.22671 0.91557 0.0
O425 O 0.46302 0.21705 0.94196 0.0
O426 O 0.41688 0.19283 0.91029 0.0
O427 O 0.44131 0.20216 0.88392 0.0
H428 H 0.46064 0.17603 0.91364 0.0
H429 H 0.46224 0.13954 0.92116 0.0
H430 H 0.5103 0.17589 0.97212 0.0
H431 H 0.50903 0.21254 0.96412 0.0
H432 H 0.51049 0.31899 0.95661 0.0
H433 H 0.49156 0.28131 0.93691 0.0
H434 H 0.46764 0.34244 0.92353 0.0
H435 H 0.44926 0.30502 0.90368 0.0
H436 H 0.37944 0.21583 0.84999 0.0
H437 H 0.35723 0.14019 0.84768 0.0
H438 H 0.38681 0.1464 0.87402 0.0
H439 H 0.40943 0.2219 0.87624 0.0
C440 C 0.72688 0.18685 0.95927 0.0
C441 C 0.719 0.16402 0.95071 0.0
C442 C 0.68303 0.14707 0.97207 0.0
C443 C 0.69735 0.1443 0.95712 0.0
C444 C 0.69119 0.17001 0.98067 0.0
C445 C 0.7129 0.18966 0.97434 0.0
U446 U 0.77684 0.22108 0.91956 0.0
O447 O 0.79448 0.25912 0.91048 0.0
O448 O 0.81555 0.24445 0.92426 0.0
C449 C 0.81543 0.26367 0.91749 0.0
C450 C 0.74931 0.20801 0.95247 0.0
C451 C 0.82856 0.28544 0.93017 0.0
C452 C 0.83009 0.31306 0.95659 0.0
C453 C 0.81704 0.292 0.945 0.0
C454 C 0.86627 0.32098 0.93877 0.0
C455 C 0.85491 0.32781 0.95363 0.0
C456 C 0.8532 0.30005 0.92715 0.0
C457 C 0.779 0.19557 0.86747 0.0
C458 C 0.79945 0.21962 0.83715 0.0
C459 C 0.79359 0.1795 0.8408 0.0
C460 C 0.78197 0.17687 0.85968 0.0
C461 C 0.80234 0.20086 0.82928 0.0
C462 C 0.78806 0.21709 0.85613 0.0
C463 C 0.76703 0.19262 0.88758 0.0
O464 O 0.76793 0.20502 0.95064 0.0
O465 O 0.74725 0.22024 0.9371 0.0
O466 O 0.75724 0.20607 0.89055 0.0
O467 O 0.77886 0.19173 0.90378 0.0
H468 H 0.72953 0.16146 0.93903 0.0
H469 H 0.69187 0.12688 0.95037 0.0
H470 H 0.68055 0.17294 0.99196 0.0
H471 H 0.71866 0.20718 0.98106 0.0
H472 H 0.82072 0.31784 0.96778 0.0
H473 H 0.79799 0.2809 0.94757 0.0
H474 H 0.88539 0.33155 0.93637 0.0
H475 H 0.8624 0.29518 0.91582 0.0
H476 H 0.80614 0.23632 0.82867 0.0
H477 H 0.79529 0.1646 0.83501 0.0
H478 H 0.77524 0.16018 0.86819 0.0
H479 H 0.78633 0.23197 0.86192 0.0
C480 C 0.54937 0.83 0.08314 0.0
C481 C 0.53831 0.84111 0.09336 0.0
C482 C 0.53164 0.85545 0.06047 0.0
C483 C 0.52947 0.85367 0.08215 0.0
C484 C 0.54276 0.84423 0.05035 0.0
C485 C 0.55133 0.83151 0.06151 0.0
U486 U 0.56115 0.77785 0.09028 0.0
O487 O 0.56149 0.76922 0.05749 0.0
O488 O 0.52924 0.74758 0.07605 0.0
C489 C 0.54054 0.74945 0.05865 0.0
C490 C 0.55926 0.81743 0.09515 0.0
C491 C 0.53988 0.72727 0.05163 0.0
C492 C 0.51758 0.6865 0.03814 0.0
C493 C 0.51828 0.70753 0.04497 0.0
C494 C 0.56004 0.70465 0.04471 0.0
C495 C 0.53855 0.68505 0.03767 0.0
C496 C 0.56068 0.72548 0.05179 0.0
C497 C 0.59954 0.77597 0.13526 0.0
C498 C 0.60302 0.77876 0.17278 0.0
C499 C 0.63847 0.79968 0.15157 0.0
C500 C 0.62448 0.79068 0.13378 0.0
C501 C 0.62787 0.79402 0.17126 0.0
C502 C 0.58901 0.76977 0.15498 0.0
C503 C 0.58481 0.76615 0.11637 0.0
O504 O 0.57747 0.8169 0.08665 0.0
O505 O 0.54359 0.79678 0.10346 0.0
O506 O 0.59405 0.77804 0.09911 0.0
O507 O 0.56184 0.75852 0.11813 0.0
H508 H 0.53657 0.84012 0.11005 0.0
H509 H 0.52079 0.86182 0.09046 0.0
H510 H 0.54527 0.84558 0.03375 0.0
H511 H 0.55976 0.82309 0.0532 0.0
H512 H 0.50083 0.67166 0.03262 0.0
H513 H 0.50201 0.70847 0.04488 0.0
H514 H 0.5764 0.70388 0.04462 0.0
H515 H 0.57752 0.74026 0.05719 0.0
H516 H 0.59429 0.77424 0.18772 0.0
H517 H 0.65762 0.81111 0.1499 0.0
H518 H 0.63326 0.79532 0.11886 0.0
H519 H 0.56991 0.7581 0.15669 0.0
C520 C 0.27216 0.81608 0.05381 0.0
C521 C 0.28184 0.83492 0.06822 0.0
C522 C 0.31371 0.86 0.04416 0.0
C523 C 0.30241 0.85663 0.06346 0.0
C524 C 0.30396 0.84098 0.02978 0.0
C525 C 0.28333 0.8192 0.03458 0.0
U526 U 0.22303 0.77934 0.09184 0.0
O527 O 0.18436 0.75501 0.0881 0.0
O528 O 0.20663 0.7416 0.10177 0.0
C529 C 0.18519 0.73639 0.09553 0.0
C530 C 0.25051 0.79327 0.05897 0.0
C531 C 0.17032 0.71319 0.08495 0.0
C532 C 0.16428 0.67585 0.06981 0.0
C533 C 0.17959 0.69879 0.07794 0.0
C534 C 0.13045 0.6816 0.07542 0.0
C535 C 0.13948 0.66689 0.06866 0.0
C536 C 0.14568 0.7044 0.08352 0.0
C537 C 0.22062 0.80647 0.14288 0.0
C538 C 0.19948 0.78258 0.17299 0.0
C539 C 0.207 0.82336 0.16958 0.0
C540 C 0.21851 0.82566 0.15072 0.0
C541 C 0.19755 0.80187 0.18098 0.0
C542 C 0.21074 0.78478 0.15403 0.0
C543 C 0.23246 0.809 0.12283 0.0
O544 O 0.25302 0.7812 0.07425 0.0
O545 O 0.23084 0.79446 0.06038 0.0
O546 O 0.22009 0.80866 0.10658 0.0
O547 O 0.24282 0.796 0.12043 0.0
H548 H 0.2735 0.83279 0.0832 0.0
H549 H 0.30962 0.8707 0.07505 0.0
H550 H 0.31208 0.84303 0.01472 0.0
H551 H 0.27606 0.80482 0.02327 0.0
H552 H 0.17182 0.66497 0.06477 0.0
H553 H 0.19853 0.70505 0.079 0.0
H554 H 0.11157 0.67559 0.07431 0.0
H555 H 0.1381 0.7151 0.08897 0.0
H556 H 0.19221 0.76578 0.1814 0.0
H557 H 0.20599 0.83861 0.1755 0.0
H558 H 0.22585 0.84245 0.14228 0.0
H559 H 0.21176 0.76955 0.14812 0.0
C560 C 0.18367 0.4517 0.04436 0.0
C561 C 0.16839 0.44864 0.0609 0.0
C562 C 0.14132 0.45311 0.0376 0.0
C563 C 0.14751 0.44945 0.05758 0.0
C564 C 0.15683 0.45643 0.02106 0.0
C565 C 0.17786 0.45568 0.02443 0.0
U566 U 0.21588 0.43129 0.07952 0.0
O567 O 0.23463 0.41127 0.07401 0.0
O568 O 0.25386 0.44723 0.08804 0.0
C569 C 0.25538 0.42924 0.07999 0.0
C570 C 0.20487 0.44943 0.04795 0.0
C571 C 0.27609 0.43561 0.06632 0.0
C572 C 0.29381 0.42669 0.03688 0.0
C573 C 0.27364 0.42269 0.04804 0.0
C574 C 0.31921 0.45755 0.06131 0.0
C575 C 0.31683 0.44374 0.04368 0.0
C576 C 0.29904 0.45342 0.07258 0.0
C577 C 0.18217 0.40112 0.13025 0.0
C578 C 0.16261 0.36392 0.15009 0.0
C579 C 0.18832 0.40161 0.16747 0.0
C580 C 0.19271 0.41379 0.1486 0.0
C581 C 0.17325 0.37652 0.16841 0.0
C582 C 0.16692 0.37607 0.13127 0.0
C583 C 0.18538 0.41383 0.11033 0.0
O584 O 0.21874 0.46265 0.06317 0.0
O585 O 0.20057 0.42716 0.04837 0.0
O586 O 0.18371 0.40156 0.09354 0.0
O587 O 0.20249 0.43646 0.10928 0.0
H588 H 0.17254 0.44541 0.0764 0.0
H589 H 0.13622 0.44726 0.07073 0.0
H590 H 0.15246 0.45906 0.00546 0.0
H591 H 0.18938 0.45786 0.01146 0.0
H592 H 0.29147 0.41591 0.02325 0.0
H593 H 0.25624 0.40886 0.04271 0.0
H594 H 0.33673 0.47061 0.06707 0.0
H595 H 0.30147 0.46353 0.08667 0.0
H596 H 0.15066 0.34463 0.15032 0.0
H597 H 0.19698 0.4118 0.18129 0.0
H598 H 0.20426 0.43314 0.14845 0.0
H599 H 0.15808 0.36583 0.11752 0.0
C600 C 0.39998 0.88532 0.29493 0.0
C601 C 0.39079 0.89813 0.28458 0.0
C602 C 0.35448 0.87827 0.30542 0.0
C603 C 0.36831 0.89473 0.28983 0.0
C604 C 0.36387 0.86552 0.31573 0.0
C605 C 0.38641 0.86905 0.31054 0.0
U606 U 0.4518 0.90328 0.25717 0.0
O607 O 0.49061 0.9231 0.26273 0.0
O608 O 0.47313 0.88603 0.25094 0.0
C609 C 0.49304 0.90467 0.25754 0.0
C610 C 0.42352 0.88851 0.28956 0.0
C611 C 0.50827 0.89964 0.27109 0.0
C612 C 0.51413 0.8755 0.29689 0.0
C613 C 0.49883 0.88079 0.28556 0.0
C614 C 0.54826 0.90823 0.27977 0.0
C615 C 0.53905 0.88904 0.29395 0.0
C616 C 0.53304 0.91346 0.26853 0.0
C617 C 0.45211 0.92637 0.20314 0.0
C618 C 0.4746 0.92425 0.17379 0.0
C619 C 0.46387 0.95533 0.17512 0.0
C620 C 0.45253 0.94642 0.19412 0.0
C621 C 0.47492 0.94427 0.16468 0.0
C622 C 0.46346 0.91548 0.19291 0.0
C623 C 0.44016 0.91739 0.2233 0.0
O624 O 0.42338 0.87385 0.27531 0.0
O625 O 0.44086 0.91085 0.28712 0.0
O626 O 0.45056 0.93175 0.23912 0.0
O627 O 0.43277 0.89468 0.22745 0.0
H628 H 0.40099 0.91077 0.27244 0.0
H629 H 0.36186 0.90514 0.28177 0.0
H630 H 0.35364 0.85247 0.32758 0.0
H631 H 0.39318 0.85892 0.31863 0.0
H632 H 0.50649 0.86071 0.30778 0.0
H633 H 0.4797 0.86994 0.2878 0.0
H634 H 0.56725 0.91874 0.27675 0.0
H635 H 0.54062 0.92799 0.25736 0.0
H636 H 0.48308 0.91545 0.16617 0.0
H637 H 0.46351 0.97058 0.16837 0.0
H638 H 0.44398 0.95515 0.20175 0.0
H639 H 0.46368 0.90015 0.19965 0.0
C640 C 0.13172 0.52349 0.2828 0.0
C641 C 0.11082 0.50088 0.28175 0.0
C642 C 0.13228 0.48175 0.29546 0.0
C643 C 0.11108 0.48023 0.28815 0.0
C644 C 0.15335 0.50427 0.2958 0.0
C645 C 0.15302 0.52498 0.2896 0.0
U646 U 0.11098 0.55721 0.24786 0.0
O647 O 0.0991 0.58305 0.2546 0.0
O648 O 0.13092 0.59405 0.23537 0.0
C649 C 0.11739 0.6008 0.24505 0.0
C650 C 0.13159 0.54563 0.277 0.0
C651 C 0.13003 0.62361 0.2565 0.0
C652 C 0.14219 0.64578 0.2888 0.0
C653 C 0.13167 0.62394 0.27814 0.0
C654 C 0.15043 0.66729 0.25631 0.0
C655 C 0.15153 0.66774 0.27804 0.0
C656 C 0.13972 0.6454 0.24566 0.0
C657 C 0.07043 0.52634 0.20214 0.0
C658 C 0.04176 0.53543 0.18611 0.0
C659 C 0.06434 0.52268 0.16498 0.0
C660 C 0.07567 0.5207 0.18261 0.0
C661 C 0.04735 0.53015 0.16653 0.0
C662 C 0.05333 0.53372 0.20377 0.0
C663 C 0.08373 0.52537 0.22032 0.0
O664 O 0.14212 0.55542 0.2594 0.0
O665 O 0.11126 0.54533 0.27966 0.0
O666 O 0.07585 0.52733 0.23856 0.0
O667 O 0.10711 0.53807 0.21866 0.0
H668 H 0.09421 0.4992 0.27627 0.0
H669 H 0.09463 0.46306 0.28759 0.0
H670 H 0.16987 0.50599 0.30155 0.0
H671 H 0.16935 0.54223 0.29041 0.0
H672 H 0.14229 0.64534 0.30554 0.0
H673 H 0.12433 0.60733 0.28684 0.0
H674 H 0.15769 0.68383 0.24753 0.0
H675 H 0.13867 0.64546 0.22894 0.0
H676 H 0.02867 0.54115 0.1877 0.0
H677 H 0.06862 0.51802 0.15012 0.0
H678 H 0.08871 0.51491 0.18098 0.0
H679 H 0.04899 0.53834 0.21862 0.0
C680 C 0.39956 0.52702 0.28389 0.0
C681 C 0.3899 0.50696 0.27077 0.0
C682 C 0.35878 0.48366 0.29608 0.0
C683 C 0.3697 0.48551 0.27679 0.0
C684 C 0.36854 0.5039 0.30915 0.0
C685 C 0.38878 0.52538 0.30309 0.0
U686 U 0.44924 0.56407 0.24531 0.0
O687 O 0.46323 0.60143 0.2348 0.0
O688 O 0.48703 0.59095 0.24999 0.0
C689 C 0.48456 0.60864 0.24254 0.0
C690 C 0.42062 0.54977 0.27753 0.0
C691 C 0.49497 0.63079 0.25502 0.0
C692 C 0.50778 0.65134 0.28804 0.0
C693 C 0.49637 0.63004 0.27663 0.0
C694 C 0.51585 0.67451 0.25651 0.0
C695 C 0.51781 0.6739 0.27815 0.0
C696 C 0.50458 0.65314 0.24508 0.0
C697 C 0.45565 0.5362 0.19567 0.0
C698 C 0.47883 0.55957 0.16602 0.0
C699 C 0.46755 0.51761 0.1691 0.0
C700 C 0.45598 0.51607 0.18776 0.0
C701 C 0.47898 0.53933 0.15793 0.0
C702 C 0.46741 0.55806 0.18481 0.0
C703 C 0.44319 0.53412 0.21528 0.0
O704 O 0.44091 0.54968 0.27703 0.0
O705 O 0.41746 0.56014 0.26127 0.0
O706 O 0.43162 0.54608 0.21631 0.0
O707 O 0.45545 0.53607 0.2321 0.0
H708 H 0.39793 0.50794 0.25583 0.0
H709 H 0.36245 0.47044 0.26618 0.0
H710 H 0.36075 0.50304 0.32416 0.0
H711 H 0.39603 0.54073 0.3134 0.0
H712 H 0.50929 0.65009 0.30462 0.0
H713 H 0.48908 0.613 0.28467 0.0
H714 H 0.52307 0.69147 0.24839 0.0
H715 H 0.50362 0.65407 0.2284 0.0
H716 H 0.4876 0.57657 0.15784 0.0
H717 H 0.46703 0.50159 0.16314 0.0
H718 H 0.44709 0.49907 0.19595 0.0
H719 H 0.46762 0.57393 0.19078 0.0
O720 O 0.4845 0.97189 0.95561 0.0
Mg721 Mg 0.51284 0.97882 0.97564 0.0
O722 O 0.49307 0.00541 0.97099 0.0
Mg723 Mg 0.50096 0.00217 0.00621 0.0
O724 O 0.50644 0.9685 0.00583 0.0
O725 O 0.51576 0.9495 0.98164 0.0
O726 O 0.50872 1.00072 0.04181 0.0
O727 O 0.46053 0.97435 0.01136 0.0
Mg728 Mg 0.4776 0.02351 0.03532 0.0
O729 O 0.49506 0.03483 0.00781 0.0
O730 O 0.50017 0.02504 0.05929 0.0
O731 O 0.44481 0.9908 0.03142 0.0
O732 O 0.48052 0.0549 0.02496 0.0
C733 C 0.55367 0.02953 0.9842 0.0
C734 C 0.48526 0.99187 0.95511 0.0
C735 C 0.51053 0.95131 0.00057 0.0
C736 C 0.50871 0.01112 0.05868 0.0
C737 C 0.44266 0.97309 0.02096 0.0
C738 C 0.49155 0.053 0.00909 0.0
O739 O 0.54532 0.01186 0.97175 0.0
O740 O 0.54145 0.02934 -0.00016 0.0
O741 O 0.02235 0.52276 0.94585 0.0
Mg742 Mg 0.02481 0.54627 0.96938 0.0
O743 O 0.99787 0.49305 0.96619 0.0
Mg744 Mg 0.00456 0.50489 0.00116 0.0
O745 O 0.0386 0.54266 0.99642 0.0
O746 O 0.0578 0.57451 0.97545 0.0
O747 O 0.01167 0.51804 0.03598 0.0
O748 O 0.03111 0.49077 0.0042 0.0
Mg749 Mg 0.98572 0.46832 0.03343 0.0
O750 O 0.97079 0.46594 0.00517 0.0
O751 O 0.98302 0.49085 0.05517 0.0
O752 O 0.01769 0.46659 0.03133 0.0
O753 O 0.95481 0.43712 0.02949 0.0
C754 C 0.97756 0.53616 0.98788 0.0
C755 C 0.00648 0.501 0.94825 0.0
C756 C 0.05698 0.56373 0.99253 0.0
C757 C 1.00078 0.51169 0.05329 0.0
C758 C 0.03324 0.47708 0.01728 0.0
C759 C 0.95398 0.44473 0.0112 0.0
O760 O 0.99447 0.54962 0.97575 0.0
O761 O 0.9779 0.51926 0.99804 0.0
O762 O 0.50236 0.47788 0.05592 0.0
Mg763 Mg 0.48196 0.45728 0.03089 0.0
O764 O 0.513 0.51039 0.03718 0.0
Mg765 Mg 0.50539 0.49965 0.00179 0.0
O766 O 0.50056 0.46095 0.0044 0.0
O767 O 0.48488 0.42815 0.02453 0.0
O768 O 0.49683 0.48692 0.96622 0.0
O769 O 0.54575 0.51223 0.99708 0.0
Mg770 Mg 0.51682 0.53011 0.97259 0.0
O771 O 0.5117 0.5398 0.00132 0.0
O772 O 0.48732 0.51208 0.95292 0.0
O773 O 0.54749 0.52718 0.96618 0.0
O774 O 0.52686 0.56506 0.97424 0.0
C775 C 0.44675 0.47038 0.01498 0.0
C776 C 0.51188 0.50045 0.05459 0.0
C777 C 0.49652 0.43927 0.00811 0.0
C778 C 0.48811 0.49297 0.95117 0.0
C779 C 0.5568 0.52063 0.98009 0.0
C780 C 0.51974 0.56107 0.99319 0.0
O781 O 0.44858 0.45467 0.02539 0.0
O782 O 0.46496 0.48755 0.00613 0.0
O783 O 0.17488 0.31583 0.28272 0.0
Mg784 Mg 0.19696 0.32189 0.30815 0.0
O785 O 0.1669 0.33983 0.30064 0.0
Mg786 Mg 0.17356 0.33635 0.33626 0.0
O787 O 0.18308 0.30506 0.33573 0.0
O788 O 0.20265 0.29447 0.31306 0.0
O789 O 0.18001 0.33199 0.37208 0.0
O790 O 0.13383 0.30539 0.33891 0.0
Mg791 Mg 0.15641 0.35213 0.36456 0.0
O792 O 0.16352 0.36758 0.33592 0.0
O793 O 0.184 0.36441 0.38646 0.0
O794 O 0.12611 0.31732 0.36825 0.0
O795 O 0.1451 0.37588 0.36142 0.0
C796 C 0.23116 0.37116 0.32253 0.0
C797 C 0.16676 0.33001 0.28343 0.0
C798 C 0.19148 0.29112 0.33035 0.0
C799 C 0.18597 0.34593 0.38774 0.0
C800 C 0.11992 0.30158 0.3542 0.0
C801 C 0.15376 0.37968 0.34297 0.0
O802 O 0.22886 0.35495 0.31007 0.0
O803 O 0.2136 0.36795 0.33384 0.0
O804 O 0.69428 0.86356 0.2825 0.0
Mg805 Mg 0.69834 0.88525 0.30799 0.0
O806 O 0.67091 0.83114 0.30073 0.0
Mg807 Mg 0.67266 0.84113 0.33607 0.0
O808 O 0.70945 0.87725 0.3349 0.0
O809 O 0.7323 0.90999 0.31567 0.0
O810 O 0.67541 0.85164 0.37148 0.0
O811 O 0.6954 0.82248 0.34154 0.0
Mg812 Mg 0.64636 0.80019 0.36476 0.0
O813 O 0.63535 0.80484 0.33648 0.0
O814 O 0.64719 0.82173 0.38917 0.0
O815 O 0.67372 0.79153 0.36216 0.0
O816 O 0.61318 0.77383 0.3577 0.0
C817 C 0.65215 0.87896 0.3231 0.0
C818 C 0.68026 0.84111 0.28347 0.0
C819 C 0.72925 0.8976 0.33225 0.0
C820 C 0.66412 0.84319 0.38842 0.0
C821 C 0.69245 0.80406 0.35158 0.0
C822 C 0.6158 0.78451 0.34018 0.0
O823 O 0.67121 0.89361 0.31379 0.0
O824 O 0.64961 0.85955 0.33091 0.0
O825 O 0.17368 0.81618 0.38999 0.0
Mg826 Mg 0.15016 0.79379 0.36724 0.0
O827 O 0.17969 0.84769 0.37167 0.0
Mg828 Mg 0.17117 0.83666 0.33624 0.0
O829 O 0.16586 0.7983 0.33915 0.0
O830 O 0.15333 0.76509 0.3582 0.0
O831 O 0.16271 0.82414 0.30126 0.0
O832 O 0.21144 0.85028 0.3298 0.0
Mg833 Mg 0.18208 0.86984 0.3046 0.0
O834 O 0.17644 0.87579 0.33442 0.0
O835 O 0.15227 0.84777 0.28616 0.0
O836 O 0.21414 0.86869 0.30018 0.0
O837 O 0.18664 0.90297 0.30894 0.0
C838 C 0.11382 0.80729 0.35262 0.0
C839 C 0.18096 0.83844 0.38884 0.0
C840 C 0.16266 0.77677 0.34132 0.0
C841 C 0.15371 0.82894 0.28568 0.0
C842 C 0.22305 0.86082 0.31344 0.0
C843 C 0.181 0.89693 0.32802 0.0
O844 O 0.11702 0.79297 0.36395 0.0
O845 O 0.1309 0.82341 0.34185 0.0
O846 O 0.84851 0.65586 0.61891 0.0
Mg847 Mg 0.86872 0.65563 0.6442 0.0
O848 O 0.83738 0.67765 0.63711 0.0
Mg849 Mg 0.84222 0.67366 0.67272 0.0
O850 O 0.84903 0.64159 0.67028 0.0
O851 O 0.8657 0.6237 0.65279 0.0
O852 O 0.84732 0.66776 0.70848 0.0
O853 O 0.80205 0.64438 0.6747 0.0
Mg854 Mg 0.82614 0.69021 0.7014 0.0
O855 O 0.83411 0.70623 0.67297 0.0
O856 O 0.85344 0.70068 0.72342 0.0
O857 O 0.79471 0.65594 0.7044 0.0
O858 O 0.81657 0.71531 0.69874 0.0
C859 C 0.90156 0.7052 0.66164 0.0
C860 C 0.83926 0.66914 0.61981 0.0
C861 C 0.85327 0.62395 0.66829 0.0
C862 C 0.8537 0.68124 0.72445 0.0
C863 C 0.78812 0.64064 0.68993 0.0
C864 C 0.82514 0.71897 0.68025 0.0
O865 O 0.90042 0.68812 0.65091 0.0
O866 O 0.88292 0.70325 0.67041 0.0
O867 O 0.33434 0.19691 0.63488 0.0
Mg868 Mg 0.33952 0.20909 0.66548 0.0
O869 O 0.33152 0.16276 0.64451 0.0
Mg870 Mg 0.33043 0.16597 0.68058 0.0
O871 O 0.36401 0.20606 0.68328 0.0
O872 O 0.37041 0.23998 0.66734 0.0
O873 O 0.32963 0.1698 0.71649 0.0
O874 O 0.36058 0.15581 0.68289 0.0
Mg875 Mg 0.31214 0.11804 0.70379 0.0
O876 O 0.2987 0.12644 0.67859 0.0
O877 O 0.31056 0.13425 0.73153 0.0
O878 O 0.34446 0.11921 0.69634 0.0
O879 O 0.28119 0.0899 0.69321 0.0
C880 C 0.29459 0.19116 0.68036 0.0
C881 C 0.33221 0.17682 0.63026 0.0
C882 C 0.37766 0.229 0.67947 0.0
C883 C 0.32114 0.15694 0.73269 0.0
C884 C 0.36215 0.13757 0.68848 0.0
C885 C 0.28165 0.10406 0.67884 0.0
O886 O 0.31231 0.21215 0.67999 0.0
O887 O 0.2981 0.17339 0.67855 0.0
O888 O 0.84217 0.15067 0.72725 0.0
Mg889 Mg 0.81666 0.12692 0.70613 0.0
O890 O 0.842 0.17951 0.70901 0.0
Mg891 Mg 0.83616 0.1682 0.67365 0.0
O892 O 0.83032 0.12984 0.67746 0.0
O893 O 0.81871 0.09736 0.69719 0.0
O894 O 0.83046 0.15561 0.63848 0.0
O895 O 0.87666 0.18139 0.67018 0.0
Mg896 Mg 0.85111 0.2017 0.64233 0.0
O897 O 0.84196 0.20767 0.67098 0.0
O898 O 0.82482 0.181 0.62049 0.0
O899 O 0.8844 0.20266 0.64149 0.0
O900 O 0.85483 0.23447 0.64498 0.0
C901 C 0.77963 0.13989 0.68999 0.0
C902 C 0.84581 0.17187 0.72604 0.0
C903 C 0.82696 0.1083 0.67983 0.0
C904 C 0.82464 0.16134 0.62143 0.0
C905 C 0.89102 0.19361 0.65567 0.0
C906 C 0.84749 0.22882 0.66379 0.0
O907 O 0.78411 0.12763 0.70284 0.0
O908 O 0.79566 0.15463 0.67754 0.0
H909 H 0.35418 0.86738 0.02418 0.0
H910 H 0.32229 0.9052 0.05297 0.0
H911 H 0.35886 0.94341 0.04737 0.0
H912 H 0.40036 0.96595 0.03588 0.0
H913 H 0.43265 0.92872 0.00676 0.0
H914 H 0.39526 0.89052 0.01048 0.0
C915 C 0.3551 0.884 0.02895 0.0
C916 C 0.33554 0.88331 0.03923 0.0
C917 C 0.37625 0.90605 0.02562 0.0
C918 C 0.33719 0.90508 0.04544 0.0
C919 C 0.35806 0.92699 0.04213 0.0
C920 C 0.39924 0.94953 0.03019 0.0
C921 C 0.4194 0.95025 0.02119 0.0
C922 C 0.3778 0.92765 0.03252 0.0
C923 C 0.41746 0.92876 0.01376 0.0
C924 C 0.39609 0.90686 0.01596 0.0
H925 H 0.13367 0.4831 0.01284 0.0
H926 H 0.0978 0.42307 0.05475 0.0
H927 H 0.06113 0.42474 0.05154 0.0
H928 H 0.0397 0.44416 0.03811 0.0
H929 H 0.07486 0.50374 0.99569 0.0
H930 H 0.11118 0.50096 0.99749 0.0
C931 C 0.11773 0.47017 0.02103 0.0
C932 C 0.11862 0.4532 0.03423 0.0
C933 C 0.09657 0.47112 0.01903 0.0
C934 C 0.09781 0.43667 0.04484 0.0
C935 C 0.07676 0.4375 0.04293 0.0
C936 C 0.05525 0.45648 0.02915 0.0
C937 C 0.05459 0.47423 0.0169 0.0
C938 C 0.07604 0.45485 0.03031 0.0
C939 C 0.07485 0.48988 0.00524 0.0
C940 C 0.09567 0.48837 0.00633 0.0
H941 H 0.50969 0.63758 0.04734 0.0
H942 H 0.5675 0.6855 0.00739 0.0
H943 H 0.56727 0.6513 0.9908 0.0
H944 H 0.54985 0.6081 0.98669 0.0
H945 H 0.49307 0.55925 0.02701 0.0
H946 H 0.49383 0.59348 0.04468 0.0
C947 C 0.5222 0.6404 0.03502 0.0
C948 C 0.53852 0.66395 0.02848 0.0
C949 C 0.52216 0.62058 0.02569 0.0
C950 C 0.55487 0.66753 0.0127 0.0
C951 C 0.5547 0.648 0.00318 0.0
C952 C 0.53763 0.60489 0.99937 0.0
C953 C 0.52118 0.58122 0.00535 0.0
C954 C 0.53831 0.62451 0.00942 0.0
C955 C 0.50583 0.57735 0.02209 0.0
C956 C 0.50621 0.5969 0.03211 0.0
H957 H 0.89231 0.37127 0.94157 0.0
H958 H 0.84973 0.3335 0.99484 0.0
H959 H 0.87489 0.36791 0.01671 0.0
H960 H 0.91098 0.40702 0.02139 0.0
H961 H 0.95615 0.44319 0.96925 0.0
H962 H 0.92784 0.41141 0.9461 0.0
C963 C 0.88853 0.37054 0.95796 0.0
C964 C 0.86916 0.34968 0.96651 0.0
C965 C 0.90347 0.39022 0.97061 0.0
C966 C 0.86428 0.34932 0.98774 0.0
C967 C 0.87879 0.36896 0.00032 0.0
C968 C 0.91444 0.40814 0.0049 0.0
C969 C 0.93536 0.42773 0.99686 0.0
C970 C 0.89867 0.38927 0.992 0.0
C971 C 0.93969 0.42883 0.97554 0.0
C972 C 0.92374 0.41039 0.96244 0.0
H973 H 0.6537 0.53389 0.94579 0.0
H974 H 0.67132 0.54201 0.01075 0.0
H975 H 0.631 0.53359 0.01924 0.0
H976 H 0.59105 0.52577 0.00796 0.0
H977 H 0.57512 0.52013 0.94269 0.0
H978 H 0.61441 0.52593 0.93464 0.0
C979 C 0.64887 0.53408 0.96182 0.0
C980 C 0.66566 0.53876 0.97756 0.0
C981 C 0.62586 0.52969 0.96656 0.0
C982 C 0.65875 0.53828 0.99828 0.0
C983 C 0.63571 0.53359 0.00316 0.0
C984 C 0.59618 0.52563 0.99202 0.0
C985 C 0.58025 0.52267 0.97596 0.0
C986 C 0.61914 0.52947 0.9874 0.0
C987 C 0.58714 0.52263 0.95535 0.0
C988 C 0.60961 0.52591 0.9507 0.0
H989 H 0.52261 0.14739 0.9602 0.0
H990 H 0.44659 0.11038 0.94876 0.0
H991 H 0.44259 0.0736 0.96325 0.0
H992 H 0.45944 0.05383 0.98398 0.0
H993 H 0.53469 0.0907 0.99758 0.0
H994 H 0.54044 0.12551 0.97721 0.0
C995 C 0.50523 0.1312 0.96071 0.0
C996 C 0.48492 0.13177 0.95355 0.0
C997 C 0.50294 0.11008 0.96946 0.0
C998 C 0.46257 0.1105 0.95399 0.0
C999 C 0.46021 0.08944 0.96241 0.0
C1000 C 0.47721 0.06919 0.98179 0.0
C1001 C 0.49667 0.06983 0.99196 0.0
C1002 C 0.48011 0.08925 0.97076 0.0
C1003 C 0.51958 0.08982 0.9895 0.0
C1004 C 0.52276 0.10979 0.97813 0.0
H1005 H 0.65035 0.11183 0.94716 0.0
H1006 H 0.66219 0.13569 0.01065 0.0
H1007 H 0.62294 0.10216 0.02011 0.0
H1008 H 0.58511 0.0654 0.0103 0.0
H1009 H 0.57521 0.04137 0.94682 0.0
H1010 H 0.6138 0.07531 0.93762 0.0
C1011 C 0.64459 0.10957 0.96315 0.0
C1012 C 0.65935 0.12632 0.97812 0.0
C1013 C 0.6222 0.0901 0.96855 0.0
C1014 C 0.65115 0.12328 0.99869 0.0
C1015 C 0.62872 0.10401 0.00416 0.0
C1016 C 0.59144 0.06767 0.99448 0.0
C1017 C 0.57726 0.05073 0.97934 0.0
C1018 C 0.61403 0.08726 0.98921 0.0
C1019 C 0.58578 0.05392 0.95889 0.0
C1020 C 0.60788 0.07341 0.95354 0.0
H1021 H 0.88 0.53197 0.97193 0.0
H1022 H 0.92745 0.6087 0.96763 0.0
H1023 H 0.96081 0.60407 0.97909 0.0
H1024 H 0.97743 0.5779 0.98576 0.0
H1025 H 0.93055 0.50133 0.991 0.0
H1026 H 0.89588 0.50624 0.98431 0.0
C1027 C 0.89749 0.54773 0.97404 0.0
C1028 C 0.90134 0.57059 0.96841 0.0
C1029 C 0.91671 0.54495 0.98068 0.0
C1030 C 0.92414 0.59083 0.97128 0.0
C1031 C 0.94323 0.58823 0.9779 0.0
C1032 C 0.95955 0.56235 0.98586 0.0
C1033 C 0.95648 0.53929 0.98858 0.0
C1034 C 0.93988 0.56532 0.98188 0.0
C1035 C 0.93329 0.51927 0.98895 0.0
C1036 C 0.91351 0.52207 0.98496 0.0
H1037 H 0.50347 0.38064 0.93346 0.0
H1038 H 0.4931 0.33176 0.98348 0.0
H1039 H 0.49787 0.36197 0.00856 0.0
H1040 H 0.49915 0.39957 0.01617 0.0
H1041 H 0.50968 0.44945 0.96731 0.0
H1042 H 0.51082 0.42164 0.94178 0.0
C1043 C 0.50259 0.37678 0.94986 0.0
C1044 C 0.49775 0.35385 0.95654 0.0
C1045 C 0.505 0.39423 0.96434 0.0
C1046 C 0.49703 0.34924 0.97785 0.0
C1047 C 0.49953 0.36646 0.99225 0.0
C1048 C 0.50202 0.40457 -4e-05 0.0
C1049 C 0.50323 0.42602 0.9934 0.0
C1050 C 0.50268 0.38861 0.98564 0.0
C1051 C 0.50781 0.4326 0.97251 0.0
C1052 C 0.50851 0.41673 0.958 0.0
H1053 H 0.1468 0.64589 0.03502 0.0
H1054 H 0.09482 0.63353 0.0823 0.0
H1055 H 0.0652 0.59726 0.06445 0.0
H1056 H 0.05242 0.57286 0.03251 0.0
H1057 H 0.10433 0.58591 0.9852 0.0
H1058 H 0.13578 0.61766 0.00613 0.0
C1059 C 0.12922 0.63494 0.04174 0.0
C1060 C 0.12294 0.64276 0.05973 0.0
C1061 C 0.11221 0.61417 0.03133 0.0
C1062 C 0.09996 0.62832 0.06814 0.0
C1063 C 0.08302 0.60748 0.058 0.0
C1064 C 0.07085 0.58189 0.02734 0.0
C1065 C 0.07624 0.57691 0.0076 0.0
C1066 C 0.08868 0.60069 0.03919 0.0
C1067 C 0.09994 0.58937 0.00052 0.0
C1068 C 0.11785 0.60766 0.01238 0.0
H1069 H 0.35856 0.48386 0.03241 0.0
H1070 H 0.32325 0.40637 0.03372 0.0
H1071 H 0.35989 0.40777 0.02251 0.0
H1072 H 0.40294 0.43095 0.01625 0.0
H1073 H 0.43884 0.50838 0.01443 0.0
H1074 H 0.40101 0.50713 0.02166 0.0
C1075 C 0.35889 0.46733 0.02998 0.0
C1076 C 0.33827 0.44505 0.03403 0.0
C1077 C 0.38013 0.46826 0.02356 0.0
C1078 C 0.33881 0.42373 0.03058 0.0
C1079 C 0.35981 0.42451 0.02431 0.0
C1080 C 0.40238 0.44753 0.01708 0.0
C1081 C 0.42359 0.46971 0.01505 0.0
C1082 C 0.38069 0.44665 0.0213 0.0
C1083 C 0.42266 0.49108 0.01589 0.0
C1084 C 0.40109 0.49037 0.0202 0.0
H1085 H 0.53273 0.89752 0.07086 0.0
H1086 H 0.51006 0.84399 0.02257 0.0
H1087 H 0.5 0.86829 0.00051 0.0
H1088 H 0.50061 0.90595 0.99374 0.0
H1089 H 0.52149 0.95917 0.04187 0.0
H1090 H 0.52839 0.93334 0.0655 0.0
C1091 C 0.52513 0.8909 0.05569 0.0
C1092 C 0.52276 0.86913 0.04827 0.0
C1093 C 0.519 0.90487 0.04307 0.0
C1094 C 0.51288 0.86098 0.0285 0.0
C1095 C 0.50691 0.87478 0.01589 0.0
C1096 C 0.5064 0.91178 0.0095 0.0
C1097 C 0.51081 0.9345 0.01601 0.0
C1098 C 0.51044 0.89697 0.02282 0.0
C1099 C 0.51793 0.9417 0.03653 0.0
C1100 C 0.52207 0.92702 0.04996 0.0
H1101 H 0.02137 0.20332 0.34934 0.0
H1102 H 0.0146 0.22696 0.41021 0.0
H1103 H 0.0535 0.26297 0.40657 0.0
H1104 H 0.08933 0.28779 0.38649 0.0
H1105 H 0.09768 0.26469 0.32596 0.0
H1106 H 0.05844 0.22823 0.32927 0.0
C1107 C 0.02849 0.21626 0.36187 0.0
C1108 C 0.01482 0.21246 0.37994 0.0
C1109 C 0.05118 0.23699 0.35979 0.0
C1110 C 0.02435 0.22957 0.39594 0.0
C1111 C 0.04674 0.25014 0.39395 0.0
C1112 C 0.08266 0.27485 0.37394 0.0
C1113 C 0.09645 0.27909 0.35595 0.0
C1114 C 0.06024 0.25406 0.37596 0.0
C1115 C 0.08746 0.26194 0.33998 0.0
C1116 C 0.065 0.24109 0.34186 0.0
H1117 H 0.75626 0.75782 0.36729 0.0
H1118 H 0.81105 0.83247 0.3713 0.0
H1119 H 0.78265 0.84454 0.35937 0.0
H1120 H 0.74076 0.83384 0.35238 0.0
H1121 H 0.68577 0.75908 0.352 0.0
H1122 H 0.71558 0.74709 0.35803 0.0
C1123 C 0.76204 0.77675 0.36549 0.0
C1124 C 0.78563 0.7942 0.37052 0.0
C1125 C 0.74545 0.78354 0.35945 0.0
C1126 C 0.79301 0.81863 0.36751 0.0
C1127 C 0.7767 0.82556 0.36087 0.0
C1128 C 0.73548 0.81495 0.35318 0.0
C1129 C 0.71116 0.79734 0.35184 0.0
C1130 C 0.75267 0.80818 0.35743 0.0
C1131 C 0.7044 0.77292 0.35314 0.0
C1132 C 0.72142 0.76606 0.35661 0.0
H1133 H 0.18347 0.96391 0.40076 0.0
H1134 H 0.21447 0.01676 0.35209 0.0
H1135 H 0.20882 0.98555 0.32761 0.0
H1136 H 0.19707 0.94395 0.32034 0.0
H1137 H 0.16546 0.89028 0.36818 0.0
H1138 H 0.16965 0.92118 0.39284 0.0
C1139 C 0.18894 0.96853 0.38479 0.0
C1140 C 0.19931 0.99263 0.37825 0.0
C1141 C 0.18576 0.95045 0.37074 0.0
C1142 C 0.20611 0.99834 0.35746 0.0
C1143 C 0.20305 0.98053 0.34347 0.0
C1144 C 0.19091 0.93888 0.33612 0.0
C1145 C 0.18147 0.91491 0.3426 0.0
C1146 C 0.19313 0.95661 0.34999 0.0
C1147 C 0.17341 0.90873 0.36304 0.0
C1148 C 0.17564 0.92636 0.37706 0.0
H1149 H 0.55878 0.71559 0.26766 0.0
H1150 H 0.50634 0.68331 0.31633 0.0
H1151 H 0.53082 0.71718 0.3389 0.0
H1152 H 0.56921 0.75288 0.34635 0.0
H1153 H 0.6215 0.78635 0.29815 0.0
H1154 H 0.59453 0.75561 0.27346 0.0
C1155 C 0.55237 0.7162 0.283 0.0
C1156 C 0.53098 0.69648 0.29043 0.0
C1157 C 0.56651 0.73594 0.29596 0.0
C1158 C 0.52307 0.69775 0.3104 0.0
C1159 C 0.53697 0.71723 0.3233 0.0
C1160 C 0.57449 0.75378 0.33031 0.0
C1161 C 0.59755 0.7714 0.32411 0.0
C1162 C 0.55906 0.73595 0.31648 0.0
C1163 C 0.60398 0.7727 0.30324 0.0
C1164 C 0.58861 0.75502 0.28923 0.0
H1165 H 0.32076 0.87603 0.27888 0.0
H1166 H 0.33348 0.87101 0.34372 0.0
H1167 H 0.29361 0.86398 0.35201 0.0
H1168 H 0.2552 0.8602 0.34083 0.0
H1169 H 0.24411 0.86739 0.27597 0.0
H1170 H 0.28325 0.8729 0.26785 0.0
C1171 C 0.315 0.87372 0.29488 0.0
C1172 C 0.33023 0.87414 0.31061 0.0
C1173 C 0.29224 0.87008 0.29958 0.0
C1174 C 0.3221 0.87051 0.33121 0.0
C1175 C 0.29931 0.86662 0.33601 0.0
C1176 C 0.26137 0.8629 0.32494 0.0
C1177 C 0.24676 0.8635 0.30908 0.0
C1178 C 0.28421 0.86643 0.32031 0.0
C1179 C 0.25504 0.86709 0.28855 0.0
C1180 C 0.27744 0.87019 0.28384 0.0
H1181 H 0.16312 0.46518 0.28765 0.0
H1182 H 0.10078 0.45037 0.32324 0.0
H1183 H 0.10136 0.41674 0.34014 0.0
H1184 H 0.12073 0.39316 0.34635 0.0
H1185 H 0.18241 0.40635 0.31062 0.0
H1186 H 0.18086 0.43891 0.29202 0.0
C1187 C 0.14965 0.45447 0.29904 0.0
C1188 C 0.13198 0.46029 0.30427 0.0
C1189 C 0.15002 0.435 0.30868 0.0
C1190 C 0.11443 0.44613 0.31886 0.0
C1191 C 0.11482 0.42699 0.32861 0.0
C1192 C 0.13383 0.4031 0.33445 0.0
C1193 C 0.1519 0.39768 0.33008 0.0
C1194 C 0.13271 0.42152 0.32386 0.0
C1195 C 0.1684 0.41032 0.31431 0.0
C1196 C 0.16756 0.42896 0.30376 0.0
H1197 H 0.31844 0.47711 0.31598 0.0
H1198 H 0.35107 0.43825 0.29062 0.0
H1199 H 0.31511 0.40022 0.29814 0.0
H1200 H 0.27378 0.37804 0.30972 0.0
H1201 H 0.24032 0.41587 0.33535 0.0
H1202 H 0.27752 0.45427 0.3305 0.0
C1203 C 0.31782 0.46032 0.31239 0.0
C1204 C 0.33737 0.46062 0.3024 0.0
C1205 C 0.29698 0.43835 0.31684 0.0
C1206 C 0.33615 0.43864 0.29781 0.0
C1207 C 0.31563 0.41684 0.30224 0.0
C1208 C 0.27462 0.39466 0.31443 0.0
C1209 C 0.25423 0.39412 0.32268 0.0
C1210 C 0.29582 0.41651 0.31137 0.0
C1211 C 0.25577 0.41579 0.32898 0.0
C1212 C 0.27698 0.43775 0.32607 0.0
H1213 H 0.58282 0.91937 0.31019 0.0
H1214 H 0.5325 0.84399 0.30091 0.0
H1215 H 0.56237 0.83382 0.31245 0.0
H1216 H 0.60454 0.84684 0.32036 0.0
H1217 H 0.65547 0.92258 0.32598 0.0
H1218 H 0.62376 0.93212 0.32064 0.0
C1219 C 0.57833 0.90068 0.31078 0.0
C1220 C 0.55557 0.88253 0.30437 0.0
C1221 C 0.59584 0.89505 0.3166 0.0
C1222 C 0.54984 0.85836 0.3058 0.0
C1223 C 0.56701 0.85253 0.31222 0.0
C1224 C 0.60852 0.86537 0.32086 0.0
C1225 C 0.63227 0.88401 0.32344 0.0
C1226 C 0.59031 0.87079 0.31697 0.0
C1227 C 0.63732 0.90797 0.32386 0.0
C1228 C 0.61922 0.91343 0.32077 0.0
H1229 H 0.14612 0.70638 0.26902 0.0
H1230 H 0.1786 0.68102 0.31326 0.0
H1231 H 0.18839 0.71533 0.33552 0.0
H1232 H 0.18271 0.74914 0.34456 0.0
H1233 H 0.14987 0.77438 0.30097 0.0
H1234 H 0.14635 0.74428 0.27574 0.0
C1235 C 0.15593 0.70867 0.28323 0.0
C1236 C 0.16108 0.69076 0.28966 0.0
C1237 C 0.16159 0.72854 0.29599 0.0
C1238 C 0.17374 0.69408 0.30821 0.0
C1239 C 0.17951 0.7138 0.3209 0.0
C1240 C 0.17547 0.74847 0.32927 0.0
C1241 C 0.16679 0.764 0.32442 0.0
C1242 C 0.17276 0.73062 0.31529 0.0
C1243 C 0.15726 0.76299 0.30472 0.0
C1244 C 0.15483 0.74547 0.2905 0.0
H1245 H 0.81742 0.97732 0.37731 0.0
H1246 H 0.76212 0.97297 0.41745 0.0
H1247 H 0.73279 0.93574 0.40063 0.0
H1248 H 0.72174 0.90925 0.37018 0.0
H1249 H 0.77671 0.91415 0.32964 0.0
H1250 H 0.8074 0.94595 0.35115 0.0
C1251 C 0.79911 0.96789 0.38278 0.0
C1252 C 0.79188 0.9783 0.39824 0.0
C1253 C 0.78224 0.94658 0.37288 0.0
C1254 C 0.76803 0.96576 0.40513 0.0
C1255 C 0.75124 0.94439 0.39559 0.0
C1256 C 0.74053 0.91628 0.36686 0.0
C1257 C 0.74708 0.90908 0.34873 0.0
C1258 C 0.75794 0.93521 0.37886 0.0
C1259 C 0.77138 0.91921 0.3438 0.0
C1260 C 0.78888 0.9376 0.35593 0.0
H1261 H 0.02291 0.81995 0.35238 0.0
H1262 H 0.9959 0.75646 0.39055 0.0
H1263 H 0.03313 0.75611 0.38611 0.0
H1264 H 0.07363 0.77431 0.37239 0.0
H1265 H 0.10109 0.83765 0.33397 0.0
H1266 H 0.06319 0.83721 0.33716 0.0
C1267 C 0.02506 0.80587 0.35952 0.0
C1268 C 0.00668 0.78841 0.37197 0.0
C1269 C 0.04656 0.80569 0.35683 0.0
C1270 C 0.0099 0.77042 0.38125 0.0
C1271 C 0.03114 0.77009 0.3786 0.0
C1272 C 0.07136 0.78798 0.36458 0.0
C1273 C 0.09028 0.80604 0.35303 0.0
C1274 C 0.04965 0.78775 0.36661 0.0
C1275 C 0.08686 0.82351 0.34297 0.0
C1276 C 0.0652 0.82332 0.34484 0.0
H1277 H 0.17061 0.19958 0.38251 0.0
H1278 H 0.24372 0.22463 0.36487 0.0
H1279 H 0.2461 0.25991 0.34852 0.0
H1280 H 0.2268 0.28203 0.33705 0.0
H1281 H 0.15427 0.25891 0.35483 0.0
H1282 H 0.15224 0.22459 0.37367 0.0
C1283 C 0.18704 0.21291 0.37518 0.0
C1284 C 0.20695 0.20952 0.37479 0.0
C1285 C 0.18835 0.23338 0.36589 0.0
C1286 C 0.22825 0.22696 0.36548 0.0
C1287 C 0.2296 0.24707 0.35605 0.0
C1288 C 0.21059 0.26957 0.34521 0.0
C1289 C 0.19058 0.27262 0.34436 0.0
C1290 C 0.20968 0.25022 0.35588 0.0
C1291 C 0.16985 0.25677 0.35529 0.0
C1292 C 0.16868 0.23713 0.36591 0.0
H1293 H 0.68993 0.54248 0.68346 0.0
H1294 H 0.68165 0.56512 0.74428 0.0
H1295 H 0.72026 0.60165 0.74109 0.0
H1296 H 0.75655 0.62691 0.72155 0.0
H1297 H 0.76625 0.60443 0.66119 0.0
H1298 H 0.72705 0.56793 0.66385 0.0
C1299 C 0.69664 0.55532 0.69607 0.0
C1300 C 0.6827 0.55104 0.71402 0.0
C1301 C 0.71915 0.57629 0.69427 0.0
C1302 C 0.69165 0.56807 0.73011 0.0
C1303 C 0.71387 0.58893 0.72838 0.0
C1304 C 0.75015 0.61411 0.7089 0.0
C1305 C 0.76435 0.6185 0.69117 0.0
C1306 C 0.72775 0.59321 0.71057 0.0
C1307 C 0.7557 0.60156 0.67502 0.0
C1308 C 0.73328 0.58068 0.67653 0.0
H1309 H 0.46028 0.14656 0.71093 0.0
H1310 H 0.42315 0.07324 0.68892 0.0
H1311 H 0.39008 0.07815 0.67709 0.0
H1312 H 0.36929 0.10123 0.67768 0.0
H1313 H 0.4063 0.17483 0.69847 0.0
H1314 H 0.44215 0.17212 0.70557 0.0
C1315 C 0.44529 0.13187 0.70301 0.0
C1316 C 0.44393 0.10933 0.70137 0.0
C1317 C 0.42625 0.13482 0.69616 0.0
C1318 C 0.42434 0.09054 0.69099 0.0
C1319 C 0.40543 0.09334 0.68414 0.0
C1320 C 0.38544 0.11683 0.68329 0.0
C1321 C 0.38519 0.13808 0.68778 0.0
C1322 C 0.40579 0.11506 0.68741 0.0
C1323 C 0.40618 0.1583 0.69485 0.0
C1324 C 0.42657 0.15667 0.69908 0.0
H1325 H 0.85536 0.30239 0.73266 0.0
H1326 H 0.8814 0.35003 0.68004 0.0
H1327 H 0.87309 0.31635 0.65748 0.0
H1328 H 0.86053 0.27428 0.65292 0.0
H1329 H 0.83586 0.22589 0.70507 0.0
H1330 H 0.84107 0.25889 0.72763 0.0
C1331 C 0.85893 0.30524 0.71622 0.0
C1332 C 0.86914 0.32865 0.708 0.0
C1333 C 0.85435 0.28575 0.70332 0.0
C1334 C 0.87386 0.33223 0.68672 0.0
C1335 C 0.86902 0.31298 0.67382 0.0
C1336 C 0.85606 0.27075 0.66919 0.0
C1337 C 0.84791 0.24763 0.67732 0.0
C1338 C 0.8596 0.28979 0.68199 0.0
C1339 C 0.84219 0.24353 0.69844 0.0
C1340 C 0.84526 0.26242 0.71133 0.0
H1341 H 0.19305 0.02652 0.63305 0.0
H1342 H 0.24639 0.04017 0.58676 0.0
H1343 H 0.2754 0.0761 0.6054 0.0
H1344 H 0.2874 0.09899 0.63815 0.0
H1345 H 0.2343 0.08394 0.68482 0.0
H1346 H 0.20319 0.05392 0.66246 0.0
C1347 C 0.21077 0.03772 0.62667 0.0
C1348 C 0.21766 0.03027 0.6088 0.0
C1349 C 0.22746 0.05821 0.63761 0.0
C1350 C 0.24079 0.04507 0.60083 0.0
C1351 C 0.25739 0.06571 0.61143 0.0
C1352 C 0.26883 0.08991 0.64292 0.0
C1353 C 0.26298 0.09369 0.66292 0.0
C1354 C 0.25123 0.07185 0.63032 0.0
C1355 C 0.23903 0.08139 0.66933 0.0
C1356 C 0.22133 0.06403 0.65666 0.0
H1357 H 0.98758 0.1913 0.65645 0.0
H1358 H 0.00557 0.24642 0.61034 0.0
H1359 H 0.96673 0.24332 0.61488 0.0
H1360 H 0.92747 0.22445 0.63115 0.0
H1361 H 0.90923 0.16998 0.67788 0.0
H1362 H 0.94867 0.17378 0.6742 0.0
C1363 C 0.98315 0.20288 0.64759 0.0
C1364 C 0.99946 0.21891 0.63291 0.0
C1365 C 0.96079 0.20117 0.65041 0.0
C1366 C 0.99324 0.23357 0.62143 0.0
C1367 C 0.97108 0.23193 0.62411 0.0
C1368 C 0.93208 0.21343 0.64062 0.0
C1369 C 0.91535 0.19685 0.65469 0.0
C1370 C 0.95466 0.21566 0.6384 0.0
C1371 C 0.92178 0.1829 0.66694 0.0
C1372 C 0.94429 0.18501 0.66479 0.0
H1373 H 0.83229 0.80176 0.62222 0.0
H1374 H 0.77178 0.78915 0.65955 0.0
H1375 H 0.77358 0.75695 0.67789 0.0
H1376 H 0.79314 0.73368 0.68443 0.0
H1377 H 0.85282 0.74439 0.64694 0.0
H1378 H 0.85052 0.776 0.62741 0.0
C1379 C 0.81949 0.79185 0.63432 0.0
C1380 C 0.80194 0.79782 0.63956 0.0
C1381 C 0.82054 0.77317 0.64479 0.0
C1382 C 0.78529 0.78473 0.65511 0.0
C1383 C 0.78639 0.76642 0.66569 0.0
C1384 C 0.80571 0.74294 0.672 0.0
C1385 C 0.82339 0.73704 0.66735 0.0
C1386 C 0.80408 0.76071 0.66082 0.0
C1387 C 0.83915 0.74875 0.65087 0.0
C1388 C 0.83785 0.76683 0.63977 0.0
H1389 H 0.98737 0.81148 0.65198 0.0
H1390 H 0.02199 0.77264 0.63118 0.0
H1391 H 0.98662 0.73466 0.64004 0.0
H1392 H 0.94513 0.71231 0.65125 0.0
H1393 H 0.90959 0.75024 0.6719 0.0
H1394 H 0.94631 0.78873 0.66619 0.0
C1395 C 0.9873 0.79473 0.64968 0.0
C1396 C 0.00724 0.79497 0.64057 0.0
C1397 C 0.96677 0.77278 0.65485 0.0
C1398 C 0.00675 0.77303 0.63766 0.0
C1399 C 0.98657 0.75126 0.64286 0.0
C1400 C 0.94541 0.72897 0.65476 0.0
C1401 C 0.92453 0.72835 0.66182 0.0
C1402 C 0.96635 0.75091 0.65107 0.0
C1403 C 0.92539 0.75015 0.66649 0.0
C1404 C 0.94635 0.77218 0.66306 0.0
H1405 H 0.19802 0.17249 0.64252 0.0
H1406 H 0.22524 0.24516 0.66414 0.0
H1407 H 0.25693 0.24332 0.68303 0.0
H1408 H 0.28059 0.22365 0.68848 0.0
H1409 H 0.25442 0.15149 0.66593 0.0
H1410 H 0.21848 0.15037 0.65271 0.0
C1411 C 0.2107 0.18776 0.65164 0.0
C1412 C 0.2095 0.20904 0.65168 0.0
C1413 C 0.22918 0.18674 0.66218 0.0
C1414 C 0.22572 0.22855 0.66388 0.0
C1415 C 0.24398 0.22758 0.67457 0.0
C1416 C 0.26675 0.20746 0.68111 0.0
C1417 C 0.2704 0.18789 0.67783 0.0
C1418 C 0.24643 0.20714 0.67313 0.0
C1419 C 0.25215 0.16688 0.66856 0.0
C1420 C 0.23167 0.1663 0.66081 0.0
H1421 H 0.80791 0.03799 0.60645 0.0
H1422 H 0.84376 0.01369 0.64806 0.0
H1423 H 0.85306 0.04713 0.67127 0.0
H1424 H 0.84686 0.08034 0.68168 0.0
H1425 H 0.81111 0.10471 0.6404 0.0
H1426 H 0.80683 0.07484 0.61463 0.0
C1427 C 0.81833 0.04032 0.62029 0.0
C1428 C 0.82468 0.02298 0.62566 0.0
C1429 C 0.82374 0.05971 0.63357 0.0
C1430 C 0.83803 0.02632 0.6438 0.0
C1431 C 0.8435 0.04554 0.65704 0.0
C1432 C 0.83873 0.07947 0.66677 0.0
C1433 C 0.8296 0.0948 0.6627 0.0
C1434 C 0.83581 0.06188 0.65238 0.0
C1435 C 0.81883 0.09347 0.64355 0.0
C1436 C 0.81605 0.07614 0.62899 0.0
H1437 H 0.46056 0.29455 0.74013 0.0
H1438 H 0.4812 0.34097 0.6866 0.0
H1439 H 0.45114 0.3082 0.66592 0.0
H1440 H 0.41527 0.26879 0.66426 0.0
H1441 H 0.39224 0.22245 0.71768 0.0
H1442 H 0.42705 0.25261 0.73713 0.0
C1443 C 0.45863 0.29741 0.72388 0.0
C1444 C 0.47304 0.32037 0.71505 0.0
C1445 C 0.44073 0.27856 0.71211 0.0
C1446 C 0.47062 0.32356 0.69385 0.0
C1447 C 0.45323 0.30485 0.682 0.0
C1448 C 0.4181 0.26508 0.68006 0.0
C1449 C 0.40105 0.24367 0.68968 0.0
C1450 C 0.43766 0.28264 0.69116 0.0
C1451 C 0.40511 0.23886 0.70999 0.0
C1452 C 0.42489 0.2562 0.72114 0.0
H1453 H 0.68611 0.14811 0.68846 0.0
H1454 H 0.66378 0.09005 0.73232 0.0
H1455 H 0.70168 0.09106 0.72813 0.0
H1456 H 0.74132 0.10877 0.71279 0.0
H1457 H 0.76419 0.16658 0.66861 0.0
H1458 H 0.72567 0.16489 0.67182 0.0
C1459 C 0.68943 0.13551 0.69693 0.0
C1460 C 0.67214 0.1192 0.71086 0.0
C1461 C 0.71131 0.13604 0.69434 0.0
C1462 C 0.6769 0.10314 0.72183 0.0
C1463 C 0.69852 0.10356 0.71934 0.0
C1464 C 0.73793 0.12096 0.70373 0.0
C1465 C 0.75573 0.13783 0.69052 0.0
C1466 C 0.7159 0.12004 0.70577 0.0
C1467 C 0.75084 0.15338 0.67888 0.0
C1468 C 0.72884 0.15249 0.68077 0.0
H1469 H 0.85636 0.55057 0.72797 0.0
H1470 H 0.81242 0.50231 0.67954 0.0
H1471 H 0.80842 0.53448 0.66372 0.0
H1472 H 0.82305 0.57762 0.66042 0.0
H1473 H 0.86626 0.62614 0.70863 0.0
H1474 H 0.86408 0.5924 0.72831 0.0
C1475 C 0.84533 0.54686 0.71431 0.0
C1476 C 0.83538 0.52419 0.7046 0.0
C1477 C 0.84295 0.56551 0.70528 0.0
C1478 C 0.82106 0.5198 0.68692 0.0
C1479 C 0.81858 0.53814 0.67792 0.0
C1480 C 0.83114 0.58058 0.67564 0.0
C1481 C 0.84476 0.60411 0.68317 0.0
C1482 C 0.83027 0.56127 0.68647 0.0
C1483 C 0.85545 0.60802 0.70274 0.0
C1484 C 0.85448 0.58878 0.7138 0.0
H1485 H 0.50424 0.99054 0.15267 0.0
H1486 H 0.46966 0.91762 0.13005 0.0
H1487 H 0.48218 0.93227 0.09479 0.0
H1488 H 0.49686 0.96583 0.06995 0.0
H1489 H 0.5291 0.03856 0.09267 0.0
H1490 H 0.52412 0.02409 0.12825 0.0
C1491 C 0.49968 0.97787 0.14004 0.0
C1492 C 0.48569 0.95306 0.14392 0.0
C1493 C 0.50654 0.98643 0.11978 0.0
C1494 C 0.48037 0.93682 0.12748 0.0
C1495 C 0.48742 0.94519 0.10728 0.0
C1496 C 0.50369 0.97853 0.08267 0.0
C1497 C 0.51331 0.00322 0.07874 0.0
C1498 C 0.49977 0.96997 0.10315 0.0
C1499 C 0.52167 0.01948 0.09537 0.0
C1500 C 0.51857 0.01119 0.11571 0.0
H1501 H 0.06724 0.55131 0.12996 0.0
H1502 H 0.99944 0.51127 0.16103 0.0
H1503 H 0.97845 0.50646 0.12836 0.0
H1504 H 0.97972 0.50756 0.09044 0.0
H1505 H 0.04773 0.54508 0.05928 0.0
H1506 H 0.06824 0.55781 0.09241 0.0
C1507 C 0.04786 0.54186 0.12957 0.0
C1508 C 0.03486 0.53124 0.14772 0.0
C1509 C 0.03597 0.53878 0.11069 0.0
C1510 C 0.0098 0.5195 0.14721 0.0
C1511 C 0.99781 0.51664 0.12852 0.0
C1512 C 0.99899 0.51908 0.09091 0.0
C1513 C 0.01218 0.52525 0.0724 0.0
C1514 C 0.01074 0.52533 0.11007 0.0
C1515 C 0.0371 0.54035 0.07322 0.0
C1516 C 0.0489 0.54728 0.09223 0.0
H1517 H 0.50751 0.52109 0.14758 0.0
H1518 H 0.47465 0.55962 0.1222 0.0
H1519 H 0.48711 0.55563 0.08744 0.0
H1520 H 0.50129 0.53521 0.0639 0.0
H1521 H 0.53139 0.49421 0.08945 0.0
H1522 H 0.52666 0.50559 0.1244 0.0
C1523 C 0.50332 0.52884 0.13445 0.0
C1524 C 0.48983 0.54026 0.13743 0.0
C1525 C 0.51009 0.52604 0.11449 0.0
C1526 C 0.48498 0.5507 0.12034 0.0
C1527 C 0.492 0.54832 0.10043 0.0
C1528 C 0.50767 0.52959 0.0771 0.0
C1529 C 0.51665 0.51389 0.07417 0.0
C1530 C 0.50381 0.53527 0.09723 0.0
C1531 C 0.52447 0.50636 0.09139 0.0
C1532 C 0.52152 0.51264 0.11138 0.0
H1533 H 0.93486 0.4627 0.87514 0.0
H1534 H 1.00039 0.50131 0.84061 0.0
H1535 H 0.02358 0.50587 0.87193 0.0
H1536 H 0.025 0.50471 0.90993 0.0
H1537 H 0.95913 0.46908 0.94433 0.0
H1538 H 0.93634 0.45654 0.91238 0.0
C1539 C 0.95422 0.47183 0.87448 0.0
C1540 C 0.96597 0.4821 0.85579 0.0
C1541 C 0.96735 0.47468 0.89255 0.0
C1542 C 0.991 0.49341 0.85491 0.0
C1543 C 0.00424 0.49608 0.87281 0.0
C1544 C 0.00569 0.4935 0.91036 0.0
C1545 C 0.99382 0.48744 0.92953 0.0
C1546 C 0.9926 0.48759 0.89185 0.0
C1547 C 0.9688 0.47311 0.92991 0.0
C1548 C 0.95568 0.46648 0.91156 0.0
H1549 H 0.5114 0.45537 0.87039 0.0
H1550 H 0.50825 0.51593 0.84516 0.0
H1551 H 0.49241 0.52102 0.87779 0.0
H1552 H 0.48481 0.51181 0.91455 0.0
H1553 H 0.48828 0.45173 0.94029 0.0
H1554 H 0.49791 0.44241 0.90622 0.0
C1555 C 0.50672 0.46932 0.87187 0.0
C1556 C 0.51146 0.48555 0.85547 0.0
C1557 C 0.49782 0.47231 0.8908 0.0
C1558 C 0.50534 0.50357 0.8577 0.0
C1559 C 0.49616 0.50642 0.87632 0.0
C1560 C 0.48709 0.4963 0.91271 0.0
C1561 C 0.48666 0.48297 0.93017 0.0
C1562 C 0.49312 0.49143 0.89318 0.0
C1563 C 0.48932 0.46276 0.92729 0.0
C1564 C 0.49482 0.45743 0.90778 0.0
H1565 H 0.51307 0.05762 0.87668 0.0
H1566 H 0.49963 0.99144 0.84783 0.0
H1567 H 0.48316 0.96975 0.88012 0.0
H1568 H 0.47753 0.9706 0.91737 0.0
H1569 H 0.49264 0.03701 0.94695 0.0
H1570 H 0.5026 0.05733 0.91347 0.0
C1571 C 0.50606 0.03837 0.87737 0.0
C1572 C 0.50795 0.02624 0.85998 0.0
C1573 C 0.49691 0.02603 0.89614 0.0
C1574 C 0.49885 0.00129 0.86113 0.0
C1575 C 0.48933 0.98885 0.87956 0.0
C1576 C 0.48246 0.98938 0.9165 0.0
C1577 C 0.48469 0.00229 0.93476 0.0
C1578 C 0.489 0.00117 0.89732 0.0
C1579 C 0.49092 0.02661 0.93321 0.0
C1580 C 0.49683 0.03833 0.91406 0.0
H1581 H 0.17825 0.32544 0.48267 0.0
H1582 H 0.14125 0.25231 0.46045 0.0
H1583 H 0.1537 0.26648 0.42509 0.0
H1584 H 0.17017 0.29984 0.40009 0.0
H1585 H 0.20527 0.373 0.42234 0.0
H1586 H 0.1989 0.35866 0.458 0.0
C1587 C 0.1731 0.31261 0.47009 0.0
C1588 C 0.15857 0.28789 0.47416 0.0
C1589 C 0.17996 0.32091 0.44976 0.0
C1590 C 0.15246 0.27144 0.45777 0.0
C1591 C 0.15946 0.27954 0.43751 0.0
C1592 C 0.17706 0.31267 0.41273 0.0
C1593 C 0.18799 0.33747 0.40855 0.0
C1594 C 0.17259 0.30427 0.43325 0.0
C1595 C 0.19668 0.35382 0.42514 0.0
C1596 C 0.19288 0.34563 0.44555 0.0
H1597 H 0.72597 0.88499 0.46774 0.0
H1598 H 0.65854 0.83518 0.49595 0.0
H1599 H 0.63831 0.82937 0.46274 0.0
H1600 H 0.641 0.8335 0.42512 0.0
H1601 H 0.70898 0.88054 0.39651 0.0
H1602 H 0.72757 0.8934 0.43045 0.0
C1603 C 0.70675 0.87337 0.46672 0.0
C1604 C 0.6938 0.86023 0.48417 0.0
C1605 C 0.69534 0.86969 0.44747 0.0
C1606 C 0.66894 0.84513 0.48261 0.0
C1607 C 0.65737 0.84185 0.46366 0.0
C1608 C 0.65977 0.84702 0.42631 0.0
C1609 C 0.67362 0.85599 0.40826 0.0
C1610 C 0.67056 0.85328 0.44586 0.0
C1611 C 0.69784 0.87363 0.41008 0.0
C1612 C 0.70857 0.88066 0.42954 0.0
H1613 H 0.1617 0.88333 0.46636 0.0
H1614 H 0.16893 0.82691 0.49564 0.0
H1615 H 0.18437 0.81998 0.46358 0.0
H1616 H 0.18957 0.82548 0.42628 0.0
H1617 H 0.18102 0.88061 0.39627 0.0
H1618 H 0.17348 0.89332 0.42969 0.0
C1619 C 0.1672 0.86992 0.46585 0.0
C1620 C 0.16362 0.85525 0.48323 0.0
C1621 C 0.17582 0.8658 0.44722 0.0
C1622 C 0.17089 0.83799 0.48232 0.0
C1623 C 0.17985 0.8341 0.46403 0.0
C1624 C 0.18665 0.84069 0.42705 0.0
C1625 C 0.18508 0.85158 0.40867 0.0
C1626 C 0.18146 0.84723 0.4462 0.0
C1627 C 0.18188 0.87162 0.41007 0.0
C1628 C 0.17734 0.87873 0.42921 0.0
H1629 H 0.6256 0.77273 0.2085 0.0
H1630 H 0.66281 0.8406 0.17623 0.0
H1631 H 0.6845 0.86035 0.20766 0.0
H1632 H 0.68997 0.8593 0.24471 0.0
H1633 H 0.65312 0.79208 0.27783 0.0
H1634 H 0.63413 0.77108 0.24562 0.0
C1635 C 0.63852 0.79183 0.20837 0.0
C1636 C 0.64245 0.8052 0.19006 0.0
C1637 C 0.65079 0.8032 0.22664 0.0
C1638 C 0.65956 0.82983 0.19003 0.0
C1639 C 0.67188 0.84119 0.20804 0.0
C1640 C 0.67805 0.83998 0.24496 0.0
C1641 C 0.67232 0.82739 0.26383 0.0
C1642 C 0.66726 0.82817 0.22649 0.0
C1643 C 0.65713 0.80233 0.26366 0.0
C1644 C 0.64639 0.79031 0.24522 0.0
H1645 H 0.16446 0.81429 0.19161 0.0
H1646 H 0.20684 0.78554 0.21665 0.0
H1647 H 0.19341 0.78743 0.25154 0.0
H1648 H 0.17462 0.80291 0.27499 0.0
H1649 H 0.13242 0.83206 0.25024 0.0
H1650 H 0.14065 0.82419 0.21512 0.0
C1651 C 0.17053 0.80823 0.20472 0.0
C1652 C 0.18687 0.80013 0.20164 0.0
C1653 C 0.16286 0.80952 0.22475 0.0
C1654 C 0.19427 0.79187 0.21865 0.0
C1655 C 0.18669 0.79305 0.23861 0.0
C1656 C 0.16636 0.80663 0.26202 0.0
C1657 C 0.15293 0.81808 0.26529 0.0
C1658 C 0.17157 0.80252 0.24188 0.0
C1659 C 0.14288 0.8233 0.24816 0.0
C1660 C 0.14773 0.81897 0.22806 0.0
H1661 H 0.16449 0.38896 0.2065 0.0
H1662 H 0.17287 0.33444 0.17492 0.0
H1663 H 0.16808 0.31345 0.20749 0.0
H1664 H 0.16492 0.31228 0.24506 0.0
H1665 H 0.15834 0.36747 0.2774 0.0
H1666 H 0.15855 0.38621 0.24439 0.0
C1667 C 0.16527 0.37249 0.20678 0.0
C1668 C 0.16917 0.36337 0.18828 0.0
C1669 C 0.16272 0.36057 0.22567 0.0
C1670 C 0.16971 0.34177 0.18886 0.0
C1671 C 0.16706 0.32979 0.2075 0.0
C1672 C 0.16316 0.32821 0.24495 0.0
C1673 C 0.16183 0.33854 0.26373 0.0
C1674 C 0.16395 0.33922 0.22602 0.0
C1675 C 0.15937 0.35909 0.2632 0.0
C1676 C 0.15971 0.36995 0.24432 0.0
H1677 H 0.83753 0.65588 0.81846 0.0
H1678 H 0.79928 0.58407 0.79342 0.0
H1679 H 0.81467 0.59966 0.7589 0.0
H1680 H 0.83466 0.63419 0.7353 0.0
H1681 H 0.87152 0.70614 0.76033 0.0
H1682 H 0.8615 0.69 0.79536 0.0
C1683 C 0.8327 0.64366 0.80545 0.0
C1684 C 0.81701 0.61891 0.80843 0.0
C1685 C 0.84142 0.65278 0.78563 0.0
C1686 C 0.81131 0.6032 0.79153 0.0
C1687 C 0.82004 0.61212 0.77177 0.0
C1688 C 0.84111 0.64632 0.74843 0.0
C1689 C 0.85362 0.67137 0.74517 0.0
C1690 C 0.83459 0.63695 0.76855 0.0
C1691 C 0.86175 0.6868 0.7624 0.0
C1692 C 0.85585 0.6776 0.78244 0.0
H1693 H 0.37618 0.20678 0.81326 0.0
H1694 H 0.32068 0.14033 0.83945 0.0
H1695 H 0.29931 0.1299 0.80654 0.0
H1696 H 0.30019 0.13648 0.76917 0.0
H1697 H 0.35604 0.20256 0.7428 0.0
H1698 H 0.37299 0.21672 0.77714 0.0
C1699 C 0.35903 0.19039 0.81201 0.0
C1700 C 0.35033 0.17409 0.82866 0.0
C1701 C 0.347 0.18434 0.79295 0.0
C1702 C 0.32808 0.15289 0.8267 0.0
C1703 C 0.31583 0.14693 0.8079 0.0
C1704 C 0.31575 0.15423 0.77099 0.0
C1705 C 0.32717 0.16819 0.75342 0.0
C1706 C 0.32571 0.162 0.79069 0.0
C1707 C 0.34703 0.19134 0.75604 0.0
C1708 C 0.35685 0.19938 0.77568 0.0
H1709 H 0.83617 0.18932 0.81913 0.0
H1710 H 0.79341 0.21719 0.79329 0.0
H1711 H 0.80746 0.2155 0.75858 0.0
H1712 H 0.82668 0.19989 0.73537 0.0
H1713 H 0.86793 0.17032 0.76124 0.0
H1714 H 0.86015 0.17932 0.7961 0.0
C1715 C 0.83014 0.19525 0.8059 0.0
C1716 C 0.81348 0.20298 0.80872 0.0
C1717 C 0.83805 0.19392 0.78598 0.0
C1718 C 0.8062 0.21111 0.79152 0.0
C1719 C 0.81415 0.21005 0.77165 0.0
C1720 C 0.83478 0.19634 0.74857 0.0
C1721 C 0.84781 0.1844 0.74574 0.0
C1722 C 0.82945 0.20073 0.76863 0.0
C1723 C 0.85781 0.17948 0.76306 0.0
C1724 C 0.85316 0.1844 0.783 0.0
H1725 H 0.29709 0.13084 0.54211 0.0
H1726 H 0.3231 0.20559 0.52756 0.0
H1727 H 0.33943 0.21715 0.56216 0.0
H1728 H 0.34232 0.20605 0.59742 0.0
H1729 H 0.31437 0.13154 0.61362 0.0
H1730 H 0.30284 0.11988 0.57749 0.0
C1731 C 0.30643 0.14966 0.54649 0.0
C1732 C 0.30873 0.16727 0.53216 0.0
C1733 C 0.31525 0.15623 0.56675 0.0
C1734 C 0.32129 0.19163 0.53803 0.0
C1735 C 0.33047 0.19828 0.55794 0.0
C1736 C 0.33392 0.18723 0.59307 0.0
C1737 C 0.32884 0.16963 0.60824 0.0
C1738 C 0.32696 0.18071 0.57253 0.0
C1739 C 0.31836 0.14541 0.60225 0.0
C1740 C 0.31166 0.13875 0.58162 0.0
H1741 H 0.85988 0.12758 0.54534 0.0
H1742 H 0.83146 0.16656 0.51309 0.0
H1743 H 0.81384 0.17054 0.54522 0.0
H1744 H 0.81112 0.16753 0.58312 0.0
H1745 H 0.84226 0.13109 0.61545 0.0
H1746 H 0.85335 0.12077 0.58273 0.0
C1747 C 0.84967 0.13678 0.54535 0.0
C1748 C 0.84727 0.14707 0.52695 0.0
C1749 C 0.83987 0.13928 0.56392 0.0
C1750 C 0.83357 0.1585 0.52706 0.0
C1751 C 0.82357 0.16086 0.54544 0.0
C1752 C 0.81979 0.15681 0.58298 0.0
C1753 C 0.82561 0.14992 0.60181 0.0
C1754 C 0.82721 0.15193 0.56407 0.0
C1755 C 0.83693 0.13609 0.6013 0.0
C1756 C 0.84375 0.13058 0.58254 0.0
H1757 H 0.85358 0.73224 0.5418 0.0
H1758 H 0.84349 0.66777 0.51189 0.0
H1759 H 0.83169 0.64625 0.54472 0.0
H1760 H 0.82994 0.64744 0.58244 0.0
H1761 H 0.84067 0.71185 0.61288 0.0
H1762 H 0.84587 0.7315 0.57934 0.0
C1763 C 0.84848 0.7134 0.54249 0.0
C1764 C 0.84969 0.70169 0.52451 0.0
C1765 C 0.84186 0.70114 0.5615 0.0
C1766 C 0.84266 0.67717 0.52549 0.0
C1767 C 0.83603 0.66488 0.54428 0.0
C1768 C 0.83283 0.66558 0.58171 0.0
C1769 C 0.83528 0.67829 0.6001 0.0
C1770 C 0.83633 0.6769 0.56246 0.0
C1771 C 0.83871 0.70167 0.59894 0.0
C1772 C 0.84197 0.71301 0.57977 0.0
loop_
_geom_bond_atom_site_label_1
_geom_bond_atom_site_label_2
_geom_bond_distance
_geom_bond_site_symmetry_2
_ccdc_geom_bond_type
C0 C1 1.264 . S
C0 C5 1.479 . S
C0 C10 1.465 . S
C1 C0 1.264 . S
C1 C3 1.339 . S
C1 H28 0.931 . S
C2 C3 1.395 . S
C2 C4 1.320 . S
C3 C1 1.339 . S
C3 C2 1.395 . S
C3 H29 0.929 . S
C4 C2 1.320 . S
C4 C5 1.405 . S
C4 H30 0.930 . S
C5 C0 1.479 . S
C5 C4 1.405 . S
C5 H31 0.931 . S
U6 O7 2.454 . S
U6 O8 2.458 . S
U6 C9 2.984 . S
U6 C10 2.847 . S
U6 C23 2.882 . S
U6 O24 2.441 . S
U6 O25 2.420 . S
U6 O26 2.455 . S
U6 O27 2.449 . S
O7 U6 2.454 . S
O7 C9 1.353 . S
O8 U6 2.458 . S
O8 C9 1.286 . S
C9 U6 2.984 . S
C9 O7 1.353 . S
C9 O8 1.286 . S
C9 C11 1.363 . S
C10 C0 1.465 . S
C10 U6 2.847 . S
C10 O24 1.249 . S
C10 O25 1.202 . S
C11 C9 1.363 . S
C11 C13 1.408 . S
C11 C16 1.342 . S
C12 C13 1.310 . S
C12 C15 1.461 . S
C12 H32 0.932 . S
C13 C11 1.408 . S
C13 C12 1.310 . S
C13 H33 0.930 . S
C14 C15 1.474 . S
C14 C16 1.285 . S
C14 H34 0.929 . S
C15 C12 1.461 . S
C15 C14 1.474 . S
C16 C11 1.342 . S
C16 C14 1.285 . S
C16 H35 0.930 . S
C17 C20 1.424 . S
C17 C22 1.245 . S
C17 C23 1.428 . S
C18 C21 1.260 . S
C18 C22 1.477 . S
C18 H36 0.932 . S
C19 C20 1.384 . S
C19 C21 1.479 . S
C19 H37 0.929 . S
C20 C17 1.424 . S
C20 C19 1.384 . S
C20 H38 0.928 . S
C21 C18 1.260 . S
C21 C19 1.479 . S
C22 C17 1.245 . S
C22 C18 1.477 . S
C22 H39 0.932 . S
C23 U6 2.882 . S
C23 C17 1.428 . S
C23 O26 1.301 . S
C23 O27 1.282 . S
O24 U6 2.441 . S
O24 C10 1.249 . S
O25 U6 2.420 . S
O25 C10 1.202 . S
O26 U6 2.455 . S
O26 C23 1.301 . S
O27 U6 2.449 . S
O27 C23 1.282 . S
H28 C1 0.931 . S
H29 C3 0.929 . S
H30 C4 0.930 . S
H31 C5 0.931 . S
H32 C12 0.932 . S
H33 C13 0.930 . S
H34 C14 0.929 . S
H35 C16 0.930 . S
H36 C18 0.932 . S
H37 C19 0.929 . S
H38 C20 0.928 . S
H39 C22 0.932 . S
C40 C41 1.264 . S
C40 C45 1.479 . S
C40 C50 1.465 . S
C41 C40 1.264 . S
C41 C43 1.339 . S
C41 H68 0.931 . S
C42 C43 1.395 . S
C42 C44 1.320 . S
C43 C41 1.339 . S
C43 C42 1.395 . S
C43 H69 0.929 . S
C44 C42 1.320 . S
C44 C45 1.405 . S
C44 H70 0.930 . S
C45 C40 1.479 . S
C45 C44 1.405 . S
C45 H71 0.931 . S
U46 O47 2.454 . S
U46 O48 2.458 . S
U46 C49 2.984 . S
U46 C50 2.847 . S
U46 C63 2.882 . S
U46 O64 2.441 . S
U46 O65 2.420 . S
U46 O66 2.455 . S
U46 O67 2.449 . S
O47 U46 2.454 . S
O47 C49 1.353 . S
O48 U46 2.458 . S
O48 C49 1.286 . S
C49 U46 2.984 . S
C49 O47 1.353 . S
C49 O48 1.286 . S
C49 C51 1.363 . S
C50 C40 1.465 . S
C50 U46 2.847 . S
C50 O64 1.249 . S
C50 O65 1.202 . S
C51 C49 1.363 . S
C51 C53 1.408 . S
C51 C56 1.342 . S
C52 C53 1.310 . S
C52 C55 1.461 . S
C52 H72 0.932 . S
C53 C51 1.408 . S
C53 C52 1.310 . S
C53 H73 0.930 . S
C54 C55 1.474 . S
C54 C56 1.285 . S
C54 H74 0.929 . S
C55 C52 1.461 . S
C55 C54 1.474 . S
C56 C51 1.342 . S
C56 C54 1.285 . S
C56 H75 0.930 . S
C57 C60 1.424 . S
C57 C62 1.245 . S
C57 C63 1.428 . S
C58 C61 1.260 . S
C58 C62 1.477 . S
C58 H76 0.932 . S
C59 C60 1.384 . S
C59 C61 1.479 . S
C59 H77 0.929 . S
C60 C57 1.424 . S
C60 C59 1.384 . S
C60 H78 0.928 . S
C61 C58 1.260 . S
C61 C59 1.479 . S
C62 C57 1.245 . S
C62 C58 1.477 . S
C62 H79 0.932 . S
C63 U46 2.882 . S
C63 C57 1.428 . S
C63 O66 1.301 . S
C63 O67 1.282 . S
O64 U46 2.441 . S
O64 C50 1.249 . S
O65 U46 2.420 . S
O65 C50 1.202 . S
O66 U46 2.455 . S
O66 C63 1.301 . S
O67 U46 2.449 . S
O67 C63 1.282 . S
H68 C41 0.931 . S
H69 C43 0.929 . S
H70 C44 0.930 . S
H71 C45 0.931 . S
H72 C52 0.932 . S
H73 C53 0.930 . S
H74 C54 0.929 . S
H75 C56 0.930 . S
H76 C58 0.932 . S
H77 C59 0.929 . S
H78 C60 0.928 . S
H79 C62 0.932 . S
C80 C81 1.264 . S
C80 C85 1.479 . S
C80 C90 1.465 . S
C81 C80 1.264 . S
C81 C83 1.339 . S
C81 H108 0.931 . S
C82 C83 1.395 . S
C82 C84 1.320 . S
C83 C81 1.339 . S
C83 C82 1.395 . S
C83 H109 0.929 . S
C84 C82 1.320 . S
C84 C85 1.405 . S
C84 H110 0.930 . S
C85 C80 1.479 . S
C85 C84 1.405 . S
C85 H111 0.931 . S
U86 O87 2.454 . S
U86 O88 2.458 . S
U86 C89 2.984 . S
U86 C90 2.847 . S
U86 C103 2.882 . S
U86 O104 2.441 . S
U86 O105 2.420 . S
U86 O106 2.455 . S
U86 O107 2.449 . S
O87 U86 2.454 . S
O87 C89 1.353 . S
O88 U86 2.458 . S
O88 C89 1.286 . S
C89 U86 2.984 . S
C89 O87 1.353 . S
C89 O88 1.286 . S
C89 C91 1.363 . S
C90 C80 1.465 . S
C90 U86 2.847 . S
C90 O104 1.249 . S
C90 O105 1.202 . S
C91 C89 1.363 . S
C91 C93 1.408 . S
C91 C96 1.342 . S
C92 C93 1.310 . S
C92 C95 1.461 . S
C92 H112 0.932 . S
C93 C91 1.408 . S
C93 C92 1.310 . S
C93 H113 0.930 . S
C94 C95 1.474 . S
C94 C96 1.285 . S
C94 H114 0.929 . S
C95 C92 1.461 . S
C95 C94 1.474 . S
C96 C91 1.342 . S
C96 C94 1.285 . S
C96 H115 0.930 . S
C97 C100 1.424 . S
C97 C102 1.245 . S
C97 C103 1.428 . S
C98 C101 1.260 . S
C98 C102 1.477 . S
C98 H116 0.932 . S
C99 C100 1.384 . S
C99 C101 1.479 . S
C99 H117 0.929 . S
C100 C97 1.424 . S
C100 C99 1.384 . S
C100 H118 0.928 . S
C101 C98 1.260 . S
C101 C99 1.479 . S
C102 C97 1.245 . S
C102 C98 1.477 . S
C102 H119 0.932 . S
C103 U86 2.882 . S
C103 C97 1.428 . S
C103 O106 1.301 . S
C103 O107 1.282 . S
O104 U86 2.441 . S
O104 C90 1.249 . S
O105 U86 2.420 . S
O105 C90 1.202 . S
O106 U86 2.455 . S
O106 C103 1.301 . S
O107 U86 2.449 . S
O107 C103 1.282 . S
H108 C81 0.931 . S
H109 C83 0.929 . S
H110 C84 0.930 . S
H111 C85 0.931 . S
H112 C92 0.932 . S
H113 C93 0.930 . S
H114 C94 0.929 . S
H115 C96 0.930 . S
H116 C98 0.932 . S
H117 C99 0.929 . S
H118 C100 0.928 . S
H119 C102 0.932 . S
C120 C121 1.264 . S
C120 C125 1.479 . S
C120 C130 1.465 . S
C121 C120 1.264 . S
C121 C123 1.339 . S
C121 H148 0.931 . S
C122 C123 1.395 . S
C122 C124 1.320 . S
C123 C121 1.339 . S
C123 C122 1.395 . S
C123 H149 0.929 . S
C124 C122 1.320 . S
C124 C125 1.405 . S
C124 H150 0.930 . S
C125 C120 1.479 . S
C125 C124 1.405 . S
C125 H151 0.931 . S
U126 O127 2.454 . S
U126 O128 2.458 . S
U126 C129 2.984 . S
U126 C130 2.847 . S
U126 C143 2.882 . S
U126 O144 2.441 . S
U126 O145 2.420 . S
U126 O146 2.455 . S
U126 O147 2.449 . S
O127 U126 2.454 . S
O127 C129 1.353 . S
O128 U126 2.458 . S
O128 C129 1.286 . S
C129 U126 2.984 . S
C129 O127 1.353 . S
C129 O128 1.286 . S
C129 C131 1.363 . S
C130 C120 1.465 . S
C130 U126 2.847 . S
C130 O144 1.249 . S
C130 O145 1.202 . S
C131 C129 1.363 . S
C131 C133 1.408 . S
C131 C136 1.342 . S
C132 C133 1.310 . S
C132 C135 1.461 . S
C132 H152 0.932 . S
C133 C131 1.408 . S
C133 C132 1.310 . S
C133 H153 0.930 . S
C134 C135 1.474 . S
C134 C136 1.285 . S
C134 H154 0.929 . S
C135 C132 1.461 . S
C135 C134 1.474 . S
C136 C131 1.342 . S
C136 C134 1.285 . S
C136 H155 0.930 . S
C137 C140 1.424 . S
C137 C142 1.245 . S
C137 C143 1.428 . S
C138 C141 1.260 . S
C138 C142 1.477 . S
C138 H156 0.932 . S
C139 C140 1.384 . S
C139 C141 1.479 . S
C139 H157 0.929 . S
C140 C137 1.424 . S
C140 C139 1.384 . S
C140 H158 0.928 . S
C141 C138 1.260 . S
C141 C139 1.479 . S
C142 C137 1.245 . S
C142 C138 1.477 . S
C142 H159 0.932 . S
C143 U126 2.882 . S
C143 C137 1.428 . S
C143 O146 1.301 . S
C143 O147 1.282 . S
O144 U126 2.441 . S
O144 C130 1.249 . S
O145 U126 2.420 . S
O145 C130 1.202 . S
O146 U126 2.455 . S
O146 C143 1.301 . S
O147 U126 2.449 . S
O147 C143 1.282 . S
H148 C121 0.931 . S
H149 C123 0.929 . S
H150 C124 0.930 . S
H151 C125 0.931 . S
H152 C132 0.932 . S
H153 C133 0.930 . S
H154 C134 0.929 . S
H155 C136 0.930 . S
H156 C138 0.932 . S
H157 C139 0.929 . S
H158 C140 0.928 . S
H159 C142 0.932 . S
C160 C161 1.264 . S
C160 C165 1.479 . S
C160 C170 1.465 . S
C161 C160 1.264 . S
C161 C163 1.339 . S
C161 H188 0.931 . S
C162 C163 1.395 . S
C162 C164 1.320 . S
C163 C161 1.339 . S
C163 C162 1.395 . S
C163 H189 0.929 . S
C164 C162 1.320 . S
C164 C165 1.405 . S
C164 H190 0.930 . S
C165 C160 1.479 . S
C165 C164 1.405 . S
C165 H191 0.931 . S
U166 O167 2.454 . S
U166 O168 2.458 . S
U166 C169 2.984 . S
U166 C170 2.847 . S
U166 C183 2.882 . S
U166 O184 2.441 . S
U166 O185 2.420 . S
U166 O186 2.455 . S
U166 O187 2.449 . S
O167 U166 2.454 . S
O167 C169 1.353 . S
O168 U166 2.458 . S
O168 C169 1.286 . S
C169 U166 2.984 . S
C169 O167 1.353 . S
C169 O168 1.286 . S
C169 C171 1.363 . S
C170 C160 1.465 . S
C170 U166 2.847 . S
C170 O184 1.249 . S
C170 O185 1.202 . S
C171 C169 1.363 . S
C171 C173 1.408 . S
C171 C176 1.342 . S
C172 C173 1.310 . S
C172 C175 1.461 . S
C172 H192 0.932 . S
C173 C171 1.408 . S
C173 C172 1.310 . S
C173 H193 0.930 . S
C174 C175 1.474 . S
C174 C176 1.285 . S
C174 H194 0.929 . S
C175 C172 1.461 . S
C175 C174 1.474 . S
C176 C171 1.342 . S
C176 C174 1.285 . S
C176 H195 0.930 . S
C177 C180 1.424 . S
C177 C182 1.245 . S
C177 C183 1.428 . S
C178 C181 1.260 . S
C178 C182 1.477 . S
C178 H196 0.932 . S
C179 C180 1.384 . S
C179 C181 1.479 . S
C179 H197 0.929 . S
C180 C177 1.424 . S
C180 C179 1.384 . S
C180 H198 0.928 . S
C181 C178 1.260 . S
C181 C179 1.479 . S
C182 C177 1.245 . S
C182 C178 1.477 . S
C182 H199 0.932 . S
C183 U166 2.882 . S
C183 C177 1.428 . S
C183 O186 1.301 . S
C183 O187 1.282 . S
O184 U166 2.441 . S
O184 C170 1.249 . S
O185 U166 2.420 . S
O185 C170 1.202 . S
O186 U166 2.455 . S
O186 C183 1.301 . S
O187 U166 2.449 . S
O187 C183 1.282 . S
H188 C161 0.931 . S
H189 C163 0.929 . S
H190 C164 0.930 . S
H191 C165 0.931 . S
H192 C172 0.932 . S
H193 C173 0.930 . S
H194 C174 0.929 . S
H195 C176 0.930 . S
H196 C178 0.932 . S
H197 C179 0.929 . S
H198 C180 0.928 . S
H199 C182 0.932 . S
C200 C201 1.264 . S
C200 C205 1.479 . S
C200 C210 1.465 . S
C201 C200 1.264 . S
C201 C203 1.339 . S
C201 H228 0.931 . S
C202 C203 1.395 . S
C202 C204 1.320 . S
C203 C201 1.339 . S
C203 C202 1.395 . S
C203 H229 0.929 . S
C204 C202 1.320 . S
C204 C205 1.405 . S
C204 H230 0.930 . S
C205 C200 1.479 . S
C205 C204 1.405 . S
C205 H231 0.931 . S
U206 O207 2.454 . S
U206 O208 2.458 . S
U206 C209 2.984 . S
U206 C210 2.847 . S
U206 C223 2.882 . S
U206 O224 2.441 . S
U206 O225 2.420 . S
U206 O226 2.455 . S
U206 O227 2.449 . S
O207 U206 2.454 . S
O207 C209 1.353 . S
O208 U206 2.458 . S
O208 C209 1.286 . S
C209 U206 2.984 . S
C209 O207 1.353 . S
C209 O208 1.286 . S
C209 C211 1.363 . S
C210 C200 1.465 . S
C210 U206 2.847 . S
C210 O224 1.249 . S
C210 O225 1.202 . S
C211 C209 1.363 . S
C211 C213 1.408 . S
C211 C216 1.342 . S
C212 C213 1.310 . S
C212 C215 1.461 . S
C212 H232 0.932 . S
C213 C211 1.408 . S
C213 C212 1.310 . S
C213 H233 0.930 . S
C214 C215 1.474 . S
C214 C216 1.285 . S
C214 H234 0.929 . S
C215 C212 1.461 . S
C215 C214 1.474 . S
C216 C211 1.342 . S
C216 C214 1.285 . S
C216 H235 0.930 . S
C217 C220 1.424 . S
C217 C222 1.245 . S
C217 C223 1.428 . S
C218 C221 1.260 . S
C218 C222 1.477 . S
C218 H236 0.932 . S
C219 C220 1.384 . S
C219 C221 1.479 . S
C219 H237 0.929 . S
C220 C217 1.424 . S
C220 C219 1.384 . S
C220 H238 0.928 . S
C221 C218 1.260 . S
C221 C219 1.479 . S
C222 C217 1.245 . S
C222 C218 1.477 . S
C222 H239 0.932 . S
C223 U206 2.882 . S
C223 C217 1.428 . S
C223 O226 1.301 . S
C223 O227 1.282 . S
O224 U206 2.441 . S
O224 C210 1.249 . S
O225 U206 2.420 . S
O225 C210 1.202 . S
O226 U206 2.455 . S
O226 C223 1.301 . S
O227 U206 2.449 . S
O227 C223 1.282 . S
H228 C201 0.931 . S
H229 C203 0.929 . S
H230 C204 0.930 . S
H231 C205 0.931 . S
H232 C212 0.932 . S
H233 C213 0.930 . S
H234 C214 0.929 . S
H235 C216 0.930 . S
H236 C218 0.932 . S
H237 C219 0.929 . S
H238 C220 0.928 . S
H239 C222 0.932 . S
C240 C241 1.264 . S
C240 C245 1.479 . S
C240 C250 1.465 . S
C241 C240 1.264 . S
C241 C243 1.339 . S
C241 H268 0.931 . S
C242 C243 1.395 . S
C242 C244 1.320 . S
C243 C241 1.339 . S
C243 C242 1.395 . S
C243 H269 0.929 . S
C244 C242 1.320 . S
C244 C245 1.405 . S
C244 H270 0.930 . S
C245 C240 1.479 . S
C245 C244 1.405 . S
C245 H271 0.931 . S
U246 O247 2.454 . S
U246 O248 2.458 . S
U246 C249 2.984 . S
U246 C250 2.847 . S
U246 C263 2.882 . S
U246 O264 2.441 . S
U246 O265 2.420 . S
U246 O266 2.455 . S
U246 O267 2.449 . S
O247 U246 2.454 . S
O247 C249 1.353 . S
O248 U246 2.458 . S
O248 C249 1.286 . S
C249 U246 2.984 . S
C249 O247 1.353 . S
C249 O248 1.286 . S
C249 C251 1.363 . S
C250 C240 1.465 . S
C250 U246 2.847 . S
C250 O264 1.249 . S
C250 O265 1.202 . S
C251 C249 1.363 . S
C251 C253 1.408 . S
C251 C256 1.342 . S
C252 C253 1.310 . S
C252 C255 1.461 . S
C252 H272 0.932 . S
C253 C251 1.408 . S
C253 C252 1.310 . S
C253 H273 0.930 . S
C254 C255 1.474 . S
C254 C256 1.285 . S
C254 H274 0.929 . S
C255 C252 1.461 . S
C255 C254 1.474 . S
C256 C251 1.342 . S
C256 C254 1.285 . S
C256 H275 0.930 . S
C257 C260 1.424 . S
C257 C262 1.245 . S
C257 C263 1.428 . S
C258 C261 1.260 . S
C258 C262 1.477 . S
C258 H276 0.932 . S
C259 C260 1.384 . S
C259 C261 1.479 . S
C259 H277 0.929 . S
C260 C257 1.424 . S
C260 C259 1.384 . S
C260 H278 0.928 . S
C261 C258 1.260 . S
C261 C259 1.479 . S
C262 C257 1.245 . S
C262 C258 1.477 . S
C262 H279 0.932 . S
C263 U246 2.882 . S
C263 C257 1.428 . S
C263 O266 1.301 . S
C263 O267 1.282 . S
O264 U246 2.441 . S
O264 C250 1.249 . S
O265 U246 2.420 . S
O265 C250 1.202 . S
O266 U246 2.455 . S
O266 C263 1.301 . S
O267 U246 2.449 . S
O267 C263 1.282 . S
H268 C241 0.931 . S
H269 C243 0.929 . S
H270 C244 0.930 . S
H271 C245 0.931 . S
H272 C252 0.932 . S
H273 C253 0.930 . S
H274 C254 0.929 . S
H275 C256 0.930 . S
H276 C258 0.932 . S
H277 C259 0.929 . S
H278 C260 0.928 . S
H279 C262 0.932 . S
C280 C281 1.264 . S
C280 C285 1.479 . S
C280 C290 1.465 . S
C281 C280 1.264 . S
C281 C283 1.339 . S
C281 H308 0.931 . S
C282 C283 1.395 . S
C282 C284 1.320 . S
C283 C281 1.339 . S
C283 C282 1.395 . S
C283 H309 0.929 . S
C284 C282 1.320 . S
C284 C285 1.405 . S
C284 H310 0.930 . S
C285 C280 1.479 . S
C285 C284 1.405 . S
C285 H311 0.931 . S
U286 O287 2.454 . S
U286 O288 2.458 . S
U286 C289 2.984 . S
U286 C290 2.847 . S
U286 C303 2.882 . S
U286 O304 2.441 . S
U286 O305 2.420 . S
U286 O306 2.455 . S
U286 O307 2.449 . S
O287 U286 2.454 . S
O287 C289 1.353 . S
O288 U286 2.458 . S
O288 C289 1.286 . S
C289 U286 2.984 . S
C289 O287 1.353 . S
C289 O288 1.286 . S
C289 C291 1.363 . S
C290 C280 1.465 . S
C290 U286 2.847 . S
C290 O304 1.249 . S
C290 O305 1.202 . S
C291 C289 1.363 . S
C291 C293 1.408 . S
C291 C296 1.342 . S
C292 C293 1.310 . S
C292 C295 1.461 . S
C292 H312 0.932 . S
C293 C291 1.408 . S
C293 C292 1.310 . S
C293 H313 0.930 . S
C294 C295 1.474 . S
C294 C296 1.285 . S
C294 H314 0.929 . S
C295 C292 1.461 . S
C295 C294 1.474 . S
C296 C291 1.342 . S
C296 C294 1.285 . S
C296 H315 0.930 . S
C297 C300 1.424 . S
C297 C302 1.245 . S
C297 C303 1.428 . S
C298 C301 1.260 . S
C298 C302 1.477 . S
C298 H316 0.932 . S
C299 C300 1.384 . S
C299 C301 1.479 . S
C299 H317 0.929 . S
C300 C297 1.424 . S
C300 C299 1.384 . S
C300 H318 0.928 . S
C301 C298 1.260 . S
C301 C299 1.479 . S
C302 C297 1.245 . S
C302 C298 1.477 . S
C302 H319 0.932 . S
C303 U286 2.882 . S
C303 C297 1.428 . S
C303 O306 1.301 . S
C303 O307 1.282 . S
O304 U286 2.441 . S
O304 C290 1.249 . S
O305 U286 2.420 . S
O305 C290 1.202 . S
O306 U286 2.455 . S
O306 C303 1.301 . S
O307 U286 2.449 . S
O307 C303 1.282 . S
H308 C281 0.931 . S
H309 C283 0.929 . S
H310 C284 0.930 . S
H311 C285 0.931 . S
H312 C292 0.932 . S
H313 C293 0.930 . S
H314 C294 0.929 . S
H315 C296 0.930 . S
H316 C298 0.932 . S
H317 C299 0.929 . S
H318 C300 0.928 . S
H319 C302 0.932 . S
C320 C321 1.264 . S
C320 C325 1.479 . S
C320 C330 1.465 . S
C321 C320 1.264 . S
C321 C323 1.339 . S
C321 H348 0.931 . S
C322 C323 1.395 . S
C322 C324 1.320 . S
C323 C321 1.339 . S
C323 C322 1.395 . S
C323 H349 0.929 . S
C324 C322 1.320 . S
C324 C325 1.405 . S
C324 H350 0.930 . S
C325 C320 1.479 . S
C325 C324 1.405 . S
C325 H351 0.931 . S
U326 O327 2.454 . S
U326 O328 2.458 . S
U326 C329 2.984 . S
U326 C330 2.847 . S
U326 C343 2.882 . S
U326 O344 2.441 . S
U326 O345 2.420 . S
U326 O346 2.455 . S
U326 O347 2.449 . S
O327 U326 2.454 . S
O327 C329 1.353 . S
O328 U326 2.458 . S
O328 C329 1.286 . S
C329 U326 2.984 . S
C329 O327 1.353 . S
C329 O328 1.286 . S
C329 C331 1.363 . S
C330 C320 1.465 . S
C330 U326 2.847 . S
C330 O344 1.249 . S
C330 O345 1.202 . S
C331 C329 1.363 . S
C331 C333 1.408 . S
C331 C336 1.342 . S
C332 C333 1.310 . S
C332 C335 1.461 . S
C332 H352 0.932 . S
C333 C331 1.408 . S
C333 C332 1.310 . S
C333 H353 0.930 . S
C334 C335 1.474 . S
C334 C336 1.285 . S
C334 H354 0.929 . S
C335 C332 1.461 . S
C335 C334 1.474 . S
C336 C331 1.342 . S
C336 C334 1.285 . S
C336 H355 0.930 . S
C337 C340 1.424 . S
C337 C342 1.245 . S
C337 C343 1.428 . S
C338 C341 1.260 . S
C338 C342 1.477 . S
C338 H356 0.932 . S
C339 C340 1.384 . S
C339 C341 1.479 . S
C339 H357 0.929 . S
C340 C337 1.424 . S
C340 C339 1.384 . S
C340 H358 0.928 . S
C341 C338 1.260 . S
C341 C339 1.479 . S
C342 C337 1.245 . S
C342 C338 1.477 . S
C342 H359 0.932 . S
C343 U326 2.882 . S
C343 C337 1.428 . S
C343 O346 1.301 . S
C343 O347 1.282 . S
O344 U326 2.441 . S
O344 C330 1.249 . S
O345 U326 2.420 . S
O345 C330 1.202 . S
O346 U326 2.455 . S
O346 C343 1.301 . S
O347 U326 2.449 . S
O347 C343 1.282 . S
H348 C321 0.931 . S
H349 C323 0.929 . S
H350 C324 0.930 . S
H351 C325 0.931 . S
H352 C332 0.932 . S
H353 C333 0.930 . S
H354 C334 0.929 . S
H355 C336 0.930 . S
H356 C338 0.932 . S
H357 C339 0.929 . S
H358 C340 0.928 . S
H359 C342 0.932 . S
C360 C361 1.264 . S
C360 C365 1.479 . S
C360 C370 1.465 . S
C361 C360 1.264 . S
C361 C363 1.339 . S
C361 H388 0.931 . S
C362 C363 1.395 . S
C362 C364 1.320 . S
C363 C361 1.339 . S
C363 C362 1.395 . S
C363 H389 0.929 . S
C364 C362 1.320 . S
C364 C365 1.405 . S
C364 H390 0.930 1_556 S
C365 C360 1.479 . S
C365 C364 1.405 . S
C365 H391 0.957 . S
U366 O367 2.454 . S
U366 O368 2.458 . S
U366 C369 2.984 . S
U366 C370 2.847 . S
U366 C383 2.882 . S
U366 O384 2.441 . S
U366 O385 2.420 . S
U366 O386 2.455 . S
U366 O387 2.449 . S
O367 U366 2.454 . S
O367 C369 1.353 . S
O368 U366 2.458 . S
O368 C369 1.286 . S
C369 U366 2.984 . S
C369 O367 1.353 . S
C369 O368 1.286 . S
C369 C371 1.363 . S
C370 C360 1.465 . S
C370 U366 2.847 . S
C370 O384 1.249 . S
C370 O385 1.202 . S
C371 C369 1.363 . S
C371 C373 1.408 . S
C371 C376 1.342 . S
C372 C373 1.310 . S
C372 C375 1.461 . S
C372 H392 0.932 1_556 S
C373 C371 1.408 . S
C373 C372 1.310 . S
C373 H393 0.930 . S
C374 C375 1.474 . S
C374 C376 1.285 . S
C374 H394 0.929 . S
C375 C372 1.461 . S
C375 C374 1.474 . S
C376 C371 1.342 . S
C376 C374 1.285 . S
C376 H395 0.930 . S
C377 C380 1.424 . S
C377 C382 1.245 . S
C377 C383 1.428 . S
C378 C381 1.260 . S
C378 C382 1.477 . S
C378 H396 0.932 . S
C379 C380 1.384 . S
C379 C381 1.479 . S
C379 H397 0.929 . S
C380 C377 1.424 . S
C380 C379 1.384 . S
C380 H398 0.928 . S
C381 C378 1.260 . S
C381 C379 1.479 . S
C382 C377 1.245 . S
C382 C378 1.477 . S
C382 H399 0.932 . S
C383 U366 2.882 . S
C383 C377 1.428 . S
C383 O386 1.301 . S
C383 O387 1.282 . S
O384 U366 2.441 . S
O384 C370 1.249 . S
O385 U366 2.420 . S
O385 C370 1.202 . S
O386 U366 2.455 . S
O386 C383 1.301 . S
O387 U366 2.449 . S
O387 C383 1.282 . S
H388 C361 0.931 . S
H389 C363 0.929 . S
H390 C364 0.930 1_554 S
H391 C365 0.957 . S
H392 C372 0.932 1_554 S
H393 C373 0.930 . S
H394 C374 0.929 . S
H395 C376 0.930 . S
H396 C378 0.932 . S
H397 C379 0.929 . S
H398 C380 0.928 . S
H399 C382 0.932 . S
C400 C401 1.264 . S
C400 C405 1.479 . S
C400 C410 1.465 . S
C401 C400 1.264 . S
C401 C403 1.339 . S
C401 H428 0.931 . S
C402 C403 1.395 . S
C402 C404 1.320 1_556 S
C403 C401 1.339 . S
C403 C402 1.395 . S
C403 H429 0.929 . S
C404 C402 1.320 1_554 S
C404 C405 1.405 1_554 S
C404 H430 0.930 . S
C405 C400 1.479 . S
C405 C404 1.405 1_556 S
C405 H431 0.931 1_556 S
U406 O407 2.454 . S
U406 O408 2.458 . S
U406 C409 2.984 . S
U406 C410 2.847 . S
U406 C423 2.882 . S
U406 O424 2.441 . S
U406 O425 2.420 . S
U406 O426 2.455 . S
U406 O427 2.449 . S
O407 U406 2.454 . S
O407 C409 1.353 . S
O408 U406 2.458 . S
O408 C409 1.286 . S
C409 U406 2.984 . S
C409 O407 1.353 . S
C409 O408 1.286 . S
C409 C411 1.363 . S
C410 C400 1.465 . S
C410 U406 2.847 . S
C410 O424 1.249 . S
C410 O425 1.202 . S
C411 C409 1.363 . S
C411 C413 1.408 . S
C411 C416 1.342 . S
C412 C413 1.310 1_554 S
C412 C415 1.461 1_554 S
C412 H432 0.932 . S
C413 C411 1.408 . S
C413 C412 1.310 1_556 S
C413 H433 0.915 1_556 S
C414 C415 1.474 . S
C414 C416 1.285 . S
C414 H434 0.929 . S
C415 C412 1.461 1_556 S
C415 C414 1.474 . S
C416 C411 1.342 . S
C416 C414 1.285 . S
C416 H435 0.930 . S
C417 C420 1.424 . S
C417 C422 1.245 . S
C417 C423 1.428 . S
C418 C421 1.260 . S
C418 C422 1.477 . S
C418 H436 0.932 . S
C419 C420 1.384 . S
C419 C421 1.479 . S
C419 H437 0.929 . S
C420 C417 1.424 . S
C420 C419 1.384 . S
C420 H438 0.928 . S
C421 C418 1.260 . S
C421 C419 1.479 . S
C422 C417 1.245 . S
C422 C418 1.477 . S
C422 H439 0.932 . S
C423 U406 2.882 . S
C423 C417 1.428 . S
C423 O426 1.301 . S
C423 O427 1.282 . S
O424 U406 2.441 . S
O424 C410 1.249 . S
O425 U406 2.420 . S
O425 C410 1.202 . S
O426 U406 2.455 . S
O426 C423 1.301 . S
O427 U406 2.449 . S
O427 C423 1.282 . S
H428 C401 0.931 . S
H429 C403 0.929 . S
H430 C404 0.930 . S
H431 C405 0.931 1_554 S
H432 C412 0.932 . S
H433 C413 0.915 1_554 S
H434 C414 0.929 . S
H435 C416 0.930 . S
H436 C418 0.932 . S
H437 C419 0.929 . S
H438 C420 0.928 . S
H439 C422 0.932 . S
C440 C441 1.264 . S
C440 C445 1.479 . S
C440 C450 1.465 . S
C441 C440 1.264 . S
C441 C443 1.339 . S
C441 H468 0.931 . S
C442 C443 1.395 . S
C442 C444 1.320 . S
C443 C441 1.339 . S
C443 C442 1.395 . S
C443 H469 0.929 . S
C444 C442 1.320 . S
C444 C445 1.405 . S
C444 H470 0.930 1_556 S
C445 C440 1.479 . S
C445 C444 1.405 . S
C445 H471 0.931 . S
U446 O447 2.454 . S
U446 O448 2.458 . S
U446 C449 2.984 . S
U446 C450 2.847 . S
U446 C463 2.882 . S
U446 O464 2.441 . S
U446 O465 2.420 . S
U446 O466 2.455 . S
U446 O467 2.449 . S
O447 U446 2.454 . S
O447 C449 1.353 . S
O448 U446 2.458 . S
O448 C449 1.286 . S
C449 U446 2.984 . S
C449 O447 1.353 . S
C449 O448 1.286 . S
C449 C451 1.363 . S
C450 C440 1.465 . S
C450 U446 2.847 . S
C450 O464 1.249 . S
C450 O465 1.202 . S
C451 C449 1.363 . S
C451 C453 1.408 . S
C451 C456 1.342 . S
C452 C453 1.310 . S
C452 C455 1.461 . S
C452 H472 0.932 1_556 S
C453 C451 1.408 . S
C453 C452 1.310 . S
C453 H473 0.930 . S
C454 C455 1.474 . S
C454 C456 1.285 . S
C454 H474 0.929 . S
C455 C452 1.461 . S
C455 C454 1.474 . S
C456 C451 1.342 . S
C456 C454 1.285 . S
C456 H475 0.930 . S
C457 C460 1.424 . S
C457 C462 1.245 . S
C457 C463 1.428 . S
C458 C461 1.260 . S
C458 C462 1.477 . S
C458 H476 0.932 . S
C459 C460 1.384 . S
C459 C461 1.479 . S
C459 H477 0.929 . S
C460 C457 1.424 . S
C460 C459 1.384 . S
C460 H478 0.928 . S
C461 C458 1.260 . S
C461 C459 1.479 . S
C462 C457 1.245 . S
C462 C458 1.477 . S
C462 H479 0.932 . S
C463 U446 2.882 . S
C463 C457 1.428 . S
C463 O466 1.301 . S
C463 O467 1.282 . S
O464 U446 2.441 . S
O464 C450 1.249 . S
O465 U446 2.420 . S
O465 C450 1.202 . S
O466 U446 2.455 . S
O466 C463 1.301 . S
O467 U446 2.449 . S
O467 C463 1.282 . S
H468 C441 0.931 . S
H469 C443 0.929 . S
H470 C444 0.930 1_554 S
H471 C445 0.931 . S
H472 C452 0.932 1_554 S
H473 C453 0.930 . S
H474 C454 0.929 . S
H475 C456 0.930 . S
H476 C458 0.932 . S
H477 C459 0.929 . S
H478 C460 0.928 . S
H479 C462 0.932 . S
C480 C481 1.264 . S
C480 C485 1.479 . S
C480 C490 1.465 . S
C481 C480 1.264 . S
C481 C483 1.339 . S
C481 H508 0.931 . S
C482 C483 1.395 . S
C482 C484 1.320 . S
C483 C481 1.339 . S
C483 C482 1.395 . S
C483 H509 0.929 . S
C484 C482 1.320 . S
C484 C485 1.405 . S
C484 H510 0.930 1_554 S
C485 C480 1.479 . S
C485 C484 1.405 . S
C485 H511 0.931 . S
U486 O487 2.454 . S
U486 O488 2.458 . S
U486 C489 2.984 . S
U486 C490 2.847 . S
U486 C503 2.882 . S
U486 O504 2.441 . S
U486 O505 2.420 . S
U486 O506 2.455 . S
U486 O507 2.449 . S
O487 U486 2.454 . S
O487 C489 1.353 . S
O488 U486 2.458 . S
O488 C489 1.286 . S
C489 U486 2.984 . S
C489 O487 1.353 . S
C489 O488 1.286 . S
C489 C491 1.363 . S
C490 C480 1.465 . S
C490 U486 2.847 . S
C490 O504 1.249 . S
C490 O505 1.202 . S
C491 C489 1.363 . S
C491 C493 1.408 . S
C491 C496 1.342 . S
C492 C493 1.310 . S
C492 C495 1.461 . S
C492 H512 0.932 1_554 S
C493 C491 1.408 . S
C493 C492 1.310 . S
C493 H513 0.930 . S
C494 C495 1.474 . S
C494 C496 1.285 . S
C494 H514 0.929 . S
C495 C492 1.461 . S
C495 C494 1.474 . S
C496 C491 1.342 . S
C496 C494 1.285 . S
C496 H515 0.930 . S
C497 C500 1.424 . S
C497 C502 1.245 . S
C497 C503 1.428 . S
C498 C501 1.260 . S
C498 C502 1.477 . S
C498 H516 0.932 . S
C499 C500 1.384 . S
C499 C501 1.479 . S
C499 H517 0.929 . S
C500 C497 1.424 . S
C500 C499 1.384 . S
C500 H518 0.928 . S
C501 C498 1.260 . S
C501 C499 1.479 . S
C502 C497 1.245 . S
C502 C498 1.477 . S
C502 H519 0.932 . S
C503 U486 2.882 . S
C503 C497 1.428 . S
C503 O506 1.301 . S
C503 O507 1.282 . S
O504 U486 2.441 . S
O504 C490 1.249 . S
O505 U486 2.420 . S
O505 C490 1.202 . S
O506 U486 2.455 . S
O506 C503 1.301 . S
O507 U486 2.449 . S
O507 C503 1.282 . S
H508 C481 0.931 . S
H509 C483 0.929 . S
H510 C484 0.930 1_556 S
H511 C485 0.931 . S
H512 C492 0.932 1_556 S
H513 C493 0.930 . S
H514 C494 0.929 . S
H515 C496 0.930 . S
H516 C498 0.932 . S
H517 C499 0.929 . S
H518 C500 0.928 . S
H519 C502 0.932 . S
C520 C521 1.264 . S
C520 C525 1.479 . S
C520 C530 1.465 . S
C521 C520 1.264 . S
C521 C523 1.339 . S
C521 H548 0.931 . S
C522 C523 1.395 . S
C522 C524 1.320 . S
C523 C521 1.339 . S
C523 C522 1.395 . S
C523 H549 0.929 . S
C524 C522 1.320 . S
C524 C525 1.405 . S
C524 H550 0.930 1_554 S
C525 C520 1.479 . S
C525 C524 1.405 . S
C525 H551 0.931 . S
U526 O527 2.454 . S
U526 O528 2.458 . S
U526 C529 2.984 . S
U526 C530 2.847 . S
U526 C543 2.882 . S
U526 O544 2.441 . S
U526 O545 2.420 . S
U526 O546 2.455 . S
U526 O547 2.449 . S
O527 U526 2.454 . S
O527 C529 1.353 . S
O528 U526 2.458 . S
O528 C529 1.286 . S
C529 U526 2.984 . S
C529 O527 1.353 . S
C529 O528 1.286 . S
C529 C531 1.363 . S
C530 C520 1.465 . S
C530 U526 2.847 . S
C530 O544 1.249 . S
C530 O545 1.202 . S
C531 C529 1.363 . S
C531 C533 1.408 . S
C531 C536 1.342 . S
C532 C533 1.310 . S
C532 C535 1.461 . S
C532 H552 0.932 1_554 S
C533 C531 1.408 . S
C533 C532 1.310 . S
C533 H553 0.930 . S
C534 C535 1.474 . S
C534 C536 1.285 . S
C534 H554 0.929 . S
C535 C532 1.461 . S
C535 C534 1.474 . S
C536 C531 1.342 . S
C536 C534 1.285 . S
C536 H555 0.930 . S
C537 C540 1.424 . S
C537 C542 1.245 . S
C537 C543 1.428 . S
C538 C541 1.260 . S
C538 C542 1.477 . S
C538 H556 0.932 . S
C539 C540 1.384 . S
C539 C541 1.479 . S
C539 H557 0.929 . S
C540 C537 1.424 . S
C540 C539 1.384 . S
C540 H558 0.928 . S
C541 C538 1.260 . S
C541 C539 1.479 . S
C542 C537 1.245 . S
C542 C538 1.477 . S
C542 H559 0.932 . S
C543 U526 2.882 . S
C543 C537 1.428 . S
C543 O546 1.301 . S
C543 O547 1.282 . S
O544 U526 2.441 . S
O544 C530 1.249 . S
O545 U526 2.420 . S
O545 C530 1.202 . S
O546 U526 2.455 . S
O546 C543 1.301 . S
O547 U526 2.449 . S
O547 C543 1.282 . S
H548 C521 0.931 . S
H549 C523 0.929 . S
H550 C524 0.930 1_556 S
H551 C525 0.931 . S
H552 C532 0.932 1_556 S
H553 C533 0.930 . S
H554 C534 0.929 . S
H555 C536 0.930 . S
H556 C538 0.932 . S
H557 C539 0.929 . S
H558 C540 0.928 . S
H559 C542 0.932 . S
C560 C561 1.264 . S
C560 C565 1.479 . S
C560 C570 1.465 . S
C561 C560 1.264 . S
C561 C563 1.339 . S
C561 H588 0.931 . S
C562 C563 1.395 . S
C562 C564 1.320 . S
C563 C561 1.339 . S
C563 C562 1.395 . S
C563 H589 0.929 . S
C564 C562 1.320 . S
C564 C565 1.405 . S
C564 H590 0.930 . S
C565 C560 1.479 . S
C565 C564 1.405 . S
C565 H591 0.931 . S
U566 O567 2.454 . S
U566 O568 2.458 . S
U566 C569 2.984 . S
U566 C570 2.847 . S
U566 C583 2.882 . S
U566 O584 2.441 . S
U566 O585 2.420 . S
U566 O586 2.455 . S
U566 O587 2.449 . S
O567 U566 2.454 . S
O567 C569 1.353 . S
O568 U566 2.458 . S
O568 C569 1.286 . S
C569 U566 2.984 . S
C569 O567 1.353 . S
C569 O568 1.286 . S
C569 C571 1.363 . S
C570 C560 1.465 . S
C570 U566 2.847 . S
C570 O584 1.249 . S
C570 O585 1.202 . S
C571 C569 1.363 . S
C571 C573 1.408 . S
C571 C576 1.342 . S
C572 C573 1.310 . S
C572 C575 1.461 . S
C572 H592 0.935 1_554 S
C573 C571 1.408 . S
C573 C572 1.310 . S
C573 H593 0.930 . S
C574 C575 1.474 . S
C574 C576 1.285 . S
C574 H594 0.929 . S
C575 C572 1.461 . S
C575 C574 1.474 . S
C576 C571 1.342 . S
C576 C574 1.285 . S
C576 H595 0.930 . S
C577 C580 1.424 . S
C577 C582 1.245 . S
C577 C583 1.428 . S
C578 C581 1.260 . S
C578 C582 1.477 . S
C578 H596 0.932 . S
C579 C580 1.384 . S
C579 C581 1.479 . S
C579 H597 0.929 . S
C580 C577 1.424 . S
C580 C579 1.384 . S
C580 H598 0.928 . S
C581 C578 1.260 . S
C581 C579 1.479 . S
C582 C577 1.245 . S
C582 C578 1.477 . S
C582 H599 0.932 . S
C583 U566 2.882 . S
C583 C577 1.428 . S
C583 O586 1.301 . S
C583 O587 1.282 . S
O584 U566 2.441 . S
O584 C570 1.249 . S
O585 U566 2.420 . S
O585 C570 1.202 . S
O586 U566 2.455 . S
O586 C583 1.301 . S
O587 U566 2.449 . S
O587 C583 1.282 . S
H588 C561 0.931 . S
H589 C563 0.929 . S
H590 C564 0.930 . S
H591 C565 0.931 . S
H592 C572 0.935 1_556 S
H593 C573 0.930 . S
H594 C574 0.929 . S
H595 C576 0.930 . S
H596 C578 0.932 . S
H597 C579 0.929 . S
H598 C580 0.928 . S
H599 C582 0.932 . S
C600 C601 1.264 . S
C600 C605 1.479 . S
C600 C610 1.465 . S
C601 C600 1.264 . S
C601 C603 1.339 . S
C601 H628 0.931 . S
C602 C603 1.395 . S
C602 C604 1.320 . S
C603 C601 1.339 . S
C603 C602 1.395 . S
C603 H629 0.929 . S
C604 C602 1.320 . S
C604 C605 1.405 . S
C604 H630 0.930 . S
C605 C600 1.479 . S
C605 C604 1.405 . S
C605 H631 0.931 . S
U606 O607 2.454 . S
U606 O608 2.458 . S
U606 C609 2.984 . S
U606 C610 2.847 . S
U606 C623 2.882 . S
U606 O624 2.441 . S
U606 O625 2.420 . S
U606 O626 2.455 . S
U606 O627 2.449 . S
O607 U606 2.454 . S
O607 C609 1.353 . S
O608 U606 2.458 . S
O608 C609 1.286 . S
C609 U606 2.984 . S
C609 O607 1.353 . S
C609 O608 1.286 . S
C609 C611 1.363 . S
C610 C600 1.465 . S
C610 U606 2.847 . S
C610 O624 1.249 . S
C610 O625 1.202 . S
C611 C609 1.363 . S
C611 C613 1.408 . S
C611 C616 1.342 . S
C612 C613 1.310 . S
C612 C615 1.461 . S
C612 H632 0.932 . S
C613 C611 1.408 . S
C613 C612 1.310 . S
C613 H633 0.930 . S
C614 C615 1.474 . S
C614 C616 1.285 . S
C614 H634 0.929 . S
C615 C612 1.461 . S
C615 C614 1.474 . S
C616 C611 1.342 . S
C616 C614 1.285 . S
C616 H635 0.930 . S
C617 C620 1.424 . S
C617 C622 1.245 . S
C617 C623 1.428 . S
C618 C621 1.260 . S
C618 C622 1.477 . S
C618 H636 0.932 . S
C619 C620 1.384 . S
C619 C621 1.479 . S
C619 H637 0.929 . S
C620 C617 1.424 . S
C620 C619 1.384 . S
C620 H638 0.928 . S
C621 C618 1.260 . S
C621 C619 1.479 . S
C622 C617 1.245 . S
C622 C618 1.477 . S
C622 H639 0.932 . S
C623 U606 2.882 . S
C623 C617 1.428 . S
C623 O626 1.301 . S
C623 O627 1.282 . S
O624 U606 2.441 . S
O624 C610 1.249 . S
O625 U606 2.420 . S
O625 C610 1.202 . S
O626 U606 2.455 . S
O626 C623 1.301 . S
O627 U606 2.449 . S
O627 C623 1.282 . S
H628 C601 0.931 . S
H629 C603 0.929 . S
H630 C604 0.930 . S
H631 C605 0.931 . S
H632 C612 0.932 . S
H633 C613 0.930 . S
H634 C614 0.929 . S
H635 C616 0.930 . S
H636 C618 0.932 . S
H637 C619 0.929 . S
H638 C620 0.928 . S
H639 C622 0.932 . S
C640 C641 1.264 . S
C640 C645 1.479 . S
C640 C650 1.465 . S
C641 C640 1.264 . S
C641 C643 1.339 . S
C641 H668 0.931 . S
C642 C643 1.395 . S
C642 C644 1.320 . S
C643 C641 1.339 . S
C643 C642 1.395 . S
C643 H669 0.929 . S
C644 C642 1.320 . S
C644 C645 1.405 . S
C644 H670 0.930 . S
C645 C640 1.479 . S
C645 C644 1.405 . S
C645 H671 0.931 . S
U646 O647 2.454 . S
U646 O648 2.458 . S
U646 C649 2.984 . S
U646 C650 2.847 . S
U646 C663 2.882 . S
U646 O664 2.441 . S
U646 O665 2.420 . S
U646 O666 2.455 . S
U646 O667 2.449 . S
O647 U646 2.454 . S
O647 C649 1.353 . S
O648 U646 2.458 . S
O648 C649 1.286 . S
C649 U646 2.984 . S
C649 O647 1.353 . S
C649 O648 1.286 . S
C649 C651 1.363 . S
C650 C640 1.465 . S
C650 U646 2.847 . S
C650 O664 1.249 . S
C650 O665 1.202 . S
C651 C649 1.363 . S
C651 C653 1.408 . S
C651 C656 1.342 . S
C652 C653 1.310 . S
C652 C655 1.461 . S
C652 H672 0.932 . S
C653 C651 1.408 . S
C653 C652 1.310 . S
C653 H673 0.930 . S
C654 C655 1.474 . S
C654 C656 1.285 . S
C654 H674 0.929 . S
C655 C652 1.461 . S
C655 C654 1.474 . S
C656 C651 1.342 . S
C656 C654 1.285 . S
C656 H675 0.930 . S
C657 C660 1.424 . S
C657 C662 1.245 . S
C657 C663 1.428 . S
C658 C661 1.260 . S
C658 C662 1.477 . S
C658 H676 0.932 . S
C659 C660 1.384 . S
C659 C661 1.479 . S
C659 H677 0.929 . S
C660 C657 1.424 . S
C660 C659 1.384 . S
C660 H678 0.928 . S
C661 C658 1.260 . S
C661 C659 1.479 . S
C662 C657 1.245 . S
C662 C658 1.477 . S
C662 H679 0.932 . S
C663 U646 2.882 . S
C663 C657 1.428 . S
C663 O666 1.301 . S
C663 O667 1.282 . S
O664 U646 2.441 . S
O664 C650 1.249 . S
O665 U646 2.420 . S
O665 C650 1.202 . S
O666 U646 2.455 . S
O666 C663 1.301 . S
O667 U646 2.449 . S
O667 C663 1.282 . S
H668 C641 0.931 . S
H669 C643 0.929 . S
H670 C644 0.930 . S
H671 C645 0.931 . S
H672 C652 0.932 . S
H673 C653 0.930 . S
H674 C654 0.929 . S
H675 C656 0.930 . S
H676 C658 0.932 . S
H677 C659 0.929 . S
H678 C660 0.928 . S
H679 C662 0.932 . S
C680 C681 1.264 . S
C680 C685 1.479 . S
C680 C690 1.465 . S
C681 C680 1.264 . S
C681 C683 1.339 . S
C681 H708 0.931 . S
C682 C683 1.395 . S
C682 C684 1.320 . S
C683 C681 1.339 . S
C683 C682 1.395 . S
C683 H709 0.929 . S
C684 C682 1.320 . S
C684 C685 1.405 . S
C684 H710 0.930 . S
C685 C680 1.479 . S
C685 C684 1.405 . S
C685 H711 0.931 . S
U686 O687 2.454 . S
U686 O688 2.458 . S
U686 C689 2.984 . S
U686 C690 2.847 . S
U686 C703 2.882 . S
U686 O704 2.441 . S
U686 O705 2.420 . S
U686 O706 2.455 . S
U686 O707 2.449 . S
O687 U686 2.454 . S
O687 C689 1.353 . S
O688 U686 2.458 . S
O688 C689 1.286 . S
C689 U686 2.984 . S
C689 O687 1.353 . S
C689 O688 1.286 . S
C689 C691 1.363 . S
C690 C680 1.465 . S
C690 U686 2.847 . S
C690 O704 1.249 . S
C690 O705 1.202 . S
C691 C689 1.363 . S
C691 C693 1.408 . S
C691 C696 1.342 . S
C692 C693 1.310 . S
C692 C695 1.461 . S
C692 H712 0.932 . S
C693 C691 1.408 . S
C693 C692 1.310 . S
C693 H713 0.930 . S
C694 C695 1.474 . S
C694 C696 1.285 . S
C694 H714 0.929 . S
C695 C692 1.461 . S
C695 C694 1.474 . S
C696 C691 1.342 . S
C696 C694 1.285 . S
C696 H715 0.930 . S
C697 C700 1.424 . S
C697 C702 1.245 . S
C697 C703 1.428 . S
C698 C701 1.260 . S
C698 C702 1.477 . S
C698 H716 0.932 . S
C699 C700 1.384 . S
C699 C701 1.479 . S
C699 H717 0.929 . S
C700 C697 1.424 . S
C700 C699 1.384 . S
C700 H718 0.928 . S
C701 C698 1.260 . S
C701 C699 1.479 . S
C702 C697 1.245 . S
C702 C698 1.477 . S
C702 H719 0.932 . S
C703 U686 2.882 . S
C703 C697 1.428 . S
C703 O706 1.301 . S
C703 O707 1.282 . S
O704 U686 2.441 . S
O704 C690 1.249 . S
O705 U686 2.420 . S
O705 C690 1.202 . S
O706 U686 2.455 . S
O706 C703 1.301 . S
O707 U686 2.449 . S
O707 C703 1.282 . S
H708 C681 0.931 . S
H709 C683 0.929 . S
H710 C684 0.930 . S
H711 C685 0.931 . S
H712 C692 0.932 . S
H713 C693 0.930 . S
H714 C694 0.929 . S
H715 C696 0.930 . S
H716 C698 0.932 . S
H717 C699 0.929 . S
H718 C700 0.928 . S
H719 C702 0.932 . S
O720 Mg721 1.990 . S
O720 C734 1.253 1_565 S
Mg721 O720 1.990 . S
Mg721 O724 2.180 1_556 S
Mg721 O725 2.117 . S
Mg721 O739 2.030 1_565 S
O722 Mg723 2.072 1_556 S
O722 C734 1.260 . S
Mg723 O722 2.072 1_554 S
Mg723 O724 2.099 1_545 S
Mg723 O726 2.079 . S
Mg723 O727 2.072 1_545 S
Mg723 O729 2.099 . S
Mg723 O740 2.079 . S
O724 Mg721 2.180 1_554 S
O724 Mg723 2.099 1_565 S
O724 C735 1.279 . S
O725 Mg721 2.117 . S
O725 C735 1.250 1_556 S
O726 Mg723 2.079 . S
O726 C736 1.264 . S
O727 Mg723 2.072 1_565 S
O727 C737 1.260 . S
Mg728 O729 2.180 . S
Mg728 O730 2.045 . S
Mg728 O731 1.990 1_545 S
Mg728 O732 2.117 . S
O729 Mg723 2.099 . S
O729 Mg728 2.180 . S
O729 C738 1.279 . S
O730 Mg728 2.045 . S
O730 C736 1.237 . S
O731 Mg728 1.990 1_565 S
O731 C737 1.253 . S
O732 Mg728 2.117 . S
O732 C738 1.250 . S
C733 O739 1.248 . S
C733 O740 1.264 1_556 S
C734 O720 1.253 1_545 S
C734 O722 1.260 . S
C735 O724 1.279 . S
C735 O725 1.250 1_554 S
C736 O726 1.264 . S
C736 O730 1.237 . S
C737 O727 1.260 . S
C737 O731 1.253 . S
C738 O729 1.279 . S
C738 O732 1.250 . S
O739 Mg721 2.030 1_545 S
O739 C733 1.248 . S
O740 Mg723 2.079 . S
O740 C733 1.264 1_554 S
O741 Mg742 1.990 . S
O741 C755 1.251 . S
Mg742 O741 1.990 . S
Mg742 O745 2.180 1_556 S
Mg742 O746 2.117 . S
Mg742 O760 2.030 1_455 S
O743 Mg744 2.072 1_556 S
O743 C755 1.265 1_655 S
Mg744 O743 2.072 1_554 S
Mg744 O745 2.096 1_655 S
Mg744 O747 2.081 . S
Mg744 O748 2.039 1_655 S
Mg744 O750 2.103 . S
Mg744 O761 2.111 . S
O745 Mg742 2.180 1_554 S
O745 Mg744 2.096 1_455 S
O745 C756 1.279 . S
O746 Mg742 2.117 . S
O746 C756 1.250 1_556 S
O747 Mg744 2.081 . S
O747 C757 1.264 1_655 S
O748 Mg744 2.039 1_455 S
O748 C758 1.260 . S
Mg749 O750 2.180 . S
Mg749 O751 2.030 1_655 S
Mg749 O752 1.990 1_655 S
Mg749 O753 2.117 . S
O750 Mg744 2.103 . S
O750 Mg749 2.180 . S
O750 C759 1.279 . S
O751 Mg749 2.030 1_455 S
O751 C757 1.248 . S
O752 Mg749 1.990 1_455 S
O752 C758 1.253 . S
O753 Mg749 2.117 . S
O753 C759 1.250 . S
C754 O760 1.248 . S
C754 O761 1.264 1_556 S
C755 O741 1.251 . S
C755 O743 1.265 1_455 S
C756 O745 1.279 . S
C756 O746 1.250 1_554 S
C757 O747 1.264 1_455 S
C757 O751 1.248 . S
C758 O748 1.260 . S
C758 O752 1.253 . S
C759 O750 1.279 . S
C759 O753 1.250 . S
O760 Mg742 2.030 1_655 S
O760 C754 1.248 . S
O761 Mg744 2.111 . S
O761 C754 1.264 1_554 S
O762 Mg763 1.990 . S
O762 C776 1.253 . S
Mg763 O762 1.990 . S
Mg763 O766 2.180 . S
Mg763 O767 2.117 . S
Mg763 O781 2.030 . S
O764 Mg765 2.071 . S
O764 C776 1.260 . S
Mg765 O764 2.071 . S
Mg765 O766 2.098 . S
Mg765 O768 2.080 1_554 S
Mg765 O769 2.072 1_554 S
Mg765 O771 2.099 1_554 S
Mg765 O782 2.078 . S
O766 Mg763 2.180 . S
O766 Mg765 2.098 . S
O766 C777 1.279 . S
O767 Mg763 2.117 . S
O767 C777 1.250 . S
O768 Mg765 2.080 1_556 S
O768 C778 1.264 . S
O769 Mg765 2.072 1_556 S
O769 C779 1.260 . S
Mg770 O771 2.180 . S
Mg770 O772 2.030 . S
Mg770 O773 1.990 . S
Mg770 O774 2.145 . S
O771 Mg765 2.099 1_556 S
O771 Mg770 2.180 . S
O771 C780 1.279 1_556 S
O772 Mg770 2.030 . S
O772 C778 1.248 . S
O773 Mg770 1.990 . S
O773 C779 1.253 . S
O774 Mg770 2.145 . S
O774 C780 1.240 1_556 S
C775 O781 1.248 . S
C775 O782 1.294 . S
C776 O762 1.253 . S
C776 O764 1.260 . S
C777 O766 1.279 . S
C777 O767 1.250 . S
C778 O768 1.264 . S
C778 O772 1.248 . S
C779 O769 1.260 . S
C779 O773 1.253 . S
C780 O771 1.279 1_554 S
C780 O774 1.240 1_554 S
O781 Mg763 2.030 . S
O781 C775 1.248 . S
O782 Mg765 2.078 . S
O782 C775 1.294 . S
O783 Mg784 1.990 . S
O783 C797 1.253 . S
Mg784 O783 1.990 . S
Mg784 O787 2.180 . S
Mg784 O788 2.117 . S
Mg784 O802 2.030 . S
O785 Mg786 2.072 . S
O785 C797 1.260 . S
Mg786 O785 2.072 . S
Mg786 O787 2.099 . S
Mg786 O789 2.079 . S
Mg786 O790 2.072 . S
Mg786 O792 2.099 . S
Mg786 O803 2.079 . S
O787 Mg784 2.180 . S
O787 Mg786 2.099 . S
O787 C798 1.279 . S
O788 Mg784 2.117 . S
O788 C798 1.250 . S
O789 Mg786 2.079 . S
O789 C799 1.264 . S
O790 Mg786 2.072 . S
O790 C800 1.260 . S
Mg791 O792 2.180 . S
Mg791 O793 2.030 . S
Mg791 O794 1.990 . S
Mg791 O795 2.117 . S
O792 Mg786 2.099 . S
O792 Mg791 2.180 . S
O792 C801 1.279 . S
O793 Mg791 2.030 . S
O793 C799 1.248 . S
O794 Mg791 1.990 . S
O794 C800 1.253 . S
O795 Mg791 2.117 . S
O795 C801 1.250 . S
C796 O802 1.248 . S
C796 O803 1.264 . S
C797 O783 1.253 . S
C797 O785 1.260 . S
C798 O787 1.279 . S
C798 O788 1.250 . S
C799 O789 1.264 . S
C799 O793 1.248 . S
C800 O790 1.260 . S
C800 O794 1.253 . S
C801 O792 1.279 . S
C801 O795 1.250 . S
O802 Mg784 2.030 . S
O802 C796 1.248 . S
O803 Mg786 2.079 . S
O803 C796 1.264 . S
O804 Mg805 1.990 . S
O804 C818 1.253 . S
Mg805 O804 1.990 . S
Mg805 O808 2.180 . S
Mg805 O809 2.117 . S
Mg805 O823 2.030 . S
O806 Mg807 2.072 . S
O806 C818 1.260 . S
Mg807 O806 2.072 . S
Mg807 O808 2.099 . S
Mg807 O810 2.079 . S
Mg807 O811 2.072 . S
Mg807 O813 2.099 . S
Mg807 O824 2.079 . S
O808 Mg805 2.180 . S
O808 Mg807 2.099 . S
O808 C819 1.279 . S
O809 Mg805 2.117 . S
O809 C819 1.250 . S
O810 Mg807 2.079 . S
O810 C820 1.264 . S
O811 Mg807 2.072 . S
O811 C821 1.260 . S
Mg812 O813 2.180 . S
Mg812 O814 2.030 . S
Mg812 O815 1.990 . S
Mg812 O816 2.117 . S
O813 Mg807 2.099 . S
O813 Mg812 2.180 . S
O813 C822 1.279 . S
O814 Mg812 2.030 . S
O814 C820 1.248 . S
O815 Mg812 1.990 . S
O815 C821 1.253 . S
O816 Mg812 2.117 . S
O816 C822 1.250 . S
C817 O823 1.248 . S
C817 O824 1.264 . S
C818 O804 1.253 . S
C818 O806 1.260 . S
C819 O808 1.279 . S
C819 O809 1.250 . S
C820 O810 1.264 . S
C820 O814 1.248 . S
C821 O811 1.260 . S
C821 O815 1.253 . S
C822 O813 1.279 . S
C822 O816 1.250 . S
O823 Mg805 2.030 . S
O823 C817 1.248 . S
O824 Mg807 2.079 . S
O824 C817 1.264 . S
O825 Mg826 1.990 . S
O825 C839 1.253 . S
Mg826 O825 1.990 . S
Mg826 O829 2.180 . S
Mg826 O830 2.117 . S
Mg826 O844 2.030 . S
O827 Mg828 2.072 . S
O827 C839 1.260 . S
Mg828 O827 2.072 . S
Mg828 O829 2.099 . S
Mg828 O831 2.079 . S
Mg828 O832 2.072 . S
Mg828 O834 2.099 . S
Mg828 O845 2.079 . S
O829 Mg826 2.180 . S
O829 Mg828 2.099 . S
O829 C840 1.279 . S
O830 Mg826 2.117 . S
O830 C840 1.250 . S
O831 Mg828 2.079 . S
O831 C841 1.264 . S
O832 Mg828 2.072 . S
O832 C842 1.260 . S
Mg833 O834 2.180 . S
Mg833 O835 2.030 . S
Mg833 O836 1.990 . S
Mg833 O837 2.117 . S
O834 Mg828 2.099 . S
O834 Mg833 2.180 . S
O834 C843 1.279 . S
O835 Mg833 2.030 . S
O835 C841 1.248 . S
O836 Mg833 1.990 . S
O836 C842 1.253 . S
O837 Mg833 2.117 . S
O837 C843 1.250 . S
C838 O844 1.248 . S
C838 O845 1.264 . S
C839 O825 1.253 . S
C839 O827 1.260 . S
C840 O829 1.279 . S
C840 O830 1.250 . S
C841 O831 1.264 . S
C841 O835 1.248 . S
C842 O832 1.260 . S
C842 O836 1.253 . S
C843 O834 1.279 . S
C843 O837 1.250 . S
O844 Mg826 2.030 . S
O844 C838 1.248 . S
O845 Mg828 2.079 . S
O845 C838 1.264 . S
O846 Mg847 1.990 . S
O846 C860 1.253 . S
Mg847 O846 1.990 . S
Mg847 O850 2.180 . S
Mg847 O851 2.117 . S
Mg847 O865 2.030 . S
O848 Mg849 2.072 . S
O848 C860 1.260 . S
Mg849 O848 2.072 . S
Mg849 O850 2.099 . S
Mg849 O852 2.079 . S
Mg849 O853 2.072 . S
Mg849 O855 2.099 . S
Mg849 O866 2.079 . S
O850 Mg847 2.180 . S
O850 Mg849 2.099 . S
O850 C861 1.279 . S
O851 Mg847 2.117 . S
O851 C861 1.250 . S
O852 Mg849 2.079 . S
O852 C862 1.264 . S
O853 Mg849 2.072 . S
O853 C863 1.260 . S
Mg854 O855 2.180 . S
Mg854 O856 2.030 . S
Mg854 O857 1.990 . S
Mg854 O858 2.117 . S
O855 Mg849 2.099 . S
O855 Mg854 2.180 . S
O855 C864 1.279 . S
O856 Mg854 2.030 . S
O856 C862 1.248 . S
O857 Mg854 1.990 . S
O857 C863 1.253 . S
O858 Mg854 2.117 . S
O858 C864 1.250 . S
C859 O865 1.248 . S
C859 O866 1.264 . S
C860 O846 1.253 . S
C860 O848 1.260 . S
C861 O850 1.279 . S
C861 O851 1.250 . S
C862 O852 1.264 . S
C862 O856 1.248 . S
C863 O853 1.260 . S
C863 O857 1.253 . S
C864 O855 1.279 . S
C864 O858 1.250 . S
O865 Mg847 2.030 . S
O865 C859 1.248 . S
O866 Mg849 2.079 . S
O866 C859 1.264 . S
O867 Mg868 1.990 . S
O867 C881 1.253 . S
Mg868 O867 1.990 . S
Mg868 O871 2.180 . S
Mg868 O872 2.117 . S
Mg868 O886 2.030 . S
O869 Mg870 2.072 . S
O869 C881 1.260 . S
Mg870 O869 2.072 . S
Mg870 O871 2.099 . S
Mg870 O873 2.079 . S
Mg870 O874 2.072 . S
Mg870 O876 2.099 . S
Mg870 O887 2.079 . S
O871 Mg868 2.180 . S
O871 Mg870 2.099 . S
O871 C882 1.279 . S
O872 Mg868 2.117 . S
O872 C882 1.250 . S
O873 Mg870 2.079 . S
O873 C883 1.264 . S
O874 Mg870 2.072 . S
O874 C884 1.260 . S
Mg875 O876 2.180 . S
Mg875 O877 2.030 . S
Mg875 O878 1.990 . S
Mg875 O879 2.117 . S
O876 Mg870 2.099 . S
O876 Mg875 2.180 . S
O876 C885 1.279 . S
O877 Mg875 2.030 . S
O877 C883 1.248 . S
O878 Mg875 1.990 . S
O878 C884 1.253 . S
O879 Mg875 2.117 . S
O879 C885 1.250 . S
C880 O886 1.248 . S
C880 O887 1.264 . S
C881 O867 1.253 . S
C881 O869 1.260 . S
C882 O871 1.279 . S
C882 O872 1.250 . S
C883 O873 1.264 . S
C883 O877 1.248 . S
C884 O874 1.260 . S
C884 O878 1.253 . S
C885 O876 1.279 . S
C885 O879 1.250 . S
O886 Mg868 2.030 . S
O886 C880 1.248 . S
O887 Mg870 2.079 . S
O887 C880 1.264 . S
O888 Mg889 1.990 . S
O888 C902 1.253 . S
Mg889 O888 1.990 . S
Mg889 O892 2.180 . S
Mg889 O893 2.117 . S
Mg889 O907 2.030 . S
O890 Mg891 2.072 . S
O890 C902 1.260 . S
Mg891 O890 2.072 . S
Mg891 O892 2.099 . S
Mg891 O894 2.079 . S
Mg891 O895 2.072 . S
Mg891 O897 2.099 . S
Mg891 O908 2.079 . S
O892 Mg889 2.180 . S
O892 Mg891 2.099 . S
O892 C903 1.279 . S
O893 Mg889 2.117 . S
O893 C903 1.250 . S
O894 Mg891 2.079 . S
O894 C904 1.264 . S
O895 Mg891 2.072 . S
O895 C905 1.260 . S
Mg896 O897 2.180 . S
Mg896 O898 2.030 . S
Mg896 O899 1.990 . S
Mg896 O900 2.117 . S
O897 Mg891 2.099 . S
O897 Mg896 2.180 . S
O897 C906 1.279 . S
O898 Mg896 2.030 . S
O898 C904 1.248 . S
O899 Mg896 1.990 . S
O899 C905 1.253 . S
O900 Mg896 2.117 . S
O900 C906 1.250 . S
C901 O907 1.248 . S
C901 O908 1.264 . S
C902 O888 1.253 . S
C902 O890 1.260 . S
C903 O892 1.279 . S
C903 O893 1.250 . S
C904 O894 1.264 . S
C904 O898 1.248 . S
C905 O895 1.260 . S
C905 O899 1.253 . S
C906 O897 1.279 . S
C906 O900 1.250 . S
O907 Mg889 2.030 . S
O907 C901 1.248 . S
O908 Mg891 2.079 . S
O908 C901 1.264 . S
H909 C915 0.930 . S
H910 C918 0.930 . S
H911 C919 0.930 . S
H912 C920 0.930 . S
H913 C923 0.930 . S
H914 C924 0.930 . S
C915 H909 0.930 . S
C915 C916 1.355 . S
C915 C917 1.415 . S
C916 C915 1.355 . S
C916 C918 1.419 . S
C917 C915 1.415 . S
C917 C922 1.425 . S
C917 C924 1.409 . S
C918 H910 0.930 . S
C918 C916 1.419 . S
C918 C919 1.362 . S
C919 H911 0.930 . S
C919 C918 1.362 . S
C919 C922 1.409 . S
C920 H912 0.930 . S
C920 C921 1.355 . S
C920 C922 1.415 . S
C921 C920 1.355 . S
C921 C923 1.419 . S
C922 C917 1.425 . S
C922 C919 1.409 . S
C922 C920 1.415 . S
C923 H913 0.930 . S
C923 C921 1.419 . S
C923 C924 1.362 . S
C924 H914 0.930 . S
C924 C917 1.409 . S
C924 C923 1.362 . S
H925 C931 0.930 . S
H926 C934 0.930 . S
H927 C935 0.951 . S
H928 C936 0.930 . S
H929 C939 0.930 . S
H930 C940 0.930 . S
C931 H925 0.930 . S
C931 C932 1.355 . S
C931 C933 1.415 . S
C932 C931 1.355 . S
C932 C934 1.419 . S
C933 C931 1.415 . S
C933 C938 1.425 . S
C933 C940 1.409 . S
C934 H926 0.930 . S
C934 C932 1.419 . S
C934 C935 1.362 . S
C935 H927 0.951 . S
C935 C934 1.362 . S
C935 C938 1.409 . S
C936 H928 0.930 . S
C936 C937 1.355 . S
C936 C938 1.415 . S
C937 C936 1.355 . S
C937 C939 1.419 . S
C938 C933 1.425 . S
C938 C935 1.409 . S
C938 C936 1.415 . S
C939 H929 0.930 . S
C939 C937 1.419 . S
C939 C940 1.362 . S
C940 H930 0.930 . S
C940 C933 1.409 . S
C940 C939 1.362 . S
H941 C947 0.930 . S
H942 C950 0.930 . S
H943 C951 0.930 . S
H944 C952 0.930 . S
H945 C955 0.930 . S
H946 C956 0.930 . S
C947 H941 0.930 . S
C947 C948 1.355 . S
C947 C949 1.415 . S
C948 C947 1.355 . S
C948 C950 1.419 . S
C949 C947 1.415 . S
C949 C954 1.425 . S
C949 C956 1.409 . S
C950 H942 0.930 . S
C950 C948 1.419 . S
C950 C951 1.362 . S
C951 H943 0.930 . S
C951 C950 1.362 . S
C951 C954 1.409 . S
C952 H944 0.930 . S
C952 C953 1.355 . S
C952 C954 1.415 . S
C953 C952 1.355 . S
C953 C955 1.419 . S
C954 C949 1.425 . S
C954 C951 1.409 . S
C954 C952 1.415 . S
C955 H945 0.930 . S
C955 C953 1.419 . S
C955 C956 1.362 . S
C956 H946 0.930 . S
C956 C949 1.409 . S
C956 C955 1.362 . S
H957 C963 0.930 . S
H958 C966 0.930 . S
H959 C967 0.930 . S
H960 C968 0.930 . S
H961 C971 0.930 . S
H962 C972 0.930 . S
C963 H957 0.930 . S
C963 C964 1.355 . S
C963 C965 1.415 . S
C964 C963 1.355 . S
C964 C966 1.419 1_556 S
C965 C963 1.415 . S
C965 C970 1.425 1_556 S
C965 C972 1.409 . S
C966 H958 0.930 . S
C966 C964 1.419 1_554 S
C966 C967 1.362 . S
C967 H959 0.930 . S
C967 C966 1.362 . S
C967 C970 1.409 . S
C968 H960 0.930 . S
C968 C969 1.355 1_554 S
C968 C970 1.415 . S
C969 C968 1.355 1_556 S
C969 C971 1.419 . S
C970 C965 1.425 1_554 S
C970 C967 1.409 . S
C970 C968 1.415 . S
C971 H961 0.930 . S
C971 C969 1.419 . S
C971 C972 1.362 . S
C972 H962 0.930 . S
C972 C965 1.409 . S
C972 C971 1.362 . S
H973 C979 0.930 . S
H974 C982 0.930 . S
H975 C983 0.930 . S
H976 C984 0.930 . S
H977 C987 0.930 . S
H978 C988 0.930 . S
C979 H973 0.930 . S
C979 C980 1.355 . S
C979 C981 1.415 . S
C980 C979 1.355 . S
C980 C982 1.419 1_556 S
C981 C979 1.415 . S
C981 C986 1.403 1_556 S
C981 C988 1.409 . S
C982 H974 0.930 . S
C982 C980 1.419 1_554 S
C982 C983 1.362 . S
C983 H975 0.930 . S
C983 C982 1.362 . S
C983 C986 1.426 . S
C984 H976 0.930 . S
C984 C985 1.355 1_554 S
C984 C986 1.420 . S
C985 C984 1.355 1_556 S
C985 C987 1.419 . S
C986 C981 1.403 1_554 S
C986 C983 1.426 . S
C986 C984 1.420 . S
C987 H977 0.930 . S
C987 C985 1.419 . S
C987 C988 1.362 . S
C988 H978 0.930 . S
C988 C981 1.409 . S
C988 C987 1.362 . S
H989 C995 0.930 . S
H990 C998 0.930 . S
H991 C999 0.930 . S
H992 C1000 0.930 . S
H993 C1003 0.930 . S
H994 C1004 0.930 . S
C995 H989 0.930 . S
C995 C996 1.355 . S
C995 C997 1.415 . S
C996 C995 1.355 . S
C996 C998 1.419 . S
C997 C995 1.415 . S
C997 C1002 1.425 . S
C997 C1004 1.409 . S
C998 H990 0.930 . S
C998 C996 1.419 . S
C998 C999 1.362 . S
C999 H991 0.930 . S
C999 C998 1.362 . S
C999 C1002 1.409 . S
C1000 H992 0.930 . S
C1000 C1001 1.355 . S
C1000 C1002 1.415 . S
C1001 C1000 1.355 . S
C1001 C1003 1.419 . S
C1002 C997 1.425 . S
C1002 C999 1.409 . S
C1002 C1000 1.415 . S
C1003 H993 0.930 . S
C1003 C1001 1.419 . S
C1003 C1004 1.362 . S
C1004 H994 0.930 . S
C1004 C997 1.409 . S
C1004 C1003 1.362 . S
H1005 C1011 0.930 . S
H1006 C1014 0.930 . S
H1007 C1015 0.930 . S
H1008 C1016 0.930 . S
H1009 C1019 0.930 . S
H1010 C1020 0.930 . S
C1011 H1005 0.930 . S
C1011 C1012 1.355 . S
C1011 C1013 1.415 . S
C1012 C1011 1.355 . S
C1012 C1014 1.419 1_556 S
C1013 C1011 1.415 . S
C1013 C1018 1.425 1_556 S
C1013 C1020 1.409 . S
C1014 H1006 0.930 . S
C1014 C1012 1.419 1_554 S
C1014 C1015 1.362 . S
C1015 H1007 0.930 . S
C1015 C1014 1.362 . S
C1015 C1018 1.409 . S
C1016 H1008 0.930 . S
C1016 C1017 1.355 1_554 S
C1016 C1018 1.415 . S
C1017 C1016 1.355 1_556 S
C1017 C1019 1.419 . S
C1018 C1013 1.425 1_554 S
C1018 C1015 1.409 . S
C1018 C1016 1.415 . S
C1019 H1009 0.930 . S
C1019 C1017 1.419 . S
C1019 C1020 1.362 . S
C1020 H1010 0.930 . S
C1020 C1013 1.409 . S
C1020 C1019 1.362 . S
H1021 C1027 0.930 . S
H1022 C1030 0.930 . S
H1023 C1031 0.930 . S
H1024 C1032 0.930 . S
H1025 C1035 0.930 . S
H1026 C1036 0.930 . S
C1027 H1021 0.930 . S
C1027 C1028 1.355 1_554 S
C1027 C1029 1.414 1_554 S
C1028 C1027 1.355 1_556 S
C1028 C1030 1.419 . S
C1029 C1027 1.414 1_556 S
C1029 C1034 1.430 . S
C1029 C1036 1.406 1_556 S
C1030 H1022 0.930 . S
C1030 C1028 1.419 . S
C1030 C1031 1.362 . S
C1031 H1023 0.930 . S
C1031 C1030 1.362 . S
C1031 C1034 1.409 . S
C1032 H1024 0.930 . S
C1032 C1033 1.355 . S
C1032 C1034 1.415 . S
C1033 C1032 1.355 . S
C1033 C1035 1.419 1_556 S
C1034 C1029 1.430 . S
C1034 C1031 1.409 . S
C1034 C1032 1.415 . S
C1035 H1025 0.930 . S
C1035 C1033 1.419 1_554 S
C1035 C1036 1.362 . S
C1036 H1026 0.930 . S
C1036 C1029 1.406 1_554 S
C1036 C1035 1.362 . S
H1037 C1043 0.930 . S
H1038 C1046 0.930 . S
H1039 C1047 0.930 . S
H1040 C1048 0.930 . S
H1041 C1051 0.930 . S
H1042 C1052 0.930 . S
C1043 H1037 0.930 . S
C1043 C1044 1.355 . S
C1043 C1045 1.415 . S
C1044 C1043 1.355 . S
C1044 C1046 1.419 1_556 S
C1045 C1043 1.415 . S
C1045 C1050 1.425 1_556 S
C1045 C1052 1.409 . S
C1046 H1038 0.930 . S
C1046 C1044 1.419 1_554 S
C1046 C1047 1.362 . S
C1047 H1039 0.930 . S
C1047 C1046 1.362 . S
C1047 C1050 1.409 . S
C1048 H1040 0.930 . S
C1048 C1049 1.355 1_554 S
C1048 C1050 1.415 . S
C1049 C1048 1.355 1_556 S
C1049 C1051 1.419 . S
C1050 C1045 1.425 1_554 S
C1050 C1047 1.409 . S
C1050 C1048 1.415 . S
C1051 H1041 0.930 . S
C1051 C1049 1.419 . S
C1051 C1052 1.362 . S
C1052 H1042 0.930 . S
C1052 C1045 1.409 . S
C1052 C1051 1.362 . S
H1053 C1059 0.962 . S
H1054 C1062 0.930 . S
H1055 C1063 0.930 . S
H1056 C1064 0.930 . S
H1057 C1067 0.930 . S
H1058 C1068 0.930 . S
C1059 H1053 0.962 . S
C1059 C1060 1.327 1_556 S
C1059 C1061 1.411 1_556 S
C1060 C1059 1.327 1_554 S
C1060 C1062 1.419 . S
C1061 C1059 1.411 1_554 S
C1061 C1066 1.425 . S
C1061 C1068 1.409 1_554 S
C1062 H1054 0.930 . S
C1062 C1060 1.419 . S
C1062 C1063 1.362 . S
C1063 H1055 0.930 . S
C1063 C1062 1.362 . S
C1063 C1066 1.409 . S
C1064 H1056 0.930 . S
C1064 C1065 1.355 . S
C1064 C1066 1.415 . S
C1065 C1064 1.355 . S
C1065 C1067 1.419 1_554 S
C1066 C1061 1.425 . S
C1066 C1063 1.409 . S
C1066 C1064 1.415 . S
C1067 H1057 0.930 . S
C1067 C1065 1.419 1_556 S
C1067 C1068 1.362 . S
C1068 H1058 0.930 . S
C1068 C1061 1.409 1_556 S
C1068 C1067 1.362 . S
H1069 C1075 0.930 . S
H1070 C1078 0.931 . S
H1071 C1079 0.930 1_556 S
H1072 C1080 0.930 1_556 S
H1073 C1083 0.930 . S
H1074 C1084 0.930 . S
C1075 H1069 0.930 . S
C1075 C1076 1.355 . S
C1075 C1077 1.415 . S
C1076 C1075 1.355 . S
C1076 C1078 1.419 . S
C1077 C1075 1.415 . S
C1077 C1082 1.425 . S
C1077 C1084 1.409 . S
C1078 H1070 0.931 . S
C1078 C1076 1.419 . S
C1078 C1079 1.362 . S
C1079 H1071 0.930 1_554 S
C1079 C1078 1.362 . S
C1079 C1082 1.409 . S
C1080 H1072 0.930 1_554 S
C1080 C1081 1.355 . S
C1080 C1082 1.415 . S
C1081 C1080 1.355 . S
C1081 C1083 1.419 . S
C1082 C1077 1.425 . S
C1082 C1079 1.409 . S
C1082 C1080 1.415 . S
C1083 H1073 0.930 . S
C1083 C1081 1.419 . S
C1083 C1084 1.362 . S
C1084 H1074 0.930 . S
C1084 C1077 1.409 . S
C1084 C1083 1.362 . S
H1085 C1091 0.930 . S
H1086 C1094 0.930 . S
H1087 C1095 0.930 . S
H1088 C1096 0.930 . S
H1089 C1099 0.943 . S
H1090 C1100 0.930 . S
C1091 H1085 0.930 . S
C1091 C1092 1.355 . S
C1091 C1093 1.415 . S
C1092 C1091 1.355 . S
C1092 C1094 1.419 . S
C1093 C1091 1.415 . S
C1093 C1098 1.425 . S
C1093 C1100 1.409 . S
C1094 H1086 0.930 . S
C1094 C1092 1.419 . S
C1094 C1095 1.362 . S
C1095 H1087 0.930 . S
C1095 C1094 1.362 . S
C1095 C1098 1.409 . S
C1096 H1088 0.930 . S
C1096 C1097 1.355 . S
C1096 C1098 1.415 . S
C1097 C1096 1.355 . S
C1097 C1099 1.419 . S
C1098 C1093 1.425 . S
C1098 C1095 1.409 . S
C1098 C1096 1.415 . S
C1099 H1089 0.943 . S
C1099 C1097 1.419 . S
C1099 C1100 1.362 . S
C1100 H1090 0.930 . S
C1100 C1093 1.409 . S
C1100 C1099 1.362 . S
H1101 C1107 0.930 . S
H1102 C1110 0.930 . S
H1103 C1111 0.930 . S
H1104 C1112 0.930 . S
H1105 C1115 0.930 . S
H1106 C1116 0.930 . S
C1107 H1101 0.930 . S
C1107 C1108 1.355 . S
C1107 C1109 1.415 . S
C1108 C1107 1.355 . S
C1108 C1110 1.419 . S
C1109 C1107 1.415 . S
C1109 C1114 1.425 . S
C1109 C1116 1.409 . S
C1110 H1102 0.930 . S
C1110 C1108 1.419 . S
C1110 C1111 1.362 . S
C1111 H1103 0.930 . S
C1111 C1110 1.362 . S
C1111 C1114 1.409 . S
C1112 H1104 0.930 . S
C1112 C1113 1.355 . S
C1112 C1114 1.415 . S
C1113 C1112 1.355 . S
C1113 C1115 1.419 . S
C1114 C1109 1.425 . S
C1114 C1111 1.409 . S
C1114 C1112 1.415 . S
C1115 H1105 0.930 . S
C1115 C1113 1.419 . S
C1115 C1116 1.362 . S
C1116 H1106 0.930 . S
C1116 C1109 1.409 . S
C1116 C1115 1.362 . S
H1117 C1123 0.930 . S
H1118 C1126 0.930 . S
H1119 C1127 0.930 . S
H1120 C1128 0.930 . S
H1121 C1131 0.930 . S
H1122 C1132 0.930 . S
C1123 H1117 0.930 . S
C1123 C1124 1.355 . S
C1123 C1125 1.415 . S
C1124 C1123 1.355 . S
C1124 C1126 1.419 . S
C1125 C1123 1.415 . S
C1125 C1130 1.425 . S
C1125 C1132 1.409 . S
C1126 H1118 0.930 . S
C1126 C1124 1.419 . S
C1126 C1127 1.362 . S
C1127 H1119 0.930 . S
C1127 C1126 1.362 . S
C1127 C1130 1.409 . S
C1128 H1120 0.930 . S
C1128 C1129 1.355 . S
C1128 C1130 1.415 . S
C1129 C1128 1.355 . S
C1129 C1131 1.419 . S
C1130 C1125 1.425 . S
C1130 C1127 1.409 . S
C1130 C1128 1.415 . S
C1131 H1121 0.930 . S
C1131 C1129 1.419 . S
C1131 C1132 1.362 . S
C1132 H1122 0.930 . S
C1132 C1125 1.409 . S
C1132 C1131 1.362 . S
H1133 C1139 0.930 . S
H1134 C1142 0.930 1_545 S
H1135 C1143 0.930 . S
H1136 C1144 0.930 . S
H1137 C1147 0.930 . S
H1138 C1148 0.930 . S
C1139 H1133 0.930 . S
C1139 C1140 1.355 . S
C1139 C1141 1.415 . S
C1140 C1139 1.355 . S
C1140 C1142 1.419 . S
C1141 C1139 1.415 . S
C1141 C1146 1.425 . S
C1141 C1148 1.409 . S
C1142 H1134 0.930 1_565 S
C1142 C1140 1.419 . S
C1142 C1143 1.362 . S
C1143 H1135 0.930 . S
C1143 C1142 1.362 . S
C1143 C1146 1.409 . S
C1144 H1136 0.930 . S
C1144 C1145 1.355 . S
C1144 C1146 1.415 . S
C1145 C1144 1.355 . S
C1145 C1147 1.419 . S
C1146 C1141 1.425 . S
C1146 C1143 1.409 . S
C1146 C1144 1.415 . S
C1147 H1137 0.930 . S
C1147 C1145 1.419 . S
C1147 C1148 1.362 . S
C1148 H1138 0.930 . S
C1148 C1141 1.409 . S
C1148 C1147 1.362 . S
H1149 C1155 0.930 . S
H1150 C1158 0.930 . S
H1151 C1159 0.930 . S
H1152 C1160 0.930 . S
H1153 C1163 0.930 . S
H1154 C1164 0.930 . S
C1155 H1149 0.930 . S
C1155 C1156 1.355 . S
C1155 C1157 1.415 . S
C1156 C1155 1.355 . S
C1156 C1158 1.419 . S
C1157 C1155 1.415 . S
C1157 C1162 1.425 . S
C1157 C1164 1.409 . S
C1158 H1150 0.930 . S
C1158 C1156 1.419 . S
C1158 C1159 1.362 . S
C1159 H1151 0.930 . S
C1159 C1158 1.362 . S
C1159 C1162 1.409 . S
C1160 H1152 0.930 . S
C1160 C1161 1.355 . S
C1160 C1162 1.415 . S
C1161 C1160 1.355 . S
C1161 C1163 1.419 . S
C1162 C1157 1.425 . S
C1162 C1159 1.409 . S
C1162 C1160 1.415 . S
C1163 H1153 0.930 . S
C1163 C1161 1.419 . S
C1163 C1164 1.362 . S
C1164 H1154 0.930 . S
C1164 C1157 1.409 . S
C1164 C1163 1.362 . S
H1165 C1171 0.930 . S
H1166 C1174 0.930 . S
H1167 C1175 0.930 . S
H1168 C1176 0.930 . S
H1169 C1179 0.930 . S
H1170 C1180 0.930 . S
C1171 H1165 0.930 . S
C1171 C1172 1.355 . S
C1171 C1173 1.415 . S
C1172 C1171 1.355 . S
C1172 C1174 1.419 . S
C1173 C1171 1.415 . S
C1173 C1178 1.425 . S
C1173 C1180 1.409 . S
C1174 H1166 0.930 . S
C1174 C1172 1.419 . S
C1174 C1175 1.362 . S
C1175 H1167 0.930 . S
C1175 C1174 1.362 . S
C1175 C1178 1.409 . S
C1176 H1168 0.930 . S
C1176 C1177 1.355 . S
C1176 C1178 1.415 . S
C1177 C1176 1.355 . S
C1177 C1179 1.419 . S
C1178 C1173 1.425 . S
C1178 C1175 1.409 . S
C1178 C1176 1.415 . S
C1179 H1169 0.930 . S
C1179 C1177 1.419 . S
C1179 C1180 1.362 . S
C1180 H1170 0.930 . S
C1180 C1173 1.409 . S
C1180 C1179 1.362 . S
H1181 C1187 0.930 . S
H1182 C1190 0.930 . S
H1183 C1191 0.930 . S
H1184 C1192 0.930 . S
H1185 C1195 0.930 . S
H1186 C1196 0.930 . S
C1187 H1181 0.930 . S
C1187 C1188 1.355 . S
C1187 C1189 1.415 . S
C1188 C1187 1.355 . S
C1188 C1190 1.419 . S
C1189 C1187 1.415 . S
C1189 C1194 1.425 . S
C1189 C1196 1.409 . S
C1190 H1182 0.930 . S
C1190 C1188 1.419 . S
C1190 C1191 1.362 . S
C1191 H1183 0.930 . S
C1191 C1190 1.362 . S
C1191 C1194 1.409 . S
C1192 H1184 0.930 . S
C1192 C1193 1.355 . S
C1192 C1194 1.415 . S
C1193 C1192 1.355 . S
C1193 C1195 1.419 . S
C1194 C1189 1.425 . S
C1194 C1191 1.409 . S
C1194 C1192 1.415 . S
C1195 H1185 0.930 . S
C1195 C1193 1.419 . S
C1195 C1196 1.362 . S
C1196 H1186 0.930 . S
C1196 C1189 1.409 . S
C1196 C1195 1.362 . S
H1197 C1203 0.930 . S
H1198 C1206 0.930 . S
H1199 C1207 0.930 . S
H1200 C1208 0.930 . S
H1201 C1211 0.930 . S
H1202 C1212 0.930 . S
C1203 H1197 0.930 . S
C1203 C1204 1.355 . S
C1203 C1205 1.415 . S
C1204 C1203 1.355 . S
C1204 C1206 1.419 . S
C1205 C1203 1.415 . S
C1205 C1210 1.425 . S
C1205 C1212 1.409 . S
C1206 H1198 0.930 . S
C1206 C1204 1.419 . S
C1206 C1207 1.362 . S
C1207 H1199 0.930 . S
C1207 C1206 1.362 . S
C1207 C1210 1.409 . S
C1208 H1200 0.930 . S
C1208 C1209 1.355 . S
C1208 C1210 1.415 . S
C1209 C1208 1.355 . S
C1209 C1211 1.419 . S
C1210 C1205 1.425 . S
C1210 C1207 1.409 . S
C1210 C1208 1.415 . S
C1211 H1201 0.930 . S
C1211 C1209 1.419 . S
C1211 C1212 1.362 . S
C1212 H1202 0.930 . S
C1212 C1205 1.409 . S
C1212 C1211 1.362 . S
H1213 C1219 0.930 . S
H1214 C1222 0.930 . S
H1215 C1223 0.930 . S
H1216 C1224 0.930 . S
H1217 C1227 0.930 . S
H1218 C1228 0.930 . S
C1219 H1213 0.930 . S
C1219 C1220 1.355 . S
C1219 C1221 1.415 . S
C1220 C1219 1.355 . S
C1220 C1222 1.419 . S
C1221 C1219 1.415 . S
C1221 C1226 1.425 . S
C1221 C1228 1.409 . S
C1222 H1214 0.930 . S
C1222 C1220 1.419 . S
C1222 C1223 1.362 . S
C1223 H1215 0.930 . S
C1223 C1222 1.362 . S
C1223 C1226 1.409 . S
C1224 H1216 0.930 . S
C1224 C1225 1.355 . S
C1224 C1226 1.415 . S
C1225 C1224 1.355 . S
C1225 C1227 1.419 . S
C1226 C1221 1.425 . S
C1226 C1223 1.409 . S
C1226 C1224 1.415 . S
C1227 H1217 0.930 . S
C1227 C1225 1.419 . S
C1227 C1228 1.362 . S
C1228 H1218 0.930 . S
C1228 C1221 1.409 . S
C1228 C1227 1.362 . S
H1229 C1235 0.930 . S
H1230 C1238 0.930 . S
H1231 C1239 0.930 . S
H1232 C1240 0.930 . S
H1233 C1243 0.930 . S
H1234 C1244 0.930 . S
C1235 H1229 0.930 . S
C1235 C1236 1.355 . S
C1235 C1237 1.415 . S
C1236 C1235 1.355 . S
C1236 C1238 1.419 . S
C1237 C1235 1.415 . S
C1237 C1242 1.425 . S
C1237 C1244 1.409 . S
C1238 H1230 0.930 . S
C1238 C1236 1.419 . S
C1238 C1239 1.362 . S
C1239 H1231 0.930 . S
C1239 C1238 1.362 . S
C1239 C1242 1.409 . S
C1240 H1232 0.930 . S
C1240 C1241 1.355 . S
C1240 C1242 1.415 . S
C1241 C1240 1.355 . S
C1241 C1243 1.419 . S
C1242 C1237 1.425 . S
C1242 C1239 1.409 . S
C1242 C1240 1.415 . S
C1243 H1233 0.930 . S
C1243 C1241 1.419 . S
C1243 C1244 1.362 . S
C1244 H1234 0.930 . S
C1244 C1237 1.409 . S
C1244 C1243 1.362 . S
H1245 C1251 0.930 . S
H1246 C1254 0.930 . S
H1247 C1255 0.930 . S
H1248 C1256 0.930 . S
H1249 C1259 0.930 . S
H1250 C1260 0.930 . S
C1251 H1245 0.930 . S
C1251 C1252 1.355 . S
C1251 C1253 1.415 . S
C1252 C1251 1.355 . S
C1252 C1254 1.419 . S
C1253 C1251 1.415 . S
C1253 C1258 1.425 . S
C1253 C1260 1.409 . S
C1254 H1246 0.930 . S
C1254 C1252 1.419 . S
C1254 C1255 1.362 . S
C1255 H1247 0.930 . S
C1255 C1254 1.362 . S
C1255 C1258 1.409 . S
C1256 H1248 0.930 . S
C1256 C1257 1.355 . S
C1256 C1258 1.415 . S
C1257 C1256 1.355 . S
C1257 C1259 1.419 . S
C1258 C1253 1.425 . S
C1258 C1255 1.409 . S
C1258 C1256 1.415 . S
C1259 H1249 0.930 . S
C1259 C1257 1.419 . S
C1259 C1260 1.362 . S
C1260 H1250 0.930 . S
C1260 C1253 1.409 . S
C1260 C1259 1.362 . S
H1261 C1267 0.930 . S
H1262 C1270 0.930 . S
H1263 C1271 0.930 . S
H1264 C1272 0.930 . S
H1265 C1275 0.930 . S
H1266 C1276 0.930 . S
C1267 H1261 0.930 . S
C1267 C1268 1.355 . S
C1267 C1269 1.415 . S
C1268 C1267 1.355 . S
C1268 C1270 1.419 . S
C1269 C1267 1.415 . S
C1269 C1274 1.425 . S
C1269 C1276 1.409 . S
C1270 H1262 0.930 . S
C1270 C1268 1.419 . S
C1270 C1271 1.362 . S
C1271 H1263 0.930 . S
C1271 C1270 1.362 . S
C1271 C1274 1.409 . S
C1272 H1264 0.930 . S
C1272 C1273 1.355 . S
C1272 C1274 1.415 . S
C1273 C1272 1.355 . S
C1273 C1275 1.419 . S
C1274 C1269 1.425 . S
C1274 C1271 1.409 . S
C1274 C1272 1.415 . S
C1275 H1265 0.930 . S
C1275 C1273 1.419 . S
C1275 C1276 1.362 . S
C1276 H1266 0.930 . S
C1276 C1269 1.409 . S
C1276 C1275 1.362 . S
H1277 C1283 0.930 . S
H1278 C1286 0.930 . S
H1279 C1287 0.930 . S
H1280 C1288 0.930 . S
H1281 C1291 0.930 . S
H1282 C1292 0.930 . S
C1283 H1277 0.930 . S
C1283 C1284 1.355 . S
C1283 C1285 1.415 . S
C1284 C1283 1.355 . S
C1284 C1286 1.419 . S
C1285 C1283 1.415 . S
C1285 C1290 1.425 . S
C1285 C1292 1.409 . S
C1286 H1278 0.930 . S
C1286 C1284 1.419 . S
C1286 C1287 1.362 . S
C1287 H1279 0.930 . S
C1287 C1286 1.362 . S
C1287 C1290 1.409 . S
C1288 H1280 0.930 . S
C1288 C1289 1.355 . S
C1288 C1290 1.415 . S
C1289 C1288 1.355 . S
C1289 C1291 1.419 . S
C1290 C1285 1.425 . S
C1290 C1287 1.409 . S
C1290 C1288 1.415 . S
C1291 H1281 0.930 . S
C1291 C1289 1.419 . S
C1291 C1292 1.362 . S
C1292 H1282 0.930 . S
C1292 C1285 1.409 . S
C1292 C1291 1.362 . S
H1293 C1299 0.930 . S
H1294 C1302 0.930 . S
H1295 C1303 0.930 . S
H1296 C1304 0.930 . S
H1297 C1307 0.930 . S
H1298 C1308 0.930 . S
C1299 H1293 0.930 . S
C1299 C1300 1.355 . S
C1299 C1301 1.415 . S
C1300 C1299 1.355 . S
C1300 C1302 1.419 . S
C1301 C1299 1.415 . S
C1301 C1306 1.425 . S
C1301 C1308 1.409 . S
C1302 H1294 0.930 . S
C1302 C1300 1.419 . S
C1302 C1303 1.362 . S
C1303 H1295 0.930 . S
C1303 C1302 1.362 . S
C1303 C1306 1.409 . S
C1304 H1296 0.930 . S
C1304 C1305 1.355 . S
C1304 C1306 1.415 . S
C1305 C1304 1.355 . S
C1305 C1307 1.419 . S
C1306 C1301 1.425 . S
C1306 C1303 1.409 . S
C1306 C1304 1.415 . S
C1307 H1297 0.930 . S
C1307 C1305 1.419 . S
C1307 C1308 1.362 . S
C1308 H1298 0.930 . S
C1308 C1301 1.409 . S
C1308 C1307 1.362 . S
H1309 C1315 0.930 . S
H1310 C1318 0.930 . S
H1311 C1319 0.930 . S
H1312 C1320 0.930 . S
H1313 C1323 0.930 . S
H1314 C1324 0.930 . S
C1315 H1309 0.930 . S
C1315 C1316 1.355 . S
C1315 C1317 1.415 . S
C1316 C1315 1.355 . S
C1316 C1318 1.419 . S
C1317 C1315 1.415 . S
C1317 C1322 1.425 . S
C1317 C1324 1.409 . S
C1318 H1310 0.930 . S
C1318 C1316 1.419 . S
C1318 C1319 1.362 . S
C1319 H1311 0.930 . S
C1319 C1318 1.362 . S
C1319 C1322 1.409 . S
C1320 H1312 0.930 . S
C1320 C1321 1.355 . S
C1320 C1322 1.415 . S
C1321 C1320 1.355 . S
C1321 C1323 1.419 . S
C1322 C1317 1.425 . S
C1322 C1319 1.409 . S
C1322 C1320 1.415 . S
C1323 H1313 0.930 . S
C1323 C1321 1.419 . S
C1323 C1324 1.362 . S
C1324 H1314 0.930 . S
C1324 C1317 1.409 . S
C1324 C1323 1.362 . S
H1325 C1331 0.930 . S
H1326 C1334 0.930 . S
H1327 C1335 0.930 . S
H1328 C1336 0.930 . S
H1329 C1339 0.930 . S
H1330 C1340 0.930 . S
C1331 H1325 0.930 . S
C1331 C1332 1.355 . S
C1331 C1333 1.415 . S
C1332 C1331 1.355 . S
C1332 C1334 1.419 . S
C1333 C1331 1.415 . S
C1333 C1338 1.425 . S
C1333 C1340 1.409 . S
C1334 H1326 0.930 . S
C1334 C1332 1.419 . S
C1334 C1335 1.362 . S
C1335 H1327 0.930 . S
C1335 C1334 1.362 . S
C1335 C1338 1.409 . S
C1336 H1328 0.930 . S
C1336 C1337 1.355 . S
C1336 C1338 1.415 . S
C1337 C1336 1.355 . S
C1337 C1339 1.419 . S
C1338 C1333 1.425 . S
C1338 C1335 1.409 . S
C1338 C1336 1.415 . S
C1339 H1329 0.930 . S
C1339 C1337 1.419 . S
C1339 C1340 1.362 . S
C1340 H1330 0.930 . S
C1340 C1333 1.409 . S
C1340 C1339 1.362 . S
H1341 C1347 0.930 . S
H1342 C1350 0.930 . S
H1343 C1351 0.930 . S
H1344 C1352 0.930 . S
H1345 C1355 0.930 . S
H1346 C1356 0.930 . S
C1347 H1341 0.930 . S
C1347 C1348 1.355 . S
C1347 C1349 1.415 . S
C1348 C1347 1.355 . S
C1348 C1350 1.419 . S
C1349 C1347 1.415 . S
C1349 C1354 1.425 . S
C1349 C1356 1.409 . S
C1350 H1342 0.930 . S
C1350 C1348 1.419 . S
C1350 C1351 1.362 . S
C1351 H1343 0.930 . S
C1351 C1350 1.362 . S
C1351 C1354 1.409 . S
C1352 H1344 0.930 . S
C1352 C1353 1.355 . S
C1352 C1354 1.415 . S
C1353 C1352 1.355 . S
C1353 C1355 1.419 . S
C1354 C1349 1.425 . S
C1354 C1351 1.409 . S
C1354 C1352 1.415 . S
C1355 H1345 0.930 . S
C1355 C1353 1.419 . S
C1355 C1356 1.362 . S
C1356 H1346 0.930 . S
C1356 C1349 1.409 . S
C1356 C1355 1.362 . S
H1357 C1363 0.930 . S
H1358 C1366 0.924 1_455 S
H1359 C1367 0.930 . S
H1360 C1368 0.930 . S
H1361 C1371 0.930 . S
H1362 C1372 0.930 . S
C1363 H1357 0.930 . S
C1363 C1364 1.355 . S
C1363 C1365 1.415 . S
C1364 C1363 1.355 . S
C1364 C1366 1.419 . S
C1365 C1363 1.415 . S
C1365 C1370 1.425 . S
C1365 C1372 1.409 . S
C1366 H1358 0.924 1_655 S
C1366 C1364 1.419 . S
C1366 C1367 1.362 . S
C1367 H1359 0.930 . S
C1367 C1366 1.362 . S
C1367 C1370 1.409 . S
C1368 H1360 0.930 . S
C1368 C1369 1.355 . S
C1368 C1370 1.415 . S
C1369 C1368 1.355 . S
C1369 C1371 1.419 . S
C1370 C1365 1.425 . S
C1370 C1367 1.409 . S
C1370 C1368 1.415 . S
C1371 H1361 0.930 . S
C1371 C1369 1.419 . S
C1371 C1372 1.362 . S
C1372 H1362 0.930 . S
C1372 C1365 1.409 . S
C1372 C1371 1.362 . S
H1373 C1379 0.930 . S
H1374 C1382 0.930 . S
H1375 C1383 0.930 . S
H1376 C1384 0.930 . S
H1377 C1387 0.930 . S
H1378 C1388 0.930 . S
C1379 H1373 0.930 . S
C1379 C1380 1.355 . S
C1379 C1381 1.415 . S
C1380 C1379 1.355 . S
C1380 C1382 1.419 . S
C1381 C1379 1.415 . S
C1381 C1386 1.425 . S
C1381 C1388 1.409 . S
C1382 H1374 0.930 . S
C1382 C1380 1.419 . S
C1382 C1383 1.362 . S
C1383 H1375 0.930 . S
C1383 C1382 1.362 . S
C1383 C1386 1.409 . S
C1384 H1376 0.930 . S
C1384 C1385 1.355 . S
C1384 C1386 1.415 . S
C1385 C1384 1.355 . S
C1385 C1387 1.419 . S
C1386 C1381 1.425 . S
C1386 C1383 1.409 . S
C1386 C1384 1.415 . S
C1387 H1377 0.930 . S
C1387 C1385 1.419 . S
C1387 C1388 1.362 . S
C1388 H1378 0.930 . S
C1388 C1381 1.409 . S
C1388 C1387 1.362 . S
H1389 C1395 0.930 . S
H1390 C1398 0.930 1_455 S
H1391 C1399 0.930 . S
H1392 C1400 0.930 . S
H1393 C1403 0.930 . S
H1394 C1404 0.930 . S
C1395 H1389 0.930 . S
C1395 C1396 1.355 1_655 S
C1395 C1397 1.415 . S
C1396 C1395 1.355 1_455 S
C1396 C1398 1.419 1_455 S
C1397 C1395 1.415 . S
C1397 C1402 1.425 . S
C1397 C1404 1.409 . S
C1398 H1390 0.930 1_655 S
C1398 C1396 1.419 1_655 S
C1398 C1399 1.362 . S
C1399 H1391 0.930 . S
C1399 C1398 1.362 . S
C1399 C1402 1.409 . S
C1400 H1392 0.930 . S
C1400 C1401 1.355 . S
C1400 C1402 1.415 . S
C1401 C1400 1.355 . S
C1401 C1403 1.419 . S
C1402 C1397 1.425 . S
C1402 C1399 1.409 . S
C1402 C1400 1.415 . S
C1403 H1393 0.930 . S
C1403 C1401 1.419 . S
C1403 C1404 1.362 . S
C1404 H1394 0.930 . S
C1404 C1397 1.409 . S
C1404 C1403 1.362 . S
H1405 C1411 0.930 . S
H1406 C1414 0.930 . S
H1407 C1415 0.930 . S
H1408 C1416 0.930 . S
H1409 C1419 0.930 . S
H1410 C1420 0.930 . S
C1411 H1405 0.930 . S
C1411 C1412 1.355 . S
C1411 C1413 1.415 . S
C1412 C1411 1.355 . S
C1412 C1414 1.419 . S
C1413 C1411 1.415 . S
C1413 C1418 1.425 . S
C1413 C1420 1.409 . S
C1414 H1406 0.930 . S
C1414 C1412 1.419 . S
C1414 C1415 1.362 . S
C1415 H1407 0.930 . S
C1415 C1414 1.362 . S
C1415 C1418 1.409 . S
C1416 H1408 0.930 . S
C1416 C1417 1.355 . S
C1416 C1418 1.415 . S
C1417 C1416 1.355 . S
C1417 C1419 1.419 . S
C1418 C1413 1.425 . S
C1418 C1415 1.409 . S
C1418 C1416 1.415 . S
C1419 H1409 0.930 . S
C1419 C1417 1.419 . S
C1419 C1420 1.362 . S
C1420 H1410 0.930 . S
C1420 C1413 1.409 . S
C1420 C1419 1.362 . S
H1421 C1427 0.930 . S
H1422 C1430 0.930 . S
H1423 C1431 0.930 . S
H1424 C1432 0.930 . S
H1425 C1435 0.930 . S
H1426 C1436 0.930 . S
C1427 H1421 0.930 . S
C1427 C1428 1.355 . S
C1427 C1429 1.415 . S
C1428 C1427 1.355 . S
C1428 C1430 1.419 . S
C1429 C1427 1.415 . S
C1429 C1434 1.425 . S
C1429 C1436 1.409 . S
C1430 H1422 0.930 . S
C1430 C1428 1.419 . S
C1430 C1431 1.362 . S
C1431 H1423 0.930 . S
C1431 C1430 1.362 . S
C1431 C1434 1.409 . S
C1432 H1424 0.930 . S
C1432 C1433 1.355 . S
C1432 C1434 1.415 . S
C1433 C1432 1.355 . S
C1433 C1435 1.419 . S
C1434 C1429 1.425 . S
C1434 C1431 1.409 . S
C1434 C1432 1.415 . S
C1435 H1425 0.930 . S
C1435 C1433 1.419 . S
C1435 C1436 1.362 . S
C1436 H1426 0.930 . S
C1436 C1429 1.409 . S
C1436 C1435 1.362 . S
H1437 C1443 0.930 . S
H1438 C1446 0.930 . S
H1439 C1447 0.930 . S
H1440 C1448 0.930 . S
H1441 C1451 0.930 . S
H1442 C1452 0.930 . S
C1443 H1437 0.930 . S
C1443 C1444 1.355 . S
C1443 C1445 1.415 . S
C1444 C1443 1.355 . S
C1444 C1446 1.419 . S
C1445 C1443 1.415 . S
C1445 C1450 1.425 . S
C1445 C1452 1.409 . S
C1446 H1438 0.930 . S
C1446 C1444 1.419 . S
C1446 C1447 1.362 . S
C1447 H1439 0.930 . S
C1447 C1446 1.362 . S
C1447 C1450 1.409 . S
C1448 H1440 0.930 . S
C1448 C1449 1.355 . S
C1448 C1450 1.415 . S
C1449 C1448 1.355 . S
C1449 C1451 1.419 . S
C1450 C1445 1.425 . S
C1450 C1447 1.409 . S
C1450 C1448 1.415 . S
C1451 H1441 0.930 . S
C1451 C1449 1.419 . S
C1451 C1452 1.362 . S
C1452 H1442 0.930 . S
C1452 C1445 1.409 . S
C1452 C1451 1.362 . S
H1453 C1459 0.930 . S
H1454 C1462 0.930 . S
H1455 C1463 0.930 . S
H1456 C1464 0.930 . S
H1457 C1467 0.930 . S
H1458 C1468 0.930 . S
C1459 H1453 0.930 . S
C1459 C1460 1.355 . S
C1459 C1461 1.415 . S
C1460 C1459 1.355 . S
C1460 C1462 1.419 . S
C1461 C1459 1.415 . S
C1461 C1466 1.425 . S
C1461 C1468 1.409 . S
C1462 H1454 0.930 . S
C1462 C1460 1.419 . S
C1462 C1463 1.362 . S
C1463 H1455 0.930 . S
C1463 C1462 1.362 . S
C1463 C1466 1.409 . S
C1464 H1456 0.930 . S
C1464 C1465 1.355 . S
C1464 C1466 1.415 . S
C1465 C1464 1.355 . S
C1465 C1467 1.419 . S
C1466 C1461 1.425 . S
C1466 C1463 1.409 . S
C1466 C1464 1.415 . S
C1467 H1457 0.930 . S
C1467 C1465 1.419 . S
C1467 C1468 1.362 . S
C1468 H1458 0.930 . S
C1468 C1461 1.409 . S
C1468 C1467 1.362 . S
H1469 C1475 0.930 . S
H1470 C1478 0.930 . S
H1471 C1479 0.930 . S
H1472 C1480 0.930 . S
H1473 C1483 0.930 . S
H1474 C1484 0.930 . S
C1475 H1469 0.930 . S
C1475 C1476 1.355 . S
C1475 C1477 1.415 . S
C1476 C1475 1.355 . S
C1476 C1478 1.419 . S
C1477 C1475 1.415 . S
C1477 C1482 1.425 . S
C1477 C1484 1.409 . S
C1478 H1470 0.930 . S
C1478 C1476 1.419 . S
C1478 C1479 1.362 . S
C1479 H1471 0.930 . S
C1479 C1478 1.362 . S
C1479 C1482 1.409 . S
C1480 H1472 0.930 . S
C1480 C1481 1.355 . S
C1480 C1482 1.415 . S
C1481 C1480 1.355 . S
C1481 C1483 1.419 . S
C1482 C1477 1.425 . S
C1482 C1479 1.409 . S
C1482 C1480 1.415 . S
C1483 H1473 0.930 . S
C1483 C1481 1.419 . S
C1483 C1484 1.362 . S
C1484 H1474 0.930 . S
C1484 C1477 1.409 . S
C1484 C1483 1.362 . S
H1485 C1491 0.930 . S
H1486 C1494 0.930 . S
H1487 C1495 0.930 . S
H1488 C1496 0.930 . S
H1489 C1499 0.930 . S
H1490 C1500 0.930 . S
C1491 H1485 0.930 . S
C1491 C1492 1.355 1_545 S
C1491 C1493 1.415 . S
C1492 C1491 1.355 1_565 S
C1492 C1494 1.419 . S
C1493 C1491 1.415 . S
C1493 C1498 1.425 1_545 S
C1493 C1500 1.409 . S
C1494 H1486 0.930 . S
C1494 C1492 1.419 . S
C1494 C1495 1.362 . S
C1495 H1487 0.930 . S
C1495 C1494 1.362 . S
C1495 C1498 1.409 . S
C1496 H1488 0.930 . S
C1496 C1497 1.355 1_565 S
C1496 C1498 1.415 . S
C1497 C1496 1.355 1_545 S
C1497 C1499 1.419 . S
C1498 C1493 1.425 1_565 S
C1498 C1495 1.409 . S
C1498 C1496 1.415 . S
C1499 H1489 0.930 . S
C1499 C1497 1.419 . S
C1499 C1500 1.362 . S
C1500 H1490 0.930 . S
C1500 C1493 1.409 . S
C1500 C1499 1.362 . S
H1501 C1507 0.930 . S
H1502 C1510 0.930 . S
H1503 C1511 0.930 . S
H1504 C1512 0.930 . S
H1505 C1515 0.930 . S
H1506 C1516 0.930 . S
C1507 H1501 0.930 . S
C1507 C1508 1.355 . S
C1507 C1509 1.415 . S
C1508 C1507 1.355 . S
C1508 C1510 1.419 1_455 S
C1509 C1507 1.415 . S
C1509 C1514 1.425 . S
C1509 C1516 1.409 . S
C1510 H1502 0.930 . S
C1510 C1508 1.419 1_655 S
C1510 C1511 1.362 . S
C1511 H1503 0.930 . S
C1511 C1510 1.362 . S
C1511 C1514 1.409 1_655 S
C1512 H1504 0.930 . S
C1512 C1513 1.355 1_655 S
C1512 C1514 1.415 1_655 S
C1513 C1512 1.355 1_455 S
C1513 C1515 1.419 . S
C1514 C1509 1.425 . S
C1514 C1511 1.409 1_455 S
C1514 C1512 1.415 1_455 S
C1515 H1505 0.930 . S
C1515 C1513 1.419 . S
C1515 C1516 1.362 . S
C1516 H1506 0.930 . S
C1516 C1509 1.409 . S
C1516 C1515 1.362 . S
H1517 C1523 0.930 . S
H1518 C1526 0.930 . S
H1519 C1527 0.930 . S
H1520 C1528 0.930 . S
H1521 C1531 0.930 . S
H1522 C1532 0.930 . S
C1523 H1517 0.930 . S
C1523 C1524 1.355 . S
C1523 C1525 1.415 . S
C1524 C1523 1.355 . S
C1524 C1526 1.419 . S
C1525 C1523 1.415 . S
C1525 C1530 1.425 . S
C1525 C1532 1.409 . S
C1526 H1518 0.930 . S
C1526 C1524 1.419 . S
C1526 C1527 1.362 . S
C1527 H1519 0.930 . S
C1527 C1526 1.362 . S
C1527 C1530 1.409 . S
C1528 H1520 0.930 . S
C1528 C1529 1.355 . S
C1528 C1530 1.415 . S
C1529 C1528 1.355 . S
C1529 C1531 1.419 . S
C1530 C1525 1.425 . S
C1530 C1527 1.409 . S
C1530 C1528 1.415 . S
C1531 H1521 0.930 . S
C1531 C1529 1.419 . S
C1531 C1532 1.362 . S
C1532 H1522 0.930 . S
C1532 C1525 1.409 . S
C1532 C1531 1.362 . S
H1533 C1539 0.930 . S
H1534 C1542 0.930 . S
H1535 C1543 0.930 . S
H1536 C1544 0.930 . S
H1537 C1547 0.930 . S
H1538 C1548 0.930 . S
C1539 H1533 0.930 . S
C1539 C1540 1.355 . S
C1539 C1541 1.415 . S
C1540 C1539 1.355 . S
C1540 C1542 1.419 . S
C1541 C1539 1.415 . S
C1541 C1546 1.425 . S
C1541 C1548 1.409 . S
C1542 H1534 0.930 . S
C1542 C1540 1.419 . S
C1542 C1543 1.362 . S
C1543 H1535 0.930 . S
C1543 C1542 1.362 . S
C1543 C1546 1.409 . S
C1544 H1536 0.930 . S
C1544 C1545 1.355 . S
C1544 C1546 1.415 . S
C1545 C1544 1.355 . S
C1545 C1547 1.419 . S
C1546 C1541 1.425 . S
C1546 C1543 1.409 . S
C1546 C1544 1.415 . S
C1547 H1537 0.930 . S
C1547 C1545 1.419 . S
C1547 C1548 1.362 . S
C1548 H1538 0.930 . S
C1548 C1541 1.409 . S
C1548 C1547 1.362 . S
H1549 C1555 0.930 . S
H1550 C1558 0.930 . S
H1551 C1559 0.930 . S
H1552 C1560 0.930 . S
H1553 C1563 0.930 . S
H1554 C1564 0.930 . S
C1555 H1549 0.930 . S
C1555 C1556 1.355 . S
C1555 C1557 1.415 . S
C1556 C1555 1.355 . S
C1556 C1558 1.419 . S
C1557 C1555 1.415 . S
C1557 C1562 1.425 . S
C1557 C1564 1.409 . S
C1558 H1550 0.930 . S
C1558 C1556 1.419 . S
C1558 C1559 1.362 . S
C1559 H1551 0.930 . S
C1559 C1558 1.362 . S
C1559 C1562 1.409 . S
C1560 H1552 0.930 . S
C1560 C1561 1.355 . S
C1560 C1562 1.415 . S
C1561 C1560 1.355 . S
C1561 C1563 1.419 . S
C1562 C1557 1.425 . S
C1562 C1559 1.409 . S
C1562 C1560 1.415 . S
C1563 H1553 0.930 . S
C1563 C1561 1.419 . S
C1563 C1564 1.362 . S
C1564 H1554 0.930 . S
C1564 C1557 1.409 . S
C1564 C1563 1.362 . S
H1565 C1571 0.930 . S
H1566 C1574 0.930 . S
H1567 C1575 0.930 . S
H1568 C1576 0.930 . S
H1569 C1579 0.930 . S
H1570 C1580 0.930 . S
C1571 H1565 0.930 . S
C1571 C1572 1.355 . S
C1571 C1573 1.415 . S
C1572 C1571 1.355 . S
C1572 C1574 1.419 1_545 S
C1573 C1571 1.415 . S
C1573 C1578 1.425 . S
C1573 C1580 1.409 . S
C1574 H1566 0.930 . S
C1574 C1572 1.419 1_565 S
C1574 C1575 1.362 . S
C1575 H1567 0.930 . S
C1575 C1574 1.362 . S
C1575 C1578 1.409 1_565 S
C1576 H1568 0.930 . S
C1576 C1577 1.355 1_565 S
C1576 C1578 1.415 1_565 S
C1577 C1576 1.355 1_545 S
C1577 C1579 1.419 . S
C1578 C1573 1.425 . S
C1578 C1575 1.409 1_545 S
C1578 C1576 1.415 1_545 S
C1579 H1569 0.930 . S
C1579 C1577 1.419 . S
C1579 C1580 1.362 . S
C1580 H1570 0.930 . S
C1580 C1573 1.409 . S
C1580 C1579 1.362 . S
H1581 C1587 0.930 . S
H1582 C1590 0.930 . S
H1583 C1591 0.930 . S
H1584 C1592 0.930 . S
H1585 C1595 0.930 . S
H1586 C1596 0.930 . S
C1587 H1581 0.930 . S
C1587 C1588 1.355 . S
C1587 C1589 1.415 . S
C1588 C1587 1.355 . S
C1588 C1590 1.419 . S
C1589 C1587 1.415 . S
C1589 C1594 1.425 . S
C1589 C1596 1.409 . S
C1590 H1582 0.930 . S
C1590 C1588 1.419 . S
C1590 C1591 1.362 . S
C1591 H1583 0.930 . S
C1591 C1590 1.362 . S
C1591 C1594 1.409 . S
C1592 H1584 0.930 . S
C1592 C1593 1.355 . S
C1592 C1594 1.415 . S
C1593 C1592 1.355 . S
C1593 C1595 1.419 . S
C1594 C1589 1.425 . S
C1594 C1591 1.409 . S
C1594 C1592 1.415 . S
C1595 H1585 0.930 . S
C1595 C1593 1.419 . S
C1595 C1596 1.362 . S
C1596 H1586 0.930 . S
C1596 C1589 1.409 . S
C1596 C1595 1.362 . S
H1597 C1603 0.930 . S
H1598 C1606 0.930 . S
H1599 C1607 0.930 . S
H1600 C1608 0.930 . S
H1601 C1611 0.930 . S
H1602 C1612 0.930 . S
C1603 H1597 0.930 . S
C1603 C1604 1.355 . S
C1603 C1605 1.415 . S
C1604 C1603 1.355 . S
C1604 C1606 1.419 . S
C1605 C1603 1.415 . S
C1605 C1610 1.425 . S
C1605 C1612 1.409 . S
C1606 H1598 0.930 . S
C1606 C1604 1.419 . S
C1606 C1607 1.362 . S
C1607 H1599 0.930 . S
C1607 C1606 1.362 . S
C1607 C1610 1.409 . S
C1608 H1600 0.930 . S
C1608 C1609 1.355 . S
C1608 C1610 1.415 . S
C1609 C1608 1.355 . S
C1609 C1611 1.419 . S
C1610 C1605 1.425 . S
C1610 C1607 1.409 . S
C1610 C1608 1.415 . S
C1611 H1601 0.930 . S
C1611 C1609 1.419 . S
C1611 C1612 1.362 . S
C1612 H1602 0.930 . S
C1612 C1605 1.409 . S
C1612 C1611 1.362 . S
H1613 C1619 0.930 . S
H1614 C1622 0.930 . S
H1615 C1623 0.930 . S
H1616 C1624 0.930 . S
H1617 C1627 0.930 . S
H1618 C1628 0.930 . S
C1619 H1613 0.930 . S
C1619 C1620 1.355 . S
C1619 C1621 1.415 . S
C1620 C1619 1.355 . S
C1620 C1622 1.419 . S
C1621 C1619 1.415 . S
C1621 C1626 1.425 . S
C1621 C1628 1.409 . S
C1622 H1614 0.930 . S
C1622 C1620 1.419 . S
C1622 C1623 1.362 . S
C1623 H1615 0.930 . S
C1623 C1622 1.362 . S
C1623 C1626 1.409 . S
C1624 H1616 0.930 . S
C1624 C1625 1.355 . S
C1624 C1626 1.415 . S
C1625 C1624 1.355 . S
C1625 C1627 1.419 . S
C1626 C1621 1.425 . S
C1626 C1623 1.409 . S
C1626 C1624 1.415 . S
C1627 H1617 0.930 . S
C1627 C1625 1.419 . S
C1627 C1628 1.362 . S
C1628 H1618 0.930 . S
C1628 C1621 1.409 . S
C1628 C1627 1.362 . S
H1629 C1635 0.930 . S
H1630 C1638 0.930 . S
H1631 C1639 0.930 . S
H1632 C1640 0.930 . S
H1633 C1643 0.930 . S
H1634 C1644 0.930 . S
C1635 H1629 0.930 . S
C1635 C1636 1.355 . S
C1635 C1637 1.415 . S
C1636 C1635 1.355 . S
C1636 C1638 1.419 . S
C1637 C1635 1.415 . S
C1637 C1642 1.425 . S
C1637 C1644 1.409 . S
C1638 H1630 0.930 . S
C1638 C1636 1.419 . S
C1638 C1639 1.362 . S
C1639 H1631 0.930 . S
C1639 C1638 1.362 . S
C1639 C1642 1.409 . S
C1640 H1632 0.930 . S
C1640 C1641 1.355 . S
C1640 C1642 1.415 . S
C1641 C1640 1.355 . S
C1641 C1643 1.419 . S
C1642 C1637 1.425 . S
C1642 C1639 1.409 . S
C1642 C1640 1.415 . S
C1643 H1633 0.930 . S
C1643 C1641 1.419 . S
C1643 C1644 1.362 . S
C1644 H1634 0.930 . S
C1644 C1637 1.409 . S
C1644 C1643 1.362 . S
H1645 C1651 0.930 . S
H1646 C1654 0.930 . S
H1647 C1655 0.930 . S
H1648 C1656 0.930 . S
H1649 C1659 0.930 . S
H1650 C1660 0.930 . S
C1651 H1645 0.930 . S
C1651 C1652 1.355 . S
C1651 C1653 1.415 . S
C1652 C1651 1.355 . S
C1652 C1654 1.419 . S
C1653 C1651 1.415 . S
C1653 C1658 1.425 . S
C1653 C1660 1.409 . S
C1654 H1646 0.930 . S
C1654 C1652 1.419 . S
C1654 C1655 1.362 . S
C1655 H1647 0.930 . S
C1655 C1654 1.362 . S
C1655 C1658 1.409 . S
C1656 H1648 0.930 . S
C1656 C1657 1.355 . S
C1656 C1658 1.415 . S
C1657 C1656 1.355 . S
C1657 C1659 1.419 . S
C1658 C1653 1.425 . S
C1658 C1655 1.409 . S
C1658 C1656 1.415 . S
C1659 H1649 0.930 . S
C1659 C1657 1.419 . S
C1659 C1660 1.362 . S
C1660 H1650 0.930 . S
C1660 C1653 1.409 . S
C1660 C1659 1.362 . S
H1661 C1667 0.930 . S
H1662 C1670 0.930 . S
H1663 C1671 0.930 . S
H1664 C1672 0.930 . S
H1665 C1675 0.930 . S
H1666 C1676 0.930 . S
C1667 H1661 0.930 . S
C1667 C1668 1.355 . S
C1667 C1669 1.415 . S
C1668 C1667 1.355 . S
C1668 C1670 1.419 . S
C1669 C1667 1.415 . S
C1669 C1674 1.425 . S
C1669 C1676 1.409 . S
C1670 H1662 0.930 . S
C1670 C1668 1.419 . S
C1670 C1671 1.362 . S
C1671 H1663 0.930 . S
C1671 C1670 1.362 . S
C1671 C1674 1.409 . S
C1672 H1664 0.930 . S
C1672 C1673 1.355 . S
C1672 C1674 1.415 . S
C1673 C1672 1.355 . S
C1673 C1675 1.419 . S
C1674 C1669 1.425 . S
C1674 C1671 1.409 . S
C1674 C1672 1.415 . S
C1675 H1665 0.930 . S
C1675 C1673 1.419 . S
C1675 C1676 1.362 . S
C1676 H1666 0.930 . S
C1676 C1669 1.409 . S
C1676 C1675 1.362 . S
H1677 C1683 0.930 . S
H1678 C1686 0.930 . S
H1679 C1687 0.930 . S
H1680 C1688 0.930 . S
H1681 C1691 0.930 . S
H1682 C1692 0.930 . S
C1683 H1677 0.930 . S
C1683 C1684 1.355 . S
C1683 C1685 1.415 . S
C1684 C1683 1.355 . S
C1684 C1686 1.419 . S
C1685 C1683 1.415 . S
C1685 C1690 1.425 . S
C1685 C1692 1.409 . S
C1686 H1678 0.930 . S
C1686 C1684 1.419 . S
C1686 C1687 1.362 . S
C1687 H1679 0.930 . S
C1687 C1686 1.362 . S
C1687 C1690 1.409 . S
C1688 H1680 0.930 . S
C1688 C1689 1.355 . S
C1688 C1690 1.415 . S
C1689 C1688 1.355 . S
C1689 C1691 1.419 . S
C1690 C1685 1.425 . S
C1690 C1687 1.409 . S
C1690 C1688 1.415 . S
C1691 H1681 0.930 . S
C1691 C1689 1.419 . S
C1691 C1692 1.362 . S
C1692 H1682 0.930 . S
C1692 C1685 1.409 . S
C1692 C1691 1.362 . S
H1693 C1699 0.930 . S
H1694 C1702 0.930 . S
H1695 C1703 0.930 . S
H1696 C1704 0.930 . S
H1697 C1707 0.930 . S
H1698 C1708 0.930 . S
C1699 H1693 0.930 . S
C1699 C1700 1.355 . S
C1699 C1701 1.415 . S
C1700 C1699 1.355 . S
C1700 C1702 1.419 . S
C1701 C1699 1.415 . S
C1701 C1706 1.425 . S
C1701 C1708 1.409 . S
C1702 H1694 0.930 . S
C1702 C1700 1.419 . S
C1702 C1703 1.362 . S
C1703 H1695 0.930 . S
C1703 C1702 1.362 . S
C1703 C1706 1.409 . S
C1704 H1696 0.930 . S
C1704 C1705 1.355 . S
C1704 C1706 1.415 . S
C1705 C1704 1.355 . S
C1705 C1707 1.419 . S
C1706 C1701 1.425 . S
C1706 C1703 1.409 . S
C1706 C1704 1.415 . S
C1707 H1697 0.930 . S
C1707 C1705 1.419 . S
C1707 C1708 1.362 . S
C1708 H1698 0.930 . S
C1708 C1701 1.409 . S
C1708 C1707 1.362 . S
H1709 C1715 0.930 . S
H1710 C1718 0.930 . S
H1711 C1719 0.930 . S
H1712 C1720 0.930 . S
H1713 C1723 0.930 . S
H1714 C1724 0.930 . S
C1715 H1709 0.930 . S
C1715 C1716 1.355 . S
C1715 C1717 1.415 . S
C1716 C1715 1.355 . S
C1716 C1718 1.419 . S
C1717 C1715 1.415 . S
C1717 C1722 1.425 . S
C1717 C1724 1.409 . S
C1718 H1710 0.930 . S
C1718 C1716 1.419 . S
C1718 C1719 1.362 . S
C1719 H1711 0.930 . S
C1719 C1718 1.362 . S
C1719 C1722 1.409 . S
C1720 H1712 0.930 . S
C1720 C1721 1.355 . S
C1720 C1722 1.415 . S
C1721 C1720 1.355 . S
C1721 C1723 1.419 . S
C1722 C1717 1.425 . S
C1722 C1719 1.409 . S
C1722 C1720 1.415 . S
C1723 H1713 0.930 . S
C1723 C1721 1.419 . S
C1723 C1724 1.362 . S
C1724 H1714 0.930 . S
C1724 C1717 1.409 . S
C1724 C1723 1.362 . S
H1725 C1731 0.930 . S
H1726 C1734 0.930 . S
H1727 C1735 0.930 . S
H1728 C1736 0.930 . S
H1729 C1739 0.930 . S
H1730 C1740 0.930 . S
C1731 H1725 0.930 . S
C1731 C1732 1.355 . S
C1731 C1733 1.415 . S
C1732 C1731 1.355 . S
C1732 C1734 1.419 . S
C1733 C1731 1.415 . S
C1733 C1738 1.425 . S
C1733 C1740 1.409 . S
C1734 H1726 0.930 . S
C1734 C1732 1.419 . S
C1734 C1735 1.362 . S
C1735 H1727 0.930 . S
C1735 C1734 1.362 . S
C1735 C1738 1.409 . S
C1736 H1728 0.930 . S
C1736 C1737 1.355 . S
C1736 C1738 1.415 . S
C1737 C1736 1.355 . S
C1737 C1739 1.419 . S
C1738 C1733 1.425 . S
C1738 C1735 1.409 . S
C1738 C1736 1.415 . S
C1739 H1729 0.930 . S
C1739 C1737 1.419 . S
C1739 C1740 1.362 . S
C1740 H1730 0.930 . S
C1740 C1733 1.409 . S
C1740 C1739 1.362 . S
H1741 C1747 0.930 . S
H1742 C1750 0.930 . S
H1743 C1751 0.930 . S
H1744 C1752 0.930 . S
H1745 C1755 0.930 . S
H1746 C1756 0.930 . S
C1747 H1741 0.930 . S
C1747 C1748 1.355 . S
C1747 C1749 1.415 . S
C1748 C1747 1.355 . S
C1748 C1750 1.419 . S
C1749 C1747 1.415 . S
C1749 C1754 1.425 . S
C1749 C1756 1.409 . S
C1750 H1742 0.930 . S
C1750 C1748 1.419 . S
C1750 C1751 1.362 . S
C1751 H1743 0.930 . S
C1751 C1750 1.362 . S
C1751 C1754 1.409 . S
C1752 H1744 0.930 . S
C1752 C1753 1.355 . S
C1752 C1754 1.415 . S
C1753 C1752 1.355 . S
C1753 C1755 1.419 . S
C1754 C1749 1.425 . S
C1754 C1751 1.409 . S
C1754 C1752 1.415 . S
C1755 H1745 0.930 . S
C1755 C1753 1.419 . S
C1755 C1756 1.362 . S
C1756 H1746 0.930 . S
C1756 C1749 1.409 . S
C1756 C1755 1.362 . S
H1757 C1763 0.930 . S
H1758 C1766 0.930 . S
H1759 C1767 0.930 . S
H1760 C1768 0.930 . S
H1761 C1771 0.930 . S
H1762 C1772 0.930 . S
C1763 H1757 0.930 . S
C1763 C1764 1.355 . S
C1763 C1765 1.415 . S
C1764 C1763 1.355 . S
C1764 C1766 1.419 . S
C1765 C1763 1.415 . S
C1765 C1770 1.425 . S
C1765 C1772 1.409 . S
C1766 H1758 0.930 . S
C1766 C1764 1.419 . S
C1766 C1767 1.362 . S
C1767 H1759 0.930 . S
C1767 C1766 1.362 . S
C1767 C1770 1.409 . S
C1768 H1760 0.930 . S
C1768 C1769 1.355 . S
C1768 C1770 1.415 . S
C1769 C1768 1.355 . S
C1769 C1771 1.419 . S
C1770 C1765 1.425 . S
C1770 C1767 1.409 . S
C1770 C1768 1.415 . S
C1771 H1761 0.930 . S
C1771 C1769 1.419 . S
C1771 C1772 1.362 . S
C1772 H1762 0.930 . S
C1772 C1765 1.409 . S
C1772 C1771 1.362 . S
C916 C522 1.530 . S
C921 C737 1.461 . S
C932 C562 1.532 . S
C937 C758 1.457 . S
C948 C495 1.451 . S
C953 C780 1.224 . S
C964 C455 1.497 . S
C969 C759 1.267 1_556 S
C985 C779 1.412 . S
C980 C362 1.553 . S
C996 C402 1.504 . S
C1001 C738 1.232 1_556 S
C1017 C733 1.371 . S
C1012 C442 1.446 . S
C1033 C754 1.418 . S
C1028 C375 1.435 . S
C1044 C415 1.553 . S
C1049 C777 1.296 1_556 S
C1060 C535 1.445 . S
C1065 C756 1.164 . S
C1076 C575 1.415 . S
C1081 C775 1.341 . S
C1097 C735 1.153 . S
C1092 C482 1.415 . S
C1113 C800 1.405 . S
C1108 C42 1.518 1_455 S
C1124 C82 1.521 . S
C1129 C821 1.358 . S
C1140 C15 1.485 1_565 S
C1145 C843 1.283 . S
C1156 C695 1.456 . S
C1161 C822 1.166 . S
C1172 C602 1.554 . S
C1177 C842 1.468 . S
C1188 C642 1.497 . S
C1193 C801 1.198 . S
C1204 C682 1.481 . S
C1209 C796 1.451 . S
C1220 C615 1.400 . S
C1225 C817 1.329 . S
C1241 C840 1.220 . S
C1236 C655 1.525 . S
C1252 C55 1.454 1_565 S
C1257 C819 1.193 . S
C1273 C838 1.372 . S
C1268 C95 1.384 1_455 S
C1284 C2 1.501 . S
C1289 C798 1.311 . S
C1305 C863 1.389 . S
C1300 C282 1.518 . S
C1316 C322 1.532 . S
C1321 C884 1.456 . S
C1337 C906 1.224 . S
C1332 C255 1.451 . S
C1353 C885 1.139 . S
C1348 C215 1.434 1_545 S
C1369 C905 1.460 . S
C1364 C122 1.543 1_655 S
C1380 C162 1.510 . S
C1385 C864 1.257 . S
C1396 C202 1.484 . S
C1401 C859 1.438 . S
C1412 C135 1.455 . S
C1417 C880 1.400 . S
C1433 C903 1.170 . S
C1428 C175 1.502 1_545 S
C1444 C295 1.499 . S
C1449 C882 1.272 . S
C1460 C335 1.380 . S
C1465 C901 1.370 . S
C1476 C242 1.419 . S
C1481 C861 1.154 . S
C1492 C621 1.423 . S
C1497 C736 1.368 . S
C1513 C757 1.412 . S
C1508 C661 1.488 . S
C1524 C701 1.464 . S
C1529 C776 1.487 . S
C1540 C261 1.563 . S
C1545 C755 1.526 1_655 S
C1556 C301 1.483 . S
C1561 C778 1.421 . S
C1577 C734 1.499 . S
C1572 C341 1.524 . S
C1588 C141 1.423 . S
C1593 C799 1.380 . S
C1604 C181 1.488 . S
C1609 C820 1.465 . S
C1620 C221 1.503 . S
C1625 C839 1.542 . S
C1636 C501 1.536 . S
C1641 C818 1.576 . S
C1657 C841 1.402 . S
C1652 C541 1.485 . S
C1668 C581 1.522 . S
C1673 C797 1.502 . S
C1684 C381 1.424 . S
C1689 C862 1.345 . S
C1700 C421 1.489 . S
C1705 C883 1.432 . S
C1721 C902 1.479 . S
C1716 C461 1.472 . S
C1732 C21 1.528 . S
C1737 C881 1.569 . S
C1748 C61 1.484 . S
C1753 C904 1.402 . S
C1764 C101 1.524 . S
C1769 C860 1.482 . S
