# Generated by pormake.
# Topology llk, (3,12)-cn, num edge types: 1
# Building blocks:
#     Node 0, Type 0, BuildingBlock: OLANEW_clean_sbu_2, # of connection points: 3
#     Node 1, Type 0, BuildingBlock: OLANEW_clean_sbu_2, # of connection points: 3
#     Node 2, Type 0, BuildingBlock: OLANEW_clean_sbu_2, # of connection points: 3
#     Node 3, Type 0, BuildingBlock: OLANEW_clean_sbu_2, # of connection points: 3
#     Node 4, Type 0, BuildingBlock: OLANEW_clean_sbu_2, # of connection points: 3
#     Node 5, Type 0, BuildingBlock: OLANEW_clean_sbu_2, # of connection points: 3
#     Node 6, Type 0, BuildingBlock: OLANEW_clean_sbu_2, # of connection points: 3
#     Node 7, Type 0, BuildingBlock: OLANEW_clean_sbu_2, # of connection points: 3
#     Node 8, Type 0, BuildingBlock: OLANEW_clean_sbu_2, # of connection points: 3
#     Node 9, Type 0, BuildingBlock: OLANEW_clean_sbu_2, # of connection points: 3
#     Node 10, Type 0, BuildingBlock: OLANEW_clean_sbu_2, # of connection points: 3
#     Node 11, Type 0, BuildingBlock: OLANEW_clean_sbu_2, # of connection points: 3
#     Node 12, Type 0, BuildingBlock: OLANEW_clean_sbu_2, # of connection points: 3
#     Node 13, Type 0, BuildingBlock: OLANEW_clean_sbu_2, # of connection points: 3
#     Node 14, Type 0, BuildingBlock: OLANEW_clean_sbu_2, # of connection points: 3
#     Node 15, Type 0, BuildingBlock: OLANEW_clean_sbu_2, # of connection points: 3
#     Node 16, Type 0, BuildingBlock: OLANEW_clean_sbu_2, # of connection points: 3
#     Node 17, Type 0, BuildingBlock: OLANEW_clean_sbu_2, # of connection points: 3
#     Node 18, Type 0, BuildingBlock: OLANEW_clean_sbu_2, # of connection points: 3
#     Node 19, Type 0, BuildingBlock: OLANEW_clean_sbu_2, # of connection points: 3
#     Node 20, Type 0, BuildingBlock: OLANEW_clean_sbu_2, # of connection points: 3
#     Node 21, Type 0, BuildingBlock: OLANEW_clean_sbu_2, # of connection points: 3
#     Node 22, Type 0, BuildingBlock: OLANEW_clean_sbu_2, # of connection points: 3
#     Node 23, Type 0, BuildingBlock: OLANEW_clean_sbu_2, # of connection points: 3
#     Node 24, Type 1, BuildingBlock: EZIPEK_clean_sbu_0, # of connection points: 12
#     Node 25, Type 1, BuildingBlock: EZIPEK_clean_sbu_0, # of connection points: 12
#     Node 26, Type 1, BuildingBlock: EZIPEK_clean_sbu_0, # of connection points: 12
#     Node 27, Type 1, BuildingBlock: EZIPEK_clean_sbu_0, # of connection points: 12
#     Node 28, Type 1, BuildingBlock: EZIPEK_clean_sbu_0, # of connection points: 12
#     Node 29, Type 1, BuildingBlock: EZIPEK_clean_sbu_0, # of connection points: 12
#     Edge 30, Type (0, 1), BuildingBlock: OJICUG_clean_linker_0, # of connection points: 2
#     Edge 31, Type (0, 1), BuildingBlock: OJICUG_clean_linker_0, # of connection points: 2
#     Edge 32, Type (0, 1), BuildingBlock: OJICUG_clean_linker_0, # of connection points: 2
#     Edge 33, Type (0, 1), BuildingBlock: OJICUG_clean_linker_0, # of connection points: 2
#     Edge 34, Type (0, 1), BuildingBlock: OJICUG_clean_linker_0, # of connection points: 2
#     Edge 35, Type (0, 1), BuildingBlock: OJICUG_clean_linker_0, # of connection points: 2
#     Edge 36, Type (0, 1), BuildingBlock: OJICUG_clean_linker_0, # of connection points: 2
#     Edge 37, Type (0, 1), BuildingBlock: OJICUG_clean_linker_0, # of connection points: 2
#     Edge 38, Type (0, 1), BuildingBlock: OJICUG_clean_linker_0, # of connection points: 2
#     Edge 39, Type (0, 1), BuildingBlock: OJICUG_clean_linker_0, # of connection points: 2
#     Edge 40, Type (0, 1), BuildingBlock: OJICUG_clean_linker_0, # of connection points: 2
#     Edge 41, Type (0, 1), BuildingBlock: OJICUG_clean_linker_0, # of connection points: 2
#     Edge 42, Type (0, 1), BuildingBlock: OJICUG_clean_linker_0, # of connection points: 2
#     Edge 43, Type (0, 1), BuildingBlock: OJICUG_clean_linker_0, # of connection points: 2
#     Edge 44, Type (0, 1), BuildingBlock: OJICUG_clean_linker_0, # of connection points: 2
#     Edge 45, Type (0, 1), BuildingBlock: OJICUG_clean_linker_0, # of connection points: 2
#     Edge 46, Type (0, 1), BuildingBlock: OJICUG_clean_linker_0, # of connection points: 2
#     Edge 47, Type (0, 1), BuildingBlock: OJICUG_clean_linker_0, # of connection points: 2
#     Edge 48, Type (0, 1), BuildingBlock: OJICUG_clean_linker_0, # of connection points: 2
#     Edge 49, Type (0, 1), BuildingBlock: OJICUG_clean_linker_0, # of connection points: 2
#     Edge 50, Type (0, 1), BuildingBlock: OJICUG_clean_linker_0, # of connection points: 2
#     Edge 51, Type (0, 1), BuildingBlock: OJICUG_clean_linker_0, # of connection points: 2
#     Edge 52, Type (0, 1), BuildingBlock: OJICUG_clean_linker_0, # of connection points: 2
#     Edge 53, Type (0, 1), BuildingBlock: OJICUG_clean_linker_0, # of connection points: 2
#     Edge 54, Type (0, 1), BuildingBlock: OJICUG_clean_linker_0, # of connection points: 2
#     Edge 55, Type (0, 1), BuildingBlock: OJICUG_clean_linker_0, # of connection points: 2
#     Edge 56, Type (0, 1), BuildingBlock: OJICUG_clean_linker_0, # of connection points: 2
#     Edge 57, Type (0, 1), BuildingBlock: OJICUG_clean_linker_0, # of connection points: 2
#     Edge 58, Type (0, 1), BuildingBlock: OJICUG_clean_linker_0, # of connection points: 2
#     Edge 59, Type (0, 1), BuildingBlock: OJICUG_clean_linker_0, # of connection points: 2
#     Edge 60, Type (0, 1), BuildingBlock: OJICUG_clean_linker_0, # of connection points: 2
#     Edge 61, Type (0, 1), BuildingBlock: OJICUG_clean_linker_0, # of connection points: 2
#     Edge 62, Type (0, 1), BuildingBlock: OJICUG_clean_linker_0, # of connection points: 2
#     Edge 63, Type (0, 1), BuildingBlock: OJICUG_clean_linker_0, # of connection points: 2
#     Edge 64, Type (0, 1), BuildingBlock: OJICUG_clean_linker_0, # of connection points: 2
#     Edge 65, Type (0, 1), BuildingBlock: OJICUG_clean_linker_0, # of connection points: 2
#     Edge 66, Type (0, 1), BuildingBlock: OJICUG_clean_linker_0, # of connection points: 2
#     Edge 67, Type (0, 1), BuildingBlock: OJICUG_clean_linker_0, # of connection points: 2
#     Edge 68, Type (0, 1), BuildingBlock: OJICUG_clean_linker_0, # of connection points: 2
#     Edge 69, Type (0, 1), BuildingBlock: OJICUG_clean_linker_0, # of connection points: 2
#     Edge 70, Type (0, 1), BuildingBlock: OJICUG_clean_linker_0, # of connection points: 2
#     Edge 71, Type (0, 1), BuildingBlock: OJICUG_clean_linker_0, # of connection points: 2
#     Edge 72, Type (0, 1), BuildingBlock: OJICUG_clean_linker_0, # of connection points: 2
#     Edge 73, Type (0, 1), BuildingBlock: OJICUG_clean_linker_0, # of connection points: 2
#     Edge 74, Type (0, 1), BuildingBlock: OJICUG_clean_linker_0, # of connection points: 2
#     Edge 75, Type (0, 1), BuildingBlock: OJICUG_clean_linker_0, # of connection points: 2
#     Edge 76, Type (0, 1), BuildingBlock: OJICUG_clean_linker_0, # of connection points: 2
#     Edge 77, Type (0, 1), BuildingBlock: OJICUG_clean_linker_0, # of connection points: 2
#     Edge 78, Type (0, 1), BuildingBlock: OJICUG_clean_linker_0, # of connection points: 2
#     Edge 79, Type (0, 1), BuildingBlock: OJICUG_clean_linker_0, # of connection points: 2
#     Edge 80, Type (0, 1), BuildingBlock: OJICUG_clean_linker_0, # of connection points: 2
#     Edge 81, Type (0, 1), BuildingBlock: OJICUG_clean_linker_0, # of connection points: 2
#     Edge 82, Type (0, 1), BuildingBlock: OJICUG_clean_linker_0, # of connection points: 2
#     Edge 83, Type (0, 1), BuildingBlock: OJICUG_clean_linker_0, # of connection points: 2
#     Edge 84, Type (0, 1), BuildingBlock: OJICUG_clean_linker_0, # of connection points: 2
#     Edge 85, Type (0, 1), BuildingBlock: OJICUG_clean_linker_0, # of connection points: 2
#     Edge 86, Type (0, 1), BuildingBlock: OJICUG_clean_linker_0, # of connection points: 2
#     Edge 87, Type (0, 1), BuildingBlock: OJICUG_clean_linker_0, # of connection points: 2
#     Edge 88, Type (0, 1), BuildingBlock: OJICUG_clean_linker_0, # of connection points: 2
#     Edge 89, Type (0, 1), BuildingBlock: OJICUG_clean_linker_0, # of connection points: 2
#     Edge 90, Type (0, 1), BuildingBlock: OJICUG_clean_linker_0, # of connection points: 2
#     Edge 91, Type (0, 1), BuildingBlock: OJICUG_clean_linker_0, # of connection points: 2
#     Edge 92, Type (0, 1), BuildingBlock: OJICUG_clean_linker_0, # of connection points: 2
#     Edge 93, Type (0, 1), BuildingBlock: OJICUG_clean_linker_0, # of connection points: 2
#     Edge 94, Type (0, 1), BuildingBlock: OJICUG_clean_linker_0, # of connection points: 2
#     Edge 95, Type (0, 1), BuildingBlock: OJICUG_clean_linker_0, # of connection points: 2
#     Edge 96, Type (0, 1), BuildingBlock: OJICUG_clean_linker_0, # of connection points: 2
#     Edge 97, Type (0, 1), BuildingBlock: OJICUG_clean_linker_0, # of connection points: 2
#     Edge 98, Type (0, 1), BuildingBlock: OJICUG_clean_linker_0, # of connection points: 2
#     Edge 99, Type (0, 1), BuildingBlock: OJICUG_clean_linker_0, # of connection points: 2
#     Edge 100, Type (0, 1), BuildingBlock: OJICUG_clean_linker_0, # of connection points: 2
#     Edge 101, Type (0, 1), BuildingBlock: OJICUG_clean_linker_0, # of connection points: 2
# Relax obj value: 0.050
# Max RMSD: 0.088
# Mean RMSD: 0.076
data_MOF--net-llk--node1-OLANEW_clean_sbu_2--node2-EZIPEK_clean_sbu_0--edge1-OJICUG_clean_linker_0
_symmetry_space_group_name_H-M    P1
_symmetry_Int_Tables_number       1
_symmetry_cell_setting            triclinic
loop_
_symmetry_equiv_pos_as_xyz
'x, y, z'
_cell_length_a     37.938846
_cell_length_b     39.890603
_cell_length_c     38.947157
_cell_angle_alpha  90.000008
_cell_angle_beta   89.999993
_cell_angle_gamma 89.999885
loop_
_atom_site_label
_atom_site_type_symbol
_atom_site_fract_x
_atom_site_fract_y
_atom_site_fract_z
_atom_type_partial_charge
O0 O 0.00771 0.29176 0.31133 0.0
Cd1 Cd 0.00024 0.24358 0.27346 0.0
O2 O 0.95891 0.31526 0.29256 0.0
Cd3 Cd 0.95635 0.28429 0.24652 0.0
O4 O 0.9672 0.30248 0.19489 0.0
C5 C 0.9885 0.32706 0.19565 0.0
O6 O 0.00225 0.33572 0.22533 0.0
C7 C 0.98461 0.31474 0.31349 0.0
C8 C 0.99693 0.18703 0.31511 0.0
O9 O 0.02558 0.19473 0.29955 0.0
O10 O 0.96972 0.20539 0.31008 0.0
O11 O 0.69572 0.98699 0.29172 0.0
Cd12 Cd 0.73482 0.99155 0.24242 0.0
O13 O 0.7015 0.04077 0.30324 0.0
Cd14 Cd 0.74922 0.04469 0.27242 0.0
O15 O 0.80111 0.03341 0.29319 0.0
C16 C 0.79891 0.01318 0.31831 0.0
O17 O 0.7679 0.0006 0.32602 0.0
C18 C 0.68659 0.01273 0.30878 0.0
C19 C 0.69045 0.99622 0.18602 0.0
O20 O 0.70535 0.96835 0.19361 0.0
O21 O 0.69775 0.02207 0.20419 0.0
O22 O 0.98789 0.70846 0.31128 0.0
Cd23 Cd 0.99542 0.75667 0.27345 0.0
O24 O 0.0367 0.68497 0.29255 0.0
Cd25 Cd 0.03929 0.71595 0.24652 0.0
O26 O 0.02841 0.69773 0.19491 0.0
C27 C 0.00714 0.67313 0.19569 0.0
O28 O 0.99344 0.66445 0.22539 0.0
C29 C 0.01098 0.68548 0.31345 0.0
C30 C -0.00136 0.81319 0.31516 0.0
O31 O 0.97003 0.8055 0.29955 0.0
O32 O 0.02587 0.79484 0.31016 0.0
O33 O 0.29974 0.01342 0.29173 0.0
Cd34 Cd 0.26064 0.00886 0.24244 0.0
O35 O 0.29398 0.95962 0.30323 0.0
Cd36 Cd 0.24627 0.9557 0.27239 0.0
O37 O 0.19437 0.96695 0.29316 0.0
C38 C 0.19655 0.9872 0.31826 0.0
O39 O 0.22755 0.9998 0.32597 0.0
C40 C 0.30887 0.98767 0.30879 0.0
C41 C 0.305 0.00415 0.18604 0.0
O42 O 0.29012 0.03203 0.19361 0.0
O43 O 0.29768 0.9783 0.20421 0.0
O44 O 0.00768 0.70848 0.68631 0.0
Cd45 Cd 0.00015 0.75668 0.72414 0.0
O46 O 0.95889 0.68496 0.70508 0.0
Cd47 Cd 0.95631 0.71594 0.75111 0.0
O48 O 0.96717 0.69773 0.80273 0.0
C49 C 0.98843 0.67313 0.80195 0.0
O50 O 0.00214 0.66444 0.77226 0.0
C51 C 0.9846 0.68548 0.68416 0.0
C52 C 0.9969 0.8132 0.68243 0.0
O53 O 0.02552 0.80552 0.69803 0.0
O54 O 0.96968 0.79484 0.68744 0.0
O55 O 0.29973 0.98695 0.70592 0.0
Cd56 Cd 0.26059 0.99149 0.75519 0.0
O57 O 0.29397 0.04074 0.69442 0.0
Cd58 Cd 0.24624 0.04465 0.72522 0.0
O59 O 0.19436 0.03339 0.70442 0.0
C60 C 0.19657 0.01318 0.67929 0.0
O61 O 0.22758 0.00061 0.67157 0.0
C62 C 0.30887 0.0127 0.68887 0.0
C63 C 0.30493 0.9962 0.81161 0.0
O64 O 0.29006 0.96832 0.80403 0.0
O65 O 0.29762 0.02205 0.79344 0.0
O66 O 0.98789 0.29175 0.68627 0.0
Cd67 Cd 0.99537 0.24357 0.72414 0.0
O68 O 0.03664 0.31529 0.70509 0.0
Cd69 Cd 0.0392 0.28432 0.75113 0.0
O70 O 0.02833 0.3025 0.80276 0.0
C71 C 0.00702 0.32707 0.802 0.0
O72 O 0.99327 0.33573 0.77232 0.0
C73 C 0.01096 0.31475 0.68413 0.0
C74 C -0.00136 0.18702 0.68247 0.0
O75 O 0.97 0.19473 0.69805 0.0
O76 O 0.02586 0.20538 0.68749 0.0
O77 O 0.69575 0.01342 0.70592 0.0
Cd78 Cd 0.73486 0.00887 0.75521 0.0
O79 O 0.70153 0.95963 0.6944 0.0
Cd80 Cd 0.74925 0.95572 0.72523 0.0
O81 O 0.80114 0.96697 0.70445 0.0
C82 C 0.79895 0.9872 0.67933 0.0
O83 O 0.76795 0.99979 0.67162 0.0
C84 C 0.68663 0.98767 0.68886 0.0
C85 C 0.69051 0.00413 0.81162 0.0
O86 O 0.70537 0.03202 0.80405 0.0
O87 O 0.69783 0.97829 0.79344 0.0
O88 O 0.30531 0.29231 0.98698 0.0
Cd89 Cd 0.26671 0.24368 0.99285 0.0
O90 O 0.29288 0.30974 0.03922 0.0
Cd91 Cd 0.24604 0.2784 0.04258 0.0
O92 O 0.19435 0.29895 0.03076 0.0
C93 C 0.19678 0.32388 0.01057 0.0
O94 O 0.22794 0.33167 0.99818 0.0
C95 C 0.31077 0.31241 0.01175 0.0
C96 C 0.3094 0.18712 0.99669 0.0
O97 O 0.29423 0.19507 0.96843 0.0
O98 O 0.30354 0.20529 0.0232 0.0
O99 O 0.30535 0.70795 0.01071 0.0
Cd100 Cd 0.26673 0.75657 0.00486 0.0
O101 O 0.29294 0.69054 0.95845 0.0
Cd102 Cd 0.24608 0.72187 0.95511 0.0
O103 O 0.19441 0.70127 0.96692 0.0
C104 C 0.19686 0.67629 0.98704 0.0
O105 O 0.22803 0.66847 -0.00062 0.0
C106 C 0.31082 0.68786 0.98592 0.0
C107 C 0.30939 0.81314 0.00097 0.0
O108 O 0.29425 0.8052 0.02924 0.0
O109 O 0.30352 0.79497 0.97447 0.0
O110 O 0.69014 0.29228 0.01068 0.0
Cd111 Cd 0.72875 0.24365 0.00482 0.0
O112 O 0.7026 0.30973 0.95845 0.0
Cd113 Cd 0.74945 0.27839 0.95511 0.0
O114 O 0.80114 0.29895 0.96693 0.0
C115 C 0.7987 0.32389 0.9871 0.0
O116 O 0.76754 0.33169 -0.00052 0.0
C117 C 0.6847 0.31238 0.98591 0.0
C118 C 0.68606 0.18709 0.00095 0.0
O119 O 0.70122 0.19503 0.02921 0.0
O120 O 0.69194 0.20526 0.97444 0.0
O121 O 0.69015 0.70794 0.98697 0.0
Cd122 Cd 0.72874 0.75658 0.99284 0.0
O123 O 0.70258 0.69051 0.03921 0.0
Cd124 Cd 0.74942 0.72186 0.04257 0.0
O125 O 0.80109 0.70126 0.03076 0.0
C126 C 0.79865 0.6763 0.01062 0.0
O127 O 0.76748 0.66848 0.99827 0.0
C128 C 0.6847 0.68784 0.01174 0.0
C129 C 0.68603 0.81313 0.99669 0.0
O130 O 0.70121 0.80519 0.96843 0.0
O131 O 0.6919 0.79496 0.0232 0.0
O132 O 0.5076 0.79176 0.81131 0.0
Cd133 Cd 0.50009 0.74356 0.77346 0.0
O134 O 0.45883 0.81529 0.79251 0.0
Cd135 Cd 0.45627 0.78432 0.74648 0.0
O136 O 0.46714 0.80252 0.69486 0.0
C137 C 0.48844 0.82709 0.69563 0.0
O138 O 0.50218 0.83575 0.72532 0.0
C139 C 0.48452 0.81476 0.81345 0.0
C140 C 0.49685 0.68703 0.81515 0.0
O141 O 0.52548 0.69473 0.79956 0.0
O142 O 0.46963 0.70538 0.81014 0.0
O143 O 0.19574 0.48689 0.79172 0.0
Cd144 Cd 0.23487 0.49143 0.74244 0.0
O145 O 0.2015 0.54068 0.80322 0.0
Cd146 Cd 0.24923 0.54459 0.77241 0.0
O147 O 0.30111 0.53333 0.7932 0.0
C148 C 0.29891 0.51313 0.81834 0.0
O149 O 0.2679 0.50056 0.82606 0.0
C150 C 0.1866 0.51264 0.80877 0.0
C151 C 0.19054 0.49616 0.68602 0.0
O152 O 0.20541 0.46827 0.6936 0.0
O153 O 0.19786 0.522 0.70419 0.0
O154 O 0.4878 0.20848 0.8113 0.0
Cd155 Cd 0.49529 0.25668 0.77346 0.0
O156 O 0.53663 0.18501 0.79257 0.0
Cd157 Cd 0.53921 0.21599 0.74654 0.0
O158 O 0.52834 0.19778 0.69493 0.0
C159 C 0.50707 0.17318 0.69571 0.0
O160 O 0.49337 0.16449 0.7254 0.0
C161 C 0.5109 0.18551 0.81348 0.0
C162 C 0.49856 0.31321 0.81515 0.0
O163 O 0.46992 0.30551 0.79957 0.0
O164 O 0.52578 0.29485 0.81012 0.0
O165 O 0.79975 0.51334 0.79172 0.0
Cd166 Cd 0.76065 0.50878 0.74243 0.0
O167 O 0.79397 0.45956 0.80325 0.0
Cd168 Cd 0.74625 0.45564 0.77242 0.0
O169 O 0.69437 0.4669 0.7932 0.0
C170 C 0.69656 0.48712 0.81832 0.0
O171 O 0.72757 0.4997 0.82603 0.0
C172 C 0.80887 0.4876 0.80879 0.0
C173 C 0.80501 0.50408 0.68602 0.0
O174 O 0.79013 0.53196 0.6936 0.0
O175 O 0.7977 0.47823 0.70419 0.0
O176 O 0.50759 0.20847 0.18631 0.0
Cd177 Cd 0.50008 0.25667 0.22416 0.0
O178 O 0.45881 0.18494 0.20508 0.0
Cd179 Cd 0.45621 0.21594 0.25109 0.0
O180 O 0.46709 0.19775 0.30272 0.0
C181 C 0.48837 0.17316 0.30195 0.0
O182 O 0.5021 0.16448 0.27226 0.0
C183 C 0.48452 0.18546 0.18416 0.0
C184 C 0.49682 0.31322 0.1825 0.0
O185 O 0.52545 0.30552 0.19808 0.0
O186 O 0.4696 0.29486 0.1875 0.0
O187 O 0.79975 0.48689 0.20593 0.0
Cd188 Cd 0.76063 0.49144 0.25521 0.0
O189 O 0.79395 0.54067 0.19439 0.0
Cd190 Cd 0.74622 0.54458 0.22522 0.0
O191 O 0.69433 0.53332 0.20446 0.0
C192 C 0.69651 0.51305 0.17937 0.0
O193 O 0.72751 0.50044 0.17168 0.0
C194 C 0.80887 0.51264 0.18886 0.0
C195 C 0.80498 0.49616 0.31162 0.0
O196 O 0.79011 0.46828 0.30404 0.0
O197 O 0.79766 0.522 0.29345 0.0
O198 O 0.48786 0.79176 0.1863 0.0
Cd199 Cd 0.49538 0.74357 0.22415 0.0
O200 O 0.53658 0.81536 0.20513 0.0
Cd201 Cd 0.53917 0.78436 0.25115 0.0
O202 O 0.52831 0.80254 0.30278 0.0
C203 C 0.507 0.82711 0.30202 0.0
O204 O 0.49324 0.83577 0.27234 0.0
C205 C 0.5109 0.8148 0.18417 0.0
C206 C 0.49865 0.68701 0.1825 0.0
O207 O 0.47002 0.69471 0.19808 0.0
O208 O 0.52587 0.70538 0.1875 0.0
O209 O 0.19578 0.51335 0.2059 0.0
Cd210 Cd 0.2349 0.5088 0.25519 0.0
O211 O 0.20156 0.45956 0.19438 0.0
Cd212 Cd 0.24928 0.45564 0.22522 0.0
O213 O 0.30118 0.46691 0.20447 0.0
C214 C 0.299 0.48718 0.17939 0.0
O215 O 0.26801 0.49981 0.17171 0.0
C216 C 0.18666 0.4876 0.18883 0.0
C217 C 0.19054 0.50409 0.31159 0.0
O218 O 0.20541 0.53197 0.30401 0.0
O219 O 0.19786 0.47825 0.29342 0.0
O220 O 0.80539 0.79228 0.48691 0.0
Cd221 Cd 0.76677 0.74366 0.49276 0.0
O222 O 0.7929 0.80974 0.53913 0.0
Cd223 Cd 0.74604 0.77841 0.54245 0.0
O224 O 0.69436 0.79898 0.53066 0.0
C225 C 0.69679 0.82394 0.5105 0.0
O226 O 0.72795 0.83175 0.49814 0.0
C227 C 0.81082 0.81239 0.51168 0.0
C228 C 0.80944 0.68709 0.49664 0.0
O229 O 0.7943 0.69504 0.46837 0.0
O230 O 0.80356 0.70527 0.52314 0.0
O231 O 0.80534 0.20794 0.51064 0.0
Cd232 Cd 0.76676 0.25659 0.50475 0.0
O233 O 0.79292 0.19052 0.45839 0.0
Cd234 Cd 0.74608 0.22187 0.45503 0.0
O235 O 0.69441 0.20129 0.46686 0.0
C236 C 0.69685 0.17634 0.48701 0.0
O237 O 0.72802 0.16852 0.49936 0.0
C238 C 0.8108 0.18785 0.48586 0.0
C239 C 0.80948 0.31313 0.50093 0.0
O240 O 0.7943 0.30519 0.52917 0.0
O241 O 0.80363 0.29496 0.47441 0.0
O242 O 0.19012 0.7923 0.51067 0.0
Cd243 Cd 0.22875 0.74368 0.50482 0.0
O244 O 0.20259 0.80974 0.45844 0.0
Cd245 Cd 0.24946 0.77842 0.45511 0.0
O246 O 0.30114 0.79899 0.46693 0.0
C247 C 0.2987 0.82394 0.48709 0.0
O248 O 0.26753 0.83174 0.49945 0.0
C249 C 0.18468 0.8124 0.48589 0.0
C250 C 0.18609 0.68711 0.50095 0.0
O251 O 0.20123 0.69506 0.52921 0.0
O252 O 0.19197 0.70528 0.47444 0.0
O253 O 0.19016 0.20793 0.48691 0.0
Cd254 Cd 0.22875 0.25657 0.49278 0.0
O255 O 0.20254 0.19054 0.53918 0.0
Cd256 Cd 0.24939 0.22189 0.54254 0.0
O257 O 0.30107 0.2013 0.53074 0.0
C258 C 0.29863 0.17634 0.51059 0.0
O259 O 0.26746 0.16853 0.49824 0.0
C260 C 0.18469 0.18785 0.5117 0.0
C261 C 0.18605 0.31312 0.49663 0.0
O262 O 0.20122 0.30518 0.46838 0.0
O263 O 0.19192 0.29495 0.52314 0.0
C264 C 0.99695 0.91906 0.58193 0.0
C265 C -0.00145 0.91905 0.41565 0.0
C266 C -0.00143 0.08119 0.58196 0.0
C267 C 0.99693 0.08118 0.41561 0.0
C268 C 0.9128 0.08148 0.49801 0.0
C269 C 0.91283 0.91875 0.49959 0.0
C270 C 0.08269 0.08149 0.49956 0.0
C271 C 0.08266 0.91876 0.49799 0.0
C272 C 0.083 0.00015 0.41555 0.0
C273 C 0.91247 0.00012 0.41557 0.0
C274 C 0.08302 0.00013 0.582 0.0
C275 C 0.91249 0.00015 0.58202 0.0
Eu276 Eu -0.00225 0.93695 0.49879 0.0
O277 O 0.96632 0.97033 0.46806 0.0
O278 O 0.02917 0.97034 0.52952 0.0
Eu279 Eu 0.9311 0.00011 0.4988 0.0
Eu280 Eu 0.06439 0.00012 0.49878 0.0
O281 O 0.96652 0.97053 0.52935 0.0
O282 O 0.02897 0.97053 0.46823 0.0
Eu283 Eu -0.00225 0.00012 0.564 0.0
Eu284 Eu -0.00226 0.00011 0.43358 0.0
O285 O 0.96637 0.02995 0.52948 0.0
O286 O 0.96657 0.02975 0.46828 0.0
O287 O 0.02912 0.02995 0.46809 0.0
O288 O 0.02892 0.02976 0.52929 0.0
Eu289 Eu -0.00226 0.06339 0.49879 0.0
O290 O 0.99494 0.90895 0.54932 0.0
O291 O 0.00056 0.90894 0.44826 0.0
O292 O 0.00057 0.09133 0.54936 0.0
O293 O 0.99492 0.09133 0.44821 0.0
O294 O 0.90182 0.04972 0.49597 0.0
O295 O 0.90184 0.95051 0.50164 0.0
O296 O 0.09367 0.04972 0.50161 0.0
O297 O 0.09366 0.95051 0.49594 0.0
O298 O 0.04963 0.9983 0.40489 0.0
O299 O 0.94584 0.00196 0.4049 0.0
O300 O 0.04965 0.00196 0.59268 0.0
O301 O 0.94586 0.9983 0.59269 0.0
O302 O 0.04931 0.09156 0.49691 0.0
O303 O 0.94618 0.09156 0.50066 0.0
O304 O 0.04927 0.90871 0.50066 0.0
O305 O 0.94622 0.90871 0.49693 0.0
O306 O 0.99599 0.95072 0.40493 0.0
O307 O -0.00052 0.0495 0.40491 0.0
O308 O -0.00049 0.95072 0.59265 0.0
O309 O 0.99602 0.04951 0.59266 0.0
O310 O 0.90189 0.00202 0.54939 0.0
O311 O 0.90188 0.99824 0.44821 0.0
O312 O 0.09361 0.99825 0.54936 0.0
O313 O 0.0936 0.00202 0.44819 0.0
C314 C 0.49922 0.9188 0.08179 0.0
C315 C 0.49621 0.08145 0.08179 0.0
C316 C 0.49618 0.91877 0.91582 0.0
C317 C 0.49925 0.08148 0.91583 0.0
C318 C 0.58324 0.0005 0.91599 0.0
C319 C 0.5832 0.99974 0.08163 0.0
C320 C 0.4122 0.99976 0.91599 0.0
C321 C 0.41223 0.00053 0.08163 0.0
C322 C 0.41238 0.08114 0.99859 0.0
C323 C 0.58308 0.08111 -0.00098 0.0
C324 C 0.41235 0.91914 -0.00098 0.0
C325 C 0.58306 0.91911 0.99858 0.0
Eu326 Eu 0.49772 0.00013 0.06391 0.0
O327 O 0.5291 0.03001 0.02947 0.0
O328 O 0.46633 0.97024 0.02947 0.0
Eu329 Eu 0.56431 0.00011 -0.00119 0.0
Eu330 Eu 0.43112 0.00014 -0.00119 0.0
O331 O 0.5289 0.97043 0.02927 0.0
O332 O 0.46653 0.02982 0.02927 0.0
Eu333 Eu 0.49771 0.93675 -0.00119 0.0
Eu334 Eu 0.49773 0.0635 -0.00119 0.0
O335 O 0.52905 0.97027 0.9681 0.0
O336 O 0.52887 0.02977 0.9683 0.0
O337 O 0.46638 0.02998 0.9681 0.0
O338 O 0.46657 0.97048 0.9683 0.0
Eu339 Eu 0.49772 0.00013 0.9336 0.0
O340 O 0.50092 0.95061 0.09237 0.0
O341 O 0.49451 0.04964 0.09237 0.0
O342 O 0.4945 0.95058 0.90521 0.0
O343 O 0.50093 0.04968 0.90521 0.0
O344 O 0.59381 0.00308 0.94851 0.0
O345 O 0.5938 0.99714 0.04911 0.0
O346 O 0.40162 0.99718 0.94851 0.0
O347 O 0.40164 0.00312 0.04911 0.0
O348 O 0.44578 0.09138 0.00089 0.0
O349 O 0.54968 0.09136 0.99672 0.0
O350 O 0.44575 0.90889 0.99672 0.0
O351 O 0.54966 0.90887 0.00088 0.0
O352 O 0.4455 0.00261 0.90523 0.0
O353 O 0.54993 0.99766 0.90523 0.0
O354 O 0.44554 0.99766 0.09235 0.0
O355 O 0.54989 0.0026 0.09235 0.0
O356 O 0.49887 0.09163 0.04925 0.0
O357 O 0.4966 0.09164 0.94837 0.0
O358 O 0.49657 0.90862 0.04925 0.0
O359 O 0.49882 0.90862 0.94837 0.0
O360 O 0.59391 0.95083 0.99617 0.0
O361 O 0.59392 0.04939 0.00144 0.0
O362 O 0.40151 0.95086 0.00144 0.0
O363 O 0.40152 0.04942 0.99617 0.0
C364 C -0.00132 0.41897 0.08201 0.0
C365 C 0.99682 0.41897 0.91565 0.0
C366 C 0.99687 0.58125 0.08204 0.0
C367 C -0.00135 0.58124 0.91561 0.0
C368 C 0.91238 0.58135 0.99808 0.0
C369 C 0.9124 0.41887 -0.00039 0.0
C370 C 0.08313 0.58134 -0.00043 0.0
C371 C 0.08309 0.41887 0.99804 0.0
C372 C 0.08265 0.50157 0.91569 0.0
C373 C 0.91282 0.49866 0.91572 0.0
C374 C 0.08268 0.49865 0.08194 0.0
C375 C 0.91285 0.50158 0.08196 0.0
Eu376 Eu -0.00225 0.43628 -0.00117 0.0
O377 O 0.96656 0.47023 0.96853 0.0
O378 O 0.02894 0.47023 0.02912 0.0
Eu379 Eu 0.93121 0.5001 -0.00116 0.0
Eu380 Eu 0.06428 0.5001 -0.00118 0.0
O381 O 0.96637 0.47006 0.02933 0.0
O382 O 0.02913 0.47005 0.96832 0.0
Eu383 Eu -0.00224 0.5001 0.06341 0.0
Eu384 Eu -0.00226 0.5001 0.93425 0.0
O385 O 0.96661 0.53003 0.02909 0.0
O386 O 0.9664 0.53021 0.96837 0.0
O387 O 0.02889 0.53003 0.96856 0.0
O388 O 0.0291 0.5302 0.02928 0.0
Eu389 Eu -0.00225 0.56403 -0.00117 0.0
O390 O 0.99687 0.40825 0.04957 0.0
O391 O -0.00138 0.40825 0.94808 0.0
O392 O -0.00135 0.59199 0.04961 0.0
O393 O 0.99686 0.59199 0.94804 0.0
O394 O 0.90189 0.54943 0.99642 0.0
O395 O 0.9019 0.45078 0.00128 0.0
O396 O 0.09361 0.54942 0.00124 0.0
O397 O 0.09359 0.45077 0.99637 0.0
O398 O 0.04931 0.49877 0.90528 0.0
O399 O 0.94615 0.50145 0.9053 0.0
O400 O 0.04935 0.50144 0.09235 0.0
O401 O 0.94618 0.49878 0.09237 0.0
O402 O 0.04979 0.59187 0.99765 0.0
O403 O 0.94571 0.59188 0.0 0.0
O404 O 0.04974 0.40837 -1e-05 0.0
O405 O 0.94575 0.40837 0.99767 0.0
O406 O 0.99569 0.45092 0.90561 0.0
O407 O -0.00024 0.54928 0.9056 0.0
O408 O -0.0002 0.45093 0.09205 0.0
O409 O 0.99575 0.54928 0.09206 0.0
O410 O 0.90192 0.50346 0.04945 0.0
O411 O 0.9019 0.49677 0.94824 0.0
O412 O 0.0936 0.49676 0.04942 0.0
O413 O 0.09358 0.50345 0.94821 0.0
C414 C 0.49691 0.41906 0.08199 0.0
C415 C 0.49859 0.58116 0.08199 0.0
C416 C 0.49853 0.41904 0.91567 0.0
C417 C 0.49694 0.58119 0.91567 0.0
C418 C 0.58302 0.50012 0.91561 0.0
C419 C 0.583 0.50008 0.08205 0.0
C420 C 0.41246 0.50012 0.91562 0.0
C421 C 0.41251 0.50015 0.08206 0.0
C422 C 0.41282 0.5815 0.99805 0.0
C423 C 0.5827 0.58147 -0.00039 0.0
C424 C 0.41279 0.41876 -0.00038 0.0
C425 C 0.58267 0.41873 0.99803 0.0
Eu426 Eu 0.49775 0.50011 0.06395 0.0
O427 O 0.52898 0.52977 0.02932 0.0
O428 O 0.46652 0.47046 0.02932 0.0
Eu429 Eu 0.56439 0.5001 -0.00117 0.0
Eu430 Eu 0.43111 0.50013 -0.00116 0.0
O431 O 0.52916 0.47026 0.0295 0.0
O432 O 0.46633 0.52997 0.0295 0.0
Eu433 Eu 0.49773 0.43686 -0.00116 0.0
Eu434 Eu 0.49776 0.56337 -0.00116 0.0
O435 O 0.52892 0.4705 0.9683 0.0
O436 O 0.52913 0.52992 0.96812 0.0
O437 O 0.46657 0.52974 0.96831 0.0
O438 O 0.46636 0.47031 0.96812 0.0
Eu439 Eu 0.49774 0.50012 0.93361 0.0
O440 O 0.49948 0.45075 0.09267 0.0
O441 O 0.49602 0.54948 0.09267 0.0
O442 O 0.49599 0.45072 0.90496 0.0
O443 O 0.49949 0.54952 0.90497 0.0
O444 O 0.59361 0.50198 0.94825 0.0
O445 O 0.5936 0.4982 0.04942 0.0
O446 O 0.40188 0.49825 0.94826 0.0
O447 O 0.4019 0.50203 0.04943 0.0
O448 O 0.44621 0.59157 0.00071 0.0
O449 O 0.54932 0.59155 0.99695 0.0
O450 O 0.44617 0.40868 0.99696 0.0
O451 O 0.54929 0.40866 0.0007 0.0
O452 O 0.44583 0.50195 0.90494 0.0
O453 O 0.54965 0.49828 0.90494 0.0
O454 O 0.44589 0.4983 0.0927 0.0
O455 O 0.54962 0.50193 0.09269 0.0
O456 O 0.5006 0.59131 0.0494 0.0
O457 O 0.49494 0.59133 0.94828 0.0
O458 O 0.4949 0.40891 0.0494 0.0
O459 O 0.50054 0.4089 0.94827 0.0
O460 O 0.59366 0.45049 0.99599 0.0
O461 O 0.59367 0.54971 0.00166 0.0
O462 O 0.40182 0.45052 0.00168 0.0
O463 O 0.40184 0.54974 0.996 0.0
C464 C -0.00068 0.41878 0.58177 0.0
C465 C 0.99623 0.41877 0.41585 0.0
C466 C 0.99626 0.58146 0.5818 0.0
C467 C -0.00071 0.58146 0.41581 0.0
C468 C 0.91241 0.58111 0.49859 0.0
C469 C 0.91245 0.41912 0.49904 0.0
C470 C 0.08313 0.58112 0.49901 0.0
C471 C 0.0831 0.41912 0.49857 0.0
C472 C 0.08328 0.50051 0.41597 0.0
C473 C 0.91225 0.49974 0.41599 0.0
C474 C 0.0833 0.49975 0.58162 0.0
C475 C 0.91227 0.50051 0.58164 0.0
Eu476 Eu -0.00222 0.43684 0.49881 0.0
O477 O 0.96658 0.47049 0.46828 0.0
O478 O 0.02897 0.47049 0.52933 0.0
Eu479 Eu 0.93118 0.50011 0.49881 0.0
Eu480 Eu 0.06437 0.50012 0.4988 0.0
O481 O 0.9664 0.47029 0.52954 0.0
O482 O 0.02915 0.47029 0.46807 0.0
Eu483 Eu -0.00222 0.50012 0.564 0.0
Eu484 Eu -0.00224 0.50011 0.43361 0.0
O485 O 0.96663 0.52979 0.52929 0.0
O486 O 0.96643 0.52999 0.46812 0.0
O487 O 0.02891 0.52979 0.46832 0.0
O488 O 0.02912 0.52999 0.52949 0.0
Eu489 Eu -0.00223 0.5635 0.4988 0.0
O490 O 0.99666 0.40864 0.54922 0.0
O491 O -0.00111 0.40864 0.44839 0.0
O492 O -0.0011 0.59163 0.54926 0.0
O493 O 0.99664 0.59162 0.44835 0.0
O494 O 0.90157 0.54939 0.49618 0.0
O495 O 0.90159 0.45083 0.50146 0.0
O496 O 0.09398 0.54939 0.50143 0.0
O497 O 0.09397 0.45084 0.49615 0.0
O498 O 0.04997 0.49765 0.40523 0.0
O499 O 0.94555 0.50259 0.40524 0.0
O500 O 0.05 0.5026 0.59237 0.0
O501 O 0.94558 0.49765 0.59238 0.0
O502 O 0.04973 0.59136 0.49672 0.0
O503 O 0.94581 0.59136 0.50088 0.0
O504 O 0.0497 0.40891 0.50088 0.0
O505 O 0.94586 0.40891 0.49674 0.0
O506 O 0.99455 0.45057 0.40522 0.0
O507 O 0.00097 0.54965 0.4052 0.0
O508 O 0.001 0.45058 0.5924 0.0
O509 O 0.99458 0.54966 0.59241 0.0
O510 O 0.90169 0.50309 0.54912 0.0
O511 O 0.90168 0.49715 0.44852 0.0
O512 O 0.09387 0.49716 0.5491 0.0
O513 O 0.09386 0.50309 0.4485 0.0
C514 C 0.49866 0.91902 0.58201 0.0
C515 C 0.49681 0.91902 0.41565 0.0
C516 C 0.49684 0.0813 0.58204 0.0
C517 C 0.49863 0.0813 0.41562 0.0
C518 C 0.41236 0.0814 0.49808 0.0
C519 C 0.4124 0.91892 0.49961 0.0
C520 C 0.58311 0.0814 0.49958 0.0
C521 C 0.58309 0.91893 0.49804 0.0
C522 C 0.58264 0.00164 0.4157 0.0
C523 C 0.41282 0.99871 0.41572 0.0
C524 C 0.58266 0.99871 0.58195 0.0
C525 C 0.41284 0.00163 0.58196 0.0
Eu526 Eu 0.49774 0.93633 0.49883 0.0
O527 O 0.46655 0.97028 0.46853 0.0
O528 O 0.52893 0.97028 0.52913 0.0
Eu529 Eu 0.43121 0.00015 0.49884 0.0
Eu530 Eu 0.56427 0.00016 0.49882 0.0
O531 O 0.46636 0.97011 0.52933 0.0
O532 O 0.52912 0.97011 0.46833 0.0
Eu533 Eu 0.49775 0.00015 0.56341 0.0
Eu534 Eu 0.49773 0.00016 0.43425 0.0
O535 O 0.4666 0.03008 0.52909 0.0
O536 O 0.46639 0.03026 0.46837 0.0
O537 O 0.52888 0.03008 0.46857 0.0
O538 O 0.52909 0.03026 0.52929 0.0
Eu539 Eu 0.49774 0.06409 0.49883 0.0
O540 O 0.49686 0.90831 0.54957 0.0
O541 O 0.49862 0.90831 0.44808 0.0
O542 O 0.49863 0.09204 0.54962 0.0
O543 O 0.49685 0.09204 0.44805 0.0
O544 O 0.40188 0.04948 0.49641 0.0
O545 O 0.40189 0.95083 0.50128 0.0
O546 O 0.5936 0.04948 0.50124 0.0
O547 O 0.59359 0.95083 0.49637 0.0
O548 O 0.54931 0.99883 0.40529 0.0
O549 O 0.44615 0.00151 0.4053 0.0
O550 O 0.54933 0.0015 0.59236 0.0
O551 O 0.44617 0.99883 0.59237 0.0
O552 O 0.54978 0.09193 0.49765 0.0
O553 O 0.4457 0.09193 0.5 0.0
O554 O 0.54974 0.90842 0.49998 0.0
O555 O 0.44574 0.90842 0.49767 0.0
O556 O 0.49569 0.95098 0.40561 0.0
O557 O 0.49975 0.04933 0.4056 0.0
O558 O 0.49979 0.95098 0.59205 0.0
O559 O 0.49573 0.04933 0.59206 0.0
O560 O 0.40191 0.00351 0.54945 0.0
O561 O 0.40189 0.99682 0.44823 0.0
O562 O 0.59359 0.99682 0.54943 0.0
O563 O 0.59357 0.00352 0.44822 0.0
C564 C 0.12976 0.16393 0.48605 0.0
C565 C 0.15874 0.16054 0.50819 0.0
H566 H 0.08261 0.14149 0.46629 0.0
C567 C 0.16312 0.13054 0.52663 0.0
H568 H 0.12582 0.18677 0.47151 0.0
C569 C 0.13896 0.10436 0.52298 0.0
C570 C 0.10955 0.10807 0.50147 0.0
H571 H 0.18544 0.12718 0.54365 0.0
H572 H 0.14279 0.08157 0.53765 0.0
C573 C 0.10509 0.13808 0.48309 0.0
C574 C 0.86573 0.16393 0.51151 0.0
C575 C 0.83674 0.16053 0.48938 0.0
H576 H 0.91289 0.1415 0.53126 0.0
C577 C 0.83236 0.13053 0.47094 0.0
H578 H 0.86967 0.18678 0.52603 0.0
C579 C 0.85652 0.10435 0.4746 0.0
C580 C 0.88594 0.10807 0.49609 0.0
H581 H 0.81003 0.12716 0.45393 0.0
H582 H 0.85268 0.08155 0.45994 0.0
C583 C 0.8904 0.13808 0.51447 0.0
C584 C 0.83237 0.8697 0.52661 0.0
C585 C 0.83678 0.83969 0.50819 0.0
H586 H 0.85268 0.91869 0.53761 0.0
C587 C 0.86581 0.83628 0.48611 0.0
H588 H 0.81003 0.87309 0.54359 0.0
C589 C 0.89048 0.86213 0.48317 0.0
C590 C 0.88599 0.89215 0.50151 0.0
H591 H 0.86976 0.81343 0.4716 0.0
H592 H 0.91299 0.85871 0.4664 0.0
C593 C 0.85654 0.89588 0.52297 0.0
C594 C 0.1297 0.83629 0.51147 0.0
C595 C 0.15872 0.8397 0.48938 0.0
H596 H 0.08252 0.85871 0.53119 0.0
C597 C 0.16311 0.86971 0.47096 0.0
H598 H 0.12575 0.81344 0.52599 0.0
C599 C 0.13895 0.89589 0.4746 0.0
C600 C 0.1095 0.89216 0.49606 0.0
H601 H 0.18546 0.87309 0.45397 0.0
H602 H 0.1428 0.91869 0.45995 0.0
C603 C 0.10503 0.86214 0.51442 0.0
C604 C 0.47135 0.1277 0.16295 0.0
C605 C 0.48786 0.15886 0.15799 0.0
H606 H 0.4616 0.07857 0.14295 0.0
C607 C 0.5077 0.16419 0.12803 0.0
H608 H 0.45607 0.1228 0.18591 0.0
C609 C 0.51043 0.13901 0.10321 0.0
C610 C 0.49405 0.1078 0.10828 0.0
H611 H 0.52068 0.18797 0.12355 0.0
H612 H 0.52559 0.14388 0.08016 0.0
C613 C 0.47473 0.10229 0.1385 0.0
C614 C 0.86316 0.48645 0.16449 0.0
C615 C 0.83558 0.50974 0.16162 0.0
H616 H 0.90984 0.46606 0.14148 0.0
C617 C 0.83325 0.52989 0.13213 0.0
H618 H 0.86547 0.47065 0.187 0.0
C619 C 0.85793 0.52657 0.10576 0.0
C620 C 0.88587 0.50374 0.10893 0.0
H621 H 0.81204 0.54785 0.12923 0.0
H622 H 0.85562 0.54236 0.08323 0.0
C623 C 0.88847 0.48385 0.13856 0.0
C624 C 0.48776 0.83605 0.12803 0.0
C625 C 0.50757 0.8414 0.15801 0.0
H626 H 0.4699 0.85634 0.08014 0.0
C627 C 0.52404 0.87257 0.16297 0.0
H628 H 0.4748 0.81226 0.12353 0.0
C629 C 0.52067 0.89798 0.13852 0.0
C630 C 0.50138 0.89245 0.10828 0.0
H631 H 0.5393 0.87748 0.18595 0.0
H632 H 0.53378 0.92171 0.14298 0.0
C633 C 0.48503 0.86123 0.1032 0.0
C634 C 0.13238 0.5138 0.16445 0.0
C635 C 0.15995 0.4905 0.16159 0.0
H636 H 0.0857 0.53419 0.14144 0.0
C637 C 0.16228 0.47035 0.13211 0.0
H638 H 0.13007 0.52961 0.18696 0.0
C639 C 0.1376 0.47367 0.10573 0.0
C640 C 0.10967 0.4965 0.1089 0.0
H641 H 0.18349 0.45238 0.12921 0.0
H642 H 0.13991 0.45787 0.0832 0.0
C643 C 0.10707 0.51639 0.13853 0.0
C644 C 0.47134 0.87252 0.83466 0.0
C645 C 0.48784 0.84136 0.83962 0.0
H646 H 0.46159 0.92165 0.85465 0.0
C647 C 0.50765 0.83602 0.8696 0.0
H648 H 0.45607 0.87742 0.81169 0.0
C649 C 0.51037 0.8612 0.89443 0.0
C650 C 0.49401 0.89241 0.88934 0.0
H651 H 0.52063 0.81223 0.87409 0.0
H652 H 0.52552 0.85632 0.91748 0.0
C653 C 0.4747 0.89793 0.85911 0.0
C654 C 0.16223 0.52989 0.8655 0.0
C655 C 0.1599 0.50973 0.83602 0.0
H656 H 0.13987 0.54236 0.91441 0.0
C657 C 0.13232 0.48643 0.83315 0.0
H658 H 0.18343 0.54786 0.86839 0.0
C659 C 0.10702 0.48384 0.85909 0.0
C660 C 0.10962 0.50373 0.88872 0.0
H661 H 0.13001 0.47063 0.81064 0.0
H662 H 0.08565 0.46604 0.85618 0.0
C663 C 0.13756 0.52656 0.89188 0.0
C664 C 0.52412 0.12776 0.83469 0.0
C665 C 0.50759 0.15891 0.83964 0.0
H666 H 0.5339 0.07863 0.85468 0.0
C667 C 0.48774 0.16423 0.8696 0.0
H668 H 0.53941 0.12288 0.81173 0.0
C669 C 0.48502 0.13905 0.89443 0.0
C670 C 0.50141 0.10785 0.88935 0.0
H671 H 0.47474 0.188 0.87408 0.0
H672 H 0.46985 0.14391 0.91747 0.0
C673 C 0.52075 0.10235 0.85913 0.0
C674 C 0.86315 0.5138 0.83318 0.0
C675 C 0.83557 0.49051 0.83605 0.0
H676 H 0.90982 0.53419 0.8562 0.0
C677 C 0.83323 0.47036 0.86553 0.0
H678 H 0.86546 0.5296 0.81067 0.0
C679 C 0.8579 0.47368 0.89192 0.0
C680 C 0.88584 0.49651 0.88875 0.0
H681 H 0.81202 0.45239 0.86843 0.0
H682 H 0.85558 0.45789 0.91445 0.0
C683 C 0.88844 0.5164 0.85912 0.0
C684 C 0.62976 0.66392 0.9861 0.0
C685 C 0.65876 0.66053 0.00823 0.0
H686 H 0.5826 0.64148 0.96636 0.0
C687 C 0.66314 0.63052 0.02666 0.0
H688 H 0.62582 0.68677 0.97158 0.0
C689 C 0.63898 0.60434 0.02301 0.0
C690 C 0.60956 0.60806 0.00152 0.0
H691 H 0.68547 0.62715 0.04367 0.0
H692 H 0.64282 0.58155 0.03767 0.0
C693 C 0.6051 0.63807 0.98315 0.0
C694 C 0.33238 0.63056 0.97099 0.0
C695 C 0.33677 0.66056 0.98942 0.0
H696 H 0.35271 0.58158 0.95997 0.0
C697 C 0.36577 0.66395 0.01155 0.0
H698 H 0.31006 0.62719 0.95398 0.0
C699 C 0.39043 0.6381 0.0145 0.0
C700 C 0.38597 0.60809 0.99613 0.0
H701 H 0.36971 0.6868 0.02608 0.0
H702 H 0.41292 0.64152 0.03129 0.0
C703 C 0.35655 0.60437 0.97463 0.0
C704 C 0.33234 0.36972 0.02668 0.0
C705 C 0.33672 0.33972 0.00824 0.0
H706 H 0.35267 0.41869 0.03769 0.0
C707 C 0.36571 0.33632 0.98612 0.0
H708 H 0.31001 0.3731 0.04369 0.0
C709 C 0.39039 0.36216 0.98317 0.0
C710 C 0.38593 0.39218 0.00154 0.0
H711 H 0.36965 0.31347 0.97159 0.0
H712 H 0.41288 0.35874 0.96637 0.0
C713 C 0.35651 0.3959 0.02303 0.0
C714 C 0.66313 0.36969 0.97098 0.0
C715 C 0.65874 0.33969 0.98941 0.0
H716 H 0.64281 0.41867 0.95998 0.0
C717 C 0.62973 0.33628 0.01152 0.0
H718 H 0.68547 0.37308 0.95399 0.0
C719 C 0.60506 0.36212 0.01447 0.0
C720 C 0.60953 0.39214 0.99611 0.0
H721 H 0.62579 0.31343 0.02603 0.0
H722 H 0.58256 0.3587 0.03125 0.0
C723 C 0.63896 0.39587 0.97463 0.0
C724 C 0.97142 0.62772 0.66296 0.0
C725 C 0.98792 0.65888 0.65799 0.0
H726 H 0.96166 0.57859 0.64296 0.0
C727 C 0.00775 0.66421 0.62802 0.0
H728 H 0.95614 0.62282 0.68592 0.0
C729 C 0.01047 0.63903 0.6032 0.0
C730 C 0.9941 0.60782 0.60828 0.0
H731 H 0.02073 0.68799 0.62354 0.0
H732 H 0.02563 0.6439 0.58015 0.0
C733 C 0.97478 0.60231 0.63851 0.0
C734 C 0.36315 0.98649 0.66449 0.0
C735 C 0.33558 0.0098 0.66163 0.0
H736 H 0.40982 0.9661 0.64147 0.0
C737 C 0.33326 0.02995 0.63214 0.0
H738 H 0.36545 0.97069 0.687 0.0
C739 C 0.35793 0.02663 0.60577 0.0
C740 C 0.38586 0.00379 0.60893 0.0
H741 H 0.31205 0.04793 0.62925 0.0
H742 H 0.35562 0.04243 0.58324 0.0
C743 C 0.38845 0.9839 0.63856 0.0
C744 C 0.98785 0.33601 0.62797 0.0
C745 C 0.00766 0.34135 0.65795 0.0
H746 H 0.97 0.35632 0.58009 0.0
C747 C 0.02416 0.37251 0.66292 0.0
H748 H 0.97488 0.31223 0.62348 0.0
C749 C 0.0208 0.39792 0.63848 0.0
C750 C 0.0015 0.3924 0.60824 0.0
H751 H 0.03942 0.37741 0.6859 0.0
H752 H 0.03391 0.42165 0.64294 0.0
C753 C 0.98514 0.36119 0.60314 0.0
C754 C 0.63235 0.01387 0.66447 0.0
C755 C 0.65993 0.99057 0.66161 0.0
H756 H 0.58567 0.03425 0.64145 0.0
C757 C 0.66226 0.97042 0.63212 0.0
H758 H 0.63003 0.02967 0.68698 0.0
C759 C 0.63759 0.97374 0.60574 0.0
C760 C 0.60965 0.99656 0.60891 0.0
H761 H 0.68348 0.95246 0.62923 0.0
H762 H 0.63991 0.95794 0.58321 0.0
C763 C 0.60705 0.01646 0.63854 0.0
C764 C 0.00773 0.33601 0.36964 0.0
C765 C 0.98791 0.34133 0.33967 0.0
H766 H 0.0256 0.35633 0.41752 0.0
C767 C 0.97139 0.37249 0.33471 0.0
H768 H 0.02072 0.31223 0.37413 0.0
C769 C 0.97474 0.3979 0.35915 0.0
C770 C 0.99406 0.3924 0.38938 0.0
H771 H 0.95612 0.37738 0.31174 0.0
H772 H 0.96162 0.42162 0.35469 0.0
C773 C 0.01044 0.36119 0.39447 0.0
C774 C 0.63232 0.98652 0.33316 0.0
C775 C 0.65989 0.00982 0.33603 0.0
H776 H 0.58565 0.96612 0.35618 0.0
C777 C 0.66222 0.02997 0.36552 0.0
H778 H 0.63001 0.97072 0.31065 0.0
C779 C 0.63755 0.02664 0.3919 0.0
C780 C 0.60962 0.0038 0.38873 0.0
H781 H 0.68343 0.04794 0.36842 0.0
H782 H 0.63986 0.04243 0.41443 0.0
C783 C 0.60702 0.98391 0.3591 0.0
C784 C 0.9878 0.66421 0.36958 0.0
C785 C 0.00765 0.65888 0.33962 0.0
H786 H 0.96991 0.64389 0.41744 0.0
C787 C 0.02416 0.62772 0.33466 0.0
H788 H 0.97481 0.68798 0.37406 0.0
C789 C 0.02079 0.60231 0.35911 0.0
C790 C 0.00146 0.60782 0.38933 0.0
H791 H 0.03946 0.62283 0.3117 0.0
H792 H 0.03392 0.57859 0.35466 0.0
C793 C 0.98508 0.63902 0.3944 0.0
C794 C 0.33324 0.97041 0.36552 0.0
C795 C 0.33556 0.99057 0.33604 0.0
H796 H 0.35559 0.95792 0.41443 0.0
C797 C 0.36313 0.01388 0.33319 0.0
H798 H 0.31203 0.95243 0.36841 0.0
C799 C 0.38843 0.01647 0.35913 0.0
C800 C 0.38583 0.99656 0.38875 0.0
H801 H 0.36544 0.02969 0.31069 0.0
H802 H 0.4098 0.03427 0.35622 0.0
C803 C 0.3579 0.97373 0.39191 0.0
C804 C 0.97254 0.16003 0.36771 0.0
C805 C 0.99579 0.15892 0.33966 0.0
H806 H 0.95531 0.13644 0.41422 0.0
C807 C 0.01886 0.13157 0.33627 0.0
H808 H 0.95465 0.18094 0.37103 0.0
C809 C 0.01861 0.10572 0.36055 0.0
C810 C 0.9961 0.10743 0.38911 0.0
H811 H 0.03702 0.13015 0.31486 0.0
H812 H 0.03667 0.08489 0.35752 0.0
C813 C 0.97306 0.13474 0.39249 0.0
C814 C 0.82379 0.99068 0.3728 0.0
C815 C 0.82918 0.00712 0.34133 0.0
H816 H 0.84581 0.97566 0.42086 0.0
C817 C 0.86294 0.0194 0.33343 0.0
H818 H 0.79814 0.98084 0.37968 0.0
C819 C 0.89049 0.01614 0.35709 0.0
C820 C 0.88457 0.00097 0.38918 0.0
H821 H 0.86789 0.03211 0.30935 0.0
H822 H 0.91605 0.02654 0.35074 0.0
C823 C 0.8511 0.98784 0.39654 0.0
C824 C 0.97669 0.86865 0.3363 0.0
C825 C -0.00026 0.84129 0.33972 0.0
H826 H 0.95887 0.91533 0.35752 0.0
C827 C 0.02295 0.84017 0.36781 0.0
H828 H 0.95857 0.87007 0.31486 0.0
C829 C 0.0224 0.86546 0.39259 0.0
C830 C -0.00061 0.89278 0.38916 0.0
H831 H 0.04083 0.81925 0.37115 0.0
H832 H 0.04012 0.86376 0.41434 0.0
C833 C 0.97691 0.89449 0.36057 0.0
C834 C 0.13253 0.98092 0.3334 0.0
C835 C 0.16628 0.99323 0.34129 0.0
H836 H 0.07943 0.97373 0.35071 0.0
C837 C 0.17166 0.00968 0.37276 0.0
H838 H 0.12759 0.9682 0.30931 0.0
C839 C 0.14436 0.01249 0.3965 0.0
C840 C 0.11089 0.99932 0.38915 0.0
H841 H 0.19731 0.01954 0.37963 0.0
H842 H 0.14963 0.02467 0.42083 0.0
C843 C 0.10498 0.98416 0.35707 0.0
C844 C 0.01884 0.86866 0.66128 0.0
C845 C 0.99579 0.8413 0.65787 0.0
H846 H 0.03665 0.91535 0.64006 0.0
C847 C 0.97258 0.84017 0.62979 0.0
H848 H 0.03697 0.87009 0.68272 0.0
C849 C 0.97311 0.86546 0.60501 0.0
C850 C 0.99613 0.89279 0.60842 0.0
H851 H 0.9547 0.81925 0.62645 0.0
H852 H 0.95539 0.86376 0.58325 0.0
C853 C 0.0186 0.89451 0.637 0.0
C854 C 0.13254 0.01939 0.66415 0.0
C855 C 0.1663 0.00712 0.65626 0.0
H856 H 0.07943 0.02653 0.64685 0.0
C857 C 0.1717 0.9907 0.62478 0.0
H858 H 0.12758 0.03209 0.68825 0.0
C859 C 0.1444 0.98786 0.60104 0.0
C860 C 0.11092 0.00098 0.6084 0.0
H861 H 0.19736 0.98087 0.6179 0.0
H862 H 0.14969 0.9757 0.57671 0.0
C863 C 0.10499 0.01613 0.64049 0.0
C864 C 0.02299 0.16003 0.62986 0.0
C865 C -0.00025 0.15892 0.65792 0.0
H866 H 0.04019 0.13644 0.58333 0.0
C867 C 0.97669 0.13157 0.66132 0.0
H868 H 0.04088 0.18094 0.62653 0.0
C869 C 0.97692 0.10573 0.63704 0.0
C870 C -0.00059 0.10744 0.60847 0.0
H871 H 0.95854 0.13015 0.68274 0.0
H872 H 0.95886 0.0849 0.64007 0.0
C873 C 0.02245 0.13475 0.60507 0.0
C874 C 0.86297 0.98094 0.66419 0.0
C875 C 0.82922 0.99323 0.6563 0.0
H876 H 0.91607 0.97375 0.64688 0.0
C877 C 0.82383 0.00966 0.62482 0.0
H878 H 0.86792 0.96823 0.68828 0.0
C879 C 0.85113 0.01247 0.60107 0.0
C880 C 0.8846 0.99932 0.60843 0.0
H881 H 0.79818 0.01951 0.61794 0.0
H882 H 0.84584 0.02464 0.57674 0.0
C883 C 0.89052 0.98417 0.64052 0.0
C884 C 0.35943 0.97929 0.1608 0.0
C885 C 0.33147 0.00228 0.15845 0.0
H886 H 0.4076 0.96136 0.13854 0.0
C887 C 0.33009 0.02446 0.1305 0.0
H888 H 0.36122 0.96212 0.18228 0.0
C889 C 0.35614 0.02347 0.10515 0.0
C890 C 0.38451 0.00103 0.10798 0.0
H891 H 0.30883 0.04245 0.12818 0.0
H892 H 0.35454 0.04075 0.08374 0.0
C893 C 0.38604 0.97902 0.13601 0.0
C894 C 0.97998 0.33997 0.13296 0.0
C895 C 0.99422 0.34845 0.16515 0.0
H896 H 0.97052 0.35562 0.08103 0.0
C897 C 0.01215 0.37906 0.16878 0.0
H898 H 0.96611 0.3165 0.12935 0.0
C899 C 0.01429 0.40145 0.14142 0.0
C900 C -0.00103 0.39361 0.10961 0.0
H901 H 0.02359 0.38635 0.19314 0.0
H902 H 0.02756 0.42519 0.1454 0.0
C903 C 0.98256 0.3623 0.10531 0.0
C904 C 0.66536 0.97587 0.1305 0.0
C905 C 0.66397 0.99805 0.15844 0.0
H906 H 0.64092 0.95955 0.08374 0.0
C907 C 0.636 0.02103 0.16078 0.0
H908 H 0.68663 0.95789 0.12818 0.0
C909 C 0.60938 0.02128 0.136 0.0
C910 C 0.61092 0.99925 0.10798 0.0
H911 H 0.63419 0.0382 0.18226 0.0
H912 H 0.58782 0.03892 0.13853 0.0
C913 C 0.63931 0.97683 0.10516 0.0
C914 C 0.98352 0.62111 0.16885 0.0
C915 C 0.00141 0.65174 0.1652 0.0
H916 H 0.96811 0.57498 0.14548 0.0
C917 C 0.01559 0.66024 0.13299 0.0
H918 H 0.97212 0.6138 0.19323 0.0
C919 C 0.01298 0.63791 0.10534 0.0
C920 C 0.9966 0.60659 0.10966 0.0
H921 H 0.02943 0.68372 0.12937 0.0
H922 H 0.02497 0.64461 0.08104 0.0
C923 C 0.98135 0.59873 0.14149 0.0
C924 C 0.35936 0.02105 0.83686 0.0
C925 C 0.3314 0.99806 0.8392 0.0
H926 H 0.40754 0.03896 0.85911 0.0
C927 C 0.33003 0.97587 0.86714 0.0
H928 H 0.36115 0.03823 0.81539 0.0
C929 C 0.35609 0.97685 0.89248 0.0
C930 C 0.38446 0.99928 0.88965 0.0
H931 H 0.30877 0.95788 0.86946 0.0
H932 H 0.35449 0.95956 0.91389 0.0
C933 C 0.38598 0.02131 0.86163 0.0
C934 C 0.01554 0.33997 0.86469 0.0
C935 C 0.00129 0.34845 0.8325 0.0
H936 H 0.02499 0.35563 0.91662 0.0
C937 C 0.98335 0.37906 0.82888 0.0
H938 H 0.02942 0.31651 0.86829 0.0
C939 C 0.9812 0.40144 0.85623 0.0
C940 C 0.99652 0.39361 0.88804 0.0
H941 H 0.9719 0.38634 0.80451 0.0
H942 H 0.96792 0.42518 0.85227 0.0
C943 C 0.01295 0.3623 0.89235 0.0
C944 C 0.6654 0.02443 0.86715 0.0
C945 C 0.66403 0.00225 0.83921 0.0
H946 H 0.64093 0.04072 0.91391 0.0
C947 C 0.63608 0.97926 0.83685 0.0
H948 H 0.68665 0.04243 0.86948 0.0
C949 C 0.60946 0.97898 0.86162 0.0
C950 C 0.61097 0.001 0.88965 0.0
H951 H 0.6343 0.96209 0.81537 0.0
H952 H 0.58791 0.96132 0.85909 0.0
C953 C 0.63934 0.02344 0.89249 0.0
C954 C 0.01203 0.6211 0.8288 0.0
C955 C 0.99415 0.65173 0.83245 0.0
H956 H 0.02743 0.57496 0.85219 0.0
C957 C 0.97996 0.66024 0.86465 0.0
H958 H 0.02344 0.61379 0.80443 0.0
C959 C 0.98255 0.63791 0.89231 0.0
C960 C -0.00108 0.60658 0.88799 0.0
H961 H 0.96612 0.68372 0.86826 0.0
H962 H 0.97055 0.64462 0.91659 0.0
C963 C 0.01419 0.59872 0.85617 0.0
C964 C 0.172 0.37748 0.98832 0.0
C965 C 0.16653 0.34643 0.00449 0.0
H966 H 0.15 0.42464 0.97366 0.0
C967 C 0.13267 0.33841 0.01658 0.0
H968 H 0.19775 0.38444 0.97863 0.0
C969 C 0.10509 0.36151 0.01346 0.0
C970 C 0.11106 0.39314 0.99861 0.0
H971 H 0.12765 0.31464 0.02909 0.0
H972 H 0.07945 0.35502 0.02376 0.0
C973 C 0.14465 0.40065 0.98561 0.0
C974 C 0.17209 0.62266 0.00923 0.0
C975 C 0.16661 0.65374 0.99311 0.0
H976 H 0.15008 0.57549 0.02384 0.0
C977 C 0.13273 0.66179 0.98107 0.0
H978 H 0.19784 0.61567 0.01887 0.0
C979 C 0.10515 0.6387 0.9842 0.0
C980 C 0.11112 0.60705 -0.001 0.0
H981 H 0.12771 0.68558 0.96862 0.0
H982 H 0.0795 0.64522 0.97395 0.0
C983 C 0.14473 0.5995 0.01194 0.0
C984 C 0.33162 0.13178 0.97545 0.0
C985 C 0.33449 0.15893 0.99825 0.0
H986 H 0.35387 0.0852 0.9583 0.0
C987 C 0.36257 0.15977 0.02174 0.0
H988 H 0.31018 0.13056 0.95712 0.0
C989 C 0.38797 0.13444 0.02172 0.0
C990 C 0.38512 0.10734 -0.00107 0.0
H991 H 0.3655 0.18052 0.03945 0.0
H992 H 0.40976 0.13594 0.03964 0.0
C993 C 0.35647 0.10587 0.97617 0.0
C994 C 0.86282 0.33842 0.98109 0.0
C995 C 0.82895 0.34644 0.99318 0.0
H996 H 0.91604 0.35502 0.97392 0.0
C997 C 0.82348 0.3775 0.00934 0.0
H998 H 0.86784 0.31464 0.9686 0.0
C999 C 0.85083 0.40066 0.01205 0.0
C1000 C 0.88443 0.39315 -0.00095 0.0
H1001 H 0.79773 0.38447 0.01902 0.0
H1002 H 0.84548 0.42466 0.02398 0.0
C1003 C 0.8904 0.36151 0.98422 0.0
C1004 C 0.66382 0.86848 0.97545 0.0
C1005 C 0.66095 0.84132 0.99825 0.0
H1006 H 0.64157 0.91506 0.9583 0.0
C1007 C 0.63286 0.84047 0.02173 0.0
H1008 H 0.68526 0.86969 0.95713 0.0
C1009 C 0.60746 0.86581 0.02171 0.0
C1010 C 0.61031 0.89291 -0.00107 0.0
H1011 H 0.62993 0.81973 0.03944 0.0
H1012 H 0.58566 0.8643 0.03963 0.0
C1013 C 0.63897 0.89438 0.97617 0.0
C1014 C 0.86277 0.66179 0.01659 0.0
C1015 C 0.8289 0.65375 0.00455 0.0
H1016 H 0.916 0.64522 0.02373 0.0
C1017 C 0.82342 0.62267 0.98842 0.0
H1018 H 0.8678 0.68558 0.02906 0.0
C1019 C 0.85078 0.59952 0.98571 0.0
C1020 C 0.88438 0.60706 0.99866 0.0
H1021 H 0.79767 0.61569 0.97877 0.0
H1022 H 0.84543 0.57551 0.9738 0.0
C1023 C 0.89036 0.63871 0.01346 0.0
C1024 C 0.36253 0.84051 0.97588 0.0
C1025 C 0.33447 0.84134 -0.00061 0.0
H1026 H 0.40971 0.86435 0.95795 0.0
C1027 C 0.33161 0.8685 0.02219 0.0
H1028 H 0.36545 0.81976 0.95816 0.0
C1029 C 0.35646 0.89441 0.02146 0.0
C1030 C 0.38509 0.89294 0.99868 0.0
H1031 H 0.31018 0.86971 0.04054 0.0
H1032 H 0.35387 0.91507 0.03934 0.0
C1033 C 0.38792 0.86584 0.97589 0.0
C1034 C 0.66384 0.13174 0.02217 0.0
C1035 C 0.66098 0.15889 -0.00063 0.0
H1036 H 0.64158 0.08517 0.03932 0.0
C1037 C 0.63291 0.15974 0.97587 0.0
H1038 H 0.68528 0.13053 0.04051 0.0
C1039 C 0.60751 0.13441 0.97588 0.0
C1040 C 0.61035 0.10731 0.99867 0.0
H1041 H 0.62998 0.18048 0.95816 0.0
H1042 H 0.58572 0.13591 0.95796 0.0
C1043 C 0.63899 0.10584 0.02145 0.0
C1044 C 0.51881 0.63158 0.83631 0.0
C1045 C 0.49574 0.65893 0.83972 0.0
H1046 H 0.53664 0.5849 0.85755 0.0
C1047 C 0.47252 0.66004 0.86779 0.0
H1048 H 0.53695 0.63016 0.81488 0.0
C1049 C 0.47306 0.63476 0.89257 0.0
C1050 C 0.4961 0.60745 0.88917 0.0
H1051 H 0.45463 0.68095 0.87112 0.0
H1052 H 0.45533 0.63646 0.91432 0.0
C1053 C 0.51858 0.60574 0.8606 0.0
C1054 C 0.36294 0.51935 0.83347 0.0
C1055 C 0.32918 0.50708 0.84137 0.0
H1056 H 0.41605 0.5265 0.85076 0.0
C1057 C 0.32379 0.49066 0.87285 0.0
H1058 H 0.36789 0.53205 0.80937 0.0
C1059 C 0.35109 0.48784 0.89659 0.0
C1060 C 0.38456 0.50096 0.88923 0.0
H1061 H 0.29813 0.48083 0.87974 0.0
H1062 H 0.3458 0.47568 0.92093 0.0
C1063 C 0.39049 0.5161 0.85713 0.0
C1064 C 0.52291 0.34018 0.86777 0.0
C1065 C 0.49968 0.34131 0.83971 0.0
H1066 H 0.54013 0.36376 0.9143 0.0
C1067 C 0.47663 0.36866 0.83631 0.0
H1068 H 0.5408 0.31927 0.8711 0.0
C1069 C 0.47686 0.3945 0.8606 0.0
C1070 C 0.49936 0.39279 0.88917 0.0
H1071 H 0.45848 0.37009 0.81489 0.0
H1072 H 0.45881 0.41534 0.85756 0.0
C1073 C 0.52238 0.36547 0.89256 0.0
C1074 C 0.67168 0.50959 0.87283 0.0
C1075 C 0.66629 0.49316 0.84135 0.0
H1076 H 0.64967 0.52458 0.9209 0.0
C1077 C 0.63254 0.48088 0.83346 0.0
H1078 H 0.69734 0.51943 0.87971 0.0
C1079 C 0.60499 0.48412 0.85712 0.0
C1080 C 0.61091 0.49928 0.88921 0.0
H1081 H 0.62759 0.46817 0.80936 0.0
H1082 H 0.57943 0.47372 0.85076 0.0
C1083 C 0.64438 0.51242 0.89657 0.0
C1084 C 0.47247 0.34023 0.12989 0.0
C1085 C 0.49571 0.34134 0.15795 0.0
H1086 H 0.45528 0.36382 0.08336 0.0
C1087 C 0.51877 0.36868 0.16136 0.0
H1088 H 0.45458 0.31932 0.12656 0.0
C1089 C 0.51854 0.39453 0.13708 0.0
C1090 C 0.49605 0.39282 0.10851 0.0
H1091 H 0.53692 0.3701 0.18279 0.0
H1092 H 0.53661 0.41536 0.14012 0.0
C1093 C 0.47302 0.36551 0.10511 0.0
C1094 C 0.63249 0.51932 0.16421 0.0
C1095 C 0.66625 0.50701 0.15634 0.0
H1096 H 0.5794 0.52652 0.14688 0.0
C1097 C 0.67163 0.49054 0.12488 0.0
H1098 H 0.62755 0.53206 0.18829 0.0
C1099 C 0.64433 0.48772 0.10113 0.0
C1100 C 0.61087 0.5009 0.10846 0.0
H1101 H 0.69728 0.48067 0.11802 0.0
H1102 H 0.64962 0.47553 0.07681 0.0
C1103 C 0.60495 0.51609 0.14054 0.0
C1104 C 0.47672 0.63154 0.16136 0.0
C1105 C 0.49978 0.65889 0.15795 0.0
H1106 H 0.45889 0.58487 0.14012 0.0
C1107 C 0.52302 0.66 0.1299 0.0
H1108 H 0.45856 0.63013 0.18278 0.0
C1109 C 0.52248 0.63471 0.10511 0.0
C1110 C 0.49945 0.6074 0.10851 0.0
H1111 H 0.54091 0.68091 0.12656 0.0
H1112 H 0.54022 0.63641 0.08337 0.0
C1113 C 0.47695 0.6057 0.13708 0.0
C1114 C 0.32389 0.50971 0.12491 0.0
C1115 C 0.32927 0.49323 0.15636 0.0
H1116 H 0.3459 0.52472 0.07684 0.0
C1117 C 0.36302 0.4809 0.16422 0.0
H1118 H 0.29824 0.51959 0.11805 0.0
C1119 C 0.39056 0.48413 0.14055 0.0
C1120 C 0.38464 0.49933 0.10848 0.0
H1121 H 0.36796 0.46815 0.1883 0.0
H1122 H 0.4161 0.47369 0.14688 0.0
C1123 C 0.35118 0.51252 0.10115 0.0
C1124 C 0.85945 0.47924 0.66078 0.0
C1125 C 0.83148 0.50223 0.65843 0.0
H1126 H 0.90762 0.46132 0.63853 0.0
C1127 C 0.83011 0.52441 0.63049 0.0
H1128 H 0.86124 0.46206 0.68226 0.0
C1129 C 0.85617 0.52343 0.60515 0.0
C1130 C 0.88454 0.501 0.60799 0.0
H1131 H 0.80885 0.5424 0.62817 0.0
H1132 H 0.85457 0.54071 0.58374 0.0
C1133 C 0.88607 0.47897 0.63601 0.0
C1134 C 0.47994 0.84001 0.63294 0.0
C1135 C 0.49417 0.84849 0.66514 0.0
H1136 H 0.47051 0.85567 0.58101 0.0
C1137 C 0.51209 0.8791 0.66878 0.0
H1138 H 0.46608 0.81654 0.62933 0.0
C1139 C 0.51425 0.90149 0.64143 0.0
C1140 C 0.49895 0.89366 0.60961 0.0
H1141 H 0.52353 0.88639 0.69315 0.0
H1142 H 0.52752 0.92523 0.64541 0.0
C1143 C 0.48254 0.86235 0.60529 0.0
C1144 C 0.16545 0.47584 0.63048 0.0
C1145 C 0.16408 0.49803 0.65842 0.0
H1146 H 0.141 0.45954 0.58372 0.0
C1147 C 0.13613 0.52103 0.66076 0.0
H1148 H 0.18671 0.45785 0.62816 0.0
C1149 C 0.10951 0.52129 0.63598 0.0
C1150 C 0.11103 0.49927 0.60796 0.0
H1151 H 0.13434 0.5382 0.68223 0.0
H1152 H 0.08796 0.53895 0.6385 0.0
C1153 C 0.1394 0.47682 0.60513 0.0
C1154 C 0.51554 0.16029 0.63301 0.0
C1155 C 0.50135 0.15179 0.66521 0.0
H1156 H 0.52494 0.14467 0.58106 0.0
C1157 C 0.48346 0.12116 0.66886 0.0
H1158 H 0.52937 0.18378 0.62939 0.0
C1159 C 0.4813 0.09877 0.64149 0.0
C1160 C 0.49657 0.10664 0.60966 0.0
H1161 H 0.47206 0.11384 0.69323 0.0
H1162 H 0.46806 0.07502 0.64547 0.0
C1163 C 0.51294 0.13797 0.60535 0.0
C1164 C 0.83008 0.47584 0.36715 0.0
C1165 C 0.83145 0.49802 0.33921 0.0
H1166 H 0.85455 0.45954 0.4139 0.0
C1167 C 0.85941 0.52102 0.33686 0.0
H1168 H 0.80882 0.45785 0.36948 0.0
C1169 C 0.88603 0.52128 0.36163 0.0
C1170 C 0.88451 0.49926 0.38965 0.0
H1171 H 0.8612 0.53819 0.31538 0.0
H1172 H 0.90758 0.53893 0.3591 0.0
C1173 C 0.85614 0.47682 0.39249 0.0
C1174 C 0.48335 0.8791 0.32888 0.0
C1175 C 0.50128 0.8485 0.33252 0.0
H1176 H 0.46793 0.92523 0.35226 0.0
C1177 C 0.51552 0.84002 0.36471 0.0
H1178 H 0.4719 0.88639 0.30452 0.0
C1179 C 0.51293 0.86236 0.39236 0.0
C1180 C 0.49652 0.89367 0.38805 0.0
H1181 H 0.52939 0.81655 0.36831 0.0
H1182 H 0.52498 0.85568 0.41663 0.0
C1183 C 0.4812 0.9015 0.35624 0.0
C1184 C 0.13611 0.47924 0.33683 0.0
C1185 C 0.16407 0.50223 0.33918 0.0
H1186 H 0.08793 0.46132 0.35908 0.0
C1187 C 0.16544 0.52442 0.36712 0.0
H1188 H 0.13432 0.46207 0.31536 0.0
C1189 C 0.13938 0.52344 0.39246 0.0
C1190 C 0.11101 0.501 0.38963 0.0
H1191 H 0.1867 0.54241 0.36945 0.0
H1192 H 0.14097 0.54072 0.41387 0.0
C1193 C 0.10949 0.47898 0.36161 0.0
C1194 C 0.4799 0.16028 0.36465 0.0
C1195 C 0.49411 0.15178 0.33245 0.0
H1196 H 0.4705 0.14466 0.41659 0.0
C1197 C 0.51202 0.12116 0.32881 0.0
H1198 H 0.46605 0.18376 0.36826 0.0
C1199 C 0.51419 0.09878 0.35618 0.0
C1200 C 0.4989 0.10664 0.388 0.0
H1201 H 0.52343 0.11385 0.30444 0.0
H1202 H 0.52744 0.07503 0.3522 0.0
C1203 C 0.48251 0.13796 0.39231 0.0
C1204 C 0.67201 0.87756 0.4883 0.0
C1205 C 0.66654 0.84649 0.50444 0.0
H1206 H 0.65001 0.92472 0.47368 0.0
C1207 C 0.63267 0.83846 0.51653 0.0
H1208 H 0.69775 0.88453 0.47861 0.0
C1209 C 0.60509 0.86156 0.51342 0.0
C1210 C 0.61106 0.8932 0.49859 0.0
H1211 H 0.62765 0.81468 0.52901 0.0
H1212 H 0.57945 0.85506 0.52371 0.0
C1213 C 0.64466 0.90072 0.4856 0.0
C1214 C 0.67207 0.12272 0.50923 0.0
C1215 C 0.6666 0.1538 0.49309 0.0
H1216 H 0.65006 0.07557 0.52387 0.0
C1217 C 0.63272 0.16184 0.48104 0.0
H1218 H 0.69782 0.11574 0.51889 0.0
C1219 C 0.60513 0.13875 0.48418 0.0
C1220 C 0.61111 0.10711 0.499 0.0
H1221 H 0.6277 0.18562 0.46856 0.0
H1222 H 0.57949 0.14526 0.47391 0.0
C1223 C 0.64471 0.09957 0.51195 0.0
C1224 C 0.86259 0.65974 0.52172 0.0
C1225 C 0.83452 0.6589 0.49823 0.0
H1226 H 0.90977 0.63591 0.53965 0.0
C1227 C 0.83166 0.63174 0.47543 0.0
H1228 H 0.86551 0.68049 0.53944 0.0
C1229 C 0.85651 0.60583 0.47616 0.0
C1230 C 0.88515 0.60731 0.49893 0.0
H1231 H 0.81023 0.63053 0.45709 0.0
H1232 H 0.85392 0.58516 0.45829 0.0
C1233 C 0.88798 0.63441 0.52172 0.0
C1234 C 0.36282 0.83846 0.48109 0.0
C1235 C 0.32894 0.84649 0.49316 0.0
H1236 H 0.41604 0.85507 0.47392 0.0
C1237 C 0.32347 0.87755 0.50932 0.0
H1238 H 0.36784 0.81469 0.46859 0.0
C1239 C 0.35082 0.90071 0.51203 0.0
C1240 C 0.38442 0.8932 0.49904 0.0
H1241 H 0.29773 0.88452 0.519 0.0
H1242 H 0.34547 0.92471 0.52396 0.0
C1243 C 0.3904 0.86156 0.48421 0.0
C1244 C 0.13288 0.34046 0.52169 0.0
C1245 C 0.16097 0.34131 0.4982 0.0
H1246 H 0.08569 0.3643 0.5396 0.0
C1247 C 0.16384 0.36847 0.47541 0.0
H1248 H 0.12995 0.31971 0.53939 0.0
C1249 C 0.139 0.39438 0.47614 0.0
C1250 C 0.11035 0.39291 0.4989 0.0
H1251 H 0.18529 0.36969 0.45709 0.0
H1252 H 0.1416 0.41506 0.45828 0.0
C1253 C 0.10749 0.3658 0.52168 0.0
C1254 C 0.36275 0.16184 0.51658 0.0
C1255 C 0.32888 0.1538 0.50453 0.0
H1256 H 0.41598 0.14526 0.52373 0.0
C1257 C 0.32341 0.12272 0.4884 0.0
H1258 H 0.36777 0.18563 0.52906 0.0
C1259 C 0.35077 0.09957 0.48569 0.0
C1260 C 0.38437 0.10711 0.49865 0.0
H1261 H 0.29766 0.11573 0.47874 0.0
H1262 H 0.34542 0.07556 0.47378 0.0
C1263 C 0.39034 0.13875 0.51346 0.0
C1264 C 0.8317 0.36848 0.52216 0.0
C1265 C 0.83458 0.34131 0.49937 0.0
H1266 H 0.85394 0.41506 0.53931 0.0
C1267 C 0.86268 0.34047 0.4759 0.0
H1268 H 0.81024 0.36969 0.54048 0.0
C1269 C 0.88807 0.3658 0.47593 0.0
C1270 C 0.8852 0.3929 0.4987 0.0
H1271 H 0.86562 0.31971 0.4582 0.0
H1272 H 0.90987 0.36429 0.45802 0.0
C1273 C 0.85655 0.39438 0.52145 0.0
C1274 C 0.16388 0.63175 0.52217 0.0
C1275 C 0.16102 0.65891 0.49936 0.0
H1276 H 0.14162 0.58518 0.53932 0.0
C1277 C 0.13295 0.65974 0.47586 0.0
H1278 H 0.18531 0.63055 0.54051 0.0
C1279 C 0.10756 0.63441 0.47587 0.0
C1280 C 0.11039 0.60732 0.49867 0.0
H1281 H 0.13002 0.68049 0.45815 0.0
H1282 H 0.08577 0.63591 0.45794 0.0
C1283 C 0.13903 0.60585 0.52144 0.0
loop_
_geom_bond_atom_site_label_1
_geom_bond_atom_site_label_2
_geom_bond_distance
_geom_bond_site_symmetry_2
_ccdc_geom_bond_type
O0 Cd1 2.300 1_455 S
O0 C7 1.275 1_455 S
Cd1 O0 2.300 1_655 S
Cd1 O9 2.381 1_655 S
Cd1 O10 2.378 . S
O2 Cd3 2.385 . S
O2 C7 1.255 . S
Cd3 O2 2.385 . S
Cd3 O4 2.317 . S
O4 Cd3 2.317 . S
O4 C5 1.232 . S
C5 O4 1.232 . S
C5 O6 1.218 . S
O6 C5 1.218 . S
C7 O0 1.275 1_655 S
C7 O2 1.255 . S
C8 O9 1.258 1_655 S
C8 O10 1.256 . S
O9 Cd1 2.381 1_455 S
O9 C8 1.258 1_455 S
O10 Cd1 2.378 . S
O10 C8 1.256 . S
O11 Cd12 2.300 1_565 S
O11 C18 1.275 1_565 S
Cd12 O11 2.300 1_545 S
Cd12 O20 2.381 1_545 S
Cd12 O21 2.378 . S
O13 Cd14 2.385 . S
O13 C18 1.255 . S
Cd14 O13 2.385 . S
Cd14 O15 2.317 . S
O15 Cd14 2.317 . S
O15 C16 1.232 . S
C16 O15 1.232 . S
C16 O17 1.218 . S
O17 C16 1.218 . S
C18 O11 1.275 1_545 S
C18 O13 1.255 . S
C19 O20 1.258 1_545 S
C19 O21 1.256 . S
O20 Cd12 2.381 1_565 S
O20 C19 1.258 1_565 S
O21 Cd12 2.378 . S
O21 C19 1.256 . S
O22 Cd23 2.300 1_655 S
O22 C29 1.275 1_655 S
Cd23 O22 2.300 1_455 S
Cd23 O31 2.381 1_455 S
Cd23 O32 2.378 . S
O24 Cd25 2.385 . S
O24 C29 1.255 . S
Cd25 O24 2.385 . S
Cd25 O26 2.317 . S
O26 Cd25 2.317 . S
O26 C27 1.232 . S
C27 O26 1.232 . S
C27 O28 1.218 . S
O28 C27 1.218 . S
C29 O22 1.275 1_455 S
C29 O24 1.255 . S
C30 O31 1.258 1_455 S
C30 O32 1.256 . S
O31 Cd23 2.381 1_655 S
O31 C30 1.258 1_655 S
O32 Cd23 2.378 . S
O32 C30 1.256 . S
O33 Cd34 2.300 1_545 S
O33 C40 1.275 1_545 S
Cd34 O33 2.300 1_565 S
Cd34 O42 2.381 1_565 S
Cd34 O43 2.378 . S
O35 Cd36 2.385 . S
O35 C40 1.255 . S
Cd36 O35 2.385 . S
Cd36 O37 2.317 . S
O37 Cd36 2.317 . S
O37 C38 1.232 . S
C38 O37 1.232 . S
C38 O39 1.218 . S
O39 C38 1.218 . S
C40 O33 1.275 1_565 S
C40 O35 1.255 . S
C41 O42 1.258 1_565 S
C41 O43 1.256 . S
O42 Cd34 2.381 1_545 S
O42 C41 1.258 1_545 S
O43 Cd34 2.378 . S
O43 C41 1.256 . S
O44 Cd45 2.300 1_455 S
O44 C51 1.275 1_455 S
Cd45 O44 2.300 1_655 S
Cd45 O53 2.381 1_655 S
Cd45 O54 2.378 . S
O46 Cd47 2.385 . S
O46 C51 1.255 . S
Cd47 O46 2.385 . S
Cd47 O48 2.317 . S
O48 Cd47 2.317 . S
O48 C49 1.232 . S
C49 O48 1.232 . S
C49 O50 1.218 . S
O50 C49 1.218 . S
C51 O44 1.275 1_655 S
C51 O46 1.255 . S
C52 O53 1.258 1_655 S
C52 O54 1.256 . S
O53 Cd45 2.381 1_455 S
O53 C52 1.258 1_455 S
O54 Cd45 2.378 . S
O54 C52 1.256 . S
O55 Cd56 2.300 1_565 S
O55 C62 1.275 1_565 S
Cd56 O55 2.300 1_545 S
Cd56 O64 2.381 1_545 S
Cd56 O65 2.378 . S
O57 Cd58 2.385 . S
O57 C62 1.255 . S
Cd58 O57 2.385 . S
Cd58 O59 2.317 . S
O59 Cd58 2.317 . S
O59 C60 1.232 . S
C60 O59 1.232 . S
C60 O61 1.218 . S
O61 C60 1.218 . S
C62 O55 1.275 1_545 S
C62 O57 1.255 . S
C63 O64 1.258 1_545 S
C63 O65 1.256 . S
O64 Cd56 2.381 1_565 S
O64 C63 1.258 1_565 S
O65 Cd56 2.378 . S
O65 C63 1.256 . S
O66 Cd67 2.300 1_655 S
O66 C73 1.275 1_655 S
Cd67 O66 2.300 1_455 S
Cd67 O75 2.381 1_455 S
Cd67 O76 2.378 . S
O68 Cd69 2.385 . S
O68 C73 1.255 . S
Cd69 O68 2.385 . S
Cd69 O70 2.317 . S
O70 Cd69 2.317 . S
O70 C71 1.232 . S
C71 O70 1.232 . S
C71 O72 1.218 . S
O72 C71 1.218 . S
C73 O66 1.275 1_455 S
C73 O68 1.255 . S
C74 O75 1.258 1_455 S
C74 O76 1.256 . S
O75 Cd67 2.381 1_655 S
O75 C74 1.258 1_655 S
O76 Cd67 2.378 . S
O76 C74 1.256 . S
O77 Cd78 2.300 1_545 S
O77 C84 1.275 1_545 S
Cd78 O77 2.300 1_565 S
Cd78 O86 2.381 1_565 S
Cd78 O87 2.378 . S
O79 Cd80 2.385 . S
O79 C84 1.255 . S
Cd80 O79 2.385 . S
Cd80 O81 2.317 . S
O81 Cd80 2.317 . S
O81 C82 1.232 . S
C82 O81 1.232 . S
C82 O83 1.218 . S
O83 C82 1.218 . S
C84 O77 1.275 1_565 S
C84 O79 1.255 . S
C85 O86 1.258 1_565 S
C85 O87 1.256 . S
O86 Cd78 2.381 1_545 S
O86 C85 1.258 1_545 S
O87 Cd78 2.378 . S
O87 C85 1.256 . S
O88 Cd89 2.300 1_556 S
O88 C95 1.275 1_556 S
Cd89 O88 2.300 1_554 S
Cd89 O97 2.381 1_554 S
Cd89 O98 2.378 . S
O90 Cd91 2.385 . S
O90 C95 1.255 . S
Cd91 O90 2.385 . S
Cd91 O92 2.317 . S
O92 Cd91 2.317 . S
O92 C93 1.232 . S
C93 O92 1.232 . S
C93 O94 1.218 . S
O94 C93 1.218 . S
C95 O88 1.275 1_554 S
C95 O90 1.255 . S
C96 O97 1.258 1_554 S
C96 O98 1.256 . S
O97 Cd89 2.381 1_556 S
O97 C96 1.258 1_556 S
O98 Cd89 2.378 . S
O98 C96 1.256 . S
O99 Cd100 2.300 1_554 S
O99 C106 1.275 1_554 S
Cd100 O99 2.300 1_556 S
Cd100 O108 2.381 1_556 S
Cd100 O109 2.378 . S
O101 Cd102 2.385 . S
O101 C106 1.255 . S
Cd102 O101 2.385 . S
Cd102 O103 2.317 . S
O103 Cd102 2.317 . S
O103 C104 1.232 . S
C104 O103 1.232 . S
C104 O105 1.218 . S
O105 C104 1.218 . S
C106 O99 1.275 1_556 S
C106 O101 1.255 . S
C107 O108 1.258 1_556 S
C107 O109 1.256 . S
O108 Cd100 2.381 1_554 S
O108 C107 1.258 1_554 S
O109 Cd100 2.378 . S
O109 C107 1.256 . S
O110 Cd111 2.300 1_554 S
O110 C117 1.275 1_554 S
Cd111 O110 2.300 1_556 S
Cd111 O119 2.381 1_556 S
Cd111 O120 2.378 . S
O112 Cd113 2.385 . S
O112 C117 1.255 . S
Cd113 O112 2.385 . S
Cd113 O114 2.317 . S
O114 Cd113 2.317 . S
O114 C115 1.232 . S
C115 O114 1.232 . S
C115 O116 1.218 . S
O116 C115 1.218 . S
C117 O110 1.275 1_556 S
C117 O112 1.255 . S
C118 O119 1.258 1_556 S
C118 O120 1.256 . S
O119 Cd111 2.381 1_554 S
O119 C118 1.258 1_554 S
O120 Cd111 2.378 . S
O120 C118 1.256 . S
O121 Cd122 2.300 1_556 S
O121 C128 1.275 1_556 S
Cd122 O121 2.300 1_554 S
Cd122 O130 2.381 1_554 S
Cd122 O131 2.378 . S
O123 Cd124 2.385 . S
O123 C128 1.255 . S
Cd124 O123 2.385 . S
Cd124 O125 2.317 . S
O125 Cd124 2.317 . S
O125 C126 1.232 . S
C126 O125 1.232 . S
C126 O127 1.218 . S
O127 C126 1.218 . S
C128 O121 1.275 1_554 S
C128 O123 1.255 . S
C129 O130 1.258 1_554 S
C129 O131 1.256 . S
O130 Cd122 2.381 1_556 S
O130 C129 1.258 1_556 S
O131 Cd122 2.378 . S
O131 C129 1.256 . S
O132 Cd133 2.300 . S
O132 C139 1.275 . S
Cd133 O132 2.300 . S
Cd133 O141 2.381 . S
Cd133 O142 2.378 . S
O134 Cd135 2.385 . S
O134 C139 1.255 . S
Cd135 O134 2.385 . S
Cd135 O136 2.317 . S
O136 Cd135 2.317 . S
O136 C137 1.232 . S
C137 O136 1.232 . S
C137 O138 1.218 . S
O138 C137 1.218 . S
C139 O132 1.275 . S
C139 O134 1.255 . S
C140 O141 1.258 . S
C140 O142 1.256 . S
O141 Cd133 2.381 . S
O141 C140 1.258 . S
O142 Cd133 2.378 . S
O142 C140 1.256 . S
O143 Cd144 2.300 . S
O143 C150 1.275 . S
Cd144 O143 2.300 . S
Cd144 O152 2.381 . S
Cd144 O153 2.378 . S
O145 Cd146 2.385 . S
O145 C150 1.255 . S
Cd146 O145 2.385 . S
Cd146 O147 2.317 . S
O147 Cd146 2.317 . S
O147 C148 1.232 . S
C148 O147 1.232 . S
C148 O149 1.218 . S
O149 C148 1.218 . S
C150 O143 1.275 . S
C150 O145 1.255 . S
C151 O152 1.258 . S
C151 O153 1.256 . S
O152 Cd144 2.381 . S
O152 C151 1.258 . S
O153 Cd144 2.378 . S
O153 C151 1.256 . S
O154 Cd155 2.300 . S
O154 C161 1.275 . S
Cd155 O154 2.300 . S
Cd155 O163 2.381 . S
Cd155 O164 2.378 . S
O156 Cd157 2.385 . S
O156 C161 1.255 . S
Cd157 O156 2.385 . S
Cd157 O158 2.317 . S
O158 Cd157 2.317 . S
O158 C159 1.232 . S
C159 O158 1.232 . S
C159 O160 1.218 . S
O160 C159 1.218 . S
C161 O154 1.275 . S
C161 O156 1.255 . S
C162 O163 1.258 . S
C162 O164 1.256 . S
O163 Cd155 2.381 . S
O163 C162 1.258 . S
O164 Cd155 2.378 . S
O164 C162 1.256 . S
O165 Cd166 2.300 . S
O165 C172 1.275 . S
Cd166 O165 2.300 . S
Cd166 O174 2.381 . S
Cd166 O175 2.378 . S
O167 Cd168 2.385 . S
O167 C172 1.255 . S
Cd168 O167 2.385 . S
Cd168 O169 2.317 . S
O169 Cd168 2.317 . S
O169 C170 1.232 . S
C170 O169 1.232 . S
C170 O171 1.218 . S
O171 C170 1.218 . S
C172 O165 1.275 . S
C172 O167 1.255 . S
C173 O174 1.258 . S
C173 O175 1.256 . S
O174 Cd166 2.381 . S
O174 C173 1.258 . S
O175 Cd166 2.378 . S
O175 C173 1.256 . S
O176 Cd177 2.300 . S
O176 C183 1.275 . S
Cd177 O176 2.300 . S
Cd177 O185 2.381 . S
Cd177 O186 2.378 . S
O178 Cd179 2.385 . S
O178 C183 1.255 . S
Cd179 O178 2.385 . S
Cd179 O180 2.317 . S
O180 Cd179 2.317 . S
O180 C181 1.232 . S
C181 O180 1.232 . S
C181 O182 1.218 . S
O182 C181 1.218 . S
C183 O176 1.275 . S
C183 O178 1.255 . S
C184 O185 1.258 . S
C184 O186 1.256 . S
O185 Cd177 2.381 . S
O185 C184 1.258 . S
O186 Cd177 2.378 . S
O186 C184 1.256 . S
O187 Cd188 2.300 . S
O187 C194 1.275 . S
Cd188 O187 2.300 . S
Cd188 O196 2.381 . S
Cd188 O197 2.378 . S
O189 Cd190 2.385 . S
O189 C194 1.255 . S
Cd190 O189 2.385 . S
Cd190 O191 2.317 . S
O191 Cd190 2.317 . S
O191 C192 1.232 . S
C192 O191 1.232 . S
C192 O193 1.218 . S
O193 C192 1.218 . S
C194 O187 1.275 . S
C194 O189 1.255 . S
C195 O196 1.258 . S
C195 O197 1.256 . S
O196 Cd188 2.381 . S
O196 C195 1.258 . S
O197 Cd188 2.378 . S
O197 C195 1.256 . S
O198 Cd199 2.300 . S
O198 C205 1.275 . S
Cd199 O198 2.300 . S
Cd199 O207 2.381 . S
Cd199 O208 2.378 . S
O200 Cd201 2.385 . S
O200 C205 1.255 . S
Cd201 O200 2.385 . S
Cd201 O202 2.317 . S
O202 Cd201 2.317 . S
O202 C203 1.232 . S
C203 O202 1.232 . S
C203 O204 1.218 . S
O204 C203 1.218 . S
C205 O198 1.275 . S
C205 O200 1.255 . S
C206 O207 1.258 . S
C206 O208 1.256 . S
O207 Cd199 2.381 . S
O207 C206 1.258 . S
O208 Cd199 2.378 . S
O208 C206 1.256 . S
O209 Cd210 2.300 . S
O209 C216 1.275 . S
Cd210 O209 2.300 . S
Cd210 O218 2.381 . S
Cd210 O219 2.378 . S
O211 Cd212 2.385 . S
O211 C216 1.255 . S
Cd212 O211 2.385 . S
Cd212 O213 2.317 . S
O213 Cd212 2.317 . S
O213 C214 1.232 . S
C214 O213 1.232 . S
C214 O215 1.218 . S
O215 C214 1.218 . S
C216 O209 1.275 . S
C216 O211 1.255 . S
C217 O218 1.258 . S
C217 O219 1.256 . S
O218 Cd210 2.381 . S
O218 C217 1.258 . S
O219 Cd210 2.378 . S
O219 C217 1.256 . S
O220 Cd221 2.300 . S
O220 C227 1.275 . S
Cd221 O220 2.300 . S
Cd221 O229 2.381 . S
Cd221 O230 2.378 . S
O222 Cd223 2.385 . S
O222 C227 1.255 . S
Cd223 O222 2.385 . S
Cd223 O224 2.317 . S
O224 Cd223 2.317 . S
O224 C225 1.232 . S
C225 O224 1.232 . S
C225 O226 1.218 . S
O226 C225 1.218 . S
C227 O220 1.275 . S
C227 O222 1.255 . S
C228 O229 1.258 . S
C228 O230 1.256 . S
O229 Cd221 2.381 . S
O229 C228 1.258 . S
O230 Cd221 2.378 . S
O230 C228 1.256 . S
O231 Cd232 2.300 . S
O231 C238 1.275 . S
Cd232 O231 2.300 . S
Cd232 O240 2.381 . S
Cd232 O241 2.378 . S
O233 Cd234 2.385 . S
O233 C238 1.255 . S
Cd234 O233 2.385 . S
Cd234 O235 2.317 . S
O235 Cd234 2.317 . S
O235 C236 1.232 . S
C236 O235 1.232 . S
C236 O237 1.218 . S
O237 C236 1.218 . S
C238 O231 1.275 . S
C238 O233 1.255 . S
C239 O240 1.258 . S
C239 O241 1.256 . S
O240 Cd232 2.381 . S
O240 C239 1.258 . S
O241 Cd232 2.378 . S
O241 C239 1.256 . S
O242 Cd243 2.300 . S
O242 C249 1.275 . S
Cd243 O242 2.300 . S
Cd243 O251 2.381 . S
Cd243 O252 2.378 . S
O244 Cd245 2.385 . S
O244 C249 1.255 . S
Cd245 O244 2.385 . S
Cd245 O246 2.317 . S
O246 Cd245 2.317 . S
O246 C247 1.232 . S
C247 O246 1.232 . S
C247 O248 1.218 . S
O248 C247 1.218 . S
C249 O242 1.275 . S
C249 O244 1.255 . S
C250 O251 1.258 . S
C250 O252 1.256 . S
O251 Cd243 2.381 . S
O251 C250 1.258 . S
O252 Cd243 2.378 . S
O252 C250 1.256 . S
O253 Cd254 2.300 . S
O253 C260 1.275 . S
Cd254 O253 2.300 . S
Cd254 O262 2.381 . S
Cd254 O263 2.378 . S
O255 Cd256 2.385 . S
O255 C260 1.255 . S
Cd256 O255 2.385 . S
Cd256 O257 2.317 . S
O257 Cd256 2.317 . S
O257 C258 1.232 . S
C258 O257 1.232 . S
C258 O259 1.218 . S
O259 C258 1.218 . S
C260 O253 1.275 . S
C260 O255 1.255 . S
C261 O262 1.258 . S
C261 O263 1.256 . S
O262 Cd254 2.381 . S
O262 C261 1.258 . S
O263 Cd254 2.378 . S
O263 C261 1.256 . S
C264 O290 1.283 . S
C264 O308 1.283 . S
C265 O291 1.283 . S
C265 O306 1.283 . S
C266 O292 1.283 . S
C266 O309 1.283 . S
C267 O293 1.283 . S
C267 O307 1.283 . S
C268 O294 1.283 . S
C268 O303 1.283 . S
C269 O295 1.283 . S
C269 O305 1.283 . S
C270 O296 1.283 . S
C270 O302 1.283 . S
C271 O297 1.283 . S
C271 O304 1.283 . S
C272 O298 1.283 . S
C272 O313 1.283 . S
C273 O299 1.283 . S
C273 O311 1.283 . S
C274 O300 1.283 . S
C274 O312 1.283 . S
C275 O301 1.283 . S
C275 O310 1.283 . S
Eu276 O277 2.370 1_455 S
Eu276 O278 2.370 . S
Eu276 O281 2.370 1_455 S
Eu276 O282 2.370 . S
Eu276 O290 2.363 . S
Eu276 O291 2.363 . S
Eu276 O304 2.363 . S
Eu276 O305 2.363 1_455 S
O277 Eu276 2.370 1_655 S
O277 Eu279 2.370 1_565 S
O277 Eu284 2.370 1_665 S
O278 Eu276 2.370 . S
O278 Eu280 2.370 1_565 S
O278 Eu283 2.370 1_565 S
Eu279 O277 2.370 1_545 S
Eu279 O281 2.370 1_545 S
Eu279 O285 2.370 . S
Eu279 O286 2.370 . S
Eu279 O294 2.363 . S
Eu279 O295 2.363 1_545 S
Eu279 O310 2.363 . S
Eu279 O311 2.363 . S
Eu280 O278 2.370 1_545 S
Eu280 O282 2.370 1_545 S
Eu280 O287 2.370 . S
Eu280 O288 2.370 . S
Eu280 O296 2.363 . S
Eu280 O297 2.363 1_545 S
Eu280 O312 2.363 . S
Eu280 O313 2.363 . S
O281 Eu276 2.370 1_655 S
O281 Eu279 2.370 1_565 S
O281 Eu283 2.370 1_665 S
O282 Eu276 2.370 . S
O282 Eu280 2.370 1_565 S
O282 Eu284 2.370 1_565 S
Eu283 O278 2.370 1_545 S
Eu283 O281 2.370 1_445 S
Eu283 O285 2.370 1_455 S
Eu283 O288 2.370 . S
Eu283 O300 2.363 . S
Eu283 O301 2.363 1_455 S
Eu283 O308 2.363 1_545 S
Eu283 O309 2.363 . S
Eu284 O277 2.370 1_445 S
Eu284 O282 2.370 1_545 S
Eu284 O286 2.370 1_455 S
Eu284 O287 2.370 . S
Eu284 O298 2.363 . S
Eu284 O299 2.363 1_455 S
Eu284 O306 2.363 1_545 S
Eu284 O307 2.363 . S
O285 Eu279 2.370 . S
O285 Eu283 2.370 1_655 S
O285 Eu289 2.370 1_655 S
O286 Eu279 2.370 . S
O286 Eu284 2.370 1_655 S
O286 Eu289 2.370 1_655 S
O287 Eu280 2.370 . S
O287 Eu284 2.370 . S
O287 Eu289 2.370 . S
O288 Eu280 2.370 . S
O288 Eu283 2.370 . S
O288 Eu289 2.370 . S
Eu289 O285 2.370 1_455 S
Eu289 O286 2.370 1_455 S
Eu289 O287 2.370 . S
Eu289 O288 2.370 . S
Eu289 O292 2.363 . S
Eu289 O293 2.363 . S
Eu289 O302 2.363 . S
Eu289 O303 2.363 1_455 S
O290 C264 1.283 . S
O290 Eu276 2.363 . S
O291 C265 1.283 . S
O291 Eu276 2.363 . S
O292 C266 1.283 . S
O292 Eu289 2.363 . S
O293 C267 1.283 . S
O293 Eu289 2.363 . S
O294 C268 1.283 . S
O294 Eu279 2.363 . S
O295 C269 1.283 . S
O295 Eu279 2.363 1_565 S
O296 C270 1.283 . S
O296 Eu280 2.363 . S
O297 C271 1.283 . S
O297 Eu280 2.363 1_565 S
O298 C272 1.283 . S
O298 Eu284 2.363 . S
O299 C273 1.283 . S
O299 Eu284 2.363 1_655 S
O300 C274 1.283 . S
O300 Eu283 2.363 . S
O301 C275 1.283 . S
O301 Eu283 2.363 1_655 S
O302 C270 1.283 . S
O302 Eu289 2.363 . S
O303 C268 1.283 . S
O303 Eu289 2.363 1_655 S
O304 C271 1.283 . S
O304 Eu276 2.363 . S
O305 C269 1.283 . S
O305 Eu276 2.363 1_655 S
O306 C265 1.283 . S
O306 Eu284 2.363 1_565 S
O307 C267 1.283 . S
O307 Eu284 2.363 . S
O308 C264 1.283 . S
O308 Eu283 2.363 1_565 S
O309 C266 1.283 . S
O309 Eu283 2.363 . S
O310 C275 1.283 . S
O310 Eu279 2.363 . S
O311 C273 1.283 . S
O311 Eu279 2.363 . S
O312 C274 1.283 . S
O312 Eu280 2.363 . S
O313 C272 1.283 . S
O313 Eu280 2.363 . S
C314 O340 1.283 . S
C314 O358 1.283 . S
C315 O341 1.283 . S
C315 O356 1.283 . S
C316 O342 1.283 . S
C316 O359 1.283 . S
C317 O343 1.283 . S
C317 O357 1.283 . S
C318 O344 1.283 . S
C318 O353 1.283 . S
C319 O345 1.283 . S
C319 O355 1.283 . S
C320 O346 1.283 . S
C320 O352 1.283 . S
C321 O347 1.283 . S
C321 O354 1.283 . S
C322 O348 1.283 . S
C322 O363 1.283 . S
C323 O349 1.283 . S
C323 O361 1.283 . S
C324 O350 1.283 . S
C324 O362 1.283 . S
C325 O351 1.283 . S
C325 O360 1.283 . S
Eu326 O327 2.370 . S
Eu326 O328 2.370 1_545 S
Eu326 O331 2.370 1_545 S
Eu326 O332 2.370 . S
Eu326 O340 2.363 1_545 S
Eu326 O341 2.363 . S
Eu326 O354 2.363 . S
Eu326 O355 2.363 . S
O327 Eu326 2.370 . S
O327 Eu329 2.370 . S
O327 Eu334 2.370 . S
O328 Eu326 2.370 1_565 S
O328 Eu330 2.370 1_565 S
O328 Eu333 2.370 . S
Eu329 O327 2.370 . S
Eu329 O331 2.370 1_545 S
Eu329 O335 2.370 1_544 S
Eu329 O336 2.370 1_554 S
Eu329 O344 2.363 1_554 S
Eu329 O345 2.363 . S
Eu329 O360 2.363 1_545 S
Eu329 O361 2.363 . S
Eu330 O328 2.370 1_545 S
Eu330 O332 2.370 . S
Eu330 O337 2.370 1_554 S
Eu330 O338 2.370 1_544 S
Eu330 O346 2.363 1_554 S
Eu330 O347 2.363 . S
Eu330 O362 2.363 1_545 S
Eu330 O363 2.363 . S
O331 Eu326 2.370 1_565 S
O331 Eu329 2.370 1_565 S
O331 Eu333 2.370 . S
O332 Eu326 2.370 . S
O332 Eu330 2.370 . S
O332 Eu334 2.370 . S
Eu333 O328 2.370 . S
Eu333 O331 2.370 . S
Eu333 O335 2.370 1_554 S
Eu333 O338 2.370 1_554 S
Eu333 O350 2.363 . S
Eu333 O351 2.363 . S
Eu333 O358 2.363 . S
Eu333 O359 2.363 1_554 S
Eu334 O327 2.370 . S
Eu334 O332 2.370 . S
Eu334 O336 2.370 1_554 S
Eu334 O337 2.370 1_554 S
Eu334 O348 2.363 . S
Eu334 O349 2.363 . S
Eu334 O356 2.363 . S
Eu334 O357 2.363 1_554 S
O335 Eu329 2.370 1_566 S
O335 Eu333 2.370 1_556 S
O335 Eu339 2.370 1_565 S
O336 Eu329 2.370 1_556 S
O336 Eu334 2.370 1_556 S
O336 Eu339 2.370 . S
O337 Eu330 2.370 1_556 S
O337 Eu334 2.370 1_556 S
O337 Eu339 2.370 . S
O338 Eu330 2.370 1_566 S
O338 Eu333 2.370 1_556 S
O338 Eu339 2.370 1_565 S
Eu339 O335 2.370 1_545 S
Eu339 O336 2.370 . S
Eu339 O337 2.370 . S
Eu339 O338 2.370 1_545 S
Eu339 O342 2.363 1_545 S
Eu339 O343 2.363 . S
Eu339 O352 2.363 . S
Eu339 O353 2.363 . S
O340 C314 1.283 . S
O340 Eu326 2.363 1_565 S
O341 C315 1.283 . S
O341 Eu326 2.363 . S
O342 C316 1.283 . S
O342 Eu339 2.363 1_565 S
O343 C317 1.283 . S
O343 Eu339 2.363 . S
O344 C318 1.283 . S
O344 Eu329 2.363 1_556 S
O345 C319 1.283 . S
O345 Eu329 2.363 . S
O346 C320 1.283 . S
O346 Eu330 2.363 1_556 S
O347 C321 1.283 . S
O347 Eu330 2.363 . S
O348 C322 1.283 . S
O348 Eu334 2.363 . S
O349 C323 1.283 . S
O349 Eu334 2.363 . S
O350 C324 1.283 . S
O350 Eu333 2.363 . S
O351 C325 1.283 . S
O351 Eu333 2.363 . S
O352 C320 1.283 . S
O352 Eu339 2.363 . S
O353 C318 1.283 . S
O353 Eu339 2.363 . S
O354 C321 1.283 . S
O354 Eu326 2.363 . S
O355 C319 1.283 . S
O355 Eu326 2.363 . S
O356 C315 1.283 . S
O356 Eu334 2.363 . S
O357 C317 1.283 . S
O357 Eu334 2.363 1_556 S
O358 C314 1.283 . S
O358 Eu333 2.363 . S
O359 C316 1.283 . S
O359 Eu333 2.363 1_556 S
O360 C325 1.283 . S
O360 Eu329 2.363 1_565 S
O361 C323 1.283 . S
O361 Eu329 2.363 . S
O362 C324 1.283 . S
O362 Eu330 2.363 1_565 S
O363 C322 1.283 . S
O363 Eu330 2.363 . S
C364 O390 1.283 . S
C364 O408 1.283 . S
C365 O391 1.283 . S
C365 O406 1.283 . S
C366 O392 1.283 . S
C366 O409 1.283 . S
C367 O393 1.283 . S
C367 O407 1.283 . S
C368 O394 1.283 . S
C368 O403 1.283 . S
C369 O395 1.283 . S
C369 O405 1.283 . S
C370 O396 1.283 . S
C370 O402 1.283 . S
C371 O397 1.283 . S
C371 O404 1.283 . S
C372 O398 1.283 . S
C372 O413 1.283 . S
C373 O399 1.283 . S
C373 O411 1.283 . S
C374 O400 1.283 . S
C374 O412 1.283 . S
C375 O401 1.283 . S
C375 O410 1.283 . S
Eu376 O377 2.370 1_454 S
Eu376 O378 2.370 . S
Eu376 O381 2.370 1_455 S
Eu376 O382 2.370 1_554 S
Eu376 O390 2.363 . S
Eu376 O391 2.363 1_554 S
Eu376 O404 2.363 . S
Eu376 O405 2.363 1_455 S
O377 Eu376 2.370 1_656 S
O377 Eu379 2.370 1_556 S
O377 Eu384 2.370 1_655 S
O378 Eu376 2.370 . S
O378 Eu380 2.370 . S
O378 Eu383 2.370 . S
Eu379 O377 2.370 1_554 S
Eu379 O381 2.370 . S
Eu379 O385 2.370 . S
Eu379 O386 2.370 1_554 S
Eu379 O394 2.363 . S
Eu379 O395 2.363 . S
Eu379 O410 2.363 . S
Eu379 O411 2.363 1_554 S
Eu380 O378 2.370 . S
Eu380 O382 2.370 1_554 S
Eu380 O387 2.370 1_554 S
Eu380 O388 2.370 . S
Eu380 O396 2.363 . S
Eu380 O397 2.363 . S
Eu380 O412 2.363 . S
Eu380 O413 2.363 1_554 S
O381 Eu376 2.370 1_655 S
O381 Eu379 2.370 . S
O381 Eu383 2.370 1_655 S
O382 Eu376 2.370 1_556 S
O382 Eu380 2.370 1_556 S
O382 Eu384 2.370 . S
Eu383 O378 2.370 . S
Eu383 O381 2.370 1_455 S
Eu383 O385 2.370 1_455 S
Eu383 O388 2.370 . S
Eu383 O400 2.363 . S
Eu383 O401 2.363 1_455 S
Eu383 O408 2.363 . S
Eu383 O409 2.363 . S
Eu384 O377 2.370 1_455 S
Eu384 O382 2.370 . S
Eu384 O386 2.370 1_455 S
Eu384 O387 2.370 . S
Eu384 O398 2.363 . S
Eu384 O399 2.363 1_455 S
Eu384 O406 2.363 . S
Eu384 O407 2.363 . S
O385 Eu379 2.370 . S
O385 Eu383 2.370 1_655 S
O385 Eu389 2.370 1_655 S
O386 Eu379 2.370 1_556 S
O386 Eu384 2.370 1_655 S
O386 Eu389 2.370 1_656 S
O387 Eu380 2.370 1_556 S
O387 Eu384 2.370 . S
O387 Eu389 2.370 1_556 S
O388 Eu380 2.370 . S
O388 Eu383 2.370 . S
O388 Eu389 2.370 . S
Eu389 O385 2.370 1_455 S
Eu389 O386 2.370 1_454 S
Eu389 O387 2.370 1_554 S
Eu389 O388 2.370 . S
Eu389 O392 2.363 . S
Eu389 O393 2.363 1_554 S
Eu389 O402 2.363 . S
Eu389 O403 2.363 1_455 S
O390 C364 1.283 . S
O390 Eu376 2.363 . S
O391 C365 1.283 . S
O391 Eu376 2.363 1_556 S
O392 C366 1.283 . S
O392 Eu389 2.363 . S
O393 C367 1.283 . S
O393 Eu389 2.363 1_556 S
O394 C368 1.283 . S
O394 Eu379 2.363 . S
O395 C369 1.283 . S
O395 Eu379 2.363 . S
O396 C370 1.283 . S
O396 Eu380 2.363 . S
O397 C371 1.283 . S
O397 Eu380 2.363 . S
O398 C372 1.283 . S
O398 Eu384 2.363 . S
O399 C373 1.283 . S
O399 Eu384 2.363 1_655 S
O400 C374 1.283 . S
O400 Eu383 2.363 . S
O401 C375 1.283 . S
O401 Eu383 2.363 1_655 S
O402 C370 1.283 . S
O402 Eu389 2.363 . S
O403 C368 1.283 . S
O403 Eu389 2.363 1_655 S
O404 C371 1.283 . S
O404 Eu376 2.363 . S
O405 C369 1.283 . S
O405 Eu376 2.363 1_655 S
O406 C365 1.283 . S
O406 Eu384 2.363 . S
O407 C367 1.283 . S
O407 Eu384 2.363 . S
O408 C364 1.283 . S
O408 Eu383 2.363 . S
O409 C366 1.283 . S
O409 Eu383 2.363 . S
O410 C375 1.283 . S
O410 Eu379 2.363 . S
O411 C373 1.283 . S
O411 Eu379 2.363 1_556 S
O412 C374 1.283 . S
O412 Eu380 2.363 . S
O413 C372 1.283 . S
O413 Eu380 2.363 1_556 S
C414 O440 1.283 . S
C414 O458 1.283 . S
C415 O441 1.283 . S
C415 O456 1.283 . S
C416 O442 1.283 . S
C416 O459 1.283 . S
C417 O443 1.283 . S
C417 O457 1.283 . S
C418 O444 1.283 . S
C418 O453 1.283 . S
C419 O445 1.283 . S
C419 O455 1.283 . S
C420 O446 1.283 . S
C420 O452 1.283 . S
C421 O447 1.283 . S
C421 O454 1.283 . S
C422 O448 1.283 . S
C422 O463 1.283 . S
C423 O449 1.283 . S
C423 O461 1.283 . S
C424 O450 1.283 . S
C424 O462 1.283 . S
C425 O451 1.283 . S
C425 O460 1.283 . S
Eu426 O427 2.370 . S
Eu426 O428 2.370 . S
Eu426 O431 2.370 . S
Eu426 O432 2.370 . S
Eu426 O440 2.363 . S
Eu426 O441 2.363 . S
Eu426 O454 2.363 . S
Eu426 O455 2.363 . S
O427 Eu426 2.370 . S
O427 Eu429 2.370 . S
O427 Eu434 2.370 . S
O428 Eu426 2.370 . S
O428 Eu430 2.370 . S
O428 Eu433 2.370 . S
Eu429 O427 2.370 . S
Eu429 O431 2.370 . S
Eu429 O435 2.370 1_554 S
Eu429 O436 2.370 1_554 S
Eu429 O444 2.363 1_554 S
Eu429 O445 2.363 . S
Eu429 O460 2.363 . S
Eu429 O461 2.363 . S
Eu430 O428 2.370 . S
Eu430 O432 2.370 . S
Eu430 O437 2.370 1_554 S
Eu430 O438 2.370 1_554 S
Eu430 O446 2.363 1_554 S
Eu430 O447 2.363 . S
Eu430 O462 2.363 . S
Eu430 O463 2.363 . S
O431 Eu426 2.370 . S
O431 Eu429 2.370 . S
O431 Eu433 2.370 . S
O432 Eu426 2.370 . S
O432 Eu430 2.370 . S
O432 Eu434 2.370 . S
Eu433 O428 2.370 . S
Eu433 O431 2.370 . S
Eu433 O435 2.370 1_554 S
Eu433 O438 2.370 1_554 S
Eu433 O450 2.363 . S
Eu433 O451 2.363 . S
Eu433 O458 2.363 . S
Eu433 O459 2.363 1_554 S
Eu434 O427 2.370 . S
Eu434 O432 2.370 . S
Eu434 O436 2.370 1_554 S
Eu434 O437 2.370 1_554 S
Eu434 O448 2.363 . S
Eu434 O449 2.363 . S
Eu434 O456 2.363 . S
Eu434 O457 2.363 1_554 S
O435 Eu429 2.370 1_556 S
O435 Eu433 2.370 1_556 S
O435 Eu439 2.370 . S
O436 Eu429 2.370 1_556 S
O436 Eu434 2.370 1_556 S
O436 Eu439 2.370 . S
O437 Eu430 2.370 1_556 S
O437 Eu434 2.370 1_556 S
O437 Eu439 2.370 . S
O438 Eu430 2.370 1_556 S
O438 Eu433 2.370 1_556 S
O438 Eu439 2.370 . S
Eu439 O435 2.370 . S
Eu439 O436 2.370 . S
Eu439 O437 2.370 . S
Eu439 O438 2.370 . S
Eu439 O442 2.363 . S
Eu439 O443 2.363 . S
Eu439 O452 2.363 . S
Eu439 O453 2.363 . S
O440 C414 1.283 . S
O440 Eu426 2.363 . S
O441 C415 1.283 . S
O441 Eu426 2.363 . S
O442 C416 1.283 . S
O442 Eu439 2.363 . S
O443 C417 1.283 . S
O443 Eu439 2.363 . S
O444 C418 1.283 . S
O444 Eu429 2.363 1_556 S
O445 C419 1.283 . S
O445 Eu429 2.363 . S
O446 C420 1.283 . S
O446 Eu430 2.363 1_556 S
O447 C421 1.283 . S
O447 Eu430 2.363 . S
O448 C422 1.283 . S
O448 Eu434 2.363 . S
O449 C423 1.283 . S
O449 Eu434 2.363 . S
O450 C424 1.283 . S
O450 Eu433 2.363 . S
O451 C425 1.283 . S
O451 Eu433 2.363 . S
O452 C420 1.283 . S
O452 Eu439 2.363 . S
O453 C418 1.283 . S
O453 Eu439 2.363 . S
O454 C421 1.283 . S
O454 Eu426 2.363 . S
O455 C419 1.283 . S
O455 Eu426 2.363 . S
O456 C415 1.283 . S
O456 Eu434 2.363 . S
O457 C417 1.283 . S
O457 Eu434 2.363 1_556 S
O458 C414 1.283 . S
O458 Eu433 2.363 . S
O459 C416 1.283 . S
O459 Eu433 2.363 1_556 S
O460 C425 1.283 . S
O460 Eu429 2.363 . S
O461 C423 1.283 . S
O461 Eu429 2.363 . S
O462 C424 1.283 . S
O462 Eu430 2.363 . S
O463 C422 1.283 . S
O463 Eu430 2.363 . S
C464 O490 1.283 . S
C464 O508 1.283 . S
C465 O491 1.283 . S
C465 O506 1.283 . S
C466 O492 1.283 . S
C466 O509 1.283 . S
C467 O493 1.283 . S
C467 O507 1.283 . S
C468 O494 1.283 . S
C468 O503 1.283 . S
C469 O495 1.283 . S
C469 O505 1.283 . S
C470 O496 1.283 . S
C470 O502 1.283 . S
C471 O497 1.283 . S
C471 O504 1.283 . S
C472 O498 1.283 . S
C472 O513 1.283 . S
C473 O499 1.283 . S
C473 O511 1.283 . S
C474 O500 1.283 . S
C474 O512 1.283 . S
C475 O501 1.283 . S
C475 O510 1.283 . S
Eu476 O477 2.370 1_455 S
Eu476 O478 2.370 . S
Eu476 O481 2.370 1_455 S
Eu476 O482 2.370 . S
Eu476 O490 2.363 . S
Eu476 O491 2.363 . S
Eu476 O504 2.363 . S
Eu476 O505 2.363 1_455 S
O477 Eu476 2.370 1_655 S
O477 Eu479 2.370 . S
O477 Eu484 2.370 1_655 S
O478 Eu476 2.370 . S
O478 Eu480 2.370 . S
O478 Eu483 2.370 . S
Eu479 O477 2.370 . S
Eu479 O481 2.370 . S
Eu479 O485 2.370 . S
Eu479 O486 2.370 . S
Eu479 O494 2.363 . S
Eu479 O495 2.363 . S
Eu479 O510 2.363 . S
Eu479 O511 2.363 . S
Eu480 O478 2.370 . S
Eu480 O482 2.370 . S
Eu480 O487 2.370 . S
Eu480 O488 2.370 . S
Eu480 O496 2.363 . S
Eu480 O497 2.363 . S
Eu480 O512 2.363 . S
Eu480 O513 2.363 . S
O481 Eu476 2.370 1_655 S
O481 Eu479 2.370 . S
O481 Eu483 2.370 1_655 S
O482 Eu476 2.370 . S
O482 Eu480 2.370 . S
O482 Eu484 2.370 . S
Eu483 O478 2.370 . S
Eu483 O481 2.370 1_455 S
Eu483 O485 2.370 1_455 S
Eu483 O488 2.370 . S
Eu483 O500 2.363 . S
Eu483 O501 2.363 1_455 S
Eu483 O508 2.363 . S
Eu483 O509 2.363 . S
Eu484 O477 2.370 1_455 S
Eu484 O482 2.370 . S
Eu484 O486 2.370 1_455 S
Eu484 O487 2.370 . S
Eu484 O498 2.363 . S
Eu484 O499 2.363 1_455 S
Eu484 O506 2.363 . S
Eu484 O507 2.363 . S
O485 Eu479 2.370 . S
O485 Eu483 2.370 1_655 S
O485 Eu489 2.370 1_655 S
O486 Eu479 2.370 . S
O486 Eu484 2.370 1_655 S
O486 Eu489 2.370 1_655 S
O487 Eu480 2.370 . S
O487 Eu484 2.370 . S
O487 Eu489 2.370 . S
O488 Eu480 2.370 . S
O488 Eu483 2.370 . S
O488 Eu489 2.370 . S
Eu489 O485 2.370 1_455 S
Eu489 O486 2.370 1_455 S
Eu489 O487 2.370 . S
Eu489 O488 2.370 . S
Eu489 O492 2.363 . S
Eu489 O493 2.363 . S
Eu489 O502 2.363 . S
Eu489 O503 2.363 1_455 S
O490 C464 1.283 . S
O490 Eu476 2.363 . S
O491 C465 1.283 . S
O491 Eu476 2.363 . S
O492 C466 1.283 . S
O492 Eu489 2.363 . S
O493 C467 1.283 . S
O493 Eu489 2.363 . S
O494 C468 1.283 . S
O494 Eu479 2.363 . S
O495 C469 1.283 . S
O495 Eu479 2.363 . S
O496 C470 1.283 . S
O496 Eu480 2.363 . S
O497 C471 1.283 . S
O497 Eu480 2.363 . S
O498 C472 1.283 . S
O498 Eu484 2.363 . S
O499 C473 1.283 . S
O499 Eu484 2.363 1_655 S
O500 C474 1.283 . S
O500 Eu483 2.363 . S
O501 C475 1.283 . S
O501 Eu483 2.363 1_655 S
O502 C470 1.283 . S
O502 Eu489 2.363 . S
O503 C468 1.283 . S
O503 Eu489 2.363 1_655 S
O504 C471 1.283 . S
O504 Eu476 2.363 . S
O505 C469 1.283 . S
O505 Eu476 2.363 1_655 S
O506 C465 1.283 . S
O506 Eu484 2.363 . S
O507 C467 1.283 . S
O507 Eu484 2.363 . S
O508 C464 1.283 . S
O508 Eu483 2.363 . S
O509 C466 1.283 . S
O509 Eu483 2.363 . S
O510 C475 1.283 . S
O510 Eu479 2.363 . S
O511 C473 1.283 . S
O511 Eu479 2.363 . S
O512 C474 1.283 . S
O512 Eu480 2.363 . S
O513 C472 1.283 . S
O513 Eu480 2.363 . S
C514 O540 1.283 . S
C514 O558 1.283 . S
C515 O541 1.283 . S
C515 O556 1.283 . S
C516 O542 1.283 . S
C516 O559 1.283 . S
C517 O543 1.283 . S
C517 O557 1.283 . S
C518 O544 1.283 . S
C518 O553 1.283 . S
C519 O545 1.283 . S
C519 O555 1.283 . S
C520 O546 1.283 . S
C520 O552 1.283 . S
C521 O547 1.283 . S
C521 O554 1.283 . S
C522 O548 1.283 . S
C522 O563 1.283 . S
C523 O549 1.283 . S
C523 O561 1.283 . S
C524 O550 1.283 . S
C524 O562 1.283 . S
C525 O551 1.283 . S
C525 O560 1.283 . S
Eu526 O527 2.370 . S
Eu526 O528 2.370 . S
Eu526 O531 2.370 . S
Eu526 O532 2.370 . S
Eu526 O540 2.363 . S
Eu526 O541 2.363 . S
Eu526 O554 2.363 . S
Eu526 O555 2.363 . S
O527 Eu526 2.370 . S
O527 Eu529 2.370 1_565 S
O527 Eu534 2.370 1_565 S
O528 Eu526 2.370 . S
O528 Eu530 2.370 1_565 S
O528 Eu533 2.370 1_565 S
Eu529 O527 2.370 1_545 S
Eu529 O531 2.370 1_545 S
Eu529 O535 2.370 . S
Eu529 O536 2.370 . S
Eu529 O544 2.363 . S
Eu529 O545 2.363 1_545 S
Eu529 O560 2.363 . S
Eu529 O561 2.363 . S
Eu530 O528 2.370 1_545 S
Eu530 O532 2.370 1_545 S
Eu530 O537 2.370 . S
Eu530 O538 2.370 . S
Eu530 O546 2.363 . S
Eu530 O547 2.363 1_545 S
Eu530 O562 2.363 . S
Eu530 O563 2.363 . S
O531 Eu526 2.370 . S
O531 Eu529 2.370 1_565 S
O531 Eu533 2.370 1_565 S
O532 Eu526 2.370 . S
O532 Eu530 2.370 1_565 S
O532 Eu534 2.370 1_565 S
Eu533 O528 2.370 1_545 S
Eu533 O531 2.370 1_545 S
Eu533 O535 2.370 . S
Eu533 O538 2.370 . S
Eu533 O550 2.363 . S
Eu533 O551 2.363 . S
Eu533 O558 2.363 1_545 S
Eu533 O559 2.363 . S
Eu534 O527 2.370 1_545 S
Eu534 O532 2.370 1_545 S
Eu534 O536 2.370 . S
Eu534 O537 2.370 . S
Eu534 O548 2.363 . S
Eu534 O549 2.363 . S
Eu534 O556 2.363 1_545 S
Eu534 O557 2.363 . S
O535 Eu529 2.370 . S
O535 Eu533 2.370 . S
O535 Eu539 2.370 . S
O536 Eu529 2.370 . S
O536 Eu534 2.370 . S
O536 Eu539 2.370 . S
O537 Eu530 2.370 . S
O537 Eu534 2.370 . S
O537 Eu539 2.370 . S
O538 Eu530 2.370 . S
O538 Eu533 2.370 . S
O538 Eu539 2.370 . S
Eu539 O535 2.370 . S
Eu539 O536 2.370 . S
Eu539 O537 2.370 . S
Eu539 O538 2.370 . S
Eu539 O542 2.363 . S
Eu539 O543 2.363 . S
Eu539 O552 2.363 . S
Eu539 O553 2.363 . S
O540 C514 1.283 . S
O540 Eu526 2.363 . S
O541 C515 1.283 . S
O541 Eu526 2.363 . S
O542 C516 1.283 . S
O542 Eu539 2.363 . S
O543 C517 1.283 . S
O543 Eu539 2.363 . S
O544 C518 1.283 . S
O544 Eu529 2.363 . S
O545 C519 1.283 . S
O545 Eu529 2.363 1_565 S
O546 C520 1.283 . S
O546 Eu530 2.363 . S
O547 C521 1.283 . S
O547 Eu530 2.363 1_565 S
O548 C522 1.283 . S
O548 Eu534 2.363 . S
O549 C523 1.283 . S
O549 Eu534 2.363 . S
O550 C524 1.283 . S
O550 Eu533 2.363 . S
O551 C525 1.283 . S
O551 Eu533 2.363 . S
O552 C520 1.283 . S
O552 Eu539 2.363 . S
O553 C518 1.283 . S
O553 Eu539 2.363 . S
O554 C521 1.283 . S
O554 Eu526 2.363 . S
O555 C519 1.283 . S
O555 Eu526 2.363 . S
O556 C515 1.283 . S
O556 Eu534 2.363 1_565 S
O557 C517 1.283 . S
O557 Eu534 2.363 . S
O558 C514 1.283 . S
O558 Eu533 2.363 1_565 S
O559 C516 1.283 . S
O559 Eu533 2.363 . S
O560 C525 1.283 . S
O560 Eu529 2.363 . S
O561 C523 1.283 . S
O561 Eu529 2.363 . S
O562 C524 1.283 . S
O562 Eu530 2.363 . S
O563 C522 1.283 . S
O563 Eu530 2.363 . S
C564 C565 1.387 . S
C564 H568 0.950 . S
C564 C573 1.390 . S
C565 C564 1.387 . S
C565 C567 1.387 . S
H566 C573 0.950 . S
C567 C565 1.387 . S
C567 C569 1.390 . S
C567 H571 0.950 . S
H568 C564 0.950 . S
C569 C567 1.390 . S
C569 C570 1.387 . S
C569 H572 0.950 . S
C570 C569 1.387 . S
C570 C573 1.387 . S
H571 C567 0.950 . S
H572 C569 0.950 . S
C573 C564 1.390 . S
C573 H566 0.950 . S
C573 C570 1.387 . S
C574 C575 1.387 . S
C574 H578 0.950 . S
C574 C583 1.390 . S
C575 C574 1.387 . S
C575 C577 1.387 . S
H576 C583 0.950 . S
C577 C575 1.387 . S
C577 C579 1.390 . S
C577 H581 0.950 . S
H578 C574 0.950 . S
C579 C577 1.390 . S
C579 C580 1.387 . S
C579 H582 0.950 . S
C580 C579 1.387 . S
C580 C583 1.387 . S
H581 C577 0.950 . S
H582 C579 0.950 . S
C583 C574 1.390 . S
C583 H576 0.950 . S
C583 C580 1.387 . S
C584 C585 1.387 . S
C584 H588 0.950 . S
C584 C593 1.390 . S
C585 C584 1.387 . S
C585 C587 1.387 . S
H586 C593 0.950 . S
C587 C585 1.387 . S
C587 C589 1.390 . S
C587 H591 0.950 . S
H588 C584 0.950 . S
C589 C587 1.390 . S
C589 C590 1.387 . S
C589 H592 0.950 . S
C590 C589 1.387 . S
C590 C593 1.387 . S
H591 C587 0.950 . S
H592 C589 0.950 . S
C593 C584 1.390 . S
C593 H586 0.950 . S
C593 C590 1.387 . S
C594 C595 1.387 . S
C594 H598 0.950 . S
C594 C603 1.390 . S
C595 C594 1.387 . S
C595 C597 1.387 . S
H596 C603 0.950 . S
C597 C595 1.387 . S
C597 C599 1.390 . S
C597 H601 0.950 . S
H598 C594 0.950 . S
C599 C597 1.390 . S
C599 C600 1.387 . S
C599 H602 0.950 . S
C600 C599 1.387 . S
C600 C603 1.387 . S
H601 C597 0.950 . S
H602 C599 0.950 . S
C603 C594 1.390 . S
C603 H596 0.950 . S
C603 C600 1.387 . S
C604 C605 1.387 . S
C604 H608 0.950 . S
C604 C613 1.390 . S
C605 C604 1.387 . S
C605 C607 1.387 . S
H606 C613 0.950 . S
C607 C605 1.387 . S
C607 C609 1.390 . S
C607 H611 0.950 . S
H608 C604 0.950 . S
C609 C607 1.390 . S
C609 C610 1.387 . S
C609 H612 0.950 . S
C610 C609 1.387 . S
C610 C613 1.387 . S
H611 C607 0.950 . S
H612 C609 0.950 . S
C613 C604 1.390 . S
C613 H606 0.950 . S
C613 C610 1.387 . S
C614 C615 1.387 . S
C614 H618 0.950 . S
C614 C623 1.390 . S
C615 C614 1.387 . S
C615 C617 1.387 . S
H616 C623 0.950 . S
C617 C615 1.387 . S
C617 C619 1.390 . S
C617 H621 0.950 . S
H618 C614 0.950 . S
C619 C617 1.390 . S
C619 C620 1.387 . S
C619 H622 0.950 . S
C620 C619 1.387 . S
C620 C623 1.387 . S
H621 C617 0.950 . S
H622 C619 0.950 . S
C623 C614 1.390 . S
C623 H616 0.950 . S
C623 C620 1.387 . S
C624 C625 1.387 . S
C624 H628 0.950 . S
C624 C633 1.390 . S
C625 C624 1.387 . S
C625 C627 1.387 . S
H626 C633 0.950 . S
C627 C625 1.387 . S
C627 C629 1.390 . S
C627 H631 0.950 . S
H628 C624 0.950 . S
C629 C627 1.390 . S
C629 C630 1.387 . S
C629 H632 0.950 . S
C630 C629 1.387 . S
C630 C633 1.387 . S
H631 C627 0.950 . S
H632 C629 0.950 . S
C633 C624 1.390 . S
C633 H626 0.950 . S
C633 C630 1.387 . S
C634 C635 1.387 . S
C634 H638 0.950 . S
C634 C643 1.390 . S
C635 C634 1.387 . S
C635 C637 1.387 . S
H636 C643 0.950 . S
C637 C635 1.387 . S
C637 C639 1.390 . S
C637 H641 0.950 . S
H638 C634 0.950 . S
C639 C637 1.390 . S
C639 C640 1.387 . S
C639 H642 0.950 . S
C640 C639 1.387 . S
C640 C643 1.387 . S
H641 C637 0.950 . S
H642 C639 0.950 . S
C643 C634 1.390 . S
C643 H636 0.950 . S
C643 C640 1.387 . S
C644 C645 1.387 . S
C644 H648 0.950 . S
C644 C653 1.390 . S
C645 C644 1.387 . S
C645 C647 1.387 . S
H646 C653 0.950 . S
C647 C645 1.387 . S
C647 C649 1.390 . S
C647 H651 0.950 . S
H648 C644 0.950 . S
C649 C647 1.390 . S
C649 C650 1.387 . S
C649 H652 0.950 . S
C650 C649 1.387 . S
C650 C653 1.387 . S
H651 C647 0.950 . S
H652 C649 0.950 . S
C653 C644 1.390 . S
C653 H646 0.950 . S
C653 C650 1.387 . S
C654 C655 1.387 . S
C654 H658 0.950 . S
C654 C663 1.390 . S
C655 C654 1.387 . S
C655 C657 1.387 . S
H656 C663 0.950 . S
C657 C655 1.387 . S
C657 C659 1.390 . S
C657 H661 0.950 . S
H658 C654 0.950 . S
C659 C657 1.390 . S
C659 C660 1.387 . S
C659 H662 0.950 . S
C660 C659 1.387 . S
C660 C663 1.387 . S
H661 C657 0.950 . S
H662 C659 0.950 . S
C663 C654 1.390 . S
C663 H656 0.950 . S
C663 C660 1.387 . S
C664 C665 1.387 . S
C664 H668 0.950 . S
C664 C673 1.390 . S
C665 C664 1.387 . S
C665 C667 1.387 . S
H666 C673 0.950 . S
C667 C665 1.387 . S
C667 C669 1.390 . S
C667 H671 0.950 . S
H668 C664 0.950 . S
C669 C667 1.390 . S
C669 C670 1.387 . S
C669 H672 0.950 . S
C670 C669 1.387 . S
C670 C673 1.387 . S
H671 C667 0.950 . S
H672 C669 0.950 . S
C673 C664 1.390 . S
C673 H666 0.950 . S
C673 C670 1.387 . S
C674 C675 1.387 . S
C674 H678 0.950 . S
C674 C683 1.390 . S
C675 C674 1.387 . S
C675 C677 1.387 . S
H676 C683 0.950 . S
C677 C675 1.387 . S
C677 C679 1.390 . S
C677 H681 0.950 . S
H678 C674 0.950 . S
C679 C677 1.390 . S
C679 C680 1.387 . S
C679 H682 0.950 . S
C680 C679 1.387 . S
C680 C683 1.387 . S
H681 C677 0.950 . S
H682 C679 0.950 . S
C683 C674 1.390 . S
C683 H676 0.950 . S
C683 C680 1.387 . S
C684 C685 1.387 1_556 S
C684 H688 0.950 . S
C684 C693 1.390 . S
C685 C684 1.387 1_554 S
C685 C687 1.387 . S
H686 C693 0.950 . S
C687 C685 1.387 . S
C687 C689 1.390 . S
C687 H691 0.950 . S
H688 C684 0.950 . S
C689 C687 1.390 . S
C689 C690 1.387 . S
C689 H692 0.950 . S
C690 C689 1.387 . S
C690 C693 1.387 1_554 S
H691 C687 0.950 . S
H692 C689 0.950 . S
C693 C684 1.390 . S
C693 H686 0.950 . S
C693 C690 1.387 1_556 S
C694 C695 1.387 1_556 S
C694 H698 0.950 . S
C694 C703 1.390 . S
C695 C694 1.387 1_554 S
C695 C697 1.387 . S
H696 C703 0.950 . S
C697 C695 1.387 . S
C697 C699 1.390 . S
C697 H701 0.950 . S
H698 C694 0.950 . S
C699 C697 1.390 . S
C699 C700 1.387 . S
C699 H702 0.950 . S
C700 C699 1.387 . S
C700 C703 1.387 1_554 S
H701 C697 0.950 . S
H702 C699 0.950 . S
C703 C694 1.390 . S
C703 H696 0.950 . S
C703 C700 1.387 1_556 S
C704 C705 1.387 . S
C704 H708 0.950 . S
C704 C713 1.390 . S
C705 C704 1.387 . S
C705 C707 1.387 1_554 S
H706 C713 0.950 . S
C707 C705 1.387 1_556 S
C707 C709 1.390 . S
C707 H711 0.950 . S
H708 C704 0.950 . S
C709 C707 1.390 . S
C709 C710 1.387 1_556 S
C709 H712 0.950 . S
C710 C709 1.387 1_554 S
C710 C713 1.387 . S
H711 C707 0.950 . S
H712 C709 0.950 . S
C713 C704 1.390 . S
C713 H706 0.950 . S
C713 C710 1.387 . S
C714 C715 1.387 1_556 S
C714 H718 0.950 . S
C714 C723 1.390 . S
C715 C714 1.387 1_554 S
C715 C717 1.387 . S
H716 C723 0.950 . S
C717 C715 1.387 . S
C717 C719 1.390 . S
C717 H721 0.950 . S
H718 C714 0.950 . S
C719 C717 1.390 . S
C719 C720 1.387 . S
C719 H722 0.950 . S
C720 C719 1.387 . S
C720 C723 1.387 1_554 S
H721 C717 0.950 . S
H722 C719 0.950 . S
C723 C714 1.390 . S
C723 H716 0.950 . S
C723 C720 1.387 1_556 S
C724 C725 1.387 1_655 S
C724 H728 0.950 . S
C724 C733 1.390 . S
C725 C724 1.387 1_455 S
C725 C727 1.387 . S
H726 C733 0.950 . S
C727 C725 1.387 . S
C727 C729 1.390 . S
C727 H731 0.950 . S
H728 C724 0.950 . S
C729 C727 1.390 . S
C729 C730 1.387 . S
C729 H732 0.950 . S
C730 C729 1.387 . S
C730 C733 1.387 1_455 S
H731 C727 0.950 . S
H732 C729 0.950 . S
C733 C724 1.390 . S
C733 H726 0.950 . S
C733 C730 1.387 1_655 S
C734 C735 1.387 1_565 S
C734 H738 0.950 . S
C734 C743 1.390 . S
C735 C734 1.387 1_545 S
C735 C737 1.387 . S
H736 C743 0.950 . S
C737 C735 1.387 . S
C737 C739 1.390 . S
C737 H741 0.950 . S
H738 C734 0.950 . S
C739 C737 1.390 . S
C739 C740 1.387 . S
C739 H742 0.950 . S
C740 C739 1.387 . S
C740 C743 1.387 1_545 S
H741 C737 0.950 . S
H742 C739 0.950 . S
C743 C734 1.390 . S
C743 H736 0.950 . S
C743 C740 1.387 1_565 S
C744 C745 1.387 1_655 S
C744 H748 0.950 . S
C744 C753 1.390 . S
C745 C744 1.387 1_455 S
C745 C747 1.387 . S
H746 C753 0.950 . S
C747 C745 1.387 . S
C747 C749 1.390 . S
C747 H751 0.950 . S
H748 C744 0.950 . S
C749 C747 1.390 . S
C749 C750 1.387 . S
C749 H752 0.950 . S
C750 C749 1.387 . S
C750 C753 1.387 1_455 S
H751 C747 0.950 . S
H752 C749 0.950 . S
C753 C744 1.390 . S
C753 H746 0.950 . S
C753 C750 1.387 1_655 S
C754 C755 1.387 . S
C754 H758 0.950 . S
C754 C763 1.390 . S
C755 C754 1.387 . S
C755 C757 1.387 1_545 S
H756 C763 0.950 . S
C757 C755 1.387 1_565 S
C757 C759 1.390 . S
C757 H761 0.950 . S
H758 C754 0.950 . S
C759 C757 1.390 . S
C759 C760 1.387 1_565 S
C759 H762 0.950 . S
C760 C759 1.387 1_545 S
C760 C763 1.387 . S
H761 C757 0.950 . S
H762 C759 0.950 . S
C763 C754 1.390 . S
C763 H756 0.950 . S
C763 C760 1.387 . S
C764 C765 1.387 . S
C764 H768 0.950 . S
C764 C773 1.390 . S
C765 C764 1.387 . S
C765 C767 1.387 1_455 S
H766 C773 0.950 . S
C767 C765 1.387 1_655 S
C767 C769 1.390 . S
C767 H771 0.950 . S
H768 C764 0.950 . S
C769 C767 1.390 . S
C769 C770 1.387 1_655 S
C769 H772 0.950 . S
C770 C769 1.387 1_455 S
C770 C773 1.387 . S
H771 C767 0.950 . S
H772 C769 0.950 . S
C773 C764 1.390 . S
C773 H766 0.950 . S
C773 C770 1.387 . S
C774 C775 1.387 1_565 S
C774 H778 0.950 . S
C774 C783 1.390 . S
C775 C774 1.387 1_545 S
C775 C777 1.387 . S
H776 C783 0.950 . S
C777 C775 1.387 . S
C777 C779 1.390 . S
C777 H781 0.950 . S
H778 C774 0.950 . S
C779 C777 1.390 . S
C779 C780 1.387 . S
C779 H782 0.950 . S
C780 C779 1.387 . S
C780 C783 1.387 1_545 S
H781 C777 0.950 . S
H782 C779 0.950 . S
C783 C774 1.390 . S
C783 H776 0.950 . S
C783 C780 1.387 1_565 S
C784 C785 1.387 1_655 S
C784 H788 0.950 . S
C784 C793 1.390 . S
C785 C784 1.387 1_455 S
C785 C787 1.387 . S
H786 C793 0.950 . S
C787 C785 1.387 . S
C787 C789 1.390 . S
C787 H791 0.950 . S
H788 C784 0.950 . S
C789 C787 1.390 . S
C789 C790 1.387 . S
C789 H792 0.950 . S
C790 C789 1.387 . S
C790 C793 1.387 1_455 S
H791 C787 0.950 . S
H792 C789 0.950 . S
C793 C784 1.390 . S
C793 H786 0.950 . S
C793 C790 1.387 1_655 S
C794 C795 1.387 1_565 S
C794 H798 0.950 . S
C794 C803 1.390 . S
C795 C794 1.387 1_545 S
C795 C797 1.387 . S
H796 C803 0.950 . S
C797 C795 1.387 . S
C797 C799 1.390 . S
C797 H801 0.950 . S
H798 C794 0.950 . S
C799 C797 1.390 . S
C799 C800 1.387 . S
C799 H802 0.950 . S
C800 C799 1.387 . S
C800 C803 1.387 1_545 S
H801 C797 0.950 . S
H802 C799 0.950 . S
C803 C794 1.390 . S
C803 H796 0.950 . S
C803 C800 1.387 1_565 S
C804 C805 1.387 1_655 S
C804 H808 0.950 . S
C804 C813 1.390 . S
C805 C804 1.387 1_455 S
C805 C807 1.387 . S
H806 C813 0.950 . S
C807 C805 1.387 . S
C807 C809 1.390 . S
C807 H811 0.950 . S
H808 C804 0.950 . S
C809 C807 1.390 . S
C809 C810 1.387 . S
C809 H812 0.950 . S
C810 C809 1.387 . S
C810 C813 1.387 1_455 S
H811 C807 0.950 . S
H812 C809 0.950 . S
C813 C804 1.390 . S
C813 H806 0.950 . S
C813 C810 1.387 1_655 S
C814 C815 1.387 1_565 S
C814 H818 0.950 . S
C814 C823 1.390 . S
C815 C814 1.387 1_545 S
C815 C817 1.387 . S
H816 C823 0.950 . S
C817 C815 1.387 . S
C817 C819 1.390 . S
C817 H821 0.950 . S
H818 C814 0.950 . S
C819 C817 1.390 . S
C819 C820 1.388 . S
C819 H822 0.950 . S
C820 C819 1.388 . S
C820 C823 1.387 1_545 S
H821 C817 0.950 . S
H822 C819 0.950 . S
C823 C814 1.390 . S
C823 H816 0.950 . S
C823 C820 1.387 1_565 S
C824 C825 1.387 1_655 S
C824 H828 0.950 . S
C824 C833 1.390 . S
C825 C824 1.387 1_455 S
C825 C827 1.387 . S
H826 C833 0.950 . S
C827 C825 1.387 . S
C827 C829 1.390 . S
C827 H831 0.950 . S
H828 C824 0.950 . S
C829 C827 1.390 . S
C829 C830 1.387 . S
C829 H832 0.950 . S
C830 C829 1.387 . S
C830 C833 1.387 1_455 S
H831 C827 0.950 . S
H832 C829 0.950 . S
C833 C824 1.390 . S
C833 H826 0.950 . S
C833 C830 1.387 1_655 S
C834 C835 1.387 1_565 S
C834 H838 0.950 . S
C834 C843 1.390 . S
C835 C834 1.387 1_545 S
C835 C837 1.387 . S
H836 C843 0.950 . S
C837 C835 1.387 . S
C837 C839 1.390 . S
C837 H841 0.950 . S
H838 C834 0.950 . S
C839 C837 1.390 . S
C839 C840 1.388 . S
C839 H842 0.950 . S
C840 C839 1.388 . S
C840 C843 1.387 1_545 S
H841 C837 0.950 . S
H842 C839 0.950 . S
C843 C834 1.390 . S
C843 H836 0.950 . S
C843 C840 1.387 1_565 S
C844 C845 1.387 . S
C844 H848 0.950 . S
C844 C853 1.390 . S
C845 C844 1.387 . S
C845 C847 1.387 1_455 S
H846 C853 0.950 . S
C847 C845 1.387 1_655 S
C847 C849 1.390 . S
C847 H851 0.950 . S
H848 C844 0.950 . S
C849 C847 1.390 . S
C849 C850 1.387 1_655 S
C849 H852 0.950 . S
C850 C849 1.387 1_455 S
C850 C853 1.387 . S
H851 C847 0.950 . S
H852 C849 0.950 . S
C853 C844 1.390 . S
C853 H846 0.950 . S
C853 C850 1.387 . S
C854 C855 1.387 . S
C854 H858 0.950 . S
C854 C863 1.390 . S
C855 C854 1.387 . S
C855 C857 1.387 1_545 S
H856 C863 0.950 . S
C857 C855 1.387 1_565 S
C857 C859 1.390 . S
C857 H861 0.950 . S
H858 C854 0.950 . S
C859 C857 1.390 . S
C859 C860 1.387 1_565 S
C859 H862 0.950 . S
C860 C859 1.387 1_545 S
C860 C863 1.387 . S
H861 C857 0.950 . S
H862 C859 0.950 . S
C863 C854 1.390 . S
C863 H856 0.950 . S
C863 C860 1.387 . S
C864 C865 1.387 . S
C864 H868 0.950 . S
C864 C873 1.390 . S
C865 C864 1.387 . S
C865 C867 1.387 1_455 S
H866 C873 0.950 . S
C867 C865 1.387 1_655 S
C867 C869 1.390 . S
C867 H871 0.950 . S
H868 C864 0.950 . S
C869 C867 1.390 . S
C869 C870 1.387 1_655 S
C869 H872 0.950 . S
C870 C869 1.387 1_455 S
C870 C873 1.387 . S
H871 C867 0.950 . S
H872 C869 0.950 . S
C873 C864 1.390 . S
C873 H866 0.950 . S
C873 C870 1.387 . S
C874 C875 1.387 1_565 S
C874 H878 0.950 . S
C874 C883 1.390 . S
C875 C874 1.387 1_545 S
C875 C877 1.387 . S
H876 C883 0.950 . S
C877 C875 1.387 . S
C877 C879 1.390 . S
C877 H881 0.950 . S
H878 C874 0.950 . S
C879 C877 1.390 . S
C879 C880 1.387 . S
C879 H882 0.950 . S
C880 C879 1.387 . S
C880 C883 1.387 1_545 S
H881 C877 0.950 . S
H882 C879 0.950 . S
C883 C874 1.390 . S
C883 H876 0.950 . S
C883 C880 1.387 1_565 S
C884 C885 1.387 1_565 S
C884 H888 0.950 . S
C884 C893 1.390 . S
C885 C884 1.387 1_545 S
C885 C887 1.388 . S
H886 C893 0.950 . S
C887 C885 1.388 . S
C887 C889 1.390 . S
C887 H891 0.950 . S
H888 C884 0.950 . S
C889 C887 1.390 . S
C889 C890 1.387 . S
C889 H892 0.950 . S
C890 C889 1.387 . S
C890 C893 1.387 1_545 S
H891 C887 0.950 . S
H892 C889 0.950 . S
C893 C884 1.390 . S
C893 H886 0.950 . S
C893 C890 1.387 1_565 S
C894 C895 1.387 1_655 S
C894 H898 0.950 . S
C894 C903 1.390 . S
C895 C894 1.387 1_455 S
C895 C897 1.387 . S
H896 C903 0.950 . S
C897 C895 1.387 . S
C897 C899 1.390 . S
C897 H901 0.950 . S
H898 C894 0.950 . S
C899 C897 1.390 . S
C899 C900 1.387 . S
C899 H902 0.950 . S
C900 C899 1.387 . S
C900 C903 1.387 1_455 S
H901 C897 0.950 . S
H902 C899 0.950 . S
C903 C894 1.390 . S
C903 H896 0.950 . S
C903 C900 1.387 1_655 S
C904 C905 1.387 1_565 S
C904 H908 0.950 . S
C904 C913 1.390 . S
C905 C904 1.387 1_545 S
C905 C907 1.388 . S
H906 C913 0.950 . S
C907 C905 1.388 . S
C907 C909 1.390 . S
C907 H911 0.950 . S
H908 C904 0.950 . S
C909 C907 1.390 . S
C909 C910 1.387 . S
C909 H912 0.950 . S
C910 C909 1.387 . S
C910 C913 1.387 1_545 S
H911 C907 0.950 . S
H912 C909 0.950 . S
C913 C904 1.390 . S
C913 H906 0.950 . S
C913 C910 1.387 1_565 S
C914 C915 1.387 1_655 S
C914 H918 0.950 . S
C914 C923 1.390 . S
C915 C914 1.387 1_455 S
C915 C917 1.387 . S
H916 C923 0.950 . S
C917 C915 1.387 . S
C917 C919 1.390 . S
C917 H921 0.950 . S
H918 C914 0.950 . S
C919 C917 1.390 . S
C919 C920 1.387 . S
C919 H922 0.950 . S
C920 C919 1.387 . S
C920 C923 1.387 1_455 S
H921 C917 0.950 . S
H922 C919 0.950 . S
C923 C914 1.390 . S
C923 H916 0.950 . S
C923 C920 1.387 1_655 S
C924 C925 1.387 . S
C924 H928 0.950 . S
C924 C933 1.390 . S
C925 C924 1.387 . S
C925 C927 1.388 1_545 S
H926 C933 0.950 . S
C927 C925 1.388 1_565 S
C927 C929 1.390 . S
C927 H931 0.950 . S
H928 C924 0.950 . S
C929 C927 1.390 . S
C929 C930 1.388 1_565 S
C929 H932 0.950 . S
C930 C929 1.388 1_545 S
C930 C933 1.387 . S
H931 C927 0.950 . S
H932 C929 0.950 . S
C933 C924 1.390 . S
C933 H926 0.950 . S
C933 C930 1.387 . S
C934 C935 1.387 . S
C934 H938 0.950 . S
C934 C943 1.390 . S
C935 C934 1.387 . S
C935 C937 1.387 1_455 S
H936 C943 0.950 . S
C937 C935 1.387 1_655 S
C937 C939 1.390 . S
C937 H941 0.950 . S
H938 C934 0.950 . S
C939 C937 1.390 . S
C939 C940 1.387 1_655 S
C939 H942 0.950 . S
C940 C939 1.387 1_455 S
C940 C943 1.387 . S
H941 C937 0.950 . S
H942 C939 0.950 . S
C943 C934 1.390 . S
C943 H936 0.950 . S
C943 C940 1.387 . S
C944 C945 1.388 . S
C944 H948 0.950 . S
C944 C953 1.390 . S
C945 C944 1.388 . S
C945 C947 1.387 1_545 S
H946 C953 0.950 . S
C947 C945 1.387 1_565 S
C947 C949 1.390 . S
C947 H951 0.950 . S
H948 C944 0.950 . S
C949 C947 1.390 . S
C949 C950 1.387 1_565 S
C949 H952 0.950 . S
C950 C949 1.387 1_545 S
C950 C953 1.387 . S
H951 C947 0.950 . S
H952 C949 0.950 . S
C953 C944 1.390 . S
C953 H946 0.950 . S
C953 C950 1.387 . S
C954 C955 1.387 . S
C954 H958 0.950 . S
C954 C963 1.390 . S
C955 C954 1.387 . S
C955 C957 1.387 1_455 S
H956 C963 0.950 . S
C957 C955 1.387 1_655 S
C957 C959 1.390 . S
C957 H961 0.950 . S
H958 C954 0.950 . S
C959 C957 1.390 . S
C959 C960 1.387 1_655 S
C959 H962 0.950 . S
C960 C959 1.387 1_455 S
C960 C963 1.387 . S
H961 C957 0.950 . S
H962 C959 0.950 . S
C963 C954 1.390 . S
C963 H956 0.950 . S
C963 C960 1.387 . S
C964 C965 1.387 1_556 S
C964 H968 0.950 . S
C964 C973 1.390 . S
C965 C964 1.387 1_554 S
C965 C967 1.387 . S
H966 C973 0.950 . S
C967 C965 1.387 . S
C967 C969 1.390 . S
C967 H971 0.950 . S
H968 C964 0.950 . S
C969 C967 1.390 . S
C969 C970 1.387 . S
C969 H972 0.950 . S
C970 C969 1.387 . S
C970 C973 1.387 1_554 S
H971 C967 0.950 . S
H972 C969 0.950 . S
C973 C964 1.390 . S
C973 H966 0.950 . S
C973 C970 1.387 1_556 S
C974 C975 1.387 . S
C974 H978 0.950 . S
C974 C983 1.390 . S
C975 C974 1.387 . S
C975 C977 1.387 1_554 S
H976 C983 0.950 . S
C977 C975 1.387 1_556 S
C977 C979 1.390 . S
C977 H981 0.950 . S
H978 C974 0.950 . S
C979 C977 1.390 . S
C979 C980 1.387 1_556 S
C979 H982 0.950 . S
C980 C979 1.387 1_554 S
C980 C983 1.387 . S
H981 C977 0.950 . S
H982 C979 0.950 . S
C983 C974 1.390 . S
C983 H976 0.950 . S
C983 C980 1.387 . S
C984 C985 1.387 1_556 S
C984 H988 0.950 . S
C984 C993 1.390 . S
C985 C984 1.387 1_554 S
C985 C987 1.387 . S
H986 C993 0.950 . S
C987 C985 1.387 . S
C987 C989 1.390 . S
C987 H991 0.950 . S
H988 C984 0.950 . S
C989 C987 1.390 . S
C989 C990 1.387 . S
C989 H992 0.950 . S
C990 C989 1.387 . S
C990 C993 1.387 1_554 S
H991 C987 0.950 . S
H992 C989 0.950 . S
C993 C984 1.390 . S
C993 H986 0.950 . S
C993 C990 1.387 1_556 S
C994 C995 1.387 1_556 S
C994 H998 0.950 . S
C994 C1003 1.390 . S
C995 C994 1.387 1_554 S
C995 C997 1.387 . S
H996 C1003 0.950 . S
C997 C995 1.387 . S
C997 C999 1.390 . S
C997 H1001 0.950 . S
H998 C994 0.950 . S
C999 C997 1.390 . S
C999 C1000 1.387 . S
C999 H1002 0.950 . S
C1000 C999 1.387 . S
C1000 C1003 1.387 1_554 S
H1001 C997 0.950 . S
H1002 C999 0.950 . S
C1003 C994 1.390 . S
C1003 H996 0.950 . S
C1003 C1000 1.387 1_556 S
C1004 C1005 1.387 1_556 S
C1004 H1008 0.950 . S
C1004 C1013 1.390 . S
C1005 C1004 1.387 1_554 S
C1005 C1007 1.387 . S
H1006 C1013 0.950 . S
C1007 C1005 1.387 . S
C1007 C1009 1.390 . S
C1007 H1011 0.950 . S
H1008 C1004 0.950 . S
C1009 C1007 1.390 . S
C1009 C1010 1.387 . S
C1009 H1012 0.950 . S
C1010 C1009 1.387 . S
C1010 C1013 1.387 1_554 S
H1011 C1007 0.950 . S
H1012 C1009 0.950 . S
C1013 C1004 1.390 . S
C1013 H1006 0.950 . S
C1013 C1010 1.387 1_556 S
C1014 C1015 1.387 . S
C1014 H1018 0.950 . S
C1014 C1023 1.390 . S
C1015 C1014 1.387 . S
C1015 C1017 1.387 1_554 S
H1016 C1023 0.950 . S
C1017 C1015 1.387 1_556 S
C1017 C1019 1.390 . S
C1017 H1021 0.950 . S
H1018 C1014 0.950 . S
C1019 C1017 1.390 . S
C1019 C1020 1.387 1_556 S
C1019 H1022 0.950 . S
C1020 C1019 1.387 1_554 S
C1020 C1023 1.387 . S
H1021 C1017 0.950 . S
H1022 C1019 0.950 . S
C1023 C1014 1.390 . S
C1023 H1016 0.950 . S
C1023 C1020 1.387 . S
C1024 C1025 1.387 1_556 S
C1024 H1028 0.950 . S
C1024 C1033 1.390 . S
C1025 C1024 1.387 1_554 S
C1025 C1027 1.387 . S
H1026 C1033 0.950 . S
C1027 C1025 1.387 . S
C1027 C1029 1.390 . S
C1027 H1031 0.950 . S
H1028 C1024 0.950 . S
C1029 C1027 1.390 . S
C1029 C1030 1.387 . S
C1029 H1032 0.950 . S
C1030 C1029 1.387 . S
C1030 C1033 1.387 1_554 S
H1031 C1027 0.950 . S
H1032 C1029 0.950 . S
C1033 C1024 1.390 . S
C1033 H1026 0.950 . S
C1033 C1030 1.387 1_556 S
C1034 C1035 1.387 . S
C1034 H1038 0.950 . S
C1034 C1043 1.390 . S
C1035 C1034 1.387 . S
C1035 C1037 1.387 1_554 S
H1036 C1043 0.950 . S
C1037 C1035 1.387 1_556 S
C1037 C1039 1.390 . S
C1037 H1041 0.950 . S
H1038 C1034 0.950 . S
C1039 C1037 1.390 . S
C1039 C1040 1.387 1_556 S
C1039 H1042 0.950 . S
C1040 C1039 1.387 1_554 S
C1040 C1043 1.387 . S
H1041 C1037 0.950 . S
H1042 C1039 0.950 . S
C1043 C1034 1.390 . S
C1043 H1036 0.950 . S
C1043 C1040 1.387 . S
C1044 C1045 1.387 . S
C1044 H1048 0.950 . S
C1044 C1053 1.390 . S
C1045 C1044 1.387 . S
C1045 C1047 1.387 . S
H1046 C1053 0.950 . S
C1047 C1045 1.387 . S
C1047 C1049 1.390 . S
C1047 H1051 0.950 . S
H1048 C1044 0.950 . S
C1049 C1047 1.390 . S
C1049 C1050 1.387 . S
C1049 H1052 0.950 . S
C1050 C1049 1.387 . S
C1050 C1053 1.387 . S
H1051 C1047 0.950 . S
H1052 C1049 0.950 . S
C1053 C1044 1.390 . S
C1053 H1046 0.950 . S
C1053 C1050 1.387 . S
C1054 C1055 1.387 . S
C1054 H1058 0.950 . S
C1054 C1063 1.390 . S
C1055 C1054 1.387 . S
C1055 C1057 1.387 . S
H1056 C1063 0.950 . S
C1057 C1055 1.387 . S
C1057 C1059 1.390 . S
C1057 H1061 0.950 . S
H1058 C1054 0.950 . S
C1059 C1057 1.390 . S
C1059 C1060 1.387 . S
C1059 H1062 0.950 . S
C1060 C1059 1.387 . S
C1060 C1063 1.387 . S
H1061 C1057 0.950 . S
H1062 C1059 0.950 . S
C1063 C1054 1.390 . S
C1063 H1056 0.950 . S
C1063 C1060 1.387 . S
C1064 C1065 1.387 . S
C1064 H1068 0.950 . S
C1064 C1073 1.390 . S
C1065 C1064 1.387 . S
C1065 C1067 1.387 . S
H1066 C1073 0.950 . S
C1067 C1065 1.387 . S
C1067 C1069 1.390 . S
C1067 H1071 0.950 . S
H1068 C1064 0.950 . S
C1069 C1067 1.390 . S
C1069 C1070 1.387 . S
C1069 H1072 0.950 . S
C1070 C1069 1.387 . S
C1070 C1073 1.387 . S
H1071 C1067 0.950 . S
H1072 C1069 0.950 . S
C1073 C1064 1.390 . S
C1073 H1066 0.950 . S
C1073 C1070 1.387 . S
C1074 C1075 1.387 . S
C1074 H1078 0.950 . S
C1074 C1083 1.390 . S
C1075 C1074 1.387 . S
C1075 C1077 1.387 . S
H1076 C1083 0.950 . S
C1077 C1075 1.387 . S
C1077 C1079 1.390 . S
C1077 H1081 0.950 . S
H1078 C1074 0.950 . S
C1079 C1077 1.390 . S
C1079 C1080 1.387 . S
C1079 H1082 0.950 . S
C1080 C1079 1.387 . S
C1080 C1083 1.387 . S
H1081 C1077 0.950 . S
H1082 C1079 0.950 . S
C1083 C1074 1.390 . S
C1083 H1076 0.950 . S
C1083 C1080 1.387 . S
C1084 C1085 1.387 . S
C1084 H1088 0.950 . S
C1084 C1093 1.390 . S
C1085 C1084 1.387 . S
C1085 C1087 1.387 . S
H1086 C1093 0.950 . S
C1087 C1085 1.387 . S
C1087 C1089 1.390 . S
C1087 H1091 0.950 . S
H1088 C1084 0.950 . S
C1089 C1087 1.390 . S
C1089 C1090 1.387 . S
C1089 H1092 0.950 . S
C1090 C1089 1.387 . S
C1090 C1093 1.387 . S
H1091 C1087 0.950 . S
H1092 C1089 0.950 . S
C1093 C1084 1.390 . S
C1093 H1086 0.950 . S
C1093 C1090 1.387 . S
C1094 C1095 1.387 . S
C1094 H1098 0.950 . S
C1094 C1103 1.390 . S
C1095 C1094 1.387 . S
C1095 C1097 1.387 . S
H1096 C1103 0.950 . S
C1097 C1095 1.387 . S
C1097 C1099 1.390 . S
C1097 H1101 0.950 . S
H1098 C1094 0.950 . S
C1099 C1097 1.390 . S
C1099 C1100 1.387 . S
C1099 H1102 0.950 . S
C1100 C1099 1.387 . S
C1100 C1103 1.387 . S
H1101 C1097 0.950 . S
H1102 C1099 0.950 . S
C1103 C1094 1.390 . S
C1103 H1096 0.950 . S
C1103 C1100 1.387 . S
C1104 C1105 1.387 . S
C1104 H1108 0.950 . S
C1104 C1113 1.390 . S
C1105 C1104 1.387 . S
C1105 C1107 1.387 . S
H1106 C1113 0.950 . S
C1107 C1105 1.387 . S
C1107 C1109 1.390 . S
C1107 H1111 0.950 . S
H1108 C1104 0.950 . S
C1109 C1107 1.390 . S
C1109 C1110 1.387 . S
C1109 H1112 0.950 . S
C1110 C1109 1.387 . S
C1110 C1113 1.387 . S
H1111 C1107 0.950 . S
H1112 C1109 0.950 . S
C1113 C1104 1.390 . S
C1113 H1106 0.950 . S
C1113 C1110 1.387 . S
C1114 C1115 1.387 . S
C1114 H1118 0.950 . S
C1114 C1123 1.390 . S
C1115 C1114 1.387 . S
C1115 C1117 1.387 . S
H1116 C1123 0.950 . S
C1117 C1115 1.387 . S
C1117 C1119 1.390 . S
C1117 H1121 0.950 . S
H1118 C1114 0.950 . S
C1119 C1117 1.390 . S
C1119 C1120 1.387 . S
C1119 H1122 0.950 . S
C1120 C1119 1.387 . S
C1120 C1123 1.387 . S
H1121 C1117 0.950 . S
H1122 C1119 0.950 . S
C1123 C1114 1.390 . S
C1123 H1116 0.950 . S
C1123 C1120 1.387 . S
C1124 C1125 1.387 . S
C1124 H1128 0.950 . S
C1124 C1133 1.390 . S
C1125 C1124 1.387 . S
C1125 C1127 1.387 . S
H1126 C1133 0.950 . S
C1127 C1125 1.387 . S
C1127 C1129 1.390 . S
C1127 H1131 0.950 . S
H1128 C1124 0.950 . S
C1129 C1127 1.390 . S
C1129 C1130 1.387 . S
C1129 H1132 0.950 . S
C1130 C1129 1.387 . S
C1130 C1133 1.387 . S
H1131 C1127 0.950 . S
H1132 C1129 0.950 . S
C1133 C1124 1.390 . S
C1133 H1126 0.950 . S
C1133 C1130 1.387 . S
C1134 C1135 1.387 . S
C1134 H1138 0.950 . S
C1134 C1143 1.390 . S
C1135 C1134 1.387 . S
C1135 C1137 1.387 . S
H1136 C1143 0.950 . S
C1137 C1135 1.387 . S
C1137 C1139 1.390 . S
C1137 H1141 0.950 . S
H1138 C1134 0.950 . S
C1139 C1137 1.390 . S
C1139 C1140 1.387 . S
C1139 H1142 0.950 . S
C1140 C1139 1.387 . S
C1140 C1143 1.387 . S
H1141 C1137 0.950 . S
H1142 C1139 0.950 . S
C1143 C1134 1.390 . S
C1143 H1136 0.950 . S
C1143 C1140 1.387 . S
C1144 C1145 1.387 . S
C1144 H1148 0.950 . S
C1144 C1153 1.390 . S
C1145 C1144 1.387 . S
C1145 C1147 1.387 . S
H1146 C1153 0.950 . S
C1147 C1145 1.387 . S
C1147 C1149 1.390 . S
C1147 H1151 0.950 . S
H1148 C1144 0.950 . S
C1149 C1147 1.390 . S
C1149 C1150 1.387 . S
C1149 H1152 0.950 . S
C1150 C1149 1.387 . S
C1150 C1153 1.387 . S
H1151 C1147 0.950 . S
H1152 C1149 0.950 . S
C1153 C1144 1.390 . S
C1153 H1146 0.950 . S
C1153 C1150 1.387 . S
C1154 C1155 1.387 . S
C1154 H1158 0.950 . S
C1154 C1163 1.390 . S
C1155 C1154 1.387 . S
C1155 C1157 1.387 . S
H1156 C1163 0.950 . S
C1157 C1155 1.387 . S
C1157 C1159 1.390 . S
C1157 H1161 0.950 . S
H1158 C1154 0.950 . S
C1159 C1157 1.390 . S
C1159 C1160 1.387 . S
C1159 H1162 0.950 . S
C1160 C1159 1.387 . S
C1160 C1163 1.387 . S
H1161 C1157 0.950 . S
H1162 C1159 0.950 . S
C1163 C1154 1.390 . S
C1163 H1156 0.950 . S
C1163 C1160 1.387 . S
C1164 C1165 1.387 . S
C1164 H1168 0.950 . S
C1164 C1173 1.390 . S
C1165 C1164 1.387 . S
C1165 C1167 1.387 . S
H1166 C1173 0.950 . S
C1167 C1165 1.387 . S
C1167 C1169 1.390 . S
C1167 H1171 0.950 . S
H1168 C1164 0.950 . S
C1169 C1167 1.390 . S
C1169 C1170 1.387 . S
C1169 H1172 0.950 . S
C1170 C1169 1.387 . S
C1170 C1173 1.387 . S
H1171 C1167 0.950 . S
H1172 C1169 0.950 . S
C1173 C1164 1.390 . S
C1173 H1166 0.950 . S
C1173 C1170 1.387 . S
C1174 C1175 1.387 . S
C1174 H1178 0.950 . S
C1174 C1183 1.390 . S
C1175 C1174 1.387 . S
C1175 C1177 1.387 . S
H1176 C1183 0.950 . S
C1177 C1175 1.387 . S
C1177 C1179 1.390 . S
C1177 H1181 0.950 . S
H1178 C1174 0.950 . S
C1179 C1177 1.390 . S
C1179 C1180 1.387 . S
C1179 H1182 0.950 . S
C1180 C1179 1.387 . S
C1180 C1183 1.387 . S
H1181 C1177 0.950 . S
H1182 C1179 0.950 . S
C1183 C1174 1.390 . S
C1183 H1176 0.950 . S
C1183 C1180 1.387 . S
C1184 C1185 1.387 . S
C1184 H1188 0.950 . S
C1184 C1193 1.390 . S
C1185 C1184 1.387 . S
C1185 C1187 1.387 . S
H1186 C1193 0.950 . S
C1187 C1185 1.387 . S
C1187 C1189 1.390 . S
C1187 H1191 0.950 . S
H1188 C1184 0.950 . S
C1189 C1187 1.390 . S
C1189 C1190 1.387 . S
C1189 H1192 0.950 . S
C1190 C1189 1.387 . S
C1190 C1193 1.387 . S
H1191 C1187 0.950 . S
H1192 C1189 0.950 . S
C1193 C1184 1.390 . S
C1193 H1186 0.950 . S
C1193 C1190 1.387 . S
C1194 C1195 1.387 . S
C1194 H1198 0.950 . S
C1194 C1203 1.390 . S
C1195 C1194 1.387 . S
C1195 C1197 1.387 . S
H1196 C1203 0.950 . S
C1197 C1195 1.387 . S
C1197 C1199 1.390 . S
C1197 H1201 0.950 . S
H1198 C1194 0.950 . S
C1199 C1197 1.390 . S
C1199 C1200 1.387 . S
C1199 H1202 0.950 . S
C1200 C1199 1.387 . S
C1200 C1203 1.387 . S
H1201 C1197 0.950 . S
H1202 C1199 0.950 . S
C1203 C1194 1.390 . S
C1203 H1196 0.950 . S
C1203 C1200 1.387 . S
C1204 C1205 1.387 . S
C1204 H1208 0.950 . S
C1204 C1213 1.390 . S
C1205 C1204 1.387 . S
C1205 C1207 1.387 . S
H1206 C1213 0.950 . S
C1207 C1205 1.387 . S
C1207 C1209 1.390 . S
C1207 H1211 0.950 . S
H1208 C1204 0.950 . S
C1209 C1207 1.390 . S
C1209 C1210 1.387 . S
C1209 H1212 0.950 . S
C1210 C1209 1.387 . S
C1210 C1213 1.387 . S
H1211 C1207 0.950 . S
H1212 C1209 0.950 . S
C1213 C1204 1.390 . S
C1213 H1206 0.950 . S
C1213 C1210 1.387 . S
C1214 C1215 1.387 . S
C1214 H1218 0.950 . S
C1214 C1223 1.390 . S
C1215 C1214 1.387 . S
C1215 C1217 1.387 . S
H1216 C1223 0.950 . S
C1217 C1215 1.387 . S
C1217 C1219 1.390 . S
C1217 H1221 0.950 . S
H1218 C1214 0.950 . S
C1219 C1217 1.390 . S
C1219 C1220 1.387 . S
C1219 H1222 0.950 . S
C1220 C1219 1.387 . S
C1220 C1223 1.387 . S
H1221 C1217 0.950 . S
H1222 C1219 0.950 . S
C1223 C1214 1.390 . S
C1223 H1216 0.950 . S
C1223 C1220 1.387 . S
C1224 C1225 1.387 . S
C1224 H1228 0.950 . S
C1224 C1233 1.390 . S
C1225 C1224 1.387 . S
C1225 C1227 1.387 . S
H1226 C1233 0.950 . S
C1227 C1225 1.387 . S
C1227 C1229 1.390 . S
C1227 H1231 0.950 . S
H1228 C1224 0.950 . S
C1229 C1227 1.390 . S
C1229 C1230 1.387 . S
C1229 H1232 0.950 . S
C1230 C1229 1.387 . S
C1230 C1233 1.387 . S
H1231 C1227 0.950 . S
H1232 C1229 0.950 . S
C1233 C1224 1.390 . S
C1233 H1226 0.950 . S
C1233 C1230 1.387 . S
C1234 C1235 1.387 . S
C1234 H1238 0.950 . S
C1234 C1243 1.390 . S
C1235 C1234 1.387 . S
C1235 C1237 1.387 . S
H1236 C1243 0.950 . S
C1237 C1235 1.387 . S
C1237 C1239 1.390 . S
C1237 H1241 0.950 . S
H1238 C1234 0.950 . S
C1239 C1237 1.390 . S
C1239 C1240 1.387 . S
C1239 H1242 0.950 . S
C1240 C1239 1.387 . S
C1240 C1243 1.387 . S
H1241 C1237 0.950 . S
H1242 C1239 0.950 . S
C1243 C1234 1.390 . S
C1243 H1236 0.950 . S
C1243 C1240 1.387 . S
C1244 C1245 1.387 . S
C1244 H1248 0.950 . S
C1244 C1253 1.390 . S
C1245 C1244 1.387 . S
C1245 C1247 1.387 . S
H1246 C1253 0.950 . S
C1247 C1245 1.387 . S
C1247 C1249 1.390 . S
C1247 H1251 0.950 . S
H1248 C1244 0.950 . S
C1249 C1247 1.390 . S
C1249 C1250 1.387 . S
C1249 H1252 0.950 . S
C1250 C1249 1.387 . S
C1250 C1253 1.387 . S
H1251 C1247 0.950 . S
H1252 C1249 0.950 . S
C1253 C1244 1.390 . S
C1253 H1246 0.950 . S
C1253 C1250 1.387 . S
C1254 C1255 1.387 . S
C1254 H1258 0.950 . S
C1254 C1263 1.390 . S
C1255 C1254 1.387 . S
C1255 C1257 1.387 . S
H1256 C1263 0.950 . S
C1257 C1255 1.387 . S
C1257 C1259 1.390 . S
C1257 H1261 0.950 . S
H1258 C1254 0.950 . S
C1259 C1257 1.390 . S
C1259 C1260 1.387 . S
C1259 H1262 0.950 . S
C1260 C1259 1.387 . S
C1260 C1263 1.387 . S
H1261 C1257 0.950 . S
H1262 C1259 0.950 . S
C1263 C1254 1.390 . S
C1263 H1256 0.950 . S
C1263 C1260 1.387 . S
C1264 C1265 1.387 . S
C1264 H1268 0.950 . S
C1264 C1273 1.390 . S
C1265 C1264 1.387 . S
C1265 C1267 1.387 . S
H1266 C1273 0.950 . S
C1267 C1265 1.387 . S
C1267 C1269 1.390 . S
C1267 H1271 0.950 . S
H1268 C1264 0.950 . S
C1269 C1267 1.390 . S
C1269 C1270 1.387 . S
C1269 H1272 0.950 . S
C1270 C1269 1.387 . S
C1270 C1273 1.387 . S
H1271 C1267 0.950 . S
H1272 C1269 0.950 . S
C1273 C1264 1.390 . S
C1273 H1266 0.950 . S
C1273 C1270 1.387 . S
C1274 C1275 1.387 . S
C1274 H1278 0.950 . S
C1274 C1283 1.390 . S
C1275 C1274 1.387 . S
C1275 C1277 1.387 . S
H1276 C1283 0.950 . S
C1277 C1275 1.387 . S
C1277 C1279 1.390 . S
C1277 H1281 0.950 . S
H1278 C1274 0.950 . S
C1279 C1277 1.390 . S
C1279 C1280 1.387 . S
C1279 H1282 0.950 . S
C1280 C1279 1.387 . S
C1280 C1283 1.387 . S
H1281 C1277 0.950 . S
H1282 C1279 0.950 . S
C1283 C1274 1.390 . S
C1283 H1276 0.950 . S
C1283 C1280 1.387 . S
C570 C270 1.673 . S
C565 C260 1.592 . S
C575 C238 1.597 . S
C580 C268 1.674 . S
C590 C269 1.674 . S
C585 C227 1.604 . S
C595 C249 1.597 . S
C600 C271 1.673 . S
C610 C315 1.720 . S
C605 C183 1.634 . S
C620 C375 1.634 . S
C615 C194 1.552 . S
C625 C205 1.636 . S
C630 C314 1.720 . S
C640 C374 1.634 . S
C635 C216 1.547 . S
C645 C139 1.639 . S
C650 C316 1.726 . S
C660 C372 1.634 . S
C655 C150 1.556 . S
C665 C161 1.639 . S
C670 C317 1.721 . S
C675 C172 1.553 . S
C680 C373 1.639 . S
C690 C423 1.673 . S
C685 C128 1.597 . S
C695 C106 1.599 1_554 S
C700 C422 1.674 . S
C705 C95 1.599 . S
C710 C424 1.674 . S
C720 C425 1.674 . S
C715 C117 1.599 1_554 S
C725 C51 1.639 1_455 S
C730 C466 1.720 . S
C735 C62 1.553 . S
C740 C525 1.634 . S
C745 C73 1.636 . S
C750 C464 1.720 . S
C755 C84 1.553 1_545 S
C760 C524 1.634 . S
C770 C465 1.720 . S
C765 C7 1.636 1_455 S
C780 C522 1.634 . S
C775 C18 1.553 . S
C785 C29 1.636 . S
C790 C467 1.720 . S
C800 C523 1.634 . S
C795 C40 1.555 1_545 S
C810 C267 1.556 . S
C805 C8 1.461 1_455 S
C815 C16 1.153 . S
C820 C273 1.411 . S
C825 C30 1.468 . S
C830 C265 1.559 . S
C835 C38 1.157 1_545 S
C840 C272 1.407 . S
C845 C52 1.468 1_455 S
C850 C264 1.559 . S
C860 C274 1.410 . S
C855 C60 1.154 . S
C865 C74 1.464 . S
C870 C266 1.553 . S
C880 C275 1.410 . S
C875 C82 1.159 1_545 S
C890 C321 1.394 . S
C885 C41 1.298 1_545 S
C895 C5 1.317 1_455 S
C900 C364 1.590 . S
C910 C319 1.395 . S
C905 C19 1.302 . S
C920 C366 1.592 . S
C915 C27 1.311 . S
C925 C63 1.301 . S
C930 C320 1.396 . S
C940 C365 1.592 . S
C935 C71 1.320 . S
C950 C318 1.395 . S
C945 C85 1.309 1_545 S
C960 C367 1.592 . S
C955 C49 1.317 1_455 S
C970 C371 1.471 . S
C965 C93 1.198 . S
C975 C104 1.201 1_554 S
C980 C370 1.468 . S
C990 C322 1.498 . S
C985 C96 1.411 . S
C1000 C369 1.472 . S
C995 C115 1.207 1_554 S
C1005 C129 1.414 . S
C1010 C325 1.500 . S
C1015 C126 1.204 . S
C1020 C368 1.474 . S
C1030 C324 1.497 . S
C1025 C107 1.413 1_554 S
C1040 C323 1.498 . S
C1035 C118 1.411 1_554 S
C1050 C417 1.557 . S
C1045 C140 1.470 . S
C1060 C420 1.410 . S
C1055 C148 1.158 . S
C1065 C162 1.464 . S
C1070 C416 1.559 . S
C1080 C418 1.409 . S
C1075 C170 1.155 . S
C1090 C414 1.556 . S
C1085 C184 1.462 . S
C1095 C192 1.157 . S
C1100 C419 1.407 . S
C1105 C206 1.468 . S
C1110 C415 1.554 . S
C1120 C421 1.409 . S
C1115 C214 1.151 . S
C1130 C475 1.394 . S
C1125 C173 1.303 . S
C1135 C137 1.317 . S
C1140 C514 1.595 . S
C1150 C474 1.395 . S
C1145 C151 1.303 . S
C1160 C516 1.592 . S
C1155 C159 1.315 . S
C1170 C473 1.395 . S
C1165 C195 1.308 . S
C1175 C203 1.314 . S
C1180 C515 1.595 . S
C1190 C472 1.394 . S
C1185 C217 1.299 . S
C1200 C517 1.592 . S
C1195 C181 1.315 . S
C1210 C521 1.471 . S
C1205 C225 1.203 . S
C1215 C236 1.201 . S
C1220 C520 1.468 . S
C1230 C468 1.497 . S
C1225 C228 1.412 . S
C1235 C247 1.204 . S
C1240 C519 1.474 . S
C1250 C471 1.496 . S
C1245 C261 1.408 . S
C1260 C518 1.472 . S
C1255 C258 1.203 . S
C1270 C469 1.498 . S
C1265 C239 1.416 . S
C1275 C250 1.414 . S
C1280 C470 1.495 . S
