# Generated by pormake.
# Topology tsx, (6,3)-cn, num edge types: 1
# Building blocks:
#     Node 0, Type 0, BuildingBlock: VOLQOD_clean_sbu_1, # of connection points: 6
#     Node 1, Type 0, BuildingBlock: VOLQOD_clean_sbu_1, # of connection points: 6
#     Node 2, Type 1, BuildingBlock: OLANEW_clean_sbu_2, # of connection points: 3
#     Node 3, Type 1, BuildingBlock: OLANEW_clean_sbu_2, # of connection points: 3
#     Node 4, Type 1, BuildingBlock: OLANEW_clean_sbu_2, # of connection points: 3
#     Node 5, Type 1, BuildingBlock: OLANEW_clean_sbu_2, # of connection points: 3
#     Edge 6, Type (0, 1), BuildingBlock: FUNLAD_clean_linker_0, # of connection points: 2
#     Edge 7, Type (0, 1), BuildingBlock: FUNLAD_clean_linker_0, # of connection points: 2
#     Edge 8, Type (0, 1), BuildingBlock: FUNLAD_clean_linker_0, # of connection points: 2
#     Edge 9, Type (0, 1), BuildingBlock: FUNLAD_clean_linker_0, # of connection points: 2
#     Edge 10, Type (0, 1), BuildingBlock: FUNLAD_clean_linker_0, # of connection points: 2
#     Edge 11, Type (0, 1), BuildingBlock: FUNLAD_clean_linker_0, # of connection points: 2
#     Edge 12, Type (0, 1), BuildingBlock: FUNLAD_clean_linker_0, # of connection points: 2
#     Edge 13, Type (0, 1), BuildingBlock: FUNLAD_clean_linker_0, # of connection points: 2
#     Edge 14, Type (0, 1), BuildingBlock: FUNLAD_clean_linker_0, # of connection points: 2
#     Edge 15, Type (0, 1), BuildingBlock: FUNLAD_clean_linker_0, # of connection points: 2
#     Edge 16, Type (0, 1), BuildingBlock: FUNLAD_clean_linker_0, # of connection points: 2
#     Edge 17, Type (0, 1), BuildingBlock: FUNLAD_clean_linker_0, # of connection points: 2
# Relax obj value: 0.029
# Max RMSD: 0.077
# Mean RMSD: 0.071
data_MOF--net-tsx--node1-VOLQOD_clean_sbu_1--node2-OLANEW_clean_sbu_2--edge1-FUNLAD_clean_linker_0
_symmetry_space_group_name_H-M    P1
_symmetry_Int_Tables_number       1
_symmetry_cell_setting            triclinic
loop_
_symmetry_equiv_pos_as_xyz
'x, y, z'
_cell_length_a     25.909956
_cell_length_b     26.805711
_cell_length_c     44.689582
_cell_angle_alpha  95.383912
_cell_angle_beta   90.179164
_cell_angle_gamma 90.007595
loop_
_atom_site_label
_atom_site_type_symbol
_atom_site_fract_x
_atom_site_fract_y
_atom_site_fract_z
_atom_type_partial_charge
O0 O 0.05507 0.01608 0.07129 0.0
Zn1 Zn 0.07288 0.0165 0.02773 0.0
O2 O 0.01091 0.01969 0.00307 0.0
Zn3 Zn 0.00569 0.95904 0.97511 0.0
Zn4 Zn 0.95009 0.02489 0.0293 0.0
Zn5 Zn 0.0158 0.07831 0.98016 0.0
O6 O 0.00414 0.97568 0.93189 0.0
O7 O 0.01886 0.05769 0.93566 0.0
O8 O 0.11455 0.95463 0.01558 0.0
O9 O 0.067 0.91409 0.97972 0.0
O10 O 0.94237 0.9188 0.98325 0.0
O11 O 0.90455 0.96409 0.02113 0.0
O12 O 0.90751 0.08589 0.02189 0.0
O13 O 0.11807 0.07653 0.02474 0.0
O14 O 0.95284 0.1219 0.98764 0.0
O15 O 0.07922 0.12015 0.99135 0.0
C16 C 0.01351 0.02173 0.08632 0.0
C17 C 0.01194 0.01622 0.9198 0.0
C18 C 0.9061 0.92525 0.0024 0.0
C19 C 0.10704 0.9171 0.99641 0.0
C20 C 0.91338 0.12061 0.00453 0.0
C21 C 0.11614 0.11437 0.00958 0.0
O22 O 0.97023 0.02724 0.07338 0.0
O23 O 0.55424 0.51281 0.57978 0.0
Zn24 Zn 0.57418 0.50827 0.53648 0.0
O25 O 0.5135 0.50969 0.5108 0.0
Zn26 Zn 0.50788 0.44594 0.48538 0.0
Zn27 Zn 0.45185 0.52049 0.53599 0.0
Zn28 Zn 0.52118 0.56487 0.48551 0.0
O29 O 0.513 0.45717 0.44125 0.0
O30 O 0.52968 0.53858 0.44226 0.0
O31 O 0.61482 0.44479 0.52763 0.0
O32 O 0.56698 0.39986 0.49374 0.0
O33 O 0.44074 0.41016 0.49302 0.0
O34 O 0.40386 0.46173 0.52847 0.0
O35 O 0.41162 0.58147 0.52541 0.0
O36 O 0.62056 0.56692 0.5321 0.0
O37 O 0.45723 0.60755 0.48782 0.0
O38 O 0.58295 0.60884 0.4975 0.0
C39 C 0.51225 0.5204 0.59415 0.0
C40 C 0.52381 0.49572 0.42779 0.0
C41 C 0.4036 0.42122 0.51111 0.0
C42 C 0.60681 0.40476 0.51057 0.0
C43 C 0.41777 0.61084 0.50484 0.0
C44 C 0.61924 0.60403 0.51632 0.0
O45 O 0.46954 0.5255 0.58052 0.0
O46 O 0.97964 0.94309 0.3721 0.0
Cd47 Cd 0.97032 0.93645 0.42622 0.0
O48 O 0.0189 0.01613 0.37722 0.0
Cd49 Cd 0.00327 0.02747 0.42533 0.0
O50 O 0.95446 0.06854 0.45887 0.0
C51 C 0.9673 0.11254 0.46932 0.0
O52 O 0.01231 0.13023 0.46189 0.0
C53 C 0.00185 0.97883 0.3604 0.0
C54 C 0.05033 0.88183 0.4496 0.0
O55 O 0.01131 0.85979 0.43657 0.0
O56 O 0.05166 0.92983 0.45165 0.0
O57 O 0.01032 0.03876 0.63062 0.0
Cd58 Cd 0.00347 0.03669 0.57571 0.0
O59 O 0.0766 0.98728 0.62924 0.0
Cd60 Cd 0.05996 0.96287 0.58219 0.0
O61 O 0.00296 0.92139 0.5535 0.0
C62 C 0.95815 0.92202 0.56503 0.0
O63 O 0.95097 0.9481 0.59108 0.0
C64 C 0.0457 0.01677 0.64422 0.0
C65 C 0.07662 0.09947 0.55276 0.0
O66 O 0.03119 0.11544 0.55973 0.0
O67 O 0.08728 0.05375 0.5564 0.0
O68 O 0.4724 0.44988 0.87995 0.0
Cd69 Cd 0.4646 0.44938 0.93467 0.0
O70 O 0.53822 0.50193 0.88256 0.0
Cd71 Cd 0.52181 0.52401 0.92969 0.0
O72 O 0.46156 0.57238 0.95028 0.0
C73 C 0.42741 0.58228 0.93123 0.0
O74 O 0.43191 0.56214 0.90339 0.0
C75 C 0.50742 0.47308 0.86693 0.0
C76 C 0.53942 0.38832 0.95785 0.0
O77 O 0.49533 0.37059 0.94921 0.0
O78 O 0.54798 0.43493 0.95571 0.0
O79 O 0.53842 0.52447 0.13617 0.0
Cd80 Cd 0.53509 0.5215 0.08131 0.0
O81 O 0.58069 0.45345 0.1369 0.0
Cd82 Cd 0.56835 0.43481 0.08879 0.0
O83 O 0.51426 0.40101 0.05522 0.0
C84 C 0.46744 0.41296 0.06036 0.0
O85 O 0.45712 0.44594 0.0832 0.0
C86 C 0.56092 0.49232 0.15088 0.0
C87 C 0.59344 0.59908 0.06123 0.0
O88 O 0.54545 0.60507 0.06745 0.0
O89 O 0.61366 0.55618 0.06421 0.0
C90 C 0.16763 0.18564 0.99217 0.0
C91 C 0.15685 0.15299 0.01422 0.0
C92 C 0.20598 0.22238 0.99712 0.0
C93 C 0.23343 0.22753 0.02443 0.0
C94 C 0.22226 0.1952 0.04645 0.0
C95 C 0.1849 0.15792 0.04129 0.0
C96 C 0.27193 0.26773 0.03153 0.0
C97 C 0.30401 0.28474 0.01112 0.0
C98 C 0.34447 0.32214 0.02051 0.0
C99 C 0.39474 0.31607 0.00912 0.0
C100 C 0.4348 0.34701 0.02107 0.0
C101 C 0.42486 0.385 0.04425 0.0
H102 H 0.29528 0.36865 0.05076 0.0
C103 C 0.37374 0.39335 0.05388 0.0
C104 C 0.33402 0.3622 0.0422 0.0
H105 H 0.36454 0.4227 0.07138 0.0
H106 H 0.14655 0.1827 0.97111 0.0
H107 H 0.21313 0.24746 0.97995 0.0
H108 H 0.24266 0.1987 0.06776 0.0
H109 H 0.17724 0.13362 0.05881 0.0
H110 H 0.27656 0.2813 0.05509 0.0
H111 H 0.3038 0.26772 0.98808 0.0
H112 H 0.40354 0.28578 0.99212 0.0
H113 H 0.47371 0.33996 0.01297 0.0
C114 C 0.13453 0.83099 0.97604 0.0
C115 C 0.14559 0.87617 0.99342 0.0
C116 C 0.17105 0.79256 0.97282 0.0
C117 C 0.21996 0.79875 0.98652 0.0
C118 C 0.23048 0.84343 0.00449 0.0
C119 C 0.19378 0.88174 0.00791 0.0
C120 C 0.26089 0.75971 0.98264 0.0
C121 C 0.26218 0.72435 0.95913 0.0
C122 C 0.30452 0.68724 0.95341 0.0
C123 C 0.30911 0.66289 0.92435 0.0
C124 C 0.34862 0.62851 0.91739 0.0
C125 C 0.38456 0.61736 0.9394 0.0
H126 H 0.33684 0.6919 0.99865 0.0
C127 C 0.37952 0.64074 0.96872 0.0
C128 C 0.33978 0.67524 0.97574 0.0
H129 H 0.40638 0.63258 0.98624 0.0
H130 H 0.09745 0.82508 0.96501 0.0
H131 H 0.16033 0.75808 0.95978 0.0
H132 H 0.26756 0.84909 0.01557 0.0
H133 H 0.20349 0.91596 0.02161 0.0
H134 H 0.29259 0.76267 0.99863 0.0
H135 H 0.23257 0.72429 0.94191 0.0
H136 H 0.28236 0.67097 0.90675 0.0
H137 H 0.35117 0.61104 0.89459 0.0
C138 C 0.82781 0.89062 0.02609 0.0
C139 C 0.86667 0.88551 0.00412 0.0
C140 C 0.7931 0.8516 0.02934 0.0
C141 C 0.79616 0.80656 0.01049 0.0
C142 C 0.83442 0.80182 0.98823 0.0
C143 C 0.86915 0.84085 0.98497 0.0
C144 C 0.76277 0.7626 0.01474 0.0
C145 C 0.71709 0.76595 0.02915 0.0
C146 C 0.68577 0.72166 0.03553 0.0
C147 C 0.63296 0.72821 0.04166 0.0
C148 C 0.60276 0.68824 0.04947 0.0
C149 C 0.62485 0.64082 0.05159 0.0
H150 H 0.74866 0.66763 0.03389 0.0
C151 C 0.67764 0.63409 0.04532 0.0
C152 C 0.70784 0.67404 0.03748 0.0
H153 H 0.69594 0.59812 0.04697 0.0
H154 H 0.82493 0.92434 0.04137 0.0
H155 H 0.7653 0.85646 0.04737 0.0
H156 H 0.83796 0.76748 0.97353 0.0
H157 H 0.89862 0.83551 0.96784 0.0
H158 H 0.77635 0.72625 0.00518 0.0
H159 H 0.70112 0.80258 0.0362 0.0
H160 H 0.61502 0.76452 0.04061 0.0
H161 H 0.56223 0.69475 0.05424 0.0
C162 C 0.8259 0.15599 0.01861 0.0
C163 C 0.87257 0.15914 0.00289 0.0
C164 C 0.78634 0.19074 0.01553 0.0
C165 C 0.79259 0.22937 0.99655 0.0
C166 C 0.83985 0.23342 0.9817 0.0
C167 C 0.87925 0.19867 0.98468 0.0
C168 C 0.75115 0.26621 0.99157 0.0
C169 C 0.70043 0.2572 0.99517 0.0
C170 C 0.6591 0.29232 0.98724 0.0
C171 C 0.60977 0.27313 0.97986 0.0
C172 C 0.57061 0.30437 0.97079 0.0
C173 C 0.57985 0.3557 0.96912 0.0
H174 H 0.70454 0.36082 0.99325 0.0
C175 C 0.6286 0.37533 0.9776 0.0
C176 C 0.66775 0.3441 0.98667 0.0
H177 H 0.63678 0.41485 0.97697 0.0
H178 H 0.81957 0.1263 0.03304 0.0
H179 H 0.75121 0.18721 0.02817 0.0
H180 H 0.84601 0.26306 0.96719 0.0
H181 H 0.91477 0.20255 0.97239 0.0
H182 H 0.76299 0.30038 0.98226 0.0
H183 H 0.68821 0.22114 0.00185 0.0
H184 H 0.60177 0.23355 0.98045 0.0
H185 H 0.53333 0.28811 0.96469 0.0
C186 C 0.66725 0.67885 0.50041 0.0
C187 C 0.65973 0.64302 0.52108 0.0
C188 C 0.70483 0.71629 0.50577 0.0
C189 C 0.73507 0.71878 0.53208 0.0
C190 C 0.72744 0.68303 0.55261 0.0
C191 C 0.69064 0.64533 0.54707 0.0
C192 C 0.77267 0.75963 0.53999 0.0
C193 C 0.79931 0.78349 0.51977 0.0
C194 C 0.838 0.82257 0.52959 0.0
C195 C 0.88451 0.82548 0.5138 0.0
C196 C 0.92337 0.85887 0.52468 0.0
C197 C 0.91589 0.89035 0.55132 0.0
H198 H 0.79344 0.85586 0.56737 0.0
C199 C 0.86806 0.8894 0.56599 0.0
C200 C 0.82958 0.85597 0.55526 0.0
H201 H 0.86063 0.91364 0.5863 0.0
H202 H 0.64397 0.67811 0.48021 0.0
H203 H 0.70905 0.74394 0.48979 0.0
H204 H 0.74998 0.68434 0.57314 0.0
H205 H 0.68572 0.61859 0.56357 0.0
H206 H 0.7809 0.76843 0.56378 0.0
H207 H 0.7957 0.77166 0.49594 0.0
H208 H 0.89161 0.80054 0.49373 0.0
H209 H 0.95964 0.85904 0.51269 0.0
C210 C 0.68781 0.36691 0.52953 0.0
C211 C 0.64519 0.36362 0.50986 0.0
C212 C 0.72507 0.32905 0.52814 0.0
C213 C 0.72083 0.28714 0.50679 0.0
C214 C 0.67747 0.28326 0.48775 0.0
C215 C 0.64014 0.32103 0.4892 0.0
C216 C 0.76062 0.24694 0.50328 0.0
C217 C 0.80982 0.25274 0.51301 0.0
C218 C 0.85061 0.21455 0.50556 0.0
C219 C 0.90206 0.23043 0.50374 0.0
C220 C 0.94067 0.1967 0.49346 0.0
C221 C 0.92862 0.14622 0.48497 0.0
H222 H 0.80052 0.14914 0.50155 0.0
C223 C 0.87785 0.12955 0.4889 0.0
C224 C 0.83925 0.1633 0.49917 0.0
H225 H 0.86741 0.09073 0.48303 0.0
H226 H 0.69258 0.39889 0.54601 0.0
H227 H 0.7568 0.33291 0.54395 0.0
H228 H 0.67287 0.25127 0.47125 0.0
H229 H 0.60772 0.31707 0.4738 0.0
H230 H 0.74976 0.21265 0.48987 0.0
H231 H 0.82224 0.28844 0.52415 0.0
H232 H 0.91209 0.26952 0.50902 0.0
H233 H 0.97952 0.21068 0.49106 0.0
C234 C 0.359 0.33921 0.49575 0.0
C235 C 0.35957 0.38612 0.51274 0.0
C236 C 0.31811 0.30569 0.49838 0.0
C237 C 0.27696 0.31838 0.51821 0.0
C238 C 0.27703 0.36574 0.53451 0.0
C239 C 0.3178 0.39909 0.53193 0.0
C240 C 0.23316 0.28387 0.52267 0.0
C241 C 0.23538 0.23368 0.5166 0.0
C242 C 0.19306 0.19942 0.52419 0.0
C243 C 0.20523 0.14956 0.52855 0.0
C244 C 0.16729 0.11685 0.5373 0.0
C245 C 0.11611 0.13321 0.54173 0.0
H246 H 0.1298 0.25268 0.52321 0.0
C247 C 0.1034 0.18252 0.53627 0.0
C248 C 0.14134 0.21522 0.52746 0.0
H249 H 0.06414 0.19605 0.539 0.0
H250 H 0.39031 0.32816 0.48054 0.0
H251 H 0.3189 0.27023 0.48469 0.0
H252 H 0.24574 0.37681 0.54974 0.0
H253 H 0.31662 0.43498 0.54524 0.0
H254 H 0.19915 0.30054 0.53364 0.0
H255 H 0.27092 0.21641 0.50805 0.0
H256 H 0.24455 0.13613 0.52587 0.0
H257 H 0.17833 0.07899 0.54111 0.0
C258 C 0.3371 0.6592 0.51981 0.0
C259 C 0.37632 0.64668 0.49872 0.0
C260 C 0.29594 0.68996 0.51271 0.0
C261 C 0.29296 0.70813 0.48422 0.0
C262 C 0.33237 0.69606 0.46337 0.0
C263 C 0.37388 0.66623 0.47063 0.0
C264 C 0.24768 0.73665 0.47467 0.0
C265 C 0.22049 0.76888 0.49339 0.0
C266 C 0.17596 0.79715 0.4826 0.0
C267 C 0.16835 0.84731 0.49371 0.0
C268 C 0.12762 0.87503 0.48294 0.0
C269 C 0.09295 0.85258 0.46146 0.0
H270 H 0.14505 0.73553 0.45295 0.0
C271 C 0.09961 0.80187 0.45111 0.0
C272 C 0.14087 0.77451 0.46141 0.0
H273 H 0.07341 0.78347 0.43465 0.0
H274 H 0.33779 0.64462 0.5416 0.0
H275 H 0.26562 0.69786 0.52909 0.0
H276 H 0.3308 0.70936 0.44122 0.0
H277 H 0.40315 0.65708 0.45375 0.0
H278 H 0.23798 0.73271 0.45087 0.0
H279 H 0.23304 0.77714 0.51655 0.0
H280 H 0.19462 0.8654 0.51024 0.0
H281 H 0.12316 0.91393 0.49153 0.0
C282 C 0.97119 0.01478 0.13634 0.0
C283 C 0.01603 0.02082 0.11941 0.0
C284 C 0.97437 0.01187 0.16742 0.0
C285 C 0.02252 0.0152 0.18219 0.0
C286 C 0.06702 0.02254 0.16537 0.0
C287 C 0.06393 0.02489 0.13433 0.0
C288 C 0.02777 0.01275 0.21514 0.0
C289 C 0.99521 0.98678 0.2313 0.0
C290 C 1.00064 0.984 0.26427 0.0
C291 C 0.97846 0.94342 0.27726 0.0
C292 C 0.98044 0.94075 0.30835 0.0
C293 C 0.00421 0.97901 0.32724 0.0
H294 H 0.04152 0.05455 0.27418 0.0
C295 C 0.02703 0.01934 0.3142 0.0
C296 C 0.02517 0.02192 0.28311 0.0
H297 H 0.04528 0.04969 0.32807 0.0
H298 H 0.93367 0.01174 0.12556 0.0
H299 H 0.93905 0.0077 0.1798 0.0
H300 H 0.1045 0.0258 0.17621 0.0
H301 H 0.09923 0.02996 0.12205 0.0
H302 H 0.06142 0.03064 0.22598 0.0
H303 H 0.96452 0.96489 0.21983 0.0
H304 H 0.95911 0.91381 0.26332 0.0
H305 H 0.96224 0.90926 0.31761 0.0
C306 C 0.03869 0.05324 0.8728 0.0
C307 C 0.01315 0.01525 0.88663 0.0
C308 C 0.03984 0.05248 0.84148 0.0
C309 C 0.01482 0.01406 0.82337 0.0
C310 C 0.98874 0.9765 0.83718 0.0
C311 C 0.98849 0.97666 0.86848 0.0
C312 C 0.01336 0.01355 0.79016 0.0
C313 C 0.05321 0.02894 0.77407 0.0
C314 C 0.05128 0.02755 0.74083 0.0
C315 C 0.09553 0.014 0.72396 0.0
C316 C 0.09402 0.01091 0.69253 0.0
C317 C 0.04858 0.02277 0.67745 0.0
H318 H 0.97171 0.05195 0.73828 0.0
C319 C 0.00488 0.03821 0.69445 0.0
C320 C 0.00608 0.04022 0.72581 0.0
H321 H 0.96928 0.04757 0.68351 0.0
H322 H 0.05804 0.08349 0.88618 0.0
H323 H 0.05931 0.08259 0.83153 0.0
H324 H 0.96881 0.94674 0.82369 0.0
H325 H 0.96821 0.94706 0.87848 0.0
H326 H 0.97944 0.99758 0.77852 0.0
H327 H 0.08928 0.0399 0.7853 0.0
H328 H 0.13095 0.00457 0.73508 0.0
H329 H 0.12837 0.99913 0.68004 0.0
C330 C 0.46977 0.50997 0.64363 0.0
C331 C 0.51371 0.52166 0.6273 0.0
C332 C 0.4729 0.50735 0.67473 0.0
C333 C 0.51995 0.517 0.69005 0.0
C334 C 0.56316 0.5306 0.67386 0.0
C335 C 0.5603 0.53234 0.64279 0.0
C336 C 0.52527 0.51425 0.7229 0.0
C337 C 0.49948 0.48074 0.73789 0.0
C338 C 0.50491 0.4766 0.77079 0.0
C339 C 0.46746 0.44954 0.78518 0.0
C340 C 0.46937 0.44662 0.81624 0.0
C341 C 0.50894 0.47072 0.83368 0.0
H342 H 0.57693 0.5182 0.77804 0.0
C343 C 0.54773 0.49594 0.81916 0.0
C344 C 0.54597 0.49865 0.78809 0.0
H345 H 0.5791 0.51444 0.83187 0.0
H346 H 0.43333 0.50167 0.63229 0.0
H347 H 0.43846 0.49817 0.68673 0.0
H348 H 0.59965 0.53881 0.68519 0.0
H349 H 0.59474 0.5419 0.63088 0.0
H350 H 0.55289 0.53961 0.7345 0.0
H351 H 0.47256 0.45532 0.72558 0.0
H352 H 0.43579 0.43154 0.77247 0.0
H353 H 0.4389 0.42674 0.82666 0.0
C354 C 0.54726 0.53202 0.37998 0.0
C355 C 0.53052 0.49083 0.39469 0.0
C356 C 0.55425 0.5277 0.34887 0.0
C357 C 0.54404 0.48211 0.33157 0.0
C358 C 0.52791 0.4408 0.34633 0.0
C359 C 0.5211 0.44507 0.37751 0.0
C360 C 0.55089 0.47584 0.29835 0.0
C361 C 0.5507 0.5144 0.28099 0.0
C362 C 0.55569 0.50821 0.24769 0.0
C363 C 0.53672 0.54623 0.23108 0.0
C364 C 0.53934 0.54155 0.19972 0.0
C365 C 0.56147 0.49881 0.1842 0.0
H366 H 0.59609 0.43675 0.24418 0.0
C367 C 0.58204 0.46144 0.20084 0.0
C368 C 0.57932 0.46609 0.23223 0.0
H369 H 0.59975 0.42821 0.18961 0.0
H370 H 0.55555 0.5677 0.39251 0.0
H371 H 0.56852 0.56004 0.33871 0.0
H372 H 0.5202 0.40508 0.33366 0.0
H373 H 0.5084 0.41249 0.3881 0.0
H374 H 0.55342 0.43775 0.28783 0.0
H375 H 0.54344 0.55208 0.29118 0.0
H376 H 0.51891 0.57937 0.24238 0.0
H377 H 0.52334 0.5712 0.18766 0.0
loop_
_geom_bond_atom_site_label_1
_geom_bond_atom_site_label_2
_geom_bond_distance
_geom_bond_site_symmetry_2
_ccdc_geom_bond_type
O0 Zn1 1.953 1_565 S
O0 C16 1.225 1_565 S
Zn1 O0 1.953 1_545 S
Zn1 O2 1.949 . S
Zn1 O8 1.917 1_545 S
Zn1 O13 1.927 . S
O2 Zn1 1.949 . S
O2 Zn3 1.923 1_444 S
O2 Zn4 1.950 1_455 S
O2 Zn5 1.945 1_554 S
Zn3 O2 1.923 1_666 S
Zn3 O6 1.933 . S
Zn3 O9 1.941 1_655 S
Zn3 O10 1.965 . S
Zn4 O2 1.950 1_655 S
Zn4 O11 1.938 1_545 S
Zn4 O12 1.906 . S
Zn4 O22 1.953 . S
Zn5 O2 1.945 1_556 S
Zn5 O7 1.932 . S
Zn5 O14 1.977 1_455 S
Zn5 O15 1.910 . S
O6 Zn3 1.933 . S
O6 C17 1.226 1_665 S
O7 Zn5 1.932 . S
O7 C17 1.307 . S
O8 Zn1 1.917 1_565 S
O8 C19 1.253 1_554 S
O9 Zn3 1.941 1_455 S
O9 C19 1.283 . S
O10 Zn3 1.965 . S
O10 C18 1.303 1_556 S
O11 Zn4 1.938 1_565 S
O11 C18 1.247 . S
O12 Zn4 1.906 . S
O12 C20 1.304 1_554 S
O13 Zn1 1.927 . S
O13 C21 1.311 . S
O14 Zn5 1.977 1_655 S
O14 C20 1.272 . S
O15 Zn5 1.910 . S
O15 C21 1.231 1_556 S
C16 O0 1.225 1_545 S
C16 O22 1.298 1_455 S
C17 O6 1.226 1_445 S
C17 O7 1.307 . S
C18 O10 1.303 1_554 S
C18 O11 1.247 . S
C19 O8 1.253 1_556 S
C19 O9 1.283 . S
C20 O12 1.304 1_556 S
C20 O14 1.272 . S
C21 O13 1.311 . S
C21 O15 1.231 1_554 S
O22 Zn4 1.953 . S
O22 C16 1.298 1_655 S
O23 Zn24 1.953 . S
O23 C39 1.225 . S
Zn24 O23 1.953 . S
Zn24 O25 1.949 . S
Zn24 O31 1.919 . S
Zn24 O36 1.924 . S
O25 Zn24 1.949 . S
O25 Zn26 1.923 . S
O25 Zn27 1.950 . S
O25 Zn28 1.945 . S
Zn26 O25 1.923 . S
Zn26 O29 1.933 . S
Zn26 O32 1.941 . S
Zn26 O33 1.965 . S
Zn27 O25 1.950 . S
Zn27 O34 1.938 . S
Zn27 O35 1.906 . S
Zn27 O45 1.953 . S
Zn28 O25 1.945 . S
Zn28 O30 1.932 . S
Zn28 O37 1.977 . S
Zn28 O38 1.910 . S
O29 Zn26 1.933 . S
O29 C40 1.226 . S
O30 Zn28 1.932 . S
O30 C40 1.307 . S
O31 Zn24 1.919 . S
O31 C42 1.253 . S
O32 Zn26 1.941 . S
O32 C42 1.283 . S
O33 Zn26 1.965 . S
O33 C41 1.303 . S
O34 Zn27 1.938 . S
O34 C41 1.247 . S
O35 Zn27 1.906 . S
O35 C43 1.304 . S
O36 Zn24 1.924 . S
O36 C44 1.311 . S
O37 Zn28 1.977 . S
O37 C43 1.272 . S
O38 Zn28 1.910 . S
O38 C44 1.231 . S
C39 O23 1.225 . S
C39 O45 1.298 . S
C40 O29 1.226 . S
C40 O30 1.307 . S
C41 O33 1.303 . S
C41 O34 1.247 . S
C42 O31 1.253 . S
C42 O32 1.283 . S
C43 O35 1.304 . S
C43 O37 1.272 . S
C44 O36 1.311 . S
C44 O38 1.231 . S
O45 Zn27 1.953 . S
O45 C39 1.298 . S
O46 Cd47 2.300 . S
O46 C53 1.275 1_565 S
Cd47 O46 2.300 . S
Cd47 O55 2.381 . S
Cd47 O56 2.378 . S
O48 Cd49 2.385 . S
O48 C53 1.255 . S
Cd49 O48 2.385 . S
Cd49 O50 2.317 1_455 S
O50 Cd49 2.317 1_655 S
O50 C51 1.232 . S
C51 O50 1.232 . S
C51 O52 1.218 . S
O52 C51 1.218 . S
C53 O46 1.275 1_545 S
C53 O48 1.255 . S
C54 O55 1.258 . S
C54 O56 1.256 . S
O55 Cd47 2.381 . S
O55 C54 1.258 . S
O56 Cd47 2.378 . S
O56 C54 1.256 . S
O57 Cd58 2.300 . S
O57 C64 1.275 1_545 S
Cd58 O57 2.300 . S
Cd58 O66 2.381 . S
Cd58 O67 2.378 . S
O59 Cd60 2.385 . S
O59 C64 1.255 . S
Cd60 O59 2.385 . S
Cd60 O61 2.317 1_455 S
O61 Cd60 2.317 1_655 S
O61 C62 1.232 . S
C62 O61 1.232 . S
C62 O63 1.218 . S
O63 C62 1.218 . S
C64 O57 1.275 1_565 S
C64 O59 1.255 . S
C65 O66 1.258 . S
C65 O67 1.256 . S
O66 Cd58 2.381 . S
O66 C65 1.258 . S
O67 Cd58 2.378 . S
O67 C65 1.256 . S
O68 Cd69 2.300 . S
O68 C75 1.275 . S
Cd69 O68 2.300 . S
Cd69 O77 2.381 . S
Cd69 O78 2.378 . S
O70 Cd71 2.385 . S
O70 C75 1.255 . S
Cd71 O70 2.385 . S
Cd71 O72 2.317 . S
O72 Cd71 2.317 . S
O72 C73 1.232 . S
C73 O72 1.232 . S
C73 O74 1.218 . S
O74 C73 1.218 . S
C75 O68 1.275 . S
C75 O70 1.255 . S
C76 O77 1.258 . S
C76 O78 1.256 . S
O77 Cd69 2.381 . S
O77 C76 1.258 . S
O78 Cd69 2.378 . S
O78 C76 1.256 . S
O79 Cd80 2.300 . S
O79 C86 1.275 . S
Cd80 O79 2.300 . S
Cd80 O88 2.381 . S
Cd80 O89 2.378 . S
O81 Cd82 2.385 . S
O81 C86 1.255 . S
Cd82 O81 2.385 . S
Cd82 O83 2.317 . S
O83 Cd82 2.317 . S
O83 C84 1.232 . S
C84 O83 1.232 . S
C84 O85 1.218 . S
O85 C84 1.218 . S
C86 O79 1.275 . S
C86 O81 1.255 . S
C87 O88 1.258 . S
C87 O89 1.256 . S
O88 Cd80 2.381 . S
O88 C87 1.258 . S
O89 Cd80 2.378 . S
O89 C87 1.256 . S
C90 C91 1.386 . S
C90 C92 1.383 . S
C90 H106 0.951 1_554 S
C91 C90 1.386 . S
C91 C95 1.383 . S
C92 C90 1.383 . S
C92 C93 1.402 . S
C92 H107 0.951 . S
C93 C92 1.402 . S
C93 C94 1.375 . S
C93 C96 1.481 . S
C94 C93 1.375 . S
C94 C95 1.367 . S
C94 H108 0.951 . S
C95 C91 1.383 . S
C95 C94 1.367 . S
C95 H109 0.950 . S
C96 C93 1.481 . S
C96 C97 1.297 . S
C96 H110 0.950 . S
C97 C96 1.297 . S
C97 C98 1.479 . S
C97 H111 0.950 . S
C98 C97 1.479 . S
C98 C99 1.375 . S
C98 C104 1.404 . S
C99 C98 1.375 . S
C99 C100 1.369 . S
C99 H112 0.950 . S
C100 C99 1.369 . S
C100 C101 1.392 . S
C100 H113 0.951 . S
C101 C100 1.392 . S
C101 C103 1.384 . S
H102 C104 0.949 . S
C103 C101 1.384 . S
C103 C104 1.385 . S
C103 H105 0.950 . S
C104 C98 1.404 . S
C104 H102 0.949 . S
C104 C103 1.385 . S
H105 C103 0.950 . S
H106 C90 0.951 1_556 S
H107 C92 0.951 . S
H108 C94 0.951 . S
H109 C95 0.950 . S
H110 C96 0.950 . S
H111 C97 0.950 . S
H112 C99 0.950 . S
H113 C100 0.951 . S
C114 C115 1.386 . S
C114 C116 1.383 . S
C114 H130 0.951 . S
C115 C114 1.386 . S
C115 C119 1.383 1_556 S
C116 C114 1.383 . S
C116 C117 1.402 . S
C116 H131 0.951 . S
C117 C116 1.402 . S
C117 C118 1.375 1_556 S
C117 C120 1.481 . S
C118 C117 1.375 1_554 S
C118 C119 1.367 . S
C118 H132 0.951 . S
C119 C115 1.383 1_554 S
C119 C118 1.367 . S
C119 H133 0.950 . S
C120 C117 1.481 . S
C120 C121 1.297 . S
C120 H134 0.950 . S
C121 C120 1.297 . S
C121 C122 1.479 . S
C121 H135 0.950 . S
C122 C121 1.479 . S
C122 C123 1.375 . S
C122 C128 1.404 . S
C123 C122 1.375 . S
C123 C124 1.369 . S
C123 H136 0.950 . S
C124 C123 1.369 . S
C124 C125 1.392 . S
C124 H137 0.951 . S
C125 C124 1.392 . S
C125 C127 1.384 . S
H126 C128 0.949 . S
C127 C125 1.384 . S
C127 C128 1.385 . S
C127 H129 0.950 . S
C128 C122 1.404 . S
C128 H126 0.949 . S
C128 C127 1.385 . S
H129 C127 0.950 . S
H130 C114 0.951 . S
H131 C116 0.951 . S
H132 C118 0.951 . S
H133 C119 0.950 . S
H134 C120 0.950 . S
H135 C121 0.950 . S
H136 C123 0.950 . S
H137 C124 0.951 . S
C138 C139 1.386 . S
C138 C140 1.383 . S
C138 H154 0.951 . S
C139 C138 1.386 . S
C139 C143 1.383 . S
C140 C138 1.383 . S
C140 C141 1.402 . S
C140 H155 0.951 . S
C141 C140 1.402 . S
C141 C142 1.375 . S
C141 C144 1.481 . S
C142 C141 1.375 . S
C142 C143 1.367 . S
C142 H156 0.951 . S
C143 C139 1.383 . S
C143 C142 1.367 . S
C143 H157 0.950 . S
C144 C141 1.481 . S
C144 C145 1.297 . S
C144 H158 0.950 . S
C145 C144 1.297 . S
C145 C146 1.479 . S
C145 H159 0.950 . S
C146 C145 1.479 . S
C146 C147 1.375 . S
C146 C152 1.404 . S
C147 C146 1.375 . S
C147 C148 1.369 . S
C147 H160 0.950 . S
C148 C147 1.369 . S
C148 C149 1.392 . S
C148 H161 0.951 . S
C149 C148 1.392 . S
C149 C151 1.384 . S
H150 C152 0.949 . S
C151 C149 1.384 . S
C151 C152 1.385 . S
C151 H153 0.950 . S
C152 C146 1.404 . S
C152 H150 0.949 . S
C152 C151 1.385 . S
H153 C151 0.950 . S
H154 C138 0.951 . S
H155 C140 0.951 . S
H156 C142 0.951 . S
H157 C143 0.950 . S
H158 C144 0.950 . S
H159 C145 0.950 . S
H160 C147 0.950 . S
H161 C148 0.951 . S
C162 C163 1.386 1_554 S
C162 C164 1.383 1_554 S
C162 H178 0.951 . S
C163 C162 1.386 1_556 S
C163 C167 1.383 . S
C164 C162 1.383 1_556 S
C164 C165 1.402 . S
C164 H179 0.951 1_556 S
C165 C164 1.402 . S
C165 C166 1.375 . S
C165 C168 1.481 . S
C166 C165 1.375 . S
C166 C167 1.367 . S
C166 H180 0.951 . S
C167 C163 1.383 . S
C167 C166 1.367 . S
C167 H181 0.950 . S
C168 C165 1.481 . S
C168 C169 1.297 . S
C168 H182 0.950 . S
C169 C168 1.297 . S
C169 C170 1.479 . S
C169 H183 0.950 . S
C170 C169 1.479 . S
C170 C171 1.375 . S
C170 C176 1.404 . S
C171 C170 1.375 . S
C171 C172 1.369 . S
C171 H184 0.957 . S
C172 C171 1.369 . S
C172 C173 1.392 . S
C172 H185 0.951 . S
C173 C172 1.392 . S
C173 C175 1.384 . S
H174 C176 0.949 . S
C175 C173 1.384 . S
C175 C176 1.385 . S
C175 H177 0.950 . S
C176 C170 1.404 . S
C176 H174 0.949 . S
C176 C175 1.385 . S
H177 C175 0.950 . S
H178 C162 0.951 . S
H179 C164 0.951 1_554 S
H180 C166 0.951 . S
H181 C167 0.950 . S
H182 C168 0.950 . S
H183 C169 0.950 . S
H184 C171 0.957 . S
H185 C172 0.951 . S
C186 C187 1.386 . S
C186 C188 1.383 . S
C186 H202 0.951 . S
C187 C186 1.386 . S
C187 C191 1.383 . S
C188 C186 1.383 . S
C188 C189 1.402 . S
C188 H203 0.951 . S
C189 C188 1.402 . S
C189 C190 1.375 . S
C189 C192 1.481 . S
C190 C189 1.375 . S
C190 C191 1.367 . S
C190 H204 0.951 . S
C191 C187 1.383 . S
C191 C190 1.367 . S
C191 H205 0.950 . S
C192 C189 1.481 . S
C192 C193 1.297 . S
C192 H206 0.950 . S
C193 C192 1.297 . S
C193 C194 1.479 . S
C193 H207 0.950 . S
C194 C193 1.479 . S
C194 C195 1.375 . S
C194 C200 1.404 . S
C195 C194 1.375 . S
C195 C196 1.369 . S
C195 H208 0.950 . S
C196 C195 1.369 . S
C196 C197 1.392 . S
C196 H209 0.951 . S
C197 C196 1.392 . S
C197 C199 1.384 . S
H198 C200 0.949 . S
C199 C197 1.384 . S
C199 C200 1.385 . S
C199 H201 0.950 . S
C200 C194 1.404 . S
C200 H198 0.949 . S
C200 C199 1.385 . S
H201 C199 0.950 . S
H202 C186 0.951 . S
H203 C188 0.951 . S
H204 C190 0.951 . S
H205 C191 0.950 . S
H206 C192 0.950 . S
H207 C193 0.950 . S
H208 C195 0.950 . S
H209 C196 0.951 . S
C210 C211 1.386 . S
C210 C212 1.383 . S
C210 H226 0.951 . S
C211 C210 1.386 . S
C211 C215 1.383 . S
C212 C210 1.383 . S
C212 C213 1.402 . S
C212 H227 0.951 . S
C213 C212 1.402 . S
C213 C214 1.375 . S
C213 C216 1.481 . S
C214 C213 1.375 . S
C214 C215 1.367 . S
C214 H228 0.951 . S
C215 C211 1.383 . S
C215 C214 1.367 . S
C215 H229 0.950 . S
C216 C213 1.481 . S
C216 C217 1.297 . S
C216 H230 0.950 . S
C217 C216 1.297 . S
C217 C218 1.479 . S
C217 H231 0.950 . S
C218 C217 1.479 . S
C218 C219 1.375 . S
C218 C224 1.404 . S
C219 C218 1.375 . S
C219 C220 1.369 . S
C219 H232 0.950 . S
C220 C219 1.369 . S
C220 C221 1.392 . S
C220 H233 0.951 . S
C221 C220 1.392 . S
C221 C223 1.384 . S
H222 C224 0.949 . S
C223 C221 1.384 . S
C223 C224 1.385 . S
C223 H225 0.950 . S
C224 C218 1.404 . S
C224 H222 0.949 . S
C224 C223 1.385 . S
H225 C223 0.950 . S
H226 C210 0.951 . S
H227 C212 0.951 . S
H228 C214 0.951 . S
H229 C215 0.950 . S
H230 C216 0.950 . S
H231 C217 0.950 . S
H232 C219 0.950 . S
H233 C220 0.951 . S
C234 C235 1.386 . S
C234 C236 1.383 . S
C234 H250 0.951 . S
C235 C234 1.386 . S
C235 C239 1.383 . S
C236 C234 1.383 . S
C236 C237 1.402 . S
C236 H251 0.951 . S
C237 C236 1.402 . S
C237 C238 1.375 . S
C237 C240 1.481 . S
C238 C237 1.375 . S
C238 C239 1.367 . S
C238 H252 0.951 . S
C239 C235 1.383 . S
C239 C238 1.367 . S
C239 H253 0.950 . S
C240 C237 1.481 . S
C240 C241 1.297 . S
C240 H254 0.950 . S
C241 C240 1.297 . S
C241 C242 1.479 . S
C241 H255 0.950 . S
C242 C241 1.479 . S
C242 C243 1.375 . S
C242 C248 1.404 . S
C243 C242 1.375 . S
C243 C244 1.369 . S
C243 H256 0.950 . S
C244 C243 1.369 . S
C244 C245 1.392 . S
C244 H257 0.951 . S
C245 C244 1.392 . S
C245 C247 1.384 . S
H246 C248 0.949 . S
C247 C245 1.384 . S
C247 C248 1.385 . S
C247 H249 0.950 . S
C248 C242 1.404 . S
C248 H246 0.949 . S
C248 C247 1.385 . S
H249 C247 0.950 . S
H250 C234 0.951 . S
H251 C236 0.951 . S
H252 C238 0.951 . S
H253 C239 0.950 . S
H254 C240 0.950 . S
H255 C241 0.950 . S
H256 C243 0.950 . S
H257 C244 0.951 . S
C258 C259 1.386 . S
C258 C260 1.383 . S
C258 H274 0.951 . S
C259 C258 1.386 . S
C259 C263 1.383 . S
C260 C258 1.383 . S
C260 C261 1.402 . S
C260 H275 0.951 . S
C261 C260 1.402 . S
C261 C262 1.375 . S
C261 C264 1.481 . S
C262 C261 1.375 . S
C262 C263 1.367 . S
C262 H276 0.951 . S
C263 C259 1.383 . S
C263 C262 1.367 . S
C263 H277 0.950 . S
C264 C261 1.481 . S
C264 C265 1.297 . S
C264 H278 0.950 . S
C265 C264 1.297 . S
C265 C266 1.479 . S
C265 H279 0.950 . S
C266 C265 1.479 . S
C266 C267 1.375 . S
C266 C272 1.404 . S
C267 C266 1.375 . S
C267 C268 1.369 . S
C267 H280 0.950 . S
C268 C267 1.369 . S
C268 C269 1.392 . S
C268 H281 0.951 . S
C269 C268 1.392 . S
C269 C271 1.384 . S
H270 C272 0.949 . S
C271 C269 1.384 . S
C271 C272 1.385 . S
C271 H273 0.950 . S
C272 C266 1.404 . S
C272 H270 0.949 . S
C272 C271 1.385 . S
H273 C271 0.950 . S
H274 C258 0.951 . S
H275 C260 0.951 . S
H276 C262 0.951 . S
H277 C263 0.950 . S
H278 C264 0.950 . S
H279 C265 0.950 . S
H280 C267 0.950 . S
H281 C268 0.951 . S
C282 C283 1.386 1_655 S
C282 C284 1.383 . S
C282 H298 0.951 . S
C283 C282 1.386 1_455 S
C283 C287 1.383 1_545 S
C284 C282 1.383 . S
C284 C285 1.394 1_645 S
C284 H299 0.951 . S
C285 C284 1.394 1_465 S
C285 C286 1.378 . S
C285 C288 1.486 . S
C286 C285 1.378 . S
C286 C287 1.367 . S
C286 H300 0.951 . S
C287 C283 1.383 1_565 S
C287 C286 1.367 . S
C287 H301 0.950 . S
C288 C285 1.486 . S
C288 C289 1.297 1_455 S
C288 H302 0.950 . S
C289 C288 1.297 1_655 S
C289 C290 1.479 . S
C289 H303 0.952 . S
C290 C289 1.479 . S
C290 C291 1.375 1_565 S
C290 C296 1.404 1_655 S
C291 C290 1.375 1_545 S
C291 C292 1.369 . S
C291 H304 0.950 . S
C292 C291 1.369 . S
C292 C293 1.392 . S
C292 H305 0.951 . S
C293 C292 1.392 . S
C293 C295 1.384 1_645 S
H294 C296 0.949 . S
C295 C293 1.384 1_465 S
C295 C296 1.385 . S
C295 H297 0.950 . S
C296 C290 1.404 1_455 S
C296 H294 0.949 . S
C296 C295 1.385 . S
H297 C295 0.950 . S
H298 C282 0.951 . S
H299 C284 0.951 . S
H300 C286 0.951 . S
H301 C287 0.950 . S
H302 C288 0.950 . S
H303 C289 0.952 . S
H304 C291 0.950 . S
H305 C292 0.951 . S
C306 C307 1.386 1_545 S
C306 C308 1.383 . S
C306 H322 0.951 . S
C307 C306 1.386 1_565 S
C307 C311 1.383 1_455 S
C308 C306 1.383 . S
C308 C309 1.394 1_445 S
C308 H323 0.951 . S
C309 C308 1.394 1_665 S
C309 C310 1.382 . S
C309 C312 1.482 . S
C310 C309 1.382 . S
C310 C311 1.367 . S
C310 H324 0.951 . S
C311 C307 1.383 1_655 S
C311 C310 1.367 . S
C311 H325 0.950 . S
C312 C309 1.482 . S
C312 C313 1.297 1_655 S
C312 H326 0.950 . S
C313 C312 1.297 1_455 S
C313 C314 1.479 . S
C313 H327 0.950 . S
C314 C313 1.479 . S
C314 C315 1.380 . S
C314 C320 1.404 1_455 S
C315 C314 1.380 . S
C315 C316 1.366 1_565 S
C315 H328 0.948 1_565 S
C316 C315 1.366 1_545 S
C316 C317 1.392 1_545 S
C316 H329 0.951 . S
C317 C316 1.392 1_565 S
C317 C319 1.384 1_455 S
H318 C320 0.949 . S
C319 C317 1.384 1_655 S
C319 C320 1.385 . S
C319 H321 0.950 . S
C320 C314 1.404 1_655 S
C320 H318 0.949 . S
C320 C319 1.385 . S
H321 C319 0.950 . S
H322 C306 0.951 . S
H323 C308 0.951 . S
H324 C310 0.951 . S
H325 C311 0.950 . S
H326 C312 0.950 . S
H327 C313 0.950 . S
H328 C315 0.948 1_545 S
H329 C316 0.951 . S
C330 C331 1.386 . S
C330 C332 1.383 . S
C330 H346 0.951 . S
C331 C330 1.386 . S
C331 C335 1.383 . S
C332 C330 1.383 . S
C332 C333 1.402 . S
C332 H347 0.951 . S
C333 C332 1.402 . S
C333 C334 1.375 . S
C333 C336 1.481 . S
C334 C333 1.375 . S
C334 C335 1.367 . S
C334 H348 0.951 . S
C335 C331 1.383 . S
C335 C334 1.367 . S
C335 H349 0.950 . S
C336 C333 1.481 . S
C336 C337 1.297 . S
C336 H350 0.950 . S
C337 C336 1.297 . S
C337 C338 1.479 . S
C337 H351 0.950 . S
C338 C337 1.479 . S
C338 C339 1.375 . S
C338 C344 1.404 . S
C339 C338 1.375 . S
C339 C340 1.369 . S
C339 H352 0.950 . S
C340 C339 1.369 . S
C340 C341 1.392 . S
C340 H353 0.951 . S
C341 C340 1.392 . S
C341 C343 1.384 . S
H342 C344 0.949 . S
C343 C341 1.384 . S
C343 C344 1.385 . S
C343 H345 0.950 . S
C344 C338 1.404 . S
C344 H342 0.949 . S
C344 C343 1.385 . S
H345 C343 0.950 . S
H346 C330 0.951 . S
H347 C332 0.951 . S
H348 C334 0.951 . S
H349 C335 0.950 . S
H350 C336 0.950 . S
H351 C337 0.950 . S
H352 C339 0.950 . S
H353 C340 0.951 . S
C354 C355 1.386 . S
C354 C356 1.383 . S
C354 H370 0.951 . S
C355 C354 1.386 . S
C355 C359 1.383 . S
C356 C354 1.383 . S
C356 C357 1.402 . S
C356 H371 0.951 . S
C357 C356 1.402 . S
C357 C358 1.375 . S
C357 C360 1.481 . S
C358 C357 1.375 . S
C358 C359 1.367 . S
C358 H372 0.951 . S
C359 C355 1.383 . S
C359 C358 1.367 . S
C359 H373 0.950 . S
C360 C357 1.481 . S
C360 C361 1.297 . S
C360 H374 0.950 . S
C361 C360 1.297 . S
C361 C362 1.479 . S
C361 H375 0.950 . S
C362 C361 1.479 . S
C362 C363 1.375 . S
C362 C368 1.404 . S
C363 C362 1.375 . S
C363 C364 1.369 . S
C363 H376 0.950 . S
C364 C363 1.369 . S
C364 C365 1.392 . S
C364 H377 0.951 . S
C365 C364 1.392 . S
C365 C367 1.384 . S
H366 C368 0.949 . S
C367 C365 1.384 . S
C367 C368 1.385 . S
C367 H369 0.950 . S
C368 C362 1.404 . S
C368 H366 0.949 . S
C368 C367 1.385 . S
H369 C367 0.950 . S
H370 C354 0.951 . S
H371 C356 0.951 . S
H372 C358 0.951 . S
H373 C359 0.950 . S
H374 C360 0.950 . S
H375 C361 0.950 . S
H376 C363 0.950 . S
H377 C364 0.951 . S
C101 C84 1.380 . S
C91 C21 1.517 . S
C115 C19 1.488 . S
C125 C73 1.203 . S
C139 C18 1.393 . S
C149 C87 1.409 . S
C163 C20 1.391 . S
C173 C76 1.389 . S
C187 C44 1.517 . S
C197 C62 1.400 . S
C211 C42 1.479 . S
C221 C51 1.253 . S
C245 C65 1.356 . S
C235 C41 1.402 . S
C269 C54 1.356 . S
C259 C43 1.410 . S
C283 C16 1.511 . S
C293 C53 1.465 1_655 S
C307 C17 1.479 1_565 S
C317 C64 1.407 . S
C341 C75 1.463 . S
C331 C39 1.511 . S
C355 C40 1.480 . S
C365 C86 1.397 . S
