# Generated by pormake.
# Topology zzz, (3,6)-cn, num edge types: 1
# Building blocks:
#     Node 0, Type 0, BuildingBlock: WUSLED_clean_sbu_0, # of connection points: 3
#     Node 1, Type 0, BuildingBlock: WUSLED_clean_sbu_0, # of connection points: 3
#     Node 2, Type 0, BuildingBlock: WUSLED_clean_sbu_0, # of connection points: 3
#     Node 3, Type 0, BuildingBlock: WUSLED_clean_sbu_0, # of connection points: 3
#     Node 4, Type 0, BuildingBlock: WUSLED_clean_sbu_0, # of connection points: 3
#     Node 5, Type 0, BuildingBlock: WUSLED_clean_sbu_0, # of connection points: 3
#     Node 6, Type 0, BuildingBlock: WUSLED_clean_sbu_0, # of connection points: 3
#     Node 7, Type 0, BuildingBlock: WUSLED_clean_sbu_0, # of connection points: 3
#     Node 8, Type 1, BuildingBlock: BETFAJ_clean_sbu_0, # of connection points: 6
#     Node 9, Type 1, BuildingBlock: BETFAJ_clean_sbu_0, # of connection points: 6
#     Node 10, Type 1, BuildingBlock: BETFAJ_clean_sbu_0, # of connection points: 6
#     Node 11, Type 1, BuildingBlock: BETFAJ_clean_sbu_0, # of connection points: 6
#     Edge 12, Type (0, 1), BuildingBlock: AJUNOK_clean_linker_0, # of connection points: 2
#     Edge 13, Type (0, 1), BuildingBlock: AJUNOK_clean_linker_0, # of connection points: 2
#     Edge 14, Type (0, 1), BuildingBlock: AJUNOK_clean_linker_0, # of connection points: 2
#     Edge 15, Type (0, 1), BuildingBlock: AJUNOK_clean_linker_0, # of connection points: 2
#     Edge 16, Type (0, 1), BuildingBlock: AJUNOK_clean_linker_0, # of connection points: 2
#     Edge 17, Type (0, 1), BuildingBlock: AJUNOK_clean_linker_0, # of connection points: 2
#     Edge 18, Type (0, 1), BuildingBlock: AJUNOK_clean_linker_0, # of connection points: 2
#     Edge 19, Type (0, 1), BuildingBlock: AJUNOK_clean_linker_0, # of connection points: 2
#     Edge 20, Type (0, 1), BuildingBlock: AJUNOK_clean_linker_0, # of connection points: 2
#     Edge 21, Type (0, 1), BuildingBlock: AJUNOK_clean_linker_0, # of connection points: 2
#     Edge 22, Type (0, 1), BuildingBlock: AJUNOK_clean_linker_0, # of connection points: 2
#     Edge 23, Type (0, 1), BuildingBlock: AJUNOK_clean_linker_0, # of connection points: 2
#     Edge 24, Type (0, 1), BuildingBlock: AJUNOK_clean_linker_0, # of connection points: 2
#     Edge 25, Type (0, 1), BuildingBlock: AJUNOK_clean_linker_0, # of connection points: 2
#     Edge 26, Type (0, 1), BuildingBlock: AJUNOK_clean_linker_0, # of connection points: 2
#     Edge 27, Type (0, 1), BuildingBlock: AJUNOK_clean_linker_0, # of connection points: 2
#     Edge 28, Type (0, 1), BuildingBlock: AJUNOK_clean_linker_0, # of connection points: 2
#     Edge 29, Type (0, 1), BuildingBlock: AJUNOK_clean_linker_0, # of connection points: 2
#     Edge 30, Type (0, 1), BuildingBlock: AJUNOK_clean_linker_0, # of connection points: 2
#     Edge 31, Type (0, 1), BuildingBlock: AJUNOK_clean_linker_0, # of connection points: 2
#     Edge 32, Type (0, 1), BuildingBlock: AJUNOK_clean_linker_0, # of connection points: 2
#     Edge 33, Type (0, 1), BuildingBlock: AJUNOK_clean_linker_0, # of connection points: 2
#     Edge 34, Type (0, 1), BuildingBlock: AJUNOK_clean_linker_0, # of connection points: 2
#     Edge 35, Type (0, 1), BuildingBlock: AJUNOK_clean_linker_0, # of connection points: 2
# Relax obj value: 0.460
# Max RMSD: 0.262
# Mean RMSD: 0.250
data_MOF--net-zzz--node1-WUSLED_clean_sbu_0--node2-BETFAJ_clean_sbu_0--edge1-AJUNOK_clean_linker_0
_symmetry_space_group_name_H-M    P1
_symmetry_Int_Tables_number       1
_symmetry_cell_setting            triclinic
loop_
_symmetry_equiv_pos_as_xyz
'x, y, z'
_cell_length_a     50.444361
_cell_length_b     50.506488
_cell_length_c     15.470389
_cell_angle_alpha  90.585513
_cell_angle_beta   89.984453
_cell_angle_gamma 90.164915
loop_
_atom_site_label
_atom_site_type_symbol
_atom_site_fract_x
_atom_site_fract_y
_atom_site_fract_z
_atom_type_partial_charge
C0 C 0.80185 0.53281 0.56173 0.0
C1 C 0.81406 0.50778 0.55484 0.0
C2 C 0.85606 0.52569 0.61069 0.0
C3 C 0.84086 0.50436 0.57803 0.0
C4 C 0.84365 0.55051 0.61928 0.0
C5 C 0.81705 0.55403 0.59475 0.0
U6 U 0.7419 0.53133 0.40204 0.0
O7 O 0.71142 0.56171 0.38097 0.0
O8 O 0.69941 0.52201 0.42116 0.0
C9 C 0.69161 0.54509 0.39196 0.0
C10 C 0.77335 0.53732 0.53786 0.0
C11 C 0.67129 0.54449 0.32203 0.0
C12 C 0.6248 0.54293 0.27715 0.0
C13 C 0.6442 0.54254 0.34252 0.0
C14 C 0.65925 0.54691 0.16936 0.0
C15 C 0.63204 0.54552 0.18968 0.0
C16 C 0.6786 0.54638 0.23457 0.0
C17 C 0.79186 0.50146 0.25504 0.0
C18 C 0.82681 0.48218 0.16844 0.0
C19 C 0.83572 0.49623 0.31612 0.0
C20 C 0.80955 0.50444 0.3242 0.0
C21 C 0.84471 0.48545 0.23762 0.0
C22 C 0.80044 0.49009 0.17725 0.0
C23 C 0.76462 0.51044 0.2658 0.0
O24 O 0.76873 0.55617 0.4819 0.0
O25 O 0.75813 0.51642 0.52505 0.0
O26 O 0.76225 0.53613 0.2776 0.0
O27 O 0.75076 0.49649 0.3211 0.0
H28 H 0.80301 0.49084 0.53075 0.0
H29 H 0.84959 0.48487 0.57155 0.0
H30 H 0.85467 0.56738 0.64406 0.0
H31 H 0.80827 0.57348 0.60193 0.0
H32 H 0.60409 0.54168 0.29518 0.0
H33 H 0.63799 0.54095 0.40933 0.0
H34 H 0.66563 0.54821 0.10269 0.0
H35 H 0.69932 0.54759 0.2166 0.0
H36 H 0.83338 0.47413 0.10692 0.0
H37 H 0.84897 0.49861 0.37077 0.0
H38 H 0.80302 0.51346 0.38403 0.0
H39 H 0.78692 0.48771 0.1233 0.0
C40 C 1.01712 0.79879 0.54024 0.0
C41 C 0.03261 0.81704 0.4938 0.0
C42 C 1.02178 0.85273 0.59707 0.0
C43 C 0.03463 0.84371 0.52125 0.0
C44 C 1.00647 0.83435 0.64349 0.0
C45 C 1.00413 0.80787 0.61533 0.0
U46 U 1.01158 0.73931 0.37552 0.0
O47 O 0.02979 0.69974 0.38346 0.0
O48 O 0.98663 0.70333 0.37873 0.0
C49 C 1.00708 0.68728 0.37325 0.0
C50 C 1.01479 0.77015 0.51469 0.0
C51 C 1.00635 0.66742 0.3015 0.0
C52 C 1.00758 0.62138 0.25126 0.0
C53 C 1.0075 0.6402 0.31897 0.0
C54 C 1.00507 0.65667 0.1472 0.0
C55 C 1.00648 0.62933 0.1642 0.0
C56 C 1.00511 0.67545 0.21488 0.0
C57 C 1.02021 0.78949 0.19898 0.0
C58 C 0.04182 0.81862 0.09799 0.0
C59 C 0.02911 0.83502 0.24006 0.0
C60 C 1.01833 0.81032 0.25919 0.0
C61 C 0.04176 0.83901 0.16042 0.0
C62 C 0.03126 0.79389 0.11749 0.0
C63 C 1.01489 0.76241 0.22537 0.0
O64 O 0.9922 0.76244 0.48005 0.0
O65 O 0.03543 0.75894 0.47755 0.0
O66 O 0.03515 0.7513 0.26374 0.0
O67 O 0.99219 0.75827 0.26484 0.0
H68 H 0.04326 0.8107 0.43652 0.0
H69 H 0.04658 0.85724 0.48372 0.0
H70 H 0.9959 0.84056 0.70113 0.0
H71 H 0.99215 0.79434 0.6528 0.0
H72 H 1.00817 0.60057 0.26726 0.0
H73 H 1.00831 0.63348 0.38514 0.0
H74 H 1.00435 0.6636 0.08123 0.0
H75 H 1.00432 0.69632 0.19952 0.0
H76 H 0.05074 0.82158 0.03508 0.0
H77 H 0.02859 0.85059 0.28874 0.0
H78 H 1.00968 0.80709 0.32227 0.0
H79 H 0.03282 0.77791 0.07052 0.0
C80 C 0.74325 1.0162 0.53682 0.0
C81 C 0.72931 0.04024 0.5468 0.0
C82 C 0.68815 1.0168 0.58399 0.0
C83 C 0.70224 0.04052 0.5701 0.0
C84 C 0.70215 0.99281 0.57467 0.0
C85 C 0.72917 0.99251 0.55171 0.0
U86 U 0.80328 1.01221 0.37819 0.0
O87 O 0.84086 0.98998 0.3832 0.0
O88 O 0.84175 0.03324 0.37872 0.0
C89 C 0.85559 1.01127 0.37282 0.0
C90 C 0.77255 1.0158 0.51662 0.0
C91 C 0.8754 1.01014 0.30121 0.0
C92 C 0.92109 1.01477 0.24983 0.0
C93 C 0.90229 1.01583 0.31714 0.0
C94 C 0.88643 1.0026 0.14908 0.0
C95 C 0.91351 1.00782 0.16484 0.0
C96 C 0.86767 1.00372 0.21625 0.0
C97 C 0.74895 1.01365 0.21684 0.0
C98 C 0.7129 1.02043 0.11703 0.0
C99 C 0.70624 0.02824 0.27059 0.0
C100 C 0.73224 1.02045 0.28606 0.0
C101 C 0.69672 0.02923 0.1856 0.0
C102 C 0.73904 1.01291 0.13256 0.0
C103 C 0.77725 1.01067 0.23245 0.0
O104 O 0.78251 0.99338 0.48737 0.0
O105 O 0.78272 0.03652 0.4775 0.0
O106 O 0.78412 0.98916 0.27387 0.0
O107 O 0.7884 0.0323 0.26338 0.0
H108 H 0.73937 0.05894 0.53715 0.0
H109 H 0.69224 0.05939 0.57648 0.0
H110 H 0.69229 0.97413 0.58655 0.0
H111 H 0.73911 0.97359 0.54655 0.0
H112 H 0.94167 1.01903 0.2646 0.0
H113 H 0.90879 1.02105 0.38187 0.0
H114 H 0.87963 0.99792 0.08432 0.0
H115 H 0.84704 0.9996 0.20176 0.0
H116 H 0.70563 1.02026 0.05115 0.0
H117 H 0.69408 0.03475 0.32446 0.0
H118 H 0.73976 1.0211 0.35153 0.0
H119 H 0.75175 1.00757 0.07869 0.0
C120 C 0.51289 0.73046 0.46016 0.0
C121 C 0.48982 0.71545 0.47481 0.0
C122 C 0.51543 0.68078 0.54511 0.0
C123 C 0.49107 0.69091 0.51623 0.0
C124 C 0.53864 0.69535 0.52806 0.0
C125 C 0.5374 0.71994 0.48661 0.0
U126 U 0.51893 0.78675 0.2883 0.0
O127 O 0.53157 0.82779 0.31402 0.0
O128 O 0.49187 0.82017 0.26223 0.0
C129 C 0.51003 0.8381 0.2806 0.0
C130 C 0.51065 0.75807 0.42733 0.0
C131 C 0.5143 0.85911 0.21534 0.0
C132 C 0.49979 0.89984 0.14601 0.0
C133 C 0.49594 0.87982 0.20724 0.0
C134 C 0.54086 0.87922 0.10158 0.0
C135 C 0.52215 0.89963 0.09143 0.0
C136 C 0.53686 0.8591 0.16201 0.0
C137 C 0.54942 0.73783 0.12205 0.0
C138 C 0.57675 0.71433 1.01872 0.0
C139 C 0.56355 0.69195 0.1557 0.0
C140 C 0.54805 0.71529 0.17468 0.0
C141 C 0.57731 0.69251 0.07318 0.0
C142 C 0.56341 0.73705 0.04419 0.0
C143 C 0.53891 0.76354 0.15051 0.0
O144 O 0.53276 0.77118 0.41286 0.0
O145 O 0.49225 0.76266 0.36912 0.0
O146 O 0.55332 0.77598 0.20888 0.0
O147 O 0.51328 0.76505 0.16521 0.0
H148 H 0.4706 0.723 0.45612 0.0
H149 H 0.47287 0.67994 0.52628 0.0
H150 H 0.55774 0.68811 0.54916 0.0
H151 H 0.5556 0.73096 0.47732 0.0
H152 H 0.48497 0.91519 0.14021 0.0
H153 H 0.47848 0.88042 0.24803 0.0
H154 H 0.55871 0.87876 0.06275 0.0
H155 H 0.5515 0.84354 0.16707 0.0
H156 H 0.58702 0.71384 0.95723 0.0
H157 H 0.57178 0.64953 0.2348 0.0
H158 H 0.536 0.71663 0.23257 0.0
H159 H 0.56424 0.7543 1.00314 0.0
C160 C 0.2442 0.50813 0.98354 0.0
C161 C 0.22243 0.50749 0.04036 0.0
C162 C 0.19112 0.51376 0.92072 0.0
C163 C 0.19641 0.51046 1.00955 0.0
C164 C 0.21301 0.51533 0.8643 0.0
C165 C 0.23915 0.51249 0.89529 0.0
U166 U 0.30081 0.51436 0.15211 0.0
O167 O 0.34434 0.51883 0.14107 0.0
O168 O 0.32754 0.48344 0.20074 0.0
C169 C 0.34911 0.49743 0.18648 0.0
C170 C 0.27184 0.50273 1.01427 0.0
C171 C 0.36839 0.49979 0.26024 0.0
C172 C 0.40481 0.52268 0.33529 0.0
C173 C 0.38642 0.5211 0.26688 0.0
C174 C 0.38802 0.48151 0.3916 0.0
C175 C 0.40593 0.50287 0.39879 0.0
C176 C 0.36967 0.47994 0.32342 0.0
C177 C 0.25019 0.55569 0.26543 0.0
C178 C 0.2109 0.56885 0.34395 0.0
C179 C 0.20978 0.56576 0.18734 0.0
C180 C 0.23642 0.55842 0.18712 0.0
C181 C 0.19677 0.57063 0.2659 0.0
C182 C 0.23745 0.56129 0.3437 0.0
C183 C 0.2768 0.54437 0.26592 0.0
O184 O 0.28843 0.52288 1.01755 0.0
O185 O 0.27406 0.48721 0.08159 0.0
O186 O 0.29309 0.55381 0.20741 0.0
O187 O 0.27718 0.51842 0.27075 0.0
H188 H 0.22546 0.50432 0.10878 0.0
H189 H 0.18032 0.50982 0.05561 0.0
H190 H 0.20991 0.51787 0.79563 0.0
H191 H 0.25545 0.51306 0.84974 0.0
H192 H 0.41783 0.53972 0.33917 0.0
H193 H 0.38632 0.53667 0.21929 0.0
H194 H 0.38833 0.46575 0.43855 0.0
H195 H 0.3565 0.46299 0.32013 0.0
H196 H 0.20108 0.57223 0.40537 0.0
H197 H 0.19922 0.56707 0.12656 0.0
H198 H 0.24605 0.55407 0.12606 0.0
H199 H 0.24776 0.55898 0.40459 0.0
C200 C 0.03322 0.24593 0.94267 0.0
C201 C 0.03655 0.22519 1.00161 0.0
C202 C 0.0276 0.19181 0.88823 0.0
C203 C 0.03356 0.19859 0.97502 0.0
C204 C 0.02451 0.21274 0.82942 0.0
C205 C 0.02708 0.23934 0.85644 0.0
U206 U 0.03387 0.30462 0.10844 0.0
O207 O 1.02059 0.34599 0.09468 0.0
O208 O 0.0622 0.33771 0.12312 0.0
C209 C 0.04363 0.35588 0.11854 0.0
C210 C 0.03705 0.27435 0.96815 0.0
C211 C 0.04287 0.37526 0.19159 0.0
C212 C 0.04581 0.42078 0.24618 0.0
C213 C 0.04615 0.40249 0.1769 0.0
C214 C 0.03867 0.38491 0.34593 0.0
C215 C 0.04207 0.41226 0.33187 0.0
C216 C 0.03901 0.36669 0.27679 0.0
C217 C 1.01246 0.25347 0.26946 0.0
C218 C 1.01024 0.2174 0.37079 0.0
C219 C 0.99679 0.21035 0.22168 0.0
C220 C 1.0026 0.23672 0.20401 0.0
C221 C 1.0007 0.20047 0.30509 0.0
C222 C 1.01623 0.24375 0.35287 0.0
C223 C 1.01963 0.2808 0.25037 0.0
O224 O 1.01568 0.28773 0.98976 0.0
O225 O 0.05736 0.27987 1.01859 0.0
O226 O 0.04455 0.28433 0.22851 0.0
O227 O 1.00286 0.29334 0.20043 0.0
H228 H 0.04173 0.22953 0.06816 0.0
H229 H 0.03603 0.18327 0.02277 0.0
H230 H 1.02082 0.20868 0.76167 0.0
H231 H 0.02475 0.25484 0.80919 0.0
H232 H 0.04899 0.44154 0.23268 0.0
H233 H 0.04919 0.40962 0.11182 0.0
H234 H 0.03554 0.37758 0.41069 0.0
H235 H 0.03633 0.34582 0.28991 0.0
H236 H 1.01281 0.21034 0.43614 0.0
H237 H 0.98944 0.19764 0.17015 0.0
H238 H 0.99953 0.24402 0.1392 0.0
H239 H 0.02378 0.25651 0.40397 0.0
C240 C 0.29604 1.02118 0.95184 0.0
C241 C 0.31184 0.04425 0.95351 0.0
C242 C 0.35013 1.02008 0.89432 0.0
C243 C 0.33848 0.04365 0.92588 0.0
C244 C 0.33421 0.99714 0.89144 0.0
C245 C 0.30767 0.99766 0.92014 0.0
U246 U 0.23667 0.03436 0.1104 0.0
O247 O 0.20152 1.00922 0.1314 0.0
O248 O 0.19629 0.0503 0.09165 0.0
C249 C 0.18474 0.02877 0.12093 0.0
C250 C 0.26719 1.02139 0.9771 0.0
C251 C 0.16519 0.03243 0.19234 0.0
C252 C 0.11999 0.02799 0.24786 0.0
C253 C 0.13836 0.02597 0.17956 0.0
C254 C 0.15497 0.04309 0.3432 0.0
C255 C 0.12797 0.03666 0.33081 0.0
C256 C 0.1733 0.04103 0.27492 0.0
C257 C 0.2902 0.05177 0.26632 0.0
C258 C 0.32389 0.03648 0.36442 0.0
C259 C 0.33349 0.03958 0.21109 0.0
C260 C 0.30819 0.04969 0.19731 0.0
C261 C 0.34073 0.03143 0.29395 0.0
C262 C 0.29864 0.04664 0.35059 0.0
C263 C 0.26188 0.05107 0.24808 0.0
O264 O 0.25962 1.00444 0.03625 0.0
O265 O 0.25546 0.04452 0.98593 0.0
O266 O 0.25331 0.06725 0.1882 0.0
O267 O 0.25302 0.02677 0.23856 0.0
H268 H 0.30363 0.06289 0.97575 0.0
H269 H 0.34989 0.06184 0.92792 0.0
H270 H 0.34239 0.97863 0.86784 0.0
H271 H 0.29607 0.9796 0.91674 0.0
H272 H 0.09947 0.02283 0.23564 0.0
H273 H 0.13164 1.01912 0.11672 0.0
H274 H 0.16211 0.04914 0.40637 0.0
H275 H 0.19393 0.04579 0.28697 0.0
H276 H 0.32945 0.0305 0.42899 0.0
H277 H 0.34635 0.03584 0.15617 0.0
H278 H 0.30176 0.05332 0.13185 0.0
H279 H 0.28487 0.04787 0.40427 0.0
C280 C 0.49667 0.30305 0.97696 0.0
C281 C 0.50182 0.32235 0.04111 0.0
C282 C 0.50317 0.35743 0.93231 0.0
C283 C 0.50502 0.34919 1.01906 0.0
C284 C 0.49799 0.33794 0.86862 0.0
C285 C 0.4949 0.31119 0.89064 0.0
U286 U 0.50293 0.24059 0.12122 0.0
O287 O 0.50904 0.19834 0.08818 0.0
O288 O 0.47226 0.21098 0.151 0.0
C289 C 0.48735 0.19088 0.12856 0.0
C290 C 0.49178 0.27466 0.99798 0.0
C291 C 0.49078 0.1704 0.19596 0.0
C292 C 0.48958 0.12417 0.24099 0.0
C293 C 0.48735 0.14339 0.17615 0.0
C294 C 0.499 0.15868 0.34619 0.0
C295 C 0.49521 0.13162 0.3271 0.0
C296 C 0.49694 0.1778 0.28146 0.0
C297 C 0.5422 0.28466 0.27299 0.0
C298 C 0.54884 0.31908 0.38048 0.0
C299 C 0.55961 0.32739 0.2302 0.0
C300 C 0.55172 0.30167 0.20859 0.0
C301 C 0.55774 0.3363 0.31603 0.0
C302 C 0.5412 0.29335 0.35907 0.0
C303 C 0.531 0.25877 0.25086 0.0
O304 O 0.51232 0.25868 0.99506 0.0
O305 O 0.47608 0.26996 0.06396 0.0
O306 O 0.50497 0.25791 0.25172 0.0
O307 O 0.54158 0.24662 0.18373 0.0
H308 H 0.5031 0.31672 0.10834 0.0
H309 H 0.50902 0.36352 0.07 0.0
H310 H 0.49569 0.34342 0.80156 0.0
H311 H 0.49066 0.29684 0.83995 0.0
H312 H 0.48622 0.10357 0.22413 0.0
H313 H 0.4826 0.13717 0.11073 0.0
H314 H 0.50357 0.16511 0.41153 0.0
H315 H 0.49988 0.19846 0.29847 0.0
H316 H 0.54728 0.32577 0.44707 0.0
H317 H 0.56616 0.3406 0.17972 0.0
H318 H 0.55227 0.29538 0.14146 0.0
H319 H 0.53372 0.2805 0.40924 0.0
Sm320 Sm 0.04455 1.01954 0.8004 0.0
Sm321 Sm 0.99963 0.02354 0.70097 0.0
C322 C 0.08324 1.00807 0.90961 0.0
C323 C 0.08978 0.98441 0.95949 0.0
C324 C 0.087 0.98515 0.04976 0.0
C325 C 0.08604 0.96166 0.09615 0.0
C326 C 0.08809 0.93725 0.05267 0.0
C327 C 0.09369 0.93668 0.96383 0.0
C328 C 0.0945 0.9601 0.91742 0.0
C329 C 0.05799 0.03675 0.63525 0.0
C330 C 0.0236 0.96545 0.70423 0.0
C331 C 0.96088 0.03502 0.59195 0.0
C332 C 0.96009 0.05289 0.51781 0.0
C333 C 0.97973 0.05142 0.45342 0.0
C334 C 0.98399 0.07276 0.3989 0.0
C335 C 0.96888 0.09583 0.40885 0.0
C336 C 0.94729 0.09607 0.46603 0.0
C337 C 0.94287 0.07462 0.52021 0.0
C338 C 0.98591 1.00676 0.86622 0.0
C339 C 0.02338 0.07842 0.78799 0.0
O340 O 0.06135 1.01988 0.93277 0.0
O341 O 0.08575 1.00633 0.82578 0.0
O342 O 0.04179 1.01836 0.65208 0.0
O343 O 0.06646 0.04739 0.70655 0.0
O344 O 0.03439 0.97467 0.7764 0.0
O345 O 1.01165 0.98217 0.653 0.0
O346 O 0.9758 1.01412 0.58391 0.0
O347 O 0.96383 0.04673 0.66685 0.0
O348 O 1.00217 0.02508 0.84901 0.0
O349 O 0.97761 0.99603 0.79506 0.0
O350 O 1.0111 0.06848 0.71924 0.0
O351 O 0.03585 0.06228 0.83967 0.0
H352 H 0.08343 1.00372 0.08341 0.0
H353 H 0.08181 0.96247 0.1648 0.0
H354 H 0.09504 0.91806 0.92872 0.0
H355 H 0.09677 0.95888 0.84787 0.0
H356 H 0.99323 0.0348 0.44956 0.0
H357 H 1.00046 0.0721 0.35394 0.0
H358 H 0.93536 0.11372 0.47442 0.0
H359 H 0.92756 0.07605 0.56915 0.0
Sm360 Sm 0.52134 0.04059 0.77818 0.0
Sm361 Sm 0.51363 0.99905 0.66404 0.0
C362 C 0.53465 0.07567 0.89938 0.0
C363 C 0.55101 0.07298 0.97635 0.0
C364 C 0.55679 0.04755 1.00632 0.0
C365 C 0.57752 0.04389 0.06405 0.0
C366 C 0.59282 0.0656 0.09172 0.0
C367 C 0.58504 0.09135 0.06931 0.0
C368 C 0.56428 0.09501 1.01104 0.0
C369 C 0.50271 0.05921 0.62031 0.0
C370 C 0.57416 1.01791 0.6786 0.0
C371 C 0.4997 0.96451 0.5421 0.0
C372 C 0.47577 0.96095 0.48972 0.0
C373 C 0.47765 0.96301 0.39951 0.0
C374 C 0.45496 0.96763 0.35049 0.0
C375 C 0.43024 0.96983 0.39137 0.0
C376 C 0.42813 0.965 0.48033 0.0
C377 C 0.45074 0.96064 0.52928 0.0
C378 C 0.53218 0.97947 0.8195 0.0
C379 C 0.46225 1.01865 0.77775 0.0
O380 O 0.51248 0.06243 0.89995 0.0
O381 O 0.54746 0.07295 0.82663 0.0
O382 O 0.52046 0.04201 0.63004 0.0
O383 O 0.49387 0.06656 0.69504 0.0
O384 O 0.56562 0.02856 0.75198 0.0
O385 O 0.5567 1.00759 0.62499 0.0
O386 O 0.51276 0.98627 0.52673 0.0
O387 O 0.49765 0.95972 0.6246 0.0
O388 O 0.51475 0.99727 0.81218 0.0
O389 O 0.54171 0.97353 0.74419 0.0
O390 O 0.46945 1.00976 0.70036 0.0
O391 O 0.48073 0.02798 0.82928 0.0
H392 H 0.54674 0.03031 0.97969 0.0
H393 H 0.58315 0.02385 0.08015 0.0
H394 H 0.59637 0.1084 0.09122 0.0
H395 H 0.55989 0.11476 0.98846 0.0
H396 H 0.49684 0.96329 0.36801 0.0
H397 H 0.45693 0.97132 0.28192 0.0
H398 H 0.40933 0.96706 0.51359 0.0
H399 H 0.44872 0.95922 0.5988 0.0
Sm400 Sm 0.49742 0.5325 0.85401 0.0
Sm401 Sm 0.53958 0.52022 0.74267 0.0
C402 C 0.47092 0.55704 0.97862 0.0
C403 C 0.479 0.58214 0.02221 0.0
C404 C 0.49529 0.58125 0.09593 0.0
C405 C 0.51223 0.60241 0.11581 0.0
C406 C 0.51313 0.62466 0.06209 0.0
C407 C 0.49382 0.6273 0.99749 0.0
C408 C 0.47653 0.60632 0.97871 0.0
C409 C 0.4765 0.51207 0.7016 0.0
C410 C 0.51943 0.57841 0.72124 0.0
C411 C 0.57731 0.5024 0.63794 0.0
C412 C 0.5795 0.48314 0.56688 0.0
C413 C 0.56177 0.48348 0.49694 0.0
C414 C 0.56129 0.46251 0.43782 0.0
C415 C 0.57843 0.44094 0.4481 0.0
C416 C 0.59739 0.44154 0.51448 0.0
C417 C 0.59797 0.46259 0.57334 0.0
C418 C 0.55731 0.54183 0.89917 0.0
C419 C 0.51107 0.47055 0.84009 0.0
O420 O 0.48644 0.53687 0.99259 0.0
O421 O 0.46429 0.55862 0.89714 0.0
O422 O 0.49631 0.52762 0.70608 0.0
O423 O 0.46717 0.50744 0.77833 0.0
O424 O 0.51025 0.57397 0.79994 0.0
O425 O 0.52904 0.55862 0.6761 0.0
O426 O 0.56359 0.52372 0.62326 0.0
O427 O 0.57254 0.49246 0.7139 0.0
O428 O 0.53996 0.52407 0.88976 0.0
O429 O 0.56484 0.5497 0.82399 0.0
O430 O 0.52299 0.47811 0.76842 0.0
O431 O 0.50098 0.48861 0.89268 0.0
H432 H 0.4972 0.56314 0.13232 0.0
H433 H 0.52677 0.59989 0.16656 0.0
H434 H 0.49378 0.64452 0.95635 0.0
H435 H 0.46324 0.60804 0.92421 0.0
H436 H 0.54741 0.4992 0.49028 0.0
H437 H 0.5465 0.46239 0.38703 0.0
H438 H 0.61047 0.42488 0.52471 0.0
H439 H 0.61181 0.46205 0.62688 0.0
Sm440 Sm 1.02078 0.49749 0.80378 0.0
Sm441 Sm 0.0273 0.54066 0.69991 0.0
C442 C 1.00724 0.46123 0.91819 0.0
C443 C 0.98945 0.4637 0.99183 0.0
C444 C 0.97682 0.48798 1.00587 0.0
C445 C 0.95735 0.4903 0.06865 0.0
C446 C 0.95052 0.46851 0.1199 0.0
C447 C 0.96437 0.44454 0.10907 0.0
C448 C 0.98379 0.44213 0.04492 0.0
C449 C 0.03876 0.48118 0.64051 0.0
C450 C 0.96868 0.51871 0.70792 0.0
C451 C 0.03871 0.57727 0.5836 0.0
C452 C 0.05261 0.57648 0.50104 0.0
C453 C 0.06463 0.5529 0.47381 0.0
C454 C 0.08258 0.55312 0.40557 0.0
C455 C 0.08843 0.5769 0.36287 0.0
C456 C 0.07395 0.59983 0.38426 0.0
C457 C 0.05633 0.59968 0.45388 0.0
C458 C 1.00964 0.55737 0.86274 0.0
C459 C 0.0798 0.51828 0.80034 0.0
O460 O 0.02872 0.47546 0.9243 0.0
O461 O 0.99578 0.46341 0.84299 0.0
O462 O 1.02112 0.49828 0.6549 0.0
O463 O 0.04774 0.47263 0.71322 0.0
O464 O 0.97705 0.5114 0.78471 0.0
O465 O 0.98636 0.52664 0.65163 0.0
O466 O 1.0163 0.56452 0.58561 0.0
O467 O 0.05343 0.57259 0.65102 0.0
O468 O 0.02719 0.54013 0.84834 0.0
O469 O 1.00047 0.56571 0.79009 0.0
O470 O 0.07181 0.52868 0.72646 0.0
O471 O 0.06189 0.50856 0.85242 0.0
H472 H 0.98114 0.50483 0.96534 0.0
H473 H 0.9465 0.50874 0.07286 0.0
H474 H 0.95936 0.42744 0.14757 0.0
H475 H 0.99365 0.42332 0.03484 0.0
H476 H 0.06171 0.53477 0.50961 0.0
H477 H 0.09367 0.53521 0.39242 0.0
H478 H 0.07792 0.61835 0.35192 0.0
H479 H 0.04695 0.61798 0.47417 0.0
C480 C 0.09051 1.01722 0.41995 0.0
C481 C 0.1085 0.03815 0.40474 0.0
C482 C 0.07342 1.01735 0.49232 0.0
C483 C 0.07359 0.03839 0.55295 0.0
H484 H 0.09021 1.00013 0.3771 0.0
H485 H 0.06067 1.00036 0.50237 0.0
S486 S 0.11389 0.09975 0.53702 0.0
N487 N 0.12308 0.08185 0.4523 0.0
N488 N 0.09148 0.08186 0.58807 0.0
C489 C 0.09053 0.05996 0.53639 0.0
C490 C 0.10783 0.05989 0.46267 0.0
C491 C 0.48229 0.1163 0.47558 0.0
C492 C 0.49628 0.11164 0.39812 0.0
C493 C 0.48384 0.09878 0.54541 0.0
C494 C 0.49967 0.07586 0.54155 0.0
H495 H 0.47006 0.13378 0.48255 0.0
H496 H 0.47291 0.10361 0.6037 0.0
S497 S 0.53988 0.05402 0.35285 0.0
N498 N 0.52613 0.08193 0.32113 0.0
N499 N 0.52909 0.04905 0.45225 0.0
C500 C 0.51333 0.07057 0.46377 0.0
C501 C 0.51161 0.0884 0.39223 0.0
C502 C 0.416 0.49893 0.55825 0.0
C503 C 0.42488 0.50473 0.47407 0.0
C504 C 0.43294 0.50079 0.63038 0.0
C505 C 0.45965 0.50872 0.62232 0.0
H506 H 0.39552 0.49334 0.56901 0.0
H507 H 0.42477 0.49643 0.69342 0.0
S508 S 0.49376 0.52402 0.41611 0.0
N509 N 0.46301 0.51705 0.38674 0.0
N510 N 0.49455 0.52112 0.52235 0.0
C511 C 0.46903 0.51411 0.53854 0.0
C512 C 0.45177 0.51205 0.46471 0.0
C513 C 0.05653 0.42536 0.48264 0.0
C514 C 0.04222 0.4314 0.40711 0.0
C515 C 0.05601 0.44202 0.5561 0.0
C516 C 0.041 0.4655 0.55806 0.0
H517 H 0.06822 0.40742 0.4853 0.0
H518 H 0.06707 0.43606 0.61263 0.0
S519 S 1.0007 0.49126 0.37655 0.0
N520 N 1.01306 0.46321 0.33853 0.0
N521 N 1.01228 0.49454 0.47598 0.0
C522 C 0.02718 0.47227 0.48224 0.0
C523 C 0.02775 0.45528 0.40712 0.0
C524 C 0.95248 0.02652 0.08036 0.0
C525 C 0.93357 1.00621 0.09264 0.0
C526 C 0.97016 0.02615 1.00934 0.0
C527 C 0.96975 1.00541 0.94755 0.0
H528 H 0.95306 0.04332 0.1244 0.0
H529 H 0.98361 0.04269 1.0013 0.0
S530 S 0.92686 0.9456 0.95624 0.0
N531 N 0.91768 0.96341 0.04113 0.0
N532 N 0.95044 0.96283 0.90846 0.0
C533 C 0.95184 0.98441 0.96149 0.0
C534 C 0.93391 0.98478 0.03352 0.0
C535 C 0.52069 0.94714 0.03927 0.0
C536 C 0.52557 0.92006 0.02235 0.0
C537 C 0.52338 0.96637 0.97417 0.0
C538 C 0.53136 0.95936 0.88974 0.0
H539 H 0.51475 0.95357 0.10339 0.0
H540 H 0.51905 0.98684 0.98997 0.0
S541 S 0.54436 0.89093 0.80964 0.0
N542 N 0.53694 0.88723 0.91265 0.0
N543 N 0.54296 0.92306 0.79223 0.0
C544 C 0.53627 0.93235 0.87209 0.0
C545 C 0.53314 0.91282 0.93775 0.0
C546 C 0.59087 0.5275 0.11557 0.0
C547 C 0.61145 0.54645 0.11955 0.0
C548 C 0.57269 0.52678 0.04622 0.0
C549 C 0.5743 0.545 0.97791 0.0
H550 H 0.58935 0.5125 0.16487 0.0
H551 H 0.55785 0.51124 0.04468 0.0
S552 S 0.6219 0.60098 0.96396 0.0
N553 N 0.63035 0.58566 0.05356 0.0
N554 N 0.59653 0.5842 0.9237 0.0
C555 C 0.59387 0.56488 0.9836 0.0
C556 C 0.61233 0.56561 0.05404 0.0
C557 C 0.98881 0.612 0.02135 0.0
C558 C 1.00663 0.60944 0.09097 0.0
C559 C 0.98936 0.59454 0.94976 0.0
C560 C 1.0078 0.57368 0.94404 0.0
H561 H 0.97431 0.62779 0.02188 0.0
H562 H 0.97545 0.59775 0.8976 0.0
S563 S 0.0588 0.55806 0.10843 0.0
N564 N 0.04333 0.58412 0.14909 0.0
N565 N 0.04409 0.55122 1.01554 0.0
C566 C 0.02534 0.57046 1.01398 0.0
C567 C 0.02483 0.58831 0.08696 0.0
C568 C 0.96878 0.16273 0.30216 0.0
C569 C 0.99396 0.17274 0.32433 0.0
C570 C 0.96103 0.13726 0.32652 0.0
C571 C 0.97837 0.12096 0.37265 0.0
H572 H 0.95464 0.17504 0.26865 0.0
H573 H 0.94117 0.13049 0.3111 0.0
S574 S 0.04686 0.13747 0.44277 0.0
N575 N 0.03662 0.16404 0.39133 0.0
N576 N 1.02192 0.11627 0.43846 0.0
C577 C 1.0039 0.13042 0.39282 0.0
C578 C 1.01173 0.15633 0.36836 0.0
C579 C 0.38937 0.02321 0.29013 0.0
C580 C 0.3636 1.01397 0.30533 0.0
C581 C 0.41125 1.00758 0.31117 0.0
C582 C 0.40778 0.98229 0.34716 0.0
H583 H 0.39261 0.04307 0.26638 0.0
H584 H 0.4309 1.01607 0.30487 0.0
S585 S 0.34407 0.94757 0.38326 0.0
N586 N 0.33557 0.97697 0.34674 0.0
N587 N 0.3768 0.94746 0.3857 0.0
C588 C 0.38206 0.97209 0.35545 0.0
C589 C 0.35989 0.98802 0.33468 0.0
C590 C 0.54271 0.37942 0.37428 0.0
C591 C 0.56315 0.36406 0.3385 0.0
C592 C 0.54765 0.40501 0.40477 0.0
C593 C 0.57327 0.41598 0.40106 0.0
H594 H 0.52291 0.37127 0.38087 0.0
H595 H 0.53159 0.41576 0.43551 0.0
S596 S 0.63308 0.38426 0.30784 0.0
N597 N 0.60946 0.36176 0.29628 0.0
N598 N 0.61894 0.41021 0.35442 0.0
C599 C 0.59367 0.40119 0.36228 0.0
C600 C 0.58854 0.37511 0.33052 0.0
C601 C 0.15843 0.59732 0.31618 0.0
C602 C 0.16802 0.57558 0.2687 0.0
C603 C 0.13166 0.59908 0.33817 0.0
C604 C 0.1136 0.57899 0.31412 0.0
H605 H 0.17204 0.61215 0.34131 0.0
H606 H 0.12569 0.61507 0.38108 0.0
S607 S 0.12835 0.52011 0.17729 0.0
N608 N 0.15721 0.53524 0.1892 0.0
N609 N 0.10665 0.53857 0.23019 0.0
C610 C 0.12257 0.55845 0.25957 0.0
C611 C 0.14988 0.55673 0.23693 0.0
C612 C 0.04192 0.88823 0.15529 0.0
C613 C 0.05536 0.86421 0.1428 0.0
C614 C 0.05358 0.91217 0.13136 0.0
C615 C 0.07906 0.9128 0.09445 0.0
H616 H 1.02182 0.88841 0.18 0.0
H617 H 0.04195 0.93011 0.13717 0.0
S618 S 0.12391 0.85574 0.06044 0.0
N619 N 0.09654 0.84268 0.10053 0.0
N620 N 0.11839 0.88789 0.05463 0.0
C621 C 0.09329 0.88911 0.08639 0.0
C622 C 0.08145 0.86474 0.1108 0.0
C623 C 0.64805 0.03247 0.2139 0.0
C624 C 0.67055 0.04092 0.16802 0.0
C625 C 0.62284 0.04205 0.1933 0.0
C626 C 0.61946 0.06051 0.1268 0.0
H627 H 0.64981 1.0176 0.26353 0.0
H628 H 0.60577 0.03417 0.22704 0.0
S629 S 0.67254 0.09065 0.99343 0.0
N630 N 0.68826 0.0705 0.05909 0.0
N631 N 0.64085 0.08785 1.01825 0.0
C632 C 0.64201 0.0701 0.08367 0.0
C633 C 0.66758 0.06041 0.1047 0.0
C634 C 0.57739 0.65498 0.97497 0.0
C635 C 0.58969 0.66732 0.04668 0.0
C636 C 0.55229 0.64234 0.9807 0.0
C637 C 0.53776 0.64059 0.05877 0.0
H638 H 0.58627 0.65736 0.91181 0.0
H639 H 0.54395 0.63409 0.92173 0.0
S640 S 0.56786 0.68192 0.3054 0.0
N641 N 0.59906 0.6725 0.2127 0.0
N642 N 0.53793 0.66238 0.22361 0.0
C643 C 0.55108 0.6486 0.1328 0.0
C644 C 0.58758 0.65513 0.12462 0.0
C645 C 0.88023 0.45507 0.18548 0.0
C646 C 0.87301 0.47909 0.22544 0.0
C647 C 0.90634 0.45055 0.15921 0.0
C648 C 0.92607 0.46991 0.17224 0.0
H649 H 0.86531 0.44025 0.17039 0.0
H650 H 0.91054 0.4327 0.12234 0.0
S651 S 0.91807 0.53462 0.28437 0.0
N652 N 0.88804 0.52153 0.28349 0.0
N653 N 0.93748 0.51238 0.23797 0.0
C654 C 0.9196 0.49292 0.21947 0.0
C655 C 0.89294 0.49772 0.24504 0.0
C656 C 0.04393 0.14444 0.89249 0.0
C657 C 0.02597 0.1631 0.85917 0.0
C658 C 0.043 0.11753 0.86801 0.0
C659 C 0.02421 0.10765 0.80814 0.0
H660 H 0.05914 0.15067 0.93773 0.0
H661 H 0.05736 0.10433 0.89657 0.0
S662 S 0.97214 0.14758 0.70176 0.0
N663 N 0.98814 0.16919 0.76353 0.0
N664 N 0.98703 0.11888 0.71603 0.0
C665 C 1.00628 0.12599 0.77316 0.0
C666 C 1.00701 0.15352 0.79887 0.0
C667 C 0.38626 1.00835 0.7848 0.0
C668 C 0.37879 1.01942 0.86548 0.0
C669 C 0.41302 1.00814 0.75656 0.0
C670 C 0.43368 1.01872 0.80811 0.0
H671 H 0.37122 1.0001 0.74238 0.0
H672 H 0.4175 0.99962 0.69373 0.0
S673 S 0.4249 0.04826 0.02817 0.0
N674 N 0.39458 0.04001 0.9981 0.0
N675 N 0.44429 0.03968 0.94668 0.0
C676 C 0.42638 0.02938 0.88983 0.0
C677 C 0.39921 0.02973 0.91796 0.0
C678 C 0.49286 0.40612 0.95674 0.0
C679 C 0.50591 0.38622 0.90839 0.0
C680 C 0.49445 0.43309 0.93402 0.0
C681 C 0.50922 0.44158 0.86181 0.0
H682 H 0.4809 0.40079 1.01209 0.0
H683 H 0.48389 0.4474 0.97353 0.0
S684 S 0.54877 0.39771 0.71677 0.0
N685 N 0.53535 0.3773 0.78716 0.0
N686 N 0.53809 0.42751 0.74396 0.0
C687 C 0.52266 0.42188 0.81348 0.0
C688 C 0.52107 0.39444 0.83677 0.0
C689 C 0.15469 0.53278 0.82436 0.0
C690 C 0.16292 0.51438 0.8873 0.0
C691 C 0.12811 0.53375 0.79455 0.0
C692 C 0.10853 0.5164 0.82651 0.0
H693 H 0.1688 0.54693 0.79911 0.0
H694 H 0.12276 0.54858 0.74767 0.0
S695 S 0.12024 0.46234 0.98369 0.0
N696 N 0.14942 0.4768 0.9738 0.0
N697 N 0.10008 0.47885 0.92011 0.0
C698 C 0.11677 0.49743 0.88742 0.0
C699 C 0.14368 0.49637 0.91714 0.0
C700 C 1.01831 0.9018 0.56741 0.0
C701 C 0.02357 0.88132 0.62606 0.0
C702 C 1.01853 0.92865 0.59347 0.0
C703 C 0.02442 0.93652 0.67929 0.0
H704 H 1.01338 0.89702 0.5009 0.0
H705 H 1.01397 0.9434 0.54541 0.0
S706 S 0.04117 0.8908 0.85772 0.0
N707 N 0.0358 0.87096 0.77391 0.0
N708 N 0.03657 0.92121 0.82238 0.0
C709 C 0.03037 0.91627 0.73828 0.0
C710 C 0.02979 0.88883 0.71193 0.0
C711 C 0.64918 0.0335 0.67454 0.0
C712 C 0.65903 1.01695 0.60771 0.0
C713 C 0.62202 0.03343 0.69829 0.0
C714 C 0.60329 1.01712 0.65542 0.0
H715 H 0.66264 0.04642 0.70965 0.0
H716 H 0.61564 0.04653 0.75005 0.0
S717 S 0.61859 0.97066 0.47387 0.0
N718 N 0.64748 0.98423 0.49801 0.0
N719 N 0.59705 0.98401 0.54165 0.0
C720 C 0.61296 1.00063 0.58806 0.0
C721 C 0.64055 1.00056 0.56459 0.0
C722 C 0.53508 0.63559 0.56957 0.0
C723 C 0.51663 0.65522 0.59337 0.0
C724 C 0.53602 0.61113 0.61221 0.0
C725 C 0.51883 0.60528 0.68147 0.0
H726 H 0.54856 0.63893 0.51621 0.0
H727 H 0.55035 0.59662 0.59024 0.0
S728 S 0.46739 0.65021 0.77092 0.0
N729 N 0.48125 0.66739 0.69267 0.0
N730 N 0.48292 0.62147 0.77186 0.0
C731 C 0.50063 0.62491 0.7069 0.0
C732 C 0.49952 0.64978 0.66307 0.0
C733 C 0.89383 0.53124 0.71772 0.0
C734 C 0.88469 0.52232 0.63614 0.0
C735 C 0.92076 0.52914 0.74195 0.0
C736 C 0.93986 0.51871 0.68472 0.0
H737 H 0.88001 0.53993 0.76341 0.0
H738 H 0.92679 0.5365 0.80498 0.0
S739 S 0.92647 0.49125 0.46567 0.0
N740 N 0.89715 0.50142 0.4999 0.0
N741 N 0.94755 0.49829 0.54432 0.0
C742 C 0.931 0.50944 0.60355 0.0
C743 C 0.90353 0.51099 0.57963 0.0
loop_
_geom_bond_atom_site_label_1
_geom_bond_atom_site_label_2
_geom_bond_distance
_geom_bond_site_symmetry_2
_ccdc_geom_bond_type
C0 C1 1.264 . S
C0 C5 1.479 . S
C0 C10 1.465 . S
C1 C0 1.264 . S
C1 C3 1.339 . S
C1 H28 0.931 . S
C2 C3 1.395 . S
C2 C4 1.320 . S
C3 C1 1.339 . S
C3 C2 1.395 . S
C3 H29 0.929 . S
C4 C2 1.320 . S
C4 C5 1.405 . S
C4 H30 0.930 . S
C5 C0 1.479 . S
C5 C4 1.405 . S
C5 H31 0.931 . S
U6 O7 2.454 . S
U6 O8 2.458 . S
U6 C9 2.984 . S
U6 C10 2.847 . S
U6 C23 2.882 . S
U6 O24 2.441 . S
U6 O25 2.420 . S
U6 O26 2.455 . S
U6 O27 2.449 . S
O7 U6 2.454 . S
O7 C9 1.353 . S
O8 U6 2.458 . S
O8 C9 1.286 . S
C9 U6 2.984 . S
C9 O7 1.353 . S
C9 O8 1.286 . S
C9 C11 1.363 . S
C10 C0 1.465 . S
C10 U6 2.847 . S
C10 O24 1.249 . S
C10 O25 1.202 . S
C11 C9 1.363 . S
C11 C13 1.408 . S
C11 C16 1.342 . S
C12 C13 1.310 . S
C12 C15 1.461 . S
C12 H32 0.932 . S
C13 C11 1.408 . S
C13 C12 1.310 . S
C13 H33 0.930 . S
C14 C15 1.474 . S
C14 C16 1.285 . S
C14 H34 0.929 . S
C15 C12 1.461 . S
C15 C14 1.474 . S
C16 C11 1.342 . S
C16 C14 1.285 . S
C16 H35 0.930 . S
C17 C20 1.424 . S
C17 C22 1.245 . S
C17 C23 1.428 . S
C18 C21 1.260 . S
C18 C22 1.477 . S
C18 H36 0.932 . S
C19 C20 1.384 . S
C19 C21 1.479 . S
C19 H37 0.929 . S
C20 C17 1.424 . S
C20 C19 1.384 . S
C20 H38 0.928 . S
C21 C18 1.260 . S
C21 C19 1.479 . S
C22 C17 1.245 . S
C22 C18 1.477 . S
C22 H39 0.932 . S
C23 U6 2.882 . S
C23 C17 1.428 . S
C23 O26 1.301 . S
C23 O27 1.282 . S
O24 U6 2.441 . S
O24 C10 1.249 . S
O25 U6 2.420 . S
O25 C10 1.202 . S
O26 U6 2.455 . S
O26 C23 1.301 . S
O27 U6 2.449 . S
O27 C23 1.282 . S
H28 C1 0.931 . S
H29 C3 0.929 . S
H30 C4 0.930 . S
H31 C5 0.931 . S
H32 C12 0.932 . S
H33 C13 0.930 . S
H34 C14 0.929 . S
H35 C16 0.930 . S
H36 C18 0.932 . S
H37 C19 0.929 . S
H38 C20 0.928 . S
H39 C22 0.932 . S
C40 C41 1.264 . S
C40 C45 1.479 . S
C40 C50 1.465 . S
C41 C40 1.264 . S
C41 C43 1.339 . S
C41 H68 0.931 . S
C42 C43 1.395 . S
C42 C44 1.320 . S
C43 C41 1.339 . S
C43 C42 1.395 . S
C43 H69 0.929 . S
C44 C42 1.320 . S
C44 C45 1.405 . S
C44 H70 0.921 1_455 S
C45 C40 1.479 . S
C45 C44 1.405 . S
C45 H71 0.931 . S
U46 O47 2.454 . S
U46 O48 2.458 . S
U46 C49 2.984 . S
U46 C50 2.847 . S
U46 C63 2.882 . S
U46 O64 2.441 . S
U46 O65 2.420 . S
U46 O66 2.455 . S
U46 O67 2.449 . S
O47 U46 2.454 . S
O47 C49 1.353 . S
O48 U46 2.458 . S
O48 C49 1.286 . S
C49 U46 2.984 . S
C49 O47 1.353 . S
C49 O48 1.286 . S
C49 C51 1.363 . S
C50 C40 1.465 . S
C50 U46 2.847 . S
C50 O64 1.249 . S
C50 O65 1.202 . S
C51 C49 1.363 . S
C51 C53 1.408 . S
C51 C56 1.342 . S
C52 C53 1.310 . S
C52 C55 1.461 . S
C52 H72 0.932 . S
C53 C51 1.408 . S
C53 C52 1.310 . S
C53 H73 0.930 . S
C54 C55 1.474 1_655 S
C54 C56 1.285 1_655 S
C54 H74 0.930 . S
C55 C52 1.461 . S
C55 C54 1.474 1_455 S
C56 C51 1.342 . S
C56 C54 1.285 1_455 S
C56 H75 0.933 . S
C57 C60 1.424 . S
C57 C62 1.245 . S
C57 C63 1.428 . S
C58 C61 1.260 . S
C58 C62 1.477 . S
C58 H76 0.932 . S
C59 C60 1.384 . S
C59 C61 1.479 . S
C59 H77 0.929 . S
C60 C57 1.424 . S
C60 C59 1.384 . S
C60 H78 0.928 . S
C61 C58 1.260 . S
C61 C59 1.479 . S
C62 C57 1.245 . S
C62 C58 1.477 . S
C62 H79 0.932 . S
C63 U46 2.882 . S
C63 C57 1.428 . S
C63 O66 1.301 . S
C63 O67 1.282 . S
O64 U46 2.441 . S
O64 C50 1.249 . S
O65 U46 2.420 . S
O65 C50 1.202 . S
O66 U46 2.455 . S
O66 C63 1.301 . S
O67 U46 2.449 . S
O67 C63 1.282 . S
H68 C41 0.931 . S
H69 C43 0.929 . S
H70 C44 0.921 1_655 S
H71 C45 0.931 . S
H72 C52 0.932 . S
H73 C53 0.930 . S
H74 C54 0.930 . S
H75 C56 0.933 . S
H76 C58 0.932 . S
H77 C59 0.929 . S
H78 C60 0.928 . S
H79 C62 0.932 . S
C80 C81 1.264 . S
C80 C85 1.479 . S
C80 C90 1.465 . S
C81 C80 1.264 . S
C81 C83 1.339 . S
C81 H108 0.931 . S
C82 C83 1.395 . S
C82 C84 1.320 . S
C83 C81 1.339 . S
C83 C82 1.395 . S
C83 H109 0.929 . S
C84 C82 1.320 . S
C84 C85 1.405 . S
C84 H110 0.921 1_545 S
C85 C80 1.479 . S
C85 C84 1.405 . S
C85 H111 0.931 . S
U86 O87 2.454 . S
U86 O88 2.458 . S
U86 C89 2.984 . S
U86 C90 2.847 . S
U86 C103 2.882 . S
U86 O104 2.441 . S
U86 O105 2.420 . S
U86 O106 2.455 . S
U86 O107 2.449 . S
O87 U86 2.454 . S
O87 C89 1.353 . S
O88 U86 2.458 . S
O88 C89 1.286 . S
C89 U86 2.984 . S
C89 O87 1.353 . S
C89 O88 1.286 . S
C89 C91 1.363 . S
C90 C80 1.465 . S
C90 U86 2.847 . S
C90 O104 1.249 . S
C90 O105 1.202 . S
C91 C89 1.363 . S
C91 C93 1.408 . S
C91 C96 1.342 . S
C92 C93 1.310 . S
C92 C95 1.461 . S
C92 H112 0.932 . S
C93 C91 1.408 . S
C93 C92 1.310 . S
C93 H113 0.930 . S
C94 C95 1.474 1_565 S
C94 C96 1.285 1_565 S
C94 H114 0.930 . S
C95 C92 1.461 . S
C95 C94 1.474 1_545 S
C96 C91 1.342 . S
C96 C94 1.285 1_545 S
C96 H115 0.933 . S
C97 C100 1.424 . S
C97 C102 1.245 . S
C97 C103 1.428 . S
C98 C101 1.260 . S
C98 C102 1.477 . S
C98 H116 0.932 . S
C99 C100 1.384 . S
C99 C101 1.479 . S
C99 H117 0.929 . S
C100 C97 1.424 . S
C100 C99 1.384 . S
C100 H118 0.928 . S
C101 C98 1.260 . S
C101 C99 1.479 . S
C102 C97 1.245 . S
C102 C98 1.477 . S
C102 H119 0.932 . S
C103 U86 2.882 . S
C103 C97 1.428 . S
C103 O106 1.301 . S
C103 O107 1.282 . S
O104 U86 2.441 . S
O104 C90 1.249 . S
O105 U86 2.420 . S
O105 C90 1.202 . S
O106 U86 2.455 . S
O106 C103 1.301 . S
O107 U86 2.449 . S
O107 C103 1.282 . S
H108 C81 0.931 . S
H109 C83 0.929 . S
H110 C84 0.921 1_565 S
H111 C85 0.931 . S
H112 C92 0.932 . S
H113 C93 0.930 . S
H114 C94 0.930 . S
H115 C96 0.933 . S
H116 C98 0.932 . S
H117 C99 0.929 . S
H118 C100 0.928 . S
H119 C102 0.932 . S
C120 C121 1.264 . S
C120 C125 1.479 . S
C120 C130 1.465 . S
C121 C120 1.264 . S
C121 C123 1.339 . S
C121 H148 0.931 . S
C122 C123 1.395 . S
C122 C124 1.320 . S
C123 C121 1.339 . S
C123 C122 1.395 . S
C123 H149 0.929 . S
C124 C122 1.320 . S
C124 C125 1.405 . S
C124 H150 0.930 . S
C125 C120 1.479 . S
C125 C124 1.405 . S
C125 H151 0.931 . S
U126 O127 2.454 . S
U126 O128 2.458 . S
U126 C129 2.984 . S
U126 C130 2.847 . S
U126 C143 2.882 . S
U126 O144 2.441 . S
U126 O145 2.420 . S
U126 O146 2.455 . S
U126 O147 2.449 . S
O127 U126 2.454 . S
O127 C129 1.353 . S
O128 U126 2.458 . S
O128 C129 1.286 . S
C129 U126 2.984 . S
C129 O127 1.353 . S
C129 O128 1.286 . S
C129 C131 1.363 . S
C130 C120 1.465 . S
C130 U126 2.847 . S
C130 O144 1.249 . S
C130 O145 1.202 . S
C131 C129 1.363 . S
C131 C133 1.408 . S
C131 C136 1.342 . S
C132 C133 1.310 . S
C132 C135 1.461 . S
C132 H152 0.932 . S
C133 C131 1.408 . S
C133 C132 1.310 . S
C133 H153 0.930 . S
C134 C135 1.474 . S
C134 C136 1.285 . S
C134 H154 0.929 . S
C135 C132 1.461 . S
C135 C134 1.474 . S
C136 C131 1.342 . S
C136 C134 1.285 . S
C136 H155 0.930 . S
C137 C140 1.424 . S
C137 C142 1.245 . S
C137 C143 1.428 . S
C138 C141 1.260 . S
C138 C142 1.477 . S
C138 H156 0.932 . S
C139 C140 1.384 . S
C139 C141 1.479 . S
C139 H157 0.929 . S
C140 C137 1.424 . S
C140 C139 1.384 . S
C140 H158 0.928 . S
C141 C138 1.260 . S
C141 C139 1.479 . S
C142 C137 1.245 . S
C142 C138 1.477 . S
C142 H159 0.932 . S
C143 U126 2.882 . S
C143 C137 1.428 . S
C143 O146 1.301 . S
C143 O147 1.282 . S
O144 U126 2.441 . S
O144 C130 1.249 . S
O145 U126 2.420 . S
O145 C130 1.202 . S
O146 U126 2.455 . S
O146 C143 1.301 . S
O147 U126 2.449 . S
O147 C143 1.282 . S
H148 C121 0.931 . S
H149 C123 0.929 . S
H150 C124 0.930 . S
H151 C125 0.931 . S
H152 C132 0.932 . S
H153 C133 0.930 . S
H154 C134 0.929 . S
H155 C136 0.930 . S
H156 C138 0.932 . S
H157 C139 0.929 . S
H158 C140 0.928 . S
H159 C142 0.932 . S
C160 C161 1.264 . S
C160 C165 1.479 . S
C160 C170 1.465 . S
C161 C160 1.264 . S
C161 C163 1.339 . S
C161 H188 0.931 . S
C162 C163 1.395 . S
C162 C164 1.320 . S
C163 C161 1.339 . S
C163 C162 1.395 . S
C163 H189 0.929 . S
C164 C162 1.320 . S
C164 C165 1.405 . S
C164 H190 0.930 . S
C165 C160 1.479 . S
C165 C164 1.405 . S
C165 H191 0.931 . S
U166 O167 2.454 . S
U166 O168 2.458 . S
U166 C169 2.984 . S
U166 C170 2.847 1_554 S
U166 C183 2.882 . S
U166 O184 2.441 1_554 S
U166 O185 2.420 1_554 S
U166 O186 2.455 . S
U166 O187 2.449 . S
O167 U166 2.454 . S
O167 C169 1.353 . S
O168 U166 2.458 . S
O168 C169 1.286 . S
C169 U166 2.984 . S
C169 O167 1.353 . S
C169 O168 1.286 . S
C169 C171 1.363 . S
C170 C160 1.465 . S
C170 U166 2.847 1_556 S
C170 O184 1.249 . S
C170 O185 1.202 . S
C171 C169 1.363 . S
C171 C173 1.408 . S
C171 C176 1.342 . S
C172 C173 1.310 . S
C172 C175 1.461 . S
C172 H192 0.932 . S
C173 C171 1.408 . S
C173 C172 1.310 . S
C173 H193 0.930 1_554 S
C174 C175 1.474 . S
C174 C176 1.285 . S
C174 H194 0.929 . S
C175 C172 1.461 . S
C175 C174 1.474 . S
C176 C171 1.342 . S
C176 C174 1.285 . S
C176 H195 0.930 . S
C177 C180 1.424 . S
C177 C182 1.245 . S
C177 C183 1.428 . S
C178 C181 1.260 . S
C178 C182 1.477 . S
C178 H196 0.932 . S
C179 C180 1.384 . S
C179 C181 1.479 . S
C179 H197 0.929 . S
C180 C177 1.424 . S
C180 C179 1.384 . S
C180 H198 0.928 . S
C181 C178 1.260 . S
C181 C179 1.479 . S
C182 C177 1.245 . S
C182 C178 1.477 . S
C182 H199 0.932 . S
C183 U166 2.882 . S
C183 C177 1.428 . S
C183 O186 1.301 . S
C183 O187 1.282 . S
O184 U166 2.441 1_556 S
O184 C170 1.249 . S
O185 U166 2.420 1_556 S
O185 C170 1.202 . S
O186 U166 2.455 . S
O186 C183 1.301 . S
O187 U166 2.449 . S
O187 C183 1.282 . S
H188 C161 0.931 . S
H189 C163 0.929 . S
H190 C164 0.930 . S
H191 C165 0.931 . S
H192 C172 0.932 . S
H193 C173 0.930 1_556 S
H194 C174 0.929 . S
H195 C176 0.930 . S
H196 C178 0.932 . S
H197 C179 0.929 . S
H198 C180 0.928 . S
H199 C182 0.932 . S
C200 C201 1.264 . S
C200 C205 1.479 . S
C200 C210 1.465 . S
C201 C200 1.264 . S
C201 C203 1.339 . S
C201 H228 0.931 . S
C202 C203 1.395 . S
C202 C204 1.320 . S
C203 C201 1.339 . S
C203 C202 1.395 . S
C203 H229 0.929 . S
C204 C202 1.320 . S
C204 C205 1.405 . S
C204 H230 0.923 1_455 S
C205 C200 1.479 . S
C205 C204 1.405 . S
C205 H231 0.931 . S
U206 O207 2.454 . S
U206 O208 2.458 . S
U206 C209 2.984 . S
U206 C210 2.847 1_554 S
U206 C223 2.882 . S
U206 O224 2.441 1_554 S
U206 O225 2.420 1_554 S
U206 O226 2.455 . S
U206 O227 2.449 . S
O207 U206 2.454 . S
O207 C209 1.353 . S
O208 U206 2.458 . S
O208 C209 1.286 . S
C209 U206 2.984 . S
C209 O207 1.353 . S
C209 O208 1.286 . S
C209 C211 1.363 . S
C210 C200 1.465 . S
C210 U206 2.847 1_556 S
C210 O224 1.249 . S
C210 O225 1.202 . S
C211 C209 1.363 . S
C211 C213 1.408 . S
C211 C216 1.342 . S
C212 C213 1.310 . S
C212 C215 1.462 . S
C212 H232 0.932 . S
C213 C211 1.408 . S
C213 C212 1.310 . S
C213 H233 0.930 1_554 S
C214 C215 1.474 1_655 S
C214 C216 1.286 1_655 S
C214 H234 0.929 . S
C215 C212 1.462 . S
C215 C214 1.474 1_455 S
C216 C211 1.342 . S
C216 C214 1.286 1_455 S
C216 H235 0.930 . S
C217 C220 1.424 . S
C217 C222 1.245 . S
C217 C223 1.428 . S
C218 C221 1.260 . S
C218 C222 1.477 . S
C218 H236 0.932 . S
C219 C220 1.384 . S
C219 C221 1.479 . S
C219 H237 0.929 . S
C220 C217 1.424 . S
C220 C219 1.384 . S
C220 H238 0.928 . S
C221 C218 1.260 . S
C221 C219 1.479 . S
C222 C217 1.245 . S
C222 C218 1.477 . S
C222 H239 0.932 . S
C223 U206 2.882 . S
C223 C217 1.428 . S
C223 O226 1.301 . S
C223 O227 1.282 . S
O224 U206 2.441 1_556 S
O224 C210 1.249 . S
O225 U206 2.420 1_556 S
O225 C210 1.202 . S
O226 U206 2.455 . S
O226 C223 1.301 . S
O227 U206 2.449 . S
O227 C223 1.282 . S
H228 C201 0.931 . S
H229 C203 0.929 . S
H230 C204 0.923 1_655 S
H231 C205 0.931 . S
H232 C212 0.932 . S
H233 C213 0.930 1_556 S
H234 C214 0.929 . S
H235 C216 0.930 . S
H236 C218 0.932 . S
H237 C219 0.929 . S
H238 C220 0.928 . S
H239 C222 0.932 . S
C240 C241 1.264 . S
C240 C245 1.479 . S
C240 C250 1.465 . S
C241 C240 1.264 . S
C241 C243 1.339 . S
C241 H268 0.931 . S
C242 C243 1.395 . S
C242 C244 1.320 . S
C243 C241 1.339 . S
C243 C242 1.395 . S
C243 H269 0.929 . S
C244 C242 1.320 . S
C244 C245 1.405 . S
C244 H270 0.923 1_545 S
C245 C240 1.479 . S
C245 C244 1.405 . S
C245 H271 0.931 . S
U246 O247 2.454 . S
U246 O248 2.458 . S
U246 C249 2.984 . S
U246 C250 2.847 1_554 S
U246 C263 2.882 . S
U246 O264 2.441 1_554 S
U246 O265 2.420 1_554 S
U246 O266 2.455 . S
U246 O267 2.449 . S
O247 U246 2.454 . S
O247 C249 1.353 . S
O248 U246 2.458 . S
O248 C249 1.286 . S
C249 U246 2.984 . S
C249 O247 1.353 . S
C249 O248 1.286 . S
C249 C251 1.363 . S
C250 C240 1.465 . S
C250 U246 2.847 1_556 S
C250 O264 1.249 . S
C250 O265 1.202 . S
C251 C249 1.363 . S
C251 C253 1.408 . S
C251 C256 1.342 . S
C252 C253 1.310 . S
C252 C255 1.462 . S
C252 H272 0.932 . S
C253 C251 1.408 . S
C253 C252 1.310 . S
C253 H273 0.930 1_554 S
C254 C255 1.474 1_565 S
C254 C256 1.286 1_565 S
C254 H274 0.929 . S
C255 C252 1.462 . S
C255 C254 1.474 1_545 S
C256 C251 1.342 . S
C256 C254 1.286 1_545 S
C256 H275 0.930 . S
C257 C260 1.424 . S
C257 C262 1.245 . S
C257 C263 1.428 . S
C258 C261 1.260 . S
C258 C262 1.477 . S
C258 H276 0.932 . S
C259 C260 1.384 . S
C259 C261 1.479 . S
C259 H277 0.929 . S
C260 C257 1.424 . S
C260 C259 1.384 . S
C260 H278 0.928 . S
C261 C258 1.260 . S
C261 C259 1.479 . S
C262 C257 1.245 . S
C262 C258 1.477 . S
C262 H279 0.932 . S
C263 U246 2.882 . S
C263 C257 1.428 . S
C263 O266 1.301 . S
C263 O267 1.282 . S
O264 U246 2.441 1_556 S
O264 C250 1.249 . S
O265 U246 2.420 1_556 S
O265 C250 1.202 . S
O266 U246 2.455 . S
O266 C263 1.301 . S
O267 U246 2.449 . S
O267 C263 1.282 . S
H268 C241 0.931 . S
H269 C243 0.929 . S
H270 C244 0.923 1_565 S
H271 C245 0.931 . S
H272 C252 0.932 . S
H273 C253 0.930 1_556 S
H274 C254 0.929 . S
H275 C256 0.930 . S
H276 C258 0.932 . S
H277 C259 0.929 . S
H278 C260 0.928 . S
H279 C262 0.932 . S
C280 C281 1.264 . S
C280 C285 1.479 . S
C280 C290 1.465 . S
C281 C280 1.264 . S
C281 C283 1.339 . S
C281 H308 0.931 . S
C282 C283 1.395 . S
C282 C284 1.320 . S
C283 C281 1.339 . S
C283 C282 1.395 . S
C283 H309 0.929 . S
C284 C282 1.320 . S
C284 C285 1.405 . S
C284 H310 0.930 . S
C285 C280 1.479 . S
C285 C284 1.405 . S
C285 H311 0.931 . S
U286 O287 2.454 . S
U286 O288 2.458 . S
U286 C289 2.984 . S
U286 C290 2.847 1_554 S
U286 C303 2.882 . S
U286 O304 2.441 1_554 S
U286 O305 2.420 1_554 S
U286 O306 2.455 . S
U286 O307 2.449 . S
O287 U286 2.454 . S
O287 C289 1.353 . S
O288 U286 2.458 . S
O288 C289 1.286 . S
C289 U286 2.984 . S
C289 O287 1.353 . S
C289 O288 1.286 . S
C289 C291 1.363 . S
C290 C280 1.465 . S
C290 U286 2.847 1_556 S
C290 O304 1.249 . S
C290 O305 1.202 . S
C291 C289 1.363 . S
C291 C293 1.408 . S
C291 C296 1.342 . S
C292 C293 1.310 . S
C292 C295 1.461 . S
C292 H312 0.932 . S
C293 C291 1.408 . S
C293 C292 1.310 . S
C293 H313 0.930 1_554 S
C294 C295 1.474 . S
C294 C296 1.285 . S
C294 H314 0.929 . S
C295 C292 1.461 . S
C295 C294 1.474 . S
C296 C291 1.342 . S
C296 C294 1.285 . S
C296 H315 0.930 . S
C297 C300 1.424 . S
C297 C302 1.245 . S
C297 C303 1.428 . S
C298 C301 1.260 . S
C298 C302 1.477 . S
C298 H316 0.932 . S
C299 C300 1.384 . S
C299 C301 1.479 . S
C299 H317 0.929 . S
C300 C297 1.424 . S
C300 C299 1.384 . S
C300 H318 0.928 . S
C301 C298 1.260 . S
C301 C299 1.479 . S
C302 C297 1.245 . S
C302 C298 1.477 . S
C302 H319 0.932 . S
C303 U286 2.882 . S
C303 C297 1.428 . S
C303 O306 1.301 . S
C303 O307 1.282 . S
O304 U286 2.441 1_556 S
O304 C290 1.249 . S
O305 U286 2.420 1_556 S
O305 C290 1.202 . S
O306 U286 2.455 . S
O306 C303 1.301 . S
O307 U286 2.449 . S
O307 C303 1.282 . S
H308 C281 0.931 . S
H309 C283 0.929 . S
H310 C284 0.930 . S
H311 C285 0.931 . S
H312 C292 0.932 . S
H313 C293 0.930 1_556 S
H314 C294 0.929 . S
H315 C296 0.930 . S
H316 C298 0.932 . S
H317 C299 0.929 . S
H318 C300 0.928 . S
H319 C302 0.932 . S
Sm320 C322 2.846 . S
Sm320 O340 2.543 . S
Sm320 O341 2.450 . S
Sm320 O342 2.681 1_565 S
Sm320 O343 2.464 . S
Sm320 O344 2.396 . S
Sm320 O348 2.386 1_455 S
Sm320 O351 2.408 1_565 S
Sm321 C331 2.846 . S
Sm321 O342 2.386 1_655 S
Sm321 O345 2.408 1_545 S
Sm321 O346 2.543 . S
Sm321 O347 2.450 . S
Sm321 O348 2.681 1_545 S
Sm321 O349 2.464 . S
Sm321 O350 2.396 . S
C322 Sm320 2.846 . S
C322 C323 1.506 . S
C322 O340 1.261 . S
C322 O341 1.242 . S
C323 C322 1.506 . S
C323 C324 1.358 . S
C323 C328 1.382 . S
C324 C323 1.358 . S
C324 C325 1.385 . S
C324 H352 0.930 1_455 S
C325 C324 1.385 . S
C325 C326 1.395 1_556 S
C325 H353 0.956 1_556 S
C326 C325 1.395 1_554 S
C326 C327 1.335 1_554 S
C327 C326 1.335 1_556 S
C327 C328 1.398 . S
C327 H354 0.930 . S
C328 C323 1.382 . S
C328 C327 1.398 . S
C328 H355 0.929 . S
C329 O342 1.271 1_565 S
C329 O343 1.251 . S
C330 O344 1.252 1_655 S
C330 O345 1.272 . S
C331 Sm321 2.846 . S
C331 C332 1.506 . S
C331 O346 1.261 . S
C331 O347 1.242 . S
C332 C331 1.506 . S
C332 C333 1.358 . S
C332 C337 1.382 . S
C333 C332 1.358 . S
C333 C334 1.385 . S
C333 H356 0.930 1_655 S
C334 C333 1.385 . S
C334 C335 1.395 . S
C334 H357 0.948 . S
C335 C334 1.395 . S
C335 C336 1.335 . S
C336 C335 1.335 . S
C336 C337 1.398 . S
C336 H358 0.930 . S
C337 C332 1.382 . S
C337 C336 1.398 . S
C337 H359 0.929 . S
C338 O348 1.271 1_545 S
C338 O349 1.251 . S
C339 O350 1.252 1_455 S
C339 O351 1.272 . S
O340 Sm320 2.543 . S
O340 C322 1.261 . S
O341 Sm320 2.450 . S
O341 C322 1.242 . S
O342 Sm320 2.681 1_545 S
O342 Sm321 2.386 1_455 S
O342 C329 1.271 1_545 S
O343 Sm320 2.464 . S
O343 C329 1.251 . S
O344 Sm320 2.396 . S
O344 C330 1.252 1_455 S
O345 Sm321 2.408 1_565 S
O345 C330 1.272 . S
O346 Sm321 2.543 . S
O346 C331 1.261 . S
O347 Sm321 2.450 . S
O347 C331 1.242 . S
O348 Sm320 2.386 1_655 S
O348 Sm321 2.681 1_565 S
O348 C338 1.271 1_565 S
O349 Sm321 2.464 . S
O349 C338 1.251 . S
O350 Sm321 2.396 . S
O350 C339 1.252 1_655 S
O351 Sm320 2.408 1_545 S
O351 C339 1.272 . S
H352 C324 0.930 1_655 S
H353 C325 0.956 1_554 S
H354 C327 0.930 . S
H355 C328 0.929 . S
H356 C333 0.930 1_455 S
H357 C334 0.948 . S
H358 C336 0.930 . S
H359 C337 0.929 . S
Sm360 C362 2.846 . S
Sm360 O380 2.543 . S
Sm360 O381 2.450 . S
Sm360 O382 2.681 . S
Sm360 O383 2.464 . S
Sm360 O384 2.396 . S
Sm360 O388 2.386 1_545 S
Sm360 O391 2.408 . S
Sm361 C371 2.846 . S
Sm361 O382 2.386 1_565 S
Sm361 O385 2.408 . S
Sm361 O386 2.543 . S
Sm361 O387 2.450 . S
Sm361 O388 2.681 . S
Sm361 O389 2.464 . S
Sm361 O390 2.396 . S
C362 Sm360 2.846 . S
C362 C363 1.506 . S
C362 O380 1.261 . S
C362 O381 1.242 . S
C363 C362 1.506 . S
C363 C364 1.358 . S
C363 C368 1.382 . S
C364 C363 1.358 . S
C364 C365 1.385 . S
C364 H392 0.930 1_545 S
C365 C364 1.385 . S
C365 C366 1.395 1_556 S
C365 H393 0.925 1_546 S
C366 C365 1.395 1_554 S
C366 C367 1.335 1_554 S
C367 C366 1.335 1_556 S
C367 C368 1.398 . S
C367 H394 0.930 . S
C368 C363 1.382 . S
C368 C367 1.398 . S
C368 H395 0.929 . S
C369 O382 1.271 . S
C369 O383 1.251 . S
C370 O384 1.252 1_565 S
C370 O385 1.272 . S
C371 Sm361 2.846 . S
C371 C372 1.506 . S
C371 O386 1.261 . S
C371 O387 1.242 . S
C372 C371 1.506 . S
C372 C373 1.358 . S
C372 C377 1.382 . S
C373 C372 1.358 . S
C373 C374 1.385 . S
C373 H396 0.930 1_565 S
C374 C373 1.385 . S
C374 C375 1.395 . S
C374 H397 0.916 1_565 S
C375 C374 1.395 . S
C375 C376 1.335 . S
C376 C375 1.335 . S
C376 C377 1.398 . S
C376 H398 0.930 . S
C377 C372 1.382 . S
C377 C376 1.398 . S
C377 H399 0.929 . S
C378 O388 1.271 . S
C378 O389 1.251 . S
C379 O390 1.252 1_545 S
C379 O391 1.272 . S
O380 Sm360 2.543 . S
O380 C362 1.261 . S
O381 Sm360 2.450 . S
O381 C362 1.242 . S
O382 Sm360 2.681 . S
O382 Sm361 2.386 1_545 S
O382 C369 1.271 . S
O383 Sm360 2.464 . S
O383 C369 1.251 . S
O384 Sm360 2.396 . S
O384 C370 1.252 1_545 S
O385 Sm361 2.408 . S
O385 C370 1.272 . S
O386 Sm361 2.543 . S
O386 C371 1.261 . S
O387 Sm361 2.450 . S
O387 C371 1.242 . S
O388 Sm360 2.386 1_565 S
O388 Sm361 2.681 . S
O388 C378 1.271 . S
O389 Sm361 2.464 . S
O389 C378 1.251 . S
O390 Sm361 2.396 . S
O390 C379 1.252 1_565 S
O391 Sm360 2.408 . S
O391 C379 1.272 . S
H392 C364 0.930 1_565 S
H393 C365 0.925 1_564 S
H394 C367 0.930 . S
H395 C368 0.929 . S
H396 C373 0.930 1_545 S
H397 C374 0.916 1_545 S
H398 C376 0.930 . S
H399 C377 0.929 . S
Sm400 C402 2.846 . S
Sm400 O420 2.543 . S
Sm400 O421 2.450 . S
Sm400 O422 2.681 . S
Sm400 O423 2.464 . S
Sm400 O424 2.396 . S
Sm400 O428 2.386 . S
Sm400 O431 2.408 . S
Sm401 C411 2.846 . S
Sm401 O422 2.386 . S
Sm401 O425 2.408 . S
Sm401 O426 2.543 . S
Sm401 O427 2.450 . S
Sm401 O428 2.681 . S
Sm401 O429 2.464 . S
Sm401 O430 2.396 . S
C402 Sm400 2.846 . S
C402 C403 1.506 . S
C402 O420 1.261 . S
C402 O421 1.242 . S
C403 C402 1.506 . S
C403 C404 1.358 . S
C403 C408 1.382 . S
C404 C403 1.358 . S
C404 C405 1.385 1_556 S
C404 H432 0.930 . S
C405 C404 1.385 1_554 S
C405 C406 1.395 . S
C405 H433 0.929 . S
C406 C405 1.395 . S
C406 C407 1.335 1_554 S
C407 C406 1.335 1_556 S
C407 C408 1.398 . S
C407 H434 0.930 . S
C408 C403 1.382 . S
C408 C407 1.398 . S
C408 H435 0.929 . S
C409 O422 1.271 . S
C409 O423 1.251 . S
C410 O424 1.252 . S
C410 O425 1.272 . S
C411 Sm401 2.846 . S
C411 C412 1.506 . S
C411 O426 1.261 . S
C411 O427 1.242 . S
C412 C411 1.506 . S
C412 C413 1.358 . S
C412 C417 1.382 . S
C413 C412 1.358 . S
C413 C414 1.385 . S
C413 H436 0.930 . S
C414 C413 1.385 . S
C414 C415 1.395 . S
C414 H437 0.929 . S
C415 C414 1.395 . S
C415 C416 1.335 . S
C416 C415 1.335 . S
C416 C417 1.398 . S
C416 H438 0.930 . S
C417 C412 1.382 . S
C417 C416 1.398 . S
C417 H439 0.929 . S
C418 O428 1.271 . S
C418 O429 1.251 . S
C419 O430 1.252 . S
C419 O431 1.272 . S
O420 Sm400 2.543 . S
O420 C402 1.261 . S
O421 Sm400 2.450 . S
O421 C402 1.242 . S
O422 Sm400 2.681 . S
O422 Sm401 2.386 . S
O422 C409 1.271 . S
O423 Sm400 2.464 . S
O423 C409 1.251 . S
O424 Sm400 2.396 . S
O424 C410 1.252 . S
O425 Sm401 2.408 . S
O425 C410 1.272 . S
O426 Sm401 2.543 . S
O426 C411 1.261 . S
O427 Sm401 2.450 . S
O427 C411 1.242 . S
O428 Sm400 2.386 . S
O428 Sm401 2.681 . S
O428 C418 1.271 . S
O429 Sm401 2.464 . S
O429 C418 1.251 . S
O430 Sm401 2.396 . S
O430 C419 1.252 . S
O431 Sm400 2.408 . S
O431 C419 1.272 . S
H432 C404 0.930 . S
H433 C405 0.929 . S
H434 C407 0.930 . S
H435 C408 0.929 . S
H436 C413 0.930 . S
H437 C414 0.929 . S
H438 C416 0.930 . S
H439 C417 0.929 . S
Sm440 C442 2.846 . S
Sm440 O460 2.543 . S
Sm440 O461 2.450 . S
Sm440 O462 2.681 1_655 S
Sm440 O463 2.464 . S
Sm440 O464 2.396 . S
Sm440 O468 2.386 . S
Sm440 O471 2.408 1_655 S
Sm441 C451 2.846 . S
Sm441 O462 2.386 . S
Sm441 O465 2.408 1_455 S
Sm441 O466 2.543 . S
Sm441 O467 2.450 . S
Sm441 O468 2.681 1_455 S
Sm441 O469 2.464 . S
Sm441 O470 2.396 . S
C442 Sm440 2.846 . S
C442 C443 1.506 . S
C442 O460 1.261 . S
C442 O461 1.242 . S
C443 C442 1.506 . S
C443 C444 1.358 . S
C443 C448 1.382 . S
C444 C443 1.358 . S
C444 C445 1.382 1_556 S
C444 H472 0.930 . S
C445 C444 1.382 1_554 S
C445 C446 1.395 . S
C445 H473 0.932 . S
C446 C445 1.395 . S
C446 C447 1.335 1_554 S
C447 C446 1.335 1_556 S
C447 C448 1.398 . S
C447 H474 0.930 . S
C448 C443 1.382 . S
C448 C447 1.398 . S
C448 H475 0.929 . S
C449 O462 1.264 1_655 S
C449 O463 1.264 . S
C450 O464 1.252 . S
C450 O465 1.272 . S
C451 Sm441 2.846 . S
C451 C452 1.506 . S
C451 O466 1.261 . S
C451 O467 1.242 . S
C452 C451 1.506 . S
C452 C453 1.358 . S
C452 C457 1.382 . S
C453 C452 1.358 . S
C453 C454 1.385 . S
C453 H476 0.930 . S
C454 C453 1.385 . S
C454 C455 1.395 . S
C454 H477 0.929 . S
C455 C454 1.395 . S
C455 C456 1.335 . S
C456 C455 1.335 . S
C456 C457 1.398 . S
C456 H478 0.930 . S
C457 C452 1.382 . S
C457 C456 1.398 . S
C457 H479 0.929 . S
C458 O468 1.261 1_455 S
C458 O469 1.269 . S
C459 O470 1.252 . S
C459 O471 1.272 . S
O460 Sm440 2.543 . S
O460 C442 1.261 . S
O461 Sm440 2.450 . S
O461 C442 1.242 . S
O462 Sm440 2.681 1_455 S
O462 Sm441 2.386 . S
O462 C449 1.264 1_455 S
O463 Sm440 2.464 . S
O463 C449 1.264 . S
O464 Sm440 2.396 . S
O464 C450 1.252 . S
O465 Sm441 2.408 1_655 S
O465 C450 1.272 . S
O466 Sm441 2.543 . S
O466 C451 1.261 . S
O467 Sm441 2.450 . S
O467 C451 1.242 . S
O468 Sm440 2.386 . S
O468 Sm441 2.681 1_655 S
O468 C458 1.261 1_655 S
O469 Sm441 2.464 . S
O469 C458 1.269 . S
O470 Sm441 2.396 . S
O470 C459 1.252 . S
O471 Sm440 2.408 1_455 S
O471 C459 1.272 . S
H472 C444 0.930 . S
H473 C445 0.932 . S
H474 C447 0.930 . S
H475 C448 0.929 . S
H476 C453 0.930 . S
H477 C454 0.929 . S
H478 C456 0.930 . S
H479 C457 0.929 . S
C480 C481 1.346 1_565 S
C480 C482 1.419 . S
C480 H484 0.930 . S
C481 C480 1.346 1_545 S
C481 C490 1.453 . S
C482 C480 1.419 . S
C482 C483 1.363 1_565 S
C482 H485 0.929 . S
C483 C482 1.363 1_545 S
C483 C489 1.428 . S
H484 C480 0.930 . S
H485 C482 0.929 . S
S486 N487 1.613 . S
S486 N488 1.610 . S
N487 S486 1.613 . S
N487 C490 1.350 . S
N488 S486 1.610 . S
N488 C489 1.351 . S
C489 C483 1.428 . S
C489 N488 1.351 . S
C489 C490 1.434 . S
C490 C481 1.453 . S
C490 N487 1.350 . S
C490 C489 1.434 . S
C491 C492 1.369 . S
C491 C493 1.419 . S
C491 H495 0.930 . S
C492 C491 1.369 . S
C492 C501 1.429 . S
C493 C491 1.419 . S
C493 C494 1.363 . S
C493 H496 0.929 . S
C494 C493 1.363 . S
C494 C500 1.428 . S
H495 C491 0.930 . S
H496 C493 0.929 . S
S497 N498 1.613 1_565 S
S497 N499 1.610 1_565 S
N498 S497 1.613 1_545 S
N498 C501 1.350 . S
N499 S497 1.610 1_545 S
N499 C500 1.351 . S
C500 C494 1.428 . S
C500 N499 1.351 . S
C500 C501 1.434 . S
C501 C492 1.429 . S
C501 N498 1.350 . S
C501 C500 1.434 . S
C502 C503 1.369 . S
C502 C504 1.419 . S
C502 H506 0.930 . S
C503 C502 1.369 . S
C503 C512 1.429 . S
C504 C502 1.419 . S
C504 C505 1.363 . S
C504 H507 0.929 . S
C505 C504 1.363 . S
C505 C511 1.428 . S
H506 C502 0.930 . S
H507 C504 0.929 . S
S508 N509 1.613 . S
S508 N510 1.610 . S
N509 S508 1.613 . S
N509 C512 1.350 . S
N510 S508 1.610 . S
N510 C511 1.351 . S
C511 C505 1.428 . S
C511 N510 1.351 . S
C511 C512 1.434 . S
C512 C503 1.429 . S
C512 N509 1.350 . S
C512 C511 1.434 . S
C513 C514 1.385 . S
C513 C515 1.419 . S
C513 H517 0.930 . S
C514 C513 1.385 . S
C514 C523 1.413 1_455 S
C515 C513 1.419 . S
C515 C516 1.363 . S
C515 H518 0.929 . S
C516 C515 1.363 . S
C516 C522 1.428 1_455 S
H517 C513 0.930 . S
H518 C515 0.929 . S
S519 N520 1.613 . S
S519 N521 1.610 . S
N520 S519 1.613 . S
N520 C523 1.350 . S
N521 S519 1.610 . S
N521 C522 1.351 . S
C522 C516 1.428 1_655 S
C522 N521 1.351 . S
C522 C523 1.434 . S
C523 C514 1.413 1_655 S
C523 N520 1.350 . S
C523 C522 1.434 . S
C524 C525 1.363 1_545 S
C524 C526 1.419 . S
C524 H528 0.930 . S
C525 C524 1.363 1_565 S
C525 C534 1.436 . S
C526 C524 1.419 . S
C526 C527 1.351 1_544 S
C526 H529 0.924 1_554 S
C527 C526 1.351 1_566 S
C527 C533 1.442 1_556 S
H528 C524 0.930 . S
H529 C526 0.924 1_556 S
S530 N531 1.613 . S
S530 N532 1.610 1_554 S
N531 S530 1.613 . S
N531 C534 1.350 . S
N532 S530 1.610 1_556 S
N532 C533 1.351 1_556 S
C533 C527 1.442 1_554 S
C533 N532 1.351 1_554 S
C533 C534 1.434 . S
C534 C525 1.436 . S
C534 N531 1.350 . S
C534 C533 1.434 . S
C535 C536 1.369 . S
C535 C537 1.419 . S
C535 H539 0.930 . S
C536 C535 1.369 . S
C536 C545 1.429 . S
C537 C535 1.419 . S
C537 C538 1.363 1_554 S
C537 H540 0.929 . S
C538 C537 1.363 1_556 S
C538 C544 1.428 1_556 S
H539 C535 0.930 . S
H540 C537 0.929 . S
S541 N542 1.613 . S
S541 N543 1.610 1_554 S
N542 S541 1.613 . S
N542 C545 1.350 . S
N543 S541 1.610 1_556 S
N543 C544 1.351 1_556 S
C544 C538 1.428 1_554 S
C544 N543 1.351 1_554 S
C544 C545 1.434 . S
C545 C536 1.429 . S
C545 N542 1.350 . S
C545 C544 1.434 . S
C546 C547 1.369 . S
C546 C548 1.419 . S
C546 H550 0.930 . S
C547 C546 1.369 . S
C547 C556 1.429 . S
C548 C546 1.419 . S
C548 C549 1.363 1_554 S
C548 H551 0.929 . S
C549 C548 1.363 1_556 S
C549 C555 1.428 1_556 S
H550 C546 0.930 . S
H551 C548 0.929 . S
S552 N553 1.613 . S
S552 N554 1.610 1_554 S
N553 S552 1.613 . S
N553 C556 1.350 . S
N554 S552 1.610 1_556 S
N554 C555 1.351 1_556 S
C555 C549 1.428 1_554 S
C555 N554 1.351 1_554 S
C555 C556 1.434 . S
C556 C547 1.429 . S
C556 N553 1.350 . S
C556 C555 1.434 . S
C557 C558 1.382 . S
C557 C559 1.419 . S
C557 H561 0.930 . S
C558 C557 1.382 . S
C558 C567 1.416 1_655 S
C559 C557 1.419 . S
C559 C560 1.363 1_554 S
C559 H562 0.929 1_554 S
C560 C559 1.363 1_556 S
C560 C566 1.428 1_656 S
H561 C557 0.930 . S
H562 C559 0.929 1_556 S
S563 N564 1.613 . S
S563 N565 1.610 1_554 S
N564 S563 1.613 . S
N564 C567 1.350 . S
N565 S563 1.610 1_556 S
N565 C566 1.351 1_556 S
C566 C560 1.428 1_454 S
C566 N565 1.351 1_554 S
C566 C567 1.434 . S
C567 C558 1.416 1_455 S
C567 N564 1.350 . S
C567 C566 1.434 . S
C568 C569 1.405 . S
C568 C570 1.419 . S
C568 H572 0.930 . S
C569 C568 1.405 . S
C569 C578 1.421 1_655 S
C570 C568 1.419 . S
C570 C571 1.363 . S
C570 H573 0.929 . S
C571 C570 1.363 . S
C571 C577 1.428 . S
H572 C568 0.930 . S
H573 C570 0.929 . S
S574 N575 1.613 . S
S574 N576 1.610 1_455 S
N575 S574 1.613 . S
N575 C578 1.350 . S
N576 S574 1.610 1_655 S
N576 C577 1.351 . S
C577 C571 1.428 . S
C577 N576 1.351 . S
C577 C578 1.434 1_655 S
C578 C569 1.421 1_455 S
C578 N575 1.350 . S
C578 C577 1.434 1_455 S
C579 C580 1.369 1_545 S
C579 C581 1.419 1_545 S
C579 H583 0.930 . S
C580 C579 1.369 1_565 S
C580 C589 1.429 . S
C581 C579 1.419 1_565 S
C581 C582 1.363 . S
C581 H584 0.929 . S
C582 C581 1.363 . S
C582 C588 1.428 . S
H583 C579 0.930 . S
H584 C581 0.929 . S
S585 N586 1.613 . S
S585 N587 1.610 . S
N586 S585 1.613 . S
N586 C589 1.350 . S
N587 S585 1.610 . S
N587 C588 1.351 . S
C588 C582 1.428 . S
C588 N587 1.351 . S
C588 C589 1.434 . S
C589 C580 1.429 . S
C589 N586 1.350 . S
C589 C588 1.434 . S
C590 C591 1.369 . S
C590 C592 1.419 . S
C590 H594 0.930 . S
C591 C590 1.369 . S
C591 C600 1.429 . S
C592 C590 1.419 . S
C592 C593 1.363 . S
C592 H595 0.929 . S
C593 C592 1.363 . S
C593 C599 1.428 . S
H594 C590 0.930 . S
H595 C592 0.929 . S
S596 N597 1.613 . S
S596 N598 1.610 . S
N597 S596 1.613 . S
N597 C600 1.350 . S
N598 S596 1.610 . S
N598 C599 1.351 . S
C599 C593 1.428 . S
C599 N598 1.351 . S
C599 C600 1.434 . S
C600 C591 1.429 . S
C600 N597 1.350 . S
C600 C599 1.434 . S
C601 C602 1.369 . S
C601 C603 1.419 . S
C601 H605 0.930 . S
C602 C601 1.369 . S
C602 C611 1.429 . S
C603 C601 1.419 . S
C603 C604 1.363 . S
C603 H606 0.929 . S
C604 C603 1.363 . S
C604 C610 1.428 . S
H605 C601 0.930 . S
H606 C603 0.929 . S
S607 N608 1.613 . S
S607 N609 1.610 . S
N608 S607 1.613 . S
N608 C611 1.350 . S
N609 S607 1.610 . S
N609 C610 1.351 . S
C610 C604 1.428 . S
C610 N609 1.351 . S
C610 C611 1.434 . S
C611 C602 1.429 . S
C611 N608 1.350 . S
C611 C610 1.434 . S
C612 C613 1.369 1_655 S
C612 C614 1.419 1_655 S
C612 H616 0.930 . S
C613 C612 1.369 1_455 S
C613 C622 1.429 . S
C614 C612 1.419 1_455 S
C614 C615 1.363 . S
C614 H617 0.929 . S
C615 C614 1.363 . S
C615 C621 1.428 . S
H616 C612 0.930 . S
H617 C614 0.929 . S
S618 N619 1.613 . S
S618 N620 1.610 . S
N619 S618 1.613 . S
N619 C622 1.350 . S
N620 S618 1.610 . S
N620 C621 1.351 . S
C621 C615 1.428 . S
C621 N620 1.351 . S
C621 C622 1.434 . S
C622 C613 1.429 . S
C622 N619 1.350 . S
C622 C621 1.434 . S
C623 C624 1.369 . S
C623 C625 1.419 . S
C623 H627 0.930 1_545 S
C624 C623 1.369 . S
C624 C633 1.429 1_554 S
C625 C623 1.419 . S
C625 C626 1.363 . S
C625 H628 0.929 . S
C626 C625 1.363 . S
C626 C632 1.428 1_554 S
H627 C623 0.930 1_565 S
H628 C625 0.929 . S
S629 N630 1.613 . S
S629 N631 1.610 . S
N630 S629 1.613 . S
N630 C633 1.350 . S
N631 S629 1.610 . S
N631 C632 1.351 . S
C632 C626 1.428 1_556 S
C632 N631 1.351 . S
C632 C633 1.434 . S
C633 C624 1.429 1_556 S
C633 N630 1.350 . S
C633 C632 1.434 . S
C634 C635 1.369 1_556 S
C634 C636 1.419 . S
C634 H638 0.930 . S
C635 C634 1.369 1_554 S
C635 C644 1.429 . S
C636 C634 1.419 . S
C636 C637 1.363 1_556 S
C636 H639 0.929 . S
C637 C636 1.363 1_554 S
C637 C643 1.428 . S
H638 C634 0.930 . S
H639 C636 0.929 . S
S640 N641 1.613 . S
S640 N642 1.610 . S
N641 S640 1.613 . S
N641 C644 1.350 . S
N642 S640 1.610 . S
N642 C643 1.351 . S
C643 C637 1.428 . S
C643 N642 1.351 . S
C643 C644 1.434 . S
C644 C635 1.429 . S
C644 N641 1.350 . S
C644 C643 1.434 . S
C645 C646 1.369 1_556 S
C645 C647 1.419 . S
C645 H649 0.930 . S
C646 C645 1.369 1_554 S
C646 C655 1.429 . S
C647 C645 1.419 . S
C647 C648 1.363 1_556 S
C647 H650 0.929 . S
C648 C647 1.363 1_554 S
C648 C654 1.428 . S
H649 C645 0.930 . S
H650 C647 0.929 . S
S651 N652 1.613 . S
S651 N653 1.610 . S
N652 S651 1.613 . S
N652 C655 1.350 . S
N653 S651 1.610 . S
N653 C654 1.351 . S
C654 C648 1.428 . S
C654 N653 1.351 . S
C654 C655 1.434 . S
C655 C646 1.429 . S
C655 N652 1.350 . S
C655 C654 1.434 . S
C656 C657 1.369 . S
C656 C658 1.419 . S
C656 H660 0.930 . S
C657 C656 1.369 . S
C657 C666 1.429 1_455 S
C658 C656 1.419 . S
C658 C659 1.363 . S
C658 H661 0.929 . S
C659 C658 1.363 . S
C659 C665 1.428 1_455 S
H660 C656 0.930 . S
H661 C658 0.929 . S
S662 N663 1.613 . S
S662 N664 1.610 . S
N663 S662 1.613 . S
N663 C666 1.350 . S
N664 S662 1.610 . S
N664 C665 1.351 . S
C665 C659 1.428 1_655 S
C665 N664 1.351 . S
C665 C666 1.434 . S
C666 C657 1.429 1_655 S
C666 N663 1.350 . S
C666 C665 1.434 . S
C667 C668 1.369 . S
C667 C669 1.419 . S
C667 H671 0.930 1_545 S
C668 C667 1.369 . S
C668 C677 1.429 . S
C669 C667 1.419 . S
C669 C670 1.363 . S
C669 H672 0.929 . S
C670 C669 1.363 . S
C670 C676 1.428 . S
H671 C667 0.930 1_565 S
H672 C669 0.929 . S
S673 N674 1.613 . S
S673 N675 1.610 . S
N674 S673 1.613 . S
N674 C677 1.350 . S
N675 S673 1.610 . S
N675 C676 1.351 . S
C676 C670 1.428 . S
C676 N675 1.351 . S
C676 C677 1.434 . S
C677 C668 1.429 . S
C677 N674 1.350 . S
C677 C676 1.434 . S
C678 C679 1.369 . S
C678 C680 1.419 . S
C678 H682 0.930 . S
C679 C678 1.369 . S
C679 C688 1.429 . S
C680 C678 1.419 . S
C680 C681 1.363 . S
C680 H683 0.929 . S
C681 C680 1.363 . S
C681 C687 1.428 . S
H682 C678 0.930 . S
H683 C680 0.929 . S
S684 N685 1.613 . S
S684 N686 1.610 . S
N685 S684 1.613 . S
N685 C688 1.350 . S
N686 S684 1.610 . S
N686 C687 1.351 . S
C687 C681 1.428 . S
C687 N686 1.351 . S
C687 C688 1.434 . S
C688 C679 1.429 . S
C688 N685 1.350 . S
C688 C687 1.434 . S
C689 C690 1.369 . S
C689 C691 1.419 . S
C689 H693 0.930 . S
C690 C689 1.369 . S
C690 C699 1.429 . S
C691 C689 1.419 . S
C691 C692 1.363 . S
C691 H694 0.929 . S
C692 C691 1.363 . S
C692 C698 1.428 . S
H693 C689 0.930 . S
H694 C691 0.929 . S
S695 N696 1.613 . S
S695 N697 1.610 . S
N696 S695 1.613 . S
N696 C699 1.350 . S
N697 S695 1.610 . S
N697 C698 1.351 . S
C698 C692 1.428 . S
C698 N697 1.351 . S
C698 C699 1.434 . S
C699 C690 1.429 . S
C699 N696 1.350 . S
C699 C698 1.434 . S
C700 C701 1.369 1_455 S
C700 C702 1.418 . S
C700 H704 0.930 . S
C701 C700 1.369 1_655 S
C701 C710 1.429 . S
C702 C700 1.418 . S
C702 C703 1.365 1_455 S
C702 H705 0.928 . S
C703 C702 1.365 1_655 S
C703 C709 1.428 . S
H704 C700 0.930 . S
H705 C702 0.928 . S
S706 N707 1.613 . S
S706 N708 1.610 . S
N707 S706 1.613 . S
N707 C710 1.350 . S
N708 S706 1.610 . S
N708 C709 1.351 . S
C709 C703 1.428 . S
C709 N708 1.351 . S
C709 C710 1.434 . S
C710 C701 1.429 . S
C710 N707 1.350 . S
C710 C709 1.434 . S
C711 C712 1.369 1_545 S
C711 C713 1.419 . S
C711 H715 0.930 . S
C712 C711 1.369 1_565 S
C712 C721 1.429 . S
C713 C711 1.419 . S
C713 C714 1.363 1_545 S
C713 H716 0.929 . S
C714 C713 1.363 1_565 S
C714 C720 1.428 . S
H715 C711 0.930 . S
H716 C713 0.929 . S
S717 N718 1.613 . S
S717 N719 1.610 . S
N718 S717 1.613 . S
N718 C721 1.350 . S
N719 S717 1.610 . S
N719 C720 1.351 . S
C720 C714 1.428 . S
C720 N719 1.351 . S
C720 C721 1.434 . S
C721 C712 1.429 . S
C721 N718 1.350 . S
C721 C720 1.434 . S
C722 C723 1.369 . S
C722 C724 1.419 . S
C722 H726 0.930 . S
C723 C722 1.369 . S
C723 C732 1.429 . S
C724 C722 1.419 . S
C724 C725 1.363 . S
C724 H727 0.929 . S
C725 C724 1.363 . S
C725 C731 1.428 . S
H726 C722 0.930 . S
H727 C724 0.929 . S
S728 N729 1.613 . S
S728 N730 1.610 . S
N729 S728 1.613 . S
N729 C732 1.350 . S
N730 S728 1.610 . S
N730 C731 1.351 . S
C731 C725 1.428 . S
C731 N730 1.351 . S
C731 C732 1.434 . S
C732 C723 1.429 . S
C732 N729 1.350 . S
C732 C731 1.434 . S
C733 C734 1.369 . S
C733 C735 1.419 . S
C733 H737 0.930 . S
C734 C733 1.369 . S
C734 C743 1.429 . S
C735 C733 1.419 . S
C735 C736 1.363 . S
C735 H738 0.929 . S
C736 C735 1.363 . S
C736 C742 1.428 . S
H737 C733 0.930 . S
H738 C735 0.929 . S
S739 N740 1.613 . S
S739 N741 1.610 . S
N740 S739 1.613 . S
N740 C743 1.350 . S
N741 S739 1.610 . S
N741 C742 1.351 . S
C742 C736 1.428 . S
C742 N741 1.351 . S
C742 C743 1.434 . S
C743 C734 1.429 . S
C743 N740 1.350 . S
C743 C742 1.434 . S
C481 C255 2.612 . S
C483 C329 2.956 1_545 S
C494 C369 2.969 . S
C492 C295 2.633 . S
C505 C409 2.974 . S
C503 C175 2.636 . S
C516 C449 2.956 1_455 S
C514 C215 2.624 . S
C527 C338 2.957 1_565 S
C525 C95 2.615 1_565 S
C536 C135 2.629 . S
C538 C378 2.973 . S
C547 C15 2.633 . S
C549 C418 2.974 . S
C558 C55 2.618 1_655 S
C560 C458 2.957 1_655 S
C571 C335 0.788 . S
C569 C221 0.802 1_655 S
C582 C375 0.804 . S
C580 C261 0.806 1_565 S
C593 C415 0.779 . S
C591 C301 0.773 . S
C602 C181 0.769 . S
C604 C455 0.766 . S
C613 C61 0.768 . S
C615 C326 0.811 . S
C626 C366 0.799 . S
C624 C101 0.779 . S
C637 C406 0.773 . S
C635 C141 0.758 . S
C646 C21 0.761 . S
C648 C446 0.777 . S
C657 C202 3.597 . S
C659 C339 4.069 . S
C668 C242 3.574 . S
C670 C379 4.053 . S
C681 C419 4.046 . S
C679 C282 3.565 . S
C692 C459 4.070 . S
C690 C162 3.583 . S
C701 C42 3.628 1_655 S
C703 C330 4.077 . S
C714 C370 4.053 . S
C712 C82 3.603 1_565 S
C725 C410 4.046 . S
C723 C122 3.607 . S
C734 C2 3.622 . S
C736 C450 4.073 . S
