# Generated by pormake.
# Topology gar, (4,6)-cn, num edge types: 1
# Building blocks:
#     Node 0, Type 0, BuildingBlock: CEKHIL_clean_sbu_0, # of connection points: 4
#     Node 1, Type 0, BuildingBlock: CEKHIL_clean_sbu_0, # of connection points: 4
#     Node 2, Type 0, BuildingBlock: CEKHIL_clean_sbu_0, # of connection points: 4
#     Node 3, Type 0, BuildingBlock: CEKHIL_clean_sbu_0, # of connection points: 4
#     Node 4, Type 0, BuildingBlock: CEKHIL_clean_sbu_0, # of connection points: 4
#     Node 5, Type 0, BuildingBlock: CEKHIL_clean_sbu_0, # of connection points: 4
#     Node 6, Type 0, BuildingBlock: CEKHIL_clean_sbu_0, # of connection points: 4
#     Node 7, Type 0, BuildingBlock: CEKHIL_clean_sbu_0, # of connection points: 4
#     Node 8, Type 0, BuildingBlock: CEKHIL_clean_sbu_0, # of connection points: 4
#     Node 9, Type 0, BuildingBlock: CEKHIL_clean_sbu_0, # of connection points: 4
#     Node 10, Type 0, BuildingBlock: CEKHIL_clean_sbu_0, # of connection points: 4
#     Node 11, Type 0, BuildingBlock: CEKHIL_clean_sbu_0, # of connection points: 4
#     Node 12, Type 0, BuildingBlock: CEKHIL_clean_sbu_0, # of connection points: 4
#     Node 13, Type 0, BuildingBlock: CEKHIL_clean_sbu_0, # of connection points: 4
#     Node 14, Type 0, BuildingBlock: CEKHIL_clean_sbu_0, # of connection points: 4
#     Node 15, Type 0, BuildingBlock: CEKHIL_clean_sbu_0, # of connection points: 4
#     Node 16, Type 0, BuildingBlock: CEKHIL_clean_sbu_0, # of connection points: 4
#     Node 17, Type 0, BuildingBlock: CEKHIL_clean_sbu_0, # of connection points: 4
#     Node 18, Type 0, BuildingBlock: CEKHIL_clean_sbu_0, # of connection points: 4
#     Node 19, Type 0, BuildingBlock: CEKHIL_clean_sbu_0, # of connection points: 4
#     Node 20, Type 0, BuildingBlock: CEKHIL_clean_sbu_0, # of connection points: 4
#     Node 21, Type 0, BuildingBlock: CEKHIL_clean_sbu_0, # of connection points: 4
#     Node 22, Type 0, BuildingBlock: CEKHIL_clean_sbu_0, # of connection points: 4
#     Node 23, Type 0, BuildingBlock: CEKHIL_clean_sbu_0, # of connection points: 4
#     Node 24, Type 1, BuildingBlock: MIFKUJ_clean_sbu_0, # of connection points: 6
#     Node 25, Type 1, BuildingBlock: MIFKUJ_clean_sbu_0, # of connection points: 6
#     Node 26, Type 1, BuildingBlock: MIFKUJ_clean_sbu_0, # of connection points: 6
#     Node 27, Type 1, BuildingBlock: MIFKUJ_clean_sbu_0, # of connection points: 6
#     Node 28, Type 1, BuildingBlock: MIFKUJ_clean_sbu_0, # of connection points: 6
#     Node 29, Type 1, BuildingBlock: MIFKUJ_clean_sbu_0, # of connection points: 6
#     Node 30, Type 1, BuildingBlock: MIFKUJ_clean_sbu_0, # of connection points: 6
#     Node 31, Type 1, BuildingBlock: MIFKUJ_clean_sbu_0, # of connection points: 6
#     Node 32, Type 1, BuildingBlock: MIFKUJ_clean_sbu_0, # of connection points: 6
#     Node 33, Type 1, BuildingBlock: MIFKUJ_clean_sbu_0, # of connection points: 6
#     Node 34, Type 1, BuildingBlock: MIFKUJ_clean_sbu_0, # of connection points: 6
#     Node 35, Type 1, BuildingBlock: MIFKUJ_clean_sbu_0, # of connection points: 6
#     Node 36, Type 1, BuildingBlock: MIFKUJ_clean_sbu_0, # of connection points: 6
#     Node 37, Type 1, BuildingBlock: MIFKUJ_clean_sbu_0, # of connection points: 6
#     Node 38, Type 1, BuildingBlock: MIFKUJ_clean_sbu_0, # of connection points: 6
#     Node 39, Type 1, BuildingBlock: MIFKUJ_clean_sbu_0, # of connection points: 6
#     Edge 40, Type (0, 1), BuildingBlock: XUDNAN_clean_linker_2, # of connection points: 2
#     Edge 41, Type (0, 1), BuildingBlock: XUDNAN_clean_linker_2, # of connection points: 2
#     Edge 42, Type (0, 1), BuildingBlock: XUDNAN_clean_linker_2, # of connection points: 2
#     Edge 43, Type (0, 1), BuildingBlock: XUDNAN_clean_linker_2, # of connection points: 2
#     Edge 44, Type (0, 1), BuildingBlock: XUDNAN_clean_linker_2, # of connection points: 2
#     Edge 45, Type (0, 1), BuildingBlock: XUDNAN_clean_linker_2, # of connection points: 2
#     Edge 46, Type (0, 1), BuildingBlock: XUDNAN_clean_linker_2, # of connection points: 2
#     Edge 47, Type (0, 1), BuildingBlock: XUDNAN_clean_linker_2, # of connection points: 2
#     Edge 48, Type (0, 1), BuildingBlock: XUDNAN_clean_linker_2, # of connection points: 2
#     Edge 49, Type (0, 1), BuildingBlock: XUDNAN_clean_linker_2, # of connection points: 2
#     Edge 50, Type (0, 1), BuildingBlock: XUDNAN_clean_linker_2, # of connection points: 2
#     Edge 51, Type (0, 1), BuildingBlock: XUDNAN_clean_linker_2, # of connection points: 2
#     Edge 52, Type (0, 1), BuildingBlock: XUDNAN_clean_linker_2, # of connection points: 2
#     Edge 53, Type (0, 1), BuildingBlock: XUDNAN_clean_linker_2, # of connection points: 2
#     Edge 54, Type (0, 1), BuildingBlock: XUDNAN_clean_linker_2, # of connection points: 2
#     Edge 55, Type (0, 1), BuildingBlock: XUDNAN_clean_linker_2, # of connection points: 2
#     Edge 56, Type (0, 1), BuildingBlock: XUDNAN_clean_linker_2, # of connection points: 2
#     Edge 57, Type (0, 1), BuildingBlock: XUDNAN_clean_linker_2, # of connection points: 2
#     Edge 58, Type (0, 1), BuildingBlock: XUDNAN_clean_linker_2, # of connection points: 2
#     Edge 59, Type (0, 1), BuildingBlock: XUDNAN_clean_linker_2, # of connection points: 2
#     Edge 60, Type (0, 1), BuildingBlock: XUDNAN_clean_linker_2, # of connection points: 2
#     Edge 61, Type (0, 1), BuildingBlock: XUDNAN_clean_linker_2, # of connection points: 2
#     Edge 62, Type (0, 1), BuildingBlock: XUDNAN_clean_linker_2, # of connection points: 2
#     Edge 63, Type (0, 1), BuildingBlock: XUDNAN_clean_linker_2, # of connection points: 2
#     Edge 64, Type (0, 1), BuildingBlock: XUDNAN_clean_linker_2, # of connection points: 2
#     Edge 65, Type (0, 1), BuildingBlock: XUDNAN_clean_linker_2, # of connection points: 2
#     Edge 66, Type (0, 1), BuildingBlock: XUDNAN_clean_linker_2, # of connection points: 2
#     Edge 67, Type (0, 1), BuildingBlock: XUDNAN_clean_linker_2, # of connection points: 2
#     Edge 68, Type (0, 1), BuildingBlock: XUDNAN_clean_linker_2, # of connection points: 2
#     Edge 69, Type (0, 1), BuildingBlock: XUDNAN_clean_linker_2, # of connection points: 2
#     Edge 70, Type (0, 1), BuildingBlock: XUDNAN_clean_linker_2, # of connection points: 2
#     Edge 71, Type (0, 1), BuildingBlock: XUDNAN_clean_linker_2, # of connection points: 2
#     Edge 72, Type (0, 1), BuildingBlock: XUDNAN_clean_linker_2, # of connection points: 2
#     Edge 73, Type (0, 1), BuildingBlock: XUDNAN_clean_linker_2, # of connection points: 2
#     Edge 74, Type (0, 1), BuildingBlock: XUDNAN_clean_linker_2, # of connection points: 2
#     Edge 75, Type (0, 1), BuildingBlock: XUDNAN_clean_linker_2, # of connection points: 2
#     Edge 76, Type (0, 1), BuildingBlock: XUDNAN_clean_linker_2, # of connection points: 2
#     Edge 77, Type (0, 1), BuildingBlock: XUDNAN_clean_linker_2, # of connection points: 2
#     Edge 78, Type (0, 1), BuildingBlock: XUDNAN_clean_linker_2, # of connection points: 2
#     Edge 79, Type (0, 1), BuildingBlock: XUDNAN_clean_linker_2, # of connection points: 2
#     Edge 80, Type (0, 1), BuildingBlock: XUDNAN_clean_linker_2, # of connection points: 2
#     Edge 81, Type (0, 1), BuildingBlock: XUDNAN_clean_linker_2, # of connection points: 2
#     Edge 82, Type (0, 1), BuildingBlock: XUDNAN_clean_linker_2, # of connection points: 2
#     Edge 83, Type (0, 1), BuildingBlock: XUDNAN_clean_linker_2, # of connection points: 2
#     Edge 84, Type (0, 1), BuildingBlock: XUDNAN_clean_linker_2, # of connection points: 2
#     Edge 85, Type (0, 1), BuildingBlock: XUDNAN_clean_linker_2, # of connection points: 2
#     Edge 86, Type (0, 1), BuildingBlock: XUDNAN_clean_linker_2, # of connection points: 2
#     Edge 87, Type (0, 1), BuildingBlock: XUDNAN_clean_linker_2, # of connection points: 2
#     Edge 88, Type (0, 1), BuildingBlock: XUDNAN_clean_linker_2, # of connection points: 2
#     Edge 89, Type (0, 1), BuildingBlock: XUDNAN_clean_linker_2, # of connection points: 2
#     Edge 90, Type (0, 1), BuildingBlock: XUDNAN_clean_linker_2, # of connection points: 2
#     Edge 91, Type (0, 1), BuildingBlock: XUDNAN_clean_linker_2, # of connection points: 2
#     Edge 92, Type (0, 1), BuildingBlock: XUDNAN_clean_linker_2, # of connection points: 2
#     Edge 93, Type (0, 1), BuildingBlock: XUDNAN_clean_linker_2, # of connection points: 2
#     Edge 94, Type (0, 1), BuildingBlock: XUDNAN_clean_linker_2, # of connection points: 2
#     Edge 95, Type (0, 1), BuildingBlock: XUDNAN_clean_linker_2, # of connection points: 2
#     Edge 96, Type (0, 1), BuildingBlock: XUDNAN_clean_linker_2, # of connection points: 2
#     Edge 97, Type (0, 1), BuildingBlock: XUDNAN_clean_linker_2, # of connection points: 2
#     Edge 98, Type (0, 1), BuildingBlock: XUDNAN_clean_linker_2, # of connection points: 2
#     Edge 99, Type (0, 1), BuildingBlock: XUDNAN_clean_linker_2, # of connection points: 2
#     Edge 100, Type (0, 1), BuildingBlock: XUDNAN_clean_linker_2, # of connection points: 2
#     Edge 101, Type (0, 1), BuildingBlock: XUDNAN_clean_linker_2, # of connection points: 2
#     Edge 102, Type (0, 1), BuildingBlock: XUDNAN_clean_linker_2, # of connection points: 2
#     Edge 103, Type (0, 1), BuildingBlock: XUDNAN_clean_linker_2, # of connection points: 2
#     Edge 104, Type (0, 1), BuildingBlock: XUDNAN_clean_linker_2, # of connection points: 2
#     Edge 105, Type (0, 1), BuildingBlock: XUDNAN_clean_linker_2, # of connection points: 2
#     Edge 106, Type (0, 1), BuildingBlock: XUDNAN_clean_linker_2, # of connection points: 2
#     Edge 107, Type (0, 1), BuildingBlock: XUDNAN_clean_linker_2, # of connection points: 2
#     Edge 108, Type (0, 1), BuildingBlock: XUDNAN_clean_linker_2, # of connection points: 2
#     Edge 109, Type (0, 1), BuildingBlock: XUDNAN_clean_linker_2, # of connection points: 2
#     Edge 110, Type (0, 1), BuildingBlock: XUDNAN_clean_linker_2, # of connection points: 2
#     Edge 111, Type (0, 1), BuildingBlock: XUDNAN_clean_linker_2, # of connection points: 2
#     Edge 112, Type (0, 1), BuildingBlock: XUDNAN_clean_linker_2, # of connection points: 2
#     Edge 113, Type (0, 1), BuildingBlock: XUDNAN_clean_linker_2, # of connection points: 2
#     Edge 114, Type (0, 1), BuildingBlock: XUDNAN_clean_linker_2, # of connection points: 2
#     Edge 115, Type (0, 1), BuildingBlock: XUDNAN_clean_linker_2, # of connection points: 2
#     Edge 116, Type (0, 1), BuildingBlock: XUDNAN_clean_linker_2, # of connection points: 2
#     Edge 117, Type (0, 1), BuildingBlock: XUDNAN_clean_linker_2, # of connection points: 2
#     Edge 118, Type (0, 1), BuildingBlock: XUDNAN_clean_linker_2, # of connection points: 2
#     Edge 119, Type (0, 1), BuildingBlock: XUDNAN_clean_linker_2, # of connection points: 2
#     Edge 120, Type (0, 1), BuildingBlock: XUDNAN_clean_linker_2, # of connection points: 2
#     Edge 121, Type (0, 1), BuildingBlock: XUDNAN_clean_linker_2, # of connection points: 2
#     Edge 122, Type (0, 1), BuildingBlock: XUDNAN_clean_linker_2, # of connection points: 2
#     Edge 123, Type (0, 1), BuildingBlock: XUDNAN_clean_linker_2, # of connection points: 2
#     Edge 124, Type (0, 1), BuildingBlock: XUDNAN_clean_linker_2, # of connection points: 2
#     Edge 125, Type (0, 1), BuildingBlock: XUDNAN_clean_linker_2, # of connection points: 2
#     Edge 126, Type (0, 1), BuildingBlock: XUDNAN_clean_linker_2, # of connection points: 2
#     Edge 127, Type (0, 1), BuildingBlock: XUDNAN_clean_linker_2, # of connection points: 2
#     Edge 128, Type (0, 1), BuildingBlock: XUDNAN_clean_linker_2, # of connection points: 2
#     Edge 129, Type (0, 1), BuildingBlock: XUDNAN_clean_linker_2, # of connection points: 2
#     Edge 130, Type (0, 1), BuildingBlock: XUDNAN_clean_linker_2, # of connection points: 2
#     Edge 131, Type (0, 1), BuildingBlock: XUDNAN_clean_linker_2, # of connection points: 2
#     Edge 132, Type (0, 1), BuildingBlock: XUDNAN_clean_linker_2, # of connection points: 2
#     Edge 133, Type (0, 1), BuildingBlock: XUDNAN_clean_linker_2, # of connection points: 2
#     Edge 134, Type (0, 1), BuildingBlock: XUDNAN_clean_linker_2, # of connection points: 2
#     Edge 135, Type (0, 1), BuildingBlock: XUDNAN_clean_linker_2, # of connection points: 2
# Relax obj value: 0.097
# Max RMSD: 0.280
# Mean RMSD: 0.129
data_MOF--net-gar--node1-CEKHIL_clean_sbu_0--node2-MIFKUJ_clean_sbu_0--edge1-XUDNAN_clean_linker_2
_symmetry_space_group_name_H-M    P1
_symmetry_Int_Tables_number       1
_symmetry_cell_setting            triclinic
loop_
_symmetry_equiv_pos_as_xyz
'x, y, z'
_cell_length_a     56.913684
_cell_length_b     56.322001
_cell_length_c     53.40506
_cell_angle_alpha  94.521058
_cell_angle_beta   94.621482
_cell_angle_gamma 98.991676
loop_
_atom_site_label
_atom_site_type_symbol
_atom_site_fract_x
_atom_site_fract_y
_atom_site_fract_z
_atom_type_partial_charge
Co0 Co 0.03821 0.27984 0.40352 0.0
O1 O 0.07198 0.27966 0.41084 0.0
O2 O 0.05144 0.26925 0.37341 0.0
C3 C 0.03646 0.31628 0.42376 0.0
O4 O 0.00443 0.27826 0.38748 0.0
Co5 Co 0.00269 0.28164 0.44498 0.0
O6 O 0.97877 0.28348 0.41661 0.0
C7 C 0.02584 0.23909 0.43544 0.0
C8 C 0.07168 0.27198 0.38715 0.0
C9 C 0.98368 0.28087 0.39386 0.0
O10 O 0.03136 0.24557 0.41373 0.0
O11 O 0.01688 0.25238 0.45136 0.0
O12 O 0.04391 0.31507 0.40135 0.0
O13 O 0.03266 0.29614 0.43372 0.0
Co14 Co 1.00082 0.75636 0.64161 0.0
O15 O 0.96732 0.758 0.63631 0.0
O16 O 0.98603 0.75028 0.67216 0.0
C17 C 0.01279 0.79041 0.62335 0.0
O18 O 0.03469 0.75518 0.6556 0.0
Co19 Co 0.03389 0.75263 0.59841 0.0
O20 O 0.06026 0.76071 0.62579 0.0
C21 C 0.99961 0.71006 0.60856 0.0
C22 C 0.96659 0.75421 0.65993 0.0
C23 C 0.05587 0.75893 0.64861 0.0
O24 O 0.99493 0.72078 0.62936 0.0
O25 O 0.01286 0.72032 0.59297 0.0
O26 O 0.0076 0.79161 0.64663 0.0
O27 O 0.00943 0.76907 0.61163 0.0
Co28 Co 0.53035 0.77743 0.89787 0.0
O29 O 0.56455 0.77752 0.90082 0.0
O30 O 0.54022 0.76928 0.86544 0.0
C31 C 0.53116 0.81257 0.92179 0.0
O32 O 0.49588 0.77601 0.8853 0.0
Co33 Co 0.49717 0.77772 0.94111 0.0
O34 O 0.47222 0.78403 0.91526 0.0
C35 C 0.51788 0.73407 0.92613 0.0
C36 C 0.56168 0.7721 0.87646 0.0
C37 C 0.47577 0.78001 0.89219 0.0
O38 O 0.52426 0.74253 0.90552 0.0
O39 O 0.50927 0.74625 0.94341 0.0
O40 O 0.53563 0.81287 0.89828 0.0
O41 O 0.52755 0.79159 0.93007 0.0
Co42 Co 0.49779 0.25636 0.14407 0.0
O43 O 0.46436 0.25803 0.13731 0.0
O44 O 0.48131 0.24868 0.17331 0.0
C45 C 0.51052 0.29145 0.1278 0.0
O46 O 0.53101 0.25425 0.15937 0.0
Co47 Co 0.53352 0.25571 0.10296 0.0
O48 O 0.55824 0.26384 0.13211 0.0
C49 C 0.4999 0.2113 0.11003 0.0
C50 C 0.4624 0.25323 0.16053 0.0
C51 C 0.55269 0.25938 0.15409 0.0
O52 O 0.49315 0.22123 0.13028 0.0
O53 O 0.51387 0.22273 0.09577 0.0
O54 O 0.50421 0.2917 0.15067 0.0
O55 O 0.50788 0.27051 0.11541 0.0
Co56 Co 0.02186 0.77906 0.15321 0.0
O57 O 0.98748 0.77261 0.14565 0.0
O58 O 0.00678 0.76942 0.1827 0.0
C59 C 0.02618 0.81353 0.13386 0.0
O60 O 0.05613 0.78351 0.16927 0.0
Co61 Co 0.05919 0.78507 0.1143 0.0
O62 O 0.08416 0.79328 0.1431 0.0
C63 C 0.03343 0.73636 0.12233 0.0
C64 C 0.98662 0.7677 0.16896 0.0
C65 C 0.07808 0.7891 0.16491 0.0
O66 O 0.02409 0.74483 0.14158 0.0
O67 O 0.04601 0.74966 0.10829 0.0
O68 O 0.02096 0.81385 0.15717 0.0
O69 O 0.02886 0.79291 0.12333 0.0
Co70 Co 0.5109 0.75217 0.38962 0.0
O71 O 0.54526 0.75613 0.39533 0.0
O72 O 0.52352 0.73658 0.36139 0.0
C73 C 0.50881 0.79084 0.40168 0.0
O74 O 0.47579 0.74577 0.37569 0.0
Co75 Co 0.47757 0.76257 0.43119 0.0
O76 O 0.45527 0.76612 0.40171 0.0
C77 C 0.49704 0.71653 0.42776 0.0
C78 C 0.54446 0.74457 0.37319 0.0
C79 C 0.45718 0.7551 0.38041 0.0
O80 O 0.50708 0.72157 0.40757 0.0
O81 O 0.48569 0.7308 0.44002 0.0
O82 O 0.51372 0.78488 0.3789 0.0
O83 O 0.50667 0.77379 0.41644 0.0
Co84 Co 0.52337 0.27377 0.64997 0.0
O85 O 0.48982 0.27117 0.6402 0.0
O86 O 0.50488 0.26287 0.67734 0.0
C87 C 0.53201 0.31024 0.6353 0.0
O88 O 0.55718 0.27579 0.66744 0.0
Co89 Co 0.56174 0.28064 0.61122 0.0
O90 O 0.58402 0.29125 0.64177 0.0
C91 C 0.52942 0.2339 0.61216 0.0
C92 C 0.48619 0.26561 0.66282 0.0
C93 C 0.57854 0.28504 0.66322 0.0
O94 O 0.52324 0.23992 0.63422 0.0
O95 O 0.54238 0.24835 0.59954 0.0
O96 O 0.52474 0.30871 0.65766 0.0
O97 O 0.53313 0.29014 0.62272 0.0
Co98 Co 0.01357 0.25541 0.89085 0.0
O99 O 0.04748 0.25734 0.89878 0.0
O100 O 0.02724 0.24038 0.86289 0.0
C101 C 0.01283 0.2941 0.90415 0.0
O102 O 0.97897 0.25098 0.87516 0.0
Co103 Co 0.97907 0.26668 0.93131 0.0
O104 O 0.95715 0.26955 0.9014 0.0
C105 C 0.99807 0.22027 0.9286 0.0
C106 C 0.04764 0.24671 0.87637 0.0
C107 C 0.95981 0.25937 0.87989 0.0
O108 O 0.00735 0.22425 0.90771 0.0
O109 O 0.9881 0.23565 0.94109 0.0
O110 O 0.01865 0.28876 0.88158 0.0
O111 O 0.00906 0.27644 0.91789 0.0
Co112 Co 0.39499 0.03089 0.29249 0.0
O113 O 0.40132 0.06471 0.28715 0.0
O114 O 0.36664 0.04017 0.27718 0.0
C115 C 0.4131 0.03519 0.33175 0.0
O116 O 0.38048 0.99621 0.29504 0.0
Co117 Co 0.4333 0.99878 0.30334 0.0
O118 O 0.40648 0.97281 0.30822 0.0
C119 C 0.42356 0.01328 0.25197 0.0
C120 C 0.37914 0.06154 0.27774 0.0
C121 C 0.38532 0.97592 0.30139 0.0
O122 O 0.40509 0.02179 0.25855 0.0
O123 O 0.43828 0.00546 0.26747 0.0
O124 O 0.39132 0.03937 0.32797 0.0
O125 O 0.42353 0.02971 0.31206 0.0
Co126 Co 0.26453 0.12893 0.49215 0.0
O127 O 0.29923 0.13124 0.49512 0.0
O128 O 0.27353 0.09777 0.49665 0.0
C129 C 0.26249 0.15166 0.45866 0.0
O130 O 0.22841 0.11758 0.49013 0.0
Co131 Co 0.23686 0.1724 0.49616 0.0
O132 O 0.20731 0.14806 0.49118 0.0
C133 C 0.26195 0.15754 0.54174 0.0
C134 C 0.2956 0.10812 0.49724 0.0
C135 C 0.20847 0.12563 0.49014 0.0
O136 O 0.26506 0.1375 0.52987 0.0
O137 O 0.25377 0.17437 0.53079 0.0
O138 O 0.2641 0.12886 0.4549 0.0
O139 O 0.2629 0.1597 0.48188 0.0
Co140 Co 0.14471 0.00729 0.79867 0.0
O141 O 0.13944 0.97203 0.79663 0.0
O142 O 0.17318 0.99523 0.79045 0.0
C143 C 0.12734 0.01186 0.83531 0.0
O144 O 0.1597 0.04265 0.79955 0.0
Co145 Co 0.10873 0.04172 0.79949 0.0
O146 O 0.13541 0.06933 0.80673 0.0
C147 C 0.11452 0.01432 0.75134 0.0
C148 C 0.1617 0.97375 0.79191 0.0
C149 C 0.15605 0.0645 0.80334 0.0
O150 O 0.13261 0.00645 0.76193 0.0
O151 O 0.10195 0.02746 0.7634 0.0
O152 O 0.1494 0.00837 0.83547 0.0
O153 O 0.11631 0.0124 0.8133 0.0
Co154 Co 0.25012 0.88698 0.00385 0.0
O155 O 0.21657 0.88574 0.00893 0.0
O156 O 0.24374 0.91893 0.01185 0.0
C157 C 0.24383 0.86132 0.96846 0.0
O158 O 0.28516 0.89729 -0.0007 0.0
Co159 Co 0.27805 0.84372 2e-05 0.0
O160 O 0.30484 0.86678 0.99008 0.0
C161 C 0.26467 0.86335 0.04951 0.0
C162 C 0.22166 0.90917 0.0125 0.0
C163 C 0.30403 0.88926 0.99327 0.0
O164 O 0.25792 0.88198 0.04035 0.0
O165 O 0.27098 0.84605 0.03601 0.0
O166 O 0.24216 0.88399 0.96707 0.0
O167 O 0.24853 0.85508 0.99067 0.0
Co168 Co 0.26301 0.39206 0.0397 0.0
O169 O 0.22834 0.38558 0.0344 0.0
O170 O 0.24979 0.41972 0.05246 0.0
C171 C 0.26896 0.37673 0.00072 0.0
O172 O 0.29853 0.40698 0.04693 0.0
Co173 Co 0.2958 0.353 0.03628 0.0
O174 O 0.32076 0.38064 0.03153 0.0
C175 C 0.26609 0.35673 0.07904 0.0
C176 C 0.22892 0.40737 0.04467 0.0
C177 C 0.31842 0.40191 0.03971 0.0
O178 O 0.26187 0.37767 0.07348 0.0
O179 O 0.27741 0.34353 0.06541 0.0
O180 O 0.26423 0.39857 0.00412 0.0
O181 O 0.2687 0.3648 0.02031 0.0
Co182 Co 0.78574 0.13722 0.02681 0.0
O183 O 0.81968 0.13995 0.02407 0.0
O184 O 0.7969 0.10942 0.03884 0.0
C185 C 0.77534 0.14877 0.98856 0.0
O186 O 0.7507 0.12702 0.03109 0.0
Co187 Co 0.7588 0.1825 0.02424 0.0
O188 O 0.72997 0.15757 0.02545 0.0
C189 C 0.79258 0.17803 0.06412 0.0
C190 C 0.81776 0.11894 0.03293 0.0
C191 C 0.73111 0.13564 0.0292 0.0
O192 O 0.79069 0.15496 0.06164 0.0
O193 O 0.79086 0.18917 0.04443 0.0
O194 O 0.77935 0.1268 0.99039 0.0
O195 O 0.78012 0.16308 0.0089 0.0
Co196 Co 0.13958 0.49391 0.26686 0.0
O197 O 0.13403 0.45915 0.26448 0.0
O198 O 0.16739 0.4822 0.25607 0.0
C199 C 0.12511 0.49869 0.3044 0.0
O200 O 0.15283 0.52949 0.26796 0.0
Co201 Co 0.09914 0.52477 0.27037 0.0
O202 O 0.12572 0.55234 0.27912 0.0
C203 C 0.10518 0.49794 0.22219 0.0
C204 C 0.15571 0.46083 0.25803 0.0
C205 C 0.14682 0.54996 0.27426 0.0
O206 O 0.12573 0.49384 0.231 0.0
O207 O 0.09089 0.50761 0.23557 0.0
O208 O 0.14687 0.49462 0.30329 0.0
O209 O 0.11252 0.49815 0.28318 0.0
Co210 Co 0.76562 0.88728 0.54056 0.0
O211 O 0.73085 0.88157 0.53534 0.0
O212 O 0.75295 0.9147 0.55474 0.0
C213 C 0.77065 0.87297 0.50066 0.0
O214 O 0.80113 0.90204 0.54812 0.0
Co215 Co 0.79955 0.84982 0.53353 0.0
O216 O 0.82332 0.87829 0.52838 0.0
C217 C 0.77079 0.85047 0.57796 0.0
C218 C 0.7319 0.90319 0.54637 0.0
C219 C 0.8207 0.89862 0.5389 0.0
O220 O 0.76478 0.87112 0.5736 0.0
O221 O 0.78307 0.83922 0.56341 0.0
O222 O 0.76657 0.89496 0.50507 0.0
O223 O 0.771 0.86068 0.51991 0.0
Co224 Co 0.89187 0.01381 0.25681 0.0
O225 O 0.90134 0.04839 0.26023 0.0
O226 O 0.86609 0.02962 0.24319 0.0
C227 C 0.90505 0.00973 0.29714 0.0
O228 O 0.87466 0.97852 0.25178 0.0
Co229 Co 0.9279 0.97846 0.26598 0.0
O230 O 0.89872 0.95517 0.26954 0.0
C231 C 0.92445 0.00076 0.21722 0.0
C232 C 0.87983 0.04993 0.25123 0.0
C233 C 0.8783 0.95831 0.26002 0.0
O234 O 0.90625 0.0106 0.22298 0.0
O235 O 0.93594 0.98932 0.23255 0.0
O236 O 0.88413 0.01551 0.29203 0.0
O237 O 0.91765 0.00774 0.27838 0.0
Co238 Co 0.28251 0.63775 0.52462 0.0
O239 O 0.31631 0.64656 0.52254 0.0
O240 O 0.29794 0.61055 0.53077 0.0
C241 C 0.27056 0.65338 0.48946 0.0
O242 O 0.24846 0.62137 0.52704 0.0
Co243 Co 0.24926 0.6765 0.53038 0.0
O244 O 0.22321 0.64844 0.5278 0.0
C245 C 0.2861 0.67185 0.5706 0.0
C246 C 0.31757 0.62445 0.52706 0.0
C247 C 0.22741 0.62686 0.52735 0.0
O248 O 0.28709 0.65022 0.56148 0.0
O249 O 0.27443 0.68613 0.55926 0.0
O250 O 0.27709 0.63224 0.48786 0.0
O251 O 0.27349 0.66495 0.51155 0.0
Co252 Co 0.38867 0.51331 0.75676 0.0
O253 O 0.39731 0.54813 0.75816 0.0
O254 O 0.36168 0.52762 0.74412 0.0
C255 C 0.40443 0.51005 0.79639 0.0
O256 O 0.37193 0.47796 0.75334 0.0
Co257 Co 0.42558 0.47848 0.76322 0.0
O258 O 0.39733 0.45413 0.76745 0.0
C259 C 0.41902 0.50033 0.71479 0.0
C260 C 0.37537 0.5484 0.74954 0.0
C261 C 0.37637 0.45744 0.75996 0.0
O262 O 0.40088 0.50947 0.72192 0.0
O263 O 0.43169 0.48898 0.72904 0.0
O264 O 0.38334 0.5159 0.79266 0.0
O265 O 0.41582 0.50784 0.77668 0.0
Co266 Co 0.63837 0.9925 0.76919 0.0
O267 O 0.63184 0.95785 0.76267 0.0
O268 O 0.66628 0.98102 0.7582 0.0
C269 C 0.62297 0.99322 0.80649 0.0
O270 O 0.65267 0.02815 0.77491 0.0
Co271 Co 0.59871 0.0241 0.77799 0.0
O272 O 0.62571 0.05093 0.78712 0.0
C273 C 0.60436 0.00187 0.72713 0.0
C274 C 0.65407 0.95949 0.75808 0.0
C275 C 0.64681 0.04844 0.78246 0.0
O276 O 0.6251 0.99672 0.73387 0.0
O277 O 0.59032 0.00888 0.7427 0.0
O278 O 0.64466 0.98906 0.80526 0.0
O279 O 0.61112 0.99541 0.78557 0.0
Co280 Co 0.7648 0.62846 0.9949 0.0
O281 O 0.79952 0.63166 0.99854 0.0
O282 O 0.77465 0.59932 0.00597 0.0
C283 C 0.76331 0.64351 0.95655 0.0
O284 O 0.72861 0.61639 0.99246 0.0
Co285 Co 0.73572 0.66987 0.98798 0.0
O286 O 0.70778 0.64413 0.97839 0.0
C287 C 0.7617 0.66545 0.03758 0.0
C288 C 0.79649 0.60952 0.00445 0.0
C289 C 0.70884 0.6229 0.98442 0.0
O290 O 0.7649 0.64378 0.03064 0.0
O291 O 0.75265 0.67902 0.02262 0.0
O292 O 0.76519 0.62099 0.95842 0.0
O293 O 0.7629 0.65623 0.97758 0.0
Co294 Co 0.88917 0.52705 0.78918 0.0
O295 O 0.88912 0.56141 0.78915 0.0
O296 O 0.85923 0.53237 0.77368 0.0
C297 C 0.90449 0.52795 0.82945 0.0
O298 O 0.88067 0.49084 0.78569 0.0
Co299 Co 0.93287 0.50147 0.79965 0.0
O300 O 0.90949 0.47131 0.80036 0.0
C301 C 0.92483 0.52325 0.75142 0.0
C302 C 0.86742 0.5552 0.77836 0.0
C303 C 0.88816 0.47149 0.79131 0.0
O304 O 0.90365 0.52644 0.75604 0.0
O305 O 0.93956 0.51573 0.76712 0.0
O306 O 0.88176 0.52796 0.82435 0.0
O307 O 0.9172 0.52826 0.81056 0.0
Co308 Co 0.75007 0.38695 0.50371 0.0
O309 O 0.71662 0.38774 0.50795 0.0
O310 O 0.74637 0.41826 0.51827 0.0
C311 C 0.7442 0.36896 0.46389 0.0
O312 O 0.78592 0.39483 0.50172 0.0
Co313 Co 0.77276 0.34098 0.49237 0.0
O314 O 0.80024 0.36372 0.48306 0.0
C315 C 0.75704 0.3528 0.54288 0.0
C316 C 0.72363 0.41024 0.51648 0.0
C317 C 0.80261 0.38581 0.49149 0.0
O318 O 0.75454 0.37431 0.53782 0.0
O319 O 0.76199 0.3367 0.52678 0.0
O320 O 0.7444 0.39206 0.46801 0.0
O321 O 0.74623 0.35747 0.48367 0.0
Co322 Co 0.64398 0.5121 0.29675 0.0
O323 O 0.64038 0.47714 0.29032 0.0
O324 O 0.67422 0.50257 0.29038 0.0
C325 C 0.62251 0.51134 0.33104 0.0
O326 O 0.65636 0.54846 0.30289 0.0
Co327 Co 0.6026 0.54224 0.29921 0.0
O328 O 0.62767 0.56971 0.31288 0.0
C329 C 0.61604 0.52283 0.24965 0.0
C330 C 0.66327 0.48042 0.28835 0.0
C331 C 0.64943 0.56842 0.30997 0.0
O332 O 0.63473 0.5154 0.25969 0.0
O333 O 0.6009 0.5318 0.26242 0.0
O334 O 0.64493 0.50895 0.33361 0.0
O335 O 0.61413 0.51345 0.30843 0.0
Zn336 Zn 0.0447 0.00871 0.03469 0.0
Zn337 Zn 0.99625 0.02095 0.00926 0.0
C338 C 0.03783 0.96671 0.0569 0.0
O339 O 0.05043 0.98296 0.0738 0.0
C340 C 0.01649 0.06524 0.99033 0.0
O341 O 0.01325 0.0514 0.96899 0.0
O342 O 0.08005 0.00776 0.04219 0.0
O343 O 0.04398 0.02032 -0.00056 0.0
O344 O 0.00939 0.00068 0.9822 0.0
C345 C 0.08596 0.99348 0.02495 0.0
O346 O 0.0698 0.98308 0.00685 0.0
O347 O 0.0311 0.97328 0.03555 0.0
C348 C 0.95682 0.03913 0.0197 0.0
O349 O 0.97347 0.04777 0.03801 0.0
O350 O 0.9618 0.02531 0.00148 0.0
O351 O 0.99486 0.00796 0.04343 0.0
O352 O 0.02928 0.02595 0.06283 0.0
O353 O 0.01289 0.05573 0.01083 0.0
C354 C 0.03145 0.00809 0.98064 0.0
C355 C 0.00716 0.01779 0.0635 0.0
Zn356 Zn 0.25962 0.7599 0.29676 0.0
Zn357 Zn 0.26985 0.77004 0.24929 0.0
C358 C 0.23287 0.71393 0.28896 0.0
O359 O 0.22009 0.72594 0.3032 0.0
C360 C 0.29658 0.8149 0.26627 0.0
O361 O 0.31077 0.80504 0.25187 0.0
O362 O 0.25576 0.75596 0.33309 0.0
O363 O 0.2951 0.77129 0.29631 0.0
O364 O 0.29624 0.75136 0.25959 0.0
C365 C 0.26781 0.74034 0.34084 0.0
O366 O 0.28263 0.732 0.32608 0.0
O367 O 0.25184 0.72509 0.28153 0.0
C368 C 0.25777 0.79667 0.21189 0.0
O369 O 0.24423 0.80119 0.22985 0.0
O370 O 0.27155 0.78107 0.21461 0.0
O371 O 0.2357 0.7538 0.24862 0.0
O372 O 0.23321 0.77731 0.28249 0.0
O373 O 0.27654 0.80277 0.26979 0.0
C374 C 0.30648 0.75994 0.28117 0.0
C375 C 0.22324 0.76528 0.26226 0.0
Zn376 Zn 0.48822 0.01886 0.52455 0.0
Zn377 Zn 0.54387 0.99177 0.51002 0.0
C378 C 0.50582 0.0638 0.55032 0.0
O379 O 0.49346 0.05266 0.56688 0.0
C380 C 0.5146 0.94343 0.49804 0.0
O381 O 0.51221 0.94227 0.52219 0.0
O382 O 0.45202 0.02185 0.51994 0.0
O383 O 0.49921 0.00069 0.49545 0.0
O384 O 0.53502 0.01699 0.48746 0.0
C385 C 0.44567 0.04262 0.51885 0.0
O386 O 0.46213 0.0618 0.51967 0.0
O387 O 0.50669 0.05268 0.52884 0.0
C388 C 0.58468 0.97396 0.52985 0.0
O389 O 0.56798 0.96445 0.54336 0.0
O390 O 0.57935 0.98786 0.51329 0.0
O391 O 0.5328 0.99458 0.54529 0.0
O392 O 0.49844 0.00475 0.55629 0.0
O393 O 0.52702 0.96172 0.49057 0.0
C394 C 0.51243 0.01443 0.48279 0.0
C395 C 0.51833 0.99771 0.56179 0.0
Zn396 Zn 0.29402 0.25084 0.76152 0.0
Zn397 Zn 0.24441 0.2672 0.78698 0.0
C398 C 0.28151 0.2183 0.72033 0.0
O399 O 0.29455 0.20815 0.73642 0.0
C400 C 0.25917 0.30155 0.82817 0.0
O401 O 0.24518 0.31249 0.81386 0.0
O402 O 0.32912 0.25174 0.75502 0.0
O403 O 0.29247 0.2858 0.77376 0.0
O404 O 0.2557 0.28983 0.76079 0.0
C405 C 0.33416 0.267 0.73908 0.0
O406 O 0.31742 0.27896 0.73104 0.0
O407 O 0.27734 0.23947 0.72648 0.0
C408 C 0.20602 0.25583 0.81378 0.0
O409 O 0.22388 0.24705 0.82472 0.0
O410 O 0.20983 0.26779 0.79478 0.0
O411 O 0.24463 0.23124 0.78133 0.0
O412 O 0.28199 0.22418 0.78321 0.0
O413 O 0.26338 0.28093 0.82 0.0
C414 C 0.27784 0.29855 0.76474 0.0
C415 C 0.25973 0.21703 0.78425 0.0
Zn416 Zn 0.02486 0.98693 0.52787 0.0
Zn417 Zn 0.00824 0.03336 0.51257 0.0
C418 C 0.05628 0.99489 0.57103 0.0
O419 O 0.06795 0.98551 0.55352 0.0
C420 C 0.97839 0.01601 0.46911 0.0
O421 O 0.96559 0.02908 0.4821 0.0
O422 O 0.02889 0.95203 0.52969 0.0
O423 O 0.98859 0.98458 0.52003 0.0
O424 O 0.98468 0.02063 0.5365 0.0
C425 C 0.0194 0.94308 0.54838 0.0
O426 O 0.00698 0.95604 0.56206 0.0
O427 O 0.03591 0.00036 0.56451 0.0
C428 C 0.01134 0.07487 0.48496 0.0
O429 O 0.01801 0.05981 0.46796 0.0
O430 O 0.00527 0.06751 0.50584 0.0
O431 O 0.0428 0.03711 0.52511 0.0
O432 O 0.04948 0.00343 0.50583 0.0
O433 O 0.99916 0.01386 0.47846 0.0
C434 C 0.97618 0.99846 0.53096 0.0
C435 C 0.05694 0.02523 0.51443 0.0
Zn436 Zn 0.25462 0.78661 0.76185 0.0
Zn437 Zn 0.28093 0.73455 0.77632 0.0
C438 C 0.20753 0.75839 0.74103 0.0
O439 O 0.21822 0.74878 0.72284 0.0
C440 C 0.32353 0.76556 0.79921 0.0
O441 O 0.31234 0.76349 0.81965 0.0
O442 O 0.25248 0.82249 0.76077 0.0
O443 O 0.27027 0.78316 0.79611 0.0
O444 O 0.26336 0.74537 0.80569 0.0
C445 C 0.23739 0.8296 0.77486 0.0
O446 O 0.22609 0.8144 0.78897 0.0
O447 O 0.21985 0.77192 0.75906 0.0
C448 C 0.3048 0.6982 0.75856 0.0
O449 O 0.31033 0.71656 0.74526 0.0
O450 O 0.29031 0.70034 0.77536 0.0
O451 O 0.26195 0.73675 0.74378 0.0
O452 O 0.272 0.77373 0.73351 0.0
O453 O 0.31291 0.75622 0.77809 0.0
C454 C 0.26256 0.76775 0.81092 0.0
C455 C 0.27131 0.75112 0.72887 0.0
Zn456 Zn 0.52328 0.02009 -0.00085 0.0
Zn457 Zn 0.50847 0.00185 0.04651 0.0
C458 C 0.56766 0.04889 0.00819 0.0
O459 O 0.55529 0.06163 0.99419 0.0
C460 C 0.46625 0.97494 0.02363 0.0
O461 O 0.47616 0.95942 0.03629 0.0
O462 O 0.52509 0.02515 0.96235 0.0
O463 O 0.5139 0.98348 0.99695 0.0
O464 O 0.52778 0.97706 0.03497 0.0
C465 C 0.53979 0.01223 0.95424 0.0
O466 O 0.55097 1.00006 0.96998 0.0
O467 O 0.55729 0.02901 0.01469 0.0
C468 C 0.47926 0.00654 0.08395 0.0
O469 O 0.47148 0.01953 0.06669 0.0
O470 O 0.49711 0.99607 0.08037 0.0
O471 O 0.52414 0.03618 0.05123 0.0
O472 O 0.50456 0.04373 0.01667 0.0
O473 O 0.47751 0.99629 0.02358 0.0
C474 C 0.5224 0.96974 0.01181 0.0
C475 C 0.51271 0.05011 0.03952 0.0
Zn476 Zn 0.27053 0.23491 0.25709 0.0
Zn477 Zn 0.25369 0.28169 0.28085 0.0
C478 C 0.31314 0.2469 0.23594 0.0
O479 O 0.3003 0.23103 0.2189 0.0
C480 C 0.21459 0.2676 0.30425 0.0
O481 O 0.22922 0.28341 0.3199 0.0
O482 O 0.27528 0.20081 0.24758 0.0
O483 O 0.2612 0.23352 0.29278 0.0
O484 O 0.2732 0.2708 0.31011 0.0
C485 C 0.29054 0.19495 0.26369 0.0
O486 O 0.29921 0.21033 0.28324 0.0
O487 O 0.30401 0.25349 0.2558 0.0
C488 C 0.23184 0.31771 0.26617 0.0
O489 O 0.22361 0.29842 0.25066 0.0
O490 O 0.24671 0.31601 0.28487 0.0
O491 O 0.26743 0.28185 0.24697 0.0
O492 O 0.24887 0.24663 0.23031 0.0
O493 O 0.22068 0.26204 0.28237 0.0
C494 C 0.26841 0.24817 0.3122 0.0
C495 C 0.25618 0.26877 0.22805 0.0
Zn496 Zn 0.5244 0.48448 0.02545 0.0
Zn497 Zn 0.51032 0.53126 0.01084 0.0
C498 C 0.55369 0.49393 0.0718 0.0
O499 O 0.56444 0.47816 0.05969 0.0
C500 C 0.48101 0.51464 0.96692 0.0
O501 O 0.46842 0.52813 0.97968 0.0
O502 O 0.52803 0.44981 0.02945 0.0
O503 O 0.48838 0.48258 0.01756 0.0
O504 O 0.48627 0.51878 0.03483 0.0
C505 C 0.51768 0.44162 0.04801 0.0
O506 O 0.50488 0.45518 0.06044 0.0
O507 O 0.53565 0.50093 0.06068 0.0
C508 C 0.51932 0.58362 0.00496 0.0
O509 O 0.53862 0.58484 0.02055 0.0
O510 O 0.50483 0.56387 0.00062 0.0
O511 O 0.54579 0.53488 0.02154 0.0
O512 O 0.54795 0.49971 0.00194 0.0
O513 O 0.50123 0.51139 0.97687 0.0
C514 C 0.4766 0.49696 0.02868 0.0
C515 C 0.55759 0.52133 0.00935 0.0
Zn516 Zn 0.75143 0.28952 0.26605 0.0
Zn517 Zn 0.7826 0.23674 0.2839 0.0
C518 C 0.70567 0.26169 0.24637 0.0
O519 O 0.7177 0.25591 0.22754 0.0
C520 C 0.82345 0.25365 0.31373 0.0
O521 O 0.81131 0.2385 0.32733 0.0
O522 O 0.75183 0.32591 0.26936 0.0
O523 O 0.77068 0.28004 0.29455 0.0
O524 O 0.7613 0.24629 0.31093 0.0
C525 C 0.73557 0.33427 0.25668 0.0
O526 O 0.72188 0.31991 0.23894 0.0
O527 O 0.71645 0.27491 0.26553 0.0
C528 C 0.79053 0.18645 0.26862 0.0
O529 O 0.77842 0.18828 0.24706 0.0
O530 O 0.7922 0.20332 0.28638 0.0
O531 O 0.77474 0.24175 0.24701 0.0
O532 O 0.76342 0.27575 0.23464 0.0
O533 O 0.81374 0.25807 0.29285 0.0
C534 C 0.75976 0.26848 0.31062 0.0
C535 C 0.76962 0.25513 0.2298 0.0
Zn536 Zn 0.01865 0.51984 0.49309 0.0
Zn537 Zn 0.00718 0.50587 0.54422 0.0
C538 C 0.06483 0.54772 0.51349 0.0
O539 O 0.05434 0.56662 0.51065 0.0
C540 C 0.95981 0.48049 0.53372 0.0
O541 O 0.96637 0.47087 0.55421 0.0
O542 O 0.02199 0.52328 0.45611 0.0
O543 O 0.00699 0.48417 0.49392 0.0
O544 O 0.02616 0.48107 0.53072 0.0
C545 C 0.03549 0.50841 0.44948 0.0
O546 O 0.04466 0.49609 0.46651 0.0
O547 O 0.05286 0.52665 0.50871 0.0
C548 C 0.98768 0.51685 0.58781 0.0
O549 O 0.97757 0.52914 0.57136 0.0
O550 O 0.00248 0.5035 0.58087 0.0
O551 O 0.01946 0.5413 0.54388 0.0
O552 O 0.99909 0.54359 0.50795 0.0
O553 O 0.97426 0.4968 0.52524 0.0
C554 C 0.01821 0.4721 0.50848 0.0
C555 C 0.00649 0.55256 0.53028 0.0
Zn556 Zn 0.78991 0.7505 0.26382 0.0
Zn557 Zn 0.74178 0.76919 0.28331 0.0
C558 C 0.77248 0.72229 0.21728 0.0
O559 O 0.77624 0.70464 0.23099 0.0
C560 C 0.75875 0.80217 0.32609 0.0
O561 O 0.74767 0.81563 0.3117 0.0
O562 O 0.82355 0.74463 0.25839 0.0
O563 O 0.79218 0.78645 0.27505 0.0
O564 O 0.75668 0.7914 0.25861 0.0
C565 C 0.83803 0.76143 0.25057 0.0
O566 O 0.83174 0.78277 0.249 0.0
O567 O 0.77479 0.74366 0.22796 0.0
C568 C 0.70071 0.76303 0.30761 0.0
O569 O 0.71665 0.75486 0.32222 0.0
O570 O 0.7072 0.77282 0.28803 0.0
O571 O 0.73817 0.7328 0.27591 0.0
O572 O 0.77453 0.72537 0.2857 0.0
O573 O 0.75991 0.78064 0.31757 0.0
C574 C 0.77874 0.79963 0.26456 0.0
C575 C 0.752 0.71881 0.28384 0.0
Zn576 Zn 0.75853 0.25578 0.7971 0.0
Zn577 Zn 0.76996 0.26448 0.74837 0.0
C578 C 0.72907 0.21105 0.78478 0.0
O579 O 0.71484 0.22419 0.79548 0.0
C580 C 0.79955 0.309 0.76192 0.0
O581 O 0.8136 0.29699 0.74947 0.0
O582 O 0.75372 0.25018 0.83304 0.0
O583 O 0.79374 0.26734 0.79759 0.0
O584 O 0.7951 0.24545 0.76217 0.0
C585 C 0.7662 0.23469 0.8403 0.0
O586 O 0.78122 0.22717 0.82524 0.0
O587 O 0.74979 0.22126 0.78076 0.0
C588 C 0.76231 0.28633 0.70514 0.0
O589 O 0.75081 0.2975 0.72148 0.0
O590 O 0.77306 0.26934 0.71181 0.0
O591 O 0.73431 0.25317 0.74877 0.0
O592 O 0.73535 0.27655 0.78362 0.0
O593 O 0.77871 0.29861 0.7651 0.0
C594 C 0.80531 0.2553 0.78336 0.0
C595 C 0.72432 0.26707 0.76276 0.0
Zn596 Zn 0.77606 0.7387 0.75755 0.0
Zn597 Zn 0.74993 0.78249 0.78964 0.0
C598 C 0.81382 0.75118 0.72814 0.0
O599 O 0.79967 0.73463 0.71284 0.0
C600 C 0.70605 0.75223 0.79812 0.0
O601 O 0.71919 0.7451 0.8165 0.0
O602 O 0.77661 0.70378 0.74655 0.0
O603 O 0.77628 0.7375 0.79436 0.0
O604 O 0.76596 0.76676 0.81867 0.0
C605 C 0.79645 0.69748 0.75355 0.0
O606 O 0.81365 0.71361 0.76557 0.0
O607 O 0.80723 0.75755 0.74945 0.0
C608 C 0.7499 0.83393 0.7926 0.0
O609 O 0.76889 0.83477 0.7801 0.0
O610 O 0.74206 0.81461 0.80208 0.0
O611 O 0.76325 0.78814 0.75549 0.0
O612 O 0.74946 0.75134 0.73878 0.0
O613 O 0.71625 0.76495 0.78225 0.0
C614 C 0.7737 0.74679 0.81609 0.0
C615 C 0.75467 0.77373 0.73623 0.0
Zn616 Zn 0.54305 0.50442 0.5381 0.0
Zn617 Zn 0.49647 0.52634 0.5121 0.0
C618 C 0.52977 0.46254 0.56189 0.0
O619 O 0.53555 0.47865 0.58144 0.0
C620 C 0.52673 0.57272 0.509 0.0
O621 O 0.53985 0.56189 0.49418 0.0
O622 O 0.57803 0.50523 0.54954 0.0
O623 O 0.54493 0.51012 0.50094 0.0
O624 O 0.50973 0.51291 0.48184 0.0
C625 C 0.58588 0.48878 0.53638 0.0
O626 O 0.57149 0.47507 0.51869 0.0
O627 O 0.52998 0.46936 0.5398 0.0
C628 C 0.447 0.53073 0.51581 0.0
O629 O 0.44887 0.5173 0.5346 0.0
O630 O 0.46408 0.53447 0.50195 0.0
O631 O 0.49224 0.50527 0.54036 0.0
O632 O 0.5247 0.52273 0.56338 0.0
O633 O 0.51376 0.56028 0.52321 0.0
C634 C 0.53145 0.51056 0.48087 0.0
C635 C 0.50247 0.51421 0.56169 0.0
Zn636 Zn 0.98611 0.52144 0.03145 0.0
Zn637 Zn 0.04199 0.49615 0.0099 0.0
C638 C 0.01288 0.57101 0.0442 0.0
O639 O 0.02396 0.5688 0.0237 0.0
C640 C 0.01753 0.44323 0.00691 0.0
O641 O 0.02621 0.439 0.02935 0.0
O642 O 0.94974 0.51952 0.02491 0.0
O643 O 1.00181 0.51858 0.99866 0.0
O644 O 0.03271 0.51155 0.97856 0.0
C645 C 0.94338 0.5391 0.01843 0.0
O646 O 0.95982 0.55753 0.01553 0.0
O647 O 0.99717 0.55399 0.04926 0.0
C648 C 0.08094 0.4779 0.03477 0.0
O649 O 0.06381 0.47215 0.04925 0.0
O650 O 0.07666 0.48951 0.01579 0.0
O651 O 0.03094 0.5149 0.03908 0.0
O652 O 0.99961 0.50151 0.05777 0.0
O653 O 0.02186 0.4642 -0.00038 0.0
C654 C 0.01167 0.51679 0.9782 0.0
C655 C 0.02221 0.50444 0.05717 0.0
H656 H 0.03042 0.18816 0.92414 0.0
H657 H 0.96578 0.19982 0.95809 0.0
H658 H 0.96713 0.16418 0.98126 0.0
H659 H 0.01636 0.12352 0.91527 0.0
H660 H 0.04648 0.1186 0.92336 0.0
H661 H 0.04136 0.14597 0.91016 0.0
H662 H 0.0667 0.17093 0.94862 0.0
H663 H 0.07148 0.14356 0.96219 0.0
H664 H 0.05868 0.16603 0.97998 0.0
H665 H 0.97534 0.12884 0.00189 0.0
H666 H 0.98557 0.08976 0.01254 0.0
H667 H 0.04297 0.09761 0.96354 0.0
C668 C 0.01648 0.183 0.93626 0.0
C669 C 0.99818 0.19699 0.93954 0.0
C670 C 0.98024 0.18968 0.9556 0.0
C671 C 0.98087 0.1695 0.96898 0.0
C672 C 0.99952 0.15664 0.96615 0.0
C673 C 0.01677 0.16265 0.94988 0.0
C674 C 0.0341 0.1447 0.94973 0.0
C675 C 0.03458 0.13246 0.92304 0.0
C676 C 0.05923 0.15704 0.96078 0.0
C677 C 0.02299 0.12713 0.96734 0.0
C678 C 0.00368 0.13508 0.97736 0.0
C679 C 0.99048 0.12236 0.99429 0.0
C680 C 0.99657 0.10032 0.00043 0.0
C681 C 0.0152 0.09094 0.98908 0.0
C682 C 0.02887 0.10468 0.97268 0.0
H683 H 0.11712 0.81855 0.19199 0.0
H684 H 0.08008 0.74474 0.17815 0.0
H685 H 0.11166 0.73102 0.20502 0.0
H686 H 0.17576 0.80702 0.19192 0.0
H687 H 0.1885 0.82888 0.21783 0.0
H688 H 0.16224 0.83339 0.19887 0.0
H689 H 0.1397 0.83665 0.239 0.0
H690 H 0.16597 0.83215 0.25809 0.0
H691 H 0.13793 0.8126 0.25947 0.0
H692 H 0.14919 0.72447 0.22809 0.0
H693 H 0.18962 0.72596 0.24949 0.0
H694 H 0.20125 0.80408 0.25304 0.0
C695 C 0.11558 0.79963 0.19511 0.0
C696 C 0.0962 0.78264 0.18326 0.0
C697 C 0.0947 0.75798 0.18743 0.0
C698 C 0.11254 0.75002 0.20259 0.0
C699 C 0.1315 0.76706 0.21399 0.0
C700 C 0.13301 0.7914 0.21091 0.0
C701 C 0.15559 0.8057 0.22524 0.0
C702 C 0.17146 0.81955 0.20739 0.0
C703 C 0.14943 0.82279 0.24672 0.0
C704 C 0.16704 0.78545 0.23563 0.0
C705 C 0.15272 0.76332 0.22894 0.0
C706 C 0.16028 0.74171 0.23414 0.0
C707 C 0.18319 0.7427 0.2463 0.0
C708 C 0.19807 0.76512 0.25349 0.0
C709 C 0.18977 0.78679 0.24851 0.0
H710 H 0.50286 0.8068 0.4495 0.0
H711 H 0.50517 0.82939 0.37379 0.0
H712 H 0.49965 0.8704 0.39005 0.0
H713 H 0.45952 0.84496 0.47161 0.0
H714 H 0.47525 0.85096 0.50269 0.0
H715 H 0.47532 0.82264 0.48446 0.0
H716 H 0.52167 0.83019 0.48922 0.0
H717 H 0.5217 0.85834 0.50752 0.0
H718 H 0.53753 0.85778 0.47963 0.0
H719 H 0.49885 0.90951 0.41523 0.0
H720 H 0.50579 0.94437 0.44735 0.0
H721 H 0.50436 0.89593 0.50667 0.0
C722 C 0.50166 0.8202 0.43618 0.0
C723 C 0.50428 0.81499 0.41037 0.0
C724 C 0.50312 0.83309 0.39363 0.0
C725 C 0.4998 0.8563 0.40267 0.0
C726 C 0.49757 0.8609 0.42838 0.0
C727 C 0.4985 0.84332 0.44488 0.0
C728 C 0.49851 0.85339 0.47199 0.0
C729 C 0.47579 0.84233 0.48335 0.0
C730 C 0.5212 0.84972 0.48801 0.0
C731 C 0.49847 0.87969 0.46834 0.0
C732 C 0.49739 0.88356 0.44301 0.0
C733 C 0.49933 0.90665 0.43505 0.0
C734 C 0.50335 0.92631 0.45344 0.0
C735 C 0.50559 0.92271 0.47944 0.0
C736 C 0.50225 0.89912 0.48694 0.0
H737 H 0.46221 0.24012 0.69873 0.0
H738 H 0.45819 0.29738 0.6494 0.0
H739 H 0.42088 0.305 0.66599 0.0
H740 H 0.39821 0.21747 0.6903 0.0
H741 H 0.39619 0.20985 0.72229 0.0
H742 H 0.42368 0.20932 0.70788 0.0
H743 H 0.4464 0.23887 0.74466 0.0
H744 H 0.41893 0.23959 0.7591 0.0
H745 H 0.4366 0.26732 0.75212 0.0
H746 H 0.38525 0.30759 0.68738 0.0
H747 H 0.34902 0.30196 0.70936 0.0
H748 H 0.37219 0.24107 0.74386 0.0
C749 C 0.45336 0.25419 0.69151 0.0
C750 C 0.46307 0.26813 0.6727 0.0
C751 C 0.45097 0.28629 0.66355 0.0
C752 C 0.42984 0.29093 0.67302 0.0
C753 C 0.42067 0.277 0.69142 0.0
C754 C 0.43163 0.25871 0.70036 0.0
C755 C 0.41662 0.24562 0.71905 0.0
C756 C 0.40817 0.21899 0.70929 0.0
C757 C 0.43047 0.248 0.74529 0.0
C758 C 0.39577 0.25961 0.71915 0.0
C759 C 0.39889 0.2778 0.70324 0.0
C760 C 0.38244 0.29332 0.69978 0.0
C761 C 0.36184 0.28991 0.71241 0.0
C762 C 0.35754 0.27094 0.72824 0.0
C763 C 0.37496 0.25576 0.73194 0.0
H764 H 0.01164 0.83764 0.63929 0.0
H765 H 0.02967 0.79162 0.57711 0.0
H766 H 0.03708 0.82674 0.55237 0.0
H767 H 0.97906 0.87137 0.60332 0.0
H768 H 0.98884 0.89983 0.62195 0.0
H769 H 0.98865 0.87205 0.63642 0.0
H770 H 0.03359 0.88455 0.65172 0.0
H771 H 0.03391 0.91253 0.63743 0.0
H772 H 0.05469 0.89279 0.62921 0.0
H773 H 0.03875 0.86591 0.5328 0.0
H774 H 0.03405 0.90633 0.51989 0.0
H775 H 0.01381 0.9263 0.59433 0.0
C776 C 0.01779 0.83512 0.62075 0.0
C777 C 0.02023 0.81198 0.61016 0.0
C778 C 0.0278 0.80924 0.58562 0.0
C779 C 0.03212 0.82909 0.57144 0.0
C780 C 0.02889 0.85157 0.5821 0.0
C781 C 0.02205 0.85474 0.60627 0.0
C782 C 0.01789 0.88035 0.61249 0.0
C783 C 0.99208 0.88091 0.6189 0.0
C784 C 0.03611 0.89332 0.63399 0.0
C785 C 0.02242 0.89071 0.58768 0.0
C786 C 0.02924 0.87401 0.57057 0.0
C787 C 0.03365 0.87925 0.54611 0.0
C788 C 0.03089 0.90218 0.53891 0.0
C789 C 0.02338 0.9193 0.55601 0.0
C790 C 0.01938 0.91349 0.58075 0.0
H791 H 0.43937 0.80669 0.88969 0.0
H792 H 0.46815 0.74941 0.84961 0.0
H793 H 0.43538 0.74559 0.81572 0.0
H794 H 0.3806 0.78355 0.87961 0.0
H795 H 0.36984 0.81133 0.87406 0.0
H796 H 0.39767 0.81218 0.89271 0.0
H797 H 0.41895 0.84089 0.8628 0.0
H798 H 0.39104 0.83975 0.84378 0.0
H799 H 0.41668 0.83178 0.82947 0.0
H800 H 0.39744 0.74436 0.78923 0.0
H801 H 0.35492 0.74275 0.77483 0.0
H802 H 0.35039 0.80068 0.83173 0.0
C803 C 0.43881 0.79358 0.8736 0.0
C804 C 0.45613 0.77834 0.87218 0.0
C805 C 0.45506 0.7614 0.85088 0.0
C806 C 0.43667 0.75923 0.83144 0.0
C807 C 0.41983 0.77458 0.83328 0.0
C808 C 0.42078 0.79151 0.85374 0.0
C809 C 0.39937 0.80436 0.85206 0.0
C810 C 0.38608 0.80271 0.87602 0.0
C811 C 0.40696 0.83076 0.84672 0.0
C812 C 0.38492 0.78998 0.82925 0.0
C813 C 0.39763 0.77379 0.81787 0.0
C814 C 0.38748 0.75732 0.79757 0.0
C815 C 0.36335 0.75661 0.78943 0.0
C816 C 0.34965 0.77178 0.80213 0.0
C817 C 0.36076 0.78924 0.82157 0.0
H818 H 0.49493 0.18703 0.0633 0.0
H819 H 0.49289 0.17618 0.14264 0.0
H820 H 0.4926 0.13248 0.13249 0.0
H821 H 0.45725 0.12801 0.03804 0.0
H822 H 0.47499 0.12517 0.01181 0.0
H823 H 0.47128 0.15465 0.02504 0.0
H824 H 0.51731 0.16699 0.0318 0.0
H825 H 0.5212 0.13747 0.01912 0.0
H826 H 0.53468 0.14925 0.05022 0.0
H827 H 0.50008 0.09208 0.11466 0.0
H828 H 0.50912 0.05638 0.08998 0.0
H829 H 0.504 0.09274 0.02156 0.0
C830 C 0.4936 0.17532 0.07844 0.0
C831 C 0.49378 0.18491 0.10375 0.0
C832 C 0.49235 0.16913 0.1231 0.0
C833 C 0.49236 0.14433 0.11751 0.0
C834 C 0.49332 0.13566 0.09244 0.0
C835 C 0.49333 0.15059 0.07314 0.0
C836 C 0.49592 0.13715 0.04803 0.0
C837 C 0.47352 0.13619 0.02964 0.0
C838 C 0.51863 0.14839 0.03664 0.0
C839 C 0.49813 0.11245 0.05628 0.0
C840 C 0.49667 0.11202 0.082 0.0
C841 C 0.50056 0.092 0.09444 0.0
C842 C 0.50581 0.07185 0.08023 0.0
C843 C 0.50679 0.07164 0.05375 0.0
C844 C 0.50274 0.09219 0.04164 0.0
H845 H 0.08574 0.28011 0.34044 0.0
H846 H 0.10576 0.24985 0.40965 0.0
H847 H 0.14127 0.23813 0.39125 0.0
H848 H 0.10827 0.23766 0.29544 0.0
H849 H 0.11971 0.26109 0.2764 0.0
H850 H 0.09393 0.26389 0.29326 0.0
H851 H 0.11513 0.30518 0.31531 0.0
H852 H 0.1407 0.30266 0.2982 0.0
H853 H 0.14423 0.30727 0.33217 0.0
H854 H 0.17561 0.23249 0.36723 0.0
H855 H 0.21015 0.23914 0.34208 0.0
H856 H 0.16957 0.2748 0.28886 0.0
C857 C 0.09748 0.27068 0.35149 0.0
C858 C 0.09307 0.2656 0.37633 0.0
C859 C 0.10898 0.25386 0.3906 0.0
C860 C 0.12897 0.2469 0.38018 0.0
C861 C 0.13289 0.25212 0.35561 0.0
C862 C 0.11787 0.26416 0.34158 0.0
C863 C 0.12791 0.2705 0.31703 0.0
C864 C 0.11147 0.2575 0.29418 0.0
C865 C 0.13226 0.29803 0.31562 0.0
C866 C 0.15121 0.2606 0.31973 0.0
C867 C 0.15333 0.2495 0.34184 0.0
C868 C 0.174 0.24071 0.34966 0.0
C869 C 0.19345 0.24438 0.33519 0.0
C870 C 0.1921 0.25675 0.31325 0.0
C871 C 0.17054 0.26432 0.30496 0.0
H872 H 0.93222 0.03707 0.18382 0.0
H873 H 0.93469 0.96139 0.19222 0.0
H874 H 0.9563 0.95861 0.15462 0.0
H875 H 0.92513 0.02747 0.11135 0.0
H876 H 0.94267 0.05644 0.1083 0.0
H877 H 0.92487 0.05243 0.13456 0.0
H878 H 0.96262 0.06808 0.1653 0.0
H879 H 0.9806 0.0716 0.13918 0.0
H880 H 0.98843 0.05326 0.16375 0.0
H881 H 0.98124 0.96398 0.12032 0.0
H882 H 0.00328 0.97587 0.0846 0.0
H883 H 0.98556 0.04783 0.09481 0.0
C884 C 0.93664 0.01981 0.17715 0.0
C885 C 0.93195 0.99947 0.19118 0.0
C886 C 0.93827 0.97724 0.182 0.0
C887 C 0.95061 0.97544 0.16063 0.0
C888 C 0.95618 0.99591 0.14804 0.0
C889 C 0.94884 0.01751 0.15521 0.0
C890 C 0.95759 0.03646 0.13763 0.0
C891 C 0.93631 0.04363 0.12204 0.0
C892 C 0.97325 0.05866 0.15236 0.0
C893 C 0.97217 0.0224 0.12085 0.0
C894 C 0.97077 0.999 0.1273 0.0
C895 C 0.98248 0.98226 0.11501 0.0
C896 C 0.99545 0.98931 0.095 0.0
C897 C 0.99715 0.01299 0.08762 0.0
C898 C 0.98528 0.02983 0.10069 0.0
H899 H 0.28092 0.64567 0.4409 0.0
H900 H 0.24156 0.68731 0.48923 0.0
H901 H 0.23263 0.7116 0.45434 0.0
H902 H 0.30973 0.69353 0.41451 0.0
H903 H 0.30919 0.67888 0.38317 0.0
H904 H 0.3082 0.66125 0.40979 0.0
H905 H 0.26906 0.63476 0.38934 0.0
H906 H 0.26968 0.65224 0.36246 0.0
H907 H 0.24377 0.64876 0.37996 0.0
H908 H 0.23282 0.7349 0.41671 0.0
H909 H 0.24153 0.75509 0.37823 0.0
H910 H 0.28217 0.69927 0.3553 0.0
C911 C 0.26964 0.65928 0.44374 0.0
C912 C 0.26171 0.66456 0.46752 0.0
C913 C 0.24769 0.68299 0.47101 0.0
C914 C 0.24245 0.69681 0.4513 0.0
C915 C 0.25141 0.69192 0.42832 0.0
C916 C 0.26456 0.67348 0.42434 0.0
C917 C 0.27454 0.67387 0.39897 0.0
C918 C 0.30204 0.67708 0.40181 0.0
C919 C 0.26361 0.65106 0.38165 0.0
C920 C 0.26586 0.69602 0.38991 0.0
C921 C 0.25215 0.70589 0.40683 0.0
C922 C 0.24324 0.72716 0.4031 0.0
C923 C 0.24841 0.73859 0.38135 0.0
C924 C 0.26267 0.72884 0.36398 0.0
C925 C 0.27134 0.70724 0.36833 0.0
H926 H 0.59669 0.96852 0.68443 0.0
H927 H 0.59502 0.04299 0.71136 0.0
H928 H 0.57089 0.04813 0.6727 0.0
H929 H 0.60173 0.98319 0.61732 0.0
H930 H 0.58366 0.95528 0.60355 0.0
H931 H 0.60173 0.95606 0.63302 0.0
H932 H 0.56506 0.93899 0.65494 0.0
H933 H 0.54634 0.93752 0.62582 0.0
H934 H 0.53921 0.95389 0.65383 0.0
H935 H 0.54049 0.04306 0.63776 0.0
H936 H 0.51656 0.03387 0.59715 0.0
H937 H 0.54218 0.96551 0.58627 0.0
C938 C 0.59201 0.98609 0.68157 0.0
C939 C 0.59738 0.00535 0.70085 0.0
C940 C 0.59086 0.02806 0.69676 0.0
C941 C 0.57698 0.0311 0.67503 0.0
C942 C 0.57046 0.01148 0.65715 0.0
C943 C 0.57862 0.98979 0.65928 0.0
C944 C 0.56947 0.97236 0.63605 0.0
C945 C 0.59038 0.96635 0.62159 0.0
C946 C 0.55411 0.94933 0.6431 0.0
C947 C 0.55434 0.98756 0.62134 0.0
C948 C 0.55472 0.00968 0.63455 0.0
C949 C 0.5406 0.02616 0.62665 0.0
C950 C 0.52674 0.02061 0.60366 0.0
C951 C 0.5277 0.9992 0.58841 0.0
C952 C 0.54133 0.98215 0.59754 0.0
H953 H 0.25427 0.38723 0.9531 0.0
H954 H 0.29389 0.33981 0.99321 0.0
H955 H 0.29869 0.31741 0.95295 0.0
H956 H 0.22169 0.34102 0.90975 0.0
H957 H 0.22132 0.35909 0.88338 0.0
H958 H 0.22337 0.37328 0.91505 0.0
H959 H 0.26219 0.40134 0.90706 0.0
H960 H 0.26021 0.38723 0.87531 0.0
H961 H 0.28694 0.38825 0.89619 0.0
H962 H 0.29656 0.29809 0.90873 0.0
H963 H 0.28701 0.28305 0.86374 0.0
H964 H 0.24826 0.34249 0.85235 0.0
C965 C 0.26451 0.37256 0.95328 0.0
C966 C 0.27402 0.36549 0.97623 0.0
C967 C 0.28663 0.34568 0.97583 0.0
C968 C 0.28948 0.33284 0.95304 0.0
C969 C 0.2795 0.33991 0.93075 0.0
C970 C 0.26724 0.35928 0.93064 0.0
C971 C 0.25656 0.36183 0.90428 0.0
C972 C 0.22911 0.35861 0.90306 0.0
C973 C 0.26711 0.38611 0.89518 0.0
C974 C 0.26471 0.34091 0.88968 0.0
C975 C 0.27799 0.32853 0.90526 0.0
C976 C 0.28642 0.30781 0.89626 0.0
C977 C 0.28092 0.29941 0.87068 0.0
C978 C 0.26706 0.31168 0.85445 0.0
C979 C 0.25916 0.33286 0.86414 0.0
H980 H 0.93507 0.04136 0.3305 0.0
H981 H 0.89593 0.96837 0.32041 0.0
H982 H 0.91405 0.96036 0.36214 0.0
H983 H 0.98925 0.02824 0.36321 0.0
H984 H 0.99376 0.05543 0.38441 0.0
H985 H 0.97872 0.05491 0.35332 0.0
H986 H 0.94217 0.06871 0.37265 0.0
H987 H 0.95736 0.06968 0.40368 0.0
H988 H 0.92811 0.05178 0.39625 0.0
H989 H 0.93597 0.96093 0.40561 0.0
H990 H 0.95658 0.9713 0.4488 0.0
H991 H 0.98023 0.0442 0.43051 0.0
C992 C 0.93033 0.02375 0.33724 0.0
C993 C 0.91416 0.00544 0.32258 0.0
C994 C 0.90825 0.98258 0.33165 0.0
C995 C 0.91857 0.97787 0.35517 0.0
C996 C 0.93465 0.99629 0.36926 0.0
C997 C 0.94027 0.01888 0.36073 0.0
C998 C 0.95701 0.03599 0.37998 0.0
C999 C 0.98111 0.04411 0.3696 0.0
C1000 C 0.94546 0.05782 0.38866 0.0
C1001 C 0.95964 0.01966 0.40087 0.0
C1002 C 0.94696 0.9967 0.39422 0.0
C1003 C 0.94611 0.97877 0.41093 0.0
C1004 C 0.95795 0.98471 0.43529 0.0
C1005 C 0.97028 0.00831 0.44253 0.0
C1006 C 0.97137 0.02585 0.42506 0.0
H1007 H 0.27526 0.6548 0.61505 0.0
H1008 H 0.31959 0.71129 0.58198 0.0
H1009 H 0.32656 0.73587 0.62291 0.0
H1010 H 0.24445 0.68887 0.64543 0.0
H1011 H 0.24196 0.67428 0.67419 0.0
H1012 H 0.24694 0.65736 0.64578 0.0
H1013 H 0.28462 0.64531 0.66791 0.0
H1014 H 0.28034 0.6622 0.69687 0.0
H1015 H 0.30822 0.66828 0.68293 0.0
H1016 H 0.31913 0.75841 0.662 0.0
H1017 H 0.30243 0.77538 0.69944 0.0
H1018 H 0.2627 0.70458 0.70774 0.0
C1019 C 0.28775 0.6716 0.61706 0.0
C1020 C 0.29739 0.68106 0.59579 0.0
C1021 C 0.3126 0.70365 0.5984 0.0
C1022 C 0.31656 0.71775 0.62154 0.0
C1023 C 0.30529 0.70884 0.64185 0.0
C1024 C 0.29172 0.68596 0.64012 0.0
C1025 C 0.27859 0.68225 0.66345 0.0
C1026 C 0.25139 0.6753 0.65679 0.0
C1027 C 0.28853 0.66339 0.67871 0.0
C1028 C 0.28509 0.70723 0.67725 0.0
C1029 C 0.30096 0.72213 0.66483 0.0
C1030 C 0.30735 0.74674 0.6724 0.0
C1031 C 0.29753 0.75629 0.69344 0.0
C1032 C 0.28141 0.74126 0.7065 0.0
C1033 C 0.27528 0.71643 0.69832 0.0
H1034 H 0.61685 0.03101 0.83913 0.0
H1035 H 0.59985 0.95331 0.82308 0.0
H1036 H 0.57083 0.9515 0.85518 0.0
H1037 H 0.61475 0.03175 0.90663 0.0
H1038 H 0.60182 0.05898 0.90929 0.0
H1039 H 0.62039 0.05393 0.88434 0.0
H1040 H 0.58598 0.05993 0.85177 0.0
H1041 H 0.56705 0.06416 0.8767 0.0
H1042 H 0.5572 0.04111 0.85103 0.0
H1043 H 0.5436 0.95778 0.88739 0.0
H1044 H 0.52618 0.97036 0.926 0.0
H1045 H 0.56204 0.04376 0.92387 0.0
C1046 C 0.60737 0.01365 0.84297 0.0
C1047 C 0.61071 0.99217 0.82932 0.0
C1048 C 0.59775 0.96976 0.83401 0.0
C1049 C 0.58099 0.96866 0.85178 0.0
C1050 C 0.57753 0.99018 0.86453 0.0
C1051 C 0.59076 0.0122 0.86096 0.0
C1052 C 0.58454 0.0323 0.87854 0.0
C1053 C 0.60669 0.04497 0.89573 0.0
C1054 C 0.57301 0.05045 0.86361 0.0
C1055 C 0.56646 0.01789 0.8932 0.0
C1056 C 0.56207 0.99379 0.88399 0.0
C1057 C 0.54679 0.97657 0.89476 0.0
C1058 C 0.53691 0.98386 0.91656 0.0
C1059 C 0.54271 0.00792 0.9275 0.0
C1060 C 0.55687 0.02542 0.91527 0.0
H1061 H 0.2789 0.3681 0.13004 0.0
H1062 H 0.23131 0.31832 0.0755 0.0
H1063 H 0.22041 0.29191 0.10888 0.0
H1064 H 0.30248 0.32633 0.16206 0.0
H1065 H 0.30392 0.34104 0.1935 0.0
H1066 H 0.3046 0.35868 0.16687 0.0
H1067 H 0.26827 0.37694 0.18064 0.0
H1068 H 0.26715 0.35938 0.20747 0.0
H1069 H 0.24113 0.35729 0.1853 0.0
H1070 H 0.22019 0.26746 0.1458 0.0
H1071 H 0.22757 0.24857 0.18533 0.0
H1072 H 0.27455 0.31423 0.21674 0.0
C1073 C 0.26534 0.35223 0.12552 0.0
C1074 C 0.25548 0.34542 0.10038 0.0
C1075 C 0.23861 0.32401 0.09479 0.0
C1076 C 0.23239 0.30886 0.1136 0.0
C1077 C 0.24311 0.31542 0.13804 0.0
C1078 C 0.25885 0.33685 0.14425 0.0
C1079 C 0.26924 0.33853 0.17155 0.0
C1080 C 0.29668 0.3413 0.17359 0.0
C1081 C 0.26096 0.35926 0.18717 0.0
C1082 C 0.25802 0.31416 0.17908 0.0
C1083 C 0.24277 0.30125 0.15959 0.0
C1084 C 0.23169 0.2776 0.16143 0.0
C1085 C 0.23613 0.26692 0.18387 0.0
C1086 C 0.25157 0.27986 0.20418 0.0
C1087 C 0.26249 0.30386 0.20165 0.0
H1088 H 0.18822 0.91395 0.04666 0.0
H1089 H 0.21377 0.93898 0.97748 0.0
H1090 H 0.18395 0.96635 0.97566 0.0
H1091 H 0.12611 0.91492 0.03127 0.0
H1092 H 0.12066 0.92632 0.06241 0.0
H1093 H 0.14426 0.90886 0.05855 0.0
H1094 H 0.17451 0.9437 0.08311 0.0
H1095 H 0.151 0.9614 0.08672 0.0
H1096 H 0.17737 0.97349 0.0724 0.0
H1097 H 0.15063 0.98882 0.97948 0.0
H1098 H 0.11411 0.00515 0.98852 0.0
H1099 H 0.11076 0.96839 0.05673 0.0
C1100 C 0.18736 0.92522 0.0312 0.0
C1101 C 0.20306 0.92448 0.0121 0.0
C1102 C 0.20181 0.9395 0.99223 0.0
C1103 C 0.18503 0.95511 0.9911 0.0
C1104 C 0.16998 0.95583 0.01031 0.0
C1105 C 0.17093 0.94141 0.03006 0.0
C1106 C 0.15243 0.9459 0.04809 0.0
C1107 C 0.13482 0.92261 0.05018 0.0
C1108 C 0.16456 0.95677 0.07412 0.0
C1109 C 0.14042 0.9643 0.03476 0.0
C1110 C 0.15111 0.9699 0.01315 0.0
C1111 C 0.14241 0.9851 0.99664 0.0
C1112 C 0.12184 0.99444 0.00199 0.0
C1113 C 0.1104 0.98873 0.02376 0.0
C1114 C 0.11995 0.97382 0.0406 0.0
H1115 H 0.69137 0.5941 0.02035 0.0
H1116 H 0.67499 0.61326 0.94463 0.0
H1117 H 0.63602 0.58619 0.94163 0.0
H1118 H 0.66061 0.53089 0.01157 0.0
H1119 H 0.64929 0.53219 0.04213 0.0
H1120 H 0.6771 0.55072 0.03739 0.0
H1121 H 0.66071 0.58885 0.05368 0.0
H1122 H 0.6329 0.57044 0.05847 0.0
H1123 H 0.633 0.59516 0.03897 0.0
H1124 H 0.59848 0.558 0.94703 0.0
H1125 H 0.56308 0.53382 0.96208 0.0
H1126 H 0.60168 0.53551 0.03566 0.0
C1127 C 0.67972 0.59213 0.00299 0.0
C1128 C 0.6863 0.60539 0.98248 0.0
C1129 C 0.67033 0.60306 0.96039 0.0
C1130 C 0.64822 0.58768 0.95852 0.0
C1131 C 0.64208 0.57502 0.97909 0.0
C1132 C 0.65721 0.57728 0.00106 0.0
C1133 C 0.64524 0.56341 0.02118 0.0
C1134 C 0.65888 0.5431 0.02849 0.0
C1135 C 0.64282 0.58049 0.04444 0.0
C1136 C 0.62101 0.55322 0.00715 0.0
C1137 C 0.6198 0.55975 0.98272 0.0
C1138 C 0.59926 0.55266 0.96607 0.0
C1139 C 0.57931 0.53884 0.97468 0.0
C1140 C 0.5799 0.53255 -0.00022 0.0
C1141 C 0.60101 0.5398 0.01622 0.0
H1142 H 0.65668 0.44043 0.2536 0.0
H1143 H 0.70078 0.47511 0.32042 0.0
H1144 H 0.72443 0.44179 0.31959 0.0
H1145 H 0.65579 0.37857 0.2665 0.0
H1146 H 0.65861 0.36793 0.23433 0.0
H1147 H 0.64465 0.39401 0.24086 0.0
H1148 H 0.6747 0.41884 0.21498 0.0
H1149 H 0.68882 0.39279 0.20866 0.0
H1150 H 0.70631 0.42063 0.22319 0.0
H1151 H 0.74286 0.40435 0.31195 0.0
H1152 H 0.7555 0.366 0.2973 0.0
H1153 H 0.70111 0.35667 0.23386 0.0
C1154 C 0.67125 0.44084 0.26806 0.0
C1155 C 0.67692 0.46017 0.28718 0.0
C1156 C 0.69629 0.46042 0.3056 0.0
C1157 C 0.70977 0.44159 0.3053 0.0
C1158 C 0.70398 0.42285 0.28608 0.0
C1159 C 0.68535 0.42243 0.26763 0.0
C1160 C 0.68364 0.4007 0.24847 0.0
C1161 C 0.65922 0.38433 0.24751 0.0
C1162 C 0.68867 0.40872 0.22228 0.0
C1163 C 0.70366 0.38862 0.2595 0.0
C1164 C 0.71523 0.40175 0.28114 0.0
C1165 C 0.73408 0.39403 0.29487 0.0
C1166 C 0.74122 0.37226 0.28633 0.0
C1167 C 0.72954 0.3584 0.26425 0.0
C1168 C 0.71061 0.3669 0.25066 0.0
H1169 H 0.82409 0.42151 0.52711 0.0
H1170 H 0.83369 0.38475 0.45514 0.0
H1171 H 0.87342 0.41009 0.45531 0.0
H1172 H 0.85741 0.4819 0.51785 0.0
H1173 H 0.87039 0.48668 0.55012 0.0
H1174 H 0.84121 0.46873 0.54238 0.0
H1175 H 0.8556 0.43308 0.5637 0.0
H1176 H 0.88467 0.45097 0.5716 0.0
H1177 H 0.88174 0.42196 0.55376 0.0
H1178 H 0.913 0.43774 0.4646 0.0
H1179 H 0.95123 0.46122 0.48496 0.0
H1180 H 0.91676 0.47683 0.55234 0.0
C1181 C 0.83436 0.41921 0.51113 0.0
C1182 C 0.82583 0.40146 0.49093 0.0
C1183 C 0.83998 0.39837 0.47071 0.0
C1184 C 0.86242 0.4128 0.47056 0.0
C1185 C 0.87047 0.43001 0.49091 0.0
C1186 C 0.85696 0.43305 0.51098 0.0
C1187 C 0.87082 0.45053 0.532 0.0
C1188 C 0.85926 0.47331 0.5358 0.0
C1189 C 0.87336 0.4384 0.55671 0.0
C1190 C 0.89451 0.45616 0.52102 0.0
C1191 C 0.89373 0.44484 0.49695 0.0
C1192 C 0.91376 0.44687 0.48333 0.0
C1193 C 0.9353 0.46027 0.49491 0.0
C1194 C 0.93658 0.47082 0.51997 0.0
C1195 C 0.91594 0.46906 0.53301 0.0
H1196 H 0.36389 0.09502 0.30831 0.0
H1197 H 0.36752 0.07156 0.22977 0.0
H1198 H 0.3438 0.1028 0.21686 0.0
H1199 H 0.30323 0.10467 0.3006 0.0
H1200 H 0.30763 0.13039 0.32377 0.0
H1201 H 0.32595 0.10723 0.32665 0.0
H1202 H 0.3643 0.13911 0.32769 0.0
H1203 H 0.34607 0.16238 0.32537 0.0
H1204 H 0.36741 0.15883 0.30272 0.0
H1205 H 0.31865 0.13614 0.21308 0.0
H1206 H 0.29617 0.17026 0.21875 0.0
H1207 H 0.30862 0.17031 0.29992 0.0
C1208 C 0.36004 0.0969 0.28843 0.0
C1209 C 0.36775 0.08155 0.2699 0.0
C1210 C 0.36193 0.08367 0.24405 0.0
C1211 C 0.34842 0.10118 0.23663 0.0
C1212 C 0.34065 0.11592 0.25542 0.0
C1213 C 0.34631 0.11394 0.28079 0.0
C1214 C 0.33517 0.13126 0.2973 0.0
C1215 C 0.31691 0.11757 0.313 0.0
C1216 C 0.35439 0.14895 0.31425 0.0
C1217 C 0.32291 0.14379 0.27731 0.0
C1218 C 0.32595 0.13456 0.25325 0.0
C1219 C 0.31609 0.14345 0.23184 0.0
C1220 C 0.30322 0.16263 0.2352 0.0
C1221 C 0.30066 0.17268 0.25975 0.0
C1222 C 0.31034 0.16288 0.28095 0.0
H1223 H 0.34102 0.12193 0.52128 0.0
H1224 H 0.29458 0.0618 0.47797 0.0
H1225 H 0.32706 0.03735 0.48058 0.0
H1226 H 0.39539 0.11485 0.49655 0.0
H1227 H 0.41347 0.1216 0.52632 0.0
H1228 H 0.38637 0.13401 0.52145 0.0
H1229 H 0.37112 0.11526 0.56109 0.0
H1230 H 0.39818 0.10265 0.56596 0.0
H1231 H 0.36955 0.08329 0.56325 0.0
H1232 H 0.36546 0.01977 0.4867 0.0
H1233 H 0.40669 0.01119 0.49536 0.0
H1234 H 0.42747 0.08224 0.53568 0.0
C1235 C 0.33777 0.10363 0.51234 0.0
C1236 C 0.31535 0.09379 0.49927 0.0
C1237 C 0.31161 0.06965 0.48814 0.0
C1238 C 0.32995 0.05562 0.48954 0.0
C1239 C 0.35184 0.06575 0.50266 0.0
C1240 C 0.35574 0.08913 0.5141 0.0
C1241 C 0.38077 0.09555 0.5274 0.0
C1242 C 0.39482 0.11781 0.5173 0.0
C1243 C 0.37985 0.09942 0.55612 0.0
C1244 C 0.39078 0.07275 0.52027 0.0
C1245 C 0.37369 0.05553 0.50648 0.0
C1246 C 0.37893 0.03307 0.49767 0.0
C1247 C 0.40234 0.02827 0.50275 0.0
C1248 C 0.42025 0.04599 0.51615 0.0
C1249 C 0.41416 0.06833 0.52528 0.0
H1250 H 0.68577 0.58212 0.2805 0.0
H1251 H 0.65144 0.6066 0.3451 0.0
H1252 H 0.67789 0.64613 0.34798 0.0
H1253 H 0.7468 0.61618 0.30005 0.0
H1254 H 0.75189 0.62333 0.26842 0.0
H1255 H 0.73279 0.59576 0.27346 0.0
H1256 H 0.69849 0.60777 0.24482 0.0
H1257 H 0.71747 0.6353 0.23969 0.0
H1258 H 0.68898 0.63643 0.25186 0.0
H1259 H 0.70668 0.68319 0.34321 0.0
H1260 H 0.73278 0.71728 0.32822 0.0
H1261 H 0.7459 0.67111 0.26387 0.0
C1262 C 0.68433 0.59563 0.29565 0.0
C1263 C 0.66691 0.59117 0.31297 0.0
C1264 C 0.66487 0.60956 0.33191 0.0
C1265 C 0.67987 0.63202 0.33371 0.0
C1266 C 0.69665 0.63598 0.31622 0.0
C1267 C 0.69884 0.61844 0.29735 0.0
C1268 C 0.71665 0.62834 0.27943 0.0
C1269 C 0.73832 0.61511 0.2804 0.0
C1270 C 0.70467 0.62688 0.25235 0.0
C1271 C 0.72362 0.65435 0.29082 0.0
C1272 C 0.71229 0.65807 0.31242 0.0
C1273 C 0.71558 0.68051 0.32629 0.0
C1274 C 0.73027 0.69983 0.31754 0.0
C1275 C 0.74105 0.6969 0.29482 0.0
C1276 C 0.73807 0.67374 0.28149 0.0
H1277 H 0.87868 0.43253 0.81925 0.0
H1278 H 0.85995 0.45989 0.74789 0.0
H1279 H 0.83079 0.42291 0.73534 0.0
H1280 H 0.8764 0.37224 0.79827 0.0
H1281 H 0.86206 0.35979 0.82433 0.0
H1282 H 0.87985 0.38938 0.8287 0.0
H1283 H 0.84374 0.40694 0.84479 0.0
H1284 H 0.82577 0.3773 0.84012 0.0
H1285 H 0.81577 0.40206 0.82528 0.0
H1286 H 0.80675 0.38248 0.72867 0.0
H1287 H 0.79032 0.33913 0.72746 0.0
H1288 H 0.82333 0.33713 0.80306 0.0
C1289 C 0.86836 0.43058 0.80104 0.0
C1290 C 0.87154 0.44882 0.78441 0.0
C1291 C 0.85763 0.44603 0.76086 0.0
C1292 C 0.84094 0.42521 0.75364 0.0
C1293 C 0.838 0.40758 0.77044 0.0
C1294 C 0.85116 0.40999 0.79371 0.0
C1295 C 0.84486 0.38778 0.80767 0.0
C1296 C 0.86713 0.37664 0.81515 0.0
C1297 C 0.83177 0.39389 0.83084 0.0
C1298 C 0.82798 0.37173 0.78758 0.0
C1299 C 0.82359 0.38395 0.76667 0.0
C1300 C 0.80963 0.37281 0.74507 0.0
C1301 C 0.80039 0.34827 0.74452 0.0
C1302 C 0.8054 0.33526 0.76528 0.0
C1303 C 0.81895 0.34708 0.78726 0.0
H1304 H 0.03348 0.86225 0.1497 0.0
H1305 H 0.01752 0.81108 0.08308 0.0
H1306 H 0.01578 0.84446 0.05628 0.0
H1307 H 0.99692 0.90594 0.12878 0.0
H1308 H 0.01849 0.93175 0.14177 0.0
H1309 H 0.01683 0.90375 0.15623 0.0
H1310 H 0.06178 0.90347 0.15145 0.0
H1311 H 0.06361 0.93153 0.1372 0.0
H1312 H 0.07259 0.90572 0.12077 0.0
H1313 H 0.01618 0.88341 0.03635 0.0
H1314 H 0.02248 0.92557 0.02478 0.0
H1315 H 0.04 0.95125 0.10389 0.0
C1316 C 0.02945 0.85816 0.12951 0.0
C1317 C 0.02557 0.83412 0.11849 0.0
C1318 C 0.02066 0.82941 0.09194 0.0
C1319 C 0.01947 0.84823 0.07653 0.0
C1320 C 0.02345 0.87174 0.08787 0.0
C1321 C 0.0286 0.87683 0.11371 0.0
C1322 C 0.03379 0.9038 0.12083 0.0
C1323 C 0.01541 0.91177 0.13792 0.0
C1324 C 0.05947 0.91158 0.1333 0.0
C1325 C 0.03084 0.91294 0.09502 0.0
C1326 C 0.02455 0.89421 0.07627 0.0
C1327 C 0.02111 0.89829 0.05087 0.0
C1328 C 0.02465 0.92223 0.04446 0.0
C1329 C 0.03184 0.94161 0.06338 0.0
C1330 C 0.03464 0.93679 0.08895 0.0
H1331 H 0.92393 0.2862 0.87657 0.0
H1332 H 0.94948 0.22541 0.83892 0.0
H1333 H 0.91355 0.21872 0.80816 0.0
H1334 H 0.86346 0.26147 0.87195 0.0
H1335 H 0.85281 0.28921 0.86608 0.0
H1336 H 0.88128 0.29011 0.88369 0.0
H1337 H 0.90184 0.31747 0.85226 0.0
H1338 H 0.87336 0.3167 0.83456 0.0
H1339 H 0.89793 0.30764 0.81903 0.0
H1340 H 0.87304 0.21743 0.78305 0.0
H1341 H 0.8323 0.22199 0.76595 0.0
H1342 H 0.83446 0.28379 0.82049 0.0
C1343 C 0.92211 0.27158 0.86173 0.0
C1344 C 0.93946 0.25627 0.86016 0.0
C1345 C 0.93647 0.23745 0.84037 0.0
C1346 C 0.91611 0.2335 0.82286 0.0
C1347 C 0.89915 0.24877 0.8252 0.0
C1348 C 0.90214 0.26759 0.84403 0.0
C1349 C 0.88121 0.28115 0.84296 0.0
C1350 C 0.86897 0.28042 0.86763 0.0
C1351 C 0.88906 0.30728 0.83684 0.0
C1352 C 0.86549 0.26648 0.82119 0.0
C1353 C 0.87618 0.24807 0.8109 0.0
C1354 C 0.86463 0.23194 0.79084 0.0
C1355 C 0.84154 0.23467 0.78121 0.0
C1356 C 0.83023 0.25321 0.79188 0.0
C1357 C 0.84257 0.26937 0.81195 0.0
H1358 H 0.52814 0.19053 0.63307 0.0
H1359 H 0.51435 0.22237 0.56307 0.0
H1360 H 0.50929 0.18233 0.53941 0.0
H1361 H 0.56219 0.14834 0.60812 0.0
H1362 H 0.55067 0.12407 0.62608 0.0
H1363 H 0.55169 0.15495 0.63845 0.0
H1364 H 0.50622 0.14703 0.64316 0.0
H1365 H 0.50525 0.11594 0.63163 0.0
H1366 H 0.48575 0.13385 0.61634 0.0
H1367 H 0.50956 0.1402 0.52276 0.0
H1368 H 0.50692 0.09604 0.51479 0.0
H1369 H 0.5191 0.09068 0.59528 0.0
C1370 C 0.52338 0.18886 0.61289 0.0
C1371 C 0.52165 0.2094 0.59981 0.0
C1372 C 0.51585 0.20674 0.57333 0.0
C1373 C 0.51308 0.18415 0.55972 0.0
C1374 C 0.51613 0.16439 0.57288 0.0
C1375 C 0.52058 0.1663 0.59889 0.0
C1376 C 0.52316 0.14202 0.60815 0.0
C1377 C 0.54843 0.14238 0.62096 0.0
C1378 C 0.50394 0.13425 0.62586 0.0
C1379 C 0.51911 0.1263 0.58333 0.0
C1380 C 0.51563 0.13971 0.56321 0.0
C1381 C 0.51202 0.12938 0.53834 0.0
C1382 C 0.5108 0.10437 0.53397 0.0
C1383 C 0.51269 0.09011 0.55445 0.0
C1384 C 0.51753 0.10128 0.57934 0.0
H1385 H 0.57655 0.78099 0.35926 0.0
H1386 H 0.56118 0.70324 0.35981 0.0
H1387 H 0.59847 0.69956 0.33983 0.0
H1388 H 0.60111 0.77953 0.29727 0.0
H1389 H 0.62313 0.80614 0.3062 0.0
H1390 H 0.59506 0.80267 0.32001 0.0
H1391 H 0.6176 0.80839 0.36472 0.0
H1392 H 0.64569 0.81201 0.35107 0.0
H1393 H 0.63919 0.78922 0.37254 0.0
H1394 H 0.63843 0.70463 0.32332 0.0
H1395 H 0.67846 0.71777 0.30976 0.0
H1396 H 0.66704 0.79221 0.31653 0.0
C1397 C 0.58115 0.76324 0.35506 0.0
C1398 C 0.56637 0.74233 0.36114 0.0
C1399 C 0.57247 0.71935 0.35523 0.0
C1400 C 0.59351 0.71714 0.34388 0.0
C1401 C 0.60776 0.73809 0.33802 0.0
C1402 C 0.60176 0.7607 0.34311 0.0
C1403 C 0.6202 0.78026 0.33476 0.0
C1404 C 0.60921 0.79289 0.31329 0.0
C1405 C 0.63133 0.79854 0.35711 0.0
C1406 C 0.63812 0.76522 0.32528 0.0
C1407 C 0.63041 0.74091 0.32718 0.0
C1408 C 0.64443 0.72351 0.32123 0.0
C1409 C 0.66708 0.73112 0.31352 0.0
C1410 C 0.67542 0.75586 0.31157 0.0
C1411 C 0.66066 0.77313 0.31712 0.0
H1412 H 0.01647 0.19314 0.40977 0.0
H1413 H 0.04502 0.23323 0.48136 0.0
H1414 H 0.04471 0.19538 0.50116 0.0
H1415 H 0.97716 0.14875 0.43362 0.0
H1416 H 0.98208 0.12344 0.41301 0.0
H1417 H 0.98682 0.15338 0.40277 0.0
H1418 H 0.03019 0.14925 0.39424 0.0
H1419 H 0.0254 0.11907 0.40395 0.0
H1420 H 0.05001 0.14099 0.41895 0.0
H1421 H 0.03536 0.1552 0.51517 0.0
H1422 H 0.02515 0.11199 0.52117 0.0
H1423 H 0.00554 0.09586 0.44066 0.0
C1424 C 0.02347 0.19376 0.42932 0.0
C1425 C 0.03074 0.21604 0.44412 0.0
C1426 C 0.03932 0.2163 0.46979 0.0
C1427 C 0.03915 0.19493 0.48124 0.0
C1428 C 0.03072 0.17332 0.46669 0.0
C1429 C 0.02368 0.17231 0.44116 0.0
C1430 C 0.01492 0.14633 0.43043 0.0
C1431 C 0.98869 0.14278 0.41931 0.0
C1432 C 0.0311 0.13844 0.41073 0.0
C1433 C 0.01754 0.13331 0.45413 0.0
C1434 C 0.02644 0.14939 0.47479 0.0
C1435 C 0.02889 0.14224 0.4991 0.0
C1436 C 0.0228 0.11775 0.50238 0.0
C1437 C 0.01474 0.10074 0.48139 0.0
C1438 C 0.01193 0.1086 0.45696 0.0
H1439 H 0.59532 0.28954 0.16319 0.0
H1440 H 0.5531 0.22707 0.18936 0.0
H1441 H 0.58666 0.22347 0.22057 0.0
H1442 H 0.64912 0.26995 0.16535 0.0
H1443 H 0.66712 0.29855 0.17695 0.0
H1444 H 0.6388 0.29782 0.15922 0.0
H1445 H 0.62522 0.32372 0.19604 0.0
H1446 H 0.65361 0.32433 0.2139 0.0
H1447 H 0.62627 0.31359 0.22723 0.0
H1448 H 0.62678 0.2236 0.24471 0.0
H1449 H 0.66983 0.22837 0.26019 0.0
H1450 H 0.68439 0.29131 0.21893 0.0
C1451 C 0.59308 0.27538 0.17581 0.0
C1452 C 0.57184 0.25854 0.17397 0.0
C1453 C 0.56932 0.24023 0.19073 0.0
C1454 C 0.58821 0.23809 0.20851 0.0
C1455 C 0.60914 0.25483 0.20967 0.0
C1456 C 0.6115 0.27338 0.19403 0.0
C1457 C 0.63618 0.28827 0.19806 0.0
C1458 C 0.64852 0.28863 0.17344 0.0
C1459 C 0.63524 0.314 0.20949 0.0
C1460 C 0.64784 0.27418 0.21703 0.0
C1461 C 0.63192 0.25527 0.22401 0.0
C1462 C 0.63927 0.23872 0.23991 0.0
C1463 C 0.66361 0.2415 0.24861 0.0
C1464 C 0.67996 0.26052 0.24113 0.0
C1465 C 0.67195 0.27713 0.22549 0.0
H1466 H 0.53412 0.86029 0.91041 0.0
H1467 H 0.52188 0.8136 0.97069 0.0
H1468 H 0.51794 0.84846 -0.00042 0.0
H1469 H 0.56884 0.91095 0.94895 0.0
H1470 H 0.55602 0.93353 0.93286 0.0
H1471 H 0.5576 0.90485 0.91615 0.0
H1472 H 0.512 0.89818 0.90383 0.0
H1473 H 0.51021 0.92683 0.92043 0.0
H1474 H 0.49194 0.89979 0.92815 0.0
H1475 H 0.51757 0.88791 0.023 0.0
H1476 H 0.51793 0.93039 0.03883 0.0
H1477 H 0.52842 0.95217 0.96391 0.0
C1478 C 0.53057 0.85748 0.92966 0.0
C1479 C 0.52844 0.83418 0.93826 0.0
C1480 C 0.52367 0.83122 0.96359 0.0
C1481 C 0.5214 0.85093 0.98024 0.0
C1482 C 0.52381 0.87361 0.97138 0.0
C1483 C 0.52809 0.8771 0.94669 0.0
C1484 C 0.52974 0.9036 0.94228 0.0
C1485 C 0.55452 0.91383 0.93461 0.0
C1486 C 0.50978 0.90731 0.92251 0.0
C1487 C 0.526 0.91425 0.96842 0.0
C1488 C 0.52277 0.89659 0.98489 0.0
C1489 C 0.51993 0.90196 0.01029 0.0
C1490 C 0.52031 0.92612 0.01916 0.0
C1491 C 0.52318 0.9445 0.00258 0.0
C1492 C 0.52599 0.93842 0.97689 0.0
H1493 H 0.93596 0.72194 0.68252 0.0
H1494 H 0.95148 0.79684 0.66707 0.0
H1495 H 0.91669 0.80567 0.68895 0.0
H1496 H 0.87462 0.71539 0.66878 0.0
H1497 H 0.86677 0.69595 0.69312 0.0
H1498 H 0.89511 0.6965 0.6804 0.0
H1499 H 0.9163 0.70644 0.72544 0.0
H1500 H 0.88811 0.707 0.73849 0.0
H1501 H 0.91146 0.73285 0.74442 0.0
H1502 H 0.87885 0.80582 0.70966 0.0
H1503 H 0.83796 0.79611 0.72319 0.0
H1504 H 0.84527 0.72063 0.72158 0.0
C1505 C 0.93209 0.7402 0.68418 0.0
C1506 C 0.94611 0.7588 0.67333 0.0
C1507 C 0.94065 0.78245 0.67533 0.0
C1508 C 0.92115 0.78765 0.68789 0.0
C1509 C 0.90726 0.76889 0.6981 0.0
C1510 C 0.91233 0.74557 0.69621 0.0
C1511 C 0.89302 0.72822 0.70622 0.0
C1512 C 0.88171 0.70783 0.68591 0.0
C1513 C 0.90283 0.71803 0.73006 0.0
C1514 C 0.87571 0.74516 0.71255 0.0
C1515 C 0.88468 0.7687 0.70874 0.0
C1516 C 0.87164 0.78747 0.71283 0.0
C1517 C 0.84854 0.78187 0.72044 0.0
C1518 C 0.83875 0.7577 0.72308 0.0
C1519 C 0.85257 0.73924 0.71951 0.0
H1520 H 0.12111 0.04295 0.87597 0.0
H1521 H 0.10118 0.96927 0.84233 0.0
H1522 H 0.07379 0.96029 0.87532 0.0
H1523 H 0.11975 0.02947 0.94179 0.0
H1524 H 0.1073 0.05595 0.95121 0.0
H1525 H 0.12581 0.05625 0.9254 0.0
H1526 H 0.09178 0.06876 0.89663 0.0
H1527 H 0.07306 0.06808 0.9223 0.0
H1528 H 0.06267 0.0502 0.89288 0.0
H1529 H 0.0465 0.96004 0.91027 0.0
H1530 H 0.02468 0.96739 0.94776 0.0
H1531 H 0.06357 0.04053 0.96014 0.0
C1532 C 0.11124 0.02487 0.87592 0.0
C1533 C 0.11331 0.00665 0.85687 0.0
C1534 C 0.09987 0.98332 0.85697 0.0
C1535 C 0.08422 0.97811 0.87554 0.0
C1536 C 0.08217 0.99649 0.89388 0.0
C1537 C 0.0955 0.01934 0.89445 0.0
C1538 C 0.08971 0.03581 0.9162 0.0
C1539 C 0.11197 0.04489 0.93475 0.0
C1540 C 0.07866 0.05696 0.90641 0.0
C1541 C 0.07138 0.01857 0.92789 0.0
C1542 C 0.06694 0.99611 0.91446 0.0
C1543 C 0.04997 0.97751 0.92106 0.0
C1544 C 0.03753 0.98186 0.94222 0.0
C1545 C 0.04249 0.00444 0.95678 0.0
C1546 C 0.05956 0.02301 0.94939 0.0
H1547 H 0.78419 0.36421 0.58837 0.0
H1548 H 0.71885 0.32148 0.5515 0.0
H1549 H 0.7135 0.29948 0.58933 0.0
H1550 H 0.80567 0.31778 0.61716 0.0
H1551 H 0.81782 0.33484 0.64658 0.0
H1552 H 0.81536 0.34992 0.61822 0.0
H1553 H 0.79027 0.37904 0.63939 0.0
H1554 H 0.79325 0.36449 0.66808 0.0
H1555 H 0.764 0.36684 0.65383 0.0
H1556 H 0.71726 0.27924 0.62837 0.0
H1557 H 0.7272 0.26525 0.67012 0.0
H1558 H 0.79005 0.32064 0.68247 0.0
C1559 C 0.76833 0.35089 0.58882 0.0
C1560 C 0.7516 0.34471 0.56744 0.0
C1561 C 0.7315 0.32661 0.56804 0.0
C1562 C 0.72843 0.31395 0.58931 0.0
C1563 C 0.74567 0.31966 0.60977 0.0
C1564 C 0.76498 0.33801 0.61005 0.0
C1565 C 0.78135 0.3396 0.63422 0.0
C1566 C 0.80654 0.33527 0.62869 0.0
C1567 C 0.78226 0.36393 0.6498 0.0
C1568 C 0.76847 0.31893 0.64702 0.0
C1569 C 0.74797 0.30769 0.6325 0.0
C1570 C 0.73318 0.28793 0.64002 0.0
C1571 C 0.73907 0.27993 0.6635 0.0
C1572 C 0.75954 0.29162 0.67891 0.0
C1573 C 0.77456 0.3112 0.67059 0.0
H1574 H 0.41957 0.9997 0.36161 0.0
H1575 H 0.4378 0.07654 0.35626 0.0
H1576 H 0.46662 0.08013 0.39435 0.0
H1577 H 0.42352 0.00268 0.43082 0.0
H1578 H 0.43583 0.97511 0.43151 0.0
H1579 H 0.41594 0.97947 0.40491 0.0
H1580 H 0.44815 0.97119 0.37512 0.0
H1581 H 0.46833 0.9674 0.4017 0.0
H1582 H 0.47745 0.98935 0.38011 0.0
H1583 H 0.49586 0.07426 0.43126 0.0
H1584 H 0.51915 0.06017 0.46706 0.0
H1585 H 0.48022 0.98764 0.4482 0.0
C1586 C 0.42917 0.01733 0.369 0.0
C1587 C 0.4263 0.03797 0.35668 0.0
C1588 C 0.43954 0.06071 0.36609 0.0
C1589 C 0.45604 0.06283 0.38747 0.0
C1590 C 0.4589 0.042 0.39906 0.0
C1591 C 0.4455 0.01976 0.39039 0.0
C1592 C 0.45205 1.00009 0.40593 0.0
C1593 C 0.43056 0.98868 0.41908 0.0
C1594 C 0.46209 0.98088 0.38974 0.0
C1595 C 0.47124 0.01468 0.42465 0.0
C1596 C 0.47525 0.03877 0.4203 0.0
C1597 C 0.49273 0.05548 0.43498 0.0
C1598 C 0.50599 0.04737 0.45506 0.0
C1599 C 0.50131 0.02295 0.4602 0.0
C1600 C 0.48396 0.00648 0.44464 0.0
H1601 H 0.75429 0.64483 0.08232 0.0
H1602 H 0.78383 0.71092 0.05165 0.0
H1603 H 0.78938 0.73247 0.09417 0.0
H1604 H 0.72138 0.67249 0.12624 0.0
H1605 H 0.72646 0.65352 0.15111 0.0
H1606 H 0.7267 0.64214 0.11866 0.0
H1607 H 0.76921 0.63202 0.1281 0.0
H1608 H 0.76887 0.64286 0.16071 0.0
H1609 H 0.79275 0.65524 0.14294 0.0
H1610 H 0.78801 0.74802 0.13862 0.0
H1611 H 0.78505 0.75554 0.18427 0.0
H1612 H 0.75734 0.67962 0.18749 0.0
C1613 C 0.76257 0.66363 0.08478 0.0
C1614 C 0.76875 0.67622 0.06376 0.0
C1615 C 0.77898 0.70098 0.06754 0.0
C1616 C 0.78214 0.7134 0.09159 0.0
C1617 C 0.77496 0.70084 0.11179 0.0
C1618 C 0.76576 0.67645 0.10884 0.0
C1619 C 0.75873 0.6677 0.13379 0.0
C1620 C 0.73171 0.65841 0.13236 0.0
C1621 C 0.77327 0.64831 0.14186 0.0
C1622 C 0.76552 0.69094 0.15106 0.0
C1623 C 0.77455 0.70986 0.13783 0.0
C1624 C 0.7812 0.73331 0.1493 0.0
C1625 C 0.77923 0.73745 0.1752 0.0
C1626 C 0.77096 0.71818 0.18944 0.0
C1627 C 0.76379 0.69468 0.17709 0.0
H1628 H 0.08892 0.03809 0.71838 0.0
H1629 H 0.12348 0.97485 0.7228 0.0
H1630 H 0.11013 0.96238 0.6779 0.0
H1631 H 0.03757 0.01053 0.67557 0.0
H1632 H 0.03718 0.03663 0.65814 0.0
H1633 H 0.04859 0.04031 0.69092 0.0
H1634 H 0.08854 0.06382 0.67954 0.0
H1635 H 0.07723 0.0603 0.64675 0.0
H1636 H 0.10483 0.05018 0.65629 0.0
H1637 H 0.09397 0.95697 0.63301 0.0
H1638 H 0.07774 0.95978 0.58945 0.0
H1639 H 0.05346 0.02669 0.61287 0.0
C1640 C 0.09361 0.02157 0.70991 0.0
C1641 C 0.10727 0.0074 0.72412 0.0
C1642 C 0.11324 0.98607 0.71227 0.0
C1643 C 0.10559 0.97876 0.68683 0.0
C1644 C 0.09216 0.99309 0.67341 0.0
C1645 C 0.08636 0.01414 0.6844 0.0
C1646 C 0.07265 0.02675 0.66528 0.0
C1647 C 0.0475 0.02865 0.67294 0.0
C1648 C 0.08665 0.05174 0.66176 0.0
C1649 C 0.07162 0.0094 0.64181 0.0
C1650 C 0.08296 0.9901 0.64711 0.0
C1651 C 0.08512 0.972 0.6286 0.0
C1652 C 0.07593 0.97385 0.60389 0.0
C1653 C 0.06456 0.99356 0.59777 0.0
C1654 C 0.06198 0.01139 0.61708 0.0
H1655 H 0.7597 0.32654 0.45094 0.0
H1656 H 0.7262 0.38302 0.41937 0.0
H1657 H 0.72263 0.3607 0.37699 0.0
H1658 H 0.79467 0.31765 0.3989 0.0
H1659 H 0.79266 0.28566 0.40121 0.0
H1660 H 0.79129 0.30559 0.42892 0.0
H1661 H 0.7509 0.28028 0.43665 0.0
H1662 H 0.75194 0.26048 0.40871 0.0
H1663 H 0.72646 0.27547 0.41216 0.0
H1664 H 0.72368 0.33287 0.33827 0.0
H1665 H 0.7327 0.30372 0.30509 0.0
H1666 H 0.76609 0.2654 0.3616 0.0
C1667 C 0.7515 0.33418 0.43515 0.0
C1668 C 0.74302 0.35642 0.43839 0.0
C1669 C 0.7328 0.36602 0.41721 0.0
C1670 C 0.73056 0.35339 0.39317 0.0
C1671 C 0.73888 0.33136 0.39068 0.0
C1672 C 0.74949 0.32202 0.41103 0.0
C1673 C 0.75854 0.29892 0.40302 0.0
C1674 C 0.78591 0.30215 0.40832 0.0
C1675 C 0.74621 0.27752 0.4159 0.0
C1676 C 0.75099 0.29642 0.37494 0.0
C1677 C 0.73964 0.31533 0.36829 0.0
C1678 C 0.73233 0.31788 0.3433 0.0
C1679 C 0.73747 0.30117 0.32453 0.0
C1680 C 0.74967 0.28206 0.33076 0.0
C1681 C 0.756 0.27934 0.35637 0.0
H1682 H 0.46611 0.01416 0.23131 0.0
H1683 H 0.38972 0.00862 0.21208 0.0
H1684 H 0.39583 0.00421 0.16684 0.0
H1685 H 0.48291 0.04977 0.17987 0.0
H1686 H 0.50891 0.03599 0.17507 0.0
H1687 H 0.49842 0.03841 0.20596 0.0
H1688 H 0.49582 0.99217 0.20744 0.0
H1689 H 0.50604 0.9896 0.17644 0.0
H1690 H 0.4782 0.97195 0.1826 0.0
H1691 H 0.40991 0.00092 0.12428 0.0
H1692 H 0.43163 0.00081 0.08609 0.0
H1693 H 0.4989 0.00808 0.13259 0.0
C1694 C 0.45069 0.0119 0.21754 0.0
C1695 C 0.42744 0.01155 0.22507 0.0
C1696 C 0.40769 0.00901 0.20662 0.0
C1697 C 0.41096 0.00638 0.18094 0.0
C1698 C 0.43408 0.00661 0.17414 0.0
C1699 C 0.45365 0.00959 0.19183 0.0
C1700 C 0.47669 0.01026 0.17936 0.0
C1701 C 0.49267 0.03508 0.18542 0.0
C1702 C 0.48996 0.98976 0.18691 0.0
C1703 C 0.46689 0.00642 0.15191 0.0
C1704 C 0.44228 0.00458 0.14939 0.0
C1705 C 0.42915 0.0022 0.12596 0.0
C1706 C 0.44159 0.00214 0.10446 0.0
C1707 C 0.46675 0.00415 0.10665 0.0
C1708 C 0.47957 0.00596 0.13058 0.0
H1709 H 0.74555 0.68379 0.94283 0.0
H1710 H 0.7873 0.63006 0.91706 0.0
H1711 H 0.79659 0.65269 0.8803 0.0
H1712 H 0.7204 0.69258 0.87898 0.0
H1713 H 0.72036 0.72432 0.88662 0.0
H1714 H 0.71694 0.7038 0.9108 0.0
H1715 H 0.75305 0.72985 0.93784 0.0
H1716 H 0.75688 0.75018 0.91354 0.0
H1717 H 0.78139 0.73587 0.92479 0.0
H1718 H 0.80355 0.68212 0.84822 0.0
H1719 H 0.80223 0.71261 0.81796 0.0
H1720 H 0.75384 0.74681 0.86219 0.0
C1721 C 0.7564 0.67668 0.92924 0.0
C1722 C 0.76577 0.65517 0.93277 0.0
C1723 C 0.77979 0.64635 0.91459 0.0
C1724 C 0.78534 0.65922 0.8938 0.0
C1725 C 0.77634 0.68065 0.89118 0.0
C1726 C 0.76163 0.68902 0.90797 0.0
C1727 C 0.75345 0.712 0.89995 0.0
C1728 C 0.72617 0.70793 0.89372 0.0
C1729 C 0.76169 0.73323 0.92025 0.0
C1730 C 0.76637 0.71555 0.87636 0.0
C1731 C 0.77961 0.69729 0.8719 0.0
C1732 C 0.79308 0.69637 0.85138 0.0
C1733 C 0.79228 0.71392 0.83434 0.0
C1734 C 0.77793 0.73221 0.83759 0.0
C1735 C 0.76524 0.73334 0.85931 0.0
H1736 H 0.85033 0.11375 0.99872 0.0
H1737 H 0.8296 0.09329 0.07139 0.0
H1738 H 0.86137 0.06802 0.07404 0.0
H1739 H 0.86209 0.05419 0.97696 0.0
H1740 H 0.88688 0.06561 0.95992 0.0
H1741 H 0.863 0.08278 0.96379 0.0
H1742 H 0.89343 0.11972 0.98404 0.0
H1743 H 0.91739 0.1028 0.97987 0.0
H1744 H 0.91368 0.11624 0.01076 0.0
H1745 H 0.89575 0.04666 0.06984 0.0
H1746 H 0.93188 0.03039 0.05929 0.0
H1747 H 0.92914 0.06173 0.98776 0.0
C1748 C 0.8528 0.10416 0.01529 0.0
C1749 C 0.8379 0.10559 0.03508 0.0
C1750 C 0.84103 0.09241 0.05619 0.0
C1751 C 0.85891 0.07799 0.05778 0.0
C1752 C 0.87303 0.07652 0.03777 0.0
C1753 C 0.8702 0.08913 0.01686 0.0
C1754 C 0.88754 0.08382 0.9978 0.0
C1755 C 0.87407 0.07083 0.97316 0.0
C1756 C 0.90399 0.10702 0.99285 0.0
C1757 C 0.90118 0.06702 0.01178 0.0
C1758 C 0.89227 0.06295 0.0347 0.0
C1759 C 0.90261 0.04929 0.05176 0.0
C1760 C 0.92299 0.04002 0.04557 0.0
C1761 C 0.93266 0.04425 0.02245 0.0
C1762 C 0.92143 0.05752 0.00509 0.0
H1763 H 0.35183 0.4081 0.00603 0.0
H1764 H 0.33323 0.43869 0.07732 0.0
H1765 H 0.37087 0.46831 0.08145 0.0
H1766 H 0.41262 0.4114 0.02038 0.0
H1767 H 0.42128 0.42058 0.9904 0.0
H1768 H 0.39218 0.40337 0.9923 0.0
H1769 H 0.37239 0.43653 0.972 0.0
H1770 H 0.40151 0.45383 0.9699 0.0
H1771 H 0.37949 0.46727 0.98596 0.0
H1772 H 0.4123 0.49305 0.07859 0.0
H1773 H 0.45305 0.51043 0.069 0.0
H1774 H 0.44385 0.46332 -0.00047 0.0
C1775 C 0.35561 0.42119 0.02241 0.0
C1776 C 0.33974 0.42106 0.04145 0.0
C1777 C 0.34511 0.4386 0.06247 0.0
C1778 C 0.36645 0.45545 0.06495 0.0
C1779 C 0.3819 0.45487 0.04594 0.0
C1780 C 0.37649 0.43839 0.02488 0.0
C1781 C 0.39602 0.44133 0.00714 0.0
C1782 C 0.40612 0.41777 0.0023 0.0
C1783 C 0.3868 0.45027 0.98228 0.0
C1784 C 0.41412 0.4608 0.02232 0.0
C1785 C 0.40545 0.46891 0.04433 0.0
C1786 C 0.41912 0.48693 0.06131 0.0
C1787 C 0.44222 0.49674 0.05571 0.0
C1788 C 0.4516 0.48815 0.03361 0.0
C1789 C 0.4372 0.47009 0.01669 0.0
H1790 H 0.34152 0.56679 0.77564 0.0
H1791 H 0.38964 0.58202 0.71794 0.0
H1792 H 0.3756 0.62108 0.71351 0.0
H1793 H 0.29255 0.59451 0.75035 0.0
H1794 H 0.28621 0.60741 0.78055 0.0
H1795 H 0.29907 0.58012 0.77851 0.0
H1796 H 0.33415 0.60027 0.81095 0.0
H1797 H 0.32138 0.62761 0.81311 0.0
H1798 H 0.35162 0.62848 0.80502 0.0
H1799 H 0.35656 0.65773 0.71494 0.0
H1800 H 0.33569 0.69185 0.72356 0.0
H1801 H 0.30058 0.65524 0.78249 0.0
C1802 C 0.34882 0.57833 0.76191 0.0
C1803 C 0.36635 0.57137 0.74673 0.0
C1804 C 0.37606 0.58704 0.72947 0.0
C1805 C 0.36818 0.6092 0.72687 0.0
C1806 C 0.35092 0.61563 0.74207 0.0
C1807 C 0.34153 0.60087 0.75951 0.0
C1808 C 0.32417 0.61295 0.77443 0.0
C1809 C 0.299 0.59784 0.77072 0.0
C1810 C 0.33338 0.6176 0.80254 0.0
C1811 C 0.32487 0.63654 0.76221 0.0
C1812 C 0.34045 0.63751 0.7436 0.0
C1813 C 0.3444 0.65722 0.72954 0.0
C1814 C 0.33235 0.6766 0.73466 0.0
C1815 C 0.31637 0.67645 0.75378 0.0
C1816 C 0.31256 0.65598 0.76772 0.0
H1817 H 0.19084 0.62436 0.55693 0.0
H1818 H 0.21775 0.58624 0.49464 0.0
H1819 H 0.18005 0.55682 0.48855 0.0
H1820 H 0.1554 0.56697 0.5789 0.0
H1821 H 0.13249 0.58355 0.58851 0.0
H1822 H 0.16323 0.59825 0.59097 0.0
H1823 H 0.15082 0.6314 0.56408 0.0
H1824 H 0.12025 0.6168 0.56133 0.0
H1825 H 0.13497 0.62277 0.53327 0.0
H1826 H 0.13746 0.53586 0.48532 0.0
H1827 H 0.09353 0.5255 0.4847 0.0
H1828 H 0.09457 0.57788 0.54882 0.0
C1829 C 0.18895 0.60936 0.54253 0.0
C1830 C 0.20695 0.60732 0.52628 0.0
C1831 C 0.20411 0.58773 0.50746 0.0
C1832 C 0.18284 0.57097 0.50393 0.0
C1833 C 0.16505 0.5738 0.51992 0.0
C1834 C 0.16811 0.59226 0.53917 0.0
C1835 C 0.14567 0.59255 0.55245 0.0
C1836 C 0.14942 0.58488 0.5793 0.0
C1837 C 0.13745 0.61735 0.55275 0.0
C1838 C 0.12867 0.5733 0.53581 0.0
C1839 C 0.14042 0.56188 0.5179 0.0
C1840 C 0.1282 0.54428 0.49961 0.0
C1841 C 0.1033 0.53851 0.4994 0.0
C1842 C 0.09098 0.55086 0.51686 0.0
C1843 C 0.1038 0.56813 0.53549 0.0
H1844 H 0.69576 0.95583 0.7844 0.0
H1845 H 0.63804 0.91494 0.73317 0.0
H1846 H 0.6565 0.87809 0.7368 0.0
H1847 H 0.74419 0.92717 0.76614 0.0
H1848 H 0.75736 0.92689 0.79796 0.0
H1849 H 0.74013 0.95001 0.79032 0.0
H1850 H 0.71281 0.93834 0.82545 0.0
H1851 H 0.72989 0.91508 0.83311 0.0
H1852 H 0.69807 0.90758 0.82522 0.0
H1853 H 0.6809 0.84598 0.74657 0.0
H1854 H 0.70978 0.82043 0.76147 0.0
H1855 H 0.75113 0.88204 0.80744 0.0
C1856 C 0.68738 0.9392 0.77349 0.0
C1857 C 0.66595 0.93816 0.75788 0.0
C1858 C 0.65474 0.916 0.74479 0.0
C1859 C 0.66502 0.89507 0.74687 0.0
C1860 C 0.68608 0.89662 0.76266 0.0
C1861 C 0.69702 0.91807 0.77593 0.0
C1862 C 0.71871 0.91457 0.7928 0.0
C1863 C 0.74144 0.93061 0.7864 0.0
C1864 C 0.71462 0.91917 0.8208 0.0
C1865 C 0.71912 0.88808 0.78583 0.0
C1866 C 0.69983 0.87798 0.76881 0.0
C1867 C 0.696 0.85366 0.75993 0.0
C1868 C 0.71239 0.83932 0.76853 0.0
C1869 C 0.73242 0.84941 0.78561 0.0
C1870 C 0.73588 0.87405 0.79438 0.0
H1871 H 0.69661 0.90651 0.50907 0.0
H1872 H 0.71981 0.9273 0.58812 0.0
H1873 H 0.68575 0.94943 0.5917 0.0
H1874 H 0.67922 0.96465 0.49733 0.0
H1875 H 0.65423 0.95181 0.4749 0.0
H1876 H 0.67986 0.93677 0.47854 0.0
H1877 H 0.65267 0.89773 0.48776 0.0
H1878 H 0.62696 0.91255 0.48385 0.0
H1879 H 0.63312 0.89897 0.51262 0.0
H1880 H 0.64873 0.96813 0.58715 0.0
H1881 H 0.61103 0.9826 0.57464 0.0
H1882 H 0.6127 0.95255 0.4978 0.0
C1883 C 0.69423 0.91547 0.52717 0.0
C1884 C 0.7105 0.91488 0.54852 0.0
C1885 C 0.70736 0.92739 0.57169 0.0
C1886 C 0.68814 0.94006 0.57385 0.0
C1887 C 0.67256 0.9406 0.55244 0.0
C1888 C 0.67545 0.92883 0.52946 0.0
C1889 C 0.65658 0.93313 0.50923 0.0
C1890 C 0.66817 0.94744 0.48879 0.0
C1891 C 0.64143 0.90916 0.4977 0.0
C1892 C 0.64204 0.94829 0.52466 0.0
C1893 C 0.65176 0.9525 0.54951 0.0
C1894 C 0.64113 0.96517 0.56771 0.0
C1895 C 0.61976 0.97332 0.56049 0.0
C1896 C 0.60924 0.96898 0.53533 0.0
C1897 C 0.62074 0.95666 0.51704 0.0
H1898 H 0.37235 0.4199 0.78956 0.0
H1899 H 0.33621 0.44733 0.72613 0.0
H1900 H 0.30532 0.41052 0.72145 0.0
H1901 H 0.36404 0.35915 0.76695 0.0
H1902 H 0.35852 0.34768 0.79688 0.0
H1903 H 0.37655 0.37676 0.79598 0.0
H1904 H 0.34859 0.39639 0.82435 0.0
H1905 H 0.33042 0.36729 0.82533 0.0
H1906 H 0.317 0.39212 0.81478 0.0
H1907 H 0.27932 0.36886 0.72272 0.0
H1908 H 0.26135 0.32707 0.7298 0.0
H1909 H 0.31499 0.32796 0.7924 0.0
C1910 C 0.35783 0.41826 0.77479 0.0
C1911 C 0.35671 0.43645 0.75816 0.0
C1912 C 0.33732 0.4337 0.73921 0.0
C1913 C 0.31973 0.41283 0.73639 0.0
C1914 C 0.32152 0.39508 0.75299 0.0
C1915 C 0.33999 0.39781 0.77201 0.0
C1916 C 0.33814 0.37619 0.78731 0.0
C1917 C 0.36064 0.36424 0.78672 0.0
C1918 C 0.33325 0.38343 0.81456 0.0
C1919 C 0.31654 0.36021 0.77313 0.0
C1920 C 0.3068 0.37151 0.75371 0.0
C1921 C 0.28675 0.35998 0.73801 0.0
C1922 C 0.2766 0.33629 0.74219 0.0
C1923 C 0.28679 0.32426 0.76158 0.0
C1924 C 0.30687 0.33661 0.77731 0.0
H1925 H 0.15708 0.58852 0.30966 0.0
H1926 H 0.17651 0.5601 0.23784 0.0
H1927 H 0.20435 0.5981 0.23518 0.0
H1928 H 0.15583 0.64664 0.29707 0.0
H1929 H 0.16957 0.66082 0.32728 0.0
H1930 H 0.15359 0.63047 0.32486 0.0
H1931 H 0.19121 0.61571 0.34493 0.0
H1932 H 0.20714 0.64623 0.34757 0.0
H1933 H 0.21914 0.6223 0.33119 0.0
H1934 H 0.22657 0.64112 0.23844 0.0
H1935 H 0.24168 0.68499 0.24799 0.0
H1936 H 0.20837 0.68389 0.31818 0.0
C1937 C 0.16751 0.59027 0.29361 0.0
C1938 C 0.16472 0.57168 0.2739 0.0
C1939 C 0.17863 0.57428 0.25317 0.0
C1940 C 0.19448 0.59571 0.25154 0.0
C1941 C 0.19663 0.61396 0.27117 0.0
C1942 C 0.18386 0.61123 0.29205 0.0
C1943 C 0.18874 0.63378 0.31017 0.0
C1944 C 0.16555 0.64349 0.3151 0.0
C1945 C 0.20236 0.62922 0.33493 0.0
C1946 C 0.20457 0.65025 0.29526 0.0
C1947 C 0.20954 0.63843 0.27314 0.0
C1948 C 0.22309 0.65047 0.2559 0.0
C1949 C 0.23155 0.6753 0.2614 0.0
C1950 C 0.22593 0.68767 0.28366 0.0
C1951 C 0.21268 0.67486 0.30089 0.0
H1952 H 0.53564 0.69326 0.43741 0.0
H1953 H 0.45915 0.68736 0.44137 0.0
H1954 H 0.45914 0.65112 0.46436 0.0
H1955 H 0.53801 0.62861 0.42957 0.0
H1956 H 0.56553 0.63126 0.4496 0.0
H1957 H 0.55939 0.65614 0.43231 0.0
H1958 H 0.56571 0.68397 0.4741 0.0
H1959 H 0.57138 0.65904 0.4916 0.0
H1960 H 0.54815 0.67584 0.49967 0.0
H1961 H 0.46732 0.61781 0.48919 0.0
H1962 H 0.48241 0.58477 0.50939 0.0
H1963 H 0.55367 0.61058 0.48933 0.0
C1964 C 0.51889 0.68389 0.4426 0.0
C1965 C 0.49733 0.69286 0.43752 0.0
C1966 C 0.47579 0.68062 0.4451 0.0
C1967 C 0.47562 0.66014 0.45826 0.0
C1968 C 0.49721 0.65221 0.46386 0.0
C1969 C 0.51843 0.66338 0.45605 0.0
C1970 C 0.53909 0.65116 0.46516 0.0
C1971 C 0.55121 0.64119 0.44282 0.0
C1972 C 0.55715 0.66854 0.48373 0.0
C1973 C 0.52598 0.63105 0.4786 0.0
C1974 C 0.50194 0.63247 0.47809 0.0
C1975 C 0.48611 0.61643 0.48968 0.0
C1976 C 0.49492 0.59788 0.50143 0.0
C1977 C 0.51924 0.59523 0.5012 0.0
C1978 C 0.53503 0.61228 0.48992 0.0
H1979 H 0.59509 0.24924 0.68753 0.0
H1980 H 0.60732 0.32643 0.68216 0.0
H1981 H 0.64424 0.33062 0.71111 0.0
H1982 H 0.62149 0.2502 0.75421 0.0
H1983 H 0.63488 0.2238 0.74709 0.0
H1984 H 0.60734 0.22739 0.72974 0.0
H1985 H 0.62681 0.22236 0.68783 0.0
H1986 H 0.65439 0.21894 0.70503 0.0
H1987 H 0.6541 0.24202 0.6835 0.0
H1988 H 0.68081 0.32616 0.73859 0.0
H1989 H 0.7164 0.31299 0.75948 0.0
H1990 H 0.68272 0.23827 0.74321 0.0
C1991 C 0.60516 0.26706 0.69327 0.0
C1992 C 0.59816 0.28766 0.6834 0.0
C1993 C 0.61224 0.3106 0.69015 0.0
C1994 C 0.63318 0.31311 0.70653 0.0
C1995 C 0.63994 0.29242 0.71565 0.0
C1996 C 0.62645 0.26979 0.70916 0.0
C1997 C 0.63913 0.25022 0.71917 0.0
C1998 C 0.62486 0.23713 0.73871 0.0
C1999 C 0.64389 0.23235 0.69759 0.0
C2000 C 0.66212 0.26531 0.73158 0.0
C2001 C 0.6619 0.28965 0.72999 0.0
C2002 C 0.68113 0.30716 0.7401 0.0
C2003 C 0.70118 0.29957 0.75198 0.0
C2004 C 0.70207 0.27472 0.75295 0.0
C2005 C 0.68231 0.25739 0.7427 0.0
H2006 H 0.00457 0.30793 0.95179 0.0
H2007 H 0.01248 0.33454 0.87834 0.0
H2008 H 0.00713 0.37513 0.89619 0.0
H2009 H 0.96097 0.34667 0.9727 0.0
H2010 H 0.97465 0.35046 0.0047 0.0
H2011 H 0.97483 0.32288 0.98518 0.0
H2012 H 0.02098 0.32857 0.99344 0.0
H2013 H 0.02092 0.35601 0.01295 0.0
H2014 H 0.03868 0.3563 0.98647 0.0
H2015 H 0.00516 0.41288 0.92276 0.0
H2016 H 0.0113 0.44613 0.95615 0.0
H2017 H 0.00585 0.39489 0.01291 0.0
C2018 C 0.00467 0.32214 0.93924 0.0
C2019 C 0.00875 0.31817 0.91363 0.0
C2020 C 0.00926 0.33729 0.89798 0.0
C2021 C 0.00602 0.36026 0.90792 0.0
C2022 C 0.00222 0.36355 0.93339 0.0
C2023 C 1.00163 0.34501 0.94885 0.0
C2024 C 1.00017 0.35373 0.97613 0.0
C2025 C 0.97623 0.34278 0.98521 0.0
C2026 C 0.02146 0.34835 0.99323 0.0
C2027 C 1.00143 0.38044 0.97391 0.0
C2028 C 1.00176 0.38557 0.94899 0.0
C2029 C 0.00447 0.40907 0.94226 0.0
C2030 C 0.00782 0.42788 0.96151 0.0
C2031 C 0.00881 0.42314 0.98727 0.0
C2032 C 0.00486 0.39906 0.99344 0.0
H2033 H 0.96461 0.79754 0.19784 0.0
H2034 H 0.95761 0.72399 0.16421 0.0
H2035 H 0.91956 0.71339 0.18364 0.0
H2036 H 0.94032 0.78422 0.25652 0.0
H2037 H 0.92483 0.8098 0.258 0.0
H2038 H 0.95179 0.81111 0.24228 0.0
H2039 H 0.92935 0.82167 0.20149 0.0
H2040 H 0.9024 0.82056 0.21714 0.0
H2041 H 0.90243 0.80209 0.188 0.0
H2042 H 0.88248 0.7111 0.20761 0.0
H2043 H 0.84748 0.71809 0.23021 0.0
H2044 H 0.87814 0.7938 0.24608 0.0
C2045 C 0.95499 0.77922 0.19468 0.0
C2046 C 0.9638 0.76147 0.17976 0.0
C2047 C 0.95092 0.73772 0.17569 0.0
C2048 C 0.92943 0.73158 0.18671 0.0
C2049 C 0.92116 0.74951 0.20153 0.0
C2050 C 0.93343 0.77292 0.20525 0.0
C2051 C 0.92027 0.7891 0.22098 0.0
C2052 C 0.9352 0.79914 0.24592 0.0
C2053 C 0.91319 0.80956 0.206 0.0
C2054 C 0.89861 0.77122 0.22547 0.0
C2055 C 0.89958 0.74839 0.21446 0.0
C2056 C 0.88155 0.72891 0.21629 0.0
C2057 C 0.86184 0.733 0.22931 0.0
C2058 C 0.86017 0.75646 0.23995 0.0
C2059 C 0.87895 0.77567 0.23815 0.0
H2060 H 0.50508 0.33818 0.14177 0.0
H2061 H 0.53397 0.29393 0.08556 0.0
H2062 H 0.54243 0.32881 0.06084 0.0
H2063 H 0.4745 0.36837 0.10035 0.0
H2064 H 0.4803 0.39747 0.11832 0.0
H2065 H 0.48038 0.3705 0.13421 0.0
H2066 H 0.5233 0.38668 0.15476 0.0
H2067 H 0.52325 0.41393 0.13918 0.0
H2068 H 0.54664 0.39619 0.13506 0.0
H2069 H 0.54335 0.36673 0.03959 0.0
H2070 H 0.53741 0.40574 0.02391 0.0
H2071 H 0.50702 0.42514 0.09317 0.0
C2072 C 0.5139 0.33611 0.12469 0.0
C2073 C 0.519 0.31342 0.11564 0.0
C2074 C 0.52998 0.31118 0.09288 0.0
C2075 C 0.53492 0.33091 0.07871 0.0
C2076 C 0.52888 0.35283 0.08758 0.0
C2077 C 0.51885 0.35568 0.11018 0.0
C2078 C 0.51214 0.3806 0.11424 0.0
C2079 C 0.48524 0.37912 0.11692 0.0
C2080 C 0.52723 0.39521 0.13717 0.0
C2081 C 0.51885 0.39074 0.08986 0.0
C2082 C 0.52894 0.37465 0.07499 0.0
C2083 C 0.53576 0.37965 0.0512 0.0
C2084 C 0.53222 0.40177 0.04239 0.0
C2085 C 0.52164 0.41838 0.05722 0.0
C2086 C 0.51504 0.41276 0.0813 0.0
H2087 H 0.94738 0.24414 0.38462 0.0
H2088 H 0.97576 0.31345 0.36024 0.0
H2089 H 0.93842 0.31237 0.33229 0.0
H2090 H 0.91195 0.2189 0.32213 0.0
H2091 H 0.88855 0.20333 0.33847 0.0
H2092 H 0.91916 0.20756 0.35194 0.0
H2093 H 0.90683 0.22803 0.39302 0.0
H2094 H 0.8764 0.22435 0.37958 0.0
H2095 H 0.89199 0.25399 0.39131 0.0
H2096 H 0.89556 0.30596 0.31227 0.0
H2097 H 0.85183 0.29419 0.30103 0.0
H2098 H 0.85282 0.22967 0.34008 0.0
C2099 C 0.94592 0.25864 0.37269 0.0
C2100 C 0.96405 0.27877 0.37417 0.0
C2101 C 0.96185 0.29778 0.35887 0.0
C2102 C 0.94082 0.29726 0.34302 0.0
C2103 C 0.92268 0.27741 0.34261 0.0
C2104 C 0.9253 0.25822 0.35672 0.0
C2105 C 0.90261 0.24012 0.35506 0.0
C2106 C 0.90576 0.21605 0.34106 0.0
C2107 C 0.89396 0.23644 0.3813 0.0
C2108 C 0.88627 0.25295 0.33944 0.0
C2109 C 0.89815 0.27406 0.33174 0.0
C2110 C 0.88617 0.2893 0.31791 0.0
C2111 C 0.86143 0.28261 0.3118 0.0
C2112 C 0.84914 0.26128 0.32013 0.0
C2113 C 0.86178 0.24629 0.33388 0.0
H2114 H 0.01729 0.67114 0.62421 0.0
H2115 H 0.96218 0.69266 0.57449 0.0
H2116 H 0.9544 0.6519 0.5517 0.0
H2117 H 0.04251 0.64174 0.58025 0.0
H2118 H 0.0494 0.61695 0.59732 0.0
H2119 H 0.04658 0.64505 0.61426 0.0
H2120 H 0.01326 0.62381 0.6395 0.0
H2121 H 0.01805 0.59574 0.62385 0.0
H2122 H 0.98843 0.60346 0.6226 0.0
H2123 H 0.9589 0.61301 0.52885 0.0
H2124 H 0.97192 0.57624 0.5103 0.0
H2125 H 0.02399 0.57922 0.57499 0.0
C2126 C 0.00262 0.66666 0.60952 0.0
C2127 C 0.98973 0.68457 0.60151 0.0
C2128 C 0.97161 0.67879 0.58131 0.0
C2129 C 0.96721 0.65576 0.56818 0.0
C2130 C 0.98107 0.63876 0.57563 0.0
C2131 C 0.99804 0.64369 0.59623 0.0
C2132 C 0.01243 0.62332 0.59841 0.0
C2133 C 0.0393 0.63232 0.59749 0.0
C2134 C 0.00772 0.61083 0.62251 0.0
C2135 C 1.00192 0.60695 0.57497 0.0
C2136 C 0.98366 0.61605 0.56229 0.0
C2137 C 0.97273 0.60534 0.53894 0.0
C2138 C 0.98043 0.58461 0.52841 0.0
C2139 C 0.99892 0.57482 0.54118 0.0
C2140 C 0.00964 0.58613 0.56485 0.0
H2141 H 0.59589 0.74296 0.88013 0.0
H2142 H 0.5716 0.79848 0.83775 0.0
H2143 H 0.60341 0.79574 0.80925 0.0
H2144 H 0.65782 0.75955 0.87757 0.0
H2145 H 0.66386 0.72911 0.87279 0.0
H2146 H 0.63861 0.73499 0.88904 0.0
H2147 H 0.61077 0.70389 0.85699 0.0
H2148 H 0.63598 0.69827 0.84035 0.0
H2149 H 0.61059 0.70751 0.82375 0.0
H2150 H 0.63854 0.78836 0.78679 0.0
H2151 H 0.67704 0.77944 0.774 0.0
H2152 H 0.67796 0.72744 0.82983 0.0
C2153 C 0.59751 0.75458 0.86492 0.0
C2154 C 0.58172 0.77114 0.86111 0.0
C2155 C 0.58379 0.78579 0.84084 0.0
C2156 C 0.60161 0.78422 0.82451 0.0
C2157 C 0.61675 0.76743 0.82839 0.0
C2158 C 0.6149 0.75283 0.84804 0.0
C2159 C 0.6337 0.73656 0.84811 0.0
C2160 C 0.64944 0.7403 0.87337 0.0
C2161 C 0.62206 0.70998 0.84194 0.0
C2162 C 0.64743 0.74558 0.82665 0.0
C2163 C 0.63689 0.76286 0.81505 0.0
C2164 C 0.64683 0.77463 0.79549 0.0
C2165 C 0.66868 0.76932 0.78826 0.0
C2166 C 0.68052 0.7527 0.80091 0.0
C2167 C 0.66925 0.74007 0.81969 0.0
H2168 H 0.43698 0.53819 0.68759 0.0
H2169 H 0.41602 0.4605 0.6833 0.0
H2170 H 0.43463 0.45617 0.64351 0.0
H2171 H 0.42941 0.54137 0.61602 0.0
H2172 H 0.45454 0.56538 0.61724 0.0
H2173 H 0.43643 0.56294 0.64341 0.0
H2174 H 0.47435 0.56227 0.67334 0.0
H2175 H 0.4925 0.56412 0.64724 0.0
H2176 H 0.49282 0.53963 0.66701 0.0
H2177 H 0.45816 0.45925 0.60697 0.0
H2178 H 0.48317 0.46999 0.57276 0.0
H2179 H 0.49148 0.54568 0.6 0.0
C2180 C 0.43549 0.52044 0.67761 0.0
C2181 C 0.42461 0.49964 0.68819 0.0
C2182 C 0.42381 0.47662 0.67519 0.0
C2183 C 0.43447 0.47397 0.65266 0.0
C2184 C 0.44586 0.49458 0.64317 0.0
C2185 C 0.4461 0.51746 0.65479 0.0
C2186 C 0.4606 0.53634 0.64074 0.0
C2187 C 0.44428 0.55247 0.62864 0.0
C2188 C 0.4813 0.55147 0.65813 0.0
C2189 C 0.46969 0.5203 0.6206 0.0
C2190 C 0.46043 0.49633 0.62217 0.0
C2191 C 0.46554 0.47795 0.60553 0.0
C2192 C 0.48003 0.48419 0.58635 0.0
C2193 C 0.48996 0.50852 0.58428 0.0
C2194 C 0.48478 0.52686 0.60171 0.0
H2195 H 0.786 0.14078 0.93981 0.0
H2196 H 0.74115 0.17726 0.98632 0.0
H2197 H 0.73011 0.20005 0.95136 0.0
H2198 H 0.81091 0.18892 0.91341 0.0
H2199 H 0.81135 0.17529 0.88179 0.0
H2200 H 0.81122 0.15697 0.90784 0.0
H2201 H 0.77316 0.1289 0.88674 0.0
H2202 H 0.77328 0.14693 0.86028 0.0
H2203 H 0.74709 0.14166 0.87718 0.0
H2204 H 0.72978 0.22435 0.91488 0.0
H2205 H 0.73808 0.24629 0.87738 0.0
H2206 H 0.78374 0.19506 0.85458 0.0
C2207 C 0.77298 0.1527 0.94211 0.0
C2208 C 0.76437 0.15718 0.96572 0.0
C2209 C 0.74802 0.17353 0.96846 0.0
C2210 C 0.74149 0.18654 0.9486 0.0
C2211 C 0.75135 0.18289 0.92597 0.0
C2212 C 0.76638 0.16604 0.92234 0.0
C2213 C 0.77664 0.16776 0.89714 0.0
C2214 C 0.80415 0.17253 0.90026 0.0
C2215 C 0.76697 0.14496 0.87928 0.0
C2216 C 0.7666 0.18937 0.88837 0.0
C2217 C 0.75151 0.1974 0.90488 0.0
C2218 C 0.74118 0.21796 0.90147 0.0
C2219 C 0.74618 0.23044 0.88032 0.0
C2220 C 0.76167 0.22249 0.86323 0.0
C2221 C 0.77193 0.20169 0.8674 0.0
H2222 H 0.06325 0.47501 0.19659 0.0
H2223 H 0.13264 0.51562 0.18692 0.0
H2224 H 0.11923 0.51946 0.14249 0.0
H2225 H 0.05468 0.44334 0.12933 0.0
H2226 H 0.02293 0.44334 0.12754 0.0
H2227 H 0.03918 0.4408 0.15737 0.0
H2228 H 0.02271 0.47774 0.17674 0.0
H2229 H 0.007 0.48092 0.14692 0.0
H2230 H 0.028 0.50596 0.16269 0.0
H2231 H 0.09644 0.5256 0.10316 0.0
H2232 H 0.06797 0.52748 0.06683 0.0
H2233 H 0.01335 0.47985 0.09946 0.0
C2234 C 0.07579 0.48391 0.18473 0.0
C2235 C 0.09897 0.49491 0.19485 0.0
C2236 C 0.11497 0.50675 0.17919 0.0
C2237 C 0.10746 0.50913 0.15406 0.0
C2238 C 0.08417 0.49889 0.14483 0.0
C2239 C 0.0688 0.48577 0.15932 0.0
C2240 C 0.04453 0.47716 0.14476 0.0
C2241 C 0.04006 0.44952 0.13944 0.0
C2242 C 0.02438 0.48599 0.15861 0.0
C2243 C 0.04808 0.4892 0.12064 0.0
C2244 C 0.0712 0.50142 0.12114 0.0
C2245 C 0.07854 0.51544 0.10211 0.0
C2246 C 0.06209 0.51643 0.08157 0.0
C2247 C 0.03851 0.50324 0.07991 0.0
C2248 C 0.03134 0.48969 0.09994 0.0
H2249 H 0.762 0.88824 0.453 0.0
H2250 H 0.78882 0.83173 0.49203 0.0
H2251 H 0.79246 0.80964 0.45152 0.0
H2252 H 0.72615 0.84999 0.40547 0.0
H2253 H 0.732 0.86893 0.38026 0.0
H2254 H 0.73428 0.88224 0.41229 0.0
H2255 H 0.77777 0.90252 0.40819 0.0
H2256 H 0.7756 0.88922 0.37608 0.0
H2257 H 0.7993 0.88418 0.39851 0.0
H2258 H 0.78945 0.79125 0.40741 0.0
H2259 H 0.77991 0.7781 0.36204 0.0
H2260 H 0.75531 0.846 0.35064 0.0
C2261 C 0.76923 0.87156 0.45294 0.0
C2262 C 0.7753 0.8619 0.47578 0.0
C2263 C 0.78416 0.83968 0.47489 0.0
C2264 C 0.78637 0.82692 0.45191 0.0
C2265 C 0.77977 0.83656 0.42976 0.0
C2266 C 0.77152 0.85842 0.42996 0.0
C2267 C 0.76412 0.86372 0.4033 0.0
C2268 C 0.73756 0.86637 0.40016 0.0
C2269 C 0.78015 0.88625 0.3961 0.0
C2270 C 0.76866 0.84106 0.38838 0.0
C2271 C 0.77801 0.8258 0.40401 0.0
C2272 C 0.78247 0.8032 0.39487 0.0
C2273 C 0.77698 0.79586 0.36906 0.0
C2274 C 0.76697 0.81102 0.35271 0.0
C2275 C 0.76316 0.83406 0.36256 0.0
H2276 H 0.43125 0.54271 0.8316 0.0
H2277 H 0.40119 0.46692 0.81677 0.0
H2278 H 0.42122 0.45867 0.8574 0.0
H2279 H 0.48847 0.53459 0.86237 0.0
H2280 H 0.49018 0.56028 0.88521 0.0
H2281 H 0.47445 0.55994 0.85448 0.0
H2282 H 0.4362 0.56742 0.87511 0.0
H2283 H 0.45203 0.56823 0.90579 0.0
H2284 H 0.42448 0.5475 0.89758 0.0
H2285 H 0.44415 0.45917 0.90058 0.0
H2286 H 0.46453 0.46919 0.94397 0.0
H2287 H 0.47857 0.5446 0.93033 0.0
C2288 C 0.42888 0.52443 0.83706 0.0
C2289 C 0.41475 0.5054 0.8213 0.0
C2290 C 0.41201 0.48166 0.82874 0.0
C2291 C 0.42341 0.47683 0.85168 0.0
C2292 C 0.43749 0.49598 0.86684 0.0
C2293 C 0.44007 0.51935 0.8599 0.0
C2294 C 0.45527 0.5369 0.87996 0.0
C2295 C 0.47847 0.54861 0.8699 0.0
C2296 C 0.44114 0.55614 0.89021 0.0
C2297 C 0.46033 0.51991 0.89956 0.0
C2298 C 0.45036 0.49629 0.89154 0.0
C2299 C 0.45218 0.47758 0.90695 0.0
C2300 C 0.46389 0.48333 0.93142 0.0
C2301 C 0.47332 0.50755 0.9401 0.0
C2302 C 0.47181 0.5259 0.92385 0.0
H2303 H 0.80587 0.17215 0.11442 0.0
H2304 H 0.76364 0.21154 0.06617 0.0
H2305 H 0.75287 0.23423 0.10317 0.0
H2306 H 0.76606 0.16915 0.16573 0.0
H2307 H 0.79026 0.17397 0.19047 0.0
H2308 H 0.79397 0.15922 0.1602 0.0
H2309 H 0.83143 0.19098 0.15655 0.0
H2310 H 0.82768 0.20585 0.18674 0.0
H2311 H 0.82907 0.22261 0.15936 0.0
H2312 H 0.74827 0.25469 0.1438 0.0
H2313 H 0.74836 0.27074 0.18801 0.0
H2314 H 0.79294 0.21899 0.21164 0.0
C2315 C 0.79423 0.1854 0.11181 0.0
C2316 C 0.78594 0.19027 0.08737 0.0
C2317 C 0.77069 0.20777 0.08463 0.0
C2318 C 0.76427 0.22072 0.10555 0.0
C2319 C 0.77315 0.21607 0.12926 0.0
C2320 C 0.78765 0.19881 0.13273 0.0
C2321 C 0.79516 0.19832 0.16061 0.0
C2322 C 0.78579 0.1737 0.16979 0.0
C2323 C 0.82246 0.20483 0.16613 0.0
C2324 C 0.78269 0.21806 0.17186 0.0
C2325 C 0.77015 0.22798 0.15332 0.0
C2326 C 0.75784 0.247 0.15864 0.0
C2327 C 0.75812 0.25609 0.18379 0.0
C2328 C 0.77051 0.24604 0.20328 0.0
C2329 C 0.78302 0.22682 0.19716 0.0
H2330 H 0.10979 0.53493 0.33257 0.0
H2331 H 0.11189 0.45811 0.32606 0.0
H2332 H 0.08336 0.45238 0.35843 0.0
H2333 H 0.10865 0.54037 0.40091 0.0
H2334 H 0.08934 0.56287 0.4007 0.0
H2335 H 0.10909 0.56052 0.37628 0.0
H2336 H 0.07267 0.55586 0.34278 0.0
H2337 H 0.05275 0.55735 0.36724 0.0
H2338 H 0.04791 0.53182 0.34379 0.0
H2339 H 0.05328 0.45431 0.38846 0.0
H2340 H 0.03196 0.46477 0.42512 0.0
H2341 H 0.05199 0.54086 0.41632 0.0
C2342 C 0.10454 0.51706 0.3385 0.0
C2343 C 0.113 0.4969 0.32732 0.0
C2344 C 0.10574 0.47369 0.33495 0.0
C2345 C 0.0893 0.47025 0.35291 0.0
C2346 C 0.08062 0.49032 0.36309 0.0
C2347 C 0.08856 0.5134 0.35696 0.0
C2348 C 0.07777 0.53195 0.37249 0.0
C2349 C 0.09738 0.54998 0.38856 0.0
C2350 C 0.06183 0.54502 0.35556 0.0
C2351 C 0.06294 0.51564 0.38866 0.0
C2352 C 0.0642 0.49165 0.38204 0.0
C2353 C 0.05235 0.473 0.39409 0.0
C2354 C 0.04028 0.47907 0.41473 0.0
C2355 C 0.04069 0.50347 0.42341 0.0
C2356 C 0.05119 0.52206 0.40966 0.0
H2357 H 0.76625 0.86694 0.6284 0.0
H2358 H 0.75614 0.80278 0.5754 0.0
H2359 H 0.74874 0.77722 0.60978 0.0
H2360 H 0.79687 0.84507 0.67793 0.0
H2361 H 0.78228 0.85753 0.70343 0.0
H2362 H 0.78376 0.87195 0.67456 0.0
H2363 H 0.73773 0.86866 0.66975 0.0
H2364 H 0.73612 0.85442 0.6988 0.0
H2365 H 0.71931 0.83964 0.67027 0.0
H2366 H 0.74737 0.75796 0.64879 0.0
H2367 H 0.74867 0.74551 0.69177 0.0
H2368 H 0.75857 0.8207 0.72207 0.0
C2369 C 0.76175 0.84758 0.62406 0.0
C2370 C 0.76197 0.83691 0.59911 0.0
C2371 C 0.75632 0.81144 0.59429 0.0
C2372 C 0.752 0.79666 0.61371 0.0
C2373 C 0.75292 0.80745 0.63811 0.0
C2374 C 0.75712 0.83227 0.64352 0.0
C2375 C 0.75776 0.83857 0.67193 0.0
C2376 C 0.7816 0.8542 0.68258 0.0
C2377 C 0.73647 0.85107 0.67805 0.0
C2378 C 0.75505 0.8135 0.68138 0.0
C2379 C 0.75177 0.79595 0.66132 0.0
C2380 C 0.74949 0.77148 0.66473 0.0
C2381 C 0.75031 0.76459 0.68931 0.0
C2382 C 0.75362 0.78204 0.71043 0.0
C2383 C 0.75601 0.8069 0.70634 0.0
H2384 H 0.68417 0.40447 0.5435 0.0
H2385 H 0.72486 0.45361 0.49835 0.0
H2386 H 0.696 0.48183 0.50281 0.0
H2387 H 0.62668 0.41196 0.52166 0.0
H2388 H 0.6147 0.41206 0.55191 0.0
H2389 H 0.63936 0.39652 0.54645 0.0
H2390 H 0.66411 0.42156 0.58528 0.0
H2391 H 0.63949 0.43736 0.59068 0.0
H2392 H 0.6685 0.45405 0.58695 0.0
H2393 H 0.66107 0.50275 0.50868 0.0
H2394 H 0.62194 0.51484 0.5156 0.0
H2395 H 0.6047 0.45362 0.55878 0.0
C2396 C 0.687 0.4213 0.53481 0.0
C2397 C 0.70663 0.42702 0.52061 0.0
C2398 C 0.70999 0.44914 0.50952 0.0
C2399 C 0.69374 0.46526 0.51198 0.0
C2400 C 0.6746 0.45929 0.52622 0.0
C2401 C 0.67127 0.43799 0.53772 0.0
C2402 C 0.64901 0.43594 0.55174 0.0
C2403 C 0.63139 0.41275 0.54236 0.0
C2404 C 0.65568 0.4373 0.58036 0.0
C2405 C 0.63946 0.45843 0.54468 0.0
C2406 C 0.65482 0.47196 0.53047 0.0
C2407 C 0.64922 0.49274 0.52042 0.0
C2408 C 0.62712 0.49963 0.52463 0.0
C2409 C 0.61099 0.48572 0.53862 0.0
C2410 C 0.61731 0.46506 0.54898 0.0
H2411 H 0.17698 0.08843 0.46128 0.0
H2412 H 0.19326 0.12671 0.53589 0.0
H2413 H 0.15905 0.10122 0.55098 0.0
H2414 H 0.11385 0.08374 0.46042 0.0
H2415 H 0.10676 0.05389 0.44409 0.0
H2416 H 0.13407 0.07322 0.4394 0.0
H2417 H 0.15825 0.04015 0.45253 0.0
H2418 H 0.13096 0.02078 0.45742 0.0
H2419 H 0.15471 0.02817 0.48257 0.0
H2420 H 0.12255 0.07448 0.55782 0.0
H2421 H 0.08293 0.04923 0.55545 0.0
H2422 H 0.08778 0.02734 0.47657 0.0
C2423 C 0.17332 0.09115 0.4808 0.0
C2424 C 0.18764 0.10951 0.49753 0.0
C2425 C 0.18236 0.1128 0.52285 0.0
C2426 C 0.1631 0.0983 0.53163 0.0
C2427 C 0.14914 0.08051 0.51483 0.0
C2428 C 0.15376 0.07685 0.48991 0.0
C2429 C 0.13454 0.05752 0.47566 0.0
C2430 C 0.12153 0.06771 0.45359 0.0
C2431 C 0.14526 0.03534 0.4665 0.0
C2432 C 0.11815 0.05161 0.4963 0.0
C2433 C 0.12736 0.06485 0.51881 0.0
C2434 C 0.11524 0.0638 0.5404 0.0
C2435 C 0.09274 0.0494 0.53888 0.0
C2436 C 0.08245 0.03618 0.51595 0.0
C2437 C 0.09554 0.03682 0.49448 0.0
H2438 H 0.15737 0.93288 0.75821 0.0
H2439 H 0.19677 0.96948 0.82692 0.0
H2440 H 0.22263 0.93813 0.82786 0.0
H2441 H 0.15879 0.87169 0.77304 0.0
H2442 H 0.16345 0.86067 0.74151 0.0
H2443 H 0.14793 0.88592 0.74632 0.0
H2444 H 0.17818 0.91136 0.72127 0.0
H2445 H 0.19405 0.88627 0.71678 0.0
H2446 H 0.20966 0.91502 0.73119 0.0
H2447 H 0.2441 0.90325 0.82182 0.0
H2448 H 0.25797 0.86461 0.81077 0.0
H2449 H 0.2055 0.84993 0.7458 0.0
C2450 C 0.17126 0.93397 0.77355 0.0
C2451 C 0.17503 0.95334 0.79272 0.0
C2452 C 0.19363 0.95463 0.81222 0.0
C2453 C 0.20846 0.93702 0.81282 0.0
C2454 C 0.20471 0.91837 0.7935 0.0
C2455 C 0.18655 0.91658 0.77425 0.0
C2456 C 0.18666 0.8946 0.75583 0.0
C2457 C 0.16279 0.87719 0.75409 0.0
C2458 C 0.19248 0.90227 0.72972 0.0
C2459 C 0.20702 0.88387 0.76836 0.0
C2460 C 0.21747 0.89822 0.78979 0.0
C2461 C 0.23625 0.89198 0.80495 0.0
C2462 C 0.24413 0.87013 0.79847 0.0
C2463 C 0.23317 0.85475 0.7772 0.0
C2464 C 0.21461 0.86183 0.76174 0.0
H2465 H 0.34925 0.87979 0.98821 0.0
H2466 H 0.30888 0.93876 0.99738 0.0
H2467 H 0.34634 0.96802 0.0008 0.0
H2468 H 0.39539 0.90356 0.03339 0.0
H2469 H 0.41857 0.89284 0.01673 0.0
H2470 H 0.38841 0.87697 0.01131 0.0
H2471 H 0.38891 0.88153 0.96336 0.0
H2472 H 0.41915 0.89753 0.96868 0.0
H2473 H 0.39625 0.91116 0.95274 0.0
H2474 H 0.38878 0.99069 0.00724 0.0
H2475 H 0.43223 0.00413 0.01832 0.0
H2476 H 0.44405 0.93012 0.0058 0.0
C2477 C 0.34815 0.89886 0.99027 0.0
C2478 C 0.32607 0.90691 0.99228 0.0
C2479 C 0.32557 0.93208 0.99556 0.0
C2480 C 0.34676 0.94889 0.99746 0.0
C2481 C 0.36828 0.94027 0.99588 0.0
C2482 C 0.36908 0.91582 0.99233 0.0
C2483 C 0.39449 0.91099 0.99361 0.0
C2484 C 0.39949 0.89517 0.01504 0.0
C2485 C 0.40002 0.89963 0.96807 0.0
C2486 C 0.4079 0.93644 -0.00072 0.0
C2487 C 0.39257 0.95319 4e-05 0.0
C2488 C 0.40096 0.97776 0.00629 0.0
C2489 C 0.42562 0.98526 0.01243 0.0
C2490 C 0.44134 0.96812 0.01269 0.0
C2491 C 0.43237 0.94357 0.00552 0.0
H2492 H 0.87916 0.59798 0.75786 0.0
H2493 H 0.82081 0.55199 0.78626 0.0
H2494 H 0.79411 0.58164 0.77762 0.0
H2495 H 0.86806 0.6532 0.78175 0.0
H2496 H 0.87459 0.66898 0.75443 0.0
H2497 H 0.88832 0.64314 0.76047 0.0
H2498 H 0.87158 0.62281 0.71604 0.0
H2499 H 0.85772 0.64871 0.70985 0.0
H2500 H 0.83995 0.61903 0.70687 0.0
H2501 H 0.77485 0.61757 0.76915 0.0
H2502 H 0.76529 0.65839 0.76369 0.0
H2503 H 0.83586 0.68041 0.74008 0.0
C2504 C 0.86071 0.5942 0.76204 0.0
C2505 C 0.85191 0.57294 0.77276 0.0
C2506 C 0.8277 0.56826 0.77788 0.0
C2507 C 0.81242 0.58487 0.77292 0.0
C2508 C 0.82152 0.60569 0.76217 0.0
C2509 C 0.84504 0.61031 0.75656 0.0
C2510 C 0.85054 0.63445 0.74594 0.0
C2511 C 0.87161 0.65091 0.76161 0.0
C2512 C 0.85523 0.63104 0.71802 0.0
C2513 C 0.82713 0.64354 0.74856 0.0
C2514 C 0.81032 0.62635 0.75708 0.0
C2515 C 0.78768 0.63103 0.762 0.0
C2516 C 0.78234 0.65413 0.75873 0.0
C2517 C 0.79979 0.67219 0.7512 0.0
C2518 C 0.82219 0.66668 0.74554 0.0
H2519 H 0.83595 0.61185 0.03897 0.0
H2520 H 0.80086 0.57463 0.96856 0.0
H2521 H 0.83326 0.55017 0.96578 0.0
H2522 H 0.89587 0.61522 0.02425 0.0
H2523 H 0.90758 0.60899 0.055 0.0
H2524 H 0.88124 0.6229 0.05179 0.0
H2525 H 0.85817 0.58872 0.07438 0.0
H2526 H 0.88445 0.57458 0.07741 0.0
H2527 H 0.8568 0.55773 0.06214 0.0
H2528 H 0.87036 0.53072 0.96982 0.0
H2529 H 0.91008 0.51899 0.97992 0.0
H2530 H 0.92088 0.56816 0.04787 0.0
C2531 C 0.83514 0.59845 0.0231 0.0
C2532 C 0.81598 0.59498 0.00396 0.0
C2533 C 0.81537 0.57732 0.98347 0.0
C2534 C 0.83366 0.56335 0.98175 0.0
C2535 C 0.85228 0.56695 0.00097 0.0
C2536 C 0.85312 0.58397 0.02134 0.0
C2537 C 0.87522 0.58424 0.03934 0.0
C2538 C 0.89091 0.60933 0.04277 0.0
C2539 C 0.86824 0.57582 0.06483 0.0
C2540 C 0.88724 0.5657 0.02526 0.0
C2541 C 0.87348 0.55554 0.00342 0.0
C2542 C 0.88112 0.5383 0.98707 0.0
C2543 C 0.90356 0.53157 0.993 0.0
C2544 C 0.91811 0.54224 0.01493 0.0
C2545 C 0.90976 0.55937 0.03128 0.0
H2546 H 0.16282 0.11201 0.82386 0.0
H2547 H 0.1943 0.06183 0.77631 0.0
H2548 H 0.22623 0.09473 0.76887 0.0
H2549 H 0.17207 0.16089 0.78879 0.0
H2550 H 0.18047 0.18391 0.81467 0.0
H2551 H 0.16134 0.15633 0.81922 0.0
H2552 H 0.19036 0.14795 0.85595 0.0
H2553 H 0.20947 0.17599 0.85248 0.0
H2554 H 0.2214 0.14815 0.8513 0.0
H2555 H 0.25387 0.13376 0.76475 0.0
H2556 H 0.27374 0.17594 0.76335 0.0
H2557 H 0.22397 0.20067 0.81275 0.0
C2558 C 0.17662 0.10791 0.81218 0.0
C2559 C 0.17608 0.08428 0.80081 0.0
C2560 C 0.19447 0.07969 0.78555 0.0
C2561 C 0.21272 0.09829 0.78117 0.0
C2562 C 0.21271 0.12139 0.79255 0.0
C2563 C 0.19528 0.12623 0.80795 0.0
C2564 C 0.19897 0.1528 0.81722 0.0
C2565 C 0.1769 0.16414 0.8095 0.0
C2566 C 0.20542 0.15643 0.84594 0.0
C2567 C 0.22024 0.16233 0.80341 0.0
C2568 C 0.22835 0.14386 0.78983 0.0
C2569 C 0.2478 0.14834 0.77552 0.0
C2570 C 0.25905 0.17235 0.77489 0.0
C2571 C 0.25045 0.19159 0.78795 0.0
C2572 C 0.23096 0.18635 0.80258 0.0
H2573 H 0.37725 0.93538 0.32749 0.0
H2574 H 0.3506 0.96877 0.26283 0.0
H2575 H 0.32063 0.9325 0.25037 0.0
H2576 H 0.37357 0.8779 0.30045 0.0
H2577 H 0.36232 0.86228 0.32633 0.0
H2578 H 0.37952 0.89207 0.33231 0.0
H2579 H 0.34495 0.90669 0.35483 0.0
H2580 H 0.32759 0.87681 0.34878 0.0
H2581 H 0.31545 0.90247 0.33844 0.0
H2582 H 0.2978 0.89149 0.24135 0.0
H2583 H 0.28309 0.8476 0.23673 0.0
H2584 H 0.32271 0.84025 0.30759 0.0
C2585 C 0.36472 0.93513 0.31107 0.0
C2586 C 0.36608 0.95489 0.29625 0.0
C2587 C 0.34957 0.95399 0.27472 0.0
C2588 C 0.33246 0.93347 0.26747 0.0
C2589 C 0.33162 0.91422 0.28231 0.0
C2590 C 0.34701 0.91491 0.30387 0.0
C2591 C 0.34286 0.89116 0.31565 0.0
C2592 C 0.36594 0.88021 0.31884 0.0
C2593 C 0.33208 0.89448 0.34093 0.0
C2594 C 0.32458 0.87636 0.29595 0.0
C2595 C 0.31776 0.89033 0.27734 0.0
C2596 C 0.30241 0.8805 0.25615 0.0
C2597 C 0.2941 0.85565 0.25369 0.0
C2598 C 0.30132 0.84102 0.27218 0.0
C2599 C 0.31644 0.85143 0.29371 0.0
H2600 H 0.51044 0.35013 0.64301 0.0
H2601 H 0.56134 0.32015 0.59878 0.0
H2602 H 0.56307 0.35425 0.57243 0.0
H2603 H 0.4788 0.37152 0.58975 0.0
H2604 H 0.47331 0.39842 0.60733 0.0
H2605 H 0.47586 0.37166 0.6231 0.0
H2606 H 0.50974 0.39573 0.65486 0.0
H2607 H 0.50682 0.4226 0.63957 0.0
H2608 H 0.53545 0.41272 0.64312 0.0
H2609 H 0.55844 0.39044 0.55002 0.0
H2610 H 0.55263 0.43046 0.53717 0.0
H2611 H 0.50583 0.43793 0.59647 0.0
C2612 C 0.52233 0.35112 0.62815 0.0
C2613 C 0.53594 0.33273 0.623 0.0
C2614 C 0.55085 0.33418 0.60302 0.0
C2615 C 0.5518 0.35333 0.58783 0.0
C2616 C 0.53755 0.37074 0.59275 0.0
C2617 C 0.52333 0.37006 0.61259 0.0
C2618 C 0.50995 0.39128 0.61377 0.0
C2619 C 0.48288 0.3827 0.60816 0.0
C2620 C 0.51587 0.40649 0.63935 0.0
C2621 C 0.51997 0.40464 0.59245 0.0
C2622 C 0.53518 0.39199 0.58 0.0
C2623 C 0.54655 0.40053 0.55956 0.0
C2624 C 0.543 0.42313 0.55226 0.0
C2625 C 0.52871 0.43699 0.56581 0.0
C2626 C 0.5167 0.42747 0.58579 0.0
H2627 H 0.42568 0.78626 0.37339 0.0
H2628 H 0.44287 0.71795 0.34327 0.0
H2629 H 0.40745 0.71285 0.31194 0.0
H2630 H 0.36387 0.77045 0.36927 0.0
H2631 H 0.35754 0.79889 0.35947 0.0
H2632 H 0.38507 0.79775 0.37802 0.0
H2633 H 0.40899 0.81786 0.3438 0.0
H2634 H 0.38144 0.81904 0.32511 0.0
H2635 H 0.4041 0.80439 0.31167 0.0
H2636 H 0.36842 0.71436 0.28557 0.0
H2637 H 0.32923 0.72214 0.26712 0.0
H2638 H 0.33856 0.7896 0.31468 0.0
C2639 C 0.42205 0.77029 0.3601 0.0
C2640 C 0.43686 0.75241 0.36078 0.0
C2641 C 0.43175 0.73189 0.34294 0.0
C2642 C 0.41171 0.72887 0.3251 0.0
C2643 C 0.39732 0.74679 0.32507 0.0
C2644 C 0.40244 0.76722 0.34196 0.0
C2645 C 0.38404 0.78364 0.33842 0.0
C2646 C 0.37191 0.78791 0.36274 0.0
C2647 C 0.39532 0.80765 0.3292 0.0
C2648 C 0.36699 0.76865 0.31787 0.0
C2649 C 0.37514 0.74769 0.30997 0.0
C2650 C 0.36201 0.73084 0.29143 0.0
C2651 C 0.33986 0.73543 0.28098 0.0
C2652 C 0.33098 0.75646 0.28946 0.0
C2653 C 0.34493 0.77335 0.30787 0.0
H2654 H 0.04524 0.71235 0.07985 0.0
H2655 H 0.01357 0.70072 0.15018 0.0
H2656 H 0.00804 0.65667 0.13907 0.0
H2657 H 0.00611 0.66628 0.04216 0.0
H2658 H 0.02862 0.65783 0.02292 0.0
H2659 H 0.03154 0.68828 0.03725 0.0
H2660 H 0.07332 0.68486 0.05854 0.0
H2661 H 0.07045 0.65432 0.04436 0.0
H2662 H 0.07642 0.66065 0.07809 0.0
H2663 H 0.0043 0.6145 0.11959 0.0
H2664 H 1.0007 0.57664 0.09221 0.0
H2665 H 0.03484 0.61588 0.03448 0.0
C2666 C 0.03733 0.70062 0.0931 0.0
C2667 C 0.02991 0.71 0.11596 0.0
C2668 C 0.01938 0.69395 0.13256 0.0
C2669 C 0.0163 0.66893 0.12649 0.0
C2670 C 0.02387 0.66037 0.10381 0.0
C2671 C 0.03408 0.67571 0.08734 0.0
C2672 C 0.03952 0.66196 0.06355 0.0
C2673 C 0.02561 0.66901 0.0401 0.0
C2674 C 0.06653 0.66567 0.061 0.0
C2675 C 0.03032 0.63644 0.06902 0.0
C2676 C 0.0216 0.63595 0.09245 0.0
C2677 C 0.01119 0.61461 0.10129 0.0
C2678 C 0.00918 0.59324 0.08554 0.0
C2679 C 0.01747 0.5934 0.06121 0.0
C2680 C 0.02859 0.61522 0.05307 0.0
H2681 H 0.07249 0.27226 0.84276 0.0
H2682 H 0.07398 0.21302 0.88962 0.0
H2683 H 0.11386 0.20804 0.87669 0.0
H2684 H 0.10405 0.24902 0.79133 0.0
H2685 H 0.12082 0.27814 0.78723 0.0
H2686 H 0.09166 0.27605 0.79859 0.0
H2687 H 0.10957 0.30498 0.83791 0.0
H2688 H 0.13878 0.3071 0.82672 0.0
H2689 H 0.13415 0.29769 0.85767 0.0
H2690 H 0.15376 0.21101 0.86138 0.0
H2691 H 0.19221 0.22094 0.84395 0.0
H2692 H 0.16616 0.2785 0.80595 0.0
C2693 C 0.08113 0.25795 0.84977 0.0
C2694 C 0.07022 0.2426 0.86673 0.0
C2695 C 0.08209 0.22459 0.87632 0.0
C2696 C 0.10467 0.22171 0.86911 0.0
C2697 C 0.11515 0.23721 0.85253 0.0
C2698 C 0.10389 0.25501 0.84294 0.0
C2699 C 0.1199 0.27007 0.82659 0.0
C2700 C 0.10842 0.26819 0.79931 0.0
C2701 C 0.12595 0.29652 0.8379 0.0
C2702 C 0.14182 0.25773 0.82832 0.0
C2703 C 0.13857 0.23894 0.84353 0.0
C2704 C 0.15644 0.22549 0.84922 0.0
C2705 C 0.17829 0.23135 0.83919 0.0
C2706 C 0.18218 0.25032 0.82329 0.0
C2707 C 0.16359 0.26365 0.81768 0.0
H2708 H 0.53775 0.71928 0.96853 0.0
H2709 H 0.50151 0.69287 0.89485 0.0
H2710 H 0.49799 0.65083 0.90693 0.0
H2711 H 0.57134 0.66852 0.97517 0.0
H2712 H 0.56872 0.66933 0.00863 0.0
H2713 H 0.56976 0.69665 0.99305 0.0
H2714 H 0.52989 0.70339 0.01053 0.0
H2715 H 0.52841 0.67583 0.02568 0.0
H2716 H 0.50397 0.68019 0.00381 0.0
H2717 H 0.49391 0.61258 0.92961 0.0
H2718 H 0.49555 0.58024 0.95804 0.0
H2719 H 0.53707 0.63179 0.01582 0.0
C2720 C 0.52963 0.70454 0.95474 0.0
C2721 C 0.52 0.70907 0.93076 0.0
C2722 C 0.50929 0.68956 0.91317 0.0
C2723 C 0.50705 0.66574 0.91998 0.0
C2724 C 0.51605 0.66194 0.94421 0.0
C2725 C 0.5277 0.68079 0.96105 0.0
C2726 C 0.53559 0.67209 0.98599 0.0
C2727 C 0.56298 0.67693 0.991 0.0
C2728 C 0.52375 0.68356 0.00778 0.0
C2729 C 0.52614 0.6454 0.98085 0.0
C2730 C 0.51467 0.63992 0.95676 0.0
C2731 C 0.50324 0.61663 0.94831 0.0
C2732 C 0.50409 0.59843 0.96467 0.0
C2733 C 0.51657 0.60351 0.98906 0.0
C2734 C 0.52761 0.62735 0.99721 0.0
H2735 H 0.08247 0.72501 0.66144 0.0
H2736 H 0.0739 0.79936 0.67897 0.0
H2737 H 0.10882 0.80505 0.711 0.0
H2738 H 0.10465 0.7154 0.7284 0.0
H2739 H 0.1248 0.69613 0.71722 0.0
H2740 H 0.09684 0.69677 0.69899 0.0
H2741 H 0.11957 0.70736 0.66012 0.0
H2742 H 0.14744 0.7066 0.67813 0.0
H2743 H 0.14297 0.7333 0.66304 0.0
H2744 H 0.14641 0.80375 0.73745 0.0
H2745 H 0.18648 0.79722 0.75322 0.0
H2746 H 0.17168 0.72392 0.71743 0.0
C2747 C 0.08785 0.7423 0.67243 0.0
C2748 C 0.07585 0.76181 0.66808 0.0
C2749 C 0.08308 0.78429 0.68239 0.0
C2750 C 0.10267 0.78757 0.70067 0.0
C2751 C 0.11438 0.76801 0.70454 0.0
C2752 C 0.10723 0.74578 0.69087 0.0
C2753 C 0.12419 0.72841 0.69703 0.0
C2754 C 0.11189 0.70796 0.71125 0.0
C2755 C 0.13414 0.71836 0.67316 0.0
C2756 C 0.14321 0.74505 0.71432 0.0
C2757 C 0.13659 0.76742 0.7194 0.0
C2758 C 0.15162 0.78619 0.73399 0.0
C2759 C 0.17433 0.78226 0.74293 0.0
C2760 C 0.18202 0.75998 0.7366 0.0
C2761 C 0.16606 0.74099 0.72267 0.0
H2762 H 0.05915 0.36361 0.426 0.0
H2763 H 0.99799 0.31815 0.45028 0.0
H2764 H 0.98755 0.35274 0.47488 0.0
H2765 H 0.07497 0.39819 0.48593 0.0
H2766 H 0.08431 0.42644 0.47312 0.0
H2767 H 0.08653 0.3984 0.45547 0.0
H2768 H 0.06036 0.40924 0.41709 0.0
H2769 H 0.05999 0.43772 0.43464 0.0
H2770 H 0.03222 0.41882 0.42223 0.0
H2771 H 0.98397 0.39138 0.49814 0.0
H2772 H 0.98669 0.43337 0.51717 0.0
H2773 H 0.05069 0.45447 0.48004 0.0
C2774 C 0.04334 0.36115 0.43614 0.0
C2775 C 0.02934 0.33811 0.43607 0.0
C2776 C 0.00908 0.33545 0.45 0.0
C2777 C 0.00293 0.35508 0.46411 0.0
C2778 C 0.01738 0.37736 0.46444 0.0
C2779 C 0.03713 0.38065 0.45083 0.0
C2780 C 0.0501 0.40647 0.45554 0.0
C2781 C 0.07548 0.40741 0.46827 0.0
C2782 C 0.05064 0.41879 0.43089 0.0
C2783 C 0.03424 0.4171 0.4735 0.0
C2784 C 0.01557 0.39986 0.47847 0.0
C2785 C 0.99853 0.4051 0.4945 0.0
C2786 C 1.00029 0.42883 0.50539 0.0
C2787 C 0.01901 0.44682 0.50027 0.0
C2788 C 0.0363 0.4409 0.48433 0.0
H2789 H 0.43676 0.22338 0.19044 0.0
H2790 H 0.44071 0.29238 0.15908 0.0
H2791 H 0.40648 0.30124 0.18185 0.0
H2792 H 0.3738 0.20967 0.18196 0.0
H2793 H 0.37072 0.19432 0.21018 0.0
H2794 H 0.39763 0.19513 0.19458 0.0
H2795 H 0.42247 0.21373 0.23628 0.0
H2796 H 0.39548 0.21332 0.25187 0.0
H2797 H 0.41597 0.24119 0.2519 0.0
H2798 H 0.37093 0.30197 0.20619 0.0
H2799 H 0.33218 0.29138 0.22404 0.0
H2800 H 0.34898 0.22064 0.23655 0.0
C2801 C 0.43042 0.24038 0.18862 0.0
C2802 C 0.44119 0.25727 0.17314 0.0
C2803 C 0.43242 0.2792 0.17076 0.0
C2804 C 0.41324 0.2845 0.18386 0.0
C2805 C 0.40285 0.2675 0.19898 0.0
C2806 C 0.41079 0.24565 0.20102 0.0
C2807 C 0.39454 0.22929 0.21582 0.0
C2808 C 0.38351 0.20572 0.19966 0.0
C2809 C 0.40792 0.22408 0.24043 0.0
C2810 C 0.37592 0.2451 0.22111 0.0
C2811 C 0.38151 0.26739 0.212 0.0
C2812 C 0.36646 0.28468 0.21365 0.0
C2813 C 0.34462 0.27865 0.22394 0.0
C2814 C 0.33807 0.25547 0.23197 0.0
C2815 C 0.35406 0.23871 0.23104 0.0
H2816 H 0.63208 0.50684 0.38283 0.0
H2817 H 0.57683 0.51877 0.32624 0.0
H2818 H 0.54867 0.5196 0.35819 0.0
H2819 H 0.59312 0.46783 0.41795 0.0
H2820 H 0.60733 0.47996 0.44867 0.0
H2821 H 0.62438 0.48076 0.42166 0.0
H2822 H 0.63674 0.52705 0.43109 0.0
H2823 H 0.6198 0.52623 0.45819 0.0
H2824 H 0.61394 0.54574 0.43405 0.0
H2825 H 0.52554 0.51796 0.39444 0.0
H2826 H 0.50871 0.51585 0.43525 0.0
H2827 H 0.57751 0.5055 0.47052 0.0
C2828 C 0.61412 0.50979 0.37731 0.0
C2829 C 0.60682 0.51276 0.35187 0.0
C2830 C 0.58307 0.51648 0.34545 0.0
C2831 C 0.56677 0.51696 0.3635 0.0
C2832 C 0.57427 0.51374 0.38816 0.0
C2833 C 0.59733 0.51039 0.39535 0.0
C2834 C 0.60017 0.50737 0.42349 0.0
C2835 C 0.60663 0.48249 0.42821 0.0
C2836 C 0.61877 0.52782 0.43753 0.0
C2837 C 0.57509 0.50936 0.43054 0.0
C2838 C 0.56058 0.51299 0.40972 0.0
C2839 C 0.53668 0.51519 0.411 0.0
C2840 C 0.52725 0.51388 0.43431 0.0
C2841 C 0.54168 0.51047 0.45617 0.0
C2842 C 0.56596 0.50809 0.45417 0.0
H2843 H 0.28301 0.8292 0.0744 0.0
H2844 H 0.24572 0.89031 0.08607 0.0
H2845 H 0.24206 0.88119 0.13041 0.0
H2846 H 0.2464 0.79025 0.10753 0.0
H2847 H 0.27003 0.77536 0.11994 0.0
H2848 H 0.27219 0.78845 0.09039 0.0
H2849 H 0.31292 0.81433 0.10756 0.0
H2850 H 0.311 0.80112 0.13711 0.0
H2851 H 0.31507 0.83347 0.13663 0.0
H2852 H 0.23902 0.86259 0.17171 0.0
H2853 H 0.23847 0.8376 0.20754 0.0
H2854 H 0.27765 0.78872 0.16762 0.0
C2855 C 0.27434 0.84103 0.08622 0.0
C2856 C 0.26457 0.86049 0.07672 0.0
C2857 C 0.25341 0.87538 0.09298 0.0
C2858 C 0.25122 0.8703 0.11812 0.0
C2859 C 0.2604 0.85041 0.12648 0.0
C2860 C 0.27189 0.83616 0.111 0.0
C2861 C 0.2788 0.81488 0.12369 0.0
C2862 C 0.26609 0.79083 0.10955 0.0
C2863 C 0.30607 0.81604 0.12642 0.0
C2864 C 0.26933 0.81925 0.14888 0.0
C2865 C 0.25874 0.83979 0.15013 0.0
C2866 C 0.24751 0.84668 0.17104 0.0
C2867 C 0.24719 0.83226 0.1912 0.0
C2868 C 0.25813 0.81127 0.1903 0.0
C2869 C 0.2694 0.80479 0.1689 0.0
H2870 H 0.935 0.55904 0.86304 0.0
H2871 H 0.89887 0.48498 0.84947 0.0
H2872 H 0.92393 0.47388 0.88542 0.0
H2873 H 0.9924 0.54809 0.87952 0.0
H2874 H 1.00025 0.572 0.90469 0.0
H2875 H 0.97851 0.57474 0.87911 0.0
H2876 H 0.94727 0.58133 0.91063 0.0
H2877 H 0.96914 0.57929 0.93638 0.0
H2878 H 0.9406 0.55973 0.9333 0.0
H2879 H 0.95508 0.47036 0.92008 0.0
H2880 H 0.98616 0.47556 0.95602 0.0
H2881 H 1.00114 0.55233 0.9487 0.0
C2882 C 0.93193 0.54069 0.86828 0.0
C2883 C 0.91489 0.52284 0.85399 0.0
C2884 C 0.91157 0.49888 0.86068 0.0
C2885 C 0.92585 0.49243 0.88086 0.0
C2886 C 0.943 0.51032 0.89424 0.0
C2887 C 0.94565 0.5341 0.88872 0.0
C2888 C 0.96528 0.54982 0.90626 0.0
C2889 C 0.98529 0.56187 0.8915 0.0
C2890 C 0.95495 0.56866 0.92261 0.0
C2891 C 0.97379 0.53105 0.92198 0.0
C2892 C 0.96075 0.50836 0.91458 0.0
C2893 C 0.96534 0.48802 0.92607 0.0
C2894 C 0.98322 0.49106 0.94617 0.0
C2895 C 0.99632 0.51417 0.95446 0.0
C2896 C 0.99165 0.53442 0.94222 0.0
H2897 H 0.27213 0.20076 0.57037 0.0
H2898 H 0.26032 0.12342 0.57601 0.0
H2899 H 0.26133 0.1309 0.62249 0.0
H2900 H 0.31279 0.21691 0.6272 0.0
H2901 H 0.30142 0.24444 0.63492 0.0
H2902 H 0.30046 0.23262 0.60246 0.0
H2903 H 0.25486 0.23291 0.59726 0.0
H2904 H 0.25559 0.24421 0.62986 0.0
H2905 H 0.23588 0.21673 0.61786 0.0
H2906 H 0.26263 0.14695 0.66799 0.0
H2907 H 0.26847 0.17011 0.70984 0.0
H2908 H 0.27867 0.23713 0.67432 0.0
C2909 C 0.26997 0.18534 0.58137 0.0
C2910 C 0.26614 0.16145 0.56958 0.0
C2911 C 0.26354 0.14182 0.58466 0.0
C2912 C 0.26383 0.14593 0.61101 0.0
C2913 C 0.2669 0.16973 0.62188 0.0
C2914 C 0.2703 0.1891 0.60756 0.0
C2915 C 0.27366 0.21294 0.6238 0.0
C2916 C 0.29856 0.22758 0.62199 0.0
C2917 C 0.25381 0.22755 0.61677 0.0
C2918 C 0.27147 0.20399 0.64964 0.0
C2919 C 0.26749 0.179 0.64805 0.0
C2920 C 0.26572 0.16648 0.66944 0.0
C2921 C 0.26899 0.17979 0.69309 0.0
C2922 C 0.27381 0.20535 0.69521 0.0
C2923 C 0.27448 0.21761 0.67318 0.0
H2924 H 0.61389 0.48585 0.21131 0.0
H2925 H 0.60646 0.561 0.22643 0.0
H2926 H 0.58944 0.56159 0.18275 0.0
H2927 H 0.62956 0.49079 0.1453 0.0
H2928 H 0.61286 0.46147 0.13413 0.0
H2929 H 0.62609 0.46717 0.16628 0.0
H2930 H 0.58463 0.45341 0.18186 0.0
H2931 H 0.57121 0.4481 0.14979 0.0
H2932 H 0.55989 0.46809 0.17214 0.0
H2933 H 0.56888 0.55329 0.13967 0.0
H2934 H 0.55198 0.53802 0.09617 0.0
H2935 H 0.57453 0.46912 0.10697 0.0
C2936 C 0.60947 0.50258 0.20506 0.0
C2937 C 0.61169 0.52348 0.22213 0.0
C2938 C 0.60504 0.54488 0.21354 0.0
C2939 C 0.59521 0.54537 0.18883 0.0
C2940 C 0.59228 0.52435 0.1727 0.0
C2941 C 0.59965 0.50345 0.18013 0.0
C2942 C 0.59399 0.48339 0.15876 0.0
C2943 C 0.617 0.47523 0.15063 0.0
C2944 C 0.57639 0.46199 0.16609 0.0
C2945 C 0.58236 0.49638 0.13845 0.0
C2946 C 0.5812 0.51986 0.14711 0.0
C2947 C 0.57007 0.53507 0.13241 0.0
C2948 C 0.56041 0.52625 0.10784 0.0
C2949 C 0.56235 0.50263 0.09818 0.0
C2950 C 0.57327 0.48747 0.11379 0.0
H2951 H 0.24694 0.86948 0.91827 0.0
H2952 H 0.24033 0.81305 0.96943 0.0
H2953 H 0.24293 0.78277 0.93454 0.0
H2954 H 0.21227 0.83261 0.86438 0.0
H2955 H 0.23077 0.84494 0.84126 0.0
H2956 H 0.22764 0.86335 0.86957 0.0
H2957 H 0.27314 0.8719 0.881 0.0
H2958 H 0.27732 0.85442 0.8525 0.0
H2959 H 0.2896 0.84709 0.88254 0.0
H2960 H 0.24791 0.75859 0.89488 0.0
H2961 H 0.25499 0.74226 0.85228 0.0
H2962 H 0.25929 0.8142 0.82714 0.0
C2963 C 0.24568 0.85072 0.92197 0.0
C2964 C 0.24341 0.84364 0.94651 0.0
C2965 C 0.24211 0.81893 0.95074 0.0
C2966 C 0.24353 0.80152 0.93106 0.0
C2967 C 0.24617 0.80903 0.90717 0.0
C2968 C 0.24715 0.83298 0.90245 0.0
C2969 C 0.25077 0.83616 0.87509 0.0
C2970 C 0.22908 0.84479 0.8618 0.0
C2971 C 0.2741 0.85341 0.87265 0.0
C2972 C 0.2523 0.81043 0.86553 0.0
C2973 C 0.24929 0.79502 0.88424 0.0
C2974 C 0.25016 0.77042 0.87994 0.0
C2975 C 0.25419 0.76131 0.85573 0.0
C2976 C 0.25756 0.77686 0.83632 0.0
C2977 C 0.25658 0.80173 0.84145 0.0
H2978 H 0.9135 0.49605 0.70641 0.0
H2979 H 0.9568 0.5616 0.74295 0.0
H2980 H 0.97786 0.56701 0.70451 0.0
H2981 H 0.95935 0.47426 0.67703 0.0
H2982 H 0.94178 0.46164 0.64809 0.0
H2983 H 0.92765 0.46427 0.67693 0.0
H2984 H 0.89802 0.48922 0.65633 0.0
H2985 H 0.91162 0.48605 0.62719 0.0
H2986 H 0.90943 0.51566 0.64133 0.0
H2987 H 0.99644 0.56343 0.66412 0.0
H2988 H 0.00909 0.55286 0.62188 0.0
H2989 H 0.95434 0.48938 0.61157 0.0
C2990 C 0.92683 0.51194 0.70582 0.0
C2991 C 0.93334 0.52878 0.72714 0.0
C2992 C 0.95142 0.5489 0.72641 0.0
C2993 C 0.96351 0.55199 0.7048 0.0
C2994 C 0.95732 0.53465 0.6843 0.0
C2995 C 0.93919 0.51519 0.68441 0.0
C2996 C 0.93706 0.49849 0.66036 0.0
C2997 C 0.94174 0.47317 0.66595 0.0
C2998 C 0.91258 0.4973 0.64542 0.0
C2999 C 0.95698 0.51149 0.64692 0.0
C3000 C 0.96844 0.53229 0.6611 0.0
C3001 C 0.98757 0.54725 0.6528 0.0
C3002 C 0.99474 0.54111 0.62902 0.0
C3003 C 0.98285 0.52028 0.61409 0.0
C3004 C 0.96392 0.50515 0.62311 0.0
H3005 H 0.26865 0.14453 0.40733 0.0
H3006 H 0.25319 0.19732 0.46487 0.0
H3007 H 0.25407 0.22759 0.4343 0.0
H3008 H 0.30924 0.18608 0.37719 0.0
H3009 H 0.29944 0.17298 0.34549 0.0
H3010 H 0.297 0.15441 0.37141 0.0
H3011 H 0.25167 0.14144 0.35876 0.0
H3012 H 0.25408 0.15953 0.33245 0.0
H3013 H 0.23298 0.16423 0.35505 0.0
H3014 H 0.25882 0.25338 0.39857 0.0
H3015 H 0.26293 0.27145 0.35805 0.0
H3016 H 0.27351 0.20232 0.32271 0.0
C3017 C 0.26514 0.16235 0.41334 0.0
C3018 C 0.26086 0.16842 0.43861 0.0
C3019 C 0.25655 0.19207 0.44572 0.0
C3020 C 0.25707 0.20955 0.42848 0.0
C3021 C 0.26186 0.20327 0.40397 0.0
C3022 C 0.26553 0.1802 0.3962 0.0
C3023 C 0.27031 0.17848 0.36858 0.0
C3024 C 0.29549 0.17264 0.3655 0.0
C3025 C 0.2511 0.15982 0.35278 0.0
C3026 C 0.26852 0.20404 0.36224 0.0
C3027 C 0.26399 0.21812 0.38304 0.0
C3028 C 0.26223 0.24251 0.38205 0.0
C3029 C 0.26475 0.25269 0.35902 0.0
C3030 C 0.26854 0.23838 0.33721 0.0
C3031 C 0.2706 0.21378 0.33903 0.0
H3032 H 0.3246 0.58211 0.50349 0.0
H3033 H 0.36101 0.6461 0.54956 0.0
H3034 H 0.39894 0.62959 0.54991 0.0
H3035 H 0.35393 0.53877 0.5302 0.0
H3036 H 0.35622 0.52156 0.50082 0.0
H3037 H 0.33231 0.53878 0.50359 0.0
H3038 H 0.34504 0.56138 0.46516 0.0
H3039 H 0.36903 0.54418 0.46225 0.0
H3040 H 0.37535 0.5767 0.46543 0.0
H3041 H 0.43138 0.60457 0.54841 0.0
H3042 H 0.45755 0.57382 0.54271 0.0
H3043 H 0.40102 0.5275 0.49453 0.0
C3044 C 0.34064 0.59257 0.5136 0.0
C3045 C 0.34013 0.61512 0.5268 0.0
C3046 C 0.3613 0.62872 0.53945 0.0
C3047 C 0.3828 0.61951 0.5397 0.0
C3048 C 0.38275 0.5971 0.52657 0.0
C3049 C 0.36234 0.58399 0.51337 0.0
C3050 C 0.36722 0.56057 0.50048 0.0
C3051 C 0.35149 0.53863 0.50932 0.0
C3052 C 0.36396 0.56072 0.47162 0.0
C3053 C 0.39324 0.56185 0.50974 0.0
C3054 C 0.40189 0.58322 0.52455 0.0
C3055 C 0.42501 0.58805 0.53641 0.0
C3056 C 0.43971 0.57059 0.53303 0.0
C3057 C 0.43128 0.54881 0.51773 0.0
C3058 C 0.40784 0.54431 0.5059 0.0
H3059 H 0.8491 0.91447 0.50291 0.0
H3060 H 0.83959 0.92635 0.58231 0.0
H3061 H 0.87724 0.95591 0.58855 0.0
H3062 H 0.90965 0.9162 0.5063 0.0
H3063 H 0.91517 0.93339 0.47967 0.0
H3064 H 0.8864 0.91534 0.48104 0.0
H3065 H 0.86597 0.95291 0.47602 0.0
H3066 H 0.89477 0.97108 0.47444 0.0
H3067 H 0.87548 0.97961 0.49752 0.0
H3068 H 0.91779 0.98173 0.58649 0.0
H3069 H 0.95745 0.00165 0.57623 0.0
H3070 H 0.94024 0.97274 0.49819 0.0
C3071 C 0.85483 0.92362 0.52151 0.0
C3072 C 0.8416 0.91819 0.54218 0.0
C3073 C 0.84945 0.93049 0.56624 0.0
C3074 C 0.87078 0.94726 0.56992 0.0
C3075 C 0.88367 0.95199 0.54919 0.0
C3076 C 0.87573 0.94084 0.52534 0.0
C3077 C 0.89301 0.94879 0.50628 0.0
C3078 C 0.90157 0.92713 0.49254 0.0
C3079 C 0.88163 0.96399 0.48745 0.0
C3080 C 0.91296 0.96437 0.52348 0.0
C3081 C 0.9069 0.96671 0.54802 0.0
C3082 C 0.92257 0.98022 0.56728 0.0
C3083 C 0.945 0.99149 0.56133 0.0
C3084 C 0.95174 0.98866 0.5365 0.0
C3085 C 0.93545 0.97507 0.51735 0.0
H3086 H 0.83902 0.06345 0.22787 0.0
H3087 H 0.89915 0.08862 0.28394 0.0
H3088 H 0.88201 0.125 0.29536 0.0
H3089 H 0.83462 0.12409 0.20795 0.0
H3090 H 0.80248 0.11799 0.20268 0.0
H3091 H 0.81946 0.09373 0.19863 0.0
H3092 H 0.79499 0.0704 0.23044 0.0
H3093 H 0.77815 0.09472 0.23483 0.0
H3094 H 0.79381 0.08464 0.26165 0.0
H3095 H 0.85716 0.1572 0.30327 0.0
H3096 H 0.82925 0.18655 0.30245 0.0
H3097 H 0.78643 0.14313 0.23913 0.0
C3098 C 0.8487 0.0768 0.24228 0.0
C3099 C 0.87049 0.07309 0.25496 0.0
C3100 C 0.88258 0.09104 0.27374 0.0
C3101 C 0.87289 0.11175 0.28055 0.0
C3102 C 0.85124 0.11467 0.2681 0.0
C3103 C 0.83954 0.09806 0.24893 0.0
C3104 C 0.81692 0.10624 0.23806 0.0
C3105 C 0.81847 0.11078 0.21018 0.0
C3106 C 0.79465 0.0879 0.24146 0.0
C3107 C 0.81759 0.12973 0.25445 0.0
C3108 C 0.83742 0.13403 0.27186 0.0
C3109 C 0.84169 0.15416 0.28954 0.0
C3110 C 0.8256 0.17066 0.28904 0.0
C3111 C 0.8056 0.16722 0.27073 0.0
C3112 C 0.80154 0.14631 0.25335 0.0
H3113 H 0.69105 0.13244 0.99747 0.0
H3114 H 0.72132 0.10065 0.06129 0.0
H3115 H 0.68311 0.07259 0.06173 0.0
H3116 H 0.63362 0.13169 0.01442 0.0
H3117 H 0.61889 0.12299 0.98314 0.0
H3118 H 0.64897 0.13918 0.98713 0.0
H3119 H 0.66282 0.10516 0.95915 0.0
H3120 H 0.63269 0.08884 0.95503 0.0
H3121 H 0.65678 0.07447 0.96722 0.0
H3122 H 0.64026 0.05006 0.05651 0.0
H3123 H 0.59705 0.03471 0.04567 0.0
H3124 H 0.59648 0.08105 0.98454 0.0
C3125 C 0.68955 0.11959 0.01156 0.0
C3126 C 0.70872 0.11886 0.02967 0.0
C3127 C 0.70656 0.10147 0.04743 0.0
C3128 C 0.68505 0.08547 0.04773 0.0
C3129 C 0.66628 0.08679 0.02968 0.0
C3130 C 0.66853 0.10317 0.01168 0.0
C3131 C 0.64588 0.10108 0.99435 0.0
C3132 C 0.63628 0.12517 0.99482 0.0
C3133 C 0.64978 0.09184 0.96735 0.0
C3134 C 0.62993 0.08222 0.0065 0.0
C3135 C 0.64206 0.0737 0.02647 0.0
C3136 C 0.63065 0.05647 0.04078 0.0
C3137 C 0.60616 0.04791 0.03455 0.0
C3138 C 0.59347 0.05694 0.01448 0.0
C3139 C 0.60566 0.07406 0.0002 0.0
H3140 H 0.17658 0.43783 0.29435 0.0
H3141 H 0.16058 0.43658 0.21351 0.0
H3142 H 0.18099 0.40109 0.20701 0.0
H3143 H 0.23569 0.42106 0.29196 0.0
H3144 H 0.23293 0.40276 0.3181 0.0
H3145 H 0.21732 0.42817 0.31656 0.0
H3146 H 0.17714 0.40028 0.31992 0.0
H3147 H 0.19267 0.37488 0.32178 0.0
H3148 H 0.16824 0.37387 0.29784 0.0
H3149 H 0.20149 0.36568 0.20935 0.0
H3150 H 0.22017 0.33081 0.22002 0.0
H3151 H 0.22455 0.35524 0.29965 0.0
C3152 C 0.17744 0.42993 0.27535 0.0
C3153 C 0.1671 0.43952 0.25432 0.0
C3154 C 0.16847 0.42918 0.22968 0.0
C3155 C 0.18006 0.40919 0.22588 0.0
C3156 C 0.19032 0.40016 0.24697 0.0
C3157 C 0.18916 0.41012 0.27123 0.0
C3158 C 0.20147 0.39667 0.29056 0.0
C3159 C 0.22314 0.41315 0.30515 0.0
C3160 C 0.18382 0.38577 0.30858 0.0
C3161 C 0.20924 0.37723 0.27336 0.0
C3162 C 0.20272 0.3798 0.24831 0.0
C3163 C 0.20686 0.36357 0.22884 0.0
C3164 C 0.21746 0.34383 0.23512 0.0
C3165 C 0.22387 0.3405 0.26063 0.0
C3166 C 0.22019 0.35767 0.28 0.0
H3167 H 0.19815 0.4202 0.00778 0.0
H3168 H 0.21074 0.41826 0.08862 0.0
H3169 H 0.17457 0.43666 0.09471 0.0
H3170 H 0.17865 0.47856 0.01128 0.0
H3171 H 0.15655 0.47088 0.98457 0.0
H3172 H 0.18276 0.45657 0.98629 0.0
H3173 H 0.15603 0.41452 0.98125 0.0
H3174 H 0.12974 0.42867 0.9794 0.0
H3175 H 0.13352 0.40777 0.00271 0.0
H3176 H 0.13698 0.4544 0.09202 0.0
H3177 H 0.10062 0.47153 0.08112 0.0
H3178 H 0.11316 0.46495 0.00198 0.0
C3179 C 0.19307 0.42353 0.02669 0.0
C3180 C 0.20692 0.41765 0.04781 0.0
C3181 C 0.20018 0.42258 0.07231 0.0
C3182 C 0.17973 0.43302 0.0759 0.0
C3183 C 0.16649 0.43885 0.05477 0.0
C3184 C 0.17292 0.43446 0.03063 0.0
C3185 C 0.15596 0.44331 0.01132 0.0
C3186 C 0.16928 0.46353 0.99755 0.0
C3187 C 0.14305 0.42231 0.99257 0.0
C3188 C 0.13882 0.45302 0.02834 0.0
C3189 C 0.14526 0.45014 0.05331 0.0
C3190 C 0.13189 0.45694 0.07256 0.0
C3191 C 0.11127 0.46671 0.06617 0.0
C3192 C 0.10423 0.46991 0.04074 0.0
C3193 C 0.11838 0.4632 0.02161 0.0
H3194 H 0.87399 0.92066 0.28937 0.0
H3195 H 0.83816 0.94828 0.22583 0.0
H3196 H 0.80738 0.91135 0.22086 0.0
H3197 H 0.86623 0.8601 0.26595 0.0
H3198 H 0.86077 0.84824 0.2957 0.0
H3199 H 0.87866 0.87746 0.29514 0.0
H3200 H 0.85058 0.89666 0.32373 0.0
H3201 H 0.83263 0.86742 0.32448 0.0
H3202 H 0.81898 0.89222 0.31422 0.0
H3203 H 0.78142 0.86969 0.22203 0.0
H3204 H 0.7632 0.82808 0.22918 0.0
H3205 H 0.81694 0.82846 0.2916 0.0
C3206 C 0.85959 0.91906 0.27448 0.0
C3207 C 0.85855 0.93734 0.25791 0.0
C3208 C 0.83925 0.9346 0.23884 0.0
C3209 C 0.82173 0.91365 0.23587 0.0
C3210 C 0.82355 0.8958 0.25236 0.0
C3211 C 0.84191 0.8985 0.27145 0.0
C3212 C 0.84021 0.87673 0.28655 0.0
C3213 C 0.86281 0.86494 0.28576 0.0
C3214 C 0.83531 0.88367 0.31386 0.0
C3215 C 0.8187 0.86073 0.27226 0.0
C3216 C 0.80897 0.87214 0.2529 0.0
C3217 C 0.78889 0.86072 0.23723 0.0
C3218 C 0.77863 0.8371 0.24144 0.0
C3219 C 0.78871 0.82498 0.26085 0.0
C3220 C 0.80893 0.83714 0.27646 0.0
H3221 H 0.66427 0.07671 0.74679 0.0
H3222 H 0.66991 0.06852 0.8269 0.0
H3223 H 0.69821 0.10696 0.83467 0.0
H3224 H 0.72824 0.10916 0.74482 0.0
H3225 H 0.71882 0.12857 0.72206 0.0
H3226 H 0.70309 0.09815 0.72192 0.0
H3227 H 0.66338 0.11458 0.72566 0.0
H3228 H 0.67894 0.14493 0.72583 0.0
H3229 H 0.66127 0.13674 0.75132 0.0
H3230 H 0.71952 0.14797 0.83489 0.0
H3231 H 0.7322 0.19043 0.82789 0.0
H3232 H 0.714 0.17376 0.74752 0.0
C3233 C 0.67215 0.08282 0.7658 0.0
C3234 C 0.66541 0.06981 0.78634 0.0
C3235 C 0.67526 0.07832 0.81107 0.0
C3236 C 0.69138 0.09998 0.81557 0.0
C3237 C 0.69742 0.11277 0.79506 0.0
C3238 C 0.68824 0.10456 0.7706 0.0
C3239 C 0.69547 0.12329 0.75246 0.0
C3240 C 0.71242 0.11425 0.73424 0.0
C3241 C 0.67345 0.1303 0.73799 0.0
C3242 C 0.70856 0.14394 0.77085 0.0
C3243 C 0.71007 0.13707 0.79518 0.0
C3244 C 0.71915 0.15338 0.81589 0.0
C3245 C 0.7264 0.17745 0.81176 0.0
C3246 C 0.72474 0.18503 0.7872 0.0
C3247 C 0.71611 0.16808 0.76636 0.0
loop_
_geom_bond_atom_site_label_1
_geom_bond_atom_site_label_2
_geom_bond_distance
_geom_bond_site_symmetry_2
_ccdc_geom_bond_type
Co0 O1 2.216 . S
Co0 O2 2.091 . S
Co0 O4 2.004 1_455 S
Co0 O10 2.021 . S
Co0 O12 2.137 . S
Co0 O13 2.244 . S
O1 Co0 2.216 . S
O1 C8 1.247 . S
O2 Co0 2.091 . S
O2 C8 1.261 . S
C3 O12 1.247 . S
C3 O13 1.272 . S
O4 Co0 2.004 1_655 S
O4 C9 1.259 . S
Co5 O6 2.061 . S
Co5 O11 2.052 1_655 S
Co5 O13 2.135 1_655 S
O6 Co5 2.061 . S
O6 C9 1.235 . S
C7 O10 1.238 . S
C7 O11 1.241 . S
C8 O1 1.247 . S
C8 O2 1.261 . S
C9 O4 1.259 . S
C9 O6 1.235 . S
O10 Co0 2.021 . S
O10 C7 1.238 . S
O11 Co5 2.052 1_455 S
O11 C7 1.241 . S
O12 Co0 2.137 . S
O12 C3 1.247 . S
O13 Co0 2.244 . S
O13 C3 1.272 . S
O13 Co5 2.135 1_455 S
Co14 O15 2.216 1_455 S
Co14 O16 2.091 1_455 S
Co14 O18 2.004 . S
Co14 O24 2.021 . S
Co14 O26 2.137 . S
Co14 O27 2.244 . S
O15 Co14 2.216 1_655 S
O15 C22 1.247 . S
O16 Co14 2.091 1_655 S
O16 C22 1.261 . S
C17 O26 1.247 . S
C17 O27 1.272 . S
O18 Co14 2.004 . S
O18 C23 1.259 . S
Co19 O20 2.061 . S
Co19 O25 2.052 . S
Co19 O27 2.135 . S
O20 Co19 2.061 . S
O20 C23 1.235 . S
C21 O24 1.238 . S
C21 O25 1.241 . S
C22 O15 1.247 . S
C22 O16 1.261 . S
C23 O18 1.259 . S
C23 O20 1.235 . S
O24 Co14 2.021 . S
O24 C21 1.238 . S
O25 Co19 2.052 . S
O25 C21 1.241 . S
O26 Co14 2.137 . S
O26 C17 1.247 . S
O27 Co14 2.244 . S
O27 C17 1.272 . S
O27 Co19 2.135 . S
Co28 O29 2.216 . S
Co28 O30 2.091 . S
Co28 O32 2.004 . S
Co28 O38 2.021 . S
Co28 O40 2.137 . S
Co28 O41 2.244 . S
O29 Co28 2.216 . S
O29 C36 1.247 . S
O30 Co28 2.091 . S
O30 C36 1.261 . S
C31 O40 1.247 . S
C31 O41 1.272 . S
O32 Co28 2.004 . S
O32 C37 1.259 . S
Co33 O34 2.061 . S
Co33 O39 2.052 . S
Co33 O41 2.135 . S
O34 Co33 2.061 . S
O34 C37 1.235 . S
C35 O38 1.238 . S
C35 O39 1.241 . S
C36 O29 1.247 . S
C36 O30 1.261 . S
C37 O32 1.259 . S
C37 O34 1.235 . S
O38 Co28 2.021 . S
O38 C35 1.238 . S
O39 Co33 2.052 . S
O39 C35 1.241 . S
O40 Co28 2.137 . S
O40 C31 1.247 . S
O41 Co28 2.244 . S
O41 C31 1.272 . S
O41 Co33 2.135 . S
Co42 O43 2.216 . S
Co42 O44 2.091 . S
Co42 O46 2.004 . S
Co42 O52 2.021 . S
Co42 O54 2.137 . S
Co42 O55 2.244 . S
O43 Co42 2.216 . S
O43 C50 1.247 . S
O44 Co42 2.091 . S
O44 C50 1.261 . S
C45 O54 1.247 . S
C45 O55 1.272 . S
O46 Co42 2.004 . S
O46 C51 1.259 . S
Co47 O48 2.061 . S
Co47 O53 2.052 . S
Co47 O55 2.135 . S
O48 Co47 2.061 . S
O48 C51 1.235 . S
C49 O52 1.238 . S
C49 O53 1.241 . S
C50 O43 1.247 . S
C50 O44 1.261 . S
C51 O46 1.259 . S
C51 O48 1.235 . S
O52 Co42 2.021 . S
O52 C49 1.238 . S
O53 Co47 2.052 . S
O53 C49 1.241 . S
O54 Co42 2.137 . S
O54 C45 1.247 . S
O55 Co42 2.244 . S
O55 C45 1.272 . S
O55 Co47 2.135 . S
Co56 O57 2.216 1_455 S
Co56 O58 2.091 . S
Co56 O60 2.004 . S
Co56 O66 2.021 . S
Co56 O68 2.137 . S
Co56 O69 2.244 . S
O57 Co56 2.216 1_655 S
O57 C64 1.247 . S
O58 Co56 2.091 . S
O58 C64 1.261 1_455 S
C59 O68 1.247 . S
C59 O69 1.272 . S
O60 Co56 2.004 . S
O60 C65 1.259 . S
Co61 O62 2.061 . S
Co61 O67 2.052 . S
Co61 O69 2.135 . S
O62 Co61 2.061 . S
O62 C65 1.235 . S
C63 O66 1.238 . S
C63 O67 1.241 . S
C64 O57 1.247 . S
C64 O58 1.261 1_655 S
C65 O60 1.259 . S
C65 O62 1.235 . S
O66 Co56 2.021 . S
O66 C63 1.238 . S
O67 Co61 2.052 . S
O67 C63 1.241 . S
O68 Co56 2.137 . S
O68 C59 1.247 . S
O69 Co56 2.244 . S
O69 C59 1.272 . S
O69 Co61 2.135 . S
Co70 O71 2.216 . S
Co70 O72 2.091 . S
Co70 O74 2.004 . S
Co70 O80 2.021 . S
Co70 O82 2.137 . S
Co70 O83 2.244 . S
O71 Co70 2.216 . S
O71 C78 1.247 . S
O72 Co70 2.091 . S
O72 C78 1.261 . S
C73 O82 1.247 . S
C73 O83 1.272 . S
O74 Co70 2.004 . S
O74 C79 1.259 . S
Co75 O76 2.061 . S
Co75 O81 2.052 . S
Co75 O83 2.135 . S
O76 Co75 2.061 . S
O76 C79 1.235 . S
C77 O80 1.238 . S
C77 O81 1.241 . S
C78 O71 1.247 . S
C78 O72 1.261 . S
C79 O74 1.259 . S
C79 O76 1.235 . S
O80 Co70 2.021 . S
O80 C77 1.238 . S
O81 Co75 2.052 . S
O81 C77 1.241 . S
O82 Co70 2.137 . S
O82 C73 1.247 . S
O83 Co70 2.244 . S
O83 C73 1.272 . S
O83 Co75 2.135 . S
Co84 O85 2.216 . S
Co84 O86 2.091 . S
Co84 O88 2.004 . S
Co84 O94 2.021 . S
Co84 O96 2.137 . S
Co84 O97 2.244 . S
O85 Co84 2.216 . S
O85 C92 1.247 . S
O86 Co84 2.091 . S
O86 C92 1.261 . S
C87 O96 1.247 . S
C87 O97 1.272 . S
O88 Co84 2.004 . S
O88 C93 1.259 . S
Co89 O90 2.061 . S
Co89 O95 2.052 . S
Co89 O97 2.135 . S
O90 Co89 2.061 . S
O90 C93 1.235 . S
C91 O94 1.238 . S
C91 O95 1.241 . S
C92 O85 1.247 . S
C92 O86 1.261 . S
C93 O88 1.259 . S
C93 O90 1.235 . S
O94 Co84 2.021 . S
O94 C91 1.238 . S
O95 Co89 2.052 . S
O95 C91 1.241 . S
O96 Co84 2.137 . S
O96 C87 1.247 . S
O97 Co84 2.244 . S
O97 C87 1.272 . S
O97 Co89 2.135 . S
Co98 O99 2.216 . S
Co98 O100 2.091 . S
Co98 O102 2.004 1_455 S
Co98 O108 2.021 . S
Co98 O110 2.137 . S
Co98 O111 2.244 1_455 S
O99 Co98 2.216 . S
O99 C106 1.247 . S
O100 Co98 2.091 . S
O100 C106 1.261 . S
C101 O110 1.247 . S
C101 O111 1.272 1_455 S
O102 Co98 2.004 1_655 S
O102 C107 1.259 . S
Co103 O104 2.061 . S
Co103 O109 2.052 . S
Co103 O111 2.135 . S
O104 Co103 2.061 . S
O104 C107 1.235 . S
C105 O108 1.236 1_655 S
C105 O109 1.241 . S
C106 O99 1.247 . S
C106 O100 1.261 . S
C107 O102 1.259 . S
C107 O104 1.235 . S
O108 Co98 2.021 . S
O108 C105 1.236 1_455 S
O109 Co103 2.052 . S
O109 C105 1.241 . S
O110 Co98 2.137 . S
O110 C101 1.247 . S
O111 Co98 2.244 1_655 S
O111 C101 1.272 1_655 S
O111 Co103 2.135 . S
Co112 O113 2.216 . S
Co112 O114 2.091 . S
Co112 O116 2.004 1_545 S
Co112 O122 2.021 . S
Co112 O124 2.137 . S
Co112 O125 2.244 . S
O113 Co112 2.216 . S
O113 C120 1.247 . S
O114 Co112 2.091 . S
O114 C120 1.261 . S
C115 O124 1.247 . S
C115 O125 1.272 . S
O116 Co112 2.004 1_565 S
O116 C121 1.259 . S
Co117 O118 2.061 . S
Co117 O123 2.052 1_565 S
Co117 O125 2.135 1_565 S
O118 Co117 2.061 . S
O118 C121 1.235 . S
C119 O122 1.238 . S
C119 O123 1.241 . S
C120 O113 1.247 . S
C120 O114 1.261 . S
C121 O116 1.259 . S
C121 O118 1.235 . S
O122 Co112 2.021 . S
O122 C119 1.238 . S
O123 Co117 2.052 1_545 S
O123 C119 1.241 . S
O124 Co112 2.137 . S
O124 C115 1.247 . S
O125 Co112 2.244 . S
O125 C115 1.272 . S
O125 Co117 2.135 1_545 S
Co126 O127 2.216 . S
Co126 O128 2.091 . S
Co126 O130 2.004 . S
Co126 O136 2.021 . S
Co126 O138 2.137 . S
Co126 O139 2.244 . S
O127 Co126 2.216 . S
O127 C134 1.247 . S
O128 Co126 2.091 . S
O128 C134 1.261 . S
C129 O138 1.247 . S
C129 O139 1.272 . S
O130 Co126 2.004 . S
O130 C135 1.259 . S
Co131 O132 2.061 . S
Co131 O137 2.052 . S
Co131 O139 2.135 . S
O132 Co131 2.061 . S
O132 C135 1.235 . S
C133 O136 1.238 . S
C133 O137 1.241 . S
C134 O127 1.247 . S
C134 O128 1.261 . S
C135 O130 1.259 . S
C135 O132 1.235 . S
O136 Co126 2.021 . S
O136 C133 1.238 . S
O137 Co131 2.052 . S
O137 C133 1.241 . S
O138 Co126 2.137 . S
O138 C129 1.247 . S
O139 Co126 2.244 . S
O139 C129 1.272 . S
O139 Co131 2.135 . S
Co140 O141 2.216 1_545 S
Co140 O142 2.091 1_545 S
Co140 O144 2.004 . S
Co140 O150 2.021 . S
Co140 O152 2.137 . S
Co140 O153 2.244 . S
O141 Co140 2.216 1_565 S
O141 C148 1.247 . S
O142 Co140 2.091 1_565 S
O142 C148 1.261 . S
C143 O152 1.247 . S
C143 O153 1.272 . S
O144 Co140 2.004 . S
O144 C149 1.259 . S
Co145 O146 2.061 . S
Co145 O151 2.052 . S
Co145 O153 2.135 . S
O146 Co145 2.061 . S
O146 C149 1.235 . S
C147 O150 1.238 . S
C147 O151 1.241 . S
C148 O141 1.247 . S
C148 O142 1.261 . S
C149 O144 1.259 . S
C149 O146 1.235 . S
O150 Co140 2.021 . S
O150 C147 1.238 . S
O151 Co145 2.052 . S
O151 C147 1.241 . S
O152 Co140 2.137 . S
O152 C143 1.247 . S
O153 Co140 2.244 . S
O153 C143 1.272 . S
O153 Co145 2.135 . S
Co154 O155 2.216 . S
Co154 O156 2.091 . S
Co154 O158 2.004 . S
Co154 O164 2.021 . S
Co154 O166 2.137 1_554 S
Co154 O167 2.244 1_554 S
O155 Co154 2.216 . S
O155 C162 1.247 . S
O156 Co154 2.091 . S
O156 C162 1.261 . S
C157 O166 1.247 . S
C157 O167 1.272 . S
O158 Co154 2.004 . S
O158 C163 1.259 . S
Co159 O160 2.061 . S
Co159 O165 2.052 . S
Co159 O167 2.135 1_554 S
O160 Co159 2.061 . S
O160 C163 1.235 . S
C161 O164 1.238 . S
C161 O165 1.241 . S
C162 O155 1.247 . S
C162 O156 1.261 . S
C163 O158 1.259 . S
C163 O160 1.235 . S
O164 Co154 2.021 . S
O164 C161 1.238 . S
O165 Co159 2.052 . S
O165 C161 1.241 . S
O166 Co154 2.137 1_556 S
O166 C157 1.247 . S
O167 Co154 2.244 1_556 S
O167 C157 1.272 . S
O167 Co159 2.135 1_556 S
Co168 O169 2.216 . S
Co168 O170 2.091 . S
Co168 O172 2.004 . S
Co168 O178 2.021 . S
Co168 O180 2.137 . S
Co168 O181 2.244 . S
O169 Co168 2.216 . S
O169 C176 1.247 . S
O170 Co168 2.091 . S
O170 C176 1.261 . S
C171 O180 1.246 . S
C171 O181 1.307 . S
O172 Co168 2.004 . S
O172 C177 1.259 . S
Co173 O174 2.061 . S
Co173 O179 2.052 . S
Co173 O181 2.135 . S
O174 Co173 2.061 . S
O174 C177 1.235 . S
C175 O178 1.238 . S
C175 O179 1.241 . S
C176 O169 1.247 . S
C176 O170 1.261 . S
C177 O172 1.259 . S
C177 O174 1.235 . S
O178 Co168 2.021 . S
O178 C175 1.238 . S
O179 Co173 2.052 . S
O179 C175 1.241 . S
O180 Co168 2.137 . S
O180 C171 1.246 . S
O181 Co168 2.244 . S
O181 C171 1.307 . S
O181 Co173 2.135 . S
Co182 O183 2.216 . S
Co182 O184 2.091 . S
Co182 O186 2.004 . S
Co182 O192 2.021 . S
Co182 O194 2.137 1_554 S
Co182 O195 2.244 . S
O183 Co182 2.216 . S
O183 C190 1.247 . S
O184 Co182 2.091 . S
O184 C190 1.261 . S
C185 O194 1.247 . S
C185 O195 1.272 1_556 S
O186 Co182 2.004 . S
O186 C191 1.259 . S
Co187 O188 2.061 . S
Co187 O193 2.052 . S
Co187 O195 2.135 . S
O188 Co187 2.061 . S
O188 C191 1.235 . S
C189 O192 1.238 . S
C189 O193 1.241 . S
C190 O183 1.247 . S
C190 O184 1.261 . S
C191 O186 1.259 . S
C191 O188 1.235 . S
O192 Co182 2.021 . S
O192 C189 1.238 . S
O193 Co187 2.052 . S
O193 C189 1.241 . S
O194 Co182 2.137 1_556 S
O194 C185 1.247 . S
O195 Co182 2.244 . S
O195 C185 1.272 1_554 S
O195 Co187 2.135 . S
Co196 O197 2.216 . S
Co196 O198 2.091 . S
Co196 O200 2.004 . S
Co196 O206 2.021 . S
Co196 O208 2.137 . S
Co196 O209 2.244 . S
O197 Co196 2.216 . S
O197 C204 1.247 . S
O198 Co196 2.091 . S
O198 C204 1.261 . S
C199 O208 1.247 . S
C199 O209 1.272 . S
O200 Co196 2.004 . S
O200 C205 1.259 . S
Co201 O202 2.061 . S
Co201 O207 2.052 . S
Co201 O209 2.135 . S
O202 Co201 2.061 . S
O202 C205 1.235 . S
C203 O206 1.238 . S
C203 O207 1.241 . S
C204 O197 1.247 . S
C204 O198 1.261 . S
C205 O200 1.259 . S
C205 O202 1.235 . S
O206 Co196 2.021 . S
O206 C203 1.238 . S
O207 Co201 2.052 . S
O207 C203 1.241 . S
O208 Co196 2.137 . S
O208 C199 1.247 . S
O209 Co196 2.244 . S
O209 C199 1.272 . S
O209 Co201 2.135 . S
Co210 O211 2.216 . S
Co210 O212 2.091 . S
Co210 O214 2.004 . S
Co210 O220 2.021 . S
Co210 O222 2.137 . S
Co210 O223 2.244 . S
O211 Co210 2.216 . S
O211 C218 1.247 . S
O212 Co210 2.091 . S
O212 C218 1.261 . S
C213 O222 1.247 . S
C213 O223 1.272 . S
O214 Co210 2.004 . S
O214 C219 1.259 . S
Co215 O216 2.061 . S
Co215 O221 2.052 . S
Co215 O223 2.135 . S
O216 Co215 2.061 . S
O216 C219 1.235 . S
C217 O220 1.238 . S
C217 O221 1.241 . S
C218 O211 1.247 . S
C218 O212 1.261 . S
C219 O214 1.259 . S
C219 O216 1.235 . S
O220 Co210 2.021 . S
O220 C217 1.238 . S
O221 Co215 2.052 . S
O221 C217 1.241 . S
O222 Co210 2.137 . S
O222 C213 1.247 . S
O223 Co210 2.244 . S
O223 C213 1.272 . S
O223 Co215 2.135 . S
Co224 O225 2.216 . S
Co224 O226 2.091 . S
Co224 O228 2.004 1_545 S
Co224 O234 2.021 . S
Co224 O236 2.137 . S
Co224 O237 2.244 . S
O225 Co224 2.216 . S
O225 C232 1.247 . S
O226 Co224 2.091 . S
O226 C232 1.261 . S
C227 O236 1.247 . S
C227 O237 1.272 . S
O228 Co224 2.004 1_565 S
O228 C233 1.259 . S
Co229 O230 2.061 . S
Co229 O235 2.052 . S
Co229 O237 2.135 1_565 S
O230 Co229 2.061 . S
O230 C233 1.235 . S
C231 O234 1.238 . S
C231 O235 1.241 1_545 S
C232 O225 1.247 . S
C232 O226 1.261 . S
C233 O228 1.259 . S
C233 O230 1.235 . S
O234 Co224 2.021 . S
O234 C231 1.238 . S
O235 Co229 2.052 . S
O235 C231 1.241 1_565 S
O236 Co224 2.137 . S
O236 C227 1.247 . S
O237 Co224 2.244 . S
O237 C227 1.272 . S
O237 Co229 2.135 1_545 S
Co238 O239 2.216 . S
Co238 O240 2.091 . S
Co238 O242 2.004 . S
Co238 O248 2.021 . S
Co238 O250 2.137 . S
Co238 O251 2.244 . S
O239 Co238 2.216 . S
O239 C246 1.247 . S
O240 Co238 2.091 . S
O240 C246 1.261 . S
C241 O250 1.247 . S
C241 O251 1.272 . S
O242 Co238 2.004 . S
O242 C247 1.259 . S
Co243 O244 2.061 . S
Co243 O249 2.052 . S
Co243 O251 2.135 . S
O244 Co243 2.061 . S
O244 C247 1.235 . S
C245 O248 1.238 . S
C245 O249 1.241 . S
C246 O239 1.247 . S
C246 O240 1.261 . S
C247 O242 1.259 . S
C247 O244 1.235 . S
O248 Co238 2.021 . S
O248 C245 1.238 . S
O249 Co243 2.052 . S
O249 C245 1.241 . S
O250 Co238 2.137 . S
O250 C241 1.247 . S
O251 Co238 2.244 . S
O251 C241 1.272 . S
O251 Co243 2.135 . S
Co252 O253 2.216 . S
Co252 O254 2.091 . S
Co252 O256 2.004 . S
Co252 O262 2.021 . S
Co252 O264 2.137 . S
Co252 O265 2.244 . S
O253 Co252 2.216 . S
O253 C260 1.247 . S
O254 Co252 2.091 . S
O254 C260 1.261 . S
C255 O264 1.247 . S
C255 O265 1.272 . S
O256 Co252 2.004 . S
O256 C261 1.259 . S
Co257 O258 2.061 . S
Co257 O263 2.052 . S
Co257 O265 2.135 . S
O258 Co257 2.061 . S
O258 C261 1.235 . S
C259 O262 1.238 . S
C259 O263 1.241 . S
C260 O253 1.247 . S
C260 O254 1.261 . S
C261 O256 1.259 . S
C261 O258 1.235 . S
O262 Co252 2.021 . S
O262 C259 1.238 . S
O263 Co257 2.052 . S
O263 C259 1.241 . S
O264 Co252 2.137 . S
O264 C255 1.247 . S
O265 Co252 2.244 . S
O265 C255 1.272 . S
O265 Co257 2.135 . S
Co266 O267 2.216 . S
Co266 O268 2.091 . S
Co266 O270 2.004 1_565 S
Co266 O276 2.021 . S
Co266 O278 2.137 . S
Co266 O279 2.244 1_565 S
O267 Co266 2.216 . S
O267 C274 1.247 . S
O268 Co266 2.091 . S
O268 C274 1.261 . S
C269 O278 1.234 1_545 S
C269 O279 1.283 . S
O270 Co266 2.004 1_545 S
O270 C275 1.259 . S
Co271 O272 2.061 . S
Co271 O277 2.052 . S
Co271 O279 2.135 . S
O272 Co271 2.061 . S
O272 C275 1.235 . S
C273 O276 1.237 . S
C273 O277 1.242 1_565 S
C274 O267 1.247 . S
C274 O268 1.261 . S
C275 O270 1.259 . S
C275 O272 1.235 . S
O276 Co266 2.021 . S
O276 C273 1.237 . S
O277 Co271 2.052 . S
O277 C273 1.242 1_545 S
O278 Co266 2.137 . S
O278 C269 1.234 1_565 S
O279 Co266 2.244 1_545 S
O279 C269 1.283 . S
O279 Co271 2.135 . S
Co280 O281 2.216 . S
Co280 O282 2.093 . S
Co280 O284 2.004 . S
Co280 O290 2.021 1_556 S
Co280 O292 2.137 . S
Co280 O293 2.244 . S
O281 Co280 2.216 . S
O281 C288 1.242 1_556 S
O282 Co280 2.093 . S
O282 C288 1.267 1_556 S
C283 O292 1.247 . S
C283 O293 1.272 . S
O284 Co280 2.004 . S
O284 C289 1.259 . S
Co285 O286 2.065 1_554 S
Co285 O291 2.060 . S
Co285 O293 2.129 1_554 S
O286 Co285 2.065 1_556 S
O286 C289 1.237 . S
C287 O290 1.238 . S
C287 O291 1.241 . S
C288 O281 1.242 1_554 S
C288 O282 1.267 1_554 S
C289 O284 1.259 . S
C289 O286 1.237 . S
O290 Co280 2.021 1_554 S
O290 C287 1.238 . S
O291 Co285 2.060 . S
O291 C287 1.241 . S
O292 Co280 2.137 . S
O292 C283 1.247 . S
O293 Co280 2.244 . S
O293 C283 1.272 . S
O293 Co285 2.129 1_556 S
Co294 O295 2.216 . S
Co294 O296 2.091 . S
Co294 O298 2.004 . S
Co294 O304 2.021 . S
Co294 O306 2.137 . S
Co294 O307 2.244 . S
O295 Co294 2.216 . S
O295 C302 1.247 . S
O296 Co294 2.091 . S
O296 C302 1.261 . S
C297 O306 1.247 . S
C297 O307 1.272 . S
O298 Co294 2.004 . S
O298 C303 1.259 . S
Co299 O300 2.061 . S
Co299 O305 2.052 . S
Co299 O307 2.135 . S
O300 Co299 2.061 . S
O300 C303 1.235 . S
C301 O304 1.238 . S
C301 O305 1.241 . S
C302 O295 1.247 . S
C302 O296 1.261 . S
C303 O298 1.259 . S
C303 O300 1.235 . S
O304 Co294 2.021 . S
O304 C301 1.238 . S
O305 Co299 2.052 . S
O305 C301 1.241 . S
O306 Co294 2.137 . S
O306 C297 1.247 . S
O307 Co294 2.244 . S
O307 C297 1.272 . S
O307 Co299 2.135 . S
Co308 O309 2.216 . S
Co308 O310 2.091 . S
Co308 O312 2.004 . S
Co308 O318 2.021 . S
Co308 O320 2.137 . S
Co308 O321 2.244 . S
O309 Co308 2.216 . S
O309 C316 1.247 . S
O310 Co308 2.091 . S
O310 C316 1.261 . S
C311 O320 1.247 . S
C311 O321 1.272 . S
O312 Co308 2.004 . S
O312 C317 1.259 . S
Co313 O314 2.061 . S
Co313 O319 2.052 . S
Co313 O321 2.135 . S
O314 Co313 2.061 . S
O314 C317 1.235 . S
C315 O318 1.238 . S
C315 O319 1.241 . S
C316 O309 1.247 . S
C316 O310 1.261 . S
C317 O312 1.259 . S
C317 O314 1.235 . S
O318 Co308 2.021 . S
O318 C315 1.238 . S
O319 Co313 2.052 . S
O319 C315 1.241 . S
O320 Co308 2.137 . S
O320 C311 1.247 . S
O321 Co308 2.244 . S
O321 C311 1.272 . S
O321 Co313 2.135 . S
Co322 O323 2.216 . S
Co322 O324 2.091 . S
Co322 O326 2.004 . S
Co322 O332 2.021 . S
Co322 O334 2.137 . S
Co322 O335 2.244 . S
O323 Co322 2.216 . S
O323 C330 1.247 . S
O324 Co322 2.091 . S
O324 C330 1.261 . S
C325 O334 1.247 . S
C325 O335 1.272 . S
O326 Co322 2.004 . S
O326 C331 1.259 . S
Co327 O328 2.061 . S
Co327 O333 2.052 . S
Co327 O335 2.135 . S
O328 Co327 2.061 . S
O328 C331 1.235 . S
C329 O332 1.238 . S
C329 O333 1.241 . S
C330 O323 1.247 . S
C330 O324 1.261 . S
C331 O326 1.259 . S
C331 O328 1.235 . S
O332 Co322 2.021 . S
O332 C329 1.238 . S
O333 Co327 2.052 . S
O333 C329 1.241 . S
O334 Co322 2.137 . S
O334 C325 1.247 . S
O335 Co322 2.244 . S
O335 C325 1.272 . S
O335 Co327 2.135 . S
Zn336 O342 1.969 . S
Zn336 O343 1.965 1_565 S
Zn336 O347 2.024 . S
Zn336 O352 1.969 1_565 S
Zn337 O344 1.969 1_654 S
Zn337 O350 1.969 1_554 S
Zn337 O351 1.965 . S
Zn337 O353 2.024 1_655 S
C338 O339 1.229 . S
C338 O347 1.058 . S
O339 C338 1.229 . S
C340 O341 1.229 1_454 S
C340 O353 1.058 . S
O341 C340 1.229 1_656 S
O342 Zn336 1.969 . S
O342 C345 1.267 . S
O343 Zn336 1.965 1_545 S
O343 C354 1.260 1_554 S
O344 Zn337 1.969 1_456 S
O344 C354 1.258 . S
C345 O342 1.267 . S
C345 O346 1.228 . S
O346 C345 1.228 . S
O347 Zn336 2.024 . S
O347 C338 1.058 . S
C348 O349 1.228 . S
C348 O350 1.267 1_554 S
O349 C348 1.228 . S
O350 Zn337 1.969 1_556 S
O350 C348 1.267 1_556 S
O351 Zn337 1.965 . S
O351 C355 1.260 1_655 S
O352 Zn336 1.969 1_545 S
O352 C355 1.258 . S
O353 Zn337 2.024 1_455 S
O353 C340 1.058 . S
C354 O343 1.260 1_556 S
C354 O344 1.258 . S
C355 O351 1.260 1_455 S
C355 O352 1.258 . S
Zn356 O362 1.969 . S
Zn356 O363 1.965 . S
Zn356 O367 2.024 . S
Zn356 O372 1.969 . S
Zn357 O364 1.969 . S
Zn357 O370 1.969 . S
Zn357 O371 1.965 . S
Zn357 O373 2.024 . S
C358 O359 1.229 . S
C358 O367 1.058 . S
O359 C358 1.229 . S
C360 O361 1.229 . S
C360 O373 1.058 . S
O361 C360 1.229 . S
O362 Zn356 1.969 . S
O362 C365 1.267 . S
O363 Zn356 1.965 . S
O363 C374 1.260 . S
O364 Zn357 1.969 . S
O364 C374 1.258 . S
C365 O362 1.267 . S
C365 O366 1.228 . S
O366 C365 1.228 . S
O367 Zn356 2.024 . S
O367 C358 1.058 . S
C368 O369 1.228 . S
C368 O370 1.267 . S
O369 C368 1.228 . S
O370 Zn357 1.969 . S
O370 C368 1.267 . S
O371 Zn357 1.965 . S
O371 C375 1.260 . S
O372 Zn356 1.969 . S
O372 C375 1.258 . S
O373 Zn357 2.024 . S
O373 C360 1.058 . S
C374 O363 1.260 . S
C374 O364 1.258 . S
C375 O371 1.260 . S
C375 O372 1.258 . S
Zn376 O382 1.969 . S
Zn376 O383 1.965 . S
Zn376 O387 2.024 . S
Zn376 O392 1.969 . S
Zn377 O384 1.969 . S
Zn377 O390 1.969 . S
Zn377 O391 1.965 1_565 S
Zn377 O393 2.024 . S
C378 O379 1.229 . S
C378 O387 1.058 . S
O379 C378 1.229 . S
C380 O381 1.229 . S
C380 O393 1.058 . S
O381 C380 1.229 . S
O382 Zn376 1.969 . S
O382 C385 1.267 . S
O383 Zn376 1.965 . S
O383 C394 1.260 . S
O384 Zn377 1.969 . S
O384 C394 1.258 1_565 S
C385 O382 1.267 . S
C385 O386 1.228 . S
O386 C385 1.228 . S
O387 Zn376 2.024 . S
O387 C378 1.058 . S
C388 O389 1.228 . S
C388 O390 1.267 . S
O389 C388 1.228 . S
O390 Zn377 1.969 . S
O390 C388 1.267 . S
O391 Zn377 1.965 1_545 S
O391 C395 1.260 . S
O392 Zn376 1.969 . S
O392 C395 1.258 . S
O393 Zn377 2.024 . S
O393 C380 1.058 . S
C394 O383 1.260 . S
C394 O384 1.258 1_545 S
C395 O391 1.260 . S
C395 O392 1.258 . S
Zn396 O402 1.969 . S
Zn396 O403 1.965 . S
Zn396 O407 2.024 . S
Zn396 O412 1.969 . S
Zn397 O404 1.969 . S
Zn397 O410 1.969 . S
Zn397 O411 1.965 . S
Zn397 O413 2.024 . S
C398 O399 1.229 . S
C398 O407 1.058 . S
O399 C398 1.229 . S
C400 O401 1.229 . S
C400 O413 1.058 . S
O401 C400 1.229 . S
O402 Zn396 1.969 . S
O402 C405 1.267 . S
O403 Zn396 1.965 . S
O403 C414 1.260 . S
O404 Zn397 1.969 . S
O404 C414 1.258 . S
C405 O402 1.267 . S
C405 O406 1.228 . S
O406 C405 1.228 . S
O407 Zn396 2.024 . S
O407 C398 1.058 . S
C408 O409 1.228 . S
C408 O410 1.267 . S
O409 C408 1.228 . S
O410 Zn397 1.969 . S
O410 C408 1.267 . S
O411 Zn397 1.965 . S
O411 C415 1.260 . S
O412 Zn396 1.969 . S
O412 C415 1.258 . S
O413 Zn397 2.024 . S
O413 C400 1.058 . S
C414 O403 1.260 . S
C414 O404 1.258 . S
C415 O411 1.260 . S
C415 O412 1.258 . S
Zn416 O422 1.969 . S
Zn416 O423 1.965 1_455 S
Zn416 O427 2.024 1_565 S
Zn416 O432 1.969 1_565 S
Zn417 O424 1.969 1_455 S
Zn417 O430 1.969 1_455 S
Zn417 O431 1.965 . S
Zn417 O433 2.024 . S
C418 O419 1.229 1_545 S
C418 O427 1.058 . S
O419 C418 1.229 1_565 S
C420 O421 1.229 . S
C420 O433 1.058 1_655 S
O421 C420 1.229 . S
O422 Zn416 1.969 . S
O422 C425 1.267 . S
O423 Zn416 1.965 1_655 S
O423 C434 1.260 . S
O424 Zn417 1.969 1_655 S
O424 C434 1.258 1_545 S
C425 O422 1.267 . S
C425 O426 1.228 . S
O426 C425 1.228 . S
O427 Zn416 2.024 1_545 S
O427 C418 1.058 . S
C428 O429 1.228 . S
C428 O430 1.267 1_455 S
O429 C428 1.228 . S
O430 Zn417 1.969 1_655 S
O430 C428 1.267 1_655 S
O431 Zn417 1.965 . S
O431 C435 1.260 . S
O432 Zn416 1.969 1_545 S
O432 C435 1.258 . S
O433 Zn417 2.024 . S
O433 C420 1.058 1_455 S
C434 O423 1.260 . S
C434 O424 1.258 1_565 S
C435 O431 1.260 . S
C435 O432 1.258 . S
Zn436 O442 1.969 . S
Zn436 O443 1.965 . S
Zn436 O447 2.024 . S
Zn436 O452 1.969 . S
Zn437 O444 1.969 . S
Zn437 O450 1.969 . S
Zn437 O451 1.965 . S
Zn437 O453 2.024 . S
C438 O439 1.229 . S
C438 O447 1.058 . S
O439 C438 1.229 . S
C440 O441 1.229 . S
C440 O453 1.058 . S
O441 C440 1.229 . S
O442 Zn436 1.969 . S
O442 C445 1.267 . S
O443 Zn436 1.965 . S
O443 C454 1.260 . S
O444 Zn437 1.969 . S
O444 C454 1.258 . S
C445 O442 1.267 . S
C445 O446 1.228 . S
O446 C445 1.228 . S
O447 Zn436 2.024 . S
O447 C438 1.058 . S
C448 O449 1.228 . S
C448 O450 1.267 . S
O449 C448 1.228 . S
O450 Zn437 1.969 . S
O450 C448 1.267 . S
O451 Zn437 1.965 . S
O451 C455 1.260 . S
O452 Zn436 1.969 . S
O452 C455 1.258 . S
O453 Zn437 2.024 . S
O453 C440 1.058 . S
C454 O443 1.260 . S
C454 O444 1.258 . S
C455 O451 1.260 . S
C455 O452 1.258 . S
Zn456 O462 1.969 . S
Zn456 O463 1.965 1_545 S
Zn456 O467 2.024 1_556 S
Zn456 O472 1.969 1_556 S
Zn457 O464 2.001 . S
Zn457 O470 1.985 . S
Zn457 O471 1.933 1_565 S
Zn457 O473 2.013 1_565 S
C458 O459 1.229 . S
C458 O467 1.058 . S
O459 C458 1.229 . S
C460 O461 1.229 . S
C460 O473 1.058 1_565 S
O461 C460 1.229 . S
O462 Zn456 1.969 . S
O462 C465 1.267 . S
O463 Zn456 1.965 1_565 S
O463 C474 1.260 1_556 S
O464 Zn457 2.001 . S
O464 C474 1.258 . S
C465 O462 1.267 . S
C465 O466 1.228 . S
O466 C465 1.228 . S
O467 Zn456 2.024 1_554 S
O467 C458 1.058 . S
C468 O469 1.228 . S
C468 O470 1.267 1_545 S
O469 C468 1.228 . S
O470 Zn457 1.985 . S
O470 C468 1.267 1_565 S
O471 Zn457 1.933 1_545 S
O471 C475 1.260 . S
O472 Zn456 1.969 1_554 S
O472 C475 1.258 . S
O473 Zn457 2.013 1_545 S
O473 C460 1.058 1_545 S
C474 O463 1.260 1_554 S
C474 O464 1.258 . S
C475 O471 1.260 . S
C475 O472 1.258 . S
Zn476 O482 1.969 . S
Zn476 O483 1.965 . S
Zn476 O487 2.024 . S
Zn476 O492 1.969 . S
Zn477 O484 1.969 . S
Zn477 O490 1.969 . S
Zn477 O491 1.965 . S
Zn477 O493 2.024 . S
C478 O479 1.229 . S
C478 O487 1.058 . S
O479 C478 1.229 . S
C480 O481 1.229 . S
C480 O493 1.058 . S
O481 C480 1.229 . S
O482 Zn476 1.969 . S
O482 C485 1.267 . S
O483 Zn476 1.965 . S
O483 C494 1.260 . S
O484 Zn477 1.969 . S
O484 C494 1.258 . S
C485 O482 1.267 . S
C485 O486 1.228 . S
O486 C485 1.228 . S
O487 Zn476 2.024 . S
O487 C478 1.058 . S
C488 O489 1.228 . S
C488 O490 1.267 . S
O489 C488 1.228 . S
O490 Zn477 1.969 . S
O490 C488 1.267 . S
O491 Zn477 1.965 . S
O491 C495 1.260 . S
O492 Zn476 1.969 . S
O492 C495 1.258 . S
O493 Zn477 2.024 . S
O493 C480 1.058 . S
C494 O483 1.260 . S
C494 O484 1.258 . S
C495 O491 1.260 . S
C495 O492 1.258 . S
Zn496 O502 1.969 . S
Zn496 O503 1.965 . S
Zn496 O507 2.024 . S
Zn496 O512 1.969 . S
Zn497 O504 1.969 1_556 S
Zn497 O510 1.969 1_556 S
Zn497 O511 1.965 1_556 S
Zn497 O513 2.024 . S
C498 O499 1.229 . S
C498 O507 1.058 . S
O499 C498 1.229 . S
C500 O501 1.229 . S
C500 O513 1.058 . S
O501 C500 1.229 . S
O502 Zn496 1.969 . S
O502 C505 1.267 . S
O503 Zn496 1.965 . S
O503 C514 1.260 . S
O504 Zn497 1.969 1_554 S
O504 C514 1.258 . S
C505 O502 1.267 . S
C505 O506 1.228 . S
O506 C505 1.228 . S
O507 Zn496 2.024 . S
O507 C498 1.058 . S
C508 O509 1.228 . S
C508 O510 1.267 1_556 S
O509 C508 1.228 . S
O510 Zn497 1.969 1_554 S
O510 C508 1.267 1_554 S
O511 Zn497 1.965 1_554 S
O511 C515 1.260 . S
O512 Zn496 1.969 . S
O512 C515 1.258 . S
O513 Zn497 2.024 . S
O513 C500 1.058 . S
C514 O503 1.260 . S
C514 O504 1.258 . S
C515 O511 1.260 . S
C515 O512 1.258 . S
Zn516 O522 1.969 . S
Zn516 O523 1.965 . S
Zn516 O527 2.024 . S
Zn516 O532 1.969 . S
Zn517 O524 1.969 . S
Zn517 O530 1.969 . S
Zn517 O531 1.965 . S
Zn517 O533 2.024 . S
C518 O519 1.229 . S
C518 O527 1.058 . S
O519 C518 1.229 . S
C520 O521 1.229 . S
C520 O533 1.058 . S
O521 C520 1.229 . S
O522 Zn516 1.969 . S
O522 C525 1.267 . S
O523 Zn516 1.965 . S
O523 C534 1.260 . S
O524 Zn517 1.969 . S
O524 C534 1.258 . S
C525 O522 1.267 . S
C525 O526 1.228 . S
O526 C525 1.228 . S
O527 Zn516 2.024 . S
O527 C518 1.058 . S
C528 O529 1.228 . S
C528 O530 1.267 . S
O529 C528 1.228 . S
O530 Zn517 1.969 . S
O530 C528 1.267 . S
O531 Zn517 1.965 . S
O531 C535 1.260 . S
O532 Zn516 1.969 . S
O532 C535 1.258 . S
O533 Zn517 2.024 . S
O533 C520 1.058 . S
C534 O523 1.260 . S
C534 O524 1.258 . S
C535 O531 1.260 . S
C535 O532 1.258 . S
Zn536 O542 1.969 . S
Zn536 O543 1.965 . S
Zn536 O547 2.024 . S
Zn536 O552 1.969 . S
Zn537 O544 1.969 . S
Zn537 O550 1.969 . S
Zn537 O551 1.965 1_655 S
Zn537 O553 2.024 . S
C538 O539 1.229 . S
C538 O547 1.058 . S
O539 C538 1.229 . S
C540 O541 1.229 . S
C540 O553 1.058 . S
O541 C540 1.229 . S
O542 Zn536 1.969 . S
O542 C545 1.267 . S
O543 Zn536 1.965 . S
O543 C554 1.260 . S
O544 Zn537 1.969 . S
O544 C554 1.258 1_655 S
C545 O542 1.267 . S
C545 O546 1.228 . S
O546 C545 1.228 . S
O547 Zn536 2.024 . S
O547 C538 1.058 . S
C548 O549 1.228 . S
C548 O550 1.267 . S
O549 C548 1.228 . S
O550 Zn537 1.969 . S
O550 C548 1.267 . S
O551 Zn537 1.965 1_455 S
O551 C555 1.260 . S
O552 Zn536 1.969 . S
O552 C555 1.258 . S
O553 Zn537 2.024 . S
O553 C540 1.058 . S
C554 O543 1.260 . S
C554 O544 1.258 1_455 S
C555 O551 1.260 . S
C555 O552 1.258 . S
Zn556 O562 1.969 . S
Zn556 O563 1.965 . S
Zn556 O567 2.024 . S
Zn556 O572 1.969 . S
Zn557 O564 1.969 . S
Zn557 O570 1.969 . S
Zn557 O571 1.965 . S
Zn557 O573 2.024 . S
C558 O559 1.229 . S
C558 O567 1.058 . S
O559 C558 1.229 . S
C560 O561 1.229 . S
C560 O573 1.058 . S
O561 C560 1.229 . S
O562 Zn556 1.969 . S
O562 C565 1.267 . S
O563 Zn556 1.965 . S
O563 C574 1.260 . S
O564 Zn557 1.969 . S
O564 C574 1.258 . S
C565 O562 1.267 . S
C565 O566 1.228 . S
O566 C565 1.228 . S
O567 Zn556 2.024 . S
O567 C558 1.058 . S
C568 O569 1.228 . S
C568 O570 1.267 . S
O569 C568 1.228 . S
O570 Zn557 1.969 . S
O570 C568 1.267 . S
O571 Zn557 1.965 . S
O571 C575 1.260 . S
O572 Zn556 1.969 . S
O572 C575 1.258 . S
O573 Zn557 2.024 . S
O573 C560 1.058 . S
C574 O563 1.260 . S
C574 O564 1.258 . S
C575 O571 1.260 . S
C575 O572 1.258 . S
Zn576 O582 1.969 . S
Zn576 O583 1.965 . S
Zn576 O587 2.024 . S
Zn576 O592 1.969 . S
Zn577 O584 1.969 . S
Zn577 O590 1.969 . S
Zn577 O591 1.965 . S
Zn577 O593 2.024 . S
C578 O579 1.229 . S
C578 O587 1.058 . S
O579 C578 1.229 . S
C580 O581 1.229 . S
C580 O593 1.058 . S
O581 C580 1.229 . S
O582 Zn576 1.969 . S
O582 C585 1.267 . S
O583 Zn576 1.965 . S
O583 C594 1.260 . S
O584 Zn577 1.969 . S
O584 C594 1.258 . S
C585 O582 1.267 . S
C585 O586 1.228 . S
O586 C585 1.228 . S
O587 Zn576 2.024 . S
O587 C578 1.058 . S
C588 O589 1.228 . S
C588 O590 1.267 . S
O589 C588 1.228 . S
O590 Zn577 1.969 . S
O590 C588 1.267 . S
O591 Zn577 1.965 . S
O591 C595 1.260 . S
O592 Zn576 1.969 . S
O592 C595 1.258 . S
O593 Zn577 2.024 . S
O593 C580 1.058 . S
C594 O583 1.260 . S
C594 O584 1.258 . S
C595 O591 1.260 . S
C595 O592 1.258 . S
Zn596 O602 1.969 . S
Zn596 O603 1.965 . S
Zn596 O607 2.024 . S
Zn596 O612 1.969 . S
Zn597 O604 1.969 . S
Zn597 O610 1.969 . S
Zn597 O611 1.965 . S
Zn597 O613 2.024 . S
C598 O599 1.229 . S
C598 O607 1.058 . S
O599 C598 1.229 . S
C600 O601 1.229 . S
C600 O613 1.058 . S
O601 C600 1.229 . S
O602 Zn596 1.969 . S
O602 C605 1.267 . S
O603 Zn596 1.965 . S
O603 C614 1.260 . S
O604 Zn597 1.969 . S
O604 C614 1.258 . S
C605 O602 1.267 . S
C605 O606 1.228 . S
O606 C605 1.228 . S
O607 Zn596 2.024 . S
O607 C598 1.058 . S
C608 O609 1.228 . S
C608 O610 1.267 . S
O609 C608 1.228 . S
O610 Zn597 1.969 . S
O610 C608 1.267 . S
O611 Zn597 1.965 . S
O611 C615 1.260 . S
O612 Zn596 1.969 . S
O612 C615 1.258 . S
O613 Zn597 2.024 . S
O613 C600 1.058 . S
C614 O603 1.260 . S
C614 O604 1.258 . S
C615 O611 1.260 . S
C615 O612 1.258 . S
Zn616 O622 1.969 . S
Zn616 O623 1.965 . S
Zn616 O627 2.024 . S
Zn616 O632 1.969 . S
Zn617 O624 1.969 . S
Zn617 O630 1.969 . S
Zn617 O631 1.965 . S
Zn617 O633 2.024 . S
C618 O619 1.229 . S
C618 O627 1.058 . S
O619 C618 1.229 . S
C620 O621 1.229 . S
C620 O633 1.058 . S
O621 C620 1.229 . S
O622 Zn616 1.969 . S
O622 C625 1.267 . S
O623 Zn616 1.965 . S
O623 C634 1.260 . S
O624 Zn617 1.969 . S
O624 C634 1.258 . S
C625 O622 1.267 . S
C625 O626 1.228 . S
O626 C625 1.228 . S
O627 Zn616 2.024 . S
O627 C618 1.058 . S
C628 O629 1.228 . S
C628 O630 1.267 . S
O629 C628 1.228 . S
O630 Zn617 1.969 . S
O630 C628 1.267 . S
O631 Zn617 1.965 . S
O631 C635 1.260 . S
O632 Zn616 1.969 . S
O632 C635 1.258 . S
O633 Zn617 2.024 . S
O633 C620 1.058 . S
C634 O623 1.260 . S
C634 O624 1.258 . S
C635 O631 1.260 . S
C635 O632 1.258 . S
Zn636 O642 1.969 . S
Zn636 O643 1.965 . S
Zn636 O647 2.024 1_655 S
Zn636 O652 1.969 1_655 S
Zn637 O644 1.969 1_554 S
Zn637 O650 1.969 . S
Zn637 O651 1.965 . S
Zn637 O653 2.024 . S
C638 O639 1.229 1_455 S
C638 O647 1.058 . S
O639 C638 1.229 1_655 S
C640 O641 1.229 1_554 S
C640 O653 1.058 . S
O641 C640 1.229 1_556 S
O642 Zn636 1.969 . S
O642 C645 1.267 . S
O643 Zn636 1.965 . S
O643 C654 1.260 1_654 S
O644 Zn637 1.969 1_556 S
O644 C654 1.258 . S
C645 O642 1.267 . S
C645 O646 1.228 . S
O646 C645 1.228 . S
O647 Zn636 2.024 1_455 S
O647 C638 1.058 . S
C648 O649 1.228 . S
C648 O650 1.267 . S
O649 C648 1.228 . S
O650 Zn637 1.969 . S
O650 C648 1.267 . S
O651 Zn637 1.965 . S
O651 C655 1.260 . S
O652 Zn636 1.969 1_455 S
O652 C655 1.258 . S
O653 Zn637 2.024 . S
O653 C640 1.058 . S
C654 O643 1.260 1_456 S
C654 O644 1.258 . S
C655 O651 1.260 . S
C655 O652 1.258 . S
H656 C668 0.930 . S
H657 C670 0.930 . S
H658 C671 0.930 . S
H659 C675 0.959 . S
H660 C675 0.959 . S
H661 C675 0.961 . S
H662 C676 0.960 . S
H663 C676 0.961 . S
H664 C676 0.959 . S
H665 C679 0.929 . S
H666 C680 0.931 . S
H667 C682 0.930 . S
C668 H656 0.930 . S
C668 C669 1.399 1_455 S
C668 C673 1.399 . S
C669 C668 1.399 1_655 S
C669 C670 1.376 . S
C670 H657 0.930 . S
C670 C669 1.376 . S
C670 C671 1.388 . S
C671 H658 0.930 . S
C671 C670 1.388 . S
C671 C672 1.390 . S
C672 C671 1.390 . S
C672 C673 1.394 1_655 S
C672 C678 1.471 . S
C673 C668 1.399 . S
C673 C672 1.394 1_455 S
C673 C674 1.516 . S
C674 C673 1.516 . S
C674 C675 1.502 . S
C674 C676 1.561 . S
C674 C677 1.526 . S
C675 H659 0.959 . S
C675 H660 0.959 . S
C675 H661 0.961 . S
C675 C674 1.502 . S
C676 H662 0.960 . S
C676 H663 0.961 . S
C676 H664 0.959 . S
C676 C674 1.561 . S
C677 C674 1.526 . S
C677 C678 1.371 1_455 S
C677 C682 1.390 . S
C678 C672 1.471 . S
C678 C677 1.371 1_655 S
C678 C679 1.414 . S
C679 H665 0.929 . S
C679 C678 1.414 . S
C679 C680 1.385 1_556 S
C680 H666 0.931 . S
C680 C679 1.385 1_554 S
C680 C681 1.389 1_655 S
C681 C680 1.389 1_455 S
C681 C682 1.387 1_554 S
C682 H667 0.930 . S
C682 C677 1.390 . S
C682 C681 1.387 1_556 S
H683 C695 0.930 . S
H684 C697 0.930 . S
H685 C698 0.930 . S
H686 C702 0.959 . S
H687 C702 0.959 . S
H688 C702 0.961 . S
H689 C703 0.960 . S
H690 C703 0.961 . S
H691 C703 0.959 . S
H692 C706 0.929 . S
H693 C707 0.931 . S
H694 C709 0.930 . S
C695 H683 0.930 . S
C695 C696 1.399 . S
C695 C700 1.399 . S
C696 C695 1.399 . S
C696 C697 1.376 . S
C697 H684 0.930 . S
C697 C696 1.376 . S
C697 C698 1.388 . S
C698 H685 0.930 . S
C698 C697 1.388 . S
C698 C699 1.390 . S
C699 C698 1.390 . S
C699 C700 1.394 . S
C699 C705 1.465 . S
C700 C695 1.399 . S
C700 C699 1.394 . S
C700 C701 1.516 . S
C701 C700 1.516 . S
C701 C702 1.502 . S
C701 C703 1.561 . S
C701 C704 1.526 . S
C702 H686 0.959 . S
C702 H687 0.959 . S
C702 H688 0.961 . S
C702 C701 1.502 . S
C703 H689 0.960 . S
C703 H690 0.961 . S
C703 H691 0.959 . S
C703 C701 1.561 . S
C704 C701 1.526 . S
C704 C705 1.396 . S
C704 C709 1.390 . S
C705 C699 1.465 . S
C705 C704 1.396 . S
C705 C706 1.399 . S
C706 H692 0.929 . S
C706 C705 1.399 . S
C706 C707 1.385 . S
C707 H693 0.931 . S
C707 C706 1.385 . S
C707 C708 1.389 . S
C708 C707 1.389 . S
C708 C709 1.387 . S
C709 H694 0.930 . S
C709 C704 1.390 . S
C709 C708 1.387 . S
H710 C722 0.930 . S
H711 C724 0.930 . S
H712 C725 0.930 . S
H713 C729 0.959 . S
H714 C729 0.959 . S
H715 C729 0.961 . S
H716 C730 0.960 . S
H717 C730 0.961 . S
H718 C730 0.959 . S
H719 C733 0.929 . S
H720 C734 0.931 . S
H721 C736 0.930 . S
C722 H710 0.930 . S
C722 C723 1.399 . S
C722 C727 1.399 . S
C723 C722 1.399 . S
C723 C724 1.376 . S
C724 H711 0.930 . S
C724 C723 1.376 . S
C724 C725 1.388 . S
C725 H712 0.930 . S
C725 C724 1.388 . S
C725 C726 1.390 . S
C726 C725 1.390 . S
C726 C727 1.394 . S
C726 C732 1.465 . S
C727 C722 1.399 . S
C727 C726 1.394 . S
C727 C728 1.516 . S
C728 C727 1.516 . S
C728 C729 1.502 . S
C728 C730 1.561 . S
C728 C731 1.526 . S
C729 H713 0.959 . S
C729 H714 0.959 . S
C729 H715 0.961 . S
C729 C728 1.502 . S
C730 H716 0.960 . S
C730 H717 0.961 . S
C730 H718 0.959 . S
C730 C728 1.561 . S
C731 C728 1.526 . S
C731 C732 1.396 . S
C731 C736 1.390 . S
C732 C726 1.465 . S
C732 C731 1.396 . S
C732 C733 1.399 . S
C733 H719 0.929 . S
C733 C732 1.399 . S
C733 C734 1.385 . S
C734 H720 0.931 . S
C734 C733 1.385 . S
C734 C735 1.389 . S
C735 C734 1.389 . S
C735 C736 1.387 . S
C736 H721 0.930 . S
C736 C731 1.390 . S
C736 C735 1.387 . S
H737 C749 0.930 . S
H738 C751 0.930 . S
H739 C752 0.930 . S
H740 C756 0.959 . S
H741 C756 0.959 . S
H742 C756 0.961 . S
H743 C757 0.960 . S
H744 C757 0.961 . S
H745 C757 0.959 . S
H746 C760 0.929 . S
H747 C761 0.931 . S
H748 C763 0.930 . S
C749 H737 0.930 . S
C749 C750 1.399 . S
C749 C754 1.399 . S
C750 C749 1.399 . S
C750 C751 1.376 . S
C751 H738 0.930 . S
C751 C750 1.376 . S
C751 C752 1.388 . S
C752 H739 0.930 . S
C752 C751 1.388 . S
C752 C753 1.390 . S
C753 C752 1.390 . S
C753 C754 1.394 . S
C753 C759 1.465 . S
C754 C749 1.399 . S
C754 C753 1.394 . S
C754 C755 1.516 . S
C755 C754 1.516 . S
C755 C756 1.502 . S
C755 C757 1.561 . S
C755 C758 1.526 . S
C756 H740 0.959 . S
C756 H741 0.959 . S
C756 H742 0.961 . S
C756 C755 1.502 . S
C757 H743 0.960 . S
C757 H744 0.961 . S
C757 H745 0.959 . S
C757 C755 1.561 . S
C758 C755 1.526 . S
C758 C759 1.396 . S
C758 C763 1.390 . S
C759 C753 1.465 . S
C759 C758 1.396 . S
C759 C760 1.399 . S
C760 H746 0.929 . S
C760 C759 1.399 . S
C760 C761 1.385 . S
C761 H747 0.931 . S
C761 C760 1.385 . S
C761 C762 1.389 . S
C762 C761 1.389 . S
C762 C763 1.387 . S
C763 H748 0.930 . S
C763 C758 1.390 . S
C763 C762 1.387 . S
H764 C776 0.930 . S
H765 C778 0.930 . S
H766 C779 0.930 . S
H767 C783 0.959 . S
H768 C783 0.959 . S
H769 C783 0.961 . S
H770 C784 0.960 . S
H771 C784 0.961 . S
H772 C784 0.959 . S
H773 C787 0.929 . S
H774 C788 0.931 . S
H775 C790 0.930 . S
C776 H764 0.930 . S
C776 C777 1.399 . S
C776 C781 1.399 . S
C777 C776 1.399 . S
C777 C778 1.376 . S
C778 H765 0.930 . S
C778 C777 1.376 . S
C778 C779 1.388 . S
C779 H766 0.930 . S
C779 C778 1.388 . S
C779 C780 1.390 . S
C780 C779 1.390 . S
C780 C781 1.394 . S
C780 C786 1.465 . S
C781 C776 1.399 . S
C781 C780 1.394 . S
C781 C782 1.516 . S
C782 C781 1.516 . S
C782 C783 1.502 1_455 S
C782 C784 1.561 . S
C782 C785 1.526 . S
C783 H767 0.959 . S
C783 H768 0.959 . S
C783 H769 0.961 . S
C783 C782 1.502 1_655 S
C784 H770 0.960 . S
C784 H771 0.961 . S
C784 H772 0.959 . S
C784 C782 1.561 . S
C785 C782 1.526 . S
C785 C786 1.396 . S
C785 C790 1.390 . S
C786 C780 1.465 . S
C786 C785 1.396 . S
C786 C787 1.399 . S
C787 H773 0.929 . S
C787 C786 1.399 . S
C787 C788 1.385 . S
C788 H774 0.931 . S
C788 C787 1.385 . S
C788 C789 1.389 . S
C789 C788 1.389 . S
C789 C790 1.387 . S
C790 H775 0.930 . S
C790 C785 1.390 . S
C790 C789 1.387 . S
H791 C803 0.930 . S
H792 C805 0.930 . S
H793 C806 0.930 . S
H794 C810 0.959 . S
H795 C810 0.959 . S
H796 C810 0.961 . S
H797 C811 0.960 . S
H798 C811 0.961 . S
H799 C811 0.959 . S
H800 C814 0.929 . S
H801 C815 0.931 . S
H802 C817 0.930 . S
C803 H791 0.930 . S
C803 C804 1.399 . S
C803 C808 1.399 . S
C804 C803 1.399 . S
C804 C805 1.376 . S
C805 H792 0.930 . S
C805 C804 1.376 . S
C805 C806 1.388 . S
C806 H793 0.930 . S
C806 C805 1.388 . S
C806 C807 1.390 . S
C807 C806 1.390 . S
C807 C808 1.394 . S
C807 C813 1.465 . S
C808 C803 1.399 . S
C808 C807 1.394 . S
C808 C809 1.516 . S
C809 C808 1.516 . S
C809 C810 1.502 . S
C809 C811 1.561 . S
C809 C812 1.526 . S
C810 H794 0.959 . S
C810 H795 0.959 . S
C810 H796 0.961 . S
C810 C809 1.502 . S
C811 H797 0.960 . S
C811 H798 0.961 . S
C811 H799 0.959 . S
C811 C809 1.561 . S
C812 C809 1.526 . S
C812 C813 1.396 . S
C812 C817 1.390 . S
C813 C807 1.465 . S
C813 C812 1.396 . S
C813 C814 1.399 . S
C814 H800 0.929 . S
C814 C813 1.399 . S
C814 C815 1.385 . S
C815 H801 0.931 . S
C815 C814 1.385 . S
C815 C816 1.389 . S
C816 C815 1.389 . S
C816 C817 1.387 . S
C817 H802 0.930 . S
C817 C812 1.390 . S
C817 C816 1.387 . S
H818 C830 0.930 . S
H819 C832 0.930 . S
H820 C833 0.930 . S
H821 C837 0.959 . S
H822 C837 0.959 . S
H823 C837 0.961 . S
H824 C838 0.960 . S
H825 C838 0.961 . S
H826 C838 0.959 . S
H827 C841 0.929 . S
H828 C842 0.931 . S
H829 C844 0.930 . S
C830 H818 0.930 . S
C830 C831 1.399 . S
C830 C835 1.399 . S
C831 C830 1.399 . S
C831 C832 1.376 . S
C832 H819 0.930 . S
C832 C831 1.376 . S
C832 C833 1.388 . S
C833 H820 0.930 . S
C833 C832 1.388 . S
C833 C834 1.390 . S
C834 C833 1.390 . S
C834 C835 1.394 . S
C834 C840 1.465 . S
C835 C830 1.399 . S
C835 C834 1.394 . S
C835 C836 1.516 . S
C836 C835 1.516 . S
C836 C837 1.502 . S
C836 C838 1.561 . S
C836 C839 1.526 . S
C837 H821 0.959 . S
C837 H822 0.959 . S
C837 H823 0.961 . S
C837 C836 1.502 . S
C838 H824 0.960 . S
C838 H825 0.961 . S
C838 H826 0.959 . S
C838 C836 1.561 . S
C839 C836 1.526 . S
C839 C840 1.396 . S
C839 C844 1.390 . S
C840 C834 1.465 . S
C840 C839 1.396 . S
C840 C841 1.399 . S
C841 H827 0.929 . S
C841 C840 1.399 . S
C841 C842 1.385 . S
C842 H828 0.931 . S
C842 C841 1.385 . S
C842 C843 1.389 . S
C843 C842 1.389 . S
C843 C844 1.387 . S
C844 H829 0.930 . S
C844 C839 1.390 . S
C844 C843 1.387 . S
H845 C857 0.930 . S
H846 C859 0.930 . S
H847 C860 0.930 . S
H848 C864 0.959 . S
H849 C864 0.959 . S
H850 C864 0.961 . S
H851 C865 0.960 . S
H852 C865 0.961 . S
H853 C865 0.959 . S
H854 C868 0.929 . S
H855 C869 0.931 . S
H856 C871 0.930 . S
C857 H845 0.930 . S
C857 C858 1.399 . S
C857 C862 1.399 . S
C858 C857 1.399 . S
C858 C859 1.376 . S
C859 H846 0.930 . S
C859 C858 1.376 . S
C859 C860 1.388 . S
C860 H847 0.930 . S
C860 C859 1.388 . S
C860 C861 1.390 . S
C861 C860 1.390 . S
C861 C862 1.394 . S
C861 C867 1.465 . S
C862 C857 1.399 . S
C862 C861 1.394 . S
C862 C863 1.516 . S
C863 C862 1.516 . S
C863 C864 1.502 . S
C863 C865 1.561 . S
C863 C866 1.526 . S
C864 H848 0.959 . S
C864 H849 0.959 . S
C864 H850 0.961 . S
C864 C863 1.502 . S
C865 H851 0.960 . S
C865 H852 0.961 . S
C865 H853 0.959 . S
C865 C863 1.561 . S
C866 C863 1.526 . S
C866 C867 1.396 . S
C866 C871 1.390 . S
C867 C861 1.465 . S
C867 C866 1.396 . S
C867 C868 1.399 . S
C868 H854 0.929 . S
C868 C867 1.399 . S
C868 C869 1.385 . S
C869 H855 0.931 . S
C869 C868 1.385 . S
C869 C870 1.389 . S
C870 C869 1.389 . S
C870 C871 1.387 . S
C871 H856 0.930 . S
C871 C866 1.390 . S
C871 C870 1.387 . S
H872 C884 0.930 . S
H873 C886 0.930 . S
H874 C887 0.930 . S
H875 C891 0.959 . S
H876 C891 0.959 . S
H877 C891 0.961 . S
H878 C892 0.960 . S
H879 C892 0.961 . S
H880 C892 0.959 . S
H881 C895 0.929 . S
H882 C896 0.910 1_565 S
H883 C898 0.930 . S
C884 H872 0.930 . S
C884 C885 1.399 . S
C884 C889 1.399 . S
C885 C884 1.399 . S
C885 C886 1.376 1_545 S
C886 H873 0.930 . S
C886 C885 1.376 1_565 S
C886 C887 1.388 . S
C887 H874 0.930 . S
C887 C886 1.388 . S
C887 C888 1.390 1_565 S
C888 C887 1.390 1_545 S
C888 C889 1.394 . S
C888 C894 1.465 . S
C889 C884 1.399 . S
C889 C888 1.394 . S
C889 C890 1.516 . S
C890 C889 1.516 . S
C890 C891 1.502 . S
C890 C892 1.561 . S
C890 C893 1.526 . S
C891 H875 0.959 . S
C891 H876 0.959 . S
C891 H877 0.961 . S
C891 C890 1.502 . S
C892 H878 0.960 . S
C892 H879 0.961 . S
C892 H880 0.959 . S
C892 C890 1.561 . S
C893 C890 1.526 . S
C893 C894 1.396 . S
C893 C898 1.390 . S
C894 C888 1.465 . S
C894 C893 1.396 . S
C894 C895 1.399 1_545 S
C895 H881 0.929 . S
C895 C894 1.399 1_565 S
C895 C896 1.379 1_665 S
C896 H882 0.910 1_545 S
C896 C895 1.379 1_445 S
C896 C897 1.416 1_455 S
C897 C896 1.416 1_655 S
C897 C898 1.387 . S
C898 H883 0.930 . S
C898 C893 1.390 . S
C898 C897 1.387 . S
H899 C911 0.930 . S
H900 C913 0.930 . S
H901 C914 0.930 . S
H902 C918 0.959 . S
H903 C918 0.959 . S
H904 C918 0.961 . S
H905 C919 0.960 . S
H906 C919 0.961 . S
H907 C919 0.959 . S
H908 C922 0.929 . S
H909 C923 0.931 . S
H910 C925 0.930 . S
C911 H899 0.930 . S
C911 C912 1.399 . S
C911 C916 1.399 . S
C912 C911 1.399 . S
C912 C913 1.376 . S
C913 H900 0.930 . S
C913 C912 1.376 . S
C913 C914 1.388 . S
C914 H901 0.930 . S
C914 C913 1.388 . S
C914 C915 1.390 . S
C915 C914 1.390 . S
C915 C916 1.394 . S
C915 C921 1.465 . S
C916 C911 1.399 . S
C916 C915 1.394 . S
C916 C917 1.516 . S
C917 C916 1.516 . S
C917 C918 1.502 . S
C917 C919 1.561 . S
C917 C920 1.526 . S
C918 H902 0.959 . S
C918 H903 0.959 . S
C918 H904 0.961 . S
C918 C917 1.502 . S
C919 H905 0.960 . S
C919 H906 0.961 . S
C919 H907 0.959 . S
C919 C917 1.561 . S
C920 C917 1.526 . S
C920 C921 1.396 . S
C920 C925 1.390 . S
C921 C915 1.465 . S
C921 C920 1.396 . S
C921 C922 1.399 . S
C922 H908 0.929 . S
C922 C921 1.399 . S
C922 C923 1.385 . S
C923 H909 0.931 . S
C923 C922 1.385 . S
C923 C924 1.389 . S
C924 C923 1.389 . S
C924 C925 1.387 . S
C925 H910 0.930 . S
C925 C920 1.390 . S
C925 C924 1.387 . S
H926 C938 0.930 . S
H927 C940 0.930 . S
H928 C941 0.930 . S
H929 C945 0.959 . S
H930 C945 0.959 . S
H931 C945 0.961 . S
H932 C946 0.960 . S
H933 C946 0.961 . S
H934 C946 0.959 . S
H935 C949 0.929 . S
H936 C950 0.931 . S
H937 C952 0.930 . S
C938 H926 0.930 . S
C938 C939 1.399 . S
C938 C943 1.399 . S
C939 C938 1.399 . S
C939 C940 1.376 1_565 S
C940 H927 0.930 . S
C940 C939 1.376 1_545 S
C940 C941 1.388 . S
C941 H928 0.930 . S
C941 C940 1.388 . S
C941 C942 1.390 . S
C942 C941 1.390 . S
C942 C943 1.394 1_545 S
C942 C948 1.465 . S
C943 C938 1.399 . S
C943 C942 1.394 1_565 S
C943 C944 1.516 . S
C944 C943 1.516 . S
C944 C945 1.502 . S
C944 C946 1.561 . S
C944 C947 1.526 . S
C945 H929 0.959 . S
C945 H930 0.959 . S
C945 H931 0.961 . S
C945 C944 1.502 . S
C946 H932 0.960 . S
C946 H933 0.961 . S
C946 H934 0.959 . S
C946 C944 1.561 . S
C947 C944 1.526 . S
C947 C948 1.396 1_565 S
C947 C952 1.390 . S
C948 C942 1.465 . S
C948 C947 1.396 1_545 S
C948 C949 1.399 . S
C949 H935 0.929 . S
C949 C948 1.399 . S
C949 C950 1.385 . S
C950 H936 0.931 . S
C950 C949 1.385 . S
C950 C951 1.389 . S
C951 C950 1.389 . S
C951 C952 1.387 1_545 S
C952 H937 0.930 . S
C952 C947 1.390 . S
C952 C951 1.387 1_565 S
H953 C965 0.930 . S
H954 C967 0.930 1_554 S
H955 C968 0.930 . S
H956 C972 0.959 . S
H957 C972 0.959 . S
H958 C972 0.961 . S
H959 C973 0.960 . S
H960 C973 0.961 . S
H961 C973 0.959 . S
H962 C976 0.929 . S
H963 C977 0.931 . S
H964 C979 0.930 . S
C965 H953 0.930 . S
C965 C966 1.399 . S
C965 C970 1.399 . S
C966 C965 1.399 . S
C966 C967 1.376 . S
C967 H954 0.930 1_556 S
C967 C966 1.376 . S
C967 C968 1.388 . S
C968 H955 0.930 . S
C968 C967 1.388 . S
C968 C969 1.390 . S
C969 C968 1.390 . S
C969 C970 1.394 . S
C969 C975 1.465 . S
C970 C965 1.399 . S
C970 C969 1.394 . S
C970 C971 1.516 . S
C971 C970 1.516 . S
C971 C972 1.502 . S
C971 C973 1.561 . S
C971 C974 1.526 . S
C972 H956 0.959 . S
C972 H957 0.959 . S
C972 H958 0.961 . S
C972 C971 1.502 . S
C973 H959 0.960 . S
C973 H960 0.961 . S
C973 H961 0.959 . S
C973 C971 1.561 . S
C974 C971 1.526 . S
C974 C975 1.396 . S
C974 C979 1.390 . S
C975 C969 1.465 . S
C975 C974 1.396 . S
C975 C976 1.399 . S
C976 H962 0.929 . S
C976 C975 1.399 . S
C976 C977 1.385 . S
C977 H963 0.931 . S
C977 C976 1.385 . S
C977 C978 1.389 . S
C978 C977 1.389 . S
C978 C979 1.387 . S
C979 H964 0.930 . S
C979 C974 1.390 . S
C979 C978 1.387 . S
H980 C992 0.930 . S
H981 C994 0.930 . S
H982 C995 0.930 . S
H983 C999 0.959 . S
H984 C999 0.959 . S
H985 C999 0.961 . S
H986 C1000 0.960 . S
H987 C1000 0.961 . S
H988 C1000 0.959 . S
H989 C1003 0.929 . S
H990 C1004 0.931 . S
H991 C1006 0.930 . S
C992 H980 0.930 . S
C992 C993 1.399 . S
C992 C997 1.399 . S
C993 C992 1.399 . S
C993 C994 1.376 1_545 S
C994 H981 0.930 . S
C994 C993 1.376 1_565 S
C994 C995 1.388 . S
C995 H982 0.930 . S
C995 C994 1.388 . S
C995 C996 1.373 1_565 S
C996 C995 1.373 1_545 S
C996 C997 1.422 . S
C996 C1002 1.453 1_545 S
C997 C992 1.399 . S
C997 C996 1.422 . S
C997 C998 1.516 . S
C998 C997 1.516 . S
C998 C999 1.502 . S
C998 C1000 1.561 . S
C998 C1001 1.526 . S
C999 H983 0.959 . S
C999 H984 0.959 . S
C999 H985 0.961 . S
C999 C998 1.502 . S
C1000 H986 0.960 . S
C1000 H987 0.961 . S
C1000 H988 0.959 . S
C1000 C998 1.561 . S
C1001 C998 1.526 . S
C1001 C1002 1.370 1_545 S
C1001 C1006 1.390 . S
C1002 C996 1.453 1_565 S
C1002 C1001 1.370 1_565 S
C1002 C1003 1.426 . S
C1003 H989 0.929 . S
C1003 C1002 1.426 . S
C1003 C1004 1.385 . S
C1004 H990 0.931 . S
C1004 C1003 1.385 . S
C1004 C1005 1.389 1_565 S
C1005 C1004 1.389 1_545 S
C1005 C1006 1.387 . S
C1006 H991 0.930 . S
C1006 C1001 1.390 . S
C1006 C1005 1.387 . S
H1007 C1019 0.930 . S
H1008 C1021 0.930 . S
H1009 C1022 0.930 . S
H1010 C1026 0.959 . S
H1011 C1026 0.959 . S
H1012 C1026 0.961 . S
H1013 C1027 0.960 . S
H1014 C1027 0.961 . S
H1015 C1027 0.959 . S
H1016 C1030 0.929 . S
H1017 C1031 0.931 . S
H1018 C1033 0.930 . S
C1019 H1007 0.930 . S
C1019 C1020 1.399 . S
C1019 C1024 1.399 . S
C1020 C1019 1.399 . S
C1020 C1021 1.376 . S
C1021 H1008 0.930 . S
C1021 C1020 1.376 . S
C1021 C1022 1.388 . S
C1022 H1009 0.930 . S
C1022 C1021 1.388 . S
C1022 C1023 1.390 . S
C1023 C1022 1.390 . S
C1023 C1024 1.394 . S
C1023 C1029 1.465 . S
C1024 C1019 1.399 . S
C1024 C1023 1.394 . S
C1024 C1025 1.516 . S
C1025 C1024 1.516 . S
C1025 C1026 1.502 . S
C1025 C1027 1.561 . S
C1025 C1028 1.526 . S
C1026 H1010 0.959 . S
C1026 H1011 0.959 . S
C1026 H1012 0.961 . S
C1026 C1025 1.502 . S
C1027 H1013 0.960 . S
C1027 H1014 0.961 . S
C1027 H1015 0.959 . S
C1027 C1025 1.561 . S
C1028 C1025 1.526 . S
C1028 C1029 1.396 . S
C1028 C1033 1.390 . S
C1029 C1023 1.465 . S
C1029 C1028 1.396 . S
C1029 C1030 1.399 . S
C1030 H1016 0.929 . S
C1030 C1029 1.399 . S
C1030 C1031 1.385 . S
C1031 H1017 0.931 . S
C1031 C1030 1.385 . S
C1031 C1032 1.389 . S
C1032 C1031 1.389 . S
C1032 C1033 1.387 . S
C1033 H1018 0.930 . S
C1033 C1028 1.390 . S
C1033 C1032 1.387 . S
H1034 C1046 0.930 . S
H1035 C1048 0.930 . S
H1036 C1049 0.930 . S
H1037 C1053 0.959 . S
H1038 C1053 0.959 . S
H1039 C1053 0.961 . S
H1040 C1054 0.960 . S
H1041 C1054 0.961 . S
H1042 C1054 0.959 . S
H1043 C1057 0.929 . S
H1044 C1058 0.931 . S
H1045 C1060 0.930 . S
C1046 H1034 0.930 . S
C1046 C1047 1.382 1_545 S
C1046 C1051 1.399 . S
C1047 C1046 1.382 1_565 S
C1047 C1048 1.393 . S
C1048 H1035 0.930 . S
C1048 C1047 1.393 . S
C1048 C1049 1.388 . S
C1049 H1036 0.930 . S
C1049 C1048 1.388 . S
C1049 C1050 1.390 . S
C1050 C1049 1.390 . S
C1050 C1051 1.394 1_565 S
C1050 C1056 1.465 1_565 S
C1051 C1046 1.399 . S
C1051 C1050 1.394 1_545 S
C1051 C1052 1.516 . S
C1052 C1051 1.516 . S
C1052 C1053 1.502 . S
C1052 C1054 1.561 . S
C1052 C1055 1.526 . S
C1053 H1037 0.959 . S
C1053 H1038 0.959 . S
C1053 H1039 0.961 . S
C1053 C1052 1.502 . S
C1054 H1040 0.960 . S
C1054 H1041 0.961 . S
C1054 H1042 0.959 . S
C1054 C1052 1.561 . S
C1055 C1052 1.526 . S
C1055 C1056 1.396 . S
C1055 C1060 1.390 . S
C1056 C1050 1.465 1_545 S
C1056 C1055 1.396 . S
C1056 C1057 1.399 1_545 S
C1057 H1043 0.929 . S
C1057 C1056 1.399 1_565 S
C1057 C1058 1.385 . S
C1058 H1044 0.931 . S
C1058 C1057 1.385 . S
C1058 C1059 1.389 1_565 S
C1059 C1058 1.389 1_545 S
C1059 C1060 1.387 . S
C1060 H1045 0.930 . S
C1060 C1055 1.390 . S
C1060 C1059 1.387 . S
H1061 C1073 0.930 . S
H1062 C1075 0.930 . S
H1063 C1076 0.930 . S
H1064 C1080 0.959 . S
H1065 C1080 0.959 . S
H1066 C1080 0.961 . S
H1067 C1081 0.960 . S
H1068 C1081 0.961 . S
H1069 C1081 0.959 . S
H1070 C1084 0.929 . S
H1071 C1085 0.931 . S
H1072 C1087 0.930 . S
C1073 H1061 0.930 . S
C1073 C1074 1.399 . S
C1073 C1078 1.399 . S
C1074 C1073 1.399 . S
C1074 C1075 1.376 . S
C1075 H1062 0.930 . S
C1075 C1074 1.376 . S
C1075 C1076 1.388 . S
C1076 H1063 0.930 . S
C1076 C1075 1.388 . S
C1076 C1077 1.390 . S
C1077 C1076 1.390 . S
C1077 C1078 1.394 . S
C1077 C1083 1.465 . S
C1078 C1073 1.399 . S
C1078 C1077 1.394 . S
C1078 C1079 1.516 . S
C1079 C1078 1.516 . S
C1079 C1080 1.502 . S
C1079 C1081 1.561 . S
C1079 C1082 1.526 . S
C1080 H1064 0.959 . S
C1080 H1065 0.959 . S
C1080 H1066 0.961 . S
C1080 C1079 1.502 . S
C1081 H1067 0.960 . S
C1081 H1068 0.961 . S
C1081 H1069 0.959 . S
C1081 C1079 1.561 . S
C1082 C1079 1.526 . S
C1082 C1083 1.396 . S
C1082 C1087 1.390 . S
C1083 C1077 1.465 . S
C1083 C1082 1.396 . S
C1083 C1084 1.399 . S
C1084 H1070 0.929 . S
C1084 C1083 1.399 . S
C1084 C1085 1.385 . S
C1085 H1071 0.931 . S
C1085 C1084 1.385 . S
C1085 C1086 1.389 . S
C1086 C1085 1.389 . S
C1086 C1087 1.387 . S
C1087 H1072 0.930 . S
C1087 C1082 1.390 . S
C1087 C1086 1.387 . S
H1088 C1100 0.930 . S
H1089 C1102 0.930 . S
H1090 C1103 0.930 . S
H1091 C1107 0.959 . S
H1092 C1107 0.959 . S
H1093 C1107 0.961 . S
H1094 C1108 0.960 . S
H1095 C1108 0.961 . S
H1096 C1108 0.959 . S
H1097 C1111 0.929 1_556 S
H1098 C1112 0.931 . S
H1099 C1114 0.930 . S
C1100 H1088 0.930 . S
C1100 C1101 1.399 . S
C1100 C1105 1.399 . S
C1101 C1100 1.399 . S
C1101 C1102 1.376 1_554 S
C1102 H1089 0.930 . S
C1102 C1101 1.376 1_556 S
C1102 C1103 1.388 . S
C1103 H1090 0.930 . S
C1103 C1102 1.388 . S
C1103 C1104 1.390 1_556 S
C1104 C1103 1.390 1_554 S
C1104 C1105 1.394 . S
C1104 C1110 1.465 . S
C1105 C1100 1.399 . S
C1105 C1104 1.394 . S
C1105 C1106 1.516 . S
C1106 C1105 1.516 . S
C1106 C1107 1.502 . S
C1106 C1108 1.561 . S
C1106 C1109 1.526 . S
C1107 H1091 0.959 . S
C1107 H1092 0.959 . S
C1107 H1093 0.961 . S
C1107 C1106 1.502 . S
C1108 H1094 0.960 . S
C1108 H1095 0.961 . S
C1108 H1096 0.959 . S
C1108 C1106 1.561 . S
C1109 C1106 1.526 . S
C1109 C1110 1.396 . S
C1109 C1114 1.390 . S
C1110 C1104 1.465 . S
C1110 C1109 1.396 . S
C1110 C1111 1.399 . S
C1111 H1097 0.929 1_554 S
C1111 C1110 1.399 . S
C1111 C1112 1.385 . S
C1112 H1098 0.931 . S
C1112 C1111 1.385 . S
C1112 C1113 1.389 . S
C1113 C1112 1.389 . S
C1113 C1114 1.387 . S
C1114 H1099 0.930 . S
C1114 C1109 1.390 . S
C1114 C1113 1.387 . S
H1115 C1127 0.930 . S
H1116 C1129 0.930 . S
H1117 C1130 0.930 . S
H1118 C1134 0.959 . S
H1119 C1134 0.959 . S
H1120 C1134 0.961 . S
H1121 C1135 0.960 . S
H1122 C1135 0.961 . S
H1123 C1135 0.959 . S
H1124 C1138 0.929 . S
H1125 C1139 0.931 . S
H1126 C1141 0.930 . S
C1127 H1115 0.930 . S
C1127 C1128 1.399 1_554 S
C1127 C1132 1.399 . S
C1128 C1127 1.399 1_556 S
C1128 C1129 1.376 . S
C1129 H1116 0.930 . S
C1129 C1128 1.376 . S
C1129 C1130 1.388 . S
C1130 H1117 0.930 . S
C1130 C1129 1.388 . S
C1130 C1131 1.390 . S
C1131 C1130 1.390 . S
C1131 C1132 1.394 1_556 S
C1131 C1137 1.465 . S
C1132 C1127 1.399 . S
C1132 C1131 1.394 1_554 S
C1132 C1133 1.516 . S
C1133 C1132 1.516 . S
C1133 C1134 1.502 . S
C1133 C1135 1.561 . S
C1133 C1136 1.526 . S
C1134 H1118 0.959 . S
C1134 H1119 0.959 . S
C1134 H1120 0.961 . S
C1134 C1133 1.502 . S
C1135 H1121 0.960 . S
C1135 H1122 0.961 . S
C1135 H1123 0.959 . S
C1135 C1133 1.561 . S
C1136 C1133 1.526 . S
C1136 C1137 1.396 1_554 S
C1136 C1141 1.390 . S
C1137 C1131 1.465 . S
C1137 C1136 1.396 1_556 S
C1137 C1138 1.399 . S
C1138 H1124 0.929 . S
C1138 C1137 1.399 . S
C1138 C1139 1.385 . S
C1139 H1125 0.931 . S
C1139 C1138 1.385 . S
C1139 C1140 1.389 1_556 S
C1140 C1139 1.389 1_554 S
C1140 C1141 1.387 . S
C1141 H1126 0.930 . S
C1141 C1136 1.390 . S
C1141 C1140 1.387 . S
H1142 C1154 0.930 . S
H1143 C1156 0.930 . S
H1144 C1157 0.930 . S
H1145 C1161 0.959 . S
H1146 C1161 0.959 . S
H1147 C1161 0.961 . S
H1148 C1162 0.960 . S
H1149 C1162 0.961 . S
H1150 C1162 0.959 . S
H1151 C1165 0.929 . S
H1152 C1166 0.931 . S
H1153 C1168 0.930 . S
C1154 H1142 0.930 . S
C1154 C1155 1.399 . S
C1154 C1159 1.399 . S
C1155 C1154 1.399 . S
C1155 C1156 1.376 . S
C1156 H1143 0.930 . S
C1156 C1155 1.376 . S
C1156 C1157 1.388 . S
C1157 H1144 0.930 . S
C1157 C1156 1.388 . S
C1157 C1158 1.390 . S
C1158 C1157 1.390 . S
C1158 C1159 1.394 . S
C1158 C1164 1.465 . S
C1159 C1154 1.399 . S
C1159 C1158 1.394 . S
C1159 C1160 1.516 . S
C1160 C1159 1.516 . S
C1160 C1161 1.502 . S
C1160 C1162 1.561 . S
C1160 C1163 1.526 . S
C1161 H1145 0.959 . S
C1161 H1146 0.959 . S
C1161 H1147 0.961 . S
C1161 C1160 1.502 . S
C1162 H1148 0.960 . S
C1162 H1149 0.961 . S
C1162 H1150 0.959 . S
C1162 C1160 1.561 . S
C1163 C1160 1.526 . S
C1163 C1164 1.396 . S
C1163 C1168 1.390 . S
C1164 C1158 1.465 . S
C1164 C1163 1.396 . S
C1164 C1165 1.399 . S
C1165 H1151 0.929 . S
C1165 C1164 1.399 . S
C1165 C1166 1.385 . S
C1166 H1152 0.931 . S
C1166 C1165 1.385 . S
C1166 C1167 1.389 . S
C1167 C1166 1.389 . S
C1167 C1168 1.387 . S
C1168 H1153 0.930 . S
C1168 C1163 1.390 . S
C1168 C1167 1.387 . S
H1169 C1181 0.930 . S
H1170 C1183 0.930 . S
H1171 C1184 0.930 . S
H1172 C1188 0.959 . S
H1173 C1188 0.959 . S
H1174 C1188 0.961 . S
H1175 C1189 0.960 . S
H1176 C1189 0.961 . S
H1177 C1189 0.959 . S
H1178 C1192 0.929 . S
H1179 C1193 0.931 . S
H1180 C1195 0.930 . S
C1181 H1169 0.930 . S
C1181 C1182 1.399 . S
C1181 C1186 1.399 . S
C1182 C1181 1.399 . S
C1182 C1183 1.376 . S
C1183 H1170 0.930 . S
C1183 C1182 1.376 . S
C1183 C1184 1.388 . S
C1184 H1171 0.930 . S
C1184 C1183 1.388 . S
C1184 C1185 1.390 . S
C1185 C1184 1.390 . S
C1185 C1186 1.394 . S
C1185 C1191 1.465 . S
C1186 C1181 1.399 . S
C1186 C1185 1.394 . S
C1186 C1187 1.516 . S
C1187 C1186 1.516 . S
C1187 C1188 1.502 . S
C1187 C1189 1.561 . S
C1187 C1190 1.526 . S
C1188 H1172 0.959 . S
C1188 H1173 0.959 . S
C1188 H1174 0.961 . S
C1188 C1187 1.502 . S
C1189 H1175 0.960 . S
C1189 H1176 0.961 . S
C1189 H1177 0.959 . S
C1189 C1187 1.561 . S
C1190 C1187 1.526 . S
C1190 C1191 1.396 . S
C1190 C1195 1.390 . S
C1191 C1185 1.465 . S
C1191 C1190 1.396 . S
C1191 C1192 1.399 . S
C1192 H1178 0.929 . S
C1192 C1191 1.399 . S
C1192 C1193 1.385 . S
C1193 H1179 0.931 . S
C1193 C1192 1.385 . S
C1193 C1194 1.389 . S
C1194 C1193 1.389 . S
C1194 C1195 1.387 . S
C1195 H1180 0.930 . S
C1195 C1190 1.390 . S
C1195 C1194 1.387 . S
H1196 C1208 0.930 . S
H1197 C1210 0.930 . S
H1198 C1211 0.930 . S
H1199 C1215 0.959 . S
H1200 C1215 0.959 . S
H1201 C1215 0.961 . S
H1202 C1216 0.960 . S
H1203 C1216 0.961 . S
H1204 C1216 0.959 . S
H1205 C1219 0.929 . S
H1206 C1220 0.931 . S
H1207 C1222 0.930 . S
C1208 H1196 0.930 . S
C1208 C1209 1.399 . S
C1208 C1213 1.399 . S
C1209 C1208 1.399 . S
C1209 C1210 1.376 . S
C1210 H1197 0.930 . S
C1210 C1209 1.376 . S
C1210 C1211 1.388 . S
C1211 H1198 0.930 . S
C1211 C1210 1.388 . S
C1211 C1212 1.390 . S
C1212 C1211 1.390 . S
C1212 C1213 1.394 . S
C1212 C1218 1.465 . S
C1213 C1208 1.399 . S
C1213 C1212 1.394 . S
C1213 C1214 1.516 . S
C1214 C1213 1.516 . S
C1214 C1215 1.502 . S
C1214 C1216 1.561 . S
C1214 C1217 1.526 . S
C1215 H1199 0.959 . S
C1215 H1200 0.959 . S
C1215 H1201 0.961 . S
C1215 C1214 1.502 . S
C1216 H1202 0.960 . S
C1216 H1203 0.961 . S
C1216 H1204 0.959 . S
C1216 C1214 1.561 . S
C1217 C1214 1.526 . S
C1217 C1218 1.396 . S
C1217 C1222 1.390 . S
C1218 C1212 1.465 . S
C1218 C1217 1.396 . S
C1218 C1219 1.399 . S
C1219 H1205 0.929 . S
C1219 C1218 1.399 . S
C1219 C1220 1.385 . S
C1220 H1206 0.931 . S
C1220 C1219 1.385 . S
C1220 C1221 1.389 . S
C1221 C1220 1.389 . S
C1221 C1222 1.387 . S
C1222 H1207 0.930 . S
C1222 C1217 1.390 . S
C1222 C1221 1.387 . S
H1223 C1235 0.930 . S
H1224 C1237 0.930 . S
H1225 C1238 0.930 . S
H1226 C1242 0.959 . S
H1227 C1242 0.959 . S
H1228 C1242 0.961 . S
H1229 C1243 0.960 . S
H1230 C1243 0.961 . S
H1231 C1243 0.959 . S
H1232 C1246 0.929 . S
H1233 C1247 0.931 . S
H1234 C1249 0.930 . S
C1235 H1223 0.930 . S
C1235 C1236 1.399 . S
C1235 C1240 1.399 . S
C1236 C1235 1.399 . S
C1236 C1237 1.376 . S
C1237 H1224 0.930 . S
C1237 C1236 1.376 . S
C1237 C1238 1.388 . S
C1238 H1225 0.930 . S
C1238 C1237 1.388 . S
C1238 C1239 1.390 . S
C1239 C1238 1.390 . S
C1239 C1240 1.394 . S
C1239 C1245 1.465 . S
C1240 C1235 1.399 . S
C1240 C1239 1.394 . S
C1240 C1241 1.516 . S
C1241 C1240 1.516 . S
C1241 C1242 1.502 . S
C1241 C1243 1.561 . S
C1241 C1244 1.526 . S
C1242 H1226 0.959 . S
C1242 H1227 0.959 . S
C1242 H1228 0.961 . S
C1242 C1241 1.502 . S
C1243 H1229 0.960 . S
C1243 H1230 0.961 . S
C1243 H1231 0.959 . S
C1243 C1241 1.561 . S
C1244 C1241 1.526 . S
C1244 C1245 1.396 . S
C1244 C1249 1.390 . S
C1245 C1239 1.465 . S
C1245 C1244 1.396 . S
C1245 C1246 1.399 . S
C1246 H1232 0.929 . S
C1246 C1245 1.399 . S
C1246 C1247 1.385 . S
C1247 H1233 0.931 . S
C1247 C1246 1.385 . S
C1247 C1248 1.389 . S
C1248 C1247 1.389 . S
C1248 C1249 1.387 . S
C1249 H1234 0.930 . S
C1249 C1244 1.390 . S
C1249 C1248 1.387 . S
H1250 C1262 0.930 . S
H1251 C1264 0.930 . S
H1252 C1265 0.930 . S
H1253 C1269 0.959 . S
H1254 C1269 0.959 . S
H1255 C1269 0.961 . S
H1256 C1270 0.960 . S
H1257 C1270 0.961 . S
H1258 C1270 0.959 . S
H1259 C1273 0.929 . S
H1260 C1274 0.931 . S
H1261 C1276 0.930 . S
C1262 H1250 0.930 . S
C1262 C1263 1.399 . S
C1262 C1267 1.399 . S
C1263 C1262 1.399 . S
C1263 C1264 1.376 . S
C1264 H1251 0.930 . S
C1264 C1263 1.376 . S
C1264 C1265 1.388 . S
C1265 H1252 0.930 . S
C1265 C1264 1.388 . S
C1265 C1266 1.390 . S
C1266 C1265 1.390 . S
C1266 C1267 1.394 . S
C1266 C1272 1.465 . S
C1267 C1262 1.399 . S
C1267 C1266 1.394 . S
C1267 C1268 1.516 . S
C1268 C1267 1.516 . S
C1268 C1269 1.502 . S
C1268 C1270 1.561 . S
C1268 C1271 1.526 . S
C1269 H1253 0.959 . S
C1269 H1254 0.959 . S
C1269 H1255 0.961 . S
C1269 C1268 1.502 . S
C1270 H1256 0.960 . S
C1270 H1257 0.961 . S
C1270 H1258 0.959 . S
C1270 C1268 1.561 . S
C1271 C1268 1.526 . S
C1271 C1272 1.396 . S
C1271 C1276 1.390 . S
C1272 C1266 1.465 . S
C1272 C1271 1.396 . S
C1272 C1273 1.399 . S
C1273 H1259 0.929 . S
C1273 C1272 1.399 . S
C1273 C1274 1.385 . S
C1274 H1260 0.931 . S
C1274 C1273 1.385 . S
C1274 C1275 1.389 . S
C1275 C1274 1.389 . S
C1275 C1276 1.387 . S
C1276 H1261 0.930 . S
C1276 C1271 1.390 . S
C1276 C1275 1.387 . S
H1277 C1289 0.930 . S
H1278 C1291 0.930 . S
H1279 C1292 0.930 . S
H1280 C1296 0.959 . S
H1281 C1296 0.959 . S
H1282 C1296 0.961 . S
H1283 C1297 0.960 . S
H1284 C1297 0.961 . S
H1285 C1297 0.959 . S
H1286 C1300 0.929 . S
H1287 C1301 0.931 . S
H1288 C1303 0.930 . S
C1289 H1277 0.930 . S
C1289 C1290 1.399 . S
C1289 C1294 1.399 . S
C1290 C1289 1.399 . S
C1290 C1291 1.376 . S
C1291 H1278 0.930 . S
C1291 C1290 1.376 . S
C1291 C1292 1.388 . S
C1292 H1279 0.930 . S
C1292 C1291 1.388 . S
C1292 C1293 1.390 . S
C1293 C1292 1.390 . S
C1293 C1294 1.394 . S
C1293 C1299 1.465 . S
C1294 C1289 1.399 . S
C1294 C1293 1.394 . S
C1294 C1295 1.516 . S
C1295 C1294 1.516 . S
C1295 C1296 1.502 . S
C1295 C1297 1.561 . S
C1295 C1298 1.526 . S
C1296 H1280 0.959 . S
C1296 H1281 0.959 . S
C1296 H1282 0.961 . S
C1296 C1295 1.502 . S
C1297 H1283 0.960 . S
C1297 H1284 0.961 . S
C1297 H1285 0.959 . S
C1297 C1295 1.561 . S
C1298 C1295 1.526 . S
C1298 C1299 1.396 . S
C1298 C1303 1.390 . S
C1299 C1293 1.465 . S
C1299 C1298 1.396 . S
C1299 C1300 1.399 . S
C1300 H1286 0.929 . S
C1300 C1299 1.399 . S
C1300 C1301 1.385 . S
C1301 H1287 0.931 . S
C1301 C1300 1.385 . S
C1301 C1302 1.389 . S
C1302 C1301 1.389 . S
C1302 C1303 1.387 . S
C1303 H1288 0.930 . S
C1303 C1298 1.390 . S
C1303 C1302 1.387 . S
H1304 C1316 0.930 . S
H1305 C1318 0.930 . S
H1306 C1319 0.930 . S
H1307 C1323 0.959 . S
H1308 C1323 0.959 . S
H1309 C1323 0.961 . S
H1310 C1324 0.960 . S
H1311 C1324 0.961 . S
H1312 C1324 0.959 . S
H1313 C1327 0.929 . S
H1314 C1328 0.931 . S
H1315 C1330 0.930 . S
C1316 H1304 0.930 . S
C1316 C1317 1.399 . S
C1316 C1321 1.399 . S
C1317 C1316 1.399 . S
C1317 C1318 1.376 . S
C1318 H1305 0.930 . S
C1318 C1317 1.376 . S
C1318 C1319 1.388 . S
C1319 H1306 0.930 . S
C1319 C1318 1.388 . S
C1319 C1320 1.390 . S
C1320 C1319 1.390 . S
C1320 C1321 1.394 . S
C1320 C1326 1.465 . S
C1321 C1316 1.399 . S
C1321 C1320 1.394 . S
C1321 C1322 1.516 . S
C1322 C1321 1.516 . S
C1322 C1323 1.502 . S
C1322 C1324 1.561 . S
C1322 C1325 1.526 . S
C1323 H1307 0.959 . S
C1323 H1308 0.959 . S
C1323 H1309 0.961 . S
C1323 C1322 1.502 . S
C1324 H1310 0.960 . S
C1324 H1311 0.961 . S
C1324 H1312 0.959 . S
C1324 C1322 1.561 . S
C1325 C1322 1.526 . S
C1325 C1326 1.396 . S
C1325 C1330 1.390 . S
C1326 C1320 1.465 . S
C1326 C1325 1.396 . S
C1326 C1327 1.399 . S
C1327 H1313 0.929 . S
C1327 C1326 1.399 . S
C1327 C1328 1.385 . S
C1328 H1314 0.931 . S
C1328 C1327 1.385 . S
C1328 C1329 1.389 . S
C1329 C1328 1.389 . S
C1329 C1330 1.387 . S
C1330 H1315 0.930 . S
C1330 C1325 1.390 . S
C1330 C1329 1.387 . S
H1331 C1343 0.930 . S
H1332 C1345 0.930 . S
H1333 C1346 0.930 . S
H1334 C1350 0.959 . S
H1335 C1350 0.959 . S
H1336 C1350 0.961 . S
H1337 C1351 0.960 . S
H1338 C1351 0.961 . S
H1339 C1351 0.959 . S
H1340 C1354 0.929 . S
H1341 C1355 0.931 . S
H1342 C1357 0.930 . S
C1343 H1331 0.930 . S
C1343 C1344 1.399 . S
C1343 C1348 1.399 . S
C1344 C1343 1.399 . S
C1344 C1345 1.376 . S
C1345 H1332 0.930 . S
C1345 C1344 1.376 . S
C1345 C1346 1.388 . S
C1346 H1333 0.930 . S
C1346 C1345 1.388 . S
C1346 C1347 1.390 . S
C1347 C1346 1.390 . S
C1347 C1348 1.394 . S
C1347 C1353 1.465 . S
C1348 C1343 1.399 . S
C1348 C1347 1.394 . S
C1348 C1349 1.516 . S
C1349 C1348 1.516 . S
C1349 C1350 1.502 . S
C1349 C1351 1.561 . S
C1349 C1352 1.526 . S
C1350 H1334 0.959 . S
C1350 H1335 0.959 . S
C1350 H1336 0.961 . S
C1350 C1349 1.502 . S
C1351 H1337 0.960 . S
C1351 H1338 0.961 . S
C1351 H1339 0.959 . S
C1351 C1349 1.561 . S
C1352 C1349 1.526 . S
C1352 C1353 1.396 . S
C1352 C1357 1.390 . S
C1353 C1347 1.465 . S
C1353 C1352 1.396 . S
C1353 C1354 1.399 . S
C1354 H1340 0.929 . S
C1354 C1353 1.399 . S
C1354 C1355 1.385 . S
C1355 H1341 0.931 . S
C1355 C1354 1.385 . S
C1355 C1356 1.389 . S
C1356 C1355 1.389 . S
C1356 C1357 1.387 . S
C1357 H1342 0.930 . S
C1357 C1352 1.390 . S
C1357 C1356 1.387 . S
H1358 C1370 0.930 . S
H1359 C1372 0.930 . S
H1360 C1373 0.930 . S
H1361 C1377 0.959 . S
H1362 C1377 0.959 . S
H1363 C1377 0.961 . S
H1364 C1378 0.960 . S
H1365 C1378 0.961 . S
H1366 C1378 0.959 . S
H1367 C1381 0.929 . S
H1368 C1382 0.931 . S
H1369 C1384 0.930 . S
C1370 H1358 0.930 . S
C1370 C1371 1.399 . S
C1370 C1375 1.399 . S
C1371 C1370 1.399 . S
C1371 C1372 1.376 . S
C1372 H1359 0.930 . S
C1372 C1371 1.376 . S
C1372 C1373 1.388 . S
C1373 H1360 0.930 . S
C1373 C1372 1.388 . S
C1373 C1374 1.390 . S
C1374 C1373 1.390 . S
C1374 C1375 1.394 . S
C1374 C1380 1.465 . S
C1375 C1370 1.399 . S
C1375 C1374 1.394 . S
C1375 C1376 1.516 . S
C1376 C1375 1.516 . S
C1376 C1377 1.502 . S
C1376 C1378 1.561 . S
C1376 C1379 1.526 . S
C1377 H1361 0.959 . S
C1377 H1362 0.959 . S
C1377 H1363 0.961 . S
C1377 C1376 1.502 . S
C1378 H1364 0.960 . S
C1378 H1365 0.961 . S
C1378 H1366 0.959 . S
C1378 C1376 1.561 . S
C1379 C1376 1.526 . S
C1379 C1380 1.396 . S
C1379 C1384 1.390 . S
C1380 C1374 1.465 . S
C1380 C1379 1.396 . S
C1380 C1381 1.399 . S
C1381 H1367 0.929 . S
C1381 C1380 1.399 . S
C1381 C1382 1.385 . S
C1382 H1368 0.931 . S
C1382 C1381 1.385 . S
C1382 C1383 1.389 . S
C1383 C1382 1.389 . S
C1383 C1384 1.387 . S
C1384 H1369 0.930 . S
C1384 C1379 1.390 . S
C1384 C1383 1.387 . S
H1385 C1397 0.930 . S
H1386 C1399 0.930 . S
H1387 C1400 0.930 . S
H1388 C1404 0.959 . S
H1389 C1404 0.959 . S
H1390 C1404 0.961 . S
H1391 C1405 0.960 . S
H1392 C1405 0.961 . S
H1393 C1405 0.959 . S
H1394 C1408 0.929 . S
H1395 C1409 0.931 . S
H1396 C1411 0.930 . S
C1397 H1385 0.930 . S
C1397 C1398 1.399 . S
C1397 C1402 1.399 . S
C1398 C1397 1.399 . S
C1398 C1399 1.376 . S
C1399 H1386 0.930 . S
C1399 C1398 1.376 . S
C1399 C1400 1.388 . S
C1400 H1387 0.930 . S
C1400 C1399 1.388 . S
C1400 C1401 1.390 . S
C1401 C1400 1.390 . S
C1401 C1402 1.394 . S
C1401 C1407 1.465 . S
C1402 C1397 1.399 . S
C1402 C1401 1.394 . S
C1402 C1403 1.516 . S
C1403 C1402 1.516 . S
C1403 C1404 1.502 . S
C1403 C1405 1.561 . S
C1403 C1406 1.526 . S
C1404 H1388 0.959 . S
C1404 H1389 0.959 . S
C1404 H1390 0.961 . S
C1404 C1403 1.502 . S
C1405 H1391 0.960 . S
C1405 H1392 0.961 . S
C1405 H1393 0.959 . S
C1405 C1403 1.561 . S
C1406 C1403 1.526 . S
C1406 C1407 1.396 . S
C1406 C1411 1.390 . S
C1407 C1401 1.465 . S
C1407 C1406 1.396 . S
C1407 C1408 1.399 . S
C1408 H1394 0.929 . S
C1408 C1407 1.399 . S
C1408 C1409 1.385 . S
C1409 H1395 0.931 . S
C1409 C1408 1.385 . S
C1409 C1410 1.389 . S
C1410 C1409 1.389 . S
C1410 C1411 1.387 . S
C1411 H1396 0.930 . S
C1411 C1406 1.390 . S
C1411 C1410 1.387 . S
H1412 C1424 0.930 . S
H1413 C1426 0.930 . S
H1414 C1427 0.930 . S
H1415 C1431 0.959 . S
H1416 C1431 0.959 . S
H1417 C1431 0.961 . S
H1418 C1432 0.960 . S
H1419 C1432 0.961 . S
H1420 C1432 0.959 . S
H1421 C1435 0.929 . S
H1422 C1436 0.931 . S
H1423 C1438 0.930 1_655 S
C1424 H1412 0.930 . S
C1424 C1425 1.399 . S
C1424 C1429 1.399 . S
C1425 C1424 1.399 . S
C1425 C1426 1.376 . S
C1426 H1413 0.930 . S
C1426 C1425 1.376 . S
C1426 C1427 1.388 . S
C1427 H1414 0.930 . S
C1427 C1426 1.388 . S
C1427 C1428 1.390 . S
C1428 C1427 1.390 . S
C1428 C1429 1.394 . S
C1428 C1434 1.465 . S
C1429 C1424 1.399 . S
C1429 C1428 1.394 . S
C1429 C1430 1.516 . S
C1430 C1429 1.516 . S
C1430 C1431 1.502 1_455 S
C1430 C1432 1.561 . S
C1430 C1433 1.526 . S
C1431 H1415 0.959 . S
C1431 H1416 0.959 . S
C1431 H1417 0.961 . S
C1431 C1430 1.502 1_655 S
C1432 H1418 0.960 . S
C1432 H1419 0.961 . S
C1432 H1420 0.959 . S
C1432 C1430 1.561 . S
C1433 C1430 1.526 . S
C1433 C1434 1.396 . S
C1433 C1438 1.390 . S
C1434 C1428 1.465 . S
C1434 C1433 1.396 . S
C1434 C1435 1.399 . S
C1435 H1421 0.929 . S
C1435 C1434 1.399 . S
C1435 C1436 1.385 . S
C1436 H1422 0.931 . S
C1436 C1435 1.385 . S
C1436 C1437 1.389 . S
C1437 C1436 1.389 . S
C1437 C1438 1.387 . S
C1438 H1423 0.930 1_455 S
C1438 C1433 1.390 . S
C1438 C1437 1.387 . S
H1439 C1451 0.930 . S
H1440 C1453 0.930 . S
H1441 C1454 0.930 . S
H1442 C1458 0.959 . S
H1443 C1458 0.959 . S
H1444 C1458 0.961 . S
H1445 C1459 0.960 . S
H1446 C1459 0.961 . S
H1447 C1459 0.959 . S
H1448 C1462 0.929 . S
H1449 C1463 0.931 . S
H1450 C1465 0.930 . S
C1451 H1439 0.930 . S
C1451 C1452 1.399 . S
C1451 C1456 1.399 . S
C1452 C1451 1.399 . S
C1452 C1453 1.376 . S
C1453 H1440 0.930 . S
C1453 C1452 1.376 . S
C1453 C1454 1.388 . S
C1454 H1441 0.930 . S
C1454 C1453 1.388 . S
C1454 C1455 1.390 . S
C1455 C1454 1.390 . S
C1455 C1456 1.394 . S
C1455 C1461 1.465 . S
C1456 C1451 1.399 . S
C1456 C1455 1.394 . S
C1456 C1457 1.516 . S
C1457 C1456 1.516 . S
C1457 C1458 1.502 . S
C1457 C1459 1.561 . S
C1457 C1460 1.526 . S
C1458 H1442 0.959 . S
C1458 H1443 0.959 . S
C1458 H1444 0.961 . S
C1458 C1457 1.502 . S
C1459 H1445 0.960 . S
C1459 H1446 0.961 . S
C1459 H1447 0.959 . S
C1459 C1457 1.561 . S
C1460 C1457 1.526 . S
C1460 C1461 1.396 . S
C1460 C1465 1.390 . S
C1461 C1455 1.465 . S
C1461 C1460 1.396 . S
C1461 C1462 1.399 . S
C1462 H1448 0.929 . S
C1462 C1461 1.399 . S
C1462 C1463 1.385 . S
C1463 H1449 0.931 . S
C1463 C1462 1.385 . S
C1463 C1464 1.389 . S
C1464 C1463 1.389 . S
C1464 C1465 1.387 . S
C1465 H1450 0.930 . S
C1465 C1460 1.390 . S
C1465 C1464 1.387 . S
H1466 C1478 0.930 . S
H1467 C1480 0.930 . S
H1468 C1481 0.930 . S
H1469 C1485 0.959 . S
H1470 C1485 0.959 . S
H1471 C1485 0.961 . S
H1472 C1486 0.960 . S
H1473 C1486 0.961 . S
H1474 C1486 0.959 . S
H1475 C1489 0.929 . S
H1476 C1490 0.931 . S
H1477 C1492 0.930 . S
C1478 H1466 0.930 . S
C1478 C1479 1.399 . S
C1478 C1483 1.399 . S
C1479 C1478 1.399 . S
C1479 C1480 1.376 . S
C1480 H1467 0.930 . S
C1480 C1479 1.376 . S
C1480 C1481 1.388 . S
C1481 H1468 0.930 . S
C1481 C1480 1.388 . S
C1481 C1482 1.390 . S
C1482 C1481 1.390 . S
C1482 C1483 1.394 . S
C1482 C1488 1.465 . S
C1483 C1478 1.399 . S
C1483 C1482 1.394 . S
C1483 C1484 1.516 . S
C1484 C1483 1.516 . S
C1484 C1485 1.502 . S
C1484 C1486 1.561 . S
C1484 C1487 1.526 . S
C1485 H1469 0.959 . S
C1485 H1470 0.959 . S
C1485 H1471 0.961 . S
C1485 C1484 1.502 . S
C1486 H1472 0.960 . S
C1486 H1473 0.961 . S
C1486 H1474 0.959 . S
C1486 C1484 1.561 . S
C1487 C1484 1.526 . S
C1487 C1488 1.396 . S
C1487 C1492 1.390 . S
C1488 C1482 1.465 . S
C1488 C1487 1.396 . S
C1488 C1489 1.399 1_556 S
C1489 H1475 0.929 . S
C1489 C1488 1.399 1_554 S
C1489 C1490 1.385 . S
C1490 H1476 0.931 . S
C1490 C1489 1.385 . S
C1490 C1491 1.420 . S
C1491 C1490 1.420 . S
C1491 C1492 1.344 1_554 S
C1492 H1477 0.930 . S
C1492 C1487 1.390 . S
C1492 C1491 1.344 1_556 S
H1493 C1505 0.930 . S
H1494 C1507 0.930 . S
H1495 C1508 0.930 . S
H1496 C1512 0.959 . S
H1497 C1512 0.959 . S
H1498 C1512 0.961 . S
H1499 C1513 0.960 . S
H1500 C1513 0.961 . S
H1501 C1513 0.959 . S
H1502 C1516 0.929 . S
H1503 C1517 0.931 . S
H1504 C1519 0.930 . S
C1505 H1493 0.930 . S
C1505 C1506 1.399 . S
C1505 C1510 1.399 . S
C1506 C1505 1.399 . S
C1506 C1507 1.376 . S
C1507 H1494 0.930 . S
C1507 C1506 1.376 . S
C1507 C1508 1.388 . S
C1508 H1495 0.930 . S
C1508 C1507 1.388 . S
C1508 C1509 1.390 . S
C1509 C1508 1.390 . S
C1509 C1510 1.394 . S
C1509 C1515 1.465 . S
C1510 C1505 1.399 . S
C1510 C1509 1.394 . S
C1510 C1511 1.516 . S
C1511 C1510 1.516 . S
C1511 C1512 1.502 . S
C1511 C1513 1.561 . S
C1511 C1514 1.526 . S
C1512 H1496 0.959 . S
C1512 H1497 0.959 . S
C1512 H1498 0.961 . S
C1512 C1511 1.502 . S
C1513 H1499 0.960 . S
C1513 H1500 0.961 . S
C1513 H1501 0.959 . S
C1513 C1511 1.561 . S
C1514 C1511 1.526 . S
C1514 C1515 1.396 . S
C1514 C1519 1.390 . S
C1515 C1509 1.465 . S
C1515 C1514 1.396 . S
C1515 C1516 1.399 . S
C1516 H1502 0.929 . S
C1516 C1515 1.399 . S
C1516 C1517 1.385 . S
C1517 H1503 0.931 . S
C1517 C1516 1.385 . S
C1517 C1518 1.389 . S
C1518 C1517 1.389 . S
C1518 C1519 1.387 . S
C1519 H1504 0.930 . S
C1519 C1514 1.390 . S
C1519 C1518 1.387 . S
H1520 C1532 0.930 . S
H1521 C1534 0.930 . S
H1522 C1535 0.930 . S
H1523 C1539 0.959 . S
H1524 C1539 0.959 . S
H1525 C1539 0.961 . S
H1526 C1540 0.960 . S
H1527 C1540 0.961 . S
H1528 C1540 0.959 . S
H1529 C1543 0.929 . S
H1530 C1544 0.931 . S
H1531 C1546 0.930 . S
C1532 H1520 0.930 . S
C1532 C1533 1.399 . S
C1532 C1537 1.399 . S
C1533 C1532 1.399 . S
C1533 C1534 1.376 1_545 S
C1534 H1521 0.930 . S
C1534 C1533 1.376 1_565 S
C1534 C1535 1.388 . S
C1535 H1522 0.930 . S
C1535 C1534 1.388 . S
C1535 C1536 1.390 . S
C1536 C1535 1.390 . S
C1536 C1537 1.394 1_565 S
C1536 C1542 1.465 . S
C1537 C1532 1.399 . S
C1537 C1536 1.394 1_545 S
C1537 C1538 1.516 . S
C1538 C1537 1.516 . S
C1538 C1539 1.502 . S
C1538 C1540 1.561 . S
C1538 C1541 1.526 . S
C1539 H1523 0.959 . S
C1539 H1524 0.959 . S
C1539 H1525 0.961 . S
C1539 C1538 1.502 . S
C1540 H1526 0.960 . S
C1540 H1527 0.961 . S
C1540 H1528 0.959 . S
C1540 C1538 1.561 . S
C1541 C1538 1.526 . S
C1541 C1542 1.396 1_545 S
C1541 C1546 1.390 . S
C1542 C1536 1.465 . S
C1542 C1541 1.396 1_565 S
C1542 C1543 1.399 . S
C1543 H1529 0.929 . S
C1543 C1542 1.399 . S
C1543 C1544 1.385 . S
C1544 H1530 0.931 . S
C1544 C1543 1.385 . S
C1544 C1545 1.389 1_565 S
C1545 C1544 1.389 1_545 S
C1545 C1546 1.387 . S
C1546 H1531 0.930 . S
C1546 C1541 1.390 . S
C1546 C1545 1.387 . S
H1547 C1559 0.930 . S
H1548 C1561 0.930 . S
H1549 C1562 0.930 . S
H1550 C1566 0.959 . S
H1551 C1566 0.959 . S
H1552 C1566 0.961 . S
H1553 C1567 0.960 . S
H1554 C1567 0.961 . S
H1555 C1567 0.959 . S
H1556 C1570 0.929 . S
H1557 C1571 0.931 . S
H1558 C1573 0.930 . S
C1559 H1547 0.930 . S
C1559 C1560 1.399 . S
C1559 C1564 1.399 . S
C1560 C1559 1.399 . S
C1560 C1561 1.376 . S
C1561 H1548 0.930 . S
C1561 C1560 1.376 . S
C1561 C1562 1.388 . S
C1562 H1549 0.930 . S
C1562 C1561 1.388 . S
C1562 C1563 1.390 . S
C1563 C1562 1.390 . S
C1563 C1564 1.394 . S
C1563 C1569 1.465 . S
C1564 C1559 1.399 . S
C1564 C1563 1.394 . S
C1564 C1565 1.516 . S
C1565 C1564 1.516 . S
C1565 C1566 1.502 . S
C1565 C1567 1.561 . S
C1565 C1568 1.526 . S
C1566 H1550 0.959 . S
C1566 H1551 0.959 . S
C1566 H1552 0.961 . S
C1566 C1565 1.502 . S
C1567 H1553 0.960 . S
C1567 H1554 0.961 . S
C1567 H1555 0.959 . S
C1567 C1565 1.561 . S
C1568 C1565 1.526 . S
C1568 C1569 1.396 . S
C1568 C1573 1.390 . S
C1569 C1563 1.465 . S
C1569 C1568 1.396 . S
C1569 C1570 1.399 . S
C1570 H1556 0.929 . S
C1570 C1569 1.399 . S
C1570 C1571 1.385 . S
C1571 H1557 0.931 . S
C1571 C1570 1.385 . S
C1571 C1572 1.389 . S
C1572 C1571 1.389 . S
C1572 C1573 1.387 . S
C1573 H1558 0.930 . S
C1573 C1568 1.390 . S
C1573 C1572 1.387 . S
H1574 C1586 0.930 1_565 S
H1575 C1588 0.930 . S
H1576 C1589 0.930 . S
H1577 C1593 0.959 . S
H1578 C1593 0.959 . S
H1579 C1593 0.961 . S
H1580 C1594 0.960 . S
H1581 C1594 0.961 . S
H1582 C1594 0.959 . S
H1583 C1597 0.929 . S
H1584 C1598 0.931 . S
H1585 C1600 0.930 1_565 S
C1586 H1574 0.930 1_545 S
C1586 C1587 1.399 . S
C1586 C1591 1.399 . S
C1587 C1586 1.399 . S
C1587 C1588 1.376 . S
C1588 H1575 0.930 . S
C1588 C1587 1.376 . S
C1588 C1589 1.388 . S
C1589 H1576 0.930 . S
C1589 C1588 1.388 . S
C1589 C1590 1.390 . S
C1590 C1589 1.390 . S
C1590 C1591 1.394 . S
C1590 C1596 1.465 . S
C1591 C1586 1.399 . S
C1591 C1590 1.394 . S
C1591 C1592 1.516 1_545 S
C1592 C1591 1.516 1_565 S
C1592 C1593 1.502 . S
C1592 C1594 1.561 . S
C1592 C1595 1.526 1_565 S
C1593 H1577 0.959 . S
C1593 H1578 0.959 . S
C1593 H1579 0.961 . S
C1593 C1592 1.502 . S
C1594 H1580 0.960 . S
C1594 H1581 0.961 . S
C1594 H1582 0.959 . S
C1594 C1592 1.561 . S
C1595 C1592 1.526 1_545 S
C1595 C1596 1.396 . S
C1595 C1600 1.390 . S
C1596 C1590 1.465 . S
C1596 C1595 1.396 . S
C1596 C1597 1.399 . S
C1597 H1583 0.929 . S
C1597 C1596 1.399 . S
C1597 C1598 1.385 . S
C1598 H1584 0.931 . S
C1598 C1597 1.385 . S
C1598 C1599 1.389 . S
C1599 C1598 1.389 . S
C1599 C1600 1.387 . S
C1600 H1585 0.930 1_545 S
C1600 C1595 1.390 . S
C1600 C1599 1.387 . S
H1601 C1613 0.930 . S
H1602 C1615 0.930 . S
H1603 C1616 0.930 . S
H1604 C1620 0.959 . S
H1605 C1620 0.959 . S
H1606 C1620 0.961 . S
H1607 C1621 0.960 . S
H1608 C1621 0.961 . S
H1609 C1621 0.959 . S
H1610 C1624 0.929 . S
H1611 C1625 0.931 . S
H1612 C1627 0.930 . S
C1613 H1601 0.930 . S
C1613 C1614 1.399 . S
C1613 C1618 1.399 . S
C1614 C1613 1.399 . S
C1614 C1615 1.376 . S
C1615 H1602 0.930 . S
C1615 C1614 1.376 . S
C1615 C1616 1.388 . S
C1616 H1603 0.930 . S
C1616 C1615 1.388 . S
C1616 C1617 1.390 . S
C1617 C1616 1.390 . S
C1617 C1618 1.394 . S
C1617 C1623 1.465 . S
C1618 C1613 1.399 . S
C1618 C1617 1.394 . S
C1618 C1619 1.516 . S
C1619 C1618 1.516 . S
C1619 C1620 1.502 . S
C1619 C1621 1.561 . S
C1619 C1622 1.526 . S
C1620 H1604 0.959 . S
C1620 H1605 0.959 . S
C1620 H1606 0.961 . S
C1620 C1619 1.502 . S
C1621 H1607 0.960 . S
C1621 H1608 0.961 . S
C1621 H1609 0.959 . S
C1621 C1619 1.561 . S
C1622 C1619 1.526 . S
C1622 C1623 1.396 . S
C1622 C1627 1.390 . S
C1623 C1617 1.465 . S
C1623 C1622 1.396 . S
C1623 C1624 1.399 . S
C1624 H1610 0.929 . S
C1624 C1623 1.399 . S
C1624 C1625 1.385 . S
C1625 H1611 0.931 . S
C1625 C1624 1.385 . S
C1625 C1626 1.389 . S
C1626 C1625 1.389 . S
C1626 C1627 1.387 . S
C1627 H1612 0.930 . S
C1627 C1622 1.390 . S
C1627 C1626 1.387 . S
H1628 C1640 0.930 . S
H1629 C1642 0.930 . S
H1630 C1643 0.930 . S
H1631 C1647 0.959 . S
H1632 C1647 0.959 . S
H1633 C1647 0.961 . S
H1634 C1648 0.960 . S
H1635 C1648 0.961 . S
H1636 C1648 0.959 . S
H1637 C1651 0.929 . S
H1638 C1652 0.931 . S
H1639 C1654 0.930 . S
C1640 H1628 0.930 . S
C1640 C1641 1.399 . S
C1640 C1645 1.399 . S
C1641 C1640 1.399 . S
C1641 C1642 1.376 1_545 S
C1642 H1629 0.930 . S
C1642 C1641 1.376 1_565 S
C1642 C1643 1.388 . S
C1643 H1630 0.930 . S
C1643 C1642 1.388 . S
C1643 C1644 1.390 . S
C1644 C1643 1.390 . S
C1644 C1645 1.394 1_565 S
C1644 C1650 1.471 . S
C1645 C1640 1.399 . S
C1645 C1644 1.394 1_545 S
C1645 C1646 1.516 . S
C1646 C1645 1.516 . S
C1646 C1647 1.502 . S
C1646 C1648 1.561 . S
C1646 C1649 1.526 . S
C1647 H1631 0.959 . S
C1647 H1632 0.959 . S
C1647 H1633 0.961 . S
C1647 C1646 1.502 . S
C1648 H1634 0.960 . S
C1648 H1635 0.961 . S
C1648 H1636 0.959 . S
C1648 C1646 1.561 . S
C1649 C1646 1.526 . S
C1649 C1650 1.369 1_545 S
C1649 C1654 1.390 . S
C1650 C1644 1.471 . S
C1650 C1649 1.369 1_565 S
C1650 C1651 1.415 . S
C1651 H1637 0.929 . S
C1651 C1650 1.415 . S
C1651 C1652 1.385 . S
C1652 H1638 0.931 . S
C1652 C1651 1.385 . S
C1652 C1653 1.389 1_565 S
C1653 C1652 1.389 1_545 S
C1653 C1654 1.387 . S
C1654 H1639 0.930 . S
C1654 C1649 1.390 . S
C1654 C1653 1.387 . S
H1655 C1667 0.930 . S
H1656 C1669 0.930 . S
H1657 C1670 0.930 . S
H1658 C1674 0.959 . S
H1659 C1674 0.959 . S
H1660 C1674 0.961 . S
H1661 C1675 0.960 . S
H1662 C1675 0.961 . S
H1663 C1675 0.959 . S
H1664 C1678 0.929 . S
H1665 C1679 0.931 . S
H1666 C1681 0.930 . S
C1667 H1655 0.930 . S
C1667 C1668 1.399 . S
C1667 C1672 1.399 . S
C1668 C1667 1.399 . S
C1668 C1669 1.376 . S
C1669 H1656 0.930 . S
C1669 C1668 1.376 . S
C1669 C1670 1.388 . S
C1670 H1657 0.930 . S
C1670 C1669 1.388 . S
C1670 C1671 1.390 . S
C1671 C1670 1.390 . S
C1671 C1672 1.394 . S
C1671 C1677 1.465 . S
C1672 C1667 1.399 . S
C1672 C1671 1.394 . S
C1672 C1673 1.516 . S
C1673 C1672 1.516 . S
C1673 C1674 1.502 . S
C1673 C1675 1.561 . S
C1673 C1676 1.526 . S
C1674 H1658 0.959 . S
C1674 H1659 0.959 . S
C1674 H1660 0.961 . S
C1674 C1673 1.502 . S
C1675 H1661 0.960 . S
C1675 H1662 0.961 . S
C1675 H1663 0.959 . S
C1675 C1673 1.561 . S
C1676 C1673 1.526 . S
C1676 C1677 1.396 . S
C1676 C1681 1.390 . S
C1677 C1671 1.465 . S
C1677 C1676 1.396 . S
C1677 C1678 1.399 . S
C1678 H1664 0.929 . S
C1678 C1677 1.399 . S
C1678 C1679 1.385 . S
C1679 H1665 0.931 . S
C1679 C1678 1.385 . S
C1679 C1680 1.389 . S
C1680 C1679 1.389 . S
C1680 C1681 1.387 . S
C1681 H1666 0.930 . S
C1681 C1676 1.390 . S
C1681 C1680 1.387 . S
H1682 C1694 0.930 . S
H1683 C1696 0.930 . S
H1684 C1697 0.930 1_565 S
H1685 C1701 0.959 . S
H1686 C1701 0.959 . S
H1687 C1701 0.961 . S
H1688 C1702 0.960 1_545 S
H1689 C1702 0.961 . S
H1690 C1702 0.959 . S
H1691 C1705 0.929 . S
H1692 C1706 0.931 . S
H1693 C1708 0.930 . S
C1694 H1682 0.930 . S
C1694 C1695 1.399 . S
C1694 C1699 1.399 . S
C1695 C1694 1.399 . S
C1695 C1696 1.376 . S
C1696 H1683 0.930 . S
C1696 C1695 1.376 . S
C1696 C1697 1.388 . S
C1697 H1684 0.930 1_545 S
C1697 C1696 1.388 . S
C1697 C1698 1.390 . S
C1698 C1697 1.390 . S
C1698 C1699 1.394 . S
C1698 C1704 1.465 . S
C1699 C1694 1.399 . S
C1699 C1698 1.394 . S
C1699 C1700 1.516 . S
C1700 C1699 1.516 . S
C1700 C1701 1.502 . S
C1700 C1702 1.561 1_545 S
C1700 C1703 1.526 . S
C1701 H1685 0.959 . S
C1701 H1686 0.959 . S
C1701 H1687 0.961 . S
C1701 C1700 1.502 . S
C1702 H1688 0.960 1_565 S
C1702 H1689 0.961 . S
C1702 H1690 0.959 . S
C1702 C1700 1.561 1_565 S
C1703 C1700 1.526 . S
C1703 C1704 1.396 . S
C1703 C1708 1.390 . S
C1704 C1698 1.465 . S
C1704 C1703 1.396 . S
C1704 C1705 1.399 1_545 S
C1705 H1691 0.929 . S
C1705 C1704 1.399 1_565 S
C1705 C1706 1.385 . S
C1706 H1692 0.931 . S
C1706 C1705 1.385 . S
C1706 C1707 1.389 . S
C1707 C1706 1.389 . S
C1707 C1708 1.387 1_565 S
C1708 H1693 0.930 . S
C1708 C1703 1.390 . S
C1708 C1707 1.387 1_545 S
H1709 C1721 0.930 . S
H1710 C1723 0.930 . S
H1711 C1724 0.930 . S
H1712 C1728 0.959 . S
H1713 C1728 0.959 . S
H1714 C1728 0.961 . S
H1715 C1729 0.960 . S
H1716 C1729 0.961 . S
H1717 C1729 0.959 . S
H1718 C1732 0.929 . S
H1719 C1733 0.931 . S
H1720 C1735 0.930 . S
C1721 H1709 0.930 . S
C1721 C1722 1.399 . S
C1721 C1726 1.399 . S
C1722 C1721 1.399 . S
C1722 C1723 1.376 . S
C1723 H1710 0.930 . S
C1723 C1722 1.376 . S
C1723 C1724 1.388 . S
C1724 H1711 0.930 . S
C1724 C1723 1.388 . S
C1724 C1725 1.390 . S
C1725 C1724 1.390 . S
C1725 C1726 1.394 . S
C1725 C1731 1.465 . S
C1726 C1721 1.399 . S
C1726 C1725 1.394 . S
C1726 C1727 1.516 . S
C1727 C1726 1.516 . S
C1727 C1728 1.502 . S
C1727 C1729 1.561 . S
C1727 C1730 1.526 . S
C1728 H1712 0.959 . S
C1728 H1713 0.959 . S
C1728 H1714 0.961 . S
C1728 C1727 1.502 . S
C1729 H1715 0.960 . S
C1729 H1716 0.961 . S
C1729 H1717 0.959 . S
C1729 C1727 1.561 . S
C1730 C1727 1.526 . S
C1730 C1731 1.396 . S
C1730 C1735 1.390 . S
C1731 C1725 1.465 . S
C1731 C1730 1.396 . S
C1731 C1732 1.399 . S
C1732 H1718 0.929 . S
C1732 C1731 1.399 . S
C1732 C1733 1.385 . S
C1733 H1719 0.931 . S
C1733 C1732 1.385 . S
C1733 C1734 1.389 . S
C1734 C1733 1.389 . S
C1734 C1735 1.387 . S
C1735 H1720 0.930 . S
C1735 C1730 1.390 . S
C1735 C1734 1.387 . S
H1736 C1748 0.930 1_556 S
H1737 C1750 0.930 . S
H1738 C1751 0.930 . S
H1739 C1755 0.959 . S
H1740 C1755 0.959 . S
H1741 C1755 0.961 . S
H1742 C1756 0.960 . S
H1743 C1756 0.961 . S
H1744 C1756 0.959 . S
H1745 C1759 0.929 . S
H1746 C1760 0.931 . S
H1747 C1762 0.930 . S
C1748 H1736 0.930 1_554 S
C1748 C1749 1.399 . S
C1748 C1753 1.399 . S
C1749 C1748 1.399 . S
C1749 C1750 1.376 . S
C1750 H1737 0.930 . S
C1750 C1749 1.376 . S
C1750 C1751 1.388 . S
C1751 H1738 0.930 . S
C1751 C1750 1.388 . S
C1751 C1752 1.390 . S
C1752 C1751 1.390 . S
C1752 C1753 1.394 . S
C1752 C1758 1.465 . S
C1753 C1748 1.399 . S
C1753 C1752 1.394 . S
C1753 C1754 1.516 1_554 S
C1754 C1753 1.516 1_556 S
C1754 C1755 1.502 . S
C1754 C1756 1.561 . S
C1754 C1757 1.526 1_556 S
C1755 H1739 0.959 . S
C1755 H1740 0.959 . S
C1755 H1741 0.961 . S
C1755 C1754 1.502 . S
C1756 H1742 0.960 . S
C1756 H1743 0.961 . S
C1756 H1744 0.959 . S
C1756 C1754 1.561 . S
C1757 C1754 1.526 1_554 S
C1757 C1758 1.396 . S
C1757 C1762 1.390 1_554 S
C1758 C1752 1.465 . S
C1758 C1757 1.396 . S
C1758 C1759 1.399 . S
C1759 H1745 0.929 . S
C1759 C1758 1.399 . S
C1759 C1760 1.385 . S
C1760 H1746 0.931 . S
C1760 C1759 1.385 . S
C1760 C1761 1.389 . S
C1761 C1760 1.389 . S
C1761 C1762 1.387 1_554 S
C1762 H1747 0.930 . S
C1762 C1757 1.390 1_556 S
C1762 C1761 1.387 1_556 S
H1763 C1775 0.930 . S
H1764 C1777 0.930 . S
H1765 C1778 0.930 . S
H1766 C1782 0.959 1_554 S
H1767 C1782 0.959 . S
H1768 C1782 0.961 . S
H1769 C1783 0.960 . S
H1770 C1783 0.961 . S
H1771 C1783 0.959 1_554 S
H1772 C1786 0.929 . S
H1773 C1787 0.931 . S
H1774 C1789 0.930 . S
C1775 H1763 0.930 . S
C1775 C1776 1.399 . S
C1775 C1780 1.399 . S
C1776 C1775 1.399 . S
C1776 C1777 1.376 . S
C1777 H1764 0.930 . S
C1777 C1776 1.376 . S
C1777 C1778 1.388 . S
C1778 H1765 0.930 . S
C1778 C1777 1.388 . S
C1778 C1779 1.390 . S
C1779 C1778 1.390 . S
C1779 C1780 1.394 . S
C1779 C1785 1.465 . S
C1780 C1775 1.399 . S
C1780 C1779 1.394 . S
C1780 C1781 1.516 . S
C1781 C1780 1.516 . S
C1781 C1782 1.502 1_554 S
C1781 C1783 1.561 1_554 S
C1781 C1784 1.526 . S
C1782 H1766 0.959 1_556 S
C1782 H1767 0.959 . S
C1782 H1768 0.961 . S
C1782 C1781 1.502 1_556 S
C1783 H1769 0.960 . S
C1783 H1770 0.961 . S
C1783 H1771 0.959 1_556 S
C1783 C1781 1.561 1_556 S
C1784 C1781 1.526 . S
C1784 C1785 1.396 . S
C1784 C1789 1.390 . S
C1785 C1779 1.465 . S
C1785 C1784 1.396 . S
C1785 C1786 1.399 . S
C1786 H1772 0.929 . S
C1786 C1785 1.399 . S
C1786 C1787 1.385 . S
C1787 H1773 0.931 . S
C1787 C1786 1.385 . S
C1787 C1788 1.389 . S
C1788 C1787 1.389 . S
C1788 C1789 1.387 . S
C1789 H1774 0.930 . S
C1789 C1784 1.390 . S
C1789 C1788 1.387 . S
H1790 C1802 0.930 . S
H1791 C1804 0.930 . S
H1792 C1805 0.930 . S
H1793 C1809 0.959 . S
H1794 C1809 0.959 . S
H1795 C1809 0.961 . S
H1796 C1810 0.960 . S
H1797 C1810 0.961 . S
H1798 C1810 0.959 . S
H1799 C1813 0.929 . S
H1800 C1814 0.931 . S
H1801 C1816 0.930 . S
C1802 H1790 0.930 . S
C1802 C1803 1.399 . S
C1802 C1807 1.399 . S
C1803 C1802 1.399 . S
C1803 C1804 1.376 . S
C1804 H1791 0.930 . S
C1804 C1803 1.376 . S
C1804 C1805 1.388 . S
C1805 H1792 0.930 . S
C1805 C1804 1.388 . S
C1805 C1806 1.390 . S
C1806 C1805 1.390 . S
C1806 C1807 1.394 . S
C1806 C1812 1.465 . S
C1807 C1802 1.399 . S
C1807 C1806 1.394 . S
C1807 C1808 1.516 . S
C1808 C1807 1.516 . S
C1808 C1809 1.502 . S
C1808 C1810 1.561 . S
C1808 C1811 1.526 . S
C1809 H1793 0.959 . S
C1809 H1794 0.959 . S
C1809 H1795 0.961 . S
C1809 C1808 1.502 . S
C1810 H1796 0.960 . S
C1810 H1797 0.961 . S
C1810 H1798 0.959 . S
C1810 C1808 1.561 . S
C1811 C1808 1.526 . S
C1811 C1812 1.396 . S
C1811 C1816 1.390 . S
C1812 C1806 1.465 . S
C1812 C1811 1.396 . S
C1812 C1813 1.399 . S
C1813 H1799 0.929 . S
C1813 C1812 1.399 . S
C1813 C1814 1.385 . S
C1814 H1800 0.931 . S
C1814 C1813 1.385 . S
C1814 C1815 1.389 . S
C1815 C1814 1.389 . S
C1815 C1816 1.387 . S
C1816 H1801 0.930 . S
C1816 C1811 1.390 . S
C1816 C1815 1.387 . S
H1817 C1829 0.930 . S
H1818 C1831 0.930 . S
H1819 C1832 0.930 . S
H1820 C1836 0.959 . S
H1821 C1836 0.959 . S
H1822 C1836 0.961 . S
H1823 C1837 0.960 . S
H1824 C1837 0.961 . S
H1825 C1837 0.959 . S
H1826 C1840 0.929 . S
H1827 C1841 0.931 . S
H1828 C1843 0.930 . S
C1829 H1817 0.930 . S
C1829 C1830 1.399 . S
C1829 C1834 1.399 . S
C1830 C1829 1.399 . S
C1830 C1831 1.376 . S
C1831 H1818 0.930 . S
C1831 C1830 1.376 . S
C1831 C1832 1.388 . S
C1832 H1819 0.930 . S
C1832 C1831 1.388 . S
C1832 C1833 1.390 . S
C1833 C1832 1.390 . S
C1833 C1834 1.394 . S
C1833 C1839 1.465 . S
C1834 C1829 1.399 . S
C1834 C1833 1.394 . S
C1834 C1835 1.516 . S
C1835 C1834 1.516 . S
C1835 C1836 1.502 . S
C1835 C1837 1.561 . S
C1835 C1838 1.526 . S
C1836 H1820 0.959 . S
C1836 H1821 0.959 . S
C1836 H1822 0.961 . S
C1836 C1835 1.502 . S
C1837 H1823 0.960 . S
C1837 H1824 0.961 . S
C1837 H1825 0.959 . S
C1837 C1835 1.561 . S
C1838 C1835 1.526 . S
C1838 C1839 1.396 . S
C1838 C1843 1.390 . S
C1839 C1833 1.465 . S
C1839 C1838 1.396 . S
C1839 C1840 1.399 . S
C1840 H1826 0.929 . S
C1840 C1839 1.399 . S
C1840 C1841 1.385 . S
C1841 H1827 0.931 . S
C1841 C1840 1.385 . S
C1841 C1842 1.389 . S
C1842 C1841 1.389 . S
C1842 C1843 1.387 . S
C1843 H1828 0.930 . S
C1843 C1838 1.390 . S
C1843 C1842 1.387 . S
H1844 C1856 0.930 . S
H1845 C1858 0.930 . S
H1846 C1859 0.930 . S
H1847 C1863 0.959 . S
H1848 C1863 0.959 . S
H1849 C1863 0.961 . S
H1850 C1864 0.960 . S
H1851 C1864 0.961 . S
H1852 C1864 0.959 . S
H1853 C1867 0.929 . S
H1854 C1868 0.931 . S
H1855 C1870 0.930 . S
C1856 H1844 0.930 . S
C1856 C1857 1.399 . S
C1856 C1861 1.399 . S
C1857 C1856 1.399 . S
C1857 C1858 1.376 . S
C1858 H1845 0.930 . S
C1858 C1857 1.376 . S
C1858 C1859 1.388 . S
C1859 H1846 0.930 . S
C1859 C1858 1.388 . S
C1859 C1860 1.390 . S
C1860 C1859 1.390 . S
C1860 C1861 1.394 . S
C1860 C1866 1.465 . S
C1861 C1856 1.399 . S
C1861 C1860 1.394 . S
C1861 C1862 1.516 . S
C1862 C1861 1.516 . S
C1862 C1863 1.502 . S
C1862 C1864 1.561 . S
C1862 C1865 1.526 . S
C1863 H1847 0.959 . S
C1863 H1848 0.959 . S
C1863 H1849 0.961 . S
C1863 C1862 1.502 . S
C1864 H1850 0.960 . S
C1864 H1851 0.961 . S
C1864 H1852 0.959 . S
C1864 C1862 1.561 . S
C1865 C1862 1.526 . S
C1865 C1866 1.396 . S
C1865 C1870 1.390 . S
C1866 C1860 1.465 . S
C1866 C1865 1.396 . S
C1866 C1867 1.399 . S
C1867 H1853 0.929 . S
C1867 C1866 1.399 . S
C1867 C1868 1.385 . S
C1868 H1854 0.931 . S
C1868 C1867 1.385 . S
C1868 C1869 1.389 . S
C1869 C1868 1.389 . S
C1869 C1870 1.387 . S
C1870 H1855 0.930 . S
C1870 C1865 1.390 . S
C1870 C1869 1.387 . S
H1871 C1883 0.930 . S
H1872 C1885 0.930 . S
H1873 C1886 0.930 . S
H1874 C1890 0.959 . S
H1875 C1890 0.959 . S
H1876 C1890 0.961 . S
H1877 C1891 0.960 . S
H1878 C1891 0.961 . S
H1879 C1891 0.959 . S
H1880 C1894 0.929 . S
H1881 C1895 0.931 . S
H1882 C1897 0.930 . S
C1883 H1871 0.930 . S
C1883 C1884 1.399 . S
C1883 C1888 1.399 . S
C1884 C1883 1.399 . S
C1884 C1885 1.376 . S
C1885 H1872 0.930 . S
C1885 C1884 1.376 . S
C1885 C1886 1.388 . S
C1886 H1873 0.930 . S
C1886 C1885 1.388 . S
C1886 C1887 1.390 . S
C1887 C1886 1.390 . S
C1887 C1888 1.394 . S
C1887 C1893 1.465 . S
C1888 C1883 1.399 . S
C1888 C1887 1.394 . S
C1888 C1889 1.516 . S
C1889 C1888 1.516 . S
C1889 C1890 1.502 . S
C1889 C1891 1.561 . S
C1889 C1892 1.526 . S
C1890 H1874 0.959 . S
C1890 H1875 0.959 . S
C1890 H1876 0.961 . S
C1890 C1889 1.502 . S
C1891 H1877 0.960 . S
C1891 H1878 0.961 . S
C1891 H1879 0.959 . S
C1891 C1889 1.561 . S
C1892 C1889 1.526 . S
C1892 C1893 1.396 . S
C1892 C1897 1.390 . S
C1893 C1887 1.465 . S
C1893 C1892 1.396 . S
C1893 C1894 1.399 . S
C1894 H1880 0.929 . S
C1894 C1893 1.399 . S
C1894 C1895 1.385 . S
C1895 H1881 0.931 . S
C1895 C1894 1.385 . S
C1895 C1896 1.389 . S
C1896 C1895 1.389 . S
C1896 C1897 1.387 . S
C1897 H1882 0.930 . S
C1897 C1892 1.390 . S
C1897 C1896 1.387 . S
H1898 C1910 0.930 . S
H1899 C1912 0.930 . S
H1900 C1913 0.930 . S
H1901 C1917 0.959 . S
H1902 C1917 0.959 . S
H1903 C1917 0.961 . S
H1904 C1918 0.960 . S
H1905 C1918 0.961 . S
H1906 C1918 0.959 . S
H1907 C1921 0.929 . S
H1908 C1922 0.931 . S
H1909 C1924 0.930 . S
C1910 H1898 0.930 . S
C1910 C1911 1.399 . S
C1910 C1915 1.399 . S
C1911 C1910 1.399 . S
C1911 C1912 1.376 . S
C1912 H1899 0.930 . S
C1912 C1911 1.376 . S
C1912 C1913 1.388 . S
C1913 H1900 0.930 . S
C1913 C1912 1.388 . S
C1913 C1914 1.390 . S
C1914 C1913 1.390 . S
C1914 C1915 1.394 . S
C1914 C1920 1.465 . S
C1915 C1910 1.399 . S
C1915 C1914 1.394 . S
C1915 C1916 1.516 . S
C1916 C1915 1.516 . S
C1916 C1917 1.502 . S
C1916 C1918 1.561 . S
C1916 C1919 1.526 . S
C1917 H1901 0.959 . S
C1917 H1902 0.959 . S
C1917 H1903 0.961 . S
C1917 C1916 1.502 . S
C1918 H1904 0.960 . S
C1918 H1905 0.961 . S
C1918 H1906 0.959 . S
C1918 C1916 1.561 . S
C1919 C1916 1.526 . S
C1919 C1920 1.396 . S
C1919 C1924 1.390 . S
C1920 C1914 1.465 . S
C1920 C1919 1.396 . S
C1920 C1921 1.399 . S
C1921 H1907 0.929 . S
C1921 C1920 1.399 . S
C1921 C1922 1.385 . S
C1922 H1908 0.931 . S
C1922 C1921 1.385 . S
C1922 C1923 1.389 . S
C1923 C1922 1.389 . S
C1923 C1924 1.387 . S
C1924 H1909 0.930 . S
C1924 C1919 1.390 . S
C1924 C1923 1.387 . S
H1925 C1937 0.930 . S
H1926 C1939 0.930 . S
H1927 C1940 0.930 . S
H1928 C1944 0.959 . S
H1929 C1944 0.959 . S
H1930 C1944 0.961 . S
H1931 C1945 0.960 . S
H1932 C1945 0.961 . S
H1933 C1945 0.959 . S
H1934 C1948 0.929 . S
H1935 C1949 0.931 . S
H1936 C1951 0.930 . S
C1937 H1925 0.930 . S
C1937 C1938 1.399 . S
C1937 C1942 1.399 . S
C1938 C1937 1.399 . S
C1938 C1939 1.376 . S
C1939 H1926 0.930 . S
C1939 C1938 1.376 . S
C1939 C1940 1.388 . S
C1940 H1927 0.930 . S
C1940 C1939 1.388 . S
C1940 C1941 1.390 . S
C1941 C1940 1.390 . S
C1941 C1942 1.394 . S
C1941 C1947 1.465 . S
C1942 C1937 1.399 . S
C1942 C1941 1.394 . S
C1942 C1943 1.516 . S
C1943 C1942 1.516 . S
C1943 C1944 1.502 . S
C1943 C1945 1.561 . S
C1943 C1946 1.526 . S
C1944 H1928 0.959 . S
C1944 H1929 0.959 . S
C1944 H1930 0.961 . S
C1944 C1943 1.502 . S
C1945 H1931 0.960 . S
C1945 H1932 0.961 . S
C1945 H1933 0.959 . S
C1945 C1943 1.561 . S
C1946 C1943 1.526 . S
C1946 C1947 1.396 . S
C1946 C1951 1.390 . S
C1947 C1941 1.465 . S
C1947 C1946 1.396 . S
C1947 C1948 1.399 . S
C1948 H1934 0.929 . S
C1948 C1947 1.399 . S
C1948 C1949 1.385 . S
C1949 H1935 0.931 . S
C1949 C1948 1.385 . S
C1949 C1950 1.389 . S
C1950 C1949 1.389 . S
C1950 C1951 1.387 . S
C1951 H1936 0.930 . S
C1951 C1946 1.390 . S
C1951 C1950 1.387 . S
H1952 C1964 0.930 . S
H1953 C1966 0.930 . S
H1954 C1967 0.930 . S
H1955 C1971 0.959 . S
H1956 C1971 0.959 . S
H1957 C1971 0.961 . S
H1958 C1972 0.960 . S
H1959 C1972 0.961 . S
H1960 C1972 0.959 . S
H1961 C1975 0.929 . S
H1962 C1976 0.931 . S
H1963 C1978 0.930 . S
C1964 H1952 0.930 . S
C1964 C1965 1.399 . S
C1964 C1969 1.399 . S
C1965 C1964 1.399 . S
C1965 C1966 1.376 . S
C1966 H1953 0.930 . S
C1966 C1965 1.376 . S
C1966 C1967 1.388 . S
C1967 H1954 0.930 . S
C1967 C1966 1.388 . S
C1967 C1968 1.390 . S
C1968 C1967 1.390 . S
C1968 C1969 1.394 . S
C1968 C1974 1.465 . S
C1969 C1964 1.399 . S
C1969 C1968 1.394 . S
C1969 C1970 1.516 . S
C1970 C1969 1.516 . S
C1970 C1971 1.502 . S
C1970 C1972 1.561 . S
C1970 C1973 1.526 . S
C1971 H1955 0.959 . S
C1971 H1956 0.959 . S
C1971 H1957 0.961 . S
C1971 C1970 1.502 . S
C1972 H1958 0.960 . S
C1972 H1959 0.961 . S
C1972 H1960 0.959 . S
C1972 C1970 1.561 . S
C1973 C1970 1.526 . S
C1973 C1974 1.396 . S
C1973 C1978 1.390 . S
C1974 C1968 1.465 . S
C1974 C1973 1.396 . S
C1974 C1975 1.399 . S
C1975 H1961 0.929 . S
C1975 C1974 1.399 . S
C1975 C1976 1.385 . S
C1976 H1962 0.931 . S
C1976 C1975 1.385 . S
C1976 C1977 1.389 . S
C1977 C1976 1.389 . S
C1977 C1978 1.387 . S
C1978 H1963 0.930 . S
C1978 C1973 1.390 . S
C1978 C1977 1.387 . S
H1979 C1991 0.930 . S
H1980 C1993 0.930 . S
H1981 C1994 0.930 . S
H1982 C1998 0.959 . S
H1983 C1998 0.959 . S
H1984 C1998 0.961 . S
H1985 C1999 0.960 . S
H1986 C1999 0.961 . S
H1987 C1999 0.959 . S
H1988 C2002 0.929 . S
H1989 C2003 0.931 . S
H1990 C2005 0.930 . S
C1991 H1979 0.930 . S
C1991 C1992 1.399 . S
C1991 C1996 1.399 . S
C1992 C1991 1.399 . S
C1992 C1993 1.376 . S
C1993 H1980 0.930 . S
C1993 C1992 1.376 . S
C1993 C1994 1.388 . S
C1994 H1981 0.930 . S
C1994 C1993 1.388 . S
C1994 C1995 1.390 . S
C1995 C1994 1.390 . S
C1995 C1996 1.394 . S
C1995 C2001 1.465 . S
C1996 C1991 1.399 . S
C1996 C1995 1.394 . S
C1996 C1997 1.516 . S
C1997 C1996 1.516 . S
C1997 C1998 1.502 . S
C1997 C1999 1.561 . S
C1997 C2000 1.526 . S
C1998 H1982 0.959 . S
C1998 H1983 0.959 . S
C1998 H1984 0.961 . S
C1998 C1997 1.502 . S
C1999 H1985 0.960 . S
C1999 H1986 0.961 . S
C1999 H1987 0.959 . S
C1999 C1997 1.561 . S
C2000 C1997 1.526 . S
C2000 C2001 1.396 . S
C2000 C2005 1.390 . S
C2001 C1995 1.465 . S
C2001 C2000 1.396 . S
C2001 C2002 1.399 . S
C2002 H1988 0.929 . S
C2002 C2001 1.399 . S
C2002 C2003 1.385 . S
C2003 H1989 0.931 . S
C2003 C2002 1.385 . S
C2003 C2004 1.389 . S
C2004 C2003 1.389 . S
C2004 C2005 1.387 . S
C2005 H1990 0.930 . S
C2005 C2000 1.390 . S
C2005 C2004 1.387 . S
H2006 C2018 0.930 . S
H2007 C2020 0.930 . S
H2008 C2021 0.930 . S
H2009 C2025 0.959 . S
H2010 C2025 0.959 1_554 S
H2011 C2025 0.961 . S
H2012 C2026 0.960 . S
H2013 C2026 0.961 . S
H2014 C2026 0.959 . S
H2015 C2029 0.929 . S
H2016 C2030 0.931 . S
H2017 C2032 0.977 . S
C2018 H2006 0.930 . S
C2018 C2019 1.399 1_655 S
C2018 C2023 1.399 1_655 S
C2019 C2018 1.399 1_455 S
C2019 C2020 1.376 . S
C2020 H2007 0.930 . S
C2020 C2019 1.376 . S
C2020 C2021 1.388 . S
C2021 H2008 0.930 . S
C2021 C2020 1.388 . S
C2021 C2022 1.390 . S
C2022 C2021 1.390 . S
C2022 C2023 1.394 . S
C2022 C2028 1.465 . S
C2023 C2018 1.399 1_455 S
C2023 C2022 1.394 . S
C2023 C2024 1.516 1_455 S
C2024 C2023 1.516 1_655 S
C2024 C2025 1.502 . S
C2024 C2026 1.561 1_656 S
C2024 C2027 1.526 1_655 S
C2025 H2009 0.959 . S
C2025 H2010 0.959 1_556 S
C2025 H2011 0.961 . S
C2025 C2024 1.502 . S
C2026 H2012 0.960 . S
C2026 H2013 0.961 . S
C2026 H2014 0.959 . S
C2026 C2024 1.561 1_454 S
C2027 C2024 1.526 1_455 S
C2027 C2028 1.396 . S
C2027 C2032 1.359 1_456 S
C2028 C2022 1.465 . S
C2028 C2027 1.396 . S
C2028 C2029 1.399 . S
C2029 H2015 0.929 . S
C2029 C2028 1.399 . S
C2029 C2030 1.385 . S
C2030 H2016 0.931 . S
C2030 C2029 1.385 . S
C2030 C2031 1.389 . S
C2031 C2030 1.389 . S
C2031 C2032 1.371 1_456 S
C2032 H2017 0.977 . S
C2032 C2027 1.359 1_654 S
C2032 C2031 1.371 1_654 S
H2033 C2045 0.930 . S
H2034 C2047 0.930 . S
H2035 C2048 0.930 . S
H2036 C2052 0.959 . S
H2037 C2052 0.959 . S
H2038 C2052 0.961 . S
H2039 C2053 0.960 . S
H2040 C2053 0.961 . S
H2041 C2053 0.959 . S
H2042 C2056 0.929 . S
H2043 C2057 0.931 . S
H2044 C2059 0.930 . S
C2045 H2033 0.930 . S
C2045 C2046 1.399 . S
C2045 C2050 1.399 . S
C2046 C2045 1.399 . S
C2046 C2047 1.376 . S
C2047 H2034 0.930 . S
C2047 C2046 1.376 . S
C2047 C2048 1.388 . S
C2048 H2035 0.930 . S
C2048 C2047 1.388 . S
C2048 C2049 1.390 . S
C2049 C2048 1.390 . S
C2049 C2050 1.394 . S
C2049 C2055 1.465 . S
C2050 C2045 1.399 . S
C2050 C2049 1.394 . S
C2050 C2051 1.516 . S
C2051 C2050 1.516 . S
C2051 C2052 1.502 . S
C2051 C2053 1.561 . S
C2051 C2054 1.526 . S
C2052 H2036 0.959 . S
C2052 H2037 0.959 . S
C2052 H2038 0.961 . S
C2052 C2051 1.502 . S
C2053 H2039 0.960 . S
C2053 H2040 0.961 . S
C2053 H2041 0.959 . S
C2053 C2051 1.561 . S
C2054 C2051 1.526 . S
C2054 C2055 1.396 . S
C2054 C2059 1.390 . S
C2055 C2049 1.465 . S
C2055 C2054 1.396 . S
C2055 C2056 1.399 . S
C2056 H2042 0.929 . S
C2056 C2055 1.399 . S
C2056 C2057 1.385 . S
C2057 H2043 0.931 . S
C2057 C2056 1.385 . S
C2057 C2058 1.389 . S
C2058 C2057 1.389 . S
C2058 C2059 1.387 . S
C2059 H2044 0.930 . S
C2059 C2054 1.390 . S
C2059 C2058 1.387 . S
H2060 C2072 0.930 . S
H2061 C2074 0.930 . S
H2062 C2075 0.930 . S
H2063 C2079 0.959 . S
H2064 C2079 0.959 . S
H2065 C2079 0.961 . S
H2066 C2080 0.960 . S
H2067 C2080 0.961 . S
H2068 C2080 0.959 . S
H2069 C2083 0.929 . S
H2070 C2084 0.931 . S
H2071 C2086 0.930 . S
C2072 H2060 0.930 . S
C2072 C2073 1.399 . S
C2072 C2077 1.399 . S
C2073 C2072 1.399 . S
C2073 C2074 1.376 . S
C2074 H2061 0.930 . S
C2074 C2073 1.376 . S
C2074 C2075 1.388 . S
C2075 H2062 0.930 . S
C2075 C2074 1.388 . S
C2075 C2076 1.390 . S
C2076 C2075 1.390 . S
C2076 C2077 1.394 . S
C2076 C2082 1.465 . S
C2077 C2072 1.399 . S
C2077 C2076 1.394 . S
C2077 C2078 1.516 . S
C2078 C2077 1.516 . S
C2078 C2079 1.502 . S
C2078 C2080 1.561 . S
C2078 C2081 1.526 . S
C2079 H2063 0.959 . S
C2079 H2064 0.959 . S
C2079 H2065 0.961 . S
C2079 C2078 1.502 . S
C2080 H2066 0.960 . S
C2080 H2067 0.961 . S
C2080 H2068 0.959 . S
C2080 C2078 1.561 . S
C2081 C2078 1.526 . S
C2081 C2082 1.396 . S
C2081 C2086 1.390 . S
C2082 C2076 1.465 . S
C2082 C2081 1.396 . S
C2082 C2083 1.399 . S
C2083 H2069 0.929 . S
C2083 C2082 1.399 . S
C2083 C2084 1.385 . S
C2084 H2070 0.931 . S
C2084 C2083 1.385 . S
C2084 C2085 1.389 . S
C2085 C2084 1.389 . S
C2085 C2086 1.387 . S
C2086 H2071 0.930 . S
C2086 C2081 1.390 . S
C2086 C2085 1.387 . S
H2087 C2099 0.930 . S
H2088 C2101 0.930 . S
H2089 C2102 0.930 . S
H2090 C2106 0.959 . S
H2091 C2106 0.959 . S
H2092 C2106 0.961 . S
H2093 C2107 0.960 . S
H2094 C2107 0.961 . S
H2095 C2107 0.959 . S
H2096 C2110 0.929 . S
H2097 C2111 0.931 . S
H2098 C2113 0.930 . S
C2099 H2087 0.930 . S
C2099 C2100 1.399 . S
C2099 C2104 1.399 . S
C2100 C2099 1.399 . S
C2100 C2101 1.376 . S
C2101 H2088 0.930 . S
C2101 C2100 1.376 . S
C2101 C2102 1.388 . S
C2102 H2089 0.930 . S
C2102 C2101 1.388 . S
C2102 C2103 1.390 . S
C2103 C2102 1.390 . S
C2103 C2104 1.394 . S
C2103 C2109 1.465 . S
C2104 C2099 1.399 . S
C2104 C2103 1.394 . S
C2104 C2105 1.516 . S
C2105 C2104 1.516 . S
C2105 C2106 1.502 . S
C2105 C2107 1.561 . S
C2105 C2108 1.526 . S
C2106 H2090 0.959 . S
C2106 H2091 0.959 . S
C2106 H2092 0.961 . S
C2106 C2105 1.502 . S
C2107 H2093 0.960 . S
C2107 H2094 0.961 . S
C2107 H2095 0.959 . S
C2107 C2105 1.561 . S
C2108 C2105 1.526 . S
C2108 C2109 1.396 . S
C2108 C2113 1.390 . S
C2109 C2103 1.465 . S
C2109 C2108 1.396 . S
C2109 C2110 1.399 . S
C2110 H2096 0.929 . S
C2110 C2109 1.399 . S
C2110 C2111 1.385 . S
C2111 H2097 0.931 . S
C2111 C2110 1.385 . S
C2111 C2112 1.389 . S
C2112 C2111 1.389 . S
C2112 C2113 1.387 . S
C2113 H2098 0.930 . S
C2113 C2108 1.390 . S
C2113 C2112 1.387 . S
H2114 C2126 0.930 . S
H2115 C2128 0.930 . S
H2116 C2129 0.930 . S
H2117 C2133 0.959 . S
H2118 C2133 0.959 . S
H2119 C2133 0.961 . S
H2120 C2134 0.960 . S
H2121 C2134 0.961 . S
H2122 C2134 0.959 1_655 S
H2123 C2137 0.929 . S
H2124 C2138 0.931 . S
H2125 C2140 0.930 . S
C2126 H2114 0.930 . S
C2126 C2127 1.373 1_455 S
C2126 C2131 1.399 . S
C2127 C2126 1.373 1_655 S
C2127 C2128 1.400 . S
C2128 H2115 0.930 . S
C2128 C2127 1.400 . S
C2128 C2129 1.388 . S
C2129 H2116 0.930 . S
C2129 C2128 1.388 . S
C2129 C2130 1.390 . S
C2130 C2129 1.390 . S
C2130 C2131 1.394 1_655 S
C2130 C2136 1.465 . S
C2131 C2126 1.399 . S
C2131 C2130 1.394 1_455 S
C2131 C2132 1.516 . S
C2132 C2131 1.516 . S
C2132 C2133 1.502 . S
C2132 C2134 1.561 . S
C2132 C2135 1.526 . S
C2133 H2117 0.959 . S
C2133 H2118 0.959 . S
C2133 H2119 0.961 . S
C2133 C2132 1.502 . S
C2134 H2120 0.960 . S
C2134 H2121 0.961 . S
C2134 H2122 0.959 1_455 S
C2134 C2132 1.561 . S
C2135 C2132 1.526 . S
C2135 C2136 1.396 1_455 S
C2135 C2140 1.390 . S
C2136 C2130 1.465 . S
C2136 C2135 1.396 1_655 S
C2136 C2137 1.399 . S
C2137 H2123 0.929 . S
C2137 C2136 1.399 . S
C2137 C2138 1.385 . S
C2138 H2124 0.931 . S
C2138 C2137 1.385 . S
C2138 C2139 1.389 1_655 S
C2139 C2138 1.389 1_455 S
C2139 C2140 1.387 . S
C2140 H2125 0.930 . S
C2140 C2135 1.390 . S
C2140 C2139 1.387 . S
H2141 C2153 0.930 . S
H2142 C2155 0.930 . S
H2143 C2156 0.930 . S
H2144 C2160 0.959 . S
H2145 C2160 0.959 . S
H2146 C2160 0.961 . S
H2147 C2161 0.960 . S
H2148 C2161 0.961 . S
H2149 C2161 0.959 . S
H2150 C2164 0.929 . S
H2151 C2165 0.931 . S
H2152 C2167 0.930 . S
C2153 H2141 0.930 . S
C2153 C2154 1.399 . S
C2153 C2158 1.399 . S
C2154 C2153 1.399 . S
C2154 C2155 1.376 . S
C2155 H2142 0.930 . S
C2155 C2154 1.376 . S
C2155 C2156 1.388 . S
C2156 H2143 0.930 . S
C2156 C2155 1.388 . S
C2156 C2157 1.390 . S
C2157 C2156 1.390 . S
C2157 C2158 1.394 . S
C2157 C2163 1.465 . S
C2158 C2153 1.399 . S
C2158 C2157 1.394 . S
C2158 C2159 1.516 . S
C2159 C2158 1.516 . S
C2159 C2160 1.502 . S
C2159 C2161 1.561 . S
C2159 C2162 1.526 . S
C2160 H2144 0.959 . S
C2160 H2145 0.959 . S
C2160 H2146 0.961 . S
C2160 C2159 1.502 . S
C2161 H2147 0.960 . S
C2161 H2148 0.961 . S
C2161 H2149 0.959 . S
C2161 C2159 1.561 . S
C2162 C2159 1.526 . S
C2162 C2163 1.396 . S
C2162 C2167 1.390 . S
C2163 C2157 1.465 . S
C2163 C2162 1.396 . S
C2163 C2164 1.399 . S
C2164 H2150 0.929 . S
C2164 C2163 1.399 . S
C2164 C2165 1.385 . S
C2165 H2151 0.931 . S
C2165 C2164 1.385 . S
C2165 C2166 1.389 . S
C2166 C2165 1.389 . S
C2166 C2167 1.387 . S
C2167 H2152 0.930 . S
C2167 C2162 1.390 . S
C2167 C2166 1.387 . S
H2168 C2180 0.930 . S
H2169 C2182 0.930 . S
H2170 C2183 0.930 . S
H2171 C2187 0.959 . S
H2172 C2187 0.959 . S
H2173 C2187 0.961 . S
H2174 C2188 0.960 . S
H2175 C2188 0.961 . S
H2176 C2188 0.959 . S
H2177 C2191 0.929 . S
H2178 C2192 0.931 . S
H2179 C2194 0.930 . S
C2180 H2168 0.930 . S
C2180 C2181 1.399 . S
C2180 C2185 1.399 . S
C2181 C2180 1.399 . S
C2181 C2182 1.376 . S
C2182 H2169 0.930 . S
C2182 C2181 1.376 . S
C2182 C2183 1.388 . S
C2183 H2170 0.930 . S
C2183 C2182 1.388 . S
C2183 C2184 1.390 . S
C2184 C2183 1.390 . S
C2184 C2185 1.394 . S
C2184 C2190 1.465 . S
C2185 C2180 1.399 . S
C2185 C2184 1.394 . S
C2185 C2186 1.516 . S
C2186 C2185 1.516 . S
C2186 C2187 1.502 . S
C2186 C2188 1.561 . S
C2186 C2189 1.526 . S
C2187 H2171 0.959 . S
C2187 H2172 0.959 . S
C2187 H2173 0.961 . S
C2187 C2186 1.502 . S
C2188 H2174 0.960 . S
C2188 H2175 0.961 . S
C2188 H2176 0.959 . S
C2188 C2186 1.561 . S
C2189 C2186 1.526 . S
C2189 C2190 1.396 . S
C2189 C2194 1.390 . S
C2190 C2184 1.465 . S
C2190 C2189 1.396 . S
C2190 C2191 1.399 . S
C2191 H2177 0.929 . S
C2191 C2190 1.399 . S
C2191 C2192 1.385 . S
C2192 H2178 0.931 . S
C2192 C2191 1.385 . S
C2192 C2193 1.389 . S
C2193 C2192 1.389 . S
C2193 C2194 1.387 . S
C2194 H2179 0.930 . S
C2194 C2189 1.390 . S
C2194 C2193 1.387 . S
H2195 C2207 0.930 . S
H2196 C2209 0.930 . S
H2197 C2210 0.930 . S
H2198 C2214 0.959 . S
H2199 C2214 0.959 . S
H2200 C2214 0.961 . S
H2201 C2215 0.960 . S
H2202 C2215 0.961 . S
H2203 C2215 0.959 . S
H2204 C2218 0.929 . S
H2205 C2219 0.931 . S
H2206 C2221 0.930 . S
C2207 H2195 0.930 . S
C2207 C2208 1.399 . S
C2207 C2212 1.399 . S
C2208 C2207 1.399 . S
C2208 C2209 1.376 . S
C2209 H2196 0.930 . S
C2209 C2208 1.376 . S
C2209 C2210 1.388 . S
C2210 H2197 0.930 . S
C2210 C2209 1.388 . S
C2210 C2211 1.390 . S
C2211 C2210 1.390 . S
C2211 C2212 1.394 . S
C2211 C2217 1.465 . S
C2212 C2207 1.399 . S
C2212 C2211 1.394 . S
C2212 C2213 1.516 . S
C2213 C2212 1.516 . S
C2213 C2214 1.502 . S
C2213 C2215 1.561 . S
C2213 C2216 1.526 . S
C2214 H2198 0.959 . S
C2214 H2199 0.959 . S
C2214 H2200 0.961 . S
C2214 C2213 1.502 . S
C2215 H2201 0.960 . S
C2215 H2202 0.961 . S
C2215 H2203 0.959 . S
C2215 C2213 1.561 . S
C2216 C2213 1.526 . S
C2216 C2217 1.396 . S
C2216 C2221 1.390 . S
C2217 C2211 1.465 . S
C2217 C2216 1.396 . S
C2217 C2218 1.399 . S
C2218 H2204 0.929 . S
C2218 C2217 1.399 . S
C2218 C2219 1.385 . S
C2219 H2205 0.931 . S
C2219 C2218 1.385 . S
C2219 C2220 1.389 . S
C2220 C2219 1.389 . S
C2220 C2221 1.387 . S
C2221 H2206 0.930 . S
C2221 C2216 1.390 . S
C2221 C2220 1.387 . S
H2222 C2234 0.930 . S
H2223 C2236 0.930 . S
H2224 C2237 0.930 . S
H2225 C2241 0.959 . S
H2226 C2241 0.959 . S
H2227 C2241 0.961 . S
H2228 C2242 0.960 . S
H2229 C2242 0.961 . S
H2230 C2242 0.959 . S
H2231 C2245 0.929 . S
H2232 C2246 0.931 . S
H2233 C2248 0.930 . S
C2234 H2222 0.930 . S
C2234 C2235 1.399 . S
C2234 C2239 1.399 . S
C2235 C2234 1.399 . S
C2235 C2236 1.376 . S
C2236 H2223 0.930 . S
C2236 C2235 1.376 . S
C2236 C2237 1.388 . S
C2237 H2224 0.930 . S
C2237 C2236 1.388 . S
C2237 C2238 1.390 . S
C2238 C2237 1.390 . S
C2238 C2239 1.394 . S
C2238 C2244 1.465 . S
C2239 C2234 1.399 . S
C2239 C2238 1.394 . S
C2239 C2240 1.516 . S
C2240 C2239 1.516 . S
C2240 C2241 1.502 . S
C2240 C2242 1.561 . S
C2240 C2243 1.526 . S
C2241 H2225 0.959 . S
C2241 H2226 0.959 . S
C2241 H2227 0.961 . S
C2241 C2240 1.502 . S
C2242 H2228 0.960 . S
C2242 H2229 0.961 . S
C2242 H2230 0.959 . S
C2242 C2240 1.561 . S
C2243 C2240 1.526 . S
C2243 C2244 1.396 . S
C2243 C2248 1.390 . S
C2244 C2238 1.465 . S
C2244 C2243 1.396 . S
C2244 C2245 1.399 . S
C2245 H2231 0.929 . S
C2245 C2244 1.399 . S
C2245 C2246 1.385 . S
C2246 H2232 0.931 . S
C2246 C2245 1.385 . S
C2246 C2247 1.389 . S
C2247 C2246 1.389 . S
C2247 C2248 1.387 . S
C2248 H2233 0.930 . S
C2248 C2243 1.390 . S
C2248 C2247 1.387 . S
H2249 C2261 0.930 . S
H2250 C2263 0.930 . S
H2251 C2264 0.930 . S
H2252 C2268 0.959 . S
H2253 C2268 0.959 . S
H2254 C2268 0.961 . S
H2255 C2269 0.960 . S
H2256 C2269 0.961 . S
H2257 C2269 0.959 . S
H2258 C2272 0.929 . S
H2259 C2273 0.931 . S
H2260 C2275 0.930 . S
C2261 H2249 0.930 . S
C2261 C2262 1.399 . S
C2261 C2266 1.399 . S
C2262 C2261 1.399 . S
C2262 C2263 1.376 . S
C2263 H2250 0.930 . S
C2263 C2262 1.376 . S
C2263 C2264 1.388 . S
C2264 H2251 0.930 . S
C2264 C2263 1.388 . S
C2264 C2265 1.390 . S
C2265 C2264 1.390 . S
C2265 C2266 1.394 . S
C2265 C2271 1.465 . S
C2266 C2261 1.399 . S
C2266 C2265 1.394 . S
C2266 C2267 1.516 . S
C2267 C2266 1.516 . S
C2267 C2268 1.502 . S
C2267 C2269 1.561 . S
C2267 C2270 1.526 . S
C2268 H2252 0.959 . S
C2268 H2253 0.959 . S
C2268 H2254 0.961 . S
C2268 C2267 1.502 . S
C2269 H2255 0.960 . S
C2269 H2256 0.961 . S
C2269 H2257 0.959 . S
C2269 C2267 1.561 . S
C2270 C2267 1.526 . S
C2270 C2271 1.396 . S
C2270 C2275 1.390 . S
C2271 C2265 1.465 . S
C2271 C2270 1.396 . S
C2271 C2272 1.399 . S
C2272 H2258 0.929 . S
C2272 C2271 1.399 . S
C2272 C2273 1.385 . S
C2273 H2259 0.931 . S
C2273 C2272 1.385 . S
C2273 C2274 1.389 . S
C2274 C2273 1.389 . S
C2274 C2275 1.387 . S
C2275 H2260 0.930 . S
C2275 C2270 1.390 . S
C2275 C2274 1.387 . S
H2276 C2288 0.930 . S
H2277 C2290 0.930 . S
H2278 C2291 0.930 . S
H2279 C2295 0.959 . S
H2280 C2295 0.959 . S
H2281 C2295 0.961 . S
H2282 C2296 0.960 . S
H2283 C2296 0.961 . S
H2284 C2296 0.959 . S
H2285 C2299 0.929 . S
H2286 C2300 0.931 . S
H2287 C2302 0.930 . S
C2288 H2276 0.930 . S
C2288 C2289 1.399 . S
C2288 C2293 1.399 . S
C2289 C2288 1.399 . S
C2289 C2290 1.376 . S
C2290 H2277 0.930 . S
C2290 C2289 1.376 . S
C2290 C2291 1.388 . S
C2291 H2278 0.930 . S
C2291 C2290 1.388 . S
C2291 C2292 1.390 . S
C2292 C2291 1.390 . S
C2292 C2293 1.394 . S
C2292 C2298 1.465 . S
C2293 C2288 1.399 . S
C2293 C2292 1.394 . S
C2293 C2294 1.516 . S
C2294 C2293 1.516 . S
C2294 C2295 1.502 . S
C2294 C2296 1.561 . S
C2294 C2297 1.526 . S
C2295 H2279 0.959 . S
C2295 H2280 0.959 . S
C2295 H2281 0.961 . S
C2295 C2294 1.502 . S
C2296 H2282 0.960 . S
C2296 H2283 0.961 . S
C2296 H2284 0.959 . S
C2296 C2294 1.561 . S
C2297 C2294 1.526 . S
C2297 C2298 1.396 . S
C2297 C2302 1.390 . S
C2298 C2292 1.465 . S
C2298 C2297 1.396 . S
C2298 C2299 1.399 . S
C2299 H2285 0.929 . S
C2299 C2298 1.399 . S
C2299 C2300 1.385 . S
C2300 H2286 0.931 . S
C2300 C2299 1.385 . S
C2300 C2301 1.389 . S
C2301 C2300 1.389 . S
C2301 C2302 1.387 . S
C2302 H2287 0.930 . S
C2302 C2297 1.390 . S
C2302 C2301 1.387 . S
H2303 C2315 0.930 . S
H2304 C2317 0.930 . S
H2305 C2318 0.930 . S
H2306 C2322 0.959 . S
H2307 C2322 0.959 . S
H2308 C2322 0.961 . S
H2309 C2323 0.960 . S
H2310 C2323 0.961 . S
H2311 C2323 0.959 . S
H2312 C2326 0.929 . S
H2313 C2327 0.931 . S
H2314 C2329 0.930 . S
C2315 H2303 0.930 . S
C2315 C2316 1.399 . S
C2315 C2320 1.399 . S
C2316 C2315 1.399 . S
C2316 C2317 1.376 . S
C2317 H2304 0.930 . S
C2317 C2316 1.376 . S
C2317 C2318 1.388 . S
C2318 H2305 0.930 . S
C2318 C2317 1.388 . S
C2318 C2319 1.390 . S
C2319 C2318 1.390 . S
C2319 C2320 1.394 . S
C2319 C2325 1.465 . S
C2320 C2315 1.399 . S
C2320 C2319 1.394 . S
C2320 C2321 1.516 . S
C2321 C2320 1.516 . S
C2321 C2322 1.502 . S
C2321 C2323 1.561 . S
C2321 C2324 1.526 . S
C2322 H2306 0.959 . S
C2322 H2307 0.959 . S
C2322 H2308 0.961 . S
C2322 C2321 1.502 . S
C2323 H2309 0.960 . S
C2323 H2310 0.961 . S
C2323 H2311 0.959 . S
C2323 C2321 1.561 . S
C2324 C2321 1.526 . S
C2324 C2325 1.396 . S
C2324 C2329 1.390 . S
C2325 C2319 1.465 . S
C2325 C2324 1.396 . S
C2325 C2326 1.399 . S
C2326 H2312 0.929 . S
C2326 C2325 1.399 . S
C2326 C2327 1.385 . S
C2327 H2313 0.931 . S
C2327 C2326 1.385 . S
C2327 C2328 1.389 . S
C2328 C2327 1.389 . S
C2328 C2329 1.387 . S
C2329 H2314 0.930 . S
C2329 C2324 1.390 . S
C2329 C2328 1.387 . S
H2330 C2342 0.930 . S
H2331 C2344 0.930 . S
H2332 C2345 0.930 . S
H2333 C2349 0.959 . S
H2334 C2349 0.959 . S
H2335 C2349 0.961 . S
H2336 C2350 0.960 . S
H2337 C2350 0.961 . S
H2338 C2350 0.959 . S
H2339 C2353 0.929 . S
H2340 C2354 0.931 . S
H2341 C2356 0.930 . S
C2342 H2330 0.930 . S
C2342 C2343 1.399 . S
C2342 C2347 1.399 . S
C2343 C2342 1.399 . S
C2343 C2344 1.376 . S
C2344 H2331 0.930 . S
C2344 C2343 1.376 . S
C2344 C2345 1.388 . S
C2345 H2332 0.930 . S
C2345 C2344 1.388 . S
C2345 C2346 1.390 . S
C2346 C2345 1.390 . S
C2346 C2347 1.394 . S
C2346 C2352 1.465 . S
C2347 C2342 1.399 . S
C2347 C2346 1.394 . S
C2347 C2348 1.516 . S
C2348 C2347 1.516 . S
C2348 C2349 1.502 . S
C2348 C2350 1.561 . S
C2348 C2351 1.526 . S
C2349 H2333 0.959 . S
C2349 H2334 0.959 . S
C2349 H2335 0.961 . S
C2349 C2348 1.502 . S
C2350 H2336 0.960 . S
C2350 H2337 0.961 . S
C2350 H2338 0.959 . S
C2350 C2348 1.561 . S
C2351 C2348 1.526 . S
C2351 C2352 1.396 . S
C2351 C2356 1.390 . S
C2352 C2346 1.465 . S
C2352 C2351 1.396 . S
C2352 C2353 1.399 . S
C2353 H2339 0.929 . S
C2353 C2352 1.399 . S
C2353 C2354 1.385 . S
C2354 H2340 0.931 . S
C2354 C2353 1.385 . S
C2354 C2355 1.389 . S
C2355 C2354 1.389 . S
C2355 C2356 1.387 . S
C2356 H2341 0.930 . S
C2356 C2351 1.390 . S
C2356 C2355 1.387 . S
H2357 C2369 0.930 . S
H2358 C2371 0.930 . S
H2359 C2372 0.930 . S
H2360 C2376 0.959 . S
H2361 C2376 0.959 . S
H2362 C2376 0.961 . S
H2363 C2377 0.960 . S
H2364 C2377 0.961 . S
H2365 C2377 0.959 . S
H2366 C2380 0.929 . S
H2367 C2381 0.931 . S
H2368 C2383 0.930 . S
C2369 H2357 0.930 . S
C2369 C2370 1.399 . S
C2369 C2374 1.399 . S
C2370 C2369 1.399 . S
C2370 C2371 1.376 . S
C2371 H2358 0.930 . S
C2371 C2370 1.376 . S
C2371 C2372 1.388 . S
C2372 H2359 0.930 . S
C2372 C2371 1.388 . S
C2372 C2373 1.390 . S
C2373 C2372 1.390 . S
C2373 C2374 1.394 . S
C2373 C2379 1.465 . S
C2374 C2369 1.399 . S
C2374 C2373 1.394 . S
C2374 C2375 1.516 . S
C2375 C2374 1.516 . S
C2375 C2376 1.502 . S
C2375 C2377 1.561 . S
C2375 C2378 1.526 . S
C2376 H2360 0.959 . S
C2376 H2361 0.959 . S
C2376 H2362 0.961 . S
C2376 C2375 1.502 . S
C2377 H2363 0.960 . S
C2377 H2364 0.961 . S
C2377 H2365 0.959 . S
C2377 C2375 1.561 . S
C2378 C2375 1.526 . S
C2378 C2379 1.396 . S
C2378 C2383 1.390 . S
C2379 C2373 1.465 . S
C2379 C2378 1.396 . S
C2379 C2380 1.399 . S
C2380 H2366 0.929 . S
C2380 C2379 1.399 . S
C2380 C2381 1.385 . S
C2381 H2367 0.931 . S
C2381 C2380 1.385 . S
C2381 C2382 1.389 . S
C2382 C2381 1.389 . S
C2382 C2383 1.387 . S
C2383 H2368 0.930 . S
C2383 C2378 1.390 . S
C2383 C2382 1.387 . S
H2384 C2396 0.930 . S
H2385 C2398 0.930 . S
H2386 C2399 0.930 . S
H2387 C2403 0.959 . S
H2388 C2403 0.959 . S
H2389 C2403 0.961 . S
H2390 C2404 0.960 . S
H2391 C2404 0.961 . S
H2392 C2404 0.959 . S
H2393 C2407 0.929 . S
H2394 C2408 0.931 . S
H2395 C2410 0.930 . S
C2396 H2384 0.930 . S
C2396 C2397 1.399 . S
C2396 C2401 1.399 . S
C2397 C2396 1.399 . S
C2397 C2398 1.376 . S
C2398 H2385 0.930 . S
C2398 C2397 1.376 . S
C2398 C2399 1.388 . S
C2399 H2386 0.930 . S
C2399 C2398 1.388 . S
C2399 C2400 1.390 . S
C2400 C2399 1.390 . S
C2400 C2401 1.394 . S
C2400 C2406 1.465 . S
C2401 C2396 1.399 . S
C2401 C2400 1.394 . S
C2401 C2402 1.516 . S
C2402 C2401 1.516 . S
C2402 C2403 1.502 . S
C2402 C2404 1.561 . S
C2402 C2405 1.526 . S
C2403 H2387 0.959 . S
C2403 H2388 0.959 . S
C2403 H2389 0.961 . S
C2403 C2402 1.502 . S
C2404 H2390 0.960 . S
C2404 H2391 0.961 . S
C2404 H2392 0.959 . S
C2404 C2402 1.561 . S
C2405 C2402 1.526 . S
C2405 C2406 1.396 . S
C2405 C2410 1.390 . S
C2406 C2400 1.465 . S
C2406 C2405 1.396 . S
C2406 C2407 1.399 . S
C2407 H2393 0.929 . S
C2407 C2406 1.399 . S
C2407 C2408 1.385 . S
C2408 H2394 0.931 . S
C2408 C2407 1.385 . S
C2408 C2409 1.389 . S
C2409 C2408 1.389 . S
C2409 C2410 1.387 . S
C2410 H2395 0.930 . S
C2410 C2405 1.390 . S
C2410 C2409 1.387 . S
H2411 C2423 0.930 . S
H2412 C2425 0.930 . S
H2413 C2426 0.930 . S
H2414 C2430 0.959 . S
H2415 C2430 0.959 . S
H2416 C2430 0.961 . S
H2417 C2431 0.960 . S
H2418 C2431 0.961 . S
H2419 C2431 0.959 . S
H2420 C2434 0.929 . S
H2421 C2435 0.931 . S
H2422 C2437 0.930 . S
C2423 H2411 0.930 . S
C2423 C2424 1.399 . S
C2423 C2428 1.399 . S
C2424 C2423 1.399 . S
C2424 C2425 1.376 . S
C2425 H2412 0.930 . S
C2425 C2424 1.376 . S
C2425 C2426 1.388 . S
C2426 H2413 0.930 . S
C2426 C2425 1.388 . S
C2426 C2427 1.390 . S
C2427 C2426 1.390 . S
C2427 C2428 1.394 . S
C2427 C2433 1.465 . S
C2428 C2423 1.399 . S
C2428 C2427 1.394 . S
C2428 C2429 1.516 . S
C2429 C2428 1.516 . S
C2429 C2430 1.502 . S
C2429 C2431 1.561 . S
C2429 C2432 1.526 . S
C2430 H2414 0.959 . S
C2430 H2415 0.959 . S
C2430 H2416 0.961 . S
C2430 C2429 1.502 . S
C2431 H2417 0.960 . S
C2431 H2418 0.961 . S
C2431 H2419 0.959 . S
C2431 C2429 1.561 . S
C2432 C2429 1.526 . S
C2432 C2433 1.396 . S
C2432 C2437 1.390 . S
C2433 C2427 1.465 . S
C2433 C2432 1.396 . S
C2433 C2434 1.399 . S
C2434 H2420 0.929 . S
C2434 C2433 1.399 . S
C2434 C2435 1.385 . S
C2435 H2421 0.931 . S
C2435 C2434 1.385 . S
C2435 C2436 1.389 . S
C2436 C2435 1.389 . S
C2436 C2437 1.387 . S
C2437 H2422 0.930 . S
C2437 C2432 1.390 . S
C2437 C2436 1.387 . S
H2438 C2450 0.930 . S
H2439 C2452 0.930 . S
H2440 C2453 0.930 . S
H2441 C2457 0.959 . S
H2442 C2457 0.959 . S
H2443 C2457 0.961 . S
H2444 C2458 0.960 . S
H2445 C2458 0.961 . S
H2446 C2458 0.959 . S
H2447 C2461 0.929 . S
H2448 C2462 0.931 . S
H2449 C2464 0.930 . S
C2450 H2438 0.930 . S
C2450 C2451 1.399 . S
C2450 C2455 1.399 . S
C2451 C2450 1.399 . S
C2451 C2452 1.376 . S
C2452 H2439 0.930 . S
C2452 C2451 1.376 . S
C2452 C2453 1.388 . S
C2453 H2440 0.930 . S
C2453 C2452 1.388 . S
C2453 C2454 1.390 . S
C2454 C2453 1.390 . S
C2454 C2455 1.394 . S
C2454 C2460 1.465 . S
C2455 C2450 1.399 . S
C2455 C2454 1.394 . S
C2455 C2456 1.516 . S
C2456 C2455 1.516 . S
C2456 C2457 1.502 . S
C2456 C2458 1.561 . S
C2456 C2459 1.526 . S
C2457 H2441 0.959 . S
C2457 H2442 0.959 . S
C2457 H2443 0.961 . S
C2457 C2456 1.502 . S
C2458 H2444 0.960 . S
C2458 H2445 0.961 . S
C2458 H2446 0.959 . S
C2458 C2456 1.561 . S
C2459 C2456 1.526 . S
C2459 C2460 1.396 . S
C2459 C2464 1.390 . S
C2460 C2454 1.465 . S
C2460 C2459 1.396 . S
C2460 C2461 1.399 . S
C2461 H2447 0.929 . S
C2461 C2460 1.399 . S
C2461 C2462 1.385 . S
C2462 H2448 0.931 . S
C2462 C2461 1.385 . S
C2462 C2463 1.389 . S
C2463 C2462 1.389 . S
C2463 C2464 1.387 . S
C2464 H2449 0.930 . S
C2464 C2459 1.390 . S
C2464 C2463 1.387 . S
H2465 C2477 0.930 . S
H2466 C2479 0.930 . S
H2467 C2480 0.930 . S
H2468 C2484 0.959 . S
H2469 C2484 0.959 . S
H2470 C2484 0.961 . S
H2471 C2485 0.960 . S
H2472 C2485 0.961 . S
H2473 C2485 0.959 . S
H2474 C2488 0.929 . S
H2475 C2489 0.931 1_545 S
H2476 C2491 0.930 . S
C2477 H2465 0.930 . S
C2477 C2478 1.399 . S
C2477 C2482 1.399 . S
C2478 C2477 1.399 . S
C2478 C2479 1.376 . S
C2479 H2466 0.930 . S
C2479 C2478 1.376 . S
C2479 C2480 1.388 . S
C2480 H2467 0.930 . S
C2480 C2479 1.388 . S
C2480 C2481 1.390 . S
C2481 C2480 1.390 . S
C2481 C2482 1.394 . S
C2481 C2487 1.465 . S
C2482 C2477 1.399 . S
C2482 C2481 1.394 . S
C2482 C2483 1.516 . S
C2483 C2482 1.516 . S
C2483 C2484 1.502 . S
C2483 C2485 1.561 1_554 S
C2483 C2486 1.526 . S
C2484 H2468 0.959 . S
C2484 H2469 0.959 . S
C2484 H2470 0.961 . S
C2484 C2483 1.502 . S
C2485 H2471 0.960 . S
C2485 H2472 0.961 . S
C2485 H2473 0.959 . S
C2485 C2483 1.561 1_556 S
C2486 C2483 1.526 . S
C2486 C2487 1.396 . S
C2486 C2491 1.390 . S
C2487 C2481 1.465 . S
C2487 C2486 1.396 . S
C2487 C2488 1.399 . S
C2488 H2474 0.929 . S
C2488 C2487 1.399 . S
C2488 C2489 1.385 . S
C2489 H2475 0.931 1_565 S
C2489 C2488 1.385 . S
C2489 C2490 1.389 . S
C2490 C2489 1.389 . S
C2490 C2491 1.387 . S
C2491 H2476 0.930 . S
C2491 C2486 1.390 . S
C2491 C2490 1.387 . S
H2492 C2504 0.930 . S
H2493 C2506 0.930 . S
H2494 C2507 0.930 . S
H2495 C2511 0.959 . S
H2496 C2511 0.959 . S
H2497 C2511 0.961 . S
H2498 C2512 0.960 . S
H2499 C2512 0.961 . S
H2500 C2512 0.959 . S
H2501 C2515 0.929 . S
H2502 C2516 0.931 . S
H2503 C2518 0.930 . S
C2504 H2492 0.930 . S
C2504 C2505 1.399 . S
C2504 C2509 1.399 . S
C2505 C2504 1.399 . S
C2505 C2506 1.376 . S
C2506 H2493 0.930 . S
C2506 C2505 1.376 . S
C2506 C2507 1.388 . S
C2507 H2494 0.930 . S
C2507 C2506 1.388 . S
C2507 C2508 1.390 . S
C2508 C2507 1.390 . S
C2508 C2509 1.394 . S
C2508 C2514 1.465 . S
C2509 C2504 1.399 . S
C2509 C2508 1.394 . S
C2509 C2510 1.516 . S
C2510 C2509 1.516 . S
C2510 C2511 1.502 . S
C2510 C2512 1.561 . S
C2510 C2513 1.526 . S
C2511 H2495 0.959 . S
C2511 H2496 0.959 . S
C2511 H2497 0.961 . S
C2511 C2510 1.502 . S
C2512 H2498 0.960 . S
C2512 H2499 0.961 . S
C2512 H2500 0.959 . S
C2512 C2510 1.561 . S
C2513 C2510 1.526 . S
C2513 C2514 1.396 . S
C2513 C2518 1.390 . S
C2514 C2508 1.465 . S
C2514 C2513 1.396 . S
C2514 C2515 1.399 . S
C2515 H2501 0.929 . S
C2515 C2514 1.399 . S
C2515 C2516 1.385 . S
C2516 H2502 0.931 . S
C2516 C2515 1.385 . S
C2516 C2517 1.389 . S
C2517 C2516 1.389 . S
C2517 C2518 1.387 . S
C2518 H2503 0.930 . S
C2518 C2513 1.390 . S
C2518 C2517 1.387 . S
H2519 C2531 0.930 . S
H2520 C2533 0.930 . S
H2521 C2534 0.930 . S
H2522 C2538 0.959 . S
H2523 C2538 0.959 . S
H2524 C2538 0.961 . S
H2525 C2539 0.960 . S
H2526 C2539 0.961 . S
H2527 C2539 0.959 . S
H2528 C2542 0.929 . S
H2529 C2543 0.931 1_556 S
H2530 C2545 0.930 . S
C2531 H2519 0.930 . S
C2531 C2532 1.399 . S
C2531 C2536 1.399 . S
C2532 C2531 1.399 . S
C2532 C2533 1.376 1_554 S
C2533 H2520 0.930 . S
C2533 C2532 1.376 1_556 S
C2533 C2534 1.388 . S
C2534 H2521 0.930 . S
C2534 C2533 1.388 . S
C2534 C2535 1.390 1_556 S
C2535 C2534 1.390 1_554 S
C2535 C2536 1.394 . S
C2535 C2541 1.465 . S
C2536 C2531 1.399 . S
C2536 C2535 1.394 . S
C2536 C2537 1.516 . S
C2537 C2536 1.516 . S
C2537 C2538 1.502 . S
C2537 C2539 1.561 . S
C2537 C2540 1.526 . S
C2538 H2522 0.959 . S
C2538 H2523 0.959 . S
C2538 H2524 0.961 . S
C2538 C2537 1.502 . S
C2539 H2525 0.960 . S
C2539 H2526 0.961 . S
C2539 H2527 0.959 . S
C2539 C2537 1.561 . S
C2540 C2537 1.526 . S
C2540 C2541 1.396 . S
C2540 C2545 1.390 . S
C2541 C2535 1.465 . S
C2541 C2540 1.396 . S
C2541 C2542 1.399 1_554 S
C2542 H2528 0.929 . S
C2542 C2541 1.399 1_556 S
C2542 C2543 1.385 1_556 S
C2543 H2529 0.931 1_554 S
C2543 C2542 1.385 1_554 S
C2543 C2544 1.389 . S
C2544 C2543 1.389 . S
C2544 C2545 1.387 . S
C2545 H2530 0.930 . S
C2545 C2540 1.390 . S
C2545 C2544 1.387 . S
H2546 C2558 0.930 . S
H2547 C2560 0.930 . S
H2548 C2561 0.930 . S
H2549 C2565 0.959 . S
H2550 C2565 0.959 . S
H2551 C2565 0.961 . S
H2552 C2566 0.960 . S
H2553 C2566 0.961 . S
H2554 C2566 0.959 . S
H2555 C2569 0.929 . S
H2556 C2570 0.931 . S
H2557 C2572 0.930 . S
C2558 H2546 0.930 . S
C2558 C2559 1.399 . S
C2558 C2563 1.399 . S
C2559 C2558 1.399 . S
C2559 C2560 1.376 . S
C2560 H2547 0.930 . S
C2560 C2559 1.376 . S
C2560 C2561 1.388 . S
C2561 H2548 0.930 . S
C2561 C2560 1.388 . S
C2561 C2562 1.390 . S
C2562 C2561 1.390 . S
C2562 C2563 1.394 . S
C2562 C2568 1.465 . S
C2563 C2558 1.399 . S
C2563 C2562 1.394 . S
C2563 C2564 1.516 . S
C2564 C2563 1.516 . S
C2564 C2565 1.502 . S
C2564 C2566 1.561 . S
C2564 C2567 1.526 . S
C2565 H2549 0.959 . S
C2565 H2550 0.959 . S
C2565 H2551 0.961 . S
C2565 C2564 1.502 . S
C2566 H2552 0.960 . S
C2566 H2553 0.961 . S
C2566 H2554 0.959 . S
C2566 C2564 1.561 . S
C2567 C2564 1.526 . S
C2567 C2568 1.396 . S
C2567 C2572 1.390 . S
C2568 C2562 1.465 . S
C2568 C2567 1.396 . S
C2568 C2569 1.399 . S
C2569 H2555 0.929 . S
C2569 C2568 1.399 . S
C2569 C2570 1.385 . S
C2570 H2556 0.931 . S
C2570 C2569 1.385 . S
C2570 C2571 1.389 . S
C2571 C2570 1.389 . S
C2571 C2572 1.387 . S
C2572 H2557 0.930 . S
C2572 C2567 1.390 . S
C2572 C2571 1.387 . S
H2573 C2585 0.930 . S
H2574 C2587 0.930 . S
H2575 C2588 0.930 . S
H2576 C2592 0.959 . S
H2577 C2592 0.959 . S
H2578 C2592 0.961 . S
H2579 C2593 0.960 . S
H2580 C2593 0.961 . S
H2581 C2593 0.959 . S
H2582 C2596 0.929 . S
H2583 C2597 0.931 . S
H2584 C2599 0.930 . S
C2585 H2573 0.930 . S
C2585 C2586 1.399 . S
C2585 C2590 1.399 . S
C2586 C2585 1.399 . S
C2586 C2587 1.376 . S
C2587 H2574 0.930 . S
C2587 C2586 1.376 . S
C2587 C2588 1.388 . S
C2588 H2575 0.930 . S
C2588 C2587 1.388 . S
C2588 C2589 1.390 . S
C2589 C2588 1.390 . S
C2589 C2590 1.394 . S
C2589 C2595 1.465 . S
C2590 C2585 1.399 . S
C2590 C2589 1.394 . S
C2590 C2591 1.516 . S
C2591 C2590 1.516 . S
C2591 C2592 1.502 . S
C2591 C2593 1.561 . S
C2591 C2594 1.526 . S
C2592 H2576 0.959 . S
C2592 H2577 0.959 . S
C2592 H2578 0.961 . S
C2592 C2591 1.502 . S
C2593 H2579 0.960 . S
C2593 H2580 0.961 . S
C2593 H2581 0.959 . S
C2593 C2591 1.561 . S
C2594 C2591 1.526 . S
C2594 C2595 1.396 . S
C2594 C2599 1.390 . S
C2595 C2589 1.465 . S
C2595 C2594 1.396 . S
C2595 C2596 1.399 . S
C2596 H2582 0.929 . S
C2596 C2595 1.399 . S
C2596 C2597 1.385 . S
C2597 H2583 0.931 . S
C2597 C2596 1.385 . S
C2597 C2598 1.389 . S
C2598 C2597 1.389 . S
C2598 C2599 1.387 . S
C2599 H2584 0.930 . S
C2599 C2594 1.390 . S
C2599 C2598 1.387 . S
H2600 C2612 0.930 . S
H2601 C2614 0.930 . S
H2602 C2615 0.930 . S
H2603 C2619 0.959 . S
H2604 C2619 0.959 . S
H2605 C2619 0.961 . S
H2606 C2620 0.960 . S
H2607 C2620 0.961 . S
H2608 C2620 0.959 . S
H2609 C2623 0.929 . S
H2610 C2624 0.931 . S
H2611 C2626 0.930 . S
C2612 H2600 0.930 . S
C2612 C2613 1.399 . S
C2612 C2617 1.399 . S
C2613 C2612 1.399 . S
C2613 C2614 1.376 . S
C2614 H2601 0.930 . S
C2614 C2613 1.376 . S
C2614 C2615 1.388 . S
C2615 H2602 0.930 . S
C2615 C2614 1.388 . S
C2615 C2616 1.390 . S
C2616 C2615 1.390 . S
C2616 C2617 1.394 . S
C2616 C2622 1.465 . S
C2617 C2612 1.399 . S
C2617 C2616 1.394 . S
C2617 C2618 1.516 . S
C2618 C2617 1.516 . S
C2618 C2619 1.502 . S
C2618 C2620 1.561 . S
C2618 C2621 1.526 . S
C2619 H2603 0.959 . S
C2619 H2604 0.959 . S
C2619 H2605 0.961 . S
C2619 C2618 1.502 . S
C2620 H2606 0.960 . S
C2620 H2607 0.961 . S
C2620 H2608 0.959 . S
C2620 C2618 1.561 . S
C2621 C2618 1.526 . S
C2621 C2622 1.396 . S
C2621 C2626 1.390 . S
C2622 C2616 1.465 . S
C2622 C2621 1.396 . S
C2622 C2623 1.399 . S
C2623 H2609 0.929 . S
C2623 C2622 1.399 . S
C2623 C2624 1.385 . S
C2624 H2610 0.931 . S
C2624 C2623 1.385 . S
C2624 C2625 1.389 . S
C2625 C2624 1.389 . S
C2625 C2626 1.387 . S
C2626 H2611 0.930 . S
C2626 C2621 1.390 . S
C2626 C2625 1.387 . S
H2627 C2639 0.930 . S
H2628 C2641 0.930 . S
H2629 C2642 0.930 . S
H2630 C2646 0.959 . S
H2631 C2646 0.959 . S
H2632 C2646 0.961 . S
H2633 C2647 0.960 . S
H2634 C2647 0.961 . S
H2635 C2647 0.959 . S
H2636 C2650 0.929 . S
H2637 C2651 0.931 . S
H2638 C2653 0.930 . S
C2639 H2627 0.930 . S
C2639 C2640 1.399 . S
C2639 C2644 1.399 . S
C2640 C2639 1.399 . S
C2640 C2641 1.376 . S
C2641 H2628 0.930 . S
C2641 C2640 1.376 . S
C2641 C2642 1.388 . S
C2642 H2629 0.930 . S
C2642 C2641 1.388 . S
C2642 C2643 1.390 . S
C2643 C2642 1.390 . S
C2643 C2644 1.394 . S
C2643 C2649 1.465 . S
C2644 C2639 1.399 . S
C2644 C2643 1.394 . S
C2644 C2645 1.516 . S
C2645 C2644 1.516 . S
C2645 C2646 1.502 . S
C2645 C2647 1.561 . S
C2645 C2648 1.526 . S
C2646 H2630 0.959 . S
C2646 H2631 0.959 . S
C2646 H2632 0.961 . S
C2646 C2645 1.502 . S
C2647 H2633 0.960 . S
C2647 H2634 0.961 . S
C2647 H2635 0.959 . S
C2647 C2645 1.561 . S
C2648 C2645 1.526 . S
C2648 C2649 1.396 . S
C2648 C2653 1.390 . S
C2649 C2643 1.465 . S
C2649 C2648 1.396 . S
C2649 C2650 1.399 . S
C2650 H2636 0.929 . S
C2650 C2649 1.399 . S
C2650 C2651 1.385 . S
C2651 H2637 0.931 . S
C2651 C2650 1.385 . S
C2651 C2652 1.389 . S
C2652 C2651 1.389 . S
C2652 C2653 1.387 . S
C2653 H2638 0.930 . S
C2653 C2648 1.390 . S
C2653 C2652 1.387 . S
H2654 C2666 0.930 . S
H2655 C2668 0.930 . S
H2656 C2669 0.930 . S
H2657 C2673 0.959 . S
H2658 C2673 0.959 . S
H2659 C2673 0.961 . S
H2660 C2674 0.960 . S
H2661 C2674 0.961 . S
H2662 C2674 0.959 . S
H2663 C2677 0.938 . S
H2664 C2678 0.931 . S
H2665 C2680 0.930 . S
C2666 H2654 0.930 . S
C2666 C2667 1.399 . S
C2666 C2671 1.399 . S
C2667 C2666 1.399 . S
C2667 C2668 1.376 . S
C2668 H2655 0.930 . S
C2668 C2667 1.376 . S
C2668 C2669 1.388 . S
C2669 H2656 0.930 . S
C2669 C2668 1.388 . S
C2669 C2670 1.390 . S
C2670 C2669 1.390 . S
C2670 C2671 1.394 . S
C2670 C2676 1.465 . S
C2671 C2666 1.399 . S
C2671 C2670 1.394 . S
C2671 C2672 1.516 . S
C2672 C2671 1.516 . S
C2672 C2673 1.502 . S
C2672 C2674 1.561 . S
C2672 C2675 1.526 . S
C2673 H2657 0.959 . S
C2673 H2658 0.959 . S
C2673 H2659 0.961 . S
C2673 C2672 1.502 . S
C2674 H2660 0.960 . S
C2674 H2661 0.961 . S
C2674 H2662 0.959 . S
C2674 C2672 1.561 . S
C2675 C2672 1.526 . S
C2675 C2676 1.396 . S
C2675 C2680 1.390 . S
C2676 C2670 1.465 . S
C2676 C2675 1.396 . S
C2676 C2677 1.399 . S
C2677 H2663 0.938 . S
C2677 C2676 1.399 . S
C2677 C2678 1.385 . S
C2678 H2664 0.931 . S
C2678 C2677 1.385 . S
C2678 C2679 1.389 . S
C2679 C2678 1.389 . S
C2679 C2680 1.387 . S
C2680 H2665 0.930 . S
C2680 C2675 1.390 . S
C2680 C2679 1.387 . S
H2681 C2693 0.930 . S
H2682 C2695 0.930 . S
H2683 C2696 0.930 . S
H2684 C2700 0.959 . S
H2685 C2700 0.959 . S
H2686 C2700 0.961 . S
H2687 C2701 0.960 . S
H2688 C2701 0.961 . S
H2689 C2701 0.959 . S
H2690 C2704 0.929 . S
H2691 C2705 0.931 . S
H2692 C2707 0.930 . S
C2693 H2681 0.930 . S
C2693 C2694 1.399 . S
C2693 C2698 1.399 . S
C2694 C2693 1.399 . S
C2694 C2695 1.376 . S
C2695 H2682 0.930 . S
C2695 C2694 1.376 . S
C2695 C2696 1.388 . S
C2696 H2683 0.930 . S
C2696 C2695 1.388 . S
C2696 C2697 1.390 . S
C2697 C2696 1.390 . S
C2697 C2698 1.394 . S
C2697 C2703 1.465 . S
C2698 C2693 1.399 . S
C2698 C2697 1.394 . S
C2698 C2699 1.516 . S
C2699 C2698 1.516 . S
C2699 C2700 1.502 . S
C2699 C2701 1.561 . S
C2699 C2702 1.526 . S
C2700 H2684 0.959 . S
C2700 H2685 0.959 . S
C2700 H2686 0.961 . S
C2700 C2699 1.502 . S
C2701 H2687 0.960 . S
C2701 H2688 0.961 . S
C2701 H2689 0.959 . S
C2701 C2699 1.561 . S
C2702 C2699 1.526 . S
C2702 C2703 1.396 . S
C2702 C2707 1.390 . S
C2703 C2697 1.465 . S
C2703 C2702 1.396 . S
C2703 C2704 1.399 . S
C2704 H2690 0.929 . S
C2704 C2703 1.399 . S
C2704 C2705 1.385 . S
C2705 H2691 0.931 . S
C2705 C2704 1.385 . S
C2705 C2706 1.389 . S
C2706 C2705 1.389 . S
C2706 C2707 1.387 . S
C2707 H2692 0.930 . S
C2707 C2702 1.390 . S
C2707 C2706 1.387 . S
H2708 C2720 0.930 . S
H2709 C2722 0.930 . S
H2710 C2723 0.930 . S
H2711 C2727 0.959 . S
H2712 C2727 0.959 1_554 S
H2713 C2727 0.961 . S
H2714 C2728 0.960 . S
H2715 C2728 0.961 . S
H2716 C2728 0.967 . S
H2717 C2731 0.929 . S
H2718 C2732 0.931 . S
H2719 C2734 0.930 1_554 S
C2720 H2708 0.930 . S
C2720 C2721 1.399 . S
C2720 C2725 1.399 . S
C2721 C2720 1.399 . S
C2721 C2722 1.376 . S
C2722 H2709 0.930 . S
C2722 C2721 1.376 . S
C2722 C2723 1.388 . S
C2723 H2710 0.930 . S
C2723 C2722 1.388 . S
C2723 C2724 1.390 . S
C2724 C2723 1.390 . S
C2724 C2725 1.394 . S
C2724 C2730 1.465 . S
C2725 C2720 1.399 . S
C2725 C2724 1.394 . S
C2725 C2726 1.516 . S
C2726 C2725 1.516 . S
C2726 C2727 1.502 . S
C2726 C2728 1.561 1_556 S
C2726 C2729 1.526 . S
C2727 H2711 0.959 . S
C2727 H2712 0.959 1_556 S
C2727 H2713 0.961 . S
C2727 C2726 1.502 . S
C2728 H2714 0.960 . S
C2728 H2715 0.961 . S
C2728 H2716 0.967 . S
C2728 C2726 1.561 1_554 S
C2729 C2726 1.526 . S
C2729 C2730 1.396 . S
C2729 C2734 1.390 . S
C2730 C2724 1.465 . S
C2730 C2729 1.396 . S
C2730 C2731 1.399 . S
C2731 H2717 0.929 . S
C2731 C2730 1.399 . S
C2731 C2732 1.385 . S
C2732 H2718 0.931 . S
C2732 C2731 1.385 . S
C2732 C2733 1.389 . S
C2733 C2732 1.389 . S
C2733 C2734 1.387 . S
C2734 H2719 0.930 1_556 S
C2734 C2729 1.390 . S
C2734 C2733 1.387 . S
H2735 C2747 0.930 . S
H2736 C2749 0.930 . S
H2737 C2750 0.930 . S
H2738 C2754 0.959 . S
H2739 C2754 0.959 . S
H2740 C2754 0.961 . S
H2741 C2755 0.960 . S
H2742 C2755 0.961 . S
H2743 C2755 0.959 . S
H2744 C2758 0.929 . S
H2745 C2759 0.931 . S
H2746 C2761 0.930 . S
C2747 H2735 0.930 . S
C2747 C2748 1.399 . S
C2747 C2752 1.399 . S
C2748 C2747 1.399 . S
C2748 C2749 1.376 . S
C2749 H2736 0.930 . S
C2749 C2748 1.376 . S
C2749 C2750 1.388 . S
C2750 H2737 0.930 . S
C2750 C2749 1.388 . S
C2750 C2751 1.390 . S
C2751 C2750 1.390 . S
C2751 C2752 1.394 . S
C2751 C2757 1.465 . S
C2752 C2747 1.399 . S
C2752 C2751 1.394 . S
C2752 C2753 1.516 . S
C2753 C2752 1.516 . S
C2753 C2754 1.502 . S
C2753 C2755 1.561 . S
C2753 C2756 1.526 . S
C2754 H2738 0.959 . S
C2754 H2739 0.959 . S
C2754 H2740 0.961 . S
C2754 C2753 1.502 . S
C2755 H2741 0.960 . S
C2755 H2742 0.961 . S
C2755 H2743 0.959 . S
C2755 C2753 1.561 . S
C2756 C2753 1.526 . S
C2756 C2757 1.396 . S
C2756 C2761 1.390 . S
C2757 C2751 1.465 . S
C2757 C2756 1.396 . S
C2757 C2758 1.399 . S
C2758 H2744 0.929 . S
C2758 C2757 1.399 . S
C2758 C2759 1.385 . S
C2759 H2745 0.931 . S
C2759 C2758 1.385 . S
C2759 C2760 1.389 . S
C2760 C2759 1.389 . S
C2760 C2761 1.387 . S
C2761 H2746 0.930 . S
C2761 C2756 1.390 . S
C2761 C2760 1.387 . S
H2762 C2774 0.930 . S
H2763 C2776 0.930 1_655 S
H2764 C2777 0.930 . S
H2765 C2781 0.959 . S
H2766 C2781 0.959 . S
H2767 C2781 0.961 . S
H2768 C2782 0.960 . S
H2769 C2782 0.961 . S
H2770 C2782 0.959 . S
H2771 C2785 0.929 . S
H2772 C2786 0.931 . S
H2773 C2788 0.930 . S
C2774 H2762 0.930 . S
C2774 C2775 1.399 . S
C2774 C2779 1.399 . S
C2775 C2774 1.399 . S
C2775 C2776 1.376 . S
C2776 H2763 0.930 1_455 S
C2776 C2775 1.376 . S
C2776 C2777 1.388 1_455 S
C2777 H2764 0.930 . S
C2777 C2776 1.388 1_655 S
C2777 C2778 1.390 1_655 S
C2778 C2777 1.390 1_455 S
C2778 C2779 1.394 . S
C2778 C2784 1.465 . S
C2779 C2774 1.399 . S
C2779 C2778 1.394 . S
C2779 C2780 1.516 . S
C2780 C2779 1.516 . S
C2780 C2781 1.502 . S
C2780 C2782 1.561 . S
C2780 C2783 1.526 . S
C2781 H2765 0.959 . S
C2781 H2766 0.959 . S
C2781 H2767 0.961 . S
C2781 C2780 1.502 . S
C2782 H2768 0.960 . S
C2782 H2769 0.961 . S
C2782 H2770 0.959 . S
C2782 C2780 1.561 . S
C2783 C2780 1.526 . S
C2783 C2784 1.396 . S
C2783 C2788 1.390 . S
C2784 C2778 1.465 . S
C2784 C2783 1.396 . S
C2784 C2785 1.399 1_455 S
C2785 H2771 0.929 . S
C2785 C2784 1.399 1_655 S
C2785 C2786 1.385 . S
C2786 H2772 0.931 . S
C2786 C2785 1.385 . S
C2786 C2787 1.389 1_655 S
C2787 C2786 1.389 1_455 S
C2787 C2788 1.387 . S
C2788 H2773 0.930 . S
C2788 C2783 1.390 . S
C2788 C2787 1.387 . S
H2789 C2801 0.930 . S
H2790 C2803 0.930 . S
H2791 C2804 0.930 . S
H2792 C2808 0.959 . S
H2793 C2808 0.959 . S
H2794 C2808 0.961 . S
H2795 C2809 0.960 . S
H2796 C2809 0.961 . S
H2797 C2809 0.959 . S
H2798 C2812 0.929 . S
H2799 C2813 0.931 . S
H2800 C2815 0.930 . S
C2801 H2789 0.930 . S
C2801 C2802 1.399 . S
C2801 C2806 1.399 . S
C2802 C2801 1.399 . S
C2802 C2803 1.376 . S
C2803 H2790 0.930 . S
C2803 C2802 1.376 . S
C2803 C2804 1.388 . S
C2804 H2791 0.930 . S
C2804 C2803 1.388 . S
C2804 C2805 1.390 . S
C2805 C2804 1.390 . S
C2805 C2806 1.394 . S
C2805 C2811 1.465 . S
C2806 C2801 1.399 . S
C2806 C2805 1.394 . S
C2806 C2807 1.516 . S
C2807 C2806 1.516 . S
C2807 C2808 1.502 . S
C2807 C2809 1.561 . S
C2807 C2810 1.526 . S
C2808 H2792 0.959 . S
C2808 H2793 0.959 . S
C2808 H2794 0.961 . S
C2808 C2807 1.502 . S
C2809 H2795 0.960 . S
C2809 H2796 0.961 . S
C2809 H2797 0.959 . S
C2809 C2807 1.561 . S
C2810 C2807 1.526 . S
C2810 C2811 1.396 . S
C2810 C2815 1.390 . S
C2811 C2805 1.465 . S
C2811 C2810 1.396 . S
C2811 C2812 1.399 . S
C2812 H2798 0.929 . S
C2812 C2811 1.399 . S
C2812 C2813 1.385 . S
C2813 H2799 0.931 . S
C2813 C2812 1.385 . S
C2813 C2814 1.389 . S
C2814 C2813 1.389 . S
C2814 C2815 1.387 . S
C2815 H2800 0.930 . S
C2815 C2810 1.390 . S
C2815 C2814 1.387 . S
H2816 C2828 0.930 . S
H2817 C2830 0.930 . S
H2818 C2831 0.930 . S
H2819 C2835 0.959 . S
H2820 C2835 0.959 . S
H2821 C2835 0.961 . S
H2822 C2836 0.960 . S
H2823 C2836 0.961 . S
H2824 C2836 0.959 . S
H2825 C2839 0.929 . S
H2826 C2840 0.931 . S
H2827 C2842 0.930 . S
C2828 H2816 0.930 . S
C2828 C2829 1.399 . S
C2828 C2833 1.399 . S
C2829 C2828 1.399 . S
C2829 C2830 1.376 . S
C2830 H2817 0.930 . S
C2830 C2829 1.376 . S
C2830 C2831 1.388 . S
C2831 H2818 0.930 . S
C2831 C2830 1.388 . S
C2831 C2832 1.390 . S
C2832 C2831 1.390 . S
C2832 C2833 1.394 . S
C2832 C2838 1.465 . S
C2833 C2828 1.399 . S
C2833 C2832 1.394 . S
C2833 C2834 1.516 . S
C2834 C2833 1.516 . S
C2834 C2835 1.502 . S
C2834 C2836 1.561 . S
C2834 C2837 1.526 . S
C2835 H2819 0.959 . S
C2835 H2820 0.959 . S
C2835 H2821 0.961 . S
C2835 C2834 1.502 . S
C2836 H2822 0.960 . S
C2836 H2823 0.961 . S
C2836 H2824 0.959 . S
C2836 C2834 1.561 . S
C2837 C2834 1.526 . S
C2837 C2838 1.396 . S
C2837 C2842 1.390 . S
C2838 C2832 1.465 . S
C2838 C2837 1.396 . S
C2838 C2839 1.399 . S
C2839 H2825 0.929 . S
C2839 C2838 1.399 . S
C2839 C2840 1.385 . S
C2840 H2826 0.931 . S
C2840 C2839 1.385 . S
C2840 C2841 1.389 . S
C2841 C2840 1.389 . S
C2841 C2842 1.387 . S
C2842 H2827 0.930 . S
C2842 C2837 1.390 . S
C2842 C2841 1.387 . S
H2843 C2855 0.930 . S
H2844 C2857 0.930 . S
H2845 C2858 0.930 . S
H2846 C2862 0.959 . S
H2847 C2862 0.959 . S
H2848 C2862 0.961 . S
H2849 C2863 0.960 . S
H2850 C2863 0.961 . S
H2851 C2863 0.959 . S
H2852 C2866 0.929 . S
H2853 C2867 0.931 . S
H2854 C2869 0.930 . S
C2855 H2843 0.930 . S
C2855 C2856 1.399 . S
C2855 C2860 1.399 . S
C2856 C2855 1.399 . S
C2856 C2857 1.376 . S
C2857 H2844 0.930 . S
C2857 C2856 1.376 . S
C2857 C2858 1.388 . S
C2858 H2845 0.930 . S
C2858 C2857 1.388 . S
C2858 C2859 1.390 . S
C2859 C2858 1.390 . S
C2859 C2860 1.394 . S
C2859 C2865 1.465 . S
C2860 C2855 1.399 . S
C2860 C2859 1.394 . S
C2860 C2861 1.516 . S
C2861 C2860 1.516 . S
C2861 C2862 1.502 . S
C2861 C2863 1.561 . S
C2861 C2864 1.526 . S
C2862 H2846 0.959 . S
C2862 H2847 0.959 . S
C2862 H2848 0.961 . S
C2862 C2861 1.502 . S
C2863 H2849 0.960 . S
C2863 H2850 0.961 . S
C2863 H2851 0.959 . S
C2863 C2861 1.561 . S
C2864 C2861 1.526 . S
C2864 C2865 1.396 . S
C2864 C2869 1.390 . S
C2865 C2859 1.465 . S
C2865 C2864 1.396 . S
C2865 C2866 1.399 . S
C2866 H2852 0.929 . S
C2866 C2865 1.399 . S
C2866 C2867 1.385 . S
C2867 H2853 0.931 . S
C2867 C2866 1.385 . S
C2867 C2868 1.389 . S
C2868 C2867 1.389 . S
C2868 C2869 1.387 . S
C2869 H2854 0.930 . S
C2869 C2864 1.390 . S
C2869 C2868 1.387 . S
H2870 C2882 0.930 . S
H2871 C2884 0.930 . S
H2872 C2885 0.930 . S
H2873 C2889 0.955 . S
H2874 C2889 0.959 . S
H2875 C2889 0.961 . S
H2876 C2890 0.960 . S
H2877 C2890 0.961 . S
H2878 C2890 0.959 . S
H2879 C2893 0.929 . S
H2880 C2894 0.931 . S
H2881 C2896 0.930 . S
C2882 H2870 0.930 . S
C2882 C2883 1.399 . S
C2882 C2887 1.399 . S
C2883 C2882 1.399 . S
C2883 C2884 1.376 . S
C2884 H2871 0.930 . S
C2884 C2883 1.376 . S
C2884 C2885 1.388 . S
C2885 H2872 0.930 . S
C2885 C2884 1.388 . S
C2885 C2886 1.390 . S
C2886 C2885 1.390 . S
C2886 C2887 1.394 . S
C2886 C2892 1.465 . S
C2887 C2882 1.399 . S
C2887 C2886 1.394 . S
C2887 C2888 1.516 . S
C2888 C2887 1.516 . S
C2888 C2889 1.502 . S
C2888 C2890 1.561 . S
C2888 C2891 1.526 . S
C2889 H2873 0.955 . S
C2889 H2874 0.959 . S
C2889 H2875 0.961 . S
C2889 C2888 1.502 . S
C2890 H2876 0.960 . S
C2890 H2877 0.961 . S
C2890 H2878 0.959 . S
C2890 C2888 1.561 . S
C2891 C2888 1.526 . S
C2891 C2892 1.396 . S
C2891 C2896 1.390 . S
C2892 C2886 1.465 . S
C2892 C2891 1.396 . S
C2892 C2893 1.399 . S
C2893 H2879 0.929 . S
C2893 C2892 1.399 . S
C2893 C2894 1.385 . S
C2894 H2880 0.931 . S
C2894 C2893 1.385 . S
C2894 C2895 1.389 . S
C2895 C2894 1.389 . S
C2895 C2896 1.387 . S
C2896 H2881 0.930 . S
C2896 C2891 1.390 . S
C2896 C2895 1.387 . S
H2897 C2909 0.930 . S
H2898 C2911 0.930 . S
H2899 C2912 0.930 . S
H2900 C2916 0.959 . S
H2901 C2916 0.959 . S
H2902 C2916 0.961 . S
H2903 C2917 0.960 . S
H2904 C2917 0.961 . S
H2905 C2917 0.959 . S
H2906 C2920 0.929 . S
H2907 C2921 0.931 . S
H2908 C2923 0.930 . S
C2909 H2897 0.930 . S
C2909 C2910 1.399 . S
C2909 C2914 1.399 . S
C2910 C2909 1.399 . S
C2910 C2911 1.376 . S
C2911 H2898 0.930 . S
C2911 C2910 1.376 . S
C2911 C2912 1.388 . S
C2912 H2899 0.930 . S
C2912 C2911 1.388 . S
C2912 C2913 1.390 . S
C2913 C2912 1.390 . S
C2913 C2914 1.394 . S
C2913 C2919 1.465 . S
C2914 C2909 1.399 . S
C2914 C2913 1.394 . S
C2914 C2915 1.516 . S
C2915 C2914 1.516 . S
C2915 C2916 1.502 . S
C2915 C2917 1.561 . S
C2915 C2918 1.526 . S
C2916 H2900 0.959 . S
C2916 H2901 0.959 . S
C2916 H2902 0.961 . S
C2916 C2915 1.502 . S
C2917 H2903 0.960 . S
C2917 H2904 0.961 . S
C2917 H2905 0.959 . S
C2917 C2915 1.561 . S
C2918 C2915 1.526 . S
C2918 C2919 1.396 . S
C2918 C2923 1.390 . S
C2919 C2913 1.465 . S
C2919 C2918 1.396 . S
C2919 C2920 1.399 . S
C2920 H2906 0.929 . S
C2920 C2919 1.399 . S
C2920 C2921 1.385 . S
C2921 H2907 0.931 . S
C2921 C2920 1.385 . S
C2921 C2922 1.389 . S
C2922 C2921 1.389 . S
C2922 C2923 1.387 . S
C2923 H2908 0.930 . S
C2923 C2918 1.390 . S
C2923 C2922 1.387 . S
H2924 C2936 0.930 . S
H2925 C2938 0.930 . S
H2926 C2939 0.930 . S
H2927 C2943 0.959 . S
H2928 C2943 0.959 . S
H2929 C2943 0.961 . S
H2930 C2944 0.960 . S
H2931 C2944 0.961 . S
H2932 C2944 0.959 . S
H2933 C2947 0.929 . S
H2934 C2948 0.931 . S
H2935 C2950 0.930 . S
C2936 H2924 0.930 . S
C2936 C2937 1.399 . S
C2936 C2941 1.399 . S
C2937 C2936 1.399 . S
C2937 C2938 1.376 . S
C2938 H2925 0.930 . S
C2938 C2937 1.376 . S
C2938 C2939 1.388 . S
C2939 H2926 0.930 . S
C2939 C2938 1.388 . S
C2939 C2940 1.390 . S
C2940 C2939 1.390 . S
C2940 C2941 1.394 . S
C2940 C2946 1.465 . S
C2941 C2936 1.399 . S
C2941 C2940 1.394 . S
C2941 C2942 1.516 . S
C2942 C2941 1.516 . S
C2942 C2943 1.502 . S
C2942 C2944 1.561 . S
C2942 C2945 1.526 . S
C2943 H2927 0.959 . S
C2943 H2928 0.959 . S
C2943 H2929 0.961 . S
C2943 C2942 1.502 . S
C2944 H2930 0.960 . S
C2944 H2931 0.961 . S
C2944 H2932 0.959 . S
C2944 C2942 1.561 . S
C2945 C2942 1.526 . S
C2945 C2946 1.396 . S
C2945 C2950 1.390 . S
C2946 C2940 1.465 . S
C2946 C2945 1.396 . S
C2946 C2947 1.399 . S
C2947 H2933 0.929 . S
C2947 C2946 1.399 . S
C2947 C2948 1.385 . S
C2948 H2934 0.931 . S
C2948 C2947 1.385 . S
C2948 C2949 1.389 . S
C2949 C2948 1.389 . S
C2949 C2950 1.387 . S
C2950 H2935 0.930 . S
C2950 C2945 1.390 . S
C2950 C2949 1.387 . S
H2951 C2963 0.930 . S
H2952 C2965 0.930 . S
H2953 C2966 0.930 . S
H2954 C2970 0.959 . S
H2955 C2970 0.959 . S
H2956 C2970 0.961 . S
H2957 C2971 0.960 . S
H2958 C2971 0.961 . S
H2959 C2971 0.959 . S
H2960 C2974 0.929 . S
H2961 C2975 0.931 . S
H2962 C2977 0.930 . S
C2963 H2951 0.930 . S
C2963 C2964 1.399 . S
C2963 C2968 1.399 . S
C2964 C2963 1.399 . S
C2964 C2965 1.376 . S
C2965 H2952 0.930 . S
C2965 C2964 1.376 . S
C2965 C2966 1.388 . S
C2966 H2953 0.930 . S
C2966 C2965 1.388 . S
C2966 C2967 1.390 . S
C2967 C2966 1.390 . S
C2967 C2968 1.394 . S
C2967 C2973 1.465 . S
C2968 C2963 1.399 . S
C2968 C2967 1.394 . S
C2968 C2969 1.516 . S
C2969 C2968 1.516 . S
C2969 C2970 1.502 . S
C2969 C2971 1.561 . S
C2969 C2972 1.526 . S
C2970 H2954 0.959 . S
C2970 H2955 0.959 . S
C2970 H2956 0.961 . S
C2970 C2969 1.502 . S
C2971 H2957 0.960 . S
C2971 H2958 0.961 . S
C2971 H2959 0.959 . S
C2971 C2969 1.561 . S
C2972 C2969 1.526 . S
C2972 C2973 1.396 . S
C2972 C2977 1.390 . S
C2973 C2967 1.465 . S
C2973 C2972 1.396 . S
C2973 C2974 1.399 . S
C2974 H2960 0.929 . S
C2974 C2973 1.399 . S
C2974 C2975 1.385 . S
C2975 H2961 0.931 . S
C2975 C2974 1.385 . S
C2975 C2976 1.389 . S
C2976 C2975 1.389 . S
C2976 C2977 1.387 . S
C2977 H2962 0.930 . S
C2977 C2972 1.390 . S
C2977 C2976 1.387 . S
H2978 C2990 0.930 . S
H2979 C2992 0.930 . S
H2980 C2993 0.930 . S
H2981 C2997 0.959 . S
H2982 C2997 0.959 . S
H2983 C2997 0.961 . S
H2984 C2998 0.960 . S
H2985 C2998 0.961 . S
H2986 C2998 0.959 . S
H2987 C3001 0.929 . S
H2988 C3002 0.931 1_455 S
H2989 C3004 0.930 . S
C2990 H2978 0.930 . S
C2990 C2991 1.399 . S
C2990 C2995 1.399 . S
C2991 C2990 1.399 . S
C2991 C2992 1.376 . S
C2992 H2979 0.930 . S
C2992 C2991 1.376 . S
C2992 C2993 1.388 . S
C2993 H2980 0.930 . S
C2993 C2992 1.388 . S
C2993 C2994 1.390 . S
C2994 C2993 1.390 . S
C2994 C2995 1.394 . S
C2994 C3000 1.465 . S
C2995 C2990 1.399 . S
C2995 C2994 1.394 . S
C2995 C2996 1.516 . S
C2996 C2995 1.516 . S
C2996 C2997 1.502 . S
C2996 C2998 1.561 . S
C2996 C2999 1.526 . S
C2997 H2981 0.959 . S
C2997 H2982 0.959 . S
C2997 H2983 0.961 . S
C2997 C2996 1.502 . S
C2998 H2984 0.960 . S
C2998 H2985 0.961 . S
C2998 H2986 0.959 . S
C2998 C2996 1.561 . S
C2999 C2996 1.526 . S
C2999 C3000 1.396 . S
C2999 C3004 1.390 . S
C3000 C2994 1.465 . S
C3000 C2999 1.396 . S
C3000 C3001 1.399 . S
C3001 H2987 0.929 . S
C3001 C3000 1.399 . S
C3001 C3002 1.385 . S
C3002 H2988 0.931 1_655 S
C3002 C3001 1.385 . S
C3002 C3003 1.389 . S
C3003 C3002 1.389 . S
C3003 C3004 1.387 . S
C3004 H2989 0.930 . S
C3004 C2999 1.390 . S
C3004 C3003 1.387 . S
H3005 C3017 0.930 . S
H3006 C3019 0.930 . S
H3007 C3020 0.930 . S
H3008 C3024 0.959 . S
H3009 C3024 0.959 . S
H3010 C3024 0.961 . S
H3011 C3025 0.960 . S
H3012 C3025 0.961 . S
H3013 C3025 0.959 . S
H3014 C3028 0.929 . S
H3015 C3029 0.931 . S
H3016 C3031 0.930 . S
C3017 H3005 0.930 . S
C3017 C3018 1.399 . S
C3017 C3022 1.399 . S
C3018 C3017 1.399 . S
C3018 C3019 1.376 . S
C3019 H3006 0.930 . S
C3019 C3018 1.376 . S
C3019 C3020 1.388 . S
C3020 H3007 0.930 . S
C3020 C3019 1.388 . S
C3020 C3021 1.390 . S
C3021 C3020 1.390 . S
C3021 C3022 1.394 . S
C3021 C3027 1.465 . S
C3022 C3017 1.399 . S
C3022 C3021 1.394 . S
C3022 C3023 1.516 . S
C3023 C3022 1.516 . S
C3023 C3024 1.502 . S
C3023 C3025 1.561 . S
C3023 C3026 1.526 . S
C3024 H3008 0.959 . S
C3024 H3009 0.959 . S
C3024 H3010 0.961 . S
C3024 C3023 1.502 . S
C3025 H3011 0.960 . S
C3025 H3012 0.961 . S
C3025 H3013 0.959 . S
C3025 C3023 1.561 . S
C3026 C3023 1.526 . S
C3026 C3027 1.396 . S
C3026 C3031 1.390 . S
C3027 C3021 1.465 . S
C3027 C3026 1.396 . S
C3027 C3028 1.399 . S
C3028 H3014 0.929 . S
C3028 C3027 1.399 . S
C3028 C3029 1.385 . S
C3029 H3015 0.931 . S
C3029 C3028 1.385 . S
C3029 C3030 1.389 . S
C3030 C3029 1.389 . S
C3030 C3031 1.387 . S
C3031 H3016 0.930 . S
C3031 C3026 1.390 . S
C3031 C3030 1.387 . S
H3032 C3044 0.930 . S
H3033 C3046 0.930 . S
H3034 C3047 0.930 . S
H3035 C3051 0.959 . S
H3036 C3051 0.959 . S
H3037 C3051 0.961 . S
H3038 C3052 0.960 . S
H3039 C3052 0.961 . S
H3040 C3052 0.959 . S
H3041 C3055 0.929 . S
H3042 C3056 0.931 . S
H3043 C3058 0.930 . S
C3044 H3032 0.930 . S
C3044 C3045 1.399 . S
C3044 C3049 1.399 . S
C3045 C3044 1.399 . S
C3045 C3046 1.376 . S
C3046 H3033 0.930 . S
C3046 C3045 1.376 . S
C3046 C3047 1.388 . S
C3047 H3034 0.930 . S
C3047 C3046 1.388 . S
C3047 C3048 1.390 . S
C3048 C3047 1.390 . S
C3048 C3049 1.394 . S
C3048 C3054 1.465 . S
C3049 C3044 1.399 . S
C3049 C3048 1.394 . S
C3049 C3050 1.516 . S
C3050 C3049 1.516 . S
C3050 C3051 1.502 . S
C3050 C3052 1.561 . S
C3050 C3053 1.526 . S
C3051 H3035 0.959 . S
C3051 H3036 0.959 . S
C3051 H3037 0.961 . S
C3051 C3050 1.502 . S
C3052 H3038 0.960 . S
C3052 H3039 0.961 . S
C3052 H3040 0.959 . S
C3052 C3050 1.561 . S
C3053 C3050 1.526 . S
C3053 C3054 1.396 . S
C3053 C3058 1.390 . S
C3054 C3048 1.465 . S
C3054 C3053 1.396 . S
C3054 C3055 1.399 . S
C3055 H3041 0.929 . S
C3055 C3054 1.399 . S
C3055 C3056 1.385 . S
C3056 H3042 0.931 . S
C3056 C3055 1.385 . S
C3056 C3057 1.389 . S
C3057 C3056 1.389 . S
C3057 C3058 1.387 . S
C3058 H3043 0.930 . S
C3058 C3053 1.390 . S
C3058 C3057 1.387 . S
H3059 C3071 0.930 . S
H3060 C3073 0.930 . S
H3061 C3074 0.930 . S
H3062 C3078 0.959 . S
H3063 C3078 0.959 . S
H3064 C3078 0.961 . S
H3065 C3079 0.960 . S
H3066 C3079 0.961 . S
H3067 C3079 0.959 . S
H3068 C3082 0.929 . S
H3069 C3083 0.931 . S
H3070 C3085 0.930 . S
C3071 H3059 0.930 . S
C3071 C3072 1.399 . S
C3071 C3076 1.399 . S
C3072 C3071 1.399 . S
C3072 C3073 1.376 . S
C3073 H3060 0.930 . S
C3073 C3072 1.376 . S
C3073 C3074 1.388 . S
C3074 H3061 0.930 . S
C3074 C3073 1.388 . S
C3074 C3075 1.390 . S
C3075 C3074 1.390 . S
C3075 C3076 1.394 . S
C3075 C3081 1.465 . S
C3076 C3071 1.399 . S
C3076 C3075 1.394 . S
C3076 C3077 1.516 . S
C3077 C3076 1.516 . S
C3077 C3078 1.502 . S
C3077 C3079 1.561 . S
C3077 C3080 1.526 . S
C3078 H3062 0.959 . S
C3078 H3063 0.959 . S
C3078 H3064 0.961 . S
C3078 C3077 1.502 . S
C3079 H3065 0.960 . S
C3079 H3066 0.961 . S
C3079 H3067 0.959 . S
C3079 C3077 1.561 . S
C3080 C3077 1.526 . S
C3080 C3081 1.396 . S
C3080 C3085 1.390 . S
C3081 C3075 1.465 . S
C3081 C3080 1.396 . S
C3081 C3082 1.399 . S
C3082 H3068 0.929 . S
C3082 C3081 1.399 . S
C3082 C3083 1.385 . S
C3083 H3069 0.931 . S
C3083 C3082 1.385 . S
C3083 C3084 1.389 . S
C3084 C3083 1.389 . S
C3084 C3085 1.387 . S
C3085 H3070 0.930 . S
C3085 C3080 1.390 . S
C3085 C3084 1.387 . S
H3086 C3098 0.930 . S
H3087 C3100 0.930 . S
H3088 C3101 0.930 . S
H3089 C3105 0.959 . S
H3090 C3105 0.959 . S
H3091 C3105 0.961 . S
H3092 C3106 0.960 . S
H3093 C3106 0.961 . S
H3094 C3106 0.959 . S
H3095 C3109 0.929 . S
H3096 C3110 0.931 . S
H3097 C3112 0.930 . S
C3098 H3086 0.930 . S
C3098 C3099 1.399 . S
C3098 C3103 1.399 . S
C3099 C3098 1.399 . S
C3099 C3100 1.376 . S
C3100 H3087 0.930 . S
C3100 C3099 1.376 . S
C3100 C3101 1.388 . S
C3101 H3088 0.930 . S
C3101 C3100 1.388 . S
C3101 C3102 1.390 . S
C3102 C3101 1.390 . S
C3102 C3103 1.394 . S
C3102 C3108 1.465 . S
C3103 C3098 1.399 . S
C3103 C3102 1.394 . S
C3103 C3104 1.516 . S
C3104 C3103 1.516 . S
C3104 C3105 1.502 . S
C3104 C3106 1.561 . S
C3104 C3107 1.526 . S
C3105 H3089 0.959 . S
C3105 H3090 0.959 . S
C3105 H3091 0.961 . S
C3105 C3104 1.502 . S
C3106 H3092 0.960 . S
C3106 H3093 0.961 . S
C3106 H3094 0.959 . S
C3106 C3104 1.561 . S
C3107 C3104 1.526 . S
C3107 C3108 1.396 . S
C3107 C3112 1.390 . S
C3108 C3102 1.465 . S
C3108 C3107 1.396 . S
C3108 C3109 1.399 . S
C3109 H3095 0.929 . S
C3109 C3108 1.399 . S
C3109 C3110 1.385 . S
C3110 H3096 0.931 . S
C3110 C3109 1.385 . S
C3110 C3111 1.389 . S
C3111 C3110 1.389 . S
C3111 C3112 1.387 . S
C3112 H3097 0.930 . S
C3112 C3107 1.390 . S
C3112 C3111 1.387 . S
H3113 C3125 0.930 1_556 S
H3114 C3127 0.930 . S
H3115 C3128 0.930 . S
H3116 C3132 0.959 1_554 S
H3117 C3132 0.959 . S
H3118 C3132 0.961 . S
H3119 C3133 0.960 . S
H3120 C3133 0.961 . S
H3121 C3133 0.959 . S
H3122 C3136 0.929 . S
H3123 C3137 0.931 . S
H3124 C3139 0.930 1_556 S
C3125 H3113 0.930 1_554 S
C3125 C3126 1.399 . S
C3125 C3130 1.399 . S
C3126 C3125 1.399 . S
C3126 C3127 1.376 . S
C3127 H3114 0.930 . S
C3127 C3126 1.376 . S
C3127 C3128 1.388 . S
C3128 H3115 0.930 . S
C3128 C3127 1.388 . S
C3128 C3129 1.390 . S
C3129 C3128 1.390 . S
C3129 C3130 1.394 . S
C3129 C3135 1.465 . S
C3130 C3125 1.399 . S
C3130 C3129 1.394 . S
C3130 C3131 1.516 1_554 S
C3131 C3130 1.516 1_556 S
C3131 C3132 1.502 . S
C3131 C3133 1.561 . S
C3131 C3134 1.526 1_556 S
C3132 H3116 0.959 1_556 S
C3132 H3117 0.959 . S
C3132 H3118 0.961 . S
C3132 C3131 1.502 . S
C3133 H3119 0.960 . S
C3133 H3120 0.961 . S
C3133 H3121 0.959 . S
C3133 C3131 1.561 . S
C3134 C3131 1.526 1_554 S
C3134 C3135 1.396 . S
C3134 C3139 1.390 . S
C3135 C3129 1.465 . S
C3135 C3134 1.396 . S
C3135 C3136 1.399 . S
C3136 H3122 0.929 . S
C3136 C3135 1.399 . S
C3136 C3137 1.385 . S
C3137 H3123 0.931 . S
C3137 C3136 1.385 . S
C3137 C3138 1.389 . S
C3138 C3137 1.389 . S
C3138 C3139 1.387 . S
C3139 H3124 0.930 1_554 S
C3139 C3134 1.390 . S
C3139 C3138 1.387 . S
H3140 C3152 0.930 . S
H3141 C3154 0.930 . S
H3142 C3155 0.930 . S
H3143 C3159 0.959 . S
H3144 C3159 0.959 . S
H3145 C3159 0.961 . S
H3146 C3160 0.960 . S
H3147 C3160 0.961 . S
H3148 C3160 0.959 . S
H3149 C3163 0.929 . S
H3150 C3164 0.931 . S
H3151 C3166 0.930 . S
C3152 H3140 0.930 . S
C3152 C3153 1.399 . S
C3152 C3157 1.399 . S
C3153 C3152 1.399 . S
C3153 C3154 1.376 . S
C3154 H3141 0.930 . S
C3154 C3153 1.376 . S
C3154 C3155 1.388 . S
C3155 H3142 0.930 . S
C3155 C3154 1.388 . S
C3155 C3156 1.390 . S
C3156 C3155 1.390 . S
C3156 C3157 1.394 . S
C3156 C3162 1.465 . S
C3157 C3152 1.399 . S
C3157 C3156 1.394 . S
C3157 C3158 1.516 . S
C3158 C3157 1.516 . S
C3158 C3159 1.502 . S
C3158 C3160 1.561 . S
C3158 C3161 1.526 . S
C3159 H3143 0.959 . S
C3159 H3144 0.959 . S
C3159 H3145 0.961 . S
C3159 C3158 1.502 . S
C3160 H3146 0.960 . S
C3160 H3147 0.961 . S
C3160 H3148 0.959 . S
C3160 C3158 1.561 . S
C3161 C3158 1.526 . S
C3161 C3162 1.396 . S
C3161 C3166 1.390 . S
C3162 C3156 1.465 . S
C3162 C3161 1.396 . S
C3162 C3163 1.399 . S
C3163 H3149 0.929 . S
C3163 C3162 1.399 . S
C3163 C3164 1.385 . S
C3164 H3150 0.931 . S
C3164 C3163 1.385 . S
C3164 C3165 1.389 . S
C3165 C3164 1.389 . S
C3165 C3166 1.387 . S
C3166 H3151 0.930 . S
C3166 C3161 1.390 . S
C3166 C3165 1.387 . S
H3167 C3179 0.930 . S
H3168 C3181 0.930 . S
H3169 C3182 0.930 . S
H3170 C3186 0.947 1_554 S
H3171 C3186 0.959 . S
H3172 C3186 0.961 . S
H3173 C3187 0.960 . S
H3174 C3187 0.961 . S
H3175 C3187 0.959 . S
H3176 C3190 0.929 . S
H3177 C3191 0.931 . S
H3178 C3193 0.930 1_556 S
C3179 H3167 0.930 . S
C3179 C3180 1.399 . S
C3179 C3184 1.399 . S
C3180 C3179 1.399 . S
C3180 C3181 1.376 . S
C3181 H3168 0.930 . S
C3181 C3180 1.376 . S
C3181 C3182 1.388 . S
C3182 H3169 0.930 . S
C3182 C3181 1.388 . S
C3182 C3183 1.390 . S
C3183 C3182 1.390 . S
C3183 C3184 1.394 . S
C3183 C3189 1.465 . S
C3184 C3179 1.399 . S
C3184 C3183 1.394 . S
C3184 C3185 1.509 1_554 S
C3185 C3184 1.509 1_556 S
C3185 C3186 1.507 . S
C3185 C3187 1.567 . S
C3185 C3188 1.521 1_556 S
C3186 H3170 0.947 1_556 S
C3186 H3171 0.959 . S
C3186 H3172 0.961 . S
C3186 C3185 1.507 . S
C3187 H3173 0.960 . S
C3187 H3174 0.961 . S
C3187 H3175 0.959 . S
C3187 C3185 1.567 . S
C3188 C3185 1.521 1_554 S
C3188 C3189 1.396 . S
C3188 C3193 1.390 . S
C3189 C3183 1.465 . S
C3189 C3188 1.396 . S
C3189 C3190 1.399 . S
C3190 H3176 0.929 . S
C3190 C3189 1.399 . S
C3190 C3191 1.385 . S
C3191 H3177 0.931 . S
C3191 C3190 1.385 . S
C3191 C3192 1.389 . S
C3192 C3191 1.389 . S
C3192 C3193 1.387 . S
C3193 H3178 0.930 1_554 S
C3193 C3188 1.390 . S
C3193 C3192 1.387 . S
H3194 C3206 0.930 . S
H3195 C3208 0.930 . S
H3196 C3209 0.930 . S
H3197 C3213 0.959 . S
H3198 C3213 0.959 . S
H3199 C3213 0.961 . S
H3200 C3214 0.960 . S
H3201 C3214 0.961 . S
H3202 C3214 0.959 . S
H3203 C3217 0.929 . S
H3204 C3218 0.931 . S
H3205 C3220 0.930 . S
C3206 H3194 0.930 . S
C3206 C3207 1.399 . S
C3206 C3211 1.399 . S
C3207 C3206 1.399 . S
C3207 C3208 1.376 . S
C3208 H3195 0.930 . S
C3208 C3207 1.376 . S
C3208 C3209 1.388 . S
C3209 H3196 0.930 . S
C3209 C3208 1.388 . S
C3209 C3210 1.390 . S
C3210 C3209 1.390 . S
C3210 C3211 1.394 . S
C3210 C3216 1.465 . S
C3211 C3206 1.399 . S
C3211 C3210 1.394 . S
C3211 C3212 1.516 . S
C3212 C3211 1.516 . S
C3212 C3213 1.502 . S
C3212 C3214 1.561 . S
C3212 C3215 1.526 . S
C3213 H3197 0.959 . S
C3213 H3198 0.959 . S
C3213 H3199 0.961 . S
C3213 C3212 1.502 . S
C3214 H3200 0.960 . S
C3214 H3201 0.961 . S
C3214 H3202 0.959 . S
C3214 C3212 1.561 . S
C3215 C3212 1.526 . S
C3215 C3216 1.396 . S
C3215 C3220 1.390 . S
C3216 C3210 1.465 . S
C3216 C3215 1.396 . S
C3216 C3217 1.399 . S
C3217 H3203 0.929 . S
C3217 C3216 1.399 . S
C3217 C3218 1.385 . S
C3218 H3204 0.931 . S
C3218 C3217 1.385 . S
C3218 C3219 1.389 . S
C3219 C3218 1.389 . S
C3219 C3220 1.387 . S
C3220 H3205 0.930 . S
C3220 C3215 1.390 . S
C3220 C3219 1.387 . S
H3221 C3233 0.930 . S
H3222 C3235 0.930 . S
H3223 C3236 0.930 . S
H3224 C3240 0.959 . S
H3225 C3240 0.959 . S
H3226 C3240 0.961 . S
H3227 C3241 0.960 . S
H3228 C3241 0.961 . S
H3229 C3241 0.959 . S
H3230 C3244 0.929 . S
H3231 C3245 0.931 . S
H3232 C3247 0.930 . S
C3233 H3221 0.930 . S
C3233 C3234 1.399 . S
C3233 C3238 1.399 . S
C3234 C3233 1.399 . S
C3234 C3235 1.376 . S
C3235 H3222 0.930 . S
C3235 C3234 1.376 . S
C3235 C3236 1.388 . S
C3236 H3223 0.930 . S
C3236 C3235 1.388 . S
C3236 C3237 1.390 . S
C3237 C3236 1.390 . S
C3237 C3238 1.394 . S
C3237 C3243 1.465 . S
C3238 C3233 1.399 . S
C3238 C3237 1.394 . S
C3238 C3239 1.516 . S
C3239 C3238 1.516 . S
C3239 C3240 1.502 . S
C3239 C3241 1.561 . S
C3239 C3242 1.526 . S
C3240 H3224 0.959 . S
C3240 H3225 0.959 . S
C3240 H3226 0.961 . S
C3240 C3239 1.502 . S
C3241 H3227 0.960 . S
C3241 H3228 0.961 . S
C3241 H3229 0.959 . S
C3241 C3239 1.561 . S
C3242 C3239 1.526 . S
C3242 C3243 1.396 . S
C3242 C3247 1.390 . S
C3243 C3237 1.465 . S
C3243 C3242 1.396 . S
C3243 C3244 1.399 . S
C3244 H3230 0.929 . S
C3244 C3243 1.399 . S
C3244 C3245 1.385 . S
C3245 H3231 0.931 . S
C3245 C3244 1.385 . S
C3245 C3246 1.389 . S
C3246 C3245 1.389 . S
C3246 C3247 1.387 . S
C3247 H3232 0.930 . S
C3247 C3242 1.390 . S
C3247 C3246 1.387 . S
C669 C105 1.405 . S
C681 C340 1.240 . S
C696 C65 1.519 . S
C708 C375 1.453 . S
C723 C73 1.121 . S
C735 C380 0.956 . S
C762 C405 1.330 . S
C750 C92 1.455 . S
C777 C17 1.513 . S
C789 C425 1.472 . S
C816 C440 0.972 . S
C804 C37 1.125 . S
C843 C475 1.481 . S
C831 C49 1.494 . S
C858 C8 1.428 . S
C870 C480 1.189 . S
C897 C355 1.511 1_655 S
C885 C231 1.529 . S
C912 C241 1.019 . S
C924 C365 1.047 . S
C951 C395 1.405 . S
C939 C273 1.372 . S
C978 C400 1.188 . S
C966 C171 1.183 1_556 S
C993 C227 1.198 . S
C1005 C420 1.142 . S
C1032 C455 1.452 . S
C1020 C245 1.416 . S
C1059 C465 0.957 . S
C1047 C269 1.054 1_565 S
C1086 C495 1.558 . S
C1074 C175 1.552 . S
C1113 C345 1.300 . S
C1101 C162 1.442 . S
C1128 C289 1.759 . S
C1140 C515 1.745 . S
C1167 C525 1.422 . S
C1155 C330 1.529 . S
C1194 C540 1.005 . S
C1182 C317 1.061 . S
C1209 C120 1.419 . S
C1221 C485 1.297 . S
C1236 C134 1.546 . S
C1248 C385 1.465 . S
C1263 C331 1.716 . S
C1275 C575 1.696 . S
C1302 C580 0.915 . S
C1290 C303 1.061 . S
C1329 C338 1.335 . S
C1317 C59 1.460 . S
C1356 C594 1.552 . S
C1344 C107 1.568 . S
C1371 C91 1.123 . S
C1383 C378 1.075 . S
C1398 C78 1.497 . S
C1410 C568 1.365 . S
C1437 C428 1.496 . S
C1425 C7 1.514 . S
C1452 C51 1.140 . S
C1464 C518 1.117 . S
C1491 C474 1.545 . S
C1479 C31 1.572 . S
C1518 C598 1.308 . S
C1506 C22 1.376 . S
C1545 C354 1.592 . S
C1533 C143 1.619 . S
C1572 C588 1.007 . S
C1560 C315 1.077 . S
C1587 C115 1.497 . S
C1599 C394 1.484 . S
C1614 C287 1.229 . S
C1626 C558 1.142 . S
C1641 C147 1.248 . S
C1653 C418 1.071 . S
C1680 C534 1.464 . S
C1668 C311 1.496 . S
C1695 C119 1.037 . S
C1707 C468 0.976 1_565 S
C1722 C283 1.613 . S
C1734 C614 1.573 . S
C1749 C190 1.473 . S
C1761 C348 1.285 . S
C1776 C177 1.806 . S
C1788 C514 1.793 . S
C1803 C260 1.568 . S
C1815 C448 1.397 . S
C1830 C247 1.105 . S
C1842 C538 0.957 . S
C1869 C608 1.225 . S
C1857 C274 1.443 . S
C1884 C218 1.593 . S
C1896 C388 1.440 . S
C1923 C414 1.752 . S
C1911 C261 1.766 . S
C1950 C358 1.074 . S
C1938 C205 1.079 . S
C1965 C77 1.415 . S
C1977 C620 1.216 . S
C2004 C595 1.501 . S
C1992 C93 1.517 . S
C2019 C101 1.122 . S
C2031 C640 0.952 1_556 S
C2046 C64 1.463 . S
C2058 C565 1.366 . S
C2073 C45 1.512 . S
C2085 C505 1.471 . S
C2112 C520 1.092 . S
C2100 C9 1.091 . S
C2139 C555 1.532 . S
C2127 C21 1.504 1_655 S
C2166 C600 1.204 . S
C2154 C36 1.392 . S
C2193 C635 1.501 . S
C2181 C259 1.530 . S
C2208 C185 1.019 . S
C2220 C585 1.048 . S
C2247 C655 1.387 . S
C2235 C203 1.385 . S
C2274 C560 1.181 . S
C2262 C213 1.217 . S
C2301 C500 1.151 . S
C2289 C255 1.198 . S
C2316 C189 1.380 . S
C2328 C535 1.421 . S
C2355 C545 0.940 . S
C2343 C199 1.056 . S
C2370 C217 1.527 . S
C2382 C615 1.526 . S
C2409 C625 1.320 . S
C2397 C316 1.436 . S
C2424 C135 1.756 . S
C2436 C435 1.707 . S
C2463 C445 1.420 . S
C2451 C148 1.529 . S
C2490 C460 1.040 . S
C2478 C163 1.082 . S
C2517 C605 1.307 . S
C2505 C302 1.388 . S
C2532 C288 1.555 . S
C2544 C645 1.443 . S
C2571 C415 1.673 . S
C2559 C149 1.724 . S
C2598 C360 0.919 . S
C2586 C121 1.061 . S
C2613 C87 1.475 . S
C2625 C618 1.253 . S
C2652 C374 1.552 . S
C2640 C79 1.568 . S
C2667 C63 1.152 . S
C2679 C638 0.996 . S
C2694 C106 1.496 . S
C2706 C408 1.359 . S
C2721 C35 1.504 . S
C2733 C508 1.444 . S
C2760 C438 0.960 . S
C2748 C23 1.127 . S
C2775 C3 1.568 . S
C2787 C554 1.514 . S
C2802 C50 1.380 . S
C2814 C478 1.292 . S
C2841 C634 1.553 . S
C2829 C325 1.627 . S
C2856 C161 1.067 . S
C2868 C368 0.943 . S
C2895 C654 1.417 1_655 S
C2883 C297 1.483 . S
C2910 C133 1.216 . S
C2922 C398 1.132 . S
C2937 C329 1.162 . S
C2949 C498 1.211 . S
C2976 C454 1.462 . S
C2964 C157 1.491 . S
C2991 C301 1.082 . S
C3003 C548 1.013 . S
C3030 C494 1.541 . S
C3018 C129 1.620 . S
C3057 C628 1.263 . S
C3045 C246 1.472 . S
C3084 C434 1.791 . S
C3072 C219 1.804 . S
C3099 C232 1.531 . S
C3111 C528 1.447 . S
C3138 C458 1.099 . S
C3126 C191 1.115 . S
C3153 C204 1.439 . S
C3165 C488 1.232 . S
C3180 C176 1.593 . S
C3192 C648 1.433 . S
C3219 C574 1.752 . S
C3207 C233 1.766 . S
C3246 C578 0.912 . S
C3234 C275 1.066 . S
