# Generated by pormake.
# Topology cor, (4,6)-cn, num edge types: 1
# Building blocks:
#     Node 0, Type 0, BuildingBlock: KUFVIS_clean_sbu_0, # of connection points: 4
#     Node 1, Type 0, BuildingBlock: KUFVIS_clean_sbu_0, # of connection points: 4
#     Node 2, Type 0, BuildingBlock: KUFVIS_clean_sbu_0, # of connection points: 4
#     Node 3, Type 0, BuildingBlock: KUFVIS_clean_sbu_0, # of connection points: 4
#     Node 4, Type 0, BuildingBlock: KUFVIS_clean_sbu_0, # of connection points: 4
#     Node 5, Type 0, BuildingBlock: KUFVIS_clean_sbu_0, # of connection points: 4
#     Node 6, Type 0, BuildingBlock: KUFVIS_clean_sbu_0, # of connection points: 4
#     Node 7, Type 0, BuildingBlock: KUFVIS_clean_sbu_0, # of connection points: 4
#     Node 8, Type 0, BuildingBlock: KUFVIS_clean_sbu_0, # of connection points: 4
#     Node 9, Type 0, BuildingBlock: KUFVIS_clean_sbu_0, # of connection points: 4
#     Node 10, Type 0, BuildingBlock: KUFVIS_clean_sbu_0, # of connection points: 4
#     Node 11, Type 0, BuildingBlock: KUFVIS_clean_sbu_0, # of connection points: 4
#     Node 12, Type 0, BuildingBlock: KUFVIS_clean_sbu_0, # of connection points: 4
#     Node 13, Type 0, BuildingBlock: KUFVIS_clean_sbu_0, # of connection points: 4
#     Node 14, Type 0, BuildingBlock: KUFVIS_clean_sbu_0, # of connection points: 4
#     Node 15, Type 0, BuildingBlock: KUFVIS_clean_sbu_0, # of connection points: 4
#     Node 16, Type 0, BuildingBlock: KUFVIS_clean_sbu_0, # of connection points: 4
#     Node 17, Type 0, BuildingBlock: KUFVIS_clean_sbu_0, # of connection points: 4
#     Node 18, Type 1, BuildingBlock: MIDCAF_clean_sbu_0, # of connection points: 6
#     Node 19, Type 1, BuildingBlock: MIDCAF_clean_sbu_0, # of connection points: 6
#     Node 20, Type 1, BuildingBlock: MIDCAF_clean_sbu_0, # of connection points: 6
#     Node 21, Type 1, BuildingBlock: MIDCAF_clean_sbu_0, # of connection points: 6
#     Node 22, Type 1, BuildingBlock: MIDCAF_clean_sbu_0, # of connection points: 6
#     Node 23, Type 1, BuildingBlock: MIDCAF_clean_sbu_0, # of connection points: 6
#     Node 24, Type 1, BuildingBlock: MIDCAF_clean_sbu_0, # of connection points: 6
#     Node 25, Type 1, BuildingBlock: MIDCAF_clean_sbu_0, # of connection points: 6
#     Node 26, Type 1, BuildingBlock: MIDCAF_clean_sbu_0, # of connection points: 6
#     Node 27, Type 1, BuildingBlock: MIDCAF_clean_sbu_0, # of connection points: 6
#     Node 28, Type 1, BuildingBlock: MIDCAF_clean_sbu_0, # of connection points: 6
#     Node 29, Type 1, BuildingBlock: MIDCAF_clean_sbu_0, # of connection points: 6
#     Edge 30, Type (0, 1), BuildingBlock: OJICUG_clean_linker_0, # of connection points: 2
#     Edge 31, Type (0, 1), BuildingBlock: OJICUG_clean_linker_0, # of connection points: 2
#     Edge 32, Type (0, 1), BuildingBlock: OJICUG_clean_linker_0, # of connection points: 2
#     Edge 33, Type (0, 1), BuildingBlock: OJICUG_clean_linker_0, # of connection points: 2
#     Edge 34, Type (0, 1), BuildingBlock: OJICUG_clean_linker_0, # of connection points: 2
#     Edge 35, Type (0, 1), BuildingBlock: OJICUG_clean_linker_0, # of connection points: 2
#     Edge 36, Type (0, 1), BuildingBlock: OJICUG_clean_linker_0, # of connection points: 2
#     Edge 37, Type (0, 1), BuildingBlock: OJICUG_clean_linker_0, # of connection points: 2
#     Edge 38, Type (0, 1), BuildingBlock: OJICUG_clean_linker_0, # of connection points: 2
#     Edge 39, Type (0, 1), BuildingBlock: OJICUG_clean_linker_0, # of connection points: 2
#     Edge 40, Type (0, 1), BuildingBlock: OJICUG_clean_linker_0, # of connection points: 2
#     Edge 41, Type (0, 1), BuildingBlock: OJICUG_clean_linker_0, # of connection points: 2
#     Edge 42, Type (0, 1), BuildingBlock: OJICUG_clean_linker_0, # of connection points: 2
#     Edge 43, Type (0, 1), BuildingBlock: OJICUG_clean_linker_0, # of connection points: 2
#     Edge 44, Type (0, 1), BuildingBlock: OJICUG_clean_linker_0, # of connection points: 2
#     Edge 45, Type (0, 1), BuildingBlock: OJICUG_clean_linker_0, # of connection points: 2
#     Edge 46, Type (0, 1), BuildingBlock: OJICUG_clean_linker_0, # of connection points: 2
#     Edge 47, Type (0, 1), BuildingBlock: OJICUG_clean_linker_0, # of connection points: 2
#     Edge 48, Type (0, 1), BuildingBlock: OJICUG_clean_linker_0, # of connection points: 2
#     Edge 49, Type (0, 1), BuildingBlock: OJICUG_clean_linker_0, # of connection points: 2
#     Edge 50, Type (0, 1), BuildingBlock: OJICUG_clean_linker_0, # of connection points: 2
#     Edge 51, Type (0, 1), BuildingBlock: OJICUG_clean_linker_0, # of connection points: 2
#     Edge 52, Type (0, 1), BuildingBlock: OJICUG_clean_linker_0, # of connection points: 2
#     Edge 53, Type (0, 1), BuildingBlock: OJICUG_clean_linker_0, # of connection points: 2
#     Edge 54, Type (0, 1), BuildingBlock: OJICUG_clean_linker_0, # of connection points: 2
#     Edge 55, Type (0, 1), BuildingBlock: OJICUG_clean_linker_0, # of connection points: 2
#     Edge 56, Type (0, 1), BuildingBlock: OJICUG_clean_linker_0, # of connection points: 2
#     Edge 57, Type (0, 1), BuildingBlock: OJICUG_clean_linker_0, # of connection points: 2
#     Edge 58, Type (0, 1), BuildingBlock: OJICUG_clean_linker_0, # of connection points: 2
#     Edge 59, Type (0, 1), BuildingBlock: OJICUG_clean_linker_0, # of connection points: 2
#     Edge 60, Type (0, 1), BuildingBlock: OJICUG_clean_linker_0, # of connection points: 2
#     Edge 61, Type (0, 1), BuildingBlock: OJICUG_clean_linker_0, # of connection points: 2
#     Edge 62, Type (0, 1), BuildingBlock: OJICUG_clean_linker_0, # of connection points: 2
#     Edge 63, Type (0, 1), BuildingBlock: OJICUG_clean_linker_0, # of connection points: 2
#     Edge 64, Type (0, 1), BuildingBlock: OJICUG_clean_linker_0, # of connection points: 2
#     Edge 65, Type (0, 1), BuildingBlock: OJICUG_clean_linker_0, # of connection points: 2
#     Edge 66, Type (0, 1), BuildingBlock: OJICUG_clean_linker_0, # of connection points: 2
#     Edge 67, Type (0, 1), BuildingBlock: OJICUG_clean_linker_0, # of connection points: 2
#     Edge 68, Type (0, 1), BuildingBlock: OJICUG_clean_linker_0, # of connection points: 2
#     Edge 69, Type (0, 1), BuildingBlock: OJICUG_clean_linker_0, # of connection points: 2
#     Edge 70, Type (0, 1), BuildingBlock: OJICUG_clean_linker_0, # of connection points: 2
#     Edge 71, Type (0, 1), BuildingBlock: OJICUG_clean_linker_0, # of connection points: 2
#     Edge 72, Type (0, 1), BuildingBlock: OJICUG_clean_linker_0, # of connection points: 2
#     Edge 73, Type (0, 1), BuildingBlock: OJICUG_clean_linker_0, # of connection points: 2
#     Edge 74, Type (0, 1), BuildingBlock: OJICUG_clean_linker_0, # of connection points: 2
#     Edge 75, Type (0, 1), BuildingBlock: OJICUG_clean_linker_0, # of connection points: 2
#     Edge 76, Type (0, 1), BuildingBlock: OJICUG_clean_linker_0, # of connection points: 2
#     Edge 77, Type (0, 1), BuildingBlock: OJICUG_clean_linker_0, # of connection points: 2
#     Edge 78, Type (0, 1), BuildingBlock: OJICUG_clean_linker_0, # of connection points: 2
#     Edge 79, Type (0, 1), BuildingBlock: OJICUG_clean_linker_0, # of connection points: 2
#     Edge 80, Type (0, 1), BuildingBlock: OJICUG_clean_linker_0, # of connection points: 2
#     Edge 81, Type (0, 1), BuildingBlock: OJICUG_clean_linker_0, # of connection points: 2
#     Edge 82, Type (0, 1), BuildingBlock: OJICUG_clean_linker_0, # of connection points: 2
#     Edge 83, Type (0, 1), BuildingBlock: OJICUG_clean_linker_0, # of connection points: 2
#     Edge 84, Type (0, 1), BuildingBlock: OJICUG_clean_linker_0, # of connection points: 2
#     Edge 85, Type (0, 1), BuildingBlock: OJICUG_clean_linker_0, # of connection points: 2
#     Edge 86, Type (0, 1), BuildingBlock: OJICUG_clean_linker_0, # of connection points: 2
#     Edge 87, Type (0, 1), BuildingBlock: OJICUG_clean_linker_0, # of connection points: 2
#     Edge 88, Type (0, 1), BuildingBlock: OJICUG_clean_linker_0, # of connection points: 2
#     Edge 89, Type (0, 1), BuildingBlock: OJICUG_clean_linker_0, # of connection points: 2
#     Edge 90, Type (0, 1), BuildingBlock: OJICUG_clean_linker_0, # of connection points: 2
#     Edge 91, Type (0, 1), BuildingBlock: OJICUG_clean_linker_0, # of connection points: 2
#     Edge 92, Type (0, 1), BuildingBlock: OJICUG_clean_linker_0, # of connection points: 2
#     Edge 93, Type (0, 1), BuildingBlock: OJICUG_clean_linker_0, # of connection points: 2
#     Edge 94, Type (0, 1), BuildingBlock: OJICUG_clean_linker_0, # of connection points: 2
#     Edge 95, Type (0, 1), BuildingBlock: OJICUG_clean_linker_0, # of connection points: 2
#     Edge 96, Type (0, 1), BuildingBlock: OJICUG_clean_linker_0, # of connection points: 2
#     Edge 97, Type (0, 1), BuildingBlock: OJICUG_clean_linker_0, # of connection points: 2
#     Edge 98, Type (0, 1), BuildingBlock: OJICUG_clean_linker_0, # of connection points: 2
#     Edge 99, Type (0, 1), BuildingBlock: OJICUG_clean_linker_0, # of connection points: 2
#     Edge 100, Type (0, 1), BuildingBlock: OJICUG_clean_linker_0, # of connection points: 2
#     Edge 101, Type (0, 1), BuildingBlock: OJICUG_clean_linker_0, # of connection points: 2
# Relax obj value: 0.121
# Max RMSD: 0.161
# Mean RMSD: 0.124
data_MOF--net-cor--node1-KUFVIS_clean_sbu_0--node2-MIDCAF_clean_sbu_0--edge1-OJICUG_clean_linker_0
_symmetry_space_group_name_H-M    P1
_symmetry_Int_Tables_number       1
_symmetry_cell_setting            triclinic
loop_
_symmetry_equiv_pos_as_xyz
'x, y, z'
_cell_length_a     28.698932
_cell_length_b     28.782055
_cell_length_c     67.446718
_cell_angle_alpha  89.411056
_cell_angle_beta   90.772658
_cell_angle_gamma 120.16178
loop_
_atom_site_label
_atom_site_type_symbol
_atom_site_fract_x
_atom_site_fract_y
_atom_site_fract_z
_atom_type_partial_charge
Mn0 Mn 0.66585 -0.00678 0.30574 0.0
Mn1 Mn 0.78963 0.10059 0.29756 0.0
C2 C 0.73752 0.00342 0.325 0.0
C3 C 0.58178 0.95457 0.32107 0.0
C4 C 0.74096 0.0012 0.2719 0.0
O5 O 0.64954 0.04191 0.28852 0.0
O6 O 0.7332 0.11255 0.28492 0.0
C7 C 0.77689 0.17756 0.32239 0.0
N8 N 0.80451 0.15209 0.31789 0.0
C9 C 0.86941 0.19832 0.34392 0.0
C10 C 0.84183 0.22532 0.34878 0.0
C11 C 0.79531 0.21479 0.33799 0.0
C12 C 0.84905 0.16158 0.32827 0.0
H13 H 0.74104 0.16942 0.31416 0.0
C14 C 0.6823 0.08822 0.28156 0.0
O15 O 0.58868 0.9359 0.3046 0.0
O16 O 0.62315 -0.00304 0.32833 0.0
N17 N 0.84929 0.09616 0.30837 0.0
C18 C 0.87151 0.06715 0.30166 0.0
C19 C 0.91856 0.07324 0.31077 0.0
C20 C 0.94282 0.10976 0.32643 0.0
C21 C 0.92007 0.14024 0.33272 0.0
C22 C 0.87333 0.13268 0.32299 0.0
H23 H 0.85331 0.03933 0.28952 0.0
O24 O 0.69331 0.95748 0.32369 0.0
O25 O 0.73815 0.04345 0.31538 0.0
O26 O 0.69693 0.97406 0.28148 0.0
O27 O 0.77751 0.04878 0.27655 0.0
C28 C 0.9415 0.17729 0.34843 0.0
C29 C 0.91605 0.20614 0.35409 0.0
H30 H 0.8559 0.25406 0.36079 0.0
H31 H 0.7737 0.23532 0.34169 0.0
H32 H 0.93605 0.04981 0.30574 0.0
H33 H 0.97882 0.114 0.33353 0.0
H34 H 0.9773 0.18362 0.35636 0.0
H35 H 0.93268 0.23424 0.36629 0.0
Mn36 Mn 0.011 0.69638 0.29844 0.0
Mn37 Mn 0.13777 0.80287 0.30197 0.0
C38 C 0.03436 0.77093 0.2788 0.0
C39 C 0.95186 0.61093 0.28675 0.0
C40 C 0.05021 0.78155 0.33133 0.0
O41 O 0.05033 0.66635 0.31416 0.0
O42 O 0.13412 0.73787 0.31414 0.0
C43 C 0.1859 0.76064 0.27396 0.0
N44 N 0.17552 0.80003 0.27929 0.0
C45 C 0.21778 0.85119 0.24984 0.0
C46 C 0.22923 0.81132 0.2441 0.0
C47 C 0.21314 0.76582 0.2562 0.0
C48 C 0.19015 0.8436 0.26762 0.0
H49 H 0.17326 0.72543 0.28315 0.0
C50 C 0.09986 0.68935 0.31877 0.0
O51 O 0.94326 0.6286 0.30311 0.0
O52 O -0.00528 0.6433 0.27681 0.0
N53 N 0.14991 0.86988 0.2913 0.0
C54 C 0.14282 0.90795 0.3004 0.0
C55 C 0.15902 0.9572 0.29077 0.0
C56 C 0.18393 0.96749 0.2722 0.0
C57 C 0.19417 0.9292 0.26377 0.0
C58 C 0.17742 0.88102 0.27415 0.0
H59 H 0.12427 0.90049 0.3148 0.0
O60 O 0.98427 0.73468 0.28138 0.0
O61 O 0.06997 0.76087 0.28691 0.0
O62 O 0.01257 0.73983 0.32275 0.0
O63 O 0.09876 0.80774 0.32504 0.0
C64 C 0.22146 0.93744 0.24572 0.0
C65 C 0.23297 0.89831 0.23869 0.0
H66 H 0.2504 0.81525 0.23045 0.0
H67 H 0.22168 0.7348 0.25183 0.0
H68 H 0.15223 0.98708 0.29764 0.0
H69 H 0.19614 0.00539 0.26477 0.0
H70 H 0.23434 0.97401 0.23724 0.0
H71 H 0.25423 0.90522 0.22485 0.0
Mn72 Mn 0.32454 0.35082 0.31091 0.0
Mn73 Mn 0.30901 0.22819 0.30199 0.0
C74 C 0.26515 0.2792 0.3299 0.0
C75 C 0.37232 0.43428 0.32635 0.0
C76 C 0.25383 0.27509 0.27726 0.0
O77 O 0.38766 0.36804 0.29319 0.0
O78 O 0.37575 0.28532 0.28923 0.0
C79 C 0.40213 0.24347 0.32637 0.0
N80 N 0.34851 0.21463 0.32199 0.0
C81 C 0.33377 0.15005 0.34765 0.0
C82 C 0.38892 0.17889 0.35237 0.0
C83 C 0.4232 0.22589 0.34172 0.0
C84 C 0.31505 0.16977 0.33231 0.0
H85 H 0.42854 0.27964 0.31822 0.0
C86 C 0.4012 0.33601 0.28597 0.0
O87 O 0.34433 0.42766 0.31025 0.0
O88 O 0.37381 0.39291 0.33328 0.0
N89 N 0.24645 0.16747 0.3128 0.0
C90 C 0.19466 0.14319 0.30588 0.0
C91 C 0.1554 0.09492 0.3146 0.0
C92 C 0.16993 0.07151 0.33006 0.0
C93 C 0.22376 0.09629 0.33652 0.0
C94 C 0.2612 0.14416 0.32716 0.0
H95 H 0.18334 0.16057 0.29381 0.0
O96 O 0.26325 0.32322 0.32924 0.0
O97 O 0.30393 0.27896 0.32003 0.0
O98 O 0.27131 0.31904 0.28696 0.0
O99 O 0.26641 0.23935 0.28145 0.0
C100 C 0.24174 0.0755 0.35191 0.0
C101 C 0.29664 0.10257 0.35757 0.0
H102 H 0.40536 0.16538 0.36416 0.0
H103 H 0.46577 0.24846 0.34532 0.0
H104 H 0.11404 0.07577 0.30939 0.0
H105 H 0.13948 0.03445 0.33682 0.0
H106 H 0.21366 0.03879 0.35953 0.0
H107 H 0.30992 0.08636 0.36951 0.0
Mn108 Mn 0.33915 0.0285 0.80249 0.0
Mn109 Mn 0.20941 0.92785 0.80632 0.0
C110 C 0.27548 0.02563 0.78056 0.0
C111 C 0.4263 0.06394 0.79005 0.0
C112 C 0.26055 0.02328 0.83403 0.0
O113 O 0.34474 0.97379 0.82022 0.0
O114 O 0.25802 0.90696 0.81978 0.0
C115 C 0.21574 0.84781 0.78105 0.0
N116 N 0.19232 0.87746 0.78539 0.0
C117 C 0.12683 0.83587 0.75914 0.0
C118 C 0.15013 0.80472 0.75441 0.0
C119 C 0.19492 0.81089 0.76536 0.0
C120 C 0.14962 0.8723 0.77481 0.0
H121 H 0.24996 0.85232 0.78954 0.0
C122 C 0.30724 0.92712 0.82534 0.0
O123 O 0.41701 0.08146 0.80633 0.0
O124 O 0.38537 0.02363 0.78153 0.0
N125 N 0.15652 0.94153 0.79443 0.0
C126 C 0.13949 0.9754 0.80065 0.0
C127 C 0.09489 0.97424 0.7913 0.0
C128 C 0.06769 0.93766 0.77589 0.0
C129 C 0.08547 0.90268 0.76992 0.0
C130 C 0.13002 0.90554 0.77985 0.0
H131 H 0.15968 0.00302 0.8127 0.0
O132 O 0.32059 0.06991 0.78355 0.0
O133 O 0.26876 0.98345 0.79037 0.0
O134 O 0.30625 0.04914 0.82552 0.0
O135 O 0.22261 0.9777 0.82818 0.0
C136 C 0.06118 0.86554 0.75435 0.0
C137 C 0.08209 0.83243 0.74887 0.0
H138 H 0.1341 0.77608 0.74237 0.0
H139 H 0.21318 0.78706 0.76177 0.0
H140 H 0.08135 0.00131 0.79601 0.0
H141 H 0.03339 0.93698 0.7687 0.0
H142 H 0.02679 0.86252 0.74634 0.0
H143 H 0.06348 0.8045 0.73672 0.0
Mn144 Mn 0.98561 0.30999 0.79502 0.0
Mn145 Mn 0.08601 0.28254 0.80302 0.0
C146 C -0.00873 0.24847 0.77486 0.0
C147 C 0.95166 0.36126 0.78064 0.0
C148 C 0.98693 0.2386 0.82879 0.0
O149 O 0.03847 0.37139 0.81284 0.0
O150 O 0.10569 0.35259 0.81507 0.0
C151 C 0.16883 0.3681 0.77777 0.0
N152 N 0.13873 0.31519 0.78274 0.0
C153 C 0.18134 0.29026 0.75786 0.0
C154 C 0.21305 0.34455 0.75252 0.0
C155 C 0.20665 0.38361 0.76249 0.0
C156 C 0.14428 0.27726 0.77316 0.0
H157 H 0.1639 0.39813 0.78542 0.0
C158 C 0.08479 0.38147 0.81915 0.0
O159 O 0.93226 0.33429 0.79691 0.0
O160 O -0.0075 0.36046 0.77298 0.0
N161 N 0.07341 0.21564 0.79267 0.0
C162 C 0.03876 0.16501 0.79935 0.0
C163 C 0.04025 0.12122 0.79111 0.0
C164 C 0.07763 0.13 0.77626 0.0
C165 C 0.11319 0.18248 0.76971 0.0
C166 C 0.11038 0.22459 0.7787 0.0
H167 H 0.01035 0.15808 0.81093 0.0
O168 O 0.94654 0.24903 0.77637 0.0
O169 O 0.03219 0.28471 0.78506 0.0
O170 O 0.96202 0.25735 0.81875 0.0
O171 O 0.0335 0.24665 0.82436 0.0
C172 C 0.15057 0.19465 0.75438 0.0
C173 C 0.18449 0.24848 0.74841 0.0
H174 H 0.24218 0.35665 0.74072 0.0
H175 H 0.23082 0.42555 0.7584 0.0
H176 H 0.0128 0.08082 0.79624 0.0
H177 H 0.07858 0.09611 0.77004 0.0
H178 H 0.15284 0.16293 0.74679 0.0
H179 H 0.21261 0.25727 0.73646 0.0
Mn180 Mn 0.69915 0.69188 0.79576 0.0
Mn181 Mn 0.79917 0.66219 0.7938 0.0
C182 C 0.77552 0.73979 0.81515 0.0
C183 C 0.61767 0.67734 0.80832 0.0
C184 C 0.78633 0.73256 0.7634 0.0
O185 O 0.66268 0.62036 0.7812 0.0
O186 O 0.73281 0.60616 0.78024 0.0
C187 C 0.74605 0.56861 0.82086 0.0
N188 N 0.78908 0.61758 0.8164 0.0
C189 C 0.83367 0.6194 0.84711 0.0
C190 C 0.78994 0.56884 0.85199 0.0
C191 C 0.74594 0.54338 0.83881 0.0
C192 C 0.83134 0.6427 0.82908 0.0
H193 H 0.71199 0.54912 0.81084 0.0
C194 C 0.68445 0.5936 0.77572 0.0
O195 O 0.63496 0.69943 0.79108 0.0
O196 O 0.64681 0.66179 0.81803 0.0
N197 N 0.86682 0.71182 0.80579 0.0
C198 C 0.90886 0.75629 0.79748 0.0
C199 C 0.95713 0.7856 0.80829 0.0
C200 C 0.96227 0.76784 0.82724 0.0
C201 C 0.91983 0.71983 0.83486 0.0
C202 C 0.87285 0.69227 0.82333 0.0
H203 H 0.9052 0.76976 0.78283 0.0
O204 O 0.74309 0.75789 0.81152 0.0
O205 O 0.76109 0.69236 0.80801 0.0
O206 O 0.74385 0.72918 0.77083 0.0
O207 O 0.81106 0.70984 0.77096 0.0
C208 C 0.92277 0.69753 0.85321 0.0
C209 C 0.8796 0.64746 0.85937 0.0
H210 H 0.78976 0.54918 0.86579 0.0
H211 H 0.71199 0.50442 0.8425 0.0
H212 H -0.00977 0.82179 0.80205 0.0
H213 H -0.00054 0.79061 0.83558 0.0
H214 H 0.95831 0.71822 0.86257 0.0
H215 H 0.88247 0.63053 0.87344 0.0
Mn216 Mn 0.34494 0.33406 0.63676 0.0
Mn217 Mn 0.46888 0.43962 0.62753 0.0
C218 C 0.41718 0.3431 0.65536 0.0
C219 C 0.26183 0.29784 0.65232 0.0
C220 C 0.41685 0.33942 0.60233 0.0
O221 O 0.32888 0.38255 0.61945 0.0
O222 O 0.41257 0.45243 0.61519 0.0
C223 C 0.45892 0.51806 0.65248 0.0
N224 N 0.48546 0.49159 0.64784 0.0
C225 C 0.55051 0.53595 0.67401 0.0
C226 C 0.52407 0.56397 0.679 0.0
C227 C 0.47802 0.5549 0.66821 0.0
C228 C 0.52953 0.49967 0.65823 0.0
H229 H 0.42338 0.51096 0.64427 0.0
C230 C 0.36154 0.42829 0.61209 0.0
O231 O 0.26765 0.27812 0.63593 0.0
O232 O 0.30395 0.33972 0.65951 0.0
N233 N 0.52844 0.43429 0.63792 0.0
C234 C 0.55027 0.40537 0.63076 0.0
C235 C 0.59704 0.41037 0.63972 0.0
C236 C 0.62146 0.44577 0.65568 0.0
C237 C 0.5993 0.47645 0.66236 0.0
C238 C 0.55284 0.47003 0.65275 0.0
H239 H 0.53191 0.37838 0.6184 0.0
O240 O 0.37215 0.2978 0.65459 0.0
O241 O 0.41809 0.38332 0.64575 0.0
O242 O 0.37362 0.31321 0.61239 0.0
O243 O 0.4545 0.38687 0.60661 0.0
C244 C 0.62121 0.51284 0.67825 0.0
C245 C 0.5967 0.5424 0.68414 0.0
H246 H 0.53866 0.59241 0.69112 0.0
H247 H 0.45729 0.57623 0.67202 0.0
H248 H 0.61417 0.38692 0.63435 0.0
H249 H 0.65724 0.44915 0.66267 0.0
H250 H 0.65678 0.51827 0.6861 0.0
H251 H 0.61377 0.57006 0.69644 0.0
Mn252 Mn 0.67376 0.01594 0.62918 0.0
Mn253 Mn 0.7952 0.1281 0.6355 0.0
C254 C 0.6924 0.09229 0.61146 0.0
C255 C 0.62165 0.93232 0.61464 0.0
C256 C 0.70387 0.09063 0.66495 0.0
O257 O 0.71773 0.989 0.64385 0.0
O258 O 0.79963 0.06368 0.64326 0.0
C259 C 0.85342 0.10735 0.6041 0.0
N260 N 0.83703 0.13981 0.61222 0.0
C261 C 0.87956 0.20576 0.58637 0.0
C262 C 0.89719 0.17318 0.57779 0.0
C263 C 0.88396 0.12372 0.58667 0.0
C264 C 0.84901 0.18719 0.60368 0.0
H265 H 0.84309 0.06919 0.61084 0.0
C266 C 0.76815 0.01391 0.64717 0.0
O267 O 0.60938 0.94381 0.63165 0.0
O268 O 0.66442 0.96948 0.60591 0.0
N269 N 0.79849 0.1945 0.62886 0.0
C270 C 0.78111 0.22257 0.63967 0.0
C271 C 0.79212 0.27351 0.6331 0.0
C272 C 0.82211 0.29577 0.61579 0.0
C273 C 0.8415 0.26713 0.60536 0.0
C274 C 0.8295 0.21663 0.61271 0.0
H275 H 0.75854 0.20607 0.65311 0.0
O276 O 0.64327 0.05296 0.61328 0.0
O277 O 0.72979 0.08486 0.61942 0.0
O278 O 0.66813 0.0516 0.65465 0.0
O279 O 0.7531 0.11931 0.65968 0.0
C280 C 0.87226 0.28667 0.58798 0.0
C281 C 0.89098 0.25586 0.57842 0.0
H282 H 0.92082 0.18569 0.56436 0.0
H283 H 0.89726 0.09827 0.58009 0.0
H284 H 0.77715 0.29531 0.6413 0.0
H285 H 0.8302 0.33494 0.6107 0.0
H286 H 0.88171 0.32532 0.58183 0.0
H287 H 0.91442 0.27121 0.56503 0.0
Mn288 Mn 0.00012 0.67378 0.64511 0.0
Mn289 Mn -0.01053 0.55304 0.6363 0.0
C290 C 0.94333 0.6012 0.66467 0.0
C291 C 0.04614 0.75921 0.65915 0.0
C292 C 0.92951 0.59554 0.61208 0.0
O293 O 0.0628 0.69289 0.62675 0.0
O294 O 0.05393 0.61144 0.62283 0.0
C295 C 0.08581 0.57397 0.65985 0.0
N296 N 0.03209 0.54284 0.65597 0.0
C297 C 0.02218 0.48065 0.68195 0.0
C298 C 0.07749 0.51187 0.68615 0.0
C299 C 0.10939 0.55882 0.67508 0.0
C300 C 0.00089 0.49804 0.66671 0.0
H301 H 0.11038 0.61012 0.65138 0.0
C302 C 0.07744 0.66193 0.6193 0.0
O303 O 0.01597 0.74912 0.64346 0.0
O304 O 0.05022 0.71982 0.66678 0.0
N305 N 0.92944 0.49093 0.64764 0.0
C306 C 0.87751 0.46361 0.64088 0.0
C307 C 0.84054 0.41481 0.64991 0.0
C308 C 0.8576 0.39386 0.66547 0.0
C309 C 0.91169 0.42161 0.67166 0.0
C310 C 0.94676 0.46991 0.662 0.0
H311 H 0.8643 0.47907 0.62874 0.0
O312 O 0.93976 0.64434 0.66407 0.0
O313 O 0.98263 0.60269 0.65452 0.0
O314 O 0.94605 0.63934 0.62172 0.0
O315 O 0.94382 0.56098 0.61612 0.0
C316 C 0.93221 0.40326 0.68704 0.0
C317 C 0.98735 0.43296 0.69227 0.0
H318 H 0.09587 0.50022 0.69784 0.0
H319 H 0.15207 0.58322 0.67828 0.0
H320 H 0.79899 0.39342 0.6449 0.0
H321 H 0.82887 0.35642 0.6725 0.0
H322 H 0.90594 0.36639 0.69493 0.0
H323 H 0.00263 0.41854 0.70416 0.0
Mn324 Mn -0.00964 0.35774 0.1341 0.0
Mn325 Mn 0.87097 0.24322 0.13976 0.0
C326 C 0.9179 0.34541 0.11489 0.0
C327 C 0.07644 0.40324 0.12129 0.0
C328 C 0.91378 0.33613 0.16851 0.0
O329 O 0.00994 0.3099 0.14989 0.0
O330 O 0.93006 0.2329 0.15066 0.0
C331 C 0.88861 0.17589 0.11142 0.0
N332 N 0.85863 0.19749 0.1176 0.0
C333 C 0.79425 0.1547 0.09111 0.0
C334 C 0.82426 0.1317 0.08451 0.0
C335 C 0.8717 0.14245 0.09468 0.0
C336 C 0.81314 0.18771 0.10785 0.0
H337 H 0.92515 0.18425 0.11919 0.0
C338 C 0.98038 0.26104 0.15488 0.0
O339 O 0.06454 0.41757 0.13776 0.0
O340 O 0.03804 0.36244 0.11193 0.0
N341 N 0.80936 0.24624 0.13042 0.0
C342 C 0.78556 0.27217 0.13858 0.0
C343 C 0.73809 0.26634 0.13001 0.0
C344 C 0.7147 0.23274 0.11351 0.0
C345 C 0.73913 0.2053 0.10571 0.0
C346 C 0.78656 0.21285 0.11484 0.0
H347 H 0.80309 0.29773 0.15135 0.0
O348 O 0.95984 0.39283 0.11719 0.0
O349 O 0.92041 0.30561 0.12334 0.0
O350 O 0.95566 0.36837 0.15875 0.0
O351 O 0.88015 0.28839 0.16289 0.0
C352 C 0.71899 0.1717 0.08898 0.0
C353 C 0.74665 0.1466 0.08163 0.0
H354 H 0.8114 0.10595 0.0716 0.0
H355 H 0.89517 0.12501 0.08963 0.0
H356 H 0.71983 0.288 0.13607 0.0
H357 H 0.67826 0.22865 0.10686 0.0
H358 H 0.68256 0.16534 0.08155 0.0
H359 H 0.73108 0.12132 0.06863 0.0
Mn360 Mn 0.67973 0.66663 0.12324 0.0
Mn361 Mn 0.79864 0.67042 0.12986 0.0
C362 C 0.69878 0.61242 0.10408 0.0
C363 C 0.62937 0.70148 0.10907 0.0
C364 C 0.70409 0.61011 0.15746 0.0
O365 O 0.72354 0.73439 0.13947 0.0
O366 O 0.802 0.7347 0.14215 0.0
C367 C 0.8623 0.76346 0.10345 0.0
N368 N 0.84383 0.71106 0.10831 0.0
C369 C 0.88661 0.69901 0.07994 0.0
C370 C 0.90641 0.75297 0.07471 0.0
C371 C 0.89415 0.7853 0.08651 0.0
C372 C 0.85502 0.67949 0.09697 0.0
H373 H 0.85256 0.78828 0.1124 0.0
C374 C 0.77183 0.75456 0.14574 0.0
O375 O 0.61561 0.67485 0.12565 0.0
O376 O 0.67285 0.70858 0.10064 0.0
N377 N 0.80246 0.61108 0.11918 0.0
C378 C 0.78398 0.56127 0.12722 0.0
C379 C 0.79397 0.52419 0.11753 0.0
C380 C 0.82375 0.53907 0.09992 0.0
C381 C 0.84459 0.59143 0.09247 0.0
C382 C 0.83377 0.62676 0.10289 0.0
H383 H 0.7612 0.54972 0.14078 0.0
O384 O 0.64964 0.60232 0.10597 0.0
O385 O 0.73595 0.65517 0.11311 0.0
O386 O 0.67112 0.6201 0.14801 0.0
O387 O 0.75258 0.62693 0.15201 0.0
C388 C 0.87604 0.6101 0.07522 0.0
C389 C 0.89688 0.6638 0.06892 0.0
H390 H 0.93098 0.76996 0.06165 0.0
H391 H 0.9091 0.82692 0.08252 0.0
H392 H 0.77851 0.48416 0.12356 0.0
H393 H 0.83096 0.51023 0.0924 0.0
H394 H 0.88462 0.58356 0.06673 0.0
H395 H 0.92103 0.6777 0.05564 0.0
Mn396 Mn 0.34742 0.035 0.14354 0.0
Mn397 Mn 0.46718 0.04137 0.13642 0.0
C398 C 0.42173 0.09647 0.16126 0.0
C399 C 0.2642 -0.00393 0.15964 0.0
C400 C 0.42348 0.09313 0.10825 0.0
O401 O 0.32598 0.96607 0.12862 0.0
O402 O 0.40726 0.97298 0.12563 0.0
C403 C 0.44887 0.95412 0.16445 0.0
N404 N 0.47937 0.00607 0.15833 0.0
C405 C 0.54378 0.02532 0.18472 0.0
C406 C 0.51323 0.97191 0.19124 0.0
C407 C 0.46552 0.93621 0.18108 0.0
C408 C 0.52509 0.04086 0.1681 0.0
H409 H 0.41208 0.92667 0.15671 0.0
C410 C 0.35626 0.9487 0.12266 0.0
O411 O 0.27134 0.01928 0.14243 0.0
O412 O 0.30473 -0.00601 0.16729 0.0
N413 N 0.52987 0.10494 0.14565 0.0
C414 C 0.555 0.15486 0.13726 0.0
C415 C 0.60328 0.19543 0.14563 0.0
C416 C 0.62618 0.18392 0.16214 0.0
C417 C 0.60051 0.13178 0.17012 0.0
C418 C 0.55235 0.09299 0.16115 0.0
H419 H 0.53793 0.1639 0.12445 0.0
O420 O 0.37945 0.10147 0.15945 0.0
O421 O 0.41886 0.0541 0.15312 0.0
O422 O 0.38013 0.08037 0.1178 0.0
O423 O 0.45776 0.0796 0.11381 0.0
C424 C 0.62028 0.11698 0.1868 0.0
C425 C 0.59182 0.06384 0.19415 0.0
H426 H 0.52591 0.95793 0.20406 0.0
H427 H 0.44162 0.89499 0.18606 0.0
H428 H 0.62248 0.23556 0.13943 0.0
H429 H 0.66326 0.21547 0.16864 0.0
H430 H 0.65711 0.14623 0.19418 0.0
H431 H 0.60721 0.05303 0.20707 0.0
Mn432 Mn 0.04019 0.67897 0.97205 0.0
Mn433 Mn 0.14034 0.80922 0.96996 0.0
C434 C 0.10506 0.71181 0.99663 0.0
C435 C 0.9516 0.61481 0.98124 0.0
C436 C 0.14558 0.72186 0.94745 0.0
O437 O 0.01281 0.71039 0.9508 0.0
O438 O 0.08251 0.7949 0.95014 0.0
C439 C 0.07261 0.85074 0.98586 0.0
N440 N 0.11718 0.84557 0.98737 0.0
C441 C 0.14197 0.89168 1.01868 0.0
C442 C 0.09645 0.89766 1.01742 0.0
C443 C 0.06162 0.87708 1.00094 0.0
C444 C 0.15057 0.86465 1.00329 0.0
H445 H 0.04547 0.83466 0.97331 0.0
C446 C 0.03677 0.75781 0.94371 0.0
O447 O 0.97661 0.60579 0.96719 0.0
O448 O 0.97731 0.6616 0.98954 0.0
N449 N 0.1999 0.83152 0.98791 0.0
C450 C 0.24698 0.83196 0.98486 0.0
C451 C 0.28758 0.85312 0.99952 0.0
C452 C 0.28046 0.87612 1.01665 0.0
C453 C 0.23379 0.87977 1.01854 0.0
C454 C 0.19468 0.85769 1.00348 0.0
H455 H 0.25284 0.81502 0.97155 0.0
O456 O 0.07355 0.66062 0.99431 0.0
O457 O 0.09559 0.743 0.98512 0.0
O458 O 0.09901 0.68314 0.95283 0.0
O459 O 0.16507 0.77087 0.95282 0.0
C460 C 0.22549 0.90625 1.03438 0.0
C461 C 0.17945 0.91197 1.0345 0.0
H462 H 0.08796 0.91816 1.02897 0.0
H463 H 0.02636 0.88146 0.99987 0.0
H464 H 0.32429 0.85183 0.99759 0.0
H465 H 0.31189 0.89256 1.0279 0.0
H466 H 0.25476 0.92327 1.04635 0.0
H467 H 0.17379 0.93293 1.04664 0.0
Mn468 Mn 0.29858 0.33725 0.96843 0.0
Mn469 Mn 0.40976 0.46009 0.97056 0.0
C470 C 0.30408 0.40522 0.94813 0.0
C471 C 0.25351 0.25037 0.95582 0.0
C472 C 0.32241 0.41828 1.00159 0.0
O473 O 0.35312 0.323 0.98278 0.0
O474 O 0.42636 0.40594 0.98204 0.0
C475 C 0.47711 0.44331 0.94194 0.0
N476 N 0.45329 0.47146 0.94785 0.0
C477 C 0.49413 0.5353 0.92128 0.0
C478 C 0.5193 0.50712 0.91492 0.0
C479 C 0.5105 0.46076 0.92524 0.0
C480 C 0.46086 0.51566 0.93788 0.0
H481 H 0.47077 0.40795 0.94996 0.0
C482 C 0.40255 0.35598 0.98665 0.0
O483 O 0.2411 0.26162 0.97286 0.0
O484 O 0.29264 0.2894 0.9462 0.0
N485 N 0.40039 0.51701 0.96016 0.0
C486 C 0.37114 0.53807 0.96768 0.0
C487 C 0.37445 0.58398 0.95879 0.0
C488 C 0.40845 0.60827 0.94252 0.0
C489 C 0.43851 0.58613 0.93516 0.0
C490 C 0.43321 0.54009 0.94451 0.0
H491 H 0.34563 0.52006 0.98039 0.0
O492 O 0.25769 0.36365 0.95223 0.0
O493 O 0.34611 0.40549 0.95592 0.0
O494 O 0.29039 0.37343 0.99333 0.0
O495 O 0.36773 0.45287 0.99435 0.0
C496 C 0.4734 0.60779 0.91887 0.0
C497 C 0.5007 0.58206 0.91179 0.0
H498 H 0.54531 0.52062 0.90212 0.0
H499 H 0.52969 0.43874 0.9204 0.0
H500 H 0.35123 0.60091 0.96459 0.0
H501 H 0.4111 0.64384 0.93577 0.0
H502 H 0.47903 0.64387 0.91152 0.0
H503 H 0.5266 0.59854 0.89902 0.0
Mn504 Mn 0.64753 -0.0084 0.97764 0.0
Mn505 Mn 0.63856 0.8709 0.97037 0.0
C506 C 0.58719 0.91819 0.99588 0.0
C507 C 0.6875 0.07554 0.99305 0.0
C508 C 0.58243 0.91284 0.94384 0.0
O509 O 0.71511 0.01209 0.96174 0.0
O510 O 0.70348 0.9296 0.95733 0.0
C511 C 0.73331 0.89459 0.99546 0.0
N512 N 0.68004 0.86252 0.99102 0.0
C513 C 0.66894 0.80198 1.0178 0.0
C514 C 0.72376 0.83421 1.0226 0.0
C515 C 0.75603 0.88081 1.01142 0.0
C516 C 0.64845 0.81808 1.00187 0.0
H517 H 0.7582 0.93045 0.98691 0.0
C518 C 0.72899 0.98037 0.95437 0.0
O519 O 0.66266 0.06697 0.97609 0.0
O520 O 0.69082 0.03597 1.00088 0.0
N521 N 0.57822 0.80848 0.98143 0.0
C522 C 0.52718 0.77963 0.97389 0.0
C523 C 0.49009 0.73082 0.9829 0.0
C524 C 0.50618 0.71147 0.99925 0.0
C525 C 0.55956 0.74064 1.00621 0.0
C526 C 0.5948 0.78884 0.99652 0.0
H527 H 0.51479 0.79387 0.96112 0.0
O528 O 0.58231 0.96045 0.99426 0.0
O529 O 0.62902 0.9206 0.98744 0.0
O530 O 0.59969 0.95817 0.95248 0.0
O531 O 0.59417 0.87732 0.94937 0.0
C532 C 0.57931 0.72356 1.02224 0.0
C533 C 0.63386 0.75444 1.02814 0.0
H534 H 0.7415 0.82358 1.03483 0.0
H535 H 0.79834 0.90596 1.01506 0.0
H536 H 0.44923 0.70811 0.97722 0.0
H537 H 0.4774 0.67394 1.00622 0.0
H538 H 0.55296 0.68663 1.03008 0.0
H539 H 0.64856 0.74096 1.04051 0.0
Mn540 Mn 0.68036 0.69633 0.46641 0.0
Mn541 Mn 0.55844 0.58615 0.47453 0.0
C542 C 0.60882 0.68244 0.44647 0.0
C543 C 0.76581 0.7365 0.45276 0.0
C544 C 0.60267 0.68699 0.49923 0.0
O545 O 0.69814 0.6508 0.48451 0.0
O546 O 0.61628 0.57718 0.48744 0.0
C547 C 0.57556 0.5111 0.45022 0.0
N548 N 0.54591 0.53462 0.45448 0.0
C549 C 0.48172 0.48524 0.42861 0.0
C550 C 0.51139 0.46024 0.42401 0.0
C551 C 0.5586 0.47336 0.43483 0.0
C552 C 0.50082 0.5228 0.44401 0.0
H553 H 0.61189 0.52118 0.4585 0.0
C554 C 0.66693 0.60385 0.49115 0.0
O555 O 0.75587 0.75534 0.46854 0.0
O556 O 0.72624 0.69353 0.44492 0.0
N557 N 0.49716 0.58716 0.46346 0.0
C558 C 0.47209 0.61342 0.47025 0.0
C559 C 0.42354 0.60383 0.46135 0.0
C560 C 0.40066 0.56662 0.44583 0.0
C561 C 0.42627 0.53885 0.4395 0.0
C562 C 0.47437 0.54977 0.44905 0.0
H563 H 0.48905 0.64157 0.48235 0.0
O564 O 0.65219 0.72919 0.44747 0.0
O565 O 0.60928 0.64366 0.45659 0.0
O566 O 0.6463 0.71489 0.48958 0.0
O567 O 0.56811 0.63814 0.49523 0.0
C568 C 0.40611 0.50098 0.42403 0.0
C569 C 0.43401 0.47446 0.41849 0.0
H570 H 0.49838 0.431 0.41218 0.0
H571 H 0.58181 0.45436 0.43132 0.0
H572 H 0.40375 0.62504 0.46646 0.0
H573 H 0.36339 0.5596 0.43891 0.0
H574 H 0.3693 0.49209 0.41624 0.0
H575 H 0.41829 0.44566 0.4065 0.0
Mn576 Mn 0.3276 0.00431 0.45932 0.0
Mn577 Mn 0.43715 -0.00934 0.46677 0.0
C578 C 0.33746 0.94411 0.44006 0.0
C579 C 0.28715 0.04957 0.44509 0.0
C580 C 0.33938 0.93814 0.49324 0.0
O581 O 0.3769 0.06921 0.47607 0.0
O582 O 0.4495 0.05904 0.47864 0.0
C583 C 0.51094 0.08003 0.44058 0.0
N584 N 0.48684 0.02723 0.44585 0.0
C585 C 0.5331 0.00913 0.42024 0.0
C586 C 0.55869 0.06341 0.4146 0.0
C587 C 0.54741 0.09896 0.42478 0.0
C588 C 0.49686 -0.00745 0.436 0.0
H589 H 0.50232 0.10741 0.44838 0.0
C590 C 0.42449 0.08438 0.48214 0.0
O591 O 0.26987 0.02253 0.46149 0.0
O592 O 0.32875 0.05134 0.43698 0.0
N593 N 0.43293 0.92675 0.45664 0.0
C594 C 0.40545 0.87581 0.46413 0.0
C595 C 0.41271 0.8354 0.45579 0.0
C596 C 0.44897 0.84794 0.44013 0.0
C597 C 0.47792 0.90093 0.43304 0.0
C598 C 0.46918 0.93956 0.442 0.0
H599 H 0.37804 0.86601 0.47634 0.0
O600 O 0.29125 0.94161 0.44156 0.0
O601 O 0.37801 0.98377 0.44936 0.0
O602 O 0.31078 0.95358 0.4836 0.0
O603 O 0.38731 0.95094 0.48847 0.0
C604 C 0.51471 0.91683 0.41731 0.0
C605 C 0.54197 0.9708 0.41081 0.0
H606 H 0.58694 0.0782 0.40246 0.0
H607 H 0.56686 0.14086 0.42047 0.0
H608 H 0.39046 0.79468 0.46143 0.0
H609 H 0.45417 0.81658 0.43364 0.0
H610 H 0.52215 0.88782 0.41005 0.0
H611 H 0.5698 0.98243 0.39858 0.0
Mn612 Mn 0.0148 0.3478 0.4782 0.0
Mn613 Mn 0.12478 0.33715 0.46885 0.0
C614 C 0.09368 0.40126 0.4956 0.0
C615 C 0.93274 0.31625 0.49448 0.0
C616 C 0.09448 0.405 0.4436 0.0
O617 O 0.98355 0.28005 0.46146 0.0
O618 O 0.05954 0.27852 0.45564 0.0
C619 C 0.08722 0.23868 0.49312 0.0
N620 N 0.12516 0.29063 0.4892 0.0
C621 C 0.17946 0.29265 0.51706 0.0
C622 C 0.14108 0.23907 0.52133 0.0
C623 C 0.09473 0.21202 0.50932 0.0
C624 C 0.16952 0.31726 0.50083 0.0
H625 H 0.05141 0.21786 0.48399 0.0
C626 C 0.00909 0.26036 0.45308 0.0
O627 O 0.94303 0.34277 0.47789 0.0
O628 O 0.96955 0.30703 0.50153 0.0
N629 N 0.19236 0.39021 0.47993 0.0
C630 C 0.22906 0.43842 0.4719 0.0
C631 C 0.27887 0.47002 0.48154 0.0
C632 C 0.29127 0.45079 0.49886 0.0
C633 C 0.25445 0.39935 0.50601 0.0
C634 C 0.20548 0.36975 0.49575 0.0
H635 H 0.21995 0.45296 0.45841 0.0
O636 O 0.05474 0.41171 0.49533 0.0
O637 O 0.08392 0.3571 0.48665 0.0
O638 O 0.05156 0.39441 0.45308 0.0
O639 O 0.1254 0.38646 0.4484 0.0
C640 C 0.265 0.37569 0.52257 0.0
C641 C 0.22739 0.32246 0.52815 0.0
H642 H 0.14685 0.21828 0.53376 0.0
H643 H 0.06487 0.17071 0.51256 0.0
H644 H 0.3076 0.50907 0.47562 0.0
H645 H 0.3297 0.47527 0.50626 0.0
H646 H 0.30224 0.3978 0.53094 0.0
H647 H 0.23613 0.30454 0.54081 0.0
Zn648 Zn 0.01387 0.02286 0.17794 0.0
Zn649 Zn -0.00549 0.02719 0.25044 0.0
Zn650 Zn 0.00552 0.01581 0.21478 0.0
C651 C 0.03833 0.95835 0.24701 0.0
C652 C 0.06488 0.12849 0.24128 0.0
O653 O 0.0365 0.1 0.20438 0.0
O654 O 0.04366 0.09859 0.17185 0.0
C655 C 0.90732 0.95049 0.18352 0.0
O656 O 0.0415 0.97035 0.22843 0.0
O657 O 0.0201 0.97878 0.25889 0.0
O658 O 0.04057 0.1033 0.25667 0.0
O659 O 0.05474 0.1031 0.22461 0.0
O660 O 0.93917 0.97473 0.16949 0.0
O661 O 0.92401 0.96193 0.20166 0.0
O662 O 0.05881 0.98135 0.20783 0.0
O663 O 0.06171 -0.00602 0.17542 0.0
C664 C 0.07606 0.97822 0.19058 0.0
O665 O 0.91616 0.97579 0.22118 0.0
O666 O 0.91729 -0.00278 0.2526 0.0
C667 C 0.04666 0.12394 0.18736 0.0
C668 C 0.89105 0.97512 0.23704 0.0
Zn669 Zn 0.00259 0.00143 0.36222 0.0
Zn670 Zn 0.00672 0.01789 0.42984 0.0
Zn671 Zn 0.00409 0.0122 0.39401 0.0
C672 C 0.95349 0.07119 0.41719 0.0
C673 C 0.95234 0.91003 0.42379 0.0
O674 O 0.98562 0.92881 0.38712 0.0
O675 O 0.03969 0.95971 0.36154 0.0
C676 C 0.08477 0.09746 0.36573 0.0
O677 O 0.95922 0.05463 0.40021 0.0
O678 O 0.97009 0.05911 0.43272 0.0
O679 O 0.96709 0.94275 0.43797 0.0
O680 O 0.9644 0.92784 0.40585 0.0
O681 O 0.04333 0.07728 0.3548 0.0
O682 O 0.08418 0.07233 0.38175 0.0
O683 O 0.94194 0.02899 0.38051 0.0
O684 O 0.92391 0.96498 0.35925 0.0
C685 C 0.91078 -0.00349 0.36693 0.0
O686 O 0.09173 0.06013 0.40135 0.0
O687 O 0.08516 0.05558 0.43393 0.0
C688 C 0.0144 0.92279 0.374 0.0
C689 C 0.11416 0.06956 0.41867 0.0
Zn690 Zn 0.98384 0.97324 0.92711 0.0
Zn691 Zn 0.01773 0.02567 0.85559 0.0
Zn692 Zn -0.00177 -0.00392 0.89061 0.0
C693 C 0.95699 0.06833 0.86754 0.0
C694 C 0.95495 0.91383 0.85423 0.0
O695 O 0.97032 0.90855 0.89336 0.0
O696 O 0.96101 0.89688 0.9258 0.0
C697 C 0.09131 0.05084 0.92416 0.0
O698 O 0.9568 0.04321 0.88354 0.0
O699 O 0.98229 0.06748 0.85258 0.0
O700 O 0.97885 0.95492 0.84334 0.0
O701 O 0.95936 0.91926 0.87325 0.0
O702 O 0.05691 0.02266 0.93702 0.0
O703 O 0.07778 0.04438 0.90563 0.0
O704 O 0.9398 0.01965 0.90244 0.0
O705 O 0.9305 -0.00689 0.93377 0.0
C706 C 0.9183 0.01411 0.91967 0.0
O707 O 0.08781 0.04119 0.88522 0.0
O708 O 0.09607 0.06417 0.8536 0.0
C709 C 0.96038 0.87843 0.90886 0.0
C710 C 0.11758 0.06254 0.86979 0.0
Zn711 Zn 0.00836 -0.00013 0.73502 0.0
Zn712 Zn 0.03326 0.01687 0.66773 0.0
Zn713 Zn 0.02325 0.0137 0.70362 0.0
C714 C 0.08029 0.95862 0.68141 0.0
C715 C 0.08216 0.12364 0.68137 0.0
O716 O 0.03362 0.08903 0.71725 0.0
O717 O 0.96584 0.03636 0.73631 0.0
C718 C 0.93533 0.90937 0.72132 0.0
O719 O 0.07224 0.97461 0.69817 0.0
O720 O 0.06676 0.97228 0.66549 0.0
O721 O 0.07786 0.09545 0.66648 0.0
O722 O 0.06115 0.10086 0.69797 0.0
O723 O 0.97238 0.92051 0.73385 0.0
O724 O 0.94023 0.94601 0.70902 0.0
O725 O 0.08525 -0.00277 0.71704 0.0
O726 O 0.08419 0.04118 0.74309 0.0
C727 C 0.10812 0.02305 0.73308 0.0
O728 O 0.94088 0.96999 0.69083 0.0
O729 O 0.95787 0.98617 0.65893 0.0
C730 C -0.00336 0.08285 0.72948 0.0
C731 C 0.92428 0.96788 0.67283 0.0
Zn732 Zn 0.66335 0.35643 0.58269 0.0
Zn733 Zn 0.68567 0.35321 0.50977 0.0
Zn734 Zn 0.67658 0.34523 0.54723 0.0
C735 C 0.74687 0.3073 0.52362 0.0
C736 C 0.57873 0.28178 0.51552 0.0
O737 O 0.58751 0.30743 0.55289 0.0
O738 O 0.58677 0.33019 0.58401 0.0
C739 C 0.73838 0.45609 0.57466 0.0
O740 O 0.72765 0.30865 0.54066 0.0
O741 O 0.73504 0.32537 0.50843 0.0
O742 O 0.61088 0.30385 0.50137 0.0
O743 O 0.59547 0.29432 0.5336 0.0
O744 O 0.7122 0.43118 0.58979 0.0
O745 O 0.72812 0.43129 0.55785 0.0
O746 O 0.70799 0.29622 0.56096 0.0
O747 O 0.68355 0.30384 0.59103 0.0
C748 C 0.70119 0.28236 0.57938 0.0
O749 O 0.71099 0.43037 0.53771 0.0
O750 O 0.71433 0.42977 0.50501 0.0
C751 C 0.56157 0.30782 0.56831 0.0
C752 C 0.72031 0.45498 0.52087 0.0
Zn753 Zn 0.67541 0.3428 0.76101 0.0
Zn754 Zn 0.67312 0.3169 0.6934 0.0
Zn755 Zn 0.67336 0.33108 0.72539 0.0
C756 C 0.58601 0.32392 0.69565 0.0
C757 C 0.76125 0.41222 0.69717 0.0
O758 O 0.76127 0.37546 0.73377 0.0
O759 O 0.75305 0.37576 0.76622 0.0
C760 C 0.61463 0.2338 0.75734 0.0
O761 O 0.61611 0.35271 0.71019 0.0
O762 O 0.59667 0.29078 0.68779 0.0
O763 O 0.72274 0.39056 0.68492 0.0
O764 O 0.75647 0.38905 0.71412 0.0
O765 O 0.63074 0.26946 0.77051 0.0
O766 O 0.62832 0.24775 0.7391 0.0
O767 O 0.63182 0.37791 0.72958 0.0
O768 O 0.64343 0.38866 0.76197 0.0
C769 C 0.62722 0.39838 0.74585 0.0
O770 O 0.64859 0.24461 0.72036 0.0
O771 O 0.69896 0.26558 0.69377 0.0
C772 C 0.78273 0.38577 0.75131 0.0
C773 C 0.67253 0.23211 0.70716 0.0
Zn774 Zn 0.66239 0.341 0.26723 0.0
Zn775 Zn 0.6943 0.37245 0.19873 0.0
Zn776 Zn 0.67473 0.35395 0.23072 0.0
C777 C 0.67719 0.44988 0.2084 0.0
C778 C 0.60311 0.27602 0.19887 0.0
O779 O 0.639 0.2658 0.23493 0.0
O780 O 0.6418 0.26465 0.26771 0.0
C781 C 0.77021 0.41397 0.26266 0.0
O782 O 0.64711 0.41082 0.22019 0.0
O783 O 0.71402 0.44815 0.19911 0.0
O784 O 0.62223 0.31941 0.1892 0.0
O785 O 0.62512 0.27579 0.21562 0.0
O786 O 0.73536 0.3943 0.27612 0.0
O787 O 0.75608 0.40013 0.24446 0.0
O788 O 0.6209 0.38537 0.23844 0.0
O789 O 0.60634 0.35995 0.26988 0.0
C790 C 0.59656 0.38034 0.25491 0.0
O791 O 0.76264 0.38609 0.22574 0.0
O792 O 0.75225 0.35743 0.19494 0.0
C793 C 0.6335 0.24044 0.25141 0.0
C794 C 0.7814 0.37561 0.21022 0.0
Zn795 Zn 0.65312 0.3589 0.06966 0.0
Zn796 Zn 0.66362 0.32946 1.00368 0.0
Zn797 Zn 0.67291 0.3455 1.03865 0.0
C798 C 0.70003 0.26324 1.01995 0.0
C799 C 0.74781 0.43563 1.00756 0.0
O800 O 0.71287 0.4329 1.04655 0.0
O801 O 0.63318 0.41015 0.05685 0.0
C802 C 0.56474 0.27208 0.06544 0.0
O803 O 0.7068 0.29127 1.03562 0.0
O804 O 0.67744 0.26944 1.00478 0.0
O805 O 0.72523 0.3983 0.99504 0.0
O806 O 0.73071 0.42669 1.02555 0.0
O807 O 0.59356 0.29403 0.08052 0.0
O808 O 0.58411 0.29018 1.04794 0.0
O809 O 0.71894 0.31678 0.05568 0.0
O810 O 0.72746 0.37585 0.07795 0.0
C811 C 0.74292 0.34499 0.07116 0.0
O812 O 0.58704 0.31594 1.02954 0.0
O813 O 0.59097 0.31588 0.99686 0.0
C814 C 0.68082 0.44701 0.05397 0.0
C815 C 0.56483 0.3114 1.01231 0.0
Zn816 Zn 0.38611 0.66172 0.89972 0.0
Zn817 Zn 0.33244 0.67304 0.8382 0.0
Zn818 Zn 0.34871 0.66616 0.87153 0.0
C819 C 0.4278 0.66964 0.84008 0.0
C820 C 0.24208 0.57972 0.85231 0.0
O821 O 0.32526 0.71205 0.89055 0.0
O822 O 0.31706 0.65502 0.9139 0.0
C823 C 0.43491 0.76666 0.89297 0.0
O824 O 0.42123 0.67471 0.85847 0.0
O825 O 0.39195 0.66423 0.82771 0.0
O826 O 0.25731 0.61161 0.8377 0.0
O827 O 0.27306 0.59055 0.86754 0.0
O828 O 0.45194 0.73457 0.89649 0.0
O829 O 0.38621 0.74724 0.8865 0.0
O830 O 0.30587 0.58428 0.88537 0.0
O831 O 0.38627 0.59598 0.89037 0.0
C832 C 0.33603 0.56466 0.89034 0.0
O833 O 0.33933 0.73858 0.87088 0.0
O834 O 0.34239 0.74582 0.83814 0.0
C835 C 0.30226 0.68655 0.90667 0.0
C836 C 0.3407 0.76419 0.85484 0.0
Zn837 Zn 0.34595 0.67952 0.1037 0.0
Zn838 Zn 0.30292 0.65105 1.03539 0.0
Zn839 Zn 0.33632 0.67393 0.06676 0.0
C840 C 0.2455 0.68871 1.04659 0.0
C841 C 0.40888 0.73794 1.03393 0.0
O842 O 0.42432 0.70953 0.07072 0.0
O843 O 0.4245 0.70841 0.10346 0.0
C844 C 0.27655 0.57306 0.09704 0.0
O845 O 0.29002 0.71389 0.05649 0.0
O846 O 0.23107 0.64214 1.04058 0.0
O847 O 0.36352 0.72048 1.02548 0.0
O848 O 0.41145 0.71729 1.05062 0.0
O849 O 0.29886 0.60434 0.11147 0.0
O850 O 0.28752 0.59146 0.07914 0.0
O851 O 0.31013 0.73017 0.07707 0.0
O852 O 0.32023 0.72954 0.10954 0.0
C853 C 0.3078 0.74717 0.0944 0.0
O854 O 0.29912 0.5848 0.0598 0.0
O855 O 0.30174 0.58666 1.0271 0.0
C856 C 0.44982 0.7182 0.08736 0.0
C857 C 0.29431 0.56107 1.04308 0.0
Zn858 Zn 0.33634 0.67276 0.59193 0.0
Zn859 Zn 0.35624 0.70242 0.51848 0.0
Zn860 Zn 0.34369 0.68312 0.55494 0.0
C861 C 0.30968 0.75982 0.53059 0.0
C862 C 0.28391 0.59155 0.52265 0.0
O863 O 0.31227 0.59605 0.56115 0.0
O864 O 0.3103 0.59577 0.59391 0.0
C865 C 0.44386 0.7414 0.58582 0.0
O866 O 0.30734 0.73467 0.54687 0.0
O867 O 0.33175 0.75404 0.51554 0.0
O868 O 0.30444 0.62914 0.51007 0.0
O869 O 0.29734 0.60181 0.5411 0.0
O870 O 0.41112 0.72029 0.59986 0.0
O871 O 0.42672 0.7307 0.56773 0.0
O872 O 0.28805 0.71108 0.56584 0.0
O873 O 0.28617 0.69684 0.59819 0.0
C874 C 0.26994 0.71145 0.58326 0.0
O875 O 0.43146 0.72186 0.54761 0.0
O876 O 0.43313 0.72858 0.51495 0.0
C877 C 0.30475 0.57123 0.5779 0.0
C878 C 0.45758 0.73361 0.53115 0.0
Zn879 Zn 0.34327 0.67488 0.34442 0.0
Zn880 Zn 0.32869 0.66741 0.41226 0.0
Zn881 Zn 0.34193 0.67767 0.3802 0.0
C882 C 0.42439 0.6769 0.40971 0.0
C883 C 0.24239 0.58294 0.403 0.0
O884 O 0.25738 0.63576 0.36895 0.0
O885 O 0.26745 0.63867 0.33651 0.0
C886 C 0.39794 0.78374 0.35367 0.0
O887 O 0.40122 0.65621 0.39299 0.0
O888 O 0.40274 0.69509 0.42098 0.0
O889 O 0.27659 0.59133 0.41645 0.0
O890 O 0.25581 0.61575 0.38815 0.0
O891 O 0.38393 0.75199 0.3392 0.0
O892 O 0.38459 0.7647 0.3714 0.0
O893 O 0.38842 0.63614 0.37333 0.0
O894 O 0.38131 0.63595 0.34071 0.0
C895 C 0.39691 0.62251 0.35615 0.0
O896 O 0.36223 0.75872 0.3913 0.0
O897 O 0.30082 0.71664 0.41395 0.0
C898 C 0.23711 0.62739 0.35125 0.0
C899 C 0.33131 0.75964 0.40481 0.0
C900 C 0.16062 0.25299 0.2687 0.0
C901 C 0.20962 0.25838 0.26257 0.0
H902 H 0.07455 0.20684 0.26621 0.0
C903 C 0.2101 0.23156 0.2453 0.0
H904 H 0.15895 0.27251 0.28211 0.0
C905 C 0.16174 0.1946 0.23592 0.0
C906 C 0.11221 0.18288 0.24405 0.0
H907 H 0.24738 0.23473 0.24037 0.0
H908 H 0.1631 0.17017 0.22408 0.0
C909 C 0.1122 0.21515 0.25961 0.0
C910 C 0.76339 0.93193 0.26216 0.0
C911 C 0.75644 0.97518 0.25658 0.0
H912 H 0.81264 0.89599 0.25917 0.0
C913 C 0.7816 0.00413 0.23925 0.0
H914 H 0.74516 0.90948 0.2756 0.0
C915 C 0.8193 -0.00462 0.22949 0.0
C916 C 0.83347 0.95875 0.23732 0.0
H917 H 0.77719 0.03797 0.23473 0.0
H918 H 0.84343 0.02329 0.21793 0.0
C919 C 0.80196 0.92398 0.25264 0.0
C920 C 0.02983 0.85278 0.28248 0.0
C921 C 0.04582 0.82332 0.271 0.0
H922 H 0.01865 0.91971 0.28448 0.0
C923 C 0.06289 0.83984 0.25141 0.0
H924 H 0.01528 0.83997 0.29743 0.0
C925 C 0.06348 0.88562 0.24345 0.0
C926 C 0.04709 0.91508 0.2551 0.0
H927 H 0.07378 0.81636 0.24212 0.0
H928 H 0.07487 0.89674 0.22815 0.0
C929 C 0.03177 0.89863 0.27488 0.0
C930 C 0.16851 0.21828 0.33399 0.0
C931 C 0.22098 0.23257 0.3397 0.0
H932 H 0.08483 0.1653 0.33801 0.0
C933 C 0.22933 0.20661 0.35597 0.0
H934 H 0.16126 0.23917 0.32194 0.0
C935 C 0.18503 0.16364 0.36542 0.0
C936 C 0.1324 0.14715 0.35871 0.0
H937 H 0.2698 0.21895 0.36112 0.0
H938 H 0.19199 0.14229 0.37733 0.0
C939 C 0.12481 0.17608 0.34331 0.0
C940 C 0.79652 0.96615 0.33146 0.0
C941 C 0.78324 0.00534 0.33593 0.0
H942 H 0.84558 0.9322 0.33779 0.0
C943 C 0.80848 0.03937 0.35226 0.0
H944 H 0.77639 0.93827 0.31938 0.0
C945 C 0.84939 0.03638 0.36305 0.0
C946 C 0.86415 -0.00172 0.35789 0.0
H947 H 0.79692 0.06831 0.35653 0.0
H948 H 0.86991 0.06425 0.37507 0.0
C949 C 0.83618 0.96263 0.34221 0.0
C950 C 0.98335 0.79552 0.35018 0.0
C951 C 0.03624 0.80514 0.34805 0.0
H952 H 0.93404 0.82584 0.36132 0.0
C953 C 0.07749 0.84449 0.35996 0.0
H954 H 0.9506 0.76531 0.34129 0.0
C955 C 0.06766 0.87835 0.3716 0.0
C956 C 0.0165 0.87341 0.37156 0.0
H957 H 0.11847 0.85233 0.35895 0.0
H958 H 0.1015 0.91234 0.37876 0.0
C959 C 0.97358 0.82967 0.36186 0.0
C960 C 0.83694 0.77248 0.84499 0.0
C961 C 0.82759 0.77634 0.82466 0.0
H962 H 0.88557 0.81315 0.87066 0.0
C963 C 0.8633 0.82254 0.81419 0.0
H964 H 0.80867 0.73766 0.85346 0.0
C965 C 0.90766 0.86427 0.82366 0.0
C966 C 0.91581 0.86271 0.84427 0.0
H967 H 0.85611 0.82691 0.79863 0.0
H968 H 0.93353 0.89946 0.81486 0.0
C969 C 0.88082 0.81559 0.8548 0.0
C970 C 0.2447 0.09605 0.84494 0.0
C971 C 0.24586 0.04905 0.8496 0.0
H972 H 0.20226 0.13885 0.84864 0.0
C973 C 0.21698 0.01835 0.86612 0.0
H974 H 0.26624 0.12011 0.83218 0.0
C975 C 0.18119 0.02977 0.87587 0.0
C976 C 0.17264 0.07089 0.86873 0.0
H977 H 0.21724 0.98182 0.86995 0.0
H978 H 0.15448 0.00135 0.88682 0.0
C979 C 0.20803 0.1068 0.85441 0.0
C980 C 0.91476 0.14905 0.83985 0.0
C981 C 0.9591 0.19923 0.84477 0.0
H982 H 0.87631 0.0642 0.84484 0.0
C983 C 0.98658 0.20462 0.86276 0.0
H984 H 0.89323 0.14381 0.82597 0.0
C985 C 0.97555 0.15907 0.87397 0.0
C986 C 0.93878 0.10772 0.86674 0.0
H987 H 0.02101 0.24301 0.86684 0.0
H988 H 0.00263 0.1636 0.88611 0.0
C989 C 0.90466 0.10337 0.85082 0.0
C990 C 0.85421 0.76791 0.73642 0.0
C991 C 0.81266 0.7697 0.74656 0.0
H992 H 0.92591 0.81201 0.71943 0.0
C993 C 0.8035 0.81266 0.74274 0.0
H994 H 0.86173 0.73492 0.7387 0.0
C995 C 0.84 0.85655 0.73127 0.0
C996 C 0.88572 0.85765 0.7236 0.0
H997 H 0.77158 0.81502 0.7502 0.0
H998 H 0.83606 0.89206 0.73051 0.0
C999 C 0.89058 0.81168 0.72511 0.0
C1000 C 0.21304 0.98906 0.75102 0.0
C1001 C 0.23596 0.02603 0.76667 0.0
H1002 H 0.15353 0.95887 0.72751 0.0
C1003 C 0.22389 0.0671 0.76842 0.0
H1004 H 0.22411 0.95863 0.74888 0.0
C1005 C 0.18525 0.06807 0.75616 0.0
C1006 C 0.15795 0.02818 0.74172 0.0
H1007 H 0.24257 0.09717 0.77993 0.0
H1008 H 0.17465 0.09861 0.7588 0.0
C1009 C 0.17375 -0.0101 0.73858 0.0
C1010 C 0.03156 0.22229 0.74704 0.0
C1011 C -0.00722 0.20825 0.76194 0.0
H1012 H 0.06395 0.19332 0.72477 0.0
C1013 C 0.95139 0.15487 0.7636 0.0
H1014 H 0.06224 0.2639 0.74481 0.0
C1015 C 0.95131 0.11528 0.75196 0.0
C1016 C -0.00725 0.12789 0.73827 0.0
H1017 H 0.91986 0.14335 0.77444 0.0
H1018 H 0.9196 0.07417 0.75439 0.0
C1019 C 0.03194 0.18217 0.73535 0.0
C1020 C 0.83759 0.57691 0.60291 0.0
C1021 C 0.88534 0.57851 0.5974 0.0
H1022 H 0.75172 0.53616 0.5994 0.0
C1023 C 0.88506 0.55062 0.58036 0.0
H1024 H 0.8366 0.59758 0.61609 0.0
C1025 C 0.83662 0.51646 0.57046 0.0
C1026 C 0.7877 0.50852 0.5779 0.0
H1027 H 0.92145 0.55118 0.57587 0.0
H1028 H 0.83687 0.49112 0.55874 0.0
C1029 C 0.78896 0.54172 0.59333 0.0
C1030 C 0.43416 0.26706 0.5923 0.0
C1031 C 0.42995 0.31201 0.58689 0.0
H1032 H 0.48058 0.22815 0.58931 0.0
C1033 C 0.4556 0.34049 0.56956 0.0
H1034 H 0.41516 0.24473 0.60568 0.0
C1035 C 0.49203 0.32993 0.55982 0.0
C1036 C 0.50434 0.2921 0.56776 0.0
H1037 H 0.45295 0.37538 0.56511 0.0
H1038 H 0.5171 0.3576 0.54837 0.0
C1039 C 0.47146 0.25729 0.5828 0.0
C1040 C 0.67716 0.16818 0.61335 0.0
C1041 C 0.7011 0.14347 0.60341 0.0
H1042 H 0.66059 0.23176 0.61407 0.0
C1043 C 0.7261 0.16428 0.58506 0.0
H1044 H 0.65651 0.15192 0.62725 0.0
C1045 C 0.72783 0.21049 0.577 0.0
C1046 C 0.70475 0.23603 0.58735 0.0
H1047 H 0.74332 0.14441 0.57689 0.0
H1048 H 0.74661 0.22579 0.56277 0.0
C1049 C 0.67976 0.21419 0.60567 0.0
C1050 C 0.84661 0.53676 0.66713 0.0
C1051 C 0.89883 0.55289 0.67383 0.0
H1052 H 0.763 0.4806 0.66941 0.0
C1053 C 0.90604 0.5265 0.69027 0.0
H1054 H 0.8399 0.5577 0.65496 0.0
C1055 C 0.86129 0.48164 0.69885 0.0
C1056 C 0.80923 0.46336 0.69106 0.0
H1057 H 0.94606 0.53995 0.69619 0.0
H1058 H 0.8676 0.46024 0.71091 0.0
C1059 C 0.80256 0.49259 0.67552 0.0
C1060 C 0.48919 0.37497 0.6822 0.0
C1061 C 0.46347 0.34358 0.66533 0.0
H1062 H 0.54926 0.39431 0.70519 0.0
C1063 C 0.47605 0.30471 0.65956 0.0
H1064 H 0.47841 0.40378 0.6874 0.0
C1065 C 0.51486 0.29843 0.66978 0.0
C1066 C 0.54234 0.33055 0.68632 0.0
H1067 H 0.45566 0.27892 0.64698 0.0
H1068 H 0.52345 0.26817 0.66445 0.0
C1069 C 0.52898 0.36896 0.69254 0.0
C1070 C 0.63567 0.10539 0.68232 0.0
C1071 C 0.68688 0.11004 0.68219 0.0
H1072 H 0.58957 0.141 0.69175 0.0
C1073 C 0.72562 0.14372 0.69621 0.0
H1074 H 0.60492 0.07981 0.67172 0.0
C1075 C 0.71631 0.17796 0.70792 0.0
C1076 C 0.6683 0.17928 0.70573 0.0
H1077 H 0.76524 0.14775 0.69666 0.0
H1078 H 0.74945 0.20842 0.71661 0.0
C1079 C 0.62653 0.14002 0.694 0.0
C1080 C 0.49235 0.13191 0.18833 0.0
C1081 C 0.46967 0.13994 0.17093 0.0
H1082 H 0.55358 0.16907 0.21106 0.0
C1083 C 0.48852 0.19207 0.16387 0.0
H1084 H 0.47663 0.09189 0.19444 0.0
C1085 C 0.53131 0.23543 0.17323 0.0
C1086 C 0.55606 0.22809 0.19021 0.0
H1087 H 0.47043 0.19925 0.15084 0.0
H1088 H 0.54503 0.27498 0.16696 0.0
C1089 C 0.53571 0.1759 0.19792 0.0
C1090 C 0.86663 0.32002 0.20069 0.0
C1091 C 0.89857 0.35625 0.18583 0.0
H1092 H 0.80518 0.30069 0.22209 0.0
C1093 C 0.90516 0.408 0.18537 0.0
H1094 H 0.86158 0.28012 0.20153 0.0
C1095 C 0.87283 0.41971 0.19724 0.0
C1096 C 0.83423 0.37994 0.20966 0.0
H1097 H 0.92974 0.43677 0.17412 0.0
H1098 H 0.8723 0.45661 0.19448 0.0
C1099 C 0.83506 0.33215 0.21274 0.0
C1100 C 0.72119 0.58618 0.19122 0.0
C1101 C 0.68555 0.57478 0.17514 0.0
H1102 H 0.74358 0.5544 0.21598 0.0
C1103 C 0.63721 0.52512 0.17467 0.0
H1104 H 0.7585 0.62437 0.19203 0.0
C1105 C 0.62856 0.48487 0.18855 0.0
C1106 C 0.66796 0.49423 0.20304 0.0
H1107 H 0.60915 0.51534 0.16238 0.0
H1108 H 0.59483 0.44465 0.18629 0.0
C1109 C 0.71216 0.54641 0.20517 0.0
C1110 C 0.47073 0.12797 0.07599 0.0
C1111 C 0.44093 0.13229 0.09159 0.0
H1112 H 0.53247 0.1699 0.05435 0.0
C1113 C 0.44164 0.18103 0.09397 0.0
H1114 H 0.47124 0.09095 0.0739 0.0
C1115 C 0.47723 0.22639 0.08286 0.0
C1116 C 0.51182 0.22353 0.06893 0.0
H1117 H 0.41989 0.18592 0.10601 0.0
H1118 H 0.48203 0.26502 0.08674 0.0
C1119 C 0.50555 0.17312 0.06463 0.0
C1120 C 0.85034 0.30973 0.08661 0.0
C1121 C 0.87102 0.34084 0.1039 0.0
H1122 H 0.79251 0.2856 0.06258 0.0
C1123 C 0.85125 0.37425 0.10954 0.0
H1124 H 0.86666 0.28525 0.08156 0.0
C1125 C 0.80995 0.37497 0.0988 0.0
C1126 C 0.78758 0.34291 0.08179 0.0
H1127 H 0.86759 0.39972 0.12248 0.0
H1128 H 0.79559 0.40101 0.10399 0.0
C1129 C 0.80845 0.31038 0.07568 0.0
C1130 C 0.6845 0.52188 0.09926 0.0
C1131 C 0.70824 0.5749 0.09255 0.0
H1132 H 0.66187 0.44114 0.09268 0.0
C1133 C 0.73026 0.58775 0.07336 0.0
H1134 H 0.66636 0.51092 0.11381 0.0
C1135 C 0.72619 0.54701 0.06077 0.0
C1136 C 0.70015 0.49347 0.06741 0.0
H1137 H 0.74749 0.62843 0.06775 0.0
H1138 H 0.73993 0.5567 1.04561 0.0
C1139 C 0.6819 0.48205 0.08709 0.0
C1140 C 0.56107 0.88705 0.90877 0.0
C1141 C 0.54474 0.89738 0.92691 0.0
H1142 H 0.53712 0.83752 0.88294 0.0
C1143 C 0.4894 0.87518 0.93047 0.0
H1144 H 0.60349 0.90291 0.90588 0.0
C1145 C 0.45112 0.83766 0.91722 0.0
C1146 C 0.46811 0.82184 0.90045 0.0
H1147 H 0.47593 0.88154 0.94459 0.0
H1148 H 0.40911 0.81596 0.92147 0.0
C1149 C 0.52302 0.84961 0.89563 0.0
C1150 C 0.18417 0.66296 0.93894 0.0
C1151 C 0.18177 0.71001 0.93558 0.0
H1152 H 0.22497 0.61935 0.93285 0.0
C1153 C 0.21895 0.7489 0.92241 0.0
H1154 H 0.15679 0.63269 0.94924 0.0
C1155 C 0.25762 0.7411 0.91289 0.0
C1156 C 0.26108 0.69483 0.91669 0.0
H1157 H 0.21847 0.78578 0.9196 0.0
H1158 H 0.2856 0.7719 0.90288 0.0
C1159 C 0.22373 0.65572 0.92976 0.0
C1160 C 0.27327 0.46376 0.93158 0.0
C1161 C 0.30763 0.4421 0.93207 0.0
H1162 H 0.25438 0.5196 0.91736 0.0
C1163 C 0.34267 0.45258 0.91623 0.0
H1164 H 0.24469 0.45483 0.94337 0.0
C1165 C 0.34737 0.48841 0.90121 0.0
C1166 C 0.31653 0.51397 0.90156 0.0
H1167 H 0.36769 0.43429 0.91578 0.0
H1168 H 0.37776 0.49886 0.88998 0.0
C1169 C 0.27793 0.49981 0.91648 0.0
C1170 C 0.55258 0.84797 1.02272 0.0
C1171 C 0.54384 0.87029 1.00543 0.0
H1172 H 0.5164 0.78743 1.04545 0.0
C1173 C 0.49141 0.85038 0.99819 0.0
H1174 H 0.59284 0.86424 1.02887 0.0
C1175 C 0.44835 0.80714 1.00745 0.0
C1176 C 0.45643 0.78338 1.02452 0.0
H1177 H 0.48379 0.86801 0.98516 0.0
H1178 H 0.40849 0.79265 1.00117 0.0
C1179 C 0.50899 0.80447 1.03223 0.0
C1180 C 0.19393 0.72193 1.00183 0.0
C1181 C 0.15264 0.72883 1.00932 0.0
H1182 H 0.26007 0.71014 1.00827 0.0
C1183 C 0.14918 0.73342 1.02994 0.0
H1184 H 0.19579 0.71555 0.98612 0.0
C1185 C 0.18448 0.72718 1.04289 0.0
C1186 C 0.22388 0.71741 1.03517 0.0
H1187 H 0.11595 0.73621 1.03604 0.0
H1188 H 0.17769 0.72482 0.05872 0.0
C1189 C 0.23057 0.71864 1.01456 0.0
C1190 C 0.2545 0.43374 1.0181 0.0
C1191 C 0.30446 0.43598 1.01887 0.0
H1192 H 0.21095 0.47286 1.0264 0.0
C1193 C 0.34248 0.46801 1.03339 0.0
H1194 H 0.22467 0.40965 1.00697 0.0
C1195 C 0.33391 0.50308 1.04492 0.0
C1196 C 0.2879 0.50736 1.04166 0.0
H1197 H 0.3813 0.47025 1.03428 0.0
H1198 H 0.36674 0.53225 0.05409 0.0
C1199 C 0.24647 0.46968 1.02935 0.0
C1200 C 0.17062 0.4913 0.49022 0.0
C1201 C 0.14712 0.44469 0.50181 0.0
H1202 H 0.23284 0.57227 0.48722 0.0
C1203 C 0.16971 0.44508 0.52051 0.0
H1204 H 0.15291 0.49243 0.47605 0.0
C1205 C 0.21565 0.49207 0.52741 0.0
C1206 C 0.23929 0.53887 0.51561 0.0
H1207 H 0.15084 0.40987 0.52997 0.0
H1208 H 0.23174 0.49214 0.54203 0.0
C1209 C 0.21657 0.5372 0.49677 0.0
C1210 C 0.5837 0.7599 0.50686 0.0
C1211 C 0.58491 0.71394 0.51323 0.0
H1212 H 0.54127 0.80335 0.50815 0.0
C1213 C 0.55515 0.68591 0.53001 0.0
H1214 H 0.60583 0.78189 0.49384 0.0
C1215 C 0.51931 0.69927 0.53861 0.0
C1216 C 0.51157 0.73957 0.53004 0.0
H1217 H 0.55535 0.65022 0.53516 0.0
H1218 H 0.49238 0.67311 0.55001 0.0
C1219 C 0.54676 0.77228 0.51508 0.0
C1220 C 0.26994 0.84637 0.50383 0.0
C1221 C 0.31461 0.89635 0.5088 0.0
H1222 H 0.23158 0.76108 0.50793 0.0
C1223 C 0.3447 0.90009 0.52595 0.0
H1224 H 0.24659 0.8422 0.49053 0.0
C1225 C 0.33499 0.85366 0.53631 0.0
C1226 C 0.2962 0.80283 0.52926 0.0
H1227 H 0.37961 0.93815 0.53 0.0
H1228 H 0.36327 0.85716 0.54782 0.0
C1229 C 0.26109 0.79981 0.51391 0.0
C1230 C 0.14376 0.44051 0.41195 0.0
C1231 C 0.11457 0.44567 0.42754 0.0
H1232 H 0.20692 0.48164 0.39086 0.0
C1233 C 0.11705 0.49517 0.43022 0.0
H1234 H 0.14252 0.40273 0.40956 0.0
C1235 C 0.15399 0.54042 0.41939 0.0
C1236 C 0.18815 0.5364 0.40562 0.0
H1237 H 0.09551 0.50044 0.44225 0.0
H1238 H 0.16039 0.57952 0.42349 0.0
C1239 C 0.18024 0.48555 0.40106 0.0
C1240 C 0.53622 0.64498 0.41999 0.0
C1241 C 0.56165 0.67891 0.43631 0.0
H1242 H 0.47159 0.61718 0.3984 0.0
C1243 C 0.54601 0.71568 0.44182 0.0
H1244 H 0.54951 0.61793 0.41499 0.0
C1245 C 0.50314 0.71609 0.43231 0.0
C1246 C 0.47471 0.67987 0.41688 0.0
H1247 H 0.56635 0.74353 0.45389 0.0
H1248 H 0.49144 0.74426 0.43749 0.0
C1249 C 0.49251 0.64523 0.41033 0.0
C1250 C 0.37191 0.9061 0.4141 0.0
C1251 C 0.33859 0.89929 0.43031 0.0
H1252 H 0.39677 0.86677 0.3931 0.0
C1253 C 0.30008 0.84749 0.4362 0.0
H1254 H 0.40028 0.94603 0.40876 0.0
C1255 C 0.2969 0.8031 0.4271 0.0
C1256 C 0.33236 0.80891 0.41176 0.0
H1257 H 0.27275 0.84121 0.44821 0.0
H1258 H 0.26709 0.76391 0.43262 0.0
C1259 C 0.36929 0.86095 0.40498 0.0
C1260 C 0.16424 0.9483 0.16021 0.0
C1261 C 0.21323 0.97657 0.17048 0.0
H1262 H 0.08037 0.9224 0.15964 0.0
C1263 C 0.21313 -0.00768 0.19019 0.0
H1264 H 0.16316 0.93508 0.14514 0.0
C1265 C 0.16551 0.98605 0.19849 0.0
C1266 C 0.11763 0.96313 0.1872 0.0
H1267 H 0.25063 0.01404 0.19844 0.0
H1268 H 0.16755 0.00413 0.21273 0.0
C1269 C 0.11678 0.94062 0.16865 0.0
C1270 C 0.05411 0.24021 0.16018 0.0
C1271 C 0.00538 0.23544 0.16631 0.0
H1272 H 0.1071 0.20812 0.16271 0.0
C1273 C 0.97921 0.20384 0.18296 0.0
H1274 H 0.07523 0.26498 0.1475 0.0
C1275 C -0.00102 0.17366 0.19231 0.0
C1276 C 0.0439 0.1731 0.1846 0.0
H1277 H 0.94212 0.20058 0.18816 0.0
H1278 H 0.97542 0.14605 0.20403 0.0
C1279 C 0.07285 0.20854 0.16909 0.0
C1280 C 0.79729 0.85025 0.15098 0.0
C1281 C 0.79468 0.8031 0.15811 0.0
H1282 H 0.83544 0.93581 0.15404 0.0
C1283 C 0.81893 0.80394 0.17643 0.0
H1284 H 0.77866 0.85033 0.13691 0.0
C1285 C 0.84928 0.85223 0.18667 0.0
C1286 C 0.85738 0.9006 0.17835 0.0
H1287 H 0.81682 0.76772 0.18227 0.0
H1288 H 0.87135 0.85248 0.19988 0.0
C1289 C 0.82912 0.8989 0.1609 0.0
C1290 C 0.00263 0.21395 0.42134 0.0
C1291 C 0.97998 0.21399 0.43969 0.0
H1292 H 0.00687 0.16619 0.3981 0.0
C1293 C 0.9343 0.16689 0.44615 0.0
H1294 H 0.03738 0.2502 0.41589 0.0
C1295 C 0.91699 0.11862 0.43599 0.0
C1296 C 0.94495 0.11721 0.4192 0.0
H1297 H 0.91587 0.16612 0.46016 0.0
H1298 H 0.88679 0.08147 0.44279 0.0
C1299 C 0.98433 0.16601 0.4109 0.0
C1300 C 0.82279 0.77899 0.42299 0.0
C1301 C 0.8188 0.76673 0.44335 0.0
H1302 H 0.87054 0.83529 0.40033 0.0
C1303 C 0.86479 0.79279 0.45544 0.0
H1304 H 0.7876 0.75919 0.41342 0.0
C1305 C 0.91225 0.83517 0.44792 0.0
C1306 C 0.91393 0.85313 0.42833 0.0
H1307 H 0.86272 0.78344 0.47112 0.0
H1308 H 0.94563 0.85769 0.45807 0.0
C1309 C 0.87032 0.82233 0.41548 0.0
C1310 C 0.23661 0.09801 0.44743 0.0
C1311 C 0.25706 0.07289 0.43556 0.0
H1312 H 0.17672 0.12049 0.45056 0.0
C1313 C 0.23963 0.061 0.41572 0.0
H1314 H 0.24994 0.10806 0.46269 0.0
C1315 C 0.19667 0.06717 0.40879 0.0
C1316 C 0.1715 0.08584 0.42164 0.0
H1317 H 0.255 0.04156 0.4063 0.0
H1318 H 0.17943 0.05161 0.3943 0.0
C1319 C 0.19485 0.10532 0.4404 0.0
C1320 C 0.77542 0.97628 0.9241 0.0
C1321 C 0.77744 0.00215 0.94193 0.0
H1322 H 0.82044 0.96311 0.90197 0.0
C1323 C 0.82733 0.04293 0.94908 0.0
H1324 H 0.7372 0.94482 0.91828 0.0
C1325 C 0.87494 0.05287 0.93985 0.0
C1326 C 0.87307 0.02322 0.9231 0.0
H1327 H 0.82983 0.06322 0.96283 0.0
H1328 H 0.91322 0.07991 0.94692 0.0
C1329 C 0.82294 0.98733 0.91458 0.0
C1330 C 0.95476 0.75909 0.93154 0.0
C1331 C 0.00875 0.77336 0.92878 0.0
H1332 H 0.89479 0.78142 0.92621 0.0
C1333 C 0.03835 0.81057 0.9138 0.0
H1334 H 0.93098 0.7304 0.94294 0.0
C1335 C 0.01666 0.83802 0.90355 0.0
C1336 C 0.96605 0.83032 0.9088 0.0
H1337 H 0.0799 0.82178 0.91122 0.0
H1338 H 0.04277 0.87092 0.89384 0.0
C1339 C 0.93369 0.78776 0.92173 0.0
C1340 C 0.21433 0.18964 0.9265 0.0
C1341 C 0.22139 0.19636 0.94715 0.0
H1342 H 0.16717 0.1377 0.90276 0.0
C1343 C 0.19278 0.15182 0.95958 0.0
H1344 H 0.2362 0.22348 0.91658 0.0
C1345 C 0.15449 0.10245 0.95167 0.0
C1346 C 0.1429 0.09694 0.93118 0.0
H1347 H 0.19819 0.15574 0.97553 0.0
H1348 H 0.13113 0.0697 0.96186 0.0
C1349 C 0.175 0.14033 0.91856 0.0
C1350 C 0.10152 0.85788 0.65573 0.0
C1351 C 0.07249 0.81314 0.66802 0.0
H1352 H 0.13086 0.94152 0.65124 0.0
C1353 C 0.06024 0.82076 0.6874 0.0
H1354 H 0.11174 0.85289 0.64079 0.0
C1355 C 0.0705 0.87171 0.69337 0.0
C1356 C 0.09334 0.91519 0.67999 0.0
H1357 H 0.03768 0.78656 0.6971 0.0
H1358 H 0.05473 0.8754 0.70741 0.0
C1359 C 0.11276 0.90865 0.6618 0.0
C1360 C 0.21074 0.25286 0.68301 0.0
C1361 C 0.21088 0.26901 0.66324 0.0
H1362 H 0.16666 0.19237 0.70503 0.0
C1363 C 0.16222 0.24697 0.65262 0.0
H1364 H 0.24804 0.26942 0.69145 0.0
C1365 C 0.11558 0.20439 0.66061 0.0
C1366 C 0.11747 0.18204 0.67903 0.0
H1367 H 0.16136 0.25915 0.63742 0.0
H1368 H 0.08002 0.18422 0.65121 0.0
C1369 C 0.16404 0.20916 0.69089 0.0
C1370 C 0.81157 0.95956 0.64239 0.0
C1371 C 0.79285 0.98411 0.65534 0.0
H1372 H 0.86775 0.93241 0.63826 0.0
C1373 C 0.80748 0.98941 0.67545 0.0
H1374 H 0.80068 0.95543 0.62679 0.0
C1375 C 0.84515 0.97546 0.68214 0.0
C1376 C 0.86948 0.95762 0.66858 0.0
H1377 H 0.79336 0.00855 0.68558 0.0
H1378 H 0.85988 0.98495 0.69728 0.0
C1379 C 0.84965 0.94621 0.64899 0.0
C1380 C 0.88139 0.31542 0.52451 0.0
C1381 C 0.88173 0.29909 0.50492 0.0
H1382 H 0.83626 0.32983 0.54647 0.0
C1383 C 0.83326 0.27278 0.49423 0.0
H1384 H 0.91855 0.33578 0.53304 0.0
C1385 C 0.78624 0.26753 0.50215 0.0
C1386 C 0.78712 0.29035 0.52061 0.0
H1387 H 0.83245 0.2593 0.47922 0.0
H1388 H 0.75041 0.25082 0.49283 0.0
C1389 C 0.83423 0.31143 0.53231 0.0
C1390 C 0.66348 0.54499 0.51912 0.0
C1391 C 0.69063 0.57699 0.50266 0.0
H1392 H 0.65508 0.48297 0.53904 0.0
C1393 C 0.7372 0.57805 0.4959 0.0
H1394 H 0.62781 0.54411 0.5247 0.0
C1395 C 0.75225 0.54243 0.50386 0.0
C1396 C 0.72186 0.50661 0.51906 0.0
H1397 H 0.75886 0.60263 0.48325 0.0
H1398 H 0.78443 0.53937 0.49693 0.0
C1399 C 0.67969 0.51076 0.52754 0.0
C1400 C 0.47872 0.13596 0.51145 0.0
C1401 C 0.45355 0.1348 0.49333 0.0
H1402 H 0.5364 0.18498 0.53358 0.0
C1403 C 0.46138 0.183 0.48498 0.0
H1404 H 0.47286 0.09905 0.51815 0.0
C1405 C 0.49851 0.23215 0.49356 0.0
C1406 C 0.52683 0.2335 0.51092 0.0
H1407 H 0.44229 0.18285 0.47099 0.0
H1408 H 0.50806 0.26907 0.48586 0.0
C1409 C 0.5144 0.18502 0.5204 0.0
C1410 C 0.67519 0.54164 0.74529 0.0
C1411 C 0.65354 0.54549 0.76335 0.0
H1412 H 0.67897 0.48907 0.72398 0.0
C1413 C 0.60874 0.49977 0.7711 0.0
H1414 H 0.70955 0.57671 0.73897 0.0
C1415 C 0.59137 0.44948 0.76253 0.0
C1416 C 0.61865 0.44465 0.74617 0.0
H1417 H 0.59139 0.50191 0.78498 0.0
H1418 H 0.56194 0.41385 0.77036 0.0
C1419 C 0.65698 0.49153 0.73648 0.0
C1420 C 0.52568 0.12356 0.79204 0.0
C1421 C 0.47932 0.09452 0.78033 0.0
H1422 H 0.60663 0.18887 0.79346 0.0
C1423 C 0.48279 0.10327 0.75967 0.0
H1424 H 0.52431 0.11726 0.80794 0.0
C1425 C 0.53007 0.14523 0.75129 0.0
C1426 C 0.57438 0.17837 0.7635 0.0
H1427 H 0.44744 0.08139 0.75031 0.0
H1428 H 0.52989 0.15501 0.73574 0.0
C1429 C 0.57289 0.16452 0.78367 0.0
C1430 C 0.90251 0.41142 0.78172 0.0
C1431 C 0.92333 0.38565 0.77041 0.0
H1432 H 0.84336 0.43521 0.7838 0.0
C1433 C 0.90689 0.37332 0.75047 0.0
H1434 H 0.91488 0.42168 0.79706 0.0
C1435 C 0.86473 0.38001 0.74288 0.0
C1436 C 0.83926 0.39961 0.75516 0.0
H1437 H 0.9224 0.35325 0.74146 0.0
H1438 H 0.84846 0.36451 0.72828 0.0
C1439 C 0.86156 0.41919 0.77406 0.0
C1440 C 0.49754 0.40449 0.28006 0.0
C1441 C 0.45019 0.3583 0.27386 0.0
H1442 H 0.58369 0.44935 0.27808 0.0
C1443 C 0.45163 0.33004 0.25726 0.0
H1444 H 0.49729 0.427 0.2928 0.0
C1445 C 0.50065 0.34448 0.24825 0.0
C1446 C 0.5489 0.38615 0.25617 0.0
H1447 H 0.41538 0.29467 0.25207 0.0
H1448 H 0.50143 0.31872 0.2368 0.0
C1449 C 0.5468 0.41786 0.27144 0.0
C1450 C 0.69108 0.1512 0.25403 0.0
C1451 C 0.66072 0.11683 0.26961 0.0
H1452 H 0.70304 0.21568 0.23463 0.0
C1453 C 0.61227 0.11421 0.27487 0.0
H1454 H 0.72817 0.15335 0.24947 0.0
C1455 C 0.59821 0.15025 0.26648 0.0
C1456 C 0.63153 0.18836 0.25233 0.0
H1457 H 0.58791 0.08784 0.28672 0.0
H1458 H 0.56422 0.1519 0.27246 0.0
C1459 C 0.67608 0.18609 0.24523 0.0
C1460 C 0.90294 0.5442 0.25967 0.0
C1461 C 0.9133 0.55633 0.27993 0.0
H1462 H 0.84869 0.48836 0.23803 0.0
C1463 C 0.88245 0.51705 0.29404 0.0
H1464 H 0.92659 0.57392 0.24853 0.0
C1465 C 0.83893 0.46818 0.28812 0.0
C1466 C 0.82469 0.45792 0.26796 0.0
H1467 H 0.89044 0.52507 0.30975 0.0
H1468 H 0.81426 0.43992 0.29949 0.0
C1469 C 0.85856 0.4952 0.25368 0.0
C1470 C 0.73577 0.17504 0.99285 0.0
C1471 C 0.70689 0.12698 1.00345 0.0
H1472 H 0.75987 0.25817 0.99093 0.0
C1473 C 0.68867 0.1283 1.02262 0.0
H1474 H 0.7504 0.17503 0.97812 0.0
C1475 C 0.69327 0.17609 1.02991 0.0
C1476 C 0.717 0.22286 1.01819 0.0
H1477 H 0.66604 0.09146 1.03103 0.0
H1478 H 0.67312 0.17487 1.04353 0.0
C1479 C 0.74159 0.22268 1.00031 0.0
C1480 C 0.86383 0.53131 0.97494 0.0
C1481 C 0.89715 0.57281 0.98789 0.0
H1482 H 0.79073 0.45756 0.9707 0.0
C1483 C 0.87888 0.57192 1.00732 0.0
H1484 H 0.87631 0.53099 0.95987 0.0
C1485 C 0.82935 0.52864 1.01386 0.0
C1486 C 0.79686 0.48608 1.00095 0.0
H1487 H 0.90381 0.60352 1.01768 0.0
H1488 H 0.81738 0.52777 1.02909 0.0
C1489 C 0.81438 0.48909 0.98126 0.0
C1490 C 0.43807 0.29269 0.98804 0.0
C1491 C 0.43535 0.33578 0.9963 0.0
H1492 H 0.48217 0.25074 0.98686 0.0
C1493 C 0.46896 0.36345 1.01248 0.0
H1494 H 0.41267 0.27098 0.9755 0.0
C1495 C 0.50709 0.35041 1.01952 0.0
C1496 C 0.51342 0.31084 1.00999 0.0
H1497 H 0.46736 0.39677 1.01909 0.0
H1498 H 0.53493 0.37473 1.03113 0.0
C1499 C 0.4775 0.28091 0.99461 0.0
C1500 C 0.53302 0.68037 0.80438 0.0
C1501 C 0.56831 0.67286 0.81676 0.0
H1502 H 0.46157 0.68526 0.80205 0.0
C1503 C 0.55723 0.66394 0.83717 0.0
H1504 H 0.5404 0.68737 0.78862 0.0
C1505 C 0.51191 0.6634 0.84504 0.0
C1506 C 0.47669 0.671 0.83254 0.0
H1507 H 0.58405 0.65837 0.84708 0.0
H1508 H 0.50427 0.65672 0.8608 0.0
C1509 C 0.48773 0.67916 0.81214 0.0
C1510 C 0.37234 0.89896 0.8373 0.0
C1511 C 0.32069 0.89286 0.83778 0.0
H1512 H 0.4197 0.86181 0.84324 0.0
C1513 C 0.28017 0.85022 0.84883 0.0
H1514 H 0.40444 0.9316 0.82906 0.0
C1515 C 0.28946 0.81121 0.85742 0.0
C1516 C 0.33916 0.81413 0.85488 0.0
H1517 H 0.2402 0.84512 0.84979 0.0
H1518 H 0.25617 0.77601 0.86414 0.0
C1519 C 0.38132 0.85948 0.84564 0.0
C1520 C 0.11265 0.47555 0.82911 0.0
C1521 C 0.11759 0.42974 0.83139 0.0
H1522 H 0.14872 0.55991 0.83453 0.0
C1523 C 0.15751 0.43179 0.84436 0.0
H1524 H 0.08208 0.47507 0.81937 0.0
C1525 C 0.19478 0.48001 0.85347 0.0
C1526 C 0.19323 0.52705 0.84943 0.0
H1527 H 0.16161 0.3967 0.8467 0.0
H1528 H 0.22759 0.48145 0.86211 0.0
C1529 C 0.15052 0.52395 0.83791 0.0
C1530 C 0.29116 0.85033 0.12128 0.0
C1531 C 0.3318 0.89697 0.11223 0.0
H1532 H 0.25054 0.76428 0.12225 0.0
C1533 C 0.35407 0.89281 0.09439 0.0
H1534 H 0.27353 0.85277 0.13506 0.0
C1535 C 0.33931 0.84236 0.08661 0.0
C1536 C 0.30361 0.79558 0.09701 0.0
H1537 H 0.38528 0.9285 0.08713 0.0
H1538 H 0.36047 0.84017 0.07378 0.0
C1539 C 0.27768 0.79985 0.11386 0.0
C1540 C 0.14012 0.44855 0.09335 0.0
C1541 C 0.13125 0.43454 0.1135 0.0
H1542 H 0.19475 0.50438 0.072 0.0
C1543 C 0.17454 0.45791 0.12695 0.0
H1544 H 0.10712 0.43071 0.08274 0.0
C1545 C 0.22461 0.49902 0.12082 0.0
C1546 C 0.23186 0.51831 0.10123 0.0
H1547 H 0.16871 0.44692 0.14251 0.0
H1548 H 0.25615 0.51889 0.13189 0.0
C1549 C 0.19032 0.49056 0.08722 0.0
C1550 C 0.57216 0.70446 0.08131 0.0
C1551 C 0.59533 0.72112 0.10028 0.0
H1552 H 0.50652 0.6912 0.0619 0.0
C1553 C 0.57823 0.74877 0.11236 0.0
H1554 H 0.58489 0.68289 0.07179 0.0
C1555 C 0.53488 0.75483 0.10653 0.0
C1556 C 0.50669 0.73177 0.08878 0.0
H1557 H 0.59596 0.76235 0.12695 0.0
H1558 H 0.52001 0.77278 0.11689 0.0
C1559 C 0.52766 0.70955 0.07559 0.0
C1560 C 0.17249 0.73193 0.61175 0.0
C1561 C 0.12486 0.68508 0.60626 0.0
H1562 H 0.25808 0.77869 0.60793 0.0
C1563 C 0.1246 0.65709 0.58927 0.0
H1564 H 0.17358 0.75428 0.62475 0.0
C1565 C 0.17238 0.67265 0.57908 0.0
C1566 C 0.22133 0.71521 0.58617 0.0
H1567 H 0.08807 0.6212 0.58462 0.0
H1568 H 0.172 0.64722 0.56726 0.0
C1569 C 0.22063 0.74644 0.60193 0.0
C1570 C 0.28903 0.44981 0.60359 0.0
C1571 C 0.33952 0.45548 0.59952 0.0
H1572 H 0.23675 0.48219 0.59906 0.0
C1573 C 0.37017 0.48978 0.58398 0.0
H1574 H 0.26423 0.42322 0.61532 0.0
C1575 C 0.35306 0.52157 0.574 0.0
C1576 C 0.30591 0.52085 0.57983 0.0
H1577 H 0.40873 0.49408 0.58022 0.0
H1578 H 0.38 0.5513 0.56343 0.0
C1579 C 0.27272 0.48276 0.59401 0.0
C1580 C 0.55992 0.83453 0.61794 0.0
C1581 C 0.58642 0.87958 0.60558 0.0
H1582 H 0.49547 0.75389 0.6209 0.0
C1583 C 0.57318 0.87478 0.58528 0.0
H1584 H 0.57014 0.83708 0.63357 0.0
C1585 C 0.52948 0.82703 0.57796 0.0
C1586 C 0.49932 0.78377 0.59091 0.0
H1587 H 0.59341 0.90919 0.57549 0.0
H1588 H 0.5166 0.82583 0.56272 0.0
C1589 C 0.51727 0.78687 0.61062 0.0
C1590 C 0.3829 0.48713 0.35694 0.0
C1591 C 0.39683 0.48556 0.33713 0.0
H1592 H 0.3737 0.53456 0.37928 0.0
C1593 C 0.42625 0.53369 0.32663 0.0
H1594 H 0.36033 0.45023 0.36533 0.0
C1595 C 0.43596 0.58198 0.3349 0.0
C1596 C 0.41399 0.58243 0.35339 0.0
H1597 H 0.438 0.53342 0.31145 0.0
H1598 H 0.45423 0.61774 0.32567 0.0
C1599 C 0.3912 0.5355 0.36504 0.0
C1600 C 0.53061 0.9116 0.35215 0.0
C1601 C 0.53066 0.92461 0.33196 0.0
H1602 H 0.48636 0.85557 0.37547 0.0
C1603 C 0.48192 0.9005 0.32136 0.0
H1604 H 0.5679 0.92983 0.36064 0.0
C1605 C 0.43517 0.85977 0.33005 0.0
C1606 C 0.43673 0.84085 0.34924 0.0
H1607 H 0.48083 0.9103 0.30586 0.0
H1608 H 0.39927 0.83874 0.32087 0.0
C1609 C 0.48382 0.86953 0.36075 0.0
C1610 C 0.13995 0.67494 0.34926 0.0
C1611 C 0.11955 0.65884 0.33001 0.0
H1612 H 0.19115 0.67314 0.37218 0.0
C1613 C 0.12553 0.61904 0.3206 0.0
H1614 H 0.13517 0.70541 0.35675 0.0
C1615 C 0.15791 0.60084 0.32931 0.0
C1616 C 0.1841 0.6221 0.34754 0.0
H1617 H 0.10972 0.60608 0.30574 0.0
H1618 H 0.16747 0.57506 0.32078 0.0
C1619 C 0.1712 0.65575 0.35819 0.0
loop_
_geom_bond_atom_site_label_1
_geom_bond_atom_site_label_2
_geom_bond_distance
_geom_bond_site_symmetry_2
_ccdc_geom_bond_type
Mn0 O5 2.110 . S
Mn0 O15 2.153 1_545 S
Mn0 O16 2.301 1_545 S
Mn0 O24 2.376 1_545 S
Mn0 O25 2.215 . S
Mn0 O26 2.086 1_545 S
Mn1 O6 2.121 . S
Mn1 N8 2.257 . S
Mn1 N17 2.282 . S
Mn1 O25 2.215 . S
Mn1 O27 2.117 . S
C2 O24 1.234 1_545 S
C2 O25 1.283 . S
C3 O15 1.281 . S
C3 O16 1.236 . S
C4 O26 1.240 1_545 S
C4 O27 1.264 . S
O5 Mn0 2.110 . S
O5 C14 1.250 . S
O6 Mn1 2.121 . S
O6 C14 1.258 . S
C7 N8 1.326 . S
C7 C11 1.460 . S
C7 H13 0.929 . S
N8 Mn1 2.257 . S
N8 C7 1.326 . S
N8 C12 1.362 . S
C9 C10 1.258 . S
C9 C12 1.431 . S
C9 C29 1.449 1_655 S
C10 C9 1.258 . S
C10 C11 1.477 . S
C10 H30 0.931 . S
C11 C7 1.460 . S
C11 C10 1.477 . S
C11 H31 0.930 . S
C12 N8 1.362 . S
C12 C9 1.431 . S
C12 C22 1.476 . S
H13 C7 0.929 . S
C14 O5 1.250 . S
C14 O6 1.258 . S
O15 Mn0 2.153 1_565 S
O15 C3 1.281 . S
O16 Mn0 2.301 1_565 S
O16 C3 1.236 . S
N17 Mn1 2.282 . S
N17 C18 1.328 . S
N17 C22 1.318 . S
C18 N17 1.328 . S
C18 C19 1.457 . S
C18 H23 0.929 . S
C19 C18 1.457 . S
C19 C20 1.291 1_655 S
C19 H32 0.931 . S
C20 C19 1.291 1_455 S
C20 C21 1.373 1_455 S
C20 H33 0.929 . S
C21 C20 1.373 1_655 S
C21 C22 1.396 . S
C21 C28 1.403 1_655 S
C22 C12 1.476 . S
C22 N17 1.318 . S
C22 C21 1.396 . S
H23 C18 0.929 . S
O24 Mn0 2.376 1_565 S
O24 C2 1.234 1_565 S
O25 Mn0 2.215 . S
O25 Mn1 2.215 . S
O25 C2 1.283 . S
O26 Mn0 2.086 1_565 S
O26 C4 1.240 1_565 S
O27 Mn1 2.117 . S
O27 C4 1.264 . S
C28 C21 1.403 1_455 S
C28 C29 1.399 . S
C28 H34 0.929 . S
C29 C9 1.449 1_455 S
C29 C28 1.399 . S
C29 H35 0.930 . S
H30 C10 0.931 . S
H31 C11 0.930 . S
H32 C19 0.931 . S
H33 C20 0.929 . S
H34 C28 0.929 . S
H35 C29 0.930 . S
Mn36 O41 2.101 . S
Mn36 O51 2.158 1_455 S
Mn36 O52 2.298 1_455 S
Mn36 O60 2.381 1_455 S
Mn36 O61 2.211 . S
Mn36 O62 2.090 1_455 S
Mn37 O42 2.121 . S
Mn37 N44 2.257 . S
Mn37 N53 2.282 . S
Mn37 O61 2.215 . S
Mn37 O63 2.117 . S
C38 O60 1.234 1_455 S
C38 O61 1.283 . S
C39 O51 1.281 . S
C39 O52 1.236 . S
C40 O62 1.240 1_455 S
C40 O63 1.264 . S
O41 Mn36 2.101 . S
O41 C50 1.250 . S
O42 Mn37 2.121 . S
O42 C50 1.258 . S
C43 N44 1.326 . S
C43 C47 1.460 . S
C43 H49 0.929 . S
N44 Mn37 2.257 . S
N44 C43 1.326 . S
N44 C48 1.362 . S
C45 C46 1.258 . S
C45 C48 1.431 . S
C45 C65 1.449 1_565 S
C46 C45 1.258 . S
C46 C47 1.477 . S
C46 H66 0.931 . S
C47 C43 1.460 . S
C47 C46 1.477 . S
C47 H67 0.930 . S
C48 N44 1.362 . S
C48 C45 1.431 . S
C48 C58 1.476 . S
H49 C43 0.929 . S
C50 O41 1.250 . S
C50 O42 1.258 . S
O51 Mn36 2.158 1_655 S
O51 C39 1.281 . S
O52 Mn36 2.298 1_655 S
O52 C39 1.236 . S
N53 Mn37 2.282 . S
N53 C54 1.328 . S
N53 C58 1.318 . S
C54 N53 1.328 . S
C54 C55 1.457 . S
C54 H59 0.929 . S
C55 C54 1.457 . S
C55 C56 1.291 1_565 S
C55 H68 0.931 . S
C56 C55 1.291 1_545 S
C56 C57 1.373 1_545 S
C56 H69 0.929 . S
C57 C56 1.373 1_565 S
C57 C58 1.396 . S
C57 C64 1.403 1_565 S
C58 C48 1.476 . S
C58 N53 1.318 . S
C58 C57 1.396 . S
H59 C54 0.929 . S
O60 Mn36 2.381 1_655 S
O60 C38 1.234 1_655 S
O61 Mn36 2.211 . S
O61 Mn37 2.215 . S
O61 C38 1.283 . S
O62 Mn36 2.090 1_655 S
O62 C40 1.240 1_655 S
O63 Mn37 2.117 . S
O63 C40 1.264 . S
C64 C57 1.403 1_545 S
C64 C65 1.399 . S
C64 H70 0.929 . S
C65 C45 1.449 1_545 S
C65 C64 1.399 . S
C65 H71 0.930 . S
H66 C46 0.931 . S
H67 C47 0.930 . S
H68 C55 0.931 . S
H69 C56 0.929 . S
H70 C64 0.929 . S
H71 C65 0.930 . S
Mn72 O77 2.095 . S
Mn72 O87 2.162 . S
Mn72 O88 2.297 . S
Mn72 O96 2.385 . S
Mn72 O97 2.209 . S
Mn72 O98 2.094 . S
Mn73 O78 2.121 . S
Mn73 N80 2.257 . S
Mn73 N89 2.282 . S
Mn73 O97 2.215 . S
Mn73 O99 2.117 . S
C74 O96 1.234 . S
C74 O97 1.283 . S
C75 O87 1.281 . S
C75 O88 1.236 . S
C76 O98 1.240 . S
C76 O99 1.264 . S
O77 Mn72 2.095 . S
O77 C86 1.250 . S
O78 Mn73 2.121 . S
O78 C86 1.258 . S
C79 N80 1.326 . S
C79 C83 1.460 . S
C79 H85 0.929 . S
N80 Mn73 2.257 . S
N80 C79 1.326 . S
N80 C84 1.362 . S
C81 C82 1.258 . S
C81 C84 1.431 . S
C81 C101 1.449 . S
C82 C81 1.258 . S
C82 C83 1.477 . S
C82 H102 0.931 . S
C83 C79 1.460 . S
C83 C82 1.477 . S
C83 H103 0.930 . S
C84 N80 1.362 . S
C84 C81 1.431 . S
C84 C94 1.476 . S
H85 C79 0.929 . S
C86 O77 1.250 . S
C86 O78 1.258 . S
O87 Mn72 2.162 . S
O87 C75 1.281 . S
O88 Mn72 2.297 . S
O88 C75 1.236 . S
N89 Mn73 2.282 . S
N89 C90 1.328 . S
N89 C94 1.318 . S
C90 N89 1.328 . S
C90 C91 1.457 . S
C90 H95 0.929 . S
C91 C90 1.457 . S
C91 C92 1.291 . S
C91 H104 0.931 . S
C92 C91 1.291 . S
C92 C93 1.373 . S
C92 H105 0.929 . S
C93 C92 1.373 . S
C93 C94 1.396 . S
C93 C100 1.403 . S
C94 C84 1.476 . S
C94 N89 1.318 . S
C94 C93 1.396 . S
H95 C90 0.929 . S
O96 Mn72 2.385 . S
O96 C74 1.234 . S
O97 Mn72 2.209 . S
O97 Mn73 2.215 . S
O97 C74 1.283 . S
O98 Mn72 2.094 . S
O98 C76 1.240 . S
O99 Mn73 2.117 . S
O99 C76 1.264 . S
C100 C93 1.403 . S
C100 C101 1.399 . S
C100 H106 0.929 1_545 S
C101 C81 1.449 . S
C101 C100 1.399 . S
C101 H107 0.930 . S
H102 C82 0.931 . S
H103 C83 0.930 . S
H104 C91 0.931 . S
H105 C92 0.929 . S
H106 C100 0.929 1_565 S
H107 C101 0.930 . S
Mn108 O113 2.095 1_545 S
Mn108 O123 2.162 . S
Mn108 O124 2.297 . S
Mn108 O132 2.385 . S
Mn108 O133 2.209 1_545 S
Mn108 O134 2.094 . S
Mn109 O114 2.121 . S
Mn109 N116 2.257 . S
Mn109 N125 2.282 . S
Mn109 O133 2.215 . S
Mn109 O135 2.117 . S
C110 O132 1.234 . S
C110 O133 1.283 1_545 S
C111 O123 1.281 . S
C111 O124 1.236 . S
C112 O134 1.240 . S
C112 O135 1.264 1_545 S
O113 Mn108 2.095 1_565 S
O113 C122 1.250 . S
O114 Mn109 2.121 . S
O114 C122 1.258 . S
C115 N116 1.326 . S
C115 C119 1.460 . S
C115 H121 0.929 . S
N116 Mn109 2.257 . S
N116 C115 1.326 . S
N116 C120 1.362 . S
C117 C118 1.258 . S
C117 C120 1.431 . S
C117 C137 1.449 . S
C118 C117 1.258 . S
C118 C119 1.477 . S
C118 H138 0.931 . S
C119 C115 1.460 . S
C119 C118 1.477 . S
C119 H139 0.930 . S
C120 N116 1.362 . S
C120 C117 1.431 . S
C120 C130 1.476 . S
H121 C115 0.929 . S
C122 O113 1.250 . S
C122 O114 1.258 . S
O123 Mn108 2.162 . S
O123 C111 1.281 . S
O124 Mn108 2.297 . S
O124 C111 1.236 . S
N125 Mn109 2.282 . S
N125 C126 1.328 . S
N125 C130 1.318 . S
C126 N125 1.328 . S
C126 C127 1.457 . S
C126 H131 0.929 . S
C127 C126 1.457 . S
C127 C128 1.291 . S
C127 H140 0.931 . S
C128 C127 1.291 . S
C128 C129 1.373 . S
C128 H141 0.942 . S
C129 C128 1.373 . S
C129 C130 1.396 . S
C129 C136 1.403 . S
C130 C120 1.476 . S
C130 N125 1.318 . S
C130 C129 1.396 . S
H131 C126 0.929 . S
O132 Mn108 2.385 . S
O132 C110 1.234 . S
O133 Mn108 2.209 1_565 S
O133 Mn109 2.215 . S
O133 C110 1.283 1_565 S
O134 Mn108 2.094 . S
O134 C112 1.240 . S
O135 Mn109 2.117 . S
O135 C112 1.264 1_565 S
C136 C129 1.403 . S
C136 C137 1.399 . S
C136 H142 0.929 1_455 S
C137 C117 1.449 . S
C137 C136 1.399 . S
C137 H143 0.930 . S
H138 C118 0.931 . S
H139 C119 0.930 . S
H140 C127 0.931 . S
H141 C128 0.942 . S
H142 C136 0.929 1_655 S
H143 C137 0.930 . S
Mn144 O149 2.095 1_655 S
Mn144 O159 2.162 . S
Mn144 O160 2.297 . S
Mn144 O168 2.385 . S
Mn144 O169 2.209 1_655 S
Mn144 O170 2.094 . S
Mn145 O150 2.121 . S
Mn145 N152 2.257 . S
Mn145 N161 2.282 . S
Mn145 O169 2.215 . S
Mn145 O171 2.117 . S
C146 O168 1.234 1_455 S
C146 O169 1.283 . S
C147 O159 1.281 . S
C147 O160 1.236 . S
C148 O170 1.240 1_455 S
C148 O171 1.264 . S
O149 Mn144 2.095 1_455 S
O149 C158 1.250 . S
O150 Mn145 2.121 . S
O150 C158 1.258 . S
C151 N152 1.326 . S
C151 C155 1.460 . S
C151 H157 0.929 . S
N152 Mn145 2.257 . S
N152 C151 1.326 . S
N152 C156 1.362 . S
C153 C154 1.258 . S
C153 C156 1.431 . S
C153 C173 1.449 . S
C154 C153 1.258 . S
C154 C155 1.477 . S
C154 H174 0.931 . S
C155 C151 1.460 . S
C155 C154 1.477 . S
C155 H175 0.930 . S
C156 N152 1.362 . S
C156 C153 1.431 . S
C156 C166 1.476 . S
H157 C151 0.929 . S
C158 O149 1.250 . S
C158 O150 1.258 . S
O159 Mn144 2.162 . S
O159 C147 1.281 . S
O160 Mn144 2.297 . S
O160 C147 1.236 . S
N161 Mn145 2.282 . S
N161 C162 1.328 . S
N161 C166 1.318 . S
C162 N161 1.328 . S
C162 C163 1.457 . S
C162 H167 0.929 . S
C163 C162 1.457 . S
C163 C164 1.291 . S
C163 H176 0.931 . S
C164 C163 1.291 . S
C164 C165 1.373 . S
C164 H177 0.929 . S
C165 C164 1.373 . S
C165 C166 1.396 . S
C165 C172 1.403 . S
C166 C156 1.476 . S
C166 N161 1.318 . S
C166 C165 1.396 . S
H167 C162 0.929 . S
O168 Mn144 2.385 . S
O168 C146 1.234 1_655 S
O169 Mn144 2.209 1_455 S
O169 Mn145 2.215 . S
O169 C146 1.283 . S
O170 Mn144 2.094 . S
O170 C148 1.240 1_655 S
O171 Mn145 2.117 . S
O171 C148 1.264 . S
C172 C165 1.403 . S
C172 C173 1.399 . S
C172 H178 0.929 . S
C173 C153 1.449 . S
C173 C172 1.399 . S
C173 H179 0.930 . S
H174 C154 0.931 . S
H175 C155 0.930 . S
H176 C163 0.931 . S
H177 C164 0.929 . S
H178 C172 0.929 . S
H179 C173 0.930 . S
Mn180 O185 2.095 . S
Mn180 O195 2.162 . S
Mn180 O196 2.297 . S
Mn180 O204 2.385 . S
Mn180 O205 2.209 . S
Mn180 O206 2.094 . S
Mn181 O186 2.121 . S
Mn181 N188 2.257 . S
Mn181 N197 2.282 . S
Mn181 O205 2.215 . S
Mn181 O207 2.117 . S
C182 O204 1.234 . S
C182 O205 1.283 . S
C183 O195 1.281 . S
C183 O196 1.236 . S
C184 O206 1.240 . S
C184 O207 1.264 . S
O185 Mn180 2.095 . S
O185 C194 1.250 . S
O186 Mn181 2.121 . S
O186 C194 1.258 . S
C187 N188 1.326 . S
C187 C191 1.460 . S
C187 H193 0.929 . S
N188 Mn181 2.257 . S
N188 C187 1.326 . S
N188 C192 1.362 . S
C189 C190 1.258 . S
C189 C192 1.431 . S
C189 C209 1.449 1_655 S
C190 C189 1.258 . S
C190 C191 1.477 . S
C190 H210 0.931 . S
C191 C187 1.460 . S
C191 C190 1.477 . S
C191 H211 0.930 . S
C192 N188 1.362 . S
C192 C189 1.431 . S
C192 C202 1.476 . S
H193 C187 0.929 . S
C194 O185 1.250 . S
C194 O186 1.258 . S
O195 Mn180 2.162 . S
O195 C183 1.281 . S
O196 Mn180 2.297 . S
O196 C183 1.236 . S
N197 Mn181 2.282 . S
N197 C198 1.328 . S
N197 C202 1.318 . S
C198 N197 1.328 . S
C198 C199 1.457 . S
C198 H203 0.929 . S
C199 C198 1.457 . S
C199 C200 1.291 1_655 S
C199 H212 0.931 . S
C200 C199 1.291 1_455 S
C200 C201 1.373 1_455 S
C200 H213 0.929 . S
C201 C200 1.373 1_655 S
C201 C202 1.396 . S
C201 C208 1.403 1_655 S
C202 C192 1.476 . S
C202 N197 1.318 . S
C202 C201 1.396 . S
H203 C198 0.929 . S
O204 Mn180 2.385 . S
O204 C182 1.234 . S
O205 Mn180 2.209 . S
O205 Mn181 2.215 . S
O205 C182 1.283 . S
O206 Mn180 2.094 . S
O206 C184 1.240 . S
O207 Mn181 2.117 . S
O207 C184 1.264 . S
C208 C201 1.403 1_455 S
C208 C209 1.399 . S
C208 H214 0.929 . S
C209 C189 1.449 1_455 S
C209 C208 1.399 . S
C209 H215 0.930 . S
H210 C190 0.931 . S
H211 C191 0.930 . S
H212 C199 0.931 . S
H213 C200 0.929 . S
H214 C208 0.929 . S
H215 C209 0.930 . S
Mn216 O221 2.095 . S
Mn216 O231 2.162 . S
Mn216 O232 2.297 . S
Mn216 O240 2.385 . S
Mn216 O241 2.209 . S
Mn216 O242 2.094 . S
Mn217 O222 2.121 . S
Mn217 N224 2.257 . S
Mn217 N233 2.282 . S
Mn217 O241 2.215 . S
Mn217 O243 2.117 . S
C218 O240 1.234 . S
C218 O241 1.283 . S
C219 O231 1.281 . S
C219 O232 1.236 . S
C220 O242 1.240 . S
C220 O243 1.264 . S
O221 Mn216 2.095 . S
O221 C230 1.250 . S
O222 Mn217 2.121 . S
O222 C230 1.258 . S
C223 N224 1.326 . S
C223 C227 1.460 . S
C223 H229 0.929 . S
N224 Mn217 2.257 . S
N224 C223 1.326 . S
N224 C228 1.362 . S
C225 C226 1.258 . S
C225 C228 1.431 . S
C225 C245 1.449 . S
C226 C225 1.258 . S
C226 C227 1.477 . S
C226 H246 0.931 . S
C227 C223 1.460 . S
C227 C226 1.477 . S
C227 H247 0.930 . S
C228 N224 1.362 . S
C228 C225 1.431 . S
C228 C238 1.476 . S
H229 C223 0.929 . S
C230 O221 1.250 . S
C230 O222 1.258 . S
O231 Mn216 2.162 . S
O231 C219 1.281 . S
O232 Mn216 2.297 . S
O232 C219 1.236 . S
N233 Mn217 2.282 . S
N233 C234 1.328 . S
N233 C238 1.318 . S
C234 N233 1.328 . S
C234 C235 1.457 . S
C234 H239 0.929 . S
C235 C234 1.457 . S
C235 C236 1.291 . S
C235 H248 0.931 . S
C236 C235 1.291 . S
C236 C237 1.373 . S
C236 H249 0.929 . S
C237 C236 1.373 . S
C237 C238 1.396 . S
C237 C244 1.403 . S
C238 C228 1.476 . S
C238 N233 1.318 . S
C238 C237 1.396 . S
H239 C234 0.929 . S
O240 Mn216 2.385 . S
O240 C218 1.234 . S
O241 Mn216 2.209 . S
O241 Mn217 2.215 . S
O241 C218 1.283 . S
O242 Mn216 2.094 . S
O242 C220 1.240 . S
O243 Mn217 2.117 . S
O243 C220 1.264 . S
C244 C237 1.403 . S
C244 C245 1.399 . S
C244 H250 0.929 . S
C245 C225 1.449 . S
C245 C244 1.399 . S
C245 H251 0.930 . S
H246 C226 0.931 . S
H247 C227 0.930 . S
H248 C235 0.931 . S
H249 C236 0.929 . S
H250 C244 0.929 . S
H251 C245 0.930 . S
Mn252 O257 2.095 . S
Mn252 O267 2.162 1_545 S
Mn252 O268 2.297 1_545 S
Mn252 O276 2.385 . S
Mn252 O277 2.209 . S
Mn252 O278 2.094 . S
Mn253 O258 2.121 . S
Mn253 N260 2.257 . S
Mn253 N269 2.282 . S
Mn253 O277 2.215 . S
Mn253 O279 2.117 . S
C254 O276 1.234 . S
C254 O277 1.283 . S
C255 O267 1.281 . S
C255 O268 1.236 . S
C256 O278 1.240 . S
C256 O279 1.264 . S
O257 Mn252 2.095 . S
O257 C266 1.250 . S
O258 Mn253 2.121 . S
O258 C266 1.258 . S
C259 N260 1.326 . S
C259 C263 1.460 . S
C259 H265 0.929 . S
N260 Mn253 2.257 . S
N260 C259 1.326 . S
N260 C264 1.362 . S
C261 C262 1.258 . S
C261 C264 1.431 . S
C261 C281 1.449 . S
C262 C261 1.258 . S
C262 C263 1.477 . S
C262 H282 0.931 . S
C263 C259 1.460 . S
C263 C262 1.477 . S
C263 H283 0.930 . S
C264 N260 1.362 . S
C264 C261 1.431 . S
C264 C274 1.476 . S
H265 C259 0.929 . S
C266 O257 1.250 . S
C266 O258 1.258 . S
O267 Mn252 2.162 1_565 S
O267 C255 1.281 . S
O268 Mn252 2.297 1_565 S
O268 C255 1.236 . S
N269 Mn253 2.282 . S
N269 C270 1.328 . S
N269 C274 1.318 . S
C270 N269 1.328 . S
C270 C271 1.457 . S
C270 H275 0.929 . S
C271 C270 1.457 . S
C271 C272 1.291 . S
C271 H284 0.931 . S
C272 C271 1.291 . S
C272 C273 1.373 . S
C272 H285 0.929 . S
C273 C272 1.373 . S
C273 C274 1.396 . S
C273 C280 1.403 . S
C274 C264 1.476 . S
C274 N269 1.318 . S
C274 C273 1.396 . S
H275 C270 0.929 . S
O276 Mn252 2.385 . S
O276 C254 1.234 . S
O277 Mn252 2.209 . S
O277 Mn253 2.215 . S
O277 C254 1.283 . S
O278 Mn252 2.094 . S
O278 C256 1.240 . S
O279 Mn253 2.117 . S
O279 C256 1.264 . S
C280 C273 1.403 . S
C280 C281 1.399 . S
C280 H286 0.929 . S
C281 C261 1.449 . S
C281 C280 1.399 . S
C281 H287 0.930 . S
H282 C262 0.931 . S
H283 C263 0.930 . S
H284 C271 0.931 . S
H285 C272 0.929 . S
H286 C280 0.929 . S
H287 C281 0.930 . S
Mn288 O293 2.095 1_655 S
Mn288 O303 2.162 . S
Mn288 O304 2.297 1_655 S
Mn288 O312 2.385 . S
Mn288 O313 2.209 . S
Mn288 O314 2.094 . S
Mn289 O294 2.121 1_655 S
Mn289 N296 2.257 . S
Mn289 N305 2.282 . S
Mn289 O313 2.215 . S
Mn289 O315 2.117 . S
C290 O312 1.234 . S
C290 O313 1.283 . S
C291 O303 1.281 . S
C291 O304 1.236 1_655 S
C292 O314 1.240 . S
C292 O315 1.264 . S
O293 Mn288 2.095 1_455 S
O293 C302 1.250 . S
O294 Mn289 2.121 1_455 S
O294 C302 1.258 . S
C295 N296 1.326 1_455 S
C295 C299 1.460 . S
C295 H301 0.929 . S
N296 Mn289 2.257 . S
N296 C295 1.326 1_655 S
N296 C300 1.362 . S
C297 C298 1.258 1_655 S
C297 C300 1.431 . S
C297 C317 1.449 . S
C298 C297 1.258 1_455 S
C298 C299 1.477 . S
C298 H318 0.931 . S
C299 C295 1.460 . S
C299 C298 1.477 . S
C299 H319 0.930 . S
C300 N296 1.362 . S
C300 C297 1.431 . S
C300 C310 1.476 . S
H301 C295 0.929 . S
C302 O293 1.250 . S
C302 O294 1.258 . S
O303 Mn288 2.162 . S
O303 C291 1.281 . S
O304 Mn288 2.297 1_455 S
O304 C291 1.236 1_455 S
N305 Mn289 2.282 . S
N305 C306 1.328 . S
N305 C310 1.318 . S
C306 N305 1.328 . S
C306 C307 1.457 . S
C306 H311 0.929 . S
C307 C306 1.457 . S
C307 C308 1.291 . S
C307 H320 0.931 . S
C308 C307 1.291 . S
C308 C309 1.373 . S
C308 H321 0.929 . S
C309 C308 1.373 . S
C309 C310 1.396 . S
C309 C316 1.403 . S
C310 C300 1.476 . S
C310 N305 1.318 . S
C310 C309 1.396 . S
H311 C306 0.929 . S
O312 Mn288 2.385 . S
O312 C290 1.234 . S
O313 Mn288 2.209 . S
O313 Mn289 2.215 . S
O313 C290 1.283 . S
O314 Mn288 2.094 . S
O314 C292 1.240 . S
O315 Mn289 2.117 . S
O315 C292 1.264 . S
C316 C309 1.403 . S
C316 C317 1.399 . S
C316 H322 0.929 . S
C317 C297 1.449 . S
C317 C316 1.399 . S
C317 H323 0.930 . S
H318 C298 0.931 . S
H319 C299 0.930 . S
H320 C307 0.931 . S
H321 C308 0.929 . S
H322 C316 0.929 . S
H323 C317 0.930 . S
Mn324 O329 2.095 . S
Mn324 O339 2.162 1_655 S
Mn324 O340 2.297 1_655 S
Mn324 O348 2.385 . S
Mn324 O349 2.209 . S
Mn324 O350 2.094 . S
Mn325 O330 2.121 . S
Mn325 N332 2.257 . S
Mn325 N341 2.282 . S
Mn325 O349 2.215 . S
Mn325 O351 2.117 . S
C326 O348 1.234 . S
C326 O349 1.283 . S
C327 O339 1.281 . S
C327 O340 1.236 . S
C328 O350 1.240 . S
C328 O351 1.264 . S
O329 Mn324 2.095 . S
O329 C338 1.250 . S
O330 Mn325 2.121 . S
O330 C338 1.258 . S
C331 N332 1.326 . S
C331 C335 1.460 . S
C331 H337 0.929 . S
N332 Mn325 2.257 . S
N332 C331 1.326 . S
N332 C336 1.362 . S
C333 C334 1.258 . S
C333 C336 1.431 . S
C333 C353 1.449 . S
C334 C333 1.258 . S
C334 C335 1.477 . S
C334 H354 0.931 . S
C335 C331 1.460 . S
C335 C334 1.477 . S
C335 H355 0.930 . S
C336 N332 1.362 . S
C336 C333 1.431 . S
C336 C346 1.476 . S
H337 C331 0.929 . S
C338 O329 1.250 . S
C338 O330 1.258 . S
O339 Mn324 2.162 1_455 S
O339 C327 1.281 . S
O340 Mn324 2.297 1_455 S
O340 C327 1.236 . S
N341 Mn325 2.282 . S
N341 C342 1.328 . S
N341 C346 1.318 . S
C342 N341 1.328 . S
C342 C343 1.457 . S
C342 H347 0.929 . S
C343 C342 1.457 . S
C343 C344 1.291 . S
C343 H356 0.931 . S
C344 C343 1.291 . S
C344 C345 1.373 . S
C344 H357 0.929 . S
C345 C344 1.373 . S
C345 C346 1.396 . S
C345 C352 1.403 . S
C346 C336 1.476 . S
C346 N341 1.318 . S
C346 C345 1.396 . S
H347 C342 0.929 . S
O348 Mn324 2.385 . S
O348 C326 1.234 . S
O349 Mn324 2.209 . S
O349 Mn325 2.215 . S
O349 C326 1.283 . S
O350 Mn324 2.094 . S
O350 C328 1.240 . S
O351 Mn325 2.117 . S
O351 C328 1.264 . S
C352 C345 1.403 . S
C352 C353 1.399 . S
C352 H358 0.929 . S
C353 C333 1.449 . S
C353 C352 1.399 . S
C353 H359 0.930 . S
H354 C334 0.931 . S
H355 C335 0.930 . S
H356 C343 0.931 . S
H357 C344 0.929 . S
H358 C352 0.929 . S
H359 C353 0.930 . S
Mn360 O365 2.095 . S
Mn360 O375 2.162 . S
Mn360 O376 2.297 . S
Mn360 O384 2.385 . S
Mn360 O385 2.209 . S
Mn360 O386 2.094 . S
Mn361 O366 2.121 . S
Mn361 N368 2.257 . S
Mn361 N377 2.282 . S
Mn361 O385 2.215 . S
Mn361 O387 2.117 . S
C362 O384 1.234 . S
C362 O385 1.283 . S
C363 O375 1.281 . S
C363 O376 1.236 . S
C364 O386 1.240 . S
C364 O387 1.264 . S
O365 Mn360 2.095 . S
O365 C374 1.250 . S
O366 Mn361 2.121 . S
O366 C374 1.258 . S
C367 N368 1.326 . S
C367 C371 1.460 . S
C367 H373 0.929 . S
N368 Mn361 2.257 . S
N368 C367 1.326 . S
N368 C372 1.362 . S
C369 C370 1.258 . S
C369 C372 1.431 . S
C369 C389 1.449 . S
C370 C369 1.258 . S
C370 C371 1.477 . S
C370 H390 0.931 . S
C371 C367 1.460 . S
C371 C370 1.477 . S
C371 H391 0.930 . S
C372 N368 1.362 . S
C372 C369 1.431 . S
C372 C382 1.476 . S
H373 C367 0.929 . S
C374 O365 1.250 . S
C374 O366 1.258 . S
O375 Mn360 2.162 . S
O375 C363 1.281 . S
O376 Mn360 2.297 . S
O376 C363 1.236 . S
N377 Mn361 2.282 . S
N377 C378 1.328 . S
N377 C382 1.318 . S
C378 N377 1.328 . S
C378 C379 1.457 . S
C378 H383 0.929 . S
C379 C378 1.457 . S
C379 C380 1.291 . S
C379 H392 0.931 . S
C380 C379 1.291 . S
C380 C381 1.373 . S
C380 H393 0.929 . S
C381 C380 1.373 . S
C381 C382 1.396 . S
C381 C388 1.403 . S
C382 C372 1.476 . S
C382 N377 1.318 . S
C382 C381 1.396 . S
H383 C378 0.929 . S
O384 Mn360 2.385 . S
O384 C362 1.234 . S
O385 Mn360 2.209 . S
O385 Mn361 2.215 . S
O385 C362 1.283 . S
O386 Mn360 2.094 . S
O386 C364 1.240 . S
O387 Mn361 2.117 . S
O387 C364 1.264 . S
C388 C381 1.403 . S
C388 C389 1.399 . S
C388 H394 0.929 . S
C389 C369 1.449 . S
C389 C388 1.399 . S
C389 H395 0.930 . S
H390 C370 0.931 . S
H391 C371 0.930 . S
H392 C379 0.931 . S
H393 C380 0.929 . S
H394 C388 0.929 . S
H395 C389 0.930 . S
Mn396 O401 2.095 . S
Mn396 O411 2.162 . S
Mn396 O412 2.297 . S
Mn396 O420 2.385 . S
Mn396 O421 2.209 . S
Mn396 O422 2.094 . S
Mn397 O402 2.121 1_545 S
Mn397 N404 2.257 . S
Mn397 N413 2.282 . S
Mn397 O421 2.215 . S
Mn397 O423 2.117 . S
C398 O420 1.234 . S
C398 O421 1.283 . S
C399 O411 1.281 . S
C399 O412 1.236 . S
C400 O422 1.240 . S
C400 O423 1.264 . S
O401 Mn396 2.095 . S
O401 C410 1.250 1_545 S
O402 Mn397 2.121 1_565 S
O402 C410 1.258 . S
C403 N404 1.326 1_565 S
C403 C407 1.460 . S
C403 H409 0.929 . S
N404 Mn397 2.257 . S
N404 C403 1.326 1_545 S
N404 C408 1.362 . S
C405 C406 1.258 . S
C405 C408 1.431 . S
C405 C425 1.449 . S
C406 C405 1.258 . S
C406 C407 1.477 1_545 S
C406 H426 0.931 . S
C407 C403 1.460 . S
C407 C406 1.477 1_565 S
C407 H427 0.930 . S
C408 N404 1.362 . S
C408 C405 1.431 . S
C408 C418 1.476 . S
H409 C403 0.929 . S
C410 O401 1.250 1_565 S
C410 O402 1.258 . S
O411 Mn396 2.162 . S
O411 C399 1.281 . S
O412 Mn396 2.297 . S
O412 C399 1.236 . S
N413 Mn397 2.282 . S
N413 C414 1.328 . S
N413 C418 1.318 . S
C414 N413 1.328 . S
C414 C415 1.457 . S
C414 H419 0.929 . S
C415 C414 1.457 . S
C415 C416 1.291 . S
C415 H428 0.931 . S
C416 C415 1.291 . S
C416 C417 1.373 . S
C416 H429 0.929 . S
C417 C416 1.373 . S
C417 C418 1.396 . S
C417 C424 1.403 . S
C418 C408 1.476 . S
C418 N413 1.318 . S
C418 C417 1.396 . S
H419 C414 0.929 . S
O420 Mn396 2.385 . S
O420 C398 1.234 . S
O421 Mn396 2.209 . S
O421 Mn397 2.215 . S
O421 C398 1.283 . S
O422 Mn396 2.094 . S
O422 C400 1.240 . S
O423 Mn397 2.117 . S
O423 C400 1.264 . S
C424 C417 1.403 . S
C424 C425 1.399 . S
C424 H430 0.929 . S
C425 C405 1.449 . S
C425 C424 1.399 . S
C425 H431 0.930 . S
H426 C406 0.931 . S
H427 C407 0.930 . S
H428 C415 0.931 . S
H429 C416 0.929 . S
H430 C424 0.929 . S
H431 C425 0.930 . S
Mn432 O437 2.095 . S
Mn432 O447 2.162 1_455 S
Mn432 O448 2.297 1_455 S
Mn432 O456 2.385 . S
Mn432 O457 2.209 . S
Mn432 O458 2.094 . S
Mn433 O438 2.121 . S
Mn433 N440 2.257 . S
Mn433 N449 2.282 . S
Mn433 O457 2.215 . S
Mn433 O459 2.117 . S
C434 O456 1.234 . S
C434 O457 1.283 . S
C435 O447 1.281 . S
C435 O448 1.236 . S
C436 O458 1.240 . S
C436 O459 1.264 . S
O437 Mn432 2.095 . S
O437 C446 1.250 . S
O438 Mn433 2.121 . S
O438 C446 1.258 . S
C439 N440 1.326 . S
C439 C443 1.460 . S
C439 H445 0.929 . S
N440 Mn433 2.257 . S
N440 C439 1.326 . S
N440 C444 1.362 . S
C441 C442 1.258 . S
C441 C444 1.431 . S
C441 C461 1.449 . S
C442 C441 1.258 . S
C442 C443 1.477 . S
C442 H462 0.931 . S
C443 C439 1.460 . S
C443 C442 1.477 . S
C443 H463 0.930 . S
C444 N440 1.362 . S
C444 C441 1.431 . S
C444 C454 1.476 . S
H445 C439 0.929 . S
C446 O437 1.250 . S
C446 O438 1.258 . S
O447 Mn432 2.162 1_655 S
O447 C435 1.281 . S
O448 Mn432 2.297 1_655 S
O448 C435 1.236 . S
N449 Mn433 2.282 . S
N449 C450 1.328 . S
N449 C454 1.318 . S
C450 N449 1.328 . S
C450 C451 1.457 . S
C450 H455 0.929 . S
C451 C450 1.457 . S
C451 C452 1.291 . S
C451 H464 0.931 . S
C452 C451 1.291 . S
C452 C453 1.373 . S
C452 H465 0.929 . S
C453 C452 1.373 . S
C453 C454 1.396 . S
C453 C460 1.403 . S
C454 C444 1.476 . S
C454 N449 1.318 . S
C454 C453 1.396 . S
H455 C450 0.929 . S
O456 Mn432 2.385 . S
O456 C434 1.234 . S
O457 Mn432 2.209 . S
O457 Mn433 2.215 . S
O457 C434 1.283 . S
O458 Mn432 2.094 . S
O458 C436 1.240 . S
O459 Mn433 2.117 . S
O459 C436 1.264 . S
C460 C453 1.403 . S
C460 C461 1.399 . S
C460 H466 0.929 . S
C461 C441 1.449 . S
C461 C460 1.399 . S
C461 H467 0.930 . S
H462 C442 0.931 . S
H463 C443 0.930 . S
H464 C451 0.931 . S
H465 C452 0.929 . S
H466 C460 0.929 . S
H467 C461 0.930 . S
Mn468 O473 2.095 . S
Mn468 O483 2.162 . S
Mn468 O484 2.297 . S
Mn468 O492 2.385 . S
Mn468 O493 2.209 . S
Mn468 O494 2.094 . S
Mn469 O474 2.121 . S
Mn469 N476 2.257 . S
Mn469 N485 2.282 . S
Mn469 O493 2.215 . S
Mn469 O495 2.117 . S
C470 O492 1.234 . S
C470 O493 1.283 . S
C471 O483 1.281 . S
C471 O484 1.236 . S
C472 O494 1.240 . S
C472 O495 1.264 . S
O473 Mn468 2.095 . S
O473 C482 1.250 . S
O474 Mn469 2.121 . S
O474 C482 1.258 . S
C475 N476 1.326 . S
C475 C479 1.460 . S
C475 H481 0.929 . S
N476 Mn469 2.257 . S
N476 C475 1.326 . S
N476 C480 1.362 . S
C477 C478 1.258 . S
C477 C480 1.431 . S
C477 C497 1.449 . S
C478 C477 1.258 . S
C478 C479 1.477 . S
C478 H498 0.931 . S
C479 C475 1.460 . S
C479 C478 1.477 . S
C479 H499 0.930 . S
C480 N476 1.362 . S
C480 C477 1.431 . S
C480 C490 1.476 . S
H481 C475 0.929 . S
C482 O473 1.250 . S
C482 O474 1.258 . S
O483 Mn468 2.162 . S
O483 C471 1.281 . S
O484 Mn468 2.297 . S
O484 C471 1.236 . S
N485 Mn469 2.282 . S
N485 C486 1.328 . S
N485 C490 1.318 . S
C486 N485 1.328 . S
C486 C487 1.457 . S
C486 H491 0.929 . S
C487 C486 1.457 . S
C487 C488 1.291 . S
C487 H500 0.931 . S
C488 C487 1.291 . S
C488 C489 1.373 . S
C488 H501 0.929 . S
C489 C488 1.373 . S
C489 C490 1.396 . S
C489 C496 1.403 . S
C490 C480 1.476 . S
C490 N485 1.318 . S
C490 C489 1.396 . S
H491 C486 0.929 . S
O492 Mn468 2.385 . S
O492 C470 1.234 . S
O493 Mn468 2.209 . S
O493 Mn469 2.215 . S
O493 C470 1.283 . S
O494 Mn468 2.094 . S
O494 C472 1.240 . S
O495 Mn469 2.117 . S
O495 C472 1.264 . S
C496 C489 1.403 . S
C496 C497 1.399 . S
C496 H502 0.929 . S
C497 C477 1.449 . S
C497 C496 1.399 . S
C497 H503 0.930 . S
H498 C478 0.931 . S
H499 C479 0.930 . S
H500 C487 0.931 . S
H501 C488 0.929 . S
H502 C496 0.929 . S
H503 C497 0.930 . S
Mn504 O509 2.095 . S
Mn504 O519 2.162 1_565 S
Mn504 O520 2.297 1_565 S
Mn504 O528 2.385 . S
Mn504 O529 2.209 . S
Mn504 O530 2.094 . S
Mn505 O510 2.121 . S
Mn505 N512 2.257 . S
Mn505 N521 2.282 . S
Mn505 O529 2.215 . S
Mn505 O531 2.117 . S
C506 O528 1.234 . S
C506 O529 1.283 . S
C507 O519 1.281 . S
C507 O520 1.236 . S
C508 O530 1.240 . S
C508 O531 1.264 . S
O509 Mn504 2.095 . S
O509 C518 1.250 . S
O510 Mn505 2.121 . S
O510 C518 1.258 . S
C511 N512 1.326 . S
C511 C515 1.460 . S
C511 H517 0.929 . S
N512 Mn505 2.257 . S
N512 C511 1.326 . S
N512 C516 1.362 . S
C513 C514 1.258 . S
C513 C516 1.431 . S
C513 C533 1.449 . S
C514 C513 1.258 . S
C514 C515 1.477 . S
C514 H534 0.931 . S
C515 C511 1.460 . S
C515 C514 1.477 . S
C515 H535 0.930 . S
C516 N512 1.362 . S
C516 C513 1.431 . S
C516 C526 1.476 . S
H517 C511 0.929 . S
C518 O509 1.250 . S
C518 O510 1.258 . S
O519 Mn504 2.162 1_545 S
O519 C507 1.281 . S
O520 Mn504 2.297 1_545 S
O520 C507 1.236 . S
N521 Mn505 2.282 . S
N521 C522 1.328 . S
N521 C526 1.318 . S
C522 N521 1.328 . S
C522 C523 1.457 . S
C522 H527 0.929 . S
C523 C522 1.457 . S
C523 C524 1.291 . S
C523 H536 0.931 . S
C524 C523 1.291 . S
C524 C525 1.373 . S
C524 H537 0.929 . S
C525 C524 1.373 . S
C525 C526 1.396 . S
C525 C532 1.403 . S
C526 C516 1.476 . S
C526 N521 1.318 . S
C526 C525 1.396 . S
H527 C522 0.929 . S
O528 Mn504 2.385 . S
O528 C506 1.234 . S
O529 Mn504 2.209 . S
O529 Mn505 2.215 . S
O529 C506 1.283 . S
O530 Mn504 2.094 . S
O530 C508 1.240 . S
O531 Mn505 2.117 . S
O531 C508 1.264 . S
C532 C525 1.403 . S
C532 C533 1.399 . S
C532 H538 0.929 . S
C533 C513 1.449 . S
C533 C532 1.399 . S
C533 H539 0.930 . S
H534 C514 0.931 . S
H535 C515 0.930 . S
H536 C523 0.931 . S
H537 C524 0.929 . S
H538 C532 0.929 . S
H539 C533 0.930 . S
Mn540 O545 2.095 . S
Mn540 O555 2.162 . S
Mn540 O556 2.297 . S
Mn540 O564 2.385 . S
Mn540 O565 2.209 . S
Mn540 O566 2.094 . S
Mn541 O546 2.121 . S
Mn541 N548 2.257 . S
Mn541 N557 2.282 . S
Mn541 O565 2.215 . S
Mn541 O567 2.117 . S
C542 O564 1.234 . S
C542 O565 1.283 . S
C543 O555 1.281 . S
C543 O556 1.236 . S
C544 O566 1.240 . S
C544 O567 1.264 . S
O545 Mn540 2.095 . S
O545 C554 1.250 . S
O546 Mn541 2.121 . S
O546 C554 1.258 . S
C547 N548 1.326 . S
C547 C551 1.460 . S
C547 H553 0.929 . S
N548 Mn541 2.257 . S
N548 C547 1.326 . S
N548 C552 1.362 . S
C549 C550 1.258 . S
C549 C552 1.431 . S
C549 C569 1.449 . S
C550 C549 1.258 . S
C550 C551 1.477 . S
C550 H570 0.931 . S
C551 C547 1.460 . S
C551 C550 1.477 . S
C551 H571 0.930 . S
C552 N548 1.362 . S
C552 C549 1.431 . S
C552 C562 1.476 . S
H553 C547 0.929 . S
C554 O545 1.250 . S
C554 O546 1.258 . S
O555 Mn540 2.162 . S
O555 C543 1.281 . S
O556 Mn540 2.297 . S
O556 C543 1.236 . S
N557 Mn541 2.282 . S
N557 C558 1.328 . S
N557 C562 1.318 . S
C558 N557 1.328 . S
C558 C559 1.457 . S
C558 H563 0.929 . S
C559 C558 1.457 . S
C559 C560 1.291 . S
C559 H572 0.931 . S
C560 C559 1.291 . S
C560 C561 1.373 . S
C560 H573 0.929 . S
C561 C560 1.373 . S
C561 C562 1.396 . S
C561 C568 1.403 . S
C562 C552 1.476 . S
C562 N557 1.318 . S
C562 C561 1.396 . S
H563 C558 0.929 . S
O564 Mn540 2.385 . S
O564 C542 1.234 . S
O565 Mn540 2.209 . S
O565 Mn541 2.215 . S
O565 C542 1.283 . S
O566 Mn540 2.094 . S
O566 C544 1.240 . S
O567 Mn541 2.117 . S
O567 C544 1.264 . S
C568 C561 1.403 . S
C568 C569 1.399 . S
C568 H574 0.929 . S
C569 C549 1.449 . S
C569 C568 1.399 . S
C569 H575 0.930 . S
H570 C550 0.931 . S
H571 C551 0.930 . S
H572 C559 0.931 . S
H573 C560 0.929 . S
H574 C568 0.929 . S
H575 C569 0.930 . S
Mn576 O581 2.095 1_565 S
Mn576 O591 2.162 . S
Mn576 O592 2.297 1_565 S
Mn576 O600 2.385 . S
Mn576 O601 2.209 . S
Mn576 O602 2.094 . S
Mn577 O582 2.121 1_565 S
Mn577 N584 2.257 . S
Mn577 N593 2.282 . S
Mn577 O601 2.215 . S
Mn577 O603 2.117 . S
C578 O600 1.234 . S
C578 O601 1.283 . S
C579 O591 1.281 . S
C579 O592 1.236 1_565 S
C580 O602 1.240 . S
C580 O603 1.264 . S
O581 Mn576 2.095 1_545 S
O581 C590 1.250 . S
O582 Mn577 2.121 1_545 S
O582 C590 1.258 . S
C583 N584 1.326 1_545 S
C583 C587 1.460 . S
C583 H589 0.929 . S
N584 Mn577 2.257 . S
N584 C583 1.326 1_565 S
N584 C588 1.362 . S
C585 C586 1.258 1_565 S
C585 C588 1.431 . S
C585 C605 1.449 . S
C586 C585 1.258 1_545 S
C586 C587 1.477 . S
C586 H606 0.931 . S
C587 C583 1.460 . S
C587 C586 1.477 . S
C587 H607 0.930 . S
C588 N584 1.362 . S
C588 C585 1.431 . S
C588 C598 1.476 . S
H589 C583 0.929 . S
C590 O581 1.250 . S
C590 O582 1.258 . S
O591 Mn576 2.162 . S
O591 C579 1.281 . S
O592 Mn576 2.297 1_545 S
O592 C579 1.236 1_545 S
N593 Mn577 2.282 . S
N593 C594 1.328 . S
N593 C598 1.318 . S
C594 N593 1.328 . S
C594 C595 1.457 . S
C594 H599 0.929 . S
C595 C594 1.457 . S
C595 C596 1.291 . S
C595 H608 0.931 . S
C596 C595 1.291 . S
C596 C597 1.373 . S
C596 H609 0.929 . S
C597 C596 1.373 . S
C597 C598 1.396 . S
C597 C604 1.403 . S
C598 C588 1.476 . S
C598 N593 1.318 . S
C598 C597 1.396 . S
H599 C594 0.929 . S
O600 Mn576 2.385 . S
O600 C578 1.234 . S
O601 Mn576 2.209 . S
O601 Mn577 2.215 . S
O601 C578 1.283 . S
O602 Mn576 2.094 . S
O602 C580 1.240 . S
O603 Mn577 2.117 . S
O603 C580 1.264 . S
C604 C597 1.403 . S
C604 C605 1.399 . S
C604 H610 0.929 . S
C605 C585 1.449 . S
C605 C604 1.399 . S
C605 H611 0.930 . S
H606 C586 0.931 . S
H607 C587 0.930 . S
H608 C595 0.931 . S
H609 C596 0.929 . S
H610 C604 0.929 . S
H611 C605 0.930 . S
Mn612 O617 2.095 . S
Mn612 O627 2.162 1_455 S
Mn612 O628 2.297 1_455 S
Mn612 O636 2.385 . S
Mn612 O637 2.209 . S
Mn612 O638 2.094 . S
Mn613 O618 2.121 . S
Mn613 N620 2.257 . S
Mn613 N629 2.282 . S
Mn613 O637 2.215 . S
Mn613 O639 2.117 . S
C614 O636 1.234 . S
C614 O637 1.283 . S
C615 O627 1.281 . S
C615 O628 1.236 . S
C616 O638 1.240 . S
C616 O639 1.264 . S
O617 Mn612 2.095 . S
O617 C626 1.250 . S
O618 Mn613 2.121 . S
O618 C626 1.258 . S
C619 N620 1.326 . S
C619 C623 1.460 . S
C619 H625 0.929 . S
N620 Mn613 2.257 . S
N620 C619 1.326 . S
N620 C624 1.362 . S
C621 C622 1.258 . S
C621 C624 1.431 . S
C621 C641 1.449 . S
C622 C621 1.258 . S
C622 C623 1.477 . S
C622 H642 0.931 . S
C623 C619 1.460 . S
C623 C622 1.477 . S
C623 H643 0.930 . S
C624 N620 1.362 . S
C624 C621 1.431 . S
C624 C634 1.476 . S
H625 C619 0.929 . S
C626 O617 1.250 . S
C626 O618 1.258 . S
O627 Mn612 2.162 1_655 S
O627 C615 1.281 . S
O628 Mn612 2.297 1_655 S
O628 C615 1.236 . S
N629 Mn613 2.282 . S
N629 C630 1.328 . S
N629 C634 1.318 . S
C630 N629 1.328 . S
C630 C631 1.457 . S
C630 H635 0.929 . S
C631 C630 1.457 . S
C631 C632 1.291 . S
C631 H644 0.931 . S
C632 C631 1.291 . S
C632 C633 1.373 . S
C632 H645 0.929 . S
C633 C632 1.373 . S
C633 C634 1.396 . S
C633 C640 1.403 . S
C634 C624 1.476 . S
C634 N629 1.318 . S
C634 C633 1.396 . S
H635 C630 0.929 . S
O636 Mn612 2.385 . S
O636 C614 1.234 . S
O637 Mn612 2.209 . S
O637 Mn613 2.215 . S
O637 C614 1.283 . S
O638 Mn612 2.094 . S
O638 C616 1.240 . S
O639 Mn613 2.117 . S
O639 C616 1.264 . S
C640 C633 1.403 . S
C640 C641 1.399 . S
C640 H646 0.929 . S
C641 C621 1.449 . S
C641 C640 1.399 . S
C641 H647 0.930 . S
H642 C622 0.931 . S
H643 C623 0.930 . S
H644 C631 0.931 . S
H645 C632 0.929 . S
H646 C640 0.929 . S
H647 C641 0.930 . S
Zn648 O654 1.920 1_455 S
Zn648 O660 1.898 1_445 S
Zn648 O663 1.905 . S
Zn649 O657 1.905 1_445 S
Zn649 O658 1.898 . S
Zn649 O666 1.920 1_455 S
Zn650 O653 2.080 . S
Zn650 O656 2.114 1_545 S
Zn650 O659 2.120 . S
Zn650 O661 2.120 1_445 S
Zn650 O662 2.114 . S
Zn650 O665 2.080 1_455 S
C651 O656 1.166 . S
C651 O657 1.182 1_455 S
C652 O658 1.167 . S
C652 O659 1.299 . S
O653 Zn650 2.080 . S
O653 C667 1.305 1_455 S
O654 Zn648 1.920 1_655 S
O654 C667 1.234 . S
C655 O660 1.167 . S
C655 O661 1.299 . S
O656 Zn650 2.114 1_565 S
O656 C651 1.166 . S
O657 Zn649 1.905 1_665 S
O657 C651 1.182 1_655 S
O658 Zn649 1.898 . S
O658 C652 1.167 . S
O659 Zn650 2.120 . S
O659 C652 1.299 . S
O660 Zn648 1.898 1_665 S
O660 C655 1.167 . S
O661 Zn650 2.120 1_665 S
O661 C655 1.299 . S
O662 Zn650 2.114 . S
O662 C664 1.166 . S
O663 Zn648 1.905 . S
O663 C664 1.182 . S
C664 O662 1.166 . S
C664 O663 1.182 . S
O665 Zn650 2.080 1_655 S
O665 C668 1.305 . S
O666 Zn649 1.920 1_655 S
O666 C668 1.234 . S
C667 O653 1.305 1_655 S
C667 O654 1.234 . S
C668 O665 1.305 . S
C668 O666 1.234 . S
Zn669 O675 1.920 1_545 S
Zn669 O681 1.898 . S
Zn669 O684 1.905 1_455 S
Zn670 O678 1.905 . S
Zn670 O679 1.898 1_445 S
Zn670 O687 1.920 1_545 S
Zn671 O674 2.080 1_545 S
Zn671 O677 2.114 . S
Zn671 O680 2.120 1_445 S
Zn671 O682 2.120 . S
Zn671 O683 2.114 1_455 S
Zn671 O686 2.080 . S
C672 O677 1.166 . S
C672 O678 1.182 . S
C673 O679 1.167 . S
C673 O680 1.299 . S
O674 Zn671 2.080 1_565 S
O674 C688 1.305 . S
O675 Zn669 1.920 1_565 S
O675 C688 1.234 . S
C676 O681 1.167 . S
C676 O682 1.299 . S
O677 Zn671 2.114 . S
O677 C672 1.166 . S
O678 Zn670 1.905 . S
O678 C672 1.182 . S
O679 Zn670 1.898 1_665 S
O679 C673 1.167 . S
O680 Zn671 2.120 1_665 S
O680 C673 1.299 . S
O681 Zn669 1.898 . S
O681 C676 1.167 . S
O682 Zn671 2.120 . S
O682 C676 1.299 . S
O683 Zn671 2.114 1_655 S
O683 C685 1.166 . S
O684 Zn669 1.905 1_655 S
O684 C685 1.182 . S
C685 O683 1.166 . S
C685 O684 1.182 . S
O686 Zn671 2.080 . S
O686 C689 1.305 . S
O687 Zn670 1.920 1_565 S
O687 C689 1.234 1_565 S
C688 O674 1.305 . S
C688 O675 1.234 . S
C689 O686 1.305 . S
C689 O687 1.234 1_545 S
Zn690 O696 1.920 1_545 S
Zn690 O702 1.898 . S
Zn690 O705 1.905 1_445 S
Zn691 O699 1.905 . S
Zn691 O700 1.898 1_445 S
Zn691 O708 1.920 1_545 S
Zn692 O695 2.080 1_545 S
Zn692 O698 2.114 . S
Zn692 O701 2.120 1_445 S
Zn692 O703 2.120 . S
Zn692 O704 2.114 1_455 S
Zn692 O707 2.080 . S
C693 O698 1.166 . S
C693 O699 1.182 . S
C694 O700 1.167 . S
C694 O701 1.299 . S
O695 Zn692 2.080 1_565 S
O695 C709 1.305 . S
O696 Zn690 1.920 1_565 S
O696 C709 1.234 . S
C697 O702 1.167 . S
C697 O703 1.299 . S
O698 Zn692 2.114 . S
O698 C693 1.166 . S
O699 Zn691 1.905 . S
O699 C693 1.182 . S
O700 Zn691 1.898 1_665 S
O700 C694 1.167 . S
O701 Zn692 2.120 1_665 S
O701 C694 1.299 . S
O702 Zn690 1.898 . S
O702 C697 1.167 . S
O703 Zn692 2.120 . S
O703 C697 1.299 . S
O704 Zn692 2.114 1_655 S
O704 C706 1.166 1_545 S
O705 Zn690 1.905 1_665 S
O705 C706 1.182 . S
C706 O704 1.166 1_565 S
C706 O705 1.182 . S
O707 Zn692 2.080 . S
O707 C710 1.305 1_545 S
O708 Zn691 1.920 1_565 S
O708 C710 1.234 . S
C709 O695 1.305 . S
C709 O696 1.234 . S
C710 O707 1.305 1_565 S
C710 O708 1.234 . S
Zn711 O717 1.920 1_455 S
Zn711 O723 1.898 1_445 S
Zn711 O726 1.905 . S
Zn712 O720 1.905 1_445 S
Zn712 O721 1.898 . S
Zn712 O729 1.920 1_455 S
Zn713 O716 2.080 . S
Zn713 O719 2.114 1_545 S
Zn713 O722 2.120 . S
Zn713 O724 2.120 1_445 S
Zn713 O725 2.114 . S
Zn713 O728 2.080 1_455 S
C714 O719 1.166 1_655 S
C714 O720 1.182 . S
C715 O721 1.167 . S
C715 O722 1.299 . S
O716 Zn713 2.080 . S
O716 C730 1.305 . S
O717 Zn711 1.920 1_655 S
O717 C730 1.234 1_655 S
C718 O723 1.167 . S
C718 O724 1.299 . S
O719 Zn713 2.114 1_565 S
O719 C714 1.166 1_455 S
O720 Zn712 1.905 1_665 S
O720 C714 1.182 . S
O721 Zn712 1.898 . S
O721 C715 1.167 . S
O722 Zn713 2.120 . S
O722 C715 1.299 . S
O723 Zn711 1.898 1_665 S
O723 C718 1.167 . S
O724 Zn713 2.120 1_665 S
O724 C718 1.299 . S
O725 Zn713 2.114 . S
O725 C727 1.166 . S
O726 Zn711 1.905 . S
O726 C727 1.182 . S
C727 O725 1.166 . S
C727 O726 1.182 . S
O728 Zn713 2.080 1_655 S
O728 C731 1.305 . S
O729 Zn712 1.920 1_655 S
O729 C731 1.234 . S
C730 O716 1.305 . S
C730 O717 1.234 1_455 S
C731 O728 1.305 . S
C731 O729 1.234 . S
Zn732 O738 1.920 . S
Zn732 O744 1.898 . S
Zn732 O747 1.905 . S
Zn733 O741 1.905 . S
Zn733 O742 1.898 . S
Zn733 O750 1.920 . S
Zn734 O737 2.080 . S
Zn734 O740 2.114 . S
Zn734 O743 2.120 . S
Zn734 O745 2.120 . S
Zn734 O746 2.114 . S
Zn734 O749 2.080 . S
C735 O740 1.166 . S
C735 O741 1.182 . S
C736 O742 1.167 . S
C736 O743 1.299 . S
O737 Zn734 2.080 . S
O737 C751 1.305 . S
O738 Zn732 1.920 . S
O738 C751 1.234 . S
C739 O744 1.167 . S
C739 O745 1.299 . S
O740 Zn734 2.114 . S
O740 C735 1.166 . S
O741 Zn733 1.905 . S
O741 C735 1.182 . S
O742 Zn733 1.898 . S
O742 C736 1.167 . S
O743 Zn734 2.120 . S
O743 C736 1.299 . S
O744 Zn732 1.898 . S
O744 C739 1.167 . S
O745 Zn734 2.120 . S
O745 C739 1.299 . S
O746 Zn734 2.114 . S
O746 C748 1.166 . S
O747 Zn732 1.905 . S
O747 C748 1.182 . S
C748 O746 1.166 . S
C748 O747 1.182 . S
O749 Zn734 2.080 . S
O749 C752 1.305 . S
O750 Zn733 1.920 . S
O750 C752 1.234 . S
C751 O737 1.305 . S
C751 O738 1.234 . S
C752 O749 1.305 . S
C752 O750 1.234 . S
Zn753 O759 1.920 . S
Zn753 O765 1.898 . S
Zn753 O768 1.905 . S
Zn754 O762 1.905 . S
Zn754 O763 1.898 . S
Zn754 O771 1.920 . S
Zn755 O758 2.080 . S
Zn755 O761 2.114 . S
Zn755 O764 2.120 . S
Zn755 O766 2.120 . S
Zn755 O767 2.114 . S
Zn755 O770 2.080 . S
C756 O761 1.166 . S
C756 O762 1.182 . S
C757 O763 1.167 . S
C757 O764 1.299 . S
O758 Zn755 2.080 . S
O758 C772 1.305 . S
O759 Zn753 1.920 . S
O759 C772 1.234 . S
C760 O765 1.167 . S
C760 O766 1.299 . S
O761 Zn755 2.114 . S
O761 C756 1.166 . S
O762 Zn754 1.905 . S
O762 C756 1.182 . S
O763 Zn754 1.898 . S
O763 C757 1.167 . S
O764 Zn755 2.120 . S
O764 C757 1.299 . S
O765 Zn753 1.898 . S
O765 C760 1.167 . S
O766 Zn755 2.120 . S
O766 C760 1.299 . S
O767 Zn755 2.114 . S
O767 C769 1.166 . S
O768 Zn753 1.905 . S
O768 C769 1.182 . S
C769 O767 1.166 . S
C769 O768 1.182 . S
O770 Zn755 2.080 . S
O770 C773 1.305 . S
O771 Zn754 1.920 . S
O771 C773 1.234 . S
C772 O758 1.305 . S
C772 O759 1.234 . S
C773 O770 1.305 . S
C773 O771 1.234 . S
Zn774 O780 1.920 . S
Zn774 O786 1.898 . S
Zn774 O789 1.905 . S
Zn775 O783 1.905 . S
Zn775 O784 1.898 . S
Zn775 O792 1.920 . S
Zn776 O779 2.080 . S
Zn776 O782 2.114 . S
Zn776 O785 2.120 . S
Zn776 O787 2.120 . S
Zn776 O788 2.114 . S
Zn776 O791 2.080 . S
C777 O782 1.166 . S
C777 O783 1.182 . S
C778 O784 1.167 . S
C778 O785 1.299 . S
O779 Zn776 2.080 . S
O779 C793 1.305 . S
O780 Zn774 1.920 . S
O780 C793 1.234 . S
C781 O786 1.167 . S
C781 O787 1.299 . S
O782 Zn776 2.114 . S
O782 C777 1.166 . S
O783 Zn775 1.905 . S
O783 C777 1.182 . S
O784 Zn775 1.898 . S
O784 C778 1.167 . S
O785 Zn776 2.120 . S
O785 C778 1.299 . S
O786 Zn774 1.898 . S
O786 C781 1.167 . S
O787 Zn776 2.120 . S
O787 C781 1.299 . S
O788 Zn776 2.114 . S
O788 C790 1.166 . S
O789 Zn774 1.905 . S
O789 C790 1.182 . S
C790 O788 1.166 . S
C790 O789 1.182 . S
O791 Zn776 2.080 . S
O791 C794 1.305 . S
O792 Zn775 1.920 . S
O792 C794 1.234 . S
C793 O779 1.305 . S
C793 O780 1.234 . S
C794 O791 1.305 . S
C794 O792 1.234 . S
Zn795 O801 1.920 . S
Zn795 O807 1.898 . S
Zn795 O810 1.905 . S
Zn796 O804 1.905 . S
Zn796 O805 1.898 . S
Zn796 O813 1.920 . S
Zn797 O800 2.070 1_556 S
Zn797 O803 2.114 . S
Zn797 O806 2.120 . S
Zn797 O808 2.111 1_556 S
Zn797 O809 2.085 1_556 S
Zn797 O812 2.080 . S
C798 O803 1.166 . S
C798 O804 1.182 . S
C799 O805 1.167 . S
C799 O806 1.299 . S
O800 Zn797 2.070 1_554 S
O800 C814 1.318 . S
O801 Zn795 1.920 . S
O801 C814 1.234 . S
C802 O807 1.167 . S
C802 O808 1.311 . S
O803 Zn797 2.114 . S
O803 C798 1.166 . S
O804 Zn796 1.905 . S
O804 C798 1.182 . S
O805 Zn796 1.898 . S
O805 C799 1.167 . S
O806 Zn797 2.120 . S
O806 C799 1.299 . S
O807 Zn795 1.898 . S
O807 C802 1.167 . S
O808 Zn797 2.111 1_554 S
O808 C802 1.311 . S
O809 Zn797 2.085 1_554 S
O809 C811 1.209 . S
O810 Zn795 1.905 . S
O810 C811 1.182 . S
C811 O809 1.209 . S
C811 O810 1.182 . S
O812 Zn797 2.080 . S
O812 C815 1.305 . S
O813 Zn796 1.920 . S
O813 C815 1.234 . S
C814 O800 1.318 . S
C814 O801 1.234 . S
C815 O812 1.305 . S
C815 O813 1.234 . S
Zn816 O822 1.920 . S
Zn816 O828 1.898 . S
Zn816 O831 1.905 . S
Zn817 O825 1.905 . S
Zn817 O826 1.898 . S
Zn817 O834 1.920 . S
Zn818 O821 2.080 . S
Zn818 O824 2.114 . S
Zn818 O827 2.120 . S
Zn818 O829 2.120 . S
Zn818 O830 2.114 . S
Zn818 O833 2.080 . S
C819 O824 1.166 . S
C819 O825 1.182 . S
C820 O826 1.167 . S
C820 O827 1.299 . S
O821 Zn818 2.080 . S
O821 C835 1.305 . S
O822 Zn816 1.920 . S
O822 C835 1.234 . S
C823 O828 1.167 . S
C823 O829 1.299 . S
O824 Zn818 2.114 . S
O824 C819 1.166 . S
O825 Zn817 1.905 . S
O825 C819 1.182 . S
O826 Zn817 1.898 . S
O826 C820 1.167 . S
O827 Zn818 2.120 . S
O827 C820 1.299 . S
O828 Zn816 1.898 . S
O828 C823 1.167 . S
O829 Zn818 2.120 . S
O829 C823 1.299 . S
O830 Zn818 2.114 . S
O830 C832 1.166 . S
O831 Zn816 1.905 . S
O831 C832 1.182 . S
C832 O830 1.166 . S
C832 O831 1.182 . S
O833 Zn818 2.080 . S
O833 C836 1.305 . S
O834 Zn817 1.920 . S
O834 C836 1.234 . S
C835 O821 1.305 . S
C835 O822 1.234 . S
C836 O833 1.305 . S
C836 O834 1.234 . S
Zn837 O843 1.920 . S
Zn837 O849 1.898 . S
Zn837 O852 1.905 . S
Zn838 O846 1.905 . S
Zn838 O847 1.898 . S
Zn838 O855 1.920 . S
Zn839 O842 2.080 . S
Zn839 O845 2.086 1_554 S
Zn839 O848 2.112 1_554 S
Zn839 O850 2.120 . S
Zn839 O851 2.114 . S
Zn839 O854 2.067 1_554 S
C840 O845 1.207 . S
C840 O846 1.182 . S
C841 O847 1.167 . S
C841 O848 1.309 . S
O842 Zn839 2.080 . S
O842 C856 1.305 . S
O843 Zn837 1.920 . S
O843 C856 1.234 . S
C844 O849 1.167 . S
C844 O850 1.299 . S
O845 Zn839 2.086 1_556 S
O845 C840 1.207 . S
O846 Zn838 1.905 . S
O846 C840 1.182 . S
O847 Zn838 1.898 . S
O847 C841 1.167 . S
O848 Zn839 2.112 1_556 S
O848 C841 1.309 . S
O849 Zn837 1.898 . S
O849 C844 1.167 . S
O850 Zn839 2.120 . S
O850 C844 1.299 . S
O851 Zn839 2.114 . S
O851 C853 1.166 . S
O852 Zn837 1.905 . S
O852 C853 1.182 . S
C853 O851 1.166 . S
C853 O852 1.182 . S
O854 Zn839 2.067 1_556 S
O854 C857 1.322 . S
O855 Zn838 1.920 . S
O855 C857 1.234 . S
C856 O842 1.305 . S
C856 O843 1.234 . S
C857 O854 1.322 . S
C857 O855 1.234 . S
Zn858 O864 1.920 . S
Zn858 O870 1.898 . S
Zn858 O873 1.905 . S
Zn859 O867 1.905 . S
Zn859 O868 1.898 . S
Zn859 O876 1.920 . S
Zn860 O863 2.080 . S
Zn860 O866 2.114 . S
Zn860 O869 2.120 . S
Zn860 O871 2.120 . S
Zn860 O872 2.114 . S
Zn860 O875 2.080 . S
C861 O866 1.166 . S
C861 O867 1.182 . S
C862 O868 1.167 . S
C862 O869 1.299 . S
O863 Zn860 2.080 . S
O863 C877 1.305 . S
O864 Zn858 1.920 . S
O864 C877 1.234 . S
C865 O870 1.167 . S
C865 O871 1.299 . S
O866 Zn860 2.114 . S
O866 C861 1.166 . S
O867 Zn859 1.905 . S
O867 C861 1.182 . S
O868 Zn859 1.898 . S
O868 C862 1.167 . S
O869 Zn860 2.120 . S
O869 C862 1.299 . S
O870 Zn858 1.898 . S
O870 C865 1.167 . S
O871 Zn860 2.120 . S
O871 C865 1.299 . S
O872 Zn860 2.114 . S
O872 C874 1.166 . S
O873 Zn858 1.905 . S
O873 C874 1.182 . S
C874 O872 1.166 . S
C874 O873 1.182 . S
O875 Zn860 2.080 . S
O875 C878 1.305 . S
O876 Zn859 1.920 . S
O876 C878 1.234 . S
C877 O863 1.305 . S
C877 O864 1.234 . S
C878 O875 1.305 . S
C878 O876 1.234 . S
Zn879 O885 1.920 . S
Zn879 O891 1.898 . S
Zn879 O894 1.905 . S
Zn880 O888 1.905 . S
Zn880 O889 1.898 . S
Zn880 O897 1.920 . S
Zn881 O884 2.080 . S
Zn881 O887 2.114 . S
Zn881 O890 2.120 . S
Zn881 O892 2.120 . S
Zn881 O893 2.114 . S
Zn881 O896 2.080 . S
C882 O887 1.166 . S
C882 O888 1.182 . S
C883 O889 1.167 . S
C883 O890 1.299 . S
O884 Zn881 2.080 . S
O884 C898 1.305 . S
O885 Zn879 1.920 . S
O885 C898 1.234 . S
C886 O891 1.167 . S
C886 O892 1.299 . S
O887 Zn881 2.114 . S
O887 C882 1.166 . S
O888 Zn880 1.905 . S
O888 C882 1.182 . S
O889 Zn880 1.898 . S
O889 C883 1.167 . S
O890 Zn881 2.120 . S
O890 C883 1.299 . S
O891 Zn879 1.898 . S
O891 C886 1.167 . S
O892 Zn881 2.120 . S
O892 C886 1.299 . S
O893 Zn881 2.114 . S
O893 C895 1.166 . S
O894 Zn879 1.905 . S
O894 C895 1.182 . S
C895 O893 1.166 . S
C895 O894 1.182 . S
O896 Zn881 2.080 . S
O896 C899 1.305 . S
O897 Zn880 1.920 . S
O897 C899 1.234 . S
C898 O884 1.305 . S
C898 O885 1.234 . S
C899 O896 1.305 . S
C899 O897 1.234 . S
C900 C901 1.387 . S
C900 H904 0.950 . S
C900 C909 1.390 . S
C901 C900 1.387 . S
C901 C903 1.387 . S
H902 C909 0.950 . S
C903 C901 1.387 . S
C903 C905 1.390 . S
C903 H907 0.950 . S
H904 C900 0.950 . S
C905 C903 1.390 . S
C905 C906 1.387 . S
C905 H908 0.950 . S
C906 C905 1.387 . S
C906 C909 1.387 . S
H907 C903 0.950 . S
H908 C905 0.950 . S
C909 C900 1.390 . S
C909 H902 0.950 . S
C909 C906 1.387 . S
C910 C911 1.387 1_565 S
C910 H914 0.950 . S
C910 C919 1.390 . S
C911 C910 1.387 1_545 S
C911 C913 1.387 . S
H912 C919 0.950 . S
C913 C911 1.387 . S
C913 C915 1.390 . S
C913 H917 0.950 . S
H914 C910 0.950 . S
C915 C913 1.390 . S
C915 C916 1.387 . S
C915 H918 0.950 . S
C916 C915 1.387 . S
C916 C919 1.387 1_545 S
H917 C913 0.950 . S
H918 C915 0.950 . S
C919 C910 1.390 . S
C919 H912 0.950 . S
C919 C916 1.387 1_565 S
C920 C921 1.387 . S
C920 H924 0.950 . S
C920 C929 1.390 . S
C921 C920 1.387 . S
C921 C923 1.387 1_455 S
H922 C929 0.950 . S
C923 C921 1.387 1_655 S
C923 C925 1.390 . S
C923 H927 0.950 . S
H924 C920 0.950 . S
C925 C923 1.390 . S
C925 C926 1.387 1_655 S
C925 H928 0.950 . S
C926 C925 1.387 1_455 S
C926 C929 1.387 . S
H927 C923 0.950 . S
H928 C925 0.950 . S
C929 C920 1.390 . S
C929 H922 0.950 . S
C929 C926 1.387 . S
C930 C931 1.387 . S
C930 H934 0.950 . S
C930 C939 1.390 . S
C931 C930 1.387 . S
C931 C933 1.387 . S
H932 C939 0.950 . S
C933 C931 1.387 . S
C933 C935 1.390 . S
C933 H937 0.950 . S
H934 C930 0.950 . S
C935 C933 1.390 . S
C935 C936 1.387 . S
C935 H938 0.950 . S
C936 C935 1.387 . S
C936 C939 1.387 . S
H937 C933 0.950 . S
H938 C935 0.950 . S
C939 C930 1.390 . S
C939 H932 0.950 . S
C939 C936 1.387 . S
C940 C941 1.387 1_565 S
C940 H944 0.950 . S
C940 C949 1.390 . S
C941 C940 1.387 1_545 S
C941 C943 1.387 . S
H942 C949 0.950 . S
C943 C941 1.387 . S
C943 C945 1.390 . S
C943 H947 0.950 . S
H944 C940 0.950 . S
C945 C943 1.390 . S
C945 C946 1.387 . S
C945 H948 0.950 . S
C946 C945 1.387 . S
C946 C949 1.387 1_545 S
H947 C943 0.950 . S
H948 C945 0.950 . S
C949 C940 1.390 . S
C949 H942 0.950 . S
C949 C946 1.387 1_565 S
C950 C951 1.387 . S
C950 H954 0.950 1_455 S
C950 C959 1.390 . S
C951 C950 1.387 . S
C951 C953 1.387 . S
H952 C959 0.950 . S
C953 C951 1.387 . S
C953 C955 1.390 . S
C953 H957 0.950 . S
H954 C950 0.950 1_655 S
C955 C953 1.390 . S
C955 C956 1.387 . S
C955 H958 0.950 . S
C956 C955 1.387 . S
C956 C959 1.387 . S
H957 C953 0.950 . S
H958 C955 0.950 . S
C959 C950 1.390 . S
C959 H952 0.950 . S
C959 C956 1.387 . S
C960 C961 1.387 . S
C960 H964 0.950 . S
C960 C969 1.390 . S
C961 C960 1.387 . S
C961 C963 1.387 . S
H962 C969 0.950 . S
C963 C961 1.387 . S
C963 C965 1.390 . S
C963 H967 0.950 . S
H964 C960 0.950 . S
C965 C963 1.390 . S
C965 C966 1.387 . S
C965 H968 0.950 . S
C966 C965 1.387 . S
C966 C969 1.387 . S
H967 C963 0.950 . S
H968 C965 0.950 . S
C969 C960 1.390 . S
C969 H962 0.950 . S
C969 C966 1.387 . S
C970 C971 1.387 . S
C970 H974 0.950 . S
C970 C979 1.390 . S
C971 C970 1.387 . S
C971 C973 1.387 1_545 S
H972 C979 0.950 . S
C973 C971 1.387 1_565 S
C973 C975 1.390 . S
C973 H977 0.950 . S
H974 C970 0.950 . S
C975 C973 1.390 . S
C975 C976 1.387 . S
C975 H978 0.950 . S
C976 C975 1.387 . S
C976 C979 1.387 1_565 S
H977 C973 0.950 . S
H978 C975 0.950 . S
C979 C970 1.390 . S
C979 H972 0.950 . S
C979 C976 1.387 1_545 S
C980 C981 1.387 1_655 S
C980 H984 0.950 . S
C980 C989 1.390 . S
C981 C980 1.387 1_455 S
C981 C983 1.387 . S
H982 C989 0.950 . S
C983 C981 1.387 . S
C983 C985 1.390 . S
C983 H987 0.950 . S
H984 C980 0.950 . S
C985 C983 1.390 . S
C985 C986 1.387 . S
C985 H988 0.950 . S
C986 C985 1.387 . S
C986 C989 1.387 1_455 S
H987 C983 0.950 . S
H988 C985 0.950 . S
C989 C980 1.390 . S
C989 H982 0.950 . S
C989 C986 1.387 1_655 S
C990 C991 1.387 . S
C990 H994 0.950 . S
C990 C999 1.390 . S
C991 C990 1.387 . S
C991 C993 1.387 . S
H992 C999 0.950 . S
C993 C991 1.387 . S
C993 C995 1.390 . S
C993 H997 0.950 . S
H994 C990 0.950 . S
C995 C993 1.390 . S
C995 C996 1.387 . S
C995 H998 0.950 . S
C996 C995 1.387 . S
C996 C999 1.387 . S
H997 C993 0.950 . S
H998 C995 0.950 . S
C999 C990 1.390 . S
C999 H992 0.950 . S
C999 C996 1.387 . S
C1000 C1001 1.387 1_565 S
C1000 H1004 0.950 . S
C1000 C1009 1.390 . S
C1001 C1000 1.387 1_545 S
C1001 C1003 1.387 . S
H1002 C1009 0.950 . S
C1003 C1001 1.387 . S
C1003 C1005 1.390 . S
C1003 H1007 0.950 . S
H1004 C1000 0.950 . S
C1005 C1003 1.390 . S
C1005 C1006 1.387 . S
C1005 H1008 0.950 . S
C1006 C1005 1.387 . S
C1006 C1009 1.387 1_545 S
H1007 C1003 0.950 . S
H1008 C1005 0.950 . S
C1009 C1000 1.390 . S
C1009 H1002 0.950 . S
C1009 C1006 1.387 1_565 S
C1010 C1011 1.387 . S
C1010 H1014 0.950 . S
C1010 C1019 1.390 . S
C1011 C1010 1.387 . S
C1011 C1013 1.387 1_455 S
H1012 C1019 0.950 . S
C1013 C1011 1.387 1_655 S
C1013 C1015 1.390 . S
C1013 H1017 0.950 . S
H1014 C1010 0.950 . S
C1015 C1013 1.390 . S
C1015 C1016 1.387 1_655 S
C1015 H1018 0.950 . S
C1016 C1015 1.387 1_455 S
C1016 C1019 1.387 . S
H1017 C1013 0.950 . S
H1018 C1015 0.950 . S
C1019 C1010 1.390 . S
C1019 H1012 0.950 . S
C1019 C1016 1.387 . S
C1020 C1021 1.387 . S
C1020 H1024 0.950 . S
C1020 C1029 1.390 . S
C1021 C1020 1.387 . S
C1021 C1023 1.387 . S
H1022 C1029 0.950 . S
C1023 C1021 1.387 . S
C1023 C1025 1.390 . S
C1023 H1027 0.950 . S
H1024 C1020 0.950 . S
C1025 C1023 1.390 . S
C1025 C1026 1.387 . S
C1025 H1028 0.950 . S
C1026 C1025 1.387 . S
C1026 C1029 1.387 . S
H1027 C1023 0.950 . S
H1028 C1025 0.950 . S
C1029 C1020 1.390 . S
C1029 H1022 0.950 . S
C1029 C1026 1.387 . S
C1030 C1031 1.387 . S
C1030 H1034 0.950 . S
C1030 C1039 1.390 . S
C1031 C1030 1.387 . S
C1031 C1033 1.387 . S
H1032 C1039 0.950 . S
C1033 C1031 1.387 . S
C1033 C1035 1.390 . S
C1033 H1037 0.950 . S
H1034 C1030 0.950 . S
C1035 C1033 1.390 . S
C1035 C1036 1.387 . S
C1035 H1038 0.950 . S
C1036 C1035 1.387 . S
C1036 C1039 1.387 . S
H1037 C1033 0.950 . S
H1038 C1035 0.950 . S
C1039 C1030 1.390 . S
C1039 H1032 0.950 . S
C1039 C1036 1.387 . S
C1040 C1041 1.387 . S
C1040 H1044 0.950 . S
C1040 C1049 1.390 . S
C1041 C1040 1.387 . S
C1041 C1043 1.387 . S
H1042 C1049 0.950 . S
C1043 C1041 1.387 . S
C1043 C1045 1.390 . S
C1043 H1047 0.950 . S
H1044 C1040 0.950 . S
C1045 C1043 1.390 . S
C1045 C1046 1.387 . S
C1045 H1048 0.950 . S
C1046 C1045 1.387 . S
C1046 C1049 1.387 . S
H1047 C1043 0.950 . S
H1048 C1045 0.950 . S
C1049 C1040 1.390 . S
C1049 H1042 0.950 . S
C1049 C1046 1.387 . S
C1050 C1051 1.387 . S
C1050 H1054 0.950 . S
C1050 C1059 1.390 . S
C1051 C1050 1.387 . S
C1051 C1053 1.387 . S
H1052 C1059 0.950 . S
C1053 C1051 1.387 . S
C1053 C1055 1.390 . S
C1053 H1057 0.950 . S
H1054 C1050 0.950 . S
C1055 C1053 1.390 . S
C1055 C1056 1.387 . S
C1055 H1058 0.950 . S
C1056 C1055 1.387 . S
C1056 C1059 1.387 . S
H1057 C1053 0.950 . S
H1058 C1055 0.950 . S
C1059 C1050 1.390 . S
C1059 H1052 0.950 . S
C1059 C1056 1.387 . S
C1060 C1061 1.387 . S
C1060 H1064 0.950 . S
C1060 C1069 1.390 . S
C1061 C1060 1.387 . S
C1061 C1063 1.387 . S
H1062 C1069 0.950 . S
C1063 C1061 1.387 . S
C1063 C1065 1.390 . S
C1063 H1067 0.950 . S
H1064 C1060 0.950 . S
C1065 C1063 1.390 . S
C1065 C1066 1.387 . S
C1065 H1068 0.950 . S
C1066 C1065 1.387 . S
C1066 C1069 1.387 . S
H1067 C1063 0.950 . S
H1068 C1065 0.950 . S
C1069 C1060 1.390 . S
C1069 H1062 0.950 . S
C1069 C1066 1.387 . S
C1070 C1071 1.387 . S
C1070 H1074 0.950 . S
C1070 C1079 1.390 . S
C1071 C1070 1.387 . S
C1071 C1073 1.387 . S
H1072 C1079 0.950 . S
C1073 C1071 1.387 . S
C1073 C1075 1.390 . S
C1073 H1077 0.950 . S
H1074 C1070 0.950 . S
C1075 C1073 1.390 . S
C1075 C1076 1.387 . S
C1075 H1078 0.950 . S
C1076 C1075 1.387 . S
C1076 C1079 1.387 . S
H1077 C1073 0.950 . S
H1078 C1075 0.950 . S
C1079 C1070 1.390 . S
C1079 H1072 0.950 . S
C1079 C1076 1.387 . S
C1080 C1081 1.387 . S
C1080 H1084 0.950 . S
C1080 C1089 1.390 . S
C1081 C1080 1.387 . S
C1081 C1083 1.387 . S
H1082 C1089 0.950 . S
C1083 C1081 1.387 . S
C1083 C1085 1.390 . S
C1083 H1087 0.950 . S
H1084 C1080 0.950 . S
C1085 C1083 1.390 . S
C1085 C1086 1.387 . S
C1085 H1088 0.950 . S
C1086 C1085 1.387 . S
C1086 C1089 1.387 . S
H1087 C1083 0.950 . S
H1088 C1085 0.950 . S
C1089 C1080 1.390 . S
C1089 H1082 0.950 . S
C1089 C1086 1.387 . S
C1090 C1091 1.387 . S
C1090 H1094 0.950 . S
C1090 C1099 1.390 . S
C1091 C1090 1.387 . S
C1091 C1093 1.387 . S
H1092 C1099 0.950 . S
C1093 C1091 1.387 . S
C1093 C1095 1.390 . S
C1093 H1097 0.950 . S
H1094 C1090 0.950 . S
C1095 C1093 1.390 . S
C1095 C1096 1.387 . S
C1095 H1098 0.950 . S
C1096 C1095 1.387 . S
C1096 C1099 1.387 . S
H1097 C1093 0.950 . S
H1098 C1095 0.950 . S
C1099 C1090 1.390 . S
C1099 H1092 0.950 . S
C1099 C1096 1.387 . S
C1100 C1101 1.387 . S
C1100 H1104 0.950 . S
C1100 C1109 1.390 . S
C1101 C1100 1.387 . S
C1101 C1103 1.387 . S
H1102 C1109 0.950 . S
C1103 C1101 1.387 . S
C1103 C1105 1.390 . S
C1103 H1107 0.950 . S
H1104 C1100 0.950 . S
C1105 C1103 1.390 . S
C1105 C1106 1.387 . S
C1105 H1108 0.950 . S
C1106 C1105 1.387 . S
C1106 C1109 1.387 . S
H1107 C1103 0.950 . S
H1108 C1105 0.950 . S
C1109 C1100 1.390 . S
C1109 H1102 0.950 . S
C1109 C1106 1.387 . S
C1110 C1111 1.387 . S
C1110 H1114 0.950 . S
C1110 C1119 1.390 . S
C1111 C1110 1.387 . S
C1111 C1113 1.387 . S
H1112 C1119 0.950 . S
C1113 C1111 1.387 . S
C1113 C1115 1.390 . S
C1113 H1117 0.950 . S
H1114 C1110 0.950 . S
C1115 C1113 1.390 . S
C1115 C1116 1.387 . S
C1115 H1118 0.950 . S
C1116 C1115 1.387 . S
C1116 C1119 1.387 . S
H1117 C1113 0.950 . S
H1118 C1115 0.950 . S
C1119 C1110 1.390 . S
C1119 H1112 0.950 . S
C1119 C1116 1.387 . S
C1120 C1121 1.387 . S
C1120 H1124 0.950 . S
C1120 C1129 1.390 . S
C1121 C1120 1.387 . S
C1121 C1123 1.387 . S
H1122 C1129 0.950 . S
C1123 C1121 1.387 . S
C1123 C1125 1.390 . S
C1123 H1127 0.950 . S
H1124 C1120 0.950 . S
C1125 C1123 1.390 . S
C1125 C1126 1.387 . S
C1125 H1128 0.950 . S
C1126 C1125 1.387 . S
C1126 C1129 1.387 . S
H1127 C1123 0.950 . S
H1128 C1125 0.950 . S
C1129 C1120 1.390 . S
C1129 H1122 0.950 . S
C1129 C1126 1.387 . S
C1130 C1131 1.387 . S
C1130 H1134 0.950 . S
C1130 C1139 1.390 . S
C1131 C1130 1.387 . S
C1131 C1133 1.387 . S
H1132 C1139 0.950 . S
C1133 C1131 1.387 . S
C1133 C1135 1.390 . S
C1133 H1137 0.950 . S
H1134 C1130 0.950 . S
C1135 C1133 1.390 . S
C1135 C1136 1.387 . S
C1135 H1138 0.950 . S
C1136 C1135 1.387 . S
C1136 C1139 1.387 . S
H1137 C1133 0.950 . S
H1138 C1135 0.950 . S
C1139 C1130 1.390 . S
C1139 H1132 0.950 . S
C1139 C1136 1.387 . S
C1140 C1141 1.387 . S
C1140 H1144 0.950 . S
C1140 C1149 1.390 . S
C1141 C1140 1.387 . S
C1141 C1143 1.387 . S
H1142 C1149 0.950 . S
C1143 C1141 1.387 . S
C1143 C1145 1.390 . S
C1143 H1147 0.950 . S
H1144 C1140 0.950 . S
C1145 C1143 1.390 . S
C1145 C1146 1.387 . S
C1145 H1148 0.950 . S
C1146 C1145 1.387 . S
C1146 C1149 1.387 . S
H1147 C1143 0.950 . S
H1148 C1145 0.950 . S
C1149 C1140 1.390 . S
C1149 H1142 0.950 . S
C1149 C1146 1.387 . S
C1150 C1151 1.387 . S
C1150 H1154 0.950 . S
C1150 C1159 1.390 . S
C1151 C1150 1.387 . S
C1151 C1153 1.387 . S
H1152 C1159 0.950 . S
C1153 C1151 1.387 . S
C1153 C1155 1.390 . S
C1153 H1157 0.950 . S
H1154 C1150 0.950 . S
C1155 C1153 1.390 . S
C1155 C1156 1.387 . S
C1155 H1158 0.950 . S
C1156 C1155 1.387 . S
C1156 C1159 1.387 . S
H1157 C1153 0.950 . S
H1158 C1155 0.950 . S
C1159 C1150 1.390 . S
C1159 H1152 0.950 . S
C1159 C1156 1.387 . S
C1160 C1161 1.387 . S
C1160 H1164 0.950 . S
C1160 C1169 1.390 . S
C1161 C1160 1.387 . S
C1161 C1163 1.387 . S
H1162 C1169 0.950 . S
C1163 C1161 1.387 . S
C1163 C1165 1.390 . S
C1163 H1167 0.950 . S
H1164 C1160 0.950 . S
C1165 C1163 1.390 . S
C1165 C1166 1.387 . S
C1165 H1168 0.950 . S
C1166 C1165 1.387 . S
C1166 C1169 1.387 . S
H1167 C1163 0.950 . S
H1168 C1165 0.950 . S
C1169 C1160 1.390 . S
C1169 H1162 0.950 . S
C1169 C1166 1.387 . S
C1170 C1171 1.387 . S
C1170 H1174 0.950 . S
C1170 C1179 1.390 . S
C1171 C1170 1.387 . S
C1171 C1173 1.387 . S
H1172 C1179 0.949 . S
C1173 C1171 1.387 . S
C1173 C1175 1.390 . S
C1173 H1177 0.950 . S
H1174 C1170 0.950 . S
C1175 C1173 1.390 . S
C1175 C1176 1.387 . S
C1175 H1178 0.950 . S
C1176 C1175 1.387 . S
C1176 C1179 1.387 . S
H1177 C1173 0.950 . S
H1178 C1175 0.950 . S
C1179 C1170 1.390 . S
C1179 H1172 0.949 . S
C1179 C1176 1.387 . S
C1180 C1181 1.387 . S
C1180 H1184 0.950 . S
C1180 C1189 1.390 . S
C1181 C1180 1.387 . S
C1181 C1183 1.387 . S
H1182 C1189 0.950 . S
C1183 C1181 1.387 . S
C1183 C1185 1.390 . S
C1183 H1187 0.950 . S
H1184 C1180 0.950 . S
C1185 C1183 1.390 . S
C1185 C1186 1.387 . S
C1185 H1188 0.950 . S
C1186 C1185 1.387 . S
C1186 C1189 1.387 . S
H1187 C1183 0.950 . S
H1188 C1185 0.950 . S
C1189 C1180 1.390 . S
C1189 H1182 0.950 . S
C1189 C1186 1.387 . S
C1190 C1191 1.387 . S
C1190 H1194 0.950 . S
C1190 C1199 1.390 . S
C1191 C1190 1.387 . S
C1191 C1193 1.387 . S
H1192 C1199 0.950 1_554 S
C1193 C1191 1.387 . S
C1193 C1195 1.390 . S
C1193 H1197 0.950 . S
H1194 C1190 0.950 . S
C1195 C1193 1.390 . S
C1195 C1196 1.387 . S
C1195 H1198 0.950 . S
C1196 C1195 1.387 . S
C1196 C1199 1.387 . S
H1197 C1193 0.950 . S
H1198 C1195 0.950 . S
C1199 C1190 1.390 . S
C1199 H1192 0.950 1_556 S
C1199 C1196 1.387 . S
C1200 C1201 1.387 . S
C1200 H1204 0.950 . S
C1200 C1209 1.390 . S
C1201 C1200 1.387 . S
C1201 C1203 1.387 . S
H1202 C1209 0.950 . S
C1203 C1201 1.387 . S
C1203 C1205 1.390 . S
C1203 H1207 0.950 . S
H1204 C1200 0.950 . S
C1205 C1203 1.390 . S
C1205 C1206 1.387 . S
C1205 H1208 0.950 . S
C1206 C1205 1.387 . S
C1206 C1209 1.387 . S
H1207 C1203 0.950 . S
H1208 C1205 0.950 . S
C1209 C1200 1.390 . S
C1209 H1202 0.950 . S
C1209 C1206 1.387 . S
C1210 C1211 1.387 . S
C1210 H1214 0.950 . S
C1210 C1219 1.390 . S
C1211 C1210 1.387 . S
C1211 C1213 1.387 . S
H1212 C1219 0.950 . S
C1213 C1211 1.387 . S
C1213 C1215 1.390 . S
C1213 H1217 0.950 . S
H1214 C1210 0.950 . S
C1215 C1213 1.390 . S
C1215 C1216 1.387 . S
C1215 H1218 0.950 . S
C1216 C1215 1.387 . S
C1216 C1219 1.387 . S
H1217 C1213 0.950 . S
H1218 C1215 0.950 . S
C1219 C1210 1.390 . S
C1219 H1212 0.950 . S
C1219 C1216 1.387 . S
C1220 C1221 1.387 . S
C1220 H1224 0.950 . S
C1220 C1229 1.390 . S
C1221 C1220 1.387 . S
C1221 C1223 1.387 . S
H1222 C1229 0.950 . S
C1223 C1221 1.387 . S
C1223 C1225 1.390 . S
C1223 H1227 0.950 . S
H1224 C1220 0.950 . S
C1225 C1223 1.390 . S
C1225 C1226 1.387 . S
C1225 H1228 0.950 . S
C1226 C1225 1.387 . S
C1226 C1229 1.387 . S
H1227 C1223 0.950 . S
H1228 C1225 0.950 . S
C1229 C1220 1.390 . S
C1229 H1222 0.950 . S
C1229 C1226 1.387 . S
C1230 C1231 1.387 . S
C1230 H1234 0.950 . S
C1230 C1239 1.390 . S
C1231 C1230 1.387 . S
C1231 C1233 1.387 . S
H1232 C1239 0.950 . S
C1233 C1231 1.387 . S
C1233 C1235 1.390 . S
C1233 H1237 0.950 . S
H1234 C1230 0.950 . S
C1235 C1233 1.390 . S
C1235 C1236 1.387 . S
C1235 H1238 0.950 . S
C1236 C1235 1.387 . S
C1236 C1239 1.387 . S
H1237 C1233 0.950 . S
H1238 C1235 0.950 . S
C1239 C1230 1.390 . S
C1239 H1232 0.950 . S
C1239 C1236 1.387 . S
C1240 C1241 1.387 . S
C1240 H1244 0.950 . S
C1240 C1249 1.390 . S
C1241 C1240 1.387 . S
C1241 C1243 1.387 . S
H1242 C1249 0.950 . S
C1243 C1241 1.387 . S
C1243 C1245 1.390 . S
C1243 H1247 0.950 . S
H1244 C1240 0.950 . S
C1245 C1243 1.390 . S
C1245 C1246 1.387 . S
C1245 H1248 0.950 . S
C1246 C1245 1.387 . S
C1246 C1249 1.387 . S
H1247 C1243 0.950 . S
H1248 C1245 0.950 . S
C1249 C1240 1.390 . S
C1249 H1242 0.950 . S
C1249 C1246 1.387 . S
C1250 C1251 1.387 . S
C1250 H1254 0.950 . S
C1250 C1259 1.390 . S
C1251 C1250 1.387 . S
C1251 C1253 1.387 . S
H1252 C1259 0.950 . S
C1253 C1251 1.387 . S
C1253 C1255 1.390 . S
C1253 H1257 0.950 . S
H1254 C1250 0.950 . S
C1255 C1253 1.390 . S
C1255 C1256 1.387 . S
C1255 H1258 0.950 . S
C1256 C1255 1.387 . S
C1256 C1259 1.387 . S
H1257 C1253 0.950 . S
H1258 C1255 0.950 . S
C1259 C1250 1.390 . S
C1259 H1252 0.950 . S
C1259 C1256 1.387 . S
C1260 C1261 1.387 . S
C1260 H1264 0.950 . S
C1260 C1269 1.390 . S
C1261 C1260 1.387 . S
C1261 C1263 1.387 1_545 S
H1262 C1269 0.950 . S
C1263 C1261 1.387 1_565 S
C1263 C1265 1.390 . S
C1263 H1267 0.950 . S
H1264 C1260 0.950 . S
C1265 C1263 1.390 . S
C1265 C1266 1.387 1_565 S
C1265 H1268 0.950 . S
C1266 C1265 1.387 1_545 S
C1266 C1269 1.387 . S
H1267 C1263 0.950 . S
H1268 C1265 0.950 . S
C1269 C1260 1.390 . S
C1269 H1262 0.950 . S
C1269 C1266 1.387 . S
C1270 C1271 1.387 . S
C1270 H1274 0.950 . S
C1270 C1279 1.390 . S
C1271 C1270 1.387 . S
C1271 C1273 1.387 . S
H1272 C1279 0.950 . S
C1273 C1271 1.387 . S
C1273 C1275 1.390 . S
C1273 H1277 0.945 . S
H1274 C1270 0.950 . S
C1275 C1273 1.390 . S
C1275 C1276 1.387 . S
C1275 H1278 0.950 . S
C1276 C1275 1.387 . S
C1276 C1279 1.387 . S
H1277 C1273 0.945 . S
H1278 C1275 0.950 . S
C1279 C1270 1.390 . S
C1279 H1272 0.950 . S
C1279 C1276 1.387 . S
C1280 C1281 1.387 . S
C1280 H1284 0.950 . S
C1280 C1289 1.390 . S
C1281 C1280 1.387 . S
C1281 C1283 1.387 . S
H1282 C1289 0.950 . S
C1283 C1281 1.387 . S
C1283 C1285 1.390 . S
C1283 H1287 0.950 . S
H1284 C1280 0.950 . S
C1285 C1283 1.390 . S
C1285 C1286 1.387 . S
C1285 H1288 0.950 . S
C1286 C1285 1.387 . S
C1286 C1289 1.387 . S
H1287 C1283 0.950 . S
H1288 C1285 0.950 . S
C1289 C1280 1.390 . S
C1289 H1282 0.950 . S
C1289 C1286 1.387 . S
C1290 C1291 1.387 . S
C1290 H1294 0.950 . S
C1290 C1299 1.390 . S
C1291 C1290 1.387 . S
C1291 C1293 1.387 . S
H1292 C1299 0.950 . S
C1293 C1291 1.387 . S
C1293 C1295 1.390 . S
C1293 H1297 0.950 . S
H1294 C1290 0.950 . S
C1295 C1293 1.390 . S
C1295 C1296 1.387 . S
C1295 H1298 0.950 . S
C1296 C1295 1.387 . S
C1296 C1299 1.387 . S
H1297 C1293 0.950 . S
H1298 C1295 0.950 . S
C1299 C1290 1.390 . S
C1299 H1292 0.950 . S
C1299 C1296 1.387 . S
C1300 C1301 1.387 . S
C1300 H1304 0.950 . S
C1300 C1309 1.390 . S
C1301 C1300 1.387 . S
C1301 C1303 1.387 . S
H1302 C1309 0.950 . S
C1303 C1301 1.387 . S
C1303 C1305 1.390 . S
C1303 H1307 0.950 . S
H1304 C1300 0.950 . S
C1305 C1303 1.390 . S
C1305 C1306 1.387 . S
C1305 H1308 0.950 . S
C1306 C1305 1.387 . S
C1306 C1309 1.387 . S
H1307 C1303 0.950 . S
H1308 C1305 0.950 . S
C1309 C1300 1.390 . S
C1309 H1302 0.950 . S
C1309 C1306 1.387 . S
C1310 C1311 1.387 . S
C1310 H1314 0.950 . S
C1310 C1319 1.390 . S
C1311 C1310 1.387 . S
C1311 C1313 1.387 1_565 S
H1312 C1319 0.950 . S
C1313 C1311 1.387 1_545 S
C1313 C1315 1.390 . S
C1313 H1317 0.950 . S
H1314 C1310 0.950 . S
C1315 C1313 1.390 . S
C1315 C1316 1.387 1_545 S
C1315 H1318 0.950 . S
C1316 C1315 1.387 1_565 S
C1316 C1319 1.387 . S
H1317 C1313 0.950 . S
H1318 C1315 0.950 . S
C1319 C1310 1.390 . S
C1319 H1312 0.950 . S
C1319 C1316 1.387 . S
C1320 C1321 1.387 . S
C1320 H1324 0.950 . S
C1320 C1329 1.390 . S
C1321 C1320 1.387 . S
C1321 C1323 1.387 1_565 S
H1322 C1329 0.950 . S
C1323 C1321 1.387 1_545 S
C1323 C1325 1.390 . S
C1323 H1327 0.950 . S
H1324 C1320 0.950 . S
C1325 C1323 1.390 . S
C1325 C1326 1.387 1_545 S
C1325 H1328 0.950 . S
C1326 C1325 1.387 1_565 S
C1326 C1329 1.387 . S
H1327 C1323 0.950 . S
H1328 C1325 0.950 . S
C1329 C1320 1.390 . S
C1329 H1322 0.950 . S
C1329 C1326 1.387 . S
C1330 C1331 1.387 . S
C1330 H1334 0.950 . S
C1330 C1339 1.390 . S
C1331 C1330 1.387 . S
C1331 C1333 1.387 . S
H1332 C1339 0.950 . S
C1333 C1331 1.387 . S
C1333 C1335 1.390 . S
C1333 H1337 0.950 . S
H1334 C1330 0.950 . S
C1335 C1333 1.390 . S
C1335 C1336 1.387 . S
C1335 H1338 0.950 . S
C1336 C1335 1.387 . S
C1336 C1339 1.387 . S
H1337 C1333 0.950 . S
H1338 C1335 0.950 . S
C1339 C1330 1.390 . S
C1339 H1332 0.950 . S
C1339 C1336 1.387 . S
C1340 C1341 1.387 . S
C1340 H1344 0.950 . S
C1340 C1349 1.390 . S
C1341 C1340 1.387 . S
C1341 C1343 1.387 . S
H1342 C1349 0.950 . S
C1343 C1341 1.387 . S
C1343 C1345 1.390 . S
C1343 H1347 0.950 . S
H1344 C1340 0.950 . S
C1345 C1343 1.390 . S
C1345 C1346 1.387 . S
C1345 H1348 0.950 . S
C1346 C1345 1.387 . S
C1346 C1349 1.387 . S
H1347 C1343 0.950 . S
H1348 C1345 0.950 . S
C1349 C1340 1.390 . S
C1349 H1342 0.950 . S
C1349 C1346 1.387 . S
C1350 C1351 1.387 . S
C1350 H1354 0.950 . S
C1350 C1359 1.390 . S
C1351 C1350 1.387 . S
C1351 C1353 1.387 1_655 S
H1352 C1359 0.950 . S
C1353 C1351 1.387 1_455 S
C1353 C1355 1.390 . S
C1353 H1357 0.950 . S
H1354 C1350 0.950 . S
C1355 C1353 1.390 . S
C1355 C1356 1.387 1_455 S
C1355 H1358 0.950 . S
C1356 C1355 1.387 1_655 S
C1356 C1359 1.387 . S
H1357 C1353 0.950 . S
H1358 C1355 0.950 . S
C1359 C1350 1.390 . S
C1359 H1352 0.950 . S
C1359 C1356 1.387 . S
C1360 C1361 1.387 . S
C1360 H1364 0.950 . S
C1360 C1369 1.390 . S
C1361 C1360 1.387 . S
C1361 C1363 1.387 . S
H1362 C1369 0.950 . S
C1363 C1361 1.387 . S
C1363 C1365 1.390 . S
C1363 H1367 0.950 . S
H1364 C1360 0.950 . S
C1365 C1363 1.390 . S
C1365 C1366 1.387 . S
C1365 H1368 0.950 . S
C1366 C1365 1.387 . S
C1366 C1369 1.387 . S
H1367 C1363 0.950 . S
H1368 C1365 0.950 . S
C1369 C1360 1.390 . S
C1369 H1362 0.950 . S
C1369 C1366 1.387 . S
C1370 C1371 1.387 . S
C1370 H1374 0.950 1_545 S
C1370 C1379 1.390 . S
C1371 C1370 1.387 . S
C1371 C1373 1.387 . S
H1372 C1379 0.950 1_565 S
C1373 C1371 1.387 . S
C1373 C1375 1.390 . S
C1373 H1377 0.950 . S
H1374 C1370 0.950 1_565 S
C1375 C1373 1.390 . S
C1375 C1376 1.387 . S
C1375 H1378 0.950 . S
C1376 C1375 1.387 . S
C1376 C1379 1.387 . S
H1377 C1373 0.950 . S
H1378 C1375 0.950 . S
C1379 C1370 1.390 . S
C1379 H1372 0.950 1_545 S
C1379 C1376 1.387 . S
C1380 C1381 1.387 . S
C1380 H1384 0.950 . S
C1380 C1389 1.390 . S
C1381 C1380 1.387 . S
C1381 C1383 1.387 . S
H1382 C1389 0.950 . S
C1383 C1381 1.387 . S
C1383 C1385 1.390 . S
C1383 H1387 0.950 . S
H1384 C1380 0.950 . S
C1385 C1383 1.390 . S
C1385 C1386 1.387 . S
C1385 H1388 0.950 . S
C1386 C1385 1.387 . S
C1386 C1389 1.387 . S
H1387 C1383 0.950 . S
H1388 C1385 0.950 . S
C1389 C1380 1.390 . S
C1389 H1382 0.950 . S
C1389 C1386 1.387 . S
C1390 C1391 1.387 . S
C1390 H1394 0.950 . S
C1390 C1399 1.390 . S
C1391 C1390 1.387 . S
C1391 C1393 1.387 . S
H1392 C1399 0.950 . S
C1393 C1391 1.387 . S
C1393 C1395 1.390 . S
C1393 H1397 0.950 . S
H1394 C1390 0.950 . S
C1395 C1393 1.390 . S
C1395 C1396 1.387 . S
C1395 H1398 0.950 . S
C1396 C1395 1.387 . S
C1396 C1399 1.387 . S
H1397 C1393 0.950 . S
H1398 C1395 0.950 . S
C1399 C1390 1.390 . S
C1399 H1392 0.950 . S
C1399 C1396 1.387 . S
C1400 C1401 1.387 . S
C1400 H1404 0.950 . S
C1400 C1409 1.390 . S
C1401 C1400 1.387 . S
C1401 C1403 1.387 . S
H1402 C1409 0.950 . S
C1403 C1401 1.387 . S
C1403 C1405 1.390 . S
C1403 H1407 0.950 . S
H1404 C1400 0.950 . S
C1405 C1403 1.390 . S
C1405 C1406 1.387 . S
C1405 H1408 0.950 . S
C1406 C1405 1.387 . S
C1406 C1409 1.387 . S
H1407 C1403 0.950 . S
H1408 C1405 0.950 . S
C1409 C1400 1.390 . S
C1409 H1402 0.950 . S
C1409 C1406 1.387 . S
C1410 C1411 1.387 . S
C1410 H1414 0.950 . S
C1410 C1419 1.390 . S
C1411 C1410 1.387 . S
C1411 C1413 1.387 . S
H1412 C1419 0.950 . S
C1413 C1411 1.387 . S
C1413 C1415 1.390 . S
C1413 H1417 0.950 . S
H1414 C1410 0.950 . S
C1415 C1413 1.390 . S
C1415 C1416 1.387 . S
C1415 H1418 0.950 . S
C1416 C1415 1.387 . S
C1416 C1419 1.387 . S
H1417 C1413 0.950 . S
H1418 C1415 0.950 . S
C1419 C1410 1.390 . S
C1419 H1412 0.950 . S
C1419 C1416 1.387 . S
C1420 C1421 1.387 . S
C1420 H1424 0.950 . S
C1420 C1429 1.390 . S
C1421 C1420 1.387 . S
C1421 C1423 1.387 . S
H1422 C1429 0.950 . S
C1423 C1421 1.387 . S
C1423 C1425 1.390 . S
C1423 H1427 0.950 . S
H1424 C1420 0.950 . S
C1425 C1423 1.390 . S
C1425 C1426 1.387 . S
C1425 H1428 0.950 . S
C1426 C1425 1.387 . S
C1426 C1429 1.387 . S
H1427 C1423 0.950 . S
H1428 C1425 0.950 . S
C1429 C1420 1.390 . S
C1429 H1422 0.950 . S
C1429 C1426 1.387 . S
C1430 C1431 1.387 . S
C1430 H1434 0.950 . S
C1430 C1439 1.390 . S
C1431 C1430 1.387 . S
C1431 C1433 1.387 . S
H1432 C1439 0.950 . S
C1433 C1431 1.387 . S
C1433 C1435 1.390 . S
C1433 H1437 0.950 . S
H1434 C1430 0.950 . S
C1435 C1433 1.390 . S
C1435 C1436 1.387 . S
C1435 H1438 0.950 . S
C1436 C1435 1.387 . S
C1436 C1439 1.387 . S
H1437 C1433 0.950 . S
H1438 C1435 0.950 . S
C1439 C1430 1.390 . S
C1439 H1432 0.950 . S
C1439 C1436 1.387 . S
C1440 C1441 1.387 . S
C1440 H1444 0.950 . S
C1440 C1449 1.390 . S
C1441 C1440 1.387 . S
C1441 C1443 1.387 . S
H1442 C1449 0.950 . S
C1443 C1441 1.387 . S
C1443 C1445 1.390 . S
C1443 H1447 0.950 . S
H1444 C1440 0.950 . S
C1445 C1443 1.390 . S
C1445 C1446 1.387 . S
C1445 H1448 0.950 . S
C1446 C1445 1.387 . S
C1446 C1449 1.387 . S
H1447 C1443 0.950 . S
H1448 C1445 0.950 . S
C1449 C1440 1.390 . S
C1449 H1442 0.950 . S
C1449 C1446 1.387 . S
C1450 C1451 1.387 . S
C1450 H1454 0.950 . S
C1450 C1459 1.390 . S
C1451 C1450 1.387 . S
C1451 C1453 1.387 . S
H1452 C1459 0.950 . S
C1453 C1451 1.387 . S
C1453 C1455 1.390 . S
C1453 H1457 0.950 . S
H1454 C1450 0.950 . S
C1455 C1453 1.390 . S
C1455 C1456 1.387 . S
C1455 H1458 0.950 . S
C1456 C1455 1.387 . S
C1456 C1459 1.387 . S
H1457 C1453 0.950 . S
H1458 C1455 0.950 . S
C1459 C1450 1.390 . S
C1459 H1452 0.950 . S
C1459 C1456 1.387 . S
C1460 C1461 1.387 . S
C1460 H1464 0.950 . S
C1460 C1469 1.390 . S
C1461 C1460 1.387 . S
C1461 C1463 1.387 . S
H1462 C1469 0.950 . S
C1463 C1461 1.387 . S
C1463 C1465 1.390 . S
C1463 H1467 0.950 . S
H1464 C1460 0.950 . S
C1465 C1463 1.390 . S
C1465 C1466 1.387 . S
C1465 H1468 0.950 . S
C1466 C1465 1.387 . S
C1466 C1469 1.387 . S
H1467 C1463 0.950 . S
H1468 C1465 0.950 . S
C1469 C1460 1.390 . S
C1469 H1462 0.950 . S
C1469 C1466 1.387 . S
C1470 C1471 1.387 . S
C1470 H1474 0.950 . S
C1470 C1479 1.390 . S
C1471 C1470 1.387 . S
C1471 C1473 1.387 . S
H1472 C1479 0.950 . S
C1473 C1471 1.387 . S
C1473 C1475 1.390 . S
C1473 H1477 0.950 . S
H1474 C1470 0.950 . S
C1475 C1473 1.390 . S
C1475 C1476 1.387 . S
C1475 H1478 0.950 . S
C1476 C1475 1.387 . S
C1476 C1479 1.387 . S
H1477 C1473 0.950 . S
H1478 C1475 0.950 . S
C1479 C1470 1.390 . S
C1479 H1472 0.950 . S
C1479 C1476 1.387 . S
C1480 C1481 1.387 . S
C1480 H1484 0.950 . S
C1480 C1489 1.390 . S
C1481 C1480 1.387 . S
C1481 C1483 1.387 . S
H1482 C1489 0.950 . S
C1483 C1481 1.387 . S
C1483 C1485 1.390 . S
C1483 H1487 0.950 . S
H1484 C1480 0.950 . S
C1485 C1483 1.390 . S
C1485 C1486 1.387 . S
C1485 H1488 0.950 . S
C1486 C1485 1.387 . S
C1486 C1489 1.387 . S
H1487 C1483 0.950 . S
H1488 C1485 0.950 . S
C1489 C1480 1.390 . S
C1489 H1482 0.950 . S
C1489 C1486 1.387 . S
C1490 C1491 1.387 . S
C1490 H1494 0.950 . S
C1490 C1499 1.390 . S
C1491 C1490 1.387 . S
C1491 C1493 1.387 . S
H1492 C1499 0.950 . S
C1493 C1491 1.387 . S
C1493 C1495 1.390 . S
C1493 H1497 0.950 . S
H1494 C1490 0.950 . S
C1495 C1493 1.390 . S
C1495 C1496 1.387 . S
C1495 H1498 0.950 . S
C1496 C1495 1.387 . S
C1496 C1499 1.387 . S
H1497 C1493 0.950 . S
H1498 C1495 0.950 . S
C1499 C1490 1.390 . S
C1499 H1492 0.950 . S
C1499 C1496 1.387 . S
C1500 C1501 1.387 . S
C1500 H1504 0.950 . S
C1500 C1509 1.390 . S
C1501 C1500 1.387 . S
C1501 C1503 1.387 . S
H1502 C1509 0.950 . S
C1503 C1501 1.387 . S
C1503 C1505 1.390 . S
C1503 H1507 0.950 . S
H1504 C1500 0.950 . S
C1505 C1503 1.390 . S
C1505 C1506 1.387 . S
C1505 H1508 0.950 . S
C1506 C1505 1.387 . S
C1506 C1509 1.387 . S
H1507 C1503 0.950 . S
H1508 C1505 0.950 . S
C1509 C1500 1.390 . S
C1509 H1502 0.950 . S
C1509 C1506 1.387 . S
C1510 C1511 1.387 . S
C1510 H1514 0.950 . S
C1510 C1519 1.390 . S
C1511 C1510 1.387 . S
C1511 C1513 1.387 . S
H1512 C1519 0.950 . S
C1513 C1511 1.387 . S
C1513 C1515 1.390 . S
C1513 H1517 0.950 . S
H1514 C1510 0.950 . S
C1515 C1513 1.390 . S
C1515 C1516 1.387 . S
C1515 H1518 0.950 . S
C1516 C1515 1.387 . S
C1516 C1519 1.387 . S
H1517 C1513 0.950 . S
H1518 C1515 0.950 . S
C1519 C1510 1.390 . S
C1519 H1512 0.950 . S
C1519 C1516 1.387 . S
C1520 C1521 1.387 . S
C1520 H1524 0.950 . S
C1520 C1529 1.390 . S
C1521 C1520 1.387 . S
C1521 C1523 1.387 . S
H1522 C1529 0.950 . S
C1523 C1521 1.387 . S
C1523 C1525 1.390 . S
C1523 H1527 0.950 . S
H1524 C1520 0.950 . S
C1525 C1523 1.390 . S
C1525 C1526 1.387 . S
C1525 H1528 0.950 . S
C1526 C1525 1.387 . S
C1526 C1529 1.387 . S
H1527 C1523 0.950 . S
H1528 C1525 0.950 . S
C1529 C1520 1.390 . S
C1529 H1522 0.950 . S
C1529 C1526 1.387 . S
C1530 C1531 1.387 . S
C1530 H1534 0.950 . S
C1530 C1539 1.390 . S
C1531 C1530 1.387 . S
C1531 C1533 1.387 . S
H1532 C1539 0.950 . S
C1533 C1531 1.387 . S
C1533 C1535 1.390 . S
C1533 H1537 0.950 . S
H1534 C1530 0.950 . S
C1535 C1533 1.390 . S
C1535 C1536 1.387 . S
C1535 H1538 0.950 . S
C1536 C1535 1.387 . S
C1536 C1539 1.387 . S
H1537 C1533 0.950 . S
H1538 C1535 0.950 . S
C1539 C1530 1.390 . S
C1539 H1532 0.950 . S
C1539 C1536 1.387 . S
C1540 C1541 1.387 . S
C1540 H1544 0.950 . S
C1540 C1549 1.390 . S
C1541 C1540 1.387 . S
C1541 C1543 1.387 . S
H1542 C1549 0.950 . S
C1543 C1541 1.387 . S
C1543 C1545 1.390 . S
C1543 H1547 0.950 . S
H1544 C1540 0.950 . S
C1545 C1543 1.390 . S
C1545 C1546 1.387 . S
C1545 H1548 0.950 . S
C1546 C1545 1.387 . S
C1546 C1549 1.387 . S
H1547 C1543 0.950 . S
H1548 C1545 0.950 . S
C1549 C1540 1.390 . S
C1549 H1542 0.950 . S
C1549 C1546 1.387 . S
C1550 C1551 1.387 . S
C1550 H1554 0.950 . S
C1550 C1559 1.390 . S
C1551 C1550 1.387 . S
C1551 C1553 1.387 . S
H1552 C1559 0.950 . S
C1553 C1551 1.387 . S
C1553 C1555 1.390 . S
C1553 H1557 0.950 . S
H1554 C1550 0.950 . S
C1555 C1553 1.390 . S
C1555 C1556 1.387 . S
C1555 H1558 0.950 . S
C1556 C1555 1.387 . S
C1556 C1559 1.387 . S
H1557 C1553 0.950 . S
H1558 C1555 0.950 . S
C1559 C1550 1.390 . S
C1559 H1552 0.950 . S
C1559 C1556 1.387 . S
C1560 C1561 1.387 . S
C1560 H1564 0.950 . S
C1560 C1569 1.390 . S
C1561 C1560 1.387 . S
C1561 C1563 1.387 . S
H1562 C1569 0.950 . S
C1563 C1561 1.387 . S
C1563 C1565 1.390 . S
C1563 H1567 0.950 . S
H1564 C1560 0.950 . S
C1565 C1563 1.390 . S
C1565 C1566 1.387 . S
C1565 H1568 0.950 . S
C1566 C1565 1.387 . S
C1566 C1569 1.387 . S
H1567 C1563 0.950 . S
H1568 C1565 0.950 . S
C1569 C1560 1.390 . S
C1569 H1562 0.950 . S
C1569 C1566 1.387 . S
C1570 C1571 1.387 . S
C1570 H1574 0.950 . S
C1570 C1579 1.390 . S
C1571 C1570 1.387 . S
C1571 C1573 1.387 . S
H1572 C1579 0.950 . S
C1573 C1571 1.387 . S
C1573 C1575 1.390 . S
C1573 H1577 0.950 . S
H1574 C1570 0.950 . S
C1575 C1573 1.390 . S
C1575 C1576 1.387 . S
C1575 H1578 0.950 . S
C1576 C1575 1.387 . S
C1576 C1579 1.387 . S
H1577 C1573 0.950 . S
H1578 C1575 0.950 . S
C1579 C1570 1.390 . S
C1579 H1572 0.950 . S
C1579 C1576 1.387 . S
C1580 C1581 1.387 . S
C1580 H1584 0.950 . S
C1580 C1589 1.390 . S
C1581 C1580 1.387 . S
C1581 C1583 1.387 . S
H1582 C1589 0.950 . S
C1583 C1581 1.387 . S
C1583 C1585 1.390 . S
C1583 H1587 0.950 . S
H1584 C1580 0.950 . S
C1585 C1583 1.390 . S
C1585 C1586 1.387 . S
C1585 H1588 0.950 . S
C1586 C1585 1.387 . S
C1586 C1589 1.387 . S
H1587 C1583 0.950 . S
H1588 C1585 0.950 . S
C1589 C1580 1.390 . S
C1589 H1582 0.950 . S
C1589 C1586 1.387 . S
C1590 C1591 1.387 . S
C1590 H1594 0.950 . S
C1590 C1599 1.390 . S
C1591 C1590 1.387 . S
C1591 C1593 1.387 . S
H1592 C1599 0.950 . S
C1593 C1591 1.387 . S
C1593 C1595 1.390 . S
C1593 H1597 0.950 . S
H1594 C1590 0.950 . S
C1595 C1593 1.390 . S
C1595 C1596 1.387 . S
C1595 H1598 0.950 . S
C1596 C1595 1.387 . S
C1596 C1599 1.387 . S
H1597 C1593 0.950 . S
H1598 C1595 0.950 . S
C1599 C1590 1.390 . S
C1599 H1592 0.950 . S
C1599 C1596 1.387 . S
C1600 C1601 1.387 . S
C1600 H1604 0.950 . S
C1600 C1609 1.390 . S
C1601 C1600 1.387 . S
C1601 C1603 1.387 . S
H1602 C1609 0.950 . S
C1603 C1601 1.387 . S
C1603 C1605 1.390 . S
C1603 H1607 0.950 . S
H1604 C1600 0.950 . S
C1605 C1603 1.390 . S
C1605 C1606 1.387 . S
C1605 H1608 0.950 . S
C1606 C1605 1.387 . S
C1606 C1609 1.387 . S
H1607 C1603 0.950 . S
H1608 C1605 0.950 . S
C1609 C1600 1.390 . S
C1609 H1602 0.950 . S
C1609 C1606 1.387 . S
C1610 C1611 1.387 . S
C1610 H1614 0.950 . S
C1610 C1619 1.390 . S
C1611 C1610 1.387 . S
C1611 C1613 1.387 . S
H1612 C1619 0.950 . S
C1613 C1611 1.387 . S
C1613 C1615 1.390 . S
C1613 H1617 0.950 . S
H1614 C1610 0.950 . S
C1615 C1613 1.390 . S
C1615 C1616 1.387 . S
C1615 H1618 0.950 . S
C1616 C1615 1.387 . S
C1616 C1619 1.387 . S
H1617 C1613 0.950 . S
H1618 C1615 0.950 . S
C1619 C1610 1.390 . S
C1619 H1612 0.950 . S
C1619 C1616 1.387 . S
C901 C76 1.320 . S
C906 C652 1.142 . S
C911 C4 1.308 . S
C916 C668 1.137 . S
C926 C651 1.255 . S
C921 C38 1.424 . S
C936 C676 1.255 . S
C931 C74 1.436 . S
C941 C2 1.373 . S
C946 C685 1.215 . S
C956 C688 1.123 . S
C951 C40 1.280 . S
C961 C182 1.425 . S
C966 C694 1.235 . S
C976 C710 1.155 . S
C971 C112 1.339 . S
C986 C693 1.134 . S
C981 C148 1.295 . S
C991 C184 1.301 . S
C996 C718 1.137 . S
C1006 C727 1.241 . S
C1001 C110 1.400 . S
C1016 C730 1.214 . S
C1011 C146 1.387 . S
C1026 C739 1.144 . S
C1021 C292 1.320 . S
C1036 C751 1.137 . S
C1031 C220 1.308 . S
C1046 C748 1.253 . S
C1041 C254 1.427 . S
C1051 C290 1.440 . S
C1056 C757 1.255 . S
C1066 C756 1.221 . S
C1061 C218 1.372 . S
C1071 C256 1.280 . S
C1076 C773 1.126 . S
C1086 C778 1.236 . S
C1081 C398 1.424 . S
C1096 C794 1.162 . S
C1091 C328 1.339 . S
C1101 C364 1.292 . S
C1106 C777 1.136 . S
C1116 C802 1.136 . S
C1111 C400 1.301 . S
C1126 C811 1.241 . S
C1121 C326 1.400 . S
C1131 C362 1.388 . S
C1136 C814 1.217 . S
C1141 C508 1.323 . S
C1146 C823 1.142 . S
C1156 C835 1.136 . S
C1151 C436 1.310 . S
C1166 C832 1.254 . S
C1161 C470 1.427 . S
C1171 C506 1.439 . S
C1176 C841 1.259 . S
C1186 C840 1.215 . S
C1181 C434 1.372 . S
C1191 C472 1.283 . S
C1196 C857 1.125 . S
C1206 C862 1.240 . S
C1201 C614 1.424 . S
C1216 C878 1.156 . S
C1211 C544 1.339 . S
C1221 C580 1.295 . S
C1226 C861 1.135 . S
C1236 C883 1.137 . S
C1231 C616 1.302 . S
C1246 C882 1.241 . S
C1241 C542 1.399 . S
C1256 C899 1.216 . S
C1251 C578 1.384 . S
C1266 C664 1.450 . S
C1261 C399 1.542 . S
C1271 C338 1.525 . S
C1276 C667 1.520 . S
C1286 C655 1.448 . S
C1281 C374 1.464 . S
C1291 C626 1.482 . S
C1296 C672 1.463 . S
C1301 C543 1.632 . S
C1306 C673 1.517 . S
C1316 C689 1.409 1_565 S
C1311 C579 1.500 . S
C1326 C706 1.542 . S
C1321 C518 1.551 . S
C1336 C709 1.405 . S
C1331 C446 1.416 . S
C1341 C471 1.574 . S
C1346 C697 1.481 . S
C1356 C714 1.492 . S
C1351 C291 1.593 . S
C1361 C219 1.504 . S
C1366 C715 1.397 . S
C1371 C266 1.511 . S
C1376 C731 1.495 . S
C1381 C615 1.542 . S
C1386 C735 1.450 . S
C1391 C554 1.529 . S
C1396 C752 1.523 . S
C1406 C736 1.450 . S
C1401 C590 1.468 . S
C1416 C769 1.462 . S
C1411 C194 1.482 . S
C1426 C760 1.513 . S
C1421 C111 1.631 . S
C1431 C147 1.499 . S
C1436 C772 1.412 . S
C1446 C790 1.538 . S
C1441 C86 1.549 . S
C1456 C793 1.403 . S
C1451 C14 1.412 . S
C1461 C39 1.575 . S
C1466 C781 1.480 . S
C1476 C798 1.488 . S
C1471 C507 1.592 . S
C1486 C799 1.399 . S
C1481 C435 1.505 . S
C1496 C815 1.495 . S
C1491 C482 1.512 . S
C1506 C819 1.450 . S
C1501 C183 1.542 . S
C1516 C836 1.523 . S
C1511 C122 1.528 . S
C1521 C158 1.464 . S
C1526 C820 1.448 . S
C1531 C410 1.478 . S
C1536 C853 1.461 . S
C1541 C327 1.631 . S
C1546 C844 1.513 . S
C1556 C856 1.413 . S
C1551 C363 1.499 . S
C1561 C302 1.549 . S
C1566 C874 1.538 . S
C1571 C230 1.416 . S
C1576 C877 1.405 . S
C1586 C865 1.481 . S
C1581 C255 1.576 . S
C1596 C895 1.492 . S
C1591 C75 1.592 . S
C1606 C886 1.397 . S
C1601 C3 1.505 . S
C1611 C50 1.513 . S
C1616 C898 1.499 . S
