# Generated by pormake.
# Topology tph, (6,8)-cn, num edge types: 1
# Building blocks:
#     Node 0, Type 0, BuildingBlock: OJICUG_clean_sbu_0, # of connection points: 6
#     Node 1, Type 0, BuildingBlock: OJICUG_clean_sbu_0, # of connection points: 6
#     Node 2, Type 0, BuildingBlock: OJICUG_clean_sbu_0, # of connection points: 6
#     Node 3, Type 0, BuildingBlock: OJICUG_clean_sbu_0, # of connection points: 6
#     Node 4, Type 0, BuildingBlock: OJICUG_clean_sbu_0, # of connection points: 6
#     Node 5, Type 0, BuildingBlock: OJICUG_clean_sbu_0, # of connection points: 6
#     Node 6, Type 0, BuildingBlock: OJICUG_clean_sbu_0, # of connection points: 6
#     Node 7, Type 0, BuildingBlock: OJICUG_clean_sbu_0, # of connection points: 6
#     Node 8, Type 0, BuildingBlock: OJICUG_clean_sbu_0, # of connection points: 6
#     Node 9, Type 0, BuildingBlock: OJICUG_clean_sbu_0, # of connection points: 6
#     Node 10, Type 0, BuildingBlock: OJICUG_clean_sbu_0, # of connection points: 6
#     Node 11, Type 0, BuildingBlock: OJICUG_clean_sbu_0, # of connection points: 6
#     Node 12, Type 0, BuildingBlock: OJICUG_clean_sbu_0, # of connection points: 6
#     Node 13, Type 0, BuildingBlock: OJICUG_clean_sbu_0, # of connection points: 6
#     Node 14, Type 0, BuildingBlock: OJICUG_clean_sbu_0, # of connection points: 6
#     Node 15, Type 0, BuildingBlock: OJICUG_clean_sbu_0, # of connection points: 6
#     Node 16, Type 1, BuildingBlock: TAGTUT_clean_sbu_3, # of connection points: 8
#     Node 17, Type 1, BuildingBlock: TAGTUT_clean_sbu_3, # of connection points: 8
#     Node 18, Type 1, BuildingBlock: TAGTUT_clean_sbu_3, # of connection points: 8
#     Node 19, Type 1, BuildingBlock: TAGTUT_clean_sbu_3, # of connection points: 8
#     Node 20, Type 1, BuildingBlock: TAGTUT_clean_sbu_3, # of connection points: 8
#     Node 21, Type 1, BuildingBlock: TAGTUT_clean_sbu_3, # of connection points: 8
#     Node 22, Type 1, BuildingBlock: TAGTUT_clean_sbu_3, # of connection points: 8
#     Node 23, Type 1, BuildingBlock: TAGTUT_clean_sbu_3, # of connection points: 8
#     Node 24, Type 1, BuildingBlock: TAGTUT_clean_sbu_3, # of connection points: 8
#     Node 25, Type 1, BuildingBlock: TAGTUT_clean_sbu_3, # of connection points: 8
#     Node 26, Type 1, BuildingBlock: TAGTUT_clean_sbu_3, # of connection points: 8
#     Node 27, Type 1, BuildingBlock: TAGTUT_clean_sbu_3, # of connection points: 8
#     Edge 28, Type (0, 1), BuildingBlock: XIVTED_clean_linker_0, # of connection points: 2
#     Edge 29, Type (0, 1), BuildingBlock: XIVTED_clean_linker_0, # of connection points: 2
#     Edge 30, Type (0, 1), BuildingBlock: XIVTED_clean_linker_0, # of connection points: 2
#     Edge 31, Type (0, 1), BuildingBlock: XIVTED_clean_linker_0, # of connection points: 2
#     Edge 32, Type (0, 1), BuildingBlock: XIVTED_clean_linker_0, # of connection points: 2
#     Edge 33, Type (0, 1), BuildingBlock: XIVTED_clean_linker_0, # of connection points: 2
#     Edge 34, Type (0, 1), BuildingBlock: XIVTED_clean_linker_0, # of connection points: 2
#     Edge 35, Type (0, 1), BuildingBlock: XIVTED_clean_linker_0, # of connection points: 2
#     Edge 36, Type (0, 1), BuildingBlock: XIVTED_clean_linker_0, # of connection points: 2
#     Edge 37, Type (0, 1), BuildingBlock: XIVTED_clean_linker_0, # of connection points: 2
#     Edge 38, Type (0, 1), BuildingBlock: XIVTED_clean_linker_0, # of connection points: 2
#     Edge 39, Type (0, 1), BuildingBlock: XIVTED_clean_linker_0, # of connection points: 2
#     Edge 40, Type (0, 1), BuildingBlock: XIVTED_clean_linker_0, # of connection points: 2
#     Edge 41, Type (0, 1), BuildingBlock: XIVTED_clean_linker_0, # of connection points: 2
#     Edge 42, Type (0, 1), BuildingBlock: XIVTED_clean_linker_0, # of connection points: 2
#     Edge 43, Type (0, 1), BuildingBlock: XIVTED_clean_linker_0, # of connection points: 2
#     Edge 44, Type (0, 1), BuildingBlock: XIVTED_clean_linker_0, # of connection points: 2
#     Edge 45, Type (0, 1), BuildingBlock: XIVTED_clean_linker_0, # of connection points: 2
#     Edge 46, Type (0, 1), BuildingBlock: XIVTED_clean_linker_0, # of connection points: 2
#     Edge 47, Type (0, 1), BuildingBlock: XIVTED_clean_linker_0, # of connection points: 2
#     Edge 48, Type (0, 1), BuildingBlock: XIVTED_clean_linker_0, # of connection points: 2
#     Edge 49, Type (0, 1), BuildingBlock: XIVTED_clean_linker_0, # of connection points: 2
#     Edge 50, Type (0, 1), BuildingBlock: XIVTED_clean_linker_0, # of connection points: 2
#     Edge 51, Type (0, 1), BuildingBlock: XIVTED_clean_linker_0, # of connection points: 2
#     Edge 52, Type (0, 1), BuildingBlock: XIVTED_clean_linker_0, # of connection points: 2
#     Edge 53, Type (0, 1), BuildingBlock: XIVTED_clean_linker_0, # of connection points: 2
#     Edge 54, Type (0, 1), BuildingBlock: XIVTED_clean_linker_0, # of connection points: 2
#     Edge 55, Type (0, 1), BuildingBlock: XIVTED_clean_linker_0, # of connection points: 2
#     Edge 56, Type (0, 1), BuildingBlock: XIVTED_clean_linker_0, # of connection points: 2
#     Edge 57, Type (0, 1), BuildingBlock: XIVTED_clean_linker_0, # of connection points: 2
#     Edge 58, Type (0, 1), BuildingBlock: XIVTED_clean_linker_0, # of connection points: 2
#     Edge 59, Type (0, 1), BuildingBlock: XIVTED_clean_linker_0, # of connection points: 2
#     Edge 60, Type (0, 1), BuildingBlock: XIVTED_clean_linker_0, # of connection points: 2
#     Edge 61, Type (0, 1), BuildingBlock: XIVTED_clean_linker_0, # of connection points: 2
#     Edge 62, Type (0, 1), BuildingBlock: XIVTED_clean_linker_0, # of connection points: 2
#     Edge 63, Type (0, 1), BuildingBlock: XIVTED_clean_linker_0, # of connection points: 2
#     Edge 64, Type (0, 1), BuildingBlock: XIVTED_clean_linker_0, # of connection points: 2
#     Edge 65, Type (0, 1), BuildingBlock: XIVTED_clean_linker_0, # of connection points: 2
#     Edge 66, Type (0, 1), BuildingBlock: XIVTED_clean_linker_0, # of connection points: 2
#     Edge 67, Type (0, 1), BuildingBlock: XIVTED_clean_linker_0, # of connection points: 2
#     Edge 68, Type (0, 1), BuildingBlock: XIVTED_clean_linker_0, # of connection points: 2
#     Edge 69, Type (0, 1), BuildingBlock: XIVTED_clean_linker_0, # of connection points: 2
#     Edge 70, Type (0, 1), BuildingBlock: XIVTED_clean_linker_0, # of connection points: 2
#     Edge 71, Type (0, 1), BuildingBlock: XIVTED_clean_linker_0, # of connection points: 2
#     Edge 72, Type (0, 1), BuildingBlock: XIVTED_clean_linker_0, # of connection points: 2
#     Edge 73, Type (0, 1), BuildingBlock: XIVTED_clean_linker_0, # of connection points: 2
#     Edge 74, Type (0, 1), BuildingBlock: XIVTED_clean_linker_0, # of connection points: 2
#     Edge 75, Type (0, 1), BuildingBlock: XIVTED_clean_linker_0, # of connection points: 2
#     Edge 76, Type (0, 1), BuildingBlock: XIVTED_clean_linker_0, # of connection points: 2
#     Edge 77, Type (0, 1), BuildingBlock: XIVTED_clean_linker_0, # of connection points: 2
#     Edge 78, Type (0, 1), BuildingBlock: XIVTED_clean_linker_0, # of connection points: 2
#     Edge 79, Type (0, 1), BuildingBlock: XIVTED_clean_linker_0, # of connection points: 2
#     Edge 80, Type (0, 1), BuildingBlock: XIVTED_clean_linker_0, # of connection points: 2
#     Edge 81, Type (0, 1), BuildingBlock: XIVTED_clean_linker_0, # of connection points: 2
#     Edge 82, Type (0, 1), BuildingBlock: XIVTED_clean_linker_0, # of connection points: 2
#     Edge 83, Type (0, 1), BuildingBlock: XIVTED_clean_linker_0, # of connection points: 2
#     Edge 84, Type (0, 1), BuildingBlock: XIVTED_clean_linker_0, # of connection points: 2
#     Edge 85, Type (0, 1), BuildingBlock: XIVTED_clean_linker_0, # of connection points: 2
#     Edge 86, Type (0, 1), BuildingBlock: XIVTED_clean_linker_0, # of connection points: 2
#     Edge 87, Type (0, 1), BuildingBlock: XIVTED_clean_linker_0, # of connection points: 2
#     Edge 88, Type (0, 1), BuildingBlock: XIVTED_clean_linker_0, # of connection points: 2
#     Edge 89, Type (0, 1), BuildingBlock: XIVTED_clean_linker_0, # of connection points: 2
#     Edge 90, Type (0, 1), BuildingBlock: XIVTED_clean_linker_0, # of connection points: 2
#     Edge 91, Type (0, 1), BuildingBlock: XIVTED_clean_linker_0, # of connection points: 2
#     Edge 92, Type (0, 1), BuildingBlock: XIVTED_clean_linker_0, # of connection points: 2
#     Edge 93, Type (0, 1), BuildingBlock: XIVTED_clean_linker_0, # of connection points: 2
#     Edge 94, Type (0, 1), BuildingBlock: XIVTED_clean_linker_0, # of connection points: 2
#     Edge 95, Type (0, 1), BuildingBlock: XIVTED_clean_linker_0, # of connection points: 2
#     Edge 96, Type (0, 1), BuildingBlock: XIVTED_clean_linker_0, # of connection points: 2
#     Edge 97, Type (0, 1), BuildingBlock: XIVTED_clean_linker_0, # of connection points: 2
#     Edge 98, Type (0, 1), BuildingBlock: XIVTED_clean_linker_0, # of connection points: 2
#     Edge 99, Type (0, 1), BuildingBlock: XIVTED_clean_linker_0, # of connection points: 2
#     Edge 100, Type (0, 1), BuildingBlock: XIVTED_clean_linker_0, # of connection points: 2
#     Edge 101, Type (0, 1), BuildingBlock: XIVTED_clean_linker_0, # of connection points: 2
#     Edge 102, Type (0, 1), BuildingBlock: XIVTED_clean_linker_0, # of connection points: 2
#     Edge 103, Type (0, 1), BuildingBlock: XIVTED_clean_linker_0, # of connection points: 2
#     Edge 104, Type (0, 1), BuildingBlock: XIVTED_clean_linker_0, # of connection points: 2
#     Edge 105, Type (0, 1), BuildingBlock: XIVTED_clean_linker_0, # of connection points: 2
#     Edge 106, Type (0, 1), BuildingBlock: XIVTED_clean_linker_0, # of connection points: 2
#     Edge 107, Type (0, 1), BuildingBlock: XIVTED_clean_linker_0, # of connection points: 2
#     Edge 108, Type (0, 1), BuildingBlock: XIVTED_clean_linker_0, # of connection points: 2
#     Edge 109, Type (0, 1), BuildingBlock: XIVTED_clean_linker_0, # of connection points: 2
#     Edge 110, Type (0, 1), BuildingBlock: XIVTED_clean_linker_0, # of connection points: 2
#     Edge 111, Type (0, 1), BuildingBlock: XIVTED_clean_linker_0, # of connection points: 2
#     Edge 112, Type (0, 1), BuildingBlock: XIVTED_clean_linker_0, # of connection points: 2
#     Edge 113, Type (0, 1), BuildingBlock: XIVTED_clean_linker_0, # of connection points: 2
#     Edge 114, Type (0, 1), BuildingBlock: XIVTED_clean_linker_0, # of connection points: 2
#     Edge 115, Type (0, 1), BuildingBlock: XIVTED_clean_linker_0, # of connection points: 2
#     Edge 116, Type (0, 1), BuildingBlock: XIVTED_clean_linker_0, # of connection points: 2
#     Edge 117, Type (0, 1), BuildingBlock: XIVTED_clean_linker_0, # of connection points: 2
#     Edge 118, Type (0, 1), BuildingBlock: XIVTED_clean_linker_0, # of connection points: 2
#     Edge 119, Type (0, 1), BuildingBlock: XIVTED_clean_linker_0, # of connection points: 2
#     Edge 120, Type (0, 1), BuildingBlock: XIVTED_clean_linker_0, # of connection points: 2
#     Edge 121, Type (0, 1), BuildingBlock: XIVTED_clean_linker_0, # of connection points: 2
#     Edge 122, Type (0, 1), BuildingBlock: XIVTED_clean_linker_0, # of connection points: 2
#     Edge 123, Type (0, 1), BuildingBlock: XIVTED_clean_linker_0, # of connection points: 2
# Relax obj value: 0.173
# Max RMSD: 0.262
# Mean RMSD: 0.252
data_MOF--net-tph--node1-OJICUG_clean_sbu_0--node2-TAGTUT_clean_sbu_3--edge1-XIVTED_clean_linker_0
_symmetry_space_group_name_H-M    P1
_symmetry_Int_Tables_number       1
_symmetry_cell_setting            triclinic
loop_
_symmetry_equiv_pos_as_xyz
'x, y, z'
_cell_length_a     48.012467
_cell_length_b     48.031955
_cell_length_c     47.914595
_cell_angle_alpha  89.468636
_cell_angle_beta   89.91082
_cell_angle_gamma 89.553001
loop_
_atom_site_label
_atom_site_type_symbol
_atom_site_fract_x
_atom_site_fract_y
_atom_site_fract_z
_atom_type_partial_charge
Sc0 Sc 0.16894 0.22147 0.2022 0.0
Sc1 Sc 0.20926 0.1616 0.19333 0.0
Sc2 Sc 0.2033 0.21017 0.13979 0.0
O3 O 0.19427 0.19786 0.17876 0.0
C4 C 0.14034 0.22298 0.14288 0.0
C5 C 0.14628 0.16175 0.21475 0.0
C6 C 0.19917 0.14461 0.13214 0.0
C7 C 0.21194 0.1967 0.24747 0.0
C8 C 0.20134 0.2678 0.1727 0.0
C9 C 0.26038 0.1875 0.15801 0.0
O10 O 0.14278 0.23364 0.16698 0.0
O11 O 0.17047 0.15067 0.21379 0.0
O12 O 0.20594 0.1686 0.12325 0.0
O13 O 0.19076 0.2113 0.24054 0.0
O14 O 0.20166 0.25402 0.15014 0.0
O15 O 0.2492 0.16845 0.17298 0.0
O16 O 0.19518 0.25683 0.19611 0.0
O17 O 0.22443 0.18065 0.23051 0.0
O18 O 0.24681 0.20833 0.14834 0.0
O19 O 0.14163 0.18717 0.20871 0.0
O20 O 0.16011 0.21045 0.13054 0.0
O21 O 0.1947 0.13947 0.15774 0.0
Sc22 Sc 0.45018 0.60005 0.05372 0.0
Sc23 Sc 0.39037 0.56705 0.07861 0.0
Sc24 Sc 0.45403 0.55616 0.11185 0.0
O25 O 0.43148 0.57429 0.08112 0.0
C26 C 0.49953 0.56049 0.06247 0.0
C27 C 0.40638 0.56863 0.01487 0.0
C28 C 0.41844 0.50692 0.09058 0.0
C29 C 0.39454 0.63266 0.06749 0.0
C30 C 0.4756 0.61661 0.11289 0.0
C31 C 0.39649 0.56731 0.14328 0.0
O32 O 0.4825 0.57039 0.0447 0.0
O33 O 0.39221 0.55862 0.0349 0.0
O34 O 0.44244 0.51616 0.09673 0.0
O35 O 0.42019 0.63183 0.06127 0.0
O36 O 0.46592 0.596 0.12656 0.0
O37 O 0.38439 0.57593 0.12145 0.0
O38 O 0.4745 0.61902 0.0864 0.0
O39 O 0.38013 0.61081 0.07166 0.0
O40 O 0.42018 0.55524 0.14265 0.0
O41 O 0.42697 0.58476 0.01844 0.0
O42 O 0.49237 0.55572 0.08764 0.0
O43 O 0.39701 0.52253 0.08678 0.0
Sc44 Sc 0.83212 0.29654 0.17961 0.0
Sc45 Sc 0.77142 0.29801 0.14038 0.0
Sc46 Sc 0.79128 0.35524 0.17677 0.0
O47 O 0.79842 0.31631 0.16569 0.0
C48 C 0.80977 0.3316 0.23278 0.0
C49 C 0.7915 0.24782 0.18033 0.0
C50 C 0.7301 0.33007 0.17546 0.0
C51 C 0.827 0.27799 0.1149 0.0
C52 C 0.85774 0.35406 0.17335 0.0
C53 C 0.77547 0.35983 0.11627 0.0
O54 O 0.82852 0.31647 0.22102 0.0
O55 O 0.77928 0.25656 0.15825 0.0
O56 O 0.74624 0.35098 0.17427 0.0
O57 O 0.83847 0.27559 0.13904 0.0
O58 O 0.83492 0.36512 0.18122 0.0
O59 O 0.76145 0.33739 0.11846 0.0
O60 O 0.85922 0.32897 0.16543 0.0
O61 O 0.80376 0.29034 0.1112 0.0
O62 O 0.79343 0.36669 0.1342 0.0
O63 O 0.80688 0.26334 0.19487 0.0
O64 O 0.79 0.34301 0.2192 0.0
O65 O 0.73842 0.30563 0.16953 0.0
Sc66 Sc 0.61288 0.95649 0.07621 0.0
Sc67 Sc 0.57221 0.89732 0.07163 0.0
Sc68 Sc 0.54869 0.95448 0.10969 0.0
O69 O 0.57745 0.93613 0.08523 0.0
C70 C 0.60608 0.96719 0.13923 0.0
C71 C 0.63641 0.89528 0.08169 0.0
C72 C 0.55312 0.89415 0.13575 0.0
C73 C 0.5972 0.93207 0.01853 0.0
C74 C 0.56805 0.00643 0.08026 0.0
C75 C 0.5104 0.91971 0.06799 0.0
O76 O 0.62136 0.95783 0.11974 0.0
O77 O 0.61258 0.8848 0.08489 0.0
O78 O 0.5491 0.92017 0.13766 0.0
O79 O 0.60459 0.95331 0.03248 0.0
O80 O 0.54748 0.99028 0.08313 0.0
O81 O 0.53028 0.90523 0.05814 0.0
O82 O 0.59292 0.99712 0.07901 0.0
O83 O 0.58698 0.91005 0.02991 0.0
O84 O 0.51371 0.93738 0.08731 0.0
O85 O 0.6398 0.92021 0.07362 0.0
O86 O 0.58028 0.97291 0.13625 0.0
O87 O 0.55913 0.88219 0.11276 0.0
Sc88 Sc 0.18405 0.83505 0.2795 0.0
Sc89 Sc 0.12927 0.7896 0.2856 0.0
Sc90 Sc 0.17504 0.79667 0.33974 0.0
O91 O 0.163 0.80696 0.30145 0.0
C92 C 0.23193 0.80015 0.31257 0.0
C93 C 0.16989 0.79544 0.2327 0.0
C94 C 0.15125 0.73907 0.31602 0.0
C95 C 0.12015 0.84779 0.26298 0.0
C96 C 0.18752 0.86196 0.33685 0.0
C97 C 0.11231 0.80061 0.34859 0.0
O98 O 0.22387 0.8213 0.29806 0.0
O99 O 0.14578 0.79113 0.24308 0.0
O100 O 0.15937 0.75402 0.33634 0.0
O101 O 0.14617 0.85148 0.25844 0.0
O102 O 0.19122 0.83802 0.34808 0.0
O103 O 0.10829 0.78741 0.32598 0.0
O104 O 0.17902 0.86506 0.31189 0.0
O105 O 0.1113 0.82931 0.27968 0.0
O106 O 0.13586 0.81033 0.35515 0.0
O107 O 0.18963 0.80551 0.24693 0.0
O108 O 0.2148 0.78391 0.32459 0.0
O109 O 0.14666 0.74933 0.29196 0.0
Sc110 Sc 0.07457 0.61675 0.95178 0.0
Sc111 Sc 0.0589 0.56632 0.90276 0.0
Sc112 Sc 0.0999 0.54964 0.96063 0.0
O113 O 0.07708 0.5773 0.93849 0.0
C114 C 0.13651 0.60378 0.96189 0.0
C115 C 0.07608 0.62705 0.88585 0.0
C116 C 0.1205 0.54095 0.89921 0.0
C117 C 0.01325 0.6046 0.93455 0.0
C118 C 0.07398 0.58044 0.00911 0.0
C119 C 0.05305 0.50994 0.93517 0.0
O120 O 0.1187 0.61917 0.94964 0.0
O121 O 0.07408 0.60145 0.88054 0.0
O122 O 0.12517 0.54244 0.92522 0.0
O123 O 0.03012 0.61476 0.95224 0.0
O124 O 0.07511 0.55709 0.99692 0.0
O125 O 0.04206 0.52875 0.91998 0.0
O126 O 0.07672 0.60348 0.99582 0.0
O127 O 0.02085 0.58826 0.91489 0.0
O128 O 0.07458 0.51421 0.94992 0.0
O129 O 0.07327 0.63643 0.91045 0.0
O130 O 0.13023 0.58063 0.97336 0.0
O131 O 0.09663 0.5456 0.88826 0.0
Sc132 Sc 0.84641 0.69211 0.29976 0.0
Sc133 Sc 0.79542 0.64281 0.29845 0.0
Sc134 Sc 0.79103 0.69608 0.34501 0.0
O135 O 0.81094 0.67721 0.3143 0.0
C136 C 0.85062 0.70113 0.36621 0.0
C137 C 0.86119 0.63084 0.29777 0.0
C138 C 0.78453 0.63118 0.35939 0.0
C139 C 0.81467 0.66928 0.24483 0.0
C140 C 0.81677 0.747 0.30883 0.0
C141 C 0.74073 0.67961 0.31238 0.0
O142 O 0.85942 0.70701 0.34154 0.0
O143 O 0.83699 0.62535 0.28817 0.0
O144 O 0.77547 0.65614 0.36253 0.0
O145 O 0.83702 0.67771 0.25673 0.0
O146 O 0.80556 0.73768 0.33134 0.0
O147 O 0.75194 0.65581 0.30763 0.0
O148 O 0.82679 0.73086 0.29053 0.0
O149 O 0.79328 0.66244 0.25882 0.0
O150 O 0.75523 0.70041 0.31921 0.0
O151 O 0.86651 0.65382 0.30924 0.0
O152 O 0.82651 0.69151 0.37075 0.0
O153 O 0.79836 0.62379 0.33816 0.0
Sc154 Sc 0.94433 0.92034 0.89206 0.0
Sc155 Sc 0.88965 0.94762 0.92981 0.0
Sc156 Sc 0.9269 0.89259 0.95697 0.0
O157 O 0.92192 0.92119 0.9271 0.0
C158 C 0.93401 0.85609 0.90356 0.0
C159 C 0.88494 0.93224 0.86935 0.0
C160 C 0.86464 0.89091 0.94531 0.0
C161 C 0.93602 0.98567 0.90809 0.0
C162 C 0.98967 0.90534 0.93674 0.0
C163 C 0.9097 0.94172 0.99303 0.0
O164 O 0.94652 0.87548 0.89045 0.0
O165 O 0.88553 0.95256 0.88573 0.0
O166 O 0.88279 0.89092 0.96451 0.0
O167 O 0.94413 0.96621 0.89159 0.0
O168 O 0.97159 0.89277 0.95172 0.0
O169 O 0.89107 0.94771 0.97497 0.0
O170 O 0.9831 0.92036 0.9155 0.0
O171 O 0.91831 0.98165 0.92771 0.0
O172 O 0.92956 0.92472 0.98792 0.0
O173 O 0.90592 0.91612 0.86779 0.0
O174 O 0.92257 0.8594 0.92724 0.0
O175 O 0.86236 0.91165 0.92873 0.0
Sc176 Sc 0.39672 0.44873 0.43764 0.0
Sc177 Sc 0.43774 0.3938 0.45959 0.0
Sc178 Sc 0.44823 0.42367 0.39389 0.0
O179 O 0.429 0.42307 0.43082 0.0
C180 C 0.38653 0.43492 0.37589 0.0
C181 C 0.37488 0.39146 0.45614 0.0
C182 C 0.4385 0.35905 0.40479 0.0
C183 C 0.42526 0.44231 0.49804 0.0
C184 C 0.44011 0.48845 0.4112 0.0
C185 C 0.49766 0.40687 0.43266 0.0
O186 O 0.38465 0.45286 0.39491 0.0
O187 O 0.39514 0.39185 0.47298 0.0
O188 O 0.4495 0.37887 0.39092 0.0
O189 O 0.40506 0.44904 0.482 0.0
O190 O 0.44805 0.46925 0.39444 0.0
O191 O 0.48128 0.3937 0.44895 0.0
O192 O 0.42352 0.48399 0.43167 0.0
O193 O 0.44417 0.42504 0.49081 0.0
O194 O 0.48894 0.42324 0.41337 0.0
O195 O 0.37031 0.41224 0.44017 0.0
O196 O 0.40859 0.42071 0.37232 0.0
O197 O 0.42995 0.36142 0.42978 0.0
Sc198 Sc 0.32545 0.78551 0.68029 0.0
Sc199 Sc 0.26676 0.78968 0.63812 0.0
Sc200 Sc 0.28257 0.84282 0.68212 0.0
O201 O 0.29176 0.80578 0.66673 0.0
C202 C 0.2996 0.81375 0.73566 0.0
C203 C 0.28549 0.73618 0.67468 0.0
C204 C 0.22247 0.81666 0.67443 0.0
C205 C 0.32392 0.77279 0.61407 0.0
C206 C 0.34908 0.84428 0.68072 0.0
C207 C 0.27058 0.85413 0.62115 0.0
O208 O 0.3198 0.80131 0.72323 0.0
O209 O 0.27412 0.74682 0.65291 0.0
O210 O 0.23788 0.83794 0.67686 0.0
O211 O 0.33419 0.76841 0.63845 0.0
O212 O 0.32575 0.85345 0.68955 0.0
O213 O 0.25767 0.83099 0.61932 0.0
O214 O 0.35177 0.82013 0.67047 0.0
O215 O 0.30082 0.78531 0.61026 0.0
O216 O 0.28605 0.85993 0.64165 0.0
O217 O 0.30077 0.75013 0.69092 0.0
O218 O 0.27955 0.82497 0.72241 0.0
O219 O 0.2318 0.79355 0.66562 0.0
Sc220 Sc 0.10834 0.44588 0.5848 0.0
Sc221 Sc 0.07547 0.38298 0.5696 0.0
Sc222 Sc 0.04515 0.42822 0.61569 0.0
O223 O 0.07626 0.41977 0.58898 0.0
C224 C 0.09731 0.44124 0.65071 0.0
C225 C 0.13994 0.38813 0.58309 0.0
C226 C 0.05545 0.36767 0.62861 0.0
C227 C 0.09701 0.42386 0.52222 0.0
C228 C 0.06213 0.4896 0.59651 0.0
C229 C 0.01184 0.40526 0.56757 0.0
O230 O 0.10978 0.45198 0.62965 0.0
O231 O 0.11922 0.37563 0.57293 0.0
O232 O 0.03647 0.38518 0.62325 0.0
O233 O 0.10865 0.44011 0.53971 0.0
O234 O 0.04902 0.47253 0.6119 0.0
O235 O 0.03017 0.38602 0.56439 0.0
O236 O 0.0815 0.48189 0.58009 0.0
O237 O 0.08164 0.40337 0.5296 0.0
O238 O 0.01642 0.42698 0.5819 0.0
O239 O 0.1393 0.41345 0.59034 0.0
O240 O 0.07439 0.42825 0.64928 0.0
O241 O 0.07347 0.36227 0.61008 0.0
Sc242 Sc 0.95792 0.09915 0.55737 0.0
Sc243 Sc 0.89884 0.06212 0.57715 0.0
Sc244 Sc 0.96107 0.05171 0.61181 0.0
O245 O 0.93925 0.07063 0.58145 0.0
C246 C 0.0084 0.06198 0.56539 0.0
C247 C 0.91714 0.06856 0.51463 0.0
C248 C 0.92947 0.00256 0.58702 0.0
C249 C 0.9002 0.12826 0.5698 0.0
C250 C 0.97666 0.11327 0.61858 0.0
C251 C 0.90219 0.05703 0.64108 0.0
O252 O 0.9912 0.07099 0.54735 0.0
O253 O 0.90304 0.05577 0.53313 0.0
O254 O 0.95342 0.01238 0.5927 0.0
O255 O 0.92638 0.12932 0.56631 0.0
O256 O 0.96658 0.09156 0.63003 0.0
O257 O 0.89127 0.06931 0.62034 0.0
O258 O 0.98088 0.11568 0.5924 0.0
O259 O 0.8869 0.10541 0.57093 0.0
O260 O 0.92563 0.04469 0.63941 0.0
O261 O 0.93627 0.08578 0.5205 0.0
O262 O 0.00085 0.05649 0.59032 0.0
O263 O 0.90753 0.01774 0.58429 0.0
Sc264 Sc 0.68262 0.69535 0.6348 0.0
Sc265 Sc 0.65979 0.71511 0.70024 0.0
Sc266 Sc 0.69763 0.65368 0.69266 0.0
O267 O 0.68042 0.68795 0.67596 0.0
C268 C 0.67648 0.62915 0.6363 0.0
C269 C 0.62238 0.71409 0.64639 0.0
C270 C 0.63736 0.65805 0.72113 0.0
C271 C 0.69076 0.75554 0.66205 0.0
C272 C 0.74279 0.67362 0.64704 0.0
C273 C 0.70676 0.6931 0.74236 0.0
O274 O 0.67934 0.65205 0.62311 0.0
O275 O 0.62998 0.72699 0.66808 0.0
O276 O 0.66108 0.64619 0.7182 0.0
O277 O 0.68583 0.74025 0.64099 0.0
O278 O 0.73471 0.65796 0.66713 0.0
O279 O 0.6849 0.70702 0.73666 0.0
O280 O 0.72699 0.69141 0.63497 0.0
O281 O 0.68751 0.74709 0.68704 0.0
O282 O 0.71774 0.67644 0.72508 0.0
O283 O 0.63842 0.69786 0.63312 0.0
O284 O 0.67933 0.62715 0.66252 0.0
O285 O 0.63223 0.68301 0.71349 0.0
Sc286 Sc 0.69371 0.33328 0.77263 0.0
Sc287 Sc 0.63275 0.29572 0.77972 0.0
Sc288 Sc 0.68164 0.29375 0.83251 0.0
O289 O 0.66965 0.30732 0.79485 0.0
C290 C 0.73876 0.29318 0.80373 0.0
C291 C 0.67157 0.29776 0.72492 0.0
C292 C 0.65133 0.2402 0.80585 0.0
C293 C 0.63224 0.35735 0.7625 0.0
C294 C 0.7007 0.35776 0.83181 0.0
C295 C 0.61919 0.30449 0.84402 0.0
O296 O 0.73213 0.31408 0.78832 0.0
O297 O 0.64779 0.29602 0.73672 0.0
O298 O 0.66333 0.2524 0.82617 0.0
O299 O 0.65795 0.35683 0.75556 0.0
O300 O 0.6998 0.33371 0.84335 0.0
O301 O 0.61227 0.29475 0.82041 0.0
O302 O 0.69538 0.36202 0.80616 0.0
O303 O 0.62053 0.33783 0.77586 0.0
O304 O 0.64424 0.30908 0.85055 0.0
O305 O 0.69316 0.30557 0.73792 0.0
O306 O 0.72066 0.2789 0.81674 0.0
O307 O 0.64374 0.25306 0.78386 0.0
Sc308 Sc 0.58623 0.11166 0.44442 0.0
Sc309 Sc 0.56985 0.07478 0.384 0.0
Sc310 Sc 0.61437 0.04546 0.43229 0.0
O311 O 0.58923 0.07724 0.42109 0.0
C312 C 0.65143 0.09752 0.4441 0.0
C313 C 0.58456 0.13869 0.38385 0.0
C314 C 0.62932 0.05465 0.37144 0.0
C315 C 0.52359 0.09933 0.42323 0.0
C316 C 0.59212 0.0659 0.49193 0.0
C317 C 0.5667 0.01216 0.40766 0.0
O318 O 0.63067 0.11239 0.45169 0.0
O319 O 0.57196 0.11797 0.37405 0.0
O320 O 0.62449 0.03618 0.38975 0.0
O321 O 0.54144 0.11262 0.43773 0.0
O322 O 0.60653 0.05041 0.47603 0.0
O323 O 0.56488 0.02986 0.38773 0.0
O324 O 0.5801 0.08809 0.48315 0.0
O325 O 0.53032 0.08181 0.40431 0.0
O326 O 0.58026 0.01692 0.42989 0.0
O327 O 0.5936 0.13934 0.40876 0.0
O328 O 0.64931 0.07322 0.434 0.0
O329 O 0.61028 0.07171 0.36435 0.0
Sc330 Sc 0.35127 0.18938 0.80651 0.0
Sc331 Sc 0.30108 0.1397 0.80362 0.0
Sc332 Sc 0.29685 0.19055 0.85286 0.0
O333 O 0.31637 0.17335 0.82093 0.0
C334 C 0.35627 0.1964 0.87323 0.0
C335 C 0.36722 0.12891 0.80139 0.0
C336 C 0.2898 0.12495 0.86357 0.0
C337 C 0.31974 0.16803 0.75102 0.0
C338 C 0.32159 0.24305 0.81854 0.0
C339 C 0.2463 0.17565 0.81944 0.0
O340 O 0.36419 0.2034 0.84856 0.0
O341 O 0.34286 0.12339 0.79215 0.0
O342 O 0.28108 0.1498 0.86814 0.0
O343 O 0.34206 0.17613 0.76315 0.0
O344 O 0.31136 0.23275 0.8411 0.0
O345 O 0.25755 0.15213 0.81348 0.0
O346 O 0.33024 0.22765 0.79896 0.0
O347 O 0.29834 0.16101 0.76485 0.0
O348 O 0.26063 0.19603 0.82778 0.0
O349 O 0.37222 0.15117 0.81435 0.0
O350 O 0.33296 0.18494 0.87784 0.0
O351 O 0.30459 0.11902 0.84251 0.0
C352 C 0.05516 0.21716 0.89159 0.0
C353 C 0.00823 0.23658 0.99094 0.0
C354 C 0.93329 0.2273 0.94906 0.0
Mg355 Mg 0.03117 0.22896 0.83205 0.0
Mg356 Mg 0.9873 0.27979 0.81991 0.0
O357 O 0.99361 0.24657 0.83935 0.0
Mg358 Mg 0.99573 0.24898 0.8809 0.0
O359 O 0.00077 0.24799 0.92223 0.0
Mg360 Mg -0.00138 0.20651 0.92923 0.0
Mg361 Mg 0.97741 0.26989 0.94398 0.0
C362 C 0.9367 0.28014 0.86218 0.0
O363 O 0.00576 0.29645 0.8827 0.0
O364 O 0.01729 0.226 0.78667 0.0
O365 O 0.98473 0.30899 0.92303 0.0
O366 O 0.05205 0.2701 0.81789 0.0
O367 O 0.98722 0.26162 0.77893 0.0
O368 O 0.02295 0.30579 0.82273 0.0
O369 O 0.98562 0.20271 0.88303 0.0
O370 O 0.00964 0.18783 0.84601 0.0
C371 C 0.99374 0.18297 0.86708 0.0
C372 C 0.00126 0.24044 0.77062 0.0
O373 O 0.94885 0.26304 0.8793 0.0
O374 O 0.0115 0.21602 0.97422 0.0
O375 O 0.94899 0.2906 0.84074 0.0
O376 O 0.95289 0.20923 0.94655 0.0
O377 O 0.99606 0.2594 0.98373 0.0
O378 O 0.93702 0.25267 0.94235 0.0
O379 O 0.04087 0.23529 0.87806 0.0
O380 O 0.04461 0.20407 0.91255 0.0
C381 C 0.04681 0.29618 0.81604 0.0
C382 C 0.99752 0.31495 0.90026 0.0
C383 C 0.5531 0.72295 0.392 0.0
C384 C 0.50251 0.74225 0.48983 0.0
C385 C 0.42965 0.73009 0.44552 0.0
Mg386 Mg 0.53087 0.73217 0.33206 0.0
Mg387 Mg 0.4846 0.7794 0.31494 0.0
O388 O 0.49225 0.74841 0.33722 0.0
Mg389 Mg 0.49305 0.75261 0.37887 0.0
O390 O 0.49708 0.75263 0.42043 0.0
Mg391 Mg 0.49609 0.71117 0.42821 0.0
Mg392 Mg 0.47253 0.77393 0.44131 0.0
C393 C 0.4335 0.78094 0.35709 0.0
O394 O 0.50145 0.80077 0.3799 0.0
O395 O 0.51958 0.72638 0.28662 0.0
O396 O 0.48015 0.81271 0.42017 0.0
O397 O 0.55024 0.77385 0.31727 0.0
O398 O 0.48814 0.75935 0.27459 0.0
O399 O 0.51824 0.80741 0.31905 0.0
O400 O 0.48449 0.70603 0.38192 0.0
O401 O 0.51058 0.69074 0.34651 0.0
C402 C 0.49389 0.68607 0.36698 0.0
C403 C 0.50405 0.73867 0.26852 0.0
O404 O 0.44588 0.76556 0.37564 0.0
O405 O 0.50713 0.72165 0.47347 0.0
O406 O 0.44548 0.78946 0.33463 0.0
O407 O 0.44994 0.71271 0.4439 0.0
O408 O 0.48994 0.76459 0.48189 0.0
O409 O 0.43269 0.7555 0.43855 0.0
O410 O 0.53855 0.7404 0.3779 0.0
O411 O 0.54253 0.70979 0.41289 0.0
C412 C 0.54312 0.79941 0.31436 0.0
C413 C 0.49299 0.81919 0.39755 0.0
C414 C 0.95059 0.80616 0.6394 0.0
C415 C 0.94459 0.75194 0.73791 0.0
C416 C 0.02199 0.71868 0.71398 0.0
Mg417 Mg 0.98319 0.78816 0.58345 0.0
Mg418 Mg 0.99254 0.723 0.56867 0.0
O419 O -0.00114 0.75061 0.59446 0.0
Mg420 Mg 0.98156 0.74608 0.63246 0.0
O421 O 0.96471 0.74543 0.67092 0.0
Mg422 Mg 0.98759 0.77556 0.68819 0.0
Mg423 Mg 0.96432 0.71163 0.6908 0.0
C424 C 0.01463 0.68686 0.61937 0.0
O425 O 0.94682 0.71639 0.61996 0.0
O426 O 0.01052 0.78628 0.54386 0.0
O427 O 0.94281 0.6888 0.6583 0.0
O428 O 0.94796 0.76988 0.55495 0.0
O429 O 0.01474 0.74065 0.53427 0.0
O430 O 0.94994 0.72358 0.55723 0.0
O431 O 0.01448 0.77487 0.64807 0.0
O432 O 0.0188 0.80432 0.6119 0.0
C433 C 0.026 0.79595 0.63647 0.0
C434 C 0.01896 0.7663 0.52825 0.0
O435 O 0.00787 0.70513 0.6378 0.0
O436 O 0.95836 0.7717 0.72622 0.0
O437 O 0.00909 0.68954 0.59332 0.0
O438 O 0.01722 0.74476 0.71113 0.0
O439 O 0.94393 0.72711 0.72827 0.0
O440 O 0.0059 0.70074 0.70321 0.0
O441 O 0.9567 0.78574 0.62344 0.0
O442 O 0.9582 0.80603 0.66503 0.0
C443 C 0.93838 0.74593 0.54848 0.0
C444 C 0.93662 0.69516 0.63287 0.0
C445 C 0.86178 0.00065 0.18733 0.0
C446 C 0.7665 0.0022 0.24877 0.0
C447 C 0.81296 0.05214 0.30121 0.0
Mg448 Mg 0.92341 0.01461 0.2076 0.0
Mg449 Mg 0.94498 0.99593 0.27019 0.0
O450 O 0.91818 0.01464 0.24941 0.0
Mg451 Mg 0.87774 0.00511 0.25263 0.0
O452 O 0.83642 -0.0011 0.25177 0.0
Mg453 Mg 0.82501 0.0355 0.23375 0.0
Mg454 Mg 0.81902 0.99246 0.28599 0.0
C455 C 0.90098 0.01252 0.31677 0.0
O456 O 0.88129 0.95854 0.26814 0.0
O457 O 0.96599 0.03498 0.21513 0.0
O458 O 0.84384 0.95651 0.29696 0.0
O459 O 0.94666 0.972 0.20894 0.0
O460 O 0.97993 0.02126 0.258 0.0
O461 O 0.9498 0.95576 0.25256 0.0
O462 O 0.8695 0.04933 0.23864 0.0
O463 O 0.90124 0.05762 0.20595 0.0
C464 C 0.88015 0.06538 0.22033 0.0
C465 C 0.98369 0.03492 0.23521 0.0
O466 O 0.8808 0.01624 0.29943 0.0
O467 O 0.78074 0.01845 0.23293 0.0
O468 O 0.92501 0.00295 0.30973 0.0
O469 O 0.81211 0.05648 0.2749 0.0
O470 O 0.7769 0.98949 0.27006 0.0
O471 O 0.8213 0.02882 0.31101 0.0
O472 O 0.87927 0.99506 0.20668 0.0
O473 O 0.83917 0.01426 0.19238 0.0
C474 C 0.95372 0.95296 0.22644 0.0
C475 C 0.866 0.94575 0.2864 0.0
C476 C 0.2154 0.87216 0.04717 0.0
C477 C 0.23108 0.97619 0.0167 0.0
C478 C 0.23304 0.94487 0.93561 0.0
Mg479 Mg 0.23259 0.81714 0.01845 0.0
Mg480 Mg 0.28791 0.81165 0.97949 0.0
O481 O 0.25325 0.82903 0.98364 0.0
Mg482 Mg 0.25304 0.8702 0.99076 0.0
O483 O 0.24876 0.91038 0.00072 0.0
Mg484 Mg 0.20718 0.91539 0.99495 0.0
Mg485 Mg 0.27122 0.93662 0.98362 0.0
C486 C 0.29141 0.86009 0.93434 0.0
O487 O 0.2989 0.87284 0.00616 0.0
O488 O 0.23401 0.77302 0.00108 0.0
O489 O 0.31067 0.91651 0.99265 0.0
O490 O 0.27209 0.80454 0.04286 0.0
O491 O 0.27271 0.76951 0.97451 0.0
O492 O 0.31012 0.81295 0.01794 0.0
O493 O 0.20804 0.87147 0.97579 0.0
O494 O 0.19298 0.83122 0.99384 0.0
C495 C 0.18854 0.85387 0.97993 0.0
C496 C 0.25091 0.75896 0.98581 0.0
O497 O 0.27231 0.87491 0.94629 0.0
O498 O 0.21176 0.95797 0.01514 0.0
O499 O 0.30131 0.8375 0.94509 0.0
O500 O 0.21314 0.93902 0.95244 0.0
O501 O 0.25535 0.97256 0.00597 0.0
O502 O 0.25814 0.93856 0.94153 0.0
O503 O 0.23525 0.86162 0.03305 0.0
O504 O 0.2015 0.89315 0.03791 0.0
C505 C 0.29857 0.80519 0.0406 0.0
C506 C 0.31688 0.89233 0.00253 0.0
C507 C 0.13692 0.45372 0.21006 0.0
C508 C 0.03087 0.44762 0.23591 0.0
C509 C 0.04001 0.53194 0.25973 0.0
Mg510 Mg 0.18472 0.494 0.23048 0.0
Mg511 Mg 0.18598 0.51706 0.29422 0.0
O512 O 0.16617 0.51661 0.26062 0.0
Mg513 Mg 0.12863 0.4979 0.26053 0.0
O514 O 0.09208 0.47825 0.25552 0.0
Mg515 Mg 0.081 0.4923 0.21723 0.0
Mg516 Mg 0.06412 0.47779 0.2821 0.0
C517 C 0.12739 0.5442 0.31066 0.0
O518 O 0.13458 0.47249 0.30266 0.0
O519 O 0.22155 0.52399 0.23361 0.0
O520 O 0.09003 0.46493 0.31643 0.0
O521 O 0.20867 0.46541 0.26152 0.0
O522 O 0.22376 0.53714 0.27864 0.0
O523 O 0.19761 0.47542 0.30532 0.0
O524 O 0.11838 0.52201 0.2204 0.0
O525 O 0.16005 0.52251 0.19975 0.0
C526 C 0.13407 0.52904 0.19991 0.0
C527 C 0.2333 0.53708 0.25359 0.0
O528 O 0.11442 0.533 0.29006 0.0
O529 O 0.04516 0.46068 0.21741 0.0
O530 O 0.15295 0.53847 0.31668 0.0
O531 O 0.04936 0.52504 0.23563 0.0
O532 O 0.035 0.45049 0.26213 0.0
O533 O 0.04642 0.51832 0.28177 0.0
O534 O 0.14651 0.4656 0.23174 0.0
O535 O 0.11242 0.4594 0.20087 0.0
C536 C 0.21012 0.46011 0.28763 0.0
C537 C 0.11641 0.46347 0.32047 0.0
C538 C 0.68617 0.63278 0.01311 0.0
C539 C 0.73627 0.73152 0.02938 0.0
C540 C 0.7792 0.71065 0.95551 0.0
Mg541 Mg 0.71078 0.57977 0.98172 0.0
Mg542 Mg 0.77759 0.56462 0.97832 0.0
O543 O 0.75022 0.59144 0.97393 0.0
Mg544 Mg 0.75063 0.62883 0.99274 0.0
O545 O 0.74673 0.6665 0.00971 0.0
Mg546 Mg 0.71951 0.68383 0.98256 0.0
Mg547 Mg 0.77991 0.68628 0.01283 0.0
C548 C 0.81385 0.61869 0.9668 0.0
O549 O 0.77514 0.61702 0.03359 0.0
O550 O 0.71735 0.54194 0.95301 0.0
O551 O 0.80155 0.65558 0.03795 0.0
O552 O 0.72405 0.55114 0.01851 0.0
O553 O 0.76339 0.53423 0.94871 0.0
O554 O 0.77059 0.5484 0.01914 0.0
O555 O 0.72707 0.64518 0.95524 0.0
O556 O 0.70072 0.6088 0.9443 0.0
C557 C 0.70945 0.63354 0.93929 0.0
C558 C 0.73808 0.52828 0.94299 0.0
O559 O 0.79431 0.63597 0.97328 0.0
O560 O 0.71805 0.72011 0.0136 0.0
O561 O 0.8116 0.59214 0.96886 0.0
O562 O 0.75274 0.70891 0.9577 0.0
O563 O 0.76143 0.72266 0.03165 0.0
O564 O 0.79517 0.698 0.97268 0.0
O565 O 0.70814 0.61811 0.00975 0.0
O566 O 0.68558 0.65868 0.00647 0.0
C567 C 0.74684 0.54244 0.02952 0.0
C568 C 0.79457 0.63094 0.04576 0.0
C569 C 0.19685 0.13284 0.51769 0.0
C570 C 0.24838 0.23005 0.53518 0.0
C571 C 0.29311 0.20858 0.46241 0.0
Mg572 Mg 0.21962 0.0793 0.48634 0.0
Mg573 Mg 0.2855 0.06081 0.48489 0.0
O574 O 0.25976 0.08914 0.47939 0.0
Mg575 Mg 0.26152 0.12668 0.49796 0.0
O576 O 0.25863 0.16461 0.51477 0.0
Mg577 Mg 0.23214 0.18283 0.48749 0.0
Mg578 Mg 0.29177 0.18402 0.51962 0.0
C579 C 0.32483 0.11287 0.47316 0.0
O580 O 0.28483 0.11428 0.53934 0.0
O581 O 0.22487 0.04236 0.45656 0.0
O582 O 0.31179 0.15234 0.54492 0.0
O583 O 0.23084 0.04907 0.52286 0.0
O584 O 0.27027 0.03079 0.45523 0.0
O585 O 0.27716 0.04507 0.52559 0.0
O586 O 0.23904 0.14416 0.45987 0.0
O587 O 0.21091 0.10905 0.44943 0.0
C588 C 0.22076 0.13326 0.44413 0.0
C589 C 0.245 0.02721 0.44756 0.0
O590 O 0.30615 0.13142 0.47892 0.0
O591 O 0.23062 0.21902 0.51865 0.0
O592 O 0.32097 0.08654 0.47574 0.0
O593 O 0.26658 0.20708 0.46371 0.0
O594 O 0.27328 0.22069 0.53835 0.0
O595 O 0.30841 0.19573 0.48005 0.0
O596 O 0.21838 0.11744 0.51472 0.0
O597 O 0.19714 0.15864 0.51072 0.0
C598 C 0.25285 0.03944 0.53471 0.0
C599 C 0.30413 0.12775 0.55222 0.0
C600 C 0.36268 0.54987 0.71668 0.0
C601 C 0.46763 0.54417 0.74509 0.0
C602 C 0.45558 0.45703 0.74648 0.0
Mg603 Mg 0.31311 0.50841 0.7304 0.0
Mg604 Mg 0.31449 0.47427 0.78873 0.0
O605 O 0.33118 0.47811 0.75366 0.0
Mg606 Mg 0.36912 0.49444 0.75628 0.0
O607 O 0.40621 0.51272 0.7554 0.0
Mg608 Mg 0.41663 0.5077 0.71502 0.0
Mg609 Mg 0.43291 0.50405 0.78188 0.0
C610 C 0.36908 0.43918 0.79769 0.0
O611 O 0.36375 0.51094 0.80117 0.0
O612 O 0.27494 0.47951 0.7307 0.0
O613 O 0.40754 0.50954 0.81843 0.0
O614 O 0.29203 0.53103 0.76703 0.0
O615 O 0.27515 0.45958 0.7737 0.0
O616 O 0.30737 0.51365 0.80713 0.0
O617 O 0.37766 0.47979 0.71225 0.0
O618 O 0.33556 0.48702 0.69357 0.0
C619 C 0.36119 0.47944 0.6913 0.0
C620 C 0.26413 0.46382 0.74968 0.0
O621 O 0.3819 0.45224 0.77783 0.0
O622 O 0.45419 0.53642 0.72335 0.0
O623 O 0.3451 0.44683 0.80679 0.0
O624 O 0.44637 0.47026 0.72501 0.0
O625 O 0.46229 0.5351 0.76971 0.0
O626 O 0.44947 0.46455 0.7712 0.0
O627 O 0.35273 0.53385 0.73558 0.0
O628 O 0.38682 0.54519 0.70609 0.0
C629 C 0.29335 0.53176 0.79359 0.0
C630 C 0.38124 0.51332 0.82123 0.0
C631 C 0.70918 0.35665 0.53243 0.0
C632 C 0.71942 0.46212 0.52677 0.0
C633 C 0.7428 0.44954 0.44204 0.0
Mg634 Mg 0.73556 0.30703 0.49868 0.0
Mg635 Mg 0.79647 0.3104 0.46851 0.0
O636 O 0.76044 0.32536 0.47025 0.0
Mg637 Mg 0.75587 0.36458 0.4836 0.0
O638 O 0.74654 0.40233 0.49859 0.0
Mg639 Mg 0.70675 0.40717 0.48612 0.0
Mg640 Mg 0.76915 0.43297 0.49773 0.0
C641 C 0.80226 0.36538 0.43213 0.0
O642 O 0.79842 0.36625 0.50701 0.0
O643 O 0.74293 0.26664 0.47448 0.0
O644 O 0.8065 0.41235 0.51141 0.0
O645 O 0.77184 0.29308 0.52731 0.0
O646 O 0.78553 0.26892 0.45465 0.0
O647 O 0.81254 0.30648 0.5098 0.0
O648 O 0.71416 0.3665 0.46145 0.0
O649 O 0.69983 0.32309 0.4702 0.0
C650 C 0.69572 0.34749 0.45962 0.0
C651 C 0.76277 0.25609 0.45993 0.0
O652 O 0.78109 0.37725 0.44389 0.0
O653 O 0.70268 0.44622 0.51367 0.0
O654 O 0.81241 0.34195 0.44059 0.0
O655 O 0.72028 0.43724 0.44952 0.0
O656 O 0.74593 0.45973 0.52503 0.0
O657 O 0.76513 0.44785 0.45634 0.0
O658 O 0.73183 0.34859 0.52087 0.0
O659 O 0.69595 0.37828 0.52351 0.0
C660 C 0.79825 0.29546 0.52934 0.0
C661 C 0.81373 0.38676 0.51449 0.0
C662 C 0.63614 0.00976 0.68861 0.0
C663 C 0.7339 0.01317 0.74318 0.0
C664 C 0.7033 0.9452 0.78755 0.0
Mg665 Mg 0.57761 0.98464 0.7083 0.0
Mg666 Mg 0.55852 0.97668 0.7739 0.0
O667 O 0.5865 0.97268 0.74774 0.0
Mg668 Mg 0.62516 0.98772 0.75198 0.0
O669 O 0.66487 0.00079 0.75138 0.0
Mg670 Mg 0.68093 0.97203 0.72546 0.0
Mg671 Mg 0.68451 0.0053 0.78459 0.0
C672 C 0.60827 0.95914 0.81407 0.0
O673 O 0.61513 0.02776 0.77724 0.0
O674 O 0.53811 0.95734 0.71033 0.0
O675 O 0.65394 0.03253 0.80357 0.0
O676 O 0.54971 0.02217 0.72392 0.0
O677 O 0.52664 0.95152 0.75547 0.0
O678 O 0.54607 0.0188 0.77042 0.0
O679 O 0.6389 0.95005 0.72745 0.0
O680 O 0.60526 0.94735 0.69532 0.0
C681 C 0.62844 0.93879 0.70577 0.0
C682 C 0.52235 0.94723 0.72949 0.0
O683 O 0.62738 0.96551 0.79615 0.0
O684 O 0.72166 0.99666 0.72632 0.0
O685 O 0.58219 0.96288 0.80948 0.0
O686 O 0.70081 0.94527 0.76098 0.0
O687 O 0.72316 0.02061 0.76652 0.0
O688 O 0.69367 0.96516 0.80214 0.0
O689 O 0.61901 0.00918 0.70923 0.0
O690 O 0.6606 -0.00113 0.69071 0.0
C691 C 0.54124 0.0316 0.74751 0.0
C692 C 0.62913 0.04001 0.79652 0.0
C693 C 0.4592 0.31439 0.13864 0.0
C694 C 0.45747 0.26088 0.2376 0.0
C695 C 0.53731 0.23415 0.21543 0.0
Mg696 Mg 0.49329 0.29845 0.08258 0.0
Mg697 Mg 0.50801 0.23402 0.06895 0.0
O698 O 0.51194 0.26246 0.09426 0.0
Mg699 Mg 0.49506 0.25712 0.13248 0.0
O700 O 0.47845 0.25559 0.17099 0.0
Mg701 Mg 0.49857 0.28769 0.18797 0.0
Mg702 Mg 0.48118 0.22202 0.19113 0.0
C703 C 0.53207 0.20036 0.12052 0.0
O704 O 0.46261 0.22467 0.12073 0.0
O705 O 0.5205 0.29812 0.04234 0.0
O706 O 0.46123 0.19712 0.15927 0.0
O707 O 0.45922 0.27681 0.05483 0.0
O708 O 0.52841 0.2527 0.03398 0.0
O709 O 0.46556 0.23086 0.05758 0.0
O710 O 0.52552 0.28865 0.14768 0.0
O711 O 0.52779 0.31762 0.11084 0.0
C712 C 0.53542 0.31034 0.13565 0.0
C713 C 0.53032 0.27843 0.0271 0.0
O714 O 0.52404 0.21843 0.1386 0.0
O715 O 0.46939 0.28177 0.22579 0.0
O716 O 0.52661 0.20226 0.0944 0.0
O717 O 0.5303 0.25971 0.21215 0.0
O718 O 0.45927 0.23598 0.22822 0.0
O719 O 0.5234 0.21477 0.20413 0.0
O720 O 0.46722 0.29449 0.12287 0.0
O721 O 0.46682 0.31525 0.16425 0.0
C722 C 0.45177 0.25194 0.04892 0.0
C723 C 0.45399 0.20293 0.134 0.0
H724 H 0.02962 0.38856 0.67446 0.0
H725 H 0.0882 0.27828 0.7806 0.0
H726 H 0.09246 0.32863 0.65024 0.0
H727 H 0.04262 0.35212 0.80459 0.0
H728 H 0.09711 0.29944 0.73505 0.0
H729 H 0.0385 0.37745 0.723 0.0
C730 C 0.04518 0.3728 0.6793 0.0
C731 C 0.05994 0.35912 0.65807 0.0
C732 C 0.08587 0.31135 0.75056 0.0
C733 C 0.07042 0.34634 0.71426 0.0
C734 C 0.081 0.29941 0.77681 0.0
C735 C 0.06354 0.31297 0.79612 0.0
C736 C 0.07326 0.33697 0.74375 0.0
C737 C 0.05538 0.34048 0.79006 0.0
C738 C 0.05053 0.36674 0.7072 0.0
C739 C 0.08026 0.33935 0.66589 0.0
N740 N 0.05956 0.35123 0.76411 0.0
N741 N 0.08465 0.33324 0.6934 0.0
H742 H 0.58515 0.6759 0.63031 0.0
H743 H 0.51335 0.78404 0.52689 0.0
H744 H 0.59835 0.76442 0.63417 0.0
H745 H 0.51202 0.69457 0.51924 0.0
H746 H 0.53333 0.77854 0.57373 0.0
H747 H 0.54604 0.68398 0.59883 0.0
C748 C 0.57924 0.69711 0.62495 0.0
C749 C 0.59499 0.71954 0.63426 0.0
C750 C 0.52823 0.76017 0.56191 0.0
C751 C 0.55125 0.72895 0.59751 0.0
C752 C 0.51694 0.76327 0.53521 0.0
C753 C 0.5118 0.73971 0.51896 0.0
C754 C 0.5341 0.73333 0.5723 0.0
C755 C 0.51643 0.7133 0.53077 0.0
C756 C 0.55705 0.70175 0.60693 0.0
C757 C 0.58661 0.74666 0.62713 0.0
N758 N 0.52756 0.71085 0.55661 0.0
N759 N 0.56562 0.75065 0.60848 0.0
H760 H 0.02077 0.14892 0.61827 0.0
H761 H 0.95434 0.24137 0.73882 0.0
H762 H 0.94119 0.13326 0.65704 0.0
H763 H 0.04152 0.21889 0.7373 0.0
H764 H 0.94808 0.217 0.6945 0.0
H765 H 0.02686 0.18914 0.64928 0.0
C766 C 0.00459 0.15417 0.63315 0.0
C767 C 0.98084 0.13764 0.63591 0.0
C768 C 0.96868 0.21812 0.70362 0.0
C769 C 0.98697 0.18355 0.66986 0.0
C770 C 0.97225 0.23196 0.72873 0.0
C771 C -0.00171 0.23135 0.74179 0.0
C772 C 0.99143 0.20418 0.69158 0.0
C773 C 0.02097 0.21909 0.72801 0.0
C774 C 0.00795 0.17703 0.65053 0.0
C775 C 0.96013 0.14523 0.655 0.0
N776 N 0.01697 0.20562 0.70366 0.0
N777 N 0.96369 0.1677 0.67136 0.0
H778 H 0.36898 0.73658 0.61021 0.0
H779 H 0.3771 0.75216 0.44499 0.0
H780 H 0.31015 0.78335 0.55985 0.0
H781 H 0.43085 0.69666 0.49181 0.0
H782 H 0.34796 0.75778 0.48632 0.0
H783 H 0.38961 0.71793 0.56719 0.0
C784 C 0.36046 0.743 0.59023 0.0
C785 C 0.33794 0.76179 0.58877 0.0
C786 C 0.36575 0.74382 0.48747 0.0
C787 C 0.36104 0.7402 0.53959 0.0
C788 C 0.38215 0.74031 0.46369 0.0
C789 C 0.40656 0.72417 0.46501 0.0
C790 C 0.37415 0.73153 0.5129 0.0
C791 C 0.4122 0.70935 0.48985 0.0
C792 C 0.37203 0.73212 0.56569 0.0
C793 C 0.32754 0.76905 0.56221 0.0
N794 N 0.39656 0.71398 0.51307 0.0
N795 N 0.33922 0.75838 0.53884 0.0
H796 H 0.06292 0.68301 0.88141 0.0
H797 H 0.04776 0.7501 0.75371 0.0
H798 H 0.09597 0.61396 0.83442 0.0
H799 H 0.04185 0.66579 0.72392 0.0
H800 H 0.06999 0.73255 0.79627 0.0
H801 H 0.059 0.70996 0.83791 0.0
C802 C 0.0701 0.67382 0.86211 0.0
C803 C 0.07926 0.64603 0.86151 0.0
C804 C 0.06403 0.71794 0.78033 0.0
C805 C 0.075 0.67665 0.81169 0.0
C806 C 0.05169 0.72794 0.75578 0.0
C807 C 0.0423 0.7093 0.73542 0.0
C808 C 0.06716 0.68912 0.78441 0.0
C809 C 0.04825 0.68088 0.73923 0.0
C810 C 0.06796 0.68925 0.83722 0.0
C811 C 0.0882 0.63513 0.83584 0.0
N812 N 0.06002 0.67165 0.76341 0.0
N813 N 0.08529 0.65022 0.81196 0.0
H814 H 0.88421 0.7464 0.37635 0.0
H815 H 0.90344 0.70295 0.53736 0.0
H816 H 0.85276 0.67103 0.41398 0.0
H817 H 0.93121 0.78181 0.50422 0.0
H818 H 0.88292 0.6924 0.49227 0.0
H819 H 0.90257 0.76008 0.42225 0.0
C820 C 0.88178 0.73248 0.39408 0.0
C821 C 0.86707 0.70751 0.39139 0.0
C822 C 0.89313 0.71223 0.49486 0.0
C823 C 0.88714 0.72325 0.44382 0.0
C824 C 0.90454 0.71841 0.52079 0.0
C825 C 0.919 0.74333 0.52465 0.0
C826 C 0.89647 0.73091 0.47234 0.0
C827 C 0.92 0.76246 0.50227 0.0
C828 C 0.89183 0.74045 0.42032 0.0
C829 C 0.86396 0.69048 0.41514 0.0
N830 N 0.90927 0.75568 0.47692 0.0
N831 N 0.87376 0.69869 0.44024 0.0
H832 H 0.8848 0.83482 0.88663 0.0
H833 H 0.90598 0.79133 0.75137 0.0
H834 H 0.97346 0.82031 0.8843 0.0
H835 H 0.95804 0.72671 0.78681 0.0
H836 H 0.8959 0.80815 0.79855 0.0
H837 H 0.87905 0.80073 0.84905 0.0
C838 C 0.90287 0.82354 0.879 0.0
C839 C 0.92965 0.83019 0.88833 0.0
C840 C 0.90864 0.78963 0.79606 0.0
C841 C 0.92327 0.79173 0.84579 0.0
C842 C 0.91443 0.78013 0.76922 0.0
C843 C 0.93258 0.75753 0.76547 0.0
C844 C 0.92203 0.77704 0.81902 0.0
C845 C 0.94362 0.744 0.78907 0.0
C846 C 0.89959 0.8044 0.8575 0.0
C847 C 0.95252 0.81559 0.87753 0.0
N848 N 0.93891 0.75454 0.8149 0.0
N849 N 0.94884 0.7971 0.85662 0.0
H850 H 0.10426 0.83941 0.38871 0.0
H851 H 0.02755 0.73075 0.48505 0.0
H852 H 0.07261 0.76142 0.35858 0.0
H853 H 0.03642 0.817 0.50818 0.0
H854 H 0.04362 0.74227 0.43833 0.0
H855 H 0.07727 0.83331 0.43149 0.0
C856 C 0.09108 0.8213 0.3909 0.0
C857 C 0.0909 0.80064 0.37042 0.0
C858 C 0.04193 0.75872 0.45356 0.0
C859 C 0.06065 0.79324 0.41934 0.0
C860 C 0.03312 0.75212 0.48041 0.0
C861 C 0.03093 0.77292 0.50069 0.0
C862 C 0.04898 0.78626 0.44696 0.0
C863 C 0.03801 0.80028 0.49325 0.0
C864 C 0.07576 0.81781 0.41531 0.0
C865 C 0.07337 0.77774 0.374 0.0
N866 N 0.04695 0.80614 0.46696 0.0
N867 N 0.05933 0.77434 0.39837 0.0
H868 H 0.67593 0.03188 0.39482 0.0
H869 H 0.77865 0.09557 0.28557 0.0
H870 H 0.64954 0.09128 0.33182 0.0
H871 H 0.80448 0.04759 0.35775 0.0
H872 H 0.73378 0.10398 0.30776 0.0
H873 H 0.72398 0.04383 0.38552 0.0
C874 C 0.68022 0.04728 0.37876 0.0
C875 C 0.65858 0.06023 0.3637 0.0
C876 C 0.74953 0.09229 0.31911 0.0
C877 C 0.71403 0.07429 0.35309 0.0
C878 C 0.77539 0.08771 0.30658 0.0
C879 C 0.79473 0.06937 0.31914 0.0
C880 C 0.7433 0.07855 0.3443 0.0
C881 C 0.78967 0.06075 0.34672 0.0
C882 C 0.70777 0.05443 0.37376 0.0
C883 C 0.66557 0.08049 0.34364 0.0
N884 N 0.76401 0.06455 0.35801 0.0
N885 N 0.69275 0.08666 0.33864 0.0
H886 H 0.31784 0.07787 0.87635 0.0
H887 H 0.1968 0.989 0.93895 0.0
H888 H 0.2367 0.11626 0.88393 0.0
H889 H 0.26316 0.95515 0.88851 0.0
H890 H 0.20803 0.03568 0.92143 0.0
H891 H 0.29762 0.033 0.88797 0.0
C892 C 0.2958 0.07691 0.88118 0.0
C893 C 0.2789 0.10076 0.87912 0.0
C894 C 0.21947 0.01789 0.91355 0.0
C895 C 0.25538 0.04918 0.89165 0.0
C896 C 0.2128 0.99113 0.92313 0.0
C897 C 0.22953 0.96818 0.91561 0.0
C898 C 0.24301 0.02143 0.89656 0.0
C899 C 0.25007 0.9723 0.8952 0.0
C900 C 0.28417 0.05121 0.88729 0.0
C901 C 0.25045 0.09834 0.88556 0.0
N902 N 0.25677 -0.00149 0.88702 0.0
N903 N 0.23943 0.07283 0.89144 0.0
H904 H 0.33644 0.42874 0.39978 0.0
H905 H 0.25436 0.43866 0.25839 0.0
H906 H 0.37746 0.42404 0.31985 0.0
H907 H 0.21671 0.43849 0.34026 0.0
H908 H 0.29783 0.42163 0.27897 0.0
H909 H 0.29207 0.42107 0.37747 0.0
C910 C 0.33607 0.42592 0.3774 0.0
C911 C 0.36054 0.42761 0.36153 0.0
C912 C 0.27985 0.42458 0.29231 0.0
C913 C 0.30933 0.41953 0.33548 0.0
C914 C 0.25488 0.43414 0.28057 0.0
C915 C 0.23209 0.44085 0.29781 0.0
C916 C 0.28188 0.42167 0.3214 0.0
C917 C 0.23395 0.43429 0.32628 0.0
C918 C 0.31064 0.42142 0.36462 0.0
C919 C 0.35892 0.42327 0.3327 0.0
N920 N 0.2586 0.42561 0.33724 0.0
N921 N 0.33353 0.42009 0.32041 0.0
H922 H 0.73063 0.40284 0.81531 0.0
H923 H 0.69267 0.49472 0.94549 0.0
H924 H 0.68742 0.36791 0.88631 0.0
H925 H 0.7709 0.50532 0.90231 0.0
H926 H 0.68476 0.45206 0.91914 0.0
H927 H 0.7406 0.4445 0.84258 0.0
C928 C 0.72333 0.40396 0.83669 0.0
C929 C 0.70822 0.38201 0.84869 0.0
C930 C 0.70362 0.46379 0.91549 0.0
C931 C 0.71903 0.42959 0.87956 0.0
C932 C 0.70804 0.48822 0.93025 0.0
C933 C 0.73245 0.50356 0.92596 0.0
C934 C 0.72343 0.45505 0.89586 0.0
C935 C 0.75184 0.49403 0.90623 0.0
C936 C 0.7291 0.42762 0.85219 0.0
C937 C 0.6993 0.38436 0.87644 0.0
N938 N 0.74679 0.47045 0.89167 0.0
N939 N 0.70453 0.40798 0.89089 0.0
H940 H 0.63198 0.92894 0.17151 0.0
H941 H 0.73179 0.04046 0.22526 0.0
H942 H 0.61153 0.01633 0.1665 0.0
H943 H 0.73384 0.95653 0.25811 0.0
H944 H 0.68438 0.03311 0.20909 0.0
H945 H 0.66479 0.93846 0.20906 0.0
C946 C 0.63395 0.95006 0.17901 0.0
C947 C 0.61955 0.972 0.16598 0.0
C948 C 0.69492 0.01643 0.2203 0.0
C949 C 0.65743 0.9832 0.20799 0.0
C950 C 0.72209 0.02052 0.22924 0.0
C951 C 0.73687 -0.00123 0.24229 0.0
C952 C 0.68275 0.99017 0.22378 0.0
C953 C 0.72319 0.97364 0.24768 0.0
C954 C 0.65258 0.95551 0.20041 0.0
C955 C 0.62251 -0.00102 0.17616 0.0
N956 N 0.69703 0.96976 0.23777 0.0
N957 N 0.64176 0.00399 0.1962 0.0
H958 H 0.17484 0.0937 0.13866 0.0
H959 H 0.2596 0.02539 0.01451 0.0
H960 H 0.22475 0.14212 0.08128 0.0
H961 H 0.18828 0.98614 0.05281 0.0
H962 H 0.24886 0.06791 0.04026 0.0
H963 H 0.18062 0.05338 0.10844 0.0
C964 C 0.18676 0.09591 0.11956 0.0
C965 C 0.19946 0.12121 0.11252 0.0
C966 C 0.2355 0.05001 0.04283 0.0
C967 C 0.20647 0.07519 0.07818 0.0
C968 C 0.24172 0.02571 0.02831 0.0
C969 C 0.22489 0.00218 0.03164 0.0
C970 C 0.21256 0.05055 0.06104 0.0
C971 C 0.20182 0.0038 0.0496 0.0
C972 C 0.19002 0.07293 0.10233 0.0
C973 C 0.21457 0.123 0.08747 0.0
N974 N 0.19646 0.02752 0.06382 0.0
N975 N 0.21797 0.10015 0.07135 0.0
H976 H 0.36276 0.60999 0.15798 0.0
H977 H 0.28356 0.52239 0.27544 0.0
H978 H 0.39276 0.53011 0.18737 0.0
H979 H 0.24447 0.57845 0.21646 0.0
H980 H 0.32942 0.53501 0.25615 0.0
H981 H 0.32624 0.60885 0.19337 0.0
C982 C 0.36208 0.5925 0.17242 0.0
C983 C 0.38044 0.56984 0.16946 0.0
C984 C 0.31083 0.5451 0.24805 0.0
C985 C 0.33844 0.56829 0.20974 0.0
C986 C 0.28479 0.53814 0.25915 0.0
C987 C 0.26044 0.54964 0.24754 0.0
C988 C 0.3123 0.56398 0.22557 0.0
C989 C 0.26287 0.56934 0.22603 0.0
C990 C 0.34117 0.59185 0.19252 0.0
C991 C 0.37888 0.5479 0.18891 0.0
N992 N 0.28835 0.57583 0.21566 0.0
N993 N 0.35775 0.54737 0.20797 0.0
H994 H 0.7229 0.37861 0.10385 0.0
H995 H 0.78844 0.52469 0.06401 0.0
H996 H 0.80989 0.39278 0.08686 0.0
H997 H 0.70388 0.50652 0.04004 0.0
H998 H 0.79285 0.47785 0.0834 0.0
H999 H 0.71222 0.42582 0.08607 0.0
C1000 C 0.73954 0.39123 0.09532 0.0
C1001 C 0.7673 0.38201 0.09672 0.0
C1002 C 0.7732 0.48424 0.07418 0.0
C1003 C 0.75555 0.43581 0.07808 0.0
C1004 C 0.77054 0.5111 0.06351 0.0
C1005 C 0.746 0.51928 0.04984 0.0
C1006 C 0.75116 0.46548 0.07127 0.0
C1007 C 0.7233 0.50093 0.05017 0.0
C1008 C 0.73352 0.41824 0.08574 0.0
C1009 C 0.78824 0.39925 0.0861 0.0
N1010 N 0.72656 0.47455 0.06028 0.0
N1011 N 0.78199 0.4255 0.07769 0.0
H1012 H 0.42038 0.68299 0.06407 0.0
H1013 H 0.27991 0.76907 0.08093 0.0
H1014 H 0.34022 0.64616 0.08115 0.0
H1015 H 0.35546 0.80162 0.04462 0.0
H1016 H 0.30568 0.72787 0.09647 0.0
H1017 H 0.39994 0.72888 0.07023 0.0
C1018 C 0.39841 0.68446 0.06906 0.0
C1019 C 0.38183 0.66054 0.0714 0.0
C1020 C 0.31675 0.74437 0.08574 0.0
C1021 C 0.35841 0.71342 0.07888 0.0
C1022 C 0.30215 0.76813 0.07712 0.0
C1023 C 0.31535 0.7883 0.06037 0.0
C1024 C 0.3447 0.74108 0.07784 0.0
C1025 C 0.34427 0.78615 0.05669 0.0
C1026 C 0.38685 0.71078 0.07282 0.0
C1027 C 0.35367 0.66398 0.07858 0.0
N1028 N 0.35787 0.76254 0.06469 0.0
N1029 N 0.34276 0.68999 0.08177 0.0
H1030 H 0.32782 0.38017 0.42483 0.0
H1031 H 0.34835 0.21698 0.45142 0.0
H1032 H 0.3921 0.34069 0.47466 0.0
H1033 H 0.26693 0.25308 0.43698 0.0
H1034 H 0.36908 0.2622 0.44159 0.0
H1035 H 0.30888 0.33368 0.41482 0.0
C1036 C 0.33787 0.36188 0.43369 0.0
C1037 C 0.36131 0.36442 0.45099 0.0
C1038 C 0.3467 0.26004 0.43995 0.0
C1039 C 0.34067 0.31163 0.43862 0.0
C1040 C 0.33486 0.23417 0.44533 0.0
C1041 C 0.30581 0.23146 0.44601 0.0
C1042 C 0.32937 0.28333 0.43537 0.0
C1043 C 0.28943 0.25438 0.43734 0.0
C1044 C 0.32724 0.33546 0.42776 0.0
C1045 C 0.37375 0.33997 0.4616 0.0
N1046 N 0.30139 0.27966 0.43312 0.0
N1047 N 0.36336 0.31475 0.45516 0.0
H1048 H 0.61179 0.36943 0.71068 0.0
H1049 H 0.47587 0.42092 0.78568 0.0
H1050 H 0.60843 0.39423 0.79677 0.0
H1051 H 0.4897 0.44897 0.70091 0.0
H1052 H 0.52237 0.40044 0.78613 0.0
H1053 H 0.56652 0.39284 0.70272 0.0
C1054 C 0.60218 0.38103 0.72748 0.0
C1055 C 0.61383 0.38037 0.75432 0.0
C1056 C 0.5151 0.41086 0.76733 0.0
C1057 C 0.56192 0.40523 0.74591 0.0
C1058 C 0.48841 0.42222 0.7669 0.0
C1059 C 0.47905 0.43718 0.74342 0.0
C1060 C 0.53251 0.41412 0.74403 0.0
C1061 C 0.49617 0.43778 0.71954 0.0
C1062 C 0.57623 0.39386 0.72307 0.0
C1063 C 0.60021 0.39468 0.77572 0.0
N1064 N 0.52236 0.42667 0.72052 0.0
N1065 N 0.57469 0.40603 0.77121 0.0
H1066 H 0.68402 0.11075 0.39979 0.0
H1067 H 0.77273 0.21265 0.49408 0.0
H1068 H 0.67937 0.11566 0.48939 0.0
H1069 H 0.74546 0.23352 0.41083 0.0
H1070 H 0.75566 0.16519 0.48791 0.0
H1071 H 0.72287 0.14385 0.40008 0.0
C1072 C 0.69199 0.11798 0.41955 0.0
C1073 C 0.67876 0.11071 0.44463 0.0
C1074 C 0.75422 0.17988 0.47067 0.0
C1075 C 0.72259 0.1482 0.44513 0.0
C1076 C 0.76404 0.20681 0.47412 0.0
C1077 C 0.76033 0.22669 0.4529 0.0
C1078 C 0.74039 0.17305 0.44594 0.0
C1079 C 0.74868 0.21852 0.42755 0.0
C1080 C 0.71391 0.13693 0.41969 0.0
C1081 C 0.6892 0.12093 0.4697 0.0
N1082 N 0.73863 0.19228 0.42487 0.0
N1083 N 0.71043 0.13938 0.46932 0.0
H1084 H 0.8723 0.59856 0.25175 0.0
H1085 H 0.0277 0.56491 0.30394 0.0
H1086 H 0.9059 0.62303 0.33118 0.0
H1087 H -0.00132 0.5433 0.22187 0.0
H1088 H 0.98325 0.5879 0.31305 0.0
H1089 H 0.91754 0.57704 0.24014 0.0
C1090 C 0.88895 0.59877 0.26698 0.0
C1091 C 0.88539 0.61247 0.29249 0.0
C1092 C 0.98661 0.57847 0.29287 0.0
C1093 C 0.93714 0.5888 0.27914 0.0
C1094 C 0.01214 0.56561 0.28758 0.0
C1095 C 0.01687 0.55221 0.26213 0.0
C1096 C 0.96539 0.57768 0.27271 0.0
C1097 C 0.99595 0.55363 0.24168 0.0
C1098 C 0.91486 0.58692 0.26019 0.0
C1099 C 0.90778 0.61269 0.31126 0.0
N1100 N 0.97091 0.56579 0.24755 0.0
N1101 N 0.93264 0.60121 0.30417 0.0
H1102 H 0.14406 0.34497 0.61871 0.0
H1103 H 0.27485 0.27996 0.53959 0.0
H1104 H 0.19084 0.39154 0.5576 0.0
H1105 H 0.20167 0.23548 0.56611 0.0
H1106 H 0.2556 0.3226 0.56083 0.0
H1107 H 0.17828 0.30717 0.61584 0.0
C1108 C 0.16221 0.34757 0.60547 0.0
C1109 C 0.16477 0.37107 0.58821 0.0
C1110 C 0.24418 0.30329 0.56248 0.0
C1111 C 0.20327 0.32788 0.58419 0.0
C1112 C 0.25508 0.27911 0.55047 0.0
C1113 C 0.23952 0.25452 0.55099 0.0
C1114 C 0.21803 0.30237 0.57557 0.0
C1115 C 0.21403 0.25423 0.56509 0.0
C1116 C 0.18156 0.32601 0.6037 0.0
C1117 C 0.18838 0.37361 0.57122 0.0
N1118 N 0.20403 0.27785 0.57679 0.0
N1119 N 0.20658 0.35186 0.56914 0.0
H1120 H 0.59067 0.67455 0.74942 0.0
H1121 H 0.50371 0.54641 0.70138 0.0
H1122 H 0.63005 0.60302 0.71173 0.0
H1123 H 0.48594 0.58336 0.7813 0.0
H1124 H 0.5464 0.57394 0.69839 0.0
H1125 H 0.5483 0.64697 0.75659 0.0
C1126 C 0.5905 0.65295 0.7431 0.0
C1127 C 0.61378 0.64091 0.73008 0.0
C1128 C 0.53301 0.57602 0.71649 0.0
C1129 C 0.5656 0.61002 0.73723 0.0
C1130 C 0.50862 0.56063 0.71806 0.0
C1131 C 0.49148 0.56272 0.74162 0.0
C1132 C 0.53979 0.59397 0.73831 0.0
C1133 C 0.49881 0.58118 0.76286 0.0
C1134 C 0.56644 0.63736 0.74712 0.0
C1135 C 0.6126 0.61294 0.7221 0.0
N1136 N 0.52246 0.59634 0.76064 0.0
N1137 N 0.58866 0.59852 0.72535 0.0
H1138 H 0.35469 0.88784 0.7163 0.0
H1139 H 0.51274 0.92063 0.68003 0.0
H1140 H 0.40085 0.83872 0.65669 0.0
H1141 H 0.47536 0.9379 0.76012 0.0
H1142 H 0.4703 0.89603 0.66649 0.0
H1143 H 0.39716 0.91289 0.72735 0.0
C1144 C 0.37369 0.88251 0.70528 0.0
C1145 C 0.37424 0.86107 0.68558 0.0
C1146 C 0.47154 0.90515 0.68703 0.0
C1147 C 0.42292 0.8897 0.69825 0.0
C1148 C 0.49566 0.91921 0.69476 0.0
C1149 C 0.49758 0.93126 0.72127 0.0
C1150 C 0.44909 0.90371 0.70575 0.0
C1151 C 0.47487 0.92877 0.73956 0.0
C1152 C 0.39795 0.89669 0.71179 0.0
C1153 C 0.39955 0.855 0.67212 0.0
N1154 N 0.45148 0.91546 0.73136 0.0
N1155 N 0.42295 0.86932 0.67867 0.0
H1156 H 0.57947 0.84411 0.14761 0.0
H1157 H 0.54188 0.85614 0.30942 0.0
H1158 H 0.53049 0.90962 0.18521 0.0
H1159 H 0.5799 0.78274 0.27414 0.0
H1160 H 0.54937 0.88069 0.2654 0.0
H1161 H 0.5872 0.82387 0.19434 0.0
C1162 C 0.56997 0.85395 0.16555 0.0
C1163 C 0.55415 0.87849 0.16244 0.0
C1164 C 0.55664 0.85937 0.26743 0.0
C1165 C 0.56382 0.85622 0.21577 0.0
C1166 C 0.55282 0.84551 0.29279 0.0
C1167 C 0.55949 0.81713 0.29521 0.0
C1168 C 0.56697 0.84463 0.24435 0.0
C1169 C 0.57394 0.8045 0.27305 0.0
C1170 C 0.57479 0.84269 0.19221 0.0
C1171 C 0.54283 0.89069 0.18651 0.0
N1172 N 0.57641 0.81807 0.24816 0.0
N1173 N 0.54796 0.8795 0.21202 0.0
H1174 H 0.10435 0.26746 0.13795 0.0
H1175 H 0.02157 0.18874 0.01881 0.0
H1176 H 0.11593 0.18152 0.11507 0.0
H1177 H 0.02026 0.27812 0.02785 0.0
H1178 H 0.04585 0.18448 0.06314 0.0
H1179 H 0.06381 0.27023 0.10655 0.0
C1180 C 0.09793 0.2491 0.12676 0.0
C1181 C 0.11358 0.22442 0.1284 0.0
C1182 C 0.04003 0.20505 0.0556 0.0
C1183 C 0.06777 0.22727 0.09309 0.0
C1184 C 0.02627 0.20749 0.03023 0.0
C1185 C 0.01963 0.23386 0.01931 0.0
C1186 C 0.04762 0.22916 0.06997 0.0
C1187 C 0.02548 0.2574 0.03536 0.0
C1188 C 0.07497 0.25067 0.10888 0.0
C1189 C 0.10462 0.20109 0.11376 0.0
N1190 N 0.03968 0.25455 0.05974 0.0
N1191 N 0.08245 0.20316 0.09652 0.0
H1192 H 0.51524 0.61268 0.15257 0.0
H1193 H 0.46631 0.74726 0.22602 0.0
H1194 H 0.46179 0.67146 0.10967 0.0
H1195 H 0.54442 0.70638 0.2456 0.0
H1196 H 0.46572 0.72289 0.18124 0.0
H1197 H 0.52846 0.64902 0.18507 0.0
C1198 C 0.50677 0.6335 0.1498 0.0
C1199 C 0.48741 0.63933 0.12881 0.0
C1200 C 0.48324 0.7198 0.19516 0.0
C1201 C 0.50157 0.68063 0.16609 0.0
C1202 C 0.4835 0.73355 0.22071 0.0
C1203 C 0.50494 0.72805 0.23986 0.0
C1204 C 0.50445 0.70044 0.18911 0.0
C1205 C 0.52697 0.71049 0.23184 0.0
C1206 C 0.51431 0.65425 0.16821 0.0
C1207 C 0.47687 0.66646 0.12577 0.0
N1208 N 0.5259 0.69694 0.20728 0.0
N1209 N 0.48359 0.68612 0.14475 0.0
H1210 H 0.80928 0.2825 0.061 0.0
H1211 H 0.93481 0.1948 0.996 0.0
H1212 H 0.87386 0.24394 0.11117 0.0
H1213 H 0.88104 0.25007 0.94892 0.0
H1214 H 0.90574 0.2023 0.03731 0.0
H1215 H 0.8295 0.26185 0.01969 0.0
C1216 C 0.82777 0.26966 0.06346 0.0
C1217 C 0.84003 0.26529 0.08982 0.0
C1218 C 0.89988 0.21216 0.01774 0.0
C1219 C 0.86334 0.24127 0.04193 0.0
C1220 C 0.91615 0.20748 0.99396 0.0
C1221 C 0.91041 0.22201 0.96899 0.0
C1222 C 0.87761 0.23121 0.01635 0.0
C1223 C 0.88625 0.23855 0.96777 0.0
C1224 C 0.83925 0.25776 0.03969 0.0
C1225 C 0.86387 0.24819 0.09133 0.0
N1226 N 0.871 0.24304 0.99123 0.0
N1227 N 0.87486 0.23691 0.06766 0.0
H1228 H 0.61791 0.13357 0.33927 0.0
H1229 H 0.55031 0.26482 0.26127 0.0
H1230 H 0.56402 0.19228 0.38057 0.0
H1231 H 0.56743 0.18576 0.22251 0.0
H1232 H 0.57131 0.24719 0.30456 0.0
H1233 H 0.616 0.16224 0.29686 0.0
C1234 C 0.60661 0.15317 0.3397 0.0
C1235 C 0.5912 0.16071 0.36339 0.0
C1236 C 0.57111 0.23403 0.28633 0.0
C1237 C 0.58836 0.19321 0.31481 0.0
C1238 C 0.55937 0.24409 0.26149 0.0
C1239 C 0.55688 0.22661 0.23823 0.0
C1240 C 0.58096 0.20651 0.28773 0.0
C1241 C 0.56873 0.19987 0.23995 0.0
C1242 C 0.6053 0.16933 0.31544 0.0
C1243 C 0.57644 0.18599 0.3628 0.0
N1244 N 0.58005 0.19056 0.26435 0.0
N1245 N 0.57502 0.20122 0.33866 0.0
H1246 H 0.39074 0.24155 0.88015 0.0
H1247 H 0.42009 0.2058 0.04088 0.0
H1248 H 0.35731 0.17018 0.92362 0.0
H1249 H 0.43902 0.28587 0.00433 0.0
H1250 H 0.39689 0.19274 0.99785 0.0
H1251 H 0.41076 0.25756 0.92444 0.0
C1252 C 0.38807 0.22901 0.89885 0.0
C1253 C 0.37245 0.20444 0.89818 0.0
C1254 C 0.40569 0.21337 -0.0007 0.0
C1255 C 0.39468 0.22282 0.94883 0.0
C1256 C 0.41867 0.22096 0.02406 0.0
C1257 C 0.43135 0.24706 0.02637 0.0
C1258 C 0.40577 0.23175 0.97631 0.0
C1259 C 0.42922 0.26566 0.00361 0.0
C1260 C 0.39912 0.23834 0.92417 0.0
C1261 C 0.36918 0.18926 0.92315 0.0
N1262 N 0.41709 0.25749 0.97936 0.0
N1263 N 0.38015 0.19867 0.94734 0.0
H1264 H 0.39173 0.34927 0.37591 0.0
H1265 H 0.4656 0.23139 0.28562 0.0
H1266 H 0.47175 0.31364 0.39661 0.0
H1267 H 0.42069 0.30182 0.25137 0.0
H1268 H 0.45303 0.24678 0.33286 0.0
H1269 H 0.38755 0.31612 0.3375 0.0
C1270 C 0.40783 0.33359 0.37305 0.0
C1271 C 0.4321 0.33392 0.38919 0.0
C1272 C 0.44521 0.25825 0.31491 0.0
C1273 C 0.42764 0.29652 0.34555 0.0
C1274 C 0.4522 0.24947 0.28806 0.0
C1275 C 0.44423 0.26556 0.26481 0.0
C1276 C 0.42968 0.28286 0.31822 0.0
C1277 C 0.42731 0.28903 0.26891 0.0
C1278 C 0.40552 0.31489 0.35113 0.0
C1279 C 0.45269 0.31373 0.38455 0.0
N1280 N 0.42072 0.29712 0.29518 0.0
N1281 N 0.45018 0.29595 0.3628 0.0
H1282 H 0.61821 0.34303 0.88507 0.0
H1283 H 0.53476 0.24307 0.98342 0.0
H1284 H 0.57422 0.27152 0.85461 0.0
H1285 H 0.54877 0.32867 0.00607 0.0
H1286 H 0.54957 0.25372 0.93612 0.0
H1287 H 0.59191 0.34007 0.92869 0.0
C1288 C 0.60247 0.32712 0.88737 0.0
C1289 C 0.59854 0.30724 0.86648 0.0
C1290 C 0.54927 0.27025 0.95134 0.0
C1291 C 0.56904 0.30334 0.91638 0.0
C1292 C 0.54121 0.26412 0.97853 0.0
C1293 C 0.54094 0.28495 -0.0011 0.0
C1294 C 0.55765 0.29731 0.94441 0.0
C1295 C 0.54894 0.31195 0.99107 0.0
C1296 C 0.58752 0.32544 0.91224 0.0
C1297 C 0.57787 0.28717 0.87028 0.0
N1298 N 0.55733 0.31732 0.96443 0.0
N1299 N 0.56428 0.28534 0.8951 0.0
H1300 H 0.17085 0.51903 0.91319 0.0
H1301 H 0.24665 0.55721 0.77225 0.0
H1302 H 0.12692 0.55926 0.84514 0.0
H1303 H 0.28934 0.53981 0.84983 0.0
H1304 H 0.20306 0.56207 0.79797 0.0
H1305 H 0.21442 0.52599 0.88852 0.0
C1306 C 0.17033 0.52891 0.89277 0.0
C1307 C 0.14522 0.53861 0.88121 0.0
C1308 C 0.2221 0.55788 0.80941 0.0
C1309 C 0.19526 0.54726 0.85307 0.0
C1310 C 0.24712 0.55544 0.7948 0.0
C1311 C 0.27147 0.54697 0.80886 0.0
C1312 C 0.2217 0.55184 0.83808 0.0
C1313 C 0.27087 0.54547 0.83808 0.0
C1314 C 0.1953 0.53329 0.87889 0.0
C1315 C 0.1458 0.55121 0.85466 0.0
N1316 N 0.24617 0.54708 0.85168 0.0
N1317 N 0.17054 0.55528 0.84145 0.0
H1318 H 0.81826 0.5928 0.38265 0.0
H1319 H 0.7015 0.48806 0.433 0.0
H1320 H 0.73174 0.61618 0.37543 0.0
H1321 H 0.78368 0.46376 0.4057 0.0
H1322 H 0.70966 0.53516 0.41437 0.0
H1323 H 0.80456 0.54659 0.39842 0.0
C1324 C 0.79631 0.58838 0.38533 0.0
C1325 C 0.77609 0.60827 0.37798 0.0
C1326 C 0.72555 0.51926 0.41183 0.0
C1327 C 0.76013 0.55496 0.39477 0.0
C1328 C 0.72073 0.49225 0.42194 0.0
C1329 C 0.74208 0.47209 0.42102 0.0
C1330 C 0.75192 0.52589 0.40105 0.0
C1331 C 0.76678 0.47877 0.40698 0.0
C1332 C 0.78846 0.56184 0.39374 0.0
C1333 C 0.7479 0.60144 0.38134 0.0
N1334 N 0.77124 0.50523 0.39809 0.0
N1335 N 0.74064 0.57512 0.3893 0.0
H1336 H 0.87289 0.90177 0.82173 0.0
H1337 H 0.71043 0.93293 0.84299 0.0
H1338 H 0.8344 0.94518 0.8904 0.0
H1339 H 0.74606 0.91705 0.76187 0.0
H1340 H 0.75467 0.91953 0.86436 0.0
H1341 H 0.82588 0.89268 0.80282 0.0
C1342 C 0.85468 0.90914 0.83289 0.0
C1343 C 0.8576 0.92481 0.85729 0.0
C1344 C 0.75263 0.91835 0.84189 0.0
C1345 C 0.80429 0.91364 0.83662 0.0
C1346 C 0.72725 0.92574 0.8297 0.0
C1347 C 0.72473 0.9269 0.80057 0.0
C1348 C 0.77576 0.91242 0.82484 0.0
C1349 C 0.74718 0.91693 0.78444 0.0
C1350 C 0.82796 0.90385 0.82223 0.0
C1351 C 0.83332 0.93356 0.87119 0.0
N1352 N 0.77209 0.91088 0.79673 0.0
N1353 N 0.80788 0.9279 0.86067 0.0
H1354 H 0.17002 0.91579 0.32853 0.0
H1355 H 0.27534 0.97962 0.43878 0.0
H1356 H 0.22363 0.86492 0.38067 0.0
H1357 H 0.19929 0.02166 0.41427 0.0
H1358 H 0.26162 0.93948 0.41094 0.0
H1359 H 0.18512 0.95701 0.35399 0.0
C1360 C 0.18493 0.9133 0.34534 0.0
C1361 C 0.19549 0.8869 0.35262 0.0
C1362 C 0.24805 0.95758 0.41162 0.0
C1363 C 0.21311 0.93387 0.38136 0.0
C1364 C 0.25593 0.98053 0.42729 0.0
C1365 C 0.23835 0.00392 0.42891 0.0
C1366 C 0.22264 0.95825 0.39715 0.0
C1367 C 0.21335 0.00394 0.41375 0.0
C1368 C 0.19348 0.93678 0.35984 0.0
C1369 C 0.21476 0.88485 0.37456 0.0
N1370 N 0.20625 0.98144 0.39844 0.0
N1371 N 0.2231 0.90806 0.38805 0.0
H1372 H 0.11227 0.48567 0.68145 0.0
H1373 H 0.24874 0.42215 0.71514 0.0
H1374 H 0.11783 0.39618 0.67791 0.0
H1375 H 0.21672 0.48267 0.77302 0.0
H1376 H 0.20076 0.41088 0.70183 0.0
H1377 H 0.14893 0.48546 0.71697 0.0
C1378 C 0.12062 0.46597 0.68899 0.0
C1379 C 0.11238 0.44094 0.67703 0.0
C1380 C 0.20425 0.42599 0.71807 0.0
C1381 C 0.15467 0.44057 0.71622 0.0
C1382 C 0.23147 0.4325 0.72543 0.0
C1383 C 0.23621 0.45332 0.74496 0.0
C1384 C 0.18206 0.44124 0.72965 0.0
C1385 C 0.21351 0.46646 0.7578 0.0
C1386 C 0.14141 0.4658 0.70917 0.0
C1387 C 0.12384 0.41584 0.68693 0.0
N1388 N 0.18724 0.46074 0.74935 0.0
N1389 N 0.14521 0.4163 0.70542 0.0
H1390 H 0.66655 0.62259 0.58012 0.0
H1391 H 0.73784 0.47817 0.57751 0.0
H1392 H 0.68043 0.57599 0.65653 0.0
H1393 H 0.6751 0.49628 0.51547 0.0
H1394 H 0.72029 0.51702 0.60535 0.0
H1395 H 0.67129 0.57911 0.55392 0.0
C1396 C 0.67008 0.60325 0.59143 0.0
C1397 C 0.67361 0.60304 0.62052 0.0
C1398 C 0.71017 0.51226 0.58579 0.0
C1399 C 0.67947 0.55377 0.59076 0.0
C1400 C 0.72026 0.4903 0.56989 0.0
C1401 C 0.70783 0.48422 0.54431 0.0
C1402 C 0.68809 0.52869 0.57556 0.0
C1403 C 0.68506 0.5004 0.53525 0.0
C1404 C 0.6727 0.57853 0.57648 0.0
C1405 C 0.67792 0.57731 0.6341 0.0
N1406 N 0.67616 0.52237 0.55068 0.0
N1407 N 0.68137 0.55381 0.61905 0.0
H1408 H 0.89922 0.01198 0.67617 0.0
H1409 H 0.75795 0.06469 0.74775 0.0
H1410 H 0.86477 0.09413 0.66214 0.0
H1411 H 0.77471 0.98003 0.72327 0.0
H1412 H 0.80487 0.07768 0.73128 0.0
H1413 H 0.86171 0.00262 0.70971 0.0
C1414 C 0.8843 0.02833 0.68084 0.0
C1415 C 0.8847 0.05367 0.66613 0.0
C1416 C 0.7983 0.05621 0.73002 0.0
C1417 C 0.84202 0.04315 0.70415 0.0
C1418 C 0.77168 0.04886 0.73932 0.0
C1419 C 0.76249 0.02145 0.73623 0.0
C1420 C 0.8158 0.03577 0.71836 0.0
C1421 C 0.78094 0.00153 0.72539 0.0
C1422 C 0.86285 0.02293 0.69977 0.0
C1423 C 0.86482 0.07415 0.6728 0.0
N1424 N 0.8067 0.00909 0.71677 0.0
N1425 N 0.84402 0.06834 0.69112 0.0
H1426 H 0.22007 0.87457 0.60332 0.0
H1427 H 0.29223 0.01999 0.57091 0.0
H1428 H 0.30862 0.88779 0.59789 0.0
H1429 H 0.20883 0.00397 0.54193 0.0
H1430 H 0.29447 0.97298 0.5902 0.0
H1431 H 0.21226 0.92229 0.58531 0.0
C1432 C 0.23777 0.88713 0.5973 0.0
C1433 C 0.26502 0.87739 0.60187 0.0
C1434 C 0.27553 0.97983 0.57989 0.0
C1435 C 0.25636 0.93179 0.58295 0.0
C1436 C 0.2741 0.00682 0.56924 0.0
C1437 C 0.25053 0.01574 0.55436 0.0
C1438 C 0.25323 0.96161 0.57567 0.0
C1439 C 0.2275 -0.00215 0.55312 0.0
C1440 C 0.23334 0.91443 0.58758 0.0
C1441 C 0.28731 0.89461 0.59455 0.0
N1442 N 0.22957 0.97135 0.56324 0.0
N1443 N 0.2825 0.92108 0.58585 0.0
H1444 H 0.8441 0.1366 0.57861 0.0
H1445 H 0.85377 0.2962 0.5426 0.0
H1446 H 0.92161 0.18085 0.56913 0.0
H1447 H 0.77675 0.25515 0.56367 0.0
H1448 H 0.87948 0.25691 0.56256 0.0
H1449 H 0.81952 0.18122 0.58136 0.0
C1450 C 0.85598 0.15564 0.57722 0.0
C1451 C 0.8849 0.15491 0.57293 0.0
C1452 C 0.85695 0.25675 0.56343 0.0
C1453 C 0.85693 0.20606 0.57634 0.0
C1454 C 0.84224 0.27932 0.55219 0.0
C1455 C 0.81309 0.27848 0.55051 0.0
C1456 C 0.84235 0.23312 0.57263 0.0
C1457 C 0.79926 0.25637 0.56383 0.0
C1458 C 0.84196 0.18114 0.57903 0.0
C1459 C 0.89923 0.1803 0.57184 0.0
N1460 N 0.81402 0.23412 0.57358 0.0
N1461 N 0.88507 0.20479 0.57314 0.0
H1462 H 0.81783 0.88107 0.91285 0.0
H1463 H 0.8337 0.71759 0.94062 0.0
H1464 H 0.88022 0.83971 0.96356 0.0
H1465 H 0.75248 0.75588 0.93196 0.0
H1466 H 0.85493 0.76211 0.92864 0.0
H1467 H 0.79703 0.8351 0.90341 0.0
C1468 C 0.82711 0.86248 0.92194 0.0
C1469 C 0.85046 0.86432 0.93949 0.0
C1470 C 0.83243 0.76055 0.92868 0.0
C1471 C 0.82787 0.8122 0.92766 0.0
C1472 C 0.82029 0.7351 0.93534 0.0
C1473 C 0.7913 0.73323 0.93823 0.0
C1474 C 0.8155 0.78428 0.92508 0.0
C1475 C 0.77497 0.75654 0.93056 0.0
C1476 C 0.81543 0.83638 0.91636 0.0
C1477 C 0.86196 0.83954 0.95036 0.0
N1478 N 0.78731 0.78143 0.92508 0.0
N1479 N 0.85065 0.81467 0.94418 0.0
H1480 H 0.11736 0.9027 0.24432 0.0
H1481 H 0.9574 0.89838 0.24222 0.0
H1482 H 0.07363 0.82457 0.24312 0.0
H1483 H -0.00091 0.96199 0.19419 0.0
H1484 H 0.00012 0.87032 0.24142 0.0
H1485 H 0.07556 0.92568 0.22443 0.0
C1486 C 0.09928 0.89037 0.23932 0.0
C1487 C 0.09854 0.86196 0.24611 0.0
C1488 C -0.0003 0.89007 0.23033 0.0
C1489 C 0.0512 0.88772 0.22377 0.0
C1490 C 0.97525 0.9059 0.23062 0.0
C1491 C 0.97475 0.9323 0.21808 0.0
C1492 C 0.024 0.90127 0.21839 0.0
C1493 C -0.00138 0.94149 0.20379 0.0
C1494 C 0.07552 0.90338 0.22798 0.0
C1495 C 0.07471 0.84676 0.23904 0.0
N1496 N 0.02264 0.92635 0.20503 0.0
N1497 N 0.05184 0.85988 0.22882 0.0
H1498 H 0.16837 0.60612 0.00898 0.0
H1499 H 0.2585 0.72661 0.9395 0.0
H1500 H 0.16764 0.62758 0.92142 0.0
H1501 H 0.23119 0.72375 0.02527 0.0
H1502 H 0.24169 0.67876 0.9336 0.0
H1503 H 0.20846 0.63688 0.0153 0.0
C1504 C 0.17732 0.61654 0.99097 0.0
C1505 C 0.16456 0.61504 0.96481 0.0
C1506 C 0.24003 0.68847 0.95386 0.0
C1507 C 0.20979 0.64996 0.97177 0.0
C1508 C 0.2495 0.71567 0.95717 0.0
C1509 C 0.24532 0.72918 0.98261 0.0
C1510 C 0.22678 0.67489 0.9763 0.0
C1511 C 0.23394 0.71419 0.00506 0.0
C1512 C 0.20003 0.63412 0.99456 0.0
C1513 C 0.17674 0.62884 0.94204 0.0
N1514 N 0.22475 0.68792 0.0013 0.0
N1515 N 0.19846 0.64615 0.94611 0.0
H1516 H 0.41508 0.12261 0.83054 0.0
H1517 H 0.49784 0.04071 0.71158 0.0
H1518 H 0.37608 0.09859 0.75348 0.0
H1519 H 0.53444 0.07059 0.78764 0.0
H1520 H 0.45417 0.06466 0.7237 0.0
H1521 H 0.45908 0.10378 0.81392 0.0
C1522 C 0.41571 0.1129 0.81022 0.0
C1523 C 0.39183 0.11207 0.79343 0.0
C1524 C 0.47196 0.06647 0.73741 0.0
C1525 C 0.44263 0.0909 0.7738 0.0
C1526 C 0.49706 0.05326 0.73024 0.0
C1527 C 0.51975 0.05366 0.7487 0.0
C1528 C 0.46971 0.0801 0.76316 0.0
C1529 C 0.51741 0.06971 0.77288 0.0
C1530 C 0.44097 0.10239 0.80058 0.0
C1531 C 0.39391 0.09931 0.76724 0.0
N1532 N 0.49276 0.08193 0.77957 0.0
N1533 N 0.41898 0.08932 0.75812 0.0
H1534 H 0.68611 0.89626 0.05324 0.0
H1535 H 0.68939 0.73744 0.05997 0.0
H1536 H 0.64066 0.85063 0.11628 0.0
H1537 H 0.76383 0.78061 0.03474 0.0
H1538 H 0.67269 0.7797 0.08256 0.0
H1539 H 0.71809 0.85644 0.04863 0.0
C1540 C 0.68346 0.87827 0.06675 0.0
C1541 C 0.66032 0.87621 0.0845 0.0
C1542 C 0.69294 0.77987 0.07257 0.0
C1543 C 0.69619 0.83094 0.07912 0.0
C1544 C 0.70229 0.75586 0.05952 0.0
C1545 C 0.72776 0.75589 0.04541 0.0
C1546 C 0.70878 0.80429 0.07063 0.0
C1547 C 0.74397 0.78005 0.04547 0.0
C1548 C 0.70164 0.85557 0.06411 0.0
C1549 C 0.65782 0.85259 0.1017 0.0
N1550 N 0.73387 0.80367 0.05734 0.0
N1551 N 0.67513 0.83056 0.09811 0.0
H1552 H 0.09155 0.17323 0.20447 0.0
H1553 H 0.03247 0.03075 0.2646 0.0
H1554 H 0.14602 0.10934 0.23826 0.0
H1555 H 0.99141 0.07923 0.20016 0.0
H1556 H 0.07252 0.06198 0.26144 0.0
H1557 H 0.05227 0.14195 0.21016 0.0
C1558 C 0.09524 0.15274 0.21341 0.0
C1559 C 0.12216 0.14384 0.22082 0.0
C1560 C 0.05474 0.06561 0.24797 0.0
C1561 C 0.07722 0.10794 0.2272 0.0
C1562 C 0.03192 0.04789 0.24976 0.0
C1563 C 0.00862 0.05243 0.23259 0.0
C1564 C 0.05394 0.08823 0.22927 0.0
C1565 C 0.009 0.07487 0.21367 0.0
C1566 C 0.07281 0.13483 0.21641 0.0
C1567 C 0.12563 0.11696 0.23213 0.0
N1568 N 0.03123 0.09208 0.21268 0.0
N1569 N 0.10335 0.09989 0.23502 0.0
H1570 H 0.90976 0.3443 0.15113 0.0
H1571 H 0.98466 0.43381 0.26585 0.0
H1572 H 0.86518 0.39768 0.20822 0.0
H1573 H 0.02261 0.42402 0.1847 0.0
H1574 H 0.94281 0.41123 0.24854 0.0
H1575 H 0.95357 0.366 0.16573 0.0
C1576 C 0.90915 0.36076 0.16642 0.0
C1577 C 0.88381 0.36921 0.17847 0.0
C1578 C 0.9604 0.41392 0.23461 0.0
C1579 C 0.93352 0.39324 0.19567 0.0
C1580 C 0.98436 0.42653 0.24452 0.0
C1581 C 0.00707 0.4309 0.22662 0.0
C1582 C 0.9593 0.40519 0.2068 0.0
C1583 C 0.00544 0.4212 0.1991 0.0
C1584 C 0.93407 0.37302 0.17473 0.0
C1585 C 0.88417 0.39058 0.19825 0.0
N1586 N 0.98189 0.40868 0.18997 0.0
N1587 N 0.90867 0.40157 0.20651 0.0
H1588 H 0.21433 0.22125 0.80834 0.0
H1589 H 0.08606 0.16909 0.90118 0.0
H1590 H 0.20931 0.13715 0.83998 0.0
H1591 H 0.08745 0.24696 0.85561 0.0
H1592 H 0.13081 0.15633 0.87945 0.0
H1593 H 0.16683 0.22991 0.8243 0.0
C1594 C 0.20291 0.20438 0.81809 0.0
C1595 C 0.21572 0.17842 0.82269 0.0
C1596 C 0.12119 0.17614 0.87417 0.0
C1597 C 0.16146 0.18845 0.8421 0.0
C1598 C 0.09578 0.18354 0.88675 0.0
C1599 C 0.08291 0.20916 0.88023 0.0
C1600 C 0.13388 0.1946 0.85514 0.0
C1601 C 0.09639 0.22693 0.86116 0.0
C1602 C 0.17583 0.20938 0.82744 0.0
C1603 C 0.20007 0.15737 0.83572 0.0
N1604 N 0.12104 0.21937 0.84944 0.0
N1605 N 0.17387 0.16297 0.84538 0.0
H1606 H 0.47635 0.50666 0.37072 0.0
H1607 H 0.45974 0.66783 0.40923 0.0
H1608 H 0.42583 0.53635 0.4391 0.0
H1609 H 0.51143 0.63778 0.34195 0.0
H1610 H 0.44782 0.61985 0.42108 0.0
H1611 H 0.49025 0.55443 0.36067 0.0
C1612 C 0.46821 0.52317 0.38372 0.0
C1613 C 0.44975 0.51733 0.40577 0.0
C1614 C 0.46182 0.62373 0.40376 0.0
C1615 C 0.46563 0.57234 0.39422 0.0
C1616 C 0.46866 0.65118 0.39696 0.0
C1617 C 0.48664 0.65696 0.37452 0.0
C1618 C 0.47296 0.60179 0.388 0.0
C1619 C 0.49747 0.63441 0.35939 0.0
C1620 C 0.47618 0.55051 0.37793 0.0
C1621 C 0.44005 0.53974 0.42187 0.0
N1622 N 0.49043 0.60787 0.36637 0.0
N1623 N 0.44802 0.56621 0.41571 0.0
H1624 H 0.76203 0.25009 0.83422 0.0
H1625 H 0.90843 0.3271 0.84755 0.0
H1626 H 0.78309 0.32697 0.79204 0.0
H1627 H 0.89592 0.24309 0.8772 0.0
H1628 H 0.8596 0.32975 0.83399 0.0
H1629 H 0.809 0.24819 0.85399 0.0
C1630 C 0.7766 0.26636 0.82873 0.0
C1631 C 0.76846 0.28874 0.81133 0.0
C1632 C 0.86733 0.31083 0.84381 0.0
C1633 C 0.82205 0.28699 0.8346 0.0
C1634 C 0.89514 0.30946 0.85194 0.0
C1635 C 0.90628 0.28477 0.86332 0.0
C1636 C 0.85044 0.28729 0.84692 0.0
C1637 C 0.88813 0.26255 0.86857 0.0
C1638 C 0.80335 0.26534 0.84026 0.0
C1639 C 0.78831 0.30922 0.80515 0.0
N1640 N 0.86112 0.26416 0.85989 0.0
N1641 N 0.81402 0.30794 0.81693 0.0
H1642 H 0.56067 0.98376 0.35894 0.0
H1643 H 0.47171 0.86292 0.42647 0.0
H1644 H 0.54484 0.97754 0.44744 0.0
H1645 H 0.53059 0.8437 0.36102 0.0
H1646 H 0.48861 0.91042 0.42704 0.0
H1647 H 0.54094 0.93709 0.353 0.0
C1648 C 0.55283 0.97266 0.37706 0.0
C1649 C 0.55429 0.98447 0.40375 0.0
C1650 C 0.49762 0.89586 0.41236 0.0
C1651 C 0.53147 0.93169 0.39694 0.0
C1652 C 0.48797 0.86869 0.41188 0.0
C1653 C 0.50001 0.84901 0.39387 0.0
C1654 C 0.51918 0.90376 0.39441 0.0
C1655 C 0.52069 0.85811 0.37519 0.0
C1656 C 0.54179 0.94608 0.37363 0.0
C1657 C 0.54415 0.96915 0.42656 0.0
N1658 N 0.52978 0.88492 0.37601 0.0
N1659 N 0.53291 0.94363 0.42259 0.0
H1660 H 0.19068 0.86194 0.66054 0.0
H1661 H 0.049 0.78067 0.68644 0.0
H1662 H 0.18554 0.77856 0.6943 0.0
H1663 H 0.06039 0.83757 0.61713 0.0
H1664 H 0.09547 0.79169 0.70296 0.0
H1665 H 0.1396 0.86381 0.65782 0.0
C1666 C 0.17874 0.84435 0.66808 0.0
C1667 C 0.19216 0.81995 0.67747 0.0
C1668 C 0.08753 0.80215 0.68445 0.0
C1669 C 0.13424 0.82214 0.67471 0.0
C1670 C 0.06097 0.79593 0.67497 0.0
C1671 C 0.051 0.80762 0.64989 0.0
C1672 C 0.10419 0.82041 0.66893 0.0
C1673 C 0.06742 0.82766 0.63627 0.0
C1674 C 0.14973 0.84541 0.66638 0.0
C1675 C 0.17589 0.79763 0.68672 0.0
N1676 N 0.09347 0.83314 0.64575 0.0
N1677 N 0.14772 0.79921 0.68501 0.0
H1678 H 0.09172 0.5344 0.57646 0.0
H1679 H 0.99554 0.6462 0.65433 0.0
H1680 H 0.02077 0.51324 0.6278 0.0
H1681 H 0.06356 0.66765 0.59971 0.0
H1682 H 0.00969 0.59708 0.65165 0.0
H1683 H 0.08517 0.58325 0.58903 0.0
C1684 C 0.0746 0.54002 0.5901 0.0
C1685 C 0.05669 0.51964 0.6009 0.0
C1686 C 0.02198 0.61261 0.64083 0.0
C1687 C 0.04944 0.57542 0.6159 0.0
C1688 C 0.01419 0.64064 0.64282 0.0
C1689 C 0.02853 0.66074 0.62728 0.0
C1690 C 0.04407 0.60494 0.62304 0.0
C1691 C 0.05211 0.65257 0.61205 0.0
C1692 C 0.07105 0.56787 0.59754 0.0
C1693 C 0.03508 0.52817 0.61884 0.0
N1694 N 0.05891 0.62523 0.60994 0.0
N1695 N 0.03207 0.55536 0.62573 0.0
H1696 H 0.76792 0.70188 0.60401 0.0
H1697 H 0.91575 0.64413 0.64691 0.0
H1698 H 0.783 0.63705 0.66542 0.0
H1699 H 0.90196 0.71436 0.59168 0.0
H1700 H 0.86728 0.6308 0.64085 0.0
H1701 H 0.81609 0.69747 0.58848 0.0
C1702 C 0.7813 0.68665 0.6142 0.0
C1703 C 0.77158 0.67036 0.63663 0.0
C1704 C 0.87504 0.6487 0.62944 0.0
C1705 C 0.82668 0.66503 0.61866 0.0
C1706 C 0.90276 0.65623 0.63277 0.0
C1707 C 0.91253 0.681 0.62065 0.0
C1708 C 0.85708 0.66632 0.61421 0.0
C1709 C 0.89511 0.69545 0.60193 0.0
C1710 C 0.80875 0.68398 0.60512 0.0
C1711 C 0.78972 0.65053 0.64852 0.0
N1712 N 0.8679 0.68838 0.59995 0.0
N1713 N 0.8165 0.64871 0.63964 0.0
H1714 H 0.96484 0.96356 0.56541 0.0
H1715 H 0.92354 0.8477 0.66718 0.0
H1716 H 0.88792 0.97261 0.61116 0.0
H1717 H 0.951 0.82466 0.58469 0.0
H1718 H 0.9121 0.89429 0.64929 0.0
H1719 H 0.96317 0.91304 0.57359 0.0
C1720 C 0.94737 0.95479 0.57671 0.0
C1721 C 0.92646 0.97209 0.5876 0.0
C1722 C 0.92026 0.87881 0.63509 0.0
C1723 C 0.9249 0.91489 0.59768 0.0
C1724 C 0.92691 0.85228 0.64526 0.0
C1725 C 0.93895 0.83236 0.62758 0.0
C1726 C 0.92644 0.88567 0.60728 0.0
C1727 C 0.94245 0.8394 0.59927 0.0
C1728 C 0.94638 0.92608 0.58128 0.0
C1729 C 0.90431 0.95985 0.60225 0.0
N1730 N 0.93694 0.86574 0.59012 0.0
N1731 N 0.90443 0.93199 0.60748 0.0
H1732 H 0.79248 0.22144 0.23079 0.0
H1733 H 0.87837 0.094 0.17032 0.0
H1734 H 0.79915 0.20652 0.14245 0.0
H1735 H 0.8471 0.09577 0.25474 0.0
H1736 H 0.85036 0.13576 0.15954 0.0
H1737 H 0.81131 0.17485 0.24002 0.0
C1738 C 0.79709 0.20795 0.21336 0.0
C1739 C 0.79412 0.2177 0.18586 0.0
C1740 C 0.84953 0.12684 0.18036 0.0
C1741 C 0.81688 0.16493 0.19616 0.0
C1742 C 0.86575 0.10326 0.18659 0.0
C1743 C 0.86505 0.09147 0.21347 0.0
C1744 C 0.83288 0.13885 0.20129 0.0
C1745 C 0.84809 0.10408 0.2337 0.0
C1746 C 0.80809 0.18147 0.21859 0.0
C1747 C 0.80079 0.1996 0.16396 0.0
N1748 N 0.83284 0.12714 0.22725 0.0
N1749 N 0.81243 0.17425 0.16957 0.0
H1750 H 0.46138 0.9262 0.09632 0.0
H1751 H 0.36243 0.8979 0.96988 0.0
H1752 H 0.49478 0.89948 0.01719 0.0
H1753 H 0.33697 0.87884 0.05412 0.0
H1754 H 0.41076 0.90148 0.98578 0.0
H1755 H 0.41468 0.91358 0.08047 0.0
C1756 C 0.45885 0.91794 0.07553 0.0
C1757 C 0.48194 0.91406 0.05795 0.0
C1758 C 0.3947 0.89596 0.00069 0.0
C1759 C 0.42874 0.89952 0.03985 0.0
C1760 C 0.36725 0.89379 0.99163 0.0
C1761 C 0.34598 0.88788 0.01077 0.0
C1762 C 0.40066 0.89312 0.02922 0.0
C1763 C 0.35299 0.88313 0.03878 0.0
C1764 C 0.43229 0.91042 0.06667 0.0
C1765 C 0.47752 0.90286 0.03137 0.0
N1766 N 0.37977 0.88641 0.04734 0.0
N1767 N 0.45138 0.89625 0.023 0.0
H1768 H 0.18421 0.30132 0.12975 0.0
H1769 H 0.1887 0.43557 0.22523 0.0
H1770 H 0.2199 0.30362 0.2123 0.0
H1771 H 0.12387 0.42106 0.16498 0.0
H1772 H 0.21287 0.39398 0.20955 0.0
H1773 H 0.17509 0.35151 0.13224 0.0
C1774 C 0.19098 0.31255 0.14801 0.0
C1775 C 0.20251 0.29836 0.17105 0.0
C1776 C 0.19361 0.4002 0.19942 0.0
C1777 C 0.19221 0.35539 0.17388 0.0
C1778 C 0.17975 0.424 0.20835 0.0
C1779 C 0.15386 0.43158 0.19691 0.0
C1780 C 0.18156 0.38377 0.17881 0.0
C1781 C 0.14354 0.41576 0.17476 0.0
C1782 C 0.18557 0.34108 0.14945 0.0
C1783 C 0.21067 0.31379 0.19425 0.0
N1784 N 0.15725 0.39229 0.16667 0.0
N1785 N 0.20512 0.3415 0.19519 0.0
H1786 H 0.54274 0.56646 0.09883 0.0
H1787 H 0.6594 0.59308 0.98357 0.0
H1788 H 0.52478 0.55976 0.01089 0.0
H1789 H 0.65387 0.6405 0.05929 0.0
H1790 H 0.6157 0.56969 0.99599 0.0
H1791 H 0.58997 0.58124 0.08724 0.0
C1792 C 0.54892 0.56722 0.07709 0.0
C1793 C 0.52964 0.56195 0.05576 0.0
C1794 C 0.62419 0.58508 0.00992 0.0
C1795 C 0.58368 0.57907 0.04252 0.0
C1796 C 0.64906 0.59833 0.00294 0.0
C1797 C 0.66006 0.61867 0.02051 0.0
C1798 C 0.61067 0.59179 0.03497 0.0
C1799 C 0.64586 0.625 0.0452 0.0
C1800 C 0.5758 0.57603 0.07054 0.0
C1801 C 0.53891 0.5637 0.02797 0.0
N1802 N 0.62191 0.61146 0.05184 0.0
N1803 N 0.56526 0.57225 0.02212 0.0
H1804 H 0.83265 0.7744 0.2613 0.0
H1805 H 0.8592 0.91938 0.33623 0.0
H1806 H 0.81725 0.78779 0.34896 0.0
H1807 H 0.87914 0.90413 0.24997 0.0
H1808 H 0.84829 0.87015 0.34254 0.0
H1809 H 0.85124 0.82129 0.25733 0.0
C1810 C 0.83283 0.78733 0.27971 0.0
C1811 C 0.82324 0.77704 0.30554 0.0
C1812 C 0.8556 0.87736 0.32236 0.0
C1813 C 0.84512 0.83091 0.30114 0.0
C1814 C 0.86222 0.9054 0.31885 0.0
C1815 C 0.87004 0.91583 0.29252 0.0
C1816 C 0.85646 0.85962 0.29927 0.0
C1817 C 0.8734 0.89691 0.27065 0.0
C1818 C 0.84373 0.81407 0.27744 0.0
C1819 C 0.8241 0.79486 0.32858 0.0
N1820 N 0.86607 0.86978 0.27438 0.0
N1821 N 0.83494 0.82088 0.32585 0.0
H1822 H 0.01042 0.87354 0.97951 0.0
H1823 H 0.17129 0.89653 0.9453 0.0
H1824 H 0.03714 0.92489 0.91011 0.0
H1825 H 0.13984 0.82924 0.9964 0.0
H1826 H 0.12325 0.91061 0.93461 0.0
H1827 H 0.05858 0.86145 0.98906 0.0
C1828 C 0.02639 0.88249 0.96628 0.0
C1829 C 0.01947 0.90023 0.94378 0.0
C1830 C 0.12693 0.89271 0.94804 0.0
C1831 C 0.07523 0.88614 0.95479 0.0
C1832 C 0.15433 0.88464 0.9542 0.0
C1833 C 0.15967 0.86164 0.97184 0.0
C1834 C 0.10471 0.87788 0.95987 0.0
C1835 C 0.13683 0.84702 0.98266 0.0
C1836 C 0.054 0.87538 0.97174 0.0
C1837 C 0.04139 0.91112 0.92762 0.0
N1838 N 0.11043 0.85549 0.97665 0.0
N1839 N 0.06832 0.90387 0.93343 0.0
H1840 H 0.16125 0.70561 0.36211 0.0
H1841 H 0.08564 0.57812 0.29073 0.0
H1842 H 0.11923 0.70706 0.28244 0.0
H1843 H 0.14332 0.56896 0.35928 0.0
H1844 H 0.08385 0.62809 0.29898 0.0
H1845 H 0.14398 0.65816 0.3701 0.0
C1846 C 0.14848 0.696 0.34633 0.0
C1847 C 0.14228 0.7101 0.32128 0.0
C1848 C 0.09636 0.61504 0.31269 0.0
C1849 C 0.12175 0.65648 0.33069 0.0
C1850 C 0.09709 0.58639 0.30823 0.0
C1851 C 0.11573 0.56959 0.32348 0.0
C1852 C 0.1144 0.62668 0.33244 0.0
C1853 C 0.12952 0.58143 0.34629 0.0
C1854 C 0.1384 0.6691 0.35103 0.0
C1855 C 0.12517 0.69685 0.30179 0.0
N1856 N 0.12934 0.60947 0.34954 0.0
N1857 N 0.11565 0.67083 0.30687 0.0
H1858 H 0.98826 0.6374 0.97411 0.0
H1859 H 0.83645 0.60785 0.91671 0.0
H1860 H 0.97058 0.59138 0.8992 0.0
H1861 H 0.85193 0.65051 0.99375 0.0
H1862 H 0.88572 0.61134 0.90482 0.0
H1863 H 0.93911 0.65014 0.97742 0.0
C1864 C 0.97411 0.63 0.9583 0.0
C1865 C 0.98357 0.61286 0.93656 0.0
C1866 C 0.87838 0.62053 0.92406 0.0
C1867 C 0.92727 0.6277 0.94016 0.0
C1868 C 0.85024 0.61879 0.93066 0.0
C1869 C 0.84045 0.62888 0.95618 0.0
C1870 C 0.89687 0.63183 0.9435 0.0
C1871 C 0.85891 0.64264 0.97379 0.0
C1872 C 0.94604 0.63745 0.96015 0.0
C1873 C 0.96425 0.60426 0.91655 0.0
N1874 N 0.88651 0.64322 0.96739 0.0
N1875 N 0.93701 0.6116 0.91896 0.0
H1876 H 0.13046 0.80747 0.19327 0.0
H1877 H 0.24745 0.83761 0.07874 0.0
H1878 H 0.21755 0.78686 0.20302 0.0
H1879 H 0.16477 0.87326 0.0746 0.0
H1880 H 0.23411 0.81142 0.12014 0.0
H1881 H 0.13981 0.82273 0.14526 0.0
C1882 C 0.15136 0.8052 0.18499 0.0
C1883 C 0.17335 0.79607 0.20215 0.0
C1884 C 0.21877 0.82485 0.11019 0.0
C1885 C 0.18421 0.81403 0.14769 0.0
C1886 C 0.22636 0.83979 0.08646 0.0
C1887 C 0.20716 0.85759 0.07312 0.0
C1888 C 0.19176 0.82776 0.12097 0.0
C1889 C 0.18027 0.85994 0.0844 0.0
C1890 C 0.15673 0.81431 0.15774 0.0
C1891 C 0.20007 0.79396 0.19052 0.0
N1892 N 0.17335 0.8452 0.10779 0.0
N1893 N 0.2048 0.80319 0.16411 0.0
H1894 H 0.19549 0.23021 0.291 0.0
H1895 H 0.20588 0.10689 0.39658 0.0
H1896 H 0.24236 0.15542 0.27256 0.0
H1897 H 0.22534 0.18824 0.42849 0.0
H1898 H 0.20655 0.12616 0.34928 0.0
H1899 H 0.19701 0.21751 0.34086 0.0
C1900 C 0.2066 0.21152 0.29741 0.0
C1901 C 0.21856 0.1937 0.27749 0.0
C1902 C 0.21039 0.13979 0.36673 0.0
C1903 C 0.21941 0.17887 0.33388 0.0
C1904 C 0.20968 0.12894 0.39372 0.0
C1905 C 0.21575 0.14598 0.41646 0.0
C1906 C 0.21662 0.16796 0.36249 0.0
C1907 C 0.22079 0.1744 0.41143 0.0
C1908 C 0.20733 0.20431 0.32576 0.0
C1909 C 0.23272 0.16976 0.28702 0.0
N1910 N 0.22109 0.18462 0.38483 0.0
N1911 N 0.23217 0.16272 0.31446 0.0
H1912 H 0.41863 0.59713 0.96686 0.0
H1913 H 0.36328 0.48243 0.86538 0.0
H1914 H 0.37402 0.52536 0.99761 0.0
H1915 H 0.38112 0.56626 0.83865 0.0
H1916 H 0.36365 0.49788 0.91411 0.0
H1917 H 0.40377 0.58612 0.91962 0.0
C1918 C 0.40576 0.57901 0.96366 0.0
C1919 C 0.39778 0.56198 0.98615 0.0
C1920 C 0.36663 0.51308 0.89755 0.0
C1921 C 0.38056 0.54933 0.93215 0.0
C1922 C 0.36613 0.5043 0.86986 0.0
C1923 C 0.37192 0.52328 0.84835 0.0
C1924 C 0.3737 0.54076 0.90344 0.0
C1925 C 0.3763 0.5512 0.85489 0.0
C1926 C 0.39702 0.5729 0.93673 0.0
C1927 C 0.38074 0.53898 0.98083 0.0
N1928 N 0.37759 0.55907 0.88195 0.0
N1929 N 0.37295 0.53313 0.95429 0.0
H1930 H 0.85358 0.32238 0.2693 0.0
H1931 H 0.7732 0.39731 0.39424 0.0
H1932 H 0.77167 0.35995 0.2639 0.0
H1933 H 0.85082 0.35258 0.40505 0.0
H1934 H 0.77881 0.39384 0.3438 0.0
H1935 H 0.8575 0.33993 0.31715 0.0
C1936 C 0.83639 0.33408 0.27816 0.0
C1937 C 0.81218 0.33943 0.26255 0.0
C1938 C 0.79493 0.38526 0.35719 0.0
C1939 C 0.81684 0.36021 0.3168 0.0
C1940 C 0.79194 0.38766 0.38606 0.0
C1941 C 0.81108 0.37438 0.4039 0.0
C1942 C 0.81715 0.36946 0.34624 0.0
C1943 C 0.83512 0.36242 0.392 0.0
C1944 C 0.83877 0.34439 0.30532 0.0
C1945 C 0.79074 0.35513 0.27502 0.0
N1946 N 0.83712 0.35955 0.3639 0.0
N1947 N 0.79358 0.36487 0.30128 0.0
H1948 H 0.08043 0.39165 0.47831 0.0
H1949 H 0.14862 0.48837 0.3601 0.0
H1950 H 0.12808 0.46507 0.49693 0.0
H1951 H 0.1007 0.41484 0.34398 0.0
H1952 H 0.14758 0.47693 0.41027 0.0
H1953 H 0.09211 0.39752 0.42916 0.0
C1954 C 0.09325 0.40911 0.47213 0.0
C1955 C 0.10303 0.42801 0.49197 0.0
C1956 C 0.13789 0.46292 0.39568 0.0
C1957 C 0.1168 0.43475 0.43529 0.0
C1958 C 0.13891 0.46922 0.36704 0.0
C1959 C 0.12485 0.4524 0.34799 0.0
C1960 C 0.12262 0.43973 0.40511 0.0
C1961 C 0.11189 0.42824 0.35805 0.0
C1962 C 0.1001 0.41235 0.44396 0.0
C1963 C 0.11985 0.45005 0.48247 0.0
N1964 N 0.1108 0.42282 0.38588 0.0
N1965 N 0.12608 0.45288 0.45484 0.0
H1966 H 0.27493 0.15452 0.71926 0.0
H1967 H 0.35464 0.13572 0.5768 0.0
H1968 H 0.36415 0.16423 0.71413 0.0
H1969 H 0.27265 0.10332 0.59286 0.0
H1970 H 0.3609 0.14277 0.62689 0.0
H1971 H 0.27485 0.13569 0.67251 0.0
C1972 C 0.29458 0.15298 0.70822 0.0
C1973 C 0.31963 0.1611 0.72084 0.0
C1974 C 0.34187 0.13335 0.61957 0.0
C1975 C 0.31961 0.13902 0.66682 0.0
C1976 C 0.33843 0.12892 0.591 0.0
C1977 C 0.31291 0.11926 0.5806 0.0
C1978 C 0.3195 0.12837 0.63775 0.0
C1979 C 0.29261 0.11089 0.5999 0.0
C1980 C 0.29451 0.14185 0.68152 0.0
C1981 C 0.34432 0.15853 0.70522 0.0
N1982 N 0.29603 0.11636 0.62748 0.0
N1983 N 0.34368 0.14778 0.67896 0.0
H1984 H 0.44933 0.41919 0.54525 0.0
H1985 H 0.33823 0.49398 0.64124 0.0
H1986 H 0.39629 0.48688 0.51736 0.0
H1987 H 0.41084 0.45423 0.67739 0.0
H1988 H 0.35843 0.48805 0.59509 0.0
H1989 H 0.4364 0.42976 0.59372 0.0
C1990 C 0.43554 0.43664 0.54932 0.0
C1991 C 0.42347 0.45187 0.52722 0.0
C1992 C 0.37004 0.48069 0.6131 0.0
C1993 C 0.40826 0.46355 0.58218 0.0
C1994 C 0.35837 0.48382 0.63947 0.0
C1995 C 0.37282 0.47449 0.66321 0.0
C1996 C 0.39621 0.46777 0.61027 0.0
C1997 C 0.39901 0.46171 0.65959 0.0
C1998 C 0.42805 0.44253 0.57692 0.0
C1999 C 0.40568 0.47423 0.53368 0.0
N2000 N 0.40984 0.45851 0.63353 0.0
N2001 N 0.39829 0.47908 0.56049 0.0
H2002 H 0.5781 0.09775 0.53827 0.0
H2003 H 0.65703 0.99321 0.63878 0.0
H2004 H 0.60494 0.01531 0.51441 0.0
H2005 H 0.59354 0.04649 0.67401 0.0
H2006 H 0.64194 0.0069 0.59231 0.0
H2007 H 0.58546 0.0844 0.5877 0.0
C2008 C 0.58503 0.0768 0.54335 0.0
C2009 C 0.59136 0.05781 0.52201 0.0
C2010 C 0.6312 0.01563 0.61014 0.0
C2011 C 0.60019 0.04275 0.5781 0.0
C2012 C 0.63996 0.00797 0.63678 0.0
C2013 C 0.62662 0.01878 0.66044 0.0
C2014 C 0.60914 0.03468 0.60676 0.0
C2015 C 0.60437 0.03764 0.65631 0.0
C2016 C 0.58927 0.06926 0.5715 0.0
C2017 C 0.60029 0.03093 0.52991 0.0
N2018 N 0.59644 0.04526 0.6299 0.0
N2019 N 0.60479 0.02443 0.55711 0.0
H2020 H 0.70818 0.72481 0.30128 0.0
H2021 H 0.58339 0.67425 0.40021 0.0
H2022 H 0.70475 0.64164 0.3356 0.0
H2023 H 0.58573 0.75344 0.35709 0.0
H2024 H 0.62719 0.661 0.37686 0.0
H2025 H 0.66172 0.7341 0.31969 0.0
C2026 C 0.69729 0.70825 0.31214 0.0
C2027 C 0.7103 0.6824 0.31681 0.0
C2028 C 0.61803 0.68124 0.37252 0.0
C2029 C 0.65729 0.6932 0.33903 0.0
C2030 C 0.5932 0.68893 0.38607 0.0
C2031 C 0.58082 0.71501 0.3806 0.0
C2032 C 0.63058 0.69986 0.35354 0.0
C2033 C 0.59432 0.73305 0.36182 0.0
C2034 C 0.67083 0.71363 0.32292 0.0
C2035 C 0.69533 0.66176 0.33127 0.0
N2036 N 0.61833 0.72516 0.34906 0.0
N2037 N 0.66975 0.66774 0.34227 0.0
H2038 H 0.97259 0.00372 0.86774 0.0
H2039 H 0.96044 0.16444 0.9099 0.0
H2040 H 0.92295 0.03342 0.93675 0.0
H2041 H 0.00903 0.13495 0.84011 0.0
H2042 H 0.94761 0.11649 0.92085 0.0
H2043 H 0.98742 0.05139 0.85834 0.0
C2044 C 0.96486 0.02019 0.88103 0.0
C2045 C 0.94636 0.0144 0.90306 0.0
C2046 C 0.96111 0.12049 0.90316 0.0
C2047 C 0.96329 0.06928 0.89225 0.0
C2048 C 0.96848 0.14792 0.89688 0.0
C2049 C 0.98587 0.15386 0.87401 0.0
C2050 C 0.97116 0.09869 0.88648 0.0
C2051 C 0.99555 0.13146 0.85791 0.0
C2052 C 0.97334 0.04747 0.87559 0.0
C2053 C 0.93717 0.03676 0.91951 0.0
N2054 N 0.98805 0.10492 0.86444 0.0
N2055 N 0.94565 0.06315 0.91372 0.0
H2056 H 0.25708 0.7568 0.34077 0.0
H2057 H 0.40693 0.82794 0.33993 0.0
H2058 H 0.27504 0.83577 0.30109 0.0
H2059 H 0.39169 0.74738 0.3771 0.0
H2060 H 0.35731 0.83321 0.33063 0.0
H2061 H 0.3052 0.754 0.35696 0.0
C2062 C 0.27117 0.77347 0.3352 0.0
C2063 C 0.26189 0.79656 0.31939 0.0
C2064 C 0.36464 0.81451 0.34116 0.0
C2065 C 0.31706 0.7936 0.33839 0.0
C2066 C 0.39296 0.8116 0.34672 0.0
C2067 C 0.40342 0.78708 0.3591 0.0
C2068 C 0.34655 0.79261 0.34774 0.0
C2069 C 0.38444 0.76663 0.36757 0.0
C2070 C 0.29863 0.7719 0.34467 0.0
C2071 C 0.28118 0.81748 0.313 0.0
N2072 N 0.35689 0.76965 0.36132 0.0
N2073 N 0.30778 0.81551 0.32257 0.0
H2074 H 0.08079 0.46145 0.94774 0.0
H2075 H 0.9626 0.3594 0.89816 0.0
H2076 H 0.00332 0.4926 0.91351 0.0
H2077 H 0.04951 0.33654 0.89684 0.0
H2078 H 0.97555 0.40796 0.90609 0.0
H2079 H 0.06761 0.4144 0.93429 0.0
C2080 C 0.06079 0.45838 0.93786 0.0
C2081 C 0.04312 0.48107 0.93178 0.0
C2082 C 0.99181 0.39245 0.90348 0.0
C2083 C 0.02819 0.4273 0.91594 0.0
C2084 C 0.98444 0.36488 0.89867 0.0
C2085 C 0.00509 0.34424 0.89647 0.0
C2086 C 0.01998 0.39913 0.90701 0.0
C2087 C 0.03308 0.35206 0.89793 0.0
C2088 C 0.0535 0.43157 0.92981 0.0
C2089 C 0.01759 0.47576 0.91861 0.0
N2090 N 0.03974 0.37889 0.90363 0.0
N2091 N 0.01087 0.44942 0.91117 0.0
H2092 H 0.70024 0.37509 0.15711 0.0
H2093 H 0.55536 0.30177 0.18837 0.0
H2094 H 0.6915 0.29587 0.19929 0.0
H2095 H 0.5708 0.34955 0.11324 0.0
H2096 H 0.60151 0.31376 0.20525 0.0
H2097 H 0.64935 0.37871 0.15371 0.0
C2098 C 0.68758 0.35886 0.16636 0.0
C2099 C 0.69995 0.33498 0.17828 0.0
C2100 C 0.5945 0.32209 0.18535 0.0
C2101 C 0.64216 0.33925 0.17474 0.0
C2102 C 0.56817 0.31526 0.17564 0.0
C2103 C 0.55953 0.32387 0.1489 0.0
C2104 C 0.6122 0.33792 0.16838 0.0
C2105 C 0.57681 0.34199 0.13374 0.0
C2106 C 0.65865 0.36092 0.16428 0.0
C2107 C 0.6827 0.31445 0.18971 0.0
N2108 N 0.60263 0.34805 0.14349 0.0
N2109 N 0.65461 0.31698 0.18753 0.0
H2110 H 0.52021 0.03226 0.0978 0.0
H2111 H 0.58385 0.18227 0.10775 0.0
H2112 H 0.60659 0.04834 0.07847 0.0
H2113 H 0.50808 0.15842 0.14941 0.0
H2114 H 0.59514 0.13317 0.10051 0.0
H2115 H 0.51597 0.0789 0.11677 0.0
C2116 C 0.53821 0.04571 0.09709 0.0
C2117 C 0.56382 0.03628 0.0864 0.0
C2118 C 0.57651 0.13855 0.11209 0.0
C2119 C 0.55917 0.08966 0.10879 0.0
C2120 C 0.57036 0.16654 0.11668 0.0
C2121 C 0.5451 0.17417 0.12926 0.0
C2122 C 0.55685 0.11833 0.11957 0.0
C2123 C 0.52789 0.15322 0.13987 0.0
C2124 C 0.53587 0.07222 0.10842 0.0
C2125 C 0.58641 0.0547 0.08638 0.0
N2126 N 0.53369 0.12616 0.1341 0.0
N2127 N 0.58354 0.08054 0.09738 0.0
H2128 H 0.29751 0.14656 0.17383 0.0
H2129 H 0.41949 0.21922 0.09147 0.0
H2130 H 0.28909 0.21868 0.1198 0.0
H2131 H 0.43198 0.15355 0.15237 0.0
H2132 H 0.37056 0.20729 0.08902 0.0
H2133 H 0.34496 0.1398 0.15654 0.0
C2134 C 0.30561 0.16102 0.15841 0.0
C2135 C 0.28948 0.18364 0.14877 0.0
C2136 C 0.38412 0.19496 0.1024 0.0
C2137 C 0.34347 0.17558 0.12846 0.0
C2138 C 0.41228 0.20149 0.10347 0.0
C2139 C 0.42961 0.18814 0.12305 0.0
C2140 C 0.37338 0.17528 0.12132 0.0
C2141 C 0.41903 0.16513 0.13779 0.0
C2142 C 0.33257 0.15693 0.14831 0.0
C2143 C 0.3009 0.20132 0.12834 0.0
N2144 N 0.3913 0.16001 0.13738 0.0
N2145 N 0.32724 0.19704 0.11906 0.0
H2146 H 0.38039 0.4757 0.11888 0.0
H2147 H 0.45637 0.33185 0.08374 0.0
H2148 H 0.45048 0.46944 0.0629 0.0
H2149 H 0.42787 0.35283 0.16645 0.0
H2150 H 0.43911 0.37693 0.06669 0.0
H2151 H 0.38282 0.42499 0.12663 0.0
C2152 C 0.39564 0.46348 0.10754 0.0
C2153 C 0.41535 0.47652 0.09034 0.0
C2154 C 0.43624 0.37132 0.08845 0.0
C2155 C 0.41806 0.41909 0.09885 0.0
C2156 C 0.44614 0.34563 0.09825 0.0
C2157 C 0.44434 0.33887 0.12676 0.0
C2158 C 0.4238 0.38997 0.10715 0.0
C2159 C 0.43026 0.35746 0.14442 0.0
C2160 C 0.39713 0.43472 0.11209 0.0
C2161 C 0.43502 0.46 0.0764 0.0
N2162 N 0.4207 0.38228 0.13437 0.0
N2163 N 0.43598 0.43208 0.08105 0.0
H2164 H 0.28011 0.70726 0.72347 0.0
H2165 H 0.36766 0.58063 0.66822 0.0
H2166 H 0.29476 0.69641 0.63546 0.0
H2167 H 0.32003 0.57534 0.7445 0.0
H2168 H 0.34178 0.62317 0.65557 0.0
H2169 H 0.29397 0.65873 0.7317 0.0
C2170 C 0.28546 0.69434 0.7058 0.0
C2171 C 0.28608 0.7057 0.67875 0.0
C2172 C 0.33675 0.61242 0.67488 0.0
C2173 C 0.30317 0.65062 0.68808 0.0
C2174 C 0.35164 0.58827 0.68219 0.0
C2175 C 0.34609 0.57445 0.70751 0.0
C2176 C 0.31661 0.62312 0.69329 0.0
C2177 C 0.32496 0.58521 0.72474 0.0
C2178 C 0.29353 0.66672 0.71049 0.0
C2179 C 0.29362 0.68827 0.65658 0.0
N2180 N 0.3113 0.60909 0.71752 0.0
N2181 N 0.30248 0.66172 0.6618 0.0
H2182 H 0.99152 0.36119 0.53735 0.0
H2183 H 0.83454 0.41215 0.55945 0.0
H2184 H 0.96605 0.43788 0.57675 0.0
H2185 H 0.85546 0.35132 0.49708 0.0
H2186 H 0.88319 0.41386 0.57324 0.0
H2187 H 0.94241 0.35154 0.52707 0.0
C2188 C 0.97573 0.3761 0.54362 0.0
C2189 C 0.983 0.40039 0.55801 0.0
C2190 C 0.87724 0.39987 0.55672 0.0
C2191 C 0.92706 0.38909 0.54693 0.0
C2192 C 0.84945 0.3987 0.54906 0.0
C2193 C 0.84121 0.38178 0.52699 0.0
C2194 C 0.8971 0.38427 0.54198 0.0
C2195 C 0.86117 0.3646 0.51426 0.0
C2196 C 0.94777 0.37046 0.53787 0.0
C2197 C 0.96163 0.41889 0.56566 0.0
N2198 N 0.88849 0.36658 0.52166 0.0
N2199 N 0.93473 0.41274 0.56019 0.0
H2200 H 0.72154 0.79091 0.6932 0.0
H2201 H 0.61524 0.91109 0.65765 0.0
H2202 H 0.66578 0.78866 0.62281 0.0
H2203 H 0.67788 0.91533 0.72199 0.0
H2204 H 0.63949 0.87072 0.63823 0.0
H2205 H 0.71364 0.84094 0.69659 0.0
C2206 C 0.70831 0.80119 0.6779 0.0
C2207 C 0.69391 0.78571 0.65803 0.0
C2208 C 0.64818 0.88082 0.65632 0.0
C2209 C 0.68379 0.84262 0.66244 0.0
C2210 C 0.63424 0.90376 0.66753 0.0
C2211 C 0.6442 0.91628 0.69188 0.0
C2212 C 0.6721 0.87023 0.6697 0.0
C2213 C 0.66916 0.90618 0.70348 0.0
C2214 C 0.70362 0.82973 0.67992 0.0
C2215 C 0.67714 0.79992 0.63856 0.0
N2216 N 0.682 0.88355 0.69253 0.0
N2217 N 0.67188 0.82754 0.64174 0.0
H2218 H 0.05047 0.07116 0.60238 0.0
H2219 H 0.16925 0.09358 0.48834 0.0
H2220 H 0.0346 0.06121 0.51439 0.0
H2221 H 0.16412 0.1423 0.56325 0.0
H2222 H 0.12484 0.07157 0.50056 0.0
H2223 H 0.09779 0.08625 0.5913 0.0
C2224 C 0.05714 0.07139 0.58077 0.0
C2225 C 0.03849 0.06494 0.55924 0.0
C2226 C 0.13354 0.08696 0.51436 0.0
C2227 C 0.09256 0.08235 0.54656 0.0
C2228 C 0.15885 0.09941 0.5075 0.0
C2229 C 0.17021 0.11966 0.52491 0.0
C2230 C 0.11988 0.09444 0.53911 0.0
C2231 C 0.15585 0.12682 0.5493 0.0
C2232 C 0.08404 0.08034 0.5745 0.0
C2233 C 0.04826 0.06605 0.53161 0.0
N2234 N 0.13144 0.11406 0.55582 0.0
N2235 N 0.07464 0.07467 0.52604 0.0
H2236 H 0.33697 0.27218 0.77205 0.0
H2237 H 0.36452 0.41458 0.8489 0.0
H2238 H 0.32558 0.28144 0.8609 0.0
H2239 H 0.38921 0.39829 0.76407 0.0
H2240 H 0.35547 0.36499 0.85582 0.0
H2241 H 0.3578 0.31806 0.76983 0.0
C2242 C 0.33853 0.28401 0.79112 0.0
C2243 C 0.32934 0.27285 0.81672 0.0
C2244 C 0.36362 0.37208 0.83593 0.0
C2245 C 0.35381 0.32564 0.81431 0.0
C2246 C 0.36926 0.40033 0.8321 0.0
C2247 C 0.37728 0.41058 0.80574 0.0
C2248 C 0.36579 0.35408 0.81312 0.0
C2249 C 0.383 0.3913 0.78469 0.0
C2250 C 0.35078 0.31016 0.78985 0.0
C2251 C 0.33202 0.28928 0.84066 0.0
N2252 N 0.3764 0.36405 0.7886 0.0
N2253 N 0.34401 0.31488 0.83887 0.0
H2254 H 0.54261 0.43269 0.4071 0.0
H2255 H 0.64877 0.31577 0.46196 0.0
H2256 H 0.52142 0.36525 0.46339 0.0
H2257 H 0.67765 0.3971 0.43647 0.0
H2258 H 0.60115 0.3309 0.45297 0.0
H2259 H 0.59184 0.41796 0.41 0.0
C2260 C 0.54823 0.41497 0.42011 0.0
C2261 C 0.52778 0.40029 0.43508 0.0
C2262 C 0.61792 0.34542 0.44921 0.0
C2263 C 0.58355 0.38311 0.43789 0.0
C2264 C 0.64518 0.33673 0.45418 0.0
C2265 C 0.66728 0.35531 0.45039 0.0
C2266 C 0.61258 0.37284 0.44022 0.0
C2267 C 0.66121 0.38219 0.44004 0.0
C2268 C 0.57624 0.40659 0.42169 0.0
C2269 C 0.53629 0.37741 0.45155 0.0
N2270 N 0.63435 0.39027 0.43546 0.0
N2271 N 0.56338 0.36949 0.45233 0.0
H2272 H 0.61742 0.21128 0.77115 0.0
H2273 H 0.64468 0.06564 0.84463 0.0
H2274 H 0.66546 0.2017 0.84686 0.0
H2275 H 0.5935 0.07734 0.77144 0.0
H2276 H 0.64455 0.11587 0.85158 0.0
H2277 H 0.60274 0.16332 0.77543 0.0
C2278 C 0.62508 0.19908 0.78868 0.0
C2279 C 0.64321 0.21056 0.80844 0.0
C2280 C 0.6328 0.10745 0.83438 0.0
C2281 C 0.62602 0.15516 0.81354 0.0
C2282 C 0.63264 0.07872 0.83051 0.0
C2283 C 0.61975 0.06737 0.80693 0.0
C2284 C 0.62012 0.12489 0.81441 0.0
C2285 C 0.60409 0.08521 0.78965 0.0
C2286 C 0.61638 0.17164 0.79123 0.0
C2287 C 0.65181 0.19367 0.83093 0.0
N2288 N 0.60532 0.11319 0.79332 0.0
N2289 N 0.64338 0.1667 0.8327 0.0
H2290 H 0.4788 0.08137 0.39311 0.0
H2291 H 0.36486 0.14611 0.49609 0.0
H2292 H 0.50004 0.13151 0.46427 0.0
H2293 H 0.34626 0.09618 0.42435 0.0
H2294 H 0.41402 0.1474 0.4813 0.0
H2295 H 0.42979 0.09163 0.40143 0.0
C2296 C 0.4732 0.0945 0.41053 0.0
C2297 C 0.49366 0.10531 0.42817 0.0
C2298 C 0.39903 0.1367 0.46848 0.0
C2299 C 0.43731 0.11733 0.4378 0.0
C2300 C 0.37103 0.13627 0.47676 0.0
C2301 C 0.35178 0.12099 0.46135 0.0
C2302 C 0.40749 0.12166 0.44478 0.0
C2303 C 0.36065 0.10813 0.43675 0.0
C2304 C 0.44515 0.10052 0.41519 0.0
C2305 C 0.48502 0.12252 0.45022 0.0
N2306 N 0.38789 0.10848 0.42939 0.0
N2307 N 0.45749 0.12783 0.45453 0.0
H2308 H 0.6289 0.30056 0.68692 0.0
H2309 H 0.6591 0.36275 0.55968 0.0
H2310 H 0.71828 0.29177 0.69262 0.0
H2311 H 0.7362 0.31601 0.56236 0.0
H2312 H 0.64558 0.34136 0.60401 0.0
H2313 H 0.6334 0.30874 0.63673 0.0
C2314 C 0.64944 0.29984 0.67757 0.0
C2315 C 0.67332 0.29603 0.69414 0.0
C2316 C 0.66507 0.33508 0.59453 0.0
C2317 C 0.67866 0.30632 0.63686 0.0
C2318 C 0.67294 0.34756 0.56928 0.0
C2319 C 0.6989 0.3413 0.55728 0.0
C2320 C 0.68341 0.31631 0.60794 0.0
C2321 C 0.71599 0.32147 0.57072 0.0
C2322 C 0.65201 0.30498 0.64893 0.0
C2323 C 0.69935 0.29513 0.68078 0.0
N2324 N 0.70814 0.31005 0.59551 0.0
N2325 N 0.70133 0.30055 0.65299 0.0
H2326 H 0.73925 0.65277 0.76667 0.0
H2327 H 0.70946 0.68872 0.92437 0.0
H2328 H 0.69203 0.72717 0.78584 0.0
H2329 H 0.70222 0.60609 0.89061 0.0
H2330 H 0.71325 0.70748 0.87653 0.0
H2331 H 0.73962 0.64061 0.81615 0.0
C2332 C 0.72969 0.66704 0.78129 0.0
C2333 C 0.71505 0.69076 0.77198 0.0
C2334 C 0.71053 0.68532 0.87979 0.0
C2335 C 0.71531 0.67671 0.82849 0.0
C2336 C 0.70818 0.67464 0.9069 0.0
C2337 C 0.70541 0.64585 0.91135 0.0
C2338 C 0.71094 0.66689 0.8573 0.0
C2339 C 0.70401 0.62843 0.88811 0.0
C2340 C 0.72962 0.65984 0.80947 0.0
C2341 C 0.70318 0.70845 0.79208 0.0
N2342 N 0.70725 0.63919 0.86206 0.0
N2343 N 0.70327 0.7009 0.8195 0.0
H2344 H 0.94261 0.09173 0.46922 0.0
H2345 H 0.85703 0.009 0.35405 0.0
H2346 H 0.87769 0.03397 0.49221 0.0
H2347 H 0.94007 0.04123 0.34351 0.0
H2348 H 0.85719 0.02589 0.40268 0.0
H2349 H 0.93419 0.0817 0.42044 0.0
C2350 C 0.92653 0.07695 0.46407 0.0
C2351 C 0.91118 0.06331 0.48493 0.0
C2352 C 0.8752 0.0293 0.3895 0.0
C2353 C 0.90143 0.05175 0.4289 0.0
C2354 C 0.87506 0.01982 0.36191 0.0
C2355 C 0.89872 0.02344 0.34514 0.0
C2356 C 0.89891 0.04289 0.39968 0.0
C2357 C 0.92161 0.03758 0.35601 0.0
C2358 C 0.92171 0.07126 0.43616 0.0
C2359 C 0.89029 0.04467 0.47681 0.0
N2360 N 0.92113 0.04675 0.38254 0.0
N2361 N 0.88614 0.03923 0.44933 0.0
H2362 H 0.34514 0.8118 0.77085 0.0
H2363 H 0.25915 0.88465 0.89393 0.0
H2364 H 0.25723 0.83156 0.76878 0.0
H2365 H 0.33914 0.84516 0.90719 0.0
H2366 H 0.26369 0.87578 0.84399 0.0
H2367 H 0.34726 0.83069 0.81835 0.0
C2368 C 0.32626 0.81965 0.78048 0.0
C2369 C 0.30098 0.82004 0.7658 0.0
C2370 C 0.2805 0.86952 0.85779 0.0
C2371 C 0.3035 0.84255 0.81938 0.0
C2372 C 0.27811 0.87503 0.88624 0.0
C2373 C 0.29849 0.86503 0.90475 0.0
C2374 C 0.30344 0.85404 0.84793 0.0
C2375 C 0.32267 0.85268 0.89359 0.0
C2376 C 0.32757 0.83079 0.80737 0.0
C2377 C 0.27724 0.8309 0.77917 0.0
N2378 N 0.32426 0.847 0.86593 0.0
N2379 N 0.27913 0.84183 0.80504 0.0
H2380 H 0.57919 0.89507 0.97897 0.0
H2381 H 0.64741 0.97875 0.8505 0.0
H2382 H 0.62714 0.97014 0.98808 0.0
H2383 H 0.58397 0.91647 0.84175 0.0
H2384 H 0.64865 0.96898 0.90101 0.0
H2385 H 0.58804 0.89678 0.92866 0.0
C2386 C 0.59158 0.91189 0.97047 0.0
C2387 C 0.60209 0.93268 0.98787 0.0
C2388 C 0.63488 0.95706 0.88791 0.0
C2389 C 0.61265 0.93453 0.93024 0.0
C2390 C 0.63448 0.96238 0.85909 0.0
C2391 C 0.61551 0.94843 0.84209 0.0
C2392 C 0.6163 0.93757 0.89955 0.0
C2393 C 0.59881 0.92774 0.85425 0.0
C2394 C 0.59671 0.9128 0.94173 0.0
C2395 C 0.61824 0.95384 0.97554 0.0
N2396 N 0.5994 0.92311 0.88223 0.0
N2397 N 0.62295 0.95425 0.94755 0.0
H2398 H 0.76966 0.65448 0.214 0.0
H2399 H 0.84535 0.64112 0.06896 0.0
H2400 H 0.85839 0.667 0.20682 0.0
H2401 H 0.76547 0.60483 0.08722 0.0
H2402 H 0.85304 0.64755 0.11895 0.0
H2403 H 0.76896 0.63637 0.16705 0.0
C2404 C 0.78909 0.65367 0.2025 0.0
C2405 C 0.81418 0.66239 0.21462 0.0
C2406 C 0.8342 0.63743 0.11211 0.0
C2407 C 0.81341 0.64117 0.16023 0.0
C2408 C 0.82993 0.6334 0.08358 0.0
C2409 C 0.80452 0.62277 0.07387 0.0
C2410 C 0.81275 0.63109 0.13096 0.0
C2411 C 0.78529 0.61318 0.0937 0.0
C2412 C 0.78866 0.64295 0.17565 0.0
C2413 C 0.83853 0.66078 0.19835 0.0
N2414 N 0.78947 0.61826 0.12126 0.0
N2415 N 0.83752 0.65045 0.1719 0.0
H2416 H 0.93827 0.92775 0.04111 0.0
H2417 H 0.83567 0.01644 0.13864 0.0
H2418 H 0.87206 0.98091 0.00999 0.0
H2419 H 0.90492 0.96762 0.17007 0.0
H2420 H 0.84928 0.00407 0.09113 0.0
H2421 H 0.9276 0.94329 0.0885 0.0
C2422 C 0.92171 0.94286 0.04416 0.0
C2423 C 0.9059 0.95281 0.02152 0.0
C2424 C 0.86154 0.99613 0.10844 0.0
C2425 C 0.89341 0.97046 0.07563 0.0
C2426 C 0.85369 0.0031 0.13558 0.0
C2427 C 0.86917 0.99309 0.15839 0.0
C2428 C 0.88495 0.97891 0.1041 0.0
C2429 C 0.89243 0.97596 0.15313 0.0
C2430 C 0.91554 0.95165 0.07123 0.0
C2431 C 0.88466 0.9724 0.02678 0.0
N2432 N 0.89957 0.96937 0.12657 0.0
N2433 N 0.87895 0.98041 0.05325 0.0
H2434 H 0.10526 0.61418 0.04182 0.0
H2435 H 0.07913 0.52977 0.18335 0.0
H2436 H 0.04908 0.54464 0.04606 0.0
H2437 H 0.16058 0.55831 0.15851 0.0
H2438 H 0.06035 0.54701 0.13892 0.0
H2439 H 0.11743 0.60605 0.09099 0.0
C2440 C 0.09478 0.5978 0.05335 0.0
C2441 C 0.0761 0.58004 0.0399 0.0
C2442 C 0.08226 0.54969 0.14343 0.0
C2443 C 0.08995 0.57072 0.09592 0.0
C2444 C 0.09306 0.53984 0.16877 0.0
C2445 C 0.12165 0.54206 0.17453 0.0
C2446 C 0.09999 0.56259 0.12406 0.0
C2447 C 0.13851 0.55576 0.15482 0.0
C2448 C 0.10198 0.59301 0.08125 0.0
C2449 C 0.06358 0.55877 0.05569 0.0
N2450 N 0.12744 0.56551 0.13047 0.0
N2451 N 0.07077 0.55464 0.08288 0.0
loop_
_geom_bond_atom_site_label_1
_geom_bond_atom_site_label_2
_geom_bond_distance
_geom_bond_site_symmetry_2
_ccdc_geom_bond_type
Sc0 O3 2.025 . S
Sc0 O10 2.105 . S
Sc0 O13 2.105 . S
Sc0 O16 2.105 . S
Sc0 O19 2.105 . S
Sc1 O3 2.025 . S
Sc1 O11 2.105 . S
Sc1 O15 2.105 . S
Sc1 O17 2.105 . S
Sc1 O21 2.105 . S
Sc2 O3 2.025 . S
Sc2 O12 2.105 . S
Sc2 O14 2.105 . S
Sc2 O18 2.105 . S
Sc2 O20 2.105 . S
O3 Sc0 2.025 . S
O3 Sc1 2.025 . S
O3 Sc2 2.025 . S
C4 O10 1.268 . S
C4 O20 1.268 . S
C5 O11 1.268 . S
C5 O19 1.268 . S
C6 O12 1.268 . S
C6 O21 1.268 . S
C7 O13 1.268 . S
C7 O17 1.268 . S
C8 O14 1.268 . S
C8 O16 1.268 . S
C9 O15 1.268 . S
C9 O18 1.268 . S
O10 Sc0 2.105 . S
O10 C4 1.268 . S
O11 Sc1 2.105 . S
O11 C5 1.268 . S
O12 Sc2 2.105 . S
O12 C6 1.268 . S
O13 Sc0 2.105 . S
O13 C7 1.268 . S
O14 Sc2 2.105 . S
O14 C8 1.268 . S
O15 Sc1 2.105 . S
O15 C9 1.268 . S
O16 Sc0 2.105 . S
O16 C8 1.268 . S
O17 Sc1 2.105 . S
O17 C7 1.268 . S
O18 Sc2 2.105 . S
O18 C9 1.268 . S
O19 Sc0 2.105 . S
O19 C5 1.268 . S
O20 Sc2 2.105 . S
O20 C4 1.268 . S
O21 Sc1 2.105 . S
O21 C6 1.268 . S
Sc22 O25 2.025 . S
Sc22 O32 2.105 . S
Sc22 O35 2.105 . S
Sc22 O38 2.105 . S
Sc22 O41 2.105 . S
Sc23 O25 2.025 . S
Sc23 O33 2.105 . S
Sc23 O37 2.105 . S
Sc23 O39 2.105 . S
Sc23 O43 2.105 . S
Sc24 O25 2.025 . S
Sc24 O34 2.105 . S
Sc24 O36 2.105 . S
Sc24 O40 2.105 . S
Sc24 O42 2.105 . S
O25 Sc22 2.025 . S
O25 Sc23 2.025 . S
O25 Sc24 2.025 . S
C26 O32 1.268 . S
C26 O42 1.268 . S
C27 O33 1.268 . S
C27 O41 1.268 . S
C28 O34 1.268 . S
C28 O43 1.268 . S
C29 O35 1.268 . S
C29 O39 1.268 . S
C30 O36 1.268 . S
C30 O38 1.268 . S
C31 O37 1.268 . S
C31 O40 1.268 . S
O32 Sc22 2.105 . S
O32 C26 1.268 . S
O33 Sc23 2.105 . S
O33 C27 1.268 . S
O34 Sc24 2.105 . S
O34 C28 1.268 . S
O35 Sc22 2.105 . S
O35 C29 1.268 . S
O36 Sc24 2.105 . S
O36 C30 1.268 . S
O37 Sc23 2.105 . S
O37 C31 1.268 . S
O38 Sc22 2.105 . S
O38 C30 1.268 . S
O39 Sc23 2.105 . S
O39 C29 1.268 . S
O40 Sc24 2.105 . S
O40 C31 1.268 . S
O41 Sc22 2.105 . S
O41 C27 1.268 . S
O42 Sc24 2.105 . S
O42 C26 1.268 . S
O43 Sc23 2.105 . S
O43 C28 1.268 . S
Sc44 O47 2.025 . S
Sc44 O54 2.105 . S
Sc44 O57 2.105 . S
Sc44 O60 2.105 . S
Sc44 O63 2.105 . S
Sc45 O47 2.025 . S
Sc45 O55 2.105 . S
Sc45 O59 2.105 . S
Sc45 O61 2.105 . S
Sc45 O65 2.105 . S
Sc46 O47 2.025 . S
Sc46 O56 2.105 . S
Sc46 O58 2.105 . S
Sc46 O62 2.105 . S
Sc46 O64 2.105 . S
O47 Sc44 2.025 . S
O47 Sc45 2.025 . S
O47 Sc46 2.025 . S
C48 O54 1.268 . S
C48 O64 1.268 . S
C49 O55 1.268 . S
C49 O63 1.268 . S
C50 O56 1.268 . S
C50 O65 1.268 . S
C51 O57 1.268 . S
C51 O61 1.268 . S
C52 O58 1.268 . S
C52 O60 1.268 . S
C53 O59 1.268 . S
C53 O62 1.268 . S
O54 Sc44 2.105 . S
O54 C48 1.268 . S
O55 Sc45 2.105 . S
O55 C49 1.268 . S
O56 Sc46 2.105 . S
O56 C50 1.268 . S
O57 Sc44 2.105 . S
O57 C51 1.268 . S
O58 Sc46 2.105 . S
O58 C52 1.268 . S
O59 Sc45 2.105 . S
O59 C53 1.268 . S
O60 Sc44 2.105 . S
O60 C52 1.268 . S
O61 Sc45 2.105 . S
O61 C51 1.268 . S
O62 Sc46 2.105 . S
O62 C53 1.268 . S
O63 Sc44 2.105 . S
O63 C49 1.268 . S
O64 Sc46 2.105 . S
O64 C48 1.268 . S
O65 Sc45 2.105 . S
O65 C50 1.268 . S
Sc66 O69 2.025 . S
Sc66 O76 2.105 . S
Sc66 O79 2.105 . S
Sc66 O82 2.105 . S
Sc66 O85 2.105 . S
Sc67 O69 2.025 . S
Sc67 O77 2.105 . S
Sc67 O81 2.105 . S
Sc67 O83 2.105 . S
Sc67 O87 2.105 . S
Sc68 O69 2.025 . S
Sc68 O78 2.105 . S
Sc68 O80 2.105 . S
Sc68 O84 2.105 . S
Sc68 O86 2.105 . S
O69 Sc66 2.025 . S
O69 Sc67 2.025 . S
O69 Sc68 2.025 . S
C70 O76 1.268 . S
C70 O86 1.268 . S
C71 O77 1.268 . S
C71 O85 1.268 . S
C72 O78 1.268 . S
C72 O87 1.268 . S
C73 O79 1.268 . S
C73 O83 1.268 . S
C74 O80 1.268 . S
C74 O82 1.268 . S
C75 O81 1.268 . S
C75 O84 1.268 . S
O76 Sc66 2.105 . S
O76 C70 1.268 . S
O77 Sc67 2.105 . S
O77 C71 1.268 . S
O78 Sc68 2.105 . S
O78 C72 1.268 . S
O79 Sc66 2.105 . S
O79 C73 1.268 . S
O80 Sc68 2.105 . S
O80 C74 1.268 . S
O81 Sc67 2.105 . S
O81 C75 1.268 . S
O82 Sc66 2.105 . S
O82 C74 1.268 . S
O83 Sc67 2.105 . S
O83 C73 1.268 . S
O84 Sc68 2.105 . S
O84 C75 1.268 . S
O85 Sc66 2.105 . S
O85 C71 1.268 . S
O86 Sc68 2.105 . S
O86 C70 1.268 . S
O87 Sc67 2.105 . S
O87 C72 1.268 . S
Sc88 O91 2.025 . S
Sc88 O98 2.105 . S
Sc88 O101 2.105 . S
Sc88 O104 2.105 . S
Sc88 O107 2.105 . S
Sc89 O91 2.025 . S
Sc89 O99 2.105 . S
Sc89 O103 2.105 . S
Sc89 O105 2.105 . S
Sc89 O109 2.105 . S
Sc90 O91 2.025 . S
Sc90 O100 2.105 . S
Sc90 O102 2.105 . S
Sc90 O106 2.105 . S
Sc90 O108 2.105 . S
O91 Sc88 2.025 . S
O91 Sc89 2.025 . S
O91 Sc90 2.025 . S
C92 O98 1.268 . S
C92 O108 1.268 . S
C93 O99 1.268 . S
C93 O107 1.268 . S
C94 O100 1.268 . S
C94 O109 1.268 . S
C95 O101 1.268 . S
C95 O105 1.268 . S
C96 O102 1.268 . S
C96 O104 1.268 . S
C97 O103 1.268 . S
C97 O106 1.268 . S
O98 Sc88 2.105 . S
O98 C92 1.268 . S
O99 Sc89 2.105 . S
O99 C93 1.268 . S
O100 Sc90 2.105 . S
O100 C94 1.268 . S
O101 Sc88 2.105 . S
O101 C95 1.268 . S
O102 Sc90 2.105 . S
O102 C96 1.268 . S
O103 Sc89 2.105 . S
O103 C97 1.268 . S
O104 Sc88 2.105 . S
O104 C96 1.268 . S
O105 Sc89 2.105 . S
O105 C95 1.268 . S
O106 Sc90 2.105 . S
O106 C97 1.268 . S
O107 Sc88 2.105 . S
O107 C93 1.268 . S
O108 Sc90 2.105 . S
O108 C92 1.268 . S
O109 Sc89 2.105 . S
O109 C94 1.268 . S
Sc110 O113 2.025 . S
Sc110 O120 2.105 . S
Sc110 O123 2.105 . S
Sc110 O126 2.105 . S
Sc110 O129 2.105 . S
Sc111 O113 2.025 . S
Sc111 O121 2.105 . S
Sc111 O125 2.105 . S
Sc111 O127 2.105 . S
Sc111 O131 2.105 . S
Sc112 O113 2.025 . S
Sc112 O122 2.105 . S
Sc112 O124 2.105 . S
Sc112 O128 2.105 . S
Sc112 O130 2.105 . S
O113 Sc110 2.025 . S
O113 Sc111 2.025 . S
O113 Sc112 2.025 . S
C114 O120 1.268 . S
C114 O130 1.268 . S
C115 O121 1.268 . S
C115 O129 1.268 . S
C116 O122 1.268 . S
C116 O131 1.268 . S
C117 O123 1.268 . S
C117 O127 1.268 . S
C118 O124 1.268 . S
C118 O126 1.268 . S
C119 O125 1.268 . S
C119 O128 1.268 . S
O120 Sc110 2.105 . S
O120 C114 1.268 . S
O121 Sc111 2.105 . S
O121 C115 1.268 . S
O122 Sc112 2.105 . S
O122 C116 1.268 . S
O123 Sc110 2.105 . S
O123 C117 1.268 . S
O124 Sc112 2.105 . S
O124 C118 1.268 . S
O125 Sc111 2.105 . S
O125 C119 1.268 . S
O126 Sc110 2.105 . S
O126 C118 1.268 . S
O127 Sc111 2.105 . S
O127 C117 1.268 . S
O128 Sc112 2.105 . S
O128 C119 1.268 . S
O129 Sc110 2.105 . S
O129 C115 1.268 . S
O130 Sc112 2.105 . S
O130 C114 1.268 . S
O131 Sc111 2.105 . S
O131 C116 1.268 . S
Sc132 O135 2.025 . S
Sc132 O142 2.105 . S
Sc132 O145 2.105 . S
Sc132 O148 2.105 . S
Sc132 O151 2.105 . S
Sc133 O135 2.025 . S
Sc133 O143 2.105 . S
Sc133 O147 2.105 . S
Sc133 O149 2.105 . S
Sc133 O153 2.105 . S
Sc134 O135 2.025 . S
Sc134 O144 2.105 . S
Sc134 O146 2.105 . S
Sc134 O150 2.105 . S
Sc134 O152 2.105 . S
O135 Sc132 2.025 . S
O135 Sc133 2.025 . S
O135 Sc134 2.025 . S
C136 O142 1.268 . S
C136 O152 1.268 . S
C137 O143 1.268 . S
C137 O151 1.268 . S
C138 O144 1.268 . S
C138 O153 1.268 . S
C139 O145 1.268 . S
C139 O149 1.268 . S
C140 O146 1.268 . S
C140 O148 1.268 . S
C141 O147 1.268 . S
C141 O150 1.268 . S
O142 Sc132 2.105 . S
O142 C136 1.268 . S
O143 Sc133 2.105 . S
O143 C137 1.268 . S
O144 Sc134 2.105 . S
O144 C138 1.268 . S
O145 Sc132 2.105 . S
O145 C139 1.268 . S
O146 Sc134 2.105 . S
O146 C140 1.268 . S
O147 Sc133 2.105 . S
O147 C141 1.268 . S
O148 Sc132 2.105 . S
O148 C140 1.268 . S
O149 Sc133 2.105 . S
O149 C139 1.268 . S
O150 Sc134 2.105 . S
O150 C141 1.268 . S
O151 Sc132 2.105 . S
O151 C137 1.268 . S
O152 Sc134 2.105 . S
O152 C136 1.268 . S
O153 Sc133 2.105 . S
O153 C138 1.268 . S
Sc154 O157 2.025 . S
Sc154 O164 2.105 . S
Sc154 O167 2.105 . S
Sc154 O170 2.105 . S
Sc154 O173 2.105 . S
Sc155 O157 2.025 . S
Sc155 O165 2.105 . S
Sc155 O169 2.105 . S
Sc155 O171 2.105 . S
Sc155 O175 2.105 . S
Sc156 O157 2.025 . S
Sc156 O166 2.105 . S
Sc156 O168 2.105 . S
Sc156 O172 2.105 . S
Sc156 O174 2.105 . S
O157 Sc154 2.025 . S
O157 Sc155 2.025 . S
O157 Sc156 2.025 . S
C158 O164 1.268 . S
C158 O174 1.268 . S
C159 O165 1.268 . S
C159 O173 1.268 . S
C160 O166 1.268 . S
C160 O175 1.268 . S
C161 O167 1.268 . S
C161 O171 1.268 . S
C162 O168 1.268 . S
C162 O170 1.268 . S
C163 O169 1.268 . S
C163 O172 1.268 . S
O164 Sc154 2.105 . S
O164 C158 1.268 . S
O165 Sc155 2.105 . S
O165 C159 1.268 . S
O166 Sc156 2.105 . S
O166 C160 1.268 . S
O167 Sc154 2.105 . S
O167 C161 1.268 . S
O168 Sc156 2.105 . S
O168 C162 1.268 . S
O169 Sc155 2.105 . S
O169 C163 1.268 . S
O170 Sc154 2.105 . S
O170 C162 1.268 . S
O171 Sc155 2.105 . S
O171 C161 1.268 . S
O172 Sc156 2.105 . S
O172 C163 1.268 . S
O173 Sc154 2.105 . S
O173 C159 1.268 . S
O174 Sc156 2.105 . S
O174 C158 1.268 . S
O175 Sc155 2.105 . S
O175 C160 1.268 . S
Sc176 O179 2.025 . S
Sc176 O186 2.105 . S
Sc176 O189 2.105 . S
Sc176 O192 2.105 . S
Sc176 O195 2.105 . S
Sc177 O179 2.025 . S
Sc177 O187 2.105 . S
Sc177 O191 2.105 . S
Sc177 O193 2.105 . S
Sc177 O197 2.105 . S
Sc178 O179 2.025 . S
Sc178 O188 2.105 . S
Sc178 O190 2.105 . S
Sc178 O194 2.105 . S
Sc178 O196 2.105 . S
O179 Sc176 2.025 . S
O179 Sc177 2.025 . S
O179 Sc178 2.025 . S
C180 O186 1.268 . S
C180 O196 1.268 . S
C181 O187 1.268 . S
C181 O195 1.268 . S
C182 O188 1.268 . S
C182 O197 1.268 . S
C183 O189 1.268 . S
C183 O193 1.268 . S
C184 O190 1.268 . S
C184 O192 1.268 . S
C185 O191 1.268 . S
C185 O194 1.268 . S
O186 Sc176 2.105 . S
O186 C180 1.268 . S
O187 Sc177 2.105 . S
O187 C181 1.268 . S
O188 Sc178 2.105 . S
O188 C182 1.268 . S
O189 Sc176 2.105 . S
O189 C183 1.268 . S
O190 Sc178 2.105 . S
O190 C184 1.268 . S
O191 Sc177 2.105 . S
O191 C185 1.268 . S
O192 Sc176 2.105 . S
O192 C184 1.268 . S
O193 Sc177 2.105 . S
O193 C183 1.268 . S
O194 Sc178 2.105 . S
O194 C185 1.268 . S
O195 Sc176 2.105 . S
O195 C181 1.268 . S
O196 Sc178 2.105 . S
O196 C180 1.268 . S
O197 Sc177 2.105 . S
O197 C182 1.268 . S
Sc198 O201 2.025 . S
Sc198 O208 2.105 . S
Sc198 O211 2.105 . S
Sc198 O214 2.105 . S
Sc198 O217 2.105 . S
Sc199 O201 2.025 . S
Sc199 O209 2.105 . S
Sc199 O213 2.105 . S
Sc199 O215 2.105 . S
Sc199 O219 2.105 . S
Sc200 O201 2.025 . S
Sc200 O210 2.105 . S
Sc200 O212 2.105 . S
Sc200 O216 2.105 . S
Sc200 O218 2.105 . S
O201 Sc198 2.025 . S
O201 Sc199 2.025 . S
O201 Sc200 2.025 . S
C202 O208 1.268 . S
C202 O218 1.268 . S
C203 O209 1.268 . S
C203 O217 1.268 . S
C204 O210 1.268 . S
C204 O219 1.268 . S
C205 O211 1.268 . S
C205 O215 1.268 . S
C206 O212 1.268 . S
C206 O214 1.268 . S
C207 O213 1.268 . S
C207 O216 1.268 . S
O208 Sc198 2.105 . S
O208 C202 1.268 . S
O209 Sc199 2.105 . S
O209 C203 1.268 . S
O210 Sc200 2.105 . S
O210 C204 1.268 . S
O211 Sc198 2.105 . S
O211 C205 1.268 . S
O212 Sc200 2.105 . S
O212 C206 1.268 . S
O213 Sc199 2.105 . S
O213 C207 1.268 . S
O214 Sc198 2.105 . S
O214 C206 1.268 . S
O215 Sc199 2.105 . S
O215 C205 1.268 . S
O216 Sc200 2.105 . S
O216 C207 1.268 . S
O217 Sc198 2.105 . S
O217 C203 1.268 . S
O218 Sc200 2.105 . S
O218 C202 1.268 . S
O219 Sc199 2.105 . S
O219 C204 1.268 . S
Sc220 O223 2.025 . S
Sc220 O230 2.105 . S
Sc220 O233 2.105 . S
Sc220 O236 2.105 . S
Sc220 O239 2.105 . S
Sc221 O223 2.025 . S
Sc221 O231 2.105 . S
Sc221 O235 2.105 . S
Sc221 O237 2.105 . S
Sc221 O241 2.105 . S
Sc222 O223 2.025 . S
Sc222 O232 2.105 . S
Sc222 O234 2.105 . S
Sc222 O238 2.105 . S
Sc222 O240 2.105 . S
O223 Sc220 2.025 . S
O223 Sc221 2.025 . S
O223 Sc222 2.025 . S
C224 O230 1.268 . S
C224 O240 1.268 . S
C225 O231 1.268 . S
C225 O239 1.268 . S
C226 O232 1.268 . S
C226 O241 1.268 . S
C227 O233 1.268 . S
C227 O237 1.268 . S
C228 O234 1.268 . S
C228 O236 1.268 . S
C229 O235 1.268 . S
C229 O238 1.268 . S
O230 Sc220 2.105 . S
O230 C224 1.268 . S
O231 Sc221 2.105 . S
O231 C225 1.268 . S
O232 Sc222 2.105 . S
O232 C226 1.268 . S
O233 Sc220 2.105 . S
O233 C227 1.268 . S
O234 Sc222 2.105 . S
O234 C228 1.268 . S
O235 Sc221 2.105 . S
O235 C229 1.268 . S
O236 Sc220 2.105 . S
O236 C228 1.268 . S
O237 Sc221 2.105 . S
O237 C227 1.268 . S
O238 Sc222 2.105 . S
O238 C229 1.268 . S
O239 Sc220 2.105 . S
O239 C225 1.268 . S
O240 Sc222 2.105 . S
O240 C224 1.268 . S
O241 Sc221 2.105 . S
O241 C226 1.268 . S
Sc242 O245 2.025 . S
Sc242 O252 2.105 . S
Sc242 O255 2.105 . S
Sc242 O258 2.105 . S
Sc242 O261 2.105 . S
Sc243 O245 2.025 . S
Sc243 O253 2.105 . S
Sc243 O257 2.105 . S
Sc243 O259 2.105 . S
Sc243 O263 2.105 . S
Sc244 O245 2.025 . S
Sc244 O254 2.105 . S
Sc244 O256 2.105 . S
Sc244 O260 2.105 . S
Sc244 O262 2.105 . S
O245 Sc242 2.025 . S
O245 Sc243 2.025 . S
O245 Sc244 2.025 . S
C246 O252 1.268 . S
C246 O262 1.268 . S
C247 O253 1.268 . S
C247 O261 1.268 . S
C248 O254 1.268 . S
C248 O263 1.268 . S
C249 O255 1.268 . S
C249 O259 1.268 . S
C250 O256 1.268 . S
C250 O258 1.268 . S
C251 O257 1.268 . S
C251 O260 1.268 . S
O252 Sc242 2.105 . S
O252 C246 1.268 . S
O253 Sc243 2.105 . S
O253 C247 1.268 . S
O254 Sc244 2.105 . S
O254 C248 1.268 . S
O255 Sc242 2.105 . S
O255 C249 1.268 . S
O256 Sc244 2.105 . S
O256 C250 1.268 . S
O257 Sc243 2.105 . S
O257 C251 1.268 . S
O258 Sc242 2.105 . S
O258 C250 1.268 . S
O259 Sc243 2.105 . S
O259 C249 1.268 . S
O260 Sc244 2.105 . S
O260 C251 1.268 . S
O261 Sc242 2.105 . S
O261 C247 1.268 . S
O262 Sc244 2.105 . S
O262 C246 1.268 . S
O263 Sc243 2.105 . S
O263 C248 1.268 . S
Sc264 O267 2.025 . S
Sc264 O274 2.105 . S
Sc264 O277 2.105 . S
Sc264 O280 2.105 . S
Sc264 O283 2.105 . S
Sc265 O267 2.025 . S
Sc265 O275 2.105 . S
Sc265 O279 2.105 . S
Sc265 O281 2.105 . S
Sc265 O285 2.105 . S
Sc266 O267 2.025 . S
Sc266 O276 2.105 . S
Sc266 O278 2.105 . S
Sc266 O282 2.105 . S
Sc266 O284 2.105 . S
O267 Sc264 2.025 . S
O267 Sc265 2.025 . S
O267 Sc266 2.025 . S
C268 O274 1.268 . S
C268 O284 1.268 . S
C269 O275 1.268 . S
C269 O283 1.268 . S
C270 O276 1.268 . S
C270 O285 1.268 . S
C271 O277 1.268 . S
C271 O281 1.268 . S
C272 O278 1.268 . S
C272 O280 1.268 . S
C273 O279 1.268 . S
C273 O282 1.268 . S
O274 Sc264 2.105 . S
O274 C268 1.268 . S
O275 Sc265 2.105 . S
O275 C269 1.268 . S
O276 Sc266 2.105 . S
O276 C270 1.268 . S
O277 Sc264 2.105 . S
O277 C271 1.268 . S
O278 Sc266 2.105 . S
O278 C272 1.268 . S
O279 Sc265 2.105 . S
O279 C273 1.268 . S
O280 Sc264 2.105 . S
O280 C272 1.268 . S
O281 Sc265 2.105 . S
O281 C271 1.268 . S
O282 Sc266 2.105 . S
O282 C273 1.268 . S
O283 Sc264 2.105 . S
O283 C269 1.268 . S
O284 Sc266 2.105 . S
O284 C268 1.268 . S
O285 Sc265 2.105 . S
O285 C270 1.268 . S
Sc286 O289 2.025 . S
Sc286 O296 2.105 . S
Sc286 O299 2.105 . S
Sc286 O302 2.105 . S
Sc286 O305 2.105 . S
Sc287 O289 2.025 . S
Sc287 O297 2.105 . S
Sc287 O301 2.105 . S
Sc287 O303 2.105 . S
Sc287 O307 2.105 . S
Sc288 O289 2.025 . S
Sc288 O298 2.105 . S
Sc288 O300 2.105 . S
Sc288 O304 2.105 . S
Sc288 O306 2.105 . S
O289 Sc286 2.025 . S
O289 Sc287 2.025 . S
O289 Sc288 2.025 . S
C290 O296 1.268 . S
C290 O306 1.268 . S
C291 O297 1.268 . S
C291 O305 1.268 . S
C292 O298 1.268 . S
C292 O307 1.268 . S
C293 O299 1.268 . S
C293 O303 1.268 . S
C294 O300 1.268 . S
C294 O302 1.268 . S
C295 O301 1.268 . S
C295 O304 1.268 . S
O296 Sc286 2.105 . S
O296 C290 1.268 . S
O297 Sc287 2.105 . S
O297 C291 1.268 . S
O298 Sc288 2.105 . S
O298 C292 1.268 . S
O299 Sc286 2.105 . S
O299 C293 1.268 . S
O300 Sc288 2.105 . S
O300 C294 1.268 . S
O301 Sc287 2.105 . S
O301 C295 1.268 . S
O302 Sc286 2.105 . S
O302 C294 1.268 . S
O303 Sc287 2.105 . S
O303 C293 1.268 . S
O304 Sc288 2.105 . S
O304 C295 1.268 . S
O305 Sc286 2.105 . S
O305 C291 1.268 . S
O306 Sc288 2.105 . S
O306 C290 1.268 . S
O307 Sc287 2.105 . S
O307 C292 1.268 . S
Sc308 O311 2.025 . S
Sc308 O318 2.105 . S
Sc308 O321 2.105 . S
Sc308 O324 2.105 . S
Sc308 O327 2.105 . S
Sc309 O311 2.025 . S
Sc309 O319 2.105 . S
Sc309 O323 2.105 . S
Sc309 O325 2.105 . S
Sc309 O329 2.105 . S
Sc310 O311 2.025 . S
Sc310 O320 2.105 . S
Sc310 O322 2.105 . S
Sc310 O326 2.105 . S
Sc310 O328 2.105 . S
O311 Sc308 2.025 . S
O311 Sc309 2.025 . S
O311 Sc310 2.025 . S
C312 O318 1.268 . S
C312 O328 1.268 . S
C313 O319 1.268 . S
C313 O327 1.268 . S
C314 O320 1.268 . S
C314 O329 1.268 . S
C315 O321 1.268 . S
C315 O325 1.268 . S
C316 O322 1.268 . S
C316 O324 1.268 . S
C317 O323 1.268 . S
C317 O326 1.268 . S
O318 Sc308 2.105 . S
O318 C312 1.268 . S
O319 Sc309 2.105 . S
O319 C313 1.268 . S
O320 Sc310 2.105 . S
O320 C314 1.268 . S
O321 Sc308 2.105 . S
O321 C315 1.268 . S
O322 Sc310 2.105 . S
O322 C316 1.268 . S
O323 Sc309 2.105 . S
O323 C317 1.268 . S
O324 Sc308 2.105 . S
O324 C316 1.268 . S
O325 Sc309 2.105 . S
O325 C315 1.268 . S
O326 Sc310 2.105 . S
O326 C317 1.268 . S
O327 Sc308 2.105 . S
O327 C313 1.268 . S
O328 Sc310 2.105 . S
O328 C312 1.268 . S
O329 Sc309 2.105 . S
O329 C314 1.268 . S
Sc330 O333 2.025 . S
Sc330 O340 2.105 . S
Sc330 O343 2.105 . S
Sc330 O346 2.105 . S
Sc330 O349 2.105 . S
Sc331 O333 2.025 . S
Sc331 O341 2.105 . S
Sc331 O345 2.105 . S
Sc331 O347 2.105 . S
Sc331 O351 2.105 . S
Sc332 O333 2.025 . S
Sc332 O342 2.105 . S
Sc332 O344 2.105 . S
Sc332 O348 2.105 . S
Sc332 O350 2.105 . S
O333 Sc330 2.025 . S
O333 Sc331 2.025 . S
O333 Sc332 2.025 . S
C334 O340 1.268 . S
C334 O350 1.268 . S
C335 O341 1.268 . S
C335 O349 1.268 . S
C336 O342 1.268 . S
C336 O351 1.268 . S
C337 O343 1.268 . S
C337 O347 1.268 . S
C338 O344 1.268 . S
C338 O346 1.268 . S
C339 O345 1.268 . S
C339 O348 1.268 . S
O340 Sc330 2.105 . S
O340 C334 1.268 . S
O341 Sc331 2.105 . S
O341 C335 1.268 . S
O342 Sc332 2.105 . S
O342 C336 1.268 . S
O343 Sc330 2.105 . S
O343 C337 1.268 . S
O344 Sc332 2.105 . S
O344 C338 1.268 . S
O345 Sc331 2.105 . S
O345 C339 1.268 . S
O346 Sc330 2.105 . S
O346 C338 1.268 . S
O347 Sc331 2.105 . S
O347 C337 1.268 . S
O348 Sc332 2.105 . S
O348 C339 1.268 . S
O349 Sc330 2.105 . S
O349 C335 1.268 . S
O350 Sc332 2.105 . S
O350 C334 1.268 . S
O351 Sc331 2.105 . S
O351 C336 1.268 . S
C352 O379 1.312 . S
C352 O380 1.208 . S
C353 O374 1.331 . S
C353 O377 1.244 . S
C354 O376 1.264 . S
C354 O378 1.273 . S
Mg355 O357 1.936 1_455 S
Mg355 O364 2.081 1_455 S
Mg355 O366 2.023 . S
Mg355 O370 2.032 1_455 S
Mg355 O379 2.291 . S
Mg356 O357 1.963 . S
Mg356 O367 1.942 . S
Mg356 O368 1.955 1_655 S
Mg356 O375 1.986 . S
O357 Mg355 1.936 1_655 S
O357 Mg356 1.963 . S
O357 Mg358 1.915 . S
Mg358 O357 1.915 . S
Mg358 O359 1.915 1_655 S
Mg358 O363 2.013 1_655 S
Mg358 O369 2.114 . S
Mg358 O373 2.013 . S
Mg358 O379 2.114 1_655 S
O359 Mg358 1.915 1_455 S
O359 Mg360 1.936 . S
O359 Mg361 1.963 1_455 S
Mg360 O359 1.936 . S
Mg360 O369 2.291 1_455 S
Mg360 O374 2.081 . S
Mg360 O376 2.023 1_455 S
Mg360 O380 2.031 . S
Mg361 O359 1.963 1_655 S
Mg361 O365 1.986 1_655 S
Mg361 O377 1.942 1_655 S
Mg361 O378 1.955 . S
C362 O373 1.191 . S
C362 O375 1.307 . S
O363 Mg358 2.013 1_455 S
O363 C382 1.191 . S
O364 Mg355 2.081 1_655 S
O364 C372 1.331 . S
O365 Mg361 1.986 1_455 S
O365 C382 1.307 . S
O366 Mg355 2.023 . S
O366 C381 1.264 . S
O367 Mg356 1.942 . S
O367 C372 1.244 . S
O368 Mg356 1.955 1_455 S
O368 C381 1.273 . S
O369 Mg358 2.114 . S
O369 Mg360 2.291 1_655 S
O369 C371 1.312 . S
O370 Mg355 2.032 1_655 S
O370 C371 1.207 . S
C371 O369 1.312 . S
C371 O370 1.207 . S
C372 O364 1.331 . S
C372 O367 1.244 . S
O373 Mg358 2.013 . S
O373 C362 1.191 . S
O374 C353 1.331 . S
O374 Mg360 2.081 . S
O375 Mg356 1.986 . S
O375 C362 1.307 . S
O376 C354 1.264 . S
O376 Mg360 2.023 1_655 S
O377 C353 1.244 . S
O377 Mg361 1.942 1_455 S
O378 C354 1.273 . S
O378 Mg361 1.955 . S
O379 C352 1.312 . S
O379 Mg355 2.291 . S
O379 Mg358 2.114 1_455 S
O380 C352 1.208 . S
O380 Mg360 2.031 . S
C381 O366 1.264 . S
C381 O368 1.273 . S
C382 O363 1.191 . S
C382 O365 1.307 . S
C383 O410 1.312 . S
C383 O411 1.208 . S
C384 O405 1.331 . S
C384 O408 1.244 . S
C385 O407 1.264 . S
C385 O409 1.273 . S
Mg386 O388 1.936 . S
Mg386 O395 2.081 . S
Mg386 O397 2.023 . S
Mg386 O401 2.031 . S
Mg386 O410 2.291 . S
Mg387 O388 1.963 . S
Mg387 O398 1.942 . S
Mg387 O399 1.955 . S
Mg387 O406 1.986 . S
O388 Mg386 1.936 . S
O388 Mg387 1.963 . S
O388 Mg389 1.915 . S
Mg389 O388 1.915 . S
Mg389 O390 1.915 . S
Mg389 O394 2.013 . S
Mg389 O400 2.114 . S
Mg389 O404 2.013 . S
Mg389 O410 2.114 . S
O390 Mg389 1.915 . S
O390 Mg391 1.936 . S
O390 Mg392 1.963 . S
Mg391 O390 1.936 . S
Mg391 O400 2.291 . S
Mg391 O405 2.081 . S
Mg391 O407 2.023 . S
Mg391 O411 2.031 . S
Mg392 O390 1.963 . S
Mg392 O396 1.986 . S
Mg392 O408 1.942 . S
Mg392 O409 1.955 . S
C393 O404 1.191 . S
C393 O406 1.307 . S
O394 Mg389 2.013 . S
O394 C413 1.191 . S
O395 Mg386 2.081 . S
O395 C403 1.331 . S
O396 Mg392 1.986 . S
O396 C413 1.307 . S
O397 Mg386 2.023 . S
O397 C412 1.264 . S
O398 Mg387 1.942 . S
O398 C403 1.244 . S
O399 Mg387 1.955 . S
O399 C412 1.273 . S
O400 Mg389 2.114 . S
O400 Mg391 2.291 . S
O400 C402 1.312 . S
O401 Mg386 2.031 . S
O401 C402 1.208 . S
C402 O400 1.312 . S
C402 O401 1.208 . S
C403 O395 1.331 . S
C403 O398 1.244 . S
O404 Mg389 2.013 . S
O404 C393 1.191 . S
O405 C384 1.331 . S
O405 Mg391 2.081 . S
O406 Mg387 1.986 . S
O406 C393 1.307 . S
O407 C385 1.264 . S
O407 Mg391 2.023 . S
O408 C384 1.244 . S
O408 Mg392 1.942 . S
O409 C385 1.273 . S
O409 Mg392 1.955 . S
O410 C383 1.312 . S
O410 Mg386 2.291 . S
O410 Mg389 2.114 . S
O411 C383 1.208 . S
O411 Mg391 2.031 . S
C412 O397 1.264 . S
C412 O399 1.273 . S
C413 O394 1.191 . S
C413 O396 1.307 . S
C414 O441 1.312 . S
C414 O442 1.210 . S
C415 O436 1.331 . S
C415 O439 1.244 . S
C416 O438 1.264 . S
C416 O440 1.273 . S
Mg417 O419 1.936 . S
Mg417 O426 2.081 . S
Mg417 O428 2.023 1_455 S
Mg417 O432 2.031 . S
Mg417 O441 2.291 1_455 S
Mg418 O419 1.963 1_655 S
Mg418 O429 1.942 1_655 S
Mg418 O430 1.955 . S
Mg418 O437 1.986 1_655 S
O419 Mg417 1.936 . S
O419 Mg418 1.963 1_455 S
O419 Mg420 1.915 1_455 S
Mg420 O419 1.915 1_655 S
Mg420 O421 1.915 . S
Mg420 O425 2.013 . S
Mg420 O431 2.114 1_655 S
Mg420 O435 2.013 1_655 S
Mg420 O441 2.114 . S
O421 Mg420 1.915 . S
O421 Mg422 1.936 1_655 S
O421 Mg423 1.963 . S
Mg422 O421 1.936 1_455 S
Mg422 O431 2.291 . S
Mg422 O436 2.081 1_455 S
Mg422 O438 2.023 . S
Mg422 O442 2.029 1_455 S
Mg423 O421 1.963 . S
Mg423 O427 1.986 . S
Mg423 O439 1.942 . S
Mg423 O440 1.955 1_655 S
C424 O435 1.191 . S
C424 O437 1.307 . S
O425 Mg420 2.013 . S
O425 C444 1.191 . S
O426 Mg417 2.081 . S
O426 C434 1.331 . S
O427 Mg423 1.986 . S
O427 C444 1.307 . S
O428 Mg417 2.023 1_655 S
O428 C443 1.264 . S
O429 Mg418 1.942 1_455 S
O429 C434 1.244 . S
O430 Mg418 1.955 . S
O430 C443 1.273 . S
O431 Mg420 2.114 1_455 S
O431 Mg422 2.291 . S
O431 C433 1.312 . S
O432 Mg417 2.031 . S
O432 C433 1.208 . S
C433 O431 1.312 . S
C433 O432 1.208 . S
C434 O426 1.331 . S
C434 O429 1.244 . S
O435 Mg420 2.013 1_455 S
O435 C424 1.191 . S
O436 C415 1.331 . S
O436 Mg422 2.081 1_655 S
O437 Mg418 1.986 1_455 S
O437 C424 1.307 . S
O438 C416 1.264 . S
O438 Mg422 2.023 . S
O439 C415 1.244 . S
O439 Mg423 1.942 . S
O440 C416 1.273 . S
O440 Mg423 1.955 1_455 S
O441 C414 1.312 . S
O441 Mg417 2.291 1_655 S
O441 Mg420 2.114 . S
O442 C414 1.210 . S
O442 Mg422 2.029 1_655 S
C443 O428 1.264 . S
C443 O430 1.273 . S
C444 O425 1.191 . S
C444 O427 1.307 . S
C445 O472 1.312 . S
C445 O473 1.207 . S
C446 O467 1.331 . S
C446 O470 1.244 . S
C447 O469 1.264 . S
C447 O471 1.273 . S
Mg448 O450 1.936 . S
Mg448 O457 2.081 . S
Mg448 O459 2.023 1_545 S
Mg448 O463 2.031 . S
Mg448 O472 2.291 1_545 S
Mg449 O450 1.963 1_565 S
Mg449 O460 1.942 1_565 S
Mg449 O461 1.955 . S
Mg449 O468 1.986 1_565 S
O450 Mg448 1.936 . S
O450 Mg449 1.963 1_545 S
O450 Mg451 1.915 1_545 S
Mg451 O450 1.915 1_565 S
Mg451 O452 1.915 . S
Mg451 O456 2.013 . S
Mg451 O462 2.114 1_565 S
Mg451 O466 2.013 1_565 S
Mg451 O472 2.114 . S
O452 Mg451 1.915 . S
O452 Mg453 1.936 1_565 S
O452 Mg454 1.963 . S
Mg453 O452 1.936 1_545 S
Mg453 O462 2.291 . S
Mg453 O467 2.081 1_545 S
Mg453 O469 2.023 . S
Mg453 O473 2.032 1_545 S
Mg454 O452 1.963 . S
Mg454 O458 1.986 . S
Mg454 O470 1.942 . S
Mg454 O471 1.955 1_565 S
C455 O466 1.191 . S
C455 O468 1.307 . S
O456 Mg451 2.013 . S
O456 C475 1.191 . S
O457 Mg448 2.081 . S
O457 C465 1.331 . S
O458 Mg454 1.986 . S
O458 C475 1.307 . S
O459 Mg448 2.023 1_565 S
O459 C474 1.264 . S
O460 Mg449 1.942 1_545 S
O460 C465 1.244 . S
O461 Mg449 1.955 . S
O461 C474 1.273 . S
O462 Mg451 2.114 1_545 S
O462 Mg453 2.291 . S
O462 C464 1.312 . S
O463 Mg448 2.031 . S
O463 C464 1.208 . S
C464 O462 1.312 . S
C464 O463 1.208 . S
C465 O457 1.331 . S
C465 O460 1.244 . S
O466 Mg451 2.013 1_545 S
O466 C455 1.191 . S
O467 C446 1.331 . S
O467 Mg453 2.081 1_565 S
O468 Mg449 1.986 1_545 S
O468 C455 1.307 . S
O469 C447 1.264 . S
O469 Mg453 2.023 . S
O470 C446 1.244 . S
O470 Mg454 1.942 . S
O471 C447 1.273 . S
O471 Mg454 1.955 1_545 S
O472 C445 1.312 . S
O472 Mg448 2.291 1_565 S
O472 Mg451 2.114 . S
O473 C445 1.207 . S
O473 Mg453 2.032 1_565 S
C474 O459 1.264 . S
C474 O461 1.273 . S
C475 O456 1.191 . S
C475 O458 1.307 . S
C476 O503 1.312 . S
C476 O504 1.208 . S
C477 O498 1.331 . S
C477 O501 1.244 . S
C478 O500 1.264 . S
C478 O502 1.273 . S
Mg479 O481 1.936 1_554 S
Mg479 O488 2.081 1_554 S
Mg479 O490 2.023 . S
Mg479 O494 2.030 1_554 S
Mg479 O503 2.291 . S
Mg480 O481 1.963 . S
Mg480 O491 1.942 . S
Mg480 O492 1.955 1_556 S
Mg480 O499 1.986 . S
O481 Mg479 1.936 1_556 S
O481 Mg480 1.963 . S
O481 Mg482 1.915 . S
Mg482 O481 1.915 . S
Mg482 O483 1.915 1_556 S
Mg482 O487 2.013 1_556 S
Mg482 O493 2.114 . S
Mg482 O497 2.013 . S
Mg482 O503 2.114 1_556 S
O483 Mg482 1.915 1_554 S
O483 Mg484 1.936 . S
O483 Mg485 1.963 1_554 S
Mg484 O483 1.936 . S
Mg484 O493 2.291 1_554 S
Mg484 O498 2.081 . S
Mg484 O500 2.023 1_554 S
Mg484 O504 2.031 . S
Mg485 O483 1.963 1_556 S
Mg485 O489 1.986 1_556 S
Mg485 O501 1.942 1_556 S
Mg485 O502 1.955 . S
C486 O497 1.191 . S
C486 O499 1.307 . S
O487 Mg482 2.013 1_554 S
O487 C506 1.191 . S
O488 Mg479 2.081 1_556 S
O488 C496 1.331 . S
O489 Mg485 1.986 1_554 S
O489 C506 1.307 . S
O490 Mg479 2.023 . S
O490 C505 1.264 . S
O491 Mg480 1.942 . S
O491 C496 1.244 . S
O492 Mg480 1.955 1_554 S
O492 C505 1.273 . S
O493 Mg482 2.114 . S
O493 Mg484 2.291 1_556 S
O493 C495 1.312 . S
O494 Mg479 2.030 1_556 S
O494 C495 1.209 . S
C495 O493 1.312 . S
C495 O494 1.209 . S
C496 O488 1.331 . S
C496 O491 1.244 . S
O497 Mg482 2.013 . S
O497 C486 1.191 . S
O498 C477 1.331 . S
O498 Mg484 2.081 . S
O499 Mg480 1.986 . S
O499 C486 1.307 . S
O500 C478 1.264 . S
O500 Mg484 2.023 1_556 S
O501 C477 1.244 . S
O501 Mg485 1.942 1_554 S
O502 C478 1.273 . S
O502 Mg485 1.955 . S
O503 C476 1.312 . S
O503 Mg479 2.291 . S
O503 Mg482 2.114 1_554 S
O504 C476 1.208 . S
O504 Mg484 2.031 . S
C505 O490 1.264 . S
C505 O492 1.273 . S
C506 O487 1.191 . S
C506 O489 1.307 . S
C507 O534 1.312 . S
C507 O535 1.208 . S
C508 O529 1.331 . S
C508 O532 1.244 . S
C509 O531 1.264 . S
C509 O533 1.273 . S
Mg510 O512 1.936 . S
Mg510 O519 2.081 . S
Mg510 O521 2.023 . S
Mg510 O525 2.031 . S
Mg510 O534 2.291 . S
Mg511 O512 1.963 . S
Mg511 O522 1.942 . S
Mg511 O523 1.955 . S
Mg511 O530 1.986 . S
O512 Mg510 1.936 . S
O512 Mg511 1.963 . S
O512 Mg513 1.915 . S
Mg513 O512 1.915 . S
Mg513 O514 1.915 . S
Mg513 O518 2.013 . S
Mg513 O524 2.114 . S
Mg513 O528 2.013 . S
Mg513 O534 2.114 . S
O514 Mg513 1.915 . S
O514 Mg515 1.936 . S
O514 Mg516 1.963 . S
Mg515 O514 1.936 . S
Mg515 O524 2.291 . S
Mg515 O529 2.081 . S
Mg515 O531 2.023 . S
Mg515 O535 2.031 . S
Mg516 O514 1.963 . S
Mg516 O520 1.986 . S
Mg516 O532 1.942 . S
Mg516 O533 1.955 . S
C517 O528 1.191 . S
C517 O530 1.307 . S
O518 Mg513 2.013 . S
O518 C537 1.191 . S
O519 Mg510 2.081 . S
O519 C527 1.331 . S
O520 Mg516 1.986 . S
O520 C537 1.307 . S
O521 Mg510 2.023 . S
O521 C536 1.264 . S
O522 Mg511 1.942 . S
O522 C527 1.244 . S
O523 Mg511 1.955 . S
O523 C536 1.273 . S
O524 Mg513 2.114 . S
O524 Mg515 2.291 . S
O524 C526 1.312 . S
O525 Mg510 2.031 . S
O525 C526 1.208 . S
C526 O524 1.312 . S
C526 O525 1.208 . S
C527 O519 1.331 . S
C527 O522 1.244 . S
O528 Mg513 2.013 . S
O528 C517 1.191 . S
O529 C508 1.331 . S
O529 Mg515 2.081 . S
O530 Mg511 1.986 . S
O530 C517 1.307 . S
O531 C509 1.264 . S
O531 Mg515 2.023 . S
O532 C508 1.244 . S
O532 Mg516 1.942 . S
O533 C509 1.273 . S
O533 Mg516 1.955 . S
O534 C507 1.312 . S
O534 Mg510 2.291 . S
O534 Mg513 2.114 . S
O535 C507 1.208 . S
O535 Mg515 2.031 . S
C536 O521 1.264 . S
C536 O523 1.273 . S
C537 O518 1.191 . S
C537 O520 1.307 . S
C538 O565 1.312 . S
C538 O566 1.208 . S
C539 O560 1.331 . S
C539 O563 1.244 . S
C540 O562 1.264 . S
C540 O564 1.273 . S
Mg541 O543 1.936 . S
Mg541 O550 2.081 . S
Mg541 O552 2.023 1_556 S
Mg541 O556 2.031 . S
Mg541 O565 2.291 1_556 S
Mg542 O543 1.963 1_554 S
Mg542 O553 1.942 1_554 S
Mg542 O554 1.955 . S
Mg542 O561 1.986 1_554 S
O543 Mg541 1.936 . S
O543 Mg542 1.963 1_556 S
O543 Mg544 1.915 1_556 S
Mg544 O543 1.915 1_554 S
Mg544 O545 1.915 . S
Mg544 O549 2.013 . S
Mg544 O555 2.114 1_554 S
Mg544 O559 2.013 1_554 S
Mg544 O565 2.114 . S
O545 Mg544 1.915 . S
O545 Mg546 1.936 1_554 S
O545 Mg547 1.963 . S
Mg546 O545 1.936 1_556 S
Mg546 O555 2.291 . S
Mg546 O560 2.081 1_556 S
Mg546 O562 2.023 . S
Mg546 O566 2.031 1_556 S
Mg547 O545 1.963 . S
Mg547 O551 1.986 . S
Mg547 O563 1.942 . S
Mg547 O564 1.955 1_554 S
C548 O559 1.191 . S
C548 O561 1.307 . S
O549 Mg544 2.013 . S
O549 C568 1.191 . S
O550 Mg541 2.081 . S
O550 C558 1.331 . S
O551 Mg547 1.986 . S
O551 C568 1.307 . S
O552 Mg541 2.023 1_554 S
O552 C567 1.264 . S
O553 Mg542 1.942 1_556 S
O553 C558 1.244 . S
O554 Mg542 1.955 . S
O554 C567 1.273 . S
O555 Mg544 2.114 1_556 S
O555 Mg546 2.291 . S
O555 C557 1.312 . S
O556 Mg541 2.031 . S
O556 C557 1.208 . S
C557 O555 1.312 . S
C557 O556 1.208 . S
C558 O550 1.331 . S
C558 O553 1.244 . S
O559 Mg544 2.013 1_556 S
O559 C548 1.191 . S
O560 C539 1.331 . S
O560 Mg546 2.081 1_554 S
O561 Mg542 1.986 1_556 S
O561 C548 1.307 . S
O562 C540 1.264 . S
O562 Mg546 2.023 . S
O563 C539 1.244 . S
O563 Mg547 1.942 . S
O564 C540 1.273 . S
O564 Mg547 1.955 1_556 S
O565 C538 1.312 . S
O565 Mg541 2.291 1_554 S
O565 Mg544 2.114 . S
O566 C538 1.208 . S
O566 Mg546 2.031 1_554 S
C567 O552 1.264 . S
C567 O554 1.273 . S
C568 O549 1.191 . S
C568 O551 1.307 . S
C569 O596 1.312 . S
C569 O597 1.208 . S
C570 O591 1.331 . S
C570 O594 1.244 . S
C571 O593 1.264 . S
C571 O595 1.273 . S
Mg572 O574 1.936 . S
Mg572 O581 2.081 . S
Mg572 O583 2.023 . S
Mg572 O587 2.031 . S
Mg572 O596 2.291 . S
Mg573 O574 1.963 . S
Mg573 O584 1.942 . S
Mg573 O585 1.955 . S
Mg573 O592 1.986 . S
O574 Mg572 1.936 . S
O574 Mg573 1.963 . S
O574 Mg575 1.915 . S
Mg575 O574 1.915 . S
Mg575 O576 1.915 . S
Mg575 O580 2.013 . S
Mg575 O586 2.114 . S
Mg575 O590 2.013 . S
Mg575 O596 2.114 . S
O576 Mg575 1.915 . S
O576 Mg577 1.936 . S
O576 Mg578 1.963 . S
Mg577 O576 1.936 . S
Mg577 O586 2.291 . S
Mg577 O591 2.081 . S
Mg577 O593 2.023 . S
Mg577 O597 2.031 . S
Mg578 O576 1.963 . S
Mg578 O582 1.986 . S
Mg578 O594 1.942 . S
Mg578 O595 1.955 . S
C579 O590 1.191 . S
C579 O592 1.307 . S
O580 Mg575 2.013 . S
O580 C599 1.191 . S
O581 Mg572 2.081 . S
O581 C589 1.331 . S
O582 Mg578 1.986 . S
O582 C599 1.307 . S
O583 Mg572 2.023 . S
O583 C598 1.264 . S
O584 Mg573 1.942 . S
O584 C589 1.244 . S
O585 Mg573 1.955 . S
O585 C598 1.273 . S
O586 Mg575 2.114 . S
O586 Mg577 2.291 . S
O586 C588 1.312 . S
O587 Mg572 2.031 . S
O587 C588 1.208 . S
C588 O586 1.312 . S
C588 O587 1.208 . S
C589 O581 1.331 . S
C589 O584 1.244 . S
O590 Mg575 2.013 . S
O590 C579 1.191 . S
O591 C570 1.331 . S
O591 Mg577 2.081 . S
O592 Mg573 1.986 . S
O592 C579 1.307 . S
O593 C571 1.264 . S
O593 Mg577 2.023 . S
O594 C570 1.244 . S
O594 Mg578 1.942 . S
O595 C571 1.273 . S
O595 Mg578 1.955 . S
O596 C569 1.312 . S
O596 Mg572 2.291 . S
O596 Mg575 2.114 . S
O597 C569 1.208 . S
O597 Mg577 2.031 . S
C598 O583 1.264 . S
C598 O585 1.273 . S
C599 O580 1.191 . S
C599 O582 1.307 . S
C600 O627 1.312 . S
C600 O628 1.208 . S
C601 O622 1.331 . S
C601 O625 1.244 . S
C602 O624 1.264 . S
C602 O626 1.273 . S
Mg603 O605 1.936 . S
Mg603 O612 2.081 . S
Mg603 O614 2.023 . S
Mg603 O618 2.031 . S
Mg603 O627 2.291 . S
Mg604 O605 1.963 . S
Mg604 O615 1.942 . S
Mg604 O616 1.955 . S
Mg604 O623 1.986 . S
O605 Mg603 1.936 . S
O605 Mg604 1.963 . S
O605 Mg606 1.915 . S
Mg606 O605 1.915 . S
Mg606 O607 1.915 . S
Mg606 O611 2.013 . S
Mg606 O617 2.114 . S
Mg606 O621 2.013 . S
Mg606 O627 2.114 . S
O607 Mg606 1.915 . S
O607 Mg608 1.936 . S
O607 Mg609 1.963 . S
Mg608 O607 1.936 . S
Mg608 O617 2.291 . S
Mg608 O622 2.081 . S
Mg608 O624 2.023 . S
Mg608 O628 2.031 . S
Mg609 O607 1.963 . S
Mg609 O613 1.986 . S
Mg609 O625 1.942 . S
Mg609 O626 1.955 . S
C610 O621 1.191 . S
C610 O623 1.307 . S
O611 Mg606 2.013 . S
O611 C630 1.191 . S
O612 Mg603 2.081 . S
O612 C620 1.331 . S
O613 Mg609 1.986 . S
O613 C630 1.307 . S
O614 Mg603 2.023 . S
O614 C629 1.264 . S
O615 Mg604 1.942 . S
O615 C620 1.244 . S
O616 Mg604 1.955 . S
O616 C629 1.273 . S
O617 Mg606 2.114 . S
O617 Mg608 2.291 . S
O617 C619 1.312 . S
O618 Mg603 2.031 . S
O618 C619 1.208 . S
C619 O617 1.312 . S
C619 O618 1.208 . S
C620 O612 1.331 . S
C620 O615 1.244 . S
O621 Mg606 2.013 . S
O621 C610 1.191 . S
O622 C601 1.331 . S
O622 Mg608 2.081 . S
O623 Mg604 1.986 . S
O623 C610 1.307 . S
O624 C602 1.264 . S
O624 Mg608 2.023 . S
O625 C601 1.244 . S
O625 Mg609 1.942 . S
O626 C602 1.273 . S
O626 Mg609 1.955 . S
O627 C600 1.312 . S
O627 Mg603 2.291 . S
O627 Mg606 2.114 . S
O628 C600 1.208 . S
O628 Mg608 2.031 . S
C629 O614 1.264 . S
C629 O616 1.273 . S
C630 O611 1.191 . S
C630 O613 1.307 . S
C631 O658 1.312 . S
C631 O659 1.208 . S
C632 O653 1.331 . S
C632 O656 1.244 . S
C633 O655 1.264 . S
C633 O657 1.273 . S
Mg634 O636 1.936 . S
Mg634 O643 2.081 . S
Mg634 O645 2.023 . S
Mg634 O649 2.031 . S
Mg634 O658 2.291 . S
Mg635 O636 1.963 . S
Mg635 O646 1.942 . S
Mg635 O647 1.955 . S
Mg635 O654 1.986 . S
O636 Mg634 1.936 . S
O636 Mg635 1.963 . S
O636 Mg637 1.915 . S
Mg637 O636 1.915 . S
Mg637 O638 1.915 . S
Mg637 O642 2.013 . S
Mg637 O648 2.114 . S
Mg637 O652 2.013 . S
Mg637 O658 2.114 . S
O638 Mg637 1.915 . S
O638 Mg639 1.936 . S
O638 Mg640 1.963 . S
Mg639 O638 1.936 . S
Mg639 O648 2.291 . S
Mg639 O653 2.081 . S
Mg639 O655 2.023 . S
Mg639 O659 2.031 . S
Mg640 O638 1.963 . S
Mg640 O644 1.986 . S
Mg640 O656 1.942 . S
Mg640 O657 1.955 . S
C641 O652 1.191 . S
C641 O654 1.307 . S
O642 Mg637 2.013 . S
O642 C661 1.191 . S
O643 Mg634 2.081 . S
O643 C651 1.331 . S
O644 Mg640 1.986 . S
O644 C661 1.307 . S
O645 Mg634 2.023 . S
O645 C660 1.264 . S
O646 Mg635 1.942 . S
O646 C651 1.244 . S
O647 Mg635 1.955 . S
O647 C660 1.273 . S
O648 Mg637 2.114 . S
O648 Mg639 2.291 . S
O648 C650 1.312 . S
O649 Mg634 2.031 . S
O649 C650 1.208 . S
C650 O648 1.312 . S
C650 O649 1.208 . S
C651 O643 1.331 . S
C651 O646 1.244 . S
O652 Mg637 2.013 . S
O652 C641 1.191 . S
O653 C632 1.331 . S
O653 Mg639 2.081 . S
O654 Mg635 1.986 . S
O654 C641 1.307 . S
O655 C633 1.264 . S
O655 Mg639 2.023 . S
O656 C632 1.244 . S
O656 Mg640 1.942 . S
O657 C633 1.273 . S
O657 Mg640 1.955 . S
O658 C631 1.312 . S
O658 Mg634 2.291 . S
O658 Mg637 2.114 . S
O659 C631 1.208 . S
O659 Mg639 2.031 . S
C660 O645 1.264 . S
C660 O647 1.273 . S
C661 O642 1.191 . S
C661 O644 1.307 . S
C662 O689 1.312 . S
C662 O690 1.208 . S
C663 O684 1.331 . S
C663 O687 1.244 . S
C664 O686 1.264 . S
C664 O688 1.273 . S
Mg665 O667 1.936 . S
Mg665 O674 2.081 . S
Mg665 O676 2.023 1_565 S
Mg665 O680 2.031 . S
Mg665 O689 2.291 1_565 S
Mg666 O667 1.963 1_545 S
Mg666 O677 1.942 1_545 S
Mg666 O678 1.955 . S
Mg666 O685 1.986 1_545 S
O667 Mg665 1.936 . S
O667 Mg666 1.963 1_565 S
O667 Mg668 1.915 1_565 S
Mg668 O667 1.915 1_545 S
Mg668 O669 1.915 . S
Mg668 O673 2.013 . S
Mg668 O679 2.114 1_545 S
Mg668 O683 2.013 1_545 S
Mg668 O689 2.114 . S
O669 Mg668 1.915 . S
O669 Mg670 1.936 1_545 S
O669 Mg671 1.963 . S
Mg670 O669 1.936 1_565 S
Mg670 O679 2.291 . S
Mg670 O684 2.081 1_565 S
Mg670 O686 2.023 . S
Mg670 O690 2.031 1_565 S
Mg671 O669 1.963 . S
Mg671 O675 1.986 . S
Mg671 O687 1.942 . S
Mg671 O688 1.955 1_545 S
C672 O683 1.191 . S
C672 O685 1.307 . S
O673 Mg668 2.013 . S
O673 C692 1.191 . S
O674 Mg665 2.081 . S
O674 C682 1.331 . S
O675 Mg671 1.986 . S
O675 C692 1.307 . S
O676 Mg665 2.023 1_545 S
O676 C691 1.264 . S
O677 Mg666 1.942 1_565 S
O677 C682 1.244 . S
O678 Mg666 1.955 . S
O678 C691 1.273 . S
O679 Mg668 2.114 1_565 S
O679 Mg670 2.291 . S
O679 C681 1.312 . S
O680 Mg665 2.031 . S
O680 C681 1.208 . S
C681 O679 1.312 . S
C681 O680 1.208 . S
C682 O674 1.331 . S
C682 O677 1.244 . S
O683 Mg668 2.013 1_565 S
O683 C672 1.191 . S
O684 C663 1.331 . S
O684 Mg670 2.081 1_545 S
O685 Mg666 1.986 1_565 S
O685 C672 1.307 . S
O686 C664 1.264 . S
O686 Mg670 2.023 . S
O687 C663 1.244 . S
O687 Mg671 1.942 . S
O688 C664 1.273 . S
O688 Mg671 1.955 1_565 S
O689 C662 1.312 . S
O689 Mg665 2.291 1_545 S
O689 Mg668 2.114 . S
O690 C662 1.208 . S
O690 Mg670 2.031 1_545 S
C691 O676 1.264 . S
C691 O678 1.273 . S
C692 O673 1.191 . S
C692 O675 1.307 . S
C693 O720 1.312 . S
C693 O721 1.208 . S
C694 O715 1.331 . S
C694 O718 1.244 . S
C695 O717 1.264 . S
C695 O719 1.273 . S
Mg696 O698 1.936 . S
Mg696 O705 2.081 . S
Mg696 O707 2.023 . S
Mg696 O711 2.031 . S
Mg696 O720 2.291 . S
Mg697 O698 1.963 . S
Mg697 O708 1.942 . S
Mg697 O709 1.955 . S
Mg697 O716 1.986 . S
O698 Mg696 1.936 . S
O698 Mg697 1.963 . S
O698 Mg699 1.915 . S
Mg699 O698 1.915 . S
Mg699 O700 1.915 . S
Mg699 O704 2.013 . S
Mg699 O710 2.114 . S
Mg699 O714 2.013 . S
Mg699 O720 2.114 . S
O700 Mg699 1.915 . S
O700 Mg701 1.936 . S
O700 Mg702 1.963 . S
Mg701 O700 1.936 . S
Mg701 O710 2.291 . S
Mg701 O715 2.081 . S
Mg701 O717 2.023 . S
Mg701 O721 2.031 . S
Mg702 O700 1.963 . S
Mg702 O706 1.986 . S
Mg702 O718 1.942 . S
Mg702 O719 1.955 . S
C703 O714 1.191 . S
C703 O716 1.307 . S
O704 Mg699 2.013 . S
O704 C723 1.191 . S
O705 Mg696 2.081 . S
O705 C713 1.331 . S
O706 Mg702 1.986 . S
O706 C723 1.307 . S
O707 Mg696 2.023 . S
O707 C722 1.264 . S
O708 Mg697 1.942 . S
O708 C713 1.244 . S
O709 Mg697 1.955 . S
O709 C722 1.273 . S
O710 Mg699 2.114 . S
O710 Mg701 2.291 . S
O710 C712 1.312 . S
O711 Mg696 2.031 . S
O711 C712 1.208 . S
C712 O710 1.312 . S
C712 O711 1.208 . S
C713 O705 1.331 . S
C713 O708 1.244 . S
O714 Mg699 2.013 . S
O714 C703 1.191 . S
O715 C694 1.331 . S
O715 Mg701 2.081 . S
O716 Mg697 1.986 . S
O716 C703 1.307 . S
O717 C695 1.264 . S
O717 Mg701 2.023 . S
O718 C694 1.244 . S
O718 Mg702 1.942 . S
O719 C695 1.273 . S
O719 Mg702 1.955 . S
O720 C693 1.312 . S
O720 Mg696 2.291 . S
O720 Mg699 2.114 . S
O721 C693 1.208 . S
O721 Mg701 2.031 . S
C722 O707 1.264 . S
C722 O709 1.273 . S
C723 O704 1.191 . S
C723 O706 1.307 . S
H724 C730 0.930 . S
H725 C734 0.930 . S
H726 C739 0.929 . S
H727 C737 0.929 . S
H728 C732 0.929 . S
H729 C738 0.929 . S
C730 H724 0.930 . S
C730 C731 1.367 . S
C730 C738 1.378 . S
C731 C730 1.367 . S
C731 C739 1.433 . S
C732 H728 0.929 . S
C732 C734 1.378 . S
C732 C736 1.350 . S
C733 C736 1.463 . S
C733 C738 1.350 . S
C733 N741 1.427 . S
C734 H725 0.930 . S
C734 C732 1.378 . S
C734 C735 1.367 . S
C735 C734 1.367 . S
C735 C737 1.433 . S
C736 C732 1.350 . S
C736 C733 1.463 . S
C736 N740 1.427 . S
C737 H727 0.929 . S
C737 C735 1.433 . S
C737 N740 1.384 . S
C738 H729 0.929 . S
C738 C730 1.378 . S
C738 C733 1.350 . S
C739 H726 0.929 . S
C739 C731 1.433 . S
C739 N741 1.384 . S
N740 C736 1.427 . S
N740 C737 1.384 . S
N741 C733 1.427 . S
N741 C739 1.384 . S
H742 C748 0.930 . S
H743 C752 0.930 . S
H744 C757 0.929 . S
H745 C755 0.929 . S
H746 C750 0.929 . S
H747 C756 0.929 . S
C748 H742 0.930 . S
C748 C749 1.367 . S
C748 C756 1.378 . S
C749 C748 1.367 . S
C749 C757 1.433 . S
C750 H746 0.929 . S
C750 C752 1.378 . S
C750 C754 1.350 . S
C751 C754 1.463 . S
C751 C756 1.350 . S
C751 N759 1.427 . S
C752 H743 0.930 . S
C752 C750 1.378 . S
C752 C753 1.367 . S
C753 C752 1.367 . S
C753 C755 1.433 . S
C754 C750 1.350 . S
C754 C751 1.463 . S
C754 N758 1.427 . S
C755 H745 0.929 . S
C755 C753 1.433 . S
C755 N758 1.384 . S
C756 H747 0.929 . S
C756 C748 1.378 . S
C756 C751 1.350 . S
C757 H744 0.929 . S
C757 C749 1.433 . S
C757 N759 1.384 . S
N758 C754 1.427 . S
N758 C755 1.384 . S
N759 C751 1.427 . S
N759 C757 1.384 . S
H760 C766 0.930 . S
H761 C770 0.930 . S
H762 C775 0.929 . S
H763 C773 0.929 . S
H764 C768 0.929 . S
H765 C774 0.929 . S
C766 H760 0.930 . S
C766 C767 1.367 . S
C766 C774 1.378 . S
C767 C766 1.367 . S
C767 C775 1.433 . S
C768 H764 0.929 . S
C768 C770 1.378 . S
C768 C772 1.350 . S
C769 C772 1.463 . S
C769 C774 1.350 . S
C769 N777 1.427 . S
C770 H761 0.930 . S
C770 C768 1.378 . S
C770 C771 1.367 . S
C771 C770 1.367 . S
C771 C773 1.433 . S
C772 C768 1.350 . S
C772 C769 1.463 . S
C772 N776 1.427 . S
C773 H763 0.929 . S
C773 C771 1.433 . S
C773 N776 1.384 . S
C774 H765 0.929 . S
C774 C766 1.378 . S
C774 C769 1.350 . S
C775 H762 0.929 . S
C775 C767 1.433 . S
C775 N777 1.384 . S
N776 C772 1.427 . S
N776 C773 1.384 . S
N777 C769 1.427 . S
N777 C775 1.384 . S
H778 C784 0.930 . S
H779 C788 0.930 . S
H780 C793 0.929 . S
H781 C791 0.929 . S
H782 C786 0.929 . S
H783 C792 0.929 . S
C784 H778 0.930 . S
C784 C785 1.367 . S
C784 C792 1.378 . S
C785 C784 1.367 . S
C785 C793 1.433 . S
C786 H782 0.929 . S
C786 C788 1.378 . S
C786 C790 1.350 . S
C787 C790 1.463 . S
C787 C792 1.350 . S
C787 N795 1.427 . S
C788 H779 0.930 . S
C788 C786 1.378 . S
C788 C789 1.367 . S
C789 C788 1.367 . S
C789 C791 1.433 . S
C790 C786 1.350 . S
C790 C787 1.463 . S
C790 N794 1.427 . S
C791 H781 0.929 . S
C791 C789 1.433 . S
C791 N794 1.384 . S
C792 H783 0.929 . S
C792 C784 1.378 . S
C792 C787 1.350 . S
C793 H780 0.929 . S
C793 C785 1.433 . S
C793 N795 1.384 . S
N794 C790 1.427 . S
N794 C791 1.384 . S
N795 C787 1.427 . S
N795 C793 1.384 . S
H796 C802 0.930 . S
H797 C806 0.930 . S
H798 C811 0.929 . S
H799 C809 0.929 . S
H800 C804 0.929 . S
H801 C810 0.929 . S
C802 H796 0.930 . S
C802 C803 1.367 . S
C802 C810 1.378 . S
C803 C802 1.367 . S
C803 C811 1.433 . S
C804 H800 0.929 . S
C804 C806 1.378 . S
C804 C808 1.350 . S
C805 C808 1.463 . S
C805 C810 1.350 . S
C805 N813 1.427 . S
C806 H797 0.930 . S
C806 C804 1.378 . S
C806 C807 1.367 . S
C807 C806 1.367 . S
C807 C809 1.433 . S
C808 C804 1.350 . S
C808 C805 1.463 . S
C808 N812 1.427 . S
C809 H799 0.929 . S
C809 C807 1.433 . S
C809 N812 1.384 . S
C810 H801 0.929 . S
C810 C802 1.378 . S
C810 C805 1.350 . S
C811 H798 0.929 . S
C811 C803 1.433 . S
C811 N813 1.384 . S
N812 C808 1.427 . S
N812 C809 1.384 . S
N813 C805 1.427 . S
N813 C811 1.384 . S
H814 C820 0.930 . S
H815 C824 0.930 . S
H816 C829 0.929 . S
H817 C827 0.929 . S
H818 C822 0.929 . S
H819 C828 0.929 . S
C820 H814 0.930 . S
C820 C821 1.367 . S
C820 C828 1.378 . S
C821 C820 1.367 . S
C821 C829 1.433 . S
C822 H818 0.929 . S
C822 C824 1.378 . S
C822 C826 1.350 . S
C823 C826 1.463 . S
C823 C828 1.350 . S
C823 N831 1.427 . S
C824 H815 0.930 . S
C824 C822 1.378 . S
C824 C825 1.367 . S
C825 C824 1.367 . S
C825 C827 1.433 . S
C826 C822 1.350 . S
C826 C823 1.463 . S
C826 N830 1.427 . S
C827 H817 0.929 . S
C827 C825 1.433 . S
C827 N830 1.384 . S
C828 H819 0.929 . S
C828 C820 1.378 . S
C828 C823 1.350 . S
C829 H816 0.929 . S
C829 C821 1.433 . S
C829 N831 1.384 . S
N830 C826 1.427 . S
N830 C827 1.384 . S
N831 C823 1.427 . S
N831 C829 1.384 . S
H832 C838 0.930 . S
H833 C842 0.930 . S
H834 C847 0.929 . S
H835 C845 0.929 . S
H836 C840 0.929 . S
H837 C846 0.929 . S
C838 H832 0.930 . S
C838 C839 1.367 . S
C838 C846 1.378 . S
C839 C838 1.367 . S
C839 C847 1.433 . S
C840 H836 0.929 . S
C840 C842 1.378 . S
C840 C844 1.350 . S
C841 C844 1.463 . S
C841 C846 1.350 . S
C841 N849 1.427 . S
C842 H833 0.930 . S
C842 C840 1.378 . S
C842 C843 1.367 . S
C843 C842 1.367 . S
C843 C845 1.433 . S
C844 C840 1.350 . S
C844 C841 1.463 . S
C844 N848 1.427 . S
C845 H835 0.929 . S
C845 C843 1.433 . S
C845 N848 1.384 . S
C846 H837 0.929 . S
C846 C838 1.378 . S
C846 C841 1.350 . S
C847 H834 0.929 . S
C847 C839 1.433 . S
C847 N849 1.384 . S
N848 C844 1.427 . S
N848 C845 1.384 . S
N849 C841 1.427 . S
N849 C847 1.384 . S
H850 C856 0.930 . S
H851 C860 0.930 . S
H852 C865 0.929 . S
H853 C863 0.929 . S
H854 C858 0.929 . S
H855 C864 0.929 . S
C856 H850 0.930 . S
C856 C857 1.367 . S
C856 C864 1.378 . S
C857 C856 1.367 . S
C857 C865 1.433 . S
C858 H854 0.929 . S
C858 C860 1.378 . S
C858 C862 1.350 . S
C859 C862 1.463 . S
C859 C864 1.350 . S
C859 N867 1.427 . S
C860 H851 0.930 . S
C860 C858 1.378 . S
C860 C861 1.367 . S
C861 C860 1.367 . S
C861 C863 1.433 . S
C862 C858 1.350 . S
C862 C859 1.463 . S
C862 N866 1.427 . S
C863 H853 0.929 . S
C863 C861 1.433 . S
C863 N866 1.384 . S
C864 H855 0.929 . S
C864 C856 1.378 . S
C864 C859 1.350 . S
C865 H852 0.929 . S
C865 C857 1.433 . S
C865 N867 1.384 . S
N866 C862 1.427 . S
N866 C863 1.384 . S
N867 C859 1.427 . S
N867 C865 1.384 . S
H868 C874 0.930 . S
H869 C878 0.930 . S
H870 C883 0.929 . S
H871 C881 0.929 . S
H872 C876 0.929 . S
H873 C882 0.929 . S
C874 H868 0.930 . S
C874 C875 1.367 . S
C874 C882 1.378 . S
C875 C874 1.367 . S
C875 C883 1.433 . S
C876 H872 0.929 . S
C876 C878 1.378 . S
C876 C880 1.350 . S
C877 C880 1.463 . S
C877 C882 1.350 . S
C877 N885 1.427 . S
C878 H869 0.930 . S
C878 C876 1.378 . S
C878 C879 1.367 . S
C879 C878 1.367 . S
C879 C881 1.433 . S
C880 C876 1.350 . S
C880 C877 1.463 . S
C880 N884 1.427 . S
C881 H871 0.929 . S
C881 C879 1.433 . S
C881 N884 1.384 . S
C882 H873 0.929 . S
C882 C874 1.378 . S
C882 C877 1.350 . S
C883 H870 0.929 . S
C883 C875 1.433 . S
C883 N885 1.384 . S
N884 C880 1.427 . S
N884 C881 1.384 . S
N885 C877 1.427 . S
N885 C883 1.384 . S
H886 C892 0.930 . S
H887 C896 0.930 . S
H888 C901 0.929 . S
H889 C899 0.929 . S
H890 C894 0.929 . S
H891 C900 0.929 . S
C892 H886 0.930 . S
C892 C893 1.367 . S
C892 C900 1.378 . S
C893 C892 1.367 . S
C893 C901 1.433 . S
C894 H890 0.929 . S
C894 C896 1.378 . S
C894 C898 1.350 . S
C895 C898 1.463 . S
C895 C900 1.350 . S
C895 N903 1.427 . S
C896 H887 0.930 . S
C896 C894 1.378 . S
C896 C897 1.367 1_545 S
C897 C896 1.367 1_565 S
C897 C899 1.433 . S
C898 C894 1.350 . S
C898 C895 1.463 . S
C898 N902 1.427 . S
C899 H889 0.929 . S
C899 C897 1.433 . S
C899 N902 1.384 1_565 S
C900 H891 0.929 . S
C900 C892 1.378 . S
C900 C895 1.350 . S
C901 H888 0.929 . S
C901 C893 1.433 . S
C901 N903 1.384 . S
N902 C898 1.427 . S
N902 C899 1.384 1_545 S
N903 C895 1.427 . S
N903 C901 1.384 . S
H904 C910 0.930 . S
H905 C914 0.930 . S
H906 C919 0.929 . S
H907 C917 0.929 . S
H908 C912 0.929 . S
H909 C918 0.929 . S
C910 H904 0.930 . S
C910 C911 1.367 . S
C910 C918 1.378 . S
C911 C910 1.367 . S
C911 C919 1.433 . S
C912 H908 0.929 . S
C912 C914 1.378 . S
C912 C916 1.350 . S
C913 C916 1.463 . S
C913 C918 1.350 . S
C913 N921 1.427 . S
C914 H905 0.930 . S
C914 C912 1.378 . S
C914 C915 1.367 . S
C915 C914 1.367 . S
C915 C917 1.433 . S
C916 C912 1.350 . S
C916 C913 1.463 . S
C916 N920 1.427 . S
C917 H907 0.929 . S
C917 C915 1.433 . S
C917 N920 1.384 . S
C918 H909 0.929 . S
C918 C910 1.378 . S
C918 C913 1.350 . S
C919 H906 0.929 . S
C919 C911 1.433 . S
C919 N921 1.384 . S
N920 C916 1.427 . S
N920 C917 1.384 . S
N921 C913 1.427 . S
N921 C919 1.384 . S
H922 C928 0.930 . S
H923 C932 0.930 . S
H924 C937 0.929 . S
H925 C935 0.929 . S
H926 C930 0.929 . S
H927 C936 0.929 . S
C928 H922 0.930 . S
C928 C929 1.367 . S
C928 C936 1.378 . S
C929 C928 1.367 . S
C929 C937 1.433 . S
C930 H926 0.929 . S
C930 C932 1.378 . S
C930 C934 1.350 . S
C931 C934 1.463 . S
C931 C936 1.350 . S
C931 N939 1.427 . S
C932 H923 0.930 . S
C932 C930 1.378 . S
C932 C933 1.367 . S
C933 C932 1.367 . S
C933 C935 1.433 . S
C934 C930 1.350 . S
C934 C931 1.463 . S
C934 N938 1.427 . S
C935 H925 0.929 . S
C935 C933 1.433 . S
C935 N938 1.384 . S
C936 H927 0.929 . S
C936 C928 1.378 . S
C936 C931 1.350 . S
C937 H924 0.929 . S
C937 C929 1.433 . S
C937 N939 1.384 . S
N938 C934 1.427 . S
N938 C935 1.384 . S
N939 C931 1.427 . S
N939 C937 1.384 . S
H940 C946 0.930 . S
H941 C950 0.930 . S
H942 C955 0.929 . S
H943 C953 0.929 . S
H944 C948 0.929 . S
H945 C954 0.929 . S
C946 H940 0.930 . S
C946 C947 1.367 . S
C946 C954 1.378 . S
C947 C946 1.367 . S
C947 C955 1.433 . S
C948 H944 0.929 . S
C948 C950 1.378 . S
C948 C952 1.350 . S
C949 C952 1.463 . S
C949 C954 1.350 . S
C949 N957 1.427 . S
C950 H941 0.930 . S
C950 C948 1.378 . S
C950 C951 1.367 . S
C951 C950 1.367 . S
C951 C953 1.433 . S
C952 C948 1.350 . S
C952 C949 1.463 . S
C952 N956 1.427 . S
C953 H943 0.929 . S
C953 C951 1.433 . S
C953 N956 1.384 . S
C954 H945 0.929 . S
C954 C946 1.378 . S
C954 C949 1.350 . S
C955 H942 0.929 . S
C955 C947 1.433 . S
C955 N957 1.384 . S
N956 C952 1.427 . S
N956 C953 1.384 . S
N957 C949 1.427 . S
N957 C955 1.384 . S
H958 C964 0.930 . S
H959 C968 0.930 . S
H960 C973 0.929 . S
H961 C971 0.929 1_565 S
H962 C966 0.929 . S
H963 C972 0.929 . S
C964 H958 0.930 . S
C964 C965 1.367 . S
C964 C972 1.378 . S
C965 C964 1.367 . S
C965 C973 1.433 . S
C966 H962 0.929 . S
C966 C968 1.378 . S
C966 C970 1.350 . S
C967 C970 1.463 . S
C967 C972 1.350 . S
C967 N975 1.427 . S
C968 H959 0.930 . S
C968 C966 1.378 . S
C968 C969 1.367 1_545 S
C969 C968 1.367 1_565 S
C969 C971 1.433 1_565 S
C970 C966 1.350 . S
C970 C967 1.463 . S
C970 N974 1.427 . S
C971 H961 0.929 1_545 S
C971 C969 1.433 1_545 S
C971 N974 1.384 . S
C972 H963 0.929 . S
C972 C964 1.378 . S
C972 C967 1.350 . S
C973 H960 0.929 . S
C973 C965 1.433 . S
C973 N975 1.384 . S
N974 C970 1.427 . S
N974 C971 1.384 . S
N975 C967 1.427 . S
N975 C973 1.384 . S
H976 C982 0.930 . S
H977 C986 0.930 . S
H978 C991 0.929 . S
H979 C989 0.929 . S
H980 C984 0.929 . S
H981 C990 0.929 . S
C982 H976 0.930 . S
C982 C983 1.367 . S
C982 C990 1.378 . S
C983 C982 1.367 . S
C983 C991 1.433 . S
C984 H980 0.929 . S
C984 C986 1.378 . S
C984 C988 1.350 . S
C985 C988 1.463 . S
C985 C990 1.350 . S
C985 N993 1.427 . S
C986 H977 0.930 . S
C986 C984 1.378 . S
C986 C987 1.367 . S
C987 C986 1.367 . S
C987 C989 1.433 . S
C988 C984 1.350 . S
C988 C985 1.463 . S
C988 N992 1.427 . S
C989 H979 0.929 . S
C989 C987 1.433 . S
C989 N992 1.384 . S
C990 H981 0.929 . S
C990 C982 1.378 . S
C990 C985 1.350 . S
C991 H978 0.929 . S
C991 C983 1.433 . S
C991 N993 1.384 . S
N992 C988 1.427 . S
N992 C989 1.384 . S
N993 C985 1.427 . S
N993 C991 1.384 . S
H994 C1000 0.930 . S
H995 C1004 0.930 . S
H996 C1009 0.929 . S
H997 C1007 0.929 . S
H998 C1002 0.929 . S
H999 C1008 0.929 . S
C1000 H994 0.930 . S
C1000 C1001 1.367 . S
C1000 C1008 1.378 . S
C1001 C1000 1.367 . S
C1001 C1009 1.433 . S
C1002 H998 0.929 . S
C1002 C1004 1.378 . S
C1002 C1006 1.350 . S
C1003 C1006 1.463 . S
C1003 C1008 1.350 . S
C1003 N1011 1.427 . S
C1004 H995 0.930 . S
C1004 C1002 1.378 . S
C1004 C1005 1.367 . S
C1005 C1004 1.367 . S
C1005 C1007 1.433 . S
C1006 C1002 1.350 . S
C1006 C1003 1.463 . S
C1006 N1010 1.427 . S
C1007 H997 0.929 . S
C1007 C1005 1.433 . S
C1007 N1010 1.384 . S
C1008 H999 0.929 . S
C1008 C1000 1.378 . S
C1008 C1003 1.350 . S
C1009 H996 0.929 . S
C1009 C1001 1.433 . S
C1009 N1011 1.384 . S
N1010 C1006 1.427 . S
N1010 C1007 1.384 . S
N1011 C1003 1.427 . S
N1011 C1009 1.384 . S
H1012 C1018 0.930 . S
H1013 C1022 0.930 . S
H1014 C1027 0.929 . S
H1015 C1025 0.929 . S
H1016 C1020 0.929 . S
H1017 C1026 0.929 . S
C1018 H1012 0.930 . S
C1018 C1019 1.367 . S
C1018 C1026 1.378 . S
C1019 C1018 1.367 . S
C1019 C1027 1.433 . S
C1020 H1016 0.929 . S
C1020 C1022 1.378 . S
C1020 C1024 1.350 . S
C1021 C1024 1.463 . S
C1021 C1026 1.350 . S
C1021 N1029 1.427 . S
C1022 H1013 0.930 . S
C1022 C1020 1.378 . S
C1022 C1023 1.367 . S
C1023 C1022 1.367 . S
C1023 C1025 1.433 . S
C1024 C1020 1.350 . S
C1024 C1021 1.463 . S
C1024 N1028 1.427 . S
C1025 H1015 0.929 . S
C1025 C1023 1.433 . S
C1025 N1028 1.384 . S
C1026 H1017 0.929 . S
C1026 C1018 1.378 . S
C1026 C1021 1.350 . S
C1027 H1014 0.929 . S
C1027 C1019 1.433 . S
C1027 N1029 1.384 . S
N1028 C1024 1.427 . S
N1028 C1025 1.384 . S
N1029 C1021 1.427 . S
N1029 C1027 1.384 . S
H1030 C1036 0.930 . S
H1031 C1040 0.930 . S
H1032 C1045 0.929 . S
H1033 C1043 0.929 . S
H1034 C1038 0.929 . S
H1035 C1044 0.929 . S
C1036 H1030 0.930 . S
C1036 C1037 1.367 . S
C1036 C1044 1.378 . S
C1037 C1036 1.367 . S
C1037 C1045 1.433 . S
C1038 H1034 0.929 . S
C1038 C1040 1.378 . S
C1038 C1042 1.350 . S
C1039 C1042 1.463 . S
C1039 C1044 1.350 . S
C1039 N1047 1.427 . S
C1040 H1031 0.930 . S
C1040 C1038 1.378 . S
C1040 C1041 1.367 . S
C1041 C1040 1.367 . S
C1041 C1043 1.433 . S
C1042 C1038 1.350 . S
C1042 C1039 1.463 . S
C1042 N1046 1.427 . S
C1043 H1033 0.929 . S
C1043 C1041 1.433 . S
C1043 N1046 1.384 . S
C1044 H1035 0.929 . S
C1044 C1036 1.378 . S
C1044 C1039 1.350 . S
C1045 H1032 0.929 . S
C1045 C1037 1.433 . S
C1045 N1047 1.384 . S
N1046 C1042 1.427 . S
N1046 C1043 1.384 . S
N1047 C1039 1.427 . S
N1047 C1045 1.384 . S
H1048 C1054 0.930 . S
H1049 C1058 0.930 . S
H1050 C1063 0.929 . S
H1051 C1061 0.929 . S
H1052 C1056 0.929 . S
H1053 C1062 0.929 . S
C1054 H1048 0.930 . S
C1054 C1055 1.367 . S
C1054 C1062 1.378 . S
C1055 C1054 1.367 . S
C1055 C1063 1.433 . S
C1056 H1052 0.929 . S
C1056 C1058 1.378 . S
C1056 C1060 1.350 . S
C1057 C1060 1.463 . S
C1057 C1062 1.350 . S
C1057 N1065 1.427 . S
C1058 H1049 0.930 . S
C1058 C1056 1.378 . S
C1058 C1059 1.367 . S
C1059 C1058 1.367 . S
C1059 C1061 1.433 . S
C1060 C1056 1.350 . S
C1060 C1057 1.463 . S
C1060 N1064 1.427 . S
C1061 H1051 0.929 . S
C1061 C1059 1.433 . S
C1061 N1064 1.384 . S
C1062 H1053 0.929 . S
C1062 C1054 1.378 . S
C1062 C1057 1.350 . S
C1063 H1050 0.929 . S
C1063 C1055 1.433 . S
C1063 N1065 1.384 . S
N1064 C1060 1.427 . S
N1064 C1061 1.384 . S
N1065 C1057 1.427 . S
N1065 C1063 1.384 . S
H1066 C1072 0.930 . S
H1067 C1076 0.930 . S
H1068 C1081 0.929 . S
H1069 C1079 0.929 . S
H1070 C1074 0.929 . S
H1071 C1080 0.929 . S
C1072 H1066 0.930 . S
C1072 C1073 1.367 . S
C1072 C1080 1.378 . S
C1073 C1072 1.367 . S
C1073 C1081 1.433 . S
C1074 H1070 0.929 . S
C1074 C1076 1.378 . S
C1074 C1078 1.350 . S
C1075 C1078 1.463 . S
C1075 C1080 1.350 . S
C1075 N1083 1.427 . S
C1076 H1067 0.930 . S
C1076 C1074 1.378 . S
C1076 C1077 1.367 . S
C1077 C1076 1.367 . S
C1077 C1079 1.433 . S
C1078 C1074 1.350 . S
C1078 C1075 1.463 . S
C1078 N1082 1.427 . S
C1079 H1069 0.929 . S
C1079 C1077 1.433 . S
C1079 N1082 1.384 . S
C1080 H1071 0.929 . S
C1080 C1072 1.378 . S
C1080 C1075 1.350 . S
C1081 H1068 0.929 . S
C1081 C1073 1.433 . S
C1081 N1083 1.384 . S
N1082 C1078 1.427 . S
N1082 C1079 1.384 . S
N1083 C1075 1.427 . S
N1083 C1081 1.384 . S
H1084 C1090 0.930 . S
H1085 C1094 0.930 . S
H1086 C1099 0.929 . S
H1087 C1097 0.929 . S
H1088 C1092 0.929 . S
H1089 C1098 0.929 . S
C1090 H1084 0.930 . S
C1090 C1091 1.367 . S
C1090 C1098 1.378 . S
C1091 C1090 1.367 . S
C1091 C1099 1.433 . S
C1092 H1088 0.929 . S
C1092 C1094 1.378 1_655 S
C1092 C1096 1.350 . S
C1093 C1096 1.463 . S
C1093 C1098 1.350 . S
C1093 N1101 1.427 . S
C1094 H1085 0.930 . S
C1094 C1092 1.378 1_455 S
C1094 C1095 1.367 . S
C1095 C1094 1.367 . S
C1095 C1097 1.433 1_455 S
C1096 C1092 1.350 . S
C1096 C1093 1.463 . S
C1096 N1100 1.427 . S
C1097 H1087 0.929 . S
C1097 C1095 1.433 1_655 S
C1097 N1100 1.384 . S
C1098 H1089 0.929 . S
C1098 C1090 1.378 . S
C1098 C1093 1.350 . S
C1099 H1086 0.929 . S
C1099 C1091 1.433 . S
C1099 N1101 1.384 . S
N1100 C1096 1.427 . S
N1100 C1097 1.384 . S
N1101 C1093 1.427 . S
N1101 C1099 1.384 . S
H1102 C1108 0.930 . S
H1103 C1112 0.930 . S
H1104 C1117 0.929 . S
H1105 C1115 0.929 . S
H1106 C1110 0.929 . S
H1107 C1116 0.929 . S
C1108 H1102 0.930 . S
C1108 C1109 1.367 . S
C1108 C1116 1.378 . S
C1109 C1108 1.367 . S
C1109 C1117 1.433 . S
C1110 H1106 0.929 . S
C1110 C1112 1.378 . S
C1110 C1114 1.350 . S
C1111 C1114 1.463 . S
C1111 C1116 1.350 . S
C1111 N1119 1.427 . S
C1112 H1103 0.930 . S
C1112 C1110 1.378 . S
C1112 C1113 1.367 . S
C1113 C1112 1.367 . S
C1113 C1115 1.433 . S
C1114 C1110 1.350 . S
C1114 C1111 1.463 . S
C1114 N1118 1.427 . S
C1115 H1105 0.929 . S
C1115 C1113 1.433 . S
C1115 N1118 1.384 . S
C1116 H1107 0.929 . S
C1116 C1108 1.378 . S
C1116 C1111 1.350 . S
C1117 H1104 0.929 . S
C1117 C1109 1.433 . S
C1117 N1119 1.384 . S
N1118 C1114 1.427 . S
N1118 C1115 1.384 . S
N1119 C1111 1.427 . S
N1119 C1117 1.384 . S
H1120 C1126 0.930 . S
H1121 C1130 0.930 . S
H1122 C1135 0.929 . S
H1123 C1133 0.929 . S
H1124 C1128 0.929 . S
H1125 C1134 0.929 . S
C1126 H1120 0.930 . S
C1126 C1127 1.367 . S
C1126 C1134 1.378 . S
C1127 C1126 1.367 . S
C1127 C1135 1.433 . S
C1128 H1124 0.929 . S
C1128 C1130 1.378 . S
C1128 C1132 1.350 . S
C1129 C1132 1.463 . S
C1129 C1134 1.350 . S
C1129 N1137 1.427 . S
C1130 H1121 0.930 . S
C1130 C1128 1.378 . S
C1130 C1131 1.367 . S
C1131 C1130 1.367 . S
C1131 C1133 1.433 . S
C1132 C1128 1.350 . S
C1132 C1129 1.463 . S
C1132 N1136 1.427 . S
C1133 H1123 0.929 . S
C1133 C1131 1.433 . S
C1133 N1136 1.384 . S
C1134 H1125 0.929 . S
C1134 C1126 1.378 . S
C1134 C1129 1.350 . S
C1135 H1122 0.929 . S
C1135 C1127 1.433 . S
C1135 N1137 1.384 . S
N1136 C1132 1.427 . S
N1136 C1133 1.384 . S
N1137 C1129 1.427 . S
N1137 C1135 1.384 . S
H1138 C1144 0.930 . S
H1139 C1148 0.930 . S
H1140 C1153 0.929 . S
H1141 C1151 0.929 . S
H1142 C1146 0.929 . S
H1143 C1152 0.929 . S
C1144 H1138 0.930 . S
C1144 C1145 1.367 . S
C1144 C1152 1.378 . S
C1145 C1144 1.367 . S
C1145 C1153 1.433 . S
C1146 H1142 0.929 . S
C1146 C1148 1.378 . S
C1146 C1150 1.350 . S
C1147 C1150 1.463 . S
C1147 C1152 1.350 . S
C1147 N1155 1.427 . S
C1148 H1139 0.930 . S
C1148 C1146 1.378 . S
C1148 C1149 1.367 . S
C1149 C1148 1.367 . S
C1149 C1151 1.433 . S
C1150 C1146 1.350 . S
C1150 C1147 1.463 . S
C1150 N1154 1.427 . S
C1151 H1141 0.929 . S
C1151 C1149 1.433 . S
C1151 N1154 1.384 . S
C1152 H1143 0.929 . S
C1152 C1144 1.378 . S
C1152 C1147 1.350 . S
C1153 H1140 0.929 . S
C1153 C1145 1.433 . S
C1153 N1155 1.384 . S
N1154 C1150 1.427 . S
N1154 C1151 1.384 . S
N1155 C1147 1.427 . S
N1155 C1153 1.384 . S
H1156 C1162 0.930 . S
H1157 C1166 0.930 . S
H1158 C1171 0.929 . S
H1159 C1169 0.929 . S
H1160 C1164 0.929 . S
H1161 C1170 0.929 . S
C1162 H1156 0.930 . S
C1162 C1163 1.367 . S
C1162 C1170 1.378 . S
C1163 C1162 1.367 . S
C1163 C1171 1.433 . S
C1164 H1160 0.929 . S
C1164 C1166 1.378 . S
C1164 C1168 1.350 . S
C1165 C1168 1.463 . S
C1165 C1170 1.350 . S
C1165 N1173 1.427 . S
C1166 H1157 0.930 . S
C1166 C1164 1.378 . S
C1166 C1167 1.367 . S
C1167 C1166 1.367 . S
C1167 C1169 1.433 . S
C1168 C1164 1.350 . S
C1168 C1165 1.463 . S
C1168 N1172 1.427 . S
C1169 H1159 0.929 . S
C1169 C1167 1.433 . S
C1169 N1172 1.384 . S
C1170 H1161 0.929 . S
C1170 C1162 1.378 . S
C1170 C1165 1.350 . S
C1171 H1158 0.929 . S
C1171 C1163 1.433 . S
C1171 N1173 1.384 . S
N1172 C1168 1.427 . S
N1172 C1169 1.384 . S
N1173 C1165 1.427 . S
N1173 C1171 1.384 . S
H1174 C1180 0.930 . S
H1175 C1184 0.930 1_556 S
H1176 C1189 0.929 . S
H1177 C1187 0.929 . S
H1178 C1182 0.929 . S
H1179 C1188 0.929 . S
C1180 H1174 0.930 . S
C1180 C1181 1.367 . S
C1180 C1188 1.378 . S
C1181 C1180 1.367 . S
C1181 C1189 1.433 . S
C1182 H1178 0.929 . S
C1182 C1184 1.378 . S
C1182 C1186 1.350 . S
C1183 C1186 1.463 . S
C1183 C1188 1.350 . S
C1183 N1191 1.427 . S
C1184 H1175 0.930 1_554 S
C1184 C1182 1.378 . S
C1184 C1185 1.367 1_554 S
C1185 C1184 1.367 1_556 S
C1185 C1187 1.433 1_556 S
C1186 C1182 1.350 . S
C1186 C1183 1.463 . S
C1186 N1190 1.427 . S
C1187 H1177 0.929 . S
C1187 C1185 1.433 1_554 S
C1187 N1190 1.384 . S
C1188 H1179 0.929 . S
C1188 C1180 1.378 . S
C1188 C1183 1.350 . S
C1189 H1176 0.929 . S
C1189 C1181 1.433 . S
C1189 N1191 1.384 . S
N1190 C1186 1.427 . S
N1190 C1187 1.384 . S
N1191 C1183 1.427 . S
N1191 C1189 1.384 . S
H1192 C1198 0.930 . S
H1193 C1202 0.930 . S
H1194 C1207 0.929 . S
H1195 C1205 0.929 . S
H1196 C1200 0.929 . S
H1197 C1206 0.929 . S
C1198 H1192 0.930 . S
C1198 C1199 1.367 . S
C1198 C1206 1.378 . S
C1199 C1198 1.367 . S
C1199 C1207 1.433 . S
C1200 H1196 0.929 . S
C1200 C1202 1.378 . S
C1200 C1204 1.350 . S
C1201 C1204 1.463 . S
C1201 C1206 1.350 . S
C1201 N1209 1.427 . S
C1202 H1193 0.930 . S
C1202 C1200 1.378 . S
C1202 C1203 1.367 . S
C1203 C1202 1.367 . S
C1203 C1205 1.433 . S
C1204 C1200 1.350 . S
C1204 C1201 1.463 . S
C1204 N1208 1.427 . S
C1205 H1195 0.929 . S
C1205 C1203 1.433 . S
C1205 N1208 1.384 . S
C1206 H1197 0.929 . S
C1206 C1198 1.378 . S
C1206 C1201 1.350 . S
C1207 H1194 0.929 . S
C1207 C1199 1.433 . S
C1207 N1209 1.384 . S
N1208 C1204 1.427 . S
N1208 C1205 1.384 . S
N1209 C1201 1.427 . S
N1209 C1207 1.384 . S
H1210 C1216 0.930 . S
H1211 C1220 0.928 . S
H1212 C1225 0.929 . S
H1213 C1223 0.929 1_556 S
H1214 C1218 0.929 . S
H1215 C1224 0.929 . S
C1216 H1210 0.930 . S
C1216 C1217 1.367 . S
C1216 C1224 1.378 . S
C1217 C1216 1.367 . S
C1217 C1225 1.433 . S
C1218 H1214 0.929 . S
C1218 C1220 1.381 1_554 S
C1218 C1222 1.350 . S
C1219 C1222 1.463 . S
C1219 C1224 1.350 . S
C1219 N1227 1.427 . S
C1220 H1211 0.928 . S
C1220 C1218 1.381 1_556 S
C1220 C1221 1.365 . S
C1221 C1220 1.365 . S
C1221 C1223 1.433 1_556 S
C1222 C1218 1.350 . S
C1222 C1219 1.463 . S
C1222 N1226 1.427 . S
C1223 H1213 0.929 1_554 S
C1223 C1221 1.433 1_554 S
C1223 N1226 1.384 . S
C1224 H1215 0.929 . S
C1224 C1216 1.378 . S
C1224 C1219 1.350 . S
C1225 H1212 0.929 . S
C1225 C1217 1.433 . S
C1225 N1227 1.384 . S
N1226 C1222 1.427 . S
N1226 C1223 1.384 . S
N1227 C1219 1.427 . S
N1227 C1225 1.384 . S
H1228 C1234 0.930 . S
H1229 C1238 0.930 . S
H1230 C1243 0.929 . S
H1231 C1241 0.929 . S
H1232 C1236 0.929 . S
H1233 C1242 0.929 . S
C1234 H1228 0.930 . S
C1234 C1235 1.367 . S
C1234 C1242 1.378 . S
C1235 C1234 1.367 . S
C1235 C1243 1.433 . S
C1236 H1232 0.929 . S
C1236 C1238 1.378 . S
C1236 C1240 1.350 . S
C1237 C1240 1.463 . S
C1237 C1242 1.350 . S
C1237 N1245 1.427 . S
C1238 H1229 0.930 . S
C1238 C1236 1.378 . S
C1238 C1239 1.367 . S
C1239 C1238 1.367 . S
C1239 C1241 1.433 . S
C1240 C1236 1.350 . S
C1240 C1237 1.463 . S
C1240 N1244 1.427 . S
C1241 H1231 0.929 . S
C1241 C1239 1.433 . S
C1241 N1244 1.384 . S
C1242 H1233 0.929 . S
C1242 C1234 1.378 . S
C1242 C1237 1.350 . S
C1243 H1230 0.929 . S
C1243 C1235 1.433 . S
C1243 N1245 1.384 . S
N1244 C1240 1.427 . S
N1244 C1241 1.384 . S
N1245 C1237 1.427 . S
N1245 C1243 1.384 . S
H1246 C1252 0.930 . S
H1247 C1256 0.930 . S
H1248 C1261 0.929 . S
H1249 C1259 0.928 1_554 S
H1250 C1254 0.929 . S
H1251 C1260 0.929 . S
C1252 H1246 0.930 . S
C1252 C1253 1.367 . S
C1252 C1260 1.378 . S
C1253 C1252 1.367 . S
C1253 C1261 1.433 . S
C1254 H1250 0.929 . S
C1254 C1256 1.378 1_556 S
C1254 C1258 1.350 . S
C1255 C1258 1.463 . S
C1255 C1260 1.350 . S
C1255 N1263 1.427 . S
C1256 H1247 0.930 . S
C1256 C1254 1.378 1_554 S
C1256 C1257 1.367 . S
C1257 C1256 1.367 . S
C1257 C1259 1.433 1_554 S
C1258 C1254 1.350 . S
C1258 C1255 1.463 . S
C1258 N1262 1.427 . S
C1259 H1249 0.928 1_556 S
C1259 C1257 1.433 1_556 S
C1259 N1262 1.384 . S
C1260 H1251 0.929 . S
C1260 C1252 1.378 . S
C1260 C1255 1.350 . S
C1261 H1248 0.929 . S
C1261 C1253 1.433 . S
C1261 N1263 1.384 . S
N1262 C1258 1.427 . S
N1262 C1259 1.384 . S
N1263 C1255 1.427 . S
N1263 C1261 1.384 . S
H1264 C1270 0.930 . S
H1265 C1274 0.930 . S
H1266 C1279 0.929 . S
H1267 C1277 0.929 . S
H1268 C1272 0.929 . S
H1269 C1278 0.929 . S
C1270 H1264 0.930 . S
C1270 C1271 1.367 . S
C1270 C1278 1.378 . S
C1271 C1270 1.367 . S
C1271 C1279 1.433 . S
C1272 H1268 0.929 . S
C1272 C1274 1.378 . S
C1272 C1276 1.350 . S
C1273 C1276 1.463 . S
C1273 C1278 1.350 . S
C1273 N1281 1.427 . S
C1274 H1265 0.930 . S
C1274 C1272 1.378 . S
C1274 C1275 1.367 . S
C1275 C1274 1.367 . S
C1275 C1277 1.433 . S
C1276 C1272 1.350 . S
C1276 C1273 1.463 . S
C1276 N1280 1.427 . S
C1277 H1267 0.929 . S
C1277 C1275 1.433 . S
C1277 N1280 1.384 . S
C1278 H1269 0.929 . S
C1278 C1270 1.378 . S
C1278 C1273 1.350 . S
C1279 H1266 0.929 . S
C1279 C1271 1.433 . S
C1279 N1281 1.384 . S
N1280 C1276 1.427 . S
N1280 C1277 1.384 . S
N1281 C1273 1.427 . S
N1281 C1279 1.384 . S
H1282 C1288 0.930 . S
H1283 C1292 0.930 . S
H1284 C1297 0.929 . S
H1285 C1295 0.929 . S
H1286 C1290 0.929 . S
H1287 C1296 0.929 . S
C1288 H1282 0.930 . S
C1288 C1289 1.367 . S
C1288 C1296 1.378 . S
C1289 C1288 1.367 . S
C1289 C1297 1.433 . S
C1290 H1286 0.929 . S
C1290 C1292 1.378 . S
C1290 C1294 1.350 . S
C1291 C1294 1.463 . S
C1291 C1296 1.350 . S
C1291 N1299 1.427 . S
C1292 H1283 0.930 . S
C1292 C1290 1.378 . S
C1292 C1293 1.367 1_556 S
C1293 C1292 1.367 1_554 S
C1293 C1295 1.433 . S
C1294 C1290 1.350 . S
C1294 C1291 1.463 . S
C1294 N1298 1.427 . S
C1295 H1285 0.929 . S
C1295 C1293 1.433 . S
C1295 N1298 1.384 1_554 S
C1296 H1287 0.929 . S
C1296 C1288 1.378 . S
C1296 C1291 1.350 . S
C1297 H1284 0.929 . S
C1297 C1289 1.433 . S
C1297 N1299 1.384 . S
N1298 C1294 1.427 . S
N1298 C1295 1.384 1_556 S
N1299 C1291 1.427 . S
N1299 C1297 1.384 . S
H1300 C1306 0.930 . S
H1301 C1310 0.930 . S
H1302 C1315 0.929 . S
H1303 C1313 0.929 . S
H1304 C1308 0.929 . S
H1305 C1314 0.929 . S
C1306 H1300 0.930 . S
C1306 C1307 1.367 . S
C1306 C1314 1.378 . S
C1307 C1306 1.367 . S
C1307 C1315 1.433 . S
C1308 H1304 0.929 . S
C1308 C1310 1.378 . S
C1308 C1312 1.350 . S
C1309 C1312 1.463 . S
C1309 C1314 1.350 . S
C1309 N1317 1.427 . S
C1310 H1301 0.930 . S
C1310 C1308 1.378 . S
C1310 C1311 1.367 . S
C1311 C1310 1.367 . S
C1311 C1313 1.433 . S
C1312 C1308 1.350 . S
C1312 C1309 1.463 . S
C1312 N1316 1.427 . S
C1313 H1303 0.929 . S
C1313 C1311 1.433 . S
C1313 N1316 1.384 . S
C1314 H1305 0.929 . S
C1314 C1306 1.378 . S
C1314 C1309 1.350 . S
C1315 H1302 0.929 . S
C1315 C1307 1.433 . S
C1315 N1317 1.384 . S
N1316 C1312 1.427 . S
N1316 C1313 1.384 . S
N1317 C1309 1.427 . S
N1317 C1315 1.384 . S
H1318 C1324 0.930 . S
H1319 C1328 0.930 . S
H1320 C1333 0.929 . S
H1321 C1331 0.929 . S
H1322 C1326 0.929 . S
H1323 C1332 0.929 . S
C1324 H1318 0.930 . S
C1324 C1325 1.367 . S
C1324 C1332 1.378 . S
C1325 C1324 1.367 . S
C1325 C1333 1.433 . S
C1326 H1322 0.929 . S
C1326 C1328 1.378 . S
C1326 C1330 1.350 . S
C1327 C1330 1.463 . S
C1327 C1332 1.350 . S
C1327 N1335 1.427 . S
C1328 H1319 0.930 . S
C1328 C1326 1.378 . S
C1328 C1329 1.367 . S
C1329 C1328 1.367 . S
C1329 C1331 1.433 . S
C1330 C1326 1.350 . S
C1330 C1327 1.463 . S
C1330 N1334 1.427 . S
C1331 H1321 0.929 . S
C1331 C1329 1.433 . S
C1331 N1334 1.384 . S
C1332 H1323 0.929 . S
C1332 C1324 1.378 . S
C1332 C1327 1.350 . S
C1333 H1320 0.929 . S
C1333 C1325 1.433 . S
C1333 N1335 1.384 . S
N1334 C1330 1.427 . S
N1334 C1331 1.384 . S
N1335 C1327 1.427 . S
N1335 C1333 1.384 . S
H1336 C1342 0.930 . S
H1337 C1346 0.930 . S
H1338 C1351 0.929 . S
H1339 C1349 0.929 . S
H1340 C1344 0.929 . S
H1341 C1350 0.929 . S
C1342 H1336 0.930 . S
C1342 C1343 1.367 . S
C1342 C1350 1.378 . S
C1343 C1342 1.367 . S
C1343 C1351 1.433 . S
C1344 H1340 0.929 . S
C1344 C1346 1.378 . S
C1344 C1348 1.350 . S
C1345 C1348 1.463 . S
C1345 C1350 1.350 . S
C1345 N1353 1.427 . S
C1346 H1337 0.930 . S
C1346 C1344 1.378 . S
C1346 C1347 1.367 . S
C1347 C1346 1.367 . S
C1347 C1349 1.433 . S
C1348 C1344 1.350 . S
C1348 C1345 1.463 . S
C1348 N1352 1.427 . S
C1349 H1339 0.929 . S
C1349 C1347 1.433 . S
C1349 N1352 1.384 . S
C1350 H1341 0.929 . S
C1350 C1342 1.378 . S
C1350 C1345 1.350 . S
C1351 H1338 0.929 . S
C1351 C1343 1.433 . S
C1351 N1353 1.384 . S
N1352 C1348 1.427 . S
N1352 C1349 1.384 . S
N1353 C1345 1.427 . S
N1353 C1351 1.384 . S
H1354 C1360 0.930 . S
H1355 C1364 0.930 . S
H1356 C1369 0.929 . S
H1357 C1367 0.929 . S
H1358 C1362 0.929 . S
H1359 C1368 0.929 . S
C1360 H1354 0.930 . S
C1360 C1361 1.367 . S
C1360 C1368 1.378 . S
C1361 C1360 1.367 . S
C1361 C1369 1.433 . S
C1362 H1358 0.929 . S
C1362 C1364 1.378 . S
C1362 C1366 1.350 . S
C1363 C1366 1.463 . S
C1363 C1368 1.350 . S
C1363 N1371 1.427 . S
C1364 H1355 0.930 . S
C1364 C1362 1.378 . S
C1364 C1365 1.367 1_565 S
C1365 C1364 1.367 1_545 S
C1365 C1367 1.433 . S
C1366 C1362 1.350 . S
C1366 C1363 1.463 . S
C1366 N1370 1.427 . S
C1367 H1357 0.929 . S
C1367 C1365 1.433 . S
C1367 N1370 1.384 1_545 S
C1368 H1359 0.929 . S
C1368 C1360 1.378 . S
C1368 C1363 1.350 . S
C1369 H1356 0.929 . S
C1369 C1361 1.433 . S
C1369 N1371 1.384 . S
N1370 C1366 1.427 . S
N1370 C1367 1.384 1_565 S
N1371 C1363 1.427 . S
N1371 C1369 1.384 . S
H1372 C1378 0.930 . S
H1373 C1382 0.930 . S
H1374 C1387 0.929 . S
H1375 C1385 0.929 . S
H1376 C1380 0.929 . S
H1377 C1386 0.929 . S
C1378 H1372 0.930 . S
C1378 C1379 1.367 . S
C1378 C1386 1.378 . S
C1379 C1378 1.367 . S
C1379 C1387 1.433 . S
C1380 H1376 0.929 . S
C1380 C1382 1.378 . S
C1380 C1384 1.350 . S
C1381 C1384 1.463 . S
C1381 C1386 1.350 . S
C1381 N1389 1.427 . S
C1382 H1373 0.930 . S
C1382 C1380 1.378 . S
C1382 C1383 1.367 . S
C1383 C1382 1.367 . S
C1383 C1385 1.433 . S
C1384 C1380 1.350 . S
C1384 C1381 1.463 . S
C1384 N1388 1.427 . S
C1385 H1375 0.929 . S
C1385 C1383 1.433 . S
C1385 N1388 1.384 . S
C1386 H1377 0.929 . S
C1386 C1378 1.378 . S
C1386 C1381 1.350 . S
C1387 H1374 0.929 . S
C1387 C1379 1.433 . S
C1387 N1389 1.384 . S
N1388 C1384 1.427 . S
N1388 C1385 1.384 . S
N1389 C1381 1.427 . S
N1389 C1387 1.384 . S
H1390 C1396 0.930 . S
H1391 C1400 0.930 . S
H1392 C1405 0.929 . S
H1393 C1403 0.929 . S
H1394 C1398 0.929 . S
H1395 C1404 0.929 . S
C1396 H1390 0.930 . S
C1396 C1397 1.367 . S
C1396 C1404 1.378 . S
C1397 C1396 1.367 . S
C1397 C1405 1.433 . S
C1398 H1394 0.929 . S
C1398 C1400 1.378 . S
C1398 C1402 1.350 . S
C1399 C1402 1.463 . S
C1399 C1404 1.350 . S
C1399 N1407 1.427 . S
C1400 H1391 0.930 . S
C1400 C1398 1.378 . S
C1400 C1401 1.367 . S
C1401 C1400 1.367 . S
C1401 C1403 1.433 . S
C1402 C1398 1.350 . S
C1402 C1399 1.463 . S
C1402 N1406 1.427 . S
C1403 H1393 0.929 . S
C1403 C1401 1.433 . S
C1403 N1406 1.384 . S
C1404 H1395 0.929 . S
C1404 C1396 1.378 . S
C1404 C1399 1.350 . S
C1405 H1392 0.929 . S
C1405 C1397 1.433 . S
C1405 N1407 1.384 . S
N1406 C1402 1.427 . S
N1406 C1403 1.384 . S
N1407 C1399 1.427 . S
N1407 C1405 1.384 . S
H1408 C1414 0.930 . S
H1409 C1418 0.930 . S
H1410 C1423 0.929 . S
H1411 C1421 0.929 . S
H1412 C1416 0.929 . S
H1413 C1422 0.929 . S
C1414 H1408 0.930 . S
C1414 C1415 1.367 . S
C1414 C1422 1.378 . S
C1415 C1414 1.367 . S
C1415 C1423 1.433 . S
C1416 H1412 0.929 . S
C1416 C1418 1.378 . S
C1416 C1420 1.350 . S
C1417 C1420 1.463 . S
C1417 C1422 1.350 . S
C1417 N1425 1.427 . S
C1418 H1409 0.930 . S
C1418 C1416 1.378 . S
C1418 C1419 1.367 . S
C1419 C1418 1.367 . S
C1419 C1421 1.433 . S
C1420 C1416 1.350 . S
C1420 C1417 1.463 . S
C1420 N1424 1.427 . S
C1421 H1411 0.929 . S
C1421 C1419 1.433 . S
C1421 N1424 1.384 . S
C1422 H1413 0.929 . S
C1422 C1414 1.378 . S
C1422 C1417 1.350 . S
C1423 H1410 0.929 . S
C1423 C1415 1.433 . S
C1423 N1425 1.384 . S
N1424 C1420 1.427 . S
N1424 C1421 1.384 . S
N1425 C1417 1.427 . S
N1425 C1423 1.384 . S
H1426 C1432 0.930 . S
H1427 C1436 0.930 . S
H1428 C1441 0.929 . S
H1429 C1439 0.929 . S
H1430 C1434 0.929 . S
H1431 C1440 0.929 . S
C1432 H1426 0.930 . S
C1432 C1433 1.367 . S
C1432 C1440 1.378 . S
C1433 C1432 1.367 . S
C1433 C1441 1.433 . S
C1434 H1430 0.929 . S
C1434 C1436 1.378 1_565 S
C1434 C1438 1.350 . S
C1435 C1438 1.463 . S
C1435 C1440 1.350 . S
C1435 N1443 1.427 . S
C1436 H1427 0.930 . S
C1436 C1434 1.378 1_545 S
C1436 C1437 1.367 . S
C1437 C1436 1.367 . S
C1437 C1439 1.433 1_545 S
C1438 C1434 1.350 . S
C1438 C1435 1.463 . S
C1438 N1442 1.427 . S
C1439 H1429 0.929 . S
C1439 C1437 1.433 1_565 S
C1439 N1442 1.384 . S
C1440 H1431 0.929 . S
C1440 C1432 1.378 . S
C1440 C1435 1.350 . S
C1441 H1428 0.929 . S
C1441 C1433 1.433 . S
C1441 N1443 1.384 . S
N1442 C1438 1.427 . S
N1442 C1439 1.384 . S
N1443 C1435 1.427 . S
N1443 C1441 1.384 . S
H1444 C1450 0.930 . S
H1445 C1454 0.930 . S
H1446 C1459 0.929 . S
H1447 C1457 0.929 . S
H1448 C1452 0.929 . S
H1449 C1458 0.929 . S
C1450 H1444 0.930 . S
C1450 C1451 1.367 . S
C1450 C1458 1.378 . S
C1451 C1450 1.367 . S
C1451 C1459 1.433 . S
C1452 H1448 0.929 . S
C1452 C1454 1.378 . S
C1452 C1456 1.350 . S
C1453 C1456 1.463 . S
C1453 C1458 1.350 . S
C1453 N1461 1.427 . S
C1454 H1445 0.930 . S
C1454 C1452 1.378 . S
C1454 C1455 1.367 . S
C1455 C1454 1.367 . S
C1455 C1457 1.433 . S
C1456 C1452 1.350 . S
C1456 C1453 1.463 . S
C1456 N1460 1.427 . S
C1457 H1447 0.929 . S
C1457 C1455 1.433 . S
C1457 N1460 1.384 . S
C1458 H1449 0.929 . S
C1458 C1450 1.378 . S
C1458 C1453 1.350 . S
C1459 H1446 0.929 . S
C1459 C1451 1.433 . S
C1459 N1461 1.384 . S
N1460 C1456 1.427 . S
N1460 C1457 1.384 . S
N1461 C1453 1.427 . S
N1461 C1459 1.384 . S
H1462 C1468 0.930 . S
H1463 C1472 0.930 . S
H1464 C1477 0.929 . S
H1465 C1475 0.929 . S
H1466 C1470 0.929 . S
H1467 C1476 0.929 . S
C1468 H1462 0.930 . S
C1468 C1469 1.367 . S
C1468 C1476 1.378 . S
C1469 C1468 1.367 . S
C1469 C1477 1.433 . S
C1470 H1466 0.929 . S
C1470 C1472 1.378 . S
C1470 C1474 1.350 . S
C1471 C1474 1.463 . S
C1471 C1476 1.350 . S
C1471 N1479 1.427 . S
C1472 H1463 0.930 . S
C1472 C1470 1.378 . S
C1472 C1473 1.367 . S
C1473 C1472 1.367 . S
C1473 C1475 1.433 . S
C1474 C1470 1.350 . S
C1474 C1471 1.463 . S
C1474 N1478 1.427 . S
C1475 H1465 0.929 . S
C1475 C1473 1.433 . S
C1475 N1478 1.384 . S
C1476 H1467 0.929 . S
C1476 C1468 1.378 . S
C1476 C1471 1.350 . S
C1477 H1464 0.929 . S
C1477 C1469 1.433 . S
C1477 N1479 1.384 . S
N1478 C1474 1.427 . S
N1478 C1475 1.384 . S
N1479 C1471 1.427 . S
N1479 C1477 1.384 . S
H1480 C1486 0.930 . S
H1481 C1490 0.930 . S
H1482 C1495 0.929 . S
H1483 C1493 0.929 . S
H1484 C1488 0.929 . S
H1485 C1494 0.929 . S
C1486 H1480 0.930 . S
C1486 C1487 1.367 . S
C1486 C1494 1.378 . S
C1487 C1486 1.367 . S
C1487 C1495 1.433 . S
C1488 H1484 0.929 . S
C1488 C1490 1.378 1_455 S
C1488 C1492 1.350 . S
C1489 C1492 1.463 . S
C1489 C1494 1.350 . S
C1489 N1497 1.427 . S
C1490 H1481 0.930 . S
C1490 C1488 1.378 1_655 S
C1490 C1491 1.367 . S
C1491 C1490 1.367 . S
C1491 C1493 1.433 1_655 S
C1492 C1488 1.350 . S
C1492 C1489 1.463 . S
C1492 N1496 1.427 . S
C1493 H1483 0.929 . S
C1493 C1491 1.433 1_455 S
C1493 N1496 1.384 . S
C1494 H1485 0.929 . S
C1494 C1486 1.378 . S
C1494 C1489 1.350 . S
C1495 H1482 0.929 . S
C1495 C1487 1.433 . S
C1495 N1497 1.384 . S
N1496 C1492 1.427 . S
N1496 C1493 1.384 . S
N1497 C1489 1.427 . S
N1497 C1495 1.384 . S
H1498 C1504 0.930 . S
H1499 C1508 0.930 . S
H1500 C1513 0.929 . S
H1501 C1511 0.929 . S
H1502 C1506 0.929 . S
H1503 C1512 0.929 . S
C1504 H1498 0.930 . S
C1504 C1505 1.367 . S
C1504 C1512 1.378 . S
C1505 C1504 1.367 . S
C1505 C1513 1.433 . S
C1506 H1502 0.929 . S
C1506 C1508 1.378 . S
C1506 C1510 1.350 . S
C1507 C1510 1.463 . S
C1507 C1512 1.350 . S
C1507 N1515 1.427 . S
C1508 H1499 0.930 . S
C1508 C1506 1.378 . S
C1508 C1509 1.367 . S
C1509 C1508 1.367 . S
C1509 C1511 1.433 . S
C1510 C1506 1.350 . S
C1510 C1507 1.463 . S
C1510 N1514 1.427 . S
C1511 H1501 0.929 . S
C1511 C1509 1.433 . S
C1511 N1514 1.384 . S
C1512 H1503 0.929 . S
C1512 C1504 1.378 . S
C1512 C1507 1.350 . S
C1513 H1500 0.929 . S
C1513 C1505 1.433 . S
C1513 N1515 1.384 . S
N1514 C1510 1.427 . S
N1514 C1511 1.384 . S
N1515 C1507 1.427 . S
N1515 C1513 1.384 . S
H1516 C1522 0.930 . S
H1517 C1526 0.930 . S
H1518 C1531 0.929 . S
H1519 C1529 0.929 . S
H1520 C1524 0.929 . S
H1521 C1530 0.929 . S
C1522 H1516 0.930 . S
C1522 C1523 1.367 . S
C1522 C1530 1.378 . S
C1523 C1522 1.367 . S
C1523 C1531 1.433 . S
C1524 H1520 0.929 . S
C1524 C1526 1.378 . S
C1524 C1528 1.350 . S
C1525 C1528 1.463 . S
C1525 C1530 1.350 . S
C1525 N1533 1.427 . S
C1526 H1517 0.930 . S
C1526 C1524 1.378 . S
C1526 C1527 1.367 . S
C1527 C1526 1.367 . S
C1527 C1529 1.433 . S
C1528 C1524 1.350 . S
C1528 C1525 1.463 . S
C1528 N1532 1.427 . S
C1529 H1519 0.929 . S
C1529 C1527 1.433 . S
C1529 N1532 1.384 . S
C1530 H1521 0.929 . S
C1530 C1522 1.378 . S
C1530 C1525 1.350 . S
C1531 H1518 0.929 . S
C1531 C1523 1.433 . S
C1531 N1533 1.384 . S
N1532 C1528 1.427 . S
N1532 C1529 1.384 . S
N1533 C1525 1.427 . S
N1533 C1531 1.384 . S
H1534 C1540 0.930 . S
H1535 C1544 0.930 . S
H1536 C1549 0.929 . S
H1537 C1547 0.929 . S
H1538 C1542 0.929 . S
H1539 C1548 0.929 . S
C1540 H1534 0.930 . S
C1540 C1541 1.367 . S
C1540 C1548 1.378 . S
C1541 C1540 1.367 . S
C1541 C1549 1.433 . S
C1542 H1538 0.929 . S
C1542 C1544 1.378 . S
C1542 C1546 1.350 . S
C1543 C1546 1.463 . S
C1543 C1548 1.350 . S
C1543 N1551 1.427 . S
C1544 H1535 0.930 . S
C1544 C1542 1.378 . S
C1544 C1545 1.367 . S
C1545 C1544 1.367 . S
C1545 C1547 1.433 . S
C1546 C1542 1.350 . S
C1546 C1543 1.463 . S
C1546 N1550 1.427 . S
C1547 H1537 0.929 . S
C1547 C1545 1.433 . S
C1547 N1550 1.384 . S
C1548 H1539 0.929 . S
C1548 C1540 1.378 . S
C1548 C1543 1.350 . S
C1549 H1536 0.929 . S
C1549 C1541 1.433 . S
C1549 N1551 1.384 . S
N1550 C1546 1.427 . S
N1550 C1547 1.384 . S
N1551 C1543 1.427 . S
N1551 C1549 1.384 . S
H1552 C1558 0.930 . S
H1553 C1562 0.930 . S
H1554 C1567 0.929 . S
H1555 C1565 0.929 . S
H1556 C1560 0.929 . S
H1557 C1566 0.929 . S
C1558 H1552 0.930 . S
C1558 C1559 1.367 . S
C1558 C1566 1.378 . S
C1559 C1558 1.367 . S
C1559 C1567 1.433 . S
C1560 H1556 0.929 . S
C1560 C1562 1.378 . S
C1560 C1564 1.350 . S
C1561 C1564 1.463 . S
C1561 C1566 1.350 . S
C1561 N1569 1.427 . S
C1562 H1553 0.930 . S
C1562 C1560 1.378 . S
C1562 C1563 1.367 1_455 S
C1563 C1562 1.367 1_655 S
C1563 C1565 1.433 . S
C1564 C1560 1.350 . S
C1564 C1561 1.463 . S
C1564 N1568 1.427 . S
C1565 H1555 0.929 . S
C1565 C1563 1.433 . S
C1565 N1568 1.384 1_655 S
C1566 H1557 0.929 . S
C1566 C1558 1.378 . S
C1566 C1561 1.350 . S
C1567 H1554 0.929 . S
C1567 C1559 1.433 . S
C1567 N1569 1.384 . S
N1568 C1564 1.427 . S
N1568 C1565 1.384 1_455 S
N1569 C1561 1.427 . S
N1569 C1567 1.384 . S
H1570 C1576 0.930 . S
H1571 C1580 0.930 . S
H1572 C1585 0.929 . S
H1573 C1583 0.929 . S
H1574 C1578 0.929 . S
H1575 C1584 0.929 . S
C1576 H1570 0.930 . S
C1576 C1577 1.367 . S
C1576 C1584 1.378 . S
C1577 C1576 1.367 . S
C1577 C1585 1.433 . S
C1578 H1574 0.929 . S
C1578 C1580 1.378 . S
C1578 C1582 1.350 . S
C1579 C1582 1.463 . S
C1579 C1584 1.350 . S
C1579 N1587 1.427 . S
C1580 H1571 0.930 . S
C1580 C1578 1.378 . S
C1580 C1581 1.367 1_655 S
C1581 C1580 1.367 1_455 S
C1581 C1583 1.433 . S
C1582 C1578 1.350 . S
C1582 C1579 1.463 . S
C1582 N1586 1.427 . S
C1583 H1573 0.929 . S
C1583 C1581 1.433 . S
C1583 N1586 1.384 1_455 S
C1584 H1575 0.929 . S
C1584 C1576 1.378 . S
C1584 C1579 1.350 . S
C1585 H1572 0.929 . S
C1585 C1577 1.433 . S
C1585 N1587 1.384 . S
N1586 C1582 1.427 . S
N1586 C1583 1.384 1_655 S
N1587 C1579 1.427 . S
N1587 C1585 1.384 . S
H1588 C1594 0.930 . S
H1589 C1598 0.930 . S
H1590 C1603 0.929 . S
H1591 C1601 0.929 . S
H1592 C1596 0.929 . S
H1593 C1602 0.929 . S
C1594 H1588 0.930 . S
C1594 C1595 1.367 . S
C1594 C1602 1.378 . S
C1595 C1594 1.367 . S
C1595 C1603 1.433 . S
C1596 H1592 0.929 . S
C1596 C1598 1.378 . S
C1596 C1600 1.350 . S
C1597 C1600 1.463 . S
C1597 C1602 1.350 . S
C1597 N1605 1.427 . S
C1598 H1589 0.930 . S
C1598 C1596 1.378 . S
C1598 C1599 1.367 . S
C1599 C1598 1.367 . S
C1599 C1601 1.433 . S
C1600 C1596 1.350 . S
C1600 C1597 1.463 . S
C1600 N1604 1.427 . S
C1601 H1591 0.929 . S
C1601 C1599 1.433 . S
C1601 N1604 1.384 . S
C1602 H1593 0.929 . S
C1602 C1594 1.378 . S
C1602 C1597 1.350 . S
C1603 H1590 0.929 . S
C1603 C1595 1.433 . S
C1603 N1605 1.384 . S
N1604 C1600 1.427 . S
N1604 C1601 1.384 . S
N1605 C1597 1.427 . S
N1605 C1603 1.384 . S
H1606 C1612 0.930 . S
H1607 C1616 0.930 . S
H1608 C1621 0.929 . S
H1609 C1619 0.929 . S
H1610 C1614 0.929 . S
H1611 C1620 0.929 . S
C1612 H1606 0.930 . S
C1612 C1613 1.367 . S
C1612 C1620 1.378 . S
C1613 C1612 1.367 . S
C1613 C1621 1.433 . S
C1614 H1610 0.929 . S
C1614 C1616 1.378 . S
C1614 C1618 1.350 . S
C1615 C1618 1.463 . S
C1615 C1620 1.350 . S
C1615 N1623 1.427 . S
C1616 H1607 0.930 . S
C1616 C1614 1.378 . S
C1616 C1617 1.367 . S
C1617 C1616 1.367 . S
C1617 C1619 1.433 . S
C1618 C1614 1.350 . S
C1618 C1615 1.463 . S
C1618 N1622 1.427 . S
C1619 H1609 0.929 . S
C1619 C1617 1.433 . S
C1619 N1622 1.384 . S
C1620 H1611 0.929 . S
C1620 C1612 1.378 . S
C1620 C1615 1.350 . S
C1621 H1608 0.929 . S
C1621 C1613 1.433 . S
C1621 N1623 1.384 . S
N1622 C1618 1.427 . S
N1622 C1619 1.384 . S
N1623 C1615 1.427 . S
N1623 C1621 1.384 . S
H1624 C1630 0.930 . S
H1625 C1634 0.930 . S
H1626 C1639 0.929 . S
H1627 C1637 0.929 . S
H1628 C1632 0.929 . S
H1629 C1638 0.929 . S
C1630 H1624 0.930 . S
C1630 C1631 1.367 . S
C1630 C1638 1.378 . S
C1631 C1630 1.367 . S
C1631 C1639 1.433 . S
C1632 H1628 0.929 . S
C1632 C1634 1.378 . S
C1632 C1636 1.350 . S
C1633 C1636 1.463 . S
C1633 C1638 1.350 . S
C1633 N1641 1.427 . S
C1634 H1625 0.930 . S
C1634 C1632 1.378 . S
C1634 C1635 1.367 . S
C1635 C1634 1.367 . S
C1635 C1637 1.433 . S
C1636 C1632 1.350 . S
C1636 C1633 1.463 . S
C1636 N1640 1.427 . S
C1637 H1627 0.929 . S
C1637 C1635 1.433 . S
C1637 N1640 1.384 . S
C1638 H1629 0.929 . S
C1638 C1630 1.378 . S
C1638 C1633 1.350 . S
C1639 H1626 0.929 . S
C1639 C1631 1.433 . S
C1639 N1641 1.384 . S
N1640 C1636 1.427 . S
N1640 C1637 1.384 . S
N1641 C1633 1.427 . S
N1641 C1639 1.384 . S
H1642 C1648 0.930 . S
H1643 C1652 0.930 . S
H1644 C1657 0.929 . S
H1645 C1655 0.929 . S
H1646 C1650 0.929 . S
H1647 C1656 0.929 . S
C1648 H1642 0.930 . S
C1648 C1649 1.367 . S
C1648 C1656 1.378 . S
C1649 C1648 1.367 . S
C1649 C1657 1.433 . S
C1650 H1646 0.929 . S
C1650 C1652 1.378 . S
C1650 C1654 1.350 . S
C1651 C1654 1.463 . S
C1651 C1656 1.350 . S
C1651 N1659 1.427 . S
C1652 H1643 0.930 . S
C1652 C1650 1.378 . S
C1652 C1653 1.367 . S
C1653 C1652 1.367 . S
C1653 C1655 1.433 . S
C1654 C1650 1.350 . S
C1654 C1651 1.463 . S
C1654 N1658 1.427 . S
C1655 H1645 0.929 . S
C1655 C1653 1.433 . S
C1655 N1658 1.384 . S
C1656 H1647 0.929 . S
C1656 C1648 1.378 . S
C1656 C1651 1.350 . S
C1657 H1644 0.929 . S
C1657 C1649 1.433 . S
C1657 N1659 1.384 . S
N1658 C1654 1.427 . S
N1658 C1655 1.384 . S
N1659 C1651 1.427 . S
N1659 C1657 1.384 . S
H1660 C1666 0.930 . S
H1661 C1670 0.930 . S
H1662 C1675 0.929 . S
H1663 C1673 0.929 . S
H1664 C1668 0.929 . S
H1665 C1674 0.929 . S
C1666 H1660 0.930 . S
C1666 C1667 1.367 . S
C1666 C1674 1.378 . S
C1667 C1666 1.367 . S
C1667 C1675 1.433 . S
C1668 H1664 0.929 . S
C1668 C1670 1.378 . S
C1668 C1672 1.350 . S
C1669 C1672 1.463 . S
C1669 C1674 1.350 . S
C1669 N1677 1.427 . S
C1670 H1661 0.930 . S
C1670 C1668 1.378 . S
C1670 C1671 1.367 . S
C1671 C1670 1.367 . S
C1671 C1673 1.433 . S
C1672 C1668 1.350 . S
C1672 C1669 1.463 . S
C1672 N1676 1.427 . S
C1673 H1663 0.929 . S
C1673 C1671 1.433 . S
C1673 N1676 1.384 . S
C1674 H1665 0.929 . S
C1674 C1666 1.378 . S
C1674 C1669 1.350 . S
C1675 H1662 0.929 . S
C1675 C1667 1.433 . S
C1675 N1677 1.384 . S
N1676 C1672 1.427 . S
N1676 C1673 1.384 . S
N1677 C1669 1.427 . S
N1677 C1675 1.384 . S
H1678 C1684 0.930 . S
H1679 C1688 0.930 . S
H1680 C1693 0.929 . S
H1681 C1691 0.929 1_655 S
H1682 C1686 0.929 . S
H1683 C1692 0.929 . S
C1684 H1678 0.930 . S
C1684 C1685 1.367 . S
C1684 C1692 1.378 . S
C1685 C1684 1.367 . S
C1685 C1693 1.433 . S
C1686 H1682 0.929 . S
C1686 C1688 1.378 . S
C1686 C1690 1.350 . S
C1687 C1690 1.463 . S
C1687 C1692 1.350 . S
C1687 N1695 1.427 . S
C1688 H1679 0.930 . S
C1688 C1686 1.378 . S
C1688 C1689 1.367 . S
C1689 C1688 1.367 . S
C1689 C1691 1.433 . S
C1690 C1686 1.350 . S
C1690 C1687 1.463 . S
C1690 N1694 1.427 . S
C1691 H1681 0.929 1_455 S
C1691 C1689 1.433 . S
C1691 N1694 1.384 . S
C1692 H1683 0.929 . S
C1692 C1684 1.378 . S
C1692 C1687 1.350 . S
C1693 H1680 0.929 . S
C1693 C1685 1.433 . S
C1693 N1695 1.384 . S
N1694 C1690 1.427 . S
N1694 C1691 1.384 . S
N1695 C1687 1.427 . S
N1695 C1693 1.384 . S
H1696 C1702 0.930 . S
H1697 C1706 0.930 . S
H1698 C1711 0.929 . S
H1699 C1709 0.929 . S
H1700 C1704 0.929 . S
H1701 C1710 0.929 . S
C1702 H1696 0.930 . S
C1702 C1703 1.367 . S
C1702 C1710 1.378 . S
C1703 C1702 1.367 . S
C1703 C1711 1.433 . S
C1704 H1700 0.929 . S
C1704 C1706 1.378 . S
C1704 C1708 1.350 . S
C1705 C1708 1.463 . S
C1705 C1710 1.350 . S
C1705 N1713 1.427 . S
C1706 H1697 0.930 . S
C1706 C1704 1.378 . S
C1706 C1707 1.367 . S
C1707 C1706 1.367 . S
C1707 C1709 1.433 . S
C1708 C1704 1.350 . S
C1708 C1705 1.463 . S
C1708 N1712 1.427 . S
C1709 H1699 0.929 . S
C1709 C1707 1.433 . S
C1709 N1712 1.384 . S
C1710 H1701 0.929 . S
C1710 C1702 1.378 . S
C1710 C1705 1.350 . S
C1711 H1698 0.929 . S
C1711 C1703 1.433 . S
C1711 N1713 1.384 . S
N1712 C1708 1.427 . S
N1712 C1709 1.384 . S
N1713 C1705 1.427 . S
N1713 C1711 1.384 . S
H1714 C1720 0.930 . S
H1715 C1724 0.930 . S
H1716 C1729 0.929 . S
H1717 C1727 0.929 . S
H1718 C1722 0.929 . S
H1719 C1728 0.929 . S
C1720 H1714 0.930 . S
C1720 C1721 1.367 . S
C1720 C1728 1.378 . S
C1721 C1720 1.367 . S
C1721 C1729 1.433 . S
C1722 H1718 0.929 . S
C1722 C1724 1.378 . S
C1722 C1726 1.350 . S
C1723 C1726 1.463 . S
C1723 C1728 1.350 . S
C1723 N1731 1.427 . S
C1724 H1715 0.930 . S
C1724 C1722 1.378 . S
C1724 C1725 1.367 . S
C1725 C1724 1.367 . S
C1725 C1727 1.433 . S
C1726 C1722 1.350 . S
C1726 C1723 1.463 . S
C1726 N1730 1.427 . S
C1727 H1717 0.929 . S
C1727 C1725 1.433 . S
C1727 N1730 1.384 . S
C1728 H1719 0.929 . S
C1728 C1720 1.378 . S
C1728 C1723 1.350 . S
C1729 H1716 0.929 . S
C1729 C1721 1.433 . S
C1729 N1731 1.384 . S
N1730 C1726 1.427 . S
N1730 C1727 1.384 . S
N1731 C1723 1.427 . S
N1731 C1729 1.384 . S
H1732 C1738 0.930 . S
H1733 C1742 0.930 . S
H1734 C1747 0.929 . S
H1735 C1745 0.929 . S
H1736 C1740 0.929 . S
H1737 C1746 0.929 . S
C1738 H1732 0.930 . S
C1738 C1739 1.367 . S
C1738 C1746 1.378 . S
C1739 C1738 1.367 . S
C1739 C1747 1.433 . S
C1740 H1736 0.929 . S
C1740 C1742 1.378 . S
C1740 C1744 1.350 . S
C1741 C1744 1.463 . S
C1741 C1746 1.350 . S
C1741 N1749 1.427 . S
C1742 H1733 0.930 . S
C1742 C1740 1.378 . S
C1742 C1743 1.367 . S
C1743 C1742 1.367 . S
C1743 C1745 1.433 . S
C1744 C1740 1.350 . S
C1744 C1741 1.463 . S
C1744 N1748 1.427 . S
C1745 H1735 0.929 . S
C1745 C1743 1.433 . S
C1745 N1748 1.384 . S
C1746 H1737 0.929 . S
C1746 C1738 1.378 . S
C1746 C1741 1.350 . S
C1747 H1734 0.929 . S
C1747 C1739 1.433 . S
C1747 N1749 1.384 . S
N1748 C1744 1.427 . S
N1748 C1745 1.384 . S
N1749 C1741 1.427 . S
N1749 C1747 1.384 . S
H1750 C1756 0.930 . S
H1751 C1760 0.930 1_556 S
H1752 C1765 0.929 . S
H1753 C1763 0.929 . S
H1754 C1758 0.929 . S
H1755 C1764 0.929 . S
C1756 H1750 0.930 . S
C1756 C1757 1.367 . S
C1756 C1764 1.378 . S
C1757 C1756 1.367 . S
C1757 C1765 1.433 . S
C1758 H1754 0.929 . S
C1758 C1760 1.378 . S
C1758 C1762 1.350 . S
C1759 C1762 1.463 . S
C1759 C1764 1.350 . S
C1759 N1767 1.427 . S
C1760 H1751 0.930 1_554 S
C1760 C1758 1.378 . S
C1760 C1761 1.367 . S
C1761 C1760 1.367 . S
C1761 C1763 1.433 . S
C1762 C1758 1.350 . S
C1762 C1759 1.463 . S
C1762 N1766 1.427 . S
C1763 H1753 0.929 . S
C1763 C1761 1.433 . S
C1763 N1766 1.384 . S
C1764 H1755 0.929 . S
C1764 C1756 1.378 . S
C1764 C1759 1.350 . S
C1765 H1752 0.929 . S
C1765 C1757 1.433 . S
C1765 N1767 1.384 . S
N1766 C1762 1.427 . S
N1766 C1763 1.384 . S
N1767 C1759 1.427 . S
N1767 C1765 1.384 . S
H1768 C1774 0.930 . S
H1769 C1778 0.930 . S
H1770 C1783 0.929 . S
H1771 C1781 0.929 . S
H1772 C1776 0.929 . S
H1773 C1782 0.929 . S
C1774 H1768 0.930 . S
C1774 C1775 1.367 . S
C1774 C1782 1.378 . S
C1775 C1774 1.367 . S
C1775 C1783 1.433 . S
C1776 H1772 0.929 . S
C1776 C1778 1.378 . S
C1776 C1780 1.350 . S
C1777 C1780 1.463 . S
C1777 C1782 1.350 . S
C1777 N1785 1.427 . S
C1778 H1769 0.930 . S
C1778 C1776 1.378 . S
C1778 C1779 1.367 . S
C1779 C1778 1.367 . S
C1779 C1781 1.433 . S
C1780 C1776 1.350 . S
C1780 C1777 1.463 . S
C1780 N1784 1.427 . S
C1781 H1771 0.929 . S
C1781 C1779 1.433 . S
C1781 N1784 1.384 . S
C1782 H1773 0.929 . S
C1782 C1774 1.378 . S
C1782 C1777 1.350 . S
C1783 H1770 0.929 . S
C1783 C1775 1.433 . S
C1783 N1785 1.384 . S
N1784 C1780 1.427 . S
N1784 C1781 1.384 . S
N1785 C1777 1.427 . S
N1785 C1783 1.384 . S
H1786 C1792 0.930 . S
H1787 C1796 0.930 1_556 S
H1788 C1801 0.929 . S
H1789 C1799 0.929 . S
H1790 C1794 0.929 . S
H1791 C1800 0.929 . S
C1792 H1786 0.930 . S
C1792 C1793 1.367 . S
C1792 C1800 1.378 . S
C1793 C1792 1.367 . S
C1793 C1801 1.433 . S
C1794 H1790 0.929 . S
C1794 C1796 1.378 . S
C1794 C1798 1.350 . S
C1795 C1798 1.463 . S
C1795 C1800 1.350 . S
C1795 N1803 1.427 . S
C1796 H1787 0.930 1_554 S
C1796 C1794 1.378 . S
C1796 C1797 1.367 . S
C1797 C1796 1.367 . S
C1797 C1799 1.433 . S
C1798 C1794 1.350 . S
C1798 C1795 1.463 . S
C1798 N1802 1.427 . S
C1799 H1789 0.929 . S
C1799 C1797 1.433 . S
C1799 N1802 1.384 . S
C1800 H1791 0.929 . S
C1800 C1792 1.378 . S
C1800 C1795 1.350 . S
C1801 H1788 0.929 . S
C1801 C1793 1.433 . S
C1801 N1803 1.384 . S
N1802 C1798 1.427 . S
N1802 C1799 1.384 . S
N1803 C1795 1.427 . S
N1803 C1801 1.384 . S
H1804 C1810 0.930 . S
H1805 C1814 0.930 . S
H1806 C1819 0.929 . S
H1807 C1817 0.929 . S
H1808 C1812 0.929 . S
H1809 C1818 0.929 . S
C1810 H1804 0.930 . S
C1810 C1811 1.367 . S
C1810 C1818 1.378 . S
C1811 C1810 1.367 . S
C1811 C1819 1.433 . S
C1812 H1808 0.929 . S
C1812 C1814 1.378 . S
C1812 C1816 1.350 . S
C1813 C1816 1.463 . S
C1813 C1818 1.350 . S
C1813 N1821 1.427 . S
C1814 H1805 0.930 . S
C1814 C1812 1.378 . S
C1814 C1815 1.367 . S
C1815 C1814 1.367 . S
C1815 C1817 1.433 . S
C1816 C1812 1.350 . S
C1816 C1813 1.463 . S
C1816 N1820 1.427 . S
C1817 H1807 0.929 . S
C1817 C1815 1.433 . S
C1817 N1820 1.384 . S
C1818 H1809 0.929 . S
C1818 C1810 1.378 . S
C1818 C1813 1.350 . S
C1819 H1806 0.929 . S
C1819 C1811 1.433 . S
C1819 N1821 1.384 . S
N1820 C1816 1.427 . S
N1820 C1817 1.384 . S
N1821 C1813 1.427 . S
N1821 C1819 1.384 . S
H1822 C1828 0.930 . S
H1823 C1832 0.930 . S
H1824 C1837 0.929 . S
H1825 C1835 0.929 . S
H1826 C1830 0.929 . S
H1827 C1836 0.929 . S
C1828 H1822 0.930 . S
C1828 C1829 1.367 . S
C1828 C1836 1.378 . S
C1829 C1828 1.367 . S
C1829 C1837 1.433 . S
C1830 H1826 0.929 . S
C1830 C1832 1.378 . S
C1830 C1834 1.350 . S
C1831 C1834 1.463 . S
C1831 C1836 1.350 . S
C1831 N1839 1.427 . S
C1832 H1823 0.930 . S
C1832 C1830 1.378 . S
C1832 C1833 1.367 . S
C1833 C1832 1.367 . S
C1833 C1835 1.433 . S
C1834 C1830 1.350 . S
C1834 C1831 1.463 . S
C1834 N1838 1.427 . S
C1835 H1825 0.929 . S
C1835 C1833 1.433 . S
C1835 N1838 1.384 . S
C1836 H1827 0.929 . S
C1836 C1828 1.378 . S
C1836 C1831 1.350 . S
C1837 H1824 0.929 . S
C1837 C1829 1.433 . S
C1837 N1839 1.384 . S
N1838 C1834 1.427 . S
N1838 C1835 1.384 . S
N1839 C1831 1.427 . S
N1839 C1837 1.384 . S
H1840 C1846 0.930 . S
H1841 C1850 0.930 . S
H1842 C1855 0.929 . S
H1843 C1853 0.929 . S
H1844 C1848 0.929 . S
H1845 C1854 0.929 . S
C1846 H1840 0.930 . S
C1846 C1847 1.367 . S
C1846 C1854 1.378 . S
C1847 C1846 1.367 . S
C1847 C1855 1.433 . S
C1848 H1844 0.929 . S
C1848 C1850 1.378 . S
C1848 C1852 1.350 . S
C1849 C1852 1.463 . S
C1849 C1854 1.350 . S
C1849 N1857 1.427 . S
C1850 H1841 0.930 . S
C1850 C1848 1.378 . S
C1850 C1851 1.367 . S
C1851 C1850 1.367 . S
C1851 C1853 1.433 . S
C1852 C1848 1.350 . S
C1852 C1849 1.463 . S
C1852 N1856 1.427 . S
C1853 H1843 0.929 . S
C1853 C1851 1.433 . S
C1853 N1856 1.384 . S
C1854 H1845 0.929 . S
C1854 C1846 1.378 . S
C1854 C1849 1.350 . S
C1855 H1842 0.929 . S
C1855 C1847 1.433 . S
C1855 N1857 1.384 . S
N1856 C1852 1.427 . S
N1856 C1853 1.384 . S
N1857 C1849 1.427 . S
N1857 C1855 1.384 . S
H1858 C1864 0.930 . S
H1859 C1868 0.930 . S
H1860 C1873 0.929 . S
H1861 C1871 0.929 1_554 S
H1862 C1866 0.929 . S
H1863 C1872 0.929 . S
C1864 H1858 0.930 . S
C1864 C1865 1.367 . S
C1864 C1872 1.378 . S
C1865 C1864 1.367 . S
C1865 C1873 1.433 . S
C1866 H1862 0.929 . S
C1866 C1868 1.378 . S
C1866 C1870 1.350 . S
C1867 C1870 1.463 . S
C1867 C1872 1.350 . S
C1867 N1875 1.427 . S
C1868 H1859 0.930 . S
C1868 C1866 1.378 . S
C1868 C1869 1.367 . S
C1869 C1868 1.367 . S
C1869 C1871 1.433 . S
C1870 C1866 1.350 . S
C1870 C1867 1.463 . S
C1870 N1874 1.427 . S
C1871 H1861 0.929 1_556 S
C1871 C1869 1.433 . S
C1871 N1874 1.384 . S
C1872 H1863 0.929 . S
C1872 C1864 1.378 . S
C1872 C1867 1.350 . S
C1873 H1860 0.929 . S
C1873 C1865 1.433 . S
C1873 N1875 1.384 . S
N1874 C1870 1.427 . S
N1874 C1871 1.384 . S
N1875 C1867 1.427 . S
N1875 C1873 1.384 . S
H1876 C1882 0.930 . S
H1877 C1886 0.930 . S
H1878 C1891 0.929 . S
H1879 C1889 0.929 . S
H1880 C1884 0.929 . S
H1881 C1890 0.929 . S
C1882 H1876 0.930 . S
C1882 C1883 1.367 . S
C1882 C1890 1.378 . S
C1883 C1882 1.367 . S
C1883 C1891 1.433 . S
C1884 H1880 0.929 . S
C1884 C1886 1.378 . S
C1884 C1888 1.350 . S
C1885 C1888 1.463 . S
C1885 C1890 1.350 . S
C1885 N1893 1.427 . S
C1886 H1877 0.930 . S
C1886 C1884 1.378 . S
C1886 C1887 1.367 . S
C1887 C1886 1.367 . S
C1887 C1889 1.433 . S
C1888 C1884 1.350 . S
C1888 C1885 1.463 . S
C1888 N1892 1.427 . S
C1889 H1879 0.929 . S
C1889 C1887 1.433 . S
C1889 N1892 1.384 . S
C1890 H1881 0.929 . S
C1890 C1882 1.378 . S
C1890 C1885 1.350 . S
C1891 H1878 0.929 . S
C1891 C1883 1.433 . S
C1891 N1893 1.384 . S
N1892 C1888 1.427 . S
N1892 C1889 1.384 . S
N1893 C1885 1.427 . S
N1893 C1891 1.384 . S
H1894 C1900 0.930 . S
H1895 C1904 0.930 . S
H1896 C1909 0.929 . S
H1897 C1907 0.929 . S
H1898 C1902 0.929 . S
H1899 C1908 0.929 . S
C1900 H1894 0.930 . S
C1900 C1901 1.367 . S
C1900 C1908 1.378 . S
C1901 C1900 1.367 . S
C1901 C1909 1.433 . S
C1902 H1898 0.929 . S
C1902 C1904 1.378 . S
C1902 C1906 1.350 . S
C1903 C1906 1.463 . S
C1903 C1908 1.350 . S
C1903 N1911 1.427 . S
C1904 H1895 0.930 . S
C1904 C1902 1.378 . S
C1904 C1905 1.367 . S
C1905 C1904 1.367 . S
C1905 C1907 1.433 . S
C1906 C1902 1.350 . S
C1906 C1903 1.463 . S
C1906 N1910 1.427 . S
C1907 H1897 0.929 . S
C1907 C1905 1.433 . S
C1907 N1910 1.384 . S
C1908 H1899 0.929 . S
C1908 C1900 1.378 . S
C1908 C1903 1.350 . S
C1909 H1896 0.929 . S
C1909 C1901 1.433 . S
C1909 N1911 1.384 . S
N1910 C1906 1.427 . S
N1910 C1907 1.384 . S
N1911 C1903 1.427 . S
N1911 C1909 1.384 . S
H1912 C1918 0.930 . S
H1913 C1922 0.930 . S
H1914 C1927 0.929 . S
H1915 C1925 0.929 . S
H1916 C1920 0.929 . S
H1917 C1926 0.929 . S
C1918 H1912 0.930 . S
C1918 C1919 1.367 . S
C1918 C1926 1.378 . S
C1919 C1918 1.367 . S
C1919 C1927 1.433 . S
C1920 H1916 0.929 . S
C1920 C1922 1.378 . S
C1920 C1924 1.350 . S
C1921 C1924 1.463 . S
C1921 C1926 1.350 . S
C1921 N1929 1.427 . S
C1922 H1913 0.930 . S
C1922 C1920 1.378 . S
C1922 C1923 1.367 . S
C1923 C1922 1.367 . S
C1923 C1925 1.433 . S
C1924 C1920 1.350 . S
C1924 C1921 1.463 . S
C1924 N1928 1.427 . S
C1925 H1915 0.929 . S
C1925 C1923 1.433 . S
C1925 N1928 1.384 . S
C1926 H1917 0.929 . S
C1926 C1918 1.378 . S
C1926 C1921 1.350 . S
C1927 H1914 0.929 . S
C1927 C1919 1.433 . S
C1927 N1929 1.384 . S
N1928 C1924 1.427 . S
N1928 C1925 1.384 . S
N1929 C1921 1.427 . S
N1929 C1927 1.384 . S
H1930 C1936 0.930 . S
H1931 C1940 0.930 . S
H1932 C1945 0.929 . S
H1933 C1943 0.929 . S
H1934 C1938 0.929 . S
H1935 C1944 0.929 . S
C1936 H1930 0.930 . S
C1936 C1937 1.367 . S
C1936 C1944 1.378 . S
C1937 C1936 1.367 . S
C1937 C1945 1.433 . S
C1938 H1934 0.929 . S
C1938 C1940 1.378 . S
C1938 C1942 1.350 . S
C1939 C1942 1.463 . S
C1939 C1944 1.350 . S
C1939 N1947 1.427 . S
C1940 H1931 0.930 . S
C1940 C1938 1.378 . S
C1940 C1941 1.367 . S
C1941 C1940 1.367 . S
C1941 C1943 1.433 . S
C1942 C1938 1.350 . S
C1942 C1939 1.463 . S
C1942 N1946 1.427 . S
C1943 H1933 0.929 . S
C1943 C1941 1.433 . S
C1943 N1946 1.384 . S
C1944 H1935 0.929 . S
C1944 C1936 1.378 . S
C1944 C1939 1.350 . S
C1945 H1932 0.929 . S
C1945 C1937 1.433 . S
C1945 N1947 1.384 . S
N1946 C1942 1.427 . S
N1946 C1943 1.384 . S
N1947 C1939 1.427 . S
N1947 C1945 1.384 . S
H1948 C1954 0.930 . S
H1949 C1958 0.930 . S
H1950 C1963 0.929 . S
H1951 C1961 0.929 . S
H1952 C1956 0.929 . S
H1953 C1962 0.929 . S
C1954 H1948 0.930 . S
C1954 C1955 1.367 . S
C1954 C1962 1.378 . S
C1955 C1954 1.367 . S
C1955 C1963 1.433 . S
C1956 H1952 0.929 . S
C1956 C1958 1.378 . S
C1956 C1960 1.350 . S
C1957 C1960 1.463 . S
C1957 C1962 1.350 . S
C1957 N1965 1.427 . S
C1958 H1949 0.930 . S
C1958 C1956 1.378 . S
C1958 C1959 1.367 . S
C1959 C1958 1.367 . S
C1959 C1961 1.433 . S
C1960 C1956 1.350 . S
C1960 C1957 1.463 . S
C1960 N1964 1.427 . S
C1961 H1951 0.929 . S
C1961 C1959 1.433 . S
C1961 N1964 1.384 . S
C1962 H1953 0.929 . S
C1962 C1954 1.378 . S
C1962 C1957 1.350 . S
C1963 H1950 0.929 . S
C1963 C1955 1.433 . S
C1963 N1965 1.384 . S
N1964 C1960 1.427 . S
N1964 C1961 1.384 . S
N1965 C1957 1.427 . S
N1965 C1963 1.384 . S
H1966 C1972 0.930 . S
H1967 C1976 0.930 . S
H1968 C1981 0.929 . S
H1969 C1979 0.929 . S
H1970 C1974 0.929 . S
H1971 C1980 0.929 . S
C1972 H1966 0.930 . S
C1972 C1973 1.367 . S
C1972 C1980 1.378 . S
C1973 C1972 1.367 . S
C1973 C1981 1.433 . S
C1974 H1970 0.929 . S
C1974 C1976 1.378 . S
C1974 C1978 1.350 . S
C1975 C1978 1.463 . S
C1975 C1980 1.350 . S
C1975 N1983 1.427 . S
C1976 H1967 0.930 . S
C1976 C1974 1.378 . S
C1976 C1977 1.367 . S
C1977 C1976 1.367 . S
C1977 C1979 1.433 . S
C1978 C1974 1.350 . S
C1978 C1975 1.463 . S
C1978 N1982 1.427 . S
C1979 H1969 0.929 . S
C1979 C1977 1.433 . S
C1979 N1982 1.384 . S
C1980 H1971 0.929 . S
C1980 C1972 1.378 . S
C1980 C1975 1.350 . S
C1981 H1968 0.929 . S
C1981 C1973 1.433 . S
C1981 N1983 1.384 . S
N1982 C1978 1.427 . S
N1982 C1979 1.384 . S
N1983 C1975 1.427 . S
N1983 C1981 1.384 . S
H1984 C1990 0.930 . S
H1985 C1994 0.930 . S
H1986 C1999 0.929 . S
H1987 C1997 0.929 . S
H1988 C1992 0.929 . S
H1989 C1998 0.929 . S
C1990 H1984 0.930 . S
C1990 C1991 1.367 . S
C1990 C1998 1.378 . S
C1991 C1990 1.367 . S
C1991 C1999 1.433 . S
C1992 H1988 0.929 . S
C1992 C1994 1.378 . S
C1992 C1996 1.350 . S
C1993 C1996 1.463 . S
C1993 C1998 1.350 . S
C1993 N2001 1.427 . S
C1994 H1985 0.930 . S
C1994 C1992 1.378 . S
C1994 C1995 1.367 . S
C1995 C1994 1.367 . S
C1995 C1997 1.433 . S
C1996 C1992 1.350 . S
C1996 C1993 1.463 . S
C1996 N2000 1.427 . S
C1997 H1987 0.929 . S
C1997 C1995 1.433 . S
C1997 N2000 1.384 . S
C1998 H1989 0.929 . S
C1998 C1990 1.378 . S
C1998 C1993 1.350 . S
C1999 H1986 0.929 . S
C1999 C1991 1.433 . S
C1999 N2001 1.384 . S
N2000 C1996 1.427 . S
N2000 C1997 1.384 . S
N2001 C1993 1.427 . S
N2001 C1999 1.384 . S
H2002 C2008 0.930 . S
H2003 C2012 0.930 . S
H2004 C2017 0.929 . S
H2005 C2015 0.929 . S
H2006 C2010 0.929 . S
H2007 C2016 0.929 . S
C2008 H2002 0.930 . S
C2008 C2009 1.367 . S
C2008 C2016 1.378 . S
C2009 C2008 1.367 . S
C2009 C2017 1.433 . S
C2010 H2006 0.929 . S
C2010 C2012 1.378 . S
C2010 C2014 1.350 . S
C2011 C2014 1.463 . S
C2011 C2016 1.350 . S
C2011 N2019 1.427 . S
C2012 H2003 0.930 . S
C2012 C2010 1.378 . S
C2012 C2013 1.367 . S
C2013 C2012 1.367 . S
C2013 C2015 1.433 . S
C2014 C2010 1.350 . S
C2014 C2011 1.463 . S
C2014 N2018 1.427 . S
C2015 H2005 0.929 . S
C2015 C2013 1.433 . S
C2015 N2018 1.384 . S
C2016 H2007 0.929 . S
C2016 C2008 1.378 . S
C2016 C2011 1.350 . S
C2017 H2004 0.929 . S
C2017 C2009 1.433 . S
C2017 N2019 1.384 . S
N2018 C2014 1.427 . S
N2018 C2015 1.384 . S
N2019 C2011 1.427 . S
N2019 C2017 1.384 . S
H2020 C2026 0.930 . S
H2021 C2030 0.930 . S
H2022 C2035 0.929 . S
H2023 C2033 0.929 . S
H2024 C2028 0.929 . S
H2025 C2034 0.929 . S
C2026 H2020 0.930 . S
C2026 C2027 1.367 . S
C2026 C2034 1.378 . S
C2027 C2026 1.367 . S
C2027 C2035 1.433 . S
C2028 H2024 0.929 . S
C2028 C2030 1.378 . S
C2028 C2032 1.350 . S
C2029 C2032 1.463 . S
C2029 C2034 1.350 . S
C2029 N2037 1.427 . S
C2030 H2021 0.930 . S
C2030 C2028 1.378 . S
C2030 C2031 1.367 . S
C2031 C2030 1.367 . S
C2031 C2033 1.433 . S
C2032 C2028 1.350 . S
C2032 C2029 1.463 . S
C2032 N2036 1.427 . S
C2033 H2023 0.929 . S
C2033 C2031 1.433 . S
C2033 N2036 1.384 . S
C2034 H2025 0.929 . S
C2034 C2026 1.378 . S
C2034 C2029 1.350 . S
C2035 H2022 0.929 . S
C2035 C2027 1.433 . S
C2035 N2037 1.384 . S
N2036 C2032 1.427 . S
N2036 C2033 1.384 . S
N2037 C2029 1.427 . S
N2037 C2035 1.384 . S
H2038 C2044 0.930 . S
H2039 C2048 0.930 . S
H2040 C2053 0.929 . S
H2041 C2051 0.929 1_455 S
H2042 C2046 0.929 . S
H2043 C2052 0.929 . S
C2044 H2038 0.930 . S
C2044 C2045 1.367 . S
C2044 C2052 1.378 . S
C2045 C2044 1.367 . S
C2045 C2053 1.433 . S
C2046 H2042 0.929 . S
C2046 C2048 1.378 . S
C2046 C2050 1.350 . S
C2047 C2050 1.463 . S
C2047 C2052 1.350 . S
C2047 N2055 1.427 . S
C2048 H2039 0.930 . S
C2048 C2046 1.378 . S
C2048 C2049 1.367 . S
C2049 C2048 1.367 . S
C2049 C2051 1.433 . S
C2050 C2046 1.350 . S
C2050 C2047 1.463 . S
C2050 N2054 1.427 . S
C2051 H2041 0.929 1_655 S
C2051 C2049 1.433 . S
C2051 N2054 1.384 . S
C2052 H2043 0.929 . S
C2052 C2044 1.378 . S
C2052 C2047 1.350 . S
C2053 H2040 0.929 . S
C2053 C2045 1.433 . S
C2053 N2055 1.384 . S
N2054 C2050 1.427 . S
N2054 C2051 1.384 . S
N2055 C2047 1.427 . S
N2055 C2053 1.384 . S
H2056 C2062 0.930 . S
H2057 C2066 0.930 . S
H2058 C2071 0.929 . S
H2059 C2069 0.929 . S
H2060 C2064 0.929 . S
H2061 C2070 0.929 . S
C2062 H2056 0.930 . S
C2062 C2063 1.367 . S
C2062 C2070 1.378 . S
C2063 C2062 1.367 . S
C2063 C2071 1.433 . S
C2064 H2060 0.929 . S
C2064 C2066 1.378 . S
C2064 C2068 1.350 . S
C2065 C2068 1.463 . S
C2065 C2070 1.350 . S
C2065 N2073 1.427 . S
C2066 H2057 0.930 . S
C2066 C2064 1.378 . S
C2066 C2067 1.367 . S
C2067 C2066 1.367 . S
C2067 C2069 1.433 . S
C2068 C2064 1.350 . S
C2068 C2065 1.463 . S
C2068 N2072 1.427 . S
C2069 H2059 0.929 . S
C2069 C2067 1.433 . S
C2069 N2072 1.384 . S
C2070 H2061 0.929 . S
C2070 C2062 1.378 . S
C2070 C2065 1.350 . S
C2071 H2058 0.929 . S
C2071 C2063 1.433 . S
C2071 N2073 1.384 . S
N2072 C2068 1.427 . S
N2072 C2069 1.384 . S
N2073 C2065 1.427 . S
N2073 C2071 1.384 . S
H2074 C2080 0.930 . S
H2075 C2084 0.930 1_655 S
H2076 C2089 0.929 . S
H2077 C2087 0.929 . S
H2078 C2082 0.929 . S
H2079 C2088 0.929 . S
C2080 H2074 0.930 . S
C2080 C2081 1.367 . S
C2080 C2088 1.378 . S
C2081 C2080 1.367 . S
C2081 C2089 1.433 . S
C2082 H2078 0.929 . S
C2082 C2084 1.378 . S
C2082 C2086 1.350 . S
C2083 C2086 1.463 . S
C2083 C2088 1.350 . S
C2083 N2091 1.427 . S
C2084 H2075 0.930 1_455 S
C2084 C2082 1.378 . S
C2084 C2085 1.367 . S
C2085 C2084 1.367 . S
C2085 C2087 1.433 . S
C2086 C2082 1.350 . S
C2086 C2083 1.463 . S
C2086 N2090 1.427 . S
C2087 H2077 0.929 . S
C2087 C2085 1.433 . S
C2087 N2090 1.384 . S
C2088 H2079 0.929 . S
C2088 C2080 1.378 . S
C2088 C2083 1.350 . S
C2089 H2076 0.929 . S
C2089 C2081 1.433 . S
C2089 N2091 1.384 . S
N2090 C2086 1.427 . S
N2090 C2087 1.384 . S
N2091 C2083 1.427 . S
N2091 C2089 1.384 . S
H2092 C2098 0.930 . S
H2093 C2102 0.930 . S
H2094 C2107 0.929 . S
H2095 C2105 0.929 . S
H2096 C2100 0.929 . S
H2097 C2106 0.929 . S
C2098 H2092 0.930 . S
C2098 C2099 1.367 . S
C2098 C2106 1.378 . S
C2099 C2098 1.367 . S
C2099 C2107 1.433 . S
C2100 H2096 0.929 . S
C2100 C2102 1.378 . S
C2100 C2104 1.350 . S
C2101 C2104 1.463 . S
C2101 C2106 1.350 . S
C2101 N2109 1.427 . S
C2102 H2093 0.930 . S
C2102 C2100 1.378 . S
C2102 C2103 1.367 . S
C2103 C2102 1.367 . S
C2103 C2105 1.433 . S
C2104 C2100 1.350 . S
C2104 C2101 1.463 . S
C2104 N2108 1.427 . S
C2105 H2095 0.929 . S
C2105 C2103 1.433 . S
C2105 N2108 1.384 . S
C2106 H2097 0.929 . S
C2106 C2098 1.378 . S
C2106 C2101 1.350 . S
C2107 H2094 0.929 . S
C2107 C2099 1.433 . S
C2107 N2109 1.384 . S
N2108 C2104 1.427 . S
N2108 C2105 1.384 . S
N2109 C2101 1.427 . S
N2109 C2107 1.384 . S
H2110 C2116 0.930 . S
H2111 C2120 0.930 . S
H2112 C2125 0.929 . S
H2113 C2123 0.929 . S
H2114 C2118 0.929 . S
H2115 C2124 0.929 . S
C2116 H2110 0.930 . S
C2116 C2117 1.367 . S
C2116 C2124 1.378 . S
C2117 C2116 1.367 . S
C2117 C2125 1.433 . S
C2118 H2114 0.929 . S
C2118 C2120 1.378 . S
C2118 C2122 1.350 . S
C2119 C2122 1.463 . S
C2119 C2124 1.350 . S
C2119 N2127 1.427 . S
C2120 H2111 0.930 . S
C2120 C2118 1.378 . S
C2120 C2121 1.367 . S
C2121 C2120 1.367 . S
C2121 C2123 1.433 . S
C2122 C2118 1.350 . S
C2122 C2119 1.463 . S
C2122 N2126 1.427 . S
C2123 H2113 0.929 . S
C2123 C2121 1.433 . S
C2123 N2126 1.384 . S
C2124 H2115 0.929 . S
C2124 C2116 1.378 . S
C2124 C2119 1.350 . S
C2125 H2112 0.929 . S
C2125 C2117 1.433 . S
C2125 N2127 1.384 . S
N2126 C2122 1.427 . S
N2126 C2123 1.384 . S
N2127 C2119 1.427 . S
N2127 C2125 1.384 . S
H2128 C2134 0.930 . S
H2129 C2138 0.930 . S
H2130 C2143 0.929 . S
H2131 C2141 0.929 . S
H2132 C2136 0.929 . S
H2133 C2142 0.929 . S
C2134 H2128 0.930 . S
C2134 C2135 1.367 . S
C2134 C2142 1.378 . S
C2135 C2134 1.367 . S
C2135 C2143 1.433 . S
C2136 H2132 0.929 . S
C2136 C2138 1.378 . S
C2136 C2140 1.350 . S
C2137 C2140 1.463 . S
C2137 C2142 1.350 . S
C2137 N2145 1.427 . S
C2138 H2129 0.930 . S
C2138 C2136 1.378 . S
C2138 C2139 1.367 . S
C2139 C2138 1.367 . S
C2139 C2141 1.433 . S
C2140 C2136 1.350 . S
C2140 C2137 1.463 . S
C2140 N2144 1.427 . S
C2141 H2131 0.929 . S
C2141 C2139 1.433 . S
C2141 N2144 1.384 . S
C2142 H2133 0.929 . S
C2142 C2134 1.378 . S
C2142 C2137 1.350 . S
C2143 H2130 0.929 . S
C2143 C2135 1.433 . S
C2143 N2145 1.384 . S
N2144 C2140 1.427 . S
N2144 C2141 1.384 . S
N2145 C2137 1.427 . S
N2145 C2143 1.384 . S
H2146 C2152 0.930 . S
H2147 C2156 0.930 . S
H2148 C2161 0.929 . S
H2149 C2159 0.929 . S
H2150 C2154 0.929 . S
H2151 C2160 0.929 . S
C2152 H2146 0.930 . S
C2152 C2153 1.367 . S
C2152 C2160 1.378 . S
C2153 C2152 1.367 . S
C2153 C2161 1.433 . S
C2154 H2150 0.929 . S
C2154 C2156 1.378 . S
C2154 C2158 1.350 . S
C2155 C2158 1.463 . S
C2155 C2160 1.350 . S
C2155 N2163 1.427 . S
C2156 H2147 0.930 . S
C2156 C2154 1.378 . S
C2156 C2157 1.367 . S
C2157 C2156 1.367 . S
C2157 C2159 1.433 . S
C2158 C2154 1.350 . S
C2158 C2155 1.463 . S
C2158 N2162 1.427 . S
C2159 H2149 0.929 . S
C2159 C2157 1.433 . S
C2159 N2162 1.384 . S
C2160 H2151 0.929 . S
C2160 C2152 1.378 . S
C2160 C2155 1.350 . S
C2161 H2148 0.929 . S
C2161 C2153 1.433 . S
C2161 N2163 1.384 . S
N2162 C2158 1.427 . S
N2162 C2159 1.384 . S
N2163 C2155 1.427 . S
N2163 C2161 1.384 . S
H2164 C2170 0.930 . S
H2165 C2174 0.930 . S
H2166 C2179 0.929 . S
H2167 C2177 0.929 . S
H2168 C2172 0.929 . S
H2169 C2178 0.929 . S
C2170 H2164 0.930 . S
C2170 C2171 1.367 . S
C2170 C2178 1.378 . S
C2171 C2170 1.367 . S
C2171 C2179 1.433 . S
C2172 H2168 0.929 . S
C2172 C2174 1.378 . S
C2172 C2176 1.350 . S
C2173 C2176 1.463 . S
C2173 C2178 1.350 . S
C2173 N2181 1.427 . S
C2174 H2165 0.930 . S
C2174 C2172 1.378 . S
C2174 C2175 1.367 . S
C2175 C2174 1.367 . S
C2175 C2177 1.433 . S
C2176 C2172 1.350 . S
C2176 C2173 1.463 . S
C2176 N2180 1.427 . S
C2177 H2167 0.929 . S
C2177 C2175 1.433 . S
C2177 N2180 1.384 . S
C2178 H2169 0.929 . S
C2178 C2170 1.378 . S
C2178 C2173 1.350 . S
C2179 H2166 0.929 . S
C2179 C2171 1.433 . S
C2179 N2181 1.384 . S
N2180 C2176 1.427 . S
N2180 C2177 1.384 . S
N2181 C2173 1.427 . S
N2181 C2179 1.384 . S
H2182 C2188 0.930 . S
H2183 C2192 0.930 . S
H2184 C2197 0.929 . S
H2185 C2195 0.929 . S
H2186 C2190 0.929 . S
H2187 C2196 0.929 . S
C2188 H2182 0.930 . S
C2188 C2189 1.367 . S
C2188 C2196 1.378 . S
C2189 C2188 1.367 . S
C2189 C2197 1.433 . S
C2190 H2186 0.929 . S
C2190 C2192 1.378 . S
C2190 C2194 1.350 . S
C2191 C2194 1.463 . S
C2191 C2196 1.350 . S
C2191 N2199 1.427 . S
C2192 H2183 0.930 . S
C2192 C2190 1.378 . S
C2192 C2193 1.367 . S
C2193 C2192 1.367 . S
C2193 C2195 1.433 . S
C2194 C2190 1.350 . S
C2194 C2191 1.463 . S
C2194 N2198 1.427 . S
C2195 H2185 0.929 . S
C2195 C2193 1.433 . S
C2195 N2198 1.384 . S
C2196 H2187 0.929 . S
C2196 C2188 1.378 . S
C2196 C2191 1.350 . S
C2197 H2184 0.929 . S
C2197 C2189 1.433 . S
C2197 N2199 1.384 . S
N2198 C2194 1.427 . S
N2198 C2195 1.384 . S
N2199 C2191 1.427 . S
N2199 C2197 1.384 . S
H2200 C2206 0.930 . S
H2201 C2210 0.930 . S
H2202 C2215 0.929 . S
H2203 C2213 0.929 . S
H2204 C2208 0.929 . S
H2205 C2214 0.929 . S
C2206 H2200 0.930 . S
C2206 C2207 1.367 . S
C2206 C2214 1.378 . S
C2207 C2206 1.367 . S
C2207 C2215 1.433 . S
C2208 H2204 0.929 . S
C2208 C2210 1.378 . S
C2208 C2212 1.350 . S
C2209 C2212 1.463 . S
C2209 C2214 1.350 . S
C2209 N2217 1.427 . S
C2210 H2201 0.930 . S
C2210 C2208 1.378 . S
C2210 C2211 1.367 . S
C2211 C2210 1.367 . S
C2211 C2213 1.433 . S
C2212 C2208 1.350 . S
C2212 C2209 1.463 . S
C2212 N2216 1.427 . S
C2213 H2203 0.929 . S
C2213 C2211 1.433 . S
C2213 N2216 1.384 . S
C2214 H2205 0.929 . S
C2214 C2206 1.378 . S
C2214 C2209 1.350 . S
C2215 H2202 0.929 . S
C2215 C2207 1.433 . S
C2215 N2217 1.384 . S
N2216 C2212 1.427 . S
N2216 C2213 1.384 . S
N2217 C2209 1.427 . S
N2217 C2215 1.384 . S
H2218 C2224 0.930 . S
H2219 C2228 0.930 . S
H2220 C2233 0.929 . S
H2221 C2231 0.929 . S
H2222 C2226 0.929 . S
H2223 C2232 0.929 . S
C2224 H2218 0.930 . S
C2224 C2225 1.367 . S
C2224 C2232 1.378 . S
C2225 C2224 1.367 . S
C2225 C2233 1.433 . S
C2226 H2222 0.929 . S
C2226 C2228 1.378 . S
C2226 C2230 1.350 . S
C2227 C2230 1.463 . S
C2227 C2232 1.350 . S
C2227 N2235 1.427 . S
C2228 H2219 0.930 . S
C2228 C2226 1.378 . S
C2228 C2229 1.367 . S
C2229 C2228 1.367 . S
C2229 C2231 1.433 . S
C2230 C2226 1.350 . S
C2230 C2227 1.463 . S
C2230 N2234 1.427 . S
C2231 H2221 0.929 . S
C2231 C2229 1.433 . S
C2231 N2234 1.384 . S
C2232 H2223 0.929 . S
C2232 C2224 1.378 . S
C2232 C2227 1.350 . S
C2233 H2220 0.929 . S
C2233 C2225 1.433 . S
C2233 N2235 1.384 . S
N2234 C2230 1.427 . S
N2234 C2231 1.384 . S
N2235 C2227 1.427 . S
N2235 C2233 1.384 . S
H2236 C2242 0.930 . S
H2237 C2246 0.930 . S
H2238 C2251 0.929 . S
H2239 C2249 0.929 . S
H2240 C2244 0.929 . S
H2241 C2250 0.929 . S
C2242 H2236 0.930 . S
C2242 C2243 1.367 . S
C2242 C2250 1.378 . S
C2243 C2242 1.367 . S
C2243 C2251 1.433 . S
C2244 H2240 0.929 . S
C2244 C2246 1.378 . S
C2244 C2248 1.350 . S
C2245 C2248 1.463 . S
C2245 C2250 1.350 . S
C2245 N2253 1.427 . S
C2246 H2237 0.930 . S
C2246 C2244 1.378 . S
C2246 C2247 1.367 . S
C2247 C2246 1.367 . S
C2247 C2249 1.433 . S
C2248 C2244 1.350 . S
C2248 C2245 1.463 . S
C2248 N2252 1.427 . S
C2249 H2239 0.929 . S
C2249 C2247 1.433 . S
C2249 N2252 1.384 . S
C2250 H2241 0.929 . S
C2250 C2242 1.378 . S
C2250 C2245 1.350 . S
C2251 H2238 0.929 . S
C2251 C2243 1.433 . S
C2251 N2253 1.384 . S
N2252 C2248 1.427 . S
N2252 C2249 1.384 . S
N2253 C2245 1.427 . S
N2253 C2251 1.384 . S
H2254 C2260 0.930 . S
H2255 C2264 0.930 . S
H2256 C2269 0.929 . S
H2257 C2267 0.929 . S
H2258 C2262 0.929 . S
H2259 C2268 0.929 . S
C2260 H2254 0.930 . S
C2260 C2261 1.367 . S
C2260 C2268 1.378 . S
C2261 C2260 1.367 . S
C2261 C2269 1.433 . S
C2262 H2258 0.929 . S
C2262 C2264 1.378 . S
C2262 C2266 1.350 . S
C2263 C2266 1.463 . S
C2263 C2268 1.350 . S
C2263 N2271 1.427 . S
C2264 H2255 0.930 . S
C2264 C2262 1.378 . S
C2264 C2265 1.367 . S
C2265 C2264 1.367 . S
C2265 C2267 1.433 . S
C2266 C2262 1.350 . S
C2266 C2263 1.463 . S
C2266 N2270 1.427 . S
C2267 H2257 0.929 . S
C2267 C2265 1.433 . S
C2267 N2270 1.384 . S
C2268 H2259 0.929 . S
C2268 C2260 1.378 . S
C2268 C2263 1.350 . S
C2269 H2256 0.929 . S
C2269 C2261 1.433 . S
C2269 N2271 1.384 . S
N2270 C2266 1.427 . S
N2270 C2267 1.384 . S
N2271 C2263 1.427 . S
N2271 C2269 1.384 . S
H2272 C2278 0.930 . S
H2273 C2282 0.930 . S
H2274 C2287 0.929 . S
H2275 C2285 0.929 . S
H2276 C2280 0.929 . S
H2277 C2286 0.929 . S
C2278 H2272 0.930 . S
C2278 C2279 1.367 . S
C2278 C2286 1.378 . S
C2279 C2278 1.367 . S
C2279 C2287 1.433 . S
C2280 H2276 0.929 . S
C2280 C2282 1.378 . S
C2280 C2284 1.350 . S
C2281 C2284 1.463 . S
C2281 C2286 1.350 . S
C2281 N2289 1.427 . S
C2282 H2273 0.930 . S
C2282 C2280 1.378 . S
C2282 C2283 1.367 . S
C2283 C2282 1.367 . S
C2283 C2285 1.433 . S
C2284 C2280 1.350 . S
C2284 C2281 1.463 . S
C2284 N2288 1.427 . S
C2285 H2275 0.929 . S
C2285 C2283 1.433 . S
C2285 N2288 1.384 . S
C2286 H2277 0.929 . S
C2286 C2278 1.378 . S
C2286 C2281 1.350 . S
C2287 H2274 0.929 . S
C2287 C2279 1.433 . S
C2287 N2289 1.384 . S
N2288 C2284 1.427 . S
N2288 C2285 1.384 . S
N2289 C2281 1.427 . S
N2289 C2287 1.384 . S
H2290 C2296 0.930 . S
H2291 C2300 0.930 . S
H2292 C2305 0.929 . S
H2293 C2303 0.929 . S
H2294 C2298 0.929 . S
H2295 C2304 0.929 . S
C2296 H2290 0.930 . S
C2296 C2297 1.367 . S
C2296 C2304 1.378 . S
C2297 C2296 1.367 . S
C2297 C2305 1.433 . S
C2298 H2294 0.929 . S
C2298 C2300 1.378 . S
C2298 C2302 1.350 . S
C2299 C2302 1.463 . S
C2299 C2304 1.350 . S
C2299 N2307 1.427 . S
C2300 H2291 0.930 . S
C2300 C2298 1.378 . S
C2300 C2301 1.367 . S
C2301 C2300 1.367 . S
C2301 C2303 1.433 . S
C2302 C2298 1.350 . S
C2302 C2299 1.463 . S
C2302 N2306 1.427 . S
C2303 H2293 0.929 . S
C2303 C2301 1.433 . S
C2303 N2306 1.384 . S
C2304 H2295 0.929 . S
C2304 C2296 1.378 . S
C2304 C2299 1.350 . S
C2305 H2292 0.929 . S
C2305 C2297 1.433 . S
C2305 N2307 1.384 . S
N2306 C2302 1.427 . S
N2306 C2303 1.384 . S
N2307 C2299 1.427 . S
N2307 C2305 1.384 . S
H2308 C2314 0.930 . S
H2309 C2318 0.930 . S
H2310 C2323 0.929 . S
H2311 C2321 0.929 . S
H2312 C2316 0.929 . S
H2313 C2322 0.929 . S
C2314 H2308 0.930 . S
C2314 C2315 1.367 . S
C2314 C2322 1.378 . S
C2315 C2314 1.367 . S
C2315 C2323 1.433 . S
C2316 H2312 0.929 . S
C2316 C2318 1.378 . S
C2316 C2320 1.350 . S
C2317 C2320 1.463 . S
C2317 C2322 1.350 . S
C2317 N2325 1.427 . S
C2318 H2309 0.930 . S
C2318 C2316 1.378 . S
C2318 C2319 1.367 . S
C2319 C2318 1.367 . S
C2319 C2321 1.433 . S
C2320 C2316 1.350 . S
C2320 C2317 1.463 . S
C2320 N2324 1.427 . S
C2321 H2311 0.929 . S
C2321 C2319 1.433 . S
C2321 N2324 1.384 . S
C2322 H2313 0.929 . S
C2322 C2314 1.378 . S
C2322 C2317 1.350 . S
C2323 H2310 0.929 . S
C2323 C2315 1.433 . S
C2323 N2325 1.384 . S
N2324 C2320 1.427 . S
N2324 C2321 1.384 . S
N2325 C2317 1.427 . S
N2325 C2323 1.384 . S
H2326 C2332 0.930 . S
H2327 C2336 0.930 . S
H2328 C2341 0.929 . S
H2329 C2339 0.929 . S
H2330 C2334 0.929 . S
H2331 C2340 0.929 . S
C2332 H2326 0.930 . S
C2332 C2333 1.367 . S
C2332 C2340 1.378 . S
C2333 C2332 1.367 . S
C2333 C2341 1.433 . S
C2334 H2330 0.929 . S
C2334 C2336 1.378 . S
C2334 C2338 1.350 . S
C2335 C2338 1.463 . S
C2335 C2340 1.350 . S
C2335 N2343 1.427 . S
C2336 H2327 0.930 . S
C2336 C2334 1.378 . S
C2336 C2337 1.367 . S
C2337 C2336 1.367 . S
C2337 C2339 1.433 . S
C2338 C2334 1.350 . S
C2338 C2335 1.463 . S
C2338 N2342 1.427 . S
C2339 H2329 0.929 . S
C2339 C2337 1.433 . S
C2339 N2342 1.384 . S
C2340 H2331 0.929 . S
C2340 C2332 1.378 . S
C2340 C2335 1.350 . S
C2341 H2328 0.929 . S
C2341 C2333 1.433 . S
C2341 N2343 1.384 . S
N2342 C2338 1.427 . S
N2342 C2339 1.384 . S
N2343 C2335 1.427 . S
N2343 C2341 1.384 . S
H2344 C2350 0.930 . S
H2345 C2354 0.930 . S
H2346 C2359 0.929 . S
H2347 C2357 0.929 . S
H2348 C2352 0.929 . S
H2349 C2358 0.929 . S
C2350 H2344 0.930 . S
C2350 C2351 1.367 . S
C2350 C2358 1.378 . S
C2351 C2350 1.367 . S
C2351 C2359 1.433 . S
C2352 H2348 0.929 . S
C2352 C2354 1.378 . S
C2352 C2356 1.350 . S
C2353 C2356 1.463 . S
C2353 C2358 1.350 . S
C2353 N2361 1.427 . S
C2354 H2345 0.930 . S
C2354 C2352 1.378 . S
C2354 C2355 1.367 . S
C2355 C2354 1.367 . S
C2355 C2357 1.433 . S
C2356 C2352 1.350 . S
C2356 C2353 1.463 . S
C2356 N2360 1.427 . S
C2357 H2347 0.929 . S
C2357 C2355 1.433 . S
C2357 N2360 1.384 . S
C2358 H2349 0.929 . S
C2358 C2350 1.378 . S
C2358 C2353 1.350 . S
C2359 H2346 0.929 . S
C2359 C2351 1.433 . S
C2359 N2361 1.384 . S
N2360 C2356 1.427 . S
N2360 C2357 1.384 . S
N2361 C2353 1.427 . S
N2361 C2359 1.384 . S
H2362 C2368 0.930 . S
H2363 C2372 0.930 . S
H2364 C2377 0.929 . S
H2365 C2375 0.929 . S
H2366 C2370 0.929 . S
H2367 C2376 0.929 . S
C2368 H2362 0.930 . S
C2368 C2369 1.367 . S
C2368 C2376 1.378 . S
C2369 C2368 1.367 . S
C2369 C2377 1.433 . S
C2370 H2366 0.929 . S
C2370 C2372 1.378 . S
C2370 C2374 1.350 . S
C2371 C2374 1.463 . S
C2371 C2376 1.350 . S
C2371 N2379 1.427 . S
C2372 H2363 0.930 . S
C2372 C2370 1.378 . S
C2372 C2373 1.367 . S
C2373 C2372 1.367 . S
C2373 C2375 1.433 . S
C2374 C2370 1.350 . S
C2374 C2371 1.463 . S
C2374 N2378 1.427 . S
C2375 H2365 0.929 . S
C2375 C2373 1.433 . S
C2375 N2378 1.384 . S
C2376 H2367 0.929 . S
C2376 C2368 1.378 . S
C2376 C2371 1.350 . S
C2377 H2364 0.929 . S
C2377 C2369 1.433 . S
C2377 N2379 1.384 . S
N2378 C2374 1.427 . S
N2378 C2375 1.384 . S
N2379 C2371 1.427 . S
N2379 C2377 1.384 . S
H2380 C2386 0.930 . S
H2381 C2390 0.930 1_545 S
H2382 C2395 0.929 . S
H2383 C2393 0.929 . S
H2384 C2388 0.929 . S
H2385 C2394 0.929 . S
C2386 H2380 0.930 . S
C2386 C2387 1.367 . S
C2386 C2394 1.378 . S
C2387 C2386 1.367 . S
C2387 C2395 1.433 . S
C2388 H2384 0.929 . S
C2388 C2390 1.378 . S
C2388 C2392 1.350 . S
C2389 C2392 1.463 . S
C2389 C2394 1.350 . S
C2389 N2397 1.427 . S
C2390 H2381 0.930 1_565 S
C2390 C2388 1.378 . S
C2390 C2391 1.367 . S
C2391 C2390 1.367 . S
C2391 C2393 1.433 . S
C2392 C2388 1.350 . S
C2392 C2389 1.463 . S
C2392 N2396 1.427 . S
C2393 H2383 0.929 . S
C2393 C2391 1.433 . S
C2393 N2396 1.384 . S
C2394 H2385 0.929 . S
C2394 C2386 1.378 . S
C2394 C2389 1.350 . S
C2395 H2382 0.929 . S
C2395 C2387 1.433 . S
C2395 N2397 1.384 . S
N2396 C2392 1.427 . S
N2396 C2393 1.384 . S
N2397 C2389 1.427 . S
N2397 C2395 1.384 . S
H2398 C2404 0.930 . S
H2399 C2408 0.930 . S
H2400 C2413 0.929 . S
H2401 C2411 0.929 . S
H2402 C2406 0.929 . S
H2403 C2412 0.929 . S
C2404 H2398 0.930 . S
C2404 C2405 1.367 . S
C2404 C2412 1.378 . S
C2405 C2404 1.367 . S
C2405 C2413 1.433 . S
C2406 H2402 0.929 . S
C2406 C2408 1.378 . S
C2406 C2410 1.350 . S
C2407 C2410 1.463 . S
C2407 C2412 1.350 . S
C2407 N2415 1.427 . S
C2408 H2399 0.930 . S
C2408 C2406 1.378 . S
C2408 C2409 1.367 . S
C2409 C2408 1.367 . S
C2409 C2411 1.433 . S
C2410 C2406 1.350 . S
C2410 C2407 1.463 . S
C2410 N2414 1.427 . S
C2411 H2401 0.929 . S
C2411 C2409 1.433 . S
C2411 N2414 1.384 . S
C2412 H2403 0.929 . S
C2412 C2404 1.378 . S
C2412 C2407 1.350 . S
C2413 H2400 0.929 . S
C2413 C2405 1.433 . S
C2413 N2415 1.384 . S
N2414 C2410 1.427 . S
N2414 C2411 1.384 . S
N2415 C2407 1.427 . S
N2415 C2413 1.384 . S
H2416 C2422 0.930 . S
H2417 C2426 0.930 . S
H2418 C2431 0.929 . S
H2419 C2429 0.929 . S
H2420 C2424 0.929 . S
H2421 C2430 0.929 . S
C2422 H2416 0.930 . S
C2422 C2423 1.367 . S
C2422 C2430 1.378 . S
C2423 C2422 1.367 . S
C2423 C2431 1.433 . S
C2424 H2420 0.929 . S
C2424 C2426 1.378 . S
C2424 C2428 1.350 . S
C2425 C2428 1.463 . S
C2425 C2430 1.350 . S
C2425 N2433 1.427 . S
C2426 H2417 0.930 . S
C2426 C2424 1.378 . S
C2426 C2427 1.367 . S
C2427 C2426 1.367 . S
C2427 C2429 1.433 . S
C2428 C2424 1.350 . S
C2428 C2425 1.463 . S
C2428 N2432 1.427 . S
C2429 H2419 0.929 . S
C2429 C2427 1.433 . S
C2429 N2432 1.384 . S
C2430 H2421 0.929 . S
C2430 C2422 1.378 . S
C2430 C2425 1.350 . S
C2431 H2418 0.929 . S
C2431 C2423 1.433 . S
C2431 N2433 1.384 . S
N2432 C2428 1.427 . S
N2432 C2429 1.384 . S
N2433 C2425 1.427 . S
N2433 C2431 1.384 . S
H2434 C2440 0.930 . S
H2435 C2444 0.930 . S
H2436 C2449 0.929 . S
H2437 C2447 0.929 . S
H2438 C2442 0.929 . S
H2439 C2448 0.929 . S
C2440 H2434 0.930 . S
C2440 C2441 1.367 . S
C2440 C2448 1.378 . S
C2441 C2440 1.367 . S
C2441 C2449 1.433 . S
C2442 H2438 0.929 . S
C2442 C2444 1.378 . S
C2442 C2446 1.350 . S
C2443 C2446 1.463 . S
C2443 C2448 1.350 . S
C2443 N2451 1.427 . S
C2444 H2435 0.930 . S
C2444 C2442 1.378 . S
C2444 C2445 1.367 . S
C2445 C2444 1.367 . S
C2445 C2447 1.433 . S
C2446 C2442 1.350 . S
C2446 C2443 1.463 . S
C2446 N2450 1.427 . S
C2447 H2437 0.929 . S
C2447 C2445 1.433 . S
C2447 N2450 1.384 . S
C2448 H2439 0.929 . S
C2448 C2440 1.378 . S
C2448 C2443 1.350 . S
C2449 H2436 0.929 . S
C2449 C2441 1.433 . S
C2449 N2451 1.384 . S
N2450 C2446 1.427 . S
N2450 C2447 1.384 . S
N2451 C2443 1.427 . S
N2451 C2449 1.384 . S
C735 C381 1.157 . S
C731 C226 1.205 . S
C753 C384 1.539 . S
C749 C269 1.620 . S
C771 C372 1.047 . S
C767 C250 1.088 . S
C785 C205 1.770 . S
C789 C385 1.658 . S
C807 C416 1.174 . S
C803 C115 1.209 . S
C821 C136 1.783 . S
C825 C443 1.669 . S
C843 C415 1.046 . S
C839 C158 1.093 . S
C857 C97 1.639 . S
C861 C434 1.554 . S
C875 C314 1.228 . S
C879 C447 1.190 . S
C893 C336 1.741 . S
C897 C478 1.635 . S
C915 C536 1.172 . S
C911 C180 1.217 . S
C933 C558 1.575 . S
C929 C294 1.665 . S
C951 C446 1.035 . S
C947 C70 1.082 . S
C969 C477 1.576 . S
C965 C6 1.660 . S
C983 C31 1.062 . S
C987 C527 1.029 . S
C1001 C53 1.734 . S
C1005 C567 1.625 . S
C1019 C29 1.226 . S
C1023 C505 1.185 . S
C1041 C571 1.208 . S
C1037 C181 1.253 . S
C1055 C293 1.749 . S
C1059 C602 1.640 . S
C1077 C651 1.023 . S
C1073 C312 1.065 . S
C1091 C137 1.779 . S
C1095 C509 1.668 . S
C1113 C570 1.005 . S
C1109 C225 1.048 . S
C1131 C601 1.542 . S
C1127 C270 1.626 . S
C1149 C682 1.575 . S
C1145 C206 1.660 . S
C1163 C72 1.216 . S
C1167 C412 1.159 . S
C1181 C4 1.612 . S
C1185 C353 1.526 . S
C1203 C403 1.051 . S
C1199 C30 1.075 . S
C1217 C51 1.781 . S
C1221 C354 1.679 . S
C1235 C313 1.210 . S
C1239 C695 1.166 . S
C1253 C334 1.784 . S
C1257 C722 1.668 . S
C1275 C694 1.044 . S
C1271 C182 1.083 . S
C1289 C295 1.634 . S
C1293 C713 1.548 . S
C1307 C116 1.225 . S
C1311 C629 1.180 . S
C1329 C633 1.627 . S
C1325 C138 1.738 . S
C1347 C664 1.161 . S
C1343 C159 1.227 . S
C1365 C589 1.581 . S
C1361 C96 1.670 . S
C1383 C620 1.054 . S
C1379 C224 1.074 . S
C1397 C268 1.675 . S
C1401 C632 1.595 . S
C1415 C251 1.067 . S
C1419 C663 1.046 . S
C1437 C598 1.641 . S
C1433 C207 1.744 . S
C1451 C249 1.230 . S
C1455 C660 1.191 . S
C1473 C540 1.207 . S
C1469 C160 1.253 . S
C1487 C95 1.760 . S
C1491 C474 1.661 . S
C1505 C114 1.064 . S
C1509 C496 1.049 . S
C1523 C335 1.768 . S
C1527 C691 1.652 . S
C1541 C71 1.046 . S
C1545 C539 1.029 . S
C1559 C5 1.629 . S
C1563 C465 1.542 . S
C1581 C508 1.561 . S
C1577 C52 1.651 . S
C1599 C352 1.526 . S
C1595 C339 1.459 . S
C1617 C402 1.938 . S
C1613 C184 1.891 . S
C1635 C362 1.368 . S
C1631 C290 1.384 . S
C1653 C413 1.795 . S
C1649 C317 1.805 1_565 S
C1671 C433 1.495 . S
C1667 C204 1.411 . S
C1685 C228 1.787 . S
C1689 C424 1.776 . S
C1703 C272 1.339 . S
C1707 C444 1.325 . S
C1721 C248 1.873 1_565 S
C1725 C414 1.902 . S
C1743 C464 1.485 . S
C1739 C49 1.412 . S
C1761 C506 1.765 . S
C1757 C75 1.775 . S
C1775 C8 1.396 . S
C1779 C507 1.482 . S
C1797 C538 1.899 . S
C1793 C26 1.862 . S
C1811 C140 1.382 . S
C1815 C475 1.370 . S
C1833 C495 1.933 . S
C1829 C162 1.896 1_455 S
C1851 C517 1.353 . S
C1847 C94 1.365 . S
C1865 C117 1.815 1_655 S
C1869 C548 1.807 . S
C1887 C476 1.447 . S
C1883 C93 1.373 . S
C1901 C7 1.381 . S
C1905 C588 1.452 . S
C1919 C27 1.796 1_556 S
C1923 C630 1.786 . S
C1937 C48 1.428 . S
C1941 C641 1.417 . S
C1959 C537 1.814 . S
C1955 C227 1.826 . S
C1977 C599 1.394 . S
C1973 C337 1.413 . S
C1991 C183 1.863 . S
C1995 C619 1.891 . S
C2013 C662 1.918 . S
C2009 C316 1.891 . S
C2031 C383 1.525 . S
C2027 C141 1.462 . S
C2045 C161 1.896 1_545 S
C2049 C371 1.940 . S
C2063 C92 1.377 . S
C2067 C393 1.362 . S
C2081 C119 1.808 . S
C2085 C382 1.795 . S
C2103 C712 1.493 . S
C2099 C50 1.413 . S
C2121 C703 1.776 . S
C2117 C74 1.785 1_545 S
C2135 C9 1.332 . S
C2139 C723 1.324 . S
C2153 C28 1.864 . S
C2157 C693 1.902 . S
C2171 C203 1.424 . S
C2175 C600 1.487 . S
C2193 C661 1.765 . S
C2189 C229 1.774 1_655 S
C2211 C681 1.473 . S
C2207 C271 1.403 . S
C2225 C246 1.861 1_455 S
C2229 C569 1.900 . S
C2247 C610 1.373 . S
C2243 C338 1.390 . S
C2261 C185 1.902 . S
C2265 C650 1.930 . S
C2283 C692 1.362 . S
C2279 C292 1.379 . S
C2297 C315 1.810 . S
C2301 C579 1.798 . S
C2315 C291 1.380 . S
C2319 C631 1.446 . S
C2333 C273 1.368 . S
C2337 C557 1.444 . S
C2355 C455 1.790 . S
C2351 C247 1.797 . S
C2369 C202 1.427 . S
C2373 C486 1.421 . S
C2387 C73 1.823 1_556 S
C2391 C672 1.811 . S
C2405 C139 1.410 . S
C2409 C568 1.392 . S
C2427 C445 1.891 . S
C2423 C163 1.865 1_554 S
C2441 C118 1.882 1_554 S
C2445 C526 1.924 . S
