# Generated by pormake.
# Topology tsx, (6,3)-cn, num edge types: 1
# Building blocks:
#     Node 0, Type 0, BuildingBlock: MIDCAF_clean_sbu_0, # of connection points: 6
#     Node 1, Type 0, BuildingBlock: MIDCAF_clean_sbu_0, # of connection points: 6
#     Node 2, Type 1, BuildingBlock: WUSLED_clean_sbu_0, # of connection points: 3
#     Node 3, Type 1, BuildingBlock: WUSLED_clean_sbu_0, # of connection points: 3
#     Node 4, Type 1, BuildingBlock: WUSLED_clean_sbu_0, # of connection points: 3
#     Node 5, Type 1, BuildingBlock: WUSLED_clean_sbu_0, # of connection points: 3
#     Edge 6, Type (0, 1), BuildingBlock: MIFKUJ_clean_linker_0, # of connection points: 2
#     Edge 7, Type (0, 1), BuildingBlock: MIFKUJ_clean_linker_0, # of connection points: 2
#     Edge 8, Type (0, 1), BuildingBlock: MIFKUJ_clean_linker_0, # of connection points: 2
#     Edge 9, Type (0, 1), BuildingBlock: MIFKUJ_clean_linker_0, # of connection points: 2
#     Edge 10, Type (0, 1), BuildingBlock: MIFKUJ_clean_linker_0, # of connection points: 2
#     Edge 11, Type (0, 1), BuildingBlock: MIFKUJ_clean_linker_0, # of connection points: 2
#     Edge 12, Type (0, 1), BuildingBlock: MIFKUJ_clean_linker_0, # of connection points: 2
#     Edge 13, Type (0, 1), BuildingBlock: MIFKUJ_clean_linker_0, # of connection points: 2
#     Edge 14, Type (0, 1), BuildingBlock: MIFKUJ_clean_linker_0, # of connection points: 2
#     Edge 15, Type (0, 1), BuildingBlock: MIFKUJ_clean_linker_0, # of connection points: 2
#     Edge 16, Type (0, 1), BuildingBlock: MIFKUJ_clean_linker_0, # of connection points: 2
#     Edge 17, Type (0, 1), BuildingBlock: MIFKUJ_clean_linker_0, # of connection points: 2
# Relax obj value: 0.113
# Max RMSD: 0.180
# Mean RMSD: 0.108
data_MOF--net-tsx--node1-MIDCAF_clean_sbu_0--node2-WUSLED_clean_sbu_0--edge1-MIFKUJ_clean_linker_0
_symmetry_space_group_name_H-M    P1
_symmetry_Int_Tables_number       1
_symmetry_cell_setting            triclinic
loop_
_symmetry_equiv_pos_as_xyz
'x, y, z'
_cell_length_a     31.253589
_cell_length_b     32.297068
_cell_length_c     60.970515
_cell_angle_alpha  90.72445
_cell_angle_beta   93.997319
_cell_angle_gamma 90.190545
loop_
_atom_site_label
_atom_site_type_symbol
_atom_site_fract_x
_atom_site_fract_y
_atom_site_fract_z
_atom_type_partial_charge
Zn0 Zn 0.97762 0.01162 0.98451 0.0
Zn1 Zn 0.11741 0.02643 0.03526 0.0
Zn2 Zn 0.04574 0.02437 0.00947 0.0
C3 C 0.09721 0.10858 0.02256 0.0
C4 C 0.13521 0.97753 0.99939 0.0
O5 O 0.99862 0.98521 0.027 0.0
O6 O 0.94704 0.97121 1.00133 0.0
C7 C 0.9832 0.0976 0.99509 0.0
O8 O 0.06311 0.09137 0.01333 0.0
O9 O 0.1257 0.08702 0.03262 0.0
O10 O 0.15249 0.98934 0.01775 0.0
O11 O 0.09662 0.9889 0.9934 0.0
O12 O 0.9585 0.06966 0.98679 0.0
O13 O 0.02089 0.08803 0.00337 0.0
O14 O 0.06276 0.99595 0.97766 0.0
O15 O 1.00163 0.99233 0.95713 0.0
C16 C 0.04172 0.98753 0.95916 0.0
O17 O 0.03247 0.99813 0.04182 0.0
O18 O 0.09365 1.00484 0.06218 0.0
C19 C 0.96317 0.96644 0.02066 0.0
C20 C 0.05455 0.99455 0.06039 0.0
Zn21 Zn 0.61579 0.52715 0.52937 0.0
Zn22 Zn 0.475 0.51328 0.48763 0.0
Zn23 Zn 0.54819 0.52257 0.50938 0.0
C24 C 0.53686 0.48578 0.45995 0.0
C25 C 0.48691 0.59872 0.49644 0.0
O26 O 0.53848 0.49987 0.54289 0.0
O27 O 0.59362 0.53372 0.55894 0.0
C28 C 0.62681 0.46273 0.5022 0.0
O29 O 0.56119 0.49288 0.47758 0.0
O30 O 0.49703 0.49238 0.45972 0.0
O31 O 0.45866 0.5724 0.48999 0.0
O32 O 0.52485 0.58676 0.50311 0.0
O33 O 0.63968 0.47256 0.52163 0.0
O34 O 0.59534 0.4828 0.49257 0.0
O35 O 0.56794 0.58933 0.51192 0.0
O36 O 0.63753 0.57783 0.51558 0.0
C37 C 0.6069 0.60282 0.51222 0.0
O38 O 0.50423 0.48467 0.52927 0.0
O39 O 0.4466 0.47443 0.50658 0.0
C40 C 0.55924 0.51374 0.56049 0.0
C41 C 0.4669 0.468 0.5248 0.0
C42 C 1.00433 0.11189 0.4293 0.0
C43 C 0.97246 0.12077 0.41267 0.0
C44 C 0.93699 0.16702 0.43757 0.0
C45 C 0.93912 0.14806 0.41676 0.0
C46 C 0.96911 0.15791 0.45417 0.0
C47 C 1.00244 0.13061 0.45005 0.0
U48 U 0.05952 0.04345 0.38936 0.0
O49 O 0.12799 0.03489 0.38367 0.0
O50 O 0.08875 0.98186 0.39246 0.0
C51 C 0.12715 0.99533 0.38845 0.0
C52 C 0.03973 0.08357 0.42494 0.0
C53 C 0.16367 0.97912 0.40246 0.0
C54 C 0.19328 0.94781 0.4363 0.0
C55 C 0.15977 0.96836 0.42448 0.0
C56 C 0.23564 0.95019 0.40458 0.0
C57 C 0.23131 0.9376 0.42633 0.0
C58 C 0.20219 0.97066 0.39281 0.0
C59 C 1.00601 0.03717 0.33044 0.0
C60 C 0.03837 0.02105 0.29624 0.0
C61 C 0.96126 0.01699 0.29783 0.0
C62 C 0.96546 0.02881 0.32001 0.0
C63 C 0.9976 0.0135 0.28556 0.0
C64 C 0.04255 0.03265 0.31848 0.0
C65 C 1.00899 0.05206 0.35345 0.0
O66 O 0.02837 0.04492 0.42065 0.0
O67 O 0.06718 0.09777 0.41146 0.0
O68 O 0.04084 0.0775 0.35925 0.0
O69 O 1.00246 0.02417 0.36838 0.0
H70 H 0.97339 0.10656 0.39652 0.0
H71 H 0.91474 0.1539 0.40367 0.0
H72 H 0.9689 0.17235 0.47029 0.0
H73 H 0.02687 0.12428 0.46306 0.0
H74 H 0.18904 0.93914 0.45311 0.0
H75 H 0.13039 0.97469 0.43233 0.0
H76 H 0.26407 0.94248 0.39622 0.0
H77 H 0.2058 0.97848 0.3758 0.0
H78 H 0.06703 0.01915 0.28728 0.0
H79 H 0.92946 0.01073 0.29029 0.0
H80 H 0.93689 0.03194 0.32899 0.0
H81 H 0.07424 0.03882 0.3262 0.0
C82 C 0.95013 0.99298 0.58372 0.0
C83 C 0.9303 0.96685 0.59823 0.0
C84 C 0.88003 0.94212 0.56839 0.0
C85 C 0.89558 0.9417 0.59065 0.0
C86 C 0.89985 0.96879 0.55402 0.0
C87 C 0.93452 0.99394 0.56162 0.0
U88 U 0.03189 0.02981 0.62921 0.0
O89 O 0.10117 0.0421 0.62909 0.0
O90 O 0.05762 0.0921 0.63764 0.0
C91 C 0.09719 0.08158 0.63408 0.0
C92 C 0.9873 0.01895 0.59137 0.0
C93 C 0.12315 0.11188 0.62252 0.0
C94 C 0.18045 0.1277 0.5987 0.0
C95 C 0.15154 0.09935 0.60681 0.0
C96 C 0.15236 0.18183 0.62134 0.0
C97 C 0.18172 0.16918 0.60614 0.0
C98 C 0.12359 0.15353 0.62946 0.0
C99 C 0.0262 0.98564 0.6868 0.0
C100 C 0.07796 1.00381 0.71705 0.0
C101 C 0.01637 0.9611 0.72358 0.0
C102 C 1.00257 0.9632 0.70132 0.0
C103 C 0.05423 0.9814 0.73178 0.0
C104 C 0.06403 1.00594 0.69475 0.0
C105 C 0.01053 0.98812 0.66354 0.0
O106 O 0.9794 0.0486 0.60548 0.0
O107 O 0.02283 0.99875 0.59684 0.0
O108 O 0.03656 0.97365 0.64928 0.0
O109 O 0.99283 0.02347 0.65765 0.0
H110 H 0.94198 0.96561 0.61536 0.0
H111 H 0.88158 0.9212 0.60214 0.0
H112 H 0.88847 0.97037 0.53686 0.0
H113 H 0.94929 0.01402 0.55019 0.0
H114 H 0.2022 0.11698 0.58679 0.0
H115 H 0.15235 0.06742 0.60121 0.0
H116 H 0.15274 0.2133 0.62771 0.0
H117 H 0.10268 0.16395 0.64184 0.0
H118 H 0.10743 0.01949 0.72273 0.0
H119 H 0.99683 0.94422 0.73445 0.0
H120 H 0.97316 0.94755 0.69547 0.0
H121 H 0.08267 0.02349 0.68373 0.0
C122 C 0.47889 0.5962 0.93415 0.0
C123 C 0.44748 0.60371 0.91708 0.0
C124 C 0.41417 0.65553 0.93968 0.0
C125 C 0.41536 0.63299 0.91983 0.0
C126 C 0.44543 0.64741 0.95685 0.0
C127 C 0.4775 0.618 0.95409 0.0
U128 U 0.53873 0.53123 0.89492 0.0
O129 O 0.60798 0.52356 0.89128 0.0
O130 O 0.56772 0.46937 0.89703 0.0
C131 C 0.60676 0.4836 0.89505 0.0
C132 C 0.51432 0.56745 0.93068 0.0
C133 C 0.64153 0.46686 0.91008 0.0
C134 C 0.6663 0.42459 0.9412 0.0
C135 C 0.63305 0.44473 0.92902 0.0
C136 C 0.71723 0.44994 0.91635 0.0
C137 C 0.70867 0.42624 0.93474 0.0
C138 C 0.684 0.4699 0.90414 0.0
C139 C 0.49472 0.53434 0.83441 0.0
C140 C 0.5145 0.48826 0.80496 0.0
C141 C 0.47864 0.55305 0.79632 0.0
C142 C 0.47719 0.56191 0.81871 0.0
C143 C 0.49756 0.51628 0.78918 0.0
C144 C 0.51331 0.49732 0.82744 0.0
C145 C 0.49368 0.54543 0.85782 0.0
O146 O 0.50278 0.52953 0.9247 0.0
O147 O 0.54442 0.58254 0.91902 0.0
O148 O 0.52491 0.56976 0.86579 0.0
O149 O 0.48486 0.51534 0.87113 0.0
H150 H 0.4483 0.58743 0.90146 0.0
H151 H 0.39219 0.63882 0.90619 0.0
H152 H 0.44515 0.66385 0.97243 0.0
H153 H 0.50156 0.61269 0.96741 0.0
H154 H 0.6587 0.40698 0.95543 0.0
H155 H 0.60063 0.44194 0.93406 0.0
H156 H 0.7493 0.45146 0.91072 0.0
H157 H 0.69131 0.48652 0.88952 0.0
H158 H 0.52964 0.4599 0.79992 0.0
H159 H 0.46493 0.57501 0.78455 0.0
H160 H 0.46264 0.59057 0.8238 0.0
H161 H 0.52723 0.47572 0.83935 0.0
C162 C 0.46455 0.48344 0.08051 0.0
C163 C 0.4411 0.46222 0.09569 0.0
C164 C 0.39392 0.43258 0.0659 0.0
C165 C 0.40614 0.43713 0.08848 0.0
C166 C 0.41755 0.45406 0.05075 0.0
C167 C 0.45249 0.47925 0.05801 0.0
U168 U 0.54203 0.52052 0.12705 0.0
O169 O 0.61189 0.53106 0.12946 0.0
O170 O 0.56836 0.58216 0.13633 0.0
C171 C 0.6083 0.57028 0.13504 0.0
C172 C 0.50182 0.50937 0.08812 0.0
C173 C 0.63792 0.59989 0.12575 0.0
C174 C 0.66763 0.63556 0.09528 0.0
C175 C 0.63826 0.60716 0.10311 0.0
C176 C 0.69626 0.64938 0.13259 0.0
C177 C 0.69716 0.65689 0.10996 0.0
C178 C 0.66703 0.62124 0.14034 0.0
C179 C 0.52618 0.47725 0.18407 0.0
C180 C 0.57816 0.48464 0.21547 0.0
C181 C 0.50561 0.46222 0.22081 0.0
C182 C 0.49528 0.46474 0.1982 0.0
C183 C 0.54722 0.47201 0.22977 0.0
C184 C 0.56769 0.48735 0.19283 0.0
C185 C 0.51426 0.48 0.16036 0.0
O186 O 0.49344 0.54018 0.10144 0.0
O187 O 0.53653 0.48885 0.09474 0.0
O188 O 0.54194 0.46457 0.14722 0.0
O189 O 0.49846 0.51573 0.15378 0.0
H190 H 0.45006 0.46484 0.11315 0.0
H191 H 0.38921 0.42063 0.1006 0.0
H192 H 0.40886 0.45166 0.03328 0.0
H193 H 0.47016 0.49539 0.04603 0.0
H194 H 0.66758 0.64041 0.07773 0.0
H195 H 0.61603 0.5909 0.09158 0.0
H196 H 0.71779 0.66573 0.14443 0.0
H197 H 0.66714 0.61617 0.15789 0.0
H198 H 0.61058 0.49206 0.22174 0.0
H199 H 0.4807 0.45323 0.2313 0.0
H200 H 0.46299 0.45714 0.19174 0.0
H201 H 0.59197 0.49728 0.18216 0.0
H202 H 0.08287 0.17342 0.05008 0.0
H203 H 0.12489 0.23803 0.05246 0.0
H204 H 0.1828 0.20437 0.99267 0.0
H205 H 0.14007 0.14056 0.99002 0.0
H206 H 0.24058 0.21321 0.03131 0.0
H207 H 0.13002 0.28511 0.99079 0.0
H208 H 0.05807 0.31269 0.98067 0.0
H209 H 0.06115 0.38154 0.04146 0.0
H210 H 0.13261 0.35335 0.05229 0.0
H211 H 0.3884 0.3791 0.03043 0.0
H212 H 0.3299 0.33149 0.01891 0.0
H213 H 0.25842 0.37448 0.07267 0.0
H214 H 0.31635 0.42307 0.08396 0.0
H215 H 0.20593 0.36275 0.03516 0.0
H216 H 0.31373 0.2853 0.07688 0.0
H217 H 0.38669 0.25931 0.08638 0.0
H218 H 0.38845 0.2012 0.02272 0.0
H219 H 0.31567 0.22736 0.01272 0.0
C220 C 0.10274 0.18108 0.03683 0.0
C221 C 0.10762 0.15256 0.01961 0.0
C222 C 0.12706 0.21775 0.0383 0.0
C223 C 0.1572 0.22588 0.02281 0.0
C224 C 0.15968 0.1988 0.00476 0.0
C225 C 0.13489 0.1626 0.00311 0.0
C226 C 0.19046 0.2586 0.02722 0.0
C227 C 0.23305 0.24597 0.03179 0.0
C228 C 0.18048 0.30122 0.02843 0.0
C229 C 0.13658 0.31668 0.02248 0.0
C230 C 0.11507 0.30548 0.00222 0.0
C231 C 0.07439 0.32133 0.99631 0.0
C232 C 0.05507 0.34884 0.01041 0.0
C233 C 0.07613 0.36016 0.03057 0.0
C234 C 0.11671 0.34419 0.03662 0.0
C235 C 0.35999 0.37896 0.03963 0.0
C236 C 0.35733 0.40484 0.05824 0.0
C237 C 0.32664 0.35144 0.03311 0.0
C238 C 0.28987 0.34897 0.04507 0.0
C239 C 0.28646 0.37568 0.06321 0.0
C240 C 0.31985 0.40318 0.06978 0.0
C241 C 0.25597 0.31728 0.03925 0.0
C242 C 0.21335 0.32999 0.03457 0.0
C243 C 0.26576 0.27457 0.03798 0.0
C244 C 0.30945 0.25866 0.04398 0.0
C245 C 0.32981 0.26725 0.06485 0.0
C246 C 0.3711 0.25245 0.07033 0.0
C247 C 0.39224 0.22871 0.05514 0.0
C248 C 0.37206 0.21965 0.03445 0.0
C249 C 0.33078 0.23443 0.02887 0.0
H250 H 0.42421 0.21727 0.05942 0.0
H251 H 0.02396 0.36165 0.00562 0.0
H252 H 0.10367 0.91764 0.97004 0.0
H253 H 0.14495 0.86388 0.95224 0.0
H254 H 0.26239 0.91736 0.98156 0.0
H255 H 0.22159 0.97151 0.99873 0.0
H256 H 0.27352 0.88924 0.94066 0.0
H257 H 0.21055 0.83808 0.00617 0.0
H258 H 0.14956 0.82214 0.0283 0.0
H259 H 0.09584 0.74169 0.97685 0.0
H260 H 0.15631 0.75759 0.95431 0.0
H261 H 0.42572 0.73229 0.9587 0.0
H262 H 0.37246 0.78659 0.96237 0.0
H263 H 0.27538 0.70831 0.92944 0.0
H264 H 0.32843 0.65322 0.9262 0.0
H265 H 0.24574 0.74627 0.96512 0.0
H266 H 0.31583 0.78836 0.90233 0.0
H267 H 0.37697 0.8043 0.88037 0.0
H268 H 0.41712 0.90162 0.92593 0.0
H269 H 0.35655 0.88589 0.94836 0.0
C270 C 0.13833 0.9187 0.97206 0.0
C271 C 0.15938 0.94886 0.98575 0.0
C272 C 0.16188 0.88767 0.9621 0.0
C273 C 0.20678 0.88621 0.96582 0.0
C274 C 0.22784 0.91775 0.97844 0.0
C275 C 0.20442 0.94861 0.98835 0.0
C276 C 0.23207 0.8504 0.95836 0.0
C277 C 0.26748 0.85798 0.94601 0.0
C278 C 0.22358 0.80937 0.96481 0.0
C279 C 0.18763 0.79937 0.97848 0.0
C280 C 0.18559 0.81718 0.99954 0.0
C281 C 0.15115 0.80814 0.01216 0.0
C282 C 0.11878 0.78103 0.00395 0.0
C283 C 0.12089 0.76276 0.98316 0.0
C284 C 0.15523 0.77175 0.97046 0.0
C285 C 0.39297 0.7264 0.95241 0.0
C286 C 0.38139 0.68835 0.94216 0.0
C287 C 0.36263 0.75769 0.95429 0.0
C288 C 0.32002 0.7518 0.94587 0.0
C289 C 0.30812 0.71366 0.93591 0.0
C290 C 0.33854 0.68231 0.93396 0.0
C291 C 0.288 0.78534 0.94799 0.0
C292 C 0.25136 0.77732 0.95934 0.0
C293 C 0.29536 0.82598 0.9406 0.0
C294 C 0.33176 0.83574 0.92711 0.0
C295 C 0.33786 0.81298 0.90776 0.0
C296 C 0.37239 0.82201 0.89521 0.0
C297 C 0.40095 0.85391 0.90177 0.0
C298 C 0.39497 0.87691 0.92087 0.0
C299 C 0.3605 0.86799 0.93349 0.0
H300 H 0.42768 0.86085 0.89204 0.0
H301 H 0.09213 0.77412 0.01373 0.0
H302 H 0.99615 0.91716 0.05456 0.0
H303 H 0.95661 0.86687 0.07533 0.0
H304 H 0.83925 0.90045 0.03836 0.0
H305 H 0.87792 0.95195 0.01883 0.0
H306 H 0.82111 0.88809 0.07767 0.0
H307 H 0.90778 0.81326 0.02667 0.0
H308 H 0.97602 0.7912 0.01221 0.0
H309 H 0.01684 0.74051 0.07496 0.0
H310 H 0.94894 0.76251 0.08981 0.0
H311 H 0.68383 0.71485 0.0776 0.0
H312 H 0.73399 0.76766 0.06648 0.0
H313 H 0.83112 0.72191 0.11366 0.0
H314 H 0.78161 0.66823 0.12439 0.0
H315 H 0.86544 0.74088 0.07568 0.0
H316 H 0.77506 0.80887 0.12505 0.0
H317 H 0.70627 0.82982 0.13923 0.0
H318 H 0.6718 0.89278 0.07899 0.0
H319 H 0.74016 0.87172 0.06433 0.0
C320 C 0.96172 0.91476 0.0515 0.0
C321 C 0.94015 0.93894 0.03525 0.0
C322 C 0.93914 0.88546 0.06311 0.0
C323 C 0.89478 0.87924 0.05828 0.0
C324 C 0.8733 0.90444 0.04253 0.0
C325 C 0.89559 0.93384 0.03123 0.0
C326 C 0.87017 0.84572 0.06857 0.0
C327 C 0.83082 0.8559 0.07707 0.0
C328 C 0.88313 0.80366 0.06853 0.0
C329 C 0.92365 0.79013 0.05945 0.0
C330 C 0.93145 0.79767 0.03742 0.0
C331 C 0.97003 0.78511 0.02914 0.0
C332 C 1.00081 0.76462 0.04268 0.0
C333 C 0.99304 0.75651 0.06451 0.0
C334 C 0.95454 0.76901 0.07286 0.0
C335 C 0.71603 0.71559 0.0854 0.0
C336 C 0.72846 0.68742 0.10204 0.0
C337 C 0.74459 0.74612 0.07919 0.0
C338 C 0.78617 0.74932 0.08952 0.0
C339 C 0.79917 0.72034 0.10557 0.0
C340 C 0.77064 0.68984 0.1118 0.0
C341 C 0.81572 0.78326 0.08379 0.0
C342 C 0.85599 0.77314 0.07638 0.0
C343 C 0.80355 0.82539 0.08467 0.0
C344 C 0.76261 0.83847 0.09354 0.0
C345 C 0.7527 0.82698 0.11478 0.0
C346 C 0.7138 0.8389 0.12291 0.0
C347 C 0.68465 0.86255 0.11001 0.0
C348 C 0.6944 0.87444 0.08896 0.0
C349 C 0.73324 0.86257 0.08075 0.0
H350 H 0.65454 0.87173 0.11632 0.0
H351 H 0.03061 0.75485 0.03625 0.0
H352 H 0.02566 0.17306 0.99208 0.0
H353 H 0.99104 0.24127 0.9862 0.0
H354 H 0.86737 0.18504 0.99279 0.0
H355 H 0.90103 0.11826 0.99886 0.0
H356 H 0.88637 0.22712 0.9499 0.0
H357 H 0.89613 0.23688 0.02971 0.0
H358 H 0.93402 0.24449 0.06629 0.0
H359 H 0.98349 0.36251 0.04834 0.0
H360 H 0.947 0.35496 0.01131 0.0
H361 H 0.70258 0.34629 0.94822 0.0
H362 H 0.76033 0.30117 0.96231 0.0
H363 H 0.85092 0.40162 0.95978 0.0
H364 H 0.7929 0.44747 0.94585 0.0
H365 H 0.86325 0.348 0.99861 0.0
H366 H 0.85003 0.33988 0.91969 0.0
H367 H 0.81041 0.3327 0.88342 0.0
H368 H 0.76551 0.21247 0.90074 0.0
H369 H 0.80431 0.21922 0.93726 0.0
C370 C 0.99128 0.17572 0.99287 0.0
C371 C 0.96598 0.14025 0.99558 0.0
C372 C 0.97156 0.21454 0.98947 0.0
C373 C 0.92661 0.21797 0.98895 0.0
C374 C 0.90202 0.18302 0.99306 0.0
C375 C 0.9214 0.1448 0.99644 0.0
C376 C 0.90345 0.25571 0.98139 0.0
C377 C 0.88168 0.25375 0.96049 0.0
C378 C 0.89779 0.29063 0.99515 0.0
C379 C 0.92 0.29469 0.0174 0.0
C380 C 0.916 0.26395 0.03329 0.0
C381 C 0.93706 0.26836 0.05419 0.0
C382 C 0.96163 0.30372 0.05955 0.0
C383 C 0.96492 0.33489 0.04408 0.0
C384 C 0.94415 0.33049 0.02311 0.0
C385 C 0.73452 0.3592 0.95114 0.0
C386 C 0.74309 0.40051 0.94581 0.0
C387 C 0.76758 0.33326 0.95908 0.0
C388 C 0.80995 0.34796 0.9619 0.0
C389 C 0.81844 0.38968 0.95769 0.0
C390 C 0.78532 0.4157 0.94958 0.0
C391 C 0.84533 0.3185 0.96745 0.0
C392 C 0.86906 0.32196 0.98783 0.0
C393 C 0.85279 0.28461 0.95334 0.0
C394 C 0.8299 0.28018 0.93126 0.0
C395 C 0.83149 0.31203 0.91582 0.0
C396 C 0.8092 0.30802 0.89521 0.0
C397 C 0.78541 0.27217 0.88979 0.0
C398 C 0.78395 0.24022 0.90496 0.0
C399 C 0.80613 0.2441 0.92561 0.0
H400 H 0.76816 0.26913 0.87383 0.0
H401 H 0.97779 0.30716 0.07576 0.0
H402 H 0.57957 0.66674 0.53734 0.0
H403 H 0.61673 0.73341 0.54345 0.0
H404 H 0.69685 0.70461 0.49047 0.0
H405 H 0.66121 0.63748 0.48522 0.0
H406 H 0.74457 0.7195 0.52544 0.0
H407 H 0.6223 0.788 0.49058 0.0
H408 H 0.54601 0.80691 0.48456 0.0
H409 H 0.54813 0.85866 0.54983 0.0
H410 H 0.62416 0.83933 0.55643 0.0
H411 H 0.87268 0.89817 0.52954 0.0
H412 H 0.81662 0.84902 0.51674 0.0
H413 H 0.75095 0.87151 0.57559 0.0
H414 H 0.80652 0.92176 0.58832 0.0
H415 H 0.69383 0.86257 0.53801 0.0
H416 H 0.81266 0.7896 0.57355 0.0
H417 H 0.88868 0.77037 0.58037 0.0
H418 H 0.8914 0.72628 0.51375 0.0
H419 H 0.81552 0.74582 0.50644 0.0
C420 C 0.60394 0.67553 0.52647 0.0
C421 C 0.61759 0.64716 0.5108 0.0
C422 C 0.62531 0.71363 0.52999 0.0
C423 C 0.66001 0.72411 0.51754 0.0
C424 C 0.67057 0.69722 0.50046 0.0
C425 C 0.64993 0.659 0.4973 0.0
C426 C 0.6893 0.75946 0.52414 0.0
C427 C 0.7333 0.7509 0.5277 0.0
C428 C 0.67476 0.80027 0.52805 0.0
C429 C 0.62894 0.81185 0.52407 0.0
C430 C 0.60643 0.80305 0.50373 0.0
C431 C 0.56322 0.8139 0.5002 0.0
C432 C 0.54226 0.83392 0.51682 0.0
C433 C 0.56442 0.84312 0.53699 0.0
C434 C 0.60757 0.83223 0.54063 0.0
C435 C 0.84596 0.89336 0.53963 0.0
C436 C 0.84438 0.91386 0.56007 0.0
C437 C 0.81398 0.86501 0.53231 0.0
C438 C 0.77971 0.85625 0.54528 0.0
C439 C 0.77706 0.87773 0.5653 0.0
C440 C 0.80915 0.90611 0.57267 0.0
C441 C 0.74873 0.82241 0.53865 0.0
C442 C 0.70471 0.83115 0.5354 0.0
C443 C 0.76299 0.78155 0.535 0.0
C444 C 0.80855 0.76956 0.53939 0.0
C445 C 0.82957 0.7761 0.56031 0.0
C446 C 0.87261 0.7651 0.56427 0.0
C447 C 0.89489 0.74722 0.54749 0.0
C448 C 0.87412 0.7402 0.52672 0.0
C449 C 0.8311 0.7512 0.52266 0.0
H450 H 0.92821 0.73871 0.55059 0.0
H451 H 0.50889 0.84243 0.51407 0.0
H452 H 0.65423 0.39169 0.52098 0.0
H453 H 0.70173 0.34002 0.50639 0.0
H454 H 0.69924 0.40516 0.44499 0.0
H455 H 0.65052 0.45684 0.45957 0.0
H456 H 0.70201 0.31876 0.43917 0.0
H457 H 0.78021 0.42256 0.48246 0.0
H458 H 0.79664 0.46702 0.51516 0.0
H459 H 0.81929 0.35935 0.55484 0.0
H460 H 0.80236 0.31422 0.52243 0.0
H461 H 0.9007 0.22651 0.41036 0.0
H462 H 0.84366 0.27521 0.41804 0.0
H463 H 0.83622 0.22284 0.48238 0.0
H464 H 0.89288 0.17387 0.47478 0.0
H465 H 0.83923 0.30586 0.48456 0.0
H466 H 0.75683 0.20327 0.44025 0.0
H467 H 0.74007 0.16023 0.40701 0.0
H468 H 0.72883 0.26955 0.36768 0.0
H469 H 0.74624 0.31313 0.40065 0.0
C470 C 0.66306 0.39456 0.50419 0.0
C471 C 0.6488 0.42834 0.4914 0.0
C472 C 0.69034 0.36507 0.49589 0.0
C473 C 0.70487 0.36914 0.47477 0.0
C474 C 0.68852 0.4014 0.46136 0.0
C475 C 0.66055 0.43083 0.46963 0.0
C476 C 0.7396 0.34157 0.46771 0.0
C477 C 0.73244 0.31672 0.44875 0.0
C478 C 0.77896 0.33795 0.48056 0.0
C479 C 0.78971 0.36501 0.50004 0.0
C480 C 0.78844 0.40837 0.49819 0.0
C481 C 0.79787 0.43369 0.51667 0.0
C482 C 0.80893 0.41603 0.53707 0.0
C483 C 0.81069 0.37299 0.53903 0.0
C484 C 0.80123 0.34752 0.5206 0.0
C485 C 0.88655 0.22495 0.42604 0.0
C486 C 0.90154 0.19622 0.44197 0.0
C487 C 0.8539 0.25287 0.43041 0.0
C488 C 0.83535 0.25255 0.45074 0.0
C489 C 0.85009 0.2238 0.4666 0.0
C490 C 0.88268 0.19591 0.46226 0.0
C491 C 0.80175 0.28307 0.45595 0.0
C492 C 0.80915 0.30847 0.47467 0.0
C493 C 0.76305 0.28762 0.44267 0.0
C494 C 0.75294 0.2614 0.42287 0.0
C495 C 0.75105 0.21807 0.42448 0.0
C496 C 0.74143 0.19359 0.4057 0.0
C497 C 0.73344 0.21213 0.38524 0.0
C498 C 0.73507 0.25521 0.38353 0.0
C499 C 0.74478 0.2798 0.40225 0.0
H500 H 0.72594 0.19313 0.37072 0.0
H501 H 0.8162 0.43568 0.55137 0.0
H502 H 0.49791 0.39577 0.54239 0.0
H503 H 0.4563 0.34311 0.56065 0.0
H504 H 0.34736 0.42508 0.55845 0.0
H505 H 0.3889 0.4774 0.54044 0.0
H506 H 0.35207 0.38274 0.59569 0.0
H507 H 0.35906 0.35119 0.51845 0.0
H508 H 0.39601 0.33596 0.48484 0.0
H509 H 0.45411 0.22879 0.51521 0.0
H510 H 0.41792 0.24375 0.54913 0.0
H511 H 0.17159 0.25127 0.59589 0.0
H512 H 0.22639 0.30052 0.58611 0.0
H513 H 0.32132 0.20382 0.59027 0.0
H514 H 0.26667 0.15434 0.60019 0.0
H515 H 0.33055 0.24978 0.55487 0.0
H516 H 0.31716 0.2777 0.63115 0.0
H517 H 0.28075 0.29396 0.66479 0.0
H518 H 0.23558 0.40851 0.63687 0.0
H519 H 0.27113 0.39263 0.60292 0.0
C520 C 0.46555 0.40285 0.54651 0.0
C521 C 0.44664 0.44067 0.54029 0.0
C522 C 0.44164 0.37266 0.55668 0.0
C523 C 0.39838 0.37981 0.56057 0.0
C524 C 0.38055 0.4187 0.55559 0.0
C525 C 0.4043 0.44864 0.54536 0.0
C526 C 0.37042 0.34626 0.56826 0.0
C527 C 0.3473 0.35372 0.58679 0.0
C528 C 0.36465 0.30799 0.55679 0.0
C529 C 0.38622 0.29886 0.5364 0.0
C530 C 0.37998 0.32456 0.51801 0.0
C531 C 0.40074 0.31596 0.4989 0.0
C532 C 0.4275 0.28151 0.49791 0.0
C533 C 0.43345 0.25552 0.51602 0.0
C534 C 0.41282 0.26403 0.53518 0.0
C535 C 0.20416 0.24046 0.59486 0.0
C536 C 0.21464 0.19878 0.59894 0.0
C537 C 0.23554 0.26872 0.58928 0.0
C538 C 0.27825 0.25612 0.5878 0.0
C539 C 0.28866 0.21436 0.59136 0.0
C540 C 0.25726 0.18603 0.59692 0.0
C541 C 0.3118 0.28651 0.58232 0.0
C542 C 0.33583 0.27849 0.56411 0.0
C543 C 0.31842 0.32435 0.59411 0.0
C544 C 0.29646 0.33375 0.61439 0.0
C545 C 0.2991 0.30616 0.63209 0.0
C546 C 0.27868 0.31534 0.65124 0.0
C547 C 0.25577 0.35218 0.65294 0.0
C548 C 0.25325 0.37993 0.63551 0.0
C549 C 0.27351 0.37085 0.61631 0.0
H550 H 0.24004 0.35927 0.6678 0.0
H551 H 0.44354 0.27489 0.4831 0.0
H552 H 0.41406 0.62987 0.51045 0.0
H553 H 0.38232 0.69689 0.50163 0.0
H554 H 0.49741 0.73384 0.47184 0.0
H555 H 0.52997 0.66612 0.48111 0.0
H556 H 0.45014 0.80142 0.49416 0.0
H557 H 0.42772 0.69612 0.43857 0.0
H558 H 0.4104 0.62557 0.4247 0.0
H559 H 0.28458 0.63494 0.44844 0.0
H560 H 0.30143 0.70531 0.4628 0.0
H561 H 0.31938 0.94327 0.42585 0.0
H562 H 0.37286 0.8938 0.44069 0.0
H563 H 0.27256 0.82226 0.46747 0.0
H564 H 0.21904 0.87059 0.45221 0.0
H565 H 0.32175 0.77499 0.44329 0.0
H566 H 0.34566 0.88023 0.49987 0.0
H567 H 0.36445 0.94972 0.51482 0.0
H568 H 0.4885 0.94116 0.48897 0.0
H569 H 0.47016 0.87189 0.47351 0.0
C570 C 0.43319 0.65272 0.50264 0.0
C571 C 0.47421 0.64273 0.49621 0.0
C572 C 0.415 0.69101 0.49759 0.0
C573 C 0.4371 0.71996 0.48566 0.0
C574 C 0.47975 0.71177 0.48098 0.0
C575 C 0.49833 0.67321 0.48629 0.0
C576 C 0.41278 0.75529 0.47566 0.0
C577 C 0.42256 0.79595 0.48269 0.0
C578 C 0.37654 0.74795 0.46086 0.0
C579 C 0.36596 0.70589 0.45189 0.0
C580 C 0.39646 0.68304 0.44096 0.0
C581 C 0.38672 0.64308 0.433 0.0
C582 C 0.34644 0.62576 0.43572 0.0
C583 C 0.31578 0.6484 0.44635 0.0
C584 C 0.32539 0.68834 0.45439 0.0
C585 C 0.30873 0.91713 0.43502 0.0
C586 C 0.26473 0.91093 0.43772 0.0
C587 C 0.33945 0.88907 0.44367 0.0
C588 C 0.32682 0.85426 0.45524 0.0
C589 C 0.28315 0.84886 0.45861 0.0
C590 C 0.25252 0.87682 0.45002 0.0
C591 C 0.35807 0.82143 0.46228 0.0
C592 C 0.34961 0.78092 0.45454 0.0
C593 C 0.39556 0.82922 0.47624 0.0
C594 C 0.40628 0.87111 0.48525 0.0
C595 C 0.37673 0.89337 0.49712 0.0
C596 C 0.38735 0.93269 0.50574 0.0
C597 C 0.42757 0.94992 0.50276 0.0
C598 C 0.45729 0.92785 0.49119 0.0
C599 C 0.44679 0.88858 0.48248 0.0
H600 H 0.43576 0.98033 0.50949 0.0
H601 H 0.33896 0.59482 0.42955 0.0
H602 H 0.0904 0.95031 0.09439 0.0
H603 H 0.06297 0.94211 0.13062 0.0
H604 H 0.94626 1.00431 0.10838 0.0
H605 H 0.97352 0.01211 0.07182 0.0
H606 H 0.99048 0.04217 0.14456 0.0
H607 H 0.93556 0.9079 0.12561 0.0
H608 H 0.93525 0.83668 0.11056 0.0
H609 H 0.04215 0.80585 0.15534 0.0
H610 H 0.04285 0.87677 0.17086 0.0
H611 H 0.93556 0.04054 0.25508 0.0
H612 H 0.92996 0.02731 0.21549 0.0
H613 H 0.0442 0.95263 0.22174 0.0
H614 H 0.04893 0.96409 0.26154 0.0
H615 H 0.98632 0.91872 0.19198 0.0
H616 H 0.04779 0.05459 0.20682 0.0
H617 H 0.04986 0.12579 0.22197 0.0
H618 H 0.93348 0.15433 0.18362 0.0
H619 H 0.93044 0.08308 0.16845 0.0
C620 C 0.05838 0.96116 0.09704 0.0
C621 C 0.03413 0.98201 0.08039 0.0
C622 C 0.04262 0.95626 0.11771 0.0
C623 C 1.00256 0.97257 0.12219 0.0
C624 C 0.97718 0.99135 0.10521 0.0
C625 C 0.99271 0.9957 0.08435 0.0
C626 C 0.99088 0.97553 0.14532 0.0
C627 C 0.98829 0.01513 0.15482 0.0
C628 C 0.9893 0.94031 0.15877 0.0
C629 C 0.98939 0.89774 0.14933 0.0
C630 C 0.95919 0.88602 0.13216 0.0
C631 C 0.95888 0.84567 0.12357 0.0
C632 C 0.98884 0.81685 0.13188 0.0
C633 C 0.01899 0.82823 0.1489 0.0
C634 C 0.01922 0.86843 0.15768 0.0
C635 C 0.95904 0.02057 0.24815 0.0
C636 C 0.9929 1.0036 0.26156 0.0
C637 C 0.95598 0.01335 0.22544 0.0
C638 C 0.98699 0.98946 0.21558 0.0
C639 C 0.01995 0.97126 0.22897 0.0
C640 C 0.02291 0.97827 0.25171 0.0
C641 C 0.98668 0.9854 0.19126 0.0
C642 C 0.98736 0.94569 0.1816 0.0
C643 C 0.9868 0.02057 0.17761 0.0
C644 C 0.9886 0.06339 0.18672 0.0
C645 C 0.02246 0.07596 0.20176 0.0
C646 C 0.02384 0.11633 0.21033 0.0
C647 C 0.99174 0.14453 0.20382 0.0
C648 C 0.95826 0.13243 0.18868 0.0
C649 C 0.95669 0.09207 0.18009 0.0
H650 H 0.99287 0.17578 0.21046 0.0
H651 H 0.98863 0.78564 0.12521 0.0
H652 H 0.11178 0.02483 0.94395 0.0
H653 H 0.13369 0.02037 0.90605 0.0
H654 H 0.04275 0.92135 0.89187 0.0
H655 H 0.0195 0.92699 0.92933 0.0
H656 H 0.13318 0.92109 0.86989 0.0
H657 H 0.99816 0.99742 0.88069 0.0
H658 H 0.9587 0.05038 0.90058 0.0
H659 H 0.05165 0.14229 0.88574 0.0
H660 H 0.09201 0.08956 0.86605 0.0
H661 H 0.05075 0.91538 0.75945 0.0
H662 H 0.06686 0.91469 0.79914 0.0
H663 H 0.10669 0.04264 0.798 0.0
H664 H 0.08865 0.04411 0.75835 0.0
H665 H 0.05596 0.03349 0.82904 0.0
H666 H 0.17956 0.96261 0.80936 0.0
H667 H 0.22315 0.91147 0.79063 0.0
H668 H 0.1607 0.81254 0.82248 0.0
H669 H 0.1162 0.86305 0.84116 0.0
C670 C 0.09771 1.00111 0.93296 0.0
C671 C 0.06385 0.97639 0.93938 0.0
C672 C 0.11019 0.99861 0.91135 0.0
C673 C 0.0897 0.97059 0.89622 0.0
C674 C 0.05908 0.94295 0.90337 0.0
C675 C 0.04577 0.94625 0.92471 0.0
C676 C 0.0938 0.97514 0.87234 0.0
C677 C 0.11641 0.94554 0.86083 0.0
C678 C 0.07291 0.00778 0.86076 0.0
C679 C 0.04828 0.03956 0.87216 0.0
C680 C 0.01032 0.02886 0.88183 0.0
C681 C 0.98778 0.05882 0.89304 0.0
C682 C 1.00273 0.09966 0.89448 0.0
C683 C 0.04017 0.11063 0.88465 0.0
C684 C 0.06288 0.08074 0.87347 0.0
C685 C 0.06293 0.94342 0.76761 0.0
C686 C 0.06806 0.9799 0.75566 0.0
C687 C 0.07277 0.94281 0.79032 0.0
C688 C 0.08852 0.97848 0.80163 0.0
C689 C 0.09476 0.01465 0.78967 0.0
C690 C 0.08472 0.01535 0.76694 0.0
C691 C 0.09482 0.97883 0.82608 0.0
C692 C 0.07377 0.00937 0.83785 0.0
C693 C 0.1178 0.94732 0.83782 0.0
C694 C 0.14427 0.91667 0.82654 0.0
C695 C 0.17483 0.92994 0.81223 0.0
C696 C 0.19976 0.90105 0.80165 0.0
C697 C 0.19464 0.85878 0.80533 0.0
C698 C 0.1646 0.8453 0.81963 0.0
C699 C 0.13955 0.87406 0.83025 0.0
H700 H 0.214 0.83646 0.79713 0.0
H701 H 0.98525 0.12282 0.90317 0.0
H702 H 0.51795 0.44642 0.57677 0.0
H703 H 0.50128 0.43574 0.6152 0.0
H704 H 0.55073 0.55775 0.63222 0.0
H705 H 0.56722 0.5682 0.59428 0.0
H706 H 0.58755 0.50004 0.65825 0.0
H707 H 0.44406 0.53255 0.6278 0.0
H708 H 0.37722 0.52139 0.60455 0.0
H709 H 0.35773 0.40515 0.63588 0.0
H710 H 0.42527 0.41483 0.65868 0.0
H711 H 0.52304 0.57041 0.75882 0.0
H712 H 0.52902 0.5582 0.71958 0.0
H713 H 0.48642 0.43211 0.72617 0.0
H714 H 0.48002 0.44429 0.76573 0.0
H715 H 0.44694 0.47442 0.68868 0.0
H716 H 0.58624 0.44364 0.72074 0.0
H717 H 0.6517 0.45487 0.74507 0.0
H718 H 0.67762 0.56727 0.71145 0.0
H719 H 0.61194 0.55706 0.68712 0.0
C720 C 0.52403 0.47119 0.58865 0.0
C721 C 0.54371 0.50809 0.58258 0.0
C722 C 0.51483 0.46502 0.6106 0.0
C723 C 0.52503 0.4959 0.62662 0.0
C724 C 0.54297 0.53334 0.62023 0.0
C725 C 0.55233 0.5393 0.59852 0.0
C726 C 0.52011 0.48923 0.65036 0.0
C727 C 0.55671 0.49452 0.66486 0.0
C728 C 0.48022 0.48026 0.65898 0.0
C729 C 0.44022 0.47409 0.64471 0.0
C730 C 0.42599 0.50423 0.62945 0.0
C731 C 0.38788 0.4982 0.61635 0.0
C732 C 0.36332 0.46249 0.61863 0.0
C733 C 0.37686 0.43269 0.63399 0.0
C734 C 0.41515 0.43835 0.64694 0.0
C735 C 0.51459 0.54016 0.75192 0.0
C736 C 0.50101 0.50831 0.76534 0.0
C737 C 0.51824 0.53316 0.72952 0.0
C738 C 0.50839 0.49419 0.72003 0.0
C739 C 0.4942 0.46238 0.73324 0.0
C740 C 0.49088 0.46928 0.7558 0.0
C741 C 0.51397 0.48722 0.69633 0.0
C742 C 0.47778 0.47913 0.68195 0.0
C743 C 0.55422 0.49352 0.68768 0.0
C744 C 0.59399 0.49968 0.70218 0.0
C745 C 0.60573 0.47091 0.71863 0.0
C746 C 0.64291 0.47707 0.73241 0.0
C747 C 0.66878 0.51179 0.72983 0.0
C748 C 0.65755 0.54039 0.71343 0.0
C749 C 0.62038 0.53439 0.69962 0.0
H750 H 0.69755 0.51651 0.74052 0.0
H751 H 0.33371 0.45799 0.60857 0.0
H752 H 0.50668 0.42809 0.43001 0.0
H753 H 0.52592 0.42105 0.39188 0.0
H754 H 0.62427 0.51414 0.40392 0.0
H755 H 0.60576 0.52047 0.44234 0.0
H756 H 0.5592 0.53121 0.36911 0.0
H757 H 0.65958 0.42657 0.3906 0.0
H758 H 0.6852 0.36362 0.40944 0.0
H759 H 0.58976 0.2912 0.37203 0.0
H760 H 0.56344 0.35402 0.35288 0.0
H761 H 0.59786 0.52484 0.25612 0.0
H762 H 0.61165 0.52291 0.29603 0.0
H763 H 0.53286 0.41332 0.29827 0.0
H764 H 0.52074 0.41378 0.2583 0.0
H765 H 0.60003 0.40689 0.32685 0.0
H766 H 0.49393 0.51143 0.30893 0.0
H767 H 0.46509 0.57434 0.29086 0.0
H768 H 0.56749 0.64662 0.32276 0.0
H769 H 0.59725 0.58398 0.3408 0.0
C770 C 0.53341 0.44592 0.42469 0.0
C771 C 0.55507 0.47449 0.43907 0.0
C772 C 0.54434 0.44194 0.40294 0.0
C773 C 0.57649 0.4671 0.3951 0.0
C774 C 0.59952 0.49432 0.40971 0.0
C775 C 0.58916 0.49769 0.43164 0.0
C776 C 0.58183 0.46842 0.37116 0.0
C777 C 0.56918 0.5044 0.35987 0.0
C778 C 0.5936 0.43304 0.35916 0.0
C779 C 0.6093 0.39507 0.37045 0.0
C780 C 0.64382 0.39728 0.38649 0.0
C781 C 0.65851 0.36157 0.39722 0.0
C782 C 0.63892 0.32338 0.3921 0.0
C783 C 0.60483 0.32082 0.37604 0.0
C784 C 0.5901 0.35646 0.36518 0.0
C785 C 0.58412 0.49984 0.26502 0.0
C786 C 0.55777 0.4697 0.25395 0.0
C787 C 0.59171 0.49901 0.2879 0.0
C788 C 0.57269 0.46838 0.30023 0.0
C789 C 0.54774 0.4374 0.28915 0.0
C790 C 0.5404 0.43801 0.26629 0.0
C791 C 0.57686 0.46961 0.32468 0.0
C792 C 0.59092 0.43403 0.33606 0.0
C793 C 0.56592 0.5053 0.33681 0.0
C794 C 0.5481 0.54296 0.32598 0.0
C795 C 0.51048 0.54069 0.31194 0.0
C796 C 0.49394 0.5763 0.30173 0.0
C797 C 0.51453 0.61443 0.3056 0.0
C798 C 0.55164 0.61705 0.31974 0.0
C799 C 0.56835 0.58151 0.32996 0.0
H800 H 0.50166 0.64197 0.29769 0.0
H801 H 0.6502 0.29578 0.40052 0.0
loop_
_geom_bond_atom_site_label_1
_geom_bond_atom_site_label_2
_geom_bond_distance
_geom_bond_site_symmetry_2
_ccdc_geom_bond_type
Zn0 O6 1.920 1_545 S
Zn0 O12 1.898 . S
Zn0 O15 1.905 1_545 S
Zn1 O9 1.905 . S
Zn1 O10 1.898 1_545 S
Zn1 O18 1.920 1_545 S
Zn2 O5 2.080 1_445 S
Zn2 O8 2.114 . S
Zn2 O11 2.120 1_545 S
Zn2 O13 2.120 1_455 S
Zn2 O14 2.114 1_554 S
Zn2 O17 2.080 . S
C3 O8 1.166 . S
C3 O9 1.182 . S
C4 O10 1.167 . S
C4 O11 1.299 . S
O5 Zn2 2.080 1_665 S
O5 C19 1.305 . S
O6 Zn0 1.920 1_565 S
O6 C19 1.234 1_556 S
C7 O12 1.167 . S
C7 O13 1.299 1_556 S
O8 Zn2 2.114 . S
O8 C3 1.166 . S
O9 Zn1 1.905 . S
O9 C3 1.182 . S
O10 Zn1 1.898 1_565 S
O10 C4 1.167 . S
O11 Zn2 2.120 1_565 S
O11 C4 1.299 . S
O12 Zn0 1.898 . S
O12 C7 1.167 . S
O13 Zn2 2.120 1_655 S
O13 C7 1.299 1_554 S
O14 Zn2 2.114 1_556 S
O14 C16 1.166 1_545 S
O15 Zn0 1.905 1_565 S
O15 C16 1.182 1_655 S
C16 O14 1.166 1_565 S
C16 O15 1.182 1_455 S
O17 Zn2 2.080 . S
O17 C20 1.305 1_545 S
O18 Zn1 1.920 1_565 S
O18 C20 1.234 . S
C19 O5 1.305 . S
C19 O6 1.234 1_554 S
C20 O17 1.305 1_565 S
C20 O18 1.234 . S
Zn21 O27 1.920 . S
Zn21 O33 1.898 . S
Zn21 O36 1.905 . S
Zn22 O30 1.905 . S
Zn22 O31 1.898 . S
Zn22 O39 1.920 . S
Zn23 O26 2.080 . S
Zn23 O29 2.114 . S
Zn23 O32 2.120 . S
Zn23 O34 2.120 . S
Zn23 O35 2.114 . S
Zn23 O38 2.080 . S
C24 O29 1.166 . S
C24 O30 1.182 . S
C25 O31 1.167 . S
C25 O32 1.299 . S
O26 Zn23 2.080 . S
O26 C40 1.305 . S
O27 Zn21 1.920 . S
O27 C40 1.234 . S
C28 O33 1.167 . S
C28 O34 1.299 . S
O29 Zn23 2.114 . S
O29 C24 1.166 . S
O30 Zn22 1.905 . S
O30 C24 1.182 . S
O31 Zn22 1.898 . S
O31 C25 1.167 . S
O32 Zn23 2.120 . S
O32 C25 1.299 . S
O33 Zn21 1.898 . S
O33 C28 1.167 . S
O34 Zn23 2.120 . S
O34 C28 1.299 . S
O35 Zn23 2.114 . S
O35 C37 1.166 . S
O36 Zn21 1.905 . S
O36 C37 1.182 . S
C37 O35 1.166 . S
C37 O36 1.182 . S
O38 Zn23 2.080 . S
O38 C41 1.305 . S
O39 Zn22 1.920 . S
O39 C41 1.234 . S
C40 O26 1.305 . S
C40 O27 1.234 . S
C41 O38 1.305 . S
C41 O39 1.234 . S
C42 C43 1.264 1_455 S
C42 C47 1.479 . S
C42 C52 1.465 . S
C43 C42 1.264 1_655 S
C43 C45 1.339 . S
C43 H70 0.931 . S
C44 C45 1.395 . S
C44 C46 1.320 . S
C45 C43 1.339 . S
C45 C44 1.395 . S
C45 H71 0.929 . S
C46 C44 1.320 . S
C46 C47 1.405 1_655 S
C46 H72 0.930 . S
C47 C42 1.479 . S
C47 C46 1.405 1_455 S
C47 H73 0.931 . S
U48 O49 2.454 . S
U48 O50 2.458 1_545 S
U48 C51 2.984 1_545 S
U48 C52 2.847 . S
U48 C65 2.882 . S
U48 O66 2.441 . S
U48 O67 2.420 . S
U48 O68 2.455 . S
U48 O69 2.449 . S
O49 U48 2.454 . S
O49 C51 1.353 1_545 S
O50 U48 2.458 1_565 S
O50 C51 1.286 . S
C51 U48 2.984 1_565 S
C51 O49 1.353 1_565 S
C51 O50 1.286 . S
C51 C53 1.363 . S
C52 C42 1.465 . S
C52 U48 2.847 . S
C52 O66 1.249 . S
C52 O67 1.202 . S
C53 C51 1.363 . S
C53 C55 1.408 . S
C53 C58 1.342 . S
C54 C55 1.310 . S
C54 C57 1.461 . S
C54 H74 0.932 . S
C55 C53 1.408 . S
C55 C54 1.310 . S
C55 H75 0.930 . S
C56 C57 1.474 . S
C56 C58 1.285 . S
C56 H76 0.929 . S
C57 C54 1.461 . S
C57 C56 1.474 . S
C58 C53 1.342 . S
C58 C56 1.285 . S
C58 H77 0.930 . S
C59 C62 1.424 . S
C59 C64 1.245 . S
C59 C65 1.428 . S
C60 C63 1.260 . S
C60 C64 1.477 . S
C60 H78 0.932 . S
C61 C62 1.384 . S
C61 C63 1.479 . S
C61 H79 0.929 . S
C62 C59 1.424 . S
C62 C61 1.384 . S
C62 H80 0.928 . S
C63 C60 1.260 . S
C63 C61 1.479 . S
C64 C59 1.245 . S
C64 C60 1.477 . S
C64 H81 0.932 . S
C65 U48 2.882 . S
C65 C59 1.428 . S
C65 O68 1.301 . S
C65 O69 1.282 . S
O66 U48 2.441 . S
O66 C52 1.249 . S
O67 U48 2.420 . S
O67 C52 1.202 . S
O68 U48 2.455 . S
O68 C65 1.301 . S
O69 U48 2.449 . S
O69 C65 1.282 . S
H70 C43 0.931 . S
H71 C45 0.929 . S
H72 C46 0.930 . S
H73 C47 0.931 . S
H74 C54 0.932 . S
H75 C55 0.930 . S
H76 C56 0.929 . S
H77 C58 0.930 . S
H78 C60 0.932 . S
H79 C61 0.929 . S
H80 C62 0.928 . S
H81 C64 0.932 . S
C82 C83 1.264 . S
C82 C87 1.479 . S
C82 C92 1.465 . S
C83 C82 1.264 . S
C83 C85 1.339 . S
C83 H110 0.931 . S
C84 C85 1.395 . S
C84 C86 1.320 . S
C85 C83 1.339 . S
C85 C84 1.395 . S
C85 H111 0.929 . S
C86 C84 1.320 . S
C86 C87 1.405 . S
C86 H112 0.930 . S
C87 C82 1.479 . S
C87 C86 1.405 . S
C87 H113 0.931 . S
U88 O89 2.454 . S
U88 O90 2.458 . S
U88 C91 2.984 . S
U88 C92 2.847 1_445 S
U88 C105 2.882 . S
U88 O106 2.441 1_445 S
U88 O107 2.420 1_445 S
U88 O108 2.455 . S
U88 O109 2.449 1_545 S
O89 U88 2.454 . S
O89 C91 1.353 . S
O90 U88 2.458 . S
O90 C91 1.286 . S
C91 U88 2.984 . S
C91 O89 1.353 . S
C91 O90 1.286 . S
C91 C93 1.363 . S
C92 C82 1.465 . S
C92 U88 2.847 1_665 S
C92 O106 1.249 . S
C92 O107 1.202 . S
C93 C91 1.363 . S
C93 C95 1.408 . S
C93 C98 1.342 . S
C94 C95 1.310 . S
C94 C97 1.461 . S
C94 H114 0.932 . S
C95 C93 1.408 . S
C95 C94 1.310 . S
C95 H115 0.930 . S
C96 C97 1.474 . S
C96 C98 1.285 . S
C96 H116 0.929 . S
C97 C94 1.461 . S
C97 C96 1.474 . S
C98 C93 1.342 . S
C98 C96 1.285 . S
C98 H117 0.930 . S
C99 C102 1.424 1_445 S
C99 C104 1.245 . S
C99 C105 1.428 . S
C100 C103 1.260 . S
C100 C104 1.477 . S
C100 H118 0.932 . S
C101 C102 1.384 . S
C101 C103 1.479 1_665 S
C101 H119 0.929 . S
C102 C99 1.424 1_665 S
C102 C101 1.384 . S
C102 H120 0.928 . S
C103 C100 1.260 . S
C103 C101 1.479 1_445 S
C104 C99 1.245 . S
C104 C100 1.477 . S
C104 H121 0.932 . S
C105 U88 2.882 . S
C105 C99 1.428 . S
C105 O108 1.301 . S
C105 O109 1.282 1_545 S
O106 U88 2.441 1_665 S
O106 C92 1.249 . S
O107 U88 2.420 1_665 S
O107 C92 1.202 . S
O108 U88 2.455 . S
O108 C105 1.301 . S
O109 U88 2.449 1_565 S
O109 C105 1.282 1_565 S
H110 C83 0.931 . S
H111 C85 0.929 . S
H112 C86 0.930 . S
H113 C87 0.931 . S
H114 C94 0.932 . S
H115 C95 0.930 . S
H116 C96 0.929 . S
H117 C98 0.930 . S
H118 C100 0.932 . S
H119 C101 0.929 . S
H120 C102 0.928 . S
H121 C104 0.932 . S
C122 C123 1.264 . S
C122 C127 1.479 . S
C122 C132 1.465 . S
C123 C122 1.264 . S
C123 C125 1.339 . S
C123 H150 0.931 . S
C124 C125 1.395 . S
C124 C126 1.320 . S
C125 C123 1.339 . S
C125 C124 1.395 . S
C125 H151 0.929 . S
C126 C124 1.320 . S
C126 C127 1.405 . S
C126 H152 0.930 . S
C127 C122 1.479 . S
C127 C126 1.405 . S
C127 H153 0.931 . S
U128 O129 2.454 . S
U128 O130 2.458 . S
U128 C131 2.984 . S
U128 C132 2.847 . S
U128 C145 2.882 . S
U128 O146 2.441 . S
U128 O147 2.420 . S
U128 O148 2.455 . S
U128 O149 2.449 . S
O129 U128 2.454 . S
O129 C131 1.353 . S
O130 U128 2.458 . S
O130 C131 1.286 . S
C131 U128 2.984 . S
C131 O129 1.353 . S
C131 O130 1.286 . S
C131 C133 1.363 . S
C132 C122 1.465 . S
C132 U128 2.847 . S
C132 O146 1.249 . S
C132 O147 1.202 . S
C133 C131 1.363 . S
C133 C135 1.408 . S
C133 C138 1.342 . S
C134 C135 1.310 . S
C134 C137 1.461 . S
C134 H154 0.932 . S
C135 C133 1.408 . S
C135 C134 1.310 . S
C135 H155 0.930 . S
C136 C137 1.474 . S
C136 C138 1.285 . S
C136 H156 0.929 . S
C137 C134 1.461 . S
C137 C136 1.474 . S
C138 C133 1.342 . S
C138 C136 1.285 . S
C138 H157 0.930 . S
C139 C142 1.424 . S
C139 C144 1.245 . S
C139 C145 1.428 . S
C140 C143 1.260 . S
C140 C144 1.477 . S
C140 H158 0.932 . S
C141 C142 1.384 . S
C141 C143 1.479 . S
C141 H159 0.929 . S
C142 C139 1.424 . S
C142 C141 1.384 . S
C142 H160 0.928 . S
C143 C140 1.260 . S
C143 C141 1.479 . S
C144 C139 1.245 . S
C144 C140 1.477 . S
C144 H161 0.932 . S
C145 U128 2.882 . S
C145 C139 1.428 . S
C145 O148 1.301 . S
C145 O149 1.282 . S
O146 U128 2.441 . S
O146 C132 1.249 . S
O147 U128 2.420 . S
O147 C132 1.202 . S
O148 U128 2.455 . S
O148 C145 1.301 . S
O149 U128 2.449 . S
O149 C145 1.282 . S
H150 C123 0.931 . S
H151 C125 0.929 . S
H152 C126 0.930 . S
H153 C127 0.931 . S
H154 C134 0.932 . S
H155 C135 0.930 . S
H156 C136 0.929 . S
H157 C138 0.930 . S
H158 C140 0.932 . S
H159 C141 0.929 . S
H160 C142 0.928 . S
H161 C144 0.932 . S
C162 C163 1.264 . S
C162 C167 1.479 . S
C162 C172 1.465 . S
C163 C162 1.264 . S
C163 C165 1.339 . S
C163 H190 0.931 . S
C164 C165 1.395 . S
C164 C166 1.320 . S
C165 C163 1.339 . S
C165 C164 1.395 . S
C165 H191 0.929 . S
C166 C164 1.320 . S
C166 C167 1.405 . S
C166 H192 0.930 . S
C167 C162 1.479 . S
C167 C166 1.405 . S
C167 H193 0.931 . S
U168 O169 2.454 . S
U168 O170 2.458 . S
U168 C171 2.984 . S
U168 C172 2.847 . S
U168 C185 2.882 . S
U168 O186 2.441 . S
U168 O187 2.420 . S
U168 O188 2.455 . S
U168 O189 2.449 . S
O169 U168 2.454 . S
O169 C171 1.353 . S
O170 U168 2.458 . S
O170 C171 1.286 . S
C171 U168 2.984 . S
C171 O169 1.353 . S
C171 O170 1.286 . S
C171 C173 1.363 . S
C172 C162 1.465 . S
C172 U168 2.847 . S
C172 O186 1.249 . S
C172 O187 1.202 . S
C173 C171 1.363 . S
C173 C175 1.408 . S
C173 C178 1.342 . S
C174 C175 1.310 . S
C174 C177 1.461 . S
C174 H194 0.932 . S
C175 C173 1.408 . S
C175 C174 1.310 . S
C175 H195 0.930 . S
C176 C177 1.474 . S
C176 C178 1.285 . S
C176 H196 0.929 . S
C177 C174 1.461 . S
C177 C176 1.474 . S
C178 C173 1.342 . S
C178 C176 1.285 . S
C178 H197 0.930 . S
C179 C182 1.424 . S
C179 C184 1.245 . S
C179 C185 1.428 . S
C180 C183 1.260 . S
C180 C184 1.477 . S
C180 H198 0.932 . S
C181 C182 1.384 . S
C181 C183 1.479 . S
C181 H199 0.929 . S
C182 C179 1.424 . S
C182 C181 1.384 . S
C182 H200 0.928 . S
C183 C180 1.260 . S
C183 C181 1.479 . S
C184 C179 1.245 . S
C184 C180 1.477 . S
C184 H201 0.932 . S
C185 U168 2.882 . S
C185 C179 1.428 . S
C185 O188 1.301 . S
C185 O189 1.282 . S
O186 U168 2.441 . S
O186 C172 1.249 . S
O187 U168 2.420 . S
O187 C172 1.202 . S
O188 U168 2.455 . S
O188 C185 1.301 . S
O189 U168 2.449 . S
O189 C185 1.282 . S
H190 C163 0.931 . S
H191 C165 0.929 . S
H192 C166 0.930 . S
H193 C167 0.931 . S
H194 C174 0.932 . S
H195 C175 0.930 . S
H196 C176 0.929 . S
H197 C178 0.930 . S
H198 C180 0.932 . S
H199 C181 0.929 . S
H200 C182 0.928 . S
H201 C184 0.932 . S
H202 C220 0.951 . S
H203 C222 0.951 . S
H204 C224 0.971 . S
H205 C225 0.950 1_556 S
H206 C227 0.950 . S
H207 C230 0.950 1_556 S
H208 C231 0.950 . S
H209 C233 0.950 . S
H210 C234 0.950 . S
H211 C235 0.951 . S
H212 C237 0.951 . S
H213 C239 0.950 . S
H214 C240 0.950 . S
H215 C242 0.950 . S
H216 C245 0.950 . S
H217 C246 0.950 . S
H218 C248 0.950 . S
H219 C249 0.950 . S
C220 H202 0.951 . S
C220 C221 1.366 . S
C220 C222 1.388 . S
C221 C220 1.366 . S
C221 C225 1.385 . S
C222 H203 0.951 . S
C222 C220 1.388 . S
C222 C223 1.366 . S
C223 C222 1.366 . S
C223 C224 1.414 . S
C223 C226 1.499 . S
C224 H204 0.971 . S
C224 C223 1.414 . S
C224 C225 1.374 . S
C225 H205 0.950 1_554 S
C225 C221 1.385 . S
C225 C224 1.374 . S
C226 C223 1.499 . S
C226 C227 1.373 . S
C226 C228 1.389 . S
C227 H206 0.950 . S
C227 C226 1.373 . S
C227 C243 1.377 . S
C228 C226 1.389 . S
C228 C229 1.524 . S
C228 C242 1.377 . S
C229 C228 1.524 . S
C229 C230 1.397 . S
C229 C234 1.363 . S
C230 H207 0.950 1_554 S
C230 C229 1.397 . S
C230 C231 1.334 1_554 S
C231 H208 0.950 . S
C231 C230 1.334 1_556 S
C231 C232 1.287 1_556 S
C232 C231 1.287 1_554 S
C232 C233 1.524 . S
C232 H251 0.913 . S
C233 H209 0.950 . S
C233 C232 1.524 . S
C233 C234 1.415 . S
C234 H210 0.950 . S
C234 C229 1.363 . S
C234 C233 1.415 . S
C235 H211 0.951 . S
C235 C236 1.366 . S
C235 C237 1.388 . S
C236 C235 1.366 . S
C236 C240 1.385 . S
C237 H212 0.951 . S
C237 C235 1.388 . S
C237 C238 1.366 . S
C238 C237 1.366 . S
C238 C239 1.414 . S
C238 C241 1.499 . S
C239 H213 0.950 . S
C239 C238 1.414 . S
C239 C240 1.374 . S
C240 H214 0.950 . S
C240 C236 1.385 . S
C240 C239 1.374 . S
C241 C238 1.499 . S
C241 C242 1.373 . S
C241 C243 1.389 . S
C242 H215 0.950 . S
C242 C228 1.377 . S
C242 C241 1.373 . S
C243 C227 1.377 . S
C243 C241 1.389 . S
C243 C244 1.524 . S
C244 C243 1.524 . S
C244 C245 1.397 . S
C244 C249 1.363 . S
C245 H216 0.950 . S
C245 C244 1.397 . S
C245 C246 1.334 . S
C246 H217 0.950 . S
C246 C245 1.334 . S
C246 C247 1.287 . S
C247 C246 1.287 . S
C247 C248 1.524 . S
C247 H250 0.999 . S
C248 H218 0.950 . S
C248 C247 1.524 . S
C248 C249 1.415 . S
C249 H219 0.950 . S
C249 C244 1.363 . S
C249 C248 1.415 . S
H250 C247 0.999 . S
H251 C232 0.913 . S
H252 C270 0.951 . S
H253 C272 0.951 . S
H254 C274 0.968 . S
H255 C275 0.950 . S
H256 C277 0.950 . S
H257 C280 0.950 . S
H258 C281 0.950 . S
H259 C283 0.950 . S
H260 C284 0.950 . S
H261 C285 0.951 . S
H262 C287 0.951 . S
H263 C289 0.950 . S
H264 C290 0.950 . S
H265 C292 0.950 . S
H266 C295 0.950 . S
H267 C296 0.950 . S
H268 C298 0.950 . S
H269 C299 0.950 . S
C270 H252 0.951 . S
C270 C271 1.366 . S
C270 C272 1.388 . S
C271 C270 1.366 . S
C271 C275 1.385 1_556 S
C272 H253 0.951 . S
C272 C270 1.388 . S
C272 C273 1.366 . S
C273 C272 1.366 . S
C273 C274 1.389 1_556 S
C273 C276 1.499 . S
C274 H254 0.968 . S
C274 C273 1.389 1_554 S
C274 C275 1.384 . S
C275 H255 0.950 . S
C275 C271 1.385 1_554 S
C275 C274 1.384 . S
C276 C273 1.499 . S
C276 C277 1.373 . S
C276 C278 1.389 . S
C277 H256 0.950 . S
C277 C276 1.373 . S
C277 C293 1.377 . S
C278 C276 1.389 . S
C278 C279 1.524 . S
C278 C292 1.377 . S
C279 C278 1.524 . S
C279 C280 1.397 1_556 S
C279 C284 1.363 . S
C280 H257 0.950 . S
C280 C279 1.397 1_554 S
C280 C281 1.334 . S
C281 H258 0.950 . S
C281 C280 1.334 . S
C281 C282 1.287 . S
C282 C281 1.287 . S
C282 C283 1.524 1_554 S
C282 H301 0.913 . S
C283 H259 0.950 . S
C283 C282 1.524 1_556 S
C283 C284 1.415 . S
C284 H260 0.950 . S
C284 C279 1.363 . S
C284 C283 1.415 . S
C285 H261 0.951 . S
C285 C286 1.366 . S
C285 C287 1.388 . S
C286 C285 1.366 . S
C286 C290 1.385 . S
C287 H262 0.951 . S
C287 C285 1.388 . S
C287 C288 1.366 . S
C288 C287 1.366 . S
C288 C289 1.414 . S
C288 C291 1.499 . S
C289 H263 0.950 . S
C289 C288 1.414 . S
C289 C290 1.374 . S
C290 H264 0.950 . S
C290 C286 1.385 . S
C290 C289 1.374 . S
C291 C288 1.499 . S
C291 C292 1.373 . S
C291 C293 1.389 . S
C292 H265 0.950 . S
C292 C278 1.377 . S
C292 C291 1.373 . S
C293 C277 1.377 . S
C293 C291 1.389 . S
C293 C294 1.524 . S
C294 C293 1.524 . S
C294 C295 1.397 . S
C294 C299 1.363 . S
C295 H266 0.950 . S
C295 C294 1.397 . S
C295 C296 1.334 . S
C296 H267 0.950 . S
C296 C295 1.334 . S
C296 C297 1.287 . S
C297 C296 1.287 . S
C297 C298 1.524 . S
C297 H300 0.999 . S
C298 H268 0.950 . S
C298 C297 1.524 . S
C298 C299 1.415 . S
C299 H269 0.950 . S
C299 C294 1.363 . S
C299 C298 1.415 . S
H300 C297 0.999 . S
H301 C282 0.913 . S
H302 C320 0.951 . S
H303 C322 0.951 . S
H304 C324 0.950 1_556 S
H305 C325 0.950 1_556 S
H306 C327 0.950 . S
H307 C330 0.950 . S
H308 C331 0.950 . S
H309 C333 0.950 . S
H310 C334 0.950 . S
H311 C335 0.951 . S
H312 C337 0.951 . S
H313 C339 0.950 . S
H314 C340 0.950 . S
H315 C342 0.950 . S
H316 C345 0.950 . S
H317 C346 0.950 . S
H318 C348 0.950 . S
H319 C349 0.950 1_556 S
C320 H302 0.951 . S
C320 C321 1.366 . S
C320 C322 1.388 . S
C321 C320 1.366 . S
C321 C325 1.385 . S
C322 H303 0.951 . S
C322 C320 1.388 . S
C322 C323 1.366 . S
C323 C322 1.366 . S
C323 C324 1.414 . S
C323 C326 1.499 . S
C324 H304 0.950 1_554 S
C324 C323 1.414 . S
C324 C325 1.374 . S
C325 H305 0.950 1_554 S
C325 C321 1.385 . S
C325 C324 1.374 . S
C326 C323 1.499 . S
C326 C327 1.373 . S
C326 C328 1.389 . S
C327 H306 0.950 . S
C327 C326 1.373 . S
C327 C343 1.377 . S
C328 C326 1.389 . S
C328 C329 1.524 . S
C328 C342 1.377 . S
C329 C328 1.524 . S
C329 C330 1.397 . S
C329 C334 1.363 . S
C330 H307 0.950 . S
C330 C329 1.397 . S
C330 C331 1.334 . S
C331 H308 0.950 . S
C331 C330 1.334 . S
C331 C332 1.287 . S
C332 C331 1.287 . S
C332 C333 1.524 . S
C332 H351 0.913 . S
C333 H309 0.950 . S
C333 C332 1.524 . S
C333 C334 1.415 . S
C334 H310 0.950 . S
C334 C329 1.363 . S
C334 C333 1.415 . S
C335 H311 0.951 . S
C335 C336 1.366 . S
C335 C337 1.388 . S
C336 C335 1.366 . S
C336 C340 1.385 . S
C337 H312 0.951 . S
C337 C335 1.388 . S
C337 C338 1.366 . S
C338 C337 1.366 . S
C338 C339 1.414 . S
C338 C341 1.499 . S
C339 H313 0.950 . S
C339 C338 1.414 . S
C339 C340 1.374 . S
C340 H314 0.950 . S
C340 C336 1.385 . S
C340 C339 1.374 . S
C341 C338 1.499 . S
C341 C342 1.373 . S
C341 C343 1.389 . S
C342 H315 0.950 . S
C342 C328 1.377 . S
C342 C341 1.373 . S
C343 C327 1.377 . S
C343 C341 1.389 . S
C343 C344 1.524 . S
C344 C343 1.524 . S
C344 C345 1.397 . S
C344 C349 1.363 . S
C345 H316 0.950 . S
C345 C344 1.397 . S
C345 C346 1.334 . S
C346 H317 0.950 . S
C346 C345 1.334 . S
C346 C347 1.287 . S
C347 C346 1.287 . S
C347 C348 1.524 1_554 S
C347 H350 0.999 . S
C348 H318 0.950 . S
C348 C347 1.524 1_556 S
C348 C349 1.415 1_556 S
C349 H319 0.950 1_554 S
C349 C344 1.363 . S
C349 C348 1.415 1_554 S
H350 C347 0.999 . S
H351 C332 0.913 . S
H352 C370 0.951 . S
H353 C372 0.951 . S
H354 C374 0.950 . S
H355 C375 0.950 . S
H356 C377 0.950 . S
H357 C380 0.950 . S
H358 C381 0.950 . S
H359 C383 0.929 1_456 S
H360 C384 0.950 . S
H361 C385 0.951 . S
H362 C387 0.951 . S
H363 C389 0.950 . S
H364 C390 0.950 . S
H365 C392 0.950 . S
H366 C395 0.950 . S
H367 C396 0.950 . S
H368 C398 0.950 . S
H369 C399 0.950 . S
C370 H352 0.951 . S
C370 C371 1.366 . S
C370 C372 1.388 . S
C371 C370 1.366 . S
C371 C375 1.385 1_556 S
C372 H353 0.951 . S
C372 C370 1.388 . S
C372 C373 1.366 . S
C373 C372 1.366 . S
C373 C374 1.414 1_556 S
C373 C376 1.499 . S
C374 H354 0.950 . S
C374 C373 1.414 1_554 S
C374 C375 1.374 . S
C375 H355 0.950 . S
C375 C371 1.385 1_554 S
C375 C374 1.374 . S
C376 C373 1.499 . S
C376 C377 1.373 . S
C376 C378 1.389 . S
C377 H356 0.950 . S
C377 C376 1.373 . S
C377 C393 1.377 . S
C378 C376 1.389 . S
C378 C379 1.525 1_556 S
C378 C392 1.377 . S
C379 C378 1.525 1_554 S
C379 C380 1.395 . S
C379 C384 1.364 1_554 S
C380 H357 0.950 . S
C380 C379 1.395 . S
C380 C381 1.334 . S
C381 H358 0.950 . S
C381 C380 1.334 . S
C381 C382 1.301 . S
C382 C381 1.301 . S
C382 C383 1.570 . S
C382 H401 0.893 1_655 S
C383 H359 0.929 1_654 S
C383 C382 1.570 . S
C383 C384 1.397 1_554 S
C384 H360 0.950 . S
C384 C379 1.364 1_556 S
C384 C383 1.397 1_556 S
C385 H361 0.951 . S
C385 C386 1.366 . S
C385 C387 1.388 . S
C386 C385 1.366 . S
C386 C390 1.385 . S
C387 H362 0.951 . S
C387 C385 1.388 . S
C387 C388 1.366 . S
C388 C387 1.366 . S
C388 C389 1.414 . S
C388 C391 1.499 . S
C389 H363 0.950 . S
C389 C388 1.414 . S
C389 C390 1.374 . S
C390 H364 0.950 . S
C390 C386 1.385 . S
C390 C389 1.374 . S
C391 C388 1.499 . S
C391 C392 1.373 . S
C391 C393 1.389 . S
C392 H365 0.950 . S
C392 C378 1.377 . S
C392 C391 1.373 . S
C393 C377 1.377 . S
C393 C391 1.389 . S
C393 C394 1.524 . S
C394 C393 1.524 . S
C394 C395 1.397 . S
C394 C399 1.363 . S
C395 H366 0.950 . S
C395 C394 1.397 . S
C395 C396 1.334 . S
C396 H367 0.950 . S
C396 C395 1.334 . S
C396 C397 1.287 . S
C397 C396 1.287 . S
C397 C398 1.524 . S
C397 H400 0.999 . S
C398 H368 0.950 . S
C398 C397 1.524 . S
C398 C399 1.415 . S
C399 H369 0.950 . S
C399 C394 1.363 . S
C399 C398 1.415 . S
H400 C397 0.999 . S
H401 C382 0.893 1_455 S
H402 C420 0.951 . S
H403 C422 0.951 . S
H404 C424 0.950 . S
H405 C425 0.950 . S
H406 C427 0.950 . S
H407 C430 0.950 . S
H408 C431 0.950 . S
H409 C433 0.950 . S
H410 C434 0.950 . S
H411 C435 0.951 . S
H412 C437 0.951 . S
H413 C439 0.950 . S
H414 C440 0.950 . S
H415 C442 0.950 . S
H416 C445 0.950 . S
H417 C446 0.950 . S
H418 C448 0.950 . S
H419 C449 0.950 . S
C420 H402 0.951 . S
C420 C421 1.366 . S
C420 C422 1.388 . S
C421 C420 1.366 . S
C421 C425 1.385 . S
C422 H403 0.951 . S
C422 C420 1.388 . S
C422 C423 1.366 . S
C423 C422 1.366 . S
C423 C424 1.414 . S
C423 C426 1.499 . S
C424 H404 0.950 . S
C424 C423 1.414 . S
C424 C425 1.374 . S
C425 H405 0.950 . S
C425 C421 1.385 . S
C425 C424 1.374 . S
C426 C423 1.499 . S
C426 C427 1.373 . S
C426 C428 1.389 . S
C427 H406 0.950 . S
C427 C426 1.373 . S
C427 C443 1.377 . S
C428 C426 1.389 . S
C428 C429 1.524 . S
C428 C442 1.377 . S
C429 C428 1.524 . S
C429 C430 1.397 . S
C429 C434 1.363 . S
C430 H407 0.950 . S
C430 C429 1.397 . S
C430 C431 1.334 . S
C431 H408 0.950 . S
C431 C430 1.334 . S
C431 C432 1.287 . S
C432 C431 1.287 . S
C432 C433 1.524 . S
C432 H451 0.913 . S
C433 H409 0.950 . S
C433 C432 1.524 . S
C433 C434 1.415 . S
C434 H410 0.950 . S
C434 C429 1.363 . S
C434 C433 1.415 . S
C435 H411 0.951 . S
C435 C436 1.366 . S
C435 C437 1.388 . S
C436 C435 1.366 . S
C436 C440 1.385 . S
C437 H412 0.951 . S
C437 C435 1.388 . S
C437 C438 1.366 . S
C438 C437 1.366 . S
C438 C439 1.414 . S
C438 C441 1.499 . S
C439 H413 0.950 . S
C439 C438 1.414 . S
C439 C440 1.374 . S
C440 H414 0.950 . S
C440 C436 1.385 . S
C440 C439 1.374 . S
C441 C438 1.499 . S
C441 C442 1.373 . S
C441 C443 1.389 . S
C442 H415 0.950 . S
C442 C428 1.377 . S
C442 C441 1.373 . S
C443 C427 1.377 . S
C443 C441 1.389 . S
C443 C444 1.524 . S
C444 C443 1.524 . S
C444 C445 1.397 . S
C444 C449 1.363 . S
C445 H416 0.950 . S
C445 C444 1.397 . S
C445 C446 1.334 . S
C446 H417 0.950 . S
C446 C445 1.334 . S
C446 C447 1.287 . S
C447 C446 1.287 . S
C447 C448 1.524 . S
C447 H450 0.999 . S
C448 H418 0.950 . S
C448 C447 1.524 . S
C448 C449 1.415 . S
C449 H419 0.950 . S
C449 C444 1.363 . S
C449 C448 1.415 . S
H450 C447 0.999 . S
H451 C432 0.913 . S
H452 C470 0.951 . S
H453 C472 0.951 . S
H454 C474 0.950 . S
H455 C475 0.950 . S
H456 C477 0.950 . S
H457 C480 0.950 . S
H458 C481 0.950 . S
H459 C483 0.950 . S
H460 C484 0.950 . S
H461 C485 0.951 . S
H462 C487 0.951 . S
H463 C489 0.950 . S
H464 C490 0.950 . S
H465 C492 0.950 . S
H466 C495 0.950 . S
H467 C496 0.950 . S
H468 C498 0.950 . S
H469 C499 0.950 . S
C470 H452 0.951 . S
C470 C471 1.366 . S
C470 C472 1.388 . S
C471 C470 1.366 . S
C471 C475 1.385 . S
C472 H453 0.951 . S
C472 C470 1.388 . S
C472 C473 1.366 . S
C473 C472 1.366 . S
C473 C474 1.414 . S
C473 C476 1.499 . S
C474 H454 0.950 . S
C474 C473 1.414 . S
C474 C475 1.374 . S
C475 H455 0.950 . S
C475 C471 1.385 . S
C475 C474 1.374 . S
C476 C473 1.499 . S
C476 C477 1.373 . S
C476 C478 1.389 . S
C477 H456 0.950 . S
C477 C476 1.373 . S
C477 C493 1.377 . S
C478 C476 1.389 . S
C478 C479 1.524 . S
C478 C492 1.377 . S
C479 C478 1.524 . S
C479 C480 1.397 . S
C479 C484 1.363 . S
C480 H457 0.950 . S
C480 C479 1.397 . S
C480 C481 1.334 . S
C481 H458 0.950 . S
C481 C480 1.334 . S
C481 C482 1.287 . S
C482 C481 1.287 . S
C482 C483 1.524 . S
C482 H501 0.913 . S
C483 H459 0.950 . S
C483 C482 1.524 . S
C483 C484 1.415 . S
C484 H460 0.950 . S
C484 C479 1.363 . S
C484 C483 1.415 . S
C485 H461 0.951 . S
C485 C486 1.366 . S
C485 C487 1.388 . S
C486 C485 1.366 . S
C486 C490 1.385 . S
C487 H462 0.951 . S
C487 C485 1.388 . S
C487 C488 1.366 . S
C488 C487 1.366 . S
C488 C489 1.414 . S
C488 C491 1.499 . S
C489 H463 0.950 . S
C489 C488 1.414 . S
C489 C490 1.374 . S
C490 H464 0.950 . S
C490 C486 1.385 . S
C490 C489 1.374 . S
C491 C488 1.499 . S
C491 C492 1.373 . S
C491 C493 1.389 . S
C492 H465 0.950 . S
C492 C478 1.377 . S
C492 C491 1.373 . S
C493 C477 1.377 . S
C493 C491 1.389 . S
C493 C494 1.524 . S
C494 C493 1.524 . S
C494 C495 1.397 . S
C494 C499 1.363 . S
C495 H466 0.950 . S
C495 C494 1.397 . S
C495 C496 1.334 . S
C496 H467 0.950 . S
C496 C495 1.334 . S
C496 C497 1.287 . S
C497 C496 1.287 . S
C497 C498 1.524 . S
C497 H500 0.999 . S
C498 H468 0.950 . S
C498 C497 1.524 . S
C498 C499 1.415 . S
C499 H469 0.950 . S
C499 C494 1.363 . S
C499 C498 1.415 . S
H500 C497 0.999 . S
H501 C482 0.913 . S
H502 C520 0.951 . S
H503 C522 0.951 . S
H504 C524 0.950 . S
H505 C525 0.950 . S
H506 C527 0.950 . S
H507 C530 0.950 . S
H508 C531 0.950 . S
H509 C533 0.950 . S
H510 C534 0.950 . S
H511 C535 0.951 . S
H512 C537 0.951 . S
H513 C539 0.950 . S
H514 C540 0.950 . S
H515 C542 0.950 . S
H516 C545 0.950 . S
H517 C546 0.950 . S
H518 C548 0.950 . S
H519 C549 0.950 . S
C520 H502 0.951 . S
C520 C521 1.366 . S
C520 C522 1.388 . S
C521 C520 1.366 . S
C521 C525 1.385 . S
C522 H503 0.951 . S
C522 C520 1.388 . S
C522 C523 1.366 . S
C523 C522 1.366 . S
C523 C524 1.414 . S
C523 C526 1.499 . S
C524 H504 0.950 . S
C524 C523 1.414 . S
C524 C525 1.374 . S
C525 H505 0.950 . S
C525 C521 1.385 . S
C525 C524 1.374 . S
C526 C523 1.499 . S
C526 C527 1.373 . S
C526 C528 1.389 . S
C527 H506 0.950 . S
C527 C526 1.373 . S
C527 C543 1.377 . S
C528 C526 1.389 . S
C528 C529 1.524 . S
C528 C542 1.377 . S
C529 C528 1.524 . S
C529 C530 1.397 . S
C529 C534 1.363 . S
C530 H507 0.950 . S
C530 C529 1.397 . S
C530 C531 1.334 . S
C531 H508 0.950 . S
C531 C530 1.334 . S
C531 C532 1.287 . S
C532 C531 1.287 . S
C532 C533 1.524 . S
C532 H551 0.913 . S
C533 H509 0.950 . S
C533 C532 1.524 . S
C533 C534 1.415 . S
C534 H510 0.950 . S
C534 C529 1.363 . S
C534 C533 1.415 . S
C535 H511 0.951 . S
C535 C536 1.366 . S
C535 C537 1.388 . S
C536 C535 1.366 . S
C536 C540 1.385 . S
C537 H512 0.951 . S
C537 C535 1.388 . S
C537 C538 1.366 . S
C538 C537 1.366 . S
C538 C539 1.414 . S
C538 C541 1.499 . S
C539 H513 0.950 . S
C539 C538 1.414 . S
C539 C540 1.374 . S
C540 H514 0.950 . S
C540 C536 1.385 . S
C540 C539 1.374 . S
C541 C538 1.499 . S
C541 C542 1.373 . S
C541 C543 1.389 . S
C542 H515 0.950 . S
C542 C528 1.377 . S
C542 C541 1.373 . S
C543 C527 1.377 . S
C543 C541 1.389 . S
C543 C544 1.524 . S
C544 C543 1.524 . S
C544 C545 1.397 . S
C544 C549 1.363 . S
C545 H516 0.950 . S
C545 C544 1.397 . S
C545 C546 1.334 . S
C546 H517 0.950 . S
C546 C545 1.334 . S
C546 C547 1.287 . S
C547 C546 1.287 . S
C547 C548 1.524 . S
C547 H550 0.999 . S
C548 H518 0.950 . S
C548 C547 1.524 . S
C548 C549 1.415 . S
C549 H519 0.950 . S
C549 C544 1.363 . S
C549 C548 1.415 . S
H550 C547 0.999 . S
H551 C532 0.913 . S
H552 C570 0.951 . S
H553 C572 0.951 . S
H554 C574 0.950 . S
H555 C575 0.950 . S
H556 C577 0.950 . S
H557 C580 0.950 . S
H558 C581 0.950 . S
H559 C583 0.950 . S
H560 C584 0.950 . S
H561 C585 0.951 . S
H562 C587 0.951 . S
H563 C589 0.950 . S
H564 C590 0.950 . S
H565 C592 0.950 . S
H566 C595 0.950 . S
H567 C596 0.950 . S
H568 C598 0.950 . S
H569 C599 0.950 . S
C570 H552 0.951 . S
C570 C571 1.366 . S
C570 C572 1.388 . S
C571 C570 1.366 . S
C571 C575 1.385 . S
C572 H553 0.951 . S
C572 C570 1.388 . S
C572 C573 1.366 . S
C573 C572 1.366 . S
C573 C574 1.414 . S
C573 C576 1.499 . S
C574 H554 0.950 . S
C574 C573 1.414 . S
C574 C575 1.374 . S
C575 H555 0.950 . S
C575 C571 1.385 . S
C575 C574 1.374 . S
C576 C573 1.499 . S
C576 C577 1.373 . S
C576 C578 1.389 . S
C577 H556 0.950 . S
C577 C576 1.373 . S
C577 C593 1.377 . S
C578 C576 1.389 . S
C578 C579 1.524 . S
C578 C592 1.377 . S
C579 C578 1.524 . S
C579 C580 1.397 . S
C579 C584 1.363 . S
C580 H557 0.950 . S
C580 C579 1.397 . S
C580 C581 1.334 . S
C581 H558 0.950 . S
C581 C580 1.334 . S
C581 C582 1.287 . S
C582 C581 1.287 . S
C582 C583 1.524 . S
C582 H601 0.913 . S
C583 H559 0.950 . S
C583 C582 1.524 . S
C583 C584 1.415 . S
C584 H560 0.950 . S
C584 C579 1.363 . S
C584 C583 1.415 . S
C585 H561 0.951 . S
C585 C586 1.366 . S
C585 C587 1.388 . S
C586 C585 1.366 . S
C586 C590 1.385 . S
C587 H562 0.951 . S
C587 C585 1.388 . S
C587 C588 1.366 . S
C588 C587 1.366 . S
C588 C589 1.414 . S
C588 C591 1.499 . S
C589 H563 0.950 . S
C589 C588 1.414 . S
C589 C590 1.374 . S
C590 H564 0.950 . S
C590 C586 1.385 . S
C590 C589 1.374 . S
C591 C588 1.499 . S
C591 C592 1.373 . S
C591 C593 1.389 . S
C592 H565 0.950 . S
C592 C578 1.377 . S
C592 C591 1.373 . S
C593 C577 1.377 . S
C593 C591 1.389 . S
C593 C594 1.524 . S
C594 C593 1.524 . S
C594 C595 1.397 . S
C594 C599 1.363 . S
C595 H566 0.950 . S
C595 C594 1.397 . S
C595 C596 1.334 . S
C596 H567 0.950 . S
C596 C595 1.334 . S
C596 C597 1.287 . S
C597 C596 1.287 . S
C597 C598 1.524 . S
C597 H600 0.999 . S
C598 H568 0.950 . S
C598 C597 1.524 . S
C598 C599 1.415 . S
C599 H569 0.950 . S
C599 C594 1.363 . S
C599 C598 1.415 . S
H600 C597 0.999 . S
H601 C582 0.913 . S
H602 C620 0.951 . S
H603 C622 0.951 . S
H604 C624 0.950 . S
H605 C625 0.950 . S
H606 C627 0.950 . S
H607 C630 0.950 . S
H608 C631 0.950 . S
H609 C633 0.950 . S
H610 C634 0.950 . S
H611 C635 0.951 . S
H612 C637 0.951 . S
H613 C639 0.950 . S
H614 C640 0.950 1_565 S
H615 C642 0.950 . S
H616 C645 0.950 . S
H617 C646 0.950 . S
H618 C648 0.950 . S
H619 C649 0.950 . S
C620 H602 0.951 . S
C620 C621 1.366 . S
C620 C622 1.388 . S
C621 C620 1.366 . S
C621 C625 1.385 1_565 S
C622 H603 0.951 . S
C622 C620 1.388 . S
C622 C623 1.366 1_565 S
C623 C622 1.366 1_545 S
C623 C624 1.414 . S
C623 C626 1.499 . S
C624 H604 0.950 . S
C624 C623 1.414 . S
C624 C625 1.374 . S
C625 H605 0.950 . S
C625 C621 1.385 1_545 S
C625 C624 1.374 . S
C626 C623 1.499 . S
C626 C627 1.373 . S
C626 C628 1.389 1_545 S
C627 H606 0.950 . S
C627 C626 1.373 . S
C627 C643 1.377 . S
C628 C626 1.389 1_565 S
C628 C629 1.524 . S
C628 C642 1.377 . S
C629 C628 1.524 . S
C629 C630 1.397 1_455 S
C629 C634 1.363 . S
C630 H607 0.950 . S
C630 C629 1.397 1_655 S
C630 C631 1.334 . S
C631 H608 0.950 . S
C631 C630 1.334 . S
C631 C632 1.287 . S
C632 C631 1.287 . S
C632 C633 1.524 1_655 S
C632 H651 0.913 . S
C633 H609 0.950 . S
C633 C632 1.524 1_455 S
C633 C634 1.415 . S
C634 H610 0.950 . S
C634 C629 1.363 . S
C634 C633 1.415 . S
C635 H611 0.951 . S
C635 C636 1.366 . S
C635 C637 1.388 . S
C636 C635 1.366 . S
C636 C640 1.385 . S
C637 H612 0.951 . S
C637 C635 1.388 . S
C637 C638 1.366 . S
C638 C637 1.366 . S
C638 C639 1.414 1_545 S
C638 C641 1.499 . S
C639 H613 0.950 . S
C639 C638 1.414 1_565 S
C639 C640 1.374 1_565 S
C640 H614 0.950 1_545 S
C640 C636 1.385 . S
C640 C639 1.374 1_545 S
C641 C638 1.499 . S
C641 C642 1.373 1_545 S
C641 C643 1.389 . S
C642 H615 0.950 . S
C642 C628 1.377 . S
C642 C641 1.373 1_565 S
C643 C627 1.377 . S
C643 C641 1.389 . S
C643 C644 1.524 . S
C644 C643 1.524 . S
C644 C645 1.397 . S
C644 C649 1.363 . S
C645 H616 0.950 . S
C645 C644 1.397 . S
C645 C646 1.334 . S
C646 H617 0.950 . S
C646 C645 1.334 . S
C646 C647 1.287 . S
C647 C646 1.287 . S
C647 C648 1.524 . S
C647 H650 0.999 . S
C648 H618 0.950 . S
C648 C647 1.524 . S
C648 C649 1.415 . S
C649 H619 0.950 . S
C649 C644 1.363 . S
C649 C648 1.415 . S
H650 C647 0.999 . S
H651 C632 0.913 . S
H652 C670 0.951 . S
H653 C672 0.951 1_655 S
H654 C674 0.950 . S
H655 C675 0.950 . S
H656 C677 0.950 . S
H657 C680 0.950 . S
H658 C681 0.950 . S
H659 C683 0.950 . S
H660 C684 0.950 . S
H661 C685 0.951 . S
H662 C687 0.951 . S
H663 C689 0.950 . S
H664 C690 0.950 . S
H665 C692 0.950 . S
H666 C695 0.950 . S
H667 C696 0.950 . S
H668 C698 0.950 . S
H669 C699 0.950 . S
C670 H652 0.951 . S
C670 C671 1.366 1_545 S
C670 C672 1.388 . S
C671 C670 1.366 1_565 S
C671 C675 1.385 . S
C672 H653 0.951 1_455 S
C672 C670 1.388 . S
C672 C673 1.366 1_545 S
C673 C672 1.366 1_565 S
C673 C674 1.414 . S
C673 C676 1.499 1_565 S
C674 H654 0.950 . S
C674 C673 1.414 . S
C674 C675 1.374 . S
C675 H655 0.950 . S
C675 C671 1.385 . S
C675 C674 1.374 . S
C676 C673 1.499 1_545 S
C676 C677 1.373 1_545 S
C676 C678 1.389 1_455 S
C677 H656 0.950 . S
C677 C676 1.373 1_565 S
C677 C693 1.377 1_565 S
C678 C676 1.389 1_655 S
C678 C679 1.524 . S
C678 C692 1.377 . S
C679 C678 1.524 . S
C679 C680 1.397 1_545 S
C679 C684 1.363 . S
C680 H657 0.950 . S
C680 C679 1.397 1_565 S
C680 C681 1.334 . S
C681 H658 0.950 . S
C681 C680 1.334 . S
C681 C682 1.287 1_565 S
C682 C681 1.287 1_545 S
C682 C683 1.524 . S
C682 H701 0.913 . S
C683 H659 0.950 . S
C683 C682 1.524 . S
C683 C684 1.415 . S
C684 H660 0.950 . S
C684 C679 1.363 . S
C684 C683 1.415 . S
C685 H661 0.951 . S
C685 C686 1.366 1_565 S
C685 C687 1.388 . S
C686 C685 1.366 1_545 S
C686 C690 1.385 1_455 S
C687 H662 0.951 . S
C687 C685 1.388 . S
C687 C688 1.366 1_565 S
C688 C687 1.366 1_545 S
C688 C689 1.414 1_455 S
C688 C691 1.499 . S
C689 H663 0.950 . S
C689 C688 1.414 1_655 S
C689 C690 1.374 . S
C690 H664 0.950 . S
C690 C686 1.385 1_655 S
C690 C689 1.374 . S
C691 C688 1.499 . S
C691 C692 1.373 1_455 S
C691 C693 1.389 . S
C692 H665 0.950 . S
C692 C678 1.377 . S
C692 C691 1.373 1_655 S
C693 C677 1.377 1_545 S
C693 C691 1.389 . S
C693 C694 1.524 1_545 S
C694 C693 1.524 1_565 S
C694 C695 1.397 1_565 S
C694 C699 1.363 . S
C695 H666 0.950 . S
C695 C694 1.397 1_545 S
C695 C696 1.334 . S
C696 H667 0.950 . S
C696 C695 1.334 . S
C696 C697 1.287 1_545 S
C697 C696 1.287 1_565 S
C697 C698 1.524 . S
C697 H700 0.999 . S
C698 H668 0.950 . S
C698 C697 1.524 . S
C698 C699 1.415 . S
C699 H669 0.950 . S
C699 C694 1.363 . S
C699 C698 1.415 . S
H700 C697 0.999 . S
H701 C682 0.913 . S
H702 C720 0.951 . S
H703 C722 0.951 . S
H704 C724 0.950 . S
H705 C725 0.950 . S
H706 C727 0.950 . S
H707 C730 0.950 . S
H708 C731 0.950 . S
H709 C733 0.950 . S
H710 C734 0.950 . S
H711 C735 0.951 . S
H712 C737 0.951 . S
H713 C739 0.950 . S
H714 C740 0.950 . S
H715 C742 0.950 . S
H716 C745 0.950 . S
H717 C746 0.950 . S
H718 C748 0.950 . S
H719 C749 0.950 . S
C720 H702 0.951 . S
C720 C721 1.366 . S
C720 C722 1.388 . S
C721 C720 1.366 . S
C721 C725 1.385 . S
C722 H703 0.951 . S
C722 C720 1.388 . S
C722 C723 1.366 . S
C723 C722 1.366 . S
C723 C724 1.414 . S
C723 C726 1.499 . S
C724 H704 0.950 . S
C724 C723 1.414 . S
C724 C725 1.374 . S
C725 H705 0.950 . S
C725 C721 1.385 . S
C725 C724 1.374 . S
C726 C723 1.499 . S
C726 C727 1.373 . S
C726 C728 1.389 . S
C727 H706 0.950 . S
C727 C726 1.373 . S
C727 C743 1.377 . S
C728 C726 1.389 . S
C728 C729 1.524 . S
C728 C742 1.377 . S
C729 C728 1.524 . S
C729 C730 1.397 . S
C729 C734 1.363 . S
C730 H707 0.950 . S
C730 C729 1.397 . S
C730 C731 1.334 . S
C731 H708 0.950 . S
C731 C730 1.334 . S
C731 C732 1.287 . S
C732 C731 1.287 . S
C732 C733 1.524 . S
C732 H751 0.913 . S
C733 H709 0.950 . S
C733 C732 1.524 . S
C733 C734 1.415 . S
C734 H710 0.950 . S
C734 C729 1.363 . S
C734 C733 1.415 . S
C735 H711 0.951 . S
C735 C736 1.366 . S
C735 C737 1.388 . S
C736 C735 1.366 . S
C736 C740 1.385 . S
C737 H712 0.951 . S
C737 C735 1.388 . S
C737 C738 1.366 . S
C738 C737 1.366 . S
C738 C739 1.414 . S
C738 C741 1.499 . S
C739 H713 0.950 . S
C739 C738 1.414 . S
C739 C740 1.374 . S
C740 H714 0.950 . S
C740 C736 1.385 . S
C740 C739 1.374 . S
C741 C738 1.499 . S
C741 C742 1.373 . S
C741 C743 1.389 . S
C742 H715 0.950 . S
C742 C728 1.377 . S
C742 C741 1.373 . S
C743 C727 1.377 . S
C743 C741 1.389 . S
C743 C744 1.524 . S
C744 C743 1.524 . S
C744 C745 1.397 . S
C744 C749 1.363 . S
C745 H716 0.950 . S
C745 C744 1.397 . S
C745 C746 1.334 . S
C746 H717 0.950 . S
C746 C745 1.334 . S
C746 C747 1.287 . S
C747 C746 1.287 . S
C747 C748 1.524 . S
C747 H750 0.999 . S
C748 H718 0.950 . S
C748 C747 1.524 . S
C748 C749 1.415 . S
C749 H719 0.950 . S
C749 C744 1.363 . S
C749 C748 1.415 . S
H750 C747 0.999 . S
H751 C732 0.913 . S
H752 C770 0.951 . S
H753 C772 0.951 . S
H754 C774 0.950 . S
H755 C775 0.950 . S
H756 C777 0.950 . S
H757 C780 0.950 . S
H758 C781 0.950 . S
H759 C783 0.950 . S
H760 C784 0.950 . S
H761 C785 0.951 . S
H762 C787 0.951 . S
H763 C789 0.950 . S
H764 C790 0.950 . S
H765 C792 0.950 . S
H766 C795 0.950 . S
H767 C796 0.950 . S
H768 C798 0.950 . S
H769 C799 0.950 . S
C770 H752 0.951 . S
C770 C771 1.366 . S
C770 C772 1.388 . S
C771 C770 1.366 . S
C771 C775 1.385 . S
C772 H753 0.951 . S
C772 C770 1.388 . S
C772 C773 1.366 . S
C773 C772 1.366 . S
C773 C774 1.414 . S
C773 C776 1.499 . S
C774 H754 0.950 . S
C774 C773 1.414 . S
C774 C775 1.374 . S
C775 H755 0.950 . S
C775 C771 1.385 . S
C775 C774 1.374 . S
C776 C773 1.499 . S
C776 C777 1.373 . S
C776 C778 1.389 . S
C777 H756 0.950 . S
C777 C776 1.373 . S
C777 C793 1.377 . S
C778 C776 1.389 . S
C778 C779 1.524 . S
C778 C792 1.377 . S
C779 C778 1.524 . S
C779 C780 1.397 . S
C779 C784 1.363 . S
C780 H757 0.950 . S
C780 C779 1.397 . S
C780 C781 1.334 . S
C781 H758 0.950 . S
C781 C780 1.334 . S
C781 C782 1.287 . S
C782 C781 1.287 . S
C782 C783 1.524 . S
C782 H801 0.913 . S
C783 H759 0.950 . S
C783 C782 1.524 . S
C783 C784 1.415 . S
C784 H760 0.950 . S
C784 C779 1.363 . S
C784 C783 1.415 . S
C785 H761 0.951 . S
C785 C786 1.366 . S
C785 C787 1.388 . S
C786 C785 1.366 . S
C786 C790 1.385 . S
C787 H762 0.951 . S
C787 C785 1.388 . S
C787 C788 1.366 . S
C788 C787 1.366 . S
C788 C789 1.414 . S
C788 C791 1.499 . S
C789 H763 0.950 . S
C789 C788 1.414 . S
C789 C790 1.374 . S
C790 H764 0.950 . S
C790 C786 1.385 . S
C790 C789 1.374 . S
C791 C788 1.499 . S
C791 C792 1.373 . S
C791 C793 1.389 . S
C792 H765 0.950 . S
C792 C778 1.377 . S
C792 C791 1.373 . S
C793 C777 1.377 . S
C793 C791 1.389 . S
C793 C794 1.524 . S
C794 C793 1.524 . S
C794 C795 1.397 . S
C794 C799 1.363 . S
C795 H766 0.950 . S
C795 C794 1.397 . S
C795 C796 1.334 . S
C796 H767 0.950 . S
C796 C795 1.334 . S
C796 C797 1.287 . S
C797 C796 1.287 . S
C797 C798 1.524 . S
C797 H800 0.999 . S
C798 H768 0.950 . S
C798 C797 1.524 . S
C798 C799 1.415 . S
C799 H769 0.950 . S
C799 C794 1.363 . S
C799 C798 1.415 . S
H800 C797 0.999 . S
H801 C782 0.913 . S
C236 C164 1.140 . S
C221 C3 1.045 . S
C271 C4 1.530 1_556 S
C286 C124 1.649 . S
C321 C19 1.559 . S
C336 C177 1.661 . S
C371 C7 1.049 . S
C386 C137 1.151 . S
C421 C37 1.045 . S
C436 C84 1.140 . S
C471 C28 1.531 . S
C486 C44 1.649 . S
C536 C97 1.661 . S
C521 C41 1.560 . S
C586 C57 1.150 . S
C571 C25 1.051 . S
C621 C20 1.267 . S
C636 C63 1.423 . S
C671 C16 1.324 . S
C686 C103 1.455 . S
C736 C143 1.424 . S
C721 C40 1.268 . S
C771 C24 1.322 . S
C786 C183 1.454 . S
