# Generated by pormake.
# Topology iac, (4,6)-cn, num edge types: 1
# Building blocks:
#     Node 0, Type 0, BuildingBlock: QUQFOY_clean_sbu_1, # of connection points: 4
#     Node 1, Type 0, BuildingBlock: QUQFOY_clean_sbu_1, # of connection points: 4
#     Node 2, Type 0, BuildingBlock: QUQFOY_clean_sbu_1, # of connection points: 4
#     Node 3, Type 0, BuildingBlock: QUQFOY_clean_sbu_1, # of connection points: 4
#     Node 4, Type 0, BuildingBlock: QUQFOY_clean_sbu_1, # of connection points: 4
#     Node 5, Type 0, BuildingBlock: QUQFOY_clean_sbu_1, # of connection points: 4
#     Node 6, Type 0, BuildingBlock: QUQFOY_clean_sbu_1, # of connection points: 4
#     Node 7, Type 0, BuildingBlock: QUQFOY_clean_sbu_1, # of connection points: 4
#     Node 8, Type 0, BuildingBlock: QUQFOY_clean_sbu_1, # of connection points: 4
#     Node 9, Type 0, BuildingBlock: QUQFOY_clean_sbu_1, # of connection points: 4
#     Node 10, Type 0, BuildingBlock: QUQFOY_clean_sbu_1, # of connection points: 4
#     Node 11, Type 0, BuildingBlock: QUQFOY_clean_sbu_1, # of connection points: 4
#     Node 12, Type 0, BuildingBlock: QUQFOY_clean_sbu_1, # of connection points: 4
#     Node 13, Type 0, BuildingBlock: QUQFOY_clean_sbu_1, # of connection points: 4
#     Node 14, Type 0, BuildingBlock: QUQFOY_clean_sbu_1, # of connection points: 4
#     Node 15, Type 0, BuildingBlock: QUQFOY_clean_sbu_1, # of connection points: 4
#     Node 16, Type 0, BuildingBlock: QUQFOY_clean_sbu_1, # of connection points: 4
#     Node 17, Type 0, BuildingBlock: QUQFOY_clean_sbu_1, # of connection points: 4
#     Node 18, Type 0, BuildingBlock: QUQFOY_clean_sbu_1, # of connection points: 4
#     Node 19, Type 0, BuildingBlock: QUQFOY_clean_sbu_1, # of connection points: 4
#     Node 20, Type 0, BuildingBlock: QUQFOY_clean_sbu_1, # of connection points: 4
#     Node 21, Type 0, BuildingBlock: QUQFOY_clean_sbu_1, # of connection points: 4
#     Node 22, Type 0, BuildingBlock: QUQFOY_clean_sbu_1, # of connection points: 4
#     Node 23, Type 0, BuildingBlock: QUQFOY_clean_sbu_1, # of connection points: 4
#     Node 24, Type 1, BuildingBlock: VOLQOD_clean_sbu_1, # of connection points: 6
#     Node 25, Type 1, BuildingBlock: VOLQOD_clean_sbu_1, # of connection points: 6
#     Node 26, Type 1, BuildingBlock: VOLQOD_clean_sbu_1, # of connection points: 6
#     Node 27, Type 1, BuildingBlock: VOLQOD_clean_sbu_1, # of connection points: 6
#     Node 28, Type 1, BuildingBlock: VOLQOD_clean_sbu_1, # of connection points: 6
#     Node 29, Type 1, BuildingBlock: VOLQOD_clean_sbu_1, # of connection points: 6
#     Node 30, Type 1, BuildingBlock: VOLQOD_clean_sbu_1, # of connection points: 6
#     Node 31, Type 1, BuildingBlock: VOLQOD_clean_sbu_1, # of connection points: 6
#     Node 32, Type 1, BuildingBlock: VOLQOD_clean_sbu_1, # of connection points: 6
#     Node 33, Type 1, BuildingBlock: VOLQOD_clean_sbu_1, # of connection points: 6
#     Node 34, Type 1, BuildingBlock: VOLQOD_clean_sbu_1, # of connection points: 6
#     Node 35, Type 1, BuildingBlock: VOLQOD_clean_sbu_1, # of connection points: 6
#     Node 36, Type 1, BuildingBlock: VOLQOD_clean_sbu_1, # of connection points: 6
#     Node 37, Type 1, BuildingBlock: VOLQOD_clean_sbu_1, # of connection points: 6
#     Node 38, Type 1, BuildingBlock: VOLQOD_clean_sbu_1, # of connection points: 6
#     Node 39, Type 1, BuildingBlock: VOLQOD_clean_sbu_1, # of connection points: 6
#     Edge 40, Type (0, 1), BuildingBlock: XIVTED_clean_linker_0, # of connection points: 2
#     Edge 41, Type (0, 1), BuildingBlock: XIVTED_clean_linker_0, # of connection points: 2
#     Edge 42, Type (0, 1), BuildingBlock: XIVTED_clean_linker_0, # of connection points: 2
#     Edge 43, Type (0, 1), BuildingBlock: XIVTED_clean_linker_0, # of connection points: 2
#     Edge 44, Type (0, 1), BuildingBlock: XIVTED_clean_linker_0, # of connection points: 2
#     Edge 45, Type (0, 1), BuildingBlock: XIVTED_clean_linker_0, # of connection points: 2
#     Edge 46, Type (0, 1), BuildingBlock: XIVTED_clean_linker_0, # of connection points: 2
#     Edge 47, Type (0, 1), BuildingBlock: XIVTED_clean_linker_0, # of connection points: 2
#     Edge 48, Type (0, 1), BuildingBlock: XIVTED_clean_linker_0, # of connection points: 2
#     Edge 49, Type (0, 1), BuildingBlock: XIVTED_clean_linker_0, # of connection points: 2
#     Edge 50, Type (0, 1), BuildingBlock: XIVTED_clean_linker_0, # of connection points: 2
#     Edge 51, Type (0, 1), BuildingBlock: XIVTED_clean_linker_0, # of connection points: 2
#     Edge 52, Type (0, 1), BuildingBlock: XIVTED_clean_linker_0, # of connection points: 2
#     Edge 53, Type (0, 1), BuildingBlock: XIVTED_clean_linker_0, # of connection points: 2
#     Edge 54, Type (0, 1), BuildingBlock: XIVTED_clean_linker_0, # of connection points: 2
#     Edge 55, Type (0, 1), BuildingBlock: XIVTED_clean_linker_0, # of connection points: 2
#     Edge 56, Type (0, 1), BuildingBlock: XIVTED_clean_linker_0, # of connection points: 2
#     Edge 57, Type (0, 1), BuildingBlock: XIVTED_clean_linker_0, # of connection points: 2
#     Edge 58, Type (0, 1), BuildingBlock: XIVTED_clean_linker_0, # of connection points: 2
#     Edge 59, Type (0, 1), BuildingBlock: XIVTED_clean_linker_0, # of connection points: 2
#     Edge 60, Type (0, 1), BuildingBlock: XIVTED_clean_linker_0, # of connection points: 2
#     Edge 61, Type (0, 1), BuildingBlock: XIVTED_clean_linker_0, # of connection points: 2
#     Edge 62, Type (0, 1), BuildingBlock: XIVTED_clean_linker_0, # of connection points: 2
#     Edge 63, Type (0, 1), BuildingBlock: XIVTED_clean_linker_0, # of connection points: 2
#     Edge 64, Type (0, 1), BuildingBlock: XIVTED_clean_linker_0, # of connection points: 2
#     Edge 65, Type (0, 1), BuildingBlock: XIVTED_clean_linker_0, # of connection points: 2
#     Edge 66, Type (0, 1), BuildingBlock: XIVTED_clean_linker_0, # of connection points: 2
#     Edge 67, Type (0, 1), BuildingBlock: XIVTED_clean_linker_0, # of connection points: 2
#     Edge 68, Type (0, 1), BuildingBlock: XIVTED_clean_linker_0, # of connection points: 2
#     Edge 69, Type (0, 1), BuildingBlock: XIVTED_clean_linker_0, # of connection points: 2
#     Edge 70, Type (0, 1), BuildingBlock: XIVTED_clean_linker_0, # of connection points: 2
#     Edge 71, Type (0, 1), BuildingBlock: XIVTED_clean_linker_0, # of connection points: 2
#     Edge 72, Type (0, 1), BuildingBlock: XIVTED_clean_linker_0, # of connection points: 2
#     Edge 73, Type (0, 1), BuildingBlock: XIVTED_clean_linker_0, # of connection points: 2
#     Edge 74, Type (0, 1), BuildingBlock: XIVTED_clean_linker_0, # of connection points: 2
#     Edge 75, Type (0, 1), BuildingBlock: XIVTED_clean_linker_0, # of connection points: 2
#     Edge 76, Type (0, 1), BuildingBlock: XIVTED_clean_linker_0, # of connection points: 2
#     Edge 77, Type (0, 1), BuildingBlock: XIVTED_clean_linker_0, # of connection points: 2
#     Edge 78, Type (0, 1), BuildingBlock: XIVTED_clean_linker_0, # of connection points: 2
#     Edge 79, Type (0, 1), BuildingBlock: XIVTED_clean_linker_0, # of connection points: 2
#     Edge 80, Type (0, 1), BuildingBlock: XIVTED_clean_linker_0, # of connection points: 2
#     Edge 81, Type (0, 1), BuildingBlock: XIVTED_clean_linker_0, # of connection points: 2
#     Edge 82, Type (0, 1), BuildingBlock: XIVTED_clean_linker_0, # of connection points: 2
#     Edge 83, Type (0, 1), BuildingBlock: XIVTED_clean_linker_0, # of connection points: 2
#     Edge 84, Type (0, 1), BuildingBlock: XIVTED_clean_linker_0, # of connection points: 2
#     Edge 85, Type (0, 1), BuildingBlock: XIVTED_clean_linker_0, # of connection points: 2
#     Edge 86, Type (0, 1), BuildingBlock: XIVTED_clean_linker_0, # of connection points: 2
#     Edge 87, Type (0, 1), BuildingBlock: XIVTED_clean_linker_0, # of connection points: 2
#     Edge 88, Type (0, 1), BuildingBlock: XIVTED_clean_linker_0, # of connection points: 2
#     Edge 89, Type (0, 1), BuildingBlock: XIVTED_clean_linker_0, # of connection points: 2
#     Edge 90, Type (0, 1), BuildingBlock: XIVTED_clean_linker_0, # of connection points: 2
#     Edge 91, Type (0, 1), BuildingBlock: XIVTED_clean_linker_0, # of connection points: 2
#     Edge 92, Type (0, 1), BuildingBlock: XIVTED_clean_linker_0, # of connection points: 2
#     Edge 93, Type (0, 1), BuildingBlock: XIVTED_clean_linker_0, # of connection points: 2
#     Edge 94, Type (0, 1), BuildingBlock: XIVTED_clean_linker_0, # of connection points: 2
#     Edge 95, Type (0, 1), BuildingBlock: XIVTED_clean_linker_0, # of connection points: 2
#     Edge 96, Type (0, 1), BuildingBlock: XIVTED_clean_linker_0, # of connection points: 2
#     Edge 97, Type (0, 1), BuildingBlock: XIVTED_clean_linker_0, # of connection points: 2
#     Edge 98, Type (0, 1), BuildingBlock: XIVTED_clean_linker_0, # of connection points: 2
#     Edge 99, Type (0, 1), BuildingBlock: XIVTED_clean_linker_0, # of connection points: 2
#     Edge 100, Type (0, 1), BuildingBlock: XIVTED_clean_linker_0, # of connection points: 2
#     Edge 101, Type (0, 1), BuildingBlock: XIVTED_clean_linker_0, # of connection points: 2
#     Edge 102, Type (0, 1), BuildingBlock: XIVTED_clean_linker_0, # of connection points: 2
#     Edge 103, Type (0, 1), BuildingBlock: XIVTED_clean_linker_0, # of connection points: 2
#     Edge 104, Type (0, 1), BuildingBlock: XIVTED_clean_linker_0, # of connection points: 2
#     Edge 105, Type (0, 1), BuildingBlock: XIVTED_clean_linker_0, # of connection points: 2
#     Edge 106, Type (0, 1), BuildingBlock: XIVTED_clean_linker_0, # of connection points: 2
#     Edge 107, Type (0, 1), BuildingBlock: XIVTED_clean_linker_0, # of connection points: 2
#     Edge 108, Type (0, 1), BuildingBlock: XIVTED_clean_linker_0, # of connection points: 2
#     Edge 109, Type (0, 1), BuildingBlock: XIVTED_clean_linker_0, # of connection points: 2
#     Edge 110, Type (0, 1), BuildingBlock: XIVTED_clean_linker_0, # of connection points: 2
#     Edge 111, Type (0, 1), BuildingBlock: XIVTED_clean_linker_0, # of connection points: 2
#     Edge 112, Type (0, 1), BuildingBlock: XIVTED_clean_linker_0, # of connection points: 2
#     Edge 113, Type (0, 1), BuildingBlock: XIVTED_clean_linker_0, # of connection points: 2
#     Edge 114, Type (0, 1), BuildingBlock: XIVTED_clean_linker_0, # of connection points: 2
#     Edge 115, Type (0, 1), BuildingBlock: XIVTED_clean_linker_0, # of connection points: 2
#     Edge 116, Type (0, 1), BuildingBlock: XIVTED_clean_linker_0, # of connection points: 2
#     Edge 117, Type (0, 1), BuildingBlock: XIVTED_clean_linker_0, # of connection points: 2
#     Edge 118, Type (0, 1), BuildingBlock: XIVTED_clean_linker_0, # of connection points: 2
#     Edge 119, Type (0, 1), BuildingBlock: XIVTED_clean_linker_0, # of connection points: 2
#     Edge 120, Type (0, 1), BuildingBlock: XIVTED_clean_linker_0, # of connection points: 2
#     Edge 121, Type (0, 1), BuildingBlock: XIVTED_clean_linker_0, # of connection points: 2
#     Edge 122, Type (0, 1), BuildingBlock: XIVTED_clean_linker_0, # of connection points: 2
#     Edge 123, Type (0, 1), BuildingBlock: XIVTED_clean_linker_0, # of connection points: 2
#     Edge 124, Type (0, 1), BuildingBlock: XIVTED_clean_linker_0, # of connection points: 2
#     Edge 125, Type (0, 1), BuildingBlock: XIVTED_clean_linker_0, # of connection points: 2
#     Edge 126, Type (0, 1), BuildingBlock: XIVTED_clean_linker_0, # of connection points: 2
#     Edge 127, Type (0, 1), BuildingBlock: XIVTED_clean_linker_0, # of connection points: 2
#     Edge 128, Type (0, 1), BuildingBlock: XIVTED_clean_linker_0, # of connection points: 2
#     Edge 129, Type (0, 1), BuildingBlock: XIVTED_clean_linker_0, # of connection points: 2
#     Edge 130, Type (0, 1), BuildingBlock: XIVTED_clean_linker_0, # of connection points: 2
#     Edge 131, Type (0, 1), BuildingBlock: XIVTED_clean_linker_0, # of connection points: 2
#     Edge 132, Type (0, 1), BuildingBlock: XIVTED_clean_linker_0, # of connection points: 2
#     Edge 133, Type (0, 1), BuildingBlock: XIVTED_clean_linker_0, # of connection points: 2
#     Edge 134, Type (0, 1), BuildingBlock: XIVTED_clean_linker_0, # of connection points: 2
#     Edge 135, Type (0, 1), BuildingBlock: XIVTED_clean_linker_0, # of connection points: 2
# Relax obj value: 0.335
# Max RMSD: 0.303
# Mean RMSD: 0.199
data_MOF--net-iac--node1-QUQFOY_clean_sbu_1--node2-VOLQOD_clean_sbu_1--edge1-XIVTED_clean_linker_0
_symmetry_space_group_name_H-M    P1
_symmetry_Int_Tables_number       1
_symmetry_cell_setting            triclinic
loop_
_symmetry_equiv_pos_as_xyz
'x, y, z'
_cell_length_a     55.882888
_cell_length_b     55.931777
_cell_length_c     56.052872
_cell_angle_alpha  91.286426
_cell_angle_beta   90.463911
_cell_angle_gamma 93.756815
loop_
_atom_site_label
_atom_site_type_symbol
_atom_site_fract_x
_atom_site_fract_y
_atom_site_fract_z
_atom_type_partial_charge
O0 O 0.98346 0.24223 0.13026 0.0
Cd1 Cd 0.98653 0.27073 0.1541 0.0
Cd2 Cd 0.00733 0.2914 0.11257 0.0
O3 O 0.99265 0.2603 0.09671 0.0
O4 O 0.97025 0.25538 0.18174 0.0
O5 O 0.95609 0.28596 0.16309 0.0
C6 C 0.95343 0.26977 0.1791 0.0
C7 C 0.00261 0.32781 0.09474 0.0
C8 C 0.98497 0.24179 0.1077 0.0
C9 C 0.03837 0.28931 0.15607 0.0
O10 O 0.03775 0.29109 0.13352 0.0
O11 O 0.01947 0.28325 0.16751 0.0
O12 O 0.0167 0.31265 0.08585 0.0
O13 O 0.99036 0.32184 0.1134 0.0
O14 O 0.06597 0.72113 0.38235 0.0
Cd15 Cd 0.04208 0.72989 0.40869 0.0
Cd16 Cd 0.01327 0.73679 0.37124 0.0
O17 O 0.04008 0.72188 0.3525 0.0
O18 O 0.04693 0.71104 0.43778 0.0
O19 O 0.01448 0.70661 0.41456 0.0
C20 C 0.02613 0.70038 0.4332 0.0
C21 C 0.97343 0.72929 0.35958 0.0
C22 C 0.06083 0.71803 0.3603 0.0
C23 C 0.02774 0.77926 0.40359 0.0
O24 O 0.01884 0.77133 0.38385 0.0
O25 O 0.03767 0.76531 0.41761 0.0
O26 O 0.98863 0.74087 0.34629 0.0
O27 O 0.98121 0.72038 0.37898 0.0
O28 O 0.51409 0.70789 0.64666 0.0
Cd29 Cd 0.51969 0.73904 0.66676 0.0
Cd30 Cd 0.53943 0.75515 0.62535 0.0
O31 O 0.52734 0.72211 0.61259 0.0
O32 O 0.49926 0.73245 0.69468 0.0
O33 O 0.49206 0.76001 0.66817 0.0
C34 C 0.48556 0.74829 0.6869 0.0
C35 C 0.52856 0.78719 0.60364 0.0
C36 C 0.51716 0.70532 0.62438 0.0
C37 C 0.57054 0.75987 0.66883 0.0
O38 O 0.56959 0.76125 0.64629 0.0
O39 O 0.55244 0.75168 0.68033 0.0
O40 O 0.54588 0.77454 0.59692 0.0
O41 O 0.5171 0.78136 0.62282 0.0
O42 O 0.56099 0.21666 0.8653 0.0
Cd43 Cd 0.53968 0.21862 0.89484 0.0
Cd44 Cd 0.50527 0.23322 0.85879 0.0
O45 O 0.53556 0.22943 0.8387 0.0
O46 O 0.55202 0.19783 0.91968 0.0
O47 O 0.51616 0.19168 0.90241 0.0
C48 C 0.53173 0.18546 0.91792 0.0
C49 C 0.46928 0.23453 0.83748 0.0
C50 C 0.55601 0.22233 0.8441 0.0
C51 C 0.51739 0.26357 0.90481 0.0
O52 O 0.50486 0.25792 0.88634 0.0
O53 O 0.53451 0.25117 0.91093 0.0
O54 O 0.48606 0.25124 0.83626 0.0
O55 O 0.47339 0.21595 0.84974 0.0
O56 O 0.13923 -0.00224 0.15486 0.0
Cd57 Cd 0.16612 0.00515 0.17986 0.0
Cd58 Cd 0.12784 0.01231 0.21115 0.0
O59 O 0.11038 -0.002 0.18148 0.0
O60 O 0.19249 0.98349 0.17532 0.0
O61 O 0.16726 0.98169 0.2058 0.0
C62 C 0.18516 0.97325 0.19464 0.0
C63 C 0.10477 0.0099 0.24554 0.0
C64 C 0.11726 0.99427 0.1603 0.0
C65 C 0.16616 0.05316 0.20134 0.0
O66 O 0.1468 0.04489 0.21058 0.0
O67 O 0.1783 0.03996 0.18803 0.0
O68 O 0.10009 0.02395 0.22858 0.0
O69 O 0.12241 -0.00367 0.24286 0.0
O70 O 0.23916 0.90136 0.5749 0.0
Cd71 Cd 0.24166 0.93073 0.55343 0.0
Cd72 Cd 0.25949 0.89844 0.51909 0.0
O73 O 0.25384 0.87697 0.54812 0.0
O74 O 0.21579 0.95199 0.56145 0.0
O75 O 0.2181 0.9322 0.52678 0.0
C76 C 0.20709 0.94679 0.54041 0.0
C77 C 0.25945 0.8763 0.48333 0.0
C78 C 0.24534 0.8807 0.56869 0.0
C79 C 0.28758 0.94629 0.5323 0.0
O80 O 0.28382 0.92765 0.51912 0.0
O81 O 0.27356 0.95062 0.54934 0.0
O82 O 0.27683 0.87623 0.49846 0.0
O83 O 0.24171 0.88912 0.48844 0.0
O84 O 0.33799 0.00296 0.70917 0.0
Cd85 Cd 0.30957 0.00134 0.73218 0.0
Cd86 Cd 0.34406 0.98131 0.7641 0.0
O87 O 0.36315 0.98621 0.7332 0.0
O88 O 0.28789 0.02622 0.72303 0.0
O89 O 0.3082 0.02696 0.75731 0.0
C90 C 0.29336 0.03672 0.74327 0.0
C91 C 0.3694 0.97978 0.79716 0.0
C92 C 0.35855 -0.00444 0.71341 0.0
C93 C 0.29383 0.9564 0.75485 0.0
O94 O 0.31323 0.95949 0.76679 0.0
O95 O 0.28941 0.96999 0.73777 0.0
O96 O 0.36657 0.96216 0.78207 0.0
O97 O 0.35754 -0.00153 0.79364 0.0
O98 O 0.26511 0.12525 0.10882 0.0
Cd99 Cd 0.25129 0.09842 0.08596 0.0
Cd100 Cd 0.24816 0.13809 0.05325 0.0
O101 O 0.26632 0.15365 0.08205 0.0
O102 O 0.26634 0.06815 0.09277 0.0
O103 O 0.27229 0.08871 0.0596 0.0
C104 C 0.27667 0.07046 0.07234 0.0
C105 C 0.25097 0.16135 0.01929 0.0
C106 C 0.271 0.14658 0.10281 0.0
C107 C 0.20356 0.10487 0.06601 0.0
O108 O 0.2141 0.12218 0.05521 0.0
O109 O 0.21504 0.09231 0.08015 0.0
O110 O 0.23878 0.16743 0.0375 0.0
O111 O 0.26252 0.14217 0.02046 0.0
O112 O 0.75714 0.39374 0.07002 0.0
Cd113 Cd 0.76069 0.42305 0.04853 0.0
Cd114 Cd 0.78261 0.3907 0.01874 0.0
O115 O 0.77571 0.36861 0.04693 0.0
O116 O 0.73548 0.4443 0.05848 0.0
O117 O 0.7362 0.42607 0.0229 0.0
C118 C 0.72583 0.44003 0.03771 0.0
C119 C 0.77783 0.37206 0.9815 0.0
C120 C 0.76442 0.37303 0.06588 0.0
C121 C 0.80888 0.4388 0.03144 0.0
O122 O 0.80788 0.41897 0.0199 0.0
O123 O 0.79217 0.44385 0.0455 0.0
O124 O 0.79608 0.36883 -0.00507 0.0
O125 O 0.76195 0.38599 0.98934 0.0
O126 O 0.85461 0.50957 0.19519 0.0
Cd127 Cd 0.82686 0.50314 0.21837 0.0
Cd128 Cd 0.86108 0.48229 0.24523 0.0
O129 O 0.88241 0.49603 0.21855 0.0
O130 O 0.80306 0.52724 0.21345 0.0
O131 O 0.82607 0.52601 0.24593 0.0
C132 C 0.80972 0.53615 0.23408 0.0
C133 C 0.87719 0.48505 0.28349 0.0
C134 C 0.87647 0.50629 0.19964 0.0
C135 C 0.81581 0.45258 0.23073 0.0
O136 O 0.83652 0.45369 0.24031 0.0
O137 O 0.80818 0.4706 0.22049 0.0
O138 O 0.88417 0.46971 0.26799 0.0
O139 O 0.86126 0.4994 0.27703 0.0
O140 O 0.74724 0.62273 0.62281 0.0
Cd141 Cd 0.72908 0.59514 0.60402 0.0
Cd142 Cd 0.718 0.63202 0.5729 0.0
O143 O 0.74199 0.65007 0.59586 0.0
O144 O 0.7451 0.56532 0.61021 0.0
O145 O 0.74515 0.58308 0.57513 0.0
C146 C 0.75191 0.56597 0.58826 0.0
C147 C 0.7186 0.64681 0.5343 0.0
C148 C 0.75144 0.64378 0.61518 0.0
C149 C 0.67757 0.60127 0.59595 0.0
O150 O 0.68453 0.61906 0.58348 0.0
O151 O 0.69264 0.58864 0.60593 0.0
O152 O 0.70982 0.65842 0.55188 0.0
O153 O 0.72717 0.62643 0.53853 0.0
O154 O 0.62589 0.50793 0.6595 0.0
Cd155 Cd 0.6563 0.51733 0.67965 0.0
Cd156 Cd 0.62336 0.5272 0.71548 0.0
O157 O 0.60082 0.51378 0.68894 0.0
O158 O 0.68232 0.49618 0.67139 0.0
O159 O 0.66296 0.49541 0.70588 0.0
C160 C 0.6791 0.48703 0.69218 0.0
C161 C 0.60779 0.52151 0.75344 0.0
C162 C 0.6047 0.50705 0.66766 0.0
C163 C 0.66048 0.56642 0.69986 0.0
O164 O 0.64284 0.55926 0.71252 0.0
O165 O 0.66941 0.55241 0.68471 0.0
O166 O 0.60001 0.53722 0.73945 0.0
O167 O 0.62464 0.50863 0.74589 0.0
O168 O 0.07132 0.7708 0.88951 0.0
Cd169 Cd 0.05148 0.79221 0.91071 0.0
Cd170 Cd 0.01546 0.78072 0.87778 0.0
O171 O 0.04215 0.76146 0.86351 0.0
O172 O 0.05875 0.78787 0.94529 0.0
O173 O 0.02453 0.77563 0.92724 0.0
C174 C 0.03773 0.77679 0.94624 0.0
C175 C 0.97743 0.76122 0.87818 0.0
C176 C 0.06348 0.75955 0.87081 0.0
C177 C 0.03118 0.83308 0.8863 0.0
O178 O 0.01708 0.8176 0.87548 0.0
O179 O 0.04677 0.8267 0.90111 0.0
O180 O 0.9869 0.76869 0.8586 0.0
O181 O 0.98948 0.76488 0.89772 0.0
O182 O 0.00251 0.20292 0.60875 0.0
Cd183 Cd 0.00567 0.2194 0.64214 0.0
Cd184 Cd 0.03607 0.24799 0.6178 0.0
O185 O 0.03748 0.21805 0.59617 0.0
O186 O 0.97697 0.21226 0.66267 0.0
O187 O 0.98873 0.24855 0.65065 0.0
C188 C 0.97421 0.23502 0.66293 0.0
C189 C 0.01887 0.27995 0.6 0.0
C190 C 0.01933 0.2033 0.59355 0.0
C191 C 0.05142 0.23242 0.66562 0.0
O192 O 0.05298 0.24957 0.65101 0.0
O193 O 0.03553 0.21534 0.66259 0.0
O194 O 0.04164 0.2775 0.59821 0.0
O195 O 0.00639 0.26481 0.61255 0.0
O196 O 0.50605 0.21185 0.40925 0.0
Cd197 Cd 0.48912 0.23068 0.38393 0.0
Cd198 Cd 0.48654 0.26355 0.41938 0.0
O199 O 0.50475 0.23926 0.43805 0.0
O200 O 0.5 0.22023 0.35179 0.0
O201 O 0.5089 0.25624 0.36809 0.0
C202 C 0.51125 0.24109 0.3507 0.0
C203 C 0.50139 0.30314 0.4199 0.0
C204 C 0.51088 0.21902 0.4305 0.0
C205 C 0.44006 0.243 0.39887 0.0
O206 O 0.45018 0.2572 0.41443 0.0
O207 O 0.45244 0.23095 0.38463 0.0
O208 O 0.49157 0.29373 0.4385 0.0
O209 O 0.50296 0.29001 0.40087 0.0
O210 O 0.49679 0.68928 0.12003 0.0
Cd211 Cd 0.50103 0.70751 0.1524 0.0
Cd212 Cd 0.53007 0.73531 0.12761 0.0
O213 O 0.53133 0.70476 0.10695 0.0
O214 O 0.47323 0.70183 0.17414 0.0
O215 O 0.48451 0.73729 0.15958 0.0
C216 C 0.47063 0.72459 0.17333 0.0
C217 C 0.51672 0.76737 0.10694 0.0
C218 C 0.51353 0.68955 0.10478 0.0
C219 C 0.54734 0.7211 0.1747 0.0
O220 O 0.54823 0.73807 0.15992 0.0
O221 O 0.53141 0.70395 0.17238 0.0
O222 O 0.53902 0.76257 0.10638 0.0
O223 O 0.50242 0.75474 0.12035 0.0
O224 O 0.89444 0.02964 0.69399 0.0
Cd225 Cd 0.88062 0.03163 0.72826 0.0
Cd226 Cd 0.92681 0.01995 0.73943 0.0
O227 O 0.93147 0.02141 0.70357 0.0
O228 O 0.84971 0.04808 0.72712 0.0
O229 O 0.88207 0.06269 0.74668 0.0
C230 C 0.86 0.06462 0.74079 0.0
C231 C 0.94476 0.04784 0.76597 0.0
C232 C 0.91564 0.02514 0.68794 0.0
C233 C 0.88738 0.98536 0.75397 0.0
O234 O 0.90995 0.98929 0.75233 0.0
O235 O 0.8731 0.00024 0.7462 0.0
O236 O 0.95645 0.03003 0.75833 0.0
O237 O 0.92343 0.04988 0.75774 0.0
O238 O 0.79576 0.13712 0.54659 0.0
Cd239 Cd 0.77981 0.10945 0.52575 0.0
Cd240 Cd 0.75111 0.14269 0.51082 0.0
O241 O 0.77262 0.16434 0.53298 0.0
O242 O 0.80178 0.08315 0.52089 0.0
O243 O 0.78847 0.10477 0.49154 0.0
C244 C 0.80076 0.0874 0.49837 0.0
C245 C 0.74691 0.15507 0.47189 0.0
C246 C 0.7895 0.15859 0.54653 0.0
C247 C 0.7278 0.10175 0.53722 0.0
O248 O 0.72468 0.12129 0.5268 0.0
O249 O 0.74843 0.09358 0.53825 0.0
O250 O 0.73579 0.16509 0.48912 0.0
O251 O 0.75984 0.1375 0.47675 0.0
O252 O 0.60883 0.94241 0.22404 0.0
Cd253 Cd 0.63412 0.9568 0.24833 0.0
Cd254 Cd 0.59696 0.97921 0.26668 0.0
O255 O 0.57835 0.95973 0.24036 0.0
O256 O 0.66163 0.93632 0.25319 0.0
O257 O 0.63604 0.94527 0.28153 0.0
C258 C 0.65507 0.93501 0.27521 0.0
C259 C 0.58219 0.97892 0.30542 0.0
C260 C 0.58669 0.94654 0.22411 0.0
C261 C 0.63739 0.00974 0.24536 0.0
O262 O 0.61711 0.00907 0.25558 0.0
O263 O 0.64784 0.99064 0.24124 0.0
O264 O 0.57211 0.99066 0.289 0.0
O265 O 0.60058 0.96734 0.29977 0.0
O266 O 0.73595 0.86936 0.09065 0.0
Cd267 Cd 0.73456 0.88647 0.05805 0.0
Cd268 Cd 0.75853 0.84761 0.04358 0.0
O269 O 0.7545 0.83775 0.07819 0.0
O270 O 0.71096 0.91185 0.06041 0.0
O271 O 0.70616 0.88019 0.03616 0.0
C272 C 0.69856 0.90013 0.04395 0.0
C273 C 0.73946 0.82608 0.01246 0.0
C274 C 0.74495 0.8495 0.09483 0.0
C275 C 0.78412 0.89495 0.03672 0.0
O276 O 0.78584 0.87241 0.03573 0.0
O277 O 0.76521 0.90378 0.04447 0.0
O278 O 0.75897 0.81898 0.0217 0.0
O279 O 0.73067 0.84497 0.02149 0.0
O280 O 0.32108 0.63297 0.05504 0.0
Cd281 Cd 0.30515 0.6108 0.02877 0.0
Cd282 Cd 0.29404 0.6516 0.00883 0.0
O283 O 0.31196 0.66653 0.03816 0.0
O284 O 0.31952 0.57924 0.02542 0.0
O285 O 0.31917 0.60591 -0.00326 0.0
C286 C 0.32425 0.58497 0.00367 0.0
C287 C 0.30175 0.66665 0.97098 0.0
C288 C 0.32081 0.65572 0.05554 0.0
C289 C 0.25345 0.6182 0.02563 0.0
O290 O 0.25969 0.63762 0.0153 0.0
O291 O 0.26907 0.60431 0.03241 0.0
O292 O 0.29026 0.67859 0.98658 0.0
O293 O 0.30934 0.64639 0.97709 0.0
O294 O 0.1005 0.46563 0.7224 0.0
Cd295 Cd 0.12975 0.4779 0.74321 0.0
Cd296 Cd 0.10182 0.5125 0.75678 0.0
O297 O 0.07742 0.49382 0.73482 0.0
O298 O 0.1528 0.45247 0.74481 0.0
O299 O 0.13548 0.46738 0.77677 0.0
C300 C 0.15072 0.45344 0.7677 0.0
C301 C 0.08989 0.52089 0.79543 0.0
C302 C 0.08059 0.47543 0.72186 0.0
C303 C 0.14616 0.52815 0.7309 0.0
O304 O 0.12728 0.53497 0.74072 0.0
O305 O 0.15054 0.50619 0.7304 0.0
O306 O 0.08208 0.53242 0.77761 0.0
O307 O 0.10495 0.50476 0.79134 0.0
O308 O 0.20289 0.36491 0.57413 0.0
Cd309 Cd 0.20378 0.38357 0.54283 0.0
Cd310 Cd 0.22317 0.34391 0.52554 0.0
O311 O 0.22085 0.33351 0.56028 0.0
O312 O 0.18351 0.41139 0.54698 0.0
O313 O 0.17608 0.3824 0.51994 0.0
C314 C 0.17065 0.40255 0.5293 0.0
C315 C 0.20138 0.32341 0.49551 0.0
C316 C 0.21166 0.34483 0.57745 0.0
C317 C 0.25306 0.38928 0.52132 0.0
O318 O 0.25162 0.36699 0.5162 0.0
O319 O 0.23616 0.39879 0.53225 0.0
O320 O 0.22093 0.31533 0.50361 0.0
O321 O 0.19401 0.34274 0.5051 0.0
O322 O 0.4119 0.52291 0.20725 0.0
Cd323 Cd 0.39595 0.52575 0.24051 0.0
Cd324 Cd 0.43619 0.50204 0.25265 0.0
O325 O 0.44429 0.50467 0.21753 0.0
O326 O 0.3678 0.54577 0.23658 0.0
O327 O 0.3985 0.55633 0.26037 0.0
C328 C 0.37767 0.56062 0.2522 0.0
C329 C 0.454 0.5272 0.2816 0.0
C330 C 0.43138 0.51359 0.20171 0.0
C331 C 0.38967 0.4762 0.26209 0.0
O332 O 0.41223 0.47449 0.26192 0.0
O333 O 0.38049 0.49506 0.25514 0.0
O334 O 0.46395 0.50783 0.27525 0.0
O335 O 0.4345 0.53214 0.27091 0.0
O336 O 0.97806 0.09017 -0.0029 0.0
Zn337 Zn 0.99473 0.06694 0.97697 0.0
O338 O 0.98154 0.03529 0.98315 0.0
Zn339 Zn 0.00737 0.01471 0.98437 0.0
Zn340 Zn 0.96667 0.03458 0.01388 0.0
Zn341 Zn 0.95948 0.02479 0.95783 0.0
O342 O 0.00977 -0.00376 0.95411 0.0
O343 O 0.97393 -0.00101 0.9373 0.0
O344 O 0.02968 0.07109 0.98657 0.0
O345 O 0.03816 0.03339 0.99155 0.0
O346 O 0.00393 0.99254 0.01155 0.0
O347 O 0.98705 0.01728 0.03685 0.0
O348 O 0.93538 0.01538 0.01075 0.0
O349 O 0.98925 0.0746 0.94278 0.0
O350 O 0.92826 0.0107 0.97167 0.0
O351 O 0.95526 0.0523 0.93574 0.0
C352 C 0.9665 0.0885 0.01651 0.0
C353 C 0.99468 0.99074 0.93748 0.0
C354 C -0.00088 -0.00093 0.03276 0.0
C355 C 0.04434 0.05565 0.99229 0.0
C356 C 0.92216 0.00744 0.99332 0.0
C357 C 0.97072 0.06896 0.92995 0.0
O358 O 0.9616 0.06829 0.02607 0.0
O359 O 0.26615 0.72408 0.22087 0.0
Zn360 Zn 0.25852 0.72973 0.2554 0.0
O361 O 0.27089 0.7616 0.26608 0.0
Zn362 Zn 0.2955 0.75886 0.29105 0.0
Zn363 Zn 0.28435 0.7796 0.23922 0.0
Zn364 Zn 0.24442 0.77842 0.27842 0.0
O365 O 0.2868 0.77646 0.32153 0.0
O366 O 0.2509 0.78859 0.31219 0.0
O367 O 0.27544 0.70495 0.27226 0.0
O368 O 0.30087 0.72411 0.29779 0.0
O369 O 0.32763 0.77159 0.27917 0.0
O370 O 0.31948 0.78735 0.24429 0.0
O371 O 0.26795 0.81015 0.2333 0.0
O372 O 0.22338 0.72301 0.26218 0.0
O373 O 0.23953 0.80818 0.26068 0.0
O374 O 0.21373 0.75801 0.27751 0.0
C375 C 0.27645 0.73703 0.20507 0.0
C376 C 0.26804 0.78714 0.32702 0.0
C377 C 0.33445 0.78222 0.26031 0.0
C378 C 0.2916 0.70474 0.28829 0.0
C379 C 0.25011 0.81886 0.24356 0.0
C380 C 0.20805 0.73646 0.27099 0.0
O381 O 0.28338 0.75883 0.20948 0.0
O382 O 0.50003 0.95764 0.52937 0.0
Zn383 Zn 0.49756 0.9903 0.5156 0.0
O384 O 0.51445 0.01436 0.53613 0.0
Zn385 Zn 0.49374 0.03988 0.54411 0.0
Zn386 Zn 0.52499 0.00079 0.56553 0.0
Zn387 Zn 0.54272 0.0263 0.5199 0.0
O388 O 0.50858 0.0718 0.53429 0.0
O389 O 0.5415 0.0615 0.5157 0.0
O390 O 0.46311 -0.00284 0.51244 0.0
O391 O 0.46117 0.03359 0.52872 0.0
O392 O 0.48562 0.04013 0.57884 0.0
O393 O 0.50254 0.00809 0.59203 0.0
O394 O 0.55883 0.01255 0.57483 0.0
O395 O 0.51162 0.98919 0.48254 0.0
O396 O 0.57224 0.0218 0.53876 0.0
O397 O 0.54591 0.01111 0.48764 0.0
C398 C 0.51244 0.95067 0.54673 0.0
C399 C 0.52757 0.07731 0.52264 0.0
C400 C 0.48863 0.02501 0.59505 0.0
C401 C 0.45137 0.01525 0.51778 0.0
C402 C 0.5759 0.01817 0.56074 0.0
C403 C 0.5317 -0.00242 0.47471 0.0
O404 O 0.52398 0.9653 0.56103 0.0
O405 O 0.24994 0.26061 0.85834 0.0
Zn406 Zn 0.2549 0.27796 0.82752 0.0
O407 O 0.23411 0.26143 0.8033 0.0
Zn408 Zn 0.25272 0.2505 0.77658 0.0
Zn409 Zn 0.21531 0.23395 0.81578 0.0
Zn410 Zn 0.21228 0.28382 0.79239 0.0
O411 O 0.24597 0.26809 0.74665 0.0
O412 O 0.21967 0.29357 0.75908 0.0
O413 O 0.28973 0.27558 0.81894 0.0
O414 O 0.28771 0.25483 0.78458 0.0
O415 O 0.24676 0.21523 0.77034 0.0
O416 O 0.22756 0.20322 0.80291 0.0
O417 O 0.18026 0.23328 0.80535 0.0
O418 O 0.24738 0.31311 0.83296 0.0
O419 O 0.17909 0.26975 0.79096 0.0
O420 O 0.21299 0.31294 0.8128 0.0
C421 C 0.23485 0.24424 0.8654 0.0
C422 C 0.23266 0.28523 0.74276 0.0
C423 C 0.23833 0.19861 0.7836 0.0
C424 C 0.29981 0.2651 0.80166 0.0
C425 C 0.16876 0.24962 0.79587 0.0
C426 C 0.22842 0.32311 0.82702 0.0
O427 O 0.21929 0.23365 0.85137 0.0
O428 O -0.00364 0.00056 0.40192 0.0
Zn429 Zn 0.97709 0.99249 0.43102 0.0
O430 O 0.99139 0.01047 0.45841 0.0
Zn431 Zn -0.00085 0.98856 0.48339 0.0
Zn432 Zn 0.02041 0.02969 0.44978 0.0
Zn433 Zn 0.96822 0.03165 0.4701 0.0
O434 O 0.97923 0.99296 0.5125 0.0
O435 O 0.95675 0.02253 0.50264 0.0
O436 O 0.97968 0.95729 0.43519 0.0
O437 O 0.99509 0.95439 0.47154 0.0
O438 O 0.03371 0.99329 0.49296 0.0
O439 O 0.04959 0.01688 0.46507 0.0
O440 O 0.01963 0.06431 0.46139 0.0
O441 O 0.94213 -0.00067 0.42509 0.0
O442 O 0.98206 0.06499 0.47362 0.0
O443 O 0.93982 0.03136 0.44891 0.0
C444 C 0.01451 0.01481 0.39785 0.0
C445 C 0.963 0.00717 0.51746 0.0
C446 C 0.05183 0.00366 0.48305 0.0
C447 C 0.98747 0.94477 0.4519 0.0
C448 C 0.00252 0.07551 0.47022 0.0
C449 C 0.93097 0.01704 0.4328 0.0
O450 O 0.02493 0.02779 0.41432 0.0
O451 O 0.30548 0.75362 0.7473 0.0
Zn452 Zn 0.27431 0.75004 0.76482 0.0
O453 O 0.2514 0.72962 0.74637 0.0
Zn454 Zn 0.22261 0.74603 0.73989 0.0
Zn455 Zn 0.26477 0.72059 0.71607 0.0
Zn456 Zn 0.24383 0.7011 0.76412 0.0
O457 O 0.19369 0.72855 0.75358 0.0
O458 O 0.20995 0.70126 0.77575 0.0
O459 O 0.26184 0.78226 0.77084 0.0
O460 O 0.22523 0.77903 0.75483 0.0
O461 O 0.21858 0.75276 0.70517 0.0
O462 O 0.25271 0.74115 0.69027 0.0
O463 O 0.25534 0.686 0.70751 0.0
O464 O 0.28176 0.73588 0.79658 0.0
O465 O 0.24578 0.672 0.74328 0.0
O466 O 0.265 0.69889 0.79286 0.0
C467 C 0.31372 0.74167 0.72995 0.0
C468 C 0.19185 0.71213 0.76897 0.0
C469 C 0.23344 0.7519 0.68813 0.0
C470 C 0.24195 0.79106 0.76614 0.0
C471 C 0.24934 0.66872 0.72109 0.0
C472 C 0.27797 0.71481 0.80442 0.0
O473 O 0.30055 0.72648 0.71761 0.0
O474 O 0.51258 0.98383 0.05795 0.0
Zn475 Zn 0.50861 0.98889 0.02292 0.0
O476 O 0.48021 0.97018 0.01084 0.0
Zn477 Zn 0.48936 0.94537 0.98762 0.0
Zn478 Zn 0.46185 0.956 0.03727 0.0
Zn479 Zn 0.46029 0.99182 -0.00456 0.0
O480 O 0.47524 0.95014 0.95433 0.0
O481 O 0.45681 0.98353 0.96136 0.0
O482 O 0.53796 0.97613 0.00906 0.0
O483 O 0.52563 0.94506 0.98578 0.0
O484 O 0.47885 0.91273 -0.00026 0.0
O485 O 0.45876 0.92035 0.03281 0.0
O486 O 0.42869 0.9685 0.04076 0.0
O487 O 0.50908 0.02422 0.01547 0.0
O488 O 0.42777 0.99149 0.00914 0.0
O489 O 0.47399 0.02536 -0.00294 0.0
C490 C 0.5005 0.97196 0.07339 0.0
C491 C 0.46304 0.96715 0.94715 0.0
C492 C 0.467 0.90559 0.01786 0.0
C493 C 0.54245 0.95858 -0.00461 0.0
C494 C 0.41766 0.98216 0.02719 0.0
C495 C 0.49338 0.03582 0.00497 0.0
O496 O 0.4804 0.96101 0.0681 0.0
O497 O 0.18912 0.28034 0.26311 0.0
Zn498 Zn 0.21026 0.2633 0.28468 0.0
O499 O 0.24253 0.27644 0.28095 0.0
Zn500 Zn 0.26342 0.25058 0.27944 0.0
Zn501 Zn 0.24591 0.29376 0.25163 0.0
Zn502 Zn 0.25045 0.2971 0.30819 0.0
O503 O 0.28134 0.24813 0.30987 0.0
O504 O 0.27392 0.28162 0.32971 0.0
O505 O 0.20703 0.22844 0.27478 0.0
O506 O 0.24497 0.21953 0.27181 0.0
O507 O 0.28631 0.2542 0.25247 0.0
O508 O 0.26439 0.27472 0.22804 0.0
O509 O 0.26554 0.32457 0.25822 0.0
O510 O 0.19879 0.26847 0.31815 0.0
O511 O 0.26643 0.32841 0.29785 0.0
O512 O 0.22109 0.30179 0.32775 0.0
C513 C 0.19229 0.29376 0.24522 0.0
C514 C 0.28416 0.26196 0.32814 0.0
C515 C 0.28159 0.2613 0.23166 0.0
C516 C 0.22269 0.21352 0.27008 0.0
C517 C 0.27196 0.33617 0.27728 0.0
C518 C 0.20337 0.28688 0.3316 0.0
O519 O 0.21324 0.30012 0.23783 0.0
O520 O 0.51153 0.4849 0.91402 0.0
Zn521 Zn 0.49051 0.47626 0.942 0.0
O522 O 0.50266 0.49389 0.97067 0.0
Zn523 Zn 0.51249 0.47204 -0.00495 0.0
Zn524 Zn 0.52968 0.51623 0.96293 0.0
Zn525 Zn 0.47739 0.51186 0.98336 0.0
O526 O 0.49534 0.47669 0.02607 0.0
O527 O 0.46865 0.5025 0.01635 0.0
O528 O 0.49147 0.44102 0.94715 0.0
O529 O 0.50656 0.43787 0.98372 0.0
O530 O 0.54767 0.47689 0.00171 0.0
O531 O 0.56026 0.50579 0.97737 0.0
O532 O 0.52514 0.54992 0.97533 0.0
O533 O 0.45606 0.48302 0.9334 0.0
O534 O 0.48708 0.54644 0.98625 0.0
O535 O 0.44839 0.50807 0.9633 0.0
C536 C 0.52751 0.50182 0.9108 0.0
C537 C 0.47782 0.48914 0.03149 0.0
C538 C 0.56443 0.49035 0.99293 0.0
C539 C 0.49821 0.42839 0.96429 0.0
C540 C 0.50652 0.55908 0.98352 0.0
C541 C 0.44206 0.49649 0.94434 0.0
O542 O 0.5348 0.51618 0.92766 0.0
O543 O 0.7788 0.24706 0.25454 0.0
Zn544 Zn 0.74557 0.24942 0.26714 0.0
O545 O 0.723 0.23337 0.2448 0.0
Zn546 Zn 0.70143 0.25544 0.23147 0.0
Zn547 Zn 0.73949 0.21685 0.21939 0.0
Zn548 Zn 0.70362 0.21097 0.26222 0.0
O549 O 0.6673 0.25033 0.24239 0.0
O550 O 0.67247 0.22419 0.27092 0.0
O551 O 0.7406 0.28448 0.26937 0.0
O552 O 0.7125 0.28875 0.24184 0.0
O553 O 0.70344 0.2557 0.19608 0.0
O554 O 0.73446 0.23393 0.18854 0.0
O555 O 0.72608 0.18225 0.21519 0.0
O556 O 0.74435 0.23444 0.29968 0.0
O557 O 0.69706 0.18176 0.24227 0.0
O558 O 0.71959 0.20235 0.29244 0.0
C559 C 0.78818 0.23409 0.23867 0.0
C560 C 0.65959 0.23856 0.2602 0.0
C561 C 0.71891 0.24808 0.18175 0.0
C562 C 0.7276 0.29768 0.25722 0.0
C563 C 0.70773 0.17204 0.22501 0.0
C564 C 0.73431 0.21451 0.30606 0.0
O565 O 0.77542 0.21966 0.22508 0.0
O566 O 0.99351 0.49685 0.55968 0.0
Zn567 Zn 0.9872 0.50214 0.52518 0.0
O568 O 0.95849 0.48323 0.51458 0.0
Zn569 Zn 0.96693 0.45919 0.49057 0.0
Zn570 Zn 0.94276 0.46777 0.54202 0.0
Zn571 Zn 0.93702 0.50456 0.50032 0.0
O572 O 0.94995 0.46299 0.45897 0.0
O573 O 0.93068 0.49578 0.46627 0.0
O574 O 0.01611 0.49095 0.50887 0.0
O575 O 0.00245 0.46111 0.48477 0.0
O576 O 0.96039 0.42608 0.50313 0.0
O577 O 0.94329 0.432 0.53822 0.0
O578 O 0.90853 0.47716 0.54605 0.0
O579 O 0.9858 0.53729 0.51891 0.0
O580 O 0.90549 0.50248 0.51636 0.0
O581 O 0.95034 0.53872 0.50121 0.0
C582 C 0.98227 0.48585 0.57623 0.0
C583 C 0.93643 0.47906 0.45215 0.0
C584 C 0.95143 0.41805 0.52241 0.0
C585 C 0.01974 0.47447 0.49361 0.0
C586 C 0.89639 0.49116 0.53386 0.0
C587 C 0.96992 0.54908 0.50894 0.0
O588 O 0.9618 0.47495 0.5725 0.0
O589 O 0.73795 0.74223 0.37306 0.0
Zn590 Zn 0.75078 0.76232 0.34616 0.0
O591 O 0.73644 0.74961 0.31612 0.0
Zn592 Zn 0.76154 0.7456 0.29284 0.0
Zn593 Zn 0.71783 0.71909 0.32058 0.0
Zn594 Zn 0.71532 0.77246 0.30429 0.0
O595 O 0.758 0.76567 0.2638 0.0
O596 O 0.72603 0.78541 0.27274 0.0
O597 O 0.78665 0.75957 0.34593 0.0
O598 O 0.79388 0.75272 0.30757 0.0
O599 O 0.76203 0.71125 0.28261 0.0
O600 O 0.73324 0.69226 0.30342 0.0
O601 O 0.68402 0.7196 0.30716 0.0
O602 O 0.74358 0.79722 0.35258 0.0
O603 O 0.68249 0.75801 0.29876 0.0
O604 O 0.7138 0.80011 0.32647 0.0
C605 C 0.72542 0.72241 0.37422 0.0
C606 C 0.74292 0.78089 0.2586 0.0
C607 C 0.75042 0.69207 0.28867 0.0
C608 C 0.80122 0.75641 0.32896 0.0
C609 C 0.67258 0.73698 0.2997 0.0
C610 C 0.72662 0.80855 0.34386 0.0
O611 O 0.71685 0.7114 0.35557 0.0
O612 O 0.7615 0.24118 0.70883 0.0
Zn613 Zn 0.75444 0.24637 0.74318 0.0
O614 O 0.77009 0.27658 0.75452 0.0
Zn615 Zn 0.79493 0.26997 0.77789 0.0
Zn616 Zn 0.78403 0.29456 0.72764 0.0
Zn617 Zn 0.74623 0.29516 0.76949 0.0
O618 O 0.78939 0.28634 0.8096 0.0
O619 O 0.75453 0.30232 0.80368 0.0
O620 O 0.76799 0.21869 0.75884 0.0
O621 O 0.79679 0.23444 0.78284 0.0
O622 O 0.82727 0.28054 0.76532 0.0
O623 O 0.81976 0.29939 0.73191 0.0
O624 O 0.7697 0.32674 0.72369 0.0
O625 O 0.71903 0.24373 0.74903 0.0
O626 O 0.7442 0.32644 0.75384 0.0
O627 O 0.71355 0.27821 0.76791 0.0
C628 C 0.77214 0.25347 0.69279 0.0
C629 C 0.77215 0.2982 0.81715 0.0
C630 C 0.8345 0.29188 0.74702 0.0
C631 C 0.78483 0.21628 0.77375 0.0
C632 C 0.75404 0.33679 0.73614 0.0
C633 C 0.70543 0.25803 0.75931 0.0
O634 O 0.78067 0.27483 0.697 0.0
O635 O 0.71523 0.78067 0.77999 0.0
Zn636 Zn 0.73678 0.76078 0.79839 0.0
O637 O 0.76956 0.77097 0.79171 0.0
Zn638 Zn 0.78724 0.74301 0.78585 0.0
Zn639 Zn 0.7716 0.79 0.76342 0.0
Zn640 Zn 0.78223 0.78901 0.81911 0.0
O641 O 0.8082 0.73674 0.81354 0.0
O642 O 0.80697 0.77021 0.8355 0.0
O643 O 0.72911 0.72713 0.78627 0.0
O644 O 0.76491 0.71444 0.77789 0.0
O645 O 0.80737 0.74619 0.75662 0.0
O646 O 0.78639 0.77164 0.7368 0.0
O647 O 0.79242 0.81994 0.77002 0.0
O648 O 0.72908 0.76442 0.83323 0.0
O649 O 0.79776 0.82087 0.80947 0.0
O650 O 0.7564 0.79382 0.84303 0.0
C651 C 0.71804 0.79365 0.76173 0.0
C652 C 0.81484 0.74958 0.83172 0.0
C653 C 0.80178 0.75584 0.73719 0.0
C654 C 0.7422 0.71102 0.7783 0.0
C655 C 0.80097 0.83011 0.78908 0.0
C656 C 0.73749 0.78085 0.84761 0.0
O657 O 0.73863 0.79816 0.75266 0.0
O658 O 0.46204 0.56781 0.51407 0.0
Zn659 Zn 0.48141 0.54403 0.49759 0.0
O660 O 0.46747 0.51252 0.5024 0.0
Zn661 Zn 0.49248 0.49232 0.51019 0.0
Zn662 Zn 0.44654 0.51249 0.52947 0.0
Zn663 Zn 0.45185 0.50089 0.47354 0.0
O664 O 0.50251 0.47388 0.48183 0.0
O665 O 0.47059 0.4749 0.45813 0.0
O666 O 0.51359 0.54837 0.5137 0.0
O667 O 0.52042 0.51166 0.52496 0.0
O668 O 0.48149 0.46914 0.53483 0.0
O669 O 0.46157 0.49473 0.5561 0.0
O670 O 0.41482 0.49645 0.51977 0.0
O671 O 0.48297 0.55143 0.4629 0.0
O672 O 0.41835 0.48759 0.48098 0.0
O673 O 0.45196 0.52747 0.44984 0.0
C674 C 0.4492 0.56637 0.5327 0.0
C675 C 0.49109 0.46728 0.46285 0.0
C676 C 0.4741 0.47652 0.55488 0.0
C677 C 0.52629 0.534 0.52472 0.0
C678 C 0.40624 0.48735 0.5002 0.0
C679 C 0.46759 0.54478 0.44683 0.0
O680 O 0.44279 0.54621 0.54158 0.0
O681 O 0.01213 0.50124 0.01779 0.0
Zn682 Zn 0.00534 0.53311 0.00401 0.0
O683 O 0.0172 0.55959 0.02497 0.0
Zn684 Zn 0.99067 0.5786 0.03497 0.0
Zn685 Zn 0.03354 0.5472 0.05292 0.0
Zn686 Zn 0.03944 0.57998 0.00736 0.0
O687 O 0.99535 0.61346 0.02673 0.0
O688 O 0.03008 0.61372 0.00778 0.0
O689 O 0.96974 0.53271 0.00116 0.0
O690 O 0.9591 0.5644 0.02208 0.0
O691 O 0.98714 0.57705 0.07013 0.0
O692 O 0.01628 0.55538 0.08308 0.0
O693 O 0.06855 0.5594 0.05542 0.0
O694 O 0.0192 0.53531 0.97113 0.0
O695 O 0.07094 0.5819 0.02325 0.0
O696 O 0.04385 0.56809 0.97363 0.0
C697 C 0.02214 0.49547 0.03712 0.0
C698 C 0.01263 0.6246 0.01619 0.0
C699 C -0.00207 0.56718 0.08696 0.0
C700 C 0.9537 0.54578 0.0092 0.0
C701 C 0.08035 0.57361 0.04173 0.0
C702 C 0.03447 0.55011 0.96183 0.0
O703 O 0.03128 0.51129 0.05178 0.0
H704 H 0.96915 0.1985 0.1256 0.0
H705 H 0.96503 0.13289 -0.00219 0.0
H706 H 0.98368 0.23422 0.05923 0.0
H707 H 0.95667 0.09534 0.064 0.0
H708 H 0.96466 0.17085 0.01984 0.0
H709 H 0.95839 0.1614 0.10319 0.0
C710 C 0.97001 0.19859 0.10631 0.0
C711 C 0.97763 0.21946 0.09428 0.0
C712 C 0.96262 0.15433 0.02956 0.0
C713 C 0.96516 0.17705 0.06856 0.0
C714 C 0.96276 0.13263 0.01699 0.0
C715 C 0.96131 0.11094 0.02916 0.0
C716 C 0.96122 0.1544 0.05453 0.0
C717 C 0.95802 0.11167 0.05394 0.0
C718 C 0.96378 0.17739 0.09354 0.0
C719 C 0.97816 0.21852 0.06927 0.0
N720 N 0.95847 0.13311 0.06589 0.0
N721 N 0.97216 0.19762 0.05726 0.0
H722 H 0.06053 0.72493 0.3123 0.0
H723 H 0.19634 0.69447 0.29291 0.0
H724 H 0.10428 0.69949 0.36904 0.0
H725 H 0.16563 0.75633 0.26369 0.0
H726 H 0.15761 0.68315 0.31149 0.0
H727 H 0.09446 0.72294 0.28525 0.0
C728 C 0.07708 0.71839 0.31896 0.0
C729 C 0.07974 0.71273 0.34309 0.0
C730 C 0.15928 0.6988 0.30044 0.0
C731 C 0.11831 0.71013 0.31211 0.0
C732 C 0.18119 0.70515 0.28973 0.0
C733 C 0.18399 0.72636 0.27689 0.0
C734 C 0.14011 0.71351 0.2977 0.0
C735 C 0.16407 0.73988 0.27355 0.0
C736 C 0.09638 0.71732 0.3035 0.0
C737 C 0.10161 0.70434 0.35067 0.0
N738 N 0.14292 0.73326 0.284 0.0
N739 N 0.12019 0.70345 0.33524 0.0
H740 H 0.48855 0.81294 0.60649 0.0
H741 H 0.5522 0.92793 0.5572 0.0
H742 H 0.55674 0.81037 0.57112 0.0
H743 H 0.47604 0.91562 0.54498 0.0
H744 H 0.55438 0.8856 0.56644 0.0
H745 H 0.48286 0.85145 0.58767 0.0
C746 C 0.50214 0.82034 0.59457 0.0
C747 C 0.52326 0.80869 0.59053 0.0
C748 C 0.53725 0.89212 0.56145 0.0
C749 C 0.51701 0.8524 0.56946 0.0
C750 C 0.53599 0.91618 0.55634 0.0
C751 C 0.51392 0.92502 0.55043 0.0
C752 C 0.51618 0.87708 0.56134 0.0
C753 C 0.49337 0.90924 0.54942 0.0
C754 C 0.49881 0.84213 0.58379 0.0
C755 C 0.54026 0.81885 0.57482 0.0
N756 N 0.49488 0.88594 0.55532 0.0
N757 N 0.53698 0.8404 0.5652 0.0
H758 H 0.43186 0.201 0.82849 0.0
H759 H 0.33455 0.29517 0.82314 0.0
H760 H 0.45219 0.27659 0.82417 0.0
H761 H 0.32397 0.22821 0.78349 0.0
H762 H 0.37706 0.2877 0.82822 0.0
H763 H 0.39092 0.20914 0.81604 0.0
C764 C 0.42779 0.2192 0.82466 0.0
C765 C 0.44538 0.23814 0.82736 0.0
C766 C 0.36542 0.27482 0.81818 0.0
C767 C 0.39885 0.24755 0.81382 0.0
C768 C 0.34124 0.27905 0.81533 0.0
C769 C 0.32583 0.26233 0.80282 0.0
C770 C 0.37397 0.25344 0.80906 0.0
C771 C 0.33534 0.24165 0.79309 0.0
C772 C 0.40453 0.22381 0.81755 0.0
C773 C 0.43919 0.26143 0.82224 0.0
N774 N 0.35877 0.23757 0.79674 0.0
N775 N 0.41633 0.26554 0.81609 0.0
H776 H 0.01069 0.81394 0.37611 0.0
H777 H 0.00825 0.91276 0.48085 0.0
H778 H 0.03566 0.80144 0.4476 0.0
H779 H 0.97473 0.9184 0.41164 0.0
H780 H 0.01898 0.87233 0.46964 0.0
H781 H -0.00048 0.85333 0.38898 0.0
C782 C 0.01403 0.81956 0.39452 0.0
C783 C 0.02403 0.80428 0.41084 0.0
C784 C 0.00911 0.88239 0.45703 0.0
C785 C 0.01094 0.84951 0.42581 0.0
C786 C 0.00284 0.90541 0.46344 0.0
C787 C 0.99071 0.9191 0.44709 0.0
C788 C 0.00329 0.8731 0.4341 0.0
C789 C 0.9842 0.90863 0.4248 0.0
C790 C 0.00748 0.84206 0.4019 0.0
C791 C 0.02802 0.81265 0.43443 0.0
N792 N 0.99074 0.88637 0.41892 0.0
N793 N 0.02135 0.83473 0.44127 0.0
H794 H 0.46219 0.71736 0.71672 0.0
H795 H 0.34279 0.78286 0.73313 0.0
H796 H 0.45468 0.78398 0.68072 0.0
H797 H 0.34279 0.70741 0.71521 0.0
H798 H 0.38611 0.78702 0.72491 0.0
H799 H 0.42038 0.71743 0.72885 0.0
C800 C 0.45191 0.73227 0.71177 0.0
C801 C 0.4618 0.75061 0.6975 0.0
C802 C 0.37648 0.76964 0.72284 0.0
C803 C 0.41419 0.75074 0.71147 0.0
C804 C 0.35195 0.76723 0.72753 0.0
C805 C 0.33938 0.74477 0.7247 0.0
C806 C 0.38837 0.7493 0.71612 0.0
C807 C 0.35188 0.72504 0.71738 0.0
C808 C 0.42806 0.73217 0.71857 0.0
C809 C 0.4476 0.76944 0.69157 0.0
N810 N 0.37581 0.72771 0.71359 0.0
N811 N 0.42433 0.76903 0.69858 0.0
H812 H 0.56228 0.16479 0.94853 0.0
H813 H 0.46144 0.0675 0.99084 0.0
H814 H 0.48882 0.16002 0.92347 0.0
H815 H 0.53696 0.06169 0.00457 0.0
H816 H 0.47062 0.10612 0.97277 0.0
H817 H 0.55276 0.131 0.97458 0.0
C818 C 0.54414 0.15666 0.94853 0.0
C819 C 0.52633 0.16507 0.93366 0.0
C820 C 0.48519 0.09655 0.97994 0.0
C821 C 0.51533 0.12672 0.96359 0.0
C822 C 0.47997 0.07453 0.99038 0.0
C823 C 0.49852 0.06116 -0.00112 0.0
C824 C 0.50915 0.1053 0.97786 0.0
C825 C 0.52213 0.07134 -0.00189 0.0
C826 C 0.53874 0.13744 0.96344 0.0
C827 C 0.50314 0.15398 0.93447 0.0
N828 N 0.52683 0.09271 0.98743 0.0
N829 N 0.49833 0.13535 0.94916 0.0
H830 H 0.04509 0.29269 0.20431 0.0
H831 H 0.1881 0.30518 0.19795 0.0
H832 H 0.0836 0.29793 0.13793 0.0
H833 H 0.14747 0.29673 0.26272 0.0
H834 H 0.15045 0.30866 0.17575 0.0
H835 H 0.08281 0.29964 0.22601 0.0
C836 C 0.0615 0.29532 0.19426 0.0
C837 C 0.0612 0.29441 0.16925 0.0
C838 C 0.14987 0.30637 0.19487 0.0
C839 C 0.10464 0.3024 0.19408 0.0
C840 C 0.17133 0.30455 0.20754 0.0
C841 C 0.1708 0.3003 0.23211 0.0
C842 C 0.12793 0.30403 0.20698 0.0
C843 C 0.14864 0.29958 0.24371 0.0
C844 C 0.08307 0.29939 0.20669 0.0
C845 C 0.08303 0.29829 0.15723 0.0
N846 N 0.12812 0.30119 0.23102 0.0
N847 N 0.10394 0.30191 0.16977 0.0
H848 H 0.1237 0.984 0.11264 0.0
H849 H 0.99016 0.00299 0.08057 0.0
H850 H 0.06893 0.98804 0.16628 0.0
H851 H 0.0379 0.97188 0.03011 0.0
H852 H 0.01765 0.9943 0.11281 0.0
H853 H 0.0922 0.97676 0.08225 0.0
C854 C 0.10511 0.9831 0.11806 0.0
C855 C 0.09895 0.9871 0.14195 0.0
C856 C 0.02185 0.98889 0.09473 0.0
C857 C 0.06295 0.97891 0.10741 0.0
C858 C 0.00614 0.99384 0.07634 0.0
C859 C 0.01196 0.98856 0.05262 0.0
C860 C 0.04372 0.9791 0.08924 0.0
C861 C 0.03281 0.97651 0.04815 0.0
C862 C 0.08715 0.97883 0.10075 0.0
C863 C 0.07455 0.98545 0.14802 0.0
N864 N 0.04826 0.9727 0.06625 0.0
N865 N 0.05745 0.98187 0.13082 0.0
H866 H 0.2949 0.84843 0.46842 0.0
H867 H 0.23029 0.81058 0.34442 0.0
H868 H 0.22593 0.87184 0.44714 0.0
H869 H 0.3011 0.79046 0.36381 0.0
H870 H 0.22758 0.83129 0.3828 0.0
H871 H 0.29662 0.82552 0.43108 0.0
C872 C 0.28007 0.84874 0.45589 0.0
C873 C 0.26024 0.86214 0.46087 0.0
C874 C 0.2437 0.82232 0.37872 0.0
C875 C 0.26214 0.83587 0.41803 0.0
C876 C 0.24529 0.81043 0.35677 0.0
C877 C 0.26604 0.79881 0.35079 0.0
C878 C 0.26297 0.82265 0.39491 0.0
C879 C 0.28479 0.79921 0.36762 0.0
C880 C 0.28109 0.83563 0.43456 0.0
C881 C 0.24157 0.8618 0.444 0.0
N882 N 0.28283 0.81101 0.3889 0.0
N883 N 0.24299 0.84889 0.42329 0.0
H884 H 0.40258 0.97703 0.71398 0.0
H885 H 0.45129 0.05325 0.60364 0.0
H886 H 0.35948 0.02379 0.67403 0.0
H887 H 0.48854 -0.00467 0.63334 0.0
H888 H 0.42004 0.04683 0.63333 0.0
H889 H 0.4361 0.98664 0.68751 0.0
C890 C 0.4001 0.98922 0.69954 0.0
C891 C 0.37815 -0.00042 0.69617 0.0
C892 C 0.43517 0.03567 0.63347 0.0
C893 C 0.4166 0.01091 0.66605 0.0
C894 C 0.45317 0.03947 0.61667 0.0
C895 C 0.47249 0.02463 0.61581 0.0
C896 C 0.43654 0.017 0.64962 0.0
C897 C 0.4739 0.00708 0.6332 0.0
C898 C 0.41929 0.99475 0.6845 0.0
C899 C 0.37602 0.01527 0.6772 0.0
N900 N 0.45604 0.00362 0.64928 0.0
N901 N 0.39505 0.02053 0.66289 0.0
H902 H 0.28344 0.164 0.98274 0.0
H903 H 0.19918 0.22594 0.8939 0.0
H904 H 0.21646 0.19037 0.00626 0.0
H905 H 0.27575 0.24168 0.89164 0.0
H906 H 0.20404 0.2073 0.93268 0.0
H907 H 0.2802 0.18697 0.94601 0.0
C908 C 0.26815 0.17464 0.98018 0.0
C909 C 0.25022 0.17538 -0.00254 0.0
C910 C 0.21971 0.21508 0.92374 0.0
C911 C 0.24624 0.20105 0.95578 0.0
C912 C 0.21695 0.22566 0.90172 0.0
C913 C 0.23708 0.23542 0.88976 0.0
C914 C 0.2428 0.21366 0.93341 0.0
C915 C 0.25978 0.23454 0.9005 0.0
C916 C 0.26638 0.18777 0.9594 0.0
C917 C 0.23075 0.18944 0.9934 0.0
N918 N 0.2621 0.22348 0.92164 0.0
N919 N 0.22911 0.20149 0.97282 0.0
H920 H 0.08184 0.04732 0.26353 0.0
H921 H 0.01415 0.97716 0.36618 0.0
H922 H 0.09592 0.97393 0.27743 0.0
H923 H 0.04004 0.05119 0.37588 0.0
H924 H 0.03599 0.97544 0.32846 0.0
H925 H 0.05845 0.04869 0.30014 0.0
C926 C 0.07988 0.03145 0.27426 0.0
C927 C 0.09078 0.01046 0.26758 0.0
C928 C 0.0367 0.99204 0.33885 0.0
C929 C 0.06385 0.01188 0.30904 0.0
C930 C 0.02411 0.99314 0.36017 0.0
C931 C 0.02533 0.01439 0.37405 0.0
C932 C 0.05003 0.01248 0.33121 0.0
C933 C 0.03872 0.03449 0.36566 0.0
C934 C 0.06666 0.03231 0.29512 0.0
C935 C 0.08785 0.99046 0.28213 0.0
N936 N 0.05048 0.0331 0.34464 0.0
N937 N 0.07441 0.99157 0.30219 0.0
H938 H 0.26256 0.8363 0.56371 0.0
H939 H 0.20132 0.7863 0.68244 0.0
H940 H 0.22013 0.87859 0.61052 0.0
H941 H 0.25892 0.75272 0.64656 0.0
H942 H 0.20206 0.81659 0.65173 0.0
H943 H 0.25618 0.80251 0.59018 0.0
C944 C 0.25189 0.83851 0.57957 0.0
C945 C 0.24199 0.8604 0.585 0.0
C946 C 0.21434 0.80242 0.65046 0.0
C947 C 0.23443 0.82162 0.61521 0.0
C948 C 0.2138 0.78497 0.66785 0.0
C949 C 0.23029 0.76706 0.66723 0.0
C950 C 0.23135 0.80186 0.63223 0.0
C951 C 0.24604 0.76631 0.64789 0.0
C952 C 0.24824 0.81917 0.59463 0.0
C953 C 0.22827 0.86213 0.60575 0.0
N954 N 0.24631 0.7836 0.63125 0.0
N955 N 0.22488 0.84297 0.62012 0.0
H956 H 0.38397 0.01546 0.82918 0.0
H957 H 0.45396 0.93029 0.91404 0.0
H958 H 0.39233 0.9409 0.81174 0.0
H959 H 0.4533 0.00703 0.92361 0.0
H960 H 0.43365 0.93346 0.87523 0.0
H961 H 0.41082 0.01247 0.86334 0.0
C962 C 0.39147 -0.00154 0.83255 0.0
C963 C 0.38581 0.97839 0.81772 0.0
C964 C 0.43827 0.94959 0.88575 0.0
C965 C 0.41659 0.97475 0.85677 0.0
C966 C 0.44996 0.94778 0.90778 0.0
C967 C 0.45492 0.96836 0.92216 0.0
C968 C 0.43162 0.97212 0.8783 0.0
C969 C 0.44936 0.99062 0.91329 0.0
C970 C 0.40691 -0.00324 0.85198 0.0
C971 C 0.39618 0.95682 0.8228 0.0
N972 N 0.43782 0.99187 0.8921 0.0
N973 N 0.41095 0.95551 0.84203 0.0
H974 H 0.28561 0.13895 0.14878 0.0
H975 H 0.27934 0.27298 0.18453 0.0
H976 H 0.28217 0.19424 0.09649 0.0
H977 H 0.30822 0.222 0.23189 0.0
H978 H 0.28632 0.24607 0.15085 0.0
H979 H 0.29904 0.16957 0.17858 0.0
C980 C 0.28796 0.15745 0.14349 0.0
C981 C 0.28218 0.1641 0.12029 0.0
C982 C 0.29171 0.24102 0.16855 0.0
C983 C 0.29746 0.19917 0.15421 0.0
C984 C 0.28774 0.25643 0.18778 0.0
C985 C 0.29251 0.2494 0.2111 0.0
C986 C 0.29999 0.21831 0.1728 0.0
C987 C 0.30377 0.22794 0.21424 0.0
C988 C 0.29579 0.17492 0.16045 0.0
C989 C 0.28595 0.18831 0.11431 0.0
N990 N 0.30649 0.2128 0.19536 0.0
N991 N 0.2929 0.20503 0.13127 0.0
H992 H 0.17804 0.06171 0.07157 0.0
H993 H 0.06496 0.10145 -0.00305 0.0
H994 H 0.17173 0.1331 0.04548 0.0
H995 H 0.07725 0.02787 0.01228 0.0
H996 H 0.10231 0.1141 0.01795 0.0
H997 H 0.13842 0.04989 0.05443 0.0
C998 C 0.16815 0.07498 0.06263 0.0
C999 C 0.17826 0.09833 0.05973 0.0
C1000 C 0.09684 0.09518 0.01663 0.0
C1001 C 0.13327 0.08493 0.03986 0.0
C1002 C 0.07559 0.08794 0.00452 0.0
C1003 C 0.068 0.06356 0.00271 0.0
C1004 C 0.11051 0.07793 0.02713 0.0
C1005 C 0.08245 0.04686 0.01306 0.0
C1006 C 0.14567 0.06819 0.05266 0.0
C1007 C 0.16472 0.11481 0.04789 0.0
N1008 N 0.10295 0.05436 0.02488 0.0
N1009 N 0.14301 0.10775 0.03826 0.0
H1010 H 0.69335 0.45798 0.06805 0.0
H1011 H 0.6051 0.49871 0.96685 0.0
H1012 H 0.70681 0.44567 0.99319 0.0
H1013 H 0.58018 0.47382 0.03521 0.0
H1014 H 0.64586 0.48893 0.97792 0.0
H1015 H 0.6548 0.47347 0.0576 0.0
C1016 C 0.68827 0.45872 0.04941 0.0
C1017 C 0.70315 0.45039 0.03143 0.0
C1018 C 0.63143 0.48584 0.99049 0.0
C1019 C 0.65939 0.46831 0.01946 0.0
C1020 C 0.60829 0.49152 0.98429 0.0
C1021 C 0.58932 0.4869 0.00012 0.0
C1022 C 0.63558 0.47599 0.01282 0.0
C1023 C 0.59432 0.47745 0.02244 0.0
C1024 C 0.66629 0.46748 0.0435 0.0
C1025 C 0.69572 0.45173 0.00756 0.0
N1026 N 0.61702 0.47233 0.02816 0.0
N1027 N 0.6743 0.4606 0.00222 0.0
H1028 H 0.76908 0.44414 0.21557 0.0
H1029 H 0.70975 0.33117 0.22821 0.0
H1030 H 0.82554 0.41232 0.25444 0.0
H1031 H 0.75933 0.32357 0.28666 0.0
H1032 H 0.72763 0.37125 0.22188 0.0
H1033 H 0.74187 0.40976 0.22499 0.0
C1034 C 0.77585 0.42975 0.22575 0.0
C1035 C 0.7997 0.43099 0.234 0.0
C1036 C 0.73414 0.36122 0.2366 0.0
C1037 C 0.76875 0.39161 0.24481 0.0
C1038 C 0.7239 0.33821 0.24022 0.0
C1039 C 0.73339 0.32378 0.25769 0.0
C1040 C 0.75392 0.3698 0.25063 0.0
C1041 C 0.7517 0.33388 0.27272 0.0
C1042 C 0.76029 0.4101 0.23113 0.0
C1043 C 0.8074 0.41207 0.24749 0.0
N1044 N 0.76167 0.35611 0.26853 0.0
N1045 N 0.79194 0.39324 0.25249 0.0
H1046 H 0.77403 0.53174 0.61284 0.0
H1047 H 0.86219 0.50814 0.5053 0.0
H1048 H 0.76772 0.56091 0.54257 0.0
H1049 H 0.87378 0.48375 0.57675 0.0
H1050 H 0.82301 0.52049 0.51701 0.0
H1051 H 0.80587 0.5074 0.59829 0.0
C1052 C 0.77909 0.53277 0.59426 0.0
C1053 C 0.7685 0.54867 0.57896 0.0
C1054 C 0.83396 0.51224 0.53012 0.0
C1055 C 0.80488 0.52095 0.56229 0.0
C1056 C 0.85639 0.50521 0.52346 0.0
C1057 C 0.87145 0.49536 0.54024 0.0
C1058 C 0.82658 0.50969 0.55383 0.0
C1059 C 0.8628 0.49151 0.56334 0.0
C1060 C 0.79728 0.51889 0.586 0.0
C1061 C 0.77562 0.54915 0.55506 0.0
N1062 N 0.84101 0.49906 0.5696 0.0
N1063 N 0.79354 0.53569 0.54753 0.0
H1064 H 0.13915 0.08875 0.21688 0.0
H1065 H 0.25093 0.17884 0.25288 0.0
H1066 H 0.21223 0.07399 0.20085 0.0
H1067 H 0.1769 0.19365 0.26415 0.0
H1068 H 0.23759 0.14062 0.23359 0.0
H1069 H 0.15308 0.12791 0.23292 0.0
C1070 C 0.15818 0.09387 0.21655 0.0
C1071 C 0.17461 0.07802 0.2077 0.0
C1072 C 0.2243 0.15223 0.24033 0.0
C1073 C 0.19077 0.1229 0.22641 0.0
C1074 C 0.23187 0.17399 0.25151 0.0
C1075 C 0.21499 0.18948 0.26025 0.0
C1076 C 0.19968 0.14589 0.23793 0.0
C1077 C 0.19057 0.18231 0.25776 0.0
C1078 C 0.16614 0.11626 0.22578 0.0
C1079 C 0.199 0.0857 0.2075 0.0
N1080 N 0.18368 0.16105 0.24684 0.0
N1081 N 0.20641 0.10759 0.21699 0.0
H1082 H 0.30799 0.9834 0.56046 0.0
H1083 H 0.42601 0.98955 0.48322 0.0
H1084 H 0.31523 0.94646 0.49267 0.0
H1085 H 0.41736 0.0354 0.54504 0.0
H1086 H 0.38314 0.97845 0.48335 0.0
H1087 H 0.34567 0.00694 0.55288 0.0
C1088 C 0.31733 0.98043 0.54391 0.0
C1089 C 0.30876 0.96258 0.52743 0.0
C1090 C 0.39045 0.99129 0.49667 0.0
C1091 C 0.3516 0.98938 0.51862 0.0
C1092 C 0.41493 -0.00235 0.49652 0.0
C1093 C 0.42519 0.01315 0.51429 0.0
C1094 C 0.37624 2e-05 0.51508 0.0
C1095 C 0.41008 0.02332 0.53105 0.0
C1096 C 0.33877 0.9939 0.53955 0.0
C1097 C 0.32142 0.95965 0.50616 0.0
N1098 N 0.38636 0.01615 0.53137 0.0
N1099 N 0.34228 0.97269 0.50251 0.0
H1100 H 0.76572 0.55204 0.22419 0.0
H1101 H 0.79562 0.68208 0.27628 0.0
H1102 H 0.8308 0.56994 0.26452 0.0
H1103 H 0.7236 0.64974 0.28139 0.0
H1104 H 0.80945 0.64315 0.26388 0.0
H1105 H 0.75018 0.59002 0.23785 0.0
C1106 C 0.77665 0.56394 0.23599 0.0
C1107 C 0.79952 0.55799 0.24332 0.0
C1108 C 0.79063 0.64467 0.26769 0.0
C1109 C 0.7822 0.60125 0.25836 0.0
C1110 C 0.78269 0.66682 0.27455 0.0
C1111 C 0.75844 0.66902 0.27983 0.0
C1112 C 0.77412 0.62477 0.26558 0.0
C1113 C 0.74245 0.64867 0.27754 0.0
C1114 C 0.76777 0.58545 0.24377 0.0
C1115 C 0.81302 0.57389 0.25861 0.0
N1116 N 0.75056 0.62731 0.27035 0.0
N1117 N 0.80427 0.59503 0.2654 0.0
H1118 H 0.67797 0.46535 0.73534 0.0
H1119 H 0.76364 0.36262 0.69557 0.0
H1120 H 0.71178 0.46296 0.66641 0.0
H1121 H 0.7271 0.36568 0.76307 0.0
H1122 H 0.748 0.40117 0.68552 0.0
H1123 H 0.69906 0.43059 0.74685 0.0
C1124 C 0.68993 0.45757 0.72265 0.0
C1125 C 0.69298 0.46694 0.69982 0.0
C1126 C 0.74357 0.3934 0.70257 0.0
C1127 C 0.71714 0.42699 0.71283 0.0
C1128 C 0.75251 0.37144 0.70832 0.0
C1129 C 0.74646 0.36076 0.73007 0.0
C1130 C 0.72858 0.40469 0.71875 0.0
C1131 C 0.73202 0.37303 0.74597 0.0
C1132 C 0.70199 0.4377 0.72923 0.0
C1133 C 0.70883 0.45622 0.68416 0.0
N1134 N 0.72352 0.39422 0.73993 0.0
N1135 N 0.72022 0.43668 0.69091 0.0
H1136 H 0.99182 0.85388 0.86881 0.0
H1137 H 0.03941 0.98024 0.92387 0.0
H1138 H 0.06289 0.87083 0.89775 0.0
H1139 H 0.96458 0.95997 0.91046 0.0
H1140 H 0.05014 0.94463 0.90171 0.0
H1141 H 0.98397 0.89638 0.87192 0.0
C1142 C 0.00596 0.8666 0.87531 0.0
C1143 C 0.02787 0.8588 0.88356 0.0
C1144 C 0.03138 0.94814 0.90323 0.0
C1145 C 0.019 0.90723 0.88708 0.0
C1146 C 0.02523 0.96847 0.91588 0.0
C1147 C 0.00105 0.97265 0.91953 0.0
C1148 C 0.01322 0.9317 0.89446 0.0
C1149 C 0.98344 0.95717 0.90834 0.0
C1150 C 0.00143 0.89081 0.87712 0.0
C1151 C 0.04558 0.87602 0.89167 0.0
N1152 N 0.98986 0.937 0.89671 0.0
N1153 N 0.04065 0.8994 0.8935 0.0
H1154 H 0.94892 0.21469 0.69964 0.0
H1155 H 0.85797 0.31562 0.71083 0.0
H1156 H 0.95783 0.27976 0.65977 0.0
H1157 H 0.86874 0.26556 0.76689 0.0
H1158 H 0.89528 0.3044 0.69254 0.0
H1159 H 0.91903 0.23324 0.72432 0.0
C1160 C 0.94452 0.23284 0.69605 0.0
C1161 C 0.95567 0.24565 0.67754 0.0
C1162 C 0.88971 0.29627 0.70913 0.0
C1163 C 0.92168 0.267 0.70572 0.0
C1164 C 0.86848 0.30276 0.71966 0.0
C1165 C 0.85993 0.29118 0.74017 0.0
C1166 C 0.9022 0.27783 0.71899 0.0
C1167 C 0.87442 0.27477 0.75091 0.0
C1168 C 0.92768 0.24352 0.71029 0.0
C1169 C 0.94954 0.26923 0.67382 0.0
N1170 N 0.89456 0.26816 0.73988 0.0
N1171 N 0.93275 0.27909 0.68764 0.0
H1172 H 0.53804 0.1816 0.41963 0.0
H1173 H 0.50517 0.11735 0.53684 0.0
H1174 H 0.50799 0.21942 0.47908 0.0
H1175 H 0.56102 0.09386 0.49071 0.0
H1176 H 0.50859 0.15643 0.51814 0.0
H1177 H 0.54964 0.15077 0.44674 0.0
C1178 C 0.53423 0.18357 0.43847 0.0
C1179 C 0.52167 0.20277 0.44711 0.0
C1180 C 0.52045 0.14287 0.51249 0.0
C1181 C 0.53452 0.16752 0.47809 0.0
C1182 C 0.51841 0.12052 0.52307 0.0
C1183 C 0.53239 0.10215 0.51489 0.0
C1184 C 0.53623 0.14659 0.49337 0.0
C1185 C 0.54955 0.10737 0.49728 0.0
C1186 C 0.54097 0.16607 0.45396 0.0
C1187 C 0.51746 0.20472 0.4717 0.0
N1188 N 0.55062 0.12897 0.48672 0.0
N1189 N 0.52338 0.18696 0.4863 0.0
H1190 H 0.55867 0.6841 0.20302 0.0
H1191 H 0.64032 0.76994 0.29033 0.0
H1192 H 0.5729 0.76013 0.19385 0.0
H1193 H 0.65098 0.69441 0.28235 0.0
H1194 H 0.60673 0.765 0.26236 0.0
H1195 H 0.58525 0.68649 0.23819 0.0
C1196 C 0.56736 0.70128 0.20842 0.0
C1197 C 0.56378 0.72195 0.19542 0.0
C1198 C 0.6162 0.74945 0.26698 0.0
C1199 C 0.59352 0.7248 0.23573 0.0
C1200 C 0.63528 0.75218 0.28306 0.0
C1201 C 0.64878 0.73263 0.28827 0.0
C1202 C 0.61052 0.727 0.25605 0.0
C1203 C 0.64117 0.70999 0.27864 0.0
C1204 C 0.58243 0.70259 0.22846 0.0
C1205 C 0.57538 0.74373 0.20319 0.0
N1206 N 0.62269 0.70783 0.26262 0.0
N1207 N 0.58967 0.74459 0.22289 0.0
H1208 H 0.97896 0.17948 0.57529 0.0
H1209 H 0.04555 0.09888 0.48358 0.0
H1210 H 0.055 0.19103 0.56318 0.0
H1211 H 0.96935 0.10736 0.48116 0.0
H1212 H 0.05044 0.13391 0.51069 0.0
H1213 H 0.97569 0.15309 0.54011 0.0
C1214 C 0.99499 0.17642 0.56523 0.0
C1215 C 0.01731 0.18727 0.57228 0.0
C1216 C 0.03274 0.12838 0.50377 0.0
C1217 C 0.01371 0.15711 0.53187 0.0
C1218 C 0.02997 0.1085 0.48817 0.0
C1219 C 0.00694 0.09993 0.48052 0.0
C1220 C 0.01233 0.13945 0.51179 0.0
C1221 C 0.98737 0.11306 0.48704 0.0
C1222 C 0.99309 0.16153 0.54499 0.0
C1223 C 0.03745 0.18291 0.55838 0.0
N1224 N 0.99045 0.13187 0.50264 0.0
N1225 N 0.03523 0.1679 0.53895 0.0
H1226 H 0.51691 0.21635 0.30853 0.0
H1227 H 0.65112 0.25223 0.30543 0.0
H1228 H 0.54602 0.27748 0.35023 0.0
H1229 H 0.61566 0.23565 0.23793 0.0
H1230 H 0.61223 0.25846 0.32343 0.0
H1231 H 0.55179 0.2205 0.28223 0.0
C1232 C 0.53034 0.23094 0.31183 0.0
C1233 C 0.52882 0.24636 0.33178 0.0
C1234 C 0.61298 0.25376 0.3046 0.0
C1235 C 0.56859 0.2508 0.30226 0.0
C1236 C 0.63504 0.25003 0.29444 0.0
C1237 C 0.63632 0.24337 0.27032 0.0
C1238 C 0.59205 0.25005 0.2907 0.0
C1239 C 0.61516 0.2408 0.25664 0.0
C1240 C 0.55012 0.23331 0.29681 0.0
C1241 C 0.5466 0.26505 0.33519 0.0
N1242 N 0.59364 0.24368 0.26718 0.0
N1243 N 0.56609 0.26638 0.32092 0.0
H1244 H 0.53947 0.79031 0.07015 0.0
H1245 H 0.43976 0.88203 0.05149 0.0
H1246 H 0.47264 0.78587 0.1084 0.0
H1247 H 0.49633 0.87192 0.00094 0.0
H1248 H 0.4495 0.84522 0.07092 0.0
H1249 H 0.52324 0.81974 0.044 0.0
C1250 C 0.52141 0.79561 0.07311 0.0
C1251 C 0.50746 0.78583 0.09161 0.0
C1252 C 0.45945 0.85079 0.05527 0.0
C1253 C 0.48869 0.81932 0.06164 0.0
C1254 C 0.45381 0.87174 0.04408 0.0
C1255 C 0.46753 0.88031 0.02482 0.0
C1256 C 0.47916 0.83856 0.04735 0.0
C1257 C 0.4854 0.86613 0.01587 0.0
C1258 C 0.51205 0.81221 0.05801 0.0
C1259 C 0.48406 0.7931 0.09443 0.0
N1260 N 0.49106 0.84623 0.02755 0.0
N1261 N 0.47547 0.80958 0.07972 0.0
H1262 H 0.94406 0.76401 0.9132 0.0
H1263 H 0.84155 0.71088 0.82437 0.0
H1264 H 0.9553 0.73365 0.84308 0.0
H1265 H 0.83324 0.77054 0.87325 0.0
H1266 H 0.88023 0.70476 0.84289 0.0
H1267 H 0.90103 0.75223 0.90914 0.0
C1268 C 0.93754 0.75428 0.89726 0.0
C1269 C 0.95292 0.75019 0.87819 0.0
C1270 C 0.86959 0.71876 0.84993 0.0
C1271 C 0.90438 0.73641 0.87372 0.0
C1272 C 0.84751 0.72232 0.8394 0.0
C1273 C 0.83456 0.74183 0.84673 0.0
C1274 C 0.87862 0.73473 0.86794 0.0
C1275 C 0.843 0.75572 0.86659 0.0
C1276 C 0.91311 0.7476 0.89499 0.0
C1277 C 0.9438 0.73752 0.85795 0.0
N1278 N 0.86481 0.75221 0.87624 0.0
N1279 N 0.92001 0.73125 0.85613 0.0
H1280 H 0.9886 0.04852 0.78842 0.0
H1281 H 0.93009 0.07732 0.90521 0.0
H1282 H 0.92139 0.08247 0.78944 0.0
H1283 H 0.00724 0.08287 0.90042 0.0
H1284 H 0.92737 0.08443 0.8625 0.0
H1285 H -0.00186 0.06604 0.82795 0.0
C1286 C 0.97615 0.06018 0.79666 0.0
C1287 C 0.95385 0.06341 0.78603 0.0
C1288 C 0.94493 0.08481 0.87088 0.0
C1289 C 0.96442 0.0831 0.8312 0.0
C1290 C 0.94644 0.08064 0.89522 0.0
C1291 C 0.96888 0.0791 0.90612 0.0
C1292 C 0.96599 0.08656 0.85733 0.0
C1293 C 0.98958 0.08373 0.89253 0.0
C1294 C 0.98163 0.07025 0.81919 0.0
C1295 C 0.93855 0.07899 0.7973 0.0
N1296 N 0.98766 0.08653 0.86861 0.0
N1297 N 0.9438 0.0877 0.81963 0.0
H1298 H 0.78732 0.20729 0.54724 0.0
H1299 H 0.77318 0.20555 0.68482 0.0
H1300 H 0.8096 0.14901 0.58955 0.0
H1301 H 0.78539 0.27323 0.64983 0.0
H1302 H 0.78567 0.18491 0.64894 0.0
H1303 H 0.78811 0.23294 0.5832 0.0
C1304 C 0.79311 0.20011 0.56397 0.0
C1305 C 0.79789 0.17584 0.56555 0.0
C1306 C 0.78577 0.20429 0.6491 0.0
C1307 C 0.79821 0.20482 0.6066 0.0
C1308 C 0.77825 0.2161 0.66947 0.0
C1309 C 0.77792 0.24117 0.67021 0.0
C1310 C 0.79259 0.2175 0.62904 0.0
C1311 C 0.78519 0.25386 0.64989 0.0
C1312 C 0.79348 0.21474 0.58446 0.0
C1313 C 0.80551 0.16752 0.58756 0.0
N1314 N 0.79195 0.24184 0.62993 0.0
N1315 N 0.80481 0.18183 0.60739 0.0
H1316 H 0.53865 0.99194 0.32141 0.0
H1317 H 0.57692 -0.00343 0.45728 0.0
H1318 H 0.60585 0.96664 0.34558 0.0
H1319 H 0.50247 0.9862 0.43607 0.0
H1320 H 0.5885 0.98962 0.41589 0.0
H1321 H 0.52537 0.9939 0.36297 0.0
C1322 C 0.55056 0.98674 0.33545 0.0
C1323 C 0.57341 0.97922 0.33012 0.0
C1324 C 0.56964 0.98868 0.42034 0.0
C1325 C 0.55847 0.98166 0.37743 0.0
C1326 C 0.56301 0.99275 0.44389 0.0
C1327 C 0.53871 0.99201 0.45003 0.0
C1328 C 0.55183 0.98436 0.40272 0.0
C1329 C 0.52141 0.98684 0.43203 0.0
C1330 C 0.54292 0.98774 0.35908 0.0
C1331 C 0.58809 0.97255 0.34893 0.0
N1332 N 0.52831 0.9835 0.40905 0.0
N1333 N 0.58047 0.97419 0.3718 0.0
H1334 H 0.76776 0.81109 0.11057 0.0
H1335 H 0.71662 0.81726 0.2429 0.0
H1336 H 0.7225 0.86626 0.13482 0.0
H1337 H 0.77221 0.77153 0.22102 0.0
H1338 H 0.71752 0.8349 0.20341 0.0
H1339 H 0.76823 0.79559 0.15075 0.0
C1340 C 0.75786 0.81996 0.12434 0.0
C1341 C 0.74501 0.84002 0.11926 0.0
C1342 C 0.7296 0.8211 0.20731 0.0
C1343 C 0.74554 0.82226 0.1655 0.0
C1344 C 0.7291 0.81099 0.22985 0.0
C1345 C 0.74431 0.79279 0.23529 0.0
C1346 C 0.74528 0.81284 0.19 0.0
C1347 C 0.76015 0.78548 0.21767 0.0
C1348 C 0.75824 0.81112 0.14734 0.0
C1349 C 0.73264 0.85077 0.13792 0.0
N1350 N 0.7601 0.79543 0.19579 0.0
N1351 N 0.73314 0.84169 0.16022 0.0
H1352 H 0.95588 0.00736 0.66942 0.0
H1353 H 0.92557 0.03211 0.53401 0.0
H1354 H 0.88939 0.0366 0.64851 0.0
H1355 H 0.97757 0.98305 0.55626 0.0
H1356 H 0.91257 0.03588 0.57544 0.0
H1357 H 0.96536 0.00119 0.62763 0.0
C1358 C 0.94329 0.01262 0.65603 0.0
C1359 C 0.92179 0.02256 0.6625 0.0
C1360 C 0.92665 0.02412 0.57114 0.0
C1361 C 0.93257 0.01537 0.61446 0.0
C1362 C 0.93409 0.02194 0.54753 0.0
C1363 C 0.95284 0.00739 0.54169 0.0
C1364 C 0.93826 0.0119 0.58898 0.0
C1365 C 0.96313 0.99455 0.55991 0.0
C1366 C 0.94865 0.0089 0.63214 0.0
C1367 C 0.90615 0.02888 0.6443 0.0
N1368 N 0.95587 -0.00268 0.58277 0.0
N1369 N 0.91191 0.02527 0.62102 0.0
H1370 H 0.73397 0.19887 0.45799 0.0
H1371 H 0.73195 0.16809 0.31988 0.0
H1372 H 0.75719 0.13164 0.43034 0.0
H1373 H 0.74662 0.24054 0.34673 0.0
H1374 H 0.73632 0.15353 0.36042 0.0
H1375 H 0.73311 0.21379 0.41725 0.0
C1376 C 0.73875 0.18722 0.44333 0.0
C1377 C 0.74558 0.16397 0.44745 0.0
C1378 C 0.73877 0.17258 0.35737 0.0
C1379 C 0.74455 0.18085 0.40107 0.0
C1380 C 0.73621 0.18091 0.33432 0.0
C1381 C 0.73889 0.20555 0.33005 0.0
C1382 C 0.74347 0.18906 0.3763 0.0
C1383 C 0.74452 0.2214 0.34932 0.0
C1384 C 0.73845 0.19581 0.42018 0.0
C1385 C 0.75182 0.14968 0.42788 0.0
N1386 N 0.74631 0.2129 0.37174 0.0
N1387 N 0.75095 0.15828 0.40545 0.0
H1388 H 0.53775 0.94546 0.22002 0.0
H1389 H 0.54784 0.97891 0.08525 0.0
H1390 H 0.60173 0.93655 0.17899 0.0
H1391 H 0.47945 0.95392 0.114 0.0
H1392 H 0.5675 0.96664 0.12146 0.0
H1393 H 0.51517 0.94919 0.18281 0.0
C1394 C 0.5469 0.94359 0.20318 0.0
C1395 C 0.57174 0.94101 0.20261 0.0
C1396 C 0.54819 0.96382 0.11984 0.0
C1397 C 0.54622 0.94603 0.16024 0.0
C1398 C 0.53688 0.97116 0.09932 0.0
C1399 C 0.51191 0.96756 0.09662 0.0
C1400 C 0.53446 0.95315 0.13805 0.0
C1401 C 0.49873 0.95709 0.11539 0.0
C1402 C 0.53403 0.94586 0.182 0.0
C1403 C 0.58266 0.93864 0.18031 0.0
N1404 N 0.51017 0.95038 0.13544 0.0
N1405 N 0.56994 0.94178 0.16002 0.0
H1406 H 0.70663 0.84375 0.98248 0.0
H1407 H 0.72626 0.74635 0.87986 0.0
H1408 H 0.74861 0.78255 0.99239 0.0
H1409 H 0.72535 0.82229 0.86868 0.0
H1410 H 0.7175 0.75339 0.92233 0.0
H1411 H 0.69633 0.82891 0.94209 0.0
C1412 C 0.71317 0.82687 0.97641 0.0
C1413 C 0.72898 0.81461 0.99054 0.0
C1414 C 0.71851 0.76834 0.91034 0.0
C1415 C 0.71699 0.79757 0.94467 0.0
C1416 C 0.72337 0.76436 0.88624 0.0
C1417 C 0.72668 0.78386 0.87109 0.0
C1418 C 0.71648 0.79187 0.91893 0.0
C1419 C 0.72308 0.80689 0.88002 0.0
C1420 C 0.70728 0.81847 0.9534 0.0
C1421 C 0.73676 0.79276 0.98185 0.0
N1422 N 0.71831 0.81031 0.90347 0.0
N1423 N 0.73094 0.78504 0.95926 0.0
H1424 H 0.83179 0.88746 0.03863 0.0
H1425 H 0.87975 0.00095 0.96791 0.0
H1426 H 0.78216 0.93899 0.01697 0.0
H1427 H 0.91623 0.97791 0.03069 0.0
H1428 H 0.84516 0.97319 0.97743 0.0
H1429 H 0.86517 0.91528 0.02692 0.0
C1430 C 0.82794 0.90454 0.03124 0.0
C1431 C 0.80428 0.91109 0.02892 0.0
C1432 C 0.8608 0.9744 0.98904 0.0
C1433 C 0.84213 0.94254 0.01514 0.0
C1434 C 0.88043 0.99011 0.98365 0.0
C1435 C 0.9007 0.99182 -0.00133 0.0
C1436 C 0.86197 0.95988 0.00907 0.0
C1437 C 0.90082 0.97735 0.01881 0.0
C1438 C 0.84693 0.92036 0.02466 0.0
C1439 C 0.80022 0.93344 0.01925 0.0
N1440 N 0.88186 0.96178 0.02327 0.0
N1441 N 0.81901 0.94839 0.01253 0.0
H1442 H 0.3416 0.59346 0.95888 0.0
H1443 H 0.40228 0.46994 0.95673 0.0
H1444 H 0.33072 0.53758 0.01031 0.0
H1445 H 0.42673 0.53106 0.91617 0.0
H1446 H 0.36449 0.48837 0.96395 0.0
H1447 H 0.3622 0.56571 0.93305 0.0
C1448 C 0.34334 0.57529 0.96464 0.0
C1449 C 0.33504 0.56798 0.98707 0.0
C1450 C 0.37769 0.49735 0.95262 0.0
C1451 C 0.35815 0.53612 0.95745 0.0
C1452 C 0.39906 0.48659 0.94809 0.0
C1453 C 0.41758 0.49919 0.93607 0.0
C1454 C 0.3752 0.52092 0.94526 0.0
C1455 C 0.41279 0.52088 0.9256 0.0
C1456 C 0.35493 0.55944 0.94981 0.0
C1457 C 0.33737 0.54414 0.99343 0.0
N1458 N 0.39229 0.53149 0.93105 0.0
N1459 N 0.34896 0.52915 0.97882 0.0
H1460 H 0.1941 0.52392 0.72521 0.0
H1461 H 0.21791 0.65879 0.68464 0.0
H1462 H 0.13832 0.57244 0.71393 0.0
H1463 H 0.2622 0.62548 0.73589 0.0
H1464 H 0.19436 0.62047 0.67862 0.0
H1465 H 0.22393 0.55526 0.71304 0.0
C1466 C 0.18809 0.541 0.71973 0.0
C1467 C 0.1638 0.54584 0.72099 0.0
C1468 C 0.20983 0.62141 0.69046 0.0
C1469 C 0.19762 0.58123 0.70654 0.0
C1470 C 0.22338 0.6431 0.69371 0.0
C1471 C 0.2418 0.6451 0.71089 0.0
C1472 C 0.21516 0.60176 0.7042 0.0
C1473 C 0.248 0.6245 0.72257 0.0
C1474 C 0.20509 0.55875 0.71275 0.0
C1475 C 0.15694 0.5682 0.71362 0.0
N1476 N 0.23447 0.60364 0.71924 0.0
N1477 N 0.17383 0.58519 0.70683 0.0
H1478 H 0.15869 0.44782 0.54101 0.0
H1479 H 0.03511 0.43477 0.47013 0.0
H1480 H 0.13742 0.38676 0.49539 0.0
H1481 H 0.06116 0.49892 0.50903 0.0
H1482 H 0.07472 0.41923 0.474 0.0
H1483 H 0.12502 0.46858 0.52563 0.0
C1484 C 0.14692 0.43878 0.52773 0.0
C1485 C 0.15062 0.41541 0.51972 0.0
C1486 C 0.07189 0.4369 0.48129 0.0
C1487 C 0.11205 0.43909 0.50194 0.0
C1488 C 0.04929 0.44587 0.47895 0.0
C1489 C 0.04463 0.46794 0.48979 0.0
C1490 C 0.08982 0.45005 0.49465 0.0
C1491 C 0.06377 0.48159 0.50082 0.0
C1492 C 0.12778 0.45071 0.51881 0.0
C1493 C 0.13504 0.4047 0.50224 0.0
N1494 N 0.0854 0.47222 0.50337 0.0
N1495 N 0.11625 0.41653 0.49411 0.0
H1496 H 0.90668 0.9419 0.75158 0.0
H1497 H 0.80243 0.86909 0.81951 0.0
H1498 H 0.84538 0.97717 0.77781 0.0
H1499 H 0.83268 0.84232 0.75439 0.0
H1500 H 0.82584 0.9075 0.81441 0.0
H1501 H 0.88737 0.9033 0.76326 0.0
C1502 C 0.88938 0.94154 0.7602 0.0
C1503 C 0.87743 0.9626 0.76357 0.0
C1504 C 0.8274 0.89305 0.80144 0.0
C1505 C 0.85568 0.91891 0.77719 0.0
C1506 C 0.81418 0.87126 0.80433 0.0
C1507 C 0.81556 0.85277 0.78719 0.0
C1508 C 0.84255 0.89587 0.78173 0.0
C1509 C 0.83097 0.85633 0.7678 0.0
C1510 C 0.8784 0.9196 0.76672 0.0
C1511 C 0.855 0.96123 0.7747 0.0
N1512 N 0.84401 0.87747 0.76565 0.0
N1513 N 0.84478 0.93967 0.78116 0.0
H1514 H 0.68555 0.11881 0.55196 0.0
H1515 H 0.61613 -0.00382 0.5496 0.0
H1516 H 0.72376 0.05424 0.54778 0.0
H1517 H 0.5903 0.05532 0.5902 0.0
H1518 H 0.6567 0.01539 0.55187 0.0
H1519 H 0.65092 0.0956 0.56788 0.0
C1520 C 0.68667 0.09977 0.55452 0.0
C1521 C 0.70734 0.08832 0.54819 0.0
C1522 C 0.64236 0.02378 0.56106 0.0
C1523 C 0.66793 0.06175 0.56635 0.0
C1524 C 0.6193 0.01273 0.5599 0.0
C1525 C 0.60013 0.02425 0.56984 0.0
C1526 C 0.64587 0.04686 0.57139 0.0
C1527 C 0.60483 0.04589 0.58255 0.0
C1528 C 0.66705 0.0866 0.56388 0.0
C1529 C 0.70804 0.0637 0.55224 0.0
N1530 N 0.62721 0.05692 0.58238 0.0
N1531 N 0.6884 0.0511 0.56063 0.0
H1532 H 0.19436 0.43801 0.75663 0.0
H1533 H 0.1916 0.34077 0.85131 0.0
H1534 H 0.14265 0.43796 0.81334 0.0
H1535 H 0.25603 0.36201 0.81356 0.0
H1536 H 0.17596 0.37958 0.84322 0.0
H1537 H 0.21913 0.41313 0.78039 0.0
C1538 C 0.18826 0.43279 0.77418 0.0
C1539 C 0.16621 0.43961 0.78287 0.0
C1540 C 0.19393 0.37622 0.83752 0.0
C1541 C 0.1945 0.41104 0.81023 0.0
C1542 C 0.20298 0.35418 0.84241 0.0
C1543 C 0.22506 0.3483 0.83301 0.0
C1544 C 0.20682 0.39204 0.82251 0.0
C1545 C 0.23895 0.36599 0.82119 0.0
C1546 C 0.20256 0.41882 0.78788 0.0
C1547 C 0.15942 0.43279 0.8059 0.0
N1548 N 0.22928 0.38684 0.81558 0.0
N1549 N 0.17328 0.41841 0.81863 0.0
H1550 H 0.39525 0.5978 0.28143 0.0
H1551 H 0.27054 0.6599 0.28121 0.0
H1552 H 0.33101 0.56986 0.24438 0.0
H1553 H 0.33723 0.69727 0.30364 0.0
H1554 H 0.29117 0.62306 0.27674 0.0
H1555 H 0.37324 0.63127 0.29691 0.0
C1556 C 0.37654 0.59871 0.27654 0.0
C1557 C 0.36499 0.58119 0.26135 0.0
C1558 C 0.30126 0.63921 0.28299 0.0
C1559 C 0.33972 0.61903 0.27936 0.0
C1560 C 0.28945 0.66022 0.28573 0.0
C1561 C 0.30229 0.68175 0.29242 0.0
C1562 C 0.32613 0.63974 0.28679 0.0
C1563 C 0.32669 0.68107 0.29832 0.0
C1564 C 0.364 0.61773 0.28547 0.0
C1565 C 0.3407 0.58311 0.25579 0.0
N1566 N 0.33798 0.66044 0.29494 0.0
N1567 N 0.32891 0.60169 0.26476 0.0
H1568 H 0.51419 0.69769 0.57625 0.0
H1569 H 0.44392 0.57086 0.58107 0.0
H1570 H 0.49233 0.66603 0.6429 0.0
H1571 H 0.45206 0.61227 0.51724 0.0
H1572 H 0.45739 0.60641 0.60485 0.0
H1573 H 0.49015 0.66637 0.55484 0.0
C1574 C 0.50455 0.68398 0.58642 0.0
C1575 C 0.50541 0.68444 0.61143 0.0
C1576 C 0.45564 0.60786 0.58569 0.0
C1577 C 0.47738 0.64861 0.58691 0.0
C1578 C 0.44764 0.58764 0.57211 0.0
C1579 C 0.4475 0.58851 0.54709 0.0
C1580 C 0.46354 0.62886 0.57406 0.0
C1581 C 0.45245 0.61071 0.53646 0.0
C1582 C 0.49052 0.66625 0.57415 0.0
C1583 C 0.49231 0.66628 0.62359 0.0
N1584 N 0.46082 0.62989 0.54996 0.0
N1585 N 0.47887 0.649 0.61119 0.0
H1586 H 0.59592 0.19656 0.84293 0.0
H1587 H 0.66724 0.28571 0.7632 0.0
H1588 H 0.55926 0.24936 0.80422 0.0
H1589 H 0.68689 0.21253 0.76667 0.0
H1590 H 0.62747 0.27324 0.77821 0.0
H1591 H 0.62975 0.20189 0.81564 0.0
C1592 C 0.59487 0.20902 0.8285 0.0
C1593 C 0.57493 0.22273 0.82595 0.0
C1594 C 0.64032 0.25984 0.77518 0.0
C1595 C 0.61352 0.22914 0.79507 0.0
C1596 C 0.66298 0.26695 0.76671 0.0
C1597 C 0.68031 0.25013 0.7639 0.0
C1598 C 0.63531 0.23592 0.78153 0.0
C1599 C 0.67396 0.22603 0.76861 0.0
C1600 C 0.61408 0.21194 0.81288 0.0
C1601 C 0.57436 0.2385 0.80685 0.0
N1602 N 0.65209 0.21969 0.77777 0.0
N1603 N 0.59364 0.24167 0.79241 0.0
H1604 H 0.9891 0.36856 0.11711 0.0
H1605 H 0.01473 0.45516 0.00841 0.0
H1606 H 0.01595 0.34209 0.05023 0.0
H1607 H 0.0249 0.47822 0.08204 0.0
H1608 H 0.00814 0.41363 0.02151 0.0
H1609 H 0.99383 0.40942 0.10222 0.0
C1610 C -0.00439 0.37131 0.09917 0.0
C1611 C 0.00225 0.35199 0.0849 0.0
C1612 C 0.01196 0.42785 0.0347 0.0
C1613 C 0.00769 0.39849 0.06786 0.0
C1614 C 0.01576 0.45147 0.02727 0.0
C1615 C 0.02051 0.47013 0.04416 0.0
C1616 C 0.01234 0.42305 0.05916 0.0
C1617 C 0.02153 0.46439 0.06839 0.0
C1618 C -0.0015 0.3946 0.09079 0.0
C1619 C 0.01076 0.35656 0.06183 0.0
N1620 N 0.01723 0.44139 0.07518 0.0
N1621 N 0.01323 0.37939 0.05398 0.0
H1622 H 0.95272 0.73869 0.31701 0.0
H1623 H 0.82277 0.75072 0.37248 0.0
H1624 H 0.9356 0.72053 0.38961 0.0
H1625 H 0.83803 0.75587 0.29729 0.0
H1626 H 0.86444 0.74167 0.37976 0.0
H1627 H 0.91071 0.74552 0.30969 0.0
C1628 C 0.94002 0.73578 0.33132 0.0
C1629 C 0.94763 0.72909 0.35396 0.0
C1630 C 0.85863 0.74485 0.36169 0.0
C1631 C 0.89957 0.7374 0.34587 0.0
C1632 C 0.83493 0.75027 0.35756 0.0
C1633 C 0.82689 0.75406 0.33423 0.0
C1634 C 0.87439 0.74337 0.34239 0.0
C1635 C 0.84339 0.75302 0.31555 0.0
C1636 C 0.91604 0.7398 0.32717 0.0
C1637 C 0.93043 0.72558 0.37186 0.0
N1638 N 0.86632 0.74775 0.32005 0.0
N1639 N 0.90718 0.73005 0.36751 0.0
H1640 H 0.4773 0.28817 0.90112 0.0
H1641 H 0.52492 0.39653 0.98748 0.0
H1642 H 0.54443 0.28826 0.9399 0.0
H1643 H 0.47053 0.40078 0.93287 0.0
H1644 H 0.52721 0.35383 0.97741 0.0
H1645 H 0.46955 0.32617 0.92028 0.0
C1646 C 0.49041 0.29614 0.91378 0.0
C1647 C 0.51182 0.28527 0.91855 0.0
C1648 C 0.51461 0.36411 0.96788 0.0
C1649 C 0.50298 0.32895 0.94055 0.0
C1650 C 0.5132 0.38839 0.97366 0.0
C1651 C 0.49771 0.40221 0.96076 0.0
C1652 C 0.5002 0.35368 0.94933 0.0
C1653 C 0.48295 0.39085 0.94303 0.0
C1654 C 0.48593 0.31785 0.92474 0.0
C1655 C 0.52784 0.2962 0.93552 0.0
N1656 N 0.48465 0.36727 0.93777 0.0
N1657 N 0.52323 0.31769 0.94575 0.0
H1658 H 0.91866 0.30142 0.18707 0.0
H1659 H 0.81851 0.20292 0.21845 0.0
H1660 H 0.9365 0.22894 0.20032 0.0
H1661 H 0.81649 0.2748 0.24774 0.0
H1662 H 0.86048 0.21203 0.2073 0.0
H1663 H 0.87928 0.29243 0.2052 0.0
C1664 C 0.91439 0.28374 0.19402 0.0
C1665 C 0.93081 0.26591 0.19224 0.0
C1666 C 0.85085 0.22565 0.21644 0.0
C1667 C 0.88591 0.25542 0.21228 0.0
C1668 C 0.82697 0.22049 0.22274 0.0
C1669 C 0.81408 0.23811 0.23408 0.0
C1670 C 0.86157 0.24875 0.2209 0.0
C1671 C 0.82585 0.26064 0.23918 0.0
C1672 C 0.89202 0.27865 0.20435 0.0
C1673 C 0.9244 0.24325 0.20145 0.0
N1674 N 0.84884 0.26546 0.2322 0.0
N1675 N 0.90228 0.23852 0.21073 0.0
H1676 H 0.04775 0.68038 0.47121 0.0
H1677 H 0.94134 0.57948 0.48611 0.0
H1678 H 0.98189 0.67648 0.43007 0.0
H1679 H 0.01116 0.5769 0.51924 0.0
H1680 H 0.95323 0.61917 0.47147 0.0
H1681 H 0.03204 0.64643 0.49438 0.0
C1682 C 0.02991 0.67251 0.46717 0.0
C1683 C 0.01621 0.68108 0.44849 0.0
C1684 C 0.96586 0.61003 0.48216 0.0
C1685 C -0.00186 0.6423 0.47496 0.0
C1686 C 0.95906 0.58737 0.49062 0.0
C1687 C 0.97542 0.57462 0.50361 0.0
C1688 C 0.98919 0.62004 0.48668 0.0
C1689 C -0.00195 0.58592 0.50906 0.0
C1690 C 0.02096 0.65314 0.48041 0.0
C1691 C 0.99317 0.67029 0.44414 0.0
N1692 N 0.00436 0.60788 0.50033 0.0
N1693 N 0.98492 0.65136 0.45718 0.0
H1694 H 0.61349 0.77715 0.65051 0.0
H1695 H 0.67318 0.79737 0.77947 0.0
H1696 H 0.57669 0.765 0.71707 0.0
H1697 H 0.71333 0.80228 0.71411 0.0
H1698 H 0.63605 0.79474 0.75624 0.0
H1699 H 0.64878 0.79358 0.67294 0.0
C1700 C 0.61283 0.77791 0.66982 0.0
C1701 C 0.59223 0.76935 0.68195 0.0
C1702 C 0.65295 0.79681 0.74695 0.0
C1703 C 0.63232 0.78848 0.70761 0.0
C1704 C 0.67415 0.79847 0.76022 0.0
C1705 C 0.69633 0.79951 0.74864 0.0
C1706 C 0.65397 0.79586 0.72194 0.0
C1707 C 0.69658 0.80125 0.72371 0.0
C1708 C 0.63291 0.78744 0.68258 0.0
C1709 C 0.59227 0.77106 0.70695 0.0
N1710 N 0.67567 0.79883 0.7111 0.0
N1711 N 0.61203 0.78032 0.71893 0.0
H1712 H 0.60524 0.48483 0.62346 0.0
H1713 H 0.46749 0.4912 0.60125 0.0
H1714 H 0.55726 0.50679 0.67868 0.0
H1715 H 0.51131 0.44716 0.55763 0.0
H1716 H 0.49858 0.4931 0.6321 0.0
H1717 H 0.57048 0.46893 0.59991 0.0
C1718 C 0.58744 0.48627 0.63064 0.0
C1719 C 0.58415 0.49739 0.65293 0.0
C1720 C 0.50114 0.48253 0.616 0.0
C1721 C 0.54441 0.47903 0.6263 0.0
C1722 C 0.48328 0.48128 0.59844 0.0
C1723 C 0.48716 0.46975 0.57646 0.0
C1724 C 0.52304 0.47245 0.61133 0.0
C1725 C 0.5078 0.45686 0.57403 0.0
C1726 C 0.56762 0.47695 0.61734 0.0
C1727 C 0.56067 0.49853 0.66149 0.0
N1728 N 0.52534 0.45917 0.59094 0.0
N1729 N 0.5417 0.4897 0.64806 0.0
H1730 H 0.74225 0.37528 0.94792 0.0
H1731 H 0.80627 0.29338 0.85186 0.0
H1732 H 0.80859 0.34206 0.961 0.0
H1733 H 0.739 0.32499 0.83889 0.0
H1734 H 0.80689 0.31041 0.89234 0.0
H1735 H 0.74012 0.35626 0.90814 0.0
C1736 C 0.75631 0.36394 0.94245 0.0
C1737 C 0.77565 0.3603 0.95773 0.0
C1738 C 0.79196 0.31357 0.88065 0.0
C1739 C 0.77339 0.33858 0.91237 0.0
C1740 C 0.79161 0.30384 0.85752 0.0
C1741 C 0.7726 0.30781 0.84191 0.0
C1742 C 0.7732 0.32739 0.88821 0.0
C1743 C 0.75406 0.32149 0.85027 0.0
C1744 C 0.7551 0.3531 0.91976 0.0
C1745 C 0.79337 0.34542 0.94978 0.0
N1746 N 0.75486 0.33084 0.87283 0.0
N1747 N 0.79184 0.33517 0.92763 0.0
H1748 H 0.8713 0.53575 0.16196 0.0
H1749 H 0.96375 0.59517 0.10473 0.0
H1750 H 0.92479 0.50102 0.20227 0.0
H1751 H 0.00314 0.53362 0.12112 0.0
H1752 H 0.93467 0.58343 0.13518 0.0
H1753 H 0.90308 0.55549 0.13872 0.0
C1754 C 0.88974 0.5323 0.16595 0.0
C1755 C 0.89539 0.51674 0.18412 0.0
C1756 C 0.94968 0.5725 0.13213 0.0
C1757 C 0.93199 0.54007 0.1582 0.0
C1758 C 0.96652 0.57942 0.11506 0.0
C1759 C 0.98549 0.56496 0.10994 0.0
C1760 C 0.95172 0.55083 0.14388 0.0
C1761 C 0.98855 0.54508 0.12424 0.0
C1762 C 0.90794 0.54397 0.15298 0.0
C1763 C 0.91963 0.51292 0.18846 0.0
N1764 N 0.9715 0.5383 0.14031 0.0
N1765 N 0.93707 0.52442 0.17546 0.0
H1766 H 0.72664 0.62429 0.49126 0.0
H1767 H 0.72869 0.74455 0.41809 0.0
H1768 H 0.71104 0.69264 0.52269 0.0
H1769 H 0.71518 0.67502 0.38381 0.0
H1770 H 0.72622 0.72563 0.45689 0.0
H1771 H 0.72666 0.64236 0.45169 0.0
C1772 C 0.72326 0.64305 0.48983 0.0
C1773 C 0.71885 0.657 0.51025 0.0
C1774 C 0.72363 0.71453 0.44088 0.0
C1775 C 0.719 0.67768 0.46535 0.0
C1776 C 0.72508 0.7253 0.41874 0.0
C1777 C 0.7221 0.71133 0.39772 0.0
C1778 C 0.7196 0.68955 0.44204 0.0
C1779 C 0.71742 0.68647 0.39961 0.0
C1780 C 0.72315 0.65329 0.4673 0.0
C1781 C 0.71448 0.6812 0.50743 0.0
N1782 N 0.71654 0.6763 0.42143 0.0
N1783 N 0.71482 0.6908 0.48543 0.0
H1784 H 0.5868 0.55524 0.7799 0.0
H1785 H 0.53189 0.46704 0.8763 0.0
H1786 H 0.60476 0.48139 0.7808 0.0
H1787 H 0.54913 0.54213 0.89205 0.0
H1788 H 0.55281 0.47139 0.83814 0.0
H1789 H 0.56732 0.55023 0.81845 0.0
C1790 C 0.58667 0.53797 0.78829 0.0
C1791 C 0.59737 0.51868 0.77726 0.0
C1792 C 0.55197 0.48684 0.85003 0.0
C1793 C 0.57482 0.51277 0.82104 0.0
C1794 C 0.53989 0.48445 0.87163 0.0
C1795 C 0.53878 0.50429 0.88726 0.0
C1796 C 0.56247 0.50931 0.84393 0.0
C1797 C 0.54964 0.52639 0.88052 0.0
C1798 C 0.57563 0.53517 0.81026 0.0
C1799 C 0.5968 0.49671 0.78887 0.0
N1800 N 0.56089 0.52835 0.85924 0.0
N1801 N 0.58542 0.49424 0.81012 0.0
H1802 H 0.73049 0.37234 0.1006 0.0
H1803 H 0.75574 0.24528 0.14977 0.0
H1804 H 0.78202 0.32844 0.0671 0.0
H1805 H 0.68954 0.27935 0.16166 0.0
H1806 H 0.76601 0.27433 0.1189 0.0
H1807 H 0.71667 0.3384 0.1245 0.0
C1808 C 0.73906 0.35562 0.09842 0.0
C1809 C 0.75751 0.35325 0.08192 0.0
C1810 C 0.74903 0.2751 0.12798 0.0
C1811 C 0.74157 0.31421 0.10903 0.0
C1812 C 0.74306 0.25842 0.14549 0.0
C1813 C 0.72198 0.2602 0.15872 0.0
C1814 C 0.73393 0.29371 0.12396 0.0
C1815 C 0.7062 0.27755 0.15227 0.0
C1816 C 0.73095 0.33615 0.11186 0.0
C1817 C 0.76777 0.33104 0.07968 0.0
N1818 N 0.71274 0.29393 0.1357 0.0
N1819 N 0.75975 0.31237 0.09321 0.0
H1820 H 0.86604 0.51442 0.321 0.0
H1821 H 0.94709 0.44899 0.41479 0.0
H1822 H 0.90957 0.45598 0.30211 0.0
H1823 H 0.90574 0.5094 0.43268 0.0
H1824 H 0.93316 0.45082 0.37343 0.0
H1825 H 0.88047 0.51282 0.36217 0.0
C1826 C 0.87871 0.50134 0.32549 0.0
C1827 C 0.88659 0.4853 0.30814 0.0
C1828 C 0.92714 0.46365 0.38645 0.0
C1829 C 0.90305 0.48323 0.35516 0.0
C1830 C 0.93504 0.46256 0.41007 0.0
C1831 C 0.92762 0.47906 0.42724 0.0
C1832 C 0.91171 0.48134 0.38 0.0
C1833 C 0.912 0.49631 0.42007 0.0
C1834 C 0.88691 0.50038 0.34899 0.0
C1835 C 0.903 0.46869 0.31494 0.0
N1836 N 0.9046 0.497 0.39703 0.0
N1837 N 0.91064 0.46804 0.33793 0.0
H1838 H 0.76117 0.69119 0.60586 0.0
H1839 H 0.8263 0.71532 0.73099 0.0
H1840 H 0.77812 0.6365 0.65534 0.0
H1841 H 0.79137 0.76889 0.69158 0.0
H1842 H 0.82257 0.68854 0.6961 0.0
H1843 H 0.78451 0.72086 0.63053 0.0
C1844 C 0.76998 0.68535 0.62179 0.0
C1845 C 0.7672 0.6614 0.62888 0.0
C1846 C 0.81629 0.70639 0.69491 0.0
C1847 C 0.79415 0.69527 0.65695 0.0
C1848 C 0.81855 0.72181 0.71478 0.0
C1849 C 0.80821 0.74403 0.71451 0.0
C1850 C 0.80373 0.71335 0.67474 0.0
C1851 C 0.79891 0.75161 0.69282 0.0
C1852 C 0.7834 0.7023 0.63577 0.0
C1853 C 0.77936 0.65484 0.64947 0.0
N1854 N 0.79632 0.73603 0.67393 0.0
N1855 N 0.79208 0.67176 0.66295 0.0
H1856 H 0.63979 0.62731 0.58437 0.0
H1857 H 0.55586 0.5098 0.55371 0.0
H1858 H 0.65719 0.55637 0.60437 0.0
H1859 H 0.54358 0.58072 0.52924 0.0
H1860 H 0.58943 0.52694 0.57817 0.0
H1861 H 0.6001 0.61117 0.57166 0.0
C1862 C 0.63506 0.6084 0.58658 0.0
C1863 C 0.65197 0.59306 0.59493 0.0
C1864 C 0.57932 0.53872 0.56749 0.0
C1865 C 0.60679 0.57434 0.57985 0.0
C1866 C 0.56028 0.52894 0.55336 0.0
C1867 C 0.54713 0.5438 0.53904 0.0
C1868 C 0.58522 0.56351 0.56728 0.0
C1869 C 0.55337 0.56851 0.5397 0.0
C1870 C 0.61243 0.59915 0.57917 0.0
C1871 C 0.64476 0.56878 0.59776 0.0
N1872 N 0.57203 0.57753 0.55346 0.0
N1873 N 0.62282 0.56004 0.58974 0.0
H1874 H 0.17362 0.96746 0.56775 0.0
H1875 H 0.09391 0.00584 0.45832 0.0
H1876 H 0.19049 0.9501 0.49463 0.0
H1877 H 0.06445 0.9903 0.52765 0.0
H1878 H 0.13295 0.99384 0.4724 0.0
H1879 H 0.13664 0.98412 0.55406 0.0
C1880 C 0.16959 0.96726 0.54881 0.0
C1881 C 0.18501 0.95726 0.53228 0.0
C1882 C 0.11792 0.99325 0.48451 0.0
C1883 C 0.14304 0.97652 0.51658 0.0
C1884 C 0.09575 0.00023 0.47658 0.0
C1885 C 0.07595 -0.00109 0.49183 0.0
C1886 C 0.12032 0.98538 0.50795 0.0
C1887 C 0.07924 0.99139 0.51527 0.0
C1888 C 0.14851 0.97671 0.54105 0.0
C1889 C 0.17895 0.95746 0.50795 0.0
N1890 N 0.10103 0.98492 0.52264 0.0
N1891 N 0.15842 0.96703 0.50079 0.0
H1892 H 0.25796 0.93401 0.72687 0.0
H1893 H 0.26286 0.81842 0.80227 0.0
H1894 H 0.29172 0.93222 0.79629 0.0
H1895 H 0.21651 0.82201 0.74072 0.0
H1896 H 0.26698 0.86203 0.8044 0.0
H1897 H 0.23624 0.89556 0.73484 0.0
C1898 C 0.26043 0.92577 0.74394 0.0
C1899 C 0.27719 0.93587 0.76065 0.0
C1900 C 0.25548 0.85338 0.79069 0.0
C1901 C 0.25259 0.89212 0.76985 0.0
C1902 C 0.25316 0.82848 0.78951 0.0
C1903 C 0.23973 0.81673 0.77105 0.0
C1904 C 0.24488 0.86657 0.77283 0.0
C1905 C 0.22722 0.83049 0.75512 0.0
C1906 C 0.24802 0.90386 0.74851 0.0
C1907 C 0.2795 0.92466 0.7826 0.0
N1908 N 0.23061 0.85477 0.75598 0.0
N1909 N 0.26767 0.90321 0.7864 0.0
H1910 H 0.29635 0.0664 0.02817 0.0
H1911 H 0.39331 0.9774 0.06956 0.0
H1912 H 0.29609 0.03526 0.09796 0.0
H1913 H 0.38645 0.00273 -0.00223 0.0
H1914 H 0.35545 0.9949 0.07963 0.0
H1915 H 0.32728 0.04008 0.01595 0.0
C1916 C 0.30271 0.0539 0.04088 0.0
C1917 C 0.29385 0.05319 0.06417 0.0
C1918 C 0.36212 -0.00369 0.0616 0.0
C1919 C 0.32942 0.02307 0.0504 0.0
C1920 C 0.38367 0.98627 0.05584 0.0
C1921 C 0.39325 0.989 0.03293 0.0
C1922 C 0.35023 0.00912 0.0443 0.0
C1923 C 0.37999 0.00059 0.0158 0.0
C1924 C 0.32033 0.0388 0.03389 0.0
C1925 C 0.30255 0.03647 0.07984 0.0
N1926 N 0.35934 0.01043 0.02191 0.0
N1927 N 0.3201 0.02224 0.07276 0.0
H1928 H 0.63932 0.6048 0.71849 0.0
H1929 H 0.76376 0.67569 0.75332 0.0
H1930 H 0.70771 0.58213 0.6948 0.0
H1931 H 0.69435 0.69735 0.77537 0.0
H1932 H 0.74392 0.64244 0.73016 0.0
H1933 H 0.65939 0.64091 0.73616 0.0
C1934 C 0.65858 0.60767 0.71666 0.0
C1935 C 0.67193 0.59037 0.7054 0.0
C1936 C 0.73306 0.65446 0.74012 0.0
C1937 C 0.69515 0.63145 0.72612 0.0
C1938 C 0.74437 0.67332 0.75354 0.0
C1939 C 0.7307 0.68929 0.76647 0.0
C1940 C 0.70793 0.65152 0.73964 0.0
C1941 C 0.70564 0.68547 0.76581 0.0
C1942 C 0.67006 0.62824 0.72689 0.0
C1943 C 0.69678 0.59505 0.70335 0.0
N1944 N 0.6951 0.667 0.75262 0.0
N1945 N 0.70769 0.61504 0.71398 0.0
H1946 H 0.8433 0.43586 -0.00234 0.0
H1947 H 0.9158 0.55744 0.03694 0.0
H1948 H 0.81928 0.48279 0.05355 0.0
H1949 H 0.93443 0.51205 0.97753 0.0
H1950 H 0.87772 0.53366 0.04034 0.0
H1951 H 0.87486 0.46583 0.98819 0.0
C1952 C 0.84473 0.45245 0.00809 0.0
C1953 C 0.82874 0.45669 0.02663 0.0
C1954 C 0.88995 0.52922 0.02628 0.0
C1955 C 0.86496 0.49137 0.01566 0.0
C1956 C 0.9116 0.54291 0.02417 0.0
C1957 C 0.92849 0.5364 0.0072 0.0
C1958 C 0.8853 0.50895 0.01131 0.0
C1959 C 0.92212 0.51743 0.99115 0.0
C1960 C 0.8627 0.4697 0.0025 0.0
C1961 C 0.83135 0.4787 0.03925 0.0
N1962 N 0.9012 0.50416 0.99384 0.0
N1963 N 0.84928 0.4952 0.03363 0.0
H1964 H 0.29258 0.05864 0.78742 0.0
H1965 H 0.24781 0.1801 0.73949 0.0
H1966 H 0.27083 0.06665 0.7141 0.0
H1967 H 0.23952 0.16043 0.81314 0.0
H1968 H 0.25907 0.13956 0.72979 0.0
H1969 H 0.27624 0.09718 0.79745 0.0
C1970 C 0.28434 0.06848 0.77347 0.0
C1971 C 0.28311 0.05953 0.74989 0.0
C1972 C 0.25455 0.14406 0.74802 0.0
C1973 C 0.26463 0.10347 0.76118 0.0
C1974 C 0.24818 0.16718 0.75357 0.0
C1975 C 0.24279 0.17361 0.77715 0.0
C1976 C 0.25599 0.12742 0.76626 0.0
C1977 C 0.24346 0.15616 0.79471 0.0
C1978 C 0.27492 0.09036 0.77922 0.0
C1979 C 0.27214 0.07291 0.73251 0.0
N1980 N 0.25028 0.1339 0.78896 0.0
N1981 N 0.26352 0.09434 0.73846 0.0
H1982 H 0.17325 0.9471 0.23388 0.0
H1983 H 0.26683 0.84753 0.20719 0.0
H1984 H 0.22219 0.95034 0.17464 0.0
H1985 H 0.21411 0.84326 0.26316 0.0
H1986 H 0.25234 0.88615 0.19595 0.0
H1987 H 0.19 0.9101 0.24618 0.0
C1988 C 0.18763 0.9401 0.22353 0.0
C1989 C 0.19627 0.95176 0.20315 0.0
C1990 C 0.24399 0.87672 0.21069 0.0
C1991 C 0.21546 0.90929 0.21704 0.0
C1992 C 0.25223 0.85467 0.21709 0.0
C1993 C 0.24164 0.84207 0.2361 0.0
C1994 C 0.2251 0.88622 0.22343 0.0
C1995 C 0.22281 0.85223 0.24833 0.0
C1996 C 0.19716 0.91892 0.23053 0.0
C1997 C 0.21495 0.94188 0.19045 0.0
N1998 N 0.21517 0.87366 0.24178 0.0
N1999 N 0.22388 0.92115 0.19755 0.0
H2000 H 0.52411 0.32867 0.45591 0.0
H2001 H 0.47065 0.44475 0.42284 0.0
H2002 H 0.49547 0.3353 0.3849 0.0
H2003 H 0.53286 0.44536 0.46919 0.0
H2004 H 0.48141 0.40638 0.40566 0.0
H2005 H 0.5299 0.37224 0.4594 0.0
C2006 C 0.5195 0.3394 0.44089 0.0
C2007 C 0.50912 0.32865 0.42022 0.0
C2008 C 0.49305 0.4153 0.41912 0.0
C2009 C 0.51501 0.37828 0.42424 0.0
C2010 C 0.48687 0.43715 0.429 0.0
C2011 C 0.50041 0.44786 0.44805 0.0
C2012 C 0.51258 0.40406 0.42869 0.0
C2013 C 0.52147 0.43741 0.45502 0.0
C2014 C 0.52291 0.36421 0.4428 0.0
C2015 C 0.5035 0.34314 0.40115 0.0
N2016 N 0.52656 0.41575 0.44579 0.0
N2017 N 0.50588 0.36739 0.40385 0.0
H2018 H 0.44764 0.70602 0.21217 0.0
H2019 H 0.35709 0.8067 0.22416 0.0
H2020 H 0.45446 0.76952 0.16975 0.0
H2021 H 0.3699 0.75789 0.28078 0.0
H2022 H 0.39428 0.79593 0.20536 0.0
H2023 H 0.41948 0.72563 0.23797 0.0
C2024 C 0.44313 0.72407 0.20825 0.0
C2025 C 0.45315 0.73607 0.18865 0.0
C2026 C 0.38925 0.78803 0.22221 0.0
C2027 C 0.4211 0.7587 0.21818 0.0
C2028 C 0.36808 0.79429 0.23305 0.0
C2029 C 0.36006 0.78277 0.2538 0.0
C2030 C 0.4022 0.7699 0.23202 0.0
C2031 C 0.37516 0.767 0.26462 0.0
C2032 C 0.42729 0.73537 0.22314 0.0
C2033 C 0.44698 0.75958 0.1846 0.0
N2034 N 0.39519 0.76053 0.25326 0.0
N2035 N 0.4311 0.77005 0.19908 0.0
H2036 H 0.0652 0.7653 0.98439 0.0
H2037 H 0.97498 0.65346 0.01183 0.0
H2038 H 0.99351 0.75524 0.95501 0.0
H2039 H 0.05214 0.65524 0.01719 0.0
H2040 H 0.97795 0.69673 0.00428 0.0
H2041 H 0.05608 0.73191 0.0109 0.0
C2042 C 0.04731 0.75657 0.98402 0.0
C2043 C 0.03033 0.76249 0.96698 0.0
C2044 C 0.99414 0.68764 0.00759 0.0
C2045 C 0.01994 0.72425 -0.00308 0.0
C2046 C 0.99246 0.66305 0.0118 0.0
C2047 C 0.01339 0.65082 0.01446 0.0
C2048 C 0.01687 0.69991 0.00649 0.0
C2049 C 0.03561 0.66397 0.01457 0.0
C2050 C 0.04216 0.73744 -0.00095 0.0
C2051 C 0.00733 0.75078 0.96748 0.0
N2052 N 0.03678 0.68777 0.01042 0.0
N2053 N 0.00295 0.73181 0.98184 0.0
H2054 H 0.06153 0.19517 0.69411 0.0
H2055 H 0.13494 0.28122 0.78786 0.0
H2056 H 0.075 0.27155 0.68698 0.0
H2057 H 0.14822 0.20639 0.77943 0.0
H2058 H 0.10251 0.27571 0.75851 0.0
H2059 H 0.08498 0.19745 0.73141 0.0
C2060 C 0.06944 0.21239 0.70037 0.0
C2061 C 0.06655 0.23319 0.68734 0.0
C2062 C 0.11219 0.26038 0.76344 0.0
C2063 C 0.09261 0.23593 0.73013 0.0
C2064 C 0.13051 0.26343 0.78037 0.0
C2065 C 0.14456 0.24432 0.7857 0.0
C2066 C 0.10787 0.23807 0.75179 0.0
C2067 C 0.1379 0.22161 0.77569 0.0
C2068 C 0.08268 0.21365 0.72165 0.0
C2069 C 0.07704 0.25504 0.69629 0.0
N2070 N 0.12026 0.21918 0.75876 0.0
N2071 N 0.08954 0.25584 0.71718 0.0
H2072 H 0.47454 0.66167 0.08851 0.0
H2073 H 0.54689 0.58807 -0.00531 0.0
H2074 H 0.54916 0.67973 0.07357 0.0
H2075 H 0.46953 0.58566 -0.00319 0.0
H2076 H 0.54847 0.6234 0.02136 0.0
H2077 H 0.47256 0.63428 0.05397 0.0
C2078 C 0.49052 0.65984 0.07798 0.0
C2079 C 0.51209 0.67282 0.08404 0.0
C2080 C 0.53116 0.61538 0.01559 0.0
C2081 C 0.50996 0.64159 0.04442 0.0
C2082 C 0.53025 0.59531 0.00024 0.0
C2083 C 0.50805 0.5836 -0.00606 0.0
C2084 C 0.50974 0.62354 0.02474 0.0
C2085 C 0.48706 0.59381 0.00162 0.0
C2086 C 0.48933 0.64437 0.05813 0.0
C2087 C 0.53217 0.66997 0.06959 0.0
N2088 N 0.48843 0.61292 0.01696 0.0
N2089 N 0.53069 0.65446 0.05056 0.0
H2090 H 0.1067 0.74357 0.88437 0.0
H2091 H 0.14705 0.72206 0.75392 0.0
H2092 H 0.05656 0.74209 0.82523 0.0
H2093 H 0.1852 0.69498 0.81379 0.0
H2094 H 0.11214 0.72596 0.77925 0.0
H2095 H 0.13467 0.723 0.85913 0.0
C2096 C 0.1015 0.73872 0.86615 0.0
C2097 C 0.0795 0.74494 0.85673 0.0
C2098 C 0.12794 0.71862 0.78671 0.0
C2099 C 0.11135 0.72153 0.82781 0.0
C2100 C 0.14786 0.71641 0.77226 0.0
C2101 C 0.16914 0.70864 0.78193 0.0
C2102 C 0.1296 0.71357 0.81107 0.0
C2103 C 0.1692 0.70129 0.8057 0.0
C2104 C 0.11737 0.7268 0.85182 0.0
C2105 C 0.07348 0.73789 0.83313 0.0
N2106 N 0.1499 0.70452 0.81967 0.0
N2107 N 0.08952 0.72695 0.81932 0.0
H2108 H 0.97405 0.29495 0.60757 0.0
H2109 H 0.98081 0.38707 0.50069 0.0
H2110 H 0.03626 0.30733 0.56327 0.0
H2111 H 0.93213 0.39266 0.55973 0.0
H2112 H 0.99548 0.35107 0.51798 0.0
H2113 H 0.95378 0.32509 0.58547 0.0
C2114 C 0.98346 0.30403 0.5932 0.0
C2115 C 0.00696 0.29881 0.58735 0.0
C2116 C 0.98133 0.36 0.52693 0.0
C2117 C 0.98369 0.3329 0.56178 0.0
C2118 C 0.97271 0.3804 0.51694 0.0
C2119 C 0.95542 0.39314 0.52897 0.0
C2120 C 0.97243 0.35213 0.54892 0.0
C2121 C 0.94567 0.38358 0.54999 0.0
C2122 C 0.97184 0.32116 0.58058 0.0
C2123 C 0.01825 0.31102 0.56852 0.0
N2124 N 0.95449 0.36377 0.55945 0.0
N2125 N 0.00647 0.3275 0.55635 0.0
H2126 H 0.41173 0.20778 0.37638 0.0
H2127 H 0.30382 0.29079 0.36451 0.0
H2128 H 0.40865 0.27513 0.41502 0.0
H2129 H 0.30434 0.21934 0.33374 0.0
H2130 H 0.33851 0.28267 0.38917 0.0
H2131 H 0.36931 0.20877 0.36655 0.0
C2132 C 0.40202 0.22266 0.38302 0.0
C2133 C 0.41379 0.24165 0.39609 0.0
C2134 C 0.33074 0.26863 0.37735 0.0
C2135 C 0.36529 0.2431 0.38466 0.0
C2136 C 0.31091 0.27325 0.36328 0.0
C2137 C 0.30161 0.25594 0.34658 0.0
C2138 C 0.3413 0.24663 0.37452 0.0
C2139 C 0.31132 0.23344 0.34594 0.0
C2140 C 0.37776 0.22319 0.37748 0.0
C2141 C 0.40028 0.26026 0.40464 0.0
N2142 N 0.33088 0.22958 0.35939 0.0
N2143 N 0.3768 0.26077 0.39836 0.0
H2144 H 0.43285 0.56479 0.30253 0.0
H2145 H 0.50841 0.555 0.42196 0.0
H2146 H 0.4946 0.52266 0.30854 0.0
H2147 H 0.43148 0.5568 0.41766 0.0
H2148 H 0.51066 0.5619 0.37887 0.0
H2149 H 0.44092 0.58091 0.3428 0.0
C2150 C 0.44852 0.55943 0.31202 0.0
C2151 C 0.46264 0.54172 0.30254 0.0
C2152 C 0.49343 0.5616 0.38761 0.0
C2153 C 0.47196 0.56034 0.34831 0.0
C2154 C 0.49212 0.55774 0.41208 0.0
C2155 C 0.46968 0.55498 0.42305 0.0
C2156 C 0.47219 0.56318 0.37442 0.0
C2157 C 0.44905 0.55849 0.40963 0.0
C2158 C 0.45308 0.5687 0.33496 0.0
C2159 C 0.48293 0.53581 0.31546 0.0
N2160 N 0.45077 0.5622 0.38588 0.0
N2161 N 0.48675 0.54477 0.33799 0.0
H2162 H 0.32535 0.70438 0.06308 0.0
H2163 H 0.27501 0.68916 0.19374 0.0
H2164 H 0.32322 0.63754 0.10032 0.0
H2165 H 0.29611 0.75857 0.16558 0.0
H2166 H 0.2923 0.67022 0.15896 0.0
H2167 H 0.31698 0.7252 0.10055 0.0
C2168 C 0.32384 0.69416 0.07925 0.0
C2169 C 0.32453 0.66909 0.07845 0.0
C2170 C 0.29319 0.6896 0.16039 0.0
C2171 C 0.31423 0.69272 0.12116 0.0
C2172 C 0.283 0.70046 0.18011 0.0
C2173 C 0.28395 0.72554 0.18256 0.0
C2174 C 0.30422 0.70386 0.14279 0.0
C2175 C 0.29486 0.73919 0.16439 0.0
C2176 C 0.31885 0.70606 0.10061 0.0
C2177 C 0.32261 0.65684 0.1 0.0
N2178 N 0.30449 0.72817 0.14521 0.0
N2179 N 0.31698 0.6687 0.12038 0.0
H2180 H 0.04732 0.53834 0.80782 0.0
H2181 H 0.00759 0.5287 0.92551 0.0
H2182 H 0.11261 0.51431 0.838 0.0
H2183 H 0.07788 0.56196 0.94176 0.0
H2184 H 0.02018 0.52178 0.88423 0.0
H2185 H 0.03252 0.54546 0.84824 0.0
C2186 C 0.05855 0.53464 0.82297 0.0
C2187 C 0.08116 0.52563 0.81967 0.0
C2188 C 0.03273 0.53072 0.89686 0.0
C2189 C 0.06444 0.53384 0.86564 0.0
C2190 C 0.02565 0.53454 0.92036 0.0
C2191 C 0.0417 0.54607 0.93692 0.0
C2192 C 0.05615 0.53801 0.89012 0.0
C2193 C 0.06491 0.55326 0.9294 0.0
C2194 C 0.05003 0.53854 0.84592 0.0
C2195 C 0.095 0.5211 0.83986 0.0
N2196 N 0.07158 0.54884 0.90654 0.0
N2197 N 0.08652 0.52552 0.86209 0.0
H2198 H 0.19404 0.36377 0.61874 0.0
H2199 H 0.25296 0.26865 0.70176 0.0
H2200 H 0.23259 0.30459 0.59163 0.0
H2201 H 0.20793 0.32305 0.72834 0.0
H2202 H 0.24711 0.28272 0.66136 0.0
H2203 H 0.19956 0.34962 0.65917 0.0
C2204 C 0.2035 0.34771 0.62126 0.0
C2205 C 0.21292 0.33538 0.60177 0.0
C2206 C 0.23855 0.29159 0.67605 0.0
C2207 C 0.21951 0.31927 0.64798 0.0
C2208 C 0.24199 0.28366 0.69914 0.0
C2209 C 0.23087 0.29464 0.71847 0.0
C2210 C 0.22396 0.31069 0.67227 0.0
C2211 C 0.2168 0.31398 0.71397 0.0
C2212 C 0.20671 0.33968 0.64435 0.0
C2213 C 0.22503 0.31468 0.60611 0.0
N2214 N 0.21371 0.32136 0.69134 0.0
N2215 N 0.22808 0.30735 0.62877 0.0
H2216 H 0.40788 0.52872 0.16217 0.0
H2217 H 0.49705 0.46897 0.0708 0.0
H2218 H 0.47027 0.49252 0.18363 0.0
H2219 H 0.43957 0.5119 0.0489 0.0
H2220 H 0.4855 0.47494 0.1123 0.0
H2221 H 0.418 0.52129 0.12043 0.0
C2222 C 0.42379 0.51938 0.15813 0.0
C2223 C 0.43823 0.51122 0.17643 0.0
C2224 C 0.47536 0.48296 0.09839 0.0
C2225 C 0.44973 0.50241 0.12879 0.0
C2226 C 0.48185 0.47943 0.07468 0.0
C2227 C 0.46937 0.49008 0.05635 0.0
C2228 C 0.45623 0.4972 0.1038 0.0
C2229 C 0.44982 0.50347 0.06246 0.0
C2230 C 0.4295 0.51505 0.13431 0.0
C2231 C 0.45859 0.49915 0.17013 0.0
N2232 N 0.44393 0.50674 0.08568 0.0
N2233 N 0.46368 0.49504 0.14685 0.0
H2234 H 0.3153 0.64128 0.93171 0.0
H2235 H 0.29262 0.74581 0.84096 0.0
H2236 H 0.29444 0.71118 0.95426 0.0
H2237 H 0.28478 0.6705 0.82175 0.0
H2238 H 0.30386 0.73528 0.88156 0.0
H2239 H 0.31483 0.65408 0.89026 0.0
C2240 C 0.31098 0.65943 0.92798 0.0
C2241 C 0.30459 0.67512 0.94639 0.0
C2242 C 0.29992 0.72113 0.86833 0.0
C2243 C 0.30412 0.68981 0.89916 0.0
C2244 C 0.29361 0.72709 0.84518 0.0
C2245 C 0.28748 0.70897 0.82807 0.0
C2246 C 0.30043 0.69692 0.87425 0.0
C2247 C 0.28906 0.68501 0.83449 0.0
C2248 C 0.31063 0.66667 0.90434 0.0
C2249 C 0.2992 0.69844 0.94055 0.0
N2250 N 0.2953 0.67967 0.85712 0.0
N2251 N 0.29895 0.70507 0.91739 0.0
H2252 H 0.03272 0.48302 0.72179 0.0
H2253 H 0.0304 0.4884 0.58356 0.0
H2254 H 0.08786 0.45355 0.6788 0.0
H2255 H 0.96341 0.47493 0.6203 0.0
H2256 H 0.05199 0.47963 0.61986 0.0
H2257 H 0.00637 0.48202 0.68654 0.0
C2258 C 0.03904 0.47574 0.70509 0.0
C2259 C 0.0626 0.4686 0.70311 0.0
C2260 C 0.03256 0.47852 0.61997 0.0
C2261 C 0.03292 0.46813 0.66287 0.0
C2262 C 0.0202 0.48388 0.59937 0.0
C2263 C 0.99504 0.48262 0.59897 0.0
C2264 C 0.01977 0.47234 0.64057 0.0
C2265 C 0.98282 0.47622 0.61993 0.0
C2266 C 0.02402 0.47524 0.68504 0.0
C2267 C 0.06987 0.45928 0.68111 0.0
N2268 N 0.99534 0.47159 0.64007 0.0
N2269 N 0.05528 0.45987 0.66167 0.0
H2270 H 0.207 0.27926 0.47518 0.0
H2271 H 0.19033 0.32822 0.3526 0.0
H2272 H 0.16923 0.34343 0.46644 0.0
H2273 H 0.18739 0.25171 0.36147 0.0
H2274 H 0.17783 0.33326 0.39395 0.0
H2275 H 0.19549 0.26658 0.43447 0.0
C2276 C 0.19578 0.29038 0.46489 0.0
C2277 C 0.18958 0.3127 0.47389 0.0
C2278 C 0.17919 0.3153 0.38669 0.0
C2279 C 0.17677 0.29856 0.42737 0.0
C2280 C 0.18642 0.31246 0.36316 0.0
C2281 C 0.19019 0.28958 0.35391 0.0
C2282 C 0.17664 0.29517 0.40121 0.0
C2283 C 0.18479 0.26967 0.36812 0.0
C2284 C 0.18911 0.28308 0.44171 0.0
C2285 C 0.17475 0.32627 0.45999 0.0
N2286 N 0.17897 0.27295 0.3914 0.0
N2287 N 0.16942 0.31932 0.43711 0.0
H2288 H 0.29105 0.37758 0.49344 0.0
H2289 H 0.37017 0.49524 0.53107 0.0
H2290 H 0.26415 0.43564 0.5353 0.0
H2291 H 0.38762 0.45155 0.46999 0.0
H2292 H 0.33169 0.47239 0.53377 0.0
H2293 H 0.32734 0.40309 0.48539 0.0
C2294 C 0.29272 0.39567 0.50085 0.0
C2295 C 0.27464 0.40443 0.51521 0.0
C2296 C 0.34381 0.46793 0.51961 0.0
C2297 C 0.31592 0.4335 0.50617 0.0
C2298 C 0.36579 0.48093 0.51811 0.0
C2299 C 0.38209 0.47518 0.50035 0.0
C2300 C 0.33824 0.44877 0.5035 0.0
C2301 C 0.37548 0.45656 0.48391 0.0
C2302 C 0.31334 0.41022 0.49615 0.0
C2303 C 0.27764 0.42806 0.52422 0.0
N2304 N 0.35412 0.44375 0.48607 0.0
N2305 N 0.29797 0.44167 0.51972 0.0
H2306 H 0.81373 0.09881 0.45281 0.0
H2307 H 0.89315 0.98631 0.44264 0.0
H2308 H 0.81639 0.04273 0.50421 0.0
H2309 H 0.91206 0.0547 0.41177 0.0
H2310 H 0.85326 -0.00027 0.45159 0.0
H2311 H 0.83874 0.07599 0.42599 0.0
C2312 C 0.81926 0.08154 0.45828 0.0
C2313 C 0.81354 0.07287 0.48097 0.0
C2314 C 0.8658 0.01141 0.44193 0.0
C2315 C 0.84147 0.04659 0.45027 0.0
C2316 C 0.88839 0.00362 0.43647 0.0
C2317 C 0.90578 0.01956 0.42665 0.0
C2318 C 0.86083 0.03519 0.43738 0.0
C2319 C 0.89901 0.04198 0.41943 0.0
C2320 C 0.83339 0.06853 0.44294 0.0
C2321 C 0.8209 0.0503 0.48709 0.0
N2322 N 0.87716 0.0494 0.42543 0.0
N2323 N 0.83468 0.03803 0.47191 0.0
H2324 H 0.68343 0.01979 0.23014 0.0
H2325 H 0.66167 0.15808 0.21549 0.0
H2326 H 0.61623 0.05204 0.24174 0.0
H2327 H 0.73234 0.13167 0.21848 0.0
H2328 H 0.64426 0.11699 0.21427 0.0
H2329 H 0.70108 0.05857 0.21714 0.0
C2330 C 0.67238 0.03498 0.22988 0.0
C2331 C 0.64841 0.0328 0.23735 0.0
C2332 C 0.6636 0.12007 0.21476 0.0
C2333 C 0.66832 0.07686 0.22214 0.0
C2334 C 0.67351 0.14348 0.21525 0.0
C2335 C 0.69836 0.14804 0.21731 0.0
C2336 C 0.67867 0.10111 0.21687 0.0
C2337 C 0.71305 0.1287 0.21689 0.0
C2338 C 0.68244 0.05703 0.22237 0.0
C2339 C 0.63486 0.05297 0.23649 0.0
N2340 N 0.70293 0.1059 0.21722 0.0
N2341 N 0.64504 0.07414 0.22909 0.0
H2342 H 0.68185 0.9444 0.05162 0.0
H2343 H 0.55915 0.91546 0.98083 0.0
H2344 H 0.66595 0.87772 0.01266 0.0
H2345 H 0.58289 0.98572 0.00866 0.0
H2346 H 0.59904 0.90181 0.98923 0.0
H2347 H 0.64607 0.96007 0.03435 0.0
C2348 C 0.67079 0.93303 0.03946 0.0
C2349 C 0.67677 0.90965 0.03375 0.0
C2350 C 0.59561 0.92033 0.99309 0.0
C2351 C 0.63574 0.92752 0.01376 0.0
C2352 C 0.57289 0.92819 0.98813 0.0
C2353 C 0.56754 0.95167 -0.00559 0.0
C2354 C 0.61295 0.93605 0.00452 0.0
C2355 C 0.58606 0.96735 0.00387 0.0
C2356 C 0.65043 0.94205 0.02944 0.0
C2357 C 0.6619 0.89581 0.01766 0.0
N2358 N 0.60778 0.95916 0.00896 0.0
N2359 N 0.64195 0.90489 0.00837 0.0
H2360 H 0.34602 0.47686 0.28332 0.0
H2361 H 0.30443 0.34602 0.24247 0.0
H2362 H 0.39639 0.42884 0.2545 0.0
H2363 H 0.27761 0.37463 0.30848 0.0
H2364 H 0.33443 0.37983 0.24144 0.0
H2365 H 0.31709 0.44249 0.28876 0.0
C2366 C 0.35105 0.45904 0.27842 0.0
C2367 C 0.37354 0.45556 0.26846 0.0
C2368 C 0.32192 0.37867 0.2561 0.0
C2369 C 0.34052 0.41666 0.27395 0.0
C2370 C 0.30465 0.3596 0.25658 0.0
C2371 C 0.28849 0.35765 0.27556 0.0
C2372 C 0.32264 0.39617 0.27441 0.0
C2373 C 0.28978 0.37555 0.29355 0.0
C2374 C 0.33461 0.43954 0.28154 0.0
C2375 C 0.37926 0.43219 0.26237 0.0
N2376 N 0.30648 0.39429 0.29244 0.0
N2377 N 0.36265 0.4136 0.26481 0.0
H2378 H 0.21593 0.64619 0.0189 0.0
H2379 H 0.11598 0.54723 0.05969 0.0
H2380 H 0.23306 0.57711 0.04478 0.0
H2381 H 0.10181 0.61719 0.03425 0.0
H2382 H 0.15921 0.559 0.05941 0.0
H2383 H 0.1741 0.63674 0.02838 0.0
C2384 C 0.21088 0.62897 0.02651 0.0
C2385 C 0.22798 0.61233 0.03083 0.0
C2386 C 0.14656 0.57185 0.05425 0.0
C2387 C 0.17999 0.60135 0.04188 0.0
C2388 C 0.12198 0.5652 0.05461 0.0
C2389 C 0.10555 0.58119 0.04665 0.0
C2390 C 0.15439 0.59459 0.04598 0.0
C2391 C 0.11404 0.60422 0.04013 0.0
C2392 C 0.18697 0.62361 0.03207 0.0
C2393 C 0.22041 0.5904 0.041 0.0
N2394 N 0.13786 0.61014 0.03972 0.0
N2395 N 0.19689 0.58546 0.04605 0.0
H2396 H 0.64139 0.92091 0.31977 0.0
H2397 H 0.75685 0.84676 0.33454 0.0
H2398 H 0.70068 0.92069 0.2709 0.0
H2399 H 0.68812 0.82671 0.36489 0.0
H2400 H 0.74229 0.88561 0.3243 0.0
H2401 H 0.66381 0.89718 0.34739 0.0
C2402 C 0.65922 0.9161 0.31497 0.0
C2403 C 0.669 0.92225 0.29278 0.0
C2404 C 0.73073 0.8731 0.33413 0.0
C2405 C 0.69482 0.89572 0.32447 0.0
C2406 C 0.73919 0.85114 0.34038 0.0
C2407 C 0.72354 0.83361 0.35039 0.0
C2408 C 0.70656 0.87734 0.33806 0.0
C2409 C 0.70065 0.83987 0.35714 0.0
C2410 C 0.67202 0.90271 0.33079 0.0
C2411 C 0.69227 0.91585 0.2876 0.0
N2412 N 0.69259 0.86107 0.35032 0.0
N2413 N 0.70432 0.90274 0.30324 0.0
H2414 H 0.81291 0.07332 0.73323 0.0
H2415 H 0.82678 0.20359 0.79436 0.0
H2416 H 0.87746 0.10232 0.76903 0.0
H2417 H 0.76171 0.17351 0.76024 0.0
H2418 H 0.84365 0.16448 0.79076 0.0
H2419 H 0.79226 0.10803 0.74737 0.0
C2420 C 0.82272 0.08696 0.74411 0.0
C2421 C 0.84701 0.08509 0.7497 0.0
C2422 C 0.82554 0.16635 0.78441 0.0
C2423 C 0.8235 0.12481 0.76604 0.0
C2424 C 0.81582 0.18866 0.78662 0.0
C2425 C 0.79297 0.19196 0.77718 0.0
C2426 C 0.81231 0.1473 0.77261 0.0
C2427 C 0.77958 0.17191 0.7674 0.0
C2428 C 0.8109 0.10673 0.75228 0.0
C2429 C 0.85878 0.10317 0.76408 0.0
N2430 N 0.78959 0.15055 0.76504 0.0
N2431 N 0.84697 0.12237 0.77159 0.0
loop_
_geom_bond_atom_site_label_1
_geom_bond_atom_site_label_2
_geom_bond_distance
_geom_bond_site_symmetry_2
_ccdc_geom_bond_type
O0 Cd1 2.223 . S
O0 C8 1.315 . S
Cd1 O0 2.223 . S
Cd1 O4 2.297 1_455 S
Cd1 O5 2.439 1_455 S
Cd1 O11 2.240 . S
Cd2 O3 2.240 . S
Cd2 O10 2.223 . S
Cd2 O12 2.297 . S
Cd2 O13 2.439 . S
O3 Cd2 2.240 . S
O3 C8 1.279 . S
O4 Cd1 2.297 1_655 S
O4 C6 1.247 . S
O5 Cd1 2.439 1_655 S
O5 C6 1.208 . S
C6 O4 1.247 . S
C6 O5 1.208 . S
C7 O12 1.247 . S
C7 O13 1.208 . S
C8 O0 1.315 . S
C8 O3 1.279 . S
C9 O10 1.315 . S
C9 O11 1.279 . S
O10 Cd2 2.223 . S
O10 C9 1.315 . S
O11 Cd1 2.240 . S
O11 C9 1.279 . S
O12 Cd2 2.297 . S
O12 C7 1.247 . S
O13 Cd2 2.439 . S
O13 C7 1.208 . S
O14 Cd15 2.223 . S
O14 C22 1.315 . S
Cd15 O14 2.223 . S
Cd15 O18 2.297 . S
Cd15 O19 2.439 1_455 S
Cd15 O25 2.240 1_455 S
Cd16 O17 2.240 1_655 S
Cd16 O24 2.223 1_655 S
Cd16 O26 2.297 . S
Cd16 O27 2.439 . S
O17 Cd16 2.240 1_455 S
O17 C22 1.279 . S
O18 Cd15 2.297 . S
O18 C20 1.247 . S
O19 Cd15 2.439 1_655 S
O19 C20 1.208 1_655 S
C20 O18 1.247 . S
C20 O19 1.208 1_455 S
C21 O26 1.247 . S
C21 O27 1.208 . S
C22 O14 1.315 . S
C22 O17 1.279 . S
C23 O24 1.315 . S
C23 O25 1.279 1_455 S
O24 Cd16 2.223 1_455 S
O24 C23 1.315 . S
O25 Cd15 2.240 1_655 S
O25 C23 1.279 1_655 S
O26 Cd16 2.297 . S
O26 C21 1.247 . S
O27 Cd16 2.439 . S
O27 C21 1.208 . S
O28 Cd29 2.223 . S
O28 C36 1.315 . S
Cd29 O28 2.223 . S
Cd29 O32 2.297 . S
Cd29 O33 2.439 . S
Cd29 O39 2.240 . S
Cd30 O31 2.240 . S
Cd30 O38 2.223 . S
Cd30 O40 2.297 . S
Cd30 O41 2.439 . S
O31 Cd30 2.240 . S
O31 C36 1.279 . S
O32 Cd29 2.297 . S
O32 C34 1.247 . S
O33 Cd29 2.439 . S
O33 C34 1.208 . S
C34 O32 1.247 . S
C34 O33 1.208 . S
C35 O40 1.247 . S
C35 O41 1.208 . S
C36 O28 1.315 . S
C36 O31 1.279 . S
C37 O38 1.315 . S
C37 O39 1.279 . S
O38 Cd30 2.223 . S
O38 C37 1.315 . S
O39 Cd29 2.240 . S
O39 C37 1.279 . S
O40 Cd30 2.297 . S
O40 C35 1.247 . S
O41 Cd30 2.439 . S
O41 C35 1.208 . S
O42 Cd43 2.223 . S
O42 C50 1.315 . S
Cd43 O42 2.223 . S
Cd43 O46 2.297 . S
Cd43 O47 2.439 . S
Cd43 O53 2.240 . S
Cd44 O45 2.240 . S
Cd44 O52 2.223 . S
Cd44 O54 2.297 . S
Cd44 O55 2.439 . S
O45 Cd44 2.240 . S
O45 C50 1.279 . S
O46 Cd43 2.297 . S
O46 C48 1.247 . S
O47 Cd43 2.439 . S
O47 C48 1.208 . S
C48 O46 1.247 . S
C48 O47 1.208 . S
C49 O54 1.247 . S
C49 O55 1.208 . S
C50 O42 1.315 . S
C50 O45 1.279 . S
C51 O52 1.315 . S
C51 O53 1.279 . S
O52 Cd44 2.223 . S
O52 C51 1.315 . S
O53 Cd43 2.240 . S
O53 C51 1.279 . S
O54 Cd44 2.297 . S
O54 C49 1.247 . S
O55 Cd44 2.439 . S
O55 C49 1.208 . S
O56 Cd57 2.223 . S
O56 C64 1.315 . S
Cd57 O56 2.223 . S
Cd57 O60 2.297 1_545 S
Cd57 O61 2.439 1_545 S
Cd57 O67 2.240 . S
Cd58 O59 2.240 . S
Cd58 O66 2.223 . S
Cd58 O68 2.297 . S
Cd58 O69 2.439 . S
O59 Cd58 2.240 . S
O59 C64 1.279 . S
O60 Cd57 2.297 1_565 S
O60 C62 1.247 . S
O61 Cd57 2.439 1_565 S
O61 C62 1.208 . S
C62 O60 1.247 . S
C62 O61 1.208 . S
C63 O68 1.247 . S
C63 O69 1.208 . S
C64 O56 1.315 . S
C64 O59 1.279 . S
C65 O66 1.315 . S
C65 O67 1.279 . S
O66 Cd58 2.223 . S
O66 C65 1.315 . S
O67 Cd57 2.240 . S
O67 C65 1.279 . S
O68 Cd58 2.297 . S
O68 C63 1.247 . S
O69 Cd58 2.439 . S
O69 C63 1.208 . S
O70 Cd71 2.223 . S
O70 C78 1.315 . S
Cd71 O70 2.223 . S
Cd71 O74 2.297 . S
Cd71 O75 2.439 . S
Cd71 O81 2.240 . S
Cd72 O73 2.240 . S
Cd72 O80 2.223 . S
Cd72 O82 2.297 . S
Cd72 O83 2.439 . S
O73 Cd72 2.240 . S
O73 C78 1.279 . S
O74 Cd71 2.297 . S
O74 C76 1.247 . S
O75 Cd71 2.439 . S
O75 C76 1.208 . S
C76 O74 1.247 . S
C76 O75 1.208 . S
C77 O82 1.247 . S
C77 O83 1.208 . S
C78 O70 1.315 . S
C78 O73 1.279 . S
C79 O80 1.315 . S
C79 O81 1.279 . S
O80 Cd72 2.223 . S
O80 C79 1.315 . S
O81 Cd71 2.240 . S
O81 C79 1.279 . S
O82 Cd72 2.297 . S
O82 C77 1.247 . S
O83 Cd72 2.439 . S
O83 C77 1.208 . S
O84 Cd85 2.223 . S
O84 C92 1.315 . S
Cd85 O84 2.223 . S
Cd85 O88 2.297 . S
Cd85 O89 2.439 . S
Cd85 O95 2.240 1_545 S
Cd86 O87 2.240 1_565 S
Cd86 O94 2.223 . S
Cd86 O96 2.297 . S
Cd86 O97 2.439 1_565 S
O87 Cd86 2.240 1_545 S
O87 C92 1.279 . S
O88 Cd85 2.297 . S
O88 C90 1.247 . S
O89 Cd85 2.439 . S
O89 C90 1.208 . S
C90 O88 1.247 . S
C90 O89 1.208 . S
C91 O96 1.222 1_545 S
C91 O97 1.231 . S
C92 O84 1.315 . S
C92 O87 1.279 . S
C93 O94 1.315 . S
C93 O95 1.279 . S
O94 Cd86 2.223 . S
O94 C93 1.315 . S
O95 Cd85 2.240 1_565 S
O95 C93 1.279 . S
O96 Cd86 2.297 . S
O96 C91 1.222 1_565 S
O97 Cd86 2.439 1_545 S
O97 C91 1.231 . S
O98 Cd99 2.223 . S
O98 C106 1.315 . S
Cd99 O98 2.223 . S
Cd99 O102 2.297 . S
Cd99 O103 2.439 . S
Cd99 O109 2.259 . S
Cd100 O101 2.205 1_556 S
Cd100 O108 2.209 1_556 S
Cd100 O110 2.339 . S
Cd100 O111 2.476 . S
O101 Cd100 2.205 1_554 S
O101 C106 1.279 . S
O102 Cd99 2.297 . S
O102 C104 1.247 . S
O103 Cd99 2.439 . S
O103 C104 1.208 . S
C104 O102 1.247 . S
C104 O103 1.208 . S
C105 O110 1.247 . S
C105 O111 1.208 . S
C106 O98 1.315 . S
C106 O101 1.279 . S
C107 O108 1.315 . S
C107 O109 1.293 . S
O108 Cd100 2.209 1_554 S
O108 C107 1.315 . S
O109 Cd99 2.259 . S
O109 C107 1.293 . S
O110 Cd100 2.339 . S
O110 C105 1.247 . S
O111 Cd100 2.476 . S
O111 C105 1.208 . S
O112 Cd113 2.223 . S
O112 C120 1.315 . S
Cd113 O112 2.223 . S
Cd113 O116 2.297 . S
Cd113 O117 2.439 . S
Cd113 O123 2.240 . S
Cd114 O115 2.240 . S
Cd114 O122 2.223 . S
Cd114 O124 2.297 1_554 S
Cd114 O125 2.439 1_554 S
O115 Cd114 2.240 . S
O115 C120 1.279 . S
O116 Cd113 2.297 . S
O116 C118 1.247 . S
O117 Cd113 2.439 . S
O117 C118 1.208 . S
C118 O116 1.247 . S
C118 O117 1.208 . S
C119 O124 1.247 . S
C119 O125 1.208 . S
C120 O112 1.315 . S
C120 O115 1.279 . S
C121 O122 1.315 . S
C121 O123 1.279 . S
O122 Cd114 2.223 . S
O122 C121 1.315 . S
O123 Cd113 2.240 . S
O123 C121 1.279 . S
O124 Cd114 2.297 1_556 S
O124 C119 1.247 . S
O125 Cd114 2.439 1_556 S
O125 C119 1.208 . S
O126 Cd127 2.223 . S
O126 C134 1.315 . S
Cd127 O126 2.223 . S
Cd127 O130 2.297 . S
Cd127 O131 2.439 . S
Cd127 O137 2.240 . S
Cd128 O129 2.240 . S
Cd128 O136 2.223 . S
Cd128 O138 2.297 . S
Cd128 O139 2.439 . S
O129 Cd128 2.240 . S
O129 C134 1.279 . S
O130 Cd127 2.297 . S
O130 C132 1.247 . S
O131 Cd127 2.439 . S
O131 C132 1.208 . S
C132 O130 1.247 . S
C132 O131 1.208 . S
C133 O138 1.247 . S
C133 O139 1.208 . S
C134 O126 1.315 . S
C134 O129 1.279 . S
C135 O136 1.315 . S
C135 O137 1.279 . S
O136 Cd128 2.223 . S
O136 C135 1.315 . S
O137 Cd127 2.240 . S
O137 C135 1.279 . S
O138 Cd128 2.297 . S
O138 C133 1.247 . S
O139 Cd128 2.439 . S
O139 C133 1.208 . S
O140 Cd141 2.223 . S
O140 C148 1.315 . S
Cd141 O140 2.223 . S
Cd141 O144 2.297 . S
Cd141 O145 2.439 . S
Cd141 O151 2.240 . S
Cd142 O143 2.240 . S
Cd142 O150 2.223 . S
Cd142 O152 2.297 . S
Cd142 O153 2.439 . S
O143 Cd142 2.240 . S
O143 C148 1.279 . S
O144 Cd141 2.297 . S
O144 C146 1.247 . S
O145 Cd141 2.439 . S
O145 C146 1.208 . S
C146 O144 1.247 . S
C146 O145 1.208 . S
C147 O152 1.247 . S
C147 O153 1.208 . S
C148 O140 1.315 . S
C148 O143 1.279 . S
C149 O150 1.315 . S
C149 O151 1.279 . S
O150 Cd142 2.223 . S
O150 C149 1.315 . S
O151 Cd141 2.240 . S
O151 C149 1.279 . S
O152 Cd142 2.297 . S
O152 C147 1.247 . S
O153 Cd142 2.439 . S
O153 C147 1.208 . S
O154 Cd155 2.223 . S
O154 C162 1.315 . S
Cd155 O154 2.223 . S
Cd155 O158 2.297 . S
Cd155 O159 2.439 . S
Cd155 O165 2.240 . S
Cd156 O157 2.240 . S
Cd156 O164 2.223 . S
Cd156 O166 2.297 . S
Cd156 O167 2.439 . S
O157 Cd156 2.240 . S
O157 C162 1.279 . S
O158 Cd155 2.297 . S
O158 C160 1.247 . S
O159 Cd155 2.439 . S
O159 C160 1.208 . S
C160 O158 1.247 . S
C160 O159 1.208 . S
C161 O166 1.247 . S
C161 O167 1.208 . S
C162 O154 1.315 . S
C162 O157 1.279 . S
C163 O164 1.315 . S
C163 O165 1.279 . S
O164 Cd156 2.223 . S
O164 C163 1.315 . S
O165 Cd155 2.240 . S
O165 C163 1.279 . S
O166 Cd156 2.297 . S
O166 C161 1.247 . S
O167 Cd156 2.439 . S
O167 C161 1.208 . S
O168 Cd169 2.223 . S
O168 C176 1.315 . S
Cd169 O168 2.223 . S
Cd169 O172 2.297 . S
Cd169 O173 2.439 1_455 S
Cd169 O179 2.240 1_455 S
Cd170 O171 2.240 1_655 S
Cd170 O178 2.223 1_655 S
Cd170 O180 2.297 . S
Cd170 O181 2.439 . S
O171 Cd170 2.240 1_455 S
O171 C176 1.279 . S
O172 Cd169 2.297 . S
O172 C174 1.247 . S
O173 Cd169 2.439 1_655 S
O173 C174 1.208 1_655 S
C174 O172 1.247 . S
C174 O173 1.208 1_455 S
C175 O180 1.247 . S
C175 O181 1.208 . S
C176 O168 1.315 . S
C176 O171 1.279 . S
C177 O178 1.315 . S
C177 O179 1.279 1_455 S
O178 Cd170 2.223 1_455 S
O178 C177 1.315 . S
O179 Cd169 2.240 1_655 S
O179 C177 1.279 1_655 S
O180 Cd170 2.297 . S
O180 C175 1.247 . S
O181 Cd170 2.439 . S
O181 C175 1.208 . S
O182 Cd183 2.223 1_455 S
O182 C190 1.318 . S
Cd183 O182 2.223 1_655 S
Cd183 O186 2.297 . S
Cd183 O187 2.439 . S
Cd183 O193 2.240 1_655 S
Cd184 O185 2.240 1_455 S
Cd184 O192 2.223 . S
Cd184 O194 2.297 . S
Cd184 O195 2.439 1_455 S
O185 Cd184 2.240 1_655 S
O185 C190 1.270 1_655 S
O186 Cd183 2.297 . S
O186 C188 1.247 . S
O187 Cd183 2.439 . S
O187 C188 1.208 . S
C188 O186 1.247 . S
C188 O187 1.208 . S
C189 O194 1.247 . S
C189 O195 1.208 1_455 S
C190 O182 1.318 . S
C190 O185 1.270 1_455 S
C191 O192 1.315 . S
C191 O193 1.279 . S
O192 Cd184 2.223 . S
O192 C191 1.315 . S
O193 Cd183 2.240 1_455 S
O193 C191 1.279 . S
O194 Cd184 2.297 . S
O194 C189 1.247 . S
O195 Cd184 2.439 1_655 S
O195 C189 1.208 1_655 S
O196 Cd197 2.223 . S
O196 C204 1.315 . S
Cd197 O196 2.223 . S
Cd197 O200 2.297 . S
Cd197 O201 2.439 . S
Cd197 O207 2.240 . S
Cd198 O199 2.240 . S
Cd198 O206 2.223 . S
Cd198 O208 2.297 . S
Cd198 O209 2.439 . S
O199 Cd198 2.240 . S
O199 C204 1.279 . S
O200 Cd197 2.297 . S
O200 C202 1.247 . S
O201 Cd197 2.439 . S
O201 C202 1.208 . S
C202 O200 1.247 . S
C202 O201 1.208 . S
C203 O208 1.247 . S
C203 O209 1.208 . S
C204 O196 1.315 . S
C204 O199 1.279 . S
C205 O206 1.315 . S
C205 O207 1.279 . S
O206 Cd198 2.223 . S
O206 C205 1.315 . S
O207 Cd197 2.240 . S
O207 C205 1.279 . S
O208 Cd198 2.297 . S
O208 C203 1.247 . S
O209 Cd198 2.439 . S
O209 C203 1.208 . S
O210 Cd211 2.223 . S
O210 C218 1.315 . S
Cd211 O210 2.223 . S
Cd211 O214 2.297 . S
Cd211 O215 2.439 . S
Cd211 O221 2.240 . S
Cd212 O213 2.240 . S
Cd212 O220 2.223 . S
Cd212 O222 2.297 . S
Cd212 O223 2.439 . S
O213 Cd212 2.240 . S
O213 C218 1.279 . S
O214 Cd211 2.297 . S
O214 C216 1.247 . S
O215 Cd211 2.439 . S
O215 C216 1.208 . S
C216 O214 1.247 . S
C216 O215 1.208 . S
C217 O222 1.247 . S
C217 O223 1.208 . S
C218 O210 1.315 . S
C218 O213 1.279 . S
C219 O220 1.315 . S
C219 O221 1.279 . S
O220 Cd212 2.223 . S
O220 C219 1.315 . S
O221 Cd211 2.240 . S
O221 C219 1.279 . S
O222 Cd212 2.297 . S
O222 C217 1.247 . S
O223 Cd212 2.439 . S
O223 C217 1.208 . S
O224 Cd225 2.223 . S
O224 C232 1.315 . S
Cd225 O224 2.223 . S
Cd225 O228 2.297 . S
Cd225 O229 2.439 . S
Cd225 O235 2.240 1_545 S
Cd226 O227 2.240 . S
Cd226 O234 2.223 1_545 S
Cd226 O236 2.297 1_545 S
Cd226 O237 2.439 . S
O227 Cd226 2.240 . S
O227 C232 1.279 . S
O228 Cd225 2.297 . S
O228 C230 1.247 . S
O229 Cd225 2.439 . S
O229 C230 1.208 . S
C230 O228 1.247 . S
C230 O229 1.208 . S
C231 O236 1.247 1_545 S
C231 O237 1.208 . S
C232 O224 1.315 . S
C232 O227 1.279 . S
C233 O234 1.315 . S
C233 O235 1.279 . S
O234 Cd226 2.223 1_565 S
O234 C233 1.315 . S
O235 Cd225 2.240 1_565 S
O235 C233 1.279 . S
O236 Cd226 2.297 1_565 S
O236 C231 1.247 1_565 S
O237 Cd226 2.439 . S
O237 C231 1.208 . S
O238 Cd239 2.223 . S
O238 C246 1.315 . S
Cd239 O238 2.223 . S
Cd239 O242 2.297 . S
Cd239 O243 2.439 . S
Cd239 O249 2.240 . S
Cd240 O241 2.240 . S
Cd240 O248 2.223 . S
Cd240 O250 2.297 . S
Cd240 O251 2.439 . S
O241 Cd240 2.240 . S
O241 C246 1.279 . S
O242 Cd239 2.297 . S
O242 C244 1.247 . S
O243 Cd239 2.439 . S
O243 C244 1.208 . S
C244 O242 1.247 . S
C244 O243 1.208 . S
C245 O250 1.247 . S
C245 O251 1.208 . S
C246 O238 1.315 . S
C246 O241 1.279 . S
C247 O248 1.315 . S
C247 O249 1.279 . S
O248 Cd240 2.223 . S
O248 C247 1.315 . S
O249 Cd239 2.240 . S
O249 C247 1.279 . S
O250 Cd240 2.297 . S
O250 C245 1.247 . S
O251 Cd240 2.439 . S
O251 C245 1.208 . S
O252 Cd253 2.223 1_545 S
O252 C260 1.315 . S
Cd253 O252 2.223 1_565 S
Cd253 O256 2.297 . S
Cd253 O257 2.439 . S
Cd253 O263 2.240 1_565 S
Cd254 O255 2.240 1_545 S
Cd254 O262 2.223 . S
Cd254 O264 2.297 . S
Cd254 O265 2.439 1_545 S
O255 Cd254 2.240 1_565 S
O255 C260 1.279 1_565 S
O256 Cd253 2.297 . S
O256 C258 1.247 . S
O257 Cd253 2.439 . S
O257 C258 1.208 . S
C258 O256 1.247 . S
C258 O257 1.208 . S
C259 O264 1.247 . S
C259 O265 1.208 1_545 S
C260 O252 1.315 . S
C260 O255 1.279 1_545 S
C261 O262 1.315 . S
C261 O263 1.279 . S
O262 Cd254 2.223 . S
O262 C261 1.315 . S
O263 Cd253 2.240 1_545 S
O263 C261 1.279 . S
O264 Cd254 2.297 . S
O264 C259 1.247 . S
O265 Cd254 2.439 1_565 S
O265 C259 1.208 1_565 S
O266 Cd267 2.223 . S
O266 C274 1.315 . S
Cd267 O266 2.223 . S
Cd267 O270 2.297 . S
Cd267 O271 2.439 1_554 S
Cd267 O277 2.240 1_554 S
Cd268 O269 2.240 1_556 S
Cd268 O276 2.223 1_556 S
Cd268 O278 2.297 . S
Cd268 O279 2.439 . S
O269 Cd268 2.240 1_554 S
O269 C274 1.279 . S
O270 Cd267 2.297 . S
O270 C272 1.247 . S
O271 Cd267 2.439 1_556 S
O271 C272 1.208 1_556 S
C272 O270 1.247 . S
C272 O271 1.208 1_554 S
C273 O278 1.247 . S
C273 O279 1.208 . S
C274 O266 1.315 . S
C274 O269 1.279 . S
C275 O276 1.315 . S
C275 O277 1.279 1_554 S
O276 Cd268 2.223 1_554 S
O276 C275 1.315 . S
O277 Cd267 2.240 1_556 S
O277 C275 1.279 1_556 S
O278 Cd268 2.297 . S
O278 C273 1.247 . S
O279 Cd268 2.439 . S
O279 C273 1.208 . S
O280 Cd281 2.223 . S
O280 C288 1.315 . S
Cd281 O280 2.223 . S
Cd281 O284 2.297 . S
Cd281 O285 2.439 . S
Cd281 O291 2.240 . S
Cd282 O283 2.240 . S
Cd282 O290 2.223 . S
Cd282 O292 2.297 1_554 S
Cd282 O293 2.439 1_554 S
O283 Cd282 2.240 . S
O283 C288 1.279 . S
O284 Cd281 2.297 . S
O284 C286 1.247 . S
O285 Cd281 2.439 . S
O285 C286 1.208 . S
C286 O284 1.247 . S
C286 O285 1.208 . S
C287 O292 1.247 . S
C287 O293 1.208 . S
C288 O280 1.315 . S
C288 O283 1.279 . S
C289 O290 1.315 . S
C289 O291 1.279 . S
O290 Cd282 2.223 . S
O290 C289 1.315 . S
O291 Cd281 2.240 . S
O291 C289 1.279 . S
O292 Cd282 2.297 1_556 S
O292 C287 1.247 . S
O293 Cd282 2.439 1_556 S
O293 C287 1.208 . S
O294 Cd295 2.223 . S
O294 C302 1.315 . S
Cd295 O294 2.223 . S
Cd295 O298 2.297 . S
Cd295 O299 2.439 . S
Cd295 O305 2.240 . S
Cd296 O297 2.240 . S
Cd296 O304 2.223 . S
Cd296 O306 2.297 . S
Cd296 O307 2.439 . S
O297 Cd296 2.240 . S
O297 C302 1.279 . S
O298 Cd295 2.297 . S
O298 C300 1.247 . S
O299 Cd295 2.439 . S
O299 C300 1.208 . S
C300 O298 1.247 . S
C300 O299 1.208 . S
C301 O306 1.247 . S
C301 O307 1.208 . S
C302 O294 1.315 . S
C302 O297 1.279 . S
C303 O304 1.315 . S
C303 O305 1.279 . S
O304 Cd296 2.223 . S
O304 C303 1.315 . S
O305 Cd295 2.240 . S
O305 C303 1.279 . S
O306 Cd296 2.297 . S
O306 C301 1.247 . S
O307 Cd296 2.439 . S
O307 C301 1.208 . S
O308 Cd309 2.223 . S
O308 C316 1.315 . S
Cd309 O308 2.223 . S
Cd309 O312 2.297 . S
Cd309 O313 2.439 . S
Cd309 O319 2.240 . S
Cd310 O311 2.240 . S
Cd310 O318 2.223 . S
Cd310 O320 2.297 . S
Cd310 O321 2.439 . S
O311 Cd310 2.240 . S
O311 C316 1.279 . S
O312 Cd309 2.297 . S
O312 C314 1.247 . S
O313 Cd309 2.439 . S
O313 C314 1.208 . S
C314 O312 1.247 . S
C314 O313 1.208 . S
C315 O320 1.247 . S
C315 O321 1.208 . S
C316 O308 1.315 . S
C316 O311 1.279 . S
C317 O318 1.315 . S
C317 O319 1.279 . S
O318 Cd310 2.223 . S
O318 C317 1.315 . S
O319 Cd309 2.240 . S
O319 C317 1.279 . S
O320 Cd310 2.297 . S
O320 C315 1.247 . S
O321 Cd310 2.439 . S
O321 C315 1.208 . S
O322 Cd323 2.223 . S
O322 C330 1.315 . S
Cd323 O322 2.223 . S
Cd323 O326 2.297 . S
Cd323 O327 2.439 . S
Cd323 O333 2.240 . S
Cd324 O325 2.240 . S
Cd324 O332 2.223 . S
Cd324 O334 2.297 . S
Cd324 O335 2.439 . S
O325 Cd324 2.240 . S
O325 C330 1.279 . S
O326 Cd323 2.297 . S
O326 C328 1.247 . S
O327 Cd323 2.439 . S
O327 C328 1.208 . S
C328 O326 1.247 . S
C328 O327 1.208 . S
C329 O334 1.247 . S
C329 O335 1.208 . S
C330 O322 1.315 . S
C330 O325 1.279 . S
C331 O332 1.315 . S
C331 O333 1.279 . S
O332 Cd324 2.223 . S
O332 C331 1.315 . S
O333 Cd323 2.240 . S
O333 C331 1.279 . S
O334 Cd324 2.297 . S
O334 C329 1.247 . S
O335 Cd324 2.439 . S
O335 C329 1.208 . S
O336 Zn337 1.953 . S
O336 C352 1.191 1_455 S
Zn337 O336 1.953 . S
Zn337 O338 1.970 . S
Zn337 O344 1.919 . S
Zn337 O349 1.924 1_554 S
O338 Zn337 1.970 . S
O338 Zn339 1.908 1_545 S
O338 Zn340 1.956 1_455 S
O338 Zn341 1.933 1_445 S
Zn339 O338 1.908 1_565 S
Zn339 O342 1.933 . S
Zn339 O345 1.960 . S
Zn339 O346 1.965 . S
Zn340 O338 1.956 1_655 S
Zn340 O347 1.938 1_655 S
Zn340 O348 1.906 1_545 S
Zn340 O358 1.953 . S
Zn341 O338 1.933 1_665 S
Zn341 O343 1.932 1_654 S
Zn341 O350 1.977 . S
Zn341 O351 1.910 1_564 S
O342 Zn339 1.933 . S
O342 C353 1.226 . S
O343 Zn341 1.932 1_456 S
O343 C353 1.307 1_556 S
O344 Zn337 1.919 . S
O344 C355 1.253 . S
O345 Zn339 1.960 . S
O345 C355 1.254 1_565 S
O346 Zn339 1.965 . S
O346 C354 1.303 . S
O347 Zn340 1.938 1_455 S
O347 C354 1.247 1_545 S
O348 Zn340 1.906 1_565 S
O348 C356 1.304 . S
O349 Zn337 1.924 1_556 S
O349 C357 1.311 1_455 S
O350 Zn341 1.977 . S
O350 C356 1.272 . S
O351 Zn341 1.910 1_546 S
O351 C357 1.231 . S
C352 O336 1.191 1_655 S
C352 O358 1.324 . S
C353 O342 1.226 . S
C353 O343 1.307 1_554 S
C354 O346 1.303 . S
C354 O347 1.247 1_565 S
C355 O344 1.253 . S
C355 O345 1.254 1_545 S
C356 O348 1.304 . S
C356 O350 1.272 . S
C357 O349 1.311 1_655 S
C357 O351 1.231 . S
O358 Zn340 1.953 . S
O358 C352 1.324 . S
O359 Zn360 1.953 . S
O359 C375 1.225 . S
Zn360 O359 1.953 . S
Zn360 O361 1.949 . S
Zn360 O367 1.919 . S
Zn360 O372 1.924 . S
O361 Zn360 1.949 . S
O361 Zn362 1.923 . S
O361 Zn363 1.950 . S
O361 Zn364 1.945 . S
Zn362 O361 1.923 . S
Zn362 O365 1.933 . S
Zn362 O368 1.941 . S
Zn362 O369 1.965 . S
Zn363 O361 1.950 . S
Zn363 O370 1.938 . S
Zn363 O371 1.906 . S
Zn363 O381 1.953 . S
Zn364 O361 1.945 . S
Zn364 O366 1.932 . S
Zn364 O373 1.977 . S
Zn364 O374 1.910 . S
O365 Zn362 1.933 . S
O365 C376 1.226 . S
O366 Zn364 1.932 . S
O366 C376 1.307 . S
O367 Zn360 1.919 . S
O367 C378 1.253 . S
O368 Zn362 1.941 . S
O368 C378 1.283 . S
O369 Zn362 1.965 . S
O369 C377 1.303 . S
O370 Zn363 1.938 . S
O370 C377 1.247 . S
O371 Zn363 1.906 . S
O371 C379 1.304 . S
O372 Zn360 1.924 . S
O372 C380 1.311 . S
O373 Zn364 1.977 . S
O373 C379 1.272 . S
O374 Zn364 1.910 . S
O374 C380 1.231 . S
C375 O359 1.225 . S
C375 O381 1.298 . S
C376 O365 1.226 . S
C376 O366 1.307 . S
C377 O369 1.303 . S
C377 O370 1.247 . S
C378 O367 1.253 . S
C378 O368 1.283 . S
C379 O371 1.304 . S
C379 O373 1.272 . S
C380 O372 1.311 . S
C380 O374 1.231 . S
O381 Zn363 1.953 . S
O381 C375 1.298 . S
O382 Zn383 1.953 . S
O382 C398 1.225 . S
Zn383 O382 1.953 . S
Zn383 O384 1.949 1_565 S
Zn383 O390 1.919 . S
Zn383 O395 1.924 . S
O384 Zn383 1.949 1_545 S
O384 Zn385 1.923 . S
O384 Zn386 1.950 . S
O384 Zn387 1.945 . S
Zn385 O384 1.923 . S
Zn385 O388 1.933 . S
Zn385 O391 1.941 . S
Zn385 O392 1.965 . S
Zn386 O384 1.950 . S
Zn386 O393 1.938 . S
Zn386 O394 1.906 . S
Zn386 O404 1.953 1_545 S
Zn387 O384 1.945 . S
Zn387 O389 1.932 . S
Zn387 O396 1.977 . S
Zn387 O397 1.910 . S
O388 Zn385 1.933 . S
O388 C399 1.226 . S
O389 Zn387 1.932 . S
O389 C399 1.307 . S
O390 Zn383 1.919 . S
O390 C401 1.253 1_565 S
O391 Zn385 1.941 . S
O391 C401 1.283 . S
O392 Zn385 1.965 . S
O392 C400 1.303 . S
O393 Zn386 1.938 . S
O393 C400 1.247 . S
O394 Zn386 1.906 . S
O394 C402 1.304 . S
O395 Zn383 1.924 . S
O395 C403 1.311 . S
O396 Zn387 1.977 . S
O396 C402 1.272 . S
O397 Zn387 1.910 . S
O397 C403 1.231 1_545 S
C398 O382 1.225 . S
C398 O404 1.298 . S
C399 O388 1.226 . S
C399 O389 1.307 . S
C400 O392 1.303 . S
C400 O393 1.247 . S
C401 O390 1.253 1_545 S
C401 O391 1.283 . S
C402 O394 1.304 . S
C402 O396 1.272 . S
C403 O395 1.311 . S
C403 O397 1.231 1_565 S
O404 Zn386 1.953 1_565 S
O404 C398 1.298 . S
O405 Zn406 1.953 . S
O405 C421 1.225 . S
Zn406 O405 1.953 . S
Zn406 O407 1.949 . S
Zn406 O413 1.919 . S
Zn406 O418 1.924 . S
O407 Zn406 1.949 . S
O407 Zn408 1.923 . S
O407 Zn409 1.950 . S
O407 Zn410 1.945 . S
Zn408 O407 1.923 . S
Zn408 O411 1.933 . S
Zn408 O414 1.941 . S
Zn408 O415 1.965 . S
Zn409 O407 1.950 . S
Zn409 O416 1.938 . S
Zn409 O417 1.906 . S
Zn409 O427 1.953 . S
Zn410 O407 1.945 . S
Zn410 O412 1.932 . S
Zn410 O419 1.977 . S
Zn410 O420 1.910 . S
O411 Zn408 1.933 . S
O411 C422 1.226 . S
O412 Zn410 1.932 . S
O412 C422 1.307 . S
O413 Zn406 1.919 . S
O413 C424 1.253 . S
O414 Zn408 1.941 . S
O414 C424 1.283 . S
O415 Zn408 1.965 . S
O415 C423 1.303 . S
O416 Zn409 1.938 . S
O416 C423 1.247 . S
O417 Zn409 1.906 . S
O417 C425 1.304 . S
O418 Zn406 1.924 . S
O418 C426 1.311 . S
O419 Zn410 1.977 . S
O419 C425 1.272 . S
O420 Zn410 1.910 . S
O420 C426 1.231 . S
C421 O405 1.225 . S
C421 O427 1.298 . S
C422 O411 1.226 . S
C422 O412 1.307 . S
C423 O415 1.303 . S
C423 O416 1.247 . S
C424 O413 1.253 . S
C424 O414 1.283 . S
C425 O417 1.304 . S
C425 O419 1.272 . S
C426 O418 1.311 . S
C426 O420 1.231 . S
O427 Zn409 1.953 . S
O427 C421 1.298 . S
O428 Zn429 1.953 1_455 S
O428 C444 1.225 . S
Zn429 O428 1.953 1_655 S
Zn429 O430 1.949 1_655 S
Zn429 O436 1.919 1_545 S
Zn429 O441 1.924 . S
O430 Zn429 1.949 1_455 S
O430 Zn431 1.923 1_545 S
O430 Zn432 1.950 . S
O430 Zn433 1.945 1_455 S
Zn431 O430 1.923 1_565 S
Zn431 O434 1.923 1_455 S
Zn431 O437 1.941 . S
Zn431 O438 1.965 . S
Zn432 O430 1.950 . S
Zn432 O439 1.938 . S
Zn432 O440 1.906 . S
Zn432 O450 1.953 . S
Zn433 O430 1.945 1_655 S
Zn433 O435 1.932 . S
Zn433 O442 1.977 . S
Zn433 O443 1.910 . S
O434 Zn431 1.923 1_655 S
O434 C445 1.243 . S
O435 Zn433 1.932 . S
O435 C445 1.307 1_545 S
O436 Zn429 1.919 1_565 S
O436 C447 1.253 . S
O437 Zn431 1.941 . S
O437 C447 1.283 1_455 S
O438 Zn431 1.965 . S
O438 C446 1.314 . S
O439 Zn432 1.938 . S
O439 C446 1.226 1_545 S
O440 Zn432 1.906 . S
O440 C448 1.304 . S
O441 Zn429 1.924 . S
O441 C449 1.311 . S
O442 Zn433 1.977 . S
O442 C448 1.272 1_655 S
O443 Zn433 1.910 . S
O443 C449 1.231 . S
C444 O428 1.225 . S
C444 O450 1.298 . S
C445 O434 1.243 . S
C445 O435 1.307 1_565 S
C446 O438 1.314 . S
C446 O439 1.226 1_565 S
C447 O436 1.253 . S
C447 O437 1.283 1_655 S
C448 O440 1.304 . S
C448 O442 1.272 1_455 S
C449 O441 1.311 . S
C449 O443 1.231 . S
O450 Zn432 1.953 . S
O450 C444 1.298 . S
O451 Zn452 1.953 . S
O451 C467 1.225 . S
Zn452 O451 1.953 . S
Zn452 O453 1.949 . S
Zn452 O459 1.919 . S
Zn452 O464 1.924 . S
O453 Zn452 1.949 . S
O453 Zn454 1.923 . S
O453 Zn455 1.950 . S
O453 Zn456 1.945 . S
Zn454 O453 1.923 . S
Zn454 O457 1.933 . S
Zn454 O460 1.941 . S
Zn454 O461 1.965 . S
Zn455 O453 1.950 . S
Zn455 O462 1.938 . S
Zn455 O463 1.906 . S
Zn455 O473 1.953 . S
Zn456 O453 1.945 . S
Zn456 O458 1.932 . S
Zn456 O465 1.977 . S
Zn456 O466 1.910 . S
O457 Zn454 1.933 . S
O457 C468 1.226 . S
O458 Zn456 1.932 . S
O458 C468 1.307 . S
O459 Zn452 1.919 . S
O459 C470 1.253 . S
O460 Zn454 1.941 . S
O460 C470 1.283 . S
O461 Zn454 1.965 . S
O461 C469 1.303 . S
O462 Zn455 1.938 . S
O462 C469 1.247 . S
O463 Zn455 1.906 . S
O463 C471 1.304 . S
O464 Zn452 1.924 . S
O464 C472 1.311 . S
O465 Zn456 1.977 . S
O465 C471 1.272 . S
O466 Zn456 1.910 . S
O466 C472 1.231 . S
C467 O451 1.225 . S
C467 O473 1.298 . S
C468 O457 1.226 . S
C468 O458 1.307 . S
C469 O461 1.303 . S
C469 O462 1.247 . S
C470 O459 1.253 . S
C470 O460 1.283 . S
C471 O463 1.304 . S
C471 O465 1.272 . S
C472 O464 1.311 . S
C472 O466 1.231 . S
O473 Zn455 1.953 . S
O473 C467 1.298 . S
O474 Zn475 1.953 . S
O474 C490 1.225 . S
Zn475 O474 1.953 . S
Zn475 O476 1.949 . S
Zn475 O482 1.919 . S
Zn475 O487 1.924 . S
O476 Zn475 1.949 . S
O476 Zn477 1.923 1_545 S
O476 Zn478 1.950 . S
O476 Zn479 1.945 . S
Zn477 O476 1.923 1_565 S
Zn477 O480 1.933 1_554 S
Zn477 O483 1.941 . S
Zn477 O484 1.965 . S
Zn478 O476 1.950 . S
Zn478 O485 1.938 1_545 S
Zn478 O486 1.906 . S
Zn478 O496 1.953 . S
Zn479 O476 1.945 . S
Zn479 O481 1.932 1_554 S
Zn479 O488 1.977 . S
Zn479 O489 1.910 . S
O480 Zn477 1.933 1_556 S
O480 C491 1.226 . S
O481 Zn479 1.932 1_556 S
O481 C491 1.307 1_545 S
O482 Zn475 1.919 . S
O482 C493 1.253 1_545 S
O483 Zn477 1.941 . S
O483 C493 1.283 . S
O484 Zn477 1.965 . S
O484 C492 1.303 . S
O485 Zn478 1.938 1_565 S
O485 C492 1.247 . S
O486 Zn478 1.906 . S
O486 C494 1.304 . S
O487 Zn475 1.924 . S
O487 C495 1.311 . S
O488 Zn479 1.977 . S
O488 C494 1.272 . S
O489 Zn479 1.910 . S
O489 C495 1.231 . S
C490 O474 1.225 . S
C490 O496 1.298 . S
C491 O480 1.226 . S
C491 O481 1.307 1_565 S
C492 O484 1.303 . S
C492 O485 1.247 . S
C493 O482 1.253 1_565 S
C493 O483 1.283 . S
C494 O486 1.304 . S
C494 O488 1.272 . S
C495 O487 1.311 . S
C495 O489 1.231 . S
O496 Zn478 1.953 . S
O496 C490 1.298 . S
O497 Zn498 1.953 . S
O497 C513 1.225 . S
Zn498 O497 1.953 . S
Zn498 O499 1.949 . S
Zn498 O505 1.919 . S
Zn498 O510 1.924 . S
O499 Zn498 1.949 . S
O499 Zn500 1.923 . S
O499 Zn501 1.950 . S
O499 Zn502 1.945 . S
Zn500 O499 1.923 . S
Zn500 O503 1.933 . S
Zn500 O506 1.941 . S
Zn500 O507 1.965 . S
Zn501 O499 1.950 . S
Zn501 O508 1.938 . S
Zn501 O509 1.906 . S
Zn501 O519 1.953 . S
Zn502 O499 1.945 . S
Zn502 O504 1.932 . S
Zn502 O511 1.977 . S
Zn502 O512 1.910 . S
O503 Zn500 1.933 . S
O503 C514 1.226 . S
O504 Zn502 1.932 . S
O504 C514 1.307 . S
O505 Zn498 1.919 . S
O505 C516 1.253 . S
O506 Zn500 1.941 . S
O506 C516 1.283 . S
O507 Zn500 1.965 . S
O507 C515 1.303 . S
O508 Zn501 1.938 . S
O508 C515 1.247 . S
O509 Zn501 1.906 . S
O509 C517 1.304 . S
O510 Zn498 1.924 . S
O510 C518 1.311 . S
O511 Zn502 1.977 . S
O511 C517 1.272 . S
O512 Zn502 1.910 . S
O512 C518 1.231 . S
C513 O497 1.225 . S
C513 O519 1.298 . S
C514 O503 1.226 . S
C514 O504 1.307 . S
C515 O507 1.303 . S
C515 O508 1.247 . S
C516 O505 1.253 . S
C516 O506 1.283 . S
C517 O509 1.304 . S
C517 O511 1.272 . S
C518 O510 1.311 . S
C518 O512 1.231 . S
O519 Zn501 1.953 . S
O519 C513 1.298 . S
O520 Zn521 1.953 1_556 S
O520 C536 1.225 . S
Zn521 O520 1.953 1_554 S
Zn521 O522 1.949 . S
Zn521 O528 1.919 . S
Zn521 O533 1.923 1_554 S
O522 Zn521 1.949 . S
O522 Zn523 1.923 . S
O522 Zn524 1.950 . S
O522 Zn525 1.945 . S
Zn523 O522 1.923 . S
Zn523 O526 1.933 . S
Zn523 O529 1.941 . S
Zn523 O530 1.965 . S
Zn524 O522 1.950 . S
Zn524 O531 1.938 . S
Zn524 O532 1.906 . S
Zn524 O542 1.953 1_554 S
Zn525 O522 1.945 . S
Zn525 O527 1.932 . S
Zn525 O534 1.977 . S
Zn525 O535 1.910 . S
O526 Zn523 1.933 . S
O526 C537 1.226 . S
O527 Zn525 1.932 . S
O527 C537 1.307 . S
O528 Zn521 1.919 . S
O528 C539 1.253 . S
O529 Zn523 1.941 . S
O529 C539 1.283 . S
O530 Zn523 1.965 . S
O530 C538 1.303 . S
O531 Zn524 1.938 . S
O531 C538 1.247 . S
O532 Zn524 1.906 . S
O532 C540 1.304 . S
O533 Zn521 1.923 1_556 S
O533 C541 1.307 1_556 S
O534 Zn525 1.977 . S
O534 C540 1.272 . S
O535 Zn525 1.910 . S
O535 C541 1.231 . S
C536 O520 1.225 . S
C536 O542 1.298 . S
C537 O526 1.226 . S
C537 O527 1.307 . S
C538 O530 1.303 . S
C538 O531 1.247 . S
C539 O528 1.253 . S
C539 O529 1.283 . S
C540 O532 1.304 . S
C540 O534 1.272 . S
C541 O533 1.307 1_554 S
C541 O535 1.231 . S
O542 Zn524 1.953 1_556 S
O542 C536 1.298 . S
O543 Zn544 1.953 . S
O543 C559 1.225 . S
Zn544 O543 1.953 . S
Zn544 O545 1.949 . S
Zn544 O551 1.919 . S
Zn544 O556 1.924 . S
O545 Zn544 1.949 . S
O545 Zn546 1.923 . S
O545 Zn547 1.950 . S
O545 Zn548 1.945 . S
Zn546 O545 1.923 . S
Zn546 O549 1.933 . S
Zn546 O552 1.941 . S
Zn546 O553 1.965 . S
Zn547 O545 1.950 . S
Zn547 O554 1.938 . S
Zn547 O555 1.906 . S
Zn547 O565 1.953 . S
Zn548 O545 1.945 . S
Zn548 O550 1.932 . S
Zn548 O557 1.977 . S
Zn548 O558 1.910 . S
O549 Zn546 1.933 . S
O549 C560 1.226 . S
O550 Zn548 1.932 . S
O550 C560 1.307 . S
O551 Zn544 1.919 . S
O551 C562 1.253 . S
O552 Zn546 1.941 . S
O552 C562 1.283 . S
O553 Zn546 1.965 . S
O553 C561 1.303 . S
O554 Zn547 1.938 . S
O554 C561 1.247 . S
O555 Zn547 1.906 . S
O555 C563 1.304 . S
O556 Zn544 1.924 . S
O556 C564 1.311 . S
O557 Zn548 1.977 . S
O557 C563 1.272 . S
O558 Zn548 1.910 . S
O558 C564 1.231 . S
C559 O543 1.225 . S
C559 O565 1.298 . S
C560 O549 1.226 . S
C560 O550 1.307 . S
C561 O553 1.303 . S
C561 O554 1.247 . S
C562 O551 1.253 . S
C562 O552 1.283 . S
C563 O555 1.304 . S
C563 O557 1.272 . S
C564 O556 1.311 . S
C564 O558 1.231 . S
O565 Zn547 1.953 . S
O565 C559 1.298 . S
O566 Zn567 1.953 . S
O566 C582 1.225 . S
Zn567 O566 1.953 . S
Zn567 O568 1.949 . S
Zn567 O574 1.919 . S
Zn567 O579 1.924 . S
O568 Zn567 1.949 . S
O568 Zn569 1.923 . S
O568 Zn570 1.950 1_455 S
O568 Zn571 1.945 1_455 S
Zn569 O568 1.923 . S
Zn569 O572 1.933 1_455 S
Zn569 O575 1.941 . S
Zn569 O576 1.965 1_455 S
Zn570 O568 1.950 1_655 S
Zn570 O577 1.938 . S
Zn570 O578 1.906 . S
Zn570 O588 1.953 1_655 S
Zn571 O568 1.945 1_655 S
Zn571 O573 1.932 . S
Zn571 O580 1.977 . S
Zn571 O581 1.910 1_655 S
O572 Zn569 1.933 1_655 S
O572 C583 1.226 . S
O573 Zn571 1.932 . S
O573 C583 1.307 . S
O574 Zn567 1.919 . S
O574 C585 1.253 . S
O575 Zn569 1.941 . S
O575 C585 1.283 . S
O576 Zn569 1.965 1_655 S
O576 C584 1.303 . S
O577 Zn570 1.938 . S
O577 C584 1.247 . S
O578 Zn570 1.906 . S
O578 C586 1.304 . S
O579 Zn567 1.924 . S
O579 C587 1.311 . S
O580 Zn571 1.977 . S
O580 C586 1.272 . S
O581 Zn571 1.910 1_455 S
O581 C587 1.231 . S
C582 O566 1.225 . S
C582 O588 1.298 . S
C583 O572 1.226 . S
C583 O573 1.307 . S
C584 O576 1.303 . S
C584 O577 1.247 . S
C585 O574 1.253 . S
C585 O575 1.283 . S
C586 O578 1.304 . S
C586 O580 1.272 . S
C587 O579 1.311 . S
C587 O581 1.231 . S
O588 Zn570 1.953 1_455 S
O588 C582 1.298 . S
O589 Zn590 1.953 . S
O589 C605 1.225 . S
Zn590 O589 1.953 . S
Zn590 O591 1.949 . S
Zn590 O597 1.919 . S
Zn590 O602 1.924 . S
O591 Zn590 1.949 . S
O591 Zn592 1.923 . S
O591 Zn593 1.950 . S
O591 Zn594 1.945 . S
Zn592 O591 1.923 . S
Zn592 O595 1.933 . S
Zn592 O598 1.941 . S
Zn592 O599 1.965 . S
Zn593 O591 1.950 . S
Zn593 O600 1.938 . S
Zn593 O601 1.906 . S
Zn593 O611 1.953 . S
Zn594 O591 1.945 . S
Zn594 O596 1.932 . S
Zn594 O603 1.977 . S
Zn594 O604 1.910 . S
O595 Zn592 1.933 . S
O595 C606 1.226 . S
O596 Zn594 1.932 . S
O596 C606 1.307 . S
O597 Zn590 1.919 . S
O597 C608 1.253 . S
O598 Zn592 1.941 . S
O598 C608 1.283 . S
O599 Zn592 1.965 . S
O599 C607 1.303 . S
O600 Zn593 1.938 . S
O600 C607 1.247 . S
O601 Zn593 1.906 . S
O601 C609 1.304 . S
O602 Zn590 1.924 . S
O602 C610 1.311 . S
O603 Zn594 1.977 . S
O603 C609 1.272 . S
O604 Zn594 1.910 . S
O604 C610 1.231 . S
C605 O589 1.225 . S
C605 O611 1.298 . S
C606 O595 1.226 . S
C606 O596 1.307 . S
C607 O599 1.303 . S
C607 O600 1.247 . S
C608 O597 1.253 . S
C608 O598 1.283 . S
C609 O601 1.304 . S
C609 O603 1.272 . S
C610 O602 1.311 . S
C610 O604 1.231 . S
O611 Zn593 1.953 . S
O611 C605 1.298 . S
O612 Zn613 1.953 . S
O612 C628 1.225 . S
Zn613 O612 1.953 . S
Zn613 O614 1.949 . S
Zn613 O620 1.919 . S
Zn613 O625 1.924 . S
O614 Zn613 1.949 . S
O614 Zn615 1.923 . S
O614 Zn616 1.950 . S
O614 Zn617 1.945 . S
Zn615 O614 1.923 . S
Zn615 O618 1.933 . S
Zn615 O621 1.941 . S
Zn615 O622 1.965 . S
Zn616 O614 1.950 . S
Zn616 O623 1.938 . S
Zn616 O624 1.906 . S
Zn616 O634 1.953 . S
Zn617 O614 1.945 . S
Zn617 O619 1.932 . S
Zn617 O626 1.977 . S
Zn617 O627 1.910 . S
O618 Zn615 1.933 . S
O618 C629 1.226 . S
O619 Zn617 1.932 . S
O619 C629 1.307 . S
O620 Zn613 1.919 . S
O620 C631 1.253 . S
O621 Zn615 1.941 . S
O621 C631 1.283 . S
O622 Zn615 1.965 . S
O622 C630 1.303 . S
O623 Zn616 1.938 . S
O623 C630 1.247 . S
O624 Zn616 1.906 . S
O624 C632 1.304 . S
O625 Zn613 1.924 . S
O625 C633 1.311 . S
O626 Zn617 1.977 . S
O626 C632 1.272 . S
O627 Zn617 1.910 . S
O627 C633 1.231 . S
C628 O612 1.225 . S
C628 O634 1.298 . S
C629 O618 1.226 . S
C629 O619 1.307 . S
C630 O622 1.303 . S
C630 O623 1.247 . S
C631 O620 1.253 . S
C631 O621 1.283 . S
C632 O624 1.304 . S
C632 O626 1.272 . S
C633 O625 1.311 . S
C633 O627 1.231 . S
O634 Zn616 1.953 . S
O634 C628 1.298 . S
O635 Zn636 1.953 . S
O635 C651 1.225 . S
Zn636 O635 1.953 . S
Zn636 O637 1.949 . S
Zn636 O643 1.919 . S
Zn636 O648 1.924 . S
O637 Zn636 1.949 . S
O637 Zn638 1.923 . S
O637 Zn639 1.950 . S
O637 Zn640 1.945 . S
Zn638 O637 1.923 . S
Zn638 O641 1.933 . S
Zn638 O644 1.941 . S
Zn638 O645 1.965 . S
Zn639 O637 1.950 . S
Zn639 O646 1.938 . S
Zn639 O647 1.906 . S
Zn639 O657 1.953 . S
Zn640 O637 1.945 . S
Zn640 O642 1.932 . S
Zn640 O649 1.977 . S
Zn640 O650 1.910 . S
O641 Zn638 1.933 . S
O641 C652 1.226 . S
O642 Zn640 1.932 . S
O642 C652 1.307 . S
O643 Zn636 1.919 . S
O643 C654 1.253 . S
O644 Zn638 1.941 . S
O644 C654 1.283 . S
O645 Zn638 1.965 . S
O645 C653 1.303 . S
O646 Zn639 1.938 . S
O646 C653 1.247 . S
O647 Zn639 1.906 . S
O647 C655 1.304 . S
O648 Zn636 1.924 . S
O648 C656 1.311 . S
O649 Zn640 1.977 . S
O649 C655 1.272 . S
O650 Zn640 1.910 . S
O650 C656 1.231 . S
C651 O635 1.225 . S
C651 O657 1.298 . S
C652 O641 1.226 . S
C652 O642 1.307 . S
C653 O645 1.303 . S
C653 O646 1.247 . S
C654 O643 1.253 . S
C654 O644 1.283 . S
C655 O647 1.304 . S
C655 O649 1.272 . S
C656 O648 1.311 . S
C656 O650 1.231 . S
O657 Zn639 1.953 . S
O657 C651 1.298 . S
O658 Zn659 1.953 . S
O658 C674 1.225 . S
Zn659 O658 1.953 . S
Zn659 O660 1.949 . S
Zn659 O666 1.919 . S
Zn659 O671 1.924 . S
O660 Zn659 1.949 . S
O660 Zn661 1.923 . S
O660 Zn662 1.950 . S
O660 Zn663 1.945 . S
Zn661 O660 1.923 . S
Zn661 O664 1.933 . S
Zn661 O667 1.941 . S
Zn661 O668 1.965 . S
Zn662 O660 1.950 . S
Zn662 O669 1.938 . S
Zn662 O670 1.906 . S
Zn662 O680 1.953 . S
Zn663 O660 1.945 . S
Zn663 O665 1.932 . S
Zn663 O672 1.977 . S
Zn663 O673 1.910 . S
O664 Zn661 1.933 . S
O664 C675 1.226 . S
O665 Zn663 1.932 . S
O665 C675 1.307 . S
O666 Zn659 1.919 . S
O666 C677 1.253 . S
O667 Zn661 1.941 . S
O667 C677 1.283 . S
O668 Zn661 1.965 . S
O668 C676 1.303 . S
O669 Zn662 1.938 . S
O669 C676 1.247 . S
O670 Zn662 1.906 . S
O670 C678 1.304 . S
O671 Zn659 1.924 . S
O671 C679 1.311 . S
O672 Zn663 1.977 . S
O672 C678 1.272 . S
O673 Zn663 1.910 . S
O673 C679 1.231 . S
C674 O658 1.225 . S
C674 O680 1.298 . S
C675 O664 1.226 . S
C675 O665 1.307 . S
C676 O668 1.303 . S
C676 O669 1.247 . S
C677 O666 1.253 . S
C677 O667 1.283 . S
C678 O670 1.304 . S
C678 O672 1.272 . S
C679 O671 1.311 . S
C679 O673 1.231 . S
O680 Zn662 1.953 . S
O680 C674 1.298 . S
O681 Zn682 1.966 . S
O681 C697 1.225 . S
Zn682 O681 1.966 . S
Zn682 O683 1.961 . S
Zn682 O689 1.879 1_455 S
Zn682 O694 1.944 1_554 S
O683 Zn682 1.961 . S
O683 Zn684 1.923 1_455 S
O683 Zn685 1.950 . S
O683 Zn686 1.945 . S
Zn684 O683 1.923 1_655 S
Zn684 O687 1.933 . S
Zn684 O690 1.941 . S
Zn684 O691 1.965 . S
Zn685 O683 1.950 . S
Zn685 O692 1.938 . S
Zn685 O693 1.906 . S
Zn685 O703 1.953 . S
Zn686 O683 1.945 . S
Zn686 O688 1.932 . S
Zn686 O695 1.977 . S
Zn686 O696 1.910 1_554 S
O687 Zn684 1.933 . S
O687 C698 1.226 . S
O688 Zn686 1.932 . S
O688 C698 1.307 1_455 S
O689 Zn682 1.879 1_655 S
O689 C700 1.253 . S
O690 Zn684 1.941 . S
O690 C700 1.283 . S
O691 Zn684 1.965 . S
O691 C699 1.303 . S
O692 Zn685 1.938 . S
O692 C699 1.247 1_455 S
O693 Zn685 1.906 . S
O693 C701 1.304 . S
O694 Zn682 1.944 1_556 S
O694 C702 1.311 . S
O695 Zn686 1.977 . S
O695 C701 1.272 . S
O696 Zn686 1.910 1_556 S
O696 C702 1.231 . S
C697 O681 1.225 . S
C697 O703 1.298 . S
C698 O687 1.226 . S
C698 O688 1.307 1_655 S
C699 O691 1.303 . S
C699 O692 1.247 1_655 S
C700 O689 1.253 . S
C700 O690 1.283 . S
C701 O693 1.304 . S
C701 O695 1.272 . S
C702 O694 1.311 . S
C702 O696 1.231 . S
O703 Zn685 1.953 . S
O703 C697 1.298 . S
H704 C710 0.930 . S
H705 C714 0.930 . S
H706 C719 0.929 . S
H707 C717 0.929 . S
H708 C712 0.929 . S
H709 C718 0.929 . S
C710 H704 0.930 . S
C710 C711 1.367 1_655 S
C710 C718 1.378 . S
C711 C710 1.367 1_455 S
C711 C719 1.433 . S
C712 H708 0.929 . S
C712 C714 1.378 . S
C712 C716 1.350 . S
C713 C716 1.463 . S
C713 C718 1.350 1_455 S
C713 N721 1.427 . S
C714 H705 0.930 . S
C714 C712 1.378 . S
C714 C715 1.367 1_455 S
C715 C714 1.367 1_655 S
C715 C717 1.433 . S
C716 C712 1.350 . S
C716 C713 1.463 . S
C716 N720 1.427 1_455 S
C717 H707 0.929 . S
C717 C715 1.433 . S
C717 N720 1.384 . S
C718 H709 0.929 . S
C718 C710 1.378 . S
C718 C713 1.350 1_655 S
C719 H706 0.929 . S
C719 C711 1.433 . S
C719 N721 1.384 . S
N720 C716 1.427 1_655 S
N720 C717 1.384 . S
N721 C713 1.427 . S
N721 C719 1.384 . S
H722 C728 0.930 . S
H723 C732 0.930 . S
H724 C737 0.929 . S
H725 C735 0.929 . S
H726 C730 0.929 . S
H727 C736 0.929 . S
C728 H722 0.930 . S
C728 C729 1.367 . S
C728 C736 1.378 . S
C729 C728 1.367 . S
C729 C737 1.433 . S
C730 H726 0.929 . S
C730 C732 1.378 . S
C730 C734 1.350 . S
C731 C734 1.463 . S
C731 C736 1.350 . S
C731 N739 1.427 . S
C732 H723 0.930 . S
C732 C730 1.378 . S
C732 C733 1.367 . S
C733 C732 1.367 . S
C733 C735 1.433 . S
C734 C730 1.350 . S
C734 C731 1.463 . S
C734 N738 1.427 . S
C735 H725 0.929 . S
C735 C733 1.433 . S
C735 N738 1.384 . S
C736 H727 0.929 . S
C736 C728 1.378 . S
C736 C731 1.350 . S
C737 H724 0.929 . S
C737 C729 1.433 . S
C737 N739 1.384 . S
N738 C734 1.427 . S
N738 C735 1.384 . S
N739 C731 1.427 . S
N739 C737 1.384 . S
H740 C746 0.930 . S
H741 C750 0.930 . S
H742 C755 0.929 . S
H743 C753 0.929 . S
H744 C748 0.929 . S
H745 C754 0.929 . S
C746 H740 0.930 . S
C746 C747 1.367 . S
C746 C754 1.378 . S
C747 C746 1.367 . S
C747 C755 1.433 . S
C748 H744 0.929 . S
C748 C750 1.378 . S
C748 C752 1.350 . S
C749 C752 1.463 . S
C749 C754 1.350 . S
C749 N757 1.427 . S
C750 H741 0.930 . S
C750 C748 1.378 . S
C750 C751 1.367 . S
C751 C750 1.367 . S
C751 C753 1.433 . S
C752 C748 1.350 . S
C752 C749 1.463 . S
C752 N756 1.427 . S
C753 H743 0.929 . S
C753 C751 1.433 . S
C753 N756 1.384 . S
C754 H745 0.929 . S
C754 C746 1.378 . S
C754 C749 1.350 . S
C755 H742 0.929 . S
C755 C747 1.433 . S
C755 N757 1.384 . S
N756 C752 1.427 . S
N756 C753 1.384 . S
N757 C749 1.427 . S
N757 C755 1.384 . S
H758 C764 0.930 . S
H759 C768 0.930 . S
H760 C773 0.929 . S
H761 C771 0.929 . S
H762 C766 0.929 . S
H763 C772 0.929 . S
C764 H758 0.930 . S
C764 C765 1.367 . S
C764 C772 1.378 . S
C765 C764 1.367 . S
C765 C773 1.433 . S
C766 H762 0.929 . S
C766 C768 1.378 . S
C766 C770 1.350 . S
C767 C770 1.463 . S
C767 C772 1.350 . S
C767 N775 1.427 . S
C768 H759 0.930 . S
C768 C766 1.378 . S
C768 C769 1.367 . S
C769 C768 1.367 . S
C769 C771 1.433 . S
C770 C766 1.350 . S
C770 C767 1.463 . S
C770 N774 1.427 . S
C771 H761 0.929 . S
C771 C769 1.433 . S
C771 N774 1.384 . S
C772 H763 0.929 . S
C772 C764 1.378 . S
C772 C767 1.350 . S
C773 H760 0.929 . S
C773 C765 1.433 . S
C773 N775 1.384 . S
N774 C770 1.427 . S
N774 C771 1.384 . S
N775 C767 1.427 . S
N775 C773 1.384 . S
H776 C782 0.930 . S
H777 C786 0.930 . S
H778 C791 0.929 . S
H779 C789 0.929 . S
H780 C784 0.929 . S
H781 C790 0.928 . S
C782 H776 0.930 . S
C782 C783 1.367 . S
C782 C790 1.378 1_455 S
C783 C782 1.367 . S
C783 C791 1.433 . S
C784 H780 0.929 . S
C784 C786 1.378 . S
C784 C788 1.350 . S
C785 C788 1.463 . S
C785 C790 1.350 . S
C785 N793 1.431 . S
C786 H777 0.930 . S
C786 C784 1.378 . S
C786 C787 1.367 . S
C787 C786 1.367 . S
C787 C789 1.433 . S
C788 C784 1.350 . S
C788 C785 1.463 . S
C788 N792 1.427 . S
C789 H779 0.929 . S
C789 C787 1.433 . S
C789 N792 1.384 . S
C790 H781 0.928 . S
C790 C782 1.378 1_655 S
C790 C785 1.350 . S
C791 H778 0.929 . S
C791 C783 1.433 . S
C791 N793 1.377 1_455 S
N792 C788 1.427 . S
N792 C789 1.384 . S
N793 C785 1.431 . S
N793 C791 1.377 1_655 S
H794 C800 0.930 . S
H795 C804 0.930 . S
H796 C809 0.929 . S
H797 C807 0.929 . S
H798 C802 0.929 . S
H799 C808 0.929 . S
C800 H794 0.930 . S
C800 C801 1.367 . S
C800 C808 1.378 . S
C801 C800 1.367 . S
C801 C809 1.433 . S
C802 H798 0.929 . S
C802 C804 1.378 . S
C802 C806 1.350 . S
C803 C806 1.463 . S
C803 C808 1.350 . S
C803 N811 1.427 . S
C804 H795 0.930 . S
C804 C802 1.378 . S
C804 C805 1.367 . S
C805 C804 1.367 . S
C805 C807 1.433 . S
C806 C802 1.350 . S
C806 C803 1.463 . S
C806 N810 1.427 . S
C807 H797 0.929 . S
C807 C805 1.433 . S
C807 N810 1.384 . S
C808 H799 0.929 . S
C808 C800 1.378 . S
C808 C803 1.350 . S
C809 H796 0.929 . S
C809 C801 1.433 . S
C809 N811 1.384 . S
N810 C806 1.427 . S
N810 C807 1.384 . S
N811 C803 1.427 . S
N811 C809 1.384 . S
H812 C818 0.930 . S
H813 C822 0.936 . S
H814 C827 0.929 . S
H815 C825 0.929 . S
H816 C820 0.929 . S
H817 C826 0.929 . S
C818 H812 0.930 . S
C818 C819 1.367 . S
C818 C826 1.378 . S
C819 C818 1.367 . S
C819 C827 1.433 . S
C820 H816 0.929 . S
C820 C822 1.367 1_556 S
C820 C824 1.350 . S
C821 C824 1.463 . S
C821 C826 1.350 . S
C821 N829 1.427 . S
C822 H813 0.936 . S
C822 C820 1.367 1_554 S
C822 C823 1.372 . S
C823 C822 1.372 . S
C823 C825 1.433 . S
C824 C820 1.350 . S
C824 C821 1.463 . S
C824 N828 1.427 . S
C825 H815 0.929 . S
C825 C823 1.433 . S
C825 N828 1.384 1_554 S
C826 H817 0.929 . S
C826 C818 1.378 . S
C826 C821 1.350 . S
C827 H814 0.929 . S
C827 C819 1.433 . S
C827 N829 1.384 . S
N828 C824 1.427 . S
N828 C825 1.384 1_556 S
N829 C821 1.427 . S
N829 C827 1.384 . S
H830 C836 0.930 . S
H831 C840 0.930 . S
H832 C845 0.929 . S
H833 C843 0.929 . S
H834 C838 0.929 . S
H835 C844 0.929 . S
C836 H830 0.930 . S
C836 C837 1.367 . S
C836 C844 1.378 . S
C837 C836 1.367 . S
C837 C845 1.433 . S
C838 H834 0.929 . S
C838 C840 1.378 . S
C838 C842 1.350 . S
C839 C842 1.463 . S
C839 C844 1.350 . S
C839 N847 1.427 . S
C840 H831 0.930 . S
C840 C838 1.378 . S
C840 C841 1.367 . S
C841 C840 1.367 . S
C841 C843 1.433 . S
C842 C838 1.350 . S
C842 C839 1.463 . S
C842 N846 1.427 . S
C843 H833 0.929 . S
C843 C841 1.433 . S
C843 N846 1.384 . S
C844 H835 0.929 . S
C844 C836 1.378 . S
C844 C839 1.350 . S
C845 H832 0.929 . S
C845 C837 1.433 . S
C845 N847 1.384 . S
N846 C842 1.427 . S
N846 C843 1.384 . S
N847 C839 1.427 . S
N847 C845 1.384 . S
H848 C854 0.930 . S
H849 C858 0.930 . S
H850 C863 0.929 . S
H851 C861 0.929 . S
H852 C856 0.929 . S
H853 C862 0.929 . S
C854 H848 0.930 . S
C854 C855 1.367 . S
C854 C862 1.378 . S
C855 C854 1.367 . S
C855 C863 1.433 . S
C856 H852 0.929 . S
C856 C858 1.378 . S
C856 C860 1.350 . S
C857 C860 1.463 . S
C857 C862 1.350 . S
C857 N865 1.427 . S
C858 H849 0.930 . S
C858 C856 1.378 . S
C858 C859 1.367 1_545 S
C859 C858 1.367 1_565 S
C859 C861 1.433 . S
C860 C856 1.350 . S
C860 C857 1.463 . S
C860 N864 1.419 1_545 S
C861 H851 0.929 . S
C861 C859 1.433 . S
C861 N864 1.387 . S
C862 H853 0.929 . S
C862 C854 1.378 . S
C862 C857 1.350 . S
C863 H850 0.929 . S
C863 C855 1.433 . S
C863 N865 1.384 . S
N864 C860 1.419 1_565 S
N864 C861 1.387 . S
N865 C857 1.427 . S
N865 C863 1.384 . S
H866 C872 0.930 . S
H867 C876 0.930 . S
H868 C881 0.929 . S
H869 C879 0.929 . S
H870 C874 0.929 . S
H871 C880 0.929 . S
C872 H866 0.930 . S
C872 C873 1.367 . S
C872 C880 1.378 . S
C873 C872 1.367 . S
C873 C881 1.433 . S
C874 H870 0.929 . S
C874 C876 1.378 . S
C874 C878 1.350 . S
C875 C878 1.463 . S
C875 C880 1.350 . S
C875 N883 1.427 . S
C876 H867 0.930 . S
C876 C874 1.378 . S
C876 C877 1.367 . S
C877 C876 1.367 . S
C877 C879 1.433 . S
C878 C874 1.350 . S
C878 C875 1.463 . S
C878 N882 1.427 . S
C879 H869 0.929 . S
C879 C877 1.433 . S
C879 N882 1.384 . S
C880 H871 0.929 . S
C880 C872 1.378 . S
C880 C875 1.350 . S
C881 H868 0.929 . S
C881 C873 1.433 . S
C881 N883 1.384 . S
N882 C878 1.427 . S
N882 C879 1.384 . S
N883 C875 1.427 . S
N883 C881 1.384 . S
H884 C890 0.930 . S
H885 C894 0.930 . S
H886 C899 0.929 . S
H887 C897 0.929 . S
H888 C892 0.929 . S
H889 C898 0.929 . S
C890 H884 0.930 . S
C890 C891 1.367 . S
C890 C898 1.378 . S
C891 C890 1.367 . S
C891 C899 1.433 1_545 S
C892 H888 0.929 . S
C892 C894 1.378 . S
C892 C896 1.350 . S
C893 C896 1.463 . S
C893 C898 1.350 . S
C893 N901 1.427 . S
C894 H885 0.930 . S
C894 C892 1.378 . S
C894 C895 1.367 . S
C895 C894 1.367 . S
C895 C897 1.433 . S
C896 C892 1.350 . S
C896 C893 1.463 . S
C896 N900 1.427 . S
C897 H887 0.929 . S
C897 C895 1.433 . S
C897 N900 1.384 . S
C898 H889 0.929 . S
C898 C890 1.378 . S
C898 C893 1.350 . S
C899 H886 0.929 . S
C899 C891 1.433 1_565 S
C899 N901 1.384 1_565 S
N900 C896 1.427 . S
N900 C897 1.384 . S
N901 C893 1.427 . S
N901 C899 1.384 1_545 S
H902 C908 0.930 . S
H903 C912 0.930 . S
H904 C917 0.929 . S
H905 C915 0.929 . S
H906 C910 0.929 . S
H907 C916 0.929 . S
C908 H902 0.930 . S
C908 C909 1.367 . S
C908 C916 1.378 . S
C909 C908 1.367 . S
C909 C917 1.433 . S
C910 H906 0.929 . S
C910 C912 1.378 . S
C910 C914 1.350 . S
C911 C914 1.463 . S
C911 C916 1.350 . S
C911 N919 1.427 . S
C912 H903 0.930 . S
C912 C910 1.378 . S
C912 C913 1.367 . S
C913 C912 1.367 . S
C913 C915 1.433 . S
C914 C910 1.350 . S
C914 C911 1.463 . S
C914 N918 1.427 . S
C915 H905 0.929 . S
C915 C913 1.433 . S
C915 N918 1.384 . S
C916 H907 0.929 . S
C916 C908 1.378 . S
C916 C911 1.350 . S
C917 H904 0.929 . S
C917 C909 1.433 . S
C917 N919 1.384 . S
N918 C914 1.427 . S
N918 C915 1.384 . S
N919 C911 1.427 . S
N919 C917 1.384 . S
H920 C926 0.930 . S
H921 C930 0.930 1_565 S
H922 C935 0.929 1_565 S
H923 C933 0.929 . S
H924 C928 0.929 1_565 S
H925 C934 0.929 . S
C926 H920 0.930 . S
C926 C927 1.367 . S
C926 C934 1.378 . S
C927 C926 1.367 . S
C927 C935 1.433 . S
C928 H924 0.929 1_545 S
C928 C930 1.378 . S
C928 C932 1.350 . S
C929 C932 1.463 . S
C929 C934 1.350 . S
C929 N937 1.427 . S
C930 H921 0.930 1_545 S
C930 C928 1.378 . S
C930 C931 1.367 . S
C931 C930 1.367 . S
C931 C933 1.433 . S
C932 C928 1.350 . S
C932 C929 1.463 . S
C932 N936 1.427 . S
C933 H923 0.929 . S
C933 C931 1.433 . S
C933 N936 1.384 . S
C934 H925 0.929 . S
C934 C926 1.378 . S
C934 C929 1.350 . S
C935 H922 0.929 1_545 S
C935 C927 1.433 . S
C935 N937 1.384 . S
N936 C932 1.427 . S
N936 C933 1.384 . S
N937 C929 1.427 . S
N937 C935 1.384 . S
H938 C944 0.930 . S
H939 C948 0.930 . S
H940 C953 0.929 . S
H941 C951 0.929 . S
H942 C946 0.929 . S
H943 C952 0.929 . S
C944 H938 0.930 . S
C944 C945 1.367 . S
C944 C952 1.378 . S
C945 C944 1.367 . S
C945 C953 1.433 . S
C946 H942 0.929 . S
C946 C948 1.378 . S
C946 C950 1.350 . S
C947 C950 1.463 . S
C947 C952 1.350 . S
C947 N955 1.427 . S
C948 H939 0.930 . S
C948 C946 1.378 . S
C948 C949 1.367 . S
C949 C948 1.367 . S
C949 C951 1.433 . S
C950 C946 1.350 . S
C950 C947 1.463 . S
C950 N954 1.427 . S
C951 H941 0.929 . S
C951 C949 1.433 . S
C951 N954 1.384 . S
C952 H943 0.929 . S
C952 C944 1.378 . S
C952 C947 1.350 . S
C953 H940 0.929 . S
C953 C945 1.433 . S
C953 N955 1.384 . S
N954 C950 1.427 . S
N954 C951 1.384 . S
N955 C947 1.427 . S
N955 C953 1.384 . S
H956 C962 0.930 . S
H957 C966 0.930 . S
H958 C971 0.929 . S
H959 C969 0.929 . S
H960 C964 0.929 . S
H961 C970 0.929 . S
C962 H956 0.930 . S
C962 C963 1.367 . S
C962 C970 1.378 . S
C963 C962 1.367 . S
C963 C971 1.433 1_545 S
C964 H960 0.929 . S
C964 C966 1.378 . S
C964 C968 1.350 . S
C965 C968 1.466 . S
C965 C970 1.335 1_565 S
C965 N973 1.441 . S
C966 H957 0.930 . S
C966 C964 1.378 . S
C966 C967 1.367 . S
C967 C966 1.367 . S
C967 C969 1.433 1_565 S
C968 C964 1.350 . S
C968 C965 1.466 . S
C968 N972 1.427 1_565 S
C969 H959 0.929 . S
C969 C967 1.433 1_545 S
C969 N972 1.384 . S
C970 H961 0.929 . S
C970 C962 1.378 . S
C970 C965 1.335 1_545 S
C971 H958 0.929 . S
C971 C963 1.433 1_565 S
C971 N973 1.384 . S
N972 C968 1.427 1_545 S
N972 C969 1.384 . S
N973 C965 1.441 . S
N973 C971 1.384 . S
H974 C980 0.930 . S
H975 C984 0.930 . S
H976 C989 0.929 . S
H977 C987 0.929 . S
H978 C982 0.929 . S
H979 C988 0.929 . S
C980 H974 0.930 . S
C980 C981 1.367 . S
C980 C988 1.378 . S
C981 C980 1.367 . S
C981 C989 1.433 . S
C982 H978 0.929 . S
C982 C984 1.378 . S
C982 C986 1.350 . S
C983 C986 1.463 . S
C983 C988 1.350 . S
C983 N991 1.427 . S
C984 H975 0.930 . S
C984 C982 1.378 . S
C984 C985 1.367 . S
C985 C984 1.367 . S
C985 C987 1.433 . S
C986 C982 1.350 . S
C986 C983 1.463 . S
C986 N990 1.427 . S
C987 H977 0.929 . S
C987 C985 1.433 . S
C987 N990 1.384 . S
C988 H979 0.929 . S
C988 C980 1.378 . S
C988 C983 1.350 . S
C989 H976 0.929 . S
C989 C981 1.433 . S
C989 N991 1.384 . S
N990 C986 1.427 . S
N990 C987 1.384 . S
N991 C983 1.427 . S
N991 C989 1.384 . S
H992 C998 0.930 . S
H993 C1002 0.930 . S
H994 C1007 0.929 . S
H995 C1005 0.929 . S
H996 C1000 0.929 . S
H997 C1006 0.929 . S
C998 H992 0.930 . S
C998 C999 1.367 1_556 S
C998 C1006 1.378 . S
C999 C998 1.367 1_554 S
C999 C1007 1.433 . S
C1000 H996 0.929 . S
C1000 C1002 1.378 . S
C1000 C1004 1.350 . S
C1001 C1004 1.463 . S
C1001 C1006 1.350 1_554 S
C1001 N1009 1.427 . S
C1002 H993 0.930 . S
C1002 C1000 1.378 . S
C1002 C1003 1.367 . S
C1003 C1002 1.367 . S
C1003 C1005 1.433 1_554 S
C1004 C1000 1.350 . S
C1004 C1001 1.463 . S
C1004 N1008 1.427 1_554 S
C1005 H995 0.929 . S
C1005 C1003 1.433 1_556 S
C1005 N1008 1.384 . S
C1006 H997 0.929 . S
C1006 C998 1.378 . S
C1006 C1001 1.350 1_556 S
C1007 H994 0.929 . S
C1007 C999 1.433 . S
C1007 N1009 1.384 . S
N1008 C1004 1.427 1_556 S
N1008 C1005 1.384 . S
N1009 C1001 1.427 . S
N1009 C1007 1.384 . S
H1010 C1016 0.930 . S
H1011 C1020 0.930 . S
H1012 C1025 0.929 1_556 S
H1013 C1023 0.929 . S
H1014 C1018 0.929 . S
H1015 C1024 0.929 . S
C1016 H1010 0.930 . S
C1016 C1017 1.367 . S
C1016 C1024 1.378 . S
C1017 C1016 1.367 . S
C1017 C1025 1.433 . S
C1018 H1014 0.929 . S
C1018 C1020 1.378 . S
C1018 C1022 1.350 . S
C1019 C1022 1.463 . S
C1019 C1024 1.350 . S
C1019 N1027 1.427 . S
C1020 H1011 0.930 . S
C1020 C1018 1.378 . S
C1020 C1021 1.367 . S
C1021 C1020 1.367 . S
C1021 C1023 1.433 . S
C1022 C1018 1.350 . S
C1022 C1019 1.463 . S
C1022 N1026 1.427 . S
C1023 H1013 0.929 . S
C1023 C1021 1.433 . S
C1023 N1026 1.384 . S
C1024 H1015 0.929 . S
C1024 C1016 1.378 . S
C1024 C1019 1.350 . S
C1025 H1012 0.929 1_554 S
C1025 C1017 1.433 . S
C1025 N1027 1.384 . S
N1026 C1022 1.427 . S
N1026 C1023 1.384 . S
N1027 C1019 1.427 . S
N1027 C1025 1.384 . S
H1028 C1034 0.930 . S
H1029 C1038 0.930 . S
H1030 C1043 0.929 . S
H1031 C1041 0.929 . S
H1032 C1036 0.929 . S
H1033 C1042 0.929 . S
C1034 H1028 0.930 . S
C1034 C1035 1.367 . S
C1034 C1042 1.378 . S
C1035 C1034 1.367 . S
C1035 C1043 1.433 . S
C1036 H1032 0.929 . S
C1036 C1038 1.378 . S
C1036 C1040 1.350 . S
C1037 C1040 1.463 . S
C1037 C1042 1.350 . S
C1037 N1045 1.427 . S
C1038 H1029 0.930 . S
C1038 C1036 1.378 . S
C1038 C1039 1.367 . S
C1039 C1038 1.367 . S
C1039 C1041 1.433 . S
C1040 C1036 1.350 . S
C1040 C1037 1.463 . S
C1040 N1044 1.427 . S
C1041 H1031 0.929 . S
C1041 C1039 1.433 . S
C1041 N1044 1.384 . S
C1042 H1033 0.929 . S
C1042 C1034 1.378 . S
C1042 C1037 1.350 . S
C1043 H1030 0.929 . S
C1043 C1035 1.433 . S
C1043 N1045 1.384 . S
N1044 C1040 1.427 . S
N1044 C1041 1.384 . S
N1045 C1037 1.427 . S
N1045 C1043 1.384 . S
H1046 C1052 0.930 . S
H1047 C1056 0.930 . S
H1048 C1061 0.929 . S
H1049 C1059 0.929 . S
H1050 C1054 0.929 . S
H1051 C1060 0.929 . S
C1052 H1046 0.930 . S
C1052 C1053 1.367 . S
C1052 C1060 1.378 . S
C1053 C1052 1.367 . S
C1053 C1061 1.433 . S
C1054 H1050 0.929 . S
C1054 C1056 1.378 . S
C1054 C1058 1.350 . S
C1055 C1058 1.463 . S
C1055 C1060 1.350 . S
C1055 N1063 1.427 . S
C1056 H1047 0.930 . S
C1056 C1054 1.378 . S
C1056 C1057 1.367 . S
C1057 C1056 1.367 . S
C1057 C1059 1.433 . S
C1058 C1054 1.350 . S
C1058 C1055 1.463 . S
C1058 N1062 1.427 . S
C1059 H1049 0.929 . S
C1059 C1057 1.433 . S
C1059 N1062 1.384 . S
C1060 H1051 0.929 . S
C1060 C1052 1.378 . S
C1060 C1055 1.350 . S
C1061 H1048 0.929 . S
C1061 C1053 1.433 . S
C1061 N1063 1.384 . S
N1062 C1058 1.427 . S
N1062 C1059 1.384 . S
N1063 C1055 1.427 . S
N1063 C1061 1.384 . S
H1064 C1070 0.930 . S
H1065 C1074 0.930 . S
H1066 C1079 0.929 . S
H1067 C1077 0.929 . S
H1068 C1072 0.929 . S
H1069 C1078 0.929 . S
C1070 H1064 0.930 . S
C1070 C1071 1.367 . S
C1070 C1078 1.378 . S
C1071 C1070 1.367 . S
C1071 C1079 1.433 . S
C1072 H1068 0.929 . S
C1072 C1074 1.378 . S
C1072 C1076 1.350 . S
C1073 C1076 1.463 . S
C1073 C1078 1.350 . S
C1073 N1081 1.427 . S
C1074 H1065 0.930 . S
C1074 C1072 1.378 . S
C1074 C1075 1.367 . S
C1075 C1074 1.367 . S
C1075 C1077 1.433 . S
C1076 C1072 1.350 . S
C1076 C1073 1.463 . S
C1076 N1080 1.427 . S
C1077 H1067 0.929 . S
C1077 C1075 1.433 . S
C1077 N1080 1.384 . S
C1078 H1069 0.929 . S
C1078 C1070 1.378 . S
C1078 C1073 1.350 . S
C1079 H1066 0.929 . S
C1079 C1071 1.433 . S
C1079 N1081 1.384 . S
N1080 C1076 1.427 . S
N1080 C1077 1.384 . S
N1081 C1073 1.427 . S
N1081 C1079 1.384 . S
H1082 C1088 0.930 . S
H1083 C1092 0.930 . S
H1084 C1097 0.929 . S
H1085 C1095 0.929 . S
H1086 C1090 0.929 . S
H1087 C1096 0.929 . S
C1088 H1082 0.930 . S
C1088 C1089 1.367 . S
C1088 C1096 1.378 . S
C1089 C1088 1.367 . S
C1089 C1097 1.433 . S
C1090 H1086 0.929 . S
C1090 C1092 1.378 . S
C1090 C1094 1.350 . S
C1091 C1094 1.463 . S
C1091 C1096 1.350 . S
C1091 N1099 1.427 . S
C1092 H1083 0.930 . S
C1092 C1090 1.378 . S
C1092 C1093 1.366 . S
C1093 C1092 1.366 . S
C1093 C1095 1.433 1_565 S
C1094 C1090 1.350 . S
C1094 C1091 1.463 . S
C1094 N1098 1.427 . S
C1095 H1085 0.929 . S
C1095 C1093 1.433 1_545 S
C1095 N1098 1.384 1_545 S
C1096 H1087 0.929 . S
C1096 C1088 1.378 . S
C1096 C1091 1.350 . S
C1097 H1084 0.929 . S
C1097 C1089 1.433 . S
C1097 N1099 1.384 . S
N1098 C1094 1.427 . S
N1098 C1095 1.384 1_565 S
N1099 C1091 1.427 . S
N1099 C1097 1.384 . S
H1100 C1106 0.930 . S
H1101 C1110 0.930 . S
H1102 C1115 0.929 . S
H1103 C1113 0.929 . S
H1104 C1108 0.929 . S
H1105 C1114 0.929 . S
C1106 H1100 0.930 . S
C1106 C1107 1.367 . S
C1106 C1114 1.378 . S
C1107 C1106 1.367 . S
C1107 C1115 1.433 . S
C1108 H1104 0.929 . S
C1108 C1110 1.378 . S
C1108 C1112 1.350 . S
C1109 C1112 1.463 . S
C1109 C1114 1.350 . S
C1109 N1117 1.427 . S
C1110 H1101 0.930 . S
C1110 C1108 1.378 . S
C1110 C1111 1.367 . S
C1111 C1110 1.367 . S
C1111 C1113 1.433 . S
C1112 C1108 1.350 . S
C1112 C1109 1.463 . S
C1112 N1116 1.427 . S
C1113 H1103 0.929 . S
C1113 C1111 1.433 . S
C1113 N1116 1.384 . S
C1114 H1105 0.929 . S
C1114 C1106 1.378 . S
C1114 C1109 1.350 . S
C1115 H1102 0.929 . S
C1115 C1107 1.433 . S
C1115 N1117 1.384 . S
N1116 C1112 1.427 . S
N1116 C1113 1.384 . S
N1117 C1109 1.427 . S
N1117 C1115 1.384 . S
H1118 C1124 0.930 . S
H1119 C1128 0.930 . S
H1120 C1133 0.929 . S
H1121 C1131 0.929 . S
H1122 C1126 0.929 . S
H1123 C1132 0.929 . S
C1124 H1118 0.930 . S
C1124 C1125 1.367 . S
C1124 C1132 1.378 . S
C1125 C1124 1.367 . S
C1125 C1133 1.433 . S
C1126 H1122 0.929 . S
C1126 C1128 1.378 . S
C1126 C1130 1.350 . S
C1127 C1130 1.463 . S
C1127 C1132 1.350 . S
C1127 N1135 1.427 . S
C1128 H1119 0.930 . S
C1128 C1126 1.378 . S
C1128 C1129 1.367 . S
C1129 C1128 1.367 . S
C1129 C1131 1.433 . S
C1130 C1126 1.350 . S
C1130 C1127 1.463 . S
C1130 N1134 1.427 . S
C1131 H1121 0.929 . S
C1131 C1129 1.433 . S
C1131 N1134 1.384 . S
C1132 H1123 0.929 . S
C1132 C1124 1.378 . S
C1132 C1127 1.350 . S
C1133 H1120 0.929 . S
C1133 C1125 1.433 . S
C1133 N1135 1.384 . S
N1134 C1130 1.427 . S
N1134 C1131 1.384 . S
N1135 C1127 1.427 . S
N1135 C1133 1.384 . S
H1136 C1142 0.930 . S
H1137 C1146 0.930 1_654 S
H1138 C1151 0.929 . S
H1139 C1149 0.929 . S
H1140 C1144 0.929 1_655 S
H1141 C1150 0.929 . S
C1142 H1136 0.930 . S
C1142 C1143 1.367 . S
C1142 C1150 1.378 . S
C1143 C1142 1.367 . S
C1143 C1151 1.433 1_455 S
C1144 H1140 0.929 1_455 S
C1144 C1146 1.378 . S
C1144 C1148 1.350 . S
C1145 C1148 1.463 . S
C1145 C1150 1.350 . S
C1145 N1153 1.427 1_455 S
C1146 H1137 0.930 1_456 S
C1146 C1144 1.378 . S
C1146 C1147 1.367 . S
C1147 C1146 1.367 . S
C1147 C1149 1.433 . S
C1148 C1144 1.350 . S
C1148 C1145 1.463 . S
C1148 N1152 1.427 . S
C1149 H1139 0.929 . S
C1149 C1147 1.433 . S
C1149 N1152 1.384 . S
C1150 H1141 0.929 . S
C1150 C1142 1.378 . S
C1150 C1145 1.350 . S
C1151 H1138 0.929 . S
C1151 C1143 1.433 1_655 S
C1151 N1153 1.384 . S
N1152 C1148 1.427 . S
N1152 C1149 1.384 . S
N1153 C1145 1.427 1_655 S
N1153 C1151 1.384 . S
H1154 C1160 0.930 . S
H1155 C1164 0.930 . S
H1156 C1169 0.929 . S
H1157 C1167 0.929 . S
H1158 C1162 0.929 . S
H1159 C1168 0.929 . S
C1160 H1154 0.930 . S
C1160 C1161 1.367 . S
C1160 C1168 1.378 . S
C1161 C1160 1.367 . S
C1161 C1169 1.433 . S
C1162 H1158 0.929 . S
C1162 C1164 1.378 . S
C1162 C1166 1.350 . S
C1163 C1166 1.463 . S
C1163 C1168 1.350 . S
C1163 N1171 1.427 . S
C1164 H1155 0.930 . S
C1164 C1162 1.378 . S
C1164 C1165 1.367 . S
C1165 C1164 1.367 . S
C1165 C1167 1.433 . S
C1166 C1162 1.350 . S
C1166 C1163 1.463 . S
C1166 N1170 1.427 . S
C1167 H1157 0.929 . S
C1167 C1165 1.433 . S
C1167 N1170 1.384 . S
C1168 H1159 0.929 . S
C1168 C1160 1.378 . S
C1168 C1163 1.350 . S
C1169 H1156 0.929 . S
C1169 C1161 1.433 . S
C1169 N1171 1.384 . S
N1170 C1166 1.427 . S
N1170 C1167 1.384 . S
N1171 C1163 1.427 . S
N1171 C1169 1.384 . S
H1172 C1178 0.930 . S
H1173 C1182 0.930 . S
H1174 C1187 0.929 . S
H1175 C1185 0.929 . S
H1176 C1180 0.929 . S
H1177 C1186 0.929 . S
C1178 H1172 0.930 . S
C1178 C1179 1.367 . S
C1178 C1186 1.378 . S
C1179 C1178 1.367 . S
C1179 C1187 1.433 . S
C1180 H1176 0.929 . S
C1180 C1182 1.378 . S
C1180 C1184 1.350 . S
C1181 C1184 1.463 . S
C1181 C1186 1.350 . S
C1181 N1189 1.427 . S
C1182 H1173 0.930 . S
C1182 C1180 1.378 . S
C1182 C1183 1.367 . S
C1183 C1182 1.367 . S
C1183 C1185 1.433 . S
C1184 C1180 1.350 . S
C1184 C1181 1.463 . S
C1184 N1188 1.427 . S
C1185 H1175 0.929 . S
C1185 C1183 1.433 . S
C1185 N1188 1.384 . S
C1186 H1177 0.929 . S
C1186 C1178 1.378 . S
C1186 C1181 1.350 . S
C1187 H1174 0.929 . S
C1187 C1179 1.433 . S
C1187 N1189 1.384 . S
N1188 C1184 1.427 . S
N1188 C1185 1.384 . S
N1189 C1181 1.427 . S
N1189 C1187 1.384 . S
H1190 C1196 0.930 . S
H1191 C1200 0.930 . S
H1192 C1205 0.929 . S
H1193 C1203 0.929 . S
H1194 C1198 0.929 . S
H1195 C1204 0.929 . S
C1196 H1190 0.930 . S
C1196 C1197 1.367 . S
C1196 C1204 1.378 . S
C1197 C1196 1.367 . S
C1197 C1205 1.433 . S
C1198 H1194 0.929 . S
C1198 C1200 1.378 . S
C1198 C1202 1.350 . S
C1199 C1202 1.463 . S
C1199 C1204 1.350 . S
C1199 N1207 1.427 . S
C1200 H1191 0.930 . S
C1200 C1198 1.378 . S
C1200 C1201 1.367 . S
C1201 C1200 1.367 . S
C1201 C1203 1.433 . S
C1202 C1198 1.350 . S
C1202 C1199 1.463 . S
C1202 N1206 1.427 . S
C1203 H1193 0.929 . S
C1203 C1201 1.433 . S
C1203 N1206 1.384 . S
C1204 H1195 0.929 . S
C1204 C1196 1.378 . S
C1204 C1199 1.350 . S
C1205 H1192 0.929 . S
C1205 C1197 1.433 . S
C1205 N1207 1.384 . S
N1206 C1202 1.427 . S
N1206 C1203 1.384 . S
N1207 C1199 1.427 . S
N1207 C1205 1.384 . S
H1208 C1214 0.930 . S
H1209 C1218 0.930 . S
H1210 C1223 0.929 . S
H1211 C1221 0.929 1_655 S
H1212 C1216 0.929 . S
H1213 C1222 0.929 . S
C1214 H1208 0.930 . S
C1214 C1215 1.367 1_655 S
C1214 C1222 1.378 . S
C1215 C1214 1.367 1_455 S
C1215 C1223 1.433 . S
C1216 H1212 0.929 . S
C1216 C1218 1.378 . S
C1216 C1220 1.350 . S
C1217 C1220 1.463 . S
C1217 C1222 1.350 1_455 S
C1217 N1225 1.427 . S
C1218 H1209 0.930 . S
C1218 C1216 1.378 . S
C1218 C1219 1.367 . S
C1219 C1218 1.367 . S
C1219 C1221 1.433 . S
C1220 C1216 1.350 . S
C1220 C1217 1.463 . S
C1220 N1224 1.427 . S
C1221 H1211 0.929 1_455 S
C1221 C1219 1.433 . S
C1221 N1224 1.384 . S
C1222 H1213 0.929 . S
C1222 C1214 1.378 . S
C1222 C1217 1.350 1_655 S
C1223 H1210 0.929 . S
C1223 C1215 1.433 . S
C1223 N1225 1.384 . S
N1224 C1220 1.427 . S
N1224 C1221 1.384 . S
N1225 C1217 1.427 . S
N1225 C1223 1.384 . S
H1226 C1232 0.930 . S
H1227 C1236 0.930 . S
H1228 C1241 0.929 . S
H1229 C1239 0.929 . S
H1230 C1234 0.929 . S
H1231 C1240 0.929 . S
C1232 H1226 0.930 . S
C1232 C1233 1.367 . S
C1232 C1240 1.378 . S
C1233 C1232 1.367 . S
C1233 C1241 1.433 . S
C1234 H1230 0.929 . S
C1234 C1236 1.378 . S
C1234 C1238 1.350 . S
C1235 C1238 1.463 . S
C1235 C1240 1.350 . S
C1235 N1243 1.427 . S
C1236 H1227 0.930 . S
C1236 C1234 1.378 . S
C1236 C1237 1.367 . S
C1237 C1236 1.367 . S
C1237 C1239 1.433 . S
C1238 C1234 1.350 . S
C1238 C1235 1.463 . S
C1238 N1242 1.427 . S
C1239 H1229 0.929 . S
C1239 C1237 1.433 . S
C1239 N1242 1.384 . S
C1240 H1231 0.929 . S
C1240 C1232 1.378 . S
C1240 C1235 1.350 . S
C1241 H1228 0.929 . S
C1241 C1233 1.433 . S
C1241 N1243 1.384 . S
N1242 C1238 1.427 . S
N1242 C1239 1.384 . S
N1243 C1235 1.427 . S
N1243 C1241 1.384 . S
H1244 C1250 0.930 . S
H1245 C1254 0.930 . S
H1246 C1259 0.929 . S
H1247 C1257 0.929 . S
H1248 C1252 0.929 . S
H1249 C1258 0.929 . S
C1250 H1244 0.930 . S
C1250 C1251 1.367 . S
C1250 C1258 1.378 . S
C1251 C1250 1.367 . S
C1251 C1259 1.433 . S
C1252 H1248 0.929 . S
C1252 C1254 1.378 . S
C1252 C1256 1.350 . S
C1253 C1256 1.463 . S
C1253 C1258 1.350 . S
C1253 N1261 1.427 . S
C1254 H1245 0.930 . S
C1254 C1252 1.378 . S
C1254 C1255 1.367 . S
C1255 C1254 1.367 . S
C1255 C1257 1.433 . S
C1256 C1252 1.350 . S
C1256 C1253 1.463 . S
C1256 N1260 1.427 . S
C1257 H1247 0.929 . S
C1257 C1255 1.433 . S
C1257 N1260 1.384 . S
C1258 H1249 0.929 . S
C1258 C1250 1.378 . S
C1258 C1253 1.350 . S
C1259 H1246 0.929 . S
C1259 C1251 1.433 . S
C1259 N1261 1.384 . S
N1260 C1256 1.427 . S
N1260 C1257 1.384 . S
N1261 C1253 1.427 . S
N1261 C1259 1.384 . S
H1262 C1268 0.930 . S
H1263 C1272 0.930 . S
H1264 C1277 0.929 . S
H1265 C1275 0.929 . S
H1266 C1270 0.929 . S
H1267 C1276 0.929 . S
C1268 H1262 0.930 . S
C1268 C1269 1.367 . S
C1268 C1276 1.378 . S
C1269 C1268 1.367 . S
C1269 C1277 1.433 . S
C1270 H1266 0.929 . S
C1270 C1272 1.378 . S
C1270 C1274 1.350 . S
C1271 C1274 1.463 . S
C1271 C1276 1.350 . S
C1271 N1279 1.427 . S
C1272 H1263 0.930 . S
C1272 C1270 1.378 . S
C1272 C1273 1.367 . S
C1273 C1272 1.367 . S
C1273 C1275 1.433 . S
C1274 C1270 1.350 . S
C1274 C1271 1.463 . S
C1274 N1278 1.427 . S
C1275 H1265 0.929 . S
C1275 C1273 1.433 . S
C1275 N1278 1.384 . S
C1276 H1267 0.929 . S
C1276 C1268 1.378 . S
C1276 C1271 1.350 . S
C1277 H1264 0.929 . S
C1277 C1269 1.433 . S
C1277 N1279 1.384 . S
N1278 C1274 1.427 . S
N1278 C1275 1.384 . S
N1279 C1271 1.427 . S
N1279 C1277 1.384 . S
H1280 C1286 0.930 . S
H1281 C1290 0.930 . S
H1282 C1295 0.929 . S
H1283 C1293 0.929 1_565 S
H1284 C1288 0.929 . S
H1285 C1294 0.929 . S
C1286 H1280 0.930 . S
C1286 C1287 1.367 1_565 S
C1286 C1294 1.378 . S
C1287 C1286 1.367 1_545 S
C1287 C1295 1.433 . S
C1288 H1284 0.929 . S
C1288 C1290 1.378 . S
C1288 C1292 1.350 . S
C1289 C1292 1.463 . S
C1289 C1294 1.350 1_545 S
C1289 N1297 1.427 . S
C1290 H1281 0.930 . S
C1290 C1288 1.378 . S
C1290 C1291 1.367 . S
C1291 C1290 1.367 . S
C1291 C1293 1.433 . S
C1292 C1288 1.350 . S
C1292 C1289 1.463 . S
C1292 N1296 1.427 . S
C1293 H1283 0.929 1_545 S
C1293 C1291 1.433 . S
C1293 N1296 1.384 . S
C1294 H1285 0.929 . S
C1294 C1286 1.378 . S
C1294 C1289 1.350 1_565 S
C1295 H1282 0.929 . S
C1295 C1287 1.433 . S
C1295 N1297 1.384 . S
N1296 C1292 1.427 . S
N1296 C1293 1.384 . S
N1297 C1289 1.427 . S
N1297 C1295 1.384 . S
H1298 C1304 0.930 . S
H1299 C1308 0.930 . S
H1300 C1313 0.929 . S
H1301 C1311 0.929 . S
H1302 C1306 0.929 . S
H1303 C1312 0.929 . S
C1304 H1298 0.930 . S
C1304 C1305 1.367 . S
C1304 C1312 1.378 . S
C1305 C1304 1.367 . S
C1305 C1313 1.433 . S
C1306 H1302 0.929 . S
C1306 C1308 1.378 . S
C1306 C1310 1.350 . S
C1307 C1310 1.463 . S
C1307 C1312 1.350 . S
C1307 N1315 1.427 . S
C1308 H1299 0.930 . S
C1308 C1306 1.378 . S
C1308 C1309 1.367 . S
C1309 C1308 1.367 . S
C1309 C1311 1.433 . S
C1310 C1306 1.350 . S
C1310 C1307 1.463 . S
C1310 N1314 1.427 . S
C1311 H1301 0.929 . S
C1311 C1309 1.433 . S
C1311 N1314 1.384 . S
C1312 H1303 0.929 . S
C1312 C1304 1.378 . S
C1312 C1307 1.350 . S
C1313 H1300 0.929 . S
C1313 C1305 1.433 . S
C1313 N1315 1.384 . S
N1314 C1310 1.427 . S
N1314 C1311 1.384 . S
N1315 C1307 1.427 . S
N1315 C1313 1.384 . S
H1316 C1322 0.930 . S
H1317 C1326 0.930 . S
H1318 C1331 0.929 . S
H1319 C1329 0.929 . S
H1320 C1324 0.929 . S
H1321 C1330 0.929 . S
C1322 H1316 0.930 . S
C1322 C1323 1.367 . S
C1322 C1330 1.378 . S
C1323 C1322 1.367 . S
C1323 C1331 1.433 1_545 S
C1324 H1320 0.929 . S
C1324 C1326 1.378 . S
C1324 C1328 1.350 . S
C1325 C1328 1.463 1_545 S
C1325 C1330 1.350 . S
C1325 N1333 1.427 1_545 S
C1326 H1317 0.930 . S
C1326 C1324 1.378 . S
C1326 C1327 1.367 . S
C1327 C1326 1.367 . S
C1327 C1329 1.433 1_565 S
C1328 C1324 1.350 . S
C1328 C1325 1.463 1_565 S
C1328 N1332 1.427 1_565 S
C1329 H1319 0.929 . S
C1329 C1327 1.433 1_545 S
C1329 N1332 1.384 . S
C1330 H1321 0.929 . S
C1330 C1322 1.378 . S
C1330 C1325 1.350 . S
C1331 H1318 0.929 . S
C1331 C1323 1.433 1_565 S
C1331 N1333 1.384 . S
N1332 C1328 1.427 1_545 S
N1332 C1329 1.384 . S
N1333 C1325 1.427 1_565 S
N1333 C1331 1.384 . S
H1334 C1340 0.930 . S
H1335 C1344 0.930 . S
H1336 C1349 0.929 . S
H1337 C1347 0.929 . S
H1338 C1342 0.929 . S
H1339 C1348 0.929 . S
C1340 H1334 0.930 . S
C1340 C1341 1.367 . S
C1340 C1348 1.378 . S
C1341 C1340 1.367 . S
C1341 C1349 1.433 . S
C1342 H1338 0.929 . S
C1342 C1344 1.378 . S
C1342 C1346 1.350 . S
C1343 C1346 1.463 . S
C1343 C1348 1.350 . S
C1343 N1351 1.427 . S
C1344 H1335 0.930 . S
C1344 C1342 1.378 . S
C1344 C1345 1.367 . S
C1345 C1344 1.367 . S
C1345 C1347 1.433 . S
C1346 C1342 1.350 . S
C1346 C1343 1.463 . S
C1346 N1350 1.427 . S
C1347 H1337 0.929 . S
C1347 C1345 1.433 . S
C1347 N1350 1.384 . S
C1348 H1339 0.929 . S
C1348 C1340 1.378 . S
C1348 C1343 1.350 . S
C1349 H1336 0.929 . S
C1349 C1341 1.433 . S
C1349 N1351 1.384 . S
N1350 C1346 1.427 . S
N1350 C1347 1.384 . S
N1351 C1343 1.427 . S
N1351 C1349 1.384 . S
H1352 C1358 0.930 1_565 S
H1353 C1362 0.930 . S
H1354 C1367 0.929 . S
H1355 C1365 0.929 . S
H1356 C1360 0.929 . S
H1357 C1366 0.929 . S
C1358 H1352 0.930 1_545 S
C1358 C1359 1.367 . S
C1358 C1366 1.378 1_545 S
C1359 C1358 1.367 . S
C1359 C1367 1.433 . S
C1360 H1356 0.929 . S
C1360 C1362 1.378 . S
C1360 C1364 1.350 . S
C1361 C1364 1.463 . S
C1361 C1366 1.350 1_545 S
C1361 N1369 1.427 . S
C1362 H1353 0.930 . S
C1362 C1360 1.378 . S
C1362 C1363 1.367 1_545 S
C1363 C1362 1.367 1_565 S
C1363 C1365 1.433 . S
C1364 C1360 1.350 . S
C1364 C1361 1.463 . S
C1364 N1368 1.427 1_545 S
C1365 H1355 0.929 . S
C1365 C1363 1.433 . S
C1365 N1368 1.384 . S
C1366 H1357 0.929 . S
C1366 C1358 1.378 1_565 S
C1366 C1361 1.350 1_565 S
C1367 H1354 0.929 . S
C1367 C1359 1.433 . S
C1367 N1369 1.384 . S
N1368 C1364 1.427 1_565 S
N1368 C1365 1.384 . S
N1369 C1361 1.427 . S
N1369 C1367 1.384 . S
H1370 C1376 0.930 . S
H1371 C1380 0.930 . S
H1372 C1385 0.929 . S
H1373 C1383 0.929 . S
H1374 C1378 0.929 . S
H1375 C1384 0.929 . S
C1376 H1370 0.930 . S
C1376 C1377 1.367 . S
C1376 C1384 1.378 . S
C1377 C1376 1.367 . S
C1377 C1385 1.433 . S
C1378 H1374 0.929 . S
C1378 C1380 1.378 . S
C1378 C1382 1.350 . S
C1379 C1382 1.463 . S
C1379 C1384 1.350 . S
C1379 N1387 1.427 . S
C1380 H1371 0.930 . S
C1380 C1378 1.378 . S
C1380 C1381 1.367 . S
C1381 C1380 1.367 . S
C1381 C1383 1.433 . S
C1382 C1378 1.350 . S
C1382 C1379 1.463 . S
C1382 N1386 1.427 . S
C1383 H1373 0.929 . S
C1383 C1381 1.433 . S
C1383 N1386 1.384 . S
C1384 H1375 0.929 . S
C1384 C1376 1.378 . S
C1384 C1379 1.350 . S
C1385 H1372 0.929 . S
C1385 C1377 1.433 . S
C1385 N1387 1.384 . S
N1386 C1382 1.427 . S
N1386 C1383 1.384 . S
N1387 C1379 1.427 . S
N1387 C1385 1.384 . S
H1388 C1394 0.930 . S
H1389 C1398 0.930 1_565 S
H1390 C1403 0.929 . S
H1391 C1401 0.929 . S
H1392 C1396 0.929 1_565 S
H1393 C1402 0.929 . S
C1394 H1388 0.930 . S
C1394 C1395 1.367 . S
C1394 C1402 1.378 . S
C1395 C1394 1.367 . S
C1395 C1403 1.433 1_545 S
C1396 H1392 0.929 1_545 S
C1396 C1398 1.378 . S
C1396 C1400 1.350 . S
C1397 C1400 1.463 . S
C1397 C1402 1.350 . S
C1397 N1405 1.427 1_545 S
C1398 H1389 0.930 1_545 S
C1398 C1396 1.378 . S
C1398 C1399 1.367 . S
C1399 C1398 1.367 . S
C1399 C1401 1.433 . S
C1400 C1396 1.350 . S
C1400 C1397 1.463 . S
C1400 N1404 1.427 . S
C1401 H1391 0.929 . S
C1401 C1399 1.433 . S
C1401 N1404 1.384 . S
C1402 H1393 0.929 . S
C1402 C1394 1.378 . S
C1402 C1397 1.350 . S
C1403 H1390 0.929 . S
C1403 C1395 1.433 1_565 S
C1403 N1405 1.384 . S
N1404 C1400 1.427 . S
N1404 C1401 1.384 . S
N1405 C1397 1.427 1_565 S
N1405 C1403 1.384 . S
H1406 C1412 0.930 . S
H1407 C1416 0.930 . S
H1408 C1421 0.929 . S
H1409 C1419 0.929 . S
H1410 C1414 0.929 . S
H1411 C1420 0.929 . S
C1412 H1406 0.930 . S
C1412 C1413 1.367 . S
C1412 C1420 1.378 . S
C1413 C1412 1.367 . S
C1413 C1421 1.433 . S
C1414 H1410 0.929 . S
C1414 C1416 1.378 . S
C1414 C1418 1.350 . S
C1415 C1418 1.463 . S
C1415 C1420 1.350 . S
C1415 N1423 1.427 . S
C1416 H1407 0.930 . S
C1416 C1414 1.378 . S
C1416 C1417 1.367 . S
C1417 C1416 1.367 . S
C1417 C1419 1.433 . S
C1418 C1414 1.350 . S
C1418 C1415 1.463 . S
C1418 N1422 1.427 . S
C1419 H1409 0.929 . S
C1419 C1417 1.433 . S
C1419 N1422 1.384 . S
C1420 H1411 0.929 . S
C1420 C1412 1.378 . S
C1420 C1415 1.350 . S
C1421 H1408 0.929 . S
C1421 C1413 1.433 . S
C1421 N1423 1.384 . S
N1422 C1418 1.427 . S
N1422 C1419 1.384 . S
N1423 C1415 1.427 . S
N1423 C1421 1.384 . S
H1424 C1430 0.930 . S
H1425 C1434 0.930 . S
H1426 C1439 0.929 . S
H1427 C1437 0.929 . S
H1428 C1432 0.929 1_556 S
H1429 C1438 0.929 . S
C1430 H1424 0.930 . S
C1430 C1431 1.367 . S
C1430 C1438 1.378 . S
C1431 C1430 1.367 . S
C1431 C1439 1.433 1_554 S
C1432 H1428 0.929 1_554 S
C1432 C1434 1.378 . S
C1432 C1436 1.350 . S
C1433 C1436 1.463 . S
C1433 C1438 1.350 . S
C1433 N1441 1.427 1_554 S
C1434 H1425 0.930 . S
C1434 C1432 1.378 . S
C1434 C1435 1.367 . S
C1435 C1434 1.367 . S
C1435 C1437 1.433 . S
C1436 C1432 1.350 . S
C1436 C1433 1.463 . S
C1436 N1440 1.427 . S
C1437 H1427 0.929 . S
C1437 C1435 1.433 . S
C1437 N1440 1.384 . S
C1438 H1429 0.929 . S
C1438 C1430 1.378 . S
C1438 C1433 1.350 . S
C1439 H1426 0.929 . S
C1439 C1431 1.433 1_556 S
C1439 N1441 1.384 . S
N1440 C1436 1.427 . S
N1440 C1437 1.384 . S
N1441 C1433 1.427 1_556 S
N1441 C1439 1.384 . S
H1442 C1448 0.930 . S
H1443 C1452 0.930 . S
H1444 C1457 0.929 . S
H1445 C1455 0.929 . S
H1446 C1450 0.929 . S
H1447 C1456 0.929 1_556 S
C1448 H1442 0.930 . S
C1448 C1449 1.367 . S
C1448 C1456 1.378 . S
C1449 C1448 1.367 . S
C1449 C1457 1.433 . S
C1450 H1446 0.929 . S
C1450 C1452 1.378 . S
C1450 C1454 1.350 . S
C1451 C1454 1.463 . S
C1451 C1456 1.350 . S
C1451 N1459 1.427 . S
C1452 H1443 0.930 . S
C1452 C1450 1.378 . S
C1452 C1453 1.367 . S
C1453 C1452 1.367 . S
C1453 C1455 1.433 1_554 S
C1454 C1450 1.350 . S
C1454 C1451 1.463 . S
C1454 N1458 1.421 1_554 S
C1455 H1445 0.929 . S
C1455 C1453 1.433 1_556 S
C1455 N1458 1.385 . S
C1456 H1447 0.929 1_554 S
C1456 C1448 1.378 . S
C1456 C1451 1.350 . S
C1457 H1444 0.929 . S
C1457 C1449 1.433 . S
C1457 N1459 1.384 . S
N1458 C1454 1.421 1_556 S
N1458 C1455 1.385 . S
N1459 C1451 1.427 . S
N1459 C1457 1.384 . S
H1460 C1466 0.930 . S
H1461 C1470 0.930 . S
H1462 C1475 0.929 . S
H1463 C1473 0.929 . S
H1464 C1468 0.929 . S
H1465 C1474 0.929 . S
C1466 H1460 0.930 . S
C1466 C1467 1.367 . S
C1466 C1474 1.378 . S
C1467 C1466 1.367 . S
C1467 C1475 1.433 . S
C1468 H1464 0.929 . S
C1468 C1470 1.378 . S
C1468 C1472 1.350 . S
C1469 C1472 1.463 . S
C1469 C1474 1.350 . S
C1469 N1477 1.427 . S
C1470 H1461 0.930 . S
C1470 C1468 1.378 . S
C1470 C1471 1.367 . S
C1471 C1470 1.367 . S
C1471 C1473 1.433 . S
C1472 C1468 1.350 . S
C1472 C1469 1.463 . S
C1472 N1476 1.427 . S
C1473 H1463 0.929 . S
C1473 C1471 1.433 . S
C1473 N1476 1.384 . S
C1474 H1465 0.929 . S
C1474 C1466 1.378 . S
C1474 C1469 1.350 . S
C1475 H1462 0.929 . S
C1475 C1467 1.433 . S
C1475 N1477 1.384 . S
N1476 C1472 1.427 . S
N1476 C1473 1.384 . S
N1477 C1469 1.427 . S
N1477 C1475 1.384 . S
H1478 C1484 0.930 . S
H1479 C1488 0.930 . S
H1480 C1493 0.929 . S
H1481 C1491 0.929 . S
H1482 C1486 0.929 . S
H1483 C1492 0.929 . S
C1484 H1478 0.930 . S
C1484 C1485 1.367 . S
C1484 C1492 1.378 . S
C1485 C1484 1.367 . S
C1485 C1493 1.433 . S
C1486 H1482 0.929 . S
C1486 C1488 1.378 . S
C1486 C1490 1.350 . S
C1487 C1490 1.463 . S
C1487 C1492 1.350 . S
C1487 N1495 1.427 . S
C1488 H1479 0.930 . S
C1488 C1486 1.378 . S
C1488 C1489 1.367 . S
C1489 C1488 1.367 . S
C1489 C1491 1.433 . S
C1490 C1486 1.350 . S
C1490 C1487 1.463 . S
C1490 N1494 1.427 . S
C1491 H1481 0.929 . S
C1491 C1489 1.433 . S
C1491 N1494 1.384 . S
C1492 H1483 0.929 . S
C1492 C1484 1.378 . S
C1492 C1487 1.350 . S
C1493 H1480 0.929 . S
C1493 C1485 1.433 . S
C1493 N1495 1.384 . S
N1494 C1490 1.427 . S
N1494 C1491 1.384 . S
N1495 C1487 1.427 . S
N1495 C1493 1.384 . S
H1496 C1502 0.930 . S
H1497 C1506 0.930 . S
H1498 C1511 0.929 . S
H1499 C1509 0.929 . S
H1500 C1504 0.929 . S
H1501 C1510 0.929 . S
C1502 H1496 0.930 . S
C1502 C1503 1.367 . S
C1502 C1510 1.378 . S
C1503 C1502 1.367 . S
C1503 C1511 1.433 . S
C1504 H1500 0.929 . S
C1504 C1506 1.378 . S
C1504 C1508 1.350 . S
C1505 C1508 1.463 . S
C1505 C1510 1.350 . S
C1505 N1513 1.427 . S
C1506 H1497 0.930 . S
C1506 C1504 1.378 . S
C1506 C1507 1.367 . S
C1507 C1506 1.367 . S
C1507 C1509 1.433 . S
C1508 C1504 1.350 . S
C1508 C1505 1.463 . S
C1508 N1512 1.427 . S
C1509 H1499 0.929 . S
C1509 C1507 1.433 . S
C1509 N1512 1.384 . S
C1510 H1501 0.929 . S
C1510 C1502 1.378 . S
C1510 C1505 1.350 . S
C1511 H1498 0.929 . S
C1511 C1503 1.433 . S
C1511 N1513 1.384 . S
N1512 C1508 1.427 . S
N1512 C1509 1.384 . S
N1513 C1505 1.427 . S
N1513 C1511 1.384 . S
H1514 C1520 0.930 . S
H1515 C1524 0.930 . S
H1516 C1529 0.929 . S
H1517 C1527 0.929 . S
H1518 C1522 0.929 . S
H1519 C1528 0.929 . S
C1520 H1514 0.930 . S
C1520 C1521 1.367 . S
C1520 C1528 1.378 . S
C1521 C1520 1.367 . S
C1521 C1529 1.433 . S
C1522 H1518 0.929 . S
C1522 C1524 1.378 . S
C1522 C1526 1.350 . S
C1523 C1526 1.463 . S
C1523 C1528 1.350 . S
C1523 N1531 1.427 . S
C1524 H1515 0.930 . S
C1524 C1522 1.378 . S
C1524 C1525 1.367 . S
C1525 C1524 1.367 . S
C1525 C1527 1.433 . S
C1526 C1522 1.350 . S
C1526 C1523 1.463 . S
C1526 N1530 1.427 . S
C1527 H1517 0.929 . S
C1527 C1525 1.433 . S
C1527 N1530 1.384 . S
C1528 H1519 0.929 . S
C1528 C1520 1.378 . S
C1528 C1523 1.350 . S
C1529 H1516 0.929 . S
C1529 C1521 1.433 . S
C1529 N1531 1.384 . S
N1530 C1526 1.427 . S
N1530 C1527 1.384 . S
N1531 C1523 1.427 . S
N1531 C1529 1.384 . S
H1532 C1538 0.930 . S
H1533 C1542 0.930 . S
H1534 C1547 0.929 . S
H1535 C1545 0.929 . S
H1536 C1540 0.929 . S
H1537 C1546 0.929 . S
C1538 H1532 0.930 . S
C1538 C1539 1.367 . S
C1538 C1546 1.378 . S
C1539 C1538 1.367 . S
C1539 C1547 1.433 . S
C1540 H1536 0.929 . S
C1540 C1542 1.378 . S
C1540 C1544 1.350 . S
C1541 C1544 1.463 . S
C1541 C1546 1.350 . S
C1541 N1549 1.427 . S
C1542 H1533 0.930 . S
C1542 C1540 1.378 . S
C1542 C1543 1.367 . S
C1543 C1542 1.367 . S
C1543 C1545 1.433 . S
C1544 C1540 1.350 . S
C1544 C1541 1.463 . S
C1544 N1548 1.427 . S
C1545 H1535 0.929 . S
C1545 C1543 1.433 . S
C1545 N1548 1.384 . S
C1546 H1537 0.929 . S
C1546 C1538 1.378 . S
C1546 C1541 1.350 . S
C1547 H1534 0.929 . S
C1547 C1539 1.433 . S
C1547 N1549 1.384 . S
N1548 C1544 1.427 . S
N1548 C1545 1.384 . S
N1549 C1541 1.427 . S
N1549 C1547 1.384 . S
H1550 C1556 0.930 . S
H1551 C1560 0.930 . S
H1552 C1565 0.929 . S
H1553 C1563 0.929 . S
H1554 C1558 0.929 . S
H1555 C1564 0.929 . S
C1556 H1550 0.930 . S
C1556 C1557 1.367 . S
C1556 C1564 1.378 . S
C1557 C1556 1.367 . S
C1557 C1565 1.433 . S
C1558 H1554 0.929 . S
C1558 C1560 1.378 . S
C1558 C1562 1.350 . S
C1559 C1562 1.463 . S
C1559 C1564 1.350 . S
C1559 N1567 1.427 . S
C1560 H1551 0.930 . S
C1560 C1558 1.378 . S
C1560 C1561 1.367 . S
C1561 C1560 1.367 . S
C1561 C1563 1.433 . S
C1562 C1558 1.350 . S
C1562 C1559 1.463 . S
C1562 N1566 1.427 . S
C1563 H1553 0.929 . S
C1563 C1561 1.433 . S
C1563 N1566 1.384 . S
C1564 H1555 0.929 . S
C1564 C1556 1.378 . S
C1564 C1559 1.350 . S
C1565 H1552 0.929 . S
C1565 C1557 1.433 . S
C1565 N1567 1.384 . S
N1566 C1562 1.427 . S
N1566 C1563 1.384 . S
N1567 C1559 1.427 . S
N1567 C1565 1.384 . S
H1568 C1574 0.930 . S
H1569 C1578 0.930 . S
H1570 C1583 0.929 . S
H1571 C1581 0.929 . S
H1572 C1576 0.929 . S
H1573 C1582 0.929 . S
C1574 H1568 0.930 . S
C1574 C1575 1.367 . S
C1574 C1582 1.378 . S
C1575 C1574 1.367 . S
C1575 C1583 1.433 . S
C1576 H1572 0.929 . S
C1576 C1578 1.378 . S
C1576 C1580 1.350 . S
C1577 C1580 1.463 . S
C1577 C1582 1.350 . S
C1577 N1585 1.427 . S
C1578 H1569 0.930 . S
C1578 C1576 1.378 . S
C1578 C1579 1.367 . S
C1579 C1578 1.367 . S
C1579 C1581 1.433 . S
C1580 C1576 1.350 . S
C1580 C1577 1.463 . S
C1580 N1584 1.427 . S
C1581 H1571 0.929 . S
C1581 C1579 1.433 . S
C1581 N1584 1.384 . S
C1582 H1573 0.929 . S
C1582 C1574 1.378 . S
C1582 C1577 1.350 . S
C1583 H1570 0.929 . S
C1583 C1575 1.433 . S
C1583 N1585 1.384 . S
N1584 C1580 1.427 . S
N1584 C1581 1.384 . S
N1585 C1577 1.427 . S
N1585 C1583 1.384 . S
H1586 C1592 0.930 . S
H1587 C1596 0.930 . S
H1588 C1601 0.929 . S
H1589 C1599 0.929 . S
H1590 C1594 0.929 . S
H1591 C1600 0.929 . S
C1592 H1586 0.930 . S
C1592 C1593 1.367 . S
C1592 C1600 1.378 . S
C1593 C1592 1.367 . S
C1593 C1601 1.433 . S
C1594 H1590 0.929 . S
C1594 C1596 1.378 . S
C1594 C1598 1.350 . S
C1595 C1598 1.463 . S
C1595 C1600 1.350 . S
C1595 N1603 1.427 . S
C1596 H1587 0.930 . S
C1596 C1594 1.378 . S
C1596 C1597 1.367 . S
C1597 C1596 1.367 . S
C1597 C1599 1.433 . S
C1598 C1594 1.350 . S
C1598 C1595 1.463 . S
C1598 N1602 1.427 . S
C1599 H1589 0.929 . S
C1599 C1597 1.433 . S
C1599 N1602 1.384 . S
C1600 H1591 0.929 . S
C1600 C1592 1.378 . S
C1600 C1595 1.350 . S
C1601 H1588 0.929 . S
C1601 C1593 1.433 . S
C1601 N1603 1.384 . S
N1602 C1598 1.427 . S
N1602 C1599 1.384 . S
N1603 C1595 1.427 . S
N1603 C1601 1.384 . S
H1604 C1610 0.930 . S
H1605 C1614 0.930 . S
H1606 C1619 0.929 1_655 S
H1607 C1617 0.929 . S
H1608 C1612 0.929 . S
H1609 C1618 0.929 . S
C1610 H1604 0.930 . S
C1610 C1611 1.367 . S
C1610 C1618 1.378 . S
C1611 C1610 1.367 . S
C1611 C1619 1.433 . S
C1612 H1608 0.929 . S
C1612 C1614 1.378 . S
C1612 C1616 1.350 . S
C1613 C1616 1.463 . S
C1613 C1618 1.350 . S
C1613 N1621 1.427 . S
C1614 H1605 0.930 . S
C1614 C1612 1.378 . S
C1614 C1615 1.367 . S
C1615 C1614 1.367 . S
C1615 C1617 1.433 . S
C1616 C1612 1.350 . S
C1616 C1613 1.463 . S
C1616 N1620 1.427 . S
C1617 H1607 0.929 . S
C1617 C1615 1.433 . S
C1617 N1620 1.384 . S
C1618 H1609 0.929 . S
C1618 C1610 1.378 . S
C1618 C1613 1.350 . S
C1619 H1606 0.929 1_455 S
C1619 C1611 1.433 . S
C1619 N1621 1.384 . S
N1620 C1616 1.427 . S
N1620 C1617 1.384 . S
N1621 C1613 1.427 . S
N1621 C1619 1.384 . S
H1622 C1628 0.930 . S
H1623 C1632 0.930 . S
H1624 C1637 0.929 . S
H1625 C1635 0.929 . S
H1626 C1630 0.929 . S
H1627 C1636 0.929 . S
C1628 H1622 0.930 . S
C1628 C1629 1.367 . S
C1628 C1636 1.378 . S
C1629 C1628 1.367 . S
C1629 C1637 1.433 . S
C1630 H1626 0.929 . S
C1630 C1632 1.378 . S
C1630 C1634 1.350 . S
C1631 C1634 1.463 . S
C1631 C1636 1.350 . S
C1631 N1639 1.427 . S
C1632 H1623 0.930 . S
C1632 C1630 1.378 . S
C1632 C1633 1.367 . S
C1633 C1632 1.367 . S
C1633 C1635 1.433 . S
C1634 C1630 1.350 . S
C1634 C1631 1.463 . S
C1634 N1638 1.427 . S
C1635 H1625 0.929 . S
C1635 C1633 1.433 . S
C1635 N1638 1.384 . S
C1636 H1627 0.929 . S
C1636 C1628 1.378 . S
C1636 C1631 1.350 . S
C1637 H1624 0.929 . S
C1637 C1629 1.433 . S
C1637 N1639 1.384 . S
N1638 C1634 1.427 . S
N1638 C1635 1.384 . S
N1639 C1631 1.427 . S
N1639 C1637 1.384 . S
H1640 C1646 0.930 . S
H1641 C1650 0.930 . S
H1642 C1655 0.929 . S
H1643 C1653 0.929 . S
H1644 C1648 0.917 1_554 S
H1645 C1654 0.929 . S
C1646 H1640 0.930 . S
C1646 C1647 1.367 . S
C1646 C1654 1.378 . S
C1647 C1646 1.367 . S
C1647 C1655 1.433 . S
C1648 H1644 0.917 1_556 S
C1648 C1650 1.349 1_556 S
C1648 C1652 1.391 . S
C1649 C1652 1.463 . S
C1649 C1654 1.350 . S
C1649 N1657 1.427 . S
C1650 H1641 0.930 . S
C1650 C1648 1.349 1_554 S
C1650 C1651 1.367 . S
C1651 C1650 1.367 . S
C1651 C1653 1.433 1_554 S
C1652 C1648 1.391 . S
C1652 C1649 1.463 . S
C1652 N1656 1.427 . S
C1653 H1643 0.929 . S
C1653 C1651 1.433 1_556 S
C1653 N1656 1.384 . S
C1654 H1645 0.929 . S
C1654 C1646 1.378 . S
C1654 C1649 1.350 . S
C1655 H1642 0.929 . S
C1655 C1647 1.433 . S
C1655 N1657 1.384 . S
N1656 C1652 1.427 . S
N1656 C1653 1.384 . S
N1657 C1649 1.427 . S
N1657 C1655 1.384 . S
H1658 C1664 0.930 . S
H1659 C1668 0.930 . S
H1660 C1673 0.929 . S
H1661 C1671 0.929 . S
H1662 C1666 0.929 . S
H1663 C1672 0.929 . S
C1664 H1658 0.930 . S
C1664 C1665 1.367 . S
C1664 C1672 1.378 . S
C1665 C1664 1.367 . S
C1665 C1673 1.433 . S
C1666 H1662 0.929 . S
C1666 C1668 1.378 . S
C1666 C1670 1.350 . S
C1667 C1670 1.463 . S
C1667 C1672 1.350 . S
C1667 N1675 1.427 . S
C1668 H1659 0.930 . S
C1668 C1666 1.378 . S
C1668 C1669 1.367 . S
C1669 C1668 1.367 . S
C1669 C1671 1.433 . S
C1670 C1666 1.350 . S
C1670 C1667 1.463 . S
C1670 N1674 1.427 . S
C1671 H1661 0.929 . S
C1671 C1669 1.433 . S
C1671 N1674 1.384 . S
C1672 H1663 0.929 . S
C1672 C1664 1.378 . S
C1672 C1667 1.350 . S
C1673 H1660 0.929 . S
C1673 C1665 1.433 . S
C1673 N1675 1.384 . S
N1674 C1670 1.427 . S
N1674 C1671 1.384 . S
N1675 C1667 1.427 . S
N1675 C1673 1.384 . S
H1676 C1682 0.930 . S
H1677 C1686 0.930 1_655 S
H1678 C1691 0.929 . S
H1679 C1689 0.929 . S
H1680 C1684 0.929 1_655 S
H1681 C1690 0.929 . S
C1682 H1676 0.930 . S
C1682 C1683 1.367 . S
C1682 C1690 1.378 . S
C1683 C1682 1.367 . S
C1683 C1691 1.433 1_455 S
C1684 H1680 0.929 1_455 S
C1684 C1686 1.378 . S
C1684 C1688 1.350 . S
C1685 C1688 1.463 . S
C1685 C1690 1.350 . S
C1685 N1693 1.427 1_455 S
C1686 H1677 0.930 1_455 S
C1686 C1684 1.378 . S
C1686 C1687 1.367 . S
C1687 C1686 1.367 . S
C1687 C1689 1.433 . S
C1688 C1684 1.350 . S
C1688 C1685 1.463 . S
C1688 N1692 1.427 . S
C1689 H1679 0.929 . S
C1689 C1687 1.433 . S
C1689 N1692 1.384 . S
C1690 H1681 0.929 . S
C1690 C1682 1.378 . S
C1690 C1685 1.350 . S
C1691 H1678 0.929 . S
C1691 C1683 1.433 1_655 S
C1691 N1693 1.384 . S
N1692 C1688 1.427 . S
N1692 C1689 1.384 . S
N1693 C1685 1.427 1_655 S
N1693 C1691 1.384 . S
H1694 C1700 0.930 . S
H1695 C1704 0.930 . S
H1696 C1709 0.929 . S
H1697 C1707 0.929 . S
H1698 C1702 0.929 . S
H1699 C1708 0.929 . S
C1700 H1694 0.930 . S
C1700 C1701 1.367 . S
C1700 C1708 1.378 . S
C1701 C1700 1.367 . S
C1701 C1709 1.433 . S
C1702 H1698 0.929 . S
C1702 C1704 1.378 . S
C1702 C1706 1.350 . S
C1703 C1706 1.463 . S
C1703 C1708 1.350 . S
C1703 N1711 1.427 . S
C1704 H1695 0.930 . S
C1704 C1702 1.378 . S
C1704 C1705 1.367 . S
C1705 C1704 1.367 . S
C1705 C1707 1.433 . S
C1706 C1702 1.350 . S
C1706 C1703 1.463 . S
C1706 N1710 1.427 . S
C1707 H1697 0.929 . S
C1707 C1705 1.433 . S
C1707 N1710 1.384 . S
C1708 H1699 0.929 . S
C1708 C1700 1.378 . S
C1708 C1703 1.350 . S
C1709 H1696 0.929 . S
C1709 C1701 1.433 . S
C1709 N1711 1.384 . S
N1710 C1706 1.427 . S
N1710 C1707 1.384 . S
N1711 C1703 1.427 . S
N1711 C1709 1.384 . S
H1712 C1718 0.930 . S
H1713 C1722 0.930 . S
H1714 C1727 0.929 . S
H1715 C1725 0.929 . S
H1716 C1720 0.929 . S
H1717 C1726 0.929 . S
C1718 H1712 0.930 . S
C1718 C1719 1.367 . S
C1718 C1726 1.378 . S
C1719 C1718 1.367 . S
C1719 C1727 1.433 . S
C1720 H1716 0.929 . S
C1720 C1722 1.378 . S
C1720 C1724 1.350 . S
C1721 C1724 1.463 . S
C1721 C1726 1.350 . S
C1721 N1729 1.427 . S
C1722 H1713 0.930 . S
C1722 C1720 1.378 . S
C1722 C1723 1.367 . S
C1723 C1722 1.367 . S
C1723 C1725 1.433 . S
C1724 C1720 1.350 . S
C1724 C1721 1.463 . S
C1724 N1728 1.427 . S
C1725 H1715 0.929 . S
C1725 C1723 1.433 . S
C1725 N1728 1.384 . S
C1726 H1717 0.929 . S
C1726 C1718 1.378 . S
C1726 C1721 1.350 . S
C1727 H1714 0.929 . S
C1727 C1719 1.433 . S
C1727 N1729 1.384 . S
N1728 C1724 1.427 . S
N1728 C1725 1.384 . S
N1729 C1721 1.427 . S
N1729 C1727 1.384 . S
H1730 C1736 0.930 . S
H1731 C1740 0.930 . S
H1732 C1745 0.929 . S
H1733 C1743 0.929 . S
H1734 C1738 0.929 . S
H1735 C1744 0.929 . S
C1736 H1730 0.930 . S
C1736 C1737 1.367 . S
C1736 C1744 1.378 . S
C1737 C1736 1.367 . S
C1737 C1745 1.433 . S
C1738 H1734 0.929 . S
C1738 C1740 1.378 . S
C1738 C1742 1.350 . S
C1739 C1742 1.463 . S
C1739 C1744 1.350 . S
C1739 N1747 1.427 . S
C1740 H1731 0.930 . S
C1740 C1738 1.378 . S
C1740 C1741 1.367 . S
C1741 C1740 1.367 . S
C1741 C1743 1.433 . S
C1742 C1738 1.350 . S
C1742 C1739 1.463 . S
C1742 N1746 1.427 . S
C1743 H1733 0.929 . S
C1743 C1741 1.433 . S
C1743 N1746 1.384 . S
C1744 H1735 0.929 . S
C1744 C1736 1.378 . S
C1744 C1739 1.350 . S
C1745 H1732 0.929 . S
C1745 C1737 1.433 . S
C1745 N1747 1.384 . S
N1746 C1742 1.427 . S
N1746 C1743 1.384 . S
N1747 C1739 1.427 . S
N1747 C1745 1.384 . S
H1748 C1754 0.930 . S
H1749 C1758 0.930 . S
H1750 C1763 0.929 . S
H1751 C1761 0.929 . S
H1752 C1756 0.929 . S
H1753 C1762 0.929 . S
C1754 H1748 0.930 . S
C1754 C1755 1.367 . S
C1754 C1762 1.378 . S
C1755 C1754 1.367 . S
C1755 C1763 1.433 . S
C1756 H1752 0.929 . S
C1756 C1758 1.378 . S
C1756 C1760 1.350 . S
C1757 C1760 1.463 . S
C1757 C1762 1.350 . S
C1757 N1765 1.427 . S
C1758 H1749 0.930 . S
C1758 C1756 1.378 . S
C1758 C1759 1.367 . S
C1759 C1758 1.367 . S
C1759 C1761 1.433 . S
C1760 C1756 1.350 . S
C1760 C1757 1.463 . S
C1760 N1764 1.427 . S
C1761 H1751 0.929 . S
C1761 C1759 1.433 . S
C1761 N1764 1.384 . S
C1762 H1753 0.929 . S
C1762 C1754 1.378 . S
C1762 C1757 1.350 . S
C1763 H1750 0.929 . S
C1763 C1755 1.433 . S
C1763 N1765 1.384 . S
N1764 C1760 1.427 . S
N1764 C1761 1.384 . S
N1765 C1757 1.427 . S
N1765 C1763 1.384 . S
H1766 C1772 0.930 . S
H1767 C1776 0.930 . S
H1768 C1781 0.929 . S
H1769 C1779 0.929 . S
H1770 C1774 0.929 . S
H1771 C1780 0.929 . S
C1772 H1766 0.930 . S
C1772 C1773 1.367 . S
C1772 C1780 1.378 . S
C1773 C1772 1.367 . S
C1773 C1781 1.433 . S
C1774 H1770 0.929 . S
C1774 C1776 1.378 . S
C1774 C1778 1.350 . S
C1775 C1778 1.463 . S
C1775 C1780 1.350 . S
C1775 N1783 1.427 . S
C1776 H1767 0.930 . S
C1776 C1774 1.378 . S
C1776 C1777 1.367 . S
C1777 C1776 1.367 . S
C1777 C1779 1.433 . S
C1778 C1774 1.350 . S
C1778 C1775 1.463 . S
C1778 N1782 1.427 . S
C1779 H1769 0.929 . S
C1779 C1777 1.433 . S
C1779 N1782 1.384 . S
C1780 H1771 0.929 . S
C1780 C1772 1.378 . S
C1780 C1775 1.350 . S
C1781 H1768 0.929 . S
C1781 C1773 1.433 . S
C1781 N1783 1.384 . S
N1782 C1778 1.427 . S
N1782 C1779 1.384 . S
N1783 C1775 1.427 . S
N1783 C1781 1.384 . S
H1784 C1790 0.930 . S
H1785 C1794 0.930 . S
H1786 C1799 0.929 . S
H1787 C1797 0.929 . S
H1788 C1792 0.929 . S
H1789 C1798 0.929 . S
C1790 H1784 0.930 . S
C1790 C1791 1.367 . S
C1790 C1798 1.378 . S
C1791 C1790 1.367 . S
C1791 C1799 1.433 . S
C1792 H1788 0.929 . S
C1792 C1794 1.378 . S
C1792 C1796 1.350 . S
C1793 C1796 1.463 . S
C1793 C1798 1.350 . S
C1793 N1801 1.427 . S
C1794 H1785 0.930 . S
C1794 C1792 1.378 . S
C1794 C1795 1.367 . S
C1795 C1794 1.367 . S
C1795 C1797 1.433 . S
C1796 C1792 1.350 . S
C1796 C1793 1.463 . S
C1796 N1800 1.427 . S
C1797 H1787 0.929 . S
C1797 C1795 1.433 . S
C1797 N1800 1.384 . S
C1798 H1789 0.929 . S
C1798 C1790 1.378 . S
C1798 C1793 1.350 . S
C1799 H1786 0.929 . S
C1799 C1791 1.433 . S
C1799 N1801 1.384 . S
N1800 C1796 1.427 . S
N1800 C1797 1.384 . S
N1801 C1793 1.427 . S
N1801 C1799 1.384 . S
H1802 C1808 0.930 . S
H1803 C1812 0.930 . S
H1804 C1817 0.929 . S
H1805 C1815 0.929 . S
H1806 C1810 0.929 . S
H1807 C1816 0.929 . S
C1808 H1802 0.930 . S
C1808 C1809 1.367 . S
C1808 C1816 1.378 . S
C1809 C1808 1.367 . S
C1809 C1817 1.433 . S
C1810 H1806 0.929 . S
C1810 C1812 1.378 . S
C1810 C1814 1.350 . S
C1811 C1814 1.463 . S
C1811 C1816 1.350 . S
C1811 N1819 1.427 . S
C1812 H1803 0.930 . S
C1812 C1810 1.378 . S
C1812 C1813 1.367 . S
C1813 C1812 1.367 . S
C1813 C1815 1.433 . S
C1814 C1810 1.350 . S
C1814 C1811 1.463 . S
C1814 N1818 1.427 . S
C1815 H1805 0.929 . S
C1815 C1813 1.433 . S
C1815 N1818 1.384 . S
C1816 H1807 0.929 . S
C1816 C1808 1.378 . S
C1816 C1811 1.350 . S
C1817 H1804 0.929 . S
C1817 C1809 1.433 . S
C1817 N1819 1.384 . S
N1818 C1814 1.427 . S
N1818 C1815 1.384 . S
N1819 C1811 1.427 . S
N1819 C1817 1.384 . S
H1820 C1826 0.930 . S
H1821 C1830 0.930 . S
H1822 C1835 0.929 . S
H1823 C1833 0.929 . S
H1824 C1828 0.929 . S
H1825 C1834 0.929 . S
C1826 H1820 0.930 . S
C1826 C1827 1.367 . S
C1826 C1834 1.378 . S
C1827 C1826 1.367 . S
C1827 C1835 1.433 . S
C1828 H1824 0.929 . S
C1828 C1830 1.378 . S
C1828 C1832 1.350 . S
C1829 C1832 1.463 . S
C1829 C1834 1.350 . S
C1829 N1837 1.427 . S
C1830 H1821 0.930 . S
C1830 C1828 1.378 . S
C1830 C1831 1.367 . S
C1831 C1830 1.367 . S
C1831 C1833 1.433 . S
C1832 C1828 1.350 . S
C1832 C1829 1.463 . S
C1832 N1836 1.427 . S
C1833 H1823 0.929 . S
C1833 C1831 1.433 . S
C1833 N1836 1.384 . S
C1834 H1825 0.929 . S
C1834 C1826 1.378 . S
C1834 C1829 1.350 . S
C1835 H1822 0.929 . S
C1835 C1827 1.433 . S
C1835 N1837 1.384 . S
N1836 C1832 1.427 . S
N1836 C1833 1.384 . S
N1837 C1829 1.427 . S
N1837 C1835 1.384 . S
H1838 C1844 0.930 . S
H1839 C1848 0.930 . S
H1840 C1853 0.929 . S
H1841 C1851 0.929 . S
H1842 C1846 0.929 . S
H1843 C1852 0.929 . S
C1844 H1838 0.930 . S
C1844 C1845 1.367 . S
C1844 C1852 1.378 . S
C1845 C1844 1.367 . S
C1845 C1853 1.433 . S
C1846 H1842 0.929 . S
C1846 C1848 1.378 . S
C1846 C1850 1.350 . S
C1847 C1850 1.463 . S
C1847 C1852 1.350 . S
C1847 N1855 1.427 . S
C1848 H1839 0.930 . S
C1848 C1846 1.378 . S
C1848 C1849 1.367 . S
C1849 C1848 1.367 . S
C1849 C1851 1.433 . S
C1850 C1846 1.350 . S
C1850 C1847 1.463 . S
C1850 N1854 1.427 . S
C1851 H1841 0.929 . S
C1851 C1849 1.433 . S
C1851 N1854 1.384 . S
C1852 H1843 0.929 . S
C1852 C1844 1.378 . S
C1852 C1847 1.350 . S
C1853 H1840 0.929 . S
C1853 C1845 1.433 . S
C1853 N1855 1.384 . S
N1854 C1850 1.427 . S
N1854 C1851 1.384 . S
N1855 C1847 1.427 . S
N1855 C1853 1.384 . S
H1856 C1862 0.930 . S
H1857 C1866 0.930 . S
H1858 C1871 0.929 . S
H1859 C1869 0.929 . S
H1860 C1864 0.929 . S
H1861 C1870 0.929 . S
C1862 H1856 0.930 . S
C1862 C1863 1.367 . S
C1862 C1870 1.378 . S
C1863 C1862 1.367 . S
C1863 C1871 1.433 . S
C1864 H1860 0.929 . S
C1864 C1866 1.378 . S
C1864 C1868 1.350 . S
C1865 C1868 1.463 . S
C1865 C1870 1.350 . S
C1865 N1873 1.427 . S
C1866 H1857 0.930 . S
C1866 C1864 1.378 . S
C1866 C1867 1.367 . S
C1867 C1866 1.367 . S
C1867 C1869 1.433 . S
C1868 C1864 1.350 . S
C1868 C1865 1.463 . S
C1868 N1872 1.427 . S
C1869 H1859 0.929 . S
C1869 C1867 1.433 . S
C1869 N1872 1.384 . S
C1870 H1861 0.929 . S
C1870 C1862 1.378 . S
C1870 C1865 1.350 . S
C1871 H1858 0.929 . S
C1871 C1863 1.433 . S
C1871 N1873 1.384 . S
N1872 C1868 1.427 . S
N1872 C1869 1.384 . S
N1873 C1865 1.427 . S
N1873 C1871 1.384 . S
H1874 C1880 0.930 . S
H1875 C1884 0.930 . S
H1876 C1889 0.929 . S
H1877 C1887 0.929 . S
H1878 C1882 0.929 . S
H1879 C1888 0.929 . S
C1880 H1874 0.930 . S
C1880 C1881 1.367 . S
C1880 C1888 1.378 . S
C1881 C1880 1.367 . S
C1881 C1889 1.433 . S
C1882 H1878 0.929 . S
C1882 C1884 1.378 . S
C1882 C1886 1.350 . S
C1883 C1886 1.463 . S
C1883 C1888 1.350 . S
C1883 N1891 1.427 . S
C1884 H1875 0.930 . S
C1884 C1882 1.378 . S
C1884 C1885 1.367 . S
C1885 C1884 1.367 . S
C1885 C1887 1.433 . S
C1886 C1882 1.350 . S
C1886 C1883 1.463 . S
C1886 N1890 1.427 . S
C1887 H1877 0.929 . S
C1887 C1885 1.433 . S
C1887 N1890 1.384 . S
C1888 H1879 0.929 . S
C1888 C1880 1.378 . S
C1888 C1883 1.350 . S
C1889 H1876 0.929 . S
C1889 C1881 1.433 . S
C1889 N1891 1.384 . S
N1890 C1886 1.427 . S
N1890 C1887 1.384 . S
N1891 C1883 1.427 . S
N1891 C1889 1.384 . S
H1892 C1898 0.930 . S
H1893 C1902 0.930 . S
H1894 C1907 0.929 . S
H1895 C1905 0.929 . S
H1896 C1900 0.929 . S
H1897 C1906 0.929 . S
C1898 H1892 0.930 . S
C1898 C1899 1.367 . S
C1898 C1906 1.378 . S
C1899 C1898 1.367 . S
C1899 C1907 1.433 . S
C1900 H1896 0.929 . S
C1900 C1902 1.378 . S
C1900 C1904 1.350 . S
C1901 C1904 1.463 . S
C1901 C1906 1.350 . S
C1901 N1909 1.427 . S
C1902 H1893 0.930 . S
C1902 C1900 1.378 . S
C1902 C1903 1.367 . S
C1903 C1902 1.367 . S
C1903 C1905 1.433 . S
C1904 C1900 1.350 . S
C1904 C1901 1.463 . S
C1904 N1908 1.427 . S
C1905 H1895 0.929 . S
C1905 C1903 1.433 . S
C1905 N1908 1.384 . S
C1906 H1897 0.929 . S
C1906 C1898 1.378 . S
C1906 C1901 1.350 . S
C1907 H1894 0.929 . S
C1907 C1899 1.433 . S
C1907 N1909 1.384 . S
N1908 C1904 1.427 . S
N1908 C1905 1.384 . S
N1909 C1901 1.427 . S
N1909 C1907 1.384 . S
H1910 C1916 0.930 . S
H1911 C1920 0.930 . S
H1912 C1925 0.929 . S
H1913 C1923 0.937 . S
H1914 C1918 0.929 . S
H1915 C1924 0.929 1_556 S
C1916 H1910 0.930 . S
C1916 C1917 1.367 1_556 S
C1916 C1924 1.378 1_556 S
C1917 C1916 1.367 1_554 S
C1917 C1925 1.433 . S
C1918 H1914 0.929 . S
C1918 C1920 1.378 . S
C1918 C1922 1.350 . S
C1919 C1922 1.463 . S
C1919 C1924 1.350 . S
C1919 N1927 1.427 . S
C1920 H1911 0.930 . S
C1920 C1918 1.378 . S
C1920 C1921 1.367 . S
C1921 C1920 1.367 . S
C1921 C1923 1.433 . S
C1922 C1918 1.350 . S
C1922 C1919 1.463 . S
C1922 N1926 1.427 . S
C1923 H1913 0.937 . S
C1923 C1921 1.433 . S
C1923 N1926 1.384 . S
C1924 H1915 0.929 1_554 S
C1924 C1916 1.378 1_554 S
C1924 C1919 1.350 . S
C1925 H1912 0.929 . S
C1925 C1917 1.433 . S
C1925 N1927 1.384 . S
N1926 C1922 1.427 . S
N1926 C1923 1.384 . S
N1927 C1919 1.427 . S
N1927 C1925 1.384 . S
H1928 C1934 0.930 . S
H1929 C1938 0.930 . S
H1930 C1943 0.929 . S
H1931 C1941 0.929 . S
H1932 C1936 0.929 . S
H1933 C1942 0.929 . S
C1934 H1928 0.930 . S
C1934 C1935 1.367 . S
C1934 C1942 1.378 . S
C1935 C1934 1.367 . S
C1935 C1943 1.433 . S
C1936 H1932 0.929 . S
C1936 C1938 1.378 . S
C1936 C1940 1.350 . S
C1937 C1940 1.463 . S
C1937 C1942 1.350 . S
C1937 N1945 1.427 . S
C1938 H1929 0.930 . S
C1938 C1936 1.378 . S
C1938 C1939 1.367 . S
C1939 C1938 1.367 . S
C1939 C1941 1.433 . S
C1940 C1936 1.350 . S
C1940 C1937 1.463 . S
C1940 N1944 1.427 . S
C1941 H1931 0.929 . S
C1941 C1939 1.433 . S
C1941 N1944 1.384 . S
C1942 H1933 0.929 . S
C1942 C1934 1.378 . S
C1942 C1937 1.350 . S
C1943 H1930 0.929 . S
C1943 C1935 1.433 . S
C1943 N1945 1.384 . S
N1944 C1940 1.427 . S
N1944 C1941 1.384 . S
N1945 C1937 1.427 . S
N1945 C1943 1.384 . S
H1946 C1952 0.930 . S
H1947 C1956 0.930 . S
H1948 C1961 0.929 . S
H1949 C1959 0.930 1_556 S
H1950 C1954 0.929 . S
H1951 C1960 0.929 . S
C1952 H1946 0.930 . S
C1952 C1953 1.367 . S
C1952 C1960 1.378 . S
C1953 C1952 1.367 . S
C1953 C1961 1.433 . S
C1954 H1950 0.929 . S
C1954 C1956 1.378 . S
C1954 C1958 1.350 . S
C1955 C1958 1.463 . S
C1955 C1960 1.350 . S
C1955 N1963 1.427 . S
C1956 H1947 0.930 . S
C1956 C1954 1.378 . S
C1956 C1957 1.367 . S
C1957 C1956 1.367 . S
C1957 C1959 1.433 . S
C1958 C1954 1.350 . S
C1958 C1955 1.463 . S
C1958 N1962 1.427 . S
C1959 H1949 0.930 1_554 S
C1959 C1957 1.433 . S
C1959 N1962 1.384 . S
C1960 H1951 0.929 . S
C1960 C1952 1.378 . S
C1960 C1955 1.350 . S
C1961 H1948 0.929 . S
C1961 C1953 1.433 . S
C1961 N1963 1.384 . S
N1962 C1958 1.427 . S
N1962 C1959 1.384 . S
N1963 C1955 1.427 . S
N1963 C1961 1.384 . S
H1964 C1970 0.930 . S
H1965 C1974 0.930 . S
H1966 C1979 0.929 . S
H1967 C1977 0.929 . S
H1968 C1972 0.929 . S
H1969 C1978 0.929 . S
C1970 H1964 0.930 . S
C1970 C1971 1.367 . S
C1970 C1978 1.378 . S
C1971 C1970 1.367 . S
C1971 C1979 1.433 . S
C1972 H1968 0.929 . S
C1972 C1974 1.378 . S
C1972 C1976 1.350 . S
C1973 C1976 1.463 . S
C1973 C1978 1.350 . S
C1973 N1981 1.427 . S
C1974 H1965 0.930 . S
C1974 C1972 1.378 . S
C1974 C1975 1.367 . S
C1975 C1974 1.367 . S
C1975 C1977 1.433 . S
C1976 C1972 1.350 . S
C1976 C1973 1.463 . S
C1976 N1980 1.427 . S
C1977 H1967 0.929 . S
C1977 C1975 1.433 . S
C1977 N1980 1.384 . S
C1978 H1969 0.929 . S
C1978 C1970 1.378 . S
C1978 C1973 1.350 . S
C1979 H1966 0.929 . S
C1979 C1971 1.433 . S
C1979 N1981 1.384 . S
N1980 C1976 1.427 . S
N1980 C1977 1.384 . S
N1981 C1973 1.427 . S
N1981 C1979 1.384 . S
H1982 C1988 0.930 . S
H1983 C1992 0.930 . S
H1984 C1997 0.929 . S
H1985 C1995 0.929 . S
H1986 C1990 0.929 . S
H1987 C1996 0.929 . S
C1988 H1982 0.930 . S
C1988 C1989 1.367 . S
C1988 C1996 1.378 . S
C1989 C1988 1.367 . S
C1989 C1997 1.433 . S
C1990 H1986 0.929 . S
C1990 C1992 1.378 . S
C1990 C1994 1.350 . S
C1991 C1994 1.463 . S
C1991 C1996 1.350 . S
C1991 N1999 1.427 . S
C1992 H1983 0.930 . S
C1992 C1990 1.378 . S
C1992 C1993 1.367 . S
C1993 C1992 1.367 . S
C1993 C1995 1.433 . S
C1994 C1990 1.350 . S
C1994 C1991 1.463 . S
C1994 N1998 1.427 . S
C1995 H1985 0.929 . S
C1995 C1993 1.433 . S
C1995 N1998 1.384 . S
C1996 H1987 0.929 . S
C1996 C1988 1.378 . S
C1996 C1991 1.350 . S
C1997 H1984 0.929 . S
C1997 C1989 1.433 . S
C1997 N1999 1.384 . S
N1998 C1994 1.427 . S
N1998 C1995 1.384 . S
N1999 C1991 1.427 . S
N1999 C1997 1.384 . S
H2000 C2006 0.930 . S
H2001 C2010 0.930 . S
H2002 C2015 0.929 . S
H2003 C2013 0.929 . S
H2004 C2008 0.929 . S
H2005 C2014 0.929 . S
C2006 H2000 0.930 . S
C2006 C2007 1.367 . S
C2006 C2014 1.378 . S
C2007 C2006 1.367 . S
C2007 C2015 1.433 . S
C2008 H2004 0.929 . S
C2008 C2010 1.378 . S
C2008 C2012 1.350 . S
C2009 C2012 1.463 . S
C2009 C2014 1.350 . S
C2009 N2017 1.427 . S
C2010 H2001 0.930 . S
C2010 C2008 1.378 . S
C2010 C2011 1.367 . S
C2011 C2010 1.367 . S
C2011 C2013 1.433 . S
C2012 C2008 1.350 . S
C2012 C2009 1.463 . S
C2012 N2016 1.427 . S
C2013 H2003 0.929 . S
C2013 C2011 1.433 . S
C2013 N2016 1.384 . S
C2014 H2005 0.929 . S
C2014 C2006 1.378 . S
C2014 C2009 1.350 . S
C2015 H2002 0.929 . S
C2015 C2007 1.433 . S
C2015 N2017 1.384 . S
N2016 C2012 1.427 . S
N2016 C2013 1.384 . S
N2017 C2009 1.427 . S
N2017 C2015 1.384 . S
H2018 C2024 0.930 . S
H2019 C2028 0.930 . S
H2020 C2033 0.929 . S
H2021 C2031 0.929 . S
H2022 C2026 0.929 . S
H2023 C2032 0.929 . S
C2024 H2018 0.930 . S
C2024 C2025 1.367 . S
C2024 C2032 1.378 . S
C2025 C2024 1.367 . S
C2025 C2033 1.433 . S
C2026 H2022 0.929 . S
C2026 C2028 1.378 . S
C2026 C2030 1.350 . S
C2027 C2030 1.463 . S
C2027 C2032 1.350 . S
C2027 N2035 1.427 . S
C2028 H2019 0.930 . S
C2028 C2026 1.378 . S
C2028 C2029 1.367 . S
C2029 C2028 1.367 . S
C2029 C2031 1.433 . S
C2030 C2026 1.350 . S
C2030 C2027 1.463 . S
C2030 N2034 1.427 . S
C2031 H2021 0.929 . S
C2031 C2029 1.433 . S
C2031 N2034 1.384 . S
C2032 H2023 0.929 . S
C2032 C2024 1.378 . S
C2032 C2027 1.350 . S
C2033 H2020 0.929 . S
C2033 C2025 1.433 . S
C2033 N2035 1.384 . S
N2034 C2030 1.427 . S
N2034 C2031 1.384 . S
N2035 C2027 1.427 . S
N2035 C2033 1.384 . S
H2036 C2042 0.930 . S
H2037 C2046 0.930 . S
H2038 C2051 0.929 . S
H2039 C2049 0.929 . S
H2040 C2044 0.929 . S
H2041 C2050 0.929 . S
C2042 H2036 0.930 . S
C2042 C2043 1.367 1_655 S
C2042 C2050 1.378 . S
C2043 C2042 1.367 1_455 S
C2043 C2051 1.433 . S
C2044 H2040 0.929 . S
C2044 C2046 1.378 . S
C2044 C2048 1.378 . S
C2045 C2048 1.464 . S
C2045 C2050 1.350 1_455 S
C2045 N2053 1.427 . S
C2046 H2037 0.930 . S
C2046 C2044 1.378 . S
C2046 C2047 1.367 1_456 S
C2047 C2046 1.367 1_654 S
C2047 C2049 1.433 . S
C2048 C2044 1.378 . S
C2048 C2045 1.464 . S
C2048 N2052 1.398 1_455 S
C2049 H2039 0.929 . S
C2049 C2047 1.433 . S
C2049 N2052 1.384 1_554 S
C2050 H2041 0.929 . S
C2050 C2042 1.378 . S
C2050 C2045 1.350 1_655 S
C2051 H2038 0.929 . S
C2051 C2043 1.433 . S
C2051 N2053 1.384 . S
N2052 C2048 1.398 1_655 S
N2052 C2049 1.384 1_556 S
N2053 C2045 1.427 . S
N2053 C2051 1.384 . S
H2054 C2060 0.930 . S
H2055 C2064 0.930 . S
H2056 C2069 0.929 . S
H2057 C2067 0.929 . S
H2058 C2062 0.929 . S
H2059 C2068 0.929 . S
C2060 H2054 0.930 . S
C2060 C2061 1.367 . S
C2060 C2068 1.378 . S
C2061 C2060 1.367 . S
C2061 C2069 1.433 . S
C2062 H2058 0.929 . S
C2062 C2064 1.378 . S
C2062 C2066 1.350 . S
C2063 C2066 1.463 . S
C2063 C2068 1.350 . S
C2063 N2071 1.427 . S
C2064 H2055 0.930 . S
C2064 C2062 1.378 . S
C2064 C2065 1.367 . S
C2065 C2064 1.367 . S
C2065 C2067 1.433 . S
C2066 C2062 1.350 . S
C2066 C2063 1.463 . S
C2066 N2070 1.427 . S
C2067 H2057 0.929 . S
C2067 C2065 1.433 . S
C2067 N2070 1.384 . S
C2068 H2059 0.929 . S
C2068 C2060 1.378 . S
C2068 C2063 1.350 . S
C2069 H2056 0.929 . S
C2069 C2061 1.433 . S
C2069 N2071 1.384 . S
N2070 C2066 1.427 . S
N2070 C2067 1.384 . S
N2071 C2063 1.427 . S
N2071 C2069 1.384 . S
H2072 C2078 0.930 . S
H2073 C2082 0.930 . S
H2074 C2087 0.929 . S
H2075 C2085 0.929 . S
H2076 C2080 0.929 . S
H2077 C2086 0.929 . S
C2078 H2072 0.930 . S
C2078 C2079 1.367 . S
C2078 C2086 1.378 . S
C2079 C2078 1.367 . S
C2079 C2087 1.433 . S
C2080 H2076 0.929 . S
C2080 C2082 1.378 . S
C2080 C2084 1.350 . S
C2081 C2084 1.463 . S
C2081 C2086 1.350 . S
C2081 N2089 1.427 . S
C2082 H2073 0.930 . S
C2082 C2080 1.378 . S
C2082 C2083 1.367 . S
C2083 C2082 1.367 . S
C2083 C2085 1.433 . S
C2084 C2080 1.350 . S
C2084 C2081 1.463 . S
C2084 N2088 1.427 . S
C2085 H2075 0.929 . S
C2085 C2083 1.433 . S
C2085 N2088 1.384 . S
C2086 H2077 0.929 . S
C2086 C2078 1.378 . S
C2086 C2081 1.350 . S
C2087 H2074 0.929 . S
C2087 C2079 1.433 . S
C2087 N2089 1.384 . S
N2088 C2084 1.427 . S
N2088 C2085 1.384 . S
N2089 C2081 1.427 . S
N2089 C2087 1.384 . S
H2090 C2096 0.930 . S
H2091 C2100 0.930 . S
H2092 C2105 0.929 . S
H2093 C2103 0.929 . S
H2094 C2098 0.929 . S
H2095 C2104 0.929 . S
C2096 H2090 0.930 . S
C2096 C2097 1.367 . S
C2096 C2104 1.378 . S
C2097 C2096 1.367 . S
C2097 C2105 1.433 . S
C2098 H2094 0.929 . S
C2098 C2100 1.378 . S
C2098 C2102 1.350 . S
C2099 C2102 1.463 . S
C2099 C2104 1.350 . S
C2099 N2107 1.427 . S
C2100 H2091 0.930 . S
C2100 C2098 1.378 . S
C2100 C2101 1.367 . S
C2101 C2100 1.367 . S
C2101 C2103 1.433 . S
C2102 C2098 1.350 . S
C2102 C2099 1.463 . S
C2102 N2106 1.427 . S
C2103 H2093 0.929 . S
C2103 C2101 1.433 . S
C2103 N2106 1.384 . S
C2104 H2095 0.929 . S
C2104 C2096 1.378 . S
C2104 C2099 1.350 . S
C2105 H2092 0.929 . S
C2105 C2097 1.433 . S
C2105 N2107 1.384 . S
N2106 C2102 1.427 . S
N2106 C2103 1.384 . S
N2107 C2099 1.427 . S
N2107 C2105 1.384 . S
H2108 C2114 0.930 . S
H2109 C2118 0.930 . S
H2110 C2123 0.933 . S
H2111 C2121 0.929 . S
H2112 C2116 0.929 . S
H2113 C2122 0.929 . S
C2114 H2108 0.930 . S
C2114 C2115 1.367 . S
C2114 C2122 1.378 . S
C2115 C2114 1.367 . S
C2115 C2123 1.427 1_455 S
C2116 H2112 0.929 . S
C2116 C2118 1.378 . S
C2116 C2120 1.352 1_655 S
C2117 C2120 1.462 . S
C2117 C2122 1.350 . S
C2117 N2125 1.427 1_455 S
C2118 H2109 0.930 . S
C2118 C2116 1.378 . S
C2118 C2119 1.367 . S
C2119 C2118 1.367 . S
C2119 C2121 1.433 1_655 S
C2120 C2116 1.352 1_455 S
C2120 C2117 1.462 . S
C2120 N2124 1.426 . S
C2121 H2111 0.929 . S
C2121 C2119 1.433 1_455 S
C2121 N2124 1.384 . S
C2122 H2113 0.929 . S
C2122 C2114 1.378 . S
C2122 C2117 1.350 . S
C2123 H2110 0.933 . S
C2123 C2115 1.427 1_655 S
C2123 N2125 1.386 . S
N2124 C2120 1.426 . S
N2124 C2121 1.384 . S
N2125 C2117 1.427 1_655 S
N2125 C2123 1.386 . S
H2126 C2132 0.930 . S
H2127 C2136 0.930 . S
H2128 C2141 0.929 . S
H2129 C2139 0.929 . S
H2130 C2134 0.929 . S
H2131 C2140 0.929 . S
C2132 H2126 0.930 . S
C2132 C2133 1.367 . S
C2132 C2140 1.378 . S
C2133 C2132 1.367 . S
C2133 C2141 1.433 . S
C2134 H2130 0.929 . S
C2134 C2136 1.378 . S
C2134 C2138 1.350 . S
C2135 C2138 1.463 . S
C2135 C2140 1.350 . S
C2135 N2143 1.427 . S
C2136 H2127 0.930 . S
C2136 C2134 1.378 . S
C2136 C2137 1.367 . S
C2137 C2136 1.367 . S
C2137 C2139 1.433 . S
C2138 C2134 1.350 . S
C2138 C2135 1.463 . S
C2138 N2142 1.427 . S
C2139 H2129 0.929 . S
C2139 C2137 1.433 . S
C2139 N2142 1.384 . S
C2140 H2131 0.929 . S
C2140 C2132 1.378 . S
C2140 C2135 1.350 . S
C2141 H2128 0.929 . S
C2141 C2133 1.433 . S
C2141 N2143 1.384 . S
N2142 C2138 1.427 . S
N2142 C2139 1.384 . S
N2143 C2135 1.427 . S
N2143 C2141 1.384 . S
H2144 C2150 0.930 . S
H2145 C2154 0.930 . S
H2146 C2159 0.929 . S
H2147 C2157 0.929 . S
H2148 C2152 0.929 . S
H2149 C2158 0.929 . S
C2150 H2144 0.930 . S
C2150 C2151 1.367 . S
C2150 C2158 1.378 . S
C2151 C2150 1.367 . S
C2151 C2159 1.433 . S
C2152 H2148 0.929 . S
C2152 C2154 1.378 . S
C2152 C2156 1.350 . S
C2153 C2156 1.463 . S
C2153 C2158 1.350 . S
C2153 N2161 1.427 . S
C2154 H2145 0.930 . S
C2154 C2152 1.378 . S
C2154 C2155 1.367 . S
C2155 C2154 1.367 . S
C2155 C2157 1.433 . S
C2156 C2152 1.350 . S
C2156 C2153 1.463 . S
C2156 N2160 1.427 . S
C2157 H2147 0.929 . S
C2157 C2155 1.433 . S
C2157 N2160 1.384 . S
C2158 H2149 0.929 . S
C2158 C2150 1.378 . S
C2158 C2153 1.350 . S
C2159 H2146 0.929 . S
C2159 C2151 1.433 . S
C2159 N2161 1.384 . S
N2160 C2156 1.427 . S
N2160 C2157 1.384 . S
N2161 C2153 1.427 . S
N2161 C2159 1.384 . S
H2162 C2168 0.930 . S
H2163 C2172 0.930 . S
H2164 C2177 0.929 . S
H2165 C2175 0.929 . S
H2166 C2170 0.929 . S
H2167 C2176 0.929 . S
C2168 H2162 0.930 . S
C2168 C2169 1.367 . S
C2168 C2176 1.378 . S
C2169 C2168 1.367 . S
C2169 C2177 1.433 . S
C2170 H2166 0.929 . S
C2170 C2172 1.378 . S
C2170 C2174 1.350 . S
C2171 C2174 1.463 . S
C2171 C2176 1.350 . S
C2171 N2179 1.427 . S
C2172 H2163 0.930 . S
C2172 C2170 1.378 . S
C2172 C2173 1.367 . S
C2173 C2172 1.367 . S
C2173 C2175 1.433 . S
C2174 C2170 1.350 . S
C2174 C2171 1.463 . S
C2174 N2178 1.427 . S
C2175 H2165 0.929 . S
C2175 C2173 1.433 . S
C2175 N2178 1.384 . S
C2176 H2167 0.929 . S
C2176 C2168 1.378 . S
C2176 C2171 1.350 . S
C2177 H2164 0.929 . S
C2177 C2169 1.433 . S
C2177 N2179 1.384 . S
N2178 C2174 1.427 . S
N2178 C2175 1.384 . S
N2179 C2171 1.427 . S
N2179 C2177 1.384 . S
H2180 C2186 0.930 . S
H2181 C2190 0.930 . S
H2182 C2195 0.929 . S
H2183 C2193 0.929 . S
H2184 C2188 0.929 . S
H2185 C2194 0.929 . S
C2186 H2180 0.930 . S
C2186 C2187 1.367 . S
C2186 C2194 1.378 . S
C2187 C2186 1.367 . S
C2187 C2195 1.433 . S
C2188 H2184 0.929 . S
C2188 C2190 1.378 . S
C2188 C2192 1.350 . S
C2189 C2192 1.463 . S
C2189 C2194 1.350 . S
C2189 N2197 1.427 . S
C2190 H2181 0.930 . S
C2190 C2188 1.378 . S
C2190 C2191 1.367 . S
C2191 C2190 1.367 . S
C2191 C2193 1.433 . S
C2192 C2188 1.350 . S
C2192 C2189 1.463 . S
C2192 N2196 1.427 . S
C2193 H2183 0.929 . S
C2193 C2191 1.433 . S
C2193 N2196 1.384 . S
C2194 H2185 0.929 . S
C2194 C2186 1.378 . S
C2194 C2189 1.350 . S
C2195 H2182 0.929 . S
C2195 C2187 1.433 . S
C2195 N2197 1.384 . S
N2196 C2192 1.427 . S
N2196 C2193 1.384 . S
N2197 C2189 1.427 . S
N2197 C2195 1.384 . S
H2198 C2204 0.930 . S
H2199 C2208 0.930 . S
H2200 C2213 0.929 . S
H2201 C2211 0.929 . S
H2202 C2206 0.929 . S
H2203 C2212 0.929 . S
C2204 H2198 0.930 . S
C2204 C2205 1.367 . S
C2204 C2212 1.378 . S
C2205 C2204 1.367 . S
C2205 C2213 1.433 . S
C2206 H2202 0.929 . S
C2206 C2208 1.378 . S
C2206 C2210 1.350 . S
C2207 C2210 1.463 . S
C2207 C2212 1.350 . S
C2207 N2215 1.427 . S
C2208 H2199 0.930 . S
C2208 C2206 1.378 . S
C2208 C2209 1.367 . S
C2209 C2208 1.367 . S
C2209 C2211 1.433 . S
C2210 C2206 1.350 . S
C2210 C2207 1.463 . S
C2210 N2214 1.427 . S
C2211 H2201 0.929 . S
C2211 C2209 1.433 . S
C2211 N2214 1.384 . S
C2212 H2203 0.929 . S
C2212 C2204 1.378 . S
C2212 C2207 1.350 . S
C2213 H2200 0.929 . S
C2213 C2205 1.433 . S
C2213 N2215 1.384 . S
N2214 C2210 1.427 . S
N2214 C2211 1.384 . S
N2215 C2207 1.427 . S
N2215 C2213 1.384 . S
H2216 C2222 0.930 . S
H2217 C2226 0.930 . S
H2218 C2231 0.929 . S
H2219 C2229 0.929 . S
H2220 C2224 0.929 . S
H2221 C2230 0.929 . S
C2222 H2216 0.930 . S
C2222 C2223 1.367 . S
C2222 C2230 1.378 . S
C2223 C2222 1.367 . S
C2223 C2231 1.433 . S
C2224 H2220 0.929 . S
C2224 C2226 1.378 . S
C2224 C2228 1.350 . S
C2225 C2228 1.463 . S
C2225 C2230 1.350 . S
C2225 N2233 1.427 . S
C2226 H2217 0.930 . S
C2226 C2224 1.378 . S
C2226 C2227 1.367 . S
C2227 C2226 1.367 . S
C2227 C2229 1.433 . S
C2228 C2224 1.350 . S
C2228 C2225 1.463 . S
C2228 N2232 1.427 . S
C2229 H2219 0.929 . S
C2229 C2227 1.433 . S
C2229 N2232 1.384 . S
C2230 H2221 0.929 . S
C2230 C2222 1.378 . S
C2230 C2225 1.350 . S
C2231 H2218 0.929 . S
C2231 C2223 1.433 . S
C2231 N2233 1.384 . S
N2232 C2228 1.427 . S
N2232 C2229 1.384 . S
N2233 C2225 1.427 . S
N2233 C2231 1.384 . S
H2234 C2240 0.930 . S
H2235 C2244 0.930 . S
H2236 C2249 0.929 . S
H2237 C2247 0.929 . S
H2238 C2242 0.929 . S
H2239 C2248 0.929 . S
C2240 H2234 0.930 . S
C2240 C2241 1.367 . S
C2240 C2248 1.378 . S
C2241 C2240 1.367 . S
C2241 C2249 1.433 . S
C2242 H2238 0.929 . S
C2242 C2244 1.378 . S
C2242 C2246 1.350 . S
C2243 C2246 1.463 . S
C2243 C2248 1.350 . S
C2243 N2251 1.427 . S
C2244 H2235 0.930 . S
C2244 C2242 1.378 . S
C2244 C2245 1.367 . S
C2245 C2244 1.367 . S
C2245 C2247 1.433 . S
C2246 C2242 1.350 . S
C2246 C2243 1.463 . S
C2246 N2250 1.427 . S
C2247 H2237 0.929 . S
C2247 C2245 1.433 . S
C2247 N2250 1.384 . S
C2248 H2239 0.929 . S
C2248 C2240 1.378 . S
C2248 C2243 1.350 . S
C2249 H2236 0.929 . S
C2249 C2241 1.433 . S
C2249 N2251 1.384 . S
N2250 C2246 1.427 . S
N2250 C2247 1.384 . S
N2251 C2243 1.427 . S
N2251 C2249 1.384 . S
H2252 C2258 0.930 . S
H2253 C2262 0.930 . S
H2254 C2267 0.929 . S
H2255 C2265 0.929 . S
H2256 C2260 0.929 . S
H2257 C2266 0.929 . S
C2258 H2252 0.930 . S
C2258 C2259 1.367 . S
C2258 C2266 1.378 . S
C2259 C2258 1.367 . S
C2259 C2267 1.433 . S
C2260 H2256 0.929 . S
C2260 C2262 1.378 . S
C2260 C2264 1.350 . S
C2261 C2264 1.463 . S
C2261 C2266 1.350 . S
C2261 N2269 1.427 . S
C2262 H2253 0.930 . S
C2262 C2260 1.378 . S
C2262 C2263 1.367 . S
C2263 C2262 1.367 . S
C2263 C2265 1.433 . S
C2264 C2260 1.350 . S
C2264 C2261 1.463 . S
C2264 N2268 1.427 . S
C2265 H2255 0.929 . S
C2265 C2263 1.433 . S
C2265 N2268 1.384 . S
C2266 H2257 0.929 . S
C2266 C2258 1.378 . S
C2266 C2261 1.350 . S
C2267 H2254 0.929 . S
C2267 C2259 1.433 . S
C2267 N2269 1.384 . S
N2268 C2264 1.427 . S
N2268 C2265 1.384 . S
N2269 C2261 1.427 . S
N2269 C2267 1.384 . S
H2270 C2276 0.930 . S
H2271 C2280 0.930 . S
H2272 C2285 0.929 . S
H2273 C2283 0.929 . S
H2274 C2278 0.929 . S
H2275 C2284 0.929 . S
C2276 H2270 0.930 . S
C2276 C2277 1.367 . S
C2276 C2284 1.378 . S
C2277 C2276 1.367 . S
C2277 C2285 1.433 . S
C2278 H2274 0.929 . S
C2278 C2280 1.378 . S
C2278 C2282 1.350 . S
C2279 C2282 1.463 . S
C2279 C2284 1.350 . S
C2279 N2287 1.427 . S
C2280 H2271 0.930 . S
C2280 C2278 1.378 . S
C2280 C2281 1.367 . S
C2281 C2280 1.367 . S
C2281 C2283 1.433 . S
C2282 C2278 1.350 . S
C2282 C2279 1.463 . S
C2282 N2286 1.427 . S
C2283 H2273 0.929 . S
C2283 C2281 1.433 . S
C2283 N2286 1.384 . S
C2284 H2275 0.929 . S
C2284 C2276 1.378 . S
C2284 C2279 1.350 . S
C2285 H2272 0.929 . S
C2285 C2277 1.433 . S
C2285 N2287 1.384 . S
N2286 C2282 1.427 . S
N2286 C2283 1.384 . S
N2287 C2279 1.427 . S
N2287 C2285 1.384 . S
H2288 C2294 0.930 . S
H2289 C2298 0.930 . S
H2290 C2303 0.929 . S
H2291 C2301 0.929 . S
H2292 C2296 0.929 . S
H2293 C2302 0.929 . S
C2294 H2288 0.930 . S
C2294 C2295 1.367 . S
C2294 C2302 1.378 . S
C2295 C2294 1.367 . S
C2295 C2303 1.433 . S
C2296 H2292 0.929 . S
C2296 C2298 1.378 . S
C2296 C2300 1.350 . S
C2297 C2300 1.463 . S
C2297 C2302 1.350 . S
C2297 N2305 1.427 . S
C2298 H2289 0.930 . S
C2298 C2296 1.378 . S
C2298 C2299 1.367 . S
C2299 C2298 1.367 . S
C2299 C2301 1.433 . S
C2300 C2296 1.350 . S
C2300 C2297 1.463 . S
C2300 N2304 1.427 . S
C2301 H2291 0.929 . S
C2301 C2299 1.433 . S
C2301 N2304 1.384 . S
C2302 H2293 0.929 . S
C2302 C2294 1.378 . S
C2302 C2297 1.350 . S
C2303 H2290 0.929 . S
C2303 C2295 1.433 . S
C2303 N2305 1.384 . S
N2304 C2300 1.427 . S
N2304 C2301 1.384 . S
N2305 C2297 1.427 . S
N2305 C2303 1.384 . S
H2306 C2312 0.930 . S
H2307 C2316 0.930 . S
H2308 C2321 0.929 . S
H2309 C2319 0.929 . S
H2310 C2314 0.929 . S
H2311 C2320 0.929 . S
C2312 H2306 0.930 . S
C2312 C2313 1.367 . S
C2312 C2320 1.378 . S
C2313 C2312 1.367 . S
C2313 C2321 1.433 . S
C2314 H2310 0.929 . S
C2314 C2316 1.378 . S
C2314 C2318 1.350 . S
C2315 C2318 1.463 . S
C2315 C2320 1.350 . S
C2315 N2323 1.427 . S
C2316 H2307 0.930 . S
C2316 C2314 1.378 . S
C2316 C2317 1.367 . S
C2317 C2316 1.367 . S
C2317 C2319 1.433 . S
C2318 C2314 1.350 . S
C2318 C2315 1.463 . S
C2318 N2322 1.427 . S
C2319 H2309 0.929 . S
C2319 C2317 1.433 . S
C2319 N2322 1.384 . S
C2320 H2311 0.929 . S
C2320 C2312 1.378 . S
C2320 C2315 1.350 . S
C2321 H2308 0.929 . S
C2321 C2313 1.433 . S
C2321 N2323 1.384 . S
N2322 C2318 1.427 . S
N2322 C2319 1.384 . S
N2323 C2315 1.427 . S
N2323 C2321 1.384 . S
H2324 C2330 0.930 . S
H2325 C2334 0.930 . S
H2326 C2339 0.929 . S
H2327 C2337 0.929 . S
H2328 C2332 0.929 . S
H2329 C2338 0.929 . S
C2330 H2324 0.930 . S
C2330 C2331 1.367 . S
C2330 C2338 1.378 . S
C2331 C2330 1.367 . S
C2331 C2339 1.433 . S
C2332 H2328 0.929 . S
C2332 C2334 1.378 . S
C2332 C2336 1.350 . S
C2333 C2336 1.463 . S
C2333 C2338 1.350 . S
C2333 N2341 1.427 . S
C2334 H2325 0.930 . S
C2334 C2332 1.378 . S
C2334 C2335 1.367 . S
C2335 C2334 1.367 . S
C2335 C2337 1.433 . S
C2336 C2332 1.350 . S
C2336 C2333 1.463 . S
C2336 N2340 1.427 . S
C2337 H2327 0.929 . S
C2337 C2335 1.433 . S
C2337 N2340 1.384 . S
C2338 H2329 0.929 . S
C2338 C2330 1.378 . S
C2338 C2333 1.350 . S
C2339 H2326 0.929 . S
C2339 C2331 1.433 . S
C2339 N2341 1.384 . S
N2340 C2336 1.427 . S
N2340 C2337 1.384 . S
N2341 C2333 1.427 . S
N2341 C2339 1.384 . S
H2342 C2348 0.930 . S
H2343 C2352 0.930 . S
H2344 C2357 0.929 . S
H2345 C2355 0.929 . S
H2346 C2350 0.929 . S
H2347 C2356 0.929 . S
C2348 H2342 0.930 . S
C2348 C2349 1.367 . S
C2348 C2356 1.378 . S
C2349 C2348 1.367 . S
C2349 C2357 1.433 1_554 S
C2350 H2346 0.929 . S
C2350 C2352 1.378 . S
C2350 C2354 1.350 1_556 S
C2351 C2354 1.463 . S
C2351 C2356 1.350 . S
C2351 N2359 1.427 1_554 S
C2352 H2343 0.930 . S
C2352 C2350 1.378 . S
C2352 C2353 1.367 . S
C2353 C2352 1.367 . S
C2353 C2355 1.433 1_556 S
C2354 C2350 1.350 1_554 S
C2354 C2351 1.463 . S
C2354 N2358 1.427 . S
C2355 H2345 0.929 . S
C2355 C2353 1.433 1_554 S
C2355 N2358 1.384 . S
C2356 H2347 0.929 . S
C2356 C2348 1.378 . S
C2356 C2351 1.350 . S
C2357 H2344 0.929 . S
C2357 C2349 1.433 1_556 S
C2357 N2359 1.384 . S
N2358 C2354 1.427 . S
N2358 C2355 1.384 . S
N2359 C2351 1.427 1_556 S
N2359 C2357 1.384 . S
H2360 C2366 0.930 . S
H2361 C2370 0.930 . S
H2362 C2375 0.929 . S
H2363 C2373 0.929 . S
H2364 C2368 0.929 . S
H2365 C2374 0.929 . S
C2366 H2360 0.930 . S
C2366 C2367 1.367 . S
C2366 C2374 1.378 . S
C2367 C2366 1.367 . S
C2367 C2375 1.433 . S
C2368 H2364 0.929 . S
C2368 C2370 1.378 . S
C2368 C2372 1.350 . S
C2369 C2372 1.463 . S
C2369 C2374 1.350 . S
C2369 N2377 1.427 . S
C2370 H2361 0.930 . S
C2370 C2368 1.378 . S
C2370 C2371 1.367 . S
C2371 C2370 1.367 . S
C2371 C2373 1.433 . S
C2372 C2368 1.350 . S
C2372 C2369 1.463 . S
C2372 N2376 1.427 . S
C2373 H2363 0.929 . S
C2373 C2371 1.433 . S
C2373 N2376 1.384 . S
C2374 H2365 0.929 . S
C2374 C2366 1.378 . S
C2374 C2369 1.350 . S
C2375 H2362 0.929 . S
C2375 C2367 1.433 . S
C2375 N2377 1.384 . S
N2376 C2372 1.427 . S
N2376 C2373 1.384 . S
N2377 C2369 1.427 . S
N2377 C2375 1.384 . S
H2378 C2384 0.930 . S
H2379 C2388 0.930 . S
H2380 C2393 0.929 1_556 S
H2381 C2391 0.929 . S
H2382 C2386 0.929 . S
H2383 C2392 0.929 . S
C2384 H2378 0.930 . S
C2384 C2385 1.367 . S
C2384 C2392 1.378 . S
C2385 C2384 1.367 . S
C2385 C2393 1.433 . S
C2386 H2382 0.929 . S
C2386 C2388 1.378 . S
C2386 C2390 1.350 . S
C2387 C2390 1.463 . S
C2387 C2392 1.350 . S
C2387 N2395 1.427 . S
C2388 H2379 0.930 . S
C2388 C2386 1.378 . S
C2388 C2389 1.367 . S
C2389 C2388 1.367 . S
C2389 C2391 1.433 . S
C2390 C2386 1.350 . S
C2390 C2387 1.463 . S
C2390 N2394 1.427 . S
C2391 H2381 0.929 . S
C2391 C2389 1.433 . S
C2391 N2394 1.384 . S
C2392 H2383 0.929 . S
C2392 C2384 1.378 . S
C2392 C2387 1.350 . S
C2393 H2380 0.929 1_554 S
C2393 C2385 1.433 . S
C2393 N2395 1.384 . S
N2394 C2390 1.427 . S
N2394 C2391 1.384 . S
N2395 C2387 1.427 . S
N2395 C2393 1.384 . S
H2396 C2402 0.930 . S
H2397 C2406 0.930 . S
H2398 C2411 0.929 . S
H2399 C2409 0.929 . S
H2400 C2404 0.929 . S
H2401 C2410 0.929 . S
C2402 H2396 0.930 . S
C2402 C2403 1.367 . S
C2402 C2410 1.378 . S
C2403 C2402 1.367 . S
C2403 C2411 1.433 . S
C2404 H2400 0.929 . S
C2404 C2406 1.378 . S
C2404 C2408 1.350 . S
C2405 C2408 1.463 . S
C2405 C2410 1.350 . S
C2405 N2413 1.427 . S
C2406 H2397 0.930 . S
C2406 C2404 1.378 . S
C2406 C2407 1.367 . S
C2407 C2406 1.367 . S
C2407 C2409 1.433 . S
C2408 C2404 1.350 . S
C2408 C2405 1.463 . S
C2408 N2412 1.427 . S
C2409 H2399 0.929 . S
C2409 C2407 1.433 . S
C2409 N2412 1.384 . S
C2410 H2401 0.929 . S
C2410 C2402 1.378 . S
C2410 C2405 1.350 . S
C2411 H2398 0.929 . S
C2411 C2403 1.433 . S
C2411 N2413 1.384 . S
N2412 C2408 1.427 . S
N2412 C2409 1.384 . S
N2413 C2405 1.427 . S
N2413 C2411 1.384 . S
H2414 C2420 0.930 . S
H2415 C2424 0.930 . S
H2416 C2429 0.929 . S
H2417 C2427 0.929 . S
H2418 C2422 0.929 . S
H2419 C2428 0.929 . S
C2420 H2414 0.930 . S
C2420 C2421 1.367 . S
C2420 C2428 1.378 . S
C2421 C2420 1.367 . S
C2421 C2429 1.433 . S
C2422 H2418 0.929 . S
C2422 C2424 1.378 . S
C2422 C2426 1.350 . S
C2423 C2426 1.463 . S
C2423 C2428 1.350 . S
C2423 N2431 1.427 . S
C2424 H2415 0.930 . S
C2424 C2422 1.378 . S
C2424 C2425 1.367 . S
C2425 C2424 1.367 . S
C2425 C2427 1.433 . S
C2426 C2422 1.350 . S
C2426 C2423 1.463 . S
C2426 N2430 1.427 . S
C2427 H2417 0.929 . S
C2427 C2425 1.433 . S
C2427 N2430 1.384 . S
C2428 H2419 0.929 . S
C2428 C2420 1.378 . S
C2428 C2423 1.350 . S
C2429 H2416 0.929 . S
C2429 C2421 1.433 . S
C2429 N2431 1.384 . S
N2430 C2426 1.427 . S
N2430 C2427 1.384 . S
N2431 C2423 1.427 . S
N2431 C2429 1.384 . S
C715 C352 1.280 . S
C711 C8 1.272 . S
C729 C22 1.750 . S
C733 C380 1.594 . S
C747 C35 0.993 . S
C751 C398 0.992 . S
C769 C424 1.331 . S
C765 C49 1.426 . S
C783 C23 1.868 . S
C787 C447 1.676 . S
C805 C467 0.972 . S
C801 C34 0.964 . S
C823 C495 1.242 . S
C819 C48 1.313 . S
C837 C9 1.297 . S
C841 C513 1.293 . S
C855 C64 1.475 . S
C859 C354 1.492 . S
C873 C77 1.026 . S
C877 C376 1.040 . S
C895 C400 1.617 . S
C891 C92 1.597 . S
C913 C421 1.236 . S
C909 C105 1.215 . S
C927 C63 1.102 . S
C931 C444 1.116 . S
C949 C469 1.627 . S
C945 C78 1.613 . S
C967 C491 1.155 . S
C963 C91 1.135 . S
C985 C515 1.482 . S
C981 C106 1.466 . S
C1003 C355 1.080 . S
C999 C107 1.184 . S
C1021 C538 1.120 . S
C1017 C118 1.089 . S
C1035 C135 1.319 . S
C1039 C562 1.207 . S
C1057 C586 1.180 . S
C1053 C146 1.178 . S
C1071 C65 1.190 . S
C1075 C516 1.106 . S
C1093 C401 1.174 1_565 S
C1089 C79 1.311 . S
C1107 C132 1.175 . S
C1111 C607 1.220 . S
C1129 C632 1.096 . S
C1125 C160 1.100 . S
C1143 C177 1.293 . S
C1147 C353 1.265 1_556 S
C1165 C630 0.937 . S
C1161 C188 0.924 . S
C1179 C204 1.341 . S
C1183 C399 1.317 . S
C1197 C219 1.074 . S
C1201 C609 1.040 . S
C1219 C448 1.083 . S
C1215 C190 1.116 . S
C1237 C560 1.069 . S
C1233 C202 1.057 . S
C1255 C492 0.970 . S
C1251 C217 0.961 . S
C1273 C652 1.073 . S
C1269 C175 1.064 . S
C1291 C357 0.922 . S
C1287 C231 0.925 . S
C1305 C246 1.484 . S
C1309 C628 1.449 . S
C1327 C403 0.889 . S
C1323 C259 0.893 . S
C1341 C274 1.442 . S
C1345 C606 1.408 . S
C1359 C232 1.433 . S
C1363 C445 1.399 . S
C1377 C245 0.914 . S
C1381 C564 0.890 . S
C1399 C490 1.315 . S
C1395 C260 1.351 . S
C1413 C273 0.909 . S
C1417 C656 0.861 . S
C1431 C275 1.511 . S
C1435 C356 1.443 . S
C1449 C286 1.209 . S
C1453 C541 1.166 . S
C1467 C303 1.472 . S
C1471 C471 1.426 . S
C1485 C314 1.109 . S
C1489 C585 1.063 . S
C1507 C655 1.389 . S
C1503 C233 1.459 . S
C1525 C402 1.422 . S
C1521 C247 1.482 . S
C1543 C426 1.104 . S
C1539 C300 1.130 . S
C1561 C378 1.090 . S
C1557 C328 1.178 . S
C1575 C36 1.277 . S
C1579 C674 1.274 . S
C1597 C633 1.619 . S
C1593 C50 1.757 . S
C1615 C697 0.987 . S
C1611 C7 0.990 . S
C1629 C21 1.430 . S
C1633 C608 1.330 . S
C1647 C51 1.873 . S
C1651 C539 1.682 . S
C1669 C559 0.980 . S
C1665 C6 0.969 . S
C1687 C587 1.249 . S
C1683 C20 1.319 . S
C1705 C651 1.281 . S
C1701 C37 1.281 . S
C1723 C676 1.460 . S
C1719 C162 1.457 . S
C1737 C119 1.021 . S
C1741 C629 1.036 . S
C1755 C134 1.587 . S
C1759 C699 1.589 . S
C1777 C605 1.223 . S
C1773 C147 1.204 . S
C1795 C536 1.112 . S
C1791 C161 1.089 . S
C1809 C120 1.596 . S
C1813 C561 1.606 . S
C1831 C583 1.138 . S
C1827 C133 1.109 . S
C1845 C148 1.444 . S
C1849 C653 1.444 . S
C1867 C677 1.140 . S
C1863 C149 1.207 . S
C1885 C446 1.065 . S
C1881 C76 1.024 . S
C1903 C470 1.179 . S
C1899 C93 1.315 . S
C1917 C104 1.132 . S
C1921 C494 1.134 . S
C1939 C654 1.132 . S
C1935 C163 1.206 . S
C1953 C121 1.318 . S
C1957 C700 1.224 . S
C1975 C423 1.155 . S
C1971 C90 1.127 . S
C1993 C379 1.037 . S
C1989 C62 1.033 . S
C2007 C203 1.028 . S
C2011 C675 1.047 . S
C2029 C377 0.974 . S
C2025 C216 0.967 . S
C2047 C698 1.092 . S
C2043 C174 1.073 . S
C2061 C191 1.114 . S
C2065 C425 1.082 . S
C2079 C218 1.071 . S
C2083 C540 1.033 . S
C2097 C176 1.316 . S
C2101 C468 1.287 . S
C2115 C189 0.930 . S
C2119 C584 0.925 . S
C2133 C205 1.318 . S
C2137 C514 1.302 . S
C2155 C679 0.879 . S
C2151 C329 0.933 . S
C2169 C288 1.422 . S
C2173 C375 1.383 . S
C2191 C702 0.883 . S
C2187 C301 0.909 . S
C2205 C316 1.368 . S
C2209 C422 1.342 . S
C2223 C330 1.498 . S
C2227 C537 1.474 . S
C2245 C472 0.890 . S
C2241 C287 0.931 . S
C2259 C302 1.418 . S
C2263 C582 1.382 . S
C2281 C518 0.877 . S
C2277 C315 0.895 . S
C2299 C678 1.392 . S
C2295 C317 1.448 . S
C2317 C449 1.144 . S
C2313 C244 1.197 . S
C2331 C261 1.405 . S
C2335 C563 1.348 . S
C2353 C493 1.057 1_556 S
C2349 C272 1.107 . S
C2371 C517 1.471 . S
C2367 C331 1.525 . S
C2385 C289 1.411 . S
C2389 C701 1.349 . S
C2407 C610 1.123 . S
C2403 C258 1.146 . S
C2425 C631 1.109 . S
C2421 C230 1.181 . S
