# Generated by pormake.
# Topology apo, (3,6)-cn, num edge types: 1
# Building blocks:
#     Node 0, Type 0, BuildingBlock: WUSLED_clean_sbu_0, # of connection points: 3
#     Node 1, Type 0, BuildingBlock: WUSLED_clean_sbu_0, # of connection points: 3
#     Node 2, Type 0, BuildingBlock: WUSLED_clean_sbu_0, # of connection points: 3
#     Node 3, Type 0, BuildingBlock: WUSLED_clean_sbu_0, # of connection points: 3
#     Node 4, Type 0, BuildingBlock: WUSLED_clean_sbu_0, # of connection points: 3
#     Node 5, Type 0, BuildingBlock: WUSLED_clean_sbu_0, # of connection points: 3
#     Node 6, Type 0, BuildingBlock: WUSLED_clean_sbu_0, # of connection points: 3
#     Node 7, Type 0, BuildingBlock: WUSLED_clean_sbu_0, # of connection points: 3
#     Node 8, Type 1, BuildingBlock: MIDCAF_clean_sbu_0, # of connection points: 6
#     Node 9, Type 1, BuildingBlock: MIDCAF_clean_sbu_0, # of connection points: 6
#     Node 10, Type 1, BuildingBlock: MIDCAF_clean_sbu_0, # of connection points: 6
#     Node 11, Type 1, BuildingBlock: MIDCAF_clean_sbu_0, # of connection points: 6
#     Edge 12, Type (0, 1), BuildingBlock: MIFKUJ_clean_linker_0, # of connection points: 2
#     Edge 13, Type (0, 1), BuildingBlock: MIFKUJ_clean_linker_0, # of connection points: 2
#     Edge 14, Type (0, 1), BuildingBlock: MIFKUJ_clean_linker_0, # of connection points: 2
#     Edge 15, Type (0, 1), BuildingBlock: MIFKUJ_clean_linker_0, # of connection points: 2
#     Edge 16, Type (0, 1), BuildingBlock: MIFKUJ_clean_linker_0, # of connection points: 2
#     Edge 17, Type (0, 1), BuildingBlock: MIFKUJ_clean_linker_0, # of connection points: 2
#     Edge 18, Type (0, 1), BuildingBlock: MIFKUJ_clean_linker_0, # of connection points: 2
#     Edge 19, Type (0, 1), BuildingBlock: MIFKUJ_clean_linker_0, # of connection points: 2
#     Edge 20, Type (0, 1), BuildingBlock: MIFKUJ_clean_linker_0, # of connection points: 2
#     Edge 21, Type (0, 1), BuildingBlock: MIFKUJ_clean_linker_0, # of connection points: 2
#     Edge 22, Type (0, 1), BuildingBlock: MIFKUJ_clean_linker_0, # of connection points: 2
#     Edge 23, Type (0, 1), BuildingBlock: MIFKUJ_clean_linker_0, # of connection points: 2
#     Edge 24, Type (0, 1), BuildingBlock: MIFKUJ_clean_linker_0, # of connection points: 2
#     Edge 25, Type (0, 1), BuildingBlock: MIFKUJ_clean_linker_0, # of connection points: 2
#     Edge 26, Type (0, 1), BuildingBlock: MIFKUJ_clean_linker_0, # of connection points: 2
#     Edge 27, Type (0, 1), BuildingBlock: MIFKUJ_clean_linker_0, # of connection points: 2
#     Edge 28, Type (0, 1), BuildingBlock: MIFKUJ_clean_linker_0, # of connection points: 2
#     Edge 29, Type (0, 1), BuildingBlock: MIFKUJ_clean_linker_0, # of connection points: 2
#     Edge 30, Type (0, 1), BuildingBlock: MIFKUJ_clean_linker_0, # of connection points: 2
#     Edge 31, Type (0, 1), BuildingBlock: MIFKUJ_clean_linker_0, # of connection points: 2
#     Edge 32, Type (0, 1), BuildingBlock: MIFKUJ_clean_linker_0, # of connection points: 2
#     Edge 33, Type (0, 1), BuildingBlock: MIFKUJ_clean_linker_0, # of connection points: 2
#     Edge 34, Type (0, 1), BuildingBlock: MIFKUJ_clean_linker_0, # of connection points: 2
#     Edge 35, Type (0, 1), BuildingBlock: MIFKUJ_clean_linker_0, # of connection points: 2
# Relax obj value: 0.082
# Max RMSD: 0.098
# Mean RMSD: 0.087
data_MOF--net-apo--node1-WUSLED_clean_sbu_0--node2-MIDCAF_clean_sbu_0--edge1-MIFKUJ_clean_linker_0
_symmetry_space_group_name_H-M    P1
_symmetry_Int_Tables_number       1
_symmetry_cell_setting            triclinic
loop_
_symmetry_equiv_pos_as_xyz
'x, y, z'
_cell_length_a     56.035735
_cell_length_b     66.635387
_cell_length_c     59.633329
_cell_angle_alpha  90.329997
_cell_angle_beta   89.987414
_cell_angle_gamma 90.212521
loop_
_atom_site_label
_atom_site_type_symbol
_atom_site_fract_x
_atom_site_fract_y
_atom_site_fract_z
_atom_type_partial_charge
C0 C 0.33806 0.39287 0.3539 0.0
C1 C 0.35032 0.4045 0.36991 0.0
C2 C 0.36428 0.42721 0.34064 0.0
C3 C 0.36325 0.42154 0.36336 0.0
C4 C 0.3521 0.41532 0.32471 0.0
C5 C 0.33912 0.39837 0.33129 0.0
U6 U 0.32236 0.35218 0.39619 0.0
O7 O 0.28767 0.33918 0.4058 0.0
O8 O 0.31545 0.31988 0.39142 0.0
C9 C 0.29332 0.32113 0.39861 0.0
C10 C 0.32424 0.37493 0.3604 0.0
C11 C 0.27505 0.31053 0.38517 0.0
C12 C 0.25183 0.30565 0.35101 0.0
C13 C 0.26959 0.31604 0.36306 0.0
C14 C 0.2449 0.28426 0.38308 0.0
C15 C 0.23914 0.28973 0.361 0.0
C16 C 0.26267 0.29452 0.39498 0.0
C17 C 0.35733 0.35552 0.45264 0.0
C18 C 0.35359 0.33413 0.48541 0.0
C19 C 0.38112 0.36228 0.48586 0.0
C20 C 0.37459 0.36699 0.46395 0.0
C21 C 0.37064 0.3459 0.49678 0.0
C22 C 0.34684 0.33899 0.46342 0.0
C23 C 0.35063 0.36161 0.42984 0.0
O24 O 0.33663 0.35834 0.36249 0.0
O25 O 0.30868 0.37757 0.37665 0.0
O26 O 0.32912 0.36905 0.42739 0.0
O27 O 0.35696 0.34956 0.41339 0.0
H28 H 0.34979 0.40045 0.38748 0.0
H29 H 0.37214 0.43041 0.37616 0.0
H30 H 0.35282 0.41892 0.30704 0.0
H31 H 0.32992 0.3895 0.31867 0.0
H32 H 0.24772 0.31028 0.33408 0.0
H33 H 0.27895 0.3284 0.3552 0.0
H34 H 0.23575 0.27189 0.39112 0.0
H35 H 0.26671 0.28997 0.41197 0.0
H36 H 0.34525 0.32148 0.49367 0.0
H37 H 0.39436 0.37148 0.49434 0.0
H38 H 0.3829 0.37975 0.45587 0.0
H39 H 0.33342 0.33001 0.45493 0.0
C40 C 0.15789 0.18199 0.95586 0.0
C41 C 0.13929 0.16791 0.95805 0.0
C42 C 0.13482 0.17678 0.99763 0.0
C43 C 0.12774 0.1654 0.97877 0.0
C44 C 0.15305 0.19116 0.99507 0.0
C45 C 0.16444 0.19371 0.97443 0.0
U46 U 0.17442 0.16459 0.89649 0.0
O47 O 0.18384 0.18203 0.86641 0.0
O48 O 0.20978 0.1611 0.88084 0.0
C49 C 0.20554 0.1746 0.86538 0.0
C50 C 0.17157 0.18408 0.93484 0.0
C51 C 0.22537 0.18846 0.85989 0.0
C52 C 0.24678 0.22034 0.86287 0.0
C53 C 0.22805 0.20758 0.8697 0.0
C54 C 0.26042 0.1948 0.83692 0.0
C55 C 0.26302 0.2142 0.84609 0.0
C56 C 0.24184 0.1822 0.84367 0.0
C57 C 0.13937 0.11687 0.87563 0.0
C58 C 0.14219 0.09795 0.84063 0.0
C59 C 0.1155 0.08682 0.87004 0.0
C60 C 0.12258 0.10298 0.88341 0.0
C61 C 0.125 0.08414 0.84842 0.0
C62 C 0.14929 0.1143 0.85415 0.0
C63 C 0.14601 0.13348 0.89082 0.0
O64 O 0.18717 0.16983 0.93091 0.0
O65 O 0.15939 0.18917 0.91691 0.0
O66 O 0.14031 0.15176 0.88469 0.0
O67 O 0.16703 0.13236 0.90046 0.0
H68 H 0.13402 0.15866 0.94389 0.0
H69 H 0.1138 0.15418 0.9802 0.0
H70 H 0.15862 0.20043 0.00911 0.0
H71 H 0.17868 0.20467 0.97307 0.0
H72 H 0.24815 0.23516 0.87032 0.0
H73 H 0.21558 0.21271 0.88236 0.0
H74 H 0.27282 0.18924 0.82445 0.0
H75 H 0.24022 0.16748 0.83599 0.0
H76 H 0.14983 0.09625 0.82404 0.0
H77 H 0.10266 0.07626 0.87678 0.0
H78 H 0.1149 0.10459 0.90001 0.0
H79 H 0.16239 0.12487 0.8479 0.0
C80 C 0.83221 0.10566 0.65767 0.0
C81 C 0.84437 0.09393 0.64169 0.0
C82 C 0.85955 0.0723 0.6713 0.0
C83 C 0.85782 0.07731 0.64845 0.0
C84 C 0.84738 0.08415 0.68715 0.0
C85 C 0.83382 0.10062 0.68038 0.0
U86 U 0.81637 0.14673 0.61584 0.0
O87 O 0.78164 0.15961 0.60637 0.0
O88 O 0.80933 0.17885 0.62133 0.0
C89 C 0.78726 0.17758 0.61395 0.0
C90 C 0.81811 0.12334 0.65111 0.0
C91 C 0.76888 0.1881 0.62726 0.0
C92 C 0.74886 0.19613 0.66246 0.0
C93 C 0.76598 0.18508 0.6504 0.0
C94 C 0.73717 0.21288 0.62829 0.0
C95 C 0.73435 0.21036 0.65157 0.0
C96 C 0.75426 0.20196 0.61636 0.0
C97 C 0.85307 0.14505 0.55996 0.0
C98 C 0.84546 0.15856 0.52279 0.0
C99 C 0.88412 0.14452 0.53159 0.0
C100 C 0.87637 0.14043 0.55331 0.0
C101 C 0.86866 0.15323 0.51587 0.0
C102 C 0.83768 0.15446 0.5447 0.0
C103 C 0.84532 0.13851 0.58238 0.0
O104 O 0.83015 0.14024 0.6496 0.0
O105 O 0.80295 0.12063 0.63453 0.0
O106 O 0.82373 0.13089 0.58414 0.0
O107 O 0.85139 0.15004 0.59941 0.0
H108 H 0.84352 0.09768 0.62406 0.0
H109 H 0.86717 0.06858 0.63587 0.0
H110 H 0.84814 0.08055 0.70483 0.0
H111 H 0.82459 0.10947 0.69295 0.0
H112 H 0.74737 0.19381 0.68036 0.0
H113 H 0.77709 0.17441 0.65914 0.0
H114 H 0.72605 0.22324 0.61912 0.0
H115 H 0.75615 0.20445 0.59851 0.0
H116 H 0.83308 0.16527 0.5111 0.0
H117 H 0.90226 0.14065 0.52708 0.0
H118 H 0.88853 0.13322 0.56485 0.0
H119 H 0.81959 0.15818 0.54953 0.0
C120 C 0.66162 0.32412 0.05687 0.0
C121 C 0.64252 0.33762 0.05488 0.0
C122 C 0.63876 0.32939 0.01509 0.0
C123 C 0.63108 0.34016 0.03415 0.0
C124 C 0.65762 0.31569 0.01739 0.0
C125 C 0.6689 0.3131 0.03805 0.0
U126 U 0.67718 0.34134 0.11643 0.0
O127 O 0.68606 0.3239 0.14658 0.0
O128 O 0.71228 0.34498 0.13256 0.0
C129 C 0.70781 0.33133 0.14783 0.0
C130 C 0.67497 0.32194 0.07801 0.0
C131 C 0.72746 0.31737 0.15307 0.0
C132 C 0.74749 0.28497 0.15071 0.0
C133 C 0.729 0.29788 0.14402 0.0
C134 C 0.76325 0.3111 0.17491 0.0
C135 C 0.76467 0.29134 0.16657 0.0
C136 C 0.74488 0.32385 0.16832 0.0
C137 C 0.64327 0.38864 0.13798 0.0
C138 C 0.64937 0.4071 0.1729 0.0
C139 C 0.62083 0.419 0.14553 0.0
C140 C 0.62622 0.4028 0.13156 0.0
C141 C 0.6324 0.42134 0.16621 0.0
C142 C 0.65483 0.39077 0.15879 0.0
C143 C 0.64896 0.3724 0.12206 0.0
O144 O 0.69055 0.33624 0.08221 0.0
O145 O 0.66247 0.31673 0.09574 0.0
O146 O 0.64298 0.35406 0.12789 0.0
O147 O 0.66994 0.3735 0.11233 0.0
H148 H 0.63672 0.34637 0.06924 0.0
H149 H 0.61665 0.35087 0.0329 0.0
H150 H 0.66368 0.30692 1.00316 0.0
H151 H 0.68357 0.30261 0.03927 0.0
H152 H 0.74795 0.26987 0.14391 0.0
H153 H 0.71579 0.29258 0.13211 0.0
H154 H 0.7764 0.31682 0.18664 0.0
H155 H 0.74413 0.33885 0.1754 0.0
H156 H 0.65841 0.40869 0.18887 0.0
H157 H 0.60766 0.42983 0.14014 0.0
H158 H 0.61719 0.40143 0.11555 0.0
H159 H 0.66811 0.37998 0.16399 0.0
C160 C 0.66723 0.61554 0.65948 0.0
C161 C 0.65466 0.60433 0.64331 0.0
C162 C 0.64297 0.57986 0.6717 0.0
C163 C 0.64271 0.58663 0.64933 0.0
C164 C 0.65507 0.59157 0.68788 0.0
C165 C 0.66712 0.60914 0.6818 0.0
U166 U 0.68265 0.65719 0.61826 0.0
O167 O 0.69139 0.68913 0.62374 0.0
O168 O 0.71754 0.66917 0.60781 0.0
C169 C 0.71314 0.68723 0.61573 0.0
C170 C 0.68112 0.63353 0.6533 0.0
C171 C 0.73245 0.69683 0.6288 0.0
C172 C 0.76056 0.69769 0.65998 0.0
C173 C 0.74175 0.68823 0.6484 0.0
C174 C 0.76063 0.72445 0.63267 0.0
C175 C 0.77013 0.71597 0.65224 0.0
C176 C 0.74207 0.71495 0.62106 0.0
C177 C 0.64551 0.65579 0.56278 0.0
C178 C 0.65369 0.67067 0.52638 0.0
C179 C 0.61681 0.65243 0.53254 0.0
C180 C 0.62351 0.6489 0.55467 0.0
C181 C 0.63205 0.66288 0.51793 0.0
C182 C 0.66043 0.66709 0.54869 0.0
C183 C 0.65285 0.6494 0.58531 0.0
O184 O 0.69618 0.6311 0.63662 0.0
O185 O 0.66907 0.65038 0.6521 0.0
O186 O 0.64761 0.66142 0.60214 0.0
O187 O 0.67405 0.64117 0.58699 0.0
H188 H 0.65443 0.60908 0.62596 0.0
H189 H 0.63378 0.57804 0.63634 0.0
H190 H 0.65521 0.58723 0.70534 0.0
H191 H 0.67656 0.61767 0.69455 0.0
H192 H 0.76742 0.69089 0.6751 0.0
H193 H 0.73453 0.67424 0.65466 0.0
H194 H 0.76781 0.73836 0.62613 0.0
H195 H 0.73525 0.72175 0.60591 0.0
H196 H 0.66583 0.67876 0.51555 0.0
H197 H 0.59981 0.64661 0.52675 0.0
H198 H 0.61174 0.64022 0.56533 0.0
H199 H 0.67751 0.67256 0.5547 0.0
C200 C 0.84754 0.82727 0.051 0.0
C201 C 0.86592 0.84153 0.04887 0.0
C202 C 0.87384 0.82997 0.01064 0.0
C203 C 0.87898 0.84287 0.02884 0.0
C204 C 0.85514 0.81595 0.01292 0.0
C205 C 0.84222 0.81459 0.03289 0.0
U206 U 0.83107 0.8448 0.11019 0.0
O207 O 0.79602 0.84614 0.12682 0.0
O208 O 0.8244 0.82736 0.14085 0.0
C209 C 0.80202 0.83307 0.14224 0.0
C210 C 0.83374 0.82525 0.07191 0.0
C211 C 0.78435 0.81732 0.14763 0.0
C212 C 0.75554 0.79136 0.13724 0.0
C213 C 0.77289 0.80563 0.13111 0.0
C214 C 0.76133 0.80018 0.17631 0.0
C215 C 0.74958 0.78848 0.15998 0.0
C216 C 0.77847 0.81438 0.17019 0.0
C217 C 0.86527 0.89252 0.13149 0.0
C218 C 0.86062 0.91116 0.16649 0.0
C219 C 0.8895 0.92208 0.13882 0.0
C220 C 0.88315 0.90601 0.12498 0.0
C221 C 0.8782 0.92491 0.15957 0.0
C222 C 0.85405 0.89504 0.15241 0.0
C223 C 0.85867 0.87645 0.1156 0.0
O224 O 0.84609 0.82032 0.08977 0.0
O225 O 0.81803 0.83943 0.07584 0.0
O226 O 0.83717 0.8773 0.10688 0.0
O227 O 0.86533 0.85815 0.12069 0.0
H228 H 0.87023 0.85151 0.0627 0.0
H229 H 0.89329 0.85379 0.02776 0.0
H230 H 0.85023 0.80611 0.99916 0.0
H231 H 0.828 0.8036 0.03418 0.0
H232 H 0.7469 0.78253 0.12426 0.0
H233 H 0.77722 0.80764 0.11355 0.0
H234 H 0.75691 0.79868 0.19391 0.0
H235 H 0.78698 0.82332 0.18318 0.0
H236 H 0.85167 0.91315 0.18244 0.0
H237 H 0.9032 0.93244 0.13325 0.0
H238 H 0.89205 0.90425 0.10895 0.0
H239 H 0.84017 0.88475 0.1577 0.0
C240 C 0.17005 0.88885 0.34715 0.0
C241 C 0.14945 0.89463 0.35895 0.0
C242 C 0.14532 0.92412 0.33519 0.0
C243 C 0.13711 0.91206 0.35293 0.0
C244 C 0.16593 0.91821 0.32347 0.0
C245 C 0.17812 0.90074 0.32937 0.0
U246 U 0.18601 0.84812 0.38928 0.0
O247 O 0.1949 0.81618 0.38457 0.0
O248 O 0.22118 0.83673 0.39956 0.0
C249 C 0.21678 0.81847 0.39218 0.0
C250 C 0.18383 0.87095 0.35357 0.0
C251 C 0.23603 0.80883 0.3791 0.0
C252 C 0.25808 0.80308 0.34441 0.0
C253 C 0.23964 0.81276 0.3562 0.0
C254 C 0.26966 0.7858 0.37831 0.0
C255 C 0.27324 0.78956 0.35544 0.0
C256 C 0.25118 0.79529 0.38999 0.0
C257 C 0.15072 0.85174 0.44586 0.0
C258 C 0.15185 0.83014 0.47863 0.0
C259 C 0.13102 0.86192 0.4803 0.0
C260 C 0.13701 0.86555 0.45801 0.0
C261 C 0.13854 0.84431 0.49094 0.0
C262 C 0.15808 0.8339 0.4562 0.0
C263 C 0.15725 0.85697 0.42272 0.0
O264 O 0.19929 0.8738 0.36983 0.0
O265 O 0.17165 0.85414 0.35561 0.0
O266 O 0.15165 0.8441 0.40676 0.0
O267 O 0.17831 0.86532 0.42 0.0
H268 H 0.14305 0.88576 0.3729 0.0
H269 H 0.12141 0.91632 0.36241 0.0
H270 H 0.17255 0.92705 0.30958 0.0
H271 H 0.194 0.89656 0.32011 0.0
H272 H 0.26059 0.80621 0.32676 0.0
H273 H 0.22821 0.82322 0.3475 0.0
H274 H 0.28106 0.77536 0.38709 0.0
H275 H 0.24868 0.79202 0.40762 0.0
H276 H 0.15787 0.81645 0.4865 0.0
H277 H 0.12045 0.87293 0.48927 0.0
H278 H 0.13107 0.87933 0.45027 0.0
H279 H 0.16873 0.82307 0.44705 0.0
C280 C 0.34411 0.67197 0.95672 0.0
C281 C 0.36246 0.65784 0.9593 0.0
C282 C 0.36786 0.6683 0.99825 0.0
C283 C 0.37437 0.6561 0.97991 0.0
C284 C 0.3496 0.68246 0.99545 0.0
C285 C 0.33791 0.68431 0.97488 0.0
U286 U 0.32831 0.65464 0.89701 0.0
O287 O 0.29332 0.65338 0.88028 0.0
O288 O 0.32183 0.67236 0.86651 0.0
C289 C 0.2994 0.66666 0.86506 0.0
C290 C 0.33092 0.67399 0.93546 0.0
C291 C 0.28182 0.68247 0.86001 0.0
C292 C 0.2518 0.70705 0.87103 0.0
C293 C 0.2693 0.69292 0.87684 0.0
C294 C 0.25976 0.70082 0.83169 0.0
C295 C 0.24689 0.7111 0.84834 0.0
C296 C 0.27693 0.68662 0.83747 0.0
C297 C 0.36174 0.60691 0.87525 0.0
C298 C 0.35679 0.58855 0.84007 0.0
C299 C 0.38558 0.57733 0.86757 0.0
C300 C 0.37946 0.59331 0.88159 0.0
C301 C 0.37423 0.5747 0.8468 0.0
C302 C 0.35046 0.60457 0.85432 0.0
C303 C 0.35542 0.62289 0.89132 0.0
O304 O 0.34369 0.67883 0.9178 0.0
O305 O 0.31504 0.65991 0.93128 0.0
O306 O 0.33392 0.62209 0.90007 0.0
O307 O 0.36238 0.64119 0.88641 0.0
H308 H 0.36743 0.64811 0.94546 0.0
H309 H 0.3883 0.64499 0.98166 0.0
H310 H 0.34443 0.69222 0.0092 0.0
H311 H 0.32388 0.69534 0.97318 0.0
H312 H 0.24215 0.71483 0.88418 0.0
H313 H 0.27285 0.68999 0.89438 0.0
H314 H 0.25612 0.70345 0.8141 0.0
H315 H 0.28623 0.67864 0.82424 0.0
H316 H 0.34778 0.5867 0.82411 0.0
H317 H 0.39915 0.56689 0.87302 0.0
H318 H 0.38841 0.5949 0.89761 0.0
H319 H 0.3367 0.61495 0.84917 0.0
Zn320 Zn 0.02437 0.14576 0.2945 0.0
Zn321 Zn 0.98522 0.1433 0.22694 0.0
Zn322 Zn 0.00433 0.14607 0.25887 0.0
C323 C 0.01999 0.16625 0.21347 0.0
C324 C 0.99188 0.10604 0.22967 0.0
O325 O 0.97855 0.15996 0.28258 0.0
O326 O 1.0006 0.15866 0.31313 0.0
C327 C 0.0539 0.16892 0.26983 0.0
O328 O 0.02792 0.15918 0.23211 0.0
O329 O 0.99778 0.16627 0.21033 0.0
O330 O 0.99244 0.11754 0.21302 0.0
O331 O 0.99624 0.11349 0.24934 0.0
O332 O 0.05261 0.16135 0.28905 0.0
O333 O 0.03785 0.16471 0.255 0.0
O334 O 0.01218 0.1142 0.26839 0.0
O335 O 0.03033 0.11781 0.30102 0.0
C336 C 0.02303 0.10662 0.28543 0.0
O337 O 0.96966 0.16434 0.2588 0.0
O338 O 0.95132 0.14522 0.23437 0.0
C339 C 0.98108 0.16275 0.30381 0.0
C340 C 0.95112 0.16072 0.2465 0.0
Zn341 Zn 0.52977 0.35811 0.70129 0.0
Zn342 Zn 0.48613 0.35893 0.78538 0.0
Zn343 Zn 0.50612 0.35538 0.7539 0.0
C344 C 0.49307 0.39623 0.77964 0.0
C345 C 0.45266 0.34113 0.76342 0.0
O346 O 0.5385 0.33781 0.7618 0.0
O347 O 0.54181 0.34437 0.72679 0.0
C348 C 0.52511 0.3958 0.72498 0.0
O349 O 0.49748 0.38796 0.76049 0.0
O350 O 0.49407 0.38555 0.79694 0.0
O351 O 0.4527 0.35648 0.77581 0.0
O352 O 0.47172 0.33723 0.75205 0.0
O353 O 0.5309 0.38702 0.70691 0.0
O354 O 0.51609 0.38627 0.74189 0.0
O355 O 0.48279 0.34034 0.7285 0.0
O356 O 0.49853 0.3468 0.69456 0.0
C357 C 0.48216 0.33963 0.7068 0.0
O358 O 0.52765 0.34288 0.78305 0.0
O359 O 0.49714 0.33775 0.80534 0.0
C360 C 0.54972 0.33537 0.74344 0.0
C361 C 0.51932 0.33693 0.80212 0.0
Zn362 Zn 0.03131 0.85753 0.78716 0.0
Zn363 Zn 0.9929 0.85372 0.71474 0.0
Zn364 Zn 0.01086 0.85628 0.75136 0.0
C365 C 0.9904 0.89402 0.72372 0.0
C366 C 0.96151 0.83268 0.73919 0.0
O367 O 0.04518 0.838 0.74932 0.0
O368 O 0.05527 0.83711 0.78513 0.0
C369 C 0.03288 0.8961 0.77411 0.0
O370 O 1.00171 0.88818 0.74141 0.0
O371 O 0.98546 0.88141 0.70862 0.0
O372 O 0.96489 0.83754 0.71912 0.0
O373 O 0.97642 0.83833 0.75457 0.0
O374 O 0.04313 0.88485 0.78793 0.0
O375 O 0.01822 0.88868 0.75951 0.0
O376 O 0.98532 0.84306 0.77622 0.0
O377 O 0.00502 0.85159 0.80694 0.0
C378 C 0.98662 0.84442 0.79778 0.0
O379 O 0.0372 0.84222 0.72723 0.0
O380 O 0.01649 0.84166 0.69568 0.0
C381 C 0.05873 0.83148 0.76525 0.0
C382 C 0.03556 0.83825 0.70602 0.0
Zn383 Zn 0.53125 0.64524 0.22175 0.0
Zn384 Zn 0.48681 0.6458 0.29043 0.0
Zn385 Zn 0.50883 0.64645 0.25476 0.0
C386 C 0.53115 0.66047 0.30147 0.0
C387 C 0.48826 0.60666 0.27947 0.0
O388 O 0.48523 0.65978 0.22836 0.0
O389 O 0.51263 0.66199 0.20206 0.0
C390 C 0.5613 0.66677 0.24533 0.0
O391 O 0.53354 0.66003 0.27999 0.0
O392 O 0.51179 0.65505 0.31031 0.0
O393 O 0.47833 0.61771 0.29383 0.0
O394 O 0.50125 0.6144 0.26382 0.0
O395 O 0.56271 0.65586 0.22816 0.0
O396 O 0.54251 0.66568 0.25791 0.0
O397 O 0.51778 0.61399 0.24595 0.0
O398 O 0.53247 0.61774 0.21199 0.0
C399 C 0.52741 0.60643 0.2281 0.0
O400 O 0.47486 0.66462 0.25043 0.0
O401 O 0.46101 0.66413 0.28516 0.0
C402 C 0.4914 0.66461 0.20823 0.0
C403 C 0.45943 0.67025 0.26531 0.0
H404 H 0.09723 0.92963 0.32984 0.0
H405 H 0.07653 0.96041 0.31897 0.0
H406 H 0.14393 0.9917 0.31551 0.0
H407 H 0.16472 0.96098 0.32641 0.0
H408 H 0.11053 0.01377 0.3376 0.0
H409 H 0.11756 0.97956 0.26871 0.0
H410 H 0.11494 0.95297 0.23993 0.0
H411 H 0.03857 0.9525 0.24581 0.0
H412 H 0.04074 0.97883 0.27498 0.0
H413 H 0.06753 0.0971 0.27433 0.0
H414 H 0.08825 0.06565 0.28223 0.0
H415 H 0.02212 0.03935 0.30483 0.0
H416 H 1.00153 0.07142 0.29812 0.0
H417 H 0.0558 0.01562 0.27223 0.0
H418 H 0.05203 0.05243 0.3426 0.0
H419 H 0.05823 0.08217 0.36666 0.0
H420 H 0.13348 0.08033 0.35329 0.0
H421 H 0.12765 0.05083 0.32868 0.0
C422 C 0.10762 0.94309 0.32686 0.0
C423 C 0.13262 0.94286 0.32893 0.0
C424 C 0.0958 0.96062 0.32049 0.0
C425 C 0.1087 0.97831 0.31625 0.0
C426 C 0.13362 0.97821 0.31863 0.0
C427 C 0.14548 0.96063 0.32474 0.0
C428 C 0.09607 0.99696 0.30972 0.0
C429 C 0.09873 0.01419 0.3232 0.0
C430 C 0.08069 0.99758 0.2909 0.0
C431 C 0.07935 0.98093 0.27433 0.0
C432 C 0.10023 0.97353 0.26419 0.0
C433 C 0.09882 0.95857 0.24772 0.0
C434 C 0.07661 0.95099 0.24112 0.0
C435 C 0.05576 0.95833 0.25101 0.0
C436 C 0.05708 0.97325 0.26754 0.0
C437 C 0.05731 0.08438 0.28037 0.0
C438 C 0.03284 0.0863 0.28489 0.0
C439 C 0.06919 0.06657 0.28508 0.0
C440 C 0.05668 0.05031 0.29414 0.0
C441 C 0.03197 0.05182 0.29778 0.0
C442 C 0.0202 0.06995 0.2937 0.0
C443 C 0.06974 0.03199 0.30046 0.0
C444 C 0.06739 0.01498 0.28678 0.0
C445 C 0.08583 0.03176 0.31874 0.0
C446 C 0.08934 0.04956 0.33352 0.0
C447 C 0.06985 0.05852 0.34451 0.0
C448 C 0.07331 0.07531 0.35831 0.0
C449 C 0.09622 0.08318 0.36145 0.0
C450 C 0.11573 0.07425 0.3508 0.0
C451 C 0.11235 0.0575 0.33691 0.0
H452 H 0.09886 0.09616 0.37218 0.0
H453 H 0.07554 0.93948 0.22827 0.0
H454 H 0.3978 0.57354 0.80657 0.0
H455 H 0.41581 0.54374 0.78889 0.0
H456 H 0.38315 0.50626 0.83915 0.0
H457 H 0.3657 0.53592 0.85693 0.0
H458 H 0.43009 0.50167 0.83822 0.0
H459 H 0.3669 0.50303 0.7838 0.0
H460 H 0.34166 0.51746 0.75416 0.0
H461 H 0.4034 0.52627 0.71265 0.0
H462 H 0.42901 0.51242 0.74231 0.0
H463 H 0.46038 0.40544 0.8109 0.0
H464 H 0.43774 0.43581 0.81564 0.0
H465 H 0.47237 0.46145 0.75795 0.0
H466 H 0.49463 0.43006 0.75224 0.0
H467 H 0.42867 0.47497 0.76041 0.0
H468 H 0.49126 0.47103 0.81593 0.0
H469 H 0.51434 0.45425 0.84561 0.0
H470 H 0.45122 0.44944 0.88609 0.0
H471 H 0.4277 0.46592 0.85656 0.0
C472 C 0.39394 0.55883 0.81333 0.0
C473 C 0.38043 0.55691 0.83306 0.0
C474 C 0.40421 0.54183 0.80325 0.0
C475 C 0.40092 0.52274 0.81274 0.0
C476 C 0.38604 0.52081 0.83158 0.0
C477 C 0.376 0.53772 0.84168 0.0
C478 C 0.41525 0.5052 0.8052 0.0
C479 C 0.42956 0.49575 0.82123 0.0
C480 C 0.4153 0.49789 0.78286 0.0
C481 C 0.39993 0.50676 0.76531 0.0
C482 C 0.37513 0.50825 0.76846 0.0
C483 C 0.36073 0.51632 0.75164 0.0
C484 C 0.37091 0.52279 0.73153 0.0
C485 C 0.39551 0.52126 0.72822 0.0
C486 C 0.40998 0.51329 0.74503 0.0
C487 C 0.4637 0.4176 0.79931 0.0
C488 C 0.48039 0.41563 0.78178 0.0
C489 C 0.4506 0.43507 0.80209 0.0
C490 C 0.4545 0.45157 0.78812 0.0
C491 C 0.46996 0.44932 0.76965 0.0
C492 C 0.48276 0.4314 0.76642 0.0
C493 C 0.44285 0.47108 0.79369 0.0
C494 C 0.42933 0.48103 0.77732 0.0
C495 C 0.44332 0.47891 0.81587 0.0
C496 C 0.45773 0.4697 0.834 0.0
C497 C 0.48232 0.4664 0.83117 0.0
C498 C 0.49546 0.45691 0.84795 0.0
C499 C 0.48425 0.45078 0.86772 0.0
C500 C 0.45989 0.45421 0.87079 0.0
C501 C 0.44666 0.46366 0.85406 0.0
H502 H 0.49445 0.44339 0.88066 0.0
H503 H 0.35973 0.52897 0.71851 0.0
H504 H 0.65756 0.55232 0.70297 0.0
H505 H 0.63706 0.52201 0.71508 0.0
H506 H 0.58163 0.53237 0.66634 0.0
H507 H 0.60112 0.56358 0.65527 0.0
H508 H 0.56179 0.52221 0.70289 0.0
H509 H 0.62759 0.49453 0.66134 0.0
H510 H 0.6697 0.48897 0.65107 0.0
H511 H 0.68412 0.46685 0.71717 0.0
H512 H 0.64216 0.47253 0.72793 0.0
H513 H 0.51245 0.42464 0.69602 0.0
H514 H 0.53239 0.4569 0.69086 0.0
H515 H 0.57447 0.44669 0.75025 0.0
H516 H 0.55422 0.41416 0.7555 0.0
H517 H 0.60187 0.45644 0.71148 0.0
H518 H 0.53792 0.48827 0.75378 0.0
H519 H 0.49544 0.4919 0.76379 0.0
H520 H 0.47812 0.50306 0.69481 0.0
H521 H 0.52074 0.50027 0.68459 0.0
C522 C 0.64085 0.54836 0.69496 0.0
C523 C 0.63099 0.56064 0.6782 0.0
C524 C 0.62932 0.53073 0.70167 0.0
C525 C 0.6079 0.52461 0.69145 0.0
C526 C 0.59817 0.53667 0.6745 0.0
C527 C 0.6095 0.55447 0.668 0.0
C528 C 0.59502 0.50623 0.69912 0.0
C529 C 0.57067 0.50785 0.70447 0.0
C530 C 0.60649 0.48744 0.70194 0.0
C531 C 0.63178 0.48417 0.69552 0.0
C532 C 0.63978 0.48865 0.67375 0.0
C533 C 0.66362 0.48544 0.66783 0.0
C534 C 0.67959 0.47762 0.68348 0.0
C535 C 0.67174 0.47295 0.70507 0.0
C536 C 0.64794 0.47615 0.71109 0.0
C537 C 0.52525 0.42967 0.70847 0.0
C538 C 0.5315 0.41718 0.72638 0.0
C539 C 0.53678 0.44803 0.70544 0.0
C540 C 0.55494 0.45423 0.72016 0.0
C541 C 0.56048 0.4422 0.73872 0.0
C542 C 0.54867 0.42382 0.74192 0.0
C543 C 0.56893 0.47263 0.71498 0.0
C544 C 0.59332 0.47096 0.71004 0.0
C545 C 0.55765 0.49136 0.71239 0.0
C546 C 0.53234 0.49406 0.71847 0.0
C547 C 0.52503 0.49165 0.74082 0.0
C548 C 0.50099 0.49361 0.74651 0.0
C549 C 0.48408 0.4975 0.7299 0.0
C550 C 0.49125 0.50001 0.70764 0.0
C551 C 0.51537 0.49847 0.70192 0.0
H552 H 0.46543 0.4985 0.73428 0.0
H553 H 0.69803 0.47514 0.67885 0.0
H554 H 0.87022 0.96368 0.14913 0.0
H555 H 0.88777 0.99341 0.16696 0.0
H556 H 0.91977 0.95609 0.21751 0.0
H557 H 0.90159 0.92621 0.19985 0.0
H558 H 0.90472 0.99468 0.23415 0.0
H559 H 0.95302 0.96759 0.17317 0.0
H560 H 0.96009 0.95561 0.1345 0.0
H561 H 0.93578 0.01197 0.10862 0.0
H562 H 0.92841 0.0242 0.14713 0.0
H563 H 0.99329 0.07257 0.25706 0.0
H564 H 0.97279 0.04023 0.25089 0.0
H565 H 0.94283 0.06324 0.18956 0.0
H566 H 0.96391 0.09451 0.19507 0.0
H567 H 0.95999 0.02879 0.18159 0.0
H568 H 0.90892 0.0563 0.23915 0.0
H569 H 0.89938 0.0702 0.27651 0.0
H570 H 0.92531 0.01651 0.3075 0.0
H571 H 0.93514 0.00235 0.2703 0.0
C572 C 0.88044 0.96192 0.16442 0.0
C573 C 0.88465 0.94276 0.17315 0.0
C574 C 0.89052 0.97887 0.17454 0.0
C575 C 0.90544 0.97692 0.19332 0.0
C576 C 0.90835 0.95792 0.20302 0.0
C577 C 0.89798 0.94089 0.19297 0.0
C578 C 0.91996 0.99436 0.20099 0.0
C579 C 0.91707 0.00203 0.22281 0.0
C580 C 0.93577 0.00415 0.1861 0.0
C581 C 0.94006 0.99674 0.16298 0.0
C582 C 0.94905 0.97736 0.15921 0.0
C583 C 0.95315 0.97054 0.13733 0.0
C584 C 0.94836 0.98301 0.11912 0.0
C585 C 0.93949 0.00233 0.12274 0.0
C586 C 0.93539 0.00922 0.14458 0.0
C587 C 0.98263 0.07049 0.24222 0.0
C588 C 0.98092 0.08591 0.22637 0.0
C589 C 0.97063 0.05214 0.23879 0.0
C590 C 0.95622 0.04923 0.21969 0.0
C591 C 0.95407 0.06489 0.20425 0.0
C592 C 0.96637 0.08283 0.20741 0.0
C593 C 0.94426 0.02975 0.21455 0.0
C594 C 0.94779 0.02149 0.19312 0.0
C595 C 0.92871 0.01984 0.22966 0.0
C596 C 0.92302 0.02838 0.252 0.0
C597 C 0.91277 0.04754 0.25395 0.0
C598 C 0.90725 0.05544 0.27509 0.0
C599 C 0.91181 0.04427 0.29437 0.0
C600 C 0.92183 0.02516 0.29256 0.0
C601 C 0.92734 0.01717 0.27145 0.0
H602 H 0.90753 0.05042 0.31072 0.0
H603 H 0.95157 0.97771 0.1022 0.0
H604 H 0.86057 0.03427 0.65348 0.0
H605 H 0.88362 0.00545 0.66673 0.0
H606 H 0.91424 0.04213 0.7192 0.0
H607 H 0.89132 0.07098 0.70602 0.0
H608 H 0.94794 0.01874 0.69612 0.0
H609 H 0.87174 0.0097 0.73261 0.0
H610 H 0.82793 0.00629 0.73419 0.0
H611 H 0.83117 0.95474 0.69077 0.0
H612 H 0.87497 0.958 0.68869 0.0
H613 H 0.99985 0.92951 0.74722 0.0
H614 H 0.9789 0.96184 0.74307 0.0
H615 H 0.93568 0.93598 0.69043 0.0
H616 H 0.95604 0.90445 0.69437 0.0
H617 H 0.90837 0.9557 0.71996 0.0
H618 H 0.97926 0.96634 0.67676 0.0
H619 H 0.02212 0.96986 0.66826 0.0
H620 H 0.02841 0.01656 0.71784 0.0
H621 H 0.98554 0.01319 0.72678 0.0
C622 C 0.87232 0.03621 0.66775 0.0
C623 C 0.87404 0.05488 0.67877 0.0
C624 C 0.88533 0.0197 0.67542 0.0
C625 C 0.90044 0.02159 0.69413 0.0
C626 C 0.90258 0.04031 0.70484 0.0
C627 C 0.8894 0.05674 0.69734 0.0
C628 C 0.91428 0.00412 0.70232 0.0
C629 C 0.93931 0.00509 0.70183 0.0
C630 C 0.903 0.98614 0.70917 0.0
C631 C 0.87663 0.9842 0.71036 0.0
C632 C 0.86309 0.99774 0.72325 0.0
C633 C 0.83826 0.99581 0.72427 0.0
C634 C 0.82677 0.98034 0.71255 0.0
C635 C 0.84009 0.96673 0.69982 0.0
C636 C 0.86492 0.9686 0.69874 0.0
C637 C 0.98594 0.93084 0.73485 0.0
C638 C 0.97978 0.91433 0.72125 0.0
C639 C 0.97399 0.94927 0.73242 0.0
C640 C 0.95554 0.95125 0.71653 0.0
C641 C 0.94964 0.93482 0.70294 0.0
C642 C 0.9616 0.91674 0.70516 0.0
C643 C 0.94207 0.9702 0.71342 0.0
C644 C 0.91705 0.96951 0.71482 0.0
C645 C 0.95331 0.98823 0.7068 0.0
C646 C 0.9793 0.98939 0.70259 0.0
C647 C 0.98986 0.97717 0.68607 0.0
C648 C 0.01409 0.97924 0.68106 0.0
C649 C 0.02789 0.99359 0.69233 0.0
C650 C 0.01762 0.00559 0.70899 0.0
C651 C 0.99337 0.0036 0.71405 0.0
H652 H 0.04659 0.99535 0.68823 0.0
H653 H 0.80755 0.97887 0.71337 0.0
H654 H 0.65288 0.45831 0.16568 0.0
H655 H 0.63693 0.48909 0.18272 0.0
H656 H 0.58118 0.45447 0.21432 0.0
H657 H 0.59702 0.42379 0.19702 0.0
H658 H 0.56406 0.48482 0.18869 0.0
H659 H 0.62699 0.47871 0.24562 0.0
H660 H 0.6689 0.47632 0.25806 0.0
H661 H 0.6857 0.53101 0.22365 0.0
H662 H 0.64396 0.53365 0.2109 0.0
H663 H 0.50931 0.56984 0.24323 0.0
H664 H 0.52857 0.53672 0.2386 0.0
H665 H 0.58877 0.56511 0.20653 0.0
H666 H 0.57018 0.59756 0.21126 0.0
H667 H 0.60348 0.53722 0.23508 0.0
H668 H 0.54969 0.54556 0.17612 0.0
H669 H 0.51259 0.55087 0.15497 0.0
H670 H 0.48394 0.49573 0.1806 0.0
H671 H 0.5205 0.49053 0.20278 0.0
C672 C 0.63771 0.45729 0.17689 0.0
C673 C 0.62628 0.43879 0.18036 0.0
C674 C 0.62861 0.47484 0.18662 0.0
C675 C 0.60793 0.47408 0.19995 0.0
C676 C 0.59721 0.45539 0.20421 0.0
C677 C 0.6063 0.43789 0.19447 0.0
C678 C 0.59575 0.49282 0.20712 0.0
C679 C 0.57239 0.49604 0.19942 0.0
C680 C 0.60728 0.50806 0.21974 0.0
C681 C 0.6324 0.50629 0.22722 0.0
C682 C 0.63967 0.49013 0.24059 0.0
C683 C 0.66338 0.48877 0.24773 0.0
C684 C 0.67995 0.50349 0.24163 0.0
C685 C 0.67285 0.51962 0.22838 0.0
C686 C 0.64917 0.52108 0.22123 0.0
C687 C 0.52673 0.56891 0.23551 0.0
C688 C 0.53811 0.58622 0.22743 0.0
C689 C 0.53763 0.55006 0.2327 0.0
C690 C 0.56002 0.54849 0.22205 0.0
C691 C 0.57158 0.56591 0.21482 0.0
C692 C 0.56075 0.58446 0.21739 0.0
C693 C 0.57141 0.52886 0.21736 0.0
C694 C 0.59477 0.52568 0.22507 0.0
C695 C 0.56039 0.51412 0.20367 0.0
C696 C 0.53768 0.51789 0.1916 0.0
C697 C 0.53526 0.53482 0.17778 0.0
C698 C 0.51435 0.53777 0.16548 0.0
C699 C 0.49591 0.52366 0.16645 0.0
C700 C 0.49827 0.50664 0.17984 0.0
C701 C 0.51901 0.50377 0.19243 0.0
H702 H 0.47978 0.5259 0.15682 0.0
H703 H 0.69828 0.5024 0.24719 0.0
H704 H 0.40716 0.44134 0.35695 0.0
H705 H 0.42945 0.471 0.34497 0.0
H706 H 0.37524 0.48373 0.29583 0.0
H707 H 0.35251 0.45443 0.30804 0.0
H708 H 0.41905 0.48784 0.27786 0.0
H709 H 0.37782 0.51081 0.34178 0.0
H710 H 0.36308 0.51147 0.3807 0.0
H711 H 0.43485 0.51784 0.40499 0.0
H712 H 0.4501 0.51679 0.36618 0.0
H713 H 0.45378 0.58888 0.25532 0.0
H714 H 0.43342 0.55761 0.26484 0.0
H715 H 0.48659 0.54584 0.31544 0.0
H716 H 0.50603 0.57797 0.30676 0.0
H717 H 0.44308 0.54101 0.33198 0.0
H718 H 0.48172 0.51993 0.26226 0.0
H719 H 0.48954 0.52772 0.22259 0.0
H720 H 0.41475 0.52299 0.20793 0.0
H721 H 0.4063 0.51598 0.24769 0.0
C722 C 0.39977 0.45055 0.34378 0.0
C723 C 0.37795 0.44539 0.3335 0.0
C724 C 0.41263 0.46747 0.33687 0.0
C725 C 0.404 0.47963 0.31953 0.0
C726 C 0.38235 0.4745 0.30913 0.0
C727 C 0.3694 0.45767 0.31612 0.0
C728 C 0.41755 0.49773 0.31231 0.0
C729 C 0.42427 0.49946 0.28971 0.0
C730 C 0.42415 0.51306 0.32765 0.0
C731 C 0.41514 0.5134 0.35106 0.0
C732 C 0.39051 0.51207 0.35542 0.0
C733 C 0.38205 0.51257 0.37747 0.0
C734 C 0.39803 0.51461 0.39532 0.0
C735 C 0.4225 0.51619 0.39115 0.0
C736 C 0.43107 0.51563 0.36912 0.0
C737 C 0.46161 0.57916 0.26782 0.0
C738 C 0.48186 0.58536 0.27981 0.0
C739 C 0.44989 0.56135 0.2734 0.0
C740 C 0.45864 0.5491 0.29066 0.0
C741 C 0.47957 0.55493 0.30198 0.0
C742 C 0.49095 0.57304 0.29675 0.0
C743 C 0.44525 0.53082 0.2977 0.0
C744 C 0.43835 0.52913 0.32026 0.0
C745 C 0.43788 0.51585 0.28219 0.0
C746 C 0.44338 0.51746 0.25796 0.0
C747 C 0.46696 0.52037 0.25053 0.0
C748 C 0.47149 0.52478 0.22806 0.0
C749 C 0.45266 0.52581 0.21275 0.0
C750 C 0.4293 0.52217 0.21982 0.0
C751 C 0.42462 0.51801 0.24232 0.0
H752 H 0.45608 0.52955 0.19544 0.0
H753 H 0.39144 0.51503 0.41237 0.0
H754 H 0.07925 0.07149 0.84233 0.0
H755 H 0.06555 0.0402 0.82524 0.0
H756 H 0.13771 0.0261 0.8058 0.0
H757 H 0.15173 0.05756 0.82332 0.0
H758 H 0.10232 0.01475 0.7729 0.0
H759 H 0.12012 0.00468 0.84937 0.0
H760 H 0.12064 0.01157 0.89001 0.0
H761 H 0.04439 0.00535 0.89249 0.0
H762 H 0.04337 0.99878 0.85173 0.0
H763 H 0.07542 0.91021 0.7616 0.0
H764 H 0.09281 0.94271 0.77155 0.0
H765 H 0.02519 0.96151 0.79912 0.0
H766 H 0.00818 0.92829 0.79024 0.0
H767 H 0.06192 0.96968 0.82714 0.0
H768 H 0.04799 0.97607 0.74725 0.0
H769 H 0.05358 0.96112 0.70977 0.0
H770 H 0.12916 0.97075 0.71452 0.0
H771 H 0.12434 0.98409 0.75289 0.0
C772 C 0.09224 0.06185 0.83427 0.0
C773 C 0.11665 0.06683 0.83456 0.0
C774 C 0.08435 0.044 0.82442 0.0
C775 C 0.10064 0.03069 0.81457 0.0
C776 C 0.12485 0.03617 0.81338 0.0
C777 C 0.13283 0.05414 0.82335 0.0
C778 C 0.09226 0.01047 0.80741 0.0
C779 C 0.09365 0.00481 0.78474 0.0
C780 C 0.08121 0.99739 0.82293 0.0
C781 C 0.08164 0.00149 0.84743 0.0
C782 C 0.10343 0.00501 0.85852 0.0
C783 C 0.10383 0.00882 0.88159 0.0
C784 C 0.08256 0.00896 0.89381 0.0
C785 C 0.06085 0.00527 0.88298 0.0
C786 C 0.06035 0.00151 0.8599 0.0
C787 C 0.0641 0.92157 0.76909 0.0
C788 C 0.04024 0.9172 0.7743 0.0
C789 C 0.07407 0.94006 0.77495 0.0
C790 C 0.06021 0.95473 0.78572 0.0
C791 C 0.03615 0.95049 0.7906 0.0
C792 C 0.0263 0.93173 0.78516 0.0
C793 C 0.07106 0.97423 0.79248 0.0
C794 C 0.07032 0.9797 0.8152 0.0
C795 C 0.08327 0.98676 0.77706 0.0
C796 C 0.08581 0.98102 0.75306 0.0
C797 C 0.06583 0.97502 0.74034 0.0
C798 C 0.06887 0.96668 0.71899 0.0
C799 C 0.09165 0.96524 0.70964 0.0
C800 C 0.1115 0.97195 0.72175 0.0
C801 C 0.10865 0.97972 0.74341 0.0
H802 H 0.09392 0.95885 0.69306 0.0
H803 H 0.0829 0.01188 0.91168 0.0
H804 H 0.08734 0.17185 0.00835 0.0
H805 H 0.06981 0.1687 0.04591 0.0
H806 H 0.14011 0.17143 0.07521 0.0
H807 H 0.15769 0.17415 0.03788 0.0
H808 H 0.1126 0.14339 0.09582 0.0
H809 H 0.1037 0.21347 0.07348 0.0
H810 H 0.08932 0.24168 0.05057 0.0
H811 H 0.01704 0.22137 0.0588 0.0
H812 H 0.03103 0.19296 0.08157 0.0
H813 H 0.06961 0.16431 0.20914 0.0
H814 H 0.09233 0.16433 0.17361 0.0
H815 H 0.02655 0.17154 0.13692 0.0
H816 H 0.00462 0.17317 0.17135 0.0
H817 H 0.05527 0.19528 0.12088 0.0
H818 H 0.06017 0.12541 0.14083 0.0
H819 H 0.07123 0.09543 0.16252 0.0
H820 H 0.1453 0.11149 0.1574 0.0
H821 H 0.13467 0.14167 0.13589 0.0
C822 C 0.09905 0.17154 0.02279 0.0
C823 C 0.1239 0.17353 0.02014 0.0
C824 C 0.08902 0.16988 0.04426 0.0
C825 C 0.10364 0.17014 0.06344 0.0
C826 C 0.12846 0.17131 0.06072 0.0
C827 C 0.13846 0.17305 0.03935 0.0
C828 C 0.09323 0.16989 0.0864 0.0
C829 C 0.10015 0.1548 0.10144 0.0
C830 C 0.07664 0.18448 0.09359 0.0
C831 C 0.06845 0.20099 0.07899 0.0
C832 C 0.08479 0.21489 0.07015 0.0
C833 C 0.07669 0.23096 0.05727 0.0
C834 C 0.05229 0.23329 0.05318 0.0
C835 C 0.03593 0.21953 0.06193 0.0
C836 C 0.04393 0.20346 0.07481 0.0
C837 C 0.06022 0.16644 0.19347 0.0
C838 C 0.0353 0.16912 0.19332 0.0
C839 C 0.07313 0.16605 0.17314 0.0
C840 C 0.06118 0.16785 0.15242 0.0
C841 C 0.03639 0.1704 0.15251 0.0
C842 C 0.02379 0.17141 0.17248 0.0
C843 C 0.07378 0.16832 0.13035 0.0
C844 C 0.06757 0.18369 0.11544 0.0
C845 C 0.0903 0.15355 0.12316 0.0
C846 C 0.09658 0.136 0.13709 0.0
C847 C 0.07878 0.12272 0.14464 0.0
C848 C 0.08499 0.10563 0.15681 0.0
C849 C 0.10894 0.10161 0.16143 0.0
C850 C 0.12675 0.11466 0.15389 0.0
C851 C 0.12064 0.13176 0.14172 0.0
H852 H 0.11371 0.08833 0.17077 0.0
H853 H 0.04606 0.24579 0.0433 0.0
H854 H 0.35969 0.36816 0.53338 0.0
H855 H 0.37447 0.36393 0.5717 0.0
H856 H 0.41287 0.31096 0.55087 0.0
H857 H 0.39725 0.31486 0.51259 0.0
H858 H 0.39493 0.30541 0.59143 0.0
H859 H 0.44129 0.35616 0.55646 0.0
H860 H 0.44817 0.38699 0.5347 0.0
H861 H 0.41388 0.42188 0.58608 0.0
H862 H 0.40647 0.39118 0.60802 0.0
H863 H 0.48018 0.30737 0.6799 0.0
H864 H 0.45767 0.30676 0.645 0.0
H865 H 0.41658 0.35761 0.66764 0.0
H866 H 0.43992 0.35859 0.70247 0.0
H867 H 0.436 0.36393 0.62622 0.0
H868 H 0.39057 0.31022 0.6609 0.0
H869 H 0.38998 0.27885 0.68265 0.0
H870 H 0.42894 0.24888 0.63032 0.0
H871 H 0.42997 0.28017 0.60838 0.0
C872 C 0.37096 0.35544 0.53716 0.0
C873 C 0.37733 0.34178 0.52024 0.0
C874 C 0.37954 0.3531 0.55896 0.0
C875 C 0.39517 0.33734 0.56411 0.0
C876 C 0.40087 0.32324 0.54732 0.0
C877 C 0.39197 0.32543 0.52552 0.0
C878 C 0.40616 0.33609 0.58678 0.0
C879 C 0.40402 0.31819 0.59893 0.0
C880 C 0.41815 0.35272 0.59665 0.0
C881 C 0.42314 0.37133 0.58381 0.0
C882 C 0.43511 0.37039 0.56308 0.0
C883 C 0.43911 0.38784 0.55071 0.0
C884 C 0.43142 0.40638 0.55898 0.0
C885 C 0.41981 0.4075 0.57969 0.0
C886 C 0.41573 0.39008 0.59212 0.0
C887 C 0.46531 0.31759 0.67805 0.0
C888 C 0.4613 0.33264 0.69417 0.0
C889 C 0.45272 0.3175 0.65787 0.0
C890 C 0.43537 0.33215 0.65362 0.0
C891 C 0.42988 0.34617 0.67053 0.0
C892 C 0.44271 0.34636 0.69072 0.0
C893 C 0.42413 0.33346 0.63104 0.0
C894 C 0.42654 0.35131 0.6188 0.0
C895 C 0.41286 0.31669 0.62089 0.0
C896 C 0.41027 0.29747 0.633 0.0
C897 C 0.39883 0.29688 0.65397 0.0
C898 C 0.39851 0.27915 0.66637 0.0
C899 C 0.4094 0.26188 0.65786 0.0
C900 C 0.42044 0.26226 0.63685 0.0
C901 C 0.42083 0.27996 0.62439 0.0
H902 H 0.40929 0.2482 0.66756 0.0
H903 H 0.43449 0.41987 0.54936 0.0
H904 H 0.66115 0.33373 0.97474 0.0
H905 H 0.64303 0.33587 0.93756 0.0
H906 H 0.57298 0.33423 0.96748 0.0
H907 H 0.59106 0.3318 0.00484 0.0
H908 H 0.57741 0.3073 0.93305 0.0
H909 H 0.59372 0.37694 0.9454 0.0
H910 H 0.61838 0.40647 0.95501 0.0
H911 H 0.66438 0.39412 0.89905 0.0
H912 H 0.64018 0.36432 0.88928 0.0
H913 H 0.50439 0.33195 0.84487 0.0
H914 H 0.52766 0.33264 0.87877 0.0
H915 H 0.59262 0.3352 0.84008 0.0
H916 H 0.56887 0.33596 0.80518 0.0
H917 H 0.5938 0.36073 0.87737 0.0
H918 H 0.57549 0.29098 0.86479 0.0
H919 H 0.54749 0.26393 0.8541 0.0
H920 H 0.50329 0.27813 0.91081 0.0
H921 H 0.53091 0.30542 0.92169 0.0
C922 C 0.64187 0.33386 0.97342 0.0
C923 C 0.62754 0.33241 0.99273 0.0
C924 C 0.63155 0.33526 0.95216 0.0
C925 C 0.60665 0.33526 0.94971 0.0
C926 C 0.59224 0.33424 0.96898 0.0
C927 C 0.60258 0.33298 0.99032 0.0
C928 C 0.59573 0.33522 0.92699 0.0
C929 C 0.58089 0.31907 0.92097 0.0
C930 C 0.60073 0.3503 0.91098 0.0
C931 C 0.61528 0.36826 0.91675 0.0
C932 C 0.60922 0.38041 0.93525 0.0
C933 C 0.62309 0.39722 0.94071 0.0
C934 C 0.64298 0.40214 0.92769 0.0
C935 C 0.64899 0.39028 0.90914 0.0
C936 C 0.63519 0.37343 0.90362 0.0
C937 C 0.52364 0.33238 0.84323 0.0
C938 C 0.53472 0.33357 0.82206 0.0
C939 C 0.53697 0.33283 0.86284 0.0
C940 C 0.56193 0.33354 0.86208 0.0
C941 C 0.57333 0.33452 0.84106 0.0
C942 C 0.5598 0.33465 0.82115 0.0
C943 C 0.57547 0.33284 0.88354 0.0
C944 C 0.59072 0.34881 0.88935 0.0
C945 C 0.57087 0.31762 0.89949 0.0
C946 C 0.55529 0.3002 0.89406 0.0
C947 C 0.55987 0.28824 0.87504 0.0
C948 C 0.54403 0.27292 0.86891 0.0
C949 C 0.52363 0.26931 0.88177 0.0
C950 C 0.51914 0.28091 0.9009 0.0
C951 C 0.53492 0.29626 0.90711 0.0
H952 H 0.5113 0.25753 0.87691 0.0
H953 H 0.65369 0.41516 0.93193 0.0
H954 H 0.86024 0.1851 0.48767 0.0
H955 H 0.8755 0.18982 0.44946 0.0
H956 H 0.91087 0.13255 0.45277 0.0
H957 H 0.89534 0.1275 0.49046 0.0
H958 H 0.9406 0.16156 0.438 0.0
H959 H 0.86214 0.13761 0.42314 0.0
H960 H 0.81821 0.13624 0.42356 0.0
H961 H 0.81518 0.19343 0.39087 0.0
H962 H 0.85914 0.19538 0.39076 0.0
H963 H 0.96465 0.13254 0.3278 0.0
H964 H 0.94317 0.13512 0.36318 0.0
H965 H 0.93137 0.19811 0.35153 0.0
H966 H 0.95425 0.19574 0.31614 0.0
H967 H 0.89035 0.17146 0.37051 0.0
H968 H 0.97227 0.19111 0.38227 0.0
H969 H 0.01603 0.18791 0.38048 0.0
H970 H 0.0123 0.13318 0.41796 0.0
H971 H 0.96847 0.13574 0.41947 0.0
C972 C 0.871 0.17341 0.48013 0.0
C973 C 0.87677 0.15603 0.49228 0.0
C974 C 0.87977 0.17616 0.45834 0.0
C975 C 0.89442 0.16158 0.44832 0.0
C976 C 0.89983 0.1441 0.46025 0.0
C977 C 0.891 0.1413 0.48188 0.0
C978 C 0.90471 0.16452 0.42562 0.0
C979 C 0.9296 0.16368 0.42324 0.0
C980 C 0.89036 0.16759 0.40642 0.0
C981 C 0.86394 0.16684 0.40736 0.0
C982 C 0.85212 0.15009 0.41643 0.0
C983 C 0.82721 0.14916 0.41653 0.0
C984 C 0.8139 0.16479 0.40735 0.0
C985 C 0.8255 0.18138 0.39808 0.0
C986 C 0.85041 0.18243 0.39805 0.0
C987 C 0.95663 0.14679 0.33231 0.0
C988 C 0.96068 0.16389 0.31913 0.0
C989 C 0.9447 0.14829 0.35268 0.0
C990 C 0.93611 0.16685 0.36008 0.0
C991 C 0.93814 0.18369 0.34606 0.0
C992 C 0.95079 0.1823 0.32575 0.0
C993 C 0.9261 0.16839 0.38296 0.0
C994 C 0.90132 0.16987 0.38538 0.0
C995 C 0.94053 0.16536 0.40215 0.0
C996 C 0.96695 0.16351 0.40071 0.0
C997 C 0.9807 0.17821 0.3898 0.0
C998 C 0.00556 0.17654 0.38891 0.0
C999 C 0.01693 0.16032 0.39904 0.0
C1000 C 0.00347 0.14571 0.41007 0.0
C1001 C 0.9786 0.14726 0.41092 0.0
H1002 H 0.03618 0.15911 0.39841 0.0
H1003 H 0.79461 0.16399 0.40733 0.0
H1004 H 0.88788 0.79892 0.98338 0.0
H1005 H 0.90588 0.80082 0.94632 0.0
H1006 H 0.91024 0.86529 0.95244 0.0
H1007 H 0.89078 0.86359 0.98908 0.0
H1008 H 0.89268 0.85656 0.91412 0.0
H1009 H 0.96077 0.83326 0.95369 0.0
H1010 H 0.98466 0.81173 0.9785 0.0
H1011 H 0.97148 0.76112 0.93532 0.0
H1012 H 0.94723 0.78227 0.91039 0.0
H1013 H 0.96415 0.87344 0.81933 0.0
H1014 H 0.94467 0.87015 0.85521 0.0
H1015 H 0.94381 0.80566 0.84736 0.0
H1016 H 0.96619 0.80912 0.81202 0.0
H1017 H 0.95887 0.81393 0.88641 0.0
H1018 H 0.89009 0.84041 0.84633 0.0
H1019 H 0.87128 0.86499 0.82114 0.0
H1020 H 0.89026 0.91283 0.86636 0.0
H1021 H 0.90934 0.88858 0.8917 0.0
C1022 C 0.89256 0.81355 0.97687 0.0
C1023 C 0.88749 0.83112 0.98917 0.0
C1024 C 0.90325 0.81458 0.95574 0.0
C1025 C 0.90963 0.83318 0.94653 0.0
C1026 C 0.90546 0.85073 0.95914 0.0
C1027 C 0.89451 0.84973 0.98021 0.0
C1028 C 0.91882 0.8344 0.92313 0.0
C1029 C 0.90733 0.84736 0.90817 0.0
C1030 C 0.93767 0.82218 0.91512 0.0
C1031 C 0.95195 0.80932 0.93029 0.0
C1032 C 0.96275 0.81749 0.9496 0.0
C1033 C 0.97641 0.80536 0.96366 0.0
C1034 C 0.97953 0.78506 0.95852 0.0
C1035 C 0.96902 0.77684 0.9393 0.0
C1036 C 0.95532 0.7889 0.92519 0.0
C1037 C 0.95881 0.85858 0.82474 0.0
C1038 C 0.96609 0.84156 0.81266 0.0
C1039 C 0.94758 0.85667 0.8454 0.0
C1040 C 0.94201 0.83766 0.85401 0.0
C1041 C 0.94769 0.82053 0.84107 0.0
C1042 C 0.95995 0.82246 0.82063 0.0
C1043 C 0.93246 0.83586 0.8773 0.0
C1044 C 0.94398 0.82288 0.8923 0.0
C1045 C 0.91388 0.84831 0.88549 0.0
C1046 C 0.90111 0.86267 0.8709 0.0
C1047 C 0.89015 0.85616 0.85093 0.0
C1048 C 0.8795 0.87005 0.83661 0.0
C1049 C 0.87957 0.89046 0.84215 0.0
C1050 C 0.89016 0.89702 0.86211 0.0
C1051 C 0.90081 0.88321 0.87649 0.0
H1052 H 0.87143 0.90119 0.83098 0.0
H1053 H 0.99014 0.7757 0.96941 0.0
H1054 H 0.63709 0.69538 0.48987 0.0
H1055 H 0.62623 0.6973 0.45006 0.0
H1056 H 0.6015 0.63592 0.45196 0.0
H1057 H 0.61317 0.63367 0.49111 0.0
H1058 H 0.62546 0.64089 0.41608 0.0
H1059 H 0.56377 0.67694 0.45333 0.0
H1060 H 0.54511 0.70289 0.47708 0.0
H1061 H 0.5721 0.74889 0.43369 0.0
H1062 H 0.59139 0.72323 0.40992 0.0
H1063 H 0.54541 0.63088 0.32731 0.0
H1064 H 0.56801 0.63369 0.36155 0.0
H1065 H 0.58604 0.69506 0.34558 0.0
H1066 H 0.56074 0.69271 0.31172 0.0
H1067 H 0.57148 0.69319 0.38642 0.0
H1068 H 0.62842 0.65083 0.34615 0.0
H1069 H 0.6384 0.62112 0.32314 0.0
H1070 H 0.61097 0.58239 0.37442 0.0
H1071 H 0.60061 0.61181 0.39762 0.0
C1072 C 0.62952 0.68228 0.4817 0.0
C1073 C 0.62578 0.66444 0.49374 0.0
C1074 C 0.62312 0.68344 0.45901 0.0
C1075 C 0.6128 0.66682 0.44802 0.0
C1076 C 0.60938 0.64898 0.46 0.0
C1077 C 0.61584 0.64778 0.48252 0.0
C1078 C 0.6057 0.66765 0.424 0.0
C1079 C 0.61367 0.65236 0.4096 0.0
C1080 C 0.59046 0.68269 0.41543 0.0
C1081 C 0.57942 0.69817 0.43006 0.0
C1082 C 0.56605 0.69261 0.44903 0.0
C1083 C 0.5553 0.70726 0.46247 0.0
C1084 C 0.55752 0.72753 0.45696 0.0
C1085 C 0.57049 0.73319 0.438 0.0
C1086 C 0.58137 0.7186 0.42456 0.0
C1087 C 0.55487 0.64481 0.33067 0.0
C1088 C 0.55163 0.6615 0.31679 0.0
C1089 C 0.56803 0.64637 0.35029 0.0
C1090 C 0.57952 0.6644 0.35605 0.0
C1091 C 0.57759 0.68089 0.34139 0.0
C1092 C 0.56352 0.6795 0.32189 0.0
C1093 C 0.59112 0.66633 0.37847 0.0
C1094 C 0.5839 0.68209 0.39267 0.0
C1095 C 0.60632 0.65125 0.38715 0.0
C1096 C 0.61383 0.63357 0.37364 0.0
C1097 C 0.62461 0.63598 0.35254 0.0
C1098 C 0.63027 0.61918 0.33945 0.0
C1099 C 0.62534 0.59989 0.34732 0.0
C1100 C 0.61485 0.59733 0.36837 0.0
C1101 C 0.60917 0.61406 0.38152 0.0
H1102 H 0.62964 0.58691 0.33711 0.0
H1103 H 0.5491 0.73885 0.46734 0.0
H1104 H 0.34645 0.66439 0.03895 0.0
H1105 H 0.3653 0.66271 0.07578 0.0
H1106 H 0.43473 0.66667 0.04468 0.0
H1107 H 0.41578 0.66748 0.00761 0.0
H1108 H 0.43797 0.64217 0.0769 0.0
H1109 H 0.40624 0.70853 0.07291 0.0
H1110 H 0.37669 0.73551 0.06807 0.0
H1111 H 0.33404 0.71081 0.12109 0.0
H1112 H 0.36327 0.68361 0.12612 0.0
H1113 H 0.50109 0.68305 0.16905 0.0
H1114 H 0.47801 0.6806 0.13464 0.0
H1115 H 0.41971 0.65374 0.17098 0.0
H1116 H 0.44339 0.65528 0.20583 0.0
H1117 H 0.40968 0.68724 0.13779 0.0
H1118 H 0.44724 0.62236 0.14299 0.0
H1119 H 0.4803 0.59837 0.14744 0.0
H1120 H 0.51651 0.62441 0.09116 0.0
H1121 H 0.48378 0.64868 0.08648 0.0
C1122 C 0.36574 0.66487 0.03999 0.0
C1123 C 0.37964 0.66625 0.02044 0.0
C1124 C 0.37653 0.66404 0.06108 0.0
C1125 C 0.40148 0.6651 0.0632 0.0
C1126 C 0.41545 0.66593 0.0436 0.0
C1127 C 0.40464 0.66639 0.02241 0.0
C1128 C 0.41288 0.66533 0.08582 0.0
C1129 C 0.43189 0.6522 0.09009 0.0
C1130 C 0.40483 0.67813 0.10334 0.0
C1131 C 0.38675 0.69392 0.09969 0.0
C1132 C 0.39041 0.70873 0.08334 0.0
C1133 C 0.37377 0.7241 0.08062 0.0
C1134 C 0.35346 0.72484 0.09421 0.0
C1135 C 0.34974 0.7102 0.11054 0.0
C1136 C 0.36634 0.69482 0.11334 0.0
C1137 C 0.48315 0.67697 0.16995 0.0
C1138 C 0.47412 0.66924 0.19023 0.0
C1139 C 0.47014 0.67535 0.15015 0.0
C1140 C 0.44753 0.66645 0.15019 0.0
C1141 C 0.43741 0.66033 0.17065 0.0
C1142 C 0.45073 0.66156 0.19059 0.0
C1143 C 0.43456 0.66419 0.1287 0.0
C1144 C 0.41543 0.67705 0.12461 0.0
C1145 C 0.44298 0.65157 0.11123 0.0
C1146 C 0.46314 0.63749 0.11455 0.0
C1147 C 0.46239 0.62315 0.13175 0.0
C1148 C 0.48103 0.60944 0.13425 0.0
C1149 C 0.50052 0.6099 0.11963 0.0
C1150 C 0.50142 0.62408 0.10249 0.0
C1151 C 0.48281 0.6378 0.09989 0.0
H1152 H 0.51489 0.59923 0.12156 0.0
H1153 H 0.34064 0.73679 0.09213 0.0
H1154 H 0.11731 0.81162 0.51037 0.0
H1155 H 0.10382 0.80855 0.54944 0.0
H1156 H 0.13261 0.86727 0.56429 0.0
H1157 H 0.14605 0.87036 0.52543 0.0
H1158 H 0.1419 0.84158 0.59784 0.0
H1159 H 0.07585 0.86221 0.5548 0.0
H1160 H 0.04623 0.86168 0.5243 0.0
H1161 H 0.01864 0.8055 0.54806 0.0
H1162 H 0.04855 0.8054 0.57842 0.0
H1163 H 0.07333 0.86194 0.69721 0.0
H1164 H 0.0947 0.86157 0.6615 0.0
H1165 H 0.06342 0.80398 0.64544 0.0
H1166 H 0.04114 0.80493 0.68072 0.0
H1167 H 0.05587 0.82976 0.61254 0.0
H1168 H 0.1253 0.81174 0.6573 0.0
H1169 H 0.15208 0.81791 0.68944 0.0
H1170 H 0.1705 0.87577 0.66304 0.0
H1171 H 0.1435 0.87007 0.63094 0.0
C1172 C 0.12104 0.8237 0.52211 0.0
C1173 C 0.13259 0.84127 0.51491 0.0
C1174 C 0.11321 0.82201 0.54433 0.0
C1175 C 0.11701 0.83778 0.55972 0.0
C1176 C 0.12945 0.85495 0.55273 0.0
C1177 C 0.13702 0.85673 0.53053 0.0
C1178 C 0.10733 0.83677 0.58287 0.0
C1179 C 0.12308 0.83902 0.60104 0.0
C1180 C 0.08272 0.83373 0.58707 0.0
C1181 C 0.06476 0.83362 0.56871 0.0
C1182 C 0.06372 0.84958 0.55336 0.0
C1183 C 0.04683 0.84942 0.53611 0.0
C1184 C 0.03063 0.83352 0.53418 0.0
C1185 C 0.03127 0.81777 0.54953 0.0
C1186 C 0.04822 0.81779 0.56675 0.0
C1187 C 0.07215 0.84869 0.68664 0.0
C1188 C 0.05613 0.8332 0.69195 0.0
C1189 C 0.08409 0.8486 0.66603 0.0
C1190 C 0.08071 0.83272 0.65068 0.0
C1191 C 0.06629 0.81641 0.65692 0.0
C1192 C 0.05401 0.8167 0.67732 0.0
C1193 C 0.09058 0.83377 0.62753 0.0
C1194 C 0.07477 0.83186 0.60932 0.0
C1195 C 0.115 0.83766 0.62328 0.0
C1196 C 0.13237 0.84049 0.64176 0.0
C1197 C 0.13511 0.82576 0.65834 0.0
C1198 C 0.15027 0.82919 0.67658 0.0
C1199 C 0.16297 0.84722 0.67829 0.0
C1200 C 0.16066 0.8618 0.66168 0.0
C1201 C 0.14547 0.85846 0.64344 0.0
H1202 H 0.17462 0.84989 0.69247 0.0
H1203 H 0.01753 0.83345 0.52085 0.0
H1204 H 0.19491 0.27955 0.37655 0.0
H1205 H 0.16366 0.26053 0.35729 0.0
H1206 H 0.20839 0.25578 0.29861 0.0
H1207 H 0.23955 0.27538 0.31772 0.0
H1208 H 0.16452 0.26283 0.28599 0.0
H1209 H 0.19946 0.21509 0.33741 0.0
H1210 H 0.21269 0.20272 0.37428 0.0
H1211 H 0.14147 0.20883 0.39993 0.0
H1212 H 0.12785 0.22136 0.36326 0.0
H1213 H 0.09718 0.17142 0.24797 0.0
H1214 H 0.12977 0.19418 0.25985 0.0
H1215 H 0.08114 0.22522 0.30386 0.0
H1216 H 0.04863 0.2036 0.29111 0.0
H1217 H 0.12798 0.20343 0.32246 0.0
H1218 H 0.09379 0.25398 0.27457 0.0
H1219 H 0.07785 0.26488 0.23811 0.0
H1220 H 0.14565 0.25325 0.20714 0.0
H1221 H 0.16182 0.24186 0.24343 0.0
C1222 C 0.19813 0.27441 0.35956 0.0
C1223 C 0.21981 0.27883 0.34874 0.0
C1224 C 0.18026 0.26343 0.34856 0.0
C1225 C 0.18379 0.25623 0.32662 0.0
C1226 C 0.20523 0.26104 0.31556 0.0
C1227 C 0.22302 0.27228 0.32648 0.0
C1228 C 0.16509 0.24382 0.3152 0.0
C1229 C 0.15691 0.24966 0.2939 0.0
C1230 C 0.15453 0.22684 0.32557 0.0
C1231 C 0.16269 0.21929 0.34763 0.0
C1232 C 0.18666 0.21389 0.35095 0.0
C1233 C 0.19421 0.20683 0.37181 0.0
C1234 C 0.17794 0.20502 0.38945 0.0
C1235 C 0.15406 0.21023 0.38626 0.0
C1236 C 0.1464 0.21728 0.36543 0.0
C1237 C 0.09325 0.18389 0.25908 0.0
C1238 C 0.0703 0.18612 0.26817 0.0
C1239 C 0.11191 0.19659 0.26623 0.0
C1240 C 0.10783 0.21117 0.28295 0.0
C1241 C 0.08464 0.2141 0.29094 0.0
C1242 C 0.06601 0.20197 0.28331 0.0
C1243 C 0.1278 0.22246 0.29346 0.0
C1244 C 0.136 0.21645 0.31458 0.0
C1245 C 0.13816 0.23934 0.28314 0.0
C1246 C 0.1289 0.24686 0.26157 0.0
C1247 C 0.10522 0.2536 0.25993 0.0
C1248 C 0.09615 0.25988 0.23932 0.0
C1249 C 0.1107 0.2597 0.2203 0.0
C1250 C 0.13439 0.25334 0.22189 0.0
C1251 C 0.14352 0.24697 0.24246 0.0
H1252 H 0.10364 0.26454 0.20434 0.0
H1253 H 0.18383 0.19956 0.40558 0.0
H1254 H 0.27884 0.21817 0.80286 0.0
H1255 H 0.31207 0.23817 0.78894 0.0
H1256 H 0.3241 0.26193 0.85536 0.0
H1257 H 0.29111 0.24128 0.86976 0.0
H1258 H 0.3259 0.29138 0.82203 0.0
H1259 H 0.36134 0.22889 0.83732 0.0
H1260 H 0.36599 0.19214 0.83716 0.0
H1261 H 0.3726 0.19228 0.76543 0.0
H1262 H 0.36757 0.22906 0.76511 0.0
H1263 H 0.43809 0.33258 0.80492 0.0
H1264 H 0.40717 0.30975 0.81719 0.0
H1265 H 0.39575 0.29043 0.74889 0.0
H1266 H 0.42771 0.31364 0.73619 0.0
H1267 H 0.39367 0.25859 0.7828 0.0
H1268 H 0.3588 0.3239 0.77026 0.0
H1269 H 0.3577 0.36073 0.77435 0.0
H1270 H 0.35345 0.35498 0.84592 0.0
H1271 H 0.3549 0.31811 0.84229 0.0
C1272 C 0.28866 0.2274 0.81469 0.0
C1273 C 0.2824 0.22776 0.83758 0.0
C1274 C 0.30765 0.23894 0.80662 0.0
C1275 C 0.32084 0.25136 0.82111 0.0
C1276 C 0.31422 0.2524 0.84385 0.0
C1277 C 0.29527 0.24064 0.85204 0.0
C1278 C 0.34142 0.26318 0.81223 0.0
C1279 C 0.34079 0.28418 0.81364 0.0
C1280 C 0.36084 0.25385 0.80112 0.0
C1281 C 0.36377 0.23172 0.80116 0.0
C1282 C 0.36351 0.22108 0.82147 0.0
C1283 C 0.36627 0.20024 0.82149 0.0
C1284 C 0.36951 0.18987 0.80129 0.0
C1285 C 0.37004 0.20034 0.78105 0.0
C1286 C 0.36724 0.22118 0.78095 0.0
C1287 C 0.42907 0.32356 0.79231 0.0
C1288 C 0.43491 0.3254 0.76942 0.0
C1289 C 0.41139 0.3104 0.79947 0.0
C1290 C 0.39864 0.29875 0.78398 0.0
C1291 C 0.4052 0.29952 0.76113 0.0
C1292 C 0.42337 0.31276 0.75385 0.0
C1293 C 0.37784 0.28678 0.79214 0.0
C1294 C 0.37856 0.26576 0.79086 0.0
C1295 C 0.35871 0.29608 0.80381 0.0
C1296 C 0.35706 0.31823 0.80599 0.0
C1297 C 0.35771 0.33049 0.78688 0.0
C1298 C 0.35704 0.35137 0.78912 0.0
C1299 C 0.35553 0.36019 0.81038 0.0
C1300 C 0.35461 0.34813 0.82946 0.0
C1301 C 0.35531 0.32723 0.82731 0.0
H1302 H 0.35505 0.37636 0.81208 0.0
H1303 H 0.37167 0.17374 0.80133 0.0
H1304 H 0.72185 0.24963 0.64442 0.0
H1305 H 0.69087 0.26904 0.66284 0.0
H1306 H 0.67606 0.21945 0.70696 0.0
H1307 H 0.70593 0.19923 0.68732 0.0
H1308 H 0.63591 0.23483 0.69427 0.0
H1309 H 0.70879 0.26577 0.72379 0.0
H1310 H 0.74776 0.28307 0.72167 0.0
H1311 H 0.71643 0.32989 0.68234 0.0
H1312 H 0.67735 0.31283 0.68415 0.0
H1313 H 0.56271 0.30028 0.76532 0.0
H1314 H 0.5939 0.2765 0.75271 0.0
H1315 H 0.61273 0.31669 0.69903 0.0
H1316 H 0.58266 0.34012 0.71149 0.0
H1317 H 0.65117 0.30437 0.72062 0.0
H1318 H 0.58091 0.27588 0.68788 0.0
H1319 H 0.54096 0.26034 0.68589 0.0
H1320 H 0.56529 0.21102 0.72575 0.0
H1321 H 0.60534 0.2264 0.72822 0.0
C1322 C 0.71188 0.24265 0.65786 0.0
C1323 C 0.71644 0.22269 0.66418 0.0
C1324 C 0.69436 0.25399 0.66872 0.0
C1325 C 0.68133 0.24596 0.68672 0.0
C1326 C 0.68593 0.2261 0.69324 0.0
C1327 C 0.70325 0.21459 0.68212 0.0
C1328 C 0.66247 0.25808 0.69819 0.0
C1329 C 0.63941 0.24989 0.70049 0.0
C1330 C 0.6666 0.27804 0.70559 0.0
C1331 C 0.69025 0.28795 0.70399 0.0
C1332 C 0.7103 0.27967 0.71455 0.0
C1333 C 0.73237 0.28946 0.71345 0.0
C1334 C 0.73458 0.30755 0.70185 0.0
C1335 C 0.71471 0.31589 0.69131 0.0
C1336 C 0.6926 0.30618 0.69241 0.0
C1337 C 0.57398 0.30412 0.75122 0.0
C1338 C 0.5705 0.32219 0.73966 0.0
C1339 C 0.59144 0.29043 0.74378 0.0
C1340 C 0.60555 0.29478 0.72481 0.0
C1341 C 0.6022 0.31298 0.71369 0.0
C1342 C 0.58502 0.32645 0.721 0.0
C1343 C 0.6247 0.28117 0.71666 0.0
C1344 C 0.6478 0.28914 0.71486 0.0
C1345 C 0.62036 0.26129 0.70921 0.0
C1346 C 0.59601 0.2525 0.70862 0.0
C1347 C 0.57764 0.2619 0.69656 0.0
C1348 C 0.55501 0.25307 0.69524 0.0
C1349 C 0.55055 0.23476 0.70579 0.0
C1350 C 0.56874 0.22525 0.71767 0.0
C1351 C 0.5914 0.23402 0.71904 0.0
H1352 H 0.53304 0.22792 0.70469 0.0
H1353 H 0.75168 0.31512 0.70106 0.0
H1354 H 0.79041 0.26265 0.14318 0.0
H1355 H 0.82273 0.24143 0.15738 0.0
H1356 H 0.81493 0.26808 0.22297 0.0
H1357 H 0.78227 0.28868 0.20931 0.0
H1358 H 0.86284 0.26662 0.20809 0.0
H1359 H 0.79362 0.2225 0.21376 0.0
H1360 H 0.75935 0.2026 0.20003 0.0
H1361 H 0.80526 0.17086 0.15448 0.0
H1362 H 0.83973 0.19076 0.16773 0.0
H1363 H 0.9337 0.19348 0.27144 0.0
H1364 H 0.90363 0.21815 0.25867 0.0
H1365 H 0.90071 0.18852 0.19423 0.0
H1366 H 0.92933 0.16421 0.20665 0.0
H1367 H 0.85792 0.19241 0.20955 0.0
H1368 H 0.92617 0.23405 0.20014 0.0
H1369 H 0.96236 0.25346 0.20958 0.0
H1370 H 0.92214 0.28953 0.25586 0.0
H1371 H 0.88574 0.27013 0.24694 0.0
C1372 C 0.79533 0.26382 0.16069 0.0
C1373 C 0.78378 0.27762 0.17498 0.0
C1374 C 0.81393 0.25174 0.16876 0.0
C1375 C 0.82137 0.25326 0.19124 0.0
C1376 C 0.80972 0.26682 0.20552 0.0
C1377 C 0.79107 0.27868 0.19759 0.0
C1378 C 0.84122 0.24078 0.20011 0.0
C1379 C 0.86171 0.25038 0.20869 0.0
C1380 C 0.8401 0.2196 0.20019 0.0
C1381 C 0.81917 0.20831 0.19154 0.0
C1382 C 0.79633 0.21149 0.20059 0.0
C1383 C 0.77689 0.20015 0.19295 0.0
C1384 C 0.78011 0.18552 0.17635 0.0
C1385 C 0.80277 0.18222 0.1673 0.0
C1386 C 0.82225 0.19354 0.17486 0.0
C1387 C 0.92644 0.19228 0.25465 0.0
C1388 C 0.93333 0.17637 0.24045 0.0
C1389 C 0.90947 0.20645 0.24727 0.0
C1390 C 0.89962 0.20505 0.2255 0.0
C1391 C 0.90754 0.18978 0.21119 0.0
C1392 C 0.92391 0.17569 0.21853 0.0
C1393 C 0.87979 0.21814 0.21756 0.0
C1394 C 0.85919 0.20865 0.20911 0.0
C1395 C 0.88123 0.23935 0.21695 0.0
C1396 C 0.90331 0.25036 0.2232 0.0
C1397 C 0.92512 0.24588 0.21263 0.0
C1398 C 0.94565 0.25695 0.2178 0.0
C1399 C 0.94458 0.27265 0.2334 0.0
C1400 C 0.92297 0.27731 0.24385 0.0
C1401 C 0.90239 0.26627 0.23876 0.0
H1402 H 0.96048 0.28126 0.23731 0.0
H1403 H 0.76506 0.17669 0.17054 0.0
H1404 H 0.81229 0.70012 0.6673 0.0
H1405 H 0.8458 0.71806 0.68479 0.0
H1406 H 0.80572 0.7732 0.68235 0.0
H1407 H 0.77275 0.75547 0.66412 0.0
H1408 H 0.84837 0.78075 0.66983 0.0
H1409 H 0.81637 0.74298 0.73331 0.0
H1410 H 0.80504 0.71229 0.75377 0.0
H1411 H 0.87613 0.68942 0.74599 0.0
H1412 H 0.88781 0.71991 0.72536 0.0
H1413 H 0.91522 0.84339 0.73988 0.0
H1414 H 0.88264 0.82158 0.72719 0.0
H1415 H 0.92967 0.77055 0.73001 0.0
H1416 H 0.96206 0.79239 0.74322 0.0
H1417 H 0.88653 0.75917 0.74067 0.0
H1418 H 0.9202 0.79618 0.68036 0.0
H1419 H 0.9336 0.82548 0.65858 0.0
H1420 H 0.8621 0.84841 0.658 0.0
H1421 H 0.84831 0.81936 0.68001 0.0
C1422 C 0.81061 0.71603 0.67073 0.0
C1423 C 0.78989 0.72638 0.66436 0.0
C1424 C 0.82975 0.72629 0.6808 0.0
C1425 C 0.82831 0.74703 0.68525 0.0
C1426 C 0.80743 0.75726 0.6791 0.0
C1427 C 0.78853 0.7471 0.66871 0.0
C1428 C 0.84854 0.75838 0.69576 0.0
C1429 C 0.8564 0.77617 0.68553 0.0
C1430 C 0.86004 0.75202 0.71565 0.0
C1431 C 0.85286 0.73359 0.72764 0.0
C1432 C 0.8295 0.73132 0.73582 0.0
C1433 C 0.82305 0.71399 0.74749 0.0
C1434 C 0.83984 0.69889 0.75113 0.0
C1435 C 0.86314 0.7011 0.74314 0.0
C1436 C 0.86968 0.7184 0.73148 0.0
C1437 C 0.91814 0.82733 0.73908 0.0
C1438 C 0.94095 0.81947 0.74314 0.0
C1439 C 0.89971 0.81494 0.73122 0.0
C1440 C 0.90387 0.79449 0.72695 0.0
C1441 C 0.92602 0.78629 0.73302 0.0
C1442 C 0.94442 0.7987 0.74103 0.0
C1443 C 0.88558 0.78193 0.71526 0.0
C1444 C 0.87836 0.76382 0.72506 0.0
C1445 C 0.8749 0.78788 0.69479 0.0
C1446 C 0.88328 0.80569 0.6821 0.0
C1447 C 0.90738 0.80758 0.67583 0.0
C1448 C 0.91503 0.82412 0.66337 0.0
C1449 C 0.89873 0.83883 0.65697 0.0
C1450 C 0.87472 0.83703 0.663 0.0
C1451 C 0.86698 0.82052 0.67546 0.0
H1452 H 0.90467 0.8516 0.64728 0.0
H1453 H 0.83481 0.68551 0.7602 0.0
H1454 H 0.75081 0.76245 0.19528 0.0
H1455 H 0.71826 0.74198 0.21003 0.0
H1456 H 0.67308 0.76073 0.15555 0.0
H1457 H 0.70557 0.78168 0.14091 0.0
H1458 H 0.65084 0.76522 0.19486 0.0
H1459 H 0.69301 0.71271 0.15866 0.0
H1460 H 0.72686 0.6911 0.14812 0.0
H1461 H 0.73494 0.67308 0.2167 0.0
H1462 H 0.70139 0.69485 0.22774 0.0
H1463 H 0.55542 0.69919 0.22063 0.0
H1464 H 0.58722 0.71997 0.20597 0.0
H1465 H 0.63617 0.69448 0.25387 0.0
H1466 H 0.60437 0.67177 0.26679 0.0
H1467 H 0.6563 0.69372 0.21666 0.0
H1468 H 0.61217 0.74816 0.25193 0.0
H1469 H 0.57576 0.76783 0.25931 0.0
H1470 H 0.56962 0.78111 0.18918 0.0
H1471 H 0.60577 0.76129 0.18133 0.0
C1472 C 0.73401 0.76213 0.18631 0.0
C1473 C 0.73076 0.77389 0.16702 0.0
C1474 C 0.71544 0.75026 0.19468 0.0
C1475 C 0.69317 0.74975 0.18392 0.0
C1476 C 0.69009 0.76089 0.16418 0.0
C1477 C 0.70874 0.77275 0.15572 0.0
C1478 C 0.67273 0.73877 0.19428 0.0
C1479 C 0.65193 0.74952 0.19943 0.0
C1480 C 0.67423 0.71836 0.20057 0.0
C1481 C 0.69483 0.70563 0.19408 0.0
C1482 C 0.70219 0.70435 0.17156 0.0
C1483 C 0.72128 0.69202 0.16548 0.0
C1484 C 0.73309 0.68078 0.18174 0.0
C1485 C 0.72581 0.68184 0.20413 0.0
C1486 C 0.70675 0.69417 0.2103 0.0
C1487 C 0.57269 0.69872 0.22881 0.0
C1488 C 0.57726 0.68431 0.24533 0.0
C1489 C 0.59104 0.71066 0.22033 0.0
C1490 C 0.61429 0.70933 0.229 0.0
C1491 C 0.61845 0.69595 0.24684 0.0
C1492 C 0.60018 0.68327 0.25466 0.0
C1493 C 0.63451 0.7203 0.21797 0.0
C1494 C 0.65526 0.70951 0.21246 0.0
C1495 C 0.63286 0.74065 0.21114 0.0
C1496 C 0.61163 0.75317 0.21605 0.0
C1497 C 0.60304 0.75527 0.23809 0.0
C1498 C 0.58242 0.76642 0.24235 0.0
C1499 C 0.57037 0.77569 0.22472 0.0
C1500 C 0.57897 0.77392 0.20281 0.0
C1501 C 0.59954 0.76276 0.19846 0.0
H1502 H 0.55438 0.78427 0.22805 0.0
H1503 H 0.74783 0.6712 0.17699 0.0
H1504 H 0.26925 0.75781 0.32679 0.0
H1505 H 0.30165 0.73895 0.30868 0.0
H1506 H 0.35337 0.77877 0.3391 0.0
H1507 H 0.32089 0.79746 0.35737 0.0
H1508 H 0.36449 0.77169 0.2959 0.0
H1509 H 0.34588 0.73346 0.35947 0.0
H1510 H 0.3217 0.71487 0.38695 0.0
H1511 H 0.30214 0.67191 0.33621 0.0
H1512 H 0.32582 0.6905 0.30824 0.0
H1513 H 0.46549 0.70914 0.27448 0.0
H1514 H 0.43407 0.73108 0.28807 0.0
H1515 H 0.38102 0.68875 0.26471 0.0
H1516 H 0.41294 0.66598 0.25272 0.0
H1517 H 0.37148 0.69807 0.30548 0.0
H1518 H 0.39322 0.74034 0.24166 0.0
H1519 H 0.42296 0.75874 0.21912 0.0
H1520 H 0.44207 0.79435 0.27666 0.0
H1521 H 0.41266 0.77601 0.29959 0.0
C1522 C 0.28755 0.76256 0.3294 0.0
C1523 C 0.29267 0.7791 0.34329 0.0
C1524 C 0.30605 0.75174 0.31921 0.0
C1525 C 0.33002 0.75733 0.32262 0.0
C1526 C 0.33507 0.77415 0.33618 0.0
C1527 C 0.31656 0.78482 0.3466 0.0
C1528 C 0.34973 0.74562 0.312 0.0
C1529 C 0.36607 0.75559 0.29808 0.0
C1530 C 0.35204 0.72464 0.31498 0.0
C1531 C 0.33737 0.71357 0.33163 0.0
C1532 C 0.33617 0.72021 0.35406 0.0
C1533 C 0.32259 0.70964 0.36975 0.0
C1534 C 0.31032 0.69226 0.36331 0.0
C1535 C 0.31161 0.68542 0.34115 0.0
C1536 C 0.32509 0.69598 0.32536 0.0
C1537 C 0.4471 0.70505 0.27105 0.0
C1538 C 0.4417 0.68615 0.26177 0.0
C1539 C 0.429 0.71758 0.27907 0.0
C1540 C 0.40488 0.71189 0.27725 0.0
C1541 C 0.3994 0.69363 0.26632 0.0
C1542 C 0.41763 0.6808 0.25888 0.0
C1543 C 0.38567 0.72396 0.28847 0.0
C1544 C 0.36961 0.71409 0.30287 0.0
C1545 C 0.38403 0.74512 0.28642 0.0
C1546 C 0.40079 0.75678 0.27232 0.0
C1547 C 0.40375 0.75212 0.24947 0.0
C1548 C 0.42058 0.76251 0.23665 0.0
C1549 C 0.43441 0.77769 0.24646 0.0
C1550 C 0.43134 0.7826 0.26908 0.0
C1551 C 0.41456 0.77225 0.28198 0.0
H1552 H 0.44749 0.78566 0.23652 0.0
H1553 H 0.29987 0.68407 0.3755 0.0
H1554 H 0.25125 0.74338 0.82078 0.0
H1555 H 0.21923 0.76426 0.80557 0.0
H1556 H 0.16759 0.73133 0.84455 0.0
H1557 H 0.19974 0.71061 0.8601 0.0
H1558 H 0.15568 0.73341 0.79958 0.0
H1559 H 0.17842 0.77772 0.8581 0.0
H1560 H 0.20471 0.79856 0.88186 0.0
H1561 H 0.22294 0.83489 0.82511 0.0
H1562 H 0.1971 0.81401 0.80086 0.0
H1563 H 0.05466 0.7935 0.77805 0.0
H1564 H 0.08741 0.77307 0.79118 0.0
H1565 H 0.13774 0.81418 0.76125 0.0
H1566 H 0.10443 0.83571 0.7497 0.0
H1567 H 0.15087 0.80769 0.80154 0.0
H1568 H 0.12623 0.76124 0.74302 0.0
H1569 H 0.09594 0.7415 0.72242 0.0
H1570 H 0.0784 0.70954 0.78258 0.0
H1571 H 0.10837 0.72925 0.80359 0.0
C1572 C 0.2331 0.74086 0.82639 0.0
C1573 C 0.22795 0.72541 0.84162 0.0
C1574 C 0.21483 0.75281 0.81773 0.0
C1575 C 0.19098 0.74936 0.82388 0.0
C1576 C 0.18586 0.73427 0.83957 0.0
C1577 C 0.20421 0.72253 0.84855 0.0
C1578 C 0.17137 0.76055 0.8127 0.0
C1579 C 0.15451 0.74965 0.80016 0.0
C1580 C 0.17003 0.78176 0.81316 0.0
C1581 C 0.18606 0.79409 0.82757 0.0
C1582 C 0.1883 0.78996 0.85059 0.0
C1583 C 0.20306 0.80183 0.86417 0.0
C1584 C 0.21556 0.81799 0.85499 0.0
C1585 C 0.2133 0.82232 0.83219 0.0
C1586 C 0.1986 0.81047 0.81851 0.0
C1587 C 0.07266 0.79762 0.7732 0.0
C1588 C 0.07695 0.81588 0.76227 0.0
C1589 C 0.09154 0.78594 0.78088 0.0
C1590 C 0.11532 0.79174 0.77701 0.0
C1591 C 0.11963 0.80925 0.76444 0.0
C1592 C 0.10059 0.82132 0.75731 0.0
C1593 C 0.13534 0.78059 0.78792 0.0
C1594 C 0.15224 0.79147 0.80059 0.0
C1595 C 0.13661 0.75932 0.78778 0.0
C1596 C 0.11951 0.74675 0.77486 0.0
C1597 C 0.11594 0.74998 0.75183 0.0
C1598 C 0.09879 0.73882 0.7401 0.0
C1599 C 0.08525 0.72429 0.75119 0.0
C1600 C 0.08892 0.72078 0.774 0.0
C1601 C 0.10603 0.7319 0.78581 0.0
H1602 H 0.07191 0.71573 0.7421 0.0
H1603 H 0.22693 0.8272 0.86555 0.0
loop_
_geom_bond_atom_site_label_1
_geom_bond_atom_site_label_2
_geom_bond_distance
_geom_bond_site_symmetry_2
_ccdc_geom_bond_type
C0 C1 1.264 . S
C0 C5 1.479 . S
C0 C10 1.465 . S
C1 C0 1.264 . S
C1 C3 1.339 . S
C1 H28 0.931 . S
C2 C3 1.395 . S
C2 C4 1.320 . S
C3 C1 1.339 . S
C3 C2 1.395 . S
C3 H29 0.929 . S
C4 C2 1.320 . S
C4 C5 1.405 . S
C4 H30 0.930 . S
C5 C0 1.479 . S
C5 C4 1.405 . S
C5 H31 0.931 . S
U6 O7 2.454 . S
U6 O8 2.458 . S
U6 C9 2.984 . S
U6 C10 2.847 . S
U6 C23 2.882 . S
U6 O24 2.441 . S
U6 O25 2.420 . S
U6 O26 2.455 . S
U6 O27 2.449 . S
O7 U6 2.454 . S
O7 C9 1.353 . S
O8 U6 2.458 . S
O8 C9 1.286 . S
C9 U6 2.984 . S
C9 O7 1.353 . S
C9 O8 1.286 . S
C9 C11 1.363 . S
C10 C0 1.465 . S
C10 U6 2.847 . S
C10 O24 1.249 . S
C10 O25 1.202 . S
C11 C9 1.363 . S
C11 C13 1.408 . S
C11 C16 1.342 . S
C12 C13 1.310 . S
C12 C15 1.461 . S
C12 H32 0.932 . S
C13 C11 1.408 . S
C13 C12 1.310 . S
C13 H33 0.930 . S
C14 C15 1.474 . S
C14 C16 1.285 . S
C14 H34 0.929 . S
C15 C12 1.461 . S
C15 C14 1.474 . S
C16 C11 1.342 . S
C16 C14 1.285 . S
C16 H35 0.930 . S
C17 C20 1.424 . S
C17 C22 1.245 . S
C17 C23 1.428 . S
C18 C21 1.260 . S
C18 C22 1.477 . S
C18 H36 0.932 . S
C19 C20 1.384 . S
C19 C21 1.479 . S
C19 H37 0.929 . S
C20 C17 1.424 . S
C20 C19 1.384 . S
C20 H38 0.928 . S
C21 C18 1.260 . S
C21 C19 1.479 . S
C22 C17 1.245 . S
C22 C18 1.477 . S
C22 H39 0.932 . S
C23 U6 2.882 . S
C23 C17 1.428 . S
C23 O26 1.301 . S
C23 O27 1.282 . S
O24 U6 2.441 . S
O24 C10 1.249 . S
O25 U6 2.420 . S
O25 C10 1.202 . S
O26 U6 2.455 . S
O26 C23 1.301 . S
O27 U6 2.449 . S
O27 C23 1.282 . S
H28 C1 0.931 . S
H29 C3 0.929 . S
H30 C4 0.930 . S
H31 C5 0.931 . S
H32 C12 0.932 . S
H33 C13 0.930 . S
H34 C14 0.929 . S
H35 C16 0.930 . S
H36 C18 0.932 . S
H37 C19 0.929 . S
H38 C20 0.928 . S
H39 C22 0.932 . S
C40 C41 1.264 . S
C40 C45 1.479 . S
C40 C50 1.465 . S
C41 C40 1.264 . S
C41 C43 1.339 . S
C41 H68 0.931 . S
C42 C43 1.395 . S
C42 C44 1.320 . S
C43 C41 1.339 . S
C43 C42 1.395 . S
C43 H69 0.929 . S
C44 C42 1.320 . S
C44 C45 1.405 . S
C44 H70 0.930 1_556 S
C45 C40 1.479 . S
C45 C44 1.405 . S
C45 H71 0.931 . S
U46 O47 2.454 . S
U46 O48 2.458 . S
U46 C49 2.984 . S
U46 C50 2.847 . S
U46 C63 2.882 . S
U46 O64 2.441 . S
U46 O65 2.420 . S
U46 O66 2.455 . S
U46 O67 2.449 . S
O47 U46 2.454 . S
O47 C49 1.353 . S
O48 U46 2.458 . S
O48 C49 1.286 . S
C49 U46 2.984 . S
C49 O47 1.353 . S
C49 O48 1.286 . S
C49 C51 1.363 . S
C50 C40 1.465 . S
C50 U46 2.847 . S
C50 O64 1.249 . S
C50 O65 1.202 . S
C51 C49 1.363 . S
C51 C53 1.408 . S
C51 C56 1.342 . S
C52 C53 1.310 . S
C52 C55 1.461 . S
C52 H72 0.932 . S
C53 C51 1.408 . S
C53 C52 1.310 . S
C53 H73 0.930 . S
C54 C55 1.474 . S
C54 C56 1.285 . S
C54 H74 0.929 . S
C55 C52 1.461 . S
C55 C54 1.474 . S
C56 C51 1.342 . S
C56 C54 1.285 . S
C56 H75 0.930 . S
C57 C60 1.424 . S
C57 C62 1.245 . S
C57 C63 1.428 . S
C58 C61 1.260 . S
C58 C62 1.477 . S
C58 H76 0.932 . S
C59 C60 1.384 . S
C59 C61 1.479 . S
C59 H77 0.929 . S
C60 C57 1.424 . S
C60 C59 1.384 . S
C60 H78 0.928 . S
C61 C58 1.260 . S
C61 C59 1.479 . S
C62 C57 1.245 . S
C62 C58 1.477 . S
C62 H79 0.932 . S
C63 U46 2.882 . S
C63 C57 1.428 . S
C63 O66 1.301 . S
C63 O67 1.282 . S
O64 U46 2.441 . S
O64 C50 1.249 . S
O65 U46 2.420 . S
O65 C50 1.202 . S
O66 U46 2.455 . S
O66 C63 1.301 . S
O67 U46 2.449 . S
O67 C63 1.282 . S
H68 C41 0.931 . S
H69 C43 0.929 . S
H70 C44 0.930 1_554 S
H71 C45 0.931 . S
H72 C52 0.932 . S
H73 C53 0.930 . S
H74 C54 0.929 . S
H75 C56 0.930 . S
H76 C58 0.932 . S
H77 C59 0.929 . S
H78 C60 0.928 . S
H79 C62 0.932 . S
C80 C81 1.264 . S
C80 C85 1.479 . S
C80 C90 1.465 . S
C81 C80 1.264 . S
C81 C83 1.339 . S
C81 H108 0.931 . S
C82 C83 1.395 . S
C82 C84 1.320 . S
C83 C81 1.339 . S
C83 C82 1.395 . S
C83 H109 0.929 . S
C84 C82 1.320 . S
C84 C85 1.405 . S
C84 H110 0.930 . S
C85 C80 1.479 . S
C85 C84 1.405 . S
C85 H111 0.931 . S
U86 O87 2.454 . S
U86 O88 2.458 . S
U86 C89 2.984 . S
U86 C90 2.847 . S
U86 C103 2.882 . S
U86 O104 2.441 . S
U86 O105 2.420 . S
U86 O106 2.455 . S
U86 O107 2.449 . S
O87 U86 2.454 . S
O87 C89 1.353 . S
O88 U86 2.458 . S
O88 C89 1.286 . S
C89 U86 2.984 . S
C89 O87 1.353 . S
C89 O88 1.286 . S
C89 C91 1.363 . S
C90 C80 1.465 . S
C90 U86 2.847 . S
C90 O104 1.249 . S
C90 O105 1.202 . S
C91 C89 1.363 . S
C91 C93 1.408 . S
C91 C96 1.342 . S
C92 C93 1.310 . S
C92 C95 1.461 . S
C92 H112 0.932 . S
C93 C91 1.408 . S
C93 C92 1.310 . S
C93 H113 0.930 . S
C94 C95 1.474 . S
C94 C96 1.285 . S
C94 H114 0.929 . S
C95 C92 1.461 . S
C95 C94 1.474 . S
C96 C91 1.342 . S
C96 C94 1.285 . S
C96 H115 0.930 . S
C97 C100 1.424 . S
C97 C102 1.245 . S
C97 C103 1.428 . S
C98 C101 1.260 . S
C98 C102 1.477 . S
C98 H116 0.932 . S
C99 C100 1.384 . S
C99 C101 1.479 . S
C99 H117 0.929 . S
C100 C97 1.424 . S
C100 C99 1.384 . S
C100 H118 0.928 . S
C101 C98 1.260 . S
C101 C99 1.479 . S
C102 C97 1.245 . S
C102 C98 1.477 . S
C102 H119 0.932 . S
C103 U86 2.882 . S
C103 C97 1.428 . S
C103 O106 1.301 . S
C103 O107 1.282 . S
O104 U86 2.441 . S
O104 C90 1.249 . S
O105 U86 2.420 . S
O105 C90 1.202 . S
O106 U86 2.455 . S
O106 C103 1.301 . S
O107 U86 2.449 . S
O107 C103 1.282 . S
H108 C81 0.931 . S
H109 C83 0.929 . S
H110 C84 0.930 . S
H111 C85 0.931 . S
H112 C92 0.932 . S
H113 C93 0.930 . S
H114 C94 0.929 . S
H115 C96 0.930 . S
H116 C98 0.932 . S
H117 C99 0.929 . S
H118 C100 0.928 . S
H119 C102 0.932 . S
C120 C121 1.264 . S
C120 C125 1.479 . S
C120 C130 1.465 . S
C121 C120 1.264 . S
C121 C123 1.339 . S
C121 H148 0.931 . S
C122 C123 1.395 . S
C122 C124 1.320 . S
C123 C121 1.339 . S
C123 C122 1.395 . S
C123 H149 0.929 . S
C124 C122 1.320 . S
C124 C125 1.405 . S
C124 H150 0.966 . S
C125 C120 1.479 . S
C125 C124 1.405 . S
C125 H151 0.931 . S
U126 O127 2.454 . S
U126 O128 2.458 . S
U126 C129 2.984 . S
U126 C130 2.847 . S
U126 C143 2.882 . S
U126 O144 2.441 . S
U126 O145 2.420 . S
U126 O146 2.455 . S
U126 O147 2.449 . S
O127 U126 2.454 . S
O127 C129 1.353 . S
O128 U126 2.458 . S
O128 C129 1.286 . S
C129 U126 2.984 . S
C129 O127 1.353 . S
C129 O128 1.286 . S
C129 C131 1.363 . S
C130 C120 1.465 . S
C130 U126 2.847 . S
C130 O144 1.249 . S
C130 O145 1.202 . S
C131 C129 1.363 . S
C131 C133 1.408 . S
C131 C136 1.342 . S
C132 C133 1.310 . S
C132 C135 1.461 . S
C132 H152 0.932 . S
C133 C131 1.408 . S
C133 C132 1.310 . S
C133 H153 0.930 . S
C134 C135 1.474 . S
C134 C136 1.285 . S
C134 H154 0.929 . S
C135 C132 1.461 . S
C135 C134 1.474 . S
C136 C131 1.342 . S
C136 C134 1.285 . S
C136 H155 0.930 . S
C137 C140 1.424 . S
C137 C142 1.245 . S
C137 C143 1.428 . S
C138 C141 1.260 . S
C138 C142 1.477 . S
C138 H156 0.932 . S
C139 C140 1.384 . S
C139 C141 1.479 . S
C139 H157 0.929 . S
C140 C137 1.424 . S
C140 C139 1.384 . S
C140 H158 0.928 . S
C141 C138 1.260 . S
C141 C139 1.479 . S
C142 C137 1.245 . S
C142 C138 1.477 . S
C142 H159 0.932 . S
C143 U126 2.882 . S
C143 C137 1.428 . S
C143 O146 1.301 . S
C143 O147 1.282 . S
O144 U126 2.441 . S
O144 C130 1.249 . S
O145 U126 2.420 . S
O145 C130 1.202 . S
O146 U126 2.455 . S
O146 C143 1.301 . S
O147 U126 2.449 . S
O147 C143 1.282 . S
H148 C121 0.931 . S
H149 C123 0.929 . S
H150 C124 0.966 . S
H151 C125 0.931 . S
H152 C132 0.932 . S
H153 C133 0.930 . S
H154 C134 0.929 . S
H155 C136 0.930 . S
H156 C138 0.932 . S
H157 C139 0.929 . S
H158 C140 0.928 . S
H159 C142 0.932 . S
C160 C161 1.264 . S
C160 C165 1.479 . S
C160 C170 1.465 . S
C161 C160 1.264 . S
C161 C163 1.339 . S
C161 H188 0.931 . S
C162 C163 1.395 . S
C162 C164 1.320 . S
C163 C161 1.339 . S
C163 C162 1.395 . S
C163 H189 0.929 . S
C164 C162 1.320 . S
C164 C165 1.405 . S
C164 H190 0.930 . S
C165 C160 1.479 . S
C165 C164 1.405 . S
C165 H191 0.931 . S
U166 O167 2.454 . S
U166 O168 2.458 . S
U166 C169 2.984 . S
U166 C170 2.847 . S
U166 C183 2.882 . S
U166 O184 2.441 . S
U166 O185 2.420 . S
U166 O186 2.455 . S
U166 O187 2.449 . S
O167 U166 2.454 . S
O167 C169 1.353 . S
O168 U166 2.458 . S
O168 C169 1.286 . S
C169 U166 2.984 . S
C169 O167 1.353 . S
C169 O168 1.286 . S
C169 C171 1.363 . S
C170 C160 1.465 . S
C170 U166 2.847 . S
C170 O184 1.249 . S
C170 O185 1.202 . S
C171 C169 1.363 . S
C171 C173 1.408 . S
C171 C176 1.342 . S
C172 C173 1.310 . S
C172 C175 1.461 . S
C172 H192 0.932 . S
C173 C171 1.408 . S
C173 C172 1.310 . S
C173 H193 0.930 . S
C174 C175 1.474 . S
C174 C176 1.285 . S
C174 H194 0.929 . S
C175 C172 1.461 . S
C175 C174 1.474 . S
C176 C171 1.342 . S
C176 C174 1.285 . S
C176 H195 0.930 . S
C177 C180 1.424 . S
C177 C182 1.245 . S
C177 C183 1.428 . S
C178 C181 1.260 . S
C178 C182 1.477 . S
C178 H196 0.932 . S
C179 C180 1.384 . S
C179 C181 1.479 . S
C179 H197 0.929 . S
C180 C177 1.424 . S
C180 C179 1.384 . S
C180 H198 0.928 . S
C181 C178 1.260 . S
C181 C179 1.479 . S
C182 C177 1.245 . S
C182 C178 1.477 . S
C182 H199 0.932 . S
C183 U166 2.882 . S
C183 C177 1.428 . S
C183 O186 1.301 . S
C183 O187 1.282 . S
O184 U166 2.441 . S
O184 C170 1.249 . S
O185 U166 2.420 . S
O185 C170 1.202 . S
O186 U166 2.455 . S
O186 C183 1.301 . S
O187 U166 2.449 . S
O187 C183 1.282 . S
H188 C161 0.931 . S
H189 C163 0.929 . S
H190 C164 0.930 . S
H191 C165 0.931 . S
H192 C172 0.932 . S
H193 C173 0.930 . S
H194 C174 0.929 . S
H195 C176 0.930 . S
H196 C178 0.932 . S
H197 C179 0.929 . S
H198 C180 0.928 . S
H199 C182 0.932 . S
C200 C201 1.264 . S
C200 C205 1.479 . S
C200 C210 1.465 . S
C201 C200 1.264 . S
C201 C203 1.339 . S
C201 H228 0.931 . S
C202 C203 1.397 . S
C202 C204 1.321 . S
C203 C201 1.339 . S
C203 C202 1.397 . S
C203 H229 0.929 . S
C204 C202 1.321 . S
C204 C205 1.405 . S
C204 H230 0.915 1_554 S
C205 C200 1.479 . S
C205 C204 1.405 . S
C205 H231 0.931 . S
U206 O207 2.454 . S
U206 O208 2.458 . S
U206 C209 2.984 . S
U206 C210 2.847 . S
U206 C223 2.882 . S
U206 O224 2.441 . S
U206 O225 2.420 . S
U206 O226 2.455 . S
U206 O227 2.449 . S
O207 U206 2.454 . S
O207 C209 1.353 . S
O208 U206 2.458 . S
O208 C209 1.286 . S
C209 U206 2.984 . S
C209 O207 1.353 . S
C209 O208 1.286 . S
C209 C211 1.363 . S
C210 C200 1.465 . S
C210 U206 2.847 . S
C210 O224 1.249 . S
C210 O225 1.202 . S
C211 C209 1.363 . S
C211 C213 1.408 . S
C211 C216 1.342 . S
C212 C213 1.310 . S
C212 C215 1.461 . S
C212 H232 0.932 . S
C213 C211 1.408 . S
C213 C212 1.310 . S
C213 H233 0.930 . S
C214 C215 1.474 . S
C214 C216 1.285 . S
C214 H234 0.929 . S
C215 C212 1.461 . S
C215 C214 1.474 . S
C216 C211 1.342 . S
C216 C214 1.285 . S
C216 H235 0.930 . S
C217 C220 1.424 . S
C217 C222 1.245 . S
C217 C223 1.428 . S
C218 C221 1.260 . S
C218 C222 1.477 . S
C218 H236 0.932 . S
C219 C220 1.384 . S
C219 C221 1.479 . S
C219 H237 0.929 . S
C220 C217 1.424 . S
C220 C219 1.384 . S
C220 H238 0.928 . S
C221 C218 1.260 . S
C221 C219 1.479 . S
C222 C217 1.245 . S
C222 C218 1.477 . S
C222 H239 0.932 . S
C223 U206 2.882 . S
C223 C217 1.428 . S
C223 O226 1.301 . S
C223 O227 1.282 . S
O224 U206 2.441 . S
O224 C210 1.249 . S
O225 U206 2.420 . S
O225 C210 1.202 . S
O226 U206 2.455 . S
O226 C223 1.301 . S
O227 U206 2.449 . S
O227 C223 1.282 . S
H228 C201 0.931 . S
H229 C203 0.929 . S
H230 C204 0.915 1_556 S
H231 C205 0.931 . S
H232 C212 0.932 . S
H233 C213 0.930 . S
H234 C214 0.929 . S
H235 C216 0.930 . S
H236 C218 0.932 . S
H237 C219 0.929 . S
H238 C220 0.928 . S
H239 C222 0.932 . S
C240 C241 1.264 . S
C240 C245 1.479 . S
C240 C250 1.465 . S
C241 C240 1.264 . S
C241 C243 1.339 . S
C241 H268 0.931 . S
C242 C243 1.395 . S
C242 C244 1.320 . S
C243 C241 1.339 . S
C243 C242 1.395 . S
C243 H269 0.929 . S
C244 C242 1.320 . S
C244 C245 1.405 . S
C244 H270 0.930 . S
C245 C240 1.479 . S
C245 C244 1.405 . S
C245 H271 0.931 . S
U246 O247 2.454 . S
U246 O248 2.458 . S
U246 C249 2.984 . S
U246 C250 2.847 . S
U246 C263 2.882 . S
U246 O264 2.441 . S
U246 O265 2.420 . S
U246 O266 2.455 . S
U246 O267 2.449 . S
O247 U246 2.454 . S
O247 C249 1.353 . S
O248 U246 2.458 . S
O248 C249 1.286 . S
C249 U246 2.984 . S
C249 O247 1.353 . S
C249 O248 1.286 . S
C249 C251 1.363 . S
C250 C240 1.465 . S
C250 U246 2.847 . S
C250 O264 1.249 . S
C250 O265 1.202 . S
C251 C249 1.363 . S
C251 C253 1.408 . S
C251 C256 1.342 . S
C252 C253 1.310 . S
C252 C255 1.461 . S
C252 H272 0.932 . S
C253 C251 1.408 . S
C253 C252 1.310 . S
C253 H273 0.930 . S
C254 C255 1.474 . S
C254 C256 1.285 . S
C254 H274 0.929 . S
C255 C252 1.461 . S
C255 C254 1.474 . S
C256 C251 1.342 . S
C256 C254 1.285 . S
C256 H275 0.930 . S
C257 C260 1.424 . S
C257 C262 1.245 . S
C257 C263 1.428 . S
C258 C261 1.260 . S
C258 C262 1.477 . S
C258 H276 0.932 . S
C259 C260 1.384 . S
C259 C261 1.479 . S
C259 H277 0.929 . S
C260 C257 1.424 . S
C260 C259 1.384 . S
C260 H278 0.928 . S
C261 C258 1.260 . S
C261 C259 1.479 . S
C262 C257 1.245 . S
C262 C258 1.477 . S
C262 H279 0.932 . S
C263 U246 2.882 . S
C263 C257 1.428 . S
C263 O266 1.301 . S
C263 O267 1.282 . S
O264 U246 2.441 . S
O264 C250 1.249 . S
O265 U246 2.420 . S
O265 C250 1.202 . S
O266 U246 2.455 . S
O266 C263 1.301 . S
O267 U246 2.449 . S
O267 C263 1.282 . S
H268 C241 0.931 . S
H269 C243 0.929 . S
H270 C244 0.930 . S
H271 C245 0.931 . S
H272 C252 0.932 . S
H273 C253 0.930 . S
H274 C254 0.929 . S
H275 C256 0.930 . S
H276 C258 0.932 . S
H277 C259 0.929 . S
H278 C260 0.928 . S
H279 C262 0.932 . S
C280 C281 1.264 . S
C280 C285 1.479 . S
C280 C290 1.465 . S
C281 C280 1.264 . S
C281 C283 1.339 . S
C281 H308 0.931 . S
C282 C283 1.395 . S
C282 C284 1.320 . S
C283 C281 1.339 . S
C283 C282 1.395 . S
C283 H309 0.929 . S
C284 C282 1.320 . S
C284 C285 1.405 . S
C284 H310 0.930 . S
C285 C280 1.479 . S
C285 C284 1.405 . S
C285 H311 0.931 . S
U286 O287 2.454 . S
U286 O288 2.458 . S
U286 C289 2.984 . S
U286 C290 2.847 . S
U286 C303 2.882 . S
U286 O304 2.441 . S
U286 O305 2.420 . S
U286 O306 2.455 . S
U286 O307 2.449 . S
O287 U286 2.454 . S
O287 C289 1.353 . S
O288 U286 2.458 . S
O288 C289 1.286 . S
C289 U286 2.984 . S
C289 O287 1.353 . S
C289 O288 1.286 . S
C289 C291 1.363 . S
C290 C280 1.465 . S
C290 U286 2.847 . S
C290 O304 1.249 . S
C290 O305 1.202 . S
C291 C289 1.363 . S
C291 C293 1.408 . S
C291 C296 1.342 . S
C292 C293 1.310 . S
C292 C295 1.461 . S
C292 H312 0.932 . S
C293 C291 1.408 . S
C293 C292 1.310 . S
C293 H313 0.930 . S
C294 C295 1.474 . S
C294 C296 1.285 . S
C294 H314 0.929 . S
C295 C292 1.461 . S
C295 C294 1.474 . S
C296 C291 1.342 . S
C296 C294 1.285 . S
C296 H315 0.930 . S
C297 C300 1.424 . S
C297 C302 1.245 . S
C297 C303 1.428 . S
C298 C301 1.260 . S
C298 C302 1.477 . S
C298 H316 0.932 . S
C299 C300 1.384 . S
C299 C301 1.479 . S
C299 H317 0.929 . S
C300 C297 1.424 . S
C300 C299 1.384 . S
C300 H318 0.928 . S
C301 C298 1.260 . S
C301 C299 1.479 . S
C302 C297 1.245 . S
C302 C298 1.477 . S
C302 H319 0.932 . S
C303 U286 2.882 . S
C303 C297 1.428 . S
C303 O306 1.301 . S
C303 O307 1.282 . S
O304 U286 2.441 . S
O304 C290 1.249 . S
O305 U286 2.420 . S
O305 C290 1.202 . S
O306 U286 2.455 . S
O306 C303 1.301 . S
O307 U286 2.449 . S
O307 C303 1.282 . S
H308 C281 0.931 . S
H309 C283 0.929 . S
H310 C284 0.930 . S
H311 C285 0.931 . S
H312 C292 0.932 . S
H313 C293 0.930 . S
H314 C294 0.929 . S
H315 C296 0.930 . S
H316 C298 0.932 . S
H317 C299 0.929 . S
H318 C300 0.928 . S
H319 C302 0.932 . S
Zn320 O326 1.920 1_455 S
Zn320 O332 1.898 . S
Zn320 O335 1.905 . S
Zn321 O329 1.905 1_655 S
Zn321 O330 1.898 . S
Zn321 O338 1.920 . S
Zn322 O325 2.057 1_455 S
Zn322 O328 2.139 . S
Zn322 O331 2.087 1_455 S
Zn322 O333 2.148 . S
Zn322 O334 2.147 . S
Zn322 O337 2.051 1_455 S
C323 O328 1.166 . S
C323 O329 1.182 . S
C324 O330 1.167 . S
C324 O331 1.299 . S
O325 Zn322 2.057 1_655 S
O325 C339 1.305 . S
O326 Zn320 1.920 1_655 S
O326 C339 1.234 . S
C327 O332 1.167 . S
C327 O333 1.299 . S
O328 Zn322 2.139 . S
O328 C323 1.166 . S
O329 Zn321 1.905 1_455 S
O329 C323 1.182 . S
O330 Zn321 1.898 . S
O330 C324 1.167 . S
O331 Zn322 2.087 1_655 S
O331 C324 1.299 . S
O332 Zn320 1.898 . S
O332 C327 1.167 . S
O333 Zn322 2.148 . S
O333 C327 1.299 . S
O334 Zn322 2.147 . S
O334 C336 1.166 . S
O335 Zn320 1.905 . S
O335 C336 1.182 . S
C336 O334 1.166 . S
C336 O335 1.182 . S
O337 Zn322 2.051 1_655 S
O337 C340 1.305 . S
O338 Zn321 1.920 . S
O338 C340 1.234 . S
C339 O325 1.305 . S
C339 O326 1.234 . S
C340 O337 1.305 . S
C340 O338 1.234 . S
Zn341 O347 1.920 . S
Zn341 O353 1.898 . S
Zn341 O356 1.905 . S
Zn342 O350 1.905 . S
Zn342 O351 1.898 . S
Zn342 O359 1.920 . S
Zn343 O346 2.080 . S
Zn343 O349 2.114 . S
Zn343 O352 2.120 . S
Zn343 O354 2.120 . S
Zn343 O355 2.114 . S
Zn343 O358 2.080 . S
C344 O349 1.166 . S
C344 O350 1.182 . S
C345 O351 1.167 . S
C345 O352 1.299 . S
O346 Zn343 2.080 . S
O346 C360 1.305 . S
O347 Zn341 1.920 . S
O347 C360 1.234 . S
C348 O353 1.167 . S
C348 O354 1.299 . S
O349 Zn343 2.114 . S
O349 C344 1.166 . S
O350 Zn342 1.905 . S
O350 C344 1.182 . S
O351 Zn342 1.898 . S
O351 C345 1.167 . S
O352 Zn343 2.120 . S
O352 C345 1.299 . S
O353 Zn341 1.898 . S
O353 C348 1.167 . S
O354 Zn343 2.120 . S
O354 C348 1.299 . S
O355 Zn343 2.114 . S
O355 C357 1.166 . S
O356 Zn341 1.905 . S
O356 C357 1.182 . S
C357 O355 1.166 . S
C357 O356 1.182 . S
O358 Zn343 2.080 . S
O358 C361 1.305 . S
O359 Zn342 1.920 . S
O359 C361 1.234 . S
C360 O346 1.305 . S
C360 O347 1.234 . S
C361 O358 1.305 . S
C361 O359 1.234 . S
Zn362 O368 1.920 . S
Zn362 O374 1.898 . S
Zn362 O377 1.905 . S
Zn363 O371 1.905 . S
Zn363 O372 1.898 . S
Zn363 O380 1.920 1_655 S
Zn364 O367 2.080 . S
Zn364 O370 2.114 1_455 S
Zn364 O373 2.120 1_455 S
Zn364 O375 2.120 . S
Zn364 O376 2.114 1_455 S
Zn364 O379 2.080 . S
C365 O370 1.166 . S
C365 O371 1.182 . S
C366 O372 1.167 . S
C366 O373 1.299 . S
O367 Zn364 2.080 . S
O367 C381 1.305 . S
O368 Zn362 1.920 . S
O368 C381 1.234 . S
C369 O374 1.167 . S
C369 O375 1.299 . S
O370 Zn364 2.114 1_655 S
O370 C365 1.166 . S
O371 Zn363 1.905 . S
O371 C365 1.182 . S
O372 Zn363 1.898 . S
O372 C366 1.167 . S
O373 Zn364 2.120 1_655 S
O373 C366 1.299 . S
O374 Zn362 1.898 . S
O374 C369 1.167 . S
O375 Zn364 2.120 . S
O375 C369 1.299 . S
O376 Zn364 2.114 1_655 S
O376 C378 1.166 . S
O377 Zn362 1.905 . S
O377 C378 1.182 1_455 S
C378 O376 1.166 . S
C378 O377 1.182 1_655 S
O379 Zn364 2.080 . S
O379 C382 1.305 . S
O380 Zn363 1.920 1_455 S
O380 C382 1.234 . S
C381 O367 1.305 . S
C381 O368 1.234 . S
C382 O379 1.305 . S
C382 O380 1.234 . S
Zn383 O389 1.920 . S
Zn383 O395 1.898 . S
Zn383 O398 1.905 . S
Zn384 O392 1.905 . S
Zn384 O393 1.898 . S
Zn384 O401 1.920 . S
Zn385 O388 2.080 . S
Zn385 O391 2.114 . S
Zn385 O394 2.120 . S
Zn385 O396 2.120 . S
Zn385 O397 2.114 . S
Zn385 O400 2.080 . S
C386 O391 1.166 . S
C386 O392 1.182 . S
C387 O393 1.167 . S
C387 O394 1.299 . S
O388 Zn385 2.080 . S
O388 C402 1.305 . S
O389 Zn383 1.920 . S
O389 C402 1.234 . S
C390 O395 1.167 . S
C390 O396 1.299 . S
O391 Zn385 2.114 . S
O391 C386 1.166 . S
O392 Zn384 1.905 . S
O392 C386 1.182 . S
O393 Zn384 1.898 . S
O393 C387 1.167 . S
O394 Zn385 2.120 . S
O394 C387 1.299 . S
O395 Zn383 1.898 . S
O395 C390 1.167 . S
O396 Zn385 2.120 . S
O396 C390 1.299 . S
O397 Zn385 2.114 . S
O397 C399 1.166 . S
O398 Zn383 1.905 . S
O398 C399 1.182 . S
C399 O397 1.166 . S
C399 O398 1.182 . S
O400 Zn385 2.080 . S
O400 C403 1.305 . S
O401 Zn384 1.920 . S
O401 C403 1.234 . S
C402 O388 1.305 . S
C402 O389 1.234 . S
C403 O400 1.305 . S
C403 O401 1.234 . S
H404 C422 0.951 . S
H405 C424 0.951 . S
H406 C426 0.950 . S
H407 C427 0.950 . S
H408 C429 0.950 . S
H409 C432 0.950 . S
H410 C433 0.950 . S
H411 C435 0.950 . S
H412 C436 0.950 . S
H413 C437 0.951 . S
H414 C439 0.951 . S
H415 C441 0.950 . S
H416 C442 0.950 . S
H417 C444 0.950 . S
H418 C447 0.950 . S
H419 C448 0.950 . S
H420 C450 0.950 . S
H421 C451 0.950 . S
C422 H404 0.951 . S
C422 C423 1.366 . S
C422 C424 1.388 . S
C423 C422 1.366 . S
C423 C427 1.385 . S
C424 H405 0.951 . S
C424 C422 1.388 . S
C424 C425 1.366 . S
C425 C424 1.366 . S
C425 C426 1.414 . S
C425 C428 1.499 1_565 S
C426 H406 0.950 . S
C426 C425 1.414 . S
C426 C427 1.374 . S
C427 H407 0.950 . S
C427 C423 1.385 . S
C427 C426 1.374 . S
C428 C425 1.499 1_545 S
C428 C429 1.373 . S
C428 C430 1.389 . S
C429 H408 0.950 . S
C429 C428 1.373 . S
C429 C445 1.377 . S
C430 C428 1.389 . S
C430 C431 1.524 1_545 S
C430 C444 1.377 . S
C431 C430 1.524 1_565 S
C431 C432 1.397 . S
C431 C436 1.363 . S
C432 H409 0.950 . S
C432 C431 1.397 . S
C432 C433 1.334 . S
C433 H410 0.950 . S
C433 C432 1.334 . S
C433 C434 1.287 . S
C434 C433 1.287 . S
C434 C435 1.524 . S
C434 H453 0.913 . S
C435 H411 0.950 . S
C435 C434 1.524 . S
C435 C436 1.415 . S
C436 H412 0.950 . S
C436 C431 1.363 . S
C436 C435 1.415 . S
C437 H413 0.951 . S
C437 C438 1.366 . S
C437 C439 1.388 . S
C438 C437 1.366 . S
C438 C442 1.385 . S
C439 H414 0.951 . S
C439 C437 1.388 . S
C439 C440 1.366 . S
C440 C439 1.366 . S
C440 C441 1.414 . S
C440 C443 1.499 . S
C441 H415 0.950 . S
C441 C440 1.414 . S
C441 C442 1.374 . S
C442 H416 0.950 . S
C442 C438 1.385 . S
C442 C441 1.374 . S
C443 C440 1.499 . S
C443 C444 1.373 . S
C443 C445 1.389 . S
C444 H417 0.950 . S
C444 C430 1.377 . S
C444 C443 1.373 . S
C445 C429 1.377 . S
C445 C443 1.389 . S
C445 C446 1.524 . S
C446 C445 1.524 . S
C446 C447 1.397 . S
C446 C451 1.363 . S
C447 H418 0.950 . S
C447 C446 1.397 . S
C447 C448 1.334 . S
C448 H419 0.950 . S
C448 C447 1.334 . S
C448 C449 1.287 . S
C449 C448 1.287 . S
C449 C450 1.524 . S
C449 H452 0.999 . S
C450 H420 0.950 . S
C450 C449 1.524 . S
C450 C451 1.415 . S
C451 H421 0.950 . S
C451 C446 1.363 . S
C451 C450 1.415 . S
H452 C449 0.999 . S
H453 C434 0.913 . S
H454 C472 0.951 . S
H455 C474 0.951 . S
H456 C476 0.950 . S
H457 C477 0.950 . S
H458 C479 0.950 . S
H459 C482 0.950 . S
H460 C483 0.950 . S
H461 C485 0.950 . S
H462 C486 0.950 . S
H463 C487 0.951 . S
H464 C489 0.951 . S
H465 C491 0.950 . S
H466 C492 0.950 . S
H467 C494 0.950 . S
H468 C497 0.950 . S
H469 C498 0.950 . S
H470 C500 0.950 . S
H471 C501 0.950 . S
C472 H454 0.951 . S
C472 C473 1.366 . S
C472 C474 1.388 . S
C473 C472 1.366 . S
C473 C477 1.385 . S
C474 H455 0.951 . S
C474 C472 1.388 . S
C474 C475 1.366 . S
C475 C474 1.366 . S
C475 C476 1.414 . S
C475 C478 1.499 . S
C476 H456 0.950 . S
C476 C475 1.414 . S
C476 C477 1.374 . S
C477 H457 0.950 . S
C477 C473 1.385 . S
C477 C476 1.374 . S
C478 C475 1.499 . S
C478 C479 1.373 . S
C478 C480 1.389 . S
C479 H458 0.950 . S
C479 C478 1.373 . S
C479 C495 1.377 . S
C480 C478 1.389 . S
C480 C481 1.524 . S
C480 C494 1.377 . S
C481 C480 1.524 . S
C481 C482 1.397 . S
C481 C486 1.363 . S
C482 H459 0.950 . S
C482 C481 1.397 . S
C482 C483 1.334 . S
C483 H460 0.950 . S
C483 C482 1.334 . S
C483 C484 1.287 . S
C484 C483 1.287 . S
C484 C485 1.524 . S
C484 H503 0.913 . S
C485 H461 0.950 . S
C485 C484 1.524 . S
C485 C486 1.415 . S
C486 H462 0.950 . S
C486 C481 1.363 . S
C486 C485 1.415 . S
C487 H463 0.951 . S
C487 C488 1.366 . S
C487 C489 1.388 . S
C488 C487 1.366 . S
C488 C492 1.385 . S
C489 H464 0.951 . S
C489 C487 1.388 . S
C489 C490 1.366 . S
C490 C489 1.366 . S
C490 C491 1.414 . S
C490 C493 1.499 . S
C491 H465 0.950 . S
C491 C490 1.414 . S
C491 C492 1.374 . S
C492 H466 0.950 . S
C492 C488 1.385 . S
C492 C491 1.374 . S
C493 C490 1.499 . S
C493 C494 1.373 . S
C493 C495 1.389 . S
C494 H467 0.950 . S
C494 C480 1.377 . S
C494 C493 1.373 . S
C495 C479 1.377 . S
C495 C493 1.389 . S
C495 C496 1.524 . S
C496 C495 1.524 . S
C496 C497 1.397 . S
C496 C501 1.363 . S
C497 H468 0.950 . S
C497 C496 1.397 . S
C497 C498 1.334 . S
C498 H469 0.950 . S
C498 C497 1.334 . S
C498 C499 1.287 . S
C499 C498 1.287 . S
C499 C500 1.524 . S
C499 H502 0.999 . S
C500 H470 0.950 . S
C500 C499 1.524 . S
C500 C501 1.415 . S
C501 H471 0.950 . S
C501 C496 1.363 . S
C501 C500 1.415 . S
H502 C499 0.999 . S
H503 C484 0.913 . S
H504 C522 0.951 . S
H505 C524 0.951 . S
H506 C526 0.950 . S
H507 C527 0.950 . S
H508 C529 0.950 . S
H509 C532 0.950 . S
H510 C533 0.950 . S
H511 C535 0.950 . S
H512 C536 0.950 . S
H513 C537 0.951 . S
H514 C539 0.951 . S
H515 C541 0.950 . S
H516 C542 0.950 . S
H517 C544 0.950 . S
H518 C547 0.950 . S
H519 C548 0.950 . S
H520 C550 0.950 . S
H521 C551 0.950 . S
C522 H504 0.951 . S
C522 C523 1.366 . S
C522 C524 1.388 . S
C523 C522 1.366 . S
C523 C527 1.385 . S
C524 H505 0.951 . S
C524 C522 1.388 . S
C524 C525 1.366 . S
C525 C524 1.366 . S
C525 C526 1.414 . S
C525 C528 1.499 . S
C526 H506 0.950 . S
C526 C525 1.414 . S
C526 C527 1.374 . S
C527 H507 0.950 . S
C527 C523 1.385 . S
C527 C526 1.374 . S
C528 C525 1.499 . S
C528 C529 1.373 . S
C528 C530 1.389 . S
C529 H508 0.950 . S
C529 C528 1.373 . S
C529 C545 1.377 . S
C530 C528 1.389 . S
C530 C531 1.524 . S
C530 C544 1.377 . S
C531 C530 1.524 . S
C531 C532 1.397 . S
C531 C536 1.363 . S
C532 H509 0.950 . S
C532 C531 1.397 . S
C532 C533 1.334 . S
C533 H510 0.950 . S
C533 C532 1.334 . S
C533 C534 1.287 . S
C534 C533 1.287 . S
C534 C535 1.524 . S
C534 H553 0.913 . S
C535 H511 0.950 . S
C535 C534 1.524 . S
C535 C536 1.415 . S
C536 H512 0.950 . S
C536 C531 1.363 . S
C536 C535 1.415 . S
C537 H513 0.951 . S
C537 C538 1.366 . S
C537 C539 1.388 . S
C538 C537 1.366 . S
C538 C542 1.385 . S
C539 H514 0.951 . S
C539 C537 1.388 . S
C539 C540 1.366 . S
C540 C539 1.366 . S
C540 C541 1.414 . S
C540 C543 1.499 . S
C541 H515 0.950 . S
C541 C540 1.414 . S
C541 C542 1.374 . S
C542 H516 0.950 . S
C542 C538 1.385 . S
C542 C541 1.374 . S
C543 C540 1.499 . S
C543 C544 1.373 . S
C543 C545 1.389 . S
C544 H517 0.950 . S
C544 C530 1.377 . S
C544 C543 1.373 . S
C545 C529 1.377 . S
C545 C543 1.389 . S
C545 C546 1.524 . S
C546 C545 1.524 . S
C546 C547 1.397 . S
C546 C551 1.363 . S
C547 H518 0.950 . S
C547 C546 1.397 . S
C547 C548 1.334 . S
C548 H519 0.950 . S
C548 C547 1.334 . S
C548 C549 1.287 . S
C549 C548 1.287 . S
C549 C550 1.524 . S
C549 H552 0.999 . S
C550 H520 0.950 . S
C550 C549 1.524 . S
C550 C551 1.415 . S
C551 H521 0.950 . S
C551 C546 1.363 . S
C551 C550 1.415 . S
H552 C549 0.999 . S
H553 C534 0.913 . S
H554 C572 0.951 . S
H555 C574 0.951 . S
H556 C576 0.950 . S
H557 C577 0.950 . S
H558 C579 0.950 1_565 S
H559 C582 0.950 . S
H560 C583 0.950 . S
H561 C585 0.950 . S
H562 C586 0.950 . S
H563 C587 0.951 . S
H564 C589 0.951 . S
H565 C591 0.950 . S
H566 C592 0.950 . S
H567 C594 0.950 . S
H568 C597 0.950 . S
H569 C598 0.950 . S
H570 C600 0.950 . S
H571 C601 0.950 . S
C572 H554 0.951 . S
C572 C573 1.366 . S
C572 C574 1.388 . S
C573 C572 1.366 . S
C573 C577 1.385 . S
C574 H555 0.951 . S
C574 C572 1.388 . S
C574 C575 1.366 . S
C575 C574 1.366 . S
C575 C576 1.414 . S
C575 C578 1.499 . S
C576 H556 0.950 . S
C576 C575 1.414 . S
C576 C577 1.374 . S
C577 H557 0.950 . S
C577 C573 1.385 . S
C577 C576 1.374 . S
C578 C575 1.499 . S
C578 C579 1.373 1_565 S
C578 C580 1.389 1_565 S
C579 H558 0.950 1_545 S
C579 C578 1.373 1_545 S
C579 C595 1.377 . S
C580 C578 1.389 1_545 S
C580 C581 1.524 . S
C580 C594 1.377 . S
C581 C580 1.524 . S
C581 C582 1.397 1_545 S
C581 C586 1.363 . S
C582 H559 0.950 . S
C582 C581 1.397 1_565 S
C582 C583 1.334 . S
C583 H560 0.950 . S
C583 C582 1.334 . S
C583 C584 1.287 . S
C584 C583 1.287 . S
C584 C585 1.524 1_565 S
C584 H603 0.913 . S
C585 H561 0.950 . S
C585 C584 1.524 1_545 S
C585 C586 1.415 . S
C586 H562 0.950 . S
C586 C581 1.363 . S
C586 C585 1.415 . S
C587 H563 0.951 . S
C587 C588 1.366 . S
C587 C589 1.388 . S
C588 C587 1.366 . S
C588 C592 1.385 . S
C589 H564 0.951 . S
C589 C587 1.388 . S
C589 C590 1.366 . S
C590 C589 1.366 . S
C590 C591 1.414 . S
C590 C593 1.499 . S
C591 H565 0.950 . S
C591 C590 1.414 . S
C591 C592 1.374 . S
C592 H566 0.950 . S
C592 C588 1.385 . S
C592 C591 1.374 . S
C593 C590 1.499 . S
C593 C594 1.373 . S
C593 C595 1.389 . S
C594 H567 0.950 . S
C594 C580 1.377 . S
C594 C593 1.373 . S
C595 C579 1.377 . S
C595 C593 1.389 . S
C595 C596 1.524 . S
C596 C595 1.524 . S
C596 C597 1.397 . S
C596 C601 1.363 . S
C597 H568 0.950 . S
C597 C596 1.397 . S
C597 C598 1.334 . S
C598 H569 0.950 . S
C598 C597 1.334 . S
C598 C599 1.287 . S
C599 C598 1.287 . S
C599 C600 1.524 . S
C599 H602 0.999 . S
C600 H570 0.950 . S
C600 C599 1.524 . S
C600 C601 1.415 . S
C601 H571 0.950 . S
C601 C596 1.363 . S
C601 C600 1.415 . S
H602 C599 0.999 . S
H603 C584 0.913 . S
H604 C622 0.951 . S
H605 C624 0.951 . S
H606 C626 0.950 . S
H607 C627 0.950 . S
H608 C629 0.950 1_545 S
H609 C632 0.981 . S
H610 C633 0.983 . S
H611 C635 0.950 . S
H612 C636 0.950 . S
H613 C637 0.951 . S
H614 C639 0.951 . S
H615 C641 0.950 . S
H616 C642 0.950 . S
H617 C644 0.950 . S
H618 C647 0.950 . S
H619 C648 0.950 . S
H620 C650 0.950 1_545 S
H621 C651 0.950 1_545 S
C622 H604 0.951 . S
C622 C623 1.366 . S
C622 C624 1.388 . S
C623 C622 1.366 . S
C623 C627 1.385 . S
C624 H605 0.951 . S
C624 C622 1.388 . S
C624 C625 1.366 . S
C625 C624 1.366 . S
C625 C626 1.414 . S
C625 C628 1.499 1_545 S
C626 H606 0.950 . S
C626 C625 1.414 . S
C626 C627 1.374 . S
C627 H607 0.950 . S
C627 C623 1.385 . S
C627 C626 1.374 . S
C628 C625 1.499 1_565 S
C628 C629 1.373 . S
C628 C630 1.389 . S
C629 H608 0.950 1_565 S
C629 C628 1.373 . S
C629 C645 1.377 . S
C630 C628 1.389 . S
C630 C631 1.524 . S
C630 C644 1.377 . S
C631 C630 1.524 . S
C631 C632 1.397 . S
C631 C636 1.363 . S
C632 H609 0.981 . S
C632 C631 1.397 . S
C632 C633 1.334 . S
C633 H610 0.983 . S
C633 C632 1.334 . S
C633 C634 1.287 . S
C634 C633 1.287 . S
C634 C635 1.524 . S
C634 H653 0.913 . S
C635 H611 0.950 . S
C635 C634 1.524 . S
C635 C636 1.415 . S
C636 H612 0.950 . S
C636 C631 1.363 . S
C636 C635 1.415 . S
C637 H613 0.951 . S
C637 C638 1.366 . S
C637 C639 1.388 . S
C638 C637 1.366 . S
C638 C642 1.385 . S
C639 H614 0.951 . S
C639 C637 1.388 . S
C639 C640 1.366 . S
C640 C639 1.366 . S
C640 C641 1.414 . S
C640 C643 1.499 . S
C641 H615 0.950 . S
C641 C640 1.414 . S
C641 C642 1.374 . S
C642 H616 0.950 . S
C642 C638 1.385 . S
C642 C641 1.374 . S
C643 C640 1.499 . S
C643 C644 1.373 . S
C643 C645 1.389 . S
C644 H617 0.950 . S
C644 C630 1.377 . S
C644 C643 1.373 . S
C645 C629 1.377 . S
C645 C643 1.389 . S
C645 C646 1.524 . S
C646 C645 1.524 . S
C646 C647 1.397 . S
C646 C651 1.363 . S
C647 H618 0.950 . S
C647 C646 1.397 . S
C647 C648 1.334 1_655 S
C648 H619 0.950 . S
C648 C647 1.334 1_455 S
C648 C649 1.287 . S
C649 C648 1.287 . S
C649 C650 1.524 . S
C649 H652 0.999 . S
C650 H620 0.950 1_565 S
C650 C649 1.524 . S
C650 C651 1.415 1_455 S
C651 H621 0.950 1_565 S
C651 C646 1.363 . S
C651 C650 1.415 1_655 S
H652 C649 0.999 . S
H653 C634 0.913 . S
H654 C672 0.951 . S
H655 C674 0.951 . S
H656 C676 0.950 . S
H657 C677 0.950 . S
H658 C679 0.950 . S
H659 C682 0.950 . S
H660 C683 0.950 . S
H661 C685 0.950 . S
H662 C686 0.950 . S
H663 C687 0.951 . S
H664 C689 0.951 . S
H665 C691 0.950 . S
H666 C692 0.950 . S
H667 C694 0.950 . S
H668 C697 0.950 . S
H669 C698 0.950 . S
H670 C700 0.950 . S
H671 C701 0.950 . S
C672 H654 0.951 . S
C672 C673 1.366 . S
C672 C674 1.388 . S
C673 C672 1.366 . S
C673 C677 1.385 . S
C674 H655 0.951 . S
C674 C672 1.388 . S
C674 C675 1.366 . S
C675 C674 1.366 . S
C675 C676 1.414 . S
C675 C678 1.499 . S
C676 H656 0.950 . S
C676 C675 1.414 . S
C676 C677 1.374 . S
C677 H657 0.950 . S
C677 C673 1.385 . S
C677 C676 1.374 . S
C678 C675 1.499 . S
C678 C679 1.373 . S
C678 C680 1.389 . S
C679 H658 0.950 . S
C679 C678 1.373 . S
C679 C695 1.377 . S
C680 C678 1.389 . S
C680 C681 1.524 . S
C680 C694 1.377 . S
C681 C680 1.524 . S
C681 C682 1.397 . S
C681 C686 1.363 . S
C682 H659 0.950 . S
C682 C681 1.397 . S
C682 C683 1.334 . S
C683 H660 0.950 . S
C683 C682 1.334 . S
C683 C684 1.287 . S
C684 C683 1.287 . S
C684 C685 1.524 . S
C684 H703 0.913 . S
C685 H661 0.950 . S
C685 C684 1.524 . S
C685 C686 1.415 . S
C686 H662 0.950 . S
C686 C681 1.363 . S
C686 C685 1.415 . S
C687 H663 0.951 . S
C687 C688 1.366 . S
C687 C689 1.388 . S
C688 C687 1.366 . S
C688 C692 1.385 . S
C689 H664 0.951 . S
C689 C687 1.388 . S
C689 C690 1.366 . S
C690 C689 1.366 . S
C690 C691 1.414 . S
C690 C693 1.499 . S
C691 H665 0.950 . S
C691 C690 1.414 . S
C691 C692 1.374 . S
C692 H666 0.950 . S
C692 C688 1.385 . S
C692 C691 1.374 . S
C693 C690 1.499 . S
C693 C694 1.373 . S
C693 C695 1.389 . S
C694 H667 0.950 . S
C694 C680 1.377 . S
C694 C693 1.373 . S
C695 C679 1.377 . S
C695 C693 1.389 . S
C695 C696 1.524 . S
C696 C695 1.524 . S
C696 C697 1.397 . S
C696 C701 1.363 . S
C697 H668 0.950 . S
C697 C696 1.397 . S
C697 C698 1.334 . S
C698 H669 0.950 . S
C698 C697 1.334 . S
C698 C699 1.287 . S
C699 C698 1.287 . S
C699 C700 1.524 . S
C699 H702 0.999 . S
C700 H670 0.950 . S
C700 C699 1.524 . S
C700 C701 1.415 . S
C701 H671 0.950 . S
C701 C696 1.363 . S
C701 C700 1.415 . S
H702 C699 0.999 . S
H703 C684 0.913 . S
H704 C722 0.951 . S
H705 C724 0.951 . S
H706 C726 0.950 . S
H707 C727 0.950 . S
H708 C729 0.950 . S
H709 C732 0.950 . S
H710 C733 0.950 . S
H711 C735 0.950 . S
H712 C736 0.950 . S
H713 C737 0.951 . S
H714 C739 0.951 . S
H715 C741 0.950 . S
H716 C742 0.950 . S
H717 C744 0.950 . S
H718 C747 0.950 . S
H719 C748 0.950 . S
H720 C750 0.950 . S
H721 C751 0.950 . S
C722 H704 0.951 . S
C722 C723 1.366 . S
C722 C724 1.388 . S
C723 C722 1.366 . S
C723 C727 1.385 . S
C724 H705 0.951 . S
C724 C722 1.388 . S
C724 C725 1.366 . S
C725 C724 1.366 . S
C725 C726 1.414 . S
C725 C728 1.499 . S
C726 H706 0.950 . S
C726 C725 1.414 . S
C726 C727 1.374 . S
C727 H707 0.950 . S
C727 C723 1.385 . S
C727 C726 1.374 . S
C728 C725 1.499 . S
C728 C729 1.373 . S
C728 C730 1.389 . S
C729 H708 0.950 . S
C729 C728 1.373 . S
C729 C745 1.377 . S
C730 C728 1.389 . S
C730 C731 1.524 . S
C730 C744 1.377 . S
C731 C730 1.524 . S
C731 C732 1.397 . S
C731 C736 1.363 . S
C732 H709 0.950 . S
C732 C731 1.397 . S
C732 C733 1.334 . S
C733 H710 0.950 . S
C733 C732 1.334 . S
C733 C734 1.287 . S
C734 C733 1.287 . S
C734 C735 1.524 . S
C734 H753 0.913 . S
C735 H711 0.950 . S
C735 C734 1.524 . S
C735 C736 1.415 . S
C736 H712 0.950 . S
C736 C731 1.363 . S
C736 C735 1.415 . S
C737 H713 0.951 . S
C737 C738 1.366 . S
C737 C739 1.388 . S
C738 C737 1.366 . S
C738 C742 1.385 . S
C739 H714 0.951 . S
C739 C737 1.388 . S
C739 C740 1.366 . S
C740 C739 1.366 . S
C740 C741 1.414 . S
C740 C743 1.499 . S
C741 H715 0.950 . S
C741 C740 1.414 . S
C741 C742 1.374 . S
C742 H716 0.950 . S
C742 C738 1.385 . S
C742 C741 1.374 . S
C743 C740 1.499 . S
C743 C744 1.373 . S
C743 C745 1.389 . S
C744 H717 0.950 . S
C744 C730 1.377 . S
C744 C743 1.373 . S
C745 C729 1.377 . S
C745 C743 1.389 . S
C745 C746 1.524 . S
C746 C745 1.524 . S
C746 C747 1.397 . S
C746 C751 1.363 . S
C747 H718 0.950 . S
C747 C746 1.397 . S
C747 C748 1.334 . S
C748 H719 0.950 . S
C748 C747 1.334 . S
C748 C749 1.287 . S
C749 C748 1.287 . S
C749 C750 1.524 . S
C749 H752 0.999 . S
C750 H720 0.950 . S
C750 C749 1.524 . S
C750 C751 1.415 . S
C751 H721 0.950 . S
C751 C746 1.363 . S
C751 C750 1.415 . S
H752 C749 0.999 . S
H753 C734 0.913 . S
H754 C772 0.951 . S
H755 C774 0.951 . S
H756 C776 0.950 . S
H757 C777 0.950 . S
H758 C779 0.950 1_545 S
H759 C782 0.950 . S
H760 C783 0.950 . S
H761 C785 0.951 . S
H762 C786 0.950 . S
H763 C787 0.951 . S
H764 C789 0.951 . S
H765 C791 0.950 . S
H766 C792 0.950 . S
H767 C794 0.950 . S
H768 C797 0.950 . S
H769 C798 0.950 . S
H770 C800 0.950 . S
H771 C801 0.950 . S
C772 H754 0.951 . S
C772 C773 1.366 . S
C772 C774 1.388 . S
C773 C772 1.366 . S
C773 C777 1.385 . S
C774 H755 0.951 . S
C774 C772 1.388 . S
C774 C775 1.366 . S
C775 C774 1.366 . S
C775 C776 1.414 . S
C775 C778 1.499 . S
C776 H756 0.950 . S
C776 C775 1.414 . S
C776 C777 1.374 . S
C777 H757 0.950 . S
C777 C773 1.385 . S
C777 C776 1.374 . S
C778 C775 1.499 . S
C778 C779 1.373 1_545 S
C778 C780 1.389 1_545 S
C779 H758 0.950 1_565 S
C779 C778 1.373 1_565 S
C779 C795 1.377 . S
C780 C778 1.389 1_565 S
C780 C781 1.524 . S
C780 C794 1.377 . S
C781 C780 1.524 . S
C781 C782 1.397 . S
C781 C786 1.363 . S
C782 H759 0.950 . S
C782 C781 1.397 . S
C782 C783 1.334 1_565 S
C783 H760 0.950 . S
C783 C782 1.334 1_545 S
C783 C784 1.287 . S
C784 C783 1.287 . S
C784 C785 1.524 1_545 S
C784 H803 0.913 . S
C785 H761 0.951 . S
C785 C784 1.524 1_565 S
C785 C786 1.415 . S
C786 H762 0.950 . S
C786 C781 1.363 . S
C786 C785 1.415 . S
C787 H763 0.951 . S
C787 C788 1.366 . S
C787 C789 1.388 . S
C788 C787 1.366 . S
C788 C792 1.385 . S
C789 H764 0.951 . S
C789 C787 1.388 . S
C789 C790 1.366 . S
C790 C789 1.366 . S
C790 C791 1.414 . S
C790 C793 1.499 . S
C791 H765 0.950 . S
C791 C790 1.414 . S
C791 C792 1.374 . S
C792 H766 0.950 . S
C792 C788 1.385 . S
C792 C791 1.374 . S
C793 C790 1.499 . S
C793 C794 1.373 . S
C793 C795 1.389 . S
C794 H767 0.950 . S
C794 C780 1.377 . S
C794 C793 1.373 . S
C795 C779 1.377 . S
C795 C793 1.389 . S
C795 C796 1.524 . S
C796 C795 1.524 . S
C796 C797 1.397 . S
C796 C801 1.363 . S
C797 H768 0.950 . S
C797 C796 1.397 . S
C797 C798 1.334 . S
C798 H769 0.950 . S
C798 C797 1.334 . S
C798 C799 1.287 . S
C799 C798 1.287 . S
C799 C800 1.524 . S
C799 H802 0.999 . S
C800 H770 0.950 . S
C800 C799 1.524 . S
C800 C801 1.415 . S
C801 H771 0.950 . S
C801 C796 1.363 . S
C801 C800 1.415 . S
H802 C799 0.999 . S
H803 C784 0.913 . S
H804 C822 0.951 . S
H805 C824 0.951 . S
H806 C826 0.950 . S
H807 C827 0.950 . S
H808 C829 0.950 . S
H809 C832 0.950 . S
H810 C833 0.950 . S
H811 C835 0.950 . S
H812 C836 0.950 . S
H813 C837 0.951 . S
H814 C839 0.951 . S
H815 C841 0.950 . S
H816 C842 0.950 . S
H817 C844 0.950 . S
H818 C847 0.950 . S
H819 C848 0.950 . S
H820 C850 0.950 . S
H821 C851 0.950 . S
C822 H804 0.951 . S
C822 C823 1.366 . S
C822 C824 1.388 . S
C823 C822 1.366 . S
C823 C827 1.385 . S
C824 H805 0.951 . S
C824 C822 1.388 . S
C824 C825 1.366 . S
C825 C824 1.366 . S
C825 C826 1.414 . S
C825 C828 1.499 . S
C826 H806 0.950 . S
C826 C825 1.414 . S
C826 C827 1.374 . S
C827 H807 0.950 . S
C827 C823 1.385 . S
C827 C826 1.374 . S
C828 C825 1.499 . S
C828 C829 1.373 . S
C828 C830 1.389 . S
C829 H808 0.950 . S
C829 C828 1.373 . S
C829 C845 1.377 . S
C830 C828 1.389 . S
C830 C831 1.524 . S
C830 C844 1.377 . S
C831 C830 1.524 . S
C831 C832 1.397 . S
C831 C836 1.363 . S
C832 H809 0.950 . S
C832 C831 1.397 . S
C832 C833 1.334 . S
C833 H810 0.950 . S
C833 C832 1.334 . S
C833 C834 1.287 . S
C834 C833 1.287 . S
C834 C835 1.524 . S
C834 H853 0.913 . S
C835 H811 0.950 . S
C835 C834 1.524 . S
C835 C836 1.415 . S
C836 H812 0.950 . S
C836 C831 1.363 . S
C836 C835 1.415 . S
C837 H813 0.951 . S
C837 C838 1.366 . S
C837 C839 1.388 . S
C838 C837 1.366 . S
C838 C842 1.385 . S
C839 H814 0.951 . S
C839 C837 1.388 . S
C839 C840 1.366 . S
C840 C839 1.366 . S
C840 C841 1.414 . S
C840 C843 1.499 . S
C841 H815 0.950 . S
C841 C840 1.414 . S
C841 C842 1.374 . S
C842 H816 0.950 . S
C842 C838 1.385 . S
C842 C841 1.374 . S
C843 C840 1.499 . S
C843 C844 1.373 . S
C843 C845 1.389 . S
C844 H817 0.950 . S
C844 C830 1.377 . S
C844 C843 1.373 . S
C845 C829 1.377 . S
C845 C843 1.389 . S
C845 C846 1.524 . S
C846 C845 1.524 . S
C846 C847 1.397 . S
C846 C851 1.363 . S
C847 H818 0.950 . S
C847 C846 1.397 . S
C847 C848 1.334 . S
C848 H819 0.950 . S
C848 C847 1.334 . S
C848 C849 1.287 . S
C849 C848 1.287 . S
C849 C850 1.524 . S
C849 H852 0.999 . S
C850 H820 0.950 . S
C850 C849 1.524 . S
C850 C851 1.415 . S
C851 H821 0.950 . S
C851 C846 1.363 . S
C851 C850 1.415 . S
H852 C849 0.999 . S
H853 C834 0.913 . S
H854 C872 0.951 . S
H855 C874 0.951 . S
H856 C876 0.950 . S
H857 C877 0.950 . S
H858 C879 0.950 . S
H859 C882 0.950 . S
H860 C883 0.950 . S
H861 C885 0.950 . S
H862 C886 0.950 . S
H863 C887 0.951 . S
H864 C889 0.951 . S
H865 C891 0.950 . S
H866 C892 0.950 . S
H867 C894 0.950 . S
H868 C897 0.950 . S
H869 C898 0.950 . S
H870 C900 0.950 . S
H871 C901 0.950 . S
C872 H854 0.951 . S
C872 C873 1.366 . S
C872 C874 1.388 . S
C873 C872 1.366 . S
C873 C877 1.385 . S
C874 H855 0.951 . S
C874 C872 1.388 . S
C874 C875 1.366 . S
C875 C874 1.366 . S
C875 C876 1.414 . S
C875 C878 1.499 . S
C876 H856 0.950 . S
C876 C875 1.414 . S
C876 C877 1.374 . S
C877 H857 0.950 . S
C877 C873 1.385 . S
C877 C876 1.374 . S
C878 C875 1.499 . S
C878 C879 1.373 . S
C878 C880 1.389 . S
C879 H858 0.950 . S
C879 C878 1.373 . S
C879 C895 1.377 . S
C880 C878 1.389 . S
C880 C881 1.524 . S
C880 C894 1.377 . S
C881 C880 1.524 . S
C881 C882 1.397 . S
C881 C886 1.363 . S
C882 H859 0.950 . S
C882 C881 1.397 . S
C882 C883 1.334 . S
C883 H860 0.950 . S
C883 C882 1.334 . S
C883 C884 1.287 . S
C884 C883 1.287 . S
C884 C885 1.524 . S
C884 H903 0.913 . S
C885 H861 0.950 . S
C885 C884 1.524 . S
C885 C886 1.415 . S
C886 H862 0.950 . S
C886 C881 1.363 . S
C886 C885 1.415 . S
C887 H863 0.951 . S
C887 C888 1.366 . S
C887 C889 1.388 . S
C888 C887 1.366 . S
C888 C892 1.385 . S
C889 H864 0.951 . S
C889 C887 1.388 . S
C889 C890 1.366 . S
C890 C889 1.366 . S
C890 C891 1.414 . S
C890 C893 1.499 . S
C891 H865 0.950 . S
C891 C890 1.414 . S
C891 C892 1.374 . S
C892 H866 0.950 . S
C892 C888 1.385 . S
C892 C891 1.374 . S
C893 C890 1.499 . S
C893 C894 1.373 . S
C893 C895 1.389 . S
C894 H867 0.950 . S
C894 C880 1.377 . S
C894 C893 1.373 . S
C895 C879 1.377 . S
C895 C893 1.389 . S
C895 C896 1.524 . S
C896 C895 1.524 . S
C896 C897 1.397 . S
C896 C901 1.363 . S
C897 H868 0.950 . S
C897 C896 1.397 . S
C897 C898 1.334 . S
C898 H869 0.950 . S
C898 C897 1.334 . S
C898 C899 1.287 . S
C899 C898 1.287 . S
C899 C900 1.524 . S
C899 H902 0.999 . S
C900 H870 0.950 . S
C900 C899 1.524 . S
C900 C901 1.415 . S
C901 H871 0.950 . S
C901 C896 1.363 . S
C901 C900 1.415 . S
H902 C899 0.999 . S
H903 C884 0.913 . S
H904 C922 0.951 . S
H905 C924 0.951 . S
H906 C926 0.950 . S
H907 C927 0.950 . S
H908 C929 0.950 . S
H909 C932 0.950 . S
H910 C933 0.950 . S
H911 C935 0.950 . S
H912 C936 0.950 . S
H913 C937 0.951 . S
H914 C939 0.951 . S
H915 C941 0.950 . S
H916 C942 0.950 . S
H917 C944 0.950 . S
H918 C947 0.950 . S
H919 C948 0.950 . S
H920 C950 0.950 . S
H921 C951 0.950 . S
C922 H904 0.951 . S
C922 C923 1.366 . S
C922 C924 1.388 . S
C923 C922 1.366 . S
C923 C927 1.385 . S
C924 H905 0.951 . S
C924 C922 1.388 . S
C924 C925 1.366 . S
C925 C924 1.366 . S
C925 C926 1.414 . S
C925 C928 1.499 . S
C926 H906 0.950 . S
C926 C925 1.414 . S
C926 C927 1.374 . S
C927 H907 0.950 . S
C927 C923 1.385 . S
C927 C926 1.374 . S
C928 C925 1.499 . S
C928 C929 1.373 . S
C928 C930 1.389 . S
C929 H908 0.950 . S
C929 C928 1.373 . S
C929 C945 1.377 . S
C930 C928 1.389 . S
C930 C931 1.524 . S
C930 C944 1.377 . S
C931 C930 1.524 . S
C931 C932 1.397 . S
C931 C936 1.363 . S
C932 H909 0.950 . S
C932 C931 1.397 . S
C932 C933 1.334 . S
C933 H910 0.950 . S
C933 C932 1.334 . S
C933 C934 1.287 . S
C934 C933 1.287 . S
C934 C935 1.524 . S
C934 H953 0.913 . S
C935 H911 0.950 . S
C935 C934 1.524 . S
C935 C936 1.415 . S
C936 H912 0.950 . S
C936 C931 1.363 . S
C936 C935 1.415 . S
C937 H913 0.951 . S
C937 C938 1.366 . S
C937 C939 1.388 . S
C938 C937 1.366 . S
C938 C942 1.385 . S
C939 H914 0.951 . S
C939 C937 1.388 . S
C939 C940 1.366 . S
C940 C939 1.366 . S
C940 C941 1.414 . S
C940 C943 1.499 . S
C941 H915 0.950 . S
C941 C940 1.414 . S
C941 C942 1.374 . S
C942 H916 0.950 . S
C942 C938 1.385 . S
C942 C941 1.374 . S
C943 C940 1.499 . S
C943 C944 1.373 . S
C943 C945 1.389 . S
C944 H917 0.950 . S
C944 C930 1.377 . S
C944 C943 1.373 . S
C945 C929 1.377 . S
C945 C943 1.389 . S
C945 C946 1.524 . S
C946 C945 1.524 . S
C946 C947 1.397 . S
C946 C951 1.363 . S
C947 H918 0.950 . S
C947 C946 1.397 . S
C947 C948 1.334 . S
C948 H919 0.950 . S
C948 C947 1.334 . S
C948 C949 1.287 . S
C949 C948 1.287 . S
C949 C950 1.524 . S
C949 H952 0.999 . S
C950 H920 0.950 . S
C950 C949 1.524 . S
C950 C951 1.415 . S
C951 H921 0.950 . S
C951 C946 1.363 . S
C951 C950 1.415 . S
H952 C949 0.999 . S
H953 C934 0.913 . S
H954 C972 0.951 . S
H955 C974 0.951 . S
H956 C976 0.950 . S
H957 C977 0.950 . S
H958 C979 0.950 . S
H959 C982 0.950 . S
H960 C983 0.950 . S
H961 C985 0.950 . S
H962 C986 0.950 . S
H963 C987 0.951 . S
H964 C989 0.951 . S
H965 C991 0.950 . S
H966 C992 0.950 . S
H967 C994 0.950 . S
H968 C997 0.950 . S
H969 C998 0.950 . S
H970 C1000 0.950 . S
H971 C1001 0.950 . S
C972 H954 0.951 . S
C972 C973 1.366 . S
C972 C974 1.388 . S
C973 C972 1.366 . S
C973 C977 1.385 . S
C974 H955 0.951 . S
C974 C972 1.388 . S
C974 C975 1.366 . S
C975 C974 1.366 . S
C975 C976 1.414 . S
C975 C978 1.499 . S
C976 H956 0.950 . S
C976 C975 1.414 . S
C976 C977 1.374 . S
C977 H957 0.950 . S
C977 C973 1.385 . S
C977 C976 1.374 . S
C978 C975 1.499 . S
C978 C979 1.373 . S
C978 C980 1.389 . S
C979 H958 0.950 . S
C979 C978 1.373 . S
C979 C995 1.377 . S
C980 C978 1.389 . S
C980 C981 1.524 . S
C980 C994 1.377 . S
C981 C980 1.524 . S
C981 C982 1.397 . S
C981 C986 1.363 . S
C982 H959 0.950 . S
C982 C981 1.397 . S
C982 C983 1.334 . S
C983 H960 0.950 . S
C983 C982 1.334 . S
C983 C984 1.287 . S
C984 C983 1.287 . S
C984 C985 1.524 . S
C984 H1003 0.913 . S
C985 H961 0.950 . S
C985 C984 1.524 . S
C985 C986 1.415 . S
C986 H962 0.950 . S
C986 C981 1.363 . S
C986 C985 1.415 . S
C987 H963 0.951 . S
C987 C988 1.366 . S
C987 C989 1.388 . S
C988 C987 1.366 . S
C988 C992 1.385 . S
C989 H964 0.951 . S
C989 C987 1.388 . S
C989 C990 1.366 . S
C990 C989 1.366 . S
C990 C991 1.414 . S
C990 C993 1.499 . S
C991 H965 0.950 . S
C991 C990 1.414 . S
C991 C992 1.374 . S
C992 H966 0.950 . S
C992 C988 1.385 . S
C992 C991 1.374 . S
C993 C990 1.499 . S
C993 C994 1.373 . S
C993 C995 1.389 . S
C994 H967 0.950 . S
C994 C980 1.377 . S
C994 C993 1.373 . S
C995 C979 1.377 . S
C995 C993 1.389 . S
C995 C996 1.524 . S
C996 C995 1.524 . S
C996 C997 1.397 . S
C996 C1001 1.363 . S
C997 H968 0.950 . S
C997 C996 1.397 . S
C997 C998 1.334 1_655 S
C998 H969 0.950 . S
C998 C997 1.334 1_455 S
C998 C999 1.287 . S
C999 C998 1.287 . S
C999 C1000 1.524 . S
C999 H1002 0.999 . S
C1000 H970 0.950 . S
C1000 C999 1.524 . S
C1000 C1001 1.415 1_455 S
C1001 H971 0.950 . S
C1001 C996 1.363 . S
C1001 C1000 1.415 1_655 S
H1002 C999 0.999 . S
H1003 C984 0.913 . S
H1004 C1022 0.951 . S
H1005 C1024 0.951 . S
H1006 C1026 0.950 . S
H1007 C1027 0.950 . S
H1008 C1029 0.950 . S
H1009 C1032 0.950 . S
H1010 C1033 0.950 . S
H1011 C1035 0.950 . S
H1012 C1036 0.950 . S
H1013 C1037 0.951 . S
H1014 C1039 0.951 . S
H1015 C1041 0.950 . S
H1016 C1042 0.950 . S
H1017 C1044 0.950 . S
H1018 C1047 0.950 . S
H1019 C1048 0.950 . S
H1020 C1050 0.950 . S
H1021 C1051 0.950 . S
C1022 H1004 0.951 . S
C1022 C1023 1.366 . S
C1022 C1024 1.388 . S
C1023 C1022 1.366 . S
C1023 C1027 1.385 . S
C1024 H1005 0.951 . S
C1024 C1022 1.388 . S
C1024 C1025 1.366 . S
C1025 C1024 1.366 . S
C1025 C1026 1.414 . S
C1025 C1028 1.499 . S
C1026 H1006 0.950 . S
C1026 C1025 1.414 . S
C1026 C1027 1.374 . S
C1027 H1007 0.950 . S
C1027 C1023 1.385 . S
C1027 C1026 1.374 . S
C1028 C1025 1.499 . S
C1028 C1029 1.373 . S
C1028 C1030 1.389 . S
C1029 H1008 0.950 . S
C1029 C1028 1.373 . S
C1029 C1045 1.377 . S
C1030 C1028 1.389 . S
C1030 C1031 1.524 . S
C1030 C1044 1.377 . S
C1031 C1030 1.524 . S
C1031 C1032 1.397 . S
C1031 C1036 1.363 . S
C1032 H1009 0.950 . S
C1032 C1031 1.397 . S
C1032 C1033 1.334 . S
C1033 H1010 0.950 . S
C1033 C1032 1.334 . S
C1033 C1034 1.287 . S
C1034 C1033 1.287 . S
C1034 C1035 1.524 . S
C1034 H1053 0.913 . S
C1035 H1011 0.950 . S
C1035 C1034 1.524 . S
C1035 C1036 1.415 . S
C1036 H1012 0.950 . S
C1036 C1031 1.363 . S
C1036 C1035 1.415 . S
C1037 H1013 0.951 . S
C1037 C1038 1.366 . S
C1037 C1039 1.388 . S
C1038 C1037 1.366 . S
C1038 C1042 1.385 . S
C1039 H1014 0.951 . S
C1039 C1037 1.388 . S
C1039 C1040 1.366 . S
C1040 C1039 1.366 . S
C1040 C1041 1.414 . S
C1040 C1043 1.499 . S
C1041 H1015 0.950 . S
C1041 C1040 1.414 . S
C1041 C1042 1.374 . S
C1042 H1016 0.950 . S
C1042 C1038 1.385 . S
C1042 C1041 1.374 . S
C1043 C1040 1.499 . S
C1043 C1044 1.373 . S
C1043 C1045 1.389 . S
C1044 H1017 0.950 . S
C1044 C1030 1.377 . S
C1044 C1043 1.373 . S
C1045 C1029 1.377 . S
C1045 C1043 1.389 . S
C1045 C1046 1.524 . S
C1046 C1045 1.524 . S
C1046 C1047 1.397 . S
C1046 C1051 1.363 . S
C1047 H1018 0.950 . S
C1047 C1046 1.397 . S
C1047 C1048 1.334 . S
C1048 H1019 0.950 . S
C1048 C1047 1.334 . S
C1048 C1049 1.287 . S
C1049 C1048 1.287 . S
C1049 C1050 1.524 . S
C1049 H1052 0.999 . S
C1050 H1020 0.950 . S
C1050 C1049 1.524 . S
C1050 C1051 1.415 . S
C1051 H1021 0.950 . S
C1051 C1046 1.363 . S
C1051 C1050 1.415 . S
H1052 C1049 0.999 . S
H1053 C1034 0.913 . S
H1054 C1072 0.951 . S
H1055 C1074 0.951 . S
H1056 C1076 0.950 . S
H1057 C1077 0.950 . S
H1058 C1079 0.950 . S
H1059 C1082 0.950 . S
H1060 C1083 0.950 . S
H1061 C1085 0.950 . S
H1062 C1086 0.950 . S
H1063 C1087 0.951 . S
H1064 C1089 0.951 . S
H1065 C1091 0.950 . S
H1066 C1092 0.950 . S
H1067 C1094 0.950 . S
H1068 C1097 0.950 . S
H1069 C1098 0.950 . S
H1070 C1100 0.950 . S
H1071 C1101 0.950 . S
C1072 H1054 0.951 . S
C1072 C1073 1.366 . S
C1072 C1074 1.388 . S
C1073 C1072 1.366 . S
C1073 C1077 1.385 . S
C1074 H1055 0.951 . S
C1074 C1072 1.388 . S
C1074 C1075 1.366 . S
C1075 C1074 1.366 . S
C1075 C1076 1.414 . S
C1075 C1078 1.499 . S
C1076 H1056 0.950 . S
C1076 C1075 1.414 . S
C1076 C1077 1.374 . S
C1077 H1057 0.950 . S
C1077 C1073 1.385 . S
C1077 C1076 1.374 . S
C1078 C1075 1.499 . S
C1078 C1079 1.373 . S
C1078 C1080 1.389 . S
C1079 H1058 0.950 . S
C1079 C1078 1.373 . S
C1079 C1095 1.377 . S
C1080 C1078 1.389 . S
C1080 C1081 1.524 . S
C1080 C1094 1.377 . S
C1081 C1080 1.524 . S
C1081 C1082 1.397 . S
C1081 C1086 1.363 . S
C1082 H1059 0.950 . S
C1082 C1081 1.397 . S
C1082 C1083 1.334 . S
C1083 H1060 0.950 . S
C1083 C1082 1.334 . S
C1083 C1084 1.287 . S
C1084 C1083 1.287 . S
C1084 C1085 1.524 . S
C1084 H1103 0.913 . S
C1085 H1061 0.950 . S
C1085 C1084 1.524 . S
C1085 C1086 1.415 . S
C1086 H1062 0.950 . S
C1086 C1081 1.363 . S
C1086 C1085 1.415 . S
C1087 H1063 0.951 . S
C1087 C1088 1.366 . S
C1087 C1089 1.388 . S
C1088 C1087 1.366 . S
C1088 C1092 1.385 . S
C1089 H1064 0.951 . S
C1089 C1087 1.388 . S
C1089 C1090 1.366 . S
C1090 C1089 1.366 . S
C1090 C1091 1.414 . S
C1090 C1093 1.499 . S
C1091 H1065 0.950 . S
C1091 C1090 1.414 . S
C1091 C1092 1.374 . S
C1092 H1066 0.950 . S
C1092 C1088 1.385 . S
C1092 C1091 1.374 . S
C1093 C1090 1.499 . S
C1093 C1094 1.373 . S
C1093 C1095 1.389 . S
C1094 H1067 0.950 . S
C1094 C1080 1.377 . S
C1094 C1093 1.373 . S
C1095 C1079 1.377 . S
C1095 C1093 1.389 . S
C1095 C1096 1.524 . S
C1096 C1095 1.524 . S
C1096 C1097 1.397 . S
C1096 C1101 1.363 . S
C1097 H1068 0.950 . S
C1097 C1096 1.397 . S
C1097 C1098 1.334 . S
C1098 H1069 0.950 . S
C1098 C1097 1.334 . S
C1098 C1099 1.287 . S
C1099 C1098 1.287 . S
C1099 C1100 1.524 . S
C1099 H1102 0.999 . S
C1100 H1070 0.950 . S
C1100 C1099 1.524 . S
C1100 C1101 1.415 . S
C1101 H1071 0.950 . S
C1101 C1096 1.363 . S
C1101 C1100 1.415 . S
H1102 C1099 0.999 . S
H1103 C1084 0.913 . S
H1104 C1122 0.951 . S
H1105 C1124 0.951 . S
H1106 C1126 0.950 . S
H1107 C1127 0.950 . S
H1108 C1129 0.950 . S
H1109 C1132 0.950 . S
H1110 C1133 0.950 . S
H1111 C1135 0.950 . S
H1112 C1136 0.950 . S
H1113 C1137 0.951 . S
H1114 C1139 0.951 . S
H1115 C1141 0.950 . S
H1116 C1142 0.950 . S
H1117 C1144 0.950 . S
H1118 C1147 0.950 . S
H1119 C1148 0.950 . S
H1120 C1150 0.950 . S
H1121 C1151 0.950 . S
C1122 H1104 0.951 . S
C1122 C1123 1.366 . S
C1122 C1124 1.388 . S
C1123 C1122 1.366 . S
C1123 C1127 1.385 . S
C1124 H1105 0.951 . S
C1124 C1122 1.388 . S
C1124 C1125 1.366 . S
C1125 C1124 1.366 . S
C1125 C1126 1.414 . S
C1125 C1128 1.499 . S
C1126 H1106 0.950 . S
C1126 C1125 1.414 . S
C1126 C1127 1.374 . S
C1127 H1107 0.950 . S
C1127 C1123 1.385 . S
C1127 C1126 1.374 . S
C1128 C1125 1.499 . S
C1128 C1129 1.373 . S
C1128 C1130 1.389 . S
C1129 H1108 0.950 . S
C1129 C1128 1.373 . S
C1129 C1145 1.377 . S
C1130 C1128 1.389 . S
C1130 C1131 1.524 . S
C1130 C1144 1.377 . S
C1131 C1130 1.524 . S
C1131 C1132 1.397 . S
C1131 C1136 1.363 . S
C1132 H1109 0.950 . S
C1132 C1131 1.397 . S
C1132 C1133 1.334 . S
C1133 H1110 0.950 . S
C1133 C1132 1.334 . S
C1133 C1134 1.287 . S
C1134 C1133 1.287 . S
C1134 C1135 1.524 . S
C1134 H1153 0.913 . S
C1135 H1111 0.950 . S
C1135 C1134 1.524 . S
C1135 C1136 1.415 . S
C1136 H1112 0.950 . S
C1136 C1131 1.363 . S
C1136 C1135 1.415 . S
C1137 H1113 0.951 . S
C1137 C1138 1.366 . S
C1137 C1139 1.388 . S
C1138 C1137 1.366 . S
C1138 C1142 1.385 . S
C1139 H1114 0.951 . S
C1139 C1137 1.388 . S
C1139 C1140 1.366 . S
C1140 C1139 1.366 . S
C1140 C1141 1.414 . S
C1140 C1143 1.499 . S
C1141 H1115 0.950 . S
C1141 C1140 1.414 . S
C1141 C1142 1.374 . S
C1142 H1116 0.950 . S
C1142 C1138 1.385 . S
C1142 C1141 1.374 . S
C1143 C1140 1.499 . S
C1143 C1144 1.373 . S
C1143 C1145 1.389 . S
C1144 H1117 0.950 . S
C1144 C1130 1.377 . S
C1144 C1143 1.373 . S
C1145 C1129 1.377 . S
C1145 C1143 1.389 . S
C1145 C1146 1.524 . S
C1146 C1145 1.524 . S
C1146 C1147 1.397 . S
C1146 C1151 1.363 . S
C1147 H1118 0.950 . S
C1147 C1146 1.397 . S
C1147 C1148 1.334 . S
C1148 H1119 0.950 . S
C1148 C1147 1.334 . S
C1148 C1149 1.287 . S
C1149 C1148 1.287 . S
C1149 C1150 1.524 . S
C1149 H1152 0.999 . S
C1150 H1120 0.950 . S
C1150 C1149 1.524 . S
C1150 C1151 1.415 . S
C1151 H1121 0.950 . S
C1151 C1146 1.363 . S
C1151 C1150 1.415 . S
H1152 C1149 0.999 . S
H1153 C1134 0.913 . S
H1154 C1172 0.951 . S
H1155 C1174 0.951 . S
H1156 C1176 0.950 . S
H1157 C1177 0.950 . S
H1158 C1179 0.950 . S
H1159 C1182 0.950 . S
H1160 C1183 0.950 . S
H1161 C1185 0.950 . S
H1162 C1186 0.950 . S
H1163 C1187 0.951 . S
H1164 C1189 0.951 . S
H1165 C1191 0.950 . S
H1166 C1192 0.950 . S
H1167 C1194 0.950 . S
H1168 C1197 0.950 . S
H1169 C1198 0.950 . S
H1170 C1200 0.950 . S
H1171 C1201 0.950 . S
C1172 H1154 0.951 . S
C1172 C1173 1.366 . S
C1172 C1174 1.388 . S
C1173 C1172 1.366 . S
C1173 C1177 1.385 . S
C1174 H1155 0.951 . S
C1174 C1172 1.388 . S
C1174 C1175 1.366 . S
C1175 C1174 1.366 . S
C1175 C1176 1.414 . S
C1175 C1178 1.499 . S
C1176 H1156 0.950 . S
C1176 C1175 1.414 . S
C1176 C1177 1.374 . S
C1177 H1157 0.950 . S
C1177 C1173 1.385 . S
C1177 C1176 1.374 . S
C1178 C1175 1.499 . S
C1178 C1179 1.373 . S
C1178 C1180 1.389 . S
C1179 H1158 0.950 . S
C1179 C1178 1.373 . S
C1179 C1195 1.377 . S
C1180 C1178 1.389 . S
C1180 C1181 1.524 . S
C1180 C1194 1.377 . S
C1181 C1180 1.524 . S
C1181 C1182 1.397 . S
C1181 C1186 1.363 . S
C1182 H1159 0.950 . S
C1182 C1181 1.397 . S
C1182 C1183 1.334 . S
C1183 H1160 0.950 . S
C1183 C1182 1.334 . S
C1183 C1184 1.287 . S
C1184 C1183 1.287 . S
C1184 C1185 1.524 . S
C1184 H1203 0.913 . S
C1185 H1161 0.950 . S
C1185 C1184 1.524 . S
C1185 C1186 1.415 . S
C1186 H1162 0.950 . S
C1186 C1181 1.363 . S
C1186 C1185 1.415 . S
C1187 H1163 0.951 . S
C1187 C1188 1.366 . S
C1187 C1189 1.388 . S
C1188 C1187 1.366 . S
C1188 C1192 1.385 . S
C1189 H1164 0.951 . S
C1189 C1187 1.388 . S
C1189 C1190 1.366 . S
C1190 C1189 1.366 . S
C1190 C1191 1.414 . S
C1190 C1193 1.499 . S
C1191 H1165 0.950 . S
C1191 C1190 1.414 . S
C1191 C1192 1.374 . S
C1192 H1166 0.950 . S
C1192 C1188 1.385 . S
C1192 C1191 1.374 . S
C1193 C1190 1.499 . S
C1193 C1194 1.373 . S
C1193 C1195 1.389 . S
C1194 H1167 0.950 . S
C1194 C1180 1.377 . S
C1194 C1193 1.373 . S
C1195 C1179 1.377 . S
C1195 C1193 1.389 . S
C1195 C1196 1.524 . S
C1196 C1195 1.524 . S
C1196 C1197 1.397 . S
C1196 C1201 1.363 . S
C1197 H1168 0.950 . S
C1197 C1196 1.397 . S
C1197 C1198 1.334 . S
C1198 H1169 0.950 . S
C1198 C1197 1.334 . S
C1198 C1199 1.287 . S
C1199 C1198 1.287 . S
C1199 C1200 1.524 . S
C1199 H1202 0.999 . S
C1200 H1170 0.950 . S
C1200 C1199 1.524 . S
C1200 C1201 1.415 . S
C1201 H1171 0.950 . S
C1201 C1196 1.363 . S
C1201 C1200 1.415 . S
H1202 C1199 0.999 . S
H1203 C1184 0.913 . S
H1204 C1222 0.951 . S
H1205 C1224 0.951 . S
H1206 C1226 0.950 . S
H1207 C1227 0.950 . S
H1208 C1229 0.950 . S
H1209 C1232 0.950 . S
H1210 C1233 0.950 . S
H1211 C1235 0.950 . S
H1212 C1236 0.950 . S
H1213 C1237 0.951 . S
H1214 C1239 0.951 . S
H1215 C1241 0.950 . S
H1216 C1242 0.950 . S
H1217 C1244 0.950 . S
H1218 C1247 0.950 . S
H1219 C1248 0.950 . S
H1220 C1250 0.950 . S
H1221 C1251 0.950 . S
C1222 H1204 0.951 . S
C1222 C1223 1.366 . S
C1222 C1224 1.388 . S
C1223 C1222 1.366 . S
C1223 C1227 1.385 . S
C1224 H1205 0.951 . S
C1224 C1222 1.388 . S
C1224 C1225 1.366 . S
C1225 C1224 1.366 . S
C1225 C1226 1.414 . S
C1225 C1228 1.499 . S
C1226 H1206 0.950 . S
C1226 C1225 1.414 . S
C1226 C1227 1.374 . S
C1227 H1207 0.950 . S
C1227 C1223 1.385 . S
C1227 C1226 1.374 . S
C1228 C1225 1.499 . S
C1228 C1229 1.373 . S
C1228 C1230 1.389 . S
C1229 H1208 0.950 . S
C1229 C1228 1.373 . S
C1229 C1245 1.377 . S
C1230 C1228 1.389 . S
C1230 C1231 1.524 . S
C1230 C1244 1.377 . S
C1231 C1230 1.524 . S
C1231 C1232 1.397 . S
C1231 C1236 1.363 . S
C1232 H1209 0.950 . S
C1232 C1231 1.397 . S
C1232 C1233 1.334 . S
C1233 H1210 0.950 . S
C1233 C1232 1.334 . S
C1233 C1234 1.287 . S
C1234 C1233 1.287 . S
C1234 C1235 1.524 . S
C1234 H1253 0.913 . S
C1235 H1211 0.950 . S
C1235 C1234 1.524 . S
C1235 C1236 1.415 . S
C1236 H1212 0.950 . S
C1236 C1231 1.363 . S
C1236 C1235 1.415 . S
C1237 H1213 0.951 . S
C1237 C1238 1.366 . S
C1237 C1239 1.388 . S
C1238 C1237 1.366 . S
C1238 C1242 1.385 . S
C1239 H1214 0.951 . S
C1239 C1237 1.388 . S
C1239 C1240 1.366 . S
C1240 C1239 1.366 . S
C1240 C1241 1.414 . S
C1240 C1243 1.499 . S
C1241 H1215 0.950 . S
C1241 C1240 1.414 . S
C1241 C1242 1.374 . S
C1242 H1216 0.950 . S
C1242 C1238 1.385 . S
C1242 C1241 1.374 . S
C1243 C1240 1.499 . S
C1243 C1244 1.373 . S
C1243 C1245 1.389 . S
C1244 H1217 0.950 . S
C1244 C1230 1.377 . S
C1244 C1243 1.373 . S
C1245 C1229 1.377 . S
C1245 C1243 1.389 . S
C1245 C1246 1.524 . S
C1246 C1245 1.524 . S
C1246 C1247 1.397 . S
C1246 C1251 1.363 . S
C1247 H1218 0.950 . S
C1247 C1246 1.397 . S
C1247 C1248 1.334 . S
C1248 H1219 0.950 . S
C1248 C1247 1.334 . S
C1248 C1249 1.287 . S
C1249 C1248 1.287 . S
C1249 C1250 1.524 . S
C1249 H1252 0.999 . S
C1250 H1220 0.950 . S
C1250 C1249 1.524 . S
C1250 C1251 1.415 . S
C1251 H1221 0.950 . S
C1251 C1246 1.363 . S
C1251 C1250 1.415 . S
H1252 C1249 0.999 . S
H1253 C1234 0.913 . S
H1254 C1272 0.951 . S
H1255 C1274 0.951 . S
H1256 C1276 0.950 . S
H1257 C1277 0.950 . S
H1258 C1279 0.950 . S
H1259 C1282 0.950 . S
H1260 C1283 0.950 . S
H1261 C1285 0.950 . S
H1262 C1286 0.950 . S
H1263 C1287 0.951 . S
H1264 C1289 0.951 . S
H1265 C1291 0.950 . S
H1266 C1292 0.950 . S
H1267 C1294 0.950 . S
H1268 C1297 0.950 . S
H1269 C1298 0.950 . S
H1270 C1300 0.950 . S
H1271 C1301 0.950 . S
C1272 H1254 0.951 . S
C1272 C1273 1.366 . S
C1272 C1274 1.388 . S
C1273 C1272 1.366 . S
C1273 C1277 1.385 . S
C1274 H1255 0.951 . S
C1274 C1272 1.388 . S
C1274 C1275 1.366 . S
C1275 C1274 1.366 . S
C1275 C1276 1.414 . S
C1275 C1278 1.499 . S
C1276 H1256 0.950 . S
C1276 C1275 1.414 . S
C1276 C1277 1.374 . S
C1277 H1257 0.950 . S
C1277 C1273 1.385 . S
C1277 C1276 1.374 . S
C1278 C1275 1.499 . S
C1278 C1279 1.373 . S
C1278 C1280 1.389 . S
C1279 H1258 0.950 . S
C1279 C1278 1.373 . S
C1279 C1295 1.377 . S
C1280 C1278 1.389 . S
C1280 C1281 1.524 . S
C1280 C1294 1.377 . S
C1281 C1280 1.524 . S
C1281 C1282 1.397 . S
C1281 C1286 1.363 . S
C1282 H1259 0.950 . S
C1282 C1281 1.397 . S
C1282 C1283 1.334 . S
C1283 H1260 0.950 . S
C1283 C1282 1.334 . S
C1283 C1284 1.287 . S
C1284 C1283 1.287 . S
C1284 C1285 1.524 . S
C1284 H1303 0.913 . S
C1285 H1261 0.950 . S
C1285 C1284 1.524 . S
C1285 C1286 1.415 . S
C1286 H1262 0.950 . S
C1286 C1281 1.363 . S
C1286 C1285 1.415 . S
C1287 H1263 0.951 . S
C1287 C1288 1.366 . S
C1287 C1289 1.388 . S
C1288 C1287 1.366 . S
C1288 C1292 1.385 . S
C1289 H1264 0.951 . S
C1289 C1287 1.388 . S
C1289 C1290 1.366 . S
C1290 C1289 1.366 . S
C1290 C1291 1.414 . S
C1290 C1293 1.499 . S
C1291 H1265 0.950 . S
C1291 C1290 1.414 . S
C1291 C1292 1.374 . S
C1292 H1266 0.950 . S
C1292 C1288 1.385 . S
C1292 C1291 1.374 . S
C1293 C1290 1.499 . S
C1293 C1294 1.373 . S
C1293 C1295 1.389 . S
C1294 H1267 0.950 . S
C1294 C1280 1.377 . S
C1294 C1293 1.373 . S
C1295 C1279 1.377 . S
C1295 C1293 1.389 . S
C1295 C1296 1.524 . S
C1296 C1295 1.524 . S
C1296 C1297 1.397 . S
C1296 C1301 1.363 . S
C1297 H1268 0.950 . S
C1297 C1296 1.397 . S
C1297 C1298 1.334 . S
C1298 H1269 0.950 . S
C1298 C1297 1.334 . S
C1298 C1299 1.287 . S
C1299 C1298 1.287 . S
C1299 C1300 1.524 . S
C1299 H1302 0.999 . S
C1300 H1270 0.950 . S
C1300 C1299 1.524 . S
C1300 C1301 1.415 . S
C1301 H1271 0.950 . S
C1301 C1296 1.363 . S
C1301 C1300 1.415 . S
H1302 C1299 0.999 . S
H1303 C1284 0.913 . S
H1304 C1322 0.951 . S
H1305 C1324 0.951 . S
H1306 C1326 0.950 . S
H1307 C1327 0.950 . S
H1308 C1329 0.950 . S
H1309 C1332 0.950 . S
H1310 C1333 0.950 . S
H1311 C1335 0.950 . S
H1312 C1336 0.950 . S
H1313 C1337 0.951 . S
H1314 C1339 0.951 . S
H1315 C1341 0.950 . S
H1316 C1342 0.950 . S
H1317 C1344 0.950 . S
H1318 C1347 0.950 . S
H1319 C1348 0.950 . S
H1320 C1350 0.950 . S
H1321 C1351 0.950 . S
C1322 H1304 0.951 . S
C1322 C1323 1.366 . S
C1322 C1324 1.388 . S
C1323 C1322 1.366 . S
C1323 C1327 1.385 . S
C1324 H1305 0.951 . S
C1324 C1322 1.388 . S
C1324 C1325 1.366 . S
C1325 C1324 1.366 . S
C1325 C1326 1.414 . S
C1325 C1328 1.499 . S
C1326 H1306 0.950 . S
C1326 C1325 1.414 . S
C1326 C1327 1.374 . S
C1327 H1307 0.950 . S
C1327 C1323 1.385 . S
C1327 C1326 1.374 . S
C1328 C1325 1.499 . S
C1328 C1329 1.373 . S
C1328 C1330 1.389 . S
C1329 H1308 0.950 . S
C1329 C1328 1.373 . S
C1329 C1345 1.377 . S
C1330 C1328 1.389 . S
C1330 C1331 1.524 . S
C1330 C1344 1.377 . S
C1331 C1330 1.524 . S
C1331 C1332 1.397 . S
C1331 C1336 1.363 . S
C1332 H1309 0.950 . S
C1332 C1331 1.397 . S
C1332 C1333 1.334 . S
C1333 H1310 0.950 . S
C1333 C1332 1.334 . S
C1333 C1334 1.287 . S
C1334 C1333 1.287 . S
C1334 C1335 1.524 . S
C1334 H1353 0.913 . S
C1335 H1311 0.950 . S
C1335 C1334 1.524 . S
C1335 C1336 1.415 . S
C1336 H1312 0.950 . S
C1336 C1331 1.363 . S
C1336 C1335 1.415 . S
C1337 H1313 0.951 . S
C1337 C1338 1.366 . S
C1337 C1339 1.388 . S
C1338 C1337 1.366 . S
C1338 C1342 1.385 . S
C1339 H1314 0.951 . S
C1339 C1337 1.388 . S
C1339 C1340 1.366 . S
C1340 C1339 1.366 . S
C1340 C1341 1.414 . S
C1340 C1343 1.499 . S
C1341 H1315 0.950 . S
C1341 C1340 1.414 . S
C1341 C1342 1.374 . S
C1342 H1316 0.950 . S
C1342 C1338 1.385 . S
C1342 C1341 1.374 . S
C1343 C1340 1.499 . S
C1343 C1344 1.373 . S
C1343 C1345 1.389 . S
C1344 H1317 0.950 . S
C1344 C1330 1.377 . S
C1344 C1343 1.373 . S
C1345 C1329 1.377 . S
C1345 C1343 1.389 . S
C1345 C1346 1.524 . S
C1346 C1345 1.524 . S
C1346 C1347 1.397 . S
C1346 C1351 1.363 . S
C1347 H1318 0.950 . S
C1347 C1346 1.397 . S
C1347 C1348 1.334 . S
C1348 H1319 0.950 . S
C1348 C1347 1.334 . S
C1348 C1349 1.287 . S
C1349 C1348 1.287 . S
C1349 C1350 1.524 . S
C1349 H1352 0.999 . S
C1350 H1320 0.950 . S
C1350 C1349 1.524 . S
C1350 C1351 1.415 . S
C1351 H1321 0.950 . S
C1351 C1346 1.363 . S
C1351 C1350 1.415 . S
H1352 C1349 0.999 . S
H1353 C1334 0.913 . S
H1354 C1372 0.951 . S
H1355 C1374 0.951 . S
H1356 C1376 0.950 . S
H1357 C1377 0.950 . S
H1358 C1379 0.950 . S
H1359 C1382 0.950 . S
H1360 C1383 0.950 . S
H1361 C1385 0.950 . S
H1362 C1386 0.950 . S
H1363 C1387 0.951 . S
H1364 C1389 0.951 . S
H1365 C1391 0.950 . S
H1366 C1392 0.950 . S
H1367 C1394 0.950 . S
H1368 C1397 0.950 . S
H1369 C1398 0.950 . S
H1370 C1400 0.950 . S
H1371 C1401 0.950 . S
C1372 H1354 0.951 . S
C1372 C1373 1.366 . S
C1372 C1374 1.388 . S
C1373 C1372 1.366 . S
C1373 C1377 1.385 . S
C1374 H1355 0.951 . S
C1374 C1372 1.388 . S
C1374 C1375 1.366 . S
C1375 C1374 1.366 . S
C1375 C1376 1.414 . S
C1375 C1378 1.499 . S
C1376 H1356 0.950 . S
C1376 C1375 1.414 . S
C1376 C1377 1.374 . S
C1377 H1357 0.950 . S
C1377 C1373 1.385 . S
C1377 C1376 1.374 . S
C1378 C1375 1.499 . S
C1378 C1379 1.373 . S
C1378 C1380 1.389 . S
C1379 H1358 0.950 . S
C1379 C1378 1.373 . S
C1379 C1395 1.377 . S
C1380 C1378 1.389 . S
C1380 C1381 1.524 . S
C1380 C1394 1.377 . S
C1381 C1380 1.524 . S
C1381 C1382 1.397 . S
C1381 C1386 1.363 . S
C1382 H1359 0.950 . S
C1382 C1381 1.397 . S
C1382 C1383 1.334 . S
C1383 H1360 0.950 . S
C1383 C1382 1.334 . S
C1383 C1384 1.287 . S
C1384 C1383 1.287 . S
C1384 C1385 1.524 . S
C1384 H1403 0.913 . S
C1385 H1361 0.950 . S
C1385 C1384 1.524 . S
C1385 C1386 1.415 . S
C1386 H1362 0.950 . S
C1386 C1381 1.363 . S
C1386 C1385 1.415 . S
C1387 H1363 0.951 . S
C1387 C1388 1.366 . S
C1387 C1389 1.388 . S
C1388 C1387 1.366 . S
C1388 C1392 1.385 . S
C1389 H1364 0.951 . S
C1389 C1387 1.388 . S
C1389 C1390 1.366 . S
C1390 C1389 1.366 . S
C1390 C1391 1.414 . S
C1390 C1393 1.499 . S
C1391 H1365 0.950 . S
C1391 C1390 1.414 . S
C1391 C1392 1.374 . S
C1392 H1366 0.950 . S
C1392 C1388 1.385 . S
C1392 C1391 1.374 . S
C1393 C1390 1.499 . S
C1393 C1394 1.373 . S
C1393 C1395 1.389 . S
C1394 H1367 0.950 . S
C1394 C1380 1.377 . S
C1394 C1393 1.373 . S
C1395 C1379 1.377 . S
C1395 C1393 1.389 . S
C1395 C1396 1.524 . S
C1396 C1395 1.524 . S
C1396 C1397 1.397 . S
C1396 C1401 1.363 . S
C1397 H1368 0.950 . S
C1397 C1396 1.397 . S
C1397 C1398 1.334 . S
C1398 H1369 0.950 . S
C1398 C1397 1.334 . S
C1398 C1399 1.287 . S
C1399 C1398 1.287 . S
C1399 C1400 1.524 . S
C1399 H1402 0.999 . S
C1400 H1370 0.950 . S
C1400 C1399 1.524 . S
C1400 C1401 1.415 . S
C1401 H1371 0.950 . S
C1401 C1396 1.363 . S
C1401 C1400 1.415 . S
H1402 C1399 0.999 . S
H1403 C1384 0.913 . S
H1404 C1422 0.951 . S
H1405 C1424 0.951 . S
H1406 C1426 0.950 . S
H1407 C1427 0.950 . S
H1408 C1429 0.950 . S
H1409 C1432 0.950 . S
H1410 C1433 0.950 . S
H1411 C1435 0.950 . S
H1412 C1436 0.950 . S
H1413 C1437 0.951 . S
H1414 C1439 0.951 . S
H1415 C1441 0.950 . S
H1416 C1442 0.950 . S
H1417 C1444 0.950 . S
H1418 C1447 0.950 . S
H1419 C1448 0.950 . S
H1420 C1450 0.950 . S
H1421 C1451 0.950 . S
C1422 H1404 0.951 . S
C1422 C1423 1.366 . S
C1422 C1424 1.388 . S
C1423 C1422 1.366 . S
C1423 C1427 1.385 . S
C1424 H1405 0.951 . S
C1424 C1422 1.388 . S
C1424 C1425 1.366 . S
C1425 C1424 1.366 . S
C1425 C1426 1.414 . S
C1425 C1428 1.499 . S
C1426 H1406 0.950 . S
C1426 C1425 1.414 . S
C1426 C1427 1.374 . S
C1427 H1407 0.950 . S
C1427 C1423 1.385 . S
C1427 C1426 1.374 . S
C1428 C1425 1.499 . S
C1428 C1429 1.373 . S
C1428 C1430 1.389 . S
C1429 H1408 0.950 . S
C1429 C1428 1.373 . S
C1429 C1445 1.377 . S
C1430 C1428 1.389 . S
C1430 C1431 1.524 . S
C1430 C1444 1.377 . S
C1431 C1430 1.524 . S
C1431 C1432 1.397 . S
C1431 C1436 1.363 . S
C1432 H1409 0.950 . S
C1432 C1431 1.397 . S
C1432 C1433 1.334 . S
C1433 H1410 0.950 . S
C1433 C1432 1.334 . S
C1433 C1434 1.287 . S
C1434 C1433 1.287 . S
C1434 C1435 1.524 . S
C1434 H1453 0.913 . S
C1435 H1411 0.950 . S
C1435 C1434 1.524 . S
C1435 C1436 1.415 . S
C1436 H1412 0.950 . S
C1436 C1431 1.363 . S
C1436 C1435 1.415 . S
C1437 H1413 0.951 . S
C1437 C1438 1.366 . S
C1437 C1439 1.388 . S
C1438 C1437 1.366 . S
C1438 C1442 1.385 . S
C1439 H1414 0.951 . S
C1439 C1437 1.388 . S
C1439 C1440 1.366 . S
C1440 C1439 1.366 . S
C1440 C1441 1.414 . S
C1440 C1443 1.499 . S
C1441 H1415 0.950 . S
C1441 C1440 1.414 . S
C1441 C1442 1.374 . S
C1442 H1416 0.950 . S
C1442 C1438 1.385 . S
C1442 C1441 1.374 . S
C1443 C1440 1.499 . S
C1443 C1444 1.373 . S
C1443 C1445 1.389 . S
C1444 H1417 0.950 . S
C1444 C1430 1.377 . S
C1444 C1443 1.373 . S
C1445 C1429 1.377 . S
C1445 C1443 1.389 . S
C1445 C1446 1.524 . S
C1446 C1445 1.524 . S
C1446 C1447 1.397 . S
C1446 C1451 1.363 . S
C1447 H1418 0.950 . S
C1447 C1446 1.397 . S
C1447 C1448 1.334 . S
C1448 H1419 0.950 . S
C1448 C1447 1.334 . S
C1448 C1449 1.287 . S
C1449 C1448 1.287 . S
C1449 C1450 1.524 . S
C1449 H1452 0.999 . S
C1450 H1420 0.950 . S
C1450 C1449 1.524 . S
C1450 C1451 1.415 . S
C1451 H1421 0.950 . S
C1451 C1446 1.363 . S
C1451 C1450 1.415 . S
H1452 C1449 0.999 . S
H1453 C1434 0.913 . S
H1454 C1472 0.951 . S
H1455 C1474 0.951 . S
H1456 C1476 0.950 . S
H1457 C1477 0.950 . S
H1458 C1479 0.950 . S
H1459 C1482 0.950 . S
H1460 C1483 0.950 . S
H1461 C1485 0.950 . S
H1462 C1486 0.950 . S
H1463 C1487 0.951 . S
H1464 C1489 0.951 . S
H1465 C1491 0.950 . S
H1466 C1492 0.950 . S
H1467 C1494 0.950 . S
H1468 C1497 0.950 . S
H1469 C1498 0.950 . S
H1470 C1500 0.950 . S
H1471 C1501 0.950 . S
C1472 H1454 0.951 . S
C1472 C1473 1.366 . S
C1472 C1474 1.388 . S
C1473 C1472 1.366 . S
C1473 C1477 1.385 . S
C1474 H1455 0.951 . S
C1474 C1472 1.388 . S
C1474 C1475 1.366 . S
C1475 C1474 1.366 . S
C1475 C1476 1.414 . S
C1475 C1478 1.499 . S
C1476 H1456 0.950 . S
C1476 C1475 1.414 . S
C1476 C1477 1.374 . S
C1477 H1457 0.950 . S
C1477 C1473 1.385 . S
C1477 C1476 1.374 . S
C1478 C1475 1.499 . S
C1478 C1479 1.373 . S
C1478 C1480 1.389 . S
C1479 H1458 0.950 . S
C1479 C1478 1.373 . S
C1479 C1495 1.377 . S
C1480 C1478 1.389 . S
C1480 C1481 1.524 . S
C1480 C1494 1.377 . S
C1481 C1480 1.524 . S
C1481 C1482 1.397 . S
C1481 C1486 1.363 . S
C1482 H1459 0.950 . S
C1482 C1481 1.397 . S
C1482 C1483 1.334 . S
C1483 H1460 0.950 . S
C1483 C1482 1.334 . S
C1483 C1484 1.287 . S
C1484 C1483 1.287 . S
C1484 C1485 1.524 . S
C1484 H1503 0.913 . S
C1485 H1461 0.950 . S
C1485 C1484 1.524 . S
C1485 C1486 1.415 . S
C1486 H1462 0.950 . S
C1486 C1481 1.363 . S
C1486 C1485 1.415 . S
C1487 H1463 0.951 . S
C1487 C1488 1.366 . S
C1487 C1489 1.388 . S
C1488 C1487 1.366 . S
C1488 C1492 1.385 . S
C1489 H1464 0.951 . S
C1489 C1487 1.388 . S
C1489 C1490 1.366 . S
C1490 C1489 1.366 . S
C1490 C1491 1.414 . S
C1490 C1493 1.499 . S
C1491 H1465 0.950 . S
C1491 C1490 1.414 . S
C1491 C1492 1.374 . S
C1492 H1466 0.950 . S
C1492 C1488 1.385 . S
C1492 C1491 1.374 . S
C1493 C1490 1.499 . S
C1493 C1494 1.373 . S
C1493 C1495 1.389 . S
C1494 H1467 0.950 . S
C1494 C1480 1.377 . S
C1494 C1493 1.373 . S
C1495 C1479 1.377 . S
C1495 C1493 1.389 . S
C1495 C1496 1.524 . S
C1496 C1495 1.524 . S
C1496 C1497 1.397 . S
C1496 C1501 1.363 . S
C1497 H1468 0.950 . S
C1497 C1496 1.397 . S
C1497 C1498 1.334 . S
C1498 H1469 0.950 . S
C1498 C1497 1.334 . S
C1498 C1499 1.287 . S
C1499 C1498 1.287 . S
C1499 C1500 1.524 . S
C1499 H1502 0.999 . S
C1500 H1470 0.950 . S
C1500 C1499 1.524 . S
C1500 C1501 1.415 . S
C1501 H1471 0.950 . S
C1501 C1496 1.363 . S
C1501 C1500 1.415 . S
H1502 C1499 0.999 . S
H1503 C1484 0.913 . S
H1504 C1522 0.951 . S
H1505 C1524 0.951 . S
H1506 C1526 0.950 . S
H1507 C1527 0.950 . S
H1508 C1529 0.950 . S
H1509 C1532 0.950 . S
H1510 C1533 0.950 . S
H1511 C1535 0.950 . S
H1512 C1536 0.950 . S
H1513 C1537 0.951 . S
H1514 C1539 0.951 . S
H1515 C1541 0.950 . S
H1516 C1542 0.950 . S
H1517 C1544 0.950 . S
H1518 C1547 0.950 . S
H1519 C1548 0.950 . S
H1520 C1550 0.950 . S
H1521 C1551 0.950 . S
C1522 H1504 0.951 . S
C1522 C1523 1.366 . S
C1522 C1524 1.388 . S
C1523 C1522 1.366 . S
C1523 C1527 1.385 . S
C1524 H1505 0.951 . S
C1524 C1522 1.388 . S
C1524 C1525 1.366 . S
C1525 C1524 1.366 . S
C1525 C1526 1.414 . S
C1525 C1528 1.499 . S
C1526 H1506 0.950 . S
C1526 C1525 1.414 . S
C1526 C1527 1.374 . S
C1527 H1507 0.950 . S
C1527 C1523 1.385 . S
C1527 C1526 1.374 . S
C1528 C1525 1.499 . S
C1528 C1529 1.373 . S
C1528 C1530 1.389 . S
C1529 H1508 0.950 . S
C1529 C1528 1.373 . S
C1529 C1545 1.377 . S
C1530 C1528 1.389 . S
C1530 C1531 1.524 . S
C1530 C1544 1.377 . S
C1531 C1530 1.524 . S
C1531 C1532 1.397 . S
C1531 C1536 1.363 . S
C1532 H1509 0.950 . S
C1532 C1531 1.397 . S
C1532 C1533 1.334 . S
C1533 H1510 0.950 . S
C1533 C1532 1.334 . S
C1533 C1534 1.287 . S
C1534 C1533 1.287 . S
C1534 C1535 1.524 . S
C1534 H1553 0.913 . S
C1535 H1511 0.950 . S
C1535 C1534 1.524 . S
C1535 C1536 1.415 . S
C1536 H1512 0.950 . S
C1536 C1531 1.363 . S
C1536 C1535 1.415 . S
C1537 H1513 0.951 . S
C1537 C1538 1.366 . S
C1537 C1539 1.388 . S
C1538 C1537 1.366 . S
C1538 C1542 1.385 . S
C1539 H1514 0.951 . S
C1539 C1537 1.388 . S
C1539 C1540 1.366 . S
C1540 C1539 1.366 . S
C1540 C1541 1.414 . S
C1540 C1543 1.499 . S
C1541 H1515 0.950 . S
C1541 C1540 1.414 . S
C1541 C1542 1.374 . S
C1542 H1516 0.950 . S
C1542 C1538 1.385 . S
C1542 C1541 1.374 . S
C1543 C1540 1.499 . S
C1543 C1544 1.373 . S
C1543 C1545 1.389 . S
C1544 H1517 0.950 . S
C1544 C1530 1.377 . S
C1544 C1543 1.373 . S
C1545 C1529 1.377 . S
C1545 C1543 1.389 . S
C1545 C1546 1.524 . S
C1546 C1545 1.524 . S
C1546 C1547 1.397 . S
C1546 C1551 1.363 . S
C1547 H1518 0.950 . S
C1547 C1546 1.397 . S
C1547 C1548 1.334 . S
C1548 H1519 0.950 . S
C1548 C1547 1.334 . S
C1548 C1549 1.287 . S
C1549 C1548 1.287 . S
C1549 C1550 1.524 . S
C1549 H1552 0.999 . S
C1550 H1520 0.950 . S
C1550 C1549 1.524 . S
C1550 C1551 1.415 . S
C1551 H1521 0.950 . S
C1551 C1546 1.363 . S
C1551 C1550 1.415 . S
H1552 C1549 0.999 . S
H1553 C1534 0.913 . S
H1554 C1572 0.951 . S
H1555 C1574 0.951 . S
H1556 C1576 0.950 . S
H1557 C1577 0.950 . S
H1558 C1579 0.950 . S
H1559 C1582 0.950 . S
H1560 C1583 0.950 . S
H1561 C1585 0.950 . S
H1562 C1586 0.950 . S
H1563 C1587 0.951 . S
H1564 C1589 0.951 . S
H1565 C1591 0.950 . S
H1566 C1592 0.950 . S
H1567 C1594 0.950 . S
H1568 C1597 0.950 . S
H1569 C1598 0.950 . S
H1570 C1600 0.950 . S
H1571 C1601 0.950 . S
C1572 H1554 0.951 . S
C1572 C1573 1.366 . S
C1572 C1574 1.388 . S
C1573 C1572 1.366 . S
C1573 C1577 1.385 . S
C1574 H1555 0.951 . S
C1574 C1572 1.388 . S
C1574 C1575 1.366 . S
C1575 C1574 1.366 . S
C1575 C1576 1.414 . S
C1575 C1578 1.499 . S
C1576 H1556 0.950 . S
C1576 C1575 1.414 . S
C1576 C1577 1.374 . S
C1577 H1557 0.950 . S
C1577 C1573 1.385 . S
C1577 C1576 1.374 . S
C1578 C1575 1.499 . S
C1578 C1579 1.373 . S
C1578 C1580 1.389 . S
C1579 H1558 0.950 . S
C1579 C1578 1.373 . S
C1579 C1595 1.377 . S
C1580 C1578 1.389 . S
C1580 C1581 1.524 . S
C1580 C1594 1.377 . S
C1581 C1580 1.524 . S
C1581 C1582 1.397 . S
C1581 C1586 1.363 . S
C1582 H1559 0.950 . S
C1582 C1581 1.397 . S
C1582 C1583 1.334 . S
C1583 H1560 0.950 . S
C1583 C1582 1.334 . S
C1583 C1584 1.287 . S
C1584 C1583 1.287 . S
C1584 C1585 1.524 . S
C1584 H1603 0.913 . S
C1585 H1561 0.950 . S
C1585 C1584 1.524 . S
C1585 C1586 1.415 . S
C1586 H1562 0.950 . S
C1586 C1581 1.363 . S
C1586 C1585 1.415 . S
C1587 H1563 0.951 . S
C1587 C1588 1.366 . S
C1587 C1589 1.388 . S
C1588 C1587 1.366 . S
C1588 C1592 1.385 . S
C1589 H1564 0.951 . S
C1589 C1587 1.388 . S
C1589 C1590 1.366 . S
C1590 C1589 1.366 . S
C1590 C1591 1.414 . S
C1590 C1593 1.499 . S
C1591 H1565 0.950 . S
C1591 C1590 1.414 . S
C1591 C1592 1.374 . S
C1592 H1566 0.950 . S
C1592 C1588 1.385 . S
C1592 C1591 1.374 . S
C1593 C1590 1.499 . S
C1593 C1594 1.373 . S
C1593 C1595 1.389 . S
C1594 H1567 0.950 . S
C1594 C1580 1.377 . S
C1594 C1593 1.373 . S
C1595 C1579 1.377 . S
C1595 C1593 1.389 . S
C1595 C1596 1.524 . S
C1596 C1595 1.524 . S
C1596 C1597 1.397 . S
C1596 C1601 1.363 . S
C1597 H1568 0.950 . S
C1597 C1596 1.397 . S
C1597 C1598 1.334 . S
C1598 H1569 0.950 . S
C1598 C1597 1.334 . S
C1598 C1599 1.287 . S
C1599 C1598 1.287 . S
C1599 C1600 1.524 . S
C1599 H1602 0.999 . S
C1600 H1570 0.950 . S
C1600 C1599 1.524 . S
C1600 C1601 1.415 . S
C1601 H1571 0.950 . S
C1601 C1596 1.363 . S
C1601 C1600 1.415 . S
H1602 C1599 0.999 . S
H1603 C1584 0.913 . S
C423 C242 1.363 . S
C438 C336 1.297 . S
C488 C344 1.344 . S
C473 C301 1.374 . S
C538 C348 1.275 . S
C523 C162 1.349 . S
C573 C221 1.361 . S
C588 C324 1.325 . S
C638 C365 1.296 . S
C623 C82 1.348 . S
C688 C399 1.345 . S
C673 C141 1.397 . S
C723 C2 1.332 . S
C738 C387 1.275 . S
C773 C61 1.387 . S
C788 C369 1.325 . S
C838 C323 1.277 . S
C823 C42 1.428 1_554 S
C888 C357 1.277 . S
C873 C21 1.395 . S
C938 C361 1.277 . S
C923 C122 1.429 1_556 S
C988 C339 1.282 . S
C973 C101 1.402 . S
C1038 C378 1.275 . S
C1023 C202 1.404 1_556 S
C1073 C181 1.411 . S
C1088 C386 1.277 . S
C1138 C402 1.277 . S
C1123 C282 1.411 1_554 S
C1173 C261 1.415 . S
C1188 C382 1.281 . S
C1238 C327 1.315 . S
C1223 C15 1.496 . S
C1288 C345 1.320 . S
C1273 C55 1.501 . S
C1323 C95 1.481 . S
C1338 C360 1.310 . S
C1388 C340 1.312 . S
C1373 C135 1.484 . S
C1438 C366 1.317 . S
C1423 C175 1.498 . S
C1473 C215 1.499 . S
C1488 C390 1.319 . S
C1523 C255 1.482 . S
C1538 C403 1.309 . S
C1573 C295 1.482 . S
C1588 C381 1.311 . S
