# Generated by pormake.
# Topology ocu, (6,8)-cn, num edge types: 1
# Building blocks:
#     Node 0, Type 0, BuildingBlock: PAMTOO_clean_sbu_0, # of connection points: 6
#     Node 1, Type 0, BuildingBlock: PAMTOO_clean_sbu_0, # of connection points: 6
#     Node 2, Type 0, BuildingBlock: PAMTOO_clean_sbu_0, # of connection points: 6
#     Node 3, Type 0, BuildingBlock: PAMTOO_clean_sbu_0, # of connection points: 6
#     Node 4, Type 0, BuildingBlock: PAMTOO_clean_sbu_0, # of connection points: 6
#     Node 5, Type 0, BuildingBlock: PAMTOO_clean_sbu_0, # of connection points: 6
#     Node 6, Type 0, BuildingBlock: PAMTOO_clean_sbu_0, # of connection points: 6
#     Node 7, Type 0, BuildingBlock: PAMTOO_clean_sbu_0, # of connection points: 6
#     Node 8, Type 1, BuildingBlock: GIZVER_clean_sbu_0, # of connection points: 8
#     Node 9, Type 1, BuildingBlock: GIZVER_clean_sbu_0, # of connection points: 8
#     Node 10, Type 1, BuildingBlock: GIZVER_clean_sbu_0, # of connection points: 8
#     Node 11, Type 1, BuildingBlock: GIZVER_clean_sbu_0, # of connection points: 8
#     Node 12, Type 1, BuildingBlock: GIZVER_clean_sbu_0, # of connection points: 8
#     Node 13, Type 1, BuildingBlock: GIZVER_clean_sbu_0, # of connection points: 8
#     Edge 14, Type (0, 1), BuildingBlock: CIFDUS_clean_linker_0, # of connection points: 2
#     Edge 15, Type (0, 1), BuildingBlock: CIFDUS_clean_linker_0, # of connection points: 2
#     Edge 16, Type (0, 1), BuildingBlock: CIFDUS_clean_linker_0, # of connection points: 2
#     Edge 17, Type (0, 1), BuildingBlock: CIFDUS_clean_linker_0, # of connection points: 2
#     Edge 18, Type (0, 1), BuildingBlock: CIFDUS_clean_linker_0, # of connection points: 2
#     Edge 19, Type (0, 1), BuildingBlock: CIFDUS_clean_linker_0, # of connection points: 2
#     Edge 20, Type (0, 1), BuildingBlock: CIFDUS_clean_linker_0, # of connection points: 2
#     Edge 21, Type (0, 1), BuildingBlock: CIFDUS_clean_linker_0, # of connection points: 2
#     Edge 22, Type (0, 1), BuildingBlock: CIFDUS_clean_linker_0, # of connection points: 2
#     Edge 23, Type (0, 1), BuildingBlock: CIFDUS_clean_linker_0, # of connection points: 2
#     Edge 24, Type (0, 1), BuildingBlock: CIFDUS_clean_linker_0, # of connection points: 2
#     Edge 25, Type (0, 1), BuildingBlock: CIFDUS_clean_linker_0, # of connection points: 2
#     Edge 26, Type (0, 1), BuildingBlock: CIFDUS_clean_linker_0, # of connection points: 2
#     Edge 27, Type (0, 1), BuildingBlock: CIFDUS_clean_linker_0, # of connection points: 2
#     Edge 28, Type (0, 1), BuildingBlock: CIFDUS_clean_linker_0, # of connection points: 2
#     Edge 29, Type (0, 1), BuildingBlock: CIFDUS_clean_linker_0, # of connection points: 2
#     Edge 30, Type (0, 1), BuildingBlock: CIFDUS_clean_linker_0, # of connection points: 2
#     Edge 31, Type (0, 1), BuildingBlock: CIFDUS_clean_linker_0, # of connection points: 2
#     Edge 32, Type (0, 1), BuildingBlock: CIFDUS_clean_linker_0, # of connection points: 2
#     Edge 33, Type (0, 1), BuildingBlock: CIFDUS_clean_linker_0, # of connection points: 2
#     Edge 34, Type (0, 1), BuildingBlock: CIFDUS_clean_linker_0, # of connection points: 2
#     Edge 35, Type (0, 1), BuildingBlock: CIFDUS_clean_linker_0, # of connection points: 2
#     Edge 36, Type (0, 1), BuildingBlock: CIFDUS_clean_linker_0, # of connection points: 2
#     Edge 37, Type (0, 1), BuildingBlock: CIFDUS_clean_linker_0, # of connection points: 2
#     Edge 38, Type (0, 1), BuildingBlock: CIFDUS_clean_linker_0, # of connection points: 2
#     Edge 39, Type (0, 1), BuildingBlock: CIFDUS_clean_linker_0, # of connection points: 2
#     Edge 40, Type (0, 1), BuildingBlock: CIFDUS_clean_linker_0, # of connection points: 2
#     Edge 41, Type (0, 1), BuildingBlock: CIFDUS_clean_linker_0, # of connection points: 2
#     Edge 42, Type (0, 1), BuildingBlock: CIFDUS_clean_linker_0, # of connection points: 2
#     Edge 43, Type (0, 1), BuildingBlock: CIFDUS_clean_linker_0, # of connection points: 2
#     Edge 44, Type (0, 1), BuildingBlock: CIFDUS_clean_linker_0, # of connection points: 2
#     Edge 45, Type (0, 1), BuildingBlock: CIFDUS_clean_linker_0, # of connection points: 2
#     Edge 46, Type (0, 1), BuildingBlock: CIFDUS_clean_linker_0, # of connection points: 2
#     Edge 47, Type (0, 1), BuildingBlock: CIFDUS_clean_linker_0, # of connection points: 2
#     Edge 48, Type (0, 1), BuildingBlock: CIFDUS_clean_linker_0, # of connection points: 2
#     Edge 49, Type (0, 1), BuildingBlock: CIFDUS_clean_linker_0, # of connection points: 2
#     Edge 50, Type (0, 1), BuildingBlock: CIFDUS_clean_linker_0, # of connection points: 2
#     Edge 51, Type (0, 1), BuildingBlock: CIFDUS_clean_linker_0, # of connection points: 2
#     Edge 52, Type (0, 1), BuildingBlock: CIFDUS_clean_linker_0, # of connection points: 2
#     Edge 53, Type (0, 1), BuildingBlock: CIFDUS_clean_linker_0, # of connection points: 2
#     Edge 54, Type (0, 1), BuildingBlock: CIFDUS_clean_linker_0, # of connection points: 2
#     Edge 55, Type (0, 1), BuildingBlock: CIFDUS_clean_linker_0, # of connection points: 2
#     Edge 56, Type (0, 1), BuildingBlock: CIFDUS_clean_linker_0, # of connection points: 2
#     Edge 57, Type (0, 1), BuildingBlock: CIFDUS_clean_linker_0, # of connection points: 2
#     Edge 58, Type (0, 1), BuildingBlock: CIFDUS_clean_linker_0, # of connection points: 2
#     Edge 59, Type (0, 1), BuildingBlock: CIFDUS_clean_linker_0, # of connection points: 2
#     Edge 60, Type (0, 1), BuildingBlock: CIFDUS_clean_linker_0, # of connection points: 2
#     Edge 61, Type (0, 1), BuildingBlock: CIFDUS_clean_linker_0, # of connection points: 2
# Relax obj value: 0.307
# Max RMSD: 0.319
# Mean RMSD: 0.196
data_MOF--net-ocu--node1-PAMTOO_clean_sbu_0--node2-GIZVER_clean_sbu_0--edge1-CIFDUS_clean_linker_0
_symmetry_space_group_name_H-M    P1
_symmetry_Int_Tables_number       1
_symmetry_cell_setting            triclinic
loop_
_symmetry_equiv_pos_as_xyz
'x, y, z'
_cell_length_a     36.615639
_cell_length_b     39.294947
_cell_length_c     28.738447
_cell_angle_alpha  90.7953
_cell_angle_beta   94.517326
_cell_angle_gamma 106.76705
loop_
_atom_site_label
_atom_site_type_symbol
_atom_site_fract_x
_atom_site_fract_y
_atom_site_fract_z
_atom_type_partial_charge
Dy0 Dy 0.37655 0.34219 0.36078 0.0
Dy1 Dy 0.31525 0.32655 0.27028 0.0
C2 C 0.38385 0.2867 0.27486 0.0
O3 O 0.40336 0.38599 0.31458 0.0
O4 O 0.3593 0.37682 0.25089 0.0
O5 O 0.43443 0.35251 0.39254 0.0
O6 O 0.38808 0.35005 0.43555 0.0
O7 O 0.29277 0.36161 0.32034 0.0
O8 O 0.34601 0.38418 0.37107 0.0
O9 O 0.29135 0.27948 0.31402 0.0
O10 O 0.32409 0.3024 0.38391 0.0
O11 O 0.25778 0.3195 0.2389 0.0
O12 O 0.30201 0.31456 0.19632 0.0
C13 C 0.39228 0.39475 0.273 0.0
O14 O 0.39485 0.30092 0.31777 0.0
O15 O 0.35408 0.29283 0.25117 0.0
C16 C 0.44013 0.33121 0.46846 0.0
C17 C 0.47103 0.28808 0.52768 0.0
C18 C 0.43255 0.28753 0.52877 0.0
C19 C 0.41719 0.30885 0.49934 0.0
C20 C 0.47904 0.33325 0.46934 0.0
C21 C 0.49432 0.3118 0.49846 0.0
C22 C 0.4242 0.35236 0.43494 0.0
C23 C 0.31069 0.38344 0.35624 0.0
C24 C 0.29583 0.27888 0.35976 0.0
C25 C 0.25777 0.34173 0.16399 0.0
C26 C 0.23444 0.39176 0.10988 0.0
C27 C 0.26713 0.40257 0.14175 0.0
C28 C 0.27861 0.37776 0.16863 0.0
C29 C 0.22677 0.33033 0.13006 0.0
C30 C 0.21519 0.35525 0.10294 0.0
C31 C 0.26732 0.31682 0.1966 0.0
H32 H 0.41408 0.26991 0.55145 0.0
H33 H 0.38719 0.30715 0.50008 0.0
H34 H 0.49743 0.35067 0.44637 0.0
H35 H 0.52394 0.31259 0.49631 0.0
H36 H 0.28226 0.43047 0.14854 0.0
H37 H 0.30267 0.38695 0.19467 0.0
H38 H 0.21067 0.30246 0.12587 0.0
H39 H 0.19013 0.34622 0.07826 0.0
Dy40 Dy 0.83732 0.32729 0.2865 0.0
Dy41 Dy 0.79614 0.33555 0.37792 0.0
C42 C 0.87876 0.38583 0.36784 0.0
O43 O 0.86562 0.29738 0.33793 0.0
O44 O 0.82862 0.29497 0.3998 0.0
O45 O 0.88606 0.33193 0.24698 0.0
O46 O 0.82875 0.3077 0.21463 0.0
O47 O 0.75158 0.30203 0.32422 0.0
O48 O 0.7922 0.27617 0.29382 0.0
O49 O 0.78745 0.37986 0.33222 0.0
O50 O 0.79563 0.35839 0.26123 0.0
O51 O 0.75606 0.31607 0.42954 0.0
O52 O 0.78578 0.37246 0.42778 0.0
C53 C 0.8564 0.286 0.37974 0.0
O54 O 0.87224 0.38003 0.32215 0.0
O55 O 0.8572 0.36453 0.39577 0.0
C56 C 0.8715 0.35018 0.17325 0.0
C57 C 0.90056 0.42278 0.16222 0.0
C58 C 0.86116 0.40797 0.16474 0.0
C59 C 0.84647 0.37148 0.16922 0.0
C60 C 0.90888 0.36383 0.16056 0.0
C61 C 0.92338 0.40021 0.15471 0.0
C62 C 0.86455 0.32252 0.20776 0.0
C63 C 0.75715 0.27639 0.29857 0.0
C64 C 0.78307 0.38039 0.28627 0.0
C65 C 0.76759 0.34966 0.50052 0.0
C66 C 0.76893 0.32238 0.58864 0.0
C67 C 0.73653 0.33215 0.57104 0.0
C68 C 0.73527 0.34407 0.5256 0.0
C69 C 0.80298 0.3511 0.52445 0.0
C70 C 0.80391 0.33962 0.57037 0.0
C71 C 0.76225 0.34765 0.4494 0.0
H72 H 0.8426 0.42464 0.16903 0.0
H73 H 0.81689 0.36115 0.17677 0.0
H74 H 0.92841 0.34766 0.16235 0.0
H75 H 0.95356 0.41108 0.15005 0.0
H76 H 0.70961 0.32266 0.58662 0.0
H77 H 0.70806 0.34472 0.50841 0.0
H78 H 0.82878 0.35701 0.50626 0.0
H79 H 0.83025 0.33544 0.58554 0.0
Dy80 Dy 0.81496 0.83487 0.32978 0.0
Dy81 Dy 0.84778 0.867 0.23498 0.0
C82 C 0.90165 0.88707 0.32965 0.0
O83 O 0.78533 0.8749 0.30808 0.0
O84 O 0.83799 0.91056 0.27914 0.0
O85 O 0.80222 0.8435 0.39984 0.0
O86 O 0.78732 0.78996 0.3696 0.0
O87 O 0.78525 0.84031 0.21448 0.0
O88 O 0.77511 0.80054 0.27271 0.0
O89 O 0.84957 0.81042 0.23654 0.0
O90 O 0.85998 0.80951 0.31548 0.0
O91 O 0.88049 0.86607 0.17614 0.0
O92 O 0.85466 0.90832 0.18511 0.0
C93 C 0.80586 0.90668 0.2983 0.0
O94 O 0.87097 0.87613 0.35286 0.0
O95 O 0.90008 0.8804 0.28459 0.0
C96 C 0.81296 0.79813 0.44715 0.0
C97 C 0.85997 0.76738 0.50432 0.0
C98 C 0.87356 0.80302 0.49172 0.0
C99 C 0.8505 0.81805 0.46269 0.0
C100 C 0.79801 0.76404 0.46349 0.0
C101 C 0.8213 0.74863 0.49132 0.0
C102 C 0.79194 0.80959 0.4078 0.0
C103 C 0.76498 0.81044 0.23131 0.0
C104 C 0.86206 0.79688 0.27383 0.0
C105 C 0.85233 0.88578 0.11006 0.0
C106 C 0.80018 0.89364 0.03898 0.0
C107 C 0.79011 0.86427 0.06744 0.0
C108 C 0.816 0.86088 0.10384 0.0
C109 C 0.8651 0.90951 0.07493 0.0
C110 C 0.83911 0.91264 0.03818 0.0
C111 C 0.87152 0.89264 0.15697 0.0
H112 H 0.90254 0.81892 0.50233 0.0
H113 H 0.86272 0.84461 0.4507 0.0
H114 H 0.76921 0.7482 0.45161 0.0
H115 H 0.80943 0.72103 0.49929 0.0
H116 H 0.76054 0.84833 0.06766 0.0
H117 H 0.80624 0.84147 0.1299 0.0
H118 H 0.89338 0.92846 0.07891 0.0
H119 H 0.84757 0.9348 1.01542 0.0
Dy120 Dy 0.32411 0.85804 0.33119 0.0
Dy121 Dy 0.36514 0.80065 0.30795 0.0
C122 C 0.40323 0.86162 0.38357 0.0
O123 O 0.37369 0.88718 0.28861 0.0
O124 O 0.38037 0.83873 0.25 0.0
O125 O 0.30724 0.90454 0.31168 0.0
O126 O 0.29935 0.88404 0.38117 0.0
O127 O 0.30583 0.77924 0.27105 0.0
O128 O 0.28748 0.83013 0.26907 0.0
O129 O 0.33314 0.78279 0.37112 0.0
O130 O 0.28426 0.80669 0.35738 0.0
O131 O 0.38648 0.75853 0.336 0.0
O132 O 0.3912 0.77162 0.26341 0.0
C133 C 0.38717 0.87347 0.25387 0.0
O134 O 0.36769 0.859 0.39012 0.0
O135 O 0.41074 0.84541 0.34694 0.0
C136 C 0.32228 0.9458 0.3748 0.0
C137 C 0.35678 1.01052 0.4248 0.0
C138 C 0.37361 0.9826 0.42837 0.0
C139 C 0.3564 0.95039 0.40352 0.0
C140 C 0.30819 0.9747 0.3667 0.0
C141 C 0.32538 1.00687 0.39109 0.0
C142 C 0.30064 0.91082 0.35436 0.0
C143 C 0.2816 0.79669 0.25655 0.0
C144 C 0.29729 0.7813 0.37554 0.0
C145 C 0.37228 0.71169 0.27965 0.0
C146 C 0.33805 0.65408 0.21745 0.0
C147 C 0.3157 0.67404 0.23499 0.0
C148 C 0.33273 0.70251 0.26663 0.0
C149 C 0.39299 0.68851 0.26815 0.0
C150 C 0.37569 0.6593 0.23789 0.0
C151 C 0.39277 0.74837 0.29486 0.0
H152 H 0.39807 0.9846 0.45318 0.0
H153 H 0.36848 0.92849 0.40886 0.0
H154 H 0.2825 0.97181 0.34364 0.0
H155 H 0.31125 1.02743 0.38669 0.0
H156 H 0.28669 0.67049 0.21997 0.0
H157 H 0.31605 0.7196 0.2766 0.0
H158 H 0.42341 0.695 0.27836 0.0
H159 H 0.39372 0.64432 0.22508 0.0
Dy160 Dy 0.35733 0.82705 0.71665 0.0
Dy161 Dy 0.33367 0.83801 0.81964 0.0
C162 C 0.40389 0.89168 0.78028 0.0
O163 O 0.38168 0.78856 0.76078 0.0
O164 O 0.37822 0.80856 0.83506 0.0
O165 O 0.35628 0.78893 0.66144 0.0
O166 O 0.3779 0.8455 0.65054 0.0
O167 O 0.30124 0.78193 0.79639 0.0
O168 O 0.29646 0.79812 0.72174 0.0
O169 O 0.29465 0.86239 0.77437 0.0
O170 O 0.32407 0.86849 0.70595 0.0
O171 O 0.29413 0.83841 0.87088 0.0
O172 O 0.35557 0.85986 0.88885 0.0
C173 C 0.3898 0.78787 0.8067 0.0
O174 O 0.40844 0.86591 0.7542 0.0
O175 O 0.37054 0.88872 0.79539 0.0
C176 C 0.40476 0.80785 0.60996 0.0
C177 C 0.4761 0.81605 0.57514 0.0
C178 C 0.46631 0.79602 0.61498 0.0
C179 C 0.43109 0.79258 0.63288 0.0
C180 C 0.41187 0.8225 0.56637 0.0
C181 C 0.44721 0.82646 0.54891 0.0
C182 C 0.37266 0.81335 0.6333 0.0
C183 C 0.28634 0.77451 0.75322 0.0
C184 C 0.29877 0.8757 0.73229 0.0
C185 C 0.31758 0.83028 0.94614 0.0
C186 C 0.28402 0.78141 1.01106 0.0
C187 C 0.30682 0.77215 0.97877 0.0
C188 C 0.3231 0.79642 0.94585 0.0
C189 C 0.30092 0.84154 0.98312 0.0
C190 C 0.28441 0.81732 1.01573 0.0
C191 C 0.32158 0.85076 0.9041 0.0
H192 H 0.48739 0.78653 0.63518 0.0
H193 H 0.42575 0.7805 0.66629 0.0
H194 H 0.39149 0.83385 0.54786 0.0
H195 H 0.45316 0.84162 0.51785 0.0
H196 H 0.30815 0.74506 0.9753 0.0
H197 H 0.33658 0.78763 0.91762 0.0
H198 H 0.29697 0.86784 0.98394 0.0
H199 H 0.2676 0.82585 0.0403 0.0
Dy200 Dy 0.36601 0.32235 0.75789 0.0
Dy201 Dy 0.31697 0.3159 0.84681 0.0
C202 C 0.28469 0.26711 0.7571 0.0
O203 O 0.33493 0.36373 0.74266 0.0
O204 O 0.28961 0.34653 0.79599 0.0
O205 O 0.37171 0.30382 0.6885 0.0
O206 O 0.42043 0.34034 0.72735 0.0
O207 O 0.35572 0.37157 0.85223 0.0
O208 O 0.40311 0.35876 0.81509 0.0
O209 O 0.36673 0.29635 0.87066 0.0
O210 O 0.37326 0.27568 0.79881 0.0
O211 O 0.31312 0.32356 0.92057 0.0
O212 O 0.26352 0.29317 0.87647 0.0
C213 C 0.30254 0.36486 0.75938 0.0
O214 O 0.30583 0.29241 0.73353 0.0
O215 O 0.29312 0.26583 0.80212 0.0
C216 C 0.4303 0.29034 0.69001 0.0
C217 C 0.47341 0.24097 0.69519 0.0
C218 C 0.4357 0.2316 0.70823 0.0
C219 C 0.41447 0.25587 0.70558 0.0
C220 C 0.46775 0.2999 0.67646 0.0
C221 C 0.48915 0.27546 0.67908 0.0
C222 C 0.40885 0.31679 0.69287 0.0
C223 C 0.39188 0.37888 0.84435 0.0
C224 C 0.38031 0.27627 0.84447 0.0
C225 C 0.25313 0.33033 0.93581 0.0
C226 C 0.21273 0.37841 0.95736 0.0
C227 C 0.25013 0.38339 0.97767 0.0
C228 C 0.27019 0.35946 0.96704 0.0
C229 C 0.21467 0.32384 0.91874 0.0
C230 C 0.19475 0.3478 0.92912 0.0
C231 C 0.27615 0.30899 0.91723 0.0
H232 H 0.42275 0.20577 0.72188 0.0
H233 H 0.38581 0.2478 0.71691 0.0
H234 H 0.4807 0.32642 0.66478 0.0
H235 H 0.51805 0.2837 0.66862 0.0
H236 H 0.26425 0.40634 1.00053 0.0
H237 H 0.29957 0.3647 0.98159 0.0
H238 H 0.20051 0.30125 0.89528 0.0
H239 H 0.16594 0.34328 0.91292 0.0
Dy240 Dy 0.81684 0.34212 0.77739 0.0
Dy241 Dy 0.86957 0.29884 0.82975 0.0
C242 C 0.86435 0.37152 0.87606 0.0
O243 O 0.87271 0.35629 0.74412 0.0
O244 O 0.91022 0.35025 0.80845 0.0
O245 O 0.80846 0.37636 0.72165 0.0
O246 O 0.76608 0.35974 0.77122 0.0
O247 O 0.85626 0.27572 0.75593 0.0
O248 O 0.80026 0.28956 0.7382 0.0
O249 O 0.80903 0.26535 0.83636 0.0
O250 O 0.78139 0.3103 0.8316 0.0
O251 O 0.88079 0.26922 0.88921 0.0
O252 O 0.91801 0.2778 0.8328 0.0
C253 C 0.90618 0.36515 0.76838 0.0
O254 O 0.85123 0.3797 0.83518 0.0
O255 O 0.86603 0.3391 0.8837 0.0
C256 C 0.78266 0.41927 0.75274 0.0
C257 C 0.78267 0.47962 0.80602 0.0
C258 C 0.81645 0.46979 0.80455 0.0
C259 C 0.81653 0.43992 0.7778 0.0
C260 C 0.75003 0.43114 0.75039 0.0
C261 C 0.75012 0.46138 0.77664 0.0
C262 C 0.77905 0.3822 0.73932 0.0
C263 C 0.82367 0.27075 0.73025 0.0
C264 C 0.78026 0.27778 0.84363 0.0
C265 C 0.90019 0.22104 0.86236 0.0
C266 C 0.89101 0.15522 0.81696 0.0
C267 C 0.92655 0.17398 0.84032 0.0
C268 C 0.93117 0.20693 0.86263 0.0
C269 C 0.86356 0.19999 0.84491 0.0
C270 C 0.85897 0.16718 0.82245 0.0
C271 C 0.90724 0.25948 0.86945 0.0
H272 H 0.84182 0.48352 0.82691 0.0
H273 H 0.84212 0.43127 0.77999 0.0
H274 H 0.7236 0.41538 0.73162 0.0
H275 H 0.72359 0.46828 0.77761 0.0
H276 H 0.95183 0.1655 0.83633 0.0
H277 H 0.95961 0.22285 0.8758 0.0
H278 H 0.83918 0.21038 0.84432 0.0
H279 H 0.83134 0.15319 0.80477 0.0
Dy280 Dy 0.87146 0.83282 0.8491 0.0
Dy281 Dy 0.81915 0.81381 0.75332 0.0
C282 C 0.89261 0.7791 0.76958 0.0
O283 O 0.90644 0.86837 0.79902 0.0
O284 O 0.86422 0.86281 0.73436 0.0
O285 O 0.90475 0.81948 0.90728 0.0
O286 O 0.90118 0.87338 0.90148 0.0
O287 O 0.7871 0.8458 0.79555 0.0
O288 O 0.83033 0.867 0.85838 0.0
O289 O 0.7886 0.77187 0.79874 0.0
O290 O 0.82159 0.7886 0.87025 0.0
O291 O 0.7798 0.82485 0.70014 0.0
O292 O 0.79508 0.77575 0.69604 0.0
C293 C 0.89755 0.87813 0.75719 0.0
O294 O 0.9001 0.79554 0.8117 0.0
O295 O 0.86364 0.78336 0.7418 0.0
C296 C 0.89721 0.8485 0.97498 0.0
C297 C 0.87186 0.82169 0.06045 0.0
C298 C 0.8453 0.82174 1.0222 0.0
C299 C 0.85792 0.83507 0.97982 0.0
C300 C 0.92332 0.85359 1.01419 0.0
C301 C 0.91076 0.84084 0.05686 0.0
C302 C 0.91074 0.85043 0.92846 0.0
C303 C 0.7976 0.86632 0.83462 0.0
C304 C 0.79291 0.76757 0.84366 0.0
C305 C 0.78873 0.80504 0.62688 0.0
C306 C 0.80825 0.84604 0.54891 0.0
C307 C 0.83705 0.83876 0.57898 0.0
C308 C 0.82732 0.81865 0.61815 0.0
C309 C 0.76004 0.80721 0.59326 0.0
C310 C 0.76964 0.8275 0.55441 0.0
C311 C 0.77869 0.79699 0.67434 0.0
H312 H 0.81504 0.8088 1.02357 0.0
H313 H 0.83724 0.83185 0.94977 0.0
H314 H 0.95374 0.8645 1.01099 0.0
H315 H 0.93266 0.84269 0.08507 0.0
H316 H 0.86703 0.85143 0.57494 0.0
H317 H 0.8499 0.8168 0.64385 0.0
H318 H 0.73013 0.79666 0.59957 0.0
H319 H 0.74623 0.83194 0.53241 0.0
Co320 Co 0.15464 1.04481 0.53369 0.0
Co321 Co 0.12677 1.0286 0.60754 0.0
Co322 Co 0.0824 0.08322 0.54843 0.0
O323 O 0.12857 0.06759 0.57277 0.0
H324 H 0.14683 0.08758 0.5896 0.0
O325 O 1.03649 0.09987 0.52468 0.0
Co326 Co 1.02106 0.13218 0.56404 0.0
Co327 Co 1.04088 0.13848 0.48792 0.0
H328 H 1.01516 0.08004 0.51275 0.0
O329 O 0.16543 1.02353 0.65331 0.0
O330 O 0.15718 1.00442 0.57824 0.0
O331 O 0.07442 1.00683 0.61735 0.0
O332 O 1.04617 1.04782 0.58966 0.0
O333 O 0.09743 0.11968 0.601 0.0
O334 O 1.00241 0.1564 0.60324 0.0
O335 O 0.97176 0.10648 0.55966 0.0
O336 O 1.07296 0.16215 0.57545 0.0
O337 O 0.11925 0.11787 0.5069 0.0
O338 O 0.0941 0.16014 0.47756 0.0
O339 O 1.01068 0.16575 0.51227 0.0
O340 O 1.00311 0.13967 0.4406 0.0
C341 C 0.21033 0.05521 0.52248 0.0
C342 C 0.07525 1.0177 0.48953 0.0
C343 C 1.04557 1.01893 0.61155 0.0
C344 C 0.1738 1.00454 0.62061 0.0
C345 C 0.9719 0.12999 0.59197 0.0
C346 C 0.0992 0.15241 0.59851 0.0
C347 C 0.12206 0.14696 0.48464 0.0
C348 C 0.99437 0.16156 0.46912 0.0
O349 O 0.18479 1.03009 0.49753 0.0
O350 O 0.20063 0.0719 0.55637 0.0
O351 O 1.06638 1.04623 0.49675 0.0
O352 O 0.10722 1.01354 0.50514 0.0
Co353 Co 0.63119 1.0204 0.97794 0.0
Co354 Co 0.59227 1.00287 0.04878 0.0
Co355 Co 0.57794 0.0781 0.04158 0.0
O356 O 0.61925 1.04998 0.0355 0.0
H357 H 0.6413 0.05911 0.05771 0.0
O358 O 0.53533 0.10372 0.04734 0.0
Co359 Co 0.53392 0.14598 0.08834 0.0
Co360 Co 0.53862 0.13769 1.00362 0.0
H361 H 0.51023 0.08664 0.04339 0.0
O362 O 0.61963 0.97929 0.08481 0.0
O363 O 0.60623 0.97562 1.00645 0.0
O364 O 0.53869 0.98972 0.05906 0.0
O365 O 0.54624 1.04364 0.08905 0.0
O366 O 0.60939 0.11014 0.09556 0.0
O367 O 0.53016 0.18316 0.12755 0.0
O368 O 0.48091 0.13903 0.09702 0.0
O369 O 0.58899 0.15951 0.08894 0.0
O370 O 0.61129 0.11263 0.99689 0.0
O371 O 0.58471 0.15446 0.97392 0.0
O372 O 0.52627 0.17488 0.031 0.0
O373 O 0.4956 0.13679 0.9699 0.0
C374 C 0.67608 0.99487 0.95277 0.0
C375 C 0.55221 1.02985 0.95313 0.0
C376 C 0.52869 1.00982 0.08701 0.0
C377 C 0.62119 0.96511 0.04413 0.0
C378 C 0.4933 0.16848 0.1235 0.0
C379 C 0.61206 0.14292 0.10681 0.0
C380 C 0.61223 0.14107 0.97449 0.0
C381 C 0.50089 0.16636 0.99404 0.0
O382 O 0.64394 0.99324 0.92875 0.0
O383 O 0.68176 1.01352 0.99274 0.0
O384 O 0.54585 1.04883 0.98664 0.0
O385 O 0.58303 1.02112 0.95163 0.0
Co386 Co 1.05927 0.53759 1.02618 0.0
Co387 Co 0.10136 0.57947 0.0965 0.0
Co388 Co 1.03976 0.61219 0.05853 0.0
O389 O 0.07664 0.58802 0.03941 0.0
H390 H 0.09441 0.60146 1.01855 0.0
O391 O 1.00156 0.63457 0.07815 0.0
Co392 Co 1.00289 0.65593 0.13926 0.0
Co393 Co 1.00746 0.67856 0.05478 0.0
H394 H 0.97596 0.61969 0.06871 0.0
O395 O 0.14589 0.56622 0.0978 0.0
O396 O 0.08517 0.53063 0.08717 0.0
O397 O 0.08294 0.58979 0.15576 0.0
O398 O 1.02785 0.58371 0.11475 0.0
O399 O 0.08396 0.64615 0.0955 0.0
O400 O 0.99777 0.67436 0.19435 0.0
O401 O 0.95165 0.64393 0.14031 0.0
O402 O 1.05744 0.67211 0.1469 0.0
O403 O 1.05142 0.64302 1.00317 0.0
O404 O 1.05494 0.69739 1.02831 0.0
O405 O 1.00372 0.70104 0.10942 0.0
O406 O 0.96523 0.69362 0.04208 0.0
C407 C 0.08035 0.50208 0.99435 0.0
C408 C 0.98913 0.54357 1.02756 0.0
C409 C 1.04716 0.58528 0.15399 0.0
C410 C 0.12177 0.53459 0.09324 0.0
C411 C 0.96159 0.66184 0.18013 0.0
C412 C 0.08677 0.66767 0.12984 0.0
C413 C 1.06915 0.67627 1.00714 0.0
C414 C 0.97405 0.70555 0.08522 0.0
O415 O 1.04735 0.49188 1.01161 0.0
O416 O 0.09996 0.53566 0.99692 0.0
O417 O 0.99687 0.57667 1.01992 0.0
O418 O 1.01317 0.53312 0.05334 0.0
Co419 Co 0.6433 0.52794 0.04367 0.0
Co420 Co 0.62564 0.53336 0.12366 0.0
Co421 Co 0.58463 0.58185 0.04754 0.0
O422 O 0.62937 0.56502 0.076 0.0
H423 H 0.65148 0.58529 0.08368 0.0
O424 O 0.54115 0.59896 1.01702 0.0
Co425 Co 0.5186 0.63062 0.04635 0.0
Co426 Co 0.54654 0.63248 0.97073 0.0
H427 H 0.52121 0.57816 1.00468 0.0
O428 O 0.66609 0.53077 0.16837 0.0
O429 O 0.64718 0.49818 0.10144 0.0
O430 O 0.57327 0.51748 0.13754 0.0
O431 O 0.54504 0.54909 0.08861 0.0
O432 O 0.59875 0.62072 0.09744 0.0
O433 O 0.49052 0.6539 0.07435 0.0
O434 O 0.47163 0.60531 1.0255 0.0
O435 O 0.56829 0.66039 0.07415 0.0
O436 O 0.62432 0.61444 1.00794 0.0
O437 O 0.59976 0.65069 0.9626 0.0
O438 O 0.5215 0.66517 0.9919 0.0
O439 O 0.50894 0.63654 0.922 0.0
C440 C 0.69255 0.52328 1.02143 0.0
C441 C 0.56731 0.5103 1.00302 0.0
C442 C 0.54387 0.52605 0.12105 0.0
C443 C 0.66793 0.50431 0.14191 0.0
C444 C 0.46347 0.62735 0.05394 0.0
C445 C 0.59566 0.65235 0.09776 0.0
C446 C 0.62773 0.64 0.9791 0.0
C447 C 0.50419 0.66128 0.94931 0.0
O448 O 0.66063 0.49829 1.01147 0.0
O449 O 0.6939 0.55006 0.04939 0.0
O450 O 0.56993 0.54304 0.99744 0.0
O451 O 0.59113 0.50102 0.03099 0.0
Co452 Co 0.17066 0.52412 0.58156 0.0
Co453 Co 0.15079 0.5352 0.50148 0.0
Co454 Co 0.09921 0.57058 0.57198 0.0
O455 O 0.12084 0.52885 0.55257 0.0
H456 H 0.10108 0.50631 0.54976 0.0
O457 O 0.078 0.61184 0.59358 0.0
Co458 Co 1.02979 0.61675 0.56459 0.0
Co459 Co 1.05078 0.6092 0.64849 0.0
H460 H 0.09791 0.63426 0.59446 0.0
O461 O 0.14692 0.49752 0.45927 0.0
O462 O 0.19325 0.51738 0.51765 0.0
O463 O 0.16626 0.58403 0.48272 0.0
O464 O 0.1316 0.60776 0.52767 0.0
O465 O 1.05545 0.55358 0.52188 0.0
O466 O 0.98903 0.62438 0.53598 0.0
O467 O 1.04412 0.66489 0.56361 0.0
O468 O 1.0092 0.56578 0.55917 0.0
O469 O 1.06661 0.535 0.61599 0.0
O470 O 1.03817 0.56009 0.66872 0.0
O471 O 1.00465 0.62088 0.62736 0.0
O472 O 1.04594 0.65016 0.68534 0.0
C473 C 0.1935 0.48426 0.6082 0.0
C474 C 0.17782 0.5937 0.61298 0.0
C475 C 0.15642 0.61076 0.49675 0.0
C476 C 0.17952 0.49643 0.47974 0.0
C477 C 1.00917 0.65733 0.54398 0.0
C478 C 1.02006 0.54695 0.52939 0.0
C479 C 1.04532 0.53301 0.65053 0.0
C480 C 1.01324 0.64582 0.66145 0.0
O481 O 0.21324 0.51754 0.61049 0.0
O482 O 0.15844 0.47529 0.58799 0.0
O483 O 0.1426 0.5863 0.62124 0.0
O484 O 0.18972 0.57511 0.5838 0.0
Co485 Co 0.71678 1.03997 0.50272 0.0
Co486 Co 0.67964 0.06877 0.44406 0.0
Co487 Co 0.64088 0.06066 0.54137 0.0
O488 O 0.66493 1.0404 0.49406 0.0
H489 H 0.64815 1.01762 0.48233 0.0
O490 O 0.61714 0.08244 0.58801 0.0
Co491 Co 0.56523 0.08098 0.57491 0.0
Co492 Co 0.60456 0.06007 0.64234 0.0
H493 H 0.63266 0.10641 0.59652 0.0
O494 O 0.67388 1.04773 0.38628 0.0
O495 O 0.7255 0.05966 0.43933 0.0
O496 O 0.69016 0.11761 0.45577 0.0
O497 O 0.65825 0.11107 0.51953 0.0
O498 O 0.59302 1.04751 0.49756 0.0
O499 O 0.51812 0.08498 0.56445 0.0
O500 O 0.57219 0.12581 0.59414 0.0
O501 O 0.55187 1.03352 0.55082 0.0
O502 O 0.62456 1.01125 0.56653 0.0
O503 O 0.60784 1.01225 0.64019 0.0
O504 O 0.55481 0.06289 0.63763 0.0
O505 O 0.60033 0.08714 0.69529 0.0
C506 C 0.74377 1.00353 0.48702 0.0
C507 C 0.71964 0.09271 0.5737 0.0
C508 C 0.67949 0.1305 0.49105 0.0
C509 C 0.70752 1.04466 0.39963 0.0
C510 C 0.53608 0.11746 0.5792 0.0
C511 C 0.56219 1.02715 0.51125 0.0
C512 C 0.61491 0.99603 0.60477 0.0
C513 C 0.56591 0.08253 0.6758 0.0
O514 O 0.76357 1.03381 0.50746 0.0
O515 O 0.7071 0.99695 0.47716 0.0
O516 O 0.68824 0.07147 0.58415 0.0
O517 O 0.73307 0.08759 0.53509 0.0
H518 H 0.27322 0.2065 0.37734 0.0
H519 H 0.24551 0.30444 0.40057 0.0
H520 H 0.19074 0.27303 0.44221 0.0
H521 H 0.14933 0.21778 0.47042 0.0
H522 H 0.1773 0.11945 0.45211 0.0
H523 H 0.23308 0.15069 0.4109 0.0
C524 C 0.25512 0.22082 0.39158 0.0
C525 C 0.26326 0.25784 0.38539 0.0
C526 C 0.22367 0.20247 0.41661 0.0
C527 C 0.23979 0.27604 0.40459 0.0
C528 C 0.20843 0.25806 0.42849 0.0
C529 C 0.16769 0.20308 0.45769 0.0
C530 C 0.15868 0.1661 0.46421 0.0
C531 C 0.1999 0.22129 0.43451 0.0
C532 C 0.18338 0.14784 0.44791 0.0
C533 C 0.21525 0.16573 0.42405 0.0
H534 H 0.90599 0.25268 0.34364 0.0
H535 H 0.85867 0.26621 0.4728 0.0
H536 H 0.8967 0.23109 0.51254 0.0
H537 H 0.94511 0.19582 0.51123 0.0
H538 H 0.98812 0.18095 0.37921 0.0
H539 H 0.95107 0.21667 0.34149 0.0
C540 C 0.90373 0.2481 0.38055 0.0
C541 C 0.87893 0.26282 0.4046 0.0
C542 C 0.92558 0.22727 0.40337 0.0
C543 C 0.87699 0.25568 0.4526 0.0
C544 C 0.89908 0.23546 0.47563 0.0
C545 C 0.94654 0.20043 0.47426 0.0
C546 C 0.97029 0.1851 0.44873 0.0
C547 C 0.92382 0.22103 0.45157 0.0
C548 C 0.97063 0.19169 0.40051 0.0
C549 C 0.94921 0.21243 0.37852 0.0
H550 H 0.92157 0.90005 0.42381 0.0
H551 H 0.96507 0.92494 0.28916 0.0
H552 H 1.0239 0.96532 0.32646 0.0
H553 H 1.06182 0.9972 0.39725 0.0
H554 H 1.01918 0.97178 0.53167 0.0
H555 H 0.96179 0.9282 0.49499 0.0
C556 C 0.94402 0.91409 0.40264 0.0
C557 C 0.93852 0.90948 0.35363 0.0
C558 C 0.97819 0.93735 0.42439 0.0
C559 C 0.96823 0.92782 0.32692 0.0
C560 C 1.00204 0.95109 0.34822 0.0
C561 C 1.0403 0.98145 0.41838 0.0
C562 C 1.04475 0.98735 0.46705 0.0
C563 C 1.00721 0.95648 0.39688 0.0
C564 C 1.01642 0.96738 0.49415 0.0
C565 C 0.98351 0.94259 0.47314 0.0
H566 H 0.35642 0.08029 0.42111 0.0
H567 H 0.37192 1.00311 0.51932 0.0
H568 H 0.32819 1.01851 0.56913 0.0
H569 H 0.26724 1.03397 0.56596 0.0
H570 H 0.24181 0.09932 0.45641 0.0
H571 H 0.3051 0.10751 0.42842 0.0
C572 C 0.35136 0.06802 0.45453 0.0
C573 C 0.36321 1.03763 0.46367 0.0
C574 C 0.32175 0.0732 0.47911 0.0
C575 C 0.3604 1.02463 0.50912 0.0
C576 C 0.33442 1.03273 0.53728 0.0
C577 C 0.27622 1.05066 0.53675 0.0
C578 C 0.25021 0.06521 0.51204 0.0
C579 C 0.31165 1.05353 0.5195 0.0
C580 C 0.26162 0.08735 0.47485 0.0
C581 C 0.29777 0.09217 0.45917 0.0
H582 H 0.2818 0.89936 0.64205 0.0
H583 H 0.26099 0.90952 0.7866 0.0
H584 H 0.22299 0.94951 0.766 0.0
H585 H 0.19427 0.9823 0.70769 0.0
H586 H 0.21078 0.97072 0.56224 0.0
H587 H 0.25096 0.9317 0.58229 0.0
C588 C 0.26904 0.91027 0.66918 0.0
C589 C 0.27498 0.90068 0.71637 0.0
C590 C 0.24597 0.93351 0.65684 0.0
C591 C 0.25744 0.91557 0.75017 0.0
C592 C 0.23546 0.93883 0.73837 0.0
C593 C 0.20662 0.97142 0.6801 0.0
C594 C 0.19906 0.9802 0.63313 0.0
C595 C 0.22933 0.94808 0.6919 0.0
C596 C 0.21554 0.96495 0.59857 0.0
C597 C 0.23878 0.94241 0.61017 0.0
H598 H 0.24219 0.2779 0.68001 0.0
H599 H 0.24905 0.19923 0.78089 0.0
H600 H 0.19215 0.15699 0.74072 0.0
H601 H 0.14103 0.14224 0.67645 0.0
H602 H 0.13167 0.22194 0.57822 0.0
H603 H 0.18887 0.26414 0.61802 0.0
C604 C 0.2313 0.25144 0.69308 0.0
C605 C 0.25009 0.24152 0.73309 0.0
C606 C 0.19805 0.22763 0.67044 0.0
C607 C 0.2352 0.20744 0.75014 0.0
C608 C 0.20269 0.1833 0.72716 0.0
C609 C 0.15141 0.16891 0.66383 0.0
C610 C 0.13212 0.17894 0.62435 0.0
C611 C 0.18395 0.19309 0.68725 0.0
C612 C 0.14576 0.21367 0.60872 0.0
C613 C 0.1786 0.23771 0.63132 0.0
H614 H 0.86527 0.16216 0.72891 0.0
H615 H 0.91897 0.09759 0.81415 0.0
H616 H 0.94122 0.07601 0.74452 0.0
H617 H 0.95944 0.08858 0.66468 0.0
H618 H 0.91485 0.1615 0.58404 0.0
H619 H 0.87428 0.16647 0.6461 0.0
C620 C 0.8803 0.14207 0.73201 0.0
C621 C 0.89086 0.13163 0.77648 0.0
C622 C 0.89533 0.13206 0.69255 0.0
C623 C 0.91074 0.106 0.78017 0.0
C624 C 0.92379 0.09405 0.74047 0.0
C625 C 0.9396 0.1044 0.66024 0.0
C626 C 0.93967 0.12464 0.62044 0.0
C627 C 0.91845 0.10883 0.69718 0.0
C628 C 0.91475 0.14564 0.6146 0.0
C629 C 0.89187 0.14862 0.65012 0.0
H630 H 0.8915 0.91407 0.67503 0.0
H631 H 0.97142 0.90712 0.7911 0.0
H632 H 1.02194 0.95171 0.75816 0.0
H633 H 1.04538 0.99053 0.69555 0.0
H634 H 0.96866 1.0004 0.57848 0.0
H635 H 0.91512 0.95792 0.61311 0.0
C636 C 0.91992 0.92244 0.69316 0.0
C637 C 0.92729 0.9067 0.73565 0.0
C638 C 0.94956 0.94889 0.67398 0.0
C639 C 0.96444 0.9183 0.75854 0.0
C640 C 0.99363 0.944 0.73971 0.0
C641 C 1.01683 0.9837 0.67768 0.0
C642 C 1.01113 0.99852 0.63438 0.0
C643 C 0.98669 0.95915 0.6974 0.0
C644 C 0.97385 0.98964 0.61202 0.0
C645 C 0.94334 0.96498 0.63163 0.0
H646 H 0.36501 0.2378 0.19603 0.0
H647 H 0.45755 0.2857 0.30048 0.0
H648 H 0.49814 0.25518 0.26436 0.0
H649 H 0.50943 0.21526 0.20195 0.0
H650 H 0.41636 0.1633 0.10049 0.0
H651 H 0.37522 0.19423 0.13594 0.0
C652 C 0.39397 0.24155 0.21128 0.0
C653 C 0.40744 0.26484 0.25187 0.0
C654 C 0.41773 0.22283 0.19039 0.0
C655 C 0.44544 0.2684 0.27004 0.0
C656 C 0.46909 0.25079 0.24902 0.0
C657 C 0.48007 0.21035 0.18746 0.0
C658 C 0.46672 0.18632 0.14776 0.0
C659 C 0.45585 0.22797 0.20902 0.0
C660 C 0.42813 0.18097 0.13068 0.0
C661 C 0.40437 0.19901 0.15113 0.0
H662 H 0.9641 0.44916 0.22041 0.0
H663 H 0.87672 0.48064 0.1372 0.0
H664 H 0.9126 0.54318 0.15228 0.0
H665 H 0.97571 0.58524 0.16807 0.0
H666 H 1.06895 0.54942 0.22802 0.0
H667 H 1.02382 0.49378 0.24825 0.0
C668 C 0.95292 0.46974 0.20554 0.0
C669 C 0.91896 0.46051 0.17566 0.0
C670 C 0.9748 0.50517 0.21166 0.0
C671 C 0.90345 0.48724 0.15908 0.0
C672 C 0.92385 0.52292 0.1679 0.0
C673 C 0.98584 0.56569 0.18734 0.0
C674 C 1.02533 0.56971 0.19312 0.0
C675 C 0.96066 0.53189 0.19131 0.0
C676 C 1.03857 0.54598 0.22104 0.0
C677 C 1.01282 0.51375 0.2314 0.0
H678 H 0.7283 0.87289 0.99298 0.0
H679 H 0.8083 0.95793 0.07777 0.0
H680 H 0.7578 0.98367 0.09276 0.0
H681 H 0.69125 0.98139 0.08506 0.0
H682 H 0.61132 0.90429 0.99051 0.0
H683 H 0.66101 0.87512 0.97711 0.0
C684 C 0.73461 0.89759 1.01348 0.0
C685 C 0.77198 0.91365 0.03368 0.0
C686 C 0.70528 0.91275 1.02181 0.0
C687 C 0.77999 0.9455 0.06073 0.0
C688 C 0.75099 0.95987 0.07034 0.0
C689 C 0.68456 0.95775 0.06224 0.0
C690 C 0.64789 0.9442 0.03977 0.0
C691 C 0.71356 0.94331 0.05196 0.0
C692 C 0.63954 0.91452 1.00877 0.0
C693 C 0.66791 0.8982 1.00081 0.0
H694 H 0.26041 0.73163 0.20928 0.0
H695 H 0.21718 0.81808 0.24935 0.0
H696 H 0.15334 0.78534 0.21635 0.0
H697 H 0.1089 0.73198 0.17669 0.0
H698 H 0.15215 0.6474 0.13018 0.0
H699 H 0.21627 0.67928 0.1651 0.0
C700 C 0.23706 0.74336 0.21052 0.0
C701 C 0.24385 0.77735 0.23189 0.0
C702 C 0.20008 0.72449 0.19075 0.0
C703 C 0.21314 0.79215 0.23288 0.0
C704 C 0.17636 0.7733 0.2143 0.0
C705 C 0.13231 0.72043 0.1745 0.0
C706 C 0.1256 0.68721 0.15128 0.0
C707 C 0.16937 0.73937 0.19346 0.0
C708 C 0.15647 0.67292 0.14795 0.0
C709 C 0.19319 0.69113 0.16796 0.0
H710 H 0.40081 0.94724 0.83479 0.0
H711 H 0.48004 0.90391 0.76776 0.0
H712 H 0.53381 0.94749 0.81137 0.0
H713 H 0.55714 0.99138 0.87592 0.0
H714 H 0.47735 1.03112 0.9475 0.0
H715 H 0.42468 0.99543 0.89391 0.0
C716 C 0.42984 0.94755 0.8291 0.0
C717 C 0.43645 0.92192 0.79869 0.0
C718 C 0.46036 0.97171 0.85543 0.0
C719 C 0.47421 0.92314 0.79124 0.0
C720 C 0.5049 0.94791 0.81635 0.0
C721 C 0.52831 0.99264 0.87971 0.0
C722 C 0.52113 1.01336 0.91647 0.0
C723 C 0.49815 0.9713 0.8498 0.0
C724 C 0.48368 1.01513 0.91997 0.0
C725 C 0.45354 0.99464 0.88942 0.0
H726 H 0.1385 0.36873 0.97225 0.0
H727 H 0.24353 0.45013 0.9528 0.0
H728 H 0.21057 0.4958 0.95709 0.0
H729 H 0.15249 0.51249 0.96925 0.0
H730 H 1.04736 0.43052 0.98725 0.0
H731 H 0.0796 0.38496 0.97856 0.0
C732 C 0.15407 0.39644 0.96847 0.0
C733 C 0.19332 0.40611 0.96252 0.0
C734 C 0.13487 0.42234 0.96992 0.0
C735 C 0.21335 0.44212 0.95827 0.0
C736 C 0.19446 0.46817 0.96004 0.0
C737 C 0.13643 0.48463 0.9702 0.0
C738 C 0.09775 0.47492 0.97921 0.0
C739 C 0.15525 0.45856 0.96606 0.0
C740 C 0.07728 0.43872 0.98052 0.0
C741 C 0.09572 0.41263 0.97594 0.0
H742 H 0.76958 0.2116 0.88278 0.0
H743 H 0.71282 0.29233 0.85454 0.0
H744 H 0.65683 0.25707 0.89052 0.0
H745 H 0.62376 0.20429 0.93108 0.0
H746 H 0.67917 0.12314 0.96225 0.0
H747 H 0.73538 0.1574 0.92413 0.0
C748 C 0.74495 0.22149 0.88439 0.0
C749 C 0.74591 0.25499 0.86569 0.0
C750 C 0.71237 0.20092 0.90578 0.0
C751 C 0.71344 0.26702 0.86847 0.0
C752 C 0.68117 0.24674 0.88913 0.0
C753 C 0.64793 0.19372 0.92957 0.0
C754 C 0.64669 0.16074 0.94978 0.0
C755 C 0.6803 0.21376 0.90804 0.0
C756 C 0.67885 0.14817 0.94718 0.0
C757 C 0.71116 0.1679 0.92535 0.0
H758 H 0.90628 0.82011 0.15063 0.0
H759 H 0.81161 0.75794 0.05888 0.0
H760 H 0.83664 0.70735 0.06456 0.0
H761 H 0.89803 0.69246 0.06737 0.0
H762 H 0.99542 0.7573 0.15416 0.0
H763 H 0.95772 0.7959 0.17747 0.0
C764 C 0.88996 0.79516 0.13338 0.0
C765 C 0.86157 0.79465 0.09717 0.0
C766 C 0.90691 0.76758 0.13338 0.0
C767 C 0.83739 0.76084 0.08161 0.0
C768 C 0.85197 0.73176 0.08408 0.0
C769 C 0.91071 0.71473 0.09196 0.0
C770 C 0.94974 0.72362 0.10703 0.0
C771 C 0.88918 0.73682 0.1047 0.0
C772 C 0.96563 0.75109 0.14086 0.0
C773 C 0.94408 0.77293 0.15439 0.0
H774 H 0.15978 0.38921 0.10588 0.0
H775 H 0.27044 0.45584 0.07417 0.0
H776 H 0.2447 0.50649 0.06556 0.0
H777 H 0.19266 0.53288 0.07551 0.0
H778 H 0.08196 0.46589 0.10654 0.0
H779 H 0.10586 0.41395 0.10643 0.0
C780 C 0.17802 0.41446 0.09554 0.0
C781 C 0.21709 0.41896 0.09138 0.0
C782 C 0.16327 0.44348 0.09155 0.0
C783 C 0.24039 0.45197 0.07839 0.0
C784 C 0.22579 0.48094 0.07379 0.0
C785 C 0.17384 0.50692 0.08244 0.0
C786 C 0.13592 0.50322 0.09202 0.0
C787 C 0.18767 0.47725 0.08208 0.0
C788 C 0.11146 0.46937 0.09967 0.0
C789 C 0.12504 0.43969 0.09946 0.0
H790 H 0.24141 0.71986 0.96508 0.0
H791 H 0.25171 0.78116 0.09412 0.0
H792 H 0.1837 0.75539 0.10121 0.0
H793 H 0.12099 0.72239 0.06562 0.0
H794 H 0.11031 0.65517 0.9424 0.0
H795 H 0.18007 0.67637 0.93844 0.0
C796 C 0.22956 0.72628 0.99628 0.0
C797 C 0.25136 0.75382 1.02793 0.0
C798 C 0.1905 0.71083 1.00072 0.0
C799 C 0.23527 0.76105 0.06837 0.0
C800 C 0.19635 0.74636 0.07248 0.0
C801 C 0.13386 0.71196 0.03812 0.0
C802 C 0.11068 0.68802 1.00357 0.0
C803 C 0.17353 0.72268 0.03766 0.0
C804 C 0.12774 0.67424 0.96872 0.0
C805 C 0.16748 0.68605 0.96683 0.0
H806 H 0.41088 0.27857 0.93589 0.0
H807 H 0.40107 0.22268 0.80295 0.0
H808 H 0.43764 0.18509 0.83749 0.0
H809 H 0.47147 0.16719 0.90482 0.0
H810 H 0.48372 0.22248 0.03848 0.0
H811 H 0.44726 0.26119 1.00431 0.0
C812 C 0.41665 0.25809 0.91449 0.0
C813 C 0.4029 0.25353 0.86659 0.0
C814 C 0.43815 0.23643 0.93476 0.0
C815 C 0.41116 0.22703 0.83958 0.0
C816 C 0.43208 0.20538 0.85943 0.0
C817 C 0.4662 0.18761 0.92686 0.0
C818 C 0.48022 0.19157 0.97453 0.0
C819 C 0.44555 0.20973 0.90691 0.0
C820 C 0.47345 0.21872 1.00184 0.0
C821 C 0.45244 0.24079 0.98223 0.0
H822 H 0.87755 0.4437 0.86952 0.0
H823 H 0.8918 0.36384 0.96527 0.0
H824 H 0.92855 0.41013 1.02193 0.0
H825 H 0.9617 0.4729 0.04174 0.0
H826 H 0.94845 0.55335 0.94667 0.0
H827 H 0.90582 0.50736 0.89295 0.0
C828 C 0.88813 0.43638 0.90305 0.0
C829 C 0.88203 0.40011 0.91268 0.0
C830 C 0.90973 0.46331 0.93563 0.0
C831 C 0.89614 0.39136 0.95648 0.0
C832 C 0.9173 0.41788 0.98903 0.0
C833 C 0.94921 0.48049 1.00947 0.0
C834 C 0.95877 0.5166 0.99809 0.0
C835 C 0.92509 0.45389 0.97853 0.0
C836 C 0.94179 0.52584 0.95638 0.0
C837 C 0.91754 0.49948 0.92547 0.0
H838 H 0.81121 0.92212 0.90639 0.0
H839 H 0.72246 0.86217 0.80444 0.0
H840 H 0.67923 0.89448 0.83015 0.0
H841 H 0.66436 0.94035 0.88193 0.0
H842 H 0.75312 1.00235 0.98195 0.0
H843 H 0.79691 0.97012 0.95647 0.0
C844 C 0.78248 0.9159 0.88936 0.0
C845 C 0.77127 0.88855 0.8525 0.0
C846 C 0.7569 0.93566 0.90421 0.0
C847 C 0.73323 0.88229 0.83225 0.0
C848 C 0.70797 0.90111 0.84725 0.0
C849 C 0.69329 0.94717 0.89847 0.0
C850 C 0.70419 0.97456 0.93507 0.0
C851 C 0.71911 0.92798 0.88325 0.0
C852 C 0.74257 0.9819 0.95452 0.0
C853 C 0.76808 0.96314 0.93962 0.0
H854 H 0.83865 0.73752 0.21711 0.0
H855 H 0.92809 0.79433 0.32035 0.0
H856 H 0.96452 0.75242 0.30668 0.0
H857 H 0.97454 0.70513 0.25773 0.0
H858 H 0.88459 0.647 0.15562 0.0
H859 H 0.84368 0.68249 0.17861 0.0
C860 C 0.86585 0.74023 0.23701 0.0
C861 C 0.88126 0.76916 0.26889 0.0
C862 C 0.8862 0.71558 0.22971 0.0
C863 C 0.91605 0.77232 0.29527 0.0
C864 C 0.9368 0.74839 0.28753 0.0
C865 C 0.94563 0.6995 0.24129 0.0
C866 C 0.93311 0.67421 0.204 0.0
C867 C 0.92268 0.7206 0.25379 0.0
C868 C 0.8952 0.66669 0.18397 0.0
C869 C 0.87188 0.68723 0.19679 0.0
H870 H 0.42176 0.94808 0.25364 0.0
H871 H 0.4074 0.85099 0.17255 0.0
H872 H 0.447 0.88407 0.11503 0.0
H873 H 0.48757 0.93948 0.08727 0.0
H874 H 0.50503 1.03797 0.16572 0.0
H875 H 0.46271 1.00583 0.22337 0.0
C876 C 0.42709 0.93414 0.22329 0.0
C877 C 0.41107 0.89645 0.21836 0.0
C878 C 0.45076 0.95373 0.18933 0.0
C879 C 0.41894 0.87951 0.17833 0.0
C880 C 0.4418 0.89857 0.14495 0.0
C881 C 0.48221 0.95434 0.11674 0.0
C882 C 0.50007 0.99161 0.1214 0.0
C883 C 0.45814 0.93556 0.15008 0.0
C884 C 0.49201 1.00958 0.1604 0.0
C885 C 0.46775 0.99099 0.19372 0.0
H886 H 0.75807 0.21794 0.2457 0.0
H887 H 0.68367 0.27962 0.28295 0.0
H888 H 0.63289 0.24402 0.22712 0.0
H889 H 0.61028 0.19721 0.16527 0.0
H890 H 0.68288 0.13346 0.12953 0.0
H891 H 0.73358 0.168 0.18705 0.0
C892 C 0.73062 0.22339 0.24199 0.0
C893 C 0.72493 0.25167 0.26863 0.0
C894 C 0.70128 0.20262 0.20969 0.0
C895 C 0.68901 0.2581 0.26326 0.0
C896 C 0.65993 0.23783 0.23105 0.0
C897 C 0.63722 0.19085 0.16991 0.0
C898 C 0.64287 0.163 0.14251 0.0
C899 C 0.66592 0.21039 0.20361 0.0
C900 C 0.67773 0.15477 0.14988 0.0
C901 C 0.70676 0.17457 0.1828 0.0
H902 H 0.78581 0.74767 0.9361 0.0
H903 H 0.73124 0.72147 0.79586 0.0
H904 H 0.67815 0.6777 0.82528 0.0
H905 H 0.64363 0.64998 0.89025 0.0
H906 H 0.69561 0.67298 0.03107 0.0
H907 H 0.75311 0.71401 1.00219 0.0
C908 C 0.76251 0.73212 0.912 0.0
C909 C 0.76273 0.7386 0.86368 0.0
C910 C 0.73137 0.7062 0.92921 0.0
C911 C 0.73217 0.71777 0.83316 0.0
C912 C 0.70151 0.69246 0.8499 0.0
C913 C 0.66793 0.66341 0.91454 0.0
C914 C 0.66552 0.65841 0.96257 0.0
C915 C 0.7004 0.68693 0.89774 0.0
C916 C 0.69707 0.67603 0.99379 0.0
C917 C 0.72974 0.6998 0.97726 0.0
H918 H 0.41473 0.77888 0.90017 0.0
H919 H 0.4151 0.73804 0.76018 0.0
H920 H 0.44855 0.69635 0.79062 0.0
H921 H 0.47844 0.67029 0.85701 0.0
H922 H 0.47985 0.71167 0.997 0.0
H923 H 0.44567 0.7532 0.96689 0.0
C924 C 0.42212 0.761 0.87602 0.0
C925 C 0.41176 0.76242 0.82712 0.0
C926 C 0.44203 0.73658 0.89407 0.0
C927 C 0.42216 0.73839 0.79753 0.0
C928 C 0.4415 0.71418 0.81514 0.0
C929 C 0.47134 0.68827 0.88127 0.0
C930 C 0.48232 0.68709 0.92996 0.0
C931 C 0.45167 0.71282 0.86336 0.0
C932 C 0.47242 0.71133 0.95974 0.0
C933 C 0.45262 0.73535 0.9423 0.0
H934 H 0.46452 0.3805 0.87427 0.0
H935 H 0.38376 0.4412 0.87909 0.0
H936 H 0.43113 0.48779 0.92753 0.0
H937 H 0.49568 0.51101 0.96936 0.0
H938 H 0.57387 0.44728 0.96986 0.0
H939 H 0.52748 0.40218 0.91885 0.0
C940 C 0.45742 0.4041 0.88558 0.0
C941 C 0.42087 0.40766 0.8725 0.0
C942 C 0.48435 0.43015 0.91468 0.0
C943 C 0.41177 0.43795 0.88842 0.0
C944 C 0.43885 0.46457 0.91617 0.0
C945 C 0.50252 0.48727 0.95816 0.0
C946 C 0.53832 0.48265 0.97315 0.0
C947 C 0.47524 0.46093 0.92964 0.0
C948 C 0.54654 0.45147 0.95898 0.0
C949 C 0.52005 0.42571 0.92964 0.0
H950 H 0.79627 0.47024 0.89724 0.0
H951 H 0.75689 0.53832 0.80174 0.0
H952 H 0.73328 0.56498 0.86626 0.0
H953 H 0.71214 0.55941 0.94548 0.0
H954 H 0.74234 0.48421 0.03707 0.0
H955 H 0.7822 0.47021 0.97919 0.0
C956 C 0.78377 0.49185 0.89097 0.0
C957 C 0.77824 0.50247 0.84507 0.0
C958 C 0.7683 0.50534 0.92762 0.0
C959 C 0.76137 0.52991 0.83693 0.0
C960 C 0.7477 0.5449 0.87371 0.0
C961 C 0.72878 0.54104 0.95324 0.0
C962 C 0.7251 0.52313 0.99525 0.0
C963 C 0.7493 0.53152 0.91864 0.0
C964 C 0.74554 0.49858 1.00501 0.0
C965 C 0.76787 0.49037 0.97177 0.0
H966 H 0.75426 0.38475 0.1924 0.0
H967 H 0.76678 0.4364 0.32865 0.0
H968 H 0.73447 0.47827 0.29715 0.0
H969 H 0.70097 0.50087 0.23169 0.0
H970 H 0.68559 0.44927 0.09534 0.0
H971 H 0.72 0.4079 0.12568 0.0
C972 C 0.75013 0.4052 0.21532 0.0
C973 C 0.76358 0.40669 0.26359 0.0
C974 C 0.73054 0.4297 0.19675 0.0
C975 C 0.7572 0.43379 0.29181 0.0
C976 C 0.73848 0.4581 0.27365 0.0
C977 C 0.7051 0.48071 0.20825 0.0
C978 C 0.69016 0.47885 0.16068 0.0
C979 C 0.72476 0.45639 0.22627 0.0
C980 C 0.69623 0.45192 0.13185 0.0
C981 C 0.71613 0.42802 0.14939 0.0
H982 H 0.72494 0.74205 0.24778 0.0
H983 H 0.7293 0.82418 0.14857 0.0
H984 H 0.67595 0.78389 0.09989 0.0
H985 H 0.62876 0.72388 0.08393 0.0
H986 H 0.62818 0.64174 0.18213 0.0
H987 H 0.67861 0.68327 0.23242 0.0
C988 C 0.71412 0.75138 0.21572 0.0
C989 C 0.73129 0.7864 0.20228 0.0
C990 C 0.68376 0.72784 0.18745 0.0
C991 C 0.71684 0.79753 0.16012 0.0
C992 C 0.6862 0.77441 0.13215 0.0
C993 C 0.63935 0.71529 0.11666 0.0
C994 C 0.62428 0.67963 0.12926 0.0
C995 C 0.66945 0.73934 0.14526 0.0
C996 C 0.63903 0.66889 0.17142 0.0
C997 C 0.66802 0.69267 0.20031 0.0
H998 H 0.33625 0.58808 0.18461 0.0
H999 H 0.3232 0.68846 0.14063 0.0
H1000 H 0.35973 0.68669 0.07416 0.0
H1001 H 0.41417 0.66752 0.04888 0.0
H1002 H 0.42686 0.56675 0.09226 0.0
H1003 H 0.37204 0.55761 0.13868 0.0
C1004 C 0.33919 0.60825 0.15861 0.0
C1005 C 0.32968 0.63945 0.16897 0.0
C1006 C 0.36204 0.60791 0.12183 0.0
C1007 C 0.33183 0.66475 0.13431 0.0
C1008 C 0.35362 0.66425 0.09679 0.0
C1009 C 0.40386 0.64309 0.06719 0.0
C1010 C 0.4248 0.61841 0.06896 0.0
C1011 C 0.37213 0.63785 0.09342 0.0
C1012 C 0.41117 0.58632 0.09151 0.0
C1013 C 0.37988 0.58106 0.11797 0.0
H1014 H 0.39075 0.41714 0.18074 0.0
H1015 H 0.45642 0.44178 0.31496 0.0
H1016 H 0.50603 0.48655 0.28057 0.0
H1017 H 0.53461 0.51526 0.21215 0.0
H1018 H 0.47174 0.49319 0.07682 0.0
H1019 H 0.41748 0.45189 0.11169 0.0
C1020 C 0.41564 0.43264 0.20258 0.0
C1021 C 0.41959 0.42525 0.25068 0.0
C1022 C 0.4449 0.459 0.1823 0.0
C1023 C 0.45228 0.44604 0.27801 0.0
C1024 C 0.48095 0.47193 0.25833 0.0
C1025 C 0.50871 0.50199 0.19029 0.0
C1026 C 0.50738 0.50749 0.14187 0.0
C1027 C 0.47806 0.47809 0.21049 0.0
C1028 C 0.47351 0.48995 0.11422 0.0
C1029 C 0.44261 0.46595 0.13421 0.0
H1030 H 0.87753 0.71905 0.70401 0.0
H1031 H 0.96889 0.78661 0.7964 0.0
H1032 H 1.01245 0.75424 0.77177 0.0
H1033 H 1.02672 0.70604 0.72376 0.0
H1034 H 0.93437 0.63385 0.63808 0.0
H1035 H 0.89088 0.66749 0.66032 0.0
C1036 C 0.90695 0.72698 0.71901 0.0
C1037 C 0.91889 0.75656 0.75268 0.0
C1038 C 0.93263 0.70695 0.7053 0.0
C1039 C 0.95765 0.76477 0.77095 0.0
C1040 C 0.98308 0.74594 0.75655 0.0
C1041 C 0.99716 0.69747 0.7093 0.0
C1042 C 0.98533 0.66722 0.67679 0.0
C1043 C 0.97126 0.71686 0.72366 0.0
C1044 C 0.94598 0.6573 0.6608 0.0
C1045 C 0.92057 0.67671 0.67413 0.0
H1046 H 0.53258 0.84172 0.64437 0.0
H1047 H 0.51149 0.8365 0.4941 0.0
H1048 H 0.56206 0.89231 0.48974 0.0
H1049 H 0.59722 0.94919 0.53031 0.0
H1050 H 0.61245 0.95534 0.68107 0.0
H1051 H 0.57983 0.89199 0.68341 0.0
C1052 C 0.54002 0.85155 0.61029 0.0
C1053 C 0.51675 0.83585 0.56977 0.0
C1054 C 0.56755 0.88447 0.60833 0.0
C1055 C 0.5279 0.84885 0.52607 0.0
C1056 C 0.55663 0.88097 0.52358 0.0
C1057 C 0.59456 0.93642 0.56362 0.0
C1058 C 0.60604 0.95703 0.60555 0.0
C1059 C 0.57428 0.9003 0.56477 0.0
C1060 C 0.60287 0.94012 0.64839 0.0
C1061 C 0.58425 0.90391 0.64974 0.0
H1062 H 0.30964 0.39804 0.67436 0.0
H1063 H 0.23925 0.37866 0.79037 0.0
H1064 H 0.1974 0.41012 0.75253 0.0
H1065 H 0.18104 0.44539 0.68727 0.0
H1066 H 0.25205 0.46648 0.57249 0.0
H1067 H 0.29236 0.43212 0.60816 0.0
C1068 C 0.28527 0.40077 0.69152 0.0
C1069 C 0.27818 0.38585 0.73565 0.0
C1070 C 0.26075 0.41903 0.66926 0.0
C1071 C 0.24595 0.38969 0.75668 0.0
C1072 C 0.22168 0.40772 0.7349 0.0
C1073 C 0.20476 0.44166 0.66957 0.0
C1074 C 0.21281 0.45776 0.6265 0.0
C1075 C 0.22867 0.42257 0.69116 0.0
C1076 C 0.24461 0.45372 0.605 0.0
C1077 C 0.26797 0.43432 0.62572 0.0
H1078 H 0.75753 0.21867 0.72589 0.0
H1079 H 0.86137 0.25482 0.65739 0.0
H1080 H 0.8386 0.20393 0.60076 0.0
H1081 H 0.78862 0.14739 0.57201 0.0
H1082 H 0.6885 0.11095 0.64903 0.0
H1083 H 0.71045 0.16284 0.70047 0.0
C1084 C 0.77519 0.21536 0.69855 0.0
C1085 C 0.81083 0.24047 0.69553 0.0
C1086 C 0.76271 0.18545 0.66769 0.0
C1087 C 0.83372 0.2357 0.66036 0.0
C1088 C 0.82072 0.20655 0.6281 0.0
C1089 C 0.77179 0.15074 0.60018 0.0
C1090 C 0.73653 0.12493 0.60563 0.0
C1091 C 0.78525 0.18086 0.63161 0.0
C1092 C 0.71542 0.13004 0.64284 0.0
C1093 C 0.72798 0.1599 0.67286 0.0
H1094 H 0.88198 0.41487 0.45448 0.0
H1095 H 0.94361 0.42822 0.33093 0.0
H1096 H 0.99359 0.47848 0.37031 0.0
H1097 H 1.01997 0.51852 0.44104 0.0
H1098 H 0.95453 0.50595 0.56143 0.0
H1099 H 0.90618 0.45534 0.52229 0.0
C1100 C 0.90637 0.42858 0.43595 0.0
C1101 C 0.90912 0.41733 0.3898 0.0
C1102 C 0.93448 0.45765 0.4585 0.0
C1103 C 0.9407 0.43609 0.3664 0.0
C1104 C 0.96935 0.46481 0.38904 0.0
C1105 C 0.99514 0.5046 0.45866 0.0
C1106 C 0.99105 0.51606 0.50437 0.0
C1107 C 0.96664 0.47579 0.43526 0.0
C1108 C 0.95842 0.49795 0.52636 0.0
C1109 C 0.93073 0.46891 0.50399 0.0
H1110 H 0.73516 0.91473 0.29277 0.0
H1111 H 0.85248 0.96795 0.34088 0.0
H1112 H 0.8332 1.01689 0.37546 0.0
H1113 H 0.78175 1.04266 0.39587 0.0
H1114 H 0.66509 0.98964 0.34309 0.0
H1115 H 0.68536 0.94317 0.30575 0.0
C1116 C 0.75649 0.93733 0.31029 0.0
C1117 C 0.79502 0.93788 0.31446 0.0
C1118 C 0.74532 0.96556 0.32905 0.0
C1119 C 0.82259 0.96724 0.33701 0.0
C1120 C 0.81157 0.99511 0.3569 0.0
C1121 C 0.76097 1.0212 0.37559 0.0
C1122 C 0.72197 1.01961 0.37258 0.0
C1123 C 0.77287 0.99438 0.35362 0.0
C1124 C 0.69534 0.99171 0.34595 0.0
C1125 C 0.70682 0.96489 0.3247 0.0
H1126 H 0.22883 0.76922 0.42232 0.0
H1127 H 0.30894 0.71677 0.37573 0.0
H1128 H 0.27332 0.66167 0.4076 0.0
H1129 H 0.22048 0.62705 0.44899 0.0
H1130 H 0.1398 0.67625 0.50054 0.0
H1131 H 0.17424 0.73287 0.46724 0.0
C1132 C 0.23844 0.74574 0.4191 0.0
C1133 C 0.27227 0.74801 0.39635 0.0
C1134 C 0.2176 0.71306 0.4387 0.0
C1135 C 0.28374 0.71678 0.39313 0.0
C1136 C 0.26315 0.68479 0.41138 0.0
C1137 C 0.20994 0.64993 0.45305 0.0
C1138 C 0.17686 0.64655 0.47727 0.0
C1139 C 0.23019 0.6825 0.43434 0.0
C1140 C 0.16481 0.67737 0.48218 0.0
C1141 C 0.18467 0.70997 0.46294 0.0
H1142 H 0.43415 0.2181 0.53443 0.0
H1143 H 0.54145 0.29752 0.5748 0.0
H1144 H 0.56999 0.25103 0.59987 0.0
H1145 H 0.56677 0.18798 0.5997 0.0
H1146 H 0.45997 0.10862 0.55643 0.0
H1147 H 0.42863 0.15516 0.54401 0.0
C1148 C 0.46344 0.22539 0.54997 0.0
C1149 C 0.48582 0.26117 0.55209 0.0
C1150 C 0.47989 0.19855 0.56314 0.0
C1151 C 0.5239 0.27007 0.57182 0.0
C1152 C 0.54021 0.24354 0.58616 0.0
C1153 C 0.53653 0.1808 0.58804 0.0
C1154 C 0.51592 0.14498 0.57802 0.0
C1155 C 0.5189 0.20766 0.58012 0.0
C1156 C 0.47664 0.13608 0.56364 0.0
C1157 C 0.45868 0.16266 0.55659 0.0
H1158 H 0.76991 0.85766 0.4685 0.0
H1159 H 0.8654 0.9091 0.56766 0.0
H1160 H 0.85942 0.96679 0.54641 0.0
H1161 H 0.81418 0.99961 0.51955 0.0
H1162 H 0.71406 0.94578 0.42839 0.0
H1163 H 0.73518 0.89269 0.42565 0.0
C1164 C 0.79051 0.88143 0.48415 0.0
C1165 C 0.81681 0.87863 0.52107 0.0
C1166 C 0.78526 0.9144 0.47411 0.0
C1167 C 0.84409 0.90995 0.53977 0.0
C1168 C 0.84037 0.94323 0.52815 0.0
C1169 C 0.79761 0.97656 0.49811 0.0
C1170 C 0.76192 0.97597 0.47584 0.0
C1171 C 0.80889 0.94538 0.49861 0.0
C1172 C 0.74106 0.94637 0.44721 0.0
C1173 C 0.75314 0.91599 0.44551 0.0
H1174 H 0.7994 0.27607 0.54669 0.0
H1175 H 0.71883 0.28026 0.64696 0.0
H1176 H 0.68167 0.21896 0.62375 0.0
H1177 H 0.66603 0.16944 0.56416 0.0
H1178 H 0.74283 0.17302 0.45609 0.0
H1179 H 0.78584 0.22778 0.49091 0.0
C1180 C 0.77421 0.26376 0.56462 0.0
C1181 C 0.76093 0.28368 0.59697 0.0
C1182 C 0.75081 0.23077 0.54727 0.0
C1183 C 0.72923 0.26595 0.62104 0.0
C1184 C 0.70737 0.23131 0.60678 0.0
C1185 C 0.69181 0.18255 0.54774 0.0
C1186 C 0.70066 0.16728 0.50696 0.0
C1187 C 0.71654 0.21456 0.56768 0.0
C1188 C 0.73463 0.18438 0.48674 0.0
C1189 C 0.75974 0.21541 0.50715 0.0
H1190 H 0.93719 0.78072 0.49445 0.0
H1191 H 0.8439 0.71031 0.56152 0.0
H1192 H 0.88127 0.66908 0.57493 0.0
H1193 H 0.93765 0.65074 0.56181 0.0
H1194 H 1.03648 0.72505 0.51174 0.0
H1195 H 0.99952 0.76792 0.49784 0.0
C1196 C 0.92523 0.75719 0.5137 0.0
C1197 C 0.88669 0.74809 0.52477 0.0
C1198 C 0.94777 0.73434 0.5241 0.0
C1199 C 0.87249 0.71732 0.55004 0.0
C1200 C 0.89403 0.69379 0.55838 0.0
C1201 C 0.95152 0.67672 0.54912 0.0
C1202 C 0.98948 0.68483 0.53762 0.0
C1203 C 0.93113 0.70159 0.54426 0.0
C1204 C 1.0071 0.71833 0.52061 0.0
C1205 C 0.98604 0.74272 0.51287 0.0
H1206 H 0.47371 0.90353 0.36298 0.0
H1207 H 0.4 0.87629 0.47504 0.0
H1208 H 0.44373 0.92362 0.52509 0.0
H1209 H 0.49962 0.97595 0.53506 0.0
H1210 H 0.57293 1.00585 0.42295 0.0
H1211 H 0.53283 0.95459 0.3751 0.0
C1212 C 0.46778 0.90751 0.3987 0.0
C1213 C 0.4337 0.88623 0.41532 0.0
C1214 C 0.49262 0.93576 0.42706 0.0
C1215 C 0.42601 0.8922 0.4614 0.0
C1216 C 0.45093 0.91943 0.49001 0.0
C1217 C 0.50701 0.97133 0.5002 0.0
C1218 C 0.53902 0.9952 0.4825 0.0
C1219 C 0.48374 0.94197 0.47283 0.0
C1220 C 0.54827 0.98825 0.4374 0.0
C1221 C 0.52535 0.95884 0.41 0.0
H1222 H 0.23382 0.38687 0.34882 0.0
H1223 H 0.34301 0.43542 0.42539 0.0
H1224 H 0.3146 0.47284 0.47048 0.0
H1225 H 0.2579 0.49359 0.48974 0.0
H1226 H 0.14901 0.44396 0.41262 0.0
H1227 H 0.17764 0.40683 0.36837 0.0
C1228 C 0.25171 0.40571 0.37509 0.0
C1229 C 0.2913 0.40762 0.38241 0.0
C1230 C 0.23486 0.42772 0.40198 0.0
C1231 C 0.31283 0.43258 0.41771 0.0
C1232 C 0.29638 0.45435 0.44408 0.0
C1233 C 0.24017 0.47455 0.46359 0.0
C1234 C 0.20049 0.47255 0.45563 0.0
C1235 C 0.25723 0.45239 0.43691 0.0
C1236 C 0.17925 0.44719 0.42058 0.0
C1237 C 0.19578 0.42548 0.39466 0.0
H1238 H 0.44752 0.16897 0.67917 0.0
H1239 H 0.55043 0.25391 0.72007 0.0
H1240 H 0.58742 0.21125 0.72435 0.0
H1241 H 0.59124 0.15037 0.71114 0.0
H1242 H 0.48831 0.06605 0.6695 0.0
H1243 H 0.45022 0.10767 0.67388 0.0
C1244 C 0.47785 0.17823 0.69025 0.0
C1245 C 0.496 0.21484 0.69908 0.0
C1246 C 0.49886 0.15348 0.69352 0.0
C1247 C 0.53564 0.22611 0.71206 0.0
C1248 C 0.55682 0.20163 0.71512 0.0
C1249 C 0.56033 0.14092 0.70457 0.0
C1250 C 0.54252 0.10519 0.69022 0.0
C1251 C 0.53881 0.1653 0.70539 0.0
C1252 C 0.50255 0.0934 0.68088 0.0
C1253 C 0.48084 0.11725 0.68296 0.0
H1254 H 0.92976 0.38105 0.68052 0.0
H1255 H 0.95201 0.41971 0.82407 0.0
H1256 H 0.99779 0.47438 0.80121 0.0
H1257 H 1.02886 0.51321 0.73954 0.0
H1258 H 1.01173 0.47238 0.59704 0.0
H1259 H 0.96732 0.4169 0.62011 0.0
C1260 C 0.94506 0.40126 0.70682 0.0
C1261 C 0.93733 0.39617 0.75405 0.0
C1262 C 0.97237 0.43244 0.6935 0.0
C1263 C 0.95758 0.42265 0.78764 0.0
C1264 C 0.98367 0.4541 0.7745 0.0
C1265 C 1.01593 0.49191 0.71367 0.0
C1266 C 1.02372 0.49718 0.66648 0.0
C1267 C 0.991 0.45955 0.72746 0.0
C1268 C 1.00666 0.46912 0.63357 0.0
C1269 C 0.98096 0.43738 0.64675 0.0
H1270 H 0.29209 0.74266 0.67265 0.0
H1271 H 0.23189 0.72496 0.79716 0.0
H1272 H 0.19335 0.66603 0.76485 0.0
H1273 H 0.17527 0.6214 0.69899 0.0
H1274 H 0.23915 0.63905 0.57714 0.0
H1275 H 0.27863 0.69656 0.61106 0.0
C1276 C 0.27065 0.72592 0.69289 0.0
C1277 C 0.26426 0.73821 0.73681 0.0
C1278 C 0.2496 0.69226 0.6746 0.0
C1279 C 0.237 0.716 0.76311 0.0
C1280 C 0.21506 0.68247 0.7446 0.0
C1281 C 0.1981 0.63779 0.68014 0.0
C1282 C 0.2043 0.6263 0.63555 0.0
C1283 C 0.22086 0.67058 0.7001 0.0
C1284 C 0.23411 0.64736 0.61157 0.0
C1285 C 0.25644 0.68025 0.63081 0.0
loop_
_geom_bond_atom_site_label_1
_geom_bond_atom_site_label_2
_geom_bond_distance
_geom_bond_site_symmetry_2
_ccdc_geom_bond_type
Dy0 O3 2.307 . S
Dy0 O5 2.395 . S
Dy0 O6 2.379 . S
Dy0 O8 2.339 . S
Dy0 O10 2.298 . S
Dy0 O14 2.275 . S
Dy0 C22 2.738 . S
Dy1 O4 2.298 . S
Dy1 O7 2.275 . S
Dy1 O9 2.307 . S
Dy1 O11 2.395 . S
Dy1 O12 2.379 . S
Dy1 O15 2.339 . S
Dy1 C31 2.738 . S
C2 O14 1.254 . S
C2 O15 1.257 . S
O3 Dy0 2.307 . S
O3 C13 1.266 . S
O4 Dy1 2.298 . S
O4 C13 1.236 . S
O5 Dy0 2.395 . S
O5 C22 1.255 . S
O6 Dy0 2.379 . S
O6 C22 1.249 . S
O7 Dy1 2.275 . S
O7 C23 1.254 . S
O8 Dy0 2.339 . S
O8 C23 1.257 . S
O9 Dy1 2.307 . S
O9 C24 1.266 . S
O10 Dy0 2.298 . S
O10 C24 1.236 . S
O11 Dy1 2.395 . S
O11 C31 1.255 . S
O12 Dy1 2.379 . S
O12 C31 1.249 . S
C13 O3 1.266 . S
C13 O4 1.236 . S
O14 Dy0 2.275 . S
O14 C2 1.254 . S
O15 Dy1 2.339 . S
O15 C2 1.257 . S
C16 C19 1.344 . S
C16 C20 1.328 . S
C16 C22 1.516 . S
C17 C18 1.304 . S
C17 C21 1.323 . S
C18 C17 1.304 . S
C18 C19 1.371 . S
C18 H32 0.930 . S
C19 C16 1.344 . S
C19 C18 1.371 . S
C19 H33 0.931 . S
C20 C16 1.328 . S
C20 C21 1.433 . S
C20 H34 0.931 . S
C21 C17 1.323 . S
C21 C20 1.433 . S
C21 H35 0.933 . S
C22 Dy0 2.738 . S
C22 O5 1.255 . S
C22 O6 1.249 . S
C22 C16 1.516 . S
C23 O7 1.254 . S
C23 O8 1.257 . S
C24 O9 1.266 . S
C24 O10 1.236 . S
C25 C28 1.344 . S
C25 C29 1.328 . S
C25 C31 1.516 . S
C26 C27 1.304 . S
C26 C30 1.323 . S
C27 C26 1.304 . S
C27 C28 1.371 . S
C27 H36 0.930 . S
C28 C25 1.344 . S
C28 C27 1.371 . S
C28 H37 0.931 . S
C29 C25 1.328 . S
C29 C30 1.433 . S
C29 H38 0.931 . S
C30 C26 1.323 . S
C30 C29 1.433 . S
C30 H39 0.933 . S
C31 Dy1 2.738 . S
C31 O11 1.255 . S
C31 O12 1.249 . S
C31 C25 1.516 . S
H32 C18 0.930 . S
H33 C19 0.931 . S
H34 C20 0.931 . S
H35 C21 0.933 . S
H36 C27 0.930 . S
H37 C28 0.931 . S
H38 C29 0.931 . S
H39 C30 0.933 . S
Dy40 O43 2.307 . S
Dy40 O45 2.395 . S
Dy40 O46 2.379 . S
Dy40 O48 2.339 . S
Dy40 O50 2.298 . S
Dy40 O54 2.275 . S
Dy40 C62 2.738 . S
Dy41 O44 2.298 . S
Dy41 O47 2.275 . S
Dy41 O49 2.307 . S
Dy41 O51 2.395 . S
Dy41 O52 2.379 . S
Dy41 O55 2.339 . S
Dy41 C71 2.738 . S
C42 O54 1.254 . S
C42 O55 1.257 . S
O43 Dy40 2.307 . S
O43 C53 1.266 . S
O44 Dy41 2.298 . S
O44 C53 1.236 . S
O45 Dy40 2.395 . S
O45 C62 1.255 . S
O46 Dy40 2.379 . S
O46 C62 1.249 . S
O47 Dy41 2.275 . S
O47 C63 1.254 . S
O48 Dy40 2.339 . S
O48 C63 1.257 . S
O49 Dy41 2.307 . S
O49 C64 1.266 . S
O50 Dy40 2.298 . S
O50 C64 1.236 . S
O51 Dy41 2.395 . S
O51 C71 1.255 . S
O52 Dy41 2.379 . S
O52 C71 1.249 . S
C53 O43 1.266 . S
C53 O44 1.236 . S
O54 Dy40 2.275 . S
O54 C42 1.254 . S
O55 Dy41 2.339 . S
O55 C42 1.257 . S
C56 C59 1.344 . S
C56 C60 1.328 . S
C56 C62 1.516 . S
C57 C58 1.304 . S
C57 C61 1.323 . S
C58 C57 1.304 . S
C58 C59 1.371 . S
C58 H72 0.930 . S
C59 C56 1.344 . S
C59 C58 1.371 . S
C59 H73 0.931 . S
C60 C56 1.328 . S
C60 C61 1.433 . S
C60 H74 0.931 . S
C61 C57 1.323 . S
C61 C60 1.433 . S
C61 H75 0.933 . S
C62 Dy40 2.738 . S
C62 O45 1.255 . S
C62 O46 1.249 . S
C62 C56 1.516 . S
C63 O47 1.254 . S
C63 O48 1.257 . S
C64 O49 1.266 . S
C64 O50 1.236 . S
C65 C68 1.344 . S
C65 C69 1.328 . S
C65 C71 1.516 . S
C66 C67 1.304 . S
C66 C70 1.323 . S
C67 C66 1.304 . S
C67 C68 1.371 . S
C67 H76 0.930 . S
C68 C65 1.344 . S
C68 C67 1.371 . S
C68 H77 0.931 . S
C69 C65 1.328 . S
C69 C70 1.433 . S
C69 H78 0.931 . S
C70 C66 1.323 . S
C70 C69 1.433 . S
C70 H79 0.933 . S
C71 Dy41 2.738 . S
C71 O51 1.255 . S
C71 O52 1.249 . S
C71 C65 1.516 . S
H72 C58 0.930 . S
H73 C59 0.931 . S
H74 C60 0.931 . S
H75 C61 0.933 . S
H76 C67 0.930 . S
H77 C68 0.931 . S
H78 C69 0.931 . S
H79 C70 0.933 . S
Dy80 O83 2.307 . S
Dy80 O85 2.395 . S
Dy80 O86 2.379 . S
Dy80 O88 2.339 . S
Dy80 O90 2.298 . S
Dy80 O94 2.275 . S
Dy80 C102 2.738 . S
Dy81 O84 2.298 . S
Dy81 O87 2.275 . S
Dy81 O89 2.307 . S
Dy81 O91 2.395 . S
Dy81 O92 2.379 . S
Dy81 O95 2.339 . S
Dy81 C111 2.738 . S
C82 O94 1.254 . S
C82 O95 1.257 . S
O83 Dy80 2.307 . S
O83 C93 1.266 . S
O84 Dy81 2.298 . S
O84 C93 1.236 . S
O85 Dy80 2.395 . S
O85 C102 1.255 . S
O86 Dy80 2.379 . S
O86 C102 1.249 . S
O87 Dy81 2.275 . S
O87 C103 1.254 . S
O88 Dy80 2.339 . S
O88 C103 1.257 . S
O89 Dy81 2.307 . S
O89 C104 1.266 . S
O90 Dy80 2.298 . S
O90 C104 1.236 . S
O91 Dy81 2.395 . S
O91 C111 1.255 . S
O92 Dy81 2.379 . S
O92 C111 1.249 . S
C93 O83 1.266 . S
C93 O84 1.236 . S
O94 Dy80 2.275 . S
O94 C82 1.254 . S
O95 Dy81 2.339 . S
O95 C82 1.257 . S
C96 C99 1.344 . S
C96 C100 1.328 . S
C96 C102 1.516 . S
C97 C98 1.304 . S
C97 C101 1.323 . S
C98 C97 1.304 . S
C98 C99 1.371 . S
C98 H112 0.930 . S
C99 C96 1.344 . S
C99 C98 1.371 . S
C99 H113 0.931 . S
C100 C96 1.328 . S
C100 C101 1.433 . S
C100 H114 0.931 . S
C101 C97 1.323 . S
C101 C100 1.433 . S
C101 H115 0.933 . S
C102 Dy80 2.738 . S
C102 O85 1.255 . S
C102 O86 1.249 . S
C102 C96 1.516 . S
C103 O87 1.254 . S
C103 O88 1.257 . S
C104 O89 1.266 . S
C104 O90 1.236 . S
C105 C108 1.344 . S
C105 C109 1.328 . S
C105 C111 1.516 . S
C106 C107 1.304 . S
C106 C110 1.323 . S
C107 C106 1.304 . S
C107 C108 1.371 . S
C107 H116 0.930 . S
C108 C105 1.344 . S
C108 C107 1.371 . S
C108 H117 0.931 . S
C109 C105 1.328 . S
C109 C110 1.433 . S
C109 H118 0.931 . S
C110 C106 1.323 . S
C110 C109 1.433 . S
C110 H119 0.933 . S
C111 Dy81 2.738 . S
C111 O91 1.255 . S
C111 O92 1.249 . S
C111 C105 1.516 . S
H112 C98 0.930 . S
H113 C99 0.931 . S
H114 C100 0.931 . S
H115 C101 0.933 . S
H116 C107 0.930 . S
H117 C108 0.931 . S
H118 C109 0.931 . S
H119 C110 0.933 . S
Dy120 O123 2.307 . S
Dy120 O125 2.395 . S
Dy120 O126 2.379 . S
Dy120 O128 2.339 . S
Dy120 O130 2.298 . S
Dy120 O134 2.275 . S
Dy120 C142 2.738 . S
Dy121 O124 2.298 . S
Dy121 O127 2.275 . S
Dy121 O129 2.307 . S
Dy121 O131 2.395 . S
Dy121 O132 2.379 . S
Dy121 O135 2.339 . S
Dy121 C151 2.738 . S
C122 O134 1.254 . S
C122 O135 1.257 . S
O123 Dy120 2.307 . S
O123 C133 1.266 . S
O124 Dy121 2.298 . S
O124 C133 1.236 . S
O125 Dy120 2.395 . S
O125 C142 1.255 . S
O126 Dy120 2.379 . S
O126 C142 1.249 . S
O127 Dy121 2.275 . S
O127 C143 1.254 . S
O128 Dy120 2.339 . S
O128 C143 1.257 . S
O129 Dy121 2.307 . S
O129 C144 1.266 . S
O130 Dy120 2.298 . S
O130 C144 1.236 . S
O131 Dy121 2.395 . S
O131 C151 1.255 . S
O132 Dy121 2.379 . S
O132 C151 1.249 . S
C133 O123 1.266 . S
C133 O124 1.236 . S
O134 Dy120 2.275 . S
O134 C122 1.254 . S
O135 Dy121 2.339 . S
O135 C122 1.257 . S
C136 C139 1.344 . S
C136 C140 1.328 . S
C136 C142 1.516 . S
C137 C138 1.304 . S
C137 C141 1.323 . S
C138 C137 1.304 . S
C138 C139 1.371 . S
C138 H152 0.930 . S
C139 C136 1.344 . S
C139 C138 1.371 . S
C139 H153 0.931 . S
C140 C136 1.328 . S
C140 C141 1.433 . S
C140 H154 0.931 . S
C141 C137 1.323 . S
C141 C140 1.433 . S
C141 H155 0.933 . S
C142 Dy120 2.738 . S
C142 O125 1.255 . S
C142 O126 1.249 . S
C142 C136 1.516 . S
C143 O127 1.254 . S
C143 O128 1.257 . S
C144 O129 1.266 . S
C144 O130 1.236 . S
C145 C148 1.344 . S
C145 C149 1.328 . S
C145 C151 1.516 . S
C146 C147 1.304 . S
C146 C150 1.323 . S
C147 C146 1.304 . S
C147 C148 1.371 . S
C147 H156 0.930 . S
C148 C145 1.344 . S
C148 C147 1.371 . S
C148 H157 0.931 . S
C149 C145 1.328 . S
C149 C150 1.433 . S
C149 H158 0.931 . S
C150 C146 1.323 . S
C150 C149 1.433 . S
C150 H159 0.933 . S
C151 Dy121 2.738 . S
C151 O131 1.255 . S
C151 O132 1.249 . S
C151 C145 1.516 . S
H152 C138 0.930 . S
H153 C139 0.931 . S
H154 C140 0.931 . S
H155 C141 0.933 . S
H156 C147 0.930 . S
H157 C148 0.931 . S
H158 C149 0.931 . S
H159 C150 0.933 . S
Dy160 O163 2.307 . S
Dy160 O165 2.395 . S
Dy160 O166 2.379 . S
Dy160 O168 2.339 . S
Dy160 O170 2.298 . S
Dy160 O174 2.275 . S
Dy160 C182 2.738 . S
Dy161 O164 2.298 . S
Dy161 O167 2.275 . S
Dy161 O169 2.307 . S
Dy161 O171 2.395 . S
Dy161 O172 2.379 . S
Dy161 O175 2.339 . S
Dy161 C191 2.738 . S
C162 O174 1.254 . S
C162 O175 1.257 . S
O163 Dy160 2.307 . S
O163 C173 1.266 . S
O164 Dy161 2.298 . S
O164 C173 1.236 . S
O165 Dy160 2.395 . S
O165 C182 1.255 . S
O166 Dy160 2.379 . S
O166 C182 1.249 . S
O167 Dy161 2.275 . S
O167 C183 1.254 . S
O168 Dy160 2.339 . S
O168 C183 1.257 . S
O169 Dy161 2.307 . S
O169 C184 1.266 . S
O170 Dy160 2.298 . S
O170 C184 1.236 . S
O171 Dy161 2.395 . S
O171 C191 1.255 . S
O172 Dy161 2.379 . S
O172 C191 1.249 . S
C173 O163 1.266 . S
C173 O164 1.236 . S
O174 Dy160 2.275 . S
O174 C162 1.254 . S
O175 Dy161 2.339 . S
O175 C162 1.257 . S
C176 C179 1.344 . S
C176 C180 1.328 . S
C176 C182 1.516 . S
C177 C178 1.304 . S
C177 C181 1.323 . S
C178 C177 1.304 . S
C178 C179 1.371 . S
C178 H192 0.930 . S
C179 C176 1.344 . S
C179 C178 1.371 . S
C179 H193 0.931 . S
C180 C176 1.328 . S
C180 C181 1.433 . S
C180 H194 0.931 . S
C181 C177 1.323 . S
C181 C180 1.433 . S
C181 H195 0.933 . S
C182 Dy160 2.738 . S
C182 O165 1.255 . S
C182 O166 1.249 . S
C182 C176 1.516 . S
C183 O167 1.254 . S
C183 O168 1.257 . S
C184 O169 1.266 . S
C184 O170 1.236 . S
C185 C188 1.344 . S
C185 C189 1.328 . S
C185 C191 1.516 . S
C186 C187 1.304 . S
C186 C190 1.323 . S
C187 C186 1.304 . S
C187 C188 1.371 . S
C187 H196 0.930 . S
C188 C185 1.344 . S
C188 C187 1.371 . S
C188 H197 0.931 . S
C189 C185 1.328 . S
C189 C190 1.433 . S
C189 H198 0.931 . S
C190 C186 1.323 . S
C190 C189 1.433 . S
C190 H199 0.933 . S
C191 Dy161 2.738 . S
C191 O171 1.255 . S
C191 O172 1.249 . S
C191 C185 1.516 . S
H192 C178 0.930 . S
H193 C179 0.931 . S
H194 C180 0.931 . S
H195 C181 0.933 . S
H196 C187 0.930 . S
H197 C188 0.931 . S
H198 C189 0.931 . S
H199 C190 0.933 . S
Dy200 O203 2.307 . S
Dy200 O205 2.395 . S
Dy200 O206 2.379 . S
Dy200 O208 2.339 . S
Dy200 O210 2.298 . S
Dy200 O214 2.275 . S
Dy200 C222 2.738 . S
Dy201 O204 2.298 . S
Dy201 O207 2.275 . S
Dy201 O209 2.307 . S
Dy201 O211 2.395 . S
Dy201 O212 2.379 . S
Dy201 O215 2.339 . S
Dy201 C231 2.738 . S
C202 O214 1.254 . S
C202 O215 1.257 . S
O203 Dy200 2.307 . S
O203 C213 1.266 . S
O204 Dy201 2.298 . S
O204 C213 1.236 . S
O205 Dy200 2.395 . S
O205 C222 1.255 . S
O206 Dy200 2.379 . S
O206 C222 1.249 . S
O207 Dy201 2.275 . S
O207 C223 1.254 . S
O208 Dy200 2.339 . S
O208 C223 1.257 . S
O209 Dy201 2.307 . S
O209 C224 1.266 . S
O210 Dy200 2.298 . S
O210 C224 1.236 . S
O211 Dy201 2.395 . S
O211 C231 1.255 . S
O212 Dy201 2.379 . S
O212 C231 1.249 . S
C213 O203 1.266 . S
C213 O204 1.236 . S
O214 Dy200 2.275 . S
O214 C202 1.254 . S
O215 Dy201 2.339 . S
O215 C202 1.257 . S
C216 C219 1.344 . S
C216 C220 1.328 . S
C216 C222 1.516 . S
C217 C218 1.304 . S
C217 C221 1.323 . S
C218 C217 1.304 . S
C218 C219 1.371 . S
C218 H232 0.930 . S
C219 C216 1.344 . S
C219 C218 1.371 . S
C219 H233 0.931 . S
C220 C216 1.328 . S
C220 C221 1.433 . S
C220 H234 0.931 . S
C221 C217 1.323 . S
C221 C220 1.433 . S
C221 H235 0.933 . S
C222 Dy200 2.738 . S
C222 O205 1.255 . S
C222 O206 1.249 . S
C222 C216 1.516 . S
C223 O207 1.254 . S
C223 O208 1.257 . S
C224 O209 1.266 . S
C224 O210 1.236 . S
C225 C228 1.344 . S
C225 C229 1.328 . S
C225 C231 1.516 . S
C226 C227 1.304 . S
C226 C230 1.323 . S
C227 C226 1.304 . S
C227 C228 1.371 . S
C227 H236 0.930 . S
C228 C225 1.344 . S
C228 C227 1.371 . S
C228 H237 0.931 . S
C229 C225 1.328 . S
C229 C230 1.433 . S
C229 H238 0.931 . S
C230 C226 1.323 . S
C230 C229 1.433 . S
C230 H239 0.933 . S
C231 Dy201 2.738 . S
C231 O211 1.255 . S
C231 O212 1.249 . S
C231 C225 1.516 . S
H232 C218 0.930 . S
H233 C219 0.931 . S
H234 C220 0.931 . S
H235 C221 0.933 . S
H236 C227 0.930 . S
H237 C228 0.931 . S
H238 C229 0.931 . S
H239 C230 0.933 . S
Dy240 O243 2.307 . S
Dy240 O245 2.395 . S
Dy240 O246 2.379 . S
Dy240 O248 2.339 . S
Dy240 O250 2.298 . S
Dy240 O254 2.275 . S
Dy240 C262 2.738 . S
Dy241 O244 2.298 . S
Dy241 O247 2.275 . S
Dy241 O249 2.307 . S
Dy241 O251 2.395 . S
Dy241 O252 2.379 . S
Dy241 O255 2.339 . S
Dy241 C271 2.738 . S
C242 O254 1.254 . S
C242 O255 1.257 . S
O243 Dy240 2.307 . S
O243 C253 1.266 . S
O244 Dy241 2.298 . S
O244 C253 1.236 . S
O245 Dy240 2.395 . S
O245 C262 1.255 . S
O246 Dy240 2.379 . S
O246 C262 1.249 . S
O247 Dy241 2.275 . S
O247 C263 1.254 . S
O248 Dy240 2.339 . S
O248 C263 1.257 . S
O249 Dy241 2.307 . S
O249 C264 1.266 . S
O250 Dy240 2.298 . S
O250 C264 1.236 . S
O251 Dy241 2.395 . S
O251 C271 1.255 . S
O252 Dy241 2.379 . S
O252 C271 1.249 . S
C253 O243 1.266 . S
C253 O244 1.236 . S
O254 Dy240 2.275 . S
O254 C242 1.254 . S
O255 Dy241 2.339 . S
O255 C242 1.257 . S
C256 C259 1.344 . S
C256 C260 1.328 . S
C256 C262 1.516 . S
C257 C258 1.304 . S
C257 C261 1.323 . S
C258 C257 1.304 . S
C258 C259 1.371 . S
C258 H272 0.930 . S
C259 C256 1.344 . S
C259 C258 1.371 . S
C259 H273 0.931 . S
C260 C256 1.328 . S
C260 C261 1.433 . S
C260 H274 0.931 . S
C261 C257 1.323 . S
C261 C260 1.433 . S
C261 H275 0.933 . S
C262 Dy240 2.738 . S
C262 O245 1.255 . S
C262 O246 1.249 . S
C262 C256 1.516 . S
C263 O247 1.254 . S
C263 O248 1.257 . S
C264 O249 1.266 . S
C264 O250 1.236 . S
C265 C268 1.344 . S
C265 C269 1.328 . S
C265 C271 1.516 . S
C266 C267 1.304 . S
C266 C270 1.323 . S
C267 C266 1.304 . S
C267 C268 1.371 . S
C267 H276 0.930 . S
C268 C265 1.344 . S
C268 C267 1.371 . S
C268 H277 0.931 . S
C269 C265 1.328 . S
C269 C270 1.433 . S
C269 H278 0.931 . S
C270 C266 1.323 . S
C270 C269 1.433 . S
C270 H279 0.933 . S
C271 Dy241 2.738 . S
C271 O251 1.255 . S
C271 O252 1.249 . S
C271 C265 1.516 . S
H272 C258 0.930 . S
H273 C259 0.931 . S
H274 C260 0.931 . S
H275 C261 0.933 . S
H276 C267 0.930 . S
H277 C268 0.931 . S
H278 C269 0.931 . S
H279 C270 0.933 . S
Dy280 O283 2.307 . S
Dy280 O285 2.395 . S
Dy280 O286 2.379 . S
Dy280 O288 2.339 . S
Dy280 O290 2.298 . S
Dy280 O294 2.275 . S
Dy280 C302 2.738 . S
Dy281 O284 2.298 . S
Dy281 O287 2.275 . S
Dy281 O289 2.307 . S
Dy281 O291 2.395 . S
Dy281 O292 2.379 . S
Dy281 O295 2.339 . S
Dy281 C311 2.738 . S
C282 O294 1.254 . S
C282 O295 1.257 . S
O283 Dy280 2.307 . S
O283 C293 1.266 . S
O284 Dy281 2.298 . S
O284 C293 1.236 . S
O285 Dy280 2.395 . S
O285 C302 1.255 . S
O286 Dy280 2.379 . S
O286 C302 1.249 . S
O287 Dy281 2.275 . S
O287 C303 1.254 . S
O288 Dy280 2.339 . S
O288 C303 1.257 . S
O289 Dy281 2.307 . S
O289 C304 1.266 . S
O290 Dy280 2.298 . S
O290 C304 1.236 . S
O291 Dy281 2.395 . S
O291 C311 1.255 . S
O292 Dy281 2.379 . S
O292 C311 1.249 . S
C293 O283 1.266 . S
C293 O284 1.236 . S
O294 Dy280 2.275 . S
O294 C282 1.254 . S
O295 Dy281 2.339 . S
O295 C282 1.257 . S
C296 C299 1.344 . S
C296 C300 1.328 . S
C296 C302 1.516 . S
C297 C298 1.304 . S
C297 C301 1.323 1_556 S
C298 C297 1.304 . S
C298 C299 1.371 . S
C298 H312 0.930 . S
C299 C296 1.344 . S
C299 C298 1.371 . S
C299 H313 0.931 . S
C300 C296 1.328 . S
C300 C301 1.433 1_556 S
C300 H314 0.931 . S
C301 C297 1.323 1_554 S
C301 C300 1.433 1_554 S
C301 H315 0.933 . S
C302 Dy280 2.738 . S
C302 O285 1.255 . S
C302 O286 1.249 . S
C302 C296 1.516 . S
C303 O287 1.254 . S
C303 O288 1.257 . S
C304 O289 1.266 . S
C304 O290 1.236 . S
C305 C308 1.344 . S
C305 C309 1.328 . S
C305 C311 1.516 . S
C306 C307 1.304 . S
C306 C310 1.323 . S
C307 C306 1.304 . S
C307 C308 1.371 . S
C307 H316 0.930 . S
C308 C305 1.344 . S
C308 C307 1.371 . S
C308 H317 0.931 . S
C309 C305 1.328 . S
C309 C310 1.433 . S
C309 H318 0.931 . S
C310 C306 1.323 . S
C310 C309 1.433 . S
C310 H319 0.933 . S
C311 Dy281 2.738 . S
C311 O291 1.255 . S
C311 O292 1.249 . S
C311 C305 1.516 . S
H312 C298 0.930 . S
H313 C299 0.931 . S
H314 C300 0.931 . S
H315 C301 0.933 . S
H316 C307 0.930 . S
H317 C308 0.931 . S
H318 C309 0.931 . S
H319 C310 0.933 . S
Co320 O323 2.042 . S
Co320 O330 2.264 . S
Co320 O349 2.286 . S
Co320 O350 2.069 . S
Co320 O352 2.015 1_455 S
Co321 O323 2.122 . S
Co321 O329 2.073 . S
Co321 O330 2.327 . S
Co321 O331 1.976 1_455 S
Co322 O323 2.087 1_545 S
Co322 O325 2.087 1_455 S
Co322 O332 2.124 1_455 S
Co322 O333 2.143 . S
Co322 O337 2.111 . S
Co322 O351 2.143 1_445 S
O323 Co320 2.042 . S
O323 Co321 2.122 . S
O323 Co322 2.087 1_565 S
O323 H324 0.980 1_565 S
H324 O323 0.980 1_545 S
O325 Co322 2.087 1_655 S
O325 Co326 2.042 . S
O325 Co327 2.122 . S
O325 H328 0.980 . S
Co326 O325 2.042 . S
Co326 O334 2.286 . S
Co326 O335 2.069 . S
Co326 O336 2.015 1_655 S
Co326 O339 2.264 . S
Co327 O325 2.122 . S
Co327 O338 1.976 1_655 S
Co327 O339 2.327 . S
Co327 O340 2.073 . S
H328 O325 0.980 . S
O329 Co321 2.073 . S
O329 C344 1.245 . S
O330 Co320 2.264 . S
O330 Co321 2.327 . S
O330 C344 1.257 . S
O331 Co321 1.976 1_655 S
O331 C343 1.251 . S
O332 Co322 2.124 1_655 S
O332 C343 1.236 1_545 S
O333 Co322 2.143 . S
O333 C346 1.246 . S
O334 Co326 2.286 . S
O334 C345 1.259 . S
O335 Co326 2.069 . S
O335 C345 1.289 . S
O336 Co326 2.015 1_455 S
O336 C346 1.257 . S
O337 Co322 2.111 . S
O337 C347 1.274 . S
O338 Co327 1.976 1_455 S
O338 C347 1.251 . S
O339 Co326 2.264 . S
O339 Co327 2.327 . S
O339 C348 1.257 . S
O340 Co327 2.073 . S
O340 C348 1.245 . S
C341 O349 1.259 . S
C341 O350 1.289 . S
C342 O351 1.246 . S
C342 O352 1.257 . S
C343 O331 1.251 . S
C343 O332 1.236 1_565 S
C344 O329 1.245 . S
C344 O330 1.257 . S
C345 O334 1.259 . S
C345 O335 1.289 . S
C346 O333 1.246 . S
C346 O336 1.257 . S
C347 O337 1.274 . S
C347 O338 1.251 . S
C348 O339 1.257 . S
C348 O340 1.245 . S
O349 Co320 2.286 . S
O349 C341 1.259 . S
O350 Co320 2.069 . S
O350 C341 1.289 . S
O351 Co322 2.143 1_665 S
O351 C342 1.246 . S
O352 Co320 2.015 1_655 S
O352 C342 1.257 . S
Co353 O356 2.042 1_566 S
Co353 O363 2.264 1_556 S
Co353 O382 2.286 . S
Co353 O383 2.069 . S
Co353 O385 2.015 . S
Co354 O356 2.122 1_565 S
Co354 O362 2.073 . S
Co354 O363 2.327 . S
Co354 O364 1.976 . S
Co355 O356 2.087 . S
Co355 O358 2.087 1_554 S
Co355 O365 2.111 . S
Co355 O366 2.143 . S
Co355 O370 2.111 1_554 S
Co355 O384 2.143 1_544 S
O356 Co353 2.042 1_544 S
O356 Co354 2.122 1_545 S
O356 Co355 2.087 . S
O356 H357 0.980 . S
H357 O356 0.980 . S
O358 Co355 2.087 1_556 S
O358 Co359 2.042 1_556 S
O358 Co360 2.122 . S
O358 H361 0.980 . S
Co359 O358 2.042 1_554 S
Co359 O367 2.286 . S
Co359 O368 2.069 . S
Co359 O369 2.015 . S
Co359 O372 2.264 1_554 S
Co360 O358 2.122 . S
Co360 O371 1.976 . S
Co360 O372 2.327 . S
Co360 O373 2.073 . S
H361 O358 0.980 . S
O362 Co354 2.073 . S
O362 C377 1.245 . S
O363 Co353 2.264 1_554 S
O363 Co354 2.327 . S
O363 C377 1.257 . S
O364 Co354 1.976 . S
O364 C376 1.251 . S
O365 Co355 2.111 . S
O365 C376 1.274 1_545 S
O366 Co355 2.143 . S
O366 C379 1.246 . S
O367 Co359 2.286 . S
O367 C378 1.259 . S
O368 Co359 2.069 . S
O368 C378 1.289 . S
O369 Co359 2.015 . S
O369 C379 1.257 . S
O370 Co355 2.111 1_556 S
O370 C380 1.274 . S
O371 Co360 1.976 . S
O371 C380 1.251 . S
O372 Co359 2.264 1_556 S
O372 Co360 2.327 . S
O372 C381 1.257 . S
O373 Co360 2.073 . S
O373 C381 1.245 . S
C374 O382 1.259 . S
C374 O383 1.289 . S
C375 O384 1.246 . S
C375 O385 1.257 . S
C376 O364 1.251 . S
C376 O365 1.274 1_565 S
C377 O362 1.245 . S
C377 O363 1.257 . S
C378 O367 1.259 . S
C378 O368 1.289 . S
C379 O366 1.246 . S
C379 O369 1.257 . S
C380 O370 1.274 . S
C380 O371 1.251 . S
C381 O372 1.257 . S
C381 O373 1.245 . S
O382 Co353 2.286 . S
O382 C374 1.259 . S
O383 Co353 2.069 . S
O383 C374 1.289 . S
O384 Co355 2.143 1_566 S
O384 C375 1.246 . S
O385 Co353 2.015 . S
O385 C375 1.257 . S
Co386 O389 2.042 . S
Co386 O396 2.264 . S
Co386 O415 2.286 1_554 S
Co386 O416 2.069 . S
Co386 O418 2.015 1_455 S
Co387 O389 2.122 . S
Co387 O395 2.073 . S
Co387 O396 2.327 . S
Co387 O397 1.976 1_455 S
Co388 O389 2.087 . S
Co388 O391 2.087 1_455 S
Co388 O398 2.111 1_455 S
Co388 O399 2.143 . S
Co388 O403 2.111 . S
Co388 O417 2.143 1_455 S
O389 Co386 2.042 . S
O389 Co387 2.122 . S
O389 Co388 2.087 . S
O389 H390 0.980 . S
H390 O389 0.980 . S
O391 Co388 2.087 1_655 S
O391 Co392 2.042 . S
O391 Co393 2.122 1_554 S
O391 H394 0.980 . S
Co392 O391 2.042 . S
Co392 O400 2.286 . S
Co392 O401 2.069 . S
Co392 O402 2.015 1_655 S
Co392 O405 2.264 . S
Co393 O391 2.122 1_556 S
Co393 O404 1.976 1_656 S
Co393 O405 2.327 1_556 S
Co393 O406 2.073 . S
H394 O391 0.980 . S
O395 Co387 2.073 . S
O395 C410 1.245 . S
O396 Co386 2.264 . S
O396 Co387 2.327 . S
O396 C410 1.257 . S
O397 Co387 1.976 1_655 S
O397 C409 1.251 . S
O398 Co388 2.111 1_655 S
O398 C409 1.274 . S
O399 Co388 2.143 . S
O399 C412 1.246 . S
O400 Co392 2.286 . S
O400 C411 1.259 . S
O401 Co392 2.069 . S
O401 C411 1.289 . S
O402 Co392 2.015 1_455 S
O402 C412 1.257 . S
O403 Co388 2.111 . S
O403 C413 1.274 . S
O404 Co393 1.976 1_454 S
O404 C413 1.253 . S
O405 Co392 2.264 . S
O405 Co393 2.327 1_554 S
O405 C414 1.257 . S
O406 Co393 2.073 . S
O406 C414 1.245 1_556 S
C407 O415 1.259 1_554 S
C407 O416 1.289 . S
C408 O417 1.246 . S
C408 O418 1.257 . S
C409 O397 1.251 . S
C409 O398 1.274 . S
C410 O395 1.245 . S
C410 O396 1.257 . S
C411 O400 1.259 . S
C411 O401 1.289 . S
C412 O399 1.246 . S
C412 O402 1.257 . S
C413 O403 1.274 . S
C413 O404 1.253 . S
C414 O405 1.257 . S
C414 O406 1.245 1_554 S
O415 Co386 2.286 1_556 S
O415 C407 1.259 1_556 S
O416 Co386 2.069 . S
O416 C407 1.289 . S
O417 Co388 2.143 1_655 S
O417 C408 1.246 . S
O418 Co386 2.015 1_655 S
O418 C408 1.257 . S
Co419 O422 2.042 1_556 S
Co419 O429 2.264 1_556 S
Co419 O448 2.286 . S
Co419 O449 2.069 . S
Co419 O451 2.015 . S
Co420 O422 2.122 . S
Co420 O428 2.073 . S
Co420 O429 2.327 . S
Co420 O430 1.976 . S
Co421 O422 2.087 . S
Co421 O424 2.087 . S
Co421 O431 2.111 . S
Co421 O432 2.143 . S
Co421 O436 2.111 1_554 S
Co421 O450 2.143 1_554 S
O422 Co419 2.042 1_554 S
O422 Co420 2.122 . S
O422 Co421 2.087 . S
O422 H423 0.980 . S
H423 O422 0.980 . S
O424 Co421 2.087 . S
O424 Co425 2.042 . S
O424 Co426 2.122 1_554 S
O424 H427 0.980 . S
Co425 O424 2.042 . S
Co425 O433 2.286 . S
Co425 O434 2.069 . S
Co425 O435 2.015 . S
Co425 O438 2.264 1_554 S
Co426 O424 2.122 1_556 S
Co426 O437 1.976 . S
Co426 O438 2.327 . S
Co426 O439 2.073 . S
H427 O424 0.980 . S
O428 Co420 2.073 . S
O428 C443 1.245 . S
O429 Co419 2.264 1_554 S
O429 Co420 2.327 . S
O429 C443 1.257 . S
O430 Co420 1.976 . S
O430 C442 1.251 . S
O431 Co421 2.111 . S
O431 C442 1.274 . S
O432 Co421 2.143 . S
O432 C445 1.246 . S
O433 Co425 2.286 . S
O433 C444 1.259 . S
O434 Co425 2.069 . S
O434 C444 1.289 . S
O435 Co425 2.015 . S
O435 C445 1.257 . S
O436 Co421 2.111 1_556 S
O436 C446 1.274 . S
O437 Co426 1.976 . S
O437 C446 1.251 . S
O438 Co425 2.264 1_556 S
O438 Co426 2.327 . S
O438 C447 1.257 . S
O439 Co426 2.073 . S
O439 C447 1.245 . S
C440 O448 1.259 . S
C440 O449 1.289 . S
C441 O450 1.246 . S
C441 O451 1.257 . S
C442 O430 1.251 . S
C442 O431 1.274 . S
C443 O428 1.245 . S
C443 O429 1.257 . S
C444 O433 1.259 . S
C444 O434 1.289 . S
C445 O432 1.246 . S
C445 O435 1.257 . S
C446 O436 1.274 . S
C446 O437 1.251 . S
C447 O438 1.257 . S
C447 O439 1.245 . S
O448 Co419 2.286 . S
O448 C440 1.259 . S
O449 Co419 2.069 . S
O449 C440 1.289 . S
O450 Co421 2.143 1_556 S
O450 C441 1.246 . S
O451 Co419 2.015 . S
O451 C441 1.257 . S
Co452 O455 2.042 . S
Co452 O462 2.264 . S
Co452 O481 2.286 . S
Co452 O482 2.069 . S
Co452 O484 2.015 . S
Co453 O455 2.122 . S
Co453 O461 2.073 . S
Co453 O462 2.327 . S
Co453 O463 1.976 . S
Co454 O455 2.087 . S
Co454 O457 2.087 . S
Co454 O464 2.111 . S
Co454 O465 2.143 1_455 S
Co454 O469 2.111 . S
Co454 O483 2.143 . S
O455 Co452 2.042 . S
O455 Co453 2.122 . S
O455 Co454 2.087 . S
O455 H456 0.980 . S
H456 O455 0.980 . S
O457 Co454 2.087 . S
O457 Co458 2.042 1_455 S
O457 Co459 2.122 1_455 S
O457 H460 0.980 . S
Co458 O457 2.042 1_655 S
Co458 O466 2.286 . S
Co458 O467 2.069 . S
Co458 O468 2.015 . S
Co458 O471 2.264 . S
Co459 O457 2.122 1_655 S
Co459 O470 1.976 . S
Co459 O471 2.327 . S
Co459 O472 2.073 . S
H460 O457 0.980 . S
O461 Co453 2.073 . S
O461 C476 1.245 . S
O462 Co452 2.264 . S
O462 Co453 2.327 . S
O462 C476 1.257 . S
O463 Co453 1.976 . S
O463 C475 1.251 . S
O464 Co454 2.111 . S
O464 C475 1.274 . S
O465 Co454 2.143 1_655 S
O465 C478 1.246 . S
O466 Co458 2.286 . S
O466 C477 1.259 . S
O467 Co458 2.069 . S
O467 C477 1.289 . S
O468 Co458 2.015 . S
O468 C478 1.257 . S
O469 Co454 2.111 . S
O469 C479 1.274 1_455 S
O470 Co459 1.976 . S
O470 C479 1.251 . S
O471 Co458 2.264 . S
O471 Co459 2.327 . S
O471 C480 1.257 . S
O472 Co459 2.073 . S
O472 C480 1.245 . S
C473 O481 1.259 . S
C473 O482 1.289 . S
C474 O483 1.246 . S
C474 O484 1.257 . S
C475 O463 1.251 . S
C475 O464 1.274 . S
C476 O461 1.245 . S
C476 O462 1.257 . S
C477 O466 1.259 . S
C477 O467 1.289 . S
C478 O465 1.246 . S
C478 O468 1.257 . S
C479 O469 1.274 1_655 S
C479 O470 1.251 . S
C480 O471 1.257 . S
C480 O472 1.245 . S
O481 Co452 2.286 . S
O481 C473 1.259 . S
O482 Co452 2.069 . S
O482 C473 1.289 . S
O483 Co454 2.143 . S
O483 C474 1.246 . S
O484 Co452 2.015 . S
O484 C474 1.257 . S
Co485 O488 2.042 . S
Co485 O495 2.264 . S
Co485 O514 2.286 . S
Co485 O515 2.069 . S
Co485 O517 2.015 1_565 S
Co486 O488 2.122 . S
Co486 O494 2.073 . S
Co486 O495 2.327 . S
Co486 O496 1.976 1_565 S
Co487 O488 2.087 1_545 S
Co487 O490 2.087 . S
Co487 O497 2.111 . S
Co487 O498 2.143 1_545 S
Co487 O502 2.111 1_545 S
Co487 O516 2.143 . S
O488 Co485 2.042 . S
O488 Co486 2.122 . S
O488 Co487 2.087 1_565 S
O488 H489 0.980 . S
H489 O488 0.980 . S
O490 Co487 2.087 . S
O490 Co491 2.042 . S
O490 Co492 2.122 . S
O490 H493 0.980 . S
Co491 O490 2.042 . S
Co491 O499 2.286 . S
Co491 O500 2.069 . S
Co491 O501 2.015 1_545 S
Co491 O504 2.264 . S
Co492 O490 2.122 . S
Co492 O503 1.976 1_545 S
Co492 O504 2.327 . S
Co492 O505 2.073 . S
H493 O490 0.980 . S
O494 Co486 2.073 . S
O494 C509 1.245 . S
O495 Co485 2.264 . S
O495 Co486 2.327 . S
O495 C509 1.257 . S
O496 Co486 1.976 1_545 S
O496 C508 1.251 . S
O497 Co487 2.111 . S
O497 C508 1.274 . S
O498 Co487 2.143 1_565 S
O498 C511 1.246 . S
O499 Co491 2.286 . S
O499 C510 1.259 . S
O500 Co491 2.069 . S
O500 C510 1.289 . S
O501 Co491 2.015 1_565 S
O501 C511 1.257 . S
O502 Co487 2.111 1_565 S
O502 C512 1.274 . S
O503 Co492 1.976 1_565 S
O503 C512 1.251 . S
O504 Co491 2.264 . S
O504 Co492 2.327 . S
O504 C513 1.257 . S
O505 Co492 2.073 . S
O505 C513 1.245 . S
C506 O514 1.259 . S
C506 O515 1.289 . S
C507 O516 1.246 . S
C507 O517 1.257 . S
C508 O496 1.251 . S
C508 O497 1.274 . S
C509 O494 1.245 . S
C509 O495 1.257 . S
C510 O499 1.259 . S
C510 O500 1.289 . S
C511 O498 1.246 . S
C511 O501 1.257 . S
C512 O502 1.274 . S
C512 O503 1.251 . S
C513 O504 1.257 . S
C513 O505 1.245 . S
O514 Co485 2.286 . S
O514 C506 1.259 . S
O515 Co485 2.069 . S
O515 C506 1.289 . S
O516 Co487 2.143 . S
O516 C507 1.246 . S
O517 Co485 2.015 1_545 S
O517 C507 1.257 . S
H518 C524 0.930 . S
H519 C527 0.930 . S
H520 C528 0.930 . S
H521 C529 0.930 . S
H522 C532 0.930 . S
H523 C533 0.930 . S
C524 H518 0.930 . S
C524 C525 1.355 . S
C524 C526 1.415 . S
C525 C524 1.355 . S
C525 C527 1.419 . S
C526 C524 1.415 . S
C526 C531 1.425 . S
C526 C533 1.409 . S
C527 H519 0.930 . S
C527 C525 1.419 . S
C527 C528 1.362 . S
C528 H520 0.930 . S
C528 C527 1.362 . S
C528 C531 1.409 . S
C529 H521 0.930 . S
C529 C530 1.355 . S
C529 C531 1.415 . S
C530 C529 1.355 . S
C530 C532 1.419 . S
C531 C526 1.425 . S
C531 C528 1.409 . S
C531 C529 1.415 . S
C532 H522 0.930 . S
C532 C530 1.419 . S
C532 C533 1.362 . S
C533 H523 0.930 . S
C533 C526 1.409 . S
C533 C532 1.362 . S
H534 C540 0.930 . S
H535 C543 0.930 . S
H536 C544 0.930 . S
H537 C545 0.930 . S
H538 C548 0.930 . S
H539 C549 0.930 . S
C540 H534 0.930 . S
C540 C541 1.355 . S
C540 C542 1.415 . S
C541 C540 1.355 . S
C541 C543 1.419 . S
C542 C540 1.415 . S
C542 C547 1.425 . S
C542 C549 1.409 . S
C543 H535 0.930 . S
C543 C541 1.419 . S
C543 C544 1.362 . S
C544 H536 0.930 . S
C544 C543 1.362 . S
C544 C547 1.409 . S
C545 H537 0.930 . S
C545 C546 1.355 . S
C545 C547 1.415 . S
C546 C545 1.355 . S
C546 C548 1.419 . S
C547 C542 1.425 . S
C547 C544 1.409 . S
C547 C545 1.415 . S
C548 H538 0.930 . S
C548 C546 1.419 . S
C548 C549 1.362 . S
C549 H539 0.930 . S
C549 C542 1.409 . S
C549 C548 1.362 . S
H550 C556 0.930 . S
H551 C559 0.930 . S
H552 C560 0.930 . S
H553 C561 0.930 . S
H554 C564 0.930 . S
H555 C565 0.930 . S
C556 H550 0.930 . S
C556 C557 1.355 . S
C556 C558 1.415 . S
C557 C556 1.355 . S
C557 C559 1.419 . S
C558 C556 1.415 . S
C558 C563 1.425 . S
C558 C565 1.409 . S
C559 H551 0.930 . S
C559 C557 1.419 . S
C559 C560 1.362 . S
C560 H552 0.930 . S
C560 C559 1.362 . S
C560 C563 1.409 . S
C561 H553 0.930 . S
C561 C562 1.355 . S
C561 C563 1.415 . S
C562 C561 1.355 . S
C562 C564 1.419 . S
C563 C558 1.425 . S
C563 C560 1.409 . S
C563 C561 1.415 . S
C564 H554 0.930 . S
C564 C562 1.419 . S
C564 C565 1.362 . S
C565 H555 0.930 . S
C565 C558 1.409 . S
C565 C564 1.362 . S
H566 C572 0.930 . S
H567 C575 0.930 . S
H568 C576 0.930 . S
H569 C577 0.930 . S
H570 C580 0.930 . S
H571 C581 0.930 . S
C572 H566 0.930 . S
C572 C573 1.355 . S
C572 C574 1.415 . S
C573 C572 1.355 . S
C573 C575 1.419 . S
C574 C572 1.415 . S
C574 C579 1.425 . S
C574 C581 1.409 . S
C575 H567 0.930 . S
C575 C573 1.419 . S
C575 C576 1.362 . S
C576 H568 0.930 . S
C576 C575 1.362 . S
C576 C579 1.409 . S
C577 H569 0.930 . S
C577 C578 1.355 . S
C577 C579 1.415 . S
C578 C577 1.355 . S
C578 C580 1.419 . S
C579 C574 1.425 . S
C579 C576 1.409 . S
C579 C577 1.415 . S
C580 H570 0.930 . S
C580 C578 1.419 . S
C580 C581 1.362 . S
C581 H571 0.930 . S
C581 C574 1.409 . S
C581 C580 1.362 . S
H582 C588 0.930 . S
H583 C591 0.930 . S
H584 C592 0.930 . S
H585 C593 0.930 . S
H586 C596 0.930 . S
H587 C597 0.930 . S
C588 H582 0.930 . S
C588 C589 1.355 . S
C588 C590 1.415 . S
C589 C588 1.355 . S
C589 C591 1.419 . S
C590 C588 1.415 . S
C590 C595 1.425 . S
C590 C597 1.409 . S
C591 H583 0.930 . S
C591 C589 1.419 . S
C591 C592 1.362 . S
C592 H584 0.930 . S
C592 C591 1.362 . S
C592 C595 1.409 . S
C593 H585 0.930 . S
C593 C594 1.355 . S
C593 C595 1.415 . S
C594 C593 1.355 . S
C594 C596 1.419 . S
C595 C590 1.425 . S
C595 C592 1.409 . S
C595 C593 1.415 . S
C596 H586 0.930 . S
C596 C594 1.419 . S
C596 C597 1.362 . S
C597 H587 0.930 . S
C597 C590 1.409 . S
C597 C596 1.362 . S
H598 C604 0.930 . S
H599 C607 0.930 . S
H600 C608 0.930 . S
H601 C609 0.930 . S
H602 C612 0.930 . S
H603 C613 0.930 . S
C604 H598 0.930 . S
C604 C605 1.355 . S
C604 C606 1.415 . S
C605 C604 1.355 . S
C605 C607 1.419 . S
C606 C604 1.415 . S
C606 C611 1.425 . S
C606 C613 1.409 . S
C607 H599 0.930 . S
C607 C605 1.419 . S
C607 C608 1.362 . S
C608 H600 0.930 . S
C608 C607 1.362 . S
C608 C611 1.409 . S
C609 H601 0.930 . S
C609 C610 1.355 . S
C609 C611 1.415 . S
C610 C609 1.355 . S
C610 C612 1.419 . S
C611 C606 1.425 . S
C611 C608 1.409 . S
C611 C609 1.415 . S
C612 H602 0.930 . S
C612 C610 1.419 . S
C612 C613 1.362 . S
C613 H603 0.930 . S
C613 C606 1.409 . S
C613 C612 1.362 . S
H614 C620 0.930 . S
H615 C623 0.930 . S
H616 C624 0.930 . S
H617 C625 0.930 . S
H618 C628 0.930 . S
H619 C629 0.930 . S
C620 H614 0.930 . S
C620 C621 1.355 . S
C620 C622 1.415 . S
C621 C620 1.355 . S
C621 C623 1.419 . S
C622 C620 1.415 . S
C622 C627 1.425 . S
C622 C629 1.409 . S
C623 H615 0.930 . S
C623 C621 1.419 . S
C623 C624 1.362 . S
C624 H616 0.930 . S
C624 C623 1.362 . S
C624 C627 1.409 . S
C625 H617 0.930 . S
C625 C626 1.355 . S
C625 C627 1.415 . S
C626 C625 1.355 . S
C626 C628 1.419 . S
C627 C622 1.425 . S
C627 C624 1.409 . S
C627 C625 1.415 . S
C628 H618 0.930 . S
C628 C626 1.419 . S
C628 C629 1.362 . S
C629 H619 0.930 . S
C629 C622 1.409 . S
C629 C628 1.362 . S
H630 C636 0.930 . S
H631 C639 0.930 . S
H632 C640 0.930 . S
H633 C641 0.930 . S
H634 C644 0.930 . S
H635 C645 0.930 . S
C636 H630 0.930 . S
C636 C637 1.355 . S
C636 C638 1.415 . S
C637 C636 1.355 . S
C637 C639 1.419 . S
C638 C636 1.415 . S
C638 C643 1.425 . S
C638 C645 1.409 . S
C639 H631 0.930 . S
C639 C637 1.419 . S
C639 C640 1.362 . S
C640 H632 0.930 . S
C640 C639 1.362 . S
C640 C643 1.409 . S
C641 H633 0.930 . S
C641 C642 1.355 . S
C641 C643 1.415 . S
C642 C641 1.355 . S
C642 C644 1.419 . S
C643 C638 1.425 . S
C643 C640 1.409 . S
C643 C641 1.415 . S
C644 H634 0.930 . S
C644 C642 1.419 . S
C644 C645 1.362 . S
C645 H635 0.930 . S
C645 C638 1.409 . S
C645 C644 1.362 . S
H646 C652 0.930 . S
H647 C655 0.930 . S
H648 C656 0.930 . S
H649 C657 0.930 . S
H650 C660 0.930 . S
H651 C661 0.930 . S
C652 H646 0.930 . S
C652 C653 1.355 . S
C652 C654 1.415 . S
C653 C652 1.355 . S
C653 C655 1.419 . S
C654 C652 1.415 . S
C654 C659 1.425 . S
C654 C661 1.409 . S
C655 H647 0.930 . S
C655 C653 1.419 . S
C655 C656 1.362 . S
C656 H648 0.930 . S
C656 C655 1.362 . S
C656 C659 1.409 . S
C657 H649 0.930 . S
C657 C658 1.355 . S
C657 C659 1.415 . S
C658 C657 1.355 . S
C658 C660 1.419 . S
C659 C654 1.425 . S
C659 C656 1.409 . S
C659 C657 1.415 . S
C660 H650 0.930 . S
C660 C658 1.419 . S
C660 C661 1.362 . S
C661 H651 0.930 . S
C661 C654 1.409 . S
C661 C660 1.362 . S
H662 C668 0.930 . S
H663 C671 0.930 . S
H664 C672 0.930 . S
H665 C673 0.930 . S
H666 C676 0.930 . S
H667 C677 0.930 . S
C668 H662 0.930 . S
C668 C669 1.355 . S
C668 C670 1.415 . S
C669 C668 1.355 . S
C669 C671 1.419 . S
C670 C668 1.415 . S
C670 C675 1.425 . S
C670 C677 1.409 . S
C671 H663 0.930 . S
C671 C669 1.419 . S
C671 C672 1.362 . S
C672 H664 0.930 . S
C672 C671 1.362 . S
C672 C675 1.409 . S
C673 H665 0.930 . S
C673 C674 1.355 . S
C673 C675 1.415 . S
C674 C673 1.355 . S
C674 C676 1.419 . S
C675 C670 1.425 . S
C675 C672 1.409 . S
C675 C673 1.415 . S
C676 H666 0.930 . S
C676 C674 1.419 . S
C676 C677 1.362 . S
C677 H667 0.930 . S
C677 C670 1.409 . S
C677 C676 1.362 . S
H678 C684 0.930 . S
H679 C687 0.930 . S
H680 C688 0.930 . S
H681 C689 0.930 . S
H682 C692 0.930 . S
H683 C693 0.930 . S
C684 H678 0.930 . S
C684 C685 1.355 . S
C684 C686 1.415 . S
C685 C684 1.355 . S
C685 C687 1.419 . S
C686 C684 1.415 . S
C686 C691 1.425 . S
C686 C693 1.409 . S
C687 H679 0.930 . S
C687 C685 1.419 . S
C687 C688 1.362 . S
C688 H680 0.930 . S
C688 C687 1.362 . S
C688 C691 1.409 . S
C689 H681 0.930 . S
C689 C690 1.355 . S
C689 C691 1.415 . S
C690 C689 1.355 . S
C690 C692 1.419 . S
C691 C686 1.425 . S
C691 C688 1.409 . S
C691 C689 1.415 . S
C692 H682 0.930 . S
C692 C690 1.419 . S
C692 C693 1.362 . S
C693 H683 0.930 . S
C693 C686 1.409 . S
C693 C692 1.362 . S
H694 C700 0.930 . S
H695 C703 0.930 . S
H696 C704 0.930 . S
H697 C705 0.930 . S
H698 C708 0.930 . S
H699 C709 0.930 . S
C700 H694 0.930 . S
C700 C701 1.355 . S
C700 C702 1.415 . S
C701 C700 1.355 . S
C701 C703 1.419 . S
C702 C700 1.415 . S
C702 C707 1.425 . S
C702 C709 1.409 . S
C703 H695 0.930 . S
C703 C701 1.419 . S
C703 C704 1.362 . S
C704 H696 0.930 . S
C704 C703 1.362 . S
C704 C707 1.409 . S
C705 H697 0.930 . S
C705 C706 1.355 . S
C705 C707 1.415 . S
C706 C705 1.355 . S
C706 C708 1.419 . S
C707 C702 1.425 . S
C707 C704 1.409 . S
C707 C705 1.415 . S
C708 H698 0.930 . S
C708 C706 1.419 . S
C708 C709 1.362 . S
C709 H699 0.930 . S
C709 C702 1.409 . S
C709 C708 1.362 . S
H710 C716 0.930 . S
H711 C719 0.930 . S
H712 C720 0.930 . S
H713 C721 0.930 . S
H714 C724 0.930 . S
H715 C725 0.930 . S
C716 H710 0.930 . S
C716 C717 1.355 . S
C716 C718 1.415 . S
C717 C716 1.355 . S
C717 C719 1.419 . S
C718 C716 1.415 . S
C718 C723 1.425 . S
C718 C725 1.409 . S
C719 H711 0.930 . S
C719 C717 1.419 . S
C719 C720 1.362 . S
C720 H712 0.930 . S
C720 C719 1.362 . S
C720 C723 1.409 . S
C721 H713 0.930 . S
C721 C722 1.355 . S
C721 C723 1.415 . S
C722 C721 1.355 . S
C722 C724 1.419 . S
C723 C718 1.425 . S
C723 C720 1.409 . S
C723 C721 1.415 . S
C724 H714 0.930 . S
C724 C722 1.419 . S
C724 C725 1.362 . S
C725 H715 0.930 . S
C725 C718 1.409 . S
C725 C724 1.362 . S
H726 C732 0.930 . S
H727 C735 0.930 . S
H728 C736 0.930 . S
H729 C737 0.930 . S
H730 C740 0.930 . S
H731 C741 0.930 . S
C732 H726 0.930 . S
C732 C733 1.355 . S
C732 C734 1.415 . S
C733 C732 1.355 . S
C733 C735 1.419 . S
C734 C732 1.415 . S
C734 C739 1.425 . S
C734 C741 1.409 1_556 S
C735 H727 0.930 . S
C735 C733 1.419 . S
C735 C736 1.362 . S
C736 H728 0.930 . S
C736 C735 1.362 . S
C736 C739 1.409 . S
C737 H729 0.930 . S
C737 C738 1.364 . S
C737 C739 1.415 . S
C738 C737 1.364 . S
C738 C740 1.412 1_556 S
C739 C734 1.425 . S
C739 C736 1.409 . S
C739 C737 1.415 . S
C740 H730 0.930 . S
C740 C738 1.412 1_554 S
C740 C741 1.362 . S
C741 H731 0.930 . S
C741 C734 1.409 1_554 S
C741 C740 1.362 . S
H742 C748 0.930 . S
H743 C751 0.930 . S
H744 C752 0.930 . S
H745 C753 0.930 . S
H746 C756 0.930 1_554 S
H747 C757 0.930 . S
C748 H742 0.930 . S
C748 C749 1.355 . S
C748 C750 1.415 . S
C749 C748 1.355 . S
C749 C751 1.419 . S
C750 C748 1.415 . S
C750 C755 1.425 . S
C750 C757 1.409 . S
C751 H743 0.930 . S
C751 C749 1.419 . S
C751 C752 1.362 . S
C752 H744 0.930 . S
C752 C751 1.362 . S
C752 C755 1.409 . S
C753 H745 0.930 . S
C753 C754 1.355 . S
C753 C755 1.415 . S
C754 C753 1.355 . S
C754 C756 1.419 . S
C755 C750 1.425 . S
C755 C752 1.409 . S
C755 C753 1.415 . S
C756 H746 0.930 1_556 S
C756 C754 1.419 . S
C756 C757 1.362 . S
C757 H747 0.930 . S
C757 C750 1.409 . S
C757 C756 1.362 . S
H758 C764 0.930 . S
H759 C767 0.930 . S
H760 C768 0.930 . S
H761 C769 0.930 . S
H762 C772 0.930 . S
H763 C773 0.930 . S
C764 H758 0.930 . S
C764 C765 1.355 1_556 S
C764 C766 1.415 . S
C765 C764 1.355 1_554 S
C765 C767 1.419 . S
C766 C764 1.415 . S
C766 C771 1.425 1_556 S
C766 C773 1.409 . S
C767 H759 0.930 . S
C767 C765 1.419 . S
C767 C768 1.362 . S
C768 H760 0.930 . S
C768 C767 1.362 . S
C768 C771 1.409 . S
C769 H761 0.930 . S
C769 C770 1.355 . S
C769 C771 1.415 . S
C770 C769 1.355 . S
C770 C772 1.419 1_554 S
C771 C766 1.425 1_554 S
C771 C768 1.409 . S
C771 C769 1.415 . S
C772 H762 0.930 . S
C772 C770 1.419 1_556 S
C772 C773 1.362 . S
C773 H763 0.930 . S
C773 C766 1.409 . S
C773 C772 1.362 . S
H774 C780 0.930 . S
H775 C783 0.930 . S
H776 C784 0.930 . S
H777 C785 0.930 . S
H778 C788 0.930 . S
H779 C789 0.930 . S
C780 H774 0.930 . S
C780 C781 1.355 . S
C780 C782 1.415 . S
C781 C780 1.355 . S
C781 C783 1.419 . S
C782 C780 1.415 . S
C782 C787 1.425 . S
C782 C789 1.409 . S
C783 H775 0.930 . S
C783 C781 1.419 . S
C783 C784 1.362 . S
C784 H776 0.930 . S
C784 C783 1.362 . S
C784 C787 1.409 . S
C785 H777 0.930 . S
C785 C786 1.355 . S
C785 C787 1.415 . S
C786 C785 1.355 . S
C786 C788 1.419 . S
C787 C782 1.425 . S
C787 C784 1.409 . S
C787 C785 1.415 . S
C788 H778 0.930 . S
C788 C786 1.419 . S
C788 C789 1.362 . S
C789 H779 0.930 . S
C789 C782 1.409 . S
C789 C788 1.362 . S
H790 C796 0.930 . S
H791 C799 0.930 . S
H792 C800 0.930 . S
H793 C801 0.930 . S
H794 C804 0.930 . S
H795 C805 0.930 . S
C796 H790 0.930 . S
C796 C797 1.355 . S
C796 C798 1.415 . S
C797 C796 1.355 . S
C797 C799 1.419 1_556 S
C798 C796 1.415 . S
C798 C803 1.425 1_556 S
C798 C805 1.409 . S
C799 H791 0.930 . S
C799 C797 1.419 1_554 S
C799 C800 1.362 . S
C800 H792 0.930 . S
C800 C799 1.362 . S
C800 C803 1.409 . S
C801 H793 0.930 . S
C801 C802 1.355 . S
C801 C803 1.415 . S
C802 C801 1.355 . S
C802 C804 1.419 1_554 S
C803 C798 1.425 1_554 S
C803 C800 1.409 . S
C803 C801 1.415 . S
C804 H794 0.930 . S
C804 C802 1.419 1_556 S
C804 C805 1.362 . S
C805 H795 0.930 . S
C805 C798 1.409 . S
C805 C804 1.362 . S
H806 C812 0.930 . S
H807 C815 0.930 . S
H808 C816 0.930 . S
H809 C817 0.930 . S
H810 C820 0.930 . S
H811 C821 0.930 . S
C812 H806 0.930 . S
C812 C813 1.355 . S
C812 C814 1.415 . S
C813 C812 1.355 . S
C813 C815 1.419 . S
C814 C812 1.415 . S
C814 C819 1.425 . S
C814 C821 1.409 . S
C815 H807 0.930 . S
C815 C813 1.419 . S
C815 C816 1.362 . S
C816 H808 0.930 . S
C816 C815 1.362 . S
C816 C819 1.409 . S
C817 H809 0.930 . S
C817 C818 1.355 . S
C817 C819 1.415 . S
C818 C817 1.355 . S
C818 C820 1.419 . S
C819 C814 1.425 . S
C819 C816 1.409 . S
C819 C817 1.415 . S
C820 H810 0.930 . S
C820 C818 1.419 . S
C820 C821 1.362 . S
C821 H811 0.930 . S
C821 C814 1.409 . S
C821 C820 1.362 . S
H822 C828 0.930 . S
H823 C831 0.930 . S
H824 C832 0.930 . S
H825 C833 0.930 . S
H826 C836 0.930 1_554 S
H827 C837 0.930 . S
C828 H822 0.930 . S
C828 C829 1.355 . S
C828 C830 1.415 . S
C829 C828 1.355 . S
C829 C831 1.419 . S
C830 C828 1.415 . S
C830 C835 1.425 . S
C830 C837 1.409 . S
C831 H823 0.930 . S
C831 C829 1.419 . S
C831 C832 1.362 . S
C832 H824 0.930 . S
C832 C831 1.362 . S
C832 C835 1.409 . S
C833 H825 0.930 . S
C833 C834 1.355 . S
C833 C835 1.415 . S
C834 C833 1.355 . S
C834 C836 1.419 . S
C835 C830 1.425 . S
C835 C832 1.409 . S
C835 C833 1.415 . S
C836 H826 0.930 1_556 S
C836 C834 1.419 . S
C836 C837 1.362 . S
C837 H827 0.930 . S
C837 C830 1.409 . S
C837 C836 1.362 . S
H838 C844 0.930 . S
H839 C847 0.930 . S
H840 C848 0.930 . S
H841 C849 0.930 . S
H842 C852 0.930 . S
H843 C853 0.930 . S
C844 H838 0.930 . S
C844 C845 1.355 . S
C844 C846 1.415 . S
C845 C844 1.355 . S
C845 C847 1.419 . S
C846 C844 1.415 . S
C846 C851 1.425 . S
C846 C853 1.409 . S
C847 H839 0.930 . S
C847 C845 1.419 . S
C847 C848 1.362 . S
C848 H840 0.930 . S
C848 C847 1.362 . S
C848 C851 1.409 . S
C849 H841 0.930 . S
C849 C850 1.355 . S
C849 C851 1.415 . S
C850 C849 1.355 . S
C850 C852 1.419 . S
C851 C846 1.425 . S
C851 C848 1.409 . S
C851 C849 1.415 . S
C852 H842 0.930 . S
C852 C850 1.419 . S
C852 C853 1.362 . S
C853 H843 0.930 . S
C853 C846 1.409 . S
C853 C852 1.362 . S
H854 C860 0.930 . S
H855 C863 0.930 . S
H856 C864 0.930 . S
H857 C865 0.930 . S
H858 C868 0.930 . S
H859 C869 0.930 . S
C860 H854 0.930 . S
C860 C861 1.355 . S
C860 C862 1.415 . S
C861 C860 1.355 . S
C861 C863 1.419 . S
C862 C860 1.415 . S
C862 C867 1.425 . S
C862 C869 1.409 . S
C863 H855 0.930 . S
C863 C861 1.419 . S
C863 C864 1.362 . S
C864 H856 0.930 . S
C864 C863 1.362 . S
C864 C867 1.409 . S
C865 H857 0.930 . S
C865 C866 1.355 . S
C865 C867 1.415 . S
C866 C865 1.355 . S
C866 C868 1.419 . S
C867 C862 1.425 . S
C867 C864 1.409 . S
C867 C865 1.415 . S
C868 H858 0.930 . S
C868 C866 1.419 . S
C868 C869 1.362 . S
C869 H859 0.930 . S
C869 C862 1.409 . S
C869 C868 1.362 . S
H870 C876 0.930 . S
H871 C879 0.930 . S
H872 C880 0.930 . S
H873 C881 0.930 . S
H874 C884 0.930 . S
H875 C885 0.930 . S
C876 H870 0.930 . S
C876 C877 1.355 . S
C876 C878 1.415 . S
C877 C876 1.355 . S
C877 C879 1.419 . S
C878 C876 1.415 . S
C878 C883 1.425 . S
C878 C885 1.409 . S
C879 H871 0.930 . S
C879 C877 1.419 . S
C879 C880 1.362 . S
C880 H872 0.930 . S
C880 C879 1.362 . S
C880 C883 1.409 . S
C881 H873 0.930 . S
C881 C882 1.355 . S
C881 C883 1.415 . S
C882 C881 1.355 . S
C882 C884 1.419 . S
C883 C878 1.425 . S
C883 C880 1.409 . S
C883 C881 1.415 . S
C884 H874 0.930 . S
C884 C882 1.419 . S
C884 C885 1.362 . S
C885 H875 0.930 . S
C885 C878 1.409 . S
C885 C884 1.362 . S
H886 C892 0.930 . S
H887 C895 0.930 . S
H888 C896 0.930 . S
H889 C897 0.930 . S
H890 C900 0.930 . S
H891 C901 0.930 . S
C892 H886 0.930 . S
C892 C893 1.355 . S
C892 C894 1.415 . S
C893 C892 1.355 . S
C893 C895 1.419 . S
C894 C892 1.415 . S
C894 C899 1.425 . S
C894 C901 1.409 . S
C895 H887 0.930 . S
C895 C893 1.419 . S
C895 C896 1.362 . S
C896 H888 0.930 . S
C896 C895 1.362 . S
C896 C899 1.409 . S
C897 H889 0.930 . S
C897 C898 1.355 . S
C897 C899 1.415 . S
C898 C897 1.355 . S
C898 C900 1.419 . S
C899 C894 1.425 . S
C899 C896 1.409 . S
C899 C897 1.415 . S
C900 H890 0.930 . S
C900 C898 1.419 . S
C900 C901 1.362 . S
C901 H891 0.930 . S
C901 C894 1.409 . S
C901 C900 1.362 . S
H902 C908 0.930 . S
H903 C911 0.930 . S
H904 C912 0.930 . S
H905 C913 0.930 . S
H906 C916 0.930 . S
H907 C917 0.930 . S
C908 H902 0.930 . S
C908 C909 1.355 . S
C908 C910 1.415 . S
C909 C908 1.355 . S
C909 C911 1.419 . S
C910 C908 1.415 . S
C910 C915 1.425 . S
C910 C917 1.409 . S
C911 H903 0.930 . S
C911 C909 1.419 . S
C911 C912 1.362 . S
C912 H904 0.930 . S
C912 C911 1.362 . S
C912 C915 1.409 . S
C913 H905 0.930 . S
C913 C914 1.355 . S
C913 C915 1.415 . S
C914 C913 1.355 . S
C914 C916 1.419 . S
C915 C910 1.425 . S
C915 C912 1.409 . S
C915 C913 1.415 . S
C916 H906 0.930 . S
C916 C914 1.419 . S
C916 C917 1.362 . S
C917 H907 0.930 . S
C917 C910 1.409 . S
C917 C916 1.362 . S
H918 C924 0.930 . S
H919 C927 0.930 . S
H920 C928 0.930 . S
H921 C929 0.930 . S
H922 C932 0.930 . S
H923 C933 0.930 . S
C924 H918 0.930 . S
C924 C925 1.355 . S
C924 C926 1.415 . S
C925 C924 1.355 . S
C925 C927 1.419 . S
C926 C924 1.415 . S
C926 C931 1.425 . S
C926 C933 1.409 . S
C927 H919 0.930 . S
C927 C925 1.419 . S
C927 C928 1.362 . S
C928 H920 0.930 . S
C928 C927 1.362 . S
C928 C931 1.409 . S
C929 H921 0.930 . S
C929 C930 1.355 . S
C929 C931 1.415 . S
C930 C929 1.355 . S
C930 C932 1.419 . S
C931 C926 1.425 . S
C931 C928 1.409 . S
C931 C929 1.415 . S
C932 H922 0.930 . S
C932 C930 1.419 . S
C932 C933 1.362 . S
C933 H923 0.930 . S
C933 C926 1.409 . S
C933 C932 1.362 . S
H934 C940 0.930 . S
H935 C943 0.930 . S
H936 C944 0.930 . S
H937 C945 0.930 . S
H938 C948 0.930 . S
H939 C949 0.930 . S
C940 H934 0.930 . S
C940 C941 1.355 . S
C940 C942 1.415 . S
C941 C940 1.355 . S
C941 C943 1.419 . S
C942 C940 1.415 . S
C942 C947 1.425 . S
C942 C949 1.409 . S
C943 H935 0.930 . S
C943 C941 1.419 . S
C943 C944 1.362 . S
C944 H936 0.930 . S
C944 C943 1.362 . S
C944 C947 1.409 . S
C945 H937 0.930 . S
C945 C946 1.355 . S
C945 C947 1.415 . S
C946 C945 1.355 . S
C946 C948 1.419 . S
C947 C942 1.425 . S
C947 C944 1.409 . S
C947 C945 1.415 . S
C948 H938 0.930 . S
C948 C946 1.419 . S
C948 C949 1.362 . S
C949 H939 0.930 . S
C949 C942 1.409 . S
C949 C948 1.362 . S
H950 C956 0.930 . S
H951 C959 0.930 . S
H952 C960 0.930 . S
H953 C961 0.930 . S
H954 C964 0.930 . S
H955 C965 0.930 1_554 S
C956 H950 0.930 . S
C956 C957 1.355 . S
C956 C958 1.415 . S
C957 C956 1.355 . S
C957 C959 1.419 . S
C958 C956 1.415 . S
C958 C963 1.425 . S
C958 C965 1.409 . S
C959 H951 0.930 . S
C959 C957 1.419 . S
C959 C960 1.362 . S
C960 H952 0.930 . S
C960 C959 1.362 . S
C960 C963 1.409 . S
C961 H953 0.930 . S
C961 C962 1.355 . S
C961 C963 1.415 . S
C962 C961 1.355 . S
C962 C964 1.419 1_556 S
C963 C958 1.425 . S
C963 C960 1.409 . S
C963 C961 1.415 . S
C964 H954 0.930 . S
C964 C962 1.419 1_554 S
C964 C965 1.362 1_554 S
C965 H955 0.930 1_556 S
C965 C958 1.409 . S
C965 C964 1.362 1_556 S
H966 C972 0.930 . S
H967 C975 0.930 . S
H968 C976 0.930 . S
H969 C977 0.930 . S
H970 C980 0.930 . S
H971 C981 0.930 . S
C972 H966 0.930 . S
C972 C973 1.355 . S
C972 C974 1.415 . S
C973 C972 1.355 . S
C973 C975 1.419 . S
C974 C972 1.415 . S
C974 C979 1.425 . S
C974 C981 1.409 . S
C975 H967 0.930 . S
C975 C973 1.419 . S
C975 C976 1.362 . S
C976 H968 0.930 . S
C976 C975 1.362 . S
C976 C979 1.409 . S
C977 H969 0.930 . S
C977 C978 1.355 . S
C977 C979 1.415 . S
C978 C977 1.355 . S
C978 C980 1.419 . S
C979 C974 1.425 . S
C979 C976 1.409 . S
C979 C977 1.415 . S
C980 H970 0.930 . S
C980 C978 1.419 . S
C980 C981 1.362 . S
C981 H971 0.930 . S
C981 C974 1.409 . S
C981 C980 1.362 . S
H982 C988 0.930 . S
H983 C991 0.930 . S
H984 C992 0.930 . S
H985 C993 0.930 . S
H986 C996 0.930 . S
H987 C997 0.930 . S
C988 H982 0.930 . S
C988 C989 1.355 . S
C988 C990 1.415 . S
C989 C988 1.355 . S
C989 C991 1.419 . S
C990 C988 1.415 . S
C990 C995 1.425 . S
C990 C997 1.409 . S
C991 H983 0.930 . S
C991 C989 1.419 . S
C991 C992 1.362 . S
C992 H984 0.930 . S
C992 C991 1.362 . S
C992 C995 1.409 . S
C993 H985 0.930 . S
C993 C994 1.355 . S
C993 C995 1.415 . S
C994 C993 1.355 . S
C994 C996 1.419 . S
C995 C990 1.425 . S
C995 C992 1.409 . S
C995 C993 1.415 . S
C996 H986 0.930 . S
C996 C994 1.419 . S
C996 C997 1.362 . S
C997 H987 0.930 . S
C997 C990 1.409 . S
C997 C996 1.362 . S
H998 C1004 0.930 . S
H999 C1007 0.930 . S
H1000 C1008 0.930 . S
H1001 C1009 0.930 . S
H1002 C1012 0.930 . S
H1003 C1013 0.930 . S
C1004 H998 0.930 . S
C1004 C1005 1.355 . S
C1004 C1006 1.415 . S
C1005 C1004 1.355 . S
C1005 C1007 1.419 . S
C1006 C1004 1.415 . S
C1006 C1011 1.425 . S
C1006 C1013 1.409 . S
C1007 H999 0.930 . S
C1007 C1005 1.419 . S
C1007 C1008 1.362 . S
C1008 H1000 0.930 . S
C1008 C1007 1.362 . S
C1008 C1011 1.409 . S
C1009 H1001 0.930 . S
C1009 C1010 1.355 . S
C1009 C1011 1.415 . S
C1010 C1009 1.355 . S
C1010 C1012 1.419 . S
C1011 C1006 1.425 . S
C1011 C1008 1.409 . S
C1011 C1009 1.415 . S
C1012 H1002 0.930 . S
C1012 C1010 1.419 . S
C1012 C1013 1.362 . S
C1013 H1003 0.930 . S
C1013 C1006 1.409 . S
C1013 C1012 1.362 . S
H1014 C1020 0.930 . S
H1015 C1023 0.930 . S
H1016 C1024 0.930 . S
H1017 C1025 0.930 . S
H1018 C1028 0.930 . S
H1019 C1029 0.930 . S
C1020 H1014 0.930 . S
C1020 C1021 1.355 . S
C1020 C1022 1.415 . S
C1021 C1020 1.355 . S
C1021 C1023 1.419 . S
C1022 C1020 1.415 . S
C1022 C1027 1.425 . S
C1022 C1029 1.409 . S
C1023 H1015 0.930 . S
C1023 C1021 1.419 . S
C1023 C1024 1.362 . S
C1024 H1016 0.930 . S
C1024 C1023 1.362 . S
C1024 C1027 1.409 . S
C1025 H1017 0.930 . S
C1025 C1026 1.355 . S
C1025 C1027 1.415 . S
C1026 C1025 1.355 . S
C1026 C1028 1.419 . S
C1027 C1022 1.425 . S
C1027 C1024 1.409 . S
C1027 C1025 1.415 . S
C1028 H1018 0.930 . S
C1028 C1026 1.419 . S
C1028 C1029 1.362 . S
C1029 H1019 0.930 . S
C1029 C1022 1.409 . S
C1029 C1028 1.362 . S
H1030 C1036 0.930 . S
H1031 C1039 0.930 . S
H1032 C1040 0.930 . S
H1033 C1041 0.930 . S
H1034 C1044 0.930 . S
H1035 C1045 0.930 . S
C1036 H1030 0.930 . S
C1036 C1037 1.355 . S
C1036 C1038 1.415 . S
C1037 C1036 1.355 . S
C1037 C1039 1.419 . S
C1038 C1036 1.415 . S
C1038 C1043 1.425 . S
C1038 C1045 1.409 . S
C1039 H1031 0.930 . S
C1039 C1037 1.419 . S
C1039 C1040 1.362 . S
C1040 H1032 0.930 . S
C1040 C1039 1.362 . S
C1040 C1043 1.409 . S
C1041 H1033 0.930 . S
C1041 C1042 1.355 . S
C1041 C1043 1.415 . S
C1042 C1041 1.355 . S
C1042 C1044 1.419 . S
C1043 C1038 1.425 . S
C1043 C1040 1.409 . S
C1043 C1041 1.415 . S
C1044 H1034 0.930 . S
C1044 C1042 1.419 . S
C1044 C1045 1.362 . S
C1045 H1035 0.930 . S
C1045 C1038 1.409 . S
C1045 C1044 1.362 . S
H1046 C1052 0.930 . S
H1047 C1055 0.930 . S
H1048 C1056 0.930 . S
H1049 C1057 0.930 . S
H1050 C1060 0.930 . S
H1051 C1061 0.930 . S
C1052 H1046 0.930 . S
C1052 C1053 1.355 . S
C1052 C1054 1.415 . S
C1053 C1052 1.355 . S
C1053 C1055 1.419 . S
C1054 C1052 1.415 . S
C1054 C1059 1.425 . S
C1054 C1061 1.409 . S
C1055 H1047 0.930 . S
C1055 C1053 1.419 . S
C1055 C1056 1.362 . S
C1056 H1048 0.930 . S
C1056 C1055 1.362 . S
C1056 C1059 1.409 . S
C1057 H1049 0.930 . S
C1057 C1058 1.355 . S
C1057 C1059 1.415 . S
C1058 C1057 1.355 . S
C1058 C1060 1.419 . S
C1059 C1054 1.425 . S
C1059 C1056 1.409 . S
C1059 C1057 1.415 . S
C1060 H1050 0.930 . S
C1060 C1058 1.419 . S
C1060 C1061 1.362 . S
C1061 H1051 0.930 . S
C1061 C1054 1.409 . S
C1061 C1060 1.362 . S
H1062 C1068 0.930 . S
H1063 C1071 0.930 . S
H1064 C1072 0.930 . S
H1065 C1073 0.930 . S
H1066 C1076 0.930 . S
H1067 C1077 0.930 . S
C1068 H1062 0.930 . S
C1068 C1069 1.355 . S
C1068 C1070 1.415 . S
C1069 C1068 1.355 . S
C1069 C1071 1.419 . S
C1070 C1068 1.415 . S
C1070 C1075 1.425 . S
C1070 C1077 1.409 . S
C1071 H1063 0.930 . S
C1071 C1069 1.419 . S
C1071 C1072 1.362 . S
C1072 H1064 0.930 . S
C1072 C1071 1.362 . S
C1072 C1075 1.409 . S
C1073 H1065 0.930 . S
C1073 C1074 1.355 . S
C1073 C1075 1.415 . S
C1074 C1073 1.355 . S
C1074 C1076 1.419 . S
C1075 C1070 1.425 . S
C1075 C1072 1.409 . S
C1075 C1073 1.415 . S
C1076 H1066 0.930 . S
C1076 C1074 1.419 . S
C1076 C1077 1.362 . S
C1077 H1067 0.930 . S
C1077 C1070 1.409 . S
C1077 C1076 1.362 . S
H1078 C1084 0.930 . S
H1079 C1087 0.930 . S
H1080 C1088 0.930 . S
H1081 C1089 0.930 . S
H1082 C1092 0.930 . S
H1083 C1093 0.930 . S
C1084 H1078 0.930 . S
C1084 C1085 1.355 . S
C1084 C1086 1.415 . S
C1085 C1084 1.355 . S
C1085 C1087 1.419 . S
C1086 C1084 1.415 . S
C1086 C1091 1.425 . S
C1086 C1093 1.409 . S
C1087 H1079 0.930 . S
C1087 C1085 1.419 . S
C1087 C1088 1.362 . S
C1088 H1080 0.930 . S
C1088 C1087 1.362 . S
C1088 C1091 1.409 . S
C1089 H1081 0.930 . S
C1089 C1090 1.355 . S
C1089 C1091 1.415 . S
C1090 C1089 1.355 . S
C1090 C1092 1.419 . S
C1091 C1086 1.425 . S
C1091 C1088 1.409 . S
C1091 C1089 1.415 . S
C1092 H1082 0.930 . S
C1092 C1090 1.419 . S
C1092 C1093 1.362 . S
C1093 H1083 0.930 . S
C1093 C1086 1.409 . S
C1093 C1092 1.362 . S
H1094 C1100 0.930 . S
H1095 C1103 0.930 . S
H1096 C1104 0.930 . S
H1097 C1105 0.930 . S
H1098 C1108 0.930 . S
H1099 C1109 0.930 . S
C1100 H1094 0.930 . S
C1100 C1101 1.355 . S
C1100 C1102 1.415 . S
C1101 C1100 1.355 . S
C1101 C1103 1.419 . S
C1102 C1100 1.415 . S
C1102 C1107 1.425 . S
C1102 C1109 1.409 . S
C1103 H1095 0.930 . S
C1103 C1101 1.419 . S
C1103 C1104 1.362 . S
C1104 H1096 0.930 . S
C1104 C1103 1.362 . S
C1104 C1107 1.409 . S
C1105 H1097 0.930 . S
C1105 C1106 1.355 . S
C1105 C1107 1.415 . S
C1106 C1105 1.355 . S
C1106 C1108 1.419 . S
C1107 C1102 1.425 . S
C1107 C1104 1.409 . S
C1107 C1105 1.415 . S
C1108 H1098 0.930 . S
C1108 C1106 1.419 . S
C1108 C1109 1.362 . S
C1109 H1099 0.930 . S
C1109 C1102 1.409 . S
C1109 C1108 1.362 . S
H1110 C1116 0.930 . S
H1111 C1119 0.930 . S
H1112 C1120 0.930 . S
H1113 C1121 0.930 . S
H1114 C1124 0.930 . S
H1115 C1125 0.930 . S
C1116 H1110 0.930 . S
C1116 C1117 1.355 . S
C1116 C1118 1.415 . S
C1117 C1116 1.355 . S
C1117 C1119 1.419 . S
C1118 C1116 1.415 . S
C1118 C1123 1.425 . S
C1118 C1125 1.409 . S
C1119 H1111 0.930 . S
C1119 C1117 1.419 . S
C1119 C1120 1.362 . S
C1120 H1112 0.930 . S
C1120 C1119 1.362 . S
C1120 C1123 1.409 . S
C1121 H1113 0.930 . S
C1121 C1122 1.355 . S
C1121 C1123 1.415 . S
C1122 C1121 1.355 . S
C1122 C1124 1.419 . S
C1123 C1118 1.425 . S
C1123 C1120 1.409 . S
C1123 C1121 1.415 . S
C1124 H1114 0.930 . S
C1124 C1122 1.419 . S
C1124 C1125 1.362 . S
C1125 H1115 0.930 . S
C1125 C1118 1.409 . S
C1125 C1124 1.362 . S
H1126 C1132 0.930 . S
H1127 C1135 0.930 . S
H1128 C1136 0.930 . S
H1129 C1137 0.930 . S
H1130 C1140 0.930 . S
H1131 C1141 0.930 . S
C1132 H1126 0.930 . S
C1132 C1133 1.355 . S
C1132 C1134 1.415 . S
C1133 C1132 1.355 . S
C1133 C1135 1.419 . S
C1134 C1132 1.415 . S
C1134 C1139 1.425 . S
C1134 C1141 1.409 . S
C1135 H1127 0.930 . S
C1135 C1133 1.419 . S
C1135 C1136 1.362 . S
C1136 H1128 0.930 . S
C1136 C1135 1.362 . S
C1136 C1139 1.409 . S
C1137 H1129 0.930 . S
C1137 C1138 1.355 . S
C1137 C1139 1.415 . S
C1138 C1137 1.355 . S
C1138 C1140 1.419 . S
C1139 C1134 1.425 . S
C1139 C1136 1.409 . S
C1139 C1137 1.415 . S
C1140 H1130 0.930 . S
C1140 C1138 1.419 . S
C1140 C1141 1.362 . S
C1141 H1131 0.930 . S
C1141 C1134 1.409 . S
C1141 C1140 1.362 . S
H1142 C1148 0.930 . S
H1143 C1151 0.930 . S
H1144 C1152 0.930 . S
H1145 C1153 0.930 . S
H1146 C1156 0.930 . S
H1147 C1157 0.930 . S
C1148 H1142 0.930 . S
C1148 C1149 1.355 . S
C1148 C1150 1.415 . S
C1149 C1148 1.355 . S
C1149 C1151 1.419 . S
C1150 C1148 1.415 . S
C1150 C1155 1.425 . S
C1150 C1157 1.409 . S
C1151 H1143 0.930 . S
C1151 C1149 1.419 . S
C1151 C1152 1.362 . S
C1152 H1144 0.930 . S
C1152 C1151 1.362 . S
C1152 C1155 1.409 . S
C1153 H1145 0.930 . S
C1153 C1154 1.355 . S
C1153 C1155 1.415 . S
C1154 C1153 1.355 . S
C1154 C1156 1.419 . S
C1155 C1150 1.425 . S
C1155 C1152 1.409 . S
C1155 C1153 1.415 . S
C1156 H1146 0.930 . S
C1156 C1154 1.419 . S
C1156 C1157 1.362 . S
C1157 H1147 0.930 . S
C1157 C1150 1.409 . S
C1157 C1156 1.362 . S
H1158 C1164 0.930 . S
H1159 C1167 0.930 . S
H1160 C1168 0.930 . S
H1161 C1169 0.930 . S
H1162 C1172 0.930 . S
H1163 C1173 0.930 . S
C1164 H1158 0.930 . S
C1164 C1165 1.355 . S
C1164 C1166 1.415 . S
C1165 C1164 1.355 . S
C1165 C1167 1.419 . S
C1166 C1164 1.415 . S
C1166 C1171 1.425 . S
C1166 C1173 1.409 . S
C1167 H1159 0.930 . S
C1167 C1165 1.419 . S
C1167 C1168 1.362 . S
C1168 H1160 0.930 . S
C1168 C1167 1.362 . S
C1168 C1171 1.409 . S
C1169 H1161 0.930 . S
C1169 C1170 1.355 . S
C1169 C1171 1.415 . S
C1170 C1169 1.355 . S
C1170 C1172 1.419 . S
C1171 C1166 1.425 . S
C1171 C1168 1.409 . S
C1171 C1169 1.415 . S
C1172 H1162 0.930 . S
C1172 C1170 1.419 . S
C1172 C1173 1.362 . S
C1173 H1163 0.930 . S
C1173 C1166 1.409 . S
C1173 C1172 1.362 . S
H1174 C1180 0.930 . S
H1175 C1183 0.930 . S
H1176 C1184 0.930 . S
H1177 C1185 0.930 . S
H1178 C1188 0.930 . S
H1179 C1189 0.930 . S
C1180 H1174 0.930 . S
C1180 C1181 1.355 . S
C1180 C1182 1.415 . S
C1181 C1180 1.355 . S
C1181 C1183 1.419 . S
C1182 C1180 1.415 . S
C1182 C1187 1.425 . S
C1182 C1189 1.409 . S
C1183 H1175 0.930 . S
C1183 C1181 1.419 . S
C1183 C1184 1.362 . S
C1184 H1176 0.930 . S
C1184 C1183 1.362 . S
C1184 C1187 1.409 . S
C1185 H1177 0.930 . S
C1185 C1186 1.355 . S
C1185 C1187 1.415 . S
C1186 C1185 1.355 . S
C1186 C1188 1.419 . S
C1187 C1182 1.425 . S
C1187 C1184 1.409 . S
C1187 C1185 1.415 . S
C1188 H1178 0.930 . S
C1188 C1186 1.419 . S
C1188 C1189 1.362 . S
C1189 H1179 0.930 . S
C1189 C1182 1.409 . S
C1189 C1188 1.362 . S
H1190 C1196 0.930 . S
H1191 C1199 0.930 . S
H1192 C1200 0.930 . S
H1193 C1201 0.930 . S
H1194 C1204 0.930 . S
H1195 C1205 0.930 . S
C1196 H1190 0.930 . S
C1196 C1197 1.355 . S
C1196 C1198 1.415 . S
C1197 C1196 1.355 . S
C1197 C1199 1.419 . S
C1198 C1196 1.415 . S
C1198 C1203 1.425 . S
C1198 C1205 1.409 . S
C1199 H1191 0.930 . S
C1199 C1197 1.419 . S
C1199 C1200 1.362 . S
C1200 H1192 0.930 . S
C1200 C1199 1.362 . S
C1200 C1203 1.409 . S
C1201 H1193 0.930 . S
C1201 C1202 1.355 . S
C1201 C1203 1.415 . S
C1202 C1201 1.355 . S
C1202 C1204 1.419 . S
C1203 C1198 1.425 . S
C1203 C1200 1.409 . S
C1203 C1201 1.415 . S
C1204 H1194 0.930 . S
C1204 C1202 1.419 . S
C1204 C1205 1.362 . S
C1205 H1195 0.930 . S
C1205 C1198 1.409 . S
C1205 C1204 1.362 . S
H1206 C1212 0.930 . S
H1207 C1215 0.930 . S
H1208 C1216 0.930 . S
H1209 C1217 0.930 . S
H1210 C1220 0.930 . S
H1211 C1221 0.930 . S
C1212 H1206 0.930 . S
C1212 C1213 1.355 . S
C1212 C1214 1.415 . S
C1213 C1212 1.355 . S
C1213 C1215 1.419 . S
C1214 C1212 1.415 . S
C1214 C1219 1.425 . S
C1214 C1221 1.409 . S
C1215 H1207 0.930 . S
C1215 C1213 1.419 . S
C1215 C1216 1.362 . S
C1216 H1208 0.930 . S
C1216 C1215 1.362 . S
C1216 C1219 1.409 . S
C1217 H1209 0.930 . S
C1217 C1218 1.355 . S
C1217 C1219 1.415 . S
C1218 C1217 1.355 . S
C1218 C1220 1.419 . S
C1219 C1214 1.425 . S
C1219 C1216 1.409 . S
C1219 C1217 1.415 . S
C1220 H1210 0.930 . S
C1220 C1218 1.419 . S
C1220 C1221 1.362 . S
C1221 H1211 0.930 . S
C1221 C1214 1.409 . S
C1221 C1220 1.362 . S
H1222 C1228 0.930 . S
H1223 C1231 0.930 . S
H1224 C1232 0.930 . S
H1225 C1233 0.930 . S
H1226 C1236 0.930 . S
H1227 C1237 0.930 . S
C1228 H1222 0.930 . S
C1228 C1229 1.355 . S
C1228 C1230 1.415 . S
C1229 C1228 1.355 . S
C1229 C1231 1.419 . S
C1230 C1228 1.415 . S
C1230 C1235 1.425 . S
C1230 C1237 1.409 . S
C1231 H1223 0.930 . S
C1231 C1229 1.419 . S
C1231 C1232 1.362 . S
C1232 H1224 0.930 . S
C1232 C1231 1.362 . S
C1232 C1235 1.409 . S
C1233 H1225 0.930 . S
C1233 C1234 1.355 . S
C1233 C1235 1.415 . S
C1234 C1233 1.355 . S
C1234 C1236 1.419 . S
C1235 C1230 1.425 . S
C1235 C1232 1.409 . S
C1235 C1233 1.415 . S
C1236 H1226 0.930 . S
C1236 C1234 1.419 . S
C1236 C1237 1.362 . S
C1237 H1227 0.930 . S
C1237 C1230 1.409 . S
C1237 C1236 1.362 . S
H1238 C1244 0.930 . S
H1239 C1247 0.930 . S
H1240 C1248 0.930 . S
H1241 C1249 0.930 . S
H1242 C1252 0.930 . S
H1243 C1253 0.930 . S
C1244 H1238 0.930 . S
C1244 C1245 1.355 . S
C1244 C1246 1.415 . S
C1245 C1244 1.355 . S
C1245 C1247 1.419 . S
C1246 C1244 1.415 . S
C1246 C1251 1.425 . S
C1246 C1253 1.409 . S
C1247 H1239 0.930 . S
C1247 C1245 1.419 . S
C1247 C1248 1.362 . S
C1248 H1240 0.930 . S
C1248 C1247 1.362 . S
C1248 C1251 1.409 . S
C1249 H1241 0.930 . S
C1249 C1250 1.355 . S
C1249 C1251 1.415 . S
C1250 C1249 1.355 . S
C1250 C1252 1.419 . S
C1251 C1246 1.425 . S
C1251 C1248 1.409 . S
C1251 C1249 1.415 . S
C1252 H1242 0.930 . S
C1252 C1250 1.419 . S
C1252 C1253 1.362 . S
C1253 H1243 0.930 . S
C1253 C1246 1.409 . S
C1253 C1252 1.362 . S
H1254 C1260 0.930 . S
H1255 C1263 0.930 . S
H1256 C1264 0.930 . S
H1257 C1265 0.930 . S
H1258 C1268 0.930 . S
H1259 C1269 0.930 . S
C1260 H1254 0.930 . S
C1260 C1261 1.355 . S
C1260 C1262 1.415 . S
C1261 C1260 1.355 . S
C1261 C1263 1.419 . S
C1262 C1260 1.415 . S
C1262 C1267 1.425 . S
C1262 C1269 1.409 . S
C1263 H1255 0.930 . S
C1263 C1261 1.419 . S
C1263 C1264 1.362 . S
C1264 H1256 0.930 . S
C1264 C1263 1.362 . S
C1264 C1267 1.409 . S
C1265 H1257 0.930 . S
C1265 C1266 1.355 . S
C1265 C1267 1.415 . S
C1266 C1265 1.355 . S
C1266 C1268 1.419 . S
C1267 C1262 1.425 . S
C1267 C1264 1.409 . S
C1267 C1265 1.415 . S
C1268 H1258 0.930 . S
C1268 C1266 1.419 . S
C1268 C1269 1.362 . S
C1269 H1259 0.930 . S
C1269 C1262 1.409 . S
C1269 C1268 1.362 . S
H1270 C1276 0.930 . S
H1271 C1279 0.930 . S
H1272 C1280 0.930 . S
H1273 C1281 0.930 . S
H1274 C1284 0.930 . S
H1275 C1285 0.930 . S
C1276 H1270 0.930 . S
C1276 C1277 1.355 . S
C1276 C1278 1.415 . S
C1277 C1276 1.355 . S
C1277 C1279 1.419 . S
C1278 C1276 1.415 . S
C1278 C1283 1.425 . S
C1278 C1285 1.409 . S
C1279 H1271 0.930 . S
C1279 C1277 1.419 . S
C1279 C1280 1.362 . S
C1280 H1272 0.930 . S
C1280 C1279 1.362 . S
C1280 C1283 1.409 . S
C1281 H1273 0.930 . S
C1281 C1282 1.355 . S
C1281 C1283 1.415 . S
C1282 C1281 1.355 . S
C1282 C1284 1.419 . S
C1283 C1278 1.425 . S
C1283 C1280 1.409 . S
C1283 C1281 1.415 . S
C1284 H1274 0.930 . S
C1284 C1282 1.419 . S
C1284 C1285 1.362 . S
C1285 H1275 0.930 . S
C1285 C1278 1.409 . S
C1285 C1284 1.362 . S
C530 C347 2.342 . S
C525 C24 2.500 . S
C546 C348 3.296 . S
C541 C53 3.396 . S
C562 C342 1.441 . S
C557 C82 1.438 . S
C573 C137 0.477 . S
C578 C341 0.495 . S
C589 C184 3.234 . S
C594 C344 3.103 . S
C610 C346 1.281 . S
C605 C202 1.224 . S
C621 C266 0.495 . S
C626 C345 0.449 . S
C637 C293 2.507 . S
C642 C343 2.358 . S
C658 C378 2.851 . S
C653 C2 2.827 . S
C669 C57 0.662 . S
C674 C409 0.566 . S
C690 C377 0.755 . S
C685 C106 0.780 . S
C706 C412 1.006 . S
C701 C143 0.938 . S
C717 C162 1.283 . S
C722 C375 1.248 . S
C738 C407 0.908 1_556 S
C733 C226 0.879 . S
C749 C264 2.297 . S
C754 C380 2.332 . S
C765 C297 0.676 1_554 S
C770 C414 0.253 . S
C781 C26 1.066 . S
C786 C410 1.107 . S
C797 C186 0.501 . S
C802 C413 0.210 . S
C818 C381 2.335 . S
C813 C224 2.388 . S
C834 C408 1.656 1_556 S
C829 C242 1.676 . S
C845 C303 3.474 . S
C850 C374 3.493 . S
C861 C104 2.191 . S
C866 C411 2.209 . S
C882 C376 2.586 . S
C877 C133 2.652 . S
C893 C63 1.744 . S
C898 C379 1.770 . S
C909 C304 2.614 . S
C914 C446 2.480 . S
C925 C173 2.949 . S
C930 C447 2.866 . S
C946 C441 1.374 . S
C941 C223 1.426 . S
C962 C440 0.493 . S
C957 C257 0.494 . S
C973 C64 3.190 . S
C978 C443 3.101 . S
C994 C445 1.309 . S
C989 C103 1.321 . S
C1005 C146 0.260 . S
C1010 C444 0.189 . S
C1021 C13 2.556 . S
C1026 C442 2.474 . S
C1037 C282 3.612 . S
C1042 C480 3.550 . S
C1058 C512 0.467 . S
C1053 C177 0.464 . S
C1069 C213 2.360 . S
C1074 C473 2.367 . S
C1085 C263 2.026 . S
C1090 C507 2.013 . S
C1106 C478 1.504 . S
C1101 C42 1.549 . S
C1117 C93 2.325 . S
C1122 C509 2.323 . S
C1138 C475 2.909 . S
C1133 C144 2.905 . S
C1154 C510 1.181 . S
C1149 C17 1.105 . S
C1170 C506 0.472 . S
C1165 C306 0.770 . S
C1181 C66 0.959 . S
C1186 C508 0.299 . S
C1197 C97 0.726 . S
C1202 C477 0.703 . S
C1218 C511 1.263 . S
C1213 C122 1.208 . S
C1229 C23 3.007 . S
C1234 C476 2.894 . S
C1245 C217 1.061 . S
C1250 C513 1.095 . S
C1266 C479 2.511 . S
C1261 C253 2.530 . S
C1282 C474 1.064 . S
C1277 C183 1.071 . S
